# Generated by pormake.
# Topology ssb, (4,4)-cn, num edge types: 1
# Building blocks:
#     Node 0, Type 0, BuildingBlock: NAWXER_clean_sbu_0, # of connection points: 4
#     Node 1, Type 0, BuildingBlock: NAWXER_clean_sbu_0, # of connection points: 4
#     Node 2, Type 0, BuildingBlock: NAWXER_clean_sbu_0, # of connection points: 4
#     Node 3, Type 0, BuildingBlock: NAWXER_clean_sbu_0, # of connection points: 4
#     Node 4, Type 0, BuildingBlock: NAWXER_clean_sbu_0, # of connection points: 4
#     Node 5, Type 0, BuildingBlock: NAWXER_clean_sbu_0, # of connection points: 4
#     Node 6, Type 0, BuildingBlock: NAWXER_clean_sbu_0, # of connection points: 4
#     Node 7, Type 0, BuildingBlock: NAWXER_clean_sbu_0, # of connection points: 4
#     Node 8, Type 1, BuildingBlock: KOZSID_clean_sbu_0, # of connection points: 4
#     Node 9, Type 1, BuildingBlock: KOZSID_clean_sbu_0, # of connection points: 4
#     Node 10, Type 1, BuildingBlock: KOZSID_clean_sbu_0, # of connection points: 4
#     Node 11, Type 1, BuildingBlock: KOZSID_clean_sbu_0, # of connection points: 4
#     Node 12, Type 1, BuildingBlock: KOZSID_clean_sbu_0, # of connection points: 4
#     Node 13, Type 1, BuildingBlock: KOZSID_clean_sbu_0, # of connection points: 4
#     Node 14, Type 1, BuildingBlock: KOZSID_clean_sbu_0, # of connection points: 4
#     Node 15, Type 1, BuildingBlock: KOZSID_clean_sbu_0, # of connection points: 4
#     Edge 16, Type (0, 1), BuildingBlock: TEMPAE_clean_linker_10, # of connection points: 2
#     Edge 17, Type (0, 1), BuildingBlock: TEMPAE_clean_linker_10, # of connection points: 2
#     Edge 18, Type (0, 1), BuildingBlock: TEMPAE_clean_linker_10, # of connection points: 2
#     Edge 19, Type (0, 1), BuildingBlock: TEMPAE_clean_linker_10, # of connection points: 2
#     Edge 20, Type (0, 1), BuildingBlock: TEMPAE_clean_linker_10, # of connection points: 2
#     Edge 21, Type (0, 1), BuildingBlock: TEMPAE_clean_linker_10, # of connection points: 2
#     Edge 22, Type (0, 1), BuildingBlock: TEMPAE_clean_linker_10, # of connection points: 2
#     Edge 23, Type (0, 1), BuildingBlock: TEMPAE_clean_linker_10, # of connection points: 2
#     Edge 24, Type (0, 1), BuildingBlock: TEMPAE_clean_linker_10, # of connection points: 2
#     Edge 25, Type (0, 1), BuildingBlock: TEMPAE_clean_linker_10, # of connection points: 2
#     Edge 26, Type (0, 1), BuildingBlock: TEMPAE_clean_linker_10, # of connection points: 2
#     Edge 27, Type (0, 1), BuildingBlock: TEMPAE_clean_linker_10, # of connection points: 2
#     Edge 28, Type (0, 1), BuildingBlock: TEMPAE_clean_linker_10, # of connection points: 2
#     Edge 29, Type (0, 1), BuildingBlock: TEMPAE_clean_linker_10, # of connection points: 2
#     Edge 30, Type (0, 1), BuildingBlock: TEMPAE_clean_linker_10, # of connection points: 2
#     Edge 31, Type (0, 1), BuildingBlock: TEMPAE_clean_linker_10, # of connection points: 2
#     Edge 32, Type (0, 1), BuildingBlock: TEMPAE_clean_linker_10, # of connection points: 2
#     Edge 33, Type (0, 1), BuildingBlock: TEMPAE_clean_linker_10, # of connection points: 2
#     Edge 34, Type (0, 1), BuildingBlock: TEMPAE_clean_linker_10, # of connection points: 2
#     Edge 35, Type (0, 1), BuildingBlock: TEMPAE_clean_linker_10, # of connection points: 2
#     Edge 36, Type (0, 1), BuildingBlock: TEMPAE_clean_linker_10, # of connection points: 2
#     Edge 37, Type (0, 1), BuildingBlock: TEMPAE_clean_linker_10, # of connection points: 2
#     Edge 38, Type (0, 1), BuildingBlock: TEMPAE_clean_linker_10, # of connection points: 2
#     Edge 39, Type (0, 1), BuildingBlock: TEMPAE_clean_linker_10, # of connection points: 2
#     Edge 40, Type (0, 1), BuildingBlock: TEMPAE_clean_linker_10, # of connection points: 2
#     Edge 41, Type (0, 1), BuildingBlock: TEMPAE_clean_linker_10, # of connection points: 2
#     Edge 42, Type (0, 1), BuildingBlock: TEMPAE_clean_linker_10, # of connection points: 2
#     Edge 43, Type (0, 1), BuildingBlock: TEMPAE_clean_linker_10, # of connection points: 2
#     Edge 44, Type (0, 1), BuildingBlock: TEMPAE_clean_linker_10, # of connection points: 2
#     Edge 45, Type (0, 1), BuildingBlock: TEMPAE_clean_linker_10, # of connection points: 2
#     Edge 46, Type (0, 1), BuildingBlock: TEMPAE_clean_linker_10, # of connection points: 2
#     Edge 47, Type (0, 1), BuildingBlock: TEMPAE_clean_linker_10, # of connection points: 2
# Relax obj value: 0.005
# Max RMSD: 0.029
# Mean RMSD: 0.016
data_MOF--net-ssb--node1-NAWXER_clean_sbu_0--node2-KOZSID_clean_sbu_0--edge1-TEMPAE_clean_linker_10
_symmetry_space_group_name_H-M    P1
_symmetry_Int_Tables_number       1
_symmetry_cell_setting            triclinic
loop_
_symmetry_equiv_pos_as_xyz
'x, y, z'
_cell_length_a     53.675668
_cell_length_b     53.559088
_cell_length_c     39.180581
_cell_angle_alpha  92.381369
_cell_angle_beta   95.119164
_cell_angle_gamma 90.023182
loop_
_atom_site_label
_atom_site_type_symbol
_atom_site_fract_x
_atom_site_fract_y
_atom_site_fract_z
_atom_type_partial_charge
C0 C 0.2328 0.26975 0.3309 0.0
C1 C 0.3098 0.25375 0.27358 0.0
O2 O 0.22956 0.25674 0.30266 0.0
Zn3 Zn 0.25058 0.24201 0.2629 0.0
O4 O 0.25454 0.27825 0.34071 0.0
Zn5 Zn 0.27216 0.26335 0.30303 0.0
O6 O 0.25942 0.28479 0.25969 0.0
O7 O 0.23741 0.26042 0.22182 0.0
O8 O 0.30836 0.26667 0.3014 0.0
O9 O 0.28989 0.24395 0.25808 0.0
O10 O 0.24582 0.20566 0.26916 0.0
O11 O 0.26881 0.22416 0.31228 0.0
C12 C 0.24681 0.2819 0.23041 0.0
C13 C 0.25839 0.20427 0.29826 0.0
C14 C 0.73789 0.2528 0.23196 0.0
C15 C 0.81589 0.26211 0.30681 0.0
O16 O 0.7357 0.26599 0.25961 0.0
Zn17 Zn 0.75845 0.27878 0.30502 0.0
O18 O 0.75892 0.24317 0.22644 0.0
Zn19 Zn 0.77707 0.25672 0.26831 0.0
O20 O 0.75973 0.23613 0.30503 0.0
O21 O 0.74306 0.26253 0.34135 0.0
O22 O 0.81251 0.24968 0.27842 0.0
O23 O 0.79741 0.27366 0.31867 0.0
O24 O 0.75545 0.31443 0.30122 0.0
O25 O 0.77541 0.29612 0.26007 0.0
C26 C 0.74747 0.24025 0.33123 0.0
C27 C 0.76647 0.31592 0.27394 0.0
C28 C 0.74736 0.71335 0.22461 0.0
C29 C 0.73757 0.79276 0.29479 0.0
O30 O 0.73681 0.71553 0.2525 0.0
Zn31 Zn 0.7414 0.75202 0.261 0.0
O32 O 0.75665 0.73294 0.21266 0.0
Zn33 Zn 0.75972 0.77278 0.22474 0.0
O34 O 0.79597 0.77775 0.2313 0.0
O35 O 0.78144 0.75533 0.27126 0.0
O36 O 0.74893 0.79515 0.2677 0.0
O37 O 0.72913 0.77128 0.30082 0.0
O38 O 0.71734 0.7644 0.21888 0.0
O39 O 0.73907 0.78647 0.18569 0.0
C40 C 0.79993 0.76566 0.25857 0.0
C41 C 0.71828 0.777 0.19197 0.0
C42 C 0.25475 0.69311 0.24391 0.0
C43 C 0.27542 0.77483 0.29605 0.0
O44 O 0.24471 0.71099 0.22685 0.0
Zn45 Zn 0.24441 0.75081 0.22903 0.0
O46 O 0.26968 0.69783 0.27043 0.0
Zn47 Zn 0.26679 0.73363 0.26971 0.0
O48 O 0.22806 0.7394 0.2782 0.0
O49 O 0.20909 0.7577 0.23362 0.0
O50 O 0.28357 0.75397 0.30663 0.0
O51 O 0.26126 0.77553 0.26803 0.0
O52 O 0.26071 0.75998 0.18848 0.0
O53 O 0.28674 0.74246 0.22694 0.0
C54 C 0.20819 0.74867 0.26308 0.0
C55 C 0.28265 0.75243 0.19781 0.0
C56 C 0.30759 0.75566 0.75029 0.0
C57 C 0.22253 0.74698 0.69139 0.0
O58 O 0.29071 0.76768 0.76519 0.0
Zn59 Zn 0.25123 0.77313 0.7598 0.0
O60 O 0.30134 0.74237 0.72317 0.0
Zn61 Zn 0.26525 0.7495 0.7206 0.0
O62 O 0.26378 0.78904 0.7098 0.0
O63 O 0.24989 0.80959 0.75427 0.0
O64 O 0.24215 0.73581 0.68298 0.0
O65 O 0.2237 0.76079 0.71908 0.0
O66 O 0.24138 0.75679 0.80129 0.0
O67 O 0.2547 0.72951 0.76371 0.0
C68 C 0.25769 0.80975 0.72448 0.0
C69 C 0.24632 0.73421 0.79293 0.0
C70 C 0.27341 0.23124 0.74416 0.0
C71 C 0.26553 0.31153 0.80275 0.0
O72 O 0.26305 0.22989 0.7722 0.0
Zn73 Zn 0.254 0.25364 0.81379 0.0
O74 O 0.28251 0.25188 0.73615 0.0
Zn75 Zn 0.2721 0.2715 0.77481 0.0
O76 O 0.2969 0.26066 0.81707 0.0
O77 O 0.2748 0.24169 0.85313 0.0
O78 O 0.27692 0.30701 0.77611 0.0
O79 O 0.25661 0.29358 0.8187 0.0
O80 O 0.218 0.24866 0.80977 0.0
O81 O 0.23185 0.26856 0.76676 0.0
C82 C 0.29581 0.24946 0.84515 0.0
C83 C 0.21368 0.25946 0.78149 0.0
C84 C 0.73645 0.21435 0.71921 0.0
C85 C 0.74634 0.29461 0.79017 0.0
O86 O 0.72608 0.23513 0.71202 0.0
Zn87 Zn 0.74031 0.25533 0.75296 0.0
O88 O 0.75028 0.21305 0.74751 0.0
Zn89 Zn 0.76356 0.23662 0.79124 0.0
O90 O 0.74794 0.2216 0.82893 0.0
O91 O 0.72107 0.24045 0.7929 0.0
O92 O 0.75824 0.27592 0.80298 0.0
O93 O 0.73362 0.29144 0.76122 0.0
O94 O 0.77952 0.2546 0.74549 0.0
O95 O 0.79951 0.23459 0.78772 0.0
C96 C 0.7256 0.22836 0.82027 0.0
C97 C 0.79998 0.24604 0.75993 0.0
C98 C 0.79826 0.75011 0.72477 0.0
C99 C 0.72406 0.75845 0.79003 0.0
O100 O 0.7788 0.73889 0.71018 0.0
Zn101 Zn 0.74055 0.73315 0.71906 0.0
O102 O 0.79682 0.76164 0.75357 0.0
Zn103 Zn 0.76157 0.75469 0.75877 0.0
O104 O 0.76027 0.71523 0.76597 0.0
O105 O 0.73779 0.69742 0.7216 0.0
O106 O 0.74573 0.76759 0.79878 0.0
O107 O 0.7202 0.74574 0.76155 0.0
O108 O 0.72317 0.7493 0.6807 0.0
O109 O 0.74233 0.77568 0.71941 0.0
C110 C 0.75046 0.69559 0.75038 0.0
C111 C 0.72852 0.77155 0.69135 0.0
C112 C 0.04925 0.28303 0.60515 0.0
C113 C 0.05666 0.30595 0.62073 0.0
C114 C 0.04347 0.32382 0.60319 0.0
C115 C 0.02897 0.31094 0.57782 0.0
N116 N 0.03199 0.28586 0.57809 0.0
Co117 Co 0.01551 0.2603 0.54441 0.0
N118 N 0.99668 0.28677 0.51795 0.0
C119 C 0.9977 0.31173 0.52491 0.0
C120 C 0.98194 0.32518 0.50329 0.0
C121 C 0.96998 0.30781 0.48124 0.0
C122 C 0.97931 0.28464 0.49055 0.0
N123 N 0.99909 0.23474 0.5107 0.0
C124 C 0.98195 0.23755 0.48352 0.0
C125 C 0.97586 0.21483 0.46642 0.0
C126 C 0.98915 0.19697 0.48382 0.0
C127 C 1.0027 0.20974 0.51025 0.0
N128 N 0.03416 0.23379 0.57086 0.0
C129 C 0.03286 0.20881 0.56417 0.0
C130 C 0.04722 0.1952 0.58727 0.0
C131 C 0.05856 0.21249 0.61001 0.0
C132 C 0.0506 0.23579 0.59922 0.0
N133 N 0.98727 0.25742 0.57386 0.0
C134 C 0.94837 0.25356 0.61775 0.0
C135 C 0.95884 0.23225 0.60295 0.0
C136 C 0.97802 0.23458 0.58123 0.0
C137 C 0.95754 0.27683 0.60966 0.0
C138 C 0.97675 0.27831 0.58793 0.0
N139 N 0.04394 0.26327 0.51521 0.0
C140 C 0.07623 0.24425 0.48333 0.0
C141 C 0.086 0.26765 0.47681 0.0
C142 C 0.07398 0.28879 0.4895 0.0
C143 C 0.05316 0.2862 0.50821 0.0
C144 C 0.05547 0.2425 0.50241 0.0
H145 H 0.04504 0.3031 0.51702 0.0
H146 H 0.04916 0.22412 0.50661 0.0
H147 H 0.98516 0.21762 0.57084 0.0
H148 H 0.98277 0.29662 0.58293 0.0
C149 C 0.0129 0.32191 0.5528 0.0
C150 C 0.05964 0.2592 0.61641 0.0
C151 C 0.97049 0.26112 0.4733 0.0
C152 C 0.01828 0.19869 0.53571 0.0
H153 H 0.07043 0.30954 0.64225 0.0
H154 H 0.04464 0.34385 0.608 0.0
H155 H 0.97911 0.34519 0.50394 0.0
H156 H 0.95569 0.31183 0.46099 0.0
H157 H 0.96292 0.21146 0.44389 0.0
H158 H 0.98875 0.17701 0.47814 0.0
H159 H 0.0493 0.1751 0.58744 0.0
H160 H 0.0714 0.2084 0.63194 0.0
H161 H 0.95257 0.21374 0.60845 0.0
H162 H 0.94976 0.29398 0.61973 0.0
H163 H 0.0844 0.22721 0.47355 0.0
H164 H 0.0808 0.30739 0.48561 0.0
C165 C 0.70064 0.04425 0.5495 0.0
C166 C 0.67748 0.05469 0.55438 0.0
C167 C 0.66008 0.04089 0.53423 0.0
C168 C 0.67349 0.02303 0.51789 0.0
N169 N 0.69839 0.02417 0.52683 0.0
Co170 Co 0.72469 0.0039 0.50484 0.0
N171 N 0.69917 0.98484 0.47313 0.0
C172 C 0.67406 0.9872 0.47265 0.0
C173 C 0.66095 0.96987 0.45151 0.0
C174 C 0.6787 0.95514 0.43811 0.0
C175 C 0.7018 0.96454 0.45155 0.0
N176 N 0.75107 0.98462 0.48176 0.0
C177 C 0.74904 0.9654 0.45777 0.0
C178 C 0.77236 0.9578 0.4487 0.0
C179 C 0.78969 0.972 0.46844 0.0
C180 C 0.77609 0.98767 0.48813 0.0
N181 N 0.75018 0.02196 0.53765 0.0
C182 C 0.7751 0.01775 0.54063 0.0
C183 C 0.78802 0.03283 0.56525 0.0
C184 C 0.77037 0.04783 0.57847 0.0
C185 C 0.74759 0.04125 0.56081 0.0
N186 N 0.72265 0.97719 0.53802 0.0
C187 C 0.71864 0.93414 0.57615 0.0
C188 C 0.74169 0.94179 0.56608 0.0
C189 C 0.74333 0.96338 0.5478 0.0
C190 C 0.69788 0.94935 0.56846 0.0
C191 C 0.70027 0.9706 0.54947 0.0
N192 N 0.72665 0.03069 0.47176 0.0
C193 C 0.74937 0.06576 0.45306 0.0
C194 C 0.7276 0.07521 0.43611 0.0
C195 C 0.70572 0.06089 0.43516 0.0
C196 C 0.70567 0.03882 0.45297 0.0
C197 C 0.74856 0.04347 0.47 0.0
H198 H 0.6883 0.02904 0.45197 0.0
H199 H 0.76578 0.03749 0.4826 0.0
H200 H 0.76145 0.96803 0.54098 0.0
H201 H 0.68365 0.98107 0.54376 0.0
C202 C 0.66338 0.00536 0.49332 0.0
C203 C 0.72429 0.05473 0.5658 0.0
C204 C 0.72566 0.95288 0.44422 0.0
C205 C 0.78608 1.00245 0.51636 0.0
H206 H 0.67348 0.07101 0.57011 0.0
H207 H 0.6401 0.04399 0.5311 0.0
H208 H 0.64086 0.96769 0.44721 0.0
H209 H 0.67487 0.9389 0.42115 0.0
H210 H 0.77648 0.94292 0.43054 0.0
H211 H 0.80983 0.97021 0.46958 0.0
H212 H 0.80805 0.0337 0.57163 0.0
H213 H 0.77399 0.06255 0.59806 0.0
H214 H 0.75843 0.93079 0.57115 0.0
H215 H 0.67973 0.94477 0.57662 0.0
H216 H 0.7669 0.07593 0.45458 0.0
H217 H 0.68855 0.06685 0.42127 0.0
C218 C 0.04578 0.77258 0.53997 0.0
C219 C 0.05476 0.79386 0.55853 0.0
C220 C 0.03774 0.81244 0.55144 0.0
C221 C 0.01932 0.80151 0.52918 0.0
N222 N 0.02371 0.77724 0.52174 0.0
Co223 Co 1.00148 0.7545 0.49135 0.0
N224 N 0.98334 0.78294 0.46948 0.0
C225 C 0.98393 0.8068 0.48187 0.0
C226 C 0.96998 0.82258 0.46119 0.0
C227 C 0.9596 0.80769 0.43438 0.0
C228 C 0.96757 0.78346 0.4404 0.0
N229 N 0.9792 0.73162 0.46111 0.0
C230 C 0.96328 0.73634 0.4332 0.0
C231 C 0.9503 0.71481 0.42115 0.0
C232 C 0.95826 0.69615 0.44229 0.0
C233 C 0.97552 0.70721 0.46611 0.0
N234 N 0.01965 0.72616 0.5134 0.0
C235 C 0.01168 0.7023 0.51236 0.0
C236 C 0.02862 0.68659 0.52862 0.0
C237 C 0.04843 0.70152 0.54088 0.0
C238 C 0.04233 0.72569 0.53174 0.0
N239 N 0.97734 0.75442 0.52628 0.0
C240 C 0.94252 0.75538 0.57592 0.0
C241 C 0.96815 0.75235 0.58531 0.0
C242 C 0.98521 0.75198 0.56018 0.0
C243 C 0.93478 0.75764 0.54107 0.0
C244 C 0.95235 0.75709 0.51683 0.0
N245 N 0.02553 0.75469 0.45656 0.0
C246 C 0.05058 0.73254 0.41725 0.0
C247 C 0.0615 0.75499 0.40861 0.0
C248 C 0.0536 0.7773 0.42425 0.0
C249 C 0.03574 0.77674 0.44809 0.0
C250 C 0.03264 0.73282 0.44109 0.0
H251 H 0.03036 0.7942 0.45988 0.0
H252 H 0.02478 0.71525 0.44734 0.0
H253 H 0.00481 0.74987 0.56826 0.0
H254 H 0.94558 0.75888 0.49037 0.0
C255 C 1.00029 0.81415 0.51034 0.0
C256 C 0.0577 0.74792 0.54236 0.0
C257 C 0.9577 0.76128 0.42003 0.0
C258 C 0.99066 0.69475 0.49078 0.0
H259 H 0.07173 0.79575 0.57555 0.0
H260 H 0.03915 0.83181 0.56045 0.0
H261 H 0.96806 0.84262 0.46471 0.0
H262 H 0.94722 0.81395 0.41316 0.0
H263 H 0.93605 0.71283 0.39988 0.0
H264 H 0.9524 0.67677 0.44022 0.0
H265 H 0.0273 0.66649 0.52996 0.0
H266 H 0.06543 0.69518 0.55473 0.0
H267 H 0.97506 0.75067 0.61194 0.0
H268 H 0.91517 0.75953 0.53239 0.0
H269 H 0.05622 0.71476 0.4063 0.0
H270 H 0.0611 0.79517 0.41811 0.0
C271 C 0.29197 0.97076 0.56563 0.0
C272 C 0.31507 0.96369 0.58095 0.0
C273 C 0.33272 0.97731 0.5668 0.0
C274 C 0.31954 0.992 0.5438 0.0
N275 N 0.29444 0.9889 0.54271 0.0
Co276 Co 0.2686 0.00624 0.51165 0.0
N277 N 0.29464 0.02613 0.49041 0.0
C278 C 0.31961 0.02568 0.49909 0.0
C279 C 0.33279 0.04243 0.48218 0.0
C280 C 0.31522 0.05456 0.46169 0.0
C281 C 0.29218 0.04433 0.46697 0.0
N282 N 0.24277 0.02293 0.47992 0.0
C283 C 0.24514 0.04058 0.45637 0.0
C284 C 0.22219 0.04613 0.43916 0.0
C285 C 0.20468 0.03214 0.45289 0.0
C286 C 0.21784 0.01864 0.47732 0.0
N287 N 0.24246 0.98696 0.53353 0.0
C288 C 0.21742 0.98842 0.52606 0.0
C289 C 0.20398 0.97255 0.54396 0.0
C290 C 0.22141 0.96009 0.56411 0.0
C291 C 0.24468 0.96923 0.55759 0.0
N292 N 0.26626 0.03377 0.5464 0.0
C293 C 0.26462 0.07595 0.5911 0.0
C294 C 0.2427 0.06617 0.57363 0.0
C295 C 0.24392 0.04505 0.55164 0.0
C296 C 0.28712 0.06383 0.58664 0.0
C297 C 0.28747 0.04292 0.56464 0.0
N298 N 0.27124 0.97867 0.47705 0.0
C299 C 0.25276 0.94361 0.4433 0.0
C300 C 0.27643 0.93487 0.43648 0.0
C301 C 0.29726 0.94926 0.4485 0.0
C302 C 0.29422 0.97106 0.46814 0.0
C303 C 0.2506 0.96545 0.46347 0.0
H304 H 0.31088 0.98098 0.47658 0.0
H305 H 0.23215 0.97097 0.46831 0.0
H306 H 0.22668 0.03837 0.53885 0.0
H307 H 0.30529 0.03487 0.56242 0.0
C308 C 0.33009 0.00939 0.52348 0.0
C309 C 0.26829 0.95967 0.57387 0.0
C310 C 0.26847 0.05309 0.44985 0.0
C311 C 0.2072 1.00299 0.49966 0.0
H312 H 0.31883 0.95009 0.60039 0.0
H313 H 0.3528 0.97661 0.57263 0.0
H314 H 0.35278 0.04573 0.48484 0.0
H315 H 0.31901 0.06951 0.44515 0.0
H316 H 0.21839 0.0592 0.41904 0.0
H317 H 0.18466 0.03214 0.44628 0.0
H318 H 0.18393 0.96969 0.54168 0.0
H319 H 0.21732 0.94543 0.58095 0.0
H320 H 0.22475 0.07476 0.57683 0.0
H321 H 0.30465 0.07083 0.59937 0.0
H322 H 0.23595 0.93352 0.4335 0.0
H323 H 0.31601 0.94339 0.44384 0.0
C324 C 0.53671 0.80155 0.03845 0.0
C325 C 0.54121 0.82593 0.05088 0.0
C326 C 0.52186 0.84008 0.03694 0.0
C327 C 0.50679 0.8237 0.01658 0.0
N328 N 0.51545 0.80016 0.01697 0.0
Co329 Co 0.50089 0.77104 0.98908 0.0
N330 N 0.48181 0.79284 0.95632 0.0
C331 C 0.4769 0.81723 0.9623 0.0
C332 C 0.46224 0.82747 0.93608 0.0
C333 C 0.4572 0.80825 0.91231 0.0
C334 C 0.46917 0.7872 0.92536 0.0
N335 N 0.48649 0.74166 0.96148 0.0
C336 C 0.4739 0.74021 0.92984 0.0
C337 C 0.46718 0.71565 0.92051 0.0
C338 C 0.47498 0.70148 0.94773 0.0
C339 C 0.48626 0.71801 0.972 0.0
N340 N 0.51995 0.74952 0.02197 0.0
C341 C 0.51538 0.72532 0.02684 0.0
C342 C 0.53227 0.71535 0.05096 0.0
C343 C 0.5485 0.73451 0.06172 0.0
C344 C 0.5406 0.75509 0.04336 0.0
N345 N 0.47223 0.77074 0.01706 0.0
C346 C 0.43101 0.76876 0.0565 0.0
C347 C 0.45529 0.77302 0.07216 0.0
C348 C 0.47562 0.77385 0.05202 0.0
C349 C 0.42788 0.76594 0.0207 0.0
C350 C 0.44856 0.76705 1.0016 0.0
N351 N 0.52947 0.77126 0.96131 0.0
C352 C 0.56361 0.74951 0.93757 0.0
C353 C 0.57327 0.77201 0.92713 0.0
C354 C 0.56003 0.79407 0.93342 0.0
C355 C 0.53818 0.79327 0.95036 0.0
C356 C 0.54179 0.74954 0.95454 0.0
H357 H 0.52867 0.81058 0.95531 0.0
H358 H 0.53516 0.73198 0.96274 0.0
H359 H 0.49413 0.77679 0.06476 0.0
H360 H 0.44522 0.76476 0.9742 0.0
C361 C 0.48835 0.8304 0.99115 0.0
C362 C 0.55236 0.77989 0.04769 0.0
C363 C 0.46496 0.76177 0.91005 0.0
C364 C 0.49911 0.71165 1.00315 0.0
H365 H 0.55698 0.833 0.06756 0.0
H366 H 0.52 0.86018 0.03949 0.0
H367 H 0.45602 0.84663 0.93432 0.0
H368 H 0.4453 0.8095 0.88868 0.0
H369 H 0.45695 0.70879 0.89693 0.0
H370 H 0.47293 0.68147 0.94941 0.0
H371 H 0.53358 0.69612 0.05836 0.0
H372 H 0.56445 0.73341 0.08055 0.0
H373 H 0.45866 0.77516 0.09979 0.0
H374 H 0.40948 0.76304 0.00736 0.0
H375 H 0.57278 0.73189 0.93265 0.0
H376 H 0.56676 0.81195 0.92605 0.0
C377 C 0.21661 0.53564 0.06846 0.0
C378 C 0.19291 0.54254 0.07683 0.0
C379 C 0.17639 0.53286 0.0512 0.0
C380 C 0.19088 0.5208 0.02867 0.0
N381 N 0.21566 0.52201 0.03846 0.0
Co382 Co 0.24343 0.50842 0.0123 0.0
N383 N 0.21907 0.49262 0.9759 0.0
C384 C 0.19382 0.49293 0.97496 0.0
C385 C 0.18211 0.47904 0.94807 0.0
C386 C 0.20101 0.46897 0.93098 0.0
C387 C 0.22325 0.47759 0.94835 0.0
N388 N 0.27121 0.49589 0.98551 0.0
C389 C 0.27031 0.48224 0.95564 0.0
C390 C 0.29391 0.47897 0.94428 0.0
C391 C 0.3104 0.49061 0.96826 0.0
C392 C 0.29593 0.50044 0.99257 0.0
N393 N 0.26785 0.52288 0.04953 0.0
C394 C 0.29308 0.5215 0.05129 0.0
C395 C 0.30484 0.53167 0.08111 0.0
C396 C 0.28597 0.54009 0.09957 0.0
C397 C 0.26375 0.53474 0.07962 0.0
N398 N 0.2434 0.47662 0.0377 0.0
C399 C 0.24305 0.43246 0.07621 0.0
C400 C 0.26547 0.44295 0.06728 0.0
C401 C 0.26522 0.46469 0.04815 0.0
C402 C 0.22084 0.44449 0.06466 0.0
C403 C 0.22143 0.46621 0.0458 0.0
N404 N 0.24336 0.54039 0.98672 0.0
C405 C 0.26423 0.57799 0.9704 0.0
C406 C 0.24349 0.58485 0.94836 0.0
C407 C 0.22262 0.56889 0.9465 0.0
C408 C 0.22283 0.54736 0.96584 0.0
C409 C 0.26385 0.55596 0.98887 0.0
H410 H 0.20604 0.5366 0.96314 0.0
H411 H 0.28047 0.55197 0.00473 0.0
H412 H 0.28295 0.47173 0.04228 0.0
H413 H 0.20377 0.47435 0.03807 0.0
C414 C 0.18173 0.50684 0.9994 0.0
C415 C 0.23945 0.54297 0.08933 0.0
C416 C 0.24789 0.4706 0.93837 0.0
C417 C 0.30518 0.51178 0.02373 0.0
H418 H 0.18806 0.55343 0.09915 0.0
H419 H 0.1562 0.53424 0.04939 0.0
H420 H 0.16221 0.47638 0.9418 0.0
H421 H 0.19858 0.45655 0.90845 0.0
H422 H 0.29872 0.46865 0.92145 0.0
H423 H 0.33057 0.49118 0.96849 0.0
H424 H 0.32475 0.53315 0.08832 0.0
H425 H 0.28828 0.54962 0.12457 0.0
H426 H 0.28332 0.43477 0.07556 0.0
H427 H 0.20285 0.43712 0.06986 0.0
H428 H 0.28084 0.5896 0.97381 0.0
H429 H 0.20605 0.5726 0.92969 0.0
C430 C 0.47543 0.25418 0.99341 0.0
C431 C 0.46791 0.27683 0.97991 0.0
C432 C 0.48383 0.29462 0.99527 0.0
C433 C 0.50021 0.28188 0.01696 0.0
N434 N 0.49605 0.25691 0.01594 0.0
Co435 Co 0.51529 0.23142 0.04362 0.0
N436 N 0.53744 0.25785 0.06811 0.0
C437 C 0.53594 0.28284 0.06448 0.0
C438 C 0.55418 0.29617 0.08407 0.0
C439 C 0.56855 0.27864 0.10065 0.0
C440 C 0.55827 0.25552 0.08994 0.0
N441 N 0.5346 0.20593 0.0713 0.0
C442 C 0.55602 0.20852 0.09233 0.0
C443 C 0.56441 0.18568 0.1043 0.0
C444 C 0.54784 0.16804 0.09014 0.0
C445 C 0.53045 0.18098 0.07024 0.0
N446 N 0.49305 0.205 0.01901 0.0
C447 C 0.49423 0.18009 0.0234 0.0
C448 C 0.47559 0.16673 0.0047 0.0
C449 C 0.46138 0.18414 0.98766 0.0
C450 C 0.47233 0.20724 0.99678 0.0
N451 N 0.53956 0.22763 0.00816 0.0
C452 C 0.58012 0.22297 0.96693 0.0
C453 C 0.56849 0.20185 0.97831 0.0
C454 C 0.54828 0.20458 0.99845 0.0
C455 C 0.56998 0.24633 0.97485 0.0
C456 C 0.54991 0.24821 0.99519 0.0
N457 N 0.49128 0.23528 0.07951 0.0
C458 C 0.46422 0.21721 0.11835 0.0
C459 C 0.45614 0.24086 0.12901 0.0
C460 C 0.46622 0.26165 0.1147 0.0
C461 C 0.48358 0.25847 0.09031 0.0
C462 C 0.4816 0.21487 0.09382 0.0
H463 H 0.49034 0.27511 0.08043 0.0
H464 H 0.48669 0.19633 0.08658 0.0
H465 H 0.54047 0.1878 0.00668 0.0
H466 H 0.54352 0.26659 1.00079 0.0
C467 C 0.51865 0.29298 0.04014 0.0
C468 C 0.46161 0.23087 0.98526 0.0
C469 C 0.56985 0.23189 0.09957 0.0
C470 C 0.51172 0.17002 0.04749 0.0
H471 H 0.45216 0.28024 0.96148 0.0
H472 H 0.4831 0.31455 0.99176 0.0
H473 H 0.55726 0.31617 0.08512 0.0
H474 H 0.5852 0.28238 0.1178 0.0
H475 H 0.58124 0.18192 0.12051 0.0
H476 H 0.54904 0.14802 0.09269 0.0
H477 H 0.47214 0.14681 0.00456 0.0
H478 H 0.44443 0.1802 0.97127 0.0
H479 H 0.57541 0.18327 0.97273 0.0
H480 H 0.57762 0.26326 0.96567 0.0
H481 H 0.45675 0.20046 0.12828 0.0
H482 H 0.46085 0.28041 0.12236 0.0
C483 C 0.72227 0.54472 0.05242 0.0
C484 C 0.69921 0.55251 0.06233 0.0
C485 C 0.68157 0.53742 0.0448 0.0
C486 C 0.69472 0.52109 0.02552 0.0
N487 N 0.71975 0.5248 0.02952 0.0
Co488 Co 0.7456 0.50353 0.00808 0.0
N489 N 0.71946 0.48124 0.98235 0.0
C490 C 0.6944 0.48391 0.98229 0.0
C491 C 0.68092 0.46704 0.96083 0.0
C492 C 0.69835 0.4527 0.9461 0.0
C493 C 0.72165 0.46146 0.95976 0.0
N494 N 0.77146 0.48185 0.9874 0.0
C495 C 0.76896 0.4613 0.96559 0.0
C496 C 0.79211 0.45143 0.95928 0.0
C497 C 0.80978 0.46644 0.97698 0.0
C498 C 0.79656 0.48443 0.99341 0.0
N499 N 0.77171 0.52625 0.03304 0.0
C500 C 0.79671 0.52463 0.03119 0.0
C501 C 0.81007 0.54322 0.04966 0.0
C502 C 0.79263 0.55762 0.06431 0.0
C503 C 0.76946 0.5468 0.05428 0.0
N504 N 0.74687 0.48177 0.048 0.0
C505 C 0.74895 0.45118 0.10503 0.0
C506 C 0.77066 0.46148 0.09424 0.0
C507 C 0.76921 0.47657 0.06598 0.0
C508 C 0.72613 0.4565 0.0868 0.0
C509 C 0.72552 0.4717 0.0586 0.0
N510 N 0.74439 0.52531 0.96821 0.0
C511 C 0.76559 0.54683 0.92606 0.0
C512 C 0.74303 0.55653 0.91192 0.0
C513 C 0.72109 0.55017 0.92627 0.0
C514 C 0.72219 0.53465 0.95417 0.0
C515 C 0.76583 0.53141 0.95388 0.0
H516 H 0.70485 0.53054 0.96397 0.0
H517 H 0.78367 0.52483 0.96345 0.0
H518 H 0.78647 0.48369 0.05914 0.0
H519 H 0.70757 0.475 0.04579 0.0
C520 C 0.68409 0.50229 1.00305 0.0
C521 C 0.74596 0.55678 0.06578 0.0
C522 C 0.74523 0.45046 0.95009 0.0
C523 C 0.80714 0.50473 0.01317 0.0
H524 H 0.69542 0.56745 0.08055 0.0
H525 H 0.66152 0.53818 0.0461 0.0
H526 H 0.66078 0.46545 0.95628 0.0
H527 H 0.69427 0.43761 0.92722 0.0
H528 H 0.79593 0.43512 0.94341 0.0
H529 H 0.82989 0.4646 0.97752 0.0
H530 H 0.83016 0.54588 0.05238 0.0
H531 H 0.7966 0.57418 0.08064 0.0
H532 H 0.78886 0.45755 0.1071 0.0
H533 H 0.70875 0.44909 0.09433 0.0
H534 H 0.78315 0.55155 0.91623 0.0
H535 H 0.70311 0.55706 0.916 0.0
C536 C 0.18857 0.26075 0.34207 0.0
C537 C 0.21146 0.2727 0.35262 0.0
C538 C 0.16864 0.26121 0.36296 0.0
C539 C 0.17136 0.27418 0.39529 0.0
C540 C 0.19413 0.28689 0.40583 0.0
C541 C 0.21396 0.28591 0.38445 0.0
C542 C 0.14482 0.24725 0.3507 0.0
C543 C 0.19767 0.30117 0.43994 0.0
C544 C 0.11026 0.28943 0.43425 0.0
C545 C 0.10846 0.27 0.45697 0.0
C546 C 0.13104 0.29158 0.41504 0.0
C547 C 0.15048 0.27372 0.41816 0.0
C548 C 0.149 0.25429 0.44137 0.0
C549 C 0.12815 0.25275 0.46056 0.0
C550 C 0.13188 0.31263 0.3907 0.0
C551 C 0.16918 0.23473 0.44534 0.0
H552 H 0.18631 0.25042 0.3176 0.0
H553 H 0.2315 0.2952 0.3929 0.0
H554 H 0.14142 0.23241 0.36869 0.0
H555 H 0.12863 0.26013 0.35033 0.0
H556 H 0.1455 0.23846 0.32461 0.0
H557 H 0.21595 0.3111 0.44368 0.0
H558 H 0.18247 0.31504 0.44202 0.0
H559 H 0.19655 0.28815 0.46104 0.0
H560 H 0.09513 0.30271 0.43079 0.0
H561 H 0.12732 0.23796 0.47847 0.0
H562 H 0.1305 0.30492 0.36387 0.0
H563 H 0.14997 0.32278 0.39529 0.0
H564 H 0.11643 0.32618 0.39335 0.0
H565 H 0.17016 0.22398 0.42068 0.0
H566 H 0.16582 0.22145 0.4655 0.0
H567 H 0.18768 0.24378 0.45191 0.0
C568 C 0.74297 0.21715 0.38434 0.0
C569 C 0.73866 0.21866 0.34876 0.0
C570 C 0.73884 0.1946 0.40012 0.0
C571 C 0.72962 0.17351 0.37975 0.0
C572 C 0.72349 0.17568 0.34413 0.0
C573 C 0.72847 0.19814 0.32899 0.0
C574 C 0.74602 0.19285 0.43807 0.0
C575 C 0.713 0.15388 0.32165 0.0
C576 C 0.7488 0.10845 0.40568 0.0
C577 C 0.72768 0.10017 0.42071 0.0
C578 C 0.74984 0.1325 0.39313 0.0
C579 C 0.72897 0.14851 0.3947 0.0
C580 C 0.70738 0.14022 0.40917 0.0
C581 C 0.70709 0.11624 0.42235 0.0
C582 C 0.77332 0.14075 0.37809 0.0
C583 C 0.68459 0.15661 0.41059 0.0
H584 H 0.75106 0.23304 0.39947 0.0
H585 H 0.72502 0.19949 0.30142 0.0
H586 H 0.73081 0.18398 0.45073 0.0
H587 H 0.76281 0.18087 0.44204 0.0
H588 H 0.7503 0.21146 0.45083 0.0
H589 H 0.70615 0.1596 0.29554 0.0
H590 H 0.72771 0.13955 0.31916 0.0
H591 H 0.69735 0.14497 0.33339 0.0
H592 H 0.76462 0.09609 0.4036 0.0
H593 H 0.69083 0.11027 0.43442 0.0
H594 H 0.78033 0.15857 0.39093 0.0
H595 H 0.76911 0.1442 0.35046 0.0
H596 H 0.78845 0.12663 0.38075 0.0
H597 H 0.68956 0.17422 0.42553 0.0
H598 H 0.6692 0.14728 0.42243 0.0
H599 H 0.67764 0.16177 0.38431 0.0
C600 C 0.84282 0.78366 0.27573 0.0
C601 C 0.82529 0.76438 0.27719 0.0
C602 C 0.8656 0.78395 0.29673 0.0
C603 C 0.87125 0.7642 0.31916 0.0
C604 C 0.85409 0.74411 0.31943 0.0
C605 C 0.83127 0.7446 0.29883 0.0
C606 C 0.88309 0.80594 0.29606 0.0
C607 C 0.85949 0.72238 0.3423 0.0
C608 C 0.93792 0.75442 0.35952 0.0
C609 C 0.93629 0.7639 0.39314 0.0
C610 C 0.91709 0.75477 0.33492 0.0
C611 C 0.89418 0.76519 0.34403 0.0
C612 C 0.89272 0.77534 0.37779 0.0
C613 C 0.91361 0.77419 0.40201 0.0
C614 C 0.91934 0.7432 0.29957 0.0
C615 C 0.86887 0.78691 0.38864 0.0
H616 H 0.83826 0.79912 0.25932 0.0
H617 H 0.8179 0.72954 0.29997 0.0
H618 H 0.88433 0.81629 0.3213 0.0
H619 H 0.90221 0.79943 0.29172 0.0
H620 H 0.87679 0.81904 0.27583 0.0
H621 H 0.8454 0.70717 0.33717 0.0
H622 H 0.87828 0.71462 0.33868 0.0
H623 H 0.85957 0.72887 0.36956 0.0
H624 H 0.95534 0.74613 0.3528 0.0
H625 H 0.91213 0.78103 0.42818 0.0
H626 H 0.91359 0.75678 0.27976 0.0
H627 H 0.90655 0.72687 0.29514 0.0
H628 H 0.93869 0.73691 0.296 0.0
H629 H 0.86201 0.80118 0.37035 0.0
H630 H 0.87142 0.79586 0.41482 0.0
H631 H 0.85413 0.77236 0.38827 0.0
C632 C 0.26709 0.81983 0.30688 0.0
C633 C 0.28013 0.79823 0.31677 0.0
C634 C 0.2689 0.84174 0.32747 0.0
C635 C 0.28448 0.84223 0.35851 0.0
C636 C 0.2986 0.8209 0.36806 0.0
C637 C 0.2961 0.79897 0.34711 0.0
C638 C 0.25333 0.86405 0.3166 0.0
C639 C 0.31577 0.82109 0.40075 0.0
C640 C 0.29768 0.90786 0.39426 0.0
C641 C 0.2795 0.91066 0.41773 0.0
C642 C 0.30066 0.88506 0.37633 0.0
C643 C 0.2847 0.86482 0.38149 0.0
C644 C 0.26676 0.86729 0.40574 0.0
C645 C 0.26451 0.89015 0.42378 0.0
C646 C 0.32015 0.88296 0.35086 0.0
C647 C 0.24919 0.84614 0.41156 0.0
H648 H 0.25469 0.81947 0.28345 0.0
H649 H 0.30631 0.78235 0.35476 0.0
H650 H 0.23988 0.86857 0.33588 0.0
H651 H 0.26547 0.88068 0.31532 0.0
H652 H 0.24263 0.86073 0.29121 0.0
H653 H 0.32715 0.80381 0.40286 0.0
H654 H 0.32853 0.83747 0.40212 0.0
H655 H 0.30457 0.82285 0.42318 0.0
H656 H 0.30922 0.92367 0.38922 0.0
H657 H 0.25087 0.892 0.44252 0.0
H658 H 0.31082 0.88197 0.3244 0.0
H659 H 0.33112 0.86555 0.35437 0.0
H660 H 0.33323 0.89915 0.35329 0.0
H661 H 0.23659 0.84218 0.38794 0.0
H662 H 0.23753 0.85053 0.43307 0.0
H663 H 0.25989 0.82885 0.41712 0.0
C664 C 0.19387 0.72627 0.6438 0.0
C665 C 0.19871 0.74571 0.66866 0.0
C666 C 0.1713 0.72536 0.6223 0.0
C667 C 0.15338 0.74463 0.62515 0.0
C668 C 0.1584 0.76447 0.64987 0.0
C669 C 0.18078 0.76462 0.67145 0.0
C670 C 0.16652 0.70365 0.59676 0.0
C671 C 0.14015 0.78568 0.65344 0.0
C672 C 0.10404 0.75595 0.55085 0.0
C673 C 0.08255 0.74564 0.56262 0.0
C674 C 0.12729 0.75539 0.57059 0.0
C675 C 0.12917 0.74403 0.6028 0.0
C676 C 0.1075 0.73334 0.61455 0.0
C677 C 0.08442 0.73467 0.59463 0.0
C678 C 0.14971 0.76755 0.5574 0.0
C679 C 0.10857 0.72088 0.6485 0.0
H680 H 0.20757 0.71159 0.64145 0.0
H681 H 0.18444 0.77991 0.69024 0.0
H682 H 0.14911 0.69378 0.60177 0.0
H683 H 0.16367 0.71054 0.5704 0.0
H684 H 0.18217 0.69006 0.59785 0.0
H685 H 0.14724 0.80018 0.673 0.0
H686 H 0.13625 0.79462 0.62849 0.0
H687 H 0.12212 0.77839 0.66077 0.0
H688 H 0.10252 0.76482 0.52638 0.0
H689 H 0.0677 0.72732 0.60426 0.0
H690 H 0.16521 0.75394 0.55632 0.0
H691 H 0.15651 0.78321 0.57526 0.0
H692 H 0.14536 0.77492 0.53146 0.0
H693 H 0.12357 0.70661 0.64988 0.0
H694 H 0.09058 0.71173 0.65269 0.0
H695 H 0.11319 0.73492 0.66973 0.0
C696 C 0.28815 0.20696 0.69383 0.0
C697 C 0.27233 0.20923 0.72032 0.0
C698 C 0.2867 0.18585 0.67125 0.0
C699 C 0.26875 0.16702 0.67513 0.0
C700 C 0.25237 0.16958 0.70131 0.0
C701 C 0.2545 0.19055 0.72375 0.0
C702 C 0.30465 0.18344 0.64375 0.0
C703 C 0.23276 0.15003 0.70591 0.0
C704 C 0.25068 0.11982 0.60245 0.0
C705 C 0.26457 0.09898 0.61323 0.0
C706 C 0.25206 0.14231 0.62216 0.0
C707 C 0.26782 0.14389 0.65311 0.0
C708 C 0.28176 0.12288 0.66419 0.0
C709 C 0.27978 0.1006 0.64425 0.0
C710 C 0.23668 0.16434 0.60993 0.0
C711 C 0.29871 0.12389 0.69716 0.0
H712 H 0.30186 0.22144 0.6911 0.0
H713 H 0.2419 0.19243 0.74384 0.0
H714 H 0.31662 0.16677 0.64799 0.0
H715 H 0.29415 0.18063 0.61818 0.0
H716 H 0.31689 0.20014 0.64341 0.0
H717 H 0.22058 0.15558 0.7264 0.0
H718 H 0.22081 0.14657 0.68158 0.0
H719 H 0.24194 0.1321 0.71255 0.0
H720 H 0.23915 0.11871 0.57826 0.0
H721 H 0.29025 0.0844 0.65293 0.0
H722 H 0.24908 0.18052 0.6069 0.0
H723 H 0.22372 0.17009 0.62933 0.0
H724 H 0.22553 0.16008 0.5851 0.0
H725 H 0.31235 0.13945 0.69703 0.0
H726 H 0.3092 0.10622 0.70121 0.0
H727 H 0.28751 0.12759 0.71928 0.0
C728 C 0.84482 0.23442 0.75282 0.0
C729 C 0.82344 0.24828 0.74262 0.0
C730 C 0.86619 0.23487 0.73438 0.0
C731 C 0.86626 0.24965 0.70518 0.0
C732 C 0.84499 0.26419 0.6954 0.0
C733 C 0.8239 0.26328 0.71411 0.0
C734 C 0.88845 0.21905 0.74561 0.0
C735 C 0.8443 0.28038 0.66466 0.0
C736 C 0.92731 0.26814 0.66999 0.0
C737 C 0.92796 0.25169 0.64118 0.0
C738 C 0.90769 0.26732 0.69146 0.0
C739 C 0.88821 0.24953 0.68419 0.0
C740 C 0.88903 0.23249 0.65566 0.0
C741 C 0.90881 0.23381 0.63451 0.0
C742 C 0.90756 0.28585 0.72156 0.0
C743 C 0.86866 0.21323 0.64695 0.0
H744 H 0.84464 0.22269 0.77468 0.0
H745 H 0.80757 0.27416 0.70603 0.0
H746 H 0.89161 0.20475 0.72515 0.0
H747 H 0.90557 0.23079 0.74969 0.0
H748 H 0.8859 0.20942 0.76964 0.0
H749 H 0.82671 0.29128 0.66117 0.0
H750 H 0.86034 0.2936 0.66741 0.0
H751 H 0.84607 0.26855 0.64109 0.0
H752 H 0.9422 0.28173 0.67583 0.0
H753 H 0.90889 0.22119 0.61217 0.0
H754 H 0.90616 0.27589 0.74558 0.0
H755 H 0.89093 0.29809 0.71811 0.0
H756 H 0.9246 0.2978 0.72462 0.0
H757 H 0.86615 0.20199 0.66956 0.0
H758 H 0.87276 0.20039 0.62518 0.0
H759 H 0.85064 0.22272 0.64009 0.0
C760 C 0.72478 0.79416 0.63705 0.0
C761 C 0.71998 0.793 0.67144 0.0
C762 C 0.72159 0.81664 0.62 0.0
C763 C 0.71274 0.83803 0.63767 0.0
C764 C 0.70592 0.8362 0.67154 0.0
C765 C 0.71011 0.81379 0.68828 0.0
C766 C 0.72963 0.81801 0.58417 0.0
C767 C 0.69564 0.85832 0.69085 0.0
C768 C 0.73612 0.90159 0.61577 0.0
C769 C 0.71633 0.9101 0.59343 0.0
C770 C 0.73523 0.87806 0.62989 0.0
C771 C 0.71364 0.86293 0.62253 0.0
C772 C 0.69318 0.87168 0.60109 0.0
C773 C 0.6949 0.89502 0.5864 0.0
C774 C 0.75759 0.86927 0.65239 0.0
C775 C 0.66961 0.85631 0.59347 0.0
H776 H 0.7327 0.77806 0.62431 0.0
H777 H 0.70636 0.81271 0.71493 0.0
H778 H 0.71505 0.82714 0.56718 0.0
H779 H 0.74685 0.82958 0.58492 0.0
H780 H 0.73357 0.79925 0.57276 0.0
H781 H 0.68762 0.85277 0.71461 0.0
H782 H 0.71083 0.87209 0.6981 0.0
H783 H 0.68095 0.86782 0.67444 0.0
H784 H 0.75249 0.91327 0.62216 0.0
H785 H 0.67961 0.90116 0.56883 0.0
H786 H 0.76422 0.85109 0.64209 0.0
H787 H 0.75221 0.86631 0.67861 0.0
H788 H 0.77337 0.88283 0.65427 0.0
H789 H 0.67381 0.83868 0.57931 0.0
H790 H 0.65483 0.86643 0.57796 0.0
H791 H 0.66218 0.85113 0.61777 0.0
C792 C 0.84216 0.76539 0.71906 0.0
C793 C 0.82164 0.75022 0.70694 0.0
C794 C 0.86349 0.76671 0.70063 0.0
C795 C 0.86437 0.75249 0.66942 0.0
C796 C 0.84401 0.73665 0.65763 0.0
C797 C 0.82298 0.73574 0.67644 0.0
C798 C 0.88481 0.78381 0.71409 0.0
C799 C 0.84413 0.72109 0.62459 0.0
C800 C 0.90371 0.77287 0.59928 0.0
C801 C 0.92376 0.75601 0.60194 0.0
C802 C 0.88482 0.77254 0.62189 0.0
C803 C 0.88588 0.75493 0.64797 0.0
C804 C 0.90652 0.73846 0.65162 0.0
C805 C 0.92521 0.7392 0.62861 0.0
C806 C 0.86325 0.79053 0.61711 0.0
C807 C 0.90839 0.71938 0.67901 0.0
H808 H 0.84134 0.77667 0.74255 0.0
H809 H 0.80736 0.72383 0.66685 0.0
H810 H 0.90267 0.77334 0.7159 0.0
H811 H 0.88674 0.79894 0.69599 0.0
H812 H 0.88197 0.79244 0.73973 0.0
H813 H 0.82736 0.70885 0.61977 0.0
H814 H 0.84477 0.73351 0.60271 0.0
H815 H 0.86107 0.7092 0.62519 0.0
H816 H 0.90266 0.78626 0.57921 0.0
H817 H 0.9405 0.72599 0.63078 0.0
H818 H 0.86074 0.80099 0.64159 0.0
H819 H 0.84569 0.77998 0.60955 0.0
H820 H 0.86601 0.80416 0.59715 0.0
H821 H 0.90594 0.72849 0.70444 0.0
H822 H 0.9266 0.70947 0.68047 0.0
H823 H 0.89317 0.70536 0.67357 0.0
C824 C 0.24118 0.83731 0.67764 0.0
C825 C 0.25871 0.83323 0.70556 0.0
C826 C 0.24277 0.85842 0.65751 0.0
C827 C 0.26284 0.87566 0.66474 0.0
C828 C 0.28063 0.87154 0.69302 0.0
C829 C 0.27823 0.85053 0.71323 0.0
C830 C 0.22305 0.86212 0.62823 0.0
C831 C 0.30261 0.88897 0.70139 0.0
C832 C 0.27896 0.9154 0.59025 0.0
C833 C 0.2681 0.93851 0.59821 0.0
C834 C 0.27799 0.89511 0.61203 0.0
C835 C 0.26537 0.89766 0.64234 0.0
C836 C 0.25456 0.92108 0.6506 0.0
C837 C 0.25636 0.94122 0.62877 0.0
C838 C 0.29026 0.8708 0.60236 0.0
C839 C 0.24053 0.92471 0.68212 0.0
H840 H 0.22619 0.82384 0.67146 0.0
H841 H 0.29204 0.84721 0.73445 0.0
H842 H 0.21464 0.88096 0.63079 0.0
H843 H 0.23172 0.86108 0.60355 0.0
H844 H 0.20791 0.84789 0.62712 0.0
H845 H 0.31471 0.88337 0.72427 0.0
H846 H 0.31408 0.88929 0.6792 0.0
H847 H 0.29596 0.9083 0.70612 0.0
H848 H 0.28806 0.91315 0.5667 0.0
H849 H 0.24807 0.95906 0.63521 0.0
H850 H 0.27586 0.85594 0.59717 0.0
H851 H 0.30339 0.86485 0.62396 0.0
H852 H 0.30069 0.87226 0.57927 0.0
H853 H 0.22451 0.91148 0.68062 0.0
H854 H 0.23332 0.94404 0.68515 0.0
H855 H 0.25288 0.92053 0.70539 0.0
C856 C 0.17168 0.24037 0.76389 0.0
C857 C 0.18823 0.26061 0.76394 0.0
C858 C 0.14923 0.23969 0.74236 0.0
C859 C 0.14306 0.26 0.72112 0.0
C860 C 0.15904 0.28113 0.72282 0.0
C861 C 0.18157 0.28102 0.74386 0.0
C862 C 0.13291 0.21666 0.74082 0.0
C863 C 0.15291 0.3034 0.70122 0.0
C864 C 0.10419 0.25009 0.63584 0.0
C865 C 0.08072 0.25875 0.6438 0.0
C866 C 0.12438 0.24955 0.66113 0.0
C867 C 0.12112 0.25844 0.69501 0.0
C868 C 0.09733 0.26706 0.7032 0.0
C869 C 0.07729 0.26681 0.67752 0.0
C870 C 0.1493 0.23982 0.65142 0.0
C871 C 0.09324 0.27712 0.7388 0.0
H872 H 0.17696 0.22446 0.77914 0.0
H873 H 0.19432 0.29675 0.74404 0.0
H874 H 0.11317 0.22186 0.74358 0.0
H875 H 0.13343 0.2068 0.71541 0.0
H876 H 0.1391 0.20351 0.76105 0.0
H877 H 0.16583 0.31936 0.70831 0.0
H878 H 0.15419 0.29806 0.67377 0.0
H879 H 0.13347 0.30967 0.70397 0.0
H880 H 0.10671 0.24378 0.60972 0.0
H881 H 0.05901 0.27331 0.68358 0.0
H882 H 0.15623 0.22515 0.66903 0.0
H883 H 0.1633 0.25518 0.654 0.0
H884 H 0.14822 0.23189 0.62467 0.0
H885 H 0.09887 0.26305 0.75796 0.0
H886 H 0.07342 0.28232 0.74128 0.0
H887 H 0.10516 0.29389 0.74523 0.0
C888 C 0.7505 0.17168 0.69967 0.0
C889 C 0.7337 0.19169 0.69522 0.0
C890 C 0.74865 0.15003 0.67785 0.0
C891 C 0.72923 0.1478 0.65091 0.0
C892 C 0.71213 0.16789 0.64621 0.0
C893 C 0.71469 0.18963 0.66814 0.0
C894 C 0.76763 0.12948 0.68368 0.0
C895 C 0.69093 0.16629 0.61821 0.0
C896 C 0.73789 0.09976 0.57737 0.0
C897 C 0.72483 0.07888 0.58714 0.0
C898 C 0.73918 0.12232 0.59748 0.0
C899 C 0.72686 0.12433 0.62807 0.0
C900 C 0.71335 0.10334 0.63775 0.0
C901 C 0.71276 0.08088 0.61747 0.0
C902 C 0.75418 0.14387 0.5863 0.0
C903 C 0.69972 0.1045 0.66983 0.0
H904 H 0.76543 0.173 0.7202 0.0
H905 H 0.70156 0.20484 0.66439 0.0
H906 H 0.7581 0.11203 0.68968 0.0
H907 H 0.77707 0.12551 0.65999 0.0
H908 H 0.78208 0.13434 0.70501 0.0
H909 H 0.67911 0.18331 0.61791 0.0
H910 H 0.69845 0.16358 0.59286 0.0
H911 H 0.67898 0.14984 0.6217 0.0
H912 H 0.74732 0.09832 0.55403 0.0
H913 H 0.70287 0.06476 0.62539 0.0
H914 H 0.76973 0.14856 0.60614 0.0
H915 H 0.74226 0.1607 0.58363 0.0
H916 H 0.76217 0.13961 0.56152 0.0
H917 H 0.71335 0.10722 0.69269 0.0
H918 H 0.68873 0.08725 0.67267 0.0
H919 H 0.68687 0.12073 0.66951 0.0
C920 C 0.84586 0.28185 0.35241 0.0
C921 C 0.84052 0.26273 0.32725 0.0
C922 C 0.86808 0.28186 0.37419 0.0
C923 C 0.88526 0.26202 0.37121 0.0
C924 C 0.8803 0.24295 0.3453 0.0
C925 C 0.85806 0.24365 0.32339 0.0
C926 C 0.87282 0.3028 0.40103 0.0
C927 C 0.898 0.22132 0.34159 0.0
C928 C 0.95103 0.27168 0.41497 0.0
C929 C 0.94891 0.2609 0.44656 0.0
C930 C 0.93057 0.27192 0.38994 0.0
C931 C 0.90766 0.26068 0.39649 0.0
C932 C 0.90574 0.24918 0.42809 0.0
C933 C 0.92634 0.24961 0.45285 0.0
C934 C 0.93329 0.28465 0.35682 0.0
C935 C 0.88179 0.23673 0.43598 0.0
H936 H 0.83249 0.29678 0.35535 0.0
H937 H 0.85398 0.22875 0.30412 0.0
H938 H 0.87269 0.2953 0.42699 0.0
H939 H 0.89155 0.31118 0.39932 0.0
H940 H 0.85854 0.31776 0.39833 0.0
H941 H 0.89217 0.20875 0.31903 0.0
H942 H 0.91719 0.22828 0.33905 0.0
H943 H 0.89887 0.21026 0.365 0.0
H944 H 0.96863 0.28019 0.41011 0.0
H945 H 0.92485 0.24118 0.47727 0.0
H946 H 0.92003 0.3005 0.35442 0.0
H947 H 0.92849 0.27146 0.33463 0.0
H948 H 0.95255 0.29187 0.35527 0.0
H949 H 0.86671 0.25083 0.43694 0.0
H950 H 0.88384 0.22734 0.46083 0.0
H951 H 0.87571 0.22265 0.41533 0.0
C952 C 0.71573 0.81758 0.34013 0.0
C953 C 0.73536 0.81508 0.3188 0.0
C954 C 0.71324 0.83942 0.36124 0.0
C955 C 0.73115 0.85904 0.36188 0.0
C956 C 0.75136 0.85619 0.34111 0.0
C957 C 0.753 0.83456 0.31965 0.0
C958 C 0.6911 0.84175 0.3823 0.0
C959 C 0.77133 0.87609 0.34143 0.0
C960 C 0.71594 0.92666 0.38913 0.0
C961 C 0.72634 0.92856 0.42332 0.0
C962 C 0.71662 0.90404 0.36937 0.0
C963 C 0.72868 0.88276 0.38361 0.0
C964 C 0.73944 0.88469 0.41808 0.0
C965 C 0.73794 0.90739 0.43751 0.0
C966 C 0.70457 0.90298 0.33303 0.0
C967 C 0.75302 0.86289 0.43427 0.0
H968 H 0.70192 0.80277 0.33962 0.0
H969 H 0.76841 0.83281 0.30361 0.0
H970 H 0.6976 0.84465 0.40986 0.0
H971 H 0.67989 0.85835 0.3747 0.0
H972 H 0.67881 0.82496 0.37913 0.0
H973 H 0.78658 0.8705 0.32532 0.0
H974 H 0.76295 0.89368 0.33184 0.0
H975 H 0.77958 0.88018 0.36806 0.0
H976 H 0.70727 0.94299 0.3778 0.0
H977 H 0.74611 0.90872 0.46385 0.0
H978 H 0.69127 0.88703 0.32919 0.0
H979 H 0.71907 0.89986 0.31485 0.0
H980 H 0.69438 0.92044 0.32652 0.0
H981 H 0.74043 0.84642 0.43331 0.0
H982 H 0.76009 0.8672 0.46139 0.0
H983 H 0.7691 0.85759 0.41958 0.0
C984 C 0.16463 0.76444 0.27046 0.0
C985 C 0.18484 0.74909 0.28087 0.0
C986 C 0.14332 0.76598 0.28906 0.0
C987 C 0.14212 0.75165 0.31851 0.0
C988 C 0.16219 0.73562 0.32849 0.0
C989 C 0.18326 0.73463 0.30971 0.0
C990 C 0.12239 0.78341 0.27773 0.0
C991 C 0.16163 0.71981 0.35947 0.0
C992 C 0.10196 0.77143 0.39018 0.0
C993 C 0.08142 0.75507 0.38423 0.0
C994 C 0.12134 0.77113 0.36828 0.0
C995 C 0.1204 0.75388 0.3398 0.0
C996 C 0.09955 0.73762 0.33323 0.0
C997 C 0.08031 0.73847 0.3554 0.0
C998 C 0.1432 0.78881 0.37626 0.0
C999 C 0.09788 0.71886 0.30327 0.0
H1000 H 0.16571 0.77573 0.24832 0.0
H1001 H 0.19866 0.72255 0.31786 0.0
H1002 H 0.10438 0.77307 0.27399 0.0
H1003 H 0.12047 0.7982 0.298 0.0
H1004 H 0.12564 0.79246 0.2535 0.0
H1005 H 0.17825 0.70752 0.36295 0.0
H1006 H 0.16093 0.73204 0.38292 0.0
H1007 H 0.14456 0.70797 0.35704 0.0
H1008 H 0.1033 0.78409 0.41258 0.0
H1009 H 0.06438 0.72603 0.35016 0.0
H1010 H 0.14651 0.79937 0.3533 0.0
H1011 H 0.16042 0.77801 0.38321 0.0
H1012 H 0.14024 0.80235 0.39776 0.0
H1013 H 0.10001 0.7284 0.2791 0.0
H1014 H 0.07985 0.70846 0.30058 0.0
H1015 H 0.11337 0.70522 0.30661 0.0
C1016 C 0.27976 0.17807 0.34394 0.0
C1017 C 0.26069 0.18046 0.31722 0.0
C1018 C 0.28155 0.15685 0.36414 0.0
C1019 C 0.2636 0.13738 0.35815 0.0
C1020 C 0.24448 0.13945 0.33088 0.0
C1021 C 0.24338 0.16079 0.3106 0.0
C1022 C 0.30252 0.15548 0.39237 0.0
C1023 C 0.22473 0.1194 0.32373 0.0
C1024 C 0.27927 0.07345 0.39564 0.0
C1025 C 0.26771 0.07483 0.42643 0.0
C1026 C 0.27803 0.09349 0.37319 0.0
C1027 C 0.26449 0.11542 0.38123 0.0
C1028 C 0.25255 0.11672 0.41216 0.0
C1029 C 0.25448 0.09659 0.43439 0.0
C1030 C 0.29141 0.09128 0.34094 0.0
C1031 C 0.23769 0.13945 0.42185 0.0
H1032 H 0.29337 0.19299 0.3493 0.0
H1033 H 0.22846 0.16242 0.29028 0.0
H1034 H 0.29469 0.15549 0.41763 0.0
H1035 H 0.31301 0.13779 0.38944 0.0
H1036 H 0.31582 0.17139 0.39252 0.0
H1037 H 0.21155 0.12329 0.30109 0.0
H1038 H 0.23363 0.10101 0.31926 0.0
H1039 H 0.21391 0.11787 0.34641 0.0
H1040 H 0.28929 0.0566 0.38913 0.0
H1041 H 0.24542 0.09776 0.45806 0.0
H1042 H 0.3054 0.10654 0.34099 0.0
H1043 H 0.2779 0.09337 0.31813 0.0
H1044 H 0.30112 0.07308 0.33828 0.0
H1045 H 0.25013 0.15608 0.42526 0.0
H1046 H 0.2286 0.13717 0.44592 0.0
H1047 H 0.22303 0.14326 0.40094 0.0
C1048 C 0.70476 0.77895 0.84047 0.0
C1049 C 0.70316 0.76182 0.81227 0.0
C1050 C 0.68462 0.78222 0.86097 0.0
C1051 C 0.6625 0.76783 0.85327 0.0
C1052 C 0.66094 0.75036 0.82505 0.0
C1053 C 0.68116 0.74767 0.80489 0.0
C1054 C 0.68691 0.80118 0.89067 0.0
C1055 C 0.63785 0.73443 0.8161 0.0
C1056 C 0.61692 0.75665 0.92014 0.0
C1057 C 0.59693 0.77234 0.90974 0.0
C1058 C 0.63873 0.75564 0.90277 0.0
C1059 C 0.64081 0.77085 0.87444 0.0
C1060 C 0.62115 0.78743 0.86462 0.0
C1061 C 0.59944 0.7879 0.88225 0.0
C1062 C 0.65919 0.73764 0.91405 0.0
C1063 C 0.62266 0.80406 0.83469 0.0
H1064 H 0.72164 0.79001 0.84633 0.0
H1065 H 0.67972 0.73424 0.78332 0.0
H1066 H 0.67193 0.81537 0.88718 0.0
H1067 H 0.68436 0.79191 0.91492 0.0
H1068 H 0.70532 0.81088 0.89333 0.0
H1069 H 0.63973 0.72147 0.7936 0.0
H1070 H 0.63403 0.72325 0.83829 0.0
H1071 H 0.62136 0.74652 0.81037 0.0
H1072 H 0.61546 0.74497 0.94181 0.0
H1073 H 0.5841 0.79995 0.87378 0.0
H1074 H 0.67743 0.74754 0.91838 0.0
H1075 H 0.66097 0.72302 0.8935 0.0
H1076 H 0.65548 0.72837 0.93793 0.0
H1077 H 0.64053 0.81467 0.83743 0.0
H1078 H 0.60692 0.81753 0.83231 0.0
H1079 H 0.62231 0.79243 0.81055 0.0
C1080 C 0.242 0.6884 0.80391 0.0
C1081 C 0.24382 0.71329 0.81684 0.0
C1082 C 0.24128 0.66817 0.82579 0.0
C1083 C 0.24302 0.67259 0.86188 0.0
C1084 C 0.24475 0.6977 0.87515 0.0
C1085 C 0.24484 0.71768 0.85256 0.0
C1086 C 0.23882 0.64194 0.81017 0.0
C1087 C 0.24717 0.70344 0.91333 0.0
C1088 C 0.2212 0.62081 0.91764 0.0
C1089 C 0.24356 0.60807 0.92732 0.0
C1090 C 0.22077 0.6417 0.89668 0.0
C1091 C 0.24331 0.6509 0.88549 0.0
C1092 C 0.26603 0.63869 0.89588 0.0
C1093 C 0.26586 0.61745 0.91616 0.0
C1094 C 0.19601 0.6537 0.886 0.0
C1095 C 0.29063 0.6479 0.88517 0.0
H1096 H 0.24112 0.68468 0.77642 0.0
H1097 H 0.24653 0.73673 0.86298 0.0
H1098 H 0.25569 0.63097 0.81824 0.0
H1099 H 0.22253 0.63241 0.81951 0.0
H1100 H 0.23644 0.64163 0.78169 0.0
H1101 H 0.24812 0.72384 0.91971 0.0
H1102 H 0.23106 0.69545 0.92508 0.0
H1103 H 0.26433 0.69457 0.92518 0.0
H1104 H 0.2038 0.61456 0.92646 0.0
H1105 H 0.28332 0.60793 0.92262 0.0
H1106 H 0.19268 0.65293 0.85761 0.0
H1107 H 0.19635 0.6737 0.89459 0.0
H1108 H 0.18009 0.64442 0.8967 0.0
H1109 H 0.29077 0.64564 0.85692 0.0
H1110 H 0.30685 0.63766 0.89734 0.0
H1111 H 0.29302 0.66812 0.89207 0.0
C1112 C 0.32155 0.22647 0.89048 0.0
C1113 C 0.31907 0.2461 0.86785 0.0
C1114 C 0.34418 0.22268 0.91066 0.0
C1115 C 0.36454 0.23928 0.90873 0.0
C1116 C 0.36184 0.2595 0.88656 0.0
C1117 C 0.33929 0.26248 0.86615 0.0
C1118 C 0.3465 0.20063 0.93348 0.0
C1119 C 0.38284 0.27799 0.88427 0.0
C1120 C 0.41682 0.24436 0.98102 0.0
C1121 C 0.43626 0.23158 0.96637 0.0
C1122 C 0.39322 0.24665 0.96283 0.0
C1123 C 0.38886 0.23548 0.9294 0.0
C1124 C 0.40832 0.22197 0.91488 0.0
C1125 C 0.43191 0.2205 0.93337 0.0
C1126 C 0.37322 0.26168 0.97894 0.0
C1127 C 0.40438 0.2095 0.87955 0.0
H1128 H 0.30602 0.21369 0.89174 0.0
H1129 H 0.33742 0.27784 0.84894 0.0
H1130 H 0.36182 0.18827 0.92586 0.0
H1131 H 0.35147 0.20712 0.96048 0.0
H1132 H 0.32894 0.1895 0.93219 0.0
H1133 H 0.37731 0.29337 0.86702 0.0
H1134 H 0.38892 0.28624 0.91013 0.0
H1135 H 0.39922 0.2683 0.8746 0.0
H1136 H 0.42031 0.25302 0.00651 0.0
H1137 H 0.44707 0.21086 0.92195 0.0
H1138 H 0.35599 0.25029 0.97931 0.0
H1139 H 0.36826 0.2781 0.96337 0.0
H1140 H 0.3793 0.26842 0.00558 0.0
H1141 H 0.38749 0.19739 0.8776 0.0
H1142 H 0.42067 0.19798 0.87317 0.0
H1143 H 0.40118 0.22389 0.86008 0.0
C1144 C 0.76576 0.32405 0.83695 0.0
C1145 C 0.74676 0.31907 0.81043 0.0
C1146 C 0.76575 0.34596 0.85825 0.0
C1147 C 0.74598 0.36339 0.85368 0.0
C1148 C 0.72687 0.35866 0.82666 0.0
C1149 C 0.72761 0.33676 0.80523 0.0
C1150 C 0.78683 0.35025 0.88607 0.0
C1151 C 0.70521 0.3764 0.82103 0.0
C1152 C 0.7342 0.40545 0.93239 0.0
C1153 C 0.74507 0.42823 0.92499 0.0
C1154 C 0.7338 0.38454 0.90914 0.0
C1155 C 0.74505 0.38607 0.87782 0.0
C1156 C 0.75617 0.40904 0.87034 0.0
C1157 C 0.75583 0.42982 0.89376 0.0
C1158 C 0.72142 0.36071 0.91823 0.0
C1159 C 0.7688 0.41159 0.83776 0.0
H1160 H 0.78074 0.31067 0.84124 0.0
H1161 H 0.71271 0.3331 0.7851 0.0
H1162 H 0.79548 0.36886 0.88377 0.0
H1163 H 0.7794 0.35017 0.9116 0.0
H1164 H 0.80158 0.33577 0.88506 0.0
H1165 H 0.69215 0.37049 0.79855 0.0
H1166 H 0.69468 0.37754 0.84416 0.0
H1167 H 0.71219 0.39547 0.81712 0.0
H1168 H 0.72595 0.40402 0.9565 0.0
H1169 H 0.76419 0.44735 0.8878 0.0
H1170 H 0.7355 0.3456 0.92089 0.0
H1171 H 0.7071 0.35462 0.89736 0.0
H1172 H 0.71232 0.36289 0.94255 0.0
H1173 H 0.78431 0.39795 0.83691 0.0
H1174 H 0.77646 0.43066 0.83553 0.0
H1175 H 0.75534 0.40721 0.81514 0.0
C1176 C 0.69723 0.26766 0.20512 0.0
C1177 C 0.71559 0.24904 0.20733 0.0
C1178 C 0.67467 0.26391 0.18468 0.0
C1179 C 0.67006 0.24073 0.16655 0.0
C1180 C 0.68882 0.22207 0.16786 0.0
C1181 C 0.71156 0.22657 0.18802 0.0
C1182 C 0.65544 0.28452 0.1834 0.0
C1183 C 0.68444 0.19702 0.14923 0.0
C1184 C 0.6009 0.22548 0.15002 0.0
C1185 C 0.59596 0.23187 0.11584 0.0
C1186 C 0.62526 0.22698 0.16626 0.0
C1187 C 0.64498 0.23574 0.14808 0.0
C1188 C 0.64008 0.24186 0.11329 0.0
C1189 C 0.61559 0.23972 0.09753 0.0
C1190 C 0.62973 0.22002 0.20325 0.0
C1191 C 0.66043 0.25169 0.0932 0.0
H1192 H 0.70043 0.28517 0.21978 0.0
H1193 H 0.72568 0.2121 0.18988 0.0
H1194 H 0.64916 0.28841 0.15639 0.0
H1195 H 0.63876 0.27855 0.19581 0.0
H1196 H 0.66277 0.30213 0.1966 0.0
H1197 H 0.70147 0.18519 0.15086 0.0
H1198 H 0.66926 0.18694 0.16046 0.0
H1199 H 0.67823 0.19951 0.12182 0.0
H1200 H 0.58557 0.2197 0.16419 0.0
H1201 H 0.61159 0.24478 0.07109 0.0
H1202 H 0.63468 0.237 0.21965 0.0
H1203 H 0.6457 0.20692 0.20646 0.0
H1204 H 0.61302 0.2112 0.21259 0.0
H1205 H 0.66673 0.2703 0.10421 0.0
H1206 H 0.65402 0.25358 0.06568 0.0
H1207 H 0.6769 0.23916 0.09512 0.0
C1208 C 0.7302 0.67009 0.20714 0.0
C1209 C 0.74811 0.6889 0.20455 0.0
C1210 C 0.72951 0.64811 0.1857 0.0
C1211 C 0.74749 0.64443 0.16147 0.0
C1212 C 0.7661 0.66302 0.15964 0.0
C1213 C 0.76599 0.685 0.18076 0.0
C1214 C 0.70904 0.62915 0.18825 0.0
C1215 C 0.78602 0.65985 0.13495 0.0
C1216 C 0.75856 0.57839 0.12363 0.0
C1217 C 0.74611 0.57918 0.0906 0.0
C1218 C 0.75916 0.59933 0.14687 0.0
C1219 C 0.74652 0.62161 0.13734 0.0
C1220 C 0.73357 0.62232 0.10417 0.0
C1221 C 0.73381 0.60131 0.08117 0.0
C1222 C 0.77366 0.59771 0.18151 0.0
C1223 C 0.71948 0.64536 0.09286 0.0
H1224 H 0.71614 0.67294 0.22512 0.0
H1225 H 0.78 0.69929 0.17854 0.0
H1226 H 0.69738 0.62725 0.16342 0.0
H1227 H 0.71725 0.61056 0.1935 0.0
H1228 H 0.69675 0.63441 0.20874 0.0
H1229 H 0.80011 0.67516 0.13811 0.0
H1230 H 0.79578 0.64177 0.13871 0.0
H1231 H 0.77727 0.65943 0.10819 0.0
H1232 H 0.76804 0.56135 0.13117 0.0
H1233 H 0.72424 0.60214 0.05568 0.0
H1234 H 0.7611 0.60132 0.20215 0.0
H1235 H 0.78847 0.6123 0.18459 0.0
H1236 H 0.78255 0.57916 0.18507 0.0
H1237 H 0.7059 0.65077 0.11158 0.0
H1238 H 0.70921 0.64252 0.06709 0.0
H1239 H 0.73269 0.66122 0.09211 0.0
C1240 C 0.32664 0.7433 0.18473 0.0
C1241 C 0.30375 0.75516 0.17596 0.0
C1242 C 0.34713 0.74586 0.1652 0.0
C1243 C 0.34491 0.76084 0.13617 0.0
C1244 C 0.32189 0.77291 0.1271 0.0
C1245 C 0.30154 0.76983 0.14698 0.0
C1246 C 0.37118 0.73244 0.17564 0.0
C1247 C 0.3188 0.78916 0.09646 0.0
C1248 C 0.40587 0.78381 0.10467 0.0
C1249 C 0.40899 0.76689 0.07707 0.0
C1250 C 0.38488 0.78239 0.12369 0.0
C1251 C 0.36665 0.76346 0.11515 0.0
C1252 C 0.36974 0.74632 0.08736 0.0
C1253 C 0.39078 0.74827 0.06867 0.0
C1254 C 0.38225 0.80112 0.15299 0.0
C1255 C 0.35098 0.72564 0.07763 0.0
H1256 H 0.32859 0.73184 0.20696 0.0
H1257 H 0.28401 0.77916 0.14005 0.0
H1258 H 0.37616 0.71962 0.15435 0.0
H1259 H 0.3867 0.74613 0.18094 0.0
H1260 H 0.36985 0.72142 0.19882 0.0
H1261 H 0.29986 0.79754 0.09305 0.0
H1262 H 0.3329 0.80442 0.09935 0.0
H1263 H 0.32212 0.77798 0.07283 0.0
H1264 H 0.41968 0.79841 0.1111 0.0
H1265 H 0.39318 0.7349 0.04769 0.0
H1266 H 0.38227 0.79133 0.17739 0.0
H1267 H 0.36411 0.81098 0.14911 0.0
H1268 H 0.39758 0.81521 0.15565 0.0
H1269 H 0.35005 0.71318 0.09942 0.0
H1270 H 0.35576 0.7142 0.05484 0.0
H1271 H 0.33206 0.73361 0.07208 0.0
C1272 C 0.25748 0.32599 0.21639 0.0
C1273 C 0.24471 0.30345 0.20679 0.0
C1274 C 0.25685 0.34634 0.1946 0.0
C1275 C 0.24298 0.34456 0.16206 0.0
C1276 C 0.22984 0.32197 0.1522 0.0
C1277 C 0.23093 0.30173 0.17451 0.0
C1278 C 0.27129 0.3698 0.20642 0.0
C1279 C 0.21464 0.31916 0.11797 0.0
C1280 C 0.2246 0.40665 0.12102 0.0
C1281 C 0.24271 0.4095 0.09754 0.0
C1282 C 0.22409 0.38548 0.14133 0.0
C1283 C 0.24226 0.36643 0.13872 0.0
C1284 C 0.26051 0.36904 0.115 0.0
C1285 C 0.26048 0.39034 0.09478 0.0
C1286 C 0.20425 0.38372 0.16613 0.0
C1287 C 0.28036 0.34942 0.11127 0.0
H1288 H 0.26832 0.32774 0.24106 0.0
H1289 H 0.22101 0.28454 0.1666 0.0
H1290 H 0.28519 0.37386 0.18806 0.0
H1291 H 0.2584 0.38597 0.20702 0.0
H1292 H 0.28127 0.36829 0.23233 0.0
H1293 H 0.20528 0.30063 0.11409 0.0
H1294 H 0.20018 0.33395 0.11588 0.0
H1295 H 0.22688 0.3216 0.09698 0.0
H1296 H 0.21097 0.42128 0.12417 0.0
H1297 H 0.27437 0.39183 0.07654 0.0
H1298 H 0.21316 0.38412 0.19281 0.0
H1299 H 0.194 0.36573 0.16167 0.0
H1300 H 0.19056 0.39925 0.16381 0.0
H1301 H 0.29194 0.34786 0.136 0.0
H1302 H 0.29285 0.35373 0.09114 0.0
H1303 H 0.2715 0.33091 0.10478 0.0
C1304 C 0.33477 0.23408 0.22892 0.0
C1305 C 0.3337 0.25082 0.25733 0.0
C1306 C 0.35602 0.23249 0.21061 0.0
C1307 C 0.37693 0.248 0.22082 0.0
C1308 C 0.37642 0.26433 0.25018 0.0
C1309 C 0.35479 0.26554 0.26815 0.0
C1310 C 0.35574 0.21473 0.17957 0.0
C1311 C 0.39838 0.28109 0.26193 0.0
C1312 C 0.43719 0.22871 0.18254 0.0
C1313 C 0.43683 0.2438 0.15403 0.0
C1314 C 0.41838 0.23055 0.20533 0.0
C1315 C 0.39865 0.24784 0.19946 0.0
C1316 C 0.39853 0.26356 0.17125 0.0
C1317 C 0.41757 0.26135 0.14893 0.0
C1318 C 0.41923 0.21349 0.23512 0.0
C1319 C 0.37777 0.28212 0.16388 0.0
H1320 H 0.31869 0.22244 0.22043 0.0
H1321 H 0.35415 0.27854 0.29 0.0
H1322 H 0.35706 0.22548 0.15618 0.0
H1323 H 0.37216 0.20216 0.18194 0.0
H1324 H 0.33849 0.2031 0.17598 0.0
H1325 H 0.39586 0.2913 0.28664 0.0
H1326 H 0.41582 0.26998 0.26493 0.0
H1327 H 0.40092 0.29495 0.24224 0.0
H1328 H 0.45217 0.21537 0.187 0.0
H1329 H 0.41691 0.27288 0.12678 0.0
H1330 H 0.40319 0.20029 0.23156 0.0
H1331 H 0.41748 0.22451 0.25939 0.0
H1332 H 0.43681 0.20252 0.23775 0.0
H1333 H 0.35986 0.27199 0.15707 0.0
H1334 H 0.38134 0.29421 0.14246 0.0
H1335 H 0.37538 0.29419 0.18705 0.0
C1336 C 0.7817 0.34158 0.22841 0.0
C1337 C 0.76666 0.33951 0.25565 0.0
C1338 C 0.77927 0.36184 0.20691 0.0
C1339 C 0.76128 0.38049 0.21271 0.0
C1340 C 0.747 0.37928 0.24129 0.0
C1341 C 0.74992 0.35879 0.26255 0.0
C1342 C 0.79506 0.36258 0.17691 0.0
C1343 C 0.72768 0.39885 0.24829 0.0
C1344 C 0.76687 0.4395 0.16354 0.0
C1345 C 0.75037 0.43428 0.13425 0.0
C1346 C 0.76996 0.42261 0.19001 0.0
C1347 C 0.75617 0.39999 0.18714 0.0
C1348 C 0.73876 0.39506 0.1583 0.0
C1349 C 0.73611 0.41224 0.13218 0.0
C1350 C 0.78862 0.42853 0.22042 0.0
C1351 C 0.72368 0.37113 0.15431 0.0
H1352 H 0.79484 0.32685 0.22309 0.0
H1353 H 0.73819 0.35729 0.28351 0.0
H1354 H 0.78291 0.36001 0.15257 0.0
H1355 H 0.80441 0.38103 0.17653 0.0
H1356 H 0.80958 0.34779 0.17764 0.0
H1357 H 0.72021 0.39679 0.27357 0.0
H1358 H 0.73574 0.41787 0.24751 0.0
H1359 H 0.71187 0.39728 0.22802 0.0
H1360 H 0.77764 0.45671 0.16557 0.0
H1361 H 0.72352 0.40794 0.10951 0.0
H1362 H 0.80439 0.41515 0.22031 0.0
H1363 H 0.77982 0.42638 0.2447 0.0
H1364 H 0.79627 0.4478 0.22021 0.0
H1365 H 0.73639 0.35499 0.15135 0.0
H1366 H 0.70964 0.37098 0.13169 0.0
H1367 H 0.71383 0.36836 0.17759 0.0
C1368 C 0.67638 0.76076 0.1684 0.0
C1369 C 0.69523 0.77893 0.16807 0.0
C1370 C 0.65409 0.76191 0.14689 0.0
C1371 C 0.65009 0.78204 0.12478 0.0
C1372 C 0.6691 0.80042 0.12407 0.0
C1373 C 0.69159 0.79849 0.14545 0.0
C1374 C 0.63468 0.7416 0.14809 0.0
C1375 C 0.66543 0.82236 0.10126 0.0
C1376 C 0.59851 0.77196 0.05186 0.0
C1377 C 0.57783 0.7827 0.0662 0.0
C1378 C 0.62236 0.77241 0.07004 0.0
C1379 C 0.62565 0.78398 0.10337 0.0
C1380 C 0.60484 0.79535 0.11758 0.0
C1381 C 0.58114 0.79421 0.09907 0.0
C1382 C 0.6438 0.75959 0.05412 0.0
C1383 C 0.60741 0.80798 0.15289 0.0
H1384 H 0.67912 0.74536 0.18543 0.0
H1385 H 0.70602 0.81261 0.14508 0.0
H1386 H 0.61731 0.74968 0.1572 0.0
H1387 H 0.62978 0.73318 0.122 0.0
H1388 H 0.6412 0.72652 0.16534 0.0
H1389 H 0.68212 0.83478 0.10307 0.0
H1390 H 0.66126 0.8157 0.07416 0.0
H1391 H 0.64911 0.83347 0.10848 0.0
H1392 H 0.59584 0.76272 0.02663 0.0
H1393 H 0.56504 0.80181 0.11068 0.0
H1394 H 0.64966 0.74306 0.06897 0.0
H1395 H 0.66018 0.77231 0.05511 0.0
H1396 H 0.6387 0.75329 0.02701 0.0
H1397 H 0.61137 0.79379 0.17247 0.0
H1398 H 0.59021 0.81823 0.15871 0.0
H1399 H 0.62337 0.82131 0.1553 0.0
C1400 C 0.22657 0.66187 0.21229 0.0
C1401 C 0.24946 0.66733 0.23115 0.0
C1402 C 0.22269 0.63901 0.19407 0.0
C1403 C 0.24239 0.62151 0.19431 0.0
C1404 C 0.26479 0.62607 0.21564 0.0
C1405 C 0.268 0.64901 0.23415 0.0
C1406 C 0.19837 0.63464 0.17211 0.0
C1407 C 0.28624 0.60783 0.2164 0.0
C1408 C 0.2308 0.55829 0.14821 0.0
C1409 C 0.23874 0.56309 0.11609 0.0
C1410 C 0.23181 0.57715 0.17426 0.0
C1411 C 0.24126 0.601 0.16774 0.0
C1412 C 0.24923 0.60578 0.13512 0.0
C1413 C 0.24771 0.58674 0.10959 0.0
C1414 C 0.22291 0.57161 0.20862 0.0
C1415 C 0.2595 0.63096 0.12718 0.0
H1416 H 0.21205 0.67596 0.21051 0.0
H1417 H 0.28569 0.65327 0.24884 0.0
H1418 H 0.20143 0.63721 0.14483 0.0
H1419 H 0.19157 0.61524 0.17415 0.0
H1420 H 0.18358 0.64783 0.17936 0.0
H1421 H 0.30047 0.6121 0.23822 0.0
H1422 H 0.27943 0.58841 0.21816 0.0
H1423 H 0.29543 0.6087 0.1922 0.0
H1424 H 0.22405 0.53977 0.15294 0.0
H1425 H 0.25392 0.59013 0.08459 0.0
H1426 H 0.20783 0.58478 0.21474 0.0
H1427 H 0.23845 0.57441 0.22905 0.0
H1428 H 0.21573 0.55219 0.20931 0.0
H1429 H 0.24508 0.64556 0.12995 0.0
H1430 H 0.26551 0.63127 0.10079 0.0
H1431 H 0.27578 0.63604 0.14565 0.0
C1432 C 0.3499 0.73623 0.7639 0.0
C1433 C 0.3337 0.75663 0.76652 0.0
C1434 C 0.3731 0.73578 0.7839 0.0
C1435 C 0.38038 0.75637 0.80658 0.0
C1436 C 0.36469 0.77758 0.80765 0.0
C1437 C 0.34154 0.77735 0.78789 0.0
C1438 C 0.38915 0.71273 0.78219 0.0
C1439 C 0.37178 0.80013 0.83095 0.0
C1440 C 0.42115 0.74858 0.88991 0.0
C1441 C 0.44427 0.75794 0.88212 0.0
C1442 C 0.40065 0.74678 0.86502 0.0
C1443 C 0.40308 0.75507 0.83158 0.0
C1444 C 0.42658 0.76412 0.82338 0.0
C1445 C 0.44695 0.76535 0.84876 0.0
C1446 C 0.37608 0.73686 0.87496 0.0
C1447 C 0.42992 0.77348 0.78829 0.0
H1448 H 0.3439 0.72009 0.74763 0.0
H1449 H 0.32922 0.79329 0.78984 0.0
H1450 H 0.40878 0.71789 0.77891 0.0
H1451 H 0.38924 0.70302 0.80668 0.0
H1452 H 0.38226 0.69947 0.76087 0.0
H1453 H 0.35883 0.81603 0.82621 0.0
H1454 H 0.37148 0.7951 0.8581 0.0
H1455 H 0.39107 0.80635 0.82742 0.0
H1456 H 0.41896 0.7432 0.91586 0.0
H1457 H 0.46477 0.77282 0.84288 0.0
H1458 H 0.36867 0.72207 0.8561 0.0
H1459 H 0.36212 0.75213 0.87475 0.0
H1460 H 0.37789 0.72905 0.90089 0.0
H1461 H 0.42291 0.75943 0.7681 0.0
H1462 H 0.44979 0.77779 0.78501 0.0
H1463 H 0.41874 0.79071 0.78424 0.0
C1464 C 0.28043 0.35548 0.81352 0.0
C1465 C 0.26201 0.33726 0.81564 0.0
C1466 C 0.27834 0.37912 0.82981 0.0
C1467 C 0.2571 0.38453 0.84778 0.0
C1468 C 0.23768 0.36669 0.84784 0.0
C1469 C 0.24052 0.34312 0.83207 0.0
C1470 C 0.29952 0.39764 0.82966 0.0
C1471 C 0.21453 0.37197 0.86617 0.0
C1472 C 0.26208 0.42734 0.92693 0.0
C1473 C 0.25069 0.44898 0.91444 0.0
C1474 C 0.26523 0.40656 0.90503 0.0
C1475 C 0.25634 0.40745 0.86998 0.0
C1476 C 0.24517 0.42949 0.85711 0.0
C1477 C 0.24272 0.45023 0.87958 0.0
C1478 C 0.27752 0.38346 0.91959 0.0
C1479 C 0.23518 0.43089 0.82 0.0
H1480 H 0.29702 0.35083 0.80075 0.0
H1481 H 0.22609 0.32907 0.83315 0.0
H1482 H 0.29225 0.4164 0.82316 0.0
H1483 H 0.30952 0.39945 0.8557 0.0
H1484 H 0.31318 0.3918 0.8112 0.0
H1485 H 0.19993 0.35734 0.86017 0.0
H1486 H 0.21954 0.37287 0.89429 0.0
H1487 H 0.20649 0.39033 0.85911 0.0
H1488 H 0.26839 0.4267 0.95396 0.0
H1489 H 0.23425 0.46728 0.87014 0.0
H1490 H 0.29299 0.37735 0.90423 0.0
H1491 H 0.26371 0.36796 0.91823 0.0
H1492 H 0.28514 0.3866 0.94674 0.0
H1493 H 0.24986 0.42545 0.80296 0.0
H1494 H 0.22841 0.44989 0.81368 0.0
H1495 H 0.21945 0.41747 0.8143 0.0
C1496 C 0.68131 0.23473 0.83351 0.0
C1497 C 0.70484 0.22408 0.84217 0.0
C1498 C 0.66168 0.23272 0.85458 0.0
C1499 C 0.66539 0.21947 0.8851 0.0
C1500 C 0.68883 0.20805 0.89365 0.0
C1501 C 0.70835 0.2106 0.87218 0.0
C1502 C 0.63712 0.24541 0.84456 0.0
C1503 C 0.6934 0.19351 0.92577 0.0
C1504 C 0.62211 0.23869 0.95323 0.0
C1505 C 0.6028 0.22089 0.94742 0.0
C1506 C 0.64299 0.23791 0.934 0.0
C1507 C 0.6449 0.21866 0.90848 0.0
C1508 C 0.62602 0.20004 0.90338 0.0
C1509 C 0.60516 0.20144 0.92276 0.0
C1510 C 0.66258 0.25823 0.9402 0.0
C1511 C 0.62742 0.17911 0.87662 0.0
H1512 H 0.67828 0.24524 0.81047 0.0
H1513 H 0.7264 0.20227 0.87909 0.0
H1514 H 0.62157 0.23165 0.84288 0.0
H1515 H 0.63327 0.25986 0.86452 0.0
H1516 H 0.63705 0.25449 0.81957 0.0
H1517 H 0.71206 0.18444 0.92772 0.0
H1518 H 0.69215 0.20619 0.94867 0.0
H1519 H 0.67879 0.17892 0.92639 0.0
H1520 H 0.62086 0.25343 0.97279 0.0
H1521 H 0.59036 0.18765 0.91784 0.0
H1522 H 0.66276 0.26943 0.91703 0.0
H1523 H 0.68143 0.24991 0.94495 0.0
H1524 H 0.65915 0.271 0.96236 0.0
H1525 H 0.62517 0.1868 0.85066 0.0
H1526 H 0.6127 0.16472 0.87823 0.0
H1527 H 0.646 0.17 0.87948 0.0
C1528 C 0.73501 0.65215 0.75768 0.0
C1529 C 0.75177 0.67168 0.76804 0.0
C1530 C 0.73341 0.63115 0.77774 0.0
C1531 C 0.74903 0.6297 0.80867 0.0
C1532 C 0.76698 0.64867 0.81814 0.0
C1533 C 0.7681 0.66943 0.79774 0.0
C1534 C 0.71409 0.61124 0.7668 0.0
C1535 C 0.78416 0.6477 0.85077 0.0
C1536 C 0.72799 0.59561 0.88396 0.0
C1537 C 0.74269 0.57399 0.8834 0.0
C1538 C 0.72914 0.61341 0.8589 0.0
C1539 C 0.74543 0.60952 0.83268 0.0
C1540 C 0.75961 0.58731 0.83119 0.0
C1541 C 0.75806 0.56979 0.85658 0.0
C1542 C 0.71371 0.63689 0.86135 0.0
C1543 C 0.7771 0.58249 0.80356 0.0
H1544 H 0.7223 0.65378 0.73479 0.0
H1545 H 0.78126 0.68435 0.80576 0.0
H1546 H 0.72261 0.5924 0.7681 0.0
H1547 H 0.69914 0.61195 0.78462 0.0
H1548 H 0.70539 0.61367 0.74035 0.0
H1549 H 0.79839 0.66289 0.85302 0.0
H1550 H 0.773 0.64942 0.87326 0.0
H1551 H 0.79395 0.62948 0.85196 0.0
H1552 H 0.71629 0.59912 0.90479 0.0
H1553 H 0.76915 0.55291 0.8557 0.0
H1554 H 0.70274 0.63991 0.83652 0.0
H1555 H 0.72627 0.65329 0.86704 0.0
H1556 H 0.70061 0.63621 0.88172 0.0
H1557 H 0.76716 0.58497 0.77787 0.0
H1558 H 0.78514 0.56339 0.80424 0.0
H1559 H 0.79268 0.59624 0.80682 0.0
loop_
_geom_bond_atom_site_label_1
_geom_bond_atom_site_label_2
_geom_bond_distance
_geom_bond_site_symmetry_2
_ccdc_geom_bond_type
C0 O2 1.247 . S
C0 O4 1.258 . S
C1 O8 1.247 . S
C1 O9 1.258 . S
O2 C0 1.247 . S
O2 Zn3 2.028 . S
Zn3 O2 2.028 . S
Zn3 O7 2.035 . S
Zn3 O9 2.035 . S
Zn3 O10 2.028 . S
O4 C0 1.258 . S
O4 Zn5 2.035 . S
Zn5 O4 2.035 . S
Zn5 O6 2.028 . S
Zn5 O8 2.028 . S
Zn5 O11 2.035 . S
O6 Zn5 2.028 . S
O6 C12 1.247 . S
O7 Zn3 2.035 . S
O7 C12 1.258 . S
O8 C1 1.247 . S
O8 Zn5 2.028 . S
O9 C1 1.258 . S
O9 Zn3 2.035 . S
O10 Zn3 2.028 . S
O10 C13 1.247 . S
O11 Zn5 2.035 . S
O11 C13 1.258 . S
C12 O6 1.247 . S
C12 O7 1.258 . S
C13 O10 1.247 . S
C13 O11 1.258 . S
C14 O16 1.247 . S
C14 O18 1.258 . S
C15 O22 1.247 . S
C15 O23 1.258 . S
O16 C14 1.247 . S
O16 Zn17 2.028 . S
Zn17 O16 2.028 . S
Zn17 O21 2.035 . S
Zn17 O23 2.035 . S
Zn17 O24 2.028 . S
O18 C14 1.258 . S
O18 Zn19 2.035 . S
Zn19 O18 2.035 . S
Zn19 O20 2.028 . S
Zn19 O22 2.028 . S
Zn19 O25 2.035 . S
O20 Zn19 2.028 . S
O20 C26 1.247 . S
O21 Zn17 2.035 . S
O21 C26 1.258 . S
O22 C15 1.247 . S
O22 Zn19 2.028 . S
O23 C15 1.258 . S
O23 Zn17 2.035 . S
O24 Zn17 2.028 . S
O24 C27 1.247 . S
O25 Zn19 2.035 . S
O25 C27 1.258 . S
C26 O20 1.247 . S
C26 O21 1.258 . S
C27 O24 1.247 . S
C27 O25 1.258 . S
C28 O30 1.247 . S
C28 O32 1.258 . S
C29 O36 1.247 . S
C29 O37 1.258 . S
O30 C28 1.247 . S
O30 Zn31 2.028 . S
Zn31 O30 2.028 . S
Zn31 O35 2.035 . S
Zn31 O37 2.035 . S
Zn31 O38 2.028 . S
O32 C28 1.258 . S
O32 Zn33 2.035 . S
Zn33 O32 2.035 . S
Zn33 O34 2.028 . S
Zn33 O36 2.028 . S
Zn33 O39 2.035 . S
O34 Zn33 2.028 . S
O34 C40 1.247 . S
O35 Zn31 2.035 . S
O35 C40 1.258 . S
O36 C29 1.247 . S
O36 Zn33 2.028 . S
O37 C29 1.258 . S
O37 Zn31 2.035 . S
O38 Zn31 2.028 . S
O38 C41 1.247 . S
O39 Zn33 2.035 . S
O39 C41 1.258 . S
C40 O34 1.247 . S
C40 O35 1.258 . S
C41 O38 1.247 . S
C41 O39 1.258 . S
C42 O44 1.247 . S
C42 O46 1.258 . S
C43 O50 1.247 . S
C43 O51 1.258 . S
O44 C42 1.247 . S
O44 Zn45 2.028 . S
Zn45 O44 2.028 . S
Zn45 O49 2.035 . S
Zn45 O51 2.035 . S
Zn45 O52 2.028 . S
O46 C42 1.258 . S
O46 Zn47 2.035 . S
Zn47 O46 2.035 . S
Zn47 O48 2.028 . S
Zn47 O50 2.028 . S
Zn47 O53 2.035 . S
O48 Zn47 2.028 . S
O48 C54 1.247 . S
O49 Zn45 2.035 . S
O49 C54 1.258 . S
O50 C43 1.247 . S
O50 Zn47 2.028 . S
O51 C43 1.258 . S
O51 Zn45 2.035 . S
O52 Zn45 2.028 . S
O52 C55 1.247 . S
O53 Zn47 2.035 . S
O53 C55 1.258 . S
C54 O48 1.247 . S
C54 O49 1.258 . S
C55 O52 1.247 . S
C55 O53 1.258 . S
C56 O58 1.247 . S
C56 O60 1.258 . S
C57 O64 1.247 . S
C57 O65 1.258 . S
O58 C56 1.247 . S
O58 Zn59 2.028 . S
Zn59 O58 2.028 . S
Zn59 O63 2.035 . S
Zn59 O65 2.035 . S
Zn59 O66 2.028 . S
O60 C56 1.258 . S
O60 Zn61 2.035 . S
Zn61 O60 2.035 . S
Zn61 O62 2.028 . S
Zn61 O64 2.028 . S
Zn61 O67 2.035 . S
O62 Zn61 2.028 . S
O62 C68 1.247 . S
O63 Zn59 2.035 . S
O63 C68 1.258 . S
O64 C57 1.247 . S
O64 Zn61 2.028 . S
O65 C57 1.258 . S
O65 Zn59 2.035 . S
O66 Zn59 2.028 . S
O66 C69 1.247 . S
O67 Zn61 2.035 . S
O67 C69 1.258 . S
C68 O62 1.247 . S
C68 O63 1.258 . S
C69 O66 1.247 . S
C69 O67 1.258 . S
C70 O72 1.247 . S
C70 O74 1.258 . S
C71 O78 1.247 . S
C71 O79 1.258 . S
O72 C70 1.247 . S
O72 Zn73 2.028 . S
Zn73 O72 2.028 . S
Zn73 O77 2.035 . S
Zn73 O79 2.035 . S
Zn73 O80 2.028 . S
O74 C70 1.258 . S
O74 Zn75 2.035 . S
Zn75 O74 2.035 . S
Zn75 O76 2.028 . S
Zn75 O78 2.028 . S
Zn75 O81 2.035 . S
O76 Zn75 2.028 . S
O76 C82 1.247 . S
O77 Zn73 2.035 . S
O77 C82 1.258 . S
O78 C71 1.247 . S
O78 Zn75 2.028 . S
O79 C71 1.258 . S
O79 Zn73 2.035 . S
O80 Zn73 2.028 . S
O80 C83 1.247 . S
O81 Zn75 2.035 . S
O81 C83 1.258 . S
C82 O76 1.247 . S
C82 O77 1.258 . S
C83 O80 1.247 . S
C83 O81 1.258 . S
C84 O86 1.247 . S
C84 O88 1.258 . S
C85 O92 1.247 . S
C85 O93 1.258 . S
O86 C84 1.247 . S
O86 Zn87 2.028 . S
Zn87 O86 2.028 . S
Zn87 O91 2.035 . S
Zn87 O93 2.035 . S
Zn87 O94 2.028 . S
O88 C84 1.258 . S
O88 Zn89 2.035 . S
Zn89 O88 2.035 . S
Zn89 O90 2.028 . S
Zn89 O92 2.028 . S
Zn89 O95 2.035 . S
O90 Zn89 2.028 . S
O90 C96 1.247 . S
O91 Zn87 2.035 . S
O91 C96 1.258 . S
O92 C85 1.247 . S
O92 Zn89 2.028 . S
O93 C85 1.258 . S
O93 Zn87 2.035 . S
O94 Zn87 2.028 . S
O94 C97 1.247 . S
O95 Zn89 2.035 . S
O95 C97 1.258 . S
C96 O90 1.247 . S
C96 O91 1.258 . S
C97 O94 1.247 . S
C97 O95 1.258 . S
C98 O100 1.247 . S
C98 O102 1.258 . S
C99 O106 1.247 . S
C99 O107 1.258 . S
O100 C98 1.247 . S
O100 Zn101 2.028 . S
Zn101 O100 2.028 . S
Zn101 O105 2.035 . S
Zn101 O107 2.035 . S
Zn101 O108 2.028 . S
O102 C98 1.258 . S
O102 Zn103 2.035 . S
Zn103 O102 2.035 . S
Zn103 O104 2.028 . S
Zn103 O106 2.028 . S
Zn103 O109 2.035 . S
O104 Zn103 2.028 . S
O104 C110 1.247 . S
O105 Zn101 2.035 . S
O105 C110 1.258 . S
O106 C99 1.247 . S
O106 Zn103 2.028 . S
O107 C99 1.258 . S
O107 Zn101 2.035 . S
O108 Zn101 2.028 . S
O108 C111 1.247 . S
O109 Zn103 2.035 . S
O109 C111 1.258 . S
C110 O104 1.247 . S
C110 O105 1.258 . S
C111 O108 1.247 . S
C111 O109 1.258 . S
C112 C113 1.443 . S
C112 N116 1.376 . S
C112 C150 1.389 . S
C113 C112 1.443 . S
C113 C114 1.340 . S
C113 H153 0.951 . S
C114 C113 1.340 . S
C114 C115 1.439 . S
C114 H154 0.950 . S
C115 C114 1.439 . S
C115 N116 1.374 . S
C115 C149 1.395 . S
N116 C112 1.376 . S
N116 C115 1.374 . S
N116 Co117 2.008 . S
Co117 N116 2.008 . S
Co117 N118 1.995 1_455 S
Co117 N123 2.008 1_455 S
Co117 N128 1.995 . S
Co117 N133 2.282 1_455 S
Co117 N139 2.282 . S
N118 Co117 1.995 1_655 S
N118 C119 1.376 . S
N118 C122 1.383 . S
C119 N118 1.376 . S
C119 C120 1.446 . S
C119 C149 1.391 1_655 S
C120 C119 1.446 . S
C120 C121 1.339 . S
C120 H155 0.949 . S
C121 C120 1.339 . S
C121 C122 1.439 . S
C121 H156 0.950 . S
C122 N118 1.383 . S
C122 C121 1.439 . S
C122 C151 1.392 . S
N123 Co117 2.008 1_655 S
N123 C124 1.376 . S
N123 C127 1.374 . S
C124 N123 1.376 . S
C124 C125 1.443 . S
C124 C151 1.389 . S
C125 C124 1.443 . S
C125 C126 1.340 . S
C125 H157 0.951 . S
C126 C125 1.340 . S
C126 C127 1.439 . S
C126 H158 0.950 . S
C127 N123 1.374 . S
C127 C126 1.439 . S
C127 C152 1.397 . S
N128 Co117 1.995 . S
N128 C129 1.376 . S
N128 C132 1.383 . S
C129 N128 1.376 . S
C129 C130 1.446 . S
C129 C152 1.389 1_455 S
C130 C129 1.446 . S
C130 C131 1.339 . S
C130 H159 0.949 . S
C131 C130 1.339 . S
C131 C132 1.439 . S
C131 H160 0.950 . S
C132 N128 1.383 . S
C132 C131 1.439 . S
C132 C150 1.392 . S
N133 Co117 2.282 1_655 S
N133 C136 1.332 . S
N133 C138 1.332 . S
C134 C135 1.386 . S
C134 C137 1.388 . S
C135 C134 1.386 . S
C135 C136 1.382 . S
C135 H161 0.950 . S
C136 N133 1.332 . S
C136 C135 1.382 . S
C136 H147 0.952 . S
C137 C134 1.388 . S
C137 C138 1.382 . S
C137 H162 0.950 . S
C138 N133 1.332 . S
C138 C137 1.382 . S
C138 H148 0.948 . S
N139 Co117 2.282 . S
N139 C143 1.332 . S
N139 C144 1.332 . S
C140 C141 1.388 . S
C140 C144 1.382 . S
C140 H163 0.950 . S
C141 C140 1.388 . S
C141 C142 1.386 . S
C142 C141 1.386 . S
C142 C143 1.382 . S
C142 H164 0.950 . S
C143 N139 1.332 . S
C143 C142 1.382 . S
C143 H145 0.952 . S
C144 N139 1.332 . S
C144 C140 1.382 . S
C144 H146 0.948 . S
H145 C143 0.952 . S
H146 C144 0.948 . S
H147 C136 0.952 . S
H148 C138 0.948 . S
C149 C115 1.395 . S
C149 C119 1.391 1_455 S
C150 C112 1.389 . S
C150 C132 1.392 . S
C151 C122 1.392 . S
C151 C124 1.389 . S
C152 C127 1.397 . S
C152 C129 1.389 1_655 S
H153 C113 0.951 . S
H154 C114 0.950 . S
H155 C120 0.949 . S
H156 C121 0.950 . S
H157 C125 0.951 . S
H158 C126 0.950 . S
H159 C130 0.949 . S
H160 C131 0.950 . S
H161 C135 0.950 . S
H162 C137 0.950 . S
H163 C140 0.950 . S
H164 C142 0.950 . S
C165 C166 1.443 . S
C165 N169 1.376 . S
C165 C203 1.389 . S
C166 C165 1.443 . S
C166 C167 1.340 . S
C166 H206 0.951 . S
C167 C166 1.340 . S
C167 C168 1.439 . S
C167 H207 0.950 . S
C168 C167 1.439 . S
C168 N169 1.374 . S
C168 C202 1.395 . S
N169 C165 1.376 . S
N169 C168 1.374 . S
N169 Co170 2.008 . S
Co170 N169 2.008 . S
Co170 N171 1.995 1_545 S
Co170 N176 2.008 1_545 S
Co170 N181 1.995 . S
Co170 N186 2.282 1_545 S
Co170 N192 2.282 . S
N171 Co170 1.995 1_565 S
N171 C172 1.376 . S
N171 C175 1.383 . S
C172 N171 1.376 . S
C172 C173 1.446 . S
C172 C202 1.391 1_565 S
C173 C172 1.446 . S
C173 C174 1.339 . S
C173 H208 0.949 . S
C174 C173 1.339 . S
C174 C175 1.439 . S
C174 H209 0.950 . S
C175 N171 1.383 . S
C175 C174 1.439 . S
C175 C204 1.392 . S
N176 Co170 2.008 1_565 S
N176 C177 1.376 . S
N176 C180 1.374 . S
C177 N176 1.376 . S
C177 C178 1.443 . S
C177 C204 1.389 . S
C178 C177 1.443 . S
C178 C179 1.340 . S
C178 H210 0.951 . S
C179 C178 1.340 . S
C179 C180 1.439 . S
C179 H211 0.950 . S
C180 N176 1.374 . S
C180 C179 1.439 . S
C180 C205 1.395 . S
N181 Co170 1.995 . S
N181 C182 1.376 . S
N181 C185 1.383 . S
C182 N181 1.376 . S
C182 C183 1.446 . S
C182 C205 1.391 1_545 S
C183 C182 1.446 . S
C183 C184 1.339 . S
C183 H212 0.949 . S
C184 C183 1.339 . S
C184 C185 1.439 . S
C184 H213 0.950 . S
C185 N181 1.383 . S
C185 C184 1.439 . S
C185 C203 1.392 . S
N186 Co170 2.282 1_565 S
N186 C189 1.332 . S
N186 C191 1.332 . S
C187 C188 1.386 . S
C187 C190 1.388 . S
C188 C187 1.386 . S
C188 C189 1.382 . S
C188 H214 0.950 . S
C189 N186 1.332 . S
C189 C188 1.382 . S
C189 H200 0.952 . S
C190 C187 1.388 . S
C190 C191 1.382 . S
C190 H215 0.950 . S
C191 N186 1.332 . S
C191 C190 1.382 . S
C191 H201 0.948 . S
N192 Co170 2.282 . S
N192 C196 1.332 . S
N192 C197 1.332 . S
C193 C194 1.388 . S
C193 C197 1.382 . S
C193 H216 0.950 . S
C194 C193 1.388 . S
C194 C195 1.386 . S
C195 C194 1.386 . S
C195 C196 1.382 . S
C195 H217 0.950 . S
C196 N192 1.332 . S
C196 C195 1.382 . S
C196 H198 0.952 . S
C197 N192 1.332 . S
C197 C193 1.382 . S
C197 H199 0.948 . S
H198 C196 0.952 . S
H199 C197 0.948 . S
H200 C189 0.952 . S
H201 C191 0.948 . S
C202 C168 1.395 . S
C202 C172 1.391 1_545 S
C203 C165 1.389 . S
C203 C185 1.392 . S
C204 C175 1.392 . S
C204 C177 1.389 . S
C205 C180 1.395 . S
C205 C182 1.391 1_565 S
H206 C166 0.951 . S
H207 C167 0.950 . S
H208 C173 0.949 . S
H209 C174 0.950 . S
H210 C178 0.951 . S
H211 C179 0.950 . S
H212 C183 0.949 . S
H213 C184 0.950 . S
H214 C188 0.950 . S
H215 C190 0.950 . S
H216 C193 0.950 . S
H217 C195 0.950 . S
C218 C219 1.443 . S
C218 N222 1.376 . S
C218 C256 1.389 . S
C219 C218 1.443 . S
C219 C220 1.340 . S
C219 H259 0.951 . S
C220 C219 1.340 . S
C220 C221 1.439 . S
C220 H260 0.950 . S
C221 C220 1.439 . S
C221 N222 1.374 . S
C221 C255 1.395 . S
N222 C218 1.376 . S
N222 C221 1.374 . S
N222 Co223 2.008 . S
Co223 N222 2.008 . S
Co223 N224 1.995 1_455 S
Co223 N229 2.008 1_455 S
Co223 N234 1.995 . S
Co223 N239 2.282 1_455 S
Co223 N245 2.282 . S
N224 Co223 1.995 1_655 S
N224 C225 1.376 . S
N224 C228 1.383 . S
C225 N224 1.376 . S
C225 C226 1.446 . S
C225 C255 1.391 1_655 S
C226 C225 1.446 . S
C226 C227 1.339 . S
C226 H261 0.949 . S
C227 C226 1.339 . S
C227 C228 1.439 . S
C227 H262 0.950 . S
C228 N224 1.383 . S
C228 C227 1.439 . S
C228 C257 1.392 . S
N229 Co223 2.008 1_655 S
N229 C230 1.376 . S
N229 C233 1.374 . S
C230 N229 1.376 . S
C230 C231 1.443 . S
C230 C257 1.389 . S
C231 C230 1.443 . S
C231 C232 1.340 . S
C231 H263 0.951 . S
C232 C231 1.340 . S
C232 C233 1.439 . S
C232 H264 0.950 . S
C233 N229 1.374 . S
C233 C232 1.439 . S
C233 C258 1.395 . S
N234 Co223 1.995 . S
N234 C235 1.376 . S
N234 C238 1.383 . S
C235 N234 1.376 . S
C235 C236 1.446 . S
C235 C258 1.391 1_455 S
C236 C235 1.446 . S
C236 C237 1.339 . S
C236 H265 0.949 . S
C237 C236 1.339 . S
C237 C238 1.439 . S
C237 H266 0.950 . S
C238 N234 1.383 . S
C238 C237 1.439 . S
C238 C256 1.392 . S
N239 Co223 2.282 1_655 S
N239 C242 1.332 . S
N239 C244 1.332 . S
C240 C241 1.386 . S
C240 C243 1.388 . S
C241 C240 1.386 . S
C241 C242 1.382 . S
C241 H267 0.950 . S
C242 N239 1.332 . S
C242 C241 1.382 . S
C242 H253 0.952 . S
C243 C240 1.388 . S
C243 C244 1.382 . S
C243 H268 0.950 . S
C244 N239 1.332 . S
C244 C243 1.382 . S
C244 H254 0.948 . S
N245 Co223 2.282 . S
N245 C249 1.332 . S
N245 C250 1.332 . S
C246 C247 1.388 . S
C246 C250 1.382 . S
C246 H269 0.950 . S
C247 C246 1.388 . S
C247 C248 1.386 . S
C248 C247 1.386 . S
C248 C249 1.382 . S
C248 H270 0.950 . S
C249 N245 1.332 . S
C249 C248 1.382 . S
C249 H251 0.952 . S
C250 N245 1.332 . S
C250 C246 1.382 . S
C250 H252 0.948 . S
H251 C249 0.952 . S
H252 C250 0.948 . S
H253 C242 0.952 . S
H254 C244 0.948 . S
C255 C221 1.395 . S
C255 C225 1.391 1_455 S
C256 C218 1.389 . S
C256 C238 1.392 . S
C257 C228 1.392 . S
C257 C230 1.389 . S
C258 C233 1.395 . S
C258 C235 1.391 1_655 S
H259 C219 0.951 . S
H260 C220 0.950 . S
H261 C226 0.949 . S
H262 C227 0.950 . S
H263 C231 0.951 . S
H264 C232 0.950 . S
H265 C236 0.949 . S
H266 C237 0.950 . S
H267 C241 0.950 . S
H268 C243 0.950 . S
H269 C246 0.950 . S
H270 C248 0.950 . S
C271 C272 1.443 . S
C271 N275 1.376 . S
C271 C309 1.389 . S
C272 C271 1.443 . S
C272 C273 1.340 . S
C272 H312 0.951 . S
C273 C272 1.340 . S
C273 C274 1.439 . S
C273 H313 0.950 . S
C274 C273 1.439 . S
C274 N275 1.374 . S
C274 C308 1.395 . S
N275 C271 1.376 . S
N275 C274 1.374 . S
N275 Co276 2.008 1_565 S
Co276 N275 2.008 1_545 S
Co276 N277 1.995 . S
Co276 N282 2.008 . S
Co276 N287 1.995 1_545 S
Co276 N292 2.282 . S
Co276 N298 2.282 1_545 S
N277 Co276 1.995 . S
N277 C278 1.376 . S
N277 C281 1.383 . S
C278 N277 1.376 . S
C278 C279 1.446 . S
C278 C308 1.391 1_545 S
C279 C278 1.446 . S
C279 C280 1.339 . S
C279 H314 0.949 . S
C280 C279 1.339 . S
C280 C281 1.439 . S
C280 H315 0.950 . S
C281 N277 1.383 . S
C281 C280 1.439 . S
C281 C310 1.392 . S
N282 Co276 2.008 . S
N282 C283 1.376 . S
N282 C286 1.374 . S
C283 N282 1.376 . S
C283 C284 1.443 . S
C283 C310 1.389 . S
C284 C283 1.443 . S
C284 C285 1.340 . S
C284 H316 0.951 . S
C285 C284 1.340 . S
C285 C286 1.439 . S
C285 H317 0.950 . S
C286 N282 1.374 . S
C286 C285 1.439 . S
C286 C311 1.395 . S
N287 Co276 1.995 1_565 S
N287 C288 1.376 . S
N287 C291 1.383 . S
C288 N287 1.376 . S
C288 C289 1.446 . S
C288 C311 1.391 1_565 S
C289 C288 1.446 . S
C289 C290 1.339 . S
C289 H318 0.949 . S
C290 C289 1.339 . S
C290 C291 1.439 . S
C290 H319 0.950 . S
C291 N287 1.383 . S
C291 C290 1.439 . S
C291 C309 1.392 . S
N292 Co276 2.282 . S
N292 C295 1.332 . S
N292 C297 1.332 . S
C293 C294 1.386 . S
C293 C296 1.388 . S
C294 C293 1.386 . S
C294 C295 1.382 . S
C294 H320 0.950 . S
C295 N292 1.332 . S
C295 C294 1.382 . S
C295 H306 0.952 . S
C296 C293 1.388 . S
C296 C297 1.382 . S
C296 H321 0.950 . S
C297 N292 1.332 . S
C297 C296 1.382 . S
C297 H307 0.948 . S
N298 Co276 2.282 1_565 S
N298 C302 1.332 . S
N298 C303 1.332 . S
C299 C300 1.388 . S
C299 C303 1.382 . S
C299 H322 0.950 . S
C300 C299 1.388 . S
C300 C301 1.386 . S
C301 C300 1.386 . S
C301 C302 1.382 . S
C301 H323 0.950 . S
C302 N298 1.332 . S
C302 C301 1.382 . S
C302 H304 0.952 . S
C303 N298 1.332 . S
C303 C299 1.382 . S
C303 H305 0.948 . S
H304 C302 0.952 . S
H305 C303 0.948 . S
H306 C295 0.952 . S
H307 C297 0.948 . S
C308 C274 1.395 . S
C308 C278 1.391 1_565 S
C309 C271 1.389 . S
C309 C291 1.392 . S
C310 C281 1.392 . S
C310 C283 1.389 . S
C311 C286 1.395 . S
C311 C288 1.391 1_545 S
H312 C272 0.951 . S
H313 C273 0.950 . S
H314 C279 0.949 . S
H315 C280 0.950 . S
H316 C284 0.951 . S
H317 C285 0.950 . S
H318 C289 0.949 . S
H319 C290 0.950 . S
H320 C294 0.950 . S
H321 C296 0.950 . S
H322 C299 0.950 . S
H323 C301 0.950 . S
C324 C325 1.443 . S
C324 N328 1.376 . S
C324 C362 1.389 . S
C325 C324 1.443 . S
C325 C326 1.340 . S
C325 H365 0.951 . S
C326 C325 1.340 . S
C326 C327 1.439 . S
C326 H366 0.950 . S
C327 C326 1.439 . S
C327 N328 1.374 . S
C327 C361 1.384 1_554 S
N328 C324 1.376 . S
N328 C327 1.374 . S
N328 Co329 2.010 . S
Co329 N328 2.010 . S
Co329 N330 1.992 1_554 S
Co329 N335 2.006 1_554 S
Co329 N340 1.997 . S
Co329 N345 2.286 . S
Co329 N351 2.279 1_554 S
N330 Co329 1.992 1_556 S
N330 C331 1.376 . S
N330 C334 1.383 . S
C331 N330 1.376 . S
C331 C332 1.446 . S
C331 C361 1.402 . S
C332 C331 1.446 . S
C332 C333 1.339 . S
C332 H367 0.949 . S
C333 C332 1.339 . S
C333 C334 1.439 . S
C333 H368 0.950 . S
C334 N330 1.383 . S
C334 C333 1.439 . S
C334 C363 1.392 . S
N335 Co329 2.006 1_556 S
N335 C336 1.376 . S
N335 C339 1.374 . S
C336 N335 1.376 . S
C336 C337 1.443 . S
C336 C363 1.389 . S
C337 C336 1.443 . S
C337 C338 1.340 . S
C337 H369 0.951 . S
C338 C337 1.340 . S
C338 C339 1.439 . S
C338 H370 0.950 . S
C339 N335 1.374 . S
C339 C338 1.439 . S
C339 C364 1.395 1_556 S
N340 Co329 1.997 . S
N340 C341 1.376 . S
N340 C344 1.383 . S
C341 N340 1.376 . S
C341 C342 1.446 . S
C341 C364 1.391 . S
C342 C341 1.446 . S
C342 C343 1.339 . S
C342 H371 0.949 . S
C343 C342 1.339 . S
C343 C344 1.439 . S
C343 H372 0.950 . S
C344 N340 1.383 . S
C344 C343 1.439 . S
C344 C362 1.392 . S
N345 Co329 2.286 . S
N345 C348 1.332 . S
N345 C350 1.332 . S
C346 C347 1.386 . S
C346 C349 1.388 . S
C347 C346 1.386 . S
C347 C348 1.382 . S
C347 H373 0.950 . S
C348 N345 1.332 . S
C348 C347 1.382 . S
C348 H359 0.952 . S
C349 C346 1.388 . S
C349 C350 1.382 . S
C349 H374 0.950 . S
C350 N345 1.332 . S
C350 C349 1.382 . S
C350 H360 0.948 . S
N351 Co329 2.279 1_556 S
N351 C355 1.332 . S
N351 C356 1.332 . S
C352 C353 1.388 . S
C352 C356 1.382 . S
C352 H375 0.950 . S
C353 C352 1.388 . S
C353 C354 1.386 . S
C354 C353 1.386 . S
C354 C355 1.382 . S
C354 H376 0.950 . S
C355 N351 1.332 . S
C355 C354 1.382 . S
C355 H357 0.952 . S
C356 N351 1.332 . S
C356 C352 1.382 . S
C356 H358 0.948 . S
H357 C355 0.952 . S
H358 C356 0.948 . S
H359 C348 0.952 . S
H360 C350 0.948 . S
C361 C327 1.384 1_556 S
C361 C331 1.402 . S
C362 C324 1.389 . S
C362 C344 1.392 . S
C363 C334 1.392 . S
C363 C336 1.389 . S
C364 C339 1.395 1_554 S
C364 C341 1.391 . S
H365 C325 0.951 . S
H366 C326 0.950 . S
H367 C332 0.949 . S
H368 C333 0.950 . S
H369 C337 0.951 . S
H370 C338 0.950 . S
H371 C342 0.949 . S
H372 C343 0.950 . S
H373 C347 0.950 . S
H374 C349 0.950 . S
H375 C352 0.950 . S
H376 C354 0.950 . S
C377 C378 1.443 . S
C377 N381 1.376 . S
C377 C415 1.389 . S
C378 C377 1.443 . S
C378 C379 1.340 . S
C378 H418 0.951 . S
C379 C378 1.340 . S
C379 C380 1.439 . S
C379 H419 0.950 . S
C380 C379 1.439 . S
C380 N381 1.374 . S
C380 C414 1.395 1_554 S
N381 C377 1.376 . S
N381 C380 1.374 . S
N381 Co382 2.008 . S
Co382 N381 2.008 . S
Co382 N383 1.995 1_554 S
Co382 N388 2.008 1_554 S
Co382 N393 1.995 . S
Co382 N398 2.282 . S
Co382 N404 2.282 1_554 S
N383 Co382 1.995 1_556 S
N383 C384 1.376 . S
N383 C387 1.383 . S
C384 N383 1.376 . S
C384 C385 1.446 . S
C384 C414 1.391 . S
C385 C384 1.446 . S
C385 C386 1.339 . S
C385 H420 0.949 . S
C386 C385 1.339 . S
C386 C387 1.439 . S
C386 H421 0.950 . S
C387 N383 1.383 . S
C387 C386 1.439 . S
C387 C416 1.392 . S
N388 Co382 2.008 1_556 S
N388 C389 1.376 . S
N388 C392 1.374 1_556 S
C389 N388 1.376 . S
C389 C390 1.443 . S
C389 C416 1.389 . S
C390 C389 1.443 . S
C390 C391 1.340 . S
C390 H422 0.951 . S
C391 C390 1.340 . S
C391 C392 1.439 1_556 S
C391 H423 0.950 . S
C392 N388 1.374 1_554 S
C392 C391 1.439 1_554 S
C392 C417 1.395 . S
N393 Co382 1.995 . S
N393 C394 1.376 . S
N393 C397 1.383 . S
C394 N393 1.376 . S
C394 C395 1.446 . S
C394 C417 1.391 . S
C395 C394 1.446 . S
C395 C396 1.339 . S
C395 H424 0.949 . S
C396 C395 1.339 . S
C396 C397 1.439 . S
C396 H425 0.950 . S
C397 N393 1.383 . S
C397 C396 1.439 . S
C397 C415 1.392 . S
N398 Co382 2.282 . S
N398 C401 1.332 . S
N398 C403 1.332 . S
C399 C400 1.386 . S
C399 C402 1.388 . S
C400 C399 1.386 . S
C400 C401 1.382 . S
C400 H426 0.950 . S
C401 N398 1.332 . S
C401 C400 1.382 . S
C401 H412 0.952 . S
C402 C399 1.388 . S
C402 C403 1.382 . S
C402 H427 0.950 . S
C403 N398 1.332 . S
C403 C402 1.382 . S
C403 H413 0.948 . S
N404 Co382 2.282 1_556 S
N404 C408 1.332 . S
N404 C409 1.332 . S
C405 C406 1.388 . S
C405 C409 1.382 . S
C405 H428 0.950 . S
C406 C405 1.388 . S
C406 C407 1.386 . S
C407 C406 1.386 . S
C407 C408 1.382 . S
C407 H429 0.950 . S
C408 N404 1.332 . S
C408 C407 1.382 . S
C408 H410 0.952 . S
C409 N404 1.332 . S
C409 C405 1.382 . S
C409 H411 0.948 . S
H410 C408 0.952 . S
H411 C409 0.948 . S
H412 C401 0.952 . S
H413 C403 0.948 . S
C414 C380 1.395 1_556 S
C414 C384 1.391 . S
C415 C377 1.389 . S
C415 C397 1.392 . S
C416 C387 1.392 . S
C416 C389 1.389 . S
C417 C392 1.395 . S
C417 C394 1.391 . S
H418 C378 0.951 . S
H419 C379 0.950 . S
H420 C385 0.949 . S
H421 C386 0.950 . S
H422 C390 0.951 . S
H423 C391 0.950 . S
H424 C395 0.949 . S
H425 C396 0.950 . S
H426 C400 0.950 . S
H427 C402 0.950 . S
H428 C405 0.950 . S
H429 C407 0.950 . S
C430 C431 1.443 . S
C430 N434 1.361 1_556 S
C430 C468 1.389 . S
C431 C430 1.443 . S
C431 C432 1.340 . S
C431 H471 0.951 . S
C432 C431 1.340 . S
C432 C433 1.439 1_556 S
C432 H472 0.950 . S
C433 C432 1.439 1_554 S
C433 N434 1.380 . S
C433 C467 1.395 . S
N434 C430 1.361 1_554 S
N434 C433 1.380 . S
N434 Co435 2.019 . S
Co435 N434 2.019 . S
Co435 N436 1.995 . S
Co435 N441 2.008 . S
Co435 N446 1.995 1_554 S
Co435 N451 2.282 1_554 S
Co435 N457 2.282 . S
N436 Co435 1.995 . S
N436 C437 1.376 . S
N436 C440 1.383 . S
C437 N436 1.376 . S
C437 C438 1.446 . S
C437 C467 1.391 . S
C438 C437 1.446 . S
C438 C439 1.339 . S
C438 H473 0.949 . S
C439 C438 1.339 . S
C439 C440 1.439 . S
C439 H474 0.950 . S
C440 N436 1.383 . S
C440 C439 1.439 . S
C440 C469 1.392 . S
N441 Co435 2.008 . S
N441 C442 1.376 . S
N441 C445 1.374 . S
C442 N441 1.376 . S
C442 C443 1.443 . S
C442 C469 1.389 . S
C443 C442 1.443 . S
C443 C444 1.340 . S
C443 H475 0.951 . S
C444 C443 1.340 . S
C444 C445 1.439 . S
C444 H476 0.950 . S
C445 N441 1.374 . S
C445 C444 1.439 . S
C445 C470 1.395 . S
N446 Co435 1.995 1_556 S
N446 C447 1.376 . S
N446 C450 1.383 . S
C447 N446 1.376 . S
C447 C448 1.446 . S
C447 C470 1.391 1_556 S
C448 C447 1.446 . S
C448 C449 1.339 . S
C448 H477 0.949 . S
C449 C448 1.339 . S
C449 C450 1.439 . S
C449 H478 0.950 . S
C450 N446 1.383 . S
C450 C449 1.439 . S
C450 C468 1.392 . S
N451 Co435 2.282 1_556 S
N451 C454 1.332 . S
N451 C456 1.332 . S
C452 C453 1.386 . S
C452 C455 1.388 . S
C453 C452 1.386 . S
C453 C454 1.382 . S
C453 H479 0.950 . S
C454 N451 1.332 . S
C454 C453 1.382 . S
C454 H465 0.952 . S
C455 C452 1.388 . S
C455 C456 1.382 . S
C455 H480 0.950 . S
C456 N451 1.332 . S
C456 C455 1.382 . S
C456 H466 0.948 . S
N457 Co435 2.282 . S
N457 C461 1.332 . S
N457 C462 1.332 . S
C458 C459 1.388 . S
C458 C462 1.382 . S
C458 H481 0.950 . S
C459 C458 1.388 . S
C459 C460 1.386 . S
C460 C459 1.386 . S
C460 C461 1.382 . S
C460 H482 0.950 . S
C461 N457 1.332 . S
C461 C460 1.382 . S
C461 H463 0.952 . S
C462 N457 1.332 . S
C462 C458 1.382 . S
C462 H464 0.948 . S
H463 C461 0.952 . S
H464 C462 0.948 . S
H465 C454 0.952 . S
H466 C456 0.948 . S
C467 C433 1.395 . S
C467 C437 1.391 . S
C468 C430 1.389 . S
C468 C450 1.392 . S
C469 C440 1.392 . S
C469 C442 1.389 . S
C470 C445 1.395 . S
C470 C447 1.391 1_554 S
H471 C431 0.951 . S
H472 C432 0.950 . S
H473 C438 0.949 . S
H474 C439 0.950 . S
H475 C443 0.951 . S
H476 C444 0.950 . S
H477 C448 0.949 . S
H478 C449 0.950 . S
H479 C453 0.950 . S
H480 C455 0.950 . S
H481 C458 0.950 . S
H482 C460 0.950 . S
C483 C484 1.443 . S
C483 N487 1.376 . S
C483 C521 1.389 . S
C484 C483 1.443 . S
C484 C485 1.340 . S
C484 H524 0.951 . S
C485 C484 1.340 . S
C485 C486 1.439 . S
C485 H525 0.950 . S
C486 C485 1.439 . S
C486 N487 1.374 . S
C486 C520 1.395 1_554 S
N487 C483 1.376 . S
N487 C486 1.374 . S
N487 Co488 2.008 . S
Co488 N487 2.008 . S
Co488 N489 1.995 1_554 S
Co488 N494 2.008 1_554 S
Co488 N499 1.995 . S
Co488 N504 2.282 . S
Co488 N510 2.282 1_554 S
N489 Co488 1.995 1_556 S
N489 C490 1.376 . S
N489 C493 1.383 . S
C490 N489 1.376 . S
C490 C491 1.446 . S
C490 C520 1.391 . S
C491 C490 1.446 . S
C491 C492 1.339 . S
C491 H526 0.949 . S
C492 C491 1.339 . S
C492 C493 1.439 . S
C492 H527 0.950 . S
C493 N489 1.383 . S
C493 C492 1.439 . S
C493 C522 1.392 . S
N494 Co488 2.008 1_556 S
N494 C495 1.376 . S
N494 C498 1.374 1_556 S
C495 N494 1.376 . S
C495 C496 1.443 . S
C495 C522 1.389 . S
C496 C495 1.443 . S
C496 C497 1.340 . S
C496 H528 0.951 . S
C497 C496 1.340 . S
C497 C498 1.439 1_556 S
C497 H529 0.950 . S
C498 N494 1.374 1_554 S
C498 C497 1.439 1_554 S
C498 C523 1.395 . S
N499 Co488 1.995 . S
N499 C500 1.376 . S
N499 C503 1.383 . S
C500 N499 1.376 . S
C500 C501 1.446 . S
C500 C523 1.391 . S
C501 C500 1.446 . S
C501 C502 1.339 . S
C501 H530 0.949 . S
C502 C501 1.339 . S
C502 C503 1.439 . S
C502 H531 0.950 . S
C503 N499 1.383 . S
C503 C502 1.439 . S
C503 C521 1.392 . S
N504 Co488 2.282 . S
N504 C507 1.332 . S
N504 C509 1.332 . S
C505 C506 1.386 . S
C505 C508 1.388 . S
C506 C505 1.386 . S
C506 C507 1.382 . S
C506 H532 0.950 . S
C507 N504 1.332 . S
C507 C506 1.382 . S
C507 H518 0.952 . S
C508 C505 1.388 . S
C508 C509 1.382 . S
C508 H533 0.950 . S
C509 N504 1.332 . S
C509 C508 1.382 . S
C509 H519 0.948 . S
N510 Co488 2.282 1_556 S
N510 C514 1.332 . S
N510 C515 1.332 . S
C511 C512 1.388 . S
C511 C515 1.382 . S
C511 H534 0.950 . S
C512 C511 1.388 . S
C512 C513 1.386 . S
C513 C512 1.386 . S
C513 C514 1.382 . S
C513 H535 0.950 . S
C514 N510 1.332 . S
C514 C513 1.382 . S
C514 H516 0.952 . S
C515 N510 1.332 . S
C515 C511 1.382 . S
C515 H517 0.948 . S
H516 C514 0.952 . S
H517 C515 0.948 . S
H518 C507 0.952 . S
H519 C509 0.948 . S
C520 C486 1.395 1_556 S
C520 C490 1.391 . S
C521 C483 1.389 . S
C521 C503 1.392 . S
C522 C493 1.392 . S
C522 C495 1.389 . S
C523 C498 1.395 . S
C523 C500 1.391 . S
H524 C484 0.951 . S
H525 C485 0.950 . S
H526 C491 0.949 . S
H527 C492 0.950 . S
H528 C496 0.951 . S
H529 C497 0.950 . S
H530 C501 0.949 . S
H531 C502 0.950 . S
H532 C506 0.950 . S
H533 C508 0.950 . S
H534 C511 0.950 . S
H535 C513 0.950 . S
C536 C537 1.391 . S
C536 C538 1.394 . S
C536 H552 0.931 . S
C537 C536 1.391 . S
C537 C541 1.376 . S
C538 C536 1.394 . S
C538 C539 1.369 . S
C538 C542 1.531 . S
C539 C538 1.369 . S
C539 C540 1.410 . S
C539 C547 1.503 . S
C540 C539 1.410 . S
C540 C541 1.392 . S
C540 C543 1.511 . S
C541 C537 1.376 . S
C541 C540 1.392 . S
C541 H553 0.929 . S
C542 C538 1.531 . S
C542 H554 0.960 . S
C542 H555 0.962 . S
C542 H556 0.960 . S
C543 C540 1.511 . S
C543 H557 0.961 . S
C543 H558 0.961 . S
C543 H559 0.961 . S
C544 C545 1.370 . S
C544 C546 1.363 . S
C544 H560 0.931 . S
C545 C544 1.370 . S
C545 C549 1.408 . S
C546 C544 1.363 . S
C546 C547 1.370 . S
C546 C550 1.524 . S
C547 C539 1.503 . S
C547 C546 1.370 . S
C547 C548 1.403 . S
C548 C547 1.403 . S
C548 C549 1.404 . S
C548 C551 1.539 . S
C549 C545 1.408 . S
C549 C548 1.404 . S
C549 H561 0.930 . S
C550 C546 1.524 . S
C550 H562 0.956 . S
C550 H563 0.961 . S
C550 H564 0.961 . S
C551 C548 1.539 . S
C551 H565 0.958 . S
C551 H566 0.961 . S
C551 H567 0.960 . S
H552 C536 0.931 . S
H553 C541 0.929 . S
H554 C542 0.960 . S
H555 C542 0.962 . S
H556 C542 0.960 . S
H557 C543 0.961 . S
H558 C543 0.961 . S
H559 C543 0.961 . S
H560 C544 0.931 . S
H561 C549 0.930 . S
H562 C550 0.956 . S
H563 C550 0.961 . S
H564 C550 0.961 . S
H565 C551 0.958 . S
H566 C551 0.961 . S
H567 C551 0.960 . S
C568 C569 1.391 . S
C568 C570 1.394 . S
C568 H584 0.931 . S
C569 C568 1.391 . S
C569 C573 1.376 . S
C570 C568 1.394 . S
C570 C571 1.369 . S
C570 C574 1.531 . S
C571 C570 1.369 . S
C571 C572 1.410 . S
C571 C579 1.503 . S
C572 C571 1.410 . S
C572 C573 1.392 . S
C572 C575 1.511 . S
C573 C569 1.376 . S
C573 C572 1.392 . S
C573 H585 0.929 . S
C574 C570 1.531 . S
C574 H586 0.960 . S
C574 H587 0.962 . S
C574 H588 0.960 . S
C575 C572 1.511 . S
C575 H589 0.961 . S
C575 H590 0.961 . S
C575 H591 0.961 . S
C576 C577 1.370 . S
C576 C578 1.363 . S
C576 H592 0.931 . S
C577 C576 1.370 . S
C577 C581 1.408 . S
C578 C576 1.363 . S
C578 C579 1.370 . S
C578 C582 1.524 . S
C579 C571 1.503 . S
C579 C578 1.370 . S
C579 C580 1.403 . S
C580 C579 1.403 . S
C580 C581 1.404 . S
C580 C583 1.539 . S
C581 C577 1.408 . S
C581 C580 1.404 . S
C581 H593 0.930 . S
C582 C578 1.524 . S
C582 H594 0.956 . S
C582 H595 0.961 . S
C582 H596 0.961 . S
C583 C580 1.539 . S
C583 H597 0.958 . S
C583 H598 0.961 . S
C583 H599 0.960 . S
H584 C568 0.931 . S
H585 C573 0.929 . S
H586 C574 0.960 . S
H587 C574 0.962 . S
H588 C574 0.960 . S
H589 C575 0.961 . S
H590 C575 0.961 . S
H591 C575 0.961 . S
H592 C576 0.931 . S
H593 C581 0.930 . S
H594 C582 0.956 . S
H595 C582 0.961 . S
H596 C582 0.961 . S
H597 C583 0.958 . S
H598 C583 0.961 . S
H599 C583 0.960 . S
C600 C601 1.391 . S
C600 C602 1.394 . S
C600 H616 0.931 . S
C601 C600 1.391 . S
C601 C605 1.376 . S
C602 C600 1.394 . S
C602 C603 1.369 . S
C602 C606 1.531 . S
C603 C602 1.369 . S
C603 C604 1.410 . S
C603 C611 1.503 . S
C604 C603 1.410 . S
C604 C605 1.392 . S
C604 C607 1.511 . S
C605 C601 1.376 . S
C605 C604 1.392 . S
C605 H617 0.929 . S
C606 C602 1.531 . S
C606 H618 0.960 . S
C606 H619 0.962 . S
C606 H620 0.960 . S
C607 C604 1.511 . S
C607 H621 0.961 . S
C607 H622 0.961 . S
C607 H623 0.961 . S
C608 C609 1.370 . S
C608 C610 1.363 . S
C608 H624 0.931 . S
C609 C608 1.370 . S
C609 C613 1.408 . S
C610 C608 1.363 . S
C610 C611 1.370 . S
C610 C614 1.524 . S
C611 C603 1.503 . S
C611 C610 1.370 . S
C611 C612 1.403 . S
C612 C611 1.403 . S
C612 C613 1.404 . S
C612 C615 1.539 . S
C613 C609 1.408 . S
C613 C612 1.404 . S
C613 H625 0.930 . S
C614 C610 1.524 . S
C614 H626 0.956 . S
C614 H627 0.961 . S
C614 H628 0.961 . S
C615 C612 1.539 . S
C615 H629 0.958 . S
C615 H630 0.961 . S
C615 H631 0.960 . S
H616 C600 0.931 . S
H617 C605 0.929 . S
H618 C606 0.960 . S
H619 C606 0.962 . S
H620 C606 0.960 . S
H621 C607 0.961 . S
H622 C607 0.961 . S
H623 C607 0.961 . S
H624 C608 0.931 . S
H625 C613 0.930 . S
H626 C614 0.956 . S
H627 C614 0.961 . S
H628 C614 0.961 . S
H629 C615 0.958 . S
H630 C615 0.961 . S
H631 C615 0.960 . S
C632 C633 1.391 . S
C632 C634 1.394 . S
C632 H648 0.931 . S
C633 C632 1.391 . S
C633 C637 1.376 . S
C634 C632 1.394 . S
C634 C635 1.369 . S
C634 C638 1.531 . S
C635 C634 1.369 . S
C635 C636 1.410 . S
C635 C643 1.503 . S
C636 C635 1.410 . S
C636 C637 1.392 . S
C636 C639 1.511 . S
C637 C633 1.376 . S
C637 C636 1.392 . S
C637 H649 0.929 . S
C638 C634 1.531 . S
C638 H650 0.960 . S
C638 H651 0.962 . S
C638 H652 0.960 . S
C639 C636 1.511 . S
C639 H653 0.961 . S
C639 H654 0.961 . S
C639 H655 0.961 . S
C640 C641 1.370 . S
C640 C642 1.363 . S
C640 H656 0.931 . S
C641 C640 1.370 . S
C641 C645 1.408 . S
C642 C640 1.363 . S
C642 C643 1.370 . S
C642 C646 1.524 . S
C643 C635 1.503 . S
C643 C642 1.370 . S
C643 C644 1.403 . S
C644 C643 1.403 . S
C644 C645 1.404 . S
C644 C647 1.539 . S
C645 C641 1.408 . S
C645 C644 1.404 . S
C645 H657 0.930 . S
C646 C642 1.524 . S
C646 H658 0.956 . S
C646 H659 0.961 . S
C646 H660 0.961 . S
C647 C644 1.539 . S
C647 H661 0.958 . S
C647 H662 0.961 . S
C647 H663 0.960 . S
H648 C632 0.931 . S
H649 C637 0.929 . S
H650 C638 0.960 . S
H651 C638 0.962 . S
H652 C638 0.960 . S
H653 C639 0.961 . S
H654 C639 0.961 . S
H655 C639 0.961 . S
H656 C640 0.931 . S
H657 C645 0.930 . S
H658 C646 0.956 . S
H659 C646 0.961 . S
H660 C646 0.961 . S
H661 C647 0.958 . S
H662 C647 0.961 . S
H663 C647 0.960 . S
C664 C665 1.391 . S
C664 C666 1.394 . S
C664 H680 0.931 . S
C665 C664 1.391 . S
C665 C669 1.376 . S
C666 C664 1.394 . S
C666 C667 1.369 . S
C666 C670 1.531 . S
C667 C666 1.369 . S
C667 C668 1.410 . S
C667 C675 1.503 . S
C668 C667 1.410 . S
C668 C669 1.392 . S
C668 C671 1.511 . S
C669 C665 1.376 . S
C669 C668 1.392 . S
C669 H681 0.929 . S
C670 C666 1.531 . S
C670 H682 0.960 . S
C670 H683 0.962 . S
C670 H684 0.960 . S
C671 C668 1.511 . S
C671 H685 0.961 . S
C671 H686 0.961 . S
C671 H687 0.961 . S
C672 C673 1.370 . S
C672 C674 1.363 . S
C672 H688 0.931 . S
C673 C672 1.370 . S
C673 C677 1.408 . S
C674 C672 1.363 . S
C674 C675 1.370 . S
C674 C678 1.524 . S
C675 C667 1.503 . S
C675 C674 1.370 . S
C675 C676 1.403 . S
C676 C675 1.403 . S
C676 C677 1.404 . S
C676 C679 1.539 . S
C677 C673 1.408 . S
C677 C676 1.404 . S
C677 H689 0.930 . S
C678 C674 1.524 . S
C678 H690 0.956 . S
C678 H691 0.961 . S
C678 H692 0.961 . S
C679 C676 1.539 . S
C679 H693 0.958 . S
C679 H694 0.961 . S
C679 H695 0.960 . S
H680 C664 0.931 . S
H681 C669 0.929 . S
H682 C670 0.960 . S
H683 C670 0.962 . S
H684 C670 0.960 . S
H685 C671 0.961 . S
H686 C671 0.961 . S
H687 C671 0.961 . S
H688 C672 0.931 . S
H689 C677 0.930 . S
H690 C678 0.956 . S
H691 C678 0.961 . S
H692 C678 0.961 . S
H693 C679 0.958 . S
H694 C679 0.961 . S
H695 C679 0.960 . S
C696 C697 1.391 . S
C696 C698 1.394 . S
C696 H712 0.931 . S
C697 C696 1.391 . S
C697 C701 1.376 . S
C698 C696 1.394 . S
C698 C699 1.369 . S
C698 C702 1.531 . S
C699 C698 1.369 . S
C699 C700 1.410 . S
C699 C707 1.503 . S
C700 C699 1.410 . S
C700 C701 1.392 . S
C700 C703 1.511 . S
C701 C697 1.376 . S
C701 C700 1.392 . S
C701 H713 0.929 . S
C702 C698 1.531 . S
C702 H714 0.960 . S
C702 H715 0.962 . S
C702 H716 0.960 . S
C703 C700 1.511 . S
C703 H717 0.961 . S
C703 H718 0.961 . S
C703 H719 0.961 . S
C704 C705 1.370 . S
C704 C706 1.363 . S
C704 H720 0.931 . S
C705 C704 1.370 . S
C705 C709 1.408 . S
C706 C704 1.363 . S
C706 C707 1.370 . S
C706 C710 1.524 . S
C707 C699 1.503 . S
C707 C706 1.370 . S
C707 C708 1.403 . S
C708 C707 1.403 . S
C708 C709 1.404 . S
C708 C711 1.539 . S
C709 C705 1.408 . S
C709 C708 1.404 . S
C709 H721 0.930 . S
C710 C706 1.524 . S
C710 H722 0.956 . S
C710 H723 0.961 . S
C710 H724 0.961 . S
C711 C708 1.539 . S
C711 H725 0.958 . S
C711 H726 0.961 . S
C711 H727 0.960 . S
H712 C696 0.931 . S
H713 C701 0.929 . S
H714 C702 0.960 . S
H715 C702 0.962 . S
H716 C702 0.960 . S
H717 C703 0.961 . S
H718 C703 0.961 . S
H719 C703 0.961 . S
H720 C704 0.931 . S
H721 C709 0.930 . S
H722 C710 0.956 . S
H723 C710 0.961 . S
H724 C710 0.961 . S
H725 C711 0.958 . S
H726 C711 0.961 . S
H727 C711 0.960 . S
C728 C729 1.391 . S
C728 C730 1.394 . S
C728 H744 0.931 . S
C729 C728 1.391 . S
C729 C733 1.376 . S
C730 C728 1.394 . S
C730 C731 1.369 . S
C730 C734 1.531 . S
C731 C730 1.369 . S
C731 C732 1.410 . S
C731 C739 1.503 . S
C732 C731 1.410 . S
C732 C733 1.392 . S
C732 C735 1.511 . S
C733 C729 1.376 . S
C733 C732 1.392 . S
C733 H745 0.929 . S
C734 C730 1.531 . S
C734 H746 0.960 . S
C734 H747 0.962 . S
C734 H748 0.960 . S
C735 C732 1.511 . S
C735 H749 0.961 . S
C735 H750 0.961 . S
C735 H751 0.961 . S
C736 C737 1.370 . S
C736 C738 1.363 . S
C736 H752 0.931 . S
C737 C736 1.370 . S
C737 C741 1.408 . S
C738 C736 1.363 . S
C738 C739 1.370 . S
C738 C742 1.524 . S
C739 C731 1.503 . S
C739 C738 1.370 . S
C739 C740 1.403 . S
C740 C739 1.403 . S
C740 C741 1.404 . S
C740 C743 1.539 . S
C741 C737 1.408 . S
C741 C740 1.404 . S
C741 H753 0.930 . S
C742 C738 1.524 . S
C742 H754 0.956 . S
C742 H755 0.961 . S
C742 H756 0.961 . S
C743 C740 1.539 . S
C743 H757 0.958 . S
C743 H758 0.961 . S
C743 H759 0.960 . S
H744 C728 0.931 . S
H745 C733 0.929 . S
H746 C734 0.960 . S
H747 C734 0.962 . S
H748 C734 0.960 . S
H749 C735 0.961 . S
H750 C735 0.961 . S
H751 C735 0.961 . S
H752 C736 0.931 . S
H753 C741 0.930 . S
H754 C742 0.956 . S
H755 C742 0.961 . S
H756 C742 0.961 . S
H757 C743 0.958 . S
H758 C743 0.961 . S
H759 C743 0.960 . S
C760 C761 1.391 . S
C760 C762 1.394 . S
C760 H776 0.931 . S
C761 C760 1.391 . S
C761 C765 1.376 . S
C762 C760 1.394 . S
C762 C763 1.369 . S
C762 C766 1.531 . S
C763 C762 1.369 . S
C763 C764 1.410 . S
C763 C771 1.503 . S
C764 C763 1.410 . S
C764 C765 1.392 . S
C764 C767 1.511 . S
C765 C761 1.376 . S
C765 C764 1.392 . S
C765 H777 0.929 . S
C766 C762 1.531 . S
C766 H778 0.960 . S
C766 H779 0.962 . S
C766 H780 0.960 . S
C767 C764 1.511 . S
C767 H781 0.961 . S
C767 H782 0.961 . S
C767 H783 0.961 . S
C768 C769 1.370 . S
C768 C770 1.363 . S
C768 H784 0.931 . S
C769 C768 1.370 . S
C769 C773 1.408 . S
C770 C768 1.363 . S
C770 C771 1.370 . S
C770 C774 1.524 . S
C771 C763 1.503 . S
C771 C770 1.370 . S
C771 C772 1.403 . S
C772 C771 1.403 . S
C772 C773 1.404 . S
C772 C775 1.539 . S
C773 C769 1.408 . S
C773 C772 1.404 . S
C773 H785 0.930 . S
C774 C770 1.524 . S
C774 H786 0.956 . S
C774 H787 0.961 . S
C774 H788 0.961 . S
C775 C772 1.539 . S
C775 H789 0.958 . S
C775 H790 0.961 . S
C775 H791 0.960 . S
H776 C760 0.931 . S
H777 C765 0.929 . S
H778 C766 0.960 . S
H779 C766 0.962 . S
H780 C766 0.960 . S
H781 C767 0.961 . S
H782 C767 0.961 . S
H783 C767 0.961 . S
H784 C768 0.931 . S
H785 C773 0.930 . S
H786 C774 0.956 . S
H787 C774 0.961 . S
H788 C774 0.961 . S
H789 C775 0.958 . S
H790 C775 0.961 . S
H791 C775 0.960 . S
C792 C793 1.391 . S
C792 C794 1.394 . S
C792 H808 0.931 . S
C793 C792 1.391 . S
C793 C797 1.376 . S
C794 C792 1.394 . S
C794 C795 1.369 . S
C794 C798 1.531 . S
C795 C794 1.369 . S
C795 C796 1.410 . S
C795 C803 1.503 . S
C796 C795 1.410 . S
C796 C797 1.392 . S
C796 C799 1.511 . S
C797 C793 1.376 . S
C797 C796 1.392 . S
C797 H809 0.929 . S
C798 C794 1.531 . S
C798 H810 0.960 . S
C798 H811 0.962 . S
C798 H812 0.960 . S
C799 C796 1.511 . S
C799 H813 0.961 . S
C799 H814 0.961 . S
C799 H815 0.961 . S
C800 C801 1.370 . S
C800 C802 1.363 . S
C800 H816 0.931 . S
C801 C800 1.370 . S
C801 C805 1.408 . S
C802 C800 1.363 . S
C802 C803 1.370 . S
C802 C806 1.524 . S
C803 C795 1.503 . S
C803 C802 1.370 . S
C803 C804 1.403 . S
C804 C803 1.403 . S
C804 C805 1.404 . S
C804 C807 1.539 . S
C805 C801 1.408 . S
C805 C804 1.404 . S
C805 H817 0.930 . S
C806 C802 1.524 . S
C806 H818 0.956 . S
C806 H819 0.961 . S
C806 H820 0.961 . S
C807 C804 1.539 . S
C807 H821 0.958 . S
C807 H822 0.961 . S
C807 H823 0.960 . S
H808 C792 0.931 . S
H809 C797 0.929 . S
H810 C798 0.960 . S
H811 C798 0.962 . S
H812 C798 0.960 . S
H813 C799 0.961 . S
H814 C799 0.961 . S
H815 C799 0.961 . S
H816 C800 0.931 . S
H817 C805 0.930 . S
H818 C806 0.956 . S
H819 C806 0.961 . S
H820 C806 0.961 . S
H821 C807 0.958 . S
H822 C807 0.961 . S
H823 C807 0.960 . S
C824 C825 1.391 . S
C824 C826 1.394 . S
C824 H840 0.931 . S
C825 C824 1.391 . S
C825 C829 1.376 . S
C826 C824 1.394 . S
C826 C827 1.369 . S
C826 C830 1.531 . S
C827 C826 1.369 . S
C827 C828 1.410 . S
C827 C835 1.503 . S
C828 C827 1.410 . S
C828 C829 1.392 . S
C828 C831 1.511 . S
C829 C825 1.376 . S
C829 C828 1.392 . S
C829 H841 0.929 . S
C830 C826 1.531 . S
C830 H842 0.960 . S
C830 H843 0.962 . S
C830 H844 0.960 . S
C831 C828 1.511 . S
C831 H845 0.961 . S
C831 H846 0.961 . S
C831 H847 0.961 . S
C832 C833 1.370 . S
C832 C834 1.363 . S
C832 H848 0.931 . S
C833 C832 1.370 . S
C833 C837 1.408 . S
C834 C832 1.363 . S
C834 C835 1.370 . S
C834 C838 1.524 . S
C835 C827 1.503 . S
C835 C834 1.370 . S
C835 C836 1.403 . S
C836 C835 1.403 . S
C836 C837 1.404 . S
C836 C839 1.539 . S
C837 C833 1.408 . S
C837 C836 1.404 . S
C837 H849 0.930 . S
C838 C834 1.524 . S
C838 H850 0.956 . S
C838 H851 0.961 . S
C838 H852 0.961 . S
C839 C836 1.539 . S
C839 H853 0.958 . S
C839 H854 0.961 . S
C839 H855 0.960 . S
H840 C824 0.931 . S
H841 C829 0.929 . S
H842 C830 0.960 . S
H843 C830 0.962 . S
H844 C830 0.960 . S
H845 C831 0.961 . S
H846 C831 0.961 . S
H847 C831 0.961 . S
H848 C832 0.931 . S
H849 C837 0.930 . S
H850 C838 0.956 . S
H851 C838 0.961 . S
H852 C838 0.961 . S
H853 C839 0.958 . S
H854 C839 0.961 . S
H855 C839 0.960 . S
C856 C857 1.391 . S
C856 C858 1.394 . S
C856 H872 0.931 . S
C857 C856 1.391 . S
C857 C861 1.376 . S
C858 C856 1.394 . S
C858 C859 1.369 . S
C858 C862 1.531 . S
C859 C858 1.369 . S
C859 C860 1.410 . S
C859 C867 1.503 . S
C860 C859 1.410 . S
C860 C861 1.392 . S
C860 C863 1.511 . S
C861 C857 1.376 . S
C861 C860 1.392 . S
C861 H873 0.929 . S
C862 C858 1.531 . S
C862 H874 0.960 . S
C862 H875 0.962 . S
C862 H876 0.960 . S
C863 C860 1.511 . S
C863 H877 0.961 . S
C863 H878 0.961 . S
C863 H879 0.961 . S
C864 C865 1.370 . S
C864 C866 1.363 . S
C864 H880 0.931 . S
C865 C864 1.370 . S
C865 C869 1.408 . S
C866 C864 1.363 . S
C866 C867 1.370 . S
C866 C870 1.524 . S
C867 C859 1.503 . S
C867 C866 1.370 . S
C867 C868 1.403 . S
C868 C867 1.403 . S
C868 C869 1.404 . S
C868 C871 1.539 . S
C869 C865 1.408 . S
C869 C868 1.404 . S
C869 H881 0.930 . S
C870 C866 1.524 . S
C870 H882 0.956 . S
C870 H883 0.961 . S
C870 H884 0.961 . S
C871 C868 1.539 . S
C871 H885 0.958 . S
C871 H886 0.961 . S
C871 H887 0.960 . S
H872 C856 0.931 . S
H873 C861 0.929 . S
H874 C862 0.960 . S
H875 C862 0.962 . S
H876 C862 0.960 . S
H877 C863 0.961 . S
H878 C863 0.961 . S
H879 C863 0.961 . S
H880 C864 0.931 . S
H881 C869 0.930 . S
H882 C870 0.956 . S
H883 C870 0.961 . S
H884 C870 0.961 . S
H885 C871 0.958 . S
H886 C871 0.961 . S
H887 C871 0.960 . S
C888 C889 1.391 . S
C888 C890 1.394 . S
C888 H904 0.931 . S
C889 C888 1.391 . S
C889 C893 1.376 . S
C890 C888 1.394 . S
C890 C891 1.369 . S
C890 C894 1.531 . S
C891 C890 1.369 . S
C891 C892 1.410 . S
C891 C899 1.503 . S
C892 C891 1.410 . S
C892 C893 1.392 . S
C892 C895 1.511 . S
C893 C889 1.376 . S
C893 C892 1.392 . S
C893 H905 0.929 . S
C894 C890 1.531 . S
C894 H906 0.960 . S
C894 H907 0.962 . S
C894 H908 0.960 . S
C895 C892 1.511 . S
C895 H909 0.961 . S
C895 H910 0.961 . S
C895 H911 0.961 . S
C896 C897 1.370 . S
C896 C898 1.363 . S
C896 H912 0.931 . S
C897 C896 1.370 . S
C897 C901 1.408 . S
C898 C896 1.363 . S
C898 C899 1.370 . S
C898 C902 1.524 . S
C899 C891 1.503 . S
C899 C898 1.370 . S
C899 C900 1.403 . S
C900 C899 1.403 . S
C900 C901 1.404 . S
C900 C903 1.539 . S
C901 C897 1.408 . S
C901 C900 1.404 . S
C901 H913 0.930 . S
C902 C898 1.524 . S
C902 H914 0.956 . S
C902 H915 0.961 . S
C902 H916 0.961 . S
C903 C900 1.539 . S
C903 H917 0.958 . S
C903 H918 0.961 . S
C903 H919 0.960 . S
H904 C888 0.931 . S
H905 C893 0.929 . S
H906 C894 0.960 . S
H907 C894 0.962 . S
H908 C894 0.960 . S
H909 C895 0.961 . S
H910 C895 0.961 . S
H911 C895 0.961 . S
H912 C896 0.931 . S
H913 C901 0.930 . S
H914 C902 0.956 . S
H915 C902 0.961 . S
H916 C902 0.961 . S
H917 C903 0.958 . S
H918 C903 0.961 . S
H919 C903 0.960 . S
C920 C921 1.391 . S
C920 C922 1.394 . S
C920 H936 0.931 . S
C921 C920 1.391 . S
C921 C925 1.376 . S
C922 C920 1.394 . S
C922 C923 1.369 . S
C922 C926 1.531 . S
C923 C922 1.369 . S
C923 C924 1.410 . S
C923 C931 1.503 . S
C924 C923 1.410 . S
C924 C925 1.392 . S
C924 C927 1.511 . S
C925 C921 1.376 . S
C925 C924 1.392 . S
C925 H937 0.929 . S
C926 C922 1.531 . S
C926 H938 0.960 . S
C926 H939 0.962 . S
C926 H940 0.960 . S
C927 C924 1.511 . S
C927 H941 0.961 . S
C927 H942 0.961 . S
C927 H943 0.961 . S
C928 C929 1.370 . S
C928 C930 1.363 . S
C928 H944 0.931 . S
C929 C928 1.370 . S
C929 C933 1.408 . S
C930 C928 1.363 . S
C930 C931 1.370 . S
C930 C934 1.524 . S
C931 C923 1.503 . S
C931 C930 1.370 . S
C931 C932 1.403 . S
C932 C931 1.403 . S
C932 C933 1.404 . S
C932 C935 1.539 . S
C933 C929 1.408 . S
C933 C932 1.404 . S
C933 H945 0.930 . S
C934 C930 1.524 . S
C934 H946 0.956 . S
C934 H947 0.961 . S
C934 H948 0.961 . S
C935 C932 1.539 . S
C935 H949 0.958 . S
C935 H950 0.961 . S
C935 H951 0.960 . S
H936 C920 0.931 . S
H937 C925 0.929 . S
H938 C926 0.960 . S
H939 C926 0.962 . S
H940 C926 0.960 . S
H941 C927 0.961 . S
H942 C927 0.961 . S
H943 C927 0.961 . S
H944 C928 0.931 . S
H945 C933 0.930 . S
H946 C934 0.956 . S
H947 C934 0.961 . S
H948 C934 0.961 . S
H949 C935 0.958 . S
H950 C935 0.961 . S
H951 C935 0.960 . S
C952 C953 1.391 . S
C952 C954 1.394 . S
C952 H968 0.931 . S
C953 C952 1.391 . S
C953 C957 1.376 . S
C954 C952 1.394 . S
C954 C955 1.369 . S
C954 C958 1.531 . S
C955 C954 1.369 . S
C955 C956 1.410 . S
C955 C963 1.503 . S
C956 C955 1.410 . S
C956 C957 1.392 . S
C956 C959 1.511 . S
C957 C953 1.376 . S
C957 C956 1.392 . S
C957 H969 0.929 . S
C958 C954 1.531 . S
C958 H970 0.960 . S
C958 H971 0.962 . S
C958 H972 0.960 . S
C959 C956 1.511 . S
C959 H973 0.961 . S
C959 H974 0.961 . S
C959 H975 0.961 . S
C960 C961 1.370 . S
C960 C962 1.363 . S
C960 H976 0.931 . S
C961 C960 1.370 . S
C961 C965 1.408 . S
C962 C960 1.363 . S
C962 C963 1.370 . S
C962 C966 1.524 . S
C963 C955 1.503 . S
C963 C962 1.370 . S
C963 C964 1.403 . S
C964 C963 1.403 . S
C964 C965 1.404 . S
C964 C967 1.539 . S
C965 C961 1.408 . S
C965 C964 1.404 . S
C965 H977 0.930 . S
C966 C962 1.524 . S
C966 H978 0.956 . S
C966 H979 0.961 . S
C966 H980 0.961 . S
C967 C964 1.539 . S
C967 H981 0.958 . S
C967 H982 0.961 . S
C967 H983 0.960 . S
H968 C952 0.931 . S
H969 C957 0.929 . S
H970 C958 0.960 . S
H971 C958 0.962 . S
H972 C958 0.960 . S
H973 C959 0.961 . S
H974 C959 0.961 . S
H975 C959 0.961 . S
H976 C960 0.931 . S
H977 C965 0.930 . S
H978 C966 0.956 . S
H979 C966 0.961 . S
H980 C966 0.961 . S
H981 C967 0.958 . S
H982 C967 0.961 . S
H983 C967 0.960 . S
C984 C985 1.391 . S
C984 C986 1.394 . S
C984 H1000 0.931 . S
C985 C984 1.391 . S
C985 C989 1.376 . S
C986 C984 1.394 . S
C986 C987 1.369 . S
C986 C990 1.531 . S
C987 C986 1.369 . S
C987 C988 1.410 . S
C987 C995 1.503 . S
C988 C987 1.410 . S
C988 C989 1.392 . S
C988 C991 1.511 . S
C989 C985 1.376 . S
C989 C988 1.392 . S
C989 H1001 0.929 . S
C990 C986 1.531 . S
C990 H1002 0.960 . S
C990 H1003 0.962 . S
C990 H1004 0.960 . S
C991 C988 1.511 . S
C991 H1005 0.961 . S
C991 H1006 0.961 . S
C991 H1007 0.961 . S
C992 C993 1.370 . S
C992 C994 1.363 . S
C992 H1008 0.931 . S
C993 C992 1.370 . S
C993 C997 1.408 . S
C994 C992 1.363 . S
C994 C995 1.370 . S
C994 C998 1.524 . S
C995 C987 1.503 . S
C995 C994 1.370 . S
C995 C996 1.403 . S
C996 C995 1.403 . S
C996 C997 1.404 . S
C996 C999 1.539 . S
C997 C993 1.408 . S
C997 C996 1.404 . S
C997 H1009 0.930 . S
C998 C994 1.524 . S
C998 H1010 0.956 . S
C998 H1011 0.961 . S
C998 H1012 0.961 . S
C999 C996 1.539 . S
C999 H1013 0.958 . S
C999 H1014 0.961 . S
C999 H1015 0.960 . S
H1000 C984 0.931 . S
H1001 C989 0.929 . S
H1002 C990 0.960 . S
H1003 C990 0.962 . S
H1004 C990 0.960 . S
H1005 C991 0.961 . S
H1006 C991 0.961 . S
H1007 C991 0.961 . S
H1008 C992 0.931 . S
H1009 C997 0.930 . S
H1010 C998 0.956 . S
H1011 C998 0.961 . S
H1012 C998 0.961 . S
H1013 C999 0.958 . S
H1014 C999 0.961 . S
H1015 C999 0.960 . S
C1016 C1017 1.391 . S
C1016 C1018 1.394 . S
C1016 H1032 0.931 . S
C1017 C1016 1.391 . S
C1017 C1021 1.376 . S
C1018 C1016 1.394 . S
C1018 C1019 1.369 . S
C1018 C1022 1.531 . S
C1019 C1018 1.369 . S
C1019 C1020 1.410 . S
C1019 C1027 1.503 . S
C1020 C1019 1.410 . S
C1020 C1021 1.392 . S
C1020 C1023 1.511 . S
C1021 C1017 1.376 . S
C1021 C1020 1.392 . S
C1021 H1033 0.929 . S
C1022 C1018 1.531 . S
C1022 H1034 0.960 . S
C1022 H1035 0.962 . S
C1022 H1036 0.960 . S
C1023 C1020 1.511 . S
C1023 H1037 0.961 . S
C1023 H1038 0.961 . S
C1023 H1039 0.961 . S
C1024 C1025 1.370 . S
C1024 C1026 1.363 . S
C1024 H1040 0.931 . S
C1025 C1024 1.370 . S
C1025 C1029 1.408 . S
C1026 C1024 1.363 . S
C1026 C1027 1.370 . S
C1026 C1030 1.524 . S
C1027 C1019 1.503 . S
C1027 C1026 1.370 . S
C1027 C1028 1.403 . S
C1028 C1027 1.403 . S
C1028 C1029 1.404 . S
C1028 C1031 1.539 . S
C1029 C1025 1.408 . S
C1029 C1028 1.404 . S
C1029 H1041 0.930 . S
C1030 C1026 1.524 . S
C1030 H1042 0.956 . S
C1030 H1043 0.961 . S
C1030 H1044 0.961 . S
C1031 C1028 1.539 . S
C1031 H1045 0.958 . S
C1031 H1046 0.961 . S
C1031 H1047 0.960 . S
H1032 C1016 0.931 . S
H1033 C1021 0.929 . S
H1034 C1022 0.960 . S
H1035 C1022 0.962 . S
H1036 C1022 0.960 . S
H1037 C1023 0.961 . S
H1038 C1023 0.961 . S
H1039 C1023 0.961 . S
H1040 C1024 0.931 . S
H1041 C1029 0.930 . S
H1042 C1030 0.956 . S
H1043 C1030 0.961 . S
H1044 C1030 0.961 . S
H1045 C1031 0.958 . S
H1046 C1031 0.961 . S
H1047 C1031 0.960 . S
C1048 C1049 1.391 . S
C1048 C1050 1.394 . S
C1048 H1064 0.931 . S
C1049 C1048 1.391 . S
C1049 C1053 1.376 . S
C1050 C1048 1.394 . S
C1050 C1051 1.369 . S
C1050 C1054 1.531 . S
C1051 C1050 1.369 . S
C1051 C1052 1.410 . S
C1051 C1059 1.503 . S
C1052 C1051 1.410 . S
C1052 C1053 1.392 . S
C1052 C1055 1.511 . S
C1053 C1049 1.376 . S
C1053 C1052 1.392 . S
C1053 H1065 0.929 . S
C1054 C1050 1.531 . S
C1054 H1066 0.960 . S
C1054 H1067 0.962 . S
C1054 H1068 0.960 . S
C1055 C1052 1.511 . S
C1055 H1069 0.961 . S
C1055 H1070 0.961 . S
C1055 H1071 0.961 . S
C1056 C1057 1.370 . S
C1056 C1058 1.363 . S
C1056 H1072 0.931 . S
C1057 C1056 1.370 . S
C1057 C1061 1.408 . S
C1058 C1056 1.363 . S
C1058 C1059 1.370 . S
C1058 C1062 1.524 . S
C1059 C1051 1.503 . S
C1059 C1058 1.370 . S
C1059 C1060 1.403 . S
C1060 C1059 1.403 . S
C1060 C1061 1.404 . S
C1060 C1063 1.539 . S
C1061 C1057 1.408 . S
C1061 C1060 1.404 . S
C1061 H1073 0.930 . S
C1062 C1058 1.524 . S
C1062 H1074 0.956 . S
C1062 H1075 0.961 . S
C1062 H1076 0.961 . S
C1063 C1060 1.539 . S
C1063 H1077 0.958 . S
C1063 H1078 0.961 . S
C1063 H1079 0.960 . S
H1064 C1048 0.931 . S
H1065 C1053 0.929 . S
H1066 C1054 0.960 . S
H1067 C1054 0.962 . S
H1068 C1054 0.960 . S
H1069 C1055 0.961 . S
H1070 C1055 0.961 . S
H1071 C1055 0.961 . S
H1072 C1056 0.931 . S
H1073 C1061 0.930 . S
H1074 C1062 0.956 . S
H1075 C1062 0.961 . S
H1076 C1062 0.961 . S
H1077 C1063 0.958 . S
H1078 C1063 0.961 . S
H1079 C1063 0.960 . S
C1080 C1081 1.391 . S
C1080 C1082 1.394 . S
C1080 H1096 0.931 . S
C1081 C1080 1.391 . S
C1081 C1085 1.376 . S
C1082 C1080 1.394 . S
C1082 C1083 1.369 . S
C1082 C1086 1.531 . S
C1083 C1082 1.369 . S
C1083 C1084 1.410 . S
C1083 C1091 1.503 . S
C1084 C1083 1.410 . S
C1084 C1085 1.392 . S
C1084 C1087 1.511 . S
C1085 C1081 1.376 . S
C1085 C1084 1.392 . S
C1085 H1097 0.929 . S
C1086 C1082 1.531 . S
C1086 H1098 0.960 . S
C1086 H1099 0.962 . S
C1086 H1100 0.960 . S
C1087 C1084 1.511 . S
C1087 H1101 0.961 . S
C1087 H1102 0.961 . S
C1087 H1103 0.961 . S
C1088 C1089 1.370 . S
C1088 C1090 1.363 . S
C1088 H1104 0.931 . S
C1089 C1088 1.370 . S
C1089 C1093 1.408 . S
C1090 C1088 1.363 . S
C1090 C1091 1.370 . S
C1090 C1094 1.524 . S
C1091 C1083 1.503 . S
C1091 C1090 1.370 . S
C1091 C1092 1.403 . S
C1092 C1091 1.403 . S
C1092 C1093 1.404 . S
C1092 C1095 1.539 . S
C1093 C1089 1.408 . S
C1093 C1092 1.404 . S
C1093 H1105 0.930 . S
C1094 C1090 1.524 . S
C1094 H1106 0.956 . S
C1094 H1107 0.961 . S
C1094 H1108 0.961 . S
C1095 C1092 1.539 . S
C1095 H1109 0.958 . S
C1095 H1110 0.961 . S
C1095 H1111 0.960 . S
H1096 C1080 0.931 . S
H1097 C1085 0.929 . S
H1098 C1086 0.960 . S
H1099 C1086 0.962 . S
H1100 C1086 0.960 . S
H1101 C1087 0.961 . S
H1102 C1087 0.961 . S
H1103 C1087 0.961 . S
H1104 C1088 0.931 . S
H1105 C1093 0.930 . S
H1106 C1094 0.956 . S
H1107 C1094 0.961 . S
H1108 C1094 0.961 . S
H1109 C1095 0.958 . S
H1110 C1095 0.961 . S
H1111 C1095 0.960 . S
C1112 C1113 1.391 . S
C1112 C1114 1.394 . S
C1112 H1128 0.931 . S
C1113 C1112 1.391 . S
C1113 C1117 1.376 . S
C1114 C1112 1.394 . S
C1114 C1115 1.369 . S
C1114 C1118 1.531 . S
C1115 C1114 1.369 . S
C1115 C1116 1.410 . S
C1115 C1123 1.503 . S
C1116 C1115 1.410 . S
C1116 C1117 1.392 . S
C1116 C1119 1.511 . S
C1117 C1113 1.376 . S
C1117 C1116 1.392 . S
C1117 H1129 0.929 . S
C1118 C1114 1.531 . S
C1118 H1130 0.960 . S
C1118 H1131 0.962 . S
C1118 H1132 0.960 . S
C1119 C1116 1.511 . S
C1119 H1133 0.961 . S
C1119 H1134 0.961 . S
C1119 H1135 0.961 . S
C1120 C1121 1.370 . S
C1120 C1122 1.363 . S
C1120 H1136 0.931 . S
C1121 C1120 1.370 . S
C1121 C1125 1.408 . S
C1122 C1120 1.363 . S
C1122 C1123 1.370 . S
C1122 C1126 1.524 . S
C1123 C1115 1.503 . S
C1123 C1122 1.370 . S
C1123 C1124 1.403 . S
C1124 C1123 1.403 . S
C1124 C1125 1.404 . S
C1124 C1127 1.539 . S
C1125 C1121 1.408 . S
C1125 C1124 1.404 . S
C1125 H1137 0.930 . S
C1126 C1122 1.524 . S
C1126 H1138 0.956 . S
C1126 H1139 0.961 . S
C1126 H1140 0.961 . S
C1127 C1124 1.539 . S
C1127 H1141 0.958 . S
C1127 H1142 0.961 . S
C1127 H1143 0.960 . S
H1128 C1112 0.931 . S
H1129 C1117 0.929 . S
H1130 C1118 0.960 . S
H1131 C1118 0.962 . S
H1132 C1118 0.960 . S
H1133 C1119 0.961 . S
H1134 C1119 0.961 . S
H1135 C1119 0.961 . S
H1136 C1120 0.931 . S
H1137 C1125 0.930 . S
H1138 C1126 0.956 . S
H1139 C1126 0.961 . S
H1140 C1126 0.961 . S
H1141 C1127 0.958 . S
H1142 C1127 0.961 . S
H1143 C1127 0.960 . S
C1144 C1145 1.391 . S
C1144 C1146 1.394 . S
C1144 H1160 0.931 . S
C1145 C1144 1.391 . S
C1145 C1149 1.376 . S
C1146 C1144 1.394 . S
C1146 C1147 1.369 . S
C1146 C1150 1.531 . S
C1147 C1146 1.369 . S
C1147 C1148 1.410 . S
C1147 C1155 1.503 . S
C1148 C1147 1.410 . S
C1148 C1149 1.392 . S
C1148 C1151 1.511 . S
C1149 C1145 1.376 . S
C1149 C1148 1.392 . S
C1149 H1161 0.929 . S
C1150 C1146 1.531 . S
C1150 H1162 0.960 . S
C1150 H1163 0.962 . S
C1150 H1164 0.960 . S
C1151 C1148 1.511 . S
C1151 H1165 0.961 . S
C1151 H1166 0.961 . S
C1151 H1167 0.961 . S
C1152 C1153 1.370 . S
C1152 C1154 1.363 . S
C1152 H1168 0.931 . S
C1153 C1152 1.370 . S
C1153 C1157 1.408 . S
C1154 C1152 1.363 . S
C1154 C1155 1.370 . S
C1154 C1158 1.524 . S
C1155 C1147 1.503 . S
C1155 C1154 1.370 . S
C1155 C1156 1.403 . S
C1156 C1155 1.403 . S
C1156 C1157 1.404 . S
C1156 C1159 1.539 . S
C1157 C1153 1.408 . S
C1157 C1156 1.404 . S
C1157 H1169 0.930 . S
C1158 C1154 1.524 . S
C1158 H1170 0.956 . S
C1158 H1171 0.961 . S
C1158 H1172 0.961 . S
C1159 C1156 1.539 . S
C1159 H1173 0.958 . S
C1159 H1174 0.961 . S
C1159 H1175 0.960 . S
H1160 C1144 0.931 . S
H1161 C1149 0.929 . S
H1162 C1150 0.960 . S
H1163 C1150 0.962 . S
H1164 C1150 0.960 . S
H1165 C1151 0.961 . S
H1166 C1151 0.961 . S
H1167 C1151 0.961 . S
H1168 C1152 0.931 . S
H1169 C1157 0.930 . S
H1170 C1158 0.956 . S
H1171 C1158 0.961 . S
H1172 C1158 0.961 . S
H1173 C1159 0.958 . S
H1174 C1159 0.961 . S
H1175 C1159 0.960 . S
C1176 C1177 1.391 . S
C1176 C1178 1.394 . S
C1176 H1192 0.931 . S
C1177 C1176 1.391 . S
C1177 C1181 1.376 . S
C1178 C1176 1.394 . S
C1178 C1179 1.369 . S
C1178 C1182 1.531 . S
C1179 C1178 1.369 . S
C1179 C1180 1.410 . S
C1179 C1187 1.503 . S
C1180 C1179 1.410 . S
C1180 C1181 1.392 . S
C1180 C1183 1.511 . S
C1181 C1177 1.376 . S
C1181 C1180 1.392 . S
C1181 H1193 0.929 . S
C1182 C1178 1.531 . S
C1182 H1194 0.960 . S
C1182 H1195 0.962 . S
C1182 H1196 0.960 . S
C1183 C1180 1.511 . S
C1183 H1197 0.961 . S
C1183 H1198 0.961 . S
C1183 H1199 0.961 . S
C1184 C1185 1.370 . S
C1184 C1186 1.363 . S
C1184 H1200 0.931 . S
C1185 C1184 1.370 . S
C1185 C1189 1.408 . S
C1186 C1184 1.363 . S
C1186 C1187 1.370 . S
C1186 C1190 1.524 . S
C1187 C1179 1.503 . S
C1187 C1186 1.370 . S
C1187 C1188 1.403 . S
C1188 C1187 1.403 . S
C1188 C1189 1.404 . S
C1188 C1191 1.539 . S
C1189 C1185 1.408 . S
C1189 C1188 1.404 . S
C1189 H1201 0.930 . S
C1190 C1186 1.524 . S
C1190 H1202 0.956 . S
C1190 H1203 0.961 . S
C1190 H1204 0.961 . S
C1191 C1188 1.539 . S
C1191 H1205 0.958 . S
C1191 H1206 0.961 . S
C1191 H1207 0.960 . S
H1192 C1176 0.931 . S
H1193 C1181 0.929 . S
H1194 C1182 0.960 . S
H1195 C1182 0.962 . S
H1196 C1182 0.960 . S
H1197 C1183 0.961 . S
H1198 C1183 0.961 . S
H1199 C1183 0.961 . S
H1200 C1184 0.931 . S
H1201 C1189 0.930 . S
H1202 C1190 0.956 . S
H1203 C1190 0.961 . S
H1204 C1190 0.961 . S
H1205 C1191 0.958 . S
H1206 C1191 0.961 . S
H1207 C1191 0.960 . S
C1208 C1209 1.391 . S
C1208 C1210 1.394 . S
C1208 H1224 0.931 . S
C1209 C1208 1.391 . S
C1209 C1213 1.376 . S
C1210 C1208 1.394 . S
C1210 C1211 1.369 . S
C1210 C1214 1.531 . S
C1211 C1210 1.369 . S
C1211 C1212 1.410 . S
C1211 C1219 1.503 . S
C1212 C1211 1.410 . S
C1212 C1213 1.392 . S
C1212 C1215 1.511 . S
C1213 C1209 1.376 . S
C1213 C1212 1.392 . S
C1213 H1225 0.929 . S
C1214 C1210 1.531 . S
C1214 H1226 0.960 . S
C1214 H1227 0.962 . S
C1214 H1228 0.960 . S
C1215 C1212 1.511 . S
C1215 H1229 0.961 . S
C1215 H1230 0.961 . S
C1215 H1231 0.961 . S
C1216 C1217 1.370 . S
C1216 C1218 1.363 . S
C1216 H1232 0.931 . S
C1217 C1216 1.370 . S
C1217 C1221 1.408 . S
C1218 C1216 1.363 . S
C1218 C1219 1.370 . S
C1218 C1222 1.524 . S
C1219 C1211 1.503 . S
C1219 C1218 1.370 . S
C1219 C1220 1.403 . S
C1220 C1219 1.403 . S
C1220 C1221 1.404 . S
C1220 C1223 1.539 . S
C1221 C1217 1.408 . S
C1221 C1220 1.404 . S
C1221 H1233 0.930 . S
C1222 C1218 1.524 . S
C1222 H1234 0.956 . S
C1222 H1235 0.961 . S
C1222 H1236 0.961 . S
C1223 C1220 1.539 . S
C1223 H1237 0.958 . S
C1223 H1238 0.961 . S
C1223 H1239 0.960 . S
H1224 C1208 0.931 . S
H1225 C1213 0.929 . S
H1226 C1214 0.960 . S
H1227 C1214 0.962 . S
H1228 C1214 0.960 . S
H1229 C1215 0.961 . S
H1230 C1215 0.961 . S
H1231 C1215 0.961 . S
H1232 C1216 0.931 . S
H1233 C1221 0.930 . S
H1234 C1222 0.956 . S
H1235 C1222 0.961 . S
H1236 C1222 0.961 . S
H1237 C1223 0.958 . S
H1238 C1223 0.961 . S
H1239 C1223 0.960 . S
C1240 C1241 1.391 . S
C1240 C1242 1.394 . S
C1240 H1256 0.931 . S
C1241 C1240 1.391 . S
C1241 C1245 1.376 . S
C1242 C1240 1.394 . S
C1242 C1243 1.369 . S
C1242 C1246 1.531 . S
C1243 C1242 1.369 . S
C1243 C1244 1.410 . S
C1243 C1251 1.503 . S
C1244 C1243 1.410 . S
C1244 C1245 1.392 . S
C1244 C1247 1.511 . S
C1245 C1241 1.376 . S
C1245 C1244 1.392 . S
C1245 H1257 0.929 . S
C1246 C1242 1.531 . S
C1246 H1258 0.960 . S
C1246 H1259 0.962 . S
C1246 H1260 0.960 . S
C1247 C1244 1.511 . S
C1247 H1261 0.961 . S
C1247 H1262 0.961 . S
C1247 H1263 0.961 . S
C1248 C1249 1.370 . S
C1248 C1250 1.363 . S
C1248 H1264 0.931 . S
C1249 C1248 1.370 . S
C1249 C1253 1.408 . S
C1250 C1248 1.363 . S
C1250 C1251 1.370 . S
C1250 C1254 1.524 . S
C1251 C1243 1.503 . S
C1251 C1250 1.370 . S
C1251 C1252 1.403 . S
C1252 C1251 1.403 . S
C1252 C1253 1.404 . S
C1252 C1255 1.539 . S
C1253 C1249 1.408 . S
C1253 C1252 1.404 . S
C1253 H1265 0.930 . S
C1254 C1250 1.524 . S
C1254 H1266 0.956 . S
C1254 H1267 0.961 . S
C1254 H1268 0.961 . S
C1255 C1252 1.539 . S
C1255 H1269 0.958 . S
C1255 H1270 0.961 . S
C1255 H1271 0.960 . S
H1256 C1240 0.931 . S
H1257 C1245 0.929 . S
H1258 C1246 0.960 . S
H1259 C1246 0.962 . S
H1260 C1246 0.960 . S
H1261 C1247 0.961 . S
H1262 C1247 0.961 . S
H1263 C1247 0.961 . S
H1264 C1248 0.931 . S
H1265 C1253 0.930 . S
H1266 C1254 0.956 . S
H1267 C1254 0.961 . S
H1268 C1254 0.961 . S
H1269 C1255 0.958 . S
H1270 C1255 0.961 . S
H1271 C1255 0.960 . S
C1272 C1273 1.391 . S
C1272 C1274 1.394 . S
C1272 H1288 0.931 . S
C1273 C1272 1.391 . S
C1273 C1277 1.376 . S
C1274 C1272 1.394 . S
C1274 C1275 1.369 . S
C1274 C1278 1.531 . S
C1275 C1274 1.369 . S
C1275 C1276 1.410 . S
C1275 C1283 1.503 . S
C1276 C1275 1.410 . S
C1276 C1277 1.392 . S
C1276 C1279 1.511 . S
C1277 C1273 1.376 . S
C1277 C1276 1.392 . S
C1277 H1289 0.929 . S
C1278 C1274 1.531 . S
C1278 H1290 0.960 . S
C1278 H1291 0.962 . S
C1278 H1292 0.960 . S
C1279 C1276 1.511 . S
C1279 H1293 0.961 . S
C1279 H1294 0.961 . S
C1279 H1295 0.961 . S
C1280 C1281 1.370 . S
C1280 C1282 1.363 . S
C1280 H1296 0.931 . S
C1281 C1280 1.370 . S
C1281 C1285 1.408 . S
C1282 C1280 1.363 . S
C1282 C1283 1.370 . S
C1282 C1286 1.524 . S
C1283 C1275 1.503 . S
C1283 C1282 1.370 . S
C1283 C1284 1.403 . S
C1284 C1283 1.403 . S
C1284 C1285 1.404 . S
C1284 C1287 1.539 . S
C1285 C1281 1.408 . S
C1285 C1284 1.404 . S
C1285 H1297 0.930 . S
C1286 C1282 1.524 . S
C1286 H1298 0.956 . S
C1286 H1299 0.961 . S
C1286 H1300 0.961 . S
C1287 C1284 1.539 . S
C1287 H1301 0.958 . S
C1287 H1302 0.961 . S
C1287 H1303 0.960 . S
H1288 C1272 0.931 . S
H1289 C1277 0.929 . S
H1290 C1278 0.960 . S
H1291 C1278 0.962 . S
H1292 C1278 0.960 . S
H1293 C1279 0.961 . S
H1294 C1279 0.961 . S
H1295 C1279 0.961 . S
H1296 C1280 0.931 . S
H1297 C1285 0.930 . S
H1298 C1286 0.956 . S
H1299 C1286 0.961 . S
H1300 C1286 0.961 . S
H1301 C1287 0.958 . S
H1302 C1287 0.961 . S
H1303 C1287 0.960 . S
C1304 C1305 1.391 . S
C1304 C1306 1.394 . S
C1304 H1320 0.931 . S
C1305 C1304 1.391 . S
C1305 C1309 1.376 . S
C1306 C1304 1.394 . S
C1306 C1307 1.369 . S
C1306 C1310 1.531 . S
C1307 C1306 1.369 . S
C1307 C1308 1.410 . S
C1307 C1315 1.503 . S
C1308 C1307 1.410 . S
C1308 C1309 1.392 . S
C1308 C1311 1.511 . S
C1309 C1305 1.376 . S
C1309 C1308 1.392 . S
C1309 H1321 0.929 . S
C1310 C1306 1.531 . S
C1310 H1322 0.960 . S
C1310 H1323 0.962 . S
C1310 H1324 0.960 . S
C1311 C1308 1.511 . S
C1311 H1325 0.961 . S
C1311 H1326 0.961 . S
C1311 H1327 0.961 . S
C1312 C1313 1.370 . S
C1312 C1314 1.363 . S
C1312 H1328 0.931 . S
C1313 C1312 1.370 . S
C1313 C1317 1.408 . S
C1314 C1312 1.363 . S
C1314 C1315 1.370 . S
C1314 C1318 1.524 . S
C1315 C1307 1.503 . S
C1315 C1314 1.370 . S
C1315 C1316 1.403 . S
C1316 C1315 1.403 . S
C1316 C1317 1.404 . S
C1316 C1319 1.539 . S
C1317 C1313 1.408 . S
C1317 C1316 1.404 . S
C1317 H1329 0.930 . S
C1318 C1314 1.524 . S
C1318 H1330 0.956 . S
C1318 H1331 0.961 . S
C1318 H1332 0.961 . S
C1319 C1316 1.539 . S
C1319 H1333 0.958 . S
C1319 H1334 0.961 . S
C1319 H1335 0.960 . S
H1320 C1304 0.931 . S
H1321 C1309 0.929 . S
H1322 C1310 0.960 . S
H1323 C1310 0.962 . S
H1324 C1310 0.960 . S
H1325 C1311 0.961 . S
H1326 C1311 0.961 . S
H1327 C1311 0.961 . S
H1328 C1312 0.931 . S
H1329 C1317 0.930 . S
H1330 C1318 0.956 . S
H1331 C1318 0.961 . S
H1332 C1318 0.961 . S
H1333 C1319 0.958 . S
H1334 C1319 0.961 . S
H1335 C1319 0.960 . S
C1336 C1337 1.391 . S
C1336 C1338 1.394 . S
C1336 H1352 0.931 . S
C1337 C1336 1.391 . S
C1337 C1341 1.376 . S
C1338 C1336 1.394 . S
C1338 C1339 1.369 . S
C1338 C1342 1.531 . S
C1339 C1338 1.369 . S
C1339 C1340 1.410 . S
C1339 C1347 1.503 . S
C1340 C1339 1.410 . S
C1340 C1341 1.392 . S
C1340 C1343 1.511 . S
C1341 C1337 1.376 . S
C1341 C1340 1.392 . S
C1341 H1353 0.929 . S
C1342 C1338 1.531 . S
C1342 H1354 0.960 . S
C1342 H1355 0.962 . S
C1342 H1356 0.960 . S
C1343 C1340 1.511 . S
C1343 H1357 0.961 . S
C1343 H1358 0.961 . S
C1343 H1359 0.961 . S
C1344 C1345 1.370 . S
C1344 C1346 1.363 . S
C1344 H1360 0.931 . S
C1345 C1344 1.370 . S
C1345 C1349 1.408 . S
C1346 C1344 1.363 . S
C1346 C1347 1.370 . S
C1346 C1350 1.524 . S
C1347 C1339 1.503 . S
C1347 C1346 1.370 . S
C1347 C1348 1.403 . S
C1348 C1347 1.403 . S
C1348 C1349 1.404 . S
C1348 C1351 1.539 . S
C1349 C1345 1.408 . S
C1349 C1348 1.404 . S
C1349 H1361 0.930 . S
C1350 C1346 1.524 . S
C1350 H1362 0.956 . S
C1350 H1363 0.961 . S
C1350 H1364 0.961 . S
C1351 C1348 1.539 . S
C1351 H1365 0.958 . S
C1351 H1366 0.961 . S
C1351 H1367 0.960 . S
H1352 C1336 0.931 . S
H1353 C1341 0.929 . S
H1354 C1342 0.960 . S
H1355 C1342 0.962 . S
H1356 C1342 0.960 . S
H1357 C1343 0.961 . S
H1358 C1343 0.961 . S
H1359 C1343 0.961 . S
H1360 C1344 0.931 . S
H1361 C1349 0.930 . S
H1362 C1350 0.956 . S
H1363 C1350 0.961 . S
H1364 C1350 0.961 . S
H1365 C1351 0.958 . S
H1366 C1351 0.961 . S
H1367 C1351 0.960 . S
C1368 C1369 1.391 . S
C1368 C1370 1.394 . S
C1368 H1384 0.931 . S
C1369 C1368 1.391 . S
C1369 C1373 1.376 . S
C1370 C1368 1.394 . S
C1370 C1371 1.369 . S
C1370 C1374 1.531 . S
C1371 C1370 1.369 . S
C1371 C1372 1.410 . S
C1371 C1379 1.503 . S
C1372 C1371 1.410 . S
C1372 C1373 1.392 . S
C1372 C1375 1.511 . S
C1373 C1369 1.376 . S
C1373 C1372 1.392 . S
C1373 H1385 0.929 . S
C1374 C1370 1.531 . S
C1374 H1386 0.960 . S
C1374 H1387 0.962 . S
C1374 H1388 0.960 . S
C1375 C1372 1.511 . S
C1375 H1389 0.961 . S
C1375 H1390 0.961 . S
C1375 H1391 0.961 . S
C1376 C1377 1.370 . S
C1376 C1378 1.363 . S
C1376 H1392 0.931 . S
C1377 C1376 1.370 . S
C1377 C1381 1.408 . S
C1378 C1376 1.363 . S
C1378 C1379 1.370 . S
C1378 C1382 1.524 . S
C1379 C1371 1.503 . S
C1379 C1378 1.370 . S
C1379 C1380 1.403 . S
C1380 C1379 1.403 . S
C1380 C1381 1.404 . S
C1380 C1383 1.539 . S
C1381 C1377 1.408 . S
C1381 C1380 1.404 . S
C1381 H1393 0.930 . S
C1382 C1378 1.524 . S
C1382 H1394 0.956 . S
C1382 H1395 0.961 . S
C1382 H1396 0.961 . S
C1383 C1380 1.539 . S
C1383 H1397 0.958 . S
C1383 H1398 0.961 . S
C1383 H1399 0.960 . S
H1384 C1368 0.931 . S
H1385 C1373 0.929 . S
H1386 C1374 0.960 . S
H1387 C1374 0.962 . S
H1388 C1374 0.960 . S
H1389 C1375 0.961 . S
H1390 C1375 0.961 . S
H1391 C1375 0.961 . S
H1392 C1376 0.931 . S
H1393 C1381 0.930 . S
H1394 C1382 0.956 . S
H1395 C1382 0.961 . S
H1396 C1382 0.961 . S
H1397 C1383 0.958 . S
H1398 C1383 0.961 . S
H1399 C1383 0.960 . S
C1400 C1401 1.391 . S
C1400 C1402 1.394 . S
C1400 H1416 0.931 . S
C1401 C1400 1.391 . S
C1401 C1405 1.376 . S
C1402 C1400 1.394 . S
C1402 C1403 1.369 . S
C1402 C1406 1.531 . S
C1403 C1402 1.369 . S
C1403 C1404 1.410 . S
C1403 C1411 1.503 . S
C1404 C1403 1.410 . S
C1404 C1405 1.392 . S
C1404 C1407 1.511 . S
C1405 C1401 1.376 . S
C1405 C1404 1.392 . S
C1405 H1417 0.929 . S
C1406 C1402 1.531 . S
C1406 H1418 0.960 . S
C1406 H1419 0.962 . S
C1406 H1420 0.960 . S
C1407 C1404 1.511 . S
C1407 H1421 0.961 . S
C1407 H1422 0.961 . S
C1407 H1423 0.961 . S
C1408 C1409 1.370 . S
C1408 C1410 1.363 . S
C1408 H1424 0.931 . S
C1409 C1408 1.370 . S
C1409 C1413 1.408 . S
C1410 C1408 1.363 . S
C1410 C1411 1.370 . S
C1410 C1414 1.524 . S
C1411 C1403 1.503 . S
C1411 C1410 1.370 . S
C1411 C1412 1.403 . S
C1412 C1411 1.403 . S
C1412 C1413 1.404 . S
C1412 C1415 1.539 . S
C1413 C1409 1.408 . S
C1413 C1412 1.404 . S
C1413 H1425 0.930 . S
C1414 C1410 1.524 . S
C1414 H1426 0.956 . S
C1414 H1427 0.961 . S
C1414 H1428 0.961 . S
C1415 C1412 1.539 . S
C1415 H1429 0.958 . S
C1415 H1430 0.961 . S
C1415 H1431 0.960 . S
H1416 C1400 0.931 . S
H1417 C1405 0.929 . S
H1418 C1406 0.960 . S
H1419 C1406 0.962 . S
H1420 C1406 0.960 . S
H1421 C1407 0.961 . S
H1422 C1407 0.961 . S
H1423 C1407 0.961 . S
H1424 C1408 0.931 . S
H1425 C1413 0.930 . S
H1426 C1414 0.956 . S
H1427 C1414 0.961 . S
H1428 C1414 0.961 . S
H1429 C1415 0.958 . S
H1430 C1415 0.961 . S
H1431 C1415 0.960 . S
C1432 C1433 1.391 . S
C1432 C1434 1.394 . S
C1432 H1448 0.931 . S
C1433 C1432 1.391 . S
C1433 C1437 1.376 . S
C1434 C1432 1.394 . S
C1434 C1435 1.369 . S
C1434 C1438 1.531 . S
C1435 C1434 1.369 . S
C1435 C1436 1.410 . S
C1435 C1443 1.503 . S
C1436 C1435 1.410 . S
C1436 C1437 1.392 . S
C1436 C1439 1.511 . S
C1437 C1433 1.376 . S
C1437 C1436 1.392 . S
C1437 H1449 0.929 . S
C1438 C1434 1.531 . S
C1438 H1450 0.960 . S
C1438 H1451 0.962 . S
C1438 H1452 0.960 . S
C1439 C1436 1.511 . S
C1439 H1453 0.961 . S
C1439 H1454 0.961 . S
C1439 H1455 0.961 . S
C1440 C1441 1.370 . S
C1440 C1442 1.363 . S
C1440 H1456 0.931 . S
C1441 C1440 1.370 . S
C1441 C1445 1.408 . S
C1442 C1440 1.363 . S
C1442 C1443 1.370 . S
C1442 C1446 1.524 . S
C1443 C1435 1.503 . S
C1443 C1442 1.370 . S
C1443 C1444 1.403 . S
C1444 C1443 1.403 . S
C1444 C1445 1.404 . S
C1444 C1447 1.539 . S
C1445 C1441 1.408 . S
C1445 C1444 1.404 . S
C1445 H1457 0.930 . S
C1446 C1442 1.524 . S
C1446 H1458 0.956 . S
C1446 H1459 0.961 . S
C1446 H1460 0.961 . S
C1447 C1444 1.539 . S
C1447 H1461 0.958 . S
C1447 H1462 0.961 . S
C1447 H1463 0.960 . S
H1448 C1432 0.931 . S
H1449 C1437 0.929 . S
H1450 C1438 0.960 . S
H1451 C1438 0.962 . S
H1452 C1438 0.960 . S
H1453 C1439 0.961 . S
H1454 C1439 0.961 . S
H1455 C1439 0.961 . S
H1456 C1440 0.931 . S
H1457 C1445 0.930 . S
H1458 C1446 0.956 . S
H1459 C1446 0.961 . S
H1460 C1446 0.961 . S
H1461 C1447 0.958 . S
H1462 C1447 0.961 . S
H1463 C1447 0.960 . S
C1464 C1465 1.391 . S
C1464 C1466 1.394 . S
C1464 H1480 0.931 . S
C1465 C1464 1.391 . S
C1465 C1469 1.376 . S
C1466 C1464 1.394 . S
C1466 C1467 1.369 . S
C1466 C1470 1.531 . S
C1467 C1466 1.369 . S
C1467 C1468 1.410 . S
C1467 C1475 1.503 . S
C1468 C1467 1.410 . S
C1468 C1469 1.392 . S
C1468 C1471 1.511 . S
C1469 C1465 1.376 . S
C1469 C1468 1.392 . S
C1469 H1481 0.929 . S
C1470 C1466 1.531 . S
C1470 H1482 0.960 . S
C1470 H1483 0.962 . S
C1470 H1484 0.960 . S
C1471 C1468 1.511 . S
C1471 H1485 0.961 . S
C1471 H1486 0.961 . S
C1471 H1487 0.961 . S
C1472 C1473 1.370 . S
C1472 C1474 1.363 . S
C1472 H1488 0.931 . S
C1473 C1472 1.370 . S
C1473 C1477 1.408 . S
C1474 C1472 1.363 . S
C1474 C1475 1.370 . S
C1474 C1478 1.524 . S
C1475 C1467 1.503 . S
C1475 C1474 1.370 . S
C1475 C1476 1.403 . S
C1476 C1475 1.403 . S
C1476 C1477 1.404 . S
C1476 C1479 1.539 . S
C1477 C1473 1.408 . S
C1477 C1476 1.404 . S
C1477 H1489 0.930 . S
C1478 C1474 1.524 . S
C1478 H1490 0.956 . S
C1478 H1491 0.961 . S
C1478 H1492 0.961 . S
C1479 C1476 1.539 . S
C1479 H1493 0.958 . S
C1479 H1494 0.961 . S
C1479 H1495 0.960 . S
H1480 C1464 0.931 . S
H1481 C1469 0.929 . S
H1482 C1470 0.960 . S
H1483 C1470 0.962 . S
H1484 C1470 0.960 . S
H1485 C1471 0.961 . S
H1486 C1471 0.961 . S
H1487 C1471 0.961 . S
H1488 C1472 0.931 . S
H1489 C1477 0.930 . S
H1490 C1478 0.956 . S
H1491 C1478 0.961 . S
H1492 C1478 0.961 . S
H1493 C1479 0.958 . S
H1494 C1479 0.961 . S
H1495 C1479 0.960 . S
C1496 C1497 1.391 . S
C1496 C1498 1.394 . S
C1496 H1512 0.931 . S
C1497 C1496 1.391 . S
C1497 C1501 1.376 . S
C1498 C1496 1.394 . S
C1498 C1499 1.369 . S
C1498 C1502 1.531 . S
C1499 C1498 1.369 . S
C1499 C1500 1.410 . S
C1499 C1507 1.503 . S
C1500 C1499 1.410 . S
C1500 C1501 1.392 . S
C1500 C1503 1.511 . S
C1501 C1497 1.376 . S
C1501 C1500 1.392 . S
C1501 H1513 0.929 . S
C1502 C1498 1.531 . S
C1502 H1514 0.960 . S
C1502 H1515 0.962 . S
C1502 H1516 0.960 . S
C1503 C1500 1.511 . S
C1503 H1517 0.961 . S
C1503 H1518 0.961 . S
C1503 H1519 0.961 . S
C1504 C1505 1.370 . S
C1504 C1506 1.363 . S
C1504 H1520 0.931 . S
C1505 C1504 1.370 . S
C1505 C1509 1.408 . S
C1506 C1504 1.363 . S
C1506 C1507 1.370 . S
C1506 C1510 1.524 . S
C1507 C1499 1.503 . S
C1507 C1506 1.370 . S
C1507 C1508 1.403 . S
C1508 C1507 1.403 . S
C1508 C1509 1.404 . S
C1508 C1511 1.539 . S
C1509 C1505 1.408 . S
C1509 C1508 1.404 . S
C1509 H1521 0.930 . S
C1510 C1506 1.524 . S
C1510 H1522 0.956 . S
C1510 H1523 0.961 . S
C1510 H1524 0.961 . S
C1511 C1508 1.539 . S
C1511 H1525 0.958 . S
C1511 H1526 0.961 . S
C1511 H1527 0.960 . S
H1512 C1496 0.931 . S
H1513 C1501 0.929 . S
H1514 C1502 0.960 . S
H1515 C1502 0.962 . S
H1516 C1502 0.960 . S
H1517 C1503 0.961 . S
H1518 C1503 0.961 . S
H1519 C1503 0.961 . S
H1520 C1504 0.931 . S
H1521 C1509 0.930 . S
H1522 C1510 0.956 . S
H1523 C1510 0.961 . S
H1524 C1510 0.961 . S
H1525 C1511 0.958 . S
H1526 C1511 0.961 . S
H1527 C1511 0.960 . S
C1528 C1529 1.391 . S
C1528 C1530 1.394 . S
C1528 H1544 0.931 . S
C1529 C1528 1.391 . S
C1529 C1533 1.376 . S
C1530 C1528 1.394 . S
C1530 C1531 1.369 . S
C1530 C1534 1.531 . S
C1531 C1530 1.369 . S
C1531 C1532 1.410 . S
C1531 C1539 1.503 . S
C1532 C1531 1.410 . S
C1532 C1533 1.392 . S
C1532 C1535 1.511 . S
C1533 C1529 1.376 . S
C1533 C1532 1.392 . S
C1533 H1545 0.929 . S
C1534 C1530 1.531 . S
C1534 H1546 0.960 . S
C1534 H1547 0.962 . S
C1534 H1548 0.960 . S
C1535 C1532 1.511 . S
C1535 H1549 0.961 . S
C1535 H1550 0.961 . S
C1535 H1551 0.961 . S
C1536 C1537 1.370 . S
C1536 C1538 1.363 . S
C1536 H1552 0.931 . S
C1537 C1536 1.370 . S
C1537 C1541 1.408 . S
C1538 C1536 1.363 . S
C1538 C1539 1.370 . S
C1538 C1542 1.524 . S
C1539 C1531 1.503 . S
C1539 C1538 1.370 . S
C1539 C1540 1.403 . S
C1540 C1539 1.403 . S
C1540 C1541 1.404 . S
C1540 C1543 1.539 . S
C1541 C1537 1.408 . S
C1541 C1540 1.404 . S
C1541 H1553 0.930 . S
C1542 C1538 1.524 . S
C1542 H1554 0.956 . S
C1542 H1555 0.961 . S
C1542 H1556 0.961 . S
C1543 C1540 1.539 . S
C1543 H1557 0.958 . S
C1543 H1558 0.961 . S
C1543 H1559 0.960 . S
H1544 C1528 0.931 . S
H1545 C1533 0.929 . S
H1546 C1534 0.960 . S
H1547 C1534 0.962 . S
H1548 C1534 0.960 . S
H1549 C1535 0.961 . S
H1550 C1535 0.961 . S
H1551 C1535 0.961 . S
H1552 C1536 0.931 . S
H1553 C1541 0.930 . S
H1554 C1542 0.956 . S
H1555 C1542 0.961 . S
H1556 C1542 0.961 . S
H1557 C1543 0.958 . S
H1558 C1543 0.961 . S
H1559 C1543 0.960 . S
C545 C141 1.510 . S
C537 C0 1.523 . S
C577 C194 1.354 . S
C569 C26 1.338 . S
C609 C257 1.598 . S
C601 C40 1.610 . S
C641 C300 1.287 . S
C633 C43 1.297 . S
C665 C57 1.585 . S
C673 C256 1.597 . S
C705 C293 1.378 . S
C697 C70 1.364 . S
C737 C134 1.515 . S
C729 C97 1.528 . S
C769 C187 1.265 . S
C761 C111 1.253 . S
C801 C240 1.488 . S
C793 C98 1.478 . S
C833 C309 1.833 . S
C825 C68 1.838 . S
C865 C150 1.589 . S
C857 C83 1.579 . S
C897 C203 1.753 . S
C889 C84 1.743 . S
C929 C151 1.567 . S
C921 C15 1.577 . S
C961 C204 1.844 . S
C953 C29 1.833 . S
C993 C247 1.503 . S
C985 C54 1.492 . S
C1025 C310 1.736 . S
C1017 C13 1.744 . S
C1057 C353 1.476 . S
C1049 C99 1.468 . S
C1081 C69 1.718 . S
C1089 C406 1.705 . S
C1113 C82 1.629 . S
C1121 C468 1.645 . S
C1145 C85 1.704 . S
C1153 C522 1.703 . S
C1177 C14 1.554 . S
C1185 C469 1.561 . S
C1209 C28 1.801 . S
C1217 C521 1.799 . S
C1241 C55 1.555 . S
C1249 C346 1.559 . S
C1281 C399 1.630 . S
C1273 C12 1.632 . S
C1313 C459 1.453 . S
C1305 C1 1.458 . S
C1337 C27 1.401 . S
C1345 C505 1.383 . S
C1369 C41 1.626 . S
C1377 C362 1.620 . S
C1401 C42 1.352 . S
C1409 C415 1.344 . S
C1441 C363 1.533 . S
C1433 C56 1.533 . S
C1473 C416 1.446 . S
C1465 C71 1.438 . S
C1497 C96 1.525 . S
C1505 C452 1.531 . S
C1537 C512 1.301 . S
C1529 C110 1.308 . S
