# Generated by pormake.
# Topology tsx, (6,3)-cn, num edge types: 1
# Building blocks:
#     Node 0, Type 0, BuildingBlock: FUNLAD_clean_sbu_0, # of connection points: 6
#     Node 1, Type 0, BuildingBlock: FUNLAD_clean_sbu_0, # of connection points: 6
#     Node 2, Type 1, BuildingBlock: WUSLED_clean_sbu_0, # of connection points: 3
#     Node 3, Type 1, BuildingBlock: WUSLED_clean_sbu_0, # of connection points: 3
#     Node 4, Type 1, BuildingBlock: WUSLED_clean_sbu_0, # of connection points: 3
#     Node 5, Type 1, BuildingBlock: WUSLED_clean_sbu_0, # of connection points: 3
#     Edge 6, Type (0, 1), BuildingBlock: FUNLAD_clean_linker_1, # of connection points: 2
#     Edge 7, Type (0, 1), BuildingBlock: FUNLAD_clean_linker_1, # of connection points: 2
#     Edge 8, Type (0, 1), BuildingBlock: FUNLAD_clean_linker_1, # of connection points: 2
#     Edge 9, Type (0, 1), BuildingBlock: FUNLAD_clean_linker_1, # of connection points: 2
#     Edge 10, Type (0, 1), BuildingBlock: FUNLAD_clean_linker_1, # of connection points: 2
#     Edge 11, Type (0, 1), BuildingBlock: FUNLAD_clean_linker_1, # of connection points: 2
#     Edge 12, Type (0, 1), BuildingBlock: FUNLAD_clean_linker_1, # of connection points: 2
#     Edge 13, Type (0, 1), BuildingBlock: FUNLAD_clean_linker_1, # of connection points: 2
#     Edge 14, Type (0, 1), BuildingBlock: FUNLAD_clean_linker_1, # of connection points: 2
#     Edge 15, Type (0, 1), BuildingBlock: FUNLAD_clean_linker_1, # of connection points: 2
#     Edge 16, Type (0, 1), BuildingBlock: FUNLAD_clean_linker_1, # of connection points: 2
#     Edge 17, Type (0, 1), BuildingBlock: FUNLAD_clean_linker_1, # of connection points: 2
# Relax obj value: 0.157
# Max RMSD: 0.152
# Mean RMSD: 0.087
data_MOF--net-tsx--node1-FUNLAD_clean_sbu_0--node2-WUSLED_clean_sbu_0--edge1-FUNLAD_clean_linker_1
_symmetry_space_group_name_H-M    P1
_symmetry_Int_Tables_number       1
_symmetry_cell_setting            triclinic
loop_
_symmetry_equiv_pos_as_xyz
'x, y, z'
_cell_length_a     25.285096
_cell_length_b     27.915822
_cell_length_c     53.650629
_cell_angle_alpha  91.555832
_cell_angle_beta   92.313779
_cell_angle_gamma 89.820994
loop_
_atom_site_label
_atom_site_type_symbol
_atom_site_fract_x
_atom_site_fract_y
_atom_site_fract_z
_atom_type_partial_charge
C0 C 0.95125 0.94571 1.00377 0.0
N1 N 0.02673 0.01493 0.06567 0.0
C2 C 0.98013 0.01531 0.07751 0.0
C3 C 0.97975 0.01481 0.10357 0.0
C4 C 0.02794 0.01364 0.11765 0.0
C5 C 0.07531 0.01347 0.10488 0.0
C6 C 0.07385 0.01398 0.07882 0.0
Zn7 Zn 0.02623 0.01634 0.02738 0.0
C8 C 0.10518 0.94769 1.00581 0.0
N9 N 0.02663 0.01912 0.94746 0.0
C10 C 0.97886 0.01739 0.93488 0.0
C11 C 0.07244 0.02049 0.93503 0.0
C12 C 0.07129 0.01964 0.9089 0.0
C13 C 0.02232 0.01732 0.8954 0.0
C14 C 0.97587 0.01645 0.90884 0.0
Zn15 Zn 0.02787 0.01812 0.98574 0.0
O16 O 0.96788 0.96243 0.0249 0.0
C17 C 0.94914 0.08702 1.00614 0.0
O18 O 0.96945 0.9623 0.98401 0.0
H19 H 0.11003 0.02185 0.94539 0.0
H20 H 0.94308 0.01634 0.06673 0.0
H21 H 0.94285 0.01635 0.94506 0.0
O22 O 0.96574 0.07101 0.02705 0.0
O23 O 0.96818 0.07053 0.98614 0.0
H24 H 0.11049 0.01383 0.06908 0.0
O25 O 0.08636 0.07375 0.98854 0.0
O26 O 0.08457 0.07035 0.0294 0.0
O27 O 0.08768 0.96588 0.98569 0.0
O28 O 0.08677 0.96175 0.02653 0.0
C29 C 0.10283 0.08862 0.01012 0.0
H30 H 0.94202 0.01627 0.11234 0.0
H31 H 0.11327 0.01293 0.11498 0.0
H32 H 0.10851 0.02042 0.89975 0.0
H33 H 0.93732 0.01473 0.89928 0.0
C34 C 0.44765 0.45419 0.50833 0.0
N35 N 0.51612 0.5324 0.56904 0.0
C36 C 0.46759 0.53311 0.57912 0.0
C37 C 0.46301 0.53557 0.60498 0.0
C38 C 0.50867 0.53689 0.62074 0.0
C39 C 0.55838 0.53656 0.60982 0.0
C40 C 0.56113 0.53421 0.58382 0.0
Zn41 Zn 0.52076 0.52799 0.53093 0.0
C42 C 0.60131 0.45539 0.51488 0.0
N43 N 0.53005 0.51763 0.45137 0.0
C44 C 0.48335 0.51602 0.43787 0.0
C45 C 0.57711 0.51596 0.43991 0.0
C46 C 0.57832 0.5126 0.41385 0.0
C47 C 0.53046 0.51105 0.39946 0.0
C48 C 0.48272 0.51258 0.41189 0.0
Zn49 Zn 0.52698 0.52228 0.48951 0.0
O50 O 0.46363 0.47264 0.52919 0.0
C51 C 0.44587 0.59421 0.50494 0.0
O52 O 0.4668 0.46868 0.48835 0.0
H53 H 0.6138 0.517 0.45101 0.0
H54 H 0.43225 0.53167 0.56707 0.0
H55 H 0.44633 0.51733 0.44727 0.0
O56 O 0.45921 0.58057 0.52674 0.0
O57 O 0.46864 0.5762 0.48623 0.0
H58 H 0.59933 0.53394 0.57544 0.0
O59 O 0.58721 0.57607 0.49153 0.0
O60 O 0.57812 0.58325 0.53206 0.0
O61 O 0.58504 0.46813 0.49332 0.0
O62 O 0.58217 0.47523 0.53416 0.0
C63 C 0.60026 0.59608 0.51248 0.0
H64 H 0.42398 0.53607 0.61261 0.0
H65 H 0.59487 0.53886 0.621 0.0
H66 H 0.61631 0.51054 0.40535 0.0
H67 H 0.445 0.51129 0.40156 0.0
C68 C 0.92034 0.08368 0.47921 0.0
C69 C 0.93842 0.13025 0.4854 0.0
C70 C 0.84775 0.15856 0.48945 0.0
C71 C 0.90264 0.16734 0.49031 0.0
C72 C 0.82987 0.11169 0.48402 0.0
C73 C 0.86564 0.07462 0.47911 0.0
U74 U 0.98937 1.01035 0.42923 0.0
O75 O 0.0726 0.9881 0.42634 0.0
O76 O 1.00972 0.93387 0.4262 0.0
C77 C 0.06093 0.94228 0.42673 0.0
C78 C 0.95836 0.04545 0.47212 0.0
C79 C 0.09455 0.91302 0.44353 0.0
C80 C 0.10742 0.86184 0.4793 0.0
C81 C 0.07506 0.89219 0.46488 0.0
C82 C 0.17941 0.87429 0.45178 0.0
C83 C 0.15953 0.85166 0.47259 0.0
C84 C 0.1471 0.90435 0.43737 0.0
C85 C 0.95271 0.03939 0.36098 0.0
C86 C 0.99704 1.0056 0.3251 0.0
C87 C 0.92121 0.05783 0.319 0.0
C88 C 0.91696 0.06276 0.34482 0.0
C89 C 0.96143 0.02958 0.30874 0.0
C90 C 0.99266 1.01057 0.35102 0.0
C91 C 0.9478 0.04619 0.38807 0.0
O92 O 0.93802 1.00646 0.46128 0.0
O93 O 1.00127 0.05998 0.46152 0.0
O94 O 0.9893 0.06466 0.4003 0.0
O95 O 0.92653 1.0105 0.39958 0.0
H96 H 0.98032 0.13839 0.48586 0.0
H97 H 0.91836 0.20293 0.49392 0.0
H98 H 0.78789 0.10378 0.48324 0.0
H99 H 0.85021 0.0391 0.47476 0.0
H100 H 0.09131 0.84532 0.49537 0.0
H101 H 0.03473 0.89868 0.47019 0.0
H102 H 0.2199 0.86901 0.4465 0.0
H103 H 0.16308 0.92048 0.42114 0.0
H104 H 0.02807 0.98277 0.31819 0.0
H105 H 0.89306 0.07657 0.30699 0.0
H106 H 0.8858 0.08509 0.35219 0.0
H107 H 0.02047 0.99204 0.36329 0.0
C108 C 0.96742 0.92854 0.5286 0.0
C109 C 0.98644 0.88169 0.52452 0.0
C110 C 0.89738 0.85324 0.51351 0.0
C111 C 0.95186 0.8446 0.51698 0.0
C112 C 0.87854 0.9005 0.51652 0.0
C113 C 0.91323 0.93772 0.5239 0.0
U114 U 0.03668 1.00053 0.58194 0.0
O115 O 0.11913 0.02481 0.58719 0.0
O116 O 0.05435 0.07743 0.5867 0.0
C117 C 0.10587 0.07041 0.58747 0.0
C118 C 1.0039 0.96741 0.53772 0.0
C119 C 0.13856 0.10277 0.57299 0.0
C120 C 0.22629 0.12842 0.56195 0.0
C121 C 0.19329 0.09458 0.57203 0.0
C122 C 0.15047 0.17902 0.55283 0.0
C123 C 0.20558 0.17138 0.55261 0.0
C124 C 0.11738 0.14507 0.56294 0.0
C125 C 0.01148 0.97043 0.64904 0.0
C126 C 0.06469 1.00542 0.68357 0.0
C127 C 0.98832 0.95698 0.69179 0.0
C128 C 0.97841 0.94984 0.66611 0.0
C129 C 0.03155 0.9851 0.70082 0.0
C130 C 0.05459 0.99844 0.6579 0.0
C131 C 1.00112 0.96209 0.6221 0.0
O132 O 0.98218 1.0046 0.54897 0.0
O133 O 0.0483 0.95363 0.54902 0.0
O134 O 0.04111 0.94441 0.6099 0.0
O135 O 0.97662 0.99709 0.61045 0.0
H136 H 0.02804 0.87342 0.5275 0.0
H137 H 0.96763 0.80873 0.51444 0.0
H138 H 0.83717 0.90903 0.51308 0.0
H139 H 0.89744 0.97362 0.52616 0.0
H140 H 0.26853 0.1216 0.56218 0.0
H141 H 0.21101 0.06277 0.57998 0.0
H142 H 0.13276 0.21195 0.54637 0.0
H143 H 0.07551 0.15295 0.56374 0.0
H144 H 0.09843 0.02692 0.68996 0.0
H145 H 0.96271 0.93952 0.70441 0.0
H146 H 0.94516 0.92786 0.65957 0.0
H147 H 0.08058 0.01463 0.64496 0.0
C148 C 0.44851 0.59696 0.98586 0.0
C149 C 0.43877 0.63711 0.97115 0.0
C150 C 0.37354 0.6667 1.00018 0.0
C151 C 0.40163 0.67168 0.97821 0.0
C152 C 0.38317 0.62611 0.01463 0.0
C153 C 0.42034 0.59164 0.00756 0.0
U154 U 0.52446 0.52883 0.93607 0.0
O155 O 0.60665 0.50295 0.93616 0.0
O156 O 0.54109 0.45153 0.93191 0.0
C157 C 0.59251 0.4576 0.93499 0.0
C158 C 0.4865 0.55963 0.97844 0.0
C159 C 0.62059 0.42487 0.95231 0.0
C160 C 0.68391 0.40999 0.98667 0.0
C161 C 0.65369 0.44197 0.97227 0.0
C162 C 0.64678 0.34333 0.96213 0.0
C163 C 0.68196 0.36041 0.98137 0.0
C164 C 0.61682 0.37527 0.94769 0.0
C165 C 0.50299 0.56206 0.8677 0.0
C166 C 0.55012 0.52291 0.83419 0.0
C167 C 0.48371 0.58316 0.82465 0.0
C168 C 0.47461 0.58915 0.85008 0.0
C169 C 0.52131 0.54957 0.81636 0.0
C170 C 0.54088 0.5289 0.85965 0.0
C171 C 0.4925 0.56882 0.89431 0.0
O172 O 0.46602 0.52356 0.96515 0.0
O173 O 0.53134 0.57493 0.96996 0.0
O174 O 0.53237 0.58512 0.90854 0.0
O175 O 0.46708 0.53362 0.9043 0.0
H176 H 0.45945 0.64144 0.95406 0.0
H177 H 0.39433 0.70145 0.96605 0.0
H178 H 0.36176 0.62093 0.03143 0.0
H179 H 0.42672 0.56054 0.01892 0.0
H180 H 0.71009 0.42421 1.00155 0.0
H181 H 0.65723 0.48003 0.97643 0.0
H182 H 0.64229 0.30543 0.95795 0.0
H183 H 0.59131 0.36117 0.93253 0.0
H184 H 0.57962 0.49714 0.8284 0.0
H185 H 0.46185 0.60556 0.81171 0.0
H186 H 0.44549 0.61518 0.85602 0.0
H187 H 0.56326 0.50773 0.87304 0.0
C188 C 0.45504 0.4355 0.03526 0.0
C189 C 0.43582 0.40417 0.05276 0.0
C190 C 0.38273 0.36239 0.01999 0.0
C191 C 0.4002 0.36778 0.04522 0.0
C192 C 0.40278 0.39367 1.00257 0.0
C193 C 0.43852 0.42989 0.01014 0.0
U194 U 0.53209 0.50501 0.08648 0.0
O195 O 0.6129 0.53416 0.08824 0.0
O196 O 0.54492 0.58256 0.09222 0.0
C197 C 0.59646 0.5788 0.09027 0.0
C198 C 0.49183 0.4743 0.0431 0.0
C199 C 0.62225 0.61489 0.07504 0.0
C200 C 0.63597 0.69904 0.06648 0.0
C201 C 0.60715 0.66318 0.07748 0.0
C202 C 0.6949 0.63906 0.04961 0.0
C203 C 0.68076 0.68768 0.05282 0.0
C204 C 0.66593 0.60311 0.06062 0.0
C205 C 0.52005 0.46936 0.15397 0.0
C206 C 0.57128 0.50909 0.18774 0.0
C207 C 0.50527 0.45012 0.19699 0.0
C208 C 0.49333 0.44326 0.17147 0.0
C209 C 0.54409 0.48355 0.20544 0.0
C210 C 0.55917 0.5023 0.16221 0.0
C211 C 0.50653 0.46218 0.12724 0.0
O212 O 0.47098 0.50936 0.0563 0.0
O213 O 0.53824 0.46039 0.05224 0.0
O214 O 0.54564 0.44784 0.11343 0.0
O215 O 0.47788 0.4964 0.11709 0.0
H216 H 0.44848 0.40782 0.07226 0.0
H217 H 0.38726 0.3439 0.05926 0.0
H218 H 0.39054 0.39027 0.98301 0.0
H219 H 0.45321 0.45356 0.99638 0.0
H220 H 0.62415 0.73605 0.06939 0.0
H221 H 0.57415 0.67349 0.08874 0.0
H222 H 0.72953 0.62844 0.03966 0.0
H223 H 0.67911 0.56631 0.0586 0.0
H224 H 0.60161 0.53475 0.19369 0.0
H225 H 0.48456 0.4286 0.20992 0.0
H226 H 0.46326 0.41745 0.16538 0.0
H227 H 0.58024 0.52276 0.14891 0.0
H228 H 0.15279 0.13901 0.03262 0.0
C229 C 0.1418 0.12769 0.01355 0.0
H230 H 0.15413 0.13914 0.97539 0.0
H231 H 0.22895 0.34266 0.03492 0.0
H232 H 0.13481 0.35582 0.03909 0.0
H233 H 0.07006 0.29398 0.0249 0.0
H234 H 0.09907 0.21855 1.00648 0.0
C235 C 0.16314 0.15038 0.99464 0.0
C236 C 0.20143 0.19025 0.99998 0.0
C237 C 0.18383 0.23451 0.01032 0.0
C238 C 0.22119 0.27032 0.0183 0.0
C239 C 0.2024 0.31405 0.0287 0.0
C240 C 0.14843 0.32217 0.03112 0.0
C241 C 0.11197 0.28735 0.02314 0.0
C242 C 0.1292 0.24406 0.01276 0.0
H243 H 0.34022 0.31768 0.99085 0.0
C244 C 0.34476 0.32431 0.0109 0.0
H245 H 0.31524 0.30603 0.04579 0.0
H246 H 0.24763 0.11147 0.97868 0.0
H247 H 0.3417 0.09824 0.97405 0.0
H248 H 0.40685 0.15917 0.98895 0.0
H249 H 0.37851 0.23374 0.00836 0.0
C250 C 0.31494 0.29853 0.02586 0.0
C251 C 0.27611 0.26214 0.01566 0.0
C252 C 0.29357 0.2185 1.00446 0.0
C253 C 0.25607 0.18283 0.99632 0.0
C254 C 0.27447 0.13958 0.98529 0.0
C255 C 0.32833 0.13151 0.98254 0.0
C256 C 0.365 0.16586 0.99089 0.0
C257 C 0.34811 0.20875 1.00185 0.0
H258 H 0.15944 0.90025 0.98581 0.0
C259 C 0.14576 0.9098 1.00426 0.0
H260 H 0.15352 0.89544 0.04275 0.0
H261 H 0.24623 0.70589 0.97772 0.0
H262 H 0.15434 0.69184 0.9653 0.0
H263 H 0.08445 0.74741 0.97888 0.0
H264 H 0.10636 0.81798 1.00458 0.0
C265 C 0.16532 0.88594 0.024 0.0
C266 C 0.20555 0.84738 0.0204 0.0
C267 C 0.19186 0.80491 1.00652 0.0
C268 C 0.2319 0.77164 0.99972 0.0
C269 C 0.21738 0.73137 0.98433 0.0
C270 C 0.16471 0.72299 0.97691 0.0
C271 C 0.12539 0.75436 0.98448 0.0
C272 C 0.13856 0.7949 0.99908 0.0
H273 H 0.30389 0.68985 0.0213 0.0
C274 C 0.33222 0.70156 0.00802 0.0
H275 H 0.35772 0.76103 0.98798 0.0
H276 H 0.24434 0.92274 0.04913 0.0
H277 H 0.33553 0.93455 0.06384 0.0
H278 H 0.40451 0.87543 0.05345 0.0
H279 H 0.38284 0.80425 0.02815 0.0
C280 C 0.32812 0.7466 0.99977 0.0
C281 C 0.28533 0.77974 0.00788 0.0
C282 C 0.29845 0.82081 0.023 0.0
C283 C 0.25854 0.85465 0.02925 0.0
C284 C 0.27302 0.89578 0.04396 0.0
C285 C 0.32521 0.90299 0.05253 0.0
C286 C 0.36405 0.86971 0.04667 0.0
C287 C 0.35109 0.82906 0.03208 0.0
H288 H 0.90092 0.89107 0.98381 0.0
C289 C 0.91236 0.90619 1.00211 0.0
H290 H 0.90509 0.90165 0.04102 0.0
H291 H 0.69239 0.77877 1.00186 0.0
H292 H 0.65997 0.8528 0.984 0.0
H293 H 0.71704 0.92431 0.98385 0.0
H294 H 0.80706 0.92204 1.00113 0.0
C295 C 0.89238 0.88775 0.02263 0.0
C296 C 0.85774 0.84458 0.02157 0.0
C297 C 0.80473 0.847 0.01193 0.0
C298 C 0.77105 0.80633 0.01294 0.0
C299 C 0.71896 0.80911 1.00237 0.0
C300 C 0.69998 0.85128 0.99193 0.0
C301 C 0.73217 0.89149 0.99177 0.0
C302 C 0.78391 0.88963 1.00167 0.0
H303 H 0.70666 0.76324 0.05261 0.0
C304 C 0.71387 0.72784 0.04442 0.0
H305 H 0.76234 0.68881 0.01964 0.0
H306 H 0.95835 0.82659 0.03976 0.0
H307 H 0.99033 0.75287 0.05796 0.0
H308 H 0.93101 0.68353 0.06122 0.0
H309 H 0.8395 0.68733 0.04613 0.0
C310 C 0.75328 0.72317 0.02836 0.0
C311 C 0.78979 0.76396 0.0244 0.0
C312 C 0.84327 0.76109 0.03329 0.0
C313 C 0.87726 0.80135 0.0318 0.0
C314 C 0.93055 0.79738 0.04077 0.0
C315 C 0.9495 0.75521 0.0512 0.0
C316 C 0.91613 0.71616 0.053 0.0
C317 C 0.86363 0.71885 0.04422 0.0
H318 H 0.8985 0.13734 0.98548 0.0
C319 C 0.90926 0.1255 1.00417 0.0
H320 H 0.89536 0.13562 0.04263 0.0
H321 H 0.81878 0.33268 0.98149 0.0
H322 H 0.91283 0.34885 0.98077 0.0
H323 H 0.97814 0.29192 0.99841 0.0
H324 H 0.94962 0.21807 0.01665 0.0
C325 C 0.88677 0.14722 0.02372 0.0
C326 C 0.84784 0.18662 0.01919 0.0
C327 C 0.86489 0.23065 0.00969 0.0
C328 C 0.82712 0.26412 1.00019 0.0
C329 C 0.84554 0.30647 0.98949 0.0
C330 C 0.8995 0.31616 0.9889 0.0
C331 C 0.93629 0.28407 0.99879 0.0
C332 C 0.91942 0.24174 0.00906 0.0
H333 H 0.7361 0.34159 0.01331 0.0
C334 C 0.71802 0.32797 0.99581 0.0
H335 H 0.71698 0.26976 0.96955 0.0
H336 H 0.80219 0.10906 0.03955 0.0
H337 H 0.70792 0.09465 0.04252 0.0
H338 H 0.64227 0.15327 0.0268 0.0
H339 H 0.67041 0.22668 0.00794 0.0
C340 C 0.7328 0.28435 0.98722 0.0
C341 C 0.77224 0.25404 1.00092 0.0
C342 C 0.75526 0.21186 0.01234 0.0
C343 C 0.79311 0.17816 0.02155 0.0
C344 C 0.77502 0.1358 0.03231 0.0
C345 C 0.72109 0.12715 0.03415 0.0
C346 C 0.68412 0.16016 0.02529 0.0
C347 C 0.70076 0.20205 0.01445 0.0
H348 H 0.64691 0.65223 0.53273 0.0
C349 C 0.64042 0.6344 0.5146 0.0
H350 H 0.66238 0.63108 0.47703 0.0
H351 H 0.74999 0.84337 0.47772 0.0
H352 H 0.67594 0.84718 0.44764 0.0
H353 H 0.61549 0.77851 0.44064 0.0
H354 H 0.62886 0.70549 0.46352 0.0
C355 C 0.66916 0.64773 0.49542 0.0
C356 C 0.70805 0.68788 0.49847 0.0
C357 C 0.69959 0.7304 0.48496 0.0
C358 C 0.734 0.77032 0.48927 0.0
C359 C 0.72472 0.81221 0.47541 0.0
C360 C 0.68242 0.81487 0.45805 0.0
C361 C 0.64842 0.77618 0.45409 0.0
C362 C 0.65663 0.73441 0.46735 0.0
H363 H 0.87908 0.77999 0.49869 0.0
C364 C 0.8617 0.81209 0.50693 0.0
H365 H 0.79166 0.84193 0.52128 0.0
H366 H 0.74193 0.60895 0.52392 0.0
H367 H 0.81449 0.60571 0.55478 0.0
H368 H 0.86906 0.67716 0.5651 0.0
H369 H 0.85226 0.75181 0.54422 0.0
C370 C 0.81033 0.81102 0.51262 0.0
C371 C 0.77667 0.76787 0.50717 0.0
C372 C 0.78571 0.72505 0.5204 0.0
C373 C 0.75233 0.6846 0.51549 0.0
C374 C 0.76431 0.64143 0.52782 0.0
C375 C 0.80615 0.63894 0.54543 0.0
C376 C 0.83701 0.6791 0.55116 0.0
C377 C 0.8271 0.72172 0.53888 0.0
H378 H 0.6592 0.41129 0.53617 0.0
C379 C 0.6418 0.41744 0.51767 0.0
H380 H 0.63972 0.39634 0.47959 0.0
H381 H 0.86191 0.29897 0.47441 0.0
H382 H 0.87362 0.36942 0.44981 0.0
H383 H 0.80601 0.43328 0.4485 0.0
H384 H 0.7261 0.42693 0.47163 0.0
C385 C 0.65646 0.38986 0.49817 0.0
C386 C 0.6984 0.35236 0.50058 0.0
C387 C 0.74547 0.35703 0.48733 0.0
C388 C 0.78493 0.32059 0.48844 0.0
C389 C 0.83094 0.3258 0.47453 0.0
C390 C 0.83817 0.36605 0.46028 0.0
C391 C 0.80008 0.40197 0.45952 0.0
C392 C 0.75427 0.39775 0.47285 0.0
H393 H 0.76758 0.1902 0.48543 0.0
C394 C 0.8078 0.19745 0.49247 0.0
H395 H 0.85763 0.24979 0.51054 0.0
H396 H 0.61053 0.32895 0.52613 0.0
H397 H 0.60075 0.26035 0.55221 0.0
H398 H 0.6726 0.20094 0.55706 0.0
H399 H 0.7542 0.20928 0.53533 0.0
C400 C 0.81831 0.24084 0.5031 0.0
C401 C 0.77758 0.27965 0.50298 0.0
C402 C 0.73121 0.27557 0.51682 0.0
C403 C 0.69094 0.31128 0.51509 0.0
C404 C 0.6435 0.30434 0.52768 0.0
C405 C 0.63715 0.26484 0.54258 0.0
C406 C 0.67751 0.23129 0.54523 0.0
C407 C 0.72403 0.23637 0.53253 0.0
H408 H 0.39028 0.40497 0.48892 0.0
C409 C 0.40708 0.4162 0.50711 0.0
H410 H 0.40715 0.40671 0.54598 0.0
H411 H 0.18403 0.31613 0.55492 0.0
H412 H 0.17189 0.39429 0.57462 0.0
H413 H 0.23972 0.45713 0.57227 0.0
H414 H 0.32034 0.44203 0.55038 0.0
C415 C 0.39122 0.39496 0.52772 0.0
C416 C 0.34866 0.35803 0.52685 0.0
C417 C 0.30111 0.36778 0.53922 0.0
C418 C 0.26152 0.33184 0.54017 0.0
C419 C 0.21514 0.34222 0.5533 0.0
C420 C 0.20764 0.38698 0.56473 0.0
C421 C 0.24586 0.42234 0.56344 0.0
C422 C 0.29207 0.41309 0.55087 0.0
H423 H 0.28452 0.20476 0.55153 0.0
C424 C 0.24336 0.20868 0.54515 0.0
H425 H 0.18962 0.25306 0.52496 0.0
H426 H 0.43674 0.32548 0.50314 0.0
H427 H 0.4463 0.24915 0.48126 0.0
H428 H 0.37404 0.18983 0.47962 0.0
H429 H 0.29222 0.2062 0.50045 0.0
C430 C 0.22999 0.2474 0.53184 0.0
C431 C 0.26924 0.28629 0.52851 0.0
C432 C 0.31558 0.27733 0.51506 0.0
C433 C 0.35603 0.31268 0.51482 0.0
C434 C 0.4036 0.30111 0.50292 0.0
C435 C 0.40982 0.25717 0.49043 0.0
C436 C 0.36924 0.22369 0.4896 0.0
C437 C 0.32263 0.23342 0.50176 0.0
H438 H 0.39537 0.63997 0.48133 0.0
C439 C 0.40375 0.62997 0.50055 0.0
H440 H 0.38307 0.64136 0.53808 0.0
H441 H 0.28758 0.84624 0.50877 0.0
H442 H 0.3599 0.86902 0.53775 0.0
H443 H 0.42013 0.80795 0.5555 0.0
H444 H 0.40849 0.72365 0.54432 0.0
C445 C 0.37483 0.64968 0.51864 0.0
C446 C 0.33251 0.68512 0.51214 0.0
C447 C 0.33888 0.73399 0.51945 0.0
C448 C 0.30391 0.76921 0.50931 0.0
C449 C 0.31258 0.81799 0.51609 0.0
C450 C 0.35401 0.83156 0.53268 0.0
C451 C 0.38795 0.79717 0.54267 0.0
C452 C 0.38083 0.74892 0.5361 0.0
H453 H 0.18156 0.81093 0.50655 0.0
C454 C 0.19212 0.81731 0.48747 0.0
H455 H 0.2406 0.79439 0.45819 0.0
H456 H 0.30189 0.59364 0.49903 0.0
H457 H 0.22739 0.57041 0.47138 0.0
H458 H 0.16813 0.63153 0.45294 0.0
H459 H 0.18272 0.71622 0.46224 0.0
C460 C 0.23203 0.79186 0.47776 0.0
C461 C 0.2624 0.75527 0.49209 0.0
C462 C 0.25348 0.70604 0.48642 0.0
C463 C 0.28816 0.67088 0.49668 0.0
C464 C 0.27764 0.62187 0.49112 0.0
C465 C 0.23481 0.60805 0.47544 0.0
C466 C 0.20141 0.64246 0.46508 0.0
C467 C 0.21036 0.69093 0.47048 0.0
H468 H 0.06864 0.02313 0.15481 0.0
C469 C 0.03078 0.01434 0.14547 0.0
H470 H 0.95232 0.99196 0.15131 0.0
H471 H 0.99516 0.91733 0.2598 0.0
H472 H 0.98359 0.84236 0.23627 0.0
H473 H 0.97791 0.84096 0.19025 0.0
H474 H 0.98351 0.91451 0.16744 0.0
C475 C 0.9898 1.00415 0.15969 0.0
C476 C 0.99549 1.00521 0.18749 0.0
C477 C 0.99258 0.96186 0.20056 0.0
C478 C 0.99645 0.96259 0.22712 0.0
C479 C 0.99284 0.9188 0.23965 0.0
C480 C 0.98617 0.87551 0.22638 0.0
C481 C 0.98293 0.87473 0.20046 0.0
C482 C 0.98609 0.91725 0.18761 0.0
H483 H 0.93119 0.04179 0.27015 0.0
C484 C 0.96399 0.02638 0.28101 0.0
H485 H 0.03822 0.99118 0.27802 0.0
H486 H 0.99865 0.09543 0.16855 0.0
H487 H 0.01394 0.16979 0.19202 0.0
H488 H 0.02649 0.17032 0.23787 0.0
H489 H 0.02289 0.0965 0.26053 0.0
C490 C 1.00445 1.00741 0.26844 0.0
C491 C 1.0032 1.00666 0.2406 0.0
C492 C 1.00755 0.04991 0.22753 0.0
C493 C 1.00261 0.04933 0.20099 0.0
C494 C 1.00414 0.09342 0.18858 0.0
C495 C 0.01257 0.13648 0.20185 0.0
C496 C 0.01945 0.1368 0.22766 0.0
C497 C 0.01699 0.09417 0.24045 0.0
H498 H 0.97732 1.01173 0.85923 0.0
C499 C 0.01712 0.01497 0.8676 0.0
H500 H 0.09841 0.01781 0.85913 0.0
H501 H 0.05941 0.91019 0.75448 0.0
H502 H 0.10828 0.85016 0.7778 0.0
H503 H 0.1303 0.86275 0.8227 0.0
H504 H 0.10346 0.93542 0.84458 0.0
C505 C 0.05769 0.016 0.85211 0.0
C506 C 0.04803 1.01054 0.82456 0.0
C507 C 0.06498 0.96828 0.81193 0.0
C508 C 0.05264 0.96118 0.78597 0.0
C509 C 0.06849 0.91788 0.77405 0.0
C510 C 0.09638 0.88299 0.78724 0.0
C511 C 0.10875 0.89006 0.81252 0.0
C512 C 0.09317 0.93201 0.82485 0.0
H513 H 0.08484 1.00248 0.73363 0.0
C514 C 0.0445 0.99244 0.72797 0.0
H515 H 0.96733 0.98213 0.74083 0.0
H516 H 0.01607 0.09851 0.84224 0.0
H517 H 0.96798 0.15891 0.8188 0.0
H518 H 0.94466 0.1457 0.77405 0.0
H519 H 0.96969 0.07209 0.75242 0.0
C520 C 1.0088 0.98856 0.74573 0.0
C521 C 0.02388 0.99662 0.77263 0.0
C522 C 1.00809 0.03939 0.78512 0.0
C523 C 0.0207 0.04663 0.81103 0.0
C524 C 1.00614 0.09049 0.82278 0.0
C525 C 0.97886 0.12564 0.8095 0.0
C526 C 0.96579 0.11823 0.78429 0.0
C527 C 0.98028 0.07576 0.77213 0.0
H528 H 0.46405 0.55091 0.65484 0.0
C529 C 0.50246 0.53989 0.64822 0.0
H530 H 0.5794 0.51661 0.65967 0.0
H531 H 0.56851 0.62036 0.76611 0.0
H532 H 0.6324 0.66995 0.74644 0.0
H533 H 0.65123 0.65747 0.70197 0.0
H534 H 0.60601 0.59545 0.67687 0.0
C535 C 0.54059 0.52827 0.66526 0.0
C536 C 0.53164 0.53317 0.69252 0.0
C537 C 0.55933 0.56882 0.7071 0.0
C538 C 0.54896 0.5756 0.73284 0.0
C539 C 0.57566 0.61282 0.74666 0.0
C540 C 0.61227 0.64178 0.73556 0.0
C541 C 0.62283 0.63479 0.71052 0.0
C542 C 0.59665 0.59896 0.69634 0.0
H543 H 0.57032 0.52621 0.78486 0.0
C544 C 0.53274 0.54257 0.78948 0.0
H545 H 0.45913 0.56723 0.77446 0.0
H546 H 0.47676 0.45742 0.67078 0.0
H547 H 0.41361 0.40714 0.69056 0.0
H548 H 0.39437 0.41988 0.73496 0.0
H549 H 0.4385 0.48281 0.75991 0.0
C550 C 0.49859 0.55429 0.7707 0.0
C551 C 0.51151 0.54613 0.74406 0.0
C552 C 0.48471 0.50976 0.72961 0.0
C553 C 0.49517 0.50292 0.70389 0.0
C554 C 0.46922 0.46515 0.69018 0.0
C555 C 0.43314 0.43576 0.70135 0.0
C556 C 0.42235 0.4429 0.72636 0.0
C557 C 0.44784 0.47927 0.74044 0.0
H558 H 0.48967 0.4977 0.36275 0.0
C559 C 0.52784 0.50679 0.37172 0.0
H560 H 0.60755 0.52409 0.36473 0.0
H561 H 0.59115 0.41403 0.25903 0.0
H562 H 0.65108 0.3621 0.28223 0.0
H563 H 0.67093 0.37708 0.32716 0.0
H564 H 0.6308 0.44406 0.34919 0.0
C565 C 0.56853 0.51488 0.35699 0.0
C566 C 0.56134 0.50945 0.32934 0.0
C567 C 0.58615 0.47089 0.31661 0.0
C568 C 0.57508 0.46252 0.29063 0.0
C569 C 0.59883 0.42261 0.27862 0.0
C570 C 0.63317 0.39236 0.29174 0.0
C571 C 0.64431 0.40077 0.31704 0.0
C572 C 0.62104 0.43939 0.32946 0.0
H573 H 0.59652 0.50739 0.23752 0.0
C574 C 0.55808 0.49182 0.23242 0.0
H575 H 0.48467 0.47083 0.2463 0.0
H576 H 0.51396 0.59109 0.34719 0.0
H577 H 0.45532 0.644 0.32384 0.0
H578 H 0.4345 0.62846 0.27903 0.0
H579 H 0.47254 0.56009 0.25726 0.0
C580 C 0.52485 0.48278 0.25068 0.0
C581 C 0.53972 0.49317 0.2774 0.0
C582 C 0.51656 0.53284 0.28992 0.0
C583 C 0.52785 0.54133 0.31585 0.0
C584 C 0.50551 0.58214 0.32769 0.0
C585 C 0.47209 0.61302 0.31447 0.0
C586 C 0.46042 0.6043 0.28923 0.0
C587 C 0.4824 0.56484 0.27699 0.0
loop_
_geom_bond_atom_site_label_1
_geom_bond_atom_site_label_2
_geom_bond_distance
_geom_bond_site_symmetry_2
_ccdc_geom_bond_type
C0 O16 1.251 . S
C0 O18 1.254 1_554 S
N1 C2 1.333 1_445 S
N1 C6 1.307 . S
N1 Zn7 2.020 . S
C2 N1 1.333 1_665 S
C2 C3 1.379 . S
C2 H20 0.952 . S
C3 C2 1.379 . S
C3 C4 1.390 1_665 S
C3 H30 0.949 . S
C4 C3 1.390 1_445 S
C4 C5 1.357 . S
C5 C4 1.357 . S
C5 C6 1.370 . S
C5 H31 0.950 . S
C6 N1 1.307 . S
C6 C5 1.370 . S
C6 H24 0.948 . S
Zn7 N1 2.020 . S
Zn7 O16 2.039 1_445 S
Zn7 O22 2.034 1_455 S
Zn7 O26 2.025 . S
Zn7 O28 2.024 1_545 S
C8 O27 1.246 1_554 S
C8 O28 1.249 . S
N9 C10 1.307 1_445 S
N9 C11 1.333 . S
N9 Zn15 2.020 . S
C10 N9 1.307 1_665 S
C10 C14 1.370 . S
C10 H21 0.948 . S
C11 N9 1.333 . S
C11 C12 1.379 . S
C11 H19 0.952 . S
C12 C11 1.379 . S
C12 C13 1.390 . S
C12 H32 0.949 . S
C13 C12 1.390 . S
C13 C14 1.357 1_445 S
C14 C10 1.370 . S
C14 C13 1.357 1_665 S
C14 H33 0.950 . S
Zn15 N9 2.020 . S
Zn15 O18 2.025 1_445 S
Zn15 O23 2.024 1_455 S
Zn15 O25 2.039 . S
Zn15 O27 2.034 1_545 S
O16 C0 1.251 . S
O16 Zn7 2.039 1_665 S
C17 O22 1.246 . S
C17 O23 1.249 1_554 S
O18 C0 1.254 1_556 S
O18 Zn15 2.025 1_665 S
H19 C11 0.952 . S
H20 C2 0.952 . S
H21 C10 0.948 . S
O22 Zn7 2.034 1_655 S
O22 C17 1.246 . S
O23 Zn15 2.024 1_655 S
O23 C17 1.249 1_556 S
H24 C6 0.948 . S
O25 Zn15 2.039 . S
O25 C29 1.251 1_556 S
O26 Zn7 2.025 . S
O26 C29 1.254 . S
O27 C8 1.246 1_556 S
O27 Zn15 2.034 1_565 S
O28 Zn7 2.024 1_565 S
O28 C8 1.249 . S
C29 O25 1.251 1_554 S
C29 O26 1.254 . S
H30 C3 0.949 . S
H31 C5 0.950 . S
H32 C12 0.949 . S
H33 C14 0.950 . S
C34 O50 1.251 . S
C34 O52 1.254 . S
N35 C36 1.333 . S
N35 C40 1.307 . S
N35 Zn41 2.020 . S
C36 N35 1.333 . S
C36 C37 1.379 . S
C36 H54 0.952 . S
C37 C36 1.379 . S
C37 C38 1.390 . S
C37 H64 0.949 . S
C38 C37 1.390 . S
C38 C39 1.357 . S
C39 C38 1.357 . S
C39 C40 1.370 . S
C39 H65 0.950 . S
C40 N35 1.307 . S
C40 C39 1.370 . S
C40 H58 0.948 . S
Zn41 N35 2.020 . S
Zn41 O50 2.039 . S
Zn41 O56 2.034 . S
Zn41 O60 2.025 . S
Zn41 O62 2.024 . S
C42 O61 1.246 . S
C42 O62 1.249 . S
N43 C44 1.307 . S
N43 C45 1.333 . S
N43 Zn49 2.020 . S
C44 N43 1.307 . S
C44 C48 1.370 . S
C44 H55 0.948 . S
C45 N43 1.333 . S
C45 C46 1.379 . S
C45 H53 0.952 . S
C46 C45 1.379 . S
C46 C47 1.390 . S
C46 H66 0.949 . S
C47 C46 1.390 . S
C47 C48 1.357 . S
C48 C44 1.370 . S
C48 C47 1.357 . S
C48 H67 0.950 . S
Zn49 N43 2.020 . S
Zn49 O52 2.025 . S
Zn49 O57 2.024 . S
Zn49 O59 2.039 . S
Zn49 O61 2.034 . S
O50 C34 1.251 . S
O50 Zn41 2.039 . S
C51 O56 1.246 . S
C51 O57 1.249 . S
O52 C34 1.254 . S
O52 Zn49 2.025 . S
H53 C45 0.952 . S
H54 C36 0.952 . S
H55 C44 0.948 . S
O56 Zn41 2.034 . S
O56 C51 1.246 . S
O57 Zn49 2.024 . S
O57 C51 1.249 . S
H58 C40 0.948 . S
O59 Zn49 2.039 . S
O59 C63 1.251 . S
O60 Zn41 2.025 . S
O60 C63 1.254 . S
O61 C42 1.246 . S
O61 Zn49 2.034 . S
O62 Zn41 2.024 . S
O62 C42 1.249 . S
C63 O59 1.251 . S
C63 O60 1.254 . S
H64 C37 0.949 . S
H65 C39 0.950 . S
H66 C46 0.949 . S
H67 C48 0.950 . S
C68 C69 1.264 . S
C68 C73 1.479 . S
C68 C78 1.465 . S
C69 C68 1.264 . S
C69 C71 1.339 . S
C69 H96 0.931 . S
C70 C71 1.395 . S
C70 C72 1.320 . S
C71 C69 1.339 . S
C71 C70 1.395 . S
C71 H97 0.929 . S
C72 C70 1.320 . S
C72 C73 1.405 . S
C72 H98 0.930 . S
C73 C68 1.479 . S
C73 C72 1.405 . S
C73 H99 0.931 . S
U74 O75 2.454 1_545 S
U74 O76 2.458 1_545 S
U74 C77 2.984 1_545 S
U74 C78 2.847 1_455 S
U74 C91 2.882 . S
U74 O92 2.441 1_455 S
U74 O93 2.420 1_455 S
U74 O94 2.455 1_545 S
U74 O95 2.449 . S
O75 U74 2.454 1_565 S
O75 C77 1.353 . S
O76 U74 2.458 1_565 S
O76 C77 1.286 . S
C77 U74 2.984 1_565 S
C77 O75 1.353 . S
C77 O76 1.286 . S
C77 C79 1.363 . S
C78 C68 1.465 . S
C78 U74 2.847 1_655 S
C78 O92 1.249 . S
C78 O93 1.202 . S
C79 C77 1.363 . S
C79 C81 1.408 . S
C79 C84 1.342 . S
C80 C81 1.310 . S
C80 C83 1.461 . S
C80 H100 0.932 . S
C81 C79 1.408 . S
C81 C80 1.310 . S
C81 H101 0.930 . S
C82 C83 1.474 . S
C82 C84 1.285 . S
C82 H102 0.929 . S
C83 C80 1.461 . S
C83 C82 1.474 . S
C84 C79 1.342 . S
C84 C82 1.285 . S
C84 H103 0.930 . S
C85 C88 1.424 1_455 S
C85 C90 1.245 1_545 S
C85 C91 1.428 . S
C86 C89 1.260 1_565 S
C86 C90 1.477 . S
C86 H104 0.932 . S
C87 C88 1.384 . S
C87 C89 1.479 1_655 S
C87 H105 0.929 . S
C88 C85 1.424 1_655 S
C88 C87 1.384 . S
C88 H106 0.928 . S
C89 C86 1.260 1_545 S
C89 C87 1.479 1_455 S
C90 C85 1.245 1_565 S
C90 C86 1.477 . S
C90 H107 0.932 . S
C91 U74 2.882 . S
C91 C85 1.428 . S
C91 O94 1.301 1_545 S
C91 O95 1.282 . S
O92 U74 2.441 1_655 S
O92 C78 1.249 . S
O93 U74 2.420 1_655 S
O93 C78 1.202 . S
O94 U74 2.455 1_565 S
O94 C91 1.301 1_565 S
O95 U74 2.449 . S
O95 C91 1.282 . S
H96 C69 0.931 . S
H97 C71 0.929 . S
H98 C72 0.930 . S
H99 C73 0.931 . S
H100 C80 0.932 . S
H101 C81 0.930 . S
H102 C82 0.929 . S
H103 C84 0.930 . S
H104 C86 0.932 . S
H105 C87 0.929 . S
H106 C88 0.928 . S
H107 C90 0.932 . S
C108 C109 1.264 . S
C108 C113 1.479 . S
C108 C118 1.465 . S
C109 C108 1.264 . S
C109 C111 1.339 . S
C109 H136 0.931 . S
C110 C111 1.395 . S
C110 C112 1.320 . S
C111 C109 1.339 . S
C111 C110 1.395 . S
C111 H137 0.929 . S
C112 C110 1.320 . S
C112 C113 1.405 . S
C112 H138 0.930 . S
C113 C108 1.479 . S
C113 C112 1.405 . S
C113 H139 0.931 . S
U114 O115 2.454 1_565 S
U114 O116 2.458 1_565 S
U114 C117 2.984 1_565 S
U114 C118 2.847 1_455 S
U114 C131 2.882 . S
U114 O132 2.441 . S
U114 O133 2.420 1_455 S
U114 O134 2.455 1_565 S
U114 O135 2.449 . S
O115 U114 2.454 1_545 S
O115 C117 1.353 . S
O116 U114 2.458 1_545 S
O116 C117 1.286 . S
C117 U114 2.984 1_545 S
C117 O115 1.353 . S
C117 O116 1.286 . S
C117 C119 1.363 . S
C118 C108 1.465 . S
C118 U114 2.847 1_655 S
C118 O132 1.249 1_655 S
C118 O133 1.202 . S
C119 C117 1.363 . S
C119 C121 1.408 . S
C119 C124 1.342 . S
C120 C121 1.310 . S
C120 C123 1.461 . S
C120 H140 0.932 . S
C121 C119 1.408 . S
C121 C120 1.310 . S
C121 H141 0.930 . S
C122 C123 1.474 . S
C122 C124 1.285 . S
C122 H142 0.929 . S
C123 C120 1.461 . S
C123 C122 1.474 . S
C124 C119 1.342 . S
C124 C122 1.285 . S
C124 H143 0.930 . S
C125 C128 1.424 . S
C125 C130 1.245 1_565 S
C125 C131 1.428 . S
C126 C129 1.260 . S
C126 C130 1.477 . S
C126 H144 0.932 . S
C127 C128 1.384 1_655 S
C127 C129 1.479 1_665 S
C127 H145 0.929 . S
C128 C125 1.424 . S
C128 C127 1.384 1_455 S
C128 H146 0.928 1_455 S
C129 C126 1.260 . S
C129 C127 1.479 1_445 S
C130 C125 1.245 1_545 S
C130 C126 1.477 . S
C130 H147 0.932 . S
C131 U114 2.882 . S
C131 C125 1.428 . S
C131 O134 1.301 1_565 S
C131 O135 1.282 . S
O132 U114 2.441 . S
O132 C118 1.249 1_455 S
O133 U114 2.420 1_655 S
O133 C118 1.202 . S
O134 U114 2.455 1_545 S
O134 C131 1.301 1_545 S
O135 U114 2.449 . S
O135 C131 1.282 . S
H136 C109 0.931 . S
H137 C111 0.929 . S
H138 C112 0.930 . S
H139 C113 0.931 . S
H140 C120 0.932 . S
H141 C121 0.930 . S
H142 C122 0.929 . S
H143 C124 0.930 . S
H144 C126 0.932 . S
H145 C127 0.929 . S
H146 C128 0.928 1_655 S
H147 C130 0.932 . S
C148 C149 1.264 . S
C148 C153 1.479 1_556 S
C148 C158 1.465 . S
C149 C148 1.264 . S
C149 C151 1.339 . S
C149 H176 0.931 . S
C150 C151 1.421 . S
C150 C152 1.305 1_556 S
C151 C149 1.339 . S
C151 C150 1.421 . S
C151 H177 0.929 . S
C152 C150 1.305 1_554 S
C152 C153 1.405 . S
C152 H178 0.930 . S
C153 C148 1.479 1_554 S
C153 C152 1.405 . S
C153 H179 0.931 . S
U154 O155 2.454 . S
U154 O156 2.458 . S
U154 C157 2.984 . S
U154 C158 2.847 . S
U154 C171 2.882 . S
U154 O172 2.441 . S
U154 O173 2.420 . S
U154 O174 2.455 . S
U154 O175 2.449 . S
O155 U154 2.454 . S
O155 C157 1.353 . S
O156 U154 2.458 . S
O156 C157 1.286 . S
C157 U154 2.984 . S
C157 O155 1.353 . S
C157 O156 1.286 . S
C157 C159 1.363 . S
C158 C148 1.465 . S
C158 U154 2.847 . S
C158 O172 1.249 . S
C158 O173 1.202 . S
C159 C157 1.363 . S
C159 C161 1.408 1_556 S
C159 C164 1.342 . S
C160 C161 1.310 . S
C160 C163 1.469 . S
C160 H180 0.932 . S
C161 C159 1.408 1_554 S
C161 C160 1.310 . S
C161 H181 0.930 . S
C162 C163 1.459 1_556 S
C162 C164 1.285 . S
C162 H182 0.929 . S
C163 C160 1.469 . S
C163 C162 1.459 1_554 S
C164 C159 1.342 . S
C164 C162 1.285 . S
C164 H183 0.930 . S
C165 C168 1.424 . S
C165 C170 1.245 . S
C165 C171 1.428 . S
C166 C169 1.260 . S
C166 C170 1.477 . S
C166 H184 0.932 . S
C167 C168 1.384 . S
C167 C169 1.479 . S
C167 H185 0.929 . S
C168 C165 1.424 . S
C168 C167 1.384 . S
C168 H186 0.928 . S
C169 C166 1.260 . S
C169 C167 1.479 . S
C170 C165 1.245 . S
C170 C166 1.477 . S
C170 H187 0.932 . S
C171 U154 2.882 . S
C171 C165 1.428 . S
C171 O174 1.301 . S
C171 O175 1.282 . S
O172 U154 2.441 . S
O172 C158 1.249 . S
O173 U154 2.420 . S
O173 C158 1.202 . S
O174 U154 2.455 . S
O174 C171 1.301 . S
O175 U154 2.449 . S
O175 C171 1.282 . S
H176 C149 0.931 . S
H177 C151 0.929 . S
H178 C152 0.930 . S
H179 C153 0.931 . S
H180 C160 0.932 . S
H181 C161 0.930 . S
H182 C162 0.929 . S
H183 C164 0.930 . S
H184 C166 0.932 . S
H185 C167 0.929 . S
H186 C168 0.928 . S
H187 C170 0.932 . S
C188 C189 1.264 . S
C188 C193 1.476 . S
C188 C198 1.465 . S
C189 C188 1.264 . S
C189 C191 1.339 . S
C189 H216 0.931 . S
C190 C191 1.395 . S
C190 C192 1.320 1_554 S
C191 C189 1.339 . S
C191 C190 1.395 . S
C191 H217 0.929 . S
C192 C190 1.320 1_556 S
C192 C193 1.406 1_556 S
C192 H218 0.930 . S
C193 C188 1.476 . S
C193 C192 1.406 1_554 S
C193 H219 0.932 1_554 S
U194 O195 2.454 . S
U194 O196 2.458 . S
U194 C197 2.984 . S
U194 C198 2.847 . S
U194 C211 2.882 . S
U194 O212 2.441 . S
U194 O213 2.420 . S
U194 O214 2.455 . S
U194 O215 2.449 . S
O195 U194 2.454 . S
O195 C197 1.353 . S
O196 U194 2.458 . S
O196 C197 1.286 . S
C197 U194 2.984 . S
C197 O195 1.353 . S
C197 O196 1.286 . S
C197 C199 1.363 . S
C198 C188 1.465 . S
C198 U194 2.847 . S
C198 O212 1.249 . S
C198 O213 1.202 . S
C199 C197 1.363 . S
C199 C201 1.408 . S
C199 C204 1.342 . S
C200 C201 1.310 1_556 S
C200 C203 1.461 1_556 S
C200 H220 0.932 . S
C201 C199 1.408 . S
C201 C200 1.310 1_554 S
C201 H221 0.930 1_554 S
C202 C203 1.474 . S
C202 C204 1.285 . S
C202 H222 0.929 . S
C203 C200 1.461 1_554 S
C203 C202 1.474 . S
C204 C199 1.342 . S
C204 C202 1.285 . S
C204 H223 0.930 . S
C205 C208 1.424 . S
C205 C210 1.245 . S
C205 C211 1.428 . S
C206 C209 1.260 . S
C206 C210 1.477 . S
C206 H224 0.932 . S
C207 C208 1.384 . S
C207 C209 1.479 . S
C207 H225 0.929 . S
C208 C205 1.424 . S
C208 C207 1.384 . S
C208 H226 0.928 . S
C209 C206 1.260 . S
C209 C207 1.479 . S
C210 C205 1.245 . S
C210 C206 1.477 . S
C210 H227 0.932 . S
C211 U194 2.882 . S
C211 C205 1.428 . S
C211 O214 1.301 . S
C211 O215 1.282 . S
O212 U194 2.441 . S
O212 C198 1.249 . S
O213 U194 2.420 . S
O213 C198 1.202 . S
O214 U194 2.455 . S
O214 C211 1.301 . S
O215 U194 2.449 . S
O215 C211 1.282 . S
H216 C189 0.931 . S
H217 C191 0.929 . S
H218 C192 0.930 . S
H219 C193 0.932 1_556 S
H220 C200 0.932 . S
H221 C201 0.930 1_556 S
H222 C202 0.929 . S
H223 C204 0.930 . S
H224 C206 0.932 . S
H225 C207 0.929 . S
H226 C208 0.928 . S
H227 C210 0.932 . S
H228 C229 0.951 . S
C229 H228 0.951 . S
C229 C235 1.267 . S
H230 C235 0.949 1_556 S
H231 C239 0.949 . S
H232 C240 0.950 . S
H233 C241 0.951 . S
H234 C242 0.951 . S
C235 C229 1.267 . S
C235 H230 0.949 1_554 S
C235 C236 1.477 . S
C236 C235 1.477 . S
C236 C237 1.394 . S
C236 C253 1.396 1_554 S
C237 C236 1.394 . S
C237 C238 1.438 . S
C237 C242 1.429 . S
C238 C237 1.438 . S
C238 C239 1.428 . S
C238 C251 1.378 1_554 S
C239 H231 0.949 . S
C239 C238 1.428 . S
C239 C240 1.345 . S
C240 H232 0.950 . S
C240 C239 1.345 . S
C240 C241 1.424 . S
C241 H233 0.951 . S
C241 C240 1.424 . S
C241 C242 1.347 . S
C242 H234 0.951 . S
C242 C237 1.429 . S
C242 C241 1.347 . S
H243 C244 0.951 . S
C244 H243 0.951 . S
C244 C250 1.270 . S
H245 C250 0.949 1_554 S
H246 C254 0.949 . S
H247 C255 0.950 . S
H248 C256 0.951 . S
H249 C257 0.951 . S
C250 C244 1.270 . S
C250 H245 0.949 1_556 S
C250 C251 1.477 . S
C251 C238 1.378 1_556 S
C251 C250 1.477 . S
C251 C252 1.412 . S
C252 C251 1.412 . S
C252 C253 1.438 . S
C252 C257 1.429 . S
C253 C236 1.396 1_556 S
C253 C252 1.438 . S
C253 C254 1.428 . S
C254 H246 0.949 . S
C254 C253 1.428 . S
C254 C255 1.345 . S
C255 H247 0.950 . S
C255 C254 1.345 . S
C255 C256 1.424 . S
C256 H248 0.951 . S
C256 C255 1.424 . S
C256 C257 1.347 . S
C257 H249 0.951 . S
C257 C252 1.429 . S
C257 C256 1.347 . S
H258 C259 0.951 . S
C259 H258 0.951 . S
C259 C265 1.265 . S
H260 C265 0.949 1_556 S
H261 C269 0.949 . S
H262 C270 0.950 . S
H263 C271 0.951 . S
H264 C272 0.951 . S
C265 C259 1.265 . S
C265 H260 0.949 1_554 S
C265 C266 1.478 . S
C266 C265 1.478 . S
C266 C267 1.397 1_554 S
C266 C283 1.394 . S
C267 C266 1.397 1_556 S
C267 C268 1.438 . S
C267 C272 1.429 . S
C268 C267 1.438 . S
C268 C269 1.428 . S
C268 C281 1.394 1_556 S
C269 H261 0.949 . S
C269 C268 1.428 . S
C269 C270 1.345 . S
C270 H262 0.950 . S
C270 C269 1.345 . S
C270 C271 1.424 . S
C271 H263 0.951 . S
C271 C270 1.424 . S
C271 C272 1.347 . S
C272 H264 0.951 . S
C272 C267 1.429 . S
C272 C271 1.347 . S
H273 C274 0.951 . S
C274 H273 0.951 . S
C274 C280 1.265 . S
H275 C280 0.950 . S
H276 C284 0.949 . S
H277 C285 0.950 . S
H278 C286 0.951 . S
H279 C287 0.951 . S
C280 C274 1.265 . S
C280 H275 0.950 . S
C280 C281 1.478 . S
C281 C268 1.394 1_554 S
C281 C280 1.478 . S
C281 C282 1.397 . S
C282 C281 1.397 . S
C282 C283 1.438 . S
C282 C287 1.429 . S
C283 C266 1.394 . S
C283 C282 1.438 . S
C283 C284 1.428 . S
C284 H276 0.949 . S
C284 C283 1.428 . S
C284 C285 1.345 . S
C285 H277 0.950 . S
C285 C284 1.345 . S
C285 C286 1.424 . S
C286 H278 0.951 . S
C286 C285 1.424 . S
C286 C287 1.347 . S
C287 H279 0.951 . S
C287 C282 1.429 . S
C287 C286 1.347 . S
H288 C289 0.954 . S
C289 H288 0.954 . S
C289 C295 1.265 . S
H290 C295 0.950 . S
H291 C299 0.949 . S
H292 C300 0.950 . S
H293 C301 0.951 . S
H294 C302 0.951 . S
C295 C289 1.265 . S
C295 H290 0.950 . S
C295 C296 1.478 . S
C296 C295 1.478 . S
C296 C297 1.397 1_554 S
C296 C313 1.394 . S
C297 C296 1.397 1_556 S
C297 C298 1.438 . S
C297 C302 1.429 . S
C298 C297 1.438 . S
C298 C299 1.428 . S
C298 C311 1.363 1_556 S
C299 H291 0.949 . S
C299 C298 1.428 . S
C299 C300 1.345 . S
C300 H292 0.950 . S
C300 C299 1.345 . S
C300 C301 1.424 . S
C301 H293 0.951 . S
C301 C300 1.424 . S
C301 C302 1.347 . S
C302 H294 0.951 . S
C302 C297 1.429 . S
C302 C301 1.347 . S
H303 C304 0.955 . S
C304 H303 0.955 . S
C304 C310 1.263 . S
H305 C310 0.949 1_556 S
H306 C314 0.949 . S
H307 C315 0.950 . S
H308 C316 0.951 . S
H309 C317 0.951 . S
C310 C304 1.263 . S
C310 H305 0.949 1_554 S
C310 C311 1.479 . S
C311 C298 1.363 1_554 S
C311 C310 1.479 . S
C311 C312 1.428 . S
C312 C311 1.428 . S
C312 C313 1.438 . S
C312 C317 1.429 . S
C313 C296 1.394 . S
C313 C312 1.438 . S
C313 C314 1.428 . S
C314 H306 0.949 . S
C314 C313 1.428 . S
C314 C315 1.345 . S
C315 H307 0.950 . S
C315 C314 1.345 . S
C315 C316 1.424 . S
C316 H308 0.951 . S
C316 C315 1.424 . S
C316 C317 1.347 . S
C317 H309 0.951 . S
C317 C312 1.429 . S
C317 C316 1.347 . S
H318 C319 0.951 1_556 S
C319 H318 0.951 1_554 S
C319 C325 1.265 . S
H320 C325 0.950 . S
H321 C329 0.949 . S
H322 C330 0.950 . S
H323 C331 0.951 . S
H324 C332 0.951 . S
C325 C319 1.265 . S
C325 H320 0.950 . S
C325 C326 1.478 . S
C326 C325 1.478 . S
C326 C327 1.397 1_554 S
C326 C343 1.394 . S
C327 C326 1.397 1_556 S
C327 C328 1.438 . S
C327 C332 1.429 . S
C328 C327 1.438 . S
C328 C329 1.428 . S
C328 C341 1.394 1_556 S
C329 H321 0.949 . S
C329 C328 1.428 . S
C329 C330 1.345 . S
C330 H322 0.950 . S
C330 C329 1.345 . S
C330 C331 1.424 . S
C331 H323 0.951 . S
C331 C330 1.424 . S
C331 C332 1.347 . S
C332 H324 0.951 . S
C332 C327 1.429 . S
C332 C331 1.347 . S
H333 C334 0.951 . S
C334 H333 0.951 . S
C334 C340 1.265 . S
H335 C340 0.950 . S
H336 C344 0.949 . S
H337 C345 0.950 . S
H338 C346 0.951 . S
H339 C347 0.951 . S
C340 C334 1.265 . S
C340 H335 0.950 . S
C340 C341 1.478 . S
C341 C328 1.394 1_554 S
C341 C340 1.478 . S
C341 C342 1.397 . S
C342 C341 1.397 . S
C342 C343 1.438 . S
C342 C347 1.429 . S
C343 C326 1.394 . S
C343 C342 1.438 . S
C343 C344 1.428 . S
C344 H336 0.949 . S
C344 C343 1.428 . S
C344 C345 1.345 . S
C345 H337 0.950 . S
C345 C344 1.345 . S
C345 C346 1.424 . S
C346 H338 0.951 . S
C346 C345 1.424 . S
C346 C347 1.347 . S
C347 H339 0.951 . S
C347 C342 1.429 . S
C347 C346 1.347 . S
H348 C349 0.951 . S
C349 H348 0.951 . S
C349 C355 1.265 . S
H350 C355 0.950 . S
H351 C359 0.949 . S
H352 C360 0.950 . S
H353 C361 0.951 . S
H354 C362 0.951 . S
C355 C349 1.265 . S
C355 H350 0.950 . S
C355 C356 1.478 . S
C356 C355 1.478 . S
C356 C357 1.397 . S
C356 C373 1.394 . S
C357 C356 1.397 . S
C357 C358 1.438 . S
C357 C362 1.429 . S
C358 C357 1.438 . S
C358 C359 1.428 . S
C358 C371 1.394 . S
C359 H351 0.949 . S
C359 C358 1.428 . S
C359 C360 1.345 . S
C360 H352 0.950 . S
C360 C359 1.345 . S
C360 C361 1.424 . S
C361 H353 0.951 . S
C361 C360 1.424 . S
C361 C362 1.347 . S
C362 H354 0.951 . S
C362 C357 1.429 . S
C362 C361 1.347 . S
H363 C364 0.951 . S
C364 H363 0.951 . S
C364 C370 1.265 . S
H365 C370 0.950 . S
H366 C374 0.949 . S
H367 C375 0.950 . S
H368 C376 0.951 . S
H369 C377 0.951 . S
C370 C364 1.265 . S
C370 H365 0.950 . S
C370 C371 1.478 . S
C371 C358 1.394 . S
C371 C370 1.478 . S
C371 C372 1.397 . S
C372 C371 1.397 . S
C372 C373 1.438 . S
C372 C377 1.429 . S
C373 C356 1.394 . S
C373 C372 1.438 . S
C373 C374 1.428 . S
C374 H366 0.949 . S
C374 C373 1.428 . S
C374 C375 1.345 . S
C375 H367 0.950 . S
C375 C374 1.345 . S
C375 C376 1.424 . S
C376 H368 0.951 . S
C376 C375 1.424 . S
C376 C377 1.347 . S
C377 H369 0.951 . S
C377 C372 1.429 . S
C377 C376 1.347 . S
H378 C379 0.951 . S
C379 H378 0.951 . S
C379 C385 1.265 . S
H380 C385 0.950 . S
H381 C389 0.949 . S
H382 C390 0.950 . S
H383 C391 0.951 . S
H384 C392 0.951 . S
C385 C379 1.265 . S
C385 H380 0.950 . S
C385 C386 1.478 . S
C386 C385 1.478 . S
C386 C387 1.397 . S
C386 C403 1.394 . S
C387 C386 1.397 . S
C387 C388 1.438 . S
C387 C392 1.429 . S
C388 C387 1.438 . S
C388 C389 1.428 . S
C388 C401 1.394 . S
C389 H381 0.949 . S
C389 C388 1.428 . S
C389 C390 1.345 . S
C390 H382 0.950 . S
C390 C389 1.345 . S
C390 C391 1.424 . S
C391 H383 0.951 . S
C391 C390 1.424 . S
C391 C392 1.347 . S
C392 H384 0.951 . S
C392 C387 1.429 . S
C392 C391 1.347 . S
H393 C394 0.951 . S
C394 H393 0.951 . S
C394 C400 1.265 . S
H395 C400 0.950 . S
H396 C404 0.949 . S
H397 C405 0.950 . S
H398 C406 0.951 . S
H399 C407 0.951 . S
C400 C394 1.265 . S
C400 H395 0.950 . S
C400 C401 1.478 . S
C401 C388 1.394 . S
C401 C400 1.478 . S
C401 C402 1.397 . S
C402 C401 1.397 . S
C402 C403 1.438 . S
C402 C407 1.429 . S
C403 C386 1.394 . S
C403 C402 1.438 . S
C403 C404 1.428 . S
C404 H396 0.949 . S
C404 C403 1.428 . S
C404 C405 1.345 . S
C405 H397 0.950 . S
C405 C404 1.345 . S
C405 C406 1.424 . S
C406 H398 0.951 . S
C406 C405 1.424 . S
C406 C407 1.347 . S
C407 H399 0.951 . S
C407 C402 1.429 . S
C407 C406 1.347 . S
H408 C409 0.951 . S
C409 H408 0.951 . S
C409 C415 1.265 . S
H410 C415 0.950 . S
H411 C419 0.949 . S
H412 C420 0.950 . S
H413 C421 0.951 . S
H414 C422 0.951 . S
C415 C409 1.265 . S
C415 H410 0.950 . S
C415 C416 1.478 . S
C416 C415 1.478 . S
C416 C417 1.397 . S
C416 C433 1.394 . S
C417 C416 1.397 . S
C417 C418 1.438 . S
C417 C422 1.429 . S
C418 C417 1.438 . S
C418 C419 1.428 . S
C418 C431 1.394 . S
C419 H411 0.949 . S
C419 C418 1.428 . S
C419 C420 1.345 . S
C420 H412 0.950 . S
C420 C419 1.345 . S
C420 C421 1.424 . S
C421 H413 0.951 . S
C421 C420 1.424 . S
C421 C422 1.347 . S
C422 H414 0.951 . S
C422 C417 1.429 . S
C422 C421 1.347 . S
H423 C424 0.951 . S
C424 H423 0.951 . S
C424 C430 1.265 . S
H425 C430 0.950 . S
H426 C434 0.949 . S
H427 C435 0.950 . S
H428 C436 0.951 . S
H429 C437 0.951 . S
C430 C424 1.265 . S
C430 H425 0.950 . S
C430 C431 1.478 . S
C431 C418 1.394 . S
C431 C430 1.478 . S
C431 C432 1.397 . S
C432 C431 1.397 . S
C432 C433 1.438 . S
C432 C437 1.429 . S
C433 C416 1.394 . S
C433 C432 1.438 . S
C433 C434 1.428 . S
C434 H426 0.949 . S
C434 C433 1.428 . S
C434 C435 1.345 . S
C435 H427 0.950 . S
C435 C434 1.345 . S
C435 C436 1.424 . S
C436 H428 0.951 . S
C436 C435 1.424 . S
C436 C437 1.347 . S
C437 H429 0.951 . S
C437 C432 1.429 . S
C437 C436 1.347 . S
H438 C439 0.951 . S
C439 H438 0.951 . S
C439 C445 1.265 . S
H440 C445 0.950 . S
H441 C449 0.949 . S
H442 C450 0.950 . S
H443 C451 0.951 . S
H444 C452 0.951 . S
C445 C439 1.265 . S
C445 H440 0.950 . S
C445 C446 1.478 . S
C446 C445 1.478 . S
C446 C447 1.397 . S
C446 C463 1.394 . S
C447 C446 1.397 . S
C447 C448 1.438 . S
C447 C452 1.429 . S
C448 C447 1.438 . S
C448 C449 1.428 . S
C448 C461 1.394 . S
C449 H441 0.949 . S
C449 C448 1.428 . S
C449 C450 1.345 . S
C450 H442 0.950 . S
C450 C449 1.345 . S
C450 C451 1.424 . S
C451 H443 0.951 . S
C451 C450 1.424 . S
C451 C452 1.347 . S
C452 H444 0.951 . S
C452 C447 1.429 . S
C452 C451 1.347 . S
H453 C454 0.951 . S
C454 H453 0.951 . S
C454 C460 1.265 . S
H455 C460 0.950 . S
H456 C464 0.949 . S
H457 C465 0.950 . S
H458 C466 0.951 . S
H459 C467 0.951 . S
C460 C454 1.265 . S
C460 H455 0.950 . S
C460 C461 1.478 . S
C461 C448 1.394 . S
C461 C460 1.478 . S
C461 C462 1.397 . S
C462 C461 1.397 . S
C462 C463 1.438 . S
C462 C467 1.429 . S
C463 C446 1.394 . S
C463 C462 1.438 . S
C463 C464 1.428 . S
C464 H456 0.949 . S
C464 C463 1.428 . S
C464 C465 1.345 . S
C465 H457 0.950 . S
C465 C464 1.345 . S
C465 C466 1.424 . S
C466 H458 0.951 . S
C466 C465 1.424 . S
C466 C467 1.347 . S
C467 H459 0.951 . S
C467 C462 1.429 . S
C467 C466 1.347 . S
H468 C469 0.951 . S
C469 H468 0.951 . S
C469 C475 1.265 1_445 S
H470 C475 0.950 . S
H471 C479 0.949 1_455 S
H472 C480 0.950 . S
H473 C481 0.951 . S
H474 C482 0.951 . S
C475 C469 1.265 1_665 S
C475 H470 0.950 . S
C475 C476 1.477 1_565 S
C476 C475 1.477 1_545 S
C476 C477 1.382 1_545 S
C476 C493 1.409 1_655 S
C477 C476 1.382 1_565 S
C477 C478 1.439 . S
C477 C482 1.429 . S
C478 C477 1.439 . S
C478 C479 1.428 . S
C478 C491 1.392 1_665 S
C479 H471 0.949 1_655 S
C479 C478 1.428 . S
C479 C480 1.345 . S
C480 H472 0.950 . S
C480 C479 1.345 . S
C480 C481 1.424 . S
C481 H473 0.951 . S
C481 C480 1.424 . S
C481 C482 1.347 . S
C482 H474 0.951 . S
C482 C477 1.429 . S
C482 C481 1.347 . S
H483 C484 0.951 1_565 S
C484 H483 0.951 1_545 S
C484 C490 1.265 1_655 S
H485 C490 0.950 . S
H486 C494 0.946 1_655 S
H487 C495 0.950 . S
H488 C496 0.951 . S
H489 C497 0.951 . S
C490 C484 1.265 1_455 S
C490 H485 0.950 . S
C490 C491 1.478 . S
C491 C478 1.392 1_445 S
C491 C490 1.478 . S
C491 C492 1.397 . S
C492 C491 1.397 . S
C492 C493 1.438 . S
C492 C497 1.429 . S
C493 C476 1.409 1_455 S
C493 C492 1.438 . S
C493 C494 1.428 . S
C494 H486 0.946 1_455 S
C494 C493 1.428 . S
C494 C495 1.345 . S
C495 H487 0.950 . S
C495 C494 1.345 . S
C495 C496 1.424 . S
C496 H488 0.951 . S
C496 C495 1.424 . S
C496 C497 1.347 . S
C497 H489 0.951 . S
C497 C492 1.429 . S
C497 C496 1.347 . S
H498 C499 0.951 1_655 S
C499 H498 0.951 1_455 S
C499 C505 1.265 . S
H500 C505 0.949 1_565 S
H501 C509 0.949 . S
H502 C510 0.950 . S
H503 C511 0.951 . S
H504 C512 0.951 . S
C505 C499 1.265 . S
C505 H500 0.949 1_545 S
C505 C506 1.479 . S
C506 C505 1.479 . S
C506 C507 1.397 1_545 S
C506 C523 1.394 . S
C507 C506 1.397 1_565 S
C507 C508 1.438 . S
C507 C512 1.429 . S
C508 C507 1.438 . S
C508 C509 1.428 . S
C508 C521 1.394 1_565 S
C509 H501 0.949 . S
C509 C508 1.428 . S
C509 C510 1.345 . S
C510 H502 0.950 . S
C510 C509 1.345 . S
C510 C511 1.424 . S
C511 H503 0.951 . S
C511 C510 1.424 . S
C511 C512 1.347 . S
C512 H504 0.951 . S
C512 C507 1.429 . S
C512 C511 1.347 . S
H513 C514 0.951 1_565 S
C514 H513 0.951 1_545 S
C514 C520 1.265 1_455 S
H515 C520 0.950 . S
H516 C524 0.949 . S
H517 C525 0.950 . S
H518 C526 0.951 . S
H519 C527 0.951 . S
C520 C514 1.265 1_655 S
C520 H515 0.950 . S
C520 C521 1.478 1_655 S
C521 C508 1.394 1_545 S
C521 C520 1.478 1_455 S
C521 C522 1.397 . S
C522 C521 1.397 . S
C522 C523 1.438 . S
C522 C527 1.429 1_455 S
C523 C506 1.394 . S
C523 C522 1.438 . S
C523 C524 1.428 . S
C524 H516 0.949 . S
C524 C523 1.428 . S
C524 C525 1.345 1_455 S
C525 H517 0.950 . S
C525 C524 1.345 1_655 S
C525 C526 1.424 . S
C526 H518 0.951 . S
C526 C525 1.424 . S
C526 C527 1.347 . S
C527 H519 0.951 . S
C527 C522 1.429 1_655 S
C527 C526 1.347 . S
H528 C529 0.951 . S
C529 H528 0.951 . S
C529 C535 1.265 . S
H530 C535 0.950 . S
H531 C539 0.949 . S
H532 C540 0.950 . S
H533 C541 0.951 . S
H534 C542 0.951 . S
C535 C529 1.265 . S
C535 H530 0.950 . S
C535 C536 1.478 . S
C536 C535 1.478 . S
C536 C537 1.397 . S
C536 C553 1.394 . S
C537 C536 1.397 . S
C537 C538 1.438 . S
C537 C542 1.429 . S
C538 C537 1.438 . S
C538 C539 1.428 . S
C538 C551 1.394 . S
C539 H531 0.949 . S
C539 C538 1.428 . S
C539 C540 1.345 . S
C540 H532 0.950 . S
C540 C539 1.345 . S
C540 C541 1.424 . S
C541 H533 0.951 . S
C541 C540 1.424 . S
C541 C542 1.347 . S
C542 H534 0.951 . S
C542 C537 1.429 . S
C542 C541 1.347 . S
H543 C544 0.951 . S
C544 H543 0.951 . S
C544 C550 1.265 . S
H545 C550 0.950 . S
H546 C554 0.949 . S
H547 C555 0.950 . S
H548 C556 0.951 . S
H549 C557 0.951 . S
C550 C544 1.265 . S
C550 H545 0.950 . S
C550 C551 1.478 . S
C551 C538 1.394 . S
C551 C550 1.478 . S
C551 C552 1.397 . S
C552 C551 1.397 . S
C552 C553 1.438 . S
C552 C557 1.429 . S
C553 C536 1.394 . S
C553 C552 1.438 . S
C553 C554 1.428 . S
C554 H546 0.949 . S
C554 C553 1.428 . S
C554 C555 1.345 . S
C555 H547 0.950 . S
C555 C554 1.345 . S
C555 C556 1.424 . S
C556 H548 0.951 . S
C556 C555 1.424 . S
C556 C557 1.347 . S
C557 H549 0.951 . S
C557 C552 1.429 . S
C557 C556 1.347 . S
H558 C559 0.951 . S
C559 H558 0.951 . S
C559 C565 1.265 . S
H560 C565 0.950 . S
H561 C569 0.949 . S
H562 C570 0.950 . S
H563 C571 0.951 . S
H564 C572 0.951 . S
C565 C559 1.265 . S
C565 H560 0.950 . S
C565 C566 1.478 . S
C566 C565 1.478 . S
C566 C567 1.397 . S
C566 C583 1.394 . S
C567 C566 1.397 . S
C567 C568 1.438 . S
C567 C572 1.429 . S
C568 C567 1.438 . S
C568 C569 1.428 . S
C568 C581 1.394 . S
C569 H561 0.949 . S
C569 C568 1.428 . S
C569 C570 1.345 . S
C570 H562 0.950 . S
C570 C569 1.345 . S
C570 C571 1.424 . S
C571 H563 0.951 . S
C571 C570 1.424 . S
C571 C572 1.347 . S
C572 H564 0.951 . S
C572 C567 1.429 . S
C572 C571 1.347 . S
H573 C574 0.951 . S
C574 H573 0.951 . S
C574 C580 1.265 . S
H575 C580 0.950 . S
H576 C584 0.949 . S
H577 C585 0.950 . S
H578 C586 0.951 . S
H579 C587 0.951 . S
C580 C574 1.265 . S
C580 H575 0.950 . S
C580 C581 1.478 . S
C581 C568 1.394 . S
C581 C580 1.478 . S
C581 C582 1.397 . S
C582 C581 1.397 . S
C582 C583 1.438 . S
C582 C587 1.429 . S
C583 C566 1.394 . S
C583 C582 1.438 . S
C583 C584 1.428 . S
C584 H576 0.949 . S
C584 C583 1.428 . S
C584 C585 1.345 . S
C585 H577 0.950 . S
C585 C584 1.345 . S
C585 C586 1.424 . S
C586 H578 0.951 . S
C586 C585 1.424 . S
C586 C587 1.347 . S
C587 H579 0.951 . S
C587 C582 1.429 . S
C587 C586 1.347 . S
C244 C190 1.522 1_556 S
C229 C29 1.535 . S
C259 C8 1.507 . S
C274 C150 1.495 1_554 S
C289 C0 1.507 . S
C304 C203 1.467 . S
C319 C17 1.520 . S
C334 C163 1.488 . S
C349 C63 1.542 . S
C364 C110 1.483 . S
C379 C42 1.507 . S
C394 C70 1.499 . S
C424 C123 1.460 . S
C409 C34 1.507 . S
C454 C83 1.488 . S
C439 C51 1.546 . S
C469 C4 1.468 . S
C484 C89 1.485 1_655 S
C499 C13 1.467 . S
C514 C129 1.448 . S
C544 C169 1.451 . S
C529 C38 1.477 . S
C559 C47 1.466 . S
C574 C209 1.452 . S
