# Generated by pormake.
# Topology apo, (3,6)-cn, num edge types: 1
# Building blocks:
#     Node 0, Type 0, BuildingBlock: OLANEW_clean_sbu_2, # of connection points: 3
#     Node 1, Type 0, BuildingBlock: OLANEW_clean_sbu_2, # of connection points: 3
#     Node 2, Type 0, BuildingBlock: OLANEW_clean_sbu_2, # of connection points: 3
#     Node 3, Type 0, BuildingBlock: OLANEW_clean_sbu_2, # of connection points: 3
#     Node 4, Type 0, BuildingBlock: OLANEW_clean_sbu_2, # of connection points: 3
#     Node 5, Type 0, BuildingBlock: OLANEW_clean_sbu_2, # of connection points: 3
#     Node 6, Type 0, BuildingBlock: OLANEW_clean_sbu_2, # of connection points: 3
#     Node 7, Type 0, BuildingBlock: OLANEW_clean_sbu_2, # of connection points: 3
#     Node 8, Type 1, BuildingBlock: KUMBUR_clean_sbu_1, # of connection points: 6
#     Node 9, Type 1, BuildingBlock: KUMBUR_clean_sbu_1, # of connection points: 6
#     Node 10, Type 1, BuildingBlock: KUMBUR_clean_sbu_1, # of connection points: 6
#     Node 11, Type 1, BuildingBlock: KUMBUR_clean_sbu_1, # of connection points: 6
#     Edge 12, Type (0, 1), BuildingBlock: XUDNAN_clean_linker_2, # of connection points: 2
#     Edge 13, Type (0, 1), BuildingBlock: XUDNAN_clean_linker_2, # of connection points: 2
#     Edge 14, Type (0, 1), BuildingBlock: XUDNAN_clean_linker_2, # of connection points: 2
#     Edge 15, Type (0, 1), BuildingBlock: XUDNAN_clean_linker_2, # of connection points: 2
#     Edge 16, Type (0, 1), BuildingBlock: XUDNAN_clean_linker_2, # of connection points: 2
#     Edge 17, Type (0, 1), BuildingBlock: XUDNAN_clean_linker_2, # of connection points: 2
#     Edge 18, Type (0, 1), BuildingBlock: XUDNAN_clean_linker_2, # of connection points: 2
#     Edge 19, Type (0, 1), BuildingBlock: XUDNAN_clean_linker_2, # of connection points: 2
#     Edge 20, Type (0, 1), BuildingBlock: XUDNAN_clean_linker_2, # of connection points: 2
#     Edge 21, Type (0, 1), BuildingBlock: XUDNAN_clean_linker_2, # of connection points: 2
#     Edge 22, Type (0, 1), BuildingBlock: XUDNAN_clean_linker_2, # of connection points: 2
#     Edge 23, Type (0, 1), BuildingBlock: XUDNAN_clean_linker_2, # of connection points: 2
#     Edge 24, Type (0, 1), BuildingBlock: XUDNAN_clean_linker_2, # of connection points: 2
#     Edge 25, Type (0, 1), BuildingBlock: XUDNAN_clean_linker_2, # of connection points: 2
#     Edge 26, Type (0, 1), BuildingBlock: XUDNAN_clean_linker_2, # of connection points: 2
#     Edge 27, Type (0, 1), BuildingBlock: XUDNAN_clean_linker_2, # of connection points: 2
#     Edge 28, Type (0, 1), BuildingBlock: XUDNAN_clean_linker_2, # of connection points: 2
#     Edge 29, Type (0, 1), BuildingBlock: XUDNAN_clean_linker_2, # of connection points: 2
#     Edge 30, Type (0, 1), BuildingBlock: XUDNAN_clean_linker_2, # of connection points: 2
#     Edge 31, Type (0, 1), BuildingBlock: XUDNAN_clean_linker_2, # of connection points: 2
#     Edge 32, Type (0, 1), BuildingBlock: XUDNAN_clean_linker_2, # of connection points: 2
#     Edge 33, Type (0, 1), BuildingBlock: XUDNAN_clean_linker_2, # of connection points: 2
#     Edge 34, Type (0, 1), BuildingBlock: XUDNAN_clean_linker_2, # of connection points: 2
#     Edge 35, Type (0, 1), BuildingBlock: XUDNAN_clean_linker_2, # of connection points: 2
# Relax obj value: 0.030
# Max RMSD: 0.224
# Mean RMSD: 0.134
data_MOF--net-apo--node1-OLANEW_clean_sbu_2--node2-KUMBUR_clean_sbu_1--edge1-XUDNAN_clean_linker_2
_symmetry_space_group_name_H-M    P1
_symmetry_Int_Tables_number       1
_symmetry_cell_setting            triclinic
loop_
_symmetry_equiv_pos_as_xyz
'x, y, z'
_cell_length_a     28.658491
_cell_length_b     44.708637
_cell_length_c     55.874113
_cell_angle_alpha  88.65071
_cell_angle_beta   89.896055
_cell_angle_gamma 90.213988
loop_
_atom_site_label
_atom_site_type_symbol
_atom_site_fract_x
_atom_site_fract_y
_atom_site_fract_z
_atom_type_partial_charge
O0 O 0.26785 0.39271 0.35232 0.0
Cd1 Cd 0.21609 0.35687 0.37282 0.0
O2 O 0.31026 0.38549 0.3842 0.0
Cd3 Cd 0.36471 0.38788 0.41153 0.0
O4 O 0.39652 0.38443 0.44703 0.0
C5 C 0.36905 0.38417 0.46494 0.0
O6 O 0.3239 0.38601 0.46115 0.0
C7 C 0.3039 0.39932 0.36429 0.0
C8 C 0.19811 0.30468 0.34825 0.0
O9 O 0.17164 0.32759 0.34581 0.0
O10 O 0.23375 0.30668 0.36197 0.0
O11 O 0.29814 0.15317 0.95186 0.0
Cd12 Cd 0.34664 0.14597 0.91635 0.0
O13 O 0.2491 0.11751 0.94176 0.0
Cd14 Cd 0.27007 0.10904 0.90483 0.0
O15 O 0.23942 0.07961 0.87814 0.0
C16 C 0.20985 0.06192 0.88795 0.0
O17 O 0.20329 0.06347 0.91118 0.0
C18 C 0.2633 0.1364 0.9568 0.0
C19 C 0.36184 0.19499 0.88544 0.0
O20 O 0.32778 0.17677 0.88245 0.0
O21 O 0.38808 0.19079 0.90376 0.0
O22 O 0.78245 0.11308 0.63722 0.0
Cd23 Cd 0.75754 0.15686 0.61308 0.0
O24 O 0.85316 0.11097 0.62156 0.0
Cd25 Cd 0.83923 0.13891 0.58956 0.0
O26 O 0.84909 0.1403 0.55044 0.0
C27 C 0.87279 0.1185 0.54274 0.0
O28 O 0.88798 0.09833 0.55832 0.0
C29 C 0.82332 0.10203 0.63703 0.0
C30 C 0.7272 0.20523 0.64035 0.0
O31 O 0.69848 0.18502 0.6337 0.0
O32 O 0.77014 0.2024 0.63438 0.0
O33 O 0.77412 0.34882 0.05434 0.0
Cd34 Cd 0.80972 0.35055 0.09428 0.0
O35 O 0.76926 0.39544 0.06382 0.0
Cd36 Cd 0.75222 0.44264 0.06707 0.0
O37 O 0.71548 0.46783 0.09389 0.0
C38 C 0.69164 0.45081 0.10777 0.0
O39 O 0.69138 0.42191 0.10396 0.0
C40 C 0.75926 0.37494 0.04923 0.0
C41 C 0.83669 0.29755 0.11731 0.0
O42 O 0.79349 0.30448 0.11538 0.0
O43 O 0.86715 0.31509 0.10763 0.0
O44 O 0.73336 0.61764 0.64331 0.0
Cd45 Cd 0.76324 0.65661 0.61541 0.0
O46 O 0.71221 0.58667 0.61536 0.0
Cd47 Cd 0.72763 0.61889 0.5868 0.0
O48 O 0.70469 0.63237 0.55126 0.0
C49 C 0.67791 0.61284 0.54242 0.0
O50 O 0.66814 0.58858 0.55523 0.0
C51 C 0.71626 0.59258 0.63734 0.0
C52 C 0.80989 0.70084 0.64034 0.0
O53 O 0.76593 0.70262 0.63655 0.0
O54 O 0.83209 0.6784 0.63227 0.0
O55 O 0.79879 0.89138 0.13962 0.0
Cd56 Cd 0.75921 0.84965 0.1201 0.0
O57 O 0.77898 0.91945 0.10847 0.0
Cd58 Cd 0.75548 0.88479 0.08473 0.0
O59 O 0.77529 0.89471 0.04789 0.0
C60 C 0.80385 0.87975 0.0356 0.0
O61 O 0.82024 0.8543 0.04419 0.0
C62 C 0.79747 0.9169 0.12905 0.0
C63 C 0.70481 0.81223 0.14965 0.0
O64 O 0.74555 0.80418 0.14291 0.0
O65 O 0.69017 0.83811 0.14285 0.0
O66 O 0.2231 0.87835 0.35555 0.0
Cd67 Cd 0.24786 0.84315 0.38689 0.0
O68 O 0.23909 0.91904 0.37542 0.0
Cd69 Cd 0.26144 0.89558 0.40769 0.0
O70 O 0.2508 0.89335 0.44607 0.0
C71 C 0.21017 0.88666 0.45362 0.0
O72 O 0.17781 0.87941 0.43814 0.0
C73 C 0.22386 0.90668 0.35676 0.0
C74 C 0.3067 0.79982 0.36883 0.0
O75 O 0.2627 0.79892 0.36501 0.0
O76 O 0.32324 0.82112 0.38122 0.0
O77 O 0.2913 0.60946 0.86239 0.0
Cd78 Cd 0.23294 0.6383 0.88431 0.0
O79 O 0.29025 0.57014 0.88701 0.0
Cd80 Cd 0.25571 0.58993 0.91732 0.0
O81 O 0.27196 0.58842 0.95542 0.0
C82 C 0.30656 0.60374 0.96242 0.0
O83 O 0.32849 0.62139 0.94696 0.0
C84 C 0.30377 0.58278 0.8676 0.0
C85 C 0.18965 0.68072 0.85404 0.0
O86 O 0.2205 0.68889 0.86914 0.0
O87 O 0.17906 0.65291 0.85339 0.0
Tb88 Tb 0.073 0.10135 0.21594 0.0
C89 C 0.86835 0.08437 0.24921 0.0
N90 N 0.89614 0.10887 0.25146 0.0
C91 C 0.83288 0.14049 0.23871 0.0
C92 C 0.8223 0.0869 0.24059 0.0
C93 C 0.87796 0.13686 0.24787 0.0
C94 C 0.80526 0.11536 0.23455 0.0
C95 C 0.85564 0.03155 0.25797 0.0
C96 C 0.88477 0.05698 0.25757 0.0
C97 C 0.81056 0.03362 0.2483 0.0
C98 C 0.79403 0.06121 0.23945 0.0
Tb99 Tb 0.96966 0.09937 0.26576 0.0
N100 N 0.92878 0.05568 0.26646 0.0
C101 C 0.87218 0.00515 0.26887 0.0
C102 C 0.94455 0.03035 0.2779 0.0
C103 C 0.91676 0.00458 0.27896 0.0
H104 H 0.89787 0.15659 0.25213 0.0
H105 H 0.92949 0.98443 0.2878 0.0
H106 H 0.14905 0.05389 0.23945 0.0
H107 H 0.08648 0.21957 0.19254 0.0
H108 H 0.97841 0.03006 0.28633 0.0
H109 H 0.8505 0.98526 0.26999 0.0
H110 H 0.05143 0.1694 0.19119 0.0
H111 H 0.81923 0.1627 0.23519 0.0
H112 H 0.78778 0.01423 0.24815 0.0
H113 H 0.7587 0.06267 0.23267 0.0
H114 H 0.22664 0.05615 0.2584 0.0
H115 H 0.77011 0.11827 0.2278 0.0
H116 H 0.16098 0.22729 0.21366 0.0
N117 N 0.14481 0.10089 0.23325 0.0
C118 C 0.16771 0.12751 0.23356 0.0
C119 C 0.21025 0.07646 0.25172 0.0
C120 C 0.21221 0.1299 0.24403 0.0
C121 C 0.16597 0.07529 0.24128 0.0
C122 C 0.2333 0.10394 0.25333 0.0
N123 N 0.10296 0.14898 0.21357 0.0
C124 C 0.08263 0.17246 0.20156 0.0
C125 C 0.16771 0.18069 0.22438 0.0
C126 C 0.14567 0.15248 0.22382 0.0
C127 C 0.14528 0.20521 0.2136 0.0
C128 C 0.10299 0.20096 0.2018 0.0
H129 H 0.26751 0.1048 0.26152 0.0
H130 H 0.26794 0.16044 0.25319 0.0
H131 H 0.22892 0.20496 0.23603 0.0
O132 O 0.10232 0.1098 0.18155 0.0
O133 O 0.08339 0.11319 0.25349 0.0
O134 O 0.01685 0.13768 0.26374 0.0
O135 O 0.09845 0.06464 0.19713 0.0
O136 O 0.01002 0.12684 0.20672 0.0
O137 O 0.97458 0.14013 0.24263 0.0
O138 O 0.99018 0.09623 0.30201 0.0
O139 O 0.97203 0.06523 0.23814 0.0
O140 O 0.00251 0.08899 0.2046 0.0
O141 O 0.92157 0.11099 0.29233 0.0
O142 O 0.0324 0.0723 0.2727 0.0
O143 O 0.06146 0.05907 0.23544 0.0
C144 C 0.06239 0.13521 0.26413 0.0
C145 C 0.13327 0.06927 0.15745 0.0
C146 C 0.1592 0.07465 0.1158 0.0
C147 C 0.17358 0.04458 0.11664 0.0
C148 C 0.1478 0.0393 0.15772 0.0
C149 C 0.1679 0.02712 0.13744 0.0
C150 C 0.13925 0.08695 0.13644 0.0
C151 C 0.98065 0.14298 0.21923 0.0
C152 C 0.11091 0.08151 0.17893 0.0
C153 C 0.23391 0.15806 0.24502 0.0
C154 C 0.21163 0.18341 0.23529 0.0
C155 C 0.97349 0.06977 0.21488 0.0
C156 C 0.95171 0.12877 0.32839 0.0
C157 C 0.94064 0.14121 0.3704 0.0
C158 C 0.94713 0.17161 0.3642 0.0
C159 C 0.95868 0.15914 0.32257 0.0
C160 C 0.943 0.11991 0.35227 0.0
C161 C 0.9563 0.18043 0.34045 0.0
C162 C 0.05603 0.05437 0.25865 0.0
C163 C 0.95045 0.10608 0.30979 0.0
H164 H 0.18998 0.03461 0.10129 0.0
H165 H 0.14369 0.02522 0.17364 0.0
H166 H 0.17923 0.00404 0.13786 0.0
H167 H 0.12765 0.11 0.13601 0.0
H168 H 0.94593 0.1885 0.37776 0.0
H169 H 0.96531 0.16635 0.30422 0.0
H170 H 0.93717 0.09643 0.35665 0.0
H171 H 0.9614 0.20387 0.3359 0.0
Tb172 Tb 0.46995 0.39887 0.73212 0.0
C173 C 0.67366 0.41672 0.77687 0.0
N174 N 0.64858 0.39099 0.77549 0.0
C175 C 0.71844 0.36446 0.76525 0.0
C176 C 0.72171 0.41766 0.7714 0.0
C177 C 0.67099 0.36464 0.77115 0.0
C178 C 0.74373 0.39121 0.76487 0.0
C179 C 0.6774 0.46787 0.79013 0.0
C180 C 0.65215 0.44131 0.78632 0.0
C181 C 0.72449 0.46964 0.78323 0.0
C182 C 0.74666 0.44454 0.7739 0.0
Tb183 Tb 0.57072 0.39414 0.78525 0.0
N184 N 0.60678 0.43856 0.79294 0.0
C185 C 0.6549 0.49142 0.80146 0.0
C186 C 0.58554 0.4607 0.80533 0.0
C187 C 0.60895 0.48762 0.80944 0.0
H188 H 0.6523 0.34358 0.77213 0.0
H189 H 0.59166 0.50532 0.81887 0.0
H190 H 0.3992 0.44774 0.75888 0.0
H191 H 0.43497 0.29023 0.69518 0.0
H192 H 0.55066 0.45756 0.81215 0.0
H193 H 0.67305 0.51221 0.80475 0.0
H194 H 0.48184 0.33522 0.70237 0.0
H195 H 0.73556 0.34363 0.76123 0.0
H196 H 0.74444 0.48995 0.78577 0.0
H197 H 0.78347 0.44581 0.76953 0.0
H198 H 0.32109 0.4473 0.7766 0.0
H199 H 0.78061 0.39094 0.7606 0.0
H200 H 0.35464 0.28619 0.7112 0.0
N201 N 0.39725 0.40197 0.74895 0.0
C202 C 0.36885 0.37803 0.74536 0.0
C203 C 0.33439 0.4274 0.76831 0.0
C204 C 0.32273 0.37732 0.75425 0.0
C205 C 0.3796 0.42721 0.75889 0.0
C206 C 0.30604 0.40217 0.76633 0.0
N207 N 0.431 0.3554 0.72451 0.0
C208 C 0.44816 0.3331 0.71073 0.0
C209 C 0.35731 0.32923 0.72813 0.0
C210 C 0.38603 0.35424 0.73249 0.0
C211 C 0.37553 0.30579 0.71489 0.0
C212 C 0.42101 0.30787 0.706 0.0
H213 H 0.27085 0.4025 0.77343 0.0
H214 H 0.25909 0.35116 0.75724 0.0
H215 H 0.28936 0.30905 0.7344 0.0
O216 O 0.44664 0.39465 0.69676 0.0
O217 O 0.4558 0.37376 0.76585 0.0
O218 O 0.52769 0.35576 0.7769 0.0
O219 O 0.44253 0.43685 0.7141 0.0
O220 O 0.52918 0.37042 0.72248 0.0
O221 O 0.58274 0.36542 0.75441 0.0
O222 O 0.55884 0.39824 0.82255 0.0
O223 O 0.57142 0.43239 0.76026 0.0
O224 O 0.54086 0.41638 0.72417 0.0
O225 O 0.60025 0.36274 0.8092 0.0
O226 O 0.50133 0.41411 0.79101 0.0
O227 O 0.48066 0.43676 0.75507 0.0
C228 C 0.48227 0.35488 0.77809 0.0
C229 C 0.44649 0.43758 0.67128 0.0
C230 C 0.44715 0.43631 0.62762 0.0
C231 C 0.45893 0.46677 0.62663 0.0
C232 C 0.45829 0.46813 0.66995 0.0
C233 C 0.46439 0.48257 0.64771 0.0
C234 C 0.44083 0.42181 0.64992 0.0
C235 C 0.56727 0.35938 0.73272 0.0
C236 C 0.43519 0.42258 0.69442 0.0
C237 C 0.2945 0.35216 0.75043 0.0
C238 C 0.3117 0.32822 0.73736 0.0
C239 C 0.56736 0.43445 0.7368 0.0
C240 C 0.62502 0.38322 0.84547 0.0
C241 C 0.6528 0.38824 0.88646 0.0
C242 C 0.69836 0.39249 0.8778 0.0
C243 C 0.67121 0.38725 0.83737 0.0
C244 C 0.61585 0.38388 0.87026 0.0
C245 C 0.70741 0.3921 0.85338 0.0
C246 C 0.48428 0.43694 0.7785 0.0
C247 C 0.58742 0.37672 0.82815 0.0
H248 H 0.46378 0.4783 0.60953 0.0
H249 H 0.46208 0.48099 0.68603 0.0
H250 H 0.47318 0.50613 0.64682 0.0
H251 H 0.4309 0.39836 0.65058 0.0
H252 H 0.72708 0.39588 0.89005 0.0
H253 H 0.67987 0.38601 0.81871 0.0
H254 H 0.58066 0.38038 0.87691 0.0
H255 H 0.74274 0.39509 0.84683 0.0
Tb256 Tb 0.06329 0.90085 0.7237 0.0
C257 C 0.86026 0.87441 0.76594 0.0
N258 N 0.88671 0.89937 0.76266 0.0
C259 C 0.82022 0.92581 0.74706 0.0
C260 C 0.81316 0.87367 0.75874 0.0
C261 C 0.86676 0.92535 0.75456 0.0
C262 C 0.79349 0.89969 0.74875 0.0
C263 C 0.85376 0.82376 0.78181 0.0
C264 C 0.88026 0.84995 0.77737 0.0
C265 C 0.80731 0.82239 0.77386 0.0
C266 C 0.78702 0.84732 0.76238 0.0
Tb267 Tb 0.96228 0.89647 0.77536 0.0
N268 N 0.92527 0.85219 0.78478 0.0
C269 C 0.87449 0.79998 0.79448 0.0
C270 C 0.94475 0.8296 0.79829 0.0
C271 C 0.91997 0.80308 0.80302 0.0
H272 H 0.88594 0.94611 0.75472 0.0
H273 H 0.93586 0.78515 0.81345 0.0
H274 H 0.1369 0.8484 0.74711 0.0
H275 H 0.0889 0.01687 0.69981 0.0
H276 H 0.97906 0.83198 0.80588 0.0
H277 H 0.85535 0.77946 0.79825 0.0
H278 H 0.04519 0.96908 0.70277 0.0
H279 H 0.80483 0.94644 0.74037 0.0
H280 H 0.78651 0.80238 0.77694 0.0
H281 H 0.75086 0.84621 0.75682 0.0
H282 H 0.21455 0.84772 0.76487 0.0
H283 H 0.75735 0.90012 0.74309 0.0
H284 H 0.16913 0.01991 0.71592 0.0
N285 N 0.13554 0.8958 0.74104 0.0
C286 C 0.162 0.92125 0.74039 0.0
C287 C 0.19988 0.86867 0.75842 0.0
C288 C 0.20806 0.92142 0.74924 0.0
C289 C 0.15481 0.86938 0.74889 0.0
C290 C 0.22647 0.89483 0.75882 0.0
N291 N 0.09869 0.94634 0.722 0.0
C292 C 0.07948 0.97062 0.71058 0.0
C293 C 0.17006 0.97362 0.72825 0.0
C294 C 0.14341 0.94712 0.73003 0.0
C295 C 0.14981 0.99908 0.71759 0.0
C296 C 0.10442 0.99751 0.70858 0.0
H297 H 0.26167 0.89405 0.76585 0.0
H298 H 0.27016 0.94835 0.75438 0.0
H299 H 0.237 0.99394 0.73582 0.0
O300 O 0.05414 0.91018 0.68692 0.0
O301 O 0.06238 0.93428 0.75223 0.0
O302 O 0.03634 0.90219 0.78043 0.0
O303 O 0.11271 0.88448 0.69959 0.0
O304 O 0.99615 0.92133 0.71578 0.0
O305 O 0.97008 0.93738 0.7526 0.0
O306 O 0.94952 0.89179 0.81223 0.0
O307 O 0.94396 0.87859 0.74021 0.0
O308 O 0.01311 0.86372 0.72177 0.0
O309 O 0.94579 0.93503 0.79473 0.0
O310 O 0.02181 0.86549 0.78005 0.0
O311 O 0.0573 0.85725 0.743 0.0
C312 C 0.0566 0.92734 0.77487 0.0
C313 C 0.08482 0.87439 0.66112 0.0
C314 C 0.09879 0.86424 0.61904 0.0
C315 C 0.08096 0.83512 0.62286 0.0
C316 C 0.06715 0.84534 0.66471 0.0
C317 C 0.06517 0.82584 0.64556 0.0
C318 C 0.09967 0.88386 0.63832 0.0
C319 C 0.9713 0.93921 0.72896 0.0
C320 C 0.09062 0.89489 0.68094 0.0
C321 C 0.23471 0.94785 0.74768 0.0
C322 C 0.21589 0.9738 0.73703 0.0
C323 C 0.96781 0.86132 0.72581 0.0
C324 C 0.898 0.9258 0.82915 0.0
C325 C 0.86208 0.92845 0.86853 0.0
C326 C 0.81928 0.93563 0.85775 0.0
C327 C 0.85496 0.93303 0.81861 0.0
C328 C 0.9013 0.92329 0.8542 0.0
C329 C 0.81576 0.93774 0.83287 0.0
C330 C 0.04583 0.84874 0.76515 0.0
C331 C 0.93968 0.91981 0.81468 0.0
H332 H 0.08049 0.81921 0.60855 0.0
H333 H 0.05566 0.83766 0.68229 0.0
H334 H 0.05226 0.80326 0.64842 0.0
H335 H 0.11269 0.90652 0.63578 0.0
H336 H 0.78865 0.93959 0.8686 0.0
H337 H 0.85147 0.93517 0.7995 0.0
H338 H 0.93441 0.91772 0.86253 0.0
H339 H 0.78263 0.94321 0.82462 0.0
Tb340 Tb 0.44255 0.60923 0.23186 0.0
C341 C 0.65194 0.63181 0.25247 0.0
N342 N 0.62861 0.60527 0.25273 0.0
C343 C 0.69147 0.58237 0.23168 0.0
C344 C 0.69575 0.6348 0.24118 0.0
C345 C 0.64786 0.58053 0.24288 0.0
C346 C 0.71537 0.60966 0.23065 0.0
C347 C 0.6542 0.68419 0.26295 0.0
C348 C 0.63139 0.65621 0.26334 0.0
C349 C 0.69781 0.68728 0.25164 0.0
C350 C 0.71862 0.66263 0.2409 0.0
Tb351 Tb 0.56006 0.60496 0.27315 0.0
N352 N 0.58892 0.65253 0.27404 0.0
C353 C 0.63267 0.70819 0.27413 0.0
C354 C 0.569 0.67547 0.28601 0.0
C355 C 0.59012 0.70372 0.2859 0.0
H356 H 0.63031 0.55915 0.24421 0.0
H357 H 0.57383 0.72193 0.29518 0.0
H358 H 0.36786 0.6522 0.26124 0.0
H359 H 0.422 0.50059 0.19287 0.0
H360 H 0.53761 0.67214 0.29617 0.0
H361 H 0.64899 0.73009 0.27416 0.0
H362 H 0.4614 0.54843 0.20005 0.0
H363 H 0.70687 0.56266 0.22411 0.0
H364 H 0.71583 0.70863 0.25115 0.0
H365 H 0.75234 0.66537 0.2323 0.0
H366 H 0.2891 0.64767 0.27834 0.0
H367 H 0.74913 0.611 0.22192 0.0
H368 H 0.34321 0.49098 0.20961 0.0
N369 N 0.36955 0.60787 0.24853 0.0
C370 C 0.3444 0.58256 0.24479 0.0
C371 C 0.30445 0.629 0.26923 0.0
C372 C 0.29844 0.57928 0.25352 0.0
C373 C 0.34973 0.63129 0.25999 0.0
C374 C 0.27878 0.60278 0.26615 0.0
N375 N 0.40913 0.56414 0.22366 0.0
C376 C 0.42878 0.54377 0.20892 0.0
C377 C 0.33963 0.53367 0.22703 0.0
C378 C 0.36472 0.56004 0.23177 0.0
C379 C 0.36117 0.51167 0.21351 0.0
C380 C 0.40576 0.51691 0.20418 0.0
H381 H 0.24353 0.60117 0.27312 0.0
H382 H 0.23802 0.55002 0.25558 0.0
H383 H 0.27394 0.5102 0.23218 0.0
O384 O 0.44736 0.61197 0.19376 0.0
O385 O 0.43777 0.57514 0.26073 0.0
O386 O 0.50596 0.57342 0.28376 0.0
O387 O 0.39359 0.63557 0.21358 0.0
O388 O 0.50697 0.58796 0.21942 0.0
O389 O 0.54447 0.56596 0.25197 0.0
O390 O 0.57939 0.61273 0.30889 0.0
O391 O 0.55992 0.62707 0.23749 0.0
O392 O 0.48769 0.64819 0.23573 0.0
O393 O 0.6071 0.57473 0.28953 0.0
O394 O 0.49752 0.62371 0.28952 0.0
O395 O 0.45134 0.6436 0.25895 0.0
C396 C 0.46332 0.56478 0.27863 0.0
C397 C 0.39205 0.6433 0.17079 0.0
C398 C 0.37722 0.64263 0.12781 0.0
C399 C 0.35398 0.67018 0.12948 0.0
C400 C 0.3685 0.67073 0.17199 0.0
C401 C 0.34973 0.68407 0.15142 0.0
C402 C 0.39636 0.62925 0.14863 0.0
C403 C 0.53068 0.56593 0.22958 0.0
C404 C 0.4113 0.62965 0.19285 0.0
C405 C 0.27338 0.55295 0.24902 0.0
C406 C 0.29382 0.53029 0.23567 0.0
C407 C 0.53228 0.64893 0.23069 0.0
C408 C 0.6324 0.57964 0.33082 0.0
C409 C 0.64495 0.58051 0.37397 0.0
C410 C 0.67877 0.55803 0.37178 0.0
C411 C 0.66634 0.55724 0.32904 0.0
C412 C 0.62211 0.59146 0.35334 0.0
C413 C 0.68947 0.54661 0.34943 0.0
C414 C 0.46377 0.64122 0.28167 0.0
C415 C 0.60564 0.58901 0.30952 0.0
H416 H 0.33809 0.68071 0.11386 0.0
H417 H 0.36471 0.68194 0.18886 0.0
H418 H 0.33149 0.70515 0.15252 0.0
H419 H 0.4142 0.60797 0.14762 0.0
H420 H 0.6974 0.54953 0.38735 0.0
H421 H 0.67474 0.54773 0.31191 0.0
H422 H 0.5955 0.60848 0.35496 0.0
H423 H 0.71563 0.52935 0.34793 0.0
H424 H 0.19506 0.96453 0.35958 0.0
H425 H 0.20328 0.89037 0.31096 0.0
H426 H 0.16129 0.92043 0.2802 0.0
H427 H 0.08011 0.98575 0.34454 0.0
H428 H 0.0905 0.02533 0.34713 0.0
H429 H 0.12439 0.99901 0.36462 0.0
H430 H 0.20089 0.02183 0.34713 0.0
H431 H 0.16718 0.04846 0.32982 0.0
H432 H 0.20842 0.0247 0.31511 0.0
H433 H 0.11756 0.95833 0.25514 0.0
H434 H 0.07426 0.00129 0.23765 0.0
H435 H 0.09133 0.04911 0.30376 0.0
C436 C 0.18882 0.95475 0.34232 0.0
C437 C 0.20281 0.92524 0.33752 0.0
C438 C 0.19306 0.91303 0.31491 0.0
C439 C 0.16924 0.92989 0.29738 0.0
C440 C 0.15519 0.95873 0.30289 0.0
C441 C 0.1646 0.97105 0.32481 0.0
C442 C 0.14393 0.00198 0.32668 0.0
C443 C 0.10758 0.00305 0.34694 0.0
C444 C 0.18241 0.02563 0.32987 0.0
C445 C 0.1212 0.0051 0.30239 0.0
C446 C 0.12843 0.98005 0.28885 0.0
C447 C 0.11158 0.97804 0.26558 0.0
C448 C 0.08707 0.00246 0.25584 0.0
C449 C 0.07931 0.02824 0.2695 0.0
C450 C 0.09622 0.02943 0.29311 0.0
H451 H 0.33721 0.52588 0.87423 0.0
H452 H 0.34063 0.60195 0.82441 0.0
H453 H 0.39281 0.57389 0.79784 0.0
H454 H 0.45781 0.50322 0.86617 0.0
H455 H 0.44424 0.46386 0.86834 0.0
H456 H 0.40894 0.49035 0.88403 0.0
H457 H 0.33473 0.47055 0.86296 0.0
H458 H 0.36976 0.44384 0.84746 0.0
H459 H 0.33332 0.46956 0.83072 0.0
H460 H 0.44212 0.53716 0.77625 0.0
H461 H 0.48156 0.49333 0.75973 0.0
H462 H 0.44586 0.44092 0.82355 0.0
C463 C 0.34905 0.53679 0.8578 0.0
C464 C 0.33488 0.56621 0.85144 0.0
C465 C 0.35107 0.57951 0.8297 0.0
C466 C 0.38085 0.56378 0.81455 0.0
C467 C 0.39422 0.53489 0.82146 0.0
C468 C 0.37873 0.52148 0.84251 0.0
C469 C 0.39675 0.48976 0.84535 0.0
C470 C 0.42884 0.48662 0.86728 0.0
C471 C 0.35622 0.4671 0.84669 0.0
C472 C 0.42406 0.48714 0.82231 0.0
C473 C 0.42255 0.51358 0.80894 0.0
C474 C 0.44369 0.51642 0.78659 0.0
C475 C 0.46592 0.49138 0.77737 0.0
C476 C 0.46657 0.46377 0.79039 0.0
C477 C 0.44632 0.46184 0.81339 0.0
H478 H 0.67562 0.53741 0.63061 0.0
H479 H 0.71603 0.59928 0.68581 0.0
H480 H 0.68155 0.56542 0.71648 0.0
H481 H 0.56562 0.51564 0.65648 0.0
H482 H 0.56998 0.47701 0.64822 0.0
H483 H 0.59851 0.50571 0.63032 0.0
H484 H 0.67737 0.47812 0.63557 0.0
H485 H 0.64879 0.44939 0.65343 0.0
H486 H 0.69825 0.46914 0.6653 0.0
H487 H 0.63885 0.52767 0.74061 0.0
H488 H 0.59625 0.48513 0.75813 0.0
H489 H 0.58651 0.44474 0.68841 0.0
C490 C 0.67757 0.54373 0.64917 0.0
C491 C 0.69852 0.5711 0.6558 0.0
C492 C 0.70023 0.57852 0.68028 0.0
C493 C 0.68062 0.55947 0.69782 0.0
C494 C 0.65962 0.53302 0.69064 0.0
C495 C 0.65827 0.52488 0.667 0.0
C496 C 0.63341 0.49503 0.66433 0.0
C497 C 0.58926 0.49858 0.64892 0.0
C498 C 0.66644 0.47153 0.65405 0.0
C499 C 0.6211 0.48774 0.69024 0.0
C500 C 0.6363 0.51023 0.70494 0.0
C501 C 0.62776 0.50958 0.72938 0.0
C502 C 0.60392 0.48499 0.73923 0.0
C503 C 0.58973 0.46083 0.72493 0.0
C504 C 0.59766 0.46255 0.69993 0.0
H505 H 0.84401 0.92142 0.17219 0.0
H506 H 0.80177 0.97302 0.10904 0.0
H507 H 0.84161 0.01728 0.12443 0.0
H508 H 0.8319 0.98133 0.21531 0.0
H509 H 0.88245 0.96785 0.23151 0.0
H510 H 0.84746 0.94229 0.21492 0.0
H511 H 0.92523 0.92724 0.1937 0.0
H512 H 0.95736 0.95536 0.20941 0.0
H513 H 0.9578 0.95547 0.17716 0.0
H514 H 0.88905 0.05521 0.1451 0.0
H515 H 0.93732 0.08589 0.17167 0.0
H516 H 0.94551 0.01153 0.2228 0.0
C517 C 0.84279 0.94209 0.16172 0.0
C518 C 0.81951 0.94365 0.13945 0.0
C519 C 0.81912 0.97114 0.12621 0.0
C520 C 0.84178 0.99649 0.13475 0.0
C521 C 0.86456 0.99416 0.15663 0.0
C522 C 0.86513 0.9678 0.17004 0.0
C523 C 0.8926 0.97151 0.19293 0.0
C524 C 0.86164 0.96545 0.21497 0.0
C525 C 0.9358 0.95118 0.19331 0.0
C526 C 0.90641 0.00424 0.19049 0.0
C527 C 0.89055 0.01664 0.16915 0.0
C528 C 0.90114 0.04595 0.16204 0.0
C529 C 0.92856 0.06318 0.1772 0.0
C530 C 0.9443 0.05122 0.1994 0.0
C531 C 0.93297 0.02139 0.20615 0.0
H532 H 0.90069 0.09439 0.66533 0.0
H533 H 0.77246 0.05128 0.64345 0.0
H534 H 0.79597 0.00488 0.6652 0.0
H535 H 0.97527 0.03171 0.66215 0.0
H536 H 0.00815 0.03985 0.68868 0.0
H537 H 0.98138 0.0698 0.6716 0.0
H538 H 0.93735 0.08677 0.70949 0.0
H539 H 0.9644 0.05699 0.72669 0.0
H540 H 0.90172 0.06017 0.72609 0.0
H541 H 0.83988 0.96128 0.68332 0.0
H542 H 0.89239 0.92616 0.70495 0.0
H543 H 0.9843 0.99964 0.7222 0.0
C544 C 0.87733 0.07528 0.66553 0.0
C545 C 0.8348 0.07621 0.65279 0.0
C546 C 0.80497 0.05094 0.65332 0.0
C547 C 0.81819 0.0245 0.66545 0.0
C548 C 0.86071 0.02407 0.67753 0.0
C549 C 0.88919 0.04904 0.67833 0.0
C550 C 0.93239 0.04277 0.69327 0.0
C551 C 0.97692 0.04624 0.67801 0.0
C552 C 0.93404 0.06287 0.71519 0.0
C553 C 0.92394 0.01031 0.70053 0.0
C554 C 0.88308 0.99974 0.6906 0.0
C555 C 0.87089 0.96955 0.69203 0.0
C556 C 0.90076 0.94982 0.70435 0.0
C557 C 0.94076 0.96059 0.7162 0.0
C558 C 0.95272 0.99117 0.71413 0.0
H559 H 0.69003 0.50873 0.12326 0.0
H560 H 0.63311 0.42002 0.13808 0.0
H561 H 0.58823 0.43964 0.17188 0.0
H562 H 0.6987 0.53008 0.18638 0.0
H563 H 0.68373 0.56846 0.17943 0.0
H564 H 0.71361 0.54651 0.15761 0.0
H565 H 0.64765 0.55885 0.12719 0.0
H566 H 0.6175 0.58011 0.14932 0.0
H567 H 0.58805 0.54973 0.13491 0.0
H568 H 0.54968 0.46855 0.2041 0.0
H569 H 0.51585 0.50609 0.23106 0.0
H570 H 0.59368 0.57629 0.19385 0.0
C571 C 0.66821 0.49343 0.13365 0.0
C572 C 0.66507 0.46285 0.12803 0.0
C573 C 0.63619 0.44353 0.14209 0.0
C574 C 0.61064 0.45442 0.16137 0.0
C575 C 0.61447 0.48465 0.16643 0.0
C576 C 0.64244 0.50393 0.15299 0.0
C577 C 0.63939 0.53559 0.1619 0.0
C578 C 0.68666 0.54575 0.17194 0.0
C579 C 0.62208 0.55734 0.14215 0.0
C580 C 0.60366 0.5313 0.1817 0.0
C581 C 0.59077 0.50159 0.18445 0.0
C582 C 0.55933 0.4919 0.20209 0.0
C583 C 0.54037 0.51322 0.21727 0.0
C584 C 0.55196 0.54377 0.21413 0.0
C585 C 0.58395 0.55296 0.1962 0.0
H586 H 0.31338 0.42059 0.31826 0.0
H587 H 0.36385 0.43392 0.39041 0.0
H588 H 0.41178 0.47641 0.37582 0.0
H589 H 0.4221 0.44186 0.28689 0.0
H590 H 0.39151 0.46044 0.26265 0.0
H591 H 0.36481 0.42916 0.27841 0.0
H592 H 0.29261 0.46189 0.28791 0.0
H593 H 0.31974 0.49267 0.27196 0.0
H594 H 0.3011 0.49711 0.30246 0.0
H595 H 0.45158 0.51857 0.35385 0.0
H596 H 0.4809 0.55786 0.32602 0.0
H597 H 0.4021 0.51898 0.26815 0.0
C598 C 0.33506 0.43216 0.33094 0.0
C599 C 0.33566 0.42338 0.35544 0.0
C600 C 0.364 0.43939 0.37149 0.0
C601 C 0.391 0.46383 0.36338 0.0
C602 C 0.3892 0.47203 0.33918 0.0
C603 C 0.36217 0.45662 0.32315 0.0
C604 C 0.36496 0.47083 0.29827 0.0
C605 C 0.38717 0.44928 0.28051 0.0
C606 C 0.31667 0.48125 0.28969 0.0
C607 C 0.3969 0.49712 0.30293 0.0
C608 C 0.4109 0.4971 0.32661 0.0
C609 C 0.4409 0.5188 0.33528 0.0
C610 C 0.45735 0.54101 0.31931 0.0
C611 C 0.44344 0.5416 0.29496 0.0
C612 C 0.41259 0.51942 0.28672 0.0
H613 H 0.20875 0.05415 0.83879 0.0
H614 H 0.14876 0.02039 0.90567 0.0
H615 H 0.10217 0.98409 0.88361 0.0
H616 H 0.10397 0.04722 0.80278 0.0
H617 H 0.13449 0.03489 0.77657 0.0
H618 H 0.16341 0.05895 0.79735 0.0
H619 H 0.2303 0.02032 0.8025 0.0
H620 H 0.20141 0.9968 0.78143 0.0
H621 H 0.21613 0.98207 0.8107 0.0
H622 H 0.06491 0.95019 0.85547 0.0
H623 H 0.03674 0.92056 0.82213 0.0
H624 H 0.11565 0.97689 0.77212 0.0
C625 C 0.18572 0.03916 0.84874 0.0
C626 C 0.18249 0.04019 0.87401 0.0
C627 C 0.15196 0.02014 0.88636 0.0
C628 C 0.12521 0.99939 0.87399 0.0
C629 C 0.1291 0.99895 0.8492 0.0
C630 C 0.15835 0.01825 0.83659 0.0
C631 C 0.15611 0.0124 0.80993 0.0
C632 C 0.13843 0.04002 0.79583 0.0
C633 C 0.20386 0.00228 0.80062 0.0
C634 C 0.12075 0.987 0.80962 0.0
C635 C 0.10613 0.97958 0.83258 0.0
C636 C 0.07554 0.95602 0.83735 0.0
C637 C 0.0595 0.93939 0.81818 0.0
C638 C 0.07323 0.94661 0.79434 0.0
C639 C 0.10409 0.97095 0.79003 0.0
H640 H 0.20574 0.09396 0.97683 0.0
H641 H 0.27281 0.17871 0.99153 0.0
H642 H 0.24288 0.1756 0.03311 0.0
H643 H 0.10234 0.10246 0.01661 0.0
H644 H 0.10355 0.06345 0.0255 0.0
H645 H 0.12314 0.07504 0.99603 0.0
H646 H 0.2025 0.04906 0.00381 0.0
H647 H 0.18335 0.03751 0.03325 0.0
H648 H 0.23634 0.059 0.02963 0.0
H649 H 0.21376 0.16002 0.07434 0.0
H650 H 0.19152 0.13249 0.11157 0.0
H651 H 0.14447 0.05782 0.06957 0.0
C652 C 0.21309 0.11234 0.98854 0.0
C653 C 0.24134 0.13672 0.98085 0.0
C654 C 0.25109 0.15988 0.99699 0.0
C655 C 0.23404 0.15836 0.0206 0.0
C656 C 0.20732 0.13355 0.02777 0.0
C657 C 0.19685 0.11099 0.01214 0.0
C658 C 0.17218 0.08511 0.02478 0.0
C659 C 0.12234 0.08131 0.01516 0.0
C660 C 0.20029 0.05597 0.02275 0.0
C661 C 0.17184 0.09611 0.05017 0.0
C662 C 0.1914 0.12433 0.05152 0.0
C663 C 0.19774 0.13812 0.07343 0.0
C664 C 0.18487 0.12235 0.09449 0.0
C665 C 0.16639 0.09297 0.09351 0.0
C666 C 0.15873 0.08018 0.07095 0.0
H667 H 0.32204 0.39727 0.50601 0.0
H668 H 0.45793 0.3708 0.47967 0.0
H669 H 0.48998 0.37434 0.52054 0.0
H670 H 0.36119 0.45219 0.54272 0.0
H671 H 0.31935 0.44561 0.56642 0.0
H672 H 0.30516 0.43578 0.53628 0.0
H673 H 0.28783 0.38129 0.55044 0.0
H674 H 0.30179 0.39098 0.58074 0.0
H675 H 0.33163 0.36051 0.56681 0.0
H676 H 0.50943 0.38662 0.56282 0.0
H677 H 0.5154 0.40865 0.603 0.0
H678 H 0.36763 0.42834 0.60168 0.0
C679 C 0.35828 0.39151 0.50893 0.0
C680 C 0.38748 0.38367 0.48967 0.0
C681 C 0.43493 0.37686 0.49416 0.0
C682 C 0.45335 0.37862 0.51734 0.0
C683 C 0.42388 0.38715 0.53584 0.0
C684 C 0.37728 0.39341 0.5319 0.0
C685 C 0.35422 0.40512 0.55423 0.0
C686 C 0.33381 0.43654 0.54962 0.0
C687 C 0.31665 0.38316 0.56361 0.0
C688 C 0.39569 0.40596 0.57099 0.0
C689 C 0.43527 0.39476 0.56022 0.0
C690 C 0.47857 0.395 0.57157 0.0
C691 C 0.48172 0.40755 0.59429 0.0
C692 C 0.44193 0.41982 0.60524 0.0
C693 C 0.39829 0.41859 0.59367 0.0
H694 H 0.7428 0.33669 0.0126 0.0
H695 H 0.70947 0.42578 0.03636 0.0
H696 H 0.66615 0.43566 0.99926 0.0
H697 H 0.76421 0.35477 0.95366 0.0
H698 H 0.73766 0.32181 0.94152 0.0
H699 H 0.76068 0.3206 0.97139 0.0
H700 H 0.68014 0.30259 0.98749 0.0
H701 H 0.65672 0.30418 0.95755 0.0
H702 H 0.62888 0.32457 0.98104 0.0
H703 H 0.63468 0.43823 0.95741 0.0
H704 H 0.62247 0.43382 0.91374 0.0
H705 H 0.67363 0.34294 0.91744 0.0
C706 C 0.7258 0.35814 0.01022 0.0
C707 C 0.73054 0.38062 0.02745 0.0
C708 C 0.7077 0.40835 0.02346 0.0
C709 C 0.68219 0.41406 0.00245 0.0
C710 C 0.67891 0.39159 0.9857 0.0
C711 C 0.6999 0.3641 0.98942 0.0
C712 C 0.6943 0.34459 0.96781 0.0
C713 C 0.74205 0.33491 0.95802 0.0
C714 C 0.66316 0.31737 0.97384 0.0
C715 C 0.66978 0.36616 0.95076 0.0
C716 C 0.65988 0.39287 0.96165 0.0
C717 C 0.64111 0.41717 0.94886 0.0
C718 C 0.63397 0.41447 0.92414 0.0
C719 C 0.64592 0.38779 0.9126 0.0
C720 C 0.66271 0.36313 0.92618 0.0
H721 H 0.84167 0.15305 0.50422 0.0
H722 H 0.93148 0.07809 0.52299 0.0
H723 H 0.95474 0.07417 0.48079 0.0
H724 H 0.80513 0.12342 0.44571 0.0
H725 H 0.80396 0.15998 0.43144 0.0
H726 H 0.79159 0.15581 0.46299 0.0
H727 H 0.85691 0.19402 0.47221 0.0
H728 H 0.86954 0.19826 0.44074 0.0
H729 H 0.91525 0.18765 0.46135 0.0
H730 H 0.97189 0.07972 0.43719 0.0
H731 H 0.98218 0.09486 0.39474 0.0
H732 H 0.88142 0.16604 0.40345 0.0
C733 C 0.86596 0.1357 0.49941 0.0
C734 C 0.8848 0.11593 0.51701 0.0
C735 C 0.91645 0.09349 0.50992 0.0
C736 C 0.92988 0.09101 0.48594 0.0
C737 C 0.91108 0.11095 0.46909 0.0
C738 C 0.87958 0.13274 0.47541 0.0
C739 C 0.86558 0.15171 0.45372 0.0
C740 C 0.81347 0.14747 0.44814 0.0
C741 C 0.87756 0.18487 0.45722 0.0
C742 C 0.89589 0.13808 0.43454 0.0
C743 C 0.92113 0.11421 0.44375 0.0
C744 C 0.95203 0.09821 0.42969 0.0
C745 C 0.95754 0.10692 0.40559 0.0
C746 C 0.93263 0.1316 0.39576 0.0
C747 C 0.9012 0.14722 0.41049 0.0
H748 H 0.83669 0.84994 0.99655 0.0
H749 H 0.80935 0.93864 0.02306 0.0
H750 H 0.83406 0.96094 0.98437 0.0
H751 H 0.93767 0.8714 0.9566 0.0
H752 H 0.91923 0.84625 0.93368 0.0
H753 H 0.90733 0.83725 0.96473 0.0
H754 H 0.8193 0.83206 0.95513 0.0
H755 H 0.83092 0.841 0.92414 0.0
H756 H 0.78937 0.86281 0.9405 0.0
H757 H 0.85107 0.97347 0.94221 0.0
H758 H 0.85661 0.97526 0.89804 0.0
H759 H 0.8727 0.87898 0.89769 0.0
C760 C 0.83697 0.87406 0.99429 0.0
C761 C 0.82118 0.8926 0.01272 0.0
C762 C 0.82105 0.92404 0.00908 0.0
C763 C 0.83548 0.93695 0.98726 0.0
C764 C 0.84987 0.91811 0.96922 0.0
C765 C 0.85074 0.88735 0.97241 0.0
C766 C 0.86254 0.87217 0.94919 0.0
C767 C 0.9095 0.8558 0.95117 0.0
C768 C 0.82318 0.85076 0.94181 0.0
C769 C 0.86597 0.89915 0.93229 0.0
C770 C 0.85956 0.92545 0.94441 0.0
C771 C 0.85705 0.95315 0.93254 0.0
C772 C 0.86007 0.95399 0.90755 0.0
C773 C 0.86555 0.92733 0.8948 0.0
C774 C 0.86956 0.89966 0.90728 0.0
H775 H 0.64797 0.5681 0.51426 0.0
H776 H 0.67242 0.66386 0.51426 0.0
H777 H 0.65136 0.66717 0.47133 0.0
H778 H 0.70308 0.55649 0.46139 0.0
H779 H 0.6648 0.52718 0.45153 0.0
H780 H 0.67167 0.53347 0.48295 0.0
H781 H 0.58226 0.54001 0.4873 0.0
H782 H 0.57502 0.5338 0.45575 0.0
H783 H 0.55245 0.56734 0.46874 0.0
H784 H 0.63785 0.65886 0.42749 0.0
H785 H 0.64048 0.63932 0.38642 0.0
H786 H 0.62781 0.54884 0.41532 0.0
C787 C 0.64751 0.58992 0.50542 0.0
C788 C 0.66131 0.61578 0.51754 0.0
C789 C 0.66171 0.6438 0.50523 0.0
C790 C 0.64945 0.6459 0.48094 0.0
C791 C 0.63705 0.61976 0.4693 0.0
C792 C 0.63618 0.59228 0.48119 0.0
C793 C 0.62849 0.56699 0.46414 0.0
C794 C 0.66945 0.54475 0.46506 0.0
C795 C 0.58176 0.55111 0.46929 0.0
C796 C 0.62722 0.58435 0.44062 0.0
C797 C 0.63087 0.61482 0.44396 0.0
C798 C 0.63427 0.6351 0.42467 0.0
C799 C 0.63569 0.62384 0.40143 0.0
C800 C 0.63461 0.59261 0.39783 0.0
C801 C 0.62873 0.57282 0.41764 0.0
H802 H 0.3541 0.6457 0.98735 0.0
H803 H 0.29457 0.55659 0.994 0.0
H804 H 0.31952 0.55346 0.03635 0.0
H805 H 0.45343 0.63474 0.02937 0.0
H806 H 0.44682 0.67165 0.0412 0.0
H807 H 0.43161 0.66481 0.01051 0.0
H808 H 0.34849 0.68548 0.01786 0.0
H809 H 0.36353 0.69254 0.04842 0.0
H810 H 0.3136 0.66953 0.04186 0.0
H811 H 0.34359 0.56223 0.07895 0.0
H812 H 0.35681 0.58406 0.11866 0.0
H813 H 0.3988 0.6678 0.08419 0.0
C814 C 0.34723 0.62528 0.99759 0.0
C815 C 0.32267 0.60133 0.98746 0.0
C816 C 0.31327 0.57524 0.00152 0.0
C817 C 0.32773 0.57314 0.02549 0.0
C818 C 0.35133 0.59739 0.03511 0.0
C819 C 0.36072 0.62305 0.0216 0.0
C820 C 0.38104 0.6474 0.03681 0.0
C821 C 0.43121 0.65509 0.02901 0.0
C822 C 0.34979 0.67537 0.0362 0.0
C823 C 0.38014 0.63185 0.06114 0.0
C824 C 0.36401 0.60276 0.05975 0.0
C825 C 0.35686 0.58483 0.08022 0.0
C826 C 0.36463 0.59735 0.10269 0.0
C827 C 0.37869 0.62761 0.10444 0.0
C828 C 0.38807 0.6446 0.08334 0.0
H829 H 0.1343 0.86281 0.47723 0.0
H830 H 0.2604 0.91494 0.48791 0.0
H831 H 0.24181 0.91815 0.53088 0.0
H832 H 0.06125 0.90094 0.52094 0.0
H833 H 0.03257 0.86686 0.53081 0.0
H834 H 0.0536 0.87074 0.50047 0.0
H835 H 0.10214 0.82233 0.50621 0.0
H836 H 0.08136 0.81831 0.53653 0.0
H837 H 0.14318 0.81948 0.53057 0.0
H838 H 0.21298 0.91292 0.57265 0.0
H839 H 0.1768 0.89867 0.61114 0.0
H840 H 0.06814 0.85049 0.57374 0.0
C841 C 0.15774 0.87514 0.48858 0.0
C842 C 0.19882 0.88859 0.47928 0.0
C843 C 0.2289 0.90428 0.49471 0.0
C844 C 0.21849 0.90641 0.5191 0.0
C845 C 0.17797 0.89266 0.52774 0.0
C846 C 0.14807 0.87729 0.51302 0.0
C847 C 0.10837 0.863 0.52717 0.0
C848 C 0.06115 0.87618 0.51939 0.0
C849 C 0.10882 0.82875 0.52499 0.0
C850 C 0.1212 0.87227 0.55222 0.0
C851 C 0.16119 0.88963 0.55205 0.0
C852 C 0.18125 0.89972 0.57302 0.0
C853 C 0.16016 0.89163 0.59483 0.0
C854 C 0.11922 0.87368 0.59557 0.0
C855 C 0.09942 0.86414 0.57386 0.0
H856 H 0.12041 0.29202 0.32184 0.0
H857 H 0.25019 0.25337 0.34769 0.0
H858 H 0.22983 0.20565 0.32877 0.0
H859 H 0.05011 0.22687 0.33148 0.0
H860 H 0.0154 0.23301 0.30496 0.0
H861 H 0.04097 0.26435 0.31986 0.0
H862 H 0.0818 0.28124 0.28018 0.0
H863 H 0.05606 0.24994 0.26528 0.0
H864 H 0.11844 0.25516 0.2648 0.0
H865 H 0.19436 0.16182 0.30766 0.0
H866 H 0.14647 0.12536 0.28582 0.0
H867 H 0.04029 0.19293 0.27392 0.0
C868 C 0.14478 0.27363 0.32339 0.0
C869 C 0.18698 0.27645 0.33617 0.0
C870 C 0.21769 0.25173 0.33794 0.0
C871 C 0.20644 0.22455 0.32726 0.0
C872 C 0.16436 0.22247 0.31495 0.0
C873 C 0.13404 0.24636 0.31294 0.0
C874 C 0.09062 0.23817 0.29913 0.0
C875 C 0.04669 0.24075 0.3148 0.0
C876 C 0.08651 0.25727 0.27598 0.0
C877 C 0.10112 0.20591 0.29377 0.0
C878 C 0.14388 0.19727 0.30295 0.0
C879 C 0.16095 0.1684 0.30029 0.0
C880 C 0.13367 0.14793 0.28777 0.0
C881 C 0.09008 0.15652 0.27798 0.0
C882 C 0.07351 0.18579 0.28125 0.0
H883 H 0.42455 0.24206 0.88829 0.0
H884 H 0.323 0.20137 0.84129 0.0
H885 H 0.34366 0.23781 0.80936 0.0
H886 H 0.40328 0.31933 0.86764 0.0
H887 H 0.46372 0.33026 0.86973 0.0
H888 H 0.44073 0.3013 0.88944 0.0
H889 H 0.50506 0.26524 0.87525 0.0
H890 H 0.52795 0.29403 0.85537 0.0
H891 H 0.51125 0.25828 0.84375 0.0
H892 H 0.38006 0.27413 0.78137 0.0
H893 H 0.42353 0.3139 0.76009 0.0
H894 H 0.49564 0.33635 0.825 0.0
C895 C 0.4064 0.24104 0.87134 0.0
C896 C 0.37216 0.21877 0.86729 0.0
C897 C 0.34918 0.2182 0.84489 0.0
C898 C 0.3608 0.23874 0.82657 0.0
C899 C 0.39507 0.26001 0.83098 0.0
C900 C 0.41712 0.26177 0.85285 0.0
C901 C 0.45244 0.28728 0.85263 0.0
C902 C 0.43923 0.31095 0.87095 0.0
C903 C 0.50212 0.27549 0.85701 0.0
C904 C 0.44683 0.29927 0.82713 0.0
C905 C 0.41386 0.28284 0.81504 0.0
C906 C 0.40445 0.28799 0.79092 0.0
C907 C 0.42835 0.31115 0.77899 0.0
C908 C 0.45996 0.32959 0.79114 0.0
C909 C 0.47037 0.32311 0.81545 0.0
H910 H 0.63801 0.21794 0.65551 0.0
H911 H 0.78032 0.25156 0.65655 0.0
H912 H 0.75417 0.29532 0.67904 0.0
H913 H 0.58223 0.29052 0.64842 0.0
H914 H 0.53342 0.28059 0.66741 0.0
H915 H 0.56281 0.25216 0.65077 0.0
H916 H 0.57756 0.22167 0.69006 0.0
H917 H 0.54787 0.24989 0.70671 0.0
H918 H 0.60662 0.23934 0.71463 0.0
H919 H 0.71232 0.33613 0.70064 0.0
H920 H 0.65837 0.36914 0.72222 0.0
H921 H 0.54495 0.30705 0.71013 0.0
C922 C 0.6637 0.2345 0.66044 0.0
C923 C 0.71128 0.23129 0.65418 0.0
C924 C 0.74371 0.2535 0.66105 0.0
C925 C 0.72917 0.2785 0.67379 0.0
C926 C 0.68205 0.28105 0.67956 0.0
C927 C 0.6498 0.25959 0.67324 0.0
C928 C 0.60136 0.26745 0.68206 0.0
C929 C 0.56799 0.273 0.6609 0.0
C930 C 0.58226 0.24314 0.6994 0.0
C931 C 0.61164 0.29627 0.69483 0.0
C932 C 0.65825 0.304 0.69278 0.0
C933 C 0.6759 0.33007 0.7026 0.0
C934 C 0.6452 0.34848 0.71506 0.0
C935 C 0.59775 0.34043 0.71813 0.0
C936 C 0.58076 0.31409 0.70771 0.0
H937 H 0.9118 0.29192 0.14695 0.0
H938 H 0.79276 0.24342 0.1196 0.0
H939 H 0.81561 0.19876 0.14385 0.0
H940 H 0.99316 0.23087 0.1504 0.0
H941 H 0.0182 0.24315 0.17807 0.0
H942 H 0.99295 0.27001 0.15752 0.0
H943 H 0.93977 0.28806 0.19205 0.0
H944 H 0.96437 0.26031 0.21219 0.0
H945 H 0.90219 0.2615 0.20746 0.0
H946 H 0.85421 0.15881 0.16901 0.0
H947 H 0.90286 0.12707 0.19581 0.0
H948 H 0.9914 0.20315 0.21053 0.0
C949 C 0.89085 0.27177 0.14597 0.0
C950 C 0.85095 0.27077 0.13123 0.0
C951 C 0.82361 0.2444 0.13074 0.0
C952 C 0.83629 0.21903 0.14443 0.0
C953 C 0.8757 0.22077 0.15893 0.0
C954 C 0.90222 0.24657 0.16006 0.0
C955 C 0.94193 0.24287 0.17775 0.0
C956 C 0.98936 0.24694 0.16516 0.0
C957 C 0.93673 0.26447 0.1986 0.0
C958 C 0.93417 0.21074 0.18604 0.0
C959 C 0.89597 0.19836 0.17479 0.0
C960 C 0.88362 0.16841 0.17826 0.0
C961 C 0.91127 0.1506 0.19348 0.0
C962 C 0.94986 0.163 0.20548 0.0
C963 C 0.96129 0.19346 0.20191 0.0
H964 H 0.85616 0.75307 0.62827 0.0
H965 H 0.81464 0.69559 0.68818 0.0
H966 H 0.85219 0.73023 0.71621 0.0
H967 H 0.96937 0.77579 0.6527 0.0
H968 H 0.96464 0.81352 0.64081 0.0
H969 H 0.93651 0.78323 0.62574 0.0
H970 H 0.85816 0.81197 0.62842 0.0
H971 H 0.88662 0.84168 0.64409 0.0
H972 H 0.83677 0.82288 0.65729 0.0
H973 H 0.89565 0.76924 0.73739 0.0
H974 H 0.93892 0.8131 0.7513 0.0
H975 H 0.94829 0.84854 0.6788 0.0
C976 C 0.85533 0.74792 0.64731 0.0
C977 C 0.83294 0.72179 0.65632 0.0
C978 C 0.83196 0.71554 0.68118 0.0
C979 C 0.85317 0.735 0.69714 0.0
C980 C 0.87508 0.76061 0.68784 0.0
C981 C 0.87629 0.76729 0.66357 0.0
C982 C 0.90139 0.7968 0.65859 0.0
C983 C 0.94563 0.79202 0.64358 0.0
C984 C 0.86876 0.81968 0.64638 0.0
C985 C 0.91348 0.80575 0.6839 0.0
C986 C 0.89832 0.78424 0.70036 0.0
C987 C 0.90657 0.78661 0.72476 0.0
C988 C 0.93023 0.81188 0.73262 0.0
C989 C 0.94399 0.83491 0.71642 0.0
C990 C 0.93663 0.83155 0.69162 0.0
H991 H 0.70351 0.75098 0.15032 0.0
H992 H 0.63853 0.82812 0.18198 0.0
H993 H 0.588 0.79454 0.20657 0.0
H994 H 0.59489 0.70789 0.14729 0.0
H995 H 0.62357 0.67263 0.15295 0.0
H996 H 0.65453 0.70285 0.13799 0.0
H997 H 0.71907 0.69825 0.16954 0.0
H998 H 0.68829 0.66931 0.18615 0.0
H999 H 0.70555 0.70329 0.20062 0.0
H1000 H 0.54321 0.75284 0.22676 0.0
H1001 H 0.50792 0.70552 0.24194 0.0
H1002 H 0.60312 0.65523 0.19802 0.0
C1003 C 0.67887 0.76074 0.16259 0.0
C1004 C 0.67512 0.79209 0.16449 0.0
C1005 C 0.64187 0.80414 0.18031 0.0
C1006 C 0.61309 0.78526 0.19433 0.0
C1007 C 0.6175 0.75443 0.19198 0.0
C1008 C 0.64922 0.74222 0.17635 0.0
C1009 C 0.64572 0.70837 0.17663 0.0
C1010 C 0.62867 0.69729 0.15227 0.0
C1011 C 0.69241 0.69392 0.18368 0.0
C1012 C 0.60874 0.7034 0.19575 0.0
C1013 C 0.59218 0.73032 0.20394 0.0
C1014 C 0.55599 0.73163 0.22056 0.0
C1015 C 0.53603 0.70472 0.22897 0.0
C1016 C 0.55303 0.67693 0.22115 0.0
C1017 C 0.58998 0.67627 0.20444 0.0
H1018 H 0.31558 0.78218 0.32271 0.0
H1019 H 0.3657 0.76469 0.39478 0.0
H1020 H 0.41198 0.72195 0.38036 0.0
H1021 H 0.30581 0.70767 0.3037 0.0
H1022 H 0.32794 0.71487 0.27391 0.0
H1023 H 0.29894 0.74415 0.2897 0.0
H1024 H 0.37137 0.7786 0.28406 0.0
H1025 H 0.40025 0.74952 0.26795 0.0
H1026 H 0.42779 0.76539 0.29372 0.0
H1027 H 0.44558 0.67823 0.35867 0.0
H1028 H 0.47419 0.6409 0.33042 0.0
H1029 H 0.41205 0.69184 0.27153 0.0
C1030 C 0.33666 0.7694 0.33532 0.0
C1031 C 0.3371 0.77627 0.35982 0.0
C1032 C 0.36524 0.75954 0.37593 0.0
C1033 C 0.39137 0.73527 0.36792 0.0
C1034 C 0.38979 0.72872 0.34367 0.0
C1035 C 0.36417 0.74577 0.32748 0.0
C1036 C 0.36992 0.73465 0.30225 0.0
C1037 C 0.32285 0.72476 0.29179 0.0
C1038 C 0.39376 0.75846 0.28604 0.0
C1039 C 0.40157 0.70815 0.30691 0.0
C1040 C 0.4121 0.70486 0.33093 0.0
C1041 C 0.43821 0.68084 0.33975 0.0
C1042 C 0.45418 0.65971 0.32354 0.0
C1043 C 0.44473 0.66301 0.29871 0.0
C1044 C 0.41873 0.68795 0.29039 0.0
H1045 H 0.1588 0.73747 0.86315 0.0
H1046 H 0.17127 0.67258 0.80706 0.0
H1047 H 0.13593 0.70857 0.77816 0.0
H1048 H 0.04487 0.76452 0.8435 0.0
H1049 H 0.05624 0.80262 0.85164 0.0
H1050 H 0.08397 0.77226 0.86785 0.0
H1051 H 0.16512 0.79568 0.85865 0.0
H1052 H 0.13754 0.82611 0.84251 0.0
H1053 H 0.18137 0.80406 0.82802 0.0
H1054 H 0.10204 0.75204 0.75509 0.0
H1055 H 0.06658 0.7991 0.7399 0.0
H1056 H 0.07071 0.83461 0.81147 0.0
C1057 C 0.15418 0.731 0.84475 0.0
C1058 C 0.168 0.70243 0.83717 0.0
C1059 C 0.16078 0.6944 0.81312 0.0
C1060 C 0.14088 0.71468 0.79661 0.0
C1061 C 0.12739 0.74265 0.80459 0.0
C1062 C 0.13308 0.75071 0.82815 0.0
C1063 C 0.11352 0.78167 0.83224 0.0
C1064 C 0.0722 0.78016 0.84985 0.0
C1065 C 0.15168 0.80314 0.84086 0.0
C1066 C 0.0973 0.79003 0.80716 0.0
C1067 C 0.10571 0.76722 0.79149 0.0
C1068 C 0.09489 0.76997 0.76723 0.0
C1069 C 0.07489 0.79676 0.75875 0.0
C1070 C 0.06561 0.82033 0.77453 0.0
C1071 C 0.07681 0.81678 0.79906 0.0
loop_
_geom_bond_atom_site_label_1
_geom_bond_atom_site_label_2
_geom_bond_distance
_geom_bond_site_symmetry_2
_ccdc_geom_bond_type
O0 Cd1 2.300 . S
O0 C7 1.275 . S
Cd1 O0 2.300 . S
Cd1 O9 2.381 . S
Cd1 O10 2.378 . S
O2 Cd3 2.385 . S
O2 C7 1.255 . S
Cd3 O2 2.385 . S
Cd3 O4 2.317 . S
O4 Cd3 2.317 . S
O4 C5 1.232 . S
C5 O4 1.232 . S
C5 O6 1.218 . S
O6 C5 1.218 . S
C7 O0 1.275 . S
C7 O2 1.255 . S
C8 O9 1.258 . S
C8 O10 1.256 . S
O9 Cd1 2.381 . S
O9 C8 1.258 . S
O10 Cd1 2.378 . S
O10 C8 1.256 . S
O11 Cd12 2.300 . S
O11 C18 1.275 . S
Cd12 O11 2.300 . S
Cd12 O20 2.381 . S
Cd12 O21 2.378 . S
O13 Cd14 2.385 . S
O13 C18 1.255 . S
Cd14 O13 2.385 . S
Cd14 O15 2.317 . S
O15 Cd14 2.317 . S
O15 C16 1.232 . S
C16 O15 1.232 . S
C16 O17 1.218 . S
O17 C16 1.218 . S
C18 O11 1.275 . S
C18 O13 1.255 . S
C19 O20 1.258 . S
C19 O21 1.256 . S
O20 Cd12 2.381 . S
O20 C19 1.258 . S
O21 Cd12 2.378 . S
O21 C19 1.256 . S
O22 Cd23 2.300 . S
O22 C29 1.275 . S
Cd23 O22 2.300 . S
Cd23 O31 2.381 . S
Cd23 O32 2.378 . S
O24 Cd25 2.385 . S
O24 C29 1.255 . S
Cd25 O24 2.385 . S
Cd25 O26 2.317 . S
O26 Cd25 2.317 . S
O26 C27 1.232 . S
C27 O26 1.232 . S
C27 O28 1.218 . S
O28 C27 1.218 . S
C29 O22 1.275 . S
C29 O24 1.255 . S
C30 O31 1.258 . S
C30 O32 1.256 . S
O31 Cd23 2.381 . S
O31 C30 1.258 . S
O32 Cd23 2.378 . S
O32 C30 1.256 . S
O33 Cd34 2.300 . S
O33 C40 1.275 . S
Cd34 O33 2.300 . S
Cd34 O42 2.381 . S
Cd34 O43 2.378 . S
O35 Cd36 2.385 . S
O35 C40 1.255 . S
Cd36 O35 2.385 . S
Cd36 O37 2.317 . S
O37 Cd36 2.317 . S
O37 C38 1.232 . S
C38 O37 1.232 . S
C38 O39 1.218 . S
O39 C38 1.218 . S
C40 O33 1.275 . S
C40 O35 1.255 . S
C41 O42 1.258 . S
C41 O43 1.256 . S
O42 Cd34 2.381 . S
O42 C41 1.258 . S
O43 Cd34 2.378 . S
O43 C41 1.256 . S
O44 Cd45 2.300 . S
O44 C51 1.275 . S
Cd45 O44 2.300 . S
Cd45 O53 2.381 . S
Cd45 O54 2.378 . S
O46 Cd47 2.385 . S
O46 C51 1.255 . S
Cd47 O46 2.385 . S
Cd47 O48 2.317 . S
O48 Cd47 2.317 . S
O48 C49 1.232 . S
C49 O48 1.232 . S
C49 O50 1.218 . S
O50 C49 1.218 . S
C51 O44 1.275 . S
C51 O46 1.255 . S
C52 O53 1.258 . S
C52 O54 1.256 . S
O53 Cd45 2.381 . S
O53 C52 1.258 . S
O54 Cd45 2.378 . S
O54 C52 1.256 . S
O55 Cd56 2.300 . S
O55 C62 1.275 . S
Cd56 O55 2.300 . S
Cd56 O64 2.381 . S
Cd56 O65 2.378 . S
O57 Cd58 2.385 . S
O57 C62 1.255 . S
Cd58 O57 2.385 . S
Cd58 O59 2.317 . S
O59 Cd58 2.317 . S
O59 C60 1.232 . S
C60 O59 1.232 . S
C60 O61 1.218 . S
O61 C60 1.218 . S
C62 O55 1.275 . S
C62 O57 1.255 . S
C63 O64 1.258 . S
C63 O65 1.256 . S
O64 Cd56 2.381 . S
O64 C63 1.258 . S
O65 Cd56 2.378 . S
O65 C63 1.256 . S
O66 Cd67 2.300 . S
O66 C73 1.275 . S
Cd67 O66 2.300 . S
Cd67 O75 2.381 . S
Cd67 O76 2.378 . S
O68 Cd69 2.385 . S
O68 C73 1.255 . S
Cd69 O68 2.385 . S
Cd69 O70 2.317 . S
O70 Cd69 2.317 . S
O70 C71 1.232 . S
C71 O70 1.232 . S
C71 O72 1.218 . S
O72 C71 1.218 . S
C73 O66 1.275 . S
C73 O68 1.255 . S
C74 O75 1.258 . S
C74 O76 1.256 . S
O75 Cd67 2.381 . S
O75 C74 1.258 . S
O76 Cd67 2.378 . S
O76 C74 1.256 . S
O77 Cd78 2.300 . S
O77 C84 1.275 . S
Cd78 O77 2.300 . S
Cd78 O86 2.381 . S
Cd78 O87 2.378 . S
O79 Cd80 2.385 . S
O79 C84 1.255 . S
Cd80 O79 2.385 . S
Cd80 O81 2.317 . S
O81 Cd80 2.317 . S
O81 C82 1.232 . S
C82 O81 1.232 . S
C82 O83 1.218 . S
O83 C82 1.218 . S
C84 O77 1.275 . S
C84 O79 1.255 . S
C85 O86 1.258 . S
C85 O87 1.256 . S
O86 Cd78 2.381 . S
O86 C85 1.258 . S
O87 Cd78 2.378 . S
O87 C85 1.256 . S
Tb88 N117 2.617 . S
Tb88 N123 2.572 . S
Tb88 O132 2.465 . S
Tb88 O133 2.387 . S
Tb88 O135 2.428 . S
Tb88 O136 2.308 . S
Tb88 O140 2.349 . S
Tb88 O143 2.393 . S
Tb88 C152 2.802 . S
C89 N90 1.379 . S
C89 C92 1.416 . S
C89 C96 1.424 . S
N90 C89 1.379 . S
N90 C93 1.334 . S
N90 Tb99 2.617 . S
C91 C93 1.390 . S
C91 C94 1.339 . S
C91 H111 0.930 . S
C92 C89 1.416 . S
C92 C94 1.416 . S
C92 C98 1.448 . S
C93 N90 1.334 . S
C93 C91 1.390 . S
C93 H104 0.930 . S
C94 C91 1.339 . S
C94 C92 1.416 . S
C94 H115 0.930 . S
C95 C96 1.413 . S
C95 C97 1.427 . S
C95 C101 1.416 . S
C96 C89 1.424 . S
C96 C95 1.413 . S
C96 N100 1.361 . S
C97 C95 1.427 . S
C97 C98 1.328 . S
C97 H112 0.929 . S
C98 C92 1.448 . S
C98 C97 1.328 . S
C98 H113 0.930 . S
Tb99 N90 2.617 . S
Tb99 N100 2.572 . S
Tb99 O134 2.349 1_655 S
Tb99 O137 2.393 . S
Tb99 O138 2.465 . S
Tb99 O139 2.387 . S
Tb99 O141 2.428 . S
Tb99 O142 2.308 1_655 S
Tb99 C163 2.802 . S
N100 C96 1.361 . S
N100 Tb99 2.572 . S
N100 C102 1.340 . S
C101 C95 1.416 . S
C101 C103 1.332 . S
C101 H109 0.931 1_545 S
C102 N100 1.340 . S
C102 C103 1.407 . S
C102 H108 0.930 . S
C103 C101 1.332 . S
C103 C102 1.407 . S
C103 H105 0.929 1_545 S
H104 C93 0.930 . S
H105 C103 0.929 1_565 S
H106 C121 0.930 . S
H107 C128 0.929 . S
H108 C102 0.930 . S
H109 C101 0.931 1_565 S
H110 C124 0.930 . S
H111 C91 0.930 . S
H112 C97 0.929 . S
H113 C98 0.930 . S
H114 C119 0.930 . S
H115 C94 0.930 . S
H116 C127 0.931 . S
N117 Tb88 2.617 . S
N117 C118 1.379 . S
N117 C121 1.334 . S
C118 N117 1.379 . S
C118 C120 1.416 . S
C118 C126 1.424 . S
C119 H114 0.930 . S
C119 C121 1.390 . S
C119 C122 1.339 . S
C120 C118 1.416 . S
C120 C122 1.416 . S
C120 C153 1.448 . S
C121 H106 0.930 . S
C121 N117 1.334 . S
C121 C119 1.390 . S
C122 C119 1.339 . S
C122 C120 1.416 . S
C122 H129 0.930 . S
N123 Tb88 2.572 . S
N123 C124 1.340 . S
N123 C126 1.361 . S
C124 H110 0.930 . S
C124 N123 1.340 . S
C124 C128 1.407 . S
C125 C126 1.413 . S
C125 C127 1.416 . S
C125 C154 1.427 . S
C126 C118 1.424 . S
C126 N123 1.361 . S
C126 C125 1.413 . S
C127 H116 0.931 . S
C127 C125 1.416 . S
C127 C128 1.332 . S
C128 H107 0.929 . S
C128 C124 1.407 . S
C128 C127 1.332 . S
H129 C122 0.930 . S
H130 C153 0.930 . S
H131 C154 0.929 . S
O132 Tb88 2.465 . S
O132 C152 1.264 . S
O133 Tb88 2.387 . S
O133 C144 1.264 . S
O134 Tb99 2.349 1_455 S
O134 C144 1.243 . S
O135 Tb88 2.428 . S
O135 C152 1.256 . S
O136 Tb88 2.308 . S
O136 C151 1.266 1_455 S
O137 Tb99 2.393 . S
O137 C151 1.248 . S
O138 Tb99 2.465 . S
O138 C163 1.264 . S
O139 Tb99 2.387 . S
O139 C155 1.264 . S
O140 Tb88 2.349 . S
O140 C155 1.243 1_455 S
O141 Tb99 2.428 . S
O141 C163 1.256 . S
O142 Tb99 2.308 1_455 S
O142 C162 1.266 . S
O143 Tb88 2.393 . S
O143 C162 1.248 . S
C144 O133 1.264 . S
C144 O134 1.243 . S
C145 C148 1.399 . S
C145 C150 1.383 . S
C145 C152 1.496 . S
C146 C147 1.399 . S
C146 C150 1.389 . S
C147 C146 1.399 . S
C147 C149 1.380 . S
C147 H164 0.929 . S
C148 C145 1.399 . S
C148 C149 1.392 . S
C148 H165 0.929 . S
C149 C147 1.380 . S
C149 C148 1.392 . S
C149 H166 0.929 . S
C150 C145 1.383 . S
C150 C146 1.389 . S
C150 H167 0.931 . S
C151 O136 1.266 1_655 S
C151 O137 1.248 . S
C152 Tb88 2.802 . S
C152 O132 1.264 . S
C152 O135 1.256 . S
C152 C145 1.496 . S
C153 C120 1.448 . S
C153 H130 0.930 . S
C153 C154 1.328 . S
C154 C125 1.427 . S
C154 H131 0.929 . S
C154 C153 1.328 . S
C155 O139 1.264 . S
C155 O140 1.243 1_655 S
C156 C159 1.399 . S
C156 C160 1.383 . S
C156 C163 1.496 . S
C157 C158 1.399 . S
C157 C160 1.389 . S
C158 C157 1.399 . S
C158 C161 1.380 . S
C158 H168 0.929 . S
C159 C156 1.399 . S
C159 C161 1.392 . S
C159 H169 0.929 . S
C160 C156 1.383 . S
C160 C157 1.389 . S
C160 H170 0.931 . S
C161 C158 1.380 . S
C161 C159 1.392 . S
C161 H171 0.929 . S
C162 O142 1.266 . S
C162 O143 1.248 . S
C163 Tb99 2.802 . S
C163 O138 1.264 . S
C163 O141 1.256 . S
C163 C156 1.496 . S
H164 C147 0.929 . S
H165 C148 0.929 . S
H166 C149 0.929 . S
H167 C150 0.931 . S
H168 C158 0.929 . S
H169 C159 0.929 . S
H170 C160 0.931 . S
H171 C161 0.929 . S
Tb172 N201 2.617 . S
Tb172 N207 2.572 . S
Tb172 O216 2.465 . S
Tb172 O217 2.387 . S
Tb172 O219 2.428 . S
Tb172 O220 2.308 . S
Tb172 O224 2.349 . S
Tb172 O227 2.393 . S
Tb172 C236 2.802 . S
C173 N174 1.379 . S
C173 C176 1.416 . S
C173 C180 1.424 . S
N174 C173 1.379 . S
N174 C177 1.334 . S
N174 Tb183 2.617 . S
C175 C177 1.390 . S
C175 C178 1.339 . S
C175 H195 0.930 . S
C176 C173 1.416 . S
C176 C178 1.416 . S
C176 C182 1.448 . S
C177 N174 1.334 . S
C177 C175 1.390 . S
C177 H188 0.930 . S
C178 C175 1.339 . S
C178 C176 1.416 . S
C178 H199 0.930 . S
C179 C180 1.413 . S
C179 C181 1.427 . S
C179 C185 1.416 . S
C180 C173 1.424 . S
C180 C179 1.413 . S
C180 N184 1.361 . S
C181 C179 1.427 . S
C181 C182 1.328 . S
C181 H196 0.929 . S
C182 C176 1.448 . S
C182 C181 1.328 . S
C182 H197 0.930 . S
Tb183 N174 2.617 . S
Tb183 N184 2.572 . S
Tb183 O218 2.349 . S
Tb183 O221 2.393 . S
Tb183 O222 2.465 . S
Tb183 O223 2.387 . S
Tb183 O225 2.428 . S
Tb183 O226 2.308 . S
Tb183 C247 2.802 . S
N184 C180 1.361 . S
N184 Tb183 2.572 . S
N184 C186 1.340 . S
C185 C179 1.416 . S
C185 C187 1.332 . S
C185 H193 0.931 . S
C186 N184 1.340 . S
C186 C187 1.407 . S
C186 H192 0.930 . S
C187 C185 1.332 . S
C187 C186 1.407 . S
C187 H189 0.929 . S
H188 C177 0.930 . S
H189 C187 0.929 . S
H190 C205 0.930 . S
H191 C212 0.929 . S
H192 C186 0.930 . S
H193 C185 0.931 . S
H194 C208 0.930 . S
H195 C175 0.930 . S
H196 C181 0.929 . S
H197 C182 0.930 . S
H198 C203 0.930 . S
H199 C178 0.930 . S
H200 C211 0.931 . S
N201 Tb172 2.617 . S
N201 C202 1.379 . S
N201 C205 1.334 . S
C202 N201 1.379 . S
C202 C204 1.416 . S
C202 C210 1.424 . S
C203 H198 0.930 . S
C203 C205 1.390 . S
C203 C206 1.339 . S
C204 C202 1.416 . S
C204 C206 1.416 . S
C204 C237 1.448 . S
C205 H190 0.930 . S
C205 N201 1.334 . S
C205 C203 1.390 . S
C206 C203 1.339 . S
C206 C204 1.416 . S
C206 H213 0.930 . S
N207 Tb172 2.572 . S
N207 C208 1.340 . S
N207 C210 1.361 . S
C208 H194 0.930 . S
C208 N207 1.340 . S
C208 C212 1.407 . S
C209 C210 1.413 . S
C209 C211 1.416 . S
C209 C238 1.427 . S
C210 C202 1.424 . S
C210 N207 1.361 . S
C210 C209 1.413 . S
C211 H200 0.931 . S
C211 C209 1.416 . S
C211 C212 1.332 . S
C212 H191 0.929 . S
C212 C208 1.407 . S
C212 C211 1.332 . S
H213 C206 0.930 . S
H214 C237 0.930 . S
H215 C238 0.929 . S
O216 Tb172 2.465 . S
O216 C236 1.264 . S
O217 Tb172 2.387 . S
O217 C228 1.264 . S
O218 Tb183 2.349 . S
O218 C228 1.243 . S
O219 Tb172 2.428 . S
O219 C236 1.256 . S
O220 Tb172 2.308 . S
O220 C235 1.266 . S
O221 Tb183 2.393 . S
O221 C235 1.248 . S
O222 Tb183 2.465 . S
O222 C247 1.264 . S
O223 Tb183 2.387 . S
O223 C239 1.264 . S
O224 Tb172 2.349 . S
O224 C239 1.243 . S
O225 Tb183 2.428 . S
O225 C247 1.256 . S
O226 Tb183 2.308 . S
O226 C246 1.266 . S
O227 Tb172 2.393 . S
O227 C246 1.248 . S
C228 O217 1.264 . S
C228 O218 1.243 . S
C229 C232 1.399 . S
C229 C234 1.383 . S
C229 C236 1.496 . S
C230 C231 1.399 . S
C230 C234 1.389 . S
C231 C230 1.399 . S
C231 C233 1.380 . S
C231 H248 0.929 . S
C232 C229 1.399 . S
C232 C233 1.392 . S
C232 H249 0.929 . S
C233 C231 1.380 . S
C233 C232 1.392 . S
C233 H250 0.929 . S
C234 C229 1.383 . S
C234 C230 1.389 . S
C234 H251 0.931 . S
C235 O220 1.266 . S
C235 O221 1.248 . S
C236 Tb172 2.802 . S
C236 O216 1.264 . S
C236 O219 1.256 . S
C236 C229 1.496 . S
C237 C204 1.448 . S
C237 H214 0.930 . S
C237 C238 1.328 . S
C238 C209 1.427 . S
C238 H215 0.929 . S
C238 C237 1.328 . S
C239 O223 1.264 . S
C239 O224 1.243 . S
C240 C243 1.399 . S
C240 C244 1.383 . S
C240 C247 1.496 . S
C241 C242 1.399 . S
C241 C244 1.389 . S
C242 C241 1.399 . S
C242 C245 1.380 . S
C242 H252 0.929 . S
C243 C240 1.399 . S
C243 C245 1.392 . S
C243 H253 0.929 . S
C244 C240 1.383 . S
C244 C241 1.389 . S
C244 H254 0.931 . S
C245 C242 1.380 . S
C245 C243 1.392 . S
C245 H255 0.929 . S
C246 O226 1.266 . S
C246 O227 1.248 . S
C247 Tb183 2.802 . S
C247 O222 1.264 . S
C247 O225 1.256 . S
C247 C240 1.496 . S
H248 C231 0.929 . S
H249 C232 0.929 . S
H250 C233 0.929 . S
H251 C234 0.931 . S
H252 C242 0.929 . S
H253 C243 0.929 . S
H254 C244 0.931 . S
H255 C245 0.929 . S
Tb256 N285 2.617 . S
Tb256 N291 2.572 . S
Tb256 O300 2.465 . S
Tb256 O301 2.387 . S
Tb256 O303 2.428 . S
Tb256 O304 2.308 . S
Tb256 O308 2.360 . S
Tb256 O311 2.393 . S
Tb256 C320 2.802 . S
C257 N258 1.379 . S
C257 C260 1.416 . S
C257 C264 1.424 . S
N258 C257 1.379 . S
N258 C261 1.334 . S
N258 Tb267 2.617 . S
C259 C261 1.390 . S
C259 C262 1.339 . S
C259 H279 0.930 . S
C260 C257 1.416 . S
C260 C262 1.416 . S
C260 C266 1.448 . S
C261 N258 1.334 . S
C261 C259 1.390 . S
C261 H272 0.930 . S
C262 C259 1.339 . S
C262 C260 1.416 . S
C262 H283 0.930 . S
C263 C264 1.413 . S
C263 C265 1.427 . S
C263 C269 1.416 . S
C264 C257 1.424 . S
C264 C263 1.413 . S
C264 N268 1.361 . S
C265 C263 1.427 . S
C265 C266 1.328 . S
C265 H280 0.929 . S
C266 C260 1.448 . S
C266 C265 1.328 . S
C266 H281 0.930 . S
Tb267 N258 2.617 . S
Tb267 N268 2.572 . S
Tb267 O302 2.349 1_655 S
Tb267 O305 2.393 . S
Tb267 O306 2.465 . S
Tb267 O307 2.387 . S
Tb267 O309 2.428 . S
Tb267 O310 2.308 1_655 S
Tb267 C331 2.802 . S
N268 C264 1.361 . S
N268 Tb267 2.572 . S
N268 C270 1.340 . S
C269 C263 1.416 . S
C269 C271 1.332 . S
C269 H277 0.931 . S
C270 N268 1.340 . S
C270 C271 1.407 . S
C270 H276 0.930 . S
C271 C269 1.332 . S
C271 C270 1.407 . S
C271 H273 0.929 . S
H272 C261 0.930 . S
H273 C271 0.929 . S
H274 C289 0.930 . S
H275 C296 0.929 1_545 S
H276 C270 0.930 . S
H277 C269 0.931 . S
H278 C292 0.930 . S
H279 C259 0.930 . S
H280 C265 0.929 . S
H281 C266 0.930 . S
H282 C287 0.930 . S
H283 C262 0.930 . S
H284 C295 0.931 1_545 S
N285 Tb256 2.617 . S
N285 C286 1.379 . S
N285 C289 1.334 . S
C286 N285 1.379 . S
C286 C288 1.416 . S
C286 C294 1.424 . S
C287 H282 0.930 . S
C287 C289 1.390 . S
C287 C290 1.339 . S
C288 C286 1.416 . S
C288 C290 1.416 . S
C288 C321 1.448 . S
C289 H274 0.930 . S
C289 N285 1.334 . S
C289 C287 1.390 . S
C290 C287 1.339 . S
C290 C288 1.416 . S
C290 H297 0.930 . S
N291 Tb256 2.572 . S
N291 C292 1.340 . S
N291 C294 1.361 . S
C292 H278 0.930 . S
C292 N291 1.340 . S
C292 C296 1.407 . S
C293 C294 1.413 . S
C293 C295 1.416 . S
C293 C322 1.427 . S
C294 C286 1.424 . S
C294 N291 1.361 . S
C294 C293 1.413 . S
C295 H284 0.931 1_565 S
C295 C293 1.416 . S
C295 C296 1.332 . S
C296 H275 0.929 1_565 S
C296 C292 1.407 . S
C296 C295 1.332 . S
H297 C290 0.930 . S
H298 C321 0.930 . S
H299 C322 0.929 . S
O300 Tb256 2.465 . S
O300 C320 1.264 . S
O301 Tb256 2.387 . S
O301 C312 1.264 . S
O302 Tb267 2.349 1_455 S
O302 C312 1.243 . S
O303 Tb256 2.428 . S
O303 C320 1.256 . S
O304 Tb256 2.308 . S
O304 C319 1.266 1_455 S
O305 Tb267 2.393 . S
O305 C319 1.248 . S
O306 Tb267 2.465 . S
O306 C331 1.264 . S
O307 Tb267 2.387 . S
O307 C323 1.264 . S
O308 Tb256 2.360 . S
O308 C323 1.230 1_455 S
O309 Tb267 2.428 . S
O309 C331 1.256 . S
O310 Tb267 2.308 1_455 S
O310 C330 1.266 . S
O311 Tb256 2.393 . S
O311 C330 1.248 . S
C312 O301 1.264 . S
C312 O302 1.243 . S
C313 C316 1.399 . S
C313 C318 1.383 . S
C313 C320 1.496 . S
C314 C315 1.399 . S
C314 C318 1.389 . S
C315 C314 1.399 . S
C315 C317 1.380 . S
C315 H332 0.929 . S
C316 C313 1.399 . S
C316 C317 1.392 . S
C316 H333 0.929 . S
C317 C315 1.380 . S
C317 C316 1.392 . S
C317 H334 0.929 . S
C318 C313 1.383 . S
C318 C314 1.389 . S
C318 H335 0.931 . S
C319 O304 1.266 1_655 S
C319 O305 1.248 . S
C320 Tb256 2.802 . S
C320 O300 1.264 . S
C320 O303 1.256 . S
C320 C313 1.496 . S
C321 C288 1.448 . S
C321 H298 0.930 . S
C321 C322 1.328 . S
C322 C293 1.427 . S
C322 H299 0.929 . S
C322 C321 1.328 . S
C323 O307 1.264 . S
C323 O308 1.230 1_655 S
C324 C327 1.399 . S
C324 C328 1.383 . S
C324 C331 1.496 . S
C325 C326 1.399 . S
C325 C328 1.389 . S
C326 C325 1.399 . S
C326 C329 1.380 . S
C326 H336 0.929 . S
C327 C324 1.399 . S
C327 C329 1.392 . S
C327 H337 0.929 . S
C328 C324 1.383 . S
C328 C325 1.389 . S
C328 H338 0.931 . S
C329 C326 1.380 . S
C329 C327 1.392 . S
C329 H339 0.929 . S
C330 O310 1.266 . S
C330 O311 1.248 . S
C331 Tb267 2.802 . S
C331 O306 1.264 . S
C331 O309 1.256 . S
C331 C324 1.496 . S
H332 C315 0.929 . S
H333 C316 0.929 . S
H334 C317 0.929 . S
H335 C318 0.931 . S
H336 C326 0.929 . S
H337 C327 0.929 . S
H338 C328 0.931 . S
H339 C329 0.929 . S
Tb340 N369 2.617 . S
Tb340 N375 2.572 . S
Tb340 O384 2.465 . S
Tb340 O385 2.387 . S
Tb340 O387 2.428 . S
Tb340 O388 2.308 . S
Tb340 O392 2.349 . S
Tb340 O395 2.393 . S
Tb340 C404 2.802 . S
C341 N342 1.379 . S
C341 C344 1.416 . S
C341 C348 1.424 . S
N342 C341 1.379 . S
N342 C345 1.334 . S
N342 Tb351 2.617 . S
C343 C345 1.390 . S
C343 C346 1.339 . S
C343 H363 0.930 . S
C344 C341 1.416 . S
C344 C346 1.416 . S
C344 C350 1.448 . S
C345 N342 1.334 . S
C345 C343 1.390 . S
C345 H356 0.930 . S
C346 C343 1.339 . S
C346 C344 1.416 . S
C346 H367 0.930 . S
C347 C348 1.413 . S
C347 C349 1.427 . S
C347 C353 1.416 . S
C348 C341 1.424 . S
C348 C347 1.413 . S
C348 N352 1.361 . S
C349 C347 1.427 . S
C349 C350 1.328 . S
C349 H364 0.929 . S
C350 C344 1.448 . S
C350 C349 1.328 . S
C350 H365 0.930 . S
Tb351 N342 2.617 . S
Tb351 N352 2.572 . S
Tb351 O386 2.349 . S
Tb351 O389 2.393 . S
Tb351 O390 2.465 . S
Tb351 O391 2.387 . S
Tb351 O393 2.428 . S
Tb351 O394 2.308 . S
Tb351 C415 2.802 . S
N352 C348 1.361 . S
N352 Tb351 2.572 . S
N352 C354 1.340 . S
C353 C347 1.416 . S
C353 C355 1.332 . S
C353 H361 0.931 . S
C354 N352 1.340 . S
C354 C355 1.407 . S
C354 H360 0.930 . S
C355 C353 1.332 . S
C355 C354 1.407 . S
C355 H357 0.929 . S
H356 C345 0.930 . S
H357 C355 0.929 . S
H358 C373 0.930 . S
H359 C380 0.929 . S
H360 C354 0.930 . S
H361 C353 0.931 . S
H362 C376 0.930 . S
H363 C343 0.930 . S
H364 C349 0.929 . S
H365 C350 0.930 . S
H366 C371 0.930 . S
H367 C346 0.930 . S
H368 C379 0.931 . S
N369 Tb340 2.617 . S
N369 C370 1.379 . S
N369 C373 1.334 . S
C370 N369 1.379 . S
C370 C372 1.416 . S
C370 C378 1.424 . S
C371 H366 0.930 . S
C371 C373 1.390 . S
C371 C374 1.339 . S
C372 C370 1.416 . S
C372 C374 1.416 . S
C372 C405 1.448 . S
C373 H358 0.930 . S
C373 N369 1.334 . S
C373 C371 1.390 . S
C374 C371 1.339 . S
C374 C372 1.416 . S
C374 H381 0.930 . S
N375 Tb340 2.572 . S
N375 C376 1.340 . S
N375 C378 1.361 . S
C376 H362 0.930 . S
C376 N375 1.340 . S
C376 C380 1.407 . S
C377 C378 1.413 . S
C377 C379 1.416 . S
C377 C406 1.427 . S
C378 C370 1.424 . S
C378 N375 1.361 . S
C378 C377 1.413 . S
C379 H368 0.931 . S
C379 C377 1.416 . S
C379 C380 1.332 . S
C380 H359 0.929 . S
C380 C376 1.407 . S
C380 C379 1.332 . S
H381 C374 0.930 . S
H382 C405 0.930 . S
H383 C406 0.929 . S
O384 Tb340 2.465 . S
O384 C404 1.264 . S
O385 Tb340 2.387 . S
O385 C396 1.264 . S
O386 Tb351 2.349 . S
O386 C396 1.243 . S
O387 Tb340 2.428 . S
O387 C404 1.256 . S
O388 Tb340 2.308 . S
O388 C403 1.266 . S
O389 Tb351 2.393 . S
O389 C403 1.248 . S
O390 Tb351 2.465 . S
O390 C415 1.264 . S
O391 Tb351 2.387 . S
O391 C407 1.264 . S
O392 Tb340 2.349 . S
O392 C407 1.243 . S
O393 Tb351 2.428 . S
O393 C415 1.256 . S
O394 Tb351 2.308 . S
O394 C414 1.266 . S
O395 Tb340 2.393 . S
O395 C414 1.248 . S
C396 O385 1.264 . S
C396 O386 1.243 . S
C397 C400 1.399 . S
C397 C402 1.383 . S
C397 C404 1.496 . S
C398 C399 1.399 . S
C398 C402 1.389 . S
C399 C398 1.399 . S
C399 C401 1.380 . S
C399 H416 0.929 . S
C400 C397 1.399 . S
C400 C401 1.392 . S
C400 H417 0.929 . S
C401 C399 1.380 . S
C401 C400 1.392 . S
C401 H418 0.929 . S
C402 C397 1.383 . S
C402 C398 1.389 . S
C402 H419 0.931 . S
C403 O388 1.266 . S
C403 O389 1.248 . S
C404 Tb340 2.802 . S
C404 O384 1.264 . S
C404 O387 1.256 . S
C404 C397 1.496 . S
C405 C372 1.448 . S
C405 H382 0.930 . S
C405 C406 1.328 . S
C406 C377 1.427 . S
C406 H383 0.929 . S
C406 C405 1.328 . S
C407 O391 1.264 . S
C407 O392 1.243 . S
C408 C411 1.399 . S
C408 C412 1.383 . S
C408 C415 1.496 . S
C409 C410 1.399 . S
C409 C412 1.389 . S
C410 C409 1.399 . S
C410 C413 1.380 . S
C410 H420 0.929 . S
C411 C408 1.399 . S
C411 C413 1.392 . S
C411 H421 0.929 . S
C412 C408 1.383 . S
C412 C409 1.389 . S
C412 H422 0.931 . S
C413 C410 1.380 . S
C413 C411 1.392 . S
C413 H423 0.929 . S
C414 O394 1.266 . S
C414 O395 1.248 . S
C415 Tb351 2.802 . S
C415 O390 1.264 . S
C415 O393 1.256 . S
C415 C408 1.496 . S
H416 C399 0.929 . S
H417 C400 0.929 . S
H418 C401 0.929 . S
H419 C402 0.931 . S
H420 C410 0.929 . S
H421 C411 0.929 . S
H422 C412 0.931 . S
H423 C413 0.929 . S
H424 C436 0.930 . S
H425 C438 0.930 . S
H426 C439 0.930 . S
H427 C443 0.959 . S
H428 C443 0.959 . S
H429 C443 0.961 . S
H430 C444 0.960 . S
H431 C444 0.961 . S
H432 C444 0.959 . S
H433 C447 0.929 . S
H434 C448 0.931 . S
H435 C450 0.930 . S
C436 H424 0.930 . S
C436 C437 1.399 . S
C436 C441 1.399 . S
C437 C436 1.399 . S
C437 C438 1.376 . S
C438 H425 0.930 . S
C438 C437 1.376 . S
C438 C439 1.388 . S
C439 H426 0.930 . S
C439 C438 1.388 . S
C439 C440 1.390 . S
C440 C439 1.390 . S
C440 C441 1.394 . S
C440 C446 1.465 . S
C441 C436 1.399 . S
C441 C440 1.394 . S
C441 C442 1.516 1_565 S
C442 C441 1.516 1_545 S
C442 C443 1.502 . S
C442 C444 1.561 . S
C442 C445 1.526 . S
C443 H427 0.959 . S
C443 H428 0.959 . S
C443 H429 0.961 . S
C443 C442 1.502 . S
C444 H430 0.960 . S
C444 H431 0.961 . S
C444 H432 0.959 . S
C444 C442 1.561 . S
C445 C442 1.526 . S
C445 C446 1.396 1_545 S
C445 C450 1.390 . S
C446 C440 1.465 . S
C446 C445 1.396 1_565 S
C446 C447 1.399 . S
C447 H433 0.929 . S
C447 C446 1.399 . S
C447 C448 1.385 1_565 S
C448 H434 0.931 . S
C448 C447 1.385 1_545 S
C448 C449 1.389 . S
C449 C448 1.389 . S
C449 C450 1.387 . S
C450 H435 0.930 . S
C450 C445 1.390 . S
C450 C449 1.387 . S
H451 C463 0.930 . S
H452 C465 0.930 . S
H453 C466 0.930 . S
H454 C470 0.959 . S
H455 C470 0.959 . S
H456 C470 0.961 . S
H457 C471 0.960 . S
H458 C471 0.961 . S
H459 C471 0.959 . S
H460 C474 0.929 . S
H461 C475 0.931 . S
H462 C477 0.930 . S
C463 H451 0.930 . S
C463 C464 1.399 . S
C463 C468 1.399 . S
C464 C463 1.399 . S
C464 C465 1.376 . S
C465 H452 0.930 . S
C465 C464 1.376 . S
C465 C466 1.388 . S
C466 H453 0.930 . S
C466 C465 1.388 . S
C466 C467 1.390 . S
C467 C466 1.390 . S
C467 C468 1.394 . S
C467 C473 1.465 . S
C468 C463 1.399 . S
C468 C467 1.394 . S
C468 C469 1.516 . S
C469 C468 1.516 . S
C469 C470 1.502 . S
C469 C471 1.561 . S
C469 C472 1.526 . S
C470 H454 0.959 . S
C470 H455 0.959 . S
C470 H456 0.961 . S
C470 C469 1.502 . S
C471 H457 0.960 . S
C471 H458 0.961 . S
C471 H459 0.959 . S
C471 C469 1.561 . S
C472 C469 1.526 . S
C472 C473 1.396 . S
C472 C477 1.390 . S
C473 C467 1.465 . S
C473 C472 1.396 . S
C473 C474 1.399 . S
C474 H460 0.929 . S
C474 C473 1.399 . S
C474 C475 1.385 . S
C475 H461 0.931 . S
C475 C474 1.385 . S
C475 C476 1.389 . S
C476 C475 1.389 . S
C476 C477 1.387 . S
C477 H462 0.930 . S
C477 C472 1.390 . S
C477 C476 1.387 . S
H478 C490 0.930 . S
H479 C492 0.930 . S
H480 C493 0.930 . S
H481 C497 0.959 . S
H482 C497 0.959 . S
H483 C497 0.961 . S
H484 C498 0.960 . S
H485 C498 0.961 . S
H486 C498 0.959 . S
H487 C501 0.929 . S
H488 C502 0.931 . S
H489 C504 0.930 . S
C490 H478 0.930 . S
C490 C491 1.399 . S
C490 C495 1.399 . S
C491 C490 1.399 . S
C491 C492 1.376 . S
C492 H479 0.930 . S
C492 C491 1.376 . S
C492 C493 1.388 . S
C493 H480 0.930 . S
C493 C492 1.388 . S
C493 C494 1.390 . S
C494 C493 1.390 . S
C494 C495 1.394 . S
C494 C500 1.465 . S
C495 C490 1.399 . S
C495 C494 1.394 . S
C495 C496 1.516 . S
C496 C495 1.516 . S
C496 C497 1.502 . S
C496 C498 1.561 . S
C496 C499 1.526 . S
C497 H481 0.959 . S
C497 H482 0.959 . S
C497 H483 0.961 . S
C497 C496 1.502 . S
C498 H484 0.960 . S
C498 H485 0.961 . S
C498 H486 0.959 . S
C498 C496 1.561 . S
C499 C496 1.526 . S
C499 C500 1.396 . S
C499 C504 1.390 . S
C500 C494 1.465 . S
C500 C499 1.396 . S
C500 C501 1.399 . S
C501 H487 0.929 . S
C501 C500 1.399 . S
C501 C502 1.385 . S
C502 H488 0.931 . S
C502 C501 1.385 . S
C502 C503 1.389 . S
C503 C502 1.389 . S
C503 C504 1.387 . S
C504 H489 0.930 . S
C504 C499 1.390 . S
C504 C503 1.387 . S
H505 C517 0.930 . S
H506 C519 0.930 . S
H507 C520 0.930 1_545 S
H508 C524 0.959 . S
H509 C524 0.959 . S
H510 C524 0.961 . S
H511 C525 0.960 . S
H512 C525 0.961 . S
H513 C525 0.959 . S
H514 C528 0.929 . S
H515 C529 0.931 . S
H516 C531 0.928 1_565 S
C517 H505 0.930 . S
C517 C518 1.399 . S
C517 C522 1.399 . S
C518 C517 1.399 . S
C518 C519 1.376 . S
C519 H506 0.930 . S
C519 C518 1.376 . S
C519 C520 1.388 . S
C520 H507 0.930 1_565 S
C520 C519 1.388 . S
C520 C521 1.390 . S
C521 C520 1.390 . S
C521 C522 1.394 . S
C521 C527 1.465 1_565 S
C522 C517 1.399 . S
C522 C521 1.394 . S
C522 C523 1.516 . S
C523 C522 1.516 . S
C523 C524 1.502 . S
C523 C525 1.561 . S
C523 C526 1.526 . S
C524 H508 0.959 . S
C524 H509 0.959 . S
C524 H510 0.961 . S
C524 C523 1.502 . S
C525 H511 0.960 . S
C525 H512 0.961 . S
C525 H513 0.959 . S
C525 C523 1.561 . S
C526 C523 1.526 . S
C526 C527 1.396 1_565 S
C526 C531 1.390 1_565 S
C527 C521 1.465 1_545 S
C527 C526 1.396 1_545 S
C527 C528 1.399 . S
C528 H514 0.929 . S
C528 C527 1.399 . S
C528 C529 1.385 . S
C529 H515 0.931 . S
C529 C528 1.385 . S
C529 C530 1.389 . S
C530 C529 1.389 . S
C530 C531 1.387 . S
C531 H516 0.928 1_545 S
C531 C526 1.390 1_545 S
C531 C530 1.387 . S
H532 C544 0.930 . S
H533 C546 0.930 . S
H534 C547 0.930 . S
H535 C551 0.959 . S
H536 C551 0.959 1_455 S
H537 C551 0.961 . S
H538 C552 0.960 . S
H539 C552 0.961 . S
H540 C552 0.959 . S
H541 C555 0.929 . S
H542 C556 0.931 . S
H543 C558 0.930 . S
C544 H532 0.930 . S
C544 C545 1.399 . S
C544 C549 1.399 . S
C545 C544 1.399 . S
C545 C546 1.376 . S
C546 H533 0.930 . S
C546 C545 1.376 . S
C546 C547 1.388 . S
C547 H534 0.930 . S
C547 C546 1.388 . S
C547 C548 1.390 . S
C548 C547 1.390 . S
C548 C549 1.394 . S
C548 C554 1.493 . S
C549 C544 1.399 . S
C549 C548 1.394 . S
C549 C550 1.516 . S
C550 C549 1.516 . S
C550 C551 1.502 . S
C550 C552 1.561 . S
C550 C553 1.526 . S
C551 H535 0.959 . S
C551 H536 0.959 1_655 S
C551 H537 0.961 . S
C551 C550 1.502 . S
C552 H538 0.960 . S
C552 H539 0.961 . S
C552 H540 0.959 . S
C552 C550 1.561 . S
C553 C550 1.526 . S
C553 C554 1.409 . S
C553 C558 1.390 1_545 S
C554 C548 1.493 . S
C554 C553 1.409 . S
C554 C555 1.364 1_545 S
C555 H541 0.929 . S
C555 C554 1.364 1_565 S
C555 C556 1.385 . S
C556 H542 0.931 . S
C556 C555 1.385 . S
C556 C557 1.389 . S
C557 C556 1.389 . S
C557 C558 1.387 . S
C558 H543 0.930 . S
C558 C553 1.390 1_565 S
C558 C557 1.387 . S
H559 C571 0.930 . S
H560 C573 0.930 . S
H561 C574 0.930 . S
H562 C578 0.959 . S
H563 C578 0.959 . S
H564 C578 0.961 . S
H565 C579 0.960 . S
H566 C579 0.961 . S
H567 C579 0.959 . S
H568 C582 0.929 . S
H569 C583 0.931 . S
H570 C585 0.930 . S
C571 H559 0.930 . S
C571 C572 1.399 . S
C571 C576 1.399 . S
C572 C571 1.399 . S
C572 C573 1.376 . S
C573 H560 0.930 . S
C573 C572 1.376 . S
C573 C574 1.388 . S
C574 H561 0.930 . S
C574 C573 1.388 . S
C574 C575 1.390 . S
C575 C574 1.390 . S
C575 C576 1.394 . S
C575 C581 1.465 . S
C576 C571 1.399 . S
C576 C575 1.394 . S
C576 C577 1.516 . S
C577 C576 1.516 . S
C577 C578 1.502 . S
C577 C579 1.561 . S
C577 C580 1.526 . S
C578 H562 0.959 . S
C578 H563 0.959 . S
C578 H564 0.961 . S
C578 C577 1.502 . S
C579 H565 0.960 . S
C579 H566 0.961 . S
C579 H567 0.959 . S
C579 C577 1.561 . S
C580 C577 1.526 . S
C580 C581 1.396 . S
C580 C585 1.390 . S
C581 C575 1.465 . S
C581 C580 1.396 . S
C581 C582 1.399 . S
C582 H568 0.929 . S
C582 C581 1.399 . S
C582 C583 1.385 . S
C583 H569 0.931 . S
C583 C582 1.385 . S
C583 C584 1.389 . S
C584 C583 1.389 . S
C584 C585 1.387 . S
C585 H570 0.930 . S
C585 C580 1.390 . S
C585 C584 1.387 . S
H586 C598 0.930 . S
H587 C600 0.930 . S
H588 C601 0.930 . S
H589 C605 0.959 . S
H590 C605 0.959 . S
H591 C605 0.961 . S
H592 C606 0.960 . S
H593 C606 0.961 . S
H594 C606 0.959 . S
H595 C609 0.929 . S
H596 C610 0.931 . S
H597 C612 0.930 . S
C598 H586 0.930 . S
C598 C599 1.399 . S
C598 C603 1.399 . S
C599 C598 1.399 . S
C599 C600 1.376 . S
C600 H587 0.930 . S
C600 C599 1.376 . S
C600 C601 1.388 . S
C601 H588 0.930 . S
C601 C600 1.388 . S
C601 C602 1.390 . S
C602 C601 1.390 . S
C602 C603 1.394 . S
C602 C608 1.465 . S
C603 C598 1.399 . S
C603 C602 1.394 . S
C603 C604 1.516 . S
C604 C603 1.516 . S
C604 C605 1.502 . S
C604 C606 1.561 . S
C604 C607 1.526 . S
C605 H589 0.959 . S
C605 H590 0.959 . S
C605 H591 0.961 . S
C605 C604 1.502 . S
C606 H592 0.960 . S
C606 H593 0.961 . S
C606 H594 0.959 . S
C606 C604 1.561 . S
C607 C604 1.526 . S
C607 C608 1.396 . S
C607 C612 1.390 . S
C608 C602 1.465 . S
C608 C607 1.396 . S
C608 C609 1.399 . S
C609 H595 0.929 . S
C609 C608 1.399 . S
C609 C610 1.385 . S
C610 H596 0.931 . S
C610 C609 1.385 . S
C610 C611 1.389 . S
C611 C610 1.389 . S
C611 C612 1.387 . S
C612 H597 0.930 . S
C612 C607 1.390 . S
C612 C611 1.387 . S
H613 C625 0.930 . S
H614 C627 0.930 . S
H615 C628 0.930 1_565 S
H616 C632 0.959 . S
H617 C632 0.959 . S
H618 C632 0.961 . S
H619 C633 0.937 1_545 S
H620 C633 0.971 . S
H621 C633 0.991 . S
H622 C636 0.929 . S
H623 C637 0.931 . S
H624 C639 0.930 . S
C625 H613 0.930 . S
C625 C626 1.399 . S
C625 C630 1.399 . S
C626 C625 1.399 . S
C626 C627 1.376 . S
C627 H614 0.930 . S
C627 C626 1.376 . S
C627 C628 1.388 . S
C628 H615 0.930 1_545 S
C628 C627 1.388 . S
C628 C629 1.390 . S
C629 C628 1.390 . S
C629 C630 1.394 . S
C629 C635 1.465 1_545 S
C630 C625 1.399 . S
C630 C629 1.394 . S
C630 C631 1.516 . S
C631 C630 1.516 . S
C631 C632 1.502 . S
C631 C633 1.543 1_545 S
C631 C634 1.526 1_545 S
C632 H616 0.959 . S
C632 H617 0.959 . S
C632 H618 0.961 . S
C632 C631 1.502 . S
C633 H619 0.937 1_565 S
C633 H620 0.971 . S
C633 H621 0.991 . S
C633 C631 1.543 1_565 S
C634 C631 1.526 1_565 S
C634 C635 1.396 . S
C634 C639 1.390 . S
C635 C629 1.465 1_565 S
C635 C634 1.396 . S
C635 C636 1.399 . S
C636 H622 0.929 . S
C636 C635 1.399 . S
C636 C637 1.385 . S
C637 H623 0.931 . S
C637 C636 1.385 . S
C637 C638 1.389 . S
C638 C637 1.389 . S
C638 C639 1.387 . S
C639 H624 0.930 . S
C639 C634 1.390 . S
C639 C638 1.387 . S
H640 C652 0.930 . S
H641 C654 0.930 . S
H642 C655 0.930 . S
H643 C659 0.959 . S
H644 C659 0.959 . S
H645 C659 0.961 1_556 S
H646 C660 0.960 . S
H647 C660 0.961 . S
H648 C660 0.959 . S
H649 C663 0.929 . S
H650 C664 0.931 . S
H651 C666 0.930 . S
C652 H640 0.930 . S
C652 C653 1.399 . S
C652 C657 1.399 1_556 S
C653 C652 1.399 . S
C653 C654 1.376 . S
C654 H641 0.930 . S
C654 C653 1.376 . S
C654 C655 1.388 1_556 S
C655 H642 0.930 . S
C655 C654 1.388 1_554 S
C655 C656 1.390 . S
C656 C655 1.390 . S
C656 C657 1.394 . S
C656 C662 1.465 . S
C657 C652 1.399 1_554 S
C657 C656 1.394 . S
C657 C658 1.516 . S
C658 C657 1.516 . S
C658 C659 1.502 . S
C658 C660 1.561 . S
C658 C661 1.526 . S
C659 H643 0.959 . S
C659 H644 0.959 . S
C659 H645 0.961 1_554 S
C659 C658 1.502 . S
C660 H646 0.960 . S
C660 H647 0.961 . S
C660 H648 0.959 . S
C660 C658 1.561 . S
C661 C658 1.526 . S
C661 C662 1.396 . S
C661 C666 1.390 . S
C662 C656 1.465 . S
C662 C661 1.396 . S
C662 C663 1.399 . S
C663 H649 0.929 . S
C663 C662 1.399 . S
C663 C664 1.385 . S
C664 H650 0.931 . S
C664 C663 1.385 . S
C664 C665 1.389 . S
C665 C664 1.389 . S
C665 C666 1.387 . S
C666 H651 0.930 . S
C666 C661 1.390 . S
C666 C665 1.387 . S
H667 C679 0.930 . S
H668 C681 0.930 . S
H669 C682 0.930 . S
H670 C686 0.959 . S
H671 C686 0.959 . S
H672 C686 0.961 . S
H673 C687 0.960 . S
H674 C687 0.961 . S
H675 C687 0.959 . S
H676 C690 0.929 . S
H677 C691 0.931 . S
H678 C693 0.930 . S
C679 H667 0.930 . S
C679 C680 1.399 . S
C679 C684 1.399 . S
C680 C679 1.399 . S
C680 C681 1.376 . S
C681 H668 0.930 . S
C681 C680 1.376 . S
C681 C682 1.388 . S
C682 H669 0.930 . S
C682 C681 1.388 . S
C682 C683 1.390 . S
C683 C682 1.390 . S
C683 C684 1.394 . S
C683 C689 1.465 . S
C684 C679 1.399 . S
C684 C683 1.394 . S
C684 C685 1.516 . S
C685 C684 1.516 . S
C685 C686 1.502 . S
C685 C687 1.561 . S
C685 C688 1.526 . S
C686 H670 0.959 . S
C686 H671 0.959 . S
C686 H672 0.961 . S
C686 C685 1.502 . S
C687 H673 0.960 . S
C687 H674 0.961 . S
C687 H675 0.959 . S
C687 C685 1.561 . S
C688 C685 1.526 . S
C688 C689 1.396 . S
C688 C693 1.390 . S
C689 C683 1.465 . S
C689 C688 1.396 . S
C689 C690 1.399 . S
C690 H676 0.929 . S
C690 C689 1.399 . S
C690 C691 1.385 . S
C691 H677 0.931 . S
C691 C690 1.385 . S
C691 C692 1.389 . S
C692 C691 1.389 . S
C692 C693 1.387 . S
C693 H678 0.930 . S
C693 C688 1.390 . S
C693 C692 1.387 . S
H694 C706 0.930 . S
H695 C708 0.930 . S
H696 C709 0.930 . S
H697 C713 0.959 . S
H698 C713 0.959 . S
H699 C713 0.961 . S
H700 C714 0.960 . S
H701 C714 0.961 . S
H702 C714 0.959 . S
H703 C717 0.929 . S
H704 C718 0.931 . S
H705 C720 0.930 . S
C706 H694 0.930 . S
C706 C707 1.399 . S
C706 C711 1.399 1_554 S
C707 C706 1.399 . S
C707 C708 1.376 . S
C708 H695 0.930 . S
C708 C707 1.376 . S
C708 C709 1.388 . S
C709 H696 0.930 . S
C709 C708 1.388 . S
C709 C710 1.390 1_554 S
C710 C709 1.390 1_556 S
C710 C711 1.394 . S
C710 C716 1.465 . S
C711 C706 1.399 1_556 S
C711 C710 1.394 . S
C711 C712 1.516 . S
C712 C711 1.516 . S
C712 C713 1.502 . S
C712 C714 1.561 . S
C712 C715 1.526 . S
C713 H697 0.959 . S
C713 H698 0.959 . S
C713 H699 0.961 . S
C713 C712 1.502 . S
C714 H700 0.960 . S
C714 H701 0.961 . S
C714 H702 0.959 . S
C714 C712 1.561 . S
C715 C712 1.526 . S
C715 C716 1.396 . S
C715 C720 1.390 . S
C716 C710 1.465 . S
C716 C715 1.396 . S
C716 C717 1.399 . S
C717 H703 0.929 . S
C717 C716 1.399 . S
C717 C718 1.385 . S
C718 H704 0.931 . S
C718 C717 1.385 . S
C718 C719 1.389 . S
C719 C718 1.389 . S
C719 C720 1.387 . S
C720 H705 0.930 . S
C720 C715 1.390 . S
C720 C719 1.387 . S
H721 C733 0.930 . S
H722 C735 0.930 . S
H723 C736 0.930 . S
H724 C740 0.959 . S
H725 C740 0.959 . S
H726 C740 0.961 . S
H727 C741 0.960 . S
H728 C741 0.961 . S
H729 C741 0.959 . S
H730 C744 0.929 . S
H731 C745 0.931 . S
H732 C747 0.930 . S
C733 H721 0.930 . S
C733 C734 1.399 . S
C733 C738 1.399 . S
C734 C733 1.399 . S
C734 C735 1.376 . S
C735 H722 0.930 . S
C735 C734 1.376 . S
C735 C736 1.388 . S
C736 H723 0.930 . S
C736 C735 1.388 . S
C736 C737 1.390 . S
C737 C736 1.390 . S
C737 C738 1.394 . S
C737 C743 1.465 . S
C738 C733 1.399 . S
C738 C737 1.394 . S
C738 C739 1.516 . S
C739 C738 1.516 . S
C739 C740 1.502 . S
C739 C741 1.561 . S
C739 C742 1.526 . S
C740 H724 0.959 . S
C740 H725 0.959 . S
C740 H726 0.961 . S
C740 C739 1.502 . S
C741 H727 0.960 . S
C741 H728 0.961 . S
C741 H729 0.959 . S
C741 C739 1.561 . S
C742 C739 1.526 . S
C742 C743 1.396 . S
C742 C747 1.390 . S
C743 C737 1.465 . S
C743 C742 1.396 . S
C743 C744 1.399 . S
C744 H730 0.929 . S
C744 C743 1.399 . S
C744 C745 1.385 . S
C745 H731 0.931 . S
C745 C744 1.385 . S
C745 C746 1.389 . S
C746 C745 1.389 . S
C746 C747 1.387 . S
C747 H732 0.930 . S
C747 C742 1.390 . S
C747 C746 1.387 . S
H748 C760 0.930 . S
H749 C762 0.930 . S
H750 C763 0.930 . S
H751 C767 0.959 . S
H752 C767 0.959 . S
H753 C767 0.961 . S
H754 C768 0.960 . S
H755 C768 0.961 . S
H756 C768 0.959 . S
H757 C771 0.929 . S
H758 C772 0.931 . S
H759 C774 0.930 . S
C760 H748 0.930 . S
C760 C761 1.399 . S
C760 C765 1.399 1_554 S
C761 C760 1.399 . S
C761 C762 1.376 . S
C762 H749 0.930 . S
C762 C761 1.376 . S
C762 C763 1.388 1_554 S
C763 H750 0.930 . S
C763 C762 1.388 1_556 S
C763 C764 1.390 . S
C764 C763 1.390 . S
C764 C765 1.394 . S
C764 C770 1.465 . S
C765 C760 1.399 1_556 S
C765 C764 1.394 . S
C765 C766 1.516 . S
C766 C765 1.516 . S
C766 C767 1.502 . S
C766 C768 1.561 . S
C766 C769 1.526 . S
C767 H751 0.959 . S
C767 H752 0.959 . S
C767 H753 0.961 . S
C767 C766 1.502 . S
C768 H754 0.960 . S
C768 H755 0.961 . S
C768 H756 0.959 . S
C768 C766 1.561 . S
C769 C766 1.526 . S
C769 C770 1.396 . S
C769 C774 1.390 . S
C770 C764 1.465 . S
C770 C769 1.396 . S
C770 C771 1.399 . S
C771 H757 0.929 . S
C771 C770 1.399 . S
C771 C772 1.385 . S
C772 H758 0.931 . S
C772 C771 1.385 . S
C772 C773 1.389 . S
C773 C772 1.389 . S
C773 C774 1.387 . S
C774 H759 0.930 . S
C774 C769 1.390 . S
C774 C773 1.387 . S
H775 C787 0.930 . S
H776 C789 0.930 . S
H777 C790 0.930 . S
H778 C794 0.959 . S
H779 C794 0.959 . S
H780 C794 0.961 . S
H781 C795 0.960 . S
H782 C795 0.961 . S
H783 C795 0.959 . S
H784 C798 0.929 . S
H785 C799 0.931 . S
H786 C801 0.930 . S
C787 H775 0.930 . S
C787 C788 1.399 . S
C787 C792 1.399 . S
C788 C787 1.399 . S
C788 C789 1.376 . S
C789 H776 0.930 . S
C789 C788 1.376 . S
C789 C790 1.388 . S
C790 H777 0.930 . S
C790 C789 1.388 . S
C790 C791 1.390 . S
C791 C790 1.390 . S
C791 C792 1.394 . S
C791 C797 1.465 . S
C792 C787 1.399 . S
C792 C791 1.394 . S
C792 C793 1.516 . S
C793 C792 1.516 . S
C793 C794 1.502 . S
C793 C795 1.561 . S
C793 C796 1.526 . S
C794 H778 0.959 . S
C794 H779 0.959 . S
C794 H780 0.961 . S
C794 C793 1.502 . S
C795 H781 0.960 . S
C795 H782 0.961 . S
C795 H783 0.959 . S
C795 C793 1.561 . S
C796 C793 1.526 . S
C796 C797 1.396 . S
C796 C801 1.390 . S
C797 C791 1.465 . S
C797 C796 1.396 . S
C797 C798 1.399 . S
C798 H784 0.929 . S
C798 C797 1.399 . S
C798 C799 1.385 . S
C799 H785 0.931 . S
C799 C798 1.385 . S
C799 C800 1.389 . S
C800 C799 1.389 . S
C800 C801 1.387 . S
C801 H786 0.930 . S
C801 C796 1.390 . S
C801 C800 1.387 . S
H802 C814 0.930 . S
H803 C816 0.930 . S
H804 C817 0.930 . S
H805 C821 0.959 . S
H806 C821 0.959 . S
H807 C821 0.961 . S
H808 C822 0.960 . S
H809 C822 0.961 . S
H810 C822 0.959 . S
H811 C825 0.929 . S
H812 C826 0.931 . S
H813 C828 0.930 . S
C814 H802 0.930 . S
C814 C815 1.399 . S
C814 C819 1.399 1_556 S
C815 C814 1.399 . S
C815 C816 1.376 . S
C816 H803 0.930 . S
C816 C815 1.376 . S
C816 C817 1.388 1_556 S
C817 H804 0.930 . S
C817 C816 1.388 1_554 S
C817 C818 1.390 . S
C818 C817 1.390 . S
C818 C819 1.394 . S
C818 C824 1.465 . S
C819 C814 1.399 1_554 S
C819 C818 1.394 . S
C819 C820 1.516 . S
C820 C819 1.516 . S
C820 C821 1.502 . S
C820 C822 1.561 . S
C820 C823 1.526 . S
C821 H805 0.959 . S
C821 H806 0.959 . S
C821 H807 0.961 . S
C821 C820 1.502 . S
C822 H808 0.960 . S
C822 H809 0.961 . S
C822 H810 0.959 . S
C822 C820 1.561 . S
C823 C820 1.526 . S
C823 C824 1.396 . S
C823 C828 1.390 . S
C824 C818 1.465 . S
C824 C823 1.396 . S
C824 C825 1.399 . S
C825 H811 0.929 . S
C825 C824 1.399 . S
C825 C826 1.385 . S
C826 H812 0.931 . S
C826 C825 1.385 . S
C826 C827 1.389 . S
C827 C826 1.389 . S
C827 C828 1.387 . S
C828 H813 0.930 . S
C828 C823 1.390 . S
C828 C827 1.387 . S
H829 C841 0.930 . S
H830 C843 0.930 . S
H831 C844 0.930 . S
H832 C848 0.959 . S
H833 C848 0.959 . S
H834 C848 0.961 . S
H835 C849 0.960 . S
H836 C849 0.961 . S
H837 C849 0.959 . S
H838 C852 0.929 . S
H839 C853 0.931 . S
H840 C855 0.930 . S
C841 H829 0.930 . S
C841 C842 1.399 . S
C841 C846 1.399 . S
C842 C841 1.399 . S
C842 C843 1.376 . S
C843 H830 0.930 . S
C843 C842 1.376 . S
C843 C844 1.388 . S
C844 H831 0.930 . S
C844 C843 1.388 . S
C844 C845 1.390 . S
C845 C844 1.390 . S
C845 C846 1.394 . S
C845 C851 1.465 . S
C846 C841 1.399 . S
C846 C845 1.394 . S
C846 C847 1.516 . S
C847 C846 1.516 . S
C847 C848 1.502 . S
C847 C849 1.561 . S
C847 C850 1.526 . S
C848 H832 0.959 . S
C848 H833 0.959 . S
C848 H834 0.961 . S
C848 C847 1.502 . S
C849 H835 0.960 . S
C849 H836 0.961 . S
C849 H837 0.959 . S
C849 C847 1.561 . S
C850 C847 1.526 . S
C850 C851 1.396 . S
C850 C855 1.390 . S
C851 C845 1.465 . S
C851 C850 1.396 . S
C851 C852 1.399 . S
C852 H838 0.929 . S
C852 C851 1.399 . S
C852 C853 1.385 . S
C853 H839 0.931 . S
C853 C852 1.385 . S
C853 C854 1.389 . S
C854 C853 1.389 . S
C854 C855 1.387 . S
C855 H840 0.930 . S
C855 C850 1.390 . S
C855 C854 1.387 . S
H856 C868 0.930 . S
H857 C870 0.930 . S
H858 C871 0.930 . S
H859 C875 0.959 . S
H860 C875 0.959 . S
H861 C875 0.961 . S
H862 C876 0.960 . S
H863 C876 0.961 . S
H864 C876 0.959 . S
H865 C879 0.929 . S
H866 C880 0.931 . S
H867 C882 0.930 . S
C868 H856 0.930 . S
C868 C869 1.399 . S
C868 C873 1.399 . S
C869 C868 1.399 . S
C869 C870 1.376 . S
C870 H857 0.930 . S
C870 C869 1.376 . S
C870 C871 1.388 . S
C871 H858 0.930 . S
C871 C870 1.388 . S
C871 C872 1.390 . S
C872 C871 1.390 . S
C872 C873 1.394 . S
C872 C878 1.465 . S
C873 C868 1.399 . S
C873 C872 1.394 . S
C873 C874 1.516 . S
C874 C873 1.516 . S
C874 C875 1.502 . S
C874 C876 1.561 . S
C874 C877 1.526 . S
C875 H859 0.959 . S
C875 H860 0.959 . S
C875 H861 0.961 . S
C875 C874 1.502 . S
C876 H862 0.960 . S
C876 H863 0.961 . S
C876 H864 0.959 . S
C876 C874 1.561 . S
C877 C874 1.526 . S
C877 C878 1.396 . S
C877 C882 1.390 . S
C878 C872 1.465 . S
C878 C877 1.396 . S
C878 C879 1.399 . S
C879 H865 0.929 . S
C879 C878 1.399 . S
C879 C880 1.385 . S
C880 H866 0.931 . S
C880 C879 1.385 . S
C880 C881 1.389 . S
C881 C880 1.389 . S
C881 C882 1.387 . S
C882 H867 0.930 . S
C882 C877 1.390 . S
C882 C881 1.387 . S
H883 C895 0.930 . S
H884 C897 0.930 . S
H885 C898 0.930 . S
H886 C902 0.959 . S
H887 C902 0.959 . S
H888 C902 0.961 . S
H889 C903 0.960 . S
H890 C903 0.961 . S
H891 C903 0.959 . S
H892 C906 0.929 . S
H893 C907 0.931 . S
H894 C909 0.930 . S
C895 H883 0.930 . S
C895 C896 1.399 . S
C895 C900 1.399 . S
C896 C895 1.399 . S
C896 C897 1.376 . S
C897 H884 0.930 . S
C897 C896 1.376 . S
C897 C898 1.388 . S
C898 H885 0.930 . S
C898 C897 1.388 . S
C898 C899 1.390 . S
C899 C898 1.390 . S
C899 C900 1.394 . S
C899 C905 1.465 . S
C900 C895 1.399 . S
C900 C899 1.394 . S
C900 C901 1.516 . S
C901 C900 1.516 . S
C901 C902 1.502 . S
C901 C903 1.561 . S
C901 C904 1.526 . S
C902 H886 0.959 . S
C902 H887 0.959 . S
C902 H888 0.961 . S
C902 C901 1.502 . S
C903 H889 0.960 . S
C903 H890 0.961 . S
C903 H891 0.959 . S
C903 C901 1.561 . S
C904 C901 1.526 . S
C904 C905 1.396 . S
C904 C909 1.390 . S
C905 C899 1.465 . S
C905 C904 1.396 . S
C905 C906 1.399 . S
C906 H892 0.929 . S
C906 C905 1.399 . S
C906 C907 1.385 . S
C907 H893 0.931 . S
C907 C906 1.385 . S
C907 C908 1.389 . S
C908 C907 1.389 . S
C908 C909 1.387 . S
C909 H894 0.930 . S
C909 C904 1.390 . S
C909 C908 1.387 . S
H910 C922 0.930 . S
H911 C924 0.930 . S
H912 C925 0.930 . S
H913 C929 0.959 . S
H914 C929 0.959 . S
H915 C929 0.961 . S
H916 C930 0.960 . S
H917 C930 0.961 . S
H918 C930 0.959 . S
H919 C933 0.929 . S
H920 C934 0.931 . S
H921 C936 0.930 . S
C922 H910 0.930 . S
C922 C923 1.399 . S
C922 C927 1.399 . S
C923 C922 1.399 . S
C923 C924 1.376 . S
C924 H911 0.930 . S
C924 C923 1.376 . S
C924 C925 1.388 . S
C925 H912 0.930 . S
C925 C924 1.388 . S
C925 C926 1.390 . S
C926 C925 1.390 . S
C926 C927 1.394 . S
C926 C932 1.465 . S
C927 C922 1.399 . S
C927 C926 1.394 . S
C927 C928 1.516 . S
C928 C927 1.516 . S
C928 C929 1.502 . S
C928 C930 1.561 . S
C928 C931 1.526 . S
C929 H913 0.959 . S
C929 H914 0.959 . S
C929 H915 0.961 . S
C929 C928 1.502 . S
C930 H916 0.960 . S
C930 H917 0.961 . S
C930 H918 0.959 . S
C930 C928 1.561 . S
C931 C928 1.526 . S
C931 C932 1.396 . S
C931 C936 1.390 . S
C932 C926 1.465 . S
C932 C931 1.396 . S
C932 C933 1.399 . S
C933 H919 0.929 . S
C933 C932 1.399 . S
C933 C934 1.385 . S
C934 H920 0.931 . S
C934 C933 1.385 . S
C934 C935 1.389 . S
C935 C934 1.389 . S
C935 C936 1.387 . S
C936 H921 0.930 . S
C936 C931 1.390 . S
C936 C935 1.387 . S
H937 C949 0.930 . S
H938 C951 0.930 . S
H939 C952 0.930 . S
H940 C956 0.959 1_455 S
H941 C956 0.959 1_455 S
H942 C956 0.961 . S
H943 C957 0.960 . S
H944 C957 0.961 . S
H945 C957 0.959 . S
H946 C960 0.929 . S
H947 C961 0.931 . S
H948 C963 0.930 . S
C949 H937 0.930 . S
C949 C950 1.399 . S
C949 C954 1.399 . S
C950 C949 1.399 . S
C950 C951 1.376 . S
C951 H938 0.930 . S
C951 C950 1.376 . S
C951 C952 1.388 . S
C952 H939 0.930 . S
C952 C951 1.388 . S
C952 C953 1.390 . S
C953 C952 1.390 . S
C953 C954 1.394 . S
C953 C959 1.465 . S
C954 C949 1.399 . S
C954 C953 1.394 . S
C954 C955 1.516 . S
C955 C954 1.516 . S
C955 C956 1.502 . S
C955 C957 1.561 . S
C955 C958 1.526 . S
C956 H940 0.959 1_655 S
C956 H941 0.959 1_655 S
C956 H942 0.961 . S
C956 C955 1.502 . S
C957 H943 0.960 . S
C957 H944 0.961 . S
C957 H945 0.959 . S
C957 C955 1.561 . S
C958 C955 1.526 . S
C958 C959 1.396 . S
C958 C963 1.390 . S
C959 C953 1.465 . S
C959 C958 1.396 . S
C959 C960 1.399 . S
C960 H946 0.929 . S
C960 C959 1.399 . S
C960 C961 1.385 . S
C961 H947 0.931 . S
C961 C960 1.385 . S
C961 C962 1.389 . S
C962 C961 1.389 . S
C962 C963 1.387 . S
C963 H948 0.930 . S
C963 C958 1.390 . S
C963 C962 1.387 . S
H964 C976 0.930 . S
H965 C978 0.930 . S
H966 C979 0.930 . S
H967 C983 0.959 . S
H968 C983 0.959 . S
H969 C983 0.961 . S
H970 C984 0.960 . S
H971 C984 0.961 . S
H972 C984 0.959 . S
H973 C987 0.929 . S
H974 C988 0.931 . S
H975 C990 0.930 . S
C976 H964 0.930 . S
C976 C977 1.399 . S
C976 C981 1.399 . S
C977 C976 1.399 . S
C977 C978 1.376 . S
C978 H965 0.930 . S
C978 C977 1.376 . S
C978 C979 1.388 . S
C979 H966 0.930 . S
C979 C978 1.388 . S
C979 C980 1.390 . S
C980 C979 1.390 . S
C980 C981 1.394 . S
C980 C986 1.465 . S
C981 C976 1.399 . S
C981 C980 1.394 . S
C981 C982 1.516 . S
C982 C981 1.516 . S
C982 C983 1.502 . S
C982 C984 1.561 . S
C982 C985 1.526 . S
C983 H967 0.959 . S
C983 H968 0.959 . S
C983 H969 0.961 . S
C983 C982 1.502 . S
C984 H970 0.960 . S
C984 H971 0.961 . S
C984 H972 0.959 . S
C984 C982 1.561 . S
C985 C982 1.526 . S
C985 C986 1.396 . S
C985 C990 1.390 . S
C986 C980 1.465 . S
C986 C985 1.396 . S
C986 C987 1.399 . S
C987 H973 0.929 . S
C987 C986 1.399 . S
C987 C988 1.385 . S
C988 H974 0.931 . S
C988 C987 1.385 . S
C988 C989 1.389 . S
C989 C988 1.389 . S
C989 C990 1.387 . S
C990 H975 0.930 . S
C990 C985 1.390 . S
C990 C989 1.387 . S
H991 C1003 0.930 . S
H992 C1005 0.930 . S
H993 C1006 0.930 . S
H994 C1010 0.959 . S
H995 C1010 0.959 . S
H996 C1010 0.961 . S
H997 C1011 0.960 . S
H998 C1011 0.961 . S
H999 C1011 0.959 . S
H1000 C1014 0.929 . S
H1001 C1015 0.931 . S
H1002 C1017 0.930 . S
C1003 H991 0.930 . S
C1003 C1004 1.399 . S
C1003 C1008 1.399 . S
C1004 C1003 1.399 . S
C1004 C1005 1.376 . S
C1005 H992 0.930 . S
C1005 C1004 1.376 . S
C1005 C1006 1.388 . S
C1006 H993 0.930 . S
C1006 C1005 1.388 . S
C1006 C1007 1.390 . S
C1007 C1006 1.390 . S
C1007 C1008 1.394 . S
C1007 C1013 1.465 . S
C1008 C1003 1.399 . S
C1008 C1007 1.394 . S
C1008 C1009 1.516 . S
C1009 C1008 1.516 . S
C1009 C1010 1.502 . S
C1009 C1011 1.561 . S
C1009 C1012 1.526 . S
C1010 H994 0.959 . S
C1010 H995 0.959 . S
C1010 H996 0.961 . S
C1010 C1009 1.502 . S
C1011 H997 0.960 . S
C1011 H998 0.961 . S
C1011 H999 0.959 . S
C1011 C1009 1.561 . S
C1012 C1009 1.526 . S
C1012 C1013 1.396 . S
C1012 C1017 1.390 . S
C1013 C1007 1.465 . S
C1013 C1012 1.396 . S
C1013 C1014 1.399 . S
C1014 H1000 0.929 . S
C1014 C1013 1.399 . S
C1014 C1015 1.385 . S
C1015 H1001 0.931 . S
C1015 C1014 1.385 . S
C1015 C1016 1.389 . S
C1016 C1015 1.389 . S
C1016 C1017 1.387 . S
C1017 H1002 0.930 . S
C1017 C1012 1.390 . S
C1017 C1016 1.387 . S
H1018 C1030 0.930 . S
H1019 C1032 0.930 . S
H1020 C1033 0.930 . S
H1021 C1037 0.959 . S
H1022 C1037 0.959 . S
H1023 C1037 0.961 . S
H1024 C1038 0.960 . S
H1025 C1038 0.961 . S
H1026 C1038 0.959 . S
H1027 C1041 0.929 . S
H1028 C1042 0.931 . S
H1029 C1044 0.930 . S
C1030 H1018 0.930 . S
C1030 C1031 1.399 . S
C1030 C1035 1.399 . S
C1031 C1030 1.399 . S
C1031 C1032 1.376 . S
C1032 H1019 0.930 . S
C1032 C1031 1.376 . S
C1032 C1033 1.388 . S
C1033 H1020 0.930 . S
C1033 C1032 1.388 . S
C1033 C1034 1.390 . S
C1034 C1033 1.390 . S
C1034 C1035 1.394 . S
C1034 C1040 1.465 . S
C1035 C1030 1.399 . S
C1035 C1034 1.394 . S
C1035 C1036 1.516 . S
C1036 C1035 1.516 . S
C1036 C1037 1.502 . S
C1036 C1038 1.561 . S
C1036 C1039 1.526 . S
C1037 H1021 0.959 . S
C1037 H1022 0.959 . S
C1037 H1023 0.961 . S
C1037 C1036 1.502 . S
C1038 H1024 0.960 . S
C1038 H1025 0.961 . S
C1038 H1026 0.959 . S
C1038 C1036 1.561 . S
C1039 C1036 1.526 . S
C1039 C1040 1.396 . S
C1039 C1044 1.390 . S
C1040 C1034 1.465 . S
C1040 C1039 1.396 . S
C1040 C1041 1.399 . S
C1041 H1027 0.929 . S
C1041 C1040 1.399 . S
C1041 C1042 1.385 . S
C1042 H1028 0.931 . S
C1042 C1041 1.385 . S
C1042 C1043 1.389 . S
C1043 C1042 1.389 . S
C1043 C1044 1.387 . S
C1044 H1029 0.930 . S
C1044 C1039 1.390 . S
C1044 C1043 1.387 . S
H1045 C1057 0.930 . S
H1046 C1059 0.930 . S
H1047 C1060 0.930 . S
H1048 C1064 0.959 . S
H1049 C1064 0.959 . S
H1050 C1064 0.961 . S
H1051 C1065 0.960 . S
H1052 C1065 0.961 . S
H1053 C1065 0.959 . S
H1054 C1068 0.929 . S
H1055 C1069 0.931 . S
H1056 C1071 0.930 . S
C1057 H1045 0.930 . S
C1057 C1058 1.399 . S
C1057 C1062 1.399 . S
C1058 C1057 1.399 . S
C1058 C1059 1.376 . S
C1059 H1046 0.930 . S
C1059 C1058 1.376 . S
C1059 C1060 1.388 . S
C1060 H1047 0.930 . S
C1060 C1059 1.388 . S
C1060 C1061 1.390 . S
C1061 C1060 1.390 . S
C1061 C1062 1.394 . S
C1061 C1067 1.465 . S
C1062 C1057 1.399 . S
C1062 C1061 1.394 . S
C1062 C1063 1.516 . S
C1063 C1062 1.516 . S
C1063 C1064 1.502 . S
C1063 C1065 1.561 . S
C1063 C1066 1.526 . S
C1064 H1048 0.959 . S
C1064 H1049 0.959 . S
C1064 H1050 0.961 . S
C1064 C1063 1.502 . S
C1065 H1051 0.960 . S
C1065 H1052 0.961 . S
C1065 H1053 0.959 . S
C1065 C1063 1.561 . S
C1066 C1063 1.526 . S
C1066 C1067 1.396 . S
C1066 C1071 1.390 . S
C1067 C1061 1.465 . S
C1067 C1066 1.396 . S
C1067 C1068 1.399 . S
C1068 H1054 0.929 . S
C1068 C1067 1.399 . S
C1068 C1069 1.385 . S
C1069 H1055 0.931 . S
C1069 C1068 1.385 . S
C1069 C1070 1.389 . S
C1070 C1069 1.389 . S
C1070 C1071 1.387 . S
C1071 H1056 0.930 . S
C1071 C1066 1.390 . S
C1071 C1070 1.387 . S
C437 C73 1.575 . S
C449 C162 1.620 . S
C476 C246 1.722 . S
C464 C84 1.707 . S
C503 C239 1.646 . S
C491 C51 1.561 . S
C518 C62 1.749 . S
C530 C155 1.749 . S
C557 C319 1.641 . S
C545 C29 1.598 . S
C584 C403 1.595 . S
C572 C38 1.496 . S
C599 C7 1.610 . S
C611 C396 1.636 . S
C626 C16 1.454 . S
C638 C312 1.571 . S
C665 C146 1.497 . S
C653 C18 1.632 . S
C692 C230 1.560 . S
C680 C5 1.355 . S
C719 C241 1.514 . S
C707 C40 1.675 . S
C746 C157 1.531 . S
C734 C27 1.374 . S
C773 C325 1.265 . S
C761 C60 1.286 . S
C788 C49 1.422 . S
C800 C409 1.418 . S
C827 C398 1.351 . S
C815 C82 1.289 . S
C842 C71 1.313 . S
C854 C314 1.317 . S
C881 C144 1.646 . S
C869 C8 1.607 . S
C908 C228 1.559 . S
C896 C19 1.534 . S
C923 C30 1.610 . S
C935 C235 1.617 . S
C962 C151 1.534 . S
C950 C41 1.544 . S
C989 C323 1.420 . S
C977 C52 1.417 . S
C1004 C63 1.544 . S
C1016 C407 1.545 . S
C1031 C74 1.406 . S
C1043 C414 1.410 . S
C1058 C85 1.537 . S
C1070 C330 1.475 . S
