# Generated by pormake.
# Topology wbl, (4,4)-cn, num edge types: 1
# Building blocks:
#     Node 0, Type 0, BuildingBlock: MUDLON_clean_sbu_0, # of connection points: 4
#     Node 1, Type 0, BuildingBlock: MUDLON_clean_sbu_0, # of connection points: 4
#     Node 2, Type 0, BuildingBlock: MUDLON_clean_sbu_0, # of connection points: 4
#     Node 3, Type 0, BuildingBlock: MUDLON_clean_sbu_0, # of connection points: 4
#     Node 4, Type 0, BuildingBlock: MUDLON_clean_sbu_0, # of connection points: 4
#     Node 5, Type 0, BuildingBlock: MUDLON_clean_sbu_0, # of connection points: 4
#     Node 6, Type 0, BuildingBlock: MUDLON_clean_sbu_0, # of connection points: 4
#     Node 7, Type 0, BuildingBlock: MUDLON_clean_sbu_0, # of connection points: 4
#     Node 8, Type 1, BuildingBlock: NAHDIM_clean_sbu_0, # of connection points: 4
#     Node 9, Type 1, BuildingBlock: NAHDIM_clean_sbu_0, # of connection points: 4
#     Node 10, Type 1, BuildingBlock: NAHDIM_clean_sbu_0, # of connection points: 4
#     Node 11, Type 1, BuildingBlock: NAHDIM_clean_sbu_0, # of connection points: 4
#     Node 12, Type 1, BuildingBlock: NAHDIM_clean_sbu_0, # of connection points: 4
#     Node 13, Type 1, BuildingBlock: NAHDIM_clean_sbu_0, # of connection points: 4
#     Node 14, Type 1, BuildingBlock: NAHDIM_clean_sbu_0, # of connection points: 4
#     Node 15, Type 1, BuildingBlock: NAHDIM_clean_sbu_0, # of connection points: 4
#     Edge 16, Type (0, 1), BuildingBlock: CIFDUS_clean_linker_0, # of connection points: 2
#     Edge 17, Type (0, 1), BuildingBlock: CIFDUS_clean_linker_0, # of connection points: 2
#     Edge 18, Type (0, 1), BuildingBlock: CIFDUS_clean_linker_0, # of connection points: 2
#     Edge 19, Type (0, 1), BuildingBlock: CIFDUS_clean_linker_0, # of connection points: 2
#     Edge 20, Type (0, 1), BuildingBlock: CIFDUS_clean_linker_0, # of connection points: 2
#     Edge 21, Type (0, 1), BuildingBlock: CIFDUS_clean_linker_0, # of connection points: 2
#     Edge 22, Type (0, 1), BuildingBlock: CIFDUS_clean_linker_0, # of connection points: 2
#     Edge 23, Type (0, 1), BuildingBlock: CIFDUS_clean_linker_0, # of connection points: 2
#     Edge 24, Type (0, 1), BuildingBlock: CIFDUS_clean_linker_0, # of connection points: 2
#     Edge 25, Type (0, 1), BuildingBlock: CIFDUS_clean_linker_0, # of connection points: 2
#     Edge 26, Type (0, 1), BuildingBlock: CIFDUS_clean_linker_0, # of connection points: 2
#     Edge 27, Type (0, 1), BuildingBlock: CIFDUS_clean_linker_0, # of connection points: 2
#     Edge 28, Type (0, 1), BuildingBlock: CIFDUS_clean_linker_0, # of connection points: 2
#     Edge 29, Type (0, 1), BuildingBlock: CIFDUS_clean_linker_0, # of connection points: 2
#     Edge 30, Type (0, 1), BuildingBlock: CIFDUS_clean_linker_0, # of connection points: 2
#     Edge 31, Type (0, 1), BuildingBlock: CIFDUS_clean_linker_0, # of connection points: 2
#     Edge 32, Type (0, 1), BuildingBlock: CIFDUS_clean_linker_0, # of connection points: 2
#     Edge 33, Type (0, 1), BuildingBlock: CIFDUS_clean_linker_0, # of connection points: 2
#     Edge 34, Type (0, 1), BuildingBlock: CIFDUS_clean_linker_0, # of connection points: 2
#     Edge 35, Type (0, 1), BuildingBlock: CIFDUS_clean_linker_0, # of connection points: 2
#     Edge 36, Type (0, 1), BuildingBlock: CIFDUS_clean_linker_0, # of connection points: 2
#     Edge 37, Type (0, 1), BuildingBlock: CIFDUS_clean_linker_0, # of connection points: 2
#     Edge 38, Type (0, 1), BuildingBlock: CIFDUS_clean_linker_0, # of connection points: 2
#     Edge 39, Type (0, 1), BuildingBlock: CIFDUS_clean_linker_0, # of connection points: 2
#     Edge 40, Type (0, 1), BuildingBlock: CIFDUS_clean_linker_0, # of connection points: 2
#     Edge 41, Type (0, 1), BuildingBlock: CIFDUS_clean_linker_0, # of connection points: 2
#     Edge 42, Type (0, 1), BuildingBlock: CIFDUS_clean_linker_0, # of connection points: 2
#     Edge 43, Type (0, 1), BuildingBlock: CIFDUS_clean_linker_0, # of connection points: 2
#     Edge 44, Type (0, 1), BuildingBlock: CIFDUS_clean_linker_0, # of connection points: 2
#     Edge 45, Type (0, 1), BuildingBlock: CIFDUS_clean_linker_0, # of connection points: 2
#     Edge 46, Type (0, 1), BuildingBlock: CIFDUS_clean_linker_0, # of connection points: 2
#     Edge 47, Type (0, 1), BuildingBlock: CIFDUS_clean_linker_0, # of connection points: 2
# Relax obj value: 0.234
# Max RMSD: 0.229
# Mean RMSD: 0.182
data_MOF--net-wbl--node1-MUDLON_clean_sbu_0--node2-NAHDIM_clean_sbu_0--edge1-CIFDUS_clean_linker_0
_symmetry_space_group_name_H-M    P1
_symmetry_Int_Tables_number       1
_symmetry_cell_setting            triclinic
loop_
_symmetry_equiv_pos_as_xyz
'x, y, z'
_cell_length_a     31.955299
_cell_length_b     30.75844
_cell_length_c     65.854089
_cell_angle_alpha  89.947949
_cell_angle_beta   89.933383
_cell_angle_gamma 89.818571
loop_
_atom_site_label
_atom_site_type_symbol
_atom_site_fract_x
_atom_site_fract_y
_atom_site_fract_z
_atom_type_partial_charge
Mg0 Mg 0.02006 0.02478 0.34206 0.0
C1 C 0.05898 0.94447 0.36109 0.0
O2 O 0.09124 0.95801 0.3505 0.0
C3 C 0.94279 0.99987 0.31647 0.0
O4 O 0.94702 0.96202 0.32552 0.0
C5 C 0.08512 0.00964 0.31059 0.0
O6 O 0.05571 0.98166 0.30585 0.0
O7 O 0.07904 0.03479 0.32571 0.0
O8 O 0.02398 0.96382 0.35901 0.0
O9 O 0.00184 0.06967 0.36635 0.0
C10 C 0.9658 0.05872 0.37289 0.0
O11 O 0.94705 0.02577 0.3641 0.0
O12 O 0.96912 0.02969 0.32015 0.0
Mg13 Mg 0.98936 0.48231 0.60762 0.0
C14 C 0.03157 0.5115 0.64402 0.0
O15 O 0.06143 0.50326 0.63083 0.0
C16 C 0.91852 0.45604 0.57989 0.0
O17 O 0.93363 0.48819 0.569 0.0
C18 C 0.03912 0.5403 0.57846 0.0
O19 O 0.06849 0.51108 0.58159 0.0
O20 O 0.00381 0.53585 0.58715 0.0
O21 O 0.99365 0.50684 0.63855 0.0
O22 O 0.03639 0.43123 0.60555 0.0
C23 C 0.04599 0.40475 0.61972 0.0
O24 O 0.0774 0.37778 0.61689 0.0
O25 O 0.9325 0.44999 0.59776 0.0
Mg26 Mg 0.52104 0.51255 0.84836 0.0
C27 C 0.48104 0.53533 0.88571 0.0
O28 O 0.48466 0.57086 0.87475 0.0
C29 C 0.57696 0.47885 0.81654 0.0
O30 O 0.56923 0.51945 0.81152 0.0
C31 C 0.45756 0.52158 0.81294 0.0
O32 O 0.47823 0.48847 0.80525 0.0
O33 O 0.46924 0.53749 0.82983 0.0
O34 O 0.49292 0.4994 0.878 0.0
O35 O 0.56513 0.56537 0.85383 0.0
C36 C 0.58575 0.5739 0.86992 0.0
O37 O 0.60852 0.60937 0.87034 0.0
O38 O 0.55881 0.46351 0.83225 0.0
Mg39 Mg 0.49334 0.00322 0.08783 0.0
C40 C 0.50236 0.06613 0.12395 0.0
O41 O 0.49756 0.09678 0.11024 0.0
C42 C 0.43901 0.94518 0.0638 0.0
O43 O 0.4721 0.94993 0.05214 0.0
C44 C 0.54945 0.06737 0.06883 0.0
O45 O 0.57351 0.04542 0.08138 0.0
O46 O 0.51116 0.05643 0.06743 0.0
O47 O 0.49828 0.02659 0.11881 0.0
O48 O 0.54111 0.95277 0.0859 0.0
C49 C 0.55372 0.92673 0.09971 0.0
O50 O 0.58478 0.90018 0.09544 0.0
O51 O 0.43642 0.968 0.07988 0.0
Mg52 Mg 0.99507 0.45526 0.92845 0.0
C53 C 0.98013 0.52682 0.89718 0.0
O54 O 0.94593 0.50461 0.89358 0.0
C55 C 0.91402 0.48457 0.94887 0.0
O56 O 0.92631 0.52306 0.94263 0.0
C57 C 0.05486 0.4869 0.95832 0.0
O58 O 0.02663 0.51797 0.95712 0.0
O59 O 0.04922 0.45232 0.94812 0.0
O60 O 0.00333 0.51576 0.91197 0.0
O61 O 0.99315 0.40699 0.90433 0.0
C62 C 0.957 0.40198 0.89666 0.0
O63 O 0.92477 0.42056 0.90554 0.0
O64 O 0.93719 0.45172 0.94556 0.0
Mg65 Mg 0.51359 0.52611 0.18356 0.0
C66 C 0.46077 0.47731 0.15333 0.0
O67 O 0.49217 0.44975 0.15431 0.0
C68 C 0.51136 0.44544 0.20994 0.0
O69 O 0.47101 0.45204 0.20758 0.0
C70 C 0.45839 0.59321 0.2029 0.0
O71 O 0.43095 0.56467 0.19647 0.0
O72 O 0.49719 0.58523 0.20035 0.0
O73 O 0.45894 0.50819 0.16611 0.0
O74 O 0.5552 0.5384 0.15804 0.0
C75 C 0.57558 0.50616 0.15103 0.0
O76 O 0.57827 0.47076 0.16214 0.0
O77 O 0.53682 0.47225 0.20203 0.0
Mg78 Mg 0.49642 0.99326 0.41649 0.0
C79 C 0.5753 0.99115 0.39233 0.0
O80 O 0.58836 0.01628 0.40711 0.0
C81 C 0.45061 0.94567 0.45022 0.0
O82 O 0.4628 0.9797 0.46068 0.0
C83 C 0.53595 0.07733 0.43114 0.0
O84 O 0.52624 0.08957 0.4126 0.0
O85 O 0.52521 0.03963 0.43712 0.0
O86 O 0.54235 0.96894 0.3951 0.0
O87 O 0.4553 0.02175 0.39398 0.0
C88 C 0.41907 0.0058 0.39145 0.0
O89 O 0.40292 0.98185 0.40599 0.0
O90 O 0.4623 0.94189 0.43186 0.0
Mg91 Mg 0.00206 0.97923 0.65618 0.0
C92 C 0.05469 0.99085 0.61918 0.0
O93 O 0.02399 0.01814 0.61533 0.0
C94 C 0.96874 0.04605 0.68512 0.0
O95 O 0.94278 0.01378 0.68851 0.0
C96 C 0.03744 0.922 0.6884 0.0
O97 O 0.06734 0.9509 0.6863 0.0
O98 O 0.00455 0.92582 0.67766 0.0
O99 O 0.05632 0.97298 0.63659 0.0
O100 O 0.95158 0.97412 0.63415 0.0
C101 C 0.92709 0.00599 0.63087 0.0
O102 O 0.92812 0.03955 0.64316 0.0
O103 O 0.99815 0.04078 0.6723 0.0
C104 C 0.26443 0.57623 0.00855 0.0
O105 O 0.2938 0.54627 0.00897 0.0
O106 O 0.34613 0.60161 0.04803 0.0
Zn107 Zn 0.33394 0.62706 0.02049 0.0
O108 O 0.37023 0.59972 0.99865 0.0
C109 C 0.3377 0.71629 0.03653 0.0
O110 O 0.31824 0.69962 0.05228 0.0
O111 O 0.27384 0.61509 0.01325 0.0
C112 C 0.4056 0.61611 0.99436 0.0
O113 O 0.41917 0.6491 0.00514 0.0
C114 C 0.36078 0.56371 0.05108 0.0
O115 O 0.36937 0.53862 0.03548 0.0
O116 O 0.3459 0.69199 0.02138 0.0
C117 C 0.29476 0.9619 0.24766 0.0
O118 O 0.32265 0.99268 0.25024 0.0
O119 O 0.3911 0.93559 0.20932 0.0
Zn120 Zn 0.36935 0.91406 0.23669 0.0
O121 O 0.39742 0.94262 0.2609 0.0
C122 C 0.41609 0.83414 0.24389 0.0
O123 O 0.44196 0.86081 0.25304 0.0
O124 O 0.30665 0.92545 0.24038 0.0
C125 C 0.37957 0.934 0.27772 0.0
O126 O 0.34832 0.90634 0.27783 0.0
C127 C 0.43011 0.93198 0.20564 0.0
O128 O 0.4551 0.91973 0.22041 0.0
O129 O 0.38184 0.84906 0.23682 0.0
C130 C 0.25425 0.83869 0.50463 0.0
O131 O 0.23926 0.84633 0.52287 0.0
O132 O 0.14994 0.85227 0.51848 0.0
Zn133 Zn 0.16897 0.81119 0.49642 0.0
O134 O 0.1381 0.82386 0.47016 0.0
C135 C 0.12158 0.74198 0.51312 0.0
O136 O 0.09298 0.77272 0.51221 0.0
O137 O 0.2305 0.82189 0.49131 0.0
C138 C 0.15517 0.81211 0.45357 0.0
O139 O 0.19034 0.78991 0.45431 0.0
C140 C 0.13692 0.89076 0.51533 0.0
O141 O 0.13452 0.9054 0.49662 0.0
O142 O 0.15808 0.75003 0.50638 0.0
C143 C 0.23998 0.62209 0.77426 0.0
O144 O 0.23358 0.6151 0.75483 0.0
O145 O 0.13342 0.61451 0.7516 0.0
Zn146 Zn 0.15104 0.65132 0.77543 0.0
O147 O 0.11114 0.63951 0.79871 0.0
C148 C 0.10919 0.72244 0.75779 0.0
O149 O 0.08045 0.69205 0.75733 0.0
O150 O 0.21044 0.63773 0.78504 0.0
C151 C 0.07536 0.62257 0.79581 0.0
O152 O 0.06368 0.61313 0.77722 0.0
C153 C 0.1409 0.57466 0.74811 0.0
O154 O 0.16466 0.55223 0.76058 0.0
O155 O 0.14441 0.71367 0.76587 0.0
C156 C 0.71994 0.15618 0.50309 0.0
O157 O 0.72809 0.14488 0.52192 0.0
O158 O 0.81387 0.13359 0.52631 0.0
Zn159 Zn 0.80877 0.17534 0.50268 0.0
O160 O 0.84697 0.15811 0.47927 0.0
C161 C 0.85033 0.23386 0.52853 0.0
O162 O 0.86947 0.19698 0.53248 0.0
O163 O 0.74907 0.17232 0.49228 0.0
C164 C 0.88373 0.17144 0.47519 0.0
O165 O 0.90181 0.19952 0.48734 0.0
C166 C 0.83467 0.09854 0.52812 0.0
O167 O 0.85526 0.08311 0.51241 0.0
O168 O 0.8229 0.23482 0.51451 0.0
C169 C 0.77005 0.39745 0.74916 0.0
O170 O 0.79549 0.42523 0.7404 0.0
O171 O 0.86539 0.3748 0.71978 0.0
Zn172 Zn 0.84387 0.34444 0.74545 0.0
O173 O 0.87454 0.36489 0.77046 0.0
C174 C 0.88981 0.26857 0.73471 0.0
O175 O 0.91897 0.29839 0.73336 0.0
O176 O 0.78261 0.35856 0.75186 0.0
C177 C 0.89504 0.34175 0.78303 0.0
O178 O 0.90098 0.30025 0.77932 0.0
C179 C 0.90222 0.39047 0.71886 0.0
O180 O 0.92486 0.39175 0.73549 0.0
O181 O 0.85341 0.27978 0.74069 0.0
C182 C 0.68922 0.41436 0.99022 0.0
O183 O 0.66525 0.44866 0.99288 0.0
O184 O 0.60674 0.40268 0.02762 0.0
Zn185 Zn 0.61177 0.37729 0.99937 0.0
O186 O 0.58488 0.41317 0.97685 0.0
C187 C 0.6092 0.29044 0.01339 0.0
O188 O 0.64436 0.30459 0.02129 0.0
O189 O 0.67331 0.3768 0.99249 0.0
C190 C 0.5875 0.39711 0.95907 0.0
O191 O 0.60199 0.35731 0.95705 0.0
C192 C 0.6007 0.44089 0.0344 0.0
O193 O 0.59477 0.47324 0.02168 0.0
O194 O 0.58867 0.31578 0.00175 0.0
C195 C 0.73961 0.09793 0.26331 0.0
O196 O 0.70834 0.07228 0.26803 0.0
O197 O 0.63748 0.12611 0.23182 0.0
Zn198 Zn 0.66982 0.15327 0.255 0.0
O199 O 0.64626 0.13569 0.28227 0.0
C200 C 0.62321 0.2302 0.25145 0.0
O201 O 0.59454 0.20111 0.25584 0.0
O202 O 0.73152 0.13546 0.25603 0.0
C203 C 0.62559 0.10114 0.2856 0.0
O204 O 0.61467 0.07648 0.27024 0.0
C205 C 0.64018 0.08838 0.22409 0.0
O206 O 0.66745 0.06042 0.23135 0.0
O207 O 0.66138 0.21816 0.251 0.0
H208 H 0.10984 0.95232 0.28149 0.0
H209 H 0.15161 0.06524 0.31454 0.0
H210 H 0.21906 0.0619 0.29699 0.0
H211 H 0.26712 0.02518 0.2733 0.0
H212 H 0.22619 0.91047 0.24136 0.0
H213 H 0.15731 0.91649 0.25736 0.0
C214 C 0.13354 0.97644 0.2848 0.0
C215 C 0.12554 0.00903 0.29937 0.0
C216 C 0.17244 0.97398 0.27484 0.0
C217 C 0.15683 0.0398 0.30346 0.0
C218 C 0.19545 0.03789 0.29341 0.0
C219 C 0.24302 0.00173 0.26963 0.0
C220 C 0.25187 0.96746 0.25604 0.0
C221 C 0.20372 0.00491 0.2792 0.0
C222 C 0.22031 0.93716 0.25171 0.0
C223 C 0.18091 0.94054 0.2609 0.0
H224 H 0.11144 0.56117 0.55864 0.0
H225 H 0.98529 0.60656 0.56928 0.0
H226 H 0.99926 0.67172 0.54933 0.0
H227 H 0.04774 0.71713 0.52991 0.0
H228 H 0.17418 0.67267 0.51939 0.0
H229 H 0.15947 0.60577 0.53812 0.0
C230 C 0.08693 0.5852 0.55653 0.0
C231 C 0.04742 0.57894 0.56557 0.0
C232 C 0.0952 0.62284 0.54507 0.0
C233 C 0.01603 0.61048 0.5626 0.0
C234 C 0.02398 0.64783 0.55117 0.0
C235 C 0.07209 0.69275 0.53158 0.0
C236 C 0.11207 0.70009 0.52329 0.0
C237 C 0.06353 0.65453 0.54249 0.0
C238 C 0.14314 0.66798 0.52562 0.0
C239 C 0.13478 0.62971 0.53638 0.0
H240 H 0.39869 0.57756 0.82796 0.0
H241 H 0.43127 0.5043 0.77432 0.0
H242 H 0.36807 0.53039 0.75736 0.0
H243 H 0.30232 0.57218 0.75806 0.0
H244 H 0.26833 0.64312 0.81216 0.0
H245 H 0.33322 0.6199 0.82854 0.0
C246 C 0.39214 0.5675 0.81251 0.0
C247 C 0.41983 0.53897 0.80246 0.0
C248 C 0.35533 0.58214 0.80291 0.0
C249 C 0.41056 0.5261 0.78248 0.0
C250 C 0.37437 0.54103 0.77274 0.0
C251 C 0.3092 0.58284 0.77338 0.0
C252 C 0.28037 0.60944 0.78382 0.0
C253 C 0.34635 0.56881 0.78285 0.0
C254 C 0.2898 0.6226 0.80375 0.0
C255 C 0.32696 0.60932 0.81315 0.0
H256 H 0.43514 0.89379 0.03037 0.0
H257 H 0.37883 0.9125 0.08932 0.0
H258 H 0.34001 0.8446 0.08545 0.0
H259 H 0.32723 0.77654 0.06665 0.0
H260 H 0.38495 0.75794 0.00796 0.0
H261 H 0.41784 0.82913 0.01043 0.0
C262 C 0.41395 0.88339 0.04228 0.0
C263 C 0.41021 0.90816 0.06018 0.0
C264 C 0.39225 0.844 0.04009 0.0
C265 C 0.38234 0.8942 0.07537 0.0
C266 C 0.36031 0.85517 0.07322 0.0
C267 C 0.34665 0.78821 0.0543 0.0
C268 C 0.35387 0.76155 0.03723 0.0
C269 C 0.36583 0.82925 0.05586 0.0
C270 C 0.37894 0.77749 0.02133 0.0
C271 C 0.39787 0.81827 0.02273 0.0
H272 H 0.0788 0.56109 0.97716 0.0
H273 H 0.12036 0.43045 0.96393 0.0
H274 H 0.18826 0.44609 0.97931 0.0
H275 H 0.23699 0.49813 0.99467 0.0
H276 H 0.1958 0.6294 0.00686 0.0
H277 H 0.12642 0.6121 0.99371 0.0
C278 C 0.10252 0.53583 0.97779 0.0
C279 C 0.09453 0.49469 0.96931 0.0
C280 C 0.14163 0.54526 0.98633 0.0
C281 C 0.12569 0.46242 0.97028 0.0
C282 C 0.16457 0.47138 0.97903 0.0
C283 C 0.21279 0.52293 0.99458 0.0
C284 C 0.2217 0.5651 0.00164 0.0
C285 C 0.17309 0.5129 0.98681 0.0
C286 C 0.1899 0.59676 0.00143 0.0
C287 C 0.1502 0.5869 0.99392 0.0
H288 H 0.50423 0.6556 0.22239 0.0
H289 H 0.37904 0.62557 0.20235 0.0
H290 H 0.35447 0.69629 0.21402 0.0
H291 H 0.36888 0.76829 0.22842 0.0
H292 H 0.4935 0.79809 0.24929 0.0
H293 H 0.51759 0.72604 0.23901 0.0
C294 C 0.47155 0.66446 0.22068 0.0
C295 C 0.44368 0.63532 0.21136 0.0
C296 C 0.45738 0.70529 0.22757 0.0
C297 C 0.40131 0.64725 0.20944 0.0
C298 C 0.38714 0.68782 0.21608 0.0
C299 C 0.40123 0.75892 0.23088 0.0
C300 C 0.42931 0.78878 0.2395 0.0
C301 C 0.41496 0.71732 0.22495 0.0
C302 C 0.47109 0.77587 0.24269 0.0
C303 C 0.48501 0.73465 0.23674 0.0
H304 H 0.42049 0.94283 0.4889 0.0
H305 H 0.40782 0.88205 0.43017 0.0
H306 H 0.34796 0.84059 0.44241 0.0
H307 H 0.29511 0.82691 0.46871 0.0
H308 H 0.30747 0.88796 0.5274 0.0
H309 H 0.37168 0.9235 0.51629 0.0
C310 C 0.40498 0.92011 0.47885 0.0
C311 C 0.4184 0.91601 0.45858 0.0
C312 C 0.37028 0.89657 0.48593 0.0
C313 C 0.39814 0.88606 0.44582 0.0
C314 C 0.36373 0.86241 0.45278 0.0
C315 C 0.3121 0.84757 0.47917 0.0
C316 C 0.29612 0.85515 0.49878 0.0
C317 C 0.34889 0.86823 0.47264 0.0
C318 C 0.31883 0.88169 0.51218 0.0
C319 C 0.35555 0.90219 0.50582 0.0
H320 H 0.10598 0.90205 0.71121 0.0
H321 H 0.98176 0.85705 0.69651 0.0
H322 H 0.99249 0.79278 0.71763 0.0
H323 H 0.03796 0.74782 0.73887 0.0
H324 H 0.16278 0.79138 0.75319 0.0
H325 H 0.15076 0.85806 0.7337 0.0
C326 C 0.08112 0.87834 0.71271 0.0
C327 C 0.04317 0.88432 0.70217 0.0
C328 C 0.08761 0.8412 0.72477 0.0
C329 C 0.01133 0.85325 0.70435 0.0
C330 C 0.01743 0.81644 0.71643 0.0
C331 C 0.06255 0.77195 0.73787 0.0
C332 C 0.10132 0.76445 0.74741 0.0
C333 C 0.0556 0.80985 0.72649 0.0
C334 C 0.13267 0.79626 0.74598 0.0
C335 C 0.12585 0.83434 0.7348 0.0
H336 H 0.61464 0.50298 0.78149 0.0
H337 H 0.61119 0.39834 0.82511 0.0
H338 H 0.66836 0.3615 0.80701 0.0
H339 H 0.72314 0.36212 0.7801 0.0
H340 H 0.72663 0.4692 0.73772 0.0
H341 H 0.66555 0.50165 0.75394 0.0
C342 C 0.62606 0.47193 0.78704 0.0
C343 C 0.6087 0.45369 0.80477 0.0
C344 C 0.65917 0.45136 0.77675 0.0
C345 C 0.6239 0.41323 0.81154 0.0
C346 C 0.65672 0.39221 0.80121 0.0
C347 C 0.71006 0.39217 0.77423 0.0
C348 C 0.72963 0.41323 0.7577 0.0
C349 C 0.67514 0.41134 0.78397 0.0
C350 C 0.71246 0.45237 0.75044 0.0
C351 C 0.6775 0.47105 0.75973 0.0
H352 H 0.50899 0.12425 0.04301 0.0
H353 H 0.62942 0.09663 0.06992 0.0
H354 H 0.6586 0.16123 0.05421 0.0
H355 H 0.64978 0.22758 0.03443 0.0
H356 H 0.53036 0.2571 0.00716 0.0
H357 H 0.50129 0.18974 0.02116 0.0
C358 C 0.54167 0.13224 0.04531 0.0
C359 C 0.56677 0.10556 0.05781 0.0
C360 C 0.55856 0.16989 0.03617 0.0
C361 C 0.60914 0.11645 0.06052 0.0
C362 C 0.626 0.15352 0.05152 0.0
C363 C 0.61744 0.21925 0.03138 0.0
C364 C 0.59228 0.24761 0.01985 0.0
C365 C 0.60093 0.18076 0.03956 0.0
C366 C 0.55051 0.23592 0.01597 0.0
C367 C 0.5338 0.19746 0.02406 0.0
H368 H 0.92339 0.07558 0.2968 0.0
H369 H 0.87709 0.9461 0.30831 0.0
H370 H 0.81169 0.96421 0.29119 0.0
H371 H 0.76555 0.0182 0.27552 0.0
H372 H 0.81056 0.14819 0.26437 0.0
H373 H 0.8788 0.12822 0.27852 0.0
C374 C 0.89919 0.05114 0.29539 0.0
C375 C 0.90511 0.00961 0.30406 0.0
C376 C 0.86136 0.06189 0.28564 0.0
C377 C 0.87343 0.97835 0.30193 0.0
C378 C 0.83592 0.9887 0.29215 0.0
C379 C 0.79037 0.04214 0.27597 0.0
C380 C 0.78274 0.0848 0.26907 0.0
C381 C 0.82923 0.0306 0.28435 0.0
C382 C 0.81549 0.11517 0.26959 0.0
C383 C 0.85447 0.10381 0.27778 0.0
H384 H 0.91081 0.37238 0.59209 0.0
H385 H 0.87441 0.46067 0.5443 0.0
H386 H 0.84661 0.39984 0.52455 0.0
H387 H 0.83913 0.32029 0.51948 0.0
H388 H 0.8815 0.23313 0.56663 0.0
H389 H 0.90049 0.29457 0.58788 0.0
C390 C 0.89603 0.37855 0.57755 0.0
C391 C 0.89469 0.42104 0.5697 0.0
C392 C 0.88178 0.34336 0.56595 0.0
C393 C 0.87583 0.42824 0.5507 0.0
C394 C 0.86016 0.39342 0.53934 0.0
C395 C 0.85218 0.31491 0.53447 0.0
C396 C 0.85929 0.2722 0.54135 0.0
C397 C 0.86404 0.35063 0.54656 0.0
C398 C 0.87627 0.26566 0.56081 0.0
C399 C 0.88699 0.30079 0.57306 0.0
H400 H 0.55601 0.06666 0.47098 0.0
H401 H 0.58457 0.14494 0.41836 0.0
H402 H 0.64233 0.17898 0.43655 0.0
H403 H 0.6891 0.18115 0.46622 0.0
H404 H 0.65979 0.10336 0.51893 0.0
H405 H 0.59795 0.07492 0.50194 0.0
C406 C 0.57451 0.09161 0.46358 0.0
C407 C 0.56624 0.10282 0.44326 0.0
C408 C 0.60784 0.11095 0.47409 0.0
C409 C 0.59023 0.13557 0.43398 0.0
C410 C 0.62347 0.15493 0.44434 0.0
C411 C 0.66889 0.15839 0.47409 0.0
C412 C 0.67945 0.14403 0.49373 0.0
C413 C 0.63326 0.14203 0.46421 0.0
C414 C 0.65261 0.1149 0.50378 0.0
C415 C 0.61724 0.09844 0.49405 0.0
H416 H 0.90064 0.07225 0.70686 0.0
H417 H 0.02054 0.11648 0.68486 0.0
H418 H 0.00726 0.18841 0.69917 0.0
H419 H 0.96074 0.23938 0.71666 0.0
H420 H 0.83968 0.19654 0.73768 0.0
H421 H 0.85442 0.12324 0.72506 0.0
C422 C 0.92403 0.09751 0.70532 0.0
C423 C 0.96155 0.08894 0.69477 0.0
C424 C 0.91593 0.13904 0.71334 0.0
C425 C 0.99137 0.12217 0.69284 0.0
C426 C 0.9838 0.16334 0.70102 0.0
C427 C 0.9376 0.21401 0.71863 0.0
C428 C 0.89911 0.22351 0.72811 0.0
C429 C 0.94604 0.17223 0.71111 0.0
C430 C 0.86951 0.19017 0.73042 0.0
C431 C 0.87792 0.14826 0.7232 0.0
H432 H 0.87628 0.40852 0.95934 0.0
H433 H 0.85753 0.54763 0.95919 0.0
H434 H 0.78694 0.53798 0.97263 0.0
H435 H 0.72981 0.49018 0.98317 0.0
H436 H 0.74773 0.35099 0.98278 0.0
H437 H 0.81958 0.36065 0.97083 0.0
C438 C 0.8569 0.43679 0.96237 0.0
C439 C 0.87222 0.47877 0.95821 0.0
C440 C 0.81617 0.431 0.96992 0.0
C441 C 0.84657 0.51497 0.96221 0.0
C442 C 0.80616 0.50948 0.96987 0.0
C443 C 0.74942 0.46188 0.98057 0.0
C444 C 0.73331 0.41989 0.98381 0.0
C445 C 0.79052 0.46765 0.97358 0.0
C446 C 0.75927 0.38366 0.98037 0.0
C447 C 0.80036 0.38917 0.97353 0.0
H448 H 0.59236 0.41761 0.21445 0.0
H449 H 0.46473 0.3834 0.22885 0.0
H450 H 0.48852 0.3154 0.24398 0.0
H451 H 0.5447 0.26387 0.25155 0.0
H452 H 0.67249 0.29643 0.23692 0.0
H453 H 0.64948 0.36696 0.22367 0.0
C454 C 0.56977 0.39545 0.22105 0.0
C455 C 0.52673 0.40565 0.22038 0.0
C456 C 0.58366 0.35601 0.22966 0.0
C457 C 0.49798 0.37647 0.22903 0.0
C458 C 0.51155 0.33747 0.2377 0.0
C459 C 0.56768 0.28644 0.24561 0.0
C460 C 0.61028 0.27465 0.24515 0.0
C461 C 0.5542 0.32664 0.23785 0.0
C462 C 0.63951 0.30456 0.23747 0.0
C463 C 0.62634 0.34487 0.22982 0.0
H464 H 0.12437 0.8892 0.36627 0.0
H465 H 0.00942 0.93161 0.39452 0.0
H466 H 0.02763 0.89174 0.42541 0.0
H467 H 0.07991 0.85126 0.44563 0.0
H468 H 0.19431 0.80842 0.41687 0.0
H469 H 0.17249 0.8418 0.38504 0.0
C470 C 0.10296 0.88915 0.37907 0.0
C471 C 0.06584 0.91375 0.37814 0.0
C472 C 0.11376 0.86645 0.39683 0.0
C473 C 0.03822 0.91296 0.39479 0.0
C474 C 0.04877 0.89041 0.41254 0.0
C475 C 0.09982 0.84881 0.43234 0.0
C476 C 0.13896 0.82784 0.43377 0.0
C477 C 0.08704 0.86809 0.41394 0.0
C478 C 0.16414 0.82453 0.4163 0.0
C479 C 0.15174 0.84371 0.39805 0.0
H480 H 0.10024 0.48609 0.66448 0.0
H481 H 0.98835 0.56375 0.67038 0.0
H482 H 0.01198 0.58942 0.70372 0.0
H483 H 0.06697 0.59316 0.72999 0.0
H484 H 0.17622 0.51117 0.72492 0.0
H485 H 0.1509 0.48322 0.69239 0.0
C486 C 0.08088 0.5084 0.67314 0.0
C487 C 0.04297 0.52364 0.66494 0.0
C488 C 0.09426 0.52217 0.69234 0.0
C489 C 0.01774 0.55181 0.67642 0.0
C490 C 0.03132 0.56654 0.6954 0.0
C491 C 0.08503 0.56895 0.72178 0.0
C492 C 0.12366 0.5546 0.7296 0.0
C493 C 0.0699 0.55252 0.70332 0.0
C494 C 0.14647 0.52268 0.71912 0.0
C495 C 0.13209 0.50687 0.70052 0.0
H496 H 0.4977 0.60192 0.91045 0.0
H497 H 0.4357 0.4778 0.90896 0.0
H498 H 0.40803 0.49062 0.94334 0.0
H499 H 0.3973 0.54064 0.97261 0.0
H500 H 0.46431 0.66234 0.97398 0.0
H501 H 0.49489 0.64654 0.94094 0.0
C502 C 0.47844 0.57743 0.91772 0.0
C503 C 0.46807 0.53934 0.90715 0.0
C504 C 0.4636 0.58467 0.93743 0.0
C505 C 0.44383 0.50749 0.91684 0.0
C506 C 0.42797 0.51492 0.93643 0.0
C507 C 0.41895 0.56341 0.96574 0.0
C508 C 0.428 0.60294 0.97564 0.0
C509 C 0.43696 0.5539 0.9467 0.0
C510 C 0.45663 0.63181 0.96671 0.0
C511 C 0.47403 0.62292 0.94775 0.0
H512 H 0.47258 0.94071 0.11168 0.0
H513 H 0.59543 0.91051 0.13466 0.0
H514 H 0.56824 0.90976 0.16929 0.0
H515 H 0.51032 0.91975 0.19316 0.0
H516 H 0.38724 0.95194 0.17066 0.0
H517 H 0.41418 0.95224 0.13584 0.0
C518 C 0.49349 0.93499 0.12429 0.0
C519 C 0.53619 0.92701 0.12058 0.0
C520 C 0.47776 0.93571 0.1443 0.0
C521 C 0.56253 0.91742 0.13708 0.0
C522 C 0.54705 0.91713 0.15692 0.0
C523 C 0.4893 0.92711 0.1807 0.0
C524 C 0.44675 0.93585 0.18461 0.0
C525 C 0.50485 0.92675 0.16073 0.0
C526 C 0.42014 0.94523 0.16816 0.0
C527 C 0.43549 0.94518 0.14821 0.0
H528 H 0.95169 0.5384 0.85873 0.0
H529 H 0.04719 0.58131 0.9004 0.0
H530 H 0.08333 0.6186 0.87275 0.0
H531 H 0.0922 0.63135 0.83617 0.0
H532 H 0.99801 0.58551 0.79445 0.0
H533 H 0.95701 0.5572 0.82272 0.0
C534 C 0.97991 0.55668 0.86188 0.0
C535 C 0.99691 0.55668 0.88157 0.0
C536 C 0.00118 0.57697 0.84583 0.0
C537 C 0.03357 0.58052 0.88534 0.0
C538 C 0.05439 0.60168 0.86952 0.0
C539 C 0.06247 0.61564 0.83327 0.0
C540 C 0.04855 0.61004 0.81318 0.0
C541 C 0.03924 0.59885 0.84959 0.0
C542 C 0.00976 0.58989 0.80973 0.0
C543 C 0.98622 0.57367 0.8259 0.0
H544 H 0.40341 0.53924 0.14357 0.0
H545 H 0.4633 0.42356 0.12023 0.0
H546 H 0.43457 0.43835 0.08658 0.0
H547 H 0.3995 0.48875 0.063 0.0
H548 H 0.34284 0.60618 0.08637 0.0
H549 H 0.36339 0.58603 0.12073 0.0
C550 C 0.40956 0.51672 0.13125 0.0
C551 C 0.43586 0.48057 0.13442 0.0
C552 C 0.3941 0.52614 0.11181 0.0
C553 C 0.44328 0.45172 0.11824 0.0
C554 C 0.42712 0.46033 0.09893 0.0
C555 C 0.39126 0.50972 0.07563 0.0
C556 C 0.37014 0.5492 0.07204 0.0
C557 C 0.40368 0.49823 0.09539 0.0
C558 C 0.35949 0.57583 0.08863 0.0
C559 C 0.37116 0.56431 0.10832 0.0
H560 H 0.46036 0.01808 0.35563 0.0
H561 H 0.34012 0.98269 0.38055 0.0
H562 H 0.31659 0.95981 0.34698 0.0
H563 H 0.33277 0.94226 0.31163 0.0
H564 H 0.45331 0.9754 0.28655 0.0
H565 H 0.47429 0.00668 0.31921 0.0
C566 C 0.42863 0.0064 0.35365 0.0
C567 C 0.40205 0.0019 0.37063 0.0
C568 C 0.41573 0.99205 0.33439 0.0
C569 C 0.3612 0.98637 0.36777 0.0
C570 C 0.34783 0.97298 0.3486 0.0
C571 C 0.36362 0.95645 0.31326 0.0
C572 C 0.39176 0.95583 0.29682 0.0
C573 C 0.37532 0.97428 0.33199 0.0
C574 C 0.43123 0.97519 0.29904 0.0
C575 C 0.44319 0.99309 0.3177 0.0
H576 H 0.05239 0.01517 0.57947 0.0
H577 H 0.1144 0.92696 0.62077 0.0
H578 H 0.14711 0.8896 0.59216 0.0
H579 H 0.15273 0.87761 0.5554 0.0
H580 H 0.09054 0.96549 0.51408 0.0
H581 H 0.06329 0.00731 0.54275 0.0
C582 C 0.07359 0.98823 0.58227 0.0
C583 C 0.08051 0.97365 0.60227 0.0
C584 C 0.09181 0.96642 0.56573 0.0
C585 C 0.10831 0.93881 0.60556 0.0
C586 C 0.12687 0.91722 0.58919 0.0
C587 C 0.13339 0.90605 0.55266 0.0
C588 C 0.12318 0.91804 0.53263 0.0
C589 C 0.11788 0.92997 0.5692 0.0
C590 C 0.09867 0.95539 0.52933 0.0
C591 C 0.08304 0.97931 0.54573 0.0
H592 H 0.58199 0.48536 0.87235 0.0
H593 H 0.58545 0.60122 0.90902 0.0
H594 H 0.58258 0.55732 0.93994 0.0
H595 H 0.58181 0.4857 0.95666 0.0
H596 H 0.57965 0.36962 0.91994 0.0
H597 H 0.57813 0.4137 0.88911 0.0
C598 C 0.58158 0.50089 0.88712 0.0
C599 C 0.58321 0.54645 0.88839 0.0
C600 C 0.57995 0.47536 0.90488 0.0
C601 C 0.58398 0.56616 0.90764 0.0
C602 C 0.58217 0.54109 0.92534 0.0
C603 C 0.58034 0.47004 0.94193 0.0
C604 C 0.58089 0.42435 0.94068 0.0
C605 C 0.58035 0.49562 0.92417 0.0
C606 C 0.57938 0.4047 0.9214 0.0
C607 C 0.57869 0.42988 0.90371 0.0
H608 H 0.54267 0.01106 0.14936 0.0
H609 H 0.5043 0.14495 0.14322 0.0
H610 H 0.54182 0.16321 0.17446 0.0
H611 H 0.58923 0.14182 0.20216 0.0
H612 H 0.63011 0.00825 0.20701 0.0
H613 H 0.58774 0.98916 0.1776 0.0
C614 C 0.54172 0.04404 0.15506 0.0
C615 C 0.52046 0.07651 0.14405 0.0
C616 C 0.56421 0.05443 0.17266 0.0
C617 C 0.52038 0.11934 0.15143 0.0
C618 C 0.54193 0.12981 0.16924 0.0
C619 C 0.58866 0.10844 0.19688 0.0
C620 C 0.61304 0.07655 0.20674 0.0
C621 C 0.5646 0.09774 0.17976 0.0
C622 C 0.61192 0.0335 0.19966 0.0
C623 C 0.58757 0.0225 0.18285 0.0
H624 H 0.99921 0.11552 0.40095 0.0
H625 H 0.88507 0.04964 0.38438 0.0
H626 H 0.85013 0.07865 0.41417 0.0
H627 H 0.85175 0.12047 0.44548 0.0
H628 H 0.9646 0.18724 0.46296 0.0
H629 H 0.99998 0.16025 0.43243 0.0
C630 C 0.96663 0.1079 0.4038 0.0
C631 C 0.945 0.08019 0.39042 0.0
C632 C 0.9464 0.1246 0.42124 0.0
C633 C 0.90274 0.07057 0.39441 0.0
C634 C 0.88257 0.08715 0.4115 0.0
C635 C 0.8841 0.12921 0.44268 0.0
C636 C 0.90546 0.15567 0.45661 0.0
C637 C 0.90416 0.11374 0.42513 0.0
C638 C 0.94734 0.16681 0.45255 0.0
C639 C 0.96762 0.1514 0.43506 0.0
H640 H 0.96215 0.4076 0.62751 0.0
H641 H 0.08251 0.40204 0.65671 0.0
H642 H 0.04876 0.40164 0.69005 0.0
H643 H 0.98516 0.39922 0.7108 0.0
H644 H 0.86416 0.4004 0.6818 0.0
H645 H 0.89783 0.40715 0.64852 0.0
C646 C 0.98082 0.40717 0.64119 0.0
C647 C 0.0247 0.40571 0.63969 0.0
C648 C 0.96106 0.40609 0.66033 0.0
C649 C 0.04866 0.40334 0.65752 0.0
C650 C 0.02938 0.40322 0.67657 0.0
C651 C 0.96602 0.40155 0.69725 0.0
C652 C 0.92211 0.39938 0.69885 0.0
C653 C 0.9856 0.40416 0.67816 0.0
C654 C 0.89798 0.40197 0.68104 0.0
C655 C 0.91724 0.40569 0.66199 0.0
H656 H 0.61995 0.06055 0.37934 0.0
H657 H 0.55708 0.9455 0.35778 0.0
H658 H 0.5666 0.9697 0.32269 0.0
H659 H 0.58941 0.02559 0.2983 0.0
H660 H 0.6493 0.14196 0.32046 0.0
H661 H 0.64363 0.11534 0.35519 0.0
C662 C 0.60904 0.04022 0.36699 0.0
C663 C 0.58805 0.0011 0.37121 0.0
C664 C 0.61332 0.055 0.34696 0.0
C665 C 0.57361 0.97561 0.35496 0.0
C666 C 0.57871 0.98961 0.3349 0.0
C667 C 0.60108 0.04522 0.31072 0.0
C668 C 0.61958 0.08584 0.30673 0.0
C669 C 0.59777 0.0297 0.33074 0.0
C670 C 0.6347 0.11071 0.32305 0.0
C671 C 0.63171 0.09541 0.34294 0.0
H672 H 0.86558 0.06285 0.62084 0.0
H673 H 0.94118 0.95901 0.59623 0.0
H674 H 0.9161 0.97586 0.56208 0.0
H675 H 0.87924 0.0259 0.53882 0.0
H676 H 0.80403 0.12978 0.56389 0.0
H677 H 0.82218 0.10685 0.5981 0.0
C678 C 0.87599 0.04338 0.60805 0.0
C679 C 0.90551 0.01007 0.61107 0.0
C680 C 0.86187 0.05357 0.58844 0.0
C681 C 0.91839 0.98485 0.59436 0.0
C682 C 0.90431 0.99469 0.57478 0.0
C683 C 0.86632 0.0431 0.55177 0.0
C684 C 0.84084 0.07993 0.54869 0.0
C685 C 0.87706 0.02988 0.57156 0.0
C686 C 0.82403 0.10155 0.5657 0.0
C687 C 0.83444 0.08854 0.58535 0.0
H688 H 0.90824 0.43535 0.86758 0.0
H689 H 0.99603 0.3317 0.87916 0.0
H690 H 0.98563 0.30403 0.84449 0.0
H691 H 0.94929 0.30863 0.81126 0.0
H692 H 0.86535 0.4163 0.79988 0.0
H693 H 0.87702 0.44349 0.83406 0.0
C694 C 0.92496 0.40655 0.86254 0.0
C695 C 0.95214 0.38492 0.87591 0.0
C696 C 0.91971 0.39184 0.8426 0.0
C697 C 0.97461 0.34848 0.86909 0.0
C698 C 0.96867 0.33279 0.84931 0.0
C699 C 0.93384 0.3382 0.81624 0.0
C700 C 0.90623 0.36016 0.80305 0.0
C701 C 0.94102 0.35408 0.83597 0.0
C702 C 0.88678 0.39872 0.80965 0.0
C703 C 0.89323 0.41423 0.82926 0.0
H704 H 0.60454 0.43649 0.13008 0.0
H705 H 0.56798 0.57067 0.12234 0.0
H706 H 0.57381 0.56296 0.08547 0.0
H707 H 0.58455 0.51636 0.05527 0.0
H708 H 0.61844 0.38148 0.06382 0.0
H709 H 0.61805 0.39133 0.10042 0.0
C710 C 0.59844 0.46435 0.12041 0.0
C711 C 0.58581 0.50409 0.12905 0.0
C712 C 0.60077 0.4594 0.09925 0.0
C713 C 0.57789 0.53968 0.11615 0.0
C714 C 0.58093 0.53522 0.09503 0.0
C715 C 0.59201 0.48919 0.06514 0.0
C716 C 0.60121 0.44817 0.0567 0.0
C717 C 0.5915 0.49493 0.08638 0.0
C718 C 0.61092 0.41338 0.06979 0.0
C719 C 0.61085 0.41895 0.09079 0.0
loop_
_geom_bond_atom_site_label_1
_geom_bond_atom_site_label_2
_geom_bond_distance
_geom_bond_site_symmetry_2
_ccdc_geom_bond_type
Mg0 O7 2.141 1_545 S
Mg0 O8 2.048 1_545 S
Mg0 O9 2.048 1_455 S
Mg0 O12 2.141 1_455 S
C1 O2 1.313 . S
C1 O8 1.195 . S
O2 C1 1.313 . S
C3 O4 1.245 . S
C3 O12 1.289 . S
O4 C3 1.245 . S
C5 O6 1.245 . S
C5 O7 1.289 . S
O6 C5 1.245 . S
O7 Mg0 2.141 1_565 S
O7 C5 1.289 . S
O8 Mg0 2.048 1_565 S
O8 C1 1.195 . S
O9 Mg0 2.048 1_655 S
O9 C10 1.195 . S
C10 O9 1.195 . S
C10 O11 1.313 1_545 S
O11 C10 1.313 1_565 S
O12 Mg0 2.141 1_655 S
O12 C3 1.289 . S
Mg13 O20 2.141 1_655 S
Mg13 O21 2.048 1_655 S
Mg13 O22 2.048 . S
Mg13 O25 2.141 . S
C14 O15 1.313 . S
C14 O21 1.195 . S
O15 C14 1.313 . S
C16 O17 1.245 . S
C16 O25 1.289 . S
O17 C16 1.245 . S
C18 O19 1.245 . S
C18 O20 1.289 . S
O19 C18 1.245 . S
O20 Mg13 2.141 1_455 S
O20 C18 1.289 . S
O21 Mg13 2.048 1_455 S
O21 C14 1.195 . S
O22 Mg13 2.048 . S
O22 C23 1.195 . S
C23 O22 1.195 . S
C23 O24 1.313 1_655 S
O24 C23 1.313 1_455 S
O25 Mg13 2.141 . S
O25 C16 1.289 . S
Mg26 O33 2.141 . S
Mg26 O34 2.048 . S
Mg26 O35 2.048 . S
Mg26 O38 2.141 . S
C27 O28 1.313 . S
C27 O34 1.195 . S
O28 C27 1.313 . S
C29 O30 1.245 . S
C29 O38 1.289 . S
O30 C29 1.245 . S
C31 O32 1.245 . S
C31 O33 1.289 . S
O32 C31 1.245 . S
O33 Mg26 2.141 . S
O33 C31 1.289 . S
O34 Mg26 2.048 . S
O34 C27 1.195 . S
O35 Mg26 2.048 . S
O35 C36 1.195 . S
C36 O35 1.195 . S
C36 O37 1.313 . S
O37 C36 1.313 . S
O38 Mg26 2.141 . S
O38 C29 1.289 . S
Mg39 O46 2.141 . S
Mg39 O47 2.048 . S
Mg39 O48 2.048 1_545 S
Mg39 O51 2.141 1_545 S
C40 O41 1.313 . S
C40 O47 1.195 . S
O41 C40 1.313 . S
C42 O43 1.245 . S
C42 O51 1.289 . S
O43 C42 1.245 . S
C44 O45 1.245 . S
C44 O46 1.289 . S
O45 C44 1.245 . S
O46 Mg39 2.141 . S
O46 C44 1.289 . S
O47 Mg39 2.048 . S
O47 C40 1.195 . S
O48 Mg39 2.048 1_565 S
O48 C49 1.195 . S
C49 O48 1.195 . S
C49 O50 1.313 . S
O50 C49 1.313 . S
O51 Mg39 2.141 1_565 S
O51 C42 1.289 . S
Mg52 O59 2.141 . S
Mg52 O60 2.048 . S
Mg52 O61 2.048 1_455 S
Mg52 O64 2.141 1_455 S
C53 O54 1.313 . S
C53 O60 1.195 . S
O54 C53 1.313 . S
C55 O56 1.245 . S
C55 O64 1.289 . S
O56 C55 1.245 . S
C57 O58 1.245 . S
C57 O59 1.289 . S
O58 C57 1.245 . S
O59 Mg52 2.141 . S
O59 C57 1.289 . S
O60 Mg52 2.048 . S
O60 C53 1.195 . S
O61 Mg52 2.048 1_655 S
O61 C62 1.195 . S
C62 O61 1.195 . S
C62 O63 1.313 . S
O63 C62 1.313 . S
O64 Mg52 2.141 1_655 S
O64 C55 1.289 . S
Mg65 O72 2.141 . S
Mg65 O73 2.048 . S
Mg65 O74 2.048 . S
Mg65 O77 2.141 . S
C66 O67 1.313 . S
C66 O73 1.195 . S
O67 C66 1.313 . S
C68 O69 1.245 . S
C68 O77 1.289 . S
O69 C68 1.245 . S
C70 O71 1.245 . S
C70 O72 1.289 . S
O71 C70 1.245 . S
O72 Mg65 2.141 . S
O72 C70 1.289 . S
O73 Mg65 2.048 . S
O73 C66 1.195 . S
O74 Mg65 2.048 . S
O74 C75 1.195 . S
C75 O74 1.195 . S
C75 O76 1.313 . S
O76 C75 1.313 . S
O77 Mg65 2.141 . S
O77 C68 1.289 . S
Mg78 O85 2.141 1_565 S
Mg78 O86 2.048 1_565 S
Mg78 O87 2.048 . S
Mg78 O90 2.141 . S
C79 O80 1.313 . S
C79 O86 1.195 . S
O80 C79 1.313 . S
C81 O82 1.245 . S
C81 O90 1.289 . S
O82 C81 1.245 . S
C83 O84 1.245 . S
C83 O85 1.289 . S
O84 C83 1.245 . S
O85 Mg78 2.141 1_545 S
O85 C83 1.289 . S
O86 Mg78 2.048 1_545 S
O86 C79 1.195 . S
O87 Mg78 2.048 . S
O87 C88 1.195 . S
C88 O87 1.195 . S
C88 O89 1.313 1_565 S
O89 C88 1.313 1_545 S
O90 Mg78 2.141 . S
O90 C81 1.289 . S
Mg91 O98 2.141 1_655 S
Mg91 O99 2.048 1_655 S
Mg91 O100 2.048 1_565 S
Mg91 O103 2.141 1_565 S
C92 O93 1.313 . S
C92 O99 1.195 . S
O93 C92 1.313 . S
C94 O95 1.245 . S
C94 O103 1.289 . S
O95 C94 1.245 . S
C96 O97 1.245 . S
C96 O98 1.289 . S
O97 C96 1.245 . S
O98 Mg91 2.141 1_455 S
O98 C96 1.289 . S
O99 Mg91 2.048 1_455 S
O99 C92 1.195 . S
O100 Mg91 2.048 1_545 S
O100 C101 1.195 . S
C101 O100 1.195 . S
C101 O102 1.313 1_655 S
O102 C101 1.313 1_455 S
O103 Mg91 2.141 1_545 S
O103 C94 1.289 . S
C104 O105 1.160 1_556 S
C104 O111 1.185 . S
O105 C104 1.160 1_554 S
O106 Zn107 1.899 . S
O106 C114 1.284 . S
Zn107 O106 1.899 . S
Zn107 O108 2.032 1_554 S
Zn107 O111 2.086 1_554 S
Zn107 O116 1.977 . S
O108 Zn107 2.032 1_556 S
O108 C112 1.278 . S
C109 O110 1.203 . S
C109 O116 1.267 . S
O110 C109 1.203 . S
O111 C104 1.185 . S
O111 Zn107 2.086 1_556 S
C112 O108 1.278 . S
C112 O113 1.211 . S
O113 C112 1.211 . S
C114 O106 1.284 . S
C114 O115 1.273 . S
O115 C114 1.273 . S
O116 Zn107 1.977 . S
O116 C109 1.267 . S
C117 O118 1.160 . S
C117 O124 1.185 . S
O118 C117 1.160 . S
O119 Zn120 1.899 . S
O119 C127 1.284 . S
Zn120 O119 1.899 . S
Zn120 O121 2.032 . S
Zn120 O124 2.086 . S
Zn120 O129 1.977 . S
O121 Zn120 2.032 . S
O121 C125 1.278 . S
C122 O123 1.203 . S
C122 O129 1.267 . S
O123 C122 1.203 . S
O124 C117 1.185 . S
O124 Zn120 2.086 . S
C125 O121 1.278 . S
C125 O126 1.211 . S
O126 C125 1.211 . S
C127 O119 1.284 . S
C127 O128 1.273 . S
O128 C127 1.273 . S
O129 Zn120 1.977 . S
O129 C122 1.267 . S
C130 O131 1.160 . S
C130 O137 1.185 . S
O131 C130 1.160 . S
O132 Zn133 1.899 . S
O132 C140 1.284 . S
Zn133 O132 1.899 . S
Zn133 O134 2.032 . S
Zn133 O137 2.086 . S
Zn133 O142 1.977 . S
O134 Zn133 2.032 . S
O134 C138 1.278 . S
C135 O136 1.203 . S
C135 O142 1.267 . S
O136 C135 1.203 . S
O137 C130 1.185 . S
O137 Zn133 2.086 . S
C138 O134 1.278 . S
C138 O139 1.211 . S
O139 C138 1.211 . S
C140 O132 1.284 . S
C140 O141 1.273 . S
O141 C140 1.273 . S
O142 Zn133 1.977 . S
O142 C135 1.267 . S
C143 O144 1.160 . S
C143 O150 1.185 . S
O144 C143 1.160 . S
O145 Zn146 1.899 . S
O145 C153 1.284 . S
Zn146 O145 1.899 . S
Zn146 O147 2.032 . S
Zn146 O150 2.086 . S
Zn146 O155 1.977 . S
O147 Zn146 2.032 . S
O147 C151 1.278 . S
C148 O149 1.203 . S
C148 O155 1.267 . S
O149 C148 1.203 . S
O150 C143 1.185 . S
O150 Zn146 2.086 . S
C151 O147 1.278 . S
C151 O152 1.211 . S
O152 C151 1.211 . S
C153 O145 1.284 . S
C153 O154 1.273 . S
O154 C153 1.273 . S
O155 Zn146 1.977 . S
O155 C148 1.267 . S
C156 O157 1.160 . S
C156 O163 1.185 . S
O157 C156 1.160 . S
O158 Zn159 1.899 . S
O158 C166 1.284 . S
Zn159 O158 1.899 . S
Zn159 O160 2.032 . S
Zn159 O163 2.086 . S
Zn159 O168 1.977 . S
O160 Zn159 2.032 . S
O160 C164 1.278 . S
C161 O162 1.203 . S
C161 O168 1.267 . S
O162 C161 1.203 . S
O163 C156 1.185 . S
O163 Zn159 2.086 . S
C164 O160 1.278 . S
C164 O165 1.211 . S
O165 C164 1.211 . S
C166 O158 1.284 . S
C166 O167 1.273 . S
O167 C166 1.273 . S
O168 Zn159 1.977 . S
O168 C161 1.267 . S
C169 O170 1.160 . S
C169 O176 1.185 . S
O170 C169 1.160 . S
O171 Zn172 1.899 . S
O171 C179 1.284 . S
Zn172 O171 1.899 . S
Zn172 O173 2.032 . S
Zn172 O176 2.086 . S
Zn172 O181 1.977 . S
O173 Zn172 2.032 . S
O173 C177 1.278 . S
C174 O175 1.203 . S
C174 O181 1.267 . S
O175 C174 1.203 . S
O176 C169 1.185 . S
O176 Zn172 2.086 . S
C177 O173 1.278 . S
C177 O178 1.211 . S
O178 C177 1.211 . S
C179 O171 1.284 . S
C179 O180 1.273 . S
O180 C179 1.273 . S
O181 Zn172 1.977 . S
O181 C174 1.267 . S
C182 O183 1.160 1_556 S
C182 O189 1.185 . S
O183 C182 1.160 1_554 S
O184 Zn185 1.899 . S
O184 C192 1.284 . S
Zn185 O184 1.899 . S
Zn185 O186 2.032 1_554 S
Zn185 O189 2.086 1_554 S
Zn185 O194 1.977 . S
O186 Zn185 2.032 1_556 S
O186 C190 1.278 . S
C187 O188 1.203 . S
C187 O194 1.267 . S
O188 C187 1.203 . S
O189 C182 1.185 . S
O189 Zn185 2.086 1_556 S
C190 O186 1.278 . S
C190 O191 1.211 . S
O191 C190 1.211 . S
C192 O184 1.284 . S
C192 O193 1.273 . S
O193 C192 1.273 . S
O194 Zn185 1.977 . S
O194 C187 1.267 . S
C195 O196 1.160 . S
C195 O202 1.185 . S
O196 C195 1.160 . S
O197 Zn198 1.899 . S
O197 C205 1.284 . S
Zn198 O197 1.899 . S
Zn198 O199 2.032 . S
Zn198 O202 2.086 . S
Zn198 O207 1.977 . S
O199 Zn198 2.032 . S
O199 C203 1.278 . S
C200 O201 1.203 . S
C200 O207 1.267 . S
O201 C200 1.203 . S
O202 C195 1.185 . S
O202 Zn198 2.086 . S
C203 O199 1.278 . S
C203 O204 1.211 . S
O204 C203 1.211 . S
C205 O197 1.284 . S
C205 O206 1.273 . S
O206 C205 1.273 . S
O207 Zn198 1.977 . S
O207 C200 1.267 . S
H208 C214 0.930 . S
H209 C217 0.930 . S
H210 C218 0.930 . S
H211 C219 0.930 . S
H212 C222 0.930 . S
H213 C223 0.930 . S
C214 H208 0.930 . S
C214 C215 1.355 . S
C214 C216 1.415 . S
C215 C214 1.355 . S
C215 C217 1.419 . S
C216 C214 1.415 . S
C216 C221 1.425 . S
C216 C223 1.409 . S
C217 H209 0.930 . S
C217 C215 1.419 . S
C217 C218 1.362 . S
C218 H210 0.930 . S
C218 C217 1.362 . S
C218 C221 1.409 . S
C219 H211 0.930 . S
C219 C220 1.355 . S
C219 C221 1.415 . S
C220 C219 1.355 . S
C220 C222 1.419 . S
C221 C216 1.425 . S
C221 C218 1.409 . S
C221 C219 1.415 . S
C222 H212 0.930 . S
C222 C220 1.419 . S
C222 C223 1.362 . S
C223 H213 0.930 . S
C223 C216 1.409 . S
C223 C222 1.362 . S
H224 C230 0.930 . S
H225 C233 0.930 . S
H226 C234 0.930 . S
H227 C235 0.930 . S
H228 C238 0.930 . S
H229 C239 0.930 . S
C230 H224 0.930 . S
C230 C231 1.355 . S
C230 C232 1.415 . S
C231 C230 1.355 . S
C231 C233 1.419 . S
C232 C230 1.415 . S
C232 C237 1.425 . S
C232 C239 1.409 . S
C233 H225 0.930 . S
C233 C231 1.419 . S
C233 C234 1.362 . S
C234 H226 0.930 . S
C234 C233 1.362 . S
C234 C237 1.409 . S
C235 H227 0.930 . S
C235 C236 1.355 . S
C235 C237 1.415 . S
C236 C235 1.355 . S
C236 C238 1.419 . S
C237 C232 1.425 . S
C237 C234 1.409 . S
C237 C235 1.415 . S
C238 H228 0.930 . S
C238 C236 1.419 . S
C238 C239 1.362 . S
C239 H229 0.930 . S
C239 C232 1.409 . S
C239 C238 1.362 . S
H240 C246 0.930 . S
H241 C249 0.930 . S
H242 C250 0.930 . S
H243 C251 0.930 . S
H244 C254 0.930 . S
H245 C255 0.930 . S
C246 H240 0.930 . S
C246 C247 1.355 . S
C246 C248 1.415 . S
C247 C246 1.355 . S
C247 C249 1.419 . S
C248 C246 1.415 . S
C248 C253 1.425 . S
C248 C255 1.409 . S
C249 H241 0.930 . S
C249 C247 1.419 . S
C249 C250 1.362 . S
C250 H242 0.930 . S
C250 C249 1.362 . S
C250 C253 1.409 . S
C251 H243 0.930 . S
C251 C252 1.355 . S
C251 C253 1.415 . S
C252 C251 1.355 . S
C252 C254 1.419 . S
C253 C248 1.425 . S
C253 C250 1.409 . S
C253 C251 1.415 . S
C254 H244 0.930 . S
C254 C252 1.419 . S
C254 C255 1.362 . S
C255 H245 0.930 . S
C255 C248 1.409 . S
C255 C254 1.362 . S
H256 C262 0.930 . S
H257 C265 0.930 . S
H258 C266 0.930 . S
H259 C267 0.930 . S
H260 C270 0.930 1_556 S
H261 C271 0.930 . S
C262 H256 0.930 . S
C262 C263 1.355 . S
C262 C264 1.415 . S
C263 C262 1.355 . S
C263 C265 1.419 . S
C264 C262 1.415 . S
C264 C269 1.425 . S
C264 C271 1.409 . S
C265 H257 0.930 . S
C265 C263 1.419 . S
C265 C266 1.362 . S
C266 H258 0.930 . S
C266 C265 1.362 . S
C266 C269 1.409 . S
C267 H259 0.930 . S
C267 C268 1.355 . S
C267 C269 1.415 . S
C268 C267 1.355 . S
C268 C270 1.419 . S
C269 C264 1.425 . S
C269 C266 1.409 . S
C269 C267 1.415 . S
C270 H260 0.930 1_554 S
C270 C268 1.419 . S
C270 C271 1.362 . S
C271 H261 0.930 . S
C271 C264 1.409 . S
C271 C270 1.362 . S
H272 C278 0.930 . S
H273 C281 0.930 . S
H274 C282 0.942 . S
H275 C283 0.930 1_554 S
H276 C286 0.930 . S
H277 C287 0.930 . S
C278 H272 0.930 . S
C278 C279 1.355 . S
C278 C280 1.415 . S
C279 C278 1.355 . S
C279 C281 1.419 . S
C280 C278 1.415 . S
C280 C285 1.425 . S
C280 C287 1.409 . S
C281 H273 0.930 . S
C281 C279 1.419 . S
C281 C282 1.362 . S
C282 H274 0.942 . S
C282 C281 1.362 . S
C282 C285 1.409 . S
C283 H275 0.930 1_556 S
C283 C284 1.355 . S
C283 C285 1.415 . S
C284 C283 1.355 . S
C284 C286 1.419 . S
C285 C280 1.425 . S
C285 C282 1.409 . S
C285 C283 1.415 . S
C286 H276 0.930 . S
C286 C284 1.419 . S
C286 C287 1.362 . S
C287 H277 0.930 . S
C287 C280 1.409 . S
C287 C286 1.362 . S
H288 C294 0.930 . S
H289 C297 0.930 . S
H290 C298 0.930 . S
H291 C299 0.930 . S
H292 C302 0.930 . S
H293 C303 0.930 . S
C294 H288 0.930 . S
C294 C295 1.355 . S
C294 C296 1.415 . S
C295 C294 1.355 . S
C295 C297 1.419 . S
C296 C294 1.415 . S
C296 C301 1.425 . S
C296 C303 1.409 . S
C297 H289 0.930 . S
C297 C295 1.419 . S
C297 C298 1.362 . S
C298 H290 0.930 . S
C298 C297 1.362 . S
C298 C301 1.409 . S
C299 H291 0.930 . S
C299 C300 1.355 . S
C299 C301 1.415 . S
C300 C299 1.355 . S
C300 C302 1.419 . S
C301 C296 1.425 . S
C301 C298 1.409 . S
C301 C299 1.415 . S
C302 H292 0.930 . S
C302 C300 1.419 . S
C302 C303 1.362 . S
C303 H293 0.930 . S
C303 C296 1.409 . S
C303 C302 1.362 . S
H304 C310 0.930 . S
H305 C313 0.930 . S
H306 C314 0.930 . S
H307 C315 0.930 . S
H308 C318 0.930 . S
H309 C319 0.930 . S
C310 H304 0.930 . S
C310 C311 1.355 . S
C310 C312 1.415 . S
C311 C310 1.355 . S
C311 C313 1.419 . S
C312 C310 1.415 . S
C312 C317 1.425 . S
C312 C319 1.409 . S
C313 H305 0.930 . S
C313 C311 1.419 . S
C313 C314 1.362 . S
C314 H306 0.930 . S
C314 C313 1.362 . S
C314 C317 1.409 . S
C315 H307 0.930 . S
C315 C316 1.355 . S
C315 C317 1.415 . S
C316 C315 1.355 . S
C316 C318 1.419 . S
C317 C312 1.425 . S
C317 C314 1.409 . S
C317 C315 1.415 . S
C318 H308 0.930 . S
C318 C316 1.419 . S
C318 C319 1.362 . S
C319 H309 0.930 . S
C319 C312 1.409 . S
C319 C318 1.362 . S
H320 C326 0.930 . S
H321 C329 0.930 . S
H322 C330 0.930 . S
H323 C331 0.930 . S
H324 C334 0.930 . S
H325 C335 0.930 . S
C326 H320 0.930 . S
C326 C327 1.355 . S
C326 C328 1.415 . S
C327 C326 1.355 . S
C327 C329 1.419 . S
C328 C326 1.415 . S
C328 C333 1.425 . S
C328 C335 1.409 . S
C329 H321 0.930 . S
C329 C327 1.419 . S
C329 C330 1.362 . S
C330 H322 0.930 . S
C330 C329 1.362 . S
C330 C333 1.409 . S
C331 H323 0.930 . S
C331 C332 1.355 . S
C331 C333 1.415 . S
C332 C331 1.355 . S
C332 C334 1.419 . S
C333 C328 1.425 . S
C333 C330 1.409 . S
C333 C331 1.415 . S
C334 H324 0.930 . S
C334 C332 1.419 . S
C334 C335 1.362 . S
C335 H325 0.930 . S
C335 C328 1.409 . S
C335 C334 1.362 . S
H336 C342 0.930 . S
H337 C345 0.930 . S
H338 C346 0.930 . S
H339 C347 0.930 . S
H340 C350 0.930 . S
H341 C351 0.930 . S
C342 H336 0.930 . S
C342 C343 1.355 . S
C342 C344 1.415 . S
C343 C342 1.355 . S
C343 C345 1.419 . S
C344 C342 1.415 . S
C344 C349 1.425 . S
C344 C351 1.409 . S
C345 H337 0.930 . S
C345 C343 1.419 . S
C345 C346 1.362 . S
C346 H338 0.930 . S
C346 C345 1.362 . S
C346 C349 1.409 . S
C347 H339 0.930 . S
C347 C348 1.355 . S
C347 C349 1.415 . S
C348 C347 1.355 . S
C348 C350 1.419 . S
C349 C344 1.425 . S
C349 C346 1.409 . S
C349 C347 1.415 . S
C350 H340 0.930 . S
C350 C348 1.419 . S
C350 C351 1.362 . S
C351 H341 0.930 . S
C351 C344 1.409 . S
C351 C350 1.362 . S
H352 C358 0.930 . S
H353 C361 0.930 . S
H354 C362 0.930 . S
H355 C363 0.930 . S
H356 C366 0.930 . S
H357 C367 0.930 . S
C358 H352 0.930 . S
C358 C359 1.355 . S
C358 C360 1.415 . S
C359 C358 1.355 . S
C359 C361 1.419 . S
C360 C358 1.415 . S
C360 C365 1.425 . S
C360 C367 1.409 . S
C361 H353 0.930 . S
C361 C359 1.419 . S
C361 C362 1.362 . S
C362 H354 0.930 . S
C362 C361 1.362 . S
C362 C365 1.409 . S
C363 H355 0.930 . S
C363 C364 1.355 . S
C363 C365 1.415 . S
C364 C363 1.355 . S
C364 C366 1.419 . S
C365 C360 1.425 . S
C365 C362 1.409 . S
C365 C363 1.415 . S
C366 H356 0.930 . S
C366 C364 1.419 . S
C366 C367 1.362 . S
C367 H357 0.930 . S
C367 C360 1.409 . S
C367 C366 1.362 . S
H368 C374 0.930 . S
H369 C377 0.930 . S
H370 C378 0.930 . S
H371 C379 0.930 . S
H372 C382 0.930 . S
H373 C383 0.930 . S
C374 H368 0.930 . S
C374 C375 1.355 . S
C374 C376 1.415 . S
C375 C374 1.355 . S
C375 C377 1.419 . S
C376 C374 1.415 . S
C376 C381 1.425 . S
C376 C383 1.409 . S
C377 H369 0.930 . S
C377 C375 1.419 . S
C377 C378 1.362 . S
C378 H370 0.930 . S
C378 C377 1.362 . S
C378 C381 1.409 . S
C379 H371 0.930 . S
C379 C380 1.355 . S
C379 C381 1.415 . S
C380 C379 1.355 . S
C380 C382 1.419 . S
C381 C376 1.425 . S
C381 C378 1.409 . S
C381 C379 1.415 . S
C382 H372 0.930 . S
C382 C380 1.419 . S
C382 C383 1.362 . S
C383 H373 0.930 . S
C383 C376 1.409 . S
C383 C382 1.362 . S
H384 C390 0.930 . S
H385 C393 0.930 . S
H386 C394 0.930 . S
H387 C395 0.930 . S
H388 C398 0.930 . S
H389 C399 0.930 . S
C390 H384 0.930 . S
C390 C391 1.355 . S
C390 C392 1.415 . S
C391 C390 1.355 . S
C391 C393 1.419 . S
C392 C390 1.415 . S
C392 C397 1.425 . S
C392 C399 1.409 . S
C393 H385 0.930 . S
C393 C391 1.419 . S
C393 C394 1.362 . S
C394 H386 0.930 . S
C394 C393 1.362 . S
C394 C397 1.409 . S
C395 H387 0.930 . S
C395 C396 1.355 . S
C395 C397 1.415 . S
C396 C395 1.355 . S
C396 C398 1.419 . S
C397 C392 1.425 . S
C397 C394 1.409 . S
C397 C395 1.415 . S
C398 H388 0.930 . S
C398 C396 1.419 . S
C398 C399 1.362 . S
C399 H389 0.930 . S
C399 C392 1.409 . S
C399 C398 1.362 . S
H400 C406 0.930 . S
H401 C409 0.930 . S
H402 C410 0.930 . S
H403 C411 0.930 . S
H404 C414 0.930 . S
H405 C415 0.930 . S
C406 H400 0.930 . S
C406 C407 1.355 . S
C406 C408 1.415 . S
C407 C406 1.355 . S
C407 C409 1.419 . S
C408 C406 1.415 . S
C408 C413 1.425 . S
C408 C415 1.409 . S
C409 H401 0.930 . S
C409 C407 1.419 . S
C409 C410 1.362 . S
C410 H402 0.930 . S
C410 C409 1.362 . S
C410 C413 1.409 . S
C411 H403 0.930 . S
C411 C412 1.355 . S
C411 C413 1.415 . S
C412 C411 1.355 . S
C412 C414 1.419 . S
C413 C408 1.425 . S
C413 C410 1.409 . S
C413 C411 1.415 . S
C414 H404 0.930 . S
C414 C412 1.419 . S
C414 C415 1.362 . S
C415 H405 0.930 . S
C415 C408 1.409 . S
C415 C414 1.362 . S
H416 C422 0.930 . S
H417 C425 0.930 . S
H418 C426 0.930 . S
H419 C427 0.930 . S
H420 C430 0.930 . S
H421 C431 0.930 . S
C422 H416 0.930 . S
C422 C423 1.355 . S
C422 C424 1.415 . S
C423 C422 1.355 . S
C423 C425 1.419 . S
C424 C422 1.415 . S
C424 C429 1.425 . S
C424 C431 1.409 . S
C425 H417 0.930 . S
C425 C423 1.419 . S
C425 C426 1.362 . S
C426 H418 0.930 . S
C426 C425 1.362 . S
C426 C429 1.409 . S
C427 H419 0.930 . S
C427 C428 1.355 . S
C427 C429 1.415 . S
C428 C427 1.355 . S
C428 C430 1.419 . S
C429 C424 1.425 . S
C429 C426 1.409 . S
C429 C427 1.415 . S
C430 H420 0.930 . S
C430 C428 1.419 . S
C430 C431 1.362 . S
C431 H421 0.930 . S
C431 C424 1.409 . S
C431 C430 1.362 . S
H432 C438 0.930 . S
H433 C441 0.930 . S
H434 C442 0.930 . S
H435 C443 0.930 . S
H436 C446 0.930 1_554 S
H437 C447 0.930 . S
C438 H432 0.930 . S
C438 C439 1.355 . S
C438 C440 1.415 . S
C439 C438 1.355 . S
C439 C441 1.419 . S
C440 C438 1.415 . S
C440 C445 1.425 . S
C440 C447 1.409 . S
C441 H433 0.930 . S
C441 C439 1.419 . S
C441 C442 1.362 . S
C442 H434 0.930 . S
C442 C441 1.362 . S
C442 C445 1.409 . S
C443 H435 0.930 . S
C443 C444 1.355 . S
C443 C445 1.415 . S
C444 C443 1.355 . S
C444 C446 1.419 . S
C445 C440 1.425 . S
C445 C442 1.409 . S
C445 C443 1.415 . S
C446 H436 0.930 1_556 S
C446 C444 1.419 . S
C446 C447 1.362 . S
C447 H437 0.930 . S
C447 C440 1.409 . S
C447 C446 1.362 . S
H448 C454 0.930 . S
H449 C457 0.930 . S
H450 C458 0.930 . S
H451 C459 0.930 . S
H452 C462 0.930 . S
H453 C463 0.930 . S
C454 H448 0.930 . S
C454 C455 1.355 . S
C454 C456 1.415 . S
C455 C454 1.355 . S
C455 C457 1.419 . S
C456 C454 1.415 . S
C456 C461 1.425 . S
C456 C463 1.409 . S
C457 H449 0.930 . S
C457 C455 1.419 . S
C457 C458 1.362 . S
C458 H450 0.930 . S
C458 C457 1.362 . S
C458 C461 1.409 . S
C459 H451 0.930 . S
C459 C460 1.355 . S
C459 C461 1.415 . S
C460 C459 1.355 . S
C460 C462 1.419 . S
C461 C456 1.425 . S
C461 C458 1.409 . S
C461 C459 1.415 . S
C462 H452 0.930 . S
C462 C460 1.419 . S
C462 C463 1.362 . S
C463 H453 0.930 . S
C463 C456 1.409 . S
C463 C462 1.362 . S
H464 C470 0.930 . S
H465 C473 0.930 . S
H466 C474 0.930 . S
H467 C475 0.930 . S
H468 C478 0.930 . S
H469 C479 0.930 . S
C470 H464 0.930 . S
C470 C471 1.355 . S
C470 C472 1.415 . S
C471 C470 1.355 . S
C471 C473 1.419 . S
C472 C470 1.415 . S
C472 C477 1.425 . S
C472 C479 1.409 . S
C473 H465 0.930 . S
C473 C471 1.419 . S
C473 C474 1.362 . S
C474 H466 0.930 . S
C474 C473 1.362 . S
C474 C477 1.409 . S
C475 H467 0.930 . S
C475 C476 1.355 . S
C475 C477 1.415 . S
C476 C475 1.355 . S
C476 C478 1.419 . S
C477 C472 1.425 . S
C477 C474 1.409 . S
C477 C475 1.415 . S
C478 H468 0.930 . S
C478 C476 1.419 . S
C478 C479 1.362 . S
C479 H469 0.930 . S
C479 C472 1.409 . S
C479 C478 1.362 . S
H480 C486 0.930 . S
H481 C489 0.930 . S
H482 C490 0.930 . S
H483 C491 0.930 . S
H484 C494 0.930 . S
H485 C495 0.930 . S
C486 H480 0.930 . S
C486 C487 1.355 . S
C486 C488 1.415 . S
C487 C486 1.355 . S
C487 C489 1.419 . S
C488 C486 1.415 . S
C488 C493 1.425 . S
C488 C495 1.409 . S
C489 H481 0.930 . S
C489 C487 1.419 . S
C489 C490 1.362 . S
C490 H482 0.930 . S
C490 C489 1.362 . S
C490 C493 1.409 . S
C491 H483 0.930 . S
C491 C492 1.355 . S
C491 C493 1.415 . S
C492 C491 1.355 . S
C492 C494 1.419 . S
C493 C488 1.425 . S
C493 C490 1.409 . S
C493 C491 1.415 . S
C494 H484 0.930 . S
C494 C492 1.419 . S
C494 C495 1.362 . S
C495 H485 0.930 . S
C495 C488 1.409 . S
C495 C494 1.362 . S
H496 C502 0.930 . S
H497 C505 0.930 . S
H498 C506 0.930 . S
H499 C507 0.930 . S
H500 C510 0.930 . S
H501 C511 0.930 . S
C502 H496 0.930 . S
C502 C503 1.355 . S
C502 C504 1.415 . S
C503 C502 1.355 . S
C503 C505 1.419 . S
C504 C502 1.415 . S
C504 C509 1.425 . S
C504 C511 1.409 . S
C505 H497 0.930 . S
C505 C503 1.419 . S
C505 C506 1.362 . S
C506 H498 0.930 . S
C506 C505 1.362 . S
C506 C509 1.409 . S
C507 H499 0.930 . S
C507 C508 1.355 . S
C507 C509 1.415 . S
C508 C507 1.355 . S
C508 C510 1.419 . S
C509 C504 1.425 . S
C509 C506 1.409 . S
C509 C507 1.415 . S
C510 H500 0.930 . S
C510 C508 1.419 . S
C510 C511 1.362 . S
C511 H501 0.930 . S
C511 C504 1.409 . S
C511 C510 1.362 . S
H512 C518 0.930 . S
H513 C521 0.930 . S
H514 C522 0.930 . S
H515 C523 0.930 . S
H516 C526 0.930 . S
H517 C527 0.930 . S
C518 H512 0.930 . S
C518 C519 1.355 . S
C518 C520 1.415 . S
C519 C518 1.355 . S
C519 C521 1.419 . S
C520 C518 1.415 . S
C520 C525 1.425 . S
C520 C527 1.409 . S
C521 H513 0.930 . S
C521 C519 1.419 . S
C521 C522 1.362 . S
C522 H514 0.930 . S
C522 C521 1.362 . S
C522 C525 1.409 . S
C523 H515 0.930 . S
C523 C524 1.355 . S
C523 C525 1.415 . S
C524 C523 1.355 . S
C524 C526 1.419 . S
C525 C520 1.425 . S
C525 C522 1.409 . S
C525 C523 1.415 . S
C526 H516 0.930 . S
C526 C524 1.419 . S
C526 C527 1.362 . S
C527 H517 0.930 . S
C527 C520 1.409 . S
C527 C526 1.362 . S
H528 C534 0.930 . S
H529 C537 0.930 . S
H530 C538 0.930 . S
H531 C539 0.930 . S
H532 C542 0.930 . S
H533 C543 0.930 . S
C534 H528 0.930 . S
C534 C535 1.355 . S
C534 C536 1.415 . S
C535 C534 1.355 . S
C535 C537 1.419 . S
C536 C534 1.415 . S
C536 C541 1.425 . S
C536 C543 1.409 . S
C537 H529 0.930 . S
C537 C535 1.419 . S
C537 C538 1.362 . S
C538 H530 0.930 . S
C538 C537 1.362 . S
C538 C541 1.409 . S
C539 H531 0.930 . S
C539 C540 1.355 . S
C539 C541 1.415 . S
C540 C539 1.355 . S
C540 C542 1.419 . S
C541 C536 1.425 . S
C541 C538 1.409 . S
C541 C539 1.415 . S
C542 H532 0.930 . S
C542 C540 1.419 . S
C542 C543 1.362 . S
C543 H533 0.930 . S
C543 C536 1.409 . S
C543 C542 1.362 . S
H544 C550 0.930 . S
H545 C553 0.930 . S
H546 C554 0.930 . S
H547 C555 0.930 . S
H548 C558 0.930 . S
H549 C559 0.930 . S
C550 H544 0.930 . S
C550 C551 1.355 . S
C550 C552 1.415 . S
C551 C550 1.355 . S
C551 C553 1.419 . S
C552 C550 1.415 . S
C552 C557 1.425 . S
C552 C559 1.409 . S
C553 H545 0.930 . S
C553 C551 1.419 . S
C553 C554 1.362 . S
C554 H546 0.930 . S
C554 C553 1.362 . S
C554 C557 1.409 . S
C555 H547 0.930 . S
C555 C556 1.355 . S
C555 C557 1.415 . S
C556 C555 1.355 . S
C556 C558 1.419 . S
C557 C552 1.425 . S
C557 C554 1.409 . S
C557 C555 1.415 . S
C558 H548 0.930 . S
C558 C556 1.419 . S
C558 C559 1.362 . S
C559 H549 0.930 . S
C559 C552 1.409 . S
C559 C558 1.362 . S
H560 C566 0.930 . S
H561 C569 0.930 . S
H562 C570 0.930 . S
H563 C571 0.930 . S
H564 C574 0.930 . S
H565 C575 0.930 . S
C566 H560 0.930 . S
C566 C567 1.355 . S
C566 C568 1.415 . S
C567 C566 1.355 . S
C567 C569 1.419 . S
C568 C566 1.415 . S
C568 C573 1.425 . S
C568 C575 1.409 . S
C569 H561 0.930 . S
C569 C567 1.419 . S
C569 C570 1.362 . S
C570 H562 0.930 . S
C570 C569 1.362 . S
C570 C573 1.409 . S
C571 H563 0.930 . S
C571 C572 1.355 . S
C571 C573 1.415 . S
C572 C571 1.355 . S
C572 C574 1.419 . S
C573 C568 1.425 . S
C573 C570 1.409 . S
C573 C571 1.415 . S
C574 H564 0.930 . S
C574 C572 1.419 . S
C574 C575 1.362 . S
C575 H565 0.930 . S
C575 C568 1.409 . S
C575 C574 1.362 . S
H576 C582 0.930 . S
H577 C585 0.930 . S
H578 C586 0.930 . S
H579 C587 0.930 . S
H580 C590 0.930 . S
H581 C591 0.930 . S
C582 H576 0.930 . S
C582 C583 1.355 . S
C582 C584 1.415 . S
C583 C582 1.355 . S
C583 C585 1.419 . S
C584 C582 1.415 . S
C584 C589 1.425 . S
C584 C591 1.409 . S
C585 H577 0.930 . S
C585 C583 1.419 . S
C585 C586 1.362 . S
C586 H578 0.930 . S
C586 C585 1.362 . S
C586 C589 1.409 . S
C587 H579 0.930 . S
C587 C588 1.355 . S
C587 C589 1.415 . S
C588 C587 1.355 . S
C588 C590 1.419 . S
C589 C584 1.425 . S
C589 C586 1.409 . S
C589 C587 1.415 . S
C590 H580 0.930 . S
C590 C588 1.419 . S
C590 C591 1.362 . S
C591 H581 0.930 . S
C591 C584 1.409 . S
C591 C590 1.362 . S
H592 C598 0.930 . S
H593 C601 0.930 . S
H594 C602 0.930 . S
H595 C603 0.930 . S
H596 C606 0.930 . S
H597 C607 0.930 . S
C598 H592 0.930 . S
C598 C599 1.355 . S
C598 C600 1.415 . S
C599 C598 1.355 . S
C599 C601 1.419 . S
C600 C598 1.415 . S
C600 C605 1.425 . S
C600 C607 1.409 . S
C601 H593 0.930 . S
C601 C599 1.419 . S
C601 C602 1.362 . S
C602 H594 0.930 . S
C602 C601 1.362 . S
C602 C605 1.409 . S
C603 H595 0.930 . S
C603 C604 1.355 . S
C603 C605 1.415 . S
C604 C603 1.355 . S
C604 C606 1.419 . S
C605 C600 1.425 . S
C605 C602 1.409 . S
C605 C603 1.415 . S
C606 H596 0.930 . S
C606 C604 1.419 . S
C606 C607 1.362 . S
C607 H597 0.930 . S
C607 C600 1.409 . S
C607 C606 1.362 . S
H608 C614 0.930 . S
H609 C617 0.930 . S
H610 C618 0.930 . S
H611 C619 0.930 . S
H612 C622 0.930 . S
H613 C623 0.930 . S
C614 H608 0.930 . S
C614 C615 1.355 . S
C614 C616 1.415 . S
C615 C614 1.355 . S
C615 C617 1.419 . S
C616 C614 1.415 . S
C616 C621 1.425 . S
C616 C623 1.409 . S
C617 H609 0.930 . S
C617 C615 1.419 . S
C617 C618 1.362 . S
C618 H610 0.930 . S
C618 C617 1.362 . S
C618 C621 1.409 . S
C619 H611 0.930 . S
C619 C620 1.355 . S
C619 C621 1.415 . S
C620 C619 1.355 . S
C620 C622 1.419 . S
C621 C616 1.425 . S
C621 C618 1.409 . S
C621 C619 1.415 . S
C622 H612 0.930 . S
C622 C620 1.419 . S
C622 C623 1.362 . S
C623 H613 0.930 . S
C623 C616 1.409 . S
C623 C622 1.362 . S
H624 C630 0.930 . S
H625 C633 0.930 . S
H626 C634 0.930 . S
H627 C635 0.930 . S
H628 C638 0.930 . S
H629 C639 0.930 . S
C630 H624 0.930 . S
C630 C631 1.355 . S
C630 C632 1.415 . S
C631 C630 1.355 . S
C631 C633 1.419 . S
C632 C630 1.415 . S
C632 C637 1.425 . S
C632 C639 1.409 . S
C633 H625 0.930 . S
C633 C631 1.419 . S
C633 C634 1.362 . S
C634 H626 0.930 . S
C634 C633 1.362 . S
C634 C637 1.409 . S
C635 H627 0.930 . S
C635 C636 1.355 . S
C635 C637 1.415 . S
C636 C635 1.355 . S
C636 C638 1.419 . S
C637 C632 1.425 . S
C637 C634 1.409 . S
C637 C635 1.415 . S
C638 H628 0.930 . S
C638 C636 1.419 . S
C638 C639 1.362 . S
C639 H629 0.930 . S
C639 C632 1.409 . S
C639 C638 1.362 . S
H640 C646 0.930 . S
H641 C649 0.944 . S
H642 C650 0.930 . S
H643 C651 0.930 . S
H644 C654 0.930 . S
H645 C655 0.930 . S
C646 H640 0.930 . S
C646 C647 1.355 . S
C646 C648 1.415 . S
C647 C646 1.355 . S
C647 C649 1.419 . S
C648 C646 1.415 . S
C648 C653 1.425 . S
C648 C655 1.409 . S
C649 H641 0.944 . S
C649 C647 1.419 . S
C649 C650 1.362 . S
C650 H642 0.930 . S
C650 C649 1.362 . S
C650 C653 1.409 . S
C651 H643 0.930 . S
C651 C652 1.355 . S
C651 C653 1.415 . S
C652 C651 1.355 . S
C652 C654 1.419 . S
C653 C648 1.425 . S
C653 C650 1.409 . S
C653 C651 1.415 . S
C654 H644 0.930 . S
C654 C652 1.419 . S
C654 C655 1.362 . S
C655 H645 0.930 . S
C655 C648 1.409 . S
C655 C654 1.362 . S
H656 C662 0.930 . S
H657 C665 0.930 . S
H658 C666 0.930 . S
H659 C667 0.930 . S
H660 C670 0.930 . S
H661 C671 0.930 . S
C662 H656 0.930 . S
C662 C663 1.355 . S
C662 C664 1.415 . S
C663 C662 1.355 . S
C663 C665 1.419 . S
C664 C662 1.415 . S
C664 C669 1.425 . S
C664 C671 1.409 . S
C665 H657 0.930 . S
C665 C663 1.419 . S
C665 C666 1.362 . S
C666 H658 0.930 . S
C666 C665 1.362 . S
C666 C669 1.409 . S
C667 H659 0.930 . S
C667 C668 1.355 . S
C667 C669 1.415 . S
C668 C667 1.355 . S
C668 C670 1.419 . S
C669 C664 1.425 . S
C669 C666 1.409 . S
C669 C667 1.415 . S
C670 H660 0.930 . S
C670 C668 1.419 . S
C670 C671 1.362 . S
C671 H661 0.930 . S
C671 C664 1.409 . S
C671 C670 1.362 . S
H672 C678 0.930 . S
H673 C681 0.930 . S
H674 C682 0.930 . S
H675 C683 0.930 . S
H676 C686 0.930 . S
H677 C687 0.930 . S
C678 H672 0.930 . S
C678 C679 1.355 . S
C678 C680 1.415 . S
C679 C678 1.355 . S
C679 C681 1.419 . S
C680 C678 1.415 . S
C680 C685 1.425 . S
C680 C687 1.409 . S
C681 H673 0.930 . S
C681 C679 1.419 . S
C681 C682 1.362 . S
C682 H674 0.930 . S
C682 C681 1.362 . S
C682 C685 1.409 . S
C683 H675 0.930 . S
C683 C684 1.355 . S
C683 C685 1.415 . S
C684 C683 1.355 . S
C684 C686 1.419 . S
C685 C680 1.425 . S
C685 C682 1.409 . S
C685 C683 1.415 . S
C686 H676 0.930 . S
C686 C684 1.419 . S
C686 C687 1.362 . S
C687 H677 0.930 . S
C687 C680 1.409 . S
C687 C686 1.362 . S
H688 C694 0.930 . S
H689 C697 0.930 . S
H690 C698 0.930 . S
H691 C699 0.930 . S
H692 C702 0.930 . S
H693 C703 0.930 . S
C694 H688 0.930 . S
C694 C695 1.355 . S
C694 C696 1.415 . S
C695 C694 1.355 . S
C695 C697 1.419 . S
C696 C694 1.415 . S
C696 C701 1.425 . S
C696 C703 1.409 . S
C697 H689 0.930 . S
C697 C695 1.419 . S
C697 C698 1.362 . S
C698 H690 0.930 . S
C698 C697 1.362 . S
C698 C701 1.409 . S
C699 H691 0.930 . S
C699 C700 1.355 . S
C699 C701 1.415 . S
C700 C699 1.355 . S
C700 C702 1.419 . S
C701 C696 1.425 . S
C701 C698 1.409 . S
C701 C699 1.415 . S
C702 H692 0.930 . S
C702 C700 1.419 . S
C702 C703 1.362 . S
C703 H693 0.930 . S
C703 C696 1.409 . S
C703 C702 1.362 . S
H704 C710 0.930 . S
H705 C713 0.930 . S
H706 C714 0.930 . S
H707 C715 0.930 . S
H708 C718 0.930 . S
H709 C719 0.930 . S
C710 H704 0.930 . S
C710 C711 1.355 . S
C710 C712 1.415 . S
C711 C710 1.355 . S
C711 C713 1.419 . S
C712 C710 1.415 . S
C712 C717 1.425 . S
C712 C719 1.409 . S
C713 H705 0.930 . S
C713 C711 1.419 . S
C713 C714 1.362 . S
C714 H706 0.930 . S
C714 C713 1.362 . S
C714 C717 1.409 . S
C715 H707 0.930 . S
C715 C716 1.355 . S
C715 C717 1.415 . S
C716 C715 1.355 . S
C716 C718 1.419 . S
C717 C712 1.425 . S
C717 C714 1.409 . S
C717 C715 1.415 . S
C718 H708 0.930 . S
C718 C716 1.419 . S
C718 C719 1.362 . S
C719 H709 0.930 . S
C719 C712 1.409 . S
C719 C718 1.362 . S
C220 C117 1.328 . S
C215 C5 1.343 . S
C236 C135 1.288 . S
C231 C18 1.329 . S
C252 C143 1.300 . S
C247 C31 1.346 . S
C263 C42 1.300 . S
C268 C109 1.256 . S
C279 C57 1.353 . S
C284 C104 1.315 . S
C295 C70 1.298 . S
C300 C122 1.178 . S
C316 C130 1.255 . S
C311 C81 1.333 . S
C332 C148 1.288 . S
C327 C96 1.332 . S
C343 C29 1.356 . S
C348 C169 1.277 . S
C364 C187 1.169 . S
C359 C44 1.304 . S
C375 C3 1.310 . S
C380 C195 1.309 . S
C396 C161 1.172 . S
C391 C16 1.346 . S
C407 C83 1.331 . S
C412 C156 1.272 . S
C423 C94 1.301 . S
C428 C174 1.246 . S
C444 C182 1.303 . S
C439 C55 1.313 . S
C455 C68 1.293 . S
C460 C200 1.276 . S
C476 C138 1.380 . S
C471 C1 1.329 . S
C492 C153 1.361 . S
C487 C14 1.381 . S
C503 C27 1.377 . S
C508 C112 1.379 . S
C519 C49 1.379 . S
C524 C127 1.378 . S
C535 C53 1.365 . S
C540 C151 1.379 . S
C556 C114 1.319 . S
C551 C66 1.312 . S
C572 C125 1.378 . S
C567 C88 1.380 . S
C588 C140 1.341 . S
C583 C92 1.377 . S
C604 C190 1.378 . S
C599 C36 1.374 . S
C620 C205 1.323 . S
C615 C40 1.362 . S
C631 C10 1.383 . S
C636 C164 1.378 . S
C652 C179 1.376 . S
C647 C23 1.369 . S
C668 C203 1.381 . S
C663 C79 1.313 . S
C679 C101 1.373 . S
C684 C166 1.378 . S
C700 C177 1.382 . S
C695 C62 1.375 . S
C716 C192 1.334 . S
C711 C75 1.363 . S
