# Generated by pormake.
# Topology ocu, (6,8)-cn, num edge types: 1
# Building blocks:
#     Node 0, Type 0, BuildingBlock: CUWYAW_clean_sbu_0, # of connection points: 6
#     Node 1, Type 0, BuildingBlock: CUWYAW_clean_sbu_0, # of connection points: 6
#     Node 2, Type 0, BuildingBlock: CUWYAW_clean_sbu_0, # of connection points: 6
#     Node 3, Type 0, BuildingBlock: CUWYAW_clean_sbu_0, # of connection points: 6
#     Node 4, Type 0, BuildingBlock: CUWYAW_clean_sbu_0, # of connection points: 6
#     Node 5, Type 0, BuildingBlock: CUWYAW_clean_sbu_0, # of connection points: 6
#     Node 6, Type 0, BuildingBlock: CUWYAW_clean_sbu_0, # of connection points: 6
#     Node 7, Type 0, BuildingBlock: CUWYAW_clean_sbu_0, # of connection points: 6
#     Node 8, Type 1, BuildingBlock: TAGTUT_clean_sbu_1, # of connection points: 8
#     Node 9, Type 1, BuildingBlock: TAGTUT_clean_sbu_1, # of connection points: 8
#     Node 10, Type 1, BuildingBlock: TAGTUT_clean_sbu_1, # of connection points: 8
#     Node 11, Type 1, BuildingBlock: TAGTUT_clean_sbu_1, # of connection points: 8
#     Node 12, Type 1, BuildingBlock: TAGTUT_clean_sbu_1, # of connection points: 8
#     Node 13, Type 1, BuildingBlock: TAGTUT_clean_sbu_1, # of connection points: 8
#     Edge 14, Type (0, 1), BuildingBlock: XIVTED_clean_linker_0, # of connection points: 2
#     Edge 15, Type (0, 1), BuildingBlock: XIVTED_clean_linker_0, # of connection points: 2
#     Edge 16, Type (0, 1), BuildingBlock: XIVTED_clean_linker_0, # of connection points: 2
#     Edge 17, Type (0, 1), BuildingBlock: XIVTED_clean_linker_0, # of connection points: 2
#     Edge 18, Type (0, 1), BuildingBlock: XIVTED_clean_linker_0, # of connection points: 2
#     Edge 19, Type (0, 1), BuildingBlock: XIVTED_clean_linker_0, # of connection points: 2
#     Edge 20, Type (0, 1), BuildingBlock: XIVTED_clean_linker_0, # of connection points: 2
#     Edge 21, Type (0, 1), BuildingBlock: XIVTED_clean_linker_0, # of connection points: 2
#     Edge 22, Type (0, 1), BuildingBlock: XIVTED_clean_linker_0, # of connection points: 2
#     Edge 23, Type (0, 1), BuildingBlock: XIVTED_clean_linker_0, # of connection points: 2
#     Edge 24, Type (0, 1), BuildingBlock: XIVTED_clean_linker_0, # of connection points: 2
#     Edge 25, Type (0, 1), BuildingBlock: XIVTED_clean_linker_0, # of connection points: 2
#     Edge 26, Type (0, 1), BuildingBlock: XIVTED_clean_linker_0, # of connection points: 2
#     Edge 27, Type (0, 1), BuildingBlock: XIVTED_clean_linker_0, # of connection points: 2
#     Edge 28, Type (0, 1), BuildingBlock: XIVTED_clean_linker_0, # of connection points: 2
#     Edge 29, Type (0, 1), BuildingBlock: XIVTED_clean_linker_0, # of connection points: 2
#     Edge 30, Type (0, 1), BuildingBlock: XIVTED_clean_linker_0, # of connection points: 2
#     Edge 31, Type (0, 1), BuildingBlock: XIVTED_clean_linker_0, # of connection points: 2
#     Edge 32, Type (0, 1), BuildingBlock: XIVTED_clean_linker_0, # of connection points: 2
#     Edge 33, Type (0, 1), BuildingBlock: XIVTED_clean_linker_0, # of connection points: 2
#     Edge 34, Type (0, 1), BuildingBlock: XIVTED_clean_linker_0, # of connection points: 2
#     Edge 35, Type (0, 1), BuildingBlock: XIVTED_clean_linker_0, # of connection points: 2
#     Edge 36, Type (0, 1), BuildingBlock: XIVTED_clean_linker_0, # of connection points: 2
#     Edge 37, Type (0, 1), BuildingBlock: XIVTED_clean_linker_0, # of connection points: 2
#     Edge 38, Type (0, 1), BuildingBlock: XIVTED_clean_linker_0, # of connection points: 2
#     Edge 39, Type (0, 1), BuildingBlock: XIVTED_clean_linker_0, # of connection points: 2
#     Edge 40, Type (0, 1), BuildingBlock: XIVTED_clean_linker_0, # of connection points: 2
#     Edge 41, Type (0, 1), BuildingBlock: XIVTED_clean_linker_0, # of connection points: 2
#     Edge 42, Type (0, 1), BuildingBlock: XIVTED_clean_linker_0, # of connection points: 2
#     Edge 43, Type (0, 1), BuildingBlock: XIVTED_clean_linker_0, # of connection points: 2
#     Edge 44, Type (0, 1), BuildingBlock: XIVTED_clean_linker_0, # of connection points: 2
#     Edge 45, Type (0, 1), BuildingBlock: XIVTED_clean_linker_0, # of connection points: 2
#     Edge 46, Type (0, 1), BuildingBlock: XIVTED_clean_linker_0, # of connection points: 2
#     Edge 47, Type (0, 1), BuildingBlock: XIVTED_clean_linker_0, # of connection points: 2
#     Edge 48, Type (0, 1), BuildingBlock: XIVTED_clean_linker_0, # of connection points: 2
#     Edge 49, Type (0, 1), BuildingBlock: XIVTED_clean_linker_0, # of connection points: 2
#     Edge 50, Type (0, 1), BuildingBlock: XIVTED_clean_linker_0, # of connection points: 2
#     Edge 51, Type (0, 1), BuildingBlock: XIVTED_clean_linker_0, # of connection points: 2
#     Edge 52, Type (0, 1), BuildingBlock: XIVTED_clean_linker_0, # of connection points: 2
#     Edge 53, Type (0, 1), BuildingBlock: XIVTED_clean_linker_0, # of connection points: 2
#     Edge 54, Type (0, 1), BuildingBlock: XIVTED_clean_linker_0, # of connection points: 2
#     Edge 55, Type (0, 1), BuildingBlock: XIVTED_clean_linker_0, # of connection points: 2
#     Edge 56, Type (0, 1), BuildingBlock: XIVTED_clean_linker_0, # of connection points: 2
#     Edge 57, Type (0, 1), BuildingBlock: XIVTED_clean_linker_0, # of connection points: 2
#     Edge 58, Type (0, 1), BuildingBlock: XIVTED_clean_linker_0, # of connection points: 2
#     Edge 59, Type (0, 1), BuildingBlock: XIVTED_clean_linker_0, # of connection points: 2
#     Edge 60, Type (0, 1), BuildingBlock: XIVTED_clean_linker_0, # of connection points: 2
#     Edge 61, Type (0, 1), BuildingBlock: XIVTED_clean_linker_0, # of connection points: 2
# Relax obj value: 0.148
# Max RMSD: 0.222
# Mean RMSD: 0.130
data_MOF--net-ocu--node1-CUWYAW_clean_sbu_0--node2-TAGTUT_clean_sbu_1--edge1-XIVTED_clean_linker_0
_symmetry_space_group_name_H-M    P1
_symmetry_Int_Tables_number       1
_symmetry_cell_setting            triclinic
loop_
_symmetry_equiv_pos_as_xyz
'x, y, z'
_cell_length_a     40.930498
_cell_length_b     39.398859
_cell_length_c     40.674319
_cell_angle_alpha  83.642723
_cell_angle_beta   102.36183
_cell_angle_gamma 110.23142
loop_
_atom_site_label
_atom_site_type_symbol
_atom_site_fract_x
_atom_site_fract_y
_atom_site_fract_z
_atom_type_partial_charge
C0 C 0.34109 0.35688 0.3477 0.0
Eu1 Eu 0.31488 0.30544 0.30431 0.0
C2 C 0.32883 0.37061 0.37292 0.0
C3 C 0.35287 0.39803 0.39367 0.0
C4 C 0.34199 0.40981 0.41928 0.0
C5 C 0.3069 0.39414 0.42447 0.0
C6 C 0.28281 0.36685 0.40325 0.0
C7 C 0.29373 0.35513 0.37768 0.0
C8 C 0.34845 0.31585 0.24981 0.0
C9 C 0.24824 0.3184 0.25207 0.0
C10 C 0.25278 0.20231 0.21813 0.0
Eu11 Eu 0.27728 0.25308 0.26222 0.0
C12 C 0.26119 0.19649 0.18637 0.0
C13 C 0.2566 0.16128 0.17844 0.0
C14 C 0.26802 0.15537 0.15028 0.0
C15 C 0.28415 0.18467 0.12945 0.0
C16 C 0.28731 0.2199 0.13679 0.0
C17 C 0.27616 0.22579 0.16517 0.0
C18 C 0.2439 0.242 0.3171 0.0
C19 C 0.34607 0.24125 0.31347 0.0
O20 O 0.34265 0.32436 0.3542 0.0
O21 O 0.32728 0.36176 0.31633 0.0
O22 O 0.36367 0.31752 0.28105 0.0
O23 O 0.31524 0.30694 0.24819 0.0
O24 O 0.26541 0.3227 0.28364 0.0
O25 O 0.25335 0.29499 0.23477 0.0
O26 O 0.23952 0.22798 0.21787 0.0
O27 O 0.27694 0.20249 0.2448 0.0
O28 O 0.22847 0.23914 0.28595 0.0
O29 O 0.2771 0.25141 0.3184 0.0
O30 O 0.32546 0.23384 0.28354 0.0
O31 O 0.34411 0.26718 0.32984 0.0
H32 H 0.38017 0.40996 0.39036 0.0
H33 H 0.36115 0.43068 0.43538 0.0
H34 H 0.25545 0.35473 0.40626 0.0
H35 H 0.27494 0.33378 0.36183 0.0
H36 H 0.24533 0.13841 0.19472 0.0
H37 H 0.2657 0.12797 0.14584 0.0
H38 H 0.29918 0.24303 0.12109 0.0
H39 H 0.2801 0.25327 0.17101 0.0
C40 C 0.83697 0.28096 0.21723 0.0
Eu41 Eu 0.81032 0.28208 0.26962 0.0
C42 C 0.86673 0.2706 0.21272 0.0
C43 C 0.88748 0.25828 0.24028 0.0
C44 C 0.92028 0.25658 0.2374 0.0
C45 C 0.93298 0.26814 0.20711 0.0
C46 C 0.90891 0.27402 0.1782 0.0
C47 C 0.87633 0.27588 0.18121 0.0
C48 C 0.74988 0.22555 0.27452 0.0
C49 C 0.75476 0.32546 0.25792 0.0
C50 C 0.75506 0.28992 0.37509 0.0
Eu51 Eu 0.78381 0.288 0.32445 0.0
C52 C 0.72242 0.29802 0.37394 0.0
C53 C 0.71044 0.31818 0.34617 0.0
C54 C 0.67416 0.31181 0.33533 0.0
C55 C 0.64998 0.28496 0.3521 0.0
C56 C 0.66278 0.27221 0.38443 0.0
C57 C 0.69895 0.27789 0.39485 0.0
C58 C 0.84415 0.34454 0.31888 0.0
C59 C 0.83891 0.24355 0.33518 0.0
O60 O 0.8105 0.25461 0.22616 0.0
O61 O 0.84525 0.30999 0.2343 0.0
O62 O 0.78018 0.22238 0.27419 0.0
O63 O 0.75443 0.25838 0.27794 0.0
O64 O 0.784 0.3252 0.24925 0.0
O65 O 0.74474 0.30593 0.28461 0.0
O66 O 0.78127 0.3167 0.36619 0.0
O67 O 0.75036 0.25986 0.36098 0.0
O68 O 0.81408 0.34776 0.31996 0.0
O69 O 0.83963 0.31162 0.31608 0.0
O70 O 0.81038 0.24477 0.34478 0.0
O71 O 0.84871 0.26278 0.30835 0.0
H72 H 0.87969 0.25264 0.26459 0.0
H73 H 0.93741 0.25062 0.25986 0.0
H74 H 0.9167 0.28197 0.15394 0.0
H75 H 0.85998 0.28425 0.15944 0.0
H76 H 0.72843 0.33509 0.33031 0.0
H77 H 0.66509 0.32286 0.31089 0.0
H78 H 0.64491 0.25223 0.39869 0.0
H79 H 0.70781 0.26277 0.41677 0.0
C80 C 0.85676 0.75673 0.3637 0.0
Eu81 Eu 0.82009 0.77595 0.31018 0.0
C82 C 0.87843 0.73429 0.36213 0.0
C83 C 0.86641 0.70804 0.33753 0.0
C84 C 0.88967 0.69353 0.32861 0.0
C85 C 0.92546 0.70455 0.34439 0.0
C86 C 0.9371 0.72963 0.37017 0.0
C87 C 0.91384 0.74461 0.37872 0.0
C88 C 0.76185 0.73143 0.27216 0.0
C89 C 0.83906 0.75662 0.24118 0.0
C90 C 0.75789 0.83364 0.18914 0.0
Eu91 Eu 0.79267 0.81124 0.24274 0.0
C92 C 0.74275 0.86259 0.18766 0.0
C93 C 0.70665 0.85484 0.17396 0.0
C94 C 0.68729 0.87298 0.18475 0.0
C95 C 0.7038 0.89933 0.2092 0.0
C96 C 0.74068 0.90998 0.21991 0.0
C97 C 0.76003 0.89159 0.20935 0.0
C98 C 0.85205 0.85384 0.28079 0.0
C99 C 0.77474 0.83061 0.31282 0.0
O100 O 0.86777 0.78874 0.34893 0.0
O101 O 0.82231 0.74106 0.35564 0.0
O102 O 0.78493 0.72027 0.29311 0.0
O103 O 0.76862 0.76492 0.27516 0.0
O104 O 0.8472 0.75772 0.27463 0.0
O105 O 0.81779 0.77407 0.22348 0.0
O106 O 0.74295 0.80603 0.20811 0.0
O107 O 0.79261 0.84283 0.19503 0.0
O108 O 0.82814 0.86581 0.2623 0.0
O109 O 0.84441 0.82067 0.27639 0.0
O110 O 0.76865 0.8323 0.27927 0.0
O111 O 0.7944 0.81142 0.3302 0.0
H112 H 0.83938 0.70007 0.32374 0.0
H113 H 0.87972 0.67449 0.30861 0.0
H114 H 0.96425 0.73789 0.38372 0.0
H115 H 0.92384 0.76534 0.39723 0.0
H116 H 0.69274 0.83239 0.1575 0.0
H117 H 0.65905 0.8653 0.17496 0.0
H118 H 0.75418 0.93084 0.2381 0.0
H119 H 0.78785 0.89801 0.22046 0.0
C120 C 0.26228 0.88059 0.28715 0.0
Eu121 Eu 0.27961 0.82372 0.28472 0.0
C122 C 0.25889 0.89684 0.31644 0.0
C123 C 0.23944 0.87516 0.34013 0.0
C124 C 0.24149 0.88895 0.3708 0.0
C125 C 0.26343 0.9245 0.37866 0.0
C126 C 0.28217 0.94651 0.35457 0.0
C127 C 0.27985 0.93276 0.32364 0.0
C128 C 0.25092 0.7666 0.24509 0.0
C129 C 0.25634 0.75304 0.33145 0.0
C130 C 0.34933 0.7255 0.28494 0.0
Eu131 Eu 0.32191 0.77313 0.29353 0.0
C132 C 0.35536 0.71487 0.25425 0.0
C133 C 0.36649 0.68501 0.25484 0.0
C134 C 0.36864 0.67279 0.22474 0.0
C135 C 0.35951 0.69029 0.19383 0.0
C136 C 0.3486 0.72041 0.1935 0.0
C137 C 0.34648 0.73257 0.22355 0.0
C138 C 0.3345 0.81302 0.34764 0.0
C139 C 0.34151 0.84227 0.24076 0.0
O140 O 0.29459 0.88205 0.28704 0.0
O141 O 0.23883 0.849 0.27873 0.0
O142 O 0.23203 0.77993 0.25829 0.0
O143 O 0.28319 0.78493 0.25158 0.0
O144 O 0.26042 0.788 0.32931 0.0
O145 O 0.27232 0.73995 0.31349 0.0
O146 O 0.3157 0.71765 0.28575 0.0
O147 O 0.36868 0.75832 0.2945 0.0
O148 O 0.33639 0.78069 0.34993 0.0
O149 O 0.32994 0.8237 0.31733 0.0
O150 O 0.35191 0.81622 0.25833 0.0
O151 O 0.31235 0.84774 0.24428 0.0
H152 H 0.22345 0.84718 0.33549 0.0
H153 H 0.22588 0.87161 0.3884 0.0
H154 H 0.29929 0.97398 0.35993 0.0
H155 H 0.29556 0.94967 0.3059 0.0
H156 H 0.373 0.67093 0.27842 0.0
H157 H 0.37771 0.64987 0.22567 0.0
H158 H 0.3412 0.73418 0.17002 0.0
H159 H 0.33715 0.7553 0.22278 0.0
C160 C 0.39349 0.88625 0.79278 0.0
Eu161 Eu 0.34108 0.8255 0.78742 0.0
C162 C 0.4305 0.89575 0.78921 0.0
C163 C 0.44776 0.93025 0.77639 0.0
C164 C 0.47869 0.93676 0.7639 0.0
C165 C 0.49268 0.90871 0.76396 0.0
C166 C 0.47733 0.8753 0.78023 0.0
C167 C 0.44627 0.86877 0.79253 0.0
C168 C 0.32096 0.77982 0.73661 0.0
C169 C 0.26129 0.83241 0.76207 0.0
C170 C 0.22158 0.69871 0.78495 0.0
Eu171 Eu 0.27469 0.75875 0.79112 0.0
C172 C 0.18436 0.69107 0.78673 0.0
C173 C 0.16417 0.6563 0.79652 0.0
C174 C 0.13273 0.65099 0.80768 0.0
C175 C 0.1214 0.68055 0.80949 0.0
C176 C 0.1397 0.71454 0.79604 0.0
C177 C 0.1711 0.7198 0.78487 0.0
C178 C 0.29409 0.8051 0.84145 0.0
C179 C 0.35415 0.75131 0.81591 0.0
O180 O 0.37047 0.87649 0.76486 0.0
O181 O 0.38413 0.8652 0.81882 0.0
O182 O 0.35408 0.79697 0.74842 0.0
O183 O 0.30103 0.7893 0.75027 0.0
O184 O 0.29546 0.84917 0.77405 0.0
O185 O 0.24768 0.79676 0.76238 0.0
O186 O 0.24365 0.70845 0.81343 0.0
O187 O 0.23259 0.71896 0.75907 0.0
O188 O 0.26114 0.78729 0.82971 0.0
O189 O 0.31435 0.79558 0.82823 0.0
O190 O 0.31995 0.73479 0.80399 0.0
O191 O 0.36809 0.787 0.81557 0.0
H192 H 0.43579 0.95128 0.77349 0.0
H193 H 0.4895 0.96272 0.75131 0.0
H194 H 0.48774 0.85334 0.78111 0.0
H195 H 0.43323 0.84186 0.80233 0.0
H196 H 0.17416 0.63391 0.79822 0.0
H197 H 0.11944 0.62452 0.81816 0.0
H198 H 0.13144 0.7377 0.79693 0.0
H199 H 0.18643 0.74691 0.77743 0.0
C200 C 0.34266 0.29084 0.69475 0.0
Eu201 Eu 0.32253 0.2975 0.74986 0.0
C202 C 0.36195 0.2705 0.68239 0.0
C203 C 0.38549 0.28816 0.66054 0.0
C204 C 0.4033 0.26955 0.64758 0.0
C205 C 0.39802 0.23262 0.65606 0.0
C206 C 0.37442 0.21494 0.67812 0.0
C207 C 0.35668 0.23368 0.69122 0.0
C208 C 0.35684 0.34153 0.80093 0.0
C209 C 0.34561 0.24127 0.80932 0.0
C210 C 0.27185 0.28748 0.87332 0.0
Eu211 Eu 0.29158 0.2799 0.81827 0.0
C212 C 0.25115 0.30699 0.8847 0.0
C213 C 0.22622 0.28856 0.90506 0.0
C214 C 0.20767 0.30671 0.91758 0.0
C215 C 0.21363 0.34394 0.91021 0.0
C216 C 0.23847 0.36233 0.88954 0.0
C217 C 0.25692 0.34408 0.87686 0.0
C218 C 0.25751 0.23555 0.76751 0.0
C219 C 0.27004 0.33796 0.75951 0.0
O220 O 0.31134 0.27238 0.70172 0.0
O221 O 0.36129 0.31587 0.71646 0.0
O222 O 0.35498 0.35361 0.7697 0.0
O223 O 0.34275 0.30792 0.80289 0.0
O224 O 0.34037 0.25096 0.7768 0.0
O225 O 0.33295 0.2527 0.83177 0.0
O226 O 0.30221 0.30719 0.86503 0.0
O227 O 0.25435 0.26053 0.85329 0.0
O228 O 0.25917 0.22387 0.79888 0.0
O229 O 0.27126 0.26924 0.76509 0.0
O230 O 0.27224 0.32501 0.79113 0.0
O231 O 0.28446 0.32886 0.73704 0.0
H232 H 0.3899 0.31645 0.65319 0.0
H233 H 0.42077 0.28406 0.63035 0.0
H234 H 0.36993 0.18669 0.68558 0.0
H235 H 0.33879 0.21933 0.70815 0.0
H236 H 0.22141 0.26008 0.91171 0.0
H237 H 0.18917 0.29164 0.93373 0.0
H238 H 0.24351 0.39082 0.88291 0.0
H239 H 0.27589 0.35912 0.86114 0.0
C240 C 0.7444 0.35204 0.75876 0.0
Eu241 Eu 0.78159 0.30878 0.76788 0.0
C242 C 0.72852 0.36413 0.7823 0.0
C243 C 0.7121 0.33955 0.8063 0.0
C244 C 0.70356 0.35186 0.83296 0.0
C245 C 0.71086 0.38908 0.83598 0.0
C246 C 0.72568 0.41358 0.81094 0.0
C247 C 0.73458 0.40116 0.78434 0.0
C248 C 0.77593 0.26293 0.719 0.0
C249 C 0.74683 0.23973 0.81446 0.0
C250 C 0.8543 0.21523 0.79652 0.0
Eu251 Eu 0.82015 0.2608 0.79222 0.0
C252 C 0.85597 0.19618 0.76836 0.0
C253 C 0.87246 0.1698 0.77303 0.0
C254 C 0.87244 0.15162 0.74529 0.0
C255 C 0.85561 0.15947 0.71273 0.0
C256 C 0.83854 0.18546 0.70861 0.0
C257 C 0.8391 0.20382 0.73608 0.0
C258 C 0.82726 0.30693 0.8413 0.0
C259 C 0.85585 0.33164 0.74726 0.0
O260 O 0.77897 0.36327 0.76524 0.0
O261 O 0.73083 0.31786 0.75148 0.0
O262 O 0.77996 0.29698 0.71398 0.0
O263 O 0.77433 0.25404 0.74961 0.0
O264 O 0.75149 0.27446 0.80803 0.0
O265 O 0.7675 0.22549 0.8044 0.0
O266 O 0.82265 0.20627 0.80339 0.0
O267 O 0.86972 0.25029 0.79506 0.0
O268 O 0.82557 0.27346 0.84661 0.0
O269 O 0.82766 0.31561 0.81047 0.0
O270 O 0.85204 0.29706 0.75391 0.0
O271 O 0.83353 0.34493 0.75549 0.0
H272 H 0.70725 0.31089 0.80531 0.0
H273 H 0.69264 0.33222 0.85197 0.0
H274 H 0.73105 0.44236 0.81225 0.0
H275 H 0.74748 0.42057 0.76614 0.0
H276 H 0.88544 0.16349 0.79791 0.0
H277 H 0.88625 0.13208 0.74924 0.0
H278 H 0.82481 0.1918 0.68412 0.0
H279 H 0.82625 0.22412 0.73219 0.0
C280 C 0.81215 0.86614 0.84322 0.0
Eu281 Eu 0.80911 0.81446 0.80618 0.0
C282 C 0.80028 0.87171 0.87341 0.0
C283 C 0.82033 0.90187 0.89282 0.0
C284 C 0.80669 0.91138 0.91784 0.0
C285 C 0.77247 0.8911 0.92375 0.0
C286 C 0.75327 0.85969 0.9054 0.0
C287 C 0.76708 0.85003 0.8806 0.0
C288 C 0.85506 0.82417 0.76211 0.0
C289 C 0.75902 0.82027 0.73383 0.0
C290 C 0.77861 0.70072 0.72912 0.0
Eu291 Eu 0.78495 0.75474 0.76497 0.0
C292 C 0.79119 0.69379 0.70013 0.0
C293 C 0.78753 0.65814 0.69449 0.0
C294 C 0.80352 0.65094 0.6702 0.0
C295 C 0.82354 0.67935 0.65096 0.0
C296 C 0.82591 0.71509 0.65584 0.0
C297 C 0.81001 0.72226 0.68034 0.0
C298 C 0.74 0.74512 0.81018 0.0
C299 C 0.83891 0.75119 0.83466 0.0
O300 O 0.8374 0.85206 0.84716 0.0
O301 O 0.78714 0.85366 0.81737 0.0
O302 O 0.86437 0.83359 0.79315 0.0
O303 O 0.8216 0.81064 0.75532 0.0
O304 O 0.76738 0.82929 0.76558 0.0
O305 O 0.76795 0.79373 0.72555 0.0
O306 O 0.75607 0.71836 0.72352 0.0
O307 O 0.80303 0.71148 0.75574 0.0
O308 O 0.73002 0.73715 0.7788 0.0
O309 O 0.77348 0.75819 0.81628 0.0
O310 O 0.83034 0.7432 0.80264 0.0
O311 O 0.82843 0.7759 0.84433 0.0
H312 H 0.84602 0.91895 0.88772 0.0
H313 H 0.82265 0.93523 0.93193 0.0
H314 H 0.72676 0.84348 0.90887 0.0
H315 H 0.75106 0.82657 0.86597 0.0
H316 H 0.77344 0.63588 0.70983 0.0
H317 H 0.80154 0.62319 0.66772 0.0
H318 H 0.84067 0.73762 0.64122 0.0
H319 H 0.81329 0.75002 0.68455 0.0
C320 C 0.94314 0.0727 0.54681 0.0
C321 C 0.98465 0.09353 0.46016 0.0
C322 C 1.00593 0.9585 0.49356 0.0
Mg323 Mg 1.0206 0.09886 0.53422 0.0
O324 O 1.01179 0.04917 0.53991 0.0
Mg325 Mg 0.9692 1.01585 0.51121 0.0
Mg326 Mg 0.04943 0.02828 0.53878 0.0
O327 O 0.08735 1.00725 0.53816 0.0
Mg328 Mg 0.07843 0.95757 0.54517 0.0
Mg329 Mg 0.12822 0.04034 0.56907 0.0
C330 C 0.09427 0.09864 0.5814 0.0
C331 C 0.1124 0.08788 0.49909 0.0
O332 O 0.93593 0.04261 0.53273 0.0
O333 O 0.97392 0.09705 0.55086 0.0
O334 O 0.96978 0.05963 0.46665 0.0
O335 O 1.00996 0.1133 0.48137 0.0
O336 O 0.07345 0.11613 0.56651 0.0
O337 O 0.08699 0.06469 0.57858 0.0
C338 C 0.98828 0.96821 0.57967 0.0
O339 O 1.02184 0.98419 0.58021 0.0
O340 O 0.96549 0.97542 0.55579 0.0
O341 O 0.16336 1.01337 0.55256 0.0
O342 O 0.12759 0.95886 0.53299 0.0
O343 O 0.12385 0.99798 0.6145 0.0
C344 C 0.15818 0.98342 0.5393 0.0
O345 O 0.0851 0.94407 0.59867 0.0
O346 O 1.02764 0.94204 0.50887 0.0
C347 C 0.10829 0.96433 0.62109 0.0
O348 O 1.01074 0.99169 0.49855 0.0
O349 O 0.07849 0.07283 0.49782 0.0
O350 O 0.13425 0.07994 0.52362 0.0
C351 C 0.43638 0.11737 0.01011 0.0
C352 C 0.4933 0.11366 0.93521 0.0
C353 C 0.4789 0.97657 0.98759 0.0
Mg354 Mg 0.51547 0.12801 0.01035 0.0
O355 O 0.49918 0.07829 0.02052 0.0
Mg356 Mg 0.45666 0.04696 0.99011 0.0
Mg357 Mg 0.53189 0.05052 0.02253 0.0
O358 O 0.56465 0.02235 0.02523 0.0
Mg359 Mg 0.54893 0.97352 0.03979 0.0
Mg360 Mg 0.60742 0.05486 0.05493 0.0
C361 C 0.58083 0.1228 0.06679 0.0
C362 C 0.59663 0.09526 0.98108 0.0
O363 O 0.42727 0.08482 1.00047 0.0
O364 O 0.46876 0.13824 0.01586 0.0
O365 O 0.47094 0.08354 0.94319 0.0
O366 O 0.51673 0.13372 0.95758 0.0
O367 O 0.56276 0.14231 0.05028 0.0
O368 O 0.57313 0.08949 0.06009 0.0
C369 C 0.46651 1.0034 0.06256 0.0
O370 O 0.5003 1.01389 0.0636 0.0
O371 O 0.44578 1.01273 0.03772 0.0
O372 O 0.63625 1.01551 0.04539 0.0
O373 O 0.59443 0.96146 0.03261 0.0
O374 O 0.59316 0.02354 0.10337 0.0
C375 C 0.6268 0.98252 0.03657 0.0
O376 O 0.54866 0.97187 0.09277 0.0
O377 O 0.49729 0.95838 1.0061 0.0
C378 C 0.57036 0.9952 0.11338 0.0
O379 O 0.49015 1.0114 0.98525 0.0
O380 O 0.56319 0.08667 0.98106 0.0
O381 O 0.61754 0.08601 1.00576 0.0
C382 C 0.93852 0.60475 0.12271 0.0
C383 C 0.95126 0.60949 0.01903 0.0
C384 C 0.94601 0.46412 0.03472 0.0
Mg385 Mg 1.00243 0.61127 0.0881 0.0
O386 O 0.98702 0.56055 0.08988 0.0
Mg387 Mg 0.93589 0.53417 0.07282 0.0
Mg388 Mg 1.01132 0.53215 0.07095 0.0
O389 O 1.03708 0.50344 0.05413 0.0
Mg390 Mg 1.02443 0.45305 0.06014 0.0
Mg391 Mg 0.08841 0.53139 0.07079 0.0
C392 C 0.07864 0.59787 0.10522 0.0
C393 C 0.05216 0.5821 0.01464 0.0
O394 O 0.92153 0.57424 0.10763 0.0
O395 O 0.97109 0.62199 0.12074 0.0
O396 O 0.93239 0.5773 0.02735 0.0
O397 O 0.98059 0.62648 0.03778 0.0
O398 O 0.05973 0.61877 0.10204 0.0
O399 O 0.06534 0.56386 0.10005 0.0
C400 C 0.97164 0.48246 0.1275 0.0
O401 O 0.99903 0.49441 0.11399 0.0
O402 O 0.94401 0.4922 0.11695 0.0
O403 O 0.1031 0.49607 0.03623 0.0
O404 O 0.05545 0.44579 0.02595 0.0
O405 O 0.09847 0.48835 0.11536 0.0
C406 C 0.08687 0.46543 0.022 0.0
O407 O 0.05244 0.43706 0.10877 0.0
O408 O 0.96702 0.44508 0.04213 0.0
C409 C 0.08351 0.45503 0.12427 0.0
O410 O 0.95663 0.4984 0.04105 0.0
O411 O 1.02371 0.57102 0.0267 0.0
O412 O 0.07877 0.57139 0.02687 0.0
C413 C 0.45736 0.60148 0.03979 0.0
C414 C 0.49679 0.60664 0.95401 0.0
C415 C 0.49101 0.46638 0.9953 0.0
Mg416 Mg 0.53316 0.61234 0.02832 0.0
O417 O 0.51652 0.56242 0.03783 0.0
Mg418 Mg 0.4712 0.5338 0.00859 0.0
Mg419 Mg 0.54759 0.53409 0.03392 0.0
O420 O 0.57855 0.50586 0.02989 0.0
Mg421 Mg 0.56274 0.45587 0.03963 0.0
Mg422 Mg 0.62537 0.53529 0.05625 0.0
C423 C 0.60338 0.60121 0.07585 0.0
C424 C 0.60948 0.5871 0.9897 0.0
O425 O 0.44569 0.56985 0.02756 0.0
O426 O 0.49006 0.62158 0.0436 0.0
O427 O 0.47779 0.57479 0.96244 0.0
O428 O 0.52382 0.62505 0.9746 0.0
O429 O 0.58572 0.62198 0.06106 0.0
O430 O 0.59225 0.56695 0.07234 0.0
C431 C 0.48369 0.48184 0.07619 0.0
O432 O 0.5173 0.4921 0.07549 0.0
O433 O 0.46306 0.49444 0.05401 0.0
O434 O 0.64883 0.49986 0.0325 0.0
O435 O 0.60323 0.44816 0.01892 0.0
O436 O 0.62295 0.49408 0.10211 0.0
C437 C 0.63556 0.46841 0.01963 0.0
O438 O 0.57752 0.44279 0.09301 0.0
O439 O 0.5082 0.44531 0.01044 0.0
C440 C 0.60577 0.462 0.11177 0.0
O441 O 0.50394 0.50089 0.99607 0.0
O442 O 0.5762 0.57592 0.99148 0.0
O443 O 0.63111 0.5753 0.01122 0.0
C444 C 0.98278 0.6037 0.54215 0.0
C445 C 0.04154 0.59491 0.46582 0.0
C446 C 1.02937 0.46458 0.51118 0.0
Mg447 Mg 0.06095 0.61362 0.54026 0.0
O448 O 0.0454 0.56435 0.55327 0.0
Mg449 Mg 1.00326 0.53266 0.52212 0.0
Mg450 Mg 0.07862 0.53736 0.55358 0.0
O451 O 0.11203 0.51093 0.55323 0.0
Mg452 Mg 0.09786 0.46137 0.56478 0.0
Mg453 Mg 0.15592 0.54363 0.58105 0.0
C454 C 0.13186 0.61115 0.59025 0.0
C455 C 0.13973 0.58691 0.51014 0.0
O456 O 0.97367 0.57115 0.53228 0.0
O457 O 1.01514 0.62473 0.54728 0.0
O458 O 1.01827 0.56583 0.47411 0.0
O459 O 0.06226 0.61724 0.4877 0.0
O460 O 0.11256 0.62943 0.5737 0.0
O461 O 0.12155 0.5764 0.59039 0.0
C462 C 1.01501 0.49003 0.59475 0.0
O463 O 0.04854 0.49924 0.59471 0.0
O464 O 0.9938 0.49991 0.57073 0.0
O465 O 0.18498 0.5076 0.56723 0.0
O466 O 0.14397 0.4529 0.5552 0.0
O467 O 0.14694 0.50712 0.62861 0.0
C468 C 0.17589 0.47485 0.55818 0.0
O469 O 0.10165 0.45567 0.61859 0.0
O470 O 0.04817 0.44573 0.52769 0.0
C471 C 0.12686 0.47679 0.63892 0.0
O472 O 1.03742 0.49837 0.51636 0.0
O473 O 0.10673 0.57552 0.51216 0.0
O474 O 0.16287 0.57813 0.53258 0.0
C475 C 0.52031 0.10848 0.54154 0.0
C476 C 0.51732 0.11121 0.43827 0.0
C477 C 0.52572 0.96914 0.46708 0.0
Mg478 Mg 0.57979 0.11867 0.50012 0.0
O479 O 0.56852 0.06871 0.50888 0.0
Mg480 Mg 0.51702 0.03907 0.49617 0.0
Mg481 Mg 0.59322 0.03885 0.49222 0.0
O482 O 0.61641 1.00917 0.47324 0.0
Mg483 Mg 0.6031 0.95877 0.47744 0.0
Mg484 Mg 0.66761 0.038 0.48475 0.0
C485 C 0.65931 0.11003 0.52221 0.0
C486 C 0.62353 0.08063 0.42716 0.0
O487 O 0.50401 0.0768 0.52939 0.0
O488 O 0.55089 0.12816 0.53536 0.0
O489 O 0.50347 0.07852 0.44951 0.0
O490 O 0.54882 0.13045 0.45165 0.0
O491 O 0.63775 0.12848 0.5153 0.0
O492 O 0.64896 0.07559 0.51675 0.0
C493 C 0.55786 0.99364 0.55386 0.0
O494 O 0.58539 1.004 0.54029 0.0
O495 O 0.53043 1.00304 0.54178 0.0
O496 O 0.6806 0.99702 0.45066 0.0
O497 O 0.63343 0.94602 0.44466 0.0
O498 O 0.67668 0.99874 0.53341 0.0
C499 C 0.66455 0.96472 0.43902 0.0
O500 O 0.62876 0.94872 0.52735 0.0
O501 O 0.54539 0.94911 0.46935 0.0
C502 C 0.65881 0.96699 0.54409 0.0
O503 O 0.5383 1.00378 0.46831 0.0
O504 O 0.59975 0.07169 0.44522 0.0
O505 O 0.65242 0.07289 0.43639 0.0
H506 H 0.27067 0.22962 0.38457 0.0
H507 H 0.08152 0.10507 0.43313 0.0
H508 H 0.17195 0.20892 0.31372 0.0
H509 H 0.18177 0.13066 0.50235 0.0
H510 H 0.11258 0.14397 0.38947 0.0
H511 H 0.23767 0.19465 0.42814 0.0
C512 C 0.24208 0.21794 0.37812 0.0
C513 C 0.22436 0.22244 0.34512 0.0
C514 C 0.12769 0.14114 0.41433 0.0
C515 C 0.1858 0.18164 0.39537 0.0
C516 C 0.10982 0.11897 0.43941 0.0
C517 C 0.12869 0.11404 0.47188 0.0
C518 C 0.16485 0.15876 0.42151 0.0
C519 C 0.16564 0.13299 0.47794 0.0
C520 C 0.22309 0.1978 0.40309 0.0
C521 C 0.18702 0.20633 0.33864 0.0
N522 N 0.18219 0.15403 0.45332 0.0
N523 N 0.1692 0.18674 0.36325 0.0
H524 H 0.81866 0.1823 0.3766 0.0
H525 H 1.00995 0.16113 0.42971 0.0
H526 H 0.908 0.25269 0.33458 0.0
H527 H 0.91392 0.07034 0.43187 0.0
H528 H 0.97428 0.19716 0.39808 0.0
H529 H 0.85424 0.14358 0.40236 0.0
C530 C 0.84579 0.18982 0.37307 0.0
C531 C 0.8603 0.22088 0.35344 0.0
C532 C 0.96109 0.16915 0.40501 0.0
C533 C 0.9012 0.17672 0.38281 0.0
C534 C 0.9815 0.14843 0.4228 0.0
C535 C 0.96513 0.1124 0.43336 0.0
C536 C 0.92386 0.15419 0.3984 0.0
C537 C 0.92794 0.09776 0.42402 0.0
C538 C 0.86599 0.16754 0.38748 0.0
C539 C 0.8956 0.22902 0.34945 0.0
N540 N 0.90861 0.11881 0.4077 0.0
N541 N 0.91482 0.20733 0.36413 0.0
H542 H 0.8448 0.90676 0.31317 0.0
H543 H 0.9916 0.89097 0.47149 0.0
H544 H 0.91173 0.84215 0.31618 0.0
H545 H 0.95643 0.98414 0.45221 0.0
H546 H 0.95334 0.86599 0.4192 0.0
H547 H 0.87918 0.931 0.36752 0.0
C548 C 0.86705 0.89805 0.32516 0.0
C549 C 0.87535 0.87208 0.31074 0.0
C550 C 0.95389 0.8918 0.42658 0.0
C551 C 0.91397 0.89897 0.37269 0.0
C552 C 0.97545 0.90597 0.45659 0.0
C553 C 0.97767 0.94003 0.46601 0.0
C554 C 0.9342 0.91165 0.40604 0.0
C555 C 0.95582 0.95798 0.44578 0.0
C556 C 0.8864 0.91165 0.35619 0.0
C557 C 0.90428 0.86166 0.32703 0.0
N558 N 0.93512 0.94366 0.41649 0.0
N559 N 0.92242 0.87486 0.35747 0.0
H560 H 0.26598 0.88922 0.44059 0.0
H561 H 0.21459 0.03557 0.51859 0.0
H562 H 0.265 0.99195 0.3915 0.0
H563 H 0.16894 0.91991 0.53405 0.0
H564 H 0.25637 0.02578 0.48869 0.0
H565 H 0.25425 0.90771 0.49108 0.0
C566 C 0.26389 0.91589 0.44061 0.0
C567 C 0.2651 0.93858 0.41141 0.0
C568 C 0.23781 1.0027 0.49949 0.0
C569 C 0.25272 0.96001 0.46914 0.0
C570 C 0.21404 1.00819 0.51652 0.0
C571 C 0.18785 0.97838 0.52798 0.0
C572 C 0.2355 0.96725 0.49447 0.0
C573 C 0.18827 0.94352 0.52483 0.0
C574 C 0.25754 0.92646 0.46948 0.0
C575 C 0.26374 0.97339 0.41327 0.0
N576 N 0.21149 0.93885 0.50796 0.0
N577 N 0.25692 0.98283 0.44151 0.0
H578 H 0.27719 0.90679 0.75407 0.0
H579 H 0.08589 0.89293 0.64374 0.0
H580 H 0.19009 0.8066 0.73576 0.0
H581 H 0.1697 0.99457 0.66668 0.0
H582 H 0.12158 0.86176 0.68267 0.0
H583 H 0.23714 0.94002 0.72644 0.0
C584 C 0.24969 0.89173 0.74447 0.0
C585 C 0.23727 0.85369 0.74711 0.0
C586 C 0.13199 0.89096 0.67963 0.0
C587 C 0.19107 0.89171 0.71537 0.0
C588 C 0.11139 0.9089 0.65754 0.0
C589 C 0.12469 0.94658 0.65146 0.0
C590 C 0.16646 0.91063 0.69575 0.0
C591 C 0.15814 0.96554 0.67028 0.0
C592 C 0.22676 0.91077 0.72871 0.0
C593 C 0.20117 0.83583 0.73422 0.0
N594 N 0.17801 0.94737 0.69104 0.0
N595 N 0.17958 0.85489 0.71882 0.0
H596 H 0.2365 0.16176 0.76438 0.0
H597 H 0.13135 0.17075 0.57883 0.0
H598 H 0.24221 0.26009 0.70383 0.0
H599 H 0.13303 0.0703 0.63257 0.0
H600 H 0.18125 0.20347 0.62074 0.0
H601 H 0.20637 0.12679 0.71371 0.0
C602 C 0.23166 0.17585 0.74038 0.0
C603 C 0.24135 0.21358 0.73805 0.0
C604 C 0.17108 0.17421 0.62318 0.0
C605 C 0.20762 0.17447 0.68062 0.0
C606 C 0.14252 0.15563 0.59932 0.0
C607 C 0.12762 0.11805 0.60293 0.0
C608 C 0.18404 0.15501 0.65115 0.0
C609 C 0.14353 0.09947 0.62931 0.0
C610 C 0.21485 0.15607 0.71152 0.0
C611 C 0.23505 0.23091 0.70659 0.0
N612 N 0.17051 0.11827 0.65298 0.0
N613 N 0.21831 0.21118 0.67913 0.0
H614 H 0.86427 0.1914 0.65059 0.0
H615 H 0.89737 0.02567 0.58436 0.0
H616 H 0.85165 0.08913 0.70626 0.0
H617 H 0.92914 0.13527 0.54322 0.0
H618 H 0.86474 0.04284 0.62023 0.0
H619 H 0.87205 0.16527 0.60281 0.0
C620 C 0.86253 0.16321 0.65266 0.0
C621 C 0.85763 0.14255 0.68274 0.0
C622 C 0.87817 0.06284 0.60274 0.0
C623 C 0.86755 0.11269 0.62804 0.0
C624 C 0.89645 0.05299 0.58213 0.0
C625 C 0.91617 0.07932 0.56131 0.0
C626 C 0.87961 0.09908 0.60204 0.0
C627 C 0.91455 0.11439 0.55936 0.0
C628 C 0.8672 0.14836 0.62532 0.0
C629 C 0.85619 0.1063 0.68386 0.0
N630 N 0.89693 0.12336 0.57978 0.0
N631 N 0.86157 0.0926 0.657 0.0
H632 H 0.92536 0.86827 0.77153 0.0
H633 H 0.92499 0.91339 0.57337 0.0
H634 H 0.83674 0.82115 0.69275 0.0
H635 H 1.01613 0.96313 0.64892 0.0
H636 H 0.89492 0.87673 0.61723 0.0
H637 H 0.96051 0.90024 0.72844 0.0
C638 C 0.91328 0.86434 0.7452 0.0
C639 C 0.87776 0.84179 0.73601 0.0
C640 C 0.92159 0.89534 0.62447 0.0
C641 C 0.91827 0.87878 0.68608 0.0
C642 C 0.93903 0.91639 0.59925 0.0
C643 C 0.97344 0.94177 0.60707 0.0
C644 C 0.93813 0.89935 0.65851 0.0
C645 C 0.98985 0.94392 0.64137 0.0
C646 C 0.93347 0.88275 0.72053 0.0
C647 C 0.86386 0.83807 0.70131 0.0
N648 N 0.97199 0.92335 0.66572 0.0
N649 N 0.88394 0.85632 0.67788 0.0
H650 H 0.25983 0.12809 0.08644 0.0
H651 H 0.44375 0.18651 0.02301 0.0
H652 H 0.34675 0.22728 0.11116 0.0
H653 H 0.36698 0.07873 0.01421 0.0
H654 H 0.40198 0.20638 0.0436 0.0
H655 H 0.29269 0.1143 0.04902 0.0
C656 C 0.28562 0.14716 0.08379 0.0
C657 C 0.30071 0.17866 0.10245 0.0
C658 C 0.39409 0.17846 0.03684 0.0
C659 C 0.33817 0.1632 0.05937 0.0
C660 C 0.41795 0.16705 0.02506 0.0
C661 C 0.40916 0.13067 0.0175 0.0
C662 C 0.3612 0.15335 0.0413 0.0
C663 C 0.37506 0.10693 0.0201 0.0
C664 C 0.30426 0.13932 0.0623 0.0
C665 C 0.33384 0.20277 0.09727 0.0
N666 N 0.35247 0.11857 0.03226 0.0
N667 N 0.35156 0.19433 0.07652 0.0
H668 H 0.98433 0.30656 0.25872 0.0
H669 H 0.92707 0.41455 0.11775 0.0
H670 H 0.97503 0.27564 0.15843 0.0
H671 H 1.01815 0.47942 0.1854 0.0
H672 H 0.94234 0.36062 0.14036 0.0
H673 H 1.0064 0.36973 0.24066 0.0
C674 C 0.98848 0.31269 0.23301 0.0
C675 C 0.97178 0.28664 0.20821 0.0
C676 C 0.95879 0.38672 0.15041 0.0
C677 C 0.99851 0.35783 0.18821 0.0
C678 C 0.9493 0.41713 0.13848 0.0
C679 C 0.97088 0.45111 0.15042 0.0
C680 C 0.98969 0.39036 0.17479 0.0
C681 C 1.00043 0.45334 0.17629 0.0
C682 C 1.00086 0.34914 0.22274 0.0
C683 C 0.98314 0.29587 0.17721 0.0
N684 N 1.00898 0.42319 0.1879 0.0
N685 N 0.99268 0.33128 0.1667 0.0
H686 H 0.64089 0.86461 0.23017 0.0
H687 H 0.6098 0.04012 0.16483 0.0
H688 H 0.71783 0.9707 0.22085 0.0
H689 H 0.53825 0.93132 0.14624 0.0
H690 H 0.63655 1.01875 0.21877 0.0
H691 H 0.59742 0.89268 0.23459 0.0
C692 C 0.64886 0.89387 0.22987 0.0
C693 C 0.68213 0.91549 0.22289 0.0
C694 C 0.614 0.99978 0.20356 0.0
C695 C 0.63278 0.9475 0.22788 0.0
C696 C 0.59883 1.01191 0.17257 0.0
C697 C 0.57382 0.98677 0.14995 0.0
C698 C 0.60465 0.96238 0.21103 0.0
C699 C 0.55917 0.95117 0.16208 0.0
C700 C 0.62421 0.90985 0.23289 0.0
C701 C 0.69189 0.95306 0.22469 0.0
N702 N 0.57571 0.93964 0.19146 0.0
N703 N 0.6669 0.96798 0.22597 0.0
H704 H 0.19884 0.705 0.2572 0.0
H705 H 0.12411 0.66152 0.08542 0.0
H706 H 0.27141 0.7548 0.18929 0.0
H707 H 0.11842 0.56997 0.15534 0.0
H708 H 0.18096 0.69543 0.1194 0.0
H709 H 0.17018 0.65359 0.22042 0.0
C710 C 0.20888 0.70474 0.23467 0.0
C711 C 0.23672 0.73409 0.22554 0.0
C712 C 0.16799 0.66741 0.12652 0.0
C713 C 0.20422 0.67626 0.18359 0.0
C714 C 0.13557 0.64824 0.10732 0.0
C715 C 0.11661 0.61343 0.11823 0.0
C716 C 0.18029 0.65201 0.15735 0.0
C717 C 0.13233 0.59704 0.14652 0.0
C718 C 0.193 0.67532 0.21405 0.0
C719 C 0.24951 0.73258 0.19662 0.0
N720 N 0.16278 0.61706 0.16603 0.0
N721 N 0.23228 0.70455 0.17583 0.0
H722 H 0.30444 0.87724 0.83216 0.0
H723 H 0.43607 0.91233 0.00907 0.0
H724 H 0.3158 0.79461 0.90801 0.0
H725 H 0.43925 0.99397 0.92869 0.0
H726 H 0.38066 0.8733 0.97782 0.0
H727 H 0.34211 0.92374 0.87221 0.0
C728 C 0.31397 0.86899 0.85763 0.0
C729 C 0.30715 0.83229 0.8671 0.0
C730 C 0.39317 0.89986 0.96706 0.0
C731 C 0.35044 0.88486 0.91258 0.0
C732 C 0.4249 0.92214 0.98484 0.0
C733 C 0.44272 0.95598 0.97093 0.0
C734 C 0.37931 0.91119 0.93483 0.0
C735 C 0.42654 0.96779 0.93999 0.0
C736 C 0.33559 0.89547 0.88038 0.0
C737 C 0.32036 0.82276 0.90006 0.0
N738 N 0.39598 0.94505 0.92256 0.0
N739 N 0.3417 0.84891 0.92157 0.0
H740 H 0.14385 0.31957 0.91769 0.0
H741 H 0.15589 0.49431 0.01096 0.0
H742 H 0.23882 0.41274 0.93502 0.0
H743 H 0.06071 0.4022 0.98806 0.0
H744 H 0.18654 0.46638 0.98211 0.0
H745 H 0.11313 0.35043 0.9426 0.0
C746 C 0.15837 0.34649 0.92682 0.0
C747 C 0.19419 0.36333 0.9243 0.0
C748 C 0.15888 0.45242 0.98325 0.0
C749 C 0.15876 0.39929 0.95289 0.0
C750 C 0.14129 0.46842 0.99968 0.0
C751 C 0.10553 0.4507 1.00216 0.0
C752 C 0.14072 0.41831 0.9692 0.0
C753 C 0.08822 0.41705 0.98702 0.0
C754 C 0.14067 0.36425 0.94092 0.0
C755 C 0.21118 0.39865 0.93609 0.0
N756 N 0.10594 0.40202 0.97144 0.0
N757 N 0.19343 0.41531 0.94999 0.0
H758 H 0.73377 0.16847 0.8348 0.0
H759 H 0.58294 0.15194 0.93969 0.0
H760 H 0.6994 0.2589 0.84178 0.0
H761 H 0.6475 0.08309 0.95615 0.0
H762 H 0.61636 0.18681 0.89596 0.0
H763 H 0.69326 0.13225 0.87132 0.0
C764 C 0.71754 0.18076 0.84375 0.0
C765 C 0.72028 0.21703 0.83509 0.0
C766 C 0.62289 0.16385 0.90904 0.0
C767 C 0.67332 0.17523 0.87726 0.0
C768 C 0.60364 0.1438 0.93376 0.0
C769 C 0.61252 0.11463 0.95171 0.0
C770 C 0.65062 0.15411 0.90189 0.0
C771 C 0.63989 0.10552 0.94319 0.0
C772 C 0.69437 0.15998 0.86474 0.0
C773 C 0.69827 0.23114 0.84763 0.0
N774 N 0.65779 0.12504 0.91904 0.0
N775 N 0.67579 0.21028 0.8681 0.0
H776 H 0.84196 0.68339 0.82947 0.0
H777 H 0.97313 0.68263 1.0054 0.0
H778 H 0.87762 0.77061 0.89787 0.0
H779 H 0.89693 0.58312 0.96456 0.0
H780 H 0.94704 0.71667 0.95992 0.0
H781 H 0.86999 0.64796 0.87266 0.0
C782 C 0.85597 0.69527 0.85342 0.0
C783 C 0.85745 0.73017 0.85996 0.0
C784 C 0.93613 0.68738 0.96078 0.0
C785 C 0.88994 0.68976 0.90938 0.0
C786 C 0.95118 0.66776 0.98666 0.0
C787 C 0.93727 0.6297 0.98909 0.0
C788 C 0.90722 0.66909 0.93643 0.0
C789 C 0.90854 0.61233 0.9639 0.0
C790 C 0.87174 0.67489 0.87811 0.0
C791 C 0.87572 0.74389 0.89165 0.0
N792 N 0.89458 0.63211 0.93858 0.0
N793 N 0.89142 0.72384 0.91499 0.0
H794 H 0.24622 0.38414 0.26921 0.0
H795 H 0.06898 0.38113 0.13529 0.0
H796 H 0.1925 0.30029 0.19783 0.0
H797 H 0.14885 0.48209 0.16778 0.0
H798 H 0.10796 0.34864 0.16706 0.0
H799 H 0.20602 0.41759 0.2411 0.0
C800 C 0.2259 0.37253 0.24783 0.0
C801 C 0.22315 0.33909 0.23605 0.0
C802 C 0.1169 0.37789 0.16755 0.0
C803 C 0.17607 0.37734 0.20386 0.0
C804 C 0.09439 0.39666 0.14955 0.0
C805 C 0.10516 0.43485 0.14852 0.0
C806 C 0.15065 0.39695 0.18566 0.0
C807 C 0.13895 0.45283 0.16761 0.0
C808 C 0.20296 0.39181 0.23166 0.0
C809 C 0.19607 0.32587 0.20796 0.0
N810 N 0.16021 0.43389 0.1853 0.0
N811 N 0.17367 0.34467 0.19322 0.0
H812 H 0.13063 0.72706 0.85791 0.0
H813 H 0.9987 0.58002 0.96099 0.0
H814 H 0.05823 0.6267 0.81528 0.0
H815 H 0.10862 0.63829 0.99961 0.0
H816 H 1.0045 0.61386 0.90673 0.0
H817 H 0.10378 0.71185 0.90787 0.0
C818 C 0.10802 0.70257 0.85831 0.0
C819 C 0.09711 0.67766 0.83268 0.0
C820 C 1.02695 0.61975 0.92747 0.0
C821 C 0.06677 0.66019 0.88994 0.0
C822 C 1.02376 0.60058 0.95826 0.0
C823 C 0.05351 0.60608 0.98433 0.0
C824 C 0.05977 0.64516 0.92341 0.0
C825 C 0.08533 0.63292 0.97979 0.0
C826 C 0.09296 0.69385 0.88701 0.0
C827 C 0.06787 0.64622 0.83485 0.0
N828 N 0.08769 0.65141 0.94976 0.0
N829 N 0.05411 0.63793 0.86345 0.0
H830 H 0.39381 0.25138 0.86742 0.0
H831 H 0.4425 0.08272 0.88082 0.0
H832 H 0.35648 0.18879 0.7781 0.0
H833 H 0.52262 0.18389 0.91322 0.0
H834 H 0.4104 0.11649 0.8406 0.0
H835 H 0.43893 0.22245 0.8864 0.0
C836 C 0.39494 0.23124 0.85198 0.0
C837 C 0.37118 0.22198 0.82146 0.0
C838 C 0.43567 0.13111 0.8557 0.0
C839 C 0.42281 0.18907 0.84284 0.0
C840 C 0.45417 0.1119 0.8786 0.0
C841 C 0.48447 0.13057 0.90162 0.0
C842 C 0.4475 0.16896 0.85636 0.0
C843 C 0.49869 0.16832 0.89691 0.0
C844 C 0.42103 0.21524 0.8625 0.0
C845 C 0.37425 0.19631 0.80199 0.0
N846 N 0.4793 0.18642 0.87577 0.0
N847 N 0.39926 0.18006 0.81335 0.0
H848 H 0.82576 0.28977 0.90774 0.0
H849 H 0.92574 0.49174 0.97163 0.0
H850 H 0.85119 0.38236 0.83902 0.0
H851 H 0.89721 0.39668 0.03684 0.0
H852 H 0.89098 0.45492 0.92289 0.0
H853 H 0.84522 0.33023 0.9546 0.0
C854 C 0.83535 0.31872 0.90244 0.0
C855 C 0.83714 0.33251 0.86927 0.0
C856 C 0.89144 0.4423 0.94794 0.0
C857 C 0.85987 0.37966 0.92347 0.0
C858 C 0.91073 0.46354 0.97594 0.0
C859 C 0.9141 0.44749 0.00864 0.0
C860 C 0.87541 0.40463 0.95258 0.0
C861 C 0.89504 0.41041 0.01229 0.0
C862 C 0.84644 0.34194 0.92934 0.0
C863 C 0.84952 0.37043 0.86415 0.0
N864 N 0.87709 0.39033 0.98478 0.0
N865 N 0.86073 0.39261 0.89092 0.0
H866 H 0.72654 0.85071 0.96542 0.0
H867 H 0.69262 0.02207 0.02267 0.0
H868 H 0.77968 0.96125 0.93477 0.0
H869 H 0.62131 0.91231 0.02917 0.0
H870 H 0.73209 0.99973 1.00035 0.0
H871 H 0.69473 0.87262 0.99809 0.0
C872 C 0.7317 0.87957 0.96558 0.0
C873 C 0.75575 0.90404 0.94689 0.0
C874 C 0.70796 0.98053 0.00699 0.0
C875 C 0.71966 0.92935 0.98486 0.0
C876 C 0.6855 0.99323 0.01994 0.0
C877 C 0.65338 0.96909 0.02757 0.0
C878 C 0.69845 0.94338 1.00188 0.0
C879 C 0.64558 0.932 0.02334 0.0
C880 C 0.71361 0.89206 0.98442 0.0
C881 C 0.76179 0.94123 0.94892 0.0
N882 N 0.66782 0.92033 0.01065 0.0
N883 N 0.74377 0.95268 0.96734 0.0
H884 H 0.89851 0.73559 0.26348 0.0
H885 H 0.86775 0.60345 0.11216 0.0
H886 H 0.81282 0.72458 0.17846 0.0
H887 H 0.96899 0.64947 0.17658 0.0
H888 H 0.84324 0.6397 0.13982 0.0
H889 H 0.92053 0.6974 0.2362 0.0
C890 C 0.88418 0.72526 0.23905 0.0
C891 C 0.85366 0.73408 0.22348 0.0
C892 C 0.87077 0.64165 0.1481 0.0
C893 C 0.87893 0.68881 0.19166 0.0
C894 C 0.88478 0.62054 0.13244 0.0
C895 C 0.92075 0.62276 0.14186 0.0
C896 C 0.89243 0.665 0.17413 0.0
C897 C 0.94121 0.64634 0.16816 0.0
C898 C 0.89693 0.7033 0.22333 0.0
C899 C 0.83664 0.71929 0.19158 0.0
N900 N 0.9269 0.66599 0.18321 0.0
N901 N 0.84923 0.69746 0.17704 0.0
H902 H 0.40888 0.84967 0.23158 0.0
H903 H 0.39647 0.97882 0.06672 0.0
H904 H 0.32061 0.88771 0.1917 0.0
H905 H 0.49742 0.97342 0.12113 0.0
H906 H 0.36784 0.93974 0.10988 0.0
H907 H 0.44119 0.88905 0.18927 0.0
C908 C 0.39624 0.86616 0.21398 0.0
C909 C 0.36188 0.86529 0.21533 0.0
C910 C 0.3963 0.947 0.11254 0.0
C911 C 0.39861 0.91011 0.16681 0.0
C912 C 0.41286 0.96944 0.08773 0.0
C913 C 0.44975 0.97958 0.08993 0.0
C914 C 0.4164 0.93395 0.14009 0.0
C915 C 0.46906 0.96618 0.11807 0.0
C916 C 0.41478 0.88872 0.18995 0.0
C917 C 0.34698 0.88739 0.19188 0.0
N918 N 0.45219 0.94393 0.142 0.0
N919 N 0.36529 0.90859 0.16866 0.0
H920 H 0.73857 0.15907 0.25143 0.0
H921 H 0.5943 0.18715 0.09509 0.0
H922 H 0.69035 0.24189 0.24418 0.0
H923 H 0.62661 0.09237 0.10921 0.0
H924 H 0.6304 0.20753 0.14953 0.0
H925 H 0.69616 0.13199 0.20134 0.0
C926 C 0.71846 0.171 0.23983 0.0
C927 C 0.71836 0.20311 0.2517 0.0
C928 C 0.6296 0.18222 0.1408 0.0
C929 C 0.67046 0.17288 0.19388 0.0
C930 C 0.60927 0.17069 0.10941 0.0
C931 C 0.60714 0.13774 0.0974 0.0
C932 C 0.64834 0.1609 0.16049 0.0
C933 C 0.62714 0.11772 0.11742 0.0
C934 C 0.69449 0.15573 0.21103 0.0
C935 C 0.69165 0.21734 0.23575 0.0
N936 N 0.64689 0.12959 0.14798 0.0
N937 N 0.66921 0.20251 0.20731 0.0
H938 H 0.66879 0.70368 0.80122 0.0
H939 H 0.6773 0.63344 0.99533 0.0
H940 H 0.76083 0.74112 0.87943 0.0
H941 H 0.57905 0.60366 0.92335 0.0
H942 H 0.70677 0.67334 0.95273 0.0
H943 H 0.63485 0.66809 0.84402 0.0
C944 C 0.68189 0.70474 0.82739 0.0
C945 C 0.71802 0.72565 0.83645 0.0
C946 C 0.67874 0.65838 0.94601 0.0
C947 C 0.67894 0.68427 0.88602 0.0
C948 C 0.66165 0.63534 0.97052 0.0
C949 C 0.62532 0.6146 0.96331 0.0
C950 C 0.65991 0.66107 0.91318 0.0
C951 C 0.60694 0.61897 0.93042 0.0
C952 C 0.66238 0.68426 0.85189 0.0
C953 C 0.73322 0.7256 0.87095 0.0
N954 N 0.62444 0.64132 0.90661 0.0
N955 N 0.71383 0.70524 0.89415 0.0
H956 H 0.42538 0.77572 0.84303 0.0
H957 H 0.4354 0.57903 0.90759 0.0
H958 H 0.33696 0.67685 0.82312 0.0
H959 H 0.5211 0.67868 0.93334 0.0
H960 H 0.40225 0.61355 0.8698 0.0
H961 H 0.4629 0.74012 0.87014 0.0
C962 C 0.41377 0.7465 0.84415 0.0
C963 C 0.37765 0.72943 0.83084 0.0
C964 C 0.42853 0.62784 0.88331 0.0
C965 C 0.42099 0.68817 0.86212 0.0
C966 C 0.44776 0.60806 0.90475 0.0
C967 C 0.48123 0.6258 0.92416 0.0
C968 C 0.44267 0.66582 0.88103 0.0
C969 C 0.49548 0.66361 0.91915 0.0
C970 C 0.43536 0.72612 0.85969 0.0
C971 C 0.36449 0.69135 0.83308 0.0
N972 N 0.47601 0.68228 0.89851 0.0
N973 N 0.38603 0.67211 0.84853 0.0
H974 H 0.36287 0.41262 0.80627 0.0
H975 H 0.44467 0.3977 0.99955 0.0
H976 H 0.37644 0.3178 0.86343 0.0
H977 H 0.45796 0.49961 0.94326 0.0
H978 H 0.39678 0.3681 0.95435 0.0
H979 H 0.37987 0.44465 0.85937 0.0
C980 C 0.36949 0.39875 0.82994 0.0
C981 C 0.36875 0.3629 0.83082 0.0
C982 C 0.40972 0.39711 0.95219 0.0
C983 C 0.3865 0.39816 0.89072 0.0
C984 C 0.43701 0.4139 0.97795 0.0
C985 C 0.45623 0.45062 0.97417 0.0
C986 C 0.40286 0.41709 0.92224 0.0
C987 C 0.44446 0.47084 0.94645 0.0
C988 C 0.37848 0.41663 0.86008 0.0
C989 C 0.37686 0.34557 0.86182 0.0
N990 N 0.41918 0.45353 0.92079 0.0
N991 N 0.38539 0.36337 0.8905 0.0
H992 H 0.7514 0.44971 0.87179 0.0
H993 H 0.62679 0.39903 0.00821 0.0
H994 H 0.65527 0.35761 0.86871 0.0
H995 H 0.69148 0.50933 0.98956 0.0
H996 H 0.65086 0.37918 0.96701 0.0
H997 H 0.7404 0.46865 0.92268 0.0
C998 C 0.72792 0.4336 0.88162 0.0
C999 C 0.70418 0.40199 0.86591 0.0
C1000 C 0.66015 0.40768 0.97225 0.0
C1001 C 0.69239 0.4228 0.92447 0.0
C1002 C 0.64657 0.41901 0.99584 0.0
C1003 C 0.65659 0.45595 1.00164 0.0
C1004 C 0.68376 0.43347 0.95421 0.0
C1005 C 0.68285 0.48062 0.98549 0.0
C1006 C 0.72196 0.44423 0.9108 0.0
C1007 C 0.67464 0.38178 0.88019 0.0
N1008 N 0.69517 0.46898 0.96191 0.0
N1009 N 0.66967 0.3925 0.90867 0.0
H1010 H 0.77427 0.3849 0.21482 0.0
H1011 H 0.5807 0.39378 0.14219 0.0
H1012 H 0.68412 0.31351 0.25503 0.0
H1013 H 0.67465 0.48813 0.14531 0.0
H1014 H 0.61649 0.3609 0.17954 0.0
H1015 H 0.73694 0.41953 0.18344 0.0
C1016 C 0.74663 0.37639 0.21693 0.0
C1017 C 0.73242 0.34627 0.23769 0.0
C1018 C 0.62906 0.38898 0.17235 0.0
C1019 C 0.68933 0.38564 0.20153 0.0
C1020 C 0.60857 0.40789 0.1512 0.0
C1021 C 0.62442 0.44399 0.14038 0.0
C1022 C 0.66588 0.40588 0.18217 0.0
C1023 C 0.66095 0.46049 0.15283 0.0
C1024 C 0.72537 0.39631 0.1992 0.0
C1025 C 0.69632 0.33666 0.23951 0.0
N1026 N 0.68039 0.44123 0.17243 0.0
N1027 N 0.676 0.35601 0.2215 0.0
H1028 H 0.75631 0.75517 0.20679 0.0
H1029 H 0.63085 0.56711 0.13129 0.0
H1030 H 0.72356 0.65933 0.26951 0.0
H1031 H 0.64762 0.67082 0.07769 0.0
H1032 H 0.67484 0.59696 0.17945 0.0
H1033 H 0.72557 0.72166 0.15746 0.0
C1034 C 0.74139 0.72744 0.21036 0.0
C1035 C 0.74084 0.71088 0.2424 0.0
C1036 C 0.66925 0.61296 0.15689 0.0
C1037 C 0.70642 0.67074 0.18543 0.0
C1038 C 0.64449 0.59602 0.12934 0.0
C1039 C 0.63528 0.61684 0.10088 0.0
C1040 C 0.68489 0.6507 0.15548 0.0
C1041 C 0.65357 0.654 0.09947 0.0
C1042 C 0.72446 0.70778 0.18193 0.0
C1043 C 0.72364 0.6734 0.24509 0.0
N1044 N 0.67728 0.66982 0.12662 0.0
N1045 N 0.70657 0.65444 0.21682 0.0
H1046 H 0.38824 0.73189 0.14224 0.0
H1047 H 0.39425 0.56177 0.05853 0.0
H1048 H 0.33825 0.62086 0.17355 0.0
H1049 H 0.46435 0.67146 0.04768 0.0
H1050 H 0.35924 0.58419 0.087 0.0
H1051 H 0.40121 0.71074 0.09395 0.0
C1052 C 0.37938 0.70306 0.13856 0.0
C1053 C 0.36285 0.67799 0.1622 0.0
C1054 C 0.38193 0.60334 0.07781 0.0
C1055 C 0.37795 0.65372 0.10745 0.0
C1056 C 0.40186 0.59061 0.06156 0.0
C1057 C 0.4327 0.61477 0.05162 0.0
C1058 C 0.39296 0.64039 0.08384 0.0
C1059 C 0.44125 0.65186 0.05581 0.0
C1060 C 0.3869 0.69102 0.1111 0.0
C1061 C 0.35193 0.64097 0.1563 0.0
N1062 N 0.42171 0.66352 0.07201 0.0
N1063 N 0.36014 0.62988 0.12969 0.0
H1064 H 0.32229 0.33442 0.18401 0.0
H1065 H 0.51377 0.45376 0.13757 0.0
H1066 H 0.42068 0.34546 0.25334 0.0
H1067 H 0.41283 0.44685 0.07417 0.0
H1068 H 0.48171 0.41154 0.17896 0.0
H1069 H 0.35604 0.3724 0.14222 0.0
C1070 C 0.35097 0.34454 0.19044 0.0
C1071 C 0.36841 0.33656 0.22253 0.0
C1072 C 0.46667 0.41928 0.15588 0.0
C1073 C 0.40779 0.38077 0.17437 0.0
C1074 C 0.48507 0.44341 0.13213 0.0
C1075 C 0.46634 0.45454 0.10207 0.0
C1076 C 0.42916 0.40576 0.1496 0.0
C1077 C 0.4289 0.43977 0.09685 0.0
C1078 C 0.37038 0.36645 0.16652 0.0
C1079 C 0.40586 0.35079 0.22908 0.0
N1080 N 0.41188 0.41656 0.12006 0.0
N1081 N 0.42413 0.37209 0.20548 0.0
H1082 H 0.88999 0.71999 0.63946 0.0
H1083 H 0.91219 0.56602 0.54295 0.0
H1084 H 0.80442 0.62102 0.61062 0.0
H1085 H 0.99169 0.67128 0.56127 0.0
H1086 H 0.8707 0.58672 0.56387 0.0
H1087 H 0.92575 0.70407 0.60704 0.0
C1088 C 0.87839 0.69519 0.62587 0.0
C1089 C 0.84406 0.67175 0.62811 0.0
C1090 C 0.89712 0.60536 0.56295 0.0
C1091 C 0.88554 0.65282 0.59139 0.0
C1092 C 0.92083 0.59358 0.55094 0.0
C1093 C 0.9557 0.61676 0.55064 0.0
C1094 C 0.90839 0.64052 0.57489 0.0
C1095 C 0.96527 0.65223 0.56131 0.0
C1096 C 0.89903 0.68595 0.60751 0.0
C1097 C 0.83096 0.63964 0.61028 0.0
N1098 N 0.94192 0.66284 0.57324 0.0
N1099 N 0.85181 0.63096 0.59298 0.0
H1100 H 0.4907 0.85756 0.72264 0.0
H1101 H 0.50497 0.93402 0.56874 0.0
H1102 H 0.55006 0.96746 0.75146 0.0
H1103 H 0.60996 1.00359 0.60997 0.0
H1104 H 0.50026 0.90363 0.62396 0.0
H1105 H 0.51722 0.86919 0.67267 0.0
C1106 C 0.51022 0.88381 0.71919 0.0
C1107 C 0.51731 0.91198 0.74085 0.0
C1108 C 0.52487 0.92467 0.62082 0.0
C1109 C 0.54653 0.92565 0.68288 0.0
C1110 C 0.52734 0.94223 0.5894 0.0
C1111 C 0.55775 0.9713 0.58515 0.0
C1112 C 0.55265 0.93702 0.64834 0.0
C1113 C 0.5861 0.98114 0.61251 0.0
C1114 C 0.52495 0.89051 0.69032 0.0
C1115 C 0.54292 0.94536 0.73481 0.0
N1116 N 0.58246 0.9647 0.64338 0.0
N1117 N 0.55604 0.95158 0.7059 0.0
H1118 H 0.28236 0.39708 0.71621 0.0
H1119 H 0.09843 0.4094 0.66853 0.0
H1120 H 0.20876 0.33246 0.77891 0.0
H1121 H 0.18768 0.50851 0.68365 0.0
H1122 H 0.13392 0.37751 0.70715 0.0
H1123 H 0.24495 0.43544 0.6984 0.0
C1124 C 0.25836 0.39107 0.72618 0.0
C1125 C 0.24845 0.36169 0.74888 0.0
C1126 C 0.14519 0.40647 0.70268 0.0
C1127 C 0.20568 0.40479 0.72852 0.0
C1128 C 0.12493 0.42478 0.68083 0.0
C1129 C 0.14049 0.46147 0.67177 0.0
C1130 C 0.18114 0.42495 0.71482 0.0
C1131 C 0.17483 0.48 0.68898 0.0
C1132 C 0.23731 0.41306 0.71636 0.0
C1133 C 0.21722 0.35503 0.76136 0.0
N1134 N 0.19453 0.46125 0.70864 0.0
N1135 N 0.19643 0.37601 0.75047 0.0
H1136 H 0.74969 0.18778 0.72103 0.0
H1137 H 0.70778 0.17775 0.51971 0.0
H1138 H 0.77901 0.27995 0.65257 0.0
H1139 H 0.67979 0.08303 0.58541 0.0
H1140 H 0.74214 0.21364 0.56857 0.0
H1141 H 0.73037 0.14773 0.67306 0.0
C1142 C 0.75221 0.19961 0.69598 0.0
C1143 C 0.76569 0.23743 0.69089 0.0
C1144 C 0.72932 0.18483 0.57242 0.0
C1145 C 0.74369 0.19163 0.63567 0.0
C1146 C 0.71017 0.16413 0.54431 0.0
C1147 C 0.6912 0.12707 0.54816 0.0
C1148 C 0.72914 0.16873 0.60509 0.0
C1149 C 0.69452 0.11128 0.581 0.0
C1150 C 0.74125 0.1767 0.66856 0.0
C1151 C 0.76852 0.25108 0.6578 0.0
N1152 N 0.7124 0.13224 0.60815 0.0
N1153 N 0.75749 0.22837 0.63165 0.0
H1154 H 0.8569 0.41298 0.33809 0.0
H1155 H 1.01001 0.39598 0.48957 0.0
H1156 H 0.90457 0.32943 0.34788 0.0
H1157 H 0.98431 0.49455 0.46704 0.0
H1158 H 0.96915 0.37071 0.43867 0.0
H1159 H 0.90317 0.44444 0.38414 0.0
C1160 C 0.87761 0.40173 0.34937 0.0
C1161 C 0.87666 0.36833 0.33943 0.0
C1162 C 0.97241 0.3979 0.44479 0.0
C1163 C 0.92896 0.4036 0.3926 0.0
C1164 C 0.99553 0.41229 0.47415 0.0
C1165 C 1.00078 0.44761 0.48277 0.0
C1166 C 0.95396 0.41869 0.42381 0.0
C1167 C 0.98118 0.46727 0.46152 0.0
C1168 C 0.90382 0.41955 0.37582 0.0
C1169 C 0.90413 0.35499 0.35486 0.0
N1170 N 0.95859 0.45253 0.43301 0.0
N1171 N 0.92879 0.37234 0.38105 0.0
H1172 H 0.75824 0.89336 0.29227 0.0
H1173 H 0.65814 0.89274 0.44153 0.0
H1174 H 0.75609 0.81657 0.37634 0.0
H1175 H 0.71226 0.99383 0.39399 0.0
H1176 H 0.68548 0.86167 0.41215 0.0
H1177 H 0.73374 0.92713 0.32243 0.0
C1178 C 0.75247 0.88333 0.31696 0.0
C1179 C 0.7594 0.8516 0.33138 0.0
C1180 C 0.69149 0.89064 0.40804 0.0
C1181 C 0.73046 0.89056 0.36647 0.0
C1182 C 0.6757 0.90861 0.42483 0.0
C1183 C 0.68263 0.9464 0.42067 0.0
C1184 C 0.71399 0.90992 0.3856 0.0
C1185 C 0.706 0.96489 0.39847 0.0
C1186 C 0.73864 0.90293 0.33436 0.0
C1187 C 0.75148 0.84067 0.36387 0.0
N1188 N 0.72029 0.94656 0.38161 0.0
N1189 N 0.73719 0.85962 0.37987 0.0
H1190 H 0.24574 0.68076 0.34332 0.0
H1191 H 0.12991 0.65145 0.48668 0.0
H1192 H 0.21899 0.76761 0.37433 0.0
H1193 H 0.17975 0.57681 0.46935 0.0
H1194 H 0.1551 0.69185 0.44105 0.0
H1195 H 0.2145 0.64006 0.3845 0.0
C1196 C 0.23316 0.69136 0.35867 0.0
C1197 C 0.23529 0.72791 0.35534 0.0
C1198 C 0.16021 0.66645 0.44701 0.0
C1199 C 0.19914 0.68091 0.40299 0.0
C1200 C 0.14544 0.64321 0.4727 0.0
C1201 C 0.15211 0.61042 0.48117 0.0
C1202 C 0.1817 0.65667 0.42968 0.0
C1203 C 0.17368 0.6017 0.46333 0.0
C1204 C 0.21532 0.66798 0.38233 0.0
C1205 C 0.21819 0.73973 0.37603 0.0
N1206 N 0.18755 0.62455 0.43842 0.0
N1207 N 0.20089 0.71633 0.39902 0.0
H1208 H 0.34473 0.17282 0.30013 0.0
H1209 H 0.53117 0.18418 0.42199 0.0
H1210 H 0.40671 0.26346 0.36221 0.0
H1211 H 0.44934 0.0813 0.39991 0.0
H1212 H 0.49053 0.21487 0.39061 0.0
H1213 H 0.38629 0.14056 0.32728 0.0
C1214 C 0.36713 0.18615 0.31924 0.0
C1215 C 0.37184 0.22116 0.32874 0.0
C1216 C 0.48148 0.18556 0.3923 0.0
C1217 C 0.42036 0.18423 0.35976 0.0
C1218 C 0.50492 0.16779 0.41009 0.0
C1219 C 0.49416 0.12967 0.41393 0.0
C1220 C 0.44667 0.16549 0.37734 0.0
C1221 C 0.45927 0.11057 0.39781 0.0
C1222 C 0.39085 0.16756 0.33487 0.0
C1223 C 0.40157 0.2366 0.35393 0.0
N1224 N 0.43702 0.12852 0.38033 0.0
N1225 N 0.42456 0.21835 0.36817 0.0
H1226 H 0.72222 0.80059 0.67032 0.0
H1227 H 0.71512 0.99524 0.59728 0.0
H1228 H 0.76048 0.89064 0.73577 0.0
H1229 H 0.63743 0.8947 0.56021 0.0
H1230 H 0.73937 0.96055 0.64489 0.0
H1231 H 0.69846 0.83766 0.62578 0.0
C1232 C 0.72556 0.82813 0.6754 0.0
C1233 C 0.74312 0.84228 0.70705 0.0
C1234 C 0.71688 0.94632 0.62629 0.0
C1235 C 0.71656 0.88543 0.6556 0.0
C1236 C 0.70307 0.96609 0.59909 0.0
C1237 C 0.67398 0.94811 0.57453 0.0
C1238 C 0.7021 0.90826 0.62844 0.0
C1239 C 0.65964 0.91011 0.57839 0.0
C1240 C 0.71196 0.84933 0.64992 0.0
C1241 C 0.74677 0.87839 0.71192 0.0
N1242 N 0.67396 0.89167 0.60438 0.0
N1243 N 0.73391 0.8988 0.68645 0.0
H1244 H 0.58204 0.25182 0.36488 0.0
H1245 H 0.55856 0.07803 0.39196 0.0
H1246 H 0.64736 0.25567 0.29356 0.0
H1247 H 0.66995 0.12841 0.38926 0.0
H1248 H 0.54508 0.12219 0.34929 0.0
H1249 H 0.56007 0.1862 0.36341 0.0
C1250 C 0.59001 0.23907 0.34713 0.0
C1251 C 0.6189 0.25883 0.33177 0.0
C1252 C 0.57229 0.12281 0.35726 0.0
C1253 C 0.59488 0.18429 0.33054 0.0
C1254 C 0.58022 0.09789 0.3818 0.0
C1255 C 0.61573 0.10057 0.39518 0.0
C1256 C 0.60004 0.15051 0.34593 0.0
C1257 C 0.64239 0.12593 0.38023 0.0
C1258 C 0.57784 0.20135 0.34663 0.0
C1259 C 0.62694 0.24109 0.30793 0.0
N1260 N 0.63402 0.15057 0.35681 0.0
N1261 N 0.61716 0.20445 0.30993 0.0
H1262 H 0.91067 0.63477 0.32611 0.0
H1263 H 0.08187 0.65773 0.43751 0.0
H1264 H 0.99645 0.73631 0.34211 0.0
H1265 H 1.00098 0.55516 0.41126 0.0
H1266 H 0.066 0.68179 0.38125 0.0
H1267 H 0.95346 0.60401 0.33095 0.0
C1268 C 0.93849 0.65093 0.32975 0.0
C1269 C 0.95004 0.68794 0.33615 0.0
C1270 C 0.05231 0.65364 0.3873 0.0
C1271 C 0.99924 0.6523 0.34357 0.0
C1272 C 0.06146 0.63982 0.41963 0.0
C1273 C 0.04114 0.60511 0.42976 0.0
C1274 C 1.02154 0.63318 0.36591 0.0
C1275 C 1.0159 0.58288 0.4051 0.0
C1276 C 0.96311 0.63319 0.33256 0.0
C1277 C 0.98644 0.70727 0.33957 0.0
N1278 N 1.00588 0.5977 0.37457 0.0
N1279 N 1.00989 0.68905 0.34448 0.0
H1280 H 0.35042 0.79526 0.4143 0.0
H1281 H 0.47274 0.99585 0.43669 0.0
H1282 H 0.34244 0.88482 0.34557 0.0
H1283 H 0.49151 0.90199 0.49126 0.0
H1284 H 0.40999 0.96006 0.42042 0.0
H1285 H 0.38398 0.83796 0.4585 0.0
C1286 C 0.35511 0.8239 0.40877 0.0
C1287 C 0.34549 0.8369 0.376 0.0
C1288 C 0.42768 0.94762 0.43676 0.0
C1289 C 0.38401 0.88559 0.42588 0.0
C1290 C 0.46344 0.96796 0.44592 0.0
C1291 C 0.48734 0.95116 0.46389 0.0
C1292 C 0.41619 0.91046 0.44569 0.0
C1293 C 0.47403 0.91537 0.47602 0.0
C1294 C 0.37407 0.84825 0.43399 0.0
C1295 C 0.35083 0.87397 0.3703 0.0
N1296 N 0.4394 0.89594 0.46611 0.0
N1297 N 0.37075 0.89727 0.3948 0.0
H1298 H 0.32256 0.46361 0.44307 0.0
H1299 H 0.17323 0.40533 0.55402 0.0
H1300 H 0.26457 0.35257 0.46763 0.0
H1301 H 0.23862 0.51629 0.53939 0.0
H1302 H 0.21199 0.38535 0.52884 0.0
H1303 H 0.29789 0.48339 0.48411 0.0
C1304 C 0.30505 0.44337 0.45746 0.0
C1305 C 0.2951 0.40642 0.45155 0.0
C1306 C 0.2182 0.41407 0.5315 0.0
C1307 C 0.26651 0.42883 0.49819 0.0
C1308 C 0.19602 0.42549 0.54584 0.0
C1309 C 0.20238 0.46254 0.54822 0.0
C1310 C 0.24665 0.4399 0.51897 0.0
C1311 C 0.23261 0.48745 0.53776 0.0
C1312 C 0.2909 0.45468 0.48082 0.0
C1313 C 0.27221 0.38138 0.47079 0.0
N1314 N 0.25333 0.47569 0.52302 0.0
N1315 N 0.25839 0.39307 0.49298 0.0
H1316 H 0.4668 0.25732 0.6456 0.0
H1317 H 0.45312 0.07908 0.55694 0.0
H1318 H 0.3728 0.16272 0.63368 0.0
H1319 H 0.54674 0.17399 0.57184 0.0
H1320 H 0.42374 0.1077 0.58653 0.0
H1321 H 0.49659 0.22607 0.61998 0.0
C1322 C 0.45229 0.23 0.63751 0.0
C1323 C 0.41699 0.21289 0.64172 0.0
C1324 C 0.45078 0.12216 0.58347 0.0
C1325 C 0.4514 0.17647 0.61233 0.0
C1326 C 0.46767 0.10577 0.56661 0.0
C1327 C 0.5026 0.12403 0.56168 0.0
C1328 C 0.46882 0.15718 0.59554 0.0
C1329 C 0.51985 0.1587 0.57482 0.0
C1330 C 0.46947 0.21202 0.623 0.0
C1331 C 0.40004 0.17705 0.63126 0.0
N1332 N 0.50282 0.17406 0.59092 0.0
N1333 N 0.41728 0.16017 0.61694 0.0
H1334 H 0.87046 0.40382 0.73179 0.0
H1335 H 1.02583 0.42896 0.62996 0.0
H1336 H 0.90558 0.31485 0.72113 0.0
H1337 H 0.9668 0.50206 0.62354 0.0
H1338 H 0.99037 0.39 0.6707 0.0
H1339 H 0.91382 0.44309 0.69973 0.0
C1340 C 0.88736 0.39243 0.7228 0.0
C1341 C 0.88395 0.35571 0.72903 0.0
C1342 C 0.98558 0.41481 0.66058 0.0
C1343 C 0.93427 0.40114 0.69179 0.0
C1344 C 1.006 0.43716 0.63764 0.0
C1345 C 0.99916 0.46874 0.62333 0.0
C1346 C 0.95867 0.42458 0.66951 0.0
C1347 C 0.97286 0.47789 0.63379 0.0
C1348 C 0.91225 0.41502 0.70437 0.0
C1349 C 0.90708 0.34291 0.7168 0.0
N1350 N 0.9537 0.45603 0.65605 0.0
N1351 N 0.93116 0.36554 0.69861 0.0
H1352 H 0.32334 0.7114 0.73708 0.0
H1353 H 0.17482 0.5888 0.6436 0.0
H1354 H 0.28463 0.79076 0.67563 0.0
H1355 H 0.1712 0.68005 0.57542 0.0
H1356 H 0.23081 0.62692 0.67574 0.0
H1357 H 0.28459 0.66492 0.69731 0.0
C1358 C 0.30747 0.7191 0.71454 0.0
C1359 C 0.30706 0.75469 0.7092 0.0
C1360 C 0.21839 0.63845 0.65328 0.0
C1361 C 0.26173 0.70198 0.66469 0.0
C1362 C 0.18621 0.61666 0.63505 0.0
C1363 C 0.16795 0.63157 0.60738 0.0
C1364 C 0.2323 0.67523 0.64337 0.0
C1365 C 0.18389 0.66768 0.59717 0.0
C1366 C 0.28484 0.69251 0.69219 0.0
C1367 C 0.2857 0.76352 0.68029 0.0
N1368 N 0.21483 0.68828 0.61538 0.0
N1369 N 0.26371 0.7373 0.65926 0.0
loop_
_geom_bond_atom_site_label_1
_geom_bond_atom_site_label_2
_geom_bond_distance
_geom_bond_site_symmetry_2
_ccdc_geom_bond_type
C0 Eu1 2.835 . S
C0 C2 1.500 . S
C0 O20 1.257 . S
C0 O21 1.260 . S
Eu1 C0 2.835 . S
Eu1 O20 2.473 . S
Eu1 O21 2.480 . S
Eu1 O22 2.430 . S
Eu1 O23 2.670 . S
Eu1 O24 2.394 . S
Eu1 O29 2.355 . S
Eu1 O31 2.374 . S
C2 C0 1.500 . S
C2 C3 1.377 . S
C2 C7 1.377 . S
C3 C2 1.377 . S
C3 C4 1.395 . S
C3 H32 0.931 . S
C4 C3 1.395 . S
C4 C5 1.383 . S
C4 H33 0.931 . S
C5 C4 1.383 . S
C5 C6 1.394 . S
C6 C5 1.394 . S
C6 C7 1.378 . S
C6 H34 0.931 . S
C7 C2 1.377 . S
C7 C6 1.378 . S
C7 H35 0.931 . S
C8 O22 1.259 . S
C8 O23 1.270 . S
C9 O24 1.251 . S
C9 O25 1.251 . S
C10 Eu11 2.835 . S
C10 C12 1.500 . S
C10 O26 1.257 . S
C10 O27 1.260 . S
Eu11 C10 2.835 . S
Eu11 O23 2.355 . S
Eu11 O25 2.374 . S
Eu11 O26 2.473 . S
Eu11 O27 2.480 . S
Eu11 O28 2.430 . S
Eu11 O29 2.670 . S
Eu11 O30 2.394 . S
C12 C10 1.500 . S
C12 C13 1.377 . S
C12 C17 1.377 . S
C13 C12 1.377 . S
C13 C14 1.395 . S
C13 H36 0.931 . S
C14 C13 1.395 . S
C14 C15 1.383 . S
C14 H37 0.931 . S
C15 C14 1.383 . S
C15 C16 1.394 . S
C16 C15 1.394 . S
C16 C17 1.378 . S
C16 H38 0.931 . S
C17 C12 1.377 . S
C17 C16 1.378 . S
C17 H39 0.931 . S
C18 O28 1.259 . S
C18 O29 1.270 . S
C19 O30 1.251 . S
C19 O31 1.251 . S
O20 C0 1.257 . S
O20 Eu1 2.473 . S
O21 C0 1.260 . S
O21 Eu1 2.480 . S
O22 Eu1 2.430 . S
O22 C8 1.259 . S
O23 Eu1 2.670 . S
O23 C8 1.270 . S
O23 Eu11 2.355 . S
O24 Eu1 2.394 . S
O24 C9 1.251 . S
O25 C9 1.251 . S
O25 Eu11 2.374 . S
O26 C10 1.257 . S
O26 Eu11 2.473 . S
O27 C10 1.260 . S
O27 Eu11 2.480 . S
O28 Eu11 2.430 . S
O28 C18 1.259 . S
O29 Eu1 2.355 . S
O29 Eu11 2.670 . S
O29 C18 1.270 . S
O30 Eu11 2.394 . S
O30 C19 1.251 . S
O31 Eu1 2.374 . S
O31 C19 1.251 . S
H32 C3 0.931 . S
H33 C4 0.931 . S
H34 C6 0.931 . S
H35 C7 0.931 . S
H36 C13 0.931 . S
H37 C14 0.931 . S
H38 C16 0.931 . S
H39 C17 0.931 . S
C40 Eu41 2.835 . S
C40 C42 1.500 . S
C40 O60 1.257 . S
C40 O61 1.260 . S
Eu41 C40 2.835 . S
Eu41 O60 2.473 . S
Eu41 O61 2.480 . S
Eu41 O62 2.430 . S
Eu41 O63 2.670 . S
Eu41 O64 2.394 . S
Eu41 O69 2.355 . S
Eu41 O71 2.374 . S
C42 C40 1.500 . S
C42 C43 1.377 . S
C42 C47 1.377 . S
C43 C42 1.377 . S
C43 C44 1.395 . S
C43 H72 0.931 . S
C44 C43 1.395 . S
C44 C45 1.383 . S
C44 H73 0.931 . S
C45 C44 1.383 . S
C45 C46 1.394 . S
C46 C45 1.394 . S
C46 C47 1.378 . S
C46 H74 0.931 . S
C47 C42 1.377 . S
C47 C46 1.378 . S
C47 H75 0.931 . S
C48 O62 1.259 . S
C48 O63 1.270 . S
C49 O64 1.251 . S
C49 O65 1.251 . S
C50 Eu51 2.835 . S
C50 C52 1.500 . S
C50 O66 1.257 . S
C50 O67 1.260 . S
Eu51 C50 2.835 . S
Eu51 O63 2.355 . S
Eu51 O65 2.374 . S
Eu51 O66 2.473 . S
Eu51 O67 2.480 . S
Eu51 O68 2.430 . S
Eu51 O69 2.670 . S
Eu51 O70 2.394 . S
C52 C50 1.500 . S
C52 C53 1.377 . S
C52 C57 1.377 . S
C53 C52 1.377 . S
C53 C54 1.395 . S
C53 H76 0.931 . S
C54 C53 1.395 . S
C54 C55 1.383 . S
C54 H77 0.931 . S
C55 C54 1.383 . S
C55 C56 1.394 . S
C56 C55 1.394 . S
C56 C57 1.378 . S
C56 H78 0.931 . S
C57 C52 1.377 . S
C57 C56 1.378 . S
C57 H79 0.931 . S
C58 O68 1.259 . S
C58 O69 1.270 . S
C59 O70 1.251 . S
C59 O71 1.251 . S
O60 C40 1.257 . S
O60 Eu41 2.473 . S
O61 C40 1.260 . S
O61 Eu41 2.480 . S
O62 Eu41 2.430 . S
O62 C48 1.259 . S
O63 Eu41 2.670 . S
O63 C48 1.270 . S
O63 Eu51 2.355 . S
O64 Eu41 2.394 . S
O64 C49 1.251 . S
O65 C49 1.251 . S
O65 Eu51 2.374 . S
O66 C50 1.257 . S
O66 Eu51 2.473 . S
O67 C50 1.260 . S
O67 Eu51 2.480 . S
O68 Eu51 2.430 . S
O68 C58 1.259 . S
O69 Eu41 2.355 . S
O69 Eu51 2.670 . S
O69 C58 1.270 . S
O70 Eu51 2.394 . S
O70 C59 1.251 . S
O71 Eu41 2.374 . S
O71 C59 1.251 . S
H72 C43 0.931 . S
H73 C44 0.931 . S
H74 C46 0.931 . S
H75 C47 0.931 . S
H76 C53 0.931 . S
H77 C54 0.931 . S
H78 C56 0.931 . S
H79 C57 0.931 . S
C80 Eu81 2.835 . S
C80 C82 1.500 . S
C80 O100 1.257 . S
C80 O101 1.260 . S
Eu81 C80 2.835 . S
Eu81 O100 2.473 . S
Eu81 O101 2.480 . S
Eu81 O102 2.430 . S
Eu81 O103 2.670 . S
Eu81 O104 2.394 . S
Eu81 O109 2.355 . S
Eu81 O111 2.374 . S
C82 C80 1.500 . S
C82 C83 1.377 . S
C82 C87 1.377 . S
C83 C82 1.377 . S
C83 C84 1.395 . S
C83 H112 0.931 . S
C84 C83 1.395 . S
C84 C85 1.383 . S
C84 H113 0.931 . S
C85 C84 1.383 . S
C85 C86 1.394 . S
C86 C85 1.394 . S
C86 C87 1.378 . S
C86 H114 0.931 . S
C87 C82 1.377 . S
C87 C86 1.378 . S
C87 H115 0.931 . S
C88 O102 1.259 . S
C88 O103 1.270 . S
C89 O104 1.251 . S
C89 O105 1.251 . S
C90 Eu91 2.835 . S
C90 C92 1.500 . S
C90 O106 1.257 . S
C90 O107 1.260 . S
Eu91 C90 2.835 . S
Eu91 O103 2.355 . S
Eu91 O105 2.374 . S
Eu91 O106 2.473 . S
Eu91 O107 2.480 . S
Eu91 O108 2.430 . S
Eu91 O109 2.670 . S
Eu91 O110 2.394 . S
C92 C90 1.500 . S
C92 C93 1.377 . S
C92 C97 1.377 . S
C93 C92 1.377 . S
C93 C94 1.395 . S
C93 H116 0.931 . S
C94 C93 1.395 . S
C94 C95 1.383 . S
C94 H117 0.931 . S
C95 C94 1.383 . S
C95 C96 1.394 . S
C96 C95 1.394 . S
C96 C97 1.378 . S
C96 H118 0.931 . S
C97 C92 1.377 . S
C97 C96 1.378 . S
C97 H119 0.931 . S
C98 O108 1.259 . S
C98 O109 1.270 . S
C99 O110 1.251 . S
C99 O111 1.251 . S
O100 C80 1.257 . S
O100 Eu81 2.473 . S
O101 C80 1.260 . S
O101 Eu81 2.480 . S
O102 Eu81 2.430 . S
O102 C88 1.259 . S
O103 Eu81 2.670 . S
O103 C88 1.270 . S
O103 Eu91 2.355 . S
O104 Eu81 2.394 . S
O104 C89 1.251 . S
O105 C89 1.251 . S
O105 Eu91 2.374 . S
O106 C90 1.257 . S
O106 Eu91 2.473 . S
O107 C90 1.260 . S
O107 Eu91 2.480 . S
O108 Eu91 2.430 . S
O108 C98 1.259 . S
O109 Eu81 2.355 . S
O109 Eu91 2.670 . S
O109 C98 1.270 . S
O110 Eu91 2.394 . S
O110 C99 1.251 . S
O111 Eu81 2.374 . S
O111 C99 1.251 . S
H112 C83 0.931 . S
H113 C84 0.931 . S
H114 C86 0.931 . S
H115 C87 0.931 . S
H116 C93 0.931 . S
H117 C94 0.931 . S
H118 C96 0.931 . S
H119 C97 0.931 . S
C120 Eu121 2.835 . S
C120 C122 1.500 . S
C120 O140 1.257 . S
C120 O141 1.260 . S
Eu121 C120 2.835 . S
Eu121 O140 2.473 . S
Eu121 O141 2.480 . S
Eu121 O142 2.430 . S
Eu121 O143 2.670 . S
Eu121 O144 2.394 . S
Eu121 O149 2.355 . S
Eu121 O151 2.374 . S
C122 C120 1.500 . S
C122 C123 1.377 . S
C122 C127 1.377 . S
C123 C122 1.377 . S
C123 C124 1.395 . S
C123 H152 0.931 . S
C124 C123 1.395 . S
C124 C125 1.383 . S
C124 H153 0.931 . S
C125 C124 1.383 . S
C125 C126 1.394 . S
C126 C125 1.394 . S
C126 C127 1.378 . S
C126 H154 0.931 . S
C127 C122 1.377 . S
C127 C126 1.378 . S
C127 H155 0.931 . S
C128 O142 1.259 . S
C128 O143 1.270 . S
C129 O144 1.251 . S
C129 O145 1.251 . S
C130 Eu131 2.835 . S
C130 C132 1.500 . S
C130 O146 1.257 . S
C130 O147 1.260 . S
Eu131 C130 2.835 . S
Eu131 O143 2.355 . S
Eu131 O145 2.374 . S
Eu131 O146 2.473 . S
Eu131 O147 2.480 . S
Eu131 O148 2.430 . S
Eu131 O149 2.670 . S
Eu131 O150 2.394 . S
C132 C130 1.500 . S
C132 C133 1.377 . S
C132 C137 1.377 . S
C133 C132 1.377 . S
C133 C134 1.395 . S
C133 H156 0.931 . S
C134 C133 1.395 . S
C134 C135 1.383 . S
C134 H157 0.931 . S
C135 C134 1.383 . S
C135 C136 1.394 . S
C136 C135 1.394 . S
C136 C137 1.378 . S
C136 H158 0.931 . S
C137 C132 1.377 . S
C137 C136 1.378 . S
C137 H159 0.931 . S
C138 O148 1.259 . S
C138 O149 1.270 . S
C139 O150 1.251 . S
C139 O151 1.251 . S
O140 C120 1.257 . S
O140 Eu121 2.473 . S
O141 C120 1.260 . S
O141 Eu121 2.480 . S
O142 Eu121 2.430 . S
O142 C128 1.259 . S
O143 Eu121 2.670 . S
O143 C128 1.270 . S
O143 Eu131 2.355 . S
O144 Eu121 2.394 . S
O144 C129 1.251 . S
O145 C129 1.251 . S
O145 Eu131 2.374 . S
O146 C130 1.257 . S
O146 Eu131 2.473 . S
O147 C130 1.260 . S
O147 Eu131 2.480 . S
O148 Eu131 2.430 . S
O148 C138 1.259 . S
O149 Eu121 2.355 . S
O149 Eu131 2.670 . S
O149 C138 1.270 . S
O150 Eu131 2.394 . S
O150 C139 1.251 . S
O151 Eu121 2.374 . S
O151 C139 1.251 . S
H152 C123 0.931 . S
H153 C124 0.931 . S
H154 C126 0.931 . S
H155 C127 0.931 . S
H156 C133 0.931 . S
H157 C134 0.931 . S
H158 C136 0.931 . S
H159 C137 0.931 . S
C160 Eu161 2.835 . S
C160 C162 1.500 . S
C160 O180 1.257 . S
C160 O181 1.260 . S
Eu161 C160 2.835 . S
Eu161 O180 2.473 . S
Eu161 O181 2.480 . S
Eu161 O182 2.430 . S
Eu161 O183 2.670 . S
Eu161 O184 2.394 . S
Eu161 O189 2.355 . S
Eu161 O191 2.374 . S
C162 C160 1.500 . S
C162 C163 1.377 . S
C162 C167 1.377 . S
C163 C162 1.377 . S
C163 C164 1.395 . S
C163 H192 0.931 . S
C164 C163 1.395 . S
C164 C165 1.383 . S
C164 H193 0.931 . S
C165 C164 1.383 . S
C165 C166 1.394 . S
C166 C165 1.394 . S
C166 C167 1.378 . S
C166 H194 0.931 . S
C167 C162 1.377 . S
C167 C166 1.378 . S
C167 H195 0.931 . S
C168 O182 1.259 . S
C168 O183 1.270 . S
C169 O184 1.251 . S
C169 O185 1.251 . S
C170 Eu171 2.835 . S
C170 C172 1.500 . S
C170 O186 1.257 . S
C170 O187 1.260 . S
Eu171 C170 2.835 . S
Eu171 O183 2.355 . S
Eu171 O185 2.374 . S
Eu171 O186 2.473 . S
Eu171 O187 2.480 . S
Eu171 O188 2.430 . S
Eu171 O189 2.670 . S
Eu171 O190 2.394 . S
C172 C170 1.500 . S
C172 C173 1.377 . S
C172 C177 1.377 . S
C173 C172 1.377 . S
C173 C174 1.395 . S
C173 H196 0.931 . S
C174 C173 1.395 . S
C174 C175 1.383 . S
C174 H197 0.931 . S
C175 C174 1.383 . S
C175 C176 1.394 . S
C176 C175 1.394 . S
C176 C177 1.378 . S
C176 H198 0.931 . S
C177 C172 1.377 . S
C177 C176 1.378 . S
C177 H199 0.931 . S
C178 O188 1.259 . S
C178 O189 1.270 . S
C179 O190 1.251 . S
C179 O191 1.251 . S
O180 C160 1.257 . S
O180 Eu161 2.473 . S
O181 C160 1.260 . S
O181 Eu161 2.480 . S
O182 Eu161 2.430 . S
O182 C168 1.259 . S
O183 Eu161 2.670 . S
O183 C168 1.270 . S
O183 Eu171 2.355 . S
O184 Eu161 2.394 . S
O184 C169 1.251 . S
O185 C169 1.251 . S
O185 Eu171 2.374 . S
O186 C170 1.257 . S
O186 Eu171 2.473 . S
O187 C170 1.260 . S
O187 Eu171 2.480 . S
O188 Eu171 2.430 . S
O188 C178 1.259 . S
O189 Eu161 2.355 . S
O189 Eu171 2.670 . S
O189 C178 1.270 . S
O190 Eu171 2.394 . S
O190 C179 1.251 . S
O191 Eu161 2.374 . S
O191 C179 1.251 . S
H192 C163 0.931 . S
H193 C164 0.931 . S
H194 C166 0.931 . S
H195 C167 0.931 . S
H196 C173 0.931 . S
H197 C174 0.931 . S
H198 C176 0.931 . S
H199 C177 0.931 . S
C200 Eu201 2.835 . S
C200 C202 1.500 . S
C200 O220 1.257 . S
C200 O221 1.260 . S
Eu201 C200 2.835 . S
Eu201 O220 2.473 . S
Eu201 O221 2.480 . S
Eu201 O222 2.430 . S
Eu201 O223 2.670 . S
Eu201 O224 2.394 . S
Eu201 O229 2.355 . S
Eu201 O231 2.374 . S
C202 C200 1.500 . S
C202 C203 1.377 . S
C202 C207 1.377 . S
C203 C202 1.377 . S
C203 C204 1.395 . S
C203 H232 0.931 . S
C204 C203 1.395 . S
C204 C205 1.383 . S
C204 H233 0.931 . S
C205 C204 1.383 . S
C205 C206 1.394 . S
C206 C205 1.394 . S
C206 C207 1.378 . S
C206 H234 0.931 . S
C207 C202 1.377 . S
C207 C206 1.378 . S
C207 H235 0.931 . S
C208 O222 1.259 . S
C208 O223 1.270 . S
C209 O224 1.251 . S
C209 O225 1.251 . S
C210 Eu211 2.835 . S
C210 C212 1.500 . S
C210 O226 1.257 . S
C210 O227 1.260 . S
Eu211 C210 2.835 . S
Eu211 O223 2.355 . S
Eu211 O225 2.374 . S
Eu211 O226 2.473 . S
Eu211 O227 2.480 . S
Eu211 O228 2.430 . S
Eu211 O229 2.670 . S
Eu211 O230 2.394 . S
C212 C210 1.500 . S
C212 C213 1.377 . S
C212 C217 1.377 . S
C213 C212 1.377 . S
C213 C214 1.395 . S
C213 H236 0.931 . S
C214 C213 1.395 . S
C214 C215 1.383 . S
C214 H237 0.931 . S
C215 C214 1.383 . S
C215 C216 1.394 . S
C216 C215 1.394 . S
C216 C217 1.378 . S
C216 H238 0.931 . S
C217 C212 1.377 . S
C217 C216 1.378 . S
C217 H239 0.931 . S
C218 O228 1.259 . S
C218 O229 1.270 . S
C219 O230 1.251 . S
C219 O231 1.251 . S
O220 C200 1.257 . S
O220 Eu201 2.473 . S
O221 C200 1.260 . S
O221 Eu201 2.480 . S
O222 Eu201 2.430 . S
O222 C208 1.259 . S
O223 Eu201 2.670 . S
O223 C208 1.270 . S
O223 Eu211 2.355 . S
O224 Eu201 2.394 . S
O224 C209 1.251 . S
O225 C209 1.251 . S
O225 Eu211 2.374 . S
O226 C210 1.257 . S
O226 Eu211 2.473 . S
O227 C210 1.260 . S
O227 Eu211 2.480 . S
O228 Eu211 2.430 . S
O228 C218 1.259 . S
O229 Eu201 2.355 . S
O229 Eu211 2.670 . S
O229 C218 1.270 . S
O230 Eu211 2.394 . S
O230 C219 1.251 . S
O231 Eu201 2.374 . S
O231 C219 1.251 . S
H232 C203 0.931 . S
H233 C204 0.931 . S
H234 C206 0.931 . S
H235 C207 0.931 . S
H236 C213 0.931 . S
H237 C214 0.931 . S
H238 C216 0.931 . S
H239 C217 0.931 . S
C240 Eu241 2.835 . S
C240 C242 1.500 . S
C240 O260 1.257 . S
C240 O261 1.260 . S
Eu241 C240 2.835 . S
Eu241 O260 2.473 . S
Eu241 O261 2.480 . S
Eu241 O262 2.430 . S
Eu241 O263 2.670 . S
Eu241 O264 2.394 . S
Eu241 O269 2.355 . S
Eu241 O271 2.374 . S
C242 C240 1.500 . S
C242 C243 1.377 . S
C242 C247 1.377 . S
C243 C242 1.377 . S
C243 C244 1.395 . S
C243 H272 0.931 . S
C244 C243 1.395 . S
C244 C245 1.383 . S
C244 H273 0.931 . S
C245 C244 1.383 . S
C245 C246 1.394 . S
C246 C245 1.394 . S
C246 C247 1.378 . S
C246 H274 0.931 . S
C247 C242 1.377 . S
C247 C246 1.378 . S
C247 H275 0.931 . S
C248 O262 1.259 . S
C248 O263 1.270 . S
C249 O264 1.251 . S
C249 O265 1.251 . S
C250 Eu251 2.835 . S
C250 C252 1.500 . S
C250 O266 1.257 . S
C250 O267 1.260 . S
Eu251 C250 2.835 . S
Eu251 O263 2.355 . S
Eu251 O265 2.374 . S
Eu251 O266 2.473 . S
Eu251 O267 2.480 . S
Eu251 O268 2.430 . S
Eu251 O269 2.670 . S
Eu251 O270 2.394 . S
C252 C250 1.500 . S
C252 C253 1.377 . S
C252 C257 1.377 . S
C253 C252 1.377 . S
C253 C254 1.395 . S
C253 H276 0.931 . S
C254 C253 1.395 . S
C254 C255 1.383 . S
C254 H277 0.931 . S
C255 C254 1.383 . S
C255 C256 1.394 . S
C256 C255 1.394 . S
C256 C257 1.378 . S
C256 H278 0.931 . S
C257 C252 1.377 . S
C257 C256 1.378 . S
C257 H279 0.931 . S
C258 O268 1.259 . S
C258 O269 1.270 . S
C259 O270 1.251 . S
C259 O271 1.251 . S
O260 C240 1.257 . S
O260 Eu241 2.473 . S
O261 C240 1.260 . S
O261 Eu241 2.480 . S
O262 Eu241 2.430 . S
O262 C248 1.259 . S
O263 Eu241 2.670 . S
O263 C248 1.270 . S
O263 Eu251 2.355 . S
O264 Eu241 2.394 . S
O264 C249 1.251 . S
O265 C249 1.251 . S
O265 Eu251 2.374 . S
O266 C250 1.257 . S
O266 Eu251 2.473 . S
O267 C250 1.260 . S
O267 Eu251 2.480 . S
O268 Eu251 2.430 . S
O268 C258 1.259 . S
O269 Eu241 2.355 . S
O269 Eu251 2.670 . S
O269 C258 1.270 . S
O270 Eu251 2.394 . S
O270 C259 1.251 . S
O271 Eu241 2.374 . S
O271 C259 1.251 . S
H272 C243 0.931 . S
H273 C244 0.931 . S
H274 C246 0.931 . S
H275 C247 0.931 . S
H276 C253 0.931 . S
H277 C254 0.931 . S
H278 C256 0.931 . S
H279 C257 0.931 . S
C280 Eu281 2.835 . S
C280 C282 1.500 . S
C280 O300 1.257 . S
C280 O301 1.260 . S
Eu281 C280 2.835 . S
Eu281 O300 2.473 . S
Eu281 O301 2.480 . S
Eu281 O302 2.430 . S
Eu281 O303 2.670 . S
Eu281 O304 2.394 . S
Eu281 O309 2.355 . S
Eu281 O311 2.374 . S
C282 C280 1.500 . S
C282 C283 1.377 . S
C282 C287 1.377 . S
C283 C282 1.377 . S
C283 C284 1.395 . S
C283 H312 0.931 . S
C284 C283 1.395 . S
C284 C285 1.383 . S
C284 H313 0.931 . S
C285 C284 1.383 . S
C285 C286 1.394 . S
C286 C285 1.394 . S
C286 C287 1.378 . S
C286 H314 0.931 . S
C287 C282 1.377 . S
C287 C286 1.378 . S
C287 H315 0.931 . S
C288 O302 1.259 . S
C288 O303 1.270 . S
C289 O304 1.251 . S
C289 O305 1.251 . S
C290 Eu291 2.835 . S
C290 C292 1.500 . S
C290 O306 1.257 . S
C290 O307 1.260 . S
Eu291 C290 2.835 . S
Eu291 O303 2.355 . S
Eu291 O305 2.374 . S
Eu291 O306 2.473 . S
Eu291 O307 2.480 . S
Eu291 O308 2.430 . S
Eu291 O309 2.670 . S
Eu291 O310 2.394 . S
C292 C290 1.500 . S
C292 C293 1.377 . S
C292 C297 1.377 . S
C293 C292 1.377 . S
C293 C294 1.395 . S
C293 H316 0.931 . S
C294 C293 1.395 . S
C294 C295 1.383 . S
C294 H317 0.931 . S
C295 C294 1.383 . S
C295 C296 1.394 . S
C296 C295 1.394 . S
C296 C297 1.378 . S
C296 H318 0.931 . S
C297 C292 1.377 . S
C297 C296 1.378 . S
C297 H319 0.931 . S
C298 O308 1.259 . S
C298 O309 1.270 . S
C299 O310 1.251 . S
C299 O311 1.251 . S
O300 C280 1.257 . S
O300 Eu281 2.473 . S
O301 C280 1.260 . S
O301 Eu281 2.480 . S
O302 Eu281 2.430 . S
O302 C288 1.259 . S
O303 Eu281 2.670 . S
O303 C288 1.270 . S
O303 Eu291 2.355 . S
O304 Eu281 2.394 . S
O304 C289 1.251 . S
O305 C289 1.251 . S
O305 Eu291 2.374 . S
O306 C290 1.257 . S
O306 Eu291 2.473 . S
O307 C290 1.260 . S
O307 Eu291 2.480 . S
O308 Eu291 2.430 . S
O308 C298 1.259 . S
O309 Eu281 2.355 . S
O309 Eu291 2.670 . S
O309 C298 1.270 . S
O310 Eu291 2.394 . S
O310 C299 1.251 . S
O311 Eu281 2.374 . S
O311 C299 1.251 . S
H312 C283 0.931 . S
H313 C284 0.931 . S
H314 C286 0.931 . S
H315 C287 0.931 . S
H316 C293 0.931 . S
H317 C294 0.931 . S
H318 C296 0.931 . S
H319 C297 0.931 . S
C320 O332 1.241 . S
C320 O333 1.280 . S
C321 O334 1.277 . S
C321 O335 1.245 . S
C322 O346 1.247 . S
C322 O348 1.289 . S
Mg323 O324 1.926 1_455 S
Mg323 O333 1.984 1_455 S
Mg323 O335 1.988 1_455 S
Mg323 O336 2.061 . S
O324 Mg323 1.926 1_655 S
O324 Mg325 1.986 . S
O324 Mg326 1.917 1_655 S
Mg325 O324 1.986 . S
Mg325 O332 2.042 . S
Mg325 O334 2.041 . S
Mg325 O340 2.038 1_545 S
Mg325 O348 2.238 1_545 S
Mg326 O324 1.917 1_455 S
Mg326 O327 1.917 1_545 S
Mg326 O337 2.106 . S
Mg326 O339 2.079 1_445 S
Mg326 O348 2.106 1_445 S
Mg326 O349 2.079 . S
O327 Mg326 1.917 1_565 S
O327 Mg328 1.926 . S
O327 Mg329 1.986 1_565 S
Mg328 O327 1.926 . S
Mg328 O342 1.984 . S
Mg328 O345 1.988 . S
Mg328 O346 2.061 1_455 S
Mg329 O327 1.986 1_545 S
Mg329 O337 2.238 . S
Mg329 O341 2.042 1_545 S
Mg329 O343 2.041 1_545 S
Mg329 O350 2.038 . S
C330 O336 1.247 . S
C330 O337 1.289 . S
C331 O349 1.245 . S
C331 O350 1.274 . S
O332 C320 1.241 . S
O332 Mg325 2.042 . S
O333 C320 1.280 . S
O333 Mg323 1.984 1_655 S
O334 C321 1.277 . S
O334 Mg325 2.041 . S
O335 C321 1.245 . S
O335 Mg323 1.988 1_655 S
O336 Mg323 2.061 . S
O336 C330 1.247 . S
O337 Mg326 2.106 . S
O337 Mg329 2.238 . S
O337 C330 1.289 . S
C338 O339 1.245 . S
C338 O340 1.274 . S
O339 Mg326 2.079 1_665 S
O339 C338 1.245 . S
O340 Mg325 2.038 1_565 S
O340 C338 1.274 . S
O341 Mg329 2.042 1_565 S
O341 C344 1.241 . S
O342 Mg328 1.984 . S
O342 C344 1.280 . S
O343 Mg329 2.041 1_565 S
O343 C347 1.277 . S
C344 O341 1.241 . S
C344 O342 1.280 . S
O345 Mg328 1.988 . S
O345 C347 1.245 . S
O346 C322 1.247 . S
O346 Mg328 2.061 1_655 S
C347 O343 1.277 . S
C347 O345 1.245 . S
O348 C322 1.289 . S
O348 Mg325 2.238 1_565 S
O348 Mg326 2.106 1_665 S
O349 Mg326 2.079 . S
O349 C331 1.245 . S
O350 Mg329 2.038 . S
O350 C331 1.274 . S
C351 O363 1.241 . S
C351 O364 1.280 . S
C352 O365 1.277 . S
C352 O366 1.245 . S
C353 O377 1.247 . S
C353 O379 1.289 1_565 S
Mg354 O355 1.926 . S
Mg354 O364 1.984 . S
Mg354 O366 1.988 1_554 S
Mg354 O367 2.061 . S
O355 Mg354 1.926 . S
O355 Mg356 1.986 1_554 S
O355 Mg357 1.920 . S
Mg356 O355 1.986 1_556 S
Mg356 O363 2.042 1_556 S
Mg356 O365 2.041 . S
Mg356 O371 2.038 1_546 S
Mg356 O379 2.238 . S
Mg357 O355 1.920 . S
Mg357 O358 1.914 1_554 S
Mg357 O368 2.110 . S
Mg357 O370 2.075 1_545 S
Mg357 O379 2.103 1_554 S
Mg357 O380 2.072 1_554 S
O358 Mg357 1.914 1_556 S
O358 Mg359 1.926 1_545 S
O358 Mg360 1.986 1_556 S
Mg359 O358 1.926 1_565 S
Mg359 O373 1.984 . S
Mg359 O376 1.988 1_556 S
Mg359 O377 2.061 . S
Mg360 O358 1.986 1_554 S
Mg360 O368 2.238 . S
Mg360 O372 2.042 1_554 S
Mg360 O374 2.041 1_545 S
Mg360 O381 2.038 1_554 S
C361 O367 1.247 . S
C361 O368 1.289 . S
C362 O380 1.245 . S
C362 O381 1.274 . S
O363 C351 1.241 . S
O363 Mg356 2.042 1_554 S
O364 C351 1.280 . S
O364 Mg354 1.984 . S
O365 C352 1.277 . S
O365 Mg356 2.041 . S
O366 C352 1.245 . S
O366 Mg354 1.988 1_556 S
O367 Mg354 2.061 . S
O367 C361 1.247 . S
O368 Mg357 2.110 . S
O368 Mg360 2.238 . S
O368 C361 1.289 . S
C369 O370 1.243 . S
C369 O371 1.274 . S
O370 Mg357 2.075 1_565 S
O370 C369 1.243 . S
O371 Mg356 2.038 1_564 S
O371 C369 1.274 . S
O372 Mg360 2.042 1_556 S
O372 C375 1.241 1_545 S
O373 Mg359 1.984 . S
O373 C375 1.280 . S
O374 Mg360 2.041 1_565 S
O374 C378 1.277 . S
C375 O372 1.241 1_565 S
C375 O373 1.280 . S
O376 Mg359 1.988 1_554 S
O376 C378 1.245 . S
O377 C353 1.247 . S
O377 Mg359 2.061 . S
C378 O374 1.277 . S
C378 O376 1.245 . S
O379 C353 1.289 1_545 S
O379 Mg356 2.238 . S
O379 Mg357 2.103 1_556 S
O380 Mg357 2.072 1_556 S
O380 C362 1.245 . S
O381 Mg360 2.038 1_556 S
O381 C362 1.274 . S
C382 O394 1.241 . S
C382 O395 1.280 . S
C383 O396 1.274 1_556 S
C383 O397 1.245 1_556 S
C384 O408 1.247 1_556 S
C384 O410 1.289 1_556 S
Mg385 O386 1.926 . S
Mg385 O395 1.984 . S
Mg385 O397 1.988 . S
Mg385 O398 2.061 1_655 S
O386 Mg385 1.926 . S
O386 Mg387 1.986 . S
O386 Mg388 1.917 1_655 S
Mg387 O386 1.986 . S
Mg387 O394 2.042 . S
Mg387 O396 2.047 . S
Mg387 O402 2.038 . S
Mg387 O410 2.238 . S
Mg388 O386 1.917 1_455 S
Mg388 O389 1.917 . S
Mg388 O399 2.106 . S
Mg388 O401 2.079 1_455 S
Mg388 O410 2.106 1_455 S
Mg388 O411 2.079 . S
O389 Mg388 1.917 . S
O389 Mg390 1.926 . S
O389 Mg391 1.986 . S
Mg390 O389 1.926 . S
Mg390 O404 1.984 . S
Mg390 O407 1.988 . S
Mg390 O408 2.061 1_455 S
Mg391 O389 1.986 . S
Mg391 O399 2.238 . S
Mg391 O403 2.042 . S
Mg391 O405 2.041 . S
Mg391 O412 2.038 . S
C392 O398 1.247 . S
C392 O399 1.289 . S
C393 O411 1.245 . S
C393 O412 1.274 . S
O394 C382 1.241 . S
O394 Mg387 2.042 . S
O395 C382 1.280 . S
O395 Mg385 1.984 . S
O396 C383 1.274 1_554 S
O396 Mg387 2.047 . S
O397 C383 1.245 1_554 S
O397 Mg385 1.988 . S
O398 Mg385 2.061 1_455 S
O398 C392 1.247 . S
O399 Mg388 2.106 . S
O399 Mg391 2.238 . S
O399 C392 1.289 . S
C400 O401 1.245 . S
C400 O402 1.274 . S
O401 Mg388 2.079 1_655 S
O401 C400 1.245 . S
O402 Mg387 2.038 . S
O402 C400 1.274 . S
O403 Mg391 2.042 . S
O403 C406 1.241 . S
O404 Mg390 1.984 . S
O404 C406 1.280 . S
O405 Mg391 2.041 . S
O405 C409 1.277 . S
C406 O403 1.241 . S
C406 O404 1.280 . S
O407 Mg390 1.988 . S
O407 C409 1.245 . S
O408 C384 1.247 1_554 S
O408 Mg390 2.061 1_655 S
C409 O405 1.277 . S
C409 O407 1.245 . S
O410 C384 1.289 1_554 S
O410 Mg387 2.238 . S
O410 Mg388 2.106 1_655 S
O411 Mg388 2.079 . S
O411 C393 1.245 . S
O412 Mg391 2.038 . S
O412 C393 1.274 . S
C413 O425 1.241 . S
C413 O426 1.280 . S
C414 O427 1.277 . S
C414 O428 1.245 . S
C415 O439 1.247 . S
C415 O441 1.289 . S
Mg416 O417 1.926 . S
Mg416 O426 1.984 . S
Mg416 O428 1.988 1_554 S
Mg416 O429 2.061 . S
O417 Mg416 1.926 . S
O417 Mg418 1.986 . S
O417 Mg419 1.917 . S
Mg418 O417 1.986 . S
Mg418 O425 2.042 . S
Mg418 O427 2.041 1_554 S
Mg418 O433 2.038 . S
Mg418 O441 2.238 1_554 S
Mg419 O417 1.917 . S
Mg419 O420 1.917 . S
Mg419 O430 2.106 . S
Mg419 O432 2.079 . S
Mg419 O441 2.106 1_554 S
Mg419 O442 2.079 1_554 S
O420 Mg419 1.917 . S
O420 Mg421 1.926 . S
O420 Mg422 1.986 . S
Mg421 O420 1.926 . S
Mg421 O435 1.984 1_554 S
Mg421 O438 1.988 . S
Mg421 O439 2.061 1_554 S
Mg422 O420 1.986 . S
Mg422 O430 2.238 . S
Mg422 O434 2.042 . S
Mg422 O436 2.041 . S
Mg422 O443 2.048 . S
C423 O429 1.247 . S
C423 O430 1.289 . S
C424 O442 1.245 . S
C424 O443 1.270 1_556 S
O425 C413 1.241 . S
O425 Mg418 2.042 . S
O426 C413 1.280 . S
O426 Mg416 1.984 . S
O427 C414 1.277 . S
O427 Mg418 2.041 1_556 S
O428 C414 1.245 . S
O428 Mg416 1.988 1_556 S
O429 Mg416 2.061 . S
O429 C423 1.247 . S
O430 Mg419 2.106 . S
O430 Mg422 2.238 . S
O430 C423 1.289 . S
C431 O432 1.245 . S
C431 O433 1.274 . S
O432 Mg419 2.079 . S
O432 C431 1.245 . S
O433 Mg418 2.038 . S
O433 C431 1.274 . S
O434 Mg422 2.042 . S
O434 C437 1.241 1_554 S
O435 Mg421 1.984 1_556 S
O435 C437 1.280 . S
O436 Mg422 2.041 . S
O436 C440 1.277 . S
C437 O434 1.241 1_556 S
C437 O435 1.280 . S
O438 Mg421 1.988 . S
O438 C440 1.245 . S
O439 C415 1.247 . S
O439 Mg421 2.061 1_556 S
C440 O436 1.277 . S
C440 O438 1.245 . S
O441 C415 1.289 . S
O441 Mg418 2.238 1_556 S
O441 Mg419 2.106 1_556 S
O442 Mg419 2.079 1_556 S
O442 C424 1.245 . S
O443 Mg422 2.048 . S
O443 C424 1.270 1_554 S
C444 O456 1.241 . S
C444 O457 1.280 . S
C445 O458 1.277 . S
C445 O459 1.245 1_655 S
C446 O470 1.247 . S
C446 O472 1.289 . S
Mg447 O448 1.926 . S
Mg447 O457 1.984 1_455 S
Mg447 O459 1.988 . S
Mg447 O460 2.061 . S
O448 Mg447 1.926 . S
O448 Mg449 1.986 1_455 S
O448 Mg450 1.917 . S
Mg449 O448 1.986 1_655 S
Mg449 O456 2.042 . S
Mg449 O458 2.041 . S
Mg449 O464 2.038 . S
Mg449 O472 2.238 . S
Mg450 O448 1.917 . S
Mg450 O451 1.917 . S
Mg450 O461 2.106 . S
Mg450 O463 2.079 . S
Mg450 O472 2.106 1_455 S
Mg450 O473 2.079 . S
O451 Mg450 1.917 . S
O451 Mg452 1.926 . S
O451 Mg453 1.986 . S
Mg452 O451 1.926 . S
Mg452 O466 1.984 . S
Mg452 O469 1.988 . S
Mg452 O470 2.061 1_455 S
Mg453 O451 1.986 . S
Mg453 O461 2.238 . S
Mg453 O465 2.042 . S
Mg453 O467 2.041 . S
Mg453 O474 2.038 . S
C454 O460 1.247 . S
C454 O461 1.289 . S
C455 O473 1.245 . S
C455 O474 1.274 . S
O456 C444 1.241 . S
O456 Mg449 2.042 . S
O457 C444 1.280 . S
O457 Mg447 1.984 1_655 S
O458 C445 1.277 . S
O458 Mg449 2.041 . S
O459 C445 1.245 1_455 S
O459 Mg447 1.988 . S
O460 Mg447 2.061 . S
O460 C454 1.247 . S
O461 Mg450 2.106 . S
O461 Mg453 2.238 . S
O461 C454 1.289 . S
C462 O463 1.245 1_655 S
C462 O464 1.274 . S
O463 Mg450 2.079 . S
O463 C462 1.245 1_455 S
O464 Mg449 2.038 . S
O464 C462 1.274 . S
O465 Mg453 2.042 . S
O465 C468 1.241 . S
O466 Mg452 1.984 . S
O466 C468 1.280 . S
O467 Mg453 2.041 . S
O467 C471 1.277 . S
C468 O465 1.241 . S
C468 O466 1.280 . S
O469 Mg452 1.988 . S
O469 C471 1.245 . S
O470 C446 1.247 . S
O470 Mg452 2.061 1_655 S
C471 O467 1.277 . S
C471 O469 1.245 . S
O472 C446 1.289 . S
O472 Mg449 2.238 . S
O472 Mg450 2.106 1_655 S
O473 Mg450 2.079 . S
O473 C455 1.245 . S
O474 Mg453 2.038 . S
O474 C455 1.274 . S
C475 O487 1.241 . S
C475 O488 1.280 . S
C476 O489 1.277 . S
C476 O490 1.245 . S
C477 O501 1.247 . S
C477 O503 1.289 . S
Mg478 O479 1.926 . S
Mg478 O488 1.984 . S
Mg478 O490 1.988 . S
Mg478 O491 2.061 . S
O479 Mg478 1.926 . S
O479 Mg480 1.987 . S
O479 Mg481 1.917 . S
Mg480 O479 1.987 . S
Mg480 O487 2.044 . S
Mg480 O489 2.043 . S
Mg480 O495 2.037 1_545 S
Mg480 O503 2.236 1_545 S
Mg481 O479 1.917 . S
Mg481 O482 1.917 1_545 S
Mg481 O492 2.106 . S
Mg481 O494 2.079 1_545 S
Mg481 O503 2.106 1_545 S
Mg481 O504 2.079 . S
O482 Mg481 1.917 1_565 S
O482 Mg483 1.926 . S
O482 Mg484 1.987 1_565 S
Mg483 O482 1.926 . S
Mg483 O497 1.984 . S
Mg483 O500 1.988 . S
Mg483 O501 2.061 . S
Mg484 O482 1.987 1_545 S
Mg484 O492 2.236 . S
Mg484 O496 2.044 1_545 S
Mg484 O498 2.043 1_545 S
Mg484 O505 2.037 . S
C485 O491 1.247 . S
C485 O492 1.289 . S
C486 O504 1.245 . S
C486 O505 1.274 . S
O487 C475 1.241 . S
O487 Mg480 2.044 . S
O488 C475 1.280 . S
O488 Mg478 1.984 . S
O489 C476 1.277 . S
O489 Mg480 2.043 . S
O490 C476 1.245 . S
O490 Mg478 1.988 . S
O491 Mg478 2.061 . S
O491 C485 1.247 . S
O492 Mg481 2.106 . S
O492 Mg484 2.236 . S
O492 C485 1.289 . S
C493 O494 1.245 . S
C493 O495 1.274 . S
O494 Mg481 2.079 1_565 S
O494 C493 1.245 . S
O495 Mg480 2.037 1_565 S
O495 C493 1.274 . S
O496 Mg484 2.044 1_565 S
O496 C499 1.241 . S
O497 Mg483 1.984 . S
O497 C499 1.280 . S
O498 Mg484 2.043 1_565 S
O498 C502 1.277 . S
C499 O496 1.241 . S
C499 O497 1.280 . S
O500 Mg483 1.988 . S
O500 C502 1.245 . S
O501 C477 1.247 . S
O501 Mg483 2.061 . S
C502 O498 1.277 . S
C502 O500 1.245 . S
O503 C477 1.289 . S
O503 Mg480 2.236 1_565 S
O503 Mg481 2.106 1_565 S
O504 Mg481 2.079 . S
O504 C486 1.245 . S
O505 Mg484 2.037 . S
O505 C486 1.274 . S
H506 C512 0.930 . S
H507 C516 0.930 . S
H508 C521 0.929 . S
H509 C519 0.929 . S
H510 C514 0.929 . S
H511 C520 0.929 . S
C512 H506 0.930 . S
C512 C513 1.367 . S
C512 C520 1.378 . S
C513 C512 1.367 . S
C513 C521 1.433 . S
C514 H510 0.929 . S
C514 C516 1.378 . S
C514 C518 1.350 . S
C515 C518 1.463 . S
C515 C520 1.350 . S
C515 N523 1.427 . S
C516 H507 0.930 . S
C516 C514 1.378 . S
C516 C517 1.367 . S
C517 C516 1.367 . S
C517 C519 1.433 . S
C518 C514 1.350 . S
C518 C515 1.463 . S
C518 N522 1.427 . S
C519 H509 0.929 . S
C519 C517 1.433 . S
C519 N522 1.384 . S
C520 H511 0.929 . S
C520 C512 1.378 . S
C520 C515 1.350 . S
C521 H508 0.929 . S
C521 C513 1.433 . S
C521 N523 1.384 . S
N522 C518 1.427 . S
N522 C519 1.384 . S
N523 C515 1.427 . S
N523 C521 1.384 . S
H524 C530 0.930 . S
H525 C534 0.930 . S
H526 C539 0.929 . S
H527 C537 0.929 . S
H528 C532 0.929 . S
H529 C538 0.929 . S
C530 H524 0.930 . S
C530 C531 1.367 . S
C530 C538 1.378 . S
C531 C530 1.367 . S
C531 C539 1.433 . S
C532 H528 0.929 . S
C532 C534 1.378 . S
C532 C536 1.350 . S
C533 C536 1.463 . S
C533 C538 1.350 . S
C533 N541 1.427 . S
C534 H525 0.930 . S
C534 C532 1.378 . S
C534 C535 1.367 . S
C535 C534 1.367 . S
C535 C537 1.433 . S
C536 C532 1.350 . S
C536 C533 1.463 . S
C536 N540 1.427 . S
C537 H527 0.929 . S
C537 C535 1.433 . S
C537 N540 1.384 . S
C538 H529 0.929 . S
C538 C530 1.378 . S
C538 C533 1.350 . S
C539 H526 0.929 . S
C539 C531 1.433 . S
C539 N541 1.384 . S
N540 C536 1.427 . S
N540 C537 1.384 . S
N541 C533 1.427 . S
N541 C539 1.384 . S
H542 C548 0.930 . S
H543 C552 0.930 . S
H544 C557 0.929 . S
H545 C555 0.929 . S
H546 C550 0.929 . S
H547 C556 0.929 . S
C548 H542 0.930 . S
C548 C549 1.367 . S
C548 C556 1.378 . S
C549 C548 1.367 . S
C549 C557 1.433 . S
C550 H546 0.929 . S
C550 C552 1.378 . S
C550 C554 1.350 . S
C551 C554 1.463 . S
C551 C556 1.350 . S
C551 N559 1.427 . S
C552 H543 0.930 . S
C552 C550 1.378 . S
C552 C553 1.367 . S
C553 C552 1.367 . S
C553 C555 1.433 . S
C554 C550 1.350 . S
C554 C551 1.463 . S
C554 N558 1.427 . S
C555 H545 0.929 . S
C555 C553 1.433 . S
C555 N558 1.384 . S
C556 H547 0.929 . S
C556 C548 1.378 . S
C556 C551 1.350 . S
C557 H544 0.929 . S
C557 C549 1.433 . S
C557 N559 1.384 . S
N558 C554 1.427 . S
N558 C555 1.384 . S
N559 C551 1.427 . S
N559 C557 1.384 . S
H560 C566 0.930 . S
H561 C570 0.930 . S
H562 C575 0.929 . S
H563 C573 0.929 . S
H564 C568 0.929 . S
H565 C574 0.929 . S
C566 H560 0.930 . S
C566 C567 1.367 . S
C566 C574 1.378 . S
C567 C566 1.367 . S
C567 C575 1.433 . S
C568 H564 0.929 . S
C568 C570 1.378 . S
C568 C572 1.350 . S
C569 C572 1.463 . S
C569 C574 1.350 . S
C569 N577 1.427 . S
C570 H561 0.930 . S
C570 C568 1.378 . S
C570 C571 1.367 . S
C571 C570 1.367 . S
C571 C573 1.433 . S
C572 C568 1.350 . S
C572 C569 1.463 . S
C572 N576 1.427 . S
C573 H563 0.929 . S
C573 C571 1.433 . S
C573 N576 1.384 . S
C574 H565 0.929 . S
C574 C566 1.378 . S
C574 C569 1.350 . S
C575 H562 0.929 . S
C575 C567 1.433 . S
C575 N577 1.384 . S
N576 C572 1.427 . S
N576 C573 1.384 . S
N577 C569 1.427 . S
N577 C575 1.384 . S
H578 C584 0.930 . S
H579 C588 0.930 . S
H580 C593 0.929 . S
H581 C591 0.929 . S
H582 C586 0.929 . S
H583 C592 0.929 . S
C584 H578 0.930 . S
C584 C585 1.367 . S
C584 C592 1.378 . S
C585 C584 1.367 . S
C585 C593 1.433 . S
C586 H582 0.929 . S
C586 C588 1.378 . S
C586 C590 1.350 . S
C587 C590 1.463 . S
C587 C592 1.350 . S
C587 N595 1.427 . S
C588 H579 0.930 . S
C588 C586 1.378 . S
C588 C589 1.367 . S
C589 C588 1.367 . S
C589 C591 1.433 . S
C590 C586 1.350 . S
C590 C587 1.463 . S
C590 N594 1.427 . S
C591 H581 0.929 . S
C591 C589 1.433 . S
C591 N594 1.384 . S
C592 H583 0.929 . S
C592 C584 1.378 . S
C592 C587 1.350 . S
C593 H580 0.929 . S
C593 C585 1.433 . S
C593 N595 1.384 . S
N594 C590 1.427 . S
N594 C591 1.384 . S
N595 C587 1.427 . S
N595 C593 1.384 . S
H596 C602 0.930 . S
H597 C606 0.930 . S
H598 C611 0.929 . S
H599 C609 0.929 . S
H600 C604 0.929 . S
H601 C610 0.929 . S
C602 H596 0.930 . S
C602 C603 1.367 . S
C602 C610 1.378 . S
C603 C602 1.367 . S
C603 C611 1.433 . S
C604 H600 0.929 . S
C604 C606 1.378 . S
C604 C608 1.350 . S
C605 C608 1.463 . S
C605 C610 1.350 . S
C605 N613 1.427 . S
C606 H597 0.930 . S
C606 C604 1.378 . S
C606 C607 1.367 . S
C607 C606 1.367 . S
C607 C609 1.433 . S
C608 C604 1.350 . S
C608 C605 1.463 . S
C608 N612 1.427 . S
C609 H599 0.929 . S
C609 C607 1.433 . S
C609 N612 1.384 . S
C610 H601 0.929 . S
C610 C602 1.378 . S
C610 C605 1.350 . S
C611 H598 0.929 . S
C611 C603 1.433 . S
C611 N613 1.384 . S
N612 C608 1.427 . S
N612 C609 1.384 . S
N613 C605 1.427 . S
N613 C611 1.384 . S
H614 C620 0.930 . S
H615 C624 0.930 . S
H616 C629 0.929 . S
H617 C627 0.929 . S
H618 C622 0.929 . S
H619 C628 0.929 . S
C620 H614 0.930 . S
C620 C621 1.367 . S
C620 C628 1.378 . S
C621 C620 1.367 . S
C621 C629 1.433 . S
C622 H618 0.929 . S
C622 C624 1.378 . S
C622 C626 1.350 . S
C623 C626 1.463 . S
C623 C628 1.350 . S
C623 N631 1.427 . S
C624 H615 0.930 . S
C624 C622 1.378 . S
C624 C625 1.367 . S
C625 C624 1.367 . S
C625 C627 1.433 . S
C626 C622 1.350 . S
C626 C623 1.463 . S
C626 N630 1.427 . S
C627 H617 0.929 . S
C627 C625 1.433 . S
C627 N630 1.384 . S
C628 H619 0.929 . S
C628 C620 1.378 . S
C628 C623 1.350 . S
C629 H616 0.929 . S
C629 C621 1.433 . S
C629 N631 1.384 . S
N630 C626 1.427 . S
N630 C627 1.384 . S
N631 C623 1.427 . S
N631 C629 1.384 . S
H632 C638 0.930 . S
H633 C642 0.930 . S
H634 C647 0.929 . S
H635 C645 0.929 . S
H636 C640 0.929 . S
H637 C646 0.929 . S
C638 H632 0.930 . S
C638 C639 1.367 . S
C638 C646 1.378 . S
C639 C638 1.367 . S
C639 C647 1.433 . S
C640 H636 0.929 . S
C640 C642 1.378 . S
C640 C644 1.350 . S
C641 C644 1.463 . S
C641 C646 1.350 . S
C641 N649 1.427 . S
C642 H633 0.930 . S
C642 C640 1.378 . S
C642 C643 1.367 . S
C643 C642 1.367 . S
C643 C645 1.433 . S
C644 C640 1.350 . S
C644 C641 1.463 . S
C644 N648 1.427 . S
C645 H635 0.929 . S
C645 C643 1.433 . S
C645 N648 1.384 . S
C646 H637 0.929 . S
C646 C638 1.378 . S
C646 C641 1.350 . S
C647 H634 0.929 . S
C647 C639 1.433 . S
C647 N649 1.384 . S
N648 C644 1.427 . S
N648 C645 1.384 . S
N649 C641 1.427 . S
N649 C647 1.384 . S
H650 C656 0.930 . S
H651 C660 0.930 . S
H652 C665 0.929 . S
H653 C663 0.929 . S
H654 C658 0.929 . S
H655 C664 0.929 . S
C656 H650 0.930 . S
C656 C657 1.367 . S
C656 C664 1.378 . S
C657 C656 1.367 . S
C657 C665 1.433 . S
C658 H654 0.929 . S
C658 C660 1.378 . S
C658 C662 1.350 . S
C659 C662 1.463 . S
C659 C664 1.350 . S
C659 N667 1.427 . S
C660 H651 0.930 . S
C660 C658 1.378 . S
C660 C661 1.367 . S
C661 C660 1.367 . S
C661 C663 1.433 . S
C662 C658 1.350 . S
C662 C659 1.463 . S
C662 N666 1.427 . S
C663 H653 0.929 . S
C663 C661 1.433 . S
C663 N666 1.384 . S
C664 H655 0.929 . S
C664 C656 1.378 . S
C664 C659 1.350 . S
C665 H652 0.929 . S
C665 C657 1.433 . S
C665 N667 1.384 . S
N666 C662 1.427 . S
N666 C663 1.384 . S
N667 C659 1.427 . S
N667 C665 1.384 . S
H668 C674 0.930 . S
H669 C678 0.930 . S
H670 C683 0.929 . S
H671 C681 0.929 . S
H672 C676 0.929 . S
H673 C682 0.929 . S
C674 H668 0.930 . S
C674 C675 1.367 . S
C674 C682 1.378 . S
C675 C674 1.367 . S
C675 C683 1.433 . S
C676 H672 0.929 . S
C676 C678 1.378 . S
C676 C680 1.350 . S
C677 C680 1.463 . S
C677 C682 1.350 . S
C677 N685 1.427 . S
C678 H669 0.930 . S
C678 C676 1.378 . S
C678 C679 1.367 . S
C679 C678 1.367 . S
C679 C681 1.433 . S
C680 C676 1.350 . S
C680 C677 1.463 . S
C680 N684 1.427 . S
C681 H671 0.929 . S
C681 C679 1.433 . S
C681 N684 1.384 . S
C682 H673 0.929 . S
C682 C674 1.378 . S
C682 C677 1.350 . S
C683 H670 0.929 . S
C683 C675 1.433 . S
C683 N685 1.384 . S
N684 C680 1.427 . S
N684 C681 1.384 . S
N685 C677 1.427 . S
N685 C683 1.384 . S
H686 C692 0.930 . S
H687 C696 0.930 1_545 S
H688 C701 0.929 . S
H689 C699 0.929 . S
H690 C694 0.929 . S
H691 C700 0.929 . S
C692 H686 0.930 . S
C692 C693 1.367 . S
C692 C700 1.378 . S
C693 C692 1.367 . S
C693 C701 1.433 . S
C694 H690 0.929 . S
C694 C696 1.378 . S
C694 C698 1.350 . S
C695 C698 1.463 . S
C695 C700 1.350 . S
C695 N703 1.427 . S
C696 H687 0.930 1_565 S
C696 C694 1.378 . S
C696 C697 1.367 . S
C697 C696 1.367 . S
C697 C699 1.433 . S
C698 C694 1.350 . S
C698 C695 1.463 . S
C698 N702 1.427 . S
C699 H689 0.929 . S
C699 C697 1.433 . S
C699 N702 1.384 . S
C700 H691 0.929 . S
C700 C692 1.378 . S
C700 C695 1.350 . S
C701 H688 0.929 . S
C701 C693 1.433 . S
C701 N703 1.384 . S
N702 C698 1.427 . S
N702 C699 1.384 . S
N703 C695 1.427 . S
N703 C701 1.384 . S
H704 C710 0.930 . S
H705 C714 0.930 . S
H706 C719 0.929 . S
H707 C717 0.929 . S
H708 C712 0.929 . S
H709 C718 0.929 . S
C710 H704 0.930 . S
C710 C711 1.367 . S
C710 C718 1.378 . S
C711 C710 1.367 . S
C711 C719 1.433 . S
C712 H708 0.929 . S
C712 C714 1.378 . S
C712 C716 1.350 . S
C713 C716 1.463 . S
C713 C718 1.350 . S
C713 N721 1.427 . S
C714 H705 0.930 . S
C714 C712 1.378 . S
C714 C715 1.367 . S
C715 C714 1.367 . S
C715 C717 1.433 . S
C716 C712 1.350 . S
C716 C713 1.463 . S
C716 N720 1.427 . S
C717 H707 0.929 . S
C717 C715 1.433 . S
C717 N720 1.384 . S
C718 H709 0.929 . S
C718 C710 1.378 . S
C718 C713 1.350 . S
C719 H706 0.929 . S
C719 C711 1.433 . S
C719 N721 1.384 . S
N720 C716 1.427 . S
N720 C717 1.384 . S
N721 C713 1.427 . S
N721 C719 1.384 . S
H722 C728 0.930 . S
H723 C732 0.930 . S
H724 C737 0.929 . S
H725 C735 0.929 . S
H726 C730 0.929 . S
H727 C736 0.929 . S
C728 H722 0.930 . S
C728 C729 1.367 . S
C728 C736 1.378 . S
C729 C728 1.367 . S
C729 C737 1.433 . S
C730 H726 0.929 . S
C730 C732 1.378 . S
C730 C734 1.350 . S
C731 C734 1.463 . S
C731 C736 1.350 . S
C731 N739 1.427 . S
C732 H723 0.930 . S
C732 C730 1.378 . S
C732 C733 1.367 . S
C733 C732 1.367 . S
C733 C735 1.433 . S
C734 C730 1.350 . S
C734 C731 1.463 . S
C734 N738 1.427 . S
C735 H725 0.929 . S
C735 C733 1.433 . S
C735 N738 1.384 . S
C736 H727 0.929 . S
C736 C728 1.378 . S
C736 C731 1.350 . S
C737 H724 0.929 . S
C737 C729 1.433 . S
C737 N739 1.384 . S
N738 C734 1.427 . S
N738 C735 1.384 . S
N739 C731 1.427 . S
N739 C737 1.384 . S
H740 C746 0.930 . S
H741 C750 0.930 1_554 S
H742 C755 0.929 . S
H743 C753 0.929 . S
H744 C748 0.929 . S
H745 C754 0.929 . S
C746 H740 0.930 . S
C746 C747 1.367 . S
C746 C754 1.378 . S
C747 C746 1.367 . S
C747 C755 1.433 . S
C748 H744 0.929 . S
C748 C750 1.378 . S
C748 C752 1.350 . S
C749 C752 1.463 . S
C749 C754 1.350 . S
C749 N757 1.427 . S
C750 H741 0.930 1_556 S
C750 C748 1.378 . S
C750 C751 1.367 . S
C751 C750 1.367 . S
C751 C753 1.433 . S
C752 C748 1.350 . S
C752 C749 1.463 . S
C752 N756 1.427 . S
C753 H743 0.929 . S
C753 C751 1.433 . S
C753 N756 1.384 . S
C754 H745 0.929 . S
C754 C746 1.378 . S
C754 C749 1.350 . S
C755 H742 0.929 . S
C755 C747 1.433 . S
C755 N757 1.384 . S
N756 C752 1.427 . S
N756 C753 1.384 . S
N757 C749 1.427 . S
N757 C755 1.384 . S
H758 C764 0.930 . S
H759 C768 0.930 . S
H760 C773 0.929 . S
H761 C771 0.929 . S
H762 C766 0.929 . S
H763 C772 0.929 . S
C764 H758 0.930 . S
C764 C765 1.367 . S
C764 C772 1.378 . S
C765 C764 1.367 . S
C765 C773 1.433 . S
C766 H762 0.929 . S
C766 C768 1.378 . S
C766 C770 1.350 . S
C767 C770 1.463 . S
C767 C772 1.350 . S
C767 N775 1.427 . S
C768 H759 0.930 . S
C768 C766 1.378 . S
C768 C769 1.367 . S
C769 C768 1.367 . S
C769 C771 1.433 . S
C770 C766 1.350 . S
C770 C767 1.463 . S
C770 N774 1.427 . S
C771 H761 0.929 . S
C771 C769 1.433 . S
C771 N774 1.384 . S
C772 H763 0.929 . S
C772 C764 1.378 . S
C772 C767 1.350 . S
C773 H760 0.929 . S
C773 C765 1.433 . S
C773 N775 1.384 . S
N774 C770 1.427 . S
N774 C771 1.384 . S
N775 C767 1.427 . S
N775 C773 1.384 . S
H776 C782 0.930 . S
H777 C786 0.930 . S
H778 C791 0.929 . S
H779 C789 0.929 . S
H780 C784 0.929 . S
H781 C790 0.929 . S
C782 H776 0.930 . S
C782 C783 1.367 . S
C782 C790 1.378 . S
C783 C782 1.367 . S
C783 C791 1.433 . S
C784 H780 0.929 . S
C784 C786 1.378 . S
C784 C788 1.350 . S
C785 C788 1.463 . S
C785 C790 1.350 . S
C785 N793 1.427 . S
C786 H777 0.930 . S
C786 C784 1.378 . S
C786 C787 1.367 . S
C787 C786 1.367 . S
C787 C789 1.433 . S
C788 C784 1.350 . S
C788 C785 1.463 . S
C788 N792 1.427 . S
C789 H779 0.929 . S
C789 C787 1.433 . S
C789 N792 1.384 . S
C790 H781 0.929 . S
C790 C782 1.378 . S
C790 C785 1.350 . S
C791 H778 0.929 . S
C791 C783 1.433 . S
C791 N793 1.384 . S
N792 C788 1.427 . S
N792 C789 1.384 . S
N793 C785 1.427 . S
N793 C791 1.384 . S
H794 C800 0.930 . S
H795 C804 0.930 . S
H796 C809 0.929 . S
H797 C807 0.929 . S
H798 C802 0.929 . S
H799 C808 0.929 . S
C800 H794 0.930 . S
C800 C801 1.367 . S
C800 C808 1.378 . S
C801 C800 1.367 . S
C801 C809 1.433 . S
C802 H798 0.929 . S
C802 C804 1.378 . S
C802 C806 1.350 . S
C803 C806 1.463 . S
C803 C808 1.350 . S
C803 N811 1.427 . S
C804 H795 0.930 . S
C804 C802 1.378 . S
C804 C805 1.367 . S
C805 C804 1.367 . S
C805 C807 1.433 . S
C806 C802 1.350 . S
C806 C803 1.463 . S
C806 N810 1.427 . S
C807 H797 0.929 . S
C807 C805 1.433 . S
C807 N810 1.384 . S
C808 H799 0.929 . S
C808 C800 1.378 . S
C808 C803 1.350 . S
C809 H796 0.929 . S
C809 C801 1.433 . S
C809 N811 1.384 . S
N810 C806 1.427 . S
N810 C807 1.384 . S
N811 C803 1.427 . S
N811 C809 1.384 . S
H812 C818 0.930 . S
H813 C822 0.930 . S
H814 C827 0.929 . S
H815 C825 0.929 . S
H816 C820 0.929 . S
H817 C826 0.929 . S
C818 H812 0.930 . S
C818 C819 1.367 . S
C818 C826 1.378 . S
C819 C818 1.367 . S
C819 C827 1.433 . S
C820 H816 0.929 . S
C820 C822 1.378 . S
C820 C824 1.350 . S
C821 C824 1.463 . S
C821 C826 1.350 . S
C821 N829 1.427 . S
C822 H813 0.930 . S
C822 C820 1.378 . S
C822 C823 1.367 . S
C823 C822 1.367 . S
C823 C825 1.433 . S
C824 C820 1.350 . S
C824 C821 1.463 . S
C824 N828 1.427 . S
C825 H815 0.929 . S
C825 C823 1.433 . S
C825 N828 1.384 . S
C826 H817 0.929 . S
C826 C818 1.378 . S
C826 C821 1.350 . S
C827 H814 0.929 . S
C827 C819 1.433 . S
C827 N829 1.384 . S
N828 C824 1.427 . S
N828 C825 1.384 . S
N829 C821 1.427 . S
N829 C827 1.384 . S
H830 C836 0.930 . S
H831 C840 0.930 . S
H832 C845 0.929 . S
H833 C843 0.929 . S
H834 C838 0.929 . S
H835 C844 0.929 . S
C836 H830 0.930 . S
C836 C837 1.367 . S
C836 C844 1.378 . S
C837 C836 1.367 . S
C837 C845 1.433 . S
C838 H834 0.929 . S
C838 C840 1.378 . S
C838 C842 1.350 . S
C839 C842 1.463 . S
C839 C844 1.350 . S
C839 N847 1.427 . S
C840 H831 0.930 . S
C840 C838 1.378 . S
C840 C841 1.367 . S
C841 C840 1.367 . S
C841 C843 1.433 . S
C842 C838 1.350 . S
C842 C839 1.463 . S
C842 N846 1.427 . S
C843 H833 0.929 . S
C843 C841 1.433 . S
C843 N846 1.384 . S
C844 H835 0.929 . S
C844 C836 1.378 . S
C844 C839 1.350 . S
C845 H832 0.929 . S
C845 C837 1.433 . S
C845 N847 1.384 . S
N846 C842 1.427 . S
N846 C843 1.384 . S
N847 C839 1.427 . S
N847 C845 1.384 . S
H848 C854 0.930 . S
H849 C858 0.930 . S
H850 C863 0.929 . S
H851 C861 0.929 . S
H852 C856 0.929 . S
H853 C862 0.929 . S
C854 H848 0.930 . S
C854 C855 1.367 . S
C854 C862 1.378 . S
C855 C854 1.367 . S
C855 C863 1.433 . S
C856 H852 0.929 . S
C856 C858 1.378 . S
C856 C860 1.350 . S
C857 C860 1.463 . S
C857 C862 1.350 . S
C857 N865 1.427 . S
C858 H849 0.930 . S
C858 C856 1.378 . S
C858 C859 1.367 . S
C859 C858 1.367 . S
C859 C861 1.433 . S
C860 C856 1.350 . S
C860 C857 1.463 . S
C860 N864 1.427 . S
C861 H851 0.929 . S
C861 C859 1.433 . S
C861 N864 1.384 . S
C862 H853 0.929 . S
C862 C854 1.378 . S
C862 C857 1.350 . S
C863 H850 0.929 . S
C863 C855 1.433 . S
C863 N865 1.384 . S
N864 C860 1.427 . S
N864 C861 1.384 . S
N865 C857 1.427 . S
N865 C863 1.384 . S
H866 C872 0.930 . S
H867 C876 0.930 1_545 S
H868 C881 0.929 . S
H869 C879 0.929 . S
H870 C874 0.929 . S
H871 C880 0.929 . S
C872 H866 0.930 . S
C872 C873 1.367 . S
C872 C880 1.378 . S
C873 C872 1.367 . S
C873 C881 1.433 . S
C874 H870 0.929 . S
C874 C876 1.378 . S
C874 C878 1.350 . S
C875 C878 1.463 . S
C875 C880 1.350 . S
C875 N883 1.427 . S
C876 H867 0.930 1_565 S
C876 C874 1.378 . S
C876 C877 1.367 . S
C877 C876 1.367 . S
C877 C879 1.433 . S
C878 C874 1.350 . S
C878 C875 1.463 . S
C878 N882 1.427 . S
C879 H869 0.929 . S
C879 C877 1.433 . S
C879 N882 1.384 . S
C880 H871 0.929 . S
C880 C872 1.378 . S
C880 C875 1.350 . S
C881 H868 0.929 . S
C881 C873 1.433 . S
C881 N883 1.384 . S
N882 C878 1.427 . S
N882 C879 1.384 . S
N883 C875 1.427 . S
N883 C881 1.384 . S
H884 C890 0.930 . S
H885 C894 0.930 . S
H886 C899 0.929 . S
H887 C897 0.929 . S
H888 C892 0.929 . S
H889 C898 0.929 . S
C890 H884 0.930 . S
C890 C891 1.367 . S
C890 C898 1.378 . S
C891 C890 1.367 . S
C891 C899 1.433 . S
C892 H888 0.929 . S
C892 C894 1.378 . S
C892 C896 1.350 . S
C893 C896 1.463 . S
C893 C898 1.350 . S
C893 N901 1.427 . S
C894 H885 0.930 . S
C894 C892 1.378 . S
C894 C895 1.367 . S
C895 C894 1.367 . S
C895 C897 1.433 . S
C896 C892 1.350 . S
C896 C893 1.463 . S
C896 N900 1.427 . S
C897 H887 0.929 . S
C897 C895 1.433 . S
C897 N900 1.384 . S
C898 H889 0.929 . S
C898 C890 1.378 . S
C898 C893 1.350 . S
C899 H886 0.929 . S
C899 C891 1.433 . S
C899 N901 1.384 . S
N900 C896 1.427 . S
N900 C897 1.384 . S
N901 C893 1.427 . S
N901 C899 1.384 . S
H902 C908 0.930 . S
H903 C912 0.930 . S
H904 C917 0.929 . S
H905 C915 0.929 . S
H906 C910 0.929 . S
H907 C916 0.929 . S
C908 H902 0.930 . S
C908 C909 1.367 . S
C908 C916 1.378 . S
C909 C908 1.367 . S
C909 C917 1.433 . S
C910 H906 0.929 . S
C910 C912 1.378 . S
C910 C914 1.350 . S
C911 C914 1.463 . S
C911 C916 1.350 . S
C911 N919 1.427 . S
C912 H903 0.930 . S
C912 C910 1.378 . S
C912 C913 1.367 . S
C913 C912 1.367 . S
C913 C915 1.433 . S
C914 C910 1.350 . S
C914 C911 1.463 . S
C914 N918 1.427 . S
C915 H905 0.929 . S
C915 C913 1.433 . S
C915 N918 1.384 . S
C916 H907 0.929 . S
C916 C908 1.378 . S
C916 C911 1.350 . S
C917 H904 0.929 . S
C917 C909 1.433 . S
C917 N919 1.384 . S
N918 C914 1.427 . S
N918 C915 1.384 . S
N919 C911 1.427 . S
N919 C917 1.384 . S
H920 C926 0.930 . S
H921 C930 0.930 . S
H922 C935 0.929 . S
H923 C933 0.929 . S
H924 C928 0.929 . S
H925 C934 0.929 . S
C926 H920 0.930 . S
C926 C927 1.367 . S
C926 C934 1.378 . S
C927 C926 1.367 . S
C927 C935 1.433 . S
C928 H924 0.929 . S
C928 C930 1.378 . S
C928 C932 1.350 . S
C929 C932 1.463 . S
C929 C934 1.350 . S
C929 N937 1.427 . S
C930 H921 0.930 . S
C930 C928 1.378 . S
C930 C931 1.367 . S
C931 C930 1.367 . S
C931 C933 1.433 . S
C932 C928 1.350 . S
C932 C929 1.463 . S
C932 N936 1.427 . S
C933 H923 0.929 . S
C933 C931 1.433 . S
C933 N936 1.384 . S
C934 H925 0.929 . S
C934 C926 1.378 . S
C934 C929 1.350 . S
C935 H922 0.929 . S
C935 C927 1.433 . S
C935 N937 1.384 . S
N936 C932 1.427 . S
N936 C933 1.384 . S
N937 C929 1.427 . S
N937 C935 1.384 . S
H938 C944 0.930 . S
H939 C948 0.930 . S
H940 C953 0.929 . S
H941 C951 0.929 . S
H942 C946 0.929 . S
H943 C952 0.929 . S
C944 H938 0.930 . S
C944 C945 1.367 . S
C944 C952 1.378 . S
C945 C944 1.367 . S
C945 C953 1.433 . S
C946 H942 0.929 . S
C946 C948 1.378 . S
C946 C950 1.350 . S
C947 C950 1.463 . S
C947 C952 1.350 . S
C947 N955 1.427 . S
C948 H939 0.930 . S
C948 C946 1.378 . S
C948 C949 1.367 . S
C949 C948 1.367 . S
C949 C951 1.433 . S
C950 C946 1.350 . S
C950 C947 1.463 . S
C950 N954 1.427 . S
C951 H941 0.929 . S
C951 C949 1.433 . S
C951 N954 1.384 . S
C952 H943 0.929 . S
C952 C944 1.378 . S
C952 C947 1.350 . S
C953 H940 0.929 . S
C953 C945 1.433 . S
C953 N955 1.384 . S
N954 C950 1.427 . S
N954 C951 1.384 . S
N955 C947 1.427 . S
N955 C953 1.384 . S
H956 C962 0.930 . S
H957 C966 0.930 . S
H958 C971 0.929 . S
H959 C969 0.929 . S
H960 C964 0.929 . S
H961 C970 0.929 . S
C962 H956 0.930 . S
C962 C963 1.367 . S
C962 C970 1.378 . S
C963 C962 1.367 . S
C963 C971 1.433 . S
C964 H960 0.929 . S
C964 C966 1.378 . S
C964 C968 1.350 . S
C965 C968 1.463 . S
C965 C970 1.350 . S
C965 N973 1.427 . S
C966 H957 0.930 . S
C966 C964 1.378 . S
C966 C967 1.367 . S
C967 C966 1.367 . S
C967 C969 1.433 . S
C968 C964 1.350 . S
C968 C965 1.463 . S
C968 N972 1.427 . S
C969 H959 0.929 . S
C969 C967 1.433 . S
C969 N972 1.384 . S
C970 H961 0.929 . S
C970 C962 1.378 . S
C970 C965 1.350 . S
C971 H958 0.929 . S
C971 C963 1.433 . S
C971 N973 1.384 . S
N972 C968 1.427 . S
N972 C969 1.384 . S
N973 C965 1.427 . S
N973 C971 1.384 . S
H974 C980 0.930 . S
H975 C984 0.930 . S
H976 C989 0.929 . S
H977 C987 0.929 . S
H978 C982 0.929 . S
H979 C988 0.929 . S
C980 H974 0.930 . S
C980 C981 1.367 . S
C980 C988 1.378 . S
C981 C980 1.367 . S
C981 C989 1.433 . S
C982 H978 0.929 . S
C982 C984 1.378 . S
C982 C986 1.350 . S
C983 C986 1.463 . S
C983 C988 1.350 . S
C983 N991 1.427 . S
C984 H975 0.930 . S
C984 C982 1.378 . S
C984 C985 1.367 . S
C985 C984 1.367 . S
C985 C987 1.433 . S
C986 C982 1.350 . S
C986 C983 1.463 . S
C986 N990 1.427 . S
C987 H977 0.929 . S
C987 C985 1.433 . S
C987 N990 1.384 . S
C988 H979 0.929 . S
C988 C980 1.378 . S
C988 C983 1.350 . S
C989 H976 0.929 . S
C989 C981 1.433 . S
C989 N991 1.384 . S
N990 C986 1.427 . S
N990 C987 1.384 . S
N991 C983 1.427 . S
N991 C989 1.384 . S
H992 C998 0.930 . S
H993 C1002 0.930 . S
H994 C1007 0.929 . S
H995 C1005 0.915 1_554 S
H996 C1000 0.929 . S
H997 C1006 0.929 . S
C998 H992 0.930 . S
C998 C999 1.367 . S
C998 C1006 1.378 . S
C999 C998 1.367 . S
C999 C1007 1.433 . S
C1000 H996 0.929 . S
C1000 C1002 1.378 . S
C1000 C1004 1.350 . S
C1001 C1004 1.463 . S
C1001 C1006 1.350 . S
C1001 N1009 1.427 . S
C1002 H993 0.930 . S
C1002 C1000 1.378 . S
C1002 C1003 1.367 . S
C1003 C1002 1.367 . S
C1003 C1005 1.433 . S
C1004 C1000 1.350 . S
C1004 C1001 1.463 . S
C1004 N1008 1.427 . S
C1005 H995 0.915 1_556 S
C1005 C1003 1.433 . S
C1005 N1008 1.384 . S
C1006 H997 0.929 . S
C1006 C998 1.378 . S
C1006 C1001 1.350 . S
C1007 H994 0.929 . S
C1007 C999 1.433 . S
C1007 N1009 1.384 . S
N1008 C1004 1.427 . S
N1008 C1005 1.384 . S
N1009 C1001 1.427 . S
N1009 C1007 1.384 . S
H1010 C1016 0.930 . S
H1011 C1020 0.930 . S
H1012 C1025 0.929 . S
H1013 C1023 0.929 . S
H1014 C1018 0.929 . S
H1015 C1024 0.929 . S
C1016 H1010 0.930 . S
C1016 C1017 1.367 . S
C1016 C1024 1.378 . S
C1017 C1016 1.367 . S
C1017 C1025 1.433 . S
C1018 H1014 0.929 . S
C1018 C1020 1.378 . S
C1018 C1022 1.350 . S
C1019 C1022 1.463 . S
C1019 C1024 1.350 . S
C1019 N1027 1.427 . S
C1020 H1011 0.930 . S
C1020 C1018 1.378 . S
C1020 C1021 1.367 . S
C1021 C1020 1.367 . S
C1021 C1023 1.433 . S
C1022 C1018 1.350 . S
C1022 C1019 1.463 . S
C1022 N1026 1.427 . S
C1023 H1013 0.929 . S
C1023 C1021 1.433 . S
C1023 N1026 1.384 . S
C1024 H1015 0.929 . S
C1024 C1016 1.378 . S
C1024 C1019 1.350 . S
C1025 H1012 0.929 . S
C1025 C1017 1.433 . S
C1025 N1027 1.384 . S
N1026 C1022 1.427 . S
N1026 C1023 1.384 . S
N1027 C1019 1.427 . S
N1027 C1025 1.384 . S
H1028 C1034 0.930 . S
H1029 C1038 0.930 . S
H1030 C1043 0.929 . S
H1031 C1041 0.929 . S
H1032 C1036 0.929 . S
H1033 C1042 0.929 . S
C1034 H1028 0.930 . S
C1034 C1035 1.367 . S
C1034 C1042 1.378 . S
C1035 C1034 1.367 . S
C1035 C1043 1.433 . S
C1036 H1032 0.929 . S
C1036 C1038 1.378 . S
C1036 C1040 1.350 . S
C1037 C1040 1.463 . S
C1037 C1042 1.350 . S
C1037 N1045 1.427 . S
C1038 H1029 0.930 . S
C1038 C1036 1.378 . S
C1038 C1039 1.367 . S
C1039 C1038 1.367 . S
C1039 C1041 1.433 . S
C1040 C1036 1.350 . S
C1040 C1037 1.463 . S
C1040 N1044 1.427 . S
C1041 H1031 0.929 . S
C1041 C1039 1.433 . S
C1041 N1044 1.384 . S
C1042 H1033 0.929 . S
C1042 C1034 1.378 . S
C1042 C1037 1.350 . S
C1043 H1030 0.929 . S
C1043 C1035 1.433 . S
C1043 N1045 1.384 . S
N1044 C1040 1.427 . S
N1044 C1041 1.384 . S
N1045 C1037 1.427 . S
N1045 C1043 1.384 . S
H1046 C1052 0.930 . S
H1047 C1056 0.930 . S
H1048 C1061 0.929 . S
H1049 C1059 0.929 . S
H1050 C1054 0.929 . S
H1051 C1060 0.929 . S
C1052 H1046 0.930 . S
C1052 C1053 1.367 . S
C1052 C1060 1.378 . S
C1053 C1052 1.367 . S
C1053 C1061 1.433 . S
C1054 H1050 0.929 . S
C1054 C1056 1.378 . S
C1054 C1058 1.350 . S
C1055 C1058 1.463 . S
C1055 C1060 1.350 . S
C1055 N1063 1.427 . S
C1056 H1047 0.930 . S
C1056 C1054 1.378 . S
C1056 C1057 1.367 . S
C1057 C1056 1.367 . S
C1057 C1059 1.433 . S
C1058 C1054 1.350 . S
C1058 C1055 1.463 . S
C1058 N1062 1.427 . S
C1059 H1049 0.929 . S
C1059 C1057 1.433 . S
C1059 N1062 1.384 . S
C1060 H1051 0.929 . S
C1060 C1052 1.378 . S
C1060 C1055 1.350 . S
C1061 H1048 0.929 . S
C1061 C1053 1.433 . S
C1061 N1063 1.384 . S
N1062 C1058 1.427 . S
N1062 C1059 1.384 . S
N1063 C1055 1.427 . S
N1063 C1061 1.384 . S
H1064 C1070 0.930 . S
H1065 C1074 0.930 . S
H1066 C1079 0.929 . S
H1067 C1077 0.929 . S
H1068 C1072 0.929 . S
H1069 C1078 0.929 . S
C1070 H1064 0.930 . S
C1070 C1071 1.367 . S
C1070 C1078 1.378 . S
C1071 C1070 1.367 . S
C1071 C1079 1.433 . S
C1072 H1068 0.929 . S
C1072 C1074 1.378 . S
C1072 C1076 1.350 . S
C1073 C1076 1.463 . S
C1073 C1078 1.350 . S
C1073 N1081 1.427 . S
C1074 H1065 0.930 . S
C1074 C1072 1.378 . S
C1074 C1075 1.367 . S
C1075 C1074 1.367 . S
C1075 C1077 1.433 . S
C1076 C1072 1.350 . S
C1076 C1073 1.463 . S
C1076 N1080 1.427 . S
C1077 H1067 0.929 . S
C1077 C1075 1.433 . S
C1077 N1080 1.384 . S
C1078 H1069 0.929 . S
C1078 C1070 1.378 . S
C1078 C1073 1.350 . S
C1079 H1066 0.929 . S
C1079 C1071 1.433 . S
C1079 N1081 1.384 . S
N1080 C1076 1.427 . S
N1080 C1077 1.384 . S
N1081 C1073 1.427 . S
N1081 C1079 1.384 . S
H1082 C1088 0.930 . S
H1083 C1092 0.930 . S
H1084 C1097 0.929 . S
H1085 C1095 0.929 . S
H1086 C1090 0.929 . S
H1087 C1096 0.929 . S
C1088 H1082 0.930 . S
C1088 C1089 1.367 . S
C1088 C1096 1.378 . S
C1089 C1088 1.367 . S
C1089 C1097 1.433 . S
C1090 H1086 0.929 . S
C1090 C1092 1.378 . S
C1090 C1094 1.350 . S
C1091 C1094 1.463 . S
C1091 C1096 1.350 . S
C1091 N1099 1.427 . S
C1092 H1083 0.930 . S
C1092 C1090 1.378 . S
C1092 C1093 1.367 . S
C1093 C1092 1.367 . S
C1093 C1095 1.433 . S
C1094 C1090 1.350 . S
C1094 C1091 1.463 . S
C1094 N1098 1.427 . S
C1095 H1085 0.929 . S
C1095 C1093 1.433 . S
C1095 N1098 1.384 . S
C1096 H1087 0.929 . S
C1096 C1088 1.378 . S
C1096 C1091 1.350 . S
C1097 H1084 0.929 . S
C1097 C1089 1.433 . S
C1097 N1099 1.384 . S
N1098 C1094 1.427 . S
N1098 C1095 1.384 . S
N1099 C1091 1.427 . S
N1099 C1097 1.384 . S
H1100 C1106 0.930 . S
H1101 C1110 0.930 . S
H1102 C1115 0.929 . S
H1103 C1113 0.929 . S
H1104 C1108 0.929 . S
H1105 C1114 0.929 . S
C1106 H1100 0.930 . S
C1106 C1107 1.367 . S
C1106 C1114 1.378 . S
C1107 C1106 1.367 . S
C1107 C1115 1.433 . S
C1108 H1104 0.929 . S
C1108 C1110 1.378 . S
C1108 C1112 1.350 . S
C1109 C1112 1.463 . S
C1109 C1114 1.350 . S
C1109 N1117 1.427 . S
C1110 H1101 0.930 . S
C1110 C1108 1.378 . S
C1110 C1111 1.367 . S
C1111 C1110 1.367 . S
C1111 C1113 1.433 . S
C1112 C1108 1.350 . S
C1112 C1109 1.463 . S
C1112 N1116 1.427 . S
C1113 H1103 0.929 . S
C1113 C1111 1.433 . S
C1113 N1116 1.384 . S
C1114 H1105 0.929 . S
C1114 C1106 1.378 . S
C1114 C1109 1.350 . S
C1115 H1102 0.929 . S
C1115 C1107 1.433 . S
C1115 N1117 1.384 . S
N1116 C1112 1.427 . S
N1116 C1113 1.384 . S
N1117 C1109 1.427 . S
N1117 C1115 1.384 . S
H1118 C1124 0.930 . S
H1119 C1128 0.930 . S
H1120 C1133 0.929 . S
H1121 C1131 0.929 . S
H1122 C1126 0.929 . S
H1123 C1132 0.929 . S
C1124 H1118 0.930 . S
C1124 C1125 1.367 . S
C1124 C1132 1.378 . S
C1125 C1124 1.367 . S
C1125 C1133 1.433 . S
C1126 H1122 0.929 . S
C1126 C1128 1.378 . S
C1126 C1130 1.350 . S
C1127 C1130 1.463 . S
C1127 C1132 1.350 . S
C1127 N1135 1.427 . S
C1128 H1119 0.930 . S
C1128 C1126 1.378 . S
C1128 C1129 1.367 . S
C1129 C1128 1.367 . S
C1129 C1131 1.433 . S
C1130 C1126 1.350 . S
C1130 C1127 1.463 . S
C1130 N1134 1.427 . S
C1131 H1121 0.929 . S
C1131 C1129 1.433 . S
C1131 N1134 1.384 . S
C1132 H1123 0.929 . S
C1132 C1124 1.378 . S
C1132 C1127 1.350 . S
C1133 H1120 0.929 . S
C1133 C1125 1.433 . S
C1133 N1135 1.384 . S
N1134 C1130 1.427 . S
N1134 C1131 1.384 . S
N1135 C1127 1.427 . S
N1135 C1133 1.384 . S
H1136 C1142 0.930 . S
H1137 C1146 0.930 . S
H1138 C1151 0.929 . S
H1139 C1149 0.929 . S
H1140 C1144 0.929 . S
H1141 C1150 0.929 . S
C1142 H1136 0.930 . S
C1142 C1143 1.367 . S
C1142 C1150 1.378 . S
C1143 C1142 1.367 . S
C1143 C1151 1.433 . S
C1144 H1140 0.929 . S
C1144 C1146 1.378 . S
C1144 C1148 1.350 . S
C1145 C1148 1.463 . S
C1145 C1150 1.350 . S
C1145 N1153 1.427 . S
C1146 H1137 0.930 . S
C1146 C1144 1.378 . S
C1146 C1147 1.367 . S
C1147 C1146 1.367 . S
C1147 C1149 1.433 . S
C1148 C1144 1.350 . S
C1148 C1145 1.463 . S
C1148 N1152 1.427 . S
C1149 H1139 0.929 . S
C1149 C1147 1.433 . S
C1149 N1152 1.384 . S
C1150 H1141 0.929 . S
C1150 C1142 1.378 . S
C1150 C1145 1.350 . S
C1151 H1138 0.929 . S
C1151 C1143 1.433 . S
C1151 N1153 1.384 . S
N1152 C1148 1.427 . S
N1152 C1149 1.384 . S
N1153 C1145 1.427 . S
N1153 C1151 1.384 . S
H1154 C1160 0.930 . S
H1155 C1164 0.930 . S
H1156 C1169 0.929 . S
H1157 C1167 0.929 . S
H1158 C1162 0.929 . S
H1159 C1168 0.929 . S
C1160 H1154 0.930 . S
C1160 C1161 1.367 . S
C1160 C1168 1.378 . S
C1161 C1160 1.367 . S
C1161 C1169 1.433 . S
C1162 H1158 0.929 . S
C1162 C1164 1.378 . S
C1162 C1166 1.350 . S
C1163 C1166 1.463 . S
C1163 C1168 1.350 . S
C1163 N1171 1.427 . S
C1164 H1155 0.930 . S
C1164 C1162 1.378 . S
C1164 C1165 1.367 . S
C1165 C1164 1.367 . S
C1165 C1167 1.433 . S
C1166 C1162 1.350 . S
C1166 C1163 1.463 . S
C1166 N1170 1.427 . S
C1167 H1157 0.929 . S
C1167 C1165 1.433 . S
C1167 N1170 1.384 . S
C1168 H1159 0.929 . S
C1168 C1160 1.378 . S
C1168 C1163 1.350 . S
C1169 H1156 0.929 . S
C1169 C1161 1.433 . S
C1169 N1171 1.384 . S
N1170 C1166 1.427 . S
N1170 C1167 1.384 . S
N1171 C1163 1.427 . S
N1171 C1169 1.384 . S
H1172 C1178 0.930 . S
H1173 C1182 0.930 . S
H1174 C1187 0.929 . S
H1175 C1185 0.929 . S
H1176 C1180 0.929 . S
H1177 C1186 0.929 . S
C1178 H1172 0.930 . S
C1178 C1179 1.367 . S
C1178 C1186 1.378 . S
C1179 C1178 1.367 . S
C1179 C1187 1.433 . S
C1180 H1176 0.929 . S
C1180 C1182 1.378 . S
C1180 C1184 1.350 . S
C1181 C1184 1.463 . S
C1181 C1186 1.350 . S
C1181 N1189 1.427 . S
C1182 H1173 0.930 . S
C1182 C1180 1.378 . S
C1182 C1183 1.367 . S
C1183 C1182 1.367 . S
C1183 C1185 1.433 . S
C1184 C1180 1.350 . S
C1184 C1181 1.463 . S
C1184 N1188 1.427 . S
C1185 H1175 0.929 . S
C1185 C1183 1.433 . S
C1185 N1188 1.384 . S
C1186 H1177 0.929 . S
C1186 C1178 1.378 . S
C1186 C1181 1.350 . S
C1187 H1174 0.929 . S
C1187 C1179 1.433 . S
C1187 N1189 1.384 . S
N1188 C1184 1.427 . S
N1188 C1185 1.384 . S
N1189 C1181 1.427 . S
N1189 C1187 1.384 . S
H1190 C1196 0.930 . S
H1191 C1200 0.930 . S
H1192 C1205 0.929 . S
H1193 C1203 0.929 . S
H1194 C1198 0.929 . S
H1195 C1204 0.929 . S
C1196 H1190 0.930 . S
C1196 C1197 1.367 . S
C1196 C1204 1.378 . S
C1197 C1196 1.367 . S
C1197 C1205 1.433 . S
C1198 H1194 0.929 . S
C1198 C1200 1.378 . S
C1198 C1202 1.350 . S
C1199 C1202 1.463 . S
C1199 C1204 1.350 . S
C1199 N1207 1.427 . S
C1200 H1191 0.930 . S
C1200 C1198 1.378 . S
C1200 C1201 1.367 . S
C1201 C1200 1.367 . S
C1201 C1203 1.433 . S
C1202 C1198 1.350 . S
C1202 C1199 1.463 . S
C1202 N1206 1.427 . S
C1203 H1193 0.929 . S
C1203 C1201 1.433 . S
C1203 N1206 1.384 . S
C1204 H1195 0.929 . S
C1204 C1196 1.378 . S
C1204 C1199 1.350 . S
C1205 H1192 0.929 . S
C1205 C1197 1.433 . S
C1205 N1207 1.384 . S
N1206 C1202 1.427 . S
N1206 C1203 1.384 . S
N1207 C1199 1.427 . S
N1207 C1205 1.384 . S
H1208 C1214 0.930 . S
H1209 C1218 0.930 . S
H1210 C1223 0.929 . S
H1211 C1221 0.929 . S
H1212 C1216 0.929 . S
H1213 C1222 0.929 . S
C1214 H1208 0.930 . S
C1214 C1215 1.367 . S
C1214 C1222 1.378 . S
C1215 C1214 1.367 . S
C1215 C1223 1.433 . S
C1216 H1212 0.929 . S
C1216 C1218 1.378 . S
C1216 C1220 1.350 . S
C1217 C1220 1.463 . S
C1217 C1222 1.350 . S
C1217 N1225 1.427 . S
C1218 H1209 0.930 . S
C1218 C1216 1.378 . S
C1218 C1219 1.367 . S
C1219 C1218 1.367 . S
C1219 C1221 1.433 . S
C1220 C1216 1.350 . S
C1220 C1217 1.463 . S
C1220 N1224 1.427 . S
C1221 H1211 0.929 . S
C1221 C1219 1.433 . S
C1221 N1224 1.384 . S
C1222 H1213 0.929 . S
C1222 C1214 1.378 . S
C1222 C1217 1.350 . S
C1223 H1210 0.929 . S
C1223 C1215 1.433 . S
C1223 N1225 1.384 . S
N1224 C1220 1.427 . S
N1224 C1221 1.384 . S
N1225 C1217 1.427 . S
N1225 C1223 1.384 . S
H1226 C1232 0.930 . S
H1227 C1236 0.930 . S
H1228 C1241 0.929 . S
H1229 C1239 0.929 . S
H1230 C1234 0.929 . S
H1231 C1240 0.929 . S
C1232 H1226 0.930 . S
C1232 C1233 1.367 . S
C1232 C1240 1.378 . S
C1233 C1232 1.367 . S
C1233 C1241 1.433 . S
C1234 H1230 0.929 . S
C1234 C1236 1.378 . S
C1234 C1238 1.350 . S
C1235 C1238 1.463 . S
C1235 C1240 1.350 . S
C1235 N1243 1.427 . S
C1236 H1227 0.930 . S
C1236 C1234 1.378 . S
C1236 C1237 1.367 . S
C1237 C1236 1.367 . S
C1237 C1239 1.433 . S
C1238 C1234 1.350 . S
C1238 C1235 1.463 . S
C1238 N1242 1.427 . S
C1239 H1229 0.929 . S
C1239 C1237 1.433 . S
C1239 N1242 1.384 . S
C1240 H1231 0.929 . S
C1240 C1232 1.378 . S
C1240 C1235 1.350 . S
C1241 H1228 0.929 . S
C1241 C1233 1.433 . S
C1241 N1243 1.384 . S
N1242 C1238 1.427 . S
N1242 C1239 1.384 . S
N1243 C1235 1.427 . S
N1243 C1241 1.384 . S
H1244 C1250 0.930 . S
H1245 C1254 0.930 . S
H1246 C1259 0.929 . S
H1247 C1257 0.929 . S
H1248 C1252 0.929 . S
H1249 C1258 0.929 . S
C1250 H1244 0.930 . S
C1250 C1251 1.367 . S
C1250 C1258 1.378 . S
C1251 C1250 1.367 . S
C1251 C1259 1.433 . S
C1252 H1248 0.929 . S
C1252 C1254 1.378 . S
C1252 C1256 1.350 . S
C1253 C1256 1.463 . S
C1253 C1258 1.350 . S
C1253 N1261 1.427 . S
C1254 H1245 0.930 . S
C1254 C1252 1.378 . S
C1254 C1255 1.367 . S
C1255 C1254 1.367 . S
C1255 C1257 1.433 . S
C1256 C1252 1.350 . S
C1256 C1253 1.463 . S
C1256 N1260 1.427 . S
C1257 H1247 0.929 . S
C1257 C1255 1.433 . S
C1257 N1260 1.384 . S
C1258 H1249 0.929 . S
C1258 C1250 1.378 . S
C1258 C1253 1.350 . S
C1259 H1246 0.929 . S
C1259 C1251 1.433 . S
C1259 N1261 1.384 . S
N1260 C1256 1.427 . S
N1260 C1257 1.384 . S
N1261 C1253 1.427 . S
N1261 C1259 1.384 . S
H1262 C1268 0.930 . S
H1263 C1272 0.930 1_455 S
H1264 C1277 0.929 . S
H1265 C1275 0.929 . S
H1266 C1270 0.929 . S
H1267 C1276 0.929 . S
C1268 H1262 0.930 . S
C1268 C1269 1.367 . S
C1268 C1276 1.378 . S
C1269 C1268 1.367 . S
C1269 C1277 1.433 . S
C1270 H1266 0.929 . S
C1270 C1272 1.378 . S
C1270 C1274 1.350 . S
C1271 C1274 1.463 . S
C1271 C1276 1.350 . S
C1271 N1279 1.427 . S
C1272 H1263 0.930 1_655 S
C1272 C1270 1.378 . S
C1272 C1273 1.367 . S
C1273 C1272 1.367 . S
C1273 C1275 1.433 . S
C1274 C1270 1.350 . S
C1274 C1271 1.463 . S
C1274 N1278 1.427 . S
C1275 H1265 0.929 . S
C1275 C1273 1.433 . S
C1275 N1278 1.384 . S
C1276 H1267 0.929 . S
C1276 C1268 1.378 . S
C1276 C1271 1.350 . S
C1277 H1264 0.929 . S
C1277 C1269 1.433 . S
C1277 N1279 1.384 . S
N1278 C1274 1.427 . S
N1278 C1275 1.384 . S
N1279 C1271 1.427 . S
N1279 C1277 1.384 . S
H1280 C1286 0.930 . S
H1281 C1290 0.930 . S
H1282 C1295 0.929 . S
H1283 C1293 0.929 . S
H1284 C1288 0.929 . S
H1285 C1294 0.929 . S
C1286 H1280 0.930 . S
C1286 C1287 1.367 . S
C1286 C1294 1.378 . S
C1287 C1286 1.367 . S
C1287 C1295 1.433 . S
C1288 H1284 0.929 . S
C1288 C1290 1.378 . S
C1288 C1292 1.350 . S
C1289 C1292 1.463 . S
C1289 C1294 1.350 . S
C1289 N1297 1.427 . S
C1290 H1281 0.930 . S
C1290 C1288 1.378 . S
C1290 C1291 1.367 . S
C1291 C1290 1.367 . S
C1291 C1293 1.433 . S
C1292 C1288 1.350 . S
C1292 C1289 1.463 . S
C1292 N1296 1.427 . S
C1293 H1283 0.929 . S
C1293 C1291 1.433 . S
C1293 N1296 1.384 . S
C1294 H1285 0.929 . S
C1294 C1286 1.378 . S
C1294 C1289 1.350 . S
C1295 H1282 0.929 . S
C1295 C1287 1.433 . S
C1295 N1297 1.384 . S
N1296 C1292 1.427 . S
N1296 C1293 1.384 . S
N1297 C1289 1.427 . S
N1297 C1295 1.384 . S
H1298 C1304 0.930 . S
H1299 C1308 0.930 . S
H1300 C1313 0.929 . S
H1301 C1311 0.929 . S
H1302 C1306 0.929 . S
H1303 C1312 0.929 . S
C1304 H1298 0.930 . S
C1304 C1305 1.367 . S
C1304 C1312 1.378 . S
C1305 C1304 1.367 . S
C1305 C1313 1.433 . S
C1306 H1302 0.929 . S
C1306 C1308 1.378 . S
C1306 C1310 1.350 . S
C1307 C1310 1.463 . S
C1307 C1312 1.350 . S
C1307 N1315 1.427 . S
C1308 H1299 0.930 . S
C1308 C1306 1.378 . S
C1308 C1309 1.367 . S
C1309 C1308 1.367 . S
C1309 C1311 1.433 . S
C1310 C1306 1.350 . S
C1310 C1307 1.463 . S
C1310 N1314 1.427 . S
C1311 H1301 0.929 . S
C1311 C1309 1.433 . S
C1311 N1314 1.384 . S
C1312 H1303 0.929 . S
C1312 C1304 1.378 . S
C1312 C1307 1.350 . S
C1313 H1300 0.929 . S
C1313 C1305 1.433 . S
C1313 N1315 1.384 . S
N1314 C1310 1.427 . S
N1314 C1311 1.384 . S
N1315 C1307 1.427 . S
N1315 C1313 1.384 . S
H1316 C1322 0.930 . S
H1317 C1326 0.930 . S
H1318 C1331 0.929 . S
H1319 C1329 0.929 . S
H1320 C1324 0.929 . S
H1321 C1330 0.929 . S
C1322 H1316 0.930 . S
C1322 C1323 1.367 . S
C1322 C1330 1.378 . S
C1323 C1322 1.367 . S
C1323 C1331 1.433 . S
C1324 H1320 0.929 . S
C1324 C1326 1.378 . S
C1324 C1328 1.350 . S
C1325 C1328 1.463 . S
C1325 C1330 1.350 . S
C1325 N1333 1.427 . S
C1326 H1317 0.930 . S
C1326 C1324 1.378 . S
C1326 C1327 1.367 . S
C1327 C1326 1.367 . S
C1327 C1329 1.433 . S
C1328 C1324 1.350 . S
C1328 C1325 1.463 . S
C1328 N1332 1.427 . S
C1329 H1319 0.929 . S
C1329 C1327 1.433 . S
C1329 N1332 1.384 . S
C1330 H1321 0.929 . S
C1330 C1322 1.378 . S
C1330 C1325 1.350 . S
C1331 H1318 0.929 . S
C1331 C1323 1.433 . S
C1331 N1333 1.384 . S
N1332 C1328 1.427 . S
N1332 C1329 1.384 . S
N1333 C1325 1.427 . S
N1333 C1331 1.384 . S
H1334 C1340 0.930 . S
H1335 C1344 0.930 . S
H1336 C1349 0.929 . S
H1337 C1347 0.929 . S
H1338 C1342 0.929 . S
H1339 C1348 0.929 . S
C1340 H1334 0.930 . S
C1340 C1341 1.367 . S
C1340 C1348 1.378 . S
C1341 C1340 1.367 . S
C1341 C1349 1.433 . S
C1342 H1338 0.929 . S
C1342 C1344 1.378 . S
C1342 C1346 1.350 . S
C1343 C1346 1.463 . S
C1343 C1348 1.350 . S
C1343 N1351 1.427 . S
C1344 H1335 0.930 . S
C1344 C1342 1.378 . S
C1344 C1345 1.367 . S
C1345 C1344 1.367 . S
C1345 C1347 1.433 . S
C1346 C1342 1.350 . S
C1346 C1343 1.463 . S
C1346 N1350 1.427 . S
C1347 H1337 0.929 . S
C1347 C1345 1.433 . S
C1347 N1350 1.384 . S
C1348 H1339 0.929 . S
C1348 C1340 1.378 . S
C1348 C1343 1.350 . S
C1349 H1336 0.929 . S
C1349 C1341 1.433 . S
C1349 N1351 1.384 . S
N1350 C1346 1.427 . S
N1350 C1347 1.384 . S
N1351 C1343 1.427 . S
N1351 C1349 1.384 . S
H1352 C1358 0.930 . S
H1353 C1362 0.930 . S
H1354 C1367 0.929 . S
H1355 C1365 0.929 . S
H1356 C1360 0.929 . S
H1357 C1366 0.929 . S
C1358 H1352 0.930 . S
C1358 C1359 1.367 . S
C1358 C1366 1.378 . S
C1359 C1358 1.367 . S
C1359 C1367 1.433 . S
C1360 H1356 0.929 . S
C1360 C1362 1.378 . S
C1360 C1364 1.350 . S
C1361 C1364 1.463 . S
C1361 C1366 1.350 . S
C1361 N1369 1.427 . S
C1362 H1353 0.930 . S
C1362 C1360 1.378 . S
C1362 C1363 1.367 . S
C1363 C1362 1.367 . S
C1363 C1365 1.433 . S
C1364 C1360 1.350 . S
C1364 C1361 1.463 . S
C1364 N1368 1.427 . S
C1365 H1355 0.929 . S
C1365 C1363 1.433 . S
C1365 N1368 1.384 . S
C1366 H1357 0.929 . S
C1366 C1358 1.378 . S
C1366 C1361 1.350 . S
C1367 H1354 0.929 . S
C1367 C1359 1.433 . S
C1367 N1369 1.384 . S
N1368 C1364 1.427 . S
N1368 C1365 1.384 . S
N1369 C1361 1.427 . S
N1369 C1367 1.384 . S
C517 C331 2.622 . S
C513 C18 2.683 . S
C535 C321 2.385 . S
C531 C59 2.412 . S
C553 C322 0.951 . S
C549 C98 0.970 . S
C567 C125 0.882 . S
C571 C344 0.861 . S
C585 C169 2.385 . S
C589 C347 2.336 . S
C607 C330 0.981 . S
C603 C218 1.010 . S
C621 C255 1.050 . S
C625 C320 1.051 . S
C639 C288 2.688 . S
C643 C338 2.627 . S
C661 C351 0.984 . S
C657 C15 0.959 . S
C675 C45 0.676 . S
C679 C400 1.000 . S
C697 C378 0.419 . S
C693 C95 0.302 . S
C715 C392 0.678 . S
C711 C128 0.692 . S
C729 C178 0.716 . S
C733 C353 0.702 . S
C751 C406 1.563 1_556 S
C747 C215 1.606 . S
C765 C249 2.339 . S
C769 C362 2.255 . S
C783 C299 2.187 . S
C787 C383 2.197 . S
C801 C9 2.654 . S
C805 C409 2.589 . S
C819 C175 0.360 . S
C823 C393 0.609 1_556 S
C841 C352 1.627 . S
C837 C209 1.653 . S
C859 C384 1.301 . S
C855 C258 1.381 . S
C873 C285 1.260 . S
C877 C375 1.259 . S
C891 C89 3.134 . S
C895 C382 3.129 . S
C913 C369 2.733 . S
C909 C139 2.760 . S
C927 C48 1.339 . S
C931 C361 1.340 . S
C945 C298 2.692 . S
C949 C424 2.626 . S
C963 C179 2.381 . S
C967 C414 2.342 . S
C985 C415 0.971 . S
C981 C208 1.005 . S
C1003 C437 1.045 . S
C999 C245 1.045 . S
C1017 C49 2.415 . S
C1021 C440 2.392 . S
C1039 C423 0.966 . S
C1035 C88 0.981 . S
C1053 C135 0.878 . S
C1057 C413 0.875 . S
C1071 C8 2.684 . S
C1075 C431 2.619 . S
C1089 C295 1.258 . S
C1093 C444 1.249 . S
C1111 C493 0.606 . S
C1107 C165 0.378 . S
C1125 C219 1.662 . S
C1129 C471 1.623 . S
C1143 C248 1.379 . S
C1147 C485 1.304 . S
C1165 C446 1.338 . S
C1161 C58 1.346 . S
C1179 C99 3.133 . S
C1183 C499 3.132 . S
C1201 C455 2.739 . S
C1197 C129 2.760 . S
C1219 C476 2.589 . S
C1215 C19 2.654 . S
C1237 C502 2.201 . S
C1233 C289 2.194 . S
C1251 C55 0.667 . S
C1255 C486 0.981 . S
C1269 C85 0.333 . S
C1273 C445 0.429 . S
C1291 C477 0.701 . S
C1287 C138 0.679 . S
C1305 C5 0.972 . S
C1309 C468 0.976 . S
C1323 C205 1.606 . S
C1327 C475 1.567 . S
C1345 C462 2.255 . S
C1341 C259 2.339 . S
C1363 C454 0.717 . S
C1359 C168 0.690 . S
