# Generated by pormake.
# Topology ctn, (3,4)-cn, num edge types: 1
# Building blocks:
#     Node 0, Type 0, BuildingBlock: OLANEW_clean_sbu_2, # of connection points: 3
#     Node 1, Type 0, BuildingBlock: OLANEW_clean_sbu_2, # of connection points: 3
#     Node 2, Type 0, BuildingBlock: OLANEW_clean_sbu_2, # of connection points: 3
#     Node 3, Type 0, BuildingBlock: OLANEW_clean_sbu_2, # of connection points: 3
#     Node 4, Type 0, BuildingBlock: OLANEW_clean_sbu_2, # of connection points: 3
#     Node 5, Type 0, BuildingBlock: OLANEW_clean_sbu_2, # of connection points: 3
#     Node 6, Type 0, BuildingBlock: OLANEW_clean_sbu_2, # of connection points: 3
#     Node 7, Type 0, BuildingBlock: OLANEW_clean_sbu_2, # of connection points: 3
#     Node 8, Type 0, BuildingBlock: OLANEW_clean_sbu_2, # of connection points: 3
#     Node 9, Type 0, BuildingBlock: OLANEW_clean_sbu_2, # of connection points: 3
#     Node 10, Type 0, BuildingBlock: OLANEW_clean_sbu_2, # of connection points: 3
#     Node 11, Type 0, BuildingBlock: OLANEW_clean_sbu_2, # of connection points: 3
#     Node 12, Type 0, BuildingBlock: OLANEW_clean_sbu_2, # of connection points: 3
#     Node 13, Type 0, BuildingBlock: OLANEW_clean_sbu_2, # of connection points: 3
#     Node 14, Type 0, BuildingBlock: OLANEW_clean_sbu_2, # of connection points: 3
#     Node 15, Type 0, BuildingBlock: OLANEW_clean_sbu_2, # of connection points: 3
#     Node 16, Type 1, BuildingBlock: AZAVOO_clean_sbu_0, # of connection points: 4
#     Node 17, Type 1, BuildingBlock: AZAVOO_clean_sbu_0, # of connection points: 4
#     Node 18, Type 1, BuildingBlock: AZAVOO_clean_sbu_0, # of connection points: 4
#     Node 19, Type 1, BuildingBlock: AZAVOO_clean_sbu_0, # of connection points: 4
#     Node 20, Type 1, BuildingBlock: AZAVOO_clean_sbu_0, # of connection points: 4
#     Node 21, Type 1, BuildingBlock: AZAVOO_clean_sbu_0, # of connection points: 4
#     Node 22, Type 1, BuildingBlock: AZAVOO_clean_sbu_0, # of connection points: 4
#     Node 23, Type 1, BuildingBlock: AZAVOO_clean_sbu_0, # of connection points: 4
#     Node 24, Type 1, BuildingBlock: AZAVOO_clean_sbu_0, # of connection points: 4
#     Node 25, Type 1, BuildingBlock: AZAVOO_clean_sbu_0, # of connection points: 4
#     Node 26, Type 1, BuildingBlock: AZAVOO_clean_sbu_0, # of connection points: 4
#     Node 27, Type 1, BuildingBlock: AZAVOO_clean_sbu_0, # of connection points: 4
#     Edge 28, Type (0, 1), BuildingBlock: KIFKEQ_clean_linker_1, # of connection points: 2
#     Edge 29, Type (0, 1), BuildingBlock: KIFKEQ_clean_linker_1, # of connection points: 2
#     Edge 30, Type (0, 1), BuildingBlock: KIFKEQ_clean_linker_1, # of connection points: 2
#     Edge 31, Type (0, 1), BuildingBlock: KIFKEQ_clean_linker_1, # of connection points: 2
#     Edge 32, Type (0, 1), BuildingBlock: KIFKEQ_clean_linker_1, # of connection points: 2
#     Edge 33, Type (0, 1), BuildingBlock: KIFKEQ_clean_linker_1, # of connection points: 2
#     Edge 34, Type (0, 1), BuildingBlock: KIFKEQ_clean_linker_1, # of connection points: 2
#     Edge 35, Type (0, 1), BuildingBlock: KIFKEQ_clean_linker_1, # of connection points: 2
#     Edge 36, Type (0, 1), BuildingBlock: KIFKEQ_clean_linker_1, # of connection points: 2
#     Edge 37, Type (0, 1), BuildingBlock: KIFKEQ_clean_linker_1, # of connection points: 2
#     Edge 38, Type (0, 1), BuildingBlock: KIFKEQ_clean_linker_1, # of connection points: 2
#     Edge 39, Type (0, 1), BuildingBlock: KIFKEQ_clean_linker_1, # of connection points: 2
#     Edge 40, Type (0, 1), BuildingBlock: KIFKEQ_clean_linker_1, # of connection points: 2
#     Edge 41, Type (0, 1), BuildingBlock: KIFKEQ_clean_linker_1, # of connection points: 2
#     Edge 42, Type (0, 1), BuildingBlock: KIFKEQ_clean_linker_1, # of connection points: 2
#     Edge 43, Type (0, 1), BuildingBlock: KIFKEQ_clean_linker_1, # of connection points: 2
#     Edge 44, Type (0, 1), BuildingBlock: KIFKEQ_clean_linker_1, # of connection points: 2
#     Edge 45, Type (0, 1), BuildingBlock: KIFKEQ_clean_linker_1, # of connection points: 2
#     Edge 46, Type (0, 1), BuildingBlock: KIFKEQ_clean_linker_1, # of connection points: 2
#     Edge 47, Type (0, 1), BuildingBlock: KIFKEQ_clean_linker_1, # of connection points: 2
#     Edge 48, Type (0, 1), BuildingBlock: KIFKEQ_clean_linker_1, # of connection points: 2
#     Edge 49, Type (0, 1), BuildingBlock: KIFKEQ_clean_linker_1, # of connection points: 2
#     Edge 50, Type (0, 1), BuildingBlock: KIFKEQ_clean_linker_1, # of connection points: 2
#     Edge 51, Type (0, 1), BuildingBlock: KIFKEQ_clean_linker_1, # of connection points: 2
#     Edge 52, Type (0, 1), BuildingBlock: KIFKEQ_clean_linker_1, # of connection points: 2
#     Edge 53, Type (0, 1), BuildingBlock: KIFKEQ_clean_linker_1, # of connection points: 2
#     Edge 54, Type (0, 1), BuildingBlock: KIFKEQ_clean_linker_1, # of connection points: 2
#     Edge 55, Type (0, 1), BuildingBlock: KIFKEQ_clean_linker_1, # of connection points: 2
#     Edge 56, Type (0, 1), BuildingBlock: KIFKEQ_clean_linker_1, # of connection points: 2
#     Edge 57, Type (0, 1), BuildingBlock: KIFKEQ_clean_linker_1, # of connection points: 2
#     Edge 58, Type (0, 1), BuildingBlock: KIFKEQ_clean_linker_1, # of connection points: 2
#     Edge 59, Type (0, 1), BuildingBlock: KIFKEQ_clean_linker_1, # of connection points: 2
#     Edge 60, Type (0, 1), BuildingBlock: KIFKEQ_clean_linker_1, # of connection points: 2
#     Edge 61, Type (0, 1), BuildingBlock: KIFKEQ_clean_linker_1, # of connection points: 2
#     Edge 62, Type (0, 1), BuildingBlock: KIFKEQ_clean_linker_1, # of connection points: 2
#     Edge 63, Type (0, 1), BuildingBlock: KIFKEQ_clean_linker_1, # of connection points: 2
#     Edge 64, Type (0, 1), BuildingBlock: KIFKEQ_clean_linker_1, # of connection points: 2
#     Edge 65, Type (0, 1), BuildingBlock: KIFKEQ_clean_linker_1, # of connection points: 2
#     Edge 66, Type (0, 1), BuildingBlock: KIFKEQ_clean_linker_1, # of connection points: 2
#     Edge 67, Type (0, 1), BuildingBlock: KIFKEQ_clean_linker_1, # of connection points: 2
#     Edge 68, Type (0, 1), BuildingBlock: KIFKEQ_clean_linker_1, # of connection points: 2
#     Edge 69, Type (0, 1), BuildingBlock: KIFKEQ_clean_linker_1, # of connection points: 2
#     Edge 70, Type (0, 1), BuildingBlock: KIFKEQ_clean_linker_1, # of connection points: 2
#     Edge 71, Type (0, 1), BuildingBlock: KIFKEQ_clean_linker_1, # of connection points: 2
#     Edge 72, Type (0, 1), BuildingBlock: KIFKEQ_clean_linker_1, # of connection points: 2
#     Edge 73, Type (0, 1), BuildingBlock: KIFKEQ_clean_linker_1, # of connection points: 2
#     Edge 74, Type (0, 1), BuildingBlock: KIFKEQ_clean_linker_1, # of connection points: 2
#     Edge 75, Type (0, 1), BuildingBlock: KIFKEQ_clean_linker_1, # of connection points: 2
# Relax obj value: 0.046
# Max RMSD: 0.171
# Mean RMSD: 0.093
data_MOF--net-ctn--node1-OLANEW_clean_sbu_2--node2-AZAVOO_clean_sbu_0--edge1-KIFKEQ_clean_linker_1
_symmetry_space_group_name_H-M    P1
_symmetry_Int_Tables_number       1
_symmetry_cell_setting            triclinic
loop_
_symmetry_equiv_pos_as_xyz
'x, y, z'
_cell_length_a     57.911372
_cell_length_b     60.28678
_cell_length_c     57.356569
_cell_angle_alpha  91.296323
_cell_angle_beta   97.219674
_cell_angle_gamma 98.369957
loop_
_atom_site_label
_atom_site_type_symbol
_atom_site_fract_x
_atom_site_fract_y
_atom_site_fract_z
_atom_type_partial_charge
O0 O 0.02927 0.04767 0.97855 0.0
Cd1 Cd 0.02939 0.01291 6e-05 0.0
O2 O 0.0588 0.06546 0.00305 0.0
Cd3 Cd 0.05427 0.04041 0.02946 0.0
O4 O 0.0364 0.03248 0.06016 0.0
C5 C 0.01404 0.03031 0.05758 0.0
O6 O 0.00268 0.03115 0.03637 0.0
C7 C 0.04437 0.06507 0.98435 0.0
C8 C 0.06463 0.98761 0.99153 0.0
O9 O 0.04378 0.98297 0.98038 0.0
O10 O 0.06893 0.00442 0.0063 0.0
O11 O 0.33077 0.77602 0.29283 0.0
Cd12 Cd 0.28944 0.77869 0.27971 0.0
O13 O 0.32653 0.74021 0.28227 0.0
Cd14 Cd 0.28887 0.73557 0.26998 0.0
O15 O 0.25907 0.70865 0.26857 0.0
C16 C 0.26529 0.69105 0.27764 0.0
O17 O 0.28749 0.69147 0.28627 0.0
C18 C 0.33948 0.75795 0.29122 0.0
C19 C 0.2807 0.7932 0.23405 0.0
O20 O 0.28649 0.80732 0.2516 0.0
O21 O 0.27942 0.77226 0.23808 0.0
O22 O 0.97217 0.49776 0.10009 0.0
Cd23 Cd 0.9431 0.49184 0.06464 0.0
O24 O 0.00161 0.49715 0.07933 0.0
Cd25 Cd 0.98038 0.48138 0.04747 0.0
O26 O 0.97674 0.45082 0.02509 0.0
C27 C 0.97838 0.4329 0.03608 0.0
O28 O 0.98064 0.43402 0.05918 0.0
C29 C 0.99419 0.5003 0.09892 0.0
C30 C 0.91564 0.52645 0.05822 0.0
O31 O 0.90866 0.50883 0.06903 0.0
O32 O 0.93566 0.52779 0.05059 0.0
O33 O 0.73657 0.88139 0.21687 0.0
Cd34 Cd 0.70427 0.85037 0.21775 0.0
O35 O 0.75771 0.86825 0.24651 0.0
Cd36 Cd 0.72852 0.84419 0.25516 0.0
O37 O 0.70025 0.82881 0.27389 0.0
C38 C 0.68359 0.83968 0.27702 0.0
O39 O 0.68329 0.85942 0.2678 0.0
C40 C 0.75581 0.88241 0.23055 0.0
C41 C 0.71186 0.81378 0.19048 0.0
O42 O 0.69903 0.828 0.18187 0.0
O43 O 0.72081 0.81663 0.21212 0.0
O44 O 0.1111 0.00246 0.52476 0.0
Cd45 Cd 0.08506 0.96922 0.50707 0.0
O46 O 0.08495 0.01923 0.50438 0.0
Cd47 Cd 0.06596 0.04434 0.48684 0.0
O48 O 0.04047 0.05051 0.45718 0.0
C49 C 0.04031 0.03745 0.43944 0.0
O50 O 0.0553 0.02298 0.44071 0.0
C51 C 0.10465 0.02057 0.51736 0.0
C52 C 0.07098 0.93503 0.53627 0.0
O53 O 0.09079 0.93645 0.52819 0.0
O54 O 0.05818 0.95036 0.53129 0.0
O55 O 0.25023 0.73585 0.82871 0.0
Cd56 Cd 0.25163 0.71797 0.79031 0.0
O57 O 0.2164 0.74414 0.81306 0.0
Cd58 Cd 0.18209 0.75554 0.80943 0.0
O59 O 0.14968 0.75478 0.78529 0.0
C60 C 0.15275 0.7582 0.76404 0.0
O61 O 0.17437 0.76307 0.75896 0.0
C62 C 0.23218 0.74512 0.83073 0.0
C63 C 0.28474 0.68869 0.79017 0.0
O64 O 0.29025 0.70965 0.78683 0.0
O65 O 0.26363 0.68164 0.79398 0.0
O66 O 0.97802 0.49713 0.44458 0.0
Cd67 Cd 0.95669 0.51244 0.47401 0.0
O68 O 0.00965 0.49758 0.47037 0.0
Cd69 Cd 0.99521 0.514 0.4984 0.0
O70 O 0.98563 0.54104 0.51955 0.0
C71 C 0.9791 0.55747 0.50833 0.0
O72 O 0.978 0.55681 0.4853 0.0
C73 C 0.99905 0.49318 0.4496 0.0
C74 C 0.91928 0.48294 0.48707 0.0
O75 O 0.91566 0.49765 0.47178 0.0
O76 O 0.94056 0.48198 0.49588 0.0
O77 O 0.83729 0.77876 0.85216 0.0
Cd78 Cd 0.85442 0.80914 0.8291 0.0
O79 O 0.80451 0.79273 0.84495 0.0
Cd80 Cd 0.76778 0.79812 0.84468 0.0
O81 O 0.73709 0.81511 0.83549 0.0
C82 C 0.73087 0.82839 0.85024 0.0
O83 O 0.74227 0.83077 0.87166 0.0
C84 C 0.81589 0.77838 0.85523 0.0
C85 C 0.87103 0.7955 0.78838 0.0
O86 O 0.8844 0.79808 0.80814 0.0
O87 O 0.84967 0.79897 0.788 0.0
O88 O 0.30313 0.27004 0.33523 0.0
Cd89 Cd 0.30601 0.29903 0.30607 0.0
O90 O 0.26518 0.25864 0.32532 0.0
Cd91 Cd 0.25902 0.28562 0.30156 0.0
O92 O 0.24083 0.31365 0.28995 0.0
C93 C 0.23064 0.32279 0.30519 0.0
O94 O 0.23198 0.3152 0.32655 0.0
C95 C 0.28454 0.25669 0.33773 0.0
C96 C 0.33738 0.29181 0.27437 0.0
O97 O 0.34473 0.302 0.29436 0.0
O98 O 0.31524 0.285 0.26938 0.0
O99 O 0.46367 0.9877 0.61452 0.0
Cd100 Cd 0.43434 0.98217 0.57927 0.0
O101 O 0.49286 0.98552 0.59378 0.0
Cd102 Cd 0.47159 0.97141 0.56124 0.0
O103 O 0.46991 0.94336 0.53585 0.0
C104 C 0.48971 0.93955 0.53061 0.0
O105 O 0.50875 0.95319 0.53947 0.0
C106 C 0.48563 0.98916 0.61335 0.0
C107 C 0.40541 0.01571 0.57491 0.0
O108 O 0.39953 0.99769 0.58555 0.0
O109 O 0.42504 0.01797 0.56644 0.0
O110 O 0.23404 0.37831 0.7172 0.0
Cd111 Cd 0.20062 0.34799 0.71345 0.0
O112 O 0.25105 0.36474 0.74909 0.0
Cd113 Cd 0.21972 0.34159 0.75426 0.0
O114 O 0.19089 0.32688 0.77269 0.0
C115 C 0.17508 0.33852 0.77672 0.0
O116 O 0.17576 0.3587 0.76839 0.0
C117 C 0.25163 0.37891 0.73302 0.0
C118 C 0.21084 0.31282 0.68586 0.0
O119 O 0.20095 0.32877 0.67659 0.0
O120 O 0.21549 0.3132 0.70833 0.0
O121 O 0.8242 0.26525 0.79522 0.0
Cd122 Cd 0.78297 0.2665 0.78052 0.0
O123 O 0.82317 0.23058 0.78179 0.0
Cd124 Cd 0.78569 0.22403 0.76863 0.0
O125 O 0.75588 0.19697 0.76638 0.0
C126 C 0.76222 0.17818 0.77159 0.0
O127 O 0.78481 0.17728 0.77689 0.0
C128 C 0.83452 0.24833 0.79246 0.0
C129 C 0.77727 0.28511 0.73649 0.0
O130 O 0.7808 0.29759 0.75537 0.0
O131 O 0.77658 0.2639 0.73849 0.0
O132 O 0.54076 0.54622 0.46474 0.0
Cd133 Cd 0.53745 0.50721 0.47672 0.0
O134 O 0.53831 0.55873 0.50055 0.0
Cd135 Cd 0.53314 0.52663 0.51732 0.0
O136 O 0.51859 0.51368 0.5484 0.0
C137 C 0.49637 0.51043 0.54805 0.0
O138 O 0.48299 0.51267 0.52823 0.0
C139 C 0.54044 0.56248 0.47916 0.0
C140 C 0.57974 0.48955 0.48414 0.0
O141 O 0.56767 0.48838 0.4637 0.0
O142 O 0.57209 0.49952 0.50093 0.0
O143 O 0.61855 0.49945 0.0278 0.0
Cd144 Cd 0.59591 0.46401 0.01103 0.0
O145 O 0.5925 0.51354 0.00418 0.0
Cd146 Cd 0.57333 0.53706 0.98407 0.0
O147 O 0.54828 0.54484 0.95482 0.0
C148 C 0.53023 0.53012 0.9493 0.0
O149 O 0.52742 0.51234 0.96208 0.0
C150 C 0.61144 0.51658 0.01851 0.0
C151 C 0.57599 0.43291 0.04072 0.0
O152 O 0.59744 0.43367 0.03692 0.0
O153 O 0.56423 0.4476 0.03132 0.0
O154 O 0.72563 0.22436 0.3286 0.0
Cd155 Cd 0.71632 0.19837 0.29414 0.0
O156 O 0.689 0.23063 0.32763 0.0
Cd157 Cd 0.67447 0.21224 0.29466 0.0
O158 O 0.64722 0.20842 0.26429 0.0
C159 C 0.63309 0.22273 0.26391 0.0
O160 O 0.63607 0.23797 0.2812 0.0
C161 C 0.71023 0.23372 0.33743 0.0
C162 C 0.7526 0.1734 0.28886 0.0
O163 O 0.73687 0.16693 0.30211 0.0
O164 O 0.75122 0.19169 0.27816 0.0
O165 O 0.46145 0.00384 0.94988 0.0
Cd166 Cd 0.43735 0.02114 0.97529 0.0
O167 O 0.4874 0.99633 0.97892 0.0
Cd168 Cd 0.47041 0.01263 0.00497 0.0
O169 O 0.46138 0.04099 0.02438 0.0
C170 C 0.47716 0.05817 0.02687 0.0
O171 O 0.49711 0.05708 0.01853 0.0
C172 C 0.48007 0.99575 0.95702 0.0
C173 C 0.40132 0.99091 0.98998 0.0
O174 O 0.39802 0.00113 0.97076 0.0
O175 O 0.42172 0.99487 0.00215 0.0
Mg176 Mg 0.21634 0.85246 0.02926 0.0
O177 O 0.25232 0.87458 0.02907 0.0
O178 O 0.2804 0.85324 0.03814 0.0
Mg179 Mg 0.26283 0.81762 0.04319 0.0
C180 C 0.27401 0.87206 0.03275 0.0
C181 C 0.18067 0.87835 0.99694 0.0
O182 O 0.17451 0.85884 0.98549 0.0
O183 O 0.21992 0.83679 0.99325 0.0
O184 O 0.24798 0.81579 0.00407 0.0
O185 O 0.21786 0.85916 0.06795 0.0
O186 O 0.23177 0.83086 0.05244 0.0
C187 C 0.23352 0.82292 0.98833 0.0
C188 C 0.22894 0.84209 0.07096 0.0
O189 O 0.19742 0.88061 0.01383 0.0
Mg190 Mg 0.13805 0.5063 0.29543 0.0
O191 O 0.11635 0.50638 0.25892 0.0
O192 O 0.1421 0.51093 0.23282 0.0
Mg193 Mg 0.17957 0.51538 0.25217 0.0
C194 C 0.12101 0.50811 0.23778 0.0
C195 C 0.10634 0.47968 0.32875 0.0
O196 O 0.12631 0.47222 0.33512 0.0
O197 O 0.14677 0.47111 0.28773 0.0
O198 O 0.17393 0.47892 0.26346 0.0
O199 O 0.1403 0.54364 0.29936 0.0
O200 O 0.16632 0.52652 0.28395 0.0
C201 C 0.16198 0.46505 0.27552 0.0
C202 C 0.1592 0.54501 0.28926 0.0
O203 O 0.10511 0.49291 0.31182 0.0
Mg204 Mg 0.78158 0.68443 0.0484 0.0
O205 O 0.74655 0.66035 0.0433 0.0
O206 O 0.71722 0.68036 0.03502 0.0
Mg207 Mg 0.73323 0.71729 0.03477 0.0
C208 C 0.72465 0.66164 0.03851 0.0
C209 C 0.81752 0.65223 0.03483 0.0
O210 O 0.82249 0.66772 0.01974 0.0
O211 O 0.77977 0.68877 0.00852 0.0
O212 O 0.75093 0.70984 0.00248 0.0
O213 O 0.77786 0.69029 0.08654 0.0
O214 O 0.76448 0.71072 0.05792 0.0
C215 C 0.76667 0.69976 0.99498 0.0
C216 C 0.76651 0.70652 0.07988 0.0
O217 O 0.80173 0.65433 0.04794 0.0
Mg218 Mg 0.91631 0.05897 0.23765 0.0
O219 O 0.89208 0.02488 0.23198 0.0
O220 O 0.91472 0.99835 0.22812 0.0
Mg221 Mg 0.95301 0.01479 0.23168 0.0
C222 C 0.89455 0.00435 0.22874 0.0
C223 C 0.8843 0.0849 0.26732 0.0
O224 O 0.90153 0.08463 0.28449 0.0
O225 O 0.9283 0.05085 0.27574 0.0
O226 O 0.95085 0.02454 0.27009 0.0
O227 O 0.91483 0.06242 0.19867 0.0
O228 O 0.94152 0.04639 0.22024 0.0
C229 C 0.94182 0.037 0.28363 0.0
C230 C 0.93273 0.0517 0.19977 0.0
O231 O 0.88547 0.07572 0.24739 0.0
Mg232 Mg 0.28276 0.18186 0.547 0.0
O233 O 0.24716 0.15838 0.54296 0.0
O234 O 0.21868 0.17949 0.53479 0.0
Mg235 Mg 0.23548 0.21599 0.53335 0.0
C236 C 0.2254 0.16048 0.5385 0.0
C237 C 0.30268 0.13836 0.56267 0.0
O238 O 0.29058 0.14185 0.57995 0.0
O239 O 0.28002 0.18486 0.5069 0.0
O240 O 0.25181 0.20653 0.5009 0.0
O241 O 0.28073 0.18852 0.5854 0.0
O242 O 0.26587 0.20829 0.55691 0.0
C243 C 0.26684 0.19563 0.49326 0.0
C244 C 0.26859 0.20424 0.57893 0.0
O245 O 0.30268 0.15171 0.5458 0.0
Mg246 Mg 0.42195 0.54755 0.73839 0.0
O247 O 0.39614 0.51452 0.7362 0.0
O248 O 0.41685 0.48636 0.73278 0.0
Mg249 Mg 0.45543 0.50108 0.73278 0.0
C250 C 0.39739 0.49359 0.73417 0.0
C251 C 0.40078 0.58409 0.76405 0.0
O252 O 0.42336 0.58998 0.7712 0.0
O253 O 0.43589 0.54118 0.77616 0.0
O254 O 0.45686 0.51348 0.77126 0.0
O255 O 0.41689 0.54876 0.69931 0.0
O256 O 0.44424 0.53228 0.71946 0.0
C257 C 0.44925 0.52739 0.78446 0.0
C258 C 0.43373 0.53677 0.69934 0.0
O259 O 0.39418 0.56674 0.7505 0.0
Mg260 Mg 0.7295 0.3531 0.5327 0.0
O261 O 0.7652 0.37502 0.53063 0.0
O262 O 0.79325 0.35374 0.54053 0.0
Mg263 Mg 0.77595 0.31853 0.54784 0.0
C264 C 0.78683 0.37233 0.53424 0.0
C265 C 0.7113 0.39894 0.52378 0.0
O266 O 0.7265 0.4045 0.54274 0.0
O267 O 0.7327 0.3355 0.49786 0.0
O268 O 0.75987 0.31366 0.50893 0.0
O269 O 0.73121 0.36144 0.57126 0.0
O270 O 0.74536 0.33281 0.55681 0.0
C271 C 0.74523 0.32059 0.4932 0.0
C272 C 0.74228 0.34442 0.57494 0.0
O273 O 0.70933 0.37926 0.51456 0.0
Mg274 Mg 0.62994 0.00248 0.81064 0.0
O275 O 0.60775 0.99875 0.77413 0.0
O276 O 0.63283 0.99794 0.74763 0.0
Mg277 Mg 0.67046 0.00255 0.76654 0.0
C278 C 0.61195 0.99724 0.75285 0.0
C279 C 0.59673 0.98003 0.84553 0.0
O280 O 0.61556 0.97085 0.85236 0.0
O281 O 0.63691 0.96611 0.80846 0.0
O282 O 0.66346 0.96826 0.78318 0.0
O283 O 0.63368 0.03981 0.80905 0.0
O284 O 0.65858 0.01938 0.79632 0.0
C285 C 0.65125 0.9572 0.79733 0.0
C286 C 0.65222 0.03881 0.79881 0.0
O287 O 0.59694 0.99299 0.82835 0.0
Mg288 Mg 0.03658 0.26244 0.92585 0.0
O289 O 0.00169 0.25418 0.90124 0.0
O290 O 0.97577 0.23488 0.92188 0.0
Mg291 Mg 0.9936 0.23153 0.9592 0.0
C292 C 0.98112 0.24382 0.90292 0.0
C293 C 0.07445 0.28683 0.90164 0.0
O294 O 0.08474 0.2764 0.91898 0.0
O295 O 0.02135 0.28991 0.94394 0.0
O296 O 0.99644 0.27004 0.96512 0.0
O297 O 0.0478 0.23038 0.91572 0.0
O298 O 0.02753 0.23429 0.94531 0.0
C299 C 0.00639 0.28883 0.9586 0.0
C300 C 0.03697 0.22131 0.93231 0.0
O301 O 0.05223 0.28592 0.8996 0.0
Mg302 Mg 0.54106 0.76356 0.42333 0.0
O303 O 0.5059 0.75636 0.39904 0.0
O304 O 0.47928 0.73911 0.42028 0.0
Mg305 Mg 0.49707 0.73599 0.45771 0.0
C306 C 0.48495 0.74719 0.40104 0.0
C307 C 0.57977 0.78632 0.39894 0.0
O308 O 0.5897 0.77629 0.41681 0.0
O309 O 0.52757 0.79254 0.44064 0.0
O310 O 0.50188 0.77476 0.4625 0.0
O311 O 0.55018 0.73026 0.41418 0.0
O312 O 0.53089 0.73664 0.4439 0.0
C313 C 0.51275 0.79284 0.45533 0.0
C314 C 0.53932 0.72251 0.43134 0.0
O315 O 0.55756 0.78557 0.39641 0.0
Mg316 Mg 0.96906 0.74422 0.60571 0.0
O317 O 0.00233 0.73898 0.62978 0.0
O318 O 0.02856 0.72919 0.6076 0.0
Mg319 Mg 0.01218 0.72857 0.56913 0.0
C320 C 0.02252 0.73363 0.62764 0.0
C321 C 0.93452 0.75204 0.64047 0.0
O322 O 0.9219 0.73669 0.62562 0.0
O323 O 0.98843 0.7781 0.59637 0.0
O324 O 0.01327 0.76665 0.57343 0.0
O325 O 0.95489 0.70751 0.60567 0.0
O326 O 0.97686 0.72283 0.57981 0.0
C327 C 0.00476 0.78228 0.58332 0.0
C328 C 0.96601 0.70504 0.58779 0.0
O329 O 0.9554 0.75957 0.63693 0.0
Mg330 Mg 0.45676 0.24847 0.10621 0.0
O331 O 0.48939 0.23969 0.12949 0.0
O332 O 0.51346 0.228 0.10581 0.0
Mg333 Mg 0.49734 0.23061 0.06782 0.0
C334 C 0.50839 0.23224 0.12632 0.0
C335 C 0.44338 0.25519 0.15712 0.0
O336 O 0.45265 0.23666 0.16005 0.0
O337 O 0.47855 0.28157 0.0979 0.0
O338 O 0.50206 0.26876 0.07436 0.0
O339 O 0.43995 0.21256 0.10556 0.0
O340 O 0.46255 0.22667 0.07962 0.0
C341 C 0.49511 0.28491 0.08501 0.0
C342 C 0.45098 0.20935 0.08779 0.0
O343 O 0.44353 0.26457 0.13748 0.0
H344 H 0.20931 0.78104 0.83802 0.0
H345 H 0.25059 0.73515 0.8743 0.0
H346 H 0.20876 0.80132 0.87533 0.0
H347 H 0.24959 0.75488 0.91148 0.0
H348 H 0.26869 0.80736 0.96902 0.0
H349 H 0.26712 0.78959 0.93042 0.0
H350 H 0.19474 0.80011 0.91361 0.0
H351 H 0.19667 0.81883 0.95238 0.0
C352 C 0.21779 0.77498 0.85402 0.0
C353 C 0.22994 0.75647 0.85327 0.0
C354 C 0.21754 0.78665 0.87539 0.0
C355 C 0.22939 0.77994 0.8964 0.0
C356 C 0.24081 0.76092 0.8956 0.0
C357 C 0.24126 0.74948 0.87431 0.0
C358 C 0.25245 0.80603 0.95707 0.0
C359 C 0.2327 0.81424 0.96386 0.0
C360 C 0.25148 0.79567 0.93495 0.0
C361 C 0.23062 0.79289 0.91907 0.0
C362 C 0.2111 0.80196 0.92542 0.0
C363 C 0.21217 0.81265 0.94761 0.0
H364 H 0.98336 0.48477 0.40258 0.0
H365 H 0.04422 0.48415 0.45444 0.0
H366 H 0.00644 0.47643 0.37153 0.0
H367 H 0.06731 0.47645 0.42353 0.0
H368 H 0.10315 0.45243 0.36606 0.0
H369 H 0.07448 0.45061 0.3939 0.0
H370 H 0.0376 0.49716 0.35322 0.0
H371 H 0.06582 0.49847 0.32507 0.0
C372 C 0.00156 0.48261 0.4074 0.0
C373 C 0.01197 0.48533 0.431 0.0
C374 C 0.01484 0.47796 0.38959 0.0
C375 C 0.0388 0.47592 0.39497 0.0
C376 C 0.04885 0.47762 0.4187 0.0
C377 C 0.03561 0.48222 0.43647 0.0
C378 C 0.08868 0.46196 0.36282 0.0
C379 C 0.08697 0.47582 0.34349 0.0
C380 C 0.07231 0.46102 0.37887 0.0
C381 C 0.0539 0.47399 0.37603 0.0
C382 C 0.05141 0.4868 0.35591 0.0
C383 C 0.06771 0.48766 0.3398 0.0
H384 H 0.82851 0.73784 0.86707 0.0
H385 H 0.7805 0.78337 0.88139 0.0
H386 H 0.81442 0.71345 0.89737 0.0
H387 H 0.76656 0.7593 0.91157 0.0
H388 H 0.736 0.70959 0.95808 0.0
H389 H 0.7455 0.72421 0.92069 0.0
H390 H 0.81792 0.7147 0.93964 0.0
H391 H 0.80815 0.69934 0.97678 0.0
C392 C 0.81467 0.74246 0.87643 0.0
C393 C 0.80534 0.76238 0.87154 0.0
C394 C 0.80669 0.72854 0.89386 0.0
C395 C 0.7893 0.73432 0.90692 0.0
C396 C 0.77955 0.75396 0.90152 0.0
C397 C 0.78748 0.7678 0.88406 0.0
C398 C 0.75383 0.71012 0.95402 0.0
C399 C 0.7714 0.7036 0.97051 0.0
C400 C 0.75933 0.71867 0.93264 0.0
C401 C 0.78259 0.72116 0.92735 0.0
C402 C 0.79979 0.71298 0.94306 0.0
C403 C 0.79421 0.70417 0.9644 0.0
H404 H 0.00321 0.0614 0.4321 0.0
H405 H 0.03901 0.01422 0.3981 0.0
H406 H 0.97476 0.0606 0.39654 0.0
H407 H 0.01131 0.01389 0.36275 0.0
H408 H 0.95097 0.00074 0.30816 0.0
H409 H 0.97139 0.0006 0.34788 0.0
H410 H 0.97172 0.07211 0.35594 0.0
H411 H 0.95024 0.07196 0.31633 0.0
C412 C 0.00507 0.05095 0.41704 0.0
C413 C 0.02331 0.03781 0.41795 0.0
C414 C 0.9888 0.05052 0.39668 0.0
C415 C 0.99052 0.03693 0.37688 0.0
C416 C 0.00899 0.02407 0.37784 0.0
C417 C 0.02508 0.02443 0.3981 0.0
C418 C 0.95491 0.01633 0.31865 0.0
C419 C 0.94932 0.0364 0.30912 0.0
C420 C 0.9668 0.01631 0.34133 0.0
C421 C 0.97383 0.03646 0.35485 0.0
C422 C 0.9666 0.0563 0.346 0.0
C423 C 0.9543 0.05624 0.32333 0.0
H424 H 0.22864 0.27482 0.69991 0.0
H425 H 0.20818 0.31058 0.63808 0.0
H426 H 0.24072 0.24623 0.67515 0.0
H427 H 0.22094 0.28262 0.61351 0.0
H428 H 0.22701 0.22089 0.57202 0.0
H429 H 0.2115 0.24507 0.59862 0.0
H430 H 0.27078 0.24079 0.65138 0.0
H431 H 0.28595 0.21595 0.62466 0.0
C432 C 0.22671 0.27657 0.68104 0.0
C433 C 0.21741 0.29496 0.67096 0.0
C434 C 0.23378 0.26026 0.66685 0.0
C435 C 0.2318 0.26204 0.64229 0.0
C436 C 0.22232 0.28039 0.63228 0.0
C437 C 0.21512 0.29656 0.64641 0.0
C438 C 0.2368 0.22515 0.58921 0.0
C439 C 0.25798 0.21695 0.59604 0.0
C440 C 0.22788 0.23904 0.60454 0.0
C441 C 0.24009 0.2453 0.62703 0.0
C442 C 0.26081 0.23626 0.63425 0.0
C443 C 0.26957 0.22209 0.61894 0.0
H444 H 0.5195 0.5135 0.59281 0.0
H445 H 0.44971 0.50285 0.55373 0.0
H446 H 0.50264 0.51636 0.62923 0.0
H447 H 0.43271 0.50494 0.59038 0.0
H448 H 0.41592 0.54483 0.65448 0.0
H449 H 0.42974 0.53422 0.61807 0.0
H450 H 0.48041 0.49867 0.65744 0.0
H451 H 0.46733 0.51017 0.69386 0.0
C452 C 0.50051 0.51124 0.59203 0.0
C453 C 0.48596 0.50822 0.57033 0.0
C454 C 0.4908 0.51277 0.61299 0.0
C455 C 0.46628 0.51112 0.61277 0.0
C456 C 0.45168 0.50676 0.59115 0.0
C457 C 0.46142 0.50539 0.57015 0.0
C458 C 0.42987 0.53459 0.65535 0.0
C459 C 0.44057 0.52845 0.67712 0.0
C460 C 0.43768 0.52832 0.63442 0.0
C461 C 0.45628 0.51563 0.63477 0.0
C462 C 0.46632 0.50875 0.65652 0.0
C463 C 0.45865 0.51519 0.67744 0.0
H464 H 0.78177 0.32953 0.72606 0.0
H465 H 0.76469 0.26265 0.69396 0.0
H466 H 0.77563 0.34534 0.68734 0.0
H467 H 0.75784 0.27836 0.65551 0.0
H468 H 0.76738 0.31059 0.58755 0.0
H469 H 0.77791 0.29782 0.62668 0.0
H470 H 0.74486 0.34982 0.6562 0.0
H471 H 0.73519 0.36329 0.61686 0.0
C472 C 0.77664 0.31821 0.71075 0.0
C473 C 0.77377 0.29483 0.71307 0.0
C474 C 0.773 0.32727 0.68858 0.0
C475 C 0.76632 0.31315 0.66826 0.0
C476 C 0.76344 0.28977 0.67068 0.0
C477 C 0.76721 0.28073 0.69278 0.0
C478 C 0.76271 0.31962 0.60234 0.0
C479 C 0.75046 0.33801 0.59901 0.0
C480 C 0.76852 0.31209 0.62484 0.0
C481 C 0.76197 0.32257 0.64461 0.0
C482 C 0.75036 0.34144 0.64139 0.0
C483 C 0.74472 0.34911 0.61883 0.0
H484 H 0.47812 0.98297 0.65918 0.0
H485 H 0.53249 0.00444 0.61599 0.0
H486 H 0.50791 0.98486 0.69365 0.0
H487 H 0.56205 0.00728 0.65037 0.0
H488 H 0.56748 0.00754 0.7543 0.0
H489 H 0.53636 0.00758 0.72134 0.0
H490 H 0.58068 0.98253 0.67472 0.0
H491 H 0.61189 0.98335 0.70731 0.0
C492 C 0.49637 0.98855 0.65715 0.0
C493 C 0.50299 0.99334 0.63483 0.0
C494 C 0.51347 0.98967 0.67691 0.0
C495 C 0.5375 0.99584 0.67478 0.0
C496 C 0.54384 0.00179 0.65261 0.0
C497 C 0.52685 0.00037 0.63289 0.0
C498 C 0.57049 0.00195 0.73701 0.0
C499 C 0.59224 0.9956 0.73341 0.0
C500 C 0.55262 0.00193 0.7181 0.0
C501 C 0.55605 0.99536 0.69523 0.0
C502 C 0.57758 0.98833 0.6919 0.0
C503 C 0.59547 0.9886 0.71067 0.0
H504 H 0.85912 0.21292 0.79579 0.0
H505 H 0.86531 0.28357 0.81475 0.0
H506 H 0.897 0.21138 0.81908 0.0
H507 H 0.90334 0.28191 0.83802 0.0
H508 H 0.97893 0.2725 0.8666 0.0
H509 H 0.94564 0.2738 0.836 0.0
H510 H 0.90761 0.21533 0.86353 0.0
H511 H 0.94059 0.21408 0.8941 0.0
C512 C 0.86871 0.22823 0.80457 0.0
C513 C 0.85903 0.24833 0.80362 0.0
C514 C 0.89038 0.22729 0.81797 0.0
C515 C 0.90297 0.24647 0.83049 0.0
C516 C 0.89404 0.26689 0.82842 0.0
C517 C 0.87221 0.2678 0.8152 0.0
C518 C 0.96359 0.25973 0.86587 0.0
C519 C 0.96232 0.24324 0.88282 0.0
C520 C 0.94454 0.26057 0.84846 0.0
C521 C 0.92409 0.24468 0.84743 0.0
C522 C 0.92324 0.22767 0.86377 0.0
C523 C 0.94208 0.22704 0.88136 0.0
H524 H 0.45473 0.90526 0.51339 0.0
H525 H 0.52949 0.92741 0.51651 0.0
H526 H 0.4591 0.87029 0.49316 0.0
H527 H 0.5339 0.89245 0.49679 0.0
H528 H 0.53182 0.83496 0.4441 0.0
H529 H 0.52477 0.87092 0.45975 0.0
H530 H 0.47625 0.8365 0.50306 0.0
H531 H 0.48291 0.80054 0.48712 0.0
C532 C 0.47205 0.90275 0.50963 0.0
C533 C 0.49177 0.9191 0.51665 0.0
C534 C 0.47459 0.88265 0.49818 0.0
C535 C 0.49687 0.87851 0.49345 0.0
C536 C 0.51644 0.89516 0.4999 0.0
C537 C 0.51392 0.91519 0.51135 0.0
C538 C 0.51957 0.83502 0.45689 0.0
C539 C 0.50805 0.81479 0.46442 0.0
C540 C 0.51559 0.85567 0.46593 0.0
C541 C 0.49999 0.85661 0.48272 0.0
C542 C 0.48815 0.83641 0.48994 0.0
C543 C 0.49213 0.81575 0.48091 0.0
H544 H 0.17136 0.29919 0.79959 0.0
H545 H 0.13994 0.35974 0.79043 0.0
H546 H 0.14585 0.28768 0.82916 0.0
H547 H 0.1145 0.3482 0.82028 0.0
H548 H 0.05864 0.30614 0.86085 0.0
H549 H 0.0815 0.31862 0.82914 0.0
H550 H 0.14425 0.30207 0.8697 0.0
H551 H 0.12164 0.28958 0.90112 0.0
C552 C 0.1589 0.30998 0.80374 0.0
C553 C 0.15786 0.33049 0.7928 0.0
C554 C 0.14438 0.30344 0.82079 0.0
C555 C 0.12843 0.3172 0.82726 0.0
C556 C 0.12661 0.33724 0.81562 0.0
C557 C 0.14124 0.34386 0.79859 0.0
C558 C 0.07736 0.3054 0.86306 0.0
C559 C 0.08829 0.29672 0.88343 0.0
C560 C 0.09042 0.31254 0.84492 0.0
C561 C 0.11457 0.31097 0.84681 0.0
C562 C 0.12557 0.30302 0.86752 0.0
C563 C 0.11261 0.29602 0.88561 0.0
H564 H 0.53641 0.5767 0.43386 0.0
H565 H 0.54568 0.60096 0.5064 0.0
H566 H 0.53438 0.61484 0.42113 0.0
H567 H 0.54431 0.63895 0.49376 0.0
H568 H 0.51729 0.70072 0.46574 0.0
H569 H 0.51691 0.6617 0.47606 0.0
H570 H 0.55771 0.65108 0.41977 0.0
H571 H 0.55738 0.68985 0.40898 0.0
C572 C 0.5383 0.59018 0.44708 0.0
C573 C 0.54113 0.58575 0.47114 0.0
C574 C 0.53716 0.61206 0.43979 0.0
C575 C 0.53893 0.62997 0.45642 0.0
C576 C 0.54231 0.62553 0.48046 0.0
C577 C 0.54332 0.60372 0.48771 0.0
C578 C 0.5259 0.68999 0.45538 0.0
C579 C 0.53738 0.69842 0.43656 0.0
C580 C 0.5259 0.66765 0.46143 0.0
C581 C 0.53751 0.65327 0.44891 0.0
C582 C 0.54841 0.66158 0.42967 0.0
C583 C 0.54831 0.68387 0.42355 0.0
H584 H 0.84739 0.78988 0.7438 0.0
H585 H 0.91535 0.78704 0.78357 0.0
H586 H 0.86268 0.78045 0.70773 0.0
H587 H 0.93049 0.77717 0.74755 0.0
H588 H 0.95629 0.78239 0.67555 0.0
H589 H 0.94076 0.79338 0.711 0.0
H590 H 0.87576 0.74895 0.68885 0.0
H591 H 0.89104 0.73832 0.65325 0.0
C592 C 0.86556 0.78712 0.74487 0.0
C593 C 0.88014 0.78919 0.76657 0.0
C594 C 0.8743 0.78163 0.7242 0.0
C595 C 0.89782 0.77807 0.72475 0.0
C596 C 0.91239 0.78011 0.74646 0.0
C597 C 0.90365 0.7856 0.76714 0.0
C598 C 0.93864 0.77507 0.67818 0.0
C599 C 0.92492 0.75946 0.66157 0.0
C600 C 0.9298 0.78125 0.69858 0.0
C601 C 0.90705 0.77199 0.7028 0.0
C602 C 0.89324 0.75661 0.68602 0.0
C603 C 0.90207 0.75042 0.66565 0.0
H604 H 0.09593 0.90297 0.55441 0.0
H605 H 0.02634 0.92196 0.54676 0.0
H606 H 0.08047 0.8673 0.56979 0.0
H607 H 0.01072 0.88593 0.56152 0.0
H608 H 0.9924 0.82134 0.60069 0.0
H609 H 0.00942 0.85992 0.59389 0.0
H610 H 0.05624 0.83469 0.55025 0.0
H611 H 0.03982 0.79662 0.55728 0.0
C612 C 0.07737 0.89963 0.55626 0.0
C613 C 0.0623 0.91515 0.54908 0.0
C614 C 0.06848 0.87914 0.56496 0.0
C615 C 0.04428 0.87359 0.56644 0.0
C616 C 0.02945 0.8897 0.56068 0.0
C617 C 0.0384 0.91033 0.55213 0.0
C618 C 0.0064 0.82408 0.58974 0.0
C619 C 0.0147 0.80583 0.57954 0.0
C620 C 0.0161 0.84617 0.58582 0.0
C621 C 0.03435 0.85038 0.57172 0.0
C622 C 0.0426 0.8321 0.56164 0.0
C623 C 0.03296 0.81017 0.56551 0.0
H624 H 0.1539 0.76594 0.71758 0.0
H625 H 0.10626 0.74303 0.76724 0.0
H626 H 0.12166 0.75869 0.68561 0.0
H627 H 0.07394 0.73529 0.73502 0.0
H628 H 0.01878 0.74811 0.6725 0.0
H629 H 0.0496 0.75385 0.70606 0.0
H630 H 0.09707 0.72685 0.6645 0.0
H631 H 0.06652 0.72157 0.63081 0.0
C632 C 0.13653 0.75935 0.72169 0.0
C633 C 0.13267 0.755 0.74496 0.0
C634 C 0.11806 0.755 0.70331 0.0
C635 C 0.09527 0.74613 0.70771 0.0
C636 C 0.09127 0.74222 0.73105 0.0
C637 C 0.10979 0.74662 0.74951 0.0
C638 C 0.03571 0.74316 0.67057 0.0
C639 C 0.04021 0.73455 0.64884 0.0
C640 C 0.05336 0.74641 0.68986 0.0
C641 C 0.07589 0.74108 0.68788 0.0
C642 C 0.08006 0.7316 0.66646 0.0
C643 C 0.06247 0.72841 0.64718 0.0
H644 H 0.98465 0.56687 0.55596 0.0
H645 H 0.963 0.59405 0.489 0.0
H646 H 0.98026 0.60198 0.57599 0.0
H647 H 0.95825 0.62877 0.50897 0.0
H648 H 0.98385 0.69591 0.54762 0.0
H649 H 0.98554 0.65955 0.52952 0.0
H650 H 0.95151 0.62686 0.5851 0.0
H651 H 0.9503 0.66361 0.60371 0.0
C652 C 0.97869 0.5802 0.54555 0.0
C653 C 0.97444 0.57777 0.52087 0.0
C654 C 0.97608 0.60027 0.55703 0.0
C655 C 0.96919 0.61824 0.54403 0.0
C656 C 0.96406 0.61541 0.51945 0.0
C657 C 0.96668 0.59544 0.50801 0.0
C658 C 0.97689 0.68103 0.55616 0.0
C659 C 0.96706 0.68267 0.5772 0.0
C660 C 0.97762 0.66015 0.54561 0.0
C661 C 0.96848 0.64031 0.55575 0.0
C662 C 0.95881 0.64186 0.57693 0.0
C663 C 0.95802 0.66287 0.58752 0.0
H664 H 0.75651 0.91926 0.20323 0.0
H665 H 0.80052 0.88587 0.25322 0.0
H666 H 0.78968 0.94901 0.20092 0.0
H667 H 0.83336 0.91551 0.25099 0.0
H668 H 0.89342 0.95903 0.2236 0.0
H669 H 0.85958 0.92978 0.22209 0.0
H670 H 0.81421 0.98002 0.22732 0.0
H671 H 0.84815 0.00956 0.22864 0.0
C672 C 0.77324 0.91821 0.21364 0.0
C673 C 0.77587 0.90018 0.2284 0.0
C674 C 0.79216 0.9353 0.21241 0.0
C675 C 0.81411 0.93454 0.22572 0.0
C676 C 0.81675 0.91642 0.24029 0.0
C677 C 0.79786 0.89948 0.24166 0.0
C678 C 0.87625 0.96396 0.22429 0.0
C679 C 0.87358 0.98671 0.22643 0.0
C680 C 0.85687 0.94713 0.22352 0.0
C681 C 0.83429 0.9526 0.22478 0.0
C682 C 0.8314 0.97532 0.22617 0.0
C683 C 0.85087 0.99222 0.22706 0.0
H684 H 0.78369 0.17855 0.25658 0.0
H685 H 0.76468 0.13811 0.31444 0.0
H686 H 0.81501 0.15646 0.25153 0.0
H687 H 0.79611 0.11608 0.30939 0.0
H688 H 0.87289 0.10124 0.30861 0.0
H689 H 0.84073 0.12222 0.31393 0.0
H690 H 0.81828 0.11668 0.23909 0.0
H691 H 0.85034 0.09566 0.2337 0.0
C692 C 0.7862 0.16497 0.26824 0.0
C693 C 0.77169 0.16008 0.2859 0.0
C694 C 0.80405 0.15224 0.26525 0.0
C695 C 0.80797 0.13452 0.28004 0.0
C696 C 0.79359 0.12974 0.29783 0.0
C697 C 0.77554 0.14229 0.30064 0.0
C698 C 0.86105 0.10441 0.2933 0.0
C699 C 0.86423 0.09681 0.27073 0.0
C700 C 0.84257 0.11633 0.29637 0.0
C701 C 0.82706 0.12116 0.27692 0.0
C702 C 0.83012 0.11341 0.25438 0.0
C703 C 0.8484 0.10126 0.25133 0.0
H704 H 0.4027 0.96747 0.03025 0.0
H705 H 0.35666 0.97819 0.9675 0.0
H706 H 0.37153 0.94048 0.04274 0.0
H707 H 0.32566 0.95085 0.97975 0.0
H708 H 0.26809 0.914 0.01754 0.0
H709 H 0.2985 0.94407 0.00894 0.0
H710 H 0.35191 0.90299 0.03075 0.0
H711 H 0.32176 0.87323 0.03979 0.0
C712 C 0.38593 0.96407 0.01911 0.0
C713 C 0.38221 0.9749 0.99782 0.0
C714 C 0.36809 0.94853 0.02623 0.0
C715 C 0.34611 0.94345 0.01222 0.0
C716 C 0.34227 0.95458 0.99112 0.0
C717 C 0.36011 0.97013 0.984 0.0
C718 C 0.28634 0.91147 0.02075 0.0
C719 C 0.29242 0.89112 0.02927 0.0
C720 C 0.30375 0.92866 0.01566 0.0
C721 C 0.32763 0.9259 0.01904 0.0
C722 C 0.33373 0.9058 0.02819 0.0
C723 C 0.31637 0.88865 0.03324 0.0
H724 H 0.21206 0.34896 0.3352 0.0
H725 H 0.21979 0.33962 0.26184 0.0
H726 H 0.19238 0.38127 0.32609 0.0
H727 H 0.19932 0.37155 0.25254 0.0
H728 H 0.14435 0.43084 0.30233 0.0
H729 H 0.15789 0.39454 0.30768 0.0
H730 H 0.20716 0.41114 0.2578 0.0
H731 H 0.19318 0.44677 0.25186 0.0
C732 C 0.20931 0.35364 0.31706 0.0
C733 C 0.2177 0.34182 0.29928 0.0
C734 C 0.1978 0.37209 0.31179 0.0
C735 C 0.19423 0.37911 0.28856 0.0
C736 C 0.20208 0.36687 0.27068 0.0
C737 C 0.21376 0.34851 0.27599 0.0
C738 C 0.15777 0.42655 0.29221 0.0
C739 C 0.16777 0.44186 0.2768 0.0
C740 C 0.16569 0.40581 0.29542 0.0
C741 C 0.1838 0.39994 0.28335 0.0
C742 C 0.19302 0.41488 0.26722 0.0
C743 C 0.18507 0.43549 0.26394 0.0
H744 H 0.10624 0.05873 0.49214 0.0
H745 H 0.14024 0.03061 0.55352 0.0
H746 H 0.13476 0.09275 0.49888 0.0
H747 H 0.16903 0.06473 0.56021 0.0
H748 H 0.2319 0.11669 0.54489 0.0
H749 H 0.20187 0.08348 0.54126 0.0
H750 H 0.14774 0.12529 0.52595 0.0
H751 H 0.17762 0.1584 0.52917 0.0
C752 C 0.11931 0.06004 0.50749 0.0
C753 C 0.12061 0.0421 0.52257 0.0
C754 C 0.13585 0.07952 0.51125 0.0
C755 C 0.15417 0.08147 0.5301 0.0
C756 C 0.15528 0.06366 0.54538 0.0
C757 C 0.1387 0.04418 0.54163 0.0
C758 C 0.21359 0.11882 0.54082 0.0
C759 C 0.20724 0.14025 0.5372 0.0
C760 C 0.19637 0.09979 0.53889 0.0
C761 C 0.17241 0.10174 0.53327 0.0
C762 C 0.16605 0.12318 0.52999 0.0
C763 C 0.18323 0.14218 0.53195 0.0
H764 H 0.77112 0.13668 0.78392 0.0
H765 H 0.71397 0.17349 0.76198 0.0
H766 H 0.74308 0.1034 0.78775 0.0
H767 H 0.68567 0.13971 0.76525 0.0
H768 H 0.64508 0.08238 0.80451 0.0
H769 H 0.67047 0.11618 0.79542 0.0
H770 H 0.71546 0.07515 0.76543 0.0
H771 H 0.6907 0.04154 0.77531 0.0
C772 C 0.75254 0.13762 0.77966 0.0
C773 C 0.7448 0.15778 0.77269 0.0
C774 C 0.73642 0.11843 0.78168 0.0
C775 C 0.71209 0.1188 0.77668 0.0
C776 C 0.70429 0.13891 0.76943 0.0
C777 C 0.72049 0.15822 0.76745 0.0
C778 C 0.66026 0.08059 0.79575 0.0
C779 C 0.66593 0.05924 0.79079 0.0
C780 C 0.67475 0.09998 0.79041 0.0
C781 C 0.69516 0.09839 0.77991 0.0
C782 C 0.70014 0.077 0.77395 0.0
C783 C 0.68579 0.05767 0.77944 0.0
H784 H 0.41425 0.05685 0.55587 0.0
H785 H 0.36155 0.01447 0.58825 0.0
H786 H 0.38907 0.08602 0.55235 0.0
H787 H 0.33611 0.04335 0.58416 0.0
H788 H 0.30876 0.10916 0.59783 0.0
H789 H 0.33331 0.07962 0.60029 0.0
H790 H 0.35316 0.09541 0.53174 0.0
H791 H 0.329 0.12547 0.52957 0.0
C792 C 0.39723 0.0537 0.56211 0.0
C793 C 0.38996 0.03335 0.57243 0.0
C794 C 0.3827 0.07037 0.55994 0.0
C795 C 0.36052 0.06709 0.56798 0.0
C796 C 0.35321 0.04663 0.57811 0.0
C797 C 0.36776 0.03 0.58035 0.0
C798 C 0.31828 0.10632 0.58322 0.0
C799 C 0.31692 0.11974 0.56351 0.0
C800 C 0.33229 0.08925 0.58458 0.0
C801 C 0.34525 0.08506 0.56621 0.0
C802 C 0.3437 0.09835 0.54637 0.0
C803 C 0.32971 0.1155 0.54504 0.0
H804 H 0.6073 0.48677 0.526 0.0
H805 H 0.60084 0.46785 0.45211 0.0
H806 H 0.64074 0.46658 0.5337 0.0
H807 H 0.63473 0.44808 0.45972 0.0
H808 H 0.67391 0.39071 0.48884 0.0
H809 H 0.64389 0.41437 0.47809 0.0
H810 H 0.68109 0.46598 0.52821 0.0
H811 H 0.71082 0.44206 0.53939 0.0
C812 C 0.61321 0.47856 0.51133 0.0
C813 C 0.60129 0.47883 0.48846 0.0
C814 C 0.63252 0.46708 0.51573 0.0
C815 C 0.64045 0.45563 0.49734 0.0
C816 C 0.6289 0.45643 0.47435 0.0
C817 C 0.60954 0.46788 0.46996 0.0
C818 C 0.67585 0.40721 0.49738 0.0
C819 C 0.69468 0.41439 0.51513 0.0
C820 C 0.65866 0.42085 0.49113 0.0
C821 C 0.65992 0.44205 0.50241 0.0
C822 C 0.67931 0.44959 0.51947 0.0
C823 C 0.69645 0.43592 0.52577 0.0
H824 H 0.75408 0.24643 0.36225 0.0
H825 H 0.68089 0.25377 0.36192 0.0
H826 H 0.76414 0.26973 0.39851 0.0
H827 H 0.69083 0.27643 0.3983 0.0
H828 H 0.71714 0.33112 0.45404 0.0
H829 H 0.71035 0.31212 0.41526 0.0
H830 H 0.75899 0.26699 0.43937 0.0
H831 H 0.76629 0.28627 0.47778 0.0
C832 C 0.74014 0.25298 0.3699 0.0
C833 C 0.71667 0.24815 0.35921 0.0
C834 C 0.74589 0.26627 0.39073 0.0
C835 C 0.72829 0.27497 0.40134 0.0
C836 C 0.70489 0.27034 0.39044 0.0
C837 C 0.69917 0.25716 0.36964 0.0
C838 C 0.72655 0.31728 0.45101 0.0
C839 C 0.74213 0.31015 0.46912 0.0
C840 C 0.72256 0.3063 0.4288 0.0
C841 C 0.734 0.28792 0.42423 0.0
C842 C 0.75009 0.28124 0.44215 0.0
C843 C 0.75414 0.29224 0.46429 0.0
H844 H 0.46885 0.99003 0.90921 0.0
H845 H 0.52394 0.98368 0.96581 0.0
H846 H 0.49454 0.98171 0.88064 0.0
H847 H 0.54982 0.97612 0.93734 0.0
H848 H 0.58974 0.95261 0.88219 0.0
H849 H 0.55903 0.95167 0.90775 0.0
H850 H 0.52824 0.00159 0.8664 0.0
H851 H 0.5584 0.00197 0.84049 0.0
C852 C 0.48636 0.98665 0.91558 0.0
C853 C 0.4944 0.98773 0.93981 0.0
C854 C 0.50115 0.98202 0.89918 0.0
C855 C 0.52438 0.9785 0.90662 0.0
C856 C 0.53199 0.9785 0.93091 0.0
C857 C 0.51715 0.98297 0.94729 0.0
C858 C 0.57621 0.96314 0.87837 0.0
C859 C 0.57666 0.97752 0.85942 0.0
C860 C 0.55866 0.96269 0.89311 0.0
C861 C 0.54124 0.9767 0.88932 0.0
C862 C 0.54116 0.99035 0.86974 0.0
C863 C 0.5586 0.99069 0.85493 0.0
H864 H 0.31914 0.25482 0.37459 0.0
H865 H 0.25004 0.22228 0.34445 0.0
H866 H 0.31564 0.23377 0.41007 0.0
H867 H 0.24685 0.20078 0.37964 0.0
H868 H 0.23449 0.20498 0.45787 0.0
H869 H 0.24045 0.21383 0.41791 0.0
H870 H 0.31146 0.19857 0.43098 0.0
H871 H 0.3055 0.18993 0.47158 0.0
C872 C 0.30348 0.24271 0.37524 0.0
C873 C 0.28465 0.24059 0.35689 0.0
C874 C 0.30154 0.23052 0.39556 0.0
C875 C 0.28078 0.21587 0.39788 0.0
C876 C 0.26285 0.21231 0.37864 0.0
C877 C 0.26472 0.2246 0.35842 0.0
C878 C 0.25128 0.20313 0.45218 0.0
C879 C 0.26962 0.19702 0.46799 0.0
C880 C 0.25464 0.20801 0.42912 0.0
C881 C 0.27647 0.20699 0.4212 0.0
C882 C 0.29449 0.19971 0.43662 0.0
C883 C 0.29104 0.19461 0.4598 0.0
H884 H 0.49372 0.49868 0.92995 0.0
H885 H 0.53051 0.5645 0.91881 0.0
H886 H 0.47053 0.49865 0.89143 0.0
H887 H 0.50722 0.56437 0.88018 0.0
H888 H 0.44931 0.56142 0.81706 0.0
H889 H 0.46556 0.56317 0.85873 0.0
H890 H 0.48311 0.49642 0.85113 0.0
H891 H 0.46707 0.49462 0.80973 0.0
C892 C 0.49666 0.51328 0.91945 0.0
C893 C 0.51418 0.53148 0.92733 0.0
C894 C 0.4834 0.51321 0.89736 0.0
C895 C 0.48723 0.53141 0.88276 0.0
C896 C 0.50381 0.55016 0.89114 0.0
C897 C 0.51723 0.55017 0.91319 0.0
C898 C 0.45639 0.54703 0.82438 0.0
C899 C 0.45704 0.52793 0.81007 0.0
C900 C 0.46577 0.5481 0.84817 0.0
C901 C 0.47557 0.52994 0.85813 0.0
C902 C 0.47545 0.51058 0.844 0.0
C903 C 0.4664 0.50963 0.82023 0.0
H904 H 0.69046 0.79945 0.1465 0.0
H905 H 0.74503 0.78623 0.20068 0.0
H906 H 0.701 0.77102 0.12066 0.0
H907 H 0.75622 0.75835 0.17452 0.0
H908 H 0.76214 0.69897 0.12632 0.0
H909 H 0.74626 0.72246 0.15388 0.0
H910 H 0.73247 0.76824 0.09866 0.0
H911 H 0.74759 0.74466 0.07129 0.0
C912 C 0.70469 0.79043 0.15291 0.0
C913 C 0.71704 0.79524 0.17556 0.0
C914 C 0.71084 0.7742 0.13805 0.0
C915 C 0.72969 0.76255 0.14535 0.0
C916 C 0.74148 0.7668 0.16835 0.0
C917 C 0.73516 0.7829 0.18332 0.0
C918 C 0.75548 0.71395 0.1201 0.0
C919 C 0.75601 0.71987 0.09659 0.0
C920 C 0.7465 0.72748 0.13589 0.0
C921 C 0.73798 0.74725 0.12851 0.0
C922 C 0.73835 0.75293 0.10492 0.0
C923 C 0.74717 0.73941 0.08918 0.0
H924 H 0.96639 0.02336 0.05832 0.0
H925 H 0.03266 0.03637 0.10383 0.0
H926 H 0.94534 0.02581 0.09232 0.0
H927 H 0.01176 0.03962 0.13759 0.0
H928 H 0.96961 0.02861 0.19716 0.0
H929 H 0.98746 0.02 0.16272 0.0
H930 H 0.93769 0.05365 0.11958 0.0
H931 H 0.91892 0.06124 0.1541 0.0
C932 C 0.97647 0.02663 0.07559 0.0
C933 C 0.00121 0.02971 0.07836 0.0
C934 C 0.96439 0.02822 0.09507 0.0
C935 C 0.9768 0.03304 0.11773 0.0
C936 C 0.00156 0.03554 0.1205 0.0
C937 C 0.01359 0.03379 0.10108 0.0
C938 C 0.9621 0.0338 0.18032 0.0
C939 C 0.94271 0.04552 0.17842 0.0
C940 C 0.97258 0.02909 0.16053 0.0
C941 C 0.9642 0.03629 0.13834 0.0
C942 C 0.94446 0.0476 0.13633 0.0
C943 C 0.93378 0.0521 0.15615 0.0
H944 H 0.26314 0.76735 0.19432 0.0
H945 H 0.28512 0.83627 0.21926 0.0
H946 H 0.25177 0.77983 0.15507 0.0
H947 H 0.27443 0.84878 0.17975 0.0
H948 H 0.22653 0.86308 0.11318 0.0
H949 H 0.24018 0.85165 0.1524 0.0
H950 H 0.26703 0.79609 0.12168 0.0
H951 H 0.25253 0.80694 0.08264 0.0
C952 C 0.2658 0.78517 0.19136 0.0
C953 C 0.27498 0.80082 0.20993 0.0
C954 C 0.2594 0.79234 0.16879 0.0
C955 C 0.26218 0.81533 0.16418 0.0
C956 C 0.27171 0.83097 0.18272 0.0
C957 C 0.27799 0.82379 0.20535 0.0
C958 C 0.23544 0.84848 0.1148 0.0
C959 C 0.23848 0.83597 0.09474 0.0
C960 C 0.24341 0.842 0.1373 0.0
C961 C 0.25469 0.8229 0.14025 0.0
C962 C 0.25811 0.81068 0.12012 0.0
C963 C 0.25001 0.81707 0.09766 0.0
H964 H 0.98737 0.49147 0.14437 0.0
H965 H 0.04011 0.51927 0.1019 0.0
H966 H 0.01741 0.49388 0.17861 0.0
H967 H 0.06989 0.52277 0.13617 0.0
H968 H 0.1223 0.49926 0.19124 0.0
H969 H 0.09101 0.49896 0.15885 0.0
H970 H 0.04435 0.51605 0.20744 0.0
H971 H 0.07561 0.51533 0.24012 0.0
C972 C 0.00529 0.4986 0.1425 0.0
C973 C 0.01144 0.50497 0.12041 0.0
C974 C 0.02254 0.50003 0.16214 0.0
C975 C 0.04625 0.50816 0.16016 0.0
C976 C 0.05201 0.51575 0.13829 0.0
C977 C 0.03488 0.51396 0.11864 0.0
C978 C 0.10536 0.50292 0.19505 0.0
C979 C 0.10149 0.50737 0.21827 0.0
C980 C 0.08741 0.50296 0.1764 0.0
C981 C 0.06514 0.50781 0.18037 0.0
C982 C 0.06117 0.51205 0.20367 0.0
C983 C 0.07911 0.5117 0.22243 0.0
H984 H 0.36127 0.72075 0.29547 0.0
H985 H 0.37283 0.7922 0.31178 0.0
H986 H 0.39877 0.71743 0.31859 0.0
H987 H 0.41049 0.78874 0.33491 0.0
H988 H 0.48453 0.77487 0.3638 0.0
H989 H 0.45152 0.77744 0.33327 0.0
H990 H 0.40998 0.72236 0.3628 0.0
H991 H 0.44269 0.71985 0.39329 0.0
C992 C 0.37197 0.73583 0.30362 0.0
C993 C 0.36388 0.75672 0.302 0.0
C994 C 0.39342 0.73387 0.31693 0.0
C995 C 0.40739 0.75278 0.32872 0.0
C996 C 0.40009 0.7739 0.32591 0.0
C997 C 0.37848 0.77585 0.31275 0.0
C998 C 0.46846 0.76309 0.36353 0.0
C999 C 0.46617 0.7472 0.38101 0.0
C1000 C 0.44957 0.76467 0.34616 0.0
C1001 C 0.42823 0.75012 0.34569 0.0
C1002 C 0.4263 0.73366 0.36259 0.0
C1003 C 0.445 0.73231 0.38013 0.0
H1004 H 0.97946 0.42531 0.98885 0.0
H1005 H 0.98071 0.39203 0.05484 0.0
H1006 H 0.98445 0.39037 0.9689 0.0
H1007 H 0.98607 0.35742 0.03506 0.0
H1008 H 0.97516 0.29342 0.98986 0.0
H1009 H 0.96618 0.32794 0.00704 0.0
H1010 H 0.01532 0.36671 0.96742 0.0
H1011 H 0.02405 0.33218 0.94984 0.0
C1012 C 0.98065 0.41054 0.99907 0.0
C1013 C 0.97973 0.41149 0.02345 0.0
C1014 C 0.98368 0.39057 0.98767 0.0
C1015 C 0.98573 0.37111 0.00039 0.0
C1016 C 0.98426 0.37199 0.02467 0.0
C1017 C 0.98132 0.39191 0.03604 0.0
C1018 C 0.98402 0.30928 0.9847 0.0
C1019 C 1.00045 0.30995 0.96854 0.0
C1020 C 0.97891 0.32909 0.99464 0.0
C1021 C 0.9901 0.3501 0.98869 0.0
C1022 C 0.00619 0.35082 0.97219 0.0
C1023 C 0.01132 0.33099 0.96224 0.0
H1024 H 0.64704 0.85966 0.28927 0.0
H1025 H 0.68089 0.80075 0.30061 0.0
H1026 H 0.62094 0.84749 0.31834 0.0
H1027 H 0.65466 0.78855 0.32935 0.0
H1028 H 0.62718 0.78945 0.39982 0.0
H1029 H 0.65075 0.80225 0.36921 0.0
H1030 H 0.58861 0.81756 0.32649 0.0
H1031 H 0.56483 0.80487 0.35742 0.0
C1032 C 0.64875 0.84401 0.29775 0.0
C1033 C 0.6662 0.83128 0.29279 0.0
C1034 C 0.63374 0.83702 0.31433 0.0
C1035 C 0.63597 0.81723 0.32633 0.0
C1036 C 0.65284 0.80411 0.32071 0.0
C1037 C 0.66777 0.81104 0.30413 0.0
C1038 C 0.61849 0.79566 0.38399 0.0
C1039 C 0.59409 0.79601 0.38101 0.0
C1040 C 0.632 0.80283 0.36636 0.0
C1041 C 0.62148 0.81059 0.3453 0.0
C1042 C 0.5972 0.81168 0.34256 0.0
C1043 C 0.5836 0.8044 0.36025 0.0
H1044 H 0.00618 0.07799 0.95836 0.0
H1045 H 0.08006 0.09944 0.98191 0.0
H1046 H 0.00301 0.11512 0.94284 0.0
H1047 H 0.07694 0.13628 0.96588 0.0
H1048 H 0.06438 0.19324 0.91565 0.0
H1049 H 0.06567 0.15398 0.92456 0.0
H1050 H 0.00907 0.1551 0.96661 0.0
H1051 H 0.00804 0.19458 0.95818 0.0
C1052 C 0.02185 0.09042 0.95967 0.0
C1053 C 0.04338 0.08585 0.97135 0.0
C1054 C 0.01997 0.11167 0.95097 0.0
C1055 C 0.03971 0.12849 0.9533 0.0
C1056 C 0.0615 0.12353 0.9638 0.0
C1057 C 0.06327 0.10249 0.97297 0.0
C1058 C 0.05203 0.18508 0.92661 0.0
C1059 C 0.03614 0.19706 0.93629 0.0
C1060 C 0.05284 0.16265 0.93172 0.0
C1061 C 0.03746 0.1516 0.9462 0.0
C1062 C 0.02098 0.16326 0.95521 0.0
C1063 C 0.02048 0.18587 0.95049 0.0
H1064 H 0.32685 0.27939 0.22774 0.0
H1065 H 0.38538 0.29562 0.28294 0.0
H1066 H 0.35409 0.2727 0.20002 0.0
H1067 H 0.4126 0.28868 0.25516 0.0
H1068 H 0.44487 0.24353 0.20301 0.0
H1069 H 0.42025 0.25404 0.23184 0.0
H1070 H 0.38735 0.29544 0.18116 0.0
H1071 H 0.41205 0.28514 0.15236 0.0
C1072 C 0.34553 0.28154 0.23395 0.0
C1073 C 0.35396 0.288 0.25754 0.0
C1074 C 0.36112 0.27786 0.21804 0.0
C1075 C 0.38545 0.28023 0.22544 0.0
C1076 C 0.39392 0.28664 0.24903 0.0
C1077 C 0.37834 0.29068 0.26487 0.0
C1078 C 0.43259 0.25508 0.19811 0.0
C1079 C 0.43034 0.26341 0.17536 0.0
C1080 C 0.41856 0.26116 0.21464 0.0
C1081 C 0.40178 0.27542 0.20866 0.0
C1082 C 0.39998 0.28423 0.18615 0.0
C1083 C 0.41424 0.27843 0.16973 0.0
H1084 H 0.59691 0.40111 0.06492 0.0
H1085 H 0.52919 0.4222 0.04524 0.0
H1086 H 0.57757 0.36681 0.08 0.0
H1087 H 0.5098 0.38757 0.05992 0.0
H1088 H 0.48308 0.32522 0.09943 0.0
H1089 H 0.50315 0.36303 0.0936 0.0
H1090 H 0.55417 0.33421 0.05842 0.0
H1091 H 0.53462 0.29691 0.06437 0.0
C1092 C 0.57791 0.39859 0.06412 0.0
C1093 C 0.56457 0.41422 0.05356 0.0
C1094 C 0.56682 0.37888 0.07267 0.0
C1095 C 0.54213 0.37428 0.07075 0.0
C1096 C 0.52885 0.39063 0.06171 0.0
C1097 C 0.53997 0.41044 0.05322 0.0
C1098 C 0.49868 0.32702 0.0906 0.0
C1099 C 0.50715 0.308 0.0823 0.0
C1100 C 0.51012 0.34865 0.08722 0.0
C1101 C 0.53037 0.35161 0.07573 0.0
C1102 C 0.53891 0.33256 0.06775 0.0
C1103 C 0.52748 0.3111 0.07097 0.0
H1104 H 0.62062 0.19277 0.22619 0.0
H1105 H 0.602 0.2526 0.25727 0.0
H1106 H 0.58922 0.19332 0.19365 0.0
H1107 H 0.57112 0.25348 0.22455 0.0
H1108 H 0.50425 0.23835 0.17311 0.0
H1109 H 0.53328 0.23431 0.20681 0.0
H1110 H 0.58061 0.21535 0.15994 0.0
H1111 H 0.5515 0.2188 0.12637 0.0
C1112 C 0.60986 0.20604 0.22607 0.0
C1113 C 0.61385 0.22266 0.24429 0.0
C1114 C 0.59193 0.20642 0.20737 0.0
C1115 C 0.57765 0.22346 0.20647 0.0
C1116 C 0.58153 0.23992 0.22485 0.0
C1117 C 0.59938 0.23951 0.24354 0.0
C1118 C 0.52078 0.23317 0.16999 0.0
C1119 C 0.52552 0.22897 0.14699 0.0
C1120 C 0.53748 0.23097 0.18932 0.0
C1121 C 0.55932 0.22458 0.18609 0.0
C1122 C 0.56387 0.22001 0.16311 0.0
C1123 C 0.54718 0.22215 0.14382 0.0
H1124 H 0.50707 0.09769 0.03308 0.0
H1125 H 0.43745 0.067 0.04472 0.0
H1126 H 0.4995 0.13351 0.04831 0.0
H1127 H 0.4298 0.10317 0.05983 0.0
H1128 H 0.43717 0.16908 0.10703 0.0
H1129 H 0.44287 0.13175 0.09324 0.0
H1130 H 0.47386 0.16099 0.03425 0.0
H1131 H 0.46822 0.19803 0.0479 0.0
C1132 C 0.49015 0.09855 0.03895 0.0
C1133 C 0.4728 0.07951 0.03753 0.0
C1134 C 0.48577 0.11914 0.04756 0.0
C1135 C 0.46395 0.12121 0.055 0.0
C1136 C 0.4468 0.10205 0.05428 0.0
C1137 C 0.45116 0.08139 0.04555 0.0
C1138 C 0.44504 0.16747 0.09103 0.0
C1139 C 0.4526 0.18654 0.07875 0.0
C1140 C 0.44826 0.14611 0.08313 0.0
C1141 C 0.45913 0.1435 0.06286 0.0
C1142 C 0.46594 0.16252 0.05023 0.0
C1143 C 0.46267 0.18376 0.05805 0.0
H1144 H 0.25734 0.41475 0.70462 0.0
H1145 H 0.29366 0.38184 0.76123 0.0
H1146 H 0.29236 0.44281 0.70461 0.0
H1147 H 0.32844 0.4099 0.76125 0.0
H1148 H 0.39389 0.44795 0.73534 0.0
H1149 H 0.35845 0.42064 0.73458 0.0
H1150 H 0.31617 0.47415 0.7309 0.0
H1151 H 0.3517 0.50167 0.73149 0.0
C1152 C 0.27276 0.4135 0.71705 0.0
C1153 C 0.27272 0.39602 0.73288 0.0
C1154 C 0.29274 0.42964 0.71713 0.0
C1155 C 0.31313 0.4285 0.73289 0.0
C1156 C 0.31307 0.41106 0.74871 0.0
C1157 C 0.29309 0.39504 0.74876 0.0
C1158 C 0.37707 0.45397 0.73433 0.0
C1159 C 0.37568 0.47705 0.73352 0.0
C1160 C 0.35677 0.4383 0.73402 0.0
C1161 C 0.33456 0.44527 0.73277 0.0
C1162 C 0.33306 0.46829 0.7317 0.0
C1163 C 0.35342 0.48404 0.73217 0.0
H1164 H 0.27789 0.64318 0.79458 0.0
H1165 H 0.33068 0.69871 0.78265 0.0
H1166 H 0.30591 0.6172 0.79051 0.0
H1167 H 0.3585 0.67275 0.77821 0.0
H1168 H 0.40943 0.62274 0.79157 0.0
H1169 H 0.38148 0.64741 0.80011 0.0
H1170 H 0.32522 0.60258 0.75915 0.0
H1171 H 0.35309 0.57769 0.75092 0.0
C1172 C 0.29549 0.64986 0.79118 0.0
C1173 C 0.30204 0.67301 0.78889 0.0
C1174 C 0.3115 0.63495 0.78872 0.0
C1175 C 0.33442 0.64289 0.78398 0.0
C1176 C 0.34108 0.6661 0.78214 0.0
C1177 C 0.32507 0.68098 0.78456 0.0
C1178 C 0.39107 0.61804 0.78452 0.0
C1179 C 0.38352 0.5983 0.77044 0.0
C1180 C 0.37507 0.63226 0.78932 0.0
C1181 C 0.35115 0.62705 0.78019 0.0
C1182 C 0.34349 0.60699 0.76664 0.0
C1183 C 0.3595 0.59278 0.76181 0.0
H1184 H 0.92064 0.44215 0.50614 0.0
H1185 H 0.87335 0.48925 0.48496 0.0
H1186 H 0.88822 0.41668 0.51822 0.0
H1187 H 0.841 0.4645 0.49846 0.0
H1188 H 0.78334 0.40437 0.50167 0.0
H1189 H 0.81503 0.43158 0.49053 0.0
H1190 H 0.86326 0.40974 0.54616 0.0
H1191 H 0.83185 0.38161 0.55604 0.0
C1192 C 0.9033 0.44715 0.50435 0.0
C1193 C 0.8995 0.46762 0.49455 0.0
C1194 C 0.88466 0.43264 0.5115 0.0
C1195 C 0.86182 0.43847 0.50957 0.0
C1196 C 0.85815 0.45915 0.49991 0.0
C1197 C 0.87673 0.47344 0.49226 0.0
C1198 C 0.8007 0.40559 0.5116 0.0
C1199 C 0.8052 0.39079 0.52958 0.0
C1200 C 0.81892 0.42127 0.5053 0.0
C1201 C 0.84196 0.42282 0.51721 0.0
C1202 C 0.84603 0.40867 0.53603 0.0
C1203 C 0.82796 0.39267 0.54191 0.0
H1204 H 0.71608 0.86084 0.87636 0.0
H1205 H 0.7057 0.82942 0.80661 0.0
H1206 H 0.69152 0.88856 0.86235 0.0
H1207 H 0.68072 0.85694 0.79271 0.0
H1208 H 0.67531 0.93081 0.77306 0.0
H1209 H 0.68961 0.89652 0.78554 0.0
H1210 H 0.6527 0.89696 0.84645 0.0
H1211 H 0.63862 0.93171 0.83412 0.0
C1212 C 0.70819 0.85957 0.85814 0.0
C1213 C 0.71316 0.8431 0.84254 0.0
C1214 C 0.69394 0.87539 0.85013 0.0
C1215 C 0.6843 0.87511 0.82634 0.0
C1216 C 0.68818 0.85785 0.81106 0.0
C1217 C 0.70244 0.84202 0.81906 0.0
C1218 C 0.66987 0.92344 0.78891 0.0
C1219 C 0.65605 0.93422 0.80273 0.0
C1220 C 0.67796 0.90363 0.796 0.0
C1221 C 0.67248 0.89406 0.81713 0.0
C1222 C 0.6575 0.90408 0.83026 0.0
C1223 C 0.64929 0.92391 0.82308 0.0
H1224 H 0.61292 0.55287 0.99048 0.0
H1225 H 0.64392 0.53045 0.05656 0.0
H1226 H 0.63917 0.58837 0.9968 0.0
H1227 H 0.6706 0.56599 0.06273 0.0
H1228 H 0.73288 0.61888 0.04786 0.0
H1229 H 0.70436 0.5846 0.04444 0.0
H1230 H 0.64853 0.62285 0.02236 0.0
H1231 H 0.67699 0.65712 0.0255 0.0
C1232 C 0.62475 0.55575 0.00673 0.0
C1233 C 0.62587 0.53898 0.02327 0.0
C1234 C 0.64002 0.57607 0.01025 0.0
C1235 C 0.65696 0.58001 0.03028 0.0
C1236 C 0.65789 0.56337 0.04701 0.0
C1237 C 0.64252 0.54308 0.04353 0.0
C1238 C 0.71453 0.62003 0.04232 0.0
C1239 C 0.70729 0.6408 0.03689 0.0
C1240 C 0.69816 0.60038 0.04053 0.0
C1241 C 0.67418 0.60102 0.03316 0.0
C1242 C 0.66691 0.62178 0.02788 0.0
C1243 C 0.68324 0.64144 0.02978 0.0
H1244 H 0.27466 0.65099 0.29412 0.0
H1245 H 0.21763 0.684 0.26275 0.0
H1246 H 0.24755 0.61642 0.29505 0.0
H1247 H 0.19032 0.64896 0.26351 0.0
H1248 H 0.14821 0.58709 0.29702 0.0
H1249 H 0.17271 0.62309 0.29279 0.0
H1250 H 0.22471 0.58818 0.26633 0.0
H1251 H 0.20069 0.55245 0.27096 0.0
C1252 C 0.25632 0.65088 0.28735 0.0
C1253 C 0.24833 0.67025 0.27827 0.0
C1254 C 0.2408 0.63098 0.28775 0.0
C1255 C 0.21685 0.6299 0.27911 0.0
C1256 C 0.20868 0.64933 0.27033 0.0
C1257 C 0.22432 0.66933 0.26982 0.0
C1258 C 0.16476 0.58715 0.29006 0.0
C1259 C 0.17254 0.56689 0.28442 0.0
C1260 C 0.17872 0.60776 0.28755 0.0
C1261 C 0.20073 0.60843 0.27947 0.0
C1262 C 0.208 0.58819 0.27297 0.0
C1263 C 0.19411 0.56769 0.27545 0.0
H1264 H 0.87004 0.52591 0.06641 0.0
H1265 H 0.92801 0.56807 0.04154 0.0
H1266 H 0.84574 0.55549 0.05977 0.0
H1267 H 0.90406 0.59801 0.03572 0.0
H1268 H 0.84877 0.63992 0.00672 0.0
H1269 H 0.87176 0.60917 0.01171 0.0
H1270 H 0.84053 0.59109 0.07454 0.0
H1271 H 0.81695 0.62129 0.06901 0.0
C1272 C 0.87767 0.54157 0.05968 0.0
C1273 C 0.90098 0.54461 0.0545 0.0
C1274 C 0.86376 0.55862 0.05599 0.0
C1275 C 0.87287 0.57925 0.04721 0.0
C1276 C 0.89625 0.58227 0.0421 0.0
C1277 C 0.91008 0.56513 0.04561 0.0
C1278 C 0.84673 0.6293 0.02153 0.0
C1279 C 0.83101 0.63309 0.03746 0.0
C1280 C 0.86006 0.61173 0.02451 0.0
C1281 C 0.85816 0.5976 0.04361 0.0
C1282 C 0.84226 0.60134 0.05942 0.0
C1283 C 0.82879 0.61878 0.05633 0.0
H1284 H 0.05834 0.94492 0.97239 0.0
H1285 H 0.11216 0.99805 0.00375 0.0
H1286 H 0.08777 0.92007 0.97118 0.0
H1287 H 0.1419 0.97368 0.00142 0.0
H1288 H 0.18166 0.91604 0.0245 0.0
H1289 H 0.15474 0.94334 0.02055 0.0
H1290 H 0.12015 0.90984 0.95527 0.0
H1291 H 0.14655 0.88172 0.95996 0.0
C1292 C 0.07657 0.95143 0.97858 0.0
C1293 C 0.08289 0.97337 0.98838 0.0
C1294 C 0.09354 0.93721 0.97775 0.0
C1295 C 0.11734 0.9447 0.98637 0.0
C1296 C 0.12373 0.96705 0.99515 0.0
C1297 C 0.10669 0.98113 0.99635 0.0
C1298 C 0.16849 0.9146 0.00914 0.0
C1299 C 0.16617 0.89657 0.99264 0.0
C1300 C 0.15306 0.93042 0.00677 0.0
C1301 C 0.13505 0.92888 0.98762 0.0
C1302 C 0.13342 0.91137 0.97052 0.0
C1303 C 0.1487 0.89532 0.97309 0.0
loop_
_geom_bond_atom_site_label_1
_geom_bond_atom_site_label_2
_geom_bond_distance
_geom_bond_site_symmetry_2
_ccdc_geom_bond_type
O0 Cd1 2.300 . S
O0 C7 1.275 . S
Cd1 O0 2.300 . S
Cd1 O9 2.381 . S
Cd1 O10 2.378 . S
O2 Cd3 2.385 . S
O2 C7 1.255 . S
Cd3 O2 2.385 . S
Cd3 O4 2.317 . S
O4 Cd3 2.317 . S
O4 C5 1.232 1_455 S
C5 O4 1.232 1_655 S
C5 O6 1.218 . S
O6 C5 1.218 . S
C7 O0 1.275 . S
C7 O2 1.255 . S
C8 O9 1.267 . S
C8 O10 1.259 . S
O9 Cd1 2.381 . S
O9 C8 1.267 . S
O10 Cd1 2.378 . S
O10 C8 1.259 . S
O11 Cd12 2.300 . S
O11 C18 1.275 . S
Cd12 O11 2.300 . S
Cd12 O20 2.381 . S
Cd12 O21 2.378 . S
O13 Cd14 2.385 . S
O13 C18 1.255 . S
Cd14 O13 2.385 . S
Cd14 O15 2.317 . S
O15 Cd14 2.317 . S
O15 C16 1.232 . S
C16 O15 1.232 . S
C16 O17 1.218 . S
O17 C16 1.218 . S
C18 O11 1.275 . S
C18 O13 1.255 . S
C19 O20 1.258 . S
C19 O21 1.256 . S
O20 Cd12 2.381 . S
O20 C19 1.258 . S
O21 Cd12 2.378 . S
O21 C19 1.256 . S
O22 Cd23 2.300 . S
O22 C29 1.275 . S
Cd23 O22 2.300 . S
Cd23 O31 2.381 . S
Cd23 O32 2.378 . S
O24 Cd25 2.405 . S
O24 C29 1.239 1_455 S
Cd25 O24 2.405 . S
Cd25 O26 2.317 1_455 S
O26 Cd25 2.317 1_655 S
O26 C27 1.232 . S
C27 O26 1.232 . S
C27 O28 1.218 1_655 S
O28 C27 1.218 1_455 S
C29 O22 1.275 . S
C29 O24 1.239 1_655 S
C30 O31 1.258 . S
C30 O32 1.256 . S
O31 Cd23 2.381 . S
O31 C30 1.258 . S
O32 Cd23 2.378 . S
O32 C30 1.256 . S
O33 Cd34 2.300 . S
O33 C40 1.275 . S
Cd34 O33 2.300 . S
Cd34 O42 2.381 . S
Cd34 O43 2.378 . S
O35 Cd36 2.385 . S
O35 C40 1.255 . S
Cd36 O35 2.385 . S
Cd36 O37 2.317 . S
O37 Cd36 2.317 . S
O37 C38 1.232 . S
C38 O37 1.232 . S
C38 O39 1.218 . S
O39 C38 1.218 . S
C40 O33 1.275 . S
C40 O35 1.255 . S
C41 O42 1.258 . S
C41 O43 1.256 . S
O42 Cd34 2.381 . S
O42 C41 1.258 . S
O43 Cd34 2.378 . S
O43 C41 1.256 . S
O44 Cd45 2.300 . S
O44 C51 1.275 1_565 S
Cd45 O44 2.300 . S
Cd45 O53 2.381 . S
Cd45 O54 2.378 . S
O46 Cd47 2.385 . S
O46 C51 1.255 . S
Cd47 O46 2.385 . S
Cd47 O48 2.317 1_545 S
O48 Cd47 2.317 1_565 S
O48 C49 1.232 1_565 S
C49 O48 1.232 1_545 S
C49 O50 1.218 . S
O50 C49 1.218 . S
C51 O44 1.275 1_545 S
C51 O46 1.255 . S
C52 O53 1.258 . S
C52 O54 1.256 . S
O53 Cd45 2.381 . S
O53 C52 1.258 . S
O54 Cd45 2.378 . S
O54 C52 1.256 . S
O55 Cd56 2.300 . S
O55 C62 1.275 . S
Cd56 O55 2.300 . S
Cd56 O64 2.381 . S
Cd56 O65 2.378 . S
O57 Cd58 2.385 . S
O57 C62 1.255 . S
Cd58 O57 2.385 . S
Cd58 O59 2.317 . S
O59 Cd58 2.317 . S
O59 C60 1.232 . S
C60 O59 1.232 . S
C60 O61 1.218 . S
O61 C60 1.218 . S
C62 O55 1.275 . S
C62 O57 1.255 . S
C63 O64 1.258 . S
C63 O65 1.256 . S
O64 Cd56 2.381 . S
O64 C63 1.258 . S
O65 Cd56 2.378 . S
O65 C63 1.256 . S
O66 Cd67 2.300 . S
O66 C73 1.275 . S
Cd67 O66 2.300 . S
Cd67 O75 2.381 . S
Cd67 O76 2.378 . S
O68 Cd69 2.386 . S
O68 C73 1.254 1_455 S
Cd69 O68 2.386 . S
Cd69 O70 2.317 1_455 S
O70 Cd69 2.317 1_655 S
O70 C71 1.240 . S
C71 O70 1.240 . S
C71 O72 1.199 1_655 S
O72 C71 1.199 1_455 S
C73 O66 1.275 . S
C73 O68 1.254 1_655 S
C74 O75 1.258 . S
C74 O76 1.256 . S
O75 Cd67 2.381 . S
O75 C74 1.258 . S
O76 Cd67 2.378 . S
O76 C74 1.256 . S
O77 Cd78 2.300 . S
O77 C84 1.275 . S
Cd78 O77 2.300 . S
Cd78 O86 2.381 . S
Cd78 O87 2.378 . S
O79 Cd80 2.385 . S
O79 C84 1.255 . S
Cd80 O79 2.385 . S
Cd80 O81 2.317 . S
O81 Cd80 2.317 . S
O81 C82 1.232 . S
C82 O81 1.232 . S
C82 O83 1.218 . S
O83 C82 1.218 . S
C84 O77 1.275 . S
C84 O79 1.255 . S
C85 O86 1.258 . S
C85 O87 1.256 . S
O86 Cd78 2.381 . S
O86 C85 1.258 . S
O87 Cd78 2.378 . S
O87 C85 1.256 . S
O88 Cd89 2.300 . S
O88 C95 1.275 . S
Cd89 O88 2.300 . S
Cd89 O97 2.381 . S
Cd89 O98 2.378 . S
O90 Cd91 2.385 . S
O90 C95 1.255 . S
Cd91 O90 2.385 . S
Cd91 O92 2.317 . S
O92 Cd91 2.317 . S
O92 C93 1.232 . S
C93 O92 1.232 . S
C93 O94 1.218 . S
O94 C93 1.218 . S
C95 O88 1.275 . S
C95 O90 1.255 . S
C96 O97 1.258 . S
C96 O98 1.256 . S
O97 Cd89 2.381 . S
O97 C96 1.258 . S
O98 Cd89 2.378 . S
O98 C96 1.256 . S
O99 Cd100 2.300 1_565 S
O99 C106 1.275 . S
Cd100 O99 2.300 1_545 S
Cd100 O108 2.381 . S
Cd100 O109 2.378 . S
O101 Cd102 2.385 . S
O101 C106 1.255 . S
Cd102 O101 2.385 . S
Cd102 O103 2.317 . S
O103 Cd102 2.317 . S
O103 C104 1.232 . S
C104 O103 1.232 . S
C104 O105 1.218 . S
O105 C104 1.218 . S
C106 O99 1.275 . S
C106 O101 1.255 . S
C107 O108 1.258 . S
C107 O109 1.256 . S
O108 Cd100 2.381 . S
O108 C107 1.258 . S
O109 Cd100 2.378 . S
O109 C107 1.256 . S
O110 Cd111 2.300 . S
O110 C117 1.275 . S
Cd111 O110 2.300 . S
Cd111 O119 2.381 . S
Cd111 O120 2.378 . S
O112 Cd113 2.385 . S
O112 C117 1.255 . S
Cd113 O112 2.385 . S
Cd113 O114 2.317 . S
O114 Cd113 2.317 . S
O114 C115 1.232 . S
C115 O114 1.232 . S
C115 O116 1.218 . S
O116 C115 1.218 . S
C117 O110 1.275 . S
C117 O112 1.255 . S
C118 O119 1.258 . S
C118 O120 1.256 . S
O119 Cd111 2.381 . S
O119 C118 1.258 . S
O120 Cd111 2.378 . S
O120 C118 1.256 . S
O121 Cd122 2.300 . S
O121 C128 1.275 . S
Cd122 O121 2.300 . S
Cd122 O130 2.381 . S
Cd122 O131 2.378 . S
O123 Cd124 2.385 . S
O123 C128 1.255 . S
Cd124 O123 2.385 . S
Cd124 O125 2.317 . S
O125 Cd124 2.317 . S
O125 C126 1.232 . S
C126 O125 1.232 . S
C126 O127 1.218 . S
O127 C126 1.218 . S
C128 O121 1.275 . S
C128 O123 1.255 . S
C129 O130 1.258 . S
C129 O131 1.256 . S
O130 Cd122 2.381 . S
O130 C129 1.258 . S
O131 Cd122 2.378 . S
O131 C129 1.256 . S
O132 Cd133 2.300 . S
O132 C139 1.275 . S
Cd133 O132 2.300 . S
Cd133 O141 2.381 . S
Cd133 O142 2.378 . S
O134 Cd135 2.385 . S
O134 C139 1.255 . S
Cd135 O134 2.385 . S
Cd135 O136 2.317 . S
O136 Cd135 2.317 . S
O136 C137 1.232 . S
C137 O136 1.232 . S
C137 O138 1.218 . S
O138 C137 1.218 . S
C139 O132 1.275 . S
C139 O134 1.255 . S
C140 O141 1.258 . S
C140 O142 1.256 . S
O141 Cd133 2.381 . S
O141 C140 1.258 . S
O142 Cd133 2.378 . S
O142 C140 1.256 . S
O143 Cd144 2.300 1_556 S
O143 C150 1.275 . S
Cd144 O143 2.300 1_554 S
Cd144 O152 2.381 . S
Cd144 O153 2.378 . S
O145 Cd146 2.385 . S
O145 C150 1.255 . S
Cd146 O145 2.385 . S
Cd146 O147 2.317 . S
O147 Cd146 2.317 . S
O147 C148 1.232 . S
C148 O147 1.232 . S
C148 O149 1.218 . S
O149 C148 1.218 . S
C150 O143 1.275 . S
C150 O145 1.255 . S
C151 O152 1.258 . S
C151 O153 1.256 . S
O152 Cd144 2.381 . S
O152 C151 1.258 . S
O153 Cd144 2.378 . S
O153 C151 1.256 . S
O154 Cd155 2.300 . S
O154 C161 1.275 . S
Cd155 O154 2.300 . S
Cd155 O163 2.381 . S
Cd155 O164 2.378 . S
O156 Cd157 2.385 . S
O156 C161 1.255 . S
Cd157 O156 2.385 . S
Cd157 O158 2.317 . S
O158 Cd157 2.317 . S
O158 C159 1.232 . S
C159 O158 1.232 . S
C159 O160 1.218 . S
O160 C159 1.218 . S
C161 O154 1.275 . S
C161 O156 1.255 . S
C162 O163 1.258 . S
C162 O164 1.256 . S
O163 Cd155 2.381 . S
O163 C162 1.258 . S
O164 Cd155 2.378 . S
O164 C162 1.256 . S
O165 Cd166 2.300 1_556 S
O165 C172 1.275 . S
Cd166 O165 2.300 1_554 S
Cd166 O174 2.381 1_544 S
Cd166 O175 2.378 1_545 S
O167 Cd168 2.380 . S
O167 C172 1.260 1_554 S
Cd168 O167 2.380 . S
Cd168 O169 2.317 . S
O169 Cd168 2.317 . S
O169 C170 1.232 . S
C170 O169 1.232 . S
C170 O171 1.218 . S
O171 C170 1.218 . S
C172 O165 1.275 . S
C172 O167 1.260 1_556 S
C173 O174 1.263 1_554 S
C173 O175 1.251 . S
O174 Cd166 2.381 1_566 S
O174 C173 1.263 1_556 S
O175 Cd166 2.378 1_565 S
O175 C173 1.251 . S
Mg176 O177 2.028 . S
Mg176 O183 1.986 1_554 S
Mg176 O185 2.114 . S
Mg176 O186 2.251 . S
Mg176 O189 2.010 . S
O177 Mg176 2.028 . S
O177 C180 1.250 . S
O178 Mg179 2.028 1_554 S
O178 C180 1.248 . S
Mg179 O178 2.028 1_556 S
Mg179 O184 2.057 . S
Mg179 O186 2.057 1_556 S
C180 O177 1.250 . S
C180 O178 1.248 . S
C181 O182 1.264 . S
C181 O189 1.249 . S
O182 C181 1.264 . S
O183 Mg176 1.986 1_556 S
O183 C187 1.246 . S
O184 Mg179 2.057 . S
O184 C187 1.259 . S
O185 Mg176 2.114 . S
O185 C188 1.252 . S
O186 Mg176 2.251 . S
O186 Mg179 2.057 1_554 S
O186 C188 1.273 . S
C187 O183 1.246 . S
C187 O184 1.259 . S
C188 O185 1.252 . S
C188 O186 1.273 . S
O189 Mg176 2.010 . S
O189 C181 1.249 . S
Mg190 O191 2.028 . S
Mg190 O197 1.986 . S
Mg190 O199 2.114 . S
Mg190 O200 2.251 . S
Mg190 O203 2.010 . S
O191 Mg190 2.028 . S
O191 C194 1.250 . S
O192 Mg193 2.028 . S
O192 C194 1.248 . S
Mg193 O192 2.028 . S
Mg193 O198 2.032 . S
Mg193 O200 2.079 . S
C194 O191 1.250 . S
C194 O192 1.248 . S
C195 O196 1.264 . S
C195 O203 1.249 . S
O196 C195 1.264 . S
O197 Mg190 1.986 . S
O197 C201 1.246 . S
O198 Mg193 2.032 . S
O198 C201 1.259 . S
O199 Mg190 2.114 . S
O199 C202 1.252 . S
O200 Mg190 2.251 . S
O200 Mg193 2.079 . S
O200 C202 1.273 . S
C201 O197 1.246 . S
C201 O198 1.259 . S
C202 O199 1.252 . S
C202 O200 1.273 . S
O203 Mg190 2.010 . S
O203 C195 1.249 . S
Mg204 O205 2.028 . S
Mg204 O211 1.986 1_554 S
Mg204 O213 2.114 . S
Mg204 O214 2.251 . S
Mg204 O217 2.010 . S
O205 Mg204 2.028 . S
O205 C208 1.250 . S
O206 Mg207 2.028 . S
O206 C208 1.248 1_556 S
Mg207 O206 2.028 . S
Mg207 O212 2.032 . S
Mg207 O214 2.079 1_556 S
C208 O205 1.250 . S
C208 O206 1.248 1_554 S
C209 O210 1.264 . S
C209 O217 1.249 . S
O210 C209 1.264 . S
O211 Mg204 1.986 1_556 S
O211 C215 1.246 . S
O212 Mg207 2.032 . S
O212 C215 1.259 . S
O213 Mg204 2.114 . S
O213 C216 1.252 . S
O214 Mg204 2.251 . S
O214 Mg207 2.079 1_554 S
O214 C216 1.273 . S
C215 O211 1.246 . S
C215 O212 1.259 . S
C216 O213 1.252 . S
C216 O214 1.273 . S
O217 Mg204 2.010 . S
O217 C209 1.249 . S
Mg218 O219 2.028 . S
Mg218 O225 1.986 . S
Mg218 O227 2.114 . S
Mg218 O228 2.251 . S
Mg218 O231 2.010 . S
O219 Mg218 2.028 . S
O219 C222 1.250 1_545 S
O220 Mg221 2.028 . S
O220 C222 1.248 . S
Mg221 O220 2.028 . S
Mg221 O226 2.032 1_565 S
Mg221 O228 2.079 1_565 S
C222 O219 1.250 1_565 S
C222 O220 1.248 . S
C223 O224 1.264 . S
C223 O231 1.249 . S
O224 C223 1.264 . S
O225 Mg218 1.986 . S
O225 C229 1.246 . S
O226 Mg221 2.032 1_545 S
O226 C229 1.259 . S
O227 Mg218 2.114 . S
O227 C230 1.252 . S
O228 Mg218 2.251 . S
O228 Mg221 2.079 1_545 S
O228 C230 1.273 . S
C229 O225 1.246 . S
C229 O226 1.259 . S
C230 O227 1.252 . S
C230 O228 1.273 . S
O231 Mg218 2.010 . S
O231 C223 1.249 . S
Mg232 O233 2.028 . S
Mg232 O239 1.986 . S
Mg232 O241 2.114 . S
Mg232 O242 2.251 . S
Mg232 O245 2.010 . S
O233 Mg232 2.028 . S
O233 C236 1.250 . S
O234 Mg235 2.028 . S
O234 C236 1.248 . S
Mg235 O234 2.028 . S
Mg235 O240 2.032 . S
Mg235 O242 2.079 . S
C236 O233 1.250 . S
C236 O234 1.248 . S
C237 O238 1.264 . S
C237 O245 1.249 . S
O238 C237 1.264 . S
O239 Mg232 1.986 . S
O239 C243 1.246 . S
O240 Mg235 2.032 . S
O240 C243 1.259 . S
O241 Mg232 2.114 . S
O241 C244 1.252 . S
O242 Mg232 2.251 . S
O242 Mg235 2.079 . S
O242 C244 1.273 . S
C243 O239 1.246 . S
C243 O240 1.259 . S
C244 O241 1.252 . S
C244 O242 1.273 . S
O245 Mg232 2.010 . S
O245 C237 1.249 . S
Mg246 O247 2.028 . S
Mg246 O253 1.986 . S
Mg246 O255 2.114 . S
Mg246 O256 2.251 . S
Mg246 O259 2.010 . S
O247 Mg246 2.028 . S
O247 C250 1.250 . S
O248 Mg249 2.028 . S
O248 C250 1.248 . S
Mg249 O248 2.028 . S
Mg249 O254 2.032 . S
Mg249 O256 2.079 . S
C250 O247 1.250 . S
C250 O248 1.248 . S
C251 O252 1.264 . S
C251 O259 1.249 . S
O252 C251 1.264 . S
O253 Mg246 1.986 . S
O253 C257 1.246 . S
O254 Mg249 2.032 . S
O254 C257 1.259 . S
O255 Mg246 2.114 . S
O255 C258 1.252 . S
O256 Mg246 2.251 . S
O256 Mg249 2.079 . S
O256 C258 1.273 . S
C257 O253 1.246 . S
C257 O254 1.259 . S
C258 O255 1.252 . S
C258 O256 1.273 . S
O259 Mg246 2.010 . S
O259 C251 1.249 . S
Mg260 O261 2.028 . S
Mg260 O267 1.986 . S
Mg260 O269 2.114 . S
Mg260 O270 2.251 . S
Mg260 O273 2.010 . S
O261 Mg260 2.028 . S
O261 C264 1.250 . S
O262 Mg263 2.028 . S
O262 C264 1.248 . S
Mg263 O262 2.028 . S
Mg263 O268 2.032 . S
Mg263 O270 2.079 . S
C264 O261 1.250 . S
C264 O262 1.248 . S
C265 O266 1.264 . S
C265 O273 1.249 . S
O266 C265 1.264 . S
O267 Mg260 1.986 . S
O267 C271 1.246 . S
O268 Mg263 2.032 . S
O268 C271 1.259 . S
O269 Mg260 2.114 . S
O269 C272 1.252 . S
O270 Mg260 2.251 . S
O270 Mg263 2.079 . S
O270 C272 1.273 . S
C271 O267 1.246 . S
C271 O268 1.259 . S
C272 O269 1.252 . S
C272 O270 1.273 . S
O273 Mg260 2.010 . S
O273 C265 1.249 . S
Mg274 O275 2.028 1_545 S
Mg274 O281 1.986 1_545 S
Mg274 O283 2.114 . S
Mg274 O284 2.251 . S
Mg274 O287 2.010 . S
O275 Mg274 2.028 1_565 S
O275 C278 1.250 . S
O276 Mg277 2.028 . S
O276 C278 1.248 . S
Mg277 O276 2.028 . S
Mg277 O282 2.032 . S
Mg277 O284 2.079 1_565 S
C278 O275 1.250 . S
C278 O276 1.248 . S
C279 O280 1.264 . S
C279 O287 1.249 . S
O280 C279 1.264 . S
O281 Mg274 1.986 1_565 S
O281 C285 1.246 . S
O282 Mg277 2.032 . S
O282 C285 1.259 . S
O283 Mg274 2.114 . S
O283 C286 1.252 . S
O284 Mg274 2.251 . S
O284 Mg277 2.079 1_545 S
O284 C286 1.273 . S
C285 O281 1.246 . S
C285 O282 1.259 . S
C286 O283 1.252 . S
C286 O284 1.273 . S
O287 Mg274 2.010 . S
O287 C279 1.249 . S
Mg288 O289 2.028 . S
Mg288 O295 1.986 . S
Mg288 O297 2.114 . S
Mg288 O298 2.251 . S
Mg288 O301 2.010 . S
O289 Mg288 2.028 . S
O289 C292 1.250 1_455 S
O290 Mg291 2.028 . S
O290 C292 1.248 . S
Mg291 O290 2.028 . S
Mg291 O296 2.032 . S
Mg291 O298 2.079 1_655 S
C292 O289 1.250 1_655 S
C292 O290 1.248 . S
C293 O294 1.264 . S
C293 O301 1.249 . S
O294 C293 1.264 . S
O295 Mg288 1.986 . S
O295 C299 1.246 . S
O296 Mg291 2.032 . S
O296 C299 1.259 1_655 S
O297 Mg288 2.114 . S
O297 C300 1.252 . S
O298 Mg288 2.251 . S
O298 Mg291 2.079 1_455 S
O298 C300 1.273 . S
C299 O295 1.246 . S
C299 O296 1.259 1_455 S
C300 O297 1.252 . S
C300 O298 1.273 . S
O301 Mg288 2.010 . S
O301 C293 1.249 . S
Mg302 O303 2.028 . S
Mg302 O309 1.986 . S
Mg302 O311 2.114 . S
Mg302 O312 2.251 . S
Mg302 O315 2.010 . S
O303 Mg302 2.028 . S
O303 C306 1.250 . S
O304 Mg305 2.028 . S
O304 C306 1.248 . S
Mg305 O304 2.028 . S
Mg305 O310 2.032 . S
Mg305 O312 2.079 . S
C306 O303 1.250 . S
C306 O304 1.248 . S
C307 O308 1.264 . S
C307 O315 1.249 . S
O308 C307 1.264 . S
O309 Mg302 1.986 . S
O309 C313 1.246 . S
O310 Mg305 2.032 . S
O310 C313 1.259 . S
O311 Mg302 2.114 . S
O311 C314 1.252 . S
O312 Mg302 2.251 . S
O312 Mg305 2.079 . S
O312 C314 1.273 . S
C313 O309 1.246 . S
C313 O310 1.259 . S
C314 O311 1.252 . S
C314 O312 1.273 . S
O315 Mg302 2.010 . S
O315 C307 1.249 . S
Mg316 O317 2.028 . S
Mg316 O323 1.986 . S
Mg316 O325 2.114 1_455 S
Mg316 O326 2.251 . S
Mg316 O329 2.010 1_455 S
O317 Mg316 2.028 . S
O317 C320 1.250 . S
O318 Mg319 2.028 . S
O318 C320 1.248 . S
Mg319 O318 2.028 . S
Mg319 O324 2.032 . S
Mg319 O326 2.079 . S
C320 O317 1.250 . S
C320 O318 1.248 . S
C321 O322 1.264 . S
C321 O329 1.249 . S
O322 C321 1.264 . S
O323 Mg316 1.986 . S
O323 C327 1.246 . S
O324 Mg319 2.032 . S
O324 C327 1.259 . S
O325 Mg316 2.114 1_655 S
O325 C328 1.252 1_655 S
O326 Mg316 2.251 . S
O326 Mg319 2.079 . S
O326 C328 1.273 . S
C327 O323 1.246 . S
C327 O324 1.259 . S
C328 O325 1.252 1_455 S
C328 O326 1.273 . S
O329 Mg316 2.010 1_655 S
O329 C321 1.249 . S
Mg330 O331 2.028 . S
Mg330 O337 1.986 . S
Mg330 O339 2.114 . S
Mg330 O340 2.251 . S
Mg330 O343 2.010 . S
O331 Mg330 2.028 . S
O331 C334 1.250 . S
O332 Mg333 2.028 . S
O332 C334 1.248 . S
Mg333 O332 2.028 . S
Mg333 O338 2.032 . S
Mg333 O340 2.079 . S
C334 O331 1.250 . S
C334 O332 1.248 . S
C335 O336 1.264 . S
C335 O343 1.249 . S
O336 C335 1.264 . S
O337 Mg330 1.986 . S
O337 C341 1.246 . S
O338 Mg333 2.032 . S
O338 C341 1.259 . S
O339 Mg330 2.114 . S
O339 C342 1.252 . S
O340 Mg330 2.251 . S
O340 Mg333 2.079 . S
O340 C342 1.273 . S
C341 O337 1.246 . S
C341 O338 1.259 . S
C342 O339 1.252 . S
C342 O340 1.273 . S
O343 Mg330 2.010 . S
O343 C335 1.249 . S
H344 C352 0.950 . S
H345 C357 0.950 . S
H346 C354 0.950 . S
H347 C356 0.950 . S
H348 C358 0.950 . S
H349 C360 0.950 . S
H350 C362 0.950 . S
H351 C363 0.950 . S
C352 H344 0.950 . S
C352 C353 1.386 . S
C352 C354 1.391 . S
C353 C352 1.386 . S
C353 C357 1.393 . S
C354 H346 0.950 . S
C354 C352 1.391 . S
C354 C355 1.400 . S
C355 C354 1.400 . S
C355 C356 1.398 . S
C355 C361 1.491 . S
C356 H347 0.950 . S
C356 C355 1.398 . S
C356 C357 1.391 . S
C357 H345 0.950 . S
C357 C353 1.393 . S
C357 C356 1.391 . S
C358 H348 0.950 . S
C358 C359 1.386 . S
C358 C360 1.391 . S
C359 C358 1.386 . S
C359 C363 1.393 . S
C360 H349 0.950 . S
C360 C358 1.391 . S
C360 C361 1.400 . S
C361 C355 1.491 . S
C361 C360 1.400 . S
C361 C362 1.398 . S
C362 H350 0.950 . S
C362 C361 1.398 . S
C362 C363 1.391 . S
C363 H351 0.950 . S
C363 C359 1.393 . S
C363 C362 1.391 . S
H364 C372 0.950 1_655 S
H365 C377 0.950 . S
H366 C374 0.950 . S
H367 C376 0.950 . S
H368 C378 0.950 . S
H369 C380 0.950 . S
H370 C382 0.950 . S
H371 C383 0.950 . S
C372 H364 0.950 1_455 S
C372 C373 1.386 . S
C372 C374 1.391 . S
C373 C372 1.386 . S
C373 C377 1.393 . S
C374 H366 0.950 . S
C374 C372 1.391 . S
C374 C375 1.400 . S
C375 C374 1.400 . S
C375 C376 1.398 . S
C375 C381 1.491 . S
C376 H367 0.950 . S
C376 C375 1.398 . S
C376 C377 1.391 . S
C377 H365 0.950 . S
C377 C373 1.393 . S
C377 C376 1.391 . S
C378 H368 0.950 . S
C378 C379 1.386 . S
C378 C380 1.391 . S
C379 C378 1.386 . S
C379 C383 1.393 . S
C380 H369 0.950 . S
C380 C378 1.391 . S
C380 C381 1.400 . S
C381 C375 1.491 . S
C381 C380 1.400 . S
C381 C382 1.398 . S
C382 H370 0.950 . S
C382 C381 1.398 . S
C382 C383 1.391 . S
C383 H371 0.950 . S
C383 C379 1.393 . S
C383 C382 1.391 . S
H384 C392 0.950 . S
H385 C397 0.950 . S
H386 C394 0.950 . S
H387 C396 0.950 . S
H388 C398 0.950 . S
H389 C400 0.950 . S
H390 C402 0.950 . S
H391 C403 0.950 . S
C392 H384 0.950 . S
C392 C393 1.386 . S
C392 C394 1.391 . S
C393 C392 1.386 . S
C393 C397 1.393 . S
C394 H386 0.950 . S
C394 C392 1.391 . S
C394 C395 1.400 . S
C395 C394 1.400 . S
C395 C396 1.398 . S
C395 C401 1.491 . S
C396 H387 0.950 . S
C396 C395 1.398 . S
C396 C397 1.391 . S
C397 H385 0.950 . S
C397 C393 1.393 . S
C397 C396 1.391 . S
C398 H388 0.950 . S
C398 C399 1.386 . S
C398 C400 1.391 . S
C399 C398 1.386 . S
C399 C403 1.393 . S
C400 H389 0.950 . S
C400 C398 1.391 . S
C400 C401 1.400 . S
C401 C395 1.491 . S
C401 C400 1.400 . S
C401 C402 1.398 . S
C402 H390 0.950 . S
C402 C401 1.398 . S
C402 C403 1.391 . S
C403 H391 0.950 . S
C403 C399 1.393 . S
C403 C402 1.391 . S
H404 C412 0.950 . S
H405 C417 0.950 . S
H406 C414 0.950 . S
H407 C416 0.971 . S
H408 C418 0.950 . S
H409 C420 0.950 1_565 S
H410 C422 0.950 . S
H411 C423 0.950 . S
C412 H404 0.950 . S
C412 C413 1.386 1_655 S
C412 C414 1.391 . S
C413 C412 1.386 1_455 S
C413 C417 1.393 1_545 S
C414 H406 0.950 . S
C414 C412 1.391 . S
C414 C415 1.400 . S
C415 C414 1.400 . S
C415 C416 1.364 1_545 S
C415 C421 1.491 . S
C416 H407 0.971 . S
C416 C415 1.364 1_565 S
C416 C417 1.406 1_655 S
C417 H405 0.950 . S
C417 C413 1.393 1_565 S
C417 C416 1.406 1_455 S
C418 H408 0.950 . S
C418 C419 1.386 . S
C418 C420 1.391 . S
C419 C418 1.386 . S
C419 C423 1.393 . S
C420 H409 0.950 1_545 S
C420 C418 1.391 . S
C420 C421 1.400 . S
C421 C415 1.491 . S
C421 C420 1.400 . S
C421 C422 1.398 . S
C422 H410 0.950 . S
C422 C421 1.398 . S
C422 C423 1.391 . S
C423 H411 0.950 . S
C423 C419 1.393 . S
C423 C422 1.391 . S
H424 C432 0.950 . S
H425 C437 0.950 . S
H426 C434 0.950 . S
H427 C436 0.950 . S
H428 C438 0.950 . S
H429 C440 0.950 . S
H430 C442 0.950 . S
H431 C443 0.950 . S
C432 H424 0.950 . S
C432 C433 1.386 . S
C432 C434 1.391 . S
C433 C432 1.386 . S
C433 C437 1.393 . S
C434 H426 0.950 . S
C434 C432 1.391 . S
C434 C435 1.400 . S
C435 C434 1.400 . S
C435 C436 1.398 . S
C435 C441 1.491 . S
C436 H427 0.950 . S
C436 C435 1.398 . S
C436 C437 1.391 . S
C437 H425 0.950 . S
C437 C433 1.393 . S
C437 C436 1.391 . S
C438 H428 0.950 . S
C438 C439 1.386 . S
C438 C440 1.391 . S
C439 C438 1.386 . S
C439 C443 1.393 . S
C440 H429 0.950 . S
C440 C438 1.391 . S
C440 C441 1.400 . S
C441 C435 1.491 . S
C441 C440 1.400 . S
C441 C442 1.398 . S
C442 H430 0.950 . S
C442 C441 1.398 . S
C442 C443 1.391 . S
C443 H431 0.950 . S
C443 C439 1.393 . S
C443 C442 1.391 . S
H444 C452 0.950 . S
H445 C457 0.950 . S
H446 C454 0.950 . S
H447 C456 0.950 . S
H448 C458 0.950 . S
H449 C460 0.950 . S
H450 C462 0.950 . S
H451 C463 0.950 . S
C452 H444 0.950 . S
C452 C453 1.386 . S
C452 C454 1.391 . S
C453 C452 1.386 . S
C453 C457 1.393 . S
C454 H446 0.950 . S
C454 C452 1.391 . S
C454 C455 1.400 . S
C455 C454 1.400 . S
C455 C456 1.398 . S
C455 C461 1.491 . S
C456 H447 0.950 . S
C456 C455 1.398 . S
C456 C457 1.391 . S
C457 H445 0.950 . S
C457 C453 1.393 . S
C457 C456 1.391 . S
C458 H448 0.950 . S
C458 C459 1.386 . S
C458 C460 1.391 . S
C459 C458 1.386 . S
C459 C463 1.393 . S
C460 H449 0.950 . S
C460 C458 1.391 . S
C460 C461 1.400 . S
C461 C455 1.491 . S
C461 C460 1.400 . S
C461 C462 1.398 . S
C462 H450 0.950 . S
C462 C461 1.398 . S
C462 C463 1.391 . S
C463 H451 0.950 . S
C463 C459 1.393 . S
C463 C462 1.391 . S
H464 C472 0.950 . S
H465 C477 0.950 . S
H466 C474 0.950 . S
H467 C476 0.950 . S
H468 C478 0.950 . S
H469 C480 0.950 . S
H470 C482 0.950 . S
H471 C483 0.950 . S
C472 H464 0.950 . S
C472 C473 1.386 . S
C472 C474 1.391 . S
C473 C472 1.386 . S
C473 C477 1.393 . S
C474 H466 0.950 . S
C474 C472 1.391 . S
C474 C475 1.400 . S
C475 C474 1.400 . S
C475 C476 1.398 . S
C475 C481 1.491 . S
C476 H467 0.950 . S
C476 C475 1.398 . S
C476 C477 1.391 . S
C477 H465 0.950 . S
C477 C473 1.393 . S
C477 C476 1.391 . S
C478 H468 0.950 . S
C478 C479 1.386 . S
C478 C480 1.391 . S
C479 C478 1.386 . S
C479 C483 1.393 . S
C480 H469 0.950 . S
C480 C478 1.391 . S
C480 C481 1.400 . S
C481 C475 1.491 . S
C481 C480 1.400 . S
C481 C482 1.398 . S
C482 H470 0.950 . S
C482 C481 1.398 . S
C482 C483 1.391 . S
C483 H471 0.950 . S
C483 C479 1.393 . S
C483 C482 1.391 . S
H484 C492 0.950 . S
H485 C497 0.950 . S
H486 C494 0.950 . S
H487 C496 0.950 . S
H488 C498 0.950 . S
H489 C500 0.950 . S
H490 C502 0.950 . S
H491 C503 0.950 . S
C492 H484 0.950 . S
C492 C493 1.386 . S
C492 C494 1.391 . S
C493 C492 1.386 . S
C493 C497 1.393 1_565 S
C494 H486 0.950 . S
C494 C492 1.391 . S
C494 C495 1.400 . S
C495 C494 1.400 . S
C495 C496 1.398 1_565 S
C495 C501 1.491 . S
C496 H487 0.950 . S
C496 C495 1.398 1_545 S
C496 C497 1.391 . S
C497 H485 0.950 . S
C497 C493 1.393 1_545 S
C497 C496 1.391 . S
C498 H488 0.950 . S
C498 C499 1.386 1_545 S
C498 C500 1.391 . S
C499 C498 1.386 1_565 S
C499 C503 1.393 . S
C500 H489 0.950 . S
C500 C498 1.391 . S
C500 C501 1.400 1_545 S
C501 C495 1.491 . S
C501 C500 1.400 1_565 S
C501 C502 1.398 . S
C502 H490 0.950 . S
C502 C501 1.398 . S
C502 C503 1.391 . S
C503 H491 0.950 . S
C503 C499 1.393 . S
C503 C502 1.391 . S
H504 C512 0.950 . S
H505 C517 0.950 . S
H506 C514 0.950 . S
H507 C516 0.950 . S
H508 C518 0.950 . S
H509 C520 0.950 . S
H510 C522 0.950 . S
H511 C523 0.950 . S
C512 H504 0.950 . S
C512 C513 1.386 . S
C512 C514 1.391 . S
C513 C512 1.386 . S
C513 C517 1.393 . S
C514 H506 0.950 . S
C514 C512 1.391 . S
C514 C515 1.400 . S
C515 C514 1.400 . S
C515 C516 1.398 . S
C515 C521 1.491 . S
C516 H507 0.950 . S
C516 C515 1.398 . S
C516 C517 1.391 . S
C517 H505 0.950 . S
C517 C513 1.393 . S
C517 C516 1.391 . S
C518 H508 0.950 . S
C518 C519 1.386 . S
C518 C520 1.391 . S
C519 C518 1.386 . S
C519 C523 1.393 . S
C520 H509 0.950 . S
C520 C518 1.391 . S
C520 C521 1.400 . S
C521 C515 1.491 . S
C521 C520 1.400 . S
C521 C522 1.398 . S
C522 H510 0.950 . S
C522 C521 1.398 . S
C522 C523 1.391 . S
C523 H511 0.950 . S
C523 C519 1.393 . S
C523 C522 1.391 . S
H524 C532 0.950 . S
H525 C537 0.950 . S
H526 C534 0.950 . S
H527 C536 0.950 . S
H528 C538 0.950 . S
H529 C540 0.950 . S
H530 C542 0.950 . S
H531 C543 0.950 . S
C532 H524 0.950 . S
C532 C533 1.386 . S
C532 C534 1.391 . S
C533 C532 1.386 . S
C533 C537 1.393 . S
C534 H526 0.950 . S
C534 C532 1.391 . S
C534 C535 1.400 . S
C535 C534 1.400 . S
C535 C536 1.398 . S
C535 C541 1.491 . S
C536 H527 0.950 . S
C536 C535 1.398 . S
C536 C537 1.391 . S
C537 H525 0.950 . S
C537 C533 1.393 . S
C537 C536 1.391 . S
C538 H528 0.950 . S
C538 C539 1.386 . S
C538 C540 1.391 . S
C539 C538 1.386 . S
C539 C543 1.393 . S
C540 H529 0.950 . S
C540 C538 1.391 . S
C540 C541 1.400 . S
C541 C535 1.491 . S
C541 C540 1.400 . S
C541 C542 1.398 . S
C542 H530 0.950 . S
C542 C541 1.398 . S
C542 C543 1.391 . S
C543 H531 0.950 . S
C543 C539 1.393 . S
C543 C542 1.391 . S
H544 C552 0.950 . S
H545 C557 0.950 . S
H546 C554 0.950 . S
H547 C556 0.950 . S
H548 C558 0.950 . S
H549 C560 0.950 . S
H550 C562 0.950 . S
H551 C563 0.950 . S
C552 H544 0.950 . S
C552 C553 1.386 . S
C552 C554 1.391 . S
C553 C552 1.386 . S
C553 C557 1.393 . S
C554 H546 0.950 . S
C554 C552 1.391 . S
C554 C555 1.400 . S
C555 C554 1.400 . S
C555 C556 1.398 . S
C555 C561 1.491 . S
C556 H547 0.950 . S
C556 C555 1.398 . S
C556 C557 1.391 . S
C557 H545 0.950 . S
C557 C553 1.393 . S
C557 C556 1.391 . S
C558 H548 0.950 . S
C558 C559 1.386 . S
C558 C560 1.391 . S
C559 C558 1.386 . S
C559 C563 1.393 . S
C560 H549 0.950 . S
C560 C558 1.391 . S
C560 C561 1.400 . S
C561 C555 1.491 . S
C561 C560 1.400 . S
C561 C562 1.398 . S
C562 H550 0.950 . S
C562 C561 1.398 . S
C562 C563 1.391 . S
C563 H551 0.950 . S
C563 C559 1.393 . S
C563 C562 1.391 . S
H564 C572 0.950 . S
H565 C577 0.950 . S
H566 C574 0.950 . S
H567 C576 0.950 . S
H568 C578 0.950 . S
H569 C580 0.950 . S
H570 C582 0.950 . S
H571 C583 0.950 . S
C572 H564 0.950 . S
C572 C573 1.386 . S
C572 C574 1.391 . S
C573 C572 1.386 . S
C573 C577 1.393 . S
C574 H566 0.950 . S
C574 C572 1.391 . S
C574 C575 1.400 . S
C575 C574 1.400 . S
C575 C576 1.398 . S
C575 C581 1.491 . S
C576 H567 0.950 . S
C576 C575 1.398 . S
C576 C577 1.391 . S
C577 H565 0.950 . S
C577 C573 1.393 . S
C577 C576 1.391 . S
C578 H568 0.950 . S
C578 C579 1.386 . S
C578 C580 1.391 . S
C579 C578 1.386 . S
C579 C583 1.393 . S
C580 H569 0.950 . S
C580 C578 1.391 . S
C580 C581 1.400 . S
C581 C575 1.491 . S
C581 C580 1.400 . S
C581 C582 1.398 . S
C582 H570 0.950 . S
C582 C581 1.398 . S
C582 C583 1.391 . S
C583 H571 0.950 . S
C583 C579 1.393 . S
C583 C582 1.391 . S
H584 C592 0.950 . S
H585 C597 0.950 . S
H586 C594 0.950 . S
H587 C596 0.950 . S
H588 C598 0.950 . S
H589 C600 0.950 . S
H590 C602 0.950 . S
H591 C603 0.950 . S
C592 H584 0.950 . S
C592 C593 1.386 . S
C592 C594 1.391 . S
C593 C592 1.386 . S
C593 C597 1.393 . S
C594 H586 0.950 . S
C594 C592 1.391 . S
C594 C595 1.400 . S
C595 C594 1.400 . S
C595 C596 1.398 . S
C595 C601 1.491 . S
C596 H587 0.950 . S
C596 C595 1.398 . S
C596 C597 1.391 . S
C597 H585 0.950 . S
C597 C593 1.393 . S
C597 C596 1.391 . S
C598 H588 0.950 . S
C598 C599 1.386 . S
C598 C600 1.391 . S
C599 C598 1.386 . S
C599 C603 1.393 . S
C600 H589 0.950 . S
C600 C598 1.391 . S
C600 C601 1.400 . S
C601 C595 1.491 . S
C601 C600 1.400 . S
C601 C602 1.398 . S
C602 H590 0.950 . S
C602 C601 1.398 . S
C602 C603 1.391 . S
C603 H591 0.950 . S
C603 C599 1.393 . S
C603 C602 1.391 . S
H604 C612 0.950 . S
H605 C617 0.950 . S
H606 C614 0.950 . S
H607 C616 0.950 . S
H608 C618 0.981 . S
H609 C620 0.950 . S
H610 C622 0.950 . S
H611 C623 0.950 . S
C612 H604 0.950 . S
C612 C613 1.386 . S
C612 C614 1.391 . S
C613 C612 1.386 . S
C613 C617 1.393 . S
C614 H606 0.950 . S
C614 C612 1.391 . S
C614 C615 1.400 . S
C615 C614 1.400 . S
C615 C616 1.398 . S
C615 C621 1.491 . S
C616 H607 0.950 . S
C616 C615 1.398 . S
C616 C617 1.391 . S
C617 H605 0.950 . S
C617 C613 1.393 . S
C617 C616 1.391 . S
C618 H608 0.981 . S
C618 C619 1.386 . S
C618 C620 1.391 . S
C619 C618 1.386 . S
C619 C623 1.393 . S
C620 H609 0.950 . S
C620 C618 1.391 . S
C620 C621 1.400 . S
C621 C615 1.491 . S
C621 C620 1.400 . S
C621 C622 1.398 . S
C622 H610 0.950 . S
C622 C621 1.398 . S
C622 C623 1.391 . S
C623 H611 0.950 . S
C623 C619 1.393 . S
C623 C622 1.391 . S
H624 C632 0.950 . S
H625 C637 0.950 . S
H626 C634 0.950 . S
H627 C636 0.950 . S
H628 C638 0.950 . S
H629 C640 0.950 . S
H630 C642 0.950 . S
H631 C643 0.950 . S
C632 H624 0.950 . S
C632 C633 1.386 . S
C632 C634 1.391 . S
C633 C632 1.386 . S
C633 C637 1.393 . S
C634 H626 0.950 . S
C634 C632 1.391 . S
C634 C635 1.400 . S
C635 C634 1.400 . S
C635 C636 1.398 . S
C635 C641 1.491 . S
C636 H627 0.950 . S
C636 C635 1.398 . S
C636 C637 1.391 . S
C637 H625 0.950 . S
C637 C633 1.393 . S
C637 C636 1.391 . S
C638 H628 0.950 . S
C638 C639 1.386 . S
C638 C640 1.391 . S
C639 C638 1.386 . S
C639 C643 1.393 . S
C640 H629 0.950 . S
C640 C638 1.391 . S
C640 C641 1.400 . S
C641 C635 1.491 . S
C641 C640 1.400 . S
C641 C642 1.398 . S
C642 H630 0.950 . S
C642 C641 1.398 . S
C642 C643 1.391 . S
C643 H631 0.950 . S
C643 C639 1.393 . S
C643 C642 1.391 . S
H644 C652 0.950 . S
H645 C657 0.950 . S
H646 C654 0.950 . S
H647 C656 0.950 . S
H648 C658 0.950 . S
H649 C660 0.950 . S
H650 C662 0.950 . S
H651 C663 0.950 . S
C652 H644 0.950 . S
C652 C653 1.386 . S
C652 C654 1.391 . S
C653 C652 1.386 . S
C653 C657 1.393 1_655 S
C654 H646 0.950 . S
C654 C652 1.391 . S
C654 C655 1.400 . S
C655 C654 1.400 . S
C655 C656 1.398 1_655 S
C655 C661 1.489 . S
C656 H647 0.950 . S
C656 C655 1.398 1_455 S
C656 C657 1.391 . S
C657 H645 0.950 . S
C657 C653 1.393 1_455 S
C657 C656 1.391 . S
C658 H648 0.950 . S
C658 C659 1.386 . S
C658 C660 1.391 . S
C659 C658 1.386 . S
C659 C663 1.393 1_455 S
C660 H649 0.950 . S
C660 C658 1.391 . S
C660 C661 1.391 1_455 S
C661 C655 1.489 . S
C661 C660 1.391 1_655 S
C661 C662 1.410 . S
C662 H650 0.950 . S
C662 C661 1.410 . S
C662 C663 1.391 . S
C663 H651 0.950 . S
C663 C659 1.393 1_655 S
C663 C662 1.391 . S
H664 C672 0.950 . S
H665 C677 0.950 . S
H666 C674 0.950 . S
H667 C676 0.950 . S
H668 C678 0.950 . S
H669 C680 0.950 . S
H670 C682 0.950 . S
H671 C683 0.950 . S
C672 H664 0.950 . S
C672 C673 1.386 . S
C672 C674 1.391 . S
C673 C672 1.386 . S
C673 C677 1.393 . S
C674 H666 0.950 . S
C674 C672 1.391 . S
C674 C675 1.400 . S
C675 C674 1.400 . S
C675 C676 1.398 . S
C675 C681 1.491 . S
C676 H667 0.950 . S
C676 C675 1.398 . S
C676 C677 1.391 . S
C677 H665 0.950 . S
C677 C673 1.393 . S
C677 C676 1.391 . S
C678 H668 0.950 . S
C678 C679 1.386 . S
C678 C680 1.391 . S
C679 C678 1.386 . S
C679 C683 1.393 . S
C680 H669 0.950 . S
C680 C678 1.391 . S
C680 C681 1.400 . S
C681 C675 1.491 . S
C681 C680 1.400 . S
C681 C682 1.398 . S
C682 H670 0.950 . S
C682 C681 1.398 . S
C682 C683 1.391 . S
C683 H671 0.950 . S
C683 C679 1.393 . S
C683 C682 1.391 . S
H684 C692 0.950 . S
H685 C697 0.950 . S
H686 C694 0.950 . S
H687 C696 0.950 . S
H688 C698 0.950 . S
H689 C700 0.950 . S
H690 C702 0.950 . S
H691 C703 0.950 . S
C692 H684 0.950 . S
C692 C693 1.386 . S
C692 C694 1.391 . S
C693 C692 1.386 . S
C693 C697 1.393 . S
C694 H686 0.950 . S
C694 C692 1.391 . S
C694 C695 1.400 . S
C695 C694 1.400 . S
C695 C696 1.398 . S
C695 C701 1.491 . S
C696 H687 0.950 . S
C696 C695 1.398 . S
C696 C697 1.391 . S
C697 H685 0.950 . S
C697 C693 1.393 . S
C697 C696 1.391 . S
C698 H688 0.950 . S
C698 C699 1.386 . S
C698 C700 1.391 . S
C699 C698 1.386 . S
C699 C703 1.393 . S
C700 H689 0.950 . S
C700 C698 1.391 . S
C700 C701 1.400 . S
C701 C695 1.491 . S
C701 C700 1.400 . S
C701 C702 1.398 . S
C702 H690 0.950 . S
C702 C701 1.398 . S
C702 C703 1.391 . S
C703 H691 0.950 . S
C703 C699 1.393 . S
C703 C702 1.391 . S
H704 C712 0.950 . S
H705 C717 0.950 . S
H706 C714 0.950 . S
H707 C716 0.950 . S
H708 C718 0.950 . S
H709 C720 0.950 . S
H710 C722 0.950 . S
H711 C723 0.950 . S
C712 H704 0.950 . S
C712 C713 1.394 . S
C712 C714 1.391 . S
C713 C712 1.394 . S
C713 C717 1.382 1_556 S
C714 H706 0.950 . S
C714 C712 1.391 . S
C714 C715 1.385 1_556 S
C715 C714 1.385 1_554 S
C715 C716 1.411 . S
C715 C721 1.491 . S
C716 H707 0.950 . S
C716 C715 1.411 . S
C716 C717 1.391 . S
C717 H705 0.950 . S
C717 C713 1.382 1_554 S
C717 C716 1.391 . S
C718 H708 0.950 . S
C718 C719 1.386 . S
C718 C720 1.391 . S
C719 C718 1.386 . S
C719 C723 1.393 1_554 S
C720 H709 0.950 . S
C720 C718 1.391 . S
C720 C721 1.413 . S
C721 C715 1.491 . S
C721 C720 1.413 . S
C721 C722 1.388 1_554 S
C722 H710 0.950 . S
C722 C721 1.388 1_556 S
C722 C723 1.391 . S
C723 H711 0.950 . S
C723 C719 1.393 1_556 S
C723 C722 1.391 . S
H724 C732 0.950 . S
H725 C737 0.950 . S
H726 C734 0.950 . S
H727 C736 0.950 . S
H728 C738 0.950 . S
H729 C740 0.950 . S
H730 C742 0.950 . S
H731 C743 0.950 . S
C732 H724 0.950 . S
C732 C733 1.386 . S
C732 C734 1.391 . S
C733 C732 1.386 . S
C733 C737 1.393 . S
C734 H726 0.950 . S
C734 C732 1.391 . S
C734 C735 1.400 . S
C735 C734 1.400 . S
C735 C736 1.398 . S
C735 C741 1.491 . S
C736 H727 0.950 . S
C736 C735 1.398 . S
C736 C737 1.391 . S
C737 H725 0.950 . S
C737 C733 1.393 . S
C737 C736 1.391 . S
C738 H728 0.950 . S
C738 C739 1.386 . S
C738 C740 1.391 . S
C739 C738 1.386 . S
C739 C743 1.393 . S
C740 H729 0.950 . S
C740 C738 1.391 . S
C740 C741 1.400 . S
C741 C735 1.491 . S
C741 C740 1.400 . S
C741 C742 1.398 . S
C742 H730 0.950 . S
C742 C741 1.398 . S
C742 C743 1.391 . S
C743 H731 0.950 . S
C743 C739 1.393 . S
C743 C742 1.391 . S
H744 C752 0.950 . S
H745 C757 0.950 . S
H746 C754 0.950 . S
H747 C756 0.950 . S
H748 C758 0.950 . S
H749 C760 0.950 . S
H750 C762 0.950 . S
H751 C763 0.950 . S
C752 H744 0.950 . S
C752 C753 1.386 . S
C752 C754 1.391 . S
C753 C752 1.386 . S
C753 C757 1.393 . S
C754 H746 0.950 . S
C754 C752 1.391 . S
C754 C755 1.400 . S
C755 C754 1.400 . S
C755 C756 1.398 . S
C755 C761 1.491 . S
C756 H747 0.950 . S
C756 C755 1.398 . S
C756 C757 1.391 . S
C757 H745 0.950 . S
C757 C753 1.393 . S
C757 C756 1.391 . S
C758 H748 0.950 . S
C758 C759 1.386 . S
C758 C760 1.391 . S
C759 C758 1.386 . S
C759 C763 1.393 . S
C760 H749 0.950 . S
C760 C758 1.391 . S
C760 C761 1.400 . S
C761 C755 1.491 . S
C761 C760 1.400 . S
C761 C762 1.398 . S
C762 H750 0.950 . S
C762 C761 1.398 . S
C762 C763 1.391 . S
C763 H751 0.950 . S
C763 C759 1.393 . S
C763 C762 1.391 . S
H764 C772 0.950 . S
H765 C777 0.950 . S
H766 C774 0.950 . S
H767 C776 0.950 . S
H768 C778 0.950 . S
H769 C780 0.950 . S
H770 C782 0.950 . S
H771 C783 0.950 . S
C772 H764 0.950 . S
C772 C773 1.386 . S
C772 C774 1.391 . S
C773 C772 1.386 . S
C773 C777 1.393 . S
C774 H766 0.950 . S
C774 C772 1.391 . S
C774 C775 1.400 . S
C775 C774 1.400 . S
C775 C776 1.398 . S
C775 C781 1.491 . S
C776 H767 0.950 . S
C776 C775 1.398 . S
C776 C777 1.391 . S
C777 H765 0.950 . S
C777 C773 1.393 . S
C777 C776 1.391 . S
C778 H768 0.950 . S
C778 C779 1.386 . S
C778 C780 1.391 . S
C779 C778 1.386 . S
C779 C783 1.393 . S
C780 H769 0.950 . S
C780 C778 1.391 . S
C780 C781 1.400 . S
C781 C775 1.491 . S
C781 C780 1.400 . S
C781 C782 1.398 . S
C782 H770 0.950 . S
C782 C781 1.398 . S
C782 C783 1.391 . S
C783 H771 0.950 . S
C783 C779 1.393 . S
C783 C782 1.391 . S
H784 C792 0.950 . S
H785 C797 0.950 . S
H786 C794 0.950 . S
H787 C796 0.950 . S
H788 C798 0.950 . S
H789 C800 0.950 . S
H790 C802 0.950 . S
H791 C803 0.950 . S
C792 H784 0.950 . S
C792 C793 1.386 . S
C792 C794 1.391 . S
C793 C792 1.386 . S
C793 C797 1.393 . S
C794 H786 0.950 . S
C794 C792 1.391 . S
C794 C795 1.400 . S
C795 C794 1.400 . S
C795 C796 1.398 . S
C795 C801 1.491 . S
C796 H787 0.950 . S
C796 C795 1.398 . S
C796 C797 1.391 . S
C797 H785 0.950 . S
C797 C793 1.393 . S
C797 C796 1.391 . S
C798 H788 0.950 . S
C798 C799 1.386 . S
C798 C800 1.391 . S
C799 C798 1.386 . S
C799 C803 1.393 . S
C800 H789 0.950 . S
C800 C798 1.391 . S
C800 C801 1.400 . S
C801 C795 1.491 . S
C801 C800 1.400 . S
C801 C802 1.398 . S
C802 H790 0.950 . S
C802 C801 1.398 . S
C802 C803 1.391 . S
C803 H791 0.950 . S
C803 C799 1.393 . S
C803 C802 1.391 . S
H804 C812 0.950 . S
H805 C817 0.950 . S
H806 C814 0.950 . S
H807 C816 0.950 . S
H808 C818 0.950 . S
H809 C820 0.950 . S
H810 C822 0.950 . S
H811 C823 0.950 . S
C812 H804 0.950 . S
C812 C813 1.386 . S
C812 C814 1.391 . S
C813 C812 1.386 . S
C813 C817 1.393 . S
C814 H806 0.950 . S
C814 C812 1.391 . S
C814 C815 1.400 . S
C815 C814 1.400 . S
C815 C816 1.398 . S
C815 C821 1.491 . S
C816 H807 0.950 . S
C816 C815 1.398 . S
C816 C817 1.391 . S
C817 H805 0.950 . S
C817 C813 1.393 . S
C817 C816 1.391 . S
C818 H808 0.950 . S
C818 C819 1.386 . S
C818 C820 1.391 . S
C819 C818 1.386 . S
C819 C823 1.393 . S
C820 H809 0.950 . S
C820 C818 1.391 . S
C820 C821 1.400 . S
C821 C815 1.491 . S
C821 C820 1.400 . S
C821 C822 1.398 . S
C822 H810 0.950 . S
C822 C821 1.398 . S
C822 C823 1.391 . S
C823 H811 0.950 . S
C823 C819 1.393 . S
C823 C822 1.391 . S
H824 C832 0.950 . S
H825 C837 0.950 . S
H826 C834 0.950 . S
H827 C836 0.950 . S
H828 C838 0.950 . S
H829 C840 0.950 . S
H830 C842 0.950 . S
H831 C843 0.950 . S
C832 H824 0.950 . S
C832 C833 1.386 . S
C832 C834 1.391 . S
C833 C832 1.386 . S
C833 C837 1.393 . S
C834 H826 0.950 . S
C834 C832 1.391 . S
C834 C835 1.400 . S
C835 C834 1.400 . S
C835 C836 1.398 . S
C835 C841 1.491 . S
C836 H827 0.950 . S
C836 C835 1.398 . S
C836 C837 1.391 . S
C837 H825 0.950 . S
C837 C833 1.393 . S
C837 C836 1.391 . S
C838 H828 0.950 . S
C838 C839 1.386 . S
C838 C840 1.391 . S
C839 C838 1.386 . S
C839 C843 1.393 . S
C840 H829 0.950 . S
C840 C838 1.391 . S
C840 C841 1.400 . S
C841 C835 1.491 . S
C841 C840 1.400 . S
C841 C842 1.398 . S
C842 H830 0.950 . S
C842 C841 1.398 . S
C842 C843 1.391 . S
C843 H831 0.950 . S
C843 C839 1.393 . S
C843 C842 1.391 . S
H844 C852 0.950 . S
H845 C857 0.950 . S
H846 C854 0.950 . S
H847 C856 0.950 . S
H848 C858 0.950 . S
H849 C860 0.950 . S
H850 C862 0.950 . S
H851 C863 0.950 1_565 S
C852 H844 0.950 . S
C852 C853 1.386 . S
C852 C854 1.391 . S
C853 C852 1.386 . S
C853 C857 1.393 . S
C854 H846 0.950 . S
C854 C852 1.391 . S
C854 C855 1.400 . S
C855 C854 1.400 . S
C855 C856 1.398 . S
C855 C861 1.491 . S
C856 H847 0.950 . S
C856 C855 1.398 . S
C856 C857 1.391 . S
C857 H845 0.950 . S
C857 C853 1.393 . S
C857 C856 1.391 . S
C858 H848 0.950 . S
C858 C859 1.386 . S
C858 C860 1.391 . S
C859 C858 1.386 . S
C859 C863 1.393 . S
C860 H849 0.950 . S
C860 C858 1.391 . S
C860 C861 1.400 . S
C861 C855 1.491 . S
C861 C860 1.400 . S
C861 C862 1.398 . S
C862 H850 0.950 . S
C862 C861 1.398 . S
C862 C863 1.391 . S
C863 H851 0.950 1_545 S
C863 C859 1.393 . S
C863 C862 1.391 . S
H864 C872 0.950 . S
H865 C877 0.950 . S
H866 C874 0.950 . S
H867 C876 0.950 . S
H868 C878 0.950 . S
H869 C880 0.950 . S
H870 C882 0.950 . S
H871 C883 0.950 . S
C872 H864 0.950 . S
C872 C873 1.386 . S
C872 C874 1.391 . S
C873 C872 1.386 . S
C873 C877 1.393 . S
C874 H866 0.950 . S
C874 C872 1.391 . S
C874 C875 1.400 . S
C875 C874 1.400 . S
C875 C876 1.398 . S
C875 C881 1.491 . S
C876 H867 0.950 . S
C876 C875 1.398 . S
C876 C877 1.391 . S
C877 H865 0.950 . S
C877 C873 1.393 . S
C877 C876 1.391 . S
C878 H868 0.950 . S
C878 C879 1.386 . S
C878 C880 1.391 . S
C879 C878 1.386 . S
C879 C883 1.393 . S
C880 H869 0.950 . S
C880 C878 1.391 . S
C880 C881 1.400 . S
C881 C875 1.491 . S
C881 C880 1.400 . S
C881 C882 1.398 . S
C882 H870 0.950 . S
C882 C881 1.398 . S
C882 C883 1.391 . S
C883 H871 0.950 . S
C883 C879 1.393 . S
C883 C882 1.391 . S
H884 C892 0.950 . S
H885 C897 0.950 . S
H886 C894 0.950 . S
H887 C896 0.950 . S
H888 C898 0.950 . S
H889 C900 0.950 . S
H890 C902 0.950 . S
H891 C903 0.950 . S
C892 H884 0.950 . S
C892 C893 1.386 . S
C892 C894 1.391 . S
C893 C892 1.386 . S
C893 C897 1.393 . S
C894 H886 0.950 . S
C894 C892 1.391 . S
C894 C895 1.400 . S
C895 C894 1.400 . S
C895 C896 1.398 . S
C895 C901 1.491 . S
C896 H887 0.950 . S
C896 C895 1.398 . S
C896 C897 1.391 . S
C897 H885 0.950 . S
C897 C893 1.393 . S
C897 C896 1.391 . S
C898 H888 0.950 . S
C898 C899 1.386 . S
C898 C900 1.391 . S
C899 C898 1.386 . S
C899 C903 1.393 . S
C900 H889 0.950 . S
C900 C898 1.391 . S
C900 C901 1.400 . S
C901 C895 1.491 . S
C901 C900 1.400 . S
C901 C902 1.398 . S
C902 H890 0.950 . S
C902 C901 1.398 . S
C902 C903 1.391 . S
C903 H891 0.950 . S
C903 C899 1.393 . S
C903 C902 1.391 . S
H904 C912 0.950 . S
H905 C917 0.950 . S
H906 C914 0.950 . S
H907 C916 0.950 . S
H908 C918 0.950 . S
H909 C920 0.950 . S
H910 C922 0.950 . S
H911 C923 0.950 . S
C912 H904 0.950 . S
C912 C913 1.386 . S
C912 C914 1.391 . S
C913 C912 1.386 . S
C913 C917 1.393 . S
C914 H906 0.950 . S
C914 C912 1.391 . S
C914 C915 1.400 . S
C915 C914 1.400 . S
C915 C916 1.398 . S
C915 C921 1.491 . S
C916 H907 0.950 . S
C916 C915 1.398 . S
C916 C917 1.391 . S
C917 H905 0.950 . S
C917 C913 1.393 . S
C917 C916 1.391 . S
C918 H908 0.950 . S
C918 C919 1.386 . S
C918 C920 1.391 . S
C919 C918 1.386 . S
C919 C923 1.393 . S
C920 H909 0.950 . S
C920 C918 1.391 . S
C920 C921 1.400 . S
C921 C915 1.491 . S
C921 C920 1.400 . S
C921 C922 1.398 . S
C922 H910 0.950 . S
C922 C921 1.398 . S
C922 C923 1.391 . S
C923 H911 0.950 . S
C923 C919 1.393 . S
C923 C922 1.391 . S
H924 C932 0.950 . S
H925 C937 0.950 . S
H926 C934 0.950 . S
H927 C936 0.950 . S
H928 C938 0.950 . S
H929 C940 0.950 . S
H930 C942 0.950 . S
H931 C943 0.950 . S
C932 H924 0.950 . S
C932 C933 1.386 . S
C932 C934 1.391 . S
C933 C932 1.386 . S
C933 C937 1.393 . S
C934 H926 0.950 . S
C934 C932 1.391 . S
C934 C935 1.400 . S
C935 C934 1.400 . S
C935 C936 1.398 . S
C935 C941 1.491 . S
C936 H927 0.950 . S
C936 C935 1.398 . S
C936 C937 1.391 . S
C937 H925 0.950 . S
C937 C933 1.393 . S
C937 C936 1.391 . S
C938 H928 0.950 . S
C938 C939 1.386 . S
C938 C940 1.391 . S
C939 C938 1.386 . S
C939 C943 1.393 . S
C940 H929 0.950 . S
C940 C938 1.391 . S
C940 C941 1.400 . S
C941 C935 1.491 . S
C941 C940 1.400 . S
C941 C942 1.398 . S
C942 H930 0.950 . S
C942 C941 1.398 . S
C942 C943 1.391 . S
C943 H931 0.950 . S
C943 C939 1.393 . S
C943 C942 1.391 . S
H944 C952 0.950 . S
H945 C957 0.950 . S
H946 C954 0.950 . S
H947 C956 0.950 . S
H948 C958 0.950 . S
H949 C960 0.950 . S
H950 C962 0.950 . S
H951 C963 0.950 . S
C952 H944 0.950 . S
C952 C953 1.386 . S
C952 C954 1.391 . S
C953 C952 1.386 . S
C953 C957 1.393 . S
C954 H946 0.950 . S
C954 C952 1.391 . S
C954 C955 1.400 . S
C955 C954 1.400 . S
C955 C956 1.398 . S
C955 C961 1.491 . S
C956 H947 0.950 . S
C956 C955 1.398 . S
C956 C957 1.391 . S
C957 H945 0.950 . S
C957 C953 1.393 . S
C957 C956 1.391 . S
C958 H948 0.950 . S
C958 C959 1.386 . S
C958 C960 1.391 . S
C959 C958 1.386 . S
C959 C963 1.393 . S
C960 H949 0.950 . S
C960 C958 1.391 . S
C960 C961 1.400 . S
C961 C955 1.491 . S
C961 C960 1.400 . S
C961 C962 1.398 . S
C962 H950 0.950 . S
C962 C961 1.398 . S
C962 C963 1.391 . S
C963 H951 0.950 . S
C963 C959 1.393 . S
C963 C962 1.391 . S
H964 C972 0.950 1_655 S
H965 C977 0.950 . S
H966 C974 0.950 . S
H967 C976 0.950 . S
H968 C978 0.950 . S
H969 C980 0.950 . S
H970 C982 0.950 . S
H971 C983 0.950 . S
C972 H964 0.950 1_455 S
C972 C973 1.386 . S
C972 C974 1.391 . S
C973 C972 1.386 . S
C973 C977 1.393 . S
C974 H966 0.950 . S
C974 C972 1.391 . S
C974 C975 1.400 . S
C975 C974 1.400 . S
C975 C976 1.398 . S
C975 C981 1.491 . S
C976 H967 0.950 . S
C976 C975 1.398 . S
C976 C977 1.391 . S
C977 H965 0.950 . S
C977 C973 1.393 . S
C977 C976 1.391 . S
C978 H968 0.950 . S
C978 C979 1.386 . S
C978 C980 1.391 . S
C979 C978 1.386 . S
C979 C983 1.393 . S
C980 H969 0.950 . S
C980 C978 1.391 . S
C980 C981 1.400 . S
C981 C975 1.491 . S
C981 C980 1.400 . S
C981 C982 1.398 . S
C982 H970 0.950 . S
C982 C981 1.398 . S
C982 C983 1.391 . S
C983 H971 0.950 . S
C983 C979 1.393 . S
C983 C982 1.391 . S
H984 C992 0.950 . S
H985 C997 0.950 . S
H986 C994 0.950 . S
H987 C996 0.950 . S
H988 C998 0.950 . S
H989 C1000 0.950 . S
H990 C1002 0.950 . S
H991 C1003 0.950 . S
C992 H984 0.950 . S
C992 C993 1.386 . S
C992 C994 1.391 . S
C993 C992 1.386 . S
C993 C997 1.393 . S
C994 H986 0.950 . S
C994 C992 1.391 . S
C994 C995 1.400 . S
C995 C994 1.400 . S
C995 C996 1.398 . S
C995 C1001 1.491 . S
C996 H987 0.950 . S
C996 C995 1.398 . S
C996 C997 1.391 . S
C997 H985 0.950 . S
C997 C993 1.393 . S
C997 C996 1.391 . S
C998 H988 0.950 . S
C998 C999 1.386 . S
C998 C1000 1.391 . S
C999 C998 1.386 . S
C999 C1003 1.393 . S
C1000 H989 0.950 . S
C1000 C998 1.391 . S
C1000 C1001 1.400 . S
C1001 C995 1.491 . S
C1001 C1000 1.400 . S
C1001 C1002 1.398 . S
C1002 H990 0.950 . S
C1002 C1001 1.398 . S
C1002 C1003 1.391 . S
C1003 H991 0.950 . S
C1003 C999 1.393 . S
C1003 C1002 1.391 . S
H1004 C1012 0.950 . S
H1005 C1017 0.950 1_455 S
H1006 C1014 0.950 1_556 S
H1007 C1016 0.950 . S
H1008 C1018 0.950 1_554 S
H1009 C1020 0.950 . S
H1010 C1022 0.950 . S
H1011 C1023 0.956 . S
C1012 H1004 0.950 . S
C1012 C1013 1.386 . S
C1012 C1014 1.391 . S
C1013 C1012 1.386 . S
C1013 C1017 1.393 . S
C1014 H1006 0.950 1_554 S
C1014 C1012 1.391 . S
C1014 C1015 1.400 . S
C1015 C1014 1.400 . S
C1015 C1016 1.398 1_655 S
C1015 C1021 1.453 1_654 S
C1016 H1007 0.950 . S
C1016 C1015 1.398 1_455 S
C1016 C1017 1.391 1_455 S
C1017 H1005 0.950 1_655 S
C1017 C1013 1.393 . S
C1017 C1016 1.391 1_655 S
C1018 H1008 0.950 1_556 S
C1018 C1019 1.386 . S
C1018 C1020 1.391 1_556 S
C1019 C1018 1.386 . S
C1019 C1023 1.371 1_455 S
C1020 H1009 0.950 . S
C1020 C1018 1.391 1_554 S
C1020 C1021 1.399 1_554 S
C1021 C1015 1.453 1_456 S
C1021 C1020 1.399 1_556 S
C1021 C1022 1.441 1_455 S
C1022 H1010 0.950 . S
C1022 C1021 1.441 1_655 S
C1022 C1023 1.410 . S
C1023 H1011 0.956 . S
C1023 C1019 1.371 1_655 S
C1023 C1022 1.410 . S
H1024 C1032 0.950 . S
H1025 C1037 0.950 . S
H1026 C1034 0.950 . S
H1027 C1036 0.950 . S
H1028 C1038 0.950 . S
H1029 C1040 0.950 . S
H1030 C1042 0.950 . S
H1031 C1043 0.950 . S
C1032 H1024 0.950 . S
C1032 C1033 1.386 . S
C1032 C1034 1.391 . S
C1033 C1032 1.386 . S
C1033 C1037 1.393 . S
C1034 H1026 0.950 . S
C1034 C1032 1.391 . S
C1034 C1035 1.400 . S
C1035 C1034 1.400 . S
C1035 C1036 1.398 . S
C1035 C1041 1.491 . S
C1036 H1027 0.950 . S
C1036 C1035 1.398 . S
C1036 C1037 1.391 . S
C1037 H1025 0.950 . S
C1037 C1033 1.393 . S
C1037 C1036 1.391 . S
C1038 H1028 0.950 . S
C1038 C1039 1.386 . S
C1038 C1040 1.391 . S
C1039 C1038 1.386 . S
C1039 C1043 1.393 . S
C1040 H1029 0.950 . S
C1040 C1038 1.391 . S
C1040 C1041 1.400 . S
C1041 C1035 1.491 . S
C1041 C1040 1.400 . S
C1041 C1042 1.398 . S
C1042 H1030 0.950 . S
C1042 C1041 1.398 . S
C1042 C1043 1.391 . S
C1043 H1031 0.950 . S
C1043 C1039 1.393 . S
C1043 C1042 1.391 . S
H1044 C1052 0.950 . S
H1045 C1057 0.952 . S
H1046 C1054 0.950 . S
H1047 C1056 0.950 . S
H1048 C1058 0.950 . S
H1049 C1060 0.950 . S
H1050 C1062 0.950 . S
H1051 C1063 0.950 . S
C1052 H1044 0.950 . S
C1052 C1053 1.386 1_655 S
C1052 C1054 1.391 1_554 S
C1053 C1052 1.386 1_455 S
C1053 C1057 1.401 . S
C1054 H1046 0.950 . S
C1054 C1052 1.391 1_556 S
C1054 C1055 1.400 1_655 S
C1055 C1054 1.400 1_455 S
C1055 C1056 1.398 . S
C1055 C1061 1.491 . S
C1056 H1047 0.950 . S
C1056 C1055 1.398 . S
C1056 C1057 1.381 1_556 S
C1057 H1045 0.952 . S
C1057 C1053 1.401 . S
C1057 C1056 1.381 1_554 S
C1058 H1048 0.950 . S
C1058 C1059 1.386 . S
C1058 C1060 1.391 . S
C1059 C1058 1.386 . S
C1059 C1063 1.393 1_455 S
C1060 H1049 0.950 . S
C1060 C1058 1.391 . S
C1060 C1061 1.400 . S
C1061 C1055 1.491 . S
C1061 C1060 1.400 . S
C1061 C1062 1.398 1_455 S
C1062 H1050 0.950 . S
C1062 C1061 1.398 1_655 S
C1062 C1063 1.391 . S
C1063 H1051 0.950 . S
C1063 C1059 1.393 1_655 S
C1063 C1062 1.391 . S
H1064 C1072 0.950 . S
H1065 C1077 0.950 . S
H1066 C1074 0.950 . S
H1067 C1076 0.950 . S
H1068 C1078 0.950 . S
H1069 C1080 0.950 . S
H1070 C1082 0.950 . S
H1071 C1083 0.950 . S
C1072 H1064 0.950 . S
C1072 C1073 1.386 . S
C1072 C1074 1.391 . S
C1073 C1072 1.386 . S
C1073 C1077 1.393 . S
C1074 H1066 0.950 . S
C1074 C1072 1.391 . S
C1074 C1075 1.400 . S
C1075 C1074 1.400 . S
C1075 C1076 1.398 . S
C1075 C1081 1.491 . S
C1076 H1067 0.950 . S
C1076 C1075 1.398 . S
C1076 C1077 1.391 . S
C1077 H1065 0.950 . S
C1077 C1073 1.393 . S
C1077 C1076 1.391 . S
C1078 H1068 0.950 . S
C1078 C1079 1.386 . S
C1078 C1080 1.391 . S
C1079 C1078 1.386 . S
C1079 C1083 1.393 . S
C1080 H1069 0.950 . S
C1080 C1078 1.391 . S
C1080 C1081 1.400 . S
C1081 C1075 1.491 . S
C1081 C1080 1.400 . S
C1081 C1082 1.398 . S
C1082 H1070 0.950 . S
C1082 C1081 1.398 . S
C1082 C1083 1.391 . S
C1083 H1071 0.950 . S
C1083 C1079 1.393 . S
C1083 C1082 1.391 . S
H1084 C1092 0.950 . S
H1085 C1097 0.950 . S
H1086 C1094 0.950 . S
H1087 C1096 0.950 . S
H1088 C1098 0.950 . S
H1089 C1100 0.950 . S
H1090 C1102 0.950 . S
H1091 C1103 0.950 . S
C1092 H1084 0.950 . S
C1092 C1093 1.386 . S
C1092 C1094 1.391 . S
C1093 C1092 1.386 . S
C1093 C1097 1.393 . S
C1094 H1086 0.950 . S
C1094 C1092 1.391 . S
C1094 C1095 1.400 . S
C1095 C1094 1.400 . S
C1095 C1096 1.398 . S
C1095 C1101 1.491 . S
C1096 H1087 0.950 . S
C1096 C1095 1.398 . S
C1096 C1097 1.391 . S
C1097 H1085 0.950 . S
C1097 C1093 1.393 . S
C1097 C1096 1.391 . S
C1098 H1088 0.950 . S
C1098 C1099 1.386 . S
C1098 C1100 1.391 . S
C1099 C1098 1.386 . S
C1099 C1103 1.393 . S
C1100 H1089 0.950 . S
C1100 C1098 1.391 . S
C1100 C1101 1.400 . S
C1101 C1095 1.491 . S
C1101 C1100 1.400 . S
C1101 C1102 1.398 . S
C1102 H1090 0.950 . S
C1102 C1101 1.398 . S
C1102 C1103 1.391 . S
C1103 H1091 0.950 . S
C1103 C1099 1.393 . S
C1103 C1102 1.391 . S
H1104 C1112 0.950 . S
H1105 C1117 0.950 . S
H1106 C1114 0.950 . S
H1107 C1116 0.950 . S
H1108 C1118 0.950 . S
H1109 C1120 0.950 . S
H1110 C1122 0.950 . S
H1111 C1123 0.950 . S
C1112 H1104 0.950 . S
C1112 C1113 1.386 . S
C1112 C1114 1.391 . S
C1113 C1112 1.386 . S
C1113 C1117 1.393 . S
C1114 H1106 0.950 . S
C1114 C1112 1.391 . S
C1114 C1115 1.400 . S
C1115 C1114 1.400 . S
C1115 C1116 1.398 . S
C1115 C1121 1.491 . S
C1116 H1107 0.950 . S
C1116 C1115 1.398 . S
C1116 C1117 1.391 . S
C1117 H1105 0.950 . S
C1117 C1113 1.393 . S
C1117 C1116 1.391 . S
C1118 H1108 0.950 . S
C1118 C1119 1.386 . S
C1118 C1120 1.391 . S
C1119 C1118 1.386 . S
C1119 C1123 1.393 . S
C1120 H1109 0.950 . S
C1120 C1118 1.391 . S
C1120 C1121 1.400 . S
C1121 C1115 1.491 . S
C1121 C1120 1.400 . S
C1121 C1122 1.398 . S
C1122 H1110 0.950 . S
C1122 C1121 1.398 . S
C1122 C1123 1.391 . S
C1123 H1111 0.950 . S
C1123 C1119 1.393 . S
C1123 C1122 1.391 . S
H1124 C1132 0.950 . S
H1125 C1137 0.950 . S
H1126 C1134 0.950 . S
H1127 C1136 0.950 . S
H1128 C1138 0.950 . S
H1129 C1140 0.950 . S
H1130 C1142 0.950 . S
H1131 C1143 0.950 . S
C1132 H1124 0.950 . S
C1132 C1133 1.386 . S
C1132 C1134 1.391 . S
C1133 C1132 1.386 . S
C1133 C1137 1.393 . S
C1134 H1126 0.950 . S
C1134 C1132 1.391 . S
C1134 C1135 1.400 . S
C1135 C1134 1.400 . S
C1135 C1136 1.398 . S
C1135 C1141 1.491 . S
C1136 H1127 0.950 . S
C1136 C1135 1.398 . S
C1136 C1137 1.391 . S
C1137 H1125 0.950 . S
C1137 C1133 1.393 . S
C1137 C1136 1.391 . S
C1138 H1128 0.950 . S
C1138 C1139 1.386 . S
C1138 C1140 1.391 . S
C1139 C1138 1.386 . S
C1139 C1143 1.393 . S
C1140 H1129 0.950 . S
C1140 C1138 1.391 . S
C1140 C1141 1.400 . S
C1141 C1135 1.491 . S
C1141 C1140 1.400 . S
C1141 C1142 1.398 . S
C1142 H1130 0.950 . S
C1142 C1141 1.398 . S
C1142 C1143 1.391 . S
C1143 H1131 0.950 . S
C1143 C1139 1.393 . S
C1143 C1142 1.391 . S
H1144 C1152 0.950 . S
H1145 C1157 0.950 . S
H1146 C1154 0.950 . S
H1147 C1156 0.950 . S
H1148 C1158 0.950 . S
H1149 C1160 0.950 . S
H1150 C1162 0.950 . S
H1151 C1163 0.950 . S
C1152 H1144 0.950 . S
C1152 C1153 1.386 . S
C1152 C1154 1.391 . S
C1153 C1152 1.386 . S
C1153 C1157 1.393 . S
C1154 H1146 0.950 . S
C1154 C1152 1.391 . S
C1154 C1155 1.400 . S
C1155 C1154 1.400 . S
C1155 C1156 1.398 . S
C1155 C1161 1.491 . S
C1156 H1147 0.950 . S
C1156 C1155 1.398 . S
C1156 C1157 1.391 . S
C1157 H1145 0.950 . S
C1157 C1153 1.393 . S
C1157 C1156 1.391 . S
C1158 H1148 0.950 . S
C1158 C1159 1.386 . S
C1158 C1160 1.391 . S
C1159 C1158 1.386 . S
C1159 C1163 1.393 . S
C1160 H1149 0.950 . S
C1160 C1158 1.391 . S
C1160 C1161 1.400 . S
C1161 C1155 1.491 . S
C1161 C1160 1.400 . S
C1161 C1162 1.398 . S
C1162 H1150 0.950 . S
C1162 C1161 1.398 . S
C1162 C1163 1.391 . S
C1163 H1151 0.950 . S
C1163 C1159 1.393 . S
C1163 C1162 1.391 . S
H1164 C1172 0.950 . S
H1165 C1177 0.950 . S
H1166 C1174 0.950 . S
H1167 C1176 0.950 . S
H1168 C1178 0.950 . S
H1169 C1180 0.950 . S
H1170 C1182 0.950 . S
H1171 C1183 0.950 . S
C1172 H1164 0.950 . S
C1172 C1173 1.386 . S
C1172 C1174 1.391 . S
C1173 C1172 1.386 . S
C1173 C1177 1.393 . S
C1174 H1166 0.950 . S
C1174 C1172 1.391 . S
C1174 C1175 1.400 . S
C1175 C1174 1.400 . S
C1175 C1176 1.398 . S
C1175 C1181 1.491 . S
C1176 H1167 0.950 . S
C1176 C1175 1.398 . S
C1176 C1177 1.391 . S
C1177 H1165 0.950 . S
C1177 C1173 1.393 . S
C1177 C1176 1.391 . S
C1178 H1168 0.950 . S
C1178 C1179 1.386 . S
C1178 C1180 1.391 . S
C1179 C1178 1.386 . S
C1179 C1183 1.393 . S
C1180 H1169 0.950 . S
C1180 C1178 1.391 . S
C1180 C1181 1.400 . S
C1181 C1175 1.491 . S
C1181 C1180 1.400 . S
C1181 C1182 1.398 . S
C1182 H1170 0.950 . S
C1182 C1181 1.398 . S
C1182 C1183 1.391 . S
C1183 H1171 0.950 . S
C1183 C1179 1.393 . S
C1183 C1182 1.391 . S
H1184 C1192 0.950 . S
H1185 C1197 0.950 . S
H1186 C1194 0.950 . S
H1187 C1196 0.950 . S
H1188 C1198 0.950 . S
H1189 C1200 0.950 . S
H1190 C1202 0.950 . S
H1191 C1203 0.950 . S
C1192 H1184 0.950 . S
C1192 C1193 1.386 . S
C1192 C1194 1.391 . S
C1193 C1192 1.386 . S
C1193 C1197 1.393 . S
C1194 H1186 0.950 . S
C1194 C1192 1.391 . S
C1194 C1195 1.400 . S
C1195 C1194 1.400 . S
C1195 C1196 1.398 . S
C1195 C1201 1.491 . S
C1196 H1187 0.950 . S
C1196 C1195 1.398 . S
C1196 C1197 1.391 . S
C1197 H1185 0.950 . S
C1197 C1193 1.393 . S
C1197 C1196 1.391 . S
C1198 H1188 0.950 . S
C1198 C1199 1.386 . S
C1198 C1200 1.391 . S
C1199 C1198 1.386 . S
C1199 C1203 1.393 . S
C1200 H1189 0.950 . S
C1200 C1198 1.391 . S
C1200 C1201 1.400 . S
C1201 C1195 1.491 . S
C1201 C1200 1.400 . S
C1201 C1202 1.398 . S
C1202 H1190 0.950 . S
C1202 C1201 1.398 . S
C1202 C1203 1.391 . S
C1203 H1191 0.950 . S
C1203 C1199 1.393 . S
C1203 C1202 1.391 . S
H1204 C1212 0.950 . S
H1205 C1217 0.950 . S
H1206 C1214 0.950 . S
H1207 C1216 0.950 . S
H1208 C1218 0.950 . S
H1209 C1220 0.950 . S
H1210 C1222 0.950 . S
H1211 C1223 0.950 . S
C1212 H1204 0.950 . S
C1212 C1213 1.386 . S
C1212 C1214 1.391 . S
C1213 C1212 1.386 . S
C1213 C1217 1.393 . S
C1214 H1206 0.950 . S
C1214 C1212 1.391 . S
C1214 C1215 1.400 . S
C1215 C1214 1.400 . S
C1215 C1216 1.398 . S
C1215 C1221 1.491 . S
C1216 H1207 0.950 . S
C1216 C1215 1.398 . S
C1216 C1217 1.391 . S
C1217 H1205 0.950 . S
C1217 C1213 1.393 . S
C1217 C1216 1.391 . S
C1218 H1208 0.950 . S
C1218 C1219 1.386 . S
C1218 C1220 1.391 . S
C1219 C1218 1.386 . S
C1219 C1223 1.393 . S
C1220 H1209 0.950 . S
C1220 C1218 1.391 . S
C1220 C1221 1.400 . S
C1221 C1215 1.491 . S
C1221 C1220 1.400 . S
C1221 C1222 1.398 . S
C1222 H1210 0.950 . S
C1222 C1221 1.398 . S
C1222 C1223 1.391 . S
C1223 H1211 0.950 . S
C1223 C1219 1.393 . S
C1223 C1222 1.391 . S
H1224 C1232 0.950 1_554 S
H1225 C1237 0.950 . S
H1226 C1234 0.950 1_554 S
H1227 C1236 0.950 . S
H1228 C1238 0.950 . S
H1229 C1240 0.950 . S
H1230 C1242 0.950 . S
H1231 C1243 0.950 . S
C1232 H1224 0.950 1_556 S
C1232 C1233 1.386 . S
C1232 C1234 1.391 . S
C1233 C1232 1.386 . S
C1233 C1237 1.393 . S
C1234 H1226 0.950 1_556 S
C1234 C1232 1.391 . S
C1234 C1235 1.400 . S
C1235 C1234 1.400 . S
C1235 C1236 1.398 . S
C1235 C1241 1.491 . S
C1236 H1227 0.950 . S
C1236 C1235 1.398 . S
C1236 C1237 1.391 . S
C1237 H1225 0.950 . S
C1237 C1233 1.393 . S
C1237 C1236 1.391 . S
C1238 H1228 0.950 . S
C1238 C1239 1.386 . S
C1238 C1240 1.391 . S
C1239 C1238 1.386 . S
C1239 C1243 1.393 1_556 S
C1240 H1229 0.950 . S
C1240 C1238 1.391 . S
C1240 C1241 1.400 . S
C1241 C1235 1.491 . S
C1241 C1240 1.400 . S
C1241 C1242 1.398 1_556 S
C1242 H1230 0.950 . S
C1242 C1241 1.398 1_554 S
C1242 C1243 1.391 . S
C1243 H1231 0.950 . S
C1243 C1239 1.393 1_554 S
C1243 C1242 1.391 . S
H1244 C1252 0.950 . S
H1245 C1257 0.950 . S
H1246 C1254 0.950 . S
H1247 C1256 0.950 . S
H1248 C1258 0.950 . S
H1249 C1260 0.950 . S
H1250 C1262 0.950 . S
H1251 C1263 0.950 . S
C1252 H1244 0.950 . S
C1252 C1253 1.386 . S
C1252 C1254 1.391 . S
C1253 C1252 1.386 . S
C1253 C1257 1.393 . S
C1254 H1246 0.950 . S
C1254 C1252 1.391 . S
C1254 C1255 1.400 . S
C1255 C1254 1.400 . S
C1255 C1256 1.398 . S
C1255 C1261 1.491 . S
C1256 H1247 0.950 . S
C1256 C1255 1.398 . S
C1256 C1257 1.391 . S
C1257 H1245 0.950 . S
C1257 C1253 1.393 . S
C1257 C1256 1.391 . S
C1258 H1248 0.950 . S
C1258 C1259 1.386 . S
C1258 C1260 1.391 . S
C1259 C1258 1.386 . S
C1259 C1263 1.393 . S
C1260 H1249 0.950 . S
C1260 C1258 1.391 . S
C1260 C1261 1.400 . S
C1261 C1255 1.491 . S
C1261 C1260 1.400 . S
C1261 C1262 1.398 . S
C1262 H1250 0.950 . S
C1262 C1261 1.398 . S
C1262 C1263 1.391 . S
C1263 H1251 0.950 . S
C1263 C1259 1.393 . S
C1263 C1262 1.391 . S
H1264 C1272 0.950 . S
H1265 C1277 0.950 . S
H1266 C1274 0.950 . S
H1267 C1276 0.950 . S
H1268 C1278 0.950 . S
H1269 C1280 0.950 . S
H1270 C1282 0.950 . S
H1271 C1283 0.950 . S
C1272 H1264 0.950 . S
C1272 C1273 1.386 . S
C1272 C1274 1.391 . S
C1273 C1272 1.386 . S
C1273 C1277 1.393 . S
C1274 H1266 0.950 . S
C1274 C1272 1.391 . S
C1274 C1275 1.400 . S
C1275 C1274 1.400 . S
C1275 C1276 1.398 . S
C1275 C1281 1.491 . S
C1276 H1267 0.950 . S
C1276 C1275 1.398 . S
C1276 C1277 1.391 . S
C1277 H1265 0.950 . S
C1277 C1273 1.393 . S
C1277 C1276 1.391 . S
C1278 H1268 0.950 . S
C1278 C1279 1.386 . S
C1278 C1280 1.391 . S
C1279 C1278 1.386 . S
C1279 C1283 1.393 . S
C1280 H1269 0.950 . S
C1280 C1278 1.391 . S
C1280 C1281 1.400 . S
C1281 C1275 1.491 . S
C1281 C1280 1.400 . S
C1281 C1282 1.398 . S
C1282 H1270 0.950 . S
C1282 C1281 1.398 . S
C1282 C1283 1.391 . S
C1283 H1271 0.950 . S
C1283 C1279 1.393 . S
C1283 C1282 1.391 . S
H1284 C1292 0.956 . S
H1285 C1297 0.950 1_545 S
H1286 C1294 0.950 . S
H1287 C1296 0.950 . S
H1288 C1298 0.950 . S
H1289 C1300 0.950 . S
H1290 C1302 0.950 . S
H1291 C1303 0.950 . S
C1292 H1284 0.956 . S
C1292 C1293 1.378 1_556 S
C1292 C1294 1.393 . S
C1293 C1292 1.378 1_554 S
C1293 C1297 1.393 . S
C1294 H1286 0.950 . S
C1294 C1292 1.393 . S
C1294 C1295 1.400 1_556 S
C1295 C1294 1.400 1_554 S
C1295 C1296 1.398 . S
C1295 C1301 1.491 . S
C1296 H1287 0.950 . S
C1296 C1295 1.398 . S
C1296 C1297 1.391 . S
C1297 H1285 0.950 1_565 S
C1297 C1293 1.393 . S
C1297 C1296 1.391 . S
C1298 H1288 0.950 . S
C1298 C1299 1.386 . S
C1298 C1300 1.391 . S
C1299 C1298 1.386 . S
C1299 C1303 1.393 1_554 S
C1300 H1289 0.950 . S
C1300 C1298 1.391 . S
C1300 C1301 1.400 . S
C1301 C1295 1.491 . S
C1301 C1300 1.400 . S
C1301 C1302 1.398 1_554 S
C1302 H1290 0.950 . S
C1302 C1301 1.398 1_556 S
C1302 C1303 1.391 . S
C1303 H1291 0.950 . S
C1303 C1299 1.393 1_556 S
C1303 C1302 1.391 . S
C359 C187 1.172 . S
C353 C62 1.140 . S
C379 C195 1.408 . S
C373 C73 1.578 1_455 S
C393 C84 1.445 . S
C399 C215 1.465 . S
C419 C229 1.241 . S
C413 C49 1.115 . S
C439 C244 1.389 . S
C433 C118 1.379 . S
C459 C258 1.633 . S
C453 C137 1.350 . S
C473 C129 1.614 . S
C479 C272 1.625 . S
C499 C278 1.831 . S
C493 C106 1.825 . S
C513 C128 1.823 . S
C519 C292 1.844 . S
C539 C313 1.655 . S
C533 C104 1.472 . S
C553 C115 1.531 . S
C559 C293 1.563 . S
C579 C314 1.815 . S
C573 C139 1.734 . S
C593 C85 1.542 . S
C599 C321 1.264 . S
C613 C52 1.209 . S
C619 C327 1.200 . S
C633 C60 0.917 . S
C639 C320 0.990 . S
C653 C71 1.396 . S
C659 C328 1.535 . S
C673 C40 1.717 . S
C679 C222 1.734 . S
C693 C162 1.131 . S
C699 C223 0.987 . S
C719 C180 1.146 . S
C713 C173 1.176 1_556 S
C739 C201 1.680 . S
C733 C93 1.545 . S
C753 C51 1.383 . S
C759 C236 1.415 . S
C779 C286 1.527 . S
C773 C126 1.349 . S
C799 C237 1.430 . S
C793 C107 1.686 . S
C819 C265 1.417 . S
C813 C140 1.618 . S
C839 C271 1.178 . S
C833 C161 1.171 . S
C853 C172 1.578 . S
C859 C279 1.398 . S
C873 C95 1.441 . S
C879 C243 1.451 . S
C899 C257 1.251 . S
C893 C148 1.136 . S
C913 C41 1.373 . S
C919 C216 1.390 . S
C939 C230 1.635 . S
C933 C5 1.393 . S
C959 C188 1.620 . S
C953 C19 1.605 . S
C979 C194 1.818 . S
C973 C29 1.835 1_455 S
C993 C18 1.829 . S
C999 C306 1.850 . S
C1013 C27 1.471 . S
C1019 C299 1.653 . S
C1033 C38 1.540 . S
C1039 C307 1.550 . S
C1053 C7 1.723 . S
C1059 C300 1.809 . S
C1079 C335 1.228 . S
C1073 C96 1.543 . S
C1099 C341 1.215 . S
C1093 C151 1.219 . S
C1119 C334 0.968 . S
C1113 C159 0.858 . S
C1133 C170 1.415 . S
C1139 C342 1.535 . S
C1153 C117 1.715 . S
C1159 C250 1.736 . S
C1179 C251 0.986 . S
C1173 C63 1.131 . S
C1199 C264 1.120 . S
C1193 C74 1.177 . S
C1219 C285 1.671 . S
C1213 C82 1.563 . S
C1233 C150 1.386 . S
C1239 C208 1.412 1_556 S
C1259 C202 1.527 . S
C1253 C16 1.356 . S
C1273 C30 1.685 . S
C1279 C209 1.454 . S
C1299 C181 1.377 . S
C1293 C8 1.601 1_565 S
