# Generated by pormake.
# Topology iac, (4,6)-cn, num edge types: 1
# Building blocks:
#     Node 0, Type 0, BuildingBlock: TATPOV_clean_sbu_0, # of connection points: 4
#     Node 1, Type 0, BuildingBlock: TATPOV_clean_sbu_0, # of connection points: 4
#     Node 2, Type 0, BuildingBlock: TATPOV_clean_sbu_0, # of connection points: 4
#     Node 3, Type 0, BuildingBlock: TATPOV_clean_sbu_0, # of connection points: 4
#     Node 4, Type 0, BuildingBlock: TATPOV_clean_sbu_0, # of connection points: 4
#     Node 5, Type 0, BuildingBlock: TATPOV_clean_sbu_0, # of connection points: 4
#     Node 6, Type 0, BuildingBlock: TATPOV_clean_sbu_0, # of connection points: 4
#     Node 7, Type 0, BuildingBlock: TATPOV_clean_sbu_0, # of connection points: 4
#     Node 8, Type 0, BuildingBlock: TATPOV_clean_sbu_0, # of connection points: 4
#     Node 9, Type 0, BuildingBlock: TATPOV_clean_sbu_0, # of connection points: 4
#     Node 10, Type 0, BuildingBlock: TATPOV_clean_sbu_0, # of connection points: 4
#     Node 11, Type 0, BuildingBlock: TATPOV_clean_sbu_0, # of connection points: 4
#     Node 12, Type 0, BuildingBlock: TATPOV_clean_sbu_0, # of connection points: 4
#     Node 13, Type 0, BuildingBlock: TATPOV_clean_sbu_0, # of connection points: 4
#     Node 14, Type 0, BuildingBlock: TATPOV_clean_sbu_0, # of connection points: 4
#     Node 15, Type 0, BuildingBlock: TATPOV_clean_sbu_0, # of connection points: 4
#     Node 16, Type 0, BuildingBlock: TATPOV_clean_sbu_0, # of connection points: 4
#     Node 17, Type 0, BuildingBlock: TATPOV_clean_sbu_0, # of connection points: 4
#     Node 18, Type 0, BuildingBlock: TATPOV_clean_sbu_0, # of connection points: 4
#     Node 19, Type 0, BuildingBlock: TATPOV_clean_sbu_0, # of connection points: 4
#     Node 20, Type 0, BuildingBlock: TATPOV_clean_sbu_0, # of connection points: 4
#     Node 21, Type 0, BuildingBlock: TATPOV_clean_sbu_0, # of connection points: 4
#     Node 22, Type 0, BuildingBlock: TATPOV_clean_sbu_0, # of connection points: 4
#     Node 23, Type 0, BuildingBlock: TATPOV_clean_sbu_0, # of connection points: 4
#     Node 24, Type 1, BuildingBlock: CIFDUS_clean_sbu_1, # of connection points: 6
#     Node 25, Type 1, BuildingBlock: CIFDUS_clean_sbu_1, # of connection points: 6
#     Node 26, Type 1, BuildingBlock: CIFDUS_clean_sbu_1, # of connection points: 6
#     Node 27, Type 1, BuildingBlock: CIFDUS_clean_sbu_1, # of connection points: 6
#     Node 28, Type 1, BuildingBlock: CIFDUS_clean_sbu_1, # of connection points: 6
#     Node 29, Type 1, BuildingBlock: CIFDUS_clean_sbu_1, # of connection points: 6
#     Node 30, Type 1, BuildingBlock: CIFDUS_clean_sbu_1, # of connection points: 6
#     Node 31, Type 1, BuildingBlock: CIFDUS_clean_sbu_1, # of connection points: 6
#     Node 32, Type 1, BuildingBlock: CIFDUS_clean_sbu_1, # of connection points: 6
#     Node 33, Type 1, BuildingBlock: CIFDUS_clean_sbu_1, # of connection points: 6
#     Node 34, Type 1, BuildingBlock: CIFDUS_clean_sbu_1, # of connection points: 6
#     Node 35, Type 1, BuildingBlock: CIFDUS_clean_sbu_1, # of connection points: 6
#     Node 36, Type 1, BuildingBlock: CIFDUS_clean_sbu_1, # of connection points: 6
#     Node 37, Type 1, BuildingBlock: CIFDUS_clean_sbu_1, # of connection points: 6
#     Node 38, Type 1, BuildingBlock: CIFDUS_clean_sbu_1, # of connection points: 6
#     Node 39, Type 1, BuildingBlock: CIFDUS_clean_sbu_1, # of connection points: 6
#     Edge 40, Type (0, 1), BuildingBlock: KIFKEQ_clean_linker_1, # of connection points: 2
#     Edge 41, Type (0, 1), BuildingBlock: KIFKEQ_clean_linker_1, # of connection points: 2
#     Edge 42, Type (0, 1), BuildingBlock: KIFKEQ_clean_linker_1, # of connection points: 2
#     Edge 43, Type (0, 1), BuildingBlock: KIFKEQ_clean_linker_1, # of connection points: 2
#     Edge 44, Type (0, 1), BuildingBlock: KIFKEQ_clean_linker_1, # of connection points: 2
#     Edge 45, Type (0, 1), BuildingBlock: KIFKEQ_clean_linker_1, # of connection points: 2
#     Edge 46, Type (0, 1), BuildingBlock: KIFKEQ_clean_linker_1, # of connection points: 2
#     Edge 47, Type (0, 1), BuildingBlock: KIFKEQ_clean_linker_1, # of connection points: 2
#     Edge 48, Type (0, 1), BuildingBlock: KIFKEQ_clean_linker_1, # of connection points: 2
#     Edge 49, Type (0, 1), BuildingBlock: KIFKEQ_clean_linker_1, # of connection points: 2
#     Edge 50, Type (0, 1), BuildingBlock: KIFKEQ_clean_linker_1, # of connection points: 2
#     Edge 51, Type (0, 1), BuildingBlock: KIFKEQ_clean_linker_1, # of connection points: 2
#     Edge 52, Type (0, 1), BuildingBlock: KIFKEQ_clean_linker_1, # of connection points: 2
#     Edge 53, Type (0, 1), BuildingBlock: KIFKEQ_clean_linker_1, # of connection points: 2
#     Edge 54, Type (0, 1), BuildingBlock: KIFKEQ_clean_linker_1, # of connection points: 2
#     Edge 55, Type (0, 1), BuildingBlock: KIFKEQ_clean_linker_1, # of connection points: 2
#     Edge 56, Type (0, 1), BuildingBlock: KIFKEQ_clean_linker_1, # of connection points: 2
#     Edge 57, Type (0, 1), BuildingBlock: KIFKEQ_clean_linker_1, # of connection points: 2
#     Edge 58, Type (0, 1), BuildingBlock: KIFKEQ_clean_linker_1, # of connection points: 2
#     Edge 59, Type (0, 1), BuildingBlock: KIFKEQ_clean_linker_1, # of connection points: 2
#     Edge 60, Type (0, 1), BuildingBlock: KIFKEQ_clean_linker_1, # of connection points: 2
#     Edge 61, Type (0, 1), BuildingBlock: KIFKEQ_clean_linker_1, # of connection points: 2
#     Edge 62, Type (0, 1), BuildingBlock: KIFKEQ_clean_linker_1, # of connection points: 2
#     Edge 63, Type (0, 1), BuildingBlock: KIFKEQ_clean_linker_1, # of connection points: 2
#     Edge 64, Type (0, 1), BuildingBlock: KIFKEQ_clean_linker_1, # of connection points: 2
#     Edge 65, Type (0, 1), BuildingBlock: KIFKEQ_clean_linker_1, # of connection points: 2
#     Edge 66, Type (0, 1), BuildingBlock: KIFKEQ_clean_linker_1, # of connection points: 2
#     Edge 67, Type (0, 1), BuildingBlock: KIFKEQ_clean_linker_1, # of connection points: 2
#     Edge 68, Type (0, 1), BuildingBlock: KIFKEQ_clean_linker_1, # of connection points: 2
#     Edge 69, Type (0, 1), BuildingBlock: KIFKEQ_clean_linker_1, # of connection points: 2
#     Edge 70, Type (0, 1), BuildingBlock: KIFKEQ_clean_linker_1, # of connection points: 2
#     Edge 71, Type (0, 1), BuildingBlock: KIFKEQ_clean_linker_1, # of connection points: 2
#     Edge 72, Type (0, 1), BuildingBlock: KIFKEQ_clean_linker_1, # of connection points: 2
#     Edge 73, Type (0, 1), BuildingBlock: KIFKEQ_clean_linker_1, # of connection points: 2
#     Edge 74, Type (0, 1), BuildingBlock: KIFKEQ_clean_linker_1, # of connection points: 2
#     Edge 75, Type (0, 1), BuildingBlock: KIFKEQ_clean_linker_1, # of connection points: 2
#     Edge 76, Type (0, 1), BuildingBlock: KIFKEQ_clean_linker_1, # of connection points: 2
#     Edge 77, Type (0, 1), BuildingBlock: KIFKEQ_clean_linker_1, # of connection points: 2
#     Edge 78, Type (0, 1), BuildingBlock: KIFKEQ_clean_linker_1, # of connection points: 2
#     Edge 79, Type (0, 1), BuildingBlock: KIFKEQ_clean_linker_1, # of connection points: 2
#     Edge 80, Type (0, 1), BuildingBlock: KIFKEQ_clean_linker_1, # of connection points: 2
#     Edge 81, Type (0, 1), BuildingBlock: KIFKEQ_clean_linker_1, # of connection points: 2
#     Edge 82, Type (0, 1), BuildingBlock: KIFKEQ_clean_linker_1, # of connection points: 2
#     Edge 83, Type (0, 1), BuildingBlock: KIFKEQ_clean_linker_1, # of connection points: 2
#     Edge 84, Type (0, 1), BuildingBlock: KIFKEQ_clean_linker_1, # of connection points: 2
#     Edge 85, Type (0, 1), BuildingBlock: KIFKEQ_clean_linker_1, # of connection points: 2
#     Edge 86, Type (0, 1), BuildingBlock: KIFKEQ_clean_linker_1, # of connection points: 2
#     Edge 87, Type (0, 1), BuildingBlock: KIFKEQ_clean_linker_1, # of connection points: 2
#     Edge 88, Type (0, 1), BuildingBlock: KIFKEQ_clean_linker_1, # of connection points: 2
#     Edge 89, Type (0, 1), BuildingBlock: KIFKEQ_clean_linker_1, # of connection points: 2
#     Edge 90, Type (0, 1), BuildingBlock: KIFKEQ_clean_linker_1, # of connection points: 2
#     Edge 91, Type (0, 1), BuildingBlock: KIFKEQ_clean_linker_1, # of connection points: 2
#     Edge 92, Type (0, 1), BuildingBlock: KIFKEQ_clean_linker_1, # of connection points: 2
#     Edge 93, Type (0, 1), BuildingBlock: KIFKEQ_clean_linker_1, # of connection points: 2
#     Edge 94, Type (0, 1), BuildingBlock: KIFKEQ_clean_linker_1, # of connection points: 2
#     Edge 95, Type (0, 1), BuildingBlock: KIFKEQ_clean_linker_1, # of connection points: 2
#     Edge 96, Type (0, 1), BuildingBlock: KIFKEQ_clean_linker_1, # of connection points: 2
#     Edge 97, Type (0, 1), BuildingBlock: KIFKEQ_clean_linker_1, # of connection points: 2
#     Edge 98, Type (0, 1), BuildingBlock: KIFKEQ_clean_linker_1, # of connection points: 2
#     Edge 99, Type (0, 1), BuildingBlock: KIFKEQ_clean_linker_1, # of connection points: 2
#     Edge 100, Type (0, 1), BuildingBlock: KIFKEQ_clean_linker_1, # of connection points: 2
#     Edge 101, Type (0, 1), BuildingBlock: KIFKEQ_clean_linker_1, # of connection points: 2
#     Edge 102, Type (0, 1), BuildingBlock: KIFKEQ_clean_linker_1, # of connection points: 2
#     Edge 103, Type (0, 1), BuildingBlock: KIFKEQ_clean_linker_1, # of connection points: 2
#     Edge 104, Type (0, 1), BuildingBlock: KIFKEQ_clean_linker_1, # of connection points: 2
#     Edge 105, Type (0, 1), BuildingBlock: KIFKEQ_clean_linker_1, # of connection points: 2
#     Edge 106, Type (0, 1), BuildingBlock: KIFKEQ_clean_linker_1, # of connection points: 2
#     Edge 107, Type (0, 1), BuildingBlock: KIFKEQ_clean_linker_1, # of connection points: 2
#     Edge 108, Type (0, 1), BuildingBlock: KIFKEQ_clean_linker_1, # of connection points: 2
#     Edge 109, Type (0, 1), BuildingBlock: KIFKEQ_clean_linker_1, # of connection points: 2
#     Edge 110, Type (0, 1), BuildingBlock: KIFKEQ_clean_linker_1, # of connection points: 2
#     Edge 111, Type (0, 1), BuildingBlock: KIFKEQ_clean_linker_1, # of connection points: 2
#     Edge 112, Type (0, 1), BuildingBlock: KIFKEQ_clean_linker_1, # of connection points: 2
#     Edge 113, Type (0, 1), BuildingBlock: KIFKEQ_clean_linker_1, # of connection points: 2
#     Edge 114, Type (0, 1), BuildingBlock: KIFKEQ_clean_linker_1, # of connection points: 2
#     Edge 115, Type (0, 1), BuildingBlock: KIFKEQ_clean_linker_1, # of connection points: 2
#     Edge 116, Type (0, 1), BuildingBlock: KIFKEQ_clean_linker_1, # of connection points: 2
#     Edge 117, Type (0, 1), BuildingBlock: KIFKEQ_clean_linker_1, # of connection points: 2
#     Edge 118, Type (0, 1), BuildingBlock: KIFKEQ_clean_linker_1, # of connection points: 2
#     Edge 119, Type (0, 1), BuildingBlock: KIFKEQ_clean_linker_1, # of connection points: 2
#     Edge 120, Type (0, 1), BuildingBlock: KIFKEQ_clean_linker_1, # of connection points: 2
#     Edge 121, Type (0, 1), BuildingBlock: KIFKEQ_clean_linker_1, # of connection points: 2
#     Edge 122, Type (0, 1), BuildingBlock: KIFKEQ_clean_linker_1, # of connection points: 2
#     Edge 123, Type (0, 1), BuildingBlock: KIFKEQ_clean_linker_1, # of connection points: 2
#     Edge 124, Type (0, 1), BuildingBlock: KIFKEQ_clean_linker_1, # of connection points: 2
#     Edge 125, Type (0, 1), BuildingBlock: KIFKEQ_clean_linker_1, # of connection points: 2
#     Edge 126, Type (0, 1), BuildingBlock: KIFKEQ_clean_linker_1, # of connection points: 2
#     Edge 127, Type (0, 1), BuildingBlock: KIFKEQ_clean_linker_1, # of connection points: 2
#     Edge 128, Type (0, 1), BuildingBlock: KIFKEQ_clean_linker_1, # of connection points: 2
#     Edge 129, Type (0, 1), BuildingBlock: KIFKEQ_clean_linker_1, # of connection points: 2
#     Edge 130, Type (0, 1), BuildingBlock: KIFKEQ_clean_linker_1, # of connection points: 2
#     Edge 131, Type (0, 1), BuildingBlock: KIFKEQ_clean_linker_1, # of connection points: 2
#     Edge 132, Type (0, 1), BuildingBlock: KIFKEQ_clean_linker_1, # of connection points: 2
#     Edge 133, Type (0, 1), BuildingBlock: KIFKEQ_clean_linker_1, # of connection points: 2
#     Edge 134, Type (0, 1), BuildingBlock: KIFKEQ_clean_linker_1, # of connection points: 2
#     Edge 135, Type (0, 1), BuildingBlock: KIFKEQ_clean_linker_1, # of connection points: 2
# Relax obj value: 0.110
# Max RMSD: 0.176
# Mean RMSD: 0.129
data_MOF--net-iac--node1-TATPOV_clean_sbu_0--node2-CIFDUS_clean_sbu_1--edge1-KIFKEQ_clean_linker_1
_symmetry_space_group_name_H-M    P1
_symmetry_Int_Tables_number       1
_symmetry_cell_setting            triclinic
loop_
_symmetry_equiv_pos_as_xyz
'x, y, z'
_cell_length_a     54.780596
_cell_length_b     54.662647
_cell_length_c     55.464492
_cell_angle_alpha  89.993862
_cell_angle_beta   90.225488
_cell_angle_gamma 91.315974
loop_
_atom_site_label
_atom_site_type_symbol
_atom_site_fract_x
_atom_site_fract_y
_atom_site_fract_z
_atom_type_partial_charge
Zn0 Zn 0.03974 0.26079 0.09965 0.0
Zn1 Zn -0.00053 0.25405 0.12561 0.0
O2 O 0.9946 0.28522 0.10513 0.0
O3 O 0.02516 0.28767 0.07968 0.0
O4 O 0.96643 0.25122 0.1416 0.0
O5 O 0.03813 0.22554 0.08882 0.0
O6 O 0.00326 0.22098 0.10811 0.0
C7 C 0.00524 0.29577 0.08748 0.0
C8 C 0.04714 0.26449 0.15155 0.0
O9 O 0.02482 0.25755 0.1529 0.0
O10 O 0.05692 0.26873 0.13125 0.0
C11 C 0.95629 0.27037 0.14944 0.0
O12 O 0.96844 0.29136 0.1488 0.0
C13 C 0.02004 0.21217 0.09502 0.0
Zn14 Zn 0.95654 0.72815 0.41842 0.0
Zn15 Zn 0.9941 0.73502 0.38796 0.0
O16 O 0.99482 0.76876 0.40369 0.0
O17 O 0.96188 0.7638 0.42614 0.0
O18 O 0.0211 0.7347 0.3637 0.0
O19 O 0.97378 0.70154 0.43607 0.0
O20 O 0.00291 0.70583 0.40918 0.0
C21 C 0.97892 0.77738 0.41784 0.0
C22 C 0.94136 0.72598 0.37008 0.0
O23 O 0.96377 0.73169 0.36703 0.0
O24 O 0.93344 0.72092 0.39094 0.0
C25 C 0.02874 0.75236 0.35068 0.0
O26 O 0.01907 0.774 0.35297 0.0
C27 C 0.9939 0.69487 0.42745 0.0
Zn28 Zn 0.48829 0.71343 0.66645 0.0
Zn29 Zn 0.49389 0.74793 0.63253 0.0
O30 O 0.45853 0.75133 0.64432 0.0
O31 O 0.45277 0.72169 0.67063 0.0
O32 O 0.49681 0.77873 0.61219 0.0
O33 O 0.51521 0.72799 0.68728 0.0
O34 O 0.5218 0.7534 0.65714 0.0
C35 C 0.44466 0.73959 0.65881 0.0
C36 C 0.50185 0.69483 0.6188 0.0
O37 O 0.49987 0.71695 0.61157 0.0
O38 O 0.49815 0.68948 0.64075 0.0
C39 C 0.4813 0.78475 0.59624 0.0
O40 O 0.46389 0.76907 0.58996 0.0
C41 C 0.52799 0.74487 0.67762 0.0
Zn42 Zn 0.47566 0.24156 0.90449 0.0
Zn43 Zn 0.51013 0.24641 0.87104 0.0
O44 O 0.51289 0.27861 0.89039 0.0
O45 O 0.48606 0.27316 0.91952 0.0
O46 O 0.53695 0.25059 0.84631 0.0
O47 O 0.48948 0.2107 0.91643 0.0
O48 O 0.51813 0.2138 0.88878 0.0
C49 C 0.50225 0.28625 0.90924 0.0
C50 C 0.45632 0.24354 0.85656 0.0
O51 O 0.47878 0.24543 0.85091 0.0
O52 O 0.45014 0.2413 0.87843 0.0
C53 C 0.53532 0.24255 0.82481 0.0
O54 O 0.51554 0.23028 0.81809 0.0
C55 C 0.50821 0.20233 0.90641 0.0
Zn56 Zn 0.09006 0.03891 0.26259 0.0
Zn57 Zn 0.12217 0.00393 0.25491 0.0
O58 O 0.1114 -0.00065 0.29064 0.0
O59 O 0.08706 0.03007 0.29741 0.0
O60 O 0.14272 0.97347 0.24916 0.0
O61 O 0.0666 0.0257 0.23765 0.0
O62 O 0.09472 -0.0011 0.2294 0.0
C63 C 0.0981 0.01148 0.30491 0.0
C64 C 0.13721 0.05824 0.24775 0.0
O65 O 0.14356 0.03579 0.24806 0.0
O66 O 0.11549 0.06366 0.25285 0.0
C67 C 0.15235 0.96088 0.26593 0.0
O68 O 0.15167 0.96902 0.28819 0.0
C69 C 0.07405 0.00825 0.22487 0.0
Zn70 Zn 0.27277 0.83299 0.48901 0.0
Zn71 Zn 0.23805 0.86532 0.49632 0.0
O72 O 0.23372 0.85918 0.46015 0.0
O73 O 0.26542 0.83594 0.45357 0.0
O74 O 0.21081 0.88846 0.50409 0.0
O75 O 0.25762 0.80777 0.51067 0.0
O76 O 0.231 0.83604 0.51927 0.0
C77 C 0.24759 0.84799 0.44575 0.0
C78 C 0.29227 0.8783 0.50522 0.0
O79 O 0.27019 0.88483 0.5026 0.0
O80 O 0.29786 0.85616 0.50255 0.0
C81 C 0.20635 0.90745 0.49169 0.0
O82 O 0.22054 0.91313 0.47338 0.0
C83 C 0.2396 0.81482 0.52279 0.0
Zn84 Zn 0.41996 0.96754 0.75271 0.0
Zn85 Zn 0.38619 0.00156 0.74426 0.0
O86 O 0.39447 0.00453 0.78024 0.0
O87 O 0.42462 0.97936 0.78684 0.0
O88 O 0.36423 0.03082 0.74032 0.0
O89 O 0.441 0.9791 0.72551 0.0
O90 O 0.41342 0.00694 0.71833 0.0
C91 C 0.40997 0.99514 0.7944 0.0
C92 C 0.37166 0.94791 0.73997 0.0
O93 O 0.36553 0.97025 0.73848 0.0
O94 O 0.39334 0.94247 0.74552 0.0
C95 C 0.34124 0.03081 0.74366 0.0
O96 O 0.3296 0.01008 0.7483 0.0
C97 C 0.43342 -0.00332 0.71292 0.0
Zn98 Zn 0.23508 0.16392 0.98519 0.0
Zn99 Zn 0.26416 0.12676 0.99184 0.0
O100 O 0.2735 0.14071 0.95812 0.0
O101 O 0.24711 0.16979 0.9517 0.0
O102 O 0.29072 0.10174 -0.00335 0.0
O103 O 0.24882 0.18202 0.01384 0.0
O104 O 0.26948 0.14901 0.02202 0.0
C105 C 0.26457 0.15701 0.9445 0.0
C106 C 0.20872 0.11811 0.99183 0.0
O107 O 0.23002 0.10895 -0.00763 0.0
O108 O 0.20642 0.141 0.98969 0.0
C109 C 0.30088 0.09039 0.97945 0.0
O110 O 0.29198 0.09231 0.95753 0.0
C111 C 0.26267 0.17038 0.02785 0.0
Zn112 Zn 0.778 0.33786 0.00055 0.0
Zn113 Zn 0.74748 0.37276 0.00487 0.0
O114 O 0.74306 0.36263 0.9692 0.0
O115 O 0.77349 0.33738 0.96502 0.0
O116 O 0.72111 0.3981 0.00955 0.0
O117 O 0.76044 0.31443 0.02206 0.0
O118 O 0.73851 0.34642 0.03071 0.0
C119 C 0.75634 0.34943 0.95591 0.0
C120 C 0.80216 0.38159 0.0144 0.0
O121 O 0.78108 0.39038 0.01043 0.0
O122 O 0.80505 0.35873 0.0136 0.0
C123 C 0.71605 0.41458 -0.00581 0.0
O124 O 0.72934 0.41666 0.9746 0.0
C125 C 0.7443 0.32427 0.03478 0.0
Zn126 Zn 0.92462 0.48609 0.25751 0.0
Zn127 Zn 0.8848 0.51295 0.24795 0.0
O128 O 0.89305 0.51976 0.28359 0.0
O129 O 0.92789 0.50164 0.29036 0.0
O130 O 0.85793 0.53682 0.24045 0.0
O131 O 0.94288 0.49981 0.22905 0.0
O132 O 0.91008 0.52097 0.22128 0.0
C133 C 0.91059 0.51463 0.29767 0.0
C134 C 0.87942 0.45782 0.24765 0.0
O135 O 0.86992 0.47867 0.24452 0.0
O136 O 0.90183 0.45634 0.25321 0.0
C137 C 0.84442 0.54607 0.25653 0.0
O138 O 0.84657 0.53877 0.27898 0.0
C139 C 0.93167 0.51471 0.2158 0.0
Zn140 Zn 0.73195 0.66854 0.48086 0.0
Zn141 Zn 0.76147 0.63059 0.48325 0.0
O142 O 0.77341 0.64944 0.4531 0.0
O143 O 0.75198 0.68296 0.45364 0.0
O144 O 0.78722 0.60477 0.48702 0.0
O145 O 0.73856 0.67778 0.51523 0.0
O146 O 0.76523 0.64826 0.51632 0.0
C147 C 0.76845 0.67023 0.44422 0.0
C148 C 0.7064 0.62202 0.47522 0.0
O149 O 0.72754 0.61312 0.47867 0.0
O150 O 0.70388 0.64499 0.47447 0.0
C151 C 0.79972 0.59563 0.47006 0.0
O152 O 0.79421 0.60078 0.44758 0.0
C153 C 0.75447 0.66589 0.52655 0.0
Zn154 Zn 0.59258 0.5386 0.74724 0.0
Zn155 Zn 0.62272 0.50154 0.74115 0.0
O156 O 0.61121 0.49931 0.77669 0.0
O157 O 0.58941 0.53204 0.78265 0.0
O158 O 0.64287 0.47021 0.73772 0.0
O159 O 0.56866 0.52561 0.72293 0.0
O160 O 0.59511 0.49681 0.71539 0.0
C161 C 0.59906 0.51287 0.79067 0.0
C162 C 0.64006 0.55473 0.731 0.0
O163 O 0.64563 0.53221 0.73349 0.0
O164 O 0.61857 0.56146 0.73527 0.0
C165 C 0.65093 0.4586 0.75599 0.0
O166 O 0.64819 0.46799 0.77758 0.0
C167 C 0.57509 0.50742 0.7106 0.0
Zn168 Zn 0.96362 0.74608 0.90895 0.0
Zn169 Zn 0.0016 0.75076 0.87911 0.0
O170 O 0.00024 0.78406 0.89678 0.0
O171 O 0.97129 0.77876 0.92389 0.0
O172 O 0.03362 0.75199 0.86171 0.0
O173 O 0.97646 0.71515 0.92379 0.0
O174 O 0.00701 0.71935 0.89851 0.0
C175 C 0.98746 0.79227 0.91406 0.0
C176 C 0.95165 0.74741 0.85705 0.0
O177 O 0.97462 0.74824 0.85354 0.0
O178 O 0.94316 0.74622 0.87828 0.0
C179 C 0.03842 0.7362 0.8457 0.0
O180 O 0.02127 0.72065 0.83849 0.0
C181 C 0.9963 0.70753 0.9153 0.0
Zn182 Zn 0.03561 0.25102 0.60589 0.0
Zn183 Zn 0.00028 0.24601 0.63734 0.0
O184 O 0.98986 0.27493 0.61565 0.0
O185 O 0.01747 0.27573 0.58697 0.0
O186 O 0.97253 0.24284 0.66119 0.0
O187 O 0.03273 0.21548 0.59784 0.0
O188 O -0.00027 0.21256 0.62035 0.0
C189 C -0.00194 0.28382 0.59593 0.0
C190 C 0.05309 0.25815 0.65316 0.0
O191 O 0.03129 0.25137 0.6583 0.0
O192 O 0.05919 0.26142 0.63142 0.0
C193 C 0.97202 0.25406 0.68128 0.0
O194 O 0.99055 0.26843 0.68746 0.0
C195 C 0.01486 0.20299 0.60596 0.0
Zn196 Zn 0.46556 0.23895 0.3977 0.0
Zn197 Zn 0.50551 0.24617 0.37127 0.0
O198 O 0.50137 0.27893 0.38942 0.0
O199 O 0.46902 0.27281 0.41233 0.0
O200 O 0.53918 0.24893 0.35702 0.0
O201 O 0.47892 0.20951 0.41481 0.0
O202 O 0.50964 0.2135 0.38971 0.0
C203 C 0.48605 0.28678 0.40471 0.0
C204 C 0.45817 0.23934 0.34484 0.0
O205 O 0.48091 0.24448 0.34347 0.0
O206 O 0.44823 0.2352 0.36513 0.0
C207 C 0.54663 0.23349 0.34172 0.0
O208 O 0.53126 0.21698 0.33289 0.0
C209 C 0.49868 0.20167 0.40639 0.0
Zn210 Zn 0.48914 0.7116 0.16771 0.0
Zn211 Zn 0.49463 0.7484 0.13541 0.0
O212 O 0.46295 0.75521 0.15382 0.0
O213 O 0.4596 0.72677 0.18183 0.0
O214 O 0.49774 0.7782 0.11424 0.0
O215 O 0.52202 0.72006 0.18146 0.0
O216 O 0.52678 0.7493 0.1544 0.0
C217 C 0.45175 0.7458 0.17177 0.0
C218 C 0.48992 0.69618 0.11749 0.0
O219 O 0.49306 0.71889 0.11301 0.0
O220 O 0.48696 0.68882 0.13898 0.0
C221 C 0.48424 0.78224 0.09604 0.0
O222 O 0.46795 0.76556 0.08935 0.0
C223 C 0.53494 0.73695 0.17202 0.0
Zn224 Zn 0.92545 0.97711 0.7443 0.0
Zn225 Zn 0.88944 0.00874 0.74991 0.0
O226 O 0.91244 0.01356 0.77986 0.0
O227 O 0.94283 0.98861 0.77394 0.0
O228 O 0.86509 0.03658 0.75217 0.0
O229 O 0.93475 0.99151 0.71224 0.0
O230 O 0.90396 0.01631 0.71617 0.0
C231 C 0.93265 0.00454 0.78673 0.0
C232 C 0.87756 0.95358 0.75072 0.0
O233 O 0.86983 0.97549 0.75158 0.0
O234 O 0.90008 0.94986 0.74756 0.0
C235 C 0.87251 0.05778 0.75898 0.0
O236 O 0.89526 0.06081 0.76616 0.0
C237 C 0.92186 0.00852 0.70399 0.0
Zn238 Zn 0.71287 0.16376 0.49504 0.0
Zn239 Zn 0.74902 0.1321 0.49353 0.0
O240 O 0.75761 0.15782 0.46725 0.0
O241 O 0.73027 0.18629 0.47219 0.0
O242 O 0.7773 0.10874 0.49336 0.0
O243 O 0.71736 0.1671 0.53067 0.0
O244 O 0.75015 0.14467 0.52829 0.0
C245 C 0.74904 0.17862 0.46166 0.0
C246 C 0.69608 0.11604 0.48254 0.0
O247 O 0.71819 0.1108 0.48707 0.0
O248 O 0.68947 0.13806 0.48285 0.0
C249 C 0.77762 0.08824 0.48251 0.0
O250 O 0.75858 0.08116 0.46959 0.0
C251 C 0.73557 0.15741 0.54062 0.0
Zn252 Zn 0.57712 0.02691 0.23248 0.0
Zn253 Zn 0.61579 -0.00164 0.24291 0.0
O254 O 0.58968 0.99024 0.26916 0.0
O255 O 0.55851 0.01358 0.26088 0.0
O256 O 0.64343 0.97479 0.24858 0.0
O257 O 0.57413 0.01098 0.19968 0.0
O258 O 0.60781 0.99111 0.20742 0.0
C259 C 0.56838 -0.00222 0.27418 0.0
C260 C 0.62236 0.05387 0.24317 0.0
O261 O 0.631 0.03264 0.24637 0.0
O262 O 0.60017 0.05625 0.23719 0.0
C263 C 0.64628 0.96223 0.26764 0.0
O264 O 0.63134 0.96526 0.2858 0.0
C265 C 0.59079 -0.00315 0.19299 0.0
Zn266 Zn 0.77023 0.82826 0.00256 0.0
Zn267 Zn 0.74085 0.86649 0.00081 0.0
O268 O 0.73642 0.85056 0.96702 0.0
O269 O 0.75931 0.81806 0.96938 0.0
O270 O 0.71299 0.88974 0.0026 0.0
O271 O 0.75366 0.81349 0.03166 0.0
O272 O 0.73156 0.84645 0.03092 0.0
C273 C 0.74484 0.83125 0.95755 0.0
C274 C 0.79499 0.87655 0.00689 0.0
O275 O 0.77368 0.88532 0.00466 0.0
O276 O 0.79775 0.85356 0.00666 0.0
C277 C 0.70978 0.91233 -0.00128 0.0
O278 O 0.72796 0.92625 0.99092 0.0
C279 C 0.73721 0.82637 0.04083 0.0
Zn280 Zn 0.23203 0.67996 -2e-05 0.0
Zn281 Zn 0.26052 0.64206 -0.00751 0.0
O282 O 0.26706 0.6666 0.96419 0.0
O283 O 0.24391 0.69819 0.97118 0.0
O284 O 0.28707 0.61693 0.98946 0.0
O285 O 0.24614 0.68676 0.03271 0.0
O286 O 0.26527 0.65216 0.02797 0.0
C287 C 0.25925 0.6876 0.95808 0.0
C288 C 0.20627 0.63293 -0.00776 0.0
O289 O 0.22749 0.62426 0.98942 0.0
O290 O 0.20378 0.65549 -0.00329 0.0
C291 C 0.28719 0.5975 0.97685 0.0
O292 O 0.26826 0.59189 0.96316 0.0
C293 C 0.25927 0.67006 0.04116 0.0
Zn294 Zn 0.07794 0.51089 0.73915 0.0
Zn295 Zn 0.11905 0.4857 0.74539 0.0
O296 O 0.09759 0.4779 0.7754 0.0
O297 O 0.0635 0.49773 0.76975 0.0
O298 O 0.14627 0.46144 0.74753 0.0
O299 O 0.07073 0.49432 0.70741 0.0
O300 O 0.10664 0.47753 0.71134 0.0
C301 C 0.0764 0.48386 0.78256 0.0
C302 C 0.12327 0.54066 0.74352 0.0
O303 O 0.13384 0.52029 0.74626 0.0
O304 O 0.10034 0.54116 0.74023 0.0
C305 C 0.16927 0.46479 0.74914 0.0
O306 O 0.17845 0.4871 0.75127 0.0
C307 C 0.08754 0.4814 0.69896 0.0
Zn308 Zn 0.26942 0.33482 0.50842 0.0
Zn309 Zn 0.2386 0.37147 0.50569 0.0
O310 O 0.23501 0.35262 0.47287 0.0
O311 O 0.26026 0.32204 0.47583 0.0
O312 O 0.20983 0.39469 0.50568 0.0
O313 O 0.25342 0.32028 0.53759 0.0
O314 O 0.23054 0.3528 0.53748 0.0
C315 C 0.24467 0.33369 0.46382 0.0
C316 C 0.29295 0.38342 0.51054 0.0
O317 O 0.27135 0.39145 0.50779 0.0
O318 O 0.2963 0.36058 0.51177 0.0
C319 C 0.19714 0.39864 0.48687 0.0
O320 O 0.20493 0.39068 0.466 0.0
C321 C 0.23709 0.33289 0.54729 0.0
Zn322 Zn 0.41671 0.4809 0.23039 0.0
Zn323 Zn 0.3821 0.51351 0.23605 0.0
O324 O 0.40608 0.51746 0.26543 0.0
O325 O 0.43561 0.49159 0.2593 0.0
O326 O 0.36068 0.54358 0.23986 0.0
O327 O 0.42614 0.49421 0.19811 0.0
O328 O 0.39629 0.5202 0.20173 0.0
C329 C 0.4261 0.50789 0.27212 0.0
C330 C 0.36836 0.45901 0.23876 0.0
O331 O 0.36102 0.4811 0.23912 0.0
O332 O 0.39065 0.45474 0.23494 0.0
C333 C 0.33926 0.5475 0.2319 0.0
O334 O 0.32703 0.52982 0.22087 0.0
C335 C 0.41386 0.51155 0.18964 0.0
O336 O 0.03436 0.01872 0.00663 0.0
Mn337 Mn -0.00013 0.00085 0.0086 0.0
O338 O 0.06166 0.98975 0.01536 0.0
Mn339 Mn 0.03971 0.96412 0.01998 0.0
O340 O 0.9655 0.98263 0.01063 0.0
O341 O 0.98506 0.03289 0.01707 0.0
Mn342 Mn 0.95717 0.03673 0.00205 0.0
O343 O 0.99406 0.00744 0.9717 0.0
O344 O 0.9369 0.01152 0.01258 0.0
O345 O 0.00475 0.99512 0.04582 0.0
O346 O 0.02691 0.96158 0.05052 0.0
O347 O 0.96222 0.06461 0.02028 0.0
O348 O 0.96516 0.03622 0.96967 0.0
C349 C 0.02121 0.94806 0.9903 0.0
C350 C 0.05646 0.01171 0.01005 0.0
C351 C 0.94322 0.98926 0.01342 0.0
C352 C 0.98221 0.05415 0.02653 0.0
C353 C 0.98049 0.02218 0.95974 0.0
C354 C 0.01394 0.9784 0.05916 0.0
O355 O 0.01519 0.96867 -9e-05 0.0
O356 O 0.03984 0.93763 -3e-05 0.0
O357 O 0.26945 0.75899 0.23245 0.0
Mn358 Mn 0.23482 0.75034 0.24505 0.0
O359 O 0.26484 0.77786 0.19663 0.0
Mn360 Mn 0.23104 0.77355 0.19451 0.0
O361 O 0.19987 0.74195 0.25772 0.0
O362 O 0.24943 0.7235 0.26563 0.0
Mn363 Mn 0.23857 0.72714 0.29527 0.0
O364 O 0.2391 0.77687 0.27185 0.0
O365 O 0.20486 0.72332 0.29356 0.0
O366 O 0.23129 0.72397 0.21804 0.0
O367 O 0.22036 0.743 0.18401 0.0
O368 O 0.25839 0.7006 0.29656 0.0
O369 O 0.24996 0.75735 0.30567 0.0
C370 C 0.2092 0.79612 0.21687 0.0
C371 C 0.27816 0.76986 0.21375 0.0
C372 C 0.1913 0.73148 0.27673 0.0
C373 C 0.2611 0.70474 0.27374 0.0
C374 C 0.24669 0.77686 0.29372 0.0
C375 C 0.22468 0.72363 0.19585 0.0
O376 O 0.22047 0.77691 0.22428 0.0
O377 O 0.21111 0.8002 0.19397 0.0
O378 O 0.4614 0.97888 0.48998 0.0
Mn379 Mn 0.49753 0.99249 0.49201 0.0
O380 O 0.43701 0.01117 0.48654 0.0
Mn381 Mn 0.46033 0.03367 0.49653 0.0
O382 O 0.53338 0.00599 0.49409 0.0
O383 O 0.508 0.95836 0.50202 0.0
Mn384 Mn 0.53315 0.95146 0.48338 0.0
O385 O 0.50218 0.98505 0.45506 0.0
O386 O 0.55798 0.97405 0.48951 0.0
O387 O 0.49225 0.00088 0.52872 0.0
O388 O 0.46711 0.03295 0.52913 0.0
O389 O 0.52937 0.92471 0.50253 0.0
O390 O 0.52267 0.95029 0.45181 0.0
C391 C 0.48716 0.04805 0.47266 0.0
C392 C 0.4402 0.98821 0.4872 0.0
C393 C 0.5547 -0.00322 0.4928 0.0
C394 C 0.51147 0.93687 0.5114 0.0
C395 C 0.51119 0.9678 0.44233 0.0
C396 C 0.48002 0.01722 0.53999 0.0
O397 O 0.48766 0.02639 0.48208 0.0
O398 O 0.46834 0.06067 0.47839 0.0
O399 O 0.29555 0.25691 0.75556 0.0
Mn400 Mn 0.25871 0.25093 0.74939 0.0
O401 O 0.31602 0.24732 0.72186 0.0
Mn402 Mn 0.2891 0.23444 0.70515 0.0
O403 O 0.22159 0.24526 0.74356 0.0
O404 O 0.25354 0.24986 0.78495 0.0
Mn405 Mn 0.22965 0.26863 0.79398 0.0
O406 O 0.25355 0.289 0.74863 0.0
O407 O 0.20227 0.25637 0.77759 0.0
O408 O 0.26421 0.21282 0.74988 0.0
O409 O 0.28012 0.20282 0.71382 0.0
O410 O 0.24169 0.25431 0.82174 0.0
O411 O 0.23953 0.29989 0.78509 0.0
C412 C 0.26146 0.25833 0.69173 0.0
C413 C 0.3154 0.25513 0.74355 0.0
C414 C 0.20208 0.24811 0.756 0.0
C415 C 0.25657 0.24388 0.80714 0.0
C416 C 0.24746 0.30529 0.76414 0.0
C417 C 0.2715 0.19697 0.7344 0.0
O418 O 0.26419 0.25214 0.71389 0.0
O419 O 0.27715 0.2488 0.67735 0.0
O420 O 0.98597 0.96348 0.48196 0.0
Mn421 Mn 0.99201 -0.00225 0.49758 0.0
O422 O 0.98548 0.93611 0.51245 0.0
Mn423 Mn -0.00179 0.95671 0.53598 0.0
O424 O -0.00215 0.03184 0.513 0.0
O425 O -0.00012 0.01142 0.4651 0.0
Mn426 Mn 0.98312 0.03781 0.4591 0.0
O427 O 0.95464 0.00536 0.49334 0.0
O428 O 0.99134 0.05966 0.48373 0.0
O429 O 0.02906 0.98965 0.50203 0.0
O430 O 0.03143 0.96369 0.53357 0.0
O431 O 0.00291 0.03306 0.43259 0.0
O432 O 0.95089 0.02725 0.45927 0.0
C433 C 0.97485 0.98361 0.55135 0.0
C434 C 0.98286 0.9417 0.49026 0.0
C435 C 0.99643 0.05397 0.50551 0.0
C436 C 0.01024 0.01426 0.44451 0.0
C437 C 0.94157 0.01543 0.47689 0.0
C438 C 0.04138 0.97684 0.51712 0.0
O439 O 0.98429 0.98464 0.53023 0.0
O440 O 0.98047 0.96423 0.56332 0.0
O441 O 0.25582 0.78533 0.73847 0.0
Mn442 Mn 0.23798 0.75096 0.73825 0.0
O443 O 0.22677 0.81378 0.73779 0.0
Mn444 Mn 0.2008 0.79222 0.73324 0.0
O445 O 0.22023 0.71639 0.73793 0.0
O446 O 0.26901 0.73671 0.7263 0.0
Mn447 Mn 0.27529 0.70919 0.74114 0.0
O448 O 0.24876 0.74544 0.77417 0.0
O449 O 0.24944 0.68835 0.73361 0.0
O450 O 0.2275 0.756 0.70219 0.0
O451 O 0.19633 0.78197 0.70183 0.0
O452 O 0.30059 0.71447 0.71983 0.0
O453 O 0.27855 0.71763 0.77332 0.0
C454 C 0.18718 0.77016 0.76191 0.0
C455 C 0.24907 0.80774 0.73843 0.0
C456 C 0.22711 0.69424 0.73469 0.0
C457 C 0.28902 0.73414 0.71455 0.0
C458 C 0.26517 0.73257 0.78462 0.0
C459 C 0.21068 0.76763 0.69106 0.0
O460 O 0.20695 0.76578 0.75018 0.0
O461 O 0.176 0.78967 0.75527 0.0
O462 O 0.47307 0.98832 0.96927 0.0
Mn463 Mn 0.5026 0.99172 -0.00686 0.0
O464 O 0.48606 0.96777 0.93691 0.0
Mn465 Mn 0.51822 0.97796 0.94099 0.0
O466 O 0.53237 0.99492 0.0168 0.0
O467 O 0.48068 0.01114 0.01463 0.0
Mn468 Mn 0.48796 0.00513 0.04494 0.0
O469 O 0.49184 0.95977 0.01085 0.0
O470 O 0.51993 0.01573 0.04899 0.0
O471 O 0.51383 0.02335 0.97539 0.0
O472 O 0.52405 0.01169 0.93768 0.0
O473 O 0.46258 0.0267 0.04562 0.0
O474 O 0.48257 0.97146 0.04867 0.0
C475 C 0.54225 0.95957 0.96562 0.0
C476 C 0.46905 0.97704 0.94929 0.0
C477 C 0.53678 0.00637 0.03657 0.0
C478 C 0.4635 0.0249 0.02239 0.0
C479 C 0.48525 0.95492 0.0326 0.0
C480 C 0.52146 0.02809 0.95394 0.0
O481 O 0.52401 0.97255 0.9716 0.0
O482 O 0.54429 0.95677 0.94258 0.0
O483 O 0.29273 0.25935 0.24889 0.0
Mn484 Mn 0.25462 0.25612 0.24453 0.0
O485 O 0.3027 0.23111 0.27649 0.0
Mn486 Mn 0.27117 0.2218 0.28408 0.0
O487 O 0.21649 0.25295 0.24018 0.0
O488 O 0.25535 0.29107 0.23198 0.0
Mn489 Mn 0.23695 0.29193 0.20583 0.0
O490 O 0.26047 0.24185 0.20986 0.0
O491 O 0.20571 0.28355 0.21545 0.0
O492 O 0.24843 0.27094 0.27905 0.0
O493 O 0.25481 0.24095 0.30571 0.0
O494 O 0.24832 0.3234 0.21 0.0
O495 O 0.25148 0.27173 0.1836 0.0
C496 C 0.2516 0.19738 0.26135 0.0
C497 C 0.3085 0.24766 0.26133 0.0
C498 C 0.20035 0.26587 0.22952 0.0
C499 C 0.25936 0.31432 0.22851 0.0
C500 C 0.25966 0.25063 0.18834 0.0
C501 C 0.2475 0.26221 0.30056 0.0
O502 O 0.25409 0.22077 0.2569 0.0
O503 O 0.26216 0.18984 0.28084 0.0
O504 O 0.49672 0.47294 0.97316 0.0
Mn505 Mn 0.50187 0.50784 0.98766 0.0
O506 O 0.49636 0.44648 0.00435 0.0
Mn507 Mn 0.50784 0.46839 0.02742 0.0
O508 O 0.50717 0.54281 0.00172 0.0
O509 O 0.51006 0.52006 0.95479 0.0
Mn510 Mn 0.49422 0.5467 0.94756 0.0
O511 O 0.46459 0.51507 0.98237 0.0
O512 O 0.50372 0.56942 0.97086 0.0
O513 O 0.53906 0.50022 -0.00689 0.0
O514 O 0.541 0.47584 0.02585 0.0
O515 O 0.51353 0.5398 0.92118 0.0
O516 O 0.46152 0.53753 0.94853 0.0
C517 C 0.48329 0.49469 0.04164 0.0
C518 C 0.49421 0.45131 0.98196 0.0
C519 C 0.50744 0.56466 -0.00689 0.0
C520 C 0.52027 0.52138 0.93402 0.0
C521 C 0.45185 0.52568 0.96598 0.0
C522 C 0.5512 0.48824 0.00902 0.0
O523 O 0.49336 0.49589 0.02072 0.0
O524 O 0.4893 0.47577 0.05413 0.0
O525 O 0.7713 0.28871 0.25036 0.0
Mn526 Mn 0.75198 0.25507 0.25021 0.0
O527 O 0.74339 0.31829 0.25164 0.0
Mn528 Mn 0.71673 0.29819 0.24494 0.0
O529 O 0.73279 0.22145 0.25011 0.0
O530 O 0.78264 0.23881 0.23929 0.0
Mn531 Mn 0.78769 0.21256 0.25685 0.0
O532 O 0.76128 0.25016 0.28651 0.0
O533 O 0.76084 0.192 0.25243 0.0
O534 O 0.74239 0.2601 0.21398 0.0
O535 O 0.71306 0.28834 0.21324 0.0
O536 O 0.81305 0.21419 0.23526 0.0
O537 O 0.79207 0.22372 0.28803 0.0
C538 C 0.70139 0.27566 0.27261 0.0
C539 C 0.76541 0.31132 0.25205 0.0
C540 C 0.73879 0.19884 0.25098 0.0
C541 C 0.8027 0.23402 0.22825 0.0
C542 C 0.77779 0.23862 0.29814 0.0
C543 C 0.72632 0.2727 0.20279 0.0
O544 O 0.72129 0.27109 0.26124 0.0
O545 O 0.69114 0.29575 0.2662 0.0
O546 O 0.96238 0.48701 0.47397 0.0
Mn547 Mn 0.99051 0.48513 0.49948 0.0
O548 O 0.97485 0.46856 0.44035 0.0
Mn549 Mn 0.00739 0.47465 0.44747 0.0
O550 O 0.01875 0.48371 0.52481 0.0
O551 O 0.96957 0.50524 0.52101 0.0
Mn552 Mn 0.97382 0.4974 0.55134 0.0
O553 O 0.97527 0.45356 0.51446 0.0
O554 O 0.00649 0.50426 0.55736 0.0
O555 O 0.00585 0.51665 0.48524 0.0
O556 O 0.01717 0.50771 0.44725 0.0
O557 O 0.95044 0.52142 0.5508 0.0
O558 O 0.96484 0.46425 0.55239 0.0
C559 C 0.02833 0.451 0.47003 0.0
C560 C 0.95832 0.47855 0.45272 0.0
C561 C 0.02303 0.49397 0.54522 0.0
C562 C 0.95297 0.52011 0.52767 0.0
C563 C 0.96668 0.4484 0.5355 0.0
C564 C 0.01524 0.52267 0.46488 0.0
O565 O 0.01153 0.46528 0.47759 0.0
O566 O 0.03049 0.4506 0.44681 0.0
O567 O 0.79313 0.76672 0.25879 0.0
Mn568 Mn 0.75824 0.75963 0.24513 0.0
O569 O 0.81896 0.77028 0.22739 0.0
Mn570 Mn 0.79743 0.7576 0.20465 0.0
O571 O 0.72352 0.7524 0.23117 0.0
O572 O 0.74777 0.7493 0.27812 0.0
Mn573 Mn 0.71926 0.76096 0.28571 0.0
O574 O 0.74836 0.79589 0.25193 0.0
O575 O 0.69804 0.74794 0.2628 0.0
O576 O 0.76783 0.72348 0.23844 0.0
O577 O 0.79301 0.7238 0.20643 0.0
O578 O 0.72923 0.74271 0.31192 0.0
O579 O 0.72395 0.79467 0.28465 0.0
C580 C 0.76788 0.77916 0.19131 0.0
C581 C 0.81452 0.77077 0.24994 0.0
C582 C 0.70255 0.74719 0.24028 0.0
C583 C 0.74831 0.73892 0.29891 0.0
C584 C 0.7357 0.8064 0.26833 0.0
C585 C 0.78093 0.71243 0.22282 0.0
O586 O 0.76898 0.76948 0.21232 0.0
O587 O 0.78694 0.77545 0.17824 0.0
O588 O 0.7895 0.25398 0.75027 0.0
Mn589 Mn 0.75101 0.25208 0.74945 0.0
O590 O 0.80111 0.28658 0.72806 0.0
Mn591 Mn 0.77199 0.28789 0.71137 0.0
O592 O 0.71258 0.25045 0.74823 0.0
O593 O 0.75313 0.2187 0.76559 0.0
Mn594 Mn 0.72956 0.21695 0.78718 0.0
O595 O 0.7495 0.26983 0.78247 0.0
O596 O 0.70057 0.21813 0.77042 0.0
O597 O 0.75232 0.23458 0.71637 0.0
O598 O 0.76671 0.26244 0.68972 0.0
O599 O 0.74497 0.18775 0.78961 0.0
O600 O 0.73461 0.24223 0.80901 0.0
C601 C 0.74219 0.30678 0.72693 0.0
C602 C 0.80598 0.26907 0.74227 0.0
C603 C 0.69596 0.23542 0.75591 0.0
C604 C 0.75831 0.19659 0.77232 0.0
C605 C 0.74227 0.26377 0.80365 0.0
C606 C 0.75902 0.2409 0.69509 0.0
O607 O 0.74889 0.28512 0.73326 0.0
O608 O 0.75492 0.31647 0.70965 0.0
O609 O 0.79194 0.7538 0.7479 0.0
Mn610 Mn 0.75471 0.75509 0.73923 0.0
O611 O 0.79608 0.7233 0.77474 0.0
Mn612 Mn 0.76309 0.71798 0.77992 0.0
O613 O 0.71736 0.75682 0.73068 0.0
O614 O 0.7611 0.78937 0.72645 0.0
Mn615 Mn 0.74653 0.79199 0.69815 0.0
O616 O 0.76201 0.73946 0.70569 0.0
O617 O 0.71354 0.78768 0.70413 0.0
O618 O 0.74704 0.77061 0.773 0.0
O619 O 0.74768 0.73978 0.79986 0.0
O620 O 0.76138 0.82193 0.70365 0.0
O621 O 0.76062 0.76933 0.67793 0.0
C622 C 0.74255 0.69753 0.75414 0.0
C623 C 0.80508 0.73988 0.76107 0.0
C624 C 0.70432 0.77125 0.71786 0.0
C625 C 0.76845 0.81189 0.72354 0.0
C626 C 0.7647 0.74731 0.68402 0.0
C627 C 0.74343 0.76189 0.79427 0.0
O628 O 0.7488 0.72044 0.75155 0.0
O629 O 0.74957 0.68762 0.77411 0.0
O630 O 0.53448 0.51904 0.48714 0.0
Mn631 Mn 0.49956 0.50262 0.49252 0.0
O632 O 0.56145 0.48881 0.48886 0.0
Mn633 Mn 0.53918 0.46508 0.49823 0.0
O634 O 0.46454 0.48647 0.49794 0.0
O635 O 0.48773 0.53614 0.5021 0.0
Mn636 Mn 0.45932 0.54068 0.4879 0.0
O637 O 0.49117 0.50909 0.45603 0.0
O638 O 0.43785 0.51706 0.49956 0.0
O639 O 0.50772 0.49636 0.52931 0.0
O640 O 0.53244 0.46431 0.53057 0.0
O641 O 0.46548 0.56879 0.50492 0.0
O642 O 0.46489 0.54009 0.45515 0.0
C643 C 0.51589 0.44745 0.47346 0.0
C644 C 0.55647 0.51122 0.48599 0.0
C645 C 0.44284 0.4945 0.50133 0.0
C646 C 0.48532 0.55791 0.51101 0.0
C647 C 0.47824 0.5247 0.44454 0.0
C648 C 0.51991 0.48035 0.54109 0.0
O649 O 0.51155 0.46903 0.48232 0.0
O650 O 0.53579 0.4373 0.48067 0.0
O651 O 0.97493 0.48069 -0.00161 0.0
Mn652 Mn 0.00774 0.50118 0.00067 0.0
O653 O 0.94523 0.50667 0.98846 0.0
Mn654 Mn 0.96262 0.53431 -0.00223 0.0
O655 O 0.04054 0.52164 0.00317 0.0
O656 O 0.02328 0.47178 0.01494 0.0
Mn657 Mn 0.05294 0.4679 0.00391 0.0
O658 O 0.0175 0.48983 0.96615 0.0
O659 O 0.07024 0.49569 0.01323 0.0
O660 O -0.00189 0.51243 0.03522 0.0
O661 O 0.96685 0.53823 0.03085 0.0
O662 O 0.04667 0.44203 0.02468 0.0
O663 O 0.04884 0.46412 0.97078 0.0
C664 C 0.98938 0.55081 0.97464 0.0
C665 C 0.95277 0.48517 -0.00768 0.0
C666 C 0.06268 0.51721 0.00938 0.0
C667 C 0.02546 0.45169 0.02675 0.0
C668 C 0.03349 0.4753 0.95758 0.0
C669 C 0.98226 0.527 0.04392 0.0
O670 O 0.99219 0.5307 0.98635 0.0
O671 O 0.96807 0.56021 0.97708 0.0
H672 H 0.98255 0.17885 0.10125 0.0
H673 H 0.05584 0.18611 0.07318 0.0
H674 H 0.98105 0.13611 0.08917 0.0
H675 H 0.05465 0.14305 0.06177 0.0
H676 H 0.02104 0.08097 0.01152 0.0
H677 H 0.03507 0.11821 0.03183 0.0
H678 H 0.99557 0.09591 0.09581 0.0
H679 H 0.98078 0.05922 0.07481 0.0
C680 C -0.00156 0.17127 0.09271 0.0
C681 C 0.01917 0.18601 0.08794 0.0
C682 C -0.00225 0.1466 0.08606 0.0
C683 C 0.01785 0.13597 0.07465 0.0
C684 C 0.03879 0.15063 0.07035 0.0
C685 C 0.03942 0.17535 0.07686 0.0
C686 C 0.01655 0.08344 0.03037 0.0
C687 C -5e-05 0.06734 0.0417 0.0
C688 C 0.02438 0.10492 0.04201 0.0
C689 C 0.01577 0.11048 0.06523 0.0
C690 C 0.00192 0.09256 0.07767 0.0
C691 C 0.99387 0.07127 0.06588 0.0
H692 H 0.04539 0.70882 0.33461 0.0
H693 H 0.05825 0.78688 0.32884 0.0
H694 H 0.08164 0.70168 0.3107 0.0
H695 H 0.09511 0.7797 0.30546 0.0
H696 H 0.15662 0.76024 0.25593 0.0
H697 H 0.11418 0.76412 0.26876 0.0
H698 H 0.12409 0.70613 0.32063 0.0
H699 H 0.16591 0.70192 0.30756 0.0
C700 C 0.05591 0.72449 0.32812 0.0
C701 C 0.04922 0.74843 0.33396 0.0
C702 C 0.07671 0.72038 0.31443 0.0
C703 C 0.09147 0.74009 0.30646 0.0
C704 C 0.08403 0.7641 0.31115 0.0
C705 C 0.06303 0.76823 0.32471 0.0
C706 C 0.14947 0.74789 0.2696 0.0
C707 C 0.16466 0.73088 0.28087 0.0
C708 C 0.12526 0.75029 0.27711 0.0
C709 C 0.1158 0.73558 0.29584 0.0
C710 C 0.13063 0.7176 0.30598 0.0
C711 C 0.15473 0.71528 0.29859 0.0
H712 H 0.49665 0.82627 0.61941 0.0
H713 H 0.46485 0.80068 0.55252 0.0
H714 H 0.49584 0.86819 0.60484 0.0
H715 H 0.46571 0.84234 0.53696 0.0
H716 H 0.46546 0.91696 0.51014 0.0
H717 H 0.45266 0.88204 0.53493 0.0
H718 H 0.5167 0.89367 0.57982 0.0
H719 H 0.5281 0.92904 0.55601 0.0
C720 C 0.4898 0.82963 0.60139 0.0
C721 C 0.48121 0.81016 0.58693 0.0
C722 C 0.48933 0.85374 0.59295 0.0
C723 C 0.48094 0.85902 0.5695 0.0
C724 C 0.47189 0.83939 0.55525 0.0
C725 C 0.47174 0.81533 0.564 0.0
C726 C 0.47576 0.9129 0.5263 0.0
C727 C 0.49759 0.9258 0.53136 0.0
C728 C 0.4689 0.89241 0.54015 0.0
C729 C 0.48406 0.88421 0.55901 0.0
C730 C 0.50434 0.89908 0.56564 0.0
C731 C 0.51089 0.91968 0.55204 0.0
H732 H 0.40738 0.23685 0.86238 0.0
H733 H 0.46193 0.2553 0.80879 0.0
H734 H 0.37537 0.24345 0.83296 0.0
H735 H 0.42953 0.26233 0.77925 0.0
H736 H 0.361 0.24043 0.73078 0.0
H737 H 0.39692 0.23936 0.75685 0.0
H738 H 0.35812 0.27848 0.81187 0.0
H739 H 0.32211 0.27914 0.78617 0.0
C740 C 0.41256 0.24232 0.8443 0.0
C741 C 0.43719 0.24568 0.83795 0.0
C742 C 0.39418 0.24634 0.8275 0.0
C743 C 0.39997 0.2539 0.80397 0.0
C744 C 0.4246 0.25659 0.79731 0.0
C745 C 0.44309 0.25253 0.81419 0.0
C746 C 0.36033 0.24933 0.7482 0.0
C747 C 0.33859 0.25947 0.75661 0.0
C748 C 0.38092 0.24871 0.76311 0.0
C749 C 0.38006 0.25833 0.78656 0.0
C750 C 0.35903 0.27034 0.7941 0.0
C751 C 0.33847 0.27085 0.77931 0.0
H752 H 0.01706 0.81101 0.41829 0.0
H753 H 0.939 0.80336 0.42779 0.0
H754 H 0.01511 0.85421 0.43014 0.0
H755 H 0.93695 0.84623 0.43859 0.0
H756 H 0.95345 0.90263 0.49873 0.0
H757 H 0.9512 0.86484 0.47596 0.0
H758 H -0.00112 0.89651 0.42179 0.0
H759 H 0.00123 0.93478 0.44506 0.0
C760 C -0.00047 0.81865 0.42257 0.0
C761 C 0.97833 0.80376 0.42294 0.0
C762 C -0.00165 0.84336 0.42904 0.0
C763 C 0.97589 0.85342 0.43557 0.0
C764 C 0.95455 0.83883 0.43414 0.0
C765 C 0.95578 0.81425 0.42811 0.0
C766 C 0.96297 0.90173 0.48167 0.0
C767 C 0.97756 0.92144 0.47363 0.0
C768 C 0.96162 0.88014 0.46854 0.0
C769 C 0.97495 0.87772 0.44712 0.0
C770 C 0.98858 0.8979 0.43834 0.0
C771 C 0.9897 0.91979 0.45145 0.0
H772 H 0.40667 0.70855 0.66763 0.0
H773 H 0.4242 0.7849 0.65502 0.0
H774 H 0.36389 0.7183 0.67276 0.0
H775 H 0.38094 0.79485 0.66113 0.0
H776 H 0.3154 0.77477 0.72608 0.0
H777 H 0.3532 0.78434 0.70457 0.0
H778 H 0.32788 0.74015 0.64473 0.0
H779 H 0.29007 0.73081 0.66621 0.0
C780 C 0.40133 0.72743 0.66588 0.0
C781 C 0.41873 0.74597 0.66108 0.0
C782 C 0.37681 0.73299 0.66854 0.0
C783 C 0.36915 0.75728 0.66694 0.0
C784 C 0.38644 0.77597 0.66207 0.0
C785 C 0.41106 0.77027 0.6587 0.0
C786 C 0.31704 0.76882 0.70754 0.0
C787 C 0.30006 0.75187 0.69785 0.0
C788 C 0.33883 0.7741 0.69528 0.0
C789 C 0.34359 0.76243 0.6733 0.0
C790 C 0.32463 0.74922 0.66175 0.0
C791 C 0.30287 0.74407 0.67396 0.0
H792 H 0.53995 0.17136 0.88386 0.0
H793 H 0.49652 0.17927 0.94815 0.0
H794 H 0.54966 0.1296 0.89622 0.0
H795 H 0.50541 0.13794 0.95994 0.0
H796 H 0.53039 0.06665 0.98428 0.0
H797 H 0.53442 0.10978 0.97369 0.0
H798 H 0.52705 0.09118 0.89822 0.0
H799 H 0.52402 0.04801 0.90876 0.0
C800 C 0.5328 0.16435 0.90074 0.0
C801 C 0.51725 0.17851 0.91487 0.0
C802 C 0.5382 0.14041 0.90774 0.0
C803 C 0.52823 0.13034 0.92903 0.0
C804 C 0.51375 0.14509 0.94365 0.0
C805 C 0.5084 0.16882 0.9367 0.0
C806 C 0.52996 0.07175 0.96541 0.0
C807 C 0.5265 0.05395 0.94739 0.0
C808 C 0.53223 0.09648 0.95932 0.0
C809 C 0.53069 0.10401 0.93511 0.0
C810 C 0.52856 0.08607 0.91702 0.0
C811 C 0.52662 0.06129 0.92309 0.0
H812 H 0.07945 0.3004 0.1637 0.0
H813 H 0.05129 0.2299 0.1867 0.0
H814 H 0.11234 0.29801 0.19316 0.0
H815 H 0.0849 0.22707 0.21606 0.0
H816 H 0.17497 0.22463 0.21599 0.0
H817 H 0.13143 0.22332 0.20584 0.0
H818 H 0.1235 0.29477 0.23762 0.0
H819 H 0.16695 0.29605 0.24755 0.0
C820 C 0.07993 0.28474 0.17566 0.0
C821 C 0.06288 0.26542 0.1731 0.0
C822 C 0.0987 0.28335 0.19259 0.0
C823 C 0.10117 0.26233 0.20694 0.0
C824 C 0.08334 0.24349 0.20528 0.0
C825 C 0.06409 0.24518 0.18865 0.0
C826 C 0.1636 0.23936 0.22203 0.0
C827 C 0.17416 0.26043 0.23253 0.0
C828 C 0.13868 0.23869 0.21614 0.0
C829 C 0.12422 0.25916 0.2206 0.0
C830 C 0.13429 0.27888 0.23378 0.0
C831 C 0.15909 0.27955 0.23958 0.0
H832 H 0.08534 0.97313 0.19185 0.0
H833 H 0.03034 0.02574 0.20912 0.0
H834 H 0.06455 0.96408 0.15397 0.0
H835 H 0.00929 0.01634 0.17131 0.0
H836 H 0.00803 0.01971 0.0862 0.0
H837 H 0.01788 0.02454 0.12889 0.0
H838 H 0.02839 0.94667 0.1348 0.0
H839 H 0.01908 0.94195 0.09208 0.0
C840 C 0.06857 0.98244 0.1878 0.0
C841 C 0.05967 0.00032 0.20345 0.0
C842 C 0.05652 0.97714 0.16611 0.0
C843 C 0.03526 0.98956 0.15956 0.0
C844 C 0.02577 0.00667 0.17569 0.0
C845 C 0.0378 0.01195 0.19742 0.0
C846 C 0.01169 0.00354 0.09679 0.0
C847 C 0.01316 0.98052 0.08571 0.0
C848 C 0.01737 0.00629 0.12128 0.0
C849 C 0.02445 0.98603 0.13513 0.0
C850 C 0.02364 0.96271 0.12449 0.0
C851 C 0.01813 0.96 0.10005 0.0
H852 H 0.20771 0.83557 0.41844 0.0
H853 H 0.28108 0.86554 0.41467 0.0
H854 H 0.20751 0.82972 0.37473 0.0
H855 H 0.28062 0.86103 0.37093 0.0
H856 H 0.28543 0.79264 0.31972 0.0
H857 H 0.28432 0.82169 0.35263 0.0
H858 H 0.21096 0.841 0.33211 0.0
H859 H 0.21222 0.8113 0.29909 0.0
C860 C 0.22336 0.84182 0.40805 0.0
C861 C 0.2446 0.8504 0.41965 0.0
C862 C 0.22323 0.83872 0.38301 0.0
C863 C 0.24429 0.84448 0.36941 0.0
C864 C 0.26435 0.85593 0.38096 0.0
C865 C 0.26465 0.85849 0.40593 0.0
C866 C 0.26954 0.80394 0.32161 0.0
C867 C 0.24894 0.79987 0.30706 0.0
C868 C 0.26885 0.82071 0.34042 0.0
C869 C 0.24736 0.83345 0.34522 0.0
C870 C 0.22765 0.83125 0.32899 0.0
C871 C 0.22846 0.81452 0.30994 0.0
H872 H 0.46123 0.96674 0.68595 0.0
H873 H 0.43432 0.04027 0.68845 0.0
H874 H 0.47678 0.9739 0.64569 0.0
H875 H 0.45168 0.04835 0.64876 0.0
H876 H 0.44814 0.042 0.5676 0.0
H877 H 0.4415 0.03927 0.61014 0.0
H878 H 0.5023 0.99051 0.61689 0.0
H879 H 0.50796 0.99205 0.57314 0.0
C880 C 0.45928 0.98475 0.67812 0.0
C881 C 0.44622 0.00286 0.69021 0.0
C882 C 0.46842 0.98895 0.65497 0.0
C883 C 0.46524 0.0116 0.64349 0.0
C884 C 0.45379 0.03034 0.6565 0.0
C885 C 0.444 0.02587 0.6794 0.0
C886 C 0.4604 0.03082 0.57801 0.0
C887 C 0.47858 0.01712 0.56674 0.0
C888 C 0.4567 0.02948 0.60276 0.0
C889 C 0.47136 0.01476 0.61737 0.0
C890 C 0.4903 0.00176 0.60629 0.0
C891 C 0.49372 0.00274 0.5812 0.0
H892 H 0.23641 0.15253 0.90516 0.0
H893 H 0.31045 0.16855 0.9277 0.0
H894 H 0.24607 0.16575 0.86453 0.0
H895 H 0.32042 0.18237 0.88657 0.0
H896 H 0.29306 0.2511 0.83907 0.0
H897 H 0.30516 0.22057 0.86832 0.0
H898 H 0.26822 0.16438 0.8262 0.0
H899 H 0.25567 0.19535 0.79721 0.0
C900 C 0.25502 0.15823 0.90109 0.0
C901 C 0.27263 0.15985 0.91941 0.0
C902 C 0.26071 0.16557 0.87771 0.0
C903 C 0.28406 0.17521 0.87223 0.0
C904 C 0.30228 0.17503 0.89025 0.0
C905 C 0.29662 0.16718 0.91371 0.0
C906 C 0.28883 0.232 0.83535 0.0
C907 C 0.27338 0.22548 0.81609 0.0
C908 C 0.29578 0.21441 0.85212 0.0
C909 C 0.28699 0.19014 0.84997 0.0
C910 C 0.27487 0.18305 0.82855 0.0
C911 C 0.2679 0.20071 0.81177 0.0
H912 H 0.09037 0.96546 0.32357 0.0
H913 H 0.09828 0.04157 0.34326 0.0
H914 H 0.0763 0.95576 0.36464 0.0
H915 H 0.08483 0.03212 0.38384 0.0
H916 H 0.05852 0.02029 0.45266 0.0
H917 H 0.08959 0.01093 0.4228 0.0
H918 H 0.03618 0.96808 0.3826 0.0
H919 H 0.0055 0.97702 0.41285 0.0
C920 C 0.0899 0.97991 0.33691 0.0
C921 C 0.09506 0.00429 0.33033 0.0
C922 C 0.08185 0.97439 0.36034 0.0
C923 C 0.07946 0.99314 0.37753 0.0
C924 C 0.08678 0.01713 0.37127 0.0
C925 C 0.09425 0.02265 0.34791 0.0
C926 C 0.05394 0.00758 0.43826 0.0
C927 C 0.02977 -0.00072 0.43496 0.0
C928 C 0.07163 0.00239 0.42103 0.0
C929 C 0.06515 0.98935 0.4 0.0
C930 C 0.04181 0.97816 0.39857 0.0
C931 C 0.02418 0.98323 0.41593 0.0
H932 H 0.26649 0.78447 0.55024 0.0
H933 H 0.19373 0.81197 0.54201 0.0
H934 H 0.25556 0.7669 0.58883 0.0
H935 H 0.18181 0.79244 0.57982 0.0
H936 H 0.18395 0.79675 0.66187 0.0
H937 H 0.1874 0.80189 0.61909 0.0
H938 H 0.23692 0.74136 0.61593 0.0
H939 H 0.23477 0.73745 0.6597 0.0
C940 C 0.24782 0.78597 0.55635 0.0
C941 C 0.23105 0.79994 0.54339 0.0
C942 C 0.24141 0.77567 0.57852 0.0
C943 C 0.21785 0.77857 0.58798 0.0
C944 C 0.20041 0.79057 0.57371 0.0
C945 C 0.20709 0.80159 0.55188 0.0
C946 C 0.19536 0.78422 0.65213 0.0
C947 C 0.20946 0.76697 0.66438 0.0
C948 C 0.19715 0.78701 0.62727 0.0
C949 C 0.21268 0.77225 0.6137 0.0
C950 C 0.22528 0.75358 0.62574 0.0
C951 C 0.2239 0.75115 0.65085 0.0
H952 H 0.44069 0.02263 0.82234 0.0
H953 H 0.37642 0.97569 0.82454 0.0
H954 H 0.44312 0.02169 0.8664 0.0
H955 H 0.37919 0.97405 0.86868 0.0
H956 H 0.44226 0.94313 0.92434 0.0
H957 H 0.41689 0.95264 0.88953 0.0
H958 H 0.42074 0.02925 0.90834 0.0
H959 H 0.44572 0.01963 0.94348 0.0
C960 C 0.42665 0.01284 0.8324 0.0
C961 C 0.40835 -0.00066 0.82037 0.0
C962 C 0.42789 0.01238 0.85755 0.0
C963 C 0.41122 -0.00213 0.87089 0.0
C964 C 0.39205 0.98553 0.8588 0.0
C965 C 0.39051 0.98645 0.83367 0.0
C966 C 0.43639 0.96176 0.92186 0.0
C967 C 0.44594 0.98064 0.93645 0.0
C968 C 0.4219 0.96725 0.90192 0.0
C969 C 0.41727 0.99174 0.89611 0.0
C970 C 0.42416 0.01026 0.91247 0.0
C971 C 0.43824 0.00469 0.9327 0.0
H972 H 0.28019 0.14722 0.06831 0.0
H973 H 0.25851 0.21775 0.04162 0.0
H974 H 0.28515 0.16465 0.10888 0.0
H975 H 0.263 0.23485 0.08167 0.0
H976 H 0.28531 0.26718 0.15002 0.0
H977 H 0.29221 0.24618 0.1121 0.0
H978 H 0.25825 0.18046 0.14111 0.0
H979 H 0.2522 0.20149 0.17969 0.0
C980 C 0.27688 0.16649 0.071 0.0
C981 C 0.26892 0.1811 0.05173 0.0
C982 C 0.27951 0.1764 0.09426 0.0
C983 C 0.27453 0.20116 0.09857 0.0
C984 C 0.26742 0.21582 0.07904 0.0
C985 C 0.26467 0.20595 0.056 0.0
C986 C 0.27981 0.24807 0.14848 0.0
C987 C 0.26792 0.23604 0.16762 0.0
C988 C 0.28364 0.23606 0.1267 0.0
C989 C 0.27523 0.21182 0.12332 0.0
C990 C 0.26497 0.19913 0.14311 0.0
C991 C 0.26146 0.21114 0.16518 0.0
H992 H 0.16188 0.13342 -0.00433 0.0
H993 H 0.20435 0.06784 -0.00773 0.0
H994 H 0.12472 0.10881 -0.00027 0.0
H995 H 0.16683 0.04306 -0.00437 0.0
H996 H 0.10101 0.00726 0.03063 0.0
H997 H 0.1371 0.03294 0.02546 0.0
H998 H 0.09649 0.0813 0.97943 0.0
H999 H 0.05967 0.05553 0.98518 0.0
C1000 C 0.16332 0.11369 -0.00441 0.0
C1001 C 0.18622 0.1026 -0.00621 0.0
C1002 C 0.14187 0.09957 -0.00226 0.0
C1003 C 0.14268 0.07395 -0.00194 0.0
C1004 C 0.16555 0.0628 -0.00415 0.0
C1005 C 0.18708 0.07696 -0.00617 0.0
C1006 C 0.09964 0.02338 0.01937 0.0
C1007 C 0.07746 0.02918 0.00805 0.0
C1008 C 0.1205 0.03803 0.01627 0.0
C1009 C 0.11994 0.05892 0.00163 0.0
C1010 C 0.09757 0.06529 0.99086 0.0
C1011 C 0.07647 0.05059 -0.00587 0.0
H1012 H 0.68188 0.41161 0.02998 0.0
H1013 H 0.70027 0.45191 0.96533 0.0
H1014 H 0.64428 0.434 0.03338 0.0
H1015 H 0.66283 0.47498 0.96912 0.0
H1016 H 0.57782 0.48393 0.9677 0.0
H1017 H 0.61959 0.46958 0.96448 0.0
H1018 H 0.6266 0.4719 0.04211 0.0
H1019 H 0.58468 0.48543 0.04515 0.0
C1020 C 0.6781 0.42554 0.01668 0.0
C1021 C 0.69413 0.42984 -0.00266 0.0
C1022 C 0.65653 0.43858 0.01871 0.0
C1023 C 0.65038 0.45647 0.00156 0.0
C1024 C 0.66673 0.46119 0.98251 0.0
C1025 C 0.68832 0.44803 0.98042 0.0
C1026 C 0.58861 0.48216 0.98397 0.0
C1027 C 0.57798 0.48582 0.00665 0.0
C1028 C 0.61257 0.47378 0.98218 0.0
C1029 C 0.62645 0.46905 0.00308 0.0
C1030 C 0.61632 0.47461 0.02565 0.0
C1031 C 0.59235 0.48267 0.02741 0.0
H1032 H 0.83044 0.45409 0.23848 0.0
H1033 H 0.89349 0.41047 0.25392 0.0
H1034 H 0.80449 0.41738 0.23973 0.0
H1035 H 0.86733 0.37376 0.25551 0.0
H1036 H 0.76215 0.35525 0.27415 0.0
H1037 H 0.79083 0.38976 0.27218 0.0
H1038 H 0.84023 0.34638 0.23037 0.0
H1039 H 0.81121 0.31165 0.23239 0.0
C1040 C 0.8388 0.43668 0.24201 0.0
C1041 C 0.86401 0.43527 0.2463 0.0
C1042 C 0.8239 0.41566 0.24289 0.0
C1043 C 0.83385 0.39276 0.24807 0.0
C1044 C 0.85917 0.39116 0.25144 0.0
C1045 C 0.87411 0.41222 0.25061 0.0
C1046 C 0.77924 0.35297 0.26474 0.0
C1047 C 0.78453 0.33072 0.25346 0.0
C1048 C 0.79558 0.3728 0.26346 0.0
C1049 C 0.81758 0.37091 0.25078 0.0
C1050 C 0.82343 0.34833 0.24035 0.0
C1051 C 0.80697 0.32839 0.24166 0.0
H1052 H 0.82188 0.59168 0.51394 0.0
H1053 H 0.82942 0.57047 0.43931 0.0
H1054 H 0.86126 0.57418 0.5231 0.0
H1055 H 0.86905 0.55254 0.44877 0.0
H1056 H 0.92239 0.49869 0.49458 0.0
H1057 H 0.88591 0.51685 0.47697 0.0
H1058 H 0.90543 0.58588 0.51044 0.0
H1059 H 0.94213 0.56785 0.52739 0.0
C1060 C 0.83179 0.58306 0.4995 0.0
C1061 C 0.82248 0.58257 0.47585 0.0
C1062 C 0.85449 0.57323 0.50474 0.0
C1063 C 0.86837 0.56237 0.48656 0.0
C1064 C 0.85875 0.56094 0.46307 0.0
C1065 C 0.83609 0.57116 0.45771 0.0
C1066 C 0.91962 0.51808 0.49693 0.0
C1067 C 0.93547 0.53213 0.51163 0.0
C1068 C 0.89853 0.52838 0.4872 0.0
C1069 C 0.89274 0.55269 0.49258 0.0
C1070 C 0.90936 0.56704 0.50617 0.0
C1071 C 0.93046 0.55682 0.51566 0.0
H1072 H 0.1301 0.10673 0.25454 0.0
H1073 H 0.18373 0.05655 0.22843 0.0
H1074 H 0.15823 0.14063 0.24859 0.0
H1075 H 0.21197 0.09111 0.22116 0.0
H1076 H 0.264 0.15094 0.2535 0.0
H1077 H 0.23671 0.11722 0.24333 0.0
H1078 H 0.18032 0.16842 0.22544 0.0
H1079 H 0.20784 0.20239 0.23722 0.0
C1080 C 0.14786 0.10292 0.24708 0.0
C1081 C 0.15472 0.07872 0.2423 0.0
C1082 C 0.16401 0.12262 0.2433 0.0
C1083 C 0.18759 0.11894 0.23431 0.0
C1084 C 0.19415 0.09477 0.2285 0.0
C1085 C 0.17797 0.07488 0.23263 0.0
C1086 C 0.24598 0.15505 0.24668 0.0
C1087 C 0.23788 0.17926 0.24653 0.0
C1088 C 0.23024 0.13559 0.24069 0.0
C1089 C 0.20588 0.13979 0.23417 0.0
C1090 C 0.19869 0.16432 0.23117 0.0
C1091 C 0.21455 0.18392 0.23744 0.0
H1092 H 0.29272 0.92517 0.48878 0.0
H1093 H 0.33724 0.87214 0.52487 0.0
H1094 H 0.32848 0.95171 0.48322 0.0
H1095 H 0.37292 0.89916 0.52044 0.0
H1096 H 0.43647 0.93808 0.48329 0.0
H1097 H 0.39992 0.91244 0.48952 0.0
H1098 H 0.35775 0.97725 0.50137 0.0
H1099 H 0.3936 0.00257 0.49416 0.0
C1100 C 0.31002 0.9196 0.49627 0.0
C1101 C 0.31226 0.89663 0.5072 0.0
C1102 C 0.3306 0.93475 0.49301 0.0
C1103 C 0.35373 0.9274 0.50103 0.0
C1104 C 0.35557 0.90508 0.51339 0.0
C1105 C 0.33507 0.88977 0.51628 0.0
C1106 C 0.41931 0.94676 0.48695 0.0
C1107 C 0.41802 0.97233 0.48819 0.0
C1108 C 0.3984 0.93211 0.49078 0.0
C1109 C 0.37588 0.94278 0.49618 0.0
C1110 C 0.37461 0.96836 0.49692 0.0
C1111 C 0.39532 0.98292 0.49279 0.0
H1112 H 0.83037 0.56194 0.21189 0.0
H1113 H 0.82384 0.57818 0.28776 0.0
H1114 H 0.80941 0.59953 0.20207 0.0
H1115 H 0.80396 0.61624 0.27803 0.0
H1116 H 0.76048 0.68075 0.25605 0.0
H1117 H 0.7705 0.63803 0.26281 0.0
H1118 H 0.82 0.64125 0.20231 0.0
H1119 H 0.80933 0.68328 0.19503 0.0
C1120 C 0.82431 0.57347 0.22648 0.0
C1121 C 0.82901 0.56719 0.25059 0.0
C1122 C 0.81242 0.59513 0.22086 0.0
C1123 C 0.80527 0.61124 0.23921 0.0
C1124 C 0.80891 0.60427 0.26337 0.0
C1125 C 0.8205 0.58245 0.26898 0.0
C1126 C 0.77312 0.67218 0.24393 0.0
C1127 C 0.7842 0.68561 0.22511 0.0
C1128 C 0.77904 0.6477 0.2479 0.0
C1129 C 0.79626 0.63611 0.23326 0.0
C1130 C 0.80642 0.64928 0.2138 0.0
C1131 C 0.80039 0.6736 0.20973 0.0
H1132 H 0.66208 0.43383 0.71443 0.0
H1133 H 0.66447 0.42746 0.792 0.0
H1134 H 0.67997 0.39356 0.7108 0.0
H1135 H 0.68159 0.38694 0.78842 0.0
H1136 H 0.74267 0.33148 0.76933 0.0
H1137 H 0.71818 0.3672 0.77791 0.0
H1138 H 0.67327 0.35081 0.71545 0.0
H1139 H 0.6985 0.3157 0.70663 0.0
C1140 C 0.66627 0.4238 0.73071 0.0
C1141 C 0.66195 0.43405 0.75348 0.0
C1142 C 0.67631 0.4005 0.72867 0.0
C1143 C 0.68215 0.38672 0.74934 0.0
C1144 C 0.67762 0.39698 0.77209 0.0
C1145 C 0.66773 0.42029 0.77413 0.0
C1146 C 0.72684 0.33491 0.75817 0.0
C1147 C 0.72219 0.32065 0.73757 0.0
C1148 C 0.71288 0.35557 0.76289 0.0
C1149 C 0.694 0.36238 0.74703 0.0
C1150 C 0.68804 0.34662 0.72769 0.0
C1151 C 0.70213 0.32615 0.72291 0.0
H1152 H 0.00476 0.83125 0.88771 0.0
H1153 H 0.97475 0.81173 0.95714 0.0
H1154 H 0.00585 0.87431 0.89948 0.0
H1155 H 0.977 0.85423 0.96945 0.0
H1156 H 0.9757 0.92864 0.99082 0.0
H1157 H 0.9622 0.89357 0.9666 0.0
H1158 H 0.02816 0.90083 0.92425 0.0
H1159 H 0.04002 0.93695 0.94719 0.0
C1160 C -0.00129 0.83616 0.9056 0.0
C1161 C 0.98989 0.81813 0.9216 0.0
C1162 C -0.00079 0.86085 0.91234 0.0
C1163 C 0.9913 0.86798 0.93538 0.0
C1164 C 0.98255 0.84975 0.9513 0.0
C1165 C 0.98165 0.82522 0.94441 0.0
C1166 C 0.98605 0.9239 0.975 0.0
C1167 C 0.00842 0.93575 0.97039 0.0
C1168 C 0.97889 0.90325 0.96162 0.0
C1169 C 0.99453 0.89371 0.94398 0.0
C1170 C 0.01556 0.90744 0.9376 0.0
C1171 C 0.02238 0.92831 0.95069 0.0
H1172 H 0.96356 0.27755 0.72401 0.0
H1173 H 0.93041 0.22669 0.67329 0.0
H1174 H 0.92563 0.27775 0.74699 0.0
H1175 H 0.89253 0.2273 0.69585 0.0
H1176 H 0.82737 0.22477 0.74018 0.0
H1177 H 0.87033 0.21751 0.73216 0.0
H1178 H 0.88614 0.29499 0.7394 0.0
H1179 H 0.84343 0.30187 0.74848 0.0
C1180 C 0.94829 0.26622 0.71789 0.0
C1181 C 0.94994 0.25234 0.69663 0.0
C1182 C 0.92653 0.26637 0.73105 0.0
C1183 C 0.90596 0.25261 0.72328 0.0
C1184 C 0.90806 0.23784 0.70264 0.0
C1185 C 0.92976 0.23769 0.68951 0.0
C1186 C 0.84028 0.23996 0.74155 0.0
C1187 C 0.83211 0.2638 0.74531 0.0
C1188 C 0.86484 0.23593 0.73638 0.0
C1189 C 0.88165 0.25572 0.73467 0.0
C1190 C 0.87382 0.27927 0.74068 0.0
C1191 C 0.8493 0.28326 0.74587 0.0
H1192 H 0.52468 0.16788 0.38129 0.0
H1193 H 0.49363 0.18219 0.45115 0.0
H1194 H 0.53472 0.12634 0.39447 0.0
H1195 H 0.50418 0.14131 0.46442 0.0
H1196 H 0.52579 0.07335 0.49032 0.0
H1197 H 0.53965 0.11165 0.47191 0.0
H1198 H 0.5032 0.0909 0.40567 0.0
H1199 H 0.48944 0.05261 0.42423 0.0
C1200 C 0.52062 0.16238 0.39963 0.0
C1201 C 0.50818 0.17815 0.41517 0.0
C1202 C 0.52638 0.13867 0.40714 0.0
C1203 C 0.52046 0.13066 0.43053 0.0
C1204 C 0.50939 0.14706 0.44643 0.0
C1205 C 0.5031 0.17041 0.43877 0.0
C1206 C 0.52244 0.07607 0.47126 0.0
C1207 C 0.50668 0.05997 0.45865 0.0
C1208 C 0.52998 0.09826 0.46083 0.0
C1209 C 0.52195 0.10452 0.43758 0.0
C1210 C 0.50967 0.0866 0.42363 0.0
C1211 C 0.50199 0.06447 0.43417 0.0
H1212 H 0.57396 0.75489 0.14645 0.0
H1213 H 0.55293 0.72672 0.2163 0.0
H1214 H 0.61685 0.75512 0.15893 0.0
H1215 H 0.59531 0.72793 0.22912 0.0
H1216 H 0.67094 0.70869 0.24169 0.0
H1217 H 0.63115 0.70583 0.22196 0.0
H1218 H 0.64657 0.77426 0.18521 0.0
H1219 H 0.6869 0.77625 0.20419 0.0
C1220 C 0.5785 0.74923 0.1646 0.0
C1221 C 0.56024 0.74062 0.18039 0.0
C1222 C 0.60302 0.74928 0.17172 0.0
C1223 C 0.60955 0.74098 0.19481 0.0
C1224 C 0.59103 0.73358 0.2109 0.0
C1225 C 0.56669 0.73319 0.20369 0.0
C1226 C 0.66601 0.72262 0.22876 0.0
C1227 C 0.68176 0.74259 0.22425 0.0
C1228 C 0.64318 0.72123 0.21772 0.0
C1229 C 0.63542 0.74021 0.20257 0.0
C1230 C 0.65198 0.75933 0.19674 0.0
C1231 C 0.67509 0.76044 0.20747 0.0
H1232 H 0.05005 0.17196 0.59229 0.0
H1233 H 0.97192 0.17722 0.60034 0.0
H1234 H 0.04441 0.13269 0.57194 0.0
H1235 H 0.96629 0.13789 0.57953 0.0
H1236 H 0.97441 0.09782 0.50412 0.0
H1237 H 0.97717 0.13061 0.53382 0.0
H1238 H 0.02622 0.08783 0.57692 0.0
H1239 H 0.02335 0.05467 0.54714 0.0
C1240 C 0.0317 0.16446 0.59007 0.0
C1241 C 0.01137 0.17766 0.59755 0.0
C1242 C 0.02851 0.14194 0.57861 0.0
C1243 C 0.00495 0.13249 0.57411 0.0
C1244 C 0.98464 0.14498 0.58279 0.0
C1245 C 0.98785 0.16735 0.5947 0.0
C1246 C 0.98582 0.0954 0.5199 0.0
C1247 C -0.00113 0.07385 0.52327 0.0
C1248 C 0.98708 0.11398 0.53704 0.0
C1249 C 0.00167 0.11151 0.55768 0.0
C1250 C 0.01473 0.08998 0.56115 0.0
C1251 C 0.01315 0.07115 0.54415 0.0
H1252 H 0.58536 0.24578 0.37033 0.0
H1253 H 0.56678 0.21929 0.29919 0.0
H1254 H 0.62845 0.24643 0.35983 0.0
H1255 H 0.60968 0.22164 0.28785 0.0
H1256 H 0.68553 0.22828 0.26718 0.0
H1257 H 0.65057 0.21049 0.28882 0.0
H1258 H 0.65295 0.27217 0.33781 0.0
H1259 H 0.68814 0.28875 0.31695 0.0
C1260 C 0.59056 0.24028 0.35233 0.0
C1261 C 0.57276 0.23302 0.33537 0.0
C1262 C 0.61528 0.24063 0.34627 0.0
C1263 C 0.62278 0.23451 0.32281 0.0
C1264 C 0.60488 0.22619 0.30619 0.0
C1265 C 0.58017 0.22517 0.31253 0.0
C1266 C 0.67941 0.23706 0.28351 0.0
C1267 C 0.68941 0.25981 0.29051 0.0
C1268 C 0.65899 0.22724 0.2956 0.0
C1269 C 0.64825 0.24024 0.31466 0.0
C1270 C 0.66045 0.26142 0.32335 0.0
C1271 C 0.68081 0.27103 0.31141 0.0
H1272 H 0.45971 0.79712 0.05551 0.0
H1273 H 0.51085 0.82257 0.11006 0.0
H1274 H 0.45886 0.83849 0.03854 0.0
H1275 H 0.50985 0.86361 0.09317 0.0
H1276 H 0.4767 0.93732 0.07793 0.0
H1277 H 0.47651 0.89503 0.09135 0.0
H1278 H 0.48753 0.87094 0.01819 0.0
H1279 H 0.48783 0.91353 0.00448 0.0
C1280 C 0.47091 0.81143 0.06375 0.0
C1281 C 0.48521 0.80657 0.08425 0.0
C1282 C 0.47045 0.83506 0.05398 0.0
C1283 C 0.48405 0.85427 0.06474 0.0
C1284 C 0.49888 0.84922 0.08476 0.0
C1285 C 0.49954 0.82565 0.09434 0.0
C1286 C 0.47885 0.92311 0.06456 0.0
C1287 C 0.48242 0.92894 0.0401 0.0
C1288 C 0.4789 0.89886 0.07233 0.0
C1289 C 0.48232 0.87976 0.05586 0.0
C1290 C 0.48485 0.88534 0.03126 0.0
C1291 C 0.48505 0.90973 0.02345 0.0
H1292 H 0.90844 0.77 0.85793 0.0
H1293 H 0.95607 0.73072 0.8105 0.0
H1294 H 0.87812 0.77243 0.82601 0.0
H1295 H 0.92503 0.73264 0.77832 0.0
H1296 H 0.82917 0.78368 0.7661 0.0
H1297 H 0.87028 0.78944 0.783 0.0
H1298 H 0.88124 0.71162 0.77859 0.0
H1299 H 0.84022 0.70591 0.76197 0.0
C1300 C 0.91247 0.76202 0.84055 0.0
C1301 C 0.93442 0.74986 0.83675 0.0
C1302 C 0.89525 0.76374 0.82216 0.0
C1303 C 0.89934 0.75294 0.79963 0.0
C1304 C 0.92158 0.74129 0.79551 0.0
C1305 C 0.93921 0.74009 0.81387 0.0
C1306 C 0.84084 0.76802 0.76765 0.0
C1307 C 0.83159 0.74436 0.76297 0.0
C1308 C 0.86426 0.77128 0.77745 0.0
C1309 C 0.87876 0.75092 0.78233 0.0
C1310 C 0.87053 0.72762 0.77489 0.0
C1311 C 0.84702 0.72434 0.76549 0.0
H1312 H 0.91349 0.03289 0.82249 0.0
H1313 H 0.97642 0.99015 0.80495 0.0
H1314 H 0.92941 0.03885 0.86323 0.0
H1315 H 0.99249 0.99649 0.84549 0.0
H1316 H 0.99099 0.9843 0.92926 0.0
H1317 H 0.98239 0.98237 0.88597 0.0
H1318 H 0.96156 0.05814 0.88695 0.0
H1319 H 0.96964 0.05987 0.93005 0.0
C1320 C 0.93091 0.02513 0.82717 0.0
C1321 C 0.94355 0.0109 0.81049 0.0
C1322 C 0.94011 0.02861 0.85052 0.0
C1323 C 0.96221 0.01801 0.85767 0.0
C1324 C 0.97527 0.00457 0.84069 0.0
C1325 C 0.96608 0.00108 0.81739 0.0
C1326 C 0.98516 0.00066 0.92007 0.0
C1327 C 0.9807 0.02212 0.93308 0.0
C1328 C 0.98018 -0.00041 0.89527 0.0
C1329 C 0.97082 0.02001 0.88309 0.0
C1330 C 0.96812 0.04192 0.89588 0.0
C1331 C 0.97294 0.04294 0.92056 0.0
H1332 H 0.70225 0.16975 0.57425 0.0
H1333 H 0.77878 0.15469 0.56516 0.0
H1334 H 0.7102 0.18301 0.61545 0.0
H1335 H 0.78675 0.16819 0.60662 0.0
H1336 H 0.78669 0.24051 0.65472 0.0
H1337 H 0.78301 0.21266 0.62069 0.0
H1338 H 0.72613 0.17167 0.65763 0.0
H1339 H 0.72992 0.19962 0.69208 0.0
C1340 C 0.72071 0.16888 0.58124 0.0
C1341 C 0.74001 0.1617 0.56644 0.0
C1342 C 0.72519 0.17617 0.60491 0.0
C1343 C 0.74908 0.17668 0.61408 0.0
C1344 C 0.76817 0.16798 0.59983 0.0
C1345 C 0.76363 0.16033 0.57618 0.0
C1346 C 0.77359 0.22539 0.65573 0.0
C1347 C 0.75822 0.22248 0.67577 0.0
C1348 C 0.77175 0.20925 0.6364 0.0
C1349 C 0.75431 0.19007 0.63662 0.0
C1350 C 0.73971 0.18638 0.65713 0.0
C1351 C 0.74183 0.20237 0.67673 0.0
H1352 H 0.5843 0.96573 0.30862 0.0
H1353 H 0.52408 0.01227 0.29088 0.0
H1354 H 0.56572 0.95675 0.34758 0.0
H1355 H 0.50541 0.00303 0.32971 0.0
H1356 H 0.52074 0.93175 0.40994 0.0
H1357 H 0.53096 0.93667 0.36755 0.0
H1358 H 0.51455 0.01345 0.37192 0.0
H1359 H 0.50402 0.00848 0.4144 0.0
C1360 C 0.56694 0.97374 0.31284 0.0
C1361 C 0.55583 0.98985 0.29664 0.0
C1362 C 0.55619 0.9685 0.33515 0.0
C1363 C 0.5341 0.97927 0.34181 0.0
C1364 C 0.52257 0.99469 0.32527 0.0
C1365 C 0.53325 -0.00014 0.30294 0.0
C1366 C 0.51882 0.94961 0.40177 0.0
C1367 C 0.51182 0.9698 0.41567 0.0
C1368 C 0.52486 0.95244 0.37749 0.0
C1369 C 0.52404 0.97552 0.36646 0.0
C1370 C 0.51532 0.99538 0.37985 0.0
C1371 C 0.50923 0.99253 0.40422 0.0
H1372 H 0.71432 0.85582 0.07319 0.0
H1373 H 0.73677 0.78144 0.06205 0.0
H1374 H 0.70653 0.84669 0.11566 0.0
H1375 H 0.72895 0.77235 0.10416 0.0
H1376 H 0.76311 0.82663 0.1799 0.0
H1377 H 0.74072 0.83982 0.14454 0.0
H1378 H 0.70349 0.76936 0.14123 0.0
H1379 H 0.72618 0.75629 0.17682 0.0
C1380 C 0.7168 0.83732 0.0796 0.0
C1381 C 0.72675 0.81947 0.06448 0.0
C1382 C 0.71228 0.83211 0.1039 0.0
C1383 C 0.71731 0.80889 0.11335 0.0
C1384 C 0.72465 0.79038 0.0975 0.0
C1385 C 0.72946 0.79566 0.07336 0.0
C1386 C 0.74893 0.81461 0.17257 0.0
C1387 C 0.74641 0.79048 0.1808 0.0
C1388 C 0.73607 0.8221 0.15221 0.0
C1389 C 0.72089 0.80532 0.13965 0.0
C1390 C 0.7154 0.78251 0.15033 0.0
C1391 C 0.72819 0.7751 0.17084 0.0
H1392 H 0.96609 0.01283 0.68271 0.0
H1393 H 0.88958 0.02539 0.67027 0.0
H1394 H 0.97455 0.02042 0.64043 0.0
H1395 H 0.898 0.03275 0.62739 0.0
H1396 H 0.92716 0.98085 0.56262 0.0
H1397 H 0.91041 -8e-05 0.59833 0.0
H1398 H 0.97469 0.04689 0.60373 0.0
H1399 H 0.9914 0.0274 0.56794 0.0
C1400 C 0.95116 0.01785 0.67097 0.0
C1401 C 0.92715 0.01814 0.67964 0.0
C1402 C 0.95603 0.02253 0.64674 0.0
C1403 C 0.93692 0.02717 0.63048 0.0
C1404 C 0.91308 0.02924 0.6395 0.0
C1405 C 0.90827 0.02501 0.66399 0.0
C1406 C 0.93693 0.99635 0.57054 0.0
C1407 C 0.96052 0.0027 0.56269 0.0
C1408 C 0.92737 0.00729 0.59109 0.0
C1409 C 0.94155 0.02445 0.60424 0.0
C1410 C 0.96352 0.03345 0.59413 0.0
C1411 C 0.97298 0.02256 0.57345 0.0
H1412 H 0.78204 0.16416 0.42793 0.0
H1413 H 0.73909 0.22573 0.44952 0.0
H1414 H 0.79307 0.18542 0.39086 0.0
H1415 H 0.7506 0.24724 0.41269 0.0
H1416 H 0.74075 0.25053 0.32848 0.0
H1417 H 0.73833 0.24106 0.37128 0.0
H1418 H 0.81364 0.21911 0.37081 0.0
H1419 H 0.81584 0.228 0.32784 0.0
C1420 C 0.77547 0.18247 0.42506 0.0
C1421 C 0.75937 0.19306 0.44144 0.0
C1422 C 0.7819 0.19477 0.40385 0.0
C1423 C 0.77249 0.21797 0.3987 0.0
C1424 C 0.75778 0.22923 0.41593 0.0
C1425 C 0.75126 0.2169 0.43705 0.0
C1426 C 0.75701 0.24443 0.33767 0.0
C1427 C 0.77832 0.23956 0.32473 0.0
C1428 C 0.75566 0.239 0.36225 0.0
C1429 C 0.77568 0.22883 0.37435 0.0
C1430 C 0.79773 0.22633 0.36187 0.0
C1431 C 0.79902 0.23156 0.33729 0.0
H1432 H 0.55468 0.97619 0.16582 0.0
H1433 H 0.62914 0.00342 0.16273 0.0
H1434 H 0.55359 0.97338 0.12182 0.0
H1435 H 0.6276 0.00184 0.11844 0.0
H1436 H 0.55809 0.9631 0.04444 0.0
H1437 H 0.58118 0.95411 0.08105 0.0
H1438 H 0.58937 0.03137 0.09552 0.0
H1439 H 0.56533 0.04033 0.05956 0.0
C1440 C 0.57102 0.98082 0.15569 0.0
C1441 C 0.59199 0.98989 0.16747 0.0
C1442 C 0.57047 0.97911 0.13061 0.0
C1443 C 0.59062 0.98721 0.11691 0.0
C1444 C 0.61206 0.99513 0.12871 0.0
C1445 C 0.61289 0.99604 0.15393 0.0
C1446 C 0.56613 0.97819 0.05461 0.0
C1447 C 0.55982 0.00241 0.04942 0.0
C1448 C 0.57923 0.973 0.07561 0.0
C1449 C 0.58677 0.99206 0.09106 0.0
C1450 C 0.58386 0.01641 0.08374 0.0
C1451 C 0.57017 0.02156 0.06315 0.0
H1452 H 0.74425 0.78548 0.93916 0.0
H1453 H 0.73151 0.86058 0.91951 0.0
H1454 H 0.73789 0.77297 0.89763 0.0
H1455 H 0.72525 0.84789 0.87727 0.0
H1456 H 0.71015 0.75021 0.82827 0.0
H1457 H 0.70448 0.77066 0.86676 0.0
H1458 H 0.75358 0.82917 0.84431 0.0
H1459 H 0.75882 0.80876 0.80523 0.0
C1460 C 0.73981 0.79931 0.92595 0.0
C1461 C 0.73841 0.824 0.93259 0.0
C1462 C 0.73599 0.79212 0.90214 0.0
C1463 C 0.7309 0.80944 0.8842 0.0
C1464 C 0.72911 0.83418 0.89077 0.0
C1465 C 0.73255 0.84139 0.91489 0.0
C1466 C 0.71912 0.76783 0.83125 0.0
C1467 C 0.7352 0.77776 0.814 0.0
C1468 C 0.71594 0.7795 0.8533 0.0
C1469 C 0.72902 0.8012 0.85873 0.0
C1470 C 0.74326 0.81244 0.84058 0.0
C1471 C 0.74627 0.8008 0.81825 0.0
H1472 H 0.79742 0.92687 0.00817 0.0
H1473 H 0.84241 0.86301 0.01162 0.0
H1474 H 0.83402 0.95311 0.0116 0.0
H1475 H 0.8787 0.88913 0.01541 0.0
H1476 H 0.93844 0.94512 0.99075 0.0
H1477 H 0.90294 0.91732 0.99065 0.0
H1478 H 0.86633 0.9652 0.04006 0.0
H1479 H 0.90204 0.99275 0.04022 0.0
C1480 C 0.81504 0.91842 0.00979 0.0
C1481 C 0.81692 0.89283 0.00954 0.0
C1482 C 0.83602 0.93345 0.0119 0.0
C1483 C 0.85932 0.9232 0.01377 0.0
C1484 C 0.86111 0.89763 0.0137 0.0
C1485 C 0.84022 0.88265 0.01164 0.0
C1486 C 0.92325 0.94912 0.00232 0.0
C1487 C 0.9233 0.97073 0.01593 0.0
C1488 C 0.90272 0.9334 0.00205 0.0
C1489 C 0.88171 0.93909 0.01528 0.0
C1490 C 0.88204 0.96044 0.02939 0.0
C1491 C 0.90257 0.97611 0.02965 0.0
H1492 H 0.32692 0.60132 0.0067 0.0
H1493 H 0.29693 0.55814 0.94795 0.0
H1494 H 0.36407 0.57778 0.00557 0.0
H1495 H 0.3342 0.53438 0.94699 0.0
H1496 H 0.4183 0.53139 0.93028 0.0
H1497 H 0.37629 0.54408 0.93462 0.0
H1498 H 0.38254 0.5374 0.01198 0.0
H1499 H 0.42492 0.52481 0.00759 0.0
C1500 C 0.32812 0.58662 -0.00631 0.0
C1501 C 0.30901 0.58182 0.97723 0.0
C1502 C 0.34937 0.57293 -0.00677 0.0
C1503 C 0.35214 0.55416 0.9762 0.0
C1504 C 0.33271 0.54883 0.96022 0.0
C1505 C 0.31135 0.56244 0.96079 0.0
C1506 C 0.41054 0.53202 0.9482 0.0
C1507 C 0.42501 0.52729 0.9686 0.0
C1508 C 0.38638 0.53921 0.95069 0.0
C1509 C 0.37611 0.54206 0.97366 0.0
C1510 C 0.39003 0.53569 -0.00596 0.0
C1511 C 0.41422 0.52822 0.99152 0.0
H1512 H 0.10606 0.58718 0.74212 0.0
H1513 H 0.17299 0.54678 0.74397 0.0
H1514 H 0.12963 0.62541 0.73896 0.0
H1515 H 0.19649 0.5851 0.74102 0.0
H1516 H 0.22932 0.65351 0.70718 0.0
H1517 H 0.20335 0.6168 0.70959 0.0
H1518 H 0.15882 0.65176 0.76304 0.0
H1519 H 0.18523 0.68841 0.76082 0.0
C1520 C 0.1258 0.58644 0.742 0.0
C1521 C 0.13766 0.56389 0.74317 0.0
C1522 C 0.13927 0.60838 0.74029 0.0
C1523 C 0.16486 0.60822 0.73952 0.0
C1524 C 0.17674 0.58573 0.74117 0.0
C1525 C 0.16329 0.5638 0.74304 0.0
C1526 C 0.21374 0.65347 0.71916 0.0
C1527 C 0.20897 0.67396 0.73353 0.0
C1528 C 0.19901 0.63241 0.72069 0.0
C1529 C 0.17922 0.63133 0.73668 0.0
C1530 C 0.17383 0.65217 0.75038 0.0
C1531 C 0.18869 0.67328 0.7489 0.0
H1532 H 0.17407 0.41718 0.52692 0.0
H1533 H 0.16285 0.40082 0.45138 0.0
H1534 H 0.13091 0.42817 0.53032 0.0
H1535 H 0.12022 0.41135 0.45497 0.0
H1536 H 0.04261 0.40433 0.46943 0.0
H1537 H 0.08392 0.39119 0.47836 0.0
H1538 H 0.10084 0.4615 0.51038 0.0
H1539 H 0.0594 0.47472 0.50116 0.0
C1540 C 0.16253 0.4161 0.51104 0.0
C1541 C 0.17196 0.40801 0.48888 0.0
C1542 C 0.13785 0.42231 0.51305 0.0
C1543 C 0.12213 0.42008 0.49305 0.0
C1544 C 0.13177 0.41271 0.47084 0.0
C1545 C 0.15633 0.40689 0.46874 0.0
C1546 C 0.05473 0.4165 0.47954 0.0
C1547 C 0.04769 0.44038 0.48493 0.0
C1548 C 0.07848 0.40911 0.48437 0.0
C1549 C 0.09571 0.42553 0.49458 0.0
C1550 C 0.08791 0.44848 0.50253 0.0
C1551 C 0.06403 0.45592 0.49759 0.0
H1552 H 0.88961 0.90746 0.76394 0.0
H1553 H 0.8277 0.95068 0.74407 0.0
H1554 H 0.86351 0.871 0.76589 0.0
H1555 H 0.80155 0.91387 0.74498 0.0
H1556 H 0.75525 0.84771 0.75398 0.0
H1557 H 0.78175 0.88193 0.76667 0.0
H1558 H 0.84409 0.84419 0.73865 0.0
H1559 H 0.81752 0.8099 0.72691 0.0
C1560 C 0.87035 0.90919 0.75995 0.0
C1561 C 0.8608 0.93199 0.75354 0.0
C1562 C 0.85536 0.88818 0.76101 0.0
C1563 C 0.83037 0.88923 0.75537 0.0
C1564 C 0.82062 0.91226 0.7498 0.0
C1565 C 0.83563 0.93342 0.74906 0.0
C1566 C 0.77482 0.84627 0.75181 0.0
C1567 C 0.78446 0.82599 0.73997 0.0
C1568 C 0.78997 0.86612 0.75855 0.0
C1569 C 0.81508 0.86625 0.7532 0.0
C1570 C 0.82495 0.84487 0.74329 0.0
C1571 C 0.80977 0.82498 0.73673 0.0
H1572 H 0.65021 0.12038 0.46437 0.0
H1573 H 0.69897 0.06805 0.49589 0.0
H1574 H 0.61663 0.09065 0.467 0.0
H1575 H 0.66513 0.03845 0.49914 0.0
H1576 H 0.60151 0.98521 0.4816 0.0
H1577 H 0.63641 0.01294 0.47695 0.0
H1578 H 0.59236 0.07336 0.49947 0.0
H1579 H 0.55719 0.0456 0.50376 0.0
C1580 C 0.6538 0.10241 0.47164 0.0
C1581 C 0.67716 0.09659 0.48011 0.0
C1582 C 0.6345 0.08549 0.47338 0.0
C1583 C 0.63811 0.06242 0.48377 0.0
C1584 C 0.66178 0.05609 0.49102 0.0
C1585 C 0.68118 0.07301 0.48911 0.0
C1586 C 0.59926 0.00436 0.48582 0.0
C1587 C 0.57645 0.01326 0.49284 0.0
C1588 C 0.61933 0.02025 0.48315 0.0
C1589 C 0.61708 0.04537 0.48754 0.0
C1590 C 0.59451 0.05416 0.49539 0.0
C1591 C 0.5744 0.03826 0.498 0.0
H1592 H 0.1572 0.4191 0.73293 0.0
H1593 H 0.21775 0.4621 0.76167 0.0
H1594 H 0.18254 0.38321 0.73195 0.0
H1595 H 0.24326 0.42581 0.76077 0.0
H1596 H 0.25598 0.34534 0.79217 0.0
H1597 H 0.24162 0.38652 0.78463 0.0
H1598 H 0.21934 0.3649 0.71281 0.0
H1599 H 0.23365 0.32353 0.7205 0.0
C1600 C 0.17601 0.42095 0.73891 0.0
C1601 C 0.18538 0.44342 0.74763 0.0
C1602 C 0.19063 0.4004 0.73805 0.0
C1603 C 0.21496 0.4017 0.74612 0.0
C1604 C 0.22457 0.42428 0.75441 0.0
C1605 C 0.20997 0.44502 0.75495 0.0
C1606 C 0.24881 0.34964 0.77447 0.0
C1607 C 0.24584 0.33123 0.75694 0.0
C1608 C 0.24063 0.37326 0.77013 0.0
C1609 C 0.22903 0.37886 0.74826 0.0
C1610 C 0.22799 0.36102 0.72994 0.0
C1611 C 0.23646 0.33742 0.73421 0.0
H1612 H 0.29128 0.56063 0.22804 0.0
H1613 H 0.36382 0.59088 0.23965 0.0
H1614 H 0.27438 0.60128 0.2327 0.0
H1615 H 0.34727 0.63162 0.24296 0.0
H1616 H 0.30675 0.69142 0.28374 0.0
H1617 H 0.32648 0.6547 0.27034 0.0
H1618 H 0.26807 0.64146 0.21893 0.0
H1619 H 0.2477 0.67804 0.23367 0.0
C1620 C 0.30366 0.57601 0.23132 0.0
C1621 C 0.32887 0.57238 0.2339 0.0
C1622 C 0.29399 0.59947 0.23372 0.0
C1623 C 0.30933 0.62002 0.23838 0.0
C1624 C 0.33468 0.61635 0.23999 0.0
C1625 C 0.34425 0.5929 0.23804 0.0
C1626 C 0.29859 0.68114 0.26895 0.0
C1627 C 0.27596 0.68788 0.25941 0.0
C1628 C 0.30991 0.65991 0.2612 0.0
C1629 C 0.29891 0.64466 0.2436 0.0
C1630 C 0.27697 0.65239 0.23282 0.0
C1631 C 0.26553 0.67371 0.24078 0.0
H1632 H 0.52109 0.65107 0.63075 0.0
H1633 H 0.4972 0.69291 0.56934 0.0
H1634 H 0.5274 0.61587 0.60498 0.0
H1635 H 0.50278 0.65726 0.54347 0.0
H1636 H 0.48964 0.55322 0.55922 0.0
H1637 H 0.50062 0.5872 0.58572 0.0
H1638 H 0.52871 0.628 0.52468 0.0
H1639 H 0.51706 0.59392 0.49824 0.0
C1640 C 0.51728 0.65281 0.61165 0.0
C1641 C 0.50824 0.67472 0.60214 0.0
C1642 C 0.5209 0.63254 0.59687 0.0
C1643 C 0.51537 0.63349 0.57216 0.0
C1644 C 0.50754 0.65586 0.56238 0.0
C1645 C 0.50414 0.6763 0.57721 0.0
C1646 C 0.49954 0.56883 0.55175 0.0
C1647 C 0.50282 0.57085 0.5268 0.0
C1648 C 0.50559 0.58856 0.56689 0.0
C1649 C 0.51501 0.61071 0.55727 0.0
C1650 C 0.52095 0.6115 0.53263 0.0
C1651 C 0.51481 0.59176 0.51753 0.0
H1652 H 0.54037 0.2231 0.77963 0.0
H1653 H 0.57695 0.27019 0.83162 0.0
H1654 H 0.57617 0.22586 0.75355 0.0
H1655 H 0.61265 0.27273 0.80574 0.0
H1656 H 0.67408 0.27971 0.75675 0.0
H1657 H 0.63123 0.28583 0.76702 0.0
H1658 H 0.61666 0.20824 0.75893 0.0
H1659 H 0.6592 0.20228 0.74869 0.0
C1660 C 0.5559 0.23429 0.78537 0.0
C1661 C 0.55596 0.24611 0.80789 0.0
C1662 C 0.57638 0.2359 0.77039 0.0
C1663 C 0.59727 0.24951 0.77755 0.0
C1664 C 0.59676 0.26239 0.79948 0.0
C1665 C 0.57638 0.26067 0.81449 0.0
C1666 C 0.66141 0.26421 0.756 0.0
C1667 C 0.66992 0.24048 0.7522 0.0
C1668 C 0.63696 0.26764 0.76219 0.0
C1669 C 0.62069 0.24744 0.76433 0.0
C1670 C 0.62864 0.22421 0.75746 0.0
C1671 C 0.65305 0.22076 0.75156 0.0
H1672 H 0.01263 0.31434 0.04256 0.0
H1673 H 0.97689 0.32936 0.11003 0.0
H1674 H 0.00385 0.35538 0.02855 0.0
H1675 H 0.96843 0.37088 0.09608 0.0
H1676 H 0.01863 0.4428 0.07409 0.0
H1677 H 0.00147 0.40428 0.08922 0.0
H1678 H 0.97263 0.38772 0.01838 0.0
H1679 H 0.9898 0.42648 0.0034 0.0
C1680 C 0.00237 0.32625 0.05416 0.0
C1681 C 0.99573 0.31877 0.07748 0.0
C1682 C -0.00291 0.34971 0.04605 0.0
C1683 C 0.98542 0.36638 0.06123 0.0
C1684 C 0.97738 0.35839 0.084 0.0
C1685 C 0.98224 0.33466 0.09196 0.0
C1686 C 0.0072 0.43168 0.06221 0.0
C1687 C 0.00541 0.43751 0.03768 0.0
C1688 C -0.00255 0.40951 0.07082 0.0
C1689 C 0.98619 0.39275 0.05482 0.0
C1690 C 0.98146 0.40021 0.03102 0.0
C1691 C 0.99104 0.4225 0.0225 0.0
H1692 H 0.89204 0.717 0.37 0.0
H1693 H 0.95116 0.74524 0.32579 0.0
H1694 H 0.86265 0.73137 0.34043 0.0
H1695 H 0.92183 0.76027 0.29678 0.0
H1696 H 0.86103 0.75869 0.23919 0.0
H1697 H 0.8924 0.74719 0.26754 0.0
H1698 H 0.84734 0.77058 0.32667 0.0
H1699 H 0.81562 0.78212 0.29795 0.0
C1700 C 0.89877 0.72598 0.35385 0.0
C1701 C 0.92391 0.73006 0.35028 0.0
C1702 C 0.88194 0.73456 0.33712 0.0
C1703 C 0.88994 0.74744 0.31658 0.0
C1704 C 0.9151 0.75042 0.31244 0.0
C1705 C 0.93192 0.7417 0.32905 0.0
C1706 C 0.85801 0.76207 0.25818 0.0
C1707 C 0.83558 0.77073 0.26648 0.0
C1708 C 0.87602 0.75534 0.27446 0.0
C1709 C 0.87208 0.75739 0.29935 0.0
C1710 C 0.85053 0.76806 0.30758 0.0
C1711 C 0.83245 0.77477 0.29122 0.0
H1712 H 0.51047 0.32756 0.8825 0.0
H1713 H 0.5019 0.30144 0.95548 0.0
H1714 H 0.50678 0.3698 0.89667 0.0
H1715 H 0.49927 0.34329 0.96978 0.0
H1716 H 0.46429 0.41182 0.98738 0.0
H1717 H 0.4677 0.37264 0.96702 0.0
H1718 H 0.52396 0.40351 0.92094 0.0
H1719 H 0.51957 0.4432 0.94077 0.0
C1720 C 0.5086 0.33096 0.90164 0.0
C1721 C 0.50624 0.31139 0.91794 0.0
C1722 C 0.50634 0.35507 0.90973 0.0
C1723 C 0.50193 0.3598 0.93423 0.0
C1724 C 0.50168 0.3402 0.95066 0.0
C1725 C 0.50354 0.31626 0.94256 0.0
C1726 C 0.47681 0.41036 0.9724 0.0
C1727 C 0.49173 0.43031 0.96564 0.0
C1728 C 0.47906 0.38789 0.96096 0.0
C1729 C 0.49675 0.38477 0.94297 0.0
C1730 C 0.51029 0.40531 0.93484 0.0
C1731 C 0.50769 0.42803 0.94606 0.0
H1732 H 0.92976 0.30762 0.16832 0.0
H1733 H 0.92466 0.23098 0.14937 0.0
H1734 H 0.88755 0.30582 0.18242 0.0
H1735 H 0.88275 0.22915 0.16366 0.0
H1736 H 0.80573 0.22925 0.17991 0.0
H1737 H 0.84113 0.24295 0.15635 0.0
H1738 H 0.8667 0.28636 0.21687 0.0
H1739 H 0.83128 0.27265 0.24007 0.0
C1740 C 0.91964 0.2904 0.16709 0.0
C1741 C 0.93066 0.26937 0.15791 0.0
C1742 C 0.89544 0.28942 0.17511 0.0
C1743 C 0.88169 0.26743 0.17396 0.0
C1744 C 0.89262 0.24654 0.16433 0.0
C1745 C 0.9168 0.24749 0.15644 0.0
C1746 C 0.81821 0.24285 0.18755 0.0
C1747 C 0.81562 0.25039 0.21153 0.0
C1748 C 0.83869 0.25037 0.17427 0.0
C1749 C 0.85701 0.2653 0.18494 0.0
C1750 C 0.85292 0.27496 0.20804 0.0
C1751 C 0.83245 0.26738 0.22128 0.0
H1752 H 0.03297 0.67081 0.40903 0.0
H1753 H 0.98076 0.66867 0.4673 0.0
H1754 H 0.04679 0.63029 0.42058 0.0
H1755 H 0.99417 0.62826 0.47845 0.0
H1756 H 0.02249 0.55774 0.49934 0.0
H1757 H 0.02573 0.60177 0.49317 0.0
H1758 H 0.02601 0.59051 0.41605 0.0
H1759 H 0.02336 0.54649 0.42219 0.0
C1760 C 0.02478 0.66193 0.42458 0.0
C1761 C 0.00546 0.67273 0.43699 0.0
C1762 C 0.03264 0.63871 0.43111 0.0
C1763 C 0.0214 0.62598 0.45024 0.0
C1764 C 0.0034 0.63763 0.46376 0.0
C1765 C 0.99553 0.66076 0.45722 0.0
C1766 C 0.02378 0.56463 0.48107 0.0
C1767 C 0.02213 0.54867 0.46122 0.0
C1768 C 0.02563 0.58986 0.47756 0.0
C1769 C 0.02569 0.59962 0.45414 0.0
C1770 C 0.02615 0.58357 0.43434 0.0
C1771 C 0.02447 0.55831 0.43785 0.0
H1772 H 0.54913 0.72741 0.71892 0.0
H1773 H 0.56099 0.77883 0.66068 0.0
H1774 H 0.59075 0.73534 0.73324 0.0
H1775 H 0.60255 0.78628 0.67462 0.0
H1776 H 0.67196 0.80736 0.71078 0.0
H1777 H 0.62795 0.80339 0.70574 0.0
H1778 H 0.63166 0.72574 0.71955 0.0
H1779 H 0.67587 0.72998 0.72518 0.0
C1780 C 0.56047 0.74066 0.70936 0.0
C1781 C 0.55174 0.7524 0.68856 0.0
C1782 C 0.5844 0.74503 0.71748 0.0
C1783 C 0.60008 0.76129 0.70501 0.0
C1784 C 0.59093 0.77385 0.68487 0.0
C1785 C 0.56706 0.76949 0.67678 0.0
C1786 C 0.66334 0.78948 0.71305 0.0
C1787 C 0.67738 0.76889 0.71817 0.0
C1788 C 0.63811 0.78719 0.71007 0.0
C1789 C 0.62628 0.7642 0.71185 0.0
C1790 C 0.64015 0.74378 0.71824 0.0
C1791 C 0.66548 0.74614 0.72145 0.0
H1792 H 0.57004 0.46249 0.68907 0.0
H1793 H 0.54813 0.53755 0.68287 0.0
H1794 H 0.55004 0.45309 0.65074 0.0
H1795 H 0.53001 0.52893 0.64378 0.0
H1796 H 0.49463 0.50876 0.57354 0.0
H1797 H 0.50207 0.51232 0.61697 0.0
H1798 H 0.55893 0.45895 0.61139 0.0
H1799 H 0.55051 0.45437 0.56928 0.0
C1800 C 0.56091 0.47695 0.67947 0.0
C1801 C 0.56083 0.50075 0.68882 0.0
C1802 C 0.54959 0.47169 0.65735 0.0
C1803 C 0.53879 0.49036 0.64361 0.0
C1804 C 0.53778 0.51392 0.65369 0.0
C1805 C 0.54841 0.51896 0.67613 0.0
C1806 C 0.50837 0.49753 0.58182 0.0
C1807 C 0.522 0.48143 0.56779 0.0
C1808 C 0.51281 0.49965 0.60671 0.0
C1809 C 0.53125 0.486 0.61798 0.0
C1810 C 0.54419 0.4694 0.60388 0.0
C1811 C 0.53949 0.46698 0.57935 0.0
H1812 H 0.79044 0.34492 0.92145 0.0
H1813 H 0.71257 0.34876 0.93196 0.0
H1814 H 0.78386 0.33164 0.88009 0.0
H1815 H 0.70586 0.33519 0.89021 0.0
H1816 H 0.71517 0.26243 0.84449 0.0
H1817 H 0.71515 0.292 0.87705 0.0
H1818 H 0.7667 0.33795 0.83817 0.0
H1819 H 0.76678 0.30811 0.80519 0.0
C1820 C 0.7719 0.34354 0.91461 0.0
C1821 C 0.75197 0.34729 0.92988 0.0
C1822 C 0.76814 0.33621 0.89085 0.0
C1823 C 0.74436 0.33215 0.88208 0.0
C1824 C 0.72438 0.33807 0.89669 0.0
C1825 C 0.72819 0.34582 0.92047 0.0
C1826 C 0.7264 0.2789 0.84273 0.0
C1827 C 0.74146 0.28268 0.82256 0.0
C1828 C 0.72601 0.29607 0.86121 0.0
C1829 C 0.74083 0.3173 0.86006 0.0
C1830 C 0.75509 0.3217 0.83942 0.0
C1831 C 0.75524 0.30459 0.82068 0.0
H1832 H 0.90946 0.53795 0.1783 0.0
H1833 H 0.97857 0.50861 0.20057 0.0
H1834 H 0.92534 0.54428 0.13788 0.0
H1835 H 0.99479 0.51571 0.16026 0.0
H1836 H -0.00166 0.49583 0.07885 0.0
H1837 H 0.98906 0.49698 0.12173 0.0
H1838 H 0.95267 0.56563 0.1118 0.0
H1839 H 0.96124 0.56401 0.06882 0.0
C1840 C 0.92825 0.53342 0.17474 0.0
C1841 C 0.94264 0.52252 0.1926 0.0
C1842 C 0.93744 0.53715 0.15153 0.0
C1843 C 0.96132 0.53028 0.14569 0.0
C1844 C 0.97617 0.52074 0.16398 0.0
C1845 C 0.96691 0.51683 0.18715 0.0
C1846 C 0.98876 0.51138 0.08591 0.0
C1847 C 0.98027 0.52966 0.07039 0.0
C1848 C 0.98349 0.51212 0.11055 0.0
C1849 C 0.96984 0.53128 0.12024 0.0
C1850 C 0.96271 0.55032 0.10489 0.0
C1851 C 0.96775 0.54945 0.08025 0.0
H1852 H 0.78879 0.64273 0.40843 0.0
H1853 H 0.77376 0.7171 0.42877 0.0
H1854 H 0.7987 0.65655 0.36752 0.0
H1855 H 0.78345 0.73083 0.38839 0.0
H1856 H 0.75034 0.68993 0.30302 0.0
H1857 H 0.7691 0.67025 0.33747 0.0
H1858 H 0.80926 0.73725 0.35364 0.0
H1859 H 0.78918 0.75707 0.31986 0.0
C1860 C 0.78836 0.6621 0.40438 0.0
C1861 C 0.78 0.6788 0.4216 0.0
C1862 C 0.79401 0.67 0.38096 0.0
C1863 C 0.7917 0.69476 0.37453 0.0
C1864 C 0.78574 0.71167 0.39259 0.0
C1865 C 0.77984 0.70376 0.41578 0.0
C1866 C 0.76438 0.69992 0.31303 0.0
C1867 C 0.76851 0.72494 0.30876 0.0
C1868 C 0.77516 0.68867 0.3329 0.0
C1869 C 0.79008 0.70245 0.34882 0.0
C1870 C 0.79741 0.7263 0.34201 0.0
C1871 C 0.78637 0.73758 0.3223 0.0
H1872 H 0.59282 0.46745 0.81113 0.0
H1873 H 0.59846 0.54445 0.82796 0.0
H1874 H 0.58121 0.45869 0.85315 0.0
H1875 H 0.58763 0.53585 0.86951 0.0
H1876 H 0.56895 0.52539 0.94033 0.0
H1877 H 0.59771 0.51456 0.90877 0.0
H1878 H 0.54098 0.47177 0.87323 0.0
H1879 H 0.5125 0.48243 0.90497 0.0
C1880 C 0.59226 0.48235 0.82398 0.0
C1881 C 0.59613 0.50666 0.81636 0.0
C1882 C 0.58571 0.47735 0.84794 0.0
C1883 C 0.5837 0.49653 0.86467 0.0
C1884 C 0.58943 0.52058 0.85725 0.0
C1885 C 0.59533 0.52559 0.83335 0.0
C1886 C 0.56318 0.5123 0.92666 0.0
C1887 C 0.53862 0.50478 0.92488 0.0
C1888 C 0.57956 0.50626 0.90848 0.0
C1889 C 0.57136 0.49294 0.8882 0.0
C1890 C 0.54784 0.4821 0.88858 0.0
C1891 C 0.53149 0.48814 0.90681 0.0
H1892 H 0.71464 0.34153 0.07017 0.0
H1893 H 0.75305 0.27712 0.04805 0.0
H1894 H 0.70627 0.32261 0.10904 0.0
H1895 H 0.74434 0.25806 0.08687 0.0
H1896 H 0.76132 0.25939 0.17056 0.0
H1897 H 0.76076 0.26675 0.12717 0.0
H1898 H 0.68609 0.29011 0.13185 0.0
H1899 H 0.68683 0.28324 0.1752 0.0
C1900 C 0.72074 0.3231 0.07335 0.0
C1901 C 0.73484 0.31103 0.05616 0.0
C1902 C 0.71585 0.31216 0.09561 0.0
C1903 C 0.7249 0.28891 0.10112 0.0
C1904 C 0.73749 0.27614 0.08329 0.0
C1905 C 0.74236 0.28706 0.06101 0.0
C1906 C 0.74459 0.26541 0.16219 0.0
C1907 C 0.7243 0.2712 0.17629 0.0
C1908 C 0.74422 0.26961 0.13732 0.0
C1909 C 0.72349 0.27947 0.12617 0.0
C1910 C 0.70249 0.28306 0.14001 0.0
C1911 C 0.70291 0.27903 0.16482 0.0
H1912 H 0.94651 0.53172 0.32741 0.0
H1913 H 0.87116 0.50698 0.3263 0.0
H1914 H 0.94699 0.52857 0.37135 0.0
H1915 H 0.87201 0.50262 0.37035 0.0
H1916 H 0.92793 0.45176 0.42358 0.0
H1917 H 0.90627 0.46845 0.3889 0.0
H1918 H 0.9223 0.54168 0.41422 0.0
H1919 H 0.94329 0.52501 0.44927 0.0
C1920 C 0.92982 0.52651 0.33669 0.0
C1921 C 0.90882 0.51965 0.32363 0.0
C1922 C 0.93003 0.52476 0.36179 0.0
C1923 C 0.90949 0.5154 0.37411 0.0
C1924 C 0.88793 0.51015 0.36121 0.0
C1925 C 0.88747 0.51269 0.3361 0.0
C1926 C 0.92542 0.47134 0.42252 0.0
C1927 C 0.93713 0.48709 0.43907 0.0
C1928 C 0.91306 0.48091 0.4027 0.0
C1929 C 0.91286 0.50632 0.39892 0.0
C1930 C 0.92211 0.52205 0.4169 0.0
C1931 C 0.93395 0.51246 0.43703 0.0
H1932 H 0.72127 0.67745 0.56021 0.0
H1933 H 0.79862 0.6684 0.55004 0.0
H1934 H 0.72875 0.69134 0.60145 0.0
H1935 H 0.80623 0.68339 0.59139 0.0
H1936 H 0.79183 0.75602 0.64384 0.0
H1937 H 0.79361 0.73035 0.6078 0.0
H1938 H 0.75045 0.67434 0.64359 0.0
H1939 H 0.74929 0.69968 0.68004 0.0
C1940 C 0.73987 0.67824 0.56694 0.0
C1941 C 0.7594 0.67203 0.552 0.0
C1942 C 0.74411 0.68597 0.59056 0.0
C1943 C 0.76803 0.68825 0.59954 0.0
C1944 C 0.78762 0.68155 0.58483 0.0
C1945 C 0.78329 0.67306 0.5613 0.0
C1946 C 0.78341 0.73789 0.64427 0.0
C1947 C 0.77028 0.72987 0.66461 0.0
C1948 C 0.78456 0.72318 0.62373 0.0
C1949 C 0.77213 0.70047 0.62301 0.0
C1950 C 0.76027 0.69177 0.64384 0.0
C1951 C 0.75964 0.70624 0.66464 0.0
H1952 H 0.70328 0.57254 0.46653 0.0
H1953 H 0.65911 0.6354 0.48039 0.0
H1954 H 0.66653 0.54648 0.46594 0.0
H1955 H 0.62266 0.60939 0.48112 0.0
H1956 H 0.55743 0.55803 0.46681 0.0
H1957 H 0.59347 0.58478 0.46086 0.0
H1958 H 0.63882 0.52986 0.49317 0.0
H1959 H 0.60357 0.5032 0.49796 0.0
C1960 C 0.68575 0.58077 0.46951 0.0
C1961 C 0.6842 0.60601 0.47362 0.0
C1962 C 0.66462 0.56584 0.46934 0.0
C1963 C 0.64146 0.5757 0.47378 0.0
C1964 C 0.63997 0.60107 0.4773 0.0
C1965 C 0.66101 0.61602 0.47706 0.0
C1966 C 0.57517 0.55175 0.47246 0.0
C1967 C 0.57759 0.52838 0.48258 0.0
C1968 C 0.59586 0.56707 0.46916 0.0
C1969 C 0.61929 0.55944 0.47625 0.0
C1970 C 0.6214 0.53621 0.48672 0.0
C1971 C 0.60097 0.52091 0.48968 0.0
H1972 H 0.17243 0.89946 0.52696 0.0
H1973 H 0.1903 0.94811 0.46788 0.0
H1974 H 0.13478 0.92102 0.53355 0.0
H1975 H 0.15268 0.97017 0.47487 0.0
H1976 H 0.0671 0.97624 0.47513 0.0
H1977 H 0.10909 0.96335 0.46976 0.0
H1978 H 0.11759 0.95832 0.5471 0.0
H1979 H 0.07549 0.9708 0.55225 0.0
C1980 C 0.1685 0.91499 0.51557 0.0
C1981 C 0.18438 0.92195 0.49682 0.0
C1982 C 0.14693 0.92753 0.51947 0.0
C1983 C 0.14065 0.94745 0.50479 0.0
C1984 C 0.15681 0.95478 0.48637 0.0
C1985 C 0.17844 0.94219 0.48244 0.0
C1986 C 0.07826 0.97328 0.49094 0.0
C1987 C 0.06805 0.97462 0.51407 0.0
C1988 C 0.10232 0.96571 0.48791 0.0
C1989 C 0.11666 0.95938 0.508 0.0
C1990 C 0.10691 0.96246 0.5312 0.0
C1991 C 0.08285 0.96983 0.53418 0.0
H1992 H 0.32218 0.94988 0.74513 0.0
H1993 H 0.38018 0.9006 0.72816 0.0
H1994 H 0.29294 0.91562 0.74464 0.0
H1995 H 0.3509 0.8665 0.72656 0.0
H1996 H 0.29704 0.8072 0.75316 0.0
H1997 H 0.32668 0.84132 0.75225 0.0
H1998 H 0.27234 0.88724 0.71977 0.0
H1999 H 0.24279 0.85371 0.72157 0.0
C2000 C 0.32857 0.9318 0.74079 0.0
C2001 C 0.35343 0.92789 0.73677 0.0
C2002 C 0.31183 0.91212 0.74047 0.0
C2003 C 0.31957 0.88818 0.73572 0.0
C2004 C 0.34436 0.88452 0.73085 0.0
C2005 C 0.36111 0.90412 0.73153 0.0
C2006 C 0.29155 0.82461 0.74584 0.0
C2007 C 0.26756 0.82782 0.73768 0.0
C2008 C 0.30852 0.84414 0.74518 0.0
C2009 C 0.30187 0.86715 0.73605 0.0
C2010 C 0.27798 0.87005 0.72746 0.0
C2011 C 0.26104 0.85072 0.72841 0.0
H2012 H 0.32805 0.08965 0.02085 0.0
H2013 H 0.32793 0.06447 0.94698 0.0
H2014 H 0.36906 0.07437 0.02628 0.0
H2015 H 0.36926 0.04909 0.95257 0.0
H2016 H 0.43238 0.00177 0.99065 0.0
H2017 H 0.39283 0.01709 0.97721 0.0
H2018 H 0.41017 0.0869 0.01024 0.0
H2019 H 0.44951 0.07161 0.02338 0.0
C2020 C 0.33665 0.08066 0.0058 0.0
C2021 C 0.32468 0.07845 0.98344 0.0
C2022 C 0.36029 0.0721 0.00886 0.0
C2023 C 0.37259 0.06095 0.9897 0.0
C2024 C 0.3603 0.05772 0.96761 0.0
C2025 C 0.33663 0.06652 0.96446 0.0
C2026 C 0.42822 0.02075 -0.00613 0.0
C2027 C 0.44416 0.03571 0.00759 0.0
C2028 C 0.40543 0.02943 0.9865 0.0
C2029 C 0.39819 0.05303 -0.00686 0.0
C2030 C 0.41502 0.06848 0.00527 0.0
C2031 C 0.43768 0.05986 0.0125 0.0
H2032 H 0.68932 0.55793 0.74133 0.0
H2033 H 0.63119 0.59565 0.70536 0.0
H2034 H 0.7156 0.59463 0.73758 0.0
H2035 H 0.65736 0.63193 0.70118 0.0
H2036 H 0.76088 0.66163 0.72687 0.0
H2037 H 0.73763 0.62547 0.71319 0.0
H2038 H 0.67065 0.6611 0.7317 0.0
H2039 H 0.69409 0.69689 0.7454 0.0
C2040 C 0.68246 0.57374 0.73193 0.0
C2041 C 0.65812 0.57404 0.72399 0.0
C2042 C 0.69748 0.59481 0.72972 0.0
C2043 C 0.68843 0.61643 0.71939 0.0
C2044 C 0.66475 0.61585 0.70966 0.0
C2045 C 0.64979 0.59498 0.712 0.0
C2046 C 0.74111 0.66215 0.7267 0.0
C2047 C 0.72917 0.6823 0.73651 0.0
C2048 C 0.72782 0.64128 0.7193 0.0
C2049 C 0.70229 0.64017 0.72166 0.0
C2050 C 0.69026 0.66133 0.72932 0.0
C2051 C 0.70362 0.68212 0.73683 0.0
H2052 H 0.80657 0.4307 0.00479 0.0
H2053 H 0.8479 0.36823 0.0274 0.0
H2054 H 0.84459 0.45429 -0.00026 0.0
H2055 H 0.8857 0.39143 0.02156 0.0
H2056 H 0.91384 0.47858 0.96264 0.0
H2057 H 0.87734 0.45357 0.97061 0.0
H2058 H 0.91149 0.425 0.03481 0.0
H2059 H 0.94808 0.44985 0.02649 0.0
C2060 C 0.82369 0.42215 0.00909 0.0
C2061 C 0.82422 0.39754 0.01622 0.0
C2062 C 0.84549 0.43552 0.00585 0.0
C2063 C 0.86819 0.42451 0.00968 0.0
C2064 C 0.86858 0.40044 0.01841 0.0
C2065 C 0.84685 0.38714 0.0217 0.0
C2066 C 0.91372 0.4664 0.97806 0.0
C2067 C 0.93385 0.46576 -0.00627 0.0
C2068 C 0.89271 0.45242 0.98288 0.0
C2069 C 0.89131 0.43774 0.00365 0.0
C2070 C 0.91201 0.43607 0.01861 0.0
C2071 C 0.93312 0.44999 0.01368 0.0
H2072 H 0.36089 0.07687 0.74877 0.0
H2073 H 0.29191 0.03787 0.7403 0.0
H2074 H 0.33953 0.11547 0.75079 0.0
H2075 H 0.27053 0.07677 0.74196 0.0
H2076 H 0.25576 0.15703 0.7092 0.0
H2077 H 0.26995 0.11518 0.71416 0.0
H2078 H 0.30907 0.13713 0.7786 0.0
H2079 H 0.29476 0.17894 0.7736 0.0
C2080 C 0.34116 0.07652 0.74727 0.0
C2081 C 0.32812 0.05427 0.74426 0.0
C2082 C 0.32891 0.09863 0.7487 0.0
C2083 C 0.30334 0.09911 0.74678 0.0
C2084 C 0.29024 0.07692 0.74358 0.0
C2085 C 0.30249 0.05469 0.74259 0.0
C2086 C 0.26656 0.15261 0.72495 0.0
C2087 C 0.27376 0.17105 0.7413 0.0
C2088 C 0.27475 0.1287 0.72775 0.0
C2089 C 0.29079 0.12295 0.74664 0.0
C2090 C 0.2968 0.14108 0.76382 0.0
C2091 C 0.28826 0.1649 0.76122 0.0
H2092 H 0.17403 0.92929 0.29757 0.0
H2093 H 0.15116 0.93561 0.22324 0.0
H2094 H 0.18584 0.88706 0.29028 0.0
H2095 H 0.16317 0.89365 0.21596 0.0
H2096 H 0.16373 0.81303 0.21217 0.0
H2097 H 0.14948 0.85236 0.22651 0.0
H2098 H 0.2158 0.86223 0.2681 0.0
H2099 H 0.22985 0.82257 0.25372 0.0
C2100 C 0.17169 0.92178 0.27962 0.0
C2101 C 0.16155 0.93592 0.261 0.0
C2102 C 0.17849 0.89754 0.27547 0.0
C2103 C 0.17512 0.88676 0.25265 0.0
C2104 C 0.1655 0.90112 0.23393 0.0
C2105 C 0.15885 0.92534 0.23803 0.0
C2106 C 0.17477 0.82315 0.22519 0.0
C2107 C 0.19764 0.81453 0.23224 0.0
C2108 C 0.16683 0.84591 0.23307 0.0
C2109 C 0.18175 0.86079 0.24799 0.0
C2110 C 0.20382 0.85127 0.25663 0.0
C2111 C 0.21176 0.82836 0.2487 0.0
H2112 H 0.4975 0.32652 0.37705 0.0
H2113 H 0.47494 0.3056 0.44865 0.0
H2114 H 0.49579 0.3695 0.38821 0.0
H2115 H 0.47526 0.34829 0.46075 0.0
H2116 H 0.47309 0.42356 0.4824 0.0
H2117 H 0.45989 0.38629 0.46164 0.0
H2118 H 0.51581 0.39965 0.40794 0.0
H2119 H 0.5267 0.43784 0.42748 0.0
C2120 C 0.49265 0.3312 0.39537 0.0
C2121 C 0.4867 0.31277 0.4121 0.0
C2122 C 0.49164 0.35591 0.40186 0.0
C2123 C 0.48544 0.36285 0.42553 0.0
C2124 C 0.47949 0.34413 0.44219 0.0
C2125 C 0.47973 0.31948 0.43543 0.0
C2126 C 0.48101 0.41946 0.46507 0.0
C2127 C 0.50043 0.43387 0.45621 0.0
C2128 C 0.47421 0.39749 0.45358 0.0
C2129 C 0.48742 0.38907 0.43353 0.0
C2130 C 0.505 0.40509 0.42322 0.0
C2131 C 0.51123 0.42731 0.43434 0.0
H2132 H 0.43432 0.74577 0.21746 0.0
H2133 H 0.4173 0.76853 0.14492 0.0
H2134 H 0.39388 0.75741 0.23062 0.0
H2135 H 0.37624 0.77871 0.15755 0.0
H2136 H 0.30477 0.80233 0.18637 0.0
H2137 H 0.34864 0.80228 0.179 0.0
H2138 H 0.35512 0.73996 0.22655 0.0
H2139 H 0.31181 0.74094 0.23479 0.0
C2140 C 0.42187 0.7534 0.20438 0.0
C2141 C 0.4287 0.75601 0.18016 0.0
C2142 C 0.39864 0.75991 0.21184 0.0
C2143 C 0.38152 0.76851 0.19508 0.0
C2144 C 0.38893 0.77237 0.17106 0.0
C2145 C 0.41242 0.76641 0.16373 0.0
C2146 C 0.31574 0.78891 0.1955 0.0
C2147 C 0.3049 0.77159 0.21107 0.0
C2148 C 0.34084 0.78877 0.19119 0.0
C2149 C 0.35551 0.77102 0.20202 0.0
C2150 C 0.34464 0.75424 0.21822 0.0
C2151 C 0.31968 0.75467 0.22285 0.0
H2152 H 0.02669 0.67648 0.89178 0.0
H2153 H 0.98872 0.68641 0.95905 0.0
H2154 H 0.03884 0.63566 0.90496 0.0
H2155 H 0.00111 0.64615 0.97227 0.0
H2156 H 0.02298 0.57851 -0.00217 0.0
H2157 H 0.03644 0.6184 0.98248 0.0
H2158 H 0.00996 0.59827 0.91165 0.0
H2159 H -0.00328 0.55841 0.92711 0.0
C2160 C 0.02145 0.67018 0.90958 0.0
C2161 C 0.00647 0.68444 0.92429 0.0
C2162 C 0.02846 0.6469 0.91711 0.0
C2163 C 0.02111 0.6378 0.93969 0.0
C2164 C 0.00746 0.65279 0.95494 0.0
C2165 C 6e-05 0.67575 0.94725 0.0
C2166 C 0.02165 0.58201 0.97864 0.0
C2167 C 0.00892 0.5655 0.96358 0.0
C2168 C 0.02907 0.60495 0.96991 0.0
C2169 C 0.02362 0.61163 0.94605 0.0
C2170 C 0.01441 0.59365 0.93012 0.0
C2171 C 0.00695 0.57071 0.93891 0.0
H2172 H 0.09855 0.27831 0.64885 0.0
H2173 H 0.05152 0.23976 0.69926 0.0
H2174 H 0.13304 0.2731 0.67579 0.0
H2175 H 0.08647 0.23454 0.72642 0.0
H2176 H 0.15651 0.25646 0.77423 0.0
H2177 H 0.11848 0.259 0.75139 0.0
H2178 H 0.15553 0.23494 0.68738 0.0
H2179 H 0.19349 0.23233 0.70998 0.0
C2180 C 0.0955 0.26898 0.66584 0.0
C2181 C 0.07238 0.25914 0.67178 0.0
C2182 C 0.11531 0.26583 0.68116 0.0
C2183 C 0.11249 0.25283 0.70281 0.0
C2184 C 0.0891 0.24444 0.70967 0.0
C2185 C 0.06913 0.24754 0.69421 0.0
C2186 C 0.15647 0.25121 0.75539 0.0
C2187 C 0.1782 0.24467 0.74379 0.0
C2188 C 0.13466 0.25268 0.74238 0.0
C2189 C 0.13428 0.24772 0.71758 0.0
C2190 C 0.15552 0.23942 0.70641 0.0
C2191 C 0.17724 0.23782 0.71939 0.0
H2192 H 0.47948 0.64726 0.11994 0.0
H2193 H 0.5055 0.70377 0.07123 0.0
H2194 H 0.48641 0.6165 0.08923 0.0
H2195 H 0.51304 0.67281 0.04065 0.0
H2196 H 0.49514 0.61199 0.98479 0.0
H2197 H 0.49149 0.64447 0.0143 0.0
H2198 H 0.52029 0.5971 0.0694 0.0
H2199 H 0.52375 0.56437 0.0398 0.0
C2200 C 0.48664 0.65313 0.10265 0.0
C2201 C 0.49196 0.67795 0.09802 0.0
C2202 C 0.49087 0.63546 0.08515 0.0
C2203 C 0.50062 0.64218 0.06266 0.0
C2204 C 0.50541 0.66707 0.05779 0.0
C2205 C 0.50107 0.6848 0.07529 0.0
C2206 C 0.50113 0.60858 0.00309 0.0
C2207 C 0.50934 0.58543 0.01008 0.0
C2208 C 0.49904 0.62726 0.02002 0.0
C2209 C 0.50523 0.62323 0.04425 0.0
C2210 C 0.51479 0.60054 0.05095 0.0
C2211 C 0.51685 0.58183 0.03402 0.0
H2212 H 0.08062 0.74449 0.87051 0.0
H2213 H 0.0527 0.7228 0.80073 0.0
H2214 H 0.12222 0.74267 0.85546 0.0
H2215 H 0.09402 0.72286 0.78489 0.0
H2216 H 0.16603 0.72562 0.75555 0.0
H2217 H 0.13301 0.70897 0.7805 0.0
H2218 H 0.14694 0.7669 0.83237 0.0
H2219 H 0.18091 0.78165 0.80836 0.0
C2220 C 0.08347 0.73953 0.85184 0.0
C2221 C 0.06353 0.73428 0.8366 0.0
C2222 C 0.10732 0.73848 0.84316 0.0
C2223 C 0.11176 0.73298 0.81878 0.0
C2224 C 0.09164 0.72678 0.80385 0.0
C2225 C 0.06782 0.7271 0.81278 0.0
C2226 C 0.16312 0.7334 0.77324 0.0
C2227 C 0.17624 0.75444 0.78042 0.0
C2228 C 0.14367 0.72445 0.78722 0.0
C2229 C 0.13655 0.73703 0.80815 0.0
C2230 C 0.15164 0.75648 0.81653 0.0
C2231 C 0.17131 0.76502 0.8028 0.0
H2232 H 0.01175 0.30621 0.55419 0.0
H2233 H 0.95731 0.30835 0.61033 0.0
H2234 H 0.99639 0.34349 0.53718 0.0
H2235 H 0.94114 0.34561 0.59257 0.0
H2236 H 0.955 0.4293 0.57958 0.0
H2237 H 0.95569 0.38679 0.5915 0.0
H2238 H 0.96591 0.36565 0.51718 0.0
H2239 H 0.96632 0.40857 0.50528 0.0
C2240 C 0.99612 0.31438 0.56266 0.0
C2241 C 0.98607 0.30454 0.58392 0.0
C2242 C 0.98706 0.33571 0.55266 0.0
C2243 C 0.96756 0.34772 0.56353 0.0
C2244 C 0.95644 0.33703 0.58395 0.0
C2245 C 0.96565 0.31565 0.59409 0.0
C2246 C 0.95691 0.41564 0.56564 0.0
C2247 C 0.96127 0.42245 0.54154 0.0
C2248 C 0.95708 0.3911 0.57249 0.0
C2249 C 0.96136 0.37275 0.55538 0.0
C2250 C 0.96324 0.37939 0.53092 0.0
C2251 C 0.96335 0.404 0.52408 0.0
H2252 H 0.45761 0.27447 0.30988 0.0
H2253 H 0.42239 0.20692 0.33238 0.0
H2254 H 0.42534 0.28022 0.27951 0.0
H2255 H 0.39087 0.21213 0.3018 0.0
H2256 H 0.34131 0.21721 0.24293 0.0
H2257 H 0.38408 0.21624 0.25525 0.0
H2258 H 0.37747 0.28703 0.28871 0.0
H2259 H 0.33451 0.28796 0.27622 0.0
C2260 C 0.44348 0.26046 0.30769 0.0
C2261 C 0.4424 0.2402 0.32332 0.0
C2262 C 0.42502 0.26381 0.29047 0.0
C2263 C 0.40575 0.24655 0.28823 0.0
C2264 C 0.40571 0.22555 0.30286 0.0
C2265 C 0.42367 0.22256 0.32041 0.0
C2266 C 0.34942 0.23318 0.25169 0.0
C2267 C 0.33478 0.25266 0.25866 0.0
C2268 C 0.37382 0.23253 0.25889 0.0
C2269 C 0.3839 0.25135 0.27327 0.0
C2270 C 0.37015 0.27234 0.27753 0.0
C2271 C 0.34561 0.27296 0.27031 0.0
H2272 H 0.4697 0.49247 0.28985 0.0
H2273 H 0.40788 0.53644 0.30822 0.0
H2274 H 0.48624 0.4982 0.33029 0.0
H2275 H 0.42428 0.54181 0.34886 0.0
H2276 H 0.46657 0.56225 0.41495 0.0
H2277 H 0.45714 0.56045 0.37214 0.0
H2278 H 0.47634 0.48423 0.37091 0.0
H2279 H 0.48629 0.48619 0.41394 0.0
C2280 C 0.45971 0.50355 0.30245 0.0
C2281 C 0.43736 0.51393 0.2958 0.0
C2282 C 0.46916 0.50668 0.3257 0.0
C2283 C 0.45654 0.5203 0.34288 0.0
C2284 C 0.43463 0.53141 0.33598 0.0
C2285 C 0.42516 0.5283 0.31269 0.0
C2286 C 0.46914 0.54517 0.40549 0.0
C2287 C 0.47692 0.52426 0.41788 0.0
C2288 C 0.46357 0.54412 0.38096 0.0
C2289 C 0.46552 0.5221 0.36818 0.0
C2290 C 0.47472 0.50152 0.38022 0.0
C2291 C 0.48044 0.50261 0.40486 0.0
H2292 H 0.2496 0.63157 0.07057 0.0
H2293 H 0.27508 0.70687 0.07044 0.0
H2294 H 0.24265 0.63393 0.11422 0.0
H2295 H 0.26931 0.70878 0.11411 0.0
H2296 H 0.19443 0.70171 0.16297 0.0
H2297 H 0.20857 0.67838 0.12827 0.0
H2298 H 0.28067 0.67624 0.1595 0.0
H2299 H 0.26642 0.69884 0.1945 0.0
C2300 C 0.25493 0.64817 0.0801 0.0
C2301 C 0.26293 0.66907 0.06735 0.0
C2302 C 0.25087 0.64948 0.10495 0.0
C2303 C 0.25562 0.67145 0.11727 0.0
C2304 C 0.26586 0.69156 0.10487 0.0
C2305 C 0.26916 0.6905 0.07999 0.0
C2306 C 0.21281 0.69481 0.16312 0.0
C2307 C 0.22926 0.70175 0.18144 0.0
C2308 C 0.22092 0.68153 0.14332 0.0
C2309 C 0.24565 0.67564 0.14143 0.0
C2310 C 0.26146 0.6803 0.16087 0.0
C2311 C 0.25321 0.69305 0.18095 0.0
H2312 H 0.03025 0.48761 0.80036 0.0
H2313 H 0.10267 0.46479 0.81995 0.0
H2314 H 0.01696 0.48187 0.84183 0.0
H2315 H 0.08958 0.45972 0.86161 0.0
H2316 H 0.05705 0.4396 0.933 0.0
H2317 H 0.06485 0.43751 0.88991 0.0
H2318 H 0.02347 0.50302 0.87915 0.0
H2319 H 0.01509 0.50472 0.9222 0.0
C2320 C 0.0433 0.48114 0.81348 0.0
C2321 C 0.0676 0.47684 0.80688 0.0
C2322 C 0.0357 0.47802 0.83732 0.0
C2323 C 0.05225 0.47065 0.85518 0.0
C2324 C 0.07625 0.4652 0.84832 0.0
C2325 C 0.08382 0.46817 0.82441 0.0
C2326 C 0.04935 0.4534 0.92141 0.0
C2327 C 0.03558 0.47245 0.9311 0.0
C2328 C 0.05395 0.45226 0.89669 0.0
C2329 C 0.04505 0.47022 0.88104 0.0
C2330 C 0.03041 0.4887 0.8906 0.0
C2331 C 0.02564 0.48974 0.91534 0.0
H2332 H 0.22354 0.36166 0.58521 0.0
H2333 H 0.22936 0.28646 0.56271 0.0
H2334 H 0.21696 0.34805 0.62693 0.0
H2335 H 0.22261 0.27291 0.60381 0.0
H2336 H 0.21692 0.24672 0.67361 0.0
H2337 H 0.19801 0.26941 0.64084 0.0
H2338 H 0.24885 0.32968 0.65339 0.0
H2339 H 0.26719 0.30707 0.68638 0.0
C2340 C 0.22254 0.34223 0.58905 0.0
C2341 C 0.2273 0.32508 0.57089 0.0
C2342 C 0.21882 0.33446 0.61289 0.0
C2343 C 0.21931 0.30942 0.61875 0.0
C2344 C 0.22177 0.29231 0.60001 0.0
C2345 C 0.22591 0.30006 0.57642 0.0
C2346 C 0.22285 0.26547 0.6704 0.0
C2347 C 0.24338 0.27527 0.68245 0.0
C2348 C 0.21226 0.27837 0.65144 0.0
C2349 C 0.22241 0.30103 0.64406 0.0
C2350 C 0.24057 0.31228 0.65855 0.0
C2351 C 0.2511 0.29936 0.67754 0.0
H2352 H 0.45936 0.51855 0.17239 0.0
H2353 H 0.38361 0.52644 0.15304 0.0
H2354 H 0.47137 0.52744 0.13126 0.0
H2355 H 0.39564 0.5351 0.11113 0.0
H2356 H 0.43473 0.489 0.04726 0.0
H2357 H 0.41314 0.50507 0.08186 0.0
H2358 H 0.47365 0.55512 0.09601 0.0
H2359 H 0.49534 0.5384 0.06161 0.0
C2360 C 0.4453 0.52278 0.15934 0.0
C2361 C 0.42058 0.5215 0.16576 0.0
C2362 C 0.45218 0.52819 0.13576 0.0
C2363 C 0.43447 0.53205 0.11782 0.0
C2364 C 0.4097 0.53227 0.12456 0.0
C2365 C 0.40281 0.52732 0.14848 0.0
C2366 C 0.44268 0.50454 0.05684 0.0
C2367 C 0.46663 0.51254 0.05183 0.0
C2368 C 0.43034 0.51374 0.07677 0.0
C2369 C 0.442 0.53088 0.0921 0.0
C2370 C 0.46437 0.54162 0.08474 0.0
C2371 C 0.47669 0.53235 0.06479 0.0
H2372 H 0.28474 0.66712 0.92104 0.0
H2373 H 0.2476 0.73287 0.9414 0.0
H2374 H 0.28886 0.68269 0.88006 0.0
H2375 H 0.25205 0.74854 0.90053 0.0
H2376 H 0.23118 0.74531 0.81832 0.0
H2377 H 0.23336 0.73799 0.86174 0.0
H2378 H 0.30742 0.71361 0.85418 0.0
H2379 H 0.30509 0.72048 0.81092 0.0
C2380 C 0.27796 0.68512 0.91694 0.0
C2381 C 0.26564 0.6986 0.93445 0.0
C2382 C 0.28036 0.6941 0.89344 0.0
C2383 C 0.27055 0.71679 0.88696 0.0
C2384 C 0.25941 0.73084 0.90482 0.0
C2385 C 0.25702 0.72187 0.92829 0.0
C2386 C 0.24809 0.73895 0.82604 0.0
C2387 C 0.26782 0.73314 0.81117 0.0
C2388 C 0.24938 0.73475 0.85092 0.0
C2389 C 0.27046 0.72481 0.86135 0.0
C2390 C 0.29074 0.72072 0.84664 0.0
C2391 C 0.28942 0.72479 0.82186 0.0
H2392 H 0.12341 0.48621 0.66562 0.0
H2393 H 0.04866 0.46152 0.67504 0.0
H2394 H 0.118 0.48456 0.62166 0.0
H2395 H 0.0437 0.45868 0.6313 0.0
H2396 H 0.05292 0.52625 0.5687 0.0
H2397 H 0.07869 0.51583 0.60306 0.0
H2398 H 0.06708 0.43908 0.58777 0.0
H2399 H 0.04225 0.44953 0.55259 0.0
C2400 C 0.10623 0.47933 0.65826 0.0
C2401 C 0.08636 0.47406 0.67352 0.0
C2402 C 0.10321 0.47837 0.63322 0.0
C2403 C 0.08057 0.47126 0.6233 0.0
C2404 C 0.06145 0.46381 0.63863 0.0
C2405 C 0.06421 0.46556 0.66358 0.0
C2406 C 0.05719 0.50724 0.57179 0.0
C2407 C 0.04564 0.48868 0.55822 0.0
C2408 C 0.07191 0.50127 0.5914 0.0
C2409 C 0.07461 0.47668 0.598 0.0
C2410 C 0.06536 0.45813 0.58281 0.0
C2411 C 0.05124 0.46414 0.56271 0.0
H2412 H 0.22778 0.3605 0.42529 0.0
H2413 H 0.24858 0.2878 0.44633 0.0
H2414 H 0.2225 0.34632 0.38339 0.0
H2415 H 0.24336 0.27384 0.40515 0.0
H2416 H 0.21782 0.24669 0.33628 0.0
H2417 H 0.21095 0.26667 0.37478 0.0
H2418 H 0.25131 0.3306 0.35007 0.0
H2419 H 0.25763 0.31061 0.31092 0.0
C2420 C 0.23081 0.34147 0.42106 0.0
C2421 C 0.23862 0.32526 0.43908 0.0
C2422 C 0.22795 0.33342 0.39711 0.0
C2423 C 0.23236 0.30893 0.39099 0.0
C2424 C 0.23942 0.29272 0.40926 0.0
C2425 C 0.24258 0.30077 0.4329 0.0
C2426 C 0.22463 0.2653 0.33881 0.0
C2427 C 0.23854 0.277 0.32082 0.0
C2428 C 0.22077 0.2767 0.36089 0.0
C2429 C 0.23108 0.29997 0.36567 0.0
C2430 C 0.24314 0.31266 0.3469 0.0
C2431 C 0.24677 0.30125 0.32452 0.0
H2432 H 0.29562 0.43305 0.50168 0.0
H2433 H 0.33973 0.37169 0.52174 0.0
H2434 H 0.3323 0.4594 0.50104 0.0
H2435 H 0.37603 0.39796 0.52165 0.0
H2436 H 0.43872 0.44564 0.49035 0.0
H2437 H 0.40249 0.41903 0.49381 0.0
H2438 H 0.36331 0.47829 0.52616 0.0
H2439 H 0.39936 0.50479 0.52233 0.0
C2440 C 0.31304 0.42524 0.50621 0.0
C2441 C 0.31466 0.40022 0.51162 0.0
C2442 C 0.3341 0.44034 0.50594 0.0
C2443 C 0.35723 0.43078 0.51116 0.0
C2444 C 0.35867 0.40589 0.51708 0.0
C2445 C 0.33773 0.39084 0.51727 0.0
C2446 C 0.42255 0.45277 0.49862 0.0
C2447 C 0.42204 0.47728 0.50607 0.0
C2448 C 0.40169 0.43758 0.50056 0.0
C2449 C 0.37981 0.44656 0.5101 0.0
C2450 C 0.3796 0.47087 0.51826 0.0
C2451 C 0.40039 0.48602 0.51623 0.0
H2452 H 0.81797 0.09522 0.51113 0.0
H2453 H 0.78674 0.04609 0.4577 0.0
H2454 H 0.85495 0.07131 0.51202 0.0
H2455 H 0.82377 0.02203 0.45876 0.0
H2456 H 0.90766 0.01733 0.44121 0.0
H2457 H 0.86573 0.03049 0.4448 0.0
H2458 H 0.87298 0.03116 0.52238 0.0
H2459 H 0.91528 0.01797 0.51871 0.0
C2460 C 0.81888 0.07918 0.49974 0.0
C2461 C 0.79947 0.07275 0.48414 0.0
C2462 C 0.84001 0.0653 0.50045 0.0
C2463 C 0.84231 0.04473 0.48549 0.0
C2464 C 0.82262 0.03787 0.47041 0.0
C2465 C 0.8014 0.05166 0.46981 0.0
C2466 C 0.90008 0.01959 0.45907 0.0
C2467 C 0.91479 0.01678 0.47967 0.0
C2468 C 0.876 0.02708 0.46114 0.0
C2469 C 0.86609 0.03219 0.48387 0.0
C2470 C 0.88022 0.02766 0.5046 0.0
C2471 C 0.90433 0.01984 0.50253 0.0
H2472 H 0.67207 0.05576 0.2449 0.0
H2473 H 0.60894 0.10169 0.24647 0.0
H2474 H 0.69866 0.0918 0.24715 0.0
H2475 H 0.63564 0.13792 0.24975 0.0
H2476 H 0.69357 0.19792 0.22913 0.0
H2477 H 0.66429 0.1633 0.2279 0.0
H2478 H 0.71168 0.12215 0.27453 0.0
H2479 H 0.74099 0.15597 0.27481 0.0
C2480 C 0.66386 0.07356 0.24607 0.0
C2481 C 0.63841 0.07584 0.2456 0.0
C2482 C 0.67911 0.09428 0.24748 0.0
C2483 C 0.66931 0.11783 0.24885 0.0
C2484 C 0.64381 0.12012 0.24846 0.0
C2485 C 0.62852 0.09934 0.24675 0.0
C2486 C 0.69753 0.18145 0.23914 0.0
C2487 C 0.7197 0.1794 0.25165 0.0
C2488 C 0.68077 0.16167 0.23855 0.0
C2489 C 0.68585 0.13971 0.25074 0.0
C2490 C 0.7075 0.13838 0.26426 0.0
C2491 C 0.72427 0.15786 0.26453 0.0
H2492 H 0.67115 0.89026 0.02137 0.0
H2493 H 0.69201 0.95616 0.98285 0.0
H2494 H 0.62892 0.90302 0.02184 0.0
H2495 H 0.64949 0.96875 0.98298 0.0
H2496 H 0.57236 0.9905 0.99048 0.0
H2497 H 0.61298 0.98092 0.00587 0.0
H2498 H 0.59943 0.90465 0.98883 0.0
H2499 H 0.55887 0.91436 0.97398 0.0
C2500 C 0.66678 0.90762 0.01318 0.0
C2501 C 0.6849 0.922 0.00165 0.0
C2502 C 0.64254 0.91492 0.01349 0.0
C2503 C 0.63577 0.93674 0.00223 0.0
C2504 C 0.65412 0.95191 0.99201 0.0
C2505 C 0.67848 0.94462 0.99177 0.0
C2506 C 0.57764 0.97155 0.99132 0.0
C2507 C 0.56236 0.95301 0.98171 0.0
C2508 C 0.60106 0.96612 -0.00035 0.0
C2509 C 0.60954 0.94207 -0.00163 0.0
C2510 C 0.59343 0.92332 0.99038 0.0
C2511 C 0.57015 0.9288 0.98192 0.0
H2512 H 0.31836 0.45522 0.23273 0.0
H2513 H 0.38081 0.41455 0.25601 0.0
H2514 H 0.29251 0.41846 0.23743 0.0
H2515 H 0.35509 0.37833 0.26178 0.0
H2516 H 0.30873 0.31257 0.23166 0.0
H2517 H 0.33537 0.34823 0.2386 0.0
H2518 H 0.27331 0.38919 0.26246 0.0
H2519 H 0.24678 0.35369 0.25435 0.0
C2520 C 0.32646 0.43857 0.23924 0.0
C2521 C 0.35168 0.43775 0.2436 0.0
C2522 C 0.31165 0.41746 0.24215 0.0
C2523 C 0.32166 0.39515 0.24988 0.0
C2524 C 0.34672 0.39484 0.25528 0.0
C2525 C 0.3615 0.41574 0.25203 0.0
C2526 C 0.30108 0.32883 0.23952 0.0
C2527 C 0.27581 0.33034 0.24274 0.0
C2528 C 0.31628 0.34949 0.2433 0.0
C2529 C 0.30647 0.372 0.25054 0.0
C2530 C 0.28148 0.37251 0.25619 0.0
C2531 C 0.26631 0.35199 0.25211 0.0
H2532 H 0.20452 0.58287 -0.00689 0.0
H2533 H 0.15852 0.64611 -0.0079 0.0
H2534 H 0.16841 0.55636 -0.00201 0.0
H2535 H 0.12255 0.61957 -0.00284 0.0
H2536 H 0.06418 0.55759 0.98066 0.0
H2537 H 0.09828 0.58671 0.97566 0.0
H2538 H 0.13836 0.54921 0.03119 0.0
H2539 H 0.10406 0.52049 0.03646 0.0
C2540 C 0.18673 0.59109 -0.00633 0.0
C2541 C 0.18441 0.61659 -0.00764 0.0
C2542 C 0.16609 0.57595 -0.0033 0.0
C2543 C 0.14274 0.58598 -0.00171 0.0
C2544 C 0.14032 0.61136 -0.00402 0.0
C2545 C 0.16095 0.62652 -0.00686 0.0
C2546 C 0.07983 0.55626 -0.00754 0.0
C2547 C 0.08128 0.53712 0.00923 0.0
C2548 C 0.09951 0.57267 0.98936 0.0
C2549 C 0.12108 0.56998 0.00282 0.0
C2550 C 0.12213 0.55141 0.02025 0.0
C2551 C 0.10243 0.53514 0.02342 0.0
H2552 H 0.6819 0.95233 0.23451 0.0
H2553 H 0.65199 0.92757 0.30245 0.0
H2554 H 0.70975 0.91806 0.23458 0.0
H2555 H 0.67892 0.89304 0.30212 0.0
H2556 H 0.73503 0.838 0.30593 0.0
H2557 H 0.71868 0.87904 0.30603 0.0
H2558 H 0.70891 0.87502 0.22871 0.0
H2559 H 0.7266 0.83439 0.22867 0.0
C2560 C 0.68135 0.93966 0.24953 0.0
C2561 C 0.66464 0.94268 0.26845 0.0
C2562 C 0.69724 0.91991 0.2495 0.0
C2563 C 0.69671 0.90265 0.26833 0.0
C2564 C 0.68036 0.90613 0.28751 0.0
C2565 C 0.66467 0.92592 0.28763 0.0
C2566 C 0.7301 0.84628 0.28889 0.0
C2567 C 0.73196 0.83304 0.26732 0.0
C2568 C 0.72041 0.86968 0.28894 0.0
C2569 C 0.71174 0.88018 0.26748 0.0
C2570 C 0.71541 0.86765 0.24561 0.0
C2571 C 0.7256 0.84434 0.24553 0.0
H2572 H 0.83278 0.06429 0.72969 0.0
H2573 H 0.87639 0.10018 0.78472 0.0
H2574 H 0.80774 0.10041 0.72627 0.0
H2575 H 0.85055 0.13567 0.78264 0.0
H2576 H 0.80799 0.2026 0.77143 0.0
H2577 H 0.83735 0.17043 0.7636 0.0
H2578 H 0.77747 0.12082 0.74502 0.0
H2579 H 0.74902 0.15348 0.751 0.0
C2580 C 0.83678 0.0798 0.74132 0.0
C2581 C 0.85643 0.07926 0.75763 0.0
C2582 C 0.82237 0.10061 0.73943 0.0
C2583 C 0.82684 0.12127 0.75422 0.0
C2584 C 0.84665 0.12058 0.77049 0.0
C2585 C 0.86136 0.1 0.77197 0.0
C2586 C 0.80149 0.18523 0.76422 0.0
C2587 C 0.77641 0.18073 0.76102 0.0
C2588 C 0.81817 0.16645 0.76043 0.0
C2589 C 0.80997 0.14259 0.75403 0.0
C2590 C 0.78485 0.13878 0.74955 0.0
C2591 C 0.76838 0.15758 0.75296 0.0
loop_
_geom_bond_atom_site_label_1
_geom_bond_atom_site_label_2
_geom_bond_distance
_geom_bond_site_symmetry_2
_ccdc_geom_bond_type
Zn0 O3 2.031 . S
Zn0 O5 2.049 . S
Zn0 O10 2.067 . S
Zn1 O2 1.962 . S
Zn1 O4 1.986 . S
Zn1 O6 2.006 . S
Zn1 O9 1.943 1_655 S
O2 Zn1 1.962 . S
O2 C7 1.254 1_655 S
O3 Zn0 2.031 . S
O3 C7 1.269 . S
O4 Zn1 1.986 . S
O4 C11 1.262 . S
O5 Zn0 2.049 . S
O5 C13 1.260 . S
O6 Zn1 2.006 . S
O6 C13 1.238 1_655 S
C7 O2 1.254 1_455 S
C7 O3 1.269 . S
C8 O9 1.249 . S
C8 O10 1.270 . S
O9 Zn1 1.943 1_455 S
O9 C8 1.249 . S
O10 Zn0 2.067 . S
O10 C8 1.270 . S
C11 O4 1.262 . S
C11 O12 1.232 . S
O12 C11 1.232 . S
C13 O5 1.260 . S
C13 O6 1.238 1_455 S
Zn14 O17 2.031 . S
Zn14 O19 2.049 . S
Zn14 O24 2.067 . S
Zn15 O16 1.962 . S
Zn15 O18 1.986 . S
Zn15 O20 1.996 . S
Zn15 O23 1.943 1_455 S
O16 Zn15 1.962 . S
O16 C21 1.263 . S
O17 Zn14 2.031 . S
O17 C21 1.260 1_655 S
O18 Zn15 1.986 . S
O18 C25 1.262 . S
O19 Zn14 2.049 . S
O19 C27 1.260 . S
O20 Zn15 1.996 . S
O20 C27 1.257 1_455 S
C21 O16 1.263 . S
C21 O17 1.260 1_455 S
C22 O23 1.249 . S
C22 O24 1.270 . S
O23 Zn15 1.943 1_655 S
O23 C22 1.249 . S
O24 Zn14 2.067 . S
O24 C22 1.270 . S
C25 O18 1.262 . S
C25 O26 1.232 . S
O26 C25 1.232 . S
C27 O19 1.260 . S
C27 O20 1.257 1_655 S
Zn28 O31 2.031 . S
Zn28 O33 2.049 . S
Zn28 O38 2.067 . S
Zn29 O30 1.962 . S
Zn29 O32 1.986 . S
Zn29 O34 1.996 . S
Zn29 O37 1.943 . S
O30 Zn29 1.962 . S
O30 C35 1.254 . S
O31 Zn28 2.031 . S
O31 C35 1.269 . S
O32 Zn29 1.986 . S
O32 C39 1.262 . S
O33 Zn28 2.049 . S
O33 C41 1.260 . S
O34 Zn29 1.996 . S
O34 C41 1.257 . S
C35 O30 1.254 . S
C35 O31 1.269 . S
C36 O37 1.249 . S
C36 O38 1.270 . S
O37 Zn29 1.943 . S
O37 C36 1.249 . S
O38 Zn28 2.067 . S
O38 C36 1.270 . S
C39 O32 1.262 . S
C39 O40 1.232 . S
O40 C39 1.232 . S
C41 O33 1.260 . S
C41 O34 1.257 . S
Zn42 O45 2.031 . S
Zn42 O47 2.049 . S
Zn42 O52 2.067 . S
Zn43 O44 1.962 . S
Zn43 O46 1.986 . S
Zn43 O48 1.996 . S
Zn43 O51 1.943 . S
O44 Zn43 1.962 . S
O44 C49 1.254 . S
O45 Zn42 2.031 . S
O45 C49 1.269 . S
O46 Zn43 1.986 . S
O46 C53 1.262 . S
O47 Zn42 2.049 . S
O47 C55 1.260 . S
O48 Zn43 1.996 . S
O48 C55 1.257 . S
C49 O44 1.254 . S
C49 O45 1.269 . S
C50 O51 1.249 . S
C50 O52 1.270 . S
O51 Zn43 1.943 . S
O51 C50 1.249 . S
O52 Zn42 2.067 . S
O52 C50 1.270 . S
C53 O46 1.262 . S
C53 O54 1.232 . S
O54 C53 1.232 . S
C55 O47 1.260 . S
C55 O48 1.257 . S
Zn56 O59 2.031 . S
Zn56 O61 2.049 . S
Zn56 O66 2.067 . S
Zn57 O58 1.962 . S
Zn57 O60 1.986 . S
Zn57 O62 2.007 . S
Zn57 O65 1.943 1_565 S
O58 Zn57 1.962 . S
O58 C63 1.254 1_565 S
O59 Zn56 2.031 . S
O59 C63 1.269 . S
O60 Zn57 1.986 . S
O60 C67 1.262 . S
O61 Zn56 2.049 . S
O61 C69 1.260 . S
O62 Zn57 2.007 . S
O62 C69 1.235 1_565 S
C63 O58 1.254 1_545 S
C63 O59 1.269 . S
C64 O65 1.249 . S
C64 O66 1.270 . S
O65 Zn57 1.943 1_545 S
O65 C64 1.249 . S
O66 Zn56 2.067 . S
O66 C64 1.270 . S
C67 O60 1.262 . S
C67 O68 1.232 . S
O68 C67 1.232 . S
C69 O61 1.260 . S
C69 O62 1.235 1_545 S
Zn70 O73 2.031 . S
Zn70 O75 2.049 . S
Zn70 O80 2.067 . S
Zn71 O72 1.962 . S
Zn71 O74 1.986 . S
Zn71 O76 1.996 . S
Zn71 O79 1.943 . S
O72 Zn71 1.962 . S
O72 C77 1.254 . S
O73 Zn70 2.031 . S
O73 C77 1.269 . S
O74 Zn71 1.986 . S
O74 C81 1.262 . S
O75 Zn70 2.049 . S
O75 C83 1.260 . S
O76 Zn71 1.996 . S
O76 C83 1.257 . S
C77 O72 1.254 . S
C77 O73 1.269 . S
C78 O79 1.249 . S
C78 O80 1.270 . S
O79 Zn71 1.943 . S
O79 C78 1.249 . S
O80 Zn70 2.067 . S
O80 C78 1.270 . S
C81 O74 1.262 . S
C81 O82 1.232 . S
O82 C81 1.232 . S
C83 O75 1.260 . S
C83 O76 1.257 . S
Zn84 O87 2.031 . S
Zn84 O89 2.049 . S
Zn84 O94 2.067 . S
Zn85 O86 1.962 . S
Zn85 O88 1.986 . S
Zn85 O90 1.996 . S
Zn85 O93 1.943 1_545 S
O86 Zn85 1.962 . S
O86 C91 1.255 . S
O87 Zn84 2.031 . S
O87 C91 1.269 1_565 S
O88 Zn85 1.986 . S
O88 C95 1.262 . S
O89 Zn84 2.049 . S
O89 C97 1.260 . S
O90 Zn85 1.996 . S
O90 C97 1.257 1_545 S
C91 O86 1.255 . S
C91 O87 1.269 1_545 S
C92 O93 1.249 . S
C92 O94 1.270 . S
O93 Zn85 1.943 1_565 S
O93 C92 1.249 . S
O94 Zn84 2.067 . S
O94 C92 1.270 . S
C95 O88 1.262 . S
C95 O96 1.232 . S
O96 C95 1.232 . S
C97 O89 1.260 . S
C97 O90 1.257 1_565 S
Zn98 O101 2.031 1_554 S
Zn98 O103 2.049 . S
Zn98 O108 2.067 . S
Zn99 O100 1.962 1_554 S
Zn99 O102 1.986 . S
Zn99 O104 1.996 . S
Zn99 O107 1.943 . S
O100 Zn99 1.962 1_556 S
O100 C105 1.254 . S
O101 Zn98 2.031 1_556 S
O101 C105 1.269 . S
O102 Zn99 1.986 . S
O102 C109 1.262 . S
O103 Zn98 2.049 . S
O103 C111 1.260 . S
O104 Zn99 1.996 . S
O104 C111 1.257 . S
C105 O100 1.254 . S
C105 O101 1.269 . S
C106 O107 1.249 . S
C106 O108 1.270 . S
O107 Zn99 1.943 . S
O107 C106 1.249 . S
O108 Zn98 2.067 . S
O108 C106 1.270 . S
C109 O102 1.262 . S
C109 O110 1.232 1_554 S
O110 C109 1.232 1_556 S
C111 O103 1.260 . S
C111 O104 1.257 . S
Zn112 O115 2.031 1_554 S
Zn112 O117 2.049 . S
Zn112 O122 2.067 . S
Zn113 O114 1.962 1_554 S
Zn113 O116 1.986 . S
Zn113 O118 1.996 . S
Zn113 O121 1.943 . S
O114 Zn113 1.962 1_556 S
O114 C119 1.254 . S
O115 Zn112 2.031 1_556 S
O115 C119 1.269 . S
O116 Zn113 1.986 . S
O116 C123 1.262 . S
O117 Zn112 2.049 . S
O117 C125 1.260 . S
O118 Zn113 1.996 . S
O118 C125 1.257 . S
C119 O114 1.254 . S
C119 O115 1.269 . S
C120 O121 1.249 . S
C120 O122 1.270 . S
O121 Zn113 1.943 . S
O121 C120 1.249 . S
O122 Zn112 2.067 . S
O122 C120 1.270 . S
C123 O116 1.262 . S
C123 O124 1.232 1_554 S
O124 C123 1.232 1_556 S
C125 O117 1.260 . S
C125 O118 1.257 . S
Zn126 O129 2.031 . S
Zn126 O131 2.049 . S
Zn126 O136 2.067 . S
Zn127 O128 1.962 . S
Zn127 O130 1.986 . S
Zn127 O132 1.996 . S
Zn127 O135 1.943 . S
O128 Zn127 1.962 . S
O128 C133 1.254 . S
O129 Zn126 2.031 . S
O129 C133 1.269 . S
O130 Zn127 1.986 . S
O130 C137 1.262 . S
O131 Zn126 2.049 . S
O131 C139 1.260 . S
O132 Zn127 1.996 . S
O132 C139 1.257 . S
C133 O128 1.254 . S
C133 O129 1.269 . S
C134 O135 1.249 . S
C134 O136 1.270 . S
O135 Zn127 1.943 . S
O135 C134 1.249 . S
O136 Zn126 2.067 . S
O136 C134 1.270 . S
C137 O130 1.262 . S
C137 O138 1.232 . S
O138 C137 1.232 . S
C139 O131 1.260 . S
C139 O132 1.257 . S
Zn140 O143 2.031 . S
Zn140 O145 2.049 . S
Zn140 O150 2.067 . S
Zn141 O142 1.962 . S
Zn141 O144 1.986 . S
Zn141 O146 1.996 . S
Zn141 O149 1.943 . S
O142 Zn141 1.962 . S
O142 C147 1.254 . S
O143 Zn140 2.031 . S
O143 C147 1.269 . S
O144 Zn141 1.986 . S
O144 C151 1.262 . S
O145 Zn140 2.049 . S
O145 C153 1.260 . S
O146 Zn141 1.996 . S
O146 C153 1.257 . S
C147 O142 1.254 . S
C147 O143 1.269 . S
C148 O149 1.249 . S
C148 O150 1.270 . S
O149 Zn141 1.943 . S
O149 C148 1.249 . S
O150 Zn140 2.067 . S
O150 C148 1.270 . S
C151 O144 1.262 . S
C151 O152 1.232 . S
O152 C151 1.232 . S
C153 O145 1.260 . S
C153 O146 1.257 . S
Zn154 O157 2.031 . S
Zn154 O159 2.049 . S
Zn154 O164 2.067 . S
Zn155 O156 1.962 . S
Zn155 O158 1.986 . S
Zn155 O160 1.996 . S
Zn155 O163 1.943 . S
O156 Zn155 1.962 . S
O156 C161 1.254 . S
O157 Zn154 2.031 . S
O157 C161 1.269 . S
O158 Zn155 1.986 . S
O158 C165 1.262 . S
O159 Zn154 2.049 . S
O159 C167 1.260 . S
O160 Zn155 1.996 . S
O160 C167 1.257 . S
C161 O156 1.254 . S
C161 O157 1.269 . S
C162 O163 1.249 . S
C162 O164 1.270 . S
O163 Zn155 1.943 . S
O163 C162 1.249 . S
O164 Zn154 2.067 . S
O164 C162 1.270 . S
C165 O158 1.262 . S
C165 O166 1.232 . S
O166 C165 1.232 . S
C167 O159 1.260 . S
C167 O160 1.257 . S
Zn168 O171 2.031 . S
Zn168 O173 2.049 . S
Zn168 O178 2.067 . S
Zn169 O170 1.962 . S
Zn169 O172 1.986 . S
Zn169 O174 1.996 . S
Zn169 O177 1.943 1_455 S
O170 Zn169 1.962 . S
O170 C175 1.254 . S
O171 Zn168 2.031 . S
O171 C175 1.269 1_655 S
O172 Zn169 1.986 . S
O172 C179 1.262 . S
O173 Zn168 2.049 . S
O173 C181 1.260 . S
O174 Zn169 1.996 . S
O174 C181 1.257 1_455 S
C175 O170 1.254 . S
C175 O171 1.269 1_455 S
C176 O177 1.249 . S
C176 O178 1.270 . S
O177 Zn169 1.943 1_655 S
O177 C176 1.249 . S
O178 Zn168 2.067 . S
O178 C176 1.270 . S
C179 O172 1.262 . S
C179 O180 1.232 . S
O180 C179 1.232 . S
C181 O173 1.260 . S
C181 O174 1.257 1_655 S
Zn182 O185 2.031 . S
Zn182 O187 2.049 . S
Zn182 O192 2.067 . S
Zn183 O184 1.962 . S
Zn183 O186 1.986 . S
Zn183 O188 1.995 1_655 S
Zn183 O191 1.943 1_655 S
O184 Zn183 1.962 . S
O184 C189 1.254 1_655 S
O185 Zn182 2.031 . S
O185 C189 1.269 . S
O186 Zn183 1.986 . S
O186 C193 1.262 . S
O187 Zn182 2.049 . S
O187 C195 1.260 . S
O188 Zn183 1.995 1_455 S
O188 C195 1.259 . S
C189 O184 1.254 1_455 S
C189 O185 1.269 . S
C190 O191 1.249 . S
C190 O192 1.270 . S
O191 Zn183 1.943 1_455 S
O191 C190 1.249 . S
O192 Zn182 2.067 . S
O192 C190 1.270 . S
C193 O186 1.262 . S
C193 O194 1.232 . S
O194 C193 1.232 . S
C195 O187 1.260 . S
C195 O188 1.259 . S
Zn196 O199 2.031 . S
Zn196 O201 2.049 . S
Zn196 O206 2.067 . S
Zn197 O198 1.962 . S
Zn197 O200 1.986 . S
Zn197 O202 1.996 . S
Zn197 O205 1.943 . S
O198 Zn197 1.962 . S
O198 C203 1.254 . S
O199 Zn196 2.031 . S
O199 C203 1.269 . S
O200 Zn197 1.986 . S
O200 C207 1.262 . S
O201 Zn196 2.049 . S
O201 C209 1.260 . S
O202 Zn197 1.996 . S
O202 C209 1.257 . S
C203 O198 1.254 . S
C203 O199 1.269 . S
C204 O205 1.249 . S
C204 O206 1.270 . S
O205 Zn197 1.943 . S
O205 C204 1.249 . S
O206 Zn196 2.067 . S
O206 C204 1.270 . S
C207 O200 1.262 . S
C207 O208 1.232 . S
O208 C207 1.232 . S
C209 O201 1.260 . S
C209 O202 1.257 . S
Zn210 O213 2.031 . S
Zn210 O215 2.049 . S
Zn210 O220 2.067 . S
Zn211 O212 1.962 . S
Zn211 O214 1.986 . S
Zn211 O216 1.996 . S
Zn211 O219 1.943 . S
O212 Zn211 1.962 . S
O212 C217 1.254 . S
O213 Zn210 2.031 . S
O213 C217 1.269 . S
O214 Zn211 1.986 . S
O214 C221 1.262 . S
O215 Zn210 2.049 . S
O215 C223 1.260 . S
O216 Zn211 1.996 . S
O216 C223 1.257 . S
C217 O212 1.254 . S
C217 O213 1.269 . S
C218 O219 1.249 . S
C218 O220 1.270 . S
O219 Zn211 1.943 . S
O219 C218 1.249 . S
O220 Zn210 2.067 . S
O220 C218 1.270 . S
C221 O214 1.262 . S
C221 O222 1.232 . S
O222 C221 1.232 . S
C223 O215 1.260 . S
C223 O216 1.257 . S
Zn224 O227 2.031 . S
Zn224 O229 2.049 . S
Zn224 O234 2.067 . S
Zn225 O226 1.962 . S
Zn225 O228 1.986 . S
Zn225 O230 1.996 . S
Zn225 O233 1.943 1_545 S
O226 Zn225 1.962 . S
O226 C231 1.254 1_545 S
O227 Zn224 2.031 . S
O227 C231 1.269 . S
O228 Zn225 1.986 . S
O228 C235 1.262 . S
O229 Zn224 2.049 . S
O229 C237 1.260 . S
O230 Zn225 1.996 . S
O230 C237 1.257 1_545 S
C231 O226 1.254 1_565 S
C231 O227 1.269 . S
C232 O233 1.249 . S
C232 O234 1.270 . S
O233 Zn225 1.943 1_565 S
O233 C232 1.249 . S
O234 Zn224 2.067 . S
O234 C232 1.270 . S
C235 O228 1.262 . S
C235 O236 1.232 . S
O236 C235 1.232 . S
C237 O229 1.260 . S
C237 O230 1.257 1_565 S
Zn238 O241 2.031 . S
Zn238 O243 2.049 . S
Zn238 O248 2.067 . S
Zn239 O240 1.962 . S
Zn239 O242 1.986 . S
Zn239 O244 1.996 . S
Zn239 O247 1.943 . S
O240 Zn239 1.962 . S
O240 C245 1.254 . S
O241 Zn238 2.031 . S
O241 C245 1.269 . S
O242 Zn239 1.986 . S
O242 C249 1.262 . S
O243 Zn238 2.049 . S
O243 C251 1.260 . S
O244 Zn239 1.996 . S
O244 C251 1.257 . S
C245 O240 1.254 . S
C245 O241 1.269 . S
C246 O247 1.249 . S
C246 O248 1.270 . S
O247 Zn239 1.943 . S
O247 C246 1.249 . S
O248 Zn238 2.067 . S
O248 C246 1.270 . S
C249 O242 1.262 . S
C249 O250 1.232 . S
O250 C249 1.232 . S
C251 O243 1.260 . S
C251 O244 1.257 . S
Zn252 O255 2.031 . S
Zn252 O257 2.049 . S
Zn252 O262 2.067 . S
Zn253 O254 1.962 . S
Zn253 O256 1.986 . S
Zn253 O258 1.994 1_565 S
Zn253 O261 1.943 1_565 S
O254 Zn253 1.962 . S
O254 C259 1.254 1_565 S
O255 Zn252 2.031 . S
O255 C259 1.269 . S
O256 Zn253 1.986 . S
O256 C263 1.262 . S
O257 Zn252 2.049 . S
O257 C265 1.260 . S
O258 Zn253 1.994 1_545 S
O258 C265 1.260 . S
C259 O254 1.254 1_545 S
C259 O255 1.269 . S
C260 O261 1.249 . S
C260 O262 1.270 . S
O261 Zn253 1.943 1_545 S
O261 C260 1.249 . S
O262 Zn252 2.067 . S
O262 C260 1.270 . S
C263 O256 1.262 . S
C263 O264 1.232 . S
O264 C263 1.232 . S
C265 O257 1.260 . S
C265 O258 1.260 . S
Zn266 O269 2.031 1_554 S
Zn266 O271 2.049 . S
Zn266 O276 2.067 . S
Zn267 O268 1.962 1_554 S
Zn267 O270 1.986 . S
Zn267 O272 1.996 . S
Zn267 O275 1.943 . S
O268 Zn267 1.962 1_556 S
O268 C273 1.254 . S
O269 Zn266 2.031 1_556 S
O269 C273 1.269 . S
O270 Zn267 1.986 . S
O270 C277 1.262 . S
O271 Zn266 2.049 . S
O271 C279 1.260 . S
O272 Zn267 1.996 . S
O272 C279 1.257 . S
C273 O268 1.254 . S
C273 O269 1.269 . S
C274 O275 1.249 . S
C274 O276 1.270 . S
O275 Zn267 1.943 . S
O275 C274 1.249 . S
O276 Zn266 2.067 . S
O276 C274 1.270 . S
C277 O270 1.262 . S
C277 O278 1.232 1_554 S
O278 C277 1.232 1_556 S
C279 O271 1.260 . S
C279 O272 1.257 . S
Zn280 O283 2.031 1_554 S
Zn280 O285 2.049 . S
Zn280 O290 2.067 . S
Zn281 O282 1.934 1_554 S
Zn281 O284 2.001 . S
Zn281 O286 2.019 . S
Zn281 O289 1.945 . S
O282 Zn281 1.934 1_556 S
O282 C287 1.254 . S
O283 Zn280 2.031 1_556 S
O283 C287 1.269 . S
O284 Zn281 2.001 . S
O284 C291 1.289 . S
O285 Zn280 2.049 . S
O285 C293 1.260 . S
O286 Zn281 2.019 . S
O286 C293 1.257 . S
C287 O282 1.254 . S
C287 O283 1.269 . S
C288 O289 1.249 . S
C288 O290 1.270 . S
O289 Zn281 1.945 . S
O289 C288 1.249 . S
O290 Zn280 2.067 . S
O290 C288 1.270 . S
C291 O284 1.289 . S
C291 O292 1.199 1_554 S
O292 C291 1.199 1_556 S
C293 O285 1.260 . S
C293 O286 1.257 . S
Zn294 O297 2.031 . S
Zn294 O299 2.049 . S
Zn294 O304 2.067 . S
Zn295 O296 1.962 . S
Zn295 O298 1.986 . S
Zn295 O300 1.996 . S
Zn295 O303 1.943 . S
O296 Zn295 1.962 . S
O296 C301 1.254 . S
O297 Zn294 2.031 . S
O297 C301 1.269 . S
O298 Zn295 1.986 . S
O298 C305 1.262 . S
O299 Zn294 2.049 . S
O299 C307 1.260 . S
O300 Zn295 1.996 . S
O300 C307 1.257 . S
C301 O296 1.254 . S
C301 O297 1.269 . S
C302 O303 1.249 . S
C302 O304 1.270 . S
O303 Zn295 1.943 . S
O303 C302 1.249 . S
O304 Zn294 2.067 . S
O304 C302 1.270 . S
C305 O298 1.262 . S
C305 O306 1.232 . S
O306 C305 1.232 . S
C307 O299 1.260 . S
C307 O300 1.257 . S
Zn308 O311 2.031 . S
Zn308 O313 2.049 . S
Zn308 O318 2.067 . S
Zn309 O310 1.962 . S
Zn309 O312 1.986 . S
Zn309 O314 1.996 . S
Zn309 O317 1.943 . S
O310 Zn309 1.962 . S
O310 C315 1.254 . S
O311 Zn308 2.031 . S
O311 C315 1.269 . S
O312 Zn309 1.986 . S
O312 C319 1.262 . S
O313 Zn308 2.049 . S
O313 C321 1.260 . S
O314 Zn309 1.996 . S
O314 C321 1.257 . S
C315 O310 1.254 . S
C315 O311 1.269 . S
C316 O317 1.249 . S
C316 O318 1.270 . S
O317 Zn309 1.943 . S
O317 C316 1.249 . S
O318 Zn308 2.067 . S
O318 C316 1.270 . S
C319 O312 1.262 . S
C319 O320 1.232 . S
O320 C319 1.232 . S
C321 O313 1.260 . S
C321 O314 1.257 . S
Zn322 O325 2.031 . S
Zn322 O327 2.049 . S
Zn322 O332 2.067 . S
Zn323 O324 1.962 . S
Zn323 O326 1.986 . S
Zn323 O328 1.996 . S
Zn323 O331 1.943 . S
O324 Zn323 1.962 . S
O324 C329 1.254 . S
O325 Zn322 2.031 . S
O325 C329 1.269 . S
O326 Zn323 1.986 . S
O326 C333 1.262 . S
O327 Zn322 2.049 . S
O327 C335 1.260 . S
O328 Zn323 1.996 . S
O328 C335 1.257 . S
C329 O324 1.254 . S
C329 O325 1.269 . S
C330 O331 1.249 . S
C330 O332 1.270 . S
O331 Zn323 1.943 . S
O331 C330 1.249 . S
O332 Zn322 2.067 . S
O332 C330 1.270 . S
C333 O326 1.262 . S
C333 O334 1.232 . S
O334 C333 1.232 . S
C335 O327 1.260 . S
C335 O328 1.257 . S
O336 Mn337 2.186 1_556 S
O336 C350 1.246 . S
Mn337 O336 2.186 1_554 S
Mn337 O340 2.139 1_445 S
Mn337 O341 2.258 1_455 S
Mn337 O343 2.164 1_454 S
Mn337 O345 2.154 1_545 S
Mn337 O355 2.183 1_544 S
O338 Mn339 2.087 1_556 S
O338 C350 1.256 1_565 S
Mn339 O338 2.087 1_554 S
Mn339 O346 2.089 . S
Mn339 O355 2.290 1_554 S
Mn339 O356 2.251 1_554 S
O340 Mn337 2.139 1_665 S
O340 C351 1.239 . S
O341 Mn337 2.258 1_655 S
O341 Mn342 2.290 1_554 S
O341 C352 1.278 . S
Mn342 O341 2.290 1_556 S
Mn342 O344 2.088 1_556 S
Mn342 O347 2.251 1_556 S
Mn342 O348 2.087 . S
O343 Mn337 2.164 1_656 S
O343 C353 1.244 . S
O344 Mn342 2.088 1_554 S
O344 C351 1.259 1_545 S
O345 Mn337 2.154 1_565 S
O345 C354 1.239 . S
O346 Mn339 2.089 . S
O346 C354 1.256 . S
O347 Mn342 2.251 1_554 S
O347 C352 1.241 . S
O348 Mn342 2.087 . S
O348 C353 1.256 . S
C349 O355 1.278 . S
C349 O356 1.241 . S
C350 O336 1.246 . S
C350 O338 1.256 1_545 S
C351 O340 1.239 . S
C351 O344 1.259 1_565 S
C352 O341 1.278 . S
C352 O347 1.241 . S
C353 O343 1.244 . S
C353 O348 1.256 . S
C354 O345 1.239 . S
C354 O346 1.256 . S
O355 Mn337 2.183 1_566 S
O355 Mn339 2.290 1_556 S
O355 C349 1.278 . S
O356 Mn339 2.251 1_556 S
O356 C349 1.241 . S
O357 Mn358 2.163 . S
O357 C371 1.244 . S
Mn358 O357 2.163 . S
Mn358 O361 2.160 . S
Mn358 O362 2.221 . S
Mn358 O364 2.163 . S
Mn358 O366 2.160 . S
Mn358 O376 2.221 . S
O359 Mn360 2.087 . S
O359 C371 1.256 . S
Mn360 O359 2.087 . S
Mn360 O367 2.089 . S
Mn360 O376 2.290 . S
Mn360 O377 2.251 . S
O361 Mn358 2.160 . S
O361 C372 1.239 . S
O362 Mn358 2.221 . S
O362 Mn363 2.290 . S
O362 C373 1.278 . S
Mn363 O362 2.290 . S
Mn363 O365 2.089 . S
Mn363 O368 2.251 . S
Mn363 O369 2.087 . S
O364 Mn358 2.163 . S
O364 C374 1.244 . S
O365 Mn363 2.089 . S
O365 C372 1.256 . S
O366 Mn358 2.160 . S
O366 C375 1.239 . S
O367 Mn360 2.089 . S
O367 C375 1.256 . S
O368 Mn363 2.251 . S
O368 C373 1.241 . S
O369 Mn363 2.087 . S
O369 C374 1.256 . S
C370 O376 1.278 . S
C370 O377 1.241 . S
C371 O357 1.244 . S
C371 O359 1.256 . S
C372 O361 1.239 . S
C372 O365 1.256 . S
C373 O362 1.278 . S
C373 O368 1.241 . S
C374 O364 1.244 . S
C374 O369 1.256 . S
C375 O366 1.239 . S
C375 O367 1.256 . S
O376 Mn358 2.221 . S
O376 Mn360 2.290 . S
O376 C370 1.278 . S
O377 Mn360 2.251 . S
O377 C370 1.241 . S
O378 Mn379 2.163 1_565 S
O378 C392 1.244 . S
Mn379 O378 2.163 1_545 S
Mn379 O382 2.160 . S
Mn379 O383 2.221 1_545 S
Mn379 O385 2.163 . S
Mn379 O387 2.160 . S
Mn379 O397 2.221 . S
O380 Mn381 2.087 . S
O380 C392 1.256 1_545 S
Mn381 O380 2.087 . S
Mn381 O388 2.089 . S
Mn381 O397 2.290 . S
Mn381 O398 2.251 . S
O382 Mn379 2.160 . S
O382 C393 1.239 . S
O383 Mn379 2.221 1_565 S
O383 Mn384 2.290 . S
O383 C394 1.278 . S
Mn384 O383 2.290 . S
Mn384 O386 2.089 1_565 S
Mn384 O389 2.251 . S
Mn384 O390 2.087 . S
O385 Mn379 2.163 . S
O385 C395 1.244 1_545 S
O386 Mn384 2.089 1_545 S
O386 C393 1.256 . S
O387 Mn379 2.160 . S
O387 C396 1.239 . S
O388 Mn381 2.089 . S
O388 C396 1.256 . S
O389 Mn384 2.251 . S
O389 C394 1.241 . S
O390 Mn384 2.087 . S
O390 C395 1.256 . S
C391 O397 1.278 . S
C391 O398 1.241 . S
C392 O378 1.244 . S
C392 O380 1.256 1_565 S
C393 O382 1.239 . S
C393 O386 1.256 . S
C394 O383 1.278 . S
C394 O389 1.241 . S
C395 O385 1.244 1_565 S
C395 O390 1.256 . S
C396 O387 1.239 . S
C396 O388 1.256 . S
O397 Mn379 2.221 . S
O397 Mn381 2.290 . S
O397 C391 1.278 . S
O398 Mn381 2.251 . S
O398 C391 1.241 . S
O399 Mn400 2.163 . S
O399 C413 1.244 . S
Mn400 O399 2.163 . S
Mn400 O403 2.160 . S
Mn400 O404 2.221 . S
Mn400 O406 2.163 . S
Mn400 O408 2.160 . S
Mn400 O418 2.221 . S
O401 Mn402 2.087 . S
O401 C413 1.256 . S
Mn402 O401 2.087 . S
Mn402 O409 2.089 . S
Mn402 O418 2.290 . S
Mn402 O419 2.251 . S
O403 Mn400 2.160 . S
O403 C414 1.239 . S
O404 Mn400 2.221 . S
O404 Mn405 2.290 . S
O404 C415 1.278 . S
Mn405 O404 2.290 . S
Mn405 O407 2.089 . S
Mn405 O410 2.251 . S
Mn405 O411 2.087 . S
O406 Mn400 2.163 . S
O406 C416 1.244 . S
O407 Mn405 2.089 . S
O407 C414 1.256 . S
O408 Mn400 2.160 . S
O408 C417 1.239 . S
O409 Mn402 2.089 . S
O409 C417 1.256 . S
O410 Mn405 2.251 . S
O410 C415 1.241 . S
O411 Mn405 2.087 . S
O411 C416 1.256 . S
C412 O418 1.278 . S
C412 O419 1.241 . S
C413 O399 1.244 . S
C413 O401 1.256 . S
C414 O403 1.239 . S
C414 O407 1.256 . S
C415 O404 1.278 . S
C415 O410 1.241 . S
C416 O406 1.244 . S
C416 O411 1.256 . S
C417 O408 1.239 . S
C417 O409 1.256 . S
O418 Mn400 2.221 . S
O418 Mn402 2.290 . S
O418 C412 1.278 . S
O419 Mn402 2.251 . S
O419 C412 1.241 . S
O420 Mn421 2.163 1_665 S
O420 C434 1.244 . S
Mn421 O420 2.163 1_445 S
Mn421 O424 2.160 . S
Mn421 O425 2.221 . S
Mn421 O427 2.163 1_455 S
Mn421 O429 2.160 1_545 S
Mn421 O439 2.221 1_445 S
O422 Mn423 2.087 1_655 S
O422 C434 1.256 . S
Mn423 O422 2.087 1_455 S
Mn423 O430 2.089 . S
Mn423 O439 2.290 1_455 S
Mn423 O440 2.251 1_455 S
O424 Mn421 2.160 . S
O424 C435 1.239 . S
O425 Mn421 2.221 . S
O425 Mn426 2.290 1_455 S
O425 C436 1.278 . S
Mn426 O425 2.290 1_655 S
Mn426 O428 2.089 1_655 S
Mn426 O431 2.251 1_655 S
Mn426 O432 2.087 . S
O427 Mn421 2.163 1_655 S
O427 C437 1.244 . S
O428 Mn426 2.089 1_455 S
O428 C435 1.256 . S
O429 Mn421 2.160 1_565 S
O429 C438 1.239 . S
O430 Mn423 2.089 . S
O430 C438 1.256 . S
O431 Mn426 2.251 1_455 S
O431 C436 1.241 . S
O432 Mn426 2.087 . S
O432 C437 1.256 . S
C433 O439 1.278 . S
C433 O440 1.241 . S
C434 O420 1.244 . S
C434 O422 1.256 . S
C435 O424 1.239 . S
C435 O428 1.256 . S
C436 O425 1.278 . S
C436 O431 1.241 . S
C437 O427 1.244 . S
C437 O432 1.256 . S
C438 O429 1.239 . S
C438 O430 1.256 . S
O439 Mn421 2.221 1_665 S
O439 Mn423 2.290 1_655 S
O439 C433 1.278 . S
O440 Mn423 2.251 1_655 S
O440 C433 1.241 . S
O441 Mn442 2.163 . S
O441 C455 1.244 . S
Mn442 O441 2.163 . S
Mn442 O445 2.160 . S
Mn442 O446 2.221 . S
Mn442 O448 2.163 . S
Mn442 O450 2.160 . S
Mn442 O460 2.221 . S
O443 Mn444 2.087 . S
O443 C455 1.256 . S
Mn444 O443 2.087 . S
Mn444 O451 2.089 . S
Mn444 O460 2.290 . S
Mn444 O461 2.251 . S
O445 Mn442 2.160 . S
O445 C456 1.239 . S
O446 Mn442 2.221 . S
O446 Mn447 2.290 . S
O446 C457 1.278 . S
Mn447 O446 2.290 . S
Mn447 O449 2.089 . S
Mn447 O452 2.251 . S
Mn447 O453 2.087 . S
O448 Mn442 2.163 . S
O448 C458 1.244 . S
O449 Mn447 2.089 . S
O449 C456 1.256 . S
O450 Mn442 2.160 . S
O450 C459 1.239 . S
O451 Mn444 2.089 . S
O451 C459 1.256 . S
O452 Mn447 2.251 . S
O452 C457 1.241 . S
O453 Mn447 2.087 . S
O453 C458 1.256 . S
C454 O460 1.278 . S
C454 O461 1.241 . S
C455 O441 1.244 . S
C455 O443 1.256 . S
C456 O445 1.239 . S
C456 O449 1.256 . S
C457 O446 1.278 . S
C457 O452 1.241 . S
C458 O448 1.244 . S
C458 O453 1.256 . S
C459 O450 1.239 . S
C459 O451 1.256 . S
O460 Mn442 2.221 . S
O460 Mn444 2.290 . S
O460 C454 1.278 . S
O461 Mn444 2.251 . S
O461 C454 1.241 . S
O462 Mn463 2.163 1_566 S
O462 C476 1.244 . S
Mn463 O462 2.163 1_544 S
Mn463 O466 2.160 . S
Mn463 O467 2.221 . S
Mn463 O469 2.163 1_545 S
Mn463 O471 2.160 1_554 S
Mn463 O481 2.221 1_544 S
O464 Mn465 2.087 1_565 S
O464 C476 1.256 . S
Mn465 O464 2.087 1_545 S
Mn465 O472 2.089 . S
Mn465 O481 2.290 1_545 S
Mn465 O482 2.251 1_545 S
O466 Mn463 2.160 . S
O466 C477 1.239 . S
O467 Mn463 2.221 . S
O467 Mn468 2.290 1_545 S
O467 C478 1.278 . S
Mn468 O467 2.290 1_565 S
Mn468 O470 2.087 1_565 S
Mn468 O473 2.251 1_565 S
Mn468 O474 2.087 . S
O469 Mn463 2.163 1_565 S
O469 C479 1.244 . S
O470 Mn468 2.087 1_545 S
O470 C477 1.263 . S
O471 Mn463 2.160 1_556 S
O471 C480 1.239 . S
O472 Mn465 2.089 . S
O472 C480 1.256 . S
O473 Mn468 2.251 1_545 S
O473 C478 1.241 . S
O474 Mn468 2.087 . S
O474 C479 1.256 . S
C475 O481 1.278 . S
C475 O482 1.241 . S
C476 O462 1.244 . S
C476 O464 1.256 . S
C477 O466 1.239 . S
C477 O470 1.263 . S
C478 O467 1.278 . S
C478 O473 1.241 . S
C479 O469 1.244 . S
C479 O474 1.256 . S
C480 O471 1.239 . S
C480 O472 1.256 . S
O481 Mn463 2.221 1_566 S
O481 Mn465 2.290 1_565 S
O481 C475 1.278 . S
O482 Mn465 2.251 1_565 S
O482 C475 1.241 . S
O483 Mn484 2.163 . S
O483 C497 1.244 . S
Mn484 O483 2.163 . S
Mn484 O487 2.160 . S
Mn484 O488 2.221 . S
Mn484 O490 2.163 . S
Mn484 O492 2.160 . S
Mn484 O502 2.221 . S
O485 Mn486 2.087 . S
O485 C497 1.256 . S
Mn486 O485 2.087 . S
Mn486 O493 2.089 . S
Mn486 O502 2.290 . S
Mn486 O503 2.251 . S
O487 Mn484 2.160 . S
O487 C498 1.239 . S
O488 Mn484 2.221 . S
O488 Mn489 2.290 . S
O488 C499 1.278 . S
Mn489 O488 2.290 . S
Mn489 O491 2.089 . S
Mn489 O494 2.251 . S
Mn489 O495 2.087 . S
O490 Mn484 2.163 . S
O490 C500 1.244 . S
O491 Mn489 2.089 . S
O491 C498 1.256 . S
O492 Mn484 2.160 . S
O492 C501 1.239 . S
O493 Mn486 2.089 . S
O493 C501 1.256 . S
O494 Mn489 2.251 . S
O494 C499 1.241 . S
O495 Mn489 2.087 . S
O495 C500 1.256 . S
C496 O502 1.278 . S
C496 O503 1.241 . S
C497 O483 1.244 . S
C497 O485 1.256 . S
C498 O487 1.239 . S
C498 O491 1.256 . S
C499 O488 1.278 . S
C499 O494 1.241 . S
C500 O490 1.244 . S
C500 O495 1.256 . S
C501 O492 1.239 . S
C501 O493 1.256 . S
O502 Mn484 2.221 . S
O502 Mn486 2.290 . S
O502 C496 1.278 . S
O503 Mn486 2.251 . S
O503 C496 1.241 . S
O504 Mn505 2.163 1_556 S
O504 C518 1.244 . S
Mn505 O504 2.163 1_554 S
Mn505 O508 2.160 . S
Mn505 O509 2.221 1_554 S
Mn505 O511 2.163 . S
Mn505 O513 2.160 . S
Mn505 O523 2.221 . S
O506 Mn507 2.087 . S
O506 C518 1.256 1_554 S
Mn507 O506 2.087 . S
Mn507 O514 2.089 . S
Mn507 O523 2.290 . S
Mn507 O524 2.251 . S
O508 Mn505 2.160 . S
O508 C519 1.239 . S
O509 Mn505 2.221 1_556 S
O509 Mn510 2.290 . S
O509 C520 1.278 . S
Mn510 O509 2.290 . S
Mn510 O512 2.089 1_556 S
Mn510 O515 2.251 . S
Mn510 O516 2.087 . S
O511 Mn505 2.163 . S
O511 C521 1.244 1_554 S
O512 Mn510 2.089 1_554 S
O512 C519 1.256 . S
O513 Mn505 2.160 . S
O513 C522 1.239 . S
O514 Mn507 2.089 . S
O514 C522 1.256 . S
O515 Mn510 2.251 . S
O515 C520 1.241 . S
O516 Mn510 2.087 . S
O516 C521 1.256 . S
C517 O523 1.278 . S
C517 O524 1.241 . S
C518 O504 1.244 . S
C518 O506 1.256 1_556 S
C519 O508 1.239 . S
C519 O512 1.256 . S
C520 O509 1.278 . S
C520 O515 1.241 . S
C521 O511 1.244 1_556 S
C521 O516 1.256 . S
C522 O513 1.239 . S
C522 O514 1.256 . S
O523 Mn505 2.221 . S
O523 Mn507 2.290 . S
O523 C517 1.278 . S
O524 Mn507 2.251 . S
O524 C517 1.241 . S
O525 Mn526 2.163 . S
O525 C539 1.244 . S
Mn526 O525 2.163 . S
Mn526 O529 2.160 . S
Mn526 O530 2.221 . S
Mn526 O532 2.163 . S
Mn526 O534 2.160 . S
Mn526 O544 2.221 . S
O527 Mn528 2.087 . S
O527 C539 1.256 . S
Mn528 O527 2.087 . S
Mn528 O535 2.089 . S
Mn528 O544 2.290 . S
Mn528 O545 2.251 . S
O529 Mn526 2.160 . S
O529 C540 1.239 . S
O530 Mn526 2.221 . S
O530 Mn531 2.290 . S
O530 C541 1.278 . S
Mn531 O530 2.290 . S
Mn531 O533 2.089 . S
Mn531 O536 2.251 . S
Mn531 O537 2.087 . S
O532 Mn526 2.163 . S
O532 C542 1.244 . S
O533 Mn531 2.089 . S
O533 C540 1.256 . S
O534 Mn526 2.160 . S
O534 C543 1.239 . S
O535 Mn528 2.089 . S
O535 C543 1.256 . S
O536 Mn531 2.251 . S
O536 C541 1.241 . S
O537 Mn531 2.087 . S
O537 C542 1.256 . S
C538 O544 1.278 . S
C538 O545 1.241 . S
C539 O525 1.244 . S
C539 O527 1.256 . S
C540 O529 1.239 . S
C540 O533 1.256 . S
C541 O530 1.278 . S
C541 O536 1.241 . S
C542 O532 1.244 . S
C542 O537 1.256 . S
C543 O534 1.239 . S
C543 O535 1.256 . S
O544 Mn526 2.221 . S
O544 Mn528 2.290 . S
O544 C538 1.278 . S
O545 Mn528 2.251 . S
O545 C538 1.241 . S
O546 Mn547 2.163 1_655 S
O546 C560 1.244 . S
Mn547 O546 2.163 1_455 S
Mn547 O550 2.160 . S
Mn547 O551 2.221 1_455 S
Mn547 O553 2.164 . S
Mn547 O555 2.160 . S
Mn547 O565 2.221 . S
O548 Mn549 2.087 . S
O548 C560 1.256 1_455 S
Mn549 O548 2.087 . S
Mn549 O556 2.089 . S
Mn549 O565 2.290 . S
Mn549 O566 2.251 . S
O550 Mn547 2.160 . S
O550 C561 1.239 . S
O551 Mn547 2.221 1_655 S
O551 Mn552 2.290 . S
O551 C562 1.278 . S
Mn552 O551 2.290 . S
Mn552 O554 2.077 1_655 S
Mn552 O557 2.251 . S
Mn552 O558 2.087 . S
O553 Mn547 2.164 . S
O553 C563 1.224 1_455 S
O554 Mn552 2.077 1_455 S
O554 C561 1.265 . S
O555 Mn547 2.160 . S
O555 C564 1.239 . S
O556 Mn549 2.089 . S
O556 C564 1.256 . S
O557 Mn552 2.251 . S
O557 C562 1.241 . S
O558 Mn552 2.087 . S
O558 C563 1.256 . S
C559 O565 1.278 . S
C559 O566 1.241 . S
C560 O546 1.244 . S
C560 O548 1.256 1_655 S
C561 O550 1.239 . S
C561 O554 1.265 . S
C562 O551 1.278 . S
C562 O557 1.241 . S
C563 O553 1.224 1_655 S
C563 O558 1.256 . S
C564 O555 1.239 . S
C564 O556 1.256 . S
O565 Mn547 2.221 . S
O565 Mn549 2.290 . S
O565 C559 1.278 . S
O566 Mn549 2.251 . S
O566 C559 1.241 . S
O567 Mn568 2.163 . S
O567 C581 1.244 . S
Mn568 O567 2.163 . S
Mn568 O571 2.160 . S
Mn568 O572 2.221 . S
Mn568 O574 2.163 . S
Mn568 O576 2.160 . S
Mn568 O586 2.221 . S
O569 Mn570 2.087 . S
O569 C581 1.256 . S
Mn570 O569 2.087 . S
Mn570 O577 2.089 . S
Mn570 O586 2.290 . S
Mn570 O587 2.251 . S
O571 Mn568 2.160 . S
O571 C582 1.239 . S
O572 Mn568 2.221 . S
O572 Mn573 2.290 . S
O572 C583 1.278 . S
Mn573 O572 2.290 . S
Mn573 O575 2.089 . S
Mn573 O578 2.251 . S
Mn573 O579 2.087 . S
O574 Mn568 2.163 . S
O574 C584 1.244 . S
O575 Mn573 2.089 . S
O575 C582 1.256 . S
O576 Mn568 2.160 . S
O576 C585 1.239 . S
O577 Mn570 2.089 . S
O577 C585 1.256 . S
O578 Mn573 2.251 . S
O578 C583 1.241 . S
O579 Mn573 2.087 . S
O579 C584 1.256 . S
C580 O586 1.278 . S
C580 O587 1.241 . S
C581 O567 1.244 . S
C581 O569 1.256 . S
C582 O571 1.239 . S
C582 O575 1.256 . S
C583 O572 1.278 . S
C583 O578 1.241 . S
C584 O574 1.244 . S
C584 O579 1.256 . S
C585 O576 1.239 . S
C585 O577 1.256 . S
O586 Mn568 2.221 . S
O586 Mn570 2.290 . S
O586 C580 1.278 . S
O587 Mn570 2.251 . S
O587 C580 1.241 . S
O588 Mn589 2.163 . S
O588 C602 1.244 . S
Mn589 O588 2.163 . S
Mn589 O592 2.160 . S
Mn589 O593 2.221 . S
Mn589 O595 2.163 . S
Mn589 O597 2.160 . S
Mn589 O607 2.221 . S
O590 Mn591 2.087 . S
O590 C602 1.256 . S
Mn591 O590 2.087 . S
Mn591 O598 2.089 . S
Mn591 O607 2.290 . S
Mn591 O608 2.251 . S
O592 Mn589 2.160 . S
O592 C603 1.239 . S
O593 Mn589 2.221 . S
O593 Mn594 2.290 . S
O593 C604 1.278 . S
Mn594 O593 2.290 . S
Mn594 O596 2.089 . S
Mn594 O599 2.251 . S
Mn594 O600 2.087 . S
O595 Mn589 2.163 . S
O595 C605 1.244 . S
O596 Mn594 2.089 . S
O596 C603 1.256 . S
O597 Mn589 2.160 . S
O597 C606 1.239 . S
O598 Mn591 2.089 . S
O598 C606 1.256 . S
O599 Mn594 2.251 . S
O599 C604 1.241 . S
O600 Mn594 2.087 . S
O600 C605 1.256 . S
C601 O607 1.278 . S
C601 O608 1.241 . S
C602 O588 1.244 . S
C602 O590 1.256 . S
C603 O592 1.239 . S
C603 O596 1.256 . S
C604 O593 1.278 . S
C604 O599 1.241 . S
C605 O595 1.244 . S
C605 O600 1.256 . S
C606 O597 1.239 . S
C606 O598 1.256 . S
O607 Mn589 2.221 . S
O607 Mn591 2.290 . S
O607 C601 1.278 . S
O608 Mn591 2.251 . S
O608 C601 1.241 . S
O609 Mn610 2.163 . S
O609 C623 1.244 . S
Mn610 O609 2.163 . S
Mn610 O613 2.160 . S
Mn610 O614 2.221 . S
Mn610 O616 2.163 . S
Mn610 O618 2.160 . S
Mn610 O628 2.221 . S
O611 Mn612 2.087 . S
O611 C623 1.256 . S
Mn612 O611 2.087 . S
Mn612 O619 2.089 . S
Mn612 O628 2.290 . S
Mn612 O629 2.251 . S
O613 Mn610 2.160 . S
O613 C624 1.239 . S
O614 Mn610 2.221 . S
O614 Mn615 2.290 . S
O614 C625 1.278 . S
Mn615 O614 2.290 . S
Mn615 O617 2.089 . S
Mn615 O620 2.251 . S
Mn615 O621 2.087 . S
O616 Mn610 2.163 . S
O616 C626 1.244 . S
O617 Mn615 2.089 . S
O617 C624 1.256 . S
O618 Mn610 2.160 . S
O618 C627 1.239 . S
O619 Mn612 2.089 . S
O619 C627 1.256 . S
O620 Mn615 2.251 . S
O620 C625 1.241 . S
O621 Mn615 2.087 . S
O621 C626 1.256 . S
C622 O628 1.278 . S
C622 O629 1.241 . S
C623 O609 1.244 . S
C623 O611 1.256 . S
C624 O613 1.239 . S
C624 O617 1.256 . S
C625 O614 1.278 . S
C625 O620 1.241 . S
C626 O616 1.244 . S
C626 O621 1.256 . S
C627 O618 1.239 . S
C627 O619 1.256 . S
O628 Mn610 2.221 . S
O628 Mn612 2.290 . S
O628 C622 1.278 . S
O629 Mn612 2.251 . S
O629 C622 1.241 . S
O630 Mn631 2.163 . S
O630 C644 1.244 . S
Mn631 O630 2.163 . S
Mn631 O634 2.160 . S
Mn631 O635 2.221 . S
Mn631 O637 2.163 . S
Mn631 O639 2.160 . S
Mn631 O649 2.221 . S
O632 Mn633 2.087 . S
O632 C644 1.256 . S
Mn633 O632 2.087 . S
Mn633 O640 2.089 . S
Mn633 O649 2.290 . S
Mn633 O650 2.251 . S
O634 Mn631 2.160 . S
O634 C645 1.239 . S
O635 Mn631 2.221 . S
O635 Mn636 2.290 . S
O635 C646 1.278 . S
Mn636 O635 2.290 . S
Mn636 O638 2.089 . S
Mn636 O641 2.251 . S
Mn636 O642 2.087 . S
O637 Mn631 2.163 . S
O637 C647 1.244 . S
O638 Mn636 2.089 . S
O638 C645 1.256 . S
O639 Mn631 2.160 . S
O639 C648 1.239 . S
O640 Mn633 2.089 . S
O640 C648 1.256 . S
O641 Mn636 2.251 . S
O641 C646 1.241 . S
O642 Mn636 2.087 . S
O642 C647 1.256 . S
C643 O649 1.278 . S
C643 O650 1.241 . S
C644 O630 1.244 . S
C644 O632 1.256 . S
C645 O634 1.239 . S
C645 O638 1.256 . S
C646 O635 1.278 . S
C646 O641 1.241 . S
C647 O637 1.244 . S
C647 O642 1.256 . S
C648 O639 1.239 . S
C648 O640 1.256 . S
O649 Mn631 2.221 . S
O649 Mn633 2.290 . S
O649 C643 1.278 . S
O650 Mn633 2.251 . S
O650 C643 1.241 . S
O651 Mn652 2.160 1_656 S
O651 C665 1.246 . S
Mn652 O651 2.160 1_454 S
Mn652 O655 2.160 . S
Mn652 O656 2.221 . S
Mn652 O658 2.163 1_554 S
Mn652 O660 2.160 1_455 S
Mn652 O670 2.221 1_454 S
O653 Mn654 2.087 1_556 S
O653 C665 1.256 . S
Mn654 O653 2.087 1_554 S
Mn654 O661 2.089 . S
Mn654 O670 2.290 1_554 S
Mn654 O671 2.251 1_554 S
O655 Mn652 2.160 . S
O655 C666 1.239 . S
O656 Mn652 2.221 . S
O656 Mn657 2.290 1_554 S
O656 C667 1.278 . S
Mn657 O656 2.290 1_556 S
Mn657 O659 2.086 1_556 S
Mn657 O662 2.251 1_556 S
Mn657 O663 2.087 . S
O658 Mn652 2.163 1_556 S
O658 C668 1.244 . S
O659 Mn657 2.086 1_554 S
O659 C666 1.265 . S
O660 Mn652 2.160 1_655 S
O660 C669 1.239 . S
O661 Mn654 2.089 . S
O661 C669 1.256 . S
O662 Mn657 2.251 1_554 S
O662 C667 1.241 . S
O663 Mn657 2.087 . S
O663 C668 1.256 . S
C664 O670 1.278 . S
C664 O671 1.241 . S
C665 O651 1.246 . S
C665 O653 1.256 . S
C666 O655 1.239 . S
C666 O659 1.265 . S
C667 O656 1.278 . S
C667 O662 1.241 . S
C668 O658 1.244 . S
C668 O663 1.256 . S
C669 O660 1.239 . S
C669 O661 1.256 . S
O670 Mn652 2.221 1_656 S
O670 Mn654 2.290 1_556 S
O670 C664 1.278 . S
O671 Mn654 2.251 1_556 S
O671 C664 1.241 . S
H672 C680 0.950 . S
H673 C685 0.950 . S
H674 C682 0.950 . S
H675 C684 0.950 . S
H676 C686 0.950 . S
H677 C688 0.950 . S
H678 C690 0.950 . S
H679 C691 0.950 . S
C680 H672 0.950 . S
C680 C681 1.386 1_655 S
C680 C682 1.391 . S
C681 C680 1.386 1_455 S
C681 C685 1.393 . S
C682 H674 0.950 . S
C682 C680 1.391 . S
C682 C683 1.399 1_655 S
C683 C682 1.399 1_455 S
C683 C684 1.400 . S
C683 C689 1.491 1_455 S
C684 H675 0.950 . S
C684 C683 1.400 . S
C684 C685 1.391 . S
C685 H673 0.950 . S
C685 C681 1.393 . S
C685 C684 1.391 . S
C686 H676 0.950 . S
C686 C687 1.386 1_455 S
C686 C688 1.391 . S
C687 C686 1.386 1_655 S
C687 C691 1.393 . S
C688 H677 0.950 . S
C688 C686 1.391 . S
C688 C689 1.400 1_455 S
C689 C683 1.491 1_655 S
C689 C688 1.400 1_655 S
C689 C690 1.398 . S
C690 H678 0.950 . S
C690 C689 1.398 . S
C690 C691 1.391 . S
C691 H679 0.950 . S
C691 C687 1.393 . S
C691 C690 1.391 . S
H692 C700 0.950 . S
H693 C705 0.950 . S
H694 C702 0.950 . S
H695 C704 0.950 . S
H696 C706 0.950 . S
H697 C708 0.950 . S
H698 C710 0.950 . S
H699 C711 0.950 . S
C700 H692 0.950 . S
C700 C701 1.386 . S
C700 C702 1.391 . S
C701 C700 1.386 . S
C701 C705 1.393 . S
C702 H694 0.950 . S
C702 C700 1.391 . S
C702 C703 1.400 . S
C703 C702 1.400 . S
C703 C704 1.398 . S
C703 C709 1.491 . S
C704 H695 0.950 . S
C704 C703 1.398 . S
C704 C705 1.391 . S
C705 H693 0.950 . S
C705 C701 1.393 . S
C705 C704 1.391 . S
C706 H696 0.950 . S
C706 C707 1.386 . S
C706 C708 1.391 . S
C707 C706 1.386 . S
C707 C711 1.393 . S
C708 H697 0.950 . S
C708 C706 1.391 . S
C708 C709 1.400 . S
C709 C703 1.491 . S
C709 C708 1.400 . S
C709 C710 1.398 . S
C710 H698 0.950 . S
C710 C709 1.398 . S
C710 C711 1.391 . S
C711 H699 0.950 . S
C711 C707 1.393 . S
C711 C710 1.391 . S
H712 C720 0.950 . S
H713 C725 0.950 . S
H714 C722 0.950 . S
H715 C724 0.950 . S
H716 C726 0.950 . S
H717 C728 0.950 . S
H718 C730 0.950 . S
H719 C731 0.950 . S
C720 H712 0.950 . S
C720 C721 1.386 . S
C720 C722 1.391 . S
C721 C720 1.386 . S
C721 C725 1.393 . S
C722 H714 0.950 . S
C722 C720 1.391 . S
C722 C723 1.400 . S
C723 C722 1.400 . S
C723 C724 1.398 . S
C723 C729 1.491 . S
C724 H715 0.950 . S
C724 C723 1.398 . S
C724 C725 1.391 . S
C725 H713 0.950 . S
C725 C721 1.393 . S
C725 C724 1.391 . S
C726 H716 0.950 . S
C726 C727 1.386 . S
C726 C728 1.391 . S
C727 C726 1.386 . S
C727 C731 1.393 . S
C728 H717 0.950 . S
C728 C726 1.391 . S
C728 C729 1.400 . S
C729 C723 1.491 . S
C729 C728 1.400 . S
C729 C730 1.398 . S
C730 H718 0.950 . S
C730 C729 1.398 . S
C730 C731 1.391 . S
C731 H719 0.950 . S
C731 C727 1.393 . S
C731 C730 1.391 . S
H732 C740 0.950 . S
H733 C745 0.950 . S
H734 C742 0.950 . S
H735 C744 0.950 . S
H736 C746 0.950 . S
H737 C748 0.950 . S
H738 C750 0.950 . S
H739 C751 0.950 . S
C740 H732 0.950 . S
C740 C741 1.386 . S
C740 C742 1.391 . S
C741 C740 1.386 . S
C741 C745 1.393 . S
C742 H734 0.950 . S
C742 C740 1.391 . S
C742 C743 1.400 . S
C743 C742 1.400 . S
C743 C744 1.398 . S
C743 C749 1.491 . S
C744 H735 0.950 . S
C744 C743 1.398 . S
C744 C745 1.391 . S
C745 H733 0.950 . S
C745 C741 1.393 . S
C745 C744 1.391 . S
C746 H736 0.950 . S
C746 C747 1.386 . S
C746 C748 1.391 . S
C747 C746 1.386 . S
C747 C751 1.393 . S
C748 H737 0.950 . S
C748 C746 1.391 . S
C748 C749 1.400 . S
C749 C743 1.491 . S
C749 C748 1.400 . S
C749 C750 1.398 . S
C750 H738 0.950 . S
C750 C749 1.398 . S
C750 C751 1.391 . S
C751 H739 0.950 . S
C751 C747 1.393 . S
C751 C750 1.391 . S
H752 C760 0.950 . S
H753 C765 0.950 . S
H754 C762 0.950 . S
H755 C764 0.950 . S
H756 C766 0.950 . S
H757 C768 0.950 . S
H758 C770 0.950 . S
H759 C771 0.950 . S
C760 H752 0.950 . S
C760 C761 1.386 . S
C760 C762 1.391 . S
C761 C760 1.386 . S
C761 C765 1.393 1_455 S
C762 H754 0.950 . S
C762 C760 1.391 . S
C762 C763 1.400 1_455 S
C763 C762 1.400 1_655 S
C763 C764 1.398 . S
C763 C769 1.491 . S
C764 H755 0.950 . S
C764 C763 1.398 . S
C764 C765 1.391 . S
C765 H753 0.950 . S
C765 C761 1.393 1_655 S
C765 C764 1.391 . S
C766 H756 0.950 . S
C766 C767 1.386 . S
C766 C768 1.391 . S
C767 C766 1.386 . S
C767 C771 1.393 1_655 S
C768 H757 0.950 . S
C768 C766 1.391 . S
C768 C769 1.400 . S
C769 C763 1.491 . S
C769 C768 1.400 . S
C769 C770 1.398 1_655 S
C770 H758 0.950 . S
C770 C769 1.398 1_455 S
C770 C771 1.391 . S
C771 H759 0.950 . S
C771 C767 1.393 1_455 S
C771 C770 1.391 . S
H772 C780 0.950 . S
H773 C785 0.950 . S
H774 C782 0.950 . S
H775 C784 0.950 . S
H776 C786 0.950 . S
H777 C788 0.950 . S
H778 C790 0.950 . S
H779 C791 0.950 . S
C780 H772 0.950 . S
C780 C781 1.386 . S
C780 C782 1.391 . S
C781 C780 1.386 . S
C781 C785 1.393 . S
C782 H774 0.950 . S
C782 C780 1.391 . S
C782 C783 1.400 . S
C783 C782 1.400 . S
C783 C784 1.398 . S
C783 C789 1.491 . S
C784 H775 0.950 . S
C784 C783 1.398 . S
C784 C785 1.391 . S
C785 H773 0.950 . S
C785 C781 1.393 . S
C785 C784 1.391 . S
C786 H776 0.950 . S
C786 C787 1.386 . S
C786 C788 1.391 . S
C787 C786 1.386 . S
C787 C791 1.393 . S
C788 H777 0.950 . S
C788 C786 1.391 . S
C788 C789 1.400 . S
C789 C783 1.491 . S
C789 C788 1.400 . S
C789 C790 1.398 . S
C790 H778 0.950 . S
C790 C789 1.398 . S
C790 C791 1.391 . S
C791 H779 0.950 . S
C791 C787 1.393 . S
C791 C790 1.391 . S
H792 C800 0.950 . S
H793 C805 0.950 . S
H794 C802 0.950 . S
H795 C804 0.950 . S
H796 C806 0.950 . S
H797 C808 0.950 . S
H798 C810 0.950 . S
H799 C811 0.950 . S
C800 H792 0.950 . S
C800 C801 1.386 . S
C800 C802 1.391 . S
C801 C800 1.386 . S
C801 C805 1.393 . S
C802 H794 0.950 . S
C802 C800 1.391 . S
C802 C803 1.400 . S
C803 C802 1.400 . S
C803 C804 1.398 . S
C803 C809 1.491 . S
C804 H795 0.950 . S
C804 C803 1.398 . S
C804 C805 1.391 . S
C805 H793 0.950 . S
C805 C801 1.393 . S
C805 C804 1.391 . S
C806 H796 0.950 . S
C806 C807 1.386 . S
C806 C808 1.391 . S
C807 C806 1.386 . S
C807 C811 1.393 . S
C808 H797 0.950 . S
C808 C806 1.391 . S
C808 C809 1.400 . S
C809 C803 1.491 . S
C809 C808 1.400 . S
C809 C810 1.398 . S
C810 H798 0.950 . S
C810 C809 1.398 . S
C810 C811 1.391 . S
C811 H799 0.950 . S
C811 C807 1.393 . S
C811 C810 1.391 . S
H812 C820 0.950 . S
H813 C825 0.950 . S
H814 C822 0.950 . S
H815 C824 0.950 . S
H816 C826 0.950 . S
H817 C828 0.950 . S
H818 C830 0.950 . S
H819 C831 0.950 . S
C820 H812 0.950 . S
C820 C821 1.386 . S
C820 C822 1.391 . S
C821 C820 1.386 . S
C821 C825 1.393 . S
C822 H814 0.950 . S
C822 C820 1.391 . S
C822 C823 1.400 . S
C823 C822 1.400 . S
C823 C824 1.398 . S
C823 C829 1.491 . S
C824 H815 0.950 . S
C824 C823 1.398 . S
C824 C825 1.391 . S
C825 H813 0.950 . S
C825 C821 1.393 . S
C825 C824 1.391 . S
C826 H816 0.950 . S
C826 C827 1.386 . S
C826 C828 1.391 . S
C827 C826 1.386 . S
C827 C831 1.393 . S
C828 H817 0.950 . S
C828 C826 1.391 . S
C828 C829 1.400 . S
C829 C823 1.491 . S
C829 C828 1.400 . S
C829 C830 1.398 . S
C830 H818 0.950 . S
C830 C829 1.398 . S
C830 C831 1.391 . S
C831 H819 0.950 . S
C831 C827 1.393 . S
C831 C830 1.391 . S
H832 C840 0.950 . S
H833 C845 0.950 . S
H834 C842 0.950 . S
H835 C844 0.950 . S
H836 C846 0.950 . S
H837 C848 0.950 . S
H838 C850 0.950 . S
H839 C851 0.950 . S
C840 H832 0.950 . S
C840 C841 1.386 1_565 S
C840 C842 1.391 . S
C841 C840 1.386 1_545 S
C841 C845 1.393 . S
C842 H834 0.950 . S
C842 C840 1.391 . S
C842 C843 1.400 . S
C843 C842 1.400 . S
C843 C844 1.398 1_565 S
C843 C849 1.491 . S
C844 H835 0.950 . S
C844 C843 1.398 1_545 S
C844 C845 1.391 . S
C845 H833 0.950 . S
C845 C841 1.393 . S
C845 C844 1.391 . S
C846 H836 0.950 . S
C846 C847 1.386 1_545 S
C846 C848 1.391 . S
C847 C846 1.386 1_565 S
C847 C851 1.393 . S
C848 H837 0.950 . S
C848 C846 1.391 . S
C848 C849 1.400 1_545 S
C849 C843 1.491 . S
C849 C848 1.400 1_565 S
C849 C850 1.398 . S
C850 H838 0.950 . S
C850 C849 1.398 . S
C850 C851 1.391 . S
C851 H839 0.950 . S
C851 C847 1.393 . S
C851 C850 1.391 . S
H852 C860 0.950 . S
H853 C865 0.950 . S
H854 C862 0.950 . S
H855 C864 0.950 . S
H856 C866 0.950 . S
H857 C868 0.950 . S
H858 C870 0.950 . S
H859 C871 0.950 . S
C860 H852 0.950 . S
C860 C861 1.386 . S
C860 C862 1.391 . S
C861 C860 1.386 . S
C861 C865 1.393 . S
C862 H854 0.950 . S
C862 C860 1.391 . S
C862 C863 1.400 . S
C863 C862 1.400 . S
C863 C864 1.398 . S
C863 C869 1.491 . S
C864 H855 0.950 . S
C864 C863 1.398 . S
C864 C865 1.391 . S
C865 H853 0.950 . S
C865 C861 1.393 . S
C865 C864 1.391 . S
C866 H856 0.950 . S
C866 C867 1.386 . S
C866 C868 1.391 . S
C867 C866 1.386 . S
C867 C871 1.393 . S
C868 H857 0.950 . S
C868 C866 1.391 . S
C868 C869 1.400 . S
C869 C863 1.491 . S
C869 C868 1.400 . S
C869 C870 1.398 . S
C870 H858 0.950 . S
C870 C869 1.398 . S
C870 C871 1.391 . S
C871 H859 0.950 . S
C871 C867 1.393 . S
C871 C870 1.391 . S
H872 C880 0.950 . S
H873 C885 0.950 . S
H874 C882 0.950 . S
H875 C884 0.950 . S
H876 C886 0.950 . S
H877 C888 0.950 . S
H878 C890 0.950 . S
H879 C891 0.950 . S
C880 H872 0.950 . S
C880 C881 1.386 1_565 S
C880 C882 1.391 . S
C881 C880 1.386 1_545 S
C881 C885 1.393 . S
C882 H874 0.950 . S
C882 C880 1.391 . S
C882 C883 1.400 1_565 S
C883 C882 1.400 1_545 S
C883 C884 1.398 . S
C883 C889 1.491 . S
C884 H875 0.950 . S
C884 C883 1.398 . S
C884 C885 1.391 . S
C885 H873 0.950 . S
C885 C881 1.393 . S
C885 C884 1.391 . S
C886 H876 0.950 . S
C886 C887 1.386 . S
C886 C888 1.391 . S
C887 C886 1.386 . S
C887 C891 1.393 1_545 S
C888 H877 0.950 . S
C888 C886 1.391 . S
C888 C889 1.400 . S
C889 C883 1.491 . S
C889 C888 1.400 . S
C889 C890 1.398 1_545 S
C890 H878 0.950 . S
C890 C889 1.398 1_565 S
C890 C891 1.391 . S
C891 H879 0.950 . S
C891 C887 1.393 1_565 S
C891 C890 1.391 . S
H892 C900 0.950 . S
H893 C905 0.950 . S
H894 C902 0.950 . S
H895 C904 0.950 . S
H896 C906 0.950 . S
H897 C908 0.950 . S
H898 C910 0.950 . S
H899 C911 0.950 . S
C900 H892 0.950 . S
C900 C901 1.386 . S
C900 C902 1.391 . S
C901 C900 1.386 . S
C901 C905 1.393 . S
C902 H894 0.950 . S
C902 C900 1.391 . S
C902 C903 1.400 . S
C903 C902 1.400 . S
C903 C904 1.398 . S
C903 C909 1.491 . S
C904 H895 0.950 . S
C904 C903 1.398 . S
C904 C905 1.391 . S
C905 H893 0.950 . S
C905 C901 1.393 . S
C905 C904 1.391 . S
C906 H896 0.950 . S
C906 C907 1.386 . S
C906 C908 1.391 . S
C907 C906 1.386 . S
C907 C911 1.393 . S
C908 H897 0.950 . S
C908 C906 1.391 . S
C908 C909 1.400 . S
C909 C903 1.491 . S
C909 C908 1.400 . S
C909 C910 1.398 . S
C910 H898 0.950 . S
C910 C909 1.398 . S
C910 C911 1.391 . S
C911 H899 0.950 . S
C911 C907 1.393 . S
C911 C910 1.391 . S
H912 C920 0.950 . S
H913 C925 0.950 . S
H914 C922 0.950 . S
H915 C924 0.950 . S
H916 C926 0.950 . S
H917 C928 0.950 . S
H918 C930 0.950 . S
H919 C931 0.950 . S
C920 H912 0.950 . S
C920 C921 1.386 1_565 S
C920 C922 1.391 . S
C921 C920 1.386 1_545 S
C921 C925 1.393 . S
C922 H914 0.950 . S
C922 C920 1.391 . S
C922 C923 1.400 1_565 S
C923 C922 1.400 1_545 S
C923 C924 1.398 . S
C923 C929 1.491 . S
C924 H915 0.950 . S
C924 C923 1.398 . S
C924 C925 1.391 . S
C925 H913 0.950 . S
C925 C921 1.393 . S
C925 C924 1.391 . S
C926 H916 0.950 . S
C926 C927 1.386 . S
C926 C928 1.391 . S
C927 C926 1.386 . S
C927 C931 1.393 1_545 S
C928 H917 0.950 . S
C928 C926 1.391 . S
C928 C929 1.400 . S
C929 C923 1.491 . S
C929 C928 1.400 . S
C929 C930 1.398 1_545 S
C930 H918 0.950 . S
C930 C929 1.398 1_565 S
C930 C931 1.391 . S
C931 H919 0.950 . S
C931 C927 1.393 1_565 S
C931 C930 1.391 . S
H932 C940 0.950 . S
H933 C945 0.950 . S
H934 C942 0.950 . S
H935 C944 0.950 . S
H936 C946 0.950 . S
H937 C948 0.950 . S
H938 C950 0.950 . S
H939 C951 0.950 . S
C940 H932 0.950 . S
C940 C941 1.386 . S
C940 C942 1.391 . S
C941 C940 1.386 . S
C941 C945 1.393 . S
C942 H934 0.950 . S
C942 C940 1.391 . S
C942 C943 1.400 . S
C943 C942 1.400 . S
C943 C944 1.398 . S
C943 C949 1.491 . S
C944 H935 0.950 . S
C944 C943 1.398 . S
C944 C945 1.391 . S
C945 H933 0.950 . S
C945 C941 1.393 . S
C945 C944 1.391 . S
C946 H936 0.950 . S
C946 C947 1.386 . S
C946 C948 1.391 . S
C947 C946 1.386 . S
C947 C951 1.393 . S
C948 H937 0.950 . S
C948 C946 1.391 . S
C948 C949 1.400 . S
C949 C943 1.491 . S
C949 C948 1.400 . S
C949 C950 1.398 . S
C950 H938 0.950 . S
C950 C949 1.398 . S
C950 C951 1.391 . S
C951 H939 0.950 . S
C951 C947 1.393 . S
C951 C950 1.391 . S
H952 C960 0.950 . S
H953 C965 0.950 . S
H954 C962 0.950 . S
H955 C964 0.950 . S
H956 C966 0.950 . S
H957 C968 0.950 . S
H958 C970 0.950 . S
H959 C971 0.950 . S
C960 H952 0.950 . S
C960 C961 1.386 . S
C960 C962 1.391 . S
C961 C960 1.386 . S
C961 C965 1.393 1_545 S
C962 H954 0.950 . S
C962 C960 1.391 . S
C962 C963 1.400 1_545 S
C963 C962 1.400 1_565 S
C963 C964 1.398 . S
C963 C969 1.491 . S
C964 H955 0.950 . S
C964 C963 1.398 . S
C964 C965 1.391 . S
C965 H953 0.950 . S
C965 C961 1.393 1_565 S
C965 C964 1.391 . S
C966 H956 0.950 . S
C966 C967 1.386 . S
C966 C968 1.391 . S
C967 C966 1.386 . S
C967 C971 1.393 1_565 S
C968 H957 0.950 . S
C968 C966 1.391 . S
C968 C969 1.400 . S
C969 C963 1.491 . S
C969 C968 1.400 . S
C969 C970 1.398 1_565 S
C970 H958 0.950 . S
C970 C969 1.398 1_545 S
C970 C971 1.391 . S
C971 H959 0.950 . S
C971 C967 1.393 1_545 S
C971 C970 1.391 . S
H972 C980 0.950 . S
H973 C985 0.950 . S
H974 C982 0.950 . S
H975 C984 0.950 . S
H976 C986 0.950 . S
H977 C988 0.950 . S
H978 C990 0.950 . S
H979 C991 0.950 . S
C980 H972 0.950 . S
C980 C981 1.386 . S
C980 C982 1.391 . S
C981 C980 1.386 . S
C981 C985 1.393 . S
C982 H974 0.950 . S
C982 C980 1.391 . S
C982 C983 1.400 . S
C983 C982 1.400 . S
C983 C984 1.398 . S
C983 C989 1.491 . S
C984 H975 0.950 . S
C984 C983 1.398 . S
C984 C985 1.391 . S
C985 H973 0.950 . S
C985 C981 1.393 . S
C985 C984 1.391 . S
C986 H976 0.950 . S
C986 C987 1.386 . S
C986 C988 1.391 . S
C987 C986 1.386 . S
C987 C991 1.393 . S
C988 H977 0.950 . S
C988 C986 1.391 . S
C988 C989 1.400 . S
C989 C983 1.491 . S
C989 C988 1.400 . S
C989 C990 1.398 . S
C990 H978 0.950 . S
C990 C989 1.398 . S
C990 C991 1.391 . S
C991 H979 0.950 . S
C991 C987 1.393 . S
C991 C990 1.391 . S
H992 C1000 0.950 . S
H993 C1005 0.950 . S
H994 C1002 0.950 . S
H995 C1004 0.950 . S
H996 C1006 0.950 . S
H997 C1008 0.950 . S
H998 C1010 0.950 . S
H999 C1011 0.950 . S
C1000 H992 0.950 . S
C1000 C1001 1.386 1_556 S
C1000 C1002 1.391 . S
C1001 C1000 1.386 1_554 S
C1001 C1005 1.393 . S
C1002 H994 0.950 . S
C1002 C1000 1.391 . S
C1002 C1003 1.397 1_556 S
C1003 C1002 1.397 1_554 S
C1003 C1004 1.402 . S
C1003 C1009 1.491 1_554 S
C1004 H995 0.950 . S
C1004 C1003 1.402 . S
C1004 C1005 1.391 . S
C1005 H993 0.950 . S
C1005 C1001 1.393 . S
C1005 C1004 1.391 . S
C1006 H996 0.950 . S
C1006 C1007 1.386 1_554 S
C1006 C1008 1.391 . S
C1007 C1006 1.386 1_556 S
C1007 C1011 1.393 . S
C1008 H997 0.950 . S
C1008 C1006 1.391 . S
C1008 C1009 1.395 1_554 S
C1009 C1003 1.491 1_556 S
C1009 C1008 1.395 1_556 S
C1009 C1010 1.404 . S
C1010 H998 0.950 . S
C1010 C1009 1.404 . S
C1010 C1011 1.391 . S
C1011 H999 0.950 . S
C1011 C1007 1.393 . S
C1011 C1010 1.391 . S
H1012 C1020 0.950 . S
H1013 C1025 0.950 . S
H1014 C1022 0.950 . S
H1015 C1024 0.950 . S
H1016 C1026 0.950 1_556 S
H1017 C1028 0.962 . S
H1018 C1030 0.950 . S
H1019 C1031 0.950 . S
C1020 H1012 0.950 . S
C1020 C1021 1.386 . S
C1020 C1022 1.391 . S
C1021 C1020 1.386 . S
C1021 C1025 1.393 1_554 S
C1022 H1014 0.950 . S
C1022 C1020 1.391 . S
C1022 C1023 1.400 . S
C1023 C1022 1.400 . S
C1023 C1024 1.398 1_554 S
C1023 C1029 1.491 . S
C1024 H1015 0.950 . S
C1024 C1023 1.398 1_556 S
C1024 C1025 1.391 . S
C1025 H1013 0.950 . S
C1025 C1021 1.393 1_556 S
C1025 C1024 1.391 . S
C1026 H1016 0.950 1_554 S
C1026 C1027 1.386 . S
C1026 C1028 1.390 1_554 S
C1027 C1026 1.386 . S
C1027 C1031 1.393 . S
C1028 H1017 0.962 . S
C1028 C1026 1.390 1_556 S
C1028 C1029 1.390 1_556 S
C1029 C1023 1.491 . S
C1029 C1028 1.390 1_554 S
C1029 C1030 1.398 . S
C1030 H1018 0.950 . S
C1030 C1029 1.398 . S
C1030 C1031 1.391 . S
C1031 H1019 0.950 . S
C1031 C1027 1.393 . S
C1031 C1030 1.391 . S
H1032 C1040 0.950 . S
H1033 C1045 0.950 . S
H1034 C1042 0.950 . S
H1035 C1044 0.950 . S
H1036 C1046 0.950 . S
H1037 C1048 0.950 . S
H1038 C1050 0.950 . S
H1039 C1051 0.950 . S
C1040 H1032 0.950 . S
C1040 C1041 1.386 . S
C1040 C1042 1.391 . S
C1041 C1040 1.386 . S
C1041 C1045 1.393 . S
C1042 H1034 0.950 . S
C1042 C1040 1.391 . S
C1042 C1043 1.400 . S
C1043 C1042 1.400 . S
C1043 C1044 1.398 . S
C1043 C1049 1.491 . S
C1044 H1035 0.950 . S
C1044 C1043 1.398 . S
C1044 C1045 1.391 . S
C1045 H1033 0.950 . S
C1045 C1041 1.393 . S
C1045 C1044 1.391 . S
C1046 H1036 0.950 . S
C1046 C1047 1.386 . S
C1046 C1048 1.391 . S
C1047 C1046 1.386 . S
C1047 C1051 1.393 . S
C1048 H1037 0.950 . S
C1048 C1046 1.391 . S
C1048 C1049 1.400 . S
C1049 C1043 1.491 . S
C1049 C1048 1.400 . S
C1049 C1050 1.398 . S
C1050 H1038 0.950 . S
C1050 C1049 1.398 . S
C1050 C1051 1.391 . S
C1051 H1039 0.950 . S
C1051 C1047 1.393 . S
C1051 C1050 1.391 . S
H1052 C1060 0.950 . S
H1053 C1065 0.950 . S
H1054 C1062 0.950 . S
H1055 C1064 0.950 . S
H1056 C1066 0.950 . S
H1057 C1068 0.950 . S
H1058 C1070 0.950 . S
H1059 C1071 0.950 . S
C1060 H1052 0.950 . S
C1060 C1061 1.386 . S
C1060 C1062 1.391 . S
C1061 C1060 1.386 . S
C1061 C1065 1.393 . S
C1062 H1054 0.950 . S
C1062 C1060 1.391 . S
C1062 C1063 1.400 . S
C1063 C1062 1.400 . S
C1063 C1064 1.398 . S
C1063 C1069 1.491 . S
C1064 H1055 0.950 . S
C1064 C1063 1.398 . S
C1064 C1065 1.391 . S
C1065 H1053 0.950 . S
C1065 C1061 1.393 . S
C1065 C1064 1.391 . S
C1066 H1056 0.950 . S
C1066 C1067 1.386 . S
C1066 C1068 1.391 . S
C1067 C1066 1.386 . S
C1067 C1071 1.393 . S
C1068 H1057 0.950 . S
C1068 C1066 1.391 . S
C1068 C1069 1.400 . S
C1069 C1063 1.491 . S
C1069 C1068 1.400 . S
C1069 C1070 1.398 . S
C1070 H1058 0.950 . S
C1070 C1069 1.398 . S
C1070 C1071 1.391 . S
C1071 H1059 0.950 . S
C1071 C1067 1.393 . S
C1071 C1070 1.391 . S
H1072 C1080 0.950 . S
H1073 C1085 0.950 . S
H1074 C1082 0.950 . S
H1075 C1084 0.950 . S
H1076 C1086 0.950 . S
H1077 C1088 0.950 . S
H1078 C1090 0.950 . S
H1079 C1091 0.950 . S
C1080 H1072 0.950 . S
C1080 C1081 1.386 . S
C1080 C1082 1.391 . S
C1081 C1080 1.386 . S
C1081 C1085 1.393 . S
C1082 H1074 0.950 . S
C1082 C1080 1.391 . S
C1082 C1083 1.400 . S
C1083 C1082 1.400 . S
C1083 C1084 1.398 . S
C1083 C1089 1.491 . S
C1084 H1075 0.950 . S
C1084 C1083 1.398 . S
C1084 C1085 1.391 . S
C1085 H1073 0.950 . S
C1085 C1081 1.393 . S
C1085 C1084 1.391 . S
C1086 H1076 0.950 . S
C1086 C1087 1.386 . S
C1086 C1088 1.391 . S
C1087 C1086 1.386 . S
C1087 C1091 1.393 . S
C1088 H1077 0.950 . S
C1088 C1086 1.391 . S
C1088 C1089 1.400 . S
C1089 C1083 1.491 . S
C1089 C1088 1.400 . S
C1089 C1090 1.398 . S
C1090 H1078 0.950 . S
C1090 C1089 1.398 . S
C1090 C1091 1.391 . S
C1091 H1079 0.950 . S
C1091 C1087 1.393 . S
C1091 C1090 1.391 . S
H1092 C1100 0.950 . S
H1093 C1105 0.950 . S
H1094 C1102 0.950 . S
H1095 C1104 0.950 . S
H1096 C1106 0.950 . S
H1097 C1108 0.950 . S
H1098 C1110 0.950 . S
H1099 C1111 0.950 . S
C1100 H1092 0.950 . S
C1100 C1101 1.386 . S
C1100 C1102 1.391 . S
C1101 C1100 1.386 . S
C1101 C1105 1.393 . S
C1102 H1094 0.950 . S
C1102 C1100 1.391 . S
C1102 C1103 1.400 . S
C1103 C1102 1.400 . S
C1103 C1104 1.398 . S
C1103 C1109 1.491 . S
C1104 H1095 0.950 . S
C1104 C1103 1.398 . S
C1104 C1105 1.391 . S
C1105 H1093 0.950 . S
C1105 C1101 1.393 . S
C1105 C1104 1.391 . S
C1106 H1096 0.950 . S
C1106 C1107 1.386 . S
C1106 C1108 1.391 . S
C1107 C1106 1.386 . S
C1107 C1111 1.393 . S
C1108 H1097 0.950 . S
C1108 C1106 1.391 . S
C1108 C1109 1.400 . S
C1109 C1103 1.491 . S
C1109 C1108 1.400 . S
C1109 C1110 1.398 . S
C1110 H1098 0.950 . S
C1110 C1109 1.398 . S
C1110 C1111 1.391 . S
C1111 H1099 0.950 . S
C1111 C1107 1.393 . S
C1111 C1110 1.391 . S
H1112 C1120 0.950 . S
H1113 C1125 0.950 . S
H1114 C1122 0.950 . S
H1115 C1124 0.950 . S
H1116 C1126 0.950 . S
H1117 C1128 0.950 . S
H1118 C1130 0.950 . S
H1119 C1131 0.950 . S
C1120 H1112 0.950 . S
C1120 C1121 1.386 . S
C1120 C1122 1.391 . S
C1121 C1120 1.386 . S
C1121 C1125 1.393 . S
C1122 H1114 0.950 . S
C1122 C1120 1.391 . S
C1122 C1123 1.400 . S
C1123 C1122 1.400 . S
C1123 C1124 1.398 . S
C1123 C1129 1.491 . S
C1124 H1115 0.950 . S
C1124 C1123 1.398 . S
C1124 C1125 1.391 . S
C1125 H1113 0.950 . S
C1125 C1121 1.393 . S
C1125 C1124 1.391 . S
C1126 H1116 0.950 . S
C1126 C1127 1.386 . S
C1126 C1128 1.391 . S
C1127 C1126 1.386 . S
C1127 C1131 1.393 . S
C1128 H1117 0.950 . S
C1128 C1126 1.391 . S
C1128 C1129 1.400 . S
C1129 C1123 1.491 . S
C1129 C1128 1.400 . S
C1129 C1130 1.398 . S
C1130 H1118 0.950 . S
C1130 C1129 1.398 . S
C1130 C1131 1.391 . S
C1131 H1119 0.950 . S
C1131 C1127 1.393 . S
C1131 C1130 1.391 . S
H1132 C1140 0.950 . S
H1133 C1145 0.950 . S
H1134 C1142 0.950 . S
H1135 C1144 0.950 . S
H1136 C1146 0.950 . S
H1137 C1148 0.950 . S
H1138 C1150 0.950 . S
H1139 C1151 0.950 . S
C1140 H1132 0.950 . S
C1140 C1141 1.386 . S
C1140 C1142 1.391 . S
C1141 C1140 1.386 . S
C1141 C1145 1.393 . S
C1142 H1134 0.950 . S
C1142 C1140 1.391 . S
C1142 C1143 1.400 . S
C1143 C1142 1.400 . S
C1143 C1144 1.398 . S
C1143 C1149 1.491 . S
C1144 H1135 0.950 . S
C1144 C1143 1.398 . S
C1144 C1145 1.391 . S
C1145 H1133 0.950 . S
C1145 C1141 1.393 . S
C1145 C1144 1.391 . S
C1146 H1136 0.950 . S
C1146 C1147 1.386 . S
C1146 C1148 1.391 . S
C1147 C1146 1.386 . S
C1147 C1151 1.393 . S
C1148 H1137 0.950 . S
C1148 C1146 1.391 . S
C1148 C1149 1.400 . S
C1149 C1143 1.491 . S
C1149 C1148 1.400 . S
C1149 C1150 1.398 . S
C1150 H1138 0.950 . S
C1150 C1149 1.398 . S
C1150 C1151 1.391 . S
C1151 H1139 0.950 . S
C1151 C1147 1.393 . S
C1151 C1150 1.391 . S
H1152 C1160 0.950 . S
H1153 C1165 0.947 1_655 S
H1154 C1162 0.950 . S
H1155 C1164 0.950 . S
H1156 C1166 0.919 1_554 S
H1157 C1168 0.950 . S
H1158 C1170 0.950 . S
H1159 C1171 0.950 . S
C1160 H1152 0.950 . S
C1160 C1161 1.386 . S
C1160 C1162 1.391 . S
C1161 C1160 1.386 . S
C1161 C1165 1.393 . S
C1162 H1154 0.950 . S
C1162 C1160 1.391 . S
C1162 C1163 1.400 . S
C1163 C1162 1.400 . S
C1163 C1164 1.398 . S
C1163 C1169 1.491 . S
C1164 H1155 0.950 . S
C1164 C1163 1.398 . S
C1164 C1165 1.391 . S
C1165 H1153 0.947 1_455 S
C1165 C1161 1.393 . S
C1165 C1164 1.391 . S
C1166 H1156 0.919 1_556 S
C1166 C1167 1.386 . S
C1166 C1168 1.391 . S
C1167 C1166 1.386 . S
C1167 C1171 1.393 . S
C1168 H1157 0.950 . S
C1168 C1166 1.391 . S
C1168 C1169 1.400 . S
C1169 C1163 1.491 . S
C1169 C1168 1.400 . S
C1169 C1170 1.398 . S
C1170 H1158 0.950 . S
C1170 C1169 1.398 . S
C1170 C1171 1.391 . S
C1171 H1159 0.950 . S
C1171 C1167 1.393 . S
C1171 C1170 1.391 . S
H1172 C1180 0.950 . S
H1173 C1185 0.950 . S
H1174 C1182 0.950 . S
H1175 C1184 0.950 . S
H1176 C1186 0.950 . S
H1177 C1188 0.950 . S
H1178 C1190 0.950 . S
H1179 C1191 0.950 . S
C1180 H1172 0.950 . S
C1180 C1181 1.386 . S
C1180 C1182 1.391 . S
C1181 C1180 1.386 . S
C1181 C1185 1.393 . S
C1182 H1174 0.950 . S
C1182 C1180 1.391 . S
C1182 C1183 1.400 . S
C1183 C1182 1.400 . S
C1183 C1184 1.398 . S
C1183 C1189 1.491 . S
C1184 H1175 0.950 . S
C1184 C1183 1.398 . S
C1184 C1185 1.391 . S
C1185 H1173 0.950 . S
C1185 C1181 1.393 . S
C1185 C1184 1.391 . S
C1186 H1176 0.950 . S
C1186 C1187 1.386 . S
C1186 C1188 1.391 . S
C1187 C1186 1.386 . S
C1187 C1191 1.393 . S
C1188 H1177 0.950 . S
C1188 C1186 1.391 . S
C1188 C1189 1.400 . S
C1189 C1183 1.491 . S
C1189 C1188 1.400 . S
C1189 C1190 1.398 . S
C1190 H1178 0.950 . S
C1190 C1189 1.398 . S
C1190 C1191 1.391 . S
C1191 H1179 0.950 . S
C1191 C1187 1.393 . S
C1191 C1190 1.391 . S
H1192 C1200 0.950 . S
H1193 C1205 0.950 . S
H1194 C1202 0.950 . S
H1195 C1204 0.950 . S
H1196 C1206 0.950 . S
H1197 C1208 0.950 . S
H1198 C1210 0.950 . S
H1199 C1211 0.950 . S
C1200 H1192 0.950 . S
C1200 C1201 1.386 . S
C1200 C1202 1.391 . S
C1201 C1200 1.386 . S
C1201 C1205 1.393 . S
C1202 H1194 0.950 . S
C1202 C1200 1.391 . S
C1202 C1203 1.400 . S
C1203 C1202 1.400 . S
C1203 C1204 1.398 . S
C1203 C1209 1.491 . S
C1204 H1195 0.950 . S
C1204 C1203 1.398 . S
C1204 C1205 1.391 . S
C1205 H1193 0.950 . S
C1205 C1201 1.393 . S
C1205 C1204 1.391 . S
C1206 H1196 0.950 . S
C1206 C1207 1.386 . S
C1206 C1208 1.391 . S
C1207 C1206 1.386 . S
C1207 C1211 1.393 . S
C1208 H1197 0.950 . S
C1208 C1206 1.391 . S
C1208 C1209 1.400 . S
C1209 C1203 1.491 . S
C1209 C1208 1.400 . S
C1209 C1210 1.398 . S
C1210 H1198 0.950 . S
C1210 C1209 1.398 . S
C1210 C1211 1.391 . S
C1211 H1199 0.950 . S
C1211 C1207 1.393 . S
C1211 C1210 1.391 . S
H1212 C1220 0.950 . S
H1213 C1225 0.950 . S
H1214 C1222 0.950 . S
H1215 C1224 0.950 . S
H1216 C1226 0.950 . S
H1217 C1228 0.950 . S
H1218 C1230 0.950 . S
H1219 C1231 0.950 . S
C1220 H1212 0.950 . S
C1220 C1221 1.386 . S
C1220 C1222 1.391 . S
C1221 C1220 1.386 . S
C1221 C1225 1.393 . S
C1222 H1214 0.950 . S
C1222 C1220 1.391 . S
C1222 C1223 1.400 . S
C1223 C1222 1.400 . S
C1223 C1224 1.398 . S
C1223 C1229 1.491 . S
C1224 H1215 0.950 . S
C1224 C1223 1.398 . S
C1224 C1225 1.391 . S
C1225 H1213 0.950 . S
C1225 C1221 1.393 . S
C1225 C1224 1.391 . S
C1226 H1216 0.950 . S
C1226 C1227 1.386 . S
C1226 C1228 1.391 . S
C1227 C1226 1.386 . S
C1227 C1231 1.393 . S
C1228 H1217 0.950 . S
C1228 C1226 1.391 . S
C1228 C1229 1.400 . S
C1229 C1223 1.491 . S
C1229 C1228 1.400 . S
C1229 C1230 1.398 . S
C1230 H1218 0.950 . S
C1230 C1229 1.398 . S
C1230 C1231 1.391 . S
C1231 H1219 0.950 . S
C1231 C1227 1.393 . S
C1231 C1230 1.391 . S
H1232 C1240 0.950 . S
H1233 C1245 0.950 . S
H1234 C1242 0.950 . S
H1235 C1244 0.950 . S
H1236 C1246 0.945 1_655 S
H1237 C1248 0.950 . S
H1238 C1250 0.950 . S
H1239 C1251 0.950 . S
C1240 H1232 0.950 . S
C1240 C1241 1.386 . S
C1240 C1242 1.391 . S
C1241 C1240 1.386 . S
C1241 C1245 1.393 1_455 S
C1242 H1234 0.950 . S
C1242 C1240 1.391 . S
C1242 C1243 1.400 . S
C1243 C1242 1.400 . S
C1243 C1244 1.398 1_455 S
C1243 C1249 1.491 . S
C1244 H1235 0.950 . S
C1244 C1243 1.398 1_655 S
C1244 C1245 1.391 . S
C1245 H1233 0.950 . S
C1245 C1241 1.393 1_655 S
C1245 C1244 1.391 . S
C1246 H1236 0.945 1_455 S
C1246 C1247 1.391 . S
C1246 C1248 1.390 1_455 S
C1247 C1246 1.391 . S
C1247 C1251 1.393 . S
C1248 H1237 0.950 . S
C1248 C1246 1.390 1_655 S
C1248 C1249 1.400 1_655 S
C1249 C1243 1.491 . S
C1249 C1248 1.400 1_455 S
C1249 C1250 1.398 . S
C1250 H1238 0.950 . S
C1250 C1249 1.398 . S
C1250 C1251 1.391 . S
C1251 H1239 0.950 . S
C1251 C1247 1.393 . S
C1251 C1250 1.391 . S
H1252 C1260 0.950 . S
H1253 C1265 0.950 . S
H1254 C1262 0.950 . S
H1255 C1264 0.950 . S
H1256 C1266 0.950 . S
H1257 C1268 0.950 . S
H1258 C1270 0.950 . S
H1259 C1271 0.950 . S
C1260 H1252 0.950 . S
C1260 C1261 1.386 . S
C1260 C1262 1.391 . S
C1261 C1260 1.386 . S
C1261 C1265 1.393 . S
C1262 H1254 0.950 . S
C1262 C1260 1.391 . S
C1262 C1263 1.400 . S
C1263 C1262 1.400 . S
C1263 C1264 1.398 . S
C1263 C1269 1.491 . S
C1264 H1255 0.950 . S
C1264 C1263 1.398 . S
C1264 C1265 1.391 . S
C1265 H1253 0.950 . S
C1265 C1261 1.393 . S
C1265 C1264 1.391 . S
C1266 H1256 0.950 . S
C1266 C1267 1.386 . S
C1266 C1268 1.391 . S
C1267 C1266 1.386 . S
C1267 C1271 1.393 . S
C1268 H1257 0.950 . S
C1268 C1266 1.391 . S
C1268 C1269 1.400 . S
C1269 C1263 1.491 . S
C1269 C1268 1.400 . S
C1269 C1270 1.398 . S
C1270 H1258 0.950 . S
C1270 C1269 1.398 . S
C1270 C1271 1.391 . S
C1271 H1259 0.950 . S
C1271 C1267 1.393 . S
C1271 C1270 1.391 . S
H1272 C1280 0.950 . S
H1273 C1285 0.950 . S
H1274 C1282 0.950 . S
H1275 C1284 0.950 . S
H1276 C1286 0.950 . S
H1277 C1288 0.950 . S
H1278 C1290 0.950 . S
H1279 C1291 0.950 . S
C1280 H1272 0.950 . S
C1280 C1281 1.386 . S
C1280 C1282 1.391 . S
C1281 C1280 1.386 . S
C1281 C1285 1.393 . S
C1282 H1274 0.950 . S
C1282 C1280 1.391 . S
C1282 C1283 1.400 . S
C1283 C1282 1.400 . S
C1283 C1284 1.398 . S
C1283 C1289 1.491 . S
C1284 H1275 0.950 . S
C1284 C1283 1.398 . S
C1284 C1285 1.391 . S
C1285 H1273 0.950 . S
C1285 C1281 1.393 . S
C1285 C1284 1.391 . S
C1286 H1276 0.950 . S
C1286 C1287 1.386 . S
C1286 C1288 1.391 . S
C1287 C1286 1.386 . S
C1287 C1291 1.393 . S
C1288 H1277 0.950 . S
C1288 C1286 1.391 . S
C1288 C1289 1.400 . S
C1289 C1283 1.491 . S
C1289 C1288 1.400 . S
C1289 C1290 1.398 . S
C1290 H1278 0.950 . S
C1290 C1289 1.398 . S
C1290 C1291 1.391 . S
C1291 H1279 0.950 . S
C1291 C1287 1.393 . S
C1291 C1290 1.391 . S
H1292 C1300 0.950 . S
H1293 C1305 0.950 . S
H1294 C1302 0.950 . S
H1295 C1304 0.950 . S
H1296 C1306 0.950 . S
H1297 C1308 0.950 . S
H1298 C1310 0.950 . S
H1299 C1311 0.950 . S
C1300 H1292 0.950 . S
C1300 C1301 1.386 . S
C1300 C1302 1.391 . S
C1301 C1300 1.386 . S
C1301 C1305 1.393 . S
C1302 H1294 0.950 . S
C1302 C1300 1.391 . S
C1302 C1303 1.400 . S
C1303 C1302 1.400 . S
C1303 C1304 1.398 . S
C1303 C1309 1.491 . S
C1304 H1295 0.950 . S
C1304 C1303 1.398 . S
C1304 C1305 1.391 . S
C1305 H1293 0.950 . S
C1305 C1301 1.393 . S
C1305 C1304 1.391 . S
C1306 H1296 0.950 . S
C1306 C1307 1.386 . S
C1306 C1308 1.391 . S
C1307 C1306 1.386 . S
C1307 C1311 1.393 . S
C1308 H1297 0.950 . S
C1308 C1306 1.391 . S
C1308 C1309 1.400 . S
C1309 C1303 1.491 . S
C1309 C1308 1.400 . S
C1309 C1310 1.398 . S
C1310 H1298 0.950 . S
C1310 C1309 1.398 . S
C1310 C1311 1.391 . S
C1311 H1299 0.950 . S
C1311 C1307 1.393 . S
C1311 C1310 1.391 . S
H1312 C1320 0.950 . S
H1313 C1325 0.950 . S
H1314 C1322 0.950 . S
H1315 C1324 0.950 . S
H1316 C1326 0.950 . S
H1317 C1328 0.950 . S
H1318 C1330 0.950 . S
H1319 C1331 0.950 . S
C1320 H1312 0.950 . S
C1320 C1321 1.386 1_545 S
C1320 C1322 1.391 . S
C1321 C1320 1.386 1_565 S
C1321 C1325 1.393 . S
C1322 H1314 0.950 . S
C1322 C1320 1.391 . S
C1322 C1323 1.400 . S
C1323 C1322 1.400 . S
C1323 C1324 1.398 1_545 S
C1323 C1329 1.491 . S
C1324 H1315 0.950 . S
C1324 C1323 1.398 1_565 S
C1324 C1325 1.391 . S
C1325 H1313 0.950 . S
C1325 C1321 1.393 . S
C1325 C1324 1.391 . S
C1326 H1316 0.950 . S
C1326 C1327 1.386 1_565 S
C1326 C1328 1.391 . S
C1327 C1326 1.386 1_545 S
C1327 C1331 1.393 . S
C1328 H1317 0.950 . S
C1328 C1326 1.391 . S
C1328 C1329 1.400 1_565 S
C1329 C1323 1.491 . S
C1329 C1328 1.400 1_545 S
C1329 C1330 1.398 . S
C1330 H1318 0.950 . S
C1330 C1329 1.398 . S
C1330 C1331 1.391 . S
C1331 H1319 0.950 . S
C1331 C1327 1.393 . S
C1331 C1330 1.391 . S
H1332 C1340 0.950 . S
H1333 C1345 0.950 . S
H1334 C1342 0.950 . S
H1335 C1344 0.950 . S
H1336 C1346 0.950 . S
H1337 C1348 0.950 . S
H1338 C1350 0.950 . S
H1339 C1351 0.950 . S
C1340 H1332 0.950 . S
C1340 C1341 1.386 . S
C1340 C1342 1.391 . S
C1341 C1340 1.386 . S
C1341 C1345 1.393 . S
C1342 H1334 0.950 . S
C1342 C1340 1.391 . S
C1342 C1343 1.400 . S
C1343 C1342 1.400 . S
C1343 C1344 1.398 . S
C1343 C1349 1.491 . S
C1344 H1335 0.950 . S
C1344 C1343 1.398 . S
C1344 C1345 1.391 . S
C1345 H1333 0.950 . S
C1345 C1341 1.393 . S
C1345 C1344 1.391 . S
C1346 H1336 0.950 . S
C1346 C1347 1.386 . S
C1346 C1348 1.391 . S
C1347 C1346 1.386 . S
C1347 C1351 1.393 . S
C1348 H1337 0.950 . S
C1348 C1346 1.391 . S
C1348 C1349 1.400 . S
C1349 C1343 1.491 . S
C1349 C1348 1.400 . S
C1349 C1350 1.398 . S
C1350 H1338 0.950 . S
C1350 C1349 1.398 . S
C1350 C1351 1.391 . S
C1351 H1339 0.950 . S
C1351 C1347 1.393 . S
C1351 C1350 1.391 . S
H1352 C1360 0.950 . S
H1353 C1365 0.950 . S
H1354 C1362 0.950 . S
H1355 C1364 0.950 . S
H1356 C1366 0.950 . S
H1357 C1368 0.950 . S
H1358 C1370 0.950 . S
H1359 C1371 0.950 . S
C1360 H1352 0.950 . S
C1360 C1361 1.386 . S
C1360 C1362 1.391 . S
C1361 C1360 1.386 . S
C1361 C1365 1.393 1_545 S
C1362 H1354 0.950 . S
C1362 C1360 1.391 . S
C1362 C1363 1.400 . S
C1363 C1362 1.400 . S
C1363 C1364 1.398 1_545 S
C1363 C1369 1.491 . S
C1364 H1355 0.950 . S
C1364 C1363 1.398 1_565 S
C1364 C1365 1.391 . S
C1365 H1353 0.950 . S
C1365 C1361 1.393 1_565 S
C1365 C1364 1.391 . S
C1366 H1356 0.950 . S
C1366 C1367 1.370 1_565 S
C1366 C1368 1.391 . S
C1367 C1366 1.370 1_545 S
C1367 C1371 1.410 . S
C1368 H1357 0.950 . S
C1368 C1366 1.391 . S
C1368 C1369 1.400 1_565 S
C1369 C1363 1.491 . S
C1369 C1368 1.400 1_545 S
C1369 C1370 1.398 . S
C1370 H1358 0.950 . S
C1370 C1369 1.398 . S
C1370 C1371 1.391 . S
C1371 H1359 0.950 . S
C1371 C1367 1.410 . S
C1371 C1370 1.391 . S
H1372 C1380 0.950 . S
H1373 C1385 0.950 . S
H1374 C1382 0.950 . S
H1375 C1384 0.950 . S
H1376 C1386 0.950 . S
H1377 C1388 0.950 . S
H1378 C1390 0.950 . S
H1379 C1391 0.950 . S
C1380 H1372 0.950 . S
C1380 C1381 1.386 . S
C1380 C1382 1.391 . S
C1381 C1380 1.386 . S
C1381 C1385 1.393 . S
C1382 H1374 0.950 . S
C1382 C1380 1.391 . S
C1382 C1383 1.400 . S
C1383 C1382 1.400 . S
C1383 C1384 1.398 . S
C1383 C1389 1.491 . S
C1384 H1375 0.950 . S
C1384 C1383 1.398 . S
C1384 C1385 1.391 . S
C1385 H1373 0.950 . S
C1385 C1381 1.393 . S
C1385 C1384 1.391 . S
C1386 H1376 0.950 . S
C1386 C1387 1.386 . S
C1386 C1388 1.391 . S
C1387 C1386 1.386 . S
C1387 C1391 1.393 . S
C1388 H1377 0.950 . S
C1388 C1386 1.391 . S
C1388 C1389 1.400 . S
C1389 C1383 1.491 . S
C1389 C1388 1.400 . S
C1389 C1390 1.398 . S
C1390 H1378 0.950 . S
C1390 C1389 1.398 . S
C1390 C1391 1.391 . S
C1391 H1379 0.950 . S
C1391 C1387 1.393 . S
C1391 C1390 1.391 . S
H1392 C1400 0.950 . S
H1393 C1405 0.950 . S
H1394 C1402 0.950 . S
H1395 C1404 0.950 . S
H1396 C1406 0.967 . S
H1397 C1408 0.950 . S
H1398 C1410 0.950 . S
H1399 C1411 0.950 . S
C1400 H1392 0.950 . S
C1400 C1401 1.386 . S
C1400 C1402 1.391 . S
C1401 C1400 1.386 . S
C1401 C1405 1.393 1_565 S
C1402 H1394 0.950 . S
C1402 C1400 1.391 . S
C1402 C1403 1.400 . S
C1403 C1402 1.400 . S
C1403 C1404 1.398 1_565 S
C1403 C1409 1.491 . S
C1404 H1395 0.950 . S
C1404 C1403 1.398 1_545 S
C1404 C1405 1.391 . S
C1405 H1393 0.950 . S
C1405 C1401 1.393 1_545 S
C1405 C1404 1.391 . S
C1406 H1396 0.967 . S
C1406 C1407 1.367 1_545 S
C1406 C1408 1.395 . S
C1407 C1406 1.367 1_565 S
C1407 C1411 1.393 . S
C1408 H1397 0.950 . S
C1408 C1406 1.395 . S
C1408 C1409 1.400 1_545 S
C1409 C1403 1.491 . S
C1409 C1408 1.400 1_565 S
C1409 C1410 1.398 . S
C1410 H1398 0.950 . S
C1410 C1409 1.398 . S
C1410 C1411 1.391 . S
C1411 H1399 0.950 . S
C1411 C1407 1.393 . S
C1411 C1410 1.391 . S
H1412 C1420 0.950 . S
H1413 C1425 0.950 . S
H1414 C1422 0.950 . S
H1415 C1424 0.950 . S
H1416 C1426 0.950 . S
H1417 C1428 0.950 . S
H1418 C1430 0.950 . S
H1419 C1431 0.950 . S
C1420 H1412 0.950 . S
C1420 C1421 1.386 . S
C1420 C1422 1.391 . S
C1421 C1420 1.386 . S
C1421 C1425 1.393 . S
C1422 H1414 0.950 . S
C1422 C1420 1.391 . S
C1422 C1423 1.400 . S
C1423 C1422 1.400 . S
C1423 C1424 1.398 . S
C1423 C1429 1.491 . S
C1424 H1415 0.950 . S
C1424 C1423 1.398 . S
C1424 C1425 1.391 . S
C1425 H1413 0.950 . S
C1425 C1421 1.393 . S
C1425 C1424 1.391 . S
C1426 H1416 0.950 . S
C1426 C1427 1.386 . S
C1426 C1428 1.391 . S
C1427 C1426 1.386 . S
C1427 C1431 1.393 . S
C1428 H1417 0.950 . S
C1428 C1426 1.391 . S
C1428 C1429 1.400 . S
C1429 C1423 1.491 . S
C1429 C1428 1.400 . S
C1429 C1430 1.398 . S
C1430 H1418 0.950 . S
C1430 C1429 1.398 . S
C1430 C1431 1.391 . S
C1431 H1419 0.950 . S
C1431 C1427 1.393 . S
C1431 C1430 1.391 . S
H1432 C1440 0.950 . S
H1433 C1445 0.950 . S
H1434 C1442 0.950 . S
H1435 C1444 0.951 1_565 S
H1436 C1446 0.950 1_565 S
H1437 C1448 0.950 1_565 S
H1438 C1450 0.950 . S
H1439 C1451 0.950 . S
C1440 H1432 0.950 . S
C1440 C1441 1.386 . S
C1440 C1442 1.391 . S
C1441 C1440 1.386 . S
C1441 C1445 1.393 1_545 S
C1442 H1434 0.950 . S
C1442 C1440 1.391 . S
C1442 C1443 1.400 . S
C1443 C1442 1.400 . S
C1443 C1444 1.397 . S
C1443 C1449 1.491 . S
C1444 H1435 0.951 1_545 S
C1444 C1443 1.397 . S
C1444 C1445 1.391 1_545 S
C1445 H1433 0.950 . S
C1445 C1441 1.393 1_565 S
C1445 C1444 1.391 1_565 S
C1446 H1436 0.950 1_545 S
C1446 C1447 1.386 . S
C1446 C1448 1.391 . S
C1447 C1446 1.386 . S
C1447 C1451 1.393 . S
C1448 H1437 0.950 1_545 S
C1448 C1446 1.391 . S
C1448 C1449 1.400 . S
C1449 C1443 1.491 . S
C1449 C1448 1.400 . S
C1449 C1450 1.398 . S
C1450 H1438 0.950 . S
C1450 C1449 1.398 . S
C1450 C1451 1.391 . S
C1451 H1439 0.950 . S
C1451 C1447 1.393 . S
C1451 C1450 1.391 . S
H1452 C1460 0.950 . S
H1453 C1465 0.950 . S
H1454 C1462 0.950 . S
H1455 C1464 0.950 . S
H1456 C1466 0.950 . S
H1457 C1468 0.950 . S
H1458 C1470 0.950 . S
H1459 C1471 0.950 . S
C1460 H1452 0.950 . S
C1460 C1461 1.386 . S
C1460 C1462 1.391 . S
C1461 C1460 1.386 . S
C1461 C1465 1.393 . S
C1462 H1454 0.950 . S
C1462 C1460 1.391 . S
C1462 C1463 1.400 . S
C1463 C1462 1.400 . S
C1463 C1464 1.398 . S
C1463 C1469 1.491 . S
C1464 H1455 0.950 . S
C1464 C1463 1.398 . S
C1464 C1465 1.391 . S
C1465 H1453 0.950 . S
C1465 C1461 1.393 . S
C1465 C1464 1.391 . S
C1466 H1456 0.950 . S
C1466 C1467 1.386 . S
C1466 C1468 1.391 . S
C1467 C1466 1.386 . S
C1467 C1471 1.393 . S
C1468 H1457 0.950 . S
C1468 C1466 1.391 . S
C1468 C1469 1.400 . S
C1469 C1463 1.491 . S
C1469 C1468 1.400 . S
C1469 C1470 1.398 . S
C1470 H1458 0.950 . S
C1470 C1469 1.398 . S
C1470 C1471 1.391 . S
C1471 H1459 0.950 . S
C1471 C1467 1.393 . S
C1471 C1470 1.391 . S
H1472 C1480 0.950 . S
H1473 C1485 0.950 . S
H1474 C1482 0.950 . S
H1475 C1484 0.950 . S
H1476 C1486 0.950 . S
H1477 C1488 0.950 . S
H1478 C1490 0.950 . S
H1479 C1491 0.950 . S
C1480 H1472 0.950 . S
C1480 C1481 1.386 . S
C1480 C1482 1.391 . S
C1481 C1480 1.386 . S
C1481 C1485 1.393 1_554 S
C1482 H1474 0.950 . S
C1482 C1480 1.391 . S
C1482 C1483 1.400 . S
C1483 C1482 1.400 . S
C1483 C1484 1.398 1_554 S
C1483 C1489 1.491 . S
C1484 H1475 0.950 . S
C1484 C1483 1.398 1_556 S
C1484 C1485 1.391 . S
C1485 H1473 0.950 . S
C1485 C1481 1.393 1_556 S
C1485 C1484 1.391 . S
C1486 H1476 0.950 . S
C1486 C1487 1.386 1_556 S
C1486 C1488 1.391 . S
C1487 C1486 1.386 1_554 S
C1487 C1491 1.393 . S
C1488 H1477 0.950 . S
C1488 C1486 1.391 . S
C1488 C1489 1.400 1_556 S
C1489 C1483 1.491 . S
C1489 C1488 1.400 1_554 S
C1489 C1490 1.398 . S
C1490 H1478 0.950 . S
C1490 C1489 1.398 . S
C1490 C1491 1.391 . S
C1491 H1479 0.950 . S
C1491 C1487 1.393 . S
C1491 C1490 1.391 . S
H1492 C1500 0.950 . S
H1493 C1505 0.950 . S
H1494 C1502 0.950 . S
H1495 C1504 0.950 . S
H1496 C1506 0.950 . S
H1497 C1508 0.950 . S
H1498 C1510 0.950 . S
H1499 C1511 0.950 . S
C1500 H1492 0.950 . S
C1500 C1501 1.386 . S
C1500 C1502 1.391 . S
C1501 C1500 1.386 . S
C1501 C1505 1.393 1_554 S
C1502 H1494 0.950 . S
C1502 C1500 1.391 . S
C1502 C1503 1.429 . S
C1503 C1502 1.429 . S
C1503 C1504 1.372 1_554 S
C1503 C1509 1.488 1_554 S
C1504 H1495 0.950 . S
C1504 C1503 1.372 1_556 S
C1504 C1505 1.391 . S
C1505 H1493 0.950 . S
C1505 C1501 1.393 1_556 S
C1505 C1504 1.391 . S
C1506 H1496 0.950 . S
C1506 C1507 1.386 . S
C1506 C1508 1.391 . S
C1507 C1506 1.386 . S
C1507 C1511 1.393 1_556 S
C1508 H1497 0.950 . S
C1508 C1506 1.391 . S
C1508 C1509 1.429 . S
C1509 C1503 1.488 1_556 S
C1509 C1508 1.429 . S
C1509 C1510 1.372 1_556 S
C1510 H1498 0.950 . S
C1510 C1509 1.372 1_554 S
C1510 C1511 1.391 . S
C1511 H1499 0.950 . S
C1511 C1507 1.393 1_554 S
C1511 C1510 1.391 . S
H1512 C1520 0.950 . S
H1513 C1525 0.950 . S
H1514 C1522 0.950 . S
H1515 C1524 0.950 . S
H1516 C1526 0.950 . S
H1517 C1528 0.950 . S
H1518 C1530 0.950 . S
H1519 C1531 0.950 . S
C1520 H1512 0.950 . S
C1520 C1521 1.386 . S
C1520 C1522 1.391 . S
C1521 C1520 1.386 . S
C1521 C1525 1.393 . S
C1522 H1514 0.950 . S
C1522 C1520 1.391 . S
C1522 C1523 1.400 . S
C1523 C1522 1.400 . S
C1523 C1524 1.398 . S
C1523 C1529 1.491 . S
C1524 H1515 0.950 . S
C1524 C1523 1.398 . S
C1524 C1525 1.391 . S
C1525 H1513 0.950 . S
C1525 C1521 1.393 . S
C1525 C1524 1.391 . S
C1526 H1516 0.950 . S
C1526 C1527 1.386 . S
C1526 C1528 1.391 . S
C1527 C1526 1.386 . S
C1527 C1531 1.393 . S
C1528 H1517 0.950 . S
C1528 C1526 1.391 . S
C1528 C1529 1.400 . S
C1529 C1523 1.491 . S
C1529 C1528 1.400 . S
C1529 C1530 1.398 . S
C1530 H1518 0.950 . S
C1530 C1529 1.398 . S
C1530 C1531 1.391 . S
C1531 H1519 0.950 . S
C1531 C1527 1.393 . S
C1531 C1530 1.391 . S
H1532 C1540 0.950 . S
H1533 C1545 0.950 . S
H1534 C1542 0.950 . S
H1535 C1544 0.950 . S
H1536 C1546 0.950 . S
H1537 C1548 0.950 . S
H1538 C1550 0.950 . S
H1539 C1551 0.950 . S
C1540 H1532 0.950 . S
C1540 C1541 1.386 . S
C1540 C1542 1.391 . S
C1541 C1540 1.386 . S
C1541 C1545 1.393 . S
C1542 H1534 0.950 . S
C1542 C1540 1.391 . S
C1542 C1543 1.400 . S
C1543 C1542 1.400 . S
C1543 C1544 1.398 . S
C1543 C1549 1.491 . S
C1544 H1535 0.950 . S
C1544 C1543 1.398 . S
C1544 C1545 1.391 . S
C1545 H1533 0.950 . S
C1545 C1541 1.393 . S
C1545 C1544 1.391 . S
C1546 H1536 0.950 . S
C1546 C1547 1.386 . S
C1546 C1548 1.391 . S
C1547 C1546 1.386 . S
C1547 C1551 1.393 . S
C1548 H1537 0.950 . S
C1548 C1546 1.391 . S
C1548 C1549 1.400 . S
C1549 C1543 1.491 . S
C1549 C1548 1.400 . S
C1549 C1550 1.398 . S
C1550 H1538 0.950 . S
C1550 C1549 1.398 . S
C1550 C1551 1.391 . S
C1551 H1539 0.950 . S
C1551 C1547 1.393 . S
C1551 C1550 1.391 . S
H1552 C1560 0.950 . S
H1553 C1565 0.950 . S
H1554 C1562 0.950 . S
H1555 C1564 0.950 . S
H1556 C1566 0.950 . S
H1557 C1568 0.950 . S
H1558 C1570 0.950 . S
H1559 C1571 0.950 . S
C1560 H1552 0.950 . S
C1560 C1561 1.386 . S
C1560 C1562 1.391 . S
C1561 C1560 1.386 . S
C1561 C1565 1.393 . S
C1562 H1554 0.950 . S
C1562 C1560 1.391 . S
C1562 C1563 1.400 . S
C1563 C1562 1.400 . S
C1563 C1564 1.398 . S
C1563 C1569 1.491 . S
C1564 H1555 0.950 . S
C1564 C1563 1.398 . S
C1564 C1565 1.391 . S
C1565 H1553 0.950 . S
C1565 C1561 1.393 . S
C1565 C1564 1.391 . S
C1566 H1556 0.950 . S
C1566 C1567 1.386 . S
C1566 C1568 1.391 . S
C1567 C1566 1.386 . S
C1567 C1571 1.393 . S
C1568 H1557 0.950 . S
C1568 C1566 1.391 . S
C1568 C1569 1.400 . S
C1569 C1563 1.491 . S
C1569 C1568 1.400 . S
C1569 C1570 1.398 . S
C1570 H1558 0.950 . S
C1570 C1569 1.398 . S
C1570 C1571 1.391 . S
C1571 H1559 0.950 . S
C1571 C1567 1.393 . S
C1571 C1570 1.391 . S
H1572 C1580 0.950 . S
H1573 C1585 0.950 . S
H1574 C1582 0.950 . S
H1575 C1584 0.950 . S
H1576 C1586 0.950 . S
H1577 C1588 0.950 . S
H1578 C1590 0.950 . S
H1579 C1591 0.950 . S
C1580 H1572 0.950 . S
C1580 C1581 1.386 . S
C1580 C1582 1.391 . S
C1581 C1580 1.386 . S
C1581 C1585 1.393 . S
C1582 H1574 0.950 . S
C1582 C1580 1.391 . S
C1582 C1583 1.400 . S
C1583 C1582 1.400 . S
C1583 C1584 1.398 . S
C1583 C1589 1.491 . S
C1584 H1575 0.950 . S
C1584 C1583 1.398 . S
C1584 C1585 1.391 . S
C1585 H1573 0.950 . S
C1585 C1581 1.393 . S
C1585 C1584 1.391 . S
C1586 H1576 0.950 . S
C1586 C1587 1.386 . S
C1586 C1588 1.391 . S
C1587 C1586 1.386 . S
C1587 C1591 1.393 . S
C1588 H1577 0.950 . S
C1588 C1586 1.391 . S
C1588 C1589 1.400 . S
C1589 C1583 1.491 . S
C1589 C1588 1.400 . S
C1589 C1590 1.398 . S
C1590 H1578 0.950 . S
C1590 C1589 1.398 . S
C1590 C1591 1.391 . S
C1591 H1579 0.950 . S
C1591 C1587 1.393 . S
C1591 C1590 1.391 . S
H1592 C1600 0.950 . S
H1593 C1605 0.950 . S
H1594 C1602 0.950 . S
H1595 C1604 0.950 . S
H1596 C1606 0.950 . S
H1597 C1608 0.950 . S
H1598 C1610 0.950 . S
H1599 C1611 0.950 . S
C1600 H1592 0.950 . S
C1600 C1601 1.386 . S
C1600 C1602 1.391 . S
C1601 C1600 1.386 . S
C1601 C1605 1.393 . S
C1602 H1594 0.950 . S
C1602 C1600 1.391 . S
C1602 C1603 1.400 . S
C1603 C1602 1.400 . S
C1603 C1604 1.398 . S
C1603 C1609 1.491 . S
C1604 H1595 0.950 . S
C1604 C1603 1.398 . S
C1604 C1605 1.391 . S
C1605 H1593 0.950 . S
C1605 C1601 1.393 . S
C1605 C1604 1.391 . S
C1606 H1596 0.950 . S
C1606 C1607 1.386 . S
C1606 C1608 1.391 . S
C1607 C1606 1.386 . S
C1607 C1611 1.393 . S
C1608 H1597 0.950 . S
C1608 C1606 1.391 . S
C1608 C1609 1.400 . S
C1609 C1603 1.491 . S
C1609 C1608 1.400 . S
C1609 C1610 1.398 . S
C1610 H1598 0.950 . S
C1610 C1609 1.398 . S
C1610 C1611 1.391 . S
C1611 H1599 0.950 . S
C1611 C1607 1.393 . S
C1611 C1610 1.391 . S
H1612 C1620 0.950 . S
H1613 C1625 0.950 . S
H1614 C1622 0.950 . S
H1615 C1624 0.950 . S
H1616 C1626 0.950 . S
H1617 C1628 0.950 . S
H1618 C1630 0.950 . S
H1619 C1631 0.950 . S
C1620 H1612 0.950 . S
C1620 C1621 1.386 . S
C1620 C1622 1.391 . S
C1621 C1620 1.386 . S
C1621 C1625 1.393 . S
C1622 H1614 0.950 . S
C1622 C1620 1.391 . S
C1622 C1623 1.400 . S
C1623 C1622 1.400 . S
C1623 C1624 1.398 . S
C1623 C1629 1.491 . S
C1624 H1615 0.950 . S
C1624 C1623 1.398 . S
C1624 C1625 1.391 . S
C1625 H1613 0.950 . S
C1625 C1621 1.393 . S
C1625 C1624 1.391 . S
C1626 H1616 0.950 . S
C1626 C1627 1.386 . S
C1626 C1628 1.391 . S
C1627 C1626 1.386 . S
C1627 C1631 1.393 . S
C1628 H1617 0.950 . S
C1628 C1626 1.391 . S
C1628 C1629 1.400 . S
C1629 C1623 1.491 . S
C1629 C1628 1.400 . S
C1629 C1630 1.398 . S
C1630 H1618 0.950 . S
C1630 C1629 1.398 . S
C1630 C1631 1.391 . S
C1631 H1619 0.950 . S
C1631 C1627 1.393 . S
C1631 C1630 1.391 . S
H1632 C1640 0.950 . S
H1633 C1645 0.950 . S
H1634 C1642 0.950 . S
H1635 C1644 0.950 . S
H1636 C1646 0.950 . S
H1637 C1648 0.950 . S
H1638 C1650 0.950 . S
H1639 C1651 0.950 . S
C1640 H1632 0.950 . S
C1640 C1641 1.386 . S
C1640 C1642 1.391 . S
C1641 C1640 1.386 . S
C1641 C1645 1.393 . S
C1642 H1634 0.950 . S
C1642 C1640 1.391 . S
C1642 C1643 1.400 . S
C1643 C1642 1.400 . S
C1643 C1644 1.398 . S
C1643 C1649 1.491 . S
C1644 H1635 0.950 . S
C1644 C1643 1.398 . S
C1644 C1645 1.391 . S
C1645 H1633 0.950 . S
C1645 C1641 1.393 . S
C1645 C1644 1.391 . S
C1646 H1636 0.950 . S
C1646 C1647 1.386 . S
C1646 C1648 1.391 . S
C1647 C1646 1.386 . S
C1647 C1651 1.393 . S
C1648 H1637 0.950 . S
C1648 C1646 1.391 . S
C1648 C1649 1.400 . S
C1649 C1643 1.491 . S
C1649 C1648 1.400 . S
C1649 C1650 1.398 . S
C1650 H1638 0.950 . S
C1650 C1649 1.398 . S
C1650 C1651 1.391 . S
C1651 H1639 0.950 . S
C1651 C1647 1.393 . S
C1651 C1650 1.391 . S
H1652 C1660 0.950 . S
H1653 C1665 0.950 . S
H1654 C1662 0.950 . S
H1655 C1664 0.950 . S
H1656 C1666 0.950 . S
H1657 C1668 0.950 . S
H1658 C1670 0.950 . S
H1659 C1671 0.950 . S
C1660 H1652 0.950 . S
C1660 C1661 1.386 . S
C1660 C1662 1.391 . S
C1661 C1660 1.386 . S
C1661 C1665 1.393 . S
C1662 H1654 0.950 . S
C1662 C1660 1.391 . S
C1662 C1663 1.400 . S
C1663 C1662 1.400 . S
C1663 C1664 1.398 . S
C1663 C1669 1.491 . S
C1664 H1655 0.950 . S
C1664 C1663 1.398 . S
C1664 C1665 1.391 . S
C1665 H1653 0.950 . S
C1665 C1661 1.393 . S
C1665 C1664 1.391 . S
C1666 H1656 0.950 . S
C1666 C1667 1.386 . S
C1666 C1668 1.391 . S
C1667 C1666 1.386 . S
C1667 C1671 1.393 . S
C1668 H1657 0.950 . S
C1668 C1666 1.391 . S
C1668 C1669 1.400 . S
C1669 C1663 1.491 . S
C1669 C1668 1.400 . S
C1669 C1670 1.398 . S
C1670 H1658 0.950 . S
C1670 C1669 1.398 . S
C1670 C1671 1.391 . S
C1671 H1659 0.950 . S
C1671 C1667 1.393 . S
C1671 C1670 1.391 . S
H1672 C1680 0.950 . S
H1673 C1685 0.950 . S
H1674 C1682 0.950 . S
H1675 C1684 0.950 . S
H1676 C1686 0.937 1_655 S
H1677 C1688 0.951 . S
H1678 C1690 0.950 . S
H1679 C1691 0.950 . S
C1680 H1672 0.950 . S
C1680 C1681 1.386 . S
C1680 C1682 1.391 . S
C1681 C1680 1.386 . S
C1681 C1685 1.393 1_455 S
C1682 H1674 0.950 . S
C1682 C1680 1.391 . S
C1682 C1683 1.400 . S
C1683 C1682 1.400 . S
C1683 C1684 1.398 1_455 S
C1683 C1689 1.491 . S
C1684 H1675 0.950 . S
C1684 C1683 1.398 1_655 S
C1684 C1685 1.391 . S
C1685 H1673 0.950 . S
C1685 C1681 1.393 1_655 S
C1685 C1684 1.391 . S
C1686 H1676 0.937 1_455 S
C1686 C1687 1.399 . S
C1686 C1688 1.392 1_455 S
C1687 C1686 1.399 . S
C1687 C1691 1.393 . S
C1688 H1677 0.951 . S
C1688 C1686 1.392 1_655 S
C1688 C1689 1.399 1_655 S
C1689 C1683 1.491 . S
C1689 C1688 1.399 1_455 S
C1689 C1690 1.398 . S
C1690 H1678 0.950 . S
C1690 C1689 1.398 . S
C1690 C1691 1.391 . S
C1691 H1679 0.950 . S
C1691 C1687 1.393 . S
C1691 C1690 1.391 . S
H1692 C1700 0.950 . S
H1693 C1705 0.950 . S
H1694 C1702 0.950 . S
H1695 C1704 0.950 . S
H1696 C1706 0.950 . S
H1697 C1708 0.950 . S
H1698 C1710 0.950 . S
H1699 C1711 0.950 . S
C1700 H1692 0.950 . S
C1700 C1701 1.386 . S
C1700 C1702 1.391 . S
C1701 C1700 1.386 . S
C1701 C1705 1.393 . S
C1702 H1694 0.950 . S
C1702 C1700 1.391 . S
C1702 C1703 1.400 . S
C1703 C1702 1.400 . S
C1703 C1704 1.398 . S
C1703 C1709 1.491 . S
C1704 H1695 0.950 . S
C1704 C1703 1.398 . S
C1704 C1705 1.391 . S
C1705 H1693 0.950 . S
C1705 C1701 1.393 . S
C1705 C1704 1.391 . S
C1706 H1696 0.950 . S
C1706 C1707 1.386 . S
C1706 C1708 1.391 . S
C1707 C1706 1.386 . S
C1707 C1711 1.393 . S
C1708 H1697 0.950 . S
C1708 C1706 1.391 . S
C1708 C1709 1.400 . S
C1709 C1703 1.491 . S
C1709 C1708 1.400 . S
C1709 C1710 1.398 . S
C1710 H1698 0.950 . S
C1710 C1709 1.398 . S
C1710 C1711 1.391 . S
C1711 H1699 0.950 . S
C1711 C1707 1.393 . S
C1711 C1710 1.391 . S
H1712 C1720 0.950 . S
H1713 C1725 0.950 . S
H1714 C1722 0.950 . S
H1715 C1724 0.950 . S
H1716 C1726 0.950 . S
H1717 C1728 0.950 . S
H1718 C1730 0.950 . S
H1719 C1731 0.950 . S
C1720 H1712 0.950 . S
C1720 C1721 1.386 . S
C1720 C1722 1.391 . S
C1721 C1720 1.386 . S
C1721 C1725 1.393 . S
C1722 H1714 0.950 . S
C1722 C1720 1.391 . S
C1722 C1723 1.400 . S
C1723 C1722 1.400 . S
C1723 C1724 1.398 . S
C1723 C1729 1.491 . S
C1724 H1715 0.950 . S
C1724 C1723 1.398 . S
C1724 C1725 1.391 . S
C1725 H1713 0.950 . S
C1725 C1721 1.393 . S
C1725 C1724 1.391 . S
C1726 H1716 0.950 . S
C1726 C1727 1.386 . S
C1726 C1728 1.391 . S
C1727 C1726 1.386 . S
C1727 C1731 1.393 . S
C1728 H1717 0.950 . S
C1728 C1726 1.391 . S
C1728 C1729 1.400 . S
C1729 C1723 1.491 . S
C1729 C1728 1.400 . S
C1729 C1730 1.398 . S
C1730 H1718 0.950 . S
C1730 C1729 1.398 . S
C1730 C1731 1.391 . S
C1731 H1719 0.950 . S
C1731 C1727 1.393 . S
C1731 C1730 1.391 . S
H1732 C1740 0.950 . S
H1733 C1745 0.950 . S
H1734 C1742 0.950 . S
H1735 C1744 0.950 . S
H1736 C1746 0.950 . S
H1737 C1748 0.950 . S
H1738 C1750 0.950 . S
H1739 C1751 0.950 . S
C1740 H1732 0.950 . S
C1740 C1741 1.386 . S
C1740 C1742 1.391 . S
C1741 C1740 1.386 . S
C1741 C1745 1.393 . S
C1742 H1734 0.950 . S
C1742 C1740 1.391 . S
C1742 C1743 1.400 . S
C1743 C1742 1.400 . S
C1743 C1744 1.398 . S
C1743 C1749 1.491 . S
C1744 H1735 0.950 . S
C1744 C1743 1.398 . S
C1744 C1745 1.391 . S
C1745 H1733 0.950 . S
C1745 C1741 1.393 . S
C1745 C1744 1.391 . S
C1746 H1736 0.950 . S
C1746 C1747 1.386 . S
C1746 C1748 1.391 . S
C1747 C1746 1.386 . S
C1747 C1751 1.393 . S
C1748 H1737 0.950 . S
C1748 C1746 1.391 . S
C1748 C1749 1.400 . S
C1749 C1743 1.491 . S
C1749 C1748 1.400 . S
C1749 C1750 1.398 . S
C1750 H1738 0.950 . S
C1750 C1749 1.398 . S
C1750 C1751 1.391 . S
C1751 H1739 0.950 . S
C1751 C1747 1.393 . S
C1751 C1750 1.391 . S
H1752 C1760 0.950 . S
H1753 C1765 0.950 . S
H1754 C1762 0.950 . S
H1755 C1764 0.950 . S
H1756 C1766 0.950 . S
H1757 C1768 0.950 . S
H1758 C1770 0.950 . S
H1759 C1771 0.950 . S
C1760 H1752 0.950 . S
C1760 C1761 1.386 . S
C1760 C1762 1.391 . S
C1761 C1760 1.386 . S
C1761 C1765 1.393 1_455 S
C1762 H1754 0.950 . S
C1762 C1760 1.391 . S
C1762 C1763 1.400 . S
C1763 C1762 1.400 . S
C1763 C1764 1.398 1_455 S
C1763 C1769 1.491 . S
C1764 H1755 0.950 . S
C1764 C1763 1.398 1_655 S
C1764 C1765 1.391 . S
C1765 H1753 0.950 . S
C1765 C1761 1.393 1_655 S
C1765 C1764 1.391 . S
C1766 H1756 0.950 . S
C1766 C1767 1.386 1_655 S
C1766 C1768 1.391 . S
C1767 C1766 1.386 1_455 S
C1767 C1771 1.393 . S
C1768 H1757 0.950 . S
C1768 C1766 1.391 . S
C1768 C1769 1.400 1_655 S
C1769 C1763 1.491 . S
C1769 C1768 1.400 1_455 S
C1769 C1770 1.398 . S
C1770 H1758 0.950 . S
C1770 C1769 1.398 . S
C1770 C1771 1.391 . S
C1771 H1759 0.950 . S
C1771 C1767 1.393 . S
C1771 C1770 1.391 . S
H1772 C1780 0.950 . S
H1773 C1785 0.950 . S
H1774 C1782 0.950 . S
H1775 C1784 0.950 . S
H1776 C1786 0.950 . S
H1777 C1788 0.950 . S
H1778 C1790 0.950 . S
H1779 C1791 0.950 . S
C1780 H1772 0.950 . S
C1780 C1781 1.386 . S
C1780 C1782 1.391 . S
C1781 C1780 1.386 . S
C1781 C1785 1.393 . S
C1782 H1774 0.950 . S
C1782 C1780 1.391 . S
C1782 C1783 1.400 . S
C1783 C1782 1.400 . S
C1783 C1784 1.398 . S
C1783 C1789 1.491 . S
C1784 H1775 0.950 . S
C1784 C1783 1.398 . S
C1784 C1785 1.391 . S
C1785 H1773 0.950 . S
C1785 C1781 1.393 . S
C1785 C1784 1.391 . S
C1786 H1776 0.950 . S
C1786 C1787 1.386 . S
C1786 C1788 1.391 . S
C1787 C1786 1.386 . S
C1787 C1791 1.393 . S
C1788 H1777 0.950 . S
C1788 C1786 1.391 . S
C1788 C1789 1.400 . S
C1789 C1783 1.491 . S
C1789 C1788 1.400 . S
C1789 C1790 1.398 . S
C1790 H1778 0.950 . S
C1790 C1789 1.398 . S
C1790 C1791 1.391 . S
C1791 H1779 0.950 . S
C1791 C1787 1.393 . S
C1791 C1790 1.391 . S
H1792 C1800 0.950 . S
H1793 C1805 0.950 . S
H1794 C1802 0.950 . S
H1795 C1804 0.950 . S
H1796 C1806 0.950 . S
H1797 C1808 0.950 . S
H1798 C1810 0.950 . S
H1799 C1811 0.950 . S
C1800 H1792 0.950 . S
C1800 C1801 1.386 . S
C1800 C1802 1.391 . S
C1801 C1800 1.386 . S
C1801 C1805 1.393 . S
C1802 H1794 0.950 . S
C1802 C1800 1.391 . S
C1802 C1803 1.400 . S
C1803 C1802 1.400 . S
C1803 C1804 1.398 . S
C1803 C1809 1.491 . S
C1804 H1795 0.950 . S
C1804 C1803 1.398 . S
C1804 C1805 1.391 . S
C1805 H1793 0.950 . S
C1805 C1801 1.393 . S
C1805 C1804 1.391 . S
C1806 H1796 0.950 . S
C1806 C1807 1.386 . S
C1806 C1808 1.391 . S
C1807 C1806 1.386 . S
C1807 C1811 1.393 . S
C1808 H1797 0.950 . S
C1808 C1806 1.391 . S
C1808 C1809 1.400 . S
C1809 C1803 1.491 . S
C1809 C1808 1.400 . S
C1809 C1810 1.398 . S
C1810 H1798 0.950 . S
C1810 C1809 1.398 . S
C1810 C1811 1.391 . S
C1811 H1799 0.950 . S
C1811 C1807 1.393 . S
C1811 C1810 1.391 . S
H1812 C1820 0.950 . S
H1813 C1825 0.950 . S
H1814 C1822 0.950 . S
H1815 C1824 0.950 . S
H1816 C1826 0.950 . S
H1817 C1828 0.950 . S
H1818 C1830 0.950 . S
H1819 C1831 0.950 . S
C1820 H1812 0.950 . S
C1820 C1821 1.386 . S
C1820 C1822 1.391 . S
C1821 C1820 1.386 . S
C1821 C1825 1.393 . S
C1822 H1814 0.950 . S
C1822 C1820 1.391 . S
C1822 C1823 1.400 . S
C1823 C1822 1.400 . S
C1823 C1824 1.398 . S
C1823 C1829 1.491 . S
C1824 H1815 0.950 . S
C1824 C1823 1.398 . S
C1824 C1825 1.391 . S
C1825 H1813 0.950 . S
C1825 C1821 1.393 . S
C1825 C1824 1.391 . S
C1826 H1816 0.950 . S
C1826 C1827 1.386 . S
C1826 C1828 1.391 . S
C1827 C1826 1.386 . S
C1827 C1831 1.393 . S
C1828 H1817 0.950 . S
C1828 C1826 1.391 . S
C1828 C1829 1.400 . S
C1829 C1823 1.491 . S
C1829 C1828 1.400 . S
C1829 C1830 1.398 . S
C1830 H1818 0.950 . S
C1830 C1829 1.398 . S
C1830 C1831 1.391 . S
C1831 H1819 0.950 . S
C1831 C1827 1.393 . S
C1831 C1830 1.391 . S
H1832 C1840 0.950 . S
H1833 C1845 0.950 . S
H1834 C1842 0.950 . S
H1835 C1844 0.950 . S
H1836 C1846 0.949 1_455 S
H1837 C1848 0.950 . S
H1838 C1850 0.950 . S
H1839 C1851 0.950 . S
C1840 H1832 0.950 . S
C1840 C1841 1.386 . S
C1840 C1842 1.391 . S
C1841 C1840 1.386 . S
C1841 C1845 1.393 . S
C1842 H1834 0.950 . S
C1842 C1840 1.391 . S
C1842 C1843 1.400 . S
C1843 C1842 1.400 . S
C1843 C1844 1.398 . S
C1843 C1849 1.491 . S
C1844 H1835 0.950 . S
C1844 C1843 1.398 . S
C1844 C1845 1.391 . S
C1845 H1833 0.950 . S
C1845 C1841 1.393 . S
C1845 C1844 1.391 . S
C1846 H1836 0.949 1_655 S
C1846 C1847 1.386 . S
C1846 C1848 1.391 . S
C1847 C1846 1.386 . S
C1847 C1851 1.393 . S
C1848 H1837 0.950 . S
C1848 C1846 1.391 . S
C1848 C1849 1.400 . S
C1849 C1843 1.491 . S
C1849 C1848 1.400 . S
C1849 C1850 1.398 . S
C1850 H1838 0.950 . S
C1850 C1849 1.398 . S
C1850 C1851 1.391 . S
C1851 H1839 0.950 . S
C1851 C1847 1.393 . S
C1851 C1850 1.391 . S
H1852 C1860 0.950 . S
H1853 C1865 0.950 . S
H1854 C1862 0.950 . S
H1855 C1864 0.950 . S
H1856 C1866 0.950 . S
H1857 C1868 0.950 . S
H1858 C1870 0.950 . S
H1859 C1871 0.950 . S
C1860 H1852 0.950 . S
C1860 C1861 1.386 . S
C1860 C1862 1.391 . S
C1861 C1860 1.386 . S
C1861 C1865 1.393 . S
C1862 H1854 0.950 . S
C1862 C1860 1.391 . S
C1862 C1863 1.400 . S
C1863 C1862 1.400 . S
C1863 C1864 1.398 . S
C1863 C1869 1.491 . S
C1864 H1855 0.950 . S
C1864 C1863 1.398 . S
C1864 C1865 1.391 . S
C1865 H1853 0.950 . S
C1865 C1861 1.393 . S
C1865 C1864 1.391 . S
C1866 H1856 0.950 . S
C1866 C1867 1.386 . S
C1866 C1868 1.391 . S
C1867 C1866 1.386 . S
C1867 C1871 1.393 . S
C1868 H1857 0.950 . S
C1868 C1866 1.391 . S
C1868 C1869 1.400 . S
C1869 C1863 1.491 . S
C1869 C1868 1.400 . S
C1869 C1870 1.398 . S
C1870 H1858 0.950 . S
C1870 C1869 1.398 . S
C1870 C1871 1.391 . S
C1871 H1859 0.950 . S
C1871 C1867 1.393 . S
C1871 C1870 1.391 . S
H1872 C1880 0.950 . S
H1873 C1885 0.950 . S
H1874 C1882 0.950 . S
H1875 C1884 0.950 . S
H1876 C1886 0.950 . S
H1877 C1888 0.950 . S
H1878 C1890 0.950 . S
H1879 C1891 0.950 . S
C1880 H1872 0.950 . S
C1880 C1881 1.386 . S
C1880 C1882 1.391 . S
C1881 C1880 1.386 . S
C1881 C1885 1.393 . S
C1882 H1874 0.950 . S
C1882 C1880 1.391 . S
C1882 C1883 1.400 . S
C1883 C1882 1.400 . S
C1883 C1884 1.398 . S
C1883 C1889 1.491 . S
C1884 H1875 0.950 . S
C1884 C1883 1.398 . S
C1884 C1885 1.391 . S
C1885 H1873 0.950 . S
C1885 C1881 1.393 . S
C1885 C1884 1.391 . S
C1886 H1876 0.950 . S
C1886 C1887 1.386 . S
C1886 C1888 1.391 . S
C1887 C1886 1.386 . S
C1887 C1891 1.393 . S
C1888 H1877 0.950 . S
C1888 C1886 1.391 . S
C1888 C1889 1.400 . S
C1889 C1883 1.491 . S
C1889 C1888 1.400 . S
C1889 C1890 1.398 . S
C1890 H1878 0.950 . S
C1890 C1889 1.398 . S
C1890 C1891 1.391 . S
C1891 H1879 0.950 . S
C1891 C1887 1.393 . S
C1891 C1890 1.391 . S
H1892 C1900 0.950 . S
H1893 C1905 0.950 . S
H1894 C1902 0.950 . S
H1895 C1904 0.950 . S
H1896 C1906 0.950 . S
H1897 C1908 0.950 . S
H1898 C1910 0.950 . S
H1899 C1911 0.950 . S
C1900 H1892 0.950 . S
C1900 C1901 1.386 . S
C1900 C1902 1.391 . S
C1901 C1900 1.386 . S
C1901 C1905 1.393 . S
C1902 H1894 0.950 . S
C1902 C1900 1.391 . S
C1902 C1903 1.400 . S
C1903 C1902 1.400 . S
C1903 C1904 1.398 . S
C1903 C1909 1.491 . S
C1904 H1895 0.950 . S
C1904 C1903 1.398 . S
C1904 C1905 1.391 . S
C1905 H1893 0.950 . S
C1905 C1901 1.393 . S
C1905 C1904 1.391 . S
C1906 H1896 0.950 . S
C1906 C1907 1.386 . S
C1906 C1908 1.391 . S
C1907 C1906 1.386 . S
C1907 C1911 1.393 . S
C1908 H1897 0.950 . S
C1908 C1906 1.391 . S
C1908 C1909 1.400 . S
C1909 C1903 1.491 . S
C1909 C1908 1.400 . S
C1909 C1910 1.398 . S
C1910 H1898 0.950 . S
C1910 C1909 1.398 . S
C1910 C1911 1.391 . S
C1911 H1899 0.950 . S
C1911 C1907 1.393 . S
C1911 C1910 1.391 . S
H1912 C1920 0.950 . S
H1913 C1925 0.950 . S
H1914 C1922 0.950 . S
H1915 C1924 0.950 . S
H1916 C1926 0.950 . S
H1917 C1928 0.950 . S
H1918 C1930 0.950 . S
H1919 C1931 0.950 . S
C1920 H1912 0.950 . S
C1920 C1921 1.386 . S
C1920 C1922 1.391 . S
C1921 C1920 1.386 . S
C1921 C1925 1.393 . S
C1922 H1914 0.950 . S
C1922 C1920 1.391 . S
C1922 C1923 1.400 . S
C1923 C1922 1.400 . S
C1923 C1924 1.398 . S
C1923 C1929 1.491 . S
C1924 H1915 0.950 . S
C1924 C1923 1.398 . S
C1924 C1925 1.391 . S
C1925 H1913 0.950 . S
C1925 C1921 1.393 . S
C1925 C1924 1.391 . S
C1926 H1916 0.950 . S
C1926 C1927 1.386 . S
C1926 C1928 1.391 . S
C1927 C1926 1.386 . S
C1927 C1931 1.393 . S
C1928 H1917 0.950 . S
C1928 C1926 1.391 . S
C1928 C1929 1.400 . S
C1929 C1923 1.491 . S
C1929 C1928 1.400 . S
C1929 C1930 1.398 . S
C1930 H1918 0.950 . S
C1930 C1929 1.398 . S
C1930 C1931 1.391 . S
C1931 H1919 0.950 . S
C1931 C1927 1.393 . S
C1931 C1930 1.391 . S
H1932 C1940 0.950 . S
H1933 C1945 0.950 . S
H1934 C1942 0.950 . S
H1935 C1944 0.950 . S
H1936 C1946 0.950 . S
H1937 C1948 0.950 . S
H1938 C1950 0.950 . S
H1939 C1951 0.950 . S
C1940 H1932 0.950 . S
C1940 C1941 1.386 . S
C1940 C1942 1.391 . S
C1941 C1940 1.386 . S
C1941 C1945 1.393 . S
C1942 H1934 0.950 . S
C1942 C1940 1.391 . S
C1942 C1943 1.400 . S
C1943 C1942 1.400 . S
C1943 C1944 1.398 . S
C1943 C1949 1.491 . S
C1944 H1935 0.950 . S
C1944 C1943 1.398 . S
C1944 C1945 1.391 . S
C1945 H1933 0.950 . S
C1945 C1941 1.393 . S
C1945 C1944 1.391 . S
C1946 H1936 0.950 . S
C1946 C1947 1.386 . S
C1946 C1948 1.391 . S
C1947 C1946 1.386 . S
C1947 C1951 1.393 . S
C1948 H1937 0.950 . S
C1948 C1946 1.391 . S
C1948 C1949 1.400 . S
C1949 C1943 1.491 . S
C1949 C1948 1.400 . S
C1949 C1950 1.398 . S
C1950 H1938 0.950 . S
C1950 C1949 1.398 . S
C1950 C1951 1.391 . S
C1951 H1939 0.950 . S
C1951 C1947 1.393 . S
C1951 C1950 1.391 . S
H1952 C1960 0.950 . S
H1953 C1965 0.950 . S
H1954 C1962 0.950 . S
H1955 C1964 0.950 . S
H1956 C1966 0.950 . S
H1957 C1968 0.950 . S
H1958 C1970 0.950 . S
H1959 C1971 0.950 . S
C1960 H1952 0.950 . S
C1960 C1961 1.386 . S
C1960 C1962 1.391 . S
C1961 C1960 1.386 . S
C1961 C1965 1.393 . S
C1962 H1954 0.950 . S
C1962 C1960 1.391 . S
C1962 C1963 1.400 . S
C1963 C1962 1.400 . S
C1963 C1964 1.398 . S
C1963 C1969 1.491 . S
C1964 H1955 0.950 . S
C1964 C1963 1.398 . S
C1964 C1965 1.391 . S
C1965 H1953 0.950 . S
C1965 C1961 1.393 . S
C1965 C1964 1.391 . S
C1966 H1956 0.950 . S
C1966 C1967 1.386 . S
C1966 C1968 1.391 . S
C1967 C1966 1.386 . S
C1967 C1971 1.393 . S
C1968 H1957 0.950 . S
C1968 C1966 1.391 . S
C1968 C1969 1.400 . S
C1969 C1963 1.491 . S
C1969 C1968 1.400 . S
C1969 C1970 1.398 . S
C1970 H1958 0.950 . S
C1970 C1969 1.398 . S
C1970 C1971 1.391 . S
C1971 H1959 0.950 . S
C1971 C1967 1.393 . S
C1971 C1970 1.391 . S
H1972 C1980 0.950 . S
H1973 C1985 0.950 . S
H1974 C1982 0.950 . S
H1975 C1984 0.950 . S
H1976 C1986 0.950 . S
H1977 C1988 0.950 . S
H1978 C1990 0.950 . S
H1979 C1991 0.950 . S
C1980 H1972 0.950 . S
C1980 C1981 1.386 . S
C1980 C1982 1.391 . S
C1981 C1980 1.386 . S
C1981 C1985 1.393 . S
C1982 H1974 0.950 . S
C1982 C1980 1.391 . S
C1982 C1983 1.400 . S
C1983 C1982 1.400 . S
C1983 C1984 1.398 . S
C1983 C1989 1.491 . S
C1984 H1975 0.950 . S
C1984 C1983 1.398 . S
C1984 C1985 1.391 . S
C1985 H1973 0.950 . S
C1985 C1981 1.393 . S
C1985 C1984 1.391 . S
C1986 H1976 0.950 . S
C1986 C1987 1.386 . S
C1986 C1988 1.391 . S
C1987 C1986 1.386 . S
C1987 C1991 1.393 . S
C1988 H1977 0.950 . S
C1988 C1986 1.391 . S
C1988 C1989 1.400 . S
C1989 C1983 1.491 . S
C1989 C1988 1.400 . S
C1989 C1990 1.398 . S
C1990 H1978 0.950 . S
C1990 C1989 1.398 . S
C1990 C1991 1.391 . S
C1991 H1979 0.950 . S
C1991 C1987 1.393 . S
C1991 C1990 1.391 . S
H1992 C2000 0.950 . S
H1993 C2005 0.950 . S
H1994 C2002 0.950 . S
H1995 C2004 0.950 . S
H1996 C2006 0.950 . S
H1997 C2008 0.950 . S
H1998 C2010 0.950 . S
H1999 C2011 0.950 . S
C2000 H1992 0.950 . S
C2000 C2001 1.386 . S
C2000 C2002 1.391 . S
C2001 C2000 1.386 . S
C2001 C2005 1.393 . S
C2002 H1994 0.950 . S
C2002 C2000 1.391 . S
C2002 C2003 1.400 . S
C2003 C2002 1.400 . S
C2003 C2004 1.398 . S
C2003 C2009 1.491 . S
C2004 H1995 0.950 . S
C2004 C2003 1.398 . S
C2004 C2005 1.391 . S
C2005 H1993 0.950 . S
C2005 C2001 1.393 . S
C2005 C2004 1.391 . S
C2006 H1996 0.950 . S
C2006 C2007 1.386 . S
C2006 C2008 1.391 . S
C2007 C2006 1.386 . S
C2007 C2011 1.393 . S
C2008 H1997 0.950 . S
C2008 C2006 1.391 . S
C2008 C2009 1.400 . S
C2009 C2003 1.491 . S
C2009 C2008 1.400 . S
C2009 C2010 1.398 . S
C2010 H1998 0.950 . S
C2010 C2009 1.398 . S
C2010 C2011 1.391 . S
C2011 H1999 0.950 . S
C2011 C2007 1.393 . S
C2011 C2010 1.391 . S
H2012 C2020 0.950 . S
H2013 C2025 0.950 . S
H2014 C2022 0.950 . S
H2015 C2024 0.950 . S
H2016 C2026 0.950 . S
H2017 C2028 0.950 . S
H2018 C2030 0.950 . S
H2019 C2031 0.950 . S
C2020 H2012 0.950 . S
C2020 C2021 1.386 . S
C2020 C2022 1.391 . S
C2021 C2020 1.386 . S
C2021 C2025 1.393 1_554 S
C2022 H2014 0.950 . S
C2022 C2020 1.391 . S
C2022 C2023 1.400 . S
C2023 C2022 1.400 . S
C2023 C2024 1.398 1_554 S
C2023 C2029 1.491 . S
C2024 H2015 0.950 . S
C2024 C2023 1.398 1_556 S
C2024 C2025 1.391 . S
C2025 H2013 0.950 . S
C2025 C2021 1.393 1_556 S
C2025 C2024 1.391 . S
C2026 H2016 0.950 . S
C2026 C2027 1.386 1_556 S
C2026 C2028 1.391 . S
C2027 C2026 1.386 1_554 S
C2027 C2031 1.393 . S
C2028 H2017 0.950 . S
C2028 C2026 1.391 . S
C2028 C2029 1.400 1_556 S
C2029 C2023 1.491 . S
C2029 C2028 1.400 1_554 S
C2029 C2030 1.398 . S
C2030 H2018 0.950 . S
C2030 C2029 1.398 . S
C2030 C2031 1.391 . S
C2031 H2019 0.950 . S
C2031 C2027 1.393 . S
C2031 C2030 1.391 . S
H2032 C2040 0.950 . S
H2033 C2045 0.950 . S
H2034 C2042 0.950 . S
H2035 C2044 0.950 . S
H2036 C2046 0.950 . S
H2037 C2048 0.950 . S
H2038 C2050 0.950 . S
H2039 C2051 0.950 . S
C2040 H2032 0.950 . S
C2040 C2041 1.386 . S
C2040 C2042 1.391 . S
C2041 C2040 1.386 . S
C2041 C2045 1.393 . S
C2042 H2034 0.950 . S
C2042 C2040 1.391 . S
C2042 C2043 1.400 . S
C2043 C2042 1.400 . S
C2043 C2044 1.398 . S
C2043 C2049 1.491 . S
C2044 H2035 0.950 . S
C2044 C2043 1.398 . S
C2044 C2045 1.391 . S
C2045 H2033 0.950 . S
C2045 C2041 1.393 . S
C2045 C2044 1.391 . S
C2046 H2036 0.950 . S
C2046 C2047 1.386 . S
C2046 C2048 1.391 . S
C2047 C2046 1.386 . S
C2047 C2051 1.393 . S
C2048 H2037 0.950 . S
C2048 C2046 1.391 . S
C2048 C2049 1.400 . S
C2049 C2043 1.491 . S
C2049 C2048 1.400 . S
C2049 C2050 1.398 . S
C2050 H2038 0.950 . S
C2050 C2049 1.398 . S
C2050 C2051 1.391 . S
C2051 H2039 0.950 . S
C2051 C2047 1.393 . S
C2051 C2050 1.391 . S
H2052 C2060 0.950 . S
H2053 C2065 0.950 . S
H2054 C2062 0.950 . S
H2055 C2064 0.950 . S
H2056 C2066 0.950 . S
H2057 C2068 0.950 . S
H2058 C2070 0.950 . S
H2059 C2071 0.950 . S
C2060 H2052 0.950 . S
C2060 C2061 1.386 . S
C2060 C2062 1.391 . S
C2061 C2060 1.386 . S
C2061 C2065 1.393 1_554 S
C2062 H2054 0.950 . S
C2062 C2060 1.391 . S
C2062 C2063 1.400 . S
C2063 C2062 1.400 . S
C2063 C2064 1.398 1_554 S
C2063 C2069 1.487 1_554 S
C2064 H2055 0.950 . S
C2064 C2063 1.398 1_556 S
C2064 C2065 1.391 . S
C2065 H2053 0.950 . S
C2065 C2061 1.393 1_556 S
C2065 C2064 1.391 . S
C2066 H2056 0.950 . S
C2066 C2067 1.386 . S
C2066 C2068 1.391 . S
C2067 C2066 1.386 . S
C2067 C2071 1.393 1_556 S
C2068 H2057 0.950 . S
C2068 C2066 1.391 . S
C2068 C2069 1.417 . S
C2069 C2063 1.487 1_556 S
C2069 C2068 1.417 . S
C2069 C2070 1.387 1_556 S
C2070 H2058 0.950 . S
C2070 C2069 1.387 1_554 S
C2070 C2071 1.391 . S
C2071 H2059 0.950 . S
C2071 C2067 1.393 1_554 S
C2071 C2070 1.391 . S
H2072 C2080 0.950 . S
H2073 C2085 0.950 . S
H2074 C2082 0.950 . S
H2075 C2084 0.950 . S
H2076 C2086 0.950 . S
H2077 C2088 0.950 . S
H2078 C2090 0.950 . S
H2079 C2091 0.950 . S
C2080 H2072 0.950 . S
C2080 C2081 1.386 . S
C2080 C2082 1.391 . S
C2081 C2080 1.386 . S
C2081 C2085 1.393 . S
C2082 H2074 0.950 . S
C2082 C2080 1.391 . S
C2082 C2083 1.400 . S
C2083 C2082 1.400 . S
C2083 C2084 1.398 . S
C2083 C2089 1.491 . S
C2084 H2075 0.950 . S
C2084 C2083 1.398 . S
C2084 C2085 1.391 . S
C2085 H2073 0.950 . S
C2085 C2081 1.393 . S
C2085 C2084 1.391 . S
C2086 H2076 0.950 . S
C2086 C2087 1.386 . S
C2086 C2088 1.391 . S
C2087 C2086 1.386 . S
C2087 C2091 1.393 . S
C2088 H2077 0.950 . S
C2088 C2086 1.391 . S
C2088 C2089 1.400 . S
C2089 C2083 1.491 . S
C2089 C2088 1.400 . S
C2089 C2090 1.398 . S
C2090 H2078 0.950 . S
C2090 C2089 1.398 . S
C2090 C2091 1.391 . S
C2091 H2079 0.950 . S
C2091 C2087 1.393 . S
C2091 C2090 1.391 . S
H2092 C2100 0.950 . S
H2093 C2105 0.950 . S
H2094 C2102 0.950 . S
H2095 C2104 0.950 . S
H2096 C2106 0.950 . S
H2097 C2108 0.950 . S
H2098 C2110 0.950 . S
H2099 C2111 0.950 . S
C2100 H2092 0.950 . S
C2100 C2101 1.386 . S
C2100 C2102 1.391 . S
C2101 C2100 1.386 . S
C2101 C2105 1.393 . S
C2102 H2094 0.950 . S
C2102 C2100 1.391 . S
C2102 C2103 1.400 . S
C2103 C2102 1.400 . S
C2103 C2104 1.398 . S
C2103 C2109 1.491 . S
C2104 H2095 0.950 . S
C2104 C2103 1.398 . S
C2104 C2105 1.391 . S
C2105 H2093 0.950 . S
C2105 C2101 1.393 . S
C2105 C2104 1.391 . S
C2106 H2096 0.950 . S
C2106 C2107 1.386 . S
C2106 C2108 1.391 . S
C2107 C2106 1.386 . S
C2107 C2111 1.393 . S
C2108 H2097 0.950 . S
C2108 C2106 1.391 . S
C2108 C2109 1.400 . S
C2109 C2103 1.491 . S
C2109 C2108 1.400 . S
C2109 C2110 1.398 . S
C2110 H2098 0.950 . S
C2110 C2109 1.398 . S
C2110 C2111 1.391 . S
C2111 H2099 0.950 . S
C2111 C2107 1.393 . S
C2111 C2110 1.391 . S
H2112 C2120 0.950 . S
H2113 C2125 0.950 . S
H2114 C2122 0.950 . S
H2115 C2124 0.950 . S
H2116 C2126 0.950 . S
H2117 C2128 0.950 . S
H2118 C2130 0.950 . S
H2119 C2131 0.950 . S
C2120 H2112 0.950 . S
C2120 C2121 1.386 . S
C2120 C2122 1.391 . S
C2121 C2120 1.386 . S
C2121 C2125 1.393 . S
C2122 H2114 0.950 . S
C2122 C2120 1.391 . S
C2122 C2123 1.400 . S
C2123 C2122 1.400 . S
C2123 C2124 1.398 . S
C2123 C2129 1.491 . S
C2124 H2115 0.950 . S
C2124 C2123 1.398 . S
C2124 C2125 1.391 . S
C2125 H2113 0.950 . S
C2125 C2121 1.393 . S
C2125 C2124 1.391 . S
C2126 H2116 0.950 . S
C2126 C2127 1.386 . S
C2126 C2128 1.391 . S
C2127 C2126 1.386 . S
C2127 C2131 1.393 . S
C2128 H2117 0.950 . S
C2128 C2126 1.391 . S
C2128 C2129 1.400 . S
C2129 C2123 1.491 . S
C2129 C2128 1.400 . S
C2129 C2130 1.398 . S
C2130 H2118 0.950 . S
C2130 C2129 1.398 . S
C2130 C2131 1.391 . S
C2131 H2119 0.950 . S
C2131 C2127 1.393 . S
C2131 C2130 1.391 . S
H2132 C2140 0.950 . S
H2133 C2145 0.950 . S
H2134 C2142 0.950 . S
H2135 C2144 0.950 . S
H2136 C2146 0.950 . S
H2137 C2148 0.950 . S
H2138 C2150 0.950 . S
H2139 C2151 0.950 . S
C2140 H2132 0.950 . S
C2140 C2141 1.386 . S
C2140 C2142 1.391 . S
C2141 C2140 1.386 . S
C2141 C2145 1.393 . S
C2142 H2134 0.950 . S
C2142 C2140 1.391 . S
C2142 C2143 1.400 . S
C2143 C2142 1.400 . S
C2143 C2144 1.398 . S
C2143 C2149 1.491 . S
C2144 H2135 0.950 . S
C2144 C2143 1.398 . S
C2144 C2145 1.391 . S
C2145 H2133 0.950 . S
C2145 C2141 1.393 . S
C2145 C2144 1.391 . S
C2146 H2136 0.950 . S
C2146 C2147 1.386 . S
C2146 C2148 1.391 . S
C2147 C2146 1.386 . S
C2147 C2151 1.393 . S
C2148 H2137 0.950 . S
C2148 C2146 1.391 . S
C2148 C2149 1.400 . S
C2149 C2143 1.491 . S
C2149 C2148 1.400 . S
C2149 C2150 1.398 . S
C2150 H2138 0.950 . S
C2150 C2149 1.398 . S
C2150 C2151 1.391 . S
C2151 H2139 0.950 . S
C2151 C2147 1.393 . S
C2151 C2150 1.391 . S
H2152 C2160 0.950 . S
H2153 C2165 0.950 . S
H2154 C2162 0.950 . S
H2155 C2164 0.950 . S
H2156 C2166 0.950 . S
H2157 C2168 0.950 . S
H2158 C2170 0.950 . S
H2159 C2171 0.950 . S
C2160 H2152 0.950 . S
C2160 C2161 1.386 . S
C2160 C2162 1.391 . S
C2161 C2160 1.386 . S
C2161 C2165 1.393 1_455 S
C2162 H2154 0.950 . S
C2162 C2160 1.391 . S
C2162 C2163 1.400 . S
C2163 C2162 1.400 . S
C2163 C2164 1.398 1_455 S
C2163 C2169 1.490 1_455 S
C2164 H2155 0.950 . S
C2164 C2163 1.398 1_655 S
C2164 C2165 1.391 . S
C2165 H2153 0.950 . S
C2165 C2161 1.393 1_655 S
C2165 C2164 1.391 . S
C2166 H2156 0.950 . S
C2166 C2167 1.386 . S
C2166 C2168 1.391 . S
C2167 C2166 1.386 . S
C2167 C2171 1.393 1_655 S
C2168 H2157 0.950 . S
C2168 C2166 1.391 . S
C2168 C2169 1.431 . S
C2169 C2163 1.490 1_655 S
C2169 C2168 1.431 . S
C2169 C2170 1.369 1_655 S
C2170 H2158 0.950 . S
C2170 C2169 1.369 1_455 S
C2170 C2171 1.391 . S
C2171 H2159 0.950 . S
C2171 C2167 1.393 1_455 S
C2171 C2170 1.391 . S
H2172 C2180 0.950 . S
H2173 C2185 0.950 . S
H2174 C2182 0.950 . S
H2175 C2184 0.950 . S
H2176 C2186 0.950 . S
H2177 C2188 0.950 . S
H2178 C2190 0.950 . S
H2179 C2191 0.950 . S
C2180 H2172 0.950 . S
C2180 C2181 1.386 . S
C2180 C2182 1.391 . S
C2181 C2180 1.386 . S
C2181 C2185 1.393 . S
C2182 H2174 0.950 . S
C2182 C2180 1.391 . S
C2182 C2183 1.400 . S
C2183 C2182 1.400 . S
C2183 C2184 1.398 . S
C2183 C2189 1.491 . S
C2184 H2175 0.950 . S
C2184 C2183 1.398 . S
C2184 C2185 1.391 . S
C2185 H2173 0.950 . S
C2185 C2181 1.393 . S
C2185 C2184 1.391 . S
C2186 H2176 0.950 . S
C2186 C2187 1.386 . S
C2186 C2188 1.391 . S
C2187 C2186 1.386 . S
C2187 C2191 1.393 . S
C2188 H2177 0.950 . S
C2188 C2186 1.391 . S
C2188 C2189 1.400 . S
C2189 C2183 1.491 . S
C2189 C2188 1.400 . S
C2189 C2190 1.398 . S
C2190 H2178 0.950 . S
C2190 C2189 1.398 . S
C2190 C2191 1.391 . S
C2191 H2179 0.950 . S
C2191 C2187 1.393 . S
C2191 C2190 1.391 . S
H2192 C2200 0.950 . S
H2193 C2205 0.950 . S
H2194 C2202 0.950 . S
H2195 C2204 0.950 . S
H2196 C2206 0.950 . S
H2197 C2208 0.950 . S
H2198 C2210 0.950 . S
H2199 C2211 0.950 . S
C2200 H2192 0.950 . S
C2200 C2201 1.386 . S
C2200 C2202 1.391 . S
C2201 C2200 1.386 . S
C2201 C2205 1.393 . S
C2202 H2194 0.950 . S
C2202 C2200 1.391 . S
C2202 C2203 1.400 . S
C2203 C2202 1.400 . S
C2203 C2204 1.398 . S
C2203 C2209 1.491 . S
C2204 H2195 0.950 . S
C2204 C2203 1.398 . S
C2204 C2205 1.391 . S
C2205 H2193 0.950 . S
C2205 C2201 1.393 . S
C2205 C2204 1.391 . S
C2206 H2196 0.950 . S
C2206 C2207 1.386 . S
C2206 C2208 1.391 . S
C2207 C2206 1.386 . S
C2207 C2211 1.393 . S
C2208 H2197 0.950 . S
C2208 C2206 1.391 . S
C2208 C2209 1.400 . S
C2209 C2203 1.491 . S
C2209 C2208 1.400 . S
C2209 C2210 1.398 . S
C2210 H2198 0.950 . S
C2210 C2209 1.398 . S
C2210 C2211 1.391 . S
C2211 H2199 0.950 . S
C2211 C2207 1.393 . S
C2211 C2210 1.391 . S
H2212 C2220 0.950 . S
H2213 C2225 0.950 . S
H2214 C2222 0.950 . S
H2215 C2224 0.950 . S
H2216 C2226 0.950 . S
H2217 C2228 0.950 . S
H2218 C2230 0.950 . S
H2219 C2231 0.950 . S
C2220 H2212 0.950 . S
C2220 C2221 1.386 . S
C2220 C2222 1.391 . S
C2221 C2220 1.386 . S
C2221 C2225 1.393 . S
C2222 H2214 0.950 . S
C2222 C2220 1.391 . S
C2222 C2223 1.400 . S
C2223 C2222 1.400 . S
C2223 C2224 1.398 . S
C2223 C2229 1.491 . S
C2224 H2215 0.950 . S
C2224 C2223 1.398 . S
C2224 C2225 1.391 . S
C2225 H2213 0.950 . S
C2225 C2221 1.393 . S
C2225 C2224 1.391 . S
C2226 H2216 0.950 . S
C2226 C2227 1.386 . S
C2226 C2228 1.391 . S
C2227 C2226 1.386 . S
C2227 C2231 1.393 . S
C2228 H2217 0.950 . S
C2228 C2226 1.391 . S
C2228 C2229 1.400 . S
C2229 C2223 1.491 . S
C2229 C2228 1.400 . S
C2229 C2230 1.398 . S
C2230 H2218 0.950 . S
C2230 C2229 1.398 . S
C2230 C2231 1.391 . S
C2231 H2219 0.950 . S
C2231 C2227 1.393 . S
C2231 C2230 1.391 . S
H2232 C2240 0.950 . S
H2233 C2245 0.950 . S
H2234 C2242 0.950 . S
H2235 C2244 0.943 1_655 S
H2236 C2246 0.950 . S
H2237 C2248 0.950 . S
H2238 C2250 0.950 1_455 S
H2239 C2251 0.950 . S
C2240 H2232 0.950 . S
C2240 C2241 1.386 . S
C2240 C2242 1.391 . S
C2241 C2240 1.386 . S
C2241 C2245 1.393 . S
C2242 H2234 0.950 . S
C2242 C2240 1.391 . S
C2242 C2243 1.400 . S
C2243 C2242 1.400 . S
C2243 C2244 1.398 . S
C2243 C2249 1.489 1_455 S
C2244 H2235 0.943 1_455 S
C2244 C2243 1.398 . S
C2244 C2245 1.391 . S
C2245 H2233 0.950 . S
C2245 C2241 1.393 . S
C2245 C2244 1.391 . S
C2246 H2236 0.950 . S
C2246 C2247 1.386 . S
C2246 C2248 1.391 . S
C2247 C2246 1.386 . S
C2247 C2251 1.393 . S
C2248 H2237 0.950 . S
C2248 C2246 1.391 . S
C2248 C2249 1.403 . S
C2249 C2243 1.489 1_655 S
C2249 C2248 1.403 . S
C2249 C2250 1.398 . S
C2250 H2238 0.950 1_655 S
C2250 C2249 1.398 . S
C2250 C2251 1.391 . S
C2251 H2239 0.950 . S
C2251 C2247 1.393 . S
C2251 C2250 1.391 . S
H2252 C2260 0.950 . S
H2253 C2265 0.950 . S
H2254 C2262 0.950 . S
H2255 C2264 0.950 . S
H2256 C2266 0.950 . S
H2257 C2268 0.950 . S
H2258 C2270 0.950 . S
H2259 C2271 0.950 . S
C2260 H2252 0.950 . S
C2260 C2261 1.386 . S
C2260 C2262 1.391 . S
C2261 C2260 1.386 . S
C2261 C2265 1.393 . S
C2262 H2254 0.950 . S
C2262 C2260 1.391 . S
C2262 C2263 1.400 . S
C2263 C2262 1.400 . S
C2263 C2264 1.398 . S
C2263 C2269 1.491 . S
C2264 H2255 0.950 . S
C2264 C2263 1.398 . S
C2264 C2265 1.391 . S
C2265 H2253 0.950 . S
C2265 C2261 1.393 . S
C2265 C2264 1.391 . S
C2266 H2256 0.950 . S
C2266 C2267 1.386 . S
C2266 C2268 1.391 . S
C2267 C2266 1.386 . S
C2267 C2271 1.393 . S
C2268 H2257 0.950 . S
C2268 C2266 1.391 . S
C2268 C2269 1.400 . S
C2269 C2263 1.491 . S
C2269 C2268 1.400 . S
C2269 C2270 1.398 . S
C2270 H2258 0.950 . S
C2270 C2269 1.398 . S
C2270 C2271 1.391 . S
C2271 H2259 0.950 . S
C2271 C2267 1.393 . S
C2271 C2270 1.391 . S
H2272 C2280 0.950 . S
H2273 C2285 0.950 . S
H2274 C2282 0.950 . S
H2275 C2284 0.950 . S
H2276 C2286 0.950 . S
H2277 C2288 0.950 . S
H2278 C2290 0.950 . S
H2279 C2291 0.950 . S
C2280 H2272 0.950 . S
C2280 C2281 1.386 . S
C2280 C2282 1.391 . S
C2281 C2280 1.386 . S
C2281 C2285 1.393 . S
C2282 H2274 0.950 . S
C2282 C2280 1.391 . S
C2282 C2283 1.400 . S
C2283 C2282 1.400 . S
C2283 C2284 1.398 . S
C2283 C2289 1.491 . S
C2284 H2275 0.950 . S
C2284 C2283 1.398 . S
C2284 C2285 1.391 . S
C2285 H2273 0.950 . S
C2285 C2281 1.393 . S
C2285 C2284 1.391 . S
C2286 H2276 0.950 . S
C2286 C2287 1.386 . S
C2286 C2288 1.391 . S
C2287 C2286 1.386 . S
C2287 C2291 1.393 . S
C2288 H2277 0.950 . S
C2288 C2286 1.391 . S
C2288 C2289 1.400 . S
C2289 C2283 1.491 . S
C2289 C2288 1.400 . S
C2289 C2290 1.398 . S
C2290 H2278 0.950 . S
C2290 C2289 1.398 . S
C2290 C2291 1.391 . S
C2291 H2279 0.950 . S
C2291 C2287 1.393 . S
C2291 C2290 1.391 . S
H2292 C2300 0.950 . S
H2293 C2305 0.950 . S
H2294 C2302 0.950 . S
H2295 C2304 0.950 . S
H2296 C2306 0.950 . S
H2297 C2308 0.950 . S
H2298 C2310 0.950 . S
H2299 C2311 0.950 . S
C2300 H2292 0.950 . S
C2300 C2301 1.386 . S
C2300 C2302 1.391 . S
C2301 C2300 1.386 . S
C2301 C2305 1.393 . S
C2302 H2294 0.950 . S
C2302 C2300 1.391 . S
C2302 C2303 1.400 . S
C2303 C2302 1.400 . S
C2303 C2304 1.398 . S
C2303 C2309 1.491 . S
C2304 H2295 0.950 . S
C2304 C2303 1.398 . S
C2304 C2305 1.391 . S
C2305 H2293 0.950 . S
C2305 C2301 1.393 . S
C2305 C2304 1.391 . S
C2306 H2296 0.950 . S
C2306 C2307 1.386 . S
C2306 C2308 1.391 . S
C2307 C2306 1.386 . S
C2307 C2311 1.393 . S
C2308 H2297 0.950 . S
C2308 C2306 1.391 . S
C2308 C2309 1.400 . S
C2309 C2303 1.491 . S
C2309 C2308 1.400 . S
C2309 C2310 1.398 . S
C2310 H2298 0.950 . S
C2310 C2309 1.398 . S
C2310 C2311 1.391 . S
C2311 H2299 0.950 . S
C2311 C2307 1.393 . S
C2311 C2310 1.391 . S
H2312 C2320 0.950 . S
H2313 C2325 0.950 . S
H2314 C2322 0.950 . S
H2315 C2324 0.950 . S
H2316 C2326 0.950 . S
H2317 C2328 0.950 . S
H2318 C2330 0.950 . S
H2319 C2331 0.950 . S
C2320 H2312 0.950 . S
C2320 C2321 1.386 . S
C2320 C2322 1.391 . S
C2321 C2320 1.386 . S
C2321 C2325 1.393 . S
C2322 H2314 0.950 . S
C2322 C2320 1.391 . S
C2322 C2323 1.400 . S
C2323 C2322 1.400 . S
C2323 C2324 1.398 . S
C2323 C2329 1.491 . S
C2324 H2315 0.950 . S
C2324 C2323 1.398 . S
C2324 C2325 1.391 . S
C2325 H2313 0.950 . S
C2325 C2321 1.393 . S
C2325 C2324 1.391 . S
C2326 H2316 0.950 . S
C2326 C2327 1.386 . S
C2326 C2328 1.391 . S
C2327 C2326 1.386 . S
C2327 C2331 1.393 . S
C2328 H2317 0.950 . S
C2328 C2326 1.391 . S
C2328 C2329 1.400 . S
C2329 C2323 1.491 . S
C2329 C2328 1.400 . S
C2329 C2330 1.398 . S
C2330 H2318 0.950 . S
C2330 C2329 1.398 . S
C2330 C2331 1.391 . S
C2331 H2319 0.950 . S
C2331 C2327 1.393 . S
C2331 C2330 1.391 . S
H2332 C2340 0.950 . S
H2333 C2345 0.950 . S
H2334 C2342 0.950 . S
H2335 C2344 0.950 . S
H2336 C2346 0.950 . S
H2337 C2348 0.950 . S
H2338 C2350 0.950 . S
H2339 C2351 0.950 . S
C2340 H2332 0.950 . S
C2340 C2341 1.386 . S
C2340 C2342 1.391 . S
C2341 C2340 1.386 . S
C2341 C2345 1.393 . S
C2342 H2334 0.950 . S
C2342 C2340 1.391 . S
C2342 C2343 1.400 . S
C2343 C2342 1.400 . S
C2343 C2344 1.398 . S
C2343 C2349 1.491 . S
C2344 H2335 0.950 . S
C2344 C2343 1.398 . S
C2344 C2345 1.391 . S
C2345 H2333 0.950 . S
C2345 C2341 1.393 . S
C2345 C2344 1.391 . S
C2346 H2336 0.950 . S
C2346 C2347 1.386 . S
C2346 C2348 1.391 . S
C2347 C2346 1.386 . S
C2347 C2351 1.393 . S
C2348 H2337 0.950 . S
C2348 C2346 1.391 . S
C2348 C2349 1.400 . S
C2349 C2343 1.491 . S
C2349 C2348 1.400 . S
C2349 C2350 1.398 . S
C2350 H2338 0.950 . S
C2350 C2349 1.398 . S
C2350 C2351 1.391 . S
C2351 H2339 0.950 . S
C2351 C2347 1.393 . S
C2351 C2350 1.391 . S
H2352 C2360 0.950 . S
H2353 C2365 0.950 . S
H2354 C2362 0.950 . S
H2355 C2364 0.950 . S
H2356 C2366 0.950 . S
H2357 C2368 0.950 . S
H2358 C2370 0.950 . S
H2359 C2371 0.950 . S
C2360 H2352 0.950 . S
C2360 C2361 1.386 . S
C2360 C2362 1.391 . S
C2361 C2360 1.386 . S
C2361 C2365 1.393 . S
C2362 H2354 0.950 . S
C2362 C2360 1.391 . S
C2362 C2363 1.400 . S
C2363 C2362 1.400 . S
C2363 C2364 1.398 . S
C2363 C2369 1.491 . S
C2364 H2355 0.950 . S
C2364 C2363 1.398 . S
C2364 C2365 1.391 . S
C2365 H2353 0.950 . S
C2365 C2361 1.393 . S
C2365 C2364 1.391 . S
C2366 H2356 0.950 . S
C2366 C2367 1.386 . S
C2366 C2368 1.391 . S
C2367 C2366 1.386 . S
C2367 C2371 1.393 . S
C2368 H2357 0.950 . S
C2368 C2366 1.391 . S
C2368 C2369 1.400 . S
C2369 C2363 1.491 . S
C2369 C2368 1.400 . S
C2369 C2370 1.398 . S
C2370 H2358 0.950 . S
C2370 C2369 1.398 . S
C2370 C2371 1.391 . S
C2371 H2359 0.950 . S
C2371 C2367 1.393 . S
C2371 C2370 1.391 . S
H2372 C2380 0.950 . S
H2373 C2385 0.950 . S
H2374 C2382 0.950 . S
H2375 C2384 0.950 . S
H2376 C2386 0.950 . S
H2377 C2388 0.950 . S
H2378 C2390 0.950 . S
H2379 C2391 0.950 . S
C2380 H2372 0.950 . S
C2380 C2381 1.386 . S
C2380 C2382 1.391 . S
C2381 C2380 1.386 . S
C2381 C2385 1.393 . S
C2382 H2374 0.950 . S
C2382 C2380 1.391 . S
C2382 C2383 1.400 . S
C2383 C2382 1.400 . S
C2383 C2384 1.398 . S
C2383 C2389 1.491 . S
C2384 H2375 0.950 . S
C2384 C2383 1.398 . S
C2384 C2385 1.391 . S
C2385 H2373 0.950 . S
C2385 C2381 1.393 . S
C2385 C2384 1.391 . S
C2386 H2376 0.950 . S
C2386 C2387 1.386 . S
C2386 C2388 1.391 . S
C2387 C2386 1.386 . S
C2387 C2391 1.393 . S
C2388 H2377 0.950 . S
C2388 C2386 1.391 . S
C2388 C2389 1.400 . S
C2389 C2383 1.491 . S
C2389 C2388 1.400 . S
C2389 C2390 1.398 . S
C2390 H2378 0.950 . S
C2390 C2389 1.398 . S
C2390 C2391 1.391 . S
C2391 H2379 0.950 . S
C2391 C2387 1.393 . S
C2391 C2390 1.391 . S
H2392 C2400 0.950 . S
H2393 C2405 0.950 . S
H2394 C2402 0.950 . S
H2395 C2404 0.950 . S
H2396 C2406 0.950 . S
H2397 C2408 0.950 . S
H2398 C2410 0.950 . S
H2399 C2411 0.950 . S
C2400 H2392 0.950 . S
C2400 C2401 1.386 . S
C2400 C2402 1.391 . S
C2401 C2400 1.386 . S
C2401 C2405 1.393 . S
C2402 H2394 0.950 . S
C2402 C2400 1.391 . S
C2402 C2403 1.400 . S
C2403 C2402 1.400 . S
C2403 C2404 1.398 . S
C2403 C2409 1.491 . S
C2404 H2395 0.950 . S
C2404 C2403 1.398 . S
C2404 C2405 1.391 . S
C2405 H2393 0.950 . S
C2405 C2401 1.393 . S
C2405 C2404 1.391 . S
C2406 H2396 0.950 . S
C2406 C2407 1.386 . S
C2406 C2408 1.391 . S
C2407 C2406 1.386 . S
C2407 C2411 1.393 . S
C2408 H2397 0.950 . S
C2408 C2406 1.391 . S
C2408 C2409 1.400 . S
C2409 C2403 1.491 . S
C2409 C2408 1.400 . S
C2409 C2410 1.398 . S
C2410 H2398 0.950 . S
C2410 C2409 1.398 . S
C2410 C2411 1.391 . S
C2411 H2399 0.950 . S
C2411 C2407 1.393 . S
C2411 C2410 1.391 . S
H2412 C2420 0.950 . S
H2413 C2425 0.950 . S
H2414 C2422 0.950 . S
H2415 C2424 0.950 . S
H2416 C2426 0.950 . S
H2417 C2428 0.950 . S
H2418 C2430 0.950 . S
H2419 C2431 0.950 . S
C2420 H2412 0.950 . S
C2420 C2421 1.386 . S
C2420 C2422 1.391 . S
C2421 C2420 1.386 . S
C2421 C2425 1.393 . S
C2422 H2414 0.950 . S
C2422 C2420 1.391 . S
C2422 C2423 1.400 . S
C2423 C2422 1.400 . S
C2423 C2424 1.398 . S
C2423 C2429 1.491 . S
C2424 H2415 0.950 . S
C2424 C2423 1.398 . S
C2424 C2425 1.391 . S
C2425 H2413 0.950 . S
C2425 C2421 1.393 . S
C2425 C2424 1.391 . S
C2426 H2416 0.950 . S
C2426 C2427 1.386 . S
C2426 C2428 1.391 . S
C2427 C2426 1.386 . S
C2427 C2431 1.393 . S
C2428 H2417 0.950 . S
C2428 C2426 1.391 . S
C2428 C2429 1.400 . S
C2429 C2423 1.491 . S
C2429 C2428 1.400 . S
C2429 C2430 1.398 . S
C2430 H2418 0.950 . S
C2430 C2429 1.398 . S
C2430 C2431 1.391 . S
C2431 H2419 0.950 . S
C2431 C2427 1.393 . S
C2431 C2430 1.391 . S
H2432 C2440 0.950 . S
H2433 C2445 0.950 . S
H2434 C2442 0.950 . S
H2435 C2444 0.950 . S
H2436 C2446 0.950 . S
H2437 C2448 0.950 . S
H2438 C2450 0.950 . S
H2439 C2451 0.950 . S
C2440 H2432 0.950 . S
C2440 C2441 1.386 . S
C2440 C2442 1.391 . S
C2441 C2440 1.386 . S
C2441 C2445 1.393 . S
C2442 H2434 0.950 . S
C2442 C2440 1.391 . S
C2442 C2443 1.400 . S
C2443 C2442 1.400 . S
C2443 C2444 1.398 . S
C2443 C2449 1.491 . S
C2444 H2435 0.950 . S
C2444 C2443 1.398 . S
C2444 C2445 1.391 . S
C2445 H2433 0.950 . S
C2445 C2441 1.393 . S
C2445 C2444 1.391 . S
C2446 H2436 0.950 . S
C2446 C2447 1.386 . S
C2446 C2448 1.391 . S
C2447 C2446 1.386 . S
C2447 C2451 1.393 . S
C2448 H2437 0.950 . S
C2448 C2446 1.391 . S
C2448 C2449 1.400 . S
C2449 C2443 1.491 . S
C2449 C2448 1.400 . S
C2449 C2450 1.398 . S
C2450 H2438 0.950 . S
C2450 C2449 1.398 . S
C2450 C2451 1.391 . S
C2451 H2439 0.950 . S
C2451 C2447 1.393 . S
C2451 C2450 1.391 . S
H2452 C2460 0.950 . S
H2453 C2465 0.950 . S
H2454 C2462 0.950 . S
H2455 C2464 0.950 . S
H2456 C2466 0.950 . S
H2457 C2468 0.950 . S
H2458 C2470 0.950 . S
H2459 C2471 0.950 . S
C2460 H2452 0.950 . S
C2460 C2461 1.386 . S
C2460 C2462 1.391 . S
C2461 C2460 1.386 . S
C2461 C2465 1.393 . S
C2462 H2454 0.950 . S
C2462 C2460 1.391 . S
C2462 C2463 1.400 . S
C2463 C2462 1.400 . S
C2463 C2464 1.398 . S
C2463 C2469 1.491 . S
C2464 H2455 0.950 . S
C2464 C2463 1.398 . S
C2464 C2465 1.391 . S
C2465 H2453 0.950 . S
C2465 C2461 1.393 . S
C2465 C2464 1.391 . S
C2466 H2456 0.950 . S
C2466 C2467 1.386 . S
C2466 C2468 1.391 . S
C2467 C2466 1.386 . S
C2467 C2471 1.393 . S
C2468 H2457 0.950 . S
C2468 C2466 1.391 . S
C2468 C2469 1.400 . S
C2469 C2463 1.491 . S
C2469 C2468 1.400 . S
C2469 C2470 1.398 . S
C2470 H2458 0.950 . S
C2470 C2469 1.398 . S
C2470 C2471 1.391 . S
C2471 H2459 0.950 . S
C2471 C2467 1.393 . S
C2471 C2470 1.391 . S
H2472 C2480 0.950 . S
H2473 C2485 0.950 . S
H2474 C2482 0.950 . S
H2475 C2484 0.950 . S
H2476 C2486 0.950 . S
H2477 C2488 0.950 . S
H2478 C2490 0.950 . S
H2479 C2491 0.950 . S
C2480 H2472 0.950 . S
C2480 C2481 1.386 . S
C2480 C2482 1.391 . S
C2481 C2480 1.386 . S
C2481 C2485 1.393 . S
C2482 H2474 0.950 . S
C2482 C2480 1.391 . S
C2482 C2483 1.400 . S
C2483 C2482 1.400 . S
C2483 C2484 1.398 . S
C2483 C2489 1.491 . S
C2484 H2475 0.950 . S
C2484 C2483 1.398 . S
C2484 C2485 1.391 . S
C2485 H2473 0.950 . S
C2485 C2481 1.393 . S
C2485 C2484 1.391 . S
C2486 H2476 0.950 . S
C2486 C2487 1.386 . S
C2486 C2488 1.391 . S
C2487 C2486 1.386 . S
C2487 C2491 1.393 . S
C2488 H2477 0.950 . S
C2488 C2486 1.391 . S
C2488 C2489 1.400 . S
C2489 C2483 1.491 . S
C2489 C2488 1.400 . S
C2489 C2490 1.398 . S
C2490 H2478 0.950 . S
C2490 C2489 1.398 . S
C2490 C2491 1.391 . S
C2491 H2479 0.950 . S
C2491 C2487 1.393 . S
C2491 C2490 1.391 . S
H2492 C2500 0.950 . S
H2493 C2505 0.950 1_556 S
H2494 C2502 0.950 . S
H2495 C2504 0.964 . S
H2496 C2506 0.950 . S
H2497 C2508 0.950 . S
H2498 C2510 0.950 . S
H2499 C2511 0.950 . S
C2500 H2492 0.950 . S
C2500 C2501 1.386 . S
C2500 C2502 1.391 . S
C2501 C2500 1.386 . S
C2501 C2505 1.393 . S
C2502 H2494 0.950 . S
C2502 C2500 1.391 . S
C2502 C2503 1.400 . S
C2503 C2502 1.400 . S
C2503 C2504 1.390 1_554 S
C2503 C2509 1.489 1_554 S
C2504 H2495 0.964 . S
C2504 C2503 1.390 1_556 S
C2504 C2505 1.387 1_556 S
C2505 H2493 0.950 1_554 S
C2505 C2501 1.393 . S
C2505 C2504 1.387 1_554 S
C2506 H2496 0.950 . S
C2506 C2507 1.386 . S
C2506 C2508 1.391 . S
C2507 C2506 1.386 . S
C2507 C2511 1.393 1_556 S
C2508 H2497 0.950 . S
C2508 C2506 1.391 . S
C2508 C2509 1.404 . S
C2509 C2503 1.489 1_556 S
C2509 C2508 1.404 . S
C2509 C2510 1.396 1_556 S
C2510 H2498 0.950 . S
C2510 C2509 1.396 1_554 S
C2510 C2511 1.391 . S
C2511 H2499 0.950 . S
C2511 C2507 1.393 1_554 S
C2511 C2510 1.391 . S
H2512 C2520 0.950 . S
H2513 C2525 0.950 . S
H2514 C2522 0.950 . S
H2515 C2524 0.950 . S
H2516 C2526 0.950 . S
H2517 C2528 0.950 . S
H2518 C2530 0.950 . S
H2519 C2531 0.950 . S
C2520 H2512 0.950 . S
C2520 C2521 1.386 . S
C2520 C2522 1.391 . S
C2521 C2520 1.386 . S
C2521 C2525 1.393 . S
C2522 H2514 0.950 . S
C2522 C2520 1.391 . S
C2522 C2523 1.400 . S
C2523 C2522 1.400 . S
C2523 C2524 1.398 . S
C2523 C2529 1.491 . S
C2524 H2515 0.950 . S
C2524 C2523 1.398 . S
C2524 C2525 1.391 . S
C2525 H2513 0.950 . S
C2525 C2521 1.393 . S
C2525 C2524 1.391 . S
C2526 H2516 0.950 . S
C2526 C2527 1.386 . S
C2526 C2528 1.391 . S
C2527 C2526 1.386 . S
C2527 C2531 1.393 . S
C2528 H2517 0.950 . S
C2528 C2526 1.391 . S
C2528 C2529 1.400 . S
C2529 C2523 1.491 . S
C2529 C2528 1.400 . S
C2529 C2530 1.398 . S
C2530 H2518 0.950 . S
C2530 C2529 1.398 . S
C2530 C2531 1.391 . S
C2531 H2519 0.950 . S
C2531 C2527 1.393 . S
C2531 C2530 1.391 . S
H2532 C2540 0.950 . S
H2533 C2545 0.950 . S
H2534 C2542 0.950 . S
H2535 C2544 0.950 . S
H2536 C2546 0.945 1_556 S
H2537 C2548 0.950 1_556 S
H2538 C2550 0.950 . S
H2539 C2551 0.950 . S
C2540 H2532 0.950 . S
C2540 C2541 1.393 . S
C2540 C2542 1.391 . S
C2541 C2540 1.393 . S
C2541 C2545 1.389 1_554 S
C2542 H2534 0.950 . S
C2542 C2540 1.391 . S
C2542 C2543 1.400 . S
C2543 C2542 1.400 . S
C2543 C2544 1.398 1_554 S
C2543 C2549 1.491 . S
C2544 H2535 0.950 . S
C2544 C2543 1.398 1_556 S
C2544 C2545 1.391 . S
C2545 H2533 0.950 . S
C2545 C2541 1.389 1_556 S
C2545 C2544 1.391 . S
C2546 H2536 0.945 1_554 S
C2546 C2547 1.386 . S
C2546 C2548 1.391 . S
C2547 C2546 1.386 . S
C2547 C2551 1.393 . S
C2548 H2537 0.950 1_554 S
C2548 C2546 1.391 . S
C2548 C2549 1.400 . S
C2549 C2543 1.491 . S
C2549 C2548 1.400 . S
C2549 C2550 1.398 . S
C2550 H2538 0.950 . S
C2550 C2549 1.398 . S
C2550 C2551 1.391 . S
C2551 H2539 0.950 . S
C2551 C2547 1.393 . S
C2551 C2550 1.391 . S
H2552 C2560 0.950 . S
H2553 C2565 0.950 . S
H2554 C2562 0.950 . S
H2555 C2564 0.950 . S
H2556 C2566 0.950 . S
H2557 C2568 0.950 . S
H2558 C2570 0.950 . S
H2559 C2571 0.950 . S
C2560 H2552 0.950 . S
C2560 C2561 1.386 . S
C2560 C2562 1.391 . S
C2561 C2560 1.386 . S
C2561 C2565 1.393 . S
C2562 H2554 0.950 . S
C2562 C2560 1.391 . S
C2562 C2563 1.400 . S
C2563 C2562 1.400 . S
C2563 C2564 1.398 . S
C2563 C2569 1.491 . S
C2564 H2555 0.950 . S
C2564 C2563 1.398 . S
C2564 C2565 1.391 . S
C2565 H2553 0.950 . S
C2565 C2561 1.393 . S
C2565 C2564 1.391 . S
C2566 H2556 0.950 . S
C2566 C2567 1.386 . S
C2566 C2568 1.391 . S
C2567 C2566 1.386 . S
C2567 C2571 1.393 . S
C2568 H2557 0.950 . S
C2568 C2566 1.391 . S
C2568 C2569 1.400 . S
C2569 C2563 1.491 . S
C2569 C2568 1.400 . S
C2569 C2570 1.398 . S
C2570 H2558 0.950 . S
C2570 C2569 1.398 . S
C2570 C2571 1.391 . S
C2571 H2559 0.950 . S
C2571 C2567 1.393 . S
C2571 C2570 1.391 . S
H2572 C2580 0.950 . S
H2573 C2585 0.950 . S
H2574 C2582 0.950 . S
H2575 C2584 0.950 . S
H2576 C2586 0.950 . S
H2577 C2588 0.950 . S
H2578 C2590 0.950 . S
H2579 C2591 0.950 . S
C2580 H2572 0.950 . S
C2580 C2581 1.386 . S
C2580 C2582 1.391 . S
C2581 C2580 1.386 . S
C2581 C2585 1.393 . S
C2582 H2574 0.950 . S
C2582 C2580 1.391 . S
C2582 C2583 1.400 . S
C2583 C2582 1.400 . S
C2583 C2584 1.398 . S
C2583 C2589 1.491 . S
C2584 H2575 0.950 . S
C2584 C2583 1.398 . S
C2584 C2585 1.391 . S
C2585 H2573 0.950 . S
C2585 C2581 1.393 . S
C2585 C2584 1.391 . S
C2586 H2576 0.950 . S
C2586 C2587 1.386 . S
C2586 C2588 1.391 . S
C2587 C2586 1.386 . S
C2587 C2591 1.393 . S
C2588 H2577 0.950 . S
C2588 C2586 1.391 . S
C2588 C2589 1.400 . S
C2589 C2583 1.491 . S
C2589 C2588 1.400 . S
C2589 C2590 1.398 . S
C2590 H2578 0.950 . S
C2590 C2589 1.398 . S
C2590 C2591 1.391 . S
C2591 H2579 0.950 . S
C2591 C2587 1.393 . S
C2591 C2590 1.391 . S
C687 C352 1.193 . S
C681 C13 1.223 . S
C701 C25 1.131 . S
C707 C372 1.094 . S
C721 C39 1.248 . S
C727 C394 1.167 . S
C747 C413 1.388 . S
C741 C50 1.388 . S
C761 C21 1.305 . S
C767 C434 1.260 . S
C787 C457 1.263 . S
C781 C35 1.348 . S
C807 C480 1.117 . S
C801 C55 1.107 . S
C821 C8 1.357 . S
C827 C498 1.330 . S
C841 C69 1.194 . S
C847 C354 1.207 . S
C861 C77 1.347 . S
C867 C374 1.302 . S
C887 C396 1.185 . S
C881 C97 1.165 1_545 S
C907 C415 1.270 . S
C901 C105 1.374 . S
C921 C63 1.417 . S
C927 C436 1.296 . S
C947 C459 1.148 . S
C941 C83 1.129 . S
C967 C476 1.283 . S
C961 C91 1.328 . S
C987 C500 1.253 . S
C981 C111 1.246 . S
C1007 C350 1.308 . S
C1001 C106 1.310 . S
C1027 C522 1.111 . S
C1021 C123 1.151 . S
C1041 C134 1.309 . S
C1047 C539 1.320 . S
C1067 C562 1.223 . S
C1061 C151 1.312 . S
C1081 C64 1.362 . S
C1087 C496 1.295 . S
C1107 C392 1.350 . S
C1101 C78 1.349 . S
C1121 C137 1.110 . S
C1127 C585 1.078 . S
C1147 C601 1.162 . S
C1141 C165 1.257 . S
C1161 C175 1.235 . S
C1167 C349 1.111 . S
C1187 C602 1.112 . S
C1181 C193 1.094 . S
C1201 C209 1.208 . S
C1207 C391 1.144 . S
C1221 C223 1.060 . S
C1227 C582 1.098 . S
C1247 C435 1.088 . S
C1241 C195 1.082 . S
C1267 C538 1.089 . S
C1261 C207 1.190 . S
C1287 C479 1.133 . S
C1281 C221 1.117 . S
C1307 C623 1.322 . S
C1301 C176 1.302 . S
C1327 C353 1.239 . S
C1321 C231 1.256 . S
C1341 C251 1.085 . S
C1347 C606 1.094 . S
C1367 C395 1.176 1_545 S
C1361 C259 1.216 . S
C1381 C279 1.205 . S
C1387 C580 1.205 . S
C1401 C237 1.247 . S
C1407 C433 1.225 . S
C1421 C245 1.239 . S
C1427 C542 1.224 . S
C1447 C477 1.094 . S
C1441 C265 1.072 . S
C1461 C273 1.171 . S
C1467 C627 1.130 . S
C1481 C274 1.188 . S
C1487 C351 1.194 . S
C1501 C291 1.128 . S
C1507 C521 1.098 . S
C1521 C302 1.161 . S
C1527 C456 1.166 . S
C1541 C319 1.146 . S
C1547 C559 1.098 . S
C1567 C625 1.178 . S
C1561 C232 1.260 . S
C1587 C393 1.206 . S
C1581 C246 1.199 . S
C1607 C416 1.112 . S
C1601 C305 1.133 . S
C1627 C373 1.125 . S
C1621 C333 1.184 . S
C1641 C36 1.334 . S
C1647 C646 1.261 . S
C1667 C603 1.087 . S
C1661 C53 1.102 . S
C1687 C667 1.189 . S
C1681 C7 1.319 . S
C1701 C22 1.371 . S
C1707 C581 1.362 . S
C1721 C49 1.340 . S
C1727 C518 1.297 . S
C1747 C541 1.165 . S
C1741 C11 1.271 . S
C1767 C564 1.135 . S
C1761 C27 1.124 1_455 S
C1787 C624 1.250 . S
C1781 C41 1.218 . S
C1807 C648 1.219 . S
C1801 C167 1.199 . S
C1821 C119 1.354 . S
C1827 C605 1.333 . S
C1841 C139 1.165 . S
C1847 C669 1.170 . S
C1867 C583 1.268 . S
C1861 C147 1.388 . S
C1887 C520 1.278 . S
C1881 C161 1.408 . S
C1901 C125 1.114 . S
C1907 C543 1.117 . S
C1927 C560 1.270 . S
C1921 C133 1.320 . S
C1941 C153 1.232 . S
C1947 C626 1.226 . S
C1967 C644 1.351 . S
C1961 C148 1.345 . S
C1987 C438 1.079 . S
C1981 C81 1.123 . S
C2007 C455 1.368 . S
C2001 C92 1.370 . S
C2021 C109 1.288 . S
C2027 C478 1.187 . S
C2047 C622 1.241 . S
C2041 C162 1.320 . S
C2061 C120 1.358 . S
C2067 C665 1.372 . S
C2087 C417 1.112 . S
C2081 C95 1.134 . S
C2107 C370 1.167 . S
C2101 C67 1.271 . S
C2121 C203 1.247 . S
C2127 C643 1.121 . S
C2147 C371 1.218 . S
C2141 C217 1.239 . S
C2167 C664 1.164 . S
C2161 C181 1.189 1_455 S
C2181 C190 1.224 . S
C2187 C414 1.232 . S
C2201 C218 1.224 . S
C2207 C519 1.232 . S
C2221 C179 1.189 . S
C2227 C454 1.092 . S
C2241 C189 1.261 . S
C2247 C563 1.251 . S
C2261 C204 1.320 . S
C2267 C497 1.326 . S
C2287 C647 1.259 . S
C2281 C329 1.284 . S
C2301 C293 1.038 . S
C2307 C375 1.078 . S
C2327 C668 1.211 . S
C2321 C301 1.238 . S
C2341 C321 1.166 . S
C2347 C412 1.149 . S
C2361 C335 1.198 . S
C2367 C517 1.181 . S
C2387 C458 1.249 . S
C2381 C287 1.263 . S
C2401 C307 1.027 . S
C2407 C561 1.075 . S
C2427 C501 1.168 . S
C2421 C315 1.197 . S
C2447 C645 1.173 . S
C2441 C316 1.165 . S
C2467 C437 1.183 . S
C2461 C249 1.205 . S
C2481 C260 1.170 . S
C2487 C540 1.178 . S
C2507 C475 1.149 . S
C2501 C277 1.239 . S
C2527 C499 1.160 . S
C2521 C330 1.198 . S
C2541 C288 1.144 . S
C2547 C666 1.151 . S
C2567 C584 1.198 . S
C2561 C263 1.205 . S
C2587 C604 1.211 . S
C2581 C235 1.286 . S
