# Generated by pormake.
# Topology pyr, (3,6)-cn, num edge types: 1
# Building blocks:
#     Node 0, Type 0, BuildingBlock: OLANEW_clean_sbu_2, # of connection points: 3
#     Node 1, Type 0, BuildingBlock: OLANEW_clean_sbu_2, # of connection points: 3
#     Node 2, Type 0, BuildingBlock: OLANEW_clean_sbu_2, # of connection points: 3
#     Node 3, Type 0, BuildingBlock: OLANEW_clean_sbu_2, # of connection points: 3
#     Node 4, Type 0, BuildingBlock: OLANEW_clean_sbu_2, # of connection points: 3
#     Node 5, Type 0, BuildingBlock: OLANEW_clean_sbu_2, # of connection points: 3
#     Node 6, Type 0, BuildingBlock: OLANEW_clean_sbu_2, # of connection points: 3
#     Node 7, Type 0, BuildingBlock: OLANEW_clean_sbu_2, # of connection points: 3
#     Node 8, Type 1, BuildingBlock: BETDIP_clean_sbu_0, # of connection points: 6
#     Node 9, Type 1, BuildingBlock: BETDIP_clean_sbu_0, # of connection points: 6
#     Node 10, Type 1, BuildingBlock: BETDIP_clean_sbu_0, # of connection points: 6
#     Node 11, Type 1, BuildingBlock: BETDIP_clean_sbu_0, # of connection points: 6
#     Edge 12, Type (0, 1), BuildingBlock: EZIPEK_clean_linker_0, # of connection points: 2
#     Edge 13, Type (0, 1), BuildingBlock: EZIPEK_clean_linker_0, # of connection points: 2
#     Edge 14, Type (0, 1), BuildingBlock: EZIPEK_clean_linker_0, # of connection points: 2
#     Edge 15, Type (0, 1), BuildingBlock: EZIPEK_clean_linker_0, # of connection points: 2
#     Edge 16, Type (0, 1), BuildingBlock: EZIPEK_clean_linker_0, # of connection points: 2
#     Edge 17, Type (0, 1), BuildingBlock: EZIPEK_clean_linker_0, # of connection points: 2
#     Edge 18, Type (0, 1), BuildingBlock: EZIPEK_clean_linker_0, # of connection points: 2
#     Edge 19, Type (0, 1), BuildingBlock: EZIPEK_clean_linker_0, # of connection points: 2
#     Edge 20, Type (0, 1), BuildingBlock: EZIPEK_clean_linker_0, # of connection points: 2
#     Edge 21, Type (0, 1), BuildingBlock: EZIPEK_clean_linker_0, # of connection points: 2
#     Edge 22, Type (0, 1), BuildingBlock: EZIPEK_clean_linker_0, # of connection points: 2
#     Edge 23, Type (0, 1), BuildingBlock: EZIPEK_clean_linker_0, # of connection points: 2
#     Edge 24, Type (0, 1), BuildingBlock: EZIPEK_clean_linker_0, # of connection points: 2
#     Edge 25, Type (0, 1), BuildingBlock: EZIPEK_clean_linker_0, # of connection points: 2
#     Edge 26, Type (0, 1), BuildingBlock: EZIPEK_clean_linker_0, # of connection points: 2
#     Edge 27, Type (0, 1), BuildingBlock: EZIPEK_clean_linker_0, # of connection points: 2
#     Edge 28, Type (0, 1), BuildingBlock: EZIPEK_clean_linker_0, # of connection points: 2
#     Edge 29, Type (0, 1), BuildingBlock: EZIPEK_clean_linker_0, # of connection points: 2
#     Edge 30, Type (0, 1), BuildingBlock: EZIPEK_clean_linker_0, # of connection points: 2
#     Edge 31, Type (0, 1), BuildingBlock: EZIPEK_clean_linker_0, # of connection points: 2
#     Edge 32, Type (0, 1), BuildingBlock: EZIPEK_clean_linker_0, # of connection points: 2
#     Edge 33, Type (0, 1), BuildingBlock: EZIPEK_clean_linker_0, # of connection points: 2
#     Edge 34, Type (0, 1), BuildingBlock: EZIPEK_clean_linker_0, # of connection points: 2
#     Edge 35, Type (0, 1), BuildingBlock: EZIPEK_clean_linker_0, # of connection points: 2
# Relax obj value: 0.217
# Max RMSD: 0.247
# Mean RMSD: 0.146
data_MOF--net-pyr--node1-OLANEW_clean_sbu_2--node2-BETDIP_clean_sbu_0--edge1-EZIPEK_clean_linker_0
_symmetry_space_group_name_H-M    P1
_symmetry_Int_Tables_number       1
_symmetry_cell_setting            triclinic
loop_
_symmetry_equiv_pos_as_xyz
'x, y, z'
_cell_length_a     28.180953
_cell_length_b     33.446962
_cell_length_c     32.192449
_cell_angle_alpha  92.859727
_cell_angle_beta   92.8966
_cell_angle_gamma 108.6385
loop_
_atom_site_label
_atom_site_type_symbol
_atom_site_fract_x
_atom_site_fract_y
_atom_site_fract_z
_atom_type_partial_charge
O0 O 0.45259 0.25484 0.13144 0.0
Cd1 Cd 0.43511 0.32075 0.11446 0.0
O2 O 0.41922 0.25372 0.19149 0.0
Cd3 Cd 0.39796 0.22455 0.24921 0.0
O4 O 0.36036 0.1936 0.3015 0.0
C5 C 0.38399 0.19467 0.33635 0.0
O6 O 0.43264 0.21412 0.34108 0.0
C7 C 0.44219 0.23801 0.1658 0.0
C8 C 0.34067 0.33276 0.11516 0.0
O9 O 0.35487 0.31867 0.08186 0.0
O10 O 0.36929 0.33843 0.1487 0.0
O11 O 0.14234 0.75415 0.83479 0.0
Cd12 Cd 0.10081 0.73212 0.76531 0.0
O13 O 0.11367 0.80761 0.8458 0.0
Cd14 Cd 0.06126 0.79347 0.79086 0.0
O15 O 0.03104 0.81842 0.73825 0.0
C16 C 0.02942 0.85577 0.74451 0.0
O17 O 0.04192 0.87501 0.78194 0.0
C18 C 0.14219 0.78672 0.85673 0.0
C19 C 0.17652 0.72012 0.71906 0.0
O20 O 0.17104 0.75663 0.72361 0.0
O21 O 0.14423 0.68873 0.73392 0.0
O22 O 0.73483 0.45903 0.89008 0.0
Cd23 Cd 0.66089 0.44676 0.83693 0.0
O24 O 0.70295 0.39931 0.9205 0.0
Cd25 Cd 0.68554 0.34184 0.95844 0.0
O26 O 0.63852 0.28102 0.98434 0.0
C27 C 0.64918 0.24669 0.98635 0.0
O28 O 0.69197 0.24522 0.97312 0.0
C29 C 0.73899 0.43392 0.9179 0.0
C30 C 0.64224 0.50313 0.77879 0.0
O31 O 0.62645 0.50189 0.81556 0.0
O32 O 0.66964 0.48016 0.77 0.0
O33 O 0.94531 0.80079 0.34445 0.0
Cd34 Cd 0.91161 0.72914 0.29838 0.0
O35 O 0.90378 0.77916 0.40024 0.0
Cd36 Cd 0.8547 0.71366 0.39042 0.0
O37 O 0.79125 0.68237 0.42751 0.0
C38 C 0.79147 0.70105 0.46303 0.0
O39 O 0.82847 0.73594 0.47453 0.0
C40 C 0.93392 0.80854 0.38164 0.0
C41 C 0.94136 0.67943 0.23353 0.0
O42 O 0.92947 0.71236 0.22526 0.0
O43 O 0.94331 0.67183 0.2722 0.0
O44 O 0.66365 0.74891 0.76668 0.0
Cd45 Cd 0.62469 0.69667 0.81553 0.0
O46 O 0.65181 0.79703 0.80967 0.0
Cd47 Cd 0.65525 0.85931 0.83679 0.0
O48 O 0.64061 0.90559 0.88496 0.0
C49 C 0.59825 0.89398 0.90116 0.0
O50 O 0.64216 0.90764 0.88575 0.0
C51 C 0.66897 0.78747 0.77614 0.0
C52 C 0.70102 0.68431 0.86598 0.0
O53 O 0.68416 0.66159 0.83187 0.0
O54 O 0.68066 0.71197 0.87719 0.0
O55 O 0.86979 0.28156 0.3765 0.0
Cd56 Cd 0.91765 0.29058 0.44293 0.0
O57 O 0.89443 0.34857 0.36191 0.0
Cd58 Cd 0.90575 0.36971 0.42784 0.0
O59 O 0.85449 0.39073 0.46533 0.0
C60 C 0.82602 0.40604 0.44405 0.0
O61 O 0.83216 0.41027 0.40415 0.0
C62 C 0.87249 0.30976 0.3509 0.0
C63 C 0.95424 0.22231 0.44795 0.0
O64 O 0.9769 0.25441 0.4281 0.0
O65 O 0.91427 0.22228 0.46525 0.0
O66 O 0.46651 0.81791 0.27 0.0
Cd67 Cd 0.43053 0.7482 0.30605 0.0
O68 O 0.41403 0.80338 0.21285 0.0
Cd69 Cd 0.36198 0.73821 0.21328 0.0
O70 O 0.30015 0.6832 0.18409 0.0
C71 C 0.28609 0.68275 0.14573 0.0
O72 O 0.30965 0.71442 0.12395 0.0
C73 C 0.45091 0.82884 0.2354 0.0
C74 C 0.46299 0.71445 0.37951 0.0
O75 O 0.47914 0.70948 0.34366 0.0
O76 O 0.4348 0.73787 0.38191 0.0
O77 O 0.14164 0.42595 0.79998 0.0
Cd78 Cd 0.17578 0.40276 0.73616 0.0
O79 O 0.10054 0.36332 0.8226 0.0
Cd80 Cd 0.10382 0.31468 0.77153 0.0
O81 O 0.09006 0.25922 0.723 0.0
C82 C 0.07434 0.21992 0.7302 0.0
O83 O 0.06668 0.2097 0.76875 0.0
C84 C 0.11553 0.40394 0.82731 0.0
C85 C 0.25767 0.45845 0.69731 0.0
O86 O 0.26468 0.43903 0.72924 0.0
O87 O 0.21212 0.45353 0.68472 0.0
Tb88 Tb 0.94916 1.00744 0.55558 0.0
Tb89 Tb 0.05578 0.02568 0.55016 0.0
C90 C 0.85608 0.97394 0.56167 0.0
C91 C 0.8275 0.94906 0.59421 0.0
C92 C 0.78668 0.9124 0.58299 0.0
C93 C 0.76049 0.88801 0.61379 0.0
C94 C 0.77487 0.90003 0.65618 0.0
C95 C 0.81542 0.9368 0.66743 0.0
C96 C 0.84157 0.96108 0.63673 0.0
C97 C 1.00287 0.07587 0.60379 0.0
C98 C 0.00709 0.96245 0.61428 0.0
C99 C 0.14946 0.05999 0.55051 0.0
C100 C 0.18591 0.08065 0.52095 0.0
C101 C 0.173 0.10305 0.4889 0.0
C102 C 0.20808 0.12163 0.4606 0.0
C103 C 0.25613 0.11763 0.46385 0.0
C104 C 0.26906 0.09521 0.49575 0.0
C105 C 0.23409 0.07689 0.52424 0.0
C106 C 1.00301 0.95793 0.50061 0.0
C107 C 0.99918 0.07573 0.49577 0.0
O108 O 0.88289 0.95622 0.54022 0.0
O109 O 0.8808 1.01345 0.57261 0.0
O110 O 0.01345 0.04183 0.59796 0.0
O111 O 0.95939 0.06976 0.58505 0.0
O112 O 0.96373 0.96088 0.59569 0.0
O113 O 0.04914 0.99093 0.60565 0.0
O114 O 0.11881 0.07985 0.56242 0.0
O115 O 0.12662 0.01962 0.54215 0.0
O116 O 0.99169 0.99171 0.50667 0.0
O117 O 0.04591 0.96351 0.52018 0.0
O118 O 0.04208 0.07123 0.50884 0.0
O119 O 0.956 0.04856 0.50473 0.0
H120 H 0.77537 0.90245 0.55044 0.0
H121 H 0.7294 0.85956 0.60462 0.0
H122 H 0.82715 0.94638 0.69999 0.0
H123 H 0.87302 0.98912 0.64632 0.0
H124 H 0.13589 0.10598 0.48554 0.0
H125 H 0.19767 0.13873 0.43592 0.0
H126 H 0.30605 0.09184 0.49844 0.0
H127 H 0.2445 0.0595 0.54867 0.0
Tb128 Tb 0.58311 0.05737 0.11679 0.0
Tb129 Tb 0.47469 0.02219 0.09078 0.0
C130 C 0.67161 0.10532 0.13337 0.0
C131 C 0.698 0.14412 0.15966 0.0
C132 C 0.728 0.17998 0.14131 0.0
C133 C 0.75803 0.21526 0.16631 0.0
C134 C 0.75887 0.21453 0.20983 0.0
C135 C 0.72711 0.17968 0.22812 0.0
C136 C 0.69672 0.14478 0.20327 0.0
C137 C 0.53686 0.98613 0.1515 0.0
C138 C 0.50467 0.09407 0.16078 0.0
C139 C 0.38732 0.97086 0.07731 0.0
C140 C 0.35538 0.93977 0.04499 0.0
C141 C 0.33369 0.89757 0.05473 0.0
C142 C 0.30003 0.8681 0.02594 0.0
C143 C 0.28724 0.88062 0.98719 0.0
C144 C 0.30966 0.92248 0.97699 0.0
C145 C 0.34353 0.95189 1.00564 0.0
C146 C 0.52232 0.09345 0.05663 0.0
C147 C 0.55262 0.99102 0.03966 0.0
O148 O 0.64342 0.10905 0.10122 0.0
O149 O 0.65072 0.07132 0.15278 0.0
O150 O 0.5191 0.01588 0.1445 0.0
O151 O 0.58321 0.99824 0.14218 0.0
O152 O 0.55132 0.10094 0.15019 0.0
O153 O 0.46863 0.05972 0.14566 0.0
O154 O 0.42447 0.96115 0.09543 0.0
O155 O 0.39972 1.01097 0.06999 0.0
O156 O 0.53864 0.06317 0.06368 0.0
O157 O 0.4753 0.08202 0.06459 0.0
O158 O 0.50535 0.98853 0.04446 0.0
O159 O 0.59015 0.01703 0.06393 0.0
H160 H 0.72939 0.18016 0.10775 0.0
H161 H 0.78215 0.24224 0.15189 0.0
H162 H 0.72704 0.17903 0.26174 0.0
H163 H 0.67356 0.11785 0.21836 0.0
H164 H 0.34214 0.88759 0.08495 0.0
H165 H 0.28325 0.83581 0.0341 0.0
H166 H 0.30035 0.93248 0.94702 0.0
H167 H 0.35966 0.98415 0.99722 0.0
Tb168 Tb 0.52659 0.63754 0.60634 0.0
Tb169 Tb 0.52657 0.55776 0.56257 0.0
C170 C 0.50403 0.70189 0.62834 0.0
C171 C 0.45585 0.7089 0.63447 0.0
C172 C 0.41266 0.68713 0.60857 0.0
C173 C 0.36576 0.68944 0.61828 0.0
C174 C 0.36159 0.71366 0.6539 0.0
C175 C 0.40501 0.73684 0.67874 0.0
C176 C 0.45184 0.73443 0.6691 0.0
C177 C 0.57609 0.59624 0.64998 0.0
C178 C 0.43095 0.5549 0.60998 0.0
C179 C 0.53346 0.48607 0.54429 0.0
C180 C 0.57596 0.47297 0.53087 0.0
C181 C 0.62384 0.49026 0.55188 0.0
C182 C 0.66426 0.47858 0.53878 0.0
C183 C 0.65765 0.44955 0.50437 0.0
C184 C 0.60995 0.43197 0.48338 0.0
C185 C 0.5693 0.44361 0.4966 0.0
C186 C 0.51014 0.61406 0.51225 0.0
C187 C 0.62416 0.63574 0.56474 0.0
O188 O 0.51266 0.69287 0.58994 0.0
O189 O 0.51606 0.67758 0.65465 0.0
O190 O 0.53597 0.58055 0.62682 0.0
O191 O 0.58865 0.63717 0.65026 0.0
O192 O 0.4546 0.59459 0.62421 0.0
O193 O 0.44972 0.53557 0.58144 0.0
O194 O 0.53889 0.50319 0.58237 0.0
O195 O 0.51463 0.50653 0.51794 0.0
O196 O 0.49346 0.60569 0.5478 0.0
O197 O 0.5345 0.58819 0.5031 0.0
O198 O 0.60598 0.59418 0.56506 0.0
O199 O 0.59489 0.65887 0.57276 0.0
H200 H 0.41492 0.6672 0.58169 0.0
H201 H 0.33258 0.67126 0.5989 0.0
H202 H 0.40233 0.75557 0.70643 0.0
H203 H 0.48467 0.75128 0.68954 0.0
H204 H 0.63022 0.51296 0.57844 0.0
H205 H 0.70085 0.49243 0.55526 0.0
H206 H 0.60436 0.40953 0.45668 0.0
H207 H 0.5328 0.42994 0.47994 0.0
Tb208 Tb 0.02415 0.56503 1.01048 0.0
Tb209 Tb 0.01715 0.49202 0.06209 0.0
C210 C 1.0048 0.6184 0.96589 0.0
C211 C 0.96401 0.63625 0.9592 0.0
C212 C 0.95447 0.64791 0.91923 0.0
C213 C 0.91153 0.65881 0.90985 0.0
C214 C 0.87752 0.6581 0.94034 0.0
C215 C 0.88804 0.64823 0.98094 0.0
C216 C 0.93112 0.63722 0.99027 0.0
C217 C 0.10982 0.57008 0.05321 0.0
C218 C 0.98083 0.56475 0.10205 0.0
C219 C 0.04118 0.43785 0.10281 0.0
C220 C 0.08209 0.41909 0.10189 0.0
C221 C 0.1234 0.43574 0.078 0.0
C222 C 0.16354 0.41955 0.07947 0.0
C223 C 0.16328 0.38666 0.1051 0.0
C224 C 0.12166 0.36965 0.12854 0.0
C225 C 0.08134 0.38569 0.12686 0.0
C226 C 0.93092 0.48664 0.0199 0.0
C227 C 0.06065 0.49357 0.97085 0.0
O228 O 0.99248 0.5781 0.95488 0.0
O229 O 0.03198 0.62863 1.00137 0.0
O230 O 0.06576 0.55606 0.06464 0.0
O231 O 0.10639 0.5844 1.01681 0.0
O232 O 0.98523 0.58028 0.06456 0.0
O233 O 0.9923 0.52997 0.10866 0.0
O234 O 0.05514 0.47817 0.11424 0.0
O235 O 0.0082 0.42804 0.07075 0.0
O236 O 0.97503 0.50145 1.00854 0.0
O237 O 0.93459 0.47035 0.05531 0.0
O238 O 0.05743 0.47838 1.00831 0.0
O239 O 0.04716 0.527 0.96342 0.0
H240 H 0.97929 0.64704 0.8948 0.0
H241 H 0.90395 0.66649 0.87842 0.0
H242 H 0.86219 0.64773 1.00484 0.0
H243 H 0.93803 0.62826 0.02121 0.0
H244 H 0.12517 0.46187 0.05892 0.0
H245 H 0.19538 0.4333 0.06133 0.0
H246 H 0.12082 0.34447 0.14867 0.0
H247 H 0.05001 0.37258 0.14572 0.0
C248 C 0.35265 0.19907 0.40739 0.0
C249 C 0.35604 0.17421 0.37132 0.0
C250 C 0.29452 0.11191 0.39634 0.0
C251 C 0.29261 0.13638 0.43309 0.0
N252 N 0.32608 0.20037 0.47781 0.0
N253 N 0.33915 0.10567 0.33519 0.0
C254 C 0.32383 0.17908 0.43999 0.0
C255 C 0.32957 0.13017 0.36689 0.0
N256 N 0.37449 0.24206 0.40949 0.0
N257 N 0.26185 0.07164 0.38908 0.0
H258 H 0.36527 0.11796 0.31344 0.0
H259 H 0.32484 0.07278 0.33262 0.0
H260 H 0.2367 0.05667 0.41057 0.0
H261 H 0.25722 0.05401 0.36071 0.0
H262 H 0.36843 0.26231 0.43272 0.0
H263 H 0.39569 0.25807 0.3862 0.0
H264 H 0.35216 0.22997 0.48638 0.0
H265 H 0.30448 0.18698 0.50205 0.0
C266 C 0.16297 0.81192 0.93195 0.0
C267 C 0.17955 0.80377 0.89254 0.0
C268 C 0.267 0.83583 0.92015 0.0
C269 C 0.25012 0.85022 0.95688 0.0
N270 N 0.18195 0.85501 0.9972 0.0
N271 N 0.24775 0.81298 0.84714 0.0
C272 C 0.19804 0.83872 0.96292 0.0
C273 C 0.23173 0.81647 0.88616 0.0
N274 N 0.11383 0.79348 0.93985 0.0
N275 N 0.3168 0.84062 0.91784 0.0
H276 H 0.22364 0.8002 0.82078 0.0
H277 H 0.28496 0.8263 0.8401 0.0
H278 H 0.34364 0.85477 0.94229 0.0
H279 H 0.33065 0.82693 0.8935 0.0
H280 H 0.10037 0.79491 0.96924 0.0
H281 H 0.08747 0.77321 0.91787 0.0
H282 H 0.1444 0.85166 1.00087 0.0
H283 H 0.20641 0.8746 0.02073 0.0
C284 C 0.57405 0.51952 0.73544 0.0
C285 C 0.62601 0.52797 0.74638 0.0
C286 C 0.64583 0.58069 0.69323 0.0
C287 C 0.59366 0.57388 0.68421 0.0
N288 N 0.51027 0.54725 0.70836 0.0
N289 N 0.71131 0.5722 0.74086 0.0
C290 C 0.55832 0.54614 0.70848 0.0
C291 C 0.66193 0.56008 0.72659 0.0
N292 N 0.53936 0.48507 0.74955 0.0
N293 N 0.68017 0.60637 0.66952 0.0
H294 H 0.72427 0.55819 0.76528 0.0
H295 H 0.73873 0.59844 0.73113 0.0
H296 H 0.67046 0.62371 0.6465 0.0
H297 H 0.71789 0.60849 0.67079 0.0
H298 H 0.50161 0.4749 0.73879 0.0
H299 H 0.54894 0.46415 0.76865 0.0
H300 H 0.48434 0.53056 0.72843 0.0
H301 H 0.4981 0.56879 0.6922 0.0
C302 C 0.99017 0.63263 0.20504 0.0
C303 C 0.95029 0.64963 0.19952 0.0
C304 C 0.927 0.6082 0.13084 0.0
C305 C 0.96529 0.58917 0.13784 0.0
N306 N 0.01739 0.57216 0.19234 0.0
N307 N 0.8724 0.64377 0.16084 0.0
C308 C 0.99207 0.5979 0.17805 0.0
C309 C 0.91652 0.63489 0.16326 0.0
N310 N 0.02784 0.65047 0.23532 0.0
N311 N 0.8989 0.5996 0.09372 0.0
H312 H 0.86175 0.66097 0.18435 0.0
H313 H 0.84378 0.63033 0.13764 0.0
H314 H 0.89956 0.57587 0.07177 0.0
H315 H 0.87602 0.61697 0.08415 0.0
H316 H 0.06038 0.64201 0.23786 0.0
H317 H 0.02941 0.67697 0.25453 0.0
H318 H 0.03352 0.57572 0.22273 0.0
H319 H 0.01652 0.54397 0.17691 0.0
C320 C 0.42216 0.16051 0.17791 0.0
C321 C 0.45832 0.20117 0.17634 0.0
C322 C 0.52596 0.17048 0.18896 0.0
C323 C 0.49017 0.12958 0.18139 0.0
N324 N 0.40647 0.08762 0.19474 0.0
N325 N 0.54455 0.24645 0.18611 0.0
C326 C 0.43872 0.12511 0.18408 0.0
C327 C 0.51027 0.20673 0.18442 0.0
N328 N 0.3722 0.15523 0.17111 0.0
N329 N 0.57402 0.1743 0.20248 0.0
H330 H 0.53413 0.27367 0.18511 0.0
H331 H 0.58318 0.25252 0.18685 0.0
H332 H 0.58413 0.14808 0.21036 0.0
H333 H 0.60198 0.203 0.21069 0.0
H334 H 0.34461 0.12568 0.16699 0.0
H335 H 0.35852 0.18037 0.16689 0.0
H336 H 0.3691 0.08306 0.20036 0.0
H337 H 0.41925 0.06298 0.20346 0.0
C338 C 0.05098 0.88518 0.67516 0.0
C339 C 0.02004 0.87967 0.70926 0.0
C340 C 0.98086 0.92956 0.68177 0.0
C341 C 0.00891 0.93224 0.646 0.0
N342 N 0.06027 0.90346 0.60378 0.0
N343 N 0.94793 0.88916 0.74037 0.0
C344 C 0.04081 0.90724 0.6412 0.0
C345 C 0.98254 0.89956 0.71112 0.0
N346 N 0.09192 0.87161 0.67602 0.0
N347 N 0.9549 0.95714 0.689 0.0
H348 H 0.94766 0.86682 0.76193 0.0
H349 H 0.91678 0.89951 0.74058 0.0
H350 H 0.95444 0.98075 0.66919 0.0
H351 H 0.93782 0.95928 0.7166 0.0
H352 H 0.11861 0.8791 0.65392 0.0
H353 H 0.10232 0.85666 0.70088 0.0
H354 H 0.07963 0.88226 0.59742 0.0
H355 H 0.05223 0.9179 0.57768 0.0
C356 C 0.83093 0.44243 0.92736 0.0
C357 C 0.78694 0.44499 0.94503 0.0
C358 C 0.83691 0.47503 1.01115 0.0
C359 C 0.88218 0.47544 0.99253 0.0
N360 N 0.92107 0.46785 0.92786 0.0
N361 N 0.74852 0.46911 1.00173 0.0
C362 C 0.87895 0.46173 0.94922 0.0
C363 C 0.79006 0.4626 0.98645 0.0
N364 N 0.82675 0.42017 0.88977 0.0
N365 N 0.83841 0.48687 0.05259 0.0
H366 H 0.71351 0.45925 0.98513 0.0
H367 H 0.74926 0.48672 0.02948 0.0
H368 H 0.87158 0.50096 0.07104 0.0
H369 H 0.80653 0.48135 0.06932 0.0
H370 H 0.85633 0.41224 0.87751 0.0
H371 H 0.79244 0.40579 0.87276 0.0
H372 H 0.92005 0.46343 0.89552 0.0
H373 H 0.95735 0.48129 0.94075 0.0
C374 C 0.72428 0.71144 0.50651 0.0
C375 C 0.75079 0.68457 0.49164 0.0
C376 C 0.70556 0.63027 0.5373 0.0
C377 C 0.67522 0.65552 0.54837 0.0
N378 N 0.67781 0.72776 0.56224 0.0
N379 N 0.76786 0.61839 0.49311 0.0
C380 C 0.69093 0.69847 0.53854 0.0
C381 C 0.74179 0.64394 0.50714 0.0
N382 N 0.72895 0.74863 0.48867 0.0
N383 N 0.70358 0.59571 0.55892 0.0
H384 H 0.79753 0.62833 0.47394 0.0
H385 H 0.75873 0.58656 0.49875 0.0
H386 H 0.68344 0.58864 0.58529 0.0
H387 H 0.72694 0.57744 0.5549 0.0
H388 H 0.70619 0.76701 0.4952 0.0
H389 H 0.75176 0.75893 0.46422 0.0
H390 H 0.69131 0.76009 0.55829 0.0
H391 H 0.66059 0.72074 0.59009 0.0
C392 C 0.29793 0.38761 0.12767 0.0
C393 C 0.29447 0.34557 0.11407 0.0
C394 C 0.20534 0.33108 0.09186 0.0
C395 C 0.20793 0.37176 0.10903 0.0
N396 N 0.25412 0.43515 0.15139 0.0
N397 N 0.24256 0.27488 0.09023 0.0
C398 C 0.25348 0.39891 0.12941 0.0
C399 C 0.24747 0.31659 0.09808 0.0
N400 N 0.34388 0.41761 0.13667 0.0
N401 N 0.16325 0.30683 0.06843 0.0
H402 H 0.27222 0.26299 0.09521 0.0
H403 H 0.20817 0.25145 0.08262 0.0
H404 H 0.13177 0.31634 0.06318 0.0
H405 H 0.16113 0.27897 0.05133 0.0
H406 H 0.34868 0.44966 0.14228 0.0
H407 H 0.37768 0.41148 0.13427 0.0
H408 H 0.28494 0.45379 0.17057 0.0
H409 H 0.22232 0.44445 0.15376 0.0
C410 C 0.59436 0.20986 0.04256 0.0
C411 C 0.61319 0.20785 1.0027 0.0
C412 C 0.56926 0.13051 0.99631 0.0
C413 C 0.55005 0.133 0.03604 0.0
N414 N 0.52967 0.17786 0.08835 0.0
N415 N 0.60844 0.16774 0.9374 0.0
C416 C 0.55802 0.17349 0.05646 0.0
C417 C 0.5979 0.16846 0.97838 0.0
N418 N 0.613 0.2458 0.06845 0.0
N419 N 0.55855 0.09196 0.975 0.0
H420 H 0.62723 0.19493 0.92283 0.0
H421 H 0.59474 0.14118 0.91661 0.0
H422 H 0.53372 0.06435 0.98506 0.0
H423 H 0.57545 0.08689 0.94813 0.0
H424 H 0.60461 0.24724 0.09956 0.0
H425 H 0.64065 0.27282 0.06032 0.0
H426 H 0.5296 0.20732 0.1004 0.0
H427 H 0.50175 0.15254 0.09887 0.0
C428 C 1.00065 0.88154 0.40575 0.0
C429 C 0.95087 0.85235 0.40471 0.0
C430 C 0.93594 0.89265 0.46615 0.0
C431 C 0.98316 0.92423 0.46499 0.0
N432 N 0.05662 0.9527 0.42685 0.0
N433 N 0.86644 0.84319 0.42471 0.0
C434 C 0.01421 0.91999 0.43245 0.0
C435 C 0.91702 0.86235 0.43177 0.0
N436 N 0.03595 0.87198 0.38342 0.0
N437 N 0.91081 0.88863 0.50155 0.0
H438 H 0.85052 0.82345 0.39805 0.0
H439 H 0.84062 0.8514 0.44257 0.0
H440 H 0.92709 0.90611 0.52929 0.0
H441 H 0.87765 0.86399 0.50468 0.0
H442 H 0.07387 0.8899 0.38666 0.0
H443 H 0.02832 0.84436 0.36428 0.0
H444 H 0.0784 0.95309 0.40157 0.0
H445 H 0.067 0.9812 0.44514 0.0
C446 C 0.23478 0.73133 0.66081 0.0
C447 C 0.22142 0.71516 0.70008 0.0
C448 C 0.29421 0.69017 0.70339 0.0
C449 C 0.31152 0.71193 0.66763 0.0
N450 N 0.30127 0.75714 0.61423 0.0
N451 N 0.24469 0.68677 0.76285 0.0
C452 C 0.28253 0.73348 0.64668 0.0
C453 C 0.25255 0.69628 0.72241 0.0
N454 N 0.20125 0.74333 0.63646 0.0
N455 N 0.3172 0.66321 0.71894 0.0
H456 H 0.21648 0.6928 0.77924 0.0
H457 H 0.2696 0.67712 0.78168 0.0
H458 H 0.34762 0.65756 0.70555 0.0
H459 H 0.30284 0.64324 0.74234 0.0
H460 H 0.207 0.75154 0.60589 0.0
H461 H 0.16543 0.74106 0.64531 0.0
H462 H 0.28432 0.77729 0.60075 0.0
H463 H 0.33589 0.75914 0.60282 0.0
C464 C 0.74798 0.82393 0.74276 0.0
C465 C 0.69731 0.82021 0.74913 0.0
C466 C 0.70028 0.87384 0.69914 0.0
C467 C 0.74853 0.87333 0.68894 0.0
N468 N 0.81645 0.84446 0.69735 0.0
N469 N 0.62301 0.83827 0.73082 0.0
C470 C 0.77202 0.84756 0.70988 0.0
C471 C 0.6729 0.84455 0.72691 0.0
N472 N 0.77357 0.80582 0.76902 0.0
N473 N 0.68113 0.90295 0.68293 0.0
H474 H 0.60183 0.81746 0.75113 0.0
H475 H 0.60166 0.85134 0.71184 0.0
H476 H 0.7 0.92463 0.66227 0.0
H477 H 0.64865 0.90798 0.69253 0.0
H478 H 0.81201 0.81102 0.76876 0.0
H479 H 0.75738 0.78886 0.7939 0.0
H480 H 0.83257 0.82262 0.70825 0.0
H481 H 0.83546 0.86138 0.6735 0.0
C482 C 0.87145 0.27003 0.28334 0.0
C483 C 0.85107 0.29615 0.30777 0.0
C484 C 0.7765 0.27828 0.25917 0.0
C485 C 0.79454 0.24887 0.23732 0.0
N486 N 0.8623 0.22252 0.22165 0.0
N487 N 0.7909 0.33311 0.31521 0.0
C488 C 0.84343 0.247 0.24694 0.0
C489 C 0.80596 0.30328 0.29411 0.0
N490 N 0.9168 0.26626 0.29615 0.0
N491 N 0.73007 0.28045 0.2475 0.0
H492 H 0.81089 0.35093 0.34164 0.0
H493 H 0.76046 0.34232 0.30545 0.0
H494 H 0.70903 0.26393 0.22076 0.0
H495 H 0.7116 0.29756 0.26435 0.0
H496 H 0.93194 0.24447 0.28293 0.0
H497 H 0.93953 0.28501 0.3211 0.0
H498 H 0.89885 0.22168 0.22488 0.0
H499 H 0.84214 0.20451 0.19532 0.0
C500 C 0.52554 0.69661 0.42899 0.0
C501 C 0.47497 0.69208 0.41654 0.0
C502 C 0.44768 0.64332 0.47291 0.0
C503 C 0.49796 0.64343 0.48169 0.0
N504 N 0.58468 0.66856 0.46407 0.0
N505 N 0.38705 0.6556 0.42299 0.0
C506 C 0.53672 0.66958 0.45848 0.0
C507 C 0.43587 0.6644 0.43792 0.0
N508 N 0.56331 0.72823 0.41394 0.0
N509 N 0.41047 0.62247 0.4972 0.0
H510 H 0.37647 0.66913 0.39714 0.0
H511 H 0.35725 0.63184 0.43365 0.0
H512 H 0.41515 0.60338 0.52049 0.0
H513 H 0.37525 0.62644 0.4961 0.0
H514 H 0.60072 0.73667 0.42526 0.0
H515 H 0.55667 0.74907 0.3931 0.0
H516 H 0.61272 0.68201 0.44428 0.0
H517 H 0.59613 0.65217 0.48692 0.0
C518 C 0.0527 0.4117 0.87981 0.0
C519 C 0.10185 0.42618 0.86509 0.0
C520 C 0.12185 0.48774 0.91668 0.0
C521 C 0.07553 0.47011 0.93502 0.0
N522 N 0.99975 0.4107 0.93718 0.0
N523 N 0.18712 0.47331 0.8785 0.0
C524 C 0.04216 0.43045 0.91779 0.0
C525 C 0.13753 0.46296 0.88604 0.0
N526 N 0.01474 0.38213 0.85618 0.0
N527 N 0.15083 0.52846 0.92784 0.0
H528 H 0.20105 0.45466 0.85883 0.0
H529 H 0.21516 0.49749 0.89565 0.0
H530 H 0.14021 0.54784 0.94923 0.0
H531 H 0.18261 0.54418 0.91266 0.0
H532 H 0.97732 0.37362 0.86335 0.0
H533 H 0.01928 0.36987 0.82683 0.0
H534 H 0.97703 0.37978 0.9286 0.0
H535 H 0.98934 0.42377 0.96389 0.0
C536 C 0.55431 0.89805 0.96596 0.0
C537 C 0.58435 0.91959 0.93474 0.0
C538 C 0.59613 0.98748 0.97339 0.0
C539 C 0.56379 0.9663 1.00374 0.0
N540 N 0.50462 0.90137 0.02438 0.0
N541 N 0.61671 0.98507 0.90155 0.0
C542 C 0.54033 0.92161 0.9985 0.0
C543 C 0.60074 0.96441 0.93641 0.0
N544 N 0.54062 0.85491 0.96552 0.0
N545 N 0.62217 0.02973 0.97909 0.0
H546 H 0.61538 0.96929 0.87256 0.0
H547 H 0.62451 0.01756 0.89995 0.0
H548 H 0.61784 0.04941 1.0036 0.0
H549 H 0.65079 0.04491 0.96043 0.0
H550 H 0.52462 0.83772 0.99026 0.0
H551 H 0.54844 0.83623 0.94161 0.0
H552 H 0.48169 0.87007 1.01854 0.0
H553 H 0.49517 0.91619 0.05036 0.0
C554 C 0.94288 0.14491 0.43517 0.0
C555 C 0.97334 0.18588 0.45115 0.0
C556 C 0.03129 0.15562 0.48715 0.0
C557 C 0.99859 0.11397 0.47352 0.0
N558 N 0.93619 0.07117 0.42172 0.0
N559 N 0.05425 0.23119 0.48066 0.0
C560 C 0.95844 0.1094 0.44334 0.0
C561 C 0.02033 0.1915 0.47276 0.0
N562 N 0.89876 0.13985 0.41252 0.0
N563 N 0.0701 0.16183 0.51671 0.0
H564 H 0.04672 0.25876 0.47395 0.0
H565 H 0.09166 0.23673 0.49071 0.0
H566 H 0.08218 0.13839 0.52876 0.0
H567 H 0.08885 0.19105 0.53244 0.0
H568 H 0.87187 0.11048 0.40456 0.0
H569 H 0.88808 0.16532 0.40309 0.0
H570 H 0.90938 0.06634 0.39688 0.0
H571 H 0.94884 0.04538 0.4257 0.0
C572 C 0.19498 0.63745 0.14263 0.0
C573 C 0.24248 0.64771 0.12558 0.0
C574 C 0.20445 0.59688 0.06551 0.0
C575 C 0.15665 0.58818 0.08201 0.0
N576 N 0.11463 0.58419 0.14592 0.0
N577 N 0.29513 0.62948 0.07632 0.0
C578 C 0.15423 0.60346 0.12352 0.0
C579 C 0.24806 0.62508 0.08854 0.0
N580 N 0.18757 0.66139 0.17578 0.0
N581 N 0.20799 0.57732 0.02813 0.0
H582 H 0.32763 0.64876 0.09323 0.0
H583 H 0.30247 0.61167 0.05155 0.0
H584 H 0.17836 0.5519 1.01442 0.0
H585 H 0.23965 0.58588 1.01104 0.0
H586 H 0.15208 0.6578 0.18619 0.0
H587 H 0.21569 0.68744 0.19028 0.0
H588 H 0.11405 0.59187 0.17762 0.0
H589 H 0.0872 0.55618 0.13503 0.0
C590 C 0.33815 0.46486 0.66277 0.0
C591 C 0.30107 0.48321 0.67384 0.0
C592 C 0.34464 0.54556 0.63623 0.0
C593 C 0.38517 0.52966 0.6305 0.0
N594 N 0.42472 0.47761 0.64826 0.0
N595 N 0.27431 0.545 0.67691 0.0
C596 C 0.38311 0.49024 0.64648 0.0
C597 C 0.30569 0.52469 0.66209 0.0
N598 N 0.32976 0.42259 0.66593 0.0
N599 N 0.3422 0.57963 0.61565 0.0
H600 H 0.24648 0.53149 0.69689 0.0
H601 H 0.27916 0.57672 0.67273 0.0
H602 H 0.36866 0.59423 0.59499 0.0
H603 H 0.31127 0.59029 0.61551 0.0
H604 H 0.3535 0.40701 0.65433 0.0
H605 H 0.29642 0.40212 0.67553 0.0
H606 H 0.42637 0.45142 0.66379 0.0
H607 H 0.45936 0.4956 0.63867 0.0
C608 C 0.78945 0.71361 0.89831 0.0
C609 C 0.744 0.67919 0.89102 0.0
C610 C 0.78493 0.63123 0.92015 0.0
C611 C 0.82988 0.66587 0.92842 0.0
N612 N 0.87189 0.74108 0.93499 0.0
N613 N 0.69485 0.60811 0.90431 0.0
C614 C 0.83102 0.70748 0.92072 0.0
C615 C 0.74062 0.63884 0.90489 0.0
N616 N 0.79411 0.75135 0.88155 0.0
N617 N 0.78508 0.59088 0.92501 0.0
H618 H 0.66152 0.61292 0.89397 0.0
H619 H 0.68925 0.57942 0.91776 0.0
H620 H 0.81651 0.5839 0.93666 0.0
H621 H 0.75511 0.56407 0.91475 0.0
H622 H 0.8281 0.7758 0.88171 0.0
H623 H 0.76505 0.75721 0.86431 0.0
H624 H 0.873 0.77245 0.93403 0.0
H625 H 0.90297 0.73747 0.95144 0.0
C626 C 0.47207 0.90888 0.2338 0.0
C627 C 0.47772 0.87042 0.2176 0.0
C628 C 0.52158 0.90779 0.15902 0.0
C629 C 0.51361 0.94609 0.17368 0.0
N630 N 0.48071 0.98288 0.22556 0.0
N631 N 0.50545 0.83233 0.16381 0.0
C632 C 0.48851 0.94649 0.21118 0.0
C633 C 0.50211 0.86987 0.1801 0.0
N634 N 0.45159 0.90945 0.27136 0.0
N635 N 0.54848 0.90751 0.12484 0.0
H636 H 0.49643 0.80493 0.18 0.0
H637 H 0.515 0.82747 0.13362 0.0
H638 H 0.55827 0.932 0.105 0.0
H639 H 0.56293 0.88348 0.11653 0.0
H640 H 0.45 0.93658 0.2876 0.0
H641 H 0.43851 0.88255 0.28797 0.0
H642 H 0.45745 0.98455 0.24918 0.0
H643 H 0.49646 1.01196 0.21326 0.0
C644 C 0.0292 0.18564 0.66036 0.0
C645 C 0.06143 0.18517 0.69549 0.0
C646 C 0.05584 0.11196 0.67202 0.0
C647 C 0.02754 0.11397 0.63453 0.0
N648 N 1.00037 0.15973 0.58936 0.0
N649 N 0.11578 0.1513 0.72829 0.0
C650 C 0.01845 0.15298 0.62761 0.0
C651 C 0.07799 0.14939 0.69921 0.0
N652 N 1.006 0.21578 0.65897 0.0
N653 N 0.05918 0.07422 0.68369 0.0
H654 H 0.1338 0.17832 0.74785 0.0
H655 H 0.13286 0.12793 0.72973 0.0
H656 H 0.04144 0.04551 0.66697 0.0
H657 H 0.07491 0.07071 0.71272 0.0
H658 H 0.9777 0.21457 0.63633 0.0
H659 H 0.01076 0.23937 0.68267 0.0
H660 H 0.9984 0.18909 0.58163 0.0
H661 H 0.99293 0.1379 0.56382 0.0
C662 C 0.74579 0.38675 0.4808 0.0
C663 C 0.78495 0.41775 0.46285 0.0
C664 C 0.73838 0.46814 0.46897 0.0
C665 C 0.70132 0.43839 0.48995 0.0
N666 N 0.67407 0.37246 0.52294 0.0
N667 N 0.82365 0.4905 0.44784 0.0
C668 C 0.70635 0.39859 0.49805 0.0
C669 C 0.78271 0.45923 0.45924 0.0
N670 N 0.74466 0.34553 0.47938 0.0
N671 N 0.73045 0.50429 0.45705 0.0
H672 H 0.85725 0.48537 0.44144 0.0
H673 H 0.82607 0.52227 0.44879 0.0
H674 H 0.69835 0.51194 0.46351 0.0
H675 H 0.75355 0.52491 0.43769 0.0
H676 H 0.71412 0.32086 0.48769 0.0
H677 H 0.77222 0.3352 0.46642 0.0
H678 H 0.67922 0.34517 0.53369 0.0
H679 H 0.64443 0.37988 0.53582 0.0
loop_
_geom_bond_atom_site_label_1
_geom_bond_atom_site_label_2
_geom_bond_distance
_geom_bond_site_symmetry_2
_ccdc_geom_bond_type
O0 Cd1 2.300 . S
O0 C7 1.275 . S
Cd1 O0 2.300 . S
Cd1 O9 2.381 . S
Cd1 O10 2.378 . S
O2 Cd3 2.385 . S
O2 C7 1.255 . S
Cd3 O2 2.385 . S
Cd3 O4 2.317 . S
O4 Cd3 2.317 . S
O4 C5 1.232 . S
C5 O4 1.232 . S
C5 O6 1.218 . S
O6 C5 1.218 . S
C7 O0 1.275 . S
C7 O2 1.255 . S
C8 O9 1.258 . S
C8 O10 1.256 . S
O9 Cd1 2.381 . S
O9 C8 1.258 . S
O10 Cd1 2.378 . S
O10 C8 1.256 . S
O11 Cd12 2.300 . S
O11 C18 1.275 . S
Cd12 O11 2.300 . S
Cd12 O20 2.381 . S
Cd12 O21 2.378 . S
O13 Cd14 2.385 1_455 S
O13 C18 1.255 . S
Cd14 O13 2.385 1_655 S
Cd14 O15 2.317 1_655 S
O15 Cd14 2.317 1_455 S
O15 C16 1.232 . S
C16 O15 1.232 . S
C16 O17 1.218 1_455 S
O17 C16 1.218 1_655 S
C18 O11 1.275 . S
C18 O13 1.255 . S
C19 O20 1.258 . S
C19 O21 1.256 . S
O20 Cd12 2.381 . S
O20 C19 1.258 . S
O21 Cd12 2.378 . S
O21 C19 1.256 . S
O22 Cd23 2.300 . S
O22 C29 1.275 . S
Cd23 O22 2.300 . S
Cd23 O31 2.381 . S
Cd23 O32 2.378 . S
O24 Cd25 2.385 . S
O24 C29 1.255 . S
Cd25 O24 2.385 . S
Cd25 O26 2.317 . S
O26 Cd25 2.317 . S
O26 C27 1.232 . S
C27 O26 1.232 . S
C27 O28 1.218 . S
O28 C27 1.218 . S
C29 O22 1.275 . S
C29 O24 1.255 . S
C30 O31 1.258 . S
C30 O32 1.256 . S
O31 Cd23 2.381 . S
O31 C30 1.258 . S
O32 Cd23 2.378 . S
O32 C30 1.256 . S
O33 Cd34 2.300 . S
O33 C40 1.275 . S
Cd34 O33 2.300 . S
Cd34 O42 2.381 . S
Cd34 O43 2.378 . S
O35 Cd36 2.385 . S
O35 C40 1.255 . S
Cd36 O35 2.385 . S
Cd36 O37 2.317 . S
O37 Cd36 2.317 . S
O37 C38 1.232 . S
C38 O37 1.232 . S
C38 O39 1.218 . S
O39 C38 1.218 . S
C40 O33 1.275 . S
C40 O35 1.255 . S
C41 O42 1.258 . S
C41 O43 1.256 . S
O42 Cd34 2.381 . S
O42 C41 1.258 . S
O43 Cd34 2.378 . S
O43 C41 1.256 . S
O44 Cd45 2.300 . S
O44 C51 1.275 . S
Cd45 O44 2.300 . S
Cd45 O53 2.381 . S
Cd45 O54 2.378 . S
O46 Cd47 2.385 . S
O46 C51 1.255 . S
Cd47 O46 2.385 . S
Cd47 O48 2.317 . S
O48 Cd47 2.317 . S
O48 C49 1.232 . S
C49 O48 1.232 . S
C49 O50 1.218 . S
O50 C49 1.218 . S
C51 O44 1.275 . S
C51 O46 1.255 . S
C52 O53 1.258 . S
C52 O54 1.256 . S
O53 Cd45 2.381 . S
O53 C52 1.258 . S
O54 Cd45 2.378 . S
O54 C52 1.256 . S
O55 Cd56 2.300 . S
O55 C62 1.275 . S
Cd56 O55 2.300 . S
Cd56 O64 2.381 . S
Cd56 O65 2.378 1_655 S
O57 Cd58 2.385 . S
O57 C62 1.255 . S
Cd58 O57 2.385 . S
Cd58 O59 2.317 . S
O59 Cd58 2.317 . S
O59 C60 1.232 . S
C60 O59 1.232 . S
C60 O61 1.218 . S
O61 C60 1.218 . S
C62 O55 1.275 . S
C62 O57 1.255 . S
C63 O64 1.258 1_455 S
C63 O65 1.256 . S
O64 Cd56 2.381 . S
O64 C63 1.258 1_655 S
O65 Cd56 2.378 1_455 S
O65 C63 1.256 . S
O66 Cd67 2.300 . S
O66 C73 1.275 . S
Cd67 O66 2.300 . S
Cd67 O75 2.381 . S
Cd67 O76 2.378 . S
O68 Cd69 2.385 . S
O68 C73 1.255 . S
Cd69 O68 2.385 . S
Cd69 O70 2.317 . S
O70 Cd69 2.317 . S
O70 C71 1.232 . S
C71 O70 1.232 . S
C71 O72 1.218 . S
O72 C71 1.218 . S
C73 O66 1.275 . S
C73 O68 1.255 . S
C74 O75 1.258 . S
C74 O76 1.256 . S
O75 Cd67 2.381 . S
O75 C74 1.258 . S
O76 Cd67 2.378 . S
O76 C74 1.256 . S
O77 Cd78 2.300 . S
O77 C84 1.275 . S
Cd78 O77 2.300 . S
Cd78 O86 2.381 . S
Cd78 O87 2.378 . S
O79 Cd80 2.385 . S
O79 C84 1.255 . S
Cd80 O79 2.385 . S
Cd80 O81 2.317 . S
O81 Cd80 2.317 . S
O81 C82 1.232 . S
C82 O81 1.232 . S
C82 O83 1.218 . S
O83 C82 1.218 . S
C84 O77 1.275 . S
C84 O79 1.255 . S
C85 O86 1.258 . S
C85 O87 1.256 . S
O86 Cd78 2.381 . S
O86 C85 1.258 . S
O87 Cd78 2.378 . S
O87 C85 1.256 . S
Tb88 C90 2.809 1_545 S
Tb88 O108 2.484 1_545 S
Tb88 O109 2.440 1_545 S
Tb88 O110 2.658 1_655 S
Tb88 O111 2.409 . S
Tb88 O112 2.378 1_645 S
Tb88 O116 2.325 1_545 S
Tb88 O119 2.341 . S
Tb89 C99 2.809 . S
Tb89 O110 2.325 . S
Tb89 O113 2.341 1_545 S
Tb89 O114 2.484 . S
Tb89 O115 2.440 . S
Tb89 O116 2.658 1_445 S
Tb89 O117 2.409 1_545 S
Tb89 O118 2.378 . S
C90 Tb88 2.809 1_565 S
C90 C91 1.514 . S
C90 O108 1.248 . S
C90 O109 1.266 . S
C91 C90 1.514 . S
C91 C92 1.359 . S
C91 C96 1.348 . S
C92 C91 1.359 . S
C92 C93 1.380 . S
C92 H120 0.929 . S
C93 C92 1.380 . S
C93 C94 1.347 . S
C93 H121 0.931 . S
C94 C93 1.347 . S
C94 C95 1.369 . S
C95 C94 1.369 . S
C95 C96 1.408 . S
C95 H122 0.930 . S
C96 C91 1.348 . S
C96 C95 1.408 . S
C96 H123 0.930 . S
C97 O110 1.281 . S
C97 O111 1.254 1_455 S
C98 O112 1.236 . S
C98 O113 1.266 . S
C99 Tb89 2.809 . S
C99 C100 1.514 . S
C99 O114 1.248 . S
C99 O115 1.266 . S
C100 C99 1.514 . S
C100 C101 1.359 . S
C100 C105 1.348 . S
C101 C100 1.359 . S
C101 C102 1.380 . S
C101 H124 0.929 . S
C102 C101 1.380 . S
C102 C103 1.347 . S
C102 H125 0.931 . S
C103 C102 1.347 . S
C103 C104 1.369 . S
C104 C103 1.369 . S
C104 C105 1.408 . S
C104 H126 0.930 . S
C105 C100 1.348 . S
C105 C104 1.408 . S
C105 H127 0.930 . S
C106 O116 1.281 . S
C106 O117 1.254 1_655 S
C107 O118 1.236 1_655 S
C107 O119 1.266 . S
O108 Tb88 2.484 1_565 S
O108 C90 1.248 . S
O109 Tb88 2.440 1_565 S
O109 C90 1.266 . S
O110 Tb88 2.658 1_455 S
O110 Tb89 2.325 . S
O110 C97 1.281 . S
O111 Tb88 2.409 . S
O111 C97 1.254 1_655 S
O112 Tb88 2.378 1_465 S
O112 C98 1.236 . S
O113 Tb89 2.341 1_565 S
O113 C98 1.266 . S
O114 Tb89 2.484 . S
O114 C99 1.248 . S
O115 Tb89 2.440 . S
O115 C99 1.266 . S
O116 Tb88 2.325 1_565 S
O116 Tb89 2.658 1_665 S
O116 C106 1.281 . S
O117 Tb89 2.409 1_565 S
O117 C106 1.254 1_455 S
O118 Tb89 2.378 . S
O118 C107 1.236 1_455 S
O119 Tb88 2.341 . S
O119 C107 1.266 . S
H120 C92 0.929 . S
H121 C93 0.931 . S
H122 C95 0.930 . S
H123 C96 0.930 . S
H124 C101 0.929 . S
H125 C102 0.931 . S
H126 C104 0.930 . S
H127 C105 0.930 . S
Tb128 C130 2.809 . S
Tb128 O148 2.484 . S
Tb128 O149 2.440 . S
Tb128 O150 2.659 1_545 S
Tb128 O151 2.409 1_545 S
Tb128 O152 2.378 . S
Tb128 O156 2.325 . S
Tb128 O159 2.341 . S
Tb129 C139 2.809 1_544 S
Tb129 O150 2.325 1_545 S
Tb129 O153 2.341 . S
Tb129 O154 2.484 1_545 S
Tb129 O155 2.440 1_554 S
Tb129 O156 2.658 . S
Tb129 O157 2.409 1_554 S
Tb129 O158 2.378 1_554 S
C130 Tb128 2.809 . S
C130 C131 1.514 . S
C130 O148 1.248 . S
C130 O149 1.266 . S
C131 C130 1.514 . S
C131 C132 1.359 . S
C131 C136 1.348 . S
C132 C131 1.359 . S
C132 C133 1.380 . S
C132 H160 0.929 . S
C133 C132 1.380 . S
C133 C134 1.347 . S
C133 H161 0.931 . S
C134 C133 1.347 . S
C134 C135 1.369 . S
C135 C134 1.369 . S
C135 C136 1.408 . S
C135 H162 0.930 . S
C136 C131 1.348 . S
C136 C135 1.408 . S
C136 H163 0.930 . S
C137 O150 1.281 . S
C137 O151 1.254 . S
C138 O152 1.236 . S
C138 O153 1.266 . S
C139 Tb129 2.809 1_566 S
C139 C140 1.514 . S
C139 O154 1.248 1_556 S
C139 O155 1.266 1_565 S
C140 C139 1.514 . S
C140 C141 1.359 . S
C140 C145 1.348 . S
C141 C140 1.359 . S
C141 C142 1.380 . S
C141 H164 0.929 . S
C142 C141 1.380 . S
C142 C143 1.347 . S
C142 H165 0.931 . S
C143 C142 1.347 . S
C143 C144 1.369 . S
C144 C143 1.369 . S
C144 C145 1.408 . S
C144 H166 0.930 . S
C145 C140 1.348 . S
C145 C144 1.408 . S
C145 H167 0.930 . S
C146 O156 1.281 . S
C146 O157 1.254 1_554 S
C147 O158 1.236 1_564 S
C147 O159 1.266 1_565 S
O148 Tb128 2.484 . S
O148 C130 1.248 . S
O149 Tb128 2.440 . S
O149 C130 1.266 . S
O150 Tb128 2.659 1_565 S
O150 Tb129 2.325 1_565 S
O150 C137 1.281 . S
O151 Tb128 2.409 1_565 S
O151 C137 1.254 . S
O152 Tb128 2.378 . S
O152 C138 1.236 . S
O153 Tb129 2.341 . S
O153 C138 1.266 . S
O154 Tb129 2.484 1_565 S
O154 C139 1.248 1_554 S
O155 Tb129 2.440 1_556 S
O155 C139 1.266 1_545 S
O156 Tb128 2.325 . S
O156 Tb129 2.658 . S
O156 C146 1.281 . S
O157 Tb129 2.409 1_556 S
O157 C146 1.254 1_556 S
O158 Tb129 2.378 1_556 S
O158 C147 1.236 1_546 S
O159 Tb128 2.341 . S
O159 C147 1.266 1_545 S
H160 C132 0.929 . S
H161 C133 0.931 . S
H162 C135 0.930 . S
H163 C136 0.930 . S
H164 C141 0.929 . S
H165 C142 0.931 . S
H166 C144 0.930 . S
H167 C145 0.930 . S
Tb168 C170 2.809 . S
Tb168 O188 2.484 . S
Tb168 O189 2.440 . S
Tb168 O190 2.658 . S
Tb168 O191 2.409 . S
Tb168 O192 2.378 . S
Tb168 O196 2.325 . S
Tb168 O199 2.341 . S
Tb169 C179 2.809 . S
Tb169 O190 2.325 . S
Tb169 O193 2.341 . S
Tb169 O194 2.484 . S
Tb169 O195 2.440 . S
Tb169 O196 2.658 . S
Tb169 O197 2.409 . S
Tb169 O198 2.378 . S
C170 Tb168 2.809 . S
C170 C171 1.514 . S
C170 O188 1.248 . S
C170 O189 1.266 . S
C171 C170 1.514 . S
C171 C172 1.359 . S
C171 C176 1.348 . S
C172 C171 1.359 . S
C172 C173 1.380 . S
C172 H200 0.929 . S
C173 C172 1.380 . S
C173 C174 1.347 . S
C173 H201 0.931 . S
C174 C173 1.347 . S
C174 C175 1.369 . S
C175 C174 1.369 . S
C175 C176 1.408 . S
C175 H202 0.930 . S
C176 C171 1.348 . S
C176 C175 1.408 . S
C176 H203 0.930 . S
C177 O190 1.281 . S
C177 O191 1.254 . S
C178 O192 1.236 . S
C178 O193 1.266 . S
C179 Tb169 2.809 . S
C179 C180 1.514 . S
C179 O194 1.248 . S
C179 O195 1.266 . S
C180 C179 1.514 . S
C180 C181 1.359 . S
C180 C185 1.348 . S
C181 C180 1.359 . S
C181 C182 1.380 . S
C181 H204 0.929 . S
C182 C181 1.380 . S
C182 C183 1.347 . S
C182 H205 0.931 . S
C183 C182 1.347 . S
C183 C184 1.369 . S
C184 C183 1.369 . S
C184 C185 1.408 . S
C184 H206 0.930 . S
C185 C180 1.348 . S
C185 C184 1.408 . S
C185 H207 0.930 . S
C186 O196 1.281 . S
C186 O197 1.254 . S
C187 O198 1.236 . S
C187 O199 1.266 . S
O188 Tb168 2.484 . S
O188 C170 1.248 . S
O189 Tb168 2.440 . S
O189 C170 1.266 . S
O190 Tb168 2.658 . S
O190 Tb169 2.325 . S
O190 C177 1.281 . S
O191 Tb168 2.409 . S
O191 C177 1.254 . S
O192 Tb168 2.378 . S
O192 C178 1.236 . S
O193 Tb169 2.341 . S
O193 C178 1.266 . S
O194 Tb169 2.484 . S
O194 C179 1.248 . S
O195 Tb169 2.440 . S
O195 C179 1.266 . S
O196 Tb168 2.325 . S
O196 Tb169 2.658 . S
O196 C186 1.281 . S
O197 Tb169 2.409 . S
O197 C186 1.254 . S
O198 Tb169 2.378 . S
O198 C187 1.236 . S
O199 Tb168 2.341 . S
O199 C187 1.266 . S
H200 C172 0.929 . S
H201 C173 0.931 . S
H202 C175 0.930 . S
H203 C176 0.930 . S
H204 C181 0.929 . S
H205 C182 0.931 . S
H206 C184 0.930 . S
H207 C185 0.930 . S
Tb208 C210 2.809 1_455 S
Tb208 O228 2.484 1_455 S
Tb208 O229 2.440 . S
Tb208 O230 2.658 1_556 S
Tb208 O231 2.409 1_556 S
Tb208 O232 2.378 1_556 S
Tb208 O236 2.325 1_455 S
Tb208 O239 2.341 . S
Tb209 C219 2.809 . S
Tb209 O230 2.325 . S
Tb209 O233 2.341 1_455 S
Tb209 O234 2.484 . S
Tb209 O235 2.440 . S
Tb209 O236 2.658 1_454 S
Tb209 O237 2.409 1_455 S
Tb209 O238 2.378 1_554 S
C210 Tb208 2.809 1_655 S
C210 C211 1.514 . S
C210 O228 1.248 . S
C210 O229 1.266 1_655 S
C211 C210 1.514 . S
C211 C212 1.359 . S
C211 C216 1.348 . S
C212 C211 1.359 . S
C212 C213 1.380 . S
C212 H240 0.929 . S
C213 C212 1.380 . S
C213 C214 1.347 . S
C213 H241 0.931 . S
C214 C213 1.347 . S
C214 C215 1.369 . S
C215 C214 1.369 . S
C215 C216 1.408 . S
C215 H242 0.930 . S
C216 C211 1.348 . S
C216 C215 1.408 . S
C216 H243 0.930 1_655 S
C217 O230 1.281 . S
C217 O231 1.254 . S
C218 O232 1.236 1_655 S
C218 O233 1.266 . S
C219 Tb209 2.809 . S
C219 C220 1.514 . S
C219 O234 1.248 . S
C219 O235 1.266 . S
C220 C219 1.514 . S
C220 C221 1.359 . S
C220 C225 1.348 . S
C221 C220 1.359 . S
C221 C222 1.380 . S
C221 H244 0.929 . S
C222 C221 1.380 . S
C222 C223 1.347 . S
C222 H245 0.931 . S
C223 C222 1.347 . S
C223 C224 1.369 . S
C224 C223 1.369 . S
C224 C225 1.408 . S
C224 H246 0.930 . S
C225 C220 1.348 . S
C225 C224 1.408 . S
C225 H247 0.930 . S
C226 O236 1.281 . S
C226 O237 1.254 1_556 S
C227 O238 1.236 . S
C227 O239 1.266 . S
O228 Tb208 2.484 1_655 S
O228 C210 1.248 . S
O229 Tb208 2.440 . S
O229 C210 1.266 1_455 S
O230 Tb208 2.658 1_554 S
O230 Tb209 2.325 . S
O230 C217 1.281 . S
O231 Tb208 2.409 1_554 S
O231 C217 1.254 . S
O232 Tb208 2.378 1_554 S
O232 C218 1.236 1_455 S
O233 Tb209 2.341 1_655 S
O233 C218 1.266 . S
O234 Tb209 2.484 . S
O234 C219 1.248 . S
O235 Tb209 2.440 . S
O235 C219 1.266 . S
O236 Tb208 2.325 1_655 S
O236 Tb209 2.658 1_656 S
O236 C226 1.281 . S
O237 Tb209 2.409 1_655 S
O237 C226 1.254 1_554 S
O238 Tb209 2.378 1_556 S
O238 C227 1.236 . S
O239 Tb208 2.341 . S
O239 C227 1.266 . S
H240 C212 0.929 . S
H241 C213 0.931 . S
H242 C215 0.930 . S
H243 C216 0.930 1_455 S
H244 C221 0.929 . S
H245 C222 0.931 . S
H246 C224 0.930 . S
H247 C225 0.930 . S
C248 C249 1.363 . S
C248 C254 1.379 . S
C248 N256 1.356 . S
C249 C248 1.363 . S
C249 C255 1.363 . S
C250 C251 1.363 . S
C250 C255 1.379 . S
C250 N257 1.356 . S
C251 C250 1.363 . S
C251 C254 1.363 . S
N252 C254 1.356 . S
N252 H264 0.984 . S
N252 H265 0.985 . S
N253 C255 1.356 . S
N253 H258 0.984 . S
N253 H259 0.985 . S
C254 C248 1.379 . S
C254 C251 1.363 . S
C254 N252 1.356 . S
C255 C249 1.363 . S
C255 C250 1.379 . S
C255 N253 1.356 . S
N256 C248 1.356 . S
N256 H262 0.984 . S
N256 H263 0.984 . S
N257 C250 1.356 . S
N257 H260 0.984 . S
N257 H261 0.985 . S
H258 N253 0.984 . S
H259 N253 0.985 . S
H260 N257 0.984 . S
H261 N257 0.985 . S
H262 N256 0.984 . S
H263 N256 0.984 . S
H264 N252 0.984 . S
H265 N252 0.985 . S
C266 C267 1.363 . S
C266 C272 1.379 . S
C266 N274 1.356 . S
C267 C266 1.363 . S
C267 C273 1.363 . S
C268 C269 1.363 . S
C268 C273 1.379 . S
C268 N275 1.356 . S
C269 C268 1.363 . S
C269 C272 1.363 . S
N270 C272 1.356 . S
N270 H282 0.984 . S
N270 H283 0.985 . S
N271 C273 1.356 . S
N271 H276 0.984 . S
N271 H277 0.985 . S
C272 C266 1.379 . S
C272 C269 1.363 . S
C272 N270 1.356 . S
C273 C267 1.363 . S
C273 C268 1.379 . S
C273 N271 1.356 . S
N274 C266 1.356 . S
N274 H280 0.984 . S
N274 H281 0.984 . S
N275 C268 1.356 . S
N275 H278 0.984 . S
N275 H279 0.985 . S
H276 N271 0.984 . S
H277 N271 0.985 . S
H278 N275 0.984 . S
H279 N275 0.985 . S
H280 N274 0.984 . S
H281 N274 0.984 . S
H282 N270 0.984 . S
H283 N270 0.985 . S
C284 C285 1.363 . S
C284 C290 1.379 . S
C284 N292 1.356 . S
C285 C284 1.363 . S
C285 C291 1.363 . S
C286 C287 1.363 . S
C286 C291 1.379 . S
C286 N293 1.356 . S
C287 C286 1.363 . S
C287 C290 1.363 . S
N288 C290 1.356 . S
N288 H300 0.984 . S
N288 H301 0.985 . S
N289 C291 1.356 . S
N289 H294 0.984 . S
N289 H295 0.985 . S
C290 C284 1.379 . S
C290 C287 1.363 . S
C290 N288 1.356 . S
C291 C285 1.363 . S
C291 C286 1.379 . S
C291 N289 1.356 . S
N292 C284 1.356 . S
N292 H298 0.984 . S
N292 H299 0.984 . S
N293 C286 1.356 . S
N293 H296 0.984 . S
N293 H297 0.985 . S
H294 N289 0.984 . S
H295 N289 0.985 . S
H296 N293 0.984 . S
H297 N293 0.985 . S
H298 N292 0.984 . S
H299 N292 0.984 . S
H300 N288 0.984 . S
H301 N288 0.985 . S
C302 C303 1.363 . S
C302 C308 1.379 . S
C302 N310 1.356 . S
C303 C302 1.363 . S
C303 C309 1.363 . S
C304 C305 1.363 . S
C304 C309 1.379 . S
C304 N311 1.356 . S
C305 C304 1.363 . S
C305 C308 1.363 . S
N306 C308 1.356 . S
N306 H318 0.984 1_655 S
N306 H319 0.985 . S
N307 C309 1.356 . S
N307 H312 0.984 . S
N307 H313 0.985 . S
C308 C302 1.379 . S
C308 C305 1.363 . S
C308 N306 1.356 . S
C309 C303 1.363 . S
C309 C304 1.379 . S
C309 N307 1.356 . S
N310 C302 1.356 . S
N310 H316 0.984 . S
N310 H317 0.984 . S
N311 C304 1.356 . S
N311 H314 0.984 . S
N311 H315 0.985 . S
H312 N307 0.984 . S
H313 N307 0.985 . S
H314 N311 0.984 . S
H315 N311 0.985 . S
H316 N310 0.984 . S
H317 N310 0.984 . S
H318 N306 0.984 1_455 S
H319 N306 0.985 . S
C320 C321 1.363 . S
C320 C326 1.379 . S
C320 N328 1.356 . S
C321 C320 1.363 . S
C321 C327 1.363 . S
C322 C323 1.363 . S
C322 C327 1.379 . S
C322 N329 1.356 . S
C323 C322 1.363 . S
C323 C326 1.363 . S
N324 C326 1.356 . S
N324 H336 0.984 . S
N324 H337 0.985 . S
N325 C327 1.356 . S
N325 H330 0.984 . S
N325 H331 0.985 . S
C326 C320 1.379 . S
C326 C323 1.363 . S
C326 N324 1.356 . S
C327 C321 1.363 . S
C327 C322 1.379 . S
C327 N325 1.356 . S
N328 C320 1.356 . S
N328 H334 0.984 . S
N328 H335 0.984 . S
N329 C322 1.356 . S
N329 H332 0.984 . S
N329 H333 0.985 . S
H330 N325 0.984 . S
H331 N325 0.985 . S
H332 N329 0.984 . S
H333 N329 0.985 . S
H334 N328 0.984 . S
H335 N328 0.984 . S
H336 N324 0.984 . S
H337 N324 0.985 . S
C338 C339 1.363 . S
C338 C344 1.379 . S
C338 N346 1.356 . S
C339 C338 1.363 . S
C339 C345 1.376 . S
C340 C341 1.363 . S
C340 C345 1.376 . S
C340 N347 1.356 1_455 S
C341 C340 1.363 . S
C341 C344 1.363 . S
N342 C344 1.356 . S
N342 H354 0.984 . S
N342 H355 0.985 . S
N343 C345 1.350 1_655 S
N343 H348 0.984 . S
N343 H349 0.985 . S
C344 C338 1.379 . S
C344 C341 1.363 . S
C344 N342 1.356 . S
C345 C339 1.376 . S
C345 C340 1.376 . S
C345 N343 1.350 1_455 S
N346 C338 1.356 . S
N346 H352 0.984 . S
N346 H353 0.984 . S
N347 C340 1.356 1_655 S
N347 H350 0.984 1_655 S
N347 H351 0.985 . S
H348 N343 0.984 . S
H349 N343 0.985 . S
H350 N347 0.984 1_455 S
H351 N347 0.985 . S
H352 N346 0.984 . S
H353 N346 0.984 . S
H354 N342 0.984 . S
H355 N342 0.985 . S
C356 C357 1.363 . S
C356 C362 1.379 . S
C356 N364 1.356 . S
C357 C356 1.363 . S
C357 C363 1.363 . S
C358 C359 1.363 . S
C358 C363 1.379 . S
C358 N365 1.356 . S
C359 C358 1.363 . S
C359 C362 1.363 . S
N360 C362 1.356 . S
N360 H372 0.984 . S
N360 H373 0.985 . S
N361 C363 1.356 . S
N361 H366 0.984 . S
N361 H367 0.985 . S
C362 C356 1.379 . S
C362 C359 1.363 . S
C362 N360 1.356 . S
C363 C357 1.363 . S
C363 C358 1.379 . S
C363 N361 1.356 . S
N364 C356 1.356 . S
N364 H370 0.984 . S
N364 H371 0.984 . S
N365 C358 1.356 . S
N365 H368 0.977 1_556 S
N365 H369 0.985 . S
H366 N361 0.984 . S
H367 N361 0.985 . S
H368 N365 0.977 1_554 S
H369 N365 0.985 . S
H370 N364 0.984 . S
H371 N364 0.984 . S
H372 N360 0.984 . S
H373 N360 0.985 . S
C374 C375 1.363 . S
C374 C380 1.379 . S
C374 N382 1.356 . S
C375 C374 1.363 . S
C375 C381 1.363 . S
C376 C377 1.363 . S
C376 C381 1.379 . S
C376 N383 1.356 . S
C377 C376 1.363 . S
C377 C380 1.363 . S
N378 C380 1.356 . S
N378 H390 0.984 . S
N378 H391 0.985 . S
N379 C381 1.356 . S
N379 H384 0.984 . S
N379 H385 0.985 . S
C380 C374 1.379 . S
C380 C377 1.363 . S
C380 N378 1.356 . S
C381 C375 1.363 . S
C381 C376 1.379 . S
C381 N379 1.356 . S
N382 C374 1.356 . S
N382 H388 0.984 . S
N382 H389 0.984 . S
N383 C376 1.356 . S
N383 H386 0.984 . S
N383 H387 0.985 . S
H384 N379 0.984 . S
H385 N379 0.985 . S
H386 N383 0.984 . S
H387 N383 0.985 . S
H388 N382 0.984 . S
H389 N382 0.984 . S
H390 N378 0.984 . S
H391 N378 0.985 . S
C392 C393 1.363 . S
C392 C398 1.379 . S
C392 N400 1.356 . S
C393 C392 1.363 . S
C393 C399 1.363 . S
C394 C395 1.363 . S
C394 C399 1.379 . S
C394 N401 1.356 . S
C395 C394 1.363 . S
C395 C398 1.363 . S
N396 C398 1.356 . S
N396 H408 0.984 . S
N396 H409 0.985 . S
N397 C399 1.356 . S
N397 H402 0.984 . S
N397 H403 0.985 . S
C398 C392 1.379 . S
C398 C395 1.363 . S
C398 N396 1.356 . S
C399 C393 1.363 . S
C399 C394 1.379 . S
C399 N397 1.356 . S
N400 C392 1.356 . S
N400 H406 0.984 . S
N400 H407 0.984 . S
N401 C394 1.356 . S
N401 H404 0.984 . S
N401 H405 0.985 . S
H402 N397 0.984 . S
H403 N397 0.985 . S
H404 N401 0.984 . S
H405 N401 0.985 . S
H406 N400 0.984 . S
H407 N400 0.984 . S
H408 N396 0.984 . S
H409 N396 0.985 . S
C410 C411 1.363 . S
C410 C416 1.379 . S
C410 N418 1.356 . S
C411 C410 1.363 . S
C411 C417 1.363 . S
C412 C413 1.363 . S
C412 C417 1.379 . S
C412 N419 1.356 . S
C413 C412 1.363 . S
C413 C416 1.363 . S
N414 C416 1.356 1_554 S
N414 H426 0.984 . S
N414 H427 0.985 . S
N415 C417 1.356 . S
N415 H420 0.984 . S
N415 H421 0.985 . S
C416 C410 1.379 . S
C416 C413 1.363 . S
C416 N414 1.356 1_556 S
C417 C411 1.363 . S
C417 C412 1.379 . S
C417 N415 1.356 . S
N418 C410 1.356 . S
N418 H424 0.984 1_556 S
N418 H425 0.984 . S
N419 C412 1.356 . S
N419 H422 0.984 . S
N419 H423 0.985 . S
H420 N415 0.984 . S
H421 N415 0.985 . S
H422 N419 0.984 . S
H423 N419 0.985 . S
H424 N418 0.984 1_554 S
H425 N418 0.984 . S
H426 N414 0.984 . S
H427 N414 0.985 . S
C428 C429 1.363 . S
C428 C434 1.379 . S
C428 N436 1.356 . S
C429 C428 1.363 . S
C429 C435 1.363 . S
C430 C431 1.363 . S
C430 C435 1.379 . S
C430 N437 1.356 . S
C431 C430 1.363 . S
C431 C434 1.363 . S
N432 C434 1.356 . S
N432 H444 0.984 . S
N432 H445 0.985 . S
N433 C435 1.356 . S
N433 H438 0.984 . S
N433 H439 0.985 . S
C434 C428 1.379 . S
C434 C431 1.363 . S
C434 N432 1.356 . S
C435 C429 1.363 . S
C435 C430 1.379 . S
C435 N433 1.356 . S
N436 C428 1.356 . S
N436 H442 0.984 . S
N436 H443 0.984 . S
N437 C430 1.356 . S
N437 H440 0.984 . S
N437 H441 0.985 . S
H438 N433 0.984 . S
H439 N433 0.985 . S
H440 N437 0.984 . S
H441 N437 0.985 . S
H442 N436 0.984 . S
H443 N436 0.984 . S
H444 N432 0.984 . S
H445 N432 0.985 . S
C446 C447 1.363 . S
C446 C452 1.379 . S
C446 N454 1.356 . S
C447 C446 1.363 . S
C447 C453 1.363 . S
C448 C449 1.363 . S
C448 C453 1.379 . S
C448 N455 1.356 . S
C449 C448 1.363 . S
C449 C452 1.363 . S
N450 C452 1.356 . S
N450 H462 0.984 . S
N450 H463 0.985 . S
N451 C453 1.356 . S
N451 H456 0.984 . S
N451 H457 0.985 . S
C452 C446 1.379 . S
C452 C449 1.363 . S
C452 N450 1.356 . S
C453 C447 1.363 . S
C453 C448 1.379 . S
C453 N451 1.356 . S
N454 C446 1.356 . S
N454 H460 0.984 . S
N454 H461 0.984 . S
N455 C448 1.356 . S
N455 H458 0.984 . S
N455 H459 0.985 . S
H456 N451 0.984 . S
H457 N451 0.985 . S
H458 N455 0.984 . S
H459 N455 0.985 . S
H460 N454 0.984 . S
H461 N454 0.984 . S
H462 N450 0.984 . S
H463 N450 0.985 . S
C464 C465 1.363 . S
C464 C470 1.379 . S
C464 N472 1.356 . S
C465 C464 1.363 . S
C465 C471 1.363 . S
C466 C467 1.363 . S
C466 C471 1.379 . S
C466 N473 1.356 . S
C467 C466 1.363 . S
C467 C470 1.363 . S
N468 C470 1.356 . S
N468 H480 0.984 . S
N468 H481 0.985 . S
N469 C471 1.356 . S
N469 H474 0.984 . S
N469 H475 0.985 . S
C470 C464 1.379 . S
C470 C467 1.363 . S
C470 N468 1.356 . S
C471 C465 1.363 . S
C471 C466 1.379 . S
C471 N469 1.356 . S
N472 C464 1.356 . S
N472 H478 0.984 . S
N472 H479 0.984 . S
N473 C466 1.356 . S
N473 H476 0.984 . S
N473 H477 0.985 . S
H474 N469 0.984 . S
H475 N469 0.985 . S
H476 N473 0.984 . S
H477 N473 0.985 . S
H478 N472 0.984 . S
H479 N472 0.984 . S
H480 N468 0.984 . S
H481 N468 0.985 . S
C482 C483 1.363 . S
C482 C488 1.379 . S
C482 N490 1.356 . S
C483 C482 1.363 . S
C483 C489 1.363 . S
C484 C485 1.363 . S
C484 C489 1.379 . S
C484 N491 1.356 . S
C485 C484 1.363 . S
C485 C488 1.363 . S
N486 C488 1.356 . S
N486 H498 0.984 . S
N486 H499 0.985 . S
N487 C489 1.356 . S
N487 H492 0.984 . S
N487 H493 0.985 . S
C488 C482 1.379 . S
C488 C485 1.363 . S
C488 N486 1.356 . S
C489 C483 1.363 . S
C489 C484 1.379 . S
C489 N487 1.356 . S
N490 C482 1.356 . S
N490 H496 0.984 . S
N490 H497 0.984 . S
N491 C484 1.356 . S
N491 H494 0.984 . S
N491 H495 0.985 . S
H492 N487 0.984 . S
H493 N487 0.985 . S
H494 N491 0.984 . S
H495 N491 0.985 . S
H496 N490 0.984 . S
H497 N490 0.984 . S
H498 N486 0.984 . S
H499 N486 0.985 . S
C500 C501 1.363 . S
C500 C506 1.379 . S
C500 N508 1.356 . S
C501 C500 1.363 . S
C501 C507 1.363 . S
C502 C503 1.363 . S
C502 C507 1.379 . S
C502 N509 1.356 . S
C503 C502 1.363 . S
C503 C506 1.363 . S
N504 C506 1.356 . S
N504 H516 0.984 . S
N504 H517 0.985 . S
N505 C507 1.356 . S
N505 H510 0.984 . S
N505 H511 0.985 . S
C506 C500 1.379 . S
C506 C503 1.363 . S
C506 N504 1.356 . S
C507 C501 1.363 . S
C507 C502 1.379 . S
C507 N505 1.356 . S
N508 C500 1.356 . S
N508 H514 0.984 . S
N508 H515 0.984 . S
N509 C502 1.356 . S
N509 H512 0.984 . S
N509 H513 0.985 . S
H510 N505 0.984 . S
H511 N505 0.985 . S
H512 N509 0.984 . S
H513 N509 0.985 . S
H514 N508 0.984 . S
H515 N508 0.984 . S
H516 N504 0.984 . S
H517 N504 0.985 . S
C518 C519 1.363 . S
C518 C524 1.379 . S
C518 N526 1.356 . S
C519 C518 1.363 . S
C519 C525 1.363 . S
C520 C521 1.363 . S
C520 C525 1.379 . S
C520 N527 1.356 . S
C521 C520 1.363 . S
C521 C524 1.363 . S
N522 C524 1.356 . S
N522 H534 0.984 . S
N522 H535 0.985 . S
N523 C525 1.356 . S
N523 H528 0.984 . S
N523 H529 0.985 . S
C524 C518 1.379 . S
C524 C521 1.363 . S
C524 N522 1.356 . S
C525 C519 1.363 . S
C525 C520 1.379 . S
C525 N523 1.356 . S
N526 C518 1.356 . S
N526 H532 0.984 . S
N526 H533 0.984 . S
N527 C520 1.356 . S
N527 H530 0.984 . S
N527 H531 0.985 . S
H528 N523 0.984 . S
H529 N523 0.985 . S
H530 N527 0.984 . S
H531 N527 0.985 . S
H532 N526 0.984 . S
H533 N526 0.984 . S
H534 N522 0.984 . S
H535 N522 0.985 . S
C536 C537 1.363 . S
C536 C542 1.379 . S
C536 N544 1.356 . S
C537 C536 1.363 . S
C537 C543 1.363 . S
C538 C539 1.363 . S
C538 C543 1.379 . S
C538 N545 1.356 . S
C539 C538 1.363 . S
C539 C542 1.363 . S
N540 C542 1.356 1_554 S
N540 H552 0.984 . S
N540 H553 0.985 . S
N541 C543 1.356 . S
N541 H546 0.984 . S
N541 H547 0.985 . S
C542 C536 1.379 . S
C542 C539 1.363 . S
C542 N540 1.356 1_556 S
C543 C537 1.363 . S
C543 C538 1.379 . S
C543 N541 1.356 . S
N544 C536 1.356 . S
N544 H550 0.984 . S
N544 H551 0.984 . S
N545 C538 1.356 . S
N545 H548 0.984 1_565 S
N545 H549 0.985 1_565 S
H546 N541 0.984 . S
H547 N541 0.985 . S
H548 N545 0.984 1_545 S
H549 N545 0.985 1_545 S
H550 N544 0.984 . S
H551 N544 0.984 . S
H552 N540 0.984 . S
H553 N540 0.985 . S
C554 C555 1.363 1_655 S
C554 C560 1.379 . S
C554 N562 1.356 . S
C555 C554 1.363 1_455 S
C555 C561 1.363 . S
C556 C557 1.363 1_455 S
C556 C561 1.379 . S
C556 N563 1.356 . S
C557 C556 1.363 1_655 S
C557 C560 1.363 . S
N558 C560 1.356 . S
N558 H570 0.984 . S
N558 H571 0.985 . S
N559 C561 1.356 . S
N559 H564 0.984 . S
N559 H565 0.985 . S
C560 C554 1.379 . S
C560 C557 1.363 . S
C560 N558 1.356 . S
C561 C555 1.363 . S
C561 C556 1.379 . S
C561 N559 1.356 . S
N562 C554 1.356 . S
N562 H568 0.984 . S
N562 H569 0.984 . S
N563 C556 1.356 . S
N563 H566 0.984 . S
N563 H567 0.985 . S
H564 N559 0.984 . S
H565 N559 0.985 . S
H566 N563 0.984 . S
H567 N563 0.985 . S
H568 N562 0.984 . S
H569 N562 0.984 . S
H570 N558 0.984 . S
H571 N558 0.985 . S
C572 C573 1.363 . S
C572 C578 1.379 . S
C572 N580 1.356 . S
C573 C572 1.363 . S
C573 C579 1.363 . S
C574 C575 1.363 . S
C574 C579 1.379 . S
C574 N581 1.356 . S
C575 C574 1.363 . S
C575 C578 1.363 . S
N576 C578 1.356 . S
N576 H588 0.984 . S
N576 H589 0.985 . S
N577 C579 1.356 . S
N577 H582 0.984 . S
N577 H583 0.985 . S
C578 C572 1.379 . S
C578 C575 1.363 . S
C578 N576 1.356 . S
C579 C573 1.363 . S
C579 C574 1.379 . S
C579 N577 1.356 . S
N580 C572 1.356 . S
N580 H586 0.984 . S
N580 H587 0.984 . S
N581 C574 1.356 . S
N581 H584 0.984 . S
N581 H585 0.985 . S
H582 N577 0.984 . S
H583 N577 0.985 . S
H584 N581 0.984 . S
H585 N581 0.985 . S
H586 N580 0.984 . S
H587 N580 0.984 . S
H588 N576 0.984 . S
H589 N576 0.985 . S
C590 C591 1.363 . S
C590 C596 1.379 . S
C590 N598 1.356 . S
C591 C590 1.363 . S
C591 C597 1.363 . S
C592 C593 1.363 . S
C592 C597 1.379 . S
C592 N599 1.356 . S
C593 C592 1.363 . S
C593 C596 1.363 . S
N594 C596 1.356 . S
N594 H606 0.984 . S
N594 H607 0.985 . S
N595 C597 1.356 . S
N595 H600 0.984 . S
N595 H601 0.985 . S
C596 C590 1.379 . S
C596 C593 1.363 . S
C596 N594 1.356 . S
C597 C591 1.363 . S
C597 C592 1.379 . S
C597 N595 1.356 . S
N598 C590 1.356 . S
N598 H604 0.984 . S
N598 H605 0.984 . S
N599 C592 1.356 . S
N599 H602 0.984 . S
N599 H603 0.985 . S
H600 N595 0.984 . S
H601 N595 0.985 . S
H602 N599 0.984 . S
H603 N599 0.985 . S
H604 N598 0.984 . S
H605 N598 0.984 . S
H606 N594 0.984 . S
H607 N594 0.985 . S
C608 C609 1.363 . S
C608 C614 1.379 . S
C608 N616 1.356 . S
C609 C608 1.363 . S
C609 C615 1.363 . S
C610 C611 1.363 . S
C610 C615 1.379 . S
C610 N617 1.356 . S
C611 C610 1.363 . S
C611 C614 1.363 . S
N612 C614 1.356 . S
N612 H624 0.984 . S
N612 H625 0.985 . S
N613 C615 1.356 . S
N613 H618 0.984 . S
N613 H619 0.985 . S
C614 C608 1.379 . S
C614 C611 1.363 . S
C614 N612 1.356 . S
C615 C609 1.363 . S
C615 C610 1.379 . S
C615 N613 1.356 . S
N616 C608 1.356 . S
N616 H622 0.984 . S
N616 H623 0.984 . S
N617 C610 1.356 . S
N617 H620 0.984 . S
N617 H621 0.985 . S
H618 N613 0.984 . S
H619 N613 0.985 . S
H620 N617 0.984 . S
H621 N617 0.985 . S
H622 N616 0.984 . S
H623 N616 0.984 . S
H624 N612 0.984 . S
H625 N612 0.985 . S
C626 C627 1.363 . S
C626 C632 1.379 . S
C626 N634 1.356 . S
C627 C626 1.363 . S
C627 C633 1.363 . S
C628 C629 1.363 . S
C628 C633 1.379 . S
C628 N635 1.356 . S
C629 C628 1.363 . S
C629 C632 1.363 . S
N630 C632 1.356 . S
N630 H642 0.984 . S
N630 H643 0.985 . S
N631 C633 1.356 . S
N631 H636 0.984 . S
N631 H637 0.985 . S
C632 C626 1.379 . S
C632 C629 1.363 . S
C632 N630 1.356 . S
C633 C627 1.363 . S
C633 C628 1.379 . S
C633 N631 1.356 . S
N634 C626 1.356 . S
N634 H640 0.984 . S
N634 H641 0.984 . S
N635 C628 1.356 . S
N635 H638 0.984 . S
N635 H639 0.985 . S
H636 N631 0.984 . S
H637 N631 0.985 . S
H638 N635 0.984 . S
H639 N635 0.985 . S
H640 N634 0.984 . S
H641 N634 0.984 . S
H642 N630 0.984 . S
H643 N630 0.985 . S
C644 C645 1.363 . S
C644 C650 1.379 . S
C644 N652 1.356 . S
C645 C644 1.363 . S
C645 C651 1.363 . S
C646 C647 1.363 . S
C646 C651 1.379 . S
C646 N653 1.356 . S
C647 C646 1.363 . S
C647 C650 1.363 . S
N648 C650 1.356 . S
N648 H660 0.984 . S
N648 H661 0.985 . S
N649 C651 1.356 . S
N649 H654 0.984 . S
N649 H655 0.985 . S
C650 C644 1.379 . S
C650 C647 1.363 . S
C650 N648 1.356 . S
C651 C645 1.363 . S
C651 C646 1.379 . S
C651 N649 1.356 . S
N652 C644 1.356 . S
N652 H658 0.984 . S
N652 H659 0.984 . S
N653 C646 1.356 . S
N653 H656 0.984 . S
N653 H657 0.985 . S
H654 N649 0.984 . S
H655 N649 0.985 . S
H656 N653 0.984 . S
H657 N653 0.985 . S
H658 N652 0.984 . S
H659 N652 0.984 . S
H660 N648 0.984 . S
H661 N648 0.985 . S
C662 C663 1.363 . S
C662 C668 1.379 . S
C662 N670 1.356 . S
C663 C662 1.363 . S
C663 C669 1.363 . S
C664 C665 1.363 . S
C664 C669 1.379 . S
C664 N671 1.356 . S
C665 C664 1.363 . S
C665 C668 1.363 . S
N666 C668 1.356 . S
N666 H678 0.984 . S
N666 H679 0.985 . S
N667 C669 1.356 . S
N667 H672 0.984 . S
N667 H673 0.985 . S
C668 C662 1.379 . S
C668 C665 1.363 . S
C668 N666 1.356 . S
C669 C663 1.363 . S
C669 C664 1.379 . S
C669 N667 1.356 . S
N670 C662 1.356 . S
N670 H676 0.984 . S
N670 H677 0.984 . S
N671 C664 1.356 . S
N671 H674 0.984 . S
N671 H675 0.985 . S
H672 N667 0.984 . S
H673 N667 0.985 . S
H674 N671 0.984 . S
H675 N671 0.985 . S
H676 N670 0.984 . S
H677 N670 0.984 . S
H678 N666 0.984 . S
H679 N666 0.985 . S
C249 C5 1.175 . S
C251 C103 1.364 . S
C267 C18 1.132 . S
C269 C143 1.193 . S
C287 C177 2.264 . S
C285 C30 2.267 . S
C303 C41 2.418 . S
C305 C218 2.366 . S
C323 C138 1.472 . S
C321 C7 1.323 . S
C341 C98 2.166 . S
C339 C16 2.134 . S
C359 C226 1.757 . S
C357 C29 1.747 . S
C377 C187 1.546 . S
C375 C38 1.270 . S
C393 C8 1.501 . S
C395 C223 1.603 . S
C413 C146 2.260 1_556 S
C411 C27 2.102 . S
C429 C40 2.494 . S
C431 C106 2.411 . S
C447 C19 1.572 . S
C449 C174 1.604 . S
C467 C94 1.397 . S
C465 C51 1.163 . S
C483 C62 1.609 . S
C485 C134 1.504 . S
C501 C74 2.438 . S
C503 C186 2.466 . S
C519 C84 2.357 . S
C521 C227 2.412 . S
C537 C49 1.323 . S
C539 C147 1.844 1_556 S
C557 C107 2.257 . S
C555 C63 2.147 . S
C575 C217 1.598 . S
C573 C71 1.473 . S
C593 C178 1.727 . S
C591 C85 1.827 . S
C609 C52 1.530 . S
C611 C214 1.684 . S
C629 C137 2.340 . S
C627 C73 2.430 . S
C647 C97 2.124 . S
C645 C82 2.084 . S
C663 C60 1.594 . S
C665 C183 1.682 . S
