# Generated by pormake.
# Topology zzz, (3,6)-cn, num edge types: 1
# Building blocks:
#     Node 0, Type 0, BuildingBlock: WUSLED_clean_sbu_0, # of connection points: 3
#     Node 1, Type 0, BuildingBlock: WUSLED_clean_sbu_0, # of connection points: 3
#     Node 2, Type 0, BuildingBlock: WUSLED_clean_sbu_0, # of connection points: 3
#     Node 3, Type 0, BuildingBlock: WUSLED_clean_sbu_0, # of connection points: 3
#     Node 4, Type 0, BuildingBlock: WUSLED_clean_sbu_0, # of connection points: 3
#     Node 5, Type 0, BuildingBlock: WUSLED_clean_sbu_0, # of connection points: 3
#     Node 6, Type 0, BuildingBlock: WUSLED_clean_sbu_0, # of connection points: 3
#     Node 7, Type 0, BuildingBlock: WUSLED_clean_sbu_0, # of connection points: 3
#     Node 8, Type 1, BuildingBlock: LEVNOQ01_clean_sbu_1, # of connection points: 6
#     Node 9, Type 1, BuildingBlock: LEVNOQ01_clean_sbu_1, # of connection points: 6
#     Node 10, Type 1, BuildingBlock: LEVNOQ01_clean_sbu_1, # of connection points: 6
#     Node 11, Type 1, BuildingBlock: LEVNOQ01_clean_sbu_1, # of connection points: 6
#     Edge 12, Type (0, 1), BuildingBlock: MIFKUJ_clean_linker_0, # of connection points: 2
#     Edge 13, Type (0, 1), BuildingBlock: MIFKUJ_clean_linker_0, # of connection points: 2
#     Edge 14, Type (0, 1), BuildingBlock: MIFKUJ_clean_linker_0, # of connection points: 2
#     Edge 15, Type (0, 1), BuildingBlock: MIFKUJ_clean_linker_0, # of connection points: 2
#     Edge 16, Type (0, 1), BuildingBlock: MIFKUJ_clean_linker_0, # of connection points: 2
#     Edge 17, Type (0, 1), BuildingBlock: MIFKUJ_clean_linker_0, # of connection points: 2
#     Edge 18, Type (0, 1), BuildingBlock: MIFKUJ_clean_linker_0, # of connection points: 2
#     Edge 19, Type (0, 1), BuildingBlock: MIFKUJ_clean_linker_0, # of connection points: 2
#     Edge 20, Type (0, 1), BuildingBlock: MIFKUJ_clean_linker_0, # of connection points: 2
#     Edge 21, Type (0, 1), BuildingBlock: MIFKUJ_clean_linker_0, # of connection points: 2
#     Edge 22, Type (0, 1), BuildingBlock: MIFKUJ_clean_linker_0, # of connection points: 2
#     Edge 23, Type (0, 1), BuildingBlock: MIFKUJ_clean_linker_0, # of connection points: 2
#     Edge 24, Type (0, 1), BuildingBlock: MIFKUJ_clean_linker_0, # of connection points: 2
#     Edge 25, Type (0, 1), BuildingBlock: MIFKUJ_clean_linker_0, # of connection points: 2
#     Edge 26, Type (0, 1), BuildingBlock: MIFKUJ_clean_linker_0, # of connection points: 2
#     Edge 27, Type (0, 1), BuildingBlock: MIFKUJ_clean_linker_0, # of connection points: 2
#     Edge 28, Type (0, 1), BuildingBlock: MIFKUJ_clean_linker_0, # of connection points: 2
#     Edge 29, Type (0, 1), BuildingBlock: MIFKUJ_clean_linker_0, # of connection points: 2
#     Edge 30, Type (0, 1), BuildingBlock: MIFKUJ_clean_linker_0, # of connection points: 2
#     Edge 31, Type (0, 1), BuildingBlock: MIFKUJ_clean_linker_0, # of connection points: 2
#     Edge 32, Type (0, 1), BuildingBlock: MIFKUJ_clean_linker_0, # of connection points: 2
#     Edge 33, Type (0, 1), BuildingBlock: MIFKUJ_clean_linker_0, # of connection points: 2
#     Edge 34, Type (0, 1), BuildingBlock: MIFKUJ_clean_linker_0, # of connection points: 2
#     Edge 35, Type (0, 1), BuildingBlock: MIFKUJ_clean_linker_0, # of connection points: 2
# Relax obj value: 0.289
# Max RMSD: 0.214
# Mean RMSD: 0.200
data_MOF--net-zzz--node1-WUSLED_clean_sbu_0--node2-LEVNOQ01_clean_sbu_1--edge1-MIFKUJ_clean_linker_0
_symmetry_space_group_name_H-M    P1
_symmetry_Int_Tables_number       1
_symmetry_cell_setting            triclinic
loop_
_symmetry_equiv_pos_as_xyz
'x, y, z'
_cell_length_a     72.538916
_cell_length_b     76.570568
_cell_length_c     27.582178
_cell_angle_alpha  89.974718
_cell_angle_beta   89.981124
_cell_angle_gamma 88.302669
loop_
_atom_site_label
_atom_site_type_symbol
_atom_site_fract_x
_atom_site_fract_y
_atom_site_fract_z
_atom_type_partial_charge
C0 C 0.79085 0.58731 0.28542 0.0
C1 C 0.80863 0.5835 0.26729 0.0
C2 C 0.82151 0.58307 0.34928 0.0
C3 C 0.82371 0.58132 0.29871 0.0
C4 C 0.8037 0.58735 0.36717 0.0
C5 C 0.78856 0.58941 0.3356 0.0
U6 U 0.77455 0.59573 0.15859 0.0
O7 O 0.75625 0.58175 0.10916 0.0
O8 O 0.75077 0.60979 0.1243 0.0
C9 C 0.74626 0.59592 0.0993 0.0
C10 C 0.77488 0.58892 0.25179 0.0
C11 C 0.72734 0.59415 0.08041 0.0
C12 C 0.69548 0.58507 0.08674 0.0
C13 C 0.71264 0.5882 0.10856 0.0
C14 C 0.70761 0.59402 0.0091 0.0
C15 C 0.693 0.58759 0.03653 0.0
C16 C 0.72452 0.59735 0.03086 0.0
C17 C 0.81592 0.60509 0.07472 0.0
C18 C 0.81568 0.60748 0.98686 0.0
C19 C 0.84459 0.60731 0.03096 0.0
C20 C 0.83509 0.60606 0.07448 0.0
C21 C 0.83511 0.60776 0.98638 0.0
C22 C 0.80612 0.6061 0.03087 0.0
C23 C 0.80698 0.60172 0.12118 0.0
O24 O 0.7713 0.60466 0.23441 0.0
O25 O 0.77428 0.57671 0.21835 0.0
O26 O 0.80055 0.58599 0.12655 0.0
O27 O 0.79597 0.61416 0.13835 0.0
H28 H 0.81084 0.58193 0.22867 0.0
H29 H 0.83701 0.5778 0.28319 0.0
H30 H 0.8014 0.58916 0.40564 0.0
H31 H 0.77503 0.59254 0.35046 0.0
H32 H 0.68442 0.58001 0.10856 0.0
H33 H 0.71457 0.58556 0.14683 0.0
H34 H 0.70605 0.59609 0.97043 0.0
H35 H 0.73568 0.6019 0.00844 0.0
H36 H 0.80794 0.60778 0.9533 0.0
H37 H 0.85951 0.60688 0.03249 0.0
H38 H 0.84284 0.60511 0.10803 0.0
H39 H 0.79124 0.60529 0.03064 0.0
C40 C 0.0082 0.78612 0.30759 0.0
C41 C 0.01305 0.80265 0.29058 0.0
C42 C 0.00501 0.81581 0.3685 0.0
C43 C 0.0115 0.81731 0.32064 0.0
C44 C 1.00052 0.79913 0.38578 0.0
C45 C 1.00203 0.78442 0.35548 0.0
U46 U 0.01205 0.77202 0.17942 0.0
O47 O 0.02396 0.74946 0.1397 0.0
O48 O 0.9943 0.75643 0.13225 0.0
C49 C 0.00818 0.74616 0.11851 0.0
C50 C 0.00808 0.77123 0.27366 0.0
C51 C 0.0045 0.72819 0.10311 0.0
C52 C 0.0111 0.69682 0.10384 0.0
C53 C 0.01275 0.71337 0.12516 0.0
C54 C 0.99273 0.70981 0.03917 0.0
C55 C 1.00148 0.69501 0.05987 0.0
C56 C 0.9942 0.72618 0.0606 0.0
C57 C 0.01838 0.80821 0.08932 0.0
C58 C 0.0078 0.80482 0.00633 0.0
C59 C 0.01968 0.83244 0.03362 0.0
C60 C 0.02318 0.82537 0.07931 0.0
C61 C 0.01133 0.82241 0.9976 0.0
C62 C 0.01134 0.79771 0.0522 0.0
C63 C 0.01809 0.80231 0.13967 0.0
O64 O 0.99405 0.77169 0.24352 0.0
O65 O 0.02391 0.76744 0.25208 0.0
O66 O 0.03153 0.79147 0.153 0.0
O67 O 1.00176 0.79758 0.15434 0.0
H68 H 0.01773 0.80428 0.25359 0.0
H69 H 0.01537 0.82985 0.3063 0.0
H70 H 0.99534 0.79751 0.42228 0.0
H71 H 0.99801 0.77182 0.3691 0.0
H72 H 0.018 0.68561 0.12048 0.0
H73 H 0.02092 0.71466 0.15776 0.0
H74 H 0.98504 0.70879 0.00566 0.0
H75 H 0.98788 0.73746 0.0427 0.0
H76 H 1.00133 0.79697 0.97884 0.0
H77 H 0.02251 0.84606 0.0272 0.0
H78 H 0.02859 0.83361 0.10757 0.0
H79 H 0.00756 0.78439 0.05962 0.0
C80 C 0.71618 0.92255 0.28896 0.0
C81 C 0.69788 0.92064 0.27349 0.0
C82 C 0.68631 0.9278 0.35458 0.0
C83 C 0.68312 0.92318 0.30592 0.0
C84 C 0.70473 0.92925 0.37011 0.0
C85 C 0.71948 0.92666 0.33766 0.0
U86 U 0.73139 0.91613 0.15965 0.0
O87 O 0.75033 0.93034 0.11259 0.0
O88 O 0.75463 0.9019 0.1233 0.0
C89 C 0.75978 0.91607 0.10063 0.0
C90 C 0.73164 0.92121 0.2538 0.0
C91 C 0.77889 0.91758 0.0828 0.0
C92 C 0.81013 0.92834 0.08835 0.0
C93 C 0.7929 0.92527 0.10988 0.0
C94 C 0.79946 0.91588 0.01314 0.0
C95 C 0.81338 0.9241 0.03928 0.0
C96 C 0.78249 0.9126 0.03472 0.0
C97 C 0.69069 0.90938 0.07266 0.0
C98 C 0.69279 0.90666 0.98495 0.0
C99 C 0.66294 0.90878 0.0244 0.0
C100 C 0.67149 0.90974 0.06936 0.0
C101 C 0.67342 0.90731 0.9815 0.0
C102 C 0.7014 0.90767 0.03039 0.0
C103 C 0.69892 0.91175 0.12057 0.0
O104 O 0.73458 0.90575 0.23395 0.0
O105 O 0.73207 0.934 0.22207 0.0
O106 O 0.70574 0.92717 0.12857 0.0
O107 O 0.70936 0.89875 0.137 0.0
H108 H 0.69499 0.91754 0.23599 0.0
H109 H 0.66919 0.9221 0.29241 0.0
H110 H 0.70777 0.93251 0.4074 0.0
H111 H 0.73346 0.92817 0.35045 0.0
H112 H 0.8206 0.93473 0.10933 0.0
H113 H 0.79037 0.92931 0.14697 0.0
H114 H 0.80159 0.91231 0.9755 0.0
H115 H 0.77186 0.90671 0.0131 0.0
H116 H 0.70124 0.9057 0.95264 0.0
H117 H 0.64803 0.91 0.02333 0.0
H118 H 0.66305 0.91127 0.10161 0.0
H119 H 0.71632 0.90749 0.0325 0.0
C120 C 0.4878 0.73099 0.31135 0.0
C121 C 0.48138 0.71487 0.29525 0.0
C122 C 0.4913 0.70091 0.37037 0.0
C123 C 0.4831 0.70004 0.32433 0.0
C124 C 0.49754 0.71714 0.38682 0.0
C125 C 0.49584 0.73207 0.35742 0.0
U126 U 0.48637 0.74214 0.18309 0.0
O127 O 0.4734 0.76224 0.13632 0.0
O128 O 0.5036 0.75761 0.13457 0.0
C129 C 0.48926 0.76634 0.11682 0.0
C130 C 0.48811 0.74566 0.27686 0.0
C131 C 0.49184 0.78448 0.10192 0.0
C132 C 0.48427 0.81559 0.10525 0.0
C133 C 0.48329 0.79882 0.12548 0.0
C134 C 0.50259 0.80369 0.03885 0.0
C135 C 0.49354 0.81803 0.06107 0.0
C136 C 0.50175 0.78711 0.05911 0.0
C137 C 0.4845 0.70326 0.10065 0.0
C138 C 0.47606 0.70419 0.01537 0.0
C139 C 0.49922 0.68319 0.04424 0.0
C140 C 0.49702 0.68945 0.09116 0.0
C141 C 0.48872 0.69042 0.00609 0.0
C142 C 0.47416 0.71079 0.06241 0.0
C143 C 0.48377 0.71042 0.14985 0.0
O144 O 0.50286 0.74549 0.24917 0.0
O145 O 0.47268 0.74845 0.25244 0.0
O146 O 0.46922 0.72029 0.16097 0.0
O147 O 0.49939 0.71685 0.16442 0.0
H148 H 0.47552 0.71361 0.25937 0.0
H149 H 0.47848 0.68775 0.31001 0.0
H150 H 0.50381 0.71826 0.42227 0.0
H151 H 0.50115 0.74432 0.37014 0.0
H152 H 0.47719 0.82648 0.12298 0.0
H153 H 0.47547 0.79699 0.15846 0.0
H154 H 0.51005 0.80526 0.00515 0.0
H155 H 0.50834 0.77618 0.04029 0.0
H156 H 0.46762 0.70969 0.98644 0.0
H157 H 0.50871 0.67226 0.03799 0.0
H158 H 0.5052 0.68356 0.12007 0.0
H159 H 0.46461 0.72169 0.06881 0.0
C160 C 0.21129 0.41217 0.15752 0.0
C161 C 0.19303 0.40983 0.17265 0.0
C162 C 0.18166 0.41879 0.0927 0.0
C163 C 0.17832 0.41304 0.14038 0.0
C164 C 0.20004 0.42046 0.07752 0.0
C165 C 0.21466 0.41719 0.10957 0.0
U166 U 0.23315 0.40561 0.28452 0.0
O167 O 0.26056 0.39402 0.304 0.0
O168 O 0.25433 0.42203 0.31611 0.0
C169 C 0.26667 0.40914 0.31869 0.0
C170 C 0.22695 0.41101 0.19158 0.0
C171 C 0.28071 0.40969 0.35755 0.0
C172 C 0.31348 0.40765 0.37724 0.0
C173 C 0.29881 0.4041 0.34614 0.0
C174 C 0.29213 0.42194 0.43299 0.0
C175 C 0.31037 0.41703 0.42034 0.0
C176 C 0.27739 0.41825 0.40193 0.0
C177 C 0.1973 0.39564 0.38789 0.0
C178 C 0.19624 0.40277 0.47365 0.0
C179 C 0.16967 0.39053 0.43458 0.0
C180 C 0.17946 0.38928 0.39121 0.0
C181 C 0.17757 0.39811 0.47589 0.0
C182 C 0.20599 0.40172 0.42976 0.0
C183 C 0.2047 0.39851 0.33909 0.0
O184 O 0.2274 0.42355 0.22391 0.0
O185 O 0.23128 0.39554 0.20968 0.0
O186 O 0.21544 0.38627 0.31966 0.0
O187 O 0.20967 0.41448 0.32899 0.0
H188 H 0.19015 0.40606 0.20968 0.0
H189 H 0.16434 0.41173 0.15336 0.0
H190 H 0.20314 0.42461 0.04094 0.0
H191 H 0.22865 0.41909 0.09724 0.0
H192 H 0.32738 0.40392 0.36626 0.0
H193 H 0.30178 0.3978 0.31173 0.0
H194 H 0.28937 0.4291 0.4662 0.0
H195 H 0.26358 0.42278 0.41151 0.0
H196 H 0.20295 0.40827 0.50494 0.0
H197 H 0.15534 0.38697 0.43405 0.0
H198 H 0.17251 0.38461 0.35915 0.0
H199 H 0.21982 0.40662 0.42785 0.0
C200 C 0.01069 0.22568 0.14249 0.0
C201 C 0.01882 0.20951 0.15565 0.0
C202 C 0.00883 0.19657 0.07975 0.0
C203 C 0.01801 0.19518 0.12459 0.0
C204 C 1.00086 0.21289 0.06638 0.0
C205 C 1.00175 0.22732 0.09758 0.0
U206 U 0.01367 0.2378 0.27193 0.0
O207 O 0.02647 0.25861 0.31386 0.0
O208 O 0.99653 0.25456 0.3201 0.0
C209 C 0.01085 0.26315 0.33528 0.0
C210 C 0.01017 0.24011 0.17787 0.0
C211 C 0.00806 0.28132 0.35077 0.0
C212 C 0.00973 0.31268 0.33909 0.0
C213 C 0.01122 0.29563 0.32044 0.0
C214 C 1.00196 0.30101 0.41796 0.0
C215 C 0.00514 0.31552 0.38821 0.0
C216 C 0.00334 0.28415 0.39936 0.0
C217 C 0.01948 0.20177 0.36149 0.0
C218 C 0.00902 0.20695 0.44409 0.0
C219 C 0.02393 0.17929 0.42209 0.0
C220 C 0.02615 0.18513 0.37463 0.0
C221 C 0.01481 0.18995 0.45658 0.0
C222 C 0.01159 0.21293 0.39684 0.0
C223 C 0.01909 0.20694 0.31044 0.0
O224 O 0.99593 0.23998 0.20737 0.0
O225 O 0.02585 0.24283 0.20035 0.0
O226 O 0.03274 0.2166 0.29613 0.0
O227 O 1.00286 0.2128 0.29562 0.0
H228 H 0.02558 0.20787 0.19046 0.0
H229 H 0.02461 0.18297 0.13586 0.0
H230 H 0.99352 0.21441 0.0324 0.0
H231 H 0.99514 0.23962 0.08713 0.0
H232 H 0.01218 0.3236 0.31522 0.0
H233 H 0.01502 0.29362 0.28284 0.0
H234 H 0.99888 0.30261 0.45616 0.0
H235 H 1.00115 0.27321 0.42346 0.0
H236 H 1.00175 0.21521 0.4701 0.0
H237 H 0.02813 0.16596 0.43098 0.0
H238 H 0.03221 0.17639 0.34775 0.0
H239 H 0.00646 0.2259 0.38717 0.0
C240 C 0.29509 0.10164 0.1542 0.0
C241 C 0.31311 0.09963 0.1725 0.0
C242 C 0.32515 0.09508 0.09051 0.0
C243 C 0.32802 0.09643 0.1409 0.0
C244 C 0.30716 0.098 0.07247 0.0
C245 C 0.29233 0.1012 0.10397 0.0
U246 U 0.27074 0.10732 0.27845 0.0
O247 O 0.24229 0.11682 0.29454 0.0
O248 O 0.25067 0.08944 0.30955 0.0
C249 C 0.23726 0.10136 0.30963 0.0
C250 C 0.27881 0.10213 0.18642 0.0
C251 C 0.2226 0.1002 0.34663 0.0
C252 C 0.19003 0.09576 0.36184 0.0
C253 C 0.20447 0.09891 0.32987 0.0
C254 C 0.21144 0.09583 0.42906 0.0
C255 C 0.19319 0.09401 0.41201 0.0
C256 C 0.22605 0.09879 0.3966 0.0
C257 C 0.30218 0.11815 0.38816 0.0
C258 C 0.30114 0.10528 0.46834 0.0
C259 C 0.32774 0.12149 0.44361 0.0
C260 C 0.31919 0.12534 0.39941 0.0
C261 C 0.31936 0.11029 0.47686 0.0
C262 C 0.29259 0.10914 0.42404 0.0
C263 C 0.29742 0.11623 0.33681 0.0
O264 O 0.27845 0.08962 0.2189 0.0
O265 O 0.27325 0.11742 0.20359 0.0
O266 O 0.28591 0.12778 0.31717 0.0
O267 O 0.2946 0.1001 0.32309 0.0
H268 H 0.31554 0.09985 0.21125 0.0
H269 H 0.34164 0.09417 0.15615 0.0
H270 H 0.30445 0.09739 0.03391 0.0
H271 H 0.27854 0.10268 0.08911 0.0
H272 H 0.17647 0.09403 0.34659 0.0
H273 H 0.20153 0.09973 0.29139 0.0
H274 H 0.2145 0.09479 0.46738 0.0
H275 H 0.23997 0.09967 0.41035 0.0
H276 H 0.29428 0.09685 0.49375 0.0
H277 H 0.34177 0.12555 0.44901 0.0
H278 H 0.32678 0.13233 0.37206 0.0
H279 H 0.27938 0.10356 0.416 0.0
C280 C 0.50411 0.28736 0.13317 0.0
C281 C 0.49767 0.30342 0.1521 0.0
C282 C 0.50444 0.3177 0.07579 0.0
C283 C 0.49773 0.31845 0.12354 0.0
C284 C 0.51114 0.30164 0.05717 0.0
C285 C 0.51093 0.28654 0.08571 0.0
U286 U 0.50234 0.26936 0.25846 0.0
O287 O 0.52063 0.25064 0.29673 0.0
O288 O 0.49063 0.24545 0.28931 0.0
C289 C 0.50684 0.24044 0.30659 0.0
C290 C 0.50483 0.27183 0.16424 0.0
C291 C 0.50974 0.22435 0.33461 0.0
C292 C 0.5014 0.19465 0.35271 0.0
C293 C 0.49938 0.20966 0.3243 0.0
C294 C 0.52395 0.209 0.40254 0.0
C295 C 0.51361 0.19423 0.39226 0.0
C296 C 0.52211 0.22393 0.3737 0.0
C297 C 0.4981 0.301 0.3622 0.0
C298 C 0.51673 0.29887 0.4352 0.0
C299 C 0.49309 0.32175 0.42704 0.0
C300 C 0.48817 0.31523 0.38185 0.0
C301 C 0.50823 0.3143 0.45217 0.0
C302 C 0.51145 0.29203 0.39062 0.0
C303 C 0.49696 0.2976 0.31003 0.0
O304 O 0.51932 0.27088 0.19277 0.0
O305 O 0.48931 0.26835 0.18657 0.0
O306 O 0.48325 0.2881 0.29522 0.0
O307 O 0.51284 0.29324 0.28994 0.0
H308 H 0.49272 0.30435 0.18912 0.0
H309 H 0.49276 0.33072 0.13896 0.0
H310 H 0.51632 0.30073 0.02039 0.0
H311 H 0.51619 0.27427 0.07088 0.0
H312 H 0.49309 0.18351 0.34443 0.0
H313 H 0.48966 0.20982 0.29447 0.0
H314 H 0.53348 0.20898 0.43277 0.0
H315 H 0.53004 0.23527 0.38258 0.0
H316 H 0.52853 0.2931 0.45399 0.0
H317 H 0.48656 0.33384 0.43957 0.0
H318 H 0.47778 0.32221 0.36058 0.0
H319 H 0.51906 0.28079 0.37627 0.0
O320 O 0.03824 0.9879 0.80879 0.0
Mg321 Mg 0.03713 0.98947 0.73251 0.0
O322 O 0.00965 0.98661 0.78736 0.0
Mg323 Mg 0.00405 0.00595 0.72577 0.0
O324 O 0.03485 0.01329 0.6977 0.0
O325 O 0.06127 0.99736 0.70584 0.0
O326 O 0.99742 0.02479 0.66273 0.0
O327 O 0.00729 0.02904 0.78075 0.0
Mg328 Mg 0.97108 0.02355 0.72427 0.0
O329 O 0.97358 -0.00113 0.75439 0.0
O330 O 0.96785 0.02644 0.64908 0.0
O331 O 0.98238 0.04487 0.76261 0.0
O332 O 0.94757 0.01566 0.75417 0.0
C333 C 0.01203 0.96859 0.66973 0.0
C334 C 0.0224 0.98218 0.81651 0.0
C335 C 0.05266 0.01124 0.69032 0.0
C336 C 0.98399 0.02984 0.63611 0.0
C337 C 0.99754 0.04308 0.78508 0.0
C338 C 0.95607 0.00116 0.76506 0.0
O339 O 0.0268 0.96763 0.6943 0.0
O340 O 1.00172 0.98241 0.67142 0.0
O341 O 0.45345 0.00083 0.75304 0.0
Mg342 Mg 0.46603 0.98174 0.70542 0.0
O343 O 0.47851 0.01479 0.77588 0.0
Mg344 Mg 0.50134 0.00309 0.72311 0.0
O345 O 0.49097 0.97531 0.7351 0.0
O346 O 0.46899 0.95591 0.72559 0.0
O347 O 0.52444 0.9916 0.67026 0.0
O348 O 0.5205 0.99478 0.78705 0.0
Mg349 Mg 0.533 0.02262 0.74704 0.0
O350 O 0.51094 0.03172 0.70842 0.0
O351 O 0.54854 0.00432 0.703 0.0
O352 O 0.52859 0.01872 0.82162 0.0
O353 O 0.53493 0.04808 0.72924 0.0
C354 C 0.47083 0.00434 0.62894 0.0
C355 C 0.46107 0.01253 0.77841 0.0
C356 C 0.48508 0.95966 0.74177 0.0
C357 C 0.54192 0.9937 0.67248 0.0
C358 C 0.52827 0.00231 0.82224 0.0
C359 C 0.51944 0.04645 0.707 0.0
O360 O 0.46709 0.98836 0.63143 0.0
O361 O 0.48169 0.01068 0.66017 0.0
O362 O 0.52234 0.48338 0.8126 0.0
Mg363 Mg 0.53075 0.49217 0.74542 0.0
O364 O 0.49906 0.48139 0.76345 0.0
Mg365 Mg 0.50213 0.50738 0.71449 0.0
O366 O 0.53298 0.51816 0.74035 0.0
O367 O 0.55683 0.49908 0.75255 0.0
O368 O 0.50391 0.53195 0.66329 0.0
O369 O 0.49468 0.52359 0.78076 0.0
Mg370 Mg 0.46876 0.52419 0.7169 0.0
O371 O 0.47125 0.49919 0.6874 0.0
O372 O 0.47625 0.54435 0.66936 0.0
O373 O 0.4656 0.53008 0.79118 0.0
O374 O 0.44495 0.51553 0.69385 0.0
C375 C 0.52057 0.47702 0.65154 0.0
C376 C 0.50776 0.47597 0.80104 0.0
C377 C 0.55039 0.51493 0.75158 0.0
C378 C 0.4923 0.54404 0.65152 0.0
C379 C 0.48193 0.53047 0.80636 0.0
C380 C 0.45345 0.50146 0.67955 0.0
O381 O 0.5299 0.47395 0.68926 0.0
O382 O 0.51065 0.49085 0.64853 0.0
O383 O 0.97485 0.48936 0.80974 0.0
Mg384 Mg 0.97547 0.48731 0.73391 0.0
O385 O 0.98539 0.51361 0.78198 0.0
Mg386 Mg 0.0058 0.5074 0.7186 0.0
O387 O 0.99872 0.47788 0.69962 0.0
O388 O 0.97346 0.46229 0.71383 0.0
O389 O 0.02663 0.50267 0.6554 0.0
O390 O 0.0283 0.49598 0.77327 0.0
Mg391 Mg 0.03944 0.53107 0.71304 0.0
O392 O 0.01331 0.53599 0.7369 0.0
O393 O 0.04225 0.52607 0.6387 0.0
O394 O 0.0523 0.51293 0.7621 0.0
O395 O 0.03469 0.55639 0.73402 0.0
C396 C 0.96596 0.51619 0.66258 0.0
C397 C 0.9763 0.50562 0.81401 0.0
C398 C 0.98987 0.4633 0.6962 0.0
C399 C 0.03801 0.51062 0.62859 0.0
C400 C 0.04504 0.49988 0.78241 0.0
C401 C 0.01832 0.55183 0.74596 0.0
O402 O 0.95911 0.50502 0.69088 0.0
O403 O 0.98336 0.51867 0.66319 0.0
H404 H 0.15628 0.10368 0.40482 0.0
H405 H 0.13054 0.09232 0.45006 0.0
H406 H 0.16845 0.06341 0.54251 0.0
H407 H 0.1943 0.07346 0.49448 0.0
H408 H 0.14311 0.04308 0.51852 0.0
H409 H 0.13922 0.10225 0.58489 0.0
H410 H 0.13771 0.13441 0.57765 0.0
H411 H 0.08961 0.13138 0.48765 0.0
H412 H 0.09108 0.09924 0.49376 0.0
H413 H 0.08753 0.02 0.7112 0.0
H414 H 0.10846 0.03722 0.66285 0.0
H415 H 0.06478 0.04899 0.56101 0.0
H416 H 0.04366 0.03124 0.60943 0.0
H417 H 0.09014 0.07843 0.58286 0.0
H418 H 0.09201 0.01897 0.52825 0.0
H419 H 0.09401 0.98693 0.53726 0.0
H420 H 0.14722 0.99056 0.60406 0.0
H421 H 0.14541 0.02266 0.59613 0.0
C422 C 0.15927 0.0948 0.43453 0.0
C423 C 0.17758 0.08932 0.44508 0.0
C424 C 0.14439 0.08855 0.4612 0.0
C425 C 0.14734 0.07706 0.50036 0.0
C426 C 0.16565 0.07221 0.51246 0.0
C427 C 0.18054 0.07818 0.48517 0.0
C428 C 0.13147 0.06913 0.52656 0.0
C429 C 0.13171 0.05092 0.53306 0.0
C430 C 0.11603 0.07909 0.54397 0.0
C431 C 0.11513 0.09838 0.54021 0.0
C432 C 0.12833 0.10847 0.56359 0.0
C433 C 0.12751 0.12669 0.5596 0.0
C434 C 0.11354 0.13494 0.53234 0.0
C435 C 0.10037 0.12499 0.50898 0.0
C436 C 0.10113 0.10678 0.51288 0.0
C437 C 0.08221 0.02651 0.679 0.0
C438 C 0.06381 0.02439 0.6645 0.0
C439 C 0.09423 0.03636 0.65133 0.0
C440 C 0.0883 0.04434 0.60805 0.0
C441 C 0.06967 0.04307 0.59446 0.0
C442 C 0.05753 0.03308 0.62238 0.0
C443 C 0.10221 0.05253 0.57583 0.0
C444 C 0.10155 0.07067 0.56802 0.0
C445 C 0.11735 0.04254 0.55713 0.0
C446 C 0.11849 0.02323 0.56199 0.0
C447 C 0.10406 0.01295 0.54527 0.0
C448 C 0.10517 0.99477 0.5501 0.0
C449 C 0.12071 0.98672 0.57132 0.0
C450 C 0.13518 0.99682 0.58768 0.0
C451 C 0.13412 0.015 0.58299 0.0
H452 H 0.12155 0.97264 0.575 0.0
H453 H 0.11294 0.14903 0.52924 0.0
H454 H 0.51744 0.16032 0.36321 0.0
H455 H 0.5185 0.13421 0.41445 0.0
H456 H 0.51424 0.16664 0.54213 0.0
H457 H 0.51328 0.1928 0.49104 0.0
H458 H 0.53966 0.13993 0.55328 0.0
H459 H 0.47679 0.14707 0.49773 0.0
H460 H 0.45175 0.15016 0.43761 0.0
H461 H 0.468 0.10077 0.37476 0.0
H462 H 0.49351 0.09766 0.43358 0.0
H463 H 0.51569 0.08063 0.73014 0.0
H464 H 0.51391 0.10507 0.6732 0.0
H465 H 0.51006 0.06878 0.55405 0.0
H466 H 0.51056 0.04436 0.61164 0.0
H467 H 0.4919 0.0958 0.53195 0.0
H468 H 0.55231 0.08738 0.59079 0.0
H469 H 0.57696 0.08329 0.65163 0.0
H470 H 0.56475 0.13448 0.70884 0.0
H471 H 0.53984 0.13879 0.64878 0.0
C472 C 0.51673 0.16184 0.40222 0.0
C473 C 0.51519 0.17852 0.42324 0.0
C474 C 0.51736 0.14696 0.43138 0.0
C475 C 0.51625 0.14853 0.48198 0.0
C476 C 0.51517 0.16519 0.50313 0.0
C477 C 0.51464 0.18009 0.47397 0.0
C478 C 0.51562 0.1328 0.51291 0.0
C479 C 0.52895 0.13043 0.54931 0.0
C480 C 0.50212 0.12008 0.50623 0.0
C481 C 0.48712 0.12218 0.4699 0.0
C482 C 0.47516 0.13697 0.47074 0.0
C483 C 0.46088 0.13873 0.43689 0.0
C484 C 0.4583 0.12568 0.40234 0.0
C485 C 0.47004 0.11089 0.40146 0.0
C486 C 0.48444 0.10914 0.43497 0.0
C487 C 0.51382 0.07797 0.6919 0.0
C488 C 0.51324 0.06074 0.67504 0.0
C489 C 0.51315 0.09189 0.6593 0.0
C490 C 0.51273 0.08874 0.60915 0.0
C491 C 0.5107 0.07154 0.59252 0.0
C492 C 0.51081 0.05761 0.62537 0.0
C493 C 0.51495 0.10338 0.57442 0.0
C494 C 0.50225 0.10542 0.53654 0.0
C495 C 0.52895 0.11576 0.5798 0.0
C496 C 0.54412 0.11335 0.6155 0.0
C497 C 0.55482 0.09773 0.61651 0.0
C498 C 0.56884 0.09538 0.65085 0.0
C499 C 0.57239 0.1086 0.68414 0.0
C500 C 0.56197 0.12424 0.68305 0.0
C501 C 0.54792 0.12666 0.64883 0.0
H502 H 0.58324 0.10675 0.71073 0.0
H503 H 0.44719 0.12703 0.37631 0.0
H504 H 0.33899 0.39732 0.45894 0.0
H505 H 0.36625 0.40781 0.50198 0.0
H506 H 0.34538 0.46086 0.4871 0.0
H507 H 0.31804 0.4504 0.44514 0.0
H508 H 0.38262 0.45637 0.4602 0.0
H509 H 0.34215 0.44122 0.59129 0.0
H510 H 0.32283 0.42106 0.63714 0.0
H511 H 0.37014 0.38742 0.66399 0.0
H512 H 0.38971 0.40723 0.61735 0.0
H513 H 0.42546 0.51062 0.62047 0.0
H514 H 0.40462 0.49226 0.57692 0.0
H515 H 0.43459 0.44635 0.6276 0.0
H516 H 0.45591 0.46505 0.67253 0.0
H517 H 0.39717 0.44207 0.63175 0.0
H518 H 0.43854 0.46056 0.50944 0.0
H519 H 0.45707 0.48134 0.46374 0.0
H520 H 0.40774 0.50946 0.42013 0.0
H521 H 0.38889 0.48892 0.46611 0.0
C522 C 0.34019 0.41119 0.46538 0.0
C523 C 0.32631 0.42304 0.44924 0.0
C524 C 0.35575 0.41717 0.48987 0.0
C525 C 0.35789 0.43514 0.49784 0.0
C526 C 0.34406 0.44695 0.48145 0.0
C527 C 0.32836 0.44096 0.45787 0.0
C528 C 0.3745 0.4418 0.52291 0.0
C529 C 0.38579 0.45329 0.49774 0.0
C530 C 0.37901 0.43731 0.5714 0.0
C531 C 0.36735 0.42558 0.60025 0.0
C532 C 0.34841 0.42944 0.60657 0.0
C533 C 0.33742 0.41809 0.63274 0.0
C534 C 0.34524 0.40293 0.65331 0.0
C535 C 0.3641 0.39914 0.64791 0.0
C536 C 0.37515 0.41042 0.62159 0.0
C537 C 0.42784 0.4966 0.62226 0.0
C538 C 0.44246 0.48932 0.64993 0.0
C539 C 0.41589 0.48607 0.5969 0.0
C540 C 0.41821 0.46784 0.5976 0.0
C541 C 0.43273 0.46037 0.62547 0.0
C542 C 0.44496 0.47105 0.65098 0.0
C543 C 0.40502 0.45712 0.56944 0.0
C544 C 0.39433 0.44487 0.59388 0.0
C545 C 0.401 0.46092 0.52008 0.0
C546 C 0.41228 0.47311 0.4913 0.0
C547 C 0.43162 0.47114 0.49015 0.0
C548 C 0.44219 0.48291 0.46422 0.0
C549 C 0.43359 0.49671 0.43901 0.0
C550 C 0.41439 0.49874 0.43959 0.0
C551 C 0.40375 0.48699 0.46551 0.0
H552 H 0.4418 0.50585 0.41904 0.0
H553 H 0.3367 0.39415 0.67356 0.0
H554 H 0.02807 0.34292 0.37178 0.0
H555 H 0.02834 0.37085 0.41513 0.0
H556 H 0.98102 0.35571 0.49843 0.0
H557 H 0.98 0.32848 0.45349 0.0
H558 H 0.97746 0.38817 0.47934 0.0
H559 H 0.02746 0.35088 0.53855 0.0
H560 H 0.05635 0.33321 0.53222 0.0
H561 H 0.08499 0.37825 0.48337 0.0
H562 H 0.05616 0.39612 0.48857 0.0
H563 H 0.97849 0.42983 0.69906 0.0
H564 H 0.98512 0.40687 0.64006 0.0
H565 H 0.02394 0.43973 0.5682 0.0
H566 H 0.01762 0.46275 0.62898 0.0
H567 H 0.03416 0.40274 0.56965 0.0
H568 H 0.98229 0.44036 0.52466 0.0
H569 H 0.95293 0.45629 0.54149 0.0
H570 H 0.92705 0.40791 0.57361 0.0
H571 H 0.95633 0.39172 0.55765 0.0
C572 C 0.01747 0.34575 0.39852 0.0
C573 C 0.00418 0.33334 0.40967 0.0
C574 C 0.01778 0.36163 0.42373 0.0
C575 C 0.00496 0.36525 0.46089 0.0
C576 C 0.99116 0.35323 0.47021 0.0
C577 C 0.99069 0.33754 0.44475 0.0
C578 C 0.00605 0.38111 0.49174 0.0
C579 C 0.98989 0.3913 0.499 0.0
C580 C 0.02235 0.38552 0.51682 0.0
C581 C 0.03962 0.37477 0.51329 0.0
C582 C 0.03989 0.35697 0.526 0.0
C583 C 0.05624 0.34693 0.52266 0.0
C584 C 0.07248 0.35459 0.50721 0.0
C585 C 0.07239 0.37232 0.49516 0.0
C586 C 0.05605 0.38241 0.49825 0.0
C587 C 0.98875 0.43209 0.67139 0.0
C588 C 0.99723 0.44831 0.66761 0.0
C589 C 0.99249 0.41895 0.63762 0.0
C590 C 0.00459 0.42182 0.59896 0.0
C591 C 0.01437 0.43736 0.59747 0.0
C592 C 0.01075 0.4505 0.6319 0.0
C593 C 0.00542 0.40918 0.55829 0.0
C594 C 0.0219 0.39975 0.54907 0.0
C595 C 0.98931 0.40516 0.53212 0.0
C596 C 0.97152 0.41484 0.54007 0.0
C597 C 0.97035 0.43313 0.53541 0.0
C598 C 0.95372 0.4422 0.54483 0.0
C599 C 0.93814 0.43312 0.55864 0.0
C600 C 0.93913 0.41493 0.56287 0.0
C601 C 0.95572 0.40579 0.55355 0.0
H602 H 0.92529 0.44017 0.56602 0.0
H603 H 0.08514 0.3468 0.50474 0.0
H604 H 0.81588 0.94221 0.95499 0.0
H605 H 0.8435 0.95034 0.9111 0.0
H606 H 0.87751 0.92531 0.02073 0.0
H607 H 0.8496 0.91775 0.06606 0.0
H608 H 0.89249 0.9544 0.99529 0.0
H609 H 0.8705 0.90643 0.90223 0.0
H610 H 0.84749 0.88948 0.85801 0.0
H611 H 0.83827 0.9322 0.75923 0.0
H612 H 0.86109 0.94946 0.80306 0.0
H613 H 0.96741 0.9769 0.83458 0.0
H614 H 0.94728 0.95854 0.88417 0.0
H615 H 0.90008 0.97757 0.80248 0.0
H616 H 0.9199 0.99544 0.7535 0.0
H617 H 0.89648 0.94476 0.81782 0.0
H618 H 0.91368 0.99421 0.91848 0.0
H619 H 0.93548 0.01223 0.96363 0.0
H620 H 0.9529 0.9675 0.04771 0.0
H621 H 0.93134 0.94918 0.00259 0.0
C622 C 0.82924 0.93837 0.9697 0.0
C623 C 0.83055 0.9292 0.01378 0.0
C624 C 0.84508 0.94291 0.94434 0.0
C625 C 0.86273 0.93802 0.9616 0.0
C626 C 0.86411 0.92913 0.00624 0.0
C627 C 0.84817 0.92482 0.03219 0.0
C628 C 0.87955 0.94274 0.93342 0.0
C629 C 0.89353 0.95194 0.95664 0.0
C630 C 0.88105 0.9397 0.88282 0.0
C631 C 0.86747 0.92925 0.85606 0.0
C632 C 0.86352 0.91222 0.87118 0.0
C633 C 0.85051 0.90256 0.84616 0.0
C634 C 0.84142 0.90976 0.80587 0.0
C635 C 0.84534 0.92663 0.79041 0.0
C636 C 0.85834 0.93634 0.81524 0.0
C637 C 0.95279 0.97683 0.82685 0.0
C638 C 0.94524 0.9877 0.79035 0.0
C639 C 0.94124 0.96653 0.85557 0.0
C640 C 0.922 0.96683 0.84776 0.0
C641 C 0.91477 0.97703 0.80959 0.0
C642 C 0.92617 0.98732 0.78151 0.0
C643 C 0.90888 0.95717 0.87922 0.0
C644 C 0.89563 0.94691 0.85665 0.0
C645 C 0.90801 0.95934 0.93023 0.0
C646 C 0.92112 0.9703 0.95674 0.0
C647 C 0.9223 0.9882 0.94628 0.0
C648 C 0.93458 -0.00153 0.97192 0.0
C649 C 0.94562 0.991 0.00839 0.0
C650 C 0.94438 0.97326 0.01935 0.0
C651 C 0.93215 0.96292 0.99375 0.0
H652 H 0.9551 -0.00102 0.02826 0.0
H653 H 0.83134 0.90227 0.7866 0.0
H654 H 0.48435 0.82448 0.96758 0.0
H655 H 0.48774 0.85159 0.92238 0.0
H656 H 0.50554 0.87738 0.05248 0.0
H657 H 0.50216 0.85001 0.0983 0.0
H658 H 0.47978 0.89751 0.98858 0.0
H659 H 0.53784 0.86561 0.98198 0.0
H660 H 0.55715 0.83886 0.97094 0.0
H661 H 0.53776 0.83426 0.82456 0.0
H662 H 0.51811 0.86084 0.83496 0.0
H663 H 0.50156 0.9662 0.82789 0.0
H664 H 0.50904 0.94454 0.89123 0.0
H665 H 0.49588 0.9031 0.79233 0.0
H666 H 0.48839 0.92467 0.72948 0.0
H667 H 0.52468 0.89368 0.85292 0.0
H668 H 0.46348 0.91903 0.86056 0.0
H669 H 0.4397 0.94256 0.86743 0.0
H670 H 0.46117 0.95698 0.00633 0.0
H671 H 0.48536 0.93369 0.99986 0.0
C672 C 0.48887 0.83595 0.98665 0.0
C673 C 0.4933 0.83514 0.03618 0.0
C674 C 0.49078 0.85141 0.96085 0.0
C675 C 0.49724 0.86633 0.98397 0.0
C676 C 0.50065 0.86592 0.03407 0.0
C677 C 0.49869 0.85036 0.06012 0.0
C678 C 0.50122 0.88189 0.95445 0.0
C679 C 0.49003 0.89697 0.9599 0.0
C680 C 0.51422 0.88087 0.91623 0.0
C681 C 0.52648 0.8652 0.90932 0.0
C682 C 0.53766 0.85887 0.94749 0.0
C683 C 0.54865 0.84373 0.94135 0.0
C684 C 0.54867 0.83486 0.89708 0.0
C685 C 0.53774 0.84115 0.85881 0.0
C686 C 0.5267 0.85627 0.86478 0.0
C687 C 0.50116 0.95243 0.81917 0.0
C688 C 0.49464 0.94703 0.77387 0.0
C689 C 0.50518 0.9401 0.85546 0.0
C690 C 0.50281 0.92225 0.84657 0.0
C691 C 0.49782 0.91681 0.79994 0.0
C692 C 0.49357 0.92911 0.76404 0.0
C693 C 0.50318 0.90934 0.88663 0.0
C694 C 0.51506 0.89464 0.88289 0.0
C695 C 0.49056 0.91057 0.92582 0.0
C696 C 0.47643 0.92486 0.92931 0.0
C697 C 0.46332 0.92739 0.89222 0.0
C698 C 0.44974 0.94063 0.8961 0.0
C699 C 0.449 0.95127 0.93717 0.0
C700 C 0.46184 0.94875 0.97445 0.0
C701 C 0.4755 0.93555 0.97067 0.0
H702 H 0.4384 0.96139 0.94017 0.0
H703 H 0.55717 0.82313 0.89243 0.0
H704 H 0.69039 0.56228 0.96892 0.0
H705 H 0.66352 0.55454 0.9211 0.0
H706 H 0.63045 0.59359 0.99668 0.0
H707 H 0.65746 0.60089 0.04629 0.0
H708 H 0.61063 0.56516 0.98078 0.0
H709 H 0.647 0.60126 0.87887 0.0
H710 H 0.67542 0.61092 0.83907 0.0
H711 H 0.68158 0.56129 0.76752 0.0
H712 H 0.65331 0.55129 0.80721 0.0
H713 H 0.5417 0.54476 0.80413 0.0
H714 H 0.56268 0.56218 0.85215 0.0
H715 H 0.60867 0.53153 0.79545 0.0
H716 H 0.58771 0.51486 0.74619 0.0
H717 H 0.61882 0.56258 0.8024 0.0
H718 H 0.58532 0.52503 0.91426 0.0
H719 H 0.55783 0.51473 0.95723 0.0
H720 H 0.54644 0.56657 0.01091 0.0
H721 H 0.5738 0.57718 0.968 0.0
C722 C 0.67734 0.5691 0.97562 0.0
C723 C 0.676 0.5822 0.01111 0.0
C724 C 0.66199 0.56478 0.94799 0.0
C725 C 0.64498 0.57379 0.95413 0.0
C726 C 0.64342 0.58653 0.99087 0.0
C727 C 0.65882 0.59068 0.01923 0.0
C728 C 0.62914 0.56986 0.92149 0.0
C729 C 0.61229 0.56489 0.94169 0.0
C730 C 0.63117 0.56946 0.8704 0.0
C731 C 0.64808 0.57552 0.84613 0.0
C732 C 0.65446 0.5924 0.85478 0.0
C733 C 0.67054 0.59793 0.83222 0.0
C734 C 0.68031 0.58672 0.80082 0.0
C735 C 0.674 0.56997 0.79181 0.0
C736 C 0.65793 0.56438 0.81423 0.0
C737 C 0.55621 0.54224 0.80042 0.0
C738 C 0.56283 0.52851 0.77076 0.0
C739 C 0.56831 0.55196 0.82888 0.0
C740 C 0.58738 0.54798 0.82867 0.0
C741 C 0.59407 0.53493 0.79681 0.0
C742 C 0.58202 0.52539 0.76832 0.0
C743 C 0.60063 0.55686 0.86164 0.0
C744 C 0.61698 0.56301 0.84143 0.0
C745 C 0.5981 0.55825 0.91262 0.0
C746 C 0.58143 0.55193 0.93736 0.0
C747 C 0.57684 0.53425 0.93484 0.0
C748 C 0.56132 0.52835 0.9593 0.0
C749 C 0.55036 0.54 0.98662 0.0
C750 C 0.55491 0.55757 0.98963 0.0
C751 C 0.57042 0.56353 0.96527 0.0
H752 H 0.53837 0.5354 0.00559 0.0
H753 H 0.69276 0.59102 0.78343 0.0
H754 H 0.00926 0.68931 0.96484 0.0
H755 H 0.00664 0.66228 0.91892 0.0
H756 H 0.99059 0.63532 0.0489 0.0
H757 H 0.9934 0.66255 0.0955 0.0
H758 H 0.01558 0.61584 0.9906 0.0
H759 H 0.95759 0.6473 0.96896 0.0
H760 H 0.93817 0.67342 0.95021 0.0
H761 H 0.96189 0.67574 0.80778 0.0
H762 H 0.98164 0.6498 0.82592 0.0
H763 H 1.00123 0.54487 0.83107 0.0
H764 H 0.99143 0.56657 0.89242 0.0
H765 H 1.00299 0.60796 0.79163 0.0
H766 H 0.01237 0.58636 0.73077 0.0
H767 H 0.97434 0.61721 0.84698 0.0
H768 H 0.03548 0.59174 0.86894 0.0
H769 H 0.05838 0.56786 0.8833 0.0
H770 H 0.0327 0.55643 0.01951 0.0
H771 H 0.00942 0.58007 0.00549 0.0
C772 C 0.00515 0.67764 0.98369 0.0
C773 C 1.00124 0.67809 0.0336 0.0
C774 C 0.00364 0.6622 0.95741 0.0
C775 C 0.99797 0.64688 0.98023 0.0
C776 C 0.99482 0.64704 0.03051 0.0
C777 C 0.99646 0.66256 0.05706 0.0
C778 C 0.99517 0.63093 0.95077 0.0
C779 C 0.0062 0.61594 0.95994 0.0
C780 C 0.98324 0.63121 0.91012 0.0
C781 C 0.97111 0.64662 0.89886 0.0
C782 C 0.9587 0.65342 0.93371 0.0
C783 C 0.94764 0.6682 0.92319 0.0
C784 C 0.94879 0.67623 0.87784 0.0
C785 C 0.96099 0.6695 0.84288 0.0
C786 C 0.97211 0.65475 0.85324 0.0
C787 C 1.00066 0.55858 0.82148 0.0
C788 C 0.00721 0.56399 0.77617 0.0
C789 C 0.99541 0.57097 0.8567 0.0
C790 C 0.99677 0.58892 0.8469 0.0
C791 C 1.00181 0.59422 0.80012 0.0
C792 C 0.00713 0.58188 0.76526 0.0
C793 C 0.99512 0.60228 0.88592 0.0
C794 C 0.98327 0.61684 0.87854 0.0
C795 C 0.00665 0.60177 0.92749 0.0
C796 C 0.02052 0.58746 0.93577 0.0
C797 C 0.03458 0.584 0.90169 0.0
C798 C 0.04765 0.57053 0.9098 0.0
C799 C 0.04694 0.56058 0.95219 0.0
C800 C 0.03318 0.5641 0.9866 0.0
C801 C 0.02003 0.57752 0.97856 0.0
H802 H 0.0571 0.55018 0.95845 0.0
H803 H 0.94023 0.68768 0.86978 0.0
H804 H 0.97973 0.18271 0.47776 0.0
H805 H 0.97116 0.15728 0.52445 0.0
H806 H 0.02646 0.15276 0.58186 0.0
H807 H 0.03529 0.17768 0.53258 0.0
H808 H 0.02039 0.12825 0.51886 0.0
H809 H 0.98631 0.15102 0.65601 0.0
H810 H 0.96272 0.16863 0.70001 0.0
H811 H 0.91994 0.14453 0.61853 0.0
H812 H 0.94325 0.12689 0.57373 0.0
H813 H 0.01586 0.04616 0.62089 0.0
H814 H 0.01857 0.07569 0.59404 0.0
H815 H 0.96171 0.07685 0.54721 0.0
H816 H 0.95847 0.04713 0.57838 0.0
H817 H 0.96712 0.103 0.60342 0.0
H818 H 1.00064 0.08193 0.46273 0.0
H819 H 0.02352 0.06208 0.42337 0.0
H820 H 0.06624 0.08214 0.51326 0.0
H821 H 0.04379 0.10248 0.55216 0.0
C822 C 0.98973 0.17691 0.50264 0.0
C823 C 0.00822 0.18175 0.5011 0.0
C824 C 0.9848 0.16238 0.52957 0.0
C825 C 0.99832 0.15286 0.55565 0.0
C826 C 0.01591 0.15982 0.56133 0.0
C827 C 0.02097 0.17406 0.53334 0.0
C828 C 0.99612 0.13391 0.56237 0.0
C829 C 0.0089 0.12278 0.5383 0.0
C830 C 0.98058 0.12677 0.58506 0.0
C831 C 0.96657 0.13774 0.61115 0.0
C832 C 0.97189 0.14962 0.64706 0.0
C833 C 0.95855 0.15956 0.67228 0.0
C834 C 0.93985 0.15774 0.66197 0.0
C835 C 0.93443 0.14595 0.62646 0.0
C836 C 0.9477 0.13595 0.60121 0.0
C837 C 0.00409 0.05228 0.60303 0.0
C838 C 0.9869 0.04435 0.60236 0.0
C839 C 0.00569 0.06932 0.58737 0.0
C840 C 0.99039 0.07852 0.56812 0.0
C841 C 0.97367 0.06998 0.56221 0.0
C842 C 0.9719 0.05295 0.57945 0.0
C843 C 0.9915 0.09755 0.56059 0.0
C844 C 0.97851 0.10862 0.58396 0.0
C845 C 0.0067 0.10477 0.53671 0.0
C846 C 0.02054 0.09375 0.5102 0.0
C847 C 0.01498 0.08227 0.4736 0.0
C848 C 0.02789 0.07097 0.45131 0.0
C849 C 0.04637 0.07098 0.46552 0.0
C850 C 0.05201 0.08241 0.50168 0.0
C851 C 0.03923 0.09391 0.52359 0.0
H852 H 0.05631 0.06206 0.44872 0.0
H853 H 0.92955 0.16544 0.68158 0.0
H854 H 0.32085 0.0753 0.48937 0.0
H855 H 0.3454 0.05807 0.52686 0.0
H856 H 0.36996 0.10511 0.57942 0.0
H857 H 0.34548 0.12267 0.53966 0.0
H858 H 0.39406 0.08686 0.53114 0.0
H859 H 0.35167 0.07137 0.65767 0.0
H860 H 0.32208 0.06131 0.68987 0.0
H861 H 0.3298 0.01253 0.61478 0.0
H862 H 0.35934 0.02235 0.58175 0.0
H863 H 0.46688 0.03945 0.64348 0.0
H864 H 0.43913 0.05718 0.62955 0.0
H865 H 0.41493 0.01478 0.5516 0.0
H866 H 0.44253 0.9964 0.56744 0.0
H867 H 0.39069 0.03097 0.62161 0.0
H868 H 0.42615 0.04832 0.48047 0.0
H869 H 0.45732 0.05401 0.44948 0.0
H870 H 0.46194 0.09621 0.55126 0.0
H871 H 0.43103 0.09061 0.5826 0.0
C872 C 0.33099 0.08202 0.51064 0.0
C873 C 0.33115 0.10037 0.51175 0.0
C874 C 0.3451 0.07208 0.53223 0.0
C875 C 0.35949 0.08022 0.55655 0.0
C876 C 0.35898 0.09853 0.56089 0.0
C877 C 0.34497 0.10855 0.53842 0.0
C878 C 0.3762 0.06977 0.57065 0.0
C879 C 0.39324 0.0749 0.55201 0.0
C880 C 0.37523 0.05372 0.59616 0.0
C881 C 0.3577 0.04763 0.61714 0.0
C882 C 0.34704 0.05852 0.64795 0.0
C883 C 0.33027 0.05286 0.66634 0.0
C884 C 0.32406 0.0363 0.65435 0.0
C885 C 0.33464 0.02534 0.6241 0.0
C886 C 0.35142 0.03093 0.60565 0.0
C887 C 0.45591 0.03391 0.62234 0.0
C888 C 0.45695 0.01641 0.60676 0.0
C889 C 0.43994 0.04407 0.61484 0.0
C890 C 0.42493 0.03721 0.59003 0.0
C891 C 0.42629 0.02016 0.57158 0.0
C892 C 0.4422 0.00982 0.57982 0.0
C893 C 0.40811 0.04823 0.58213 0.0
C894 C 0.39126 0.04314 0.60158 0.0
C895 C 0.40902 0.06415 0.55683 0.0
C896 C 0.42633 0.0692 0.53342 0.0
C897 C 0.43379 0.05899 0.49549 0.0
C898 C 0.45146 0.06209 0.47811 0.0
C899 C 0.46172 0.07537 0.49839 0.0
C900 C 0.45415 0.08586 0.53537 0.0
C901 C 0.43648 0.08284 0.55277 0.0
H902 H 0.47552 0.07737 0.48532 0.0
H903 H 0.31105 0.03197 0.66851 0.0
H904 H 0.53562 0.33468 0.42683 0.0
H905 H 0.54169 0.36242 0.46451 0.0
H906 H 0.50985 0.34751 0.58967 0.0
H907 H 0.50204 0.32035 0.54865 0.0
H908 H 0.49417 0.37289 0.55224 0.0
H909 H 0.55859 0.36384 0.59031 0.0
H910 H 0.59132 0.35559 0.57671 0.0
H911 H 0.59379 0.39223 0.45917 0.0
H912 H 0.56106 0.40061 0.47183 0.0
H913 H 0.50365 0.44937 0.6843 0.0
H914 H 0.50158 0.42118 0.64538 0.0
H915 H 0.52507 0.44227 0.51454 0.0
H916 H 0.52772 0.47085 0.55498 0.0
H917 H 0.54453 0.41509 0.5473 0.0
H918 H 0.47976 0.42583 0.52008 0.0
H919 H 0.44702 0.43295 0.53706 0.0
H920 H 0.44576 0.39206 0.64299 0.0
H921 H 0.47855 0.38484 0.62772 0.0
C922 C 0.53068 0.33702 0.46343 0.0
C923 C 0.51821 0.3257 0.48484 0.0
C924 C 0.5343 0.35289 0.4853 0.0
C925 C 0.52602 0.35727 0.52978 0.0
C926 C 0.51612 0.34452 0.55486 0.0
C927 C 0.51176 0.32896 0.53183 0.0
C928 C 0.52347 0.37592 0.54311 0.0
C929 C 0.50536 0.38198 0.55265 0.0
C930 C 0.53775 0.38808 0.54019 0.0
C931 C 0.55732 0.38274 0.53181 0.0
C932 C 0.56606 0.37001 0.56127 0.0
C933 C 0.58463 0.36535 0.55382 0.0
C934 C 0.59461 0.37335 0.51704 0.0
C935 C 0.58605 0.38604 0.48764 0.0
C936 C 0.5675 0.39077 0.49501 0.0
C937 C 0.5079 0.44809 0.64672 0.0
C938 C 0.51602 0.46197 0.62242 0.0
C939 C 0.50651 0.43204 0.62432 0.0
C940 C 0.51299 0.42967 0.57691 0.0
C941 C 0.51991 0.44395 0.55115 0.0
C942 C 0.52141 0.46017 0.57395 0.0
C943 C 0.51545 0.41171 0.55864 0.0
C944 C 0.53346 0.40585 0.54738 0.0
C945 C 0.50115 0.39962 0.56117 0.0
C946 C 0.48171 0.4048 0.57268 0.0
C947 C 0.47262 0.41852 0.54756 0.0
C948 C 0.45402 0.42257 0.55688 0.0
C949 C 0.44435 0.41302 0.59118 0.0
C950 C 0.45329 0.39951 0.61666 0.0
C951 C 0.47187 0.39541 0.60763 0.0
H952 H 0.4299 0.41606 0.5979 0.0
H953 H 0.60899 0.36974 0.51138 0.0
H954 H 0.17997 0.42805 0.52994 0.0
H955 H 0.15487 0.44266 0.57323 0.0
H956 H 0.12132 0.39767 0.55444 0.0
H957 H 0.14687 0.38231 0.51346 0.0
H958 H 0.10967 0.42793 0.5021 0.0
H959 H 0.12457 0.41141 0.66232 0.0
H960 H 0.142 0.40637 0.73792 0.0
H961 H 0.15175 0.46124 0.74899 0.0
H962 H 0.13466 0.46662 0.673 0.0
H963 H 0.03147 0.48081 0.57826 0.0
H964 H 0.05474 0.45756 0.56327 0.0
H965 H 0.09774 0.49326 0.59808 0.0
H966 H 0.07455 0.51597 0.61613 0.0
H967 H 0.10122 0.46356 0.65091 0.0
H968 H 0.0923 0.47852 0.4815 0.0
H969 H 0.07224 0.48463 0.41093 0.0
H970 H 0.05057 0.43316 0.42115 0.0
H971 H 0.07046 0.42681 0.49202 0.0
C972 C 0.16773 0.42075 0.53716 0.0
C973 C 0.16531 0.40415 0.51644 0.0
C974 C 0.15328 0.42923 0.56199 0.0
C975 C 0.13616 0.42136 0.56615 0.0
C976 C 0.13442 0.404 0.55113 0.0
C977 C 0.14901 0.39534 0.52721 0.0
C978 C 0.11954 0.43257 0.57468 0.0
C979 C 0.10759 0.43541 0.53515 0.0
C980 C 0.11715 0.44265 0.61726 0.0
C981 C 0.12849 0.43938 0.66141 0.0
C982 C 0.13074 0.42237 0.68026 0.0
C983 C 0.14048 0.41947 0.7234 0.0
C984 C 0.14803 0.43347 0.74815 0.0
C985 C 0.14592 0.4504 0.72974 0.0
C986 C 0.1362 0.45338 0.68662 0.0
C987 C 0.0459 0.48361 0.58218 0.0
C988 C 0.05116 0.49986 0.60002 0.0
C989 C 0.05919 0.47044 0.57335 0.0
C990 C 0.07795 0.47361 0.58071 0.0
C991 C 0.08331 0.49046 0.59317 0.0
C992 C 0.07002 0.50354 0.60252 0.0
C993 C 0.09198 0.45924 0.57781 0.0
C994 C 0.10332 0.45588 0.61822 0.0
C995 C 0.094 0.44877 0.53602 0.0
C996 C 0.0828 0.4522 0.49198 0.0
C997 C 0.08328 0.4685 0.46857 0.0
C998 C 0.07193 0.47202 0.42859 0.0
C999 C 0.06013 0.45929 0.41157 0.0
C1000 C 0.05974 0.44299 0.43431 0.0
C1001 C 0.07109 0.4394 0.47428 0.0
H1002 H 0.05128 0.46207 0.38076 0.0
H1003 H 0.15547 0.4312 0.78169 0.0
H1004 H 0.02488 0.82023 0.90529 0.0
H1005 H 0.02033 0.84306 0.84355 0.0
H1006 H 0.97859 0.86815 0.93334 0.0
H1007 H 0.98258 0.8451 0.99335 0.0
H1008 H 0.97458 0.87957 0.84364 0.0
H1009 H 0.02624 0.87124 0.9595 0.0
H1010 H 0.05445 0.85708 0.99325 0.0
H1011 H 0.08037 0.859 0.8534 0.0
H1012 H 0.05222 0.87299 0.81885 0.0
H1013 H 0.9966 0.96916 0.87768 0.0
H1014 H 0.98893 0.93813 0.88362 0.0
H1015 H 0.03501 0.9248 0.78996 0.0
H1016 H 0.04342 0.95513 0.78767 0.0
H1017 H 0.03614 0.90529 0.86029 0.0
H1018 H 0.98725 0.92402 0.755 0.0
H1019 H 0.9596 0.94024 0.72559 0.0
H1020 H 0.9283 0.92127 0.84572 0.0
H1021 H 0.95583 0.90532 0.87666 0.0
C1022 C 0.01404 0.83011 0.91021 0.0
C1023 C 0.00434 0.83134 0.95406 0.0
C1024 C 0.01144 0.84313 0.87512 0.0
C1025 C 0.99965 0.85763 0.88489 0.0
C1026 C 0.98792 0.85722 0.92524 0.0
C1027 C 0.9903 0.84413 0.95976 0.0
C1028 C 1.00305 0.87483 0.86289 0.0
C1029 C 0.98804 0.88527 0.84652 0.0
C1030 C 0.02067 0.88217 0.86635 0.0
C1031 C 0.03704 0.87274 0.88645 0.0
C1032 C 0.03787 0.86838 0.93589 0.0
C1033 C 0.05385 0.86044 0.95516 0.0
C1034 C 0.06915 0.85704 0.92542 0.0
C1035 C 0.06848 0.86153 0.87632 0.0
C1036 C 0.05251 0.8694 0.85686 0.0
C1037 C 0.00544 0.95938 0.8603 0.0
C1038 C 0.02101 0.96433 0.83401 0.0
C1039 C 1.00073 0.94181 0.86226 0.0
C1040 C 0.0112 0.92919 0.8364 0.0
C1041 C 0.02676 0.93427 0.81037 0.0
C1042 C 0.03184 0.95156 0.81008 0.0
C1043 C 0.00768 0.91037 0.84109 0.0
C1044 C 0.02272 0.89966 0.85498 0.0
C1045 C 0.99008 0.90307 0.8355 0.0
C1046 C 0.97371 0.91347 0.81829 0.0
C1047 C 0.97456 0.92348 0.77558 0.0
C1048 C 0.95886 0.93259 0.75852 0.0
C1049 C 0.94218 0.93169 0.78358 0.0
C1050 C 0.9412 0.92188 0.82617 0.0
C1051 C 0.95687 0.91283 0.84354 0.0
H1052 H 0.93002 0.93865 0.77012 0.0
H1053 H 0.08155 0.851 0.94048 0.0
H1054 H 0.68356 0.9257 0.90039 0.0
H1055 H 0.66186 0.93789 0.84099 0.0
H1056 H 0.61918 0.90585 0.89903 0.0
H1057 H 0.64121 0.89233 0.95465 0.0
H1058 H 0.60787 0.91774 0.81635 0.0
H1059 H 0.63674 0.94575 0.9612 0.0
H1060 H 0.66334 0.95795 0.00404 0.0
H1061 H 0.67388 0.99117 0.88219 0.0
H1062 H 0.64747 0.97897 0.83852 0.0
H1063 H 0.53001 0.97102 0.87016 0.0
H1064 H 0.5577 0.95199 0.87736 0.0
H1065 H 0.59049 0.99301 0.81763 0.0
H1066 H 0.56327 0.01209 0.81311 0.0
H1067 H 0.60905 0.97814 0.88093 0.0
H1068 H 0.57318 0.95792 0.75067 0.0
H1069 H 0.54568 0.94731 0.70898 0.0
H1070 H 0.54776 0.90071 0.79556 0.0
H1071 H 0.57478 0.91136 0.83946 0.0
C1072 C 0.66989 0.92044 0.89854 0.0
C1073 C 0.66373 0.90881 0.93415 0.0
C1074 C 0.6574 0.92756 0.86473 0.0
C1075 C 0.63861 0.92369 0.86803 0.0
C1076 C 0.63346 0.90955 0.89684 0.0
C1077 C 0.64605 0.90197 0.92925 0.0
C1078 C 0.62404 0.9367 0.85354 0.0
C1079 C 0.60809 0.93099 0.83012 0.0
C1080 C 0.62445 0.95418 0.87039 0.0
C1081 C 0.64036 0.96132 0.89651 0.0
C1082 C 0.6448 0.95561 0.9436 0.0
C1083 C 0.65983 0.96251 0.96796 0.0
C1084 C 0.67032 0.9753 0.9458 0.0
C1085 C 0.66579 0.98123 0.89924 0.0
C1086 C 0.65082 0.97431 0.87465 0.0
C1087 C 0.54325 0.97602 0.86009 0.0
C1088 C 0.54456 0.99295 0.84143 0.0
C1089 C 0.55899 0.96512 0.86339 0.0
C1090 C 0.57607 0.9709 0.84647 0.0
C1091 C 0.57749 0.98821 0.83068 0.0
C1092 C 0.56193 -0.00081 0.82872 0.0
C1093 C 0.59257 0.95908 0.84516 0.0
C1094 C 0.60882 0.96507 0.86577 0.0
C1095 C 0.59234 0.94203 0.82518 0.0
C1096 C 0.576 0.93554 0.79879 0.0
C1097 C 0.56765 0.94552 0.76141 0.0
C1098 C 0.55209 0.93951 0.73742 0.0
C1099 C 0.54489 0.9234 0.7499 0.0
C1100 C 0.55323 0.91327 0.78636 0.0
C1101 C 0.56867 0.9193 0.81085 0.0
H1102 H 0.53291 0.91871 0.7311 0.0
H1103 H 0.68193 0.98065 0.96475 0.0
H1104 H 0.46015 0.67565 0.9611 0.0
H1105 H 0.46357 0.6493 0.91199 0.0
H1106 H 0.52189 0.65744 0.89852 0.0
H1107 H 0.5186 0.68375 0.94859 0.0
H1108 H 0.48796 0.6347 0.81928 0.0
H1109 H 0.53258 0.63505 0.9602 0.0
H1110 H 0.54189 0.64386 0.04252 0.0
H1111 H 0.48923 0.62922 0.09809 0.0
H1112 H 0.47959 0.62054 0.01588 0.0
H1113 H 0.51269 0.5481 0.80143 0.0
H1114 H 0.51852 0.57635 0.8355 0.0
H1115 H 0.46711 0.57489 0.91368 0.0
H1116 H 0.46167 0.5456 0.88077 0.0
H1117 H 0.50173 0.59439 0.95694 0.0
H1118 H 0.46084 0.58848 0.81579 0.0
H1119 H 0.45426 0.57661 0.73472 0.0
H1120 H 0.50232 0.60087 0.67791 0.0
H1121 H 0.50949 0.61236 0.75879 0.0
C1122 C 0.47348 0.67245 0.94513 0.0
C1123 C 0.48921 0.68134 0.95929 0.0
C1124 C 0.47543 0.65737 0.91729 0.0
C1125 C 0.49305 0.65134 0.90323 0.0
C1126 C 0.50826 0.6619 0.90992 0.0
C1127 C 0.50635 0.67692 0.93818 0.0
C1128 C 0.49583 0.63262 0.89434 0.0
C1129 C 0.49132 0.62587 0.84897 0.0
C1130 C 0.50001 0.6212 0.93344 0.0
C1131 C 0.50524 0.62756 0.98195 0.0
C1132 C 0.5229 0.63402 0.98989 0.0
C1133 C 0.52828 0.63887 0.03653 0.0
C1134 C 0.51614 0.63715 0.0755 0.0
C1135 C 0.49858 0.63063 0.06786 0.0
C1136 C 0.49314 0.62579 0.02126 0.0
C1137 C 0.50348 0.55296 0.82925 0.0
C1138 C 0.48712 0.54436 0.83972 0.0
C1139 C 0.50659 0.56936 0.84776 0.0
C1140 C 0.49314 0.57759 0.87641 0.0
C1141 C 0.47761 0.5685 0.89145 0.0
C1142 C 0.4745 0.55187 0.87275 0.0
C1143 C 0.49371 0.59651 0.88215 0.0
C1144 C 0.49871 0.60322 0.92699 0.0
C1145 C 0.49035 0.60782 0.84227 0.0
C1146 C 0.48583 0.60108 0.79347 0.0
C1147 C 0.47015 0.59104 0.78614 0.0
C1148 C 0.46634 0.58434 0.74022 0.0
C1149 C 0.47798 0.58779 0.70129 0.0
C1150 C 0.49346 0.59794 0.70816 0.0
C1151 C 0.49738 0.60459 0.75401 0.0
H1152 H 0.47473 0.58297 0.66558 0.0
H1153 H 0.52034 0.64086 0.11161 0.0
H1154 H 0.86824 0.62209 0.96371 0.0
H1155 H 0.89121 0.60797 0.91257 0.0
H1156 H 0.84931 0.57626 0.84895 0.0
H1157 H 0.82671 0.58872 0.90509 0.0
H1158 H 0.87115 0.55628 0.89036 0.0
H1159 H 0.88255 0.60403 0.78502 0.0
H1160 H 0.88897 0.63406 0.75928 0.0
H1161 H 0.93999 0.63198 0.8381 0.0
H1162 H 0.93385 0.60207 0.86493 0.0
H1163 H 0.94087 0.50065 0.79403 0.0
H1164 H 0.91546 0.52159 0.8054 0.0
H1165 H 0.95084 0.55455 0.88892 0.0
H1166 H 0.97674 0.53363 0.87564 0.0
H1167 H 0.93146 0.57332 0.82381 0.0
H1168 H 0.91651 0.52941 0.94301 0.0
H1169 H 0.9114 0.49912 0.96914 0.0
H1170 H 0.86759 0.49511 0.86541 0.0
H1171 H 0.87257 0.52534 0.83837 0.0
C1172 C 0.8638 0.61234 0.93816 0.0
C1173 C 0.84592 0.60576 0.94076 0.0
C1174 C 0.87698 0.60447 0.90789 0.0
C1175 C 0.8722 0.59059 0.87758 0.0
C1176 C 0.85346 0.5866 0.87304 0.0
C1177 C 0.84044 0.59391 0.905 0.0
C1178 C 0.88669 0.57768 0.86177 0.0
C1179 C 0.88409 0.56011 0.87441 0.0
C1180 C 0.904 0.58255 0.84288 0.0
C1181 C 0.90764 0.60073 0.82723 0.0
C1182 C 0.89504 0.61003 0.79741 0.0
C1183 C 0.89868 0.62703 0.78243 0.0
C1184 C 0.91487 0.63494 0.7971 0.0
C1185 C 0.92748 0.62584 0.8267 0.0
C1186 C 0.92394 0.60883 0.84167 0.0
C1187 C 0.94307 0.51205 0.81636 0.0
C1188 C 0.96064 0.51549 0.83469 0.0
C1189 C 0.92858 0.5241 0.82238 0.0
C1190 C 0.93119 0.53957 0.84832 0.0
C1191 C 0.94857 0.54271 0.86858 0.0
C1192 C 0.96327 0.53075 0.86153 0.0
C1193 C 0.91576 0.55248 0.85359 0.0
C1194 C 0.91827 0.5698 0.83893 0.0
C1195 C 0.89839 0.54755 0.87114 0.0
C1196 C 0.89498 0.52958 0.88851 0.0
C1197 C 0.90581 0.52205 0.92575 0.0
C1198 C 0.90294 0.5049 0.94069 0.0
C1199 C 0.8892 0.49519 0.91889 0.0
C1200 C 0.87823 0.50265 0.88227 0.0
C1201 C 0.88104 0.5198 0.8672 0.0
H1202 H 0.88704 0.48189 0.93042 0.0
H1203 H 0.91767 0.6481 0.7855 0.0
H1204 H 0.01116 0.19499 0.98015 0.0
H1205 H 0.0106 0.16894 0.92867 0.0
H1206 H 0.00356 0.13671 0.05511 0.0
H1207 H 0.00348 0.16261 0.10661 0.0
H1208 H 0.03185 0.12449 0.99408 0.0
H1209 H 0.96828 0.14372 0.98331 0.0
H1210 H 0.94191 0.16382 0.96619 0.0
H1211 H 0.95935 0.16814 0.81798 0.0
H1212 H 0.986 0.14826 0.83441 0.0
H1213 H 0.00602 0.04383 0.8819 0.0
H1214 H 0.0111 0.07003 0.93115 0.0
H1215 H 0.00877 0.10175 0.80173 0.0
H1216 H 1.00288 0.07579 0.75327 0.0
H1217 H 0.98627 0.11485 0.86375 0.0
H1218 H 0.04925 0.09494 0.87227 0.0
H1219 H 0.07606 0.07527 0.88857 0.0
H1220 H 0.06082 0.07259 0.03877 0.0
H1221 H 0.03376 0.09203 0.02326 0.0
C1222 C 0.00919 0.18241 0.99699 0.0
C1223 C 0.00756 0.18094 0.0477 0.0
C1224 C 0.00896 0.16752 0.96749 0.0
C1225 C 0.00713 0.15088 0.98811 0.0
C1226 C 0.00518 0.1494 0.0385 0.0
C1227 C 0.00524 0.16425 0.06791 0.0
C1228 C 0.00776 0.13491 0.95748 0.0
C1229 C 0.02179 0.12223 0.96585 0.0
C1230 C 0.99495 0.13227 0.9198 0.0
C1231 C 0.9793 0.1447 0.9103 0.0
C1232 C 0.96665 0.14915 0.94725 0.0
C1233 C 0.95161 0.16046 0.93762 0.0
C1234 C 0.94899 0.16731 0.89108 0.0
C1235 C 0.96142 0.16287 0.85406 0.0
C1236 C 0.9765 0.15159 0.86352 0.0
C1237 C 0.00702 0.05638 0.86411 0.0
C1238 C 0.00399 0.0579 0.81399 0.0
C1239 C 0.00998 0.07135 0.89216 0.0
C1240 C 0.01031 0.08796 0.87026 0.0
C1241 C 0.00841 0.08918 0.81966 0.0
C1242 C 0.0051 0.07434 0.79194 0.0
C1243 C 0.01047 0.10425 0.89995 0.0
C1244 C 0.99651 0.11704 0.8916 0.0
C1245 C 0.02344 0.10701 0.93739 0.0
C1246 C 0.03931 0.09477 0.94642 0.0
C1247 C 0.05145 0.08996 0.90864 0.0
C1248 C 0.06675 0.0789 0.91778 0.0
C1249 C 0.07011 0.07264 0.96463 0.0
C1250 C 0.05818 0.07741 0.00246 0.0
C1251 C 0.04286 0.08845 0.99351 0.0
H1252 H 0.08198 0.06412 0.97166 0.0
H1253 H 0.9373 0.17601 0.88367 0.0
H1254 H 0.36156 0.10478 0.09048 0.0
H1255 H 0.3866 0.09373 0.03781 0.0
H1256 H 0.34822 0.06144 0.96249 0.0
H1257 H 0.32344 0.07197 0.01539 0.0
H1258 H 0.37787 0.04294 0.98722 0.0
H1259 H 0.36574 0.09808 0.90954 0.0
H1260 H 0.36186 0.13015 0.90596 0.0
H1261 H 0.4179 0.13563 0.95232 0.0
H1262 H 0.42205 0.10355 0.95674 0.0
H1263 H 0.42351 0.01412 0.78023 0.0
H1264 H 0.40317 0.03118 0.83306 0.0
H1265 H 0.45013 0.05384 0.90186 0.0
H1266 H 0.47093 0.03674 0.84802 0.0
H1267 H 0.41918 0.07842 0.88596 0.0
H1268 H 0.43033 0.02246 0.96348 0.0
H1269 H 0.43286 0.99037 0.96744 0.0
H1270 H 0.37693 0.98688 0.91784 0.0
H1271 H 0.37408 0.01906 0.91406 0.0
C1272 C 0.35847 0.09534 0.06263 0.0
C1273 C 0.34041 0.08934 0.05716 0.0
C1274 C 0.37278 0.08916 0.03223 0.0
C1275 C 0.36932 0.07681 0.99584 0.0
C1276 C 0.35128 0.07098 0.99011 0.0
C1277 C 0.33704 0.07715 0.02025 0.0
C1278 C 0.3845 0.06902 0.96546 0.0
C1279 C 0.38676 0.05077 0.96487 0.0
C1280 C 0.39651 0.07915 0.93709 0.0
C1281 C 0.39414 0.09842 0.93399 0.0
C1282 C 0.3772 0.10612 0.91933 0.0
C1283 C 0.37496 0.1243 0.91707 0.0
C1284 C 0.38961 0.13492 0.92905 0.0
C1285 C 0.40655 0.12738 0.94312 0.0
C1286 C 0.40887 0.1092 0.94545 0.0
C1287 C 0.42968 0.0227 0.80644 0.0
C1288 C 0.44898 0.02376 0.81024 0.0
C1289 C 0.41794 0.03254 0.83664 0.0
C1290 C 0.42506 0.04364 0.87198 0.0
C1291 C 0.44429 0.04533 0.87493 0.0
C1292 C 0.45617 0.03546 0.84432 0.0
C1293 C 0.4122 0.05237 0.90734 0.0
C1294 C 0.41038 0.07071 0.90884 0.0
C1295 C 0.40037 0.04239 0.93642 0.0
C1296 C 0.40204 0.0231 0.93828 0.0
C1297 C 0.41862 0.01482 0.95319 0.0
C1298 C 0.42009 0.99662 0.95546 0.0
C1299 C 0.40508 0.98655 0.94266 0.0
C1300 C 0.38854 0.99469 0.92773 0.0
C1301 C 0.38697 0.01291 0.92574 0.0
H1302 H 0.4062 0.97244 0.94447 0.0
H1303 H 0.38784 0.14899 0.92732 0.0
H1304 H 0.53244 0.3304 0.02102 0.0
H1305 H 0.53172 0.35697 0.97112 0.0
H1306 H 0.47507 0.36728 0.01234 0.0
H1307 H 0.47573 0.34082 0.0623 0.0
H1308 H 0.48216 0.36998 0.91102 0.0
H1309 H 0.50625 0.38996 0.06414 0.0
H1310 H 0.52793 0.38978 0.13298 0.0
H1311 H 0.57293 0.39852 0.03564 0.0
H1312 H 0.55156 0.39849 0.96609 0.0
H1313 H 0.4753 0.46025 0.82768 0.0
H1314 H 0.47287 0.43173 0.86885 0.0
H1315 H 0.53183 0.42351 0.85673 0.0
H1316 H 0.5343 0.45175 0.81786 0.0
H1317 H 0.52239 0.41966 0.94555 0.0
H1318 H 0.5008 0.39873 0.79271 0.0
H1319 H 0.48131 0.39565 0.72016 0.0
H1320 H 0.43433 0.38647 0.81045 0.0
H1321 H 0.45348 0.38976 0.88354 0.0
C1322 C 0.51984 0.33833 0.0192 0.0
C1323 C 0.50414 0.33362 0.04543 0.0
C1324 C 0.51947 0.3535 0.99099 0.0
C1325 C 0.50335 0.36405 0.98831 0.0
C1326 C 0.48762 0.35927 0.01405 0.0
C1327 C 0.48805 0.34425 0.0427 0.0
C1328 C 0.5028 0.38008 0.95846 0.0
C1329 C 0.49074 0.38101 0.91875 0.0
C1330 C 0.51444 0.39412 0.96802 0.0
C1331 C 0.52732 0.39402 0.00984 0.0
C1332 C 0.52079 0.39166 0.05734 0.0
C1333 C 0.53303 0.39163 0.09651 0.0
C1334 C 0.55181 0.39408 0.08868 0.0
C1335 C 0.55839 0.39659 0.04165 0.0
C1336 C 0.54622 0.3966 0.00235 0.0
C1337 C 0.48762 0.45221 0.8337 0.0
C1338 C 0.50502 0.45838 0.82113 0.0
C1339 C 0.48625 0.43591 0.85681 0.0
C1340 C 0.50224 0.42557 0.86645 0.0
C1341 C 0.51936 0.43134 0.85058 0.0
C1342 C 0.52074 0.44755 0.82855 0.0
C1343 C 0.50182 0.40965 0.89718 0.0
C1344 C 0.5137 0.40874 0.93748 0.0
C1345 C 0.49028 0.3955 0.88746 0.0
C1346 C 0.47852 0.39478 0.84362 0.0
C1347 C 0.48625 0.39638 0.79712 0.0
C1348 C 0.47527 0.3945 0.75588 0.0
C1349 C 0.45658 0.39092 0.76073 0.0
C1350 C 0.4488 0.3893 0.80677 0.0
C1351 C 0.45969 0.39119 0.84809 0.0
H1352 H 0.44812 0.38932 0.7289 0.0
H1353 H 0.56125 0.39408 0.11905 0.0
H1354 H 0.17934 0.44773 0.03511 0.0
H1355 H 0.15385 0.45762 0.98341 0.0
H1356 H 0.12309 0.4126 0.02423 0.0
H1357 H 0.14884 0.40241 0.07614 0.0
H1358 H 0.12124 0.42224 0.92012 0.0
H1359 H 0.11162 0.44762 0.07812 0.0
H1360 H 0.12171 0.46311 0.15139 0.0
H1361 H 0.13438 0.50793 0.06534 0.0
H1362 H 0.12465 0.4926 0.99141 0.0
H1363 H 0.03914 0.46678 0.81947 0.0
H1364 H 0.05983 0.4494 0.87297 0.0
H1365 H 0.0981 0.49143 0.87442 0.0
H1366 H 0.07779 0.50866 0.82204 0.0
H1367 H 0.09263 0.47977 0.96354 0.0
H1368 H 0.10411 0.45511 0.80582 0.0
H1369 H 0.0968 0.43983 0.73003 0.0
H1370 H 0.08363 0.39388 0.81062 0.0
H1371 H 0.09002 0.40915 0.88723 0.0
C1372 C 0.16731 0.43973 0.03262 0.0
C1373 C 0.16618 0.42425 0.05983 0.0
C1374 C 0.15269 0.44546 0.00314 0.0
C1375 C 0.13652 0.4359 1.00005 0.0
C1376 C 0.13545 0.42017 0.02601 0.0
C1377 C 0.1501 0.41446 0.05597 0.0
C1378 C 0.12047 0.44317 0.97212 0.0
C1379 C 0.11464 0.43463 0.93 0.0
C1380 C 0.11215 0.45948 0.98461 0.0
C1381 C 0.11748 0.46893 0.02921 0.0
C1382 C 0.11663 0.46075 0.0748 0.0
C1383 C 0.12229 0.4695 0.11644 0.0
C1384 C 0.1287 0.48649 0.11302 0.0
C1385 C 0.1294 0.49478 0.06794 0.0
C1386 C 0.12379 0.48608 0.02617 0.0
C1387 C 0.05192 0.47232 0.83151 0.0
C1388 C 0.05672 0.48917 0.81641 0.0
C1389 C 0.06379 0.46233 0.8618 0.0
C1390 C 0.08061 0.46907 0.87769 0.0
C1391 C 0.08524 0.48591 0.86289 0.0
C1392 C 0.07354 0.49577 0.83268 0.0
C1393 C 0.0935 0.4591 0.91051 0.0
C1394 C 0.09882 0.46718 0.95384 0.0
C1395 C 0.10143 0.44247 0.8986 0.0
C1396 C 0.09718 0.43343 0.85247 0.0
C1397 C 0.0993 0.44187 0.80756 0.0
C1398 C 0.09538 0.43318 0.76438 0.0
C1399 C 0.08976 0.4159 0.76547 0.0
C1400 C 0.08793 0.40729 0.80981 0.0
C1401 C 0.0916 0.41599 0.85316 0.0
H1402 H 0.08688 0.40916 0.73195 0.0
H1403 H 0.1331 0.49323 0.14529 0.0
H1404 H 0.01343 0.8193 0.46506 0.0
H1405 H 0.01068 0.84562 0.51507 0.0
H1406 H 0.98878 0.87458 0.39279 0.0
H1407 H 0.99147 0.84832 0.34263 0.0
H1408 H 0.01439 0.89266 0.43643 0.0
H1409 H 0.96114 0.8629 0.48824 0.0
H1410 H 0.94342 0.83819 0.51864 0.0
H1411 H 0.97496 0.83763 0.65038 0.0
H1412 H 0.99307 0.86218 0.62046 0.0
H1413 H 0.99303 0.96824 0.58329 0.0
H1414 H 0.98824 0.94284 0.5305 0.0
H1415 H 0.01531 0.90926 0.6358 0.0
H1416 H 0.02034 0.93445 0.68796 0.0
H1417 H 0.98393 0.89463 0.59744 0.0
H1418 H 0.03874 0.92263 0.54155 0.0
H1419 H 0.05714 0.94662 0.50952 0.0
H1420 H 0.0223 0.95014 0.38384 0.0
H1421 H 0.0035 0.92634 0.41554 0.0
C1422 C 0.0078 0.8312 0.44895 0.0
C1423 C 1.00274 0.83166 0.39972 0.0
C1424 C 0.00622 0.84627 0.47763 0.0
C1425 C 0.99937 0.86212 0.45791 0.0
C1426 C 0.99416 0.86256 0.40888 0.0
C1427 C 0.99578 0.84752 0.38018 0.0
C1428 C 0.99835 0.87835 0.48785 0.0
C1429 C 0.00739 0.89318 0.47119 0.0
C1430 C 0.98949 0.87902 0.53365 0.0
C1431 C 0.97858 0.86429 0.5519 0.0
C1432 C 0.9644 0.85742 0.52354 0.0
C1433 C 0.95427 0.84345 0.54071 0.0
C1434 C 0.95809 0.83632 0.58636 0.0
C1435 C 0.97203 0.84316 0.61499 0.0
C1436 C 0.98222 0.85712 0.59797 0.0
C1437 C 0.99775 0.9554 0.59529 0.0
C1438 C 0.0072 0.95336 0.63952 0.0
C1439 C 0.99509 0.94092 0.56507 0.0
C1440 C 1.00157 0.92415 0.57901 0.0
C1441 C 0.01024 0.92204 0.62418 0.0
C1442 C 0.01317 0.93648 0.65385 0.0
C1443 C 1.00011 0.90881 0.54613 0.0
C1444 C 0.99065 0.89416 0.56231 0.0
C1445 C 0.00853 0.90831 0.49979 0.0
C1446 C 0.01953 0.9229 0.4813 0.0
C1447 C 0.03484 0.92868 0.50741 0.0
C1448 C 0.04538 0.94221 0.48924 0.0
C1449 C 0.04085 0.94995 0.44477 0.0
C1450 C 0.02576 0.94417 0.41836 0.0
C1451 C 0.01515 0.93068 0.43643 0.0
H1452 H 0.04906 0.96038 0.43069 0.0
H1453 H 0.95023 0.8255 0.59959 0.0
H1454 H 0.65341 0.91081 0.3641 0.0
H1455 H 0.62749 0.91822 0.41807 0.0
H1456 H 0.65736 0.96157 0.47487 0.0
H1457 H 0.68328 0.95413 0.42166 0.0
H1458 H 0.64139 0.94537 0.5465 0.0
H1459 H 0.62072 0.96567 0.38712 0.0
H1460 H 0.61379 0.9608 0.30068 0.0
H1461 H 0.5743 0.92253 0.33961 0.0
H1462 H 0.58114 0.92705 0.42629 0.0
H1463 H 0.57728 0.00212 0.65265 0.0
H1464 H 0.59941 0.98757 0.59931 0.0
H1465 H 0.55931 0.94933 0.56221 0.0
H1466 H 0.53653 0.9644 0.61519 0.0
H1467 H 0.57839 0.95781 0.4828 0.0
H1468 H 0.59707 0.9372 0.63889 0.0
H1469 H 0.60477 0.93881 0.72559 0.0
H1470 H 0.64729 0.97499 0.69458 0.0
H1471 H 0.64019 0.97318 0.60718 0.0
C1472 C 0.65444 0.92196 0.38797 0.0
C1473 C 0.67053 0.93186 0.38835 0.0
C1474 C 0.63955 0.92622 0.41885 0.0
C1475 C 0.64024 0.94065 0.45036 0.0
C1476 C 0.65639 0.95036 0.45115 0.0
C1477 C 0.67129 0.94604 0.42067 0.0
C1478 C 0.62433 0.94584 0.48263 0.0
C1479 C 0.62768 0.94822 0.53231 0.0
C1480 C 0.60612 0.94885 0.46502 0.0
C1481 C 0.60153 0.94661 0.4131 0.0
C1482 C 0.61058 0.9562 0.37721 0.0
C1483 C 0.60668 0.9535 0.32819 0.0
C1484 C 0.59364 0.94134 0.31466 0.0
C1485 C 0.5844 0.93193 0.35014 0.0
C1486 C 0.58826 0.93458 0.39921 0.0
C1487 C 0.57304 0.99058 0.63342 0.0
C1488 C 0.55505 0.9844 0.63876 0.0
C1489 C 0.58585 0.98217 0.60291 0.0
C1490 C 0.58134 0.96702 0.57736 0.0
C1491 C 0.56326 0.96091 0.58169 0.0
C1492 C 0.55023 0.96953 0.61205 0.0
C1493 C 0.5957 0.95795 0.54629 0.0
C1494 C 0.59206 0.95479 0.49701 0.0
C1495 C 0.61365 0.95396 0.56425 0.0
C1496 C 0.61801 0.95515 0.61662 0.0
C1497 C 0.60802 0.94555 0.65059 0.0
C1498 C 0.61229 0.94649 0.69987 0.0
C1499 C 0.62634 0.95717 0.7158 0.0
C1500 C 0.63636 0.96676 0.68226 0.0
C1501 C 0.63232 0.96567 0.63278 0.0
H1502 H 0.62954 0.95794 0.75406 0.0
H1503 H 0.59068 0.93922 0.27669 0.0
H1504 H 0.52117 0.69001 0.42515 0.0
H1505 H 0.5249 0.66276 0.4714 0.0
H1506 H 0.47054 0.64786 0.42728 0.0
H1507 H 0.46647 0.67516 0.38265 0.0
H1508 H 0.47536 0.64302 0.52161 0.0
H1509 H 0.5098 0.62933 0.37591 0.0
H1510 H 0.53401 0.63401 0.31487 0.0
H1511 H 0.57561 0.62891 0.4251 0.0
H1512 H 0.5516 0.62439 0.48693 0.0
H1513 H 0.47249 0.55356 0.57271 0.0
H1514 H 0.47646 0.57922 0.52149 0.0
H1515 H 0.52548 0.59177 0.60084 0.0
H1516 H 0.52216 0.56527 0.65066 0.0
H1517 H 0.52571 0.59882 0.4943 0.0
H1518 H 0.48593 0.63109 0.63269 0.0
H1519 H 0.4607 0.62961 0.69262 0.0
H1520 H 0.42919 0.59937 0.59311 0.0
H1521 H 0.45386 0.60145 0.53195 0.0
C1522 C 0.50994 0.681 0.4258 0.0
C1523 C 0.49352 0.68477 0.40014 0.0
C1524 C 0.5122 0.66533 0.45171 0.0
C1525 C 0.49809 0.65316 0.45232 0.0
C1526 C 0.48165 0.657 0.42717 0.0
C1527 C 0.47938 0.6726 0.40144 0.0
C1528 C 0.49989 0.63665 0.48054 0.0
C1529 C 0.48632 0.63334 0.51519 0.0
C1530 C 0.51444 0.62416 0.47326 0.0
C1531 C 0.5289 0.62669 0.4361 0.0
C1532 C 0.5241 0.62932 0.38718 0.0
C1533 C 0.53778 0.63192 0.35243 0.0
C1534 C 0.55633 0.6318 0.36612 0.0
C1535 C 0.56123 0.62902 0.41456 0.0
C1536 C 0.5476 0.62641 0.44946 0.0
C1537 C 0.48432 0.56161 0.5786 0.0
C1538 C 0.4969 0.55762 0.6159 0.0
C1539 C 0.48642 0.5764 0.54983 0.0
C1540 C 0.5007 0.58788 0.55901 0.0
C1541 C 0.51416 0.58323 0.59375 0.0
C1542 C 0.51231 0.56809 0.622 0.0
C1543 C 0.50079 0.60506 0.53397 0.0
C1544 C 0.51482 0.60857 0.50052 0.0
C1545 C 0.48656 0.61779 0.54176 0.0
C1546 C 0.47204 0.61574 0.57873 0.0
C1547 C 0.47366 0.62401 0.62387 0.0
C1548 C 0.45936 0.62329 0.65776 0.0
C1549 C 0.44344 0.61422 0.64691 0.0
C1550 C 0.44163 0.60618 0.60175 0.0
C1551 C 0.45575 0.60717 0.56742 0.0
H1552 H 0.43247 0.61351 0.67337 0.0
H1553 H 0.56691 0.63383 0.33917 0.0
H1554 H 0.8582 0.59054 0.33498 0.0
H1555 H 0.88458 0.5827 0.38652 0.0
H1556 H 0.84808 0.56094 0.49231 0.0
H1557 H 0.82163 0.56814 0.44043 0.0
H1558 H 0.87719 0.58082 0.5342 0.0
H1559 H 0.86939 0.53399 0.41643 0.0
H1560 H 0.86617 0.5235 0.33238 0.0
H1561 H 0.91885 0.54411 0.29617 0.0
H1562 H 0.92227 0.55489 0.37995 0.0
H1563 H 0.92866 0.51998 0.66994 0.0
H1564 H 0.9071 0.53452 0.61455 0.0
H1565 H 0.9522 0.54918 0.52279 0.0
H1566 H 0.97418 0.53448 0.57879 0.0
H1567 H 0.92189 0.53624 0.46968 0.0
H1568 H 0.93228 0.58102 0.58243 0.0
H1569 H 0.9378 0.59212 0.66486 0.0
H1570 H 0.88323 0.57814 0.70734 0.0
H1571 H 0.87742 0.5668 0.62501 0.0
C1572 C 0.85568 0.584 0.36905 0.0
C1573 C 0.8376 0.57982 0.38291 0.0
C1574 C 0.87085 0.57965 0.39874 0.0
C1575 C 0.86839 0.5711 0.44327 0.0
C1576 C 0.85036 0.56759 0.45826 0.0
C1577 C 0.83519 0.5718 0.42843 0.0
C1578 C 0.88458 0.56476 0.47265 0.0
C1579 C 0.88687 0.57101 0.52012 0.0
C1580 C 0.89773 0.55243 0.45397 0.0
C1581 C 0.89603 0.54532 0.40428 0.0
C1582 C 0.88027 0.5363 0.39049 0.0
C1583 C 0.8784 0.53032 0.34292 0.0
C1584 C 0.89229 0.53316 0.30893 0.0
C1585 C 0.90811 0.54192 0.32254 0.0
C1586 C 0.91003 0.54794 0.37007 0.0
C1587 C 0.93413 0.5263 0.63809 0.0
C1588 C 0.95324 0.52602 0.62898 0.0
C1589 C 0.92171 0.53467 0.60638 0.0
C1590 C 0.92794 0.54304 0.56442 0.0
C1591 C 0.94702 0.5428 0.55487 0.0
C1592 C 0.95958 0.53451 0.58709 0.0
C1593 C 0.91425 0.55202 0.53151 0.0
C1594 C 0.91238 0.54624 0.48351 0.0
C1595 C 0.90174 0.56508 0.54924 0.0
C1596 C 0.90446 0.57297 0.5977 0.0
C1597 C 0.92143 0.58035 0.60932 0.0
C1598 C 0.92462 0.58666 0.65596 0.0
C1599 C 0.91091 0.58574 0.69128 0.0
C1600 C 0.89384 0.5788 0.67984 0.0
C1601 C 0.89056 0.57248 0.63312 0.0
H1602 H 0.9136 0.59035 0.72749 0.0
H1603 H 0.89079 0.52857 0.27208 0.0
loop_
_geom_bond_atom_site_label_1
_geom_bond_atom_site_label_2
_geom_bond_distance
_geom_bond_site_symmetry_2
_ccdc_geom_bond_type
C0 C1 1.264 . S
C0 C5 1.479 . S
C0 C10 1.465 . S
C1 C0 1.264 . S
C1 C3 1.339 . S
C1 H28 0.931 . S
C2 C3 1.395 . S
C2 C4 1.320 . S
C3 C1 1.339 . S
C3 C2 1.395 . S
C3 H29 0.929 . S
C4 C2 1.320 . S
C4 C5 1.405 . S
C4 H30 0.930 . S
C5 C0 1.479 . S
C5 C4 1.405 . S
C5 H31 0.931 . S
U6 O7 2.454 . S
U6 O8 2.458 . S
U6 C9 2.984 . S
U6 C10 2.847 . S
U6 C23 2.882 . S
U6 O24 2.441 . S
U6 O25 2.420 . S
U6 O26 2.455 . S
U6 O27 2.449 . S
O7 U6 2.454 . S
O7 C9 1.353 . S
O8 U6 2.458 . S
O8 C9 1.286 . S
C9 U6 2.984 . S
C9 O7 1.353 . S
C9 O8 1.286 . S
C9 C11 1.363 . S
C10 C0 1.465 . S
C10 U6 2.847 . S
C10 O24 1.249 . S
C10 O25 1.202 . S
C11 C9 1.363 . S
C11 C13 1.408 . S
C11 C16 1.342 . S
C12 C13 1.310 . S
C12 C15 1.461 . S
C12 H32 0.932 . S
C13 C11 1.408 . S
C13 C12 1.310 . S
C13 H33 0.930 . S
C14 C15 1.474 . S
C14 C16 1.285 . S
C14 H34 0.929 1_554 S
C15 C12 1.461 . S
C15 C14 1.474 . S
C16 C11 1.342 . S
C16 C14 1.285 . S
C16 H35 0.930 1_554 S
C17 C20 1.424 1_556 S
C17 C22 1.245 . S
C17 C23 1.428 1_556 S
C18 C21 1.260 . S
C18 C22 1.477 . S
C18 H36 0.932 . S
C19 C20 1.384 1_556 S
C19 C21 1.479 . S
C19 H37 0.929 . S
C20 C17 1.424 1_554 S
C20 C19 1.384 1_554 S
C20 H38 0.928 . S
C21 C18 1.260 . S
C21 C19 1.479 . S
C22 C17 1.245 . S
C22 C18 1.477 . S
C22 H39 0.932 . S
C23 U6 2.882 . S
C23 C17 1.428 1_554 S
C23 O26 1.301 . S
C23 O27 1.282 . S
O24 U6 2.441 . S
O24 C10 1.249 . S
O25 U6 2.420 . S
O25 C10 1.202 . S
O26 U6 2.455 . S
O26 C23 1.301 . S
O27 U6 2.449 . S
O27 C23 1.282 . S
H28 C1 0.931 . S
H29 C3 0.929 . S
H30 C4 0.930 . S
H31 C5 0.931 . S
H32 C12 0.932 . S
H33 C13 0.930 . S
H34 C14 0.929 1_556 S
H35 C16 0.930 1_556 S
H36 C18 0.932 . S
H37 C19 0.929 . S
H38 C20 0.928 . S
H39 C22 0.932 . S
C40 C41 1.264 . S
C40 C45 1.479 . S
C40 C50 1.465 . S
C41 C40 1.264 . S
C41 C43 1.339 . S
C41 H68 0.931 . S
C42 C43 1.395 . S
C42 C44 1.320 . S
C43 C41 1.339 . S
C43 C42 1.395 . S
C43 H69 0.929 . S
C44 C42 1.320 . S
C44 C45 1.405 . S
C44 H70 0.920 1_455 S
C45 C40 1.479 . S
C45 C44 1.405 . S
C45 H71 0.931 . S
U46 O47 2.454 . S
U46 O48 2.458 . S
U46 C49 2.984 . S
U46 C50 2.847 . S
U46 C63 2.882 . S
U46 O64 2.441 . S
U46 O65 2.420 . S
U46 O66 2.455 . S
U46 O67 2.449 . S
O47 U46 2.454 . S
O47 C49 1.353 . S
O48 U46 2.458 . S
O48 C49 1.286 . S
C49 U46 2.984 . S
C49 O47 1.353 . S
C49 O48 1.286 . S
C49 C51 1.363 . S
C50 C40 1.465 . S
C50 U46 2.847 . S
C50 O64 1.249 . S
C50 O65 1.202 . S
C51 C49 1.363 . S
C51 C53 1.408 . S
C51 C56 1.342 . S
C52 C53 1.310 . S
C52 C55 1.461 . S
C52 H72 0.932 . S
C53 C51 1.408 . S
C53 C52 1.310 . S
C53 H73 0.930 . S
C54 C55 1.474 1_655 S
C54 C56 1.285 1_655 S
C54 H74 0.930 1_554 S
C55 C52 1.461 . S
C55 C54 1.474 1_455 S
C56 C51 1.342 . S
C56 C54 1.285 1_455 S
C56 H75 0.932 . S
C57 C60 1.424 . S
C57 C62 1.245 1_554 S
C57 C63 1.428 . S
C58 C61 1.260 . S
C58 C62 1.477 . S
C58 H76 0.932 . S
C59 C60 1.384 1_556 S
C59 C61 1.479 . S
C59 H77 0.929 1_556 S
C60 C57 1.424 . S
C60 C59 1.384 1_554 S
C60 H78 0.928 . S
C61 C58 1.260 . S
C61 C59 1.479 . S
C62 C57 1.245 1_556 S
C62 C58 1.477 . S
C62 H79 0.932 . S
C63 U46 2.882 . S
C63 C57 1.428 . S
C63 O66 1.301 . S
C63 O67 1.282 . S
O64 U46 2.441 . S
O64 C50 1.249 . S
O65 U46 2.420 . S
O65 C50 1.202 . S
O66 U46 2.455 . S
O66 C63 1.301 . S
O67 U46 2.449 . S
O67 C63 1.282 . S
H68 C41 0.931 . S
H69 C43 0.929 . S
H70 C44 0.920 1_655 S
H71 C45 0.931 . S
H72 C52 0.932 . S
H73 C53 0.930 . S
H74 C54 0.930 1_556 S
H75 C56 0.932 . S
H76 C58 0.932 . S
H77 C59 0.929 1_554 S
H78 C60 0.928 . S
H79 C62 0.932 . S
C80 C81 1.264 . S
C80 C85 1.479 . S
C80 C90 1.465 . S
C81 C80 1.264 . S
C81 C83 1.339 . S
C81 H108 0.931 . S
C82 C83 1.395 . S
C82 C84 1.320 . S
C83 C81 1.339 . S
C83 C82 1.395 . S
C83 H109 0.929 . S
C84 C82 1.320 . S
C84 C85 1.405 . S
C84 H110 0.930 . S
C85 C80 1.479 . S
C85 C84 1.405 . S
C85 H111 0.931 . S
U86 O87 2.454 . S
U86 O88 2.458 . S
U86 C89 2.984 . S
U86 C90 2.847 . S
U86 C103 2.882 . S
U86 O104 2.441 . S
U86 O105 2.420 . S
U86 O106 2.455 . S
U86 O107 2.449 . S
O87 U86 2.454 . S
O87 C89 1.353 . S
O88 U86 2.458 . S
O88 C89 1.286 . S
C89 U86 2.984 . S
C89 O87 1.353 . S
C89 O88 1.286 . S
C89 C91 1.363 . S
C90 C80 1.465 . S
C90 U86 2.847 . S
C90 O104 1.249 . S
C90 O105 1.202 . S
C91 C89 1.363 . S
C91 C93 1.408 . S
C91 C96 1.342 . S
C92 C93 1.310 . S
C92 C95 1.461 . S
C92 H112 0.932 . S
C93 C91 1.408 . S
C93 C92 1.310 . S
C93 H113 0.930 . S
C94 C95 1.474 . S
C94 C96 1.285 . S
C94 H114 0.929 1_554 S
C95 C92 1.461 . S
C95 C94 1.474 . S
C96 C91 1.342 . S
C96 C94 1.285 . S
C96 H115 0.930 . S
C97 C100 1.418 1_556 S
C97 C102 1.265 . S
C97 C103 1.413 1_556 S
C98 C101 1.260 . S
C98 C102 1.477 . S
C98 H116 0.932 . S
C99 C100 1.384 1_556 S
C99 C101 1.479 . S
C99 H117 0.929 . S
C100 C97 1.418 1_554 S
C100 C99 1.384 1_554 S
C100 H118 0.928 . S
C101 C98 1.260 . S
C101 C99 1.479 . S
C102 C97 1.265 . S
C102 C98 1.477 . S
C102 H119 0.932 . S
C103 U86 2.882 . S
C103 C97 1.413 1_554 S
C103 O106 1.301 . S
C103 O107 1.282 . S
O104 U86 2.441 . S
O104 C90 1.249 . S
O105 U86 2.420 . S
O105 C90 1.202 . S
O106 U86 2.455 . S
O106 C103 1.301 . S
O107 U86 2.449 . S
O107 C103 1.282 . S
H108 C81 0.931 . S
H109 C83 0.929 . S
H110 C84 0.930 . S
H111 C85 0.931 . S
H112 C92 0.932 . S
H113 C93 0.930 . S
H114 C94 0.929 1_556 S
H115 C96 0.930 . S
H116 C98 0.932 . S
H117 C99 0.929 . S
H118 C100 0.928 . S
H119 C102 0.932 . S
C120 C121 1.264 . S
C120 C125 1.479 . S
C120 C130 1.465 . S
C121 C120 1.264 . S
C121 C123 1.339 . S
C121 H148 0.931 . S
C122 C123 1.395 . S
C122 C124 1.320 . S
C123 C121 1.339 . S
C123 C122 1.395 . S
C123 H149 0.929 . S
C124 C122 1.320 . S
C124 C125 1.405 . S
C124 H150 0.930 . S
C125 C120 1.479 . S
C125 C124 1.405 . S
C125 H151 0.931 . S
U126 O127 2.454 . S
U126 O128 2.458 . S
U126 C129 2.984 . S
U126 C130 2.847 . S
U126 C143 2.882 . S
U126 O144 2.441 . S
U126 O145 2.420 . S
U126 O146 2.455 . S
U126 O147 2.449 . S
O127 U126 2.454 . S
O127 C129 1.353 . S
O128 U126 2.458 . S
O128 C129 1.286 . S
C129 U126 2.984 . S
C129 O127 1.353 . S
C129 O128 1.286 . S
C129 C131 1.363 . S
C130 C120 1.465 . S
C130 U126 2.847 . S
C130 O144 1.249 . S
C130 O145 1.202 . S
C131 C129 1.363 . S
C131 C133 1.408 . S
C131 C136 1.342 . S
C132 C133 1.310 . S
C132 C135 1.461 . S
C132 H152 0.932 . S
C133 C131 1.408 . S
C133 C132 1.310 . S
C133 H153 0.930 . S
C134 C135 1.474 . S
C134 C136 1.285 . S
C134 H154 0.929 1_554 S
C135 C132 1.461 . S
C135 C134 1.474 . S
C136 C131 1.342 . S
C136 C134 1.285 . S
C136 H155 0.930 . S
C137 C140 1.424 . S
C137 C142 1.245 1_554 S
C137 C143 1.428 . S
C138 C141 1.260 . S
C138 C142 1.477 . S
C138 H156 0.932 . S
C139 C140 1.384 1_556 S
C139 C141 1.479 . S
C139 H157 0.929 1_556 S
C140 C137 1.424 . S
C140 C139 1.384 1_554 S
C140 H158 0.928 . S
C141 C138 1.260 . S
C141 C139 1.479 . S
C142 C137 1.245 1_556 S
C142 C138 1.477 . S
C142 H159 0.932 . S
C143 U126 2.882 . S
C143 C137 1.428 . S
C143 O146 1.301 . S
C143 O147 1.282 . S
O144 U126 2.441 . S
O144 C130 1.249 . S
O145 U126 2.420 . S
O145 C130 1.202 . S
O146 U126 2.455 . S
O146 C143 1.301 . S
O147 U126 2.449 . S
O147 C143 1.282 . S
H148 C121 0.931 . S
H149 C123 0.929 . S
H150 C124 0.930 . S
H151 C125 0.931 . S
H152 C132 0.932 . S
H153 C133 0.930 . S
H154 C134 0.929 1_556 S
H155 C136 0.930 . S
H156 C138 0.932 . S
H157 C139 0.929 1_554 S
H158 C140 0.928 . S
H159 C142 0.932 . S
C160 C161 1.264 . S
C160 C165 1.479 . S
C160 C170 1.465 . S
C161 C160 1.264 . S
C161 C163 1.339 . S
C161 H188 0.931 . S
C162 C163 1.395 . S
C162 C164 1.320 . S
C163 C161 1.339 . S
C163 C162 1.395 . S
C163 H189 0.929 . S
C164 C162 1.320 . S
C164 C165 1.405 . S
C164 H190 0.930 . S
C165 C160 1.479 . S
C165 C164 1.405 . S
C165 H191 0.931 . S
U166 O167 2.454 . S
U166 O168 2.458 . S
U166 C169 2.984 . S
U166 C170 2.847 . S
U166 C183 2.882 . S
U166 O184 2.441 . S
U166 O185 2.420 . S
U166 O186 2.455 . S
U166 O187 2.449 . S
O167 U166 2.454 . S
O167 C169 1.353 . S
O168 U166 2.458 . S
O168 C169 1.286 . S
C169 U166 2.984 . S
C169 O167 1.353 . S
C169 O168 1.286 . S
C169 C171 1.363 . S
C170 C160 1.465 . S
C170 U166 2.847 . S
C170 O184 1.249 . S
C170 O185 1.202 . S
C171 C169 1.363 . S
C171 C173 1.408 . S
C171 C176 1.342 . S
C172 C173 1.310 . S
C172 C175 1.461 . S
C172 H192 0.932 . S
C173 C171 1.408 . S
C173 C172 1.310 . S
C173 H193 0.930 . S
C174 C175 1.474 . S
C174 C176 1.285 . S
C174 H194 0.929 . S
C175 C172 1.461 . S
C175 C174 1.474 . S
C176 C171 1.342 . S
C176 C174 1.285 . S
C176 H195 0.930 . S
C177 C180 1.424 . S
C177 C182 1.245 . S
C177 C183 1.428 . S
C178 C181 1.260 . S
C178 C182 1.477 . S
C178 H196 0.932 . S
C179 C180 1.384 . S
C179 C181 1.479 . S
C179 H197 0.929 . S
C180 C177 1.424 . S
C180 C179 1.384 . S
C180 H198 0.928 . S
C181 C178 1.260 . S
C181 C179 1.479 . S
C182 C177 1.245 . S
C182 C178 1.477 . S
C182 H199 0.932 . S
C183 U166 2.882 . S
C183 C177 1.428 . S
C183 O186 1.301 . S
C183 O187 1.282 . S
O184 U166 2.441 . S
O184 C170 1.249 . S
O185 U166 2.420 . S
O185 C170 1.202 . S
O186 U166 2.455 . S
O186 C183 1.301 . S
O187 U166 2.449 . S
O187 C183 1.282 . S
H188 C161 0.931 . S
H189 C163 0.929 . S
H190 C164 0.930 . S
H191 C165 0.931 . S
H192 C172 0.932 . S
H193 C173 0.930 . S
H194 C174 0.929 . S
H195 C176 0.930 . S
H196 C178 0.932 . S
H197 C179 0.929 . S
H198 C180 0.928 . S
H199 C182 0.932 . S
C200 C201 1.264 . S
C200 C205 1.479 . S
C200 C210 1.465 . S
C201 C200 1.264 . S
C201 C203 1.339 . S
C201 H228 0.931 . S
C202 C203 1.395 . S
C202 C204 1.320 . S
C203 C201 1.339 . S
C203 C202 1.395 . S
C203 H229 0.929 . S
C204 C202 1.320 . S
C204 C205 1.405 . S
C204 H230 0.924 1_455 S
C205 C200 1.479 . S
C205 C204 1.405 . S
C205 H231 0.931 . S
U206 O207 2.454 . S
U206 O208 2.458 . S
U206 C209 2.984 . S
U206 C210 2.847 . S
U206 C223 2.882 . S
U206 O224 2.441 . S
U206 O225 2.420 . S
U206 O226 2.455 . S
U206 O227 2.449 . S
O207 U206 2.454 . S
O207 C209 1.353 . S
O208 U206 2.458 . S
O208 C209 1.286 . S
C209 U206 2.984 . S
C209 O207 1.353 . S
C209 O208 1.286 . S
C209 C211 1.363 . S
C210 C200 1.465 . S
C210 U206 2.847 . S
C210 O224 1.249 . S
C210 O225 1.202 . S
C211 C209 1.363 . S
C211 C213 1.408 . S
C211 C216 1.342 . S
C212 C213 1.310 . S
C212 C215 1.462 . S
C212 H232 0.932 . S
C213 C211 1.408 . S
C213 C212 1.310 . S
C213 H233 0.930 . S
C214 C215 1.473 . S
C214 C216 1.285 . S
C214 H234 0.930 1_455 S
C215 C212 1.462 . S
C215 C214 1.473 . S
C216 C211 1.342 . S
C216 C214 1.285 . S
C216 H235 0.935 . S
C217 C220 1.424 . S
C217 C222 1.245 . S
C217 C223 1.428 . S
C218 C221 1.260 . S
C218 C222 1.477 . S
C218 H236 0.932 . S
C219 C220 1.384 . S
C219 C221 1.479 . S
C219 H237 0.929 . S
C220 C217 1.424 . S
C220 C219 1.384 . S
C220 H238 0.928 . S
C221 C218 1.260 . S
C221 C219 1.479 . S
C222 C217 1.245 . S
C222 C218 1.477 . S
C222 H239 0.932 . S
C223 U206 2.882 . S
C223 C217 1.428 . S
C223 O226 1.301 . S
C223 O227 1.282 . S
O224 U206 2.441 . S
O224 C210 1.249 . S
O225 U206 2.420 . S
O225 C210 1.202 . S
O226 U206 2.455 . S
O226 C223 1.301 . S
O227 U206 2.449 . S
O227 C223 1.282 . S
H228 C201 0.931 . S
H229 C203 0.929 . S
H230 C204 0.924 1_655 S
H231 C205 0.931 . S
H232 C212 0.932 . S
H233 C213 0.930 . S
H234 C214 0.930 1_655 S
H235 C216 0.935 . S
H236 C218 0.932 . S
H237 C219 0.929 . S
H238 C220 0.928 . S
H239 C222 0.932 . S
C240 C241 1.264 . S
C240 C245 1.479 . S
C240 C250 1.465 . S
C241 C240 1.264 . S
C241 C243 1.339 . S
C241 H268 0.931 . S
C242 C243 1.395 . S
C242 C244 1.320 . S
C243 C241 1.339 . S
C243 C242 1.395 . S
C243 H269 0.929 . S
C244 C242 1.320 . S
C244 C245 1.405 . S
C244 H270 0.930 . S
C245 C240 1.479 . S
C245 C244 1.405 . S
C245 H271 0.931 . S
U246 O247 2.454 . S
U246 O248 2.458 . S
U246 C249 2.984 . S
U246 C250 2.847 . S
U246 C263 2.882 . S
U246 O264 2.441 . S
U246 O265 2.420 . S
U246 O266 2.455 . S
U246 O267 2.449 . S
O247 U246 2.454 . S
O247 C249 1.353 . S
O248 U246 2.458 . S
O248 C249 1.286 . S
C249 U246 2.984 . S
C249 O247 1.353 . S
C249 O248 1.286 . S
C249 C251 1.363 . S
C250 C240 1.465 . S
C250 U246 2.847 . S
C250 O264 1.249 . S
C250 O265 1.202 . S
C251 C249 1.363 . S
C251 C253 1.408 . S
C251 C256 1.342 . S
C252 C253 1.310 . S
C252 C255 1.461 . S
C252 H272 0.932 . S
C253 C251 1.408 . S
C253 C252 1.310 . S
C253 H273 0.930 . S
C254 C255 1.474 . S
C254 C256 1.285 . S
C254 H274 0.929 . S
C255 C252 1.461 . S
C255 C254 1.474 . S
C256 C251 1.342 . S
C256 C254 1.285 . S
C256 H275 0.930 . S
C257 C260 1.424 . S
C257 C262 1.245 . S
C257 C263 1.428 . S
C258 C261 1.260 . S
C258 C262 1.477 . S
C258 H276 0.932 . S
C259 C260 1.384 . S
C259 C261 1.479 . S
C259 H277 0.929 . S
C260 C257 1.424 . S
C260 C259 1.384 . S
C260 H278 0.928 . S
C261 C258 1.260 . S
C261 C259 1.479 . S
C262 C257 1.245 . S
C262 C258 1.477 . S
C262 H279 0.932 . S
C263 U246 2.882 . S
C263 C257 1.428 . S
C263 O266 1.301 . S
C263 O267 1.282 . S
O264 U246 2.441 . S
O264 C250 1.249 . S
O265 U246 2.420 . S
O265 C250 1.202 . S
O266 U246 2.455 . S
O266 C263 1.301 . S
O267 U246 2.449 . S
O267 C263 1.282 . S
H268 C241 0.931 . S
H269 C243 0.929 . S
H270 C244 0.930 . S
H271 C245 0.931 . S
H272 C252 0.932 . S
H273 C253 0.930 . S
H274 C254 0.929 . S
H275 C256 0.930 . S
H276 C258 0.932 . S
H277 C259 0.929 . S
H278 C260 0.928 . S
H279 C262 0.932 . S
C280 C281 1.264 . S
C280 C285 1.479 . S
C280 C290 1.465 . S
C281 C280 1.264 . S
C281 C283 1.339 . S
C281 H308 0.931 . S
C282 C283 1.395 . S
C282 C284 1.320 . S
C283 C281 1.339 . S
C283 C282 1.395 . S
C283 H309 0.929 . S
C284 C282 1.320 . S
C284 C285 1.405 . S
C284 H310 0.930 . S
C285 C280 1.479 . S
C285 C284 1.405 . S
C285 H311 0.931 . S
U286 O287 2.454 . S
U286 O288 2.458 . S
U286 C289 2.984 . S
U286 C290 2.847 . S
U286 C303 2.882 . S
U286 O304 2.441 . S
U286 O305 2.420 . S
U286 O306 2.455 . S
U286 O307 2.449 . S
O287 U286 2.454 . S
O287 C289 1.353 . S
O288 U286 2.458 . S
O288 C289 1.286 . S
C289 U286 2.984 . S
C289 O287 1.353 . S
C289 O288 1.286 . S
C289 C291 1.363 . S
C290 C280 1.465 . S
C290 U286 2.847 . S
C290 O304 1.249 . S
C290 O305 1.202 . S
C291 C289 1.363 . S
C291 C293 1.408 . S
C291 C296 1.342 . S
C292 C293 1.310 . S
C292 C295 1.461 . S
C292 H312 0.932 . S
C293 C291 1.408 . S
C293 C292 1.310 . S
C293 H313 0.930 . S
C294 C295 1.474 . S
C294 C296 1.285 . S
C294 H314 0.929 . S
C295 C292 1.461 . S
C295 C294 1.474 . S
C296 C291 1.342 . S
C296 C294 1.285 . S
C296 H315 0.930 . S
C297 C300 1.424 . S
C297 C302 1.245 . S
C297 C303 1.428 . S
C298 C301 1.260 . S
C298 C302 1.477 . S
C298 H316 0.932 . S
C299 C300 1.384 . S
C299 C301 1.479 . S
C299 H317 0.929 . S
C300 C297 1.424 . S
C300 C299 1.384 . S
C300 H318 0.928 . S
C301 C298 1.260 . S
C301 C299 1.479 . S
C302 C297 1.245 . S
C302 C298 1.477 . S
C302 H319 0.932 . S
C303 U286 2.882 . S
C303 C297 1.428 . S
C303 O306 1.301 . S
C303 O307 1.282 . S
O304 U286 2.441 . S
O304 C290 1.249 . S
O305 U286 2.420 . S
O305 C290 1.202 . S
O306 U286 2.455 . S
O306 C303 1.301 . S
O307 U286 2.449 . S
O307 C303 1.282 . S
H308 C281 0.931 . S
H309 C283 0.929 . S
H310 C284 0.930 . S
H311 C285 0.931 . S
H312 C292 0.932 . S
H313 C293 0.930 . S
H314 C294 0.929 . S
H315 C296 0.930 . S
H316 C298 0.932 . S
H317 C299 0.929 . S
H318 C300 0.928 . S
H319 C302 0.932 . S
O320 Mg321 1.990 . S
O320 C334 1.253 . S
Mg321 O320 1.990 . S
Mg321 O324 2.180 1_565 S
Mg321 O325 2.117 . S
Mg321 O339 2.030 . S
O322 Mg323 2.070 1_465 S
O322 C334 1.260 . S
Mg323 O322 2.070 1_645 S
Mg323 O324 2.050 1_655 S
Mg323 O326 2.088 . S
Mg323 O327 2.056 1_655 S
Mg323 O329 2.148 . S
Mg323 O340 2.091 1_545 S
O324 Mg321 2.180 1_545 S
O324 Mg323 2.050 1_455 S
O324 C335 1.279 . S
O325 Mg321 2.117 . S
O325 C335 1.250 1_565 S
O326 Mg323 2.088 . S
O326 C336 1.264 . S
O327 Mg323 2.056 1_455 S
O327 C337 1.283 . S
Mg328 O329 2.180 . S
Mg328 O330 2.030 . S
Mg328 O331 1.990 . S
Mg328 O332 2.117 . S
O329 Mg323 2.148 . S
O329 Mg328 2.180 . S
O329 C338 1.279 . S
O330 Mg328 2.030 . S
O330 C336 1.248 . S
O331 Mg328 1.990 . S
O331 C337 1.199 1_655 S
O332 Mg328 2.117 . S
O332 C338 1.250 . S
C333 O339 1.205 1_655 S
C333 O340 1.281 . S
C334 O320 1.253 . S
C334 O322 1.260 . S
C335 O324 1.279 . S
C335 O325 1.250 1_545 S
C336 O326 1.264 . S
C336 O330 1.248 . S
C337 O327 1.283 . S
C337 O331 1.199 1_455 S
C338 O329 1.279 . S
C338 O332 1.250 . S
O339 Mg321 2.030 . S
O339 C333 1.205 1_455 S
O340 Mg323 2.091 1_565 S
O340 C333 1.281 . S
O341 Mg342 1.990 1_545 S
O341 C355 1.253 . S
Mg342 O341 1.990 1_565 S
Mg342 O345 2.180 . S
Mg342 O346 2.117 . S
Mg342 O360 2.030 1_565 S
O343 Mg344 2.072 . S
O343 C355 1.260 . S
Mg344 O343 2.072 . S
Mg344 O345 2.099 1_545 S
Mg344 O347 2.079 1_545 S
Mg344 O348 2.079 . S
Mg344 O350 2.099 . S
Mg344 O361 2.079 . S
O345 Mg342 2.180 . S
O345 Mg344 2.099 1_565 S
O345 C356 1.279 . S
O346 Mg342 2.117 . S
O346 C356 1.250 . S
O347 Mg344 2.079 1_565 S
O347 C357 1.264 . S
O348 Mg344 2.079 . S
O348 C358 1.270 . S
Mg349 O350 2.180 . S
Mg349 O351 2.030 . S
Mg349 O352 1.990 . S
Mg349 O353 2.117 . S
O350 Mg344 2.099 . S
O350 Mg349 2.180 . S
O350 C359 1.279 . S
O351 Mg349 2.030 . S
O351 C357 1.248 1_545 S
O352 Mg349 1.990 . S
O352 C358 1.253 . S
O353 Mg349 2.117 . S
O353 C359 1.250 . S
C354 O360 1.248 . S
C354 O361 1.264 . S
C355 O341 1.253 . S
C355 O343 1.260 . S
C356 O345 1.279 . S
C356 O346 1.250 . S
C357 O347 1.264 . S
C357 O351 1.248 1_565 S
C358 O348 1.270 . S
C358 O352 1.253 . S
C359 O350 1.279 . S
C359 O353 1.250 . S
O360 Mg342 2.030 1_545 S
O360 C354 1.248 . S
O361 Mg344 2.079 . S
O361 C354 1.264 . S
O362 Mg363 1.990 . S
O362 C376 1.253 . S
Mg363 O362 1.990 . S
Mg363 O366 2.180 . S
Mg363 O367 2.117 . S
Mg363 O381 2.030 . S
O364 Mg365 2.072 . S
O364 C376 1.260 . S
Mg365 O364 2.072 . S
Mg365 O366 2.099 . S
Mg365 O368 2.079 . S
Mg365 O369 2.072 . S
Mg365 O371 2.099 . S
Mg365 O382 2.079 . S
O366 Mg363 2.180 . S
O366 Mg365 2.099 . S
O366 C377 1.279 . S
O367 Mg363 2.117 . S
O367 C377 1.250 . S
O368 Mg365 2.079 . S
O368 C378 1.264 . S
O369 Mg365 2.072 . S
O369 C379 1.260 . S
Mg370 O371 2.180 . S
Mg370 O372 2.030 . S
Mg370 O373 1.990 . S
Mg370 O374 2.117 . S
O371 Mg365 2.099 . S
O371 Mg370 2.180 . S
O371 C380 1.279 . S
O372 Mg370 2.030 . S
O372 C378 1.248 . S
O373 Mg370 1.990 . S
O373 C379 1.253 . S
O374 Mg370 2.117 . S
O374 C380 1.250 . S
C375 O381 1.248 . S
C375 O382 1.264 . S
C376 O362 1.253 . S
C376 O364 1.260 . S
C377 O366 1.279 . S
C377 O367 1.250 . S
C378 O368 1.264 . S
C378 O372 1.248 . S
C379 O369 1.260 . S
C379 O373 1.253 . S
C380 O371 1.279 . S
C380 O374 1.250 . S
O381 Mg363 2.030 . S
O381 C375 1.248 . S
O382 Mg365 2.079 . S
O382 C375 1.264 . S
O383 Mg384 1.990 . S
O383 C397 1.253 . S
Mg384 O383 1.990 . S
Mg384 O387 2.180 . S
Mg384 O388 2.117 . S
Mg384 O402 2.030 . S
O385 Mg386 2.072 1_655 S
O385 C397 1.260 . S
Mg386 O385 2.072 1_455 S
Mg386 O387 2.099 1_455 S
Mg386 O389 2.079 . S
Mg386 O390 2.072 . S
Mg386 O392 2.099 . S
Mg386 O403 2.079 1_455 S
O387 Mg384 2.180 . S
O387 Mg386 2.099 1_655 S
O387 C398 1.279 . S
O388 Mg384 2.117 . S
O388 C398 1.250 . S
O389 Mg386 2.079 . S
O389 C399 1.264 . S
O390 Mg386 2.072 . S
O390 C400 1.260 . S
Mg391 O392 2.180 . S
Mg391 O393 2.030 . S
Mg391 O394 1.990 . S
Mg391 O395 2.117 . S
O392 Mg386 2.099 . S
O392 Mg391 2.180 . S
O392 C401 1.279 . S
O393 Mg391 2.030 . S
O393 C399 1.248 . S
O394 Mg391 1.990 . S
O394 C400 1.253 . S
O395 Mg391 2.117 . S
O395 C401 1.250 . S
C396 O402 1.248 . S
C396 O403 1.264 . S
C397 O383 1.253 . S
C397 O385 1.260 . S
C398 O387 1.279 . S
C398 O388 1.250 . S
C399 O389 1.264 . S
C399 O393 1.248 . S
C400 O390 1.260 . S
C400 O394 1.253 . S
C401 O392 1.279 . S
C401 O395 1.250 . S
O402 Mg384 2.030 . S
O402 C396 1.248 . S
O403 Mg386 2.079 1_655 S
O403 C396 1.264 . S
H404 C422 0.951 . S
H405 C424 0.951 . S
H406 C426 0.950 . S
H407 C427 0.950 . S
H408 C429 0.950 . S
H409 C432 0.950 . S
H410 C433 0.950 . S
H411 C435 0.950 . S
H412 C436 0.950 . S
H413 C437 0.951 . S
H414 C439 0.951 . S
H415 C441 0.950 . S
H416 C442 0.950 . S
H417 C444 0.950 . S
H418 C447 0.950 . S
H419 C448 0.950 . S
H420 C450 0.950 . S
H421 C451 0.950 . S
C422 H404 0.951 . S
C422 C423 1.366 . S
C422 C424 1.388 . S
C423 C422 1.366 . S
C423 C427 1.385 . S
C424 H405 0.951 . S
C424 C422 1.388 . S
C424 C425 1.366 . S
C425 C424 1.366 . S
C425 C426 1.414 . S
C425 C428 1.499 . S
C426 H406 0.950 . S
C426 C425 1.414 . S
C426 C427 1.374 . S
C427 H407 0.950 . S
C427 C423 1.385 . S
C427 C426 1.374 . S
C428 C425 1.499 . S
C428 C429 1.373 . S
C428 C430 1.389 . S
C429 H408 0.950 . S
C429 C428 1.373 . S
C429 C445 1.377 . S
C430 C428 1.389 . S
C430 C431 1.524 . S
C430 C444 1.377 . S
C431 C430 1.524 . S
C431 C432 1.397 . S
C431 C436 1.363 . S
C432 H409 0.950 . S
C432 C431 1.397 . S
C432 C433 1.334 . S
C433 H410 0.950 . S
C433 C432 1.334 . S
C433 C434 1.287 . S
C434 C433 1.287 . S
C434 C435 1.524 . S
C434 H453 0.913 . S
C435 H411 0.950 . S
C435 C434 1.524 . S
C435 C436 1.415 . S
C436 H412 0.950 . S
C436 C431 1.363 . S
C436 C435 1.415 . S
C437 H413 0.951 . S
C437 C438 1.366 . S
C437 C439 1.388 . S
C438 C437 1.366 . S
C438 C442 1.385 . S
C439 H414 0.951 . S
C439 C437 1.388 . S
C439 C440 1.366 . S
C440 C439 1.366 . S
C440 C441 1.414 . S
C440 C443 1.499 . S
C441 H415 0.950 . S
C441 C440 1.414 . S
C441 C442 1.374 . S
C442 H416 0.950 . S
C442 C438 1.385 . S
C442 C441 1.374 . S
C443 C440 1.499 . S
C443 C444 1.373 . S
C443 C445 1.389 . S
C444 H417 0.950 . S
C444 C430 1.377 . S
C444 C443 1.373 . S
C445 C429 1.377 . S
C445 C443 1.389 . S
C445 C446 1.524 . S
C446 C445 1.524 . S
C446 C447 1.397 . S
C446 C451 1.363 . S
C447 H418 0.950 . S
C447 C446 1.397 . S
C447 C448 1.334 1_545 S
C448 H419 0.950 . S
C448 C447 1.334 1_565 S
C448 C449 1.287 . S
C449 C448 1.287 . S
C449 C450 1.524 . S
C449 H452 0.999 . S
C450 H420 0.950 . S
C450 C449 1.524 . S
C450 C451 1.415 1_565 S
C451 H421 0.950 . S
C451 C446 1.363 . S
C451 C450 1.415 1_545 S
H452 C449 0.999 . S
H453 C434 0.913 . S
H454 C472 0.951 . S
H455 C474 0.951 . S
H456 C476 0.950 . S
H457 C477 0.950 . S
H458 C479 0.950 . S
H459 C482 0.950 . S
H460 C483 0.950 . S
H461 C485 0.950 . S
H462 C486 0.950 . S
H463 C487 0.951 . S
H464 C489 0.951 . S
H465 C491 0.950 . S
H466 C492 0.950 . S
H467 C494 0.950 . S
H468 C497 0.950 . S
H469 C498 0.950 . S
H470 C500 0.950 . S
H471 C501 0.950 . S
C472 H454 0.951 . S
C472 C473 1.366 . S
C472 C474 1.388 . S
C473 C472 1.366 . S
C473 C477 1.385 . S
C474 H455 0.951 . S
C474 C472 1.388 . S
C474 C475 1.366 . S
C475 C474 1.366 . S
C475 C476 1.414 . S
C475 C478 1.499 . S
C476 H456 0.950 . S
C476 C475 1.414 . S
C476 C477 1.374 . S
C477 H457 0.950 . S
C477 C473 1.385 . S
C477 C476 1.374 . S
C478 C475 1.499 . S
C478 C479 1.373 . S
C478 C480 1.389 . S
C479 H458 0.950 . S
C479 C478 1.373 . S
C479 C495 1.377 . S
C480 C478 1.389 . S
C480 C481 1.524 . S
C480 C494 1.377 . S
C481 C480 1.524 . S
C481 C482 1.397 . S
C481 C486 1.363 . S
C482 H459 0.950 . S
C482 C481 1.397 . S
C482 C483 1.334 . S
C483 H460 0.950 . S
C483 C482 1.334 . S
C483 C484 1.287 . S
C484 C483 1.287 . S
C484 C485 1.524 . S
C484 H503 0.913 . S
C485 H461 0.950 . S
C485 C484 1.524 . S
C485 C486 1.415 . S
C486 H462 0.950 . S
C486 C481 1.363 . S
C486 C485 1.415 . S
C487 H463 0.951 . S
C487 C488 1.366 . S
C487 C489 1.388 . S
C488 C487 1.366 . S
C488 C492 1.385 . S
C489 H464 0.951 . S
C489 C487 1.388 . S
C489 C490 1.366 . S
C490 C489 1.366 . S
C490 C491 1.414 . S
C490 C493 1.499 . S
C491 H465 0.950 . S
C491 C490 1.414 . S
C491 C492 1.374 . S
C492 H466 0.950 . S
C492 C488 1.385 . S
C492 C491 1.374 . S
C493 C490 1.499 . S
C493 C494 1.373 . S
C493 C495 1.389 . S
C494 H467 0.950 . S
C494 C480 1.377 . S
C494 C493 1.373 . S
C495 C479 1.377 . S
C495 C493 1.389 . S
C495 C496 1.524 . S
C496 C495 1.524 . S
C496 C497 1.397 . S
C496 C501 1.363 . S
C497 H468 0.950 . S
C497 C496 1.397 . S
C497 C498 1.334 . S
C498 H469 0.950 . S
C498 C497 1.334 . S
C498 C499 1.287 . S
C499 C498 1.287 . S
C499 C500 1.524 . S
C499 H502 0.999 . S
C500 H470 0.950 . S
C500 C499 1.524 . S
C500 C501 1.415 . S
C501 H471 0.950 . S
C501 C496 1.363 . S
C501 C500 1.415 . S
H502 C499 0.999 . S
H503 C484 0.913 . S
H504 C522 0.951 . S
H505 C524 0.951 . S
H506 C526 0.950 . S
H507 C527 0.950 . S
H508 C529 0.950 . S
H509 C532 0.950 . S
H510 C533 0.950 . S
H511 C535 0.950 . S
H512 C536 0.950 . S
H513 C537 0.951 . S
H514 C539 0.951 . S
H515 C541 0.950 . S
H516 C542 0.950 . S
H517 C544 0.950 . S
H518 C547 0.950 . S
H519 C548 0.950 . S
H520 C550 0.950 . S
H521 C551 0.950 . S
C522 H504 0.951 . S
C522 C523 1.366 . S
C522 C524 1.388 . S
C523 C522 1.366 . S
C523 C527 1.385 . S
C524 H505 0.951 . S
C524 C522 1.388 . S
C524 C525 1.366 . S
C525 C524 1.366 . S
C525 C526 1.414 . S
C525 C528 1.499 . S
C526 H506 0.950 . S
C526 C525 1.414 . S
C526 C527 1.374 . S
C527 H507 0.950 . S
C527 C523 1.385 . S
C527 C526 1.374 . S
C528 C525 1.499 . S
C528 C529 1.373 . S
C528 C530 1.389 . S
C529 H508 0.950 . S
C529 C528 1.373 . S
C529 C545 1.377 . S
C530 C528 1.389 . S
C530 C531 1.524 . S
C530 C544 1.377 . S
C531 C530 1.524 . S
C531 C532 1.397 . S
C531 C536 1.363 . S
C532 H509 0.950 . S
C532 C531 1.397 . S
C532 C533 1.334 . S
C533 H510 0.950 . S
C533 C532 1.334 . S
C533 C534 1.287 . S
C534 C533 1.287 . S
C534 C535 1.524 . S
C534 H553 0.913 . S
C535 H511 0.950 . S
C535 C534 1.524 . S
C535 C536 1.415 . S
C536 H512 0.950 . S
C536 C531 1.363 . S
C536 C535 1.415 . S
C537 H513 0.951 . S
C537 C538 1.366 . S
C537 C539 1.388 . S
C538 C537 1.366 . S
C538 C542 1.385 . S
C539 H514 0.951 . S
C539 C537 1.388 . S
C539 C540 1.366 . S
C540 C539 1.366 . S
C540 C541 1.414 . S
C540 C543 1.499 . S
C541 H515 0.950 . S
C541 C540 1.414 . S
C541 C542 1.374 . S
C542 H516 0.950 . S
C542 C538 1.385 . S
C542 C541 1.374 . S
C543 C540 1.499 . S
C543 C544 1.373 . S
C543 C545 1.389 . S
C544 H517 0.950 . S
C544 C530 1.377 . S
C544 C543 1.373 . S
C545 C529 1.377 . S
C545 C543 1.389 . S
C545 C546 1.524 . S
C546 C545 1.524 . S
C546 C547 1.397 . S
C546 C551 1.363 . S
C547 H518 0.950 . S
C547 C546 1.397 . S
C547 C548 1.334 . S
C548 H519 0.950 . S
C548 C547 1.334 . S
C548 C549 1.287 . S
C549 C548 1.287 . S
C549 C550 1.524 . S
C549 H552 0.999 . S
C550 H520 0.950 . S
C550 C549 1.524 . S
C550 C551 1.415 . S
C551 H521 0.950 . S
C551 C546 1.363 . S
C551 C550 1.415 . S
H552 C549 0.999 . S
H553 C534 0.913 . S
H554 C572 0.951 . S
H555 C574 0.951 . S
H556 C576 0.950 . S
H557 C577 0.950 . S
H558 C579 0.950 . S
H559 C582 0.950 . S
H560 C583 0.950 . S
H561 C585 0.950 . S
H562 C586 0.950 . S
H563 C587 0.951 . S
H564 C589 0.951 . S
H565 C591 0.950 . S
H566 C592 0.950 . S
H567 C594 0.950 . S
H568 C597 0.950 . S
H569 C598 0.950 . S
H570 C600 0.950 . S
H571 C601 0.950 . S
C572 H554 0.951 . S
C572 C573 1.360 1_455 S
C572 C574 1.388 . S
C573 C572 1.360 1_655 S
C573 C577 1.390 . S
C574 H555 0.951 . S
C574 C572 1.388 . S
C574 C575 1.341 1_455 S
C575 C574 1.341 1_655 S
C575 C576 1.440 . S
C575 C578 1.500 . S
C576 H556 0.950 . S
C576 C575 1.440 . S
C576 C577 1.374 . S
C577 H557 0.950 . S
C577 C573 1.390 . S
C577 C576 1.374 . S
C578 C575 1.500 . S
C578 C579 1.373 . S
C578 C580 1.389 1_655 S
C579 H558 0.950 . S
C579 C578 1.373 . S
C579 C595 1.377 . S
C580 C578 1.389 1_455 S
C580 C581 1.524 . S
C580 C594 1.377 . S
C581 C580 1.524 . S
C581 C582 1.397 . S
C581 C586 1.363 . S
C582 H559 0.950 . S
C582 C581 1.397 . S
C582 C583 1.334 . S
C583 H560 0.950 . S
C583 C582 1.334 . S
C583 C584 1.287 . S
C584 C583 1.287 . S
C584 C585 1.524 . S
C584 H603 0.913 . S
C585 H561 0.950 . S
C585 C584 1.524 . S
C585 C586 1.415 . S
C586 H562 0.950 . S
C586 C581 1.363 . S
C586 C585 1.415 . S
C587 H563 0.951 . S
C587 C588 1.366 . S
C587 C589 1.388 . S
C588 C587 1.366 . S
C588 C592 1.385 1_655 S
C589 H564 0.951 . S
C589 C587 1.388 . S
C589 C590 1.366 . S
C590 C589 1.366 . S
C590 C591 1.414 1_655 S
C590 C593 1.499 . S
C591 H565 0.950 . S
C591 C590 1.414 1_455 S
C591 C592 1.374 . S
C592 H566 0.950 . S
C592 C588 1.385 1_455 S
C592 C591 1.374 . S
C593 C590 1.499 . S
C593 C594 1.373 1_655 S
C593 C595 1.389 . S
C594 H567 0.950 . S
C594 C580 1.377 . S
C594 C593 1.373 1_455 S
C595 C579 1.377 . S
C595 C593 1.389 . S
C595 C596 1.524 . S
C596 C595 1.524 . S
C596 C597 1.397 . S
C596 C601 1.363 . S
C597 H568 0.950 . S
C597 C596 1.397 . S
C597 C598 1.334 . S
C598 H569 0.950 . S
C598 C597 1.334 . S
C598 C599 1.287 . S
C599 C598 1.287 . S
C599 C600 1.524 . S
C599 H602 0.999 . S
C600 H570 0.950 . S
C600 C599 1.524 . S
C600 C601 1.415 . S
C601 H571 0.950 . S
C601 C596 1.363 . S
C601 C600 1.415 . S
H602 C599 0.999 . S
H603 C584 0.913 . S
H604 C622 0.951 . S
H605 C624 0.951 . S
H606 C626 0.948 1_554 S
H607 C627 0.950 . S
H608 C629 0.950 . S
H609 C632 0.950 . S
H610 C633 0.950 . S
H611 C635 0.950 . S
H612 C636 0.950 . S
H613 C637 0.951 . S
H614 C639 0.951 . S
H615 C641 0.950 . S
H616 C642 0.909 1_545 S
H617 C644 0.950 . S
H618 C647 0.950 . S
H619 C648 0.950 . S
H620 C650 0.950 . S
H621 C651 0.950 . S
C622 H604 0.951 . S
C622 C623 1.366 1_556 S
C622 C624 1.388 . S
C623 C622 1.366 1_554 S
C623 C627 1.385 . S
C624 H605 0.951 . S
C624 C622 1.388 . S
C624 C625 1.366 . S
C625 C624 1.366 . S
C625 C626 1.414 . S
C625 C628 1.499 . S
C626 H606 0.948 1_556 S
C626 C625 1.414 . S
C626 C627 1.374 1_556 S
C627 H607 0.950 . S
C627 C623 1.385 . S
C627 C626 1.374 1_554 S
C628 C625 1.499 . S
C628 C629 1.373 . S
C628 C630 1.389 . S
C629 H608 0.950 . S
C629 C628 1.373 . S
C629 C645 1.377 . S
C630 C628 1.389 . S
C630 C631 1.524 . S
C630 C644 1.377 . S
C631 C630 1.524 . S
C631 C632 1.397 . S
C631 C636 1.363 . S
C632 H609 0.950 . S
C632 C631 1.397 . S
C632 C633 1.334 . S
C633 H610 0.950 . S
C633 C632 1.334 . S
C633 C634 1.287 . S
C634 C633 1.287 . S
C634 C635 1.524 . S
C634 H653 0.913 . S
C635 H611 0.950 . S
C635 C634 1.524 . S
C635 C636 1.415 . S
C636 H612 0.950 . S
C636 C631 1.363 . S
C636 C635 1.415 . S
C637 H613 0.951 . S
C637 C638 1.366 . S
C637 C639 1.388 . S
C638 C637 1.366 . S
C638 C642 1.385 . S
C639 H614 0.951 . S
C639 C637 1.388 . S
C639 C640 1.366 . S
C640 C639 1.366 . S
C640 C641 1.414 . S
C640 C643 1.499 . S
C641 H615 0.950 . S
C641 C640 1.414 . S
C641 C642 1.374 . S
C642 H616 0.909 1_565 S
C642 C638 1.385 . S
C642 C641 1.374 . S
C643 C640 1.499 . S
C643 C644 1.373 . S
C643 C645 1.389 . S
C644 H617 0.950 . S
C644 C630 1.377 . S
C644 C643 1.373 . S
C645 C629 1.377 . S
C645 C643 1.389 . S
C645 C646 1.524 . S
C646 C645 1.524 . S
C646 C647 1.397 . S
C646 C651 1.363 . S
C647 H618 0.950 . S
C647 C646 1.397 . S
C647 C648 1.334 1_565 S
C648 H619 0.950 . S
C648 C647 1.334 1_545 S
C648 C649 1.287 1_546 S
C649 C648 1.287 1_564 S
C649 C650 1.524 . S
C649 H652 0.999 1_565 S
C650 H620 0.950 . S
C650 C649 1.524 . S
C650 C651 1.415 1_554 S
C651 H621 0.950 . S
C651 C646 1.363 . S
C651 C650 1.415 1_556 S
H652 C649 0.999 1_545 S
H653 C634 0.913 . S
H654 C672 0.951 . S
H655 C674 0.951 . S
H656 C676 0.950 . S
H657 C677 0.950 . S
H658 C679 0.950 . S
H659 C682 0.950 . S
H660 C683 0.950 . S
H661 C685 0.950 . S
H662 C686 0.950 . S
H663 C687 0.951 . S
H664 C689 0.951 . S
H665 C691 0.950 . S
H666 C692 0.950 . S
H667 C694 0.950 . S
H668 C697 0.950 . S
H669 C698 0.950 . S
H670 C700 0.950 1_554 S
H671 C701 0.950 . S
C672 H654 0.951 . S
C672 C673 1.366 1_556 S
C672 C674 1.388 . S
C673 C672 1.366 1_554 S
C673 C677 1.385 . S
C674 H655 0.951 . S
C674 C672 1.388 . S
C674 C675 1.366 . S
C675 C674 1.366 . S
C675 C676 1.414 1_556 S
C675 C678 1.499 . S
C676 H656 0.950 . S
C676 C675 1.414 1_554 S
C676 C677 1.374 . S
C677 H657 0.950 . S
C677 C673 1.385 . S
C677 C676 1.374 . S
C678 C675 1.499 . S
C678 C679 1.373 . S
C678 C680 1.389 . S
C679 H658 0.950 . S
C679 C678 1.373 . S
C679 C695 1.377 . S
C680 C678 1.389 . S
C680 C681 1.524 . S
C680 C694 1.377 . S
C681 C680 1.524 . S
C681 C682 1.397 . S
C681 C686 1.363 . S
C682 H659 0.950 . S
C682 C681 1.397 . S
C682 C683 1.334 . S
C683 H660 0.950 . S
C683 C682 1.334 . S
C683 C684 1.287 . S
C684 C683 1.287 . S
C684 C685 1.524 . S
C684 H703 0.913 . S
C685 H661 0.950 . S
C685 C684 1.524 . S
C685 C686 1.415 . S
C686 H662 0.950 . S
C686 C681 1.363 . S
C686 C685 1.415 . S
C687 H663 0.951 . S
C687 C688 1.366 . S
C687 C689 1.388 . S
C688 C687 1.366 . S
C688 C692 1.385 . S
C689 H664 0.951 . S
C689 C687 1.388 . S
C689 C690 1.366 . S
C690 C689 1.366 . S
C690 C691 1.414 . S
C690 C693 1.499 . S
C691 H665 0.950 . S
C691 C690 1.414 . S
C691 C692 1.374 . S
C692 H666 0.950 . S
C692 C688 1.385 . S
C692 C691 1.374 . S
C693 C690 1.499 . S
C693 C694 1.373 . S
C693 C695 1.389 . S
C694 H667 0.950 . S
C694 C680 1.377 . S
C694 C693 1.373 . S
C695 C679 1.377 . S
C695 C693 1.389 . S
C695 C696 1.524 . S
C696 C695 1.524 . S
C696 C697 1.397 . S
C696 C701 1.363 . S
C697 H668 0.950 . S
C697 C696 1.397 . S
C697 C698 1.334 . S
C698 H669 0.950 . S
C698 C697 1.334 . S
C698 C699 1.287 . S
C699 C698 1.287 . S
C699 C700 1.524 . S
C699 H702 0.999 . S
C700 H670 0.950 1_556 S
C700 C699 1.524 . S
C700 C701 1.415 . S
C701 H671 0.950 . S
C701 C696 1.363 . S
C701 C700 1.415 . S
H702 C699 0.999 . S
H703 C684 0.913 . S
H704 C722 0.951 . S
H705 C724 0.951 . S
H706 C726 0.950 . S
H707 C727 0.950 . S
H708 C729 0.950 . S
H709 C732 0.950 . S
H710 C733 0.950 . S
H711 C735 0.950 . S
H712 C736 0.950 . S
H713 C737 0.951 . S
H714 C739 0.951 . S
H715 C741 0.950 . S
H716 C742 0.950 . S
H717 C744 0.950 . S
H718 C747 0.950 . S
H719 C748 0.950 . S
H720 C750 0.950 . S
H721 C751 0.950 . S
C722 H704 0.951 . S
C722 C723 1.366 1_556 S
C722 C724 1.388 . S
C723 C722 1.366 1_554 S
C723 C727 1.385 . S
C724 H705 0.951 . S
C724 C722 1.388 . S
C724 C725 1.366 . S
C725 C724 1.366 . S
C725 C726 1.414 . S
C725 C728 1.499 . S
C726 H706 0.950 . S
C726 C725 1.414 . S
C726 C727 1.374 1_556 S
C727 H707 0.950 . S
C727 C723 1.385 . S
C727 C726 1.374 1_554 S
C728 C725 1.499 . S
C728 C729 1.373 . S
C728 C730 1.389 . S
C729 H708 0.950 . S
C729 C728 1.373 . S
C729 C745 1.377 . S
C730 C728 1.389 . S
C730 C731 1.524 . S
C730 C744 1.377 . S
C731 C730 1.524 . S
C731 C732 1.397 . S
C731 C736 1.363 . S
C732 H709 0.950 . S
C732 C731 1.397 . S
C732 C733 1.334 . S
C733 H710 0.950 . S
C733 C732 1.334 . S
C733 C734 1.287 . S
C734 C733 1.287 . S
C734 C735 1.524 . S
C734 H753 0.913 . S
C735 H711 0.950 . S
C735 C734 1.524 . S
C735 C736 1.415 . S
C736 H712 0.950 . S
C736 C731 1.363 . S
C736 C735 1.415 . S
C737 H713 0.951 . S
C737 C738 1.366 . S
C737 C739 1.388 . S
C738 C737 1.366 . S
C738 C742 1.385 . S
C739 H714 0.951 . S
C739 C737 1.388 . S
C739 C740 1.366 . S
C740 C739 1.366 . S
C740 C741 1.414 . S
C740 C743 1.499 . S
C741 H715 0.950 . S
C741 C740 1.414 . S
C741 C742 1.374 . S
C742 H716 0.950 . S
C742 C738 1.385 . S
C742 C741 1.374 . S
C743 C740 1.499 . S
C743 C744 1.373 . S
C743 C745 1.389 . S
C744 H717 0.950 . S
C744 C730 1.377 . S
C744 C743 1.373 . S
C745 C729 1.377 . S
C745 C743 1.389 . S
C745 C746 1.524 . S
C746 C745 1.524 . S
C746 C747 1.397 . S
C746 C751 1.363 . S
C747 H718 0.950 . S
C747 C746 1.397 . S
C747 C748 1.334 . S
C748 H719 0.950 . S
C748 C747 1.334 . S
C748 C749 1.296 . S
C749 C748 1.296 . S
C749 C750 1.523 1_556 S
C749 H752 0.991 1_556 S
C750 H720 0.950 . S
C750 C749 1.523 1_554 S
C750 C751 1.415 1_554 S
C751 H721 0.950 . S
C751 C746 1.363 . S
C751 C750 1.415 1_556 S
H752 C749 0.991 1_554 S
H753 C734 0.913 . S
H754 C772 0.951 . S
H755 C774 0.951 . S
H756 C776 0.950 . S
H757 C777 0.950 . S
H758 C779 0.950 . S
H759 C782 0.950 . S
H760 C783 0.950 . S
H761 C785 0.950 . S
H762 C786 0.950 . S
H763 C787 0.944 1_655 S
H764 C789 0.944 1_655 S
H765 C791 0.950 . S
H766 C792 0.950 . S
H767 C794 0.950 . S
H768 C797 0.950 . S
H769 C798 0.950 . S
H770 C800 0.950 1_554 S
H771 C801 0.935 1_554 S
C772 H754 0.951 . S
C772 C773 1.368 1_556 S
C772 C774 1.388 . S
C773 C772 1.368 1_554 S
C773 C777 1.382 1_455 S
C774 H755 0.951 . S
C774 C772 1.388 . S
C774 C775 1.367 . S
C775 C774 1.367 . S
C775 C776 1.413 1_456 S
C775 C778 1.499 . S
C776 H756 0.950 . S
C776 C775 1.413 1_654 S
C776 C777 1.374 . S
C777 H757 0.950 . S
C777 C773 1.382 1_655 S
C777 C776 1.374 . S
C778 C775 1.499 . S
C778 C779 1.390 . S
C778 C780 1.375 1_455 S
C779 H758 0.950 . S
C779 C778 1.390 . S
C779 C795 1.377 . S
C780 C778 1.375 1_655 S
C780 C781 1.524 . S
C780 C794 1.377 . S
C781 C780 1.524 . S
C781 C782 1.397 . S
C781 C786 1.363 . S
C782 H759 0.950 . S
C782 C781 1.397 . S
C782 C783 1.334 . S
C783 H760 0.950 . S
C783 C782 1.334 . S
C783 C784 1.287 . S
C784 C783 1.287 . S
C784 C785 1.524 . S
C784 H803 0.913 . S
C785 H761 0.950 . S
C785 C784 1.524 . S
C785 C786 1.415 . S
C786 H762 0.950 . S
C786 C781 1.363 . S
C786 C785 1.415 . S
C787 H763 0.944 1_455 S
C787 C788 1.373 . S
C787 C789 1.388 . S
C788 C787 1.373 . S
C788 C792 1.385 . S
C789 H764 0.944 1_455 S
C789 C787 1.388 . S
C789 C790 1.374 . S
C790 C789 1.374 . S
C790 C791 1.414 . S
C790 C793 1.499 . S
C791 H765 0.950 . S
C791 C790 1.414 . S
C791 C792 1.374 . S
C792 H766 0.950 . S
C792 C788 1.385 . S
C792 C791 1.374 . S
C793 C790 1.499 . S
C793 C794 1.373 1_455 S
C793 C795 1.389 . S
C794 H767 0.950 . S
C794 C780 1.377 . S
C794 C793 1.373 1_655 S
C795 C779 1.377 . S
C795 C793 1.389 . S
C795 C796 1.524 . S
C796 C795 1.524 . S
C796 C797 1.397 . S
C796 C801 1.363 . S
C797 H768 0.950 . S
C797 C796 1.397 . S
C797 C798 1.334 . S
C798 H769 0.950 . S
C798 C797 1.334 . S
C798 C799 1.287 . S
C799 C798 1.287 . S
C799 C800 1.524 . S
C799 H802 0.999 . S
C800 H770 0.950 1_556 S
C800 C799 1.524 . S
C800 C801 1.415 . S
C801 H771 0.935 1_556 S
C801 C796 1.363 . S
C801 C800 1.415 . S
H802 C799 0.999 . S
H803 C784 0.913 . S
H804 C822 0.951 . S
H805 C824 0.951 . S
H806 C826 0.950 . S
H807 C827 0.950 . S
H808 C829 0.950 . S
H809 C832 0.950 . S
H810 C833 0.950 . S
H811 C835 0.950 . S
H812 C836 0.950 . S
H813 C837 0.951 . S
H814 C839 0.951 . S
H815 C841 0.950 . S
H816 C842 0.950 . S
H817 C844 0.950 . S
H818 C847 0.950 . S
H819 C848 0.950 . S
H820 C850 0.950 . S
H821 C851 0.950 . S
C822 H804 0.951 . S
C822 C823 1.366 1_655 S
C822 C824 1.388 . S
C823 C822 1.366 1_455 S
C823 C827 1.385 . S
C824 H805 0.951 . S
C824 C822 1.388 . S
C824 C825 1.366 . S
C825 C824 1.366 . S
C825 C826 1.414 1_655 S
C825 C828 1.499 . S
C826 H806 0.950 . S
C826 C825 1.414 1_455 S
C826 C827 1.374 . S
C827 H807 0.950 . S
C827 C823 1.385 . S
C827 C826 1.374 . S
C828 C825 1.499 . S
C828 C829 1.373 1_655 S
C828 C830 1.389 . S
C829 H808 0.950 . S
C829 C828 1.373 1_455 S
C829 C845 1.377 . S
C830 C828 1.389 . S
C830 C831 1.524 . S
C830 C844 1.377 . S
C831 C830 1.524 . S
C831 C832 1.397 . S
C831 C836 1.363 . S
C832 H809 0.950 . S
C832 C831 1.397 . S
C832 C833 1.334 . S
C833 H810 0.950 . S
C833 C832 1.334 . S
C833 C834 1.287 . S
C834 C833 1.287 . S
C834 C835 1.524 . S
C834 H853 0.913 . S
C835 H811 0.950 . S
C835 C834 1.524 . S
C835 C836 1.415 . S
C836 H812 0.950 . S
C836 C831 1.363 . S
C836 C835 1.415 . S
C837 H813 0.951 . S
C837 C838 1.366 1_455 S
C837 C839 1.388 . S
C838 C837 1.366 1_655 S
C838 C842 1.385 . S
C839 H814 0.951 . S
C839 C837 1.388 . S
C839 C840 1.366 1_455 S
C840 C839 1.366 1_655 S
C840 C841 1.414 . S
C840 C843 1.499 . S
C841 H815 0.950 . S
C841 C840 1.414 . S
C841 C842 1.374 . S
C842 H816 0.950 . S
C842 C838 1.385 . S
C842 C841 1.374 . S
C843 C840 1.499 . S
C843 C844 1.373 . S
C843 C845 1.389 1_655 S
C844 H817 0.950 . S
C844 C830 1.377 . S
C844 C843 1.373 . S
C845 C829 1.377 . S
C845 C843 1.389 1_455 S
C845 C846 1.524 . S
C846 C845 1.524 . S
C846 C847 1.397 . S
C846 C851 1.363 . S
C847 H818 0.950 . S
C847 C846 1.397 . S
C847 C848 1.334 . S
C848 H819 0.950 . S
C848 C847 1.334 . S
C848 C849 1.287 . S
C849 C848 1.287 . S
C849 C850 1.524 . S
C849 H852 0.999 . S
C850 H820 0.950 . S
C850 C849 1.524 . S
C850 C851 1.415 . S
C851 H821 0.950 . S
C851 C846 1.363 . S
C851 C850 1.415 . S
H852 C849 0.999 . S
H853 C834 0.913 . S
H854 C872 0.951 . S
H855 C874 0.951 . S
H856 C876 0.950 . S
H857 C877 0.950 . S
H858 C879 0.950 . S
H859 C882 0.950 . S
H860 C883 0.950 . S
H861 C885 0.950 . S
H862 C886 0.950 . S
H863 C887 0.951 . S
H864 C889 0.951 . S
H865 C891 0.950 . S
H866 C892 0.950 1_565 S
H867 C894 0.950 . S
H868 C897 0.950 . S
H869 C898 0.950 . S
H870 C900 0.950 . S
H871 C901 0.950 . S
C872 H854 0.951 . S
C872 C873 1.366 . S
C872 C874 1.388 . S
C873 C872 1.366 . S
C873 C877 1.385 . S
C874 H855 0.951 . S
C874 C872 1.388 . S
C874 C875 1.366 . S
C875 C874 1.366 . S
C875 C876 1.414 . S
C875 C878 1.499 . S
C876 H856 0.950 . S
C876 C875 1.414 . S
C876 C877 1.374 . S
C877 H857 0.950 . S
C877 C873 1.385 . S
C877 C876 1.374 . S
C878 C875 1.499 . S
C878 C879 1.373 . S
C878 C880 1.389 . S
C879 H858 0.950 . S
C879 C878 1.373 . S
C879 C895 1.377 . S
C880 C878 1.389 . S
C880 C881 1.524 . S
C880 C894 1.377 . S
C881 C880 1.524 . S
C881 C882 1.397 . S
C881 C886 1.363 . S
C882 H859 0.950 . S
C882 C881 1.397 . S
C882 C883 1.334 . S
C883 H860 0.950 . S
C883 C882 1.334 . S
C883 C884 1.287 . S
C884 C883 1.287 . S
C884 C885 1.524 . S
C884 H903 0.913 . S
C885 H861 0.950 . S
C885 C884 1.524 . S
C885 C886 1.415 . S
C886 H862 0.950 . S
C886 C881 1.363 . S
C886 C885 1.415 . S
C887 H863 0.951 . S
C887 C888 1.366 . S
C887 C889 1.388 . S
C888 C887 1.366 . S
C888 C892 1.385 . S
C889 H864 0.951 . S
C889 C887 1.388 . S
C889 C890 1.366 . S
C890 C889 1.366 . S
C890 C891 1.414 . S
C890 C893 1.499 . S
C891 H865 0.950 . S
C891 C890 1.414 . S
C891 C892 1.374 . S
C892 H866 0.950 1_545 S
C892 C888 1.385 . S
C892 C891 1.374 . S
C893 C890 1.499 . S
C893 C894 1.373 . S
C893 C895 1.389 . S
C894 H867 0.950 . S
C894 C880 1.377 . S
C894 C893 1.373 . S
C895 C879 1.377 . S
C895 C893 1.389 . S
C895 C896 1.524 . S
C896 C895 1.524 . S
C896 C897 1.397 . S
C896 C901 1.363 . S
C897 H868 0.950 . S
C897 C896 1.397 . S
C897 C898 1.334 . S
C898 H869 0.950 . S
C898 C897 1.334 . S
C898 C899 1.287 . S
C899 C898 1.287 . S
C899 C900 1.524 . S
C899 H902 0.999 . S
C900 H870 0.950 . S
C900 C899 1.524 . S
C900 C901 1.415 . S
C901 H871 0.950 . S
C901 C896 1.363 . S
C901 C900 1.415 . S
H902 C899 0.999 . S
H903 C884 0.913 . S
H904 C922 0.951 . S
H905 C924 0.951 . S
H906 C926 0.950 . S
H907 C927 0.950 . S
H908 C929 0.950 . S
H909 C932 0.950 . S
H910 C933 0.950 . S
H911 C935 0.950 . S
H912 C936 0.950 . S
H913 C937 0.951 . S
H914 C939 0.951 . S
H915 C941 0.950 . S
H916 C942 0.950 . S
H917 C944 0.950 . S
H918 C947 0.950 . S
H919 C948 0.950 . S
H920 C950 0.950 . S
H921 C951 0.950 . S
C922 H904 0.951 . S
C922 C923 1.366 . S
C922 C924 1.388 . S
C923 C922 1.366 . S
C923 C927 1.385 . S
C924 H905 0.951 . S
C924 C922 1.388 . S
C924 C925 1.366 . S
C925 C924 1.366 . S
C925 C926 1.414 . S
C925 C928 1.499 . S
C926 H906 0.950 . S
C926 C925 1.414 . S
C926 C927 1.374 . S
C927 H907 0.950 . S
C927 C923 1.385 . S
C927 C926 1.374 . S
C928 C925 1.499 . S
C928 C929 1.373 . S
C928 C930 1.389 . S
C929 H908 0.950 . S
C929 C928 1.373 . S
C929 C945 1.377 . S
C930 C928 1.389 . S
C930 C931 1.524 . S
C930 C944 1.377 . S
C931 C930 1.524 . S
C931 C932 1.397 . S
C931 C936 1.363 . S
C932 H909 0.950 . S
C932 C931 1.397 . S
C932 C933 1.334 . S
C933 H910 0.950 . S
C933 C932 1.334 . S
C933 C934 1.287 . S
C934 C933 1.287 . S
C934 C935 1.524 . S
C934 H953 0.913 . S
C935 H911 0.950 . S
C935 C934 1.524 . S
C935 C936 1.415 . S
C936 H912 0.950 . S
C936 C931 1.363 . S
C936 C935 1.415 . S
C937 H913 0.951 . S
C937 C938 1.366 . S
C937 C939 1.388 . S
C938 C937 1.366 . S
C938 C942 1.385 . S
C939 H914 0.951 . S
C939 C937 1.388 . S
C939 C940 1.366 . S
C940 C939 1.366 . S
C940 C941 1.414 . S
C940 C943 1.499 . S
C941 H915 0.950 . S
C941 C940 1.414 . S
C941 C942 1.374 . S
C942 H916 0.950 . S
C942 C938 1.385 . S
C942 C941 1.374 . S
C943 C940 1.499 . S
C943 C944 1.373 . S
C943 C945 1.389 . S
C944 H917 0.950 . S
C944 C930 1.377 . S
C944 C943 1.373 . S
C945 C929 1.377 . S
C945 C943 1.389 . S
C945 C946 1.524 . S
C946 C945 1.524 . S
C946 C947 1.397 . S
C946 C951 1.363 . S
C947 H918 0.950 . S
C947 C946 1.397 . S
C947 C948 1.334 . S
C948 H919 0.950 . S
C948 C947 1.334 . S
C948 C949 1.287 . S
C949 C948 1.287 . S
C949 C950 1.524 . S
C949 H952 0.999 . S
C950 H920 0.950 . S
C950 C949 1.524 . S
C950 C951 1.415 . S
C951 H921 0.950 . S
C951 C946 1.363 . S
C951 C950 1.415 . S
H952 C949 0.999 . S
H953 C934 0.913 . S
H954 C972 0.951 . S
H955 C974 0.951 . S
H956 C976 0.950 . S
H957 C977 0.950 . S
H958 C979 0.950 . S
H959 C982 0.950 . S
H960 C983 0.950 . S
H961 C985 0.950 . S
H962 C986 0.950 . S
H963 C987 0.951 . S
H964 C989 0.951 . S
H965 C991 0.950 . S
H966 C992 0.950 . S
H967 C994 0.950 . S
H968 C997 0.950 . S
H969 C998 0.950 . S
H970 C1000 0.950 . S
H971 C1001 0.950 . S
C972 H954 0.951 . S
C972 C973 1.366 . S
C972 C974 1.388 . S
C973 C972 1.366 . S
C973 C977 1.385 . S
C974 H955 0.951 . S
C974 C972 1.388 . S
C974 C975 1.366 . S
C975 C974 1.366 . S
C975 C976 1.414 . S
C975 C978 1.499 . S
C976 H956 0.950 . S
C976 C975 1.414 . S
C976 C977 1.374 . S
C977 H957 0.950 . S
C977 C973 1.385 . S
C977 C976 1.374 . S
C978 C975 1.499 . S
C978 C979 1.373 . S
C978 C980 1.389 . S
C979 H958 0.950 . S
C979 C978 1.373 . S
C979 C995 1.377 . S
C980 C978 1.389 . S
C980 C981 1.524 . S
C980 C994 1.377 . S
C981 C980 1.524 . S
C981 C982 1.397 . S
C981 C986 1.363 . S
C982 H959 0.950 . S
C982 C981 1.397 . S
C982 C983 1.334 . S
C983 H960 0.950 . S
C983 C982 1.334 . S
C983 C984 1.287 . S
C984 C983 1.287 . S
C984 C985 1.524 . S
C984 H1003 0.913 . S
C985 H961 0.950 . S
C985 C984 1.524 . S
C985 C986 1.415 . S
C986 H962 0.950 . S
C986 C981 1.363 . S
C986 C985 1.415 . S
C987 H963 0.951 . S
C987 C988 1.366 . S
C987 C989 1.388 . S
C988 C987 1.366 . S
C988 C992 1.385 . S
C989 H964 0.951 . S
C989 C987 1.388 . S
C989 C990 1.366 . S
C990 C989 1.366 . S
C990 C991 1.414 . S
C990 C993 1.499 . S
C991 H965 0.950 . S
C991 C990 1.414 . S
C991 C992 1.374 . S
C992 H966 0.950 . S
C992 C988 1.385 . S
C992 C991 1.374 . S
C993 C990 1.499 . S
C993 C994 1.373 . S
C993 C995 1.389 . S
C994 H967 0.950 . S
C994 C980 1.377 . S
C994 C993 1.373 . S
C995 C979 1.377 . S
C995 C993 1.389 . S
C995 C996 1.524 . S
C996 C995 1.524 . S
C996 C997 1.397 . S
C996 C1001 1.363 . S
C997 H968 0.950 . S
C997 C996 1.397 . S
C997 C998 1.334 . S
C998 H969 0.950 . S
C998 C997 1.334 . S
C998 C999 1.287 . S
C999 C998 1.287 . S
C999 C1000 1.524 . S
C999 H1002 0.999 . S
C1000 H970 0.950 . S
C1000 C999 1.524 . S
C1000 C1001 1.415 . S
C1001 H971 0.950 . S
C1001 C996 1.363 . S
C1001 C1000 1.415 . S
H1002 C999 0.999 . S
H1003 C984 0.913 . S
H1004 C1022 0.951 . S
H1005 C1024 0.951 . S
H1006 C1026 0.950 . S
H1007 C1027 0.950 . S
H1008 C1029 0.950 . S
H1009 C1032 0.950 . S
H1010 C1033 0.950 . S
H1011 C1035 0.950 . S
H1012 C1036 0.950 . S
H1013 C1037 0.950 1_655 S
H1014 C1039 0.951 . S
H1015 C1041 0.950 . S
H1016 C1042 0.950 . S
H1017 C1044 0.950 . S
H1018 C1047 0.950 . S
H1019 C1048 0.950 . S
H1020 C1050 0.950 . S
H1021 C1051 0.950 . S
C1022 H1004 0.951 . S
C1022 C1023 1.366 1_455 S
C1022 C1024 1.388 . S
C1023 C1022 1.366 1_655 S
C1023 C1027 1.385 . S
C1024 H1005 0.951 . S
C1024 C1022 1.388 . S
C1024 C1025 1.366 . S
C1025 C1024 1.366 . S
C1025 C1026 1.414 1_455 S
C1025 C1028 1.499 . S
C1026 H1006 0.950 . S
C1026 C1025 1.414 1_655 S
C1026 C1027 1.374 . S
C1027 H1007 0.950 . S
C1027 C1023 1.385 . S
C1027 C1026 1.374 . S
C1028 C1025 1.499 . S
C1028 C1029 1.373 1_455 S
C1028 C1030 1.389 . S
C1029 H1008 0.950 . S
C1029 C1028 1.373 1_655 S
C1029 C1045 1.377 . S
C1030 C1028 1.389 . S
C1030 C1031 1.524 . S
C1030 C1044 1.377 . S
C1031 C1030 1.524 . S
C1031 C1032 1.397 . S
C1031 C1036 1.363 . S
C1032 H1009 0.950 . S
C1032 C1031 1.397 . S
C1032 C1033 1.334 . S
C1033 H1010 0.950 . S
C1033 C1032 1.334 . S
C1033 C1034 1.287 . S
C1034 C1033 1.287 . S
C1034 C1035 1.524 . S
C1034 H1053 0.913 . S
C1035 H1011 0.950 . S
C1035 C1034 1.524 . S
C1035 C1036 1.415 . S
C1036 H1012 0.950 . S
C1036 C1031 1.363 . S
C1036 C1035 1.415 . S
C1037 H1013 0.950 1_455 S
C1037 C1038 1.367 . S
C1037 C1039 1.388 1_455 S
C1038 C1037 1.367 . S
C1038 C1042 1.385 . S
C1039 H1014 0.951 . S
C1039 C1037 1.388 1_655 S
C1039 C1040 1.366 1_655 S
C1040 C1039 1.366 1_455 S
C1040 C1041 1.414 . S
C1040 C1043 1.499 . S
C1041 H1015 0.950 . S
C1041 C1040 1.414 . S
C1041 C1042 1.374 . S
C1042 H1016 0.950 . S
C1042 C1038 1.385 . S
C1042 C1041 1.374 . S
C1043 C1040 1.499 . S
C1043 C1044 1.373 . S
C1043 C1045 1.389 1_455 S
C1044 H1017 0.950 . S
C1044 C1030 1.377 . S
C1044 C1043 1.373 . S
C1045 C1029 1.377 . S
C1045 C1043 1.389 1_655 S
C1045 C1046 1.524 . S
C1046 C1045 1.524 . S
C1046 C1047 1.397 . S
C1046 C1051 1.363 . S
C1047 H1018 0.950 . S
C1047 C1046 1.397 . S
C1047 C1048 1.334 . S
C1048 H1019 0.950 . S
C1048 C1047 1.334 . S
C1048 C1049 1.287 . S
C1049 C1048 1.287 . S
C1049 C1050 1.524 . S
C1049 H1052 0.999 . S
C1050 H1020 0.950 . S
C1050 C1049 1.524 . S
C1050 C1051 1.415 . S
C1051 H1021 0.950 . S
C1051 C1046 1.363 . S
C1051 C1050 1.415 . S
H1052 C1049 0.999 . S
H1053 C1034 0.913 . S
H1054 C1072 0.951 . S
H1055 C1074 0.951 . S
H1056 C1076 0.950 . S
H1057 C1077 0.950 . S
H1058 C1079 0.950 . S
H1059 C1082 0.950 . S
H1060 C1083 0.950 . S
H1061 C1085 0.950 1_545 S
H1062 C1086 0.950 . S
H1063 C1087 0.951 . S
H1064 C1089 0.951 . S
H1065 C1091 0.950 . S
H1066 C1092 0.950 . S
H1067 C1094 0.950 . S
H1068 C1097 0.950 . S
H1069 C1098 0.950 . S
H1070 C1100 0.950 . S
H1071 C1101 0.950 . S
C1072 H1054 0.951 . S
C1072 C1073 1.366 . S
C1072 C1074 1.388 . S
C1073 C1072 1.366 . S
C1073 C1077 1.385 . S
C1074 H1055 0.951 . S
C1074 C1072 1.388 . S
C1074 C1075 1.366 . S
C1075 C1074 1.366 . S
C1075 C1076 1.414 . S
C1075 C1078 1.499 . S
C1076 H1056 0.950 . S
C1076 C1075 1.414 . S
C1076 C1077 1.374 . S
C1077 H1057 0.950 . S
C1077 C1073 1.385 . S
C1077 C1076 1.374 . S
C1078 C1075 1.499 . S
C1078 C1079 1.373 . S
C1078 C1080 1.389 . S
C1079 H1058 0.950 . S
C1079 C1078 1.373 . S
C1079 C1095 1.377 . S
C1080 C1078 1.389 . S
C1080 C1081 1.524 . S
C1080 C1094 1.377 . S
C1081 C1080 1.524 . S
C1081 C1082 1.397 . S
C1081 C1086 1.363 . S
C1082 H1059 0.950 . S
C1082 C1081 1.397 . S
C1082 C1083 1.334 . S
C1083 H1060 0.950 . S
C1083 C1082 1.334 . S
C1083 C1084 1.287 . S
C1084 C1083 1.287 . S
C1084 C1085 1.524 . S
C1084 H1103 0.913 . S
C1085 H1061 0.950 1_565 S
C1085 C1084 1.524 . S
C1085 C1086 1.415 . S
C1086 H1062 0.950 . S
C1086 C1081 1.363 . S
C1086 C1085 1.415 . S
C1087 H1063 0.951 . S
C1087 C1088 1.366 1_565 S
C1087 C1089 1.388 . S
C1088 C1087 1.366 1_545 S
C1088 C1092 1.385 . S
C1089 H1064 0.951 . S
C1089 C1087 1.388 . S
C1089 C1090 1.366 . S
C1090 C1089 1.366 . S
C1090 C1091 1.414 . S
C1090 C1093 1.499 . S
C1091 H1065 0.950 . S
C1091 C1090 1.414 . S
C1091 C1092 1.374 1_565 S
C1092 H1066 0.950 . S
C1092 C1088 1.385 . S
C1092 C1091 1.374 1_545 S
C1093 C1090 1.499 . S
C1093 C1094 1.373 . S
C1093 C1095 1.389 . S
C1094 H1067 0.950 . S
C1094 C1080 1.377 . S
C1094 C1093 1.373 . S
C1095 C1079 1.377 . S
C1095 C1093 1.389 . S
C1095 C1096 1.524 . S
C1096 C1095 1.524 . S
C1096 C1097 1.397 . S
C1096 C1101 1.363 . S
C1097 H1068 0.950 . S
C1097 C1096 1.397 . S
C1097 C1098 1.334 . S
C1098 H1069 0.950 . S
C1098 C1097 1.334 . S
C1098 C1099 1.287 . S
C1099 C1098 1.287 . S
C1099 C1100 1.524 . S
C1099 H1102 0.999 . S
C1100 H1070 0.950 . S
C1100 C1099 1.524 . S
C1100 C1101 1.415 . S
C1101 H1071 0.950 . S
C1101 C1096 1.363 . S
C1101 C1100 1.415 . S
H1102 C1099 0.999 . S
H1103 C1084 0.913 . S
H1104 C1122 0.951 . S
H1105 C1124 0.951 . S
H1106 C1126 0.950 . S
H1107 C1127 0.950 . S
H1108 C1129 0.950 . S
H1109 C1132 0.950 . S
H1110 C1133 0.950 . S
H1111 C1135 0.950 . S
H1112 C1136 0.950 . S
H1113 C1137 0.951 . S
H1114 C1139 0.951 . S
H1115 C1141 0.950 . S
H1116 C1142 0.950 . S
H1117 C1144 0.950 . S
H1118 C1147 0.950 . S
H1119 C1148 0.950 . S
H1120 C1150 0.950 . S
H1121 C1151 0.950 . S
C1122 H1104 0.951 . S
C1122 C1123 1.366 . S
C1122 C1124 1.388 . S
C1123 C1122 1.366 . S
C1123 C1127 1.385 . S
C1124 H1105 0.951 . S
C1124 C1122 1.388 . S
C1124 C1125 1.366 . S
C1125 C1124 1.366 . S
C1125 C1126 1.414 . S
C1125 C1128 1.499 . S
C1126 H1106 0.950 . S
C1126 C1125 1.414 . S
C1126 C1127 1.374 . S
C1127 H1107 0.950 . S
C1127 C1123 1.385 . S
C1127 C1126 1.374 . S
C1128 C1125 1.499 . S
C1128 C1129 1.373 . S
C1128 C1130 1.389 . S
C1129 H1108 0.950 . S
C1129 C1128 1.373 . S
C1129 C1145 1.377 . S
C1130 C1128 1.389 . S
C1130 C1131 1.524 . S
C1130 C1144 1.377 . S
C1131 C1130 1.524 . S
C1131 C1132 1.397 . S
C1131 C1136 1.363 . S
C1132 H1109 0.950 . S
C1132 C1131 1.397 . S
C1132 C1133 1.334 1_556 S
C1133 H1110 0.950 . S
C1133 C1132 1.334 1_554 S
C1133 C1134 1.287 . S
C1134 C1133 1.287 . S
C1134 C1135 1.524 . S
C1134 H1153 0.913 . S
C1135 H1111 0.950 . S
C1135 C1134 1.524 . S
C1135 C1136 1.415 1_554 S
C1136 H1112 0.950 . S
C1136 C1131 1.363 . S
C1136 C1135 1.415 1_556 S
C1137 H1113 0.951 . S
C1137 C1138 1.366 . S
C1137 C1139 1.388 . S
C1138 C1137 1.366 . S
C1138 C1142 1.385 . S
C1139 H1114 0.951 . S
C1139 C1137 1.388 . S
C1139 C1140 1.366 . S
C1140 C1139 1.366 . S
C1140 C1141 1.414 . S
C1140 C1143 1.499 . S
C1141 H1115 0.950 . S
C1141 C1140 1.414 . S
C1141 C1142 1.374 . S
C1142 H1116 0.950 . S
C1142 C1138 1.385 . S
C1142 C1141 1.374 . S
C1143 C1140 1.499 . S
C1143 C1144 1.373 . S
C1143 C1145 1.389 . S
C1144 H1117 0.950 . S
C1144 C1130 1.377 . S
C1144 C1143 1.373 . S
C1145 C1129 1.377 . S
C1145 C1143 1.389 . S
C1145 C1146 1.524 . S
C1146 C1145 1.524 . S
C1146 C1147 1.397 . S
C1146 C1151 1.363 . S
C1147 H1118 0.950 . S
C1147 C1146 1.397 . S
C1147 C1148 1.334 . S
C1148 H1119 0.950 . S
C1148 C1147 1.334 . S
C1148 C1149 1.287 . S
C1149 C1148 1.287 . S
C1149 C1150 1.524 . S
C1149 H1152 0.999 . S
C1150 H1120 0.950 . S
C1150 C1149 1.524 . S
C1150 C1151 1.415 . S
C1151 H1121 0.950 . S
C1151 C1146 1.363 . S
C1151 C1150 1.415 . S
H1152 C1149 0.999 . S
H1153 C1134 0.913 . S
H1154 C1172 0.951 . S
H1155 C1174 0.951 . S
H1156 C1176 0.950 . S
H1157 C1177 0.950 . S
H1158 C1179 0.950 . S
H1159 C1182 0.950 . S
H1160 C1183 0.950 . S
H1161 C1185 0.950 . S
H1162 C1186 0.950 . S
H1163 C1187 0.951 . S
H1164 C1189 0.951 . S
H1165 C1191 0.950 . S
H1166 C1192 0.950 . S
H1167 C1194 0.950 . S
H1168 C1197 0.950 . S
H1169 C1198 0.950 . S
H1170 C1200 0.950 . S
H1171 C1201 0.950 . S
C1172 H1154 0.951 . S
C1172 C1173 1.366 . S
C1172 C1174 1.388 . S
C1173 C1172 1.366 . S
C1173 C1177 1.385 . S
C1174 H1155 0.951 . S
C1174 C1172 1.388 . S
C1174 C1175 1.366 . S
C1175 C1174 1.366 . S
C1175 C1176 1.414 . S
C1175 C1178 1.499 . S
C1176 H1156 0.950 . S
C1176 C1175 1.414 . S
C1176 C1177 1.374 . S
C1177 H1157 0.950 . S
C1177 C1173 1.385 . S
C1177 C1176 1.374 . S
C1178 C1175 1.499 . S
C1178 C1179 1.373 . S
C1178 C1180 1.389 . S
C1179 H1158 0.950 . S
C1179 C1178 1.373 . S
C1179 C1195 1.377 . S
C1180 C1178 1.389 . S
C1180 C1181 1.524 . S
C1180 C1194 1.377 . S
C1181 C1180 1.524 . S
C1181 C1182 1.397 . S
C1181 C1186 1.363 . S
C1182 H1159 0.950 . S
C1182 C1181 1.397 . S
C1182 C1183 1.334 . S
C1183 H1160 0.950 . S
C1183 C1182 1.334 . S
C1183 C1184 1.287 . S
C1184 C1183 1.287 . S
C1184 C1185 1.524 . S
C1184 H1203 0.913 . S
C1185 H1161 0.950 . S
C1185 C1184 1.524 . S
C1185 C1186 1.415 . S
C1186 H1162 0.950 . S
C1186 C1181 1.363 . S
C1186 C1185 1.415 . S
C1187 H1163 0.951 . S
C1187 C1188 1.366 . S
C1187 C1189 1.388 . S
C1188 C1187 1.366 . S
C1188 C1192 1.385 . S
C1189 H1164 0.951 . S
C1189 C1187 1.388 . S
C1189 C1190 1.366 . S
C1190 C1189 1.366 . S
C1190 C1191 1.414 . S
C1190 C1193 1.499 . S
C1191 H1165 0.950 . S
C1191 C1190 1.414 . S
C1191 C1192 1.374 . S
C1192 H1166 0.950 . S
C1192 C1188 1.385 . S
C1192 C1191 1.374 . S
C1193 C1190 1.499 . S
C1193 C1194 1.373 . S
C1193 C1195 1.389 . S
C1194 H1167 0.950 . S
C1194 C1180 1.377 . S
C1194 C1193 1.373 . S
C1195 C1179 1.377 . S
C1195 C1193 1.389 . S
C1195 C1196 1.524 . S
C1196 C1195 1.524 . S
C1196 C1197 1.397 . S
C1196 C1201 1.363 . S
C1197 H1168 0.950 . S
C1197 C1196 1.397 . S
C1197 C1198 1.334 . S
C1198 H1169 0.950 . S
C1198 C1197 1.334 . S
C1198 C1199 1.287 . S
C1199 C1198 1.287 . S
C1199 C1200 1.524 . S
C1199 H1202 0.999 . S
C1200 H1170 0.950 . S
C1200 C1199 1.524 . S
C1200 C1201 1.415 . S
C1201 H1171 0.950 . S
C1201 C1196 1.363 . S
C1201 C1200 1.415 . S
H1202 C1199 0.999 . S
H1203 C1184 0.913 . S
H1204 C1222 0.951 . S
H1205 C1224 0.950 1_655 S
H1206 C1226 0.950 . S
H1207 C1227 0.950 . S
H1208 C1229 0.950 . S
H1209 C1232 0.950 . S
H1210 C1233 0.950 . S
H1211 C1235 0.950 . S
H1212 C1236 0.950 . S
H1213 C1237 0.951 . S
H1214 C1239 0.951 . S
H1215 C1241 0.950 . S
H1216 C1242 0.950 . S
H1217 C1244 0.950 . S
H1218 C1247 0.950 . S
H1219 C1248 0.950 . S
H1220 C1250 0.950 . S
H1221 C1251 0.953 . S
C1222 H1204 0.951 . S
C1222 C1223 1.364 1_656 S
C1222 C1224 1.388 1_655 S
C1223 C1222 1.364 1_454 S
C1223 C1227 1.387 . S
C1224 H1205 0.950 1_455 S
C1224 C1222 1.388 1_455 S
C1224 C1225 1.366 . S
C1225 C1224 1.366 . S
C1225 C1226 1.414 1_556 S
C1225 C1228 1.499 . S
C1226 H1206 0.950 . S
C1226 C1225 1.414 1_554 S
C1226 C1227 1.374 . S
C1227 H1207 0.950 . S
C1227 C1223 1.387 . S
C1227 C1226 1.374 . S
C1228 C1225 1.499 . S
C1228 C1229 1.373 . S
C1228 C1230 1.389 1_455 S
C1229 H1208 0.950 . S
C1229 C1228 1.373 . S
C1229 C1245 1.377 . S
C1230 C1228 1.389 1_655 S
C1230 C1231 1.524 . S
C1230 C1244 1.377 . S
C1231 C1230 1.524 . S
C1231 C1232 1.397 . S
C1231 C1236 1.363 . S
C1232 H1209 0.950 . S
C1232 C1231 1.397 . S
C1232 C1233 1.334 . S
C1233 H1210 0.950 . S
C1233 C1232 1.334 . S
C1233 C1234 1.287 . S
C1234 C1233 1.287 . S
C1234 C1235 1.524 . S
C1234 H1253 0.913 . S
C1235 H1211 0.950 . S
C1235 C1234 1.524 . S
C1235 C1236 1.415 . S
C1236 H1212 0.950 . S
C1236 C1231 1.363 . S
C1236 C1235 1.415 . S
C1237 H1213 0.951 . S
C1237 C1238 1.366 . S
C1237 C1239 1.388 . S
C1238 C1237 1.366 . S
C1238 C1242 1.385 . S
C1239 H1214 0.951 . S
C1239 C1237 1.388 . S
C1239 C1240 1.366 . S
C1240 C1239 1.366 . S
C1240 C1241 1.414 . S
C1240 C1243 1.499 . S
C1241 H1215 0.950 . S
C1241 C1240 1.414 . S
C1241 C1242 1.374 . S
C1242 H1216 0.950 . S
C1242 C1238 1.385 . S
C1242 C1241 1.374 . S
C1243 C1240 1.499 . S
C1243 C1244 1.373 1_455 S
C1243 C1245 1.389 . S
C1244 H1217 0.950 . S
C1244 C1230 1.377 . S
C1244 C1243 1.373 1_655 S
C1245 C1229 1.377 . S
C1245 C1243 1.389 . S
C1245 C1246 1.524 . S
C1246 C1245 1.524 . S
C1246 C1247 1.397 . S
C1246 C1251 1.360 1_556 S
C1247 H1218 0.950 . S
C1247 C1246 1.397 . S
C1247 C1248 1.334 . S
C1248 H1219 0.950 . S
C1248 C1247 1.334 . S
C1248 C1249 1.287 . S
C1249 C1248 1.287 . S
C1249 C1250 1.524 1_556 S
C1249 H1252 0.999 . S
C1250 H1220 0.950 . S
C1250 C1249 1.524 1_554 S
C1250 C1251 1.415 . S
C1251 H1221 0.953 . S
C1251 C1246 1.360 1_554 S
C1251 C1250 1.415 . S
H1252 C1249 0.999 . S
H1253 C1234 0.913 . S
H1254 C1272 0.951 . S
H1255 C1274 0.951 . S
H1256 C1276 0.950 . S
H1257 C1277 0.950 1_556 S
H1258 C1279 0.950 . S
H1259 C1282 0.950 . S
H1260 C1283 0.950 . S
H1261 C1285 0.950 . S
H1262 C1286 0.950 . S
H1263 C1287 0.951 . S
H1264 C1289 0.951 . S
H1265 C1291 0.950 . S
H1266 C1292 0.950 . S
H1267 C1294 0.950 . S
H1268 C1297 0.950 . S
H1269 C1298 0.950 1_565 S
H1270 C1300 0.970 . S
H1271 C1301 0.950 . S
C1272 H1254 0.951 . S
C1272 C1273 1.366 . S
C1272 C1274 1.388 . S
C1273 C1272 1.366 . S
C1273 C1277 1.385 . S
C1274 H1255 0.951 . S
C1274 C1272 1.388 . S
C1274 C1275 1.366 1_554 S
C1275 C1274 1.366 1_556 S
C1275 C1276 1.414 . S
C1275 C1278 1.499 . S
C1276 H1256 0.950 . S
C1276 C1275 1.414 . S
C1276 C1277 1.374 1_556 S
C1277 H1257 0.950 1_554 S
C1277 C1273 1.385 . S
C1277 C1276 1.374 1_554 S
C1278 C1275 1.499 . S
C1278 C1279 1.373 . S
C1278 C1280 1.389 . S
C1279 H1258 0.950 . S
C1279 C1278 1.373 . S
C1279 C1295 1.377 . S
C1280 C1278 1.389 . S
C1280 C1281 1.524 . S
C1280 C1294 1.377 . S
C1281 C1280 1.524 . S
C1281 C1282 1.397 . S
C1281 C1286 1.363 . S
C1282 H1259 0.950 . S
C1282 C1281 1.397 . S
C1282 C1283 1.334 . S
C1283 H1260 0.950 . S
C1283 C1282 1.334 . S
C1283 C1284 1.287 . S
C1284 C1283 1.287 . S
C1284 C1285 1.524 . S
C1284 H1303 0.913 . S
C1285 H1261 0.950 . S
C1285 C1284 1.524 . S
C1285 C1286 1.415 . S
C1286 H1262 0.950 . S
C1286 C1281 1.363 . S
C1286 C1285 1.415 . S
C1287 H1263 0.951 . S
C1287 C1288 1.366 . S
C1287 C1289 1.388 . S
C1288 C1287 1.366 . S
C1288 C1292 1.385 . S
C1289 H1264 0.951 . S
C1289 C1287 1.388 . S
C1289 C1290 1.366 . S
C1290 C1289 1.366 . S
C1290 C1291 1.414 . S
C1290 C1293 1.499 . S
C1291 H1265 0.950 . S
C1291 C1290 1.414 . S
C1291 C1292 1.374 . S
C1292 H1266 0.950 . S
C1292 C1288 1.385 . S
C1292 C1291 1.374 . S
C1293 C1290 1.499 . S
C1293 C1294 1.373 . S
C1293 C1295 1.389 . S
C1294 H1267 0.950 . S
C1294 C1280 1.377 . S
C1294 C1293 1.373 . S
C1295 C1279 1.377 . S
C1295 C1293 1.389 . S
C1295 C1296 1.524 . S
C1296 C1295 1.524 . S
C1296 C1297 1.397 . S
C1296 C1301 1.363 . S
C1297 H1268 0.950 . S
C1297 C1296 1.397 . S
C1297 C1298 1.334 . S
C1298 H1269 0.950 1_545 S
C1298 C1297 1.334 . S
C1298 C1299 1.287 1_545 S
C1299 C1298 1.287 1_565 S
C1299 C1300 1.533 . S
C1299 H1302 0.999 . S
C1300 H1270 0.970 . S
C1300 C1299 1.533 . S
C1300 C1301 1.383 1_565 S
C1301 H1271 0.950 . S
C1301 C1296 1.363 . S
C1301 C1300 1.383 1_545 S
H1302 C1299 0.999 . S
H1303 C1284 0.913 . S
H1304 C1322 0.951 . S
H1305 C1324 0.951 . S
H1306 C1326 0.947 1_556 S
H1307 C1327 0.950 . S
H1308 C1329 0.950 . S
H1309 C1332 0.950 . S
H1310 C1333 0.950 . S
H1311 C1335 0.950 . S
H1312 C1336 0.950 1_556 S
H1313 C1337 0.951 . S
H1314 C1339 0.951 . S
H1315 C1341 0.950 . S
H1316 C1342 0.950 . S
H1317 C1344 0.950 . S
H1318 C1347 0.950 . S
H1319 C1348 0.950 . S
H1320 C1350 0.950 . S
H1321 C1351 0.950 . S
C1322 H1304 0.951 . S
C1322 C1323 1.366 . S
C1322 C1324 1.388 1_554 S
C1323 C1322 1.366 . S
C1323 C1327 1.385 . S
C1324 H1305 0.951 . S
C1324 C1322 1.388 1_556 S
C1324 C1325 1.366 . S
C1325 C1324 1.366 . S
C1325 C1326 1.406 1_556 S
C1325 C1328 1.499 . S
C1326 H1306 0.947 1_554 S
C1326 C1325 1.406 1_554 S
C1326 C1327 1.385 . S
C1327 H1307 0.950 . S
C1327 C1323 1.385 . S
C1327 C1326 1.385 . S
C1328 C1325 1.499 . S
C1328 C1329 1.373 . S
C1328 C1330 1.389 . S
C1329 H1308 0.950 . S
C1329 C1328 1.373 . S
C1329 C1345 1.377 . S
C1330 C1328 1.389 . S
C1330 C1331 1.524 1_556 S
C1330 C1344 1.377 . S
C1331 C1330 1.524 1_554 S
C1331 C1332 1.397 . S
C1331 C1336 1.363 . S
C1332 H1309 0.950 . S
C1332 C1331 1.397 . S
C1332 C1333 1.334 . S
C1333 H1310 0.950 . S
C1333 C1332 1.334 . S
C1333 C1334 1.287 . S
C1334 C1333 1.287 . S
C1334 C1335 1.524 . S
C1334 H1353 0.913 . S
C1335 H1311 0.950 . S
C1335 C1334 1.524 . S
C1335 C1336 1.415 . S
C1336 H1312 0.950 1_554 S
C1336 C1331 1.363 . S
C1336 C1335 1.415 . S
C1337 H1313 0.951 . S
C1337 C1338 1.366 . S
C1337 C1339 1.388 . S
C1338 C1337 1.366 . S
C1338 C1342 1.385 . S
C1339 H1314 0.951 . S
C1339 C1337 1.388 . S
C1339 C1340 1.366 . S
C1340 C1339 1.366 . S
C1340 C1341 1.414 . S
C1340 C1343 1.499 . S
C1341 H1315 0.950 . S
C1341 C1340 1.414 . S
C1341 C1342 1.374 . S
C1342 H1316 0.950 . S
C1342 C1338 1.385 . S
C1342 C1341 1.374 . S
C1343 C1340 1.499 . S
C1343 C1344 1.373 . S
C1343 C1345 1.389 . S
C1344 H1317 0.950 . S
C1344 C1330 1.377 . S
C1344 C1343 1.373 . S
C1345 C1329 1.377 . S
C1345 C1343 1.389 . S
C1345 C1346 1.524 . S
C1346 C1345 1.524 . S
C1346 C1347 1.397 . S
C1346 C1351 1.363 . S
C1347 H1318 0.950 . S
C1347 C1346 1.397 . S
C1347 C1348 1.334 . S
C1348 H1319 0.950 . S
C1348 C1347 1.334 . S
C1348 C1349 1.287 . S
C1349 C1348 1.287 . S
C1349 C1350 1.524 . S
C1349 H1352 0.999 . S
C1350 H1320 0.950 . S
C1350 C1349 1.524 . S
C1350 C1351 1.415 . S
C1351 H1321 0.950 . S
C1351 C1346 1.363 . S
C1351 C1350 1.415 . S
H1352 C1349 0.999 . S
H1353 C1334 0.913 . S
H1354 C1372 0.951 . S
H1355 C1374 0.951 1_556 S
H1356 C1376 0.950 . S
H1357 C1377 0.950 . S
H1358 C1379 0.950 . S
H1359 C1382 0.950 . S
H1360 C1383 0.950 . S
H1361 C1385 0.950 . S
H1362 C1386 0.950 1_556 S
H1363 C1387 0.951 . S
H1364 C1389 0.951 . S
H1365 C1391 0.950 . S
H1366 C1392 0.950 . S
H1367 C1394 0.950 . S
H1368 C1397 0.950 . S
H1369 C1398 0.950 . S
H1370 C1400 0.950 . S
H1371 C1401 0.950 . S
C1372 H1354 0.951 . S
C1372 C1373 1.366 . S
C1372 C1374 1.388 . S
C1373 C1372 1.366 . S
C1373 C1377 1.385 . S
C1374 H1355 0.951 1_554 S
C1374 C1372 1.388 . S
C1374 C1375 1.366 1_554 S
C1375 C1374 1.366 1_556 S
C1375 C1376 1.414 1_556 S
C1375 C1378 1.499 . S
C1376 H1356 0.950 . S
C1376 C1375 1.414 1_554 S
C1376 C1377 1.374 . S
C1377 H1357 0.950 . S
C1377 C1373 1.385 . S
C1377 C1376 1.374 . S
C1378 C1375 1.499 . S
C1378 C1379 1.373 . S
C1378 C1380 1.389 . S
C1379 H1358 0.950 . S
C1379 C1378 1.373 . S
C1379 C1395 1.377 . S
C1380 C1378 1.389 . S
C1380 C1381 1.524 1_556 S
C1380 C1394 1.377 . S
C1381 C1380 1.524 1_554 S
C1381 C1382 1.397 . S
C1381 C1386 1.363 . S
C1382 H1359 0.950 . S
C1382 C1381 1.397 . S
C1382 C1383 1.334 . S
C1383 H1360 0.950 . S
C1383 C1382 1.334 . S
C1383 C1384 1.287 . S
C1384 C1383 1.287 . S
C1384 C1385 1.524 . S
C1384 H1403 0.913 . S
C1385 H1361 0.950 . S
C1385 C1384 1.524 . S
C1385 C1386 1.415 . S
C1386 H1362 0.950 1_554 S
C1386 C1381 1.363 . S
C1386 C1385 1.415 . S
C1387 H1363 0.951 . S
C1387 C1388 1.366 . S
C1387 C1389 1.388 . S
C1388 C1387 1.366 . S
C1388 C1392 1.385 . S
C1389 H1364 0.951 . S
C1389 C1387 1.388 . S
C1389 C1390 1.366 . S
C1390 C1389 1.366 . S
C1390 C1391 1.414 . S
C1390 C1393 1.499 . S
C1391 H1365 0.950 . S
C1391 C1390 1.414 . S
C1391 C1392 1.374 . S
C1392 H1366 0.950 . S
C1392 C1388 1.385 . S
C1392 C1391 1.374 . S
C1393 C1390 1.499 . S
C1393 C1394 1.373 . S
C1393 C1395 1.389 . S
C1394 H1367 0.950 . S
C1394 C1380 1.377 . S
C1394 C1393 1.373 . S
C1395 C1379 1.377 . S
C1395 C1393 1.389 . S
C1395 C1396 1.524 . S
C1396 C1395 1.524 . S
C1396 C1397 1.397 . S
C1396 C1401 1.363 . S
C1397 H1368 0.950 . S
C1397 C1396 1.397 . S
C1397 C1398 1.334 . S
C1398 H1369 0.950 . S
C1398 C1397 1.334 . S
C1398 C1399 1.287 . S
C1399 C1398 1.287 . S
C1399 C1400 1.524 . S
C1399 H1402 0.999 . S
C1400 H1370 0.950 . S
C1400 C1399 1.524 . S
C1400 C1401 1.415 . S
C1401 H1371 0.950 . S
C1401 C1396 1.363 . S
C1401 C1400 1.415 . S
H1402 C1399 0.999 . S
H1403 C1384 0.913 . S
H1404 C1422 0.951 . S
H1405 C1424 0.951 . S
H1406 C1426 0.950 . S
H1407 C1427 0.950 . S
H1408 C1429 0.950 . S
H1409 C1432 0.950 . S
H1410 C1433 0.950 . S
H1411 C1435 0.950 . S
H1412 C1436 0.950 . S
H1413 C1437 0.951 . S
H1414 C1439 0.951 . S
H1415 C1441 0.952 . S
H1416 C1442 0.939 1_455 S
H1417 C1444 0.950 . S
H1418 C1447 0.950 . S
H1419 C1448 0.950 . S
H1420 C1450 0.950 . S
H1421 C1451 0.950 . S
C1422 H1404 0.951 . S
C1422 C1423 1.356 1_455 S
C1422 C1424 1.388 . S
C1423 C1422 1.356 1_655 S
C1423 C1427 1.396 . S
C1424 H1405 0.951 . S
C1424 C1422 1.388 . S
C1424 C1425 1.366 1_455 S
C1425 C1424 1.366 1_655 S
C1425 C1426 1.414 . S
C1425 C1428 1.499 . S
C1426 H1406 0.950 . S
C1426 C1425 1.414 . S
C1426 C1427 1.374 . S
C1427 H1407 0.950 . S
C1427 C1423 1.396 . S
C1427 C1426 1.374 . S
C1428 C1425 1.499 . S
C1428 C1429 1.373 1_655 S
C1428 C1430 1.389 . S
C1429 H1408 0.950 . S
C1429 C1428 1.373 1_455 S
C1429 C1445 1.377 . S
C1430 C1428 1.389 . S
C1430 C1431 1.524 . S
C1430 C1444 1.377 . S
C1431 C1430 1.524 . S
C1431 C1432 1.397 . S
C1431 C1436 1.363 . S
C1432 H1409 0.950 . S
C1432 C1431 1.397 . S
C1432 C1433 1.334 . S
C1433 H1410 0.950 . S
C1433 C1432 1.334 . S
C1433 C1434 1.287 . S
C1434 C1433 1.287 . S
C1434 C1435 1.524 . S
C1434 H1453 0.913 . S
C1435 H1411 0.950 . S
C1435 C1434 1.524 . S
C1435 C1436 1.415 . S
C1436 H1412 0.950 . S
C1436 C1431 1.363 . S
C1436 C1435 1.415 . S
C1437 H1413 0.951 . S
C1437 C1438 1.366 . S
C1437 C1439 1.388 . S
C1438 C1437 1.366 . S
C1438 C1442 1.399 . S
C1439 H1414 0.951 . S
C1439 C1437 1.388 . S
C1439 C1440 1.366 . S
C1440 C1439 1.366 . S
C1440 C1441 1.412 1_655 S
C1440 C1443 1.499 . S
C1441 H1415 0.952 . S
C1441 C1440 1.412 1_455 S
C1441 C1442 1.374 1_455 S
C1442 H1416 0.939 1_655 S
C1442 C1438 1.399 . S
C1442 C1441 1.374 1_655 S
C1443 C1440 1.499 . S
C1443 C1444 1.373 . S
C1443 C1445 1.389 1_655 S
C1444 H1417 0.950 . S
C1444 C1430 1.377 . S
C1444 C1443 1.373 . S
C1445 C1429 1.377 . S
C1445 C1443 1.389 1_455 S
C1445 C1446 1.524 . S
C1446 C1445 1.524 . S
C1446 C1447 1.397 . S
C1446 C1451 1.363 . S
C1447 H1418 0.950 . S
C1447 C1446 1.397 . S
C1447 C1448 1.334 . S
C1448 H1419 0.950 . S
C1448 C1447 1.334 . S
C1448 C1449 1.287 . S
C1449 C1448 1.287 . S
C1449 C1450 1.524 . S
C1449 H1452 0.999 . S
C1450 H1420 0.950 . S
C1450 C1449 1.524 . S
C1450 C1451 1.415 . S
C1451 H1421 0.950 . S
C1451 C1446 1.363 . S
C1451 C1450 1.415 . S
H1452 C1449 0.999 . S
H1453 C1434 0.913 . S
H1454 C1472 0.951 . S
H1455 C1474 0.951 . S
H1456 C1476 0.950 . S
H1457 C1477 0.950 . S
H1458 C1479 0.950 . S
H1459 C1482 0.950 . S
H1460 C1483 0.950 . S
H1461 C1485 0.950 . S
H1462 C1486 0.950 . S
H1463 C1487 0.951 . S
H1464 C1489 0.951 . S
H1465 C1491 0.950 . S
H1466 C1492 0.950 . S
H1467 C1494 0.950 . S
H1468 C1497 0.950 . S
H1469 C1498 0.950 . S
H1470 C1500 0.950 . S
H1471 C1501 0.950 . S
C1472 H1454 0.951 . S
C1472 C1473 1.366 . S
C1472 C1474 1.388 . S
C1473 C1472 1.366 . S
C1473 C1477 1.385 . S
C1474 H1455 0.951 . S
C1474 C1472 1.388 . S
C1474 C1475 1.366 . S
C1475 C1474 1.366 . S
C1475 C1476 1.414 . S
C1475 C1478 1.499 . S
C1476 H1456 0.950 . S
C1476 C1475 1.414 . S
C1476 C1477 1.374 . S
C1477 H1457 0.950 . S
C1477 C1473 1.385 . S
C1477 C1476 1.374 . S
C1478 C1475 1.499 . S
C1478 C1479 1.373 . S
C1478 C1480 1.389 . S
C1479 H1458 0.950 . S
C1479 C1478 1.373 . S
C1479 C1495 1.377 . S
C1480 C1478 1.389 . S
C1480 C1481 1.524 . S
C1480 C1494 1.377 . S
C1481 C1480 1.524 . S
C1481 C1482 1.397 . S
C1481 C1486 1.363 . S
C1482 H1459 0.950 . S
C1482 C1481 1.397 . S
C1482 C1483 1.334 . S
C1483 H1460 0.950 . S
C1483 C1482 1.334 . S
C1483 C1484 1.287 . S
C1484 C1483 1.287 . S
C1484 C1485 1.524 . S
C1484 H1503 0.913 . S
C1485 H1461 0.950 . S
C1485 C1484 1.524 . S
C1485 C1486 1.415 . S
C1486 H1462 0.950 . S
C1486 C1481 1.363 . S
C1486 C1485 1.415 . S
C1487 H1463 0.951 . S
C1487 C1488 1.366 . S
C1487 C1489 1.388 . S
C1488 C1487 1.366 . S
C1488 C1492 1.385 . S
C1489 H1464 0.951 . S
C1489 C1487 1.388 . S
C1489 C1490 1.366 . S
C1490 C1489 1.366 . S
C1490 C1491 1.414 . S
C1490 C1493 1.499 . S
C1491 H1465 0.950 . S
C1491 C1490 1.414 . S
C1491 C1492 1.374 . S
C1492 H1466 0.950 . S
C1492 C1488 1.385 . S
C1492 C1491 1.374 . S
C1493 C1490 1.499 . S
C1493 C1494 1.373 . S
C1493 C1495 1.389 . S
C1494 H1467 0.950 . S
C1494 C1480 1.377 . S
C1494 C1493 1.373 . S
C1495 C1479 1.377 . S
C1495 C1493 1.389 . S
C1495 C1496 1.524 . S
C1496 C1495 1.524 . S
C1496 C1497 1.397 . S
C1496 C1501 1.363 . S
C1497 H1468 0.950 . S
C1497 C1496 1.397 . S
C1497 C1498 1.334 . S
C1498 H1469 0.950 . S
C1498 C1497 1.334 . S
C1498 C1499 1.287 . S
C1499 C1498 1.287 . S
C1499 C1500 1.524 . S
C1499 H1502 0.999 . S
C1500 H1470 0.950 . S
C1500 C1499 1.524 . S
C1500 C1501 1.415 . S
C1501 H1471 0.950 . S
C1501 C1496 1.363 . S
C1501 C1500 1.415 . S
H1502 C1499 0.999 . S
H1503 C1484 0.913 . S
H1504 C1522 0.951 . S
H1505 C1524 0.951 . S
H1506 C1526 0.950 . S
H1507 C1527 0.950 . S
H1508 C1529 0.950 . S
H1509 C1532 0.950 . S
H1510 C1533 0.950 . S
H1511 C1535 0.950 . S
H1512 C1536 0.950 . S
H1513 C1537 0.951 . S
H1514 C1539 0.951 . S
H1515 C1541 0.950 . S
H1516 C1542 0.950 . S
H1517 C1544 0.950 . S
H1518 C1547 0.950 . S
H1519 C1548 0.950 . S
H1520 C1550 0.950 . S
H1521 C1551 0.950 . S
C1522 H1504 0.951 . S
C1522 C1523 1.366 . S
C1522 C1524 1.388 . S
C1523 C1522 1.366 . S
C1523 C1527 1.385 . S
C1524 H1505 0.951 . S
C1524 C1522 1.388 . S
C1524 C1525 1.366 . S
C1525 C1524 1.366 . S
C1525 C1526 1.414 . S
C1525 C1528 1.499 . S
C1526 H1506 0.950 . S
C1526 C1525 1.414 . S
C1526 C1527 1.374 . S
C1527 H1507 0.950 . S
C1527 C1523 1.385 . S
C1527 C1526 1.374 . S
C1528 C1525 1.499 . S
C1528 C1529 1.373 . S
C1528 C1530 1.389 . S
C1529 H1508 0.950 . S
C1529 C1528 1.373 . S
C1529 C1545 1.377 . S
C1530 C1528 1.389 . S
C1530 C1531 1.524 . S
C1530 C1544 1.377 . S
C1531 C1530 1.524 . S
C1531 C1532 1.397 . S
C1531 C1536 1.363 . S
C1532 H1509 0.950 . S
C1532 C1531 1.397 . S
C1532 C1533 1.334 . S
C1533 H1510 0.950 . S
C1533 C1532 1.334 . S
C1533 C1534 1.287 . S
C1534 C1533 1.287 . S
C1534 C1535 1.524 . S
C1534 H1553 0.913 . S
C1535 H1511 0.950 . S
C1535 C1534 1.524 . S
C1535 C1536 1.415 . S
C1536 H1512 0.950 . S
C1536 C1531 1.363 . S
C1536 C1535 1.415 . S
C1537 H1513 0.951 . S
C1537 C1538 1.366 . S
C1537 C1539 1.388 . S
C1538 C1537 1.366 . S
C1538 C1542 1.385 . S
C1539 H1514 0.951 . S
C1539 C1537 1.388 . S
C1539 C1540 1.366 . S
C1540 C1539 1.366 . S
C1540 C1541 1.414 . S
C1540 C1543 1.499 . S
C1541 H1515 0.950 . S
C1541 C1540 1.414 . S
C1541 C1542 1.374 . S
C1542 H1516 0.950 . S
C1542 C1538 1.385 . S
C1542 C1541 1.374 . S
C1543 C1540 1.499 . S
C1543 C1544 1.373 . S
C1543 C1545 1.389 . S
C1544 H1517 0.950 . S
C1544 C1530 1.377 . S
C1544 C1543 1.373 . S
C1545 C1529 1.377 . S
C1545 C1543 1.389 . S
C1545 C1546 1.524 . S
C1546 C1545 1.524 . S
C1546 C1547 1.397 . S
C1546 C1551 1.363 . S
C1547 H1518 0.950 . S
C1547 C1546 1.397 . S
C1547 C1548 1.334 . S
C1548 H1519 0.950 . S
C1548 C1547 1.334 . S
C1548 C1549 1.287 . S
C1549 C1548 1.287 . S
C1549 C1550 1.524 . S
C1549 H1552 0.999 . S
C1550 H1520 0.950 . S
C1550 C1549 1.524 . S
C1550 C1551 1.415 . S
C1551 H1521 0.950 . S
C1551 C1546 1.363 . S
C1551 C1550 1.415 . S
H1552 C1549 0.999 . S
H1553 C1534 0.913 . S
H1554 C1572 0.951 . S
H1555 C1574 0.951 . S
H1556 C1576 0.950 . S
H1557 C1577 0.950 . S
H1558 C1579 0.950 . S
H1559 C1582 0.950 . S
H1560 C1583 0.950 . S
H1561 C1585 0.950 . S
H1562 C1586 0.950 . S
H1563 C1587 0.951 . S
H1564 C1589 0.951 . S
H1565 C1591 0.950 . S
H1566 C1592 0.950 . S
H1567 C1594 0.950 . S
H1568 C1597 0.950 . S
H1569 C1598 0.950 . S
H1570 C1600 0.950 . S
H1571 C1601 0.950 . S
C1572 H1554 0.951 . S
C1572 C1573 1.366 . S
C1572 C1574 1.388 . S
C1573 C1572 1.366 . S
C1573 C1577 1.385 . S
C1574 H1555 0.951 . S
C1574 C1572 1.388 . S
C1574 C1575 1.366 . S
C1575 C1574 1.366 . S
C1575 C1576 1.414 . S
C1575 C1578 1.499 . S
C1576 H1556 0.950 . S
C1576 C1575 1.414 . S
C1576 C1577 1.374 . S
C1577 H1557 0.950 . S
C1577 C1573 1.385 . S
C1577 C1576 1.374 . S
C1578 C1575 1.499 . S
C1578 C1579 1.373 . S
C1578 C1580 1.389 . S
C1579 H1558 0.950 . S
C1579 C1578 1.373 . S
C1579 C1595 1.377 . S
C1580 C1578 1.389 . S
C1580 C1581 1.524 . S
C1580 C1594 1.377 . S
C1581 C1580 1.524 . S
C1581 C1582 1.397 . S
C1581 C1586 1.363 . S
C1582 H1559 0.950 . S
C1582 C1581 1.397 . S
C1582 C1583 1.334 . S
C1583 H1560 0.950 . S
C1583 C1582 1.334 . S
C1583 C1584 1.287 . S
C1584 C1583 1.287 . S
C1584 C1585 1.524 . S
C1584 H1603 0.913 . S
C1585 H1561 0.950 . S
C1585 C1584 1.524 . S
C1585 C1586 1.415 . S
C1586 H1562 0.950 . S
C1586 C1581 1.363 . S
C1586 C1585 1.415 . S
C1587 H1563 0.951 . S
C1587 C1588 1.366 . S
C1587 C1589 1.388 . S
C1588 C1587 1.366 . S
C1588 C1592 1.385 . S
C1589 H1564 0.951 . S
C1589 C1587 1.388 . S
C1589 C1590 1.366 . S
C1590 C1589 1.366 . S
C1590 C1591 1.414 . S
C1590 C1593 1.499 . S
C1591 H1565 0.950 . S
C1591 C1590 1.414 . S
C1591 C1592 1.374 . S
C1592 H1566 0.950 . S
C1592 C1588 1.385 . S
C1592 C1591 1.374 . S
C1593 C1590 1.499 . S
C1593 C1594 1.373 . S
C1593 C1595 1.389 . S
C1594 H1567 0.950 . S
C1594 C1580 1.377 . S
C1594 C1593 1.373 . S
C1595 C1579 1.377 . S
C1595 C1593 1.389 . S
C1595 C1596 1.524 . S
C1596 C1595 1.524 . S
C1596 C1597 1.397 . S
C1596 C1601 1.363 . S
C1597 H1568 0.950 . S
C1597 C1596 1.397 . S
C1597 C1598 1.334 . S
C1598 H1569 0.950 . S
C1598 C1597 1.334 . S
C1598 C1599 1.287 . S
C1599 C1598 1.287 . S
C1599 C1600 1.524 . S
C1599 H1602 0.999 . S
C1600 H1570 0.950 . S
C1600 C1599 1.524 . S
C1600 C1601 1.415 . S
C1601 H1571 0.950 . S
C1601 C1596 1.363 . S
C1601 C1600 1.415 . S
H1602 C1599 0.999 . S
H1603 C1584 0.913 . S
C423 C255 1.980 . S
C438 C335 1.891 . S
C488 C359 1.311 . S
C473 C295 1.494 . S
C538 C380 1.866 . S
C523 C175 1.961 . S
C588 C398 1.337 . S
C573 C215 1.509 1_655 S
C638 C338 1.806 1_565 S
C623 C95 1.887 . S
C673 C135 1.407 . S
C688 C356 1.234 . S
C723 C15 1.862 . S
C738 C377 1.778 . S
C773 C55 1.417 . S
C788 C401 1.260 . S
C838 C336 0.543 . S
C823 C221 0.483 . S
C888 C354 0.463 . S
C873 C261 0.451 . S
C938 C375 0.532 . S
C923 C301 0.484 . S
C973 C181 0.450 . S
C988 C399 0.460 . S
C1023 C61 0.440 1_655 S
C1038 C334 0.368 . S
C1088 C358 0.450 . S
C1073 C101 0.632 . S
C1138 C379 0.371 . S
C1123 C141 0.391 . S
C1173 C21 0.631 . S
C1188 C397 0.434 . S
C1223 C202 1.958 . S
C1238 C337 1.941 . S
C1273 C242 2.294 . S
C1288 C355 2.253 . S
C1338 C376 1.894 . S
C1323 C282 1.919 . S
C1388 C400 2.280 . S
C1373 C162 2.319 . S
C1423 C42 1.807 1_655 S
C1438 C333 1.789 . S
C1488 C357 2.087 . S
C1473 C82 2.048 . S
C1538 C378 1.738 . S
C1523 C122 1.788 . S
C1573 C2 2.071 . S
C1588 C396 2.113 . S
