# Generated by pormake.
# Topology zzz, (3,6)-cn, num edge types: 1
# Building blocks:
#     Node 0, Type 0, BuildingBlock: WUSLED_clean_sbu_0, # of connection points: 3
#     Node 1, Type 0, BuildingBlock: WUSLED_clean_sbu_0, # of connection points: 3
#     Node 2, Type 0, BuildingBlock: WUSLED_clean_sbu_0, # of connection points: 3
#     Node 3, Type 0, BuildingBlock: WUSLED_clean_sbu_0, # of connection points: 3
#     Node 4, Type 0, BuildingBlock: WUSLED_clean_sbu_0, # of connection points: 3
#     Node 5, Type 0, BuildingBlock: WUSLED_clean_sbu_0, # of connection points: 3
#     Node 6, Type 0, BuildingBlock: WUSLED_clean_sbu_0, # of connection points: 3
#     Node 7, Type 0, BuildingBlock: WUSLED_clean_sbu_0, # of connection points: 3
#     Node 8, Type 1, BuildingBlock: VOLQOD_clean_sbu_1, # of connection points: 6
#     Node 9, Type 1, BuildingBlock: VOLQOD_clean_sbu_1, # of connection points: 6
#     Node 10, Type 1, BuildingBlock: VOLQOD_clean_sbu_1, # of connection points: 6
#     Node 11, Type 1, BuildingBlock: VOLQOD_clean_sbu_1, # of connection points: 6
#     Edge 12, Type (0, 1), BuildingBlock: AJUNOK_clean_linker_0, # of connection points: 2
#     Edge 13, Type (0, 1), BuildingBlock: AJUNOK_clean_linker_0, # of connection points: 2
#     Edge 14, Type (0, 1), BuildingBlock: AJUNOK_clean_linker_0, # of connection points: 2
#     Edge 15, Type (0, 1), BuildingBlock: AJUNOK_clean_linker_0, # of connection points: 2
#     Edge 16, Type (0, 1), BuildingBlock: AJUNOK_clean_linker_0, # of connection points: 2
#     Edge 17, Type (0, 1), BuildingBlock: AJUNOK_clean_linker_0, # of connection points: 2
#     Edge 18, Type (0, 1), BuildingBlock: AJUNOK_clean_linker_0, # of connection points: 2
#     Edge 19, Type (0, 1), BuildingBlock: AJUNOK_clean_linker_0, # of connection points: 2
#     Edge 20, Type (0, 1), BuildingBlock: AJUNOK_clean_linker_0, # of connection points: 2
#     Edge 21, Type (0, 1), BuildingBlock: AJUNOK_clean_linker_0, # of connection points: 2
#     Edge 22, Type (0, 1), BuildingBlock: AJUNOK_clean_linker_0, # of connection points: 2
#     Edge 23, Type (0, 1), BuildingBlock: AJUNOK_clean_linker_0, # of connection points: 2
#     Edge 24, Type (0, 1), BuildingBlock: AJUNOK_clean_linker_0, # of connection points: 2
#     Edge 25, Type (0, 1), BuildingBlock: AJUNOK_clean_linker_0, # of connection points: 2
#     Edge 26, Type (0, 1), BuildingBlock: AJUNOK_clean_linker_0, # of connection points: 2
#     Edge 27, Type (0, 1), BuildingBlock: AJUNOK_clean_linker_0, # of connection points: 2
#     Edge 28, Type (0, 1), BuildingBlock: AJUNOK_clean_linker_0, # of connection points: 2
#     Edge 29, Type (0, 1), BuildingBlock: AJUNOK_clean_linker_0, # of connection points: 2
#     Edge 30, Type (0, 1), BuildingBlock: AJUNOK_clean_linker_0, # of connection points: 2
#     Edge 31, Type (0, 1), BuildingBlock: AJUNOK_clean_linker_0, # of connection points: 2
#     Edge 32, Type (0, 1), BuildingBlock: AJUNOK_clean_linker_0, # of connection points: 2
#     Edge 33, Type (0, 1), BuildingBlock: AJUNOK_clean_linker_0, # of connection points: 2
#     Edge 34, Type (0, 1), BuildingBlock: AJUNOK_clean_linker_0, # of connection points: 2
#     Edge 35, Type (0, 1), BuildingBlock: AJUNOK_clean_linker_0, # of connection points: 2
# Relax obj value: 0.340
# Max RMSD: 0.255
# Mean RMSD: 0.201
data_MOF--net-zzz--node1-WUSLED_clean_sbu_0--node2-VOLQOD_clean_sbu_1--edge1-AJUNOK_clean_linker_0
_symmetry_space_group_name_H-M    P1
_symmetry_Int_Tables_number       1
_symmetry_cell_setting            triclinic
loop_
_symmetry_equiv_pos_as_xyz
'x, y, z'
_cell_length_a     50.226592
_cell_length_b     49.510442
_cell_length_c     19.631635
_cell_angle_alpha  90.12135
_cell_angle_beta   90.211252
_cell_angle_gamma 92.228545
loop_
_atom_site_label
_atom_site_type_symbol
_atom_site_fract_x
_atom_site_fract_y
_atom_site_fract_z
_atom_type_partial_charge
C0 C 0.81398 0.48786 0.30007 0.0
C1 C 0.83884 0.48885 0.26721 0.0
C2 C 0.86173 0.49388 0.37693 0.0
C3 C 0.86253 0.49183 0.30536 0.0
C4 C 0.83677 0.49249 0.40928 0.0
C5 C 0.8132 0.48958 0.37126 0.0
U6 U 0.77412 0.48467 0.13264 0.0
O7 O 0.7375 0.46087 0.10551 0.0
O8 O 0.73747 0.50526 0.10626 0.0
C9 C 0.72377 0.48255 0.09459 0.0
C10 C 0.78862 0.48587 0.26157 0.0
C11 C 0.70535 0.48205 0.0357 0.0
C12 C 0.65983 0.47494 0.99479 0.0
C13 C 0.67862 0.4743 0.04733 0.0
C14 C 0.69419 0.49114 0.91714 0.0
C15 C 0.66734 0.48325 0.92899 0.0
C16 C 0.71312 0.49046 0.97011 0.0
C17 C 0.82159 0.48647 0.97244 0.0
C18 C 0.83477 0.4597 0.87538 0.0
C19 C 0.85738 0.5028 0.89963 0.0
C20 C 0.84036 0.50675 0.95401 0.0
C21 C 0.85575 0.47853 0.8624 0.0
C22 C 0.81771 0.46363 0.93033 0.0
C23 C 0.81252 0.48646 0.04334 0.0
O24 O 0.78265 0.50751 0.227 0.0
O25 O 0.78375 0.46332 0.22752 0.0
O26 O 0.80238 0.46374 0.06857 0.0
O27 O 0.8018 0.50835 0.06719 0.0
H28 H 0.83989 0.48744 0.21221 0.0
H29 H 0.88144 0.49224 0.279 0.0
H30 H 0.83544 0.49399 0.46421 0.0
H31 H 0.79427 0.48889 0.39758 0.0
H32 H 0.63926 0.46931 0.00596 0.0
H33 H 0.67214 0.46809 0.09772 0.0
H34 H 0.7005 0.49767 0.86691 0.0
H35 H 0.73364 0.49669 0.9601 0.0
H36 H 0.83306 0.44093 0.84695 0.0
H37 H 0.87364 0.51749 0.89188 0.0
H38 H 0.84389 0.52437 0.98617 0.0
H39 H 0.80325 0.44771 0.94344 0.0
C40 C 0.9968 0.80163 0.32047 0.0
C41 C 0.00462 0.82651 0.29091 0.0
C42 C 0.99839 0.85015 0.39937 0.0
C43 C 0.00535 0.85051 0.32978 0.0
C44 C 0.99057 0.82512 0.42848 0.0
C45 C 0.98977 0.8013 0.38961 0.0
U46 U 0.99441 0.75204 0.16135 0.0
O47 O 0.97156 0.71329 0.15178 0.0
O48 O 0.01519 0.71374 0.15335 0.0
C49 C 0.99303 0.69935 0.14269 0.0
C50 C 0.99638 0.77546 0.28264 0.0
C51 C 0.99295 0.6811 0.08251 0.0
C52 C 0.99817 0.63595 0.03631 0.0
C53 C 0.99882 0.65391 0.09156 0.0
C54 C 0.98651 0.67219 0.96076 0.0
C55 C 0.9915 0.64466 0.97037 0.0
C56 C 0.98715 0.69025 0.01639 0.0
C57 C 0.99931 0.80919 0.02911 0.0
C58 C 0.00643 0.83985 0.93503 0.0
C59 C 0.02047 0.8533 0.049 0.0
C60 C 0.01051 0.82859 0.07388 0.0
C61 C 0.01961 0.85845 0.97892 0.0
C62 C 0.99638 0.81527 0.96008 0.0
C63 C 0.99537 0.78119 0.05033 0.0
O64 O 0.97404 0.76785 0.25181 0.0
O65 O 0.01768 0.76947 0.24773 0.0
O66 O 0.0166 0.77085 0.07755 0.0
O67 O 0.97314 0.77458 0.08244 0.0
H68 H 0.01058 0.82739 0.23832 0.0
H69 H 0.01209 0.8692 0.30571 0.0
H70 H 0.98498 0.8239 0.48164 0.0
H71 H 0.9838 0.78241 0.41398 0.0
H72 H 0.00281 0.61507 0.04531 0.0
H73 H 0.00372 0.64645 0.14174 0.0
H74 H 0.9815 0.67959 0.91063 0.0
H75 H 0.98286 0.71126 0.00794 0.0
H76 H 0.00492 0.84389 0.88095 0.0
H77 H 0.03024 0.86762 0.08362 0.0
H78 H 0.01323 0.8238 0.12689 0.0
H79 H 0.98782 0.8004 0.92491 0.0
C80 C 0.71556 0.00236 0.28757 0.0
C81 C 0.691 0.00583 0.25497 0.0
C82 C 0.66765 0.99702 0.36231 0.0
C83 C 0.66717 0.0033 0.29226 0.0
C84 C 0.69245 0.99445 0.39454 0.0
C85 C 0.71606 0.99693 0.3575 0.0
U86 U 0.76488 0.00834 0.13253 0.0
O87 O 0.79972 0.98334 0.12035 0.0
O88 O 0.8054 0.02708 0.13602 0.0
C89 C 0.81662 0.00428 0.12119 0.0
C90 C 0.74116 0.00317 0.25118 0.0
C91 C 0.83613 0.00552 0.06536 0.0
C92 C 0.882 0.01262 0.02885 0.0
C93 C 0.86285 0.01232 0.08033 0.0
C94 C 0.84791 0.99941 0.9463 0.0
C95 C 0.87476 0.00585 0.96159 0.0
C96 C 0.82866 0.9994 0.99781 0.0
C97 C 0.71074 0.02183 0.99698 0.0
C98 C 0.68025 0.02237 0.90144 0.0
C99 C 0.66687 0.03998 0.01099 0.0
C100 C 0.69158 0.03355 0.03845 0.0
C101 C 0.66123 0.03481 0.94193 0.0
C102 C 0.70479 0.01597 0.92878 0.0
C103 C 0.73777 0.01734 0.02123 0.0
O104 O 0.74559 0.98267 0.21068 0.0
O105 O 0.74995 0.02658 0.22691 0.0
O106 O 0.74251 0.99289 0.04297 0.0
O107 O 0.74887 0.0367 0.05884 0.0
H108 H 0.69024 0.01008 0.20093 0.0
H109 H 0.64837 0.00564 0.26612 0.0
H110 H 0.69367 0.99054 0.4487 0.0
H111 H 0.73484 0.99436 0.38362 0.0
H112 H 0.9026 0.01758 0.04181 0.0
H113 H 0.86896 0.01712 0.13209 0.0
H114 H 0.84186 0.99441 0.89463 0.0
H115 H 0.80806 0.99432 0.98511 0.0
H116 H 0.67616 0.01768 0.84839 0.0
H117 H 0.65248 0.04952 0.04313 0.0
H118 H 0.69596 0.03826 0.09131 0.0
H119 H 0.71939 0.00691 0.89619 0.0
C120 C 0.55447 0.70354 0.31314 0.0
C121 C 0.54244 0.68028 0.28284 0.0
C122 C 0.55411 0.65285 0.3806 0.0
C123 C 0.54203 0.65538 0.31633 0.0
C124 C 0.56617 0.67617 0.41083 0.0
C125 C 0.56635 0.70123 0.37743 0.0
U126 U 0.56152 0.73272 0.14324 0.0
O127 O 0.53838 0.76153 0.08367 0.0
O128 O 0.5826 0.76714 0.0928 0.0
C129 C 0.56016 0.77558 0.06711 0.0
C130 C 0.55619 0.72934 0.27479 0.0
C131 C 0.55938 0.79977 0.02424 0.0
C132 C 0.55095 0.84744 0.01207 0.0
C133 C 0.55319 0.8246 0.05318 0.0
C134 C 0.56135 0.82082 0.91258 0.0
C135 C 0.55457 0.84569 0.94115 0.0
C136 C 0.56369 0.798 0.95386 0.0
C137 C 0.56556 0.6676 0.03049 0.0
C138 C 0.54833 0.65672 0.91823 0.0
C139 C 0.55756 0.6212 0.99896 0.0
C140 C 0.56744 0.64025 0.04479 0.0
C141 C 0.54672 0.62916 0.93628 0.0
C142 C 0.55711 0.67605 0.96614 0.0
C143 C 0.56531 0.68504 0.08949 0.0
O144 O 0.5794 0.73502 0.24616 0.0
O145 O 0.53594 0.73332 0.23386 0.0
O146 O 0.54247 0.69602 0.10201 0.0
O147 O 0.58647 0.70047 0.1038 0.0
H148 H 0.53328 0.68129 0.23296 0.0
H149 H 0.5318 0.63823 0.29217 0.0
H150 H 0.57574 0.67502 0.46019 0.0
H151 H 0.57604 0.71872 0.40145 0.0
H152 H 0.54618 0.86643 0.03568 0.0
H153 H 0.54982 0.82626 0.1075 0.0
H154 H 0.56409 0.81887 0.85811 0.0
H155 H 0.56836 0.77888 0.9307 0.0
H156 H 0.54165 0.66351 0.86892 0.0
H157 H 0.55662 0.60039 0.01573 0.0
H158 H 0.57375 0.63356 0.09471 0.0
H159 H 0.55564 0.69735 0.95482 0.0
C160 C 0.2114 0.51341 0.03755 0.0
C161 C 0.18715 0.5089 0.07203 0.0
C162 C 0.16307 0.50844 0.96423 0.0
C163 C 0.16318 0.50638 0.03562 0.0
C164 C 0.18723 0.51466 0.9305 0.0
C165 C 0.2112 0.5169 0.96684 0.0
U166 U 0.2509 0.52247 0.20119 0.0
O167 O 0.28085 0.49631 0.24471 0.0
O168 O 0.29177 0.53867 0.22005 0.0
C169 C 0.29952 0.51568 0.24539 0.0
C170 C 0.23698 0.51316 0.07429 0.0
C171 C 0.31734 0.51717 0.30504 0.0
C172 C 0.36282 0.52218 0.34646 0.0
C173 C 0.34439 0.52326 0.29342 0.0
C174 C 0.32736 0.50919 0.4246 0.0
C175 C 0.35457 0.51484 0.41227 0.0
C176 C 0.30876 0.51045 0.37121 0.0
C177 C 0.19905 0.54485 0.34383 0.0
C178 C 0.17047 0.52819 0.43484 0.0
C179 C 0.16418 0.57268 0.38764 0.0
C180 C 0.18606 0.56947 0.34515 0.0
C181 C 0.15519 0.55124 0.42891 0.0
C182 C 0.19232 0.52496 0.39237 0.0
C183 C 0.21277 0.53756 0.28084 0.0
O184 O 0.24669 0.53676 0.09544 0.0
O185 O 0.23867 0.49403 0.12016 0.0
O186 O 0.2181 0.51209 0.27023 0.0
O187 O 0.22882 0.55514 0.24981 0.0
H188 H 0.18685 0.5065 0.12688 0.0
H189 H 0.14489 0.50179 0.06305 0.0
H190 H 0.18768 0.51729 0.87576 0.0
H191 H 0.22966 0.52076 0.93952 0.0
H192 H 0.38371 0.52639 0.33563 0.0
H193 H 0.35142 0.52818 0.24263 0.0
H194 H 0.32059 0.50364 0.47518 0.0
H195 H 0.28792 0.50563 0.38119 0.0
H196 H 0.16394 0.51158 0.46737 0.0
H197 H 0.15269 0.59065 0.38281 0.0
H198 H 0.19086 0.58506 0.30803 0.0
H199 H 0.20205 0.50582 0.39277 0.0
C200 C 0.0879 0.18902 0.08778 0.0
C201 C 0.10661 0.16878 0.09554 0.0
C202 C 0.08323 0.14089 0.00954 0.0
C203 C 0.10433 0.14492 0.05649 0.0
C204 C 0.06424 0.16091 0.00398 0.0
C205 C 0.06663 0.18463 0.04226 0.0
U206 U 0.09549 0.23215 0.25131 0.0
O207 O 0.1121 0.27361 0.2692 0.0
O208 O 0.06909 0.26445 0.27971 0.0
C209 C 0.08862 0.28278 0.28466 0.0
C210 C 0.08958 0.21501 0.1253 0.0
C211 C 0.08707 0.30203 0.34171 0.0
C212 C 0.08695 0.34914 0.37625 0.0
C213 C 0.09264 0.32943 0.32814 0.0
C214 C 0.07094 0.31428 0.45401 0.0
C215 C 0.07563 0.34185 0.43924 0.0
C216 C 0.0767 0.29445 0.40561 0.0
C217 C 0.10643 0.18562 0.41245 0.0
C218 C 0.08312 0.17855 0.51911 0.0
C219 C 0.11019 0.14354 0.47261 0.0
C220 C 0.11809 0.16065 0.41991 0.0
C221 C 0.09102 0.15157 0.51984 0.0
C222 C 0.09053 0.19549 0.46487 0.0
C223 C 0.1041 0.19531 0.34259 0.0
O224 O 0.06957 0.21903 0.16638 0.0
O225 O 0.11278 0.22326 0.1508 0.0
O226 O 0.12371 0.20977 0.31493 0.0
O227 O 0.08018 0.20145 0.32186 0.0
H228 H 0.12311 0.17153 0.13088 0.0
H229 H 0.11944 0.13004 0.06173 0.0
H230 H 0.04747 0.15833 0.96941 0.0
H231 H 0.05182 0.19978 0.03586 0.0
H232 H 0.09029 0.37021 0.36285 0.0
H233 H 0.10025 0.33572 0.27883 0.0
H234 H 0.06226 0.30816 0.50226 0.0
H235 H 0.0721 0.27339 0.417 0.0
H236 H 0.06887 0.18549 0.55587 0.0
H237 H 0.11651 0.12292 0.47024 0.0
H238 H 0.13034 0.15273 0.37971 0.0
H239 H 0.08149 0.21491 0.46 0.0
C240 C 0.3267 0.01559 0.0466 0.0
C241 C 0.35192 0.01337 0.07694 0.0
C242 C 0.37312 0.01748 0.96584 0.0
C243 C 0.37493 0.01415 0.03679 0.0
C244 C 0.3479 0.0201 0.93588 0.0
C245 C 0.32489 0.01911 0.97596 0.0
U246 U 0.29149 0.01388 0.21794 0.0
O247 O 0.26273 0.98277 0.25613 0.0
O248 O 0.25138 0.02517 0.24876 0.0
C249 C 0.24424 1.00035 0.26676 0.0
C250 C 0.30215 0.01242 0.08723 0.0
C251 C 0.22797 0.99696 0.32879 0.0
C252 C 0.18692 0.97827 0.37747 0.0
C253 C 0.20546 0.97942 0.32482 0.0
C254 C 0.21383 0.01109 0.4417 0.0
C255 C 0.19045 0.99467 0.43544 0.0
C256 C 0.23252 0.01232 0.38842 0.0
C257 C 0.33851 0.02537 0.37253 0.0
C258 C 0.34442 0.99578 0.46895 0.0
C259 C 0.37645 0.03264 0.44694 0.0
C260 C 0.36112 0.04089 0.39221 0.0
C261 C 0.36926 0.00869 0.48156 0.0
C262 C 0.32887 0.00428 0.41465 0.0
C263 C 0.33112 0.02582 0.30055 0.0
O264 O 0.30093 0.99089 0.12619 0.0
O265 O 0.29402 0.03423 0.11802 0.0
O266 O 0.31458 0.04407 0.27989 0.0
O267 O 0.32675 0.00186 0.27298 0.0
H268 H 0.35375 0.01054 0.13145 0.0
H269 H 0.39415 0.01205 0.06107 0.0
H270 H 0.34592 0.02222 0.88121 0.0
H271 H 0.30561 0.02056 0.95159 0.0
H272 H 0.16907 0.96546 0.37148 0.0
H273 H 0.20156 0.96744 0.27934 0.0
H274 H 0.21688 0.02401 0.48587 0.0
H275 H 0.24984 0.02598 0.39254 0.0
H276 H 0.33852 0.97746 0.49596 0.0
H277 H 0.39557 0.04294 0.45628 0.0
H278 H 0.36876 0.05726 0.36034 0.0
H279 H 0.31121 0.99228 0.40046 0.0
C280 C 0.46355 0.30507 0.05044 0.0
C281 C 0.46838 0.33125 0.07701 0.0
C282 C 0.46874 0.35035 0.96174 0.0
C283 C 0.47073 0.35373 0.03298 0.0
C284 C 0.46275 0.32427 0.9361 0.0
C285 C 0.46022 0.30202 0.97979 0.0
U286 U 0.45861 0.25442 0.2091 0.0
O287 O 0.44475 0.21152 0.20659 0.0
O288 O 0.48705 0.22228 0.22247 0.0
C289 C 0.46837 0.20299 0.22327 0.0
C290 C 0.46456 0.28005 0.0921 0.0
C291 C 0.46954 0.18445 0.28211 0.0
C292 C 0.47641 0.1392 0.32504 0.0
C293 C 0.47225 0.15675 0.27055 0.0
C294 C 0.47419 0.1766 0.40425 0.0
C295 C 0.47781 0.14901 0.39216 0.0
C296 C 0.4701 0.19424 0.34955 0.0
C297 C 0.44196 0.30691 0.345 0.0
C298 C 0.44273 0.33575 0.44451 0.0
C299 C 0.45596 0.35383 0.33429 0.0
C300 C 0.45011 0.32884 0.30427 0.0
C301 C 0.45377 0.35691 0.4051 0.0
C302 C 0.43678 0.31074 0.41434 0.0
C303 C 0.44535 0.27953 0.32071 0.0
O304 O 0.4837 0.27833 0.13762 0.0
O305 O 0.44202 0.26785 0.11073 0.0
O306 O 0.4276 0.26955 0.27721 0.0
O307 O 0.47003 0.27473 0.30404 0.0
H308 H 0.47116 0.33422 0.13125 0.0
H309 H 0.47529 0.37357 0.05436 0.0
H310 H 0.46066 0.32094 0.88175 0.0
H311 H 0.45656 0.2821 0.9579 0.0
H312 H 0.47922 0.118 0.31467 0.0
H313 H 0.47196 0.14881 0.21908 0.0
H314 H 0.47535 0.18458 0.45565 0.0
H315 H 0.46814 0.21559 0.35965 0.0
H316 H 0.44085 0.33791 0.49921 0.0
H317 H 0.46476 0.36988 0.30324 0.0
H318 H 0.45445 0.32597 0.2508 0.0
H319 H 0.43059 0.29382 0.44626 0.0
O320 O 0.09908 0.99645 0.67807 0.0
Zn321 Zn 0.06859 0.99811 0.74814 0.0
O322 O 0.03315 0.99946 0.70226 0.0
Zn323 Zn 0.0158 0.03151 0.73379 0.0
Zn324 Zn 0.03704 0.9998 0.60419 0.0
Zn325 Zn 0.00931 0.96897 0.72049 0.0
O326 O 0.97893 0.02402 0.76964 0.0
O327 O 0.97345 0.97966 0.75773 0.0
O328 O 0.0759 0.03112 0.81009 0.0
O329 O 0.0368 0.05053 0.80735 0.0
O330 O 0.01722 0.05928 0.66177 0.0
O331 O 0.03214 0.03749 0.57121 0.0
O332 O 0.01746 0.96879 0.55202 0.0
O333 O 0.06779 0.96564 0.81068 0.0
O334 O 0.00553 0.94303 0.63988 0.0
O335 O 0.02603 0.94947 0.79472 0.0
C336 C 0.09763 0.9957 0.61308 0.0
C337 C 0.96478 0.00233 0.77682 0.0
C338 C 0.02633 0.05926 0.60161 0.0
C339 C 0.06045 0.04937 0.83 0.0
C340 C 0.00843 0.94627 0.57586 0.0
C341 C 0.04837 0.94935 0.82513 0.0
O342 O 0.07523 0.99571 0.58285 0.0
O343 O 0.50703 0.06603 0.64721 0.0
Zn344 Zn 0.51425 0.03578 0.71558 0.0
O345 O 0.52169 0.00122 0.66913 0.0
Zn346 Zn 0.49625 0.9736 0.70183 0.0
Zn347 Zn 0.51857 0.00631 0.57131 0.0
Zn348 Zn 0.55679 0.98736 0.68682 0.0
O349 O 0.5128 0.94306 0.74898 0.0
O350 O 0.55616 0.9514 0.73848 0.0
O351 O 0.48107 0.03215 0.7753 0.0
O352 O 0.47112 0.9882 0.76989 0.0
O353 O 0.47248 0.9605 0.62761 0.0
O354 O 0.48493 0.987 0.54126 0.0
O355 O 0.55172 0.99733 0.51869 0.0
O356 O 0.54614 0.04584 0.7762 0.0
O357 O 0.57924 0.9853 0.60115 0.0
O358 O 0.57446 0.01369 0.74939 0.0
C359 C 0.50723 0.06608 0.58223 0.0
C360 C 0.53663 0.93692 0.76121 0.0
C361 C 0.46833 0.97042 0.56918 0.0
C362 C 0.4666 0.01159 0.7926 0.0
C363 C 0.57452 0.98999 0.53848 0.0
C364 C 0.56867 0.03493 0.78179 0.0
O365 O 0.51211 0.04496 0.54837 0.0
O366 O 0.44876 0.49754 0.64647 0.0
Zn367 Zn 0.48196 0.49465 0.70665 0.0
O368 O 0.51466 0.49559 0.64929 0.0
Zn369 Zn 0.53236 0.46212 0.66489 0.0
Zn370 Zn 0.50593 0.50199 0.55467 0.0
Zn371 Zn 0.54006 0.52469 0.66704 0.0
O372 O 0.56997 0.46812 0.70261 0.0
O373 O 0.57233 0.51252 0.71872 0.0
O374 O 0.4777 0.46023 0.76679 0.0
O375 O 0.51396 0.43943 0.73689 0.0
O376 O 0.52682 0.4396 0.58095 0.0
O377 O 0.51142 0.46853 0.50513 0.0
O378 O 0.52415 0.53406 0.50727 0.0
O379 O 0.48517 0.52725 0.76919 0.0
O380 O 0.55035 0.54963 0.59002 0.0
O381 O 0.5216 0.54805 0.72678 0.0
C382 C 0.44664 0.50367 0.58361 0.0
C383 C 0.58181 0.48927 0.72731 0.0
C384 C 0.51681 0.44471 0.52276 0.0
C385 C 0.49284 0.44018 0.77221 0.0
C386 C 0.54142 0.55131 0.52968 0.0
C387 C 0.50161 0.54748 0.76584 0.0
O388 O 0.4669 0.50714 0.54557 0.0
O389 O 0.96913 0.52373 0.56705 0.0
Zn390 Zn 0.00262 0.53113 0.62826 0.0
O391 O 0.01231 0.49666 0.67308 0.0
Zn392 Zn 0.0089 0.49963 0.77144 0.0
Zn393 Zn 0.99081 0.46596 0.63754 0.0
Zn394 Zn 0.04828 0.48749 0.65654 0.0
O395 O 0.04311 0.49301 0.82509 0.0
O396 O 0.07103 0.49052 0.73847 0.0
O397 O 0.99601 0.56107 0.70096 0.0
O398 O 1.00037 0.53736 0.79601 0.0
O399 O 0.97622 0.47801 0.79883 0.0
O400 O 0.96549 0.45286 0.70805 0.0
O401 O 0.01151 0.43474 0.59962 0.0
O402 O 0.0337 0.54414 0.56746 0.0
O403 O 0.05256 0.45085 0.61669 0.0
O404 O 0.06311 0.51279 0.59067 0.0
C405 C 0.95786 0.50149 0.54643 0.0
C406 C 0.06673 0.49159 0.80199 0.0
C407 C 0.96065 0.46116 0.76774 0.0
C408 C 0.99579 0.55943 0.76607 0.0
C409 C 0.03658 0.43219 0.5954 0.0
C410 C 0.05639 0.53382 0.55946 0.0
O411 O 0.96571 0.47871 0.56661 0.0
C412 C 0.16952 0.98911 0.55197 0.0
C413 C 0.16783 0.99705 0.48331 0.0
C414 C 0.14694 0.98907 0.59468 0.0
C415 C 0.12202 0.99692 0.56986 0.0
H416 H 0.18816 0.98218 0.57212 0.0
H417 H 0.14888 0.98224 0.64677 0.0
S418 S 0.10859 0.02301 0.3958 0.0
N419 N 0.14022 0.01529 0.39439 0.0
N420 N 0.09813 0.01552 0.47328 0.0
C421 C 0.12066 0.00608 0.50187 0.0
C422 C 0.14346 0.00607 0.45901 0.0
C423 C 0.51187 0.12358 0.4557 0.0
C424 C 0.48516 0.13059 0.44811 0.0
C425 C 0.51915 0.10366 0.50236 0.0
C426 C 0.50001 0.09033 0.54362 0.0
H427 H 0.52711 0.13292 0.42361 0.0
H428 H 0.53976 0.09802 0.50462 0.0
S429 S 0.42735 0.10079 0.54206 0.0
N430 N 0.43949 0.12248 0.48509 0.0
N431 N 0.4532 0.08518 0.57327 0.0
C432 C 0.47332 0.09757 0.53765 0.0
C433 C 0.46588 0.11772 0.48976 0.0
C434 C 0.39253 0.53467 0.48023 0.0
C435 C 0.37496 0.51252 0.46643 0.0
C436 C 0.41489 0.53193 0.5221 0.0
C437 C 0.42034 0.50702 0.55215 0.0
H438 H 0.38954 0.554 0.45615 0.0
H439 H 0.42861 0.54916 0.52891 0.0
S440 S 0.3811 0.44266 0.53044 0.0
N441 N 0.36465 0.46479 0.48548 0.0
N442 N 0.40675 0.45971 0.56477 0.0
C443 C 0.40258 0.48488 0.54053 0.0
C444 C 0.3798 0.48763 0.49757 0.0
C445 C 0.04044 0.36335 0.5091 0.0
C446 C 0.067 0.3633 0.48648 0.0
C447 C 0.03086 0.38537 0.54567 0.0
C448 C 0.04755 0.40806 0.5616 0.0
H449 H 0.02667 0.34676 0.49597 0.0
H450 H 0.01008 0.3848 0.56033 0.0
S451 S 0.11948 0.41657 0.51862 0.0
N452 N 0.11027 0.38686 0.48621 0.0
N453 N 0.09258 0.42817 0.55467 0.0
C454 C 0.07451 0.40763 0.5416 0.0
C455 C 0.08413 0.3853 0.50411 0.0
C456 C 0.91197 0.02819 0.896 0.0
C457 C 0.89553 0.00516 0.90823 0.0
C458 C 0.93336 0.02739 0.8505 0.0
C459 C 0.93949 0.00335 0.81614 0.0
H460 H 0.90855 0.04688 0.92284 0.0
H461 H 0.94578 0.0456 0.84442 0.0
S462 S 0.90163 0.9376 0.82958 0.0
N463 N 0.88593 0.95793 0.88123 0.0
N464 N 0.92633 0.9561 0.7962 0.0
C465 C 0.92259 0.98033 0.82661 0.0
C466 C 0.90059 0.98131 0.87251 0.0
C467 C 0.56901 0.87737 0.84697 0.0
C468 C 0.55013 0.86937 0.89661 0.0
C469 C 0.56477 0.89938 0.80357 0.0
C470 C 0.54123 0.91381 0.80738 0.0
H471 H 0.58729 0.86664 0.84197 0.0
H472 H 0.57983 0.90486 0.7662 0.0
S473 S 0.4857 0.90112 0.9294 0.0
N474 N 0.50717 0.87773 0.94732 0.0
N475 N 0.49913 0.91891 0.86646 0.0
C476 C 0.52228 0.90604 0.85718 0.0
C477 C 0.52674 0.8839 0.90161 0.0
C478 C 0.64314 0.5076 0.83623 0.0
C479 C 0.64692 0.48381 0.87364 0.0
C480 C 0.6225 0.50904 0.78776 0.0
C481 C 0.60515 0.4866 0.77378 0.0
H482 H 0.65568 0.52548 0.84607 0.0
H483 H 0.61993 0.52803 0.76169 0.0
S484 S 0.60676 0.41958 0.8582 0.0
N485 N 0.63174 0.43733 0.89322 0.0
N486 N 0.5932 0.43991 0.80253 0.0
C487 C 0.60907 0.46258 0.81026 0.0
C488 C 0.62984 0.46124 0.86002 0.0
C489 C 0.00305 0.62889 0.8511 0.0
C490 C 0.98929 0.62462 0.913 0.0
C491 C 0.00369 0.60846 0.80066 0.0
C492 C 0.99055 0.5831 0.81048 0.0
H493 H 0.01446 0.64761 0.843 0.0
H494 H 0.01575 0.61198 0.75569 0.0
S495 S 0.94787 0.56355 0.95765 0.0
N496 N 0.95935 0.59438 0.97641 0.0
N497 N 0.96078 0.55625 0.88296 0.0
C498 C 0.9753 0.57941 0.86997 0.0
C499 C 0.9746 0.60006 0.92081 0.0
C500 C 0.04665 0.13079 0.55176 0.0
C501 C 0.07476 0.13034 0.55545 0.0
C502 C 0.03062 0.10775 0.56659 0.0
C503 C 0.04229 0.08346 0.58352 0.0
H504 H 0.03692 0.14852 0.53341 0.0
H505 H 0.00915 0.10867 0.5626 0.0
S506 S 0.11399 0.07308 0.61603 0.0
N507 N 0.11288 0.10479 0.59065 0.0
N508 N 0.08285 0.06116 0.6147 0.0
C509 C 0.07006 0.08326 0.59269 0.0
C510 C 0.08627 0.1068 0.57973 0.0
C511 C 0.40517 0.00726 0.56776 0.0
C512 C 0.39043 0.99424 0.51579 0.0
C513 C 0.42981 0.99783 0.58727 0.0
C514 C 0.44058 0.97543 0.55461 0.0
H515 H 0.39838 0.02576 0.59032 0.0
H516 H 0.44131 0.00914 0.62538 0.0
S517 S 0.409 0.9332 0.4195 0.0
N518 N 0.38735 0.9567 0.4353 0.0
N519 N 0.43434 0.93934 0.47197 0.0
C520 C 0.42556 0.96128 0.50548 0.0
C521 C 0.40018 0.97062 0.48616 0.0
C522 C 0.48911 0.37465 0.48309 0.0
C523 C 0.46815 0.37975 0.43791 0.0
C524 C 0.50612 0.39562 0.50663 0.0
C525 C 0.50274 0.42243 0.48574 0.0
H526 H 0.49278 0.35418 0.49909 0.0
H527 H 0.52167 0.39083 0.54255 0.0
S528 S 0.44881 0.44607 0.37186 0.0
N529 N 0.4436 0.41302 0.3762 0.0
N530 N 0.47555 0.45281 0.41883 0.0
C531 C 0.48148 0.42766 0.44059 0.0
C532 C 0.4641 0.40625 0.41742 0.0
C533 C 0.11891 0.56905 0.50198 0.0
C534 C 0.12756 0.55032 0.4538 0.0
C535 C 0.0934 0.56601 0.53079 0.0
C536 C 0.07595 0.54453 0.5109 0.0
H537 H 0.13245 0.58501 0.52044 0.0
H538 H 0.08823 0.57903 0.57276 0.0
S539 S 0.08813 0.49243 0.38029 0.0
N540 N 0.11587 0.51143 0.38237 0.0
N541 N 0.06806 0.50591 0.43626 0.0
C542 C 0.08367 0.52721 0.45863 0.0
C543 C 0.10953 0.53001 0.4302 0.0
C544 C 0.02623 0.90835 0.9722 0.0
C545 C 0.03327 0.8826 0.95048 0.0
C546 C 0.03474 0.93132 0.93582 0.0
C547 C 0.05072 0.92901 0.87766 0.0
H548 H 0.01236 0.91056 0.01381 0.0
H549 H 0.02671 0.95062 0.94928 0.0
S550 S 0.07795 0.86659 0.8074 0.0
N551 N 0.05995 0.85635 0.87339 0.0
N552 N 0.07567 0.89976 0.80461 0.0
C553 C 0.06003 0.90375 0.85977 0.0
C554 C 0.05128 0.88038 0.89635 0.0
C555 C 0.63555 0.05525 0.84778 0.0
C556 C 0.63556 0.04179 0.91086 0.0
C557 C 0.61226 0.05639 0.80883 0.0
C558 C 0.58825 0.04446 0.83227 0.0
H559 H 0.65405 0.06325 0.82623 0.0
H560 H 0.61355 0.06449 0.75765 0.0
S561 S 0.57709 0.00914 0.99624 0.0
N562 N 0.6091 0.01815 0.99714 0.0
N563 N 0.56515 0.02075 0.92392 0.0
C564 C 0.58745 0.03312 0.89766 0.0
C565 C 0.6112 0.0317 0.93715 0.0
C566 C 0.54153 0.5819 0.89502 0.0
C567 C 0.53245 0.60841 0.89398 0.0
C568 C 0.52748 0.56094 0.86282 0.0
C569 C 0.50516 0.56589 0.82248 0.0
H570 H 0.56008 0.57716 0.91973 0.0
H571 H 0.53605 0.54114 0.86279 0.0
S572 S 0.47282 0.63105 0.80024 0.0
N573 N 0.49792 0.63793 0.85292 0.0
N574 N 0.47421 0.59856 0.78174 0.0
C575 C 0.49564 0.59201 0.81981 0.0
C576 C 0.50889 0.61334 0.85715 0.0
C577 C 0.892 0.44682 0.84005 0.0
C578 C 0.87922 0.47082 0.82287 0.0
C579 C 0.91842 0.44285 0.82059 0.0
C580 C 0.93248 0.46284 0.78375 0.0
H581 H 0.8823 0.43198 0.87304 0.0
H582 H 0.92817 0.42484 0.83697 0.0
S583 S 0.90681 0.52659 0.71559 0.0
N584 N 0.88157 0.51273 0.75844 0.0
N585 N 0.93128 0.50546 0.72285 0.0
C586 C 0.91929 0.48569 0.76136 0.0
C587 C 0.89255 0.48962 0.78052 0.0
C588 C 0.07432 0.12035 0.89461 0.0
C589 C 0.08101 0.11673 0.9637 0.0
C590 C 0.06882 0.0983 0.85137 0.0
C591 C 0.07033 0.07163 0.87478 0.0
H592 H 0.07267 0.1405 0.87398 0.0
H593 H 0.06277 0.10216 0.79933 0.0
S594 S 0.08785 0.05058 0.04961 0.0
N595 N 0.08932 0.08397 0.05289 0.0
N596 N 0.0798 0.04249 0.97025 0.0
C597 C 0.07816 0.06748 0.94253 0.0
C598 C 0.08338 0.09003 0.98727 0.0
C599 C 0.41428 0.99512 0.92685 0.0
C600 C 0.39741 0.01708 0.92287 0.0
C601 C 0.43676 0.9937 0.88497 0.0
C602 C 0.44357 0.0145 0.83862 0.0
H603 H 0.40973 0.97861 0.96158 0.0
H604 H 0.44892 0.97616 0.88894 0.0
S605 S 0.40576 0.07617 0.80808 0.0
N606 N 0.38883 0.0599 0.86834 0.0
N607 N 0.43138 0.05746 0.79044 0.0
C608 C 0.42703 0.03668 0.83459 0.0
C609 C 0.40385 0.03788 0.8764 0.0
C610 C 0.46163 0.39786 0.91801 0.0
C611 C 0.47478 0.37327 0.91352 0.0
C612 C 0.46708 0.41923 0.87173 0.0
C613 C 0.48624 0.41706 0.81972 0.0
H614 H 0.4468 0.4005 0.95713 0.0
H615 H 0.45642 0.43769 0.87737 0.0
S616 S 0.52641 0.35676 0.78685 0.0
N617 N 0.5079 0.34814 0.85315 0.0
N618 N 0.51815 0.3877 0.76693 0.0
C619 C 0.49947 0.39244 0.81501 0.0
C620 C 0.49376 0.37077 0.86159 0.0
C621 C 0.11402 0.51431 0.9443 0.0
C622 C 0.13809 0.50281 0.92481 0.0
C623 C 0.09046 0.50953 0.90649 0.0
C624 C 0.09021 0.49315 0.84783 0.0
H625 H 0.11356 0.52765 0.98804 0.0
H626 H 0.07264 0.51958 0.92169 0.0
S627 S 0.14712 0.456 0.77946 0.0
N628 N 0.15949 0.47244 0.84635 0.0
N629 N 0.11557 0.46398 0.77482 0.0
C630 C 0.11391 0.48086 0.82925 0.0
C631 C 0.13775 0.48557 0.86776 0.0
C632 C 0.01159 0.87417 0.50869 0.0
C633 C 1.00031 0.87526 0.44288 0.0
C634 C 0.01351 0.89705 0.55127 0.0
C635 C 0.0046 0.92231 0.52992 0.0
H636 H 0.01938 0.85548 0.52739 0.0
H637 H 0.02266 0.89505 0.60097 0.0
S638 S 0.97171 0.93607 0.36492 0.0
N639 N 0.97852 0.90373 0.36044 0.0
N640 N 0.98309 0.94687 0.43963 0.0
C641 C 0.99319 0.92383 0.46456 0.0
C642 C 0.99083 0.90035 0.42136 0.0
C643 C 0.62254 0.01234 0.3983 0.0
C644 C 0.64262 0.99334 0.4026 0.0
C645 C 0.59997 0.01045 0.44051 0.0
C646 C 0.59678 0.98966 0.48904 0.0
H647 H 0.6247 0.02932 0.36378 0.0
H648 H 0.58546 0.02603 0.43706 0.0
S649 S 0.64171 0.93295 0.51463 0.0
N650 N 0.65622 0.95141 0.45434 0.0
N651 N 0.61441 0.94859 0.53514 0.0
C652 C 0.61617 0.97006 0.49218 0.0
C653 C 0.6389 0.97171 0.4486 0.0
C654 C 0.54711 0.62588 0.48772 0.0
C655 C 0.55291 0.6264 0.41759 0.0
C656 C 0.54454 0.60147 0.52358 0.0
C657 C 0.54717 0.57645 0.49077 0.0
H658 H 0.54378 0.64446 0.51503 0.0
H659 H 0.53943 0.60217 0.57713 0.0
S660 S 0.56467 0.56618 0.30975 0.0
N661 N 0.56348 0.59933 0.31805 0.0
N662 N 0.55715 0.55344 0.38531 0.0
C663 C 0.55334 0.57646 0.42114 0.0
C664 C 0.55657 0.6014 0.38465 0.0
C665 C 0.88997 0.47961 0.47516 0.0
C666 C 0.88665 0.49664 0.41873 0.0
C667 C 0.91292 0.4817 0.51601 0.0
C668 C 0.93348 0.50119 0.50305 0.0
H669 H 0.87481 0.46424 0.48743 0.0
H670 H 0.91452 0.46792 0.55853 0.0
S671 S 0.93448 0.5511 0.36266 0.0
N672 N 0.90586 0.53393 0.35246 0.0
N673 N 0.94891 0.53803 0.43013 0.0
C674 C 0.93033 0.51865 0.44755 0.0
C675 C 0.90703 0.51625 0.40507 0.0
loop_
_geom_bond_atom_site_label_1
_geom_bond_atom_site_label_2
_geom_bond_distance
_geom_bond_site_symmetry_2
_ccdc_geom_bond_type
C0 C1 1.264 . S
C0 C5 1.479 . S
C0 C10 1.465 . S
C1 C0 1.264 . S
C1 C3 1.339 . S
C1 H28 0.931 . S
C2 C3 1.395 . S
C2 C4 1.320 . S
C3 C1 1.339 . S
C3 C2 1.395 . S
C3 H29 0.929 . S
C4 C2 1.320 . S
C4 C5 1.405 . S
C4 H30 0.930 . S
C5 C0 1.479 . S
C5 C4 1.405 . S
C5 H31 0.931 . S
U6 O7 2.454 . S
U6 O8 2.458 1_554 S
U6 C9 2.984 . S
U6 C10 2.847 . S
U6 C23 2.882 1_554 S
U6 O24 2.441 . S
U6 O25 2.420 . S
U6 O26 2.455 1_554 S
U6 O27 2.449 . S
O7 U6 2.454 . S
O7 C9 1.353 . S
O8 U6 2.458 1_556 S
O8 C9 1.286 1_556 S
C9 U6 2.984 . S
C9 O7 1.353 . S
C9 O8 1.286 1_554 S
C9 C11 1.363 1_554 S
C10 C0 1.465 . S
C10 U6 2.847 . S
C10 O24 1.249 . S
C10 O25 1.202 . S
C11 C9 1.363 1_556 S
C11 C13 1.408 1_556 S
C11 C16 1.342 . S
C12 C13 1.310 . S
C12 C15 1.461 1_554 S
C12 H32 0.932 . S
C13 C11 1.408 1_554 S
C13 C12 1.310 . S
C13 H33 0.930 . S
C14 C15 1.474 . S
C14 C16 1.285 . S
C14 H34 0.929 . S
C15 C12 1.461 1_556 S
C15 C14 1.474 . S
C16 C11 1.342 . S
C16 C14 1.285 . S
C16 H35 0.930 . S
C17 C20 1.424 . S
C17 C22 1.245 . S
C17 C23 1.428 . S
C18 C21 1.260 . S
C18 C22 1.477 . S
C18 H36 0.932 . S
C19 C20 1.384 . S
C19 C21 1.479 . S
C19 H37 0.929 . S
C20 C17 1.424 . S
C20 C19 1.384 . S
C20 H38 0.928 . S
C21 C18 1.260 . S
C21 C19 1.479 . S
C22 C17 1.245 . S
C22 C18 1.477 . S
C22 H39 0.932 . S
C23 U6 2.882 1_556 S
C23 C17 1.428 . S
C23 O26 1.301 . S
C23 O27 1.282 1_556 S
O24 U6 2.441 . S
O24 C10 1.249 . S
O25 U6 2.420 . S
O25 C10 1.202 . S
O26 U6 2.455 1_556 S
O26 C23 1.301 . S
O27 U6 2.449 . S
O27 C23 1.282 1_554 S
H28 C1 0.931 . S
H29 C3 0.929 . S
H30 C4 0.930 . S
H31 C5 0.931 . S
H32 C12 0.932 . S
H33 C13 0.930 . S
H34 C14 0.929 . S
H35 C16 0.930 . S
H36 C18 0.932 . S
H37 C19 0.929 . S
H38 C20 0.928 . S
H39 C22 0.932 . S
C40 C41 1.264 . S
C40 C45 1.482 . S
C40 C50 1.465 . S
C41 C40 1.264 . S
C41 C43 1.339 . S
C41 H68 0.931 . S
C42 C43 1.395 1_655 S
C42 C44 1.320 . S
C43 C41 1.339 . S
C43 C42 1.395 1_455 S
C43 H69 0.929 . S
C44 C42 1.320 . S
C44 C45 1.399 1_655 S
C44 H70 0.930 . S
C45 C40 1.482 . S
C45 C44 1.399 1_455 S
C45 H71 0.934 . S
U46 O47 2.454 1_455 S
U46 O48 2.458 1_455 S
U46 C49 2.984 1_455 S
U46 C50 2.847 . S
U46 C63 2.882 . S
U46 O64 2.441 . S
U46 O65 2.420 . S
U46 O66 2.455 1_554 S
U46 O67 2.449 . S
O47 U46 2.454 1_655 S
O47 C49 1.353 . S
O48 U46 2.458 1_655 S
O48 C49 1.286 . S
C49 U46 2.984 1_655 S
C49 O47 1.353 . S
C49 O48 1.286 . S
C49 C51 1.363 . S
C50 C40 1.465 . S
C50 U46 2.847 . S
C50 O64 1.249 . S
C50 O65 1.202 . S
C51 C49 1.363 . S
C51 C53 1.408 . S
C51 C56 1.342 1_554 S
C52 C53 1.310 . S
C52 C55 1.461 . S
C52 H72 0.932 . S
C53 C51 1.408 . S
C53 C52 1.310 . S
C53 H73 0.930 . S
C54 C55 1.474 1_556 S
C54 C56 1.285 . S
C54 H74 0.929 . S
C55 C52 1.461 . S
C55 C54 1.474 1_554 S
C56 C51 1.342 1_556 S
C56 C54 1.285 . S
C56 H75 0.930 . S
C57 C60 1.424 . S
C57 C62 1.245 . S
C57 C63 1.428 1_556 S
C58 C61 1.253 1_455 S
C58 C62 1.477 . S
C58 H76 0.932 . S
C59 C60 1.384 . S
C59 C61 1.474 1_455 S
C59 H77 0.929 . S
C60 C57 1.424 . S
C60 C59 1.384 . S
C60 H78 0.928 1_556 S
C61 C58 1.253 1_655 S
C61 C59 1.474 1_655 S
C62 C57 1.245 . S
C62 C58 1.477 . S
C62 H79 0.932 . S
C63 U46 2.882 . S
C63 C57 1.428 1_554 S
C63 O66 1.301 1_554 S
C63 O67 1.282 . S
O64 U46 2.441 . S
O64 C50 1.249 . S
O65 U46 2.420 . S
O65 C50 1.202 . S
O66 U46 2.455 1_556 S
O66 C63 1.301 1_556 S
O67 U46 2.449 . S
O67 C63 1.282 . S
H68 C41 0.931 . S
H69 C43 0.929 . S
H70 C44 0.930 . S
H71 C45 0.934 . S
H72 C52 0.932 . S
H73 C53 0.930 . S
H74 C54 0.929 . S
H75 C56 0.930 . S
H76 C58 0.932 . S
H77 C59 0.929 . S
H78 C60 0.928 1_554 S
H79 C62 0.932 . S
C80 C81 1.264 . S
C80 C85 1.479 . S
C80 C90 1.465 . S
C81 C80 1.264 . S
C81 C83 1.339 . S
C81 H108 0.931 . S
C82 C83 1.395 . S
C82 C84 1.320 . S
C83 C81 1.339 . S
C83 C82 1.395 . S
C83 H109 0.929 . S
C84 C82 1.320 . S
C84 C85 1.405 . S
C84 H110 0.930 1_545 S
C85 C80 1.479 . S
C85 C84 1.405 . S
C85 H111 0.931 . S
U86 O87 2.454 . S
U86 O88 2.464 . S
U86 C89 2.984 . S
U86 C90 2.847 . S
U86 C103 2.882 1_554 S
U86 O104 2.441 . S
U86 O105 2.420 . S
U86 O106 2.455 1_554 S
U86 O107 2.449 . S
O87 U86 2.454 . S
O87 C89 1.353 . S
O88 U86 2.464 . S
O88 C89 1.292 . S
C89 U86 2.984 . S
C89 O87 1.353 . S
C89 O88 1.292 . S
C89 C91 1.363 . S
C90 C80 1.465 . S
C90 U86 2.847 . S
C90 O104 1.249 . S
C90 O105 1.202 . S
C91 C89 1.363 . S
C91 C93 1.408 . S
C91 C96 1.342 1_554 S
C92 C93 1.310 . S
C92 C95 1.460 1_544 S
C92 H112 0.932 . S
C93 C91 1.408 . S
C93 C92 1.310 . S
C93 H113 0.930 . S
C94 C95 1.475 . S
C94 C96 1.282 1_565 S
C94 H114 0.933 . S
C95 C92 1.460 1_566 S
C95 C94 1.475 . S
C96 C91 1.342 1_556 S
C96 C94 1.282 1_545 S
C96 H115 0.931 . S
C97 C100 1.424 . S
C97 C102 1.245 . S
C97 C103 1.428 . S
C98 C101 1.260 . S
C98 C102 1.477 . S
C98 H116 0.932 . S
C99 C100 1.384 . S
C99 C101 1.479 . S
C99 H117 0.929 . S
C100 C97 1.424 . S
C100 C99 1.384 . S
C100 H118 0.928 . S
C101 C98 1.260 . S
C101 C99 1.479 . S
C102 C97 1.245 . S
C102 C98 1.477 . S
C102 H119 0.932 . S
C103 U86 2.882 1_556 S
C103 C97 1.428 . S
C103 O106 1.301 . S
C103 O107 1.282 1_556 S
O104 U86 2.441 . S
O104 C90 1.249 . S
O105 U86 2.420 . S
O105 C90 1.202 . S
O106 U86 2.455 1_556 S
O106 C103 1.301 . S
O107 U86 2.449 . S
O107 C103 1.282 1_554 S
H108 C81 0.931 . S
H109 C83 0.929 . S
H110 C84 0.930 1_565 S
H111 C85 0.931 . S
H112 C92 0.932 . S
H113 C93 0.930 . S
H114 C94 0.933 . S
H115 C96 0.931 . S
H116 C98 0.932 . S
H117 C99 0.929 . S
H118 C100 0.928 . S
H119 C102 0.932 . S
C120 C121 1.264 . S
C120 C125 1.479 . S
C120 C130 1.465 . S
C121 C120 1.264 . S
C121 C123 1.339 . S
C121 H148 0.931 . S
C122 C123 1.395 . S
C122 C124 1.320 . S
C123 C121 1.339 . S
C123 C122 1.395 . S
C123 H149 0.929 . S
C124 C122 1.320 . S
C124 C125 1.405 . S
C124 H150 0.930 . S
C125 C120 1.479 . S
C125 C124 1.405 . S
C125 H151 0.931 . S
U126 O127 2.454 . S
U126 O128 2.458 1_554 S
U126 C129 2.984 . S
U126 C130 2.847 . S
U126 C143 2.882 1_554 S
U126 O144 2.441 . S
U126 O145 2.420 . S
U126 O146 2.455 1_554 S
U126 O147 2.449 . S
O127 U126 2.454 . S
O127 C129 1.353 . S
O128 U126 2.458 1_556 S
O128 C129 1.286 1_556 S
C129 U126 2.984 . S
C129 O127 1.353 . S
C129 O128 1.286 1_554 S
C129 C131 1.363 . S
C130 C120 1.465 . S
C130 U126 2.847 . S
C130 O144 1.249 . S
C130 O145 1.202 . S
C131 C129 1.363 . S
C131 C133 1.408 . S
C131 C136 1.342 1_554 S
C132 C133 1.310 . S
C132 C135 1.461 1_554 S
C132 H152 0.932 . S
C133 C131 1.408 . S
C133 C132 1.310 . S
C133 H153 0.930 . S
C134 C135 1.474 . S
C134 C136 1.285 . S
C134 H154 0.929 . S
C135 C132 1.461 1_556 S
C135 C134 1.474 . S
C136 C131 1.342 1_556 S
C136 C134 1.285 . S
C136 H155 0.930 . S
C137 C140 1.424 . S
C137 C142 1.245 . S
C137 C143 1.428 . S
C138 C141 1.260 . S
C138 C142 1.477 . S
C138 H156 0.932 . S
C139 C140 1.384 . S
C139 C141 1.479 . S
C139 H157 0.929 . S
C140 C137 1.424 . S
C140 C139 1.384 . S
C140 H158 0.928 . S
C141 C138 1.260 . S
C141 C139 1.479 . S
C142 C137 1.245 . S
C142 C138 1.477 . S
C142 H159 0.932 . S
C143 U126 2.882 1_556 S
C143 C137 1.428 . S
C143 O146 1.301 . S
C143 O147 1.282 1_556 S
O144 U126 2.441 . S
O144 C130 1.249 . S
O145 U126 2.420 . S
O145 C130 1.202 . S
O146 U126 2.455 1_556 S
O146 C143 1.301 . S
O147 U126 2.449 . S
O147 C143 1.282 1_554 S
H148 C121 0.931 . S
H149 C123 0.929 . S
H150 C124 0.930 . S
H151 C125 0.931 . S
H152 C132 0.932 . S
H153 C133 0.930 . S
H154 C134 0.929 . S
H155 C136 0.930 . S
H156 C138 0.932 . S
H157 C139 0.929 . S
H158 C140 0.928 . S
H159 C142 0.932 . S
C160 C161 1.264 . S
C160 C165 1.479 1_554 S
C160 C170 1.465 . S
C161 C160 1.264 . S
C161 C163 1.339 1_554 S
C161 H188 0.931 . S
C162 C163 1.395 . S
C162 C164 1.320 . S
C163 C161 1.339 1_556 S
C163 C162 1.395 . S
C163 H189 0.929 . S
C164 C162 1.320 . S
C164 C165 1.405 . S
C164 H190 0.930 . S
C165 C160 1.479 1_556 S
C165 C164 1.405 . S
C165 H191 0.931 1_556 S
U166 O167 2.454 . S
U166 O168 2.458 . S
U166 C169 2.984 . S
U166 C170 2.847 . S
U166 C183 2.882 . S
U166 O184 2.441 . S
U166 O185 2.420 . S
U166 O186 2.455 . S
U166 O187 2.449 . S
O167 U166 2.454 . S
O167 C169 1.353 . S
O168 U166 2.458 . S
O168 C169 1.286 . S
C169 U166 2.984 . S
C169 O167 1.353 . S
C169 O168 1.286 . S
C169 C171 1.363 . S
C170 C160 1.465 . S
C170 U166 2.847 . S
C170 O184 1.249 . S
C170 O185 1.202 . S
C171 C169 1.363 . S
C171 C173 1.408 . S
C171 C176 1.342 . S
C172 C173 1.310 . S
C172 C175 1.461 . S
C172 H192 0.932 . S
C173 C171 1.408 . S
C173 C172 1.310 . S
C173 H193 0.930 . S
C174 C175 1.474 . S
C174 C176 1.285 . S
C174 H194 0.929 . S
C175 C172 1.461 . S
C175 C174 1.474 . S
C176 C171 1.342 . S
C176 C174 1.285 . S
C176 H195 0.930 . S
C177 C180 1.424 . S
C177 C182 1.245 . S
C177 C183 1.428 . S
C178 C181 1.260 . S
C178 C182 1.477 . S
C178 H196 0.932 . S
C179 C180 1.384 . S
C179 C181 1.479 . S
C179 H197 0.929 . S
C180 C177 1.424 . S
C180 C179 1.384 . S
C180 H198 0.928 . S
C181 C178 1.260 . S
C181 C179 1.479 . S
C182 C177 1.245 . S
C182 C178 1.477 . S
C182 H199 0.932 . S
C183 U166 2.882 . S
C183 C177 1.428 . S
C183 O186 1.301 . S
C183 O187 1.282 . S
O184 U166 2.441 . S
O184 C170 1.249 . S
O185 U166 2.420 . S
O185 C170 1.202 . S
O186 U166 2.455 . S
O186 C183 1.301 . S
O187 U166 2.449 . S
O187 C183 1.282 . S
H188 C161 0.931 . S
H189 C163 0.929 . S
H190 C164 0.930 . S
H191 C165 0.931 1_554 S
H192 C172 0.932 . S
H193 C173 0.930 . S
H194 C174 0.929 . S
H195 C176 0.930 . S
H196 C178 0.932 . S
H197 C179 0.929 . S
H198 C180 0.928 . S
H199 C182 0.932 . S
C200 C201 1.264 . S
C200 C205 1.479 . S
C200 C210 1.465 . S
C201 C200 1.264 . S
C201 C203 1.339 . S
C201 H228 0.931 . S
C202 C203 1.395 . S
C202 C204 1.320 . S
C203 C201 1.339 . S
C203 C202 1.395 . S
C203 H229 0.929 . S
C204 C202 1.320 . S
C204 C205 1.405 . S
C204 H230 0.930 1_554 S
C205 C200 1.479 . S
C205 C204 1.405 . S
C205 H231 0.931 . S
U206 O207 2.454 . S
U206 O208 2.458 . S
U206 C209 2.984 . S
U206 C210 2.847 . S
U206 C223 2.882 . S
U206 O224 2.441 . S
U206 O225 2.420 . S
U206 O226 2.455 . S
U206 O227 2.449 . S
O207 U206 2.454 . S
O207 C209 1.353 . S
O208 U206 2.458 . S
O208 C209 1.286 . S
C209 U206 2.984 . S
C209 O207 1.353 . S
C209 O208 1.286 . S
C209 C211 1.363 . S
C210 C200 1.465 . S
C210 U206 2.847 . S
C210 O224 1.249 . S
C210 O225 1.202 . S
C211 C209 1.363 . S
C211 C213 1.408 . S
C211 C216 1.342 . S
C212 C213 1.310 . S
C212 C215 1.461 . S
C212 H232 0.932 . S
C213 C211 1.408 . S
C213 C212 1.310 . S
C213 H233 0.930 . S
C214 C215 1.474 . S
C214 C216 1.285 . S
C214 H234 0.929 . S
C215 C212 1.461 . S
C215 C214 1.474 . S
C216 C211 1.342 . S
C216 C214 1.285 . S
C216 H235 0.930 . S
C217 C220 1.424 . S
C217 C222 1.245 . S
C217 C223 1.428 . S
C218 C221 1.260 . S
C218 C222 1.477 . S
C218 H236 0.932 . S
C219 C220 1.384 . S
C219 C221 1.479 . S
C219 H237 0.929 . S
C220 C217 1.424 . S
C220 C219 1.384 . S
C220 H238 0.928 . S
C221 C218 1.260 . S
C221 C219 1.479 . S
C222 C217 1.245 . S
C222 C218 1.477 . S
C222 H239 0.932 . S
C223 U206 2.882 . S
C223 C217 1.428 . S
C223 O226 1.301 . S
C223 O227 1.282 . S
O224 U206 2.441 . S
O224 C210 1.249 . S
O225 U206 2.420 . S
O225 C210 1.202 . S
O226 U206 2.455 . S
O226 C223 1.301 . S
O227 U206 2.449 . S
O227 C223 1.282 . S
H228 C201 0.931 . S
H229 C203 0.929 . S
H230 C204 0.930 1_556 S
H231 C205 0.931 . S
H232 C212 0.932 . S
H233 C213 0.930 . S
H234 C214 0.929 . S
H235 C216 0.930 . S
H236 C218 0.932 . S
H237 C219 0.929 . S
H238 C220 0.928 . S
H239 C222 0.932 . S
C240 C241 1.264 . S
C240 C245 1.479 . S
C240 C250 1.465 . S
C241 C240 1.264 . S
C241 C243 1.339 . S
C241 H268 0.931 . S
C242 C243 1.395 1_556 S
C242 C244 1.320 . S
C243 C241 1.339 . S
C243 C242 1.395 1_554 S
C243 H269 0.927 1_554 S
C244 C242 1.320 . S
C244 C245 1.405 1_556 S
C244 H270 0.924 1_545 S
C245 C240 1.479 . S
C245 C244 1.405 1_554 S
C245 H271 0.931 . S
U246 O247 2.454 . S
U246 O248 2.458 . S
U246 C249 2.984 . S
U246 C250 2.847 . S
U246 C263 2.882 . S
U246 O264 2.441 . S
U246 O265 2.420 . S
U246 O266 2.455 . S
U246 O267 2.449 . S
O247 U246 2.454 . S
O247 C249 1.353 . S
O248 U246 2.458 . S
O248 C249 1.286 . S
C249 U246 2.984 . S
C249 O247 1.353 . S
C249 O248 1.286 . S
C249 C251 1.363 . S
C250 C240 1.465 . S
C250 U246 2.847 . S
C250 O264 1.249 . S
C250 O265 1.202 . S
C251 C249 1.363 . S
C251 C253 1.408 . S
C251 C256 1.342 . S
C252 C253 1.310 . S
C252 C255 1.461 1_545 S
C252 H272 0.932 . S
C253 C251 1.408 . S
C253 C252 1.310 . S
C253 H273 0.930 . S
C254 C255 1.473 . S
C254 C256 1.285 1_565 S
C254 H274 0.932 . S
C255 C252 1.461 1_565 S
C255 C254 1.473 . S
C256 C251 1.342 . S
C256 C254 1.285 1_545 S
C256 H275 0.933 . S
C257 C260 1.424 . S
C257 C262 1.245 . S
C257 C263 1.428 . S
C258 C261 1.260 . S
C258 C262 1.477 . S
C258 H276 0.932 . S
C259 C260 1.384 . S
C259 C261 1.479 . S
C259 H277 0.929 . S
C260 C257 1.424 . S
C260 C259 1.384 . S
C260 H278 0.928 . S
C261 C258 1.260 . S
C261 C259 1.479 . S
C262 C257 1.245 . S
C262 C258 1.477 . S
C262 H279 0.932 . S
C263 U246 2.882 . S
C263 C257 1.428 . S
C263 O266 1.301 . S
C263 O267 1.282 . S
O264 U246 2.441 . S
O264 C250 1.249 . S
O265 U246 2.420 . S
O265 C250 1.202 . S
O266 U246 2.455 . S
O266 C263 1.301 . S
O267 U246 2.449 . S
O267 C263 1.282 . S
H268 C241 0.931 . S
H269 C243 0.927 1_556 S
H270 C244 0.924 1_565 S
H271 C245 0.931 . S
H272 C252 0.932 . S
H273 C253 0.930 . S
H274 C254 0.932 . S
H275 C256 0.933 . S
H276 C258 0.932 . S
H277 C259 0.929 . S
H278 C260 0.928 . S
H279 C262 0.932 . S
C280 C281 1.264 . S
C280 C285 1.484 . S
C280 C290 1.465 . S
C281 C280 1.264 . S
C281 C283 1.339 1_554 S
C281 H308 0.931 . S
C282 C283 1.395 . S
C282 C284 1.320 . S
C283 C281 1.339 1_556 S
C283 C282 1.395 . S
C283 H309 0.929 . S
C284 C282 1.320 . S
C284 C285 1.398 1_556 S
C284 H310 0.930 . S
C285 C280 1.484 . S
C285 C284 1.398 1_554 S
C285 H311 0.932 . S
U286 O287 2.454 . S
U286 O288 2.458 . S
U286 C289 2.984 . S
U286 C290 2.847 . S
U286 C303 2.882 . S
U286 O304 2.441 . S
U286 O305 2.420 . S
U286 O306 2.455 . S
U286 O307 2.449 . S
O287 U286 2.454 . S
O287 C289 1.353 . S
O288 U286 2.458 . S
O288 C289 1.286 . S
C289 U286 2.984 . S
C289 O287 1.353 . S
C289 O288 1.286 . S
C289 C291 1.363 . S
C290 C280 1.465 . S
C290 U286 2.847 . S
C290 O304 1.249 . S
C290 O305 1.202 . S
C291 C289 1.363 . S
C291 C293 1.408 . S
C291 C296 1.342 . S
C292 C293 1.310 . S
C292 C295 1.461 . S
C292 H312 0.932 . S
C293 C291 1.408 . S
C293 C292 1.310 . S
C293 H313 0.930 . S
C294 C295 1.474 . S
C294 C296 1.285 . S
C294 H314 0.929 . S
C295 C292 1.461 . S
C295 C294 1.474 . S
C296 C291 1.342 . S
C296 C294 1.285 . S
C296 H315 0.930 . S
C297 C300 1.424 . S
C297 C302 1.245 . S
C297 C303 1.428 . S
C298 C301 1.260 . S
C298 C302 1.477 . S
C298 H316 0.932 . S
C299 C300 1.384 . S
C299 C301 1.479 . S
C299 H317 0.929 . S
C300 C297 1.424 . S
C300 C299 1.384 . S
C300 H318 0.928 . S
C301 C298 1.260 . S
C301 C299 1.479 . S
C302 C297 1.245 . S
C302 C298 1.477 . S
C302 H319 0.932 . S
C303 U286 2.882 . S
C303 C297 1.428 . S
C303 O306 1.301 . S
C303 O307 1.282 . S
O304 U286 2.441 . S
O304 C290 1.249 . S
O305 U286 2.420 . S
O305 C290 1.202 . S
O306 U286 2.455 . S
O306 C303 1.301 . S
O307 U286 2.449 . S
O307 C303 1.282 . S
H308 C281 0.931 . S
H309 C283 0.929 . S
H310 C284 0.930 . S
H311 C285 0.932 . S
H312 C292 0.932 . S
H313 C293 0.930 . S
H314 C294 0.929 . S
H315 C296 0.930 . S
H316 C298 0.932 . S
H317 C299 0.929 . S
H318 C300 0.928 . S
H319 C302 0.932 . S
O320 Zn321 1.953 . S
O320 C336 1.232 . S
Zn321 O320 1.953 . S
Zn321 O322 1.950 . S
Zn321 O328 1.919 1_565 S
Zn321 O333 1.924 . S
O322 Zn321 1.950 . S
O322 Zn323 1.901 1_565 S
O322 Zn324 1.953 . S
O322 Zn325 1.963 . S
Zn323 O322 1.901 1_545 S
Zn323 O326 1.933 1_455 S
Zn323 O329 1.941 . S
Zn323 O330 1.965 . S
Zn324 O322 1.953 . S
Zn324 O331 1.938 1_565 S
Zn324 O332 1.906 . S
Zn324 O342 1.953 . S
Zn325 O322 1.963 . S
Zn325 O327 1.932 1_455 S
Zn325 O334 1.977 1_455 S
Zn325 O335 1.910 . S
O326 Zn323 1.933 1_655 S
O326 C337 1.226 . S
O327 Zn325 1.932 1_655 S
O327 C337 1.307 1_565 S
O328 Zn321 1.919 1_545 S
O328 C339 1.253 . S
O329 Zn323 1.941 . S
O329 C339 1.283 . S
O330 Zn323 1.965 . S
O330 C338 1.303 . S
O331 Zn324 1.938 1_545 S
O331 C338 1.247 . S
O332 Zn324 1.906 . S
O332 C340 1.304 . S
O333 Zn321 1.924 . S
O333 C341 1.311 . S
O334 Zn325 1.977 1_655 S
O334 C340 1.272 1_655 S
O335 Zn325 1.910 . S
O335 C341 1.231 . S
C336 O320 1.232 . S
C336 O342 1.298 . S
C337 O326 1.226 . S
C337 O327 1.307 1_545 S
C338 O330 1.303 . S
C338 O331 1.247 . S
C339 O328 1.253 . S
C339 O329 1.283 . S
C340 O332 1.304 . S
C340 O334 1.272 1_455 S
C341 O333 1.311 . S
C341 O335 1.231 . S
O342 Zn324 1.953 . S
O342 C336 1.298 . S
O343 Zn344 1.953 . S
O343 C359 1.225 . S
Zn344 O343 1.953 . S
Zn344 O345 1.949 . S
Zn344 O351 1.919 . S
Zn344 O356 1.924 . S
O345 Zn344 1.949 . S
O345 Zn346 1.923 1_545 S
O345 Zn347 1.950 . S
O345 Zn348 1.945 1_545 S
Zn346 O345 1.923 1_565 S
Zn346 O349 1.933 . S
Zn346 O352 1.941 . S
Zn346 O353 1.965 . S
Zn347 O345 1.950 . S
Zn347 O354 1.938 . S
Zn347 O355 1.893 1_545 S
Zn347 O365 1.953 . S
Zn348 O345 1.945 1_565 S
Zn348 O350 1.932 . S
Zn348 O357 1.977 . S
Zn348 O358 1.910 1_565 S
O349 Zn346 1.933 . S
O349 C360 1.226 . S
O350 Zn348 1.932 . S
O350 C360 1.307 . S
O351 Zn344 1.919 . S
O351 C362 1.253 . S
O352 Zn346 1.941 . S
O352 C362 1.283 1_565 S
O353 Zn346 1.965 . S
O353 C361 1.303 . S
O354 Zn347 1.938 . S
O354 C361 1.247 1_545 S
O355 Zn347 1.893 1_565 S
O355 C363 1.323 . S
O356 Zn344 1.924 . S
O356 C364 1.311 . S
O357 Zn348 1.977 . S
O357 C363 1.272 . S
O358 Zn348 1.910 1_545 S
O358 C364 1.231 . S
C359 O343 1.225 . S
C359 O365 1.298 . S
C360 O349 1.226 . S
C360 O350 1.307 . S
C361 O353 1.303 . S
C361 O354 1.247 1_565 S
C362 O351 1.253 . S
C362 O352 1.283 1_545 S
C363 O355 1.323 . S
C363 O357 1.272 . S
C364 O356 1.311 . S
C364 O358 1.231 . S
O365 Zn347 1.953 . S
O365 C359 1.298 . S
O366 Zn367 1.953 . S
O366 C382 1.225 . S
Zn367 O366 1.953 . S
Zn367 O368 1.949 . S
Zn367 O374 1.919 . S
Zn367 O379 1.924 . S
O368 Zn367 1.949 . S
O368 Zn369 1.923 . S
O368 Zn370 1.950 . S
O368 Zn371 1.945 . S
Zn369 O368 1.923 . S
Zn369 O372 1.933 . S
Zn369 O375 1.941 . S
Zn369 O376 1.965 . S
Zn370 O368 1.950 . S
Zn370 O377 1.938 . S
Zn370 O378 1.906 . S
Zn370 O388 1.953 . S
Zn371 O368 1.945 . S
Zn371 O373 1.932 . S
Zn371 O380 1.977 . S
Zn371 O381 1.910 . S
O372 Zn369 1.933 . S
O372 C383 1.226 . S
O373 Zn371 1.932 . S
O373 C383 1.307 . S
O374 Zn367 1.919 . S
O374 C385 1.253 . S
O375 Zn369 1.941 . S
O375 C385 1.283 . S
O376 Zn369 1.965 . S
O376 C384 1.303 . S
O377 Zn370 1.938 . S
O377 C384 1.247 . S
O378 Zn370 1.906 . S
O378 C386 1.304 . S
O379 Zn367 1.924 . S
O379 C387 1.311 . S
O380 Zn371 1.977 . S
O380 C386 1.272 . S
O381 Zn371 1.910 . S
O381 C387 1.231 . S
C382 O366 1.225 . S
C382 O388 1.298 . S
C383 O372 1.226 . S
C383 O373 1.307 . S
C384 O376 1.303 . S
C384 O377 1.247 . S
C385 O374 1.253 . S
C385 O375 1.283 . S
C386 O378 1.304 . S
C386 O380 1.272 . S
C387 O379 1.311 . S
C387 O381 1.231 . S
O388 Zn370 1.953 . S
O388 C382 1.298 . S
O389 Zn390 1.953 1_655 S
O389 C405 1.225 . S
Zn390 O389 1.953 1_455 S
Zn390 O391 1.949 . S
Zn390 O397 1.919 . S
Zn390 O402 1.924 . S
O391 Zn390 1.949 . S
O391 Zn392 1.923 . S
O391 Zn393 1.950 1_455 S
O391 Zn394 1.945 . S
Zn392 O391 1.923 . S
Zn392 O395 1.933 . S
Zn392 O398 1.941 1_455 S
Zn392 O399 1.965 1_455 S
Zn393 O391 1.950 1_655 S
Zn393 O400 1.938 . S
Zn393 O401 1.906 1_655 S
Zn393 O411 1.953 . S
Zn394 O391 1.945 . S
Zn394 O396 1.932 . S
Zn394 O403 1.977 . S
Zn394 O404 1.910 . S
O395 Zn392 1.933 . S
O395 C406 1.226 . S
O396 Zn394 1.932 . S
O396 C406 1.307 . S
O397 Zn390 1.919 . S
O397 C408 1.253 . S
O398 Zn392 1.941 1_655 S
O398 C408 1.283 1_655 S
O399 Zn392 1.965 1_655 S
O399 C407 1.303 . S
O400 Zn393 1.938 . S
O400 C407 1.247 . S
O401 Zn393 1.906 1_455 S
O401 C409 1.304 . S
O402 Zn390 1.924 . S
O402 C410 1.311 . S
O403 Zn394 1.977 . S
O403 C409 1.272 . S
O404 Zn394 1.910 . S
O404 C410 1.231 . S
C405 O389 1.225 . S
C405 O411 1.298 . S
C406 O395 1.226 . S
C406 O396 1.307 . S
C407 O399 1.303 . S
C407 O400 1.247 . S
C408 O397 1.253 . S
C408 O398 1.283 1_455 S
C409 O401 1.304 . S
C409 O403 1.272 . S
C410 O402 1.311 . S
C410 O404 1.231 . S
O411 Zn393 1.953 . S
O411 C405 1.298 . S
C412 C413 1.369 . S
C412 C414 1.419 . S
C412 H416 0.930 . S
C413 C412 1.369 . S
C413 C422 1.429 1_565 S
C414 C412 1.419 . S
C414 C415 1.363 . S
C414 H417 0.929 . S
C415 C414 1.363 . S
C415 C421 1.428 1_565 S
H416 C412 0.930 . S
H417 C414 0.929 . S
S418 N419 1.613 . S
S418 N420 1.610 . S
N419 S418 1.613 . S
N419 C422 1.350 . S
N420 S418 1.610 . S
N420 C421 1.351 . S
C421 C415 1.428 1_545 S
C421 N420 1.351 . S
C421 C422 1.434 . S
C422 C413 1.429 1_545 S
C422 N419 1.350 . S
C422 C421 1.434 . S
C423 C424 1.369 . S
C423 C425 1.419 . S
C423 H427 0.930 . S
C424 C423 1.369 . S
C424 C433 1.429 . S
C425 C423 1.419 . S
C425 C426 1.363 . S
C425 H428 0.929 . S
C426 C425 1.363 . S
C426 C432 1.428 . S
H427 C423 0.930 . S
H428 C425 0.929 . S
S429 N430 1.613 . S
S429 N431 1.610 . S
N430 S429 1.613 . S
N430 C433 1.350 . S
N431 S429 1.610 . S
N431 C432 1.351 . S
C432 C426 1.428 . S
C432 N431 1.351 . S
C432 C433 1.434 . S
C433 C424 1.429 . S
C433 N430 1.350 . S
C433 C432 1.434 . S
C434 C435 1.369 . S
C434 C436 1.419 . S
C434 H438 0.930 . S
C435 C434 1.369 . S
C435 C444 1.429 . S
C436 C434 1.419 . S
C436 C437 1.363 . S
C436 H439 0.929 . S
C437 C436 1.363 . S
C437 C443 1.428 . S
H438 C434 0.930 . S
H439 C436 0.929 . S
S440 N441 1.613 . S
S440 N442 1.610 . S
N441 S440 1.613 . S
N441 C444 1.350 . S
N442 S440 1.610 . S
N442 C443 1.351 . S
C443 C437 1.428 . S
C443 N442 1.351 . S
C443 C444 1.434 . S
C444 C435 1.429 . S
C444 N441 1.350 . S
C444 C443 1.434 . S
C445 C446 1.369 . S
C445 C447 1.419 . S
C445 H449 0.930 . S
C446 C445 1.369 . S
C446 C455 1.429 . S
C447 C445 1.419 . S
C447 C448 1.363 . S
C447 H450 0.929 . S
C448 C447 1.363 . S
C448 C454 1.428 . S
H449 C445 0.930 . S
H450 C447 0.929 . S
S451 N452 1.613 . S
S451 N453 1.610 . S
N452 S451 1.613 . S
N452 C455 1.350 . S
N453 S451 1.610 . S
N453 C454 1.351 . S
C454 C448 1.428 . S
C454 N453 1.351 . S
C454 C455 1.434 . S
C455 C446 1.429 . S
C455 N452 1.350 . S
C455 C454 1.434 . S
C456 C457 1.405 . S
C456 C458 1.419 . S
C456 H460 0.930 . S
C457 C456 1.405 . S
C457 C466 1.395 1_545 S
C458 C456 1.419 . S
C458 C459 1.363 . S
C458 H461 0.929 . S
C459 C458 1.363 . S
C459 C465 1.428 1_545 S
H460 C456 0.930 . S
H461 C458 0.929 . S
S462 N463 1.613 . S
S462 N464 1.610 . S
N463 S462 1.613 . S
N463 C466 1.350 . S
N464 S462 1.610 . S
N464 C465 1.351 . S
C465 C459 1.428 1_565 S
C465 N464 1.351 . S
C465 C466 1.434 . S
C466 C457 1.395 1_565 S
C466 N463 1.350 . S
C466 C465 1.434 . S
C467 C468 1.369 . S
C467 C469 1.419 . S
C467 H471 0.930 . S
C468 C467 1.369 . S
C468 C477 1.429 . S
C469 C467 1.419 . S
C469 C470 1.363 . S
C469 H472 0.929 . S
C470 C469 1.363 . S
C470 C476 1.428 . S
H471 C467 0.930 . S
H472 C469 0.929 . S
S473 N474 1.613 . S
S473 N475 1.610 . S
N474 S473 1.613 . S
N474 C477 1.350 . S
N475 S473 1.610 . S
N475 C476 1.351 . S
C476 C470 1.428 . S
C476 N475 1.351 . S
C476 C477 1.434 . S
C477 C468 1.429 . S
C477 N474 1.350 . S
C477 C476 1.434 . S
C478 C479 1.369 . S
C478 C480 1.419 . S
C478 H482 0.930 . S
C479 C478 1.369 . S
C479 C488 1.429 . S
C480 C478 1.419 . S
C480 C481 1.363 . S
C480 H483 0.929 . S
C481 C480 1.363 . S
C481 C487 1.428 . S
H482 C478 0.930 . S
H483 C480 0.929 . S
S484 N485 1.613 . S
S484 N486 1.610 . S
N485 S484 1.613 . S
N485 C488 1.350 . S
N486 S484 1.610 . S
N486 C487 1.351 . S
C487 C481 1.428 . S
C487 N486 1.351 . S
C487 C488 1.434 . S
C488 C479 1.429 . S
C488 N485 1.350 . S
C488 C487 1.434 . S
C489 C490 1.369 1_455 S
C489 C491 1.419 . S
C489 H493 0.930 . S
C490 C489 1.369 1_655 S
C490 C499 1.429 . S
C491 C489 1.419 . S
C491 C492 1.363 . S
C491 H494 0.929 . S
C492 C491 1.363 . S
C492 C498 1.428 1_455 S
H493 C489 0.930 . S
H494 C491 0.929 . S
S495 N496 1.613 . S
S495 N497 1.610 . S
N496 S495 1.613 . S
N496 C499 1.350 . S
N497 S495 1.610 . S
N497 C498 1.351 . S
C498 C492 1.428 1_655 S
C498 N497 1.351 . S
C498 C499 1.434 . S
C499 C490 1.429 . S
C499 N496 1.350 . S
C499 C498 1.434 . S
C500 C501 1.369 . S
C500 C502 1.419 . S
C500 H504 0.930 . S
C501 C500 1.369 . S
C501 C510 1.429 . S
C502 C500 1.419 . S
C502 C503 1.363 . S
C502 H505 0.929 . S
C503 C502 1.363 . S
C503 C509 1.428 . S
H504 C500 0.930 . S
H505 C502 0.929 . S
S506 N507 1.613 . S
S506 N508 1.610 . S
N507 S506 1.613 . S
N507 C510 1.350 . S
N508 S506 1.610 . S
N508 C509 1.351 . S
C509 C503 1.428 . S
C509 N508 1.351 . S
C509 C510 1.434 . S
C510 C501 1.429 . S
C510 N507 1.350 . S
C510 C509 1.434 . S
C511 C512 1.370 . S
C511 C513 1.419 1_545 S
C511 H515 0.930 . S
C512 C511 1.370 . S
C512 C521 1.424 1_545 S
C513 C511 1.419 1_565 S
C513 C514 1.363 . S
C513 H516 0.929 1_565 S
C514 C513 1.363 . S
C514 C520 1.428 . S
H515 C511 0.930 . S
H516 C513 0.929 1_545 S
S517 N518 1.613 . S
S517 N519 1.610 . S
N518 S517 1.613 . S
N518 C521 1.350 . S
N519 S517 1.610 . S
N519 C520 1.351 . S
C520 C514 1.428 . S
C520 N519 1.351 . S
C520 C521 1.434 . S
C521 C512 1.424 1_565 S
C521 N518 1.350 . S
C521 C520 1.434 . S
C522 C523 1.369 . S
C522 C524 1.419 . S
C522 H526 0.930 . S
C523 C522 1.369 . S
C523 C532 1.429 . S
C524 C522 1.419 . S
C524 C525 1.363 . S
C524 H527 0.929 . S
C525 C524 1.363 . S
C525 C531 1.428 . S
H526 C522 0.930 . S
H527 C524 0.929 . S
S528 N529 1.613 . S
S528 N530 1.610 . S
N529 S528 1.613 . S
N529 C532 1.350 . S
N530 S528 1.610 . S
N530 C531 1.351 . S
C531 C525 1.428 . S
C531 N530 1.351 . S
C531 C532 1.434 . S
C532 C523 1.429 . S
C532 N529 1.350 . S
C532 C531 1.434 . S
C533 C534 1.369 . S
C533 C535 1.419 . S
C533 H537 0.930 . S
C534 C533 1.369 . S
C534 C543 1.429 . S
C535 C533 1.419 . S
C535 C536 1.363 . S
C535 H538 0.929 . S
C536 C535 1.363 . S
C536 C542 1.428 . S
H537 C533 0.930 . S
H538 C535 0.929 . S
S539 N540 1.613 . S
S539 N541 1.610 . S
N540 S539 1.613 . S
N540 C543 1.350 . S
N541 S539 1.610 . S
N541 C542 1.351 . S
C542 C536 1.428 . S
C542 N541 1.351 . S
C542 C543 1.434 . S
C543 C534 1.429 . S
C543 N540 1.350 . S
C543 C542 1.434 . S
C544 C545 1.369 . S
C544 C546 1.415 1_655 S
C544 H548 0.934 . S
C545 C544 1.369 . S
C545 C554 1.429 1_655 S
C546 C544 1.415 1_455 S
C546 C547 1.363 . S
C546 H549 0.929 . S
C547 C546 1.363 . S
C547 C553 1.428 . S
H548 C544 0.934 . S
H549 C546 0.929 . S
S550 N551 1.613 . S
S550 N552 1.610 . S
N551 S550 1.613 . S
N551 C554 1.350 . S
N552 S550 1.610 . S
N552 C553 1.351 . S
C553 C547 1.428 . S
C553 N552 1.351 . S
C553 C554 1.434 . S
C554 C545 1.429 1_455 S
C554 N551 1.350 . S
C554 C553 1.434 . S
C555 C556 1.377 . S
C555 C557 1.419 . S
C555 H559 0.930 . S
C556 C555 1.377 . S
C556 C565 1.436 . S
C557 C555 1.419 . S
C557 C558 1.363 . S
C557 H560 0.929 . S
C558 C557 1.363 . S
C558 C564 1.428 . S
H559 C555 0.930 . S
H560 C557 0.929 . S
S561 N562 1.632 . S
S561 N563 1.610 . S
N562 S561 1.632 . S
N562 C565 1.363 . S
N563 S561 1.610 . S
N563 C564 1.351 . S
C564 C558 1.428 . S
C564 N563 1.351 . S
C564 C565 1.434 . S
C565 C556 1.436 . S
C565 N562 1.363 . S
C565 C564 1.434 . S
C566 C567 1.369 . S
C566 C568 1.419 . S
C566 H570 0.930 . S
C567 C566 1.369 . S
C567 C576 1.429 . S
C568 C566 1.419 . S
C568 C569 1.363 . S
C568 H571 0.929 . S
C569 C568 1.363 . S
C569 C575 1.428 . S
H570 C566 0.930 . S
H571 C568 0.929 . S
S572 N573 1.613 . S
S572 N574 1.610 . S
N573 S572 1.613 . S
N573 C576 1.350 . S
N574 S572 1.610 . S
N574 C575 1.351 . S
C575 C569 1.428 . S
C575 N574 1.351 . S
C575 C576 1.434 . S
C576 C567 1.429 . S
C576 N573 1.350 . S
C576 C575 1.434 . S
C577 C578 1.369 . S
C577 C579 1.419 . S
C577 H581 0.930 . S
C578 C577 1.369 . S
C578 C587 1.429 . S
C579 C577 1.419 . S
C579 C580 1.363 . S
C579 H582 0.929 . S
C580 C579 1.363 . S
C580 C586 1.428 . S
H581 C577 0.930 . S
H582 C579 0.929 . S
S583 N584 1.613 . S
S583 N585 1.610 . S
N584 S583 1.613 . S
N584 C587 1.350 . S
N585 S583 1.610 . S
N585 C586 1.351 . S
C586 C580 1.428 . S
C586 N585 1.351 . S
C586 C587 1.434 . S
C587 C578 1.429 . S
C587 N584 1.350 . S
C587 C586 1.434 . S
C588 C589 1.369 . S
C588 C590 1.419 . S
C588 H592 0.930 . S
C589 C588 1.369 . S
C589 C598 1.429 . S
C590 C588 1.419 . S
C590 C591 1.363 . S
C590 H593 0.929 . S
C591 C590 1.363 . S
C591 C597 1.428 . S
H592 C588 0.930 . S
H593 C590 0.929 . S
S594 N595 1.613 . S
S594 N596 1.610 . S
N595 S594 1.613 . S
N595 C598 1.350 1_554 S
N596 S594 1.610 . S
N596 C597 1.351 1_554 S
C597 C591 1.428 . S
C597 N596 1.351 1_556 S
C597 C598 1.434 . S
C598 C589 1.429 . S
C598 N595 1.350 1_556 S
C598 C597 1.434 . S
C599 C600 1.364 1_565 S
C599 C601 1.419 . S
C599 H603 0.930 . S
C600 C599 1.364 1_545 S
C600 C609 1.434 . S
C601 C599 1.419 . S
C601 C602 1.366 . S
C601 H604 0.929 . S
C602 C601 1.366 . S
C602 C608 1.425 1_565 S
H603 C599 0.930 . S
H604 C601 0.929 . S
S605 N606 1.613 . S
S605 N607 1.610 . S
N606 S605 1.613 . S
N606 C609 1.350 . S
N607 S605 1.610 . S
N607 C608 1.351 . S
C608 C602 1.425 1_545 S
C608 N607 1.351 . S
C608 C609 1.434 . S
C609 C600 1.434 . S
C609 N606 1.350 . S
C609 C608 1.434 . S
C610 C611 1.369 . S
C610 C612 1.419 . S
C610 H614 0.930 . S
C611 C610 1.369 . S
C611 C620 1.429 . S
C612 C610 1.419 . S
C612 C613 1.363 . S
C612 H615 0.929 . S
C613 C612 1.363 . S
C613 C619 1.428 . S
H614 C610 0.930 . S
H615 C612 0.929 . S
S616 N617 1.613 . S
S616 N618 1.610 . S
N617 S616 1.613 . S
N617 C620 1.350 . S
N618 S616 1.610 . S
N618 C619 1.351 . S
C619 C613 1.428 . S
C619 N618 1.351 . S
C619 C620 1.434 . S
C620 C611 1.429 . S
C620 N617 1.350 . S
C620 C619 1.434 . S
C621 C622 1.369 . S
C621 C623 1.419 . S
C621 H625 0.930 . S
C622 C621 1.369 . S
C622 C631 1.429 . S
C623 C621 1.419 . S
C623 C624 1.363 . S
C623 H626 0.929 . S
C624 C623 1.363 . S
C624 C630 1.428 . S
H625 C621 0.930 . S
H626 C623 0.929 . S
S627 N628 1.613 . S
S627 N629 1.610 . S
N628 S627 1.613 . S
N628 C631 1.350 . S
N629 S627 1.610 . S
N629 C630 1.351 . S
C630 C624 1.428 . S
C630 N629 1.351 . S
C630 C631 1.434 . S
C631 C622 1.429 . S
C631 N628 1.350 . S
C631 C630 1.434 . S
C632 C633 1.369 1_455 S
C632 C634 1.419 . S
C632 H636 0.930 . S
C633 C632 1.369 1_655 S
C633 C642 1.429 . S
C634 C632 1.419 . S
C634 C635 1.363 1_455 S
C634 H637 0.929 . S
C635 C634 1.363 1_655 S
C635 C641 1.428 . S
H636 C632 0.930 . S
H637 C634 0.929 . S
S638 N639 1.613 . S
S638 N640 1.610 . S
N639 S638 1.613 . S
N639 C642 1.350 . S
N640 S638 1.610 . S
N640 C641 1.351 . S
C641 C635 1.428 . S
C641 N640 1.351 . S
C641 C642 1.434 . S
C642 C633 1.429 . S
C642 N639 1.350 . S
C642 C641 1.434 . S
C643 C644 1.369 1_545 S
C643 C645 1.419 . S
C643 H647 0.930 . S
C644 C643 1.369 1_565 S
C644 C653 1.429 . S
C645 C643 1.419 . S
C645 C646 1.363 1_545 S
C645 H648 0.929 . S
C646 C645 1.363 1_565 S
C646 C652 1.428 . S
H647 C643 0.930 . S
H648 C645 0.929 . S
S649 N650 1.613 . S
S649 N651 1.610 . S
N650 S649 1.613 . S
N650 C653 1.350 . S
N651 S649 1.610 . S
N651 C652 1.351 . S
C652 C646 1.428 . S
C652 N651 1.351 . S
C652 C653 1.434 . S
C653 C644 1.429 . S
C653 N650 1.350 . S
C653 C652 1.434 . S
C654 C655 1.369 . S
C654 C656 1.419 . S
C654 H658 0.930 . S
C655 C654 1.369 . S
C655 C664 1.429 . S
C656 C654 1.419 . S
C656 C657 1.363 . S
C656 H659 0.929 . S
C657 C656 1.363 . S
C657 C663 1.428 . S
H658 C654 0.930 . S
H659 C656 0.929 . S
S660 N661 1.613 . S
S660 N662 1.610 . S
N661 S660 1.613 . S
N661 C664 1.350 . S
N662 S660 1.610 . S
N662 C663 1.351 . S
C663 C657 1.428 . S
C663 N662 1.351 . S
C663 C664 1.434 . S
C664 C655 1.429 . S
C664 N661 1.350 . S
C664 C663 1.434 . S
C665 C666 1.369 . S
C665 C667 1.419 . S
C665 H669 0.930 . S
C666 C665 1.369 . S
C666 C675 1.429 . S
C667 C665 1.419 . S
C667 C668 1.363 . S
C667 H670 0.929 . S
C668 C667 1.363 . S
C668 C674 1.428 . S
H669 C665 0.930 . S
H670 C667 0.929 . S
S671 N672 1.613 . S
S671 N673 1.610 . S
N672 S671 1.613 . S
N672 C675 1.350 . S
N673 S671 1.610 . S
N673 C674 1.351 . S
C674 C668 1.428 . S
C674 N673 1.351 . S
C674 C675 1.434 . S
C675 C666 1.429 . S
C675 N672 1.350 . S
C675 C674 1.434 . S
C413 C255 1.891 . S
C415 C336 1.890 . S
C426 C359 2.092 . S
C424 C295 2.080 . S
C437 C382 1.921 . S
C435 C175 1.894 . S
C448 C409 1.787 . S
C446 C215 1.910 . S
C459 C337 1.746 . S
C457 C95 1.726 1_545 S
C468 C135 1.810 . S
C470 C360 1.860 . S
C479 C15 1.661 . S
C481 C383 1.686 . S
C490 C55 1.894 1_556 S
C492 C408 1.924 . S
C503 C338 0.911 . S
C501 C221 0.839 . S
C514 C361 0.477 . S
C512 C261 0.642 . S
C525 C384 0.676 . S
C523 C301 0.686 . S
C534 C181 0.695 . S
C536 C410 0.746 . S
C545 C61 0.803 . S
C547 C341 0.815 . S
C558 C364 0.758 . S
C556 C101 0.755 . S
C569 C387 0.876 . S
C567 C141 0.863 . S
C578 C21 0.586 . S
C580 C407 0.376 . S
C589 C202 2.218 1_556 S
C591 C339 2.142 . S
C600 C242 2.126 . S
C602 C362 2.120 1_565 S
C613 C385 2.185 . S
C611 C282 2.212 . S
C624 C406 2.009 . S
C622 C162 1.868 . S
C633 C42 2.257 . S
C635 C340 2.207 1_655 S
C646 C363 2.023 . S
C644 C82 2.106 1_565 S
C657 C386 2.047 . S
C655 C122 2.074 . S
C666 C2 2.232 . S
C668 C405 2.306 . S
