# Generated by pormake.
# Topology eea, (3,6)-cn, num edge types: 1
# Building blocks:
#     Node 0, Type 0, BuildingBlock: WUSLED_clean_sbu_0, # of connection points: 3
#     Node 1, Type 0, BuildingBlock: WUSLED_clean_sbu_0, # of connection points: 3
#     Node 2, Type 0, BuildingBlock: WUSLED_clean_sbu_0, # of connection points: 3
#     Node 3, Type 0, BuildingBlock: WUSLED_clean_sbu_0, # of connection points: 3
#     Node 4, Type 0, BuildingBlock: WUSLED_clean_sbu_0, # of connection points: 3
#     Node 5, Type 0, BuildingBlock: WUSLED_clean_sbu_0, # of connection points: 3
#     Node 6, Type 0, BuildingBlock: WUSLED_clean_sbu_0, # of connection points: 3
#     Node 7, Type 0, BuildingBlock: WUSLED_clean_sbu_0, # of connection points: 3
#     Node 8, Type 0, BuildingBlock: WUSLED_clean_sbu_0, # of connection points: 3
#     Node 9, Type 0, BuildingBlock: WUSLED_clean_sbu_0, # of connection points: 3
#     Node 10, Type 0, BuildingBlock: WUSLED_clean_sbu_0, # of connection points: 3
#     Node 11, Type 0, BuildingBlock: WUSLED_clean_sbu_0, # of connection points: 3
#     Node 12, Type 0, BuildingBlock: WUSLED_clean_sbu_0, # of connection points: 3
#     Node 13, Type 0, BuildingBlock: WUSLED_clean_sbu_0, # of connection points: 3
#     Node 14, Type 0, BuildingBlock: WUSLED_clean_sbu_0, # of connection points: 3
#     Node 15, Type 0, BuildingBlock: WUSLED_clean_sbu_0, # of connection points: 3
#     Node 16, Type 0, BuildingBlock: WUSLED_clean_sbu_0, # of connection points: 3
#     Node 17, Type 0, BuildingBlock: WUSLED_clean_sbu_0, # of connection points: 3
#     Node 18, Type 1, BuildingBlock: CUWYAW_clean_sbu_0, # of connection points: 6
#     Node 19, Type 1, BuildingBlock: CUWYAW_clean_sbu_0, # of connection points: 6
#     Node 20, Type 1, BuildingBlock: CUWYAW_clean_sbu_0, # of connection points: 6
#     Node 21, Type 1, BuildingBlock: CUWYAW_clean_sbu_0, # of connection points: 6
#     Node 22, Type 1, BuildingBlock: CUWYAW_clean_sbu_0, # of connection points: 6
#     Node 23, Type 1, BuildingBlock: CUWYAW_clean_sbu_0, # of connection points: 6
#     Node 24, Type 1, BuildingBlock: CUWYAW_clean_sbu_0, # of connection points: 6
#     Node 25, Type 1, BuildingBlock: CUWYAW_clean_sbu_0, # of connection points: 6
#     Node 26, Type 1, BuildingBlock: CUWYAW_clean_sbu_0, # of connection points: 6
#     Edge 27, Type (0, 1), BuildingBlock: KIFKEQ_clean_linker_1, # of connection points: 2
#     Edge 28, Type (0, 1), BuildingBlock: KIFKEQ_clean_linker_1, # of connection points: 2
#     Edge 29, Type (0, 1), BuildingBlock: KIFKEQ_clean_linker_1, # of connection points: 2
#     Edge 30, Type (0, 1), BuildingBlock: KIFKEQ_clean_linker_1, # of connection points: 2
#     Edge 31, Type (0, 1), BuildingBlock: KIFKEQ_clean_linker_1, # of connection points: 2
#     Edge 32, Type (0, 1), BuildingBlock: KIFKEQ_clean_linker_1, # of connection points: 2
#     Edge 33, Type (0, 1), BuildingBlock: KIFKEQ_clean_linker_1, # of connection points: 2
#     Edge 34, Type (0, 1), BuildingBlock: KIFKEQ_clean_linker_1, # of connection points: 2
#     Edge 35, Type (0, 1), BuildingBlock: KIFKEQ_clean_linker_1, # of connection points: 2
#     Edge 36, Type (0, 1), BuildingBlock: KIFKEQ_clean_linker_1, # of connection points: 2
#     Edge 37, Type (0, 1), BuildingBlock: KIFKEQ_clean_linker_1, # of connection points: 2
#     Edge 38, Type (0, 1), BuildingBlock: KIFKEQ_clean_linker_1, # of connection points: 2
#     Edge 39, Type (0, 1), BuildingBlock: KIFKEQ_clean_linker_1, # of connection points: 2
#     Edge 40, Type (0, 1), BuildingBlock: KIFKEQ_clean_linker_1, # of connection points: 2
#     Edge 41, Type (0, 1), BuildingBlock: KIFKEQ_clean_linker_1, # of connection points: 2
#     Edge 42, Type (0, 1), BuildingBlock: KIFKEQ_clean_linker_1, # of connection points: 2
#     Edge 43, Type (0, 1), BuildingBlock: KIFKEQ_clean_linker_1, # of connection points: 2
#     Edge 44, Type (0, 1), BuildingBlock: KIFKEQ_clean_linker_1, # of connection points: 2
#     Edge 45, Type (0, 1), BuildingBlock: KIFKEQ_clean_linker_1, # of connection points: 2
#     Edge 46, Type (0, 1), BuildingBlock: KIFKEQ_clean_linker_1, # of connection points: 2
#     Edge 47, Type (0, 1), BuildingBlock: KIFKEQ_clean_linker_1, # of connection points: 2
#     Edge 48, Type (0, 1), BuildingBlock: KIFKEQ_clean_linker_1, # of connection points: 2
#     Edge 49, Type (0, 1), BuildingBlock: KIFKEQ_clean_linker_1, # of connection points: 2
#     Edge 50, Type (0, 1), BuildingBlock: KIFKEQ_clean_linker_1, # of connection points: 2
#     Edge 51, Type (0, 1), BuildingBlock: KIFKEQ_clean_linker_1, # of connection points: 2
#     Edge 52, Type (0, 1), BuildingBlock: KIFKEQ_clean_linker_1, # of connection points: 2
#     Edge 53, Type (0, 1), BuildingBlock: KIFKEQ_clean_linker_1, # of connection points: 2
#     Edge 54, Type (0, 1), BuildingBlock: KIFKEQ_clean_linker_1, # of connection points: 2
#     Edge 55, Type (0, 1), BuildingBlock: KIFKEQ_clean_linker_1, # of connection points: 2
#     Edge 56, Type (0, 1), BuildingBlock: KIFKEQ_clean_linker_1, # of connection points: 2
#     Edge 57, Type (0, 1), BuildingBlock: KIFKEQ_clean_linker_1, # of connection points: 2
#     Edge 58, Type (0, 1), BuildingBlock: KIFKEQ_clean_linker_1, # of connection points: 2
#     Edge 59, Type (0, 1), BuildingBlock: KIFKEQ_clean_linker_1, # of connection points: 2
#     Edge 60, Type (0, 1), BuildingBlock: KIFKEQ_clean_linker_1, # of connection points: 2
#     Edge 61, Type (0, 1), BuildingBlock: KIFKEQ_clean_linker_1, # of connection points: 2
#     Edge 62, Type (0, 1), BuildingBlock: KIFKEQ_clean_linker_1, # of connection points: 2
#     Edge 63, Type (0, 1), BuildingBlock: KIFKEQ_clean_linker_1, # of connection points: 2
#     Edge 64, Type (0, 1), BuildingBlock: KIFKEQ_clean_linker_1, # of connection points: 2
#     Edge 65, Type (0, 1), BuildingBlock: KIFKEQ_clean_linker_1, # of connection points: 2
#     Edge 66, Type (0, 1), BuildingBlock: KIFKEQ_clean_linker_1, # of connection points: 2
#     Edge 67, Type (0, 1), BuildingBlock: KIFKEQ_clean_linker_1, # of connection points: 2
#     Edge 68, Type (0, 1), BuildingBlock: KIFKEQ_clean_linker_1, # of connection points: 2
#     Edge 69, Type (0, 1), BuildingBlock: KIFKEQ_clean_linker_1, # of connection points: 2
#     Edge 70, Type (0, 1), BuildingBlock: KIFKEQ_clean_linker_1, # of connection points: 2
#     Edge 71, Type (0, 1), BuildingBlock: KIFKEQ_clean_linker_1, # of connection points: 2
#     Edge 72, Type (0, 1), BuildingBlock: KIFKEQ_clean_linker_1, # of connection points: 2
#     Edge 73, Type (0, 1), BuildingBlock: KIFKEQ_clean_linker_1, # of connection points: 2
#     Edge 74, Type (0, 1), BuildingBlock: KIFKEQ_clean_linker_1, # of connection points: 2
#     Edge 75, Type (0, 1), BuildingBlock: KIFKEQ_clean_linker_1, # of connection points: 2
#     Edge 76, Type (0, 1), BuildingBlock: KIFKEQ_clean_linker_1, # of connection points: 2
#     Edge 77, Type (0, 1), BuildingBlock: KIFKEQ_clean_linker_1, # of connection points: 2
#     Edge 78, Type (0, 1), BuildingBlock: KIFKEQ_clean_linker_1, # of connection points: 2
#     Edge 79, Type (0, 1), BuildingBlock: KIFKEQ_clean_linker_1, # of connection points: 2
#     Edge 80, Type (0, 1), BuildingBlock: KIFKEQ_clean_linker_1, # of connection points: 2
# Relax obj value: 0.035
# Max RMSD: 0.129
# Mean RMSD: 0.074
data_MOF--net-eea--node1-WUSLED_clean_sbu_0--node2-CUWYAW_clean_sbu_0--edge1-KIFKEQ_clean_linker_1
_symmetry_space_group_name_H-M    P1
_symmetry_Int_Tables_number       1
_symmetry_cell_setting            triclinic
loop_
_symmetry_equiv_pos_as_xyz
'x, y, z'
_cell_length_a     67.719049
_cell_length_b     67.196034
_cell_length_c     93.489506
_cell_angle_alpha  92.954342
_cell_angle_beta   93.514657
_cell_angle_gamma 119.91142
loop_
_atom_site_label
_atom_site_type_symbol
_atom_site_fract_x
_atom_site_fract_y
_atom_site_fract_z
_atom_type_partial_charge
C0 C 0.23416 0.16773 0.40206 0.0
C1 C 0.228 0.18017 0.41153 0.0
C2 C 0.2261 0.20233 0.39222 0.0
C3 C 0.22388 0.19721 0.40663 0.0
C4 C 0.2329 0.19028 0.38287 0.0
C5 C 0.2368 0.17307 0.38775 0.0
U6 U 0.25148 0.14035 0.4313 0.0
O7 O 0.23444 0.10457 0.43705 0.0
O8 O 0.2693 0.12053 0.43046 0.0
C9 C 0.25149 0.10161 0.43386 0.0
C10 C 0.23734 0.14887 0.40685 0.0
C11 C 0.24499 0.08001 0.42506 0.0
C12 C 0.2284 0.03842 0.42363 0.0
C13 C 0.23468 0.05927 0.43153 0.0
C14 C 0.24281 0.05875 0.40259 0.0
C15 C 0.23238 0.03789 0.40907 0.0
C16 C 0.24897 0.07964 0.41051 0.0
C17 C 0.27301 0.17082 0.46898 0.0
C18 C 0.27751 0.151 0.48882 0.0
C19 C 0.29101 0.19194 0.49232 0.0
C20 C 0.28355 0.19149 0.47796 0.0
C21 C 0.288 0.17168 0.49796 0.0
C22 C 0.27015 0.1506 0.47446 0.0
C23 C 0.26499 0.17043 0.45395 0.0
O24 O 0.25865 0.15409 0.41012 0.0
O25 O 0.22343 0.13636 0.41612 0.0
O26 O 0.2434 0.15503 0.45006 0.0
O27 O 0.27875 0.1712 0.4444 0.0
H28 H 0.2261 0.17652 0.42268 0.0
H29 H 0.21895 0.20641 0.41413 0.0
H30 H 0.23459 0.19371 0.37169 0.0
H31 H 0.24159 0.1637 0.38029 0.0
H32 H 0.22066 0.02272 0.42898 0.0
H33 H 0.23154 0.0592 0.44276 0.0
H34 H 0.2459 0.05886 0.39136 0.0
H35 H 0.2568 0.09545 0.40526 0.0
H36 H 0.27462 0.13502 0.49282 0.0
H37 H 0.29934 0.20822 0.49897 0.0
H38 H 0.286 0.20728 0.47386 0.0
H39 H 0.26206 0.13447 0.46764 0.0
C40 C 0.95048 0.16946 0.41253 0.0
C41 C 0.97038 0.18237 0.42209 0.0
C42 C 0.99117 0.20415 0.40263 0.0
C43 C 0.99054 0.19951 0.41717 0.0
C44 C 0.97096 0.1915 0.39322 0.0
C45 C 0.95089 0.17433 0.39812 0.0
U46 U 0.90737 0.14037 0.44031 0.0
O47 O 0.86976 0.11994 0.4372 0.0
O48 O 0.88936 0.10402 0.44501 0.0
C49 C 0.86913 0.10091 0.44063 0.0
C50 C 0.92934 0.1504 0.41715 0.0
C51 C 0.85415 0.07988 0.43096 0.0
C52 C 0.83774 0.05985 0.4071 0.0
C53 C 0.85257 0.08013 0.41593 0.0
C54 C 0.82625 0.03887 0.4282 0.0
C55 C 0.82431 0.03896 0.41313 0.0
C56 C 0.84097 0.05912 0.437 0.0
C57 C 0.9154 0.16887 0.47805 0.0
C58 C 0.88528 0.15331 0.49409 0.0
C59 C 0.92365 0.18306 0.50339 0.0
C60 C 0.93088 0.18351 0.48964 0.0
C61 C 0.90073 0.16795 0.50581 0.0
C62 C 0.89257 0.1537 0.48037 0.0
C63 C 0.9233 0.16929 0.46368 0.0
O64 O 0.93207 0.13841 0.42697 0.0
O65 O 0.91289 0.15487 0.41932 0.0
O66 O 0.91041 0.17041 0.45301 0.0
O67 O 0.92985 0.15427 0.46067 0.0
H68 H 0.97045 0.17898 0.43329 0.0
H69 H 1.00577 0.20872 0.42471 0.0
H70 H 0.97061 0.19486 0.38203 0.0
H71 H 0.93569 0.16466 0.3906 0.0
H72 H 0.83656 0.06062 0.39556 0.0
H73 H 0.86266 0.09599 0.41105 0.0
H74 H 0.81656 0.02308 0.43324 0.0
H75 H 0.84206 0.05856 0.44857 0.0
H76 H 0.86746 0.14168 0.49546 0.0
H77 H 0.93612 0.19432 0.51216 0.0
H78 H 0.94861 0.19522 0.48807 0.0
H79 H 0.88036 0.14219 0.47155 0.0
C80 C 0.87385 0.79541 0.4137 0.0
C81 C 0.86248 0.80084 0.42392 0.0
C82 C 0.83688 0.80168 0.40477 0.0
C83 C 0.84423 0.80409 0.41949 0.0
C84 C 0.84822 0.79602 0.39461 0.0
C85 C 0.86656 0.79297 0.39904 0.0
U86 U 0.90528 0.77801 0.44098 0.0
O87 O 0.9226 0.75797 0.43771 0.0
O88 O 0.94199 0.79354 0.44786 0.0
C89 C 0.94282 0.77549 0.44256 0.0
C90 C 0.89313 0.79198 0.41813 0.0
C91 C 0.9615 0.78028 0.43351 0.0
C92 C 0.98647 0.80183 0.41558 0.0
C93 C 0.96794 0.79687 0.42355 0.0
C94 C 0.99185 0.7732 0.42714 0.0
C95 C 0.99883 0.79021 0.41739 0.0
C96 C 0.97342 0.76834 0.43512 0.0
C97 C 0.87876 0.75792 0.47655 0.0
C98 C 0.89753 0.75897 0.49986 0.0
C99 C 0.8564 0.73465 0.49487 0.0
C100 C 0.85765 0.74196 0.48107 0.0
C101 C 0.87628 0.74326 0.5045 0.0
C102 C 0.89878 0.76617 0.48598 0.0
C103 C 0.87919 0.7663 0.46224 0.0
O104 O 0.90751 0.80617 0.42892 0.0
O105 O 0.88778 0.77045 0.41907 0.0
O106 O 0.87601 0.7518 0.45116 0.0
O107 O 0.89527 0.78761 0.46094 0.0
H108 H 0.86769 0.80257 0.43532 0.0
H109 H 0.83569 0.80818 0.42757 0.0
H110 H 0.84313 0.7943 0.38319 0.0
H111 H 0.87509 0.78874 0.391 0.0
H112 H 0.99146 0.81516 0.40828 0.0
H113 H 0.95888 0.80623 0.42209 0.0
H114 H 1.00064 0.76359 0.42862 0.0
H115 H 0.96859 0.75536 0.44268 0.0
H116 H 0.91317 0.76572 0.50697 0.0
H117 H 0.83975 0.72276 0.49816 0.0
H118 H 0.84201 0.73544 0.47397 0.0
H119 H 0.91531 0.7784 0.4827 0.0
C120 C 0.08129 0.23514 0.62572 0.0
C121 C 0.06151 0.22758 0.6162 0.0
C122 C 0.04026 0.22834 0.6362 0.0
C123 C 0.04117 0.22417 0.6214 0.0
C124 C 0.06035 0.23647 0.6456 0.0
C125 C 0.08059 0.23977 0.6404 0.0
U126 U 0.125 0.24911 0.59782 0.0
O127 O 0.1627 0.26761 0.60139 0.0
O128 O 0.14385 0.23156 0.59206 0.0
C129 C 0.16378 0.24921 0.59728 0.0
C130 C 0.10261 0.23763 0.62077 0.0
C131 C 0.17857 0.24413 0.60683 0.0
C132 C 0.18406 0.21949 0.62286 0.0
C133 C 0.16948 0.22457 0.61458 0.0
C134 C 0.21694 0.2538 0.61617 0.0
C135 C 0.20797 0.23396 0.62366 0.0
C136 C 0.20238 0.25876 0.60781 0.0
C137 C 0.11697 0.26773 0.56109 0.0
C138 C 0.13719 0.26666 0.5407 0.0
C139 C 0.11851 0.2894 0.54074 0.0
C140 C 0.11129 0.28253 0.55426 0.0
C141 C 0.1315 0.2815 0.53375 0.0
C142 C 0.1301 0.25994 0.55426 0.0
C143 C 0.10923 0.26072 0.57533 0.0
O144 O 0.10026 0.22253 0.6103 0.0
O145 O 0.11882 0.25878 0.61927 0.0
O146 O 0.12201 0.2755 0.58637 0.0
O147 O 0.10278 0.23923 0.57751 0.0
H148 H 0.06167 0.22397 0.60479 0.0
H149 H 0.02602 0.21774 0.61386 0.0
H150 H 0.06046 0.24032 0.657 0.0
H151 H 0.0957 0.24574 0.64791 0.0
H152 H 0.17662 0.20423 0.62865 0.0
H153 H 0.15114 0.21307 0.6141 0.0
H154 H 0.23527 0.26516 0.61644 0.0
H155 H 0.20976 0.27391 0.6019 0.0
H156 H 0.1469 0.25998 0.53561 0.0
H157 H 0.11413 0.30116 0.53588 0.0
H158 H 0.10132 0.28887 0.55941 0.0
H159 H 0.13479 0.24858 0.55938 0.0
C160 C 0.79845 0.86397 0.63984 0.0
C161 C 0.78365 0.84049 0.63534 0.0
C162 C 0.80637 0.83011 0.65125 0.0
C163 C 0.78754 0.82371 0.64103 0.0
C164 C 0.82124 0.85372 0.65555 0.0
C165 C 0.81726 0.87041 0.64994 0.0
U166 U 0.77979 0.88936 0.60956 0.0
O167 O 0.76187 0.90908 0.61028 0.0
O168 O 0.79663 0.92502 0.60356 0.0
C169 C 0.77967 0.92802 0.60691 0.0
C170 C 0.79485 0.88209 0.63415 0.0
C171 C 0.78635 0.94943 0.61599 0.0
C172 C 0.78942 0.97001 0.63896 0.0
C173 C 0.78301 0.94935 0.63068 0.0
C174 C 0.8029 0.99104 0.61805 0.0
C175 C 0.79951 0.9911 0.63274 0.0
C176 C 0.79633 0.9704 0.60977 0.0
C177 C 0.75745 0.85785 0.57214 0.0
C178 C 0.74415 0.87352 0.5535 0.0
C179 C 0.74937 0.84108 0.54736 0.0
C180 C 0.75639 0.84142 0.56181 0.0
C181 C 0.74328 0.85722 0.543 0.0
C182 C 0.75124 0.87388 0.56792 0.0
C183 C 0.76589 0.85874 0.58716 0.0
O184 O 0.80837 0.89359 0.62446 0.0
O185 O 0.77347 0.87679 0.63101 0.0
O186 O 0.75241 0.85813 0.59688 0.0
O187 O 0.78749 0.87436 0.59074 0.0
H188 H 0.76907 0.83511 0.62748 0.0
H189 H 0.77562 0.80572 0.63755 0.0
H190 H 0.83617 0.85938 0.66315 0.0
H191 H 0.82898 0.88845 0.65346 0.0
H192 H 0.78682 0.96954 0.65028 0.0
H193 H 0.77549 0.93337 0.63575 0.0
H194 H 0.81039 1.00695 0.61291 0.0
H195 H 0.79903 0.97082 0.59845 0.0
H196 H 0.73929 0.88599 0.55058 0.0
H197 H 0.74923 0.82851 0.53957 0.0
H198 H 0.76129 0.82903 0.56488 0.0
H199 H 0.75203 0.88676 0.57577 0.0
C200 C 0.08046 0.85922 0.62974 0.0
C201 C 0.06121 0.84536 0.61986 0.0
C202 C 0.03969 0.82404 0.63922 0.0
C203 C 0.04099 0.82799 0.62456 0.0
C204 C 0.05922 0.83765 0.64899 0.0
C205 C 0.07936 0.85508 0.64429 0.0
U206 U 0.12347 0.88913 0.60208 0.0
O207 O 0.14091 0.92554 0.59746 0.0
O208 O 0.16104 0.9101 0.60517 0.0
C209 C 0.1613 0.92896 0.60174 0.0
C210 C 0.10153 0.87855 0.62526 0.0
C211 C 0.17628 0.95014 0.61131 0.0
C212 C 0.19348 0.97039 0.63503 0.0
C213 C 0.17841 0.95003 0.62633 0.0
C214 C 0.20407 0.99117 0.6138 0.0
C215 C 0.20662 0.99121 0.62886 0.0
C216 C 0.1891 0.97085 0.60514 0.0
C217 C 0.1158 0.86101 0.56423 0.0
C218 C 0.13737 0.88253 0.54506 0.0
C219 C 0.11671 0.84077 0.54219 0.0
C220 C 0.10925 0.84038 0.55586 0.0
C221 C 0.13085 0.86186 0.53658 0.0
C222 C 0.13001 0.88211 0.55877 0.0
C223 C 0.108 0.86033 0.57867 0.0
O224 O 0.11816 0.87439 0.623 0.0
O225 O 0.0986 0.89053 0.61551 0.0
O226 O 0.10087 0.87484 0.58185 0.0
O227 O 0.12126 0.85954 0.58922 0.0
H228 H 0.06172 0.84814 0.60854 0.0
H229 H 0.02637 0.81763 0.61673 0.0
H230 H 0.05876 0.83526 0.66036 0.0
H231 H 0.09401 0.86561 0.65209 0.0
H232 H 0.19513 0.96973 0.64657 0.0
H233 H 0.16863 0.9342 0.63132 0.0
H234 H 0.21352 1.00691 0.60867 0.0
H235 H 0.1876 0.9713 0.59357 0.0
H236 H 0.14798 0.89909 0.54107 0.0
H237 H 0.11165 0.82451 0.53611 0.0
H238 H 0.09843 0.82393 0.55995 0.0
H239 H 0.13537 0.89826 0.56509 0.0
C240 C 0.90137 0.49977 0.73306 0.0
C241 C 0.89748 0.51413 0.74249 0.0
C242 C 0.89335 0.53397 0.7224 0.0
C243 C 0.89344 0.53102 0.73721 0.0
C244 C 0.89792 0.51993 0.71309 0.0
C245 C 0.90183 0.50297 0.71838 0.0
U246 U 0.91833 0.47301 0.76298 0.0
O247 O 0.90103 0.43734 0.76894 0.0
O248 O 0.93595 0.45298 0.76247 0.0
C249 C 0.91798 0.43416 0.76582 0.0
C250 C 0.90433 0.48103 0.7383 0.0
C251 C 0.91133 0.41254 0.75699 0.0
C252 C 0.89397 0.37085 0.75533 0.0
C253 C 0.90041 0.39169 0.7633 0.0
C254 C 0.90947 0.3914 0.73454 0.0
C255 C 0.89845 0.37044 0.74086 0.0
C256 C 0.91576 0.41228 0.74251 0.0
C257 C 0.9402 0.50429 0.80043 0.0
C258 C 0.94951 0.48642 0.81963 0.0
C259 C 0.95317 0.52395 0.82455 0.0
C260 C 0.94581 0.52335 0.81014 0.0
C261 C 0.95506 0.50546 0.82947 0.0
C262 C 0.94213 0.48585 0.80523 0.0
C263 C 0.93205 0.50358 0.78539 0.0
O264 O 0.92559 0.48614 0.74166 0.0
O265 O 0.8904 0.46909 0.74771 0.0
O266 O 0.91044 0.48813 0.78164 0.0
O267 O 0.94569 0.50404 0.77584 0.0
H268 H 0.89717 0.51201 0.7539 0.0
H269 H 0.88976 0.54132 0.74468 0.0
H270 H 0.89844 0.52199 0.70168 0.0
H271 H 0.90497 0.49216 0.71096 0.0
H272 H 0.88576 0.35505 0.76056 0.0
H273 H 0.89689 0.39153 0.77446 0.0
H274 H 0.91293 0.39161 0.72337 0.0
H275 H 0.92406 0.42816 0.73737 0.0
H276 H 0.95048 0.47178 0.82309 0.0
H277 H 0.95757 0.53897 0.83181 0.0
H278 H 0.94444 0.53775 0.80659 0.0
H279 H 0.93776 0.47094 0.79786 0.0
C280 C 0.6155 0.50221 0.74523 0.0
C281 C 0.63539 0.51527 0.75477 0.0
C282 C 0.65609 0.53696 0.73525 0.0
C283 C 0.6555 0.53243 0.74982 0.0
C284 C 0.63589 0.52417 0.72586 0.0
C285 C 0.61587 0.50697 0.7308 0.0
U286 U 0.57261 0.47296 0.77311 0.0
O287 O 0.535 0.45235 0.77007 0.0
O288 O 0.55481 0.43661 0.77781 0.0
C289 C 0.53451 0.43338 0.7735 0.0
C290 C 0.59444 0.4831 0.74989 0.0
C291 C 0.51954 0.4123 0.76386 0.0
C292 C 0.50326 0.39213 0.74001 0.0
C293 C 0.51811 0.41244 0.74882 0.0
C294 C 0.49145 0.37135 0.76117 0.0
C295 C 0.48965 0.37133 0.74609 0.0
C296 C 0.5062 0.39163 0.76993 0.0
C297 C 0.58087 0.50154 0.8109 0.0
C298 C 0.55131 0.48531 0.82727 0.0
C299 C 0.58917 0.51669 0.83606 0.0
C300 C 0.5962 0.51705 0.82225 0.0
C301 C 0.56662 0.50082 0.83876 0.0
C302 C 0.55839 0.48562 0.81349 0.0
C303 C 0.58858 0.50192 0.79647 0.0
O304 O 0.59729 0.47115 0.75969 0.0
O305 O 0.57794 0.48748 0.75212 0.0
O306 O 0.5755 0.50289 0.78586 0.0
O307 O 0.5952 0.48697 0.79341 0.0
H308 H 0.6355 0.51195 0.76598 0.0
H309 H 0.67073 0.54175 0.75735 0.0
H310 H 0.63551 0.52743 0.71465 0.0
H311 H 0.60067 0.49718 0.72328 0.0
H312 H 0.50219 0.39281 0.72846 0.0
H313 H 0.52832 0.42824 0.74391 0.0
H314 H 0.48162 0.35563 0.76624 0.0
H315 H 0.50717 0.39116 0.78152 0.0
H316 H 0.53375 0.47305 0.82888 0.0
H317 H 0.60154 0.52864 0.84465 0.0
H318 H 0.61366 0.52936 0.82046 0.0
H319 H 0.54631 0.47346 0.80485 0.0
C320 C 0.54319 0.13548 0.7487 0.0
C321 C 0.52232 0.12421 0.75479 0.0
C322 C 0.50658 0.14205 0.73923 0.0
C323 C 0.50416 0.12742 0.75007 0.0
C324 C 0.52774 0.15363 0.73339 0.0
C325 C 0.54582 0.15032 0.73807 0.0
U326 U 0.57527 0.11868 0.77611 0.0
O327 O 0.59205 0.09812 0.77272 0.0
O328 O 0.61218 0.13405 0.78218 0.0
C329 C 0.61256 0.11574 0.77688 0.0
C330 C 0.5623 0.13184 0.75317 0.0
C331 C 0.63038 0.12001 0.76717 0.0
C332 C 0.6554 0.14229 0.74946 0.0
C333 C 0.63763 0.1378 0.75802 0.0
C334 C 0.65838 0.11077 0.75869 0.0
C335 C 0.66611 0.12894 0.74978 0.0
C336 C 0.64074 0.10641 0.76732 0.0
C337 C 0.5511 0.10182 0.81284 0.0
C338 C 0.55175 0.07527 0.82939 0.0
C339 C 0.54662 0.10676 0.83817 0.0
C340 C 0.54797 0.11392 0.82432 0.0
C341 C 0.54824 0.0872 0.84086 0.0
C342 C 0.55324 0.08254 0.81551 0.0
C343 C 0.55087 0.10905 0.7982 0.0
O344 O 0.57702 0.14641 0.76368 0.0
O345 O 0.55679 0.11034 0.75452 0.0
O346 O 0.54669 0.09382 0.78731 0.0
O347 O 0.56705 0.13002 0.79629 0.0
H348 H 0.51999 0.11274 0.76308 0.0
H349 H 0.48808 0.11806 0.75472 0.0
H350 H 0.53041 0.16536 0.72524 0.0
H351 H 0.56187 0.1593 0.73332 0.0
H352 H 0.66077 0.15623 0.74258 0.0
H353 H 0.62974 0.1484 0.7576 0.0
H354 H 0.6664 0.10031 0.75929 0.0
H355 H 0.63539 0.0926 0.7743 0.0
H356 H 0.55331 0.06028 0.83114 0.0
H357 H 0.54361 0.11617 0.8467 0.0
H358 H 0.54613 0.12874 0.8225 0.0
H359 H 0.55576 0.07291 0.80688 0.0
C360 C 0.74887 0.5676 0.95978 0.0
C361 C 0.72914 0.56044 0.9503 0.0
C362 C 0.70794 0.56079 0.97043 0.0
C363 C 0.70885 0.55702 0.95558 0.0
C364 C 0.72799 0.56853 0.9798 0.0
C365 C 0.74818 0.57183 0.97452 0.0
U366 U 0.79171 0.58167 0.93143 0.0
O367 O 0.82933 0.59989 0.93429 0.0
O368 O 0.81008 0.56377 0.9251 0.0
C369 C 0.83022 0.5815 0.92982 0.0
C370 C 0.7701 0.57009 0.95468 0.0
C371 C 0.84548 0.57632 0.93874 0.0
C372 C 0.8621 0.574 0.96198 0.0
C373 C 0.8468 0.57835 0.95384 0.0
C374 C 0.87449 0.56512 0.94 0.0
C375 C 0.87628 0.56751 0.95515 0.0
C376 C 0.8593 0.56953 0.93191 0.0
C377 C 0.78261 0.60044 0.89511 0.0
C378 C 0.80646 0.60368 0.87594 0.0
C379 C 0.77983 0.61775 0.87345 0.0
C380 C 0.77285 0.61091 0.88701 0.0
C381 C 0.79669 0.61418 0.86773 0.0
C382 C 0.79953 0.59695 0.88953 0.0
C383 C 0.77516 0.5934 0.90938 0.0
O384 O 0.7675 0.55503 0.9441 0.0
O385 O 0.78629 0.59124 0.95315 0.0
O386 O 0.78829 0.60809 0.92035 0.0
O387 O 0.76886 0.5719 0.91141 0.0
H388 H 0.72929 0.55715 0.93885 0.0
H389 H 0.69374 0.55087 0.94805 0.0
H390 H 0.72811 0.57207 0.99124 0.0
H391 H 0.76327 0.5775 0.982 0.0
H392 H 0.86312 0.57614 0.97361 0.0
H393 H 0.8362 0.58351 0.95933 0.0
H394 H 0.88475 0.55969 0.93435 0.0
H395 H 0.85841 0.56773 0.92027 0.0
H396 H 0.81969 0.60096 0.87195 0.0
H397 H 0.7718 0.62556 0.86736 0.0
H398 H 0.75977 0.61375 0.89116 0.0
H399 H 0.8074 0.58904 0.89569 0.0
C400 C 0.46439 0.19501 0.97162 0.0
C401 C 0.47142 0.18336 0.96216 0.0
C402 C 0.47244 0.16025 0.98113 0.0
C403 C 0.47553 0.16622 0.9669 0.0
C404 C 0.46492 0.17162 0.99045 0.0
C405 C 0.461 0.18889 0.98574 0.0
U406 U 0.44664 0.22308 0.94291 0.0
O407 O 0.4276 0.2417 0.9446 0.0
O408 O 0.46252 0.2592 0.93811 0.0
C409 C 0.44518 0.26129 0.94183 0.0
C410 C 0.4608 0.21372 0.96704 0.0
C411 C 0.45108 0.2816 0.9518 0.0
C412 C 0.47602 0.31082 0.97109 0.0
C413 C 0.46986 0.29067 0.96235 0.0
C414 C 0.44419 0.31263 0.95925 0.0
C415 C 0.46337 0.32214 0.96955 0.0
C416 C 0.43816 0.29259 0.95043 0.0
C417 C 0.42632 0.19397 0.90467 0.0
C418 C 0.41744 0.21231 0.88558 0.0
C419 C 0.41349 0.1747 0.88045 0.0
C420 C 0.42067 0.17502 0.89485 0.0
C421 C 0.41187 0.19339 0.87563 0.0
C422 C 0.42459 0.21259 0.89999 0.0
C423 C 0.43435 0.19429 0.91968 0.0
O424 O 0.47474 0.22689 0.958 0.0
O425 O 0.43938 0.20805 0.96369 0.0
O426 O 0.42021 0.1925 0.92922 0.0
O427 O 0.45568 0.21027 0.92373 0.0
H428 H 0.47391 0.18763 0.95115 0.0
H429 H 0.48106 0.15758 0.95942 0.0
H430 H 0.46259 0.16756 1.00151 0.0
H431 H 0.45554 0.19766 0.99319 0.0
H432 H 0.4907 0.31758 0.97906 0.0
H433 H 0.47997 0.28236 0.9637 0.0
H434 H 0.43421 0.32104 0.95773 0.0
H435 H 0.42361 0.28586 0.94235 0.0
H436 H 0.41609 0.22683 0.88227 0.0
H437 H 0.4096 0.16 0.87304 0.0
H438 H 0.422 0.16054 0.89829 0.0
H439 H 0.42885 0.22735 0.90747 0.0
C440 C 0.74571 0.19351 0.96326 0.0
C441 C 0.73589 0.17045 0.95755 0.0
C442 C 0.70499 0.15884 0.97311 0.0
C443 C 0.71574 0.15326 0.96245 0.0
C444 C 0.71479 0.18207 0.9786 0.0
C445 C 0.73494 0.19917 0.97374 0.0
U446 U 0.78965 0.22105 0.93569 0.0
O447 O 0.80909 0.25726 0.93103 0.0
O448 O 0.82737 0.24016 0.93916 0.0
C449 C 0.82891 0.25956 0.93569 0.0
C450 C 0.76729 0.21194 0.9587 0.0
C451 C 0.8444 0.28032 0.94548 0.0
C452 C 0.85118 0.31118 0.96341 0.0
C453 C 0.83603 0.29064 0.95493 0.0
C454 C 0.88324 0.31094 0.95343 0.0
C455 C 0.87499 0.32174 0.96266 0.0
C456 C 0.86809 0.2905 0.94492 0.0
C457 C 0.78147 0.19279 0.89794 0.0
C458 C 0.80485 0.21406 0.87934 0.0
C459 C 0.78093 0.1725 0.8755 0.0
C460 C 0.77336 0.1722 0.88914 0.0
C461 C 0.79675 0.19345 0.87039 0.0
C462 C 0.79737 0.21371 0.89299 0.0
C463 C 0.77338 0.19231 0.91226 0.0
O464 O 0.78322 0.20664 0.95662 0.0
O465 O 0.76517 0.22412 0.9488 0.0
O466 O 0.76728 0.20766 0.91536 0.0
O467 O 0.78589 0.19064 0.92293 0.0
H468 H 0.74391 0.16571 0.94941 0.0
H469 H 0.70882 0.13557 0.95806 0.0
H470 H 0.70681 0.18712 0.98659 0.0
H471 H 0.74217 0.21689 0.97822 0.0
H472 H 0.84418 0.31909 0.97028 0.0
H473 H 0.81779 0.28307 0.95557 0.0
H474 H 0.90144 0.31828 0.95276 0.0
H475 H 0.87489 0.28276 0.93775 0.0
H476 H 0.81677 0.23055 0.87574 0.0
H477 H 0.7746 0.15626 0.86905 0.0
H478 H 0.7612 0.15586 0.89282 0.0
H479 H 0.80391 0.22982 0.89966 0.0
C480 C 0.56626 0.83076 0.06762 0.0
C481 C 0.58072 0.85419 0.07239 0.0
C482 C 0.55729 0.86444 0.05708 0.0
C483 C 0.57633 0.87088 0.06713 0.0
C484 C 0.54273 0.84087 0.05252 0.0
C485 C 0.54723 0.82426 0.0577 0.0
U486 U 0.58642 0.80566 0.09717 0.0
O487 O 0.57105 0.7701 0.10305 0.0
O488 O 0.6055 0.78706 0.09581 0.0
C489 C 0.58823 0.76779 0.09926 0.0
C490 C 0.57047 0.81277 0.07287 0.0
C491 C 0.58206 0.74687 0.08982 0.0
C492 C 0.55694 0.71678 0.071 0.0
C493 C 0.56311 0.73728 0.07937 0.0
C494 C 0.58901 0.71565 0.08308 0.0
C495 C 0.56973 0.70566 0.07284 0.0
C496 C 0.59505 0.73603 0.09152 0.0
C497 C 0.60869 0.83691 0.13466 0.0
C498 C 0.61286 0.81767 0.15495 0.0
C499 C 0.62814 0.85899 0.15756 0.0
C500 C 0.62032 0.85802 0.14319 0.0
C501 C 0.62437 0.83879 0.16365 0.0
C502 C 0.60518 0.81676 0.14058 0.0
C503 C 0.59999 0.83597 0.1197 0.0
O504 O 0.59203 0.81858 0.0758 0.0
O505 O 0.55726 0.80073 0.08255 0.0
O506 O 0.57848 0.82004 0.11612 0.0
O507 O 0.61355 0.8371 0.10991 0.0
H508 H 0.59546 0.85959 0.08013 0.0
H509 H 0.58802 0.88885 0.07079 0.0
H510 H 0.52765 0.83518 0.04505 0.0
H511 H 0.53576 0.80625 0.05398 0.0
H512 H 0.54218 0.70966 0.06307 0.0
H513 H 0.55295 0.74549 0.07777 0.0
H514 H 0.59908 0.70739 0.08483 0.0
H515 H 0.60973 0.74318 0.09952 0.0
H516 H 0.60937 0.80174 0.1593 0.0
H517 H 0.63726 0.87559 0.16385 0.0
H518 H 0.62328 0.87376 0.13876 0.0
H519 H 0.59625 0.80028 0.13413 0.0
C520 C 0.28219 0.8351 0.07906 0.0
C521 C 0.30132 0.84918 0.08898 0.0
C522 C 0.32285 0.87048 0.06963 0.0
C523 C 0.32149 0.86666 0.0843 0.0
C524 C 0.30344 0.85664 0.05981 0.0
C525 C 0.28335 0.83911 0.06449 0.0
U526 U 0.23949 0.80497 0.1068 0.0
O527 O 0.20193 0.78389 0.10383 0.0
O528 O 0.22224 0.76855 0.11136 0.0
C529 C 0.2018 0.76503 0.10712 0.0
C530 C 0.26121 0.81569 0.08354 0.0
C531 C 0.18701 0.744 0.09739 0.0
C532 C 0.17044 0.72419 0.0735 0.0
C533 C 0.18522 0.74443 0.08239 0.0
C534 C 0.15943 0.70292 0.09452 0.0
C535 C 0.15725 0.70318 0.07947 0.0
C536 C 0.17412 0.72312 0.10336 0.0
C537 C 0.24747 0.83307 0.14472 0.0
C538 C 0.22693 0.81161 0.16421 0.0
C539 C 0.24615 0.85334 0.16661 0.0
C540 C 0.25341 0.8537 0.15288 0.0
C541 C 0.23284 0.83228 0.17249 0.0
C542 C 0.23408 0.812 0.15045 0.0
C543 C 0.25509 0.83374 0.13022 0.0
O544 O 0.26428 0.80371 0.09323 0.0
O545 O 0.24456 0.81977 0.0859 0.0
O546 O 0.24168 0.83448 0.11975 0.0
O547 O 0.26227 0.8193 0.12696 0.0
H548 H 0.30075 0.84649 0.10031 0.0
H549 H 0.33602 0.8772 0.09216 0.0
H550 H 0.30396 0.85894 0.04843 0.0
H551 H 0.26879 0.82841 0.05667 0.0
H552 H 0.16906 0.7251 0.06198 0.0
H553 H 0.19508 0.7604 0.07756 0.0
H554 H 0.14993 0.68703 0.09949 0.0
H555 H 0.17536 0.72243 0.11492 0.0
H556 H 0.21698 0.79509 0.16842 0.0
H557 H 0.25071 0.86957 0.17253 0.0
H558 H 0.26358 0.87012 0.14859 0.0
H559 H 0.2292 0.79584 0.14429 0.0
C560 C 0.20724 0.46252 0.07982 0.0
C561 C 0.19549 0.46794 0.08975 0.0
C562 C 0.17114 0.46974 0.07012 0.0
C563 C 0.17765 0.47159 0.08494 0.0
C564 C 0.1827 0.4638 0.06026 0.0
C565 C 0.20059 0.4603 0.06508 0.0
U566 U 0.23885 0.44563 0.1075 0.0
O567 O 0.25747 0.42693 0.10445 0.0
O568 O 0.27568 0.46246 0.1147 0.0
C569 C 0.27736 0.44495 0.10935 0.0
C570 C 0.2266 0.45941 0.08458 0.0
C571 C 0.29642 0.45085 0.10041 0.0
C572 C 0.31136 0.45309 0.07713 0.0
C573 C 0.29289 0.44748 0.08529 0.0
C574 C 0.3371 0.46583 0.09906 0.0
C575 C 0.3337 0.4624 0.08393 0.0
C576 C 0.31865 0.46007 0.10719 0.0
C577 C 0.21176 0.42451 0.14284 0.0
C578 C 0.23025 0.42579 0.16631 0.0
C579 C 0.18923 0.40103 0.16105 0.0
C580 C 0.19063 0.40833 0.14723 0.0
C581 C 0.20898 0.40986 0.17082 0.0
C582 C 0.23165 0.43299 0.15242 0.0
C583 C 0.2123 0.43289 0.12852 0.0
O584 O 0.24049 0.47362 0.09553 0.0
O585 O 0.22166 0.43798 0.08548 0.0
O586 O 0.20983 0.41866 0.11747 0.0
O587 O 0.22795 0.45442 0.12735 0.0
H588 H 0.20027 0.46961 0.10121 0.0
H589 H 0.1693 0.47632 0.09284 0.0
H590 H 0.17788 0.46174 0.04879 0.0
H591 H 0.20934 0.45594 0.05726 0.0
H592 H 0.30822 0.45045 0.0655 0.0
H593 H 0.27589 0.44054 0.07981 0.0
H594 H 0.35402 0.47268 0.10464 0.0
H595 H 0.32173 0.46278 0.11883 0.0
H596 H 0.2458 0.43272 0.17353 0.0
H597 H 0.17255 0.38897 0.16422 0.0
H598 H 0.17507 0.40163 0.14002 0.0
H599 H 0.2482 0.4454 0.14924 0.0
C600 C 0.41291 0.89756 0.29203 0.0
C601 C 0.4064 0.91425 0.29039 0.0
C602 C 0.37145 0.89093 0.30169 0.0
C603 C 0.38591 0.911 0.29523 0.0
C604 C 0.37793 0.87419 0.30315 0.0
C605 C 0.39847 0.87752 0.29841 0.0
U606 U 0.45806 0.9142 0.265 0.0
O607 O 0.49562 0.93247 0.26873 0.0
O608 O 0.47693 0.89683 0.25865 0.0
C609 C 0.49683 0.91439 0.26396 0.0
C610 C 0.4347 0.90068 0.28743 0.0
C611 C 0.51179 0.90878 0.27286 0.0
C612 C 0.52904 0.90708 0.29605 0.0
C613 C 0.51378 0.91157 0.28797 0.0
C614 C 0.54 0.8965 0.27401 0.0
C615 C 0.54252 0.89971 0.28915 0.0
C616 C 0.52485 0.90104 0.26598 0.0
C617 C 0.45072 0.93497 0.22898 0.0
C618 C 0.47477 0.93851 0.20988 0.0
C619 C 0.44862 0.95317 0.2076 0.0
C620 C 0.44136 0.94596 0.22105 0.0
C621 C 0.46533 0.94943 0.20181 0.0
C622 C 0.46759 0.93141 0.22337 0.0
C623 C 0.44265 0.92714 0.24301 0.0
O624 O 0.4328 0.88634 0.27662 0.0
O625 O 0.45121 0.922 0.28665 0.0
O626 O 0.45523 0.94129 0.25433 0.0
O627 O 0.43628 0.9055 0.24461 0.0
H628 H 0.41715 0.92982 0.28541 0.0
H629 H 0.38128 0.9241 0.29381 0.0
H630 H 0.36734 0.85868 0.30822 0.0
H631 H 0.40317 0.86446 0.29983 0.0
H632 H 0.53063 0.90988 0.30768 0.0
H633 H 0.50379 0.91748 0.29351 0.0
H634 H 0.5497 0.89038 0.26833 0.0
H635 H 0.52347 0.89866 0.25433 0.0
H636 H 0.48788 0.93564 0.20583 0.0
H637 H 0.44084 0.96132 0.20161 0.0
H638 H 0.42833 0.94884 0.22522 0.0
H639 H 0.47513 0.92309 0.22939 0.0
C640 C 0.12935 0.52921 0.30584 0.0
C641 C 0.1333 0.51471 0.29659 0.0
C642 C 0.13725 0.49519 0.31692 0.0
C643 C 0.13728 0.49789 0.30208 0.0
C644 C 0.13261 0.50937 0.32605 0.0
C645 C 0.12875 0.52624 0.32055 0.0
U646 U 0.1138 0.5565 0.2755 0.0
O647 O 0.09585 0.57622 0.27567 0.0
O648 O 0.13126 0.59245 0.27007 0.0
C649 C 0.11395 0.59528 0.27273 0.0
C650 C 0.12652 0.54792 0.30042 0.0
C651 C 0.11985 0.61637 0.28185 0.0
C652 C 0.12628 0.63721 0.30528 0.0
C653 C 0.12054 0.61683 0.2969 0.0
C654 C 0.13089 0.65685 0.28365 0.0
C655 C 0.13154 0.6575 0.29875 0.0
C656 C 0.12507 0.63648 0.2753 0.0
C657 C 0.0939 0.52629 0.23768 0.0
C658 C 0.08997 0.54611 0.21764 0.0
C659 C 0.07649 0.50517 0.21425 0.0
C660 C 0.08358 0.50563 0.2287 0.0
C661 C 0.07964 0.52542 0.20852 0.0
C662 C 0.09697 0.54651 0.23209 0.0
C663 C 0.10132 0.52662 0.25284 0.0
O664 O 0.14099 0.56013 0.29133 0.0
O665 O 0.10535 0.54269 0.29656 0.0
O666 O 0.08709 0.52572 0.26207 0.0
O667 O 0.12278 0.54204 0.25707 0.0
H668 H 0.13373 0.51668 0.28516 0.0
H669 H 0.141 0.48747 0.29474 0.0
H670 H 0.13201 0.5075 0.33747 0.0
H671 H 0.12556 0.53716 0.32784 0.0
H672 H 0.12638 0.63701 0.31686 0.0
H673 H 0.11661 0.60144 0.30215 0.0
H674 H 0.13524 0.67219 0.27826 0.0
H675 H 0.12477 0.63647 0.2637 0.0
H676 H 0.09296 0.56208 0.21358 0.0
H677 H 0.06829 0.48888 0.20761 0.0
H678 H 0.08096 0.48983 0.23287 0.0
H679 H 0.10488 0.56264 0.2389 0.0
C680 C 0.41409 0.52756 0.29661 0.0
C681 C 0.40727 0.50409 0.29404 0.0
C682 C 0.37242 0.49317 0.30565 0.0
C683 C 0.38667 0.48708 0.29857 0.0
C684 C 0.37921 0.51666 0.30802 0.0
C685 C 0.39984 0.53364 0.30359 0.0
U686 U 0.4598 0.55512 0.2701 0.0
O687 O 0.47974 0.59127 0.26544 0.0
O688 O 0.49746 0.57406 0.27427 0.0
C689 C 0.49932 0.5935 0.2706 0.0
C690 C 0.43614 0.54603 0.29252 0.0
C691 C 0.51427 0.61423 0.28055 0.0
C692 C 0.51981 0.64431 0.2987 0.0
C693 C 0.50525 0.62372 0.29009 0.0
C694 C 0.5526 0.64574 0.2887 0.0
C695 C 0.54365 0.65567 0.29801 0.0
C696 C 0.53804 0.62526 0.28004 0.0
C697 C 0.45221 0.52611 0.23249 0.0
C698 C 0.48286 0.54015 0.21681 0.0
C699 C 0.44397 0.51252 0.20706 0.0
C700 C 0.43657 0.51235 0.22073 0.0
C701 C 0.46722 0.52645 0.2049 0.0
C702 C 0.4754 0.54005 0.23046 0.0
C703 C 0.444 0.52627 0.2467 0.0
O704 O 0.45228 0.54082 0.29101 0.0
O705 O 0.43477 0.55845 0.28251 0.0
O706 O 0.43832 0.54205 0.24938 0.0
O707 O 0.456 0.52451 0.25765 0.0
H708 H 0.41787 0.49889 0.2886 0.0
H709 H 0.38181 0.46914 0.29644 0.0
H710 H 0.36877 0.52196 0.31358 0.0
H711 H 0.4048 0.55161 0.30574 0.0
H712 H 0.51241 0.65135 0.3059 0.0
H713 H 0.48695 0.61541 0.29074 0.0
H714 H 0.57084 0.65415 0.28779 0.0
H715 H 0.54532 0.61823 0.27272 0.0
H716 H 0.50091 0.55085 0.21563 0.0
H717 H 0.43138 0.50204 0.19814 0.0
H718 H 0.41857 0.50162 0.22208 0.0
H719 H 0.48774 0.5509 0.23941 0.0
C720 C 0.54099 0.02437 0.06314 0.0
Eu721 Eu 0.52625 0.02129 0.0362 0.0
C722 C 0.53162 0.01551 0.07685 0.0
C723 C 0.52931 0.02994 0.08721 0.0
C724 C 0.52129 0.02215 0.10041 0.0
C725 C 0.51561 0.99981 0.10363 0.0
C726 C 0.5179 0.98535 0.09327 0.0
C727 C 0.52581 0.9931 0.08003 0.0
C728 C 0.51419 0.04989 0.02417 0.0
C729 C 0.47084 0.98437 0.03104 0.0
C730 C 0.4871 1.00169 0.97885 0.0
Eu731 Eu 0.50222 1.00507 1.00572 0.0
C732 C 0.49597 1.0115 0.96534 0.0
C733 C 0.48734 0.9972 0.95239 0.0
C734 C 0.49526 1.00597 0.93938 0.0
C735 C 0.51198 0.0293 0.93905 0.0
C736 C 0.52072 0.0436 0.95208 0.0
C737 C 0.51285 0.03477 0.96513 0.0
C738 C 0.51423 0.97637 0.01771 0.0
C739 C 0.55748 0.04206 1.01091 0.0
O740 O 0.54046 1.00963 0.05318 0.0
O741 O 0.53612 0.03921 0.0578 0.0
O742 O 0.53308 0.05706 0.03238 0.0
O743 O 0.50214 0.02821 0.02322 0.0
O744 O 0.49018 0.99318 0.0396 0.0
O745 O 0.47063 0.98878 0.01744 0.0
O746 O 0.4864 0.01549 0.98896 0.0
O747 O 0.49397 0.98813 0.98388 0.0
O748 O 0.49545 0.96932 1.00941 0.0
O749 O 0.52631 0.99807 0.0187 0.0
O750 O 0.53807 0.03389 1.00251 0.0
O751 O 0.55772 0.03688 0.02434 0.0
H752 H 0.53393 0.04739 0.08518 0.0
H753 H 0.52005 0.03384 0.10823 0.0
H754 H 0.51348 0.96798 0.09536 0.0
H755 H 0.52751 0.98156 0.07234 0.0
H756 H 0.47432 0.97921 0.95233 0.0
H757 H 0.48796 0.99456 0.92953 0.0
H758 H 0.53377 0.06158 0.95221 0.0
H759 H 0.5199 0.0461 0.97502 0.0
C760 C 1.00869 0.52943 0.06041 0.0
Eu761 Eu 1.0099 0.5177 0.03358 0.0
C762 C 0.01656 0.5274 0.0751 0.0
C763 C 1.00032 0.51394 0.08429 0.0
C764 C 1.00714 0.51269 0.09846 0.0
C765 C 0.0304 0.52508 0.10385 0.0
C766 C 0.0467 0.53834 0.09457 0.0
C767 C 0.03987 0.53949 0.08035 0.0
C768 C 0.98172 0.47606 0.01887 0.0
C769 C 0.04725 0.5004 0.03066 0.0
C770 C 0.02456 0.49896 0.97731 0.0
Eu771 Eu 0.02365 0.51094 1.00414 0.0
C772 C 1.01632 0.50074 0.96266 0.0
C773 C 0.02672 0.52163 0.95625 0.0
C774 C 0.01959 0.52259 0.94207 0.0
C775 C 1.00196 0.50269 0.93396 0.0
C776 C 0.99137 0.48191 0.94049 0.0
C777 C 0.99853 0.48094 0.95464 0.0
C778 C 0.05178 0.55252 0.01899 0.0
C779 C 0.98643 0.52832 1.00684 0.0
O780 O 0.02418 0.543 0.05234 0.0
O781 O 0.99256 0.51044 0.05317 0.0
O782 O 0.97462 0.48708 0.02689 0.0
O783 O 1.00328 0.48685 0.01955 0.0
O784 O 0.03915 0.5107 0.03896 0.0
O785 O 0.04096 0.49545 0.0167 0.0
O786 O 1.00903 0.48556 0.98541 0.0
O787 O 0.0409 0.51786 0.98455 0.0
O788 O 0.05898 0.54155 1.01102 0.0
O789 O 0.03021 0.54173 0.01815 0.0
O790 O 0.99479 0.51815 0.99868 0.0
O791 O 0.99217 0.53294 0.02088 0.0
H792 H 0.98224 0.50451 0.08055 0.0
H793 H 0.99414 0.502 0.10521 0.0
H794 H 0.06473 0.54833 0.09839 0.0
H795 H 0.05284 0.55013 0.07356 0.0
H796 H 0.04061 0.53719 0.96208 0.0
H797 H 0.02832 0.53881 0.93733 0.0
H798 H 0.97752 0.46634 0.93464 0.0
H799 H 0.99028 0.46458 0.95927 0.0
C800 C 0.48898 0.49183 0.98009 0.0
Eu801 Eu 0.50462 0.50789 1.00685 0.0
C802 C 0.4981 0.4936 0.96597 0.0
C803 C 0.51515 0.51477 0.96187 0.0
C804 C 0.52326 0.51598 0.94833 0.0
C805 C 0.51466 0.49601 0.93871 0.0
C806 C 0.49782 0.47483 0.94295 0.0
C807 C 0.48961 0.47367 0.95643 0.0
C808 C 0.51973 0.5511 0.01887 0.0
C809 C 0.56014 0.52696 1.01114 0.0
C810 C 0.54571 0.53503 0.06392 0.0
Eu811 Eu 0.52985 0.51919 0.03716 0.0
C812 C 0.53674 0.53349 0.07805 0.0
C813 C 0.51779 0.51313 0.08155 0.0
C814 C 0.50989 0.51204 0.09515 0.0
C815 C 0.52068 0.53133 0.10547 0.0
C816 C 0.53939 0.5518 0.10174 0.0
C817 C 0.54734 0.55282 0.0882 0.0
C818 C 0.51456 0.47595 0.025 0.0
C819 C 0.47457 0.50057 0.03309 0.0
O820 O 0.49434 0.48087 0.9893 0.0
O821 O 0.48976 0.51026 0.98612 0.0
O822 O 0.50078 0.53929 1.0105 0.0
O823 O 0.53046 0.54028 0.01972 0.0
O824 O 0.54057 0.51561 1.00273 0.0
O825 O 0.56081 0.53325 0.02487 0.0
O826 O 0.54063 0.54625 0.05475 0.0
O827 O 0.54436 0.51633 0.05787 0.0
O828 O 0.53364 0.48773 0.03325 0.0
O829 O 0.50395 0.48688 0.02432 0.0
O830 O 0.49427 0.51198 0.04132 0.0
O831 O 0.4736 0.49413 0.01932 0.0
H832 H 0.52219 0.53037 0.96911 0.0
H833 H 0.53643 0.53249 0.94545 0.0
H834 H 0.4907 0.45918 0.93575 0.0
H835 H 0.4765 0.45716 0.95939 0.0
H836 H 0.5092 0.49804 0.07382 0.0
H837 H 0.49558 0.49593 0.09764 0.0
H838 H 0.54783 0.56715 0.10926 0.0
H839 H 0.56184 0.56876 0.08564 0.0
C840 C 0.20983 0.35864 0.39582 0.0
Eu841 Eu 0.19429 0.35617 0.36918 0.0
C842 C 0.20079 0.34994 0.40955 0.0
C843 C 0.20912 0.3652 0.4221 0.0
C844 C 0.20116 0.35747 0.43531 0.0
C845 C 0.18474 0.33421 0.4363 0.0
C846 C 0.17624 0.31897 0.42363 0.0
C847 C 0.18413 0.32676 0.41038 0.0
C848 C 0.18169 0.38494 0.358 0.0
C849 C 0.13884 0.31941 0.36435 0.0
C850 C 0.15405 0.33847 0.31225 0.0
Eu851 Eu 0.16959 0.34062 0.33885 0.0
C852 C 0.16298 0.3476 0.29857 0.0
C853 C 0.18148 0.34643 0.29341 0.0
C854 C 0.18889 0.35429 0.2801 0.0
C855 C 0.17811 0.36368 0.27176 0.0
C856 C 0.15992 0.36525 0.27712 0.0
C857 C 0.15241 0.35723 0.29036 0.0
C858 C 0.18231 0.31195 0.3501 0.0
C859 C 0.22503 0.37731 0.34366 0.0
O860 O 0.20828 0.34359 0.38568 0.0
O861 O 0.20526 0.37389 0.39086 0.0
O862 O 0.20072 0.39198 0.36602 0.0
O863 O 0.16974 0.36323 0.35681 0.0
O864 O 0.15834 0.32782 0.3727 0.0
O865 O 0.13839 0.32444 0.3509 0.0
O866 O 0.15553 0.3534 0.32243 0.0
O867 O 0.15869 0.32321 0.31715 0.0
O868 O 0.16323 0.30479 0.3421 0.0
O869 O 0.19416 0.33364 0.35118 0.0
O870 O 0.2055 0.36903 0.33538 0.0
O871 O 0.22552 0.37216 0.35708 0.0
H872 H 0.22186 0.38317 0.42169 0.0
H873 H 0.20777 0.36984 0.44474 0.0
H874 H 0.16377 0.3009 0.42397 0.0
H875 H 0.17731 0.31463 0.40084 0.0
H876 H 0.19011 0.33928 0.2996 0.0
H877 H 0.20312 0.3531 0.27634 0.0
H878 H 0.1511 0.37218 0.2709 0.0
H879 H 0.13812 0.3583 0.29412 0.0
C880 C 0.67766 0.8658 0.39478 0.0
Eu881 Eu 0.67789 0.85271 0.36807 0.0
C882 C 0.68549 0.86382 0.40945 0.0
C883 C 0.67984 0.84233 0.41432 0.0
C884 C 0.68664 0.84095 0.4285 0.0
C885 C 0.69935 0.86102 0.43804 0.0
C886 C 0.70529 0.8825 0.43304 0.0
C887 C 0.69836 0.88386 0.41891 0.0
C888 C 0.64967 0.81079 0.35371 0.0
C889 C 0.71474 0.83466 0.36533 0.0
C890 C 0.69336 0.83406 0.31196 0.0
Eu891 Eu 0.6916 0.84554 0.33872 0.0
C892 C 0.68604 0.83655 0.29725 0.0
C893 C 0.7027 0.84876 0.28798 0.0
C894 C 0.69632 0.85039 0.27379 0.0
C895 C 0.67308 0.83963 0.26847 0.0
C896 C 0.65637 0.82767 0.27786 0.0
C897 C 0.66277 0.82617 0.2921 0.0
C898 C 0.71955 0.88735 0.3534 0.0
C899 C 0.65404 0.86246 0.34111 0.0
O900 O 0.69359 0.8784 0.38666 0.0
O901 O 0.66078 0.84714 0.38767 0.0
O902 O 0.64265 0.82179 0.36183 0.0
O903 O 0.67123 0.82164 0.35424 0.0
O904 O 0.70668 0.84506 0.37358 0.0
O905 O 0.70858 0.82981 0.35136 0.0
O906 O 0.67745 0.82056 0.31982 0.0
O907 O 0.70956 0.8528 0.31937 0.0
O908 O 0.72687 0.87622 0.34569 0.0
O909 O 0.69799 0.87648 0.35249 0.0
O910 O 0.66238 0.85215 0.33308 0.0
O911 O 0.65999 0.86755 0.35512 0.0
H912 H 0.67005 0.82658 0.40722 0.0
H913 H 0.68204 0.82418 0.43199 0.0
H914 H 0.71486 0.89825 0.44016 0.0
H915 H 0.70286 0.9006 0.4154 0.0
H916 H 0.72075 0.85689 0.29168 0.0
H917 H 0.70966 0.86009 0.26697 0.0
H918 H 0.63832 0.81894 0.27411 0.0
H919 H 0.64949 0.81659 0.29898 0.0
C920 C 0.15418 0.8302 0.31309 0.0
Eu921 Eu 0.17048 0.843 0.34006 0.0
C922 C 0.16295 0.83035 0.29899 0.0
C923 C 0.15493 0.83757 0.28733 0.0
C924 C 0.16285 0.83786 0.27383 0.0
C925 C 0.17891 0.83079 0.27166 0.0
C926 C 0.18705 0.82369 0.28344 0.0
C927 C 0.17919 0.82352 0.29698 0.0
C928 C 0.18426 0.88468 0.35406 0.0
C929 C 0.22576 0.86131 0.3434 0.0
C930 C 0.21221 0.86435 0.3968 0.0
Eu931 Eu 0.19619 0.85193 0.36977 0.0
C932 C 0.20319 0.86416 0.41081 0.0
C933 C 0.21034 0.8561 0.42242 0.0
C934 C 0.20213 0.85571 0.43583 0.0
C935 C 0.18663 0.86354 0.43797 0.0
C936 C 0.17936 0.87148 0.42624 0.0
C937 C 0.1875 0.87174 0.4128 0.0
C938 C 0.18203 0.81014 0.35565 0.0
C939 C 0.14105 0.83379 0.36657 0.0
O940 O 0.15514 0.8163 0.32206 0.0
O941 O 0.15968 0.85031 0.31947 0.0
O942 O 0.16492 0.8727 0.3461 0.0
O943 O 0.19587 0.87474 0.35375 0.0
O944 O 0.20592 0.85002 0.33527 0.0
O945 O 0.22689 0.86711 0.35727 0.0
O946 O 0.21168 0.87848 0.38785 0.0
O947 O 0.20657 0.84423 0.39035 0.0
O948 O 0.2015 0.82201 0.3635 0.0
O949 O 0.17066 0.8203 0.35614 0.0
O950 O 0.16096 0.8452 0.37459 0.0
O951 O 0.13977 0.82786 0.35269 0.0
H952 H 0.14253 0.84306 0.28867 0.0
H953 H 0.15652 0.84387 0.26513 0.0
H954 H 0.19922 0.8179 0.28217 0.0
H955 H 0.18575 0.81796 0.30583 0.0
H956 H 0.2223 0.85002 0.42111 0.0
H957 H 0.20778 0.84904 0.44448 0.0
H958 H 0.16764 0.87786 0.42749 0.0
H959 H 0.1816 0.87797 0.40399 0.0
C960 C 0.87457 0.68924 0.72949 0.0
Eu961 Eu 0.85995 0.68847 0.70286 0.0
C962 C 0.86493 0.68046 0.74316 0.0
C963 C 0.86164 0.69455 0.75324 0.0
C964 C 0.85337 0.68671 0.76638 0.0
C965 C 0.84837 0.66465 0.76983 0.0
C966 C 0.85165 0.65054 0.75975 0.0
C967 C 0.85985 0.65836 0.74658 0.0
C968 C 0.84731 0.71757 0.69227 0.0
C969 C 0.80442 0.65205 0.69751 0.0
C970 C 0.82067 0.67286 0.64582 0.0
Eu971 Eu 0.83583 0.674 0.67235 0.0
C972 C 0.82976 0.6817 0.63214 0.0
C973 C 0.8483 0.68039 0.62719 0.0
C974 C 0.85596 0.68815 0.6139 0.0
C975 C 0.84538 0.69757 0.6054 0.0
C976 C 0.82712 0.69924 0.61055 0.0
C977 C 0.81937 0.69132 0.62376 0.0
C978 C 0.84839 0.64493 0.68313 0.0
C979 C 0.89135 0.71037 0.67765 0.0
O980 O 0.87227 0.67408 0.71917 0.0
O981 O 0.87165 0.70561 0.72464 0.0
O982 O 0.86608 0.72438 0.70053 0.0
O983 O 0.83553 0.69585 0.69063 0.0
O984 O 0.82375 0.66026 0.70601 0.0
O985 O 0.80429 0.65742 0.68412 0.0
O986 O 0.82318 0.68819 0.65607 0.0
O987 O 0.82421 0.65683 0.65061 0.0
O988 O 0.82952 0.63805 0.67495 0.0
O989 O 0.86021 0.66663 0.68458 0.0
O990 O 0.87201 0.70209 0.66916 0.0
O991 O 0.89152 0.70516 0.69109 0.0
H992 H 0.8657 0.71179 0.75106 0.0
H993 H 0.85139 0.69815 0.77398 0.0
H994 H 0.84777 0.63339 0.76201 0.0
H995 H 0.86235 0.6471 0.73913 0.0
H996 H 0.85678 0.67325 0.63353 0.0
H997 H 0.87022 0.68688 0.61029 0.0
H998 H 0.81845 0.70618 0.6042 0.0
H999 H 0.80506 0.6925 0.62739 0.0
C1000 C 0.34056 0.1983 0.72809 0.0
Eu1001 Eu 0.34233 0.18539 0.70161 0.0
C1002 C 0.34819 0.19687 0.74287 0.0
C1003 C 0.3369 0.19944 0.75425 0.0
C1004 C 0.34381 0.19822 0.76841 0.0
C1005 C 0.36219 0.1944 0.77145 0.0
C1006 C 0.37347 0.19178 0.75996 0.0
C1007 C 0.36648 0.19295 0.74578 0.0
C1008 C 0.31396 0.14333 0.68738 0.0
C1009 C 0.37934 0.1676 0.69946 0.0
C1010 C 0.35768 0.16517 0.64586 0.0
Eu1011 Eu 0.35599 0.17734 0.67249 0.0
C1012 C 0.35013 0.16729 0.63112 0.0
C1013 C 0.36657 0.18075 0.62203 0.0
C1014 C 0.35998 0.18227 0.60786 0.0
C1015 C 0.33677 0.17015 0.60237 0.0
C1016 C 0.32027 0.15682 0.61153 0.0
C1017 C 0.32687 0.15541 0.62575 0.0
C1018 C 0.38419 0.21942 0.68682 0.0
C1019 C 0.31881 0.19478 0.67441 0.0
O1020 O 0.35649 0.21124 0.72007 0.0
O1021 O 0.32469 0.17895 0.72108 0.0
O1022 O 0.30693 0.15482 0.695 0.0
O1023 O 0.33552 0.15393 0.68815 0.0
O1024 O 0.37179 0.17887 0.70738 0.0
O1025 O 0.37257 0.16164 0.68559 0.0
O1026 O 0.34192 0.15182 0.65386 0.0
O1027 O 0.37387 0.18409 0.65313 0.0
O1028 O 0.39138 0.20794 0.67933 0.0
O1029 O 0.36264 0.20874 0.68589 0.0
O1030 O 0.32663 0.18371 0.66659 0.0
O1031 O 0.32524 0.20063 0.68833 0.0
H1032 H 0.32276 0.20251 0.75219 0.0
H1033 H 0.33496 0.20063 0.77701 0.0
H1034 H 0.38752 0.18857 0.76192 0.0
H1035 H 0.37533 0.1908 0.7371 0.0
H1036 H 0.38462 0.19002 0.62587 0.0
H1037 H 0.37313 0.193 0.60121 0.0
H1038 H 0.30227 0.14701 0.60763 0.0
H1039 H 0.31374 0.14478 0.63245 0.0
C1040 C 0.82113 0.15955 0.64648 0.0
Eu1041 Eu 0.83702 0.1747 0.67332 0.0
C1042 C 0.83026 0.16098 0.6324 0.0
C1043 C 0.8484 0.18168 0.62856 0.0
C1044 C 0.85643 0.18265 0.61502 0.0
C1045 C 0.84661 0.16289 0.60507 0.0
C1046 C 0.82873 0.14212 0.60912 0.0
C1047 C 0.82063 0.14122 0.62262 0.0
C1048 C 0.85088 0.21709 0.68625 0.0
C1049 C 0.89269 0.19446 0.67724 0.0
C1050 C 0.87799 0.19836 0.73035 0.0
Eu1051 Eu 0.86237 0.18505 0.70332 0.0
C1052 C 0.86878 0.19768 0.74437 0.0
C1053 C 0.87452 0.18772 0.75551 0.0
C1054 C 0.86626 0.18696 0.76893 0.0
C1055 C 0.85218 0.19636 0.77159 0.0
C1056 C 0.84633 0.20623 0.76035 0.0
C1057 C 0.85448 0.20684 0.74687 0.0
C1058 C 0.84829 0.14272 0.69006 0.0
C1059 C 0.80728 0.16671 0.69958 0.0
O1060 O 0.82537 0.14768 0.65558 0.0
O1061 O 0.82311 0.17848 0.65267 0.0
O1062 O 0.8318 0.20502 0.67804 0.0
O1063 O 0.86232 0.20695 0.68658 0.0
O1064 O 0.87309 0.18321 0.66886 0.0
O1065 O 0.89337 0.20005 0.69109 0.0
O1066 O 0.8765 0.21187 0.72127 0.0
O1067 O 0.87359 0.17856 0.72405 0.0
O1068 O 0.86772 0.15492 0.69789 0.0
O1069 O 0.83694 0.15292 0.6901 0.0
O1070 O 0.82709 0.17868 0.70764 0.0
O1071 O 0.8062 0.15985 0.68589 0.0
H1072 H 0.85627 0.19716 0.63598 0.0
H1073 H 0.87006 0.199 0.61226 0.0
H1074 H 0.82106 0.12644 0.60191 0.0
H1075 H 0.80677 0.12502 0.62542 0.0
H1076 H 0.88542 0.18045 0.75383 0.0
H1077 H 0.87078 0.1788 0.77719 0.0
H1078 H 0.83575 0.21387 0.76201 0.0
H1079 H 0.84968 0.21458 0.73847 0.0
H1080 H 0.32837 0.90114 0.04982 0.0
H1081 H 0.3665 0.88012 0.07769 0.0
H1082 H 0.36383 0.92945 0.04081 0.0
H1083 H 0.40189 0.90813 0.06856 0.0
H1084 H 0.46401 0.97454 0.05899 0.0
H1085 H 0.4284 0.94832 0.0686 0.0
H1086 H 0.39246 0.93204 0.02601 0.0
H1087 H 0.42801 0.95881 0.01646 0.0
C1088 C 0.34432 0.90249 0.05397 0.0
C1089 C 0.34457 0.88836 0.06448 0.0
C1090 C 0.36467 0.91869 0.04878 0.0
C1091 C 0.38581 0.92111 0.05391 0.0
C1092 C 0.38604 0.90708 0.06452 0.0
C1093 C 0.36571 0.89097 0.06976 0.0
C1094 C 0.44851 0.96546 0.05166 0.0
C1095 C 0.44893 0.96881 0.03692 0.0
C1096 C 0.42806 0.95027 0.05717 0.0
C1097 C 0.40748 0.93792 0.0481 0.0
C1098 C 0.40788 0.94146 0.03338 0.0
C1099 C 0.42833 0.95675 0.02787 0.0
H1100 H 0.16967 0.49203 0.04672 0.0
H1101 H 0.13074 0.45809 0.08171 0.0
H1102 H 0.13921 0.49871 0.03769 0.0
H1103 H 0.10038 0.46525 0.07276 0.0
H1104 H 0.06336 0.50553 0.05913 0.0
H1105 H 0.09299 0.49798 0.06913 0.0
H1106 H 0.09925 0.47501 0.02654 0.0
H1107 H 0.06992 0.48258 0.01654 0.0
C1108 C 0.15455 0.48581 0.05244 0.0
C1109 C 0.15264 0.47431 0.06489 0.0
C1110 C 0.1371 0.48972 0.04728 0.0
C1111 C 0.11731 0.48238 0.05446 0.0
C1112 C 0.11551 0.47128 0.06705 0.0
C1113 C 0.13294 0.46721 0.07219 0.0
C1114 C 0.07097 0.49875 0.05191 0.0
C1115 C 0.06428 0.49474 0.03701 0.0
C1116 C 0.08789 0.49435 0.05766 0.0
C1117 C 0.09858 0.48607 0.04861 0.0
C1118 C 0.09159 0.48172 0.03377 0.0
C1119 C 0.07464 0.48594 0.02805 0.0
H1120 H 0.52668 0.6683 0.06739 0.0
H1121 H 0.59684 0.69266 0.05933 0.0
H1122 H 0.51505 0.63133 0.05419 0.0
H1123 H 0.58521 0.65583 0.0458 0.0
H1124 H 0.55984 0.57887 0.03575 0.0
H1125 H 0.57197 0.61625 0.04872 0.0
H1126 H 0.5101 0.6133 0.03072 0.0
H1127 H 0.49761 0.57551 0.01836 0.0
C1128 C 0.53957 0.66584 0.06262 0.0
C1129 C 0.56267 0.6834 0.06439 0.0
C1130 C 0.53291 0.64464 0.05501 0.0
C1131 C 0.54916 0.64053 0.04887 0.0
C1132 C 0.57227 0.65821 0.05056 0.0
C1133 C 0.57895 0.67936 0.05828 0.0
C1134 C 0.54881 0.5862 0.03466 0.0
C1135 C 0.52767 0.5742 0.02619 0.0
C1136 C 0.55585 0.60773 0.04197 0.0
C1137 C 0.54199 0.61784 0.04084 0.0
C1138 C 0.52103 0.60591 0.03209 0.0
C1139 C 0.51393 0.58432 0.0249 0.0
H1140 H 0.91353 0.35838 0.9543 0.0
H1141 H 0.87306 0.33601 0.99036 0.0
H1142 H 0.93967 0.3952 0.96807 0.0
H1143 H 0.89908 0.37303 1.00403 0.0
H1144 H 0.93522 0.45131 0.01683 0.0
H1145 H 0.90978 0.41384 1.00346 0.0
H1146 H 0.9684 0.41182 0.9894 0.0
H1147 H 0.99388 0.4494 1.00283 0.0
C1148 C 0.91032 0.36118 0.96522 0.0
C1149 C 0.89114 0.34414 0.9712 0.0
C1150 C 0.92531 0.38233 0.9731 0.0
C1151 C 0.92145 0.38707 0.98714 0.0
C1152 C 0.90236 0.37004 0.99316 0.0
C1153 C 0.88741 0.34883 0.98531 0.0
C1154 C 0.94267 0.44284 1.01091 0.0
C1155 C 0.96651 0.4533 1.01081 0.0
C1156 C 0.9281 0.42132 1.00331 0.0
C1157 C 0.93705 0.40982 0.99538 0.0
C1158 C 0.96096 0.42034 0.99528 0.0
C1159 C 0.97554 0.44182 1.00298 0.0
H1160 H 0.69123 0.54143 0.99522 0.0
H1161 H 0.67506 0.56954 0.95872 0.0
H1162 H 0.65586 0.53409 1.00484 0.0
H1163 H 0.63941 0.56184 0.96831 0.0
H1164 H 0.56642 0.52049 0.98293 0.0
H1165 H 0.60201 0.52903 0.97297 0.0
H1166 H 0.6387 0.55548 1.01529 0.0
H1167 H 0.60317 0.54675 0.0253 0.0
C1168 C 0.68027 0.54628 0.9893 0.0
C1169 C 0.68614 0.55622 0.97621 0.0
C1170 C 0.65993 0.54202 0.99482 0.0
C1171 C 0.64483 0.54746 0.98738 0.0
C1172 C 0.65055 0.55722 0.97423 0.0
C1173 C 0.67099 0.5616 0.96873 0.0
C1174 C 0.58207 0.52817 0.99012 0.0
C1175 C 0.58188 0.53285 1.00494 0.0
C1176 C 0.60251 0.53319 0.98438 0.0
C1177 C 0.6232 0.54286 0.99334 0.0
C1178 C 0.62302 0.54774 1.00812 0.0
C1179 C 0.60264 0.54286 1.01385 0.0
H1180 H 0.44713 0.1251 0.99744 0.0
H1181 H 0.50971 0.15593 0.97676 0.0
H1182 H 0.45688 0.09762 1.00712 0.0
H1183 H 0.51928 0.12827 0.98627 0.0
H1184 H 0.5411 0.09578 0.022 0.0
H1185 H 0.53046 0.12153 1.01072 0.0
H1186 H 0.46197 0.0643 0.99901 0.0
H1187 H 0.47266 0.03851 1.01037 0.0
C1188 C 0.46292 0.12594 0.99493 0.0
C1189 C 0.47769 0.14272 0.98637 0.0
C1190 C 0.46839 0.11009 1.00036 0.0
C1191 C 0.48887 0.11084 0.99749 0.0
C1192 C 0.50348 0.12741 0.98877 0.0
C1193 C 0.4979 0.14311 0.98322 0.0
C1194 C 0.52379 0.08871 0.01699 0.0
C1195 C 0.50768 0.06519 0.01708 0.0
C1196 C 0.51774 0.1034 1.01045 0.0
C1197 C 0.49538 0.09493 1.00397 0.0
C1198 C 0.47927 0.07135 1.00402 0.0
C1199 C 0.48541 0.05659 1.01045 0.0
H1200 H 0.66832 0.12102 0.95783 0.0
H1201 H 0.69339 0.15528 1.00084 0.0
H1202 H 0.63342 0.09168 0.9668 0.0
H1203 H 0.65808 0.12669 1.00966 0.0
H1204 H 0.60118 0.06043 0.02394 0.0
H1205 H 0.63696 0.0873 1.01465 0.0
H1206 H 0.5991 0.08707 0.97565 0.0
H1207 H 0.56345 0.05976 0.98475 0.0
C1208 C 0.66646 0.12228 0.9692 0.0
C1209 C 0.68372 0.14062 0.97858 0.0
C1210 C 0.64628 0.10559 0.97433 0.0
C1211 C 0.64281 0.1068 0.98897 0.0
C1212 C 0.66019 0.125 0.99836 0.0
C1213 C 0.68036 0.14163 0.99325 0.0
C1214 C 0.60048 0.06602 1.01336 0.0
C1215 C 0.57938 0.05792 1.00513 0.0
C1216 C 0.62102 0.08157 1.00805 0.0
C1217 C 0.621 0.08949 0.9944 0.0
C1218 C 0.59988 0.08115 0.98612 0.0
C1219 C 0.57936 0.06554 0.99139 0.0
H1220 H 0.91997 0.57989 0.94963 0.0
H1221 H 0.87063 0.54578 0.97999 0.0
H1222 H 0.94665 0.57122 0.96257 0.0
H1223 H 0.89759 0.53736 0.99308 0.0
H1224 H 0.96183 0.54547 0.01966 0.0
H1225 H 0.93557 0.55602 1.00782 0.0
H1226 H 0.94867 0.5363 0.96634 0.0
H1227 H 0.97491 0.52598 0.97805 0.0
C1228 C 0.91474 0.57044 0.95903 0.0
C1229 C 0.893 0.56331 0.96365 0.0
C1230 C 0.93008 0.56552 0.96647 0.0
C1231 C 0.92417 0.55343 0.97879 0.0
C1232 C 0.90272 0.54686 0.98369 0.0
C1233 C 0.88729 0.55171 0.97619 0.0
C1234 C 0.95915 0.54345 1.00802 0.0
C1235 C 0.97055 0.53492 0.99983 0.0
C1236 C 0.944 0.54938 1.00124 0.0
C1237 C 0.9401 0.54709 0.98614 0.0
C1238 C 0.95153 0.53858 0.97798 0.0
C1239 C 0.9665 0.53253 0.98473 0.0
H1240 H 0.43649 0.335 0.98349 0.0
H1241 H 0.50654 0.35921 0.97522 0.0
H1242 H 0.4484 0.37156 0.99748 0.0
H1243 H 0.51845 0.39593 0.98885 0.0
H1244 H 0.53652 0.45135 0.02503 0.0
H1245 H 0.52371 0.41365 1.0124 0.0
H1246 H 0.46177 0.41121 0.99507 0.0
H1247 H 0.4742 0.44844 1.00832 0.0
C1248 C 0.45442 0.34821 0.9846 0.0
C1249 C 0.47059 0.3442 0.9783 0.0
C1250 C 0.46126 0.36921 0.99258 0.0
C1251 C 0.48442 0.38678 0.99433 0.0
C1252 C 0.50055 0.38269 0.988 0.0
C1253 C 0.49373 0.36164 0.98015 0.0
C1254 C 0.52011 0.44266 0.01858 0.0
C1255 C 0.50644 0.45289 0.01755 0.0
C1256 C 0.51283 0.42112 1.01123 0.0
C1257 C 0.49176 0.40937 1.00258 0.0
C1258 C 0.47797 0.41957 1.00173 0.0
C1259 C 0.48518 0.44103 1.0092 0.0
H1260 H 0.16376 0.68823 0.05323 0.0
H1261 H 0.11445 0.66914 0.08452 0.0
H1262 H 0.13786 0.6526 0.03823 0.0
H1263 H 0.0891 0.63303 0.0699 0.0
H1264 H 0.03932 0.58007 0.03371 0.0
H1265 H 0.06444 0.617 0.04784 0.0
H1266 H 0.12337 0.61191 0.03789 0.0
H1267 H 0.09824 0.57534 0.02354 0.0
C1268 C 0.14737 0.6765 0.0569 0.0
C1269 C 0.14128 0.68159 0.07013 0.0
C1270 C 0.13262 0.65589 0.04838 0.0
C1271 C 0.1114 0.63981 0.05287 0.0
C1272 C 0.10518 0.64506 0.06601 0.0
C1273 C 0.1199 0.66567 0.07451 0.0
C1274 C 0.05765 0.5869 0.03456 0.0
C1275 C 0.06685 0.57487 0.02755 0.0
C1276 C 0.07206 0.60801 0.04271 0.0
C1277 C 0.09599 0.61751 0.04402 0.0
C1278 C 0.10509 0.60536 0.03694 0.0
C1279 C 0.09069 0.58432 0.02878 0.0
H1280 H 0.33622 0.43754 0.06057 0.0
H1281 H 0.37597 0.50121 0.08795 0.0
H1282 H 0.36962 0.44666 0.04766 0.0
H1283 H 0.40916 0.5105 0.07498 0.0
H1284 H 0.47031 0.50671 0.06155 0.0
H1285 H 0.43595 0.49753 0.07294 0.0
H1286 H 0.39586 0.47208 0.03155 0.0
H1287 H 0.43047 0.48082 0.02007 0.0
C1288 C 0.352 0.45363 0.0637 0.0
C1289 C 0.3535 0.46853 0.07539 0.0
C1290 C 0.37115 0.45888 0.05629 0.0
C1291 C 0.39221 0.47921 0.06036 0.0
C1292 C 0.39341 0.49442 0.07176 0.0
C1293 C 0.37436 0.48912 0.07919 0.0
C1294 C 0.45422 0.49918 0.05481 0.0
C1295 C 0.45323 0.4946 0.03985 0.0
C1296 C 0.43446 0.49404 0.06137 0.0
C1297 C 0.41309 0.48428 0.05318 0.0
C1298 C 0.412 0.47945 0.03821 0.0
C1299 C 0.43186 0.48455 0.03162 0.0
H1300 H 0.54131 0.86521 0.0296 0.0
H1301 H 0.5625 0.90377 0.07152 0.0
H1302 H 0.53151 0.89278 0.02046 0.0
H1303 H 0.55317 0.93172 0.06218 0.0
H1304 H 0.55411 0.98795 0.03407 0.0
H1305 H 0.56549 0.96163 0.04393 0.0
H1306 H 0.50163 0.90342 0.02483 0.0
H1307 H 0.49021 0.92961 1.01517 0.0
C1308 C 0.54379 0.87949 0.03691 0.0
C1309 C 0.55249 0.88207 0.05136 0.0
C1310 C 0.53824 0.89534 0.03163 0.0
C1311 C 0.54143 0.91432 0.04063 0.0
C1312 C 0.55069 0.91734 0.05497 0.0
C1313 C 0.55608 0.90134 0.0603 0.0
C1314 C 0.54247 0.96953 0.03211 0.0
C1315 C 0.52126 0.96081 0.02389 0.0
C1316 C 0.54896 0.95449 0.03774 0.0
C1317 C 0.53449 0.93047 0.03508 0.0
C1318 C 0.51327 0.92184 0.02691 0.0
C1319 C 0.50669 0.93683 0.02142 0.0
H1320 H 1.00736 0.20173 0.37681 0.0
H1321 H 0.02429 0.24627 0.41607 0.0
H1322 H 0.04259 0.23018 0.36778 0.0
H1323 H 0.05977 0.27464 0.40706 0.0
H1324 H 0.13251 0.30677 0.39187 0.0
H1325 H 0.0969 0.27952 0.4012 0.0
H1326 H 0.06009 0.26893 0.35953 0.0
H1327 H 0.09568 0.29597 0.35012 0.0
C1328 C 0.01845 0.21769 0.38347 0.0
C1329 C 1.01283 0.22168 0.39717 0.0
C1330 C 0.0387 0.23401 0.37829 0.0
C1331 C 0.05399 0.25474 0.38667 0.0
C1332 C 0.0485 0.25873 0.40039 0.0
C1333 C 0.02815 0.24243 0.40556 0.0
C1334 C 0.11682 0.29872 0.38469 0.0
C1335 C 0.11702 0.30356 0.37021 0.0
C1336 C 0.09637 0.28316 0.39008 0.0
C1337 C 0.07564 0.27197 0.38111 0.0
C1338 C 0.0758 0.27701 0.36668 0.0
C1339 C 0.09622 0.29264 0.36131 0.0
H1340 H 0.80113 0.77524 0.38432 0.0
H1341 H 0.829 0.83606 0.41438 0.0
H1342 H 0.77042 0.78185 0.37562 0.0
H1343 H 0.79851 0.843 0.40551 0.0
H1344 H 0.72998 0.83897 0.39389 0.0
H1345 H 0.75813 0.82969 0.40417 0.0
H1346 H 0.76565 0.80791 0.36154 0.0
H1347 H 0.73724 0.81651 0.35137 0.0
C1348 C 0.80074 0.7901 0.38902 0.0
C1349 C 0.81758 0.8052 0.39997 0.0
C1350 C 0.78315 0.79393 0.38402 0.0
C1351 C 0.78203 0.81308 0.38976 0.0
C1352 C 0.79863 0.82792 0.40095 0.0
C1353 C 0.81616 0.82399 0.40602 0.0
C1354 C 0.73755 0.83206 0.38673 0.0
C1355 C 0.73128 0.82846 0.37179 0.0
C1356 C 0.7538 0.82687 0.39262 0.0
C1357 C 0.76419 0.818 0.3837 0.0
C1358 C 0.75776 0.8143 0.36878 0.0
C1359 C 0.7415 0.81938 0.36292 0.0
H1360 H 0.25686 0.0283 0.39039 0.0
H1361 H 0.19238 0.99703 0.40897 0.0
H1362 H 0.24555 0.99133 0.377 0.0
H1363 H 0.18131 0.96008 0.39585 0.0
H1364 H 0.15906 0.90544 0.35766 0.0
H1365 H 0.17099 0.94267 0.37072 0.0
H1366 H 0.23819 0.95201 0.38167 0.0
H1367 H 0.22624 0.91472 0.36841 0.0
C1368 C 0.24026 1.01356 0.39157 0.0
C1369 C 0.22552 0.01558 0.40073 0.0
C1370 C 0.23389 0.99235 0.38402 0.0
C1371 C 0.21255 0.97279 0.38538 0.0
C1372 C 0.19778 0.97487 0.39448 0.0
C1373 C 0.20421 0.99599 0.40209 0.0
C1374 C 0.17639 0.91546 0.36284 0.0
C1375 C 0.19172 0.90721 0.36205 0.0
C1376 C 0.18318 0.93672 0.37039 0.0
C1377 C 0.20552 0.95027 0.37725 0.0
C1378 C 0.22093 0.94206 0.37638 0.0
C1379 C 0.21406 0.92068 0.36889 0.0
H1380 H 0.5372 0.69251 0.3022 0.0
H1381 H 0.58518 0.66977 0.31311 0.0
H1382 H 0.56294 0.7298 0.31556 0.0
H1383 H 0.61086 0.70698 0.3267 0.0
H1384 H 0.66161 0.78433 0.33726 0.0
H1385 H 0.63605 0.74691 0.32378 0.0
H1386 H 0.57773 0.74793 0.33936 0.0
H1387 H 0.60325 0.78563 0.35233 0.0
C1388 C 0.55312 0.69537 0.30762 0.0
C1389 C 0.5591 0.67814 0.3066 0.0
C1390 C 0.56791 0.71678 0.3153 0.0
C1391 C 0.58903 0.72148 0.32225 0.0
C1392 C 0.59494 0.70415 0.3213 0.0
C1393 C 0.58018 0.68278 0.31354 0.0
C1394 C 0.64332 0.77656 0.33771 0.0
C1395 C 0.63441 0.78794 0.34576 0.0
C1396 C 0.62866 0.75502 0.3301 0.0
C1397 C 0.60476 0.74434 0.33044 0.0
C1398 C 0.59597 0.75575 0.33863 0.0
C1399 C 0.61061 0.7773 0.34616 0.0
H1400 H 0.32941 0.8516 0.29855 0.0
H1401 H 0.36455 0.92242 0.31703 0.0
H1402 H 0.29434 0.84537 0.30829 0.0
H1403 H 0.3293 0.91631 0.32654 0.0
H1404 H 0.27002 0.88682 0.35585 0.0
H1405 H 0.30495 0.89469 0.34526 0.0
H1406 H 0.26495 0.85668 0.30537 0.0
H1407 H 0.22999 0.8486 0.31595 0.0
C1408 C 0.32963 0.86586 0.30467 0.0
C1409 C 0.3498 0.88749 0.30706 0.0
C1410 C 0.30947 0.86235 0.31014 0.0
C1411 C 0.30902 0.88034 0.31821 0.0
C1412 C 0.32913 0.90204 0.32048 0.0
C1413 C 0.34926 0.9056 0.31491 0.0
C1414 C 0.26865 0.8802 0.3448 0.0
C1415 C 0.24714 0.867 0.33679 0.0
C1416 C 0.28871 0.88484 0.3387 0.0
C1417 C 0.28775 0.87627 0.32447 0.0
C1418 C 0.26627 0.86331 0.31641 0.0
C1419 C 0.24622 0.85879 0.32247 0.0
H1420 H 0.163 0.50063 0.34211 0.0
H1421 H 0.12442 0.45144 0.30536 0.0
H1422 H 0.17267 0.47344 0.35193 0.0
H1423 H 0.13511 0.4246 0.31487 0.0
H1424 H 0.14024 0.37355 0.34395 0.0
H1425 H 0.12884 0.39969 0.33396 0.0
H1426 H 0.19649 0.4574 0.34745 0.0
H1427 H 0.20757 0.43135 0.35767 0.0
C1428 C 0.15647 0.48397 0.33614 0.0
C1429 C 0.14286 0.47826 0.32294 0.0
C1430 C 0.16231 0.46847 0.34168 0.0
C1431 C 0.15483 0.44686 0.33416 0.0
C1432 C 0.14103 0.44102 0.32102 0.0
C1433 C 0.13512 0.45653 0.31548 0.0
C1434 C 0.15263 0.39183 0.34473 0.0
C1435 C 0.17475 0.40046 0.35163 0.0
C1436 C 0.14616 0.4068 0.33896 0.0
C1437 C 0.1617 0.4307 0.33996 0.0
C1438 C 0.18392 0.43918 0.34672 0.0
C1439 C 0.19034 0.42424 0.35251 0.0
H1440 H 0.36495 0.45525 0.31933 0.0
H1441 H 0.33068 0.49052 0.30341 0.0
H1442 H 0.32942 0.42634 0.32809 0.0
H1443 H 0.29535 0.46196 0.31242 0.0
H1444 H 0.23042 0.39397 0.31721 0.0
H1445 H 0.26587 0.42096 0.30769 0.0
H1446 H 0.30443 0.42377 0.34704 0.0
H1447 H 0.26895 0.39656 0.35658 0.0
C1448 C 0.3498 0.45676 0.31763 0.0
C1449 C 0.35066 0.47521 0.31068 0.0
C1450 C 0.32951 0.44032 0.32277 0.0
C1451 C 0.30954 0.44184 0.32098 0.0
C1452 C 0.31035 0.46014 0.31387 0.0
C1453 C 0.33066 0.47665 0.30883 0.0
C1454 C 0.24643 0.40024 0.32385 0.0
C1455 C 0.24677 0.39311 0.33771 0.0
C1456 C 0.26677 0.41583 0.3184 0.0
C1457 C 0.28799 0.42461 0.32662 0.0
C1458 C 0.28839 0.41718 0.34037 0.0
C1459 C 0.26802 0.40166 0.34587 0.0
H1460 H 0.58559 0.9108 0.28291 0.0
H1461 H 0.53779 0.87949 0.31454 0.0
H1462 H 0.61251 0.90247 0.29586 0.0
H1463 H 0.565 0.8714 0.32763 0.0
H1464 H 0.63006 0.88056 0.35371 0.0
H1465 H 0.60341 0.89048 0.34172 0.0
H1466 H 0.61462 0.8679 0.30048 0.0
H1467 H 0.64126 0.85821 0.31233 0.0
C1468 C 0.58074 0.90201 0.29259 0.0
C1469 C 0.55936 0.89559 0.29757 0.0
C1470 C 0.59623 0.89728 0.30003 0.0
C1471 C 0.59084 0.8861 0.31271 0.0
C1472 C 0.56974 0.88021 0.31795 0.0
C1473 C 0.55416 0.88486 0.31045 0.0
C1474 C 0.62688 0.87777 0.34209 0.0
C1475 C 0.63789 0.86865 0.334 0.0
C1476 C 0.6115 0.88333 0.33523 0.0
C1477 C 0.60696 0.88007 0.32015 0.0
C1478 C 0.61798 0.87094 0.3121 0.0
C1479 C 0.63318 0.86526 0.31893 0.0
H1480 H 0.15821 0.67482 0.32459 0.0
H1481 H 0.11942 0.6898 0.29292 0.0
H1482 H 0.16938 0.71099 0.33871 0.0
H1483 H 0.13156 0.72648 0.30664 0.0
H1484 H 0.13971 0.78073 0.34168 0.0
H1485 H 0.12671 0.74333 0.32841 0.0
H1486 H 0.19386 0.75166 0.33788 0.0
H1487 H 0.20656 0.78873 0.35141 0.0
C1488 C 0.15197 0.68576 0.32066 0.0
C1489 C 0.13794 0.67936 0.30758 0.0
C1490 C 0.15864 0.70668 0.32866 0.0
C1491 C 0.1515 0.72178 0.32379 0.0
C1492 C 0.13722 0.71523 0.31081 0.0
C1493 C 0.1305 0.69428 0.30283 0.0
C1494 C 0.15165 0.77451 0.3409 0.0
C1495 C 0.17413 0.78758 0.34756 0.0
C1496 C 0.14425 0.75314 0.33325 0.0
C1497 C 0.15922 0.74441 0.33207 0.0
C1498 C 0.18174 0.75761 0.33876 0.0
C1499 C 0.18908 0.77893 0.34644 0.0
H1500 H 0.83113 0.0236 0.38713 0.0
H1501 H 0.78133 1.00513 0.41806 0.0
H1502 H 0.8054 0.98777 0.37226 0.0
H1503 H 0.75613 0.96882 0.40358 0.0
H1504 H 0.70684 0.91512 0.36758 0.0
H1505 H 0.73176 0.95233 0.38147 0.0
H1506 H 0.79092 0.94717 0.37228 0.0
H1507 H 0.766 0.91032 0.35815 0.0
C1508 C 0.81467 1.01196 0.39075 0.0
C1509 C 0.80839 0.01729 0.40384 0.0
C1510 C 0.80001 0.99125 0.3823 0.0
C1511 C 0.77869 0.97528 0.38674 0.0
C1512 C 0.77229 0.98076 0.39974 0.0
C1513 C 0.78691 1.00149 0.40815 0.0
C1514 C 0.72518 0.92201 0.36854 0.0
C1515 C 0.7345 0.90986 0.3618 0.0
C1516 C 0.73947 0.94327 0.37655 0.0
C1517 C 0.76341 0.95283 0.37801 0.0
C1518 C 0.77264 0.94058 0.37121 0.0
C1519 C 0.75835 0.91937 0.36318 0.0
H1520 H 0.03921 0.7935 0.4276 0.0
H1521 H 1.00502 0.80071 0.38934 0.0
H1522 H 0.07269 0.80321 0.41494 0.0
H1523 H 0.03909 0.81156 0.37683 0.0
H1524 H 0.0963 0.80731 0.35483 0.0
H1525 H 0.0617 0.79646 0.36678 0.0
H1526 H 0.10338 0.83586 0.40595 0.0
H1527 H 0.13775 0.84618 0.3942 0.0
C1528 C 0.03877 0.79707 0.41646 0.0
C1529 C 0.01931 0.79623 0.4095 0.0
C1530 C 0.05815 0.80297 0.40924 0.0
C1531 C 0.05871 0.80832 0.39486 0.0
C1532 C 0.03921 0.80735 0.38785 0.0
C1533 C 0.01976 0.8014 0.39509 0.0
C1534 C 0.09806 0.81366 0.36599 0.0
C1535 C 0.11985 0.82752 0.37355 0.0
C1536 C 0.07821 0.80753 0.37283 0.0
C1537 C 0.0797 0.81516 0.38737 0.0
C1538 C 0.10152 0.82928 0.39484 0.0
C1539 C 0.12129 0.83532 0.38804 0.0
H1540 H 0.18916 0.20689 0.39709 0.0
H1541 H 0.25042 0.2366 0.37508 0.0
H1542 H 0.17916 0.23424 0.38756 0.0
H1543 H 0.24028 0.26386 0.36541 0.0
H1544 H 0.22436 0.3234 0.36311 0.0
H1545 H 0.23562 0.29763 0.37395 0.0
H1546 H 0.16696 0.24031 0.36303 0.0
H1547 H 0.15577 0.266 0.35221 0.0
C1548 C 0.20059 0.2194 0.39032 0.0
C1549 C 0.22057 0.21959 0.38682 0.0
C1550 C 0.19476 0.23492 0.38476 0.0
C1551 C 0.2089 0.25114 0.3757 0.0
C1552 C 0.22913 0.25166 0.37244 0.0
C1553 C 0.23483 0.23594 0.37787 0.0
C1554 C 0.21171 0.30529 0.36307 0.0
C1555 C 0.18922 0.29665 0.35681 0.0
C1556 C 0.21817 0.29055 0.3692 0.0
C1557 C 0.20216 0.26696 0.36934 0.0
C1558 C 0.17961 0.25843 0.3632 0.0
C1559 C 0.17324 0.2731 0.35694 0.0
H1560 H 0.67235 0.53454 0.70945 0.0
H1561 H 0.68906 0.5792 0.74863 0.0
H1562 H 0.70764 0.56296 0.70046 0.0
H1563 H 0.72459 0.60753 0.73966 0.0
H1564 H 0.79749 0.63935 0.72497 0.0
H1565 H 0.76166 0.6122 0.73408 0.0
H1566 H 0.72559 0.6017 0.69215 0.0
H1567 H 0.76145 0.62867 0.68296 0.0
C1568 C 0.6834 0.55052 0.7161 0.0
C1569 C 0.67772 0.55453 0.72977 0.0
C1570 C 0.70369 0.56683 0.71093 0.0
C1571 C 0.71895 0.58757 0.71931 0.0
C1572 C 0.71335 0.59162 0.73299 0.0
C1573 C 0.69298 0.57533 0.73814 0.0
C1574 C 0.78193 0.63134 0.71768 0.0
C1575 C 0.78242 0.6362 0.70319 0.0
C1576 C 0.76134 0.61585 0.72294 0.0
C1577 C 0.74073 0.60471 0.71385 0.0
C1578 C 0.74119 0.60975 0.69941 0.0
C1579 C 0.76176 0.62534 0.69415 0.0
H1580 H 0.49401 0.14532 0.71144 0.0
H1581 H 0.47484 0.14531 0.75468 0.0
H1582 H 0.46287 0.15095 0.70252 0.0
H1583 H 0.44282 0.14974 0.74561 0.0
H1584 H 0.40451 0.18435 0.7258 0.0
H1585 H 0.43451 0.17749 0.73575 0.0
H1586 H 0.42224 0.13121 0.69812 0.0
H1587 H 0.39275 0.13851 0.68806 0.0
C1588 C 0.48317 0.14653 0.71907 0.0
C1589 C 0.48708 0.14497 0.73381 0.0
C1590 C 0.46504 0.14942 0.71391 0.0
C1591 C 0.45019 0.15069 0.72332 0.0
C1592 C 0.45402 0.14905 0.73806 0.0
C1593 C 0.47224 0.14622 0.74324 0.0
C1594 C 0.40806 0.17254 0.71972 0.0
C1595 C 0.39628 0.16208 0.7061 0.0
C1596 C 0.42525 0.16855 0.72545 0.0
C1597 C 0.43098 0.15393 0.7177 0.0
C1598 C 0.41867 0.14295 0.70426 0.0
C1599 C 0.40162 0.14704 0.69852 0.0
H1600 H 0.85797 0.32984 0.74012 0.0
H1601 H 0.92337 0.36068 0.72268 0.0
H1602 H 0.84692 0.29293 0.72694 0.0
H1603 H 0.91212 0.32377 0.70924 0.0
H1604 H 0.89242 0.24702 0.70107 0.0
H1605 H 0.90413 0.28437 0.71412 0.0
H1606 H 0.83753 0.27557 0.70175 0.0
H1607 H 0.82583 0.23824 0.68886 0.0
C1608 C 0.86999 0.32872 0.73348 0.0
C1609 C 0.89156 0.34817 0.73247 0.0
C1610 C 0.86358 0.30763 0.72583 0.0
C1611 C 0.87864 0.30543 0.71704 0.0
C1612 C 0.90022 0.32487 0.71602 0.0
C1613 C 0.90657 0.34605 0.72359 0.0
C1614 C 0.88033 0.25311 0.70117 0.0
C1615 C 0.85822 0.23976 0.694 0.0
C1616 C 0.88706 0.27453 0.70855 0.0
C1617 C 0.87175 0.28291 0.70898 0.0
C1618 C 0.84964 0.26949 0.70176 0.0
C1619 C 0.84298 0.24818 0.69431 0.0
H1620 H 0.20095 1.00698 0.6551 0.0
H1621 H 0.24936 0.02472 0.62331 0.0
H1622 H 0.22734 0.04292 0.66969 0.0
H1623 H 0.27522 0.06111 0.63753 0.0
H1624 H 0.32592 0.11508 0.67298 0.0
H1625 H 0.3004 0.07773 0.65939 0.0
H1626 H 0.24195 0.08359 0.66946 0.0
H1627 H 0.26746 0.12059 0.68327 0.0
C1628 C 0.21724 0.01848 0.65124 0.0
C1629 C 0.22293 1.01293 0.63798 0.0
C1630 C 0.23228 0.03926 0.65952 0.0
C1631 C 0.2534 0.05504 0.65477 0.0
C1632 C 0.25922 0.04933 0.64161 0.0
C1633 C 0.24422 0.02855 0.63335 0.0
C1634 C 0.30761 0.10832 0.67228 0.0
C1635 C 0.29866 0.12071 0.67917 0.0
C1636 C 0.29297 0.08697 0.66444 0.0
C1637 C 0.26906 0.07757 0.66332 0.0
C1638 C 0.26021 0.09006 0.67028 0.0
C1639 C 0.27483 0.11135 0.67812 0.0
H1640 H 0.02371 0.2094 0.66111 0.0
H1641 H 1.00716 0.23662 0.62429 0.0
H1642 H 0.98841 0.20221 0.67074 0.0
H1643 H 0.97159 0.22914 0.63391 0.0
H1644 H 0.89877 0.18817 0.64896 0.0
H1645 H 0.93427 0.19675 0.63886 0.0
H1646 H 0.97133 0.22358 0.68106 0.0
H1647 H 0.93589 0.21476 0.69121 0.0
C1648 C 1.01267 0.21409 0.65512 0.0
C1649 C 0.01844 0.22376 0.64194 0.0
C1650 C 0.99238 0.20992 0.66065 0.0
C1651 C 0.9772 0.2152 0.65314 0.0
C1652 C 0.98279 0.22466 0.6399 0.0
C1653 C 1.00318 0.22892 0.63437 0.0
C1654 C 0.91449 0.19597 0.65609 0.0
C1655 C 0.91441 0.20067 0.67093 0.0
C1656 C 0.93488 0.20101 0.65027 0.0
C1657 C 0.95564 0.21075 0.65916 0.0
C1658 C 0.95559 0.21576 0.67394 0.0
C1659 C 0.93526 0.21083 0.67975 0.0
H1660 H 0.82188 0.82992 0.67899 0.0
H1661 H 0.80058 0.79007 0.6375 0.0
H1662 H 0.83101 0.80226 0.68879 0.0
H1663 H 0.80925 0.76208 0.64749 0.0
H1664 H 0.80748 0.7063 0.67599 0.0
H1665 H 0.79651 0.73277 0.66592 0.0
H1666 H 0.86036 0.79076 0.68522 0.0
H1667 H 0.87138 0.76439 0.6951 0.0
C1668 C 0.81922 0.81533 0.67192 0.0
C1669 C 0.81069 0.81242 0.65739 0.0
C1670 C 0.8244 0.79944 0.67757 0.0
C1671 C 0.82099 0.78008 0.66889 0.0
C1672 C 0.81188 0.77674 0.65448 0.0
C1673 C 0.80687 0.79277 0.64877 0.0
C1674 C 0.81921 0.7247 0.67797 0.0
C1675 C 0.84034 0.73331 0.68625 0.0
C1676 C 0.81294 0.73983 0.67221 0.0
C1677 C 0.82755 0.76384 0.67481 0.0
C1678 C 0.84861 0.77236 0.68317 0.0
C1679 C 0.85497 0.75727 0.68878 0.0
H1680 H 0.99615 0.8149 0.63134 0.0
H1681 H 0.03394 0.79313 0.6589 0.0
H1682 H 0.96069 0.78702 0.64047 0.0
H1683 H 0.99841 0.76495 0.66791 0.0
H1684 H 0.93422 0.73548 0.69226 0.0
H1685 H 0.96986 0.76226 0.68279 0.0
H1686 H 0.93393 0.74691 0.64027 0.0
H1687 H 0.89825 0.7207 0.6498 0.0
C1688 C 0.99685 0.80392 0.63921 0.0
C1689 C 0.01791 0.80628 0.64439 0.0
C1690 C 0.97648 0.78788 0.64445 0.0
C1691 C 0.97659 0.77366 0.65496 0.0
C1692 C 0.99766 0.77585 0.66001 0.0
C1693 C 0.01805 0.79198 0.65482 0.0
C1694 C 0.93393 0.73776 0.68088 0.0
C1695 C 0.9133 0.72597 0.67183 0.0
C1696 C 0.95443 0.75305 0.67542 0.0
C1697 C 0.95486 0.75687 0.66074 0.0
C1698 C 0.93425 0.74478 0.65166 0.0
C1699 C 0.91376 0.7296 0.65714 0.0
H1700 H 0.24654 0.26279 0.64175 0.0
H1701 H 0.2048 0.1918 0.62404 0.0
H1702 H 0.27319 0.25338 0.65423 0.0
H1703 H 0.2312 0.18232 0.63672 0.0
H1704 H 0.29804 0.18135 0.64685 0.0
H1705 H 0.27099 0.19075 0.63513 0.0
H1706 H 0.27527 0.23086 0.67402 0.0
H1707 H 0.30252 0.2216 0.68579 0.0
C1708 C 0.24303 0.24517 0.64056 0.0
C1709 C 0.22358 0.22805 0.63188 0.0
C1710 C 0.25819 0.23974 0.6478 0.0
C1711 C 0.25435 0.21712 0.64643 0.0
C1712 C 0.23477 0.19996 0.63788 0.0
C1713 C 0.21952 0.20534 0.63073 0.0
C1714 C 0.29327 0.19221 0.65293 0.0
C1715 C 0.30249 0.20073 0.66728 0.0
C1716 C 0.27763 0.19746 0.64623 0.0
C1717 C 0.27092 0.21149 0.65366 0.0
C1718 C 0.28024 0.22015 0.66797 0.0
C1719 C 0.29577 0.21475 0.67473 0.0
H1720 H 0.8394 0.03215 0.63294 0.0
H1721 H 0.7756 0.99986 0.65227 0.0
H1722 H 0.85079 0.06861 0.64686 0.0
H1723 H 0.78719 0.03631 0.66641 0.0
H1724 H 0.80614 0.11263 0.67607 0.0
H1725 H 0.79416 0.0757 0.66236 0.0
H1726 H 0.86165 0.08526 0.67231 0.0
H1727 H 0.87362 0.12218 0.68588 0.0
C1728 C 0.82779 0.03286 0.64015 0.0
C1729 C 0.80658 1.01313 0.64149 0.0
C1730 C 0.83441 0.05369 0.64822 0.0
C1731 C 0.8199 0.05534 0.65774 0.0
C1732 C 0.79866 0.03563 0.65907 0.0
C1733 C 0.79212 0.01471 0.65109 0.0
C1734 C 0.81837 0.10678 0.67531 0.0
C1735 C 0.84081 0.12025 0.68199 0.0
C1736 C 0.81149 0.08561 0.66755 0.0
C1737 C 0.82697 0.07758 0.66624 0.0
C1738 C 0.8494 0.09108 0.67298 0.0
C1739 C 0.85622 0.11215 0.68082 0.0
H1740 H 0.49652 0.35555 0.72024 0.0
H1741 H 0.44648 0.33787 0.75095 0.0
H1742 H 0.47065 0.31966 0.70545 0.0
H1743 H 0.42114 0.30152 0.73655 0.0
H1744 H 0.3718 0.24773 0.70065 0.0
H1745 H 0.39692 0.28503 0.71439 0.0
H1746 H 0.45575 0.27898 0.70566 0.0
H1747 H 0.43063 0.24204 0.69168 0.0
C1748 C 0.47998 0.34408 0.72382 0.0
C1749 C 0.47367 0.34964 0.73684 0.0
C1750 C 0.46524 0.32333 0.71543 0.0
C1751 C 0.44381 0.30757 0.71982 0.0
C1752 C 0.43738 0.31329 0.73274 0.0
C1753 C 0.45208 0.33405 0.74111 0.0
C1754 C 0.39011 0.25444 0.70168 0.0
C1755 C 0.39928 0.24201 0.69511 0.0
C1756 C 0.40451 0.27575 0.7096 0.0
C1757 C 0.42842 0.28509 0.71115 0.0
C1758 C 0.4375 0.27256 0.70451 0.0
C1759 C 0.4231 0.2513 0.69657 0.0
H1760 H 0.70264 0.1714 0.74677 0.0
H1761 H 0.67435 0.09897 0.73373 0.0
H1762 H 0.73596 0.1805 0.73387 0.0
H1763 H 0.70794 0.10807 0.72099 0.0
H1764 H 0.76265 0.13726 0.68846 0.0
H1765 H 0.72784 0.12814 0.69983 0.0
H1766 H 0.76903 0.1742 0.73719 0.0
H1767 H 0.80365 0.18336 0.72593 0.0
C1768 C 0.70342 0.15744 0.74103 0.0
C1769 C 0.68585 0.13446 0.7413 0.0
C1770 C 0.72263 0.16263 0.73375 0.0
C1771 C 0.72465 0.145 0.72646 0.0
C1772 C 0.70682 0.12205 0.72643 0.0
C1773 C 0.68769 0.11683 0.73383 0.0
C1774 C 0.76426 0.14546 0.69909 0.0
C1775 C 0.78597 0.16104 0.70626 0.0
C1776 C 0.74433 0.14016 0.70562 0.0
C1777 C 0.74568 0.15052 0.71939 0.0
C1778 C 0.76738 0.16615 0.72651 0.0
C1779 C 0.78725 0.17128 0.72006 0.0
H1780 H 0.86764 0.52909 0.69729 0.0
H1781 H 0.90608 0.57746 0.73441 0.0
H1782 H 0.85787 0.55645 0.6879 0.0
H1783 H 0.89523 0.60442 0.72536 0.0
H1784 H 0.88975 0.6562 0.69724 0.0
H1785 H 0.90132 0.6299 0.70675 0.0
H1786 H 0.83395 0.57218 0.69261 0.0
H1787 H 0.82274 0.5984 0.68283 0.0
C1788 C 0.87412 0.54561 0.70344 0.0
C1789 C 0.88771 0.55102 0.71662 0.0
C1790 C 0.86821 0.56121 0.69814 0.0
C1791 C 0.87559 0.58262 0.70591 0.0
C1792 C 0.88938 0.58818 0.71902 0.0
C1793 C 0.89538 0.57258 0.72431 0.0
C1794 C 0.87747 0.63788 0.6962 0.0
C1795 C 0.8554 0.6293 0.68925 0.0
C1796 C 0.88403 0.62281 0.70171 0.0
C1797 C 0.86862 0.59886 0.70038 0.0
C1798 C 0.84643 0.59044 0.69358 0.0
C1799 C 0.83993 0.60547 0.68804 0.0
H1800 H 0.47465 0.98983 0.19073 0.0
H1801 H 0.47271 0.9255 0.18022 0.0
H1802 H 0.4866 1.0017 0.16707 0.0
H1803 H 0.48436 0.9372 0.15648 0.0
H1804 H 0.52838 0.97573 0.12101 0.0
H1805 H 0.51636 0.96362 0.14462 0.0
H1806 H 0.47284 0.99357 0.14203 0.0
H1807 H 0.48513 1.00594 0.1185 0.0
C1808 C 0.47658 0.97813 0.18331 0.0
C1809 C 0.47273 0.95672 0.18738 0.0
C1810 C 0.48339 0.98491 0.16972 0.0
C1811 C 0.48643 0.97041 0.1598 0.0
C1812 C 0.48257 0.94899 0.16389 0.0
C1813 C 0.47586 0.94225 0.17751 0.0
C1814 C 0.51608 0.97954 0.12543 0.0
C1815 C 0.50774 0.99183 0.11787 0.0
C1816 C 0.50916 0.97258 0.13898 0.0
C1817 C 0.49364 0.97763 0.14529 0.0
C1818 C 0.48514 0.98974 0.13765 0.0
C1819 C 0.49214 0.99679 0.12413 0.0
H1820 H 0.05944 0.54846 0.19708 0.0
H1821 H 0.08302 0.50147 0.18503 0.0
H1822 H 0.04813 0.54855 0.17189 0.0
H1823 H 0.0706 0.50061 0.15988 0.0
H1824 H 0.06825 0.52383 0.11493 0.0
H1825 H 0.08026 0.52418 0.14011 0.0
H1826 H 0.02002 0.52449 0.15259 0.0
H1827 H 1.00868 0.5254 0.12756 0.0
C1828 C 0.06223 0.53814 0.18907 0.0
C1829 C 0.07222 0.52501 0.19312 0.0
C1830 C 0.05545 0.53795 0.17461 0.0
C1831 C 0.05839 0.52454 0.16381 0.0
C1832 C 0.06831 0.51134 0.16787 0.0
C1833 C 0.07516 0.5116 0.18233 0.0
C1834 C 0.05769 0.52422 0.12306 0.0
C1835 C 0.03749 0.52461 0.11918 0.0
C1836 C 0.06443 0.52412 0.1375 0.0
C1837 C 0.05112 0.52436 0.14841 0.0
C1838 C 0.03086 0.5246 0.14451 0.0
C1839 C 0.02418 0.52479 0.1301 0.0
H1840 H 0.49954 0.56365 0.19251 0.0
H1841 H 0.45264 0.4903 0.18406 0.0
H1842 H 0.51235 0.56442 0.16864 0.0
H1843 H 0.4652 0.49125 0.16007 0.0
H1844 H 0.47647 0.5089 0.11285 0.0
H1845 H 0.46358 0.50729 0.1368 0.0
H1846 H 0.53373 0.54976 0.15517 0.0
H1847 H 0.54671 0.551 0.13134 0.0
C1848 C 0.49208 0.54764 0.18564 0.0
C1849 C 0.47506 0.5269 0.19028 0.0
C1850 C 0.4994 0.54811 0.17193 0.0
C1851 C 0.48979 0.5279 0.16246 0.0
C1852 C 0.47272 0.50718 0.16704 0.0
C1853 C 0.4655 0.50666 0.1808 0.0
C1854 C 0.48919 0.51767 0.12199 0.0
C1855 C 0.51266 0.53015 0.12009 0.0
C1856 C 0.48178 0.51678 0.13573 0.0
C1857 C 0.49763 0.52847 0.14788 0.0
C1858 C 0.52106 0.54087 0.146 0.0
C1859 C 0.52849 0.54162 0.13231 0.0
H1860 H 0.94251 0.51993 0.8534 0.0
H1861 H 0.9845 0.4919 0.84032 0.0
H1862 H 0.95401 0.51967 0.87859 0.0
H1863 H 0.99607 0.49171 0.86549 0.0
H1864 H 0.99143 0.47051 0.91127 0.0
H1865 H 0.98007 0.47152 0.88623 0.0
H1866 H 0.98664 0.53806 0.89674 0.0
H1867 H 0.99705 0.53659 0.92196 0.0
C1868 C 0.9544 0.51395 0.8559 0.0
C1869 C 0.96253 0.50587 0.84484 0.0
C1870 C 0.961 0.51381 0.87035 0.0
C1871 C 0.97591 0.5056 0.87408 0.0
C1872 C 0.98424 0.49776 0.86301 0.0
C1873 C 0.97762 0.49788 0.84857 0.0
C1874 C 0.99018 0.48524 0.90829 0.0
C1875 C 0.99508 0.50343 0.91866 0.0
C1876 C 0.98396 0.48596 0.89388 0.0
C1877 C 0.98252 0.50491 0.88945 0.0
C1878 C 0.98738 0.5231 0.89981 0.0
C1879 C 0.99359 0.52238 0.91424 0.0
H1880 H 0.57798 0.53748 0.85855 0.0
H1881 H 0.53833 0.46306 0.85246 0.0
H1882 H 0.56644 0.53661 0.88278 0.0
H1883 H 0.52578 0.46226 0.87636 0.0
H1884 H 0.52624 0.4668 0.92511 0.0
H1885 H 0.53917 0.46827 0.90121 0.0
H1886 H 0.53438 0.52921 0.89554 0.0
H1887 H 0.5219 0.52793 0.91957 0.0
C1888 C 0.56681 0.52092 0.86236 0.0
C1889 C 0.55916 0.50034 0.8535 0.0
C1890 C 0.55993 0.52043 0.87622 0.0
C1891 C 0.54514 0.49937 0.88159 0.0
C1892 C 0.53742 0.4788 0.8727 0.0
C1893 C 0.54437 0.47928 0.85888 0.0
C1894 C 0.52789 0.48046 0.91873 0.0
C1895 C 0.52301 0.49723 0.92424 0.0
C1896 C 0.53524 0.48128 0.905 0.0
C1897 C 0.53776 0.4988 0.89636 0.0
C1898 C 0.533 0.51566 0.90193 0.0
C1899 C 0.5258 0.51492 0.91572 0.0
H1900 H 0.52336 0.04279 0.8478 0.0
H1901 H 0.56635 0.11279 0.86696 0.0
H1902 H 0.51636 0.02936 0.87168 0.0
H1903 H 0.55963 0.09937 0.89089 0.0
H1904 H 0.51902 0.07014 0.92982 0.0
H1905 H 0.52946 0.08431 0.90638 0.0
H1906 H 0.53322 0.02377 0.89325 0.0
H1907 H 0.52247 1.0095 0.91664 0.0
C1908 C 0.53164 0.05527 0.85713 0.0
C1909 C 0.54535 0.07887 0.85546 0.0
C1910 C 0.52765 0.04757 0.87085 0.0
C1911 C 0.53735 0.06327 0.88327 0.0
C1912 C 0.55152 0.08683 0.88159 0.0
C1913 C 0.55543 0.09453 0.86786 0.0
C1914 C 0.52236 0.06001 0.92199 0.0
C1915 C 0.51979 0.03864 0.92508 0.0
C1916 C 0.52839 0.06814 0.90854 0.0
C1917 C 0.53211 0.05516 0.89785 0.0
C1918 C 0.53006 0.03403 0.9011 0.0
C1919 C 0.52394 0.02586 0.91452 0.0
H1920 H 0.17241 0.29175 0.52356 0.0
H1921 H 0.10791 0.28774 0.5111 0.0
H1922 H 0.18468 0.30317 0.49996 0.0
H1923 H 0.12076 0.30054 0.4878 0.0
H1924 H 0.14137 0.30236 0.44224 0.0
H1925 H 0.12858 0.28881 0.46544 0.0
H1926 H 0.19694 0.3348 0.48591 0.0
H1927 H 0.21 0.34726 0.46264 0.0
C1928 C 0.1608 0.29326 0.5158 0.0
C1929 C 0.13912 0.28876 0.5193 0.0
C1930 C 0.16799 0.30015 0.5023 0.0
C1931 C 0.15379 0.30291 0.49193 0.0
C1932 C 0.13209 0.29837 0.49542 0.0
C1933 C 0.12484 0.29133 0.5089 0.0
C1934 C 0.15376 0.30935 0.45165 0.0
C1935 C 0.17675 0.32595 0.4505 0.0
C1936 C 0.14634 0.3018 0.46502 0.0
C1937 C 0.16168 0.31072 0.47762 0.0
C1938 C 0.18466 0.32729 0.47646 0.0
C1939 C 0.1921 0.33472 0.46309 0.0
H1940 H 0.71675 0.82015 0.52311 0.0
H1941 H 0.75465 0.89467 0.52783 0.0
H1942 H 0.70677 0.82054 0.49767 0.0
H1943 H 0.74371 0.89506 0.50262 0.0
H1944 H 0.74071 0.88834 0.45383 0.0
H1945 H 0.75129 0.88696 0.479 0.0
H1946 H 0.68344 0.82941 0.48189 0.0
H1947 H 0.67304 0.83062 0.45664 0.0
C1948 C 0.72295 0.83662 0.51874 0.0
C1949 C 0.73655 0.85738 0.52755 0.0
C1950 C 0.71699 0.83684 0.50417 0.0
C1951 C 0.72444 0.85783 0.49805 0.0
C1952 C 0.73792 0.87857 0.50689 0.0
C1953 C 0.74393 0.87835 0.52143 0.0
C1954 C 0.72805 0.87543 0.45986 0.0
C1955 C 0.70603 0.85962 0.45325 0.0
C1956 C 0.73408 0.87467 0.47431 0.0
C1957 C 0.71819 0.85815 0.48253 0.0
C1958 C 0.69623 0.84216 0.47585 0.0
C1959 C 0.69024 0.84286 0.46137 0.0
H1960 H 0.17289 0.89172 0.5279 0.0
H1961 H 0.10705 0.83299 0.51213 0.0
H1962 H 0.18582 0.89277 0.50412 0.0
H1963 H 0.12047 0.83318 0.48855 0.0
H1964 H 0.14358 0.85344 0.44416 0.0
H1965 H 0.13022 0.85382 0.46773 0.0
H1966 H 0.19704 0.87266 0.48807 0.0
H1967 H 0.21074 0.87365 0.46456 0.0
C1968 C 0.16112 0.87903 0.51937 0.0
C1969 C 0.13887 0.8623 0.522 0.0
C1970 C 0.16868 0.87943 0.50574 0.0
C1971 C 0.15426 0.86301 0.49435 0.0
C1972 C 0.132 0.84628 0.49698 0.0
C1973 C 0.12439 0.84596 0.5106 0.0
C1974 C 0.15553 0.85799 0.45365 0.0
C1975 C 0.17827 0.86352 0.45239 0.0
C1976 C 0.14776 0.85789 0.4672 0.0
C1977 C 0.1625 0.86323 0.47987 0.0
C1978 C 0.18523 0.86875 0.47859 0.0
C1979 C 0.19302 0.86898 0.46506 0.0
H1980 H 0.62348 0.86504 0.18681 0.0
H1981 H 0.64287 0.81443 0.17542 0.0
H1982 H 0.63607 0.86629 0.21197 0.0
H1983 H 0.65421 0.81469 0.20064 0.0
H1984 H 0.69373 0.83671 0.24479 0.0
H1985 H 0.6829 0.83784 0.21971 0.0
H1986 H 0.62546 0.84378 0.23208 0.0
H1987 H 0.63711 0.84402 0.25729 0.0
C1988 C 0.63048 0.85422 0.18965 0.0
C1989 C 0.63216 0.83965 0.17904 0.0
C1990 C 0.63741 0.8547 0.20412 0.0
C1991 C 0.64611 0.84055 0.20838 0.0
C1992 C 0.64786 0.82604 0.19777 0.0
C1993 C 0.64105 0.82565 0.18329 0.0
C1994 C 0.679 0.83864 0.24221 0.0
C1995 C 0.66635 0.84035 0.25312 0.0
C1996 C 0.67259 0.83895 0.22778 0.0
C1997 C 0.65323 0.84079 0.22382 0.0
C1998 C 0.64061 0.84259 0.23472 0.0
C1999 C 0.64712 0.84242 0.24919 0.0
H2000 H 0.25646 0.86216 0.19659 0.0
H2001 H 0.19157 0.80148 0.18168 0.0
H2002 H 0.24344 0.86197 0.2203 0.0
H2003 H 0.17909 0.80048 0.2056 0.0
H2004 H 0.15394 0.81908 0.24527 0.0
H2005 H 0.16716 0.82 0.2216 0.0
H2006 H 0.23509 0.8419 0.24138 0.0
H2007 H 0.22217 0.84231 0.26508 0.0
C2008 C 0.23942 0.84876 0.19834 0.0
C2009 C 0.22508 0.83188 0.18714 0.0
C2010 C 0.23206 0.84845 0.21204 0.0
C2011 C 0.21019 0.83119 0.21494 0.0
C2012 C 0.19592 0.81423 0.20376 0.0
C2013 C 0.20322 0.81461 0.19005 0.0
C2014 C 0.17178 0.8244 0.2446 0.0
C2015 C 0.18698 0.83073 0.25716 0.0
C2016 C 0.17931 0.8246 0.23099 0.0
C2017 C 0.20222 0.83097 0.22951 0.0
C2018 C 0.2174 0.83716 0.24206 0.0
C2019 C 0.20989 0.83709 0.25569 0.0
H2020 H 0.18336 0.36673 0.17967 0.0
H2021 H 0.23015 0.43764 0.19588 0.0
H2022 H 0.17782 0.35611 0.20429 0.0
H2023 H 0.22502 0.42692 0.22052 0.0
H2024 H 0.18438 0.40297 0.26047 0.0
H2025 H 0.19373 0.41418 0.23628 0.0
H2026 H 0.19771 0.35287 0.22631 0.0
H2027 H 0.18789 0.34143 0.25044 0.0
C2028 C 0.19258 0.38003 0.18849 0.0
C2029 C 0.2071 0.40306 0.1858 0.0
C2030 C 0.18957 0.3739 0.2026 0.0
C2031 C 0.20092 0.39068 0.21437 0.0
C2032 C 0.21585 0.41362 0.21169 0.0
C2033 C 0.21897 0.41973 0.19757 0.0
C2034 C 0.18726 0.39189 0.25311 0.0
C2035 C 0.1853 0.37126 0.25735 0.0
C2036 C 0.19284 0.39843 0.2393 0.0
C2037 C 0.19643 0.3844 0.22935 0.0
C2038 C 0.19485 0.36395 0.23367 0.0
C2039 C 0.18944 0.35751 0.24754 0.0
H2040 H 0.80528 0.65417 0.85636 0.0
H2041 H 0.80474 0.59043 0.84638 0.0
H2042 H 0.81743 0.666 0.83273 0.0
H2043 H 0.81666 0.60211 0.82267 0.0
H2044 H 0.86155 0.64141 0.78768 0.0
H2045 H 0.84899 0.62914 0.81117 0.0
H2046 H 0.80406 0.65738 0.80753 0.0
H2047 H 0.81682 0.66983 0.7841 0.0
C2048 C 0.80754 0.64258 0.84906 0.0
C2049 C 0.80404 0.62136 0.85327 0.0
C2050 C 0.81448 0.64934 0.83549 0.0
C2051 C 0.81803 0.63502 0.82575 0.0
C2052 C 0.81447 0.61376 0.82996 0.0
C2053 C 0.80761 0.60704 0.84356 0.0
C2054 C 0.84882 0.64479 0.79183 0.0
C2055 C 0.84021 0.65662 0.784 0.0
C2056 C 0.8416 0.63774 0.80531 0.0
C2057 C 0.82551 0.64228 0.81129 0.0
C2058 C 0.81676 0.65394 0.80339 0.0
C2059 C 0.82405 0.66106 0.78994 0.0
H2060 H 0.37758 0.15733 0.85792 0.0
H2061 H 0.42974 0.22902 0.85852 0.0
H2062 H 0.36606 0.15691 0.83262 0.0
H2063 H 0.4177 0.22881 0.83336 0.0
H2064 H 0.40597 0.21365 0.78441 0.0
H2065 H 0.41807 0.21276 0.80939 0.0
H2066 H 0.34726 0.17267 0.81779 0.0
H2067 H 0.3352 0.17291 0.79272 0.0
C2068 C 0.38662 0.17299 0.85265 0.0
C2069 C 0.4046 0.19321 0.86025 0.0
C2070 C 0.37986 0.17281 0.83818 0.0
C2071 C 0.39096 0.19283 0.83096 0.0
C2072 C 0.40896 0.21303 0.83856 0.0
C2073 C 0.41568 0.21322 0.85303 0.0
C2074 C 0.393 0.20441 0.79155 0.0
C2075 C 0.36962 0.19339 0.78657 0.0
C2076 C 0.39993 0.20412 0.8059 0.0
C2077 C 0.38363 0.19272 0.81561 0.0
C2078 C 0.36026 0.18144 0.81058 0.0
C2079 C 0.35334 0.18179 0.79624 0.0
H2080 H 0.7719 0.16698 0.84542 0.0
H2081 H 0.83985 0.22085 0.8623 0.0
H2082 H 0.7852 0.16729 0.82178 0.0
H2083 H 0.85278 0.22214 0.8385 0.0
H2084 H 0.87534 0.20257 0.79807 0.0
H2085 H 0.86168 0.20107 0.82163 0.0
H2086 H 0.79704 0.18938 0.80168 0.0
H2087 H 0.81022 0.18943 0.77801 0.0
C2088 C 0.78969 0.17889 0.84411 0.0
C2089 C 0.80478 0.19385 0.85584 0.0
C2090 C 0.79725 0.17931 0.83047 0.0
C2091 C 0.82009 0.19477 0.82816 0.0
C2092 C 0.83515 0.20978 0.83987 0.0
C2093 C 0.82763 0.20926 0.85352 0.0
C2094 C 0.85808 0.19934 0.79866 0.0
C2095 C 0.84389 0.19601 0.78606 0.0
C2096 C 0.85034 0.19883 0.81223 0.0
C2097 C 0.82824 0.19518 0.81363 0.0
C2098 C 0.81406 0.19196 0.80104 0.0
C2099 C 0.82176 0.19232 0.78745 0.0
H2100 H 0.28491 0.19554 0.5216 0.0
H2101 H 0.30833 0.14857 0.50912 0.0
H2102 H 0.29739 0.19609 0.54668 0.0
H2103 H 0.31965 0.14815 0.53425 0.0
H2104 H 0.35868 0.17018 0.57868 0.0
H2105 H 0.34764 0.17171 0.5537 0.0
H2106 H 0.28748 0.17218 0.56622 0.0
H2107 H 0.29922 0.17195 0.59135 0.0
C2108 C 0.29276 0.18536 0.52419 0.0
C2109 C 0.29562 0.17203 0.5133 0.0
C2110 C 0.29964 0.18544 0.53861 0.0
C2111 C 0.30948 0.17212 0.54253 0.0
C2112 C 0.31239 0.15883 0.53164 0.0
C2113 C 0.3056 0.15883 0.51722 0.0
C2114 C 0.34327 0.17096 0.57616 0.0
C2115 C 0.32989 0.17101 0.58707 0.0
C2116 C 0.33676 0.17151 0.56178 0.0
C2117 C 0.31661 0.17198 0.5579 0.0
C2118 C 0.30324 0.17208 0.56881 0.0
C2119 C 0.30982 0.17164 0.58322 0.0
H2120 H 0.9135 0.20433 0.52617 0.0
H2121 H 0.87045 0.13024 0.51878 0.0
H2122 H 0.90084 0.20325 0.55014 0.0
H2123 H 0.85752 0.12932 0.54262 0.0
H2124 H 0.82104 0.14095 0.57935 0.0
H2125 H 0.83431 0.14217 0.55561 0.0
H2126 H 0.90384 0.18884 0.57379 0.0
H2127 H 0.8907 0.18728 0.59765 0.0
C2128 C 0.90149 0.18779 0.52967 0.0
C2129 C 0.89301 0.16737 0.52047 0.0
C2130 C 0.8942 0.1872 0.54341 0.0
C2131 C 0.87814 0.16621 0.54827 0.0
C2132 C 0.86965 0.14581 0.53911 0.0
C2133 C 0.87705 0.14637 0.52542 0.0
C2134 C 0.83921 0.15125 0.57837 0.0
C2135 C 0.85478 0.16393 0.5905 0.0
C2136 C 0.8468 0.15199 0.56472 0.0
C2137 C 0.87013 0.16556 0.56281 0.0
C2138 C 0.88571 0.17842 0.57488 0.0
C2139 C 0.87815 0.17755 0.58856 0.0
H2140 H 0.85058 0.70021 0.51342 0.0
H2141 H 0.89796 0.77106 0.52947 0.0
H2142 H 0.84527 0.68971 0.53808 0.0
H2143 H 0.89304 0.76045 0.55414 0.0
H2144 H 0.85217 0.73697 0.59407 0.0
H2145 H 0.86172 0.74805 0.56988 0.0
H2146 H 0.86526 0.68645 0.56012 0.0
H2147 H 0.85526 0.67514 0.58425 0.0
C2148 C 0.85998 0.71351 0.52222 0.0
C2149 C 0.87459 0.73649 0.51948 0.0
C2150 C 0.85711 0.70745 0.53634 0.0
C2151 C 0.86868 0.72426 0.54807 0.0
C2152 C 0.88372 0.74715 0.54534 0.0
C2153 C 0.8867 0.75318 0.5312 0.0
C2154 C 0.85502 0.72581 0.58676 0.0
C2155 C 0.85285 0.70512 0.59105 0.0
C2156 C 0.86071 0.73227 0.57295 0.0
C2157 C 0.86421 0.71811 0.56307 0.0
C2158 C 0.86248 0.69763 0.56745 0.0
C2159 C 0.85696 0.69126 0.58131 0.0
loop_
_geom_bond_atom_site_label_1
_geom_bond_atom_site_label_2
_geom_bond_distance
_geom_bond_site_symmetry_2
_ccdc_geom_bond_type
C0 C1 1.264 . S
C0 C5 1.479 . S
C0 C10 1.465 . S
C1 C0 1.264 . S
C1 C3 1.339 . S
C1 H28 0.931 . S
C2 C3 1.395 . S
C2 C4 1.320 . S
C3 C1 1.339 . S
C3 C2 1.395 . S
C3 H29 0.929 . S
C4 C2 1.320 . S
C4 C5 1.405 . S
C4 H30 0.930 . S
C5 C0 1.479 . S
C5 C4 1.405 . S
C5 H31 0.931 . S
U6 O7 2.454 . S
U6 O8 2.458 . S
U6 C9 2.984 . S
U6 C10 2.847 . S
U6 C23 2.882 . S
U6 O24 2.441 . S
U6 O25 2.420 . S
U6 O26 2.455 . S
U6 O27 2.449 . S
O7 U6 2.454 . S
O7 C9 1.353 . S
O8 U6 2.458 . S
O8 C9 1.286 . S
C9 U6 2.984 . S
C9 O7 1.353 . S
C9 O8 1.286 . S
C9 C11 1.363 . S
C10 C0 1.465 . S
C10 U6 2.847 . S
C10 O24 1.249 . S
C10 O25 1.202 . S
C11 C9 1.363 . S
C11 C13 1.408 . S
C11 C16 1.342 . S
C12 C13 1.310 . S
C12 C15 1.461 . S
C12 H32 0.932 . S
C13 C11 1.408 . S
C13 C12 1.310 . S
C13 H33 0.930 . S
C14 C15 1.474 . S
C14 C16 1.285 . S
C14 H34 0.929 . S
C15 C12 1.461 . S
C15 C14 1.474 . S
C16 C11 1.342 . S
C16 C14 1.285 . S
C16 H35 0.930 . S
C17 C20 1.424 . S
C17 C22 1.245 . S
C17 C23 1.428 . S
C18 C21 1.260 . S
C18 C22 1.477 . S
C18 H36 0.932 . S
C19 C20 1.384 . S
C19 C21 1.479 . S
C19 H37 0.929 . S
C20 C17 1.424 . S
C20 C19 1.384 . S
C20 H38 0.928 . S
C21 C18 1.260 . S
C21 C19 1.479 . S
C22 C17 1.245 . S
C22 C18 1.477 . S
C22 H39 0.932 . S
C23 U6 2.882 . S
C23 C17 1.428 . S
C23 O26 1.301 . S
C23 O27 1.282 . S
O24 U6 2.441 . S
O24 C10 1.249 . S
O25 U6 2.420 . S
O25 C10 1.202 . S
O26 U6 2.455 . S
O26 C23 1.301 . S
O27 U6 2.449 . S
O27 C23 1.282 . S
H28 C1 0.931 . S
H29 C3 0.929 . S
H30 C4 0.930 . S
H31 C5 0.931 . S
H32 C12 0.932 . S
H33 C13 0.930 . S
H34 C14 0.929 . S
H35 C16 0.930 . S
H36 C18 0.932 . S
H37 C19 0.929 . S
H38 C20 0.928 . S
H39 C22 0.932 . S
C40 C41 1.264 . S
C40 C45 1.479 . S
C40 C50 1.465 . S
C41 C40 1.264 . S
C41 C43 1.339 . S
C41 H68 0.931 . S
C42 C43 1.395 . S
C42 C44 1.320 . S
C43 C41 1.339 . S
C43 C42 1.395 . S
C43 H69 0.929 . S
C44 C42 1.320 . S
C44 C45 1.405 . S
C44 H70 0.930 . S
C45 C40 1.479 . S
C45 C44 1.405 . S
C45 H71 0.931 . S
U46 O47 2.454 . S
U46 O48 2.458 . S
U46 C49 2.984 . S
U46 C50 2.847 . S
U46 C63 2.882 . S
U46 O64 2.441 . S
U46 O65 2.420 . S
U46 O66 2.455 . S
U46 O67 2.449 . S
O47 U46 2.454 . S
O47 C49 1.353 . S
O48 U46 2.458 . S
O48 C49 1.286 . S
C49 U46 2.984 . S
C49 O47 1.353 . S
C49 O48 1.286 . S
C49 C51 1.363 . S
C50 C40 1.465 . S
C50 U46 2.847 . S
C50 O64 1.249 . S
C50 O65 1.202 . S
C51 C49 1.363 . S
C51 C53 1.408 . S
C51 C56 1.342 . S
C52 C53 1.310 . S
C52 C55 1.461 . S
C52 H72 0.932 . S
C53 C51 1.408 . S
C53 C52 1.310 . S
C53 H73 0.930 . S
C54 C55 1.474 . S
C54 C56 1.285 . S
C54 H74 0.929 . S
C55 C52 1.461 . S
C55 C54 1.474 . S
C56 C51 1.342 . S
C56 C54 1.285 . S
C56 H75 0.930 . S
C57 C60 1.424 . S
C57 C62 1.245 . S
C57 C63 1.428 . S
C58 C61 1.260 . S
C58 C62 1.477 . S
C58 H76 0.932 . S
C59 C60 1.384 . S
C59 C61 1.479 . S
C59 H77 0.929 . S
C60 C57 1.424 . S
C60 C59 1.384 . S
C60 H78 0.928 . S
C61 C58 1.260 . S
C61 C59 1.479 . S
C62 C57 1.245 . S
C62 C58 1.477 . S
C62 H79 0.932 . S
C63 U46 2.882 . S
C63 C57 1.428 . S
C63 O66 1.301 . S
C63 O67 1.282 . S
O64 U46 2.441 . S
O64 C50 1.249 . S
O65 U46 2.420 . S
O65 C50 1.202 . S
O66 U46 2.455 . S
O66 C63 1.301 . S
O67 U46 2.449 . S
O67 C63 1.282 . S
H68 C41 0.931 . S
H69 C43 0.929 . S
H70 C44 0.930 . S
H71 C45 0.931 . S
H72 C52 0.932 . S
H73 C53 0.930 . S
H74 C54 0.929 . S
H75 C56 0.930 . S
H76 C58 0.932 . S
H77 C59 0.929 . S
H78 C60 0.928 . S
H79 C62 0.932 . S
C80 C81 1.264 . S
C80 C85 1.479 . S
C80 C90 1.465 . S
C81 C80 1.264 . S
C81 C83 1.339 . S
C81 H108 0.931 . S
C82 C83 1.395 . S
C82 C84 1.320 . S
C83 C81 1.339 . S
C83 C82 1.395 . S
C83 H109 0.929 . S
C84 C82 1.320 . S
C84 C85 1.405 . S
C84 H110 0.930 . S
C85 C80 1.479 . S
C85 C84 1.405 . S
C85 H111 0.931 . S
U86 O87 2.454 . S
U86 O88 2.458 . S
U86 C89 2.984 . S
U86 C90 2.847 . S
U86 C103 2.882 . S
U86 O104 2.441 . S
U86 O105 2.420 . S
U86 O106 2.455 . S
U86 O107 2.449 . S
O87 U86 2.454 . S
O87 C89 1.353 . S
O88 U86 2.458 . S
O88 C89 1.286 . S
C89 U86 2.984 . S
C89 O87 1.353 . S
C89 O88 1.286 . S
C89 C91 1.363 . S
C90 C80 1.465 . S
C90 U86 2.847 . S
C90 O104 1.249 . S
C90 O105 1.202 . S
C91 C89 1.363 . S
C91 C93 1.408 . S
C91 C96 1.342 . S
C92 C93 1.310 . S
C92 C95 1.461 . S
C92 H112 0.932 . S
C93 C91 1.408 . S
C93 C92 1.310 . S
C93 H113 0.930 . S
C94 C95 1.474 . S
C94 C96 1.285 . S
C94 H114 0.929 . S
C95 C92 1.461 . S
C95 C94 1.474 . S
C96 C91 1.342 . S
C96 C94 1.285 . S
C96 H115 0.930 . S
C97 C100 1.424 . S
C97 C102 1.245 . S
C97 C103 1.428 . S
C98 C101 1.260 . S
C98 C102 1.477 . S
C98 H116 0.932 . S
C99 C100 1.384 . S
C99 C101 1.479 . S
C99 H117 0.929 . S
C100 C97 1.424 . S
C100 C99 1.384 . S
C100 H118 0.928 . S
C101 C98 1.260 . S
C101 C99 1.479 . S
C102 C97 1.245 . S
C102 C98 1.477 . S
C102 H119 0.932 . S
C103 U86 2.882 . S
C103 C97 1.428 . S
C103 O106 1.301 . S
C103 O107 1.282 . S
O104 U86 2.441 . S
O104 C90 1.249 . S
O105 U86 2.420 . S
O105 C90 1.202 . S
O106 U86 2.455 . S
O106 C103 1.301 . S
O107 U86 2.449 . S
O107 C103 1.282 . S
H108 C81 0.931 . S
H109 C83 0.929 . S
H110 C84 0.930 . S
H111 C85 0.931 . S
H112 C92 0.932 . S
H113 C93 0.930 . S
H114 C94 0.929 . S
H115 C96 0.930 . S
H116 C98 0.932 . S
H117 C99 0.929 . S
H118 C100 0.928 . S
H119 C102 0.932 . S
C120 C121 1.264 . S
C120 C125 1.479 . S
C120 C130 1.465 . S
C121 C120 1.264 . S
C121 C123 1.339 . S
C121 H148 0.931 . S
C122 C123 1.395 . S
C122 C124 1.320 . S
C123 C121 1.339 . S
C123 C122 1.395 . S
C123 H149 0.929 . S
C124 C122 1.320 . S
C124 C125 1.405 . S
C124 H150 0.930 . S
C125 C120 1.479 . S
C125 C124 1.405 . S
C125 H151 0.931 . S
U126 O127 2.454 . S
U126 O128 2.458 . S
U126 C129 2.984 . S
U126 C130 2.847 . S
U126 C143 2.882 . S
U126 O144 2.441 . S
U126 O145 2.420 . S
U126 O146 2.455 . S
U126 O147 2.449 . S
O127 U126 2.454 . S
O127 C129 1.353 . S
O128 U126 2.458 . S
O128 C129 1.286 . S
C129 U126 2.984 . S
C129 O127 1.353 . S
C129 O128 1.286 . S
C129 C131 1.363 . S
C130 C120 1.465 . S
C130 U126 2.847 . S
C130 O144 1.249 . S
C130 O145 1.202 . S
C131 C129 1.363 . S
C131 C133 1.408 . S
C131 C136 1.342 . S
C132 C133 1.310 . S
C132 C135 1.461 . S
C132 H152 0.932 . S
C133 C131 1.408 . S
C133 C132 1.310 . S
C133 H153 0.930 . S
C134 C135 1.474 . S
C134 C136 1.285 . S
C134 H154 0.929 . S
C135 C132 1.461 . S
C135 C134 1.474 . S
C136 C131 1.342 . S
C136 C134 1.285 . S
C136 H155 0.930 . S
C137 C140 1.424 . S
C137 C142 1.245 . S
C137 C143 1.428 . S
C138 C141 1.260 . S
C138 C142 1.477 . S
C138 H156 0.932 . S
C139 C140 1.384 . S
C139 C141 1.479 . S
C139 H157 0.929 . S
C140 C137 1.424 . S
C140 C139 1.384 . S
C140 H158 0.928 . S
C141 C138 1.260 . S
C141 C139 1.479 . S
C142 C137 1.245 . S
C142 C138 1.477 . S
C142 H159 0.932 . S
C143 U126 2.882 . S
C143 C137 1.428 . S
C143 O146 1.301 . S
C143 O147 1.282 . S
O144 U126 2.441 . S
O144 C130 1.249 . S
O145 U126 2.420 . S
O145 C130 1.202 . S
O146 U126 2.455 . S
O146 C143 1.301 . S
O147 U126 2.449 . S
O147 C143 1.282 . S
H148 C121 0.931 . S
H149 C123 0.929 . S
H150 C124 0.930 . S
H151 C125 0.931 . S
H152 C132 0.932 . S
H153 C133 0.930 . S
H154 C134 0.929 . S
H155 C136 0.930 . S
H156 C138 0.932 . S
H157 C139 0.929 . S
H158 C140 0.928 . S
H159 C142 0.932 . S
C160 C161 1.264 . S
C160 C165 1.479 . S
C160 C170 1.465 . S
C161 C160 1.264 . S
C161 C163 1.339 . S
C161 H188 0.931 . S
C162 C163 1.395 . S
C162 C164 1.320 . S
C163 C161 1.339 . S
C163 C162 1.395 . S
C163 H189 0.929 . S
C164 C162 1.320 . S
C164 C165 1.405 . S
C164 H190 0.930 . S
C165 C160 1.479 . S
C165 C164 1.405 . S
C165 H191 0.931 . S
U166 O167 2.454 . S
U166 O168 2.458 . S
U166 C169 2.984 . S
U166 C170 2.847 . S
U166 C183 2.882 . S
U166 O184 2.441 . S
U166 O185 2.420 . S
U166 O186 2.455 . S
U166 O187 2.449 . S
O167 U166 2.454 . S
O167 C169 1.353 . S
O168 U166 2.458 . S
O168 C169 1.286 . S
C169 U166 2.984 . S
C169 O167 1.353 . S
C169 O168 1.286 . S
C169 C171 1.363 . S
C170 C160 1.465 . S
C170 U166 2.847 . S
C170 O184 1.249 . S
C170 O185 1.202 . S
C171 C169 1.363 . S
C171 C173 1.408 . S
C171 C176 1.342 . S
C172 C173 1.310 . S
C172 C175 1.461 . S
C172 H192 0.932 . S
C173 C171 1.408 . S
C173 C172 1.310 . S
C173 H193 0.930 . S
C174 C175 1.474 . S
C174 C176 1.285 . S
C174 H194 0.929 . S
C175 C172 1.461 . S
C175 C174 1.474 . S
C176 C171 1.342 . S
C176 C174 1.285 . S
C176 H195 0.930 . S
C177 C180 1.424 . S
C177 C182 1.245 . S
C177 C183 1.428 . S
C178 C181 1.260 . S
C178 C182 1.477 . S
C178 H196 0.932 . S
C179 C180 1.384 . S
C179 C181 1.479 . S
C179 H197 0.929 . S
C180 C177 1.424 . S
C180 C179 1.384 . S
C180 H198 0.928 . S
C181 C178 1.260 . S
C181 C179 1.479 . S
C182 C177 1.245 . S
C182 C178 1.477 . S
C182 H199 0.932 . S
C183 U166 2.882 . S
C183 C177 1.428 . S
C183 O186 1.301 . S
C183 O187 1.282 . S
O184 U166 2.441 . S
O184 C170 1.249 . S
O185 U166 2.420 . S
O185 C170 1.202 . S
O186 U166 2.455 . S
O186 C183 1.301 . S
O187 U166 2.449 . S
O187 C183 1.282 . S
H188 C161 0.931 . S
H189 C163 0.929 . S
H190 C164 0.930 . S
H191 C165 0.931 . S
H192 C172 0.932 . S
H193 C173 0.930 . S
H194 C174 0.929 . S
H195 C176 0.930 . S
H196 C178 0.932 . S
H197 C179 0.929 . S
H198 C180 0.928 . S
H199 C182 0.932 . S
C200 C201 1.264 . S
C200 C205 1.479 . S
C200 C210 1.465 . S
C201 C200 1.264 . S
C201 C203 1.339 . S
C201 H228 0.931 . S
C202 C203 1.395 . S
C202 C204 1.320 . S
C203 C201 1.339 . S
C203 C202 1.395 . S
C203 H229 0.929 . S
C204 C202 1.320 . S
C204 C205 1.405 . S
C204 H230 0.930 . S
C205 C200 1.479 . S
C205 C204 1.405 . S
C205 H231 0.931 . S
U206 O207 2.454 . S
U206 O208 2.458 . S
U206 C209 2.984 . S
U206 C210 2.847 . S
U206 C223 2.882 . S
U206 O224 2.441 . S
U206 O225 2.420 . S
U206 O226 2.455 . S
U206 O227 2.449 . S
O207 U206 2.454 . S
O207 C209 1.353 . S
O208 U206 2.458 . S
O208 C209 1.286 . S
C209 U206 2.984 . S
C209 O207 1.353 . S
C209 O208 1.286 . S
C209 C211 1.363 . S
C210 C200 1.465 . S
C210 U206 2.847 . S
C210 O224 1.249 . S
C210 O225 1.202 . S
C211 C209 1.363 . S
C211 C213 1.408 . S
C211 C216 1.342 . S
C212 C213 1.310 . S
C212 C215 1.461 . S
C212 H232 0.932 . S
C213 C211 1.408 . S
C213 C212 1.310 . S
C213 H233 0.930 . S
C214 C215 1.474 . S
C214 C216 1.285 . S
C214 H234 0.929 . S
C215 C212 1.461 . S
C215 C214 1.474 . S
C216 C211 1.342 . S
C216 C214 1.285 . S
C216 H235 0.930 . S
C217 C220 1.424 . S
C217 C222 1.245 . S
C217 C223 1.428 . S
C218 C221 1.260 . S
C218 C222 1.477 . S
C218 H236 0.932 . S
C219 C220 1.384 . S
C219 C221 1.479 . S
C219 H237 0.929 . S
C220 C217 1.424 . S
C220 C219 1.384 . S
C220 H238 0.928 . S
C221 C218 1.260 . S
C221 C219 1.479 . S
C222 C217 1.245 . S
C222 C218 1.477 . S
C222 H239 0.932 . S
C223 U206 2.882 . S
C223 C217 1.428 . S
C223 O226 1.301 . S
C223 O227 1.282 . S
O224 U206 2.441 . S
O224 C210 1.249 . S
O225 U206 2.420 . S
O225 C210 1.202 . S
O226 U206 2.455 . S
O226 C223 1.301 . S
O227 U206 2.449 . S
O227 C223 1.282 . S
H228 C201 0.931 . S
H229 C203 0.929 . S
H230 C204 0.930 . S
H231 C205 0.931 . S
H232 C212 0.932 . S
H233 C213 0.930 . S
H234 C214 0.929 . S
H235 C216 0.930 . S
H236 C218 0.932 . S
H237 C219 0.929 . S
H238 C220 0.928 . S
H239 C222 0.932 . S
C240 C241 1.264 . S
C240 C245 1.479 . S
C240 C250 1.465 . S
C241 C240 1.264 . S
C241 C243 1.339 . S
C241 H268 0.931 . S
C242 C243 1.395 . S
C242 C244 1.320 . S
C243 C241 1.339 . S
C243 C242 1.395 . S
C243 H269 0.929 . S
C244 C242 1.320 . S
C244 C245 1.405 . S
C244 H270 0.930 . S
C245 C240 1.479 . S
C245 C244 1.405 . S
C245 H271 0.931 . S
U246 O247 2.454 . S
U246 O248 2.458 . S
U246 C249 2.984 . S
U246 C250 2.847 . S
U246 C263 2.882 . S
U246 O264 2.441 . S
U246 O265 2.420 . S
U246 O266 2.455 . S
U246 O267 2.449 . S
O247 U246 2.454 . S
O247 C249 1.353 . S
O248 U246 2.458 . S
O248 C249 1.286 . S
C249 U246 2.984 . S
C249 O247 1.353 . S
C249 O248 1.286 . S
C249 C251 1.363 . S
C250 C240 1.465 . S
C250 U246 2.847 . S
C250 O264 1.249 . S
C250 O265 1.202 . S
C251 C249 1.363 . S
C251 C253 1.408 . S
C251 C256 1.342 . S
C252 C253 1.310 . S
C252 C255 1.461 . S
C252 H272 0.932 . S
C253 C251 1.408 . S
C253 C252 1.310 . S
C253 H273 0.930 . S
C254 C255 1.474 . S
C254 C256 1.285 . S
C254 H274 0.929 . S
C255 C252 1.461 . S
C255 C254 1.474 . S
C256 C251 1.342 . S
C256 C254 1.285 . S
C256 H275 0.930 . S
C257 C260 1.424 . S
C257 C262 1.245 . S
C257 C263 1.428 . S
C258 C261 1.260 . S
C258 C262 1.477 . S
C258 H276 0.932 . S
C259 C260 1.384 . S
C259 C261 1.479 . S
C259 H277 0.929 . S
C260 C257 1.424 . S
C260 C259 1.384 . S
C260 H278 0.928 . S
C261 C258 1.260 . S
C261 C259 1.479 . S
C262 C257 1.245 . S
C262 C258 1.477 . S
C262 H279 0.932 . S
C263 U246 2.882 . S
C263 C257 1.428 . S
C263 O266 1.301 . S
C263 O267 1.282 . S
O264 U246 2.441 . S
O264 C250 1.249 . S
O265 U246 2.420 . S
O265 C250 1.202 . S
O266 U246 2.455 . S
O266 C263 1.301 . S
O267 U246 2.449 . S
O267 C263 1.282 . S
H268 C241 0.931 . S
H269 C243 0.929 . S
H270 C244 0.930 . S
H271 C245 0.931 . S
H272 C252 0.932 . S
H273 C253 0.930 . S
H274 C254 0.929 . S
H275 C256 0.930 . S
H276 C258 0.932 . S
H277 C259 0.929 . S
H278 C260 0.928 . S
H279 C262 0.932 . S
C280 C281 1.264 . S
C280 C285 1.479 . S
C280 C290 1.465 . S
C281 C280 1.264 . S
C281 C283 1.339 . S
C281 H308 0.931 . S
C282 C283 1.395 . S
C282 C284 1.320 . S
C283 C281 1.339 . S
C283 C282 1.395 . S
C283 H309 0.929 . S
C284 C282 1.320 . S
C284 C285 1.405 . S
C284 H310 0.930 . S
C285 C280 1.479 . S
C285 C284 1.405 . S
C285 H311 0.931 . S
U286 O287 2.454 . S
U286 O288 2.458 . S
U286 C289 2.984 . S
U286 C290 2.847 . S
U286 C303 2.882 . S
U286 O304 2.441 . S
U286 O305 2.420 . S
U286 O306 2.455 . S
U286 O307 2.449 . S
O287 U286 2.454 . S
O287 C289 1.353 . S
O288 U286 2.458 . S
O288 C289 1.286 . S
C289 U286 2.984 . S
C289 O287 1.353 . S
C289 O288 1.286 . S
C289 C291 1.363 . S
C290 C280 1.465 . S
C290 U286 2.847 . S
C290 O304 1.249 . S
C290 O305 1.202 . S
C291 C289 1.363 . S
C291 C293 1.408 . S
C291 C296 1.342 . S
C292 C293 1.310 . S
C292 C295 1.461 . S
C292 H312 0.932 . S
C293 C291 1.408 . S
C293 C292 1.310 . S
C293 H313 0.930 . S
C294 C295 1.474 . S
C294 C296 1.285 . S
C294 H314 0.929 . S
C295 C292 1.461 . S
C295 C294 1.474 . S
C296 C291 1.342 . S
C296 C294 1.285 . S
C296 H315 0.930 . S
C297 C300 1.424 . S
C297 C302 1.245 . S
C297 C303 1.428 . S
C298 C301 1.260 . S
C298 C302 1.477 . S
C298 H316 0.932 . S
C299 C300 1.384 . S
C299 C301 1.479 . S
C299 H317 0.929 . S
C300 C297 1.424 . S
C300 C299 1.384 . S
C300 H318 0.928 . S
C301 C298 1.260 . S
C301 C299 1.479 . S
C302 C297 1.245 . S
C302 C298 1.477 . S
C302 H319 0.932 . S
C303 U286 2.882 . S
C303 C297 1.428 . S
C303 O306 1.301 . S
C303 O307 1.282 . S
O304 U286 2.441 . S
O304 C290 1.249 . S
O305 U286 2.420 . S
O305 C290 1.202 . S
O306 U286 2.455 . S
O306 C303 1.301 . S
O307 U286 2.449 . S
O307 C303 1.282 . S
H308 C281 0.931 . S
H309 C283 0.929 . S
H310 C284 0.930 . S
H311 C285 0.931 . S
H312 C292 0.932 . S
H313 C293 0.930 . S
H314 C294 0.929 . S
H315 C296 0.930 . S
H316 C298 0.932 . S
H317 C299 0.929 . S
H318 C300 0.928 . S
H319 C302 0.932 . S
C320 C321 1.264 . S
C320 C325 1.479 . S
C320 C330 1.465 . S
C321 C320 1.264 . S
C321 C323 1.339 . S
C321 H348 0.931 . S
C322 C323 1.395 . S
C322 C324 1.320 . S
C323 C321 1.339 . S
C323 C322 1.395 . S
C323 H349 0.929 . S
C324 C322 1.320 . S
C324 C325 1.405 . S
C324 H350 0.930 . S
C325 C320 1.479 . S
C325 C324 1.405 . S
C325 H351 0.931 . S
U326 O327 2.454 . S
U326 O328 2.458 . S
U326 C329 2.984 . S
U326 C330 2.847 . S
U326 C343 2.882 . S
U326 O344 2.441 . S
U326 O345 2.420 . S
U326 O346 2.455 . S
U326 O347 2.449 . S
O327 U326 2.454 . S
O327 C329 1.353 . S
O328 U326 2.458 . S
O328 C329 1.286 . S
C329 U326 2.984 . S
C329 O327 1.353 . S
C329 O328 1.286 . S
C329 C331 1.363 . S
C330 C320 1.465 . S
C330 U326 2.847 . S
C330 O344 1.249 . S
C330 O345 1.202 . S
C331 C329 1.363 . S
C331 C333 1.408 . S
C331 C336 1.342 . S
C332 C333 1.310 . S
C332 C335 1.461 . S
C332 H352 0.932 . S
C333 C331 1.408 . S
C333 C332 1.310 . S
C333 H353 0.930 . S
C334 C335 1.474 . S
C334 C336 1.285 . S
C334 H354 0.929 . S
C335 C332 1.461 . S
C335 C334 1.474 . S
C336 C331 1.342 . S
C336 C334 1.285 . S
C336 H355 0.930 . S
C337 C340 1.424 . S
C337 C342 1.245 . S
C337 C343 1.428 . S
C338 C341 1.260 . S
C338 C342 1.477 . S
C338 H356 0.932 . S
C339 C340 1.384 . S
C339 C341 1.479 . S
C339 H357 0.929 . S
C340 C337 1.424 . S
C340 C339 1.384 . S
C340 H358 0.928 . S
C341 C338 1.260 . S
C341 C339 1.479 . S
C342 C337 1.245 . S
C342 C338 1.477 . S
C342 H359 0.932 . S
C343 U326 2.882 . S
C343 C337 1.428 . S
C343 O346 1.301 . S
C343 O347 1.282 . S
O344 U326 2.441 . S
O344 C330 1.249 . S
O345 U326 2.420 . S
O345 C330 1.202 . S
O346 U326 2.455 . S
O346 C343 1.301 . S
O347 U326 2.449 . S
O347 C343 1.282 . S
H348 C321 0.931 . S
H349 C323 0.929 . S
H350 C324 0.930 . S
H351 C325 0.931 . S
H352 C332 0.932 . S
H353 C333 0.930 . S
H354 C334 0.929 . S
H355 C336 0.930 . S
H356 C338 0.932 . S
H357 C339 0.929 . S
H358 C340 0.928 . S
H359 C342 0.932 . S
C360 C361 1.264 . S
C360 C365 1.479 . S
C360 C370 1.465 . S
C361 C360 1.264 . S
C361 C363 1.339 . S
C361 H388 0.931 . S
C362 C363 1.395 . S
C362 C364 1.320 . S
C363 C361 1.339 . S
C363 C362 1.395 . S
C363 H389 0.929 . S
C364 C362 1.320 . S
C364 C365 1.405 . S
C364 H390 0.930 . S
C365 C360 1.479 . S
C365 C364 1.405 . S
C365 H391 0.931 . S
U366 O367 2.454 . S
U366 O368 2.458 . S
U366 C369 2.984 . S
U366 C370 2.847 . S
U366 C383 2.882 . S
U366 O384 2.441 . S
U366 O385 2.420 . S
U366 O386 2.455 . S
U366 O387 2.449 . S
O367 U366 2.454 . S
O367 C369 1.353 . S
O368 U366 2.458 . S
O368 C369 1.286 . S
C369 U366 2.984 . S
C369 O367 1.353 . S
C369 O368 1.286 . S
C369 C371 1.363 . S
C370 C360 1.465 . S
C370 U366 2.847 . S
C370 O384 1.249 . S
C370 O385 1.202 . S
C371 C369 1.363 . S
C371 C373 1.408 . S
C371 C376 1.342 . S
C372 C373 1.310 . S
C372 C375 1.461 . S
C372 H392 0.932 . S
C373 C371 1.408 . S
C373 C372 1.310 . S
C373 H393 0.930 . S
C374 C375 1.474 . S
C374 C376 1.285 . S
C374 H394 0.929 . S
C375 C372 1.461 . S
C375 C374 1.474 . S
C376 C371 1.342 . S
C376 C374 1.285 . S
C376 H395 0.930 . S
C377 C380 1.424 . S
C377 C382 1.245 . S
C377 C383 1.428 . S
C378 C381 1.260 . S
C378 C382 1.477 . S
C378 H396 0.932 . S
C379 C380 1.384 . S
C379 C381 1.479 . S
C379 H397 0.929 . S
C380 C377 1.424 . S
C380 C379 1.384 . S
C380 H398 0.928 . S
C381 C378 1.260 . S
C381 C379 1.479 . S
C382 C377 1.245 . S
C382 C378 1.477 . S
C382 H399 0.932 . S
C383 U366 2.882 . S
C383 C377 1.428 . S
C383 O386 1.301 . S
C383 O387 1.282 . S
O384 U366 2.441 . S
O384 C370 1.249 . S
O385 U366 2.420 . S
O385 C370 1.202 . S
O386 U366 2.455 . S
O386 C383 1.301 . S
O387 U366 2.449 . S
O387 C383 1.282 . S
H388 C361 0.931 . S
H389 C363 0.929 . S
H390 C364 0.930 . S
H391 C365 0.931 . S
H392 C372 0.932 . S
H393 C373 0.930 . S
H394 C374 0.929 . S
H395 C376 0.930 . S
H396 C378 0.932 . S
H397 C379 0.929 . S
H398 C380 0.928 . S
H399 C382 0.932 . S
C400 C401 1.264 . S
C400 C405 1.479 . S
C400 C410 1.465 . S
C401 C400 1.264 . S
C401 C403 1.339 . S
C401 H428 0.931 . S
C402 C403 1.395 . S
C402 C404 1.320 . S
C403 C401 1.339 . S
C403 C402 1.395 . S
C403 H429 0.929 . S
C404 C402 1.320 . S
C404 C405 1.405 . S
C404 H430 0.930 . S
C405 C400 1.479 . S
C405 C404 1.405 . S
C405 H431 0.931 . S
U406 O407 2.454 . S
U406 O408 2.458 . S
U406 C409 2.984 . S
U406 C410 2.847 . S
U406 C423 2.882 . S
U406 O424 2.441 . S
U406 O425 2.420 . S
U406 O426 2.455 . S
U406 O427 2.449 . S
O407 U406 2.454 . S
O407 C409 1.353 . S
O408 U406 2.458 . S
O408 C409 1.286 . S
C409 U406 2.984 . S
C409 O407 1.353 . S
C409 O408 1.286 . S
C409 C411 1.363 . S
C410 C400 1.465 . S
C410 U406 2.847 . S
C410 O424 1.249 . S
C410 O425 1.202 . S
C411 C409 1.363 . S
C411 C413 1.408 . S
C411 C416 1.342 . S
C412 C413 1.310 . S
C412 C415 1.461 . S
C412 H432 0.932 . S
C413 C411 1.408 . S
C413 C412 1.310 . S
C413 H433 0.930 . S
C414 C415 1.474 . S
C414 C416 1.285 . S
C414 H434 0.929 . S
C415 C412 1.461 . S
C415 C414 1.474 . S
C416 C411 1.342 . S
C416 C414 1.285 . S
C416 H435 0.930 . S
C417 C420 1.424 . S
C417 C422 1.245 . S
C417 C423 1.428 . S
C418 C421 1.260 . S
C418 C422 1.477 . S
C418 H436 0.932 . S
C419 C420 1.384 . S
C419 C421 1.479 . S
C419 H437 0.929 . S
C420 C417 1.424 . S
C420 C419 1.384 . S
C420 H438 0.928 . S
C421 C418 1.260 . S
C421 C419 1.479 . S
C422 C417 1.245 . S
C422 C418 1.477 . S
C422 H439 0.932 . S
C423 U406 2.882 . S
C423 C417 1.428 . S
C423 O426 1.301 . S
C423 O427 1.282 . S
O424 U406 2.441 . S
O424 C410 1.249 . S
O425 U406 2.420 . S
O425 C410 1.202 . S
O426 U406 2.455 . S
O426 C423 1.301 . S
O427 U406 2.449 . S
O427 C423 1.282 . S
H428 C401 0.931 . S
H429 C403 0.929 . S
H430 C404 0.930 . S
H431 C405 0.931 . S
H432 C412 0.932 . S
H433 C413 0.930 . S
H434 C414 0.929 . S
H435 C416 0.930 . S
H436 C418 0.932 . S
H437 C419 0.929 . S
H438 C420 0.928 . S
H439 C422 0.932 . S
C440 C441 1.264 . S
C440 C445 1.479 . S
C440 C450 1.465 . S
C441 C440 1.264 . S
C441 C443 1.339 . S
C441 H468 0.931 . S
C442 C443 1.395 . S
C442 C444 1.320 . S
C443 C441 1.339 . S
C443 C442 1.395 . S
C443 H469 0.929 . S
C444 C442 1.320 . S
C444 C445 1.405 . S
C444 H470 0.930 . S
C445 C440 1.479 . S
C445 C444 1.405 . S
C445 H471 0.931 . S
U446 O447 2.454 . S
U446 O448 2.458 . S
U446 C449 2.984 . S
U446 C450 2.847 . S
U446 C463 2.882 . S
U446 O464 2.441 . S
U446 O465 2.420 . S
U446 O466 2.455 . S
U446 O467 2.449 . S
O447 U446 2.454 . S
O447 C449 1.353 . S
O448 U446 2.458 . S
O448 C449 1.286 . S
C449 U446 2.984 . S
C449 O447 1.353 . S
C449 O448 1.286 . S
C449 C451 1.363 . S
C450 C440 1.465 . S
C450 U446 2.847 . S
C450 O464 1.249 . S
C450 O465 1.202 . S
C451 C449 1.363 . S
C451 C453 1.408 . S
C451 C456 1.342 . S
C452 C453 1.310 . S
C452 C455 1.461 . S
C452 H472 0.932 . S
C453 C451 1.408 . S
C453 C452 1.310 . S
C453 H473 0.930 . S
C454 C455 1.474 . S
C454 C456 1.285 . S
C454 H474 0.929 . S
C455 C452 1.461 . S
C455 C454 1.474 . S
C456 C451 1.342 . S
C456 C454 1.285 . S
C456 H475 0.930 . S
C457 C460 1.424 . S
C457 C462 1.245 . S
C457 C463 1.428 . S
C458 C461 1.260 . S
C458 C462 1.477 . S
C458 H476 0.932 . S
C459 C460 1.384 . S
C459 C461 1.479 . S
C459 H477 0.929 . S
C460 C457 1.424 . S
C460 C459 1.384 . S
C460 H478 0.928 . S
C461 C458 1.260 . S
C461 C459 1.479 . S
C462 C457 1.245 . S
C462 C458 1.477 . S
C462 H479 0.932 . S
C463 U446 2.882 . S
C463 C457 1.428 . S
C463 O466 1.301 . S
C463 O467 1.282 . S
O464 U446 2.441 . S
O464 C450 1.249 . S
O465 U446 2.420 . S
O465 C450 1.202 . S
O466 U446 2.455 . S
O466 C463 1.301 . S
O467 U446 2.449 . S
O467 C463 1.282 . S
H468 C441 0.931 . S
H469 C443 0.929 . S
H470 C444 0.930 . S
H471 C445 0.931 . S
H472 C452 0.932 . S
H473 C453 0.930 . S
H474 C454 0.929 . S
H475 C456 0.930 . S
H476 C458 0.932 . S
H477 C459 0.929 . S
H478 C460 0.928 . S
H479 C462 0.932 . S
C480 C481 1.264 . S
C480 C485 1.479 . S
C480 C490 1.465 . S
C481 C480 1.264 . S
C481 C483 1.339 . S
C481 H508 0.931 . S
C482 C483 1.395 . S
C482 C484 1.320 . S
C483 C481 1.339 . S
C483 C482 1.395 . S
C483 H509 0.929 . S
C484 C482 1.320 . S
C484 C485 1.405 . S
C484 H510 0.930 . S
C485 C480 1.479 . S
C485 C484 1.405 . S
C485 H511 0.931 . S
U486 O487 2.454 . S
U486 O488 2.458 . S
U486 C489 2.984 . S
U486 C490 2.847 . S
U486 C503 2.882 . S
U486 O504 2.441 . S
U486 O505 2.420 . S
U486 O506 2.455 . S
U486 O507 2.449 . S
O487 U486 2.454 . S
O487 C489 1.353 . S
O488 U486 2.458 . S
O488 C489 1.286 . S
C489 U486 2.984 . S
C489 O487 1.353 . S
C489 O488 1.286 . S
C489 C491 1.363 . S
C490 C480 1.465 . S
C490 U486 2.847 . S
C490 O504 1.249 . S
C490 O505 1.202 . S
C491 C489 1.363 . S
C491 C493 1.408 . S
C491 C496 1.342 . S
C492 C493 1.310 . S
C492 C495 1.461 . S
C492 H512 0.932 . S
C493 C491 1.408 . S
C493 C492 1.310 . S
C493 H513 0.930 . S
C494 C495 1.474 . S
C494 C496 1.285 . S
C494 H514 0.929 . S
C495 C492 1.461 . S
C495 C494 1.474 . S
C496 C491 1.342 . S
C496 C494 1.285 . S
C496 H515 0.930 . S
C497 C500 1.424 . S
C497 C502 1.245 . S
C497 C503 1.428 . S
C498 C501 1.260 . S
C498 C502 1.477 . S
C498 H516 0.932 . S
C499 C500 1.384 . S
C499 C501 1.479 . S
C499 H517 0.929 . S
C500 C497 1.424 . S
C500 C499 1.384 . S
C500 H518 0.928 . S
C501 C498 1.260 . S
C501 C499 1.479 . S
C502 C497 1.245 . S
C502 C498 1.477 . S
C502 H519 0.932 . S
C503 U486 2.882 . S
C503 C497 1.428 . S
C503 O506 1.301 . S
C503 O507 1.282 . S
O504 U486 2.441 . S
O504 C490 1.249 . S
O505 U486 2.420 . S
O505 C490 1.202 . S
O506 U486 2.455 . S
O506 C503 1.301 . S
O507 U486 2.449 . S
O507 C503 1.282 . S
H508 C481 0.931 . S
H509 C483 0.929 . S
H510 C484 0.930 . S
H511 C485 0.931 . S
H512 C492 0.932 . S
H513 C493 0.930 . S
H514 C494 0.929 . S
H515 C496 0.930 . S
H516 C498 0.932 . S
H517 C499 0.929 . S
H518 C500 0.928 . S
H519 C502 0.932 . S
C520 C521 1.264 . S
C520 C525 1.479 . S
C520 C530 1.465 . S
C521 C520 1.264 . S
C521 C523 1.339 . S
C521 H548 0.931 . S
C522 C523 1.395 . S
C522 C524 1.320 . S
C523 C521 1.339 . S
C523 C522 1.395 . S
C523 H549 0.929 . S
C524 C522 1.320 . S
C524 C525 1.405 . S
C524 H550 0.930 . S
C525 C520 1.479 . S
C525 C524 1.405 . S
C525 H551 0.931 . S
U526 O527 2.454 . S
U526 O528 2.458 . S
U526 C529 2.984 . S
U526 C530 2.847 . S
U526 C543 2.882 . S
U526 O544 2.441 . S
U526 O545 2.420 . S
U526 O546 2.455 . S
U526 O547 2.449 . S
O527 U526 2.454 . S
O527 C529 1.353 . S
O528 U526 2.458 . S
O528 C529 1.286 . S
C529 U526 2.984 . S
C529 O527 1.353 . S
C529 O528 1.286 . S
C529 C531 1.363 . S
C530 C520 1.465 . S
C530 U526 2.847 . S
C530 O544 1.249 . S
C530 O545 1.202 . S
C531 C529 1.363 . S
C531 C533 1.408 . S
C531 C536 1.342 . S
C532 C533 1.310 . S
C532 C535 1.461 . S
C532 H552 0.932 . S
C533 C531 1.408 . S
C533 C532 1.310 . S
C533 H553 0.930 . S
C534 C535 1.474 . S
C534 C536 1.285 . S
C534 H554 0.929 . S
C535 C532 1.461 . S
C535 C534 1.474 . S
C536 C531 1.342 . S
C536 C534 1.285 . S
C536 H555 0.930 . S
C537 C540 1.424 . S
C537 C542 1.245 . S
C537 C543 1.428 . S
C538 C541 1.260 . S
C538 C542 1.477 . S
C538 H556 0.932 . S
C539 C540 1.384 . S
C539 C541 1.479 . S
C539 H557 0.929 . S
C540 C537 1.424 . S
C540 C539 1.384 . S
C540 H558 0.928 . S
C541 C538 1.260 . S
C541 C539 1.479 . S
C542 C537 1.245 . S
C542 C538 1.477 . S
C542 H559 0.932 . S
C543 U526 2.882 . S
C543 C537 1.428 . S
C543 O546 1.301 . S
C543 O547 1.282 . S
O544 U526 2.441 . S
O544 C530 1.249 . S
O545 U526 2.420 . S
O545 C530 1.202 . S
O546 U526 2.455 . S
O546 C543 1.301 . S
O547 U526 2.449 . S
O547 C543 1.282 . S
H548 C521 0.931 . S
H549 C523 0.929 . S
H550 C524 0.930 . S
H551 C525 0.931 . S
H552 C532 0.932 . S
H553 C533 0.930 . S
H554 C534 0.929 . S
H555 C536 0.930 . S
H556 C538 0.932 . S
H557 C539 0.929 . S
H558 C540 0.928 . S
H559 C542 0.932 . S
C560 C561 1.264 . S
C560 C565 1.479 . S
C560 C570 1.465 . S
C561 C560 1.264 . S
C561 C563 1.339 . S
C561 H588 0.931 . S
C562 C563 1.395 . S
C562 C564 1.320 . S
C563 C561 1.339 . S
C563 C562 1.395 . S
C563 H589 0.929 . S
C564 C562 1.320 . S
C564 C565 1.405 . S
C564 H590 0.930 . S
C565 C560 1.479 . S
C565 C564 1.405 . S
C565 H591 0.931 . S
U566 O567 2.454 . S
U566 O568 2.458 . S
U566 C569 2.984 . S
U566 C570 2.847 . S
U566 C583 2.882 . S
U566 O584 2.441 . S
U566 O585 2.420 . S
U566 O586 2.455 . S
U566 O587 2.449 . S
O567 U566 2.454 . S
O567 C569 1.353 . S
O568 U566 2.458 . S
O568 C569 1.286 . S
C569 U566 2.984 . S
C569 O567 1.353 . S
C569 O568 1.286 . S
C569 C571 1.363 . S
C570 C560 1.465 . S
C570 U566 2.847 . S
C570 O584 1.249 . S
C570 O585 1.202 . S
C571 C569 1.363 . S
C571 C573 1.408 . S
C571 C576 1.342 . S
C572 C573 1.310 . S
C572 C575 1.461 . S
C572 H592 0.932 . S
C573 C571 1.408 . S
C573 C572 1.310 . S
C573 H593 0.930 . S
C574 C575 1.474 . S
C574 C576 1.285 . S
C574 H594 0.929 . S
C575 C572 1.461 . S
C575 C574 1.474 . S
C576 C571 1.342 . S
C576 C574 1.285 . S
C576 H595 0.930 . S
C577 C580 1.424 . S
C577 C582 1.245 . S
C577 C583 1.428 . S
C578 C581 1.260 . S
C578 C582 1.477 . S
C578 H596 0.932 . S
C579 C580 1.384 . S
C579 C581 1.479 . S
C579 H597 0.929 . S
C580 C577 1.424 . S
C580 C579 1.384 . S
C580 H598 0.928 . S
C581 C578 1.260 . S
C581 C579 1.479 . S
C582 C577 1.245 . S
C582 C578 1.477 . S
C582 H599 0.932 . S
C583 U566 2.882 . S
C583 C577 1.428 . S
C583 O586 1.301 . S
C583 O587 1.282 . S
O584 U566 2.441 . S
O584 C570 1.249 . S
O585 U566 2.420 . S
O585 C570 1.202 . S
O586 U566 2.455 . S
O586 C583 1.301 . S
O587 U566 2.449 . S
O587 C583 1.282 . S
H588 C561 0.931 . S
H589 C563 0.929 . S
H590 C564 0.930 . S
H591 C565 0.931 . S
H592 C572 0.932 . S
H593 C573 0.930 . S
H594 C574 0.929 . S
H595 C576 0.930 . S
H596 C578 0.932 . S
H597 C579 0.929 . S
H598 C580 0.928 . S
H599 C582 0.932 . S
C600 C601 1.264 . S
C600 C605 1.479 . S
C600 C610 1.465 . S
C601 C600 1.264 . S
C601 C603 1.339 . S
C601 H628 0.931 . S
C602 C603 1.395 . S
C602 C604 1.320 . S
C603 C601 1.339 . S
C603 C602 1.395 . S
C603 H629 0.929 . S
C604 C602 1.320 . S
C604 C605 1.405 . S
C604 H630 0.930 . S
C605 C600 1.479 . S
C605 C604 1.405 . S
C605 H631 0.931 . S
U606 O607 2.454 . S
U606 O608 2.458 . S
U606 C609 2.984 . S
U606 C610 2.847 . S
U606 C623 2.882 . S
U606 O624 2.441 . S
U606 O625 2.420 . S
U606 O626 2.455 . S
U606 O627 2.449 . S
O607 U606 2.454 . S
O607 C609 1.353 . S
O608 U606 2.458 . S
O608 C609 1.286 . S
C609 U606 2.984 . S
C609 O607 1.353 . S
C609 O608 1.286 . S
C609 C611 1.363 . S
C610 C600 1.465 . S
C610 U606 2.847 . S
C610 O624 1.249 . S
C610 O625 1.202 . S
C611 C609 1.363 . S
C611 C613 1.408 . S
C611 C616 1.342 . S
C612 C613 1.310 . S
C612 C615 1.461 . S
C612 H632 0.932 . S
C613 C611 1.408 . S
C613 C612 1.310 . S
C613 H633 0.930 . S
C614 C615 1.474 . S
C614 C616 1.285 . S
C614 H634 0.929 . S
C615 C612 1.461 . S
C615 C614 1.474 . S
C616 C611 1.342 . S
C616 C614 1.285 . S
C616 H635 0.930 . S
C617 C620 1.424 . S
C617 C622 1.245 . S
C617 C623 1.428 . S
C618 C621 1.260 . S
C618 C622 1.477 . S
C618 H636 0.932 . S
C619 C620 1.384 . S
C619 C621 1.479 . S
C619 H637 0.929 . S
C620 C617 1.424 . S
C620 C619 1.384 . S
C620 H638 0.928 . S
C621 C618 1.260 . S
C621 C619 1.479 . S
C622 C617 1.245 . S
C622 C618 1.477 . S
C622 H639 0.932 . S
C623 U606 2.882 . S
C623 C617 1.428 . S
C623 O626 1.301 . S
C623 O627 1.282 . S
O624 U606 2.441 . S
O624 C610 1.249 . S
O625 U606 2.420 . S
O625 C610 1.202 . S
O626 U606 2.455 . S
O626 C623 1.301 . S
O627 U606 2.449 . S
O627 C623 1.282 . S
H628 C601 0.931 . S
H629 C603 0.929 . S
H630 C604 0.930 . S
H631 C605 0.931 . S
H632 C612 0.932 . S
H633 C613 0.930 . S
H634 C614 0.929 . S
H635 C616 0.930 . S
H636 C618 0.932 . S
H637 C619 0.929 . S
H638 C620 0.928 . S
H639 C622 0.932 . S
C640 C641 1.264 . S
C640 C645 1.479 . S
C640 C650 1.465 . S
C641 C640 1.264 . S
C641 C643 1.339 . S
C641 H668 0.931 . S
C642 C643 1.395 . S
C642 C644 1.320 . S
C643 C641 1.339 . S
C643 C642 1.395 . S
C643 H669 0.929 . S
C644 C642 1.320 . S
C644 C645 1.405 . S
C644 H670 0.930 . S
C645 C640 1.479 . S
C645 C644 1.405 . S
C645 H671 0.931 . S
U646 O647 2.454 . S
U646 O648 2.458 . S
U646 C649 2.984 . S
U646 C650 2.847 . S
U646 C663 2.882 . S
U646 O664 2.441 . S
U646 O665 2.420 . S
U646 O666 2.455 . S
U646 O667 2.449 . S
O647 U646 2.454 . S
O647 C649 1.353 . S
O648 U646 2.458 . S
O648 C649 1.286 . S
C649 U646 2.984 . S
C649 O647 1.353 . S
C649 O648 1.286 . S
C649 C651 1.363 . S
C650 C640 1.465 . S
C650 U646 2.847 . S
C650 O664 1.249 . S
C650 O665 1.202 . S
C651 C649 1.363 . S
C651 C653 1.408 . S
C651 C656 1.342 . S
C652 C653 1.310 . S
C652 C655 1.461 . S
C652 H672 0.932 . S
C653 C651 1.408 . S
C653 C652 1.310 . S
C653 H673 0.930 . S
C654 C655 1.474 . S
C654 C656 1.285 . S
C654 H674 0.929 . S
C655 C652 1.461 . S
C655 C654 1.474 . S
C656 C651 1.342 . S
C656 C654 1.285 . S
C656 H675 0.930 . S
C657 C660 1.424 . S
C657 C662 1.245 . S
C657 C663 1.428 . S
C658 C661 1.260 . S
C658 C662 1.477 . S
C658 H676 0.960 . S
C659 C660 1.384 . S
C659 C661 1.479 . S
C659 H677 0.929 . S
C660 C657 1.424 . S
C660 C659 1.384 . S
C660 H678 0.928 . S
C661 C658 1.260 . S
C661 C659 1.479 . S
C662 C657 1.245 . S
C662 C658 1.477 . S
C662 H679 0.932 . S
C663 U646 2.882 . S
C663 C657 1.428 . S
C663 O666 1.301 . S
C663 O667 1.282 . S
O664 U646 2.441 . S
O664 C650 1.249 . S
O665 U646 2.420 . S
O665 C650 1.202 . S
O666 U646 2.455 . S
O666 C663 1.301 . S
O667 U646 2.449 . S
O667 C663 1.282 . S
H668 C641 0.931 . S
H669 C643 0.929 . S
H670 C644 0.930 . S
H671 C645 0.931 . S
H672 C652 0.932 . S
H673 C653 0.930 . S
H674 C654 0.929 . S
H675 C656 0.930 . S
H676 C658 0.960 . S
H677 C659 0.929 . S
H678 C660 0.928 . S
H679 C662 0.932 . S
C680 C681 1.264 . S
C680 C685 1.479 . S
C680 C690 1.465 . S
C681 C680 1.264 . S
C681 C683 1.339 . S
C681 H708 0.931 . S
C682 C683 1.395 . S
C682 C684 1.320 . S
C683 C681 1.339 . S
C683 C682 1.395 . S
C683 H709 0.929 . S
C684 C682 1.320 . S
C684 C685 1.405 . S
C684 H710 0.930 . S
C685 C680 1.479 . S
C685 C684 1.405 . S
C685 H711 0.931 . S
U686 O687 2.454 . S
U686 O688 2.458 . S
U686 C689 2.984 . S
U686 C690 2.847 . S
U686 C703 2.882 . S
U686 O704 2.441 . S
U686 O705 2.420 . S
U686 O706 2.455 . S
U686 O707 2.449 . S
O687 U686 2.454 . S
O687 C689 1.353 . S
O688 U686 2.458 . S
O688 C689 1.286 . S
C689 U686 2.984 . S
C689 O687 1.353 . S
C689 O688 1.286 . S
C689 C691 1.363 . S
C690 C680 1.465 . S
C690 U686 2.847 . S
C690 O704 1.249 . S
C690 O705 1.202 . S
C691 C689 1.363 . S
C691 C693 1.408 . S
C691 C696 1.342 . S
C692 C693 1.310 . S
C692 C695 1.461 . S
C692 H712 0.932 . S
C693 C691 1.408 . S
C693 C692 1.310 . S
C693 H713 0.930 . S
C694 C695 1.474 . S
C694 C696 1.285 . S
C694 H714 0.929 . S
C695 C692 1.461 . S
C695 C694 1.474 . S
C696 C691 1.342 . S
C696 C694 1.285 . S
C696 H715 0.930 . S
C697 C700 1.424 . S
C697 C702 1.245 . S
C697 C703 1.428 . S
C698 C701 1.260 . S
C698 C702 1.477 . S
C698 H716 0.932 . S
C699 C700 1.384 . S
C699 C701 1.479 . S
C699 H717 0.929 . S
C700 C697 1.424 . S
C700 C699 1.384 . S
C700 H718 0.928 . S
C701 C698 1.260 . S
C701 C699 1.479 . S
C702 C697 1.245 . S
C702 C698 1.477 . S
C702 H719 0.932 . S
C703 U686 2.882 . S
C703 C697 1.428 . S
C703 O706 1.301 . S
C703 O707 1.282 . S
O704 U686 2.441 . S
O704 C690 1.249 . S
O705 U686 2.420 . S
O705 C690 1.202 . S
O706 U686 2.455 . S
O706 C703 1.301 . S
O707 U686 2.449 . S
O707 C703 1.282 . S
H708 C681 0.931 . S
H709 C683 0.929 . S
H710 C684 0.930 . S
H711 C685 0.931 . S
H712 C692 0.932 . S
H713 C693 0.930 . S
H714 C694 0.929 . S
H715 C696 0.930 . S
H716 C698 0.932 . S
H717 C699 0.929 . S
H718 C700 0.928 . S
H719 C702 0.932 . S
C720 Eu721 2.835 . S
C720 C722 1.505 . S
C720 O740 1.257 1_545 S
C720 O741 1.260 . S
Eu721 C720 2.835 . S
Eu721 O740 2.473 1_545 S
Eu721 O741 2.480 . S
Eu721 O742 2.430 . S
Eu721 O743 2.670 1_554 S
Eu721 O744 2.394 1_545 S
Eu721 O749 2.355 1_545 S
Eu721 O751 2.374 . S
C722 C720 1.505 . S
C722 C723 1.401 . S
C722 C727 1.350 1_545 S
C723 C722 1.401 . S
C723 C724 1.395 . S
C723 H752 0.931 . S
C724 C723 1.395 . S
C724 C725 1.383 1_545 S
C724 H753 0.931 . S
C725 C724 1.383 1_565 S
C725 C726 1.394 . S
C726 C725 1.394 . S
C726 C727 1.378 . S
C726 H754 0.931 . S
C727 C722 1.350 1_565 S
C727 C726 1.378 . S
C727 H755 0.931 . S
C728 O742 1.259 . S
C728 O743 1.270 1_554 S
C729 O744 1.251 . S
C729 O745 1.288 . S
C730 Eu731 2.835 . S
C730 C732 1.500 . S
C730 O746 1.257 1_565 S
C730 O747 1.260 . S
Eu731 C730 2.835 . S
Eu731 O743 2.355 1_565 S
Eu731 O745 2.347 1_556 S
Eu731 O746 2.473 1_565 S
Eu731 O747 2.480 . S
Eu731 O748 2.430 . S
Eu731 O749 2.670 1_556 S
Eu731 O750 2.394 1_565 S
C732 C730 1.500 . S
C732 C733 1.377 . S
C732 C737 1.378 1_565 S
C733 C732 1.377 . S
C733 C734 1.395 . S
C733 H756 0.931 . S
C734 C733 1.395 . S
C734 C735 1.383 1_565 S
C734 H757 0.931 . S
C735 C734 1.383 1_545 S
C735 C736 1.394 . S
C736 C735 1.394 . S
C736 C737 1.378 . S
C736 H758 0.931 . S
C737 C732 1.378 1_545 S
C737 C736 1.378 . S
C737 H759 0.931 . S
C738 O748 1.259 1_554 S
C738 O749 1.270 . S
C739 O750 1.251 . S
C739 O751 1.251 1_556 S
O740 C720 1.257 1_565 S
O740 Eu721 2.473 1_565 S
O741 C720 1.260 . S
O741 Eu721 2.480 . S
O742 Eu721 2.430 . S
O742 C728 1.259 . S
O743 Eu721 2.670 1_556 S
O743 C728 1.270 1_556 S
O743 Eu731 2.355 1_545 S
O744 Eu721 2.394 1_565 S
O744 C729 1.251 . S
O745 C729 1.288 . S
O745 Eu731 2.347 1_554 S
O746 C730 1.257 1_545 S
O746 Eu731 2.473 1_545 S
O747 C730 1.260 . S
O747 Eu731 2.480 . S
O748 Eu731 2.430 . S
O748 C738 1.259 1_556 S
O749 Eu721 2.355 1_565 S
O749 Eu731 2.670 1_554 S
O749 C738 1.270 . S
O750 Eu731 2.394 1_545 S
O750 C739 1.251 . S
O751 Eu721 2.374 . S
O751 C739 1.251 1_554 S
H752 C723 0.931 . S
H753 C724 0.931 . S
H754 C726 0.931 . S
H755 C727 0.931 . S
H756 C733 0.931 . S
H757 C734 0.931 . S
H758 C736 0.931 . S
H759 C737 0.931 . S
C760 Eu761 2.835 . S
C760 C762 1.500 1_655 S
C760 O780 1.257 1_655 S
C760 O781 1.260 . S
Eu761 C760 2.835 . S
Eu761 O780 2.473 1_655 S
Eu761 O781 2.480 . S
Eu761 O782 2.430 . S
Eu761 O783 2.670 1_554 S
Eu761 O784 2.394 1_655 S
Eu761 O789 2.355 1_655 S
Eu761 O791 2.374 . S
C762 C760 1.500 1_455 S
C762 C763 1.377 1_455 S
C762 C767 1.377 . S
C763 C762 1.377 1_655 S
C763 C764 1.395 . S
C763 H792 0.931 . S
C764 C763 1.395 . S
C764 C765 1.383 1_655 S
C764 H793 0.931 . S
C765 C764 1.383 1_455 S
C765 C766 1.394 . S
C766 C765 1.394 . S
C766 C767 1.378 . S
C766 H794 0.931 . S
C767 C762 1.377 . S
C767 C766 1.378 . S
C767 H795 0.931 . S
C768 O782 1.253 . S
C768 O783 1.272 1_554 S
C769 O784 1.251 . S
C769 O785 1.251 . S
C770 Eu771 2.835 . S
C770 C772 1.500 1_455 S
C770 O786 1.257 1_455 S
C770 O787 1.260 . S
Eu771 C770 2.835 . S
Eu771 O783 2.355 1_455 S
Eu771 O785 2.374 1_556 S
Eu771 O786 2.473 1_455 S
Eu771 O787 2.480 . S
Eu771 O788 2.430 . S
Eu771 O789 2.670 1_556 S
Eu771 O790 2.394 1_455 S
C772 C770 1.500 1_655 S
C772 C773 1.377 1_655 S
C772 C777 1.377 . S
C773 C772 1.377 1_455 S
C773 C774 1.395 . S
C773 H796 0.931 . S
C774 C773 1.395 . S
C774 C775 1.383 1_455 S
C774 H797 0.931 . S
C775 C774 1.383 1_655 S
C775 C776 1.394 . S
C776 C775 1.394 . S
C776 C777 1.378 . S
C776 H798 0.931 . S
C777 C772 1.377 . S
C777 C776 1.378 . S
C777 H799 0.931 . S
C778 O788 1.259 1_554 S
C778 O789 1.270 . S
C779 O790 1.251 . S
C779 O791 1.251 1_556 S
O780 C760 1.257 1_455 S
O780 Eu761 2.473 1_455 S
O781 C760 1.260 . S
O781 Eu761 2.480 . S
O782 Eu761 2.430 . S
O782 C768 1.253 . S
O783 Eu761 2.670 1_556 S
O783 C768 1.272 1_556 S
O783 Eu771 2.355 1_655 S
O784 Eu761 2.394 1_455 S
O784 C769 1.251 . S
O785 C769 1.251 . S
O785 Eu771 2.374 1_554 S
O786 C770 1.257 1_655 S
O786 Eu771 2.473 1_655 S
O787 C770 1.260 . S
O787 Eu771 2.480 . S
O788 Eu771 2.430 . S
O788 C778 1.259 1_556 S
O789 Eu761 2.355 1_455 S
O789 Eu771 2.670 1_554 S
O789 C778 1.270 . S
O790 Eu771 2.394 1_655 S
O790 C779 1.251 . S
O791 Eu761 2.374 . S
O791 C779 1.251 1_554 S
H792 C763 0.931 . S
H793 C764 0.931 . S
H794 C766 0.931 . S
H795 C767 0.931 . S
H796 C773 0.931 . S
H797 C774 0.931 . S
H798 C776 0.931 . S
H799 C777 0.931 . S
C800 Eu801 2.835 . S
C800 C802 1.500 . S
C800 O820 1.257 . S
C800 O821 1.260 . S
Eu801 C800 2.835 . S
Eu801 O820 2.473 . S
Eu801 O821 2.480 . S
Eu801 O822 2.430 . S
Eu801 O823 2.670 1_556 S
Eu801 O824 2.394 . S
Eu801 O829 2.355 . S
Eu801 O831 2.374 1_556 S
C802 C800 1.500 . S
C802 C803 1.377 . S
C802 C807 1.377 . S
C803 C802 1.377 . S
C803 C804 1.395 . S
C803 H832 0.931 . S
C804 C803 1.395 . S
C804 C805 1.383 . S
C804 H833 0.931 . S
C805 C804 1.383 . S
C805 C806 1.394 . S
C806 C805 1.394 . S
C806 C807 1.378 . S
C806 H834 0.931 . S
C807 C802 1.377 . S
C807 C806 1.378 . S
C807 H835 0.931 . S
C808 O822 1.259 1_554 S
C808 O823 1.270 . S
C809 O824 1.251 . S
C809 O825 1.251 1_556 S
C810 Eu811 2.835 . S
C810 C812 1.500 . S
C810 O826 1.257 . S
C810 O827 1.260 . S
Eu811 C810 2.835 . S
Eu811 O823 2.355 . S
Eu811 O825 2.374 . S
Eu811 O826 2.473 . S
Eu811 O827 2.480 . S
Eu811 O828 2.430 . S
Eu811 O829 2.670 1_554 S
Eu811 O830 2.394 . S
C812 C810 1.500 . S
C812 C813 1.377 . S
C812 C817 1.377 . S
C813 C812 1.377 . S
C813 C814 1.395 . S
C813 H836 0.931 . S
C814 C813 1.395 . S
C814 C815 1.383 . S
C814 H837 0.931 . S
C815 C814 1.383 . S
C815 C816 1.394 . S
C816 C815 1.394 . S
C816 C817 1.378 . S
C816 H838 0.931 . S
C817 C812 1.377 . S
C817 C816 1.378 . S
C817 H839 0.931 . S
C818 O828 1.319 . S
C818 O829 1.246 1_554 S
C819 O830 1.251 . S
C819 O831 1.251 . S
O820 C800 1.257 . S
O820 Eu801 2.473 . S
O821 C800 1.260 . S
O821 Eu801 2.480 . S
O822 Eu801 2.430 . S
O822 C808 1.259 1_556 S
O823 Eu801 2.670 1_554 S
O823 C808 1.270 . S
O823 Eu811 2.355 . S
O824 Eu801 2.394 . S
O824 C809 1.251 . S
O825 C809 1.251 1_554 S
O825 Eu811 2.374 . S
O826 C810 1.257 . S
O826 Eu811 2.473 . S
O827 C810 1.260 . S
O827 Eu811 2.480 . S
O828 Eu811 2.430 . S
O828 C818 1.319 . S
O829 Eu801 2.355 . S
O829 Eu811 2.670 1_556 S
O829 C818 1.246 1_556 S
O830 Eu811 2.394 . S
O830 C819 1.251 . S
O831 Eu801 2.374 1_554 S
O831 C819 1.251 . S
H832 C803 0.931 . S
H833 C804 0.931 . S
H834 C806 0.931 . S
H835 C807 0.931 . S
H836 C813 0.931 . S
H837 C814 0.931 . S
H838 C816 0.931 . S
H839 C817 0.931 . S
C840 Eu841 2.835 . S
C840 C842 1.500 . S
C840 O860 1.257 . S
C840 O861 1.260 . S
Eu841 C840 2.835 . S
Eu841 O860 2.473 . S
Eu841 O861 2.480 . S
Eu841 O862 2.430 . S
Eu841 O863 2.670 . S
Eu841 O864 2.394 . S
Eu841 O869 2.355 . S
Eu841 O871 2.374 . S
C842 C840 1.500 . S
C842 C843 1.377 . S
C842 C847 1.377 . S
C843 C842 1.377 . S
C843 C844 1.395 . S
C843 H872 0.931 . S
C844 C843 1.395 . S
C844 C845 1.383 . S
C844 H873 0.931 . S
C845 C844 1.383 . S
C845 C846 1.394 . S
C846 C845 1.394 . S
C846 C847 1.378 . S
C846 H874 0.931 . S
C847 C842 1.377 . S
C847 C846 1.378 . S
C847 H875 0.931 . S
C848 O862 1.259 . S
C848 O863 1.270 . S
C849 O864 1.251 . S
C849 O865 1.251 . S
C850 Eu851 2.835 . S
C850 C852 1.500 . S
C850 O866 1.257 . S
C850 O867 1.260 . S
Eu851 C850 2.835 . S
Eu851 O863 2.355 . S
Eu851 O865 2.374 . S
Eu851 O866 2.473 . S
Eu851 O867 2.480 . S
Eu851 O868 2.430 . S
Eu851 O869 2.670 . S
Eu851 O870 2.394 . S
C852 C850 1.500 . S
C852 C853 1.377 . S
C852 C857 1.377 . S
C853 C852 1.377 . S
C853 C854 1.395 . S
C853 H876 0.931 . S
C854 C853 1.395 . S
C854 C855 1.383 . S
C854 H877 0.931 . S
C855 C854 1.383 . S
C855 C856 1.394 . S
C856 C855 1.394 . S
C856 C857 1.378 . S
C856 H878 0.931 . S
C857 C852 1.377 . S
C857 C856 1.378 . S
C857 H879 0.931 . S
C858 O868 1.259 . S
C858 O869 1.270 . S
C859 O870 1.251 . S
C859 O871 1.251 . S
O860 C840 1.257 . S
O860 Eu841 2.473 . S
O861 C840 1.260 . S
O861 Eu841 2.480 . S
O862 Eu841 2.430 . S
O862 C848 1.259 . S
O863 Eu841 2.670 . S
O863 C848 1.270 . S
O863 Eu851 2.355 . S
O864 Eu841 2.394 . S
O864 C849 1.251 . S
O865 C849 1.251 . S
O865 Eu851 2.374 . S
O866 C850 1.257 . S
O866 Eu851 2.473 . S
O867 C850 1.260 . S
O867 Eu851 2.480 . S
O868 Eu851 2.430 . S
O868 C858 1.259 . S
O869 Eu841 2.355 . S
O869 Eu851 2.670 . S
O869 C858 1.270 . S
O870 Eu851 2.394 . S
O870 C859 1.251 . S
O871 Eu841 2.374 . S
O871 C859 1.251 . S
H872 C843 0.931 . S
H873 C844 0.931 . S
H874 C846 0.931 . S
H875 C847 0.931 . S
H876 C853 0.931 . S
H877 C854 0.931 . S
H878 C856 0.931 . S
H879 C857 0.931 . S
C880 Eu881 2.835 . S
C880 C882 1.500 . S
C880 O900 1.257 . S
C880 O901 1.260 . S
Eu881 C880 2.835 . S
Eu881 O900 2.473 . S
Eu881 O901 2.480 . S
Eu881 O902 2.430 . S
Eu881 O903 2.670 . S
Eu881 O904 2.394 . S
Eu881 O909 2.355 . S
Eu881 O911 2.374 . S
C882 C880 1.500 . S
C882 C883 1.377 . S
C882 C887 1.377 . S
C883 C882 1.377 . S
C883 C884 1.395 . S
C883 H912 0.931 . S
C884 C883 1.395 . S
C884 C885 1.383 . S
C884 H913 0.931 . S
C885 C884 1.383 . S
C885 C886 1.394 . S
C886 C885 1.394 . S
C886 C887 1.378 . S
C886 H914 0.931 . S
C887 C882 1.377 . S
C887 C886 1.378 . S
C887 H915 0.931 . S
C888 O902 1.259 . S
C888 O903 1.270 . S
C889 O904 1.251 . S
C889 O905 1.251 . S
C890 Eu891 2.835 . S
C890 C892 1.500 . S
C890 O906 1.257 . S
C890 O907 1.260 . S
Eu891 C890 2.835 . S
Eu891 O903 2.355 . S
Eu891 O905 2.374 . S
Eu891 O906 2.473 . S
Eu891 O907 2.480 . S
Eu891 O908 2.430 . S
Eu891 O909 2.670 . S
Eu891 O910 2.394 . S
C892 C890 1.500 . S
C892 C893 1.377 . S
C892 C897 1.377 . S
C893 C892 1.377 . S
C893 C894 1.395 . S
C893 H916 0.931 . S
C894 C893 1.395 . S
C894 C895 1.383 . S
C894 H917 0.931 . S
C895 C894 1.383 . S
C895 C896 1.394 . S
C896 C895 1.394 . S
C896 C897 1.378 . S
C896 H918 0.931 . S
C897 C892 1.377 . S
C897 C896 1.378 . S
C897 H919 0.931 . S
C898 O908 1.259 . S
C898 O909 1.270 . S
C899 O910 1.251 . S
C899 O911 1.251 . S
O900 C880 1.257 . S
O900 Eu881 2.473 . S
O901 C880 1.260 . S
O901 Eu881 2.480 . S
O902 Eu881 2.430 . S
O902 C888 1.259 . S
O903 Eu881 2.670 . S
O903 C888 1.270 . S
O903 Eu891 2.355 . S
O904 Eu881 2.394 . S
O904 C889 1.251 . S
O905 C889 1.251 . S
O905 Eu891 2.374 . S
O906 C890 1.257 . S
O906 Eu891 2.473 . S
O907 C890 1.260 . S
O907 Eu891 2.480 . S
O908 Eu891 2.430 . S
O908 C898 1.259 . S
O909 Eu881 2.355 . S
O909 Eu891 2.670 . S
O909 C898 1.270 . S
O910 Eu891 2.394 . S
O910 C899 1.251 . S
O911 Eu881 2.374 . S
O911 C899 1.251 . S
H912 C883 0.931 . S
H913 C884 0.931 . S
H914 C886 0.931 . S
H915 C887 0.931 . S
H916 C893 0.931 . S
H917 C894 0.931 . S
H918 C896 0.931 . S
H919 C897 0.931 . S
C920 Eu921 2.835 . S
C920 C922 1.500 . S
C920 O940 1.257 . S
C920 O941 1.260 . S
Eu921 C920 2.835 . S
Eu921 O940 2.473 . S
Eu921 O941 2.480 . S
Eu921 O942 2.430 . S
Eu921 O943 2.670 . S
Eu921 O944 2.394 . S
Eu921 O949 2.355 . S
Eu921 O951 2.374 . S
C922 C920 1.500 . S
C922 C923 1.377 . S
C922 C927 1.377 . S
C923 C922 1.377 . S
C923 C924 1.395 . S
C923 H952 0.931 . S
C924 C923 1.395 . S
C924 C925 1.383 . S
C924 H953 0.931 . S
C925 C924 1.383 . S
C925 C926 1.394 . S
C926 C925 1.394 . S
C926 C927 1.378 . S
C926 H954 0.931 . S
C927 C922 1.377 . S
C927 C926 1.378 . S
C927 H955 0.931 . S
C928 O942 1.259 . S
C928 O943 1.270 . S
C929 O944 1.251 . S
C929 O945 1.251 . S
C930 Eu931 2.835 . S
C930 C932 1.500 . S
C930 O946 1.257 . S
C930 O947 1.260 . S
Eu931 C930 2.835 . S
Eu931 O943 2.355 . S
Eu931 O945 2.374 . S
Eu931 O946 2.473 . S
Eu931 O947 2.480 . S
Eu931 O948 2.430 . S
Eu931 O949 2.670 . S
Eu931 O950 2.394 . S
C932 C930 1.500 . S
C932 C933 1.377 . S
C932 C937 1.377 . S
C933 C932 1.377 . S
C933 C934 1.395 . S
C933 H956 0.931 . S
C934 C933 1.395 . S
C934 C935 1.383 . S
C934 H957 0.931 . S
C935 C934 1.383 . S
C935 C936 1.394 . S
C936 C935 1.394 . S
C936 C937 1.378 . S
C936 H958 0.931 . S
C937 C932 1.377 . S
C937 C936 1.378 . S
C937 H959 0.931 . S
C938 O948 1.259 . S
C938 O949 1.270 . S
C939 O950 1.251 . S
C939 O951 1.251 . S
O940 C920 1.257 . S
O940 Eu921 2.473 . S
O941 C920 1.260 . S
O941 Eu921 2.480 . S
O942 Eu921 2.430 . S
O942 C928 1.259 . S
O943 Eu921 2.670 . S
O943 C928 1.270 . S
O943 Eu931 2.355 . S
O944 Eu921 2.394 . S
O944 C929 1.251 . S
O945 C929 1.251 . S
O945 Eu931 2.374 . S
O946 C930 1.257 . S
O946 Eu931 2.473 . S
O947 C930 1.260 . S
O947 Eu931 2.480 . S
O948 Eu931 2.430 . S
O948 C938 1.259 . S
O949 Eu921 2.355 . S
O949 Eu931 2.670 . S
O949 C938 1.270 . S
O950 Eu931 2.394 . S
O950 C939 1.251 . S
O951 Eu921 2.374 . S
O951 C939 1.251 . S
H952 C923 0.931 . S
H953 C924 0.931 . S
H954 C926 0.931 . S
H955 C927 0.931 . S
H956 C933 0.931 . S
H957 C934 0.931 . S
H958 C936 0.931 . S
H959 C937 0.931 . S
C960 Eu961 2.835 . S
C960 C962 1.500 . S
C960 O980 1.257 . S
C960 O981 1.260 . S
Eu961 C960 2.835 . S
Eu961 O980 2.473 . S
Eu961 O981 2.480 . S
Eu961 O982 2.430 . S
Eu961 O983 2.670 . S
Eu961 O984 2.394 . S
Eu961 O989 2.355 . S
Eu961 O991 2.374 . S
C962 C960 1.500 . S
C962 C963 1.377 . S
C962 C967 1.377 . S
C963 C962 1.377 . S
C963 C964 1.395 . S
C963 H992 0.931 . S
C964 C963 1.395 . S
C964 C965 1.383 . S
C964 H993 0.931 . S
C965 C964 1.383 . S
C965 C966 1.394 . S
C966 C965 1.394 . S
C966 C967 1.378 . S
C966 H994 0.931 . S
C967 C962 1.377 . S
C967 C966 1.378 . S
C967 H995 0.931 . S
C968 O982 1.259 . S
C968 O983 1.270 . S
C969 O984 1.251 . S
C969 O985 1.251 . S
C970 Eu971 2.835 . S
C970 C972 1.500 . S
C970 O986 1.257 . S
C970 O987 1.260 . S
Eu971 C970 2.835 . S
Eu971 O983 2.355 . S
Eu971 O985 2.374 . S
Eu971 O986 2.473 . S
Eu971 O987 2.480 . S
Eu971 O988 2.430 . S
Eu971 O989 2.670 . S
Eu971 O990 2.394 . S
C972 C970 1.500 . S
C972 C973 1.377 . S
C972 C977 1.377 . S
C973 C972 1.377 . S
C973 C974 1.395 . S
C973 H996 0.931 . S
C974 C973 1.395 . S
C974 C975 1.383 . S
C974 H997 0.931 . S
C975 C974 1.383 . S
C975 C976 1.394 . S
C976 C975 1.394 . S
C976 C977 1.378 . S
C976 H998 0.931 . S
C977 C972 1.377 . S
C977 C976 1.378 . S
C977 H999 0.931 . S
C978 O988 1.259 . S
C978 O989 1.270 . S
C979 O990 1.251 . S
C979 O991 1.251 . S
O980 C960 1.257 . S
O980 Eu961 2.473 . S
O981 C960 1.260 . S
O981 Eu961 2.480 . S
O982 Eu961 2.430 . S
O982 C968 1.259 . S
O983 Eu961 2.670 . S
O983 C968 1.270 . S
O983 Eu971 2.355 . S
O984 Eu961 2.394 . S
O984 C969 1.251 . S
O985 C969 1.251 . S
O985 Eu971 2.374 . S
O986 C970 1.257 . S
O986 Eu971 2.473 . S
O987 C970 1.260 . S
O987 Eu971 2.480 . S
O988 Eu971 2.430 . S
O988 C978 1.259 . S
O989 Eu961 2.355 . S
O989 Eu971 2.670 . S
O989 C978 1.270 . S
O990 Eu971 2.394 . S
O990 C979 1.251 . S
O991 Eu961 2.374 . S
O991 C979 1.251 . S
H992 C963 0.931 . S
H993 C964 0.931 . S
H994 C966 0.931 . S
H995 C967 0.931 . S
H996 C973 0.931 . S
H997 C974 0.931 . S
H998 C976 0.931 . S
H999 C977 0.931 . S
C1000 Eu1001 2.835 . S
C1000 C1002 1.500 . S
C1000 O1020 1.257 . S
C1000 O1021 1.260 . S
Eu1001 C1000 2.835 . S
Eu1001 O1020 2.473 . S
Eu1001 O1021 2.480 . S
Eu1001 O1022 2.430 . S
Eu1001 O1023 2.670 . S
Eu1001 O1024 2.394 . S
Eu1001 O1029 2.355 . S
Eu1001 O1031 2.374 . S
C1002 C1000 1.500 . S
C1002 C1003 1.377 . S
C1002 C1007 1.377 . S
C1003 C1002 1.377 . S
C1003 C1004 1.395 . S
C1003 H1032 0.931 . S
C1004 C1003 1.395 . S
C1004 C1005 1.383 . S
C1004 H1033 0.931 . S
C1005 C1004 1.383 . S
C1005 C1006 1.394 . S
C1006 C1005 1.394 . S
C1006 C1007 1.378 . S
C1006 H1034 0.931 . S
C1007 C1002 1.377 . S
C1007 C1006 1.378 . S
C1007 H1035 0.931 . S
C1008 O1022 1.259 . S
C1008 O1023 1.270 . S
C1009 O1024 1.251 . S
C1009 O1025 1.251 . S
C1010 Eu1011 2.835 . S
C1010 C1012 1.500 . S
C1010 O1026 1.257 . S
C1010 O1027 1.260 . S
Eu1011 C1010 2.835 . S
Eu1011 O1023 2.355 . S
Eu1011 O1025 2.374 . S
Eu1011 O1026 2.473 . S
Eu1011 O1027 2.480 . S
Eu1011 O1028 2.430 . S
Eu1011 O1029 2.670 . S
Eu1011 O1030 2.394 . S
C1012 C1010 1.500 . S
C1012 C1013 1.377 . S
C1012 C1017 1.377 . S
C1013 C1012 1.377 . S
C1013 C1014 1.395 . S
C1013 H1036 0.931 . S
C1014 C1013 1.395 . S
C1014 C1015 1.383 . S
C1014 H1037 0.931 . S
C1015 C1014 1.383 . S
C1015 C1016 1.394 . S
C1016 C1015 1.394 . S
C1016 C1017 1.378 . S
C1016 H1038 0.931 . S
C1017 C1012 1.377 . S
C1017 C1016 1.378 . S
C1017 H1039 0.931 . S
C1018 O1028 1.259 . S
C1018 O1029 1.270 . S
C1019 O1030 1.251 . S
C1019 O1031 1.251 . S
O1020 C1000 1.257 . S
O1020 Eu1001 2.473 . S
O1021 C1000 1.260 . S
O1021 Eu1001 2.480 . S
O1022 Eu1001 2.430 . S
O1022 C1008 1.259 . S
O1023 Eu1001 2.670 . S
O1023 C1008 1.270 . S
O1023 Eu1011 2.355 . S
O1024 Eu1001 2.394 . S
O1024 C1009 1.251 . S
O1025 C1009 1.251 . S
O1025 Eu1011 2.374 . S
O1026 C1010 1.257 . S
O1026 Eu1011 2.473 . S
O1027 C1010 1.260 . S
O1027 Eu1011 2.480 . S
O1028 Eu1011 2.430 . S
O1028 C1018 1.259 . S
O1029 Eu1001 2.355 . S
O1029 Eu1011 2.670 . S
O1029 C1018 1.270 . S
O1030 Eu1011 2.394 . S
O1030 C1019 1.251 . S
O1031 Eu1001 2.374 . S
O1031 C1019 1.251 . S
H1032 C1003 0.931 . S
H1033 C1004 0.931 . S
H1034 C1006 0.931 . S
H1035 C1007 0.931 . S
H1036 C1013 0.931 . S
H1037 C1014 0.931 . S
H1038 C1016 0.931 . S
H1039 C1017 0.931 . S
C1040 Eu1041 2.835 . S
C1040 C1042 1.500 . S
C1040 O1060 1.257 . S
C1040 O1061 1.260 . S
Eu1041 C1040 2.835 . S
Eu1041 O1060 2.473 . S
Eu1041 O1061 2.480 . S
Eu1041 O1062 2.430 . S
Eu1041 O1063 2.670 . S
Eu1041 O1064 2.394 . S
Eu1041 O1069 2.355 . S
Eu1041 O1071 2.374 . S
C1042 C1040 1.500 . S
C1042 C1043 1.377 . S
C1042 C1047 1.377 . S
C1043 C1042 1.377 . S
C1043 C1044 1.395 . S
C1043 H1072 0.931 . S
C1044 C1043 1.395 . S
C1044 C1045 1.383 . S
C1044 H1073 0.931 . S
C1045 C1044 1.383 . S
C1045 C1046 1.394 . S
C1046 C1045 1.394 . S
C1046 C1047 1.378 . S
C1046 H1074 0.931 . S
C1047 C1042 1.377 . S
C1047 C1046 1.378 . S
C1047 H1075 0.931 . S
C1048 O1062 1.259 . S
C1048 O1063 1.270 . S
C1049 O1064 1.251 . S
C1049 O1065 1.251 . S
C1050 Eu1051 2.835 . S
C1050 C1052 1.500 . S
C1050 O1066 1.257 . S
C1050 O1067 1.260 . S
Eu1051 C1050 2.835 . S
Eu1051 O1063 2.355 . S
Eu1051 O1065 2.374 . S
Eu1051 O1066 2.473 . S
Eu1051 O1067 2.480 . S
Eu1051 O1068 2.430 . S
Eu1051 O1069 2.670 . S
Eu1051 O1070 2.394 . S
C1052 C1050 1.500 . S
C1052 C1053 1.377 . S
C1052 C1057 1.377 . S
C1053 C1052 1.377 . S
C1053 C1054 1.395 . S
C1053 H1076 0.931 . S
C1054 C1053 1.395 . S
C1054 C1055 1.383 . S
C1054 H1077 0.931 . S
C1055 C1054 1.383 . S
C1055 C1056 1.394 . S
C1056 C1055 1.394 . S
C1056 C1057 1.378 . S
C1056 H1078 0.931 . S
C1057 C1052 1.377 . S
C1057 C1056 1.378 . S
C1057 H1079 0.931 . S
C1058 O1068 1.259 . S
C1058 O1069 1.270 . S
C1059 O1070 1.251 . S
C1059 O1071 1.251 . S
O1060 C1040 1.257 . S
O1060 Eu1041 2.473 . S
O1061 C1040 1.260 . S
O1061 Eu1041 2.480 . S
O1062 Eu1041 2.430 . S
O1062 C1048 1.259 . S
O1063 Eu1041 2.670 . S
O1063 C1048 1.270 . S
O1063 Eu1051 2.355 . S
O1064 Eu1041 2.394 . S
O1064 C1049 1.251 . S
O1065 C1049 1.251 . S
O1065 Eu1051 2.374 . S
O1066 C1050 1.257 . S
O1066 Eu1051 2.473 . S
O1067 C1050 1.260 . S
O1067 Eu1051 2.480 . S
O1068 Eu1051 2.430 . S
O1068 C1058 1.259 . S
O1069 Eu1041 2.355 . S
O1069 Eu1051 2.670 . S
O1069 C1058 1.270 . S
O1070 Eu1051 2.394 . S
O1070 C1059 1.251 . S
O1071 Eu1041 2.374 . S
O1071 C1059 1.251 . S
H1072 C1043 0.931 . S
H1073 C1044 0.931 . S
H1074 C1046 0.931 . S
H1075 C1047 0.931 . S
H1076 C1053 0.931 . S
H1077 C1054 0.931 . S
H1078 C1056 0.931 . S
H1079 C1057 0.931 . S
H1080 C1088 0.950 . S
H1081 C1093 0.950 . S
H1082 C1090 0.950 . S
H1083 C1092 0.950 . S
H1084 C1094 0.950 . S
H1085 C1096 0.950 . S
H1086 C1098 0.950 . S
H1087 C1099 0.950 . S
C1088 H1080 0.950 . S
C1088 C1089 1.386 . S
C1088 C1090 1.391 . S
C1089 C1088 1.386 . S
C1089 C1093 1.393 . S
C1090 H1082 0.950 . S
C1090 C1088 1.391 . S
C1090 C1091 1.400 . S
C1091 C1090 1.400 . S
C1091 C1092 1.398 . S
C1091 C1097 1.491 . S
C1092 H1083 0.950 . S
C1092 C1091 1.398 . S
C1092 C1093 1.391 . S
C1093 H1081 0.950 . S
C1093 C1089 1.393 . S
C1093 C1092 1.391 . S
C1094 H1084 0.950 . S
C1094 C1095 1.386 . S
C1094 C1096 1.391 . S
C1095 C1094 1.386 . S
C1095 C1099 1.393 . S
C1096 H1085 0.950 . S
C1096 C1094 1.391 . S
C1096 C1097 1.400 . S
C1097 C1091 1.491 . S
C1097 C1096 1.400 . S
C1097 C1098 1.398 . S
C1098 H1086 0.950 . S
C1098 C1097 1.398 . S
C1098 C1099 1.391 . S
C1099 H1087 0.950 . S
C1099 C1095 1.393 . S
C1099 C1098 1.391 . S
H1100 C1108 0.950 . S
H1101 C1113 0.950 . S
H1102 C1110 0.950 . S
H1103 C1112 0.950 . S
H1104 C1114 0.950 . S
H1105 C1116 0.950 . S
H1106 C1118 0.950 . S
H1107 C1119 0.950 . S
C1108 H1100 0.950 . S
C1108 C1109 1.386 . S
C1108 C1110 1.391 . S
C1109 C1108 1.386 . S
C1109 C1113 1.393 . S
C1110 H1102 0.950 . S
C1110 C1108 1.391 . S
C1110 C1111 1.400 . S
C1111 C1110 1.400 . S
C1111 C1112 1.398 . S
C1111 C1117 1.491 . S
C1112 H1103 0.950 . S
C1112 C1111 1.398 . S
C1112 C1113 1.391 . S
C1113 H1101 0.950 . S
C1113 C1109 1.393 . S
C1113 C1112 1.391 . S
C1114 H1104 0.950 . S
C1114 C1115 1.386 . S
C1114 C1116 1.391 . S
C1115 C1114 1.386 . S
C1115 C1119 1.393 . S
C1116 H1105 0.950 . S
C1116 C1114 1.391 . S
C1116 C1117 1.400 . S
C1117 C1111 1.491 . S
C1117 C1116 1.400 . S
C1117 C1118 1.398 . S
C1118 H1106 0.950 . S
C1118 C1117 1.398 . S
C1118 C1119 1.391 . S
C1119 H1107 0.950 . S
C1119 C1115 1.393 . S
C1119 C1118 1.391 . S
H1120 C1128 0.950 . S
H1121 C1133 0.950 . S
H1122 C1130 0.950 . S
H1123 C1132 0.950 . S
H1124 C1134 0.950 . S
H1125 C1136 0.950 . S
H1126 C1138 0.950 . S
H1127 C1139 0.950 . S
C1128 H1120 0.950 . S
C1128 C1129 1.386 . S
C1128 C1130 1.391 . S
C1129 C1128 1.386 . S
C1129 C1133 1.393 . S
C1130 H1122 0.950 . S
C1130 C1128 1.391 . S
C1130 C1131 1.400 . S
C1131 C1130 1.400 . S
C1131 C1132 1.398 . S
C1131 C1137 1.491 . S
C1132 H1123 0.950 . S
C1132 C1131 1.398 . S
C1132 C1133 1.391 . S
C1133 H1121 0.950 . S
C1133 C1129 1.393 . S
C1133 C1132 1.391 . S
C1134 H1124 0.950 . S
C1134 C1135 1.386 . S
C1134 C1136 1.391 . S
C1135 C1134 1.386 . S
C1135 C1139 1.393 . S
C1136 H1125 0.950 . S
C1136 C1134 1.391 . S
C1136 C1137 1.400 . S
C1137 C1131 1.491 . S
C1137 C1136 1.400 . S
C1137 C1138 1.398 . S
C1138 H1126 0.950 . S
C1138 C1137 1.398 . S
C1138 C1139 1.391 . S
C1139 H1127 0.950 . S
C1139 C1135 1.393 . S
C1139 C1138 1.391 . S
H1140 C1148 0.950 . S
H1141 C1153 0.950 . S
H1142 C1150 0.950 . S
H1143 C1152 0.950 1_554 S
H1144 C1154 0.950 . S
H1145 C1156 1.014 . S
H1146 C1158 0.950 . S
H1147 C1159 0.950 . S
C1148 H1140 0.950 . S
C1148 C1149 1.386 . S
C1148 C1150 1.391 . S
C1149 C1148 1.386 . S
C1149 C1153 1.393 . S
C1150 H1142 0.950 . S
C1150 C1148 1.391 . S
C1150 C1151 1.400 . S
C1151 C1150 1.400 . S
C1151 C1152 1.398 . S
C1151 C1157 1.491 . S
C1152 H1143 0.950 1_556 S
C1152 C1151 1.398 . S
C1152 C1153 1.391 . S
C1153 H1141 0.950 . S
C1153 C1149 1.393 . S
C1153 C1152 1.391 . S
C1154 H1144 0.950 . S
C1154 C1155 1.386 1_554 S
C1154 C1156 1.402 . S
C1155 C1154 1.386 1_556 S
C1155 C1159 1.393 . S
C1156 H1145 1.014 . S
C1156 C1154 1.402 . S
C1156 C1157 1.331 1_554 S
C1157 C1151 1.491 . S
C1157 C1156 1.331 1_556 S
C1157 C1158 1.398 . S
C1158 H1146 0.950 . S
C1158 C1157 1.398 . S
C1158 C1159 1.391 . S
C1159 H1147 0.950 . S
C1159 C1155 1.393 . S
C1159 C1158 1.391 . S
H1160 C1168 0.950 . S
H1161 C1173 0.950 . S
H1162 C1170 0.950 . S
H1163 C1172 0.950 . S
H1164 C1174 0.950 . S
H1165 C1176 0.950 . S
H1166 C1178 0.950 . S
H1167 C1179 0.950 . S
C1168 H1160 0.950 . S
C1168 C1169 1.386 . S
C1168 C1170 1.391 . S
C1169 C1168 1.386 . S
C1169 C1173 1.393 . S
C1170 H1162 0.950 . S
C1170 C1168 1.391 . S
C1170 C1171 1.400 . S
C1171 C1170 1.400 . S
C1171 C1172 1.398 . S
C1171 C1177 1.491 . S
C1172 H1163 0.950 . S
C1172 C1171 1.398 . S
C1172 C1173 1.391 . S
C1173 H1161 0.950 . S
C1173 C1169 1.393 . S
C1173 C1172 1.391 . S
C1174 H1164 0.950 . S
C1174 C1175 1.386 . S
C1174 C1176 1.391 . S
C1175 C1174 1.386 . S
C1175 C1179 1.393 . S
C1176 H1165 0.950 . S
C1176 C1174 1.391 . S
C1176 C1177 1.400 . S
C1177 C1171 1.491 . S
C1177 C1176 1.400 . S
C1177 C1178 1.398 . S
C1178 H1166 0.950 . S
C1178 C1177 1.398 . S
C1178 C1179 1.391 . S
C1179 H1167 0.950 . S
C1179 C1175 1.393 . S
C1179 C1178 1.391 . S
H1180 C1188 0.950 . S
H1181 C1193 0.950 . S
H1182 C1190 0.950 . S
H1183 C1192 0.950 . S
H1184 C1194 0.950 . S
H1185 C1196 0.950 . S
H1186 C1198 0.944 1_554 S
H1187 C1199 0.950 . S
C1188 H1180 0.950 . S
C1188 C1189 1.386 . S
C1188 C1190 1.391 . S
C1189 C1188 1.386 . S
C1189 C1193 1.393 . S
C1190 H1182 0.950 . S
C1190 C1188 1.391 . S
C1190 C1191 1.400 . S
C1191 C1190 1.400 . S
C1191 C1192 1.398 . S
C1191 C1197 1.491 . S
C1192 H1183 0.950 . S
C1192 C1191 1.398 . S
C1192 C1193 1.391 . S
C1193 H1181 0.950 . S
C1193 C1189 1.393 . S
C1193 C1192 1.391 . S
C1194 H1184 0.950 . S
C1194 C1195 1.386 . S
C1194 C1196 1.391 . S
C1195 C1194 1.386 . S
C1195 C1199 1.393 1_556 S
C1196 H1185 0.950 . S
C1196 C1194 1.391 . S
C1196 C1197 1.400 . S
C1197 C1191 1.491 . S
C1197 C1196 1.400 . S
C1197 C1198 1.406 . S
C1198 H1186 0.944 1_556 S
C1198 C1197 1.406 . S
C1198 C1199 1.389 1_556 S
C1199 H1187 0.950 . S
C1199 C1195 1.393 1_554 S
C1199 C1198 1.389 1_554 S
H1200 C1208 0.950 . S
H1201 C1213 0.950 . S
H1202 C1210 0.950 . S
H1203 C1212 0.950 . S
H1204 C1214 0.950 1_554 S
H1205 C1216 0.973 . S
H1206 C1218 0.950 . S
H1207 C1219 0.950 . S
C1208 H1200 0.950 . S
C1208 C1209 1.386 . S
C1208 C1210 1.391 . S
C1209 C1208 1.386 . S
C1209 C1213 1.393 . S
C1210 H1202 0.950 . S
C1210 C1208 1.391 . S
C1210 C1211 1.400 . S
C1211 C1210 1.400 . S
C1211 C1212 1.398 . S
C1211 C1217 1.491 . S
C1212 H1203 0.950 . S
C1212 C1211 1.398 . S
C1212 C1213 1.391 . S
C1213 H1201 0.950 . S
C1213 C1209 1.393 . S
C1213 C1212 1.391 . S
C1214 H1204 0.950 1_556 S
C1214 C1215 1.386 . S
C1214 C1216 1.391 . S
C1215 C1214 1.386 . S
C1215 C1219 1.393 . S
C1216 H1205 0.973 . S
C1216 C1214 1.391 . S
C1216 C1217 1.400 . S
C1217 C1211 1.491 . S
C1217 C1216 1.400 . S
C1217 C1218 1.398 . S
C1218 H1206 0.950 . S
C1218 C1217 1.398 . S
C1218 C1219 1.391 . S
C1219 H1207 0.950 . S
C1219 C1215 1.393 . S
C1219 C1218 1.391 . S
H1220 C1228 0.950 . S
H1221 C1233 0.950 . S
H1222 C1230 0.950 . S
H1223 C1232 0.950 . S
H1224 C1234 0.950 . S
H1225 C1236 0.950 . S
H1226 C1238 0.950 . S
H1227 C1239 0.950 . S
C1228 H1220 0.950 . S
C1228 C1229 1.386 . S
C1228 C1230 1.391 . S
C1229 C1228 1.386 . S
C1229 C1233 1.393 . S
C1230 H1222 0.950 . S
C1230 C1228 1.391 . S
C1230 C1231 1.400 . S
C1231 C1230 1.400 . S
C1231 C1232 1.398 . S
C1231 C1237 1.491 . S
C1232 H1223 0.950 . S
C1232 C1231 1.398 . S
C1232 C1233 1.391 . S
C1233 H1221 0.950 . S
C1233 C1229 1.393 . S
C1233 C1232 1.391 . S
C1234 H1224 0.950 . S
C1234 C1235 1.386 . S
C1234 C1236 1.391 . S
C1235 C1234 1.386 . S
C1235 C1239 1.393 . S
C1236 H1225 0.950 . S
C1236 C1234 1.391 . S
C1236 C1237 1.400 . S
C1237 C1231 1.491 . S
C1237 C1236 1.400 . S
C1237 C1238 1.398 . S
C1238 H1226 0.950 . S
C1238 C1237 1.398 . S
C1238 C1239 1.391 . S
C1239 H1227 0.950 . S
C1239 C1235 1.393 . S
C1239 C1238 1.391 . S
H1240 C1248 0.950 . S
H1241 C1253 0.950 1_554 S
H1242 C1250 0.950 . S
H1243 C1252 0.950 1_554 S
H1244 C1254 0.950 . S
H1245 C1256 0.950 . S
H1246 C1258 0.950 . S
H1247 C1259 0.950 . S
C1248 H1240 0.950 . S
C1248 C1249 1.386 . S
C1248 C1250 1.391 . S
C1249 C1248 1.386 . S
C1249 C1253 1.393 . S
C1250 H1242 0.950 . S
C1250 C1248 1.391 . S
C1250 C1251 1.400 . S
C1251 C1250 1.400 . S
C1251 C1252 1.398 . S
C1251 C1257 1.491 . S
C1252 H1243 0.950 1_556 S
C1252 C1251 1.398 . S
C1252 C1253 1.391 . S
C1253 H1241 0.950 1_556 S
C1253 C1249 1.393 . S
C1253 C1252 1.391 . S
C1254 H1244 0.950 . S
C1254 C1255 1.386 1_554 S
C1254 C1256 1.391 . S
C1255 C1254 1.386 1_556 S
C1255 C1259 1.393 . S
C1256 H1245 0.950 . S
C1256 C1254 1.391 . S
C1256 C1257 1.400 1_554 S
C1257 C1251 1.491 . S
C1257 C1256 1.400 1_556 S
C1257 C1258 1.398 . S
C1258 H1246 0.950 . S
C1258 C1257 1.398 . S
C1258 C1259 1.391 . S
C1259 H1247 0.950 . S
C1259 C1255 1.393 . S
C1259 C1258 1.391 . S
H1260 C1268 0.950 . S
H1261 C1273 0.950 . S
H1262 C1270 0.950 . S
H1263 C1272 0.950 . S
H1264 C1274 0.950 . S
H1265 C1276 0.950 . S
H1266 C1278 0.950 . S
H1267 C1279 0.950 . S
C1268 H1260 0.950 . S
C1268 C1269 1.386 . S
C1268 C1270 1.391 . S
C1269 C1268 1.386 . S
C1269 C1273 1.393 . S
C1270 H1262 0.950 . S
C1270 C1268 1.391 . S
C1270 C1271 1.400 . S
C1271 C1270 1.400 . S
C1271 C1272 1.398 . S
C1271 C1277 1.491 . S
C1272 H1263 0.950 . S
C1272 C1271 1.398 . S
C1272 C1273 1.391 . S
C1273 H1261 0.950 . S
C1273 C1269 1.393 . S
C1273 C1272 1.391 . S
C1274 H1264 0.950 . S
C1274 C1275 1.386 . S
C1274 C1276 1.391 . S
C1275 C1274 1.386 . S
C1275 C1279 1.393 . S
C1276 H1265 0.950 . S
C1276 C1274 1.391 . S
C1276 C1277 1.400 . S
C1277 C1271 1.491 . S
C1277 C1276 1.400 . S
C1277 C1278 1.398 . S
C1278 H1266 0.950 . S
C1278 C1277 1.398 . S
C1278 C1279 1.391 . S
C1279 H1267 0.950 . S
C1279 C1275 1.393 . S
C1279 C1278 1.391 . S
H1280 C1288 0.950 . S
H1281 C1293 0.950 . S
H1282 C1290 0.950 . S
H1283 C1292 0.950 . S
H1284 C1294 0.950 . S
H1285 C1296 0.950 . S
H1286 C1298 0.950 . S
H1287 C1299 0.950 . S
C1288 H1280 0.950 . S
C1288 C1289 1.386 . S
C1288 C1290 1.391 . S
C1289 C1288 1.386 . S
C1289 C1293 1.393 . S
C1290 H1282 0.950 . S
C1290 C1288 1.391 . S
C1290 C1291 1.400 . S
C1291 C1290 1.400 . S
C1291 C1292 1.398 . S
C1291 C1297 1.491 . S
C1292 H1283 0.950 . S
C1292 C1291 1.398 . S
C1292 C1293 1.391 . S
C1293 H1281 0.950 . S
C1293 C1289 1.393 . S
C1293 C1292 1.391 . S
C1294 H1284 0.950 . S
C1294 C1295 1.386 . S
C1294 C1296 1.391 . S
C1295 C1294 1.386 . S
C1295 C1299 1.393 . S
C1296 H1285 0.950 . S
C1296 C1294 1.391 . S
C1296 C1297 1.400 . S
C1297 C1291 1.491 . S
C1297 C1296 1.400 . S
C1297 C1298 1.398 . S
C1298 H1286 0.950 . S
C1298 C1297 1.398 . S
C1298 C1299 1.391 . S
C1299 H1287 0.950 . S
C1299 C1295 1.393 . S
C1299 C1298 1.391 . S
H1300 C1308 0.950 . S
H1301 C1313 0.950 . S
H1302 C1310 0.950 . S
H1303 C1312 0.950 . S
H1304 C1314 0.950 . S
H1305 C1316 0.950 . S
H1306 C1318 0.950 1_556 S
H1307 C1319 0.950 1_556 S
C1308 H1300 0.950 . S
C1308 C1309 1.386 . S
C1308 C1310 1.391 . S
C1309 C1308 1.386 . S
C1309 C1313 1.393 . S
C1310 H1302 0.950 . S
C1310 C1308 1.391 . S
C1310 C1311 1.400 . S
C1311 C1310 1.400 . S
C1311 C1312 1.398 . S
C1311 C1317 1.491 . S
C1312 H1303 0.950 . S
C1312 C1311 1.398 . S
C1312 C1313 1.391 . S
C1313 H1301 0.950 . S
C1313 C1309 1.393 . S
C1313 C1312 1.391 . S
C1314 H1304 0.950 . S
C1314 C1315 1.386 . S
C1314 C1316 1.391 . S
C1315 C1314 1.386 . S
C1315 C1319 1.393 . S
C1316 H1305 0.950 . S
C1316 C1314 1.391 . S
C1316 C1317 1.400 . S
C1317 C1311 1.491 . S
C1317 C1316 1.400 . S
C1317 C1318 1.398 . S
C1318 H1306 0.950 1_554 S
C1318 C1317 1.398 . S
C1318 C1319 1.391 . S
C1319 H1307 0.950 1_554 S
C1319 C1315 1.393 . S
C1319 C1318 1.391 . S
H1320 C1328 0.950 . S
H1321 C1333 0.937 1_655 S
H1322 C1330 0.950 . S
H1323 C1332 0.950 . S
H1324 C1334 0.950 . S
H1325 C1336 0.950 . S
H1326 C1338 0.950 . S
H1327 C1339 0.950 . S
C1328 H1320 0.950 . S
C1328 C1329 1.386 . S
C1328 C1330 1.391 1_655 S
C1329 C1328 1.386 . S
C1329 C1333 1.393 1_655 S
C1330 H1322 0.950 . S
C1330 C1328 1.391 1_455 S
C1330 C1331 1.400 . S
C1331 C1330 1.400 . S
C1331 C1332 1.398 . S
C1331 C1337 1.491 . S
C1332 H1323 0.950 . S
C1332 C1331 1.398 . S
C1332 C1333 1.391 . S
C1333 H1321 0.937 1_455 S
C1333 C1329 1.393 1_455 S
C1333 C1332 1.391 . S
C1334 H1324 0.950 . S
C1334 C1335 1.386 . S
C1334 C1336 1.391 . S
C1335 C1334 1.386 . S
C1335 C1339 1.393 . S
C1336 H1325 0.950 . S
C1336 C1334 1.391 . S
C1336 C1337 1.400 . S
C1337 C1331 1.491 . S
C1337 C1336 1.400 . S
C1337 C1338 1.398 . S
C1338 H1326 0.950 . S
C1338 C1337 1.398 . S
C1338 C1339 1.391 . S
C1339 H1327 0.950 . S
C1339 C1335 1.393 . S
C1339 C1338 1.391 . S
H1340 C1348 0.950 . S
H1341 C1353 0.950 . S
H1342 C1350 0.950 . S
H1343 C1352 0.950 . S
H1344 C1354 0.950 . S
H1345 C1356 0.950 . S
H1346 C1358 0.950 . S
H1347 C1359 0.950 . S
C1348 H1340 0.950 . S
C1348 C1349 1.386 . S
C1348 C1350 1.391 . S
C1349 C1348 1.386 . S
C1349 C1353 1.393 . S
C1350 H1342 0.950 . S
C1350 C1348 1.391 . S
C1350 C1351 1.400 . S
C1351 C1350 1.400 . S
C1351 C1352 1.398 . S
C1351 C1357 1.491 . S
C1352 H1343 0.950 . S
C1352 C1351 1.398 . S
C1352 C1353 1.391 . S
C1353 H1341 0.950 . S
C1353 C1349 1.393 . S
C1353 C1352 1.391 . S
C1354 H1344 0.950 . S
C1354 C1355 1.386 . S
C1354 C1356 1.391 . S
C1355 C1354 1.386 . S
C1355 C1359 1.393 . S
C1356 H1345 0.950 . S
C1356 C1354 1.391 . S
C1356 C1357 1.400 . S
C1357 C1351 1.491 . S
C1357 C1356 1.400 . S
C1357 C1358 1.398 . S
C1358 H1346 0.950 . S
C1358 C1357 1.398 . S
C1358 C1359 1.391 . S
C1359 H1347 0.950 . S
C1359 C1355 1.393 . S
C1359 C1358 1.391 . S
H1360 C1368 0.950 . S
H1361 C1373 0.950 . S
H1362 C1370 0.950 . S
H1363 C1372 0.950 . S
H1364 C1374 0.950 . S
H1365 C1376 0.950 . S
H1366 C1378 0.950 . S
H1367 C1379 0.950 . S
C1368 H1360 0.950 . S
C1368 C1369 1.386 . S
C1368 C1370 1.391 1_545 S
C1369 C1368 1.386 . S
C1369 C1373 1.393 . S
C1370 H1362 0.950 . S
C1370 C1368 1.391 1_565 S
C1370 C1371 1.400 . S
C1371 C1370 1.400 . S
C1371 C1372 1.398 . S
C1371 C1377 1.491 . S
C1372 H1363 0.950 . S
C1372 C1371 1.398 . S
C1372 C1373 1.391 1_565 S
C1373 H1361 0.950 . S
C1373 C1369 1.393 . S
C1373 C1372 1.391 1_545 S
C1374 H1364 0.950 . S
C1374 C1375 1.386 . S
C1374 C1376 1.391 . S
C1375 C1374 1.386 . S
C1375 C1379 1.393 . S
C1376 H1365 0.950 . S
C1376 C1374 1.391 . S
C1376 C1377 1.400 . S
C1377 C1371 1.491 . S
C1377 C1376 1.400 . S
C1377 C1378 1.398 . S
C1378 H1366 0.950 . S
C1378 C1377 1.398 . S
C1378 C1379 1.391 . S
C1379 H1367 0.950 . S
C1379 C1375 1.393 . S
C1379 C1378 1.391 . S
H1380 C1388 0.950 . S
H1381 C1393 0.950 . S
H1382 C1390 0.950 . S
H1383 C1392 0.950 . S
H1384 C1394 0.950 . S
H1385 C1396 0.950 . S
H1386 C1398 0.950 . S
H1387 C1399 0.950 . S
C1388 H1380 0.950 . S
C1388 C1389 1.386 . S
C1388 C1390 1.391 . S
C1389 C1388 1.386 . S
C1389 C1393 1.393 . S
C1390 H1382 0.950 . S
C1390 C1388 1.391 . S
C1390 C1391 1.400 . S
C1391 C1390 1.400 . S
C1391 C1392 1.398 . S
C1391 C1397 1.491 . S
C1392 H1383 0.950 . S
C1392 C1391 1.398 . S
C1392 C1393 1.391 . S
C1393 H1381 0.950 . S
C1393 C1389 1.393 . S
C1393 C1392 1.391 . S
C1394 H1384 0.950 . S
C1394 C1395 1.386 . S
C1394 C1396 1.391 . S
C1395 C1394 1.386 . S
C1395 C1399 1.393 . S
C1396 H1385 0.950 . S
C1396 C1394 1.391 . S
C1396 C1397 1.400 . S
C1397 C1391 1.491 . S
C1397 C1396 1.400 . S
C1397 C1398 1.398 . S
C1398 H1386 0.950 . S
C1398 C1397 1.398 . S
C1398 C1399 1.391 . S
C1399 H1387 0.950 . S
C1399 C1395 1.393 . S
C1399 C1398 1.391 . S
H1400 C1408 0.950 . S
H1401 C1413 0.950 . S
H1402 C1410 0.950 . S
H1403 C1412 0.950 . S
H1404 C1414 0.950 . S
H1405 C1416 0.950 . S
H1406 C1418 0.950 . S
H1407 C1419 0.950 . S
C1408 H1400 0.950 . S
C1408 C1409 1.386 . S
C1408 C1410 1.391 . S
C1409 C1408 1.386 . S
C1409 C1413 1.393 . S
C1410 H1402 0.950 . S
C1410 C1408 1.391 . S
C1410 C1411 1.400 . S
C1411 C1410 1.400 . S
C1411 C1412 1.398 . S
C1411 C1417 1.491 . S
C1412 H1403 0.950 . S
C1412 C1411 1.398 . S
C1412 C1413 1.391 . S
C1413 H1401 0.950 . S
C1413 C1409 1.393 . S
C1413 C1412 1.391 . S
C1414 H1404 0.950 . S
C1414 C1415 1.386 . S
C1414 C1416 1.391 . S
C1415 C1414 1.386 . S
C1415 C1419 1.393 . S
C1416 H1405 0.950 . S
C1416 C1414 1.391 . S
C1416 C1417 1.400 . S
C1417 C1411 1.491 . S
C1417 C1416 1.400 . S
C1417 C1418 1.398 . S
C1418 H1406 0.950 . S
C1418 C1417 1.398 . S
C1418 C1419 1.391 . S
C1419 H1407 0.950 . S
C1419 C1415 1.393 . S
C1419 C1418 1.391 . S
H1420 C1428 0.950 . S
H1421 C1433 0.950 . S
H1422 C1430 0.950 . S
H1423 C1432 0.950 . S
H1424 C1434 0.950 . S
H1425 C1436 0.950 . S
H1426 C1438 0.950 . S
H1427 C1439 0.950 . S
C1428 H1420 0.950 . S
C1428 C1429 1.386 . S
C1428 C1430 1.391 . S
C1429 C1428 1.386 . S
C1429 C1433 1.393 . S
C1430 H1422 0.950 . S
C1430 C1428 1.391 . S
C1430 C1431 1.400 . S
C1431 C1430 1.400 . S
C1431 C1432 1.398 . S
C1431 C1437 1.491 . S
C1432 H1423 0.950 . S
C1432 C1431 1.398 . S
C1432 C1433 1.391 . S
C1433 H1421 0.950 . S
C1433 C1429 1.393 . S
C1433 C1432 1.391 . S
C1434 H1424 0.950 . S
C1434 C1435 1.386 . S
C1434 C1436 1.391 . S
C1435 C1434 1.386 . S
C1435 C1439 1.393 . S
C1436 H1425 0.950 . S
C1436 C1434 1.391 . S
C1436 C1437 1.400 . S
C1437 C1431 1.491 . S
C1437 C1436 1.400 . S
C1437 C1438 1.398 . S
C1438 H1426 0.950 . S
C1438 C1437 1.398 . S
C1438 C1439 1.391 . S
C1439 H1427 0.950 . S
C1439 C1435 1.393 . S
C1439 C1438 1.391 . S
H1440 C1448 0.950 . S
H1441 C1453 0.950 . S
H1442 C1450 0.950 . S
H1443 C1452 0.950 . S
H1444 C1454 0.950 . S
H1445 C1456 0.950 . S
H1446 C1458 0.950 . S
H1447 C1459 0.950 . S
C1448 H1440 0.950 . S
C1448 C1449 1.386 . S
C1448 C1450 1.391 . S
C1449 C1448 1.386 . S
C1449 C1453 1.393 . S
C1450 H1442 0.950 . S
C1450 C1448 1.391 . S
C1450 C1451 1.400 . S
C1451 C1450 1.400 . S
C1451 C1452 1.398 . S
C1451 C1457 1.491 . S
C1452 H1443 0.950 . S
C1452 C1451 1.398 . S
C1452 C1453 1.391 . S
C1453 H1441 0.950 . S
C1453 C1449 1.393 . S
C1453 C1452 1.391 . S
C1454 H1444 0.950 . S
C1454 C1455 1.386 . S
C1454 C1456 1.391 . S
C1455 C1454 1.386 . S
C1455 C1459 1.393 . S
C1456 H1445 0.950 . S
C1456 C1454 1.391 . S
C1456 C1457 1.400 . S
C1457 C1451 1.491 . S
C1457 C1456 1.400 . S
C1457 C1458 1.398 . S
C1458 H1446 0.950 . S
C1458 C1457 1.398 . S
C1458 C1459 1.391 . S
C1459 H1447 0.950 . S
C1459 C1455 1.393 . S
C1459 C1458 1.391 . S
H1460 C1468 0.950 . S
H1461 C1473 0.950 . S
H1462 C1470 0.950 . S
H1463 C1472 0.950 . S
H1464 C1474 0.950 . S
H1465 C1476 0.950 . S
H1466 C1478 0.950 . S
H1467 C1479 0.950 . S
C1468 H1460 0.950 . S
C1468 C1469 1.386 . S
C1468 C1470 1.391 . S
C1469 C1468 1.386 . S
C1469 C1473 1.393 . S
C1470 H1462 0.950 . S
C1470 C1468 1.391 . S
C1470 C1471 1.400 . S
C1471 C1470 1.400 . S
C1471 C1472 1.398 . S
C1471 C1477 1.491 . S
C1472 H1463 0.950 . S
C1472 C1471 1.398 . S
C1472 C1473 1.391 . S
C1473 H1461 0.950 . S
C1473 C1469 1.393 . S
C1473 C1472 1.391 . S
C1474 H1464 0.950 . S
C1474 C1475 1.386 . S
C1474 C1476 1.391 . S
C1475 C1474 1.386 . S
C1475 C1479 1.393 . S
C1476 H1465 0.950 . S
C1476 C1474 1.391 . S
C1476 C1477 1.400 . S
C1477 C1471 1.491 . S
C1477 C1476 1.400 . S
C1477 C1478 1.398 . S
C1478 H1466 0.950 . S
C1478 C1477 1.398 . S
C1478 C1479 1.391 . S
C1479 H1467 0.950 . S
C1479 C1475 1.393 . S
C1479 C1478 1.391 . S
H1480 C1488 0.950 . S
H1481 C1493 0.950 . S
H1482 C1490 0.950 . S
H1483 C1492 0.950 . S
H1484 C1494 0.950 . S
H1485 C1496 0.950 . S
H1486 C1498 0.950 . S
H1487 C1499 0.950 . S
C1488 H1480 0.950 . S
C1488 C1489 1.386 . S
C1488 C1490 1.391 . S
C1489 C1488 1.386 . S
C1489 C1493 1.393 . S
C1490 H1482 0.950 . S
C1490 C1488 1.391 . S
C1490 C1491 1.400 . S
C1491 C1490 1.400 . S
C1491 C1492 1.398 . S
C1491 C1497 1.491 . S
C1492 H1483 0.950 . S
C1492 C1491 1.398 . S
C1492 C1493 1.391 . S
C1493 H1481 0.950 . S
C1493 C1489 1.393 . S
C1493 C1492 1.391 . S
C1494 H1484 0.950 . S
C1494 C1495 1.386 . S
C1494 C1496 1.391 . S
C1495 C1494 1.386 . S
C1495 C1499 1.393 . S
C1496 H1485 0.950 . S
C1496 C1494 1.391 . S
C1496 C1497 1.400 . S
C1497 C1491 1.491 . S
C1497 C1496 1.400 . S
C1497 C1498 1.398 . S
C1498 H1486 0.950 . S
C1498 C1497 1.398 . S
C1498 C1499 1.391 . S
C1499 H1487 0.950 . S
C1499 C1495 1.393 . S
C1499 C1498 1.391 . S
H1500 C1508 0.950 . S
H1501 C1513 0.950 . S
H1502 C1510 0.950 . S
H1503 C1512 0.950 . S
H1504 C1514 0.950 . S
H1505 C1516 0.950 . S
H1506 C1518 0.950 . S
H1507 C1519 0.950 . S
C1508 H1500 0.950 . S
C1508 C1509 1.386 . S
C1508 C1510 1.391 1_545 S
C1509 C1508 1.386 . S
C1509 C1513 1.393 . S
C1510 H1502 0.950 . S
C1510 C1508 1.391 1_565 S
C1510 C1511 1.400 . S
C1511 C1510 1.400 . S
C1511 C1512 1.398 . S
C1511 C1517 1.491 . S
C1512 H1503 0.950 . S
C1512 C1511 1.398 . S
C1512 C1513 1.391 1_565 S
C1513 H1501 0.950 . S
C1513 C1509 1.393 . S
C1513 C1512 1.391 1_545 S
C1514 H1504 0.950 . S
C1514 C1515 1.386 . S
C1514 C1516 1.391 . S
C1515 C1514 1.386 . S
C1515 C1519 1.393 . S
C1516 H1505 0.950 . S
C1516 C1514 1.391 . S
C1516 C1517 1.400 . S
C1517 C1511 1.491 . S
C1517 C1516 1.400 . S
C1517 C1518 1.398 . S
C1518 H1506 0.950 . S
C1518 C1517 1.398 . S
C1518 C1519 1.391 . S
C1519 H1507 0.950 . S
C1519 C1515 1.393 . S
C1519 C1518 1.391 . S
H1520 C1528 0.950 . S
H1521 C1533 0.950 1_655 S
H1522 C1530 0.950 . S
H1523 C1532 0.950 . S
H1524 C1534 0.950 . S
H1525 C1536 0.950 . S
H1526 C1538 0.950 . S
H1527 C1539 0.950 . S
C1528 H1520 0.950 . S
C1528 C1529 1.386 . S
C1528 C1530 1.391 . S
C1529 C1528 1.386 . S
C1529 C1533 1.393 . S
C1530 H1522 0.950 . S
C1530 C1528 1.391 . S
C1530 C1531 1.400 . S
C1531 C1530 1.400 . S
C1531 C1532 1.398 . S
C1531 C1537 1.491 . S
C1532 H1523 0.950 . S
C1532 C1531 1.398 . S
C1532 C1533 1.391 . S
C1533 H1521 0.950 1_455 S
C1533 C1529 1.393 . S
C1533 C1532 1.391 . S
C1534 H1524 0.950 . S
C1534 C1535 1.386 . S
C1534 C1536 1.391 . S
C1535 C1534 1.386 . S
C1535 C1539 1.393 . S
C1536 H1525 0.950 . S
C1536 C1534 1.391 . S
C1536 C1537 1.400 . S
C1537 C1531 1.491 . S
C1537 C1536 1.400 . S
C1537 C1538 1.398 . S
C1538 H1526 0.950 . S
C1538 C1537 1.398 . S
C1538 C1539 1.391 . S
C1539 H1527 0.950 . S
C1539 C1535 1.393 . S
C1539 C1538 1.391 . S
H1540 C1548 0.950 . S
H1541 C1553 0.950 . S
H1542 C1550 0.950 . S
H1543 C1552 0.950 . S
H1544 C1554 0.950 . S
H1545 C1556 0.950 . S
H1546 C1558 0.950 . S
H1547 C1559 0.950 . S
C1548 H1540 0.950 . S
C1548 C1549 1.386 . S
C1548 C1550 1.391 . S
C1549 C1548 1.386 . S
C1549 C1553 1.393 . S
C1550 H1542 0.950 . S
C1550 C1548 1.391 . S
C1550 C1551 1.400 . S
C1551 C1550 1.400 . S
C1551 C1552 1.398 . S
C1551 C1557 1.491 . S
C1552 H1543 0.950 . S
C1552 C1551 1.398 . S
C1552 C1553 1.391 . S
C1553 H1541 0.950 . S
C1553 C1549 1.393 . S
C1553 C1552 1.391 . S
C1554 H1544 0.950 . S
C1554 C1555 1.386 . S
C1554 C1556 1.391 . S
C1555 C1554 1.386 . S
C1555 C1559 1.393 . S
C1556 H1545 0.950 . S
C1556 C1554 1.391 . S
C1556 C1557 1.400 . S
C1557 C1551 1.491 . S
C1557 C1556 1.400 . S
C1557 C1558 1.398 . S
C1558 H1546 0.950 . S
C1558 C1557 1.398 . S
C1558 C1559 1.391 . S
C1559 H1547 0.950 . S
C1559 C1555 1.393 . S
C1559 C1558 1.391 . S
H1560 C1568 0.950 . S
H1561 C1573 0.950 . S
H1562 C1570 0.950 . S
H1563 C1572 0.950 . S
H1564 C1574 0.950 . S
H1565 C1576 0.950 . S
H1566 C1578 0.950 . S
H1567 C1579 0.950 . S
C1568 H1560 0.950 . S
C1568 C1569 1.386 . S
C1568 C1570 1.391 . S
C1569 C1568 1.386 . S
C1569 C1573 1.393 . S
C1570 H1562 0.950 . S
C1570 C1568 1.391 . S
C1570 C1571 1.400 . S
C1571 C1570 1.400 . S
C1571 C1572 1.398 . S
C1571 C1577 1.491 . S
C1572 H1563 0.950 . S
C1572 C1571 1.398 . S
C1572 C1573 1.391 . S
C1573 H1561 0.950 . S
C1573 C1569 1.393 . S
C1573 C1572 1.391 . S
C1574 H1564 0.950 . S
C1574 C1575 1.386 . S
C1574 C1576 1.391 . S
C1575 C1574 1.386 . S
C1575 C1579 1.393 . S
C1576 H1565 0.950 . S
C1576 C1574 1.391 . S
C1576 C1577 1.400 . S
C1577 C1571 1.491 . S
C1577 C1576 1.400 . S
C1577 C1578 1.398 . S
C1578 H1566 0.950 . S
C1578 C1577 1.398 . S
C1578 C1579 1.391 . S
C1579 H1567 0.950 . S
C1579 C1575 1.393 . S
C1579 C1578 1.391 . S
H1580 C1588 0.950 . S
H1581 C1593 0.950 . S
H1582 C1590 0.950 . S
H1583 C1592 0.950 . S
H1584 C1594 0.950 . S
H1585 C1596 0.950 . S
H1586 C1598 0.950 . S
H1587 C1599 0.950 . S
C1588 H1580 0.950 . S
C1588 C1589 1.386 . S
C1588 C1590 1.391 . S
C1589 C1588 1.386 . S
C1589 C1593 1.393 . S
C1590 H1582 0.950 . S
C1590 C1588 1.391 . S
C1590 C1591 1.400 . S
C1591 C1590 1.400 . S
C1591 C1592 1.398 . S
C1591 C1597 1.491 . S
C1592 H1583 0.950 . S
C1592 C1591 1.398 . S
C1592 C1593 1.391 . S
C1593 H1581 0.950 . S
C1593 C1589 1.393 . S
C1593 C1592 1.391 . S
C1594 H1584 0.950 . S
C1594 C1595 1.386 . S
C1594 C1596 1.391 . S
C1595 C1594 1.386 . S
C1595 C1599 1.393 . S
C1596 H1585 0.950 . S
C1596 C1594 1.391 . S
C1596 C1597 1.400 . S
C1597 C1591 1.491 . S
C1597 C1596 1.400 . S
C1597 C1598 1.398 . S
C1598 H1586 0.950 . S
C1598 C1597 1.398 . S
C1598 C1599 1.391 . S
C1599 H1587 0.950 . S
C1599 C1595 1.393 . S
C1599 C1598 1.391 . S
H1600 C1608 0.950 . S
H1601 C1613 0.950 . S
H1602 C1610 0.950 . S
H1603 C1612 0.950 . S
H1604 C1614 0.950 . S
H1605 C1616 0.950 . S
H1606 C1618 0.950 . S
H1607 C1619 0.950 . S
C1608 H1600 0.950 . S
C1608 C1609 1.386 . S
C1608 C1610 1.391 . S
C1609 C1608 1.386 . S
C1609 C1613 1.393 . S
C1610 H1602 0.950 . S
C1610 C1608 1.391 . S
C1610 C1611 1.400 . S
C1611 C1610 1.400 . S
C1611 C1612 1.398 . S
C1611 C1617 1.491 . S
C1612 H1603 0.950 . S
C1612 C1611 1.398 . S
C1612 C1613 1.391 . S
C1613 H1601 0.950 . S
C1613 C1609 1.393 . S
C1613 C1612 1.391 . S
C1614 H1604 0.950 . S
C1614 C1615 1.386 . S
C1614 C1616 1.391 . S
C1615 C1614 1.386 . S
C1615 C1619 1.393 . S
C1616 H1605 0.950 . S
C1616 C1614 1.391 . S
C1616 C1617 1.400 . S
C1617 C1611 1.491 . S
C1617 C1616 1.400 . S
C1617 C1618 1.398 . S
C1618 H1606 0.950 . S
C1618 C1617 1.398 . S
C1618 C1619 1.391 . S
C1619 H1607 0.950 . S
C1619 C1615 1.393 . S
C1619 C1618 1.391 . S
H1620 C1628 0.950 . S
H1621 C1633 0.950 . S
H1622 C1630 0.950 . S
H1623 C1632 0.950 . S
H1624 C1634 0.950 . S
H1625 C1636 0.950 . S
H1626 C1638 0.950 . S
H1627 C1639 0.950 . S
C1628 H1620 0.950 . S
C1628 C1629 1.386 . S
C1628 C1630 1.391 1_565 S
C1629 C1628 1.386 . S
C1629 C1633 1.393 . S
C1630 H1622 0.950 . S
C1630 C1628 1.391 1_545 S
C1630 C1631 1.400 . S
C1631 C1630 1.400 . S
C1631 C1632 1.398 . S
C1631 C1637 1.491 . S
C1632 H1623 0.950 . S
C1632 C1631 1.398 . S
C1632 C1633 1.391 1_545 S
C1633 H1621 0.950 . S
C1633 C1629 1.393 . S
C1633 C1632 1.391 1_565 S
C1634 H1624 0.950 . S
C1634 C1635 1.386 . S
C1634 C1636 1.391 . S
C1635 C1634 1.386 . S
C1635 C1639 1.393 . S
C1636 H1625 0.950 . S
C1636 C1634 1.391 . S
C1636 C1637 1.400 . S
C1637 C1631 1.491 . S
C1637 C1636 1.400 . S
C1637 C1638 1.398 . S
C1638 H1626 0.950 . S
C1638 C1637 1.398 . S
C1638 C1639 1.391 . S
C1639 H1627 0.950 . S
C1639 C1635 1.393 . S
C1639 C1638 1.391 . S
H1640 C1648 0.950 1_455 S
H1641 C1653 0.950 . S
H1642 C1650 0.950 . S
H1643 C1652 0.950 . S
H1644 C1654 0.950 . S
H1645 C1656 0.950 . S
H1646 C1658 0.950 . S
H1647 C1659 0.950 . S
C1648 H1640 0.950 1_655 S
C1648 C1649 1.394 1_655 S
C1648 C1650 1.391 . S
C1649 C1648 1.394 1_455 S
C1649 C1653 1.339 1_455 S
C1650 H1642 0.950 . S
C1650 C1648 1.391 . S
C1650 C1651 1.400 . S
C1651 C1650 1.400 . S
C1651 C1652 1.398 . S
C1651 C1657 1.491 . S
C1652 H1643 0.950 . S
C1652 C1651 1.398 . S
C1652 C1653 1.391 . S
C1653 H1641 0.950 . S
C1653 C1649 1.339 1_655 S
C1653 C1652 1.391 . S
C1654 H1644 0.950 . S
C1654 C1655 1.386 . S
C1654 C1656 1.391 . S
C1655 C1654 1.386 . S
C1655 C1659 1.393 . S
C1656 H1645 0.950 . S
C1656 C1654 1.391 . S
C1656 C1657 1.400 . S
C1657 C1651 1.491 . S
C1657 C1656 1.400 . S
C1657 C1658 1.398 . S
C1658 H1646 0.950 . S
C1658 C1657 1.398 . S
C1658 C1659 1.391 . S
C1659 H1647 0.950 . S
C1659 C1655 1.393 . S
C1659 C1658 1.391 . S
H1660 C1668 0.950 . S
H1661 C1673 0.950 . S
H1662 C1670 0.950 . S
H1663 C1672 0.950 . S
H1664 C1674 0.950 . S
H1665 C1676 0.950 . S
H1666 C1678 0.950 . S
H1667 C1679 0.950 . S
C1668 H1660 0.950 . S
C1668 C1669 1.386 . S
C1668 C1670 1.391 . S
C1669 C1668 1.386 . S
C1669 C1673 1.393 . S
C1670 H1662 0.950 . S
C1670 C1668 1.391 . S
C1670 C1671 1.400 . S
C1671 C1670 1.400 . S
C1671 C1672 1.398 . S
C1671 C1677 1.491 . S
C1672 H1663 0.950 . S
C1672 C1671 1.398 . S
C1672 C1673 1.391 . S
C1673 H1661 0.950 . S
C1673 C1669 1.393 . S
C1673 C1672 1.391 . S
C1674 H1664 0.950 . S
C1674 C1675 1.386 . S
C1674 C1676 1.391 . S
C1675 C1674 1.386 . S
C1675 C1679 1.393 . S
C1676 H1665 0.950 . S
C1676 C1674 1.391 . S
C1676 C1677 1.400 . S
C1677 C1671 1.491 . S
C1677 C1676 1.400 . S
C1677 C1678 1.398 . S
C1678 H1666 0.950 . S
C1678 C1677 1.398 . S
C1678 C1679 1.391 . S
C1679 H1667 0.950 . S
C1679 C1675 1.393 . S
C1679 C1678 1.391 . S
H1680 C1688 0.950 . S
H1681 C1693 0.950 . S
H1682 C1690 0.950 . S
H1683 C1692 0.950 . S
H1684 C1694 0.950 . S
H1685 C1696 0.950 . S
H1686 C1698 0.950 . S
H1687 C1699 0.950 . S
C1688 H1680 0.950 . S
C1688 C1689 1.386 1_655 S
C1688 C1690 1.391 . S
C1689 C1688 1.386 1_455 S
C1689 C1693 1.393 . S
C1690 H1682 0.950 . S
C1690 C1688 1.391 . S
C1690 C1691 1.400 . S
C1691 C1690 1.400 . S
C1691 C1692 1.398 . S
C1691 C1697 1.491 . S
C1692 H1683 0.950 . S
C1692 C1691 1.398 . S
C1692 C1693 1.391 1_655 S
C1693 H1681 0.950 . S
C1693 C1689 1.393 . S
C1693 C1692 1.391 1_455 S
C1694 H1684 0.950 . S
C1694 C1695 1.386 . S
C1694 C1696 1.391 . S
C1695 C1694 1.386 . S
C1695 C1699 1.393 . S
C1696 H1685 0.950 . S
C1696 C1694 1.391 . S
C1696 C1697 1.400 . S
C1697 C1691 1.491 . S
C1697 C1696 1.400 . S
C1697 C1698 1.398 . S
C1698 H1686 0.950 . S
C1698 C1697 1.398 . S
C1698 C1699 1.391 . S
C1699 H1687 0.950 . S
C1699 C1695 1.393 . S
C1699 C1698 1.391 . S
H1700 C1708 0.950 . S
H1701 C1713 0.950 . S
H1702 C1710 0.950 . S
H1703 C1712 0.950 . S
H1704 C1714 0.950 . S
H1705 C1716 0.950 . S
H1706 C1718 0.950 . S
H1707 C1719 0.950 . S
C1708 H1700 0.950 . S
C1708 C1709 1.386 . S
C1708 C1710 1.391 . S
C1709 C1708 1.386 . S
C1709 C1713 1.393 . S
C1710 H1702 0.950 . S
C1710 C1708 1.391 . S
C1710 C1711 1.400 . S
C1711 C1710 1.400 . S
C1711 C1712 1.398 . S
C1711 C1717 1.491 . S
C1712 H1703 0.950 . S
C1712 C1711 1.398 . S
C1712 C1713 1.391 . S
C1713 H1701 0.950 . S
C1713 C1709 1.393 . S
C1713 C1712 1.391 . S
C1714 H1704 0.950 . S
C1714 C1715 1.386 . S
C1714 C1716 1.391 . S
C1715 C1714 1.386 . S
C1715 C1719 1.393 . S
C1716 H1705 0.950 . S
C1716 C1714 1.391 . S
C1716 C1717 1.400 . S
C1717 C1711 1.491 . S
C1717 C1716 1.400 . S
C1717 C1718 1.398 . S
C1718 H1706 0.950 . S
C1718 C1717 1.398 . S
C1718 C1719 1.391 . S
C1719 H1707 0.950 . S
C1719 C1715 1.393 . S
C1719 C1718 1.391 . S
H1720 C1728 0.950 . S
H1721 C1733 0.950 . S
H1722 C1730 0.950 . S
H1723 C1732 0.950 . S
H1724 C1734 0.950 . S
H1725 C1736 0.950 . S
H1726 C1738 0.950 . S
H1727 C1739 0.950 . S
C1728 H1720 0.950 . S
C1728 C1729 1.386 . S
C1728 C1730 1.391 1_565 S
C1729 C1728 1.386 . S
C1729 C1733 1.393 . S
C1730 H1722 0.950 . S
C1730 C1728 1.391 1_545 S
C1730 C1731 1.400 . S
C1731 C1730 1.400 . S
C1731 C1732 1.398 . S
C1731 C1737 1.491 . S
C1732 H1723 0.950 . S
C1732 C1731 1.398 . S
C1732 C1733 1.391 1_545 S
C1733 H1721 0.950 . S
C1733 C1729 1.393 . S
C1733 C1732 1.391 1_565 S
C1734 H1724 0.950 . S
C1734 C1735 1.386 . S
C1734 C1736 1.391 . S
C1735 C1734 1.386 . S
C1735 C1739 1.393 . S
C1736 H1725 0.950 . S
C1736 C1734 1.391 . S
C1736 C1737 1.400 . S
C1737 C1731 1.491 . S
C1737 C1736 1.400 . S
C1737 C1738 1.398 . S
C1738 H1726 0.950 . S
C1738 C1737 1.398 . S
C1738 C1739 1.391 . S
C1739 H1727 0.950 . S
C1739 C1735 1.393 . S
C1739 C1738 1.391 . S
H1740 C1748 0.950 . S
H1741 C1753 0.950 . S
H1742 C1750 0.950 . S
H1743 C1752 0.950 . S
H1744 C1754 0.950 . S
H1745 C1756 0.950 . S
H1746 C1758 0.950 . S
H1747 C1759 0.950 . S
C1748 H1740 0.950 . S
C1748 C1749 1.386 . S
C1748 C1750 1.391 . S
C1749 C1748 1.386 . S
C1749 C1753 1.393 . S
C1750 H1742 0.950 . S
C1750 C1748 1.391 . S
C1750 C1751 1.400 . S
C1751 C1750 1.400 . S
C1751 C1752 1.398 . S
C1751 C1757 1.491 . S
C1752 H1743 0.950 . S
C1752 C1751 1.398 . S
C1752 C1753 1.391 . S
C1753 H1741 0.950 . S
C1753 C1749 1.393 . S
C1753 C1752 1.391 . S
C1754 H1744 0.950 . S
C1754 C1755 1.386 . S
C1754 C1756 1.391 . S
C1755 C1754 1.386 . S
C1755 C1759 1.393 . S
C1756 H1745 0.950 . S
C1756 C1754 1.391 . S
C1756 C1757 1.400 . S
C1757 C1751 1.491 . S
C1757 C1756 1.400 . S
C1757 C1758 1.398 . S
C1758 H1746 0.950 . S
C1758 C1757 1.398 . S
C1758 C1759 1.391 . S
C1759 H1747 0.950 . S
C1759 C1755 1.393 . S
C1759 C1758 1.391 . S
H1760 C1768 0.950 . S
H1761 C1773 0.950 . S
H1762 C1770 0.950 . S
H1763 C1772 0.950 . S
H1764 C1774 0.950 . S
H1765 C1776 0.950 . S
H1766 C1778 0.950 . S
H1767 C1779 0.950 . S
C1768 H1760 0.950 . S
C1768 C1769 1.386 . S
C1768 C1770 1.391 . S
C1769 C1768 1.386 . S
C1769 C1773 1.393 . S
C1770 H1762 0.950 . S
C1770 C1768 1.391 . S
C1770 C1771 1.400 . S
C1771 C1770 1.400 . S
C1771 C1772 1.398 . S
C1771 C1777 1.491 . S
C1772 H1763 0.950 . S
C1772 C1771 1.398 . S
C1772 C1773 1.391 . S
C1773 H1761 0.950 . S
C1773 C1769 1.393 . S
C1773 C1772 1.391 . S
C1774 H1764 0.950 . S
C1774 C1775 1.386 . S
C1774 C1776 1.391 . S
C1775 C1774 1.386 . S
C1775 C1779 1.393 . S
C1776 H1765 0.950 . S
C1776 C1774 1.391 . S
C1776 C1777 1.400 . S
C1777 C1771 1.491 . S
C1777 C1776 1.400 . S
C1777 C1778 1.398 . S
C1778 H1766 0.950 . S
C1778 C1777 1.398 . S
C1778 C1779 1.391 . S
C1779 H1767 0.950 . S
C1779 C1775 1.393 . S
C1779 C1778 1.391 . S
H1780 C1788 0.950 . S
H1781 C1793 0.950 . S
H1782 C1790 0.950 . S
H1783 C1792 0.950 . S
H1784 C1794 0.950 . S
H1785 C1796 0.950 . S
H1786 C1798 0.950 . S
H1787 C1799 0.950 . S
C1788 H1780 0.950 . S
C1788 C1789 1.386 . S
C1788 C1790 1.391 . S
C1789 C1788 1.386 . S
C1789 C1793 1.393 . S
C1790 H1782 0.950 . S
C1790 C1788 1.391 . S
C1790 C1791 1.400 . S
C1791 C1790 1.400 . S
C1791 C1792 1.398 . S
C1791 C1797 1.491 . S
C1792 H1783 0.950 . S
C1792 C1791 1.398 . S
C1792 C1793 1.391 . S
C1793 H1781 0.950 . S
C1793 C1789 1.393 . S
C1793 C1792 1.391 . S
C1794 H1784 0.950 . S
C1794 C1795 1.386 . S
C1794 C1796 1.391 . S
C1795 C1794 1.386 . S
C1795 C1799 1.393 . S
C1796 H1785 0.950 . S
C1796 C1794 1.391 . S
C1796 C1797 1.400 . S
C1797 C1791 1.491 . S
C1797 C1796 1.400 . S
C1797 C1798 1.398 . S
C1798 H1786 0.950 . S
C1798 C1797 1.398 . S
C1798 C1799 1.391 . S
C1799 H1787 0.950 . S
C1799 C1795 1.393 . S
C1799 C1798 1.391 . S
H1800 C1808 0.950 . S
H1801 C1813 0.950 . S
H1802 C1810 0.950 . S
H1803 C1812 0.950 . S
H1804 C1814 0.950 . S
H1805 C1816 0.950 . S
H1806 C1818 0.950 . S
H1807 C1819 0.950 1_545 S
C1808 H1800 0.950 . S
C1808 C1809 1.386 . S
C1808 C1810 1.391 . S
C1809 C1808 1.386 . S
C1809 C1813 1.393 . S
C1810 H1802 0.950 . S
C1810 C1808 1.391 . S
C1810 C1811 1.400 . S
C1811 C1810 1.400 . S
C1811 C1812 1.398 . S
C1811 C1817 1.491 . S
C1812 H1803 0.950 . S
C1812 C1811 1.398 . S
C1812 C1813 1.391 . S
C1813 H1801 0.950 . S
C1813 C1809 1.393 . S
C1813 C1812 1.391 . S
C1814 H1804 0.950 . S
C1814 C1815 1.386 . S
C1814 C1816 1.391 . S
C1815 C1814 1.386 . S
C1815 C1819 1.393 . S
C1816 H1805 0.950 . S
C1816 C1814 1.391 . S
C1816 C1817 1.400 . S
C1817 C1811 1.491 . S
C1817 C1816 1.400 . S
C1817 C1818 1.398 . S
C1818 H1806 0.950 . S
C1818 C1817 1.398 . S
C1818 C1819 1.391 . S
C1819 H1807 0.950 1_565 S
C1819 C1815 1.393 . S
C1819 C1818 1.391 . S
H1820 C1828 0.950 . S
H1821 C1833 0.950 . S
H1822 C1830 0.950 . S
H1823 C1832 0.950 . S
H1824 C1834 0.950 . S
H1825 C1836 0.950 . S
H1826 C1838 0.950 . S
H1827 C1839 0.950 . S
C1828 H1820 0.950 . S
C1828 C1829 1.386 1_655 S
C1828 C1830 1.391 . S
C1829 C1828 1.386 1_455 S
C1829 C1833 1.393 . S
C1830 H1822 0.950 . S
C1830 C1828 1.391 . S
C1830 C1831 1.400 1_655 S
C1831 C1830 1.400 1_455 S
C1831 C1832 1.398 . S
C1831 C1837 1.491 . S
C1832 H1823 0.950 . S
C1832 C1831 1.398 . S
C1832 C1833 1.391 . S
C1833 H1821 0.950 . S
C1833 C1829 1.393 . S
C1833 C1832 1.391 . S
C1834 H1824 0.950 . S
C1834 C1835 1.386 . S
C1834 C1836 1.391 . S
C1835 C1834 1.386 . S
C1835 C1839 1.393 1_455 S
C1836 H1825 0.950 . S
C1836 C1834 1.391 . S
C1836 C1837 1.400 . S
C1837 C1831 1.491 . S
C1837 C1836 1.400 . S
C1837 C1838 1.398 1_455 S
C1838 H1826 0.950 . S
C1838 C1837 1.398 1_655 S
C1838 C1839 1.391 . S
C1839 H1827 0.950 . S
C1839 C1835 1.393 1_655 S
C1839 C1838 1.391 . S
H1840 C1848 0.950 . S
H1841 C1853 0.950 . S
H1842 C1850 0.950 . S
H1843 C1852 0.950 . S
H1844 C1854 0.950 . S
H1845 C1856 0.950 . S
H1846 C1858 0.950 . S
H1847 C1859 0.950 . S
C1848 H1840 0.950 . S
C1848 C1849 1.386 . S
C1848 C1850 1.391 . S
C1849 C1848 1.386 . S
C1849 C1853 1.393 . S
C1850 H1842 0.950 . S
C1850 C1848 1.391 . S
C1850 C1851 1.400 . S
C1851 C1850 1.400 . S
C1851 C1852 1.398 . S
C1851 C1857 1.491 . S
C1852 H1843 0.950 . S
C1852 C1851 1.398 . S
C1852 C1853 1.391 . S
C1853 H1841 0.950 . S
C1853 C1849 1.393 . S
C1853 C1852 1.391 . S
C1854 H1844 0.950 . S
C1854 C1855 1.386 . S
C1854 C1856 1.391 . S
C1855 C1854 1.386 . S
C1855 C1859 1.393 . S
C1856 H1845 0.950 . S
C1856 C1854 1.391 . S
C1856 C1857 1.400 . S
C1857 C1851 1.491 . S
C1857 C1856 1.400 . S
C1857 C1858 1.398 . S
C1858 H1846 0.950 . S
C1858 C1857 1.398 . S
C1858 C1859 1.391 . S
C1859 H1847 0.950 . S
C1859 C1855 1.393 . S
C1859 C1858 1.391 . S
H1860 C1868 0.950 . S
H1861 C1873 0.955 . S
H1862 C1870 0.950 . S
H1863 C1872 0.950 . S
H1864 C1874 0.950 . S
H1865 C1876 0.950 . S
H1866 C1878 0.950 . S
H1867 C1879 0.950 . S
C1868 H1860 0.950 . S
C1868 C1869 1.386 . S
C1868 C1870 1.391 . S
C1869 C1868 1.386 . S
C1869 C1873 1.393 . S
C1870 H1862 0.950 . S
C1870 C1868 1.391 . S
C1870 C1871 1.400 . S
C1871 C1870 1.400 . S
C1871 C1872 1.398 . S
C1871 C1877 1.491 . S
C1872 H1863 0.950 . S
C1872 C1871 1.398 . S
C1872 C1873 1.391 . S
C1873 H1861 0.955 . S
C1873 C1869 1.393 . S
C1873 C1872 1.391 . S
C1874 H1864 0.950 . S
C1874 C1875 1.386 . S
C1874 C1876 1.391 . S
C1875 C1874 1.386 . S
C1875 C1879 1.393 . S
C1876 H1865 0.950 . S
C1876 C1874 1.391 . S
C1876 C1877 1.400 . S
C1877 C1871 1.491 . S
C1877 C1876 1.400 . S
C1877 C1878 1.398 . S
C1878 H1866 0.950 . S
C1878 C1877 1.398 . S
C1878 C1879 1.391 . S
C1879 H1867 0.950 . S
C1879 C1875 1.393 . S
C1879 C1878 1.391 . S
H1880 C1888 0.950 . S
H1881 C1893 0.950 . S
H1882 C1890 0.950 . S
H1883 C1892 0.950 . S
H1884 C1894 0.950 . S
H1885 C1896 0.950 . S
H1886 C1898 0.950 . S
H1887 C1899 0.950 . S
C1888 H1880 0.950 . S
C1888 C1889 1.386 . S
C1888 C1890 1.391 . S
C1889 C1888 1.386 . S
C1889 C1893 1.393 . S
C1890 H1882 0.950 . S
C1890 C1888 1.391 . S
C1890 C1891 1.400 . S
C1891 C1890 1.400 . S
C1891 C1892 1.398 . S
C1891 C1897 1.491 . S
C1892 H1883 0.950 . S
C1892 C1891 1.398 . S
C1892 C1893 1.391 . S
C1893 H1881 0.950 . S
C1893 C1889 1.393 . S
C1893 C1892 1.391 . S
C1894 H1884 0.950 . S
C1894 C1895 1.386 . S
C1894 C1896 1.391 . S
C1895 C1894 1.386 . S
C1895 C1899 1.393 . S
C1896 H1885 0.950 . S
C1896 C1894 1.391 . S
C1896 C1897 1.400 . S
C1897 C1891 1.491 . S
C1897 C1896 1.400 . S
C1897 C1898 1.398 . S
C1898 H1886 0.950 . S
C1898 C1897 1.398 . S
C1898 C1899 1.391 . S
C1899 H1887 0.950 . S
C1899 C1895 1.393 . S
C1899 C1898 1.391 . S
H1900 C1908 0.950 . S
H1901 C1913 0.950 . S
H1902 C1910 0.950 . S
H1903 C1912 0.950 . S
H1904 C1914 0.950 . S
H1905 C1916 0.950 . S
H1906 C1918 0.950 . S
H1907 C1919 0.967 . S
C1908 H1900 0.950 . S
C1908 C1909 1.386 . S
C1908 C1910 1.391 . S
C1909 C1908 1.386 . S
C1909 C1913 1.393 . S
C1910 H1902 0.950 . S
C1910 C1908 1.391 . S
C1910 C1911 1.400 . S
C1911 C1910 1.400 . S
C1911 C1912 1.398 . S
C1911 C1917 1.491 . S
C1912 H1903 0.950 . S
C1912 C1911 1.398 . S
C1912 C1913 1.391 . S
C1913 H1901 0.950 . S
C1913 C1909 1.393 . S
C1913 C1912 1.391 . S
C1914 H1904 0.950 . S
C1914 C1915 1.386 . S
C1914 C1916 1.391 . S
C1915 C1914 1.386 . S
C1915 C1919 1.393 . S
C1916 H1905 0.950 . S
C1916 C1914 1.391 . S
C1916 C1917 1.400 . S
C1917 C1911 1.491 . S
C1917 C1916 1.400 . S
C1917 C1918 1.398 . S
C1918 H1906 0.950 . S
C1918 C1917 1.398 . S
C1918 C1919 1.391 . S
C1919 H1907 0.967 . S
C1919 C1915 1.393 . S
C1919 C1918 1.391 . S
H1920 C1928 0.950 . S
H1921 C1933 0.950 . S
H1922 C1930 0.950 . S
H1923 C1932 0.950 . S
H1924 C1934 0.950 . S
H1925 C1936 0.950 . S
H1926 C1938 0.950 . S
H1927 C1939 0.950 . S
C1928 H1920 0.950 . S
C1928 C1929 1.386 . S
C1928 C1930 1.391 . S
C1929 C1928 1.386 . S
C1929 C1933 1.393 . S
C1930 H1922 0.950 . S
C1930 C1928 1.391 . S
C1930 C1931 1.400 . S
C1931 C1930 1.400 . S
C1931 C1932 1.398 . S
C1931 C1937 1.491 . S
C1932 H1923 0.950 . S
C1932 C1931 1.398 . S
C1932 C1933 1.391 . S
C1933 H1921 0.950 . S
C1933 C1929 1.393 . S
C1933 C1932 1.391 . S
C1934 H1924 0.950 . S
C1934 C1935 1.386 . S
C1934 C1936 1.391 . S
C1935 C1934 1.386 . S
C1935 C1939 1.393 . S
C1936 H1925 0.950 . S
C1936 C1934 1.391 . S
C1936 C1937 1.400 . S
C1937 C1931 1.491 . S
C1937 C1936 1.400 . S
C1937 C1938 1.398 . S
C1938 H1926 0.950 . S
C1938 C1937 1.398 . S
C1938 C1939 1.391 . S
C1939 H1927 0.950 . S
C1939 C1935 1.393 . S
C1939 C1938 1.391 . S
H1940 C1948 0.950 . S
H1941 C1953 0.950 . S
H1942 C1950 0.950 . S
H1943 C1952 0.950 . S
H1944 C1954 0.950 . S
H1945 C1956 0.950 . S
H1946 C1958 0.950 . S
H1947 C1959 0.950 . S
C1948 H1940 0.950 . S
C1948 C1949 1.386 . S
C1948 C1950 1.391 . S
C1949 C1948 1.386 . S
C1949 C1953 1.393 . S
C1950 H1942 0.950 . S
C1950 C1948 1.391 . S
C1950 C1951 1.400 . S
C1951 C1950 1.400 . S
C1951 C1952 1.398 . S
C1951 C1957 1.491 . S
C1952 H1943 0.950 . S
C1952 C1951 1.398 . S
C1952 C1953 1.391 . S
C1953 H1941 0.950 . S
C1953 C1949 1.393 . S
C1953 C1952 1.391 . S
C1954 H1944 0.950 . S
C1954 C1955 1.386 . S
C1954 C1956 1.391 . S
C1955 C1954 1.386 . S
C1955 C1959 1.393 . S
C1956 H1945 0.950 . S
C1956 C1954 1.391 . S
C1956 C1957 1.400 . S
C1957 C1951 1.491 . S
C1957 C1956 1.400 . S
C1957 C1958 1.398 . S
C1958 H1946 0.950 . S
C1958 C1957 1.398 . S
C1958 C1959 1.391 . S
C1959 H1947 0.950 . S
C1959 C1955 1.393 . S
C1959 C1958 1.391 . S
H1960 C1968 0.950 . S
H1961 C1973 0.950 . S
H1962 C1970 0.950 . S
H1963 C1972 0.950 . S
H1964 C1974 0.950 . S
H1965 C1976 0.950 . S
H1966 C1978 0.950 . S
H1967 C1979 0.950 . S
C1968 H1960 0.950 . S
C1968 C1969 1.386 . S
C1968 C1970 1.391 . S
C1969 C1968 1.386 . S
C1969 C1973 1.393 . S
C1970 H1962 0.950 . S
C1970 C1968 1.391 . S
C1970 C1971 1.400 . S
C1971 C1970 1.400 . S
C1971 C1972 1.398 . S
C1971 C1977 1.491 . S
C1972 H1963 0.950 . S
C1972 C1971 1.398 . S
C1972 C1973 1.391 . S
C1973 H1961 0.950 . S
C1973 C1969 1.393 . S
C1973 C1972 1.391 . S
C1974 H1964 0.950 . S
C1974 C1975 1.386 . S
C1974 C1976 1.391 . S
C1975 C1974 1.386 . S
C1975 C1979 1.393 . S
C1976 H1965 0.950 . S
C1976 C1974 1.391 . S
C1976 C1977 1.400 . S
C1977 C1971 1.491 . S
C1977 C1976 1.400 . S
C1977 C1978 1.398 . S
C1978 H1966 0.950 . S
C1978 C1977 1.398 . S
C1978 C1979 1.391 . S
C1979 H1967 0.950 . S
C1979 C1975 1.393 . S
C1979 C1978 1.391 . S
H1980 C1988 0.950 . S
H1981 C1993 0.950 . S
H1982 C1990 0.950 . S
H1983 C1992 0.950 . S
H1984 C1994 0.950 . S
H1985 C1996 0.950 . S
H1986 C1998 0.950 . S
H1987 C1999 0.950 . S
C1988 H1980 0.950 . S
C1988 C1989 1.386 . S
C1988 C1990 1.391 . S
C1989 C1988 1.386 . S
C1989 C1993 1.393 . S
C1990 H1982 0.950 . S
C1990 C1988 1.391 . S
C1990 C1991 1.400 . S
C1991 C1990 1.400 . S
C1991 C1992 1.398 . S
C1991 C1997 1.491 . S
C1992 H1983 0.950 . S
C1992 C1991 1.398 . S
C1992 C1993 1.391 . S
C1993 H1981 0.950 . S
C1993 C1989 1.393 . S
C1993 C1992 1.391 . S
C1994 H1984 0.950 . S
C1994 C1995 1.386 . S
C1994 C1996 1.391 . S
C1995 C1994 1.386 . S
C1995 C1999 1.393 . S
C1996 H1985 0.950 . S
C1996 C1994 1.391 . S
C1996 C1997 1.400 . S
C1997 C1991 1.491 . S
C1997 C1996 1.400 . S
C1997 C1998 1.398 . S
C1998 H1986 0.950 . S
C1998 C1997 1.398 . S
C1998 C1999 1.391 . S
C1999 H1987 0.950 . S
C1999 C1995 1.393 . S
C1999 C1998 1.391 . S
H2000 C2008 0.950 . S
H2001 C2013 0.950 . S
H2002 C2010 0.950 . S
H2003 C2012 0.950 . S
H2004 C2014 0.950 . S
H2005 C2016 0.950 . S
H2006 C2018 0.950 . S
H2007 C2019 0.950 . S
C2008 H2000 0.950 . S
C2008 C2009 1.386 . S
C2008 C2010 1.391 . S
C2009 C2008 1.386 . S
C2009 C2013 1.393 . S
C2010 H2002 0.950 . S
C2010 C2008 1.391 . S
C2010 C2011 1.400 . S
C2011 C2010 1.400 . S
C2011 C2012 1.398 . S
C2011 C2017 1.491 . S
C2012 H2003 0.950 . S
C2012 C2011 1.398 . S
C2012 C2013 1.391 . S
C2013 H2001 0.950 . S
C2013 C2009 1.393 . S
C2013 C2012 1.391 . S
C2014 H2004 0.950 . S
C2014 C2015 1.386 . S
C2014 C2016 1.391 . S
C2015 C2014 1.386 . S
C2015 C2019 1.393 . S
C2016 H2005 0.950 . S
C2016 C2014 1.391 . S
C2016 C2017 1.400 . S
C2017 C2011 1.491 . S
C2017 C2016 1.400 . S
C2017 C2018 1.398 . S
C2018 H2006 0.950 . S
C2018 C2017 1.398 . S
C2018 C2019 1.391 . S
C2019 H2007 0.950 . S
C2019 C2015 1.393 . S
C2019 C2018 1.391 . S
H2020 C2028 0.950 . S
H2021 C2033 0.950 . S
H2022 C2030 0.950 . S
H2023 C2032 0.950 . S
H2024 C2034 0.950 . S
H2025 C2036 0.950 . S
H2026 C2038 0.950 . S
H2027 C2039 0.950 . S
C2028 H2020 0.950 . S
C2028 C2029 1.386 . S
C2028 C2030 1.391 . S
C2029 C2028 1.386 . S
C2029 C2033 1.393 . S
C2030 H2022 0.950 . S
C2030 C2028 1.391 . S
C2030 C2031 1.400 . S
C2031 C2030 1.400 . S
C2031 C2032 1.398 . S
C2031 C2037 1.491 . S
C2032 H2023 0.950 . S
C2032 C2031 1.398 . S
C2032 C2033 1.391 . S
C2033 H2021 0.950 . S
C2033 C2029 1.393 . S
C2033 C2032 1.391 . S
C2034 H2024 0.950 . S
C2034 C2035 1.386 . S
C2034 C2036 1.391 . S
C2035 C2034 1.386 . S
C2035 C2039 1.393 . S
C2036 H2025 0.950 . S
C2036 C2034 1.391 . S
C2036 C2037 1.400 . S
C2037 C2031 1.491 . S
C2037 C2036 1.400 . S
C2037 C2038 1.398 . S
C2038 H2026 0.950 . S
C2038 C2037 1.398 . S
C2038 C2039 1.391 . S
C2039 H2027 0.950 . S
C2039 C2035 1.393 . S
C2039 C2038 1.391 . S
H2040 C2048 0.950 . S
H2041 C2053 0.950 . S
H2042 C2050 0.950 . S
H2043 C2052 0.950 . S
H2044 C2054 0.950 . S
H2045 C2056 0.950 . S
H2046 C2058 0.950 . S
H2047 C2059 0.950 . S
C2048 H2040 0.950 . S
C2048 C2049 1.386 . S
C2048 C2050 1.391 . S
C2049 C2048 1.386 . S
C2049 C2053 1.393 . S
C2050 H2042 0.950 . S
C2050 C2048 1.391 . S
C2050 C2051 1.400 . S
C2051 C2050 1.400 . S
C2051 C2052 1.398 . S
C2051 C2057 1.491 . S
C2052 H2043 0.950 . S
C2052 C2051 1.398 . S
C2052 C2053 1.391 . S
C2053 H2041 0.950 . S
C2053 C2049 1.393 . S
C2053 C2052 1.391 . S
C2054 H2044 0.950 . S
C2054 C2055 1.386 . S
C2054 C2056 1.391 . S
C2055 C2054 1.386 . S
C2055 C2059 1.393 . S
C2056 H2045 0.950 . S
C2056 C2054 1.391 . S
C2056 C2057 1.400 . S
C2057 C2051 1.491 . S
C2057 C2056 1.400 . S
C2057 C2058 1.398 . S
C2058 H2046 0.950 . S
C2058 C2057 1.398 . S
C2058 C2059 1.391 . S
C2059 H2047 0.950 . S
C2059 C2055 1.393 . S
C2059 C2058 1.391 . S
H2060 C2068 0.950 . S
H2061 C2073 0.950 . S
H2062 C2070 0.950 . S
H2063 C2072 0.950 . S
H2064 C2074 0.950 . S
H2065 C2076 0.950 . S
H2066 C2078 0.950 . S
H2067 C2079 0.950 . S
C2068 H2060 0.950 . S
C2068 C2069 1.386 . S
C2068 C2070 1.391 . S
C2069 C2068 1.386 . S
C2069 C2073 1.393 . S
C2070 H2062 0.950 . S
C2070 C2068 1.391 . S
C2070 C2071 1.400 . S
C2071 C2070 1.400 . S
C2071 C2072 1.398 . S
C2071 C2077 1.491 . S
C2072 H2063 0.950 . S
C2072 C2071 1.398 . S
C2072 C2073 1.391 . S
C2073 H2061 0.950 . S
C2073 C2069 1.393 . S
C2073 C2072 1.391 . S
C2074 H2064 0.950 . S
C2074 C2075 1.386 . S
C2074 C2076 1.391 . S
C2075 C2074 1.386 . S
C2075 C2079 1.393 . S
C2076 H2065 0.950 . S
C2076 C2074 1.391 . S
C2076 C2077 1.400 . S
C2077 C2071 1.491 . S
C2077 C2076 1.400 . S
C2077 C2078 1.398 . S
C2078 H2066 0.950 . S
C2078 C2077 1.398 . S
C2078 C2079 1.391 . S
C2079 H2067 0.950 . S
C2079 C2075 1.393 . S
C2079 C2078 1.391 . S
H2080 C2088 0.950 . S
H2081 C2093 0.950 . S
H2082 C2090 0.950 . S
H2083 C2092 0.950 . S
H2084 C2094 0.950 . S
H2085 C2096 0.950 . S
H2086 C2098 0.950 . S
H2087 C2099 0.950 . S
C2088 H2080 0.950 . S
C2088 C2089 1.386 . S
C2088 C2090 1.391 . S
C2089 C2088 1.386 . S
C2089 C2093 1.393 . S
C2090 H2082 0.950 . S
C2090 C2088 1.391 . S
C2090 C2091 1.400 . S
C2091 C2090 1.400 . S
C2091 C2092 1.398 . S
C2091 C2097 1.491 . S
C2092 H2083 0.950 . S
C2092 C2091 1.398 . S
C2092 C2093 1.391 . S
C2093 H2081 0.950 . S
C2093 C2089 1.393 . S
C2093 C2092 1.391 . S
C2094 H2084 0.950 . S
C2094 C2095 1.386 . S
C2094 C2096 1.391 . S
C2095 C2094 1.386 . S
C2095 C2099 1.393 . S
C2096 H2085 0.950 . S
C2096 C2094 1.391 . S
C2096 C2097 1.400 . S
C2097 C2091 1.491 . S
C2097 C2096 1.400 . S
C2097 C2098 1.398 . S
C2098 H2086 0.950 . S
C2098 C2097 1.398 . S
C2098 C2099 1.391 . S
C2099 H2087 0.950 . S
C2099 C2095 1.393 . S
C2099 C2098 1.391 . S
H2100 C2108 0.950 . S
H2101 C2113 0.950 . S
H2102 C2110 0.950 . S
H2103 C2112 0.950 . S
H2104 C2114 0.950 . S
H2105 C2116 0.950 . S
H2106 C2118 0.950 . S
H2107 C2119 0.950 . S
C2108 H2100 0.950 . S
C2108 C2109 1.386 . S
C2108 C2110 1.391 . S
C2109 C2108 1.386 . S
C2109 C2113 1.393 . S
C2110 H2102 0.950 . S
C2110 C2108 1.391 . S
C2110 C2111 1.400 . S
C2111 C2110 1.400 . S
C2111 C2112 1.398 . S
C2111 C2117 1.491 . S
C2112 H2103 0.950 . S
C2112 C2111 1.398 . S
C2112 C2113 1.391 . S
C2113 H2101 0.950 . S
C2113 C2109 1.393 . S
C2113 C2112 1.391 . S
C2114 H2104 0.950 . S
C2114 C2115 1.386 . S
C2114 C2116 1.391 . S
C2115 C2114 1.386 . S
C2115 C2119 1.393 . S
C2116 H2105 0.950 . S
C2116 C2114 1.391 . S
C2116 C2117 1.400 . S
C2117 C2111 1.491 . S
C2117 C2116 1.400 . S
C2117 C2118 1.398 . S
C2118 H2106 0.950 . S
C2118 C2117 1.398 . S
C2118 C2119 1.391 . S
C2119 H2107 0.950 . S
C2119 C2115 1.393 . S
C2119 C2118 1.391 . S
H2120 C2128 0.950 . S
H2121 C2133 0.950 . S
H2122 C2130 0.950 . S
H2123 C2132 0.950 . S
H2124 C2134 0.950 . S
H2125 C2136 0.950 . S
H2126 C2138 0.950 . S
H2127 C2139 0.950 . S
C2128 H2120 0.950 . S
C2128 C2129 1.386 . S
C2128 C2130 1.391 . S
C2129 C2128 1.386 . S
C2129 C2133 1.393 . S
C2130 H2122 0.950 . S
C2130 C2128 1.391 . S
C2130 C2131 1.400 . S
C2131 C2130 1.400 . S
C2131 C2132 1.398 . S
C2131 C2137 1.491 . S
C2132 H2123 0.950 . S
C2132 C2131 1.398 . S
C2132 C2133 1.391 . S
C2133 H2121 0.950 . S
C2133 C2129 1.393 . S
C2133 C2132 1.391 . S
C2134 H2124 0.950 . S
C2134 C2135 1.386 . S
C2134 C2136 1.391 . S
C2135 C2134 1.386 . S
C2135 C2139 1.393 . S
C2136 H2125 0.950 . S
C2136 C2134 1.391 . S
C2136 C2137 1.400 . S
C2137 C2131 1.491 . S
C2137 C2136 1.400 . S
C2137 C2138 1.398 . S
C2138 H2126 0.950 . S
C2138 C2137 1.398 . S
C2138 C2139 1.391 . S
C2139 H2127 0.950 . S
C2139 C2135 1.393 . S
C2139 C2138 1.391 . S
H2140 C2148 0.950 . S
H2141 C2153 0.950 . S
H2142 C2150 0.950 . S
H2143 C2152 0.950 . S
H2144 C2154 0.950 . S
H2145 C2156 0.950 . S
H2146 C2158 0.950 . S
H2147 C2159 0.950 . S
C2148 H2140 0.950 . S
C2148 C2149 1.386 . S
C2148 C2150 1.391 . S
C2149 C2148 1.386 . S
C2149 C2153 1.393 . S
C2150 H2142 0.950 . S
C2150 C2148 1.391 . S
C2150 C2151 1.400 . S
C2151 C2150 1.400 . S
C2151 C2152 1.398 . S
C2151 C2157 1.491 . S
C2152 H2143 0.950 . S
C2152 C2151 1.398 . S
C2152 C2153 1.391 . S
C2153 H2141 0.950 . S
C2153 C2149 1.393 . S
C2153 C2152 1.391 . S
C2154 H2144 0.950 . S
C2154 C2155 1.386 . S
C2154 C2156 1.391 . S
C2155 C2154 1.386 . S
C2155 C2159 1.393 . S
C2156 H2145 0.950 . S
C2156 C2154 1.391 . S
C2156 C2157 1.400 . S
C2157 C2151 1.491 . S
C2157 C2156 1.400 . S
C2157 C2158 1.398 . S
C2158 H2146 0.950 . S
C2158 C2157 1.398 . S
C2158 C2159 1.391 . S
C2159 H2147 0.950 . S
C2159 C2155 1.393 . S
C2159 C2158 1.391 . S
C1089 C522 1.745 . S
C1095 C729 1.694 . S
C1109 C562 1.823 . S
C1115 C769 1.789 . S
C1129 C495 1.808 . S
C1135 C808 1.831 . S
C1149 C455 1.602 . S
C1155 C768 1.614 1_556 S
C1175 C809 1.467 . S
C1169 C362 1.481 . S
C1189 C402 1.514 . S
C1195 C728 1.492 1_556 S
C1215 C739 1.726 . S
C1209 C442 1.690 . S
C1235 C779 1.761 . S
C1229 C375 1.786 . S
C1249 C415 1.827 . S
C1255 C818 1.814 1_556 S
C1269 C535 1.610 . S
C1275 C778 1.600 . S
C1289 C575 1.445 . S
C1295 C819 1.421 . S
C1315 C738 1.530 . S
C1309 C482 1.426 . S
C1335 C849 1.703 . S
C1329 C42 1.745 . S
C1349 C82 1.824 . S
C1355 C889 1.778 . S
C1369 C15 1.800 . S
C1375 C928 1.827 . S
C1389 C695 1.614 . S
C1395 C888 1.620 . S
C1409 C602 1.481 . S
C1415 C929 1.465 . S
C1429 C642 1.519 . S
C1435 C848 1.506 . S
C1449 C682 1.680 . S
C1455 C859 1.722 . S
C1469 C615 1.787 . S
C1475 C899 1.762 . S
C1495 C938 1.814 . S
C1489 C655 1.807 . S
C1509 C55 1.612 . S
C1515 C898 1.598 . S
C1535 C939 1.439 . S
C1529 C95 1.458 1_455 S
C1549 C2 1.457 . S
C1555 C858 1.526 . S
C1575 C969 1.701 . S
C1569 C282 1.743 . S
C1589 C322 1.824 . S
C1595 C1009 1.783 . S
C1615 C1048 1.816 . S
C1609 C255 1.809 . S
C1635 C1008 1.619 . S
C1629 C215 1.617 . S
C1655 C1049 1.472 . S
C1649 C122 1.537 . S
C1669 C162 1.519 . S
C1675 C968 1.502 . S
C1689 C202 1.693 . S
C1695 C979 1.729 . S
C1709 C135 1.783 . S
C1715 C1019 1.756 . S
C1735 C1058 1.818 . S
C1729 C175 1.821 . S
C1749 C295 1.610 . S
C1755 C1018 1.600 . S
C1769 C335 1.454 . S
C1775 C1059 1.432 . S
C1789 C242 1.433 . S
C1795 C978 1.520 . S
C1809 C621 1.286 . S
C1815 C725 1.289 . S
C1835 C765 1.913 . S
C1829 C661 1.920 . S
C1849 C701 1.585 . S
C1855 C815 1.630 . S
C1869 C261 1.845 . S
C1875 C775 1.929 . S
C1889 C301 1.605 . S
C1895 C805 1.607 . S
C1915 C735 1.286 . S
C1909 C341 1.289 . S
C1929 C141 1.293 . S
C1935 C845 1.293 . S
C1949 C181 1.923 . S
C1955 C885 1.917 . S
C1969 C221 1.576 . S
C1975 C935 1.628 . S
C1989 C501 1.849 . S
C1995 C895 1.931 . S
C2015 C925 1.608 . S
C2009 C541 1.608 . S
C2029 C581 1.282 . S
C2035 C855 1.280 . S
C2049 C381 1.286 . S
C2055 C965 1.289 . S
C2069 C421 1.924 . S
C2075 C1005 1.918 . S
C2095 C1055 1.628 . S
C2089 C461 1.575 . S
C2109 C21 1.855 . S
C2115 C1015 1.934 . S
C2129 C61 1.606 . S
C2135 C1045 1.608 . S
C2149 C101 1.283 . S
C2155 C975 1.279 . S
