# Generated by pormake.
# Topology wbl, (4,4)-cn, num edge types: 1
# Building blocks:
#     Node 0, Type 0, BuildingBlock: MUDLON_clean_sbu_0, # of connection points: 4
#     Node 1, Type 0, BuildingBlock: MUDLON_clean_sbu_0, # of connection points: 4
#     Node 2, Type 0, BuildingBlock: MUDLON_clean_sbu_0, # of connection points: 4
#     Node 3, Type 0, BuildingBlock: MUDLON_clean_sbu_0, # of connection points: 4
#     Node 4, Type 0, BuildingBlock: MUDLON_clean_sbu_0, # of connection points: 4
#     Node 5, Type 0, BuildingBlock: MUDLON_clean_sbu_0, # of connection points: 4
#     Node 6, Type 0, BuildingBlock: MUDLON_clean_sbu_0, # of connection points: 4
#     Node 7, Type 0, BuildingBlock: MUDLON_clean_sbu_0, # of connection points: 4
#     Node 8, Type 1, BuildingBlock: GALJAG_clean_sbu_0, # of connection points: 4
#     Node 9, Type 1, BuildingBlock: GALJAG_clean_sbu_0, # of connection points: 4
#     Node 10, Type 1, BuildingBlock: GALJAG_clean_sbu_0, # of connection points: 4
#     Node 11, Type 1, BuildingBlock: GALJAG_clean_sbu_0, # of connection points: 4
#     Node 12, Type 1, BuildingBlock: GALJAG_clean_sbu_0, # of connection points: 4
#     Node 13, Type 1, BuildingBlock: GALJAG_clean_sbu_0, # of connection points: 4
#     Node 14, Type 1, BuildingBlock: GALJAG_clean_sbu_0, # of connection points: 4
#     Node 15, Type 1, BuildingBlock: GALJAG_clean_sbu_0, # of connection points: 4
#     Edge 16, Type (0, 1), BuildingBlock: TEMPAE_clean_linker_10, # of connection points: 2
#     Edge 17, Type (0, 1), BuildingBlock: TEMPAE_clean_linker_10, # of connection points: 2
#     Edge 18, Type (0, 1), BuildingBlock: TEMPAE_clean_linker_10, # of connection points: 2
#     Edge 19, Type (0, 1), BuildingBlock: TEMPAE_clean_linker_10, # of connection points: 2
#     Edge 20, Type (0, 1), BuildingBlock: TEMPAE_clean_linker_10, # of connection points: 2
#     Edge 21, Type (0, 1), BuildingBlock: TEMPAE_clean_linker_10, # of connection points: 2
#     Edge 22, Type (0, 1), BuildingBlock: TEMPAE_clean_linker_10, # of connection points: 2
#     Edge 23, Type (0, 1), BuildingBlock: TEMPAE_clean_linker_10, # of connection points: 2
#     Edge 24, Type (0, 1), BuildingBlock: TEMPAE_clean_linker_10, # of connection points: 2
#     Edge 25, Type (0, 1), BuildingBlock: TEMPAE_clean_linker_10, # of connection points: 2
#     Edge 26, Type (0, 1), BuildingBlock: TEMPAE_clean_linker_10, # of connection points: 2
#     Edge 27, Type (0, 1), BuildingBlock: TEMPAE_clean_linker_10, # of connection points: 2
#     Edge 28, Type (0, 1), BuildingBlock: TEMPAE_clean_linker_10, # of connection points: 2
#     Edge 29, Type (0, 1), BuildingBlock: TEMPAE_clean_linker_10, # of connection points: 2
#     Edge 30, Type (0, 1), BuildingBlock: TEMPAE_clean_linker_10, # of connection points: 2
#     Edge 31, Type (0, 1), BuildingBlock: TEMPAE_clean_linker_10, # of connection points: 2
#     Edge 32, Type (0, 1), BuildingBlock: TEMPAE_clean_linker_10, # of connection points: 2
#     Edge 33, Type (0, 1), BuildingBlock: TEMPAE_clean_linker_10, # of connection points: 2
#     Edge 34, Type (0, 1), BuildingBlock: TEMPAE_clean_linker_10, # of connection points: 2
#     Edge 35, Type (0, 1), BuildingBlock: TEMPAE_clean_linker_10, # of connection points: 2
#     Edge 36, Type (0, 1), BuildingBlock: TEMPAE_clean_linker_10, # of connection points: 2
#     Edge 37, Type (0, 1), BuildingBlock: TEMPAE_clean_linker_10, # of connection points: 2
#     Edge 38, Type (0, 1), BuildingBlock: TEMPAE_clean_linker_10, # of connection points: 2
#     Edge 39, Type (0, 1), BuildingBlock: TEMPAE_clean_linker_10, # of connection points: 2
#     Edge 40, Type (0, 1), BuildingBlock: TEMPAE_clean_linker_10, # of connection points: 2
#     Edge 41, Type (0, 1), BuildingBlock: TEMPAE_clean_linker_10, # of connection points: 2
#     Edge 42, Type (0, 1), BuildingBlock: TEMPAE_clean_linker_10, # of connection points: 2
#     Edge 43, Type (0, 1), BuildingBlock: TEMPAE_clean_linker_10, # of connection points: 2
#     Edge 44, Type (0, 1), BuildingBlock: TEMPAE_clean_linker_10, # of connection points: 2
#     Edge 45, Type (0, 1), BuildingBlock: TEMPAE_clean_linker_10, # of connection points: 2
#     Edge 46, Type (0, 1), BuildingBlock: TEMPAE_clean_linker_10, # of connection points: 2
#     Edge 47, Type (0, 1), BuildingBlock: TEMPAE_clean_linker_10, # of connection points: 2
# Relax obj value: 0.157
# Max RMSD: 0.185
# Mean RMSD: 0.147
data_MOF--net-wbl--node1-MUDLON_clean_sbu_0--node2-GALJAG_clean_sbu_0--edge1-TEMPAE_clean_linker_10
_symmetry_space_group_name_H-M    P1
_symmetry_Int_Tables_number       1
_symmetry_cell_setting            triclinic
loop_
_symmetry_equiv_pos_as_xyz
'x, y, z'
_cell_length_a     34.53744
_cell_length_b     34.683207
_cell_length_c     82.289411
_cell_angle_alpha  90.021517
_cell_angle_beta   89.997762
_cell_angle_gamma 89.953167
loop_
_atom_site_label
_atom_site_type_symbol
_atom_site_fract_x
_atom_site_fract_y
_atom_site_fract_z
_atom_type_partial_charge
Mg0 Mg 0.99538 0.99762 0.34701 0.0
C1 C 0.99282 0.92429 0.36926 0.0
O2 O 0.99906 0.90323 0.35625 0.0
C3 C 0.91044 0.00317 0.33797 0.0
O4 O 0.90677 0.99799 0.35372 0.0
C5 C 0.04315 0.95955 0.32057 0.0
O6 O 0.00848 0.95093 0.3151 0.0
O7 O 0.0462 0.97938 0.33351 0.0
O8 O 0.98805 0.96044 0.36787 0.0
O9 O 0.0054 0.05099 0.36011 0.0
C10 C 0.97882 0.0762 0.36125 0.0
O11 O 0.94947 0.07454 0.35113 0.0
O12 O 0.94416 0.00286 0.33176 0.0
Mg13 Mg 0.01725 0.49249 0.59876 0.0
C14 C 0.03495 0.53504 0.6276 0.0
O15 O 0.06796 0.52705 0.62042 0.0
C16 C 0.95714 0.46735 0.57403 0.0
O17 O 0.97342 0.49481 0.56542 0.0
C18 C 0.0808 0.5351 0.57951 0.0
O19 O 0.10459 0.51813 0.58971 0.0
O20 O 0.04466 0.52859 0.58051 0.0
O21 O 0.00374 0.52632 0.62026 0.0
O22 O 0.05469 0.45012 0.61007 0.0
C23 C 0.03788 0.41959 0.61485 0.0
O24 O 0.00966 0.40587 0.60584 0.0
O25 O 0.96808 0.46216 0.58861 0.0
Mg26 Mg 0.50645 0.50439 0.83196 0.0
C27 C 0.5384 0.54786 0.86074 0.0
O28 O 0.56356 0.51949 0.86036 0.0
C29 C 0.58734 0.50849 0.81655 0.0
O30 O 0.59341 0.53266 0.82857 0.0
C31 C 0.44874 0.54028 0.80869 0.0
O32 O 0.48051 0.55721 0.80358 0.0
O33 O 0.45118 0.51541 0.82001 0.0
O34 O 0.51466 0.55157 0.84901 0.0
O35 O 0.50212 0.45701 0.84915 0.0
C36 C 0.53253 0.43847 0.85304 0.0
O37 O 0.56388 0.44318 0.84421 0.0
O38 O 0.55381 0.49389 0.8148 0.0
Mg39 Mg 0.5051 0.9987 0.09016 0.0
C40 C 0.55646 0.97072 0.11738 0.0
O41 O 0.53601 0.93918 0.11533 0.0
C42 C 0.46966 0.94403 0.06698 0.0
O43 O 0.44052 0.96685 0.0706 0.0
C44 C 0.5145 0.05429 0.06219 0.0
O45 O 0.51694 0.02173 0.05409 0.0
O46 O 0.50796 0.05327 0.07739 0.0
O47 O 0.55316 0.99782 0.10707 0.0
O48 O 0.45676 0.99459 0.10698 0.0
C49 C 0.44547 0.96093 0.11089 0.0
O50 O 0.45931 0.93125 0.10285 0.0
O51 O 0.50263 0.95065 0.07327 0.0
Mg52 Mg 0.00751 0.51104 0.92404 0.0
C53 C 0.97568 0.57507 0.90312 0.0
O54 O 0.94485 0.55293 0.90301 0.0
C55 C 0.95486 0.45976 0.94241 0.0
O56 O 0.97809 0.4348 0.93537 0.0
C57 C 0.06733 0.52234 0.95014 0.0
O58 O 0.03639 0.53213 0.95847 0.0
O59 O 0.06339 0.5102 0.93567 0.0
O60 O 0.00292 0.56732 0.91296 0.0
O61 O 0.00673 0.47374 0.9029 0.0
C62 C 0.97412 0.46347 0.8972 0.0
O63 O 0.94258 0.47185 0.9054 0.0
O64 O 0.96077 0.49558 0.9403 0.0
Mg65 Mg 0.52099 0.49381 0.16626 0.0
C66 C 0.46283 0.52088 0.14354 0.0
O67 O 0.47626 0.55234 0.15042 0.0
C68 C 0.52429 0.40899 0.17603 0.0
O69 O 0.50984 0.40431 0.16139 0.0
C70 C 0.48675 0.54079 0.19332 0.0
O71 O 0.47283 0.50658 0.1969 0.0
O72 O 0.50971 0.54405 0.18131 0.0
O73 O 0.47344 0.48848 0.14924 0.0
O74 O 0.56701 0.5023 0.14859 0.0
C75 C 0.58543 0.47284 0.14361 0.0
O76 O 0.58302 0.44082 0.15204 0.0
O77 O 0.53086 0.44294 0.18116 0.0
Mg78 Mg 0.48242 0.04805 0.41415 0.0
C79 C 0.44457 0.10728 0.39271 0.0
O80 O 0.41228 0.08873 0.39581 0.0
C81 C 0.43077 0.99283 0.43122 0.0
O82 O 0.45447 0.96933 0.42359 0.0
C83 C 0.53584 0.08379 0.43746 0.0
O84 O 0.50516 0.10614 0.43825 0.0
O85 O 0.53494 0.05455 0.42815 0.0
O86 O 0.47307 0.10286 0.40228 0.0
O87 O 0.48822 0.01008 0.39316 0.0
C88 C 0.45632 0.00218 0.38621 0.0
O89 O 0.42391 0.01211 0.39343 0.0
O90 O 0.43536 0.029 0.42963 0.0
Mg91 Mg 0.98577 0.00156 0.65805 0.0
C92 C 0.0594 0.98359 0.64069 0.0
O93 O 0.05711 0.95379 0.6505 0.0
C94 C 0.97861 0.08508 0.66953 0.0
O95 O 0.00075 0.09207 0.65689 0.0
C96 C 0.01342 0.95973 0.68719 0.0
O97 O 0.0224 0.99563 0.69063 0.0
O98 O 0.99612 0.95259 0.67388 0.0
O99 O 0.03586 0.01135 0.64272 0.0
O100 O 0.94095 0.99416 0.63994 0.0
C101 C 0.94864 0.97504 0.62714 0.0
O102 O 0.97993 0.95349 0.62689 0.0
O103 O 0.96919 0.05055 0.67277 0.0
In104 In 0.4033 0.62009 0.99962 0.0
O105 O 0.39213 0.6849 0.00167 0.0
O106 O 0.43862 0.66075 0.01532 0.0
C107 C 0.33213 0.59996 0.98927 0.0
C108 C 0.40961 0.58069 0.02769 0.0
C109 C 0.44758 0.61013 0.97274 0.0
O110 O 0.3408 0.63446 0.99258 0.0
O111 O 0.35938 0.57613 0.99096 0.0
O112 O 0.43925 0.58281 0.98221 0.0
O113 O 0.43461 0.64244 0.97705 0.0
C114 C 0.41951 0.69047 0.01159 0.0
O115 O 0.43761 0.58405 0.01787 0.0
O116 O 0.37864 0.59683 0.02322 0.0
In117 In 0.35935 0.85499 0.25311 0.0
O118 O 0.34767 0.79521 0.24217 0.0
O119 O 0.40306 0.80581 0.25233 0.0
C120 C 0.28804 0.87222 0.26457 0.0
C121 C 0.37083 0.88876 0.22399 0.0
C122 C 0.39911 0.88115 0.27905 0.0
O123 O 0.30192 0.83853 0.26531 0.0
O124 O 0.30979 0.89663 0.25784 0.0
O125 O 0.39825 0.89902 0.26569 0.0
O126 O 0.38034 0.84995 0.27921 0.0
C127 C 0.38122 0.78246 0.24503 0.0
O128 O 0.3974 0.88522 0.23442 0.0
O129 O 0.33839 0.87565 0.22833 0.0
In130 In 0.13943 0.84834 0.50409 0.0
O131 O 0.10012 0.88471 0.5203 0.0
O132 O 0.16032 0.88368 0.52575 0.0
C133 C 0.09453 0.84406 0.47725 0.0
C134 C 0.13524 0.77761 0.51795 0.0
C135 C 0.2027 0.88195 0.49138 0.0
O136 O 0.08477 0.86345 0.48958 0.0
O137 O 0.12605 0.82605 0.4787 0.0
O138 O 0.20495 0.85296 0.50067 0.0
O139 O 0.16878 0.89409 0.4888 0.0
C140 C 0.12708 0.89574 0.52957 0.0
O141 O 0.16126 0.78601 0.50779 0.0
O142 O 0.11169 0.80441 0.52082 0.0
In143 In 0.1135 0.66416 0.76666 0.0
O144 O 0.08217 0.62571 0.78493 0.0
O145 O 0.08924 0.68491 0.79088 0.0
C146 C 0.08352 0.63268 0.73945 0.0
C147 C 0.18716 0.64047 0.77295 0.0
C148 C 0.09813 0.73658 0.7568 0.0
O149 O 0.07407 0.62079 0.7534 0.0
O150 O 0.10884 0.65876 0.73934 0.0
O151 O 0.13189 0.72242 0.75623 0.0
O152 O 0.07287 0.7148 0.76301 0.0
C153 C 0.07635 0.65242 0.79507 0.0
O154 O 0.17378 0.67205 0.77808 0.0
O155 O 0.16378 0.62136 0.76442 0.0
In156 In 0.86172 0.16184 0.50106 0.0
O157 O 0.83854 0.21686 0.51334 0.0
O158 O 0.8992 0.21066 0.51056 0.0
C159 C 0.78816 0.15655 0.49036 0.0
C160 C 0.88047 0.10942 0.52419 0.0
C161 C 0.90282 0.14821 0.47364 0.0
O162 O 0.81499 0.17091 0.4819 0.0
O163 O 0.79818 0.1462 0.50445 0.0
O164 O 0.89009 0.12145 0.48254 0.0
O165 O 0.89545 0.18167 0.47874 0.0
C166 C 0.87164 0.23117 0.51563 0.0
O167 O 0.84999 0.10723 0.51585 0.0
O168 O 0.90202 0.13747 0.5206 0.0
In169 In 0.89496 0.3807 0.75134 0.0
O170 O 0.95416 0.38871 0.73977 0.0
O171 O 0.90638 0.41585 0.72824 0.0
C172 C 0.92676 0.3956 0.78054 0.0
C173 C 0.89443 0.30925 0.73852 0.0
C174 C 0.82208 0.40416 0.75853 0.0
O175 O 0.92126 0.42161 0.77005 0.0
O176 O 0.91693 0.36218 0.77614 0.0
O177 O 0.83487 0.37115 0.76209 0.0
O178 O 0.84554 0.42499 0.75069 0.0
C179 C 0.94211 0.408 0.72782 0.0
O180 O 0.8736 0.33613 0.73295 0.0
O181 O 0.91339 0.31793 0.7511 0.0
In182 In 0.62344 0.37201 0.99871 0.0
O183 O 0.63387 0.30925 0.006 0.0
O184 O 0.57683 0.3318 0.00827 0.0
C185 C 0.69535 0.38505 0.98753 0.0
C186 C 0.61802 0.41611 0.02583 0.0
C187 C 0.58654 0.38101 0.97004 0.0
O188 O 0.68744 0.35605 0.99623 0.0
O189 O 0.66713 0.40702 0.98452 0.0
O190 O 0.59014 0.40827 0.98015 0.0
O191 O 0.60042 0.34918 0.97464 0.0
C192 C 0.59911 0.30328 0.01007 0.0
O193 O 0.5893 0.40986 0.01672 0.0
O194 O 0.64917 0.40124 0.02099 0.0
In195 In 0.61154 0.10695 0.25707 0.0
O196 O 0.57016 0.07739 0.27502 0.0
O197 O 0.58087 0.13741 0.27782 0.0
C198 C 0.60578 0.06204 0.23039 0.0
C199 C 0.67735 0.08661 0.27261 0.0
C200 C 0.59717 0.17401 0.24163 0.0
O201 O 0.57777 0.0671 0.24004 0.0
O202 O 0.63669 0.07878 0.23444 0.0
O203 O 0.63111 0.1644 0.24583 0.0
O204 O 0.57119 0.15003 0.24532 0.0
C205 C 0.56346 0.1079 0.28292 0.0
O206 O 0.67034 0.12118 0.26867 0.0
O207 O 0.65141 0.06285 0.26864 0.0
C208 C 0.0752 0.92775 0.29674 0.0
C209 C 0.07825 0.94569 0.31197 0.0
C210 C 0.10824 0.9145 0.28848 0.0
C211 C 0.14519 0.919 0.29569 0.0
C212 C 0.14843 0.93677 0.31112 0.0
C213 C 0.11497 0.95003 0.31904 0.0
C214 C 0.10367 0.89601 0.27198 0.0
C215 C 0.18729 0.9419 0.31925 0.0
C216 C 0.22965 0.85703 0.28146 0.0
C217 C 0.25022 0.88304 0.27171 0.0
C218 C 0.19506 0.86812 0.28917 0.0
C219 C 0.18064 0.90601 0.28695 0.0
C220 C 0.20082 0.93204 0.27677 0.0
C221 C 0.23542 0.92028 0.26933 0.0
C222 C 0.17445 0.83963 0.3 0.0
C223 C 0.18626 0.97257 0.27398 0.0
H224 H 0.04698 0.92431 0.29117 0.0
H225 H 0.11761 0.96367 0.33084 0.0
H226 H 0.11995 0.91278 0.26276 0.0
H227 H 0.11604 0.86648 0.27211 0.0
H228 H 0.07288 0.89425 0.26813 0.0
H229 H 0.18476 0.95538 0.33146 0.0
H230 H 0.20187 0.91356 0.32057 0.0
H231 H 0.20622 0.96025 0.31159 0.0
H232 H 0.24102 0.82824 0.28338 0.0
H233 H 0.25114 0.94049 0.26176 0.0
H234 H 0.14399 0.83612 0.296 0.0
H235 H 0.17375 0.85072 0.31265 0.0
H236 H 0.18868 0.8109 0.30001 0.0
H237 H 0.15603 0.97189 0.26944 0.0
H238 H 0.20437 0.98865 0.26512 0.0
H239 H 0.18608 0.98866 0.28564 0.0
C240 C 0.12977 0.58457 0.57137 0.0
C241 C 0.09498 0.56514 0.56823 0.0
C242 C 0.14055 0.61696 0.56217 0.0
C243 C 0.11625 0.6297 0.54939 0.0
C244 C 0.08252 0.60849 0.54546 0.0
C245 C 0.07209 0.57669 0.55502 0.0
C246 C 0.17651 0.63903 0.56687 0.0
C247 C 0.05621 0.62068 0.53173 0.0
C248 C 0.1097 0.7365 0.5402 0.0
C249 C 0.13223 0.7398 0.52612 0.0
C250 C 0.10523 0.70101 0.54808 0.0
C251 C 0.12318 0.66773 0.54154 0.0
C252 C 0.14631 0.67087 0.52738 0.0
C253 C 0.15087 0.70706 0.51989 0.0
C254 C 0.08084 0.69909 0.5633 0.0
C255 C 0.16539 0.6359 0.51995 0.0
H256 H 0.14757 0.5758 0.58157 0.0
H257 H 0.04539 0.56146 0.55242 0.0
H258 H 0.19423 0.64566 0.55598 0.0
H259 H 0.16804 0.66692 0.57245 0.0
H260 H 0.19467 0.6229 0.5757 0.0
H261 H 0.03415 0.59838 0.52887 0.0
H262 H 0.04097 0.64769 0.53511 0.0
H263 H 0.0733 0.6267 0.5206 0.0
H264 H 0.09551 0.76183 0.54514 0.0
H265 H 0.16824 0.70956 0.50897 0.0
H266 H 0.09771 0.68595 0.57335 0.0
H267 H 0.05521 0.68052 0.56116 0.0
H268 H 0.07059 0.72797 0.56727 0.0
H269 H 0.1836 0.62101 0.52911 0.0
H270 H 0.18372 0.64343 0.50932 0.0
H271 H 0.14289 0.61512 0.51597 0.0
C272 C 0.40796 0.57737 0.78889 0.0
C273 C 0.41039 0.55257 0.80233 0.0
C274 C 0.37206 0.59128 0.78337 0.0
C275 C 0.33769 0.58047 0.79157 0.0
C276 C 0.33987 0.55496 0.80498 0.0
C277 C 0.37613 0.54117 0.81014 0.0
C278 C 0.37096 0.61804 0.76891 0.0
C279 C 0.30394 0.54289 0.81411 0.0
C280 C 0.24949 0.64604 0.78836 0.0
C281 C 0.22634 0.62608 0.77718 0.0
C282 C 0.28586 0.63163 0.79308 0.0
C283 C 0.29955 0.59653 0.78637 0.0
C284 C 0.27655 0.5766 0.77486 0.0
C285 C 0.24019 0.59153 0.77045 0.0
C286 C 0.30939 0.65368 0.80543 0.0
C287 C 0.29019 0.53928 0.76733 0.0
H288 H 0.43422 0.58623 0.78273 0.0
H289 H 0.37767 0.52215 0.82057 0.0
H290 H 0.35128 0.60637 0.75946 0.0
H291 H 0.35931 0.64652 0.77263 0.0
H292 H 0.40005 0.62237 0.76344 0.0
H293 H 0.31043 0.52221 0.82405 0.0
H294 H 0.28965 0.56864 0.81942 0.0
H295 H 0.28294 0.52934 0.80567 0.0
H296 H 0.23893 0.67268 0.79364 0.0
H297 H 0.22246 0.57596 0.76179 0.0
H298 H 0.33812 0.6611 0.80028 0.0
H299 H 0.31456 0.6354 0.81628 0.0
H300 H 0.29485 0.68069 0.80937 0.0
H301 H 0.31862 0.54361 0.76132 0.0
H302 H 0.26939 0.52791 0.75821 0.0
H303 H 0.29435 0.51721 0.77692 0.0
C304 C 0.42667 0.89041 0.05831 0.0
C305 C 0.46281 0.90864 0.05748 0.0
C306 C 0.42003 0.85542 0.05026 0.0
C307 C 0.4499 0.83892 0.04074 0.0
C308 C 0.48608 0.85789 0.03943 0.0
C309 C 0.49234 0.89228 0.04807 0.0
C310 C 0.38146 0.83553 0.05237 0.0
C311 C 0.51822 0.8417 0.02903 0.0
C312 C 0.44669 0.73086 0.03379 0.0
C313 C 0.42814 0.72852 0.01869 0.0
C314 C 0.45406 0.76665 0.04108 0.0
C315 C 0.44367 0.80092 0.03281 0.0
C316 C 0.4259 0.79872 0.01732 0.0
C317 C 0.41776 0.76244 0.01054 0.0
C318 C 0.47204 0.76773 0.05781 0.0
C319 C 0.41536 0.83465 0.00796 0.0
H320 H 0.40393 0.90285 0.06573 0.0
H321 H 0.52021 0.90655 0.04736 0.0
H322 H 0.36759 0.83089 0.04037 0.0
H323 H 0.3859 0.80672 0.05794 0.0
H324 H 0.36127 0.85228 0.06016 0.0
H325 H 0.54346 0.86146 0.0283 0.0
H326 H 0.52813 0.81374 0.03407 0.0
H327 H 0.50744 0.83609 0.01655 0.0
H328 H 0.45451 0.70458 0.04014 0.0
H329 H 0.4037 0.76059 0.99879 0.0
H330 H 0.45225 0.78264 0.06639 0.0
H331 H 0.49944 0.78435 0.05752 0.0
H332 H 0.47826 0.73843 0.0626 0.0
H333 H 0.39287 0.8511 0.01464 0.0
H334 H 0.40422 0.82799 0.99561 0.0
H335 H 0.44103 0.85367 0.00679 0.0
C336 C 0.1116 0.53974 0.97307 0.0
C337 C 0.10646 0.53008 0.95666 0.0
C338 C 0.1482 0.55016 0.97905 0.0
C339 C 0.18018 0.55144 0.9683 0.0
C340 C 0.17529 0.5411 0.9518 0.0
C341 C 0.13855 0.53025 0.94621 0.0
C342 C 0.15254 0.56033 0.9968 0.0
C343 C 0.20865 0.54246 0.93994 0.0
C344 C 0.26582 0.61521 0.97896 0.0
C345 C 0.29304 0.58792 0.98416 0.0
C346 C 0.22882 0.60374 0.97383 0.0
C347 C 0.21874 0.56416 0.97421 0.0
C348 C 0.24591 0.53661 0.97975 0.0
C349 C 0.28288 0.5488 0.98452 0.0
C350 C 0.20074 0.63387 0.96777 0.0
C351 C 0.23602 0.49424 0.98054 0.0
H352 H 0.08694 0.53953 0.98122 0.0
H353 H 0.13479 0.52301 0.93349 0.0
H354 H 0.17554 0.54239 0.00241 0.0
H355 H 0.16156 0.59088 0.99802 0.0
H356 H 0.12523 0.55611 0.0037 0.0
H357 H 0.20007 0.53316 0.92753 0.0
H358 H 0.22023 0.57225 0.93924 0.0
H359 H 0.23254 0.52362 0.9442 0.0
H360 H 0.27366 0.64546 0.97865 0.0
H361 H 0.30379 0.52765 0.98867 0.0
H362 H 0.17373 0.63305 0.97505 0.0
H363 H 0.1927 0.62758 0.95498 0.0
H364 H 0.21296 0.66345 0.96837 0.0
H365 H 0.20957 0.48992 0.98798 0.0
H366 H 0.25985 0.47676 0.98583 0.0
H367 H 0.22967 0.48322 0.96817 0.0
C368 C 0.45116 0.57151 0.21647 0.0
C369 C 0.47299 0.5754 0.20218 0.0
C370 C 0.43589 0.60394 0.22445 0.0
C371 C 0.44226 0.64112 0.21789 0.0
C372 C 0.46466 0.64528 0.20358 0.0
C373 C 0.47993 0.6124 0.19595 0.0
C374 C 0.41259 0.5984 0.2398 0.0
C375 C 0.47188 0.68443 0.19614 0.0
C376 C 0.37318 0.72304 0.22812 0.0
C377 C 0.39511 0.74452 0.23922 0.0
C378 C 0.38787 0.68888 0.2213 0.0
C379 C 0.42519 0.67576 0.22585 0.0
C380 C 0.44685 0.69663 0.2375 0.0
C381 C 0.43163 0.73087 0.24398 0.0
C382 C 0.36399 0.66753 0.20885 0.0
C383 C 0.48653 0.68335 0.2428 0.0
H384 H 0.44576 0.54303 0.22139 0.0
H385 H 0.49658 0.61567 0.18487 0.0
H386 H 0.42525 0.61569 0.24982 0.0
H387 H 0.38257 0.60886 0.23791 0.0
H388 H 0.41144 0.56772 0.24364 0.0
H389 H 0.49013 0.68276 0.18505 0.0
H390 H 0.44389 0.69815 0.19291 0.0
H391 H 0.48638 0.70351 0.20508 0.0
H392 H 0.345 0.73355 0.22436 0.0
H393 H 0.44865 0.74731 0.25261 0.0
H394 H 0.36024 0.63702 0.21256 0.0
H395 H 0.37931 0.66749 0.197 0.0
H396 H 0.33493 0.68066 0.20712 0.0
H397 H 0.48532 0.65299 0.24702 0.0
H398 H 0.49854 0.70145 0.25273 0.0
H399 H 0.50676 0.68434 0.23234 0.0
C400 C 0.3805 -0.00041 0.45294 0.0
C401 C 0.39843 0.97716 0.44093 0.0
C402 C 0.34961 0.98482 0.46213 0.0
C403 C 0.33583 0.94713 0.45893 0.0
C404 C 0.35385 0.92442 0.44679 0.0
C405 C 0.3852 0.93956 0.43806 0.0
C406 C 0.3316 0.00958 0.4752 0.0
C407 C 0.33947 0.88441 0.44278 0.0
C408 C 0.27415 0.89289 0.48959 0.0
C409 C 0.2368 0.89968 0.48359 0.0
C410 C 0.30668 0.90911 0.48196 0.0
C411 C 0.30166 0.93182 0.46781 0.0
C412 C 0.26394 0.9388 0.46176 0.0
C413 C 0.23194 0.92298 0.46983 0.0
C414 C 0.34641 0.9017 0.48895 0.0
C415 C 0.25742 0.96218 0.44651 0.0
H416 H 0.39085 0.02857 0.45527 0.0
H417 H 0.39882 0.9222 0.42871 0.0
H418 H 0.30094 0.01574 0.47213 0.0
H419 H 0.33172 0.99396 0.48697 0.0
H420 H 0.34705 0.03742 0.47678 0.0
H421 H 0.35679 0.87045 0.43303 0.0
H422 H 0.34049 0.86588 0.45375 0.0
H423 H 0.30881 0.88582 0.43878 0.0
H424 H 0.27792 0.87506 0.50029 0.0
H425 H 0.20309 0.92808 0.46511 0.0
H426 H 0.36156 0.92943 0.49112 0.0
H427 H 0.36408 0.88505 0.48014 0.0
H428 H 0.34517 0.88541 0.50056 0.0
H429 H 0.26996 0.9914 0.44795 0.0
H430 H 0.22622 0.96514 0.44348 0.0
H431 H 0.2724 0.94828 0.43611 0.0
C432 C 0.04078 0.93692 0.71363 0.0
C433 C 0.02514 0.92824 0.69831 0.0
C434 C 0.05329 0.90759 0.72414 0.0
C435 C 0.05035 0.86865 0.71918 0.0
C436 C 0.03443 0.85966 0.70377 0.0
C437 C 0.02187 0.88957 0.69355 0.0
C438 C 0.0698 0.91828 0.74053 0.0
C439 C 0.03097 0.81844 0.69803 0.0
C440 C 0.11401 0.79202 0.73858 0.0
C441 C 0.08762 0.77333 0.74884 0.0
C442 C 0.10253 0.82375 0.72913 0.0
C443 C 0.06385 0.83719 0.73008 0.0
C444 C 0.03761 0.81948 0.74097 0.0
C445 C 0.04978 0.78767 0.75018 0.0
C446 C 0.13134 0.84188 0.71765 0.0
C447 C 0.99626 0.83323 0.74246 0.0
H448 H 0.04333 0.96673 0.71743 0.0
H449 H 0.00998 0.88263 0.68171 0.0
H450 H 0.0529 0.90414 0.75032 0.0
H451 H 0.10004 0.90774 0.74152 0.0
H452 H 0.06959 0.94991 0.74265 0.0
H453 H 0.01803 0.8163 0.6857 0.0
H454 H 0.05998 0.80468 0.6978 0.0
H455 H 0.01279 0.8017 0.70661 0.0
H456 H 0.14324 0.78094 0.73745 0.0
H457 H 0.02928 0.77336 0.75812 0.0
H458 H 0.13293 0.87343 0.71976 0.0
H459 H 0.12168 0.83751 0.70492 0.0
H460 H 0.16082 0.82946 0.71902 0.0
H461 H 0.99552 0.86467 0.74493 0.0
H462 H 0.98031 0.8181 0.7523 0.0
H463 H 0.98081 0.82833 0.73083 0.0
C464 C 0.61351 0.47401 0.79202 0.0
C465 C 0.62009 0.49563 0.80617 0.0
C466 C 0.64455 0.45973 0.7827 0.0
C467 C 0.68309 0.46669 0.78781 0.0
C468 C 0.68987 0.48906 0.80193 0.0
C469 C 0.65835 0.50348 0.81085 0.0
C470 C 0.63612 0.43654 0.76759 0.0
C471 C 0.73047 0.49678 0.80793 0.0
C472 C 0.76361 0.39717 0.77617 0.0
C473 C 0.78425 0.4185 0.76457 0.0
C474 C 0.73007 0.4121 0.78349 0.0
C475 C 0.71642 0.44908 0.77895 0.0
C476 C 0.73616 0.47003 0.76671 0.0
C477 C 0.77002 0.45462 0.75975 0.0
C478 C 0.71018 0.38893 0.79659 0.0
C479 C 0.7222 0.50926 0.76134 0.0
H480 H 0.58405 0.46796 0.78826 0.0
H481 H 0.66378 0.52001 0.82179 0.0
H482 H 0.65223 0.44856 0.75709 0.0
H483 H 0.64612 0.40641 0.76929 0.0
H484 H 0.60475 0.43611 0.7646 0.0
H485 H 0.73088 0.51555 0.81887 0.0
H486 H 0.74492 0.46911 0.81097 0.0
H487 H 0.74783 0.51076 0.79824 0.0
H488 H 0.77448 0.36928 0.77999 0.0
H489 H 0.78577 0.4712 0.75076 0.0
H490 H 0.67904 0.38536 0.79368 0.0
H491 H 0.71198 0.40459 0.80833 0.0
H492 H 0.72332 0.35993 0.79817 0.0
H493 H 0.69097 0.50813 0.7582 0.0
H494 H 0.73854 0.5202 0.75067 0.0
H495 H 0.72547 0.53015 0.77145 0.0
C496 C 0.52742 0.09297 0.03709 0.0
C497 C 0.52315 0.09137 0.05404 0.0
C498 C 0.53838 0.12729 0.02932 0.0
C499 C 0.54562 0.16068 0.03873 0.0
C500 C 0.54065 0.15946 0.0558 0.0
C501 C 0.52926 0.12488 0.06324 0.0
C502 C 0.54287 0.12765 0.01107 0.0
C503 C 0.5483 0.19444 0.06626 0.0
C504 C 0.61207 0.23781 0.02155 0.0
C505 C 0.5855 0.26619 0.0168 0.0
C506 C 0.59945 0.2032 0.02862 0.0
C507 C 0.5593 0.1967 0.0308 0.0
C508 C 0.53231 0.22496 0.02571 0.0
C509 C 0.54576 0.25949 0.01887 0.0
C510 C 0.62912 0.17389 0.03403 0.0
C511 C 0.48927 0.21887 0.02765 0.0
H512 H 0.52258 0.06725 0.02989 0.0
H513 H 0.52615 0.12389 0.07634 0.0
H514 H 0.52492 0.15095 0.00572 0.0
H515 H 0.57343 0.13375 0.00782 0.0
H516 H 0.53436 0.09979 0.00544 0.0
H517 H 0.54231 0.18895 0.07932 0.0
H518 H 0.57899 0.20339 0.06496 0.0
H519 H 0.53012 0.21897 0.06217 0.0
H520 H 0.64281 0.24295 0.02001 0.0
H521 H 0.52509 0.28131 0.01515 0.0
H522 H 0.62374 0.14586 0.02795 0.0
H523 H 0.6265 0.16899 0.04731 0.0
H524 H 0.65921 0.18315 0.03131 0.0
H525 H 0.48043 0.19172 0.02156 0.0
H526 H 0.47208 0.24303 0.02249 0.0
H527 H 0.48195 0.21592 0.04071 0.0
C528 C 0.84027 0.02027 0.33527 0.0
C529 C 0.87633 0.0136 0.32792 0.0
C530 C 0.80825 0.03243 0.32608 0.0
C531 C 0.81224 0.03781 0.30911 0.0
C532 C 0.8484 0.03062 0.30158 0.0
C533 C 0.88002 0.0187 0.31107 0.0
C534 C 0.77019 0.03986 0.33457 0.0
C535 C 0.85372 0.03571 0.28349 0.0
C536 C 0.72014 0.03517 0.28391 0.0
C537 C 0.71267 0.07451 0.28145 0.0
C538 C 0.75275 0.02286 0.29266 0.0
C539 C 0.77841 0.05055 0.29924 0.0
C540 C 0.77124 0.09033 0.29668 0.0
C541 C 0.7385 0.10185 0.28774 0.0
C542 C 0.7595 0.98019 0.295 0.0
C543 C 0.79784 0.12072 0.30358 0.0
H544 H 0.83713 0.01658 0.34828 0.0
H545 H 0.90775 0.01361 0.30528 0.0
H546 H 0.76105 0.07017 0.33259 0.0
H547 H 0.74732 0.0211 0.32938 0.0
H548 H 0.7719 0.03449 0.34786 0.0
H549 H 0.88358 0.02857 0.27947 0.0
H550 H 0.83306 0.01704 0.27681 0.0
H551 H 0.84729 0.06595 0.28002 0.0
H552 H 0.70036 0.01386 0.27902 0.0
H553 H 0.73283 0.13228 0.2859 0.0
H554 H 0.75877 0.97306 0.30814 0.0
H555 H 0.78861 0.97212 0.29041 0.0
H556 H 0.73749 0.96235 0.28865 0.0
H557 H 0.79858 0.1184 0.31703 0.0
H558 H 0.78863 0.15038 0.30026 0.0
H559 H 0.82781 0.11606 0.29914 0.0
C560 C 0.9211 0.40488 0.57457 0.0
C561 C 0.93257 0.43796 0.56601 0.0
C562 C 0.90493 0.37319 0.56646 0.0
C563 C 0.89987 0.37473 0.5494 0.0
C564 C 0.90813 0.40928 0.54093 0.0
C565 C 0.92449 0.4405 0.54934 0.0
C566 C 0.89636 0.33695 0.57596 0.0
C567 C 0.90258 0.41227 0.52278 0.0
C568 C 0.91607 0.28074 0.52697 0.0
C569 C 0.87815 0.26849 0.52386 0.0
C570 C 0.92333 0.31542 0.53512 0.0
C571 C 0.89186 0.33865 0.54023 0.0
C572 C 0.85344 0.32679 0.53693 0.0
C573 C 0.847 0.29168 0.52881 0.0
C574 C 0.96478 0.32693 0.53846 0.0
C575 C 0.81924 0.35099 0.54209 0.0
H576 H 0.92682 0.40276 0.58749 0.0
H577 H 0.9328 0.46611 0.54265 0.0
H578 H 0.86777 0.32497 0.5725 0.0
H579 H 0.91853 0.31479 0.5731 0.0
H580 H 0.89663 0.34212 0.58929 0.0
H581 H 0.90413 0.44259 0.51848 0.0
H582 H 0.92554 0.39547 0.51653 0.0
H583 H 0.87429 0.3999 0.51911 0.0
H584 H 0.94027 0.26295 0.52318 0.0
H585 H 0.81762 0.28233 0.52638 0.0
H586 H 0.96949 0.32956 0.55175 0.0
H587 H 0.97086 0.35552 0.53299 0.0
H588 H 0.98591 0.30577 0.53353 0.0
H589 H 0.81865 0.35351 0.55553 0.0
H590 H 0.79128 0.33858 0.53796 0.0
H591 H 0.82201 0.38061 0.53714 0.0
C592 C 0.60452 0.07071 0.44557 0.0
C593 C 0.57143 0.09407 0.4465 0.0
C594 C 0.63896 0.08136 0.45343 0.0
C595 C 0.64035 0.11624 0.46237 0.0
C596 C 0.60687 0.13957 0.46359 0.0
C597 C 0.5728 0.12818 0.45567 0.0
C598 C 0.67408 0.05563 0.45193 0.0
C599 C 0.60727 0.17697 0.473 0.0
C600 C 0.72204 0.12808 0.49283 0.0
C601 C 0.74906 0.14926 0.48379 0.0
C602 C 0.6862 0.11763 0.48611 0.0
C603 C 0.67721 0.12883 0.47001 0.0
C604 C 0.70391 0.15125 0.46101 0.0
C605 C 0.73958 0.16112 0.468 0.0
C606 C 0.65845 0.09371 0.49607 0.0
C607 C 0.69518 0.164 0.44385 0.0
H608 H 0.60368 0.04428 0.43855 0.0
H609 H 0.54736 0.1464 0.45647 0.0
H610 H 0.69772 0.07135 0.44566 0.0
H611 H 0.68489 0.04766 0.46418 0.0
H612 H 0.66783 0.02879 0.44505 0.0
H613 H 0.57842 0.19114 0.47325 0.0
H614 H 0.61675 0.17173 0.48569 0.0
H615 H 0.6284 0.19716 0.46746 0.0
H616 H 0.72929 0.11876 0.50503 0.0
H617 H 0.76038 0.17752 0.46097 0.0
H618 H 0.65403 0.06532 0.49014 0.0
H619 H 0.62979 0.10809 0.49671 0.0
H620 H 0.6691 0.08878 0.50864 0.0
H621 H 0.69194 0.13839 0.43588 0.0
H622 H 0.7183 0.18271 0.43877 0.0
H623 H 0.66737 0.18002 0.44349 0.0
C624 C 0.97801 0.15459 0.67783 0.0
C625 C 0.96386 0.117 0.67978 0.0
C626 C 0.96438 0.1849 0.6876 0.0
C627 C 0.93566 0.17746 0.69949 0.0
C628 C 0.92086 0.13971 0.70135 0.0
C629 C 0.93528 0.1099 0.69154 0.0
C630 C 0.9811 0.22479 0.68536 0.0
C631 C 0.88994 0.13078 0.71377 0.0
C632 C 0.93044 0.24765 0.73475 0.0
C633 C 0.90093 0.27272 0.72969 0.0
C634 C 0.94142 0.21601 0.72519 0.0
C635 C 0.9221 0.20901 0.71032 0.0
C636 C 0.891 0.2331 0.70553 0.0
C637 C 0.8809 0.26485 0.71525 0.0
C638 C 0.97485 0.1911 0.73068 0.0
C639 C 0.86935 0.22615 0.68987 0.0
H640 H 7e-05 0.1603 0.66878 0.0
H641 H 0.92398 0.08098 0.69306 0.0
H642 H 0.95767 0.24561 0.68251 0.0
H643 H 0.99495 0.2345 0.69682 0.0
H644 H 0.00297 0.22585 0.67547 0.0
H645 H 0.88044 0.10021 0.71326 0.0
H646 H 0.90098 0.13689 0.72616 0.0
H647 H 0.86438 0.1496 0.71179 0.0
H648 H 0.94613 0.25366 0.74587 0.0
H649 H 0.85809 0.28416 0.71129 0.0
H650 H 0.99908 0.19364 0.72189 0.0
H651 H 0.96606 0.16035 0.73096 0.0
H652 H 0.98562 0.19932 0.74292 0.0
H653 H 0.88898 0.23102 0.6794 0.0
H654 H 0.84386 0.24548 0.68858 0.0
H655 H 0.85937 0.19579 0.68922 0.0
C656 C 0.90095 0.46968 0.96224 0.0
C657 C 0.91956 0.44629 0.95076 0.0
C658 C 0.86589 0.45813 0.96936 0.0
C659 C 0.84863 0.42292 0.96451 0.0
C660 C 0.86771 0.39891 0.95313 0.0
C661 C 0.90322 0.41068 0.94655 0.0
C662 C 0.84683 0.48404 0.98176 0.0
C663 C 0.84978 0.36164 0.94735 0.0
C664 C 0.7673 0.37897 0.98952 0.0
C665 C 0.73461 0.39344 0.98149 0.0
C666 C 0.80474 0.38868 0.98427 0.0
C667 C 0.80937 0.41252 0.97043 0.0
C668 C 0.77634 0.42646 0.9621 0.0
C669 C 0.73936 0.41715 0.96786 0.0
C670 C 0.8393 0.374 0.99365 0.0
C671 C 0.78004 0.45117 0.94706 0.0
H672 H 0.9137 0.49711 0.96559 0.0
H673 H 0.91739 0.39267 0.93757 0.0
H674 H 0.81958 0.49597 0.97669 0.0
H675 H 0.83909 0.46731 0.99278 0.0
H676 H 0.86578 0.50845 0.98538 0.0
H677 H 0.86915 0.34546 0.93899 0.0
H678 H 0.84263 0.3429 0.95784 0.0
H679 H 0.82226 0.3679 0.94089 0.0
H680 H 0.76358 0.36089 0.00015 0.0
H681 H 0.71404 0.42816 0.9616 0.0
H682 H 0.85689 0.39869 0.99801 0.0
H683 H 0.85811 0.35643 0.98561 0.0
H684 H 0.83074 0.3562 0.00427 0.0
H685 H 0.79526 0.4784 0.95006 0.0
H686 H 0.75147 0.45843 0.94166 0.0
H687 H 0.79767 0.43598 0.93777 0.0
C688 C 0.54476 0.37962 0.20248 0.0
C689 C 0.53544 0.37516 0.18599 0.0
C690 C 0.55597 0.34789 0.21199 0.0
C691 C 0.55839 0.31089 0.20478 0.0
C692 C 0.5494 0.30628 0.1881 0.0
C693 C 0.53777 0.33841 0.17894 0.0
C694 C 0.56477 0.35386 0.22978 0.0
C695 C 0.55197 0.26735 0.17994 0.0
C696 C 0.61723 0.2323 0.22567 0.0
C697 C 0.58797 0.21005 0.23282 0.0
C698 C 0.60811 0.26542 0.21658 0.0
C699 C 0.56888 0.27669 0.2148 0.0
C700 C 0.53937 0.25476 0.22232 0.0
C701 C 0.54926 0.22161 0.23114 0.0
C702 C 0.64033 0.2879 0.20861 0.0
C703 C 0.49725 0.26605 0.2209 0.0
H704 H 0.54297 0.40792 0.20803 0.0
H705 H 0.53094 0.33477 0.16617 0.0
H706 H 0.54471 0.33634 0.23729 0.0
H707 H 0.59459 0.34394 0.23254 0.0
H708 H 0.56202 0.38455 0.23349 0.0
H709 H 0.54545 0.26888 0.16673 0.0
H710 H 0.58143 0.25513 0.18153 0.0
H711 H 0.53132 0.24705 0.1857 0.0
H712 H 0.64718 0.22338 0.2269 0.0
H713 H 0.52651 0.20463 0.23671 0.0
H714 H 0.6395 0.31839 0.21266 0.0
H715 H 0.63628 0.28786 0.19523 0.0
H716 H 0.66936 0.27579 0.21142 0.0
H717 H 0.49308 0.2961 0.22519 0.0
H718 H 0.47798 0.24679 0.22802 0.0
H719 H 0.48814 0.26506 0.20797 0.0
C720 C 0.00991 0.9329 0.39842 0.0
C721 C 0.99905 0.90812 0.38572 0.0
C722 C 0.02137 0.91846 0.41355 0.0
C723 C 0.02079 0.87819 0.41632 0.0
C724 C 0.00739 0.85311 0.40393 0.0
C725 C 0.99734 0.86833 0.38864 0.0
C726 C 0.03631 0.94627 0.42624 0.0
C727 C 0.00486 0.81017 0.40666 0.0
C728 C 0.0951 0.84491 0.44711 0.0
C729 C 0.07392 0.84678 0.4616 0.0
C730 C 0.07769 0.85347 0.43215 0.0
C731 C 0.03774 0.86269 0.43162 0.0
C732 C 0.01558 0.86171 0.4461 0.0
C733 C 0.03415 0.85462 0.46101 0.0
C734 C 0.10274 0.85543 0.41712 0.0
C735 C 0.97264 0.86979 0.44595 0.0
H736 H 0.01147 0.96371 0.39629 0.0
H737 H 0.98865 0.84908 0.37892 0.0
H738 H 0.01999 0.94288 0.43774 0.0
H739 H 0.06716 0.93984 0.42889 0.0
H740 H 0.03401 0.97681 0.42228 0.0
H741 H 0.98808 0.79555 0.39693 0.0
H742 H 0.03439 0.79762 0.40691 0.0
H743 H 0.99112 0.80392 0.41856 0.0
H744 H 0.12594 0.83914 0.44757 0.0
H745 H 0.01771 0.85576 0.47223 0.0
H746 H 0.10378 0.88559 0.41263 0.0
H747 H 0.09025 0.8375 0.40728 0.0
H748 H 0.13284 0.84557 0.41946 0.0
H749 H 0.96762 0.90111 0.44424 0.0
H750 H 0.95854 0.86087 0.45749 0.0
H751 H 0.95847 0.85454 0.43569 0.0
C752 C 0.0708 0.55227 0.65272 0.0
C753 C 0.0353 0.54957 0.64452 0.0
C754 C 0.07266 0.56397 0.66895 0.0
C755 C 0.03824 0.57424 0.67719 0.0
C756 C 0.00218 0.57162 0.66906 0.0
C757 C 0.00107 0.559 0.65279 0.0
C758 C 0.11161 0.56501 0.67732 0.0
C759 C 0.96497 0.58249 0.6775 0.0
C760 C 0.05291 0.58044 0.72281 0.0
C761 C 0.066 0.61847 0.72427 0.0
C762 C 0.04077 0.56594 0.70768 0.0
C763 C 0.04123 0.59045 0.69388 0.0
C764 C 0.05119 0.62978 0.69572 0.0
C765 C 0.06402 0.64315 0.71083 0.0
C766 C 0.0306 0.52375 0.70641 0.0
C767 C 0.05084 0.65724 0.68147 0.0
H768 H 0.09741 0.54453 0.64654 0.0
H769 H 0.97352 0.55666 0.64657 0.0
H770 H 0.119 0.59512 0.68064 0.0
H771 H 0.11051 0.54795 0.68872 0.0
H772 H 0.13517 0.55332 0.66955 0.0
H773 H 0.93926 0.57839 0.66957 0.0
H774 H 0.96123 0.56481 0.68862 0.0
H775 H 0.9662 0.61311 0.68137 0.0
H776 H 0.05419 0.56144 0.73326 0.0
H777 H 0.07333 0.67287 0.71205 0.0
H778 H 0.05733 0.50712 0.70377 0.0
H779 H 0.00949 0.5181 0.69655 0.0
H780 H 0.01847 0.51278 0.71802 0.0
H781 H 0.07571 0.65079 0.67337 0.0
H782 H 0.05304 0.68781 0.68541 0.0
H783 H 0.02397 0.65364 0.67424 0.0
C784 C 0.49405 0.58304 0.8796 0.0
C785 C 0.53083 0.56766 0.87637 0.0
C786 C 0.48339 0.59376 0.89542 0.0
C787 C 0.51039 0.58973 0.90826 0.0
C788 C 0.54849 0.57696 0.90485 0.0
C789 C 0.55822 0.56594 0.88893 0.0
C790 C 0.44231 0.60668 0.89859 0.0
C791 C 0.57862 0.57363 0.91807 0.0
C792 C 0.48354 0.63564 0.94868 0.0
C793 C 0.46734 0.60431 0.95702 0.0
C794 C 0.49895 0.63108 0.93299 0.0
C795 C 0.4973 0.59453 0.92537 0.0
C796 C 0.4815 0.56265 0.93391 0.0
C797 C 0.46716 0.56791 0.94969 0.0
C798 C 0.51587 0.66559 0.92438 0.0
C799 C 0.47736 0.52318 0.92635 0.0
H800 H 0.47263 0.58432 0.86999 0.0
H801 H 0.58683 0.55447 0.88647 0.0
H802 H 0.4269 0.58401 0.90557 0.0
H803 H 0.44201 0.63333 0.90604 0.0
H804 H 0.4261 0.61214 0.88716 0.0
H805 H 0.60424 0.55669 0.91408 0.0
H806 H 0.58851 0.60292 0.92153 0.0
H807 H 0.56637 0.56002 0.92912 0.0
H808 H 0.4837 0.66386 0.95435 0.0
H809 H 0.45418 0.54369 0.95599 0.0
H810 H 0.49847 0.67227 0.9134 0.0
H811 H 0.54574 0.65907 0.92026 0.0
H812 H 0.51664 0.69159 0.93227 0.0
H813 H 0.44662 0.51873 0.92289 0.0
H814 H 0.48489 0.50048 0.93534 0.0
H815 H 0.49538 0.51904 0.91537 0.0
C816 C 0.41546 0.91655 0.13107 0.0
C817 C 0.42453 0.95433 0.12633 0.0
C818 C 0.40277 0.90843 0.14687 0.0
C819 C 0.39861 0.93889 0.15817 0.0
C820 C 0.40521 0.9774 0.15318 0.0
C821 C 0.41814 0.98469 0.13729 0.0
C822 C 0.39629 0.86695 0.15175 0.0
C823 C 0.40129 0.01057 0.16494 0.0
C824 C 0.34648 0.91316 0.1973 0.0
C825 C 0.37766 0.90494 0.20765 0.0
C826 C 0.35279 0.92588 0.18132 0.0
C827 C 0.39117 0.92986 0.17554 0.0
C828 C 0.42273 0.92261 0.18611 0.0
C829 C 0.41556 0.91042 0.20207 0.0
C830 C 0.31846 0.93391 0.17048 0.0
C831 C 0.46419 0.92549 0.18041 0.0
H832 H 0.42008 0.89292 0.12266 0.0
H833 H 0.4251 0.01397 0.13375 0.0
H834 H 0.41879 0.85815 0.16063 0.0
H835 H 0.36776 0.86364 0.15777 0.0
H836 H 0.39757 0.84701 0.14119 0.0
H837 H 0.40241 0.03895 0.1587 0.0
H838 H 0.37366 0.00846 0.17177 0.0
H839 H 0.42523 0.00931 0.17393 0.0
H840 H 0.3171 0.90916 0.20162 0.0
H841 H 0.43977 0.9039 0.21 0.0
H842 H 0.31758 0.91247 0.16048 0.0
H843 H 0.32127 0.96282 0.16483 0.0
H844 H 0.2906 0.93261 0.17721 0.0
H845 H 0.47209 0.89856 0.17392 0.0
H846 H 0.48451 0.92919 0.19076 0.0
H847 H 0.46822 0.94977 0.17184 0.0
C848 C 0.02164 0.61485 0.88679 0.0
C849 C 0.98432 0.59955 0.88882 0.0
C850 C 0.03401 0.62862 0.87165 0.0
C851 C 0.00821 0.62775 0.8583 0.0
C852 C 0.96935 0.61606 0.86067 0.0
C853 C 0.95787 0.60195 0.87591 0.0
C854 C 0.07572 0.64079 0.86964 0.0
C855 C 0.94081 0.61531 0.84678 0.0
C856 C 0.04217 0.6773 0.81968 0.0
C857 C 0.05694 0.64604 0.81081 0.0
C858 C 0.02491 0.67173 0.83495 0.0
C859 C 0.02329 0.63416 0.84161 0.0
C860 C 0.03779 0.60246 0.83258 0.0
C861 C 0.0541 0.60876 0.81721 0.0
C862 C 0.00895 0.70603 0.84406 0.0
C863 C 0.03749 0.56203 0.83942 0.0
H864 H 0.04222 0.61351 0.89672 0.0
H865 H 0.92887 0.59055 0.87738 0.0
H866 H 0.0914 0.61873 0.8624 0.0
H867 H 0.07763 0.66843 0.86292 0.0
H868 H 0.0907 0.64412 0.8815 0.0
H869 H 0.91052 0.61213 0.85113 0.0
H870 H 0.94299 0.642 0.83941 0.0
H871 H 0.94755 0.5906 0.83868 0.0
H872 H 0.04409 0.70614 0.81468 0.0
H873 H 0.0657 0.58459 0.81041 0.0
H874 H 0.02583 0.71069 0.85535 0.0
H875 H 0.97853 0.70052 0.84771 0.0
H876 H 0.00995 0.73287 0.8367 0.0
H877 H 0.05809 0.56027 0.84975 0.0
H878 H 0.0459 0.54011 0.83022 0.0
H879 H 0.00841 0.55469 0.8442 0.0
C880 C 0.44092 0.49136 0.11724 0.0
C881 C 0.44429 0.52377 0.12736 0.0
C882 C 0.43113 0.49546 0.10074 0.0
C883 C 0.42466 0.53277 0.09429 0.0
C884 C 0.42555 0.56521 0.10471 0.0
C885 C 0.43507 0.56027 0.12112 0.0
C886 C 0.43004 0.46025 0.08998 0.0
C887 C 0.41907 0.60554 0.09832 0.0
C888 C 0.4502 0.55743 0.05072 0.0
C889 C 0.41351 0.56273 0.04387 0.0
C890 C 0.45428 0.54579 0.06695 0.0
C891 C 0.42079 0.53874 0.07646 0.0
C892 C 0.3837 0.5416 0.06926 0.0
C893 C 0.38048 0.55396 0.05307 0.0
C894 C 0.49451 0.54411 0.07406 0.0
C895 C 0.34736 0.53369 0.07888 0.0
H896 H 0.44793 0.46303 0.12196 0.0
H897 H 0.43727 0.58544 0.12887 0.0
H898 H 0.40158 0.45834 0.08379 0.0
H899 H 0.45243 0.46275 0.08038 0.0
H900 H 0.43511 0.43319 0.09688 0.0
H901 H 0.41789 0.62732 0.1082 0.0
H902 H 0.44298 0.61335 0.08993 0.0
H903 H 0.39169 0.607 0.0913 0.0
H904 H 0.47581 0.56435 0.04368 0.0
H905 H 0.35202 0.55776 0.04774 0.0
H906 H 0.4968 0.52281 0.08403 0.0
H907 H 0.50197 0.57285 0.0791 0.0
H908 H 0.51624 0.53687 0.06458 0.0
H909 H 0.35026 0.50645 0.08584 0.0
H910 H 0.32139 0.53171 0.07096 0.0
H911 H 0.34267 0.55725 0.08779 0.0
C912 C 0.42093 0.98974 0.36048 0.0
C913 C 0.45492 0.98573 0.36963 0.0
C914 C 0.41782 0.97393 0.3449 0.0
C915 C 0.44938 0.95316 0.33828 0.0
C916 C 0.4844 0.95021 0.34716 0.0
C917 C 0.48685 0.96677 0.36276 0.0
C918 C 0.38024 0.97862 0.33569 0.0
C919 C 0.5188 0.92879 0.34037 0.0
C920 C 0.41437 0.87758 0.30863 0.0
C921 C 0.41773 0.89701 0.29377 0.0
C922 C 0.42717 0.89457 0.32312 0.0
C923 C 0.44377 0.93189 0.32274 0.0
C924 C 0.4495 0.95058 0.30762 0.0
C925 C 0.43644 0.93284 0.2933 0.0
C926 C 0.42049 0.8736 0.33896 0.0
C927 C 0.46798 0.98989 0.3066 0.0
H928 H 0.39645 0.00526 0.36552 0.0
H929 H 0.51339 0.96412 0.3697 0.0
H930 H 0.38588 0.99096 0.32348 0.0
H931 H 0.36653 0.95 0.3339 0.0
H932 H 0.3594 0.99765 0.34214 0.0
H933 H 0.54455 0.93084 0.34842 0.0
H934 H 0.51137 0.89792 0.33872 0.0
H935 H 0.52648 0.94041 0.32824 0.0
H936 H 0.40023 0.84971 0.30905 0.0
H937 H 0.43961 0.9477 0.28179 0.0
H938 H 0.39755 0.88861 0.34598 0.0
H939 H 0.44718 0.8738 0.34646 0.0
H940 H 0.41138 0.84323 0.33704 0.0
H941 H 0.45268 0.01051 0.31464 0.0
H942 H 0.46788 0.0016 0.29404 0.0
H943 H 0.4984 0.98798 0.31079 0.0
C944 C 0.10041 0.94547 0.62159 0.0
C945 C 0.08005 0.97953 0.62499 0.0
C946 C 0.11203 0.93653 0.6057 0.0
C947 C 0.10354 0.96254 0.59293 0.0
C948 C 0.08602 0.99847 0.59649 0.0
C949 C 0.0744 0.00655 0.6125 0.0
C950 C 0.13044 0.89777 0.60242 0.0
C951 C 0.0771 0.02722 0.58324 0.0
C952 C 0.14999 0.9374 0.55242 0.0
C953 C 0.1199 0.91729 0.54475 0.0
C954 C 0.14452 0.95432 0.56777 0.0
C955 C 0.10854 0.94986 0.57578 0.0
C956 C 0.0778 0.93043 0.56786 0.0
C957 C 0.08369 0.91491 0.55232 0.0
C958 C 0.17762 0.9757 0.57565 0.0
C959 C 0.0393 0.92419 0.57615 0.0
H960 H 0.10519 0.92454 0.63116 0.0
H961 H 0.05888 0.03307 0.615 0.0
H962 H 0.10993 0.87946 0.59547 0.0
H963 H 0.15686 0.90114 0.59491 0.0
H964 H 0.13832 0.88243 0.6138 0.0
H965 H 0.06858 0.05576 0.58823 0.0
H966 H 0.10254 0.03104 0.57517 0.0
H967 H 0.05295 0.01627 0.57565 0.0
H968 H 0.17799 0.93941 0.54652 0.0
H969 H 0.06048 0.89912 0.54645 0.0
H970 H 0.18888 0.95873 0.58605 0.0
H971 H 0.16751 0.00381 0.58051 0.0
H972 H 0.2018 0.98091 0.56702 0.0
H973 H 0.04346 0.90654 0.58726 0.0
H974 H 0.01817 0.90928 0.56816 0.0
H975 H 0.02684 0.9522 0.58003 0.0
C976 C 0.57163 0.40808 0.87518 0.0
C977 C 0.53557 0.42083 0.86943 0.0
C978 C 0.577 0.39847 0.89159 0.0
C979 C 0.54546 0.40122 0.90252 0.0
C980 C 0.50844 0.4118 0.89662 0.0
C981 C 0.50392 0.42148 0.88014 0.0
C982 C 0.61703 0.38771 0.89743 0.0
C983 C 0.47419 0.41516 0.90791 0.0
C984 C 0.56002 0.35498 0.94398 0.0
C985 C 0.57149 0.3867 0.95339 0.0
C986 C 0.54987 0.35948 0.92755 0.0
C987 C 0.55211 0.39642 0.9203 0.0
C988 C 0.56283 0.42866 0.92989 0.0
C989 C 0.57199 0.42343 0.94636 0.0
C990 C 0.53812 0.3245 0.91781 0.0
C991 C 0.56726 0.46843 0.92269 0.0
H992 H 0.59629 0.40744 0.86704 0.0
H993 H 0.47592 0.43126 0.87584 0.0
H994 H 0.62828 0.41079 0.90549 0.0
H995 H 0.61602 0.36075 0.90465 0.0
H996 H 0.6377 0.38368 0.88722 0.0
H997 H 0.44689 0.42161 0.90131 0.0
H998 H 0.47043 0.38802 0.91487 0.0
H999 H 0.47954 0.43852 0.91685 0.0
H1000 H 0.5596 0.3265 0.9494 0.0
H1001 H 0.58141 0.44796 0.95352 0.0
H1002 H 0.5604 0.31837 0.90844 0.0
H1003 H 0.51048 0.33006 0.91136 0.0
H1004 H 0.53464 0.29849 0.92555 0.0
H1005 H 0.5971 0.47158 0.91787 0.0
H1006 H 0.56281 0.491 0.93207 0.0
H1007 H 0.54687 0.47361 0.91253 0.0
C1008 C 0.57425 0.95059 0.14564 0.0
C1009 C 0.57416 0.97886 0.13344 0.0
C1010 C 0.58332 0.96005 0.1618 0.0
C1011 C 0.59218 0.99872 0.16585 0.0
C1012 C 0.59446 0.02685 0.15343 0.0
C1013 C 0.58576 0.01651 0.13736 0.0
C1014 C 0.58107 0.92922 0.1747 0.0
C1015 C 0.6035 0.06848 0.15725 0.0
C1016 C 0.5655 0.0373 0.20754 0.0
C1017 C 0.60194 0.04141 0.21478 0.0
C1018 C 0.56185 0.02243 0.19176 0.0
C1019 C 0.59543 0.01069 0.18316 0.0
C1020 C 0.6321 0.0129 0.19077 0.0
C1021 C 0.63498 0.02872 0.20644 0.0
C1022 C 0.52224 0.02169 0.184 0.0
C1023 C 0.66842 -0.00011 0.18216 0.0
H1024 H 0.56551 0.92138 0.14273 0.0
H1025 H 0.58587 0.03858 0.12804 0.0
H1026 H 0.60798 0.92903 0.18206 0.0
H1027 H 0.55671 0.9356 0.18307 0.0
H1028 H 0.57663 0.90005 0.16944 0.0
H1029 H 0.6071 0.08616 0.14609 0.0
H1030 H 0.57963 0.081 0.16458 0.0
H1031 H 0.63034 0.0706 0.16459 0.0
H1032 H 0.53995 0.04747 0.21389 0.0
H1033 H 0.66321 0.03173 0.21206 0.0
H1034 H 0.5182 0.99539 0.17656 0.0
H1035 H 0.51932 0.04688 0.17577 0.0
H1036 H 0.49872 0.02315 0.19319 0.0
H1037 H 0.6644 0.97057 0.17703 0.0
H1038 H 0.69396 -0.00042 0.19036 0.0
H1039 H 0.67463 0.01955 0.17185 0.0
C1040 C 0.00442 0.09707 0.38835 0.0
C1041 C 0.97497 0.09829 0.3766 0.0
C1042 C 0.99761 0.10964 0.40433 0.0
C1043 C 0.9604 0.12334 0.40865 0.0
C1044 C 0.93158 0.12749 0.39654 0.0
C1045 C 0.93934 0.11524 0.38062 0.0
C1046 C 0.0294 0.10566 0.4168 0.0
C1047 C 0.89147 0.14192 0.40064 0.0
C1048 C 0.92132 0.10418 0.45094 0.0
C1049 C 0.92169 0.14115 0.45779 0.0
C1050 C 0.93505 0.09782 0.43513 0.0
C1051 C 0.94998 0.12915 0.42602 0.0
C1052 C 0.95225 0.16617 0.43319 0.0
C1053 C 0.93777 0.17181 0.44896 0.0
C1054 C 0.93202 0.05788 0.42791 0.0
C1055 C 0.96876 0.20005 0.424 0.0
H1056 H 0.03218 0.08436 0.38532 0.0
H1057 H 0.91644 0.11653 0.37163 0.0
H1058 H 0.0307 0.13154 0.42471 0.0
H1059 H 0.02331 0.08047 0.42469 0.0
H1060 H 0.05817 0.10133 0.41104 0.0
H1061 H 0.87357 0.14682 0.38961 0.0
H1062 H 0.87657 0.12045 0.40843 0.0
H1063 H 0.89311 0.16925 0.4076 0.0
H1064 H 0.90893 0.0804 0.45772 0.0
H1065 H 0.93836 0.20043 0.45426 0.0
H1066 H 0.96074 0.04813 0.42348 0.0
H1067 H 0.91219 0.05843 0.4173 0.0
H1068 H 0.92101 0.0364 0.43679 0.0
H1069 H 0.99716 0.19236 0.41859 0.0
H1070 H 0.97257 0.22575 0.4319 0.0
H1071 H 0.9491 0.20787 0.41386 0.0
C1072 C 0.01044 0.38472 0.63878 0.0
C1073 C 0.03706 0.41148 0.63257 0.0
C1074 C 0.00131 0.38392 0.65539 0.0
C1075 C 0.01952 0.41025 0.66608 0.0
C1076 C 0.0493 0.43447 0.66019 0.0
C1077 C 0.05772 0.43489 0.64349 0.0
C1078 C 0.97009 0.35681 0.66126 0.0
C1079 C 0.07011 0.46209 0.67131 0.0
C1080 C 0.95362 0.43915 0.70086 0.0
C1081 C 0.96627 0.41451 0.71324 0.0
C1082 C 0.97258 0.44001 0.68577 0.0
C1083 C 0.00435 0.41497 0.68291 0.0
C1084 C 0.01873 0.39188 0.69573 0.0
C1085 C 0.99966 0.39215 0.71079 0.0
C1086 C 0.95712 0.46605 0.67257 0.0
C1087 C 0.05247 0.36482 0.69324 0.0
H1088 H 0.99477 0.36603 0.63053 0.0
H1089 H 0.07877 0.45533 0.6389 0.0
H1090 H 0.97996 0.34092 0.6722 0.0
H1091 H 0.94406 0.37369 0.66476 0.0
H1092 H 0.96158 0.33557 0.65181 0.0
H1093 H 0.09621 0.47469 0.66549 0.0
H1094 H 0.05006 0.48575 0.6746 0.0
H1095 H 0.07887 0.44761 0.68274 0.0
H1096 H 0.92804 0.45672 0.70275 0.0
H1097 H 0.00957 0.37295 0.72032 0.0
H1098 H 0.94254 0.44835 0.66315 0.0
H1099 H 0.98113 0.48177 0.66657 0.0
H1100 H 0.93602 0.48744 0.67735 0.0
H1101 H 0.04259 0.33921 0.68631 0.0
H1102 H 0.06474 0.35475 0.70498 0.0
H1103 H 0.07578 0.37879 0.68609 0.0
C1104 C 0.42972 0.10608 0.36295 0.0
C1105 C 0.45354 0.11846 0.37575 0.0
C1106 C 0.44278 0.10714 0.3468 0.0
C1107 C 0.48058 0.12074 0.34342 0.0
C1108 C 0.50347 0.13612 0.35613 0.0
C1109 C 0.48954 0.13506 0.37212 0.0
C1110 C 0.41713 0.09091 0.33363 0.0
C1111 C 0.54396 0.15089 0.35307 0.0
C1112 C 0.53756 0.07811 0.30829 0.0
C1113 C 0.5386 0.10923 0.29747 0.0
C1114 C 0.51802 0.08122 0.3232 0.0
C1115 C 0.49787 0.1157 0.32701 0.0
C1116 C 0.49695 0.14627 0.31564 0.0
C1117 C 0.51798 0.14295 0.30113 0.0
C1118 C 0.5205 0.04844 0.33525 0.0
C1119 C 0.47468 0.18286 0.31904 0.0
H1120 H 0.40185 0.09314 0.36558 0.0
H1121 H 0.508 0.14497 0.38192 0.0
H1122 H 0.42096 0.10655 0.32198 0.0
H1123 H 0.42486 0.06027 0.3316 0.0
H1124 H 0.3861 0.09206 0.33716 0.0
H1125 H 0.55685 0.16443 0.36404 0.0
H1126 H 0.56283 0.12662 0.34922 0.0
H1127 H 0.5439 0.17234 0.34308 0.0
H1128 H 0.55368 0.05212 0.30546 0.0
H1129 H 0.51854 0.16688 0.29265 0.0
H1130 H 0.49101 0.03828 0.3384 0.0
H1131 H 0.53421 0.05862 0.34667 0.0
H1132 H 0.53759 0.02372 0.33053 0.0
H1133 H 0.44455 0.17588 0.3227 0.0
H1134 H 0.47379 0.20231 0.30832 0.0
H1135 H 0.48827 0.19858 0.3293 0.0
C1136 C 0.90426 0.01719 0.611 0.0
C1137 C 0.92939 0.9854 0.61164 0.0
C1138 C 0.893 0.03317 0.59607 0.0
C1139 C 0.9067 0.01663 0.58143 0.0
C1140 C 0.92907 0.98245 0.58196 0.0
C1141 C 0.94045 0.9674 0.59707 0.0
C1142 C 0.86886 0.0695 0.59604 0.0
C1143 C 0.94338 0.96324 0.56664 0.0
C1144 C 0.86211 0.05448 0.54232 0.0
C1145 C 0.88881 0.08308 0.53788 0.0
C1146 C 0.86806 0.03166 0.5562 0.0
C1147 C 0.90142 0.03771 0.56585 0.0
C1148 C 0.92917 0.06554 0.56106 0.0
C1149 C 0.92249 0.08792 0.54715 0.0
C1150 C 0.83824 0.00177 0.56077 0.0
C1151 C 0.96539 0.0725 0.57093 0.0
H1152 H 0.89532 0.0312 0.62216 0.0
H1153 H 0.95958 0.94261 0.59742 0.0
H1154 H 0.88693 0.09411 0.59195 0.0
H1155 H 0.84439 0.0668 0.58739 0.0
H1156 H 0.85709 0.07634 0.60827 0.0
H1157 H 0.95029 0.93238 0.56877 0.0
H1158 H 0.92171 0.96516 0.55673 0.0
H1159 H 0.9701 0.97797 0.56246 0.0
H1160 H 0.83608 0.05051 0.53516 0.0
H1161 H 0.9433 0.10986 0.54373 0.0
H1162 H 0.82435 0.00986 0.57244 0.0
H1163 H 0.85235 0.97334 0.5626 0.0
H1164 H 0.81534 0.9987 0.55138 0.0
H1165 H 0.95744 0.08278 0.58326 0.0
H1166 H 0.98479 0.09416 0.56522 0.0
H1167 H 0.98171 0.04516 0.57242 0.0
C1168 C 0.00403 0.44433 0.87064 0.0
C1169 C 0.97105 0.44804 0.88049 0.0
C1170 C 0.00072 0.43407 0.85419 0.0
C1171 C 0.96358 0.42753 0.84747 0.0
C1172 C 0.93034 0.43007 0.85747 0.0
C1173 C 0.9345 0.44015 0.87386 0.0
C1174 C 0.0368 0.43152 0.84389 0.0
C1175 C 0.8902 0.42342 0.85073 0.0
C1176 C 0.94412 0.44201 0.80255 0.0
C1177 C 0.9407 0.40386 0.79714 0.0
C1178 C 0.95307 0.45016 0.81881 0.0
C1179 C 0.95898 0.41939 0.82985 0.0
C1180 C 0.95741 0.38085 0.82426 0.0
C1181 C 0.9481 0.37353 0.80796 0.0
C1182 C 0.95439 0.49165 0.82434 0.0
C1183 C 0.96401 0.34733 0.83564 0.0
H1184 H 0.03238 0.45047 0.87565 0.0
H1185 H 0.90886 0.44292 0.88137 0.0
H1186 H 0.03742 0.40387 0.83711 0.0
H1187 H 0.03674 0.4551 0.83478 0.0
H1188 H 0.06364 0.43384 0.85126 0.0
H1189 H 0.86747 0.42531 0.86024 0.0
H1190 H 0.88382 0.44516 0.84121 0.0
H1191 H 0.88851 0.3946 0.84492 0.0
H1192 H 0.93842 0.46554 0.79421 0.0
H1193 H 0.94572 0.34397 0.8038 0.0
H1194 H 0.98101 0.49703 0.83149 0.0
H1195 H 0.92934 0.49765 0.8324 0.0
H1196 H 0.95353 0.51219 0.81399 0.0
H1197 H 0.99137 0.35133 0.8425 0.0
H1198 H 0.96533 0.31934 0.82909 0.0
H1199 H 0.94016 0.34597 0.84465 0.0
C1200 C 0.59633 0.50355 0.11635 0.0
C1201 C 0.59951 0.4713 0.12658 0.0
C1202 C 0.60197 0.50015 0.09948 0.0
C1203 C 0.61103 0.46367 0.09272 0.0
C1204 C 0.61654 0.4316 0.10311 0.0
C1205 C 0.611 0.43588 0.11989 0.0
C1206 C 0.59706 0.53532 0.08888 0.0
C1207 C 0.62607 0.39215 0.09641 0.0
C1208 C 0.57951 0.43582 0.05011 0.0
C1209 C 0.61502 0.43481 0.04192 0.0
C1210 C 0.57752 0.44692 0.0665 0.0
C1211 C 0.6118 0.4579 0.07478 0.0
C1212 C 0.64726 0.45956 0.0662 0.0
C1213 C 0.64853 0.44758 0.04991 0.0
C1214 C 0.5391 0.4439 0.07514 0.0
C1215 C 0.68422 0.47195 0.07447 0.0
H1216 H 0.58781 0.53114 0.12141 0.0
H1217 H 0.61372 0.4108 0.12766 0.0
H1218 H 0.62589 0.54488 0.08452 0.0
H1219 H 0.57936 0.52854 0.07802 0.0
H1220 H 0.58328 0.55962 0.09552 0.0
H1221 H 0.63179 0.37076 0.10617 0.0
H1222 H 0.60153 0.38163 0.08892 0.0
H1223 H 0.65185 0.39367 0.0884 0.0
H1224 H 0.5536 0.42571 0.04402 0.0
H1225 H 0.67603 0.44705 0.04356 0.0
H1226 H 0.53585 0.4664 0.0846 0.0
H1227 H 0.5373 0.41542 0.08124 0.0
H1228 H 0.51454 0.44619 0.06648 0.0
H1229 H 0.67965 0.49938 0.08114 0.0
H1230 H 0.70834 0.47589 0.0657 0.0
H1231 H 0.69296 0.44987 0.08351 0.0
loop_
_geom_bond_atom_site_label_1
_geom_bond_atom_site_label_2
_geom_bond_distance
_geom_bond_site_symmetry_2
_ccdc_geom_bond_type
Mg0 O7 2.141 1_545 S
Mg0 O8 2.048 1_545 S
Mg0 O9 2.048 1_455 S
Mg0 O12 2.141 1_455 S
C1 O2 1.313 . S
C1 O8 1.195 . S
O2 C1 1.313 . S
C3 O4 1.245 . S
C3 O12 1.289 . S
O4 C3 1.245 . S
C5 O6 1.245 . S
C5 O7 1.289 . S
O6 C5 1.245 . S
O7 Mg0 2.141 1_565 S
O7 C5 1.289 . S
O8 Mg0 2.048 1_565 S
O8 C1 1.195 . S
O9 Mg0 2.048 1_655 S
O9 C10 1.195 . S
C10 O9 1.195 . S
C10 O11 1.313 1_545 S
O11 C10 1.313 1_565 S
O12 Mg0 2.141 1_655 S
O12 C3 1.289 . S
Mg13 O20 2.141 1_655 S
Mg13 O21 2.048 1_655 S
Mg13 O22 2.048 . S
Mg13 O25 2.141 . S
C14 O15 1.313 . S
C14 O21 1.195 . S
O15 C14 1.313 . S
C16 O17 1.245 . S
C16 O25 1.289 . S
O17 C16 1.245 . S
C18 O19 1.245 . S
C18 O20 1.289 . S
O19 C18 1.245 . S
O20 Mg13 2.141 1_455 S
O20 C18 1.289 . S
O21 Mg13 2.048 1_455 S
O21 C14 1.195 . S
O22 Mg13 2.048 . S
O22 C23 1.195 . S
C23 O22 1.195 . S
C23 O24 1.313 1_655 S
O24 C23 1.313 1_455 S
O25 Mg13 2.141 . S
O25 C16 1.289 . S
Mg26 O33 2.141 . S
Mg26 O34 2.048 . S
Mg26 O35 2.048 . S
Mg26 O38 2.141 . S
C27 O28 1.313 . S
C27 O34 1.195 . S
O28 C27 1.313 . S
C29 O30 1.245 . S
C29 O38 1.289 . S
O30 C29 1.245 . S
C31 O32 1.245 . S
C31 O33 1.289 . S
O32 C31 1.245 . S
O33 Mg26 2.141 . S
O33 C31 1.289 . S
O34 Mg26 2.048 . S
O34 C27 1.195 . S
O35 Mg26 2.048 . S
O35 C36 1.195 . S
C36 O35 1.195 . S
C36 O37 1.313 . S
O37 C36 1.313 . S
O38 Mg26 2.141 . S
O38 C29 1.289 . S
Mg39 O46 2.141 . S
Mg39 O47 2.048 . S
Mg39 O48 2.048 1_545 S
Mg39 O51 2.141 1_545 S
C40 O41 1.313 . S
C40 O47 1.195 . S
O41 C40 1.313 . S
C42 O43 1.245 . S
C42 O51 1.289 . S
O43 C42 1.245 . S
C44 O45 1.245 . S
C44 O46 1.289 . S
O45 C44 1.245 . S
O46 Mg39 2.141 . S
O46 C44 1.289 . S
O47 Mg39 2.048 . S
O47 C40 1.195 . S
O48 Mg39 2.048 1_565 S
O48 C49 1.195 . S
C49 O48 1.195 . S
C49 O50 1.313 . S
O50 C49 1.313 . S
O51 Mg39 2.141 1_565 S
O51 C42 1.289 . S
Mg52 O59 2.141 . S
Mg52 O60 2.048 . S
Mg52 O61 2.048 1_455 S
Mg52 O64 2.141 1_455 S
C53 O54 1.313 . S
C53 O60 1.195 . S
O54 C53 1.313 . S
C55 O56 1.245 . S
C55 O64 1.289 . S
O56 C55 1.245 . S
C57 O58 1.245 . S
C57 O59 1.289 . S
O58 C57 1.245 . S
O59 Mg52 2.141 . S
O59 C57 1.289 . S
O60 Mg52 2.048 . S
O60 C53 1.195 . S
O61 Mg52 2.048 1_655 S
O61 C62 1.195 . S
C62 O61 1.195 . S
C62 O63 1.313 . S
O63 C62 1.313 . S
O64 Mg52 2.141 1_655 S
O64 C55 1.289 . S
Mg65 O72 2.141 . S
Mg65 O73 2.048 . S
Mg65 O74 2.048 . S
Mg65 O77 2.141 . S
C66 O67 1.313 . S
C66 O73 1.195 . S
O67 C66 1.313 . S
C68 O69 1.245 . S
C68 O77 1.289 . S
O69 C68 1.245 . S
C70 O71 1.245 . S
C70 O72 1.289 . S
O71 C70 1.245 . S
O72 Mg65 2.141 . S
O72 C70 1.289 . S
O73 Mg65 2.048 . S
O73 C66 1.195 . S
O74 Mg65 2.048 . S
O74 C75 1.195 . S
C75 O74 1.195 . S
C75 O76 1.313 . S
O76 C75 1.313 . S
O77 Mg65 2.141 . S
O77 C68 1.289 . S
Mg78 O85 2.141 1_565 S
Mg78 O86 2.048 1_565 S
Mg78 O87 2.048 . S
Mg78 O90 2.141 . S
C79 O80 1.313 . S
C79 O86 1.195 . S
O80 C79 1.313 . S
C81 O82 1.245 . S
C81 O90 1.289 . S
O82 C81 1.245 . S
C83 O84 1.245 . S
C83 O85 1.289 . S
O84 C83 1.245 . S
O85 Mg78 2.141 1_545 S
O85 C83 1.289 . S
O86 Mg78 2.048 1_545 S
O86 C79 1.195 . S
O87 Mg78 2.048 . S
O87 C88 1.195 . S
C88 O87 1.195 . S
C88 O89 1.313 1_565 S
O89 C88 1.313 1_545 S
O90 Mg78 2.141 . S
O90 C81 1.289 . S
Mg91 O98 2.141 1_655 S
Mg91 O99 2.048 1_655 S
Mg91 O100 2.048 1_565 S
Mg91 O103 2.141 1_565 S
C92 O93 1.313 . S
C92 O99 1.195 . S
O93 C92 1.313 . S
C94 O95 1.245 . S
C94 O103 1.289 . S
O95 C94 1.245 . S
C96 O97 1.245 . S
C96 O98 1.289 . S
O97 C96 1.245 . S
O98 Mg91 2.141 1_455 S
O98 C96 1.289 . S
O99 Mg91 2.048 1_455 S
O99 C92 1.195 . S
O100 Mg91 2.048 1_545 S
O100 C101 1.195 . S
C101 O100 1.195 . S
C101 O102 1.313 1_655 S
O102 C101 1.313 1_455 S
O103 Mg91 2.141 1_545 S
O103 C94 1.289 . S
In104 O105 2.294 . S
In104 O106 2.326 . S
In104 O110 2.266 1_554 S
In104 O111 2.326 1_554 S
In104 O112 2.266 1_554 S
In104 O113 2.326 1_554 S
In104 O115 2.294 . S
In104 O116 2.326 . S
O105 In104 2.294 . S
O105 C114 1.240 . S
O106 In104 2.326 . S
O106 C114 1.252 . S
C107 O110 1.252 . S
C107 O111 1.260 . S
C108 O115 1.240 . S
C108 O116 1.252 . S
C109 O112 1.252 . S
C109 O113 1.260 . S
O110 In104 2.266 1_556 S
O110 C107 1.252 . S
O111 In104 2.326 1_556 S
O111 C107 1.260 . S
O112 In104 2.266 1_556 S
O112 C109 1.252 . S
O113 In104 2.326 1_556 S
O113 C109 1.260 . S
C114 O105 1.240 . S
C114 O106 1.252 . S
O115 In104 2.294 . S
O115 C108 1.240 . S
O116 In104 2.326 . S
O116 C108 1.252 . S
In117 O118 2.294 . S
In117 O119 2.326 . S
In117 O123 2.266 . S
In117 O124 2.326 . S
In117 O125 2.266 . S
In117 O126 2.326 . S
In117 O128 2.294 . S
In117 O129 2.326 . S
O118 In117 2.294 . S
O118 C127 1.240 . S
O119 In117 2.326 . S
O119 C127 1.252 . S
C120 O123 1.252 . S
C120 O124 1.260 . S
C121 O128 1.240 . S
C121 O129 1.252 . S
C122 O125 1.252 . S
C122 O126 1.260 . S
O123 In117 2.266 . S
O123 C120 1.252 . S
O124 In117 2.326 . S
O124 C120 1.260 . S
O125 In117 2.266 . S
O125 C122 1.252 . S
O126 In117 2.326 . S
O126 C122 1.260 . S
C127 O118 1.240 . S
C127 O119 1.252 . S
O128 In117 2.294 . S
O128 C121 1.240 . S
O129 In117 2.326 . S
O129 C121 1.252 . S
In130 O131 2.294 . S
In130 O132 2.326 . S
In130 O136 2.266 . S
In130 O137 2.326 . S
In130 O138 2.266 . S
In130 O139 2.326 . S
In130 O141 2.294 . S
In130 O142 2.326 . S
O131 In130 2.294 . S
O131 C140 1.240 . S
O132 In130 2.326 . S
O132 C140 1.252 . S
C133 O136 1.252 . S
C133 O137 1.260 . S
C134 O141 1.240 . S
C134 O142 1.252 . S
C135 O138 1.252 . S
C135 O139 1.260 . S
O136 In130 2.266 . S
O136 C133 1.252 . S
O137 In130 2.326 . S
O137 C133 1.260 . S
O138 In130 2.266 . S
O138 C135 1.252 . S
O139 In130 2.326 . S
O139 C135 1.260 . S
C140 O131 1.240 . S
C140 O132 1.252 . S
O141 In130 2.294 . S
O141 C134 1.240 . S
O142 In130 2.326 . S
O142 C134 1.252 . S
In143 O144 2.294 . S
In143 O145 2.326 . S
In143 O149 2.266 . S
In143 O150 2.326 . S
In143 O151 2.266 . S
In143 O152 2.326 . S
In143 O154 2.294 . S
In143 O155 2.326 . S
O144 In143 2.294 . S
O144 C153 1.240 . S
O145 In143 2.326 . S
O145 C153 1.252 . S
C146 O149 1.252 . S
C146 O150 1.260 . S
C147 O154 1.240 . S
C147 O155 1.252 . S
C148 O151 1.252 . S
C148 O152 1.260 . S
O149 In143 2.266 . S
O149 C146 1.252 . S
O150 In143 2.326 . S
O150 C146 1.260 . S
O151 In143 2.266 . S
O151 C148 1.252 . S
O152 In143 2.326 . S
O152 C148 1.260 . S
C153 O144 1.240 . S
C153 O145 1.252 . S
O154 In143 2.294 . S
O154 C147 1.240 . S
O155 In143 2.326 . S
O155 C147 1.252 . S
In156 O157 2.294 . S
In156 O158 2.326 . S
In156 O162 2.266 . S
In156 O163 2.326 . S
In156 O164 2.266 . S
In156 O165 2.326 . S
In156 O167 2.294 . S
In156 O168 2.326 . S
O157 In156 2.294 . S
O157 C166 1.240 . S
O158 In156 2.326 . S
O158 C166 1.252 . S
C159 O162 1.252 . S
C159 O163 1.260 . S
C160 O167 1.240 . S
C160 O168 1.252 . S
C161 O164 1.252 . S
C161 O165 1.260 . S
O162 In156 2.266 . S
O162 C159 1.252 . S
O163 In156 2.326 . S
O163 C159 1.260 . S
O164 In156 2.266 . S
O164 C161 1.252 . S
O165 In156 2.326 . S
O165 C161 1.260 . S
C166 O157 1.240 . S
C166 O158 1.252 . S
O167 In156 2.294 . S
O167 C160 1.240 . S
O168 In156 2.326 . S
O168 C160 1.252 . S
In169 O170 2.294 . S
In169 O171 2.326 . S
In169 O175 2.266 . S
In169 O176 2.326 . S
In169 O177 2.266 . S
In169 O178 2.326 . S
In169 O180 2.294 . S
In169 O181 2.326 . S
O170 In169 2.294 . S
O170 C179 1.240 . S
O171 In169 2.326 . S
O171 C179 1.252 . S
C172 O175 1.252 . S
C172 O176 1.260 . S
C173 O180 1.240 . S
C173 O181 1.252 . S
C174 O177 1.252 . S
C174 O178 1.260 . S
O175 In169 2.266 . S
O175 C172 1.252 . S
O176 In169 2.326 . S
O176 C172 1.260 . S
O177 In169 2.266 . S
O177 C174 1.252 . S
O178 In169 2.326 . S
O178 C174 1.260 . S
C179 O170 1.240 . S
C179 O171 1.252 . S
O180 In169 2.294 . S
O180 C173 1.240 . S
O181 In169 2.326 . S
O181 C173 1.252 . S
In182 O183 2.294 . S
In182 O184 2.326 . S
In182 O188 2.266 1_554 S
In182 O189 2.326 1_554 S
In182 O190 2.266 1_554 S
In182 O191 2.326 1_554 S
In182 O193 2.294 . S
In182 O194 2.326 . S
O183 In182 2.294 . S
O183 C192 1.240 . S
O184 In182 2.326 . S
O184 C192 1.252 . S
C185 O188 1.252 . S
C185 O189 1.260 . S
C186 O193 1.240 . S
C186 O194 1.252 . S
C187 O190 1.252 . S
C187 O191 1.260 . S
O188 In182 2.266 1_556 S
O188 C185 1.252 . S
O189 In182 2.326 1_556 S
O189 C185 1.260 . S
O190 In182 2.266 1_556 S
O190 C187 1.252 . S
O191 In182 2.326 1_556 S
O191 C187 1.260 . S
C192 O183 1.240 . S
C192 O184 1.252 . S
O193 In182 2.294 . S
O193 C186 1.240 . S
O194 In182 2.326 . S
O194 C186 1.252 . S
In195 O196 2.294 . S
In195 O197 2.326 . S
In195 O201 2.266 . S
In195 O202 2.326 . S
In195 O203 2.266 . S
In195 O204 2.326 . S
In195 O206 2.294 . S
In195 O207 2.326 . S
O196 In195 2.294 . S
O196 C205 1.240 . S
O197 In195 2.326 . S
O197 C205 1.252 . S
C198 O201 1.252 . S
C198 O202 1.260 . S
C199 O206 1.240 . S
C199 O207 1.252 . S
C200 O203 1.252 . S
C200 O204 1.260 . S
O201 In195 2.266 . S
O201 C198 1.252 . S
O202 In195 2.326 . S
O202 C198 1.260 . S
O203 In195 2.266 . S
O203 C200 1.252 . S
O204 In195 2.326 . S
O204 C200 1.260 . S
C205 O196 1.240 . S
C205 O197 1.252 . S
O206 In195 2.294 . S
O206 C199 1.240 . S
O207 In195 2.326 . S
O207 C199 1.252 . S
C208 C209 1.391 . S
C208 C210 1.394 . S
C208 H224 0.931 . S
C209 C208 1.391 . S
C209 C213 1.376 . S
C210 C208 1.394 . S
C210 C211 1.369 . S
C210 C214 1.531 . S
C211 C210 1.369 . S
C211 C212 1.410 . S
C211 C219 1.503 . S
C212 C211 1.410 . S
C212 C213 1.392 . S
C212 C215 1.511 . S
C213 C209 1.376 . S
C213 C212 1.392 . S
C213 H225 0.929 . S
C214 C210 1.531 . S
C214 H226 0.960 . S
C214 H227 0.962 . S
C214 H228 0.960 . S
C215 C212 1.511 . S
C215 H229 0.961 . S
C215 H230 0.961 . S
C215 H231 0.961 . S
C216 C217 1.370 . S
C216 C218 1.363 . S
C216 H232 0.931 . S
C217 C216 1.370 . S
C217 C221 1.408 . S
C218 C216 1.363 . S
C218 C219 1.370 . S
C218 C222 1.524 . S
C219 C211 1.503 . S
C219 C218 1.370 . S
C219 C220 1.403 . S
C220 C219 1.403 . S
C220 C221 1.404 . S
C220 C223 1.539 . S
C221 C217 1.408 . S
C221 C220 1.404 . S
C221 H233 0.930 . S
C222 C218 1.524 . S
C222 H234 0.956 . S
C222 H235 0.961 . S
C222 H236 0.961 . S
C223 C220 1.539 . S
C223 H237 0.958 . S
C223 H238 0.961 . S
C223 H239 0.960 . S
H224 C208 0.931 . S
H225 C213 0.929 . S
H226 C214 0.960 . S
H227 C214 0.962 . S
H228 C214 0.960 . S
H229 C215 0.961 . S
H230 C215 0.961 . S
H231 C215 0.961 . S
H232 C216 0.931 . S
H233 C221 0.930 . S
H234 C222 0.956 . S
H235 C222 0.961 . S
H236 C222 0.961 . S
H237 C223 0.958 . S
H238 C223 0.961 . S
H239 C223 0.960 . S
C240 C241 1.391 . S
C240 C242 1.394 . S
C240 H256 0.931 . S
C241 C240 1.391 . S
C241 C245 1.376 . S
C242 C240 1.394 . S
C242 C243 1.369 . S
C242 C246 1.531 . S
C243 C242 1.369 . S
C243 C244 1.410 . S
C243 C251 1.503 . S
C244 C243 1.410 . S
C244 C245 1.392 . S
C244 C247 1.511 . S
C245 C241 1.376 . S
C245 C244 1.392 . S
C245 H257 0.929 . S
C246 C242 1.531 . S
C246 H258 0.960 . S
C246 H259 0.962 . S
C246 H260 0.960 . S
C247 C244 1.511 . S
C247 H261 0.961 . S
C247 H262 0.961 . S
C247 H263 0.961 . S
C248 C249 1.370 . S
C248 C250 1.363 . S
C248 H264 0.931 . S
C249 C248 1.370 . S
C249 C253 1.408 . S
C250 C248 1.363 . S
C250 C251 1.370 . S
C250 C254 1.524 . S
C251 C243 1.503 . S
C251 C250 1.370 . S
C251 C252 1.403 . S
C252 C251 1.403 . S
C252 C253 1.404 . S
C252 C255 1.539 . S
C253 C249 1.408 . S
C253 C252 1.404 . S
C253 H265 0.930 . S
C254 C250 1.524 . S
C254 H266 0.956 . S
C254 H267 0.961 . S
C254 H268 0.961 . S
C255 C252 1.539 . S
C255 H269 0.958 . S
C255 H270 0.961 . S
C255 H271 0.960 . S
H256 C240 0.931 . S
H257 C245 0.929 . S
H258 C246 0.960 . S
H259 C246 0.962 . S
H260 C246 0.960 . S
H261 C247 0.961 . S
H262 C247 0.961 . S
H263 C247 0.961 . S
H264 C248 0.931 . S
H265 C253 0.930 . S
H266 C254 0.956 . S
H267 C254 0.961 . S
H268 C254 0.961 . S
H269 C255 0.958 . S
H270 C255 0.961 . S
H271 C255 0.960 . S
C272 C273 1.391 . S
C272 C274 1.394 . S
C272 H288 0.931 . S
C273 C272 1.391 . S
C273 C277 1.376 . S
C274 C272 1.394 . S
C274 C275 1.369 . S
C274 C278 1.531 . S
C275 C274 1.369 . S
C275 C276 1.410 . S
C275 C283 1.503 . S
C276 C275 1.410 . S
C276 C277 1.392 . S
C276 C279 1.511 . S
C277 C273 1.376 . S
C277 C276 1.392 . S
C277 H289 0.929 . S
C278 C274 1.531 . S
C278 H290 0.960 . S
C278 H291 0.962 . S
C278 H292 0.960 . S
C279 C276 1.511 . S
C279 H293 0.961 . S
C279 H294 0.961 . S
C279 H295 0.961 . S
C280 C281 1.370 . S
C280 C282 1.363 . S
C280 H296 0.931 . S
C281 C280 1.370 . S
C281 C285 1.408 . S
C282 C280 1.363 . S
C282 C283 1.370 . S
C282 C286 1.524 . S
C283 C275 1.503 . S
C283 C282 1.370 . S
C283 C284 1.403 . S
C284 C283 1.403 . S
C284 C285 1.404 . S
C284 C287 1.539 . S
C285 C281 1.408 . S
C285 C284 1.404 . S
C285 H297 0.930 . S
C286 C282 1.524 . S
C286 H298 0.956 . S
C286 H299 0.961 . S
C286 H300 0.961 . S
C287 C284 1.539 . S
C287 H301 0.958 . S
C287 H302 0.961 . S
C287 H303 0.960 . S
H288 C272 0.931 . S
H289 C277 0.929 . S
H290 C278 0.960 . S
H291 C278 0.962 . S
H292 C278 0.960 . S
H293 C279 0.961 . S
H294 C279 0.961 . S
H295 C279 0.961 . S
H296 C280 0.931 . S
H297 C285 0.930 . S
H298 C286 0.956 . S
H299 C286 0.961 . S
H300 C286 0.961 . S
H301 C287 0.958 . S
H302 C287 0.961 . S
H303 C287 0.960 . S
C304 C305 1.391 . S
C304 C306 1.394 . S
C304 H320 0.931 . S
C305 C304 1.391 . S
C305 C309 1.376 . S
C306 C304 1.394 . S
C306 C307 1.369 . S
C306 C310 1.531 . S
C307 C306 1.369 . S
C307 C308 1.410 . S
C307 C315 1.503 . S
C308 C307 1.410 . S
C308 C309 1.392 . S
C308 C311 1.511 . S
C309 C305 1.376 . S
C309 C308 1.392 . S
C309 H321 0.929 . S
C310 C306 1.531 . S
C310 H322 0.960 . S
C310 H323 0.962 . S
C310 H324 0.960 . S
C311 C308 1.511 . S
C311 H325 0.961 . S
C311 H326 0.961 . S
C311 H327 0.961 . S
C312 C313 1.370 . S
C312 C314 1.363 . S
C312 H328 0.931 . S
C313 C312 1.370 . S
C313 C317 1.408 . S
C314 C312 1.363 . S
C314 C315 1.370 . S
C314 C318 1.524 . S
C315 C307 1.503 . S
C315 C314 1.370 . S
C315 C316 1.403 . S
C316 C315 1.403 . S
C316 C317 1.404 . S
C316 C319 1.539 . S
C317 C313 1.408 . S
C317 C316 1.404 . S
C317 H329 0.930 . S
C318 C314 1.524 . S
C318 H330 0.956 . S
C318 H331 0.961 . S
C318 H332 0.961 . S
C319 C316 1.539 . S
C319 H333 0.958 . S
C319 H334 0.961 . S
C319 H335 0.960 . S
H320 C304 0.931 . S
H321 C309 0.929 . S
H322 C310 0.960 . S
H323 C310 0.962 . S
H324 C310 0.960 . S
H325 C311 0.961 . S
H326 C311 0.961 . S
H327 C311 0.961 . S
H328 C312 0.931 . S
H329 C317 0.930 . S
H330 C318 0.956 . S
H331 C318 0.961 . S
H332 C318 0.961 . S
H333 C319 0.958 . S
H334 C319 0.961 . S
H335 C319 0.960 . S
C336 C337 1.391 . S
C336 C338 1.394 . S
C336 H352 0.931 . S
C337 C336 1.391 . S
C337 C341 1.376 . S
C338 C336 1.394 . S
C338 C339 1.369 . S
C338 C342 1.531 . S
C339 C338 1.369 . S
C339 C340 1.410 . S
C339 C347 1.503 . S
C340 C339 1.410 . S
C340 C341 1.392 . S
C340 C343 1.511 . S
C341 C337 1.376 . S
C341 C340 1.392 . S
C341 H353 0.929 . S
C342 C338 1.531 . S
C342 H354 0.960 . S
C342 H355 0.962 . S
C342 H356 0.960 . S
C343 C340 1.511 . S
C343 H357 0.961 . S
C343 H358 0.961 . S
C343 H359 0.961 . S
C344 C345 1.370 . S
C344 C346 1.363 . S
C344 H360 0.931 . S
C345 C344 1.370 . S
C345 C349 1.408 . S
C346 C344 1.363 . S
C346 C347 1.370 . S
C346 C350 1.524 . S
C347 C339 1.503 . S
C347 C346 1.370 . S
C347 C348 1.403 . S
C348 C347 1.403 . S
C348 C349 1.404 . S
C348 C351 1.539 . S
C349 C345 1.408 . S
C349 C348 1.404 . S
C349 H361 0.930 . S
C350 C346 1.524 . S
C350 H362 0.956 . S
C350 H363 0.961 . S
C350 H364 0.961 . S
C351 C348 1.539 . S
C351 H365 0.958 . S
C351 H366 0.961 . S
C351 H367 0.960 . S
H352 C336 0.931 . S
H353 C341 0.929 . S
H354 C342 0.960 . S
H355 C342 0.962 . S
H356 C342 0.960 . S
H357 C343 0.961 . S
H358 C343 0.961 . S
H359 C343 0.961 . S
H360 C344 0.931 . S
H361 C349 0.930 . S
H362 C350 0.956 . S
H363 C350 0.961 . S
H364 C350 0.961 . S
H365 C351 0.958 . S
H366 C351 0.961 . S
H367 C351 0.960 . S
C368 C369 1.391 . S
C368 C370 1.394 . S
C368 H384 0.931 . S
C369 C368 1.391 . S
C369 C373 1.376 . S
C370 C368 1.394 . S
C370 C371 1.369 . S
C370 C374 1.531 . S
C371 C370 1.369 . S
C371 C372 1.410 . S
C371 C379 1.503 . S
C372 C371 1.410 . S
C372 C373 1.392 . S
C372 C375 1.511 . S
C373 C369 1.376 . S
C373 C372 1.392 . S
C373 H385 0.929 . S
C374 C370 1.531 . S
C374 H386 0.960 . S
C374 H387 0.962 . S
C374 H388 0.960 . S
C375 C372 1.511 . S
C375 H389 0.961 . S
C375 H390 0.961 . S
C375 H391 0.961 . S
C376 C377 1.370 . S
C376 C378 1.363 . S
C376 H392 0.931 . S
C377 C376 1.370 . S
C377 C381 1.408 . S
C378 C376 1.363 . S
C378 C379 1.370 . S
C378 C382 1.524 . S
C379 C371 1.503 . S
C379 C378 1.370 . S
C379 C380 1.403 . S
C380 C379 1.403 . S
C380 C381 1.404 . S
C380 C383 1.539 . S
C381 C377 1.408 . S
C381 C380 1.404 . S
C381 H393 0.930 . S
C382 C378 1.524 . S
C382 H394 0.956 . S
C382 H395 0.961 . S
C382 H396 0.961 . S
C383 C380 1.539 . S
C383 H397 0.958 . S
C383 H398 0.961 . S
C383 H399 0.960 . S
H384 C368 0.931 . S
H385 C373 0.929 . S
H386 C374 0.960 . S
H387 C374 0.962 . S
H388 C374 0.960 . S
H389 C375 0.961 . S
H390 C375 0.961 . S
H391 C375 0.961 . S
H392 C376 0.931 . S
H393 C381 0.930 . S
H394 C382 0.956 . S
H395 C382 0.961 . S
H396 C382 0.961 . S
H397 C383 0.958 . S
H398 C383 0.961 . S
H399 C383 0.960 . S
C400 C401 1.391 . S
C400 C402 1.394 . S
C400 H416 0.931 . S
C401 C400 1.391 . S
C401 C405 1.376 . S
C402 C400 1.394 . S
C402 C403 1.369 . S
C402 C406 1.531 . S
C403 C402 1.369 . S
C403 C404 1.410 . S
C403 C411 1.503 . S
C404 C403 1.410 . S
C404 C405 1.392 . S
C404 C407 1.511 . S
C405 C401 1.376 . S
C405 C404 1.392 . S
C405 H417 0.929 . S
C406 C402 1.531 . S
C406 H418 0.960 . S
C406 H419 0.962 . S
C406 H420 0.960 . S
C407 C404 1.511 . S
C407 H421 0.961 . S
C407 H422 0.961 . S
C407 H423 0.961 . S
C408 C409 1.370 . S
C408 C410 1.363 . S
C408 H424 0.931 . S
C409 C408 1.370 . S
C409 C413 1.408 . S
C410 C408 1.363 . S
C410 C411 1.370 . S
C410 C414 1.524 . S
C411 C403 1.503 . S
C411 C410 1.370 . S
C411 C412 1.403 . S
C412 C411 1.403 . S
C412 C413 1.404 . S
C412 C415 1.539 . S
C413 C409 1.408 . S
C413 C412 1.404 . S
C413 H425 0.930 . S
C414 C410 1.524 . S
C414 H426 0.956 . S
C414 H427 0.961 . S
C414 H428 0.961 . S
C415 C412 1.539 . S
C415 H429 0.958 . S
C415 H430 0.961 . S
C415 H431 0.960 . S
H416 C400 0.931 . S
H417 C405 0.929 . S
H418 C406 0.960 . S
H419 C406 0.962 . S
H420 C406 0.960 . S
H421 C407 0.961 . S
H422 C407 0.961 . S
H423 C407 0.961 . S
H424 C408 0.931 . S
H425 C413 0.930 . S
H426 C414 0.956 . S
H427 C414 0.961 . S
H428 C414 0.961 . S
H429 C415 0.958 . S
H430 C415 0.961 . S
H431 C415 0.960 . S
C432 C433 1.391 . S
C432 C434 1.394 . S
C432 H448 0.931 . S
C433 C432 1.391 . S
C433 C437 1.376 . S
C434 C432 1.394 . S
C434 C435 1.369 . S
C434 C438 1.531 . S
C435 C434 1.369 . S
C435 C436 1.410 . S
C435 C443 1.503 . S
C436 C435 1.410 . S
C436 C437 1.392 . S
C436 C439 1.511 . S
C437 C433 1.376 . S
C437 C436 1.392 . S
C437 H449 0.929 . S
C438 C434 1.531 . S
C438 H450 0.960 . S
C438 H451 0.962 . S
C438 H452 0.960 . S
C439 C436 1.511 . S
C439 H453 0.961 . S
C439 H454 0.961 . S
C439 H455 0.961 . S
C440 C441 1.370 . S
C440 C442 1.363 . S
C440 H456 0.931 . S
C441 C440 1.370 . S
C441 C445 1.408 . S
C442 C440 1.363 . S
C442 C443 1.370 . S
C442 C446 1.524 . S
C443 C435 1.503 . S
C443 C442 1.370 . S
C443 C444 1.403 . S
C444 C443 1.403 . S
C444 C445 1.404 . S
C444 C447 1.539 . S
C445 C441 1.408 . S
C445 C444 1.404 . S
C445 H457 0.930 . S
C446 C442 1.524 . S
C446 H458 0.956 . S
C446 H459 0.961 . S
C446 H460 0.961 . S
C447 C444 1.539 . S
C447 H461 0.958 . S
C447 H462 0.961 . S
C447 H463 0.960 . S
H448 C432 0.931 . S
H449 C437 0.929 . S
H450 C438 0.960 . S
H451 C438 0.962 . S
H452 C438 0.960 . S
H453 C439 0.961 . S
H454 C439 0.961 . S
H455 C439 0.961 . S
H456 C440 0.931 . S
H457 C445 0.930 . S
H458 C446 0.956 . S
H459 C446 0.961 . S
H460 C446 0.961 . S
H461 C447 0.958 . S
H462 C447 0.961 . S
H463 C447 0.960 . S
C464 C465 1.391 . S
C464 C466 1.394 . S
C464 H480 0.931 . S
C465 C464 1.391 . S
C465 C469 1.376 . S
C466 C464 1.394 . S
C466 C467 1.369 . S
C466 C470 1.531 . S
C467 C466 1.369 . S
C467 C468 1.410 . S
C467 C475 1.503 . S
C468 C467 1.410 . S
C468 C469 1.392 . S
C468 C471 1.511 . S
C469 C465 1.376 . S
C469 C468 1.392 . S
C469 H481 0.929 . S
C470 C466 1.531 . S
C470 H482 0.960 . S
C470 H483 0.962 . S
C470 H484 0.960 . S
C471 C468 1.511 . S
C471 H485 0.961 . S
C471 H486 0.961 . S
C471 H487 0.961 . S
C472 C473 1.370 . S
C472 C474 1.363 . S
C472 H488 0.931 . S
C473 C472 1.370 . S
C473 C477 1.408 . S
C474 C472 1.363 . S
C474 C475 1.370 . S
C474 C478 1.524 . S
C475 C467 1.503 . S
C475 C474 1.370 . S
C475 C476 1.403 . S
C476 C475 1.403 . S
C476 C477 1.404 . S
C476 C479 1.539 . S
C477 C473 1.408 . S
C477 C476 1.404 . S
C477 H489 0.930 . S
C478 C474 1.524 . S
C478 H490 0.956 . S
C478 H491 0.961 . S
C478 H492 0.961 . S
C479 C476 1.539 . S
C479 H493 0.958 . S
C479 H494 0.961 . S
C479 H495 0.960 . S
H480 C464 0.931 . S
H481 C469 0.929 . S
H482 C470 0.960 . S
H483 C470 0.962 . S
H484 C470 0.960 . S
H485 C471 0.961 . S
H486 C471 0.961 . S
H487 C471 0.961 . S
H488 C472 0.931 . S
H489 C477 0.930 . S
H490 C478 0.956 . S
H491 C478 0.961 . S
H492 C478 0.961 . S
H493 C479 0.958 . S
H494 C479 0.961 . S
H495 C479 0.960 . S
C496 C497 1.391 . S
C496 C498 1.394 . S
C496 H512 0.931 . S
C497 C496 1.391 . S
C497 C501 1.376 . S
C498 C496 1.394 . S
C498 C499 1.369 . S
C498 C502 1.531 . S
C499 C498 1.369 . S
C499 C500 1.410 . S
C499 C507 1.503 . S
C500 C499 1.410 . S
C500 C501 1.392 . S
C500 C503 1.511 . S
C501 C497 1.376 . S
C501 C500 1.392 . S
C501 H513 0.929 . S
C502 C498 1.531 . S
C502 H514 0.960 . S
C502 H515 0.962 . S
C502 H516 0.960 . S
C503 C500 1.511 . S
C503 H517 0.961 . S
C503 H518 0.961 . S
C503 H519 0.961 . S
C504 C505 1.370 . S
C504 C506 1.363 . S
C504 H520 0.931 . S
C505 C504 1.370 . S
C505 C509 1.408 . S
C506 C504 1.363 . S
C506 C507 1.370 . S
C506 C510 1.524 . S
C507 C499 1.503 . S
C507 C506 1.370 . S
C507 C508 1.403 . S
C508 C507 1.403 . S
C508 C509 1.404 . S
C508 C511 1.539 . S
C509 C505 1.408 . S
C509 C508 1.404 . S
C509 H521 0.930 . S
C510 C506 1.524 . S
C510 H522 0.956 . S
C510 H523 0.961 . S
C510 H524 0.961 . S
C511 C508 1.539 . S
C511 H525 0.958 . S
C511 H526 1.013 . S
C511 H527 0.960 . S
H512 C496 0.931 . S
H513 C501 0.929 . S
H514 C502 0.960 . S
H515 C502 0.962 . S
H516 C502 0.960 . S
H517 C503 0.961 . S
H518 C503 0.961 . S
H519 C503 0.961 . S
H520 C504 0.931 . S
H521 C509 0.930 . S
H522 C510 0.956 . S
H523 C510 0.961 . S
H524 C510 0.961 . S
H525 C511 0.958 . S
H526 C511 1.013 . S
H527 C511 0.960 . S
C528 C529 1.391 . S
C528 C530 1.394 . S
C528 H544 0.931 . S
C529 C528 1.391 . S
C529 C533 1.376 . S
C530 C528 1.394 . S
C530 C531 1.369 . S
C530 C534 1.531 . S
C531 C530 1.369 . S
C531 C532 1.410 . S
C531 C539 1.503 . S
C532 C531 1.410 . S
C532 C533 1.392 . S
C532 C535 1.511 . S
C533 C529 1.376 . S
C533 C532 1.392 . S
C533 H545 0.929 . S
C534 C530 1.531 . S
C534 H546 0.960 . S
C534 H547 0.962 . S
C534 H548 0.960 . S
C535 C532 1.511 . S
C535 H549 0.961 . S
C535 H550 0.961 . S
C535 H551 0.961 . S
C536 C537 1.370 . S
C536 C538 1.363 . S
C536 H552 0.931 . S
C537 C536 1.370 . S
C537 C541 1.408 . S
C538 C536 1.363 . S
C538 C539 1.370 . S
C538 C542 1.524 . S
C539 C531 1.503 . S
C539 C538 1.370 . S
C539 C540 1.403 . S
C540 C539 1.403 . S
C540 C541 1.404 . S
C540 C543 1.539 . S
C541 C537 1.408 . S
C541 C540 1.404 . S
C541 H553 0.930 . S
C542 C538 1.524 . S
C542 H554 0.956 . S
C542 H555 0.961 . S
C542 H556 0.961 . S
C543 C540 1.539 . S
C543 H557 0.958 . S
C543 H558 0.961 . S
C543 H559 0.960 . S
H544 C528 0.931 . S
H545 C533 0.929 . S
H546 C534 0.960 . S
H547 C534 0.962 . S
H548 C534 0.960 . S
H549 C535 0.961 . S
H550 C535 0.961 . S
H551 C535 0.961 . S
H552 C536 0.931 . S
H553 C541 0.930 . S
H554 C542 0.956 . S
H555 C542 0.961 . S
H556 C542 0.961 . S
H557 C543 0.958 . S
H558 C543 0.961 . S
H559 C543 0.960 . S
C560 C561 1.391 . S
C560 C562 1.394 . S
C560 H576 0.931 . S
C561 C560 1.391 . S
C561 C565 1.376 . S
C562 C560 1.394 . S
C562 C563 1.369 . S
C562 C566 1.531 . S
C563 C562 1.369 . S
C563 C564 1.410 . S
C563 C571 1.503 . S
C564 C563 1.410 . S
C564 C565 1.392 . S
C564 C567 1.511 . S
C565 C561 1.376 . S
C565 C564 1.392 . S
C565 H577 0.929 . S
C566 C562 1.531 . S
C566 H578 0.960 . S
C566 H579 0.962 . S
C566 H580 0.960 . S
C567 C564 1.511 . S
C567 H581 0.961 . S
C567 H582 0.961 . S
C567 H583 0.961 . S
C568 C569 1.370 . S
C568 C570 1.363 . S
C568 H584 0.931 . S
C569 C568 1.370 . S
C569 C573 1.408 . S
C570 C568 1.363 . S
C570 C571 1.370 . S
C570 C574 1.524 . S
C571 C563 1.503 . S
C571 C570 1.370 . S
C571 C572 1.403 . S
C572 C571 1.403 . S
C572 C573 1.404 . S
C572 C575 1.539 . S
C573 C569 1.408 . S
C573 C572 1.404 . S
C573 H585 0.930 . S
C574 C570 1.524 . S
C574 H586 0.956 . S
C574 H587 0.961 . S
C574 H588 0.961 . S
C575 C572 1.539 . S
C575 H589 0.958 . S
C575 H590 0.961 . S
C575 H591 0.960 . S
H576 C560 0.931 . S
H577 C565 0.929 . S
H578 C566 0.960 . S
H579 C566 0.962 . S
H580 C566 0.960 . S
H581 C567 0.961 . S
H582 C567 0.961 . S
H583 C567 0.961 . S
H584 C568 0.931 . S
H585 C573 0.930 . S
H586 C574 0.956 . S
H587 C574 0.961 . S
H588 C574 0.961 . S
H589 C575 0.958 . S
H590 C575 0.961 . S
H591 C575 0.960 . S
C592 C593 1.391 . S
C592 C594 1.394 . S
C592 H608 0.931 . S
C593 C592 1.391 . S
C593 C597 1.376 . S
C594 C592 1.394 . S
C594 C595 1.369 . S
C594 C598 1.531 . S
C595 C594 1.369 . S
C595 C596 1.410 . S
C595 C603 1.503 . S
C596 C595 1.410 . S
C596 C597 1.392 . S
C596 C599 1.511 . S
C597 C593 1.376 . S
C597 C596 1.392 . S
C597 H609 0.929 . S
C598 C594 1.531 . S
C598 H610 0.960 . S
C598 H611 0.962 . S
C598 H612 0.960 . S
C599 C596 1.511 . S
C599 H613 0.961 . S
C599 H614 0.961 . S
C599 H615 0.961 . S
C600 C601 1.370 . S
C600 C602 1.363 . S
C600 H616 0.931 . S
C601 C600 1.370 . S
C601 C605 1.408 . S
C602 C600 1.363 . S
C602 C603 1.370 . S
C602 C606 1.524 . S
C603 C595 1.503 . S
C603 C602 1.370 . S
C603 C604 1.403 . S
C604 C603 1.403 . S
C604 C605 1.404 . S
C604 C607 1.539 . S
C605 C601 1.408 . S
C605 C604 1.404 . S
C605 H617 0.930 . S
C606 C602 1.524 . S
C606 H618 0.956 . S
C606 H619 0.961 . S
C606 H620 0.961 . S
C607 C604 1.539 . S
C607 H621 0.958 . S
C607 H622 0.961 . S
C607 H623 0.960 . S
H608 C592 0.931 . S
H609 C597 0.929 . S
H610 C598 0.960 . S
H611 C598 0.962 . S
H612 C598 0.960 . S
H613 C599 0.961 . S
H614 C599 0.961 . S
H615 C599 0.961 . S
H616 C600 0.931 . S
H617 C605 0.930 . S
H618 C606 0.956 . S
H619 C606 0.961 . S
H620 C606 0.961 . S
H621 C607 0.958 . S
H622 C607 0.961 . S
H623 C607 0.960 . S
C624 C625 1.391 . S
C624 C626 1.394 . S
C624 H640 0.931 . S
C625 C624 1.391 . S
C625 C629 1.376 . S
C626 C624 1.394 . S
C626 C627 1.369 . S
C626 C630 1.531 . S
C627 C626 1.369 . S
C627 C628 1.410 . S
C627 C635 1.503 . S
C628 C627 1.410 . S
C628 C629 1.392 . S
C628 C631 1.511 . S
C629 C625 1.376 . S
C629 C628 1.392 . S
C629 H641 0.929 . S
C630 C626 1.531 . S
C630 H642 0.960 . S
C630 H643 0.962 . S
C630 H644 0.960 . S
C631 C628 1.511 . S
C631 H645 0.961 . S
C631 H646 0.961 . S
C631 H647 0.961 . S
C632 C633 1.370 . S
C632 C634 1.363 . S
C632 H648 0.931 . S
C633 C632 1.370 . S
C633 C637 1.408 . S
C634 C632 1.363 . S
C634 C635 1.370 . S
C634 C638 1.524 . S
C635 C627 1.503 . S
C635 C634 1.370 . S
C635 C636 1.403 . S
C636 C635 1.403 . S
C636 C637 1.404 . S
C636 C639 1.539 . S
C637 C633 1.408 . S
C637 C636 1.404 . S
C637 H649 0.930 . S
C638 C634 1.524 . S
C638 H650 0.956 . S
C638 H651 0.961 . S
C638 H652 0.961 . S
C639 C636 1.539 . S
C639 H653 0.958 . S
C639 H654 0.961 . S
C639 H655 0.960 . S
H640 C624 0.931 . S
H641 C629 0.929 . S
H642 C630 0.960 . S
H643 C630 0.962 . S
H644 C630 0.960 . S
H645 C631 0.961 . S
H646 C631 0.961 . S
H647 C631 0.961 . S
H648 C632 0.931 . S
H649 C637 0.930 . S
H650 C638 0.956 . S
H651 C638 0.961 . S
H652 C638 0.961 . S
H653 C639 0.958 . S
H654 C639 0.961 . S
H655 C639 0.960 . S
C656 C657 1.391 . S
C656 C658 1.394 . S
C656 H672 0.931 . S
C657 C656 1.391 . S
C657 C661 1.376 . S
C658 C656 1.394 . S
C658 C659 1.369 . S
C658 C662 1.531 . S
C659 C658 1.369 . S
C659 C660 1.410 . S
C659 C667 1.503 . S
C660 C659 1.410 . S
C660 C661 1.392 . S
C660 C663 1.511 . S
C661 C657 1.376 . S
C661 C660 1.392 . S
C661 H673 0.929 . S
C662 C658 1.531 . S
C662 H674 0.960 . S
C662 H675 0.962 . S
C662 H676 0.960 . S
C663 C660 1.511 . S
C663 H677 0.961 . S
C663 H678 0.961 . S
C663 H679 0.961 . S
C664 C665 1.370 . S
C664 C666 1.363 . S
C664 H680 0.931 . S
C665 C664 1.370 . S
C665 C669 1.408 . S
C666 C664 1.363 . S
C666 C667 1.370 . S
C666 C670 1.524 . S
C667 C659 1.503 . S
C667 C666 1.370 . S
C667 C668 1.403 . S
C668 C667 1.403 . S
C668 C669 1.404 . S
C668 C671 1.539 . S
C669 C665 1.408 . S
C669 C668 1.404 . S
C669 H681 0.930 . S
C670 C666 1.524 . S
C670 H682 0.956 . S
C670 H683 0.961 . S
C670 H684 0.961 . S
C671 C668 1.539 . S
C671 H685 0.958 . S
C671 H686 0.961 . S
C671 H687 0.960 . S
H672 C656 0.931 . S
H673 C661 0.929 . S
H674 C662 0.960 . S
H675 C662 0.962 . S
H676 C662 0.960 . S
H677 C663 0.961 . S
H678 C663 0.961 . S
H679 C663 0.961 . S
H680 C664 0.931 . S
H681 C669 0.930 . S
H682 C670 0.956 . S
H683 C670 0.961 . S
H684 C670 0.961 . S
H685 C671 0.958 . S
H686 C671 0.961 . S
H687 C671 0.960 . S
C688 C689 1.391 . S
C688 C690 1.394 . S
C688 H704 0.931 . S
C689 C688 1.391 . S
C689 C693 1.376 . S
C690 C688 1.394 . S
C690 C691 1.369 . S
C690 C694 1.531 . S
C691 C690 1.369 . S
C691 C692 1.410 . S
C691 C699 1.503 . S
C692 C691 1.410 . S
C692 C693 1.392 . S
C692 C695 1.511 . S
C693 C689 1.376 . S
C693 C692 1.392 . S
C693 H705 0.929 . S
C694 C690 1.531 . S
C694 H706 0.960 . S
C694 H707 0.962 . S
C694 H708 0.960 . S
C695 C692 1.511 . S
C695 H709 0.961 . S
C695 H710 0.961 . S
C695 H711 0.961 . S
C696 C697 1.370 . S
C696 C698 1.363 . S
C696 H712 0.931 . S
C697 C696 1.370 . S
C697 C701 1.408 . S
C698 C696 1.363 . S
C698 C699 1.370 . S
C698 C702 1.524 . S
C699 C691 1.503 . S
C699 C698 1.370 . S
C699 C700 1.403 . S
C700 C699 1.403 . S
C700 C701 1.404 . S
C700 C703 1.539 . S
C701 C697 1.408 . S
C701 C700 1.404 . S
C701 H713 0.930 . S
C702 C698 1.524 . S
C702 H714 0.956 . S
C702 H715 0.961 . S
C702 H716 0.961 . S
C703 C700 1.539 . S
C703 H717 0.958 . S
C703 H718 0.961 . S
C703 H719 0.960 . S
H704 C688 0.931 . S
H705 C693 0.929 . S
H706 C694 0.960 . S
H707 C694 0.962 . S
H708 C694 0.960 . S
H709 C695 0.961 . S
H710 C695 0.961 . S
H711 C695 0.961 . S
H712 C696 0.931 . S
H713 C701 0.930 . S
H714 C702 0.956 . S
H715 C702 0.961 . S
H716 C702 0.961 . S
H717 C703 0.958 . S
H718 C703 0.961 . S
H719 C703 0.960 . S
C720 C721 1.391 . S
C720 C722 1.394 . S
C720 H736 0.931 . S
C721 C720 1.391 . S
C721 C725 1.376 . S
C722 C720 1.394 . S
C722 C723 1.369 . S
C722 C726 1.531 . S
C723 C722 1.369 . S
C723 C724 1.410 . S
C723 C731 1.503 . S
C724 C723 1.410 . S
C724 C725 1.392 . S
C724 C727 1.511 . S
C725 C721 1.376 . S
C725 C724 1.392 . S
C725 H737 0.929 . S
C726 C722 1.531 . S
C726 H738 0.960 . S
C726 H739 0.962 . S
C726 H740 0.960 . S
C727 C724 1.511 . S
C727 H741 0.961 . S
C727 H742 0.961 . S
C727 H743 0.961 . S
C728 C729 1.370 . S
C728 C730 1.363 . S
C728 H744 0.931 . S
C729 C728 1.370 . S
C729 C733 1.408 . S
C730 C728 1.363 . S
C730 C731 1.370 . S
C730 C734 1.524 . S
C731 C723 1.503 . S
C731 C730 1.370 . S
C731 C732 1.403 . S
C732 C731 1.403 . S
C732 C733 1.404 . S
C732 C735 1.539 . S
C733 C729 1.408 . S
C733 C732 1.404 . S
C733 H745 0.930 . S
C734 C730 1.524 . S
C734 H746 0.956 . S
C734 H747 0.961 . S
C734 H748 0.961 . S
C735 C732 1.539 . S
C735 H749 0.958 . S
C735 H750 0.961 . S
C735 H751 0.960 . S
H736 C720 0.931 . S
H737 C725 0.929 . S
H738 C726 0.960 . S
H739 C726 0.962 . S
H740 C726 0.960 . S
H741 C727 0.961 . S
H742 C727 0.961 . S
H743 C727 0.961 . S
H744 C728 0.931 . S
H745 C733 0.930 . S
H746 C734 0.956 . S
H747 C734 0.961 . S
H748 C734 0.961 . S
H749 C735 0.958 . S
H750 C735 0.961 . S
H751 C735 0.960 . S
C752 C753 1.391 . S
C752 C754 1.394 . S
C752 H768 0.931 . S
C753 C752 1.391 . S
C753 C757 1.376 . S
C754 C752 1.394 . S
C754 C755 1.369 . S
C754 C758 1.531 . S
C755 C754 1.369 . S
C755 C756 1.410 . S
C755 C763 1.503 . S
C756 C755 1.410 . S
C756 C757 1.392 . S
C756 C759 1.511 . S
C757 C753 1.376 . S
C757 C756 1.392 . S
C757 H769 0.929 . S
C758 C754 1.531 . S
C758 H770 0.960 . S
C758 H771 0.962 . S
C758 H772 0.960 . S
C759 C756 1.511 . S
C759 H773 0.961 . S
C759 H774 0.961 . S
C759 H775 0.961 . S
C760 C761 1.370 . S
C760 C762 1.363 . S
C760 H776 0.931 . S
C761 C760 1.370 . S
C761 C765 1.408 . S
C762 C760 1.363 . S
C762 C763 1.370 . S
C762 C766 1.524 . S
C763 C755 1.503 . S
C763 C762 1.370 . S
C763 C764 1.403 . S
C764 C763 1.403 . S
C764 C765 1.404 . S
C764 C767 1.539 . S
C765 C761 1.408 . S
C765 C764 1.404 . S
C765 H777 0.930 . S
C766 C762 1.524 . S
C766 H778 0.956 . S
C766 H779 0.961 . S
C766 H780 0.961 . S
C767 C764 1.539 . S
C767 H781 0.958 . S
C767 H782 0.961 . S
C767 H783 0.960 . S
H768 C752 0.931 . S
H769 C757 0.929 . S
H770 C758 0.960 . S
H771 C758 0.962 . S
H772 C758 0.960 . S
H773 C759 0.961 . S
H774 C759 0.961 . S
H775 C759 0.961 . S
H776 C760 0.931 . S
H777 C765 0.930 . S
H778 C766 0.956 . S
H779 C766 0.961 . S
H780 C766 0.961 . S
H781 C767 0.958 . S
H782 C767 0.961 . S
H783 C767 0.960 . S
C784 C785 1.391 . S
C784 C786 1.394 . S
C784 H800 0.931 . S
C785 C784 1.391 . S
C785 C789 1.376 . S
C786 C784 1.394 . S
C786 C787 1.369 . S
C786 C790 1.531 . S
C787 C786 1.369 . S
C787 C788 1.410 . S
C787 C795 1.503 . S
C788 C787 1.410 . S
C788 C789 1.392 . S
C788 C791 1.511 . S
C789 C785 1.376 . S
C789 C788 1.392 . S
C789 H801 0.929 . S
C790 C786 1.531 . S
C790 H802 0.960 . S
C790 H803 0.962 . S
C790 H804 0.960 . S
C791 C788 1.511 . S
C791 H805 0.961 . S
C791 H806 0.961 . S
C791 H807 0.961 . S
C792 C793 1.370 . S
C792 C794 1.363 . S
C792 H808 0.931 . S
C793 C792 1.370 . S
C793 C797 1.408 . S
C794 C792 1.363 . S
C794 C795 1.370 . S
C794 C798 1.524 . S
C795 C787 1.503 . S
C795 C794 1.370 . S
C795 C796 1.403 . S
C796 C795 1.403 . S
C796 C797 1.404 . S
C796 C799 1.539 . S
C797 C793 1.408 . S
C797 C796 1.404 . S
C797 H809 0.930 . S
C798 C794 1.524 . S
C798 H810 0.956 . S
C798 H811 0.961 . S
C798 H812 0.961 . S
C799 C796 1.539 . S
C799 H813 0.958 . S
C799 H814 0.961 . S
C799 H815 0.960 . S
H800 C784 0.931 . S
H801 C789 0.929 . S
H802 C790 0.960 . S
H803 C790 0.962 . S
H804 C790 0.960 . S
H805 C791 0.961 . S
H806 C791 0.961 . S
H807 C791 0.961 . S
H808 C792 0.931 . S
H809 C797 0.930 . S
H810 C798 0.956 . S
H811 C798 0.961 . S
H812 C798 0.961 . S
H813 C799 0.958 . S
H814 C799 0.961 . S
H815 C799 0.960 . S
C816 C817 1.391 . S
C816 C818 1.394 . S
C816 H832 0.931 . S
C817 C816 1.391 . S
C817 C821 1.376 . S
C818 C816 1.394 . S
C818 C819 1.369 . S
C818 C822 1.531 . S
C819 C818 1.369 . S
C819 C820 1.410 . S
C819 C827 1.503 . S
C820 C819 1.410 . S
C820 C821 1.392 . S
C820 C823 1.511 . S
C821 C817 1.376 . S
C821 C820 1.392 . S
C821 H833 0.929 . S
C822 C818 1.531 . S
C822 H834 0.960 . S
C822 H835 0.962 . S
C822 H836 0.960 . S
C823 C820 1.511 . S
C823 H837 0.961 . S
C823 H838 0.961 . S
C823 H839 0.961 . S
C824 C825 1.370 . S
C824 C826 1.363 . S
C824 H840 0.931 . S
C825 C824 1.370 . S
C825 C829 1.408 . S
C826 C824 1.363 . S
C826 C827 1.370 . S
C826 C830 1.524 . S
C827 C819 1.503 . S
C827 C826 1.370 . S
C827 C828 1.403 . S
C828 C827 1.403 . S
C828 C829 1.404 . S
C828 C831 1.539 . S
C829 C825 1.408 . S
C829 C828 1.404 . S
C829 H841 0.930 . S
C830 C826 1.524 . S
C830 H842 0.956 . S
C830 H843 0.961 . S
C830 H844 0.961 . S
C831 C828 1.539 . S
C831 H845 0.958 . S
C831 H846 0.961 . S
C831 H847 0.960 . S
H832 C816 0.931 . S
H833 C821 0.929 . S
H834 C822 0.960 . S
H835 C822 0.962 . S
H836 C822 0.960 . S
H837 C823 0.961 . S
H838 C823 0.961 . S
H839 C823 0.961 . S
H840 C824 0.931 . S
H841 C829 0.930 . S
H842 C830 0.956 . S
H843 C830 0.961 . S
H844 C830 0.961 . S
H845 C831 0.958 . S
H846 C831 0.961 . S
H847 C831 0.960 . S
C848 C849 1.391 . S
C848 C850 1.394 . S
C848 H864 0.931 . S
C849 C848 1.391 . S
C849 C853 1.376 . S
C850 C848 1.394 . S
C850 C851 1.369 . S
C850 C854 1.531 . S
C851 C850 1.369 . S
C851 C852 1.410 . S
C851 C859 1.503 . S
C852 C851 1.410 . S
C852 C853 1.392 . S
C852 C855 1.511 . S
C853 C849 1.376 . S
C853 C852 1.392 . S
C853 H865 0.929 . S
C854 C850 1.531 . S
C854 H866 0.960 . S
C854 H867 0.962 . S
C854 H868 0.960 . S
C855 C852 1.511 . S
C855 H869 0.961 . S
C855 H870 0.961 . S
C855 H871 0.961 . S
C856 C857 1.370 . S
C856 C858 1.363 . S
C856 H872 0.931 . S
C857 C856 1.370 . S
C857 C861 1.408 . S
C858 C856 1.363 . S
C858 C859 1.370 . S
C858 C862 1.524 . S
C859 C851 1.503 . S
C859 C858 1.370 . S
C859 C860 1.403 . S
C860 C859 1.403 . S
C860 C861 1.404 . S
C860 C863 1.539 . S
C861 C857 1.408 . S
C861 C860 1.404 . S
C861 H873 0.930 . S
C862 C858 1.524 . S
C862 H874 0.956 . S
C862 H875 0.961 . S
C862 H876 0.961 . S
C863 C860 1.539 . S
C863 H877 0.958 . S
C863 H878 0.961 . S
C863 H879 0.960 . S
H864 C848 0.931 . S
H865 C853 0.929 . S
H866 C854 0.960 . S
H867 C854 0.962 . S
H868 C854 0.960 . S
H869 C855 0.961 . S
H870 C855 0.961 . S
H871 C855 0.961 . S
H872 C856 0.931 . S
H873 C861 0.930 . S
H874 C862 0.956 . S
H875 C862 0.961 . S
H876 C862 0.961 . S
H877 C863 0.958 . S
H878 C863 0.961 . S
H879 C863 0.960 . S
C880 C881 1.391 . S
C880 C882 1.394 . S
C880 H896 0.931 . S
C881 C880 1.391 . S
C881 C885 1.376 . S
C882 C880 1.394 . S
C882 C883 1.369 . S
C882 C886 1.531 . S
C883 C882 1.369 . S
C883 C884 1.410 . S
C883 C891 1.503 . S
C884 C883 1.410 . S
C884 C885 1.392 . S
C884 C887 1.511 . S
C885 C881 1.376 . S
C885 C884 1.392 . S
C885 H897 0.929 . S
C886 C882 1.531 . S
C886 H898 0.960 . S
C886 H899 0.962 . S
C886 H900 0.960 . S
C887 C884 1.511 . S
C887 H901 0.961 . S
C887 H902 0.961 . S
C887 H903 0.961 . S
C888 C889 1.370 . S
C888 C890 1.363 . S
C888 H904 0.931 . S
C889 C888 1.370 . S
C889 C893 1.408 . S
C890 C888 1.363 . S
C890 C891 1.370 . S
C890 C894 1.524 . S
C891 C883 1.503 . S
C891 C890 1.370 . S
C891 C892 1.403 . S
C892 C891 1.403 . S
C892 C893 1.404 . S
C892 C895 1.539 . S
C893 C889 1.408 . S
C893 C892 1.404 . S
C893 H905 0.930 . S
C894 C890 1.524 . S
C894 H906 0.956 . S
C894 H907 0.961 . S
C894 H908 0.961 . S
C895 C892 1.539 . S
C895 H909 0.958 . S
C895 H910 0.961 . S
C895 H911 0.960 . S
H896 C880 0.931 . S
H897 C885 0.929 . S
H898 C886 0.960 . S
H899 C886 0.962 . S
H900 C886 0.960 . S
H901 C887 0.961 . S
H902 C887 0.961 . S
H903 C887 0.961 . S
H904 C888 0.931 . S
H905 C893 0.930 . S
H906 C894 0.956 . S
H907 C894 0.961 . S
H908 C894 0.961 . S
H909 C895 0.958 . S
H910 C895 0.961 . S
H911 C895 0.960 . S
C912 C913 1.391 . S
C912 C914 1.394 . S
C912 H928 0.931 . S
C913 C912 1.391 . S
C913 C917 1.376 . S
C914 C912 1.394 . S
C914 C915 1.369 . S
C914 C918 1.531 . S
C915 C914 1.369 . S
C915 C916 1.410 . S
C915 C923 1.503 . S
C916 C915 1.410 . S
C916 C917 1.392 . S
C916 C919 1.511 . S
C917 C913 1.376 . S
C917 C916 1.392 . S
C917 H929 0.929 . S
C918 C914 1.531 . S
C918 H930 0.960 . S
C918 H931 0.962 . S
C918 H932 0.960 . S
C919 C916 1.511 . S
C919 H933 0.961 . S
C919 H934 0.961 . S
C919 H935 0.961 . S
C920 C921 1.370 . S
C920 C922 1.363 . S
C920 H936 0.931 . S
C921 C920 1.370 . S
C921 C925 1.408 . S
C922 C920 1.363 . S
C922 C923 1.370 . S
C922 C926 1.524 . S
C923 C915 1.503 . S
C923 C922 1.370 . S
C923 C924 1.403 . S
C924 C923 1.403 . S
C924 C925 1.404 . S
C924 C927 1.539 . S
C925 C921 1.408 . S
C925 C924 1.404 . S
C925 H937 0.930 . S
C926 C922 1.524 . S
C926 H938 0.956 . S
C926 H939 0.961 . S
C926 H940 0.961 . S
C927 C924 1.539 . S
C927 H941 0.958 . S
C927 H942 0.961 . S
C927 H943 0.960 . S
H928 C912 0.931 . S
H929 C917 0.929 . S
H930 C918 0.960 . S
H931 C918 0.962 . S
H932 C918 0.960 . S
H933 C919 0.961 . S
H934 C919 0.961 . S
H935 C919 0.961 . S
H936 C920 0.931 . S
H937 C925 0.930 . S
H938 C926 0.956 . S
H939 C926 0.961 . S
H940 C926 0.961 . S
H941 C927 0.958 . S
H942 C927 0.961 . S
H943 C927 0.960 . S
C944 C945 1.391 . S
C944 C946 1.394 . S
C944 H960 0.931 . S
C945 C944 1.391 . S
C945 C949 1.376 . S
C946 C944 1.394 . S
C946 C947 1.369 . S
C946 C950 1.531 . S
C947 C946 1.369 . S
C947 C948 1.410 . S
C947 C955 1.503 . S
C948 C947 1.410 . S
C948 C949 1.392 . S
C948 C951 1.511 . S
C949 C945 1.376 . S
C949 C948 1.392 . S
C949 H961 0.929 . S
C950 C946 1.531 . S
C950 H962 0.960 . S
C950 H963 0.962 . S
C950 H964 0.960 . S
C951 C948 1.511 . S
C951 H965 0.961 . S
C951 H966 0.961 . S
C951 H967 0.961 . S
C952 C953 1.370 . S
C952 C954 1.363 . S
C952 H968 0.931 . S
C953 C952 1.370 . S
C953 C957 1.408 . S
C954 C952 1.363 . S
C954 C955 1.370 . S
C954 C958 1.524 . S
C955 C947 1.503 . S
C955 C954 1.370 . S
C955 C956 1.403 . S
C956 C955 1.403 . S
C956 C957 1.404 . S
C956 C959 1.539 . S
C957 C953 1.408 . S
C957 C956 1.404 . S
C957 H969 0.930 . S
C958 C954 1.524 . S
C958 H970 0.956 . S
C958 H971 0.961 . S
C958 H972 0.961 . S
C959 C956 1.539 . S
C959 H973 0.958 . S
C959 H974 0.961 . S
C959 H975 0.960 . S
H960 C944 0.931 . S
H961 C949 0.929 . S
H962 C950 0.960 . S
H963 C950 0.962 . S
H964 C950 0.960 . S
H965 C951 0.961 . S
H966 C951 0.961 . S
H967 C951 0.961 . S
H968 C952 0.931 . S
H969 C957 0.930 . S
H970 C958 0.956 . S
H971 C958 0.961 . S
H972 C958 0.961 . S
H973 C959 0.958 . S
H974 C959 0.961 . S
H975 C959 0.960 . S
C976 C977 1.391 . S
C976 C978 1.394 . S
C976 H992 0.931 . S
C977 C976 1.391 . S
C977 C981 1.376 . S
C978 C976 1.394 . S
C978 C979 1.369 . S
C978 C982 1.531 . S
C979 C978 1.369 . S
C979 C980 1.410 . S
C979 C987 1.503 . S
C980 C979 1.410 . S
C980 C981 1.392 . S
C980 C983 1.511 . S
C981 C977 1.376 . S
C981 C980 1.392 . S
C981 H993 0.929 . S
C982 C978 1.531 . S
C982 H994 0.960 . S
C982 H995 0.962 . S
C982 H996 0.960 . S
C983 C980 1.511 . S
C983 H997 0.961 . S
C983 H998 0.961 . S
C983 H999 0.961 . S
C984 C985 1.370 . S
C984 C986 1.363 . S
C984 H1000 0.931 . S
C985 C984 1.370 . S
C985 C989 1.408 . S
C986 C984 1.363 . S
C986 C987 1.370 . S
C986 C990 1.524 . S
C987 C979 1.503 . S
C987 C986 1.370 . S
C987 C988 1.403 . S
C988 C987 1.403 . S
C988 C989 1.404 . S
C988 C991 1.539 . S
C989 C985 1.408 . S
C989 C988 1.404 . S
C989 H1001 0.930 . S
C990 C986 1.524 . S
C990 H1002 0.956 . S
C990 H1003 0.961 . S
C990 H1004 0.961 . S
C991 C988 1.539 . S
C991 H1005 0.958 . S
C991 H1006 0.961 . S
C991 H1007 0.960 . S
H992 C976 0.931 . S
H993 C981 0.929 . S
H994 C982 0.960 . S
H995 C982 0.962 . S
H996 C982 0.960 . S
H997 C983 0.961 . S
H998 C983 0.961 . S
H999 C983 0.961 . S
H1000 C984 0.931 . S
H1001 C989 0.930 . S
H1002 C990 0.956 . S
H1003 C990 0.961 . S
H1004 C990 0.961 . S
H1005 C991 0.958 . S
H1006 C991 0.961 . S
H1007 C991 0.960 . S
C1008 C1009 1.391 . S
C1008 C1010 1.394 . S
C1008 H1024 0.931 . S
C1009 C1008 1.391 . S
C1009 C1013 1.376 . S
C1010 C1008 1.394 . S
C1010 C1011 1.369 . S
C1010 C1014 1.531 . S
C1011 C1010 1.369 . S
C1011 C1012 1.410 . S
C1011 C1019 1.503 . S
C1012 C1011 1.410 . S
C1012 C1013 1.392 . S
C1012 C1015 1.511 . S
C1013 C1009 1.376 . S
C1013 C1012 1.392 . S
C1013 H1025 0.929 . S
C1014 C1010 1.531 . S
C1014 H1026 0.960 . S
C1014 H1027 0.962 . S
C1014 H1028 0.960 . S
C1015 C1012 1.511 . S
C1015 H1029 0.961 . S
C1015 H1030 0.961 . S
C1015 H1031 0.961 . S
C1016 C1017 1.370 . S
C1016 C1018 1.363 . S
C1016 H1032 0.931 . S
C1017 C1016 1.370 . S
C1017 C1021 1.408 . S
C1018 C1016 1.363 . S
C1018 C1019 1.370 . S
C1018 C1022 1.524 . S
C1019 C1011 1.503 . S
C1019 C1018 1.370 . S
C1019 C1020 1.403 . S
C1020 C1019 1.403 . S
C1020 C1021 1.404 . S
C1020 C1023 1.539 . S
C1021 C1017 1.408 . S
C1021 C1020 1.404 . S
C1021 H1033 0.930 . S
C1022 C1018 1.524 . S
C1022 H1034 0.956 . S
C1022 H1035 0.961 . S
C1022 H1036 0.961 . S
C1023 C1020 1.539 . S
C1023 H1037 0.958 . S
C1023 H1038 0.961 . S
C1023 H1039 0.960 . S
H1024 C1008 0.931 . S
H1025 C1013 0.929 . S
H1026 C1014 0.960 . S
H1027 C1014 0.962 . S
H1028 C1014 0.960 . S
H1029 C1015 0.961 . S
H1030 C1015 0.961 . S
H1031 C1015 0.961 . S
H1032 C1016 0.931 . S
H1033 C1021 0.930 . S
H1034 C1022 0.956 . S
H1035 C1022 0.961 . S
H1036 C1022 0.961 . S
H1037 C1023 0.958 . S
H1038 C1023 0.961 . S
H1039 C1023 0.960 . S
C1040 C1041 1.391 . S
C1040 C1042 1.394 . S
C1040 H1056 0.931 . S
C1041 C1040 1.391 . S
C1041 C1045 1.376 . S
C1042 C1040 1.394 . S
C1042 C1043 1.369 . S
C1042 C1046 1.531 . S
C1043 C1042 1.369 . S
C1043 C1044 1.410 . S
C1043 C1051 1.503 . S
C1044 C1043 1.410 . S
C1044 C1045 1.392 . S
C1044 C1047 1.511 . S
C1045 C1041 1.376 . S
C1045 C1044 1.392 . S
C1045 H1057 0.929 . S
C1046 C1042 1.531 . S
C1046 H1058 0.960 . S
C1046 H1059 0.962 . S
C1046 H1060 0.960 . S
C1047 C1044 1.511 . S
C1047 H1061 0.961 . S
C1047 H1062 0.961 . S
C1047 H1063 0.961 . S
C1048 C1049 1.370 . S
C1048 C1050 1.363 . S
C1048 H1064 0.931 . S
C1049 C1048 1.370 . S
C1049 C1053 1.408 . S
C1050 C1048 1.363 . S
C1050 C1051 1.370 . S
C1050 C1054 1.524 . S
C1051 C1043 1.503 . S
C1051 C1050 1.370 . S
C1051 C1052 1.403 . S
C1052 C1051 1.403 . S
C1052 C1053 1.404 . S
C1052 C1055 1.539 . S
C1053 C1049 1.408 . S
C1053 C1052 1.404 . S
C1053 H1065 0.930 . S
C1054 C1050 1.524 . S
C1054 H1066 0.956 . S
C1054 H1067 0.961 . S
C1054 H1068 0.961 . S
C1055 C1052 1.539 . S
C1055 H1069 0.958 . S
C1055 H1070 0.961 . S
C1055 H1071 0.960 . S
H1056 C1040 0.931 . S
H1057 C1045 0.929 . S
H1058 C1046 0.960 . S
H1059 C1046 0.962 . S
H1060 C1046 0.960 . S
H1061 C1047 0.961 . S
H1062 C1047 0.961 . S
H1063 C1047 0.961 . S
H1064 C1048 0.931 . S
H1065 C1053 0.930 . S
H1066 C1054 0.956 . S
H1067 C1054 0.961 . S
H1068 C1054 0.961 . S
H1069 C1055 0.958 . S
H1070 C1055 0.961 . S
H1071 C1055 0.960 . S
C1072 C1073 1.391 . S
C1072 C1074 1.394 . S
C1072 H1088 0.931 . S
C1073 C1072 1.391 . S
C1073 C1077 1.376 . S
C1074 C1072 1.394 . S
C1074 C1075 1.369 . S
C1074 C1078 1.531 . S
C1075 C1074 1.369 . S
C1075 C1076 1.410 . S
C1075 C1083 1.503 . S
C1076 C1075 1.410 . S
C1076 C1077 1.392 . S
C1076 C1079 1.511 . S
C1077 C1073 1.376 . S
C1077 C1076 1.392 . S
C1077 H1089 0.929 . S
C1078 C1074 1.531 . S
C1078 H1090 0.960 . S
C1078 H1091 0.962 . S
C1078 H1092 0.960 . S
C1079 C1076 1.511 . S
C1079 H1093 0.961 . S
C1079 H1094 0.961 . S
C1079 H1095 0.961 . S
C1080 C1081 1.370 . S
C1080 C1082 1.363 . S
C1080 H1096 0.931 . S
C1081 C1080 1.370 . S
C1081 C1085 1.408 . S
C1082 C1080 1.363 . S
C1082 C1083 1.370 . S
C1082 C1086 1.524 . S
C1083 C1075 1.503 . S
C1083 C1082 1.370 . S
C1083 C1084 1.403 . S
C1084 C1083 1.403 . S
C1084 C1085 1.404 . S
C1084 C1087 1.539 . S
C1085 C1081 1.408 . S
C1085 C1084 1.404 . S
C1085 H1097 0.930 . S
C1086 C1082 1.524 . S
C1086 H1098 0.956 . S
C1086 H1099 0.961 . S
C1086 H1100 0.961 . S
C1087 C1084 1.539 . S
C1087 H1101 0.958 . S
C1087 H1102 0.961 . S
C1087 H1103 0.960 . S
H1088 C1072 0.931 . S
H1089 C1077 0.929 . S
H1090 C1078 0.960 . S
H1091 C1078 0.962 . S
H1092 C1078 0.960 . S
H1093 C1079 0.961 . S
H1094 C1079 0.961 . S
H1095 C1079 0.961 . S
H1096 C1080 0.931 . S
H1097 C1085 0.930 . S
H1098 C1086 0.956 . S
H1099 C1086 0.961 . S
H1100 C1086 0.961 . S
H1101 C1087 0.958 . S
H1102 C1087 0.961 . S
H1103 C1087 0.960 . S
C1104 C1105 1.391 . S
C1104 C1106 1.394 . S
C1104 H1120 0.931 . S
C1105 C1104 1.391 . S
C1105 C1109 1.376 . S
C1106 C1104 1.394 . S
C1106 C1107 1.369 . S
C1106 C1110 1.531 . S
C1107 C1106 1.369 . S
C1107 C1108 1.410 . S
C1107 C1115 1.503 . S
C1108 C1107 1.410 . S
C1108 C1109 1.392 . S
C1108 C1111 1.511 . S
C1109 C1105 1.376 . S
C1109 C1108 1.392 . S
C1109 H1121 0.929 . S
C1110 C1106 1.531 . S
C1110 H1122 0.960 . S
C1110 H1123 0.962 . S
C1110 H1124 0.960 . S
C1111 C1108 1.511 . S
C1111 H1125 0.961 . S
C1111 H1126 0.961 . S
C1111 H1127 0.961 . S
C1112 C1113 1.370 . S
C1112 C1114 1.363 . S
C1112 H1128 0.931 . S
C1113 C1112 1.370 . S
C1113 C1117 1.408 . S
C1114 C1112 1.363 . S
C1114 C1115 1.370 . S
C1114 C1118 1.524 . S
C1115 C1107 1.503 . S
C1115 C1114 1.370 . S
C1115 C1116 1.403 . S
C1116 C1115 1.403 . S
C1116 C1117 1.404 . S
C1116 C1119 1.539 . S
C1117 C1113 1.408 . S
C1117 C1116 1.404 . S
C1117 H1129 0.930 . S
C1118 C1114 1.524 . S
C1118 H1130 0.956 . S
C1118 H1131 0.961 . S
C1118 H1132 0.961 . S
C1119 C1116 1.539 . S
C1119 H1133 0.958 . S
C1119 H1134 0.961 . S
C1119 H1135 0.960 . S
H1120 C1104 0.931 . S
H1121 C1109 0.929 . S
H1122 C1110 0.960 . S
H1123 C1110 0.962 . S
H1124 C1110 0.960 . S
H1125 C1111 0.961 . S
H1126 C1111 0.961 . S
H1127 C1111 0.961 . S
H1128 C1112 0.931 . S
H1129 C1117 0.930 . S
H1130 C1118 0.956 . S
H1131 C1118 0.961 . S
H1132 C1118 0.961 . S
H1133 C1119 0.958 . S
H1134 C1119 0.961 . S
H1135 C1119 0.960 . S
C1136 C1137 1.391 . S
C1136 C1138 1.394 . S
C1136 H1152 0.931 . S
C1137 C1136 1.391 . S
C1137 C1141 1.376 . S
C1138 C1136 1.394 . S
C1138 C1139 1.369 . S
C1138 C1142 1.531 . S
C1139 C1138 1.369 . S
C1139 C1140 1.410 . S
C1139 C1147 1.503 . S
C1140 C1139 1.410 . S
C1140 C1141 1.392 . S
C1140 C1143 1.511 . S
C1141 C1137 1.376 . S
C1141 C1140 1.392 . S
C1141 H1153 0.929 . S
C1142 C1138 1.531 . S
C1142 H1154 0.960 . S
C1142 H1155 0.962 . S
C1142 H1156 0.960 . S
C1143 C1140 1.511 . S
C1143 H1157 0.961 . S
C1143 H1158 0.961 . S
C1143 H1159 0.961 . S
C1144 C1145 1.370 . S
C1144 C1146 1.363 . S
C1144 H1160 0.931 . S
C1145 C1144 1.370 . S
C1145 C1149 1.408 . S
C1146 C1144 1.363 . S
C1146 C1147 1.370 . S
C1146 C1150 1.524 . S
C1147 C1139 1.503 . S
C1147 C1146 1.370 . S
C1147 C1148 1.403 . S
C1148 C1147 1.403 . S
C1148 C1149 1.404 . S
C1148 C1151 1.539 . S
C1149 C1145 1.408 . S
C1149 C1148 1.404 . S
C1149 H1161 0.930 . S
C1150 C1146 1.524 . S
C1150 H1162 0.956 . S
C1150 H1163 0.961 . S
C1150 H1164 0.961 . S
C1151 C1148 1.539 . S
C1151 H1165 0.958 . S
C1151 H1166 0.961 . S
C1151 H1167 0.960 . S
H1152 C1136 0.931 . S
H1153 C1141 0.929 . S
H1154 C1142 0.960 . S
H1155 C1142 0.962 . S
H1156 C1142 0.960 . S
H1157 C1143 0.961 . S
H1158 C1143 0.961 . S
H1159 C1143 0.961 . S
H1160 C1144 0.931 . S
H1161 C1149 0.930 . S
H1162 C1150 0.956 . S
H1163 C1150 0.961 . S
H1164 C1150 0.961 . S
H1165 C1151 0.958 . S
H1166 C1151 0.961 . S
H1167 C1151 0.960 . S
C1168 C1169 1.391 . S
C1168 C1170 1.394 . S
C1168 H1184 0.931 . S
C1169 C1168 1.391 . S
C1169 C1173 1.376 . S
C1170 C1168 1.394 . S
C1170 C1171 1.369 . S
C1170 C1174 1.531 . S
C1171 C1170 1.369 . S
C1171 C1172 1.410 . S
C1171 C1179 1.503 . S
C1172 C1171 1.410 . S
C1172 C1173 1.392 . S
C1172 C1175 1.511 . S
C1173 C1169 1.376 . S
C1173 C1172 1.392 . S
C1173 H1185 0.929 . S
C1174 C1170 1.531 . S
C1174 H1186 0.960 . S
C1174 H1187 0.962 . S
C1174 H1188 0.960 . S
C1175 C1172 1.511 . S
C1175 H1189 0.961 . S
C1175 H1190 0.961 . S
C1175 H1191 0.961 . S
C1176 C1177 1.370 . S
C1176 C1178 1.363 . S
C1176 H1192 0.931 . S
C1177 C1176 1.370 . S
C1177 C1181 1.408 . S
C1178 C1176 1.363 . S
C1178 C1179 1.370 . S
C1178 C1182 1.524 . S
C1179 C1171 1.503 . S
C1179 C1178 1.370 . S
C1179 C1180 1.403 . S
C1180 C1179 1.403 . S
C1180 C1181 1.404 . S
C1180 C1183 1.539 . S
C1181 C1177 1.408 . S
C1181 C1180 1.404 . S
C1181 H1193 0.930 . S
C1182 C1178 1.524 . S
C1182 H1194 0.956 . S
C1182 H1195 0.961 . S
C1182 H1196 0.961 . S
C1183 C1180 1.539 . S
C1183 H1197 0.958 . S
C1183 H1198 0.961 . S
C1183 H1199 0.960 . S
H1184 C1168 0.931 . S
H1185 C1173 0.929 . S
H1186 C1174 0.960 . S
H1187 C1174 0.962 . S
H1188 C1174 0.960 . S
H1189 C1175 0.961 . S
H1190 C1175 0.961 . S
H1191 C1175 0.961 . S
H1192 C1176 0.931 . S
H1193 C1181 0.930 . S
H1194 C1182 0.956 . S
H1195 C1182 0.961 . S
H1196 C1182 0.961 . S
H1197 C1183 0.958 . S
H1198 C1183 0.961 . S
H1199 C1183 0.960 . S
C1200 C1201 1.391 . S
C1200 C1202 1.394 . S
C1200 H1216 0.931 . S
C1201 C1200 1.391 . S
C1201 C1205 1.376 . S
C1202 C1200 1.394 . S
C1202 C1203 1.369 . S
C1202 C1206 1.531 . S
C1203 C1202 1.369 . S
C1203 C1204 1.410 . S
C1203 C1211 1.503 . S
C1204 C1203 1.410 . S
C1204 C1205 1.392 . S
C1204 C1207 1.511 . S
C1205 C1201 1.376 . S
C1205 C1204 1.392 . S
C1205 H1217 0.929 . S
C1206 C1202 1.531 . S
C1206 H1218 0.960 . S
C1206 H1219 0.962 . S
C1206 H1220 0.960 . S
C1207 C1204 1.511 . S
C1207 H1221 0.961 . S
C1207 H1222 0.961 . S
C1207 H1223 0.961 . S
C1208 C1209 1.370 . S
C1208 C1210 1.363 . S
C1208 H1224 0.931 . S
C1209 C1208 1.370 . S
C1209 C1213 1.408 . S
C1210 C1208 1.363 . S
C1210 C1211 1.370 . S
C1210 C1214 1.524 . S
C1211 C1203 1.503 . S
C1211 C1210 1.370 . S
C1211 C1212 1.403 . S
C1212 C1211 1.403 . S
C1212 C1213 1.404 . S
C1212 C1215 1.539 . S
C1213 C1209 1.408 . S
C1213 C1212 1.404 . S
C1213 H1225 0.930 . S
C1214 C1210 1.524 . S
C1214 H1226 0.956 . S
C1214 H1227 0.961 . S
C1214 H1228 0.961 . S
C1215 C1212 1.539 . S
C1215 H1229 0.958 . S
C1215 H1230 0.961 . S
C1215 H1231 0.960 . S
H1216 C1200 0.931 . S
H1217 C1205 0.929 . S
H1218 C1206 0.960 . S
H1219 C1206 0.962 . S
H1220 C1206 0.960 . S
H1221 C1207 0.961 . S
H1222 C1207 0.961 . S
H1223 C1207 0.961 . S
H1224 C1208 0.931 . S
H1225 C1213 0.930 . S
H1226 C1214 0.956 . S
H1227 C1214 0.961 . S
H1228 C1214 0.961 . S
H1229 C1215 0.958 . S
H1230 C1215 0.961 . S
H1231 C1215 0.960 . S
C217 C120 1.265 . S
C209 C5 1.287 . S
C249 C134 1.273 . S
C241 C18 1.268 . S
C281 C147 1.266 . S
C273 C31 1.289 . S
C305 C42 1.269 . S
C313 C114 1.270 . S
C337 C57 1.296 . S
C345 C107 1.275 . S
C369 C70 1.292 . S
C377 C127 1.269 . S
C409 C135 1.267 . S
C401 C81 1.253 . S
C441 C148 1.273 . S
C433 C96 1.289 . S
C465 C29 1.264 . S
C473 C174 1.270 . S
C505 C192 1.271 . S
C497 C44 1.275 . S
C529 C3 1.271 . S
C537 C199 1.270 . S
C569 C166 1.275 . S
C561 C16 1.282 . S
C593 C83 1.265 . S
C601 C159 1.279 . S
C625 C94 1.260 . S
C633 C173 1.268 . S
C665 C185 1.267 . S
C657 C55 1.254 . S
C689 C68 1.279 . S
C697 C200 1.278 . S
C729 C133 1.537 . S
C721 C1 1.501 . S
C761 C146 1.529 . S
C753 C14 1.549 . S
C785 C27 1.525 . S
C793 C109 1.522 . S
C817 C49 1.533 . S
C825 C121 1.520 . S
C849 C53 1.513 . S
C857 C153 1.509 . S
C889 C108 1.525 . S
C881 C66 1.491 . S
C921 C122 1.534 . S
C913 C88 1.539 . S
C953 C140 1.513 . S
C945 C92 1.541 . S
C985 C187 1.532 . S
C977 C36 1.540 . S
C1017 C198 1.542 . S
C1009 C40 1.526 . S
C1041 C10 1.558 . S
C1049 C161 1.531 . S
C1081 C179 1.511 . S
C1073 C23 1.541 . S
C1113 C205 1.523 . S
C1105 C79 1.516 . S
C1137 C101 1.548 . S
C1145 C160 1.512 . S
C1177 C172 1.530 . S
C1169 C62 1.558 . S
C1209 C186 1.532 . S
C1201 C75 1.551 . S
