# Generated by pormake.
# Topology anh, (6,3)-cn, num edge types: 1
# Building blocks:
#     Node 0, Type 0, BuildingBlock: CUKXOW_clean_sbu_0, # of connection points: 6
#     Node 1, Type 0, BuildingBlock: CUKXOW_clean_sbu_0, # of connection points: 6
#     Node 2, Type 0, BuildingBlock: CUKXOW_clean_sbu_0, # of connection points: 6
#     Node 3, Type 1, BuildingBlock: WUSLED_clean_sbu_0, # of connection points: 3
#     Node 4, Type 1, BuildingBlock: WUSLED_clean_sbu_0, # of connection points: 3
#     Node 5, Type 1, BuildingBlock: WUSLED_clean_sbu_0, # of connection points: 3
#     Node 6, Type 1, BuildingBlock: WUSLED_clean_sbu_0, # of connection points: 3
#     Node 7, Type 1, BuildingBlock: WUSLED_clean_sbu_0, # of connection points: 3
#     Node 8, Type 1, BuildingBlock: WUSLED_clean_sbu_0, # of connection points: 3
#     Edge 9, Type (0, 1), BuildingBlock: TEMPAE_clean_linker_10, # of connection points: 2
#     Edge 10, Type (0, 1), BuildingBlock: TEMPAE_clean_linker_10, # of connection points: 2
#     Edge 11, Type (0, 1), BuildingBlock: TEMPAE_clean_linker_10, # of connection points: 2
#     Edge 12, Type (0, 1), BuildingBlock: TEMPAE_clean_linker_10, # of connection points: 2
#     Edge 13, Type (0, 1), BuildingBlock: TEMPAE_clean_linker_10, # of connection points: 2
#     Edge 14, Type (0, 1), BuildingBlock: TEMPAE_clean_linker_10, # of connection points: 2
#     Edge 15, Type (0, 1), BuildingBlock: TEMPAE_clean_linker_10, # of connection points: 2
#     Edge 16, Type (0, 1), BuildingBlock: TEMPAE_clean_linker_10, # of connection points: 2
#     Edge 17, Type (0, 1), BuildingBlock: TEMPAE_clean_linker_10, # of connection points: 2
#     Edge 18, Type (0, 1), BuildingBlock: TEMPAE_clean_linker_10, # of connection points: 2
#     Edge 19, Type (0, 1), BuildingBlock: TEMPAE_clean_linker_10, # of connection points: 2
#     Edge 20, Type (0, 1), BuildingBlock: TEMPAE_clean_linker_10, # of connection points: 2
#     Edge 21, Type (0, 1), BuildingBlock: TEMPAE_clean_linker_10, # of connection points: 2
#     Edge 22, Type (0, 1), BuildingBlock: TEMPAE_clean_linker_10, # of connection points: 2
#     Edge 23, Type (0, 1), BuildingBlock: TEMPAE_clean_linker_10, # of connection points: 2
#     Edge 24, Type (0, 1), BuildingBlock: TEMPAE_clean_linker_10, # of connection points: 2
#     Edge 25, Type (0, 1), BuildingBlock: TEMPAE_clean_linker_10, # of connection points: 2
#     Edge 26, Type (0, 1), BuildingBlock: TEMPAE_clean_linker_10, # of connection points: 2
# Relax obj value: 0.128
# Max RMSD: 0.190
# Mean RMSD: 0.134
data_MOF--net-anh--node1-CUKXOW_clean_sbu_0--node2-WUSLED_clean_sbu_0--edge1-TEMPAE_clean_linker_10
_symmetry_space_group_name_H-M    P1
_symmetry_Int_Tables_number       1
_symmetry_cell_setting            triclinic
loop_
_symmetry_equiv_pos_as_xyz
'x, y, z'
_cell_length_a     38.192113
_cell_length_b     37.245098
_cell_length_c     68.603801
_cell_angle_alpha  95.216892
_cell_angle_beta   90.291704
_cell_angle_gamma 115.99999
loop_
_atom_site_label
_atom_site_type_symbol
_atom_site_fract_x
_atom_site_fract_y
_atom_site_fract_z
_atom_type_partial_charge
Tb0 Tb 0.07799 0.54068 0.17346 0.0
C1 C 0.04704 0.49933 0.21078 0.0
Tb2 Tb 0.02183 0.44862 0.16927 0.0
O3 O 0.02925 0.55507 0.18213 0.0
O4 O 1.01826 0.50277 0.16489 0.0
O5 O 0.07801 0.52683 0.2034 0.0
C6 C 0.9532 0.38376 0.16956 0.0
O7 O 1.0184 0.4705 0.19955 0.0
C8 C 0.09634 0.46092 0.17138 0.0
C9 C 0.05728 0.49027 0.13169 0.0
O10 O 0.97838 0.40042 0.18427 0.0
O11 O 0.96746 0.40258 0.15429 0.0
O12 O 0.06656 0.42549 0.16968 0.0
O13 O 0.08214 0.48592 0.1724 0.0
O14 O 0.02938 0.45832 0.13853 0.0
O15 O 0.08156 0.52312 0.14276 0.0
C16 C 0.14067 0.61179 0.17428 0.0
O17 O 0.1131 0.59677 0.16054 0.0
O18 O 0.13262 0.5871 0.18757 0.0
C19 C 1.00173 0.52122 0.17423 0.0
Tb20 Tb 0.49713 0.01013 0.51031 0.0
C21 C 0.53617 0.03777 0.47025 0.0
Tb22 Tb 0.5882 0.0713 0.51076 0.0
O23 O 0.48056 0.05907 0.51786 0.0
O24 O 0.53316 0.07049 0.50559 0.0
O25 O 0.50495 0.01245 0.47883 0.0
C26 C 0.65304 0.13956 0.51106 0.0
O27 O 0.56919 0.06439 0.47983 0.0
C28 C 0.57432 0.99497 0.51109 0.0
C29 C 0.54867 0.04118 0.55044 0.0
O30 O 0.64439 0.10759 0.49894 0.0
O31 O 0.62536 0.13291 0.52324 0.0
O32 O 0.60927 0.02394 0.51015 0.0
O33 O 0.55193 0.01135 0.51214 0.0
O34 O 0.57735 0.07035 0.54214 0.0
O35 O 0.51767 0.01251 0.54035 0.0
C36 C 0.43073 0.94353 0.50962 0.0
O37 O 0.43693 0.97821 0.51851 0.0
O38 O 0.46154 0.94652 0.50054 0.0
C39 C 0.51399 0.08723 0.51372 0.0
Tb40 Tb 0.54137 0.53778 0.8421 0.0
C41 C 0.58399 0.54182 0.88231 0.0
Tb42 Tb 0.62985 0.56193 0.84254 0.0
O43 O 0.51947 0.47168 0.83796 0.0
O44 O 0.5777 0.50997 0.83922 0.0
O45 O 0.55174 0.53882 0.87332 0.0
C46 C 0.69756 0.56007 0.84193 0.0
O47 O 0.61696 0.54924 0.87319 0.0
C48 C 0.61119 0.62124 0.84039 0.0
C49 C 0.58541 0.55492 0.80273 0.0
O50 O 0.69103 0.58748 0.85215 0.0
O51 O 0.66601 0.53361 0.83249 0.0
O52 O 0.64323 0.62142 0.83404 0.0
O53 O 0.59373 0.5908 0.84951 0.0
O54 O 0.61545 0.55206 0.81101 0.0
O55 O 0.55667 0.55635 0.81293 0.0
C56 C 0.47497 0.54238 0.84005 0.0
O57 O 0.49064 0.53173 0.82538 0.0
O58 O 0.49633 0.55001 0.85606 0.0
C59 C 0.55421 0.47352 0.83741 0.0
C60 C 0.60612 0.11183 0.19423 0.0
C61 C 0.62415 0.14592 0.20793 0.0
C62 C 0.6785 0.1752 0.18669 0.0
C63 C 0.65995 0.17754 0.20411 0.0
C64 C 0.66008 0.14129 0.17298 0.0
C65 C 0.62421 0.11004 0.17668 0.0
U66 U 0.53382 0.04541 0.22939 0.0
O67 O 0.46951 0.01324 0.22759 0.0
O68 O 0.50444 0.97954 0.22855 0.0
C69 C 0.46939 0.97791 0.22777 0.0
C70 C 0.56954 0.077 0.19817 0.0
C71 C 0.4385 0.9432 0.21605 0.0
C72 C 0.40843 0.90124 0.18555 0.0
C73 C 0.43827 0.93608 0.19555 0.0
C74 C 0.37926 0.88104 0.21642 0.0
C75 C 0.37884 0.87351 0.19603 0.0
C76 C 0.40876 0.91548 0.2263 0.0
C77 C 0.55734 0.07446 0.28504 0.0
C78 C 0.51377 0.05058 0.31171 0.0
C79 C 0.58372 0.08345 0.31838 0.0
C80 C 0.58929 0.08825 0.29851 0.0
C81 C 0.54592 0.06493 0.32533 0.0
C82 C 0.51943 0.05524 0.29172 0.0
C83 C 0.56483 0.08102 0.26427 0.0
O84 O 0.57404 0.04834 0.20604 0.0
O85 O 0.542 0.0849 0.20603 0.0
O86 O 0.54022 0.08951 0.25446 0.0
O87 O 0.57512 0.0558 0.25418 0.0
H88 H 0.61091 0.1478 0.22167 0.0
H89 H 0.67374 0.20319 0.215 0.0
H90 H 0.67365 0.13883 0.15941 0.0
H91 H 0.61084 0.08405 0.16594 0.0
H92 H 0.40847 0.89588 0.16977 0.0
H93 H 0.46108 0.95711 0.18738 0.0
H94 H 0.35674 0.86001 0.22475 0.0
H95 H 0.40853 0.92033 0.24211 0.0
H96 H 0.48425 0.03636 0.31652 0.0
H97 H 0.6092 0.09404 0.32829 0.0
H98 H 0.61876 0.10287 0.29364 0.0
H99 H 0.49428 0.04413 0.28154 0.0
C100 C 0.53242 0.63755 0.53202 0.0
C101 C 0.52972 0.66075 0.54873 0.0
C102 C 0.53351 0.71314 0.52854 0.0
C103 C 0.53021 0.69827 0.54699 0.0
C104 C 0.53645 0.68959 0.51197 0.0
C105 C 0.53579 0.65227 0.51372 0.0
U106 U 0.53927 0.55043 0.55707 0.0
O107 O 0.57126 0.51685 0.54522 0.0
O108 O 0.50715 0.48558 0.54735 0.0
C109 C 0.53891 0.48365 0.54119 0.0
C110 C 0.53245 0.59821 0.53288 0.0
C111 C 0.54011 0.44466 0.5374 0.0
C112 C 0.54244 0.39351 0.51341 0.0
C113 C 0.54085 0.43012 0.51789 0.0
C114 C 0.54221 0.38513 0.548 0.0
C115 C 0.54319 0.37041 0.52838 0.0
C116 C 0.54076 0.42199 0.55247 0.0
C117 C 0.55485 0.56872 0.61543 0.0
C118 C 0.54195 0.52924 0.64327 0.0
C119 C 0.57986 0.60145 0.64823 0.0
C120 C 0.57601 0.6035 0.62817 0.0
C121 C 0.56251 0.56441 0.65615 0.0
C122 C 0.538 0.53138 0.62305 0.0
C123 C 0.5485 0.57399 0.59483 0.0
O124 O 0.56591 0.59889 0.53799 0.0
O125 O 0.50248 0.57038 0.54056 0.0
O126 O 0.51423 0.55135 0.58588 0.0
O127 O 0.57784 0.58288 0.58324 0.0
H128 H 0.52724 0.64989 0.56302 0.0
H129 H 0.52764 0.71541 0.56005 0.0
H130 H 0.53994 0.70023 0.49761 0.0
H131 H 0.53821 0.6349 0.50068 0.0
H132 H 0.54366 0.38367 0.49819 0.0
H133 H 0.54039 0.44729 0.50604 0.0
H134 H 0.54206 0.36794 0.55993 0.0
H135 H 0.54009 0.4327 0.56762 0.0
H136 H 0.52801 0.50021 0.64886 0.0
H137 H 0.59647 0.62906 0.65754 0.0
H138 H 0.58902 0.63266 0.62263 0.0
H139 H 0.52125 0.50413 0.61352 0.0
C140 C 0.0207 0.54372 0.8592 0.0
C141 C 1.00018 0.55272 0.87421 0.0
C142 C 0.94876 0.54285 0.85065 0.0
C143 C 0.96477 0.55276 0.86995 0.0
C144 C 0.96919 0.53349 0.83559 0.0
C145 C 1.00518 0.53397 0.83988 0.0
U146 U 0.08264 0.53892 0.89895 0.0
O147 O 0.12052 0.50904 0.90131 0.0
O148 O 0.14477 0.57492 0.90717 0.0
C149 C 0.152 0.54363 0.90359 0.0
C150 C 0.05752 0.54345 0.86433 0.0
C151 C 0.18059 0.54866 0.88888 0.0
C152 C 0.19559 0.53983 0.85503 0.0
C153 C 0.16826 0.5352 0.8691 0.0
C154 C 0.24764 0.57401 0.88023 0.0
C155 C 0.23531 0.55891 0.86061 0.0
C156 C 0.2203 0.5688 0.89434 0.0
C157 C 0.04372 0.52703 0.94913 0.0
C158 C 0.08089 0.51733 0.97515 0.0
C159 C 0.02026 0.5213 0.98185 0.0
C160 C 1.01585 0.52661 0.96231 0.0
C161 C 0.05256 0.51612 0.98839 0.0
C162 C 0.07649 0.52278 0.95561 0.0
C163 C 0.0381 0.53094 0.92855 0.0
O164 O 0.08115 0.57526 0.87586 0.0
O165 O 0.0539 0.5094 0.87018 0.0
O166 O 0.03562 0.50037 0.91645 0.0
O167 O 0.06101 0.56608 0.92279 0.0
H168 H 1.0117 0.55991 0.88927 0.0
H169 H 0.95009 0.5609 0.88178 0.0
H170 H 0.95718 0.52542 0.82063 0.0
H171 H 0.02067 0.52652 0.82824 0.0
H172 H 0.18586 0.52765 0.83997 0.0
H173 H 0.13753 0.52045 0.86461 0.0
H174 H 0.27836 0.58807 0.88475 0.0
H175 H 0.23006 0.57989 0.9095 0.0
H176 H 0.10591 0.5132 0.9798 0.0
H177 H 0.99838 0.52126 0.99185 0.0
H178 H 0.99057 0.53009 0.95745 0.0
H179 H 0.0983 0.52312 0.94548 0.0
C180 C 0.93946 0.48006 0.48657 0.0
C181 C 0.91061 0.45791 0.4717 0.0
C182 C 0.87451 0.40906 0.49422 0.0
C183 C 0.8782 0.42276 0.47554 0.0
C184 C 0.90306 0.43188 0.50912 0.0
C185 C 0.93521 0.46712 0.50532 0.0
U186 U 1.00998 0.54239 0.45035 0.0
O187 O 0.07366 0.56548 0.45005 0.0
O188 O 0.04704 0.60746 0.45115 0.0
C189 C 0.07942 0.60308 0.45115 0.0
C190 C 0.97556 0.51474 0.48241 0.0
C191 C 0.11305 0.63233 0.46365 0.0
C192 C 0.14302 0.68727 0.4896 0.0
C193 C 0.10956 0.65548 0.48025 0.0
C194 C 0.18326 0.67154 0.46643 0.0
C195 C 0.17994 0.69625 0.48227 0.0
C196 C 0.15017 0.63992 0.45726 0.0
C197 C 0.98659 0.50931 0.39546 0.0
C198 C 0.02636 0.54589 0.36976 0.0
C199 C 0.9765 0.47758 0.36211 0.0
C200 C 0.96665 0.47613 0.38167 0.0
C201 C 1.00658 0.51234 0.35592 0.0
C202 C 1.01658 0.54431 0.38945 0.0
C203 C 0.97642 0.50583 0.41608 0.0
O204 O 1.00222 0.5054 0.47463 0.0
O205 O 0.97133 0.54304 0.47397 0.0
O206 O 0.97078 0.53538 0.42515 0.0
O207 O 0.99707 0.49374 0.42673 0.0
H208 H 0.91366 0.46724 0.45705 0.0
H209 H 0.85679 0.40553 0.46375 0.0
H210 H 0.90072 0.42218 0.52368 0.0
H211 H 0.95728 0.48377 0.51692 0.0
H212 H 0.1399 0.70606 0.50181 0.0
H213 H 0.08113 0.65007 0.48546 0.0
H214 H 0.21146 0.67774 0.46064 0.0
H215 H 0.15349 0.62244 0.4445 0.0
H216 H 0.04981 0.57298 0.36544 0.0
H217 H 0.96035 0.45149 0.35176 0.0
H218 H 0.94353 0.44887 0.38607 0.0
H219 H 0.03257 0.57015 0.39997 0.0
C220 C 0.55964 0.93614 0.82183 0.0
C221 C 0.56028 0.91135 0.8053 0.0
C222 C 0.56228 0.86282 0.82644 0.0
C223 C 0.56151 0.87485 0.80759 0.0
C224 C 0.56086 0.88763 0.84283 0.0
C225 C 0.55963 0.92388 0.84052 0.0
U226 U 0.56182 0.02542 0.79527 0.0
O227 O 0.59922 0.08923 0.80543 0.0
O228 O 0.53483 0.06507 0.80517 0.0
C229 C 0.56894 0.09558 0.81011 0.0
C230 C 0.56094 0.97583 0.82042 0.0
C231 C 0.57251 0.13663 0.81309 0.0
C232 C 0.58787 0.19638 0.83563 0.0
C233 C 0.58452 0.15752 0.83181 0.0
C234 C 0.56711 0.19407 0.80192 0.0
C235 C 0.5792 0.21525 0.82076 0.0
C236 C 0.56376 0.15501 0.79812 0.0
C237 C 0.55775 0.0106 0.737 0.0
C238 C 0.55244 0.04852 0.71097 0.0
C239 C 0.56174 0.9887 0.70298 0.0
C240 C 0.56212 0.98352 0.72284 0.0
C241 C 0.55721 0.02139 0.69671 0.0
C242 C 0.55273 0.04318 0.73102 0.0
C243 C 0.55791 1.00252 0.75762 0.0
O244 O 0.59306 1.0029 0.81394 0.0
O245 O 0.52918 0.9767 0.81355 0.0
O246 O 0.52702 0.99729 0.7676 0.0
O247 O 0.591 0.02121 0.76812 0.0
H248 H 0.5605 0.92052 0.79074 0.0
H249 H 0.56294 0.85663 0.79467 0.0
H250 H 0.56079 0.87909 0.85751 0.0
H251 H 0.55919 0.94271 0.85343 0.0
H252 H 0.59766 0.21176 0.85021 0.0
H253 H 0.59129 0.14366 0.84358 0.0
H254 H 0.55961 0.20743 0.79019 0.0
H255 H 0.55424 0.13918 0.7836 0.0
H256 H 0.54903 0.07412 0.70667 0.0
H257 H 0.56456 0.96667 0.6925 0.0
H258 H 0.56564 0.95796 0.72715 0.0
H259 H 0.54915 0.06435 0.74176 0.0
C260 C 0.64288 0.4768 0.14761 0.0
C261 C 0.6701 0.49135 0.1331 0.0
C262 C 0.71986 0.48189 0.15231 0.0
C263 C 0.70797 0.49372 0.13538 0.0
C264 C 0.6921 0.46717 0.16665 0.0
C265 C 0.65443 0.46459 0.16429 0.0
U266 U 0.54479 0.4776 0.12637 0.0
O267 O 0.48503 0.44238 0.13614 0.0
O268 O 0.51363 0.50776 0.14292 0.0
C269 C 0.48236 0.47413 0.14464 0.0
C270 C 0.60323 0.47594 0.14685 0.0
C271 C 0.44332 0.47484 0.14537 0.0
C272 C 0.39608 0.48713 0.16559 0.0
C273 C 0.43278 0.48741 0.1634 0.0
C274 C 0.37881 0.46171 0.13156 0.0
C275 C 0.36822 0.47448 0.14975 0.0
C276 C 0.41578 0.4618 0.12941 0.0
C277 C 0.553 0.48822 0.06749 0.0
C278 C 0.53446 0.50853 0.0379 0.0
C279 C 0.58264 0.48273 0.03669 0.0
C280 C 0.57859 0.47736 0.05668 0.0
C281 C 0.56074 0.49857 0.02697 0.0
C282 C 0.53093 0.50374 0.05795 0.0
C283 C 0.55007 0.48436 0.08876 0.0
O284 O 0.60066 0.50909 0.1439 0.0
O285 O 0.5736 0.44354 0.13861 0.0
O286 O 0.53584 0.44928 0.09578 0.0
O287 O 0.5612 0.51578 0.10188 0.0
H288 H 0.66225 0.50114 0.12008 0.0
H289 H 0.72785 0.50472 0.12378 0.0
H290 H 0.69962 0.45847 0.18009 0.0
H291 H 0.63435 0.45365 0.17585 0.0
H292 H 0.38941 0.49622 0.17998 0.0
H293 H 0.45299 0.49705 0.17608 0.0
H294 H 0.35869 0.45197 0.11887 0.0
H295 H 0.42275 0.45164 0.11532 0.0
H296 H 0.51637 0.5199 0.03099 0.0
H297 H 0.6036 0.47522 0.02898 0.0
H298 H 0.59609 0.46553 0.0638 0.0
H299 H 0.51079 0.51204 0.066 0.0
C300 C 0.15259 0.44634 0.17992 0.0
C301 C 0.13809 0.46823 0.16958 0.0
C302 C 0.19029 0.44892 0.17711 0.0
C303 C 0.21402 0.47264 0.16288 0.0
C304 C 0.1994 0.49483 0.15233 0.0
C305 C 0.16206 0.49291 0.15602 0.0
C306 C 0.20465 0.42597 0.18938 0.0
C307 C 0.22269 0.51956 0.13661 0.0
C308 C 0.32474 0.50377 0.16573 0.0
C309 C 0.32867 0.47461 0.15249 0.0
C310 C 0.28811 0.50357 0.16915 0.0
C311 C 0.25373 0.47378 0.15898 0.0
C312 C 0.25739 0.44455 0.1454 0.0
C313 C 0.29443 0.44525 0.14237 0.0
C314 C 0.2862 0.53523 0.18389 0.0
C315 C 0.22194 0.41208 0.13414 0.0
H316 H 0.13425 0.42701 0.19033 0.0
H317 H 0.15089 0.50926 0.14761 0.0
H318 H 0.21125 0.40431 0.1798 0.0
H319 H 0.23215 0.44705 0.19765 0.0
H320 H 0.18304 0.40928 0.19997 0.0
H321 H 0.20789 0.53565 0.12992 0.0
H322 H 0.25186 0.54188 0.14277 0.0
H323 H 0.22742 0.49974 0.12492 0.0
H324 H 0.35054 0.52726 0.17347 0.0
H325 H 0.29632 0.42209 0.1323 0.0
H326 H 0.26637 0.52072 0.19555 0.0
H327 H 0.27403 0.55305 0.17667 0.0
H328 H 0.31528 0.55604 0.19084 0.0
H329 H 0.20137 0.39303 0.14446 0.0
H330 H 0.22953 0.39256 0.12352 0.0
H331 H 0.20641 0.42576 0.12607 0.0
C332 C 0.69688 0.20952 0.52509 0.0
C333 C 0.68715 0.17847 0.50991 0.0
C334 C 0.72817 0.24734 0.52366 0.0
C335 C 0.74951 0.25434 0.50644 0.0
C336 C 0.73995 0.22284 0.49116 0.0
C337 C 0.70906 0.18514 0.49317 0.0
C338 C 0.73783 0.27998 0.54038 0.0
C339 C 0.76188 0.2292 0.47254 0.0
C340 C 0.80355 0.36054 0.49218 0.0
C341 C 0.84215 0.37006 0.49792 0.0
C342 C 0.77294 0.32329 0.49533 0.0
C343 C 0.78131 0.29478 0.50413 0.0
C344 C 0.82021 0.30437 0.51005 0.0
C345 C 0.85014 0.34198 0.50696 0.0
C346 C 0.73171 0.31424 0.48905 0.0
C347 C 0.83028 0.2747 0.5194 0.0
H348 H 0.67993 0.2043 0.53806 0.0
H349 H 0.70142 0.16114 0.48138 0.0
H350 H 0.7695 0.29408 0.5445 0.0
H351 H 0.73069 0.30384 0.53571 0.0
H352 H 0.72138 0.26843 0.55354 0.0
H353 H 0.7511 0.20146 0.46216 0.0
H354 H 0.75895 0.25308 0.46513 0.0
H355 H 0.79341 0.23946 0.47602 0.0
H356 H 0.79731 0.38236 0.48534 0.0
H357 H 0.88003 0.34914 0.51122 0.0
H358 H 0.71275 0.30621 0.5017 0.0
H359 H 0.71979 0.28797 0.47777 0.0
H360 H 0.72995 0.34006 0.48295 0.0
H361 H 0.81407 0.26623 0.53292 0.0
H362 H 0.86199 0.28689 0.52323 0.0
H363 H 0.82126 0.24682 0.50929 0.0
C364 C 0.56886 0.65598 0.84856 0.0
C365 C 0.59988 0.65396 0.8385 0.0
C366 C 0.55978 0.68851 0.84725 0.0
C367 C 0.58206 0.71928 0.83546 0.0
C368 C 0.61289 0.71676 0.82502 0.0
C369 C 0.62143 0.68421 0.82671 0.0
C370 C 0.52675 0.69022 0.85863 0.0
C371 C 0.63733 0.74877 0.81225 0.0
C372 C 0.5448 0.7899 0.81676 0.0
C373 C 0.56578 0.82527 0.8292 0.0
C374 C 0.54866 0.75467 0.8191 0.0
C375 C 0.57412 0.75479 0.83421 0.0
C376 C 0.59476 0.79014 0.84706 0.0
C377 C 0.59043 0.82491 0.84436 0.0
C378 C 0.52624 0.71757 0.80509 0.0
C379 C 0.62224 0.79159 0.86335 0.0
H380 H 0.55218 0.63258 0.85769 0.0
H381 H 0.64532 0.6826 0.81882 0.0
H382 H 0.53761 0.71852 0.86858 0.0
H383 H 0.50419 0.69029 0.84841 0.0
H384 H 0.51287 0.66444 0.86748 0.0
H385 H 0.65924 0.74148 0.80449 0.0
H386 H 0.61835 0.7527 0.80118 0.0
H387 H 0.6529 0.77796 0.82134 0.0
H388 H 0.52529 0.78974 0.80519 0.0
H389 H 0.60718 0.85219 0.8539 0.0
H390 H 0.50889 0.69173 0.81335 0.0
H391 H 0.54691 0.70965 0.79653 0.0
H392 H 0.50626 0.72176 0.7947 0.0
H393 H 0.6066 0.76758 0.87293 0.0
H394 H 0.63506 0.82099 0.8725 0.0
H395 H 0.64634 0.78598 0.8571 0.0
C396 C 0.94293 0.53105 0.18483 0.0
C397 C 0.95934 0.51197 0.17184 0.0
C398 C 0.90366 0.52441 0.18224 0.0
C399 C 0.87994 0.4987 0.16595 0.0
C400 C 0.8963 0.47886 0.15295 0.0
C401 C 0.93541 0.48533 0.15616 0.0
C402 C 0.88751 0.54495 0.19704 0.0
C403 C 0.87275 0.45155 0.13527 0.0
C404 C 0.76796 0.45835 0.16593 0.0
C405 C 0.76088 0.48547 0.15532 0.0
C406 C 0.80611 0.46224 0.16952 0.0
C407 C 0.83871 0.49375 0.16217 0.0
C408 C 0.83185 0.52089 0.15126 0.0
C409 C 0.79345 0.5166 0.14808 0.0
C410 C 0.8115 0.43262 0.18136 0.0
C411 C 0.86532 0.55493 0.14304 0.0
H412 H 0.96091 0.55129 0.19711 0.0
H413 H 0.94766 0.4704 0.146 0.0
H414 H 0.87585 0.56301 0.18965 0.0
H415 H 0.8629 0.52201 0.2042 0.0
H416 H 0.90981 0.56493 0.20856 0.0
H417 H 0.88927 0.43789 0.12668 0.0
H418 H 0.84566 0.4271 0.13989 0.0
H419 H 0.8639 0.46876 0.12559 0.0
H420 H 0.74355 0.4336 0.1714 0.0
H421 H 0.78917 0.53836 0.14018 0.0
H422 H 0.83179 0.44882 0.19424 0.0
H423 H 0.82479 0.41598 0.1724 0.0
H424 H 0.78352 0.41058 0.18661 0.0
H425 H 0.88554 0.57536 0.15517 0.0
H426 H 0.85534 0.57268 0.13428 0.0
H427 H 0.88212 0.54296 0.13361 0.0
C428 C 0.35953 0.90947 0.51412 0.0
C429 C 0.39406 0.90678 0.50963 0.0
C430 C 0.32364 0.8751 0.51242 0.0
C431 C 0.32264 0.83718 0.50665 0.0
C432 C 0.35791 0.83411 0.5035 0.0
C433 C 0.39327 0.86913 0.50476 0.0
C434 C 0.28667 0.87971 0.51561 0.0
C435 C 0.35813 0.7941 0.4978 0.0
C436 C 0.22834 0.74184 0.50903 0.0
C437 C 0.21472 0.73352 0.48936 0.0
C438 C 0.26349 0.77577 0.51506 0.0
C439 C 0.28474 0.80191 0.5011 0.0
C440 C 0.2702 0.79416 0.48138 0.0
C441 C 0.23549 0.76 0.47577 0.0
C442 C 0.27848 0.78301 0.53614 0.0
C443 C 0.29161 0.82162 0.4661 0.0
H444 H 0.36035 0.93869 0.51807 0.0
H445 H 0.42022 0.86711 0.50169 0.0
H446 H 0.26885 0.87105 0.50163 0.0
H447 H 0.26891 0.85938 0.52632 0.0
H448 H 0.29265 0.911 0.521 0.0
H449 H 0.38799 0.7961 0.49891 0.0
H450 H 0.3391 0.77133 0.50723 0.0
H451 H 0.3464 0.78332 0.48245 0.0
H452 H 0.21222 0.72118 0.51948 0.0
H453 H 0.22458 0.7537 0.46061 0.0
H454 H 0.28325 0.81333 0.54254 0.0
H455 H 0.3071 0.78209 0.53687 0.0
H456 H 0.25809 0.76037 0.54526 0.0
H457 H 0.29626 0.85274 0.47083 0.0
H458 H 0.27557 0.81196 0.45157 0.0
H459 H 0.32076 0.8223 0.4644 0.0
C460 C 0.53394 0.40115 0.82839 0.0
C461 C 0.56303 0.43862 0.83596 0.0
C462 C 0.5405 0.36687 0.82701 0.0
C463 C 0.57696 0.36996 0.83368 0.0
C464 C 0.6064 0.40776 0.84168 0.0
C465 C 0.59912 0.44181 0.84263 0.0
C466 C 0.5083 0.32728 0.81835 0.0
C467 C 0.6454 0.41219 0.84929 0.0
C468 C 0.57032 0.26827 0.84279 0.0
C469 C 0.58234 0.25661 0.82498 0.0
C470 C 0.57111 0.30637 0.84645 0.0
C471 C 0.5837 0.33332 0.83186 0.0
C472 C 0.59761 0.3225 0.81428 0.0
C473 C 0.59683 0.28437 0.81108 0.0
C474 C 0.5567 0.31701 0.86554 0.0
C475 C 0.61134 0.35034 0.79836 0.0
H476 H 0.50593 0.39866 0.82334 0.0
H477 H 0.62122 0.47061 0.84901 0.0
H478 H 0.51888 0.31462 0.80573 0.0
H479 H 0.49948 0.30538 0.82942 0.0
H480 H 0.48212 0.33028 0.81328 0.0
H481 H 0.66386 0.44285 0.85652 0.0
H482 H 0.64121 0.39006 0.85991 0.0
H483 H 0.66132 0.40588 0.837 0.0
H484 H 0.55891 0.24711 0.85364 0.0
H485 H 0.60712 0.27609 0.7975 0.0
H486 H 0.52803 0.31698 0.86281 0.0
H487 H 0.57713 0.34764 0.872 0.0
H488 H 0.55323 0.29543 0.8764 0.0
H489 H 0.58599 0.35251 0.79158 0.0
H490 H 0.62567 0.33967 0.78671 0.0
H491 H 0.63213 0.38101 0.80457 0.0
C492 C 0.58974 0.93654 0.50535 0.0
C493 C 0.56403 0.95202 0.51203 0.0
C494 C 0.58203 0.89659 0.50742 0.0
C495 C 0.54822 0.87181 0.51684 0.0
C496 C 0.52176 0.88716 0.5233 0.0
C497 C 0.52988 0.92704 0.52069 0.0
C498 C 0.61039 0.88109 0.49979 0.0
C499 C 0.48565 0.86201 0.53362 0.0
C500 C 0.51664 0.75907 0.50984 0.0
C501 C 0.53471 0.75324 0.52637 0.0
C502 C 0.52009 0.79724 0.50673 0.0
C503 C 0.54166 0.8305 0.52061 0.0
C504 C 0.55877 0.82463 0.53767 0.0
C505 C 0.55528 0.7862 0.5403 0.0
C506 C 0.50149 0.80213 0.48831 0.0
C507 C 0.58173 0.85924 0.55293 0.0
H508 H 0.61609 0.9558 0.49858 0.0
H509 H 0.51025 0.93911 0.52614 0.0
H510 H 0.62329 0.87273 0.5121 0.0
H511 H 0.59487 0.85358 0.4895 0.0
H512 H 0.63441 0.90361 0.4921 0.0
H513 H 0.46699 0.87761 0.53677 0.0
H514 H 0.46811 0.83315 0.5246 0.0
H515 H 0.49423 0.85471 0.54766 0.0
H516 H 0.49994 0.73374 0.49918 0.0
H517 H 0.56973 0.78229 0.553 0.0
H518 H 0.52428 0.82322 0.4795 0.0
H519 H 0.48108 0.81529 0.49211 0.0
H520 H 0.48525 0.77316 0.47908 0.0
H521 H 0.60835 0.88105 0.54653 0.0
H522 H 0.59066 0.84924 0.56605 0.0
H523 H 0.56419 0.87533 0.55763 0.0
C524 C 0.73717 0.52583 0.83063 0.0
C525 C 0.73509 0.55915 0.84069 0.0
C526 C 0.77254 0.52347 0.82981 0.0
C527 C 0.80618 0.55524 0.8393 0.0
C528 C 0.80449 0.58974 0.84881 0.0
C529 C 0.76864 0.59123 0.84944 0.0
C530 C 0.77346 0.48617 0.81966 0.0
C531 C 0.84011 0.62415 0.85902 0.0
C532 C 0.88138 0.52779 0.85974 0.0
C533 C 0.91101 0.54294 0.84654 0.0
C534 C 0.84704 0.53175 0.8575 0.0
C535 C 0.84195 0.55023 0.84134 0.0
C536 C 0.87091 0.56405 0.82747 0.0
C537 C 0.90545 0.56044 0.83031 0.0
C538 C 0.81667 0.51705 0.87268 0.0
C539 C 0.86561 0.58311 0.80988 0.0
H540 H 0.71098 0.50112 0.82381 0.0
H541 H 0.76674 0.61714 0.857 0.0
H542 H 0.79828 0.4943 0.8099 0.0
H543 H 0.77768 0.46839 0.83078 0.0
H544 H 0.74602 0.46682 0.81086 0.0
H545 H 0.83425 0.64987 0.86454 0.0
H546 H 0.8502 0.61375 0.8716 0.0
H547 H 0.8643 0.6348 0.84888 0.0
H548 H 0.88536 0.51345 0.87206 0.0
H549 H 0.9285 0.57239 0.82018 0.0
H550 H 0.78851 0.49431 0.86561 0.0
H551 H 0.81159 0.54239 0.87955 0.0
H552 H 0.82544 0.50351 0.88441 0.0
H553 H 0.83963 0.56137 0.80072 0.0
H554 H 0.89138 0.593 0.80068 0.0
H555 H 0.86026 0.60946 0.81469 0.0
C556 C 0.19484 0.67077 0.19264 0.0
C557 C 0.1762 0.65018 0.17466 0.0
C558 C 0.22878 0.70725 0.19347 0.0
C559 C 0.24525 0.72286 0.17585 0.0
C560 C 0.227 0.70151 0.1576 0.0
C561 C 0.19223 0.66571 0.15723 0.0
C562 C 0.24678 0.72929 0.21325 0.0
C563 C 0.24455 0.71612 0.13853 0.0
C564 C 0.31044 0.83517 0.18253 0.0
C565 C 0.34701 0.83637 0.18629 0.0
C566 C 0.27738 0.79841 0.17771 0.0
C567 C 0.28101 0.76203 0.17681 0.0
C568 C 0.31848 0.76342 0.17933 0.0
C569 C 0.35104 0.80064 0.1842 0.0
C570 C 0.23811 0.79838 0.17506 0.0
C571 C 0.3239 0.72553 0.17831 0.0
H572 H 0.18242 0.65867 0.20612 0.0
H573 H 0.17809 0.64933 0.14331 0.0
H574 H 0.27695 0.73257 0.215 0.0
H575 H 0.24857 0.75997 0.21434 0.0
H576 H 0.22987 0.71357 0.22554 0.0
H577 H 0.22674 0.69613 0.12559 0.0
H578 H 0.24755 0.74685 0.13742 0.0
H579 H 0.27427 0.71781 0.13808 0.0
H580 H 0.30738 0.86286 0.18442 0.0
H581 H 0.3793 0.80163 0.18742 0.0
H582 H 0.22014 0.78553 0.18759 0.0
H583 H 0.22231 0.77923 0.16154 0.0
H584 H 0.24069 0.82909 0.17422 0.0
H585 H 0.31541 0.71178 0.19227 0.0
H586 H 0.35474 0.73173 0.17606 0.0
H587 H 0.30511 0.70321 0.1663 0.0
C588 C 0.55478 0.15742 0.50476 0.0
C589 C 0.52259 0.1301 0.51395 0.0
C590 C 0.56173 0.19792 0.5048 0.0
C591 C 0.53629 0.21134 0.51458 0.0
C592 C 0.50371 0.18357 0.5237 0.0
C593 C 0.49712 0.1434 0.5231 0.0
C594 C 0.59632 0.22616 0.49448 0.0
C595 C 0.47583 0.19635 0.53435 0.0
C596 C 0.56646 0.31916 0.53575 0.0
C597 C 0.54473 0.33111 0.52356 0.0
C598 C 0.56598 0.28116 0.53227 0.0
C599 C 0.54358 0.25437 0.51605 0.0
C600 C 0.5236 0.26715 0.50294 0.0
C601 C 0.52411 0.30513 0.50693 0.0
C602 C 0.58795 0.26893 0.54654 0.0
C603 C 0.50058 0.2401 0.48506 0.0
H604 H 0.57426 0.14711 0.4974 0.0
H605 H 0.47198 0.12229 0.53001 0.0
H606 H 0.58842 0.24601 0.48619 0.0
H607 H 0.61998 0.24561 0.50547 0.0
H608 H 0.60796 0.20966 0.48423 0.0
H609 H 0.45286 0.17142 0.54136 0.0
H610 H 0.49205 0.22142 0.54585 0.0
H611 H 0.46143 0.20744 0.52396 0.0
H612 H 0.58353 0.33935 0.54825 0.0
H613 H 0.50718 0.31381 0.49733 0.0
H614 H 0.60795 0.25901 0.53863 0.0
H615 H 0.56706 0.24312 0.55385 0.0
H616 H 0.60528 0.29377 0.55796 0.0
H617 H 0.51928 0.22955 0.47631 0.0
H618 H 0.48895 0.25544 0.47557 0.0
H619 H 0.47575 0.21311 0.48959 0.0
C620 C 0.42151 0.54296 0.82006 0.0
C621 C 0.43882 0.54594 0.83853 0.0
C622 C 0.38655 0.54607 0.81839 0.0
C623 C 0.36885 0.55172 0.83563 0.0
C624 C 0.3865 0.55495 0.85435 0.0
C625 C 0.42167 0.55231 0.85554 0.0
C626 C 0.36866 0.54339 0.79831 0.0
C627 C 0.36799 0.56044 0.87312 0.0
C628 C 0.29639 0.59226 0.84369 0.0
C629 C 0.26391 0.55701 0.84713 0.0
C630 C 0.33016 0.59059 0.83702 0.0
C631 C 0.3311 0.55295 0.83453 0.0
C632 C 0.29681 0.51701 0.83575 0.0
C633 C 0.26316 0.51954 0.84188 0.0
C634 C 0.36615 0.62931 0.83528 0.0
C635 C 0.2971 0.4764 0.83356 0.0
H636 H 0.43535 0.53836 0.80693 0.0
H637 H 0.43543 0.55461 0.86977 0.0
H638 H 0.33858 0.51876 0.79669 0.0
H639 H 0.36654 0.57168 0.7965 0.0
H640 H 0.38592 0.53809 0.78638 0.0
H641 H 0.3856 0.56197 0.88638 0.0
H642 H 0.36439 0.58849 0.8737 0.0
H643 H 0.33854 0.53513 0.87362 0.0
H644 H 0.29648 0.62111 0.84782 0.0
H645 H 0.23781 0.49244 0.84477 0.0
H646 H 0.38337 0.62592 0.82288 0.0
H647 H 0.38498 0.63756 0.8489 0.0
H648 H 0.35857 0.65434 0.83318 0.0
H649 H 0.31405 0.47362 0.82093 0.0
H650 H 0.26712 0.45149 0.83162 0.0
H651 H 0.31131 0.47289 0.84694 0.0
C652 C 0.89897 0.34161 0.18949 0.0
C653 C 0.91271 0.35293 0.17105 0.0
C654 C 0.8601 0.31413 0.1916 0.0
C655 C 0.83433 0.29711 0.17481 0.0
C656 C 0.84804 0.30857 0.15612 0.0
C657 C 0.88707 0.3366 0.15447 0.0
C658 C 0.84668 0.30315 0.21182 0.0
C659 C 0.82146 0.29137 0.13788 0.0
C660 C 0.74803 0.19587 0.17881 0.0
C661 C 0.71795 0.20674 0.18321 0.0
C662 C 0.78581 0.22493 0.17581 0.0
C663 C 0.79367 0.26594 0.17686 0.0
C664 C 0.76315 0.27707 0.18085 0.0
C665 C 0.72573 0.24735 0.18425 0.0
C666 C 0.81754 0.2118 0.17187 0.0
C667 C 0.77015 0.32036 0.18173 0.0
H668 H 0.91856 0.35466 0.20239 0.0
H669 H 0.8975 0.34575 0.14023 0.0
H670 H 0.82137 0.30945 0.21507 0.0
H671 H 0.8369 0.27051 0.21246 0.0
H672 H 0.87005 0.31994 0.22342 0.0
H673 H 0.83708 0.30176 0.12436 0.0
H674 H 0.80809 0.25807 0.13659 0.0
H675 H 0.79733 0.30032 0.13888 0.0
H676 H 0.74213 0.16452 0.17813 0.0
H677 H 0.70241 0.25577 0.1875 0.0
H678 H 0.84103 0.22602 0.18361 0.0
H679 H 0.83082 0.22186 0.15782 0.0
H680 H 0.80652 0.17869 0.17117 0.0
H681 H 0.79051 0.33808 0.19436 0.0
H682 H 0.74274 0.32367 0.18325 0.0
H683 H 0.78408 0.33356 0.1683 0.0
C684 C 0.06573 0.46382 0.0984 0.0
C685 C 0.0589 0.49198 0.11059 0.0
C686 C 0.06806 0.46655 0.07815 0.0
C687 C 0.06204 0.49728 0.07017 0.0
C688 C 0.05491 0.5256 0.08257 0.0
C689 C 0.05403 0.52291 0.10274 0.0
C690 C 0.07703 0.43681 0.06533 0.0
C691 C 0.04725 0.55808 0.07453 0.0
C692 C 0.09191 0.5291 0.01972 0.0
C693 C 0.05613 0.50895 0.00895 0.0
C694 C 0.09477 0.5242 0.03958 0.0
C695 C 0.06099 0.49884 0.04876 0.0
C696 C 0.02515 0.47746 0.03779 0.0
C697 C 0.02323 0.4826 0.01797 0.0
C698 C 0.13349 0.54725 0.05089 0.0
C699 C 0.98847 0.45036 0.04718 0.0
H700 H 0.06992 0.44028 0.10476 0.0
H701 H 0.04862 0.54448 0.1124 0.0
H702 H 0.05291 0.41985 0.05416 0.0
H703 H 0.10375 0.45305 0.05735 0.0
H704 H 0.0815 0.41511 0.0739 0.0
H705 H 0.04271 0.57798 0.08627 0.0
H706 H 0.07205 0.57679 0.06596 0.0
H707 H 0.02091 0.54422 0.06442 0.0
H708 H 0.11735 0.54964 0.01278 0.0
H709 H 0.99576 0.46635 0.00953 0.0
H710 H 0.14053 0.52681 0.05917 0.0
H711 H 0.13181 0.57034 0.06175 0.0
H712 H 0.15766 0.56249 0.04118 0.0
H713 H 0.99327 0.42722 0.05431 0.0
H714 H 0.96322 0.43502 0.03642 0.0
H715 H 0.98094 0.46822 0.05877 0.0
C716 C 0.55691 0.02744 0.43697 0.0
C717 C 0.53344 0.0389 0.44902 0.0
C718 C 0.55632 0.03016 0.41672 0.0
C719 C 0.53263 0.04602 0.40851 0.0
C720 C 0.509 0.05794 0.42078 0.0
C721 C 0.50937 0.05379 0.44094 0.0
C722 C 0.58155 0.01664 0.40419 0.0
C723 C 0.484 0.07576 0.41267 0.0
C724 C 0.5652 0.0918 0.36066 0.0
C725 C 0.54055 0.06081 0.3467 0.0
C726 C 0.56244 0.08762 0.3808 0.0
C727 C 0.53403 0.05171 0.38725 0.0
C728 C 0.50818 0.02079 0.37333 0.0
C729 C 0.51182 0.02564 0.35323 0.0
C730 C 0.59043 0.12142 0.39516 0.0
C731 C 0.47749 0.98207 0.37965 0.0
H732 H 0.5757 0.01626 0.44343 0.0
H733 H 0.49174 0.06326 0.45048 0.0
H734 H 0.56365 0.99463 0.39187 0.0
H735 H 0.60416 0.04272 0.39775 0.0
H736 H 0.59628 1.00264 0.41265 0.0
H737 H 0.46795 0.08428 0.42423 0.0
H738 H 0.50242 0.10284 0.40544 0.0
H739 H 0.46257 0.05387 0.40136 0.0
H740 H 0.58691 0.11948 0.35585 0.0
H741 H 0.49284 1.00135 0.34261 0.0
H742 H 0.60874 0.11091 0.40332 0.0
H743 H 0.57403 0.13092 0.40609 0.0
H744 H 0.60996 0.14795 0.38782 0.0
H745 H 0.49181 0.96546 0.38624 0.0
H746 H 0.45758 0.9624 0.36721 0.0
H747 H 0.45987 0.9884 0.39105 0.0
C748 C 0.54669 0.53949 0.77114 0.0
C749 C 0.58321 0.55673 0.7813 0.0
C750 C 0.54339 0.5409 0.75086 0.0
C751 C 0.57739 0.56097 0.7405 0.0
C752 C 0.61433 0.5793 0.75079 0.0
C753 C 0.61687 0.57641 0.77104 0.0
C754 C 0.5035 0.5205 0.74049 0.0
C755 C 0.65107 0.60252 0.74046 0.0
C756 C 0.57235 0.53266 0.68535 0.0
C757 C 0.56577 0.56306 0.67779 0.0
C758 C 0.57647 0.53184 0.70568 0.0
C759 C 0.57415 0.56223 0.71886 0.0
C760 C 0.56755 0.59304 0.71135 0.0
C761 C 0.56316 0.5929 0.69098 0.0
C762 C 0.58327 0.49837 0.71309 0.0
C763 C 0.56468 0.62596 0.72481 0.0
H764 H 0.52058 0.5242 0.77903 0.0
H765 H 0.64507 0.59039 0.77893 0.0
H766 H 0.49731 0.54265 0.73323 0.0
H767 H 0.50265 0.49733 0.72887 0.0
H768 H 0.47999 0.50594 0.75065 0.0
H769 H 0.67752 0.61497 0.7505 0.0
H770 H 0.65464 0.58287 0.72827 0.0
H771 H 0.64886 0.62769 0.73394 0.0
H772 H 0.57488 0.50976 0.67535 0.0
H773 H 0.55732 0.61612 0.68537 0.0
H774 H 0.55984 0.48174 0.72288 0.0
H775 H 0.61131 0.51107 0.72187 0.0
H776 H 0.58403 0.47682 0.70099 0.0
H777 H 0.53726 0.61331 0.73268 0.0
H778 H 0.56481 0.65051 0.71669 0.0
H779 H 0.58921 0.63895 0.73602 0.0
C780 C 0.5283 1.00312 0.57992 0.0
C781 C 0.55159 0.03898 0.57188 0.0
C782 C 0.52981 1.00033 0.60015 0.0
C783 C 0.55485 0.03437 0.61281 0.0
C784 C 0.57878 0.0705 0.60479 0.0
C785 C 0.57711 0.07229 0.58442 0.0
C786 C 0.50432 0.96097 0.60798 0.0
C787 C 0.60594 0.1074 0.61779 0.0
C788 C 0.53122 0.03818 0.66671 0.0
C789 C 0.55754 0.02656 0.67535 0.0
C790 C 0.53019 0.04107 0.64641 0.0
C791 C 0.55605 0.03214 0.63442 0.0
C792 C 0.58285 0.0207 0.64307 0.0
C793 C 0.5834 0.01827 0.66337 0.0
C794 C 0.50109 0.05323 0.63774 0.0
C795 C 0.61053 0.01033 0.63082 0.0
H796 H 0.50889 0.97695 0.57036 0.0
H797 H 0.59529 0.10003 0.57836 0.0
H798 H 0.5221 0.9516 0.61725 0.0
H799 H 0.48234 0.96471 0.61736 0.0
H800 H 0.48878 0.93652 0.59607 0.0
H801 H 0.62215 0.13337 0.60936 0.0
H802 H 0.58911 0.11598 0.62885 0.0
H803 H 0.62731 0.10082 0.6259 0.0
H804 H 0.51077 0.04412 0.67574 0.0
H805 H 0.60425 0.00983 0.66988 0.0
H806 H 0.48089 0.02872 0.62694 0.0
H807 H 0.51647 0.08006 0.62976 0.0
H808 H 0.48362 0.06013 0.64906 0.0
H809 H 0.59367 0.98371 0.62021 0.0
H810 H 0.6307 1.00362 0.63987 0.0
H811 H 0.62807 0.03547 0.6222 0.0
C812 C 0.61606 0.55205 0.91595 0.0
C813 C 0.58229 0.53561 0.9035 0.0
C814 C 0.61399 0.54687 0.93611 0.0
C815 C 0.57743 0.52386 0.94393 0.0
C816 C 0.54341 0.50663 0.93131 0.0
C817 C 0.54621 0.51303 0.91138 0.0
C818 C 0.6509 0.56618 0.94907 0.0
C819 C 0.50391 0.48147 0.93887 0.0
C820 C 0.57294 0.47872 0.99226 0.0
C821 C 0.56563 0.50526 1.00567 0.0
C822 C 0.57753 0.48478 0.97227 0.0
C823 C 0.57446 0.51802 0.96532 0.0
C824 C 0.56717 0.54494 0.97871 0.0
C825 C 0.56312 0.53841 0.99864 0.0
C826 C 0.58512 0.45525 0.95851 0.0
C827 C 0.56364 0.58076 0.97199 0.0
H828 H 0.64403 0.56964 0.91003 0.0
H829 H 0.51996 0.49982 0.90187 0.0
H830 H 0.64753 0.58532 0.96158 0.0
H831 H 0.65656 0.54263 0.95526 0.0
H832 H 0.67666 0.58491 0.94101 0.0
H833 H 0.48055 0.4687 0.92702 0.0
H834 H 0.50467 0.45641 0.94617 0.0
H835 H 0.49623 0.50002 0.95 0.0
H836 H 0.57442 0.45266 0.9973 0.0
H837 H 0.55836 0.55971 0.00878 0.0
H838 H 0.61261 0.47117 0.95105 0.0
H839 H 0.56127 0.44097 0.94697 0.0
H840 H 0.58737 0.43131 0.96622 0.0
H841 H 0.59124 0.60074 0.96563 0.0
H842 H 0.55709 0.5984 0.98413 0.0
H843 H 0.54018 0.57075 0.9603 0.0
C844 C 1.00594 0.48697 0.23985 0.0
C845 C 0.04306 0.50222 0.2322 0.0
C846 C 1.00149 0.49034 0.26012 0.0
C847 C 0.03501 0.50864 0.27308 0.0
C848 C 0.07259 0.52371 0.26543 0.0
C849 C 0.07617 0.52076 0.24505 0.0
C850 C 0.96091 0.47462 0.26766 0.0
C851 C 0.10898 0.54243 0.27879 0.0
C852 C 0.02205 0.54579 0.3248 0.0
C853 C 1.0169 0.51306 0.33506 0.0
C854 C 0.02868 0.54512 0.30466 0.0
C855 C 0.03057 0.51109 0.29463 0.0
C856 C 0.02671 0.47859 0.30507 0.0
C857 C 0.01982 0.47992 0.32512 0.0
C858 C 0.03245 0.58025 0.29399 0.0
C859 C 0.02889 0.44192 0.29497 0.0
H860 H 0.98025 0.47304 0.22995 0.0
H861 H 0.10492 0.53238 0.23917 0.0
H862 H 0.95663 0.45173 0.27786 0.0
H863 H 0.95708 0.49948 0.27603 0.0
H864 H 0.9379 0.46096 0.25565 0.0
H865 H 0.13603 0.55284 0.27052 0.0
H866 H 0.10942 0.56837 0.2883 0.0
H867 H 0.10904 0.52029 0.28856 0.0
H868 H 0.01958 0.57135 0.33238 0.0
H869 H 1.01645 0.45481 0.33305 0.0
H870 H 1.00836 0.57019 0.28264 0.0
H871 H 0.06019 0.59217 0.28635 0.0
H872 H 0.03163 0.605 0.30402 0.0
H873 H 1.00359 0.42568 0.28435 0.0
H874 H 0.02879 0.42089 0.30549 0.0
H875 H 0.05568 0.45088 0.28658 0.0
loop_
_geom_bond_atom_site_label_1
_geom_bond_atom_site_label_2
_geom_bond_distance
_geom_bond_site_symmetry_2
_ccdc_geom_bond_type
Tb0 O3 2.453 1_455 S
Tb0 O4 2.596 1_455 S
Tb0 O5 2.374 . S
Tb0 O13 2.343 . S
Tb0 O15 2.353 . S
Tb0 O17 2.427 . S
Tb0 O18 2.513 . S
C1 O5 1.251 . S
C1 O7 1.263 . S
Tb2 O4 2.343 1_455 S
Tb2 O7 2.353 . S
Tb2 O10 2.427 1_455 S
Tb2 O11 2.513 1_455 S
Tb2 O12 2.453 . S
Tb2 O13 2.596 . S
Tb2 O14 2.374 . S
O3 Tb0 2.453 1_655 S
O3 C19 1.245 . S
O4 Tb0 2.596 1_655 S
O4 Tb2 2.343 1_655 S
O4 C19 1.259 . S
O5 Tb0 2.374 . S
O5 C1 1.251 . S
C6 O10 1.275 . S
C6 O11 1.246 . S
O7 C1 1.263 . S
O7 Tb2 2.353 . S
C8 O12 1.245 . S
C8 O13 1.259 . S
C9 O14 1.250 . S
C9 O15 1.263 . S
O10 Tb2 2.427 1_655 S
O10 C6 1.275 . S
O11 Tb2 2.513 1_655 S
O11 C6 1.246 . S
O12 Tb2 2.453 . S
O12 C8 1.245 . S
O13 Tb0 2.343 . S
O13 Tb2 2.596 . S
O13 C8 1.259 . S
O14 Tb2 2.374 . S
O14 C9 1.250 . S
O15 Tb0 2.353 . S
O15 C9 1.263 . S
C16 O17 1.275 . S
C16 O18 1.246 . S
O17 Tb0 2.427 . S
O17 C16 1.275 . S
O18 Tb0 2.513 . S
O18 C16 1.246 . S
C19 O3 1.245 . S
C19 O4 1.259 . S
Tb20 O23 2.453 . S
Tb20 O24 2.596 . S
Tb20 O25 2.374 . S
Tb20 O33 2.343 1_545 S
Tb20 O35 2.353 . S
Tb20 O37 2.427 1_545 S
Tb20 O38 2.513 1_545 S
C21 O25 1.251 . S
C21 O27 1.263 . S
Tb22 O24 2.343 . S
Tb22 O27 2.353 . S
Tb22 O30 2.427 . S
Tb22 O31 2.513 . S
Tb22 O32 2.453 1_545 S
Tb22 O33 2.596 1_545 S
Tb22 O34 2.374 . S
O23 Tb20 2.453 . S
O23 C39 1.245 . S
O24 Tb20 2.596 . S
O24 Tb22 2.343 . S
O24 C39 1.259 . S
O25 Tb20 2.374 . S
O25 C21 1.251 . S
C26 O30 1.275 . S
C26 O31 1.246 . S
O27 C21 1.263 . S
O27 Tb22 2.353 . S
C28 O32 1.245 . S
C28 O33 1.259 . S
C29 O34 1.250 . S
C29 O35 1.263 . S
O30 Tb22 2.427 . S
O30 C26 1.275 . S
O31 Tb22 2.513 . S
O31 C26 1.246 . S
O32 Tb22 2.453 1_565 S
O32 C28 1.245 . S
O33 Tb20 2.343 1_565 S
O33 Tb22 2.596 1_565 S
O33 C28 1.259 . S
O34 Tb22 2.374 . S
O34 C29 1.250 . S
O35 Tb20 2.353 . S
O35 C29 1.263 . S
C36 O37 1.275 . S
C36 O38 1.246 . S
O37 Tb20 2.427 1_565 S
O37 C36 1.275 . S
O38 Tb20 2.513 1_565 S
O38 C36 1.246 . S
C39 O23 1.245 . S
C39 O24 1.259 . S
Tb40 O43 2.453 . S
Tb40 O44 2.596 . S
Tb40 O45 2.374 . S
Tb40 O53 2.343 . S
Tb40 O55 2.353 . S
Tb40 O57 2.427 . S
Tb40 O58 2.513 . S
C41 O45 1.251 . S
C41 O47 1.263 . S
Tb42 O44 2.343 . S
Tb42 O47 2.353 . S
Tb42 O50 2.427 . S
Tb42 O51 2.513 . S
Tb42 O52 2.453 . S
Tb42 O53 2.596 . S
Tb42 O54 2.374 . S
O43 Tb40 2.453 . S
O43 C59 1.245 . S
O44 Tb40 2.596 . S
O44 Tb42 2.343 . S
O44 C59 1.259 . S
O45 Tb40 2.374 . S
O45 C41 1.251 . S
C46 O50 1.275 . S
C46 O51 1.246 . S
O47 C41 1.263 . S
O47 Tb42 2.353 . S
C48 O52 1.245 . S
C48 O53 1.259 . S
C49 O54 1.250 . S
C49 O55 1.263 . S
O50 Tb42 2.427 . S
O50 C46 1.275 . S
O51 Tb42 2.513 . S
O51 C46 1.246 . S
O52 Tb42 2.453 . S
O52 C48 1.245 . S
O53 Tb40 2.343 . S
O53 Tb42 2.596 . S
O53 C48 1.259 . S
O54 Tb42 2.374 . S
O54 C49 1.250 . S
O55 Tb40 2.353 . S
O55 C49 1.263 . S
C56 O57 1.275 . S
C56 O58 1.246 . S
O57 Tb40 2.427 . S
O57 C56 1.275 . S
O58 Tb40 2.513 . S
O58 C56 1.246 . S
C59 O43 1.245 . S
C59 O44 1.259 . S
C60 C61 1.264 . S
C60 C65 1.479 . S
C60 C70 1.465 . S
C61 C60 1.264 . S
C61 C63 1.339 . S
C61 H88 0.931 . S
C62 C63 1.395 . S
C62 C64 1.320 . S
C63 C61 1.339 . S
C63 C62 1.395 . S
C63 H89 0.929 . S
C64 C62 1.320 . S
C64 C65 1.405 . S
C64 H90 0.930 . S
C65 C60 1.479 . S
C65 C64 1.405 . S
C65 H91 0.931 . S
U66 O67 2.462 . S
U66 O68 2.458 1_545 S
U66 C69 2.984 1_545 S
U66 C70 2.847 . S
U66 C83 2.882 . S
U66 O84 2.441 . S
U66 O85 2.420 . S
U66 O86 2.455 . S
U66 O87 2.449 . S
O67 U66 2.462 . S
O67 C69 1.345 1_545 S
O68 U66 2.458 1_565 S
O68 C69 1.286 . S
C69 U66 2.984 1_565 S
C69 O67 1.345 1_565 S
C69 O68 1.286 . S
C69 C71 1.363 . S
C70 C60 1.465 . S
C70 U66 2.847 . S
C70 O84 1.249 . S
C70 O85 1.202 . S
C71 C69 1.363 . S
C71 C73 1.408 . S
C71 C76 1.342 . S
C72 C73 1.310 . S
C72 C75 1.461 . S
C72 H92 0.932 . S
C73 C71 1.408 . S
C73 C72 1.310 . S
C73 H93 0.930 . S
C74 C75 1.474 . S
C74 C76 1.285 . S
C74 H94 0.929 . S
C75 C72 1.461 . S
C75 C74 1.474 . S
C76 C71 1.342 . S
C76 C74 1.285 . S
C76 H95 0.930 . S
C77 C80 1.424 . S
C77 C82 1.245 . S
C77 C83 1.428 . S
C78 C81 1.260 . S
C78 C82 1.477 . S
C78 H96 0.932 . S
C79 C80 1.384 . S
C79 C81 1.479 . S
C79 H97 0.929 . S
C80 C77 1.424 . S
C80 C79 1.384 . S
C80 H98 0.928 . S
C81 C78 1.260 . S
C81 C79 1.479 . S
C82 C77 1.245 . S
C82 C78 1.477 . S
C82 H99 0.932 . S
C83 U66 2.882 . S
C83 C77 1.428 . S
C83 O86 1.301 . S
C83 O87 1.282 . S
O84 U66 2.441 . S
O84 C70 1.249 . S
O85 U66 2.420 . S
O85 C70 1.202 . S
O86 U66 2.455 . S
O86 C83 1.301 . S
O87 U66 2.449 . S
O87 C83 1.282 . S
H88 C61 0.931 . S
H89 C63 0.929 . S
H90 C64 0.930 . S
H91 C65 0.931 . S
H92 C72 0.932 . S
H93 C73 0.930 . S
H94 C74 0.929 . S
H95 C76 0.930 . S
H96 C78 0.932 . S
H97 C79 0.929 . S
H98 C80 0.928 . S
H99 C82 0.932 . S
C100 C101 1.264 . S
C100 C105 1.479 . S
C100 C110 1.465 . S
C101 C100 1.264 . S
C101 C103 1.339 . S
C101 H128 0.931 . S
C102 C103 1.395 . S
C102 C104 1.320 . S
C103 C101 1.339 . S
C103 C102 1.395 . S
C103 H129 0.929 . S
C104 C102 1.320 . S
C104 C105 1.405 . S
C104 H130 0.930 . S
C105 C100 1.479 . S
C105 C104 1.405 . S
C105 H131 0.931 . S
U106 O107 2.454 . S
U106 O108 2.458 . S
U106 C109 2.984 . S
U106 C110 2.847 . S
U106 C123 2.882 . S
U106 O124 2.441 . S
U106 O125 2.420 . S
U106 O126 2.455 . S
U106 O127 2.449 . S
O107 U106 2.454 . S
O107 C109 1.353 . S
O108 U106 2.458 . S
O108 C109 1.286 . S
C109 U106 2.984 . S
C109 O107 1.353 . S
C109 O108 1.286 . S
C109 C111 1.363 . S
C110 C100 1.465 . S
C110 U106 2.847 . S
C110 O124 1.249 . S
C110 O125 1.202 . S
C111 C109 1.363 . S
C111 C113 1.408 . S
C111 C116 1.342 . S
C112 C113 1.310 . S
C112 C115 1.461 . S
C112 H132 0.932 . S
C113 C111 1.408 . S
C113 C112 1.310 . S
C113 H133 0.930 . S
C114 C115 1.474 . S
C114 C116 1.285 . S
C114 H134 0.929 . S
C115 C112 1.461 . S
C115 C114 1.474 . S
C116 C111 1.342 . S
C116 C114 1.285 . S
C116 H135 0.930 . S
C117 C120 1.424 . S
C117 C122 1.245 . S
C117 C123 1.428 . S
C118 C121 1.260 . S
C118 C122 1.477 . S
C118 H136 0.932 . S
C119 C120 1.384 . S
C119 C121 1.479 . S
C119 H137 0.929 . S
C120 C117 1.424 . S
C120 C119 1.384 . S
C120 H138 0.928 . S
C121 C118 1.260 . S
C121 C119 1.479 . S
C122 C117 1.245 . S
C122 C118 1.477 . S
C122 H139 0.932 . S
C123 U106 2.882 . S
C123 C117 1.428 . S
C123 O126 1.301 . S
C123 O127 1.282 . S
O124 U106 2.441 . S
O124 C110 1.249 . S
O125 U106 2.420 . S
O125 C110 1.202 . S
O126 U106 2.455 . S
O126 C123 1.301 . S
O127 U106 2.449 . S
O127 C123 1.282 . S
H128 C101 0.931 . S
H129 C103 0.929 . S
H130 C104 0.930 . S
H131 C105 0.931 . S
H132 C112 0.932 . S
H133 C113 0.930 . S
H134 C114 0.929 . S
H135 C116 0.930 . S
H136 C118 0.932 . S
H137 C119 0.929 . S
H138 C120 0.928 . S
H139 C122 0.932 . S
C140 C141 1.264 . S
C140 C145 1.479 . S
C140 C150 1.465 1_655 S
C141 C140 1.264 . S
C141 C143 1.339 . S
C141 H168 0.931 . S
C142 C143 1.395 . S
C142 C144 1.320 . S
C143 C141 1.339 . S
C143 C142 1.395 . S
C143 H169 0.929 . S
C144 C142 1.320 . S
C144 C145 1.405 . S
C144 H170 0.930 . S
C145 C140 1.479 . S
C145 C144 1.405 . S
C145 H171 0.931 . S
U146 O147 2.454 . S
U146 O148 2.458 . S
U146 C149 2.984 . S
U146 C150 2.847 . S
U146 C163 2.882 . S
U146 O164 2.441 . S
U146 O165 2.420 1_455 S
U146 O166 2.455 . S
U146 O167 2.449 . S
O147 U146 2.454 . S
O147 C149 1.353 . S
O148 U146 2.458 . S
O148 C149 1.286 . S
C149 U146 2.984 . S
C149 O147 1.353 . S
C149 O148 1.286 . S
C149 C151 1.363 . S
C150 C140 1.465 1_455 S
C150 U146 2.847 . S
C150 O164 1.249 . S
C150 O165 1.202 1_455 S
C151 C149 1.363 . S
C151 C153 1.408 . S
C151 C156 1.342 . S
C152 C153 1.310 . S
C152 C155 1.461 . S
C152 H172 0.932 . S
C153 C151 1.408 . S
C153 C152 1.310 . S
C153 H173 0.930 . S
C154 C155 1.474 . S
C154 C156 1.285 . S
C154 H174 0.929 . S
C155 C152 1.461 . S
C155 C154 1.474 . S
C156 C151 1.342 . S
C156 C154 1.285 . S
C156 H175 0.930 . S
C157 C160 1.424 . S
C157 C162 1.245 . S
C157 C163 1.428 . S
C158 C161 1.260 . S
C158 C162 1.477 . S
C158 H176 0.932 . S
C159 C160 1.384 . S
C159 C161 1.479 . S
C159 H177 0.929 . S
C160 C157 1.424 . S
C160 C159 1.384 . S
C160 H178 0.928 . S
C161 C158 1.260 . S
C161 C159 1.479 . S
C162 C157 1.245 . S
C162 C158 1.477 . S
C162 H179 0.932 . S
C163 U146 2.882 . S
C163 C157 1.428 . S
C163 O166 1.301 . S
C163 O167 1.282 . S
O164 U146 2.441 . S
O164 C150 1.249 . S
O165 U146 2.420 1_655 S
O165 C150 1.202 1_655 S
O166 U146 2.455 . S
O166 C163 1.301 . S
O167 U146 2.449 . S
O167 C163 1.282 . S
H168 C141 0.931 . S
H169 C143 0.929 . S
H170 C144 0.930 . S
H171 C145 0.931 . S
H172 C152 0.932 . S
H173 C153 0.930 . S
H174 C154 0.929 . S
H175 C156 0.930 . S
H176 C158 0.932 . S
H177 C159 0.929 . S
H178 C160 0.928 . S
H179 C162 0.932 . S
C180 C181 1.264 . S
C180 C185 1.479 . S
C180 C190 1.465 . S
C181 C180 1.264 . S
C181 C183 1.339 . S
C181 H208 0.931 . S
C182 C183 1.395 . S
C182 C184 1.320 . S
C183 C181 1.339 . S
C183 C182 1.395 . S
C183 H209 0.929 . S
C184 C182 1.320 . S
C184 C185 1.405 . S
C184 H210 0.930 . S
C185 C180 1.479 . S
C185 C184 1.405 . S
C185 H211 0.931 . S
U186 O187 2.454 1_655 S
U186 O188 2.458 1_655 S
U186 C189 2.984 1_655 S
U186 C190 2.847 . S
U186 C203 2.882 . S
U186 O204 2.441 . S
U186 O205 2.420 . S
U186 O206 2.455 1_655 S
U186 O207 2.449 . S
O187 U186 2.454 1_455 S
O187 C189 1.353 . S
O188 U186 2.458 1_455 S
O188 C189 1.286 . S
C189 U186 2.984 1_455 S
C189 O187 1.353 . S
C189 O188 1.286 . S
C189 C191 1.363 . S
C190 C180 1.465 . S
C190 U186 2.847 . S
C190 O204 1.249 . S
C190 O205 1.202 . S
C191 C189 1.363 . S
C191 C193 1.408 . S
C191 C196 1.342 . S
C192 C193 1.310 . S
C192 C195 1.461 . S
C192 H212 0.932 . S
C193 C191 1.408 . S
C193 C192 1.310 . S
C193 H213 0.930 . S
C194 C195 1.474 . S
C194 C196 1.285 . S
C194 H214 0.929 . S
C195 C192 1.461 . S
C195 C194 1.474 . S
C196 C191 1.342 . S
C196 C194 1.285 . S
C196 H215 0.930 . S
C197 C200 1.424 . S
C197 C202 1.245 1_655 S
C197 C203 1.428 . S
C198 C201 1.260 1_455 S
C198 C202 1.477 . S
C198 H216 0.932 . S
C199 C200 1.384 . S
C199 C201 1.479 . S
C199 H217 0.929 . S
C200 C197 1.424 . S
C200 C199 1.384 . S
C200 H218 0.928 . S
C201 C198 1.260 1_655 S
C201 C199 1.479 . S
C202 C197 1.245 1_455 S
C202 C198 1.477 . S
C202 H219 0.932 . S
C203 U186 2.882 . S
C203 C197 1.428 . S
C203 O206 1.301 1_655 S
C203 O207 1.282 . S
O204 U186 2.441 . S
O204 C190 1.249 . S
O205 U186 2.420 . S
O205 C190 1.202 . S
O206 U186 2.455 1_455 S
O206 C203 1.301 1_455 S
O207 U186 2.449 . S
O207 C203 1.282 . S
H208 C181 0.931 . S
H209 C183 0.929 . S
H210 C184 0.930 . S
H211 C185 0.931 . S
H212 C192 0.932 . S
H213 C193 0.930 . S
H214 C194 0.929 . S
H215 C196 0.930 . S
H216 C198 0.932 . S
H217 C199 0.929 . S
H218 C200 0.928 . S
H219 C202 0.932 . S
C220 C221 1.264 . S
C220 C225 1.479 . S
C220 C230 1.465 . S
C221 C220 1.264 . S
C221 C223 1.339 . S
C221 H248 0.931 . S
C222 C223 1.395 . S
C222 C224 1.320 . S
C223 C221 1.339 . S
C223 C222 1.395 . S
C223 H249 0.929 . S
C224 C222 1.320 . S
C224 C225 1.405 . S
C224 H250 0.930 . S
C225 C220 1.479 . S
C225 C224 1.405 . S
C225 H251 0.931 . S
U226 O227 2.454 . S
U226 O228 2.458 . S
U226 C229 2.984 . S
U226 C230 2.847 1_545 S
U226 C243 2.882 . S
U226 O244 2.441 1_545 S
U226 O245 2.420 1_545 S
U226 O246 2.455 . S
U226 O247 2.449 1_545 S
O227 U226 2.454 . S
O227 C229 1.353 . S
O228 U226 2.458 . S
O228 C229 1.286 . S
C229 U226 2.984 . S
C229 O227 1.353 . S
C229 O228 1.286 . S
C229 C231 1.363 . S
C230 C220 1.465 . S
C230 U226 2.847 1_565 S
C230 O244 1.249 . S
C230 O245 1.202 . S
C231 C229 1.363 . S
C231 C233 1.408 . S
C231 C236 1.342 . S
C232 C233 1.310 . S
C232 C235 1.461 . S
C232 H252 0.932 . S
C233 C231 1.408 . S
C233 C232 1.310 . S
C233 H253 0.930 . S
C234 C235 1.474 . S
C234 C236 1.285 . S
C234 H254 0.929 . S
C235 C232 1.461 . S
C235 C234 1.474 . S
C236 C231 1.342 . S
C236 C234 1.285 . S
C236 H255 0.930 . S
C237 C240 1.424 1_545 S
C237 C242 1.245 . S
C237 C243 1.428 . S
C238 C241 1.260 . S
C238 C242 1.477 . S
C238 H256 0.932 . S
C239 C240 1.384 . S
C239 C241 1.479 1_565 S
C239 H257 0.929 . S
C240 C237 1.424 1_565 S
C240 C239 1.384 . S
C240 H258 0.928 . S
C241 C238 1.260 . S
C241 C239 1.479 1_545 S
C242 C237 1.245 . S
C242 C238 1.477 . S
C242 H259 0.932 . S
C243 U226 2.882 . S
C243 C237 1.428 . S
C243 O246 1.301 . S
C243 O247 1.282 1_545 S
O244 U226 2.441 1_565 S
O244 C230 1.249 . S
O245 U226 2.420 1_565 S
O245 C230 1.202 . S
O246 U226 2.455 . S
O246 C243 1.301 . S
O247 U226 2.449 1_565 S
O247 C243 1.282 1_565 S
H248 C221 0.931 . S
H249 C223 0.929 . S
H250 C224 0.930 . S
H251 C225 0.931 . S
H252 C232 0.932 . S
H253 C233 0.930 . S
H254 C234 0.929 . S
H255 C236 0.930 . S
H256 C238 0.932 . S
H257 C239 0.929 . S
H258 C240 0.928 . S
H259 C242 0.932 . S
C260 C261 1.264 . S
C260 C265 1.479 . S
C260 C270 1.465 . S
C261 C260 1.264 . S
C261 C263 1.339 . S
C261 H288 0.931 . S
C262 C263 1.395 . S
C262 C264 1.320 . S
C263 C261 1.339 . S
C263 C262 1.395 . S
C263 H289 0.929 . S
C264 C262 1.320 . S
C264 C265 1.405 . S
C264 H290 0.930 . S
C265 C260 1.479 . S
C265 C264 1.405 . S
C265 H291 0.931 . S
U266 O267 2.454 . S
U266 O268 2.458 . S
U266 C269 2.984 . S
U266 C270 2.847 . S
U266 C283 2.882 . S
U266 O284 2.441 . S
U266 O285 2.420 . S
U266 O286 2.455 . S
U266 O287 2.449 . S
O267 U266 2.454 . S
O267 C269 1.353 . S
O268 U266 2.458 . S
O268 C269 1.286 . S
C269 U266 2.984 . S
C269 O267 1.353 . S
C269 O268 1.286 . S
C269 C271 1.363 . S
C270 C260 1.465 . S
C270 U266 2.847 . S
C270 O284 1.249 . S
C270 O285 1.202 . S
C271 C269 1.363 . S
C271 C273 1.408 . S
C271 C276 1.342 . S
C272 C273 1.310 . S
C272 C275 1.461 . S
C272 H292 0.932 . S
C273 C271 1.408 . S
C273 C272 1.310 . S
C273 H293 0.930 . S
C274 C275 1.474 . S
C274 C276 1.285 . S
C274 H294 0.929 . S
C275 C272 1.461 . S
C275 C274 1.474 . S
C276 C271 1.342 . S
C276 C274 1.285 . S
C276 H295 0.930 . S
C277 C280 1.424 . S
C277 C282 1.245 . S
C277 C283 1.428 . S
C278 C281 1.260 . S
C278 C282 1.477 . S
C278 H296 0.932 . S
C279 C280 1.384 . S
C279 C281 1.479 . S
C279 H297 0.929 . S
C280 C277 1.424 . S
C280 C279 1.384 . S
C280 H298 0.928 . S
C281 C278 1.260 . S
C281 C279 1.479 . S
C282 C277 1.245 . S
C282 C278 1.477 . S
C282 H299 0.932 . S
C283 U266 2.882 . S
C283 C277 1.428 . S
C283 O286 1.301 . S
C283 O287 1.282 . S
O284 U266 2.441 . S
O284 C270 1.249 . S
O285 U266 2.420 . S
O285 C270 1.202 . S
O286 U266 2.455 . S
O286 C283 1.301 . S
O287 U266 2.449 . S
O287 C283 1.282 . S
H288 C261 0.931 . S
H289 C263 0.929 . S
H290 C264 0.930 . S
H291 C265 0.931 . S
H292 C272 0.932 . S
H293 C273 0.930 . S
H294 C274 0.929 . S
H295 C276 0.930 . S
H296 C278 0.932 . S
H297 C279 0.929 . S
H298 C280 0.928 . S
H299 C282 0.932 . S
C300 C301 1.391 . S
C300 C302 1.394 . S
C300 H316 0.931 . S
C301 C300 1.391 . S
C301 C305 1.376 . S
C302 C300 1.394 . S
C302 C303 1.369 . S
C302 C306 1.531 . S
C303 C302 1.369 . S
C303 C304 1.410 . S
C303 C311 1.503 . S
C304 C303 1.410 . S
C304 C305 1.392 . S
C304 C307 1.511 . S
C305 C301 1.376 . S
C305 C304 1.392 . S
C305 H317 0.929 . S
C306 C302 1.531 . S
C306 H318 0.960 . S
C306 H319 0.962 . S
C306 H320 0.960 . S
C307 C304 1.511 . S
C307 H321 0.961 . S
C307 H322 0.961 . S
C307 H323 0.961 . S
C308 C309 1.370 . S
C308 C310 1.363 . S
C308 H324 0.931 . S
C309 C308 1.370 . S
C309 C313 1.408 . S
C310 C308 1.363 . S
C310 C311 1.370 . S
C310 C314 1.524 . S
C311 C303 1.503 . S
C311 C310 1.370 . S
C311 C312 1.403 . S
C312 C311 1.403 . S
C312 C313 1.404 . S
C312 C315 1.539 . S
C313 C309 1.408 . S
C313 C312 1.404 . S
C313 H325 0.930 . S
C314 C310 1.524 . S
C314 H326 0.956 . S
C314 H327 0.961 . S
C314 H328 0.961 . S
C315 C312 1.539 . S
C315 H329 0.958 . S
C315 H330 0.961 . S
C315 H331 0.960 . S
H316 C300 0.931 . S
H317 C305 0.929 . S
H318 C306 0.960 . S
H319 C306 0.962 . S
H320 C306 0.960 . S
H321 C307 0.961 . S
H322 C307 0.961 . S
H323 C307 0.961 . S
H324 C308 0.931 . S
H325 C313 0.930 . S
H326 C314 0.956 . S
H327 C314 0.961 . S
H328 C314 0.961 . S
H329 C315 0.958 . S
H330 C315 0.961 . S
H331 C315 0.960 . S
C332 C333 1.391 . S
C332 C334 1.394 . S
C332 H348 0.931 . S
C333 C332 1.391 . S
C333 C337 1.376 . S
C334 C332 1.394 . S
C334 C335 1.369 . S
C334 C338 1.531 . S
C335 C334 1.369 . S
C335 C336 1.410 . S
C335 C343 1.503 . S
C336 C335 1.410 . S
C336 C337 1.392 . S
C336 C339 1.511 . S
C337 C333 1.376 . S
C337 C336 1.392 . S
C337 H349 0.929 . S
C338 C334 1.531 . S
C338 H350 0.960 . S
C338 H351 0.962 . S
C338 H352 0.960 . S
C339 C336 1.511 . S
C339 H353 0.961 . S
C339 H354 0.961 . S
C339 H355 0.961 . S
C340 C341 1.370 . S
C340 C342 1.363 . S
C340 H356 0.931 . S
C341 C340 1.370 . S
C341 C345 1.408 . S
C342 C340 1.363 . S
C342 C343 1.370 . S
C342 C346 1.524 . S
C343 C335 1.503 . S
C343 C342 1.370 . S
C343 C344 1.403 . S
C344 C343 1.403 . S
C344 C345 1.404 . S
C344 C347 1.539 . S
C345 C341 1.408 . S
C345 C344 1.404 . S
C345 H357 0.930 . S
C346 C342 1.524 . S
C346 H358 0.956 . S
C346 H359 0.961 . S
C346 H360 0.961 . S
C347 C344 1.539 . S
C347 H361 0.958 . S
C347 H362 0.961 . S
C347 H363 0.960 . S
H348 C332 0.931 . S
H349 C337 0.929 . S
H350 C338 0.960 . S
H351 C338 0.962 . S
H352 C338 0.960 . S
H353 C339 0.961 . S
H354 C339 0.961 . S
H355 C339 0.961 . S
H356 C340 0.931 . S
H357 C345 0.930 . S
H358 C346 0.956 . S
H359 C346 0.961 . S
H360 C346 0.961 . S
H361 C347 0.958 . S
H362 C347 0.961 . S
H363 C347 0.960 . S
C364 C365 1.391 . S
C364 C366 1.394 . S
C364 H380 0.931 . S
C365 C364 1.391 . S
C365 C369 1.376 . S
C366 C364 1.394 . S
C366 C367 1.369 . S
C366 C370 1.531 . S
C367 C366 1.369 . S
C367 C368 1.410 . S
C367 C375 1.503 . S
C368 C367 1.410 . S
C368 C369 1.392 . S
C368 C371 1.511 . S
C369 C365 1.376 . S
C369 C368 1.392 . S
C369 H381 0.929 . S
C370 C366 1.531 . S
C370 H382 0.960 . S
C370 H383 0.962 . S
C370 H384 0.960 . S
C371 C368 1.511 . S
C371 H385 0.961 . S
C371 H386 0.961 . S
C371 H387 0.961 . S
C372 C373 1.370 . S
C372 C374 1.363 . S
C372 H388 0.931 . S
C373 C372 1.370 . S
C373 C377 1.408 . S
C374 C372 1.363 . S
C374 C375 1.370 . S
C374 C378 1.524 . S
C375 C367 1.503 . S
C375 C374 1.370 . S
C375 C376 1.403 . S
C376 C375 1.403 . S
C376 C377 1.404 . S
C376 C379 1.539 . S
C377 C373 1.408 . S
C377 C376 1.404 . S
C377 H389 0.930 . S
C378 C374 1.524 . S
C378 H390 0.956 . S
C378 H391 0.961 . S
C378 H392 0.961 . S
C379 C376 1.539 . S
C379 H393 0.958 . S
C379 H394 0.961 . S
C379 H395 0.960 . S
H380 C364 0.931 . S
H381 C369 0.929 . S
H382 C370 0.960 . S
H383 C370 0.962 . S
H384 C370 0.960 . S
H385 C371 0.961 . S
H386 C371 0.961 . S
H387 C371 0.961 . S
H388 C372 0.931 . S
H389 C377 0.930 . S
H390 C378 0.956 . S
H391 C378 0.961 . S
H392 C378 0.961 . S
H393 C379 0.958 . S
H394 C379 0.961 . S
H395 C379 0.960 . S
C396 C397 1.391 . S
C396 C398 1.394 . S
C396 H412 0.931 . S
C397 C396 1.391 . S
C397 C401 1.376 . S
C398 C396 1.394 . S
C398 C399 1.369 . S
C398 C402 1.531 . S
C399 C398 1.369 . S
C399 C400 1.410 . S
C399 C407 1.503 . S
C400 C399 1.410 . S
C400 C401 1.392 . S
C400 C403 1.511 . S
C401 C397 1.376 . S
C401 C400 1.392 . S
C401 H413 0.929 . S
C402 C398 1.531 . S
C402 H414 0.960 . S
C402 H415 0.962 . S
C402 H416 0.960 . S
C403 C400 1.511 . S
C403 H417 0.961 . S
C403 H418 0.961 . S
C403 H419 0.961 . S
C404 C405 1.370 . S
C404 C406 1.363 . S
C404 H420 0.931 . S
C405 C404 1.370 . S
C405 C409 1.408 . S
C406 C404 1.363 . S
C406 C407 1.370 . S
C406 C410 1.524 . S
C407 C399 1.503 . S
C407 C406 1.370 . S
C407 C408 1.403 . S
C408 C407 1.403 . S
C408 C409 1.404 . S
C408 C411 1.539 . S
C409 C405 1.408 . S
C409 C408 1.404 . S
C409 H421 0.930 . S
C410 C406 1.524 . S
C410 H422 0.956 . S
C410 H423 0.961 . S
C410 H424 0.961 . S
C411 C408 1.539 . S
C411 H425 0.958 . S
C411 H426 0.961 . S
C411 H427 0.960 . S
H412 C396 0.931 . S
H413 C401 0.929 . S
H414 C402 0.960 . S
H415 C402 0.962 . S
H416 C402 0.960 . S
H417 C403 0.961 . S
H418 C403 0.961 . S
H419 C403 0.961 . S
H420 C404 0.931 . S
H421 C409 0.930 . S
H422 C410 0.956 . S
H423 C410 0.961 . S
H424 C410 0.961 . S
H425 C411 0.958 . S
H426 C411 0.961 . S
H427 C411 0.960 . S
C428 C429 1.391 . S
C428 C430 1.394 . S
C428 H444 0.931 . S
C429 C428 1.391 . S
C429 C433 1.376 . S
C430 C428 1.394 . S
C430 C431 1.369 . S
C430 C434 1.531 . S
C431 C430 1.369 . S
C431 C432 1.410 . S
C431 C439 1.503 . S
C432 C431 1.410 . S
C432 C433 1.392 . S
C432 C435 1.511 . S
C433 C429 1.376 . S
C433 C432 1.392 . S
C433 H445 0.929 . S
C434 C430 1.531 . S
C434 H446 0.960 . S
C434 H447 0.962 . S
C434 H448 0.960 . S
C435 C432 1.511 . S
C435 H449 0.961 . S
C435 H450 0.961 . S
C435 H451 0.961 . S
C436 C437 1.370 . S
C436 C438 1.363 . S
C436 H452 0.931 . S
C437 C436 1.370 . S
C437 C441 1.408 . S
C438 C436 1.363 . S
C438 C439 1.370 . S
C438 C442 1.524 . S
C439 C431 1.503 . S
C439 C438 1.370 . S
C439 C440 1.403 . S
C440 C439 1.403 . S
C440 C441 1.404 . S
C440 C443 1.539 . S
C441 C437 1.408 . S
C441 C440 1.404 . S
C441 H453 0.930 . S
C442 C438 1.524 . S
C442 H454 0.956 . S
C442 H455 0.961 . S
C442 H456 0.961 . S
C443 C440 1.539 . S
C443 H457 0.958 . S
C443 H458 0.961 . S
C443 H459 0.960 . S
H444 C428 0.931 . S
H445 C433 0.929 . S
H446 C434 0.960 . S
H447 C434 0.962 . S
H448 C434 0.960 . S
H449 C435 0.961 . S
H450 C435 0.961 . S
H451 C435 0.961 . S
H452 C436 0.931 . S
H453 C441 0.930 . S
H454 C442 0.956 . S
H455 C442 0.961 . S
H456 C442 0.961 . S
H457 C443 0.958 . S
H458 C443 0.961 . S
H459 C443 0.960 . S
C460 C461 1.391 . S
C460 C462 1.394 . S
C460 H476 0.931 . S
C461 C460 1.391 . S
C461 C465 1.376 . S
C462 C460 1.394 . S
C462 C463 1.369 . S
C462 C466 1.531 . S
C463 C462 1.369 . S
C463 C464 1.410 . S
C463 C471 1.503 . S
C464 C463 1.410 . S
C464 C465 1.392 . S
C464 C467 1.511 . S
C465 C461 1.376 . S
C465 C464 1.392 . S
C465 H477 0.929 . S
C466 C462 1.531 . S
C466 H478 0.960 . S
C466 H479 0.962 . S
C466 H480 0.960 . S
C467 C464 1.511 . S
C467 H481 0.961 . S
C467 H482 0.961 . S
C467 H483 0.961 . S
C468 C469 1.370 . S
C468 C470 1.363 . S
C468 H484 0.931 . S
C469 C468 1.370 . S
C469 C473 1.408 . S
C470 C468 1.363 . S
C470 C471 1.370 . S
C470 C474 1.524 . S
C471 C463 1.503 . S
C471 C470 1.370 . S
C471 C472 1.403 . S
C472 C471 1.403 . S
C472 C473 1.404 . S
C472 C475 1.539 . S
C473 C469 1.408 . S
C473 C472 1.404 . S
C473 H485 0.930 . S
C474 C470 1.524 . S
C474 H486 0.956 . S
C474 H487 0.961 . S
C474 H488 0.961 . S
C475 C472 1.539 . S
C475 H489 0.958 . S
C475 H490 0.961 . S
C475 H491 0.960 . S
H476 C460 0.931 . S
H477 C465 0.929 . S
H478 C466 0.960 . S
H479 C466 0.962 . S
H480 C466 0.960 . S
H481 C467 0.961 . S
H482 C467 0.961 . S
H483 C467 0.961 . S
H484 C468 0.931 . S
H485 C473 0.930 . S
H486 C474 0.956 . S
H487 C474 0.961 . S
H488 C474 0.961 . S
H489 C475 0.958 . S
H490 C475 0.961 . S
H491 C475 0.960 . S
C492 C493 1.391 . S
C492 C494 1.394 . S
C492 H508 0.931 . S
C493 C492 1.391 . S
C493 C497 1.376 . S
C494 C492 1.394 . S
C494 C495 1.369 . S
C494 C498 1.531 . S
C495 C494 1.369 . S
C495 C496 1.410 . S
C495 C503 1.503 . S
C496 C495 1.410 . S
C496 C497 1.392 . S
C496 C499 1.511 . S
C497 C493 1.376 . S
C497 C496 1.392 . S
C497 H509 0.929 . S
C498 C494 1.531 . S
C498 H510 0.960 . S
C498 H511 0.962 . S
C498 H512 0.960 . S
C499 C496 1.511 . S
C499 H513 0.961 . S
C499 H514 0.961 . S
C499 H515 0.961 . S
C500 C501 1.370 . S
C500 C502 1.363 . S
C500 H516 0.931 . S
C501 C500 1.370 . S
C501 C505 1.408 . S
C502 C500 1.363 . S
C502 C503 1.370 . S
C502 C506 1.524 . S
C503 C495 1.503 . S
C503 C502 1.370 . S
C503 C504 1.403 . S
C504 C503 1.403 . S
C504 C505 1.404 . S
C504 C507 1.539 . S
C505 C501 1.408 . S
C505 C504 1.404 . S
C505 H517 0.930 . S
C506 C502 1.524 . S
C506 H518 0.956 . S
C506 H519 0.961 . S
C506 H520 0.961 . S
C507 C504 1.539 . S
C507 H521 0.958 . S
C507 H522 0.961 . S
C507 H523 0.960 . S
H508 C492 0.931 . S
H509 C497 0.929 . S
H510 C498 0.960 . S
H511 C498 0.962 . S
H512 C498 0.960 . S
H513 C499 0.961 . S
H514 C499 0.961 . S
H515 C499 0.961 . S
H516 C500 0.931 . S
H517 C505 0.930 . S
H518 C506 0.956 . S
H519 C506 0.961 . S
H520 C506 0.961 . S
H521 C507 0.958 . S
H522 C507 0.961 . S
H523 C507 0.960 . S
C524 C525 1.391 . S
C524 C526 1.394 . S
C524 H540 0.931 . S
C525 C524 1.391 . S
C525 C529 1.376 . S
C526 C524 1.394 . S
C526 C527 1.369 . S
C526 C530 1.531 . S
C527 C526 1.369 . S
C527 C528 1.410 . S
C527 C535 1.503 . S
C528 C527 1.410 . S
C528 C529 1.392 . S
C528 C531 1.511 . S
C529 C525 1.376 . S
C529 C528 1.392 . S
C529 H541 0.929 . S
C530 C526 1.531 . S
C530 H542 0.960 . S
C530 H543 0.962 . S
C530 H544 0.960 . S
C531 C528 1.511 . S
C531 H545 0.961 . S
C531 H546 0.961 . S
C531 H547 0.961 . S
C532 C533 1.370 . S
C532 C534 1.363 . S
C532 H548 0.931 . S
C533 C532 1.370 . S
C533 C537 1.408 . S
C534 C532 1.363 . S
C534 C535 1.370 . S
C534 C538 1.524 . S
C535 C527 1.503 . S
C535 C534 1.370 . S
C535 C536 1.403 . S
C536 C535 1.403 . S
C536 C537 1.404 . S
C536 C539 1.539 . S
C537 C533 1.408 . S
C537 C536 1.404 . S
C537 H549 0.930 . S
C538 C534 1.524 . S
C538 H550 0.956 . S
C538 H551 0.961 . S
C538 H552 0.961 . S
C539 C536 1.539 . S
C539 H553 0.958 . S
C539 H554 0.961 . S
C539 H555 0.960 . S
H540 C524 0.931 . S
H541 C529 0.929 . S
H542 C530 0.960 . S
H543 C530 0.962 . S
H544 C530 0.960 . S
H545 C531 0.961 . S
H546 C531 0.961 . S
H547 C531 0.961 . S
H548 C532 0.931 . S
H549 C537 0.930 . S
H550 C538 0.956 . S
H551 C538 0.961 . S
H552 C538 0.961 . S
H553 C539 0.958 . S
H554 C539 0.961 . S
H555 C539 0.960 . S
C556 C557 1.391 . S
C556 C558 1.394 . S
C556 H572 0.931 . S
C557 C556 1.391 . S
C557 C561 1.376 . S
C558 C556 1.394 . S
C558 C559 1.369 . S
C558 C562 1.531 . S
C559 C558 1.369 . S
C559 C560 1.410 . S
C559 C567 1.503 . S
C560 C559 1.410 . S
C560 C561 1.392 . S
C560 C563 1.511 . S
C561 C557 1.376 . S
C561 C560 1.392 . S
C561 H573 0.929 . S
C562 C558 1.531 . S
C562 H574 0.960 . S
C562 H575 0.962 . S
C562 H576 0.960 . S
C563 C560 1.511 . S
C563 H577 0.961 . S
C563 H578 0.961 . S
C563 H579 0.961 . S
C564 C565 1.370 . S
C564 C566 1.363 . S
C564 H580 0.931 . S
C565 C564 1.370 . S
C565 C569 1.408 . S
C566 C564 1.363 . S
C566 C567 1.370 . S
C566 C570 1.524 . S
C567 C559 1.503 . S
C567 C566 1.370 . S
C567 C568 1.403 . S
C568 C567 1.403 . S
C568 C569 1.404 . S
C568 C571 1.539 . S
C569 C565 1.408 . S
C569 C568 1.404 . S
C569 H581 0.930 . S
C570 C566 1.524 . S
C570 H582 0.956 . S
C570 H583 0.961 . S
C570 H584 0.961 . S
C571 C568 1.539 . S
C571 H585 0.958 . S
C571 H586 0.961 . S
C571 H587 0.960 . S
H572 C556 0.931 . S
H573 C561 0.929 . S
H574 C562 0.960 . S
H575 C562 0.962 . S
H576 C562 0.960 . S
H577 C563 0.961 . S
H578 C563 0.961 . S
H579 C563 0.961 . S
H580 C564 0.931 . S
H581 C569 0.930 . S
H582 C570 0.956 . S
H583 C570 0.961 . S
H584 C570 0.961 . S
H585 C571 0.958 . S
H586 C571 0.961 . S
H587 C571 0.960 . S
C588 C589 1.391 . S
C588 C590 1.394 . S
C588 H604 0.931 . S
C589 C588 1.391 . S
C589 C593 1.376 . S
C590 C588 1.394 . S
C590 C591 1.369 . S
C590 C594 1.531 . S
C591 C590 1.369 . S
C591 C592 1.410 . S
C591 C599 1.503 . S
C592 C591 1.410 . S
C592 C593 1.392 . S
C592 C595 1.511 . S
C593 C589 1.376 . S
C593 C592 1.392 . S
C593 H605 0.929 . S
C594 C590 1.531 . S
C594 H606 0.960 . S
C594 H607 0.962 . S
C594 H608 0.960 . S
C595 C592 1.511 . S
C595 H609 0.961 . S
C595 H610 0.961 . S
C595 H611 0.961 . S
C596 C597 1.370 . S
C596 C598 1.363 . S
C596 H612 0.931 . S
C597 C596 1.370 . S
C597 C601 1.408 . S
C598 C596 1.363 . S
C598 C599 1.370 . S
C598 C602 1.524 . S
C599 C591 1.503 . S
C599 C598 1.370 . S
C599 C600 1.403 . S
C600 C599 1.403 . S
C600 C601 1.404 . S
C600 C603 1.539 . S
C601 C597 1.408 . S
C601 C600 1.404 . S
C601 H613 0.930 . S
C602 C598 1.524 . S
C602 H614 0.956 . S
C602 H615 0.961 . S
C602 H616 0.961 . S
C603 C600 1.539 . S
C603 H617 0.958 . S
C603 H618 0.961 . S
C603 H619 0.960 . S
H604 C588 0.931 . S
H605 C593 0.929 . S
H606 C594 0.960 . S
H607 C594 0.962 . S
H608 C594 0.960 . S
H609 C595 0.961 . S
H610 C595 0.961 . S
H611 C595 0.961 . S
H612 C596 0.931 . S
H613 C601 0.930 . S
H614 C602 0.956 . S
H615 C602 0.961 . S
H616 C602 0.961 . S
H617 C603 0.958 . S
H618 C603 0.961 . S
H619 C603 0.960 . S
C620 C621 1.391 . S
C620 C622 1.394 . S
C620 H636 0.931 . S
C621 C620 1.391 . S
C621 C625 1.376 . S
C622 C620 1.394 . S
C622 C623 1.369 . S
C622 C626 1.531 . S
C623 C622 1.369 . S
C623 C624 1.410 . S
C623 C631 1.503 . S
C624 C623 1.410 . S
C624 C625 1.392 . S
C624 C627 1.511 . S
C625 C621 1.376 . S
C625 C624 1.392 . S
C625 H637 0.929 . S
C626 C622 1.531 . S
C626 H638 0.960 . S
C626 H639 0.962 . S
C626 H640 0.960 . S
C627 C624 1.511 . S
C627 H641 0.961 . S
C627 H642 0.961 . S
C627 H643 0.961 . S
C628 C629 1.370 . S
C628 C630 1.363 . S
C628 H644 0.931 . S
C629 C628 1.370 . S
C629 C633 1.408 . S
C630 C628 1.363 . S
C630 C631 1.370 . S
C630 C634 1.524 . S
C631 C623 1.503 . S
C631 C630 1.370 . S
C631 C632 1.403 . S
C632 C631 1.403 . S
C632 C633 1.404 . S
C632 C635 1.539 . S
C633 C629 1.408 . S
C633 C632 1.404 . S
C633 H645 0.930 . S
C634 C630 1.524 . S
C634 H646 0.956 . S
C634 H647 0.961 . S
C634 H648 0.961 . S
C635 C632 1.539 . S
C635 H649 0.958 . S
C635 H650 0.961 . S
C635 H651 0.960 . S
H636 C620 0.931 . S
H637 C625 0.929 . S
H638 C626 0.960 . S
H639 C626 0.962 . S
H640 C626 0.960 . S
H641 C627 0.961 . S
H642 C627 0.961 . S
H643 C627 0.961 . S
H644 C628 0.931 . S
H645 C633 0.930 . S
H646 C634 0.956 . S
H647 C634 0.961 . S
H648 C634 0.961 . S
H649 C635 0.958 . S
H650 C635 0.961 . S
H651 C635 0.960 . S
C652 C653 1.391 . S
C652 C654 1.394 . S
C652 H668 0.931 . S
C653 C652 1.391 . S
C653 C657 1.376 . S
C654 C652 1.394 . S
C654 C655 1.369 . S
C654 C658 1.531 . S
C655 C654 1.369 . S
C655 C656 1.410 . S
C655 C663 1.503 . S
C656 C655 1.410 . S
C656 C657 1.392 . S
C656 C659 1.511 . S
C657 C653 1.376 . S
C657 C656 1.392 . S
C657 H669 0.929 . S
C658 C654 1.531 . S
C658 H670 0.960 . S
C658 H671 0.962 . S
C658 H672 0.960 . S
C659 C656 1.511 . S
C659 H673 0.961 . S
C659 H674 0.961 . S
C659 H675 0.961 . S
C660 C661 1.370 . S
C660 C662 1.363 . S
C660 H676 0.931 . S
C661 C660 1.370 . S
C661 C665 1.408 . S
C662 C660 1.363 . S
C662 C663 1.370 . S
C662 C666 1.524 . S
C663 C655 1.503 . S
C663 C662 1.370 . S
C663 C664 1.403 . S
C664 C663 1.403 . S
C664 C665 1.404 . S
C664 C667 1.539 . S
C665 C661 1.408 . S
C665 C664 1.404 . S
C665 H677 0.930 . S
C666 C662 1.524 . S
C666 H678 0.956 . S
C666 H679 0.961 . S
C666 H680 0.961 . S
C667 C664 1.539 . S
C667 H681 0.958 . S
C667 H682 0.961 . S
C667 H683 0.960 . S
H668 C652 0.931 . S
H669 C657 0.929 . S
H670 C658 0.960 . S
H671 C658 0.962 . S
H672 C658 0.960 . S
H673 C659 0.961 . S
H674 C659 0.961 . S
H675 C659 0.961 . S
H676 C660 0.931 . S
H677 C665 0.930 . S
H678 C666 0.956 . S
H679 C666 0.961 . S
H680 C666 0.961 . S
H681 C667 0.958 . S
H682 C667 0.961 . S
H683 C667 0.960 . S
C684 C685 1.391 . S
C684 C686 1.394 . S
C684 H700 0.931 . S
C685 C684 1.391 . S
C685 C689 1.376 . S
C686 C684 1.394 . S
C686 C687 1.369 . S
C686 C690 1.531 . S
C687 C686 1.369 . S
C687 C688 1.410 . S
C687 C695 1.503 . S
C688 C687 1.410 . S
C688 C689 1.392 . S
C688 C691 1.511 . S
C689 C685 1.376 . S
C689 C688 1.392 . S
C689 H701 0.929 . S
C690 C686 1.531 . S
C690 H702 0.960 . S
C690 H703 0.962 . S
C690 H704 0.960 . S
C691 C688 1.511 . S
C691 H705 0.961 . S
C691 H706 0.961 . S
C691 H707 0.961 1_455 S
C692 C693 1.370 . S
C692 C694 1.363 . S
C692 H708 0.931 . S
C693 C692 1.370 . S
C693 C697 1.408 . S
C694 C692 1.363 . S
C694 C695 1.370 . S
C694 C698 1.524 . S
C695 C687 1.503 . S
C695 C694 1.370 . S
C695 C696 1.403 . S
C696 C695 1.403 . S
C696 C697 1.404 . S
C696 C699 1.539 1_455 S
C697 C693 1.408 . S
C697 C696 1.404 . S
C697 H709 0.950 . S
C698 C694 1.524 . S
C698 H710 0.956 . S
C698 H711 0.961 . S
C698 H712 0.961 . S
C699 C696 1.539 1_655 S
C699 H713 0.958 . S
C699 H714 0.961 . S
C699 H715 0.960 . S
H700 C684 0.931 . S
H701 C689 0.929 . S
H702 C690 0.960 . S
H703 C690 0.962 . S
H704 C690 0.960 . S
H705 C691 0.961 . S
H706 C691 0.961 . S
H707 C691 0.961 1_655 S
H708 C692 0.931 . S
H709 C697 0.950 . S
H710 C698 0.956 . S
H711 C698 0.961 . S
H712 C698 0.961 . S
H713 C699 0.958 . S
H714 C699 0.961 . S
H715 C699 0.960 . S
C716 C717 1.391 . S
C716 C718 1.394 . S
C716 H732 0.931 . S
C717 C716 1.391 . S
C717 C721 1.376 . S
C718 C716 1.394 . S
C718 C719 1.369 . S
C718 C722 1.531 . S
C719 C718 1.369 . S
C719 C720 1.410 . S
C719 C727 1.503 . S
C720 C719 1.410 . S
C720 C721 1.392 . S
C720 C723 1.511 . S
C721 C717 1.376 . S
C721 C720 1.392 . S
C721 H733 0.929 . S
C722 C718 1.531 . S
C722 H734 0.960 1_545 S
C722 H735 0.962 . S
C722 H736 0.960 1_545 S
C723 C720 1.511 . S
C723 H737 0.961 . S
C723 H738 0.961 . S
C723 H739 0.961 . S
C724 C725 1.370 . S
C724 C726 1.363 . S
C724 H740 0.931 . S
C725 C724 1.370 . S
C725 C729 1.408 . S
C726 C724 1.363 . S
C726 C727 1.370 . S
C726 C730 1.524 . S
C727 C719 1.503 . S
C727 C726 1.370 . S
C727 C728 1.403 . S
C728 C727 1.403 . S
C728 C729 1.404 . S
C728 C731 1.539 1_545 S
C729 C725 1.408 . S
C729 C728 1.404 . S
C729 H741 0.930 . S
C730 C726 1.524 . S
C730 H742 0.956 . S
C730 H743 0.961 . S
C730 H744 0.961 . S
C731 C728 1.539 1_565 S
C731 H745 0.958 . S
C731 H746 0.961 . S
C731 H747 0.960 . S
H732 C716 0.931 . S
H733 C721 0.929 . S
H734 C722 0.960 1_565 S
H735 C722 0.962 . S
H736 C722 0.960 1_565 S
H737 C723 0.961 . S
H738 C723 0.961 . S
H739 C723 0.961 . S
H740 C724 0.931 . S
H741 C729 0.930 . S
H742 C730 0.956 . S
H743 C730 0.961 . S
H744 C730 0.961 . S
H745 C731 0.958 . S
H746 C731 0.961 . S
H747 C731 0.960 . S
C748 C749 1.391 . S
C748 C750 1.394 . S
C748 H764 0.931 . S
C749 C748 1.391 . S
C749 C753 1.376 . S
C750 C748 1.394 . S
C750 C751 1.369 . S
C750 C754 1.531 . S
C751 C750 1.369 . S
C751 C752 1.410 . S
C751 C759 1.503 . S
C752 C751 1.410 . S
C752 C753 1.392 . S
C752 C755 1.511 . S
C753 C749 1.376 . S
C753 C752 1.392 . S
C753 H765 0.929 . S
C754 C750 1.531 . S
C754 H766 0.960 . S
C754 H767 0.962 . S
C754 H768 0.960 . S
C755 C752 1.511 . S
C755 H769 0.961 . S
C755 H770 0.961 . S
C755 H771 0.961 . S
C756 C757 1.370 . S
C756 C758 1.363 . S
C756 H772 0.931 . S
C757 C756 1.370 . S
C757 C761 1.408 . S
C758 C756 1.363 . S
C758 C759 1.370 . S
C758 C762 1.524 . S
C759 C751 1.503 . S
C759 C758 1.370 . S
C759 C760 1.403 . S
C760 C759 1.403 . S
C760 C761 1.404 . S
C760 C763 1.539 . S
C761 C757 1.408 . S
C761 C760 1.404 . S
C761 H773 0.930 . S
C762 C758 1.524 . S
C762 H774 0.956 . S
C762 H775 0.961 . S
C762 H776 0.961 . S
C763 C760 1.539 . S
C763 H777 0.958 . S
C763 H778 0.961 . S
C763 H779 0.960 . S
H764 C748 0.931 . S
H765 C753 0.929 . S
H766 C754 0.960 . S
H767 C754 0.962 . S
H768 C754 0.960 . S
H769 C755 0.961 . S
H770 C755 0.961 . S
H771 C755 0.961 . S
H772 C756 0.931 . S
H773 C761 0.930 . S
H774 C762 0.956 . S
H775 C762 0.961 . S
H776 C762 0.961 . S
H777 C763 0.958 . S
H778 C763 0.961 . S
H779 C763 0.960 . S
C780 C781 1.391 1_565 S
C780 C782 1.394 . S
C780 H796 0.931 . S
C781 C780 1.391 1_545 S
C781 C785 1.376 . S
C782 C780 1.394 . S
C782 C783 1.369 1_565 S
C782 C786 1.531 . S
C783 C782 1.369 1_545 S
C783 C784 1.410 . S
C783 C791 1.503 . S
C784 C783 1.410 . S
C784 C785 1.392 . S
C784 C787 1.511 . S
C785 C781 1.376 . S
C785 C784 1.392 . S
C785 H797 0.929 . S
C786 C782 1.531 . S
C786 H798 0.960 . S
C786 H799 0.962 . S
C786 H800 0.960 . S
C787 C784 1.511 . S
C787 H801 0.961 . S
C787 H802 0.961 . S
C787 H803 0.961 . S
C788 C789 1.370 . S
C788 C790 1.363 . S
C788 H804 0.931 . S
C789 C788 1.370 . S
C789 C793 1.408 1_545 S
C790 C788 1.363 . S
C790 C791 1.370 . S
C790 C794 1.524 . S
C791 C783 1.503 . S
C791 C790 1.370 . S
C791 C792 1.403 1_545 S
C792 C791 1.403 1_565 S
C792 C793 1.404 . S
C792 C795 1.539 . S
C793 C789 1.408 1_565 S
C793 C792 1.404 . S
C793 H805 0.930 . S
C794 C790 1.524 . S
C794 H806 0.956 . S
C794 H807 0.961 . S
C794 H808 0.961 . S
C795 C792 1.539 . S
C795 H809 0.958 . S
C795 H810 0.961 1_565 S
C795 H811 0.960 1_565 S
H796 C780 0.931 . S
H797 C785 0.929 . S
H798 C786 0.960 . S
H799 C786 0.962 . S
H800 C786 0.960 . S
H801 C787 0.961 . S
H802 C787 0.961 . S
H803 C787 0.961 . S
H804 C788 0.931 . S
H805 C793 0.930 . S
H806 C794 0.956 . S
H807 C794 0.961 . S
H808 C794 0.961 . S
H809 C795 0.958 . S
H810 C795 0.961 1_545 S
H811 C795 0.960 1_545 S
C812 C813 1.391 . S
C812 C814 1.394 . S
C812 H828 0.931 . S
C813 C812 1.391 . S
C813 C817 1.376 . S
C814 C812 1.394 . S
C814 C815 1.369 . S
C814 C818 1.531 . S
C815 C814 1.369 . S
C815 C816 1.410 . S
C815 C823 1.503 . S
C816 C815 1.410 . S
C816 C817 1.392 . S
C816 C819 1.511 . S
C817 C813 1.376 . S
C817 C816 1.392 . S
C817 H829 0.929 . S
C818 C814 1.531 . S
C818 H830 0.960 . S
C818 H831 0.962 . S
C818 H832 0.960 . S
C819 C816 1.511 . S
C819 H833 0.961 . S
C819 H834 0.961 . S
C819 H835 0.961 . S
C820 C821 1.370 . S
C820 C822 1.363 . S
C820 H836 0.931 . S
C821 C820 1.370 . S
C821 C825 1.408 . S
C822 C820 1.363 . S
C822 C823 1.370 . S
C822 C826 1.524 . S
C823 C815 1.503 . S
C823 C822 1.370 . S
C823 C824 1.403 . S
C824 C823 1.403 . S
C824 C825 1.404 . S
C824 C827 1.539 . S
C825 C821 1.408 . S
C825 C824 1.404 . S
C825 H837 0.930 . S
C826 C822 1.524 . S
C826 H838 0.956 . S
C826 H839 0.961 . S
C826 H840 0.961 . S
C827 C824 1.539 . S
C827 H841 0.958 . S
C827 H842 0.961 . S
C827 H843 0.960 . S
H828 C812 0.931 . S
H829 C817 0.929 . S
H830 C818 0.960 . S
H831 C818 0.962 . S
H832 C818 0.960 . S
H833 C819 0.961 . S
H834 C819 0.961 . S
H835 C819 0.961 . S
H836 C820 0.931 . S
H837 C825 0.930 . S
H838 C826 0.956 . S
H839 C826 0.961 . S
H840 C826 0.961 . S
H841 C827 0.958 . S
H842 C827 0.961 . S
H843 C827 0.960 . S
C844 C845 1.391 1_655 S
C844 C846 1.394 . S
C844 H860 0.931 . S
C845 C844 1.391 1_455 S
C845 C849 1.376 . S
C846 C844 1.394 . S
C846 C847 1.369 1_655 S
C846 C850 1.531 . S
C847 C846 1.369 1_455 S
C847 C848 1.410 . S
C847 C855 1.503 . S
C848 C847 1.410 . S
C848 C849 1.392 . S
C848 C851 1.511 . S
C849 C845 1.376 . S
C849 C848 1.392 . S
C849 H861 0.929 . S
C850 C846 1.531 . S
C850 H862 0.960 . S
C850 H863 0.962 . S
C850 H864 0.960 . S
C851 C848 1.511 . S
C851 H865 0.961 . S
C851 H866 0.961 . S
C851 H867 0.961 . S
C852 C853 1.374 1_455 S
C852 C854 1.366 . S
C852 H868 0.935 . S
C853 C852 1.374 1_655 S
C853 C857 1.408 . S
C854 C852 1.366 . S
C854 C855 1.370 . S
C854 C858 1.524 . S
C855 C847 1.503 . S
C855 C854 1.370 . S
C855 C856 1.403 1_455 S
C856 C855 1.403 1_655 S
C856 C857 1.404 . S
C856 C859 1.539 . S
C857 C853 1.408 . S
C857 C856 1.404 . S
C857 H869 0.930 . S
C858 C854 1.524 . S
C858 H870 0.956 1_455 S
C858 H871 0.961 . S
C858 H872 0.961 . S
C859 C856 1.539 . S
C859 H873 0.958 . S
C859 H874 0.961 1_655 S
C859 H875 0.960 1_655 S
H860 C844 0.931 . S
H861 C849 0.929 . S
H862 C850 0.960 . S
H863 C850 0.962 . S
H864 C850 0.960 . S
H865 C851 0.961 . S
H866 C851 0.961 . S
H867 C851 0.961 . S
H868 C852 0.935 . S
H869 C857 0.930 . S
H870 C858 0.956 1_655 S
H871 C858 0.961 . S
H872 C858 0.961 . S
H873 C859 0.958 . S
H874 C859 0.961 1_455 S
H875 C859 0.960 1_455 S
C301 C8 2.083 . S
C309 C275 2.153 . S
C333 C26 1.349 . S
C341 C182 1.374 . S
C365 C48 1.500 . S
C373 C222 1.584 . S
C397 C19 1.850 . S
C405 C262 1.910 . S
C437 C195 1.599 . S
C429 C36 1.606 . S
C469 C235 1.841 . S
C461 C59 1.826 . S
C493 C28 1.549 . S
C501 C102 1.596 . S
C525 C46 1.276 . S
C533 C142 1.307 . S
C557 C16 1.710 . S
C565 C75 1.680 . S
C597 C115 1.819 . S
C589 C39 1.789 . S
C629 C155 1.071 . S
C621 C56 1.038 . S
C653 C6 1.418 . S
C661 C62 1.407 . S
C693 C161 1.416 1_554 S
C685 C9 1.389 . S
C717 C21 1.498 . S
C725 C81 1.518 . S
C749 C49 1.504 . S
C757 C121 1.500 . S
C789 C241 1.484 . S
C781 C29 1.481 . S
C821 C281 1.593 1_556 S
C813 C41 1.557 . S
C845 C1 1.505 . S
C853 C201 1.524 . S
