# Generated by pormake.
# Topology iac, (4,6)-cn, num edge types: 1
# Building blocks:
#     Node 0, Type 0, BuildingBlock: QUQFOY_clean_sbu_1, # of connection points: 4
#     Node 1, Type 0, BuildingBlock: QUQFOY_clean_sbu_1, # of connection points: 4
#     Node 2, Type 0, BuildingBlock: QUQFOY_clean_sbu_1, # of connection points: 4
#     Node 3, Type 0, BuildingBlock: QUQFOY_clean_sbu_1, # of connection points: 4
#     Node 4, Type 0, BuildingBlock: QUQFOY_clean_sbu_1, # of connection points: 4
#     Node 5, Type 0, BuildingBlock: QUQFOY_clean_sbu_1, # of connection points: 4
#     Node 6, Type 0, BuildingBlock: QUQFOY_clean_sbu_1, # of connection points: 4
#     Node 7, Type 0, BuildingBlock: QUQFOY_clean_sbu_1, # of connection points: 4
#     Node 8, Type 0, BuildingBlock: QUQFOY_clean_sbu_1, # of connection points: 4
#     Node 9, Type 0, BuildingBlock: QUQFOY_clean_sbu_1, # of connection points: 4
#     Node 10, Type 0, BuildingBlock: QUQFOY_clean_sbu_1, # of connection points: 4
#     Node 11, Type 0, BuildingBlock: QUQFOY_clean_sbu_1, # of connection points: 4
#     Node 12, Type 0, BuildingBlock: QUQFOY_clean_sbu_1, # of connection points: 4
#     Node 13, Type 0, BuildingBlock: QUQFOY_clean_sbu_1, # of connection points: 4
#     Node 14, Type 0, BuildingBlock: QUQFOY_clean_sbu_1, # of connection points: 4
#     Node 15, Type 0, BuildingBlock: QUQFOY_clean_sbu_1, # of connection points: 4
#     Node 16, Type 0, BuildingBlock: QUQFOY_clean_sbu_1, # of connection points: 4
#     Node 17, Type 0, BuildingBlock: QUQFOY_clean_sbu_1, # of connection points: 4
#     Node 18, Type 0, BuildingBlock: QUQFOY_clean_sbu_1, # of connection points: 4
#     Node 19, Type 0, BuildingBlock: QUQFOY_clean_sbu_1, # of connection points: 4
#     Node 20, Type 0, BuildingBlock: QUQFOY_clean_sbu_1, # of connection points: 4
#     Node 21, Type 0, BuildingBlock: QUQFOY_clean_sbu_1, # of connection points: 4
#     Node 22, Type 0, BuildingBlock: QUQFOY_clean_sbu_1, # of connection points: 4
#     Node 23, Type 0, BuildingBlock: QUQFOY_clean_sbu_1, # of connection points: 4
#     Node 24, Type 1, BuildingBlock: LEVNOQ01_clean_sbu_1, # of connection points: 6
#     Node 25, Type 1, BuildingBlock: LEVNOQ01_clean_sbu_1, # of connection points: 6
#     Node 26, Type 1, BuildingBlock: LEVNOQ01_clean_sbu_1, # of connection points: 6
#     Node 27, Type 1, BuildingBlock: LEVNOQ01_clean_sbu_1, # of connection points: 6
#     Node 28, Type 1, BuildingBlock: LEVNOQ01_clean_sbu_1, # of connection points: 6
#     Node 29, Type 1, BuildingBlock: LEVNOQ01_clean_sbu_1, # of connection points: 6
#     Node 30, Type 1, BuildingBlock: LEVNOQ01_clean_sbu_1, # of connection points: 6
#     Node 31, Type 1, BuildingBlock: LEVNOQ01_clean_sbu_1, # of connection points: 6
#     Node 32, Type 1, BuildingBlock: LEVNOQ01_clean_sbu_1, # of connection points: 6
#     Node 33, Type 1, BuildingBlock: LEVNOQ01_clean_sbu_1, # of connection points: 6
#     Node 34, Type 1, BuildingBlock: LEVNOQ01_clean_sbu_1, # of connection points: 6
#     Node 35, Type 1, BuildingBlock: LEVNOQ01_clean_sbu_1, # of connection points: 6
#     Node 36, Type 1, BuildingBlock: LEVNOQ01_clean_sbu_1, # of connection points: 6
#     Node 37, Type 1, BuildingBlock: LEVNOQ01_clean_sbu_1, # of connection points: 6
#     Node 38, Type 1, BuildingBlock: LEVNOQ01_clean_sbu_1, # of connection points: 6
#     Node 39, Type 1, BuildingBlock: LEVNOQ01_clean_sbu_1, # of connection points: 6
#     Edge 40, Type (0, 1), None
#     Edge 41, Type (0, 1), None
#     Edge 42, Type (0, 1), None
#     Edge 43, Type (0, 1), None
#     Edge 44, Type (0, 1), None
#     Edge 45, Type (0, 1), None
#     Edge 46, Type (0, 1), None
#     Edge 47, Type (0, 1), None
#     Edge 48, Type (0, 1), None
#     Edge 49, Type (0, 1), None
#     Edge 50, Type (0, 1), None
#     Edge 51, Type (0, 1), None
#     Edge 52, Type (0, 1), None
#     Edge 53, Type (0, 1), None
#     Edge 54, Type (0, 1), None
#     Edge 55, Type (0, 1), None
#     Edge 56, Type (0, 1), None
#     Edge 57, Type (0, 1), None
#     Edge 58, Type (0, 1), None
#     Edge 59, Type (0, 1), None
#     Edge 60, Type (0, 1), None
#     Edge 61, Type (0, 1), None
#     Edge 62, Type (0, 1), None
#     Edge 63, Type (0, 1), None
#     Edge 64, Type (0, 1), None
#     Edge 65, Type (0, 1), None
#     Edge 66, Type (0, 1), None
#     Edge 67, Type (0, 1), None
#     Edge 68, Type (0, 1), None
#     Edge 69, Type (0, 1), None
#     Edge 70, Type (0, 1), None
#     Edge 71, Type (0, 1), None
#     Edge 72, Type (0, 1), None
#     Edge 73, Type (0, 1), None
#     Edge 74, Type (0, 1), None
#     Edge 75, Type (0, 1), None
#     Edge 76, Type (0, 1), None
#     Edge 77, Type (0, 1), None
#     Edge 78, Type (0, 1), None
#     Edge 79, Type (0, 1), None
#     Edge 80, Type (0, 1), None
#     Edge 81, Type (0, 1), None
#     Edge 82, Type (0, 1), None
#     Edge 83, Type (0, 1), None
#     Edge 84, Type (0, 1), None
#     Edge 85, Type (0, 1), None
#     Edge 86, Type (0, 1), None
#     Edge 87, Type (0, 1), None
#     Edge 88, Type (0, 1), None
#     Edge 89, Type (0, 1), None
#     Edge 90, Type (0, 1), None
#     Edge 91, Type (0, 1), None
#     Edge 92, Type (0, 1), None
#     Edge 93, Type (0, 1), None
#     Edge 94, Type (0, 1), None
#     Edge 95, Type (0, 1), None
#     Edge 96, Type (0, 1), None
#     Edge 97, Type (0, 1), None
#     Edge 98, Type (0, 1), None
#     Edge 99, Type (0, 1), None
#     Edge 100, Type (0, 1), None
#     Edge 101, Type (0, 1), None
#     Edge 102, Type (0, 1), None
#     Edge 103, Type (0, 1), None
#     Edge 104, Type (0, 1), None
#     Edge 105, Type (0, 1), None
#     Edge 106, Type (0, 1), None
#     Edge 107, Type (0, 1), None
#     Edge 108, Type (0, 1), None
#     Edge 109, Type (0, 1), None
#     Edge 110, Type (0, 1), None
#     Edge 111, Type (0, 1), None
#     Edge 112, Type (0, 1), None
#     Edge 113, Type (0, 1), None
#     Edge 114, Type (0, 1), None
#     Edge 115, Type (0, 1), None
#     Edge 116, Type (0, 1), None
#     Edge 117, Type (0, 1), None
#     Edge 118, Type (0, 1), None
#     Edge 119, Type (0, 1), None
#     Edge 120, Type (0, 1), None
#     Edge 121, Type (0, 1), None
#     Edge 122, Type (0, 1), None
#     Edge 123, Type (0, 1), None
#     Edge 124, Type (0, 1), None
#     Edge 125, Type (0, 1), None
#     Edge 126, Type (0, 1), None
#     Edge 127, Type (0, 1), None
#     Edge 128, Type (0, 1), None
#     Edge 129, Type (0, 1), None
#     Edge 130, Type (0, 1), None
#     Edge 131, Type (0, 1), None
#     Edge 132, Type (0, 1), None
#     Edge 133, Type (0, 1), None
#     Edge 134, Type (0, 1), None
#     Edge 135, Type (0, 1), None
# Relax obj value: 0.129
# Max RMSD: 0.186
# Mean RMSD: 0.146
data_MOF--net-iac--node1-QUQFOY_clean_sbu_1--node2-LEVNOQ01_clean_sbu_1--edge1-none
_symmetry_space_group_name_H-M    P1
_symmetry_Int_Tables_number       1
_symmetry_cell_setting            triclinic
loop_
_symmetry_equiv_pos_as_xyz
'x, y, z'
_cell_length_a     26.386773
_cell_length_b     26.367077
_cell_length_c     26.51384
_cell_angle_alpha  90.613519
_cell_angle_beta   87.521366
_cell_angle_gamma 93.026875
loop_
_atom_site_label
_atom_site_type_symbol
_atom_site_fract_x
_atom_site_fract_y
_atom_site_fract_z
_atom_type_partial_charge
O0 O -0.01172 0.14142 0.10215 0.0
Cd1 Cd -0.00958 0.19777 0.15806 0.0
Cd2 Cd 0.00716 0.26604 0.08323 0.0
O3 O 0.97675 0.20049 0.04658 0.0
O4 O 0.94168 0.17792 0.21302 0.0
O5 O 0.93076 0.24465 0.16526 0.0
C6 C 0.91513 0.21588 0.20248 0.0
C7 C 0.02061 0.33598 0.03024 0.0
C8 C 0.97764 0.15369 0.05781 0.0
C9 C 0.08673 0.25212 0.16786 0.0
O10 O 0.07121 0.27119 0.12782 0.0
O11 O 0.05927 0.21788 0.19042 0.0
O12 O 0.04458 0.29521 0.02392 0.0
O13 O 0.98459 0.33645 0.0647 0.0
O14 O 0.07111 0.75498 0.36553 0.0
Cd15 Cd 0.00397 0.72889 0.39822 0.0
Cd16 Cd 0.98258 0.79041 0.31068 0.0
O17 O 0.04625 0.75032 0.28798 0.0
O18 O 0.02984 0.68934 0.4545 0.0
O19 O -0.0093 0.65525 0.38854 0.0
C20 C 0.01575 0.64975 0.42878 0.0
C21 C 0.91383 0.78705 0.25992 0.0
C22 C 0.07975 0.74351 0.31967 0.0
C23 C 0.95418 0.82259 0.41618 0.0
O24 O 0.97618 0.83703 0.37455 0.0
O25 O 0.95112 0.77596 0.42764 0.0
O26 O 0.9514 0.8195 0.25071 0.0
O27 O 0.91595 0.75633 0.29732 0.0
O28 O 0.4836 0.65378 0.61018 0.0
Cd29 Cd 0.49006 0.71107 0.66525 0.0
Cd30 Cd 0.49676 0.77754 0.5875 0.0
O31 O 0.46131 0.71126 0.55732 0.0
O32 O 0.44991 0.68826 0.72515 0.0
O33 O 0.42894 0.75382 0.68012 0.0
C34 C 0.41911 0.72356 0.71771 0.0
C35 C 0.50616 0.84222 0.52849 0.0
C36 C 0.46565 0.66485 0.56826 0.0
C37 C 0.58469 0.76785 0.66477 0.0
O38 O 0.56514 0.7855 0.62599 0.0
O39 O 0.56031 0.73371 0.69024 0.0
O40 O 0.52909 0.80072 0.52337 0.0
O41 O 0.47355 0.84636 0.56579 0.0
O42 O 0.57659 0.26061 0.86332 0.0
Cd43 Cd 0.51252 0.23402 0.90074 0.0
Cd44 Cd 0.48663 0.29939 0.81265 0.0
O45 O 0.54627 0.25541 0.78781 0.0
O46 O 0.54131 0.19225 0.95442 0.0
O47 O 0.49854 0.1602 0.88997 0.0
C48 C 0.52582 0.15329 0.92842 0.0
C49 C 0.4173 0.3027 0.76326 0.0
C50 C 0.58142 0.24779 0.8174 0.0
C51 C 0.46562 0.33037 0.9198 0.0
O52 O 0.4857 0.34463 0.87733 0.0
O53 O 0.46199 0.28357 0.93134 0.0
O54 O 0.45683 0.33271 0.75407 0.0
O55 O 0.41776 0.27088 0.79995 0.0
O56 O 0.09867 0.951 0.17591 0.0
Cd57 Cd 0.13993 0.95672 0.24231 0.0
Cd58 Cd 0.06584 0.03397 0.2437 0.0
O59 O 0.03896 0.00605 0.1762 0.0
O60 O 0.16531 0.88774 0.262 0.0
O61 O 0.20398 0.94022 0.2069 0.0
C62 C 0.20179 0.89716 0.22894 0.0
C63 C 0.01469 0.03651 0.31724 0.0
C64 C 0.06171 0.97003 0.15472 0.0
C65 C 0.17002 0.06802 0.26484 0.0
O66 O 0.13162 0.08178 0.24228 0.0
O67 O 0.17281 0.0217 0.27688 0.0
O68 O 0.01244 0.06973 0.28208 0.0
O69 O 0.04479 -0.00023 0.30995 0.0
O70 O 0.22465 0.8846 0.58096 0.0
Cd71 Cd 0.21248 0.90836 0.50906 0.0
Cd72 Cd 0.27605 0.83011 0.4926 0.0
O73 O 0.24876 0.80726 0.56444 0.0
O74 O 0.16069 0.96032 0.52258 0.0
O75 O 0.14452 0.8851 0.48657 0.0
C76 C 0.12831 0.92692 0.50547 0.0
C77 C 0.26908 0.77857 0.42214 0.0
C78 C 0.23204 0.83995 0.59557 0.0
C79 C 0.31485 0.93347 0.46518 0.0
O80 O 0.32686 0.89173 0.48381 0.0
O81 O 0.26855 0.94402 0.4639 0.0
O82 O 0.30273 0.7709 0.45476 0.0
O83 O 0.23807 0.81435 0.43057 0.0
O84 O 0.36146 0.0022 0.65927 0.0
Cd85 Cd 0.33742 0.02822 0.72821 0.0
Cd86 Cd 0.41948 0.96895 0.74435 0.0
O87 O 0.4422 0.00259 0.67558 0.0
O88 O 0.28173 0.07059 0.7073 0.0
O89 O 0.35445 0.10147 0.7377 0.0
C90 C 0.31204 0.10892 0.71705 0.0
C91 C 0.47166 0.96853 0.8114 0.0
C92 C 0.40767 0.00811 0.64461 0.0
C93 C 0.31415 0.93364 0.77568 0.0
O94 O 0.35508 0.92136 0.75253 0.0
O95 O 0.30454 0.97996 0.78108 0.0
O96 O 0.47776 0.93693 0.77438 0.0
O97 O 0.43737 0.00161 0.80911 0.0
O98 O 0.26813 0.12947 0.0696 0.0
Cd99 Cd 0.27744 0.08159 0.0058 0.0
Cd100 Cd 0.2305 0.16172 0.96275 0.0
O101 O 0.26906 0.1961 0.02132 0.0
O102 O 0.34912 0.06444 0.98341 0.0
O103 O 0.30024 0.02175 0.03991 0.0
C104 C 0.34284 0.02742 0.01487 0.0
C105 C 0.22091 0.22009 0.89905 0.0
C106 C 0.27348 0.17729 0.06453 0.0
C107 C 0.17416 0.06022 0.96718 0.0
O108 O 0.16783 0.10758 0.97209 0.0
O109 O 0.21849 0.04461 0.96961 0.0
O110 O 0.19568 0.22168 0.94153 0.0
O111 O 0.25245 0.1847 0.89186 0.0
O112 O 0.74217 0.38065 0.07291 0.0
Cd113 Cd 0.72681 0.40829 0.0038 0.0
Cd114 Cd 0.78596 0.32644 0.98003 0.0
O115 O 0.75528 0.30179 0.04996 0.0
O116 O 0.67784 0.46166 0.02309 0.0
O117 O 0.65679 0.38868 0.9848 0.0
C118 C 0.64327 0.43012 0.00676 0.0
C119 C 0.77664 0.27608 0.90869 0.0
C120 C 0.74353 0.33401 0.08381 0.0
C121 C 0.82848 0.43123 0.95939 0.0
O122 O 0.83882 0.38761 0.97509 0.0
O123 O 0.78261 0.44325 0.95802 0.0
O124 O 0.81019 0.26658 0.94085 0.0
O125 O 0.74795 0.31371 0.91749 0.0
O126 O 0.86366 0.49324 0.15616 0.0
Cd127 Cd 0.83335 0.51321 0.22452 0.0
Cd128 Cd 0.92021 0.45855 0.24373 0.0
O129 O 0.94304 0.49739 0.17815 0.0
O130 O 0.77583 0.55273 0.20176 0.0
O131 O 0.84439 0.58693 0.2375 0.0
C132 C 0.80327 0.59252 0.21381 0.0
C133 C 0.96802 0.4605 0.31414 0.0
C134 C 0.91027 0.50298 0.14533 0.0
C135 C 0.81911 0.41352 0.26869 0.0
O136 O 0.86101 0.40476 0.24557 0.0
O137 O 0.80596 0.45888 0.2751 0.0
O138 O 0.97977 0.43171 0.27617 0.0
O139 O 0.9304 0.48965 0.31108 0.0
O140 O 0.76164 0.63744 0.56413 0.0
Cd141 Cd 0.76691 0.58476 0.50309 0.0
Cd142 Cd 0.72127 0.6638 0.45918 0.0
O143 O 0.76355 0.70158 0.51249 0.0
O144 O 0.837 0.56284 0.47945 0.0
O145 O 0.78781 0.52437 0.5384 0.0
C146 C 0.82988 0.52696 0.5121 0.0
C147 C 0.70937 0.71329 0.38971 0.0
C148 C 0.76789 0.68497 0.55656 0.0
C149 C 0.66069 0.56806 0.47047 0.0
O150 O 0.65662 0.61547 0.47658 0.0
O151 O 0.70458 0.5507 0.46921 0.0
O152 O 0.74023 0.67696 0.38557 0.0
O153 O 0.68728 0.72167 0.43287 0.0
O154 O 0.59764 0.46273 0.67779 0.0
Cd155 Cd 0.64727 0.46847 0.73825 0.0
Cd156 Cd 0.57268 0.54418 0.74851 0.0
O157 O 0.53671 0.51634 0.68555 0.0
O158 O 0.67075 0.39871 0.75845 0.0
O159 O 0.70701 0.44673 0.69819 0.0
C160 C 0.70445 0.40455 0.72199 0.0
C161 C 0.53023 0.55002 0.82722 0.0
C162 C 0.55759 0.48073 0.66146 0.0
C163 C 0.67817 0.58064 0.7562 0.0
O164 O 0.637 0.59267 0.73769 0.0
O165 O 0.68359 0.53465 0.76828 0.0
O166 O 0.52478 0.5822 0.79179 0.0
O167 O 0.55874 0.5124 0.81771 0.0
O168 O 0.11307 0.73298 0.85524 0.0
Cd169 Cd 0.05569 0.72929 0.9135 0.0
Cd170 Cd -0.01238 0.80256 0.81209 0.0
O171 O 0.04396 0.75057 0.8197 0.0
O172 O 0.03549 0.68261 0.97219 0.0
O173 O 0.00502 0.67268 0.89638 0.0
C174 C 0.00395 0.65929 0.94292 0.0
C175 C 0.90824 0.76211 0.79099 0.0
C176 C 0.09229 0.75465 0.81919 0.0
C177 C 0.01115 0.83809 0.90683 0.0
O178 O -0.0071 0.86044 0.86983 0.0
O179 O 0.0124 0.79034 0.90163 0.0
O180 O 0.93379 0.79062 0.75868 0.0
O181 O 0.92651 0.75835 0.83483 0.0
O182 O -0.01231 0.13006 0.61099 0.0
Cd183 Cd 0.97957 0.18747 0.66168 0.0
Cd184 Cd 0.03284 0.24731 0.58472 0.0
O185 O 0.01479 0.18187 0.54872 0.0
O186 O 0.9175 0.18384 0.70793 0.0
O187 O 0.933 0.23856 0.64519 0.0
C188 C 0.90411 0.22205 0.68237 0.0
C189 C 0.00535 0.32369 0.55566 0.0
C190 C 0.00271 0.13782 0.56547 0.0
C191 C 0.08484 0.22453 0.67878 0.0
O192 O 0.08999 0.24138 0.63392 0.0
O193 O 0.04239 0.20798 0.69777 0.0
O194 O 0.04337 0.30335 0.53248 0.0
O195 O 0.98526 0.30174 0.59524 0.0
O196 O 0.50136 0.15835 0.39392 0.0
Cd197 Cd 0.5167 0.19124 0.32201 0.0
Cd198 Cd 0.46332 0.27209 0.37097 0.0
O199 O 0.44324 0.21296 0.41672 0.0
O200 O 0.5887 0.19965 0.28767 0.0
O201 O 0.54135 0.26232 0.31247 0.0
C202 C 0.58282 0.24797 0.2913 0.0
C203 C 0.50221 0.34084 0.41711 0.0
C204 C 0.46396 0.17123 0.42278 0.0
C205 C 0.42076 0.21793 0.27692 0.0
O206 O 0.42539 0.26009 0.30182 0.0
O207 O 0.4527 0.18366 0.28082 0.0
O208 O 0.45365 0.33865 0.41169 0.0
O209 O 0.52819 0.30761 0.39319 0.0
O210 O 0.48869 0.62333 0.13456 0.0
Cd211 Cd 0.48757 0.68549 0.18285 0.0
Cd212 Cd 0.54484 0.73902 0.05628 0.0
O213 O 0.49086 0.6871 0.08294 0.0
O214 O 0.4325 0.69877 0.23731 0.0
O215 O 0.43187 0.72384 0.15827 0.0
C216 C 0.41107 0.7229 0.20274 0.0
C217 C 0.51476 0.81868 0.03678 0.0
C218 C 0.49885 0.64089 0.09056 0.0
C219 C 0.58841 0.72719 0.14811 0.0
O220 O 0.60519 0.73501 0.10287 0.0
O221 O 0.54309 0.73781 0.1596 0.0
O222 O 0.53619 0.79221 0.0016 0.0
O223 O 0.51162 0.80054 0.08152 0.0
O224 O 0.86653 0.00853 0.61834 0.0
Cd225 Cd 0.81077 0.00892 0.67749 0.0
Cd226 Cd 0.92148 0.94677 0.74415 0.0
O227 O 0.90898 -0.00334 0.68518 0.0
O228 O 0.74391 0.04073 0.69268 0.0
O229 O 0.81745 0.07325 0.71842 0.0
C230 C 0.7686 0.07408 0.71956 0.0
C231 C 0.94252 -0.01411 0.82328 0.0
C232 C 0.90519 -0.00959 0.63761 0.0
C233 C 0.82755 0.90453 0.72398 0.0
O234 O 0.86647 0.8848 0.74068 0.0
O235 O 0.82818 0.95272 0.72629 0.0
O236 O 0.9748 0.95895 0.79862 0.0
O237 O 0.89911 -0.01032 0.8039 0.0
O238 O 0.71693 0.12066 0.59442 0.0
Cd239 Cd 0.7297 0.07091 0.53513 0.0
Cd240 Cd 0.68697 0.18318 0.48089 0.0
O241 O 0.73398 0.18046 0.53849 0.0
O242 O 0.78038 0.01567 0.52732 0.0
O243 O 0.79449 0.09527 0.50234 0.0
C244 C 0.80993 0.04997 0.50518 0.0
C245 C 0.72807 0.19773 0.40422 0.0
C246 C 0.71723 0.16731 0.58207 0.0
C247 C 0.63546 0.09065 0.49419 0.0
O248 O 0.62284 0.13609 0.48953 0.0
O249 O 0.68021 0.07982 0.48094 0.0
O250 O 0.70163 0.23305 0.42447 0.0
O251 O 0.72926 0.15495 0.42677 0.0
O252 O 0.62048 0.01179 0.13078 0.0
Cd253 Cd 0.66542 -0.00451 0.18931 0.0
Cd254 Cd 0.56939 0.04733 0.23974 0.0
O255 O 0.55404 0.00011 0.18333 0.0
O256 O 0.71659 0.94179 0.18569 0.0
O257 O 0.64033 0.93566 0.22576 0.0
C258 C 0.68343 0.9165 0.21424 0.0
C259 C 0.54406 0.016 0.31664 0.0
C260 C 0.57273 0.01005 0.13984 0.0
C261 C 0.66889 0.09477 0.22757 0.0
O262 O 0.62277 0.10585 0.22497 0.0
O263 O 0.67966 0.05055 0.23931 0.0
O264 O 0.51538 0.04713 0.2954 0.0
O265 O 0.58714 0.00583 0.29497 0.0
O266 O 0.71075 0.84421 0.10458 0.0
Cd267 Cd 0.71822 0.9069 0.05697 0.0
Cd268 Cd 0.76483 0.83252 0.97505 0.0
O269 O 0.71339 0.80931 0.03144 0.0
O270 O 0.66373 0.95646 0.0445 0.0
O271 O 0.6903 0.89987 -0.01143 0.0
C272 C 0.66312 0.93802 -0.00089 0.0
C273 C 0.74223 0.80296 0.89518 0.0
C274 C 0.72217 0.80616 0.07784 0.0
C275 C 0.83181 0.91964 0.02111 0.0
O276 O 0.8287 0.88075 -0.00825 0.0
O277 O 0.7931 0.93453 0.04684 0.0
O278 O 0.77051 0.77785 0.92358 0.0
O279 O 0.72948 0.84739 0.91012 0.0
O280 O 0.23588 0.61414 0.10713 0.0
Cd281 Cd 0.24174 0.56676 0.04481 0.0
Cd282 Cd 0.19112 0.68796 -0.00109 0.0
O283 O 0.24459 0.67087 0.04776 0.0
O284 O 0.29409 0.51363 0.03035 0.0
O285 O 0.30376 0.59417 0.00832 0.0
C286 C 0.3214 0.54978 0.00861 0.0
C287 C 0.22571 0.70952 0.91932 0.0
C288 C 0.23237 0.65986 0.09315 0.0
C289 C 0.14439 0.59221 0.00978 0.0
O290 O 0.12901 0.637 0.00676 0.0
O291 O 0.18969 0.58471 -0.0049 0.0
O292 O 0.20426 0.74383 0.94648 0.0
O293 O 0.22565 0.66436 0.93669 0.0
O294 O 0.09918 0.50881 0.63862 0.0
Cd295 Cd 0.15161 0.50132 0.69256 0.0
Cd296 Cd 0.07868 0.55503 0.74929 0.0
O297 O 0.03761 0.53825 0.68874 0.0
O298 O 0.2005 0.4452 0.68094 0.0
O299 O 0.13905 0.44537 0.74043 0.0
C300 C 0.17733 0.424 0.71975 0.0
C301 C 0.05706 0.51821 0.82571 0.0
C302 C 0.05426 0.52358 0.64584 0.0
C303 C 0.1776 0.60775 0.72534 0.0
O304 O 0.13206 0.6134 0.74103 0.0
O305 O 0.1928 0.56508 0.71053 0.0
O306 O 0.03316 0.55686 0.8117 0.0
O307 O 0.09333 0.5023 0.79701 0.0
O308 O 0.19653 0.34201 0.61091 0.0
Cd309 Cd 0.20632 0.40623 0.56545 0.0
Cd310 Cd 0.26548 0.32762 0.48286 0.0
O311 O 0.20888 0.31318 0.53617 0.0
O312 O 0.15059 0.4534 0.55238 0.0
O313 O 0.18256 0.40021 0.49545 0.0
C314 C 0.1531 0.43658 0.50638 0.0
C315 C 0.26098 0.28182 0.40608 0.0
C316 C 0.21564 0.30839 0.58286 0.0
C317 C 0.32029 0.42502 0.53071 0.0
O318 O 0.32039 0.38652 0.50048 0.0
O319 O 0.28072 0.43639 0.55731 0.0
O320 O 0.28604 0.26639 0.44341 0.0
O321 O 0.23962 0.3247 0.41134 0.0
O322 O 0.37439 0.49159 0.14798 0.0
Cd323 Cd 0.32788 0.50565 0.2124 0.0
Cd324 Cd 0.41225 0.46638 0.25423 0.0
O325 O 0.4442 0.49953 0.18983 0.0
O326 O 0.2663 0.54689 0.20742 0.0
O327 O 0.33097 0.56791 0.25545 0.0
C328 C 0.2853 0.5753 0.24269 0.0
C329 C 0.4287 0.50151 0.33416 0.0
C330 C 0.42259 0.48987 0.14865 0.0
C331 C 0.32031 0.39878 0.23866 0.0
O332 O 0.36864 0.39923 0.23775 0.0
O333 O 0.29931 0.44024 0.24729 0.0
O334 O 0.45819 0.46858 0.31375 0.0
O335 O 0.38971 0.51319 0.30976 0.0
O336 O 0.91895 0.03618 0.89392 0.0
Mg337 Mg 0.91565 0.05182 0.97293 0.0
O338 O 0.98535 -0.00989 0.90151 0.0
Mg339 Mg 0.00336 -0.01152 -0.0117 0.0
O340 O 0.97801 0.07113 0.01397 0.0
O341 O 0.91762 0.12512 -0.00187 0.0
O342 O 0.02449 0.98163 0.07451 0.0
O343 O 0.08479 0.03232 0.9729 0.0
Mg344 Mg 0.09609 0.91302 0.00234 0.0
O345 O 0.03153 0.91023 0.96288 0.0
O346 O 0.07956 0.92128 0.0816 0.0
O347 O 0.14382 0.97514 0.97419 0.0
O348 O 0.0819 0.84578 0.96038 0.0
C349 C 0.87579 0.9566 0.0153 0.0
C350 C 0.95126 0.00712 0.87449 0.0
C351 C 0.95754 0.11492 0.02179 0.0
C352 C 0.05236 0.95522 0.10151 0.0
C353 C 0.13151 0.02079 0.96907 0.0
C354 C 0.04205 0.86588 0.94469 0.0
O355 O 0.86506 0.00264 0.0134 0.0
O356 O 0.92137 0.94362 0.00477 0.0
O357 O 0.25943 0.69663 0.38851 0.0
Mg358 Mg 0.20984 0.64853 0.3464 0.0
O359 O 0.25269 0.76153 0.3362 0.0
Mg360 Mg 0.24149 0.72954 0.25418 0.0
O361 O 0.24355 0.64879 0.27705 0.0
O362 O 0.23316 0.5772 0.318 0.0
O363 O 0.23116 0.69146 0.17646 0.0
O364 O 0.32868 0.72558 0.24117 0.0
Mg365 Mg 0.27717 0.79535 0.16482 0.0
O366 O 0.23507 0.81319 0.22818 0.0
O367 O 0.24008 0.74618 0.11407 0.0
O368 O 0.35098 0.77674 0.17737 0.0
O369 O 0.2613 0.86909 0.16794 0.0
C370 C 0.12621 0.71738 0.30655 0.0
C371 C 0.2624 0.74391 0.3794 0.0
C372 C 0.25172 0.60131 0.27894 0.0
C373 C 0.23098 0.70136 0.12977 0.0
C374 C 0.3621 0.74518 0.21015 0.0
C375 C 0.23544 0.85863 0.20935 0.0
O376 O 0.14012 0.68565 0.33847 0.0
O377 O 0.15511 0.73301 0.26957 0.0
O378 O 0.56644 0.97146 0.3858 0.0
Mg379 Mg 0.56674 0.95523 0.46151 0.0
O380 O 0.4946 0.01077 0.39378 0.0
Mg381 Mg 0.47642 0.0101 0.48041 0.0
O382 O 0.5017 0.92753 0.49684 0.0
O383 O 0.5697 0.8818 0.47612 0.0
O384 O 0.45751 0.01143 0.56715 0.0
O385 O 0.39891 0.96684 0.4696 0.0
Mg386 Mg 0.38018 0.07295 0.49759 0.0
O387 O 0.45051 0.08993 0.46558 0.0
O388 O 0.3843 0.04957 0.57299 0.0
O389 O 0.33929 0.01934 0.4535 0.0
O390 O 0.39192 0.14714 0.47508 0.0
C391 C 0.59783 0.04895 0.50005 0.0
C392 C 0.53265 -0.00345 0.3671 0.0
C393 C 0.52538 0.88539 0.49813 0.0
C394 C 0.41844 0.02515 0.59273 0.0
C395 C 0.35372 0.97458 0.45771 0.0
C396 C 0.43597 0.1351 0.45711 0.0
O397 O 0.61333 0.00461 0.50217 0.0
O398 O 0.552 0.05603 0.4909 0.0
O399 O 0.38441 0.29881 0.68232 0.0
Mg400 Mg 0.33938 0.25241 0.63212 0.0
O401 O 0.33059 0.28788 0.74935 0.0
Mg402 Mg 0.24848 0.26811 0.72615 0.0
O403 O 0.2698 0.2774 0.64545 0.0
O404 O 0.29919 0.27715 0.56772 0.0
O405 O 0.16951 0.24776 0.69528 0.0
O406 O 0.22995 0.35333 0.72358 0.0
Mg407 Mg 0.16438 0.27816 0.79079 0.0
O408 O 0.22953 0.25148 0.81371 0.0
O409 O 0.11769 0.2234 0.75838 0.0
O410 O 0.15633 0.35146 0.76618 0.0
O411 O 0.16336 0.27343 0.86525 0.0
C412 C 0.30207 0.15919 0.69941 0.0
C413 C 0.37468 0.29993 0.72985 0.0
C414 C 0.26256 0.28694 0.59922 0.0
C415 C 0.12679 0.22912 0.71177 0.0
C416 C 0.18949 0.37443 0.73805 0.0
C417 C 0.20599 0.25199 0.85815 0.0
O418 O 0.33083 0.17744 0.66341 0.0
O419 O 0.26929 0.18484 0.72373 0.0
O420 O 0.93926 0.84306 0.50179 0.0
Mg421 Mg 0.97349 0.88141 0.5643 0.0
O422 O 0.95581 0.90637 0.44747 0.0
Mg423 Mg 0.96528 -0.01679 0.48834 0.0
O424 O 0.94592 0.95086 0.56465 0.0
O425 O 0.93793 0.90706 0.6341 0.0
O426 O 0.97581 0.05662 0.53717 0.0
O427 O 0.87903 -0.00357 0.48661 0.0
Mg428 Mg 0.96511 0.07038 0.44631 0.0
O429 O -0.0119 0.0123 0.40284 0.0
O430 O 0.02257 0.10567 0.48609 0.0
O431 O 0.89023 0.07857 0.47438 0.0
O432 O 0.97206 0.09017 0.37412 0.0
C433 C 0.07406 0.93137 0.51585 0.0
C434 C 0.94537 0.85958 0.45678 0.0
C435 C 0.93015 0.94844 0.6111 0.0
C436 C 0.00369 0.09659 0.52956 0.0
C437 C 0.86164 0.04054 0.4869 0.0
C438 C -0.01109 0.04558 0.36641 0.0
O439 O 0.05177 0.89728 0.54377 0.0
O440 O 0.05051 0.96629 0.49501 0.0
O441 O 0.26305 0.68083 0.84452 0.0
Mg442 Mg 0.29013 0.69424 0.77154 0.0
O443 O 0.24355 0.76002 0.84554 0.0
Mg444 Mg 0.24553 0.77148 0.75789 0.0
O445 O 0.33343 0.75027 0.73655 0.0
O446 O 0.36341 0.68414 0.77716 0.0
O447 O 0.24097 0.79256 0.67167 0.0
O448 O 0.28246 0.8499 0.76983 0.0
Mg449 Mg 0.16788 0.86735 0.75014 0.0
O450 O 0.16656 0.79591 0.77654 0.0
O451 O 0.19035 0.85831 0.67243 0.0
O452 O 0.22736 0.90916 0.78749 0.0
O453 O 0.09733 0.83807 0.78374 0.0
C454 C 0.21494 0.6495 0.72862 0.0
C455 C 0.24637 0.71821 0.86816 0.0
C456 C 0.37074 0.72186 0.747 0.0
C457 C 0.21967 0.82817 0.64909 0.0
C458 C 0.27275 0.89516 0.78221 0.0
C459 C 0.1198 0.79709 0.79228 0.0
O460 O 0.26117 0.64053 0.72276 0.0
O461 O 0.20196 0.69281 0.7445 0.0
O462 O 0.47092 0.8883 0.06499 0.0
Mg463 Mg 0.45192 0.96369 0.06491 0.0
O464 O 0.51299 0.8969 -0.00828 0.0
Mg465 Mg 0.51445 -0.01452 0.97967 0.0
O466 O 0.42806 -0.00107 0.00352 0.0
O467 O 0.37783 0.97199 0.07042 0.0
O468 O 0.51842 0.07182 0.96474 0.0
O469 O 0.48693 0.97491 0.89816 0.0
Mg470 Mg 0.60589 0.01405 0.89075 0.0
O471 O 0.59539 0.97762 0.95692 0.0
O472 O 0.58151 0.08943 0.90762 0.0
O473 O 0.55326 0.97581 0.84258 0.0
O474 O 0.6706 0.97971 0.91939 0.0
C475 C 0.53722 0.01011 0.10039 0.0
C476 C 0.49703 0.86963 0.02917 0.0
C477 C 0.3843 -0.0033 0.02866 0.0
C478 C 0.54481 0.10309 0.93668 0.0
C479 C 0.5058 0.97046 0.85317 0.0
C480 C 0.64181 0.96557 0.95758 0.0
O481 O 0.49084 0.01085 0.11337 0.0
O482 O 0.55102 -0.00172 0.05582 0.0
O483 O 0.27753 0.26 0.09791 0.0
Mg484 Mg 0.24403 0.31108 0.14911 0.0
O485 O 0.26488 0.19816 0.15344 0.0
Mg486 Mg 0.24953 0.23401 0.23618 0.0
O487 O 0.27766 0.31707 0.2171 0.0
O488 O 0.27995 0.38069 0.16219 0.0
O489 O 0.23669 0.26586 0.31978 0.0
O490 O 0.33681 0.23475 0.25477 0.0
Mg491 Mg 0.28486 0.15871 0.2944 0.0
O492 O 0.21797 0.1497 0.25692 0.0
O493 O 0.28271 0.2105 0.35711 0.0
O494 O 0.35709 0.15614 0.25526 0.0
O495 O 0.24688 0.0899 0.30611 0.0
C496 C 0.13967 0.26623 0.18202 0.0
C497 C 0.27517 0.21308 0.1081 0.0
C498 C 0.29264 0.3633 0.20491 0.0
C499 C 0.2592 0.25131 0.35871 0.0
C500 C 0.37109 0.2027 0.25559 0.0
C501 C 0.21283 0.10447 0.27673 0.0
O502 O 0.16384 0.29971 0.15502 0.0
O503 O 0.16265 0.24057 0.21416 0.0
O504 O 0.39897 0.5838 0.97615 0.0
Mg505 Mg 0.4767 0.58361 0.95707 0.0
O506 O 0.39541 0.50252 -0.00557 0.0
Mg507 Mg 0.48199 0.49097 -0.00378 0.0
O508 O 0.5054 0.52598 0.91371 0.0
O509 O 0.49004 0.60414 0.88557 0.0
O510 O 0.56708 0.47365 0.00195 0.0
O511 O 0.47209 0.41431 0.9522 0.0
Mg512 Mg 0.48819 0.38664 0.06615 0.0
O513 O 0.46175 0.45673 0.07101 0.0
O514 O 0.56659 0.40091 0.04518 0.0
O515 O 0.45107 0.3507 0.00512 0.0
O516 O 0.45298 0.40709 0.13658 0.0
C517 C 0.50893 0.60784 0.04736 0.0
C518 C 0.37373 0.54408 -0.00987 0.0
C519 C 0.50726 0.55977 0.87767 0.0
C520 C 0.58972 0.43641 0.01971 0.0
C521 C 0.45897 0.36764 0.96058 0.0
C522 C 0.44575 0.45042 0.11702 0.0
O523 O 0.5217 0.6276 0.00538 0.0
O524 O 0.49147 0.5621 0.04881 0.0
O525 O 0.78067 0.16725 0.34067 0.0
Mg526 Mg 0.81251 0.16106 0.26924 0.0
O527 O 0.74102 0.23636 0.32443 0.0
Mg528 Mg 0.74526 0.2533 0.23916 0.0
O529 O 0.8254 0.22019 0.21724 0.0
O530 O 0.87545 0.20911 0.27977 0.0
O531 O 0.74361 0.27793 0.15463 0.0
O532 O 0.78868 0.32973 0.25414 0.0
Mg533 Mg 0.67914 0.35345 0.23959 0.0
O534 O 0.66634 0.27989 0.25792 0.0
O535 O 0.7053 0.35156 0.16243 0.0
O536 O 0.7353 0.38449 0.28684 0.0
O537 O 0.6049 0.33294 0.26624 0.0
C538 C 0.71012 0.13299 0.22699 0.0
C539 C 0.75311 0.20258 0.35474 0.0
C540 C 0.87028 0.22541 0.23534 0.0
C541 C 0.72944 0.31932 0.13604 0.0
C542 C 0.78013 0.37253 0.27468 0.0
C543 C 0.6196 0.28747 0.27079 0.0
O544 O 0.75414 0.11811 0.23463 0.0
O545 O 0.70055 0.17947 0.22595 0.0
O546 O 0.95931 0.39413 0.57504 0.0
Mg547 Mg 0.93793 0.46796 0.56795 0.0
O548 O 0.00419 0.39711 0.50302 0.0
Mg549 Mg 0.00325 0.48402 0.48444 0.0
O550 O 0.91532 0.4979 0.50322 0.0
O551 O 0.86316 0.47179 0.569 0.0
O552 O 0.0064 0.56875 0.46484 0.0
O553 O 0.97964 0.46824 0.40179 0.0
Mg554 Mg 0.0977 0.51244 0.3983 0.0
O555 O 0.08556 0.47607 0.46444 0.0
O556 O 0.07425 0.58771 0.4139 0.0
O557 O 0.04764 0.47397 0.34823 0.0
O558 O 0.16155 0.47892 0.42752 0.0
C559 C 0.01893 0.51787 0.60585 0.0
C560 C -0.01214 0.37335 0.54259 0.0
C561 C 0.87062 0.49539 0.52672 0.0
C562 C 0.03477 0.60044 0.43927 0.0
C563 C 0.00032 0.46508 0.35735 0.0
C564 C 0.13217 0.46439 0.46519 0.0
O565 O 0.97213 0.51963 0.61664 0.0
O566 O 0.03443 0.50254 0.56269 0.0
O567 O 0.65502 0.84361 0.25654 0.0
Mg568 Mg 0.65393 0.76793 0.27611 0.0
O569 O 0.72995 0.84138 0.21633 0.0
Mg570 Mg 0.7452 0.75502 0.2179 0.0
O571 O 0.71836 0.74017 0.30295 0.0
O572 O 0.64793 0.7577 0.35025 0.0
O573 O 0.76323 0.67048 0.21772 0.0
O574 O 0.82683 0.77226 0.2453 0.0
Mg575 Mg 0.83723 0.73351 0.12607 0.0
O576 O 0.77083 0.76461 0.13896 0.0
O577 O 0.82275 0.65826 0.15664 0.0
O578 O 0.88263 0.77639 0.17882 0.0
O579 O 0.80071 0.7647 0.06164 0.0
C580 C 0.62315 0.72388 0.18889 0.0
C581 C 0.69114 0.86525 0.23101 0.0
C582 C 0.69231 0.73935 0.34595 0.0
C583 C 0.79372 0.6422 0.19347 0.0
C584 C 0.87178 0.78101 0.22599 0.0
C585 C 0.76532 0.77746 0.09331 0.0
O586 O 0.60535 0.72114 0.23375 0.0
O587 O 0.66945 0.73727 0.18021 0.0
O588 O 0.76385 0.19443 0.87407 0.0
Mg589 Mg 0.70986 0.14823 0.83421 0.0
O590 O 0.75523 0.26059 0.82393 0.0
Mg591 Mg 0.73755 0.23136 0.74261 0.0
O592 O 0.73764 0.14921 0.76237 0.0
O593 O 0.72651 0.07638 0.80091 0.0
O594 O 0.7208 0.19529 0.66605 0.0
O595 O 0.82296 0.22446 0.72336 0.0
Mg596 Mg 0.76863 0.29702 0.65554 0.0
O597 O 0.73157 0.31778 0.72091 0.0
O598 O 0.72623 0.2523 0.60589 0.0
O599 O 0.84304 0.27677 0.66008 0.0
O600 O 0.75794 0.37141 0.65831 0.0
C601 C 0.62604 0.22051 0.80145 0.0
C602 C 0.76738 0.24195 0.86585 0.0
C603 C 0.74254 0.10099 0.76124 0.0
C604 C 0.71751 0.20704 0.62024 0.0
C605 C 0.85496 0.24352 0.69071 0.0
C606 C 0.7341 0.36314 0.70126 0.0
O607 O 0.64091 0.18776 0.83181 0.0
O608 O 0.65316 0.2365 0.76348 0.0
O609 O 0.77108 0.76953 0.58542 0.0
Mg610 Mg 0.74066 0.82847 0.63116 0.0
O611 O 0.7609 0.70999 0.64427 0.0
Mg612 Mg 0.74955 0.74947 0.725 0.0
O613 O 0.77545 0.83 0.698 0.0
O614 O 0.78114 0.89711 0.64849 0.0
O615 O 0.7418 0.79007 0.80651 0.0
O616 O 0.83608 0.74627 0.73992 0.0
Mg617 Mg 0.75487 0.68944 0.81485 0.0
O618 O 0.72163 0.66474 0.7505 0.0
O619 O 0.7045 0.73305 0.85661 0.0
O620 O 0.83241 0.71698 0.81759 0.0
O621 O 0.7367 0.61371 0.8153 0.0
C622 C 0.63847 0.78242 0.6743 0.0
C623 C 0.76962 0.72306 0.59815 0.0
C624 C 0.7938 0.87587 0.68931 0.0
C625 C 0.72202 0.77791 0.84991 0.0
C626 C 0.85721 0.73895 0.78137 0.0
C627 C 0.71489 0.62093 0.77348 0.0
O628 O 0.66087 0.81477 0.64456 0.0
O629 O 0.66307 0.75759 0.70583 0.0
O630 O 0.6278 0.48465 0.47922 0.0
Mg631 Mg 0.57626 0.42833 0.50859 0.0
O632 O 0.57052 0.54321 0.48047 0.0
Mg633 Mg 0.48902 0.49901 0.49888 0.0
O634 O 0.51222 0.41891 0.46838 0.0
O635 O 0.57086 0.36094 0.46991 0.0
O636 O 0.40843 0.45393 0.517 0.0
O637 O 0.46823 0.50234 0.41359 0.0
Mg638 Mg 0.40005 0.5622 0.48528 0.0
O639 O 0.46385 0.58145 0.52575 0.0
O640 O 0.34915 0.51009 0.52309 0.0
O641 O 0.40375 0.55082 0.40539 0.0
O642 O 0.40198 0.63466 0.51297 0.0
C643 C 0.54244 0.46537 0.60992 0.0
C644 C 0.6168 0.5305 0.47473 0.0
C645 C 0.52844 0.37502 0.45363 0.0
C646 C 0.36202 0.4647 0.52591 0.0
C647 C 0.43546 0.52099 0.38619 0.0
C648 C 0.44323 0.625 0.53465 0.0
O649 O 0.56712 0.43084 0.58811 0.0
O650 O 0.51355 0.49244 0.58473 0.0
O651 O 0.08274 0.4707 0.89261 0.0
Mg652 Mg 0.08237 0.45375 0.96924 0.0
O653 O 0.01128 0.51003 0.90362 0.0
Mg654 Mg -0.01067 0.50563 -0.01204 0.0
O655 O 0.01641 0.42319 0.00258 0.0
O656 O 0.08657 0.38015 0.98432 0.0
O657 O 0.96367 0.5057 0.07151 0.0
O658 O 0.91242 0.46316 0.97101 0.0
Mg659 Mg 0.88773 0.57622 -0.00173 0.0
O660 O 0.96136 0.58195 0.97577 0.0
O661 O 0.89229 0.54831 0.0737 0.0
O662 O 0.85432 0.51748 0.95268 0.0
O663 O 0.91671 0.64877 0.97054 0.0
C664 C 0.1089 0.54811 0.01321 0.0
C665 C 0.04854 0.49671 0.87566 0.0
C666 C 0.04104 0.38162 0.00398 0.0
C667 C 0.92419 0.52155 0.09479 0.0
C668 C 0.86826 0.47226 0.9566 0.0
C669 C 0.95991 0.62879 0.96387 0.0
O670 O 0.12679 0.50463 0.0117 0.0
O671 O 0.06266 0.55336 0.00435 0.0
loop_
_geom_bond_atom_site_label_1
_geom_bond_atom_site_label_2
_geom_bond_distance
_geom_bond_site_symmetry_2
_ccdc_geom_bond_type
O0 Cd1 2.217 1_455 S
O0 C8 1.315 . S
Cd1 O0 2.217 1_655 S
Cd1 O4 2.314 . S
Cd1 O5 2.454 . S
Cd1 O11 2.226 1_655 S
Cd2 O3 2.240 . S
Cd2 O10 2.223 . S
Cd2 O12 2.297 . S
Cd2 O13 2.439 . S
O3 Cd2 2.240 . S
O3 C8 1.279 . S
O4 Cd1 2.314 . S
O4 C6 1.247 . S
O5 Cd1 2.454 . S
O5 C6 1.208 . S
C6 O4 1.247 . S
C6 O5 1.208 . S
C7 O12 1.247 . S
C7 O13 1.208 . S
C8 O0 1.315 . S
C8 O3 1.279 . S
C9 O10 1.315 . S
C9 O11 1.279 . S
O10 Cd2 2.223 . S
O10 C9 1.315 . S
O11 Cd1 2.226 1_455 S
O11 C9 1.279 . S
O12 Cd2 2.297 . S
O12 C7 1.247 . S
O13 Cd2 2.439 . S
O13 C7 1.208 . S
O14 Cd15 2.223 . S
O14 C22 1.315 . S
Cd15 O14 2.223 . S
Cd15 O18 2.297 . S
Cd15 O19 2.439 1_455 S
Cd15 O25 2.240 1_455 S
Cd16 O17 2.240 1_655 S
Cd16 O24 2.223 1_655 S
Cd16 O26 2.297 . S
Cd16 O27 2.439 . S
O17 Cd16 2.240 1_455 S
O17 C22 1.279 . S
O18 Cd15 2.297 . S
O18 C20 1.247 . S
O19 Cd15 2.439 1_655 S
O19 C20 1.208 1_655 S
C20 O18 1.247 . S
C20 O19 1.208 1_455 S
C21 O26 1.247 . S
C21 O27 1.208 . S
C22 O14 1.315 . S
C22 O17 1.279 . S
C23 O24 1.315 . S
C23 O25 1.279 1_455 S
O24 Cd16 2.223 1_455 S
O24 C23 1.315 . S
O25 Cd15 2.240 1_655 S
O25 C23 1.279 1_655 S
O26 Cd16 2.297 . S
O26 C21 1.247 . S
O27 Cd16 2.439 . S
O27 C21 1.208 . S
O28 Cd29 2.223 . S
O28 C36 1.315 . S
Cd29 O28 2.223 . S
Cd29 O32 2.297 . S
Cd29 O33 2.439 . S
Cd29 O39 2.240 . S
Cd30 O31 2.240 . S
Cd30 O38 2.223 . S
Cd30 O40 2.297 . S
Cd30 O41 2.439 . S
O31 Cd30 2.240 . S
O31 C36 1.279 . S
O32 Cd29 2.297 . S
O32 C34 1.247 . S
O33 Cd29 2.439 . S
O33 C34 1.208 . S
C34 O32 1.247 . S
C34 O33 1.208 . S
C35 O40 1.247 . S
C35 O41 1.208 . S
C36 O28 1.315 . S
C36 O31 1.279 . S
C37 O38 1.315 . S
C37 O39 1.279 . S
O38 Cd30 2.223 . S
O38 C37 1.315 . S
O39 Cd29 2.240 . S
O39 C37 1.279 . S
O40 Cd30 2.297 . S
O40 C35 1.247 . S
O41 Cd30 2.439 . S
O41 C35 1.208 . S
O42 Cd43 2.223 . S
O42 C50 1.315 . S
Cd43 O42 2.223 . S
Cd43 O46 2.297 . S
Cd43 O47 2.439 . S
Cd43 O53 2.240 . S
Cd44 O45 2.240 . S
Cd44 O52 2.223 . S
Cd44 O54 2.297 . S
Cd44 O55 2.439 . S
O45 Cd44 2.240 . S
O45 C50 1.279 . S
O46 Cd43 2.297 . S
O46 C48 1.247 . S
O47 Cd43 2.439 . S
O47 C48 1.208 . S
C48 O46 1.247 . S
C48 O47 1.208 . S
C49 O54 1.247 . S
C49 O55 1.208 . S
C50 O42 1.315 . S
C50 O45 1.279 . S
C51 O52 1.315 . S
C51 O53 1.279 . S
O52 Cd44 2.223 . S
O52 C51 1.315 . S
O53 Cd43 2.240 . S
O53 C51 1.279 . S
O54 Cd44 2.297 . S
O54 C49 1.247 . S
O55 Cd44 2.439 . S
O55 C49 1.208 . S
O56 Cd57 2.223 1_545 S
O56 C64 1.315 . S
Cd57 O56 2.223 1_565 S
Cd57 O60 2.297 . S
Cd57 O61 2.439 . S
Cd57 O67 2.240 1_565 S
Cd58 O59 2.240 1_545 S
Cd58 O66 2.223 . S
Cd58 O68 2.297 . S
Cd58 O69 2.439 . S
O59 Cd58 2.240 1_565 S
O59 C64 1.279 1_565 S
O60 Cd57 2.297 . S
O60 C62 1.247 . S
O61 Cd57 2.439 . S
O61 C62 1.208 . S
C62 O60 1.247 . S
C62 O61 1.208 . S
C63 O68 1.247 . S
C63 O69 1.208 . S
C64 O56 1.315 . S
C64 O59 1.279 1_545 S
C65 O66 1.315 . S
C65 O67 1.279 . S
O66 Cd58 2.223 . S
O66 C65 1.315 . S
O67 Cd57 2.240 1_545 S
O67 C65 1.279 . S
O68 Cd58 2.297 . S
O68 C63 1.247 . S
O69 Cd58 2.439 . S
O69 C63 1.208 . S
O70 Cd71 2.223 . S
O70 C78 1.315 . S
Cd71 O70 2.223 . S
Cd71 O74 2.297 . S
Cd71 O75 2.439 . S
Cd71 O81 2.240 . S
Cd72 O73 2.240 . S
Cd72 O80 2.223 . S
Cd72 O82 2.297 . S
Cd72 O83 2.439 . S
O73 Cd72 2.240 . S
O73 C78 1.279 . S
O74 Cd71 2.297 . S
O74 C76 1.247 . S
O75 Cd71 2.439 . S
O75 C76 1.208 . S
C76 O74 1.247 . S
C76 O75 1.208 . S
C77 O82 1.247 . S
C77 O83 1.208 . S
C78 O70 1.315 . S
C78 O73 1.279 . S
C79 O80 1.315 . S
C79 O81 1.279 . S
O80 Cd72 2.223 . S
O80 C79 1.315 . S
O81 Cd71 2.240 . S
O81 C79 1.279 . S
O82 Cd72 2.297 . S
O82 C77 1.247 . S
O83 Cd72 2.439 . S
O83 C77 1.208 . S
O84 Cd85 2.223 . S
O84 C92 1.315 . S
Cd85 O84 2.223 . S
Cd85 O88 2.297 . S
Cd85 O89 2.439 . S
Cd85 O95 2.240 1_545 S
Cd86 O87 2.240 1_565 S
Cd86 O94 2.223 . S
Cd86 O96 2.297 . S
Cd86 O97 2.439 1_565 S
O87 Cd86 2.240 1_545 S
O87 C92 1.279 . S
O88 Cd85 2.297 . S
O88 C90 1.247 . S
O89 Cd85 2.439 . S
O89 C90 1.208 . S
C90 O88 1.247 . S
C90 O89 1.208 . S
C91 O96 1.253 . S
C91 O97 1.203 1_565 S
C92 O84 1.315 . S
C92 O87 1.279 . S
C93 O94 1.315 . S
C93 O95 1.279 . S
O94 Cd86 2.223 . S
O94 C93 1.315 . S
O95 Cd85 2.240 1_565 S
O95 C93 1.279 . S
O96 Cd86 2.297 . S
O96 C91 1.253 . S
O97 Cd86 2.439 1_545 S
O97 C91 1.203 1_545 S
O98 Cd99 2.223 . S
O98 C106 1.315 . S
Cd99 O98 2.223 . S
Cd99 O102 2.297 . S
Cd99 O103 2.439 1_554 S
Cd99 O109 2.240 1_554 S
Cd100 O101 2.240 1_556 S
Cd100 O108 2.223 1_556 S
Cd100 O110 2.297 . S
Cd100 O111 2.439 . S
O101 Cd100 2.240 1_554 S
O101 C106 1.279 . S
O102 Cd99 2.297 . S
O102 C104 1.247 . S
O103 Cd99 2.439 1_556 S
O103 C104 1.208 1_556 S
C104 O102 1.247 . S
C104 O103 1.208 1_554 S
C105 O110 1.247 . S
C105 O111 1.208 . S
C106 O98 1.315 . S
C106 O101 1.279 . S
C107 O108 1.315 . S
C107 O109 1.279 1_554 S
O108 Cd100 2.223 1_554 S
O108 C107 1.315 . S
O109 Cd99 2.240 1_556 S
O109 C107 1.279 1_556 S
O110 Cd100 2.297 . S
O110 C105 1.247 . S
O111 Cd100 2.439 . S
O111 C105 1.208 . S
O112 Cd113 2.223 . S
O112 C120 1.315 . S
Cd113 O112 2.223 . S
Cd113 O116 2.297 . S
Cd113 O117 2.439 . S
Cd113 O123 2.242 . S
Cd114 O115 2.240 1_556 S
Cd114 O122 2.223 1_556 S
Cd114 O124 2.297 . S
Cd114 O125 2.439 . S
O115 Cd114 2.240 1_554 S
O115 C120 1.279 . S
O116 Cd113 2.297 . S
O116 C118 1.247 . S
O117 Cd113 2.439 . S
O117 C118 1.208 . S
C118 O116 1.247 . S
C118 O117 1.208 . S
C119 O124 1.247 . S
C119 O125 1.208 . S
C120 O112 1.315 . S
C120 O115 1.279 . S
C121 O122 1.315 . S
C121 O123 1.280 . S
O122 Cd114 2.223 1_554 S
O122 C121 1.315 . S
O123 Cd113 2.242 . S
O123 C121 1.280 . S
O124 Cd114 2.297 . S
O124 C119 1.247 . S
O125 Cd114 2.439 . S
O125 C119 1.208 . S
O126 Cd127 2.223 . S
O126 C134 1.315 . S
Cd127 O126 2.223 . S
Cd127 O130 2.297 . S
Cd127 O131 2.439 . S
Cd127 O137 2.240 . S
Cd128 O129 2.240 . S
Cd128 O136 2.223 . S
Cd128 O138 2.297 . S
Cd128 O139 2.439 . S
O129 Cd128 2.240 . S
O129 C134 1.279 . S
O130 Cd127 2.297 . S
O130 C132 1.247 . S
O131 Cd127 2.439 . S
O131 C132 1.208 . S
C132 O130 1.247 . S
C132 O131 1.208 . S
C133 O138 1.247 . S
C133 O139 1.208 . S
C134 O126 1.315 . S
C134 O129 1.279 . S
C135 O136 1.315 . S
C135 O137 1.279 . S
O136 Cd128 2.223 . S
O136 C135 1.315 . S
O137 Cd127 2.240 . S
O137 C135 1.279 . S
O138 Cd128 2.297 . S
O138 C133 1.247 . S
O139 Cd128 2.439 . S
O139 C133 1.208 . S
O140 Cd141 2.223 . S
O140 C148 1.315 . S
Cd141 O140 2.223 . S
Cd141 O144 2.297 . S
Cd141 O145 2.439 . S
Cd141 O151 2.240 . S
Cd142 O143 2.240 . S
Cd142 O150 2.223 . S
Cd142 O152 2.297 . S
Cd142 O153 2.439 . S
O143 Cd142 2.240 . S
O143 C148 1.279 . S
O144 Cd141 2.297 . S
O144 C146 1.247 . S
O145 Cd141 2.439 . S
O145 C146 1.208 . S
C146 O144 1.247 . S
C146 O145 1.208 . S
C147 O152 1.247 . S
C147 O153 1.208 . S
C148 O140 1.315 . S
C148 O143 1.279 . S
C149 O150 1.315 . S
C149 O151 1.279 . S
O150 Cd142 2.223 . S
O150 C149 1.315 . S
O151 Cd141 2.240 . S
O151 C149 1.279 . S
O152 Cd142 2.297 . S
O152 C147 1.247 . S
O153 Cd142 2.439 . S
O153 C147 1.208 . S
O154 Cd155 2.223 . S
O154 C162 1.315 . S
Cd155 O154 2.223 . S
Cd155 O158 2.297 . S
Cd155 O159 2.439 . S
Cd155 O165 2.240 . S
Cd156 O157 2.240 . S
Cd156 O164 2.223 . S
Cd156 O166 2.297 . S
Cd156 O167 2.439 . S
O157 Cd156 2.240 . S
O157 C162 1.279 . S
O158 Cd155 2.297 . S
O158 C160 1.247 . S
O159 Cd155 2.439 . S
O159 C160 1.208 . S
C160 O158 1.247 . S
C160 O159 1.208 . S
C161 O166 1.247 . S
C161 O167 1.208 . S
C162 O154 1.315 . S
C162 O157 1.279 . S
C163 O164 1.315 . S
C163 O165 1.279 . S
O164 Cd156 2.223 . S
O164 C163 1.315 . S
O165 Cd155 2.240 . S
O165 C163 1.279 . S
O166 Cd156 2.297 . S
O166 C161 1.247 . S
O167 Cd156 2.439 . S
O167 C161 1.208 . S
O168 Cd169 2.223 . S
O168 C176 1.315 . S
Cd169 O168 2.223 . S
Cd169 O172 2.297 . S
Cd169 O173 2.434 1_455 S
Cd169 O179 2.240 . S
Cd170 O171 2.240 1_655 S
Cd170 O178 2.223 1_655 S
Cd170 O180 2.297 . S
Cd170 O181 2.439 . S
O171 Cd170 2.240 1_455 S
O171 C176 1.279 . S
O172 Cd169 2.297 . S
O172 C174 1.247 . S
O173 Cd169 2.434 1_655 S
O173 C174 1.200 1_655 S
C174 O172 1.247 . S
C174 O173 1.200 1_455 S
C175 O180 1.247 . S
C175 O181 1.208 . S
C176 O168 1.315 . S
C176 O171 1.279 . S
C177 O178 1.315 . S
C177 O179 1.279 . S
O178 Cd170 2.223 1_455 S
O178 C177 1.315 . S
O179 Cd169 2.240 . S
O179 C177 1.279 . S
O180 Cd170 2.297 . S
O180 C175 1.247 . S
O181 Cd170 2.439 . S
O181 C175 1.208 . S
O182 Cd183 2.223 1_455 S
O182 C190 1.315 . S
Cd183 O182 2.223 1_655 S
Cd183 O186 2.297 . S
Cd183 O187 2.439 . S
Cd183 O193 2.240 1_655 S
Cd184 O185 2.240 1_455 S
Cd184 O192 2.223 . S
Cd184 O194 2.297 . S
Cd184 O195 2.439 1_455 S
O185 Cd184 2.240 1_655 S
O185 C190 1.279 1_655 S
O186 Cd183 2.297 . S
O186 C188 1.247 . S
O187 Cd183 2.439 . S
O187 C188 1.208 . S
C188 O186 1.247 . S
C188 O187 1.208 . S
C189 O194 1.247 . S
C189 O195 1.208 1_455 S
C190 O182 1.315 . S
C190 O185 1.279 1_455 S
C191 O192 1.315 . S
C191 O193 1.279 . S
O192 Cd184 2.223 . S
O192 C191 1.315 . S
O193 Cd183 2.240 1_455 S
O193 C191 1.279 . S
O194 Cd184 2.297 . S
O194 C189 1.247 . S
O195 Cd184 2.439 1_655 S
O195 C189 1.208 1_655 S
O196 Cd197 2.223 . S
O196 C204 1.315 . S
Cd197 O196 2.223 . S
Cd197 O200 2.297 . S
Cd197 O201 2.439 . S
Cd197 O207 2.240 . S
Cd198 O199 2.240 . S
Cd198 O206 2.223 . S
Cd198 O208 2.297 . S
Cd198 O209 2.439 . S
O199 Cd198 2.240 . S
O199 C204 1.279 . S
O200 Cd197 2.297 . S
O200 C202 1.247 . S
O201 Cd197 2.439 . S
O201 C202 1.208 . S
C202 O200 1.247 . S
C202 O201 1.208 . S
C203 O208 1.247 . S
C203 O209 1.208 . S
C204 O196 1.315 . S
C204 O199 1.279 . S
C205 O206 1.315 . S
C205 O207 1.279 . S
O206 Cd198 2.223 . S
O206 C205 1.315 . S
O207 Cd197 2.240 . S
O207 C205 1.279 . S
O208 Cd198 2.297 . S
O208 C203 1.247 . S
O209 Cd198 2.439 . S
O209 C203 1.208 . S
O210 Cd211 2.223 . S
O210 C218 1.315 . S
Cd211 O210 2.223 . S
Cd211 O214 2.297 . S
Cd211 O215 2.439 . S
Cd211 O221 2.240 . S
Cd212 O213 2.240 . S
Cd212 O220 2.223 . S
Cd212 O222 2.297 . S
Cd212 O223 2.439 . S
O213 Cd212 2.240 . S
O213 C218 1.279 . S
O214 Cd211 2.297 . S
O214 C216 1.247 . S
O215 Cd211 2.439 . S
O215 C216 1.208 . S
C216 O214 1.247 . S
C216 O215 1.208 . S
C217 O222 1.247 . S
C217 O223 1.208 . S
C218 O210 1.315 . S
C218 O213 1.279 . S
C219 O220 1.315 . S
C219 O221 1.279 . S
O220 Cd212 2.223 . S
O220 C219 1.315 . S
O221 Cd211 2.240 . S
O221 C219 1.279 . S
O222 Cd212 2.297 . S
O222 C217 1.247 . S
O223 Cd212 2.439 . S
O223 C217 1.208 . S
O224 Cd225 2.223 1_565 S
O224 C232 1.314 1_565 S
Cd225 O224 2.223 1_545 S
Cd225 O228 2.297 . S
Cd225 O229 2.439 . S
Cd225 O235 2.240 1_545 S
Cd226 O227 2.240 1_565 S
Cd226 O234 2.223 . S
Cd226 O236 2.297 . S
Cd226 O237 2.439 1_565 S
O227 Cd226 2.240 1_545 S
O227 C232 1.285 . S
O228 Cd225 2.297 . S
O228 C230 1.247 . S
O229 Cd225 2.439 . S
O229 C230 1.208 . S
C230 O228 1.247 . S
C230 O229 1.208 . S
C231 O236 1.247 . S
C231 O237 1.208 1_565 S
C232 O224 1.314 1_545 S
C232 O227 1.285 . S
C233 O234 1.315 . S
C233 O235 1.279 . S
O234 Cd226 2.223 . S
O234 C233 1.315 . S
O235 Cd225 2.240 1_565 S
O235 C233 1.279 . S
O236 Cd226 2.297 . S
O236 C231 1.247 . S
O237 Cd226 2.439 1_545 S
O237 C231 1.208 1_545 S
O238 Cd239 2.223 . S
O238 C246 1.315 . S
Cd239 O238 2.223 . S
Cd239 O242 2.297 . S
Cd239 O243 2.439 . S
Cd239 O249 2.240 . S
Cd240 O241 2.240 . S
Cd240 O248 2.223 . S
Cd240 O250 2.297 . S
Cd240 O251 2.439 . S
O241 Cd240 2.240 . S
O241 C246 1.279 . S
O242 Cd239 2.297 . S
O242 C244 1.247 . S
O243 Cd239 2.439 . S
O243 C244 1.208 . S
C244 O242 1.247 . S
C244 O243 1.208 . S
C245 O250 1.247 . S
C245 O251 1.208 . S
C246 O238 1.315 . S
C246 O241 1.279 . S
C247 O248 1.315 . S
C247 O249 1.279 . S
O248 Cd240 2.223 . S
O248 C247 1.315 . S
O249 Cd239 2.240 . S
O249 C247 1.279 . S
O250 Cd240 2.297 . S
O250 C245 1.247 . S
O251 Cd240 2.439 . S
O251 C245 1.208 . S
O252 Cd253 2.223 . S
O252 C260 1.315 . S
Cd253 O252 2.223 . S
Cd253 O256 2.297 1_545 S
Cd253 O257 2.439 1_545 S
Cd253 O263 2.240 . S
Cd254 O255 2.240 . S
Cd254 O262 2.223 . S
Cd254 O264 2.297 . S
Cd254 O265 2.439 . S
O255 Cd254 2.240 . S
O255 C260 1.279 . S
O256 Cd253 2.297 1_565 S
O256 C258 1.247 . S
O257 Cd253 2.439 1_565 S
O257 C258 1.208 . S
C258 O256 1.247 . S
C258 O257 1.208 . S
C259 O264 1.247 . S
C259 O265 1.208 . S
C260 O252 1.315 . S
C260 O255 1.279 . S
C261 O262 1.315 . S
C261 O263 1.279 . S
O262 Cd254 2.223 . S
O262 C261 1.315 . S
O263 Cd253 2.240 . S
O263 C261 1.279 . S
O264 Cd254 2.297 . S
O264 C259 1.247 . S
O265 Cd254 2.439 . S
O265 C259 1.208 . S
O266 Cd267 2.223 . S
O266 C274 1.315 . S
Cd267 O266 2.223 . S
Cd267 O270 2.297 . S
Cd267 O271 2.430 1_554 S
Cd267 O277 2.240 1_554 S
Cd268 O269 2.240 1_556 S
Cd268 O276 2.223 1_556 S
Cd268 O278 2.297 . S
Cd268 O279 2.439 . S
O269 Cd268 2.240 1_554 S
O269 C274 1.279 . S
O270 Cd267 2.297 . S
O270 C272 1.247 . S
O271 Cd267 2.430 1_556 S
O271 C272 1.194 1_556 S
C272 O270 1.247 . S
C272 O271 1.194 1_554 S
C273 O278 1.247 . S
C273 O279 1.208 . S
C274 O266 1.315 . S
C274 O269 1.279 . S
C275 O276 1.315 . S
C275 O277 1.279 1_554 S
O276 Cd268 2.223 1_554 S
O276 C275 1.315 . S
O277 Cd267 2.240 1_556 S
O277 C275 1.279 1_556 S
O278 Cd268 2.297 . S
O278 C273 1.247 . S
O279 Cd268 2.439 . S
O279 C273 1.208 . S
O280 Cd281 2.223 . S
O280 C288 1.315 . S
Cd281 O280 2.223 . S
Cd281 O284 2.297 . S
Cd281 O285 2.439 1_554 S
Cd281 O291 2.240 1_554 S
Cd282 O283 2.240 1_556 S
Cd282 O290 2.223 1_556 S
Cd282 O292 2.297 . S
Cd282 O293 2.439 . S
O283 Cd282 2.240 1_554 S
O283 C288 1.279 . S
O284 Cd281 2.297 . S
O284 C286 1.247 . S
O285 Cd281 2.439 1_556 S
O285 C286 1.208 1_556 S
C286 O284 1.247 . S
C286 O285 1.208 1_554 S
C287 O292 1.247 . S
C287 O293 1.208 . S
C288 O280 1.315 . S
C288 O283 1.279 . S
C289 O290 1.315 . S
C289 O291 1.279 1_554 S
O290 Cd282 2.223 1_554 S
O290 C289 1.315 . S
O291 Cd281 2.240 1_556 S
O291 C289 1.279 1_556 S
O292 Cd282 2.297 . S
O292 C287 1.247 . S
O293 Cd282 2.439 . S
O293 C287 1.208 . S
O294 Cd295 2.223 . S
O294 C302 1.315 . S
Cd295 O294 2.223 . S
Cd295 O298 2.297 . S
Cd295 O299 2.439 . S
Cd295 O305 2.240 . S
Cd296 O297 2.240 . S
Cd296 O304 2.223 . S
Cd296 O306 2.297 . S
Cd296 O307 2.439 . S
O297 Cd296 2.240 . S
O297 C302 1.279 . S
O298 Cd295 2.297 . S
O298 C300 1.247 . S
O299 Cd295 2.439 . S
O299 C300 1.208 . S
C300 O298 1.247 . S
C300 O299 1.208 . S
C301 O306 1.247 . S
C301 O307 1.208 . S
C302 O294 1.315 . S
C302 O297 1.279 . S
C303 O304 1.315 . S
C303 O305 1.279 . S
O304 Cd296 2.223 . S
O304 C303 1.315 . S
O305 Cd295 2.240 . S
O305 C303 1.279 . S
O306 Cd296 2.297 . S
O306 C301 1.247 . S
O307 Cd296 2.439 . S
O307 C301 1.208 . S
O308 Cd309 2.223 . S
O308 C316 1.315 . S
Cd309 O308 2.223 . S
Cd309 O312 2.297 . S
Cd309 O313 2.439 . S
Cd309 O319 2.240 . S
Cd310 O311 2.240 . S
Cd310 O318 2.223 . S
Cd310 O320 2.297 . S
Cd310 O321 2.439 . S
O311 Cd310 2.240 . S
O311 C316 1.279 . S
O312 Cd309 2.297 . S
O312 C314 1.247 . S
O313 Cd309 2.439 . S
O313 C314 1.208 . S
C314 O312 1.247 . S
C314 O313 1.208 . S
C315 O320 1.247 . S
C315 O321 1.208 . S
C316 O308 1.315 . S
C316 O311 1.279 . S
C317 O318 1.315 . S
C317 O319 1.279 . S
O318 Cd310 2.223 . S
O318 C317 1.315 . S
O319 Cd309 2.240 . S
O319 C317 1.279 . S
O320 Cd310 2.297 . S
O320 C315 1.247 . S
O321 Cd310 2.439 . S
O321 C315 1.208 . S
O322 Cd323 2.223 . S
O322 C330 1.315 . S
Cd323 O322 2.223 . S
Cd323 O326 2.297 . S
Cd323 O327 2.439 . S
Cd323 O333 2.240 . S
Cd324 O325 2.240 . S
Cd324 O332 2.223 . S
Cd324 O334 2.297 . S
Cd324 O335 2.439 . S
O325 Cd324 2.240 . S
O325 C330 1.279 . S
O326 Cd323 2.297 . S
O326 C328 1.247 . S
O327 Cd323 2.439 . S
O327 C328 1.208 . S
C328 O326 1.247 . S
C328 O327 1.208 . S
C329 O334 1.247 . S
C329 O335 1.208 . S
C330 O322 1.315 . S
C330 O325 1.279 . S
C331 O332 1.315 . S
C331 O333 1.279 . S
O332 Cd324 2.223 . S
O332 C331 1.315 . S
O333 Cd323 2.240 . S
O333 C331 1.279 . S
O334 Cd324 2.297 . S
O334 C329 1.247 . S
O335 Cd324 2.439 . S
O335 C329 1.208 . S
O336 Mg337 1.990 . S
O336 C350 1.253 . S
Mg337 O336 1.990 . S
Mg337 O340 2.180 1_556 S
Mg337 O341 2.117 1_556 S
Mg337 O355 2.030 1_556 S
O338 Mg339 2.072 1_656 S
O338 C350 1.260 . S
Mg339 O338 2.072 1_454 S
Mg339 O340 2.099 1_455 S
Mg339 O342 2.079 1_545 S
Mg339 O343 2.072 . S
Mg339 O345 2.099 1_545 S
Mg339 O356 2.079 1_445 S
O340 Mg337 2.180 1_554 S
O340 Mg339 2.099 1_655 S
O340 C351 1.279 . S
O341 Mg337 2.117 1_554 S
O341 C351 1.250 . S
O342 Mg339 2.079 1_565 S
O342 C352 1.264 . S
O343 Mg339 2.072 . S
O343 C353 1.260 1_554 S
Mg344 O345 2.181 . S
Mg344 O346 2.030 . S
Mg344 O347 1.990 1_554 S
Mg344 O348 2.117 1_554 S
O345 Mg339 2.099 1_565 S
O345 Mg344 2.181 . S
O345 C354 1.276 1_554 S
O346 Mg344 2.030 . S
O346 C352 1.248 . S
O347 Mg344 1.990 1_556 S
O347 C353 1.253 1_565 S
O348 Mg344 2.117 1_556 S
O348 C354 1.250 . S
C349 O355 1.248 1_565 S
C349 O356 1.264 . S
C350 O336 1.253 . S
C350 O338 1.260 . S
C351 O340 1.279 . S
C351 O341 1.250 . S
C352 O342 1.264 . S
C352 O346 1.248 . S
C353 O343 1.260 1_556 S
C353 O347 1.253 1_545 S
C354 O345 1.276 1_556 S
C354 O348 1.250 . S
O355 Mg337 2.030 1_554 S
O355 C349 1.248 1_545 S
O356 Mg339 2.079 1_665 S
O356 C349 1.264 . S
O357 Mg358 1.990 . S
O357 C371 1.253 . S
Mg358 O357 1.990 . S
Mg358 O361 2.180 . S
Mg358 O362 2.117 . S
Mg358 O376 2.030 . S
O359 Mg360 2.072 . S
O359 C371 1.260 . S
Mg360 O359 2.072 . S
Mg360 O361 2.099 . S
Mg360 O363 2.079 . S
Mg360 O364 2.072 . S
Mg360 O366 2.099 . S
Mg360 O377 2.079 . S
O361 Mg358 2.180 . S
O361 Mg360 2.099 . S
O361 C372 1.279 . S
O362 Mg358 2.117 . S
O362 C372 1.250 . S
O363 Mg360 2.079 . S
O363 C373 1.264 . S
O364 Mg360 2.072 . S
O364 C374 1.260 . S
Mg365 O366 2.180 . S
Mg365 O367 2.030 . S
Mg365 O368 1.990 . S
Mg365 O369 2.117 . S
O366 Mg360 2.099 . S
O366 Mg365 2.180 . S
O366 C375 1.279 . S
O367 Mg365 2.030 . S
O367 C373 1.248 . S
O368 Mg365 1.990 . S
O368 C374 1.253 . S
O369 Mg365 2.117 . S
O369 C375 1.250 . S
C370 O376 1.248 . S
C370 O377 1.264 . S
C371 O357 1.253 . S
C371 O359 1.260 . S
C372 O361 1.279 . S
C372 O362 1.250 . S
C373 O363 1.264 . S
C373 O367 1.248 . S
C374 O364 1.260 . S
C374 O368 1.253 . S
C375 O366 1.279 . S
C375 O369 1.250 . S
O376 Mg358 2.030 . S
O376 C370 1.248 . S
O377 Mg360 2.079 . S
O377 C370 1.264 . S
O378 Mg379 1.990 . S
O378 C392 1.253 1_565 S
Mg379 O378 1.990 . S
Mg379 O382 2.180 . S
Mg379 O383 2.117 . S
Mg379 O397 2.030 1_565 S
O380 Mg381 2.072 . S
O380 C392 1.260 . S
Mg381 O380 2.072 . S
Mg381 O382 2.099 1_545 S
Mg381 O384 2.079 . S
Mg381 O385 2.072 1_545 S
Mg381 O387 2.099 . S
Mg381 O398 2.079 . S
O382 Mg379 2.180 . S
O382 Mg381 2.099 1_565 S
O382 C393 1.279 . S
O383 Mg379 2.117 . S
O383 C393 1.250 . S
O384 Mg381 2.079 . S
O384 C394 1.264 . S
O385 Mg381 2.072 1_565 S
O385 C395 1.260 . S
Mg386 O387 2.180 . S
Mg386 O388 2.030 . S
Mg386 O389 1.990 . S
Mg386 O390 2.117 . S
O387 Mg381 2.099 . S
O387 Mg386 2.180 . S
O387 C396 1.279 . S
O388 Mg386 2.030 . S
O388 C394 1.248 . S
O389 Mg386 1.990 . S
O389 C395 1.253 1_545 S
O390 Mg386 2.117 . S
O390 C396 1.250 . S
C391 O397 1.248 . S
C391 O398 1.264 . S
C392 O378 1.253 1_545 S
C392 O380 1.260 . S
C393 O382 1.279 . S
C393 O383 1.250 . S
C394 O384 1.264 . S
C394 O388 1.248 . S
C395 O385 1.260 . S
C395 O389 1.253 1_565 S
C396 O387 1.279 . S
C396 O390 1.250 . S
O397 Mg379 2.030 1_545 S
O397 C391 1.248 . S
O398 Mg381 2.079 . S
O398 C391 1.264 . S
O399 Mg400 1.990 . S
O399 C413 1.253 . S
Mg400 O399 1.990 . S
Mg400 O403 2.180 . S
Mg400 O404 2.117 . S
Mg400 O418 2.030 . S
O401 Mg402 2.072 . S
O401 C413 1.260 . S
Mg402 O401 2.072 . S
Mg402 O403 2.099 . S
Mg402 O405 2.079 . S
Mg402 O406 2.072 . S
Mg402 O408 2.099 . S
Mg402 O419 2.079 . S
O403 Mg400 2.180 . S
O403 Mg402 2.099 . S
O403 C414 1.279 . S
O404 Mg400 2.117 . S
O404 C414 1.250 . S
O405 Mg402 2.079 . S
O405 C415 1.264 . S
O406 Mg402 2.072 . S
O406 C416 1.260 . S
Mg407 O408 2.180 . S
Mg407 O409 2.030 . S
Mg407 O410 1.990 . S
Mg407 O411 2.117 . S
O408 Mg402 2.099 . S
O408 Mg407 2.180 . S
O408 C417 1.279 . S
O409 Mg407 2.030 . S
O409 C415 1.248 . S
O410 Mg407 1.990 . S
O410 C416 1.253 . S
O411 Mg407 2.117 . S
O411 C417 1.250 . S
C412 O418 1.248 . S
C412 O419 1.264 . S
C413 O399 1.253 . S
C413 O401 1.260 . S
C414 O403 1.279 . S
C414 O404 1.250 . S
C415 O405 1.264 . S
C415 O409 1.248 . S
C416 O406 1.260 . S
C416 O410 1.253 . S
C417 O408 1.279 . S
C417 O411 1.250 . S
O418 Mg400 2.030 . S
O418 C412 1.248 . S
O419 Mg402 2.079 . S
O419 C412 1.264 . S
O420 Mg421 1.990 1_655 S
O420 C434 1.253 . S
Mg421 O420 1.990 1_455 S
Mg421 O424 2.180 1_455 S
Mg421 O425 2.117 1_455 S
Mg421 O439 2.030 . S
O422 Mg423 2.072 1_665 S
O422 C434 1.260 . S
Mg423 O422 2.072 1_445 S
Mg423 O424 2.099 1_445 S
Mg423 O426 2.079 . S
Mg423 O427 2.072 1_455 S
Mg423 O429 2.099 . S
Mg423 O440 2.079 1_545 S
O424 Mg421 2.180 1_655 S
O424 Mg423 2.099 1_665 S
O424 C435 1.279 . S
O425 Mg421 2.117 1_655 S
O425 C435 1.250 . S
O426 Mg423 2.079 . S
O426 C436 1.264 . S
O427 Mg423 2.072 1_655 S
O427 C437 1.260 . S
Mg428 O429 2.180 1_655 S
Mg428 O430 2.031 . S
Mg428 O431 1.990 . S
Mg428 O432 2.117 1_655 S
O429 Mg423 2.099 . S
O429 Mg428 2.180 1_455 S
O429 C438 1.279 . S
O430 Mg428 2.031 . S
O430 C436 1.237 1_655 S
O431 Mg428 1.990 . S
O431 C437 1.253 . S
O432 Mg428 2.117 1_455 S
O432 C438 1.250 . S
C433 O439 1.248 . S
C433 O440 1.264 . S
C434 O420 1.253 . S
C434 O422 1.260 . S
C435 O424 1.279 . S
C435 O425 1.250 . S
C436 O426 1.264 . S
C436 O430 1.237 1_455 S
C437 O427 1.260 . S
C437 O431 1.253 . S
C438 O429 1.279 . S
C438 O432 1.250 . S
O439 Mg421 2.030 . S
O439 C433 1.248 . S
O440 Mg423 2.079 1_565 S
O440 C433 1.264 . S
O441 Mg442 1.990 . S
O441 C455 1.253 . S
Mg442 O441 1.990 . S
Mg442 O445 2.180 . S
Mg442 O446 2.117 . S
Mg442 O460 2.030 . S
O443 Mg444 2.072 . S
O443 C455 1.260 . S
Mg444 O443 2.072 . S
Mg444 O445 2.099 . S
Mg444 O447 2.079 . S
Mg444 O448 2.072 . S
Mg444 O450 2.099 . S
Mg444 O461 2.079 . S
O445 Mg442 2.180 . S
O445 Mg444 2.099 . S
O445 C456 1.279 . S
O446 Mg442 2.117 . S
O446 C456 1.250 . S
O447 Mg444 2.079 . S
O447 C457 1.264 . S
O448 Mg444 2.072 . S
O448 C458 1.260 . S
Mg449 O450 2.180 . S
Mg449 O451 2.030 . S
Mg449 O452 1.990 . S
Mg449 O453 2.117 . S
O450 Mg444 2.099 . S
O450 Mg449 2.180 . S
O450 C459 1.279 . S
O451 Mg449 2.030 . S
O451 C457 1.248 . S
O452 Mg449 1.990 . S
O452 C458 1.253 . S
O453 Mg449 2.117 . S
O453 C459 1.250 . S
C454 O460 1.248 . S
C454 O461 1.264 . S
C455 O441 1.253 . S
C455 O443 1.260 . S
C456 O445 1.279 . S
C456 O446 1.250 . S
C457 O447 1.264 . S
C457 O451 1.248 . S
C458 O448 1.260 . S
C458 O452 1.253 . S
C459 O450 1.279 . S
C459 O453 1.250 . S
O460 Mg442 2.030 . S
O460 C454 1.248 . S
O461 Mg444 2.079 . S
O461 C454 1.264 . S
O462 Mg463 1.990 1_565 S
O462 C476 1.253 . S
Mg463 O462 1.990 1_545 S
Mg463 O466 2.180 . S
Mg463 O467 2.117 . S
Mg463 O481 2.030 . S
O464 Mg465 2.072 1_565 S
O464 C476 1.260 . S
Mg465 O464 2.072 1_545 S
Mg465 O466 2.099 . S
Mg465 O468 2.079 1_554 S
Mg465 O469 2.072 1_554 S
Mg465 O471 2.099 1_554 S
Mg465 O482 2.079 . S
O466 Mg463 2.180 . S
O466 Mg465 2.099 . S
O466 C477 1.279 . S
O467 Mg463 2.117 . S
O467 C477 1.250 . S
O468 Mg465 2.079 1_556 S
O468 C478 1.264 . S
O469 Mg465 2.072 1_556 S
O469 C479 1.260 . S
Mg470 O471 2.180 . S
Mg470 O472 2.030 . S
Mg470 O473 1.990 . S
Mg470 O474 2.117 1_545 S
O471 Mg465 2.099 1_556 S
O471 Mg470 2.180 . S
O471 C480 1.279 1_545 S
O472 Mg470 2.030 . S
O472 C478 1.248 . S
O473 Mg470 1.990 . S
O473 C479 1.253 . S
O474 Mg470 2.117 1_565 S
O474 C480 1.250 . S
C475 O481 1.248 . S
C475 O482 1.264 . S
C476 O462 1.253 . S
C476 O464 1.260 . S
C477 O466 1.279 . S
C477 O467 1.250 . S
C478 O468 1.264 . S
C478 O472 1.248 . S
C479 O469 1.260 . S
C479 O473 1.253 . S
C480 O471 1.279 1_565 S
C480 O474 1.250 . S
O481 Mg463 2.030 . S
O481 C475 1.248 . S
O482 Mg465 2.079 . S
O482 C475 1.264 . S
O483 Mg484 1.990 . S
O483 C497 1.253 . S
Mg484 O483 1.990 . S
Mg484 O487 2.180 . S
Mg484 O488 2.117 . S
Mg484 O502 2.030 . S
O485 Mg486 2.072 . S
O485 C497 1.260 . S
Mg486 O485 2.072 . S
Mg486 O487 2.099 . S
Mg486 O489 2.079 . S
Mg486 O490 2.072 . S
Mg486 O492 2.099 . S
Mg486 O503 2.079 . S
O487 Mg484 2.180 . S
O487 Mg486 2.099 . S
O487 C498 1.279 . S
O488 Mg484 2.117 . S
O488 C498 1.250 . S
O489 Mg486 2.079 . S
O489 C499 1.264 . S
O490 Mg486 2.072 . S
O490 C500 1.260 . S
Mg491 O492 2.180 . S
Mg491 O493 2.030 . S
Mg491 O494 1.990 . S
Mg491 O495 2.117 . S
O492 Mg486 2.099 . S
O492 Mg491 2.180 . S
O492 C501 1.279 . S
O493 Mg491 2.030 . S
O493 C499 1.248 . S
O494 Mg491 1.990 . S
O494 C500 1.253 . S
O495 Mg491 2.117 . S
O495 C501 1.250 . S
C496 O502 1.248 . S
C496 O503 1.264 . S
C497 O483 1.253 . S
C497 O485 1.260 . S
C498 O487 1.279 . S
C498 O488 1.250 . S
C499 O489 1.264 . S
C499 O493 1.248 . S
C500 O490 1.260 . S
C500 O494 1.253 . S
C501 O492 1.279 . S
C501 O495 1.250 . S
O502 Mg484 2.030 . S
O502 C496 1.248 . S
O503 Mg486 2.079 . S
O503 C496 1.264 . S
O504 Mg505 1.990 . S
O504 C518 1.253 . S
Mg505 O504 1.990 . S
Mg505 O508 2.180 . S
Mg505 O509 2.117 . S
Mg505 O523 2.030 1_556 S
O506 Mg507 2.072 . S
O506 C518 1.260 1_554 S
Mg507 O506 2.072 . S
Mg507 O508 2.099 1_554 S
Mg507 O510 2.079 . S
Mg507 O511 2.072 1_554 S
Mg507 O513 2.099 . S
Mg507 O524 2.079 . S
O508 Mg505 2.180 . S
O508 Mg507 2.099 1_556 S
O508 C519 1.279 . S
O509 Mg505 2.117 . S
O509 C519 1.250 . S
O510 Mg507 2.079 . S
O510 C520 1.264 . S
O511 Mg507 2.072 1_556 S
O511 C521 1.260 . S
Mg512 O513 2.180 . S
Mg512 O514 2.030 . S
Mg512 O515 1.990 . S
Mg512 O516 2.117 . S
O513 Mg507 2.099 . S
O513 Mg512 2.180 . S
O513 C522 1.279 . S
O514 Mg512 2.030 . S
O514 C520 1.248 . S
O515 Mg512 1.990 . S
O515 C521 1.253 1_554 S
O516 Mg512 2.117 . S
O516 C522 1.250 . S
C517 O523 1.248 . S
C517 O524 1.264 . S
C518 O504 1.253 . S
C518 O506 1.260 1_556 S
C519 O508 1.279 . S
C519 O509 1.250 . S
C520 O510 1.264 . S
C520 O514 1.248 . S
C521 O511 1.260 . S
C521 O515 1.253 1_556 S
C522 O513 1.279 . S
C522 O516 1.250 . S
O523 Mg505 2.030 1_554 S
O523 C517 1.248 . S
O524 Mg507 2.079 . S
O524 C517 1.264 . S
O525 Mg526 1.990 . S
O525 C539 1.253 . S
Mg526 O525 1.990 . S
Mg526 O529 2.180 . S
Mg526 O530 2.117 . S
Mg526 O544 2.030 . S
O527 Mg528 2.072 . S
O527 C539 1.260 . S
Mg528 O527 2.072 . S
Mg528 O529 2.099 . S
Mg528 O531 2.079 . S
Mg528 O532 2.072 . S
Mg528 O534 2.099 . S
Mg528 O545 2.079 . S
O529 Mg526 2.180 . S
O529 Mg528 2.099 . S
O529 C540 1.279 . S
O530 Mg526 2.117 . S
O530 C540 1.250 . S
O531 Mg528 2.079 . S
O531 C541 1.264 . S
O532 Mg528 2.072 . S
O532 C542 1.260 . S
Mg533 O534 2.180 . S
Mg533 O535 2.030 . S
Mg533 O536 1.990 . S
Mg533 O537 2.117 . S
O534 Mg528 2.099 . S
O534 Mg533 2.180 . S
O534 C543 1.279 . S
O535 Mg533 2.030 . S
O535 C541 1.248 . S
O536 Mg533 1.990 . S
O536 C542 1.253 . S
O537 Mg533 2.117 . S
O537 C543 1.250 . S
C538 O544 1.248 . S
C538 O545 1.264 . S
C539 O525 1.253 . S
C539 O527 1.260 . S
C540 O529 1.279 . S
C540 O530 1.250 . S
C541 O531 1.264 . S
C541 O535 1.248 . S
C542 O532 1.260 . S
C542 O536 1.253 . S
C543 O534 1.279 . S
C543 O537 1.250 . S
O544 Mg526 2.030 . S
O544 C538 1.248 . S
O545 Mg528 2.079 . S
O545 C538 1.264 . S
O546 Mg547 1.990 . S
O546 C560 1.253 . S
Mg547 O546 1.990 . S
Mg547 O550 2.180 . S
Mg547 O551 2.117 . S
Mg547 O565 2.030 1_655 S
O548 Mg549 2.072 . S
O548 C560 1.260 1_455 S
Mg549 O548 2.072 . S
Mg549 O550 2.099 1_455 S
Mg549 O552 2.079 . S
Mg549 O553 2.072 1_455 S
Mg549 O555 2.099 . S
Mg549 O566 2.079 . S
O550 Mg547 2.180 . S
O550 Mg549 2.099 1_655 S
O550 C561 1.279 . S
O551 Mg547 2.117 . S
O551 C561 1.250 . S
O552 Mg549 2.079 . S
O552 C562 1.264 . S
O553 Mg549 2.072 1_655 S
O553 C563 1.260 . S
Mg554 O555 2.180 . S
Mg554 O556 2.030 . S
Mg554 O557 1.990 . S
Mg554 O558 2.117 . S
O555 Mg549 2.099 . S
O555 Mg554 2.180 . S
O555 C564 1.279 . S
O556 Mg554 2.030 . S
O556 C562 1.248 . S
O557 Mg554 1.990 . S
O557 C563 1.253 1_455 S
O558 Mg554 2.117 . S
O558 C564 1.250 . S
C559 O565 1.248 . S
C559 O566 1.264 . S
C560 O546 1.253 . S
C560 O548 1.260 1_655 S
C561 O550 1.279 . S
C561 O551 1.250 . S
C562 O552 1.264 . S
C562 O556 1.248 . S
C563 O553 1.260 . S
C563 O557 1.253 1_655 S
C564 O555 1.279 . S
C564 O558 1.250 . S
O565 Mg547 2.030 1_455 S
O565 C559 1.248 . S
O566 Mg549 2.079 . S
O566 C559 1.264 . S
O567 Mg568 1.990 . S
O567 C581 1.253 . S
Mg568 O567 1.990 . S
Mg568 O571 2.180 . S
Mg568 O572 2.117 . S
Mg568 O586 2.030 . S
O569 Mg570 2.072 . S
O569 C581 1.260 . S
Mg570 O569 2.072 . S
Mg570 O571 2.099 . S
Mg570 O573 2.079 . S
Mg570 O574 2.072 . S
Mg570 O576 2.099 . S
Mg570 O587 2.079 . S
O571 Mg568 2.180 . S
O571 Mg570 2.099 . S
O571 C582 1.279 . S
O572 Mg568 2.117 . S
O572 C582 1.250 . S
O573 Mg570 2.079 . S
O573 C583 1.264 . S
O574 Mg570 2.072 . S
O574 C584 1.260 . S
Mg575 O576 2.180 . S
Mg575 O577 2.030 . S
Mg575 O578 1.990 . S
Mg575 O579 2.117 . S
O576 Mg570 2.099 . S
O576 Mg575 2.180 . S
O576 C585 1.279 . S
O577 Mg575 2.030 . S
O577 C583 1.248 . S
O578 Mg575 1.990 . S
O578 C584 1.253 . S
O579 Mg575 2.117 . S
O579 C585 1.250 . S
C580 O586 1.248 . S
C580 O587 1.264 . S
C581 O567 1.253 . S
C581 O569 1.260 . S
C582 O571 1.279 . S
C582 O572 1.250 . S
C583 O573 1.264 . S
C583 O577 1.248 . S
C584 O574 1.260 . S
C584 O578 1.253 . S
C585 O576 1.279 . S
C585 O579 1.250 . S
O586 Mg568 2.030 . S
O586 C580 1.248 . S
O587 Mg570 2.079 . S
O587 C580 1.264 . S
O588 Mg589 1.990 . S
O588 C602 1.253 . S
Mg589 O588 1.990 . S
Mg589 O592 2.180 . S
Mg589 O593 2.117 . S
Mg589 O607 2.030 . S
O590 Mg591 2.072 . S
O590 C602 1.260 . S
Mg591 O590 2.072 . S
Mg591 O592 2.099 . S
Mg591 O594 2.079 . S
Mg591 O595 2.072 . S
Mg591 O597 2.099 . S
Mg591 O608 2.079 . S
O592 Mg589 2.180 . S
O592 Mg591 2.099 . S
O592 C603 1.279 . S
O593 Mg589 2.117 . S
O593 C603 1.250 . S
O594 Mg591 2.079 . S
O594 C604 1.264 . S
O595 Mg591 2.072 . S
O595 C605 1.260 . S
Mg596 O597 2.180 . S
Mg596 O598 2.030 . S
Mg596 O599 1.990 . S
Mg596 O600 2.117 . S
O597 Mg591 2.099 . S
O597 Mg596 2.180 . S
O597 C606 1.279 . S
O598 Mg596 2.030 . S
O598 C604 1.248 . S
O599 Mg596 1.990 . S
O599 C605 1.253 . S
O600 Mg596 2.117 . S
O600 C606 1.250 . S
C601 O607 1.248 . S
C601 O608 1.264 . S
C602 O588 1.253 . S
C602 O590 1.260 . S
C603 O592 1.279 . S
C603 O593 1.250 . S
C604 O594 1.264 . S
C604 O598 1.248 . S
C605 O595 1.260 . S
C605 O599 1.253 . S
C606 O597 1.279 . S
C606 O600 1.250 . S
O607 Mg589 2.030 . S
O607 C601 1.248 . S
O608 Mg591 2.079 . S
O608 C601 1.264 . S
O609 Mg610 1.990 . S
O609 C623 1.253 . S
Mg610 O609 1.990 . S
Mg610 O613 2.180 . S
Mg610 O614 2.117 . S
Mg610 O628 2.030 . S
O611 Mg612 2.072 . S
O611 C623 1.260 . S
Mg612 O611 2.072 . S
Mg612 O613 2.099 . S
Mg612 O615 2.079 . S
Mg612 O616 2.072 . S
Mg612 O618 2.099 . S
Mg612 O629 2.079 . S
O613 Mg610 2.180 . S
O613 Mg612 2.099 . S
O613 C624 1.279 . S
O614 Mg610 2.117 . S
O614 C624 1.250 . S
O615 Mg612 2.079 . S
O615 C625 1.264 . S
O616 Mg612 2.072 . S
O616 C626 1.260 . S
Mg617 O618 2.180 . S
Mg617 O619 2.030 . S
Mg617 O620 1.990 . S
Mg617 O621 2.117 . S
O618 Mg612 2.099 . S
O618 Mg617 2.180 . S
O618 C627 1.279 . S
O619 Mg617 2.030 . S
O619 C625 1.248 . S
O620 Mg617 1.990 . S
O620 C626 1.253 . S
O621 Mg617 2.117 . S
O621 C627 1.250 . S
C622 O628 1.248 . S
C622 O629 1.264 . S
C623 O609 1.253 . S
C623 O611 1.260 . S
C624 O613 1.279 . S
C624 O614 1.250 . S
C625 O615 1.264 . S
C625 O619 1.248 . S
C626 O616 1.260 . S
C626 O620 1.253 . S
C627 O618 1.279 . S
C627 O621 1.250 . S
O628 Mg610 2.030 . S
O628 C622 1.248 . S
O629 Mg612 2.079 . S
O629 C622 1.264 . S
O630 Mg631 1.990 . S
O630 C644 1.253 . S
Mg631 O630 1.990 . S
Mg631 O634 2.180 . S
Mg631 O635 2.117 . S
Mg631 O649 2.030 . S
O632 Mg633 2.072 . S
O632 C644 1.260 . S
Mg633 O632 2.072 . S
Mg633 O634 2.099 . S
Mg633 O636 2.079 . S
Mg633 O637 2.072 . S
Mg633 O639 2.099 . S
Mg633 O650 2.079 . S
O634 Mg631 2.180 . S
O634 Mg633 2.099 . S
O634 C645 1.279 . S
O635 Mg631 2.117 . S
O635 C645 1.250 . S
O636 Mg633 2.079 . S
O636 C646 1.264 . S
O637 Mg633 2.072 . S
O637 C647 1.260 . S
Mg638 O639 2.180 . S
Mg638 O640 2.030 . S
Mg638 O641 1.990 . S
Mg638 O642 2.117 . S
O639 Mg633 2.099 . S
O639 Mg638 2.180 . S
O639 C648 1.279 . S
O640 Mg638 2.030 . S
O640 C646 1.248 . S
O641 Mg638 1.990 . S
O641 C647 1.253 . S
O642 Mg638 2.117 . S
O642 C648 1.250 . S
C643 O649 1.248 . S
C643 O650 1.264 . S
C644 O630 1.253 . S
C644 O632 1.260 . S
C645 O634 1.279 . S
C645 O635 1.250 . S
C646 O636 1.264 . S
C646 O640 1.248 . S
C647 O637 1.260 . S
C647 O641 1.253 . S
C648 O639 1.279 . S
C648 O642 1.250 . S
O649 Mg631 2.030 . S
O649 C643 1.248 . S
O650 Mg633 2.079 . S
O650 C643 1.264 . S
O651 Mg652 1.990 . S
O651 C665 1.253 . S
Mg652 O651 1.990 . S
Mg652 O655 2.180 1_556 S
Mg652 O656 2.117 1_556 S
Mg652 O670 2.030 1_556 S
O653 Mg654 2.072 1_556 S
O653 C665 1.260 . S
Mg654 O653 2.072 1_554 S
Mg654 O655 2.099 . S
Mg654 O657 2.079 1_455 S
Mg654 O658 2.072 1_455 S
Mg654 O660 2.099 1_455 S
Mg654 O671 2.079 . S
O655 Mg652 2.180 1_554 S
O655 Mg654 2.099 . S
O655 C666 1.279 . S
O656 Mg652 2.117 1_554 S
O656 C666 1.250 . S
O657 Mg654 2.079 1_655 S
O657 C667 1.264 . S
O658 Mg654 2.072 1_655 S
O658 C668 1.260 . S
Mg659 O660 2.180 . S
Mg659 O661 2.030 . S
Mg659 O662 1.990 . S
Mg659 O663 2.117 1_554 S
O660 Mg654 2.099 1_655 S
O660 Mg659 2.180 . S
O660 C669 1.279 1_554 S
O661 Mg659 2.030 . S
O661 C667 1.248 . S
O662 Mg659 1.990 . S
O662 C668 1.253 . S
O663 Mg659 2.117 1_556 S
O663 C669 1.250 . S
C664 O670 1.248 . S
C664 O671 1.264 . S
C665 O651 1.253 . S
C665 O653 1.260 . S
C666 O655 1.279 . S
C666 O656 1.250 . S
C667 O657 1.264 . S
C667 O661 1.248 . S
C668 O658 1.260 . S
C668 O662 1.253 . S
C669 O660 1.279 1_556 S
C669 O663 1.250 . S
O670 Mg652 2.030 1_554 S
O670 C664 1.248 . S
O671 Mg654 2.079 . S
O671 C664 1.264 . S
C351 C8 1.797 1_655 S
C22 C370 2.179 . S
C35 C393 1.029 . S
C413 C49 1.427 . S
C23 C434 2.445 1_455 S
C456 C34 1.149 . S
C478 C48 1.088 . S
C9 C496 1.602 . S
C64 C352 1.599 1_545 S
C77 C371 1.313 . S
C394 C92 1.755 . S
C417 C105 1.552 . S
C63 C438 1.393 . S
C457 C78 1.743 . S
C479 C91 1.391 1_545 S
C497 C106 1.731 . S
C353 C107 1.906 1_556 S
C520 C118 1.008 . S
C135 C542 1.938 . S
C561 C146 1.543 . S
C65 C501 1.925 . S
C395 C79 2.122 . S
C132 C583 1.201 . S
C606 C160 1.296 . S
C177 C354 1.955 . S
C605 C188 1.655 . S
C204 C396 2.103 . S
C219 C580 1.494 . S
C436 C190 1.580 . S
C543 C202 1.936 . S
C476 C217 1.574 . S
C626 C175 1.618 . S
C350 C231 1.647 1_545 S
C246 C604 1.664 . S
C392 C259 1.445 . S
C274 C585 1.856 . S
C232 C435 1.904 1_545 S
C245 C539 1.565 . S
C475 C260 1.587 . S
C273 C625 1.346 . S
C275 C349 1.663 . S
C286 C518 1.437 1_554 S
C303 C454 1.618 . S
C314 C564 1.850 . S
C624 C233 1.929 . S
C391 C247 1.580 . S
C416 C300 1.479 . S
C372 C328 2.001 . S
C36 C648 1.719 . S
C601 C50 2.140 . S
C666 C7 1.003 . S
C21 C584 1.438 . S
C51 C521 2.436 . S
C540 C6 1.111 . S
C562 C20 1.059 . S
C622 C37 1.569 . S
C643 C162 1.526 . S
C119 C602 1.317 . S
C134 C667 1.674 . S
C582 C147 1.519 . S
C519 C161 1.369 . S
C120 C541 1.670 . S
C563 C133 1.384 . S
C148 C623 1.788 . S
C644 C149 1.775 . S
C433 C76 0.945 . S
C458 C93 2.092 . S
C104 C477 1.497 . S
C627 C163 1.734 . S
C121 C668 1.965 . S
C412 C90 1.143 . S
C375 C62 1.244 . S
C203 C645 1.880 . S
C374 C216 1.572 . S
C669 C174 1.981 1_655 S
C191 C415 1.577 . S
C218 C517 1.506 . S
C176 C459 2.013 . S
C189 C560 1.660 1_455 S
C205 C500 1.837 . S
C647 C329 1.767 . S
C288 C373 1.626 . S
C665 C301 1.598 . S
C316 C414 1.837 . S
C330 C522 1.941 . S
C455 C287 1.431 . S
C302 C559 1.633 . S
C499 C315 1.408 . S
C646 C317 1.726 . S
C437 C244 1.509 . S
C261 C538 1.714 . S
C480 C272 1.929 1_556 S
C498 C331 1.838 . S
C289 C664 1.657 . S
C581 C258 1.396 . S
C603 C230 1.932 . S
