# Generated by pormake.
# Topology nia, (6,6)-cn, num edge types: 1
# Building blocks:
#     Node 0, Type 0, BuildingBlock: PAMTOO_clean_sbu_0, # of connection points: 6
#     Node 1, Type 0, BuildingBlock: PAMTOO_clean_sbu_0, # of connection points: 6
#     Node 2, Type 1, BuildingBlock: MIDCAF_clean_sbu_0, # of connection points: 6
#     Node 3, Type 1, BuildingBlock: MIDCAF_clean_sbu_0, # of connection points: 6
#     Edge 4, Type (0, 1), BuildingBlock: AJUNOK_clean_linker_0, # of connection points: 2
#     Edge 5, Type (0, 1), BuildingBlock: AJUNOK_clean_linker_0, # of connection points: 2
#     Edge 6, Type (0, 1), BuildingBlock: AJUNOK_clean_linker_0, # of connection points: 2
#     Edge 7, Type (0, 1), BuildingBlock: AJUNOK_clean_linker_0, # of connection points: 2
#     Edge 8, Type (0, 1), BuildingBlock: AJUNOK_clean_linker_0, # of connection points: 2
#     Edge 9, Type (0, 1), BuildingBlock: AJUNOK_clean_linker_0, # of connection points: 2
#     Edge 10, Type (0, 1), BuildingBlock: AJUNOK_clean_linker_0, # of connection points: 2
#     Edge 11, Type (0, 1), BuildingBlock: AJUNOK_clean_linker_0, # of connection points: 2
#     Edge 12, Type (0, 1), BuildingBlock: AJUNOK_clean_linker_0, # of connection points: 2
#     Edge 13, Type (0, 1), BuildingBlock: AJUNOK_clean_linker_0, # of connection points: 2
#     Edge 14, Type (0, 1), BuildingBlock: AJUNOK_clean_linker_0, # of connection points: 2
#     Edge 15, Type (0, 1), BuildingBlock: AJUNOK_clean_linker_0, # of connection points: 2
# Relax obj value: 0.189
# Max RMSD: 0.291
# Mean RMSD: 0.203
data_MOF--net-nia--node1-PAMTOO_clean_sbu_0--node2-MIDCAF_clean_sbu_0--edge1-AJUNOK_clean_linker_0
_symmetry_space_group_name_H-M    P1
_symmetry_Int_Tables_number       1
_symmetry_cell_setting            triclinic
loop_
_symmetry_equiv_pos_as_xyz
'x, y, z'
_cell_length_a     23.194262
_cell_length_b     23.101231
_cell_length_c     22.242321
_cell_angle_alpha  90.447888
_cell_angle_beta   89.819609
_cell_angle_gamma 137.14877
loop_
_atom_site_label
_atom_site_type_symbol
_atom_site_fract_x
_atom_site_fract_y
_atom_site_fract_z
_atom_type_partial_charge
Dy0 Dy -0.01727 0.93743 0.15136 0.0
Dy1 Dy 0.93595 0.0045 1.05191 0.0
C2 C 0.09932 0.04522 1.03855 0.0
O3 O 0.05997 0.07232 0.17301 0.0
O4 O -0.02889 0.07675 0.13717 0.0
O5 O 0.07684 -0.03242 0.20844 0.0
O6 O -0.05326 0.84165 0.21104 0.0
O7 O 0.82125 0.91418 0.10947 0.0
O8 O 0.87649 0.90983 0.19307 0.0
O9 O 0.90601 0.89869 1.00443 0.0
O10 O 0.89681 0.831 1.08581 0.0
O11 O 0.85482 -0.0149 0.98595 0.0
O12 O -0.0188 0.11163 1.00254 0.0
C13 C 0.03366 0.10668 0.17238 0.0
O14 O 0.06348 -0.02168 1.07077 0.0
O15 O 0.07036 0.07699 1.03894 0.0
C16 C 0.05451 0.85177 0.2304 0.0
C17 C 0.11385 0.7809 0.24147 0.0
C18 C 0.16506 0.86116 0.21531 0.0
C19 C 0.13566 0.89624 0.20964 0.0
C20 C 0.00311 0.77125 0.25619 0.0
C21 C 0.03237 0.73597 0.26152 0.0
C22 C 0.02455 0.89026 0.22894 0.0
C23 C 0.81598 0.89448 0.166 0.0
C24 C 0.8851 0.83353 1.0286 0.0
C25 C 0.87774 0.10188 0.97088 0.0
C26 C 0.8125 0.167 0.9602 0.0
C27 C 0.7961 0.12175 1.01183 0.0
C28 C 0.82831 0.0893 1.01707 0.0
C29 C 0.89683 0.14929 0.92049 0.0
C30 C 0.86443 0.18138 0.91506 0.0
C31 C 0.9098 0.06602 0.9739 0.0
H32 H 0.22806 0.89692 0.19942 0.0
H33 H 0.17705 -0.04139 0.18974 0.0
H34 H 0.9409 0.73632 0.2734 0.0
H35 H -0.0076 0.67486 0.28317 0.0
H36 H 0.75794 0.11097 1.04813 0.0
H37 H 0.81404 0.0538 1.0568 0.0
H38 H 0.93519 0.15975 0.88449 0.0
H39 H 0.8771 0.21397 0.87405 0.0
Dy40 Dy -0.01349 0.94222 0.54908 0.0
Dy41 Dy 0.92554 -0.01111 0.65629 0.0
C42 C 0.88607 0.82487 0.66302 0.0
O43 O 0.85247 0.86836 0.53047 0.0
O44 O 0.85279 -0.04138 0.57355 0.0
O45 O -0.04554 0.84679 0.49092 0.0
O46 O 0.07768 -0.02166 0.484 0.0
O47 O 0.01575 0.10571 0.60005 0.0
O48 O 0.01484 0.05086 0.51251 0.0
O49 O 0.03259 0.01806 0.69805 0.0
O50 O 0.09587 0.02893 0.61216 0.0
O51 O -0.05273 0.06956 0.72535 0.0
O52 O 0.82073 0.94288 0.70957 0.0
C53 C 0.82132 0.89785 0.53502 0.0
O54 O -0.04954 0.8615 0.62756 0.0
O55 O 0.85447 0.85391 0.66751 0.0
C56 C 0.06924 0.87218 0.46302 0.0
C57 C 0.14044 0.81336 0.45419 0.0
C58 C 0.11684 0.8186 0.51051 0.0
C59 C 0.08137 0.84787 0.51492 0.0
C60 C 0.09423 0.86844 0.40704 0.0
C61 C 0.12971 0.83931 0.40271 0.0
C62 C 0.02932 0.90006 0.46631 0.0
C63 C 0.03344 0.11211 0.5426 0.0
C64 C 0.09643 0.03995 0.67032 0.0
C65 C 0.83144 0.04664 0.74464 0.0
C66 C 0.76528 0.11068 0.75917 0.0
C67 C 0.80972 0.12766 0.7066 0.0
C68 C 0.84258 0.096 0.69942 0.0
C69 C 0.78488 0.02696 0.79601 0.0
C70 C 0.75201 0.05853 0.80324 0.0
C71 C 0.86704 0.01439 0.739 0.0
H72 H 0.12484 0.79904 0.55085 0.0
H73 H 0.06275 0.85085 0.55858 0.0
H74 H 0.08609 0.88787 0.3667 0.0
H75 H 0.14978 0.83789 0.35938 0.0
H76 H 0.81941 0.16572 0.67095 0.0
H77 H 0.87714 0.11051 0.65887 0.0
H78 H 0.77532 -0.01156 0.83121 0.0
H79 H 0.71943 0.04482 0.84467 0.0
Zn80 Zn 0.31751 0.59795 0.23858 0.0
Zn81 Zn 0.33176 0.61701 0.47163 0.0
Zn82 Zn 0.32747 0.60243 0.35492 0.0
C83 C 0.49606 0.71197 0.43573 0.0
C84 C 0.22234 0.44371 0.44568 0.0
O85 O 0.2753 0.64842 0.32216 0.0
O86 O 0.25891 0.62786 0.22349 0.0
C87 C 0.48857 0.7094 0.26572 0.0
O88 O 0.46116 0.68693 0.38322 0.0
O89 O 0.4528 0.68901 0.48241 0.0
O90 O 0.24843 0.49429 0.48862 0.0
O91 O 0.24608 0.47168 0.39134 0.0
O92 O 0.43984 0.68426 0.22211 0.0
O93 O 0.4587 0.68412 0.31956 0.0
O94 O 0.24436 0.46796 0.32745 0.0
O95 O 0.25066 0.47797 0.22807 0.0
C96 C 0.22408 0.43386 0.27473 0.0
O97 O 0.27986 0.65473 0.38514 0.0
O98 O 0.29695 0.67201 0.48392 0.0
C99 C 0.25132 0.65161 0.27109 0.0
C100 C 0.27438 0.67883 0.43549 0.0
Zn101 Zn 0.59487 0.33664 0.9713 0.0
Zn102 Zn 0.59565 0.32584 0.73423 0.0
Zn103 Zn 0.5878 0.33525 0.85223 0.0
C104 C 0.69555 0.4955 0.76218 0.0
C105 C 0.42409 0.22272 0.7678 0.0
O106 O 0.64046 0.29127 0.88741 0.0
O107 O 0.62974 0.28159 0.98669 0.0
C108 C 0.70164 0.50579 0.93168 0.0
O109 O 0.66946 0.46538 0.81581 0.0
O110 O 0.67285 0.4476 0.71822 0.0
O111 O 0.47163 0.24527 0.72394 0.0
O112 O 0.45523 0.25021 0.82129 0.0
O113 O 0.68178 0.46234 0.97754 0.0
O114 O 0.67106 0.46977 0.87961 0.0
O115 O 0.45682 0.25449 0.88509 0.0
O116 O 0.47538 0.26999 0.98402 0.0
C117 C 0.42744 0.23911 0.93878 0.0
O118 O 0.63425 0.28144 0.82479 0.0
O119 O 0.64288 0.28221 0.72554 0.0
C120 C 0.65095 0.27299 0.93809 0.0
C121 C 0.652 0.26593 0.7763 0.0
C122 C 0.22686 0.79631 0.2773 0.0
C123 C 0.14699 0.74594 0.25014 0.0
C124 C 0.25968 0.76466 0.28567 0.0
C125 C 0.21373 0.68189 0.26689 0.0
H126 H 0.26391 0.86037 0.29261 0.0
H127 H 0.32157 0.80533 0.30629 0.0
S128 S 0.00322 0.5253 0.19251 0.0
N129 N 0.02369 0.6097 0.20395 0.0
N130 N 0.08564 0.5505 0.21966 0.0
C131 C 0.13423 0.63109 0.23964 0.0
C132 C 0.10057 0.66291 0.23149 0.0
C133 C 0.21767 0.06201 0.68321 0.0
C134 C 0.17205 0.07656 0.70458 0.0
C135 C 0.29629 0.10513 0.70768 0.0
C136 C 0.3331 0.16503 0.75446 0.0
H137 H 0.19384 0.01895 0.64569 0.0
H138 H 0.33045 0.09424 0.68777 0.0
S139 S 0.23624 0.22079 0.83039 0.0
N140 N 0.16566 0.14949 0.77893 0.0
N141 N 0.31549 0.23269 0.82411 0.0
C142 C 0.28594 0.1763 0.77913 0.0
C143 C 0.20484 0.13149 0.75435 0.0
C144 C 0.03983 0.20671 0.22648 0.0
C145 C 0.08018 0.18481 0.2084 0.0
C146 C 0.08557 0.28512 0.25479 0.0
C147 C 0.17293 0.34396 0.26568 0.0
H148 H -0.02681 0.16434 0.21682 0.0
H149 H 0.05365 0.30214 0.26458 0.0
S150 S 0.30833 0.31769 0.22831 0.0
N151 N 0.21247 0.22777 0.20587 0.0
N152 N 0.29802 0.37578 0.25713 0.0
C153 C 0.21329 0.32181 0.24988 0.0
C154 C 0.16691 0.24183 0.22192 0.0
C155 C 0.78855 0.23481 0.74973 0.0
C156 C 0.73639 0.15041 0.76846 0.0
C157 C 0.76162 0.27261 0.75404 0.0
C158 C 0.68273 0.22858 0.77898 0.0
H159 H 0.85058 0.272 0.73093 0.0
H160 H 0.8026 0.33665 0.73736 0.0
S161 S 0.5224 0.00826 0.83635 0.0
N162 N 0.60085 0.02426 0.81305 0.0
N163 N 0.55314 0.09806 0.82396 0.0
C164 C 0.6311 0.14588 0.80008 0.0
C165 C 0.65736 0.10622 0.79439 0.0
C166 C 0.69498 0.87278 0.18252 0.0
C167 C 0.73911 0.85519 0.19987 0.0
C168 C 0.61676 0.82952 0.20797 0.0
C169 C 0.57913 0.76669 0.25179 0.0
H170 H 0.71985 0.91872 0.14761 0.0
H171 H 0.58357 0.84278 0.19123 0.0
S172 S 0.66903 0.6977 0.31393 0.0
N173 N 0.74109 0.77298 0.26559 0.0
N174 N 0.59222 0.68978 0.31225 0.0
C175 C 0.62398 0.75091 0.27166 0.0
C176 C 0.70447 0.79566 0.24597 0.0
C177 C 0.76685 0.69904 0.7257 0.0
C178 C 0.84446 0.74628 0.69591 0.0
C179 C 0.72127 0.61989 0.75149 0.0
C180 C 0.75239 0.58604 0.74947 0.0
H181 H 0.73882 0.7212 0.72677 0.0
H182 H 0.6589 0.58265 0.76964 0.0
S183 S -0.04503 0.68611 0.68253 0.0
N184 N -0.04721 0.75487 0.6702 0.0
N185 N 0.86658 0.60622 0.71886 0.0
C186 C 0.83139 0.63393 0.72268 0.0
C187 C 0.87777 0.71422 0.69609 0.0
C188 C 0.13407 0.70724 0.41424 0.0
C189 C 0.17612 0.78068 0.44887 0.0
C190 C 0.16649 0.67465 0.40942 0.0
C191 C 0.24284 0.71566 0.43794 0.0
H192 H 0.0752 0.67422 0.39147 0.0
H193 H 0.13121 0.61662 0.38384 0.0
S194 S 0.37832 0.91157 0.53177 0.0
N195 N 0.2981 0.89396 0.51121 0.0
N196 N 0.36006 0.83392 0.50119 0.0
C197 C 0.28556 0.78938 0.47228 0.0
C198 C 0.25212 0.82184 0.47777 0.0
C199 C 0.24022 0.18074 1.00134 0.0
C200 C 0.17863 0.09156 1.00554 0.0
C201 C 0.31912 0.22794 0.97506 0.0
C202 C 0.33828 0.18757 0.95033 0.0
H203 H 0.22912 0.21487 1.02119 0.0
H204 H 0.36687 0.29681 0.97632 0.0
S205 S 0.1963 -0.04441 0.94364 0.0
N206 N 0.14003 -0.0357 0.97884 0.0
N207 N 0.28844 0.05372 0.92791 0.0
C208 C 0.27591 0.09842 0.95096 0.0
C209 C 0.19593 0.05017 0.97896 0.0
C210 C 0.06204 0.23871 0.53208 0.0
C211 C 0.07476 0.19123 0.51105 0.0
C212 C 0.10628 0.31786 0.50746 0.0
C213 C 0.16533 0.35314 0.46087 0.0
H214 H 0.01882 0.21546 0.56885 0.0
H215 H 0.09628 0.35323 0.52659 0.0
S216 S 0.22229 0.25481 0.38993 0.0
N217 N 0.14932 0.18422 0.43985 0.0
N218 N 0.23429 0.3346 0.39467 0.0
C219 C 0.17674 0.30529 0.4379 0.0
C220 C 0.131 0.22394 0.46276 0.0
C221 C 0.68788 0.14211 0.97137 0.0
C222 C 0.77223 0.1953 0.95252 0.0
C223 C 0.6486 0.1673 0.96607 0.0
C224 C 0.69119 0.24534 0.94002 0.0
H225 H 0.65156 0.08022 0.99032 0.0
H226 H 0.58421 0.12516 0.98201 0.0
S227 S 0.91191 0.40927 0.88441 0.0
N228 N 0.89764 0.33212 0.90869 0.0
N229 N 0.82108 0.37624 0.89556 0.0
C230 C 0.7744 0.29859 0.91991 0.0
C231 C 0.81551 0.27425 0.92672 0.0
C232 C 0.69111 0.77291 0.47796 0.0
C233 C 0.74502 0.85685 0.49943 0.0
C234 C 0.61252 0.72801 0.45172 0.0
C235 C 0.58643 0.76633 0.44431 0.0
H236 H 0.70714 0.73963 0.48476 0.0
H237 H 0.56974 0.66131 0.44055 0.0
S238 S 0.7074 -0.01287 0.48589 0.0
N239 N 0.76934 -0.02133 0.5065 0.0
N240 N 0.62175 0.89389 0.45636 0.0
C241 C 0.64165 0.85158 0.46188 0.0
C242 C 0.72115 0.89711 0.48943 0.0
C243 C 0.87439 0.72138 1.00303 0.0
C244 C 0.84919 0.75997 0.99113 0.0
C245 C 0.83058 0.642 0.97835 0.0
C246 C 0.75967 0.59789 0.94094 0.0
H247 H 0.92592 0.75088 1.03414 0.0
H248 H 0.84916 0.61244 0.99168 0.0
S249 S 0.67158 0.67391 0.89246 0.0
N250 N 0.75316 0.75162 0.9357 0.0
N251 N 0.66869 0.60026 0.89063 0.0
C252 C 0.73713 0.63809 0.92532 0.0
C253 C 0.78256 0.71987 0.95011 0.0
loop_
_geom_bond_atom_site_label_1
_geom_bond_atom_site_label_2
_geom_bond_distance
_geom_bond_site_symmetry_2
_ccdc_geom_bond_type
Dy0 O3 2.307 1_565 S
Dy0 O5 2.395 . S
Dy0 O6 2.379 . S
Dy0 O8 2.339 1_455 S
Dy0 O10 2.298 1_454 S
Dy0 O14 2.275 1_564 S
Dy0 C22 2.738 . S
Dy1 O4 2.298 1_656 S
Dy1 O7 2.275 1_546 S
Dy1 O9 2.307 1_545 S
Dy1 O11 2.395 . S
Dy1 O12 2.379 . S
Dy1 O15 2.339 1_655 S
Dy1 C31 2.738 . S
C2 O14 1.254 . S
C2 O15 1.257 . S
O3 Dy0 2.307 1_545 S
O3 C13 1.266 . S
O4 Dy1 2.298 1_454 S
O4 C13 1.236 . S
O5 Dy0 2.395 . S
O5 C22 1.255 . S
O6 Dy0 2.379 . S
O6 C22 1.249 . S
O7 Dy1 2.275 1_564 S
O7 C23 1.254 . S
O8 Dy0 2.339 1_655 S
O8 C23 1.257 . S
O9 Dy1 2.307 1_565 S
O9 C24 1.266 . S
O10 Dy0 2.298 1_656 S
O10 C24 1.236 . S
O11 Dy1 2.395 . S
O11 C31 1.255 . S
O12 Dy1 2.379 . S
O12 C31 1.249 . S
C13 O3 1.266 . S
C13 O4 1.236 . S
O14 Dy0 2.275 1_546 S
O14 C2 1.254 . S
O15 Dy1 2.339 1_455 S
O15 C2 1.257 . S
C16 C19 1.344 . S
C16 C20 1.328 . S
C16 C22 1.516 . S
C17 C18 1.304 . S
C17 C21 1.323 . S
C18 C17 1.304 . S
C18 C19 1.371 . S
C18 H32 0.930 . S
C19 C16 1.344 . S
C19 C18 1.371 . S
C19 H33 0.931 . S
C20 C16 1.328 . S
C20 C21 1.433 . S
C20 H34 0.931 . S
C21 C17 1.323 . S
C21 C20 1.433 . S
C21 H35 0.933 . S
C22 Dy0 2.738 . S
C22 O5 1.255 . S
C22 O6 1.249 . S
C22 C16 1.516 . S
C23 O7 1.254 . S
C23 O8 1.257 . S
C24 O9 1.266 . S
C24 O10 1.236 . S
C25 C28 1.344 . S
C25 C29 1.328 . S
C25 C31 1.516 . S
C26 C27 1.304 . S
C26 C30 1.323 . S
C27 C26 1.304 . S
C27 C28 1.371 . S
C27 H36 0.930 . S
C28 C25 1.344 . S
C28 C27 1.371 . S
C28 H37 0.931 . S
C29 C25 1.328 . S
C29 C30 1.433 . S
C29 H38 0.931 . S
C30 C26 1.323 . S
C30 C29 1.433 . S
C30 H39 0.933 . S
C31 Dy1 2.738 . S
C31 O11 1.255 . S
C31 O12 1.249 . S
C31 C25 1.516 . S
H32 C18 0.930 . S
H33 C19 0.931 . S
H34 C20 0.931 . S
H35 C21 0.933 . S
H36 C27 0.930 . S
H37 C28 0.931 . S
H38 C29 0.931 . S
H39 C30 0.933 . S
Dy40 O43 2.307 1_455 S
Dy40 O45 2.395 . S
Dy40 O46 2.379 1_565 S
Dy40 O48 2.339 1_565 S
Dy40 O50 2.298 1_565 S
Dy40 O54 2.275 1_455 S
Dy40 C62 2.738 . S
Dy41 O44 2.298 1_445 S
Dy41 O47 2.275 . S
Dy41 O49 2.307 . S
Dy41 O51 2.395 1_455 S
Dy41 O52 2.379 1_455 S
Dy41 O55 2.339 1_445 S
Dy41 C71 2.738 1_455 S
C42 O54 1.254 . S
C42 O55 1.257 . S
O43 Dy40 2.307 1_655 S
O43 C53 1.266 . S
O44 Dy41 2.298 1_665 S
O44 C53 1.236 . S
O45 Dy40 2.395 . S
O45 C62 1.255 . S
O46 Dy40 2.379 1_545 S
O46 C62 1.249 1_545 S
O47 Dy41 2.275 . S
O47 C63 1.254 . S
O48 Dy40 2.339 1_545 S
O48 C63 1.257 . S
O49 Dy41 2.307 . S
O49 C64 1.266 . S
O50 Dy40 2.298 1_545 S
O50 C64 1.236 . S
O51 Dy41 2.395 1_655 S
O51 C71 1.255 . S
O52 Dy41 2.379 1_655 S
O52 C71 1.249 . S
C53 O43 1.266 . S
C53 O44 1.236 . S
O54 Dy40 2.275 1_655 S
O54 C42 1.254 . S
O55 Dy41 2.339 1_665 S
O55 C42 1.257 . S
C56 C59 1.344 . S
C56 C60 1.328 . S
C56 C62 1.516 . S
C57 C58 1.304 . S
C57 C61 1.323 . S
C58 C57 1.304 . S
C58 C59 1.371 . S
C58 H72 0.930 . S
C59 C56 1.344 . S
C59 C58 1.371 . S
C59 H73 0.931 . S
C60 C56 1.328 . S
C60 C61 1.433 . S
C60 H74 0.931 1_565 S
C61 C57 1.323 . S
C61 C60 1.433 . S
C61 H75 0.933 . S
C62 Dy40 2.738 . S
C62 O45 1.255 . S
C62 O46 1.249 1_565 S
C62 C56 1.516 . S
C63 O47 1.254 . S
C63 O48 1.257 . S
C64 O49 1.266 . S
C64 O50 1.236 . S
C65 C68 1.344 . S
C65 C69 1.328 . S
C65 C71 1.516 . S
C66 C67 1.304 . S
C66 C70 1.323 . S
C67 C66 1.304 . S
C67 C68 1.371 . S
C67 H76 0.930 . S
C68 C65 1.344 . S
C68 C67 1.371 . S
C68 H77 0.931 . S
C69 C65 1.328 . S
C69 C70 1.433 . S
C69 H78 0.931 . S
C70 C66 1.323 . S
C70 C69 1.433 . S
C70 H79 0.933 . S
C71 Dy41 2.738 1_655 S
C71 O51 1.255 . S
C71 O52 1.249 . S
C71 C65 1.516 . S
H72 C58 0.930 . S
H73 C59 0.931 . S
H74 C60 0.931 1_545 S
H75 C61 0.933 . S
H76 C67 0.930 . S
H77 C68 0.931 . S
H78 C69 0.931 . S
H79 C70 0.933 . S
Zn80 O86 1.920 . S
Zn80 O92 1.898 . S
Zn80 O95 1.905 . S
Zn81 O89 1.905 . S
Zn81 O90 1.898 . S
Zn81 O98 1.920 . S
Zn82 O85 2.080 . S
Zn82 O88 2.114 . S
Zn82 O91 2.120 . S
Zn82 O93 2.120 . S
Zn82 O94 2.114 . S
Zn82 O97 2.080 . S
C83 O88 1.166 . S
C83 O89 1.182 . S
C84 O90 1.167 . S
C84 O91 1.299 . S
O85 Zn82 2.080 . S
O85 C99 1.305 . S
O86 Zn80 1.920 . S
O86 C99 1.234 . S
C87 O92 1.167 . S
C87 O93 1.299 . S
O88 Zn82 2.114 . S
O88 C83 1.166 . S
O89 Zn81 1.905 . S
O89 C83 1.182 . S
O90 Zn81 1.898 . S
O90 C84 1.167 . S
O91 Zn82 2.120 . S
O91 C84 1.299 . S
O92 Zn80 1.898 . S
O92 C87 1.167 . S
O93 Zn82 2.120 . S
O93 C87 1.299 . S
O94 Zn82 2.114 . S
O94 C96 1.166 . S
O95 Zn80 1.905 . S
O95 C96 1.182 . S
C96 O94 1.166 . S
C96 O95 1.182 . S
O97 Zn82 2.080 . S
O97 C100 1.305 . S
O98 Zn81 1.920 . S
O98 C100 1.234 . S
C99 O85 1.305 . S
C99 O86 1.234 . S
C100 O97 1.305 . S
C100 O98 1.234 . S
Zn101 O107 1.920 . S
Zn101 O113 1.898 . S
Zn101 O116 1.905 . S
Zn102 O110 1.905 . S
Zn102 O111 1.898 . S
Zn102 O119 1.920 . S
Zn103 O106 2.080 . S
Zn103 O109 2.114 . S
Zn103 O112 2.120 . S
Zn103 O114 2.120 . S
Zn103 O115 2.114 . S
Zn103 O118 2.080 . S
C104 O109 1.166 . S
C104 O110 1.182 . S
C105 O111 1.167 . S
C105 O112 1.299 . S
O106 Zn103 2.080 . S
O106 C120 1.305 . S
O107 Zn101 1.920 . S
O107 C120 1.234 . S
C108 O113 1.167 . S
C108 O114 1.299 . S
O109 Zn103 2.114 . S
O109 C104 1.166 . S
O110 Zn102 1.905 . S
O110 C104 1.182 . S
O111 Zn102 1.898 . S
O111 C105 1.167 . S
O112 Zn103 2.120 . S
O112 C105 1.299 . S
O113 Zn101 1.898 . S
O113 C108 1.167 . S
O114 Zn103 2.120 . S
O114 C108 1.299 . S
O115 Zn103 2.114 . S
O115 C117 1.166 . S
O116 Zn101 1.905 . S
O116 C117 1.182 . S
C117 O115 1.166 . S
C117 O116 1.182 . S
O118 Zn103 2.080 . S
O118 C121 1.305 . S
O119 Zn102 1.920 . S
O119 C121 1.234 . S
C120 O106 1.305 . S
C120 O107 1.234 . S
C121 O118 1.305 . S
C121 O119 1.234 . S
C122 C123 1.369 . S
C122 C124 1.419 . S
C122 H126 0.930 . S
C123 C122 1.369 . S
C123 C132 1.429 . S
C124 C122 1.419 . S
C124 C125 1.363 . S
C124 H127 0.929 . S
C125 C124 1.363 . S
C125 C131 1.428 . S
H126 C122 0.930 . S
H127 C124 0.929 . S
S128 N129 1.613 . S
S128 N130 1.610 . S
N129 S128 1.613 . S
N129 C132 1.350 . S
N130 S128 1.610 . S
N130 C131 1.351 . S
C131 C125 1.428 . S
C131 N130 1.351 . S
C131 C132 1.434 . S
C132 C123 1.429 . S
C132 N129 1.350 . S
C132 C131 1.434 . S
C133 C134 1.369 . S
C133 C135 1.419 . S
C133 H137 0.930 . S
C134 C133 1.369 . S
C134 C143 1.429 . S
C135 C133 1.419 . S
C135 C136 1.363 . S
C135 H138 0.929 . S
C136 C135 1.363 . S
C136 C142 1.428 . S
H137 C133 0.930 . S
H138 C135 0.929 . S
S139 N140 1.613 . S
S139 N141 1.610 . S
N140 S139 1.613 . S
N140 C143 1.350 . S
N141 S139 1.610 . S
N141 C142 1.351 . S
C142 C136 1.428 . S
C142 N141 1.351 . S
C142 C143 1.434 . S
C143 C134 1.429 . S
C143 N140 1.350 . S
C143 C142 1.434 . S
C144 C145 1.369 . S
C144 C146 1.419 . S
C144 H148 0.930 . S
C145 C144 1.369 . S
C145 C154 1.429 . S
C146 C144 1.419 . S
C146 C147 1.363 . S
C146 H149 0.929 . S
C147 C146 1.363 . S
C147 C153 1.428 . S
H148 C144 0.930 . S
H149 C146 0.929 . S
S150 N151 1.613 . S
S150 N152 1.610 . S
N151 S150 1.613 . S
N151 C154 1.350 . S
N152 S150 1.610 . S
N152 C153 1.351 . S
C153 C147 1.428 . S
C153 N152 1.351 . S
C153 C154 1.434 . S
C154 C145 1.429 . S
C154 N151 1.350 . S
C154 C153 1.434 . S
C155 C156 1.369 . S
C155 C157 1.419 . S
C155 H159 0.930 . S
C156 C155 1.369 . S
C156 C165 1.429 . S
C157 C155 1.419 . S
C157 C158 1.363 . S
C157 H160 0.929 . S
C158 C157 1.363 . S
C158 C164 1.428 . S
H159 C155 0.930 . S
H160 C157 0.929 . S
S161 N162 1.613 . S
S161 N163 1.610 . S
N162 S161 1.613 . S
N162 C165 1.350 . S
N163 S161 1.610 . S
N163 C164 1.351 . S
C164 C158 1.428 . S
C164 N163 1.351 . S
C164 C165 1.434 . S
C165 C156 1.429 . S
C165 N162 1.350 . S
C165 C164 1.434 . S
C166 C167 1.369 . S
C166 C168 1.419 . S
C166 H170 0.930 . S
C167 C166 1.369 . S
C167 C176 1.429 . S
C168 C166 1.419 . S
C168 C169 1.363 . S
C168 H171 0.929 . S
C169 C168 1.363 . S
C169 C175 1.428 . S
H170 C166 0.930 . S
H171 C168 0.929 . S
S172 N173 1.613 . S
S172 N174 1.610 . S
N173 S172 1.613 . S
N173 C176 1.350 . S
N174 S172 1.610 . S
N174 C175 1.351 . S
C175 C169 1.428 . S
C175 N174 1.351 . S
C175 C176 1.434 . S
C176 C167 1.429 . S
C176 N173 1.350 . S
C176 C175 1.434 . S
C177 C178 1.369 . S
C177 C179 1.419 . S
C177 H181 0.930 . S
C178 C177 1.369 . S
C178 C187 1.429 . S
C179 C177 1.419 . S
C179 C180 1.363 . S
C179 H182 0.929 . S
C180 C179 1.363 . S
C180 C186 1.428 . S
H181 C177 0.930 . S
H182 C179 0.929 . S
S183 N184 1.613 . S
S183 N185 1.610 . S
N184 S183 1.613 . S
N184 C187 1.350 . S
N185 S183 1.610 . S
N185 C186 1.351 . S
C186 C180 1.428 . S
C186 N185 1.351 . S
C186 C187 1.434 . S
C187 C178 1.429 . S
C187 N184 1.350 . S
C187 C186 1.434 . S
C188 C189 1.369 . S
C188 C190 1.419 . S
C188 H192 0.930 . S
C189 C188 1.369 . S
C189 C198 1.429 . S
C190 C188 1.419 . S
C190 C191 1.363 . S
C190 H193 0.929 . S
C191 C190 1.363 . S
C191 C197 1.428 . S
H192 C188 0.930 . S
H193 C190 0.929 . S
S194 N195 1.613 . S
S194 N196 1.610 . S
N195 S194 1.613 . S
N195 C198 1.350 . S
N196 S194 1.610 . S
N196 C197 1.351 . S
C197 C191 1.428 . S
C197 N196 1.351 . S
C197 C198 1.434 . S
C198 C189 1.429 . S
C198 N195 1.350 . S
C198 C197 1.434 . S
C199 C200 1.369 . S
C199 C201 1.419 . S
C199 H203 0.930 . S
C200 C199 1.369 . S
C200 C209 1.429 . S
C201 C199 1.419 . S
C201 C202 1.363 . S
C201 H204 0.929 . S
C202 C201 1.363 . S
C202 C208 1.428 . S
H203 C199 0.930 . S
H204 C201 0.929 . S
S205 N206 1.613 . S
S205 N207 1.610 . S
N206 S205 1.613 . S
N206 C209 1.350 . S
N207 S205 1.610 . S
N207 C208 1.351 . S
C208 C202 1.428 . S
C208 N207 1.351 . S
C208 C209 1.434 . S
C209 C200 1.429 . S
C209 N206 1.350 . S
C209 C208 1.434 . S
C210 C211 1.369 . S
C210 C212 1.419 . S
C210 H214 0.930 . S
C211 C210 1.369 . S
C211 C220 1.429 . S
C212 C210 1.419 . S
C212 C213 1.363 . S
C212 H215 0.929 . S
C213 C212 1.363 . S
C213 C219 1.428 . S
H214 C210 0.930 . S
H215 C212 0.929 . S
S216 N217 1.613 1_655 S
S216 N218 1.610 1_655 S
N217 S216 1.613 1_455 S
N217 C220 1.350 . S
N218 S216 1.610 1_455 S
N218 C219 1.351 . S
C219 C213 1.428 . S
C219 N218 1.351 . S
C219 C220 1.434 . S
C220 C211 1.429 . S
C220 N217 1.350 . S
C220 C219 1.434 . S
C221 C222 1.369 . S
C221 C223 1.419 . S
C221 H225 0.930 . S
C222 C221 1.369 . S
C222 C231 1.429 . S
C223 C221 1.419 . S
C223 C224 1.363 . S
C223 H226 0.929 . S
C224 C223 1.363 . S
C224 C230 1.428 . S
H225 C221 0.930 . S
H226 C223 0.929 . S
S227 N228 1.613 . S
S227 N229 1.610 . S
N228 S227 1.613 . S
N228 C231 1.350 . S
N229 S227 1.610 . S
N229 C230 1.351 . S
C230 C224 1.428 . S
C230 N229 1.351 . S
C230 C231 1.434 . S
C231 C222 1.429 . S
C231 N228 1.350 . S
C231 C230 1.434 . S
C232 C233 1.369 . S
C232 C234 1.419 . S
C232 H236 0.930 . S
C233 C232 1.369 . S
C233 C242 1.429 . S
C234 C232 1.419 . S
C234 C235 1.363 . S
C234 H237 0.929 . S
C235 C234 1.363 . S
C235 C241 1.428 . S
H236 C232 0.930 . S
H237 C234 0.929 . S
S238 N239 1.613 . S
S238 N240 1.610 1_545 S
N239 S238 1.613 . S
N239 C242 1.350 1_545 S
N240 S238 1.610 1_565 S
N240 C241 1.351 . S
C241 C235 1.428 . S
C241 N240 1.351 . S
C241 C242 1.434 . S
C242 C233 1.429 . S
C242 N239 1.350 1_565 S
C242 C241 1.434 . S
C243 C244 1.369 . S
C243 C245 1.419 . S
C243 H247 0.930 . S
C244 C243 1.369 . S
C244 C253 1.429 . S
C245 C243 1.419 . S
C245 C246 1.363 . S
C245 H248 0.929 . S
C246 C245 1.363 . S
C246 C252 1.428 . S
H247 C243 0.930 . S
H248 C245 0.929 . S
S249 N250 1.613 . S
S249 N251 1.610 . S
N250 S249 1.613 . S
N250 C253 1.350 . S
N251 S249 1.610 . S
N251 C252 1.351 . S
C252 C246 1.428 . S
C252 N251 1.351 . S
C252 C253 1.434 . S
C253 C244 1.429 . S
C253 N250 1.350 . S
C253 C252 1.434 . S
C123 C17 1.366 . S
C125 C99 1.273 . S
C134 C64 1.449 . S
C136 C105 1.244 . S
C145 C13 1.526 . S
C147 C96 1.371 . S
C156 C66 1.473 . S
C158 C121 1.349 . S
C167 C23 1.804 . S
C169 C87 1.598 . S
C180 C104 1.681 . S
C178 C42 1.828 . S
C189 C57 1.366 . S
C191 C100 1.272 . S
C202 C117 1.682 . S
C200 C2 1.831 . S
C213 C84 1.602 . S
C211 C63 1.803 . S
C224 C120 1.356 . S
C222 C26 1.473 . S
C235 C83 1.366 . S
C233 C53 1.532 . S
C246 C108 1.249 . S
C244 C24 1.448 . S
