# Generated by pormake.
# Topology nia, (6,6)-cn, num edge types: 1
# Building blocks:
#     Node 0, Type 0, BuildingBlock: CIFDUS_clean_sbu_1, # of connection points: 6
#     Node 1, Type 0, BuildingBlock: CIFDUS_clean_sbu_1, # of connection points: 6
#     Node 2, Type 1, BuildingBlock: MIDCAF_clean_sbu_0, # of connection points: 6
#     Node 3, Type 1, BuildingBlock: MIDCAF_clean_sbu_0, # of connection points: 6
#     Edge 4, Type (0, 1), BuildingBlock: KIFKEQ_clean_linker_1, # of connection points: 2
#     Edge 5, Type (0, 1), BuildingBlock: KIFKEQ_clean_linker_1, # of connection points: 2
#     Edge 6, Type (0, 1), BuildingBlock: KIFKEQ_clean_linker_1, # of connection points: 2
#     Edge 7, Type (0, 1), BuildingBlock: KIFKEQ_clean_linker_1, # of connection points: 2
#     Edge 8, Type (0, 1), BuildingBlock: KIFKEQ_clean_linker_1, # of connection points: 2
#     Edge 9, Type (0, 1), BuildingBlock: KIFKEQ_clean_linker_1, # of connection points: 2
#     Edge 10, Type (0, 1), BuildingBlock: KIFKEQ_clean_linker_1, # of connection points: 2
#     Edge 11, Type (0, 1), BuildingBlock: KIFKEQ_clean_linker_1, # of connection points: 2
#     Edge 12, Type (0, 1), BuildingBlock: KIFKEQ_clean_linker_1, # of connection points: 2
#     Edge 13, Type (0, 1), BuildingBlock: KIFKEQ_clean_linker_1, # of connection points: 2
#     Edge 14, Type (0, 1), BuildingBlock: KIFKEQ_clean_linker_1, # of connection points: 2
#     Edge 15, Type (0, 1), BuildingBlock: KIFKEQ_clean_linker_1, # of connection points: 2
# Relax obj value: 0.123
# Max RMSD: 0.237
# Mean RMSD: 0.158
data_MOF--net-nia--node1-CIFDUS_clean_sbu_1--node2-MIDCAF_clean_sbu_0--edge1-KIFKEQ_clean_linker_1
_symmetry_space_group_name_H-M    P1
_symmetry_Int_Tables_number       1
_symmetry_cell_setting            triclinic
loop_
_symmetry_equiv_pos_as_xyz
'x, y, z'
_cell_length_a     24.128563
_cell_length_b     24.121075
_cell_length_c     32.946258
_cell_angle_alpha  89.330017
_cell_angle_beta   89.380936
_cell_angle_gamma 128.79317
loop_
_atom_site_label
_atom_site_type_symbol
_atom_site_fract_x
_atom_site_fract_y
_atom_site_fract_z
_atom_type_partial_charge
O0 O 0.98688 0.9479 0.98488 0.0
Mn1 Mn -0.00166 0.0099 0.03382 0.0
O2 O 0.88082 0.83936 0.99353 0.0
Mn3 Mn 0.87096 0.85068 0.04772 0.0
O4 O 0.01065 0.07274 0.08269 0.0
O5 O 0.10037 0.08352 1.01572 0.0
Mn6 Mn 0.12474 0.16915 1.01789 0.0
O7 O 0.96771 0.05541 0.99491 0.0
O8 O 0.1147 0.18257 0.07164 0.0
O9 O 0.02819 0.96334 0.07262 0.0
O10 O 0.92928 0.84986 0.08347 0.0
O11 O 0.20376 0.18185 0.99809 0.0
O12 O 0.06618 0.16786 0.98126 0.0
C13 C 0.83309 0.90629 0.06639 0.0
C14 C 0.93646 0.88526 0.97231 0.0
C15 C 0.06043 0.13678 0.09386 0.0
C16 C 0.16272 0.1131 1.00015 0.0
C17 C 0.0009 0.11548 0.97566 0.0
C18 C -0.00567 0.90172 0.09025 0.0
O19 O 0.89611 0.93639 0.05171 0.0
O20 O 0.79172 0.8375 0.06753 0.0
O21 O 0.06185 0.02287 0.58302 0.0
Mn22 Mn -0.00065 0.00971 0.53369 0.0
O23 O 0.17062 0.12856 0.57294 0.0
Mn24 Mn 0.15819 0.13812 0.5189 0.0
O25 O 0.93767 0.99736 0.48425 0.0
O26 O 0.92675 0.90719 0.55144 0.0
Mn27 Mn 0.84063 0.88073 0.54669 0.0
O28 O 0.95092 0.03805 0.57194 0.0
O29 O 0.83004 0.89018 0.49232 0.0
O30 O 0.04688 0.98077 0.49527 0.0
O31 O 0.1592 0.08033 0.48281 0.0
O32 O 0.82834 0.80211 0.56686 0.0
O33 O 0.83776 0.93824 0.58201 0.0
C34 C 0.1008 0.17412 0.50006 0.0
C35 C 0.12515 0.07359 0.5948 0.0
C36 C 0.87564 0.94621 0.47128 0.0
C37 C 0.89713 0.84426 0.56617 0.0
C38 C 0.88883 1.00346 0.58902 0.0
C39 C 0.10766 0.01492 0.47674 0.0
O40 O 0.07199 0.11201 0.51577 0.0
O41 O 0.16958 0.21623 0.49856 0.0
Zn42 Zn 0.29385 0.6785 0.20946 0.0
Zn43 Zn 0.3426 0.73375 0.359 0.0
Zn44 Zn 0.31325 0.69991 0.2846 0.0
C45 C 0.47096 0.78808 0.32597 0.0
C46 C 0.24213 0.58369 0.35719 0.0
O47 O 0.25753 0.7408 0.262 0.0
O48 O 0.22155 0.69138 0.20199 0.0
C49 C 0.43826 0.78224 0.21573 0.0
O50 O 0.43129 0.764 0.29445 0.0
O51 O 0.44426 0.77976 0.36075 0.0
O52 O 0.27452 0.6354 0.38096 0.0
O53 O 0.25144 0.59562 0.31843 0.0
O54 O 0.39138 0.75773 0.18917 0.0
O55 O 0.41963 0.7615 0.25318 0.0
O56 O 0.2483 0.58221 0.27617 0.0
O57 O 0.26112 0.58006 0.20973 0.0
C58 C 0.23876 0.54787 0.24374 0.0
O59 O 0.27079 0.75605 0.30335 0.0
O60 O 0.3159 0.79532 0.36412 0.0
C61 C 0.22218 0.72767 0.22949 0.0
C62 C 0.28011 0.79153 0.33512 0.0
Zn63 Zn 0.724 0.35215 0.85881 0.0
Zn64 Zn 0.66635 0.30556 0.70885 0.0
Zn65 Zn 0.68847 0.32364 0.78409 0.0
C66 C 0.77117 0.44967 0.71572 0.0
C67 C 0.53632 0.25095 0.74392 0.0
O68 O 0.74318 0.27924 0.80191 0.0
O69 O 0.78185 0.32105 0.86336 0.0
C70 C 0.78069 0.48154 0.82597 0.0
O71 O 0.75072 0.43051 0.75316 0.0
O72 O 0.74595 0.40321 0.68885 0.0
O73 O 0.56822 0.27366 0.70985 0.0
O74 O 0.57084 0.25974 0.77613 0.0
O75 O 0.77411 0.45479 0.86048 0.0
O76 O 0.75391 0.44169 0.79456 0.0
O77 O 0.58489 0.26305 0.81834 0.0
O78 O 0.62535 0.28694 0.88076 0.0
C79 C 0.57341 0.25479 0.85713 0.0
O80 O 0.7279 0.26711 0.76053 0.0
O81 O 0.67832 0.23278 0.70047 0.0
C82 C 0.77756 0.2861 0.83371 0.0
C83 C 0.71435 0.23232 0.72772 0.0
H84 H 0.1382 0.9726 0.09855 0.0
H85 H 0.93179 0.8003 0.15011 0.0
H86 H 0.19305 0.93677 0.14257 0.0
H87 H 0.98627 0.76563 0.19377 0.0
H88 H 0.09387 0.65912 0.19613 0.0
H89 H 0.04075 0.71056 0.17024 0.0
H90 H 0.21399 0.91456 0.21749 0.0
H91 H 0.26726 0.86192 0.24414 0.0
C92 C 0.10482 0.92817 0.11974 0.0
C93 C 0.0305 0.88824 0.1201 0.0
C94 C 0.1362 0.90796 0.14509 0.0
C95 C 0.09369 0.84784 0.17121 0.0
C96 C 0.02019 0.81145 0.17351 0.0
C97 C 0.98903 0.83125 0.14828 0.0
C98 C 0.11967 0.71449 0.20196 0.0
C99 C 0.18435 0.75651 0.22222 0.0
C100 C 0.0893 0.74403 0.18715 0.0
C101 C 0.12338 0.8167 0.19168 0.0
C102 C 0.18687 0.85848 0.21342 0.0
C103 C 0.21681 0.8283 0.22902 0.0
H104 H 0.17444 1.00153 0.61097 0.0
H105 H 0.14154 0.14137 0.66408 0.0
H106 H 0.26095 0.03318 0.66243 0.0
H107 H 0.22558 0.17106 0.71715 0.0
H108 H 0.47043 0.30815 0.73532 0.0
H109 H 0.34999 0.24704 0.71226 0.0
H110 H 0.30775 0.04514 0.72704 0.0
H111 H 0.43022 0.10792 0.74861 0.0
C112 C 0.18277 0.03591 0.63519 0.0
C113 C 0.15104 0.06857 0.63384 0.0
C114 C 0.23274 0.05448 0.66478 0.0
C115 C 0.25188 0.10614 0.69371 0.0
C116 C 0.21376 0.13254 0.69486 0.0
C117 C 0.16457 0.11464 0.6649 0.0
C118 C 0.43429 0.2505 0.7353 0.0
C119 C 0.45902 0.21264 0.7445 0.0
C120 C 0.36489 0.21507 0.72203 0.0
C121 C 0.31856 0.14071 0.71729 0.0
C122 C 0.34194 0.1024 0.72966 0.0
C123 C 0.41173 0.13813 0.74268 0.0
H124 H 0.99017 0.18816 0.10907 0.0
H125 H 0.12625 0.15154 0.16375 0.0
H126 H 0.0218 0.27457 0.16056 0.0
H127 H 0.15606 0.2357 0.2168 0.0
H128 H 0.29498 0.4809 0.23567 0.0
H129 H 0.2334 0.36048 0.21228 0.0
H130 H 0.03238 0.32031 0.22533 0.0
H131 H 0.09562 0.44269 0.24723 0.0
C132 C 0.02369 0.1957 0.13361 0.0
C133 C 0.05525 0.16285 0.13275 0.0
C134 C 0.04225 0.24559 0.16323 0.0
C135 C 0.0929 0.26366 0.19264 0.0
C136 C 0.11829 0.22462 0.19416 0.0
C137 C 0.1003 0.17538 0.16422 0.0
C138 C 0.23738 0.44519 0.23518 0.0
C139 C 0.19991 0.47046 0.24399 0.0
C140 C 0.2017 0.37583 0.22173 0.0
C141 C 0.1275 0.33013 0.21641 0.0
C142 C 0.08952 0.35402 0.22839 0.0
C143 C 0.12549 0.42376 0.24157 0.0
H144 H 0.96092 0.14728 0.59893 0.0
H145 H 0.7829 0.93966 0.64632 0.0
H146 H 0.92416 0.2018 0.64237 0.0
H147 H 0.7473 0.99384 0.68938 0.0
H148 H 0.64578 0.10605 0.69171 0.0
H149 H 0.69633 0.05221 0.66563 0.0
H150 H 0.89863 0.21992 0.71705 0.0
H151 H 0.84694 0.27401 0.74379 0.0
C152 C 0.91492 0.11349 0.61904 0.0
C153 C 0.8739 0.03904 0.61841 0.0
C154 C 0.89419 0.14469 0.64409 0.0
C155 C 0.83236 0.10187 0.66889 0.0
C156 C 0.7945 0.02805 0.67014 0.0
C157 C 0.81486 0.99707 0.64524 0.0
C158 C 0.70056 0.1305 0.69834 0.0
C159 C 0.7424 0.19389 0.71985 0.0
C160 C 0.72958 0.09969 0.68343 0.0
C161 C 0.80155 0.13201 0.68916 0.0
C162 C 0.84309 0.19417 0.71204 0.0
C163 C 0.81341 0.22455 0.7277 0.0
H164 H 0.86746 0.96382 0.14086 0.0
H165 H 0.73829 0.91988 0.03782 0.0
H166 H 0.78379 0.96166 0.18498 0.0
H167 H 0.65463 0.91699 0.08112 0.0
H168 H 0.49558 0.88979 0.16033 0.0
H169 H 0.61302 0.95866 0.12765 0.0
H170 H 0.66704 0.85548 0.20686 0.0
H171 H 0.54995 0.78818 0.24009 0.0
C172 C 0.82346 0.95812 0.12729 0.0
C173 C 0.80928 0.94251 0.086 0.0
C174 C 0.77475 0.95544 0.15264 0.0
C175 C 0.71142 0.93737 0.13689 0.0
C176 C 0.7027 0.93134 0.09454 0.0
C177 C 0.75105 0.93357 0.06942 0.0
C178 C 0.53344 0.8834 0.17142 0.0
C179 C 0.51371 0.83338 0.20252 0.0
C180 C 0.60068 0.92276 0.15267 0.0
C181 C 0.6493 0.91192 0.16402 0.0
C182 C 0.63146 0.86595 0.19747 0.0
C183 C 0.56424 0.82713 0.2166 0.0
H184 H 0.9534 0.87893 0.641 0.0
H185 H 0.91281 0.75069 0.53814 0.0
H186 H 0.95116 0.79554 0.68552 0.0
H187 H 0.90968 0.66722 0.58181 0.0
H188 H 0.87974 0.50713 0.66113 0.0
H189 H 0.94963 0.62497 0.62879 0.0
H190 H 0.84563 0.67893 0.70719 0.0
H191 H 0.77758 0.56154 0.7402 0.0
C192 C 0.94843 0.83523 0.62759 0.0
C193 C 0.93373 0.82118 0.58621 0.0
C194 C 0.94567 0.78664 0.65316 0.0
C195 C 0.92837 0.72353 0.63755 0.0
C196 C 0.9234 0.71509 0.59516 0.0
C197 C 0.92577 0.76335 0.56982 0.0
C198 C 0.87344 0.54509 0.67214 0.0
C199 C 0.82297 0.52527 0.70291 0.0
C200 C 0.91335 0.61256 0.65357 0.0
C201 C 0.90252 0.66126 0.66473 0.0
C202 C 0.85611 0.6433 0.69793 0.0
C203 C 0.81682 0.5759 0.71693 0.0
H204 H 0.19951 0.07632 0.41221 0.0
H205 H 0.04241 0.87205 0.4714 0.0
H206 H 0.23116 0.02219 0.36582 0.0
H207 H 0.07581 0.81772 0.42518 0.0
H208 H 0.14111 0.73562 0.32694 0.0
H209 H 0.08732 0.7878 0.3533 0.0
H210 H 0.29663 0.97899 0.38188 0.0
H211 H 0.34904 0.92693 0.35611 0.0
C212 C 0.17145 0.01962 0.41521 0.0
C213 C 0.11968 0.97873 0.44614 0.0
C214 C 0.18946 0.98859 0.38847 0.0
C215 C 0.15685 0.91595 0.3922 0.0
C216 C 0.10164 0.87383 0.42139 0.0
C217 C 0.08292 0.90496 0.44807 0.0
C218 C 0.17528 0.78968 0.33761 0.0
C219 C 0.24904 0.82762 0.33952 0.0
C220 C 0.14462 0.81916 0.3531 0.0
C221 C 0.18766 0.88733 0.36992 0.0
C222 C 0.26188 0.92675 0.3688 0.0
C223 C 0.29207 0.89703 0.35404 0.0
H224 H 0.22983 0.0654 0.03137 0.0
H225 H 0.15269 0.0883 0.92036 0.0
H226 H 0.32165 0.07332 0.99288 0.0
H227 H 0.24621 0.09996 0.88183 0.0
H228 H 0.44448 0.14912 0.82272 0.0
H229 H 0.32583 0.07814 0.85554 0.0
H230 H 0.42237 0.18719 0.96749 0.0
H231 H 0.53817 0.2569 0.93501 0.0
C232 C 0.2299 0.06782 0.9985 0.0
C233 C 0.18462 0.0765 0.97876 0.0
C234 C 0.2834 0.07388 0.9764 0.0
C235 C 0.2933 0.09052 0.93443 0.0
C236 C 0.24078 0.0878 0.91407 0.0
C237 C 0.18662 0.08053 0.93615 0.0
C238 C 0.43974 0.15799 0.85411 0.0
C239 C 0.5007 0.20963 0.8758 0.0
C240 C 0.37203 0.11677 0.87315 0.0
C241 C 0.36431 0.12593 0.91446 0.0
C242 C 0.42579 0.17667 0.93608 0.0
C243 C 0.49265 0.21764 0.91714 0.0
H244 H 0.07893 0.16487 0.41996 0.0
H245 H 0.04868 0.23777 0.53027 0.0
H246 H 0.08948 0.25758 0.3812 0.0
H247 H 0.05538 0.32872 0.49147 0.0
H248 H 0.23925 0.54758 0.43574 0.0
H249 H 0.16895 0.43137 0.4677 0.0
H250 H 0.06703 0.33592 0.35401 0.0
H251 H 0.13866 0.45499 0.3217 0.0
C252 C 0.06932 0.1976 0.43549 0.0
C253 C 0.06359 0.19478 0.47805 0.0
C254 C 0.07592 0.25132 0.41326 0.0
C255 C 0.07626 0.30256 0.43343 0.0
C256 C 0.05784 0.29154 0.47518 0.0
C257 C 0.05247 0.23851 0.49744 0.0
C258 C 0.2014 0.50223 0.41734 0.0
C259 C 0.19579 0.51076 0.37567 0.0
C260 C 0.16003 0.43508 0.43599 0.0
C261 C 0.11127 0.37375 0.41372 0.0
C262 C 0.10416 0.38196 0.37212 0.0
C263 C 0.14578 0.44996 0.35338 0.0
H264 H 0.05976 0.20132 0.90861 0.0
H265 H 0.85841 0.05209 0.97229 0.0
H266 H 0.00463 0.23116 0.86164 0.0
H267 H 0.80317 0.08385 0.92561 0.0
H268 H 0.71734 0.14556 0.82858 0.0
H269 H 0.76884 0.09099 0.85477 0.0
H270 H 0.96598 0.30067 0.87564 0.0
H271 H 0.91455 0.35381 0.84999 0.0
C272 C 0.00345 0.17458 0.91245 0.0
C273 C 0.96373 0.12565 0.94475 0.0
C274 C 0.97184 0.19156 0.88541 0.0
C275 C 0.89985 0.16086 0.89027 0.0
C276 C 0.85872 0.10819 0.92091 0.0
C277 C 0.89038 0.0904 0.94784 0.0
C278 C 0.77247 0.17948 0.83742 0.0
C279 C 0.81241 0.25368 0.83722 0.0
C280 C 0.80161 0.14843 0.85284 0.0
C281 C 0.87132 0.19145 0.86756 0.0
C282 C 0.91249 0.26583 0.86419 0.0
C283 C 0.88317 0.29648 0.84946 0.0
H284 H 0.83461 0.02537 0.4539 0.0
H285 H 0.85507 0.87541 0.40266 0.0
H286 H 0.75076 0.99859 0.40178 0.0
H287 H 0.77424 0.85092 0.34876 0.0
H288 H 0.53043 0.72439 0.33243 0.0
H289 H 0.65086 0.78068 0.35344 0.0
H290 H 0.70412 0.98757 0.33745 0.0
H291 H 0.58153 0.92957 0.31785 0.0
C292 C 0.82418 0.98968 0.42996 0.0
C293 C 0.85121 0.95256 0.43209 0.0
C294 C 0.77584 0.974 0.39994 0.0
C295 C 0.75395 0.92105 0.37134 0.0
C296 C 0.78807 0.89043 0.37085 0.0
C297 C 0.83535 0.90523 0.40131 0.0
C298 C 0.56889 0.78198 0.33173 0.0
C299 C 0.54723 0.82276 0.32333 0.0
C300 C 0.63833 0.81467 0.3438 0.0
C301 C 0.68768 0.88911 0.3479 0.0
C302 C 0.66743 0.93018 0.33551 0.0
C303 C 0.59757 0.89718 0.3237 0.0
H304 H 0.86798 0.8659 0.90279 0.0
H305 H 0.01446 0.84259 0.95644 0.0
H306 H 0.84467 0.7855 0.84889 0.0
H307 H 0.98879 0.75917 0.90441 0.0
H308 H 0.92255 0.59126 0.8207 0.0
H309 H 0.98033 0.71357 0.84063 0.0
H310 H 0.77381 0.66232 0.85179 0.0
H311 H 0.71785 0.54222 0.83013 0.0
C312 C 0.89728 0.8456 0.90201 0.0
C313 C 0.94338 0.86064 0.9334 0.0
C314 C 0.88313 0.79855 0.87155 0.0
C315 C 0.91313 0.76382 0.87266 0.0
C316 C 0.96475 0.78474 0.90203 0.0
C317 C 0.97979 0.83283 0.93202 0.0
C318 C 0.89032 0.60772 0.82555 0.0
C319 C 0.81602 0.558 0.82359 0.0
C320 C 0.92314 0.67743 0.83758 0.0
C321 C 0.88198 0.69808 0.84881 0.0
C322 C 0.8079 0.64946 0.84312 0.0
C323 C 0.7754 0.58022 0.83068 0.0
loop_
_geom_bond_atom_site_label_1
_geom_bond_atom_site_label_2
_geom_bond_distance
_geom_bond_site_symmetry_2
_ccdc_geom_bond_type
O0 Mn1 2.163 1_666 S
O0 C14 1.244 . S
Mn1 O0 2.163 1_444 S
Mn1 O4 2.160 . S
Mn1 O5 2.221 1_554 S
Mn1 O7 2.163 1_454 S
Mn1 O9 2.160 1_545 S
Mn1 O19 2.221 1_445 S
O2 Mn3 2.087 1_556 S
O2 C14 1.256 . S
Mn3 O2 2.087 1_554 S
Mn3 O10 2.089 1_655 S
Mn3 O19 2.290 . S
Mn3 O20 2.251 . S
O4 Mn1 2.160 . S
O4 C15 1.239 . S
O5 Mn1 2.221 1_556 S
O5 Mn6 2.290 . S
O5 C16 1.278 . S
Mn6 O5 2.290 . S
Mn6 O8 2.089 1_556 S
Mn6 O11 2.251 . S
Mn6 O12 2.087 . S
O7 Mn1 2.163 1_656 S
O7 C17 1.244 . S
O8 Mn6 2.089 1_554 S
O8 C15 1.256 . S
O9 Mn1 2.160 1_565 S
O9 C18 1.239 . S
O10 Mn3 2.089 1_455 S
O10 C18 1.256 . S
O11 Mn6 2.251 . S
O11 C16 1.241 . S
O12 Mn6 2.087 . S
O12 C17 1.256 1_455 S
C13 O19 1.278 . S
C13 O20 1.241 . S
C14 O0 1.244 . S
C14 O2 1.256 . S
C15 O4 1.239 . S
C15 O8 1.256 . S
C16 O5 1.278 . S
C16 O11 1.241 . S
C17 O7 1.244 . S
C17 O12 1.256 1_655 S
C18 O9 1.239 . S
C18 O10 1.256 . S
O19 Mn1 2.221 1_665 S
O19 Mn3 2.290 . S
O19 C13 1.278 . S
O20 Mn3 2.251 . S
O20 C13 1.241 . S
O21 Mn22 2.166 1_545 S
O21 C35 1.244 . S
Mn22 O21 2.166 1_565 S
Mn22 O25 2.158 1_455 S
Mn22 O26 2.229 1_455 S
Mn22 O28 2.151 1_465 S
Mn22 O30 2.170 . S
Mn22 O40 2.214 1_565 S
O23 Mn24 2.087 . S
O23 C35 1.256 . S
Mn24 O23 2.087 . S
Mn24 O31 2.089 . S
Mn24 O40 2.290 . S
Mn24 O41 2.251 . S
O25 Mn22 2.158 1_655 S
O25 C36 1.239 . S
O26 Mn22 2.229 1_655 S
O26 Mn27 2.290 . S
O26 C37 1.278 . S
Mn27 O26 2.290 . S
Mn27 O29 2.089 . S
Mn27 O32 2.251 . S
Mn27 O33 2.087 . S
O28 Mn22 2.151 1_645 S
O28 C38 1.244 . S
O29 Mn27 2.089 . S
O29 C36 1.256 . S
O30 Mn22 2.170 . S
O30 C39 1.239 . S
O31 Mn24 2.089 . S
O31 C39 1.256 1_545 S
O32 Mn27 2.251 . S
O32 C37 1.241 . S
O33 Mn27 2.087 . S
O33 C38 1.256 1_565 S
C34 O40 1.278 . S
C34 O41 1.241 . S
C35 O21 1.244 . S
C35 O23 1.256 . S
C36 O25 1.239 . S
C36 O29 1.256 . S
C37 O26 1.278 . S
C37 O32 1.241 . S
C38 O28 1.244 . S
C38 O33 1.256 1_545 S
C39 O30 1.239 . S
C39 O31 1.256 1_565 S
O40 Mn22 2.214 1_545 S
O40 Mn24 2.290 . S
O40 C34 1.278 . S
O41 Mn24 2.251 . S
O41 C34 1.241 . S
Zn42 O48 1.920 . S
Zn42 O54 1.898 . S
Zn42 O57 1.905 . S
Zn43 O51 1.905 . S
Zn43 O52 1.898 . S
Zn43 O60 1.920 . S
Zn44 O47 2.080 . S
Zn44 O50 2.114 . S
Zn44 O53 2.120 . S
Zn44 O55 2.120 . S
Zn44 O56 2.114 . S
Zn44 O59 2.080 . S
C45 O50 1.166 . S
C45 O51 1.182 . S
C46 O52 1.167 . S
C46 O53 1.299 . S
O47 Zn44 2.080 . S
O47 C61 1.305 . S
O48 Zn42 1.920 . S
O48 C61 1.234 . S
C49 O54 1.167 . S
C49 O55 1.299 . S
O50 Zn44 2.114 . S
O50 C45 1.166 . S
O51 Zn43 1.905 . S
O51 C45 1.182 . S
O52 Zn43 1.898 . S
O52 C46 1.167 . S
O53 Zn44 2.120 . S
O53 C46 1.299 . S
O54 Zn42 1.898 . S
O54 C49 1.167 . S
O55 Zn44 2.120 . S
O55 C49 1.299 . S
O56 Zn44 2.114 . S
O56 C58 1.166 . S
O57 Zn42 1.905 . S
O57 C58 1.182 . S
C58 O56 1.166 . S
C58 O57 1.182 . S
O59 Zn44 2.080 . S
O59 C62 1.305 . S
O60 Zn43 1.920 . S
O60 C62 1.234 . S
C61 O47 1.305 . S
C61 O48 1.234 . S
C62 O59 1.305 . S
C62 O60 1.234 . S
Zn63 O69 1.920 . S
Zn63 O75 1.898 . S
Zn63 O78 1.905 . S
Zn64 O72 1.905 . S
Zn64 O73 1.898 . S
Zn64 O81 1.920 . S
Zn65 O68 2.080 . S
Zn65 O71 2.114 . S
Zn65 O74 2.120 . S
Zn65 O76 2.120 . S
Zn65 O77 2.114 . S
Zn65 O80 2.080 . S
C66 O71 1.166 . S
C66 O72 1.182 . S
C67 O73 1.167 . S
C67 O74 1.299 . S
O68 Zn65 2.080 . S
O68 C82 1.305 . S
O69 Zn63 1.920 . S
O69 C82 1.234 . S
C70 O75 1.167 . S
C70 O76 1.299 . S
O71 Zn65 2.114 . S
O71 C66 1.166 . S
O72 Zn64 1.905 . S
O72 C66 1.182 . S
O73 Zn64 1.898 . S
O73 C67 1.167 . S
O74 Zn65 2.120 . S
O74 C67 1.299 . S
O75 Zn63 1.898 . S
O75 C70 1.167 . S
O76 Zn65 2.120 . S
O76 C70 1.299 . S
O77 Zn65 2.114 . S
O77 C79 1.166 . S
O78 Zn63 1.905 . S
O78 C79 1.182 . S
C79 O77 1.166 . S
C79 O78 1.182 . S
O80 Zn65 2.080 . S
O80 C83 1.305 . S
O81 Zn64 1.920 . S
O81 C83 1.234 . S
C82 O68 1.305 . S
C82 O69 1.234 . S
C83 O80 1.305 . S
C83 O81 1.234 . S
H84 C92 0.950 . S
H85 C97 0.950 . S
H86 C94 0.950 . S
H87 C96 0.950 . S
H88 C98 0.950 . S
H89 C100 0.950 . S
H90 C102 0.950 . S
H91 C103 0.950 . S
C92 H84 0.950 . S
C92 C93 1.386 . S
C92 C94 1.391 . S
C93 C92 1.386 . S
C93 C97 1.393 . S
C94 H86 0.950 . S
C94 C92 1.391 . S
C94 C95 1.400 . S
C95 C94 1.400 . S
C95 C96 1.398 . S
C95 C101 1.491 . S
C96 H87 0.950 . S
C96 C95 1.398 . S
C96 C97 1.391 . S
C97 H85 0.950 . S
C97 C93 1.393 . S
C97 C96 1.391 . S
C98 H88 0.950 . S
C98 C99 1.386 . S
C98 C100 1.391 . S
C99 C98 1.386 . S
C99 C103 1.393 . S
C100 H89 0.950 . S
C100 C98 1.391 . S
C100 C101 1.400 . S
C101 C95 1.491 . S
C101 C100 1.400 . S
C101 C102 1.398 . S
C102 H90 0.950 . S
C102 C101 1.398 . S
C102 C103 1.391 . S
C103 H91 0.950 . S
C103 C99 1.393 . S
C103 C102 1.391 . S
H104 C112 0.950 . S
H105 C117 0.950 . S
H106 C114 0.950 . S
H107 C116 0.950 . S
H108 C118 0.950 . S
H109 C120 0.950 . S
H110 C122 0.950 . S
H111 C123 0.950 . S
C112 H104 0.950 . S
C112 C113 1.386 . S
C112 C114 1.391 . S
C113 C112 1.386 . S
C113 C117 1.393 . S
C114 H106 0.950 . S
C114 C112 1.391 . S
C114 C115 1.400 . S
C115 C114 1.400 . S
C115 C116 1.398 . S
C115 C121 1.491 . S
C116 H107 0.950 . S
C116 C115 1.398 . S
C116 C117 1.391 . S
C117 H105 0.950 . S
C117 C113 1.393 . S
C117 C116 1.391 . S
C118 H108 0.950 . S
C118 C119 1.386 . S
C118 C120 1.391 . S
C119 C118 1.386 . S
C119 C123 1.393 . S
C120 H109 0.950 . S
C120 C118 1.391 . S
C120 C121 1.400 . S
C121 C115 1.491 . S
C121 C120 1.400 . S
C121 C122 1.398 . S
C122 H110 0.950 . S
C122 C121 1.398 . S
C122 C123 1.391 . S
C123 H111 0.950 . S
C123 C119 1.393 . S
C123 C122 1.391 . S
H124 C132 0.950 . S
H125 C137 0.950 . S
H126 C134 0.950 . S
H127 C136 0.950 . S
H128 C138 0.950 . S
H129 C140 0.950 . S
H130 C142 0.950 . S
H131 C143 0.950 . S
C132 H124 0.950 . S
C132 C133 1.386 . S
C132 C134 1.391 . S
C133 C132 1.386 . S
C133 C137 1.393 . S
C134 H126 0.950 . S
C134 C132 1.391 . S
C134 C135 1.400 . S
C135 C134 1.400 . S
C135 C136 1.398 . S
C135 C141 1.491 . S
C136 H127 0.950 . S
C136 C135 1.398 . S
C136 C137 1.391 . S
C137 H125 0.950 . S
C137 C133 1.393 . S
C137 C136 1.391 . S
C138 H128 0.950 . S
C138 C139 1.386 . S
C138 C140 1.391 . S
C139 C138 1.386 . S
C139 C143 1.393 . S
C140 H129 0.950 . S
C140 C138 1.391 . S
C140 C141 1.400 . S
C141 C135 1.491 . S
C141 C140 1.400 . S
C141 C142 1.398 . S
C142 H130 0.950 . S
C142 C141 1.398 . S
C142 C143 1.391 . S
C143 H131 0.950 . S
C143 C139 1.393 . S
C143 C142 1.391 . S
H144 C152 0.950 . S
H145 C157 0.950 . S
H146 C154 0.950 . S
H147 C156 0.950 . S
H148 C158 0.950 . S
H149 C160 0.950 . S
H150 C162 0.950 . S
H151 C163 0.950 . S
C152 H144 0.950 . S
C152 C153 1.386 . S
C152 C154 1.391 . S
C153 C152 1.386 . S
C153 C157 1.393 . S
C154 H146 0.950 . S
C154 C152 1.391 . S
C154 C155 1.400 . S
C155 C154 1.400 . S
C155 C156 1.398 . S
C155 C161 1.491 . S
C156 H147 0.950 . S
C156 C155 1.398 . S
C156 C157 1.391 . S
C157 H145 0.950 . S
C157 C153 1.393 . S
C157 C156 1.391 . S
C158 H148 0.950 . S
C158 C159 1.386 . S
C158 C160 1.391 . S
C159 C158 1.386 . S
C159 C163 1.393 . S
C160 H149 0.950 . S
C160 C158 1.391 . S
C160 C161 1.400 . S
C161 C155 1.491 . S
C161 C160 1.400 . S
C161 C162 1.398 . S
C162 H150 0.950 . S
C162 C161 1.398 . S
C162 C163 1.391 . S
C163 H151 0.950 . S
C163 C159 1.393 . S
C163 C162 1.391 . S
H164 C172 0.950 . S
H165 C177 0.950 . S
H166 C174 0.950 . S
H167 C176 0.950 . S
H168 C178 0.950 . S
H169 C180 0.950 . S
H170 C182 0.950 . S
H171 C183 0.950 . S
C172 H164 0.950 . S
C172 C173 1.386 . S
C172 C174 1.391 . S
C173 C172 1.386 . S
C173 C177 1.393 . S
C174 H166 0.950 . S
C174 C172 1.391 . S
C174 C175 1.400 . S
C175 C174 1.400 . S
C175 C176 1.398 . S
C175 C181 1.491 . S
C176 H167 0.950 . S
C176 C175 1.398 . S
C176 C177 1.391 . S
C177 H165 0.950 . S
C177 C173 1.393 . S
C177 C176 1.391 . S
C178 H168 0.950 . S
C178 C179 1.386 . S
C178 C180 1.391 . S
C179 C178 1.386 . S
C179 C183 1.393 . S
C180 H169 0.950 . S
C180 C178 1.391 . S
C180 C181 1.400 . S
C181 C175 1.491 . S
C181 C180 1.400 . S
C181 C182 1.398 . S
C182 H170 0.950 . S
C182 C181 1.398 . S
C182 C183 1.391 . S
C183 H171 0.950 . S
C183 C179 1.393 . S
C183 C182 1.391 . S
H184 C192 0.950 . S
H185 C197 0.950 . S
H186 C194 0.950 . S
H187 C196 0.950 . S
H188 C198 0.950 . S
H189 C200 0.950 . S
H190 C202 0.950 . S
H191 C203 0.950 . S
C192 H184 0.950 . S
C192 C193 1.386 . S
C192 C194 1.391 . S
C193 C192 1.386 . S
C193 C197 1.393 . S
C194 H186 0.950 . S
C194 C192 1.391 . S
C194 C195 1.400 . S
C195 C194 1.400 . S
C195 C196 1.398 . S
C195 C201 1.491 . S
C196 H187 0.950 . S
C196 C195 1.398 . S
C196 C197 1.391 . S
C197 H185 0.950 . S
C197 C193 1.393 . S
C197 C196 1.391 . S
C198 H188 0.950 . S
C198 C199 1.386 . S
C198 C200 1.391 . S
C199 C198 1.386 . S
C199 C203 1.393 . S
C200 H189 0.950 . S
C200 C198 1.391 . S
C200 C201 1.400 . S
C201 C195 1.491 . S
C201 C200 1.400 . S
C201 C202 1.398 . S
C202 H190 0.950 . S
C202 C201 1.398 . S
C202 C203 1.391 . S
C203 H191 0.950 . S
C203 C199 1.393 . S
C203 C202 1.391 . S
H204 C212 0.950 1_545 S
H205 C217 0.950 . S
H206 C214 0.950 . S
H207 C216 0.950 . S
H208 C218 0.950 . S
H209 C220 0.950 . S
H210 C222 0.950 . S
H211 C223 0.950 . S
C212 H204 0.950 1_565 S
C212 C213 1.386 . S
C212 C214 1.391 . S
C213 C212 1.386 . S
C213 C217 1.393 . S
C214 H206 0.950 . S
C214 C212 1.391 . S
C214 C215 1.400 . S
C215 C214 1.400 . S
C215 C216 1.398 . S
C215 C221 1.491 . S
C216 H207 0.950 . S
C216 C215 1.398 . S
C216 C217 1.391 . S
C217 H205 0.950 . S
C217 C213 1.393 . S
C217 C216 1.391 . S
C218 H208 0.950 . S
C218 C219 1.386 . S
C218 C220 1.391 . S
C219 C218 1.386 . S
C219 C223 1.393 . S
C220 H209 0.950 . S
C220 C218 1.391 . S
C220 C221 1.400 . S
C221 C215 1.491 . S
C221 C220 1.400 . S
C221 C222 1.398 . S
C222 H210 0.950 . S
C222 C221 1.398 . S
C222 C223 1.391 . S
C223 H211 0.950 . S
C223 C219 1.393 . S
C223 C222 1.391 . S
H224 C232 0.950 . S
H225 C237 0.950 . S
H226 C234 0.950 . S
H227 C236 0.950 . S
H228 C238 0.950 . S
H229 C240 0.950 . S
H230 C242 0.950 . S
H231 C243 0.950 . S
C232 H224 0.950 . S
C232 C233 1.386 . S
C232 C234 1.391 . S
C233 C232 1.386 . S
C233 C237 1.393 . S
C234 H226 0.950 . S
C234 C232 1.391 . S
C234 C235 1.400 . S
C235 C234 1.400 . S
C235 C236 1.398 . S
C235 C241 1.491 . S
C236 H227 0.950 . S
C236 C235 1.398 . S
C236 C237 1.391 . S
C237 H225 0.950 . S
C237 C233 1.393 . S
C237 C236 1.391 . S
C238 H228 0.950 . S
C238 C239 1.386 . S
C238 C240 1.391 . S
C239 C238 1.386 . S
C239 C243 1.393 . S
C240 H229 0.950 . S
C240 C238 1.391 . S
C240 C241 1.400 . S
C241 C235 1.491 . S
C241 C240 1.400 . S
C241 C242 1.398 . S
C242 H230 0.950 . S
C242 C241 1.398 . S
C242 C243 1.391 . S
C243 H231 0.950 . S
C243 C239 1.393 . S
C243 C242 1.391 . S
H244 C252 0.950 . S
H245 C257 0.950 . S
H246 C254 0.950 . S
H247 C256 0.950 . S
H248 C258 0.950 . S
H249 C260 0.950 . S
H250 C262 0.950 . S
H251 C263 0.950 . S
C252 H244 0.950 . S
C252 C253 1.386 . S
C252 C254 1.391 . S
C253 C252 1.386 . S
C253 C257 1.393 . S
C254 H246 0.950 . S
C254 C252 1.391 . S
C254 C255 1.400 . S
C255 C254 1.400 . S
C255 C256 1.398 . S
C255 C261 1.491 . S
C256 H247 0.950 . S
C256 C255 1.398 . S
C256 C257 1.391 . S
C257 H245 0.950 . S
C257 C253 1.393 . S
C257 C256 1.391 . S
C258 H248 0.950 . S
C258 C259 1.386 . S
C258 C260 1.391 . S
C259 C258 1.386 . S
C259 C263 1.393 . S
C260 H249 0.950 . S
C260 C258 1.391 . S
C260 C261 1.400 . S
C261 C255 1.491 . S
C261 C260 1.400 . S
C261 C262 1.398 . S
C262 H250 0.950 . S
C262 C261 1.398 . S
C262 C263 1.391 . S
C263 H251 0.950 . S
C263 C259 1.393 . S
C263 C262 1.391 . S
H264 C272 0.950 . S
H265 C277 0.950 . S
H266 C274 0.950 . S
H267 C276 0.950 . S
H268 C278 0.950 . S
H269 C280 0.950 . S
H270 C282 0.950 . S
H271 C283 0.950 . S
C272 H264 0.950 . S
C272 C273 1.386 . S
C272 C274 1.391 . S
C273 C272 1.386 . S
C273 C277 1.393 . S
C274 H266 0.950 . S
C274 C272 1.391 . S
C274 C275 1.400 . S
C275 C274 1.400 . S
C275 C276 1.398 . S
C275 C281 1.491 . S
C276 H267 0.950 . S
C276 C275 1.398 . S
C276 C277 1.391 . S
C277 H265 0.950 . S
C277 C273 1.393 . S
C277 C276 1.391 . S
C278 H268 0.950 . S
C278 C279 1.386 . S
C278 C280 1.391 . S
C279 C278 1.386 . S
C279 C283 1.393 . S
C280 H269 0.950 . S
C280 C278 1.391 . S
C280 C281 1.400 . S
C281 C275 1.491 . S
C281 C280 1.400 . S
C281 C282 1.398 . S
C282 H270 0.950 . S
C282 C281 1.398 . S
C282 C283 1.391 . S
C283 H271 0.950 . S
C283 C279 1.393 . S
C283 C282 1.391 . S
H284 C292 0.950 1_545 S
H285 C297 0.950 . S
H286 C294 0.950 . S
H287 C296 0.950 . S
H288 C298 0.950 . S
H289 C300 0.950 . S
H290 C302 0.950 . S
H291 C303 0.950 . S
C292 H284 0.950 1_565 S
C292 C293 1.386 . S
C292 C294 1.391 . S
C293 C292 1.386 . S
C293 C297 1.393 . S
C294 H286 0.950 . S
C294 C292 1.391 . S
C294 C295 1.400 . S
C295 C294 1.400 . S
C295 C296 1.398 . S
C295 C301 1.491 . S
C296 H287 0.950 . S
C296 C295 1.398 . S
C296 C297 1.391 . S
C297 H285 0.950 . S
C297 C293 1.393 . S
C297 C296 1.391 . S
C298 H288 0.950 . S
C298 C299 1.386 . S
C298 C300 1.391 . S
C299 C298 1.386 . S
C299 C303 1.393 . S
C300 H289 0.950 . S
C300 C298 1.391 . S
C300 C301 1.400 . S
C301 C295 1.491 . S
C301 C300 1.400 . S
C301 C302 1.398 . S
C302 H290 0.950 . S
C302 C301 1.398 . S
C302 C303 1.391 . S
C303 H291 0.950 . S
C303 C299 1.393 . S
C303 C302 1.391 . S
H304 C312 0.950 . S
H305 C317 0.950 . S
H306 C314 0.950 . S
H307 C316 0.950 . S
H308 C318 0.950 . S
H309 C320 0.950 . S
H310 C322 0.950 . S
H311 C323 0.950 . S
C312 H304 0.950 . S
C312 C313 1.386 . S
C312 C314 1.391 . S
C313 C312 1.386 . S
C313 C317 1.393 . S
C314 H306 0.950 . S
C314 C312 1.391 . S
C314 C315 1.400 . S
C315 C314 1.400 . S
C315 C316 1.398 . S
C315 C321 1.491 . S
C316 H307 0.950 . S
C316 C315 1.398 . S
C316 C317 1.391 . S
C317 H305 0.950 . S
C317 C313 1.393 . S
C317 C316 1.391 . S
C318 H308 0.950 . S
C318 C319 1.386 . S
C318 C320 1.391 . S
C319 C318 1.386 . S
C319 C323 1.393 . S
C320 H309 0.950 . S
C320 C318 1.391 . S
C320 C321 1.400 . S
C321 C315 1.491 . S
C321 C320 1.400 . S
C321 C322 1.398 . S
C322 H310 0.950 . S
C322 C321 1.398 . S
C322 C323 1.391 . S
C323 H311 0.950 . S
C323 C319 1.393 . S
C323 C322 1.391 . S
C93 C18 1.375 . S
C99 C61 1.277 . S
C113 C35 1.497 . S
C119 C67 1.410 . S
C133 C15 1.353 . S
C139 C58 1.248 . S
C153 C38 1.539 . S
C159 C83 1.433 . S
C173 C13 1.400 . S
C179 C49 1.371 . S
C199 C66 1.405 . S
C193 C37 1.256 . S
C213 C39 1.364 . S
C219 C62 1.302 . S
C239 C79 1.395 . S
C233 C16 1.295 . S
C259 C46 1.384 . S
C253 C34 1.396 . S
C279 C82 1.403 . S
C273 C17 1.547 . S
C299 C45 1.244 . S
C293 C36 1.351 . S
C319 C70 1.382 . S
C313 C14 1.513 . S
