# Generated by pormake.
# Topology nia, (6,6)-cn, num edge types: 1
# Building blocks:
#     Node 0, Type 0, BuildingBlock: KUMBOL_clean_sbu_1, # of connection points: 6
#     Node 1, Type 0, BuildingBlock: KUMBOL_clean_sbu_1, # of connection points: 6
#     Node 2, Type 1, BuildingBlock: MIDCAF_clean_sbu_0, # of connection points: 6
#     Node 3, Type 1, BuildingBlock: MIDCAF_clean_sbu_0, # of connection points: 6
#     Edge 4, Type (0, 1), BuildingBlock: XUDNAN_clean_linker_2, # of connection points: 2
#     Edge 5, Type (0, 1), BuildingBlock: XUDNAN_clean_linker_2, # of connection points: 2
#     Edge 6, Type (0, 1), BuildingBlock: XUDNAN_clean_linker_2, # of connection points: 2
#     Edge 7, Type (0, 1), BuildingBlock: XUDNAN_clean_linker_2, # of connection points: 2
#     Edge 8, Type (0, 1), BuildingBlock: XUDNAN_clean_linker_2, # of connection points: 2
#     Edge 9, Type (0, 1), BuildingBlock: XUDNAN_clean_linker_2, # of connection points: 2
#     Edge 10, Type (0, 1), BuildingBlock: XUDNAN_clean_linker_2, # of connection points: 2
#     Edge 11, Type (0, 1), BuildingBlock: XUDNAN_clean_linker_2, # of connection points: 2
#     Edge 12, Type (0, 1), BuildingBlock: XUDNAN_clean_linker_2, # of connection points: 2
#     Edge 13, Type (0, 1), BuildingBlock: XUDNAN_clean_linker_2, # of connection points: 2
#     Edge 14, Type (0, 1), BuildingBlock: XUDNAN_clean_linker_2, # of connection points: 2
#     Edge 15, Type (0, 1), BuildingBlock: XUDNAN_clean_linker_2, # of connection points: 2
# Relax obj value: 0.171
# Max RMSD: 0.279
# Mean RMSD: 0.201
data_MOF--net-nia--node1-KUMBOL_clean_sbu_1--node2-MIDCAF_clean_sbu_0--edge1-XUDNAN_clean_linker_2
_symmetry_space_group_name_H-M    P1
_symmetry_Int_Tables_number       1
_symmetry_cell_setting            triclinic
loop_
_symmetry_equiv_pos_as_xyz
'x, y, z'
_cell_length_a     28.465285
_cell_length_b     28.367243
_cell_length_c     32.128965
_cell_angle_alpha  90.342818
_cell_angle_beta   89.748758
_cell_angle_gamma 136.08028
loop_
_atom_site_label
_atom_site_type_symbol
_atom_site_fract_x
_atom_site_fract_y
_atom_site_fract_z
_atom_type_partial_charge
C0 C 0.94846 0.00099 0.86519 0.0
C1 C 0.82765 0.89874 0.86075 0.0
C2 C 0.88579 0.95166 0.88445 0.0
C3 C 0.83363 0.89582 0.81762 0.0
C4 C 0.95437 0.99908 0.82183 0.0
C5 C 0.8968 0.94595 0.79819 0.0
N6 N 0.00348 0.05153 0.88881 0.0
C7 C 0.06574 0.10211 0.87106 0.0
C8 C 0.01781 0.05145 0.80342 0.0
C9 C 0.07386 0.1029 0.82809 0.0
Gd10 Gd 0.01791 0.97789 0.05081 0.0
Gd11 Gd 0.98361 0.04996 0.95979 0.0
N12 N 0.88153 0.95638 0.92621 0.0
C13 C 0.76494 0.85141 0.88093 0.0
C14 C 0.81987 0.91413 0.94506 0.0
C15 C 0.76092 0.85986 0.92318 0.0
H16 H 0.81547 0.92377 0.9763 0.0
H17 H 0.71224 0.82572 0.93867 0.0
H18 H 0.18536 0.08975 0.03389 0.0
H19 H 0.10899 0.14262 0.89006 0.0
H20 H 0.29187 0.19099 0.06803 0.0
H21 H 0.71911 0.80989 0.86388 0.0
H22 H 0.78956 0.85545 0.79894 0.0
H23 H 0.89375 0.90713 0.11953 0.0
H24 H 0.02369 0.05342 0.77015 0.0
H25 H 0.12309 0.14352 0.81398 0.0
H26 H 0.21937 0.20286 0.19936 0.0
H27 H 0.90048 0.94347 0.76483 0.0
H28 H 0.98088 0.03303 0.22841 0.0
H29 H 0.88054 0.93173 0.18996 0.0
N30 N 0.00049 0.99351 0.1185 0.0
C31 C 0.05686 0.04701 0.14007 0.0
C32 C 0.93784 0.95149 0.13613 0.0
C33 C 0.9872 0.02196 0.19781 0.0
C34 C 0.93023 0.96513 0.17601 0.0
C35 C 0.0517 0.06298 0.18026 0.0
H36 H 0.10789 0.13226 0.23248 0.0
N37 N 0.12254 0.07209 0.08143 0.0
C38 C 0.11971 0.08742 0.121 0.0
C39 C 0.24159 0.18229 0.1225 0.0
C40 C 0.17912 0.14377 0.14229 0.0
C41 C 0.18328 0.10666 0.06314 0.0
C42 C 0.24371 0.16301 0.083 0.0
O43 O 0.9701 0.96393 0.93933 0.0
O44 O 0.93827 0.91002 0.00148 0.0
O45 O 0.06097 0.93768 0.05129 0.0
O46 O 0.97239 0.89136 0.08931 0.0
O47 O 0.91951 0.00793 0.01926 0.0
O48 O 0.91122 0.92436 0.03934 0.0
O49 O 0.02913 0.06443 0.06438 0.0
O50 O 0.07139 0.1248 0.0038 0.0
O51 O 0.93206 0.0813 0.9645 0.0
O52 O 0.02549 0.14046 0.92841 0.0
O53 O 0.08197 0.01589 0.99241 0.0
O54 O 0.08941 0.09688 0.96579 0.0
C55 C 0.94988 0.91336 0.96159 0.0
C56 C 0.89082 0.95364 0.04147 0.0
C57 C 0.01198 0.83937 0.09395 0.0
C58 C 0.05916 0.79466 0.10215 0.0
C59 C 0.95052 0.73556 0.13304 0.0
C60 C 0.95531 0.78466 0.11747 0.0
C61 C 0.00215 0.74049 0.12549 0.0
C62 C 0.06408 0.84412 0.08621 0.0
C63 C 0.01563 0.89056 0.07785 0.0
C64 C 0.17429 0.15958 0.18256 0.0
C65 C 0.11079 0.11929 0.20147 0.0
H66 H 0.28845 0.22598 0.13781 0.0
C67 C 0.06815 0.1223 0.04453 0.0
C68 C 0.10636 0.06423 0.96566 0.0
C69 C 0.97767 0.18383 0.92913 0.0
C70 C 0.91817 0.21338 0.91295 0.0
C71 C 0.03965 0.29609 0.90267 0.0
C72 C 0.0388 0.24911 0.9167 0.0
C73 C 0.97959 0.27824 0.90051 0.0
C74 C 0.91723 0.1663 0.9278 0.0
C75 C 0.97728 0.13348 0.94052 0.0
H76 H 0.9067 0.69364 0.15109 0.0
H77 H 0.91443 0.77959 0.12381 0.0
H78 H -0.0022 0.70207 0.13799 0.0
H79 H 0.10822 0.88602 0.06825 0.0
H80 H 0.08684 0.34616 0.89299 0.0
H81 H 0.08596 0.2637 0.91746 0.0
H82 H 0.9809 0.31502 0.88901 0.0
H83 H 0.86961 0.11585 0.93678 0.0
C84 C 0.04921 0.06704 0.63956 0.0
C85 C 0.15856 0.18533 0.64318 0.0
C86 C 0.09937 0.13071 0.62094 0.0
C87 C 0.16668 0.17533 0.68418 0.0
C88 C 0.05829 0.05639 0.68021 0.0
C89 C 0.1172 0.11092 0.70242 0.0
N90 N 0.99346 0.01462 0.61695 0.0
C91 C 0.94283 0.95184 0.63401 0.0
C92 C 0.00839 0.99084 0.69698 0.0
C93 C 0.94985 0.93874 0.67412 0.0
Gd94 Gd 0.05092 0.99579 0.45497 0.0
Gd95 Gd 0.99002 0.04028 0.54877 0.0
N96 N 0.09219 0.13773 0.58016 0.0
C97 C 0.20867 0.24794 0.62314 0.0
C98 C 0.14062 0.19873 0.56059 0.0
C99 C 0.19953 0.25468 0.58174 0.0
H100 H 0.13443 0.2045 0.52868 0.0
H101 H 0.23805 0.3029 0.56601 0.0
H102 H 0.91439 0.82872 0.48027 0.0
H103 H 0.89743 0.91154 0.61639 0.0
H104 H 0.80624 0.72757 0.44906 0.0
H105 H 0.25482 0.29118 0.63921 0.0
H106 H 0.21193 0.21669 0.70171 0.0
H107 H 0.14708 0.10548 0.37728 0.0
H108 H 0.01432 0.97984 0.72757 0.0
H109 H 0.91048 0.88833 0.6872 0.0
H110 H 0.82508 0.79107 0.30724 0.0
H111 H 0.12554 0.10372 0.73356 0.0
H112 H 0.03697 0.00951 0.26378 0.0
H113 H 0.14043 0.10916 0.30111 0.0
N114 N 0.04891 0.00407 0.3827 0.0
C115 C 0.99166 0.94892 0.3627 0.0
C116 C 0.10201 0.06119 0.36118 0.0
C117 C 0.0393 0.00793 0.29715 0.0
C118 C 0.09816 0.06388 0.31809 0.0
C119 C 0.98466 0.94995 0.31943 0.0
H120 H 0.91734 0.89332 0.26658 0.0
N121 N 0.95012 0.89078 0.42695 0.0
C122 C 0.94036 0.89087 0.38552 0.0
C123 C 0.83026 0.77438 0.38926 0.0
C124 C 0.87989 0.83295 0.36568 0.0
C125 C 0.90408 0.83202 0.44909 0.0
C126 C 0.84301 0.77355 0.43097 0.0
O127 O 0.0728 0.04644 0.56185 0.0
O128 O 0.11899 0.08358 0.49849 0.0
O129 O 0.08178 0.94309 0.45344 0.0
O130 O 0.14967 0.04819 0.43279 0.0
O131 O 0.02909 0.10551 0.49106 0.0
O132 O 0.09195 0.09936 0.44852 0.0
O133 O 0.97046 0.98983 0.43742 0.0
O134 O 0.91245 0.96556 0.49857 0.0
O135 O 0.9793 0.10782 0.55765 0.0
O136 O 0.90528 0.00721 0.58446 0.0
O137 O 0.01282 0.93707 0.51566 0.0
O138 O 0.93142 0.93106 0.53783 0.0
C139 C 0.12346 0.07401 0.53703 0.0
C140 C 0.06859 0.12472 0.45883 0.0
C141 C 0.19609 0.00365 0.42867 0.0
C142 C 0.23897 0.95506 0.418 0.0
C143 C 0.31459 0.07652 0.4111 0.0
C144 C 0.26134 0.06852 0.42042 0.0
C145 C 0.30356 0.02011 0.40992 0.0
C146 C 0.18501 0.94665 0.42736 0.0
C147 C 0.14087 0.99708 0.4383 0.0
C148 C 0.87144 0.83485 0.32289 0.0
C149 C 0.92396 0.89303 0.29974 0.0
H150 H 0.78304 0.7289 0.37524 0.0
C151 C 0.9187 0.97043 0.45761 0.0
C152 C 0.96088 0.9109 0.53944 0.0
C153 C 0.86992 0.05875 0.56657 0.0
C154 C 0.81488 0.09481 0.57764 0.0
C155 C 0.77893 0.01766 0.52091 0.0
C156 C 0.82744 0.01932 0.53238 0.0
C157 C 0.77265 0.0553 0.54338 0.0
C158 C 0.86346 0.09637 0.58913 0.0
C159 C 0.92302 0.06369 0.57844 0.0
H160 H 0.36443 0.12652 0.4045 0.0
H161 H 0.27142 0.11334 0.42112 0.0
H162 H 0.3452 0.02698 0.40188 0.0
H163 H 0.13488 0.89621 0.43294 0.0
H164 H 0.74579 0.98673 0.49475 0.0
H165 H 0.8319 0.99011 0.51462 0.0
H166 H 0.73377 0.05224 0.53475 0.0
H167 H 0.89567 0.12625 0.61589 0.0
Zn168 Zn 0.32927 0.6113 0.15172 0.0
Zn169 Zn 0.37428 0.6846 0.35966 0.0
Zn170 Zn 0.36671 0.66794 0.24898 0.0
C171 C 0.50102 0.75232 0.31574 0.0
C172 C 0.28717 0.54674 0.32273 0.0
O173 O 0.32427 0.6988 0.20791 0.0
O174 O 0.32423 0.6738 0.14139 0.0
C175 C 0.4727 0.71645 0.19783 0.0
O176 O 0.47297 0.73715 0.27924 0.0
O177 O 0.46828 0.73325 0.34957 0.0
O178 O 0.31103 0.58556 0.3543 0.0
O179 O 0.30329 0.56974 0.28491 0.0
O180 O 0.41651 0.67529 0.17985 0.0
O181 O 0.47359 0.73269 0.23505 0.0
O182 O 0.31055 0.5607 0.23503 0.0
O183 O 0.24535 0.5364 0.18404 0.0
C184 C 0.26328 0.51741 0.20852 0.0
O185 O 0.32219 0.70884 0.25346 0.0
O186 O 0.35224 0.69833 0.30929 0.0
C187 C 0.31448 0.69898 0.16819 0.0
C188 C 0.32678 0.71528 0.29286 0.0
Zn189 Zn 0.64732 0.37773 0.82256 0.0
Zn190 Zn 0.66165 0.36854 0.68602 0.0
Zn191 Zn 0.65163 0.37053 0.75501 0.0
C192 C 0.72137 0.49456 0.69593 0.0
C193 C 0.52928 0.27636 0.69318 0.0
O194 O 0.67836 0.3206 0.78453 0.0
O195 O 0.70971 0.37539 0.84388 0.0
C196 C 0.72238 0.50315 0.81003 0.0
O197 O 0.72474 0.47761 0.73205 0.0
O198 O 0.68322 0.44898 0.66871 0.0
O199 O 0.56918 0.27883 0.67324 0.0
O200 O 0.55116 0.31305 0.72632 0.0
O201 O 0.67177 0.46128 0.8333 0.0
O202 O 0.72833 0.48048 0.77767 0.0
O203 O 0.5432 0.31146 0.77279 0.0
O204 O 0.55521 0.2963 0.83711 0.0
C205 C 0.51735 0.28451 0.80896 0.0
O206 O 0.68388 0.32021 0.7375 0.0
O207 O 0.73329 0.37315 0.67806 0.0
C208 C 0.70286 0.33407 0.82159 0.0
C209 C 0.719 0.33274 0.70537 0.0
H210 H 0.16374 0.85164 0.15385 0.0
H211 H 0.06851 0.73752 0.03924 0.0
H212 H 0.13692 0.71391 0.03986 0.0
H213 H 0.33625 0.91828 0.14176 0.0
H214 H 0.33555 0.90007 0.19547 0.0
H215 H 0.29437 0.92426 0.18018 0.0
H216 H 0.18898 0.81817 0.21623 0.0
H217 H 0.2157 0.77704 0.22446 0.0
H218 H 0.1423 0.7357 0.19423 0.0
H219 H 0.19313 0.68142 0.06133 0.0
H220 H 0.24396 0.65136 0.09626 0.0
H221 H 0.30669 0.78696 0.19912 0.0
C222 C 0.16097 0.82571 0.12749 0.0
C223 C 0.11297 0.7983 0.09572 0.0
C224 C 0.10671 0.76053 0.06308 0.0
C225 C 0.14528 0.74688 0.0633 0.0
C226 C 0.19003 0.77186 0.09628 0.0
C227 C 0.19928 0.81183 0.12726 0.0
C228 C 0.23899 0.82007 0.16321 0.0
C229 C 0.30521 0.89514 0.17063 0.0
C230 C 0.19391 0.78616 0.20193 0.0
C231 C 0.25243 0.7802 0.14773 0.0
C232 C 0.22267 0.75216 0.10915 0.0
C233 C 0.2191 0.70552 0.09065 0.0
C234 C 0.24839 0.68872 0.11125 0.0
C235 C 0.28191 0.71841 0.15037 0.0
C236 C 0.2831 0.76442 0.16908 0.0
H237 H 0.15091 0.0487 0.61076 0.0
H238 H 0.2464 0.18093 0.50282 0.0
H239 H 0.3586 0.24697 0.53315 0.0
H240 H 0.26861 0.17361 0.68827 0.0
H241 H 0.26838 0.11893 0.7167 0.0
H242 H 0.19485 0.08257 0.68729 0.0
H243 H 0.20007 0.00686 0.64756 0.0
H244 H 0.27371 0.04359 0.6772 0.0
H245 H 0.27709 0.04589 0.62112 0.0
H246 H 0.45841 0.30441 0.57657 0.0
H247 H 0.54504 0.34085 0.62636 0.0
H248 H 0.38965 0.16299 0.70186 0.0
C249 C 0.19558 0.09144 0.59357 0.0
C250 C 0.1901 0.1103 0.55469 0.0
C251 C 0.24944 0.16583 0.53272 0.0
C252 C 0.31339 0.20384 0.54975 0.0
C253 C 0.31716 0.18479 0.58834 0.0
C254 C 0.26024 0.12901 0.60961 0.0
C255 C 0.27959 0.11812 0.64962 0.0
C256 C 0.25109 0.12371 0.68772 0.0
C257 C 0.25625 0.04955 0.64879 0.0
C258 C 0.35621 0.17746 0.6478 0.0
C259 C 0.37619 0.21568 0.61242 0.0
C260 C 0.44359 0.27477 0.60426 0.0
C261 C 0.49223 0.29522 0.63282 0.0
C262 C 0.47362 0.25611 0.66867 0.0
C263 C 0.4048 0.19579 0.67603 0.0
H264 H 0.03784 0.14763 0.11659 0.0
H265 H 0.19793 0.24139 0.02628 0.0
H266 H 0.27232 0.34935 0.06609 0.0
H267 H 0.06377 0.28822 0.12522 0.0
H268 H 0.04326 0.27734 0.17981 0.0
H269 H 0.00713 0.205 0.14836 0.0
H270 H 0.05606 0.17741 0.19878 0.0
H271 H 0.09051 0.24926 0.2303 0.0
H272 H 0.14542 0.24319 0.21097 0.0
H273 H 0.32804 0.44824 0.11496 0.0
H274 H 0.35316 0.53464 0.16081 0.0
H275 H 0.15216 0.38011 0.2139 0.0
C276 C 0.089 0.19071 0.1057 0.0
C277 C 0.11265 0.18632 0.0687 0.0
C278 C 0.17911 0.24394 0.05465 0.0
C279 C 0.22186 0.30515 0.07729 0.0
C280 C 0.19699 0.30813 0.11362 0.0
C281 C 0.13165 0.25271 0.12733 0.0
C282 C 0.11412 0.27172 0.16398 0.0
C283 C 0.05351 0.25991 0.1537 0.0
C284 C 0.10071 0.23299 0.20332 0.0
C285 C 0.17913 0.34665 0.16824 0.0
C286 C 0.2272 0.36617 0.13988 0.0
C287 C 0.29098 0.43325 0.13756 0.0
C288 C 0.30511 0.48185 0.16401 0.0
C289 C 0.25526 0.46344 0.1917 0.0
C290 C 0.1918 0.3949 0.19399 0.0
H291 H 0.85687 0.21712 0.56666 0.0
H292 H 0.74417 0.04392 0.64894 0.0
H293 H 0.71161 0.08907 0.69222 0.0
H294 H 0.92157 0.34328 0.64892 0.0
H295 H 0.91363 0.38978 0.6176 0.0
H296 H 0.92957 0.34511 0.59308 0.0
H297 H 0.82351 0.27969 0.54685 0.0
H298 H 0.80709 0.32385 0.57152 0.0
H299 H 0.74264 0.2323 0.57104 0.0
H300 H 0.66858 0.13627 0.71357 0.0
H301 H 0.65291 0.20789 0.73518 0.0
H302 H 0.80836 0.36198 0.64743 0.0
C303 C 0.82603 0.1895 0.59412 0.0
C304 C 0.80205 0.12676 0.60458 0.0
C305 C 0.76219 0.0917 0.64057 0.0
C306 C 0.74337 0.11677 0.66511 0.0
C307 C 0.76585 0.17753 0.65348 0.0
C308 C 0.80806 0.21483 0.61973 0.0
C309 C 0.82549 0.27936 0.61509 0.0
C310 C 0.90214 0.34315 0.61894 0.0
C311 C 0.79806 0.27874 0.57367 0.0
C312 C 0.78706 0.27235 0.65189 0.0
C313 C 0.75084 0.21175 0.67223 0.0
C314 C 0.70164 0.1872 0.70163 0.0
C315 C 0.69276 0.22797 0.71328 0.0
C316 C 0.73341 0.29307 0.69576 0.0
C317 C 0.78004 0.31466 0.66377 0.0
H318 H 0.85544 0.98665 0.10746 0.0
H319 H 0.77611 0.82762 0.01861 0.0
H320 H 0.66232 0.75477 0.04828 0.0
H321 H 0.75634 0.86876 0.19256 0.0
H322 H 0.74039 0.91289 0.21803 0.0
H323 H 0.81639 0.95984 0.18782 0.0
H324 H 0.78766 0.01052 0.14236 0.0
H325 H 0.71244 0.96601 0.17297 0.0
H326 H 0.70614 0.95492 0.11724 0.0
H327 H 0.5603 0.69896 0.08532 0.0
H328 H 0.46947 0.65487 0.13311 0.0
H329 H 0.60951 0.84176 0.20561 0.0
C330 C 0.81345 0.93695 0.094 0.0
C331 C 0.82343 0.91339 0.05961 0.0
C332 C 0.7687 0.84703 0.04402 0.0
C333 C 0.70406 0.8053 0.06074 0.0
C334 C 0.69545 0.82943 0.09444 0.0
C335 C 0.7483 0.89292 0.11171 0.0
C336 C 0.72447 0.90218 0.15057 0.0
C337 C 0.76164 0.91145 0.18954 0.0
C338 C 0.73317 0.96195 0.14545 0.0
C339 C 0.64997 0.83431 0.15157 0.0
C340 C 0.63525 0.79404 0.11849 0.0
C341 C 0.57099 0.72958 0.11156 0.0
C342 C 0.51973 0.70502 0.13909 0.0
C343 C 0.53239 0.74448 0.17347 0.0
C344 C 0.59869 0.81007 0.18009 0.0
H345 H 0.83721 0.77899 0.5399 0.0
H346 H 0.02927 0.92304 0.60478 0.0
H347 H 0.98594 0.8348 0.65681 0.0
H348 H 0.72354 0.68123 0.62339 0.0
H349 H 0.67285 0.60048 0.5974 0.0
H350 H 0.71759 0.6762 0.56737 0.0
H351 H 0.77793 0.65373 0.52542 0.0
H352 H 0.7325 0.57727 0.55486 0.0
H353 H 0.82366 0.6416 0.55284 0.0
H354 H 0.91861 0.72889 0.70255 0.0
H355 H 0.84136 0.61212 0.731 0.0
H356 H 0.69883 0.53765 0.63155 0.0
C357 C 0.86989 0.79177 0.56517 0.0
C358 C 0.93588 0.85762 0.5691 0.0
C359 C 0.97825 0.87253 0.6017 0.0
C360 C 0.95397 0.82297 0.6314 0.0
C361 C 0.88817 0.7582 0.6269 0.0
C362 C 0.84763 0.74216 0.59381 0.0
C363 C 0.7821 0.66735 0.59309 0.0
C364 C 0.72039 0.65568 0.59549 0.0
C365 C 0.77887 0.63297 0.55427 0.0
C366 C 0.79013 0.64444 0.6323 0.0
C367 C 0.85155 0.69726 0.6515 0.0
C368 C 0.87037 0.68715 0.68772 0.0
C369 C 0.82602 0.62089 0.70392 0.0
C370 C 0.76396 0.56594 0.68373 0.0
C371 C 0.74576 0.5786 0.64792 0.0
H372 H 0.19992 0.88322 0.34769 0.0
H373 H 0.26398 0.90359 0.47415 0.0
H374 H 0.27874 0.82941 0.45738 0.0
H375 H 0.11633 0.71297 0.32841 0.0
H376 H 0.14821 0.7209 0.27849 0.0
H377 H 0.13421 0.77208 0.29191 0.0
H378 H 0.24952 0.88464 0.28048 0.0
H379 H 0.29189 0.86102 0.26616 0.0
H380 H 0.31991 0.91362 0.31007 0.0
H381 H 0.30635 0.77236 0.42316 0.0
H382 H 0.34022 0.73265 0.37698 0.0
H383 H 0.26282 0.75279 0.27039 0.0
C384 C 0.21311 0.86856 0.37238 0.0
C385 C 0.22862 0.89667 0.41245 0.0
C386 C 0.24992 0.88039 0.44359 0.0
C387 C 0.25865 0.83865 0.43422 0.0
C388 C 0.24615 0.8143 0.39356 0.0
C389 C 0.2231 0.82808 0.36338 0.0
C390 C 0.22464 0.8065 0.3208 0.0
C391 C 0.15194 0.75027 0.30365 0.0
C392 C 0.27372 0.86962 0.29253 0.0
C393 C 0.25289 0.77883 0.33106 0.0
C394 C 0.26446 0.78349 0.37337 0.0
C395 C 0.29576 0.76685 0.39017 0.0
C396 C 0.31508 0.74432 0.36325 0.0
C397 C 0.30354 0.73845 0.3196 0.0
C398 C 0.27164 0.75584 0.30343 0.0
H399 H 0.2427 0.15476 0.97805 0.0
H400 H 0.08565 0.021 0.88566 0.0
H401 H 0.17332 0.06737 0.83218 0.0
H402 H 0.37115 0.29562 0.91858 0.0
H403 H 0.43852 0.31013 0.94129 0.0
H404 H 0.36359 0.2688 0.97114 0.0
H405 H 0.34411 0.1655 0.98369 0.0
H406 H 0.41977 0.20709 0.95451 0.0
H407 H 0.34043 0.12306 0.93979 0.0
H408 H 0.28344 0.14016 0.78803 0.0
H409 H 0.40048 0.21087 0.76108 0.0
H410 H 0.47729 0.27681 0.88689 0.0
C411 C 0.22645 0.13385 0.94696 0.0
C412 C 0.15777 0.08556 0.93558 0.0
C413 C 0.13862 0.05984 0.8944 0.0
C414 C 0.18793 0.08557 0.86398 0.0
C415 C 0.25581 0.13456 0.87601 0.0
C416 C 0.27451 0.15618 0.91697 0.0
C417 C 0.34968 0.20442 0.92307 0.0
C418 C 0.38263 0.27384 0.93947 0.0
C419 C 0.36435 0.17314 0.95197 0.0
C420 C 0.37096 0.20909 0.8789 0.0
C421 C 0.31677 0.16944 0.85185 0.0
C422 C 0.32609 0.1697 0.80904 0.0
C423 C 0.39235 0.20967 0.79393 0.0
C424 C 0.44753 0.2469 0.82176 0.0
C425 C 0.43611 0.24725 0.86461 0.0
H426 H 0.10562 0.2424 0.47924 0.0
H427 H 0.06447 0.12017 0.37479 0.0
H428 H 0.1079 0.21132 0.32626 0.0
H429 H 0.05831 0.31881 0.42405 0.0
H430 H 0.12365 0.39949 0.44998 0.0
H431 H 0.08428 0.32203 0.476 0.0
H432 H 0.20236 0.36954 0.48763 0.0
H433 H 0.24191 0.44687 0.46162 0.0
H434 H 0.25674 0.39824 0.44348 0.0
H435 H 0.17607 0.32422 0.29153 0.0
H436 H 0.24828 0.44385 0.27254 0.0
H437 H 0.22684 0.48517 0.39711 0.0
C438 C 0.10516 0.23468 0.44617 0.0
C439 C 0.08583 0.17613 0.43067 0.0
C440 C 0.08408 0.16693 0.3872 0.0
C441 C 0.1071 0.21775 0.35942 0.0
C442 C 0.12966 0.27675 0.37569 0.0
C443 C 0.12717 0.28476 0.41794 0.0
C444 C 0.1566 0.35407 0.42742 0.0
C445 C 0.10245 0.34821 0.44542 0.0
C446 C 0.21803 0.39454 0.45675 0.0
C447 C 0.17781 0.38422 0.38415 0.0
C448 C 0.16223 0.33912 0.35471 0.0
C449 C 0.18551 0.35904 0.31381 0.0
C450 C 0.22564 0.42693 0.30285 0.0
C451 C 0.24043 0.47343 0.33215 0.0
C452 C 0.21518 0.45088 0.37324 0.0
H453 H 0.85371 0.18835 0.84168 0.0
H454 H 0.84833 0.20683 0.97485 0.0
H455 H 0.76855 0.21551 0.96541 0.0
H456 H 0.86855 0.30299 0.80884 0.0
H457 H 0.81019 0.26161 0.76569 0.0
H458 H 0.84503 0.23194 0.78272 0.0
H459 H 0.72618 0.11468 0.78868 0.0
H460 H 0.68121 0.13697 0.78119 0.0
H461 H 0.6694 0.09619 0.82797 0.0
H462 H 0.71784 0.25332 0.94079 0.0
H463 H 0.69357 0.30953 0.90413 0.0
H464 H 0.73997 0.27562 0.78663 0.0
C465 C 0.83255 0.19053 0.86878 0.0
C466 C 0.85586 0.19619 0.90892 0.0
C467 C 0.8295 0.20104 0.94399 0.0
C468 C 0.78433 0.20605 0.93882 0.0
C469 C 0.76557 0.20495 0.89846 0.0
C470 C 0.78741 0.19539 0.86407 0.0
C471 C 0.76648 0.20407 0.82406 0.0
C472 C 0.82613 0.25311 0.79359 0.0
C473 C 0.70763 0.13394 0.8042 0.0
C474 C 0.74148 0.2327 0.84108 0.0
C475 C 0.73688 0.22816 0.88403 0.0
C476 C 0.71961 0.25547 0.90714 0.0
C477 C 0.70705 0.2884 0.88593 0.0
C478 C 0.71357 0.29569 0.84199 0.0
C479 C 0.73076 0.26718 0.81949 0.0
H480 H 0.78478 0.84832 0.45849 0.0
H481 H 0.9301 0.04302 0.39637 0.0
H482 H 0.84155 0.00483 0.3469 0.0
H483 H 0.69977 0.74979 0.36345 0.0
H484 H 0.61719 0.68805 0.38732 0.0
H485 H 0.69187 0.7312 0.41808 0.0
H486 H 0.65779 0.77311 0.46957 0.0
H487 H 0.58232 0.72889 0.43965 0.0
H488 H 0.64025 0.81857 0.44992 0.0
H489 H 0.73421 0.9457 0.30572 0.0
H490 H 0.61662 0.87335 0.28039 0.0
H491 H 0.54514 0.71563 0.3663 0.0
C492 C 0.79735 0.88302 0.43484 0.0
C493 C 0.86354 0.94888 0.43148 0.0
C494 C 0.87916 0.9925 0.39948 0.0
C495 C 0.8294 0.9711 0.37113 0.0
C496 C 0.76459 0.90527 0.37462 0.0
C497 C 0.74859 0.8619 0.40569 0.0
C498 C 0.6755 0.79364 0.40257 0.0
C499 C 0.67081 0.73734 0.39224 0.0
C500 C 0.63669 0.77767 0.4428 0.0
C501 C 0.65204 0.80642 0.36623 0.0
C502 C 0.7042 0.87067 0.34997 0.0
C503 C 0.69312 0.89486 0.3178 0.0
C504 C 0.62645 0.85331 0.30316 0.0
C505 C 0.57222 0.78872 0.3209 0.0
C506 C 0.58597 0.76452 0.35173 0.0
H507 H 0.92489 0.87755 0.87817 0.0
H508 H 0.93315 0.81677 0.99932 0.0
H509 H 0.89806 0.71624 0.96773 0.0
H510 H 0.77806 0.7216 0.84532 0.0
H511 H 0.80113 0.72841 0.79159 0.0
H512 H 0.84188 0.80372 0.821 0.0
H513 H 0.95909 0.85318 0.80427 0.0
H514 H 0.91913 0.77793 0.77443 0.0
H515 H 0.976 0.80456 0.81631 0.0
H516 H 0.85294 0.61865 0.92621 0.0
H517 H 0.78153 0.51909 0.87998 0.0
H518 H 0.78961 0.63368 0.78592 0.0
C519 C 0.92066 0.84378 0.8978 0.0
C520 C 0.9321 0.85525 0.94123 0.0
C521 C 0.92486 0.80924 0.96603 0.0
C522 C 0.90565 0.75228 0.94827 0.0
C523 C 0.89388 0.74183 0.90556 0.0
C524 C 0.90044 0.78576 0.88056 0.0
C525 C 0.87612 0.7575 0.83658 0.0
C526 C 0.82089 0.75238 0.82286 0.0
C527 C 0.93615 0.80088 0.80608 0.0
C528 C 0.8486 0.68801 0.84202 0.0
C529 C 0.86341 0.68226 0.88148 0.0
C530 C 0.84178 0.62277 0.89511 0.0
C531 C 0.80132 0.56655 0.86857 0.0
C532 C 0.78091 0.56917 0.8293 0.0
C533 C 0.80629 0.63115 0.81522 0.0
loop_
_geom_bond_atom_site_label_1
_geom_bond_atom_site_label_2
_geom_bond_distance
_geom_bond_site_symmetry_2
_ccdc_geom_bond_type
C0 C2 1.422 . S
C0 C4 1.415 . S
C0 N6 1.363 1_665 S
C1 C2 1.421 . S
C1 C3 1.417 . S
C1 C13 1.422 . S
C2 C0 1.422 . S
C2 C1 1.421 . S
C2 N12 1.359 . S
C3 C1 1.417 . S
C3 C5 1.329 . S
C3 H22 0.930 . S
C4 C0 1.415 . S
C4 C5 1.437 . S
C4 C8 1.413 1_665 S
C5 C3 1.329 . S
C5 C4 1.437 . S
C5 H27 0.929 . S
N6 C0 1.363 1_445 S
N6 C7 1.349 . S
N6 Gd11 2.618 1_455 S
C7 N6 1.349 . S
C7 C9 1.378 . S
C7 H19 0.929 . S
C8 C4 1.413 1_445 S
C8 C9 1.348 . S
C8 H24 0.938 . S
C9 C7 1.378 . S
C9 C8 1.348 . S
C9 H25 0.930 . S
Gd10 N30 2.622 . S
Gd10 N37 2.570 1_565 S
Gd10 O44 2.353 1_454 S
Gd10 O45 2.468 . S
Gd10 O46 2.427 . S
Gd10 O48 2.388 1_455 S
Gd10 O49 2.386 1_565 S
Gd10 O53 2.307 1_564 S
Gd10 C63 2.805 . S
Gd11 N6 2.618 1_655 S
Gd11 N12 2.570 1_545 S
Gd11 O43 2.386 1_545 S
Gd11 O47 2.307 1_546 S
Gd11 O50 2.353 1_656 S
Gd11 O51 2.468 . S
Gd11 O52 2.427 1_655 S
Gd11 O54 2.388 1_655 S
Gd11 C75 2.805 . S
N12 C2 1.359 . S
N12 Gd11 2.570 1_565 S
N12 C14 1.343 . S
C13 C1 1.422 . S
C13 C15 1.321 . S
C13 H21 0.931 . S
C14 N12 1.343 . S
C14 C15 1.390 . S
C14 H16 0.931 . S
C15 C13 1.321 . S
C15 C14 1.390 . S
C15 H17 0.930 . S
H16 C14 0.931 . S
H17 C15 0.930 . S
H18 C41 0.931 . S
H19 C7 0.929 . S
H20 C42 0.930 . S
H21 C13 0.931 . S
H22 C3 0.930 . S
H23 C32 0.929 . S
H24 C8 0.938 . S
H25 C9 0.930 . S
H26 C64 0.930 . S
H27 C5 0.929 . S
H28 C33 0.931 . S
H29 C34 0.930 . S
N30 Gd10 2.622 . S
N30 C31 1.369 1_565 S
N30 C32 1.338 1_455 S
C31 N30 1.369 1_545 S
C31 C35 1.415 . S
C31 C38 1.422 . S
C32 H23 0.929 . S
C32 N30 1.338 1_655 S
C32 C34 1.378 . S
C33 H28 0.931 . S
C33 C34 1.348 1_545 S
C33 C35 1.413 1_655 S
C34 H29 0.930 . S
C34 C32 1.378 . S
C34 C33 1.348 1_565 S
C35 C31 1.415 . S
C35 C33 1.413 1_455 S
C35 C65 1.437 . S
H36 C65 0.929 . S
N37 Gd10 2.570 1_545 S
N37 C38 1.359 . S
N37 C41 1.343 . S
C38 C31 1.422 . S
C38 N37 1.359 . S
C38 C40 1.421 . S
C39 C40 1.422 . S
C39 C42 1.321 . S
C39 H66 0.931 . S
C40 C38 1.421 . S
C40 C39 1.422 . S
C40 C64 1.417 . S
C41 H18 0.931 . S
C41 N37 1.343 . S
C41 C42 1.390 . S
C42 H20 0.930 . S
C42 C39 1.321 . S
C42 C41 1.390 . S
O43 Gd11 2.386 1_565 S
O43 C55 1.265 . S
O44 Gd10 2.353 1_656 S
O44 C55 1.242 . S
O45 Gd10 2.468 . S
O45 C63 1.263 . S
O46 Gd10 2.427 . S
O46 C63 1.252 . S
O47 Gd11 2.307 1_564 S
O47 C56 1.261 . S
O48 Gd10 2.388 1_655 S
O48 C56 1.252 . S
O49 Gd10 2.386 1_545 S
O49 C67 1.265 . S
O50 Gd11 2.353 1_454 S
O50 C67 1.242 . S
O51 Gd11 2.468 . S
O51 C75 1.263 . S
O52 Gd11 2.427 1_455 S
O52 C75 1.252 1_455 S
O53 Gd10 2.307 1_546 S
O53 C68 1.261 . S
O54 Gd11 2.388 1_455 S
O54 C68 1.252 . S
C55 O43 1.265 . S
C55 O44 1.242 . S
C56 O47 1.261 . S
C56 O48 1.252 . S
C57 C60 1.394 . S
C57 C62 1.370 . S
C57 C63 1.500 . S
C58 C61 1.383 . S
C58 C62 1.395 . S
C59 C60 1.396 . S
C59 C61 1.365 . S
C59 H76 0.929 . S
C60 C57 1.394 . S
C60 C59 1.396 . S
C60 H77 0.930 1_455 S
C61 C58 1.383 . S
C61 C59 1.365 . S
C61 H78 0.931 . S
C62 C57 1.370 . S
C62 C58 1.395 . S
C62 H79 0.930 . S
C63 Gd10 2.805 . S
C63 O45 1.263 . S
C63 O46 1.252 . S
C63 C57 1.500 . S
C64 H26 0.930 . S
C64 C40 1.417 . S
C64 C65 1.329 . S
C65 C35 1.437 . S
C65 H36 0.929 . S
C65 C64 1.329 . S
H66 C39 0.931 . S
C67 O49 1.265 . S
C67 O50 1.242 . S
C68 O53 1.261 . S
C68 O54 1.252 . S
C69 C72 1.394 . S
C69 C74 1.370 . S
C69 C75 1.500 . S
C70 C73 1.383 . S
C70 C74 1.395 . S
C71 C72 1.396 . S
C71 C73 1.365 . S
C71 H80 0.929 1_655 S
C72 C69 1.394 . S
C72 C71 1.396 . S
C72 H81 0.930 1_655 S
C73 C70 1.383 . S
C73 C71 1.365 . S
C73 H82 0.931 . S
C74 C69 1.370 . S
C74 C70 1.395 . S
C74 H83 0.930 . S
C75 Gd11 2.805 . S
C75 O51 1.263 . S
C75 O52 1.252 1_655 S
C75 C69 1.500 . S
H76 C59 0.929 . S
H77 C60 0.930 1_655 S
H78 C61 0.931 . S
H79 C62 0.930 . S
H80 C71 0.929 1_455 S
H81 C72 0.930 1_455 S
H82 C73 0.931 . S
H83 C74 0.930 . S
C84 C86 1.422 . S
C84 C88 1.415 . S
C84 N90 1.371 . S
C85 C86 1.421 . S
C85 C87 1.417 . S
C85 C97 1.422 . S
C86 C84 1.422 . S
C86 C85 1.421 . S
C86 N96 1.359 . S
C87 C85 1.417 . S
C87 C89 1.329 . S
C87 H106 0.930 . S
C88 C84 1.415 . S
C88 C89 1.437 . S
C88 C92 1.413 . S
C89 C87 1.329 . S
C89 C88 1.437 . S
C89 H111 0.929 . S
N90 C84 1.371 . S
N90 C91 1.338 1_445 S
N90 Gd95 2.620 1_455 S
C91 N90 1.338 1_665 S
C91 C93 1.378 . S
C91 H103 0.929 . S
C92 C88 1.413 . S
C92 C93 1.348 1_445 S
C92 H108 0.931 . S
C93 C91 1.378 . S
C93 C92 1.348 1_665 S
C93 H109 0.930 . S
Gd94 N114 2.622 1_565 S
Gd94 N121 2.570 1_455 S
Gd94 O128 2.353 1_565 S
Gd94 O129 2.468 . S
Gd94 O130 2.427 1_565 S
Gd94 O132 2.388 1_565 S
Gd94 O133 2.386 1_455 S
Gd94 O137 2.307 1_455 S
Gd94 C147 2.805 . S
Gd95 N90 2.620 1_655 S
Gd95 N96 2.570 1_655 S
Gd95 O127 2.386 1_655 S
Gd95 O131 2.307 1_655 S
Gd95 O134 2.353 1_545 S
Gd95 O135 2.468 . S
Gd95 O136 2.427 . S
Gd95 O138 2.388 1_545 S
Gd95 C159 2.805 . S
N96 C86 1.359 . S
N96 Gd95 2.570 1_455 S
N96 C98 1.343 . S
C97 C85 1.422 . S
C97 C99 1.321 . S
C97 H105 0.931 . S
C98 N96 1.343 . S
C98 C99 1.390 . S
C98 H100 0.931 . S
C99 C97 1.321 . S
C99 C98 1.390 . S
C99 H101 0.930 . S
H100 C98 0.931 . S
H101 C99 0.930 . S
H102 C125 0.931 . S
H103 C91 0.929 . S
H104 C126 0.930 . S
H105 C97 0.931 . S
H106 C87 0.930 . S
H107 C116 0.929 . S
H108 C92 0.931 . S
H109 C93 0.930 . S
H110 C148 0.930 . S
H111 C89 0.929 . S
H112 C117 0.931 . S
H113 C118 0.930 . S
N114 Gd94 2.622 1_545 S
N114 C115 1.369 1_445 S
N114 C116 1.338 . S
C115 N114 1.369 1_665 S
C115 C119 1.415 . S
C115 C122 1.422 . S
C116 H107 0.929 . S
C116 N114 1.338 . S
C116 C118 1.378 . S
C117 H112 0.931 . S
C117 C118 1.348 . S
C117 C119 1.413 1_445 S
C118 H113 0.930 . S
C118 C116 1.378 . S
C118 C117 1.348 . S
C119 C115 1.415 . S
C119 C117 1.413 1_665 S
C119 C149 1.437 . S
H120 C149 0.929 . S
N121 Gd94 2.570 1_655 S
N121 C122 1.359 . S
N121 C125 1.343 . S
C122 C115 1.422 . S
C122 N121 1.359 . S
C122 C124 1.421 . S
C123 C124 1.422 . S
C123 C126 1.321 . S
C123 H150 0.931 . S
C124 C122 1.421 . S
C124 C123 1.422 . S
C124 C148 1.417 . S
C125 H102 0.931 . S
C125 N121 1.343 . S
C125 C126 1.390 . S
C126 H104 0.930 . S
C126 C123 1.321 . S
C126 C125 1.390 . S
O127 Gd95 2.386 1_455 S
O127 C139 1.265 . S
O128 Gd94 2.353 1_545 S
O128 C139 1.242 . S
O129 Gd94 2.468 . S
O129 C147 1.263 . S
O130 Gd94 2.427 1_545 S
O130 C147 1.252 1_545 S
O131 Gd95 2.307 1_455 S
O131 C140 1.261 . S
O132 Gd94 2.388 1_545 S
O132 C140 1.252 . S
O133 Gd94 2.386 1_655 S
O133 C151 1.265 . S
O134 Gd95 2.353 1_565 S
O134 C151 1.242 . S
O135 Gd95 2.468 . S
O135 C159 1.263 . S
O136 Gd95 2.427 . S
O136 C159 1.252 . S
O137 Gd94 2.307 1_655 S
O137 C152 1.261 . S
O138 Gd95 2.388 1_565 S
O138 C152 1.252 . S
C139 O127 1.265 . S
C139 O128 1.242 . S
C140 O131 1.261 . S
C140 O132 1.252 . S
C141 C144 1.394 1_565 S
C141 C146 1.370 . S
C141 C147 1.500 . S
C142 C145 1.383 . S
C142 C146 1.395 . S
C143 C144 1.396 1_565 S
C143 C145 1.365 . S
C143 H160 0.929 1_565 S
C144 C141 1.394 1_545 S
C144 C143 1.396 1_545 S
C144 H161 0.930 . S
C145 C142 1.383 . S
C145 C143 1.365 . S
C145 H162 0.931 . S
C146 C141 1.370 . S
C146 C142 1.395 . S
C146 H163 0.930 . S
C147 Gd94 2.805 . S
C147 O129 1.263 . S
C147 O130 1.252 1_565 S
C147 C141 1.500 . S
C148 H110 0.930 . S
C148 C124 1.417 . S
C148 C149 1.329 . S
C149 C119 1.437 . S
C149 H120 0.929 . S
C149 C148 1.329 . S
H150 C123 0.931 . S
C151 O133 1.265 . S
C151 O134 1.242 . S
C152 O137 1.261 . S
C152 O138 1.252 . S
C153 C156 1.394 . S
C153 C158 1.370 . S
C153 C159 1.500 . S
C154 C157 1.383 . S
C154 C158 1.395 . S
C155 C156 1.396 . S
C155 C157 1.365 . S
C155 H164 0.929 . S
C156 C153 1.394 . S
C156 C155 1.396 . S
C156 H165 0.930 . S
C157 C154 1.383 . S
C157 C155 1.365 . S
C157 H166 0.931 . S
C158 C153 1.370 . S
C158 C154 1.395 . S
C158 H167 0.930 . S
C159 Gd95 2.805 . S
C159 O135 1.263 . S
C159 O136 1.252 . S
C159 C153 1.500 . S
H160 C143 0.929 1_545 S
H161 C144 0.930 . S
H162 C145 0.931 . S
H163 C146 0.930 . S
H164 C155 0.929 . S
H165 C156 0.930 . S
H166 C157 0.931 . S
H167 C158 0.930 . S
Zn168 O174 1.920 . S
Zn168 O180 1.898 . S
Zn168 O183 1.905 . S
Zn169 O177 1.905 . S
Zn169 O178 1.898 . S
Zn169 O186 1.920 . S
Zn170 O173 2.080 . S
Zn170 O176 2.114 . S
Zn170 O179 2.120 . S
Zn170 O181 2.120 . S
Zn170 O182 2.114 . S
Zn170 O185 2.080 . S
C171 O176 1.166 . S
C171 O177 1.182 . S
C172 O178 1.167 . S
C172 O179 1.299 . S
O173 Zn170 2.080 . S
O173 C187 1.305 . S
O174 Zn168 1.920 . S
O174 C187 1.234 . S
C175 O180 1.167 . S
C175 O181 1.299 . S
O176 Zn170 2.114 . S
O176 C171 1.166 . S
O177 Zn169 1.905 . S
O177 C171 1.182 . S
O178 Zn169 1.898 . S
O178 C172 1.167 . S
O179 Zn170 2.120 . S
O179 C172 1.299 . S
O180 Zn168 1.898 . S
O180 C175 1.167 . S
O181 Zn170 2.120 . S
O181 C175 1.299 . S
O182 Zn170 2.114 . S
O182 C184 1.166 . S
O183 Zn168 1.905 . S
O183 C184 1.182 . S
C184 O182 1.166 . S
C184 O183 1.182 . S
O185 Zn170 2.080 . S
O185 C188 1.305 . S
O186 Zn169 1.920 . S
O186 C188 1.234 . S
C187 O173 1.305 . S
C187 O174 1.234 . S
C188 O185 1.305 . S
C188 O186 1.234 . S
Zn189 O195 1.920 . S
Zn189 O201 1.898 . S
Zn189 O204 1.905 . S
Zn190 O198 1.905 . S
Zn190 O199 1.898 . S
Zn190 O207 1.920 . S
Zn191 O194 2.080 . S
Zn191 O197 2.114 . S
Zn191 O200 2.120 . S
Zn191 O202 2.120 . S
Zn191 O203 2.114 . S
Zn191 O206 2.080 . S
C192 O197 1.166 . S
C192 O198 1.182 . S
C193 O199 1.167 . S
C193 O200 1.299 . S
O194 Zn191 2.080 . S
O194 C208 1.305 . S
O195 Zn189 1.920 . S
O195 C208 1.234 . S
C196 O201 1.167 . S
C196 O202 1.299 . S
O197 Zn191 2.114 . S
O197 C192 1.166 . S
O198 Zn190 1.905 . S
O198 C192 1.182 . S
O199 Zn190 1.898 . S
O199 C193 1.167 . S
O200 Zn191 2.120 . S
O200 C193 1.299 . S
O201 Zn189 1.898 . S
O201 C196 1.167 . S
O202 Zn191 2.120 . S
O202 C196 1.299 . S
O203 Zn191 2.114 . S
O203 C205 1.166 . S
O204 Zn189 1.905 . S
O204 C205 1.182 . S
C205 O203 1.166 . S
C205 O204 1.182 . S
O206 Zn191 2.080 . S
O206 C209 1.305 . S
O207 Zn190 1.920 . S
O207 C209 1.234 . S
C208 O194 1.305 . S
C208 O195 1.234 . S
C209 O206 1.305 . S
C209 O207 1.234 . S
H210 C222 0.930 . S
H211 C224 0.930 . S
H212 C225 0.930 . S
H213 C229 0.959 . S
H214 C229 0.959 . S
H215 C229 0.961 . S
H216 C230 0.960 . S
H217 C230 0.961 . S
H218 C230 0.959 . S
H219 C233 0.929 . S
H220 C234 0.931 . S
H221 C236 0.930 . S
C222 H210 0.930 . S
C222 C223 1.399 . S
C222 C227 1.399 . S
C223 C222 1.399 . S
C223 C224 1.376 . S
C224 H211 0.930 . S
C224 C223 1.376 . S
C224 C225 1.388 . S
C225 H212 0.930 . S
C225 C224 1.388 . S
C225 C226 1.390 . S
C226 C225 1.390 . S
C226 C227 1.394 . S
C226 C232 1.465 . S
C227 C222 1.399 . S
C227 C226 1.394 . S
C227 C228 1.516 . S
C228 C227 1.516 . S
C228 C229 1.502 . S
C228 C230 1.561 . S
C228 C231 1.526 . S
C229 H213 0.959 . S
C229 H214 0.959 . S
C229 H215 0.961 . S
C229 C228 1.502 . S
C230 H216 0.960 . S
C230 H217 0.961 . S
C230 H218 0.959 . S
C230 C228 1.561 . S
C231 C228 1.526 . S
C231 C232 1.396 . S
C231 C236 1.390 . S
C232 C226 1.465 . S
C232 C231 1.396 . S
C232 C233 1.399 . S
C233 H219 0.929 . S
C233 C232 1.399 . S
C233 C234 1.385 . S
C234 H220 0.931 . S
C234 C233 1.385 . S
C234 C235 1.389 . S
C235 C234 1.389 . S
C235 C236 1.387 . S
C236 H221 0.930 . S
C236 C231 1.390 . S
C236 C235 1.387 . S
H237 C249 0.930 . S
H238 C251 0.930 . S
H239 C252 0.930 . S
H240 C256 0.959 . S
H241 C256 0.959 . S
H242 C256 0.961 . S
H243 C257 0.960 . S
H244 C257 0.961 . S
H245 C257 0.959 . S
H246 C260 0.929 . S
H247 C261 0.931 . S
H248 C263 0.930 . S
C249 H237 0.930 . S
C249 C250 1.399 . S
C249 C254 1.399 . S
C250 C249 1.399 . S
C250 C251 1.376 . S
C251 H238 0.930 . S
C251 C250 1.376 . S
C251 C252 1.388 . S
C252 H239 0.930 . S
C252 C251 1.388 . S
C252 C253 1.390 . S
C253 C252 1.390 . S
C253 C254 1.394 . S
C253 C259 1.465 . S
C254 C249 1.399 . S
C254 C253 1.394 . S
C254 C255 1.516 . S
C255 C254 1.516 . S
C255 C256 1.502 . S
C255 C257 1.561 . S
C255 C258 1.526 . S
C256 H240 0.959 . S
C256 H241 0.959 . S
C256 H242 0.961 . S
C256 C255 1.502 . S
C257 H243 0.960 . S
C257 H244 0.961 . S
C257 H245 0.959 . S
C257 C255 1.561 . S
C258 C255 1.526 . S
C258 C259 1.396 . S
C258 C263 1.390 . S
C259 C253 1.465 . S
C259 C258 1.396 . S
C259 C260 1.399 . S
C260 H246 0.929 . S
C260 C259 1.399 . S
C260 C261 1.385 . S
C261 H247 0.931 . S
C261 C260 1.385 . S
C261 C262 1.389 . S
C262 C261 1.389 . S
C262 C263 1.387 . S
C263 H248 0.930 . S
C263 C258 1.390 . S
C263 C262 1.387 . S
H264 C276 0.930 . S
H265 C278 0.930 . S
H266 C279 0.930 . S
H267 C283 0.959 . S
H268 C283 0.959 . S
H269 C283 0.961 . S
H270 C284 0.960 . S
H271 C284 0.961 . S
H272 C284 0.959 . S
H273 C287 0.929 . S
H274 C288 0.931 . S
H275 C290 0.930 . S
C276 H264 0.930 . S
C276 C277 1.399 . S
C276 C281 1.399 . S
C277 C276 1.399 . S
C277 C278 1.376 . S
C278 H265 0.930 . S
C278 C277 1.376 . S
C278 C279 1.388 . S
C279 H266 0.930 . S
C279 C278 1.388 . S
C279 C280 1.390 . S
C280 C279 1.390 . S
C280 C281 1.394 . S
C280 C286 1.465 . S
C281 C276 1.399 . S
C281 C280 1.394 . S
C281 C282 1.516 . S
C282 C281 1.516 . S
C282 C283 1.502 . S
C282 C284 1.561 . S
C282 C285 1.526 . S
C283 H267 0.959 . S
C283 H268 0.959 . S
C283 H269 0.961 . S
C283 C282 1.502 . S
C284 H270 0.960 . S
C284 H271 0.961 . S
C284 H272 0.959 . S
C284 C282 1.561 . S
C285 C282 1.526 . S
C285 C286 1.396 . S
C285 C290 1.390 . S
C286 C280 1.465 . S
C286 C285 1.396 . S
C286 C287 1.399 . S
C287 H273 0.929 . S
C287 C286 1.399 . S
C287 C288 1.385 . S
C288 H274 0.931 . S
C288 C287 1.385 . S
C288 C289 1.389 . S
C289 C288 1.389 . S
C289 C290 1.387 . S
C290 H275 0.930 . S
C290 C285 1.390 . S
C290 C289 1.387 . S
H291 C303 0.930 . S
H292 C305 0.930 . S
H293 C306 0.930 . S
H294 C310 0.959 . S
H295 C310 0.959 . S
H296 C310 0.961 . S
H297 C311 0.960 . S
H298 C311 0.961 . S
H299 C311 0.959 . S
H300 C314 0.929 . S
H301 C315 0.931 . S
H302 C317 0.930 . S
C303 H291 0.930 . S
C303 C304 1.399 . S
C303 C308 1.399 . S
C304 C303 1.399 . S
C304 C305 1.376 . S
C305 H292 0.930 . S
C305 C304 1.376 . S
C305 C306 1.388 . S
C306 H293 0.930 . S
C306 C305 1.388 . S
C306 C307 1.390 . S
C307 C306 1.390 . S
C307 C308 1.394 . S
C307 C313 1.465 . S
C308 C303 1.399 . S
C308 C307 1.394 . S
C308 C309 1.516 . S
C309 C308 1.516 . S
C309 C310 1.502 . S
C309 C311 1.561 . S
C309 C312 1.526 . S
C310 H294 0.959 . S
C310 H295 0.959 . S
C310 H296 0.961 . S
C310 C309 1.502 . S
C311 H297 0.960 . S
C311 H298 0.961 . S
C311 H299 0.959 . S
C311 C309 1.561 . S
C312 C309 1.526 . S
C312 C313 1.396 . S
C312 C317 1.390 . S
C313 C307 1.465 . S
C313 C312 1.396 . S
C313 C314 1.399 . S
C314 H300 0.929 . S
C314 C313 1.399 . S
C314 C315 1.385 . S
C315 H301 0.931 . S
C315 C314 1.385 . S
C315 C316 1.389 . S
C316 C315 1.389 . S
C316 C317 1.387 . S
C317 H302 0.930 . S
C317 C312 1.390 . S
C317 C316 1.387 . S
H318 C330 0.930 . S
H319 C332 0.930 . S
H320 C333 0.930 . S
H321 C337 0.959 . S
H322 C337 0.959 . S
H323 C337 0.961 . S
H324 C338 0.960 1_545 S
H325 C338 0.961 . S
H326 C338 0.959 . S
H327 C341 0.929 . S
H328 C342 0.931 . S
H329 C344 0.930 . S
C330 H318 0.930 . S
C330 C331 1.399 . S
C330 C335 1.399 . S
C331 C330 1.399 . S
C331 C332 1.376 . S
C332 H319 0.930 . S
C332 C331 1.376 . S
C332 C333 1.388 . S
C333 H320 0.930 . S
C333 C332 1.388 . S
C333 C334 1.390 . S
C334 C333 1.390 . S
C334 C335 1.394 . S
C334 C340 1.465 . S
C335 C330 1.399 . S
C335 C334 1.394 . S
C335 C336 1.516 . S
C336 C335 1.516 . S
C336 C337 1.502 . S
C336 C338 1.561 . S
C336 C339 1.526 . S
C337 H321 0.959 . S
C337 H322 0.959 . S
C337 H323 0.961 . S
C337 C336 1.502 . S
C338 H324 0.960 1_565 S
C338 H325 0.961 . S
C338 H326 0.959 . S
C338 C336 1.561 . S
C339 C336 1.526 . S
C339 C340 1.396 . S
C339 C344 1.390 . S
C340 C334 1.465 . S
C340 C339 1.396 . S
C340 C341 1.399 . S
C341 H327 0.929 . S
C341 C340 1.399 . S
C341 C342 1.385 . S
C342 H328 0.931 . S
C342 C341 1.385 . S
C342 C343 1.389 . S
C343 C342 1.389 . S
C343 C344 1.387 . S
C344 H329 0.930 . S
C344 C339 1.390 . S
C344 C343 1.387 . S
H345 C357 0.930 . S
H346 C359 0.930 . S
H347 C360 0.930 . S
H348 C364 0.959 . S
H349 C364 0.959 . S
H350 C364 0.961 . S
H351 C365 0.960 . S
H352 C365 0.961 . S
H353 C365 0.959 . S
H354 C368 0.929 . S
H355 C369 0.931 . S
H356 C371 0.930 . S
C357 H345 0.930 . S
C357 C358 1.399 . S
C357 C362 1.399 . S
C358 C357 1.399 . S
C358 C359 1.376 . S
C359 H346 0.930 . S
C359 C358 1.376 . S
C359 C360 1.388 . S
C360 H347 0.930 . S
C360 C359 1.388 . S
C360 C361 1.390 . S
C361 C360 1.390 . S
C361 C362 1.394 . S
C361 C367 1.465 . S
C362 C357 1.399 . S
C362 C361 1.394 . S
C362 C363 1.516 . S
C363 C362 1.516 . S
C363 C364 1.502 . S
C363 C365 1.561 . S
C363 C366 1.526 . S
C364 H348 0.959 . S
C364 H349 0.959 . S
C364 H350 0.961 . S
C364 C363 1.502 . S
C365 H351 0.960 . S
C365 H352 0.961 . S
C365 H353 0.959 . S
C365 C363 1.561 . S
C366 C363 1.526 . S
C366 C367 1.396 . S
C366 C371 1.390 . S
C367 C361 1.465 . S
C367 C366 1.396 . S
C367 C368 1.399 . S
C368 H354 0.929 . S
C368 C367 1.399 . S
C368 C369 1.385 . S
C369 H355 0.931 . S
C369 C368 1.385 . S
C369 C370 1.389 . S
C370 C369 1.389 . S
C370 C371 1.387 . S
C371 H356 0.930 . S
C371 C366 1.390 . S
C371 C370 1.387 . S
H372 C384 0.930 . S
H373 C386 0.930 . S
H374 C387 0.930 . S
H375 C391 0.959 . S
H376 C391 0.959 . S
H377 C391 0.961 . S
H378 C392 0.960 . S
H379 C392 0.961 . S
H380 C392 0.959 . S
H381 C395 0.929 . S
H382 C396 0.931 . S
H383 C398 0.930 . S
C384 H372 0.930 . S
C384 C385 1.399 . S
C384 C389 1.399 . S
C385 C384 1.399 . S
C385 C386 1.376 . S
C386 H373 0.930 . S
C386 C385 1.376 . S
C386 C387 1.388 . S
C387 H374 0.930 . S
C387 C386 1.388 . S
C387 C388 1.390 . S
C388 C387 1.390 . S
C388 C389 1.394 . S
C388 C394 1.465 . S
C389 C384 1.399 . S
C389 C388 1.394 . S
C389 C390 1.516 . S
C390 C389 1.516 . S
C390 C391 1.502 . S
C390 C392 1.561 . S
C390 C393 1.526 . S
C391 H375 0.959 . S
C391 H376 0.959 . S
C391 H377 0.961 . S
C391 C390 1.502 . S
C392 H378 0.960 . S
C392 H379 0.961 . S
C392 H380 0.959 . S
C392 C390 1.561 . S
C393 C390 1.526 . S
C393 C394 1.396 . S
C393 C398 1.390 . S
C394 C388 1.465 . S
C394 C393 1.396 . S
C394 C395 1.399 . S
C395 H381 0.929 . S
C395 C394 1.399 . S
C395 C396 1.385 . S
C396 H382 0.931 . S
C396 C395 1.385 . S
C396 C397 1.389 . S
C397 C396 1.389 . S
C397 C398 1.387 . S
C398 H383 0.930 . S
C398 C393 1.390 . S
C398 C397 1.387 . S
H399 C411 0.930 . S
H400 C413 0.930 . S
H401 C414 0.930 . S
H402 C418 0.959 . S
H403 C418 0.959 . S
H404 C418 0.961 . S
H405 C419 0.960 . S
H406 C419 0.961 . S
H407 C419 0.959 . S
H408 C422 0.929 . S
H409 C423 0.931 . S
H410 C425 0.930 . S
C411 H399 0.930 . S
C411 C412 1.399 . S
C411 C416 1.399 . S
C412 C411 1.399 . S
C412 C413 1.376 . S
C413 H400 0.930 . S
C413 C412 1.376 . S
C413 C414 1.388 . S
C414 H401 0.930 . S
C414 C413 1.388 . S
C414 C415 1.390 . S
C415 C414 1.390 . S
C415 C416 1.394 . S
C415 C421 1.465 . S
C416 C411 1.399 . S
C416 C415 1.394 . S
C416 C417 1.516 . S
C417 C416 1.516 . S
C417 C418 1.502 . S
C417 C419 1.561 . S
C417 C420 1.526 . S
C418 H402 0.959 . S
C418 H403 0.959 . S
C418 H404 0.961 . S
C418 C417 1.502 . S
C419 H405 0.960 . S
C419 H406 0.961 . S
C419 H407 0.959 . S
C419 C417 1.561 . S
C420 C417 1.526 . S
C420 C421 1.396 . S
C420 C425 1.390 . S
C421 C415 1.465 . S
C421 C420 1.396 . S
C421 C422 1.399 . S
C422 H408 0.929 . S
C422 C421 1.399 . S
C422 C423 1.385 . S
C423 H409 0.931 . S
C423 C422 1.385 . S
C423 C424 1.389 . S
C424 C423 1.389 . S
C424 C425 1.387 . S
C425 H410 0.930 . S
C425 C420 1.390 . S
C425 C424 1.387 . S
H426 C438 0.930 . S
H427 C440 0.930 . S
H428 C441 0.930 . S
H429 C445 0.959 . S
H430 C445 0.959 . S
H431 C445 0.961 . S
H432 C446 0.960 . S
H433 C446 0.961 . S
H434 C446 0.959 . S
H435 C449 0.929 . S
H436 C450 0.931 . S
H437 C452 0.930 . S
C438 H426 0.930 . S
C438 C439 1.399 . S
C438 C443 1.399 . S
C439 C438 1.399 . S
C439 C440 1.376 . S
C440 H427 0.930 . S
C440 C439 1.376 . S
C440 C441 1.388 . S
C441 H428 0.930 . S
C441 C440 1.388 . S
C441 C442 1.390 . S
C442 C441 1.390 . S
C442 C443 1.394 . S
C442 C448 1.465 . S
C443 C438 1.399 . S
C443 C442 1.394 . S
C443 C444 1.516 . S
C444 C443 1.516 . S
C444 C445 1.502 . S
C444 C446 1.561 . S
C444 C447 1.526 . S
C445 H429 0.959 . S
C445 H430 0.959 . S
C445 H431 0.961 . S
C445 C444 1.502 . S
C446 H432 0.960 . S
C446 H433 0.961 . S
C446 H434 0.959 . S
C446 C444 1.561 . S
C447 C444 1.526 . S
C447 C448 1.396 . S
C447 C452 1.390 . S
C448 C442 1.465 . S
C448 C447 1.396 . S
C448 C449 1.399 . S
C449 H435 0.929 . S
C449 C448 1.399 . S
C449 C450 1.385 . S
C450 H436 0.931 . S
C450 C449 1.385 . S
C450 C451 1.389 . S
C451 C450 1.389 . S
C451 C452 1.387 . S
C452 H437 0.930 . S
C452 C447 1.390 . S
C452 C451 1.387 . S
H453 C465 0.930 . S
H454 C467 0.930 . S
H455 C468 0.930 . S
H456 C472 0.959 . S
H457 C472 0.959 . S
H458 C472 0.961 . S
H459 C473 0.960 . S
H460 C473 0.961 . S
H461 C473 0.959 . S
H462 C476 0.929 . S
H463 C477 0.931 . S
H464 C479 0.930 . S
C465 H453 0.930 . S
C465 C466 1.399 . S
C465 C470 1.399 . S
C466 C465 1.399 . S
C466 C467 1.376 . S
C467 H454 0.930 . S
C467 C466 1.376 . S
C467 C468 1.388 . S
C468 H455 0.930 . S
C468 C467 1.388 . S
C468 C469 1.390 . S
C469 C468 1.390 . S
C469 C470 1.394 . S
C469 C475 1.465 . S
C470 C465 1.399 . S
C470 C469 1.394 . S
C470 C471 1.516 . S
C471 C470 1.516 . S
C471 C472 1.502 . S
C471 C473 1.561 . S
C471 C474 1.526 . S
C472 H456 0.959 . S
C472 H457 0.959 . S
C472 H458 0.961 . S
C472 C471 1.502 . S
C473 H459 0.960 . S
C473 H460 0.961 . S
C473 H461 0.959 . S
C473 C471 1.561 . S
C474 C471 1.526 . S
C474 C475 1.396 . S
C474 C479 1.390 . S
C475 C469 1.465 . S
C475 C474 1.396 . S
C475 C476 1.399 . S
C476 H462 0.929 . S
C476 C475 1.399 . S
C476 C477 1.385 . S
C477 H463 0.931 . S
C477 C476 1.385 . S
C477 C478 1.389 . S
C478 C477 1.389 . S
C478 C479 1.387 . S
C479 H464 0.930 . S
C479 C474 1.390 . S
C479 C478 1.387 . S
H480 C492 0.930 . S
H481 C494 0.930 1_545 S
H482 C495 0.930 . S
H483 C499 0.959 . S
H484 C499 0.959 . S
H485 C499 0.961 . S
H486 C500 0.960 . S
H487 C500 0.961 . S
H488 C500 0.959 . S
H489 C503 0.929 . S
H490 C504 0.931 . S
H491 C506 0.930 . S
C492 H480 0.930 . S
C492 C493 1.399 . S
C492 C497 1.399 . S
C493 C492 1.399 . S
C493 C494 1.376 . S
C494 H481 0.930 1_565 S
C494 C493 1.376 . S
C494 C495 1.388 . S
C495 H482 0.930 . S
C495 C494 1.388 . S
C495 C496 1.390 . S
C496 C495 1.390 . S
C496 C497 1.394 . S
C496 C502 1.465 . S
C497 C492 1.399 . S
C497 C496 1.394 . S
C497 C498 1.516 . S
C498 C497 1.516 . S
C498 C499 1.502 . S
C498 C500 1.561 . S
C498 C501 1.526 . S
C499 H483 0.959 . S
C499 H484 0.959 . S
C499 H485 0.961 . S
C499 C498 1.502 . S
C500 H486 0.960 . S
C500 H487 0.961 . S
C500 H488 0.959 . S
C500 C498 1.561 . S
C501 C498 1.526 . S
C501 C502 1.396 . S
C501 C506 1.390 . S
C502 C496 1.465 . S
C502 C501 1.396 . S
C502 C503 1.399 . S
C503 H489 0.929 . S
C503 C502 1.399 . S
C503 C504 1.385 . S
C504 H490 0.931 . S
C504 C503 1.385 . S
C504 C505 1.389 . S
C505 C504 1.389 . S
C505 C506 1.387 . S
C506 H491 0.930 . S
C506 C501 1.390 . S
C506 C505 1.387 . S
H507 C519 0.930 . S
H508 C521 0.928 1_554 S
H509 C522 0.930 . S
H510 C526 0.959 . S
H511 C526 0.959 . S
H512 C526 0.961 . S
H513 C527 0.960 . S
H514 C527 0.961 . S
H515 C527 0.959 . S
H516 C530 0.929 . S
H517 C531 0.931 . S
H518 C533 0.930 . S
C519 H507 0.930 . S
C519 C520 1.399 . S
C519 C524 1.399 . S
C520 C519 1.399 . S
C520 C521 1.376 . S
C521 H508 0.928 1_556 S
C521 C520 1.376 . S
C521 C522 1.388 . S
C522 H509 0.930 . S
C522 C521 1.388 . S
C522 C523 1.390 . S
C523 C522 1.390 . S
C523 C524 1.394 . S
C523 C529 1.465 . S
C524 C519 1.399 . S
C524 C523 1.394 . S
C524 C525 1.516 . S
C525 C524 1.516 . S
C525 C526 1.502 . S
C525 C527 1.561 . S
C525 C528 1.526 . S
C526 H510 0.959 . S
C526 H511 0.959 . S
C526 H512 0.961 . S
C526 C525 1.502 . S
C527 H513 0.960 . S
C527 H514 0.961 . S
C527 H515 0.959 . S
C527 C525 1.561 . S
C528 C525 1.526 . S
C528 C529 1.396 . S
C528 C533 1.390 . S
C529 C523 1.465 . S
C529 C528 1.396 . S
C529 C530 1.399 . S
C530 H516 0.929 . S
C530 C529 1.399 . S
C530 C531 1.385 . S
C531 H517 0.931 . S
C531 C530 1.385 . S
C531 C532 1.389 . S
C532 C531 1.389 . S
C532 C533 1.387 . S
C533 H518 0.930 . S
C533 C528 1.390 . S
C533 C532 1.387 . S
C223 C58 1.164 . S
C235 C187 1.239 . S
C250 C139 1.553 . S
C262 C193 1.337 . S
C277 C67 1.619 . S
C289 C184 1.440 . S
C304 C154 1.157 . S
C316 C209 1.286 . S
C331 C56 1.607 . S
C343 C175 1.389 . S
C370 C192 1.562 . S
C358 C152 1.633 . S
C385 C142 1.193 . S
C397 C188 1.221 . S
C424 C205 1.572 . S
C412 C68 1.622 . S
C451 C172 1.482 . S
C439 C140 1.575 . S
C478 C208 1.220 . S
C466 C70 1.292 . S
C505 C171 1.484 . S
C493 C151 1.611 . S
C532 C196 1.348 . S
C520 C55 1.546 . S
