# Generated by pormake.
# Topology pto, (3,4)-cn, num edge types: 1
# Building blocks:
#     Node 0, Type 0, BuildingBlock: OLANEW_clean_sbu_2, # of connection points: 3
#     Node 1, Type 0, BuildingBlock: OLANEW_clean_sbu_2, # of connection points: 3
#     Node 2, Type 0, BuildingBlock: OLANEW_clean_sbu_2, # of connection points: 3
#     Node 3, Type 0, BuildingBlock: OLANEW_clean_sbu_2, # of connection points: 3
#     Node 4, Type 0, BuildingBlock: OLANEW_clean_sbu_2, # of connection points: 3
#     Node 5, Type 0, BuildingBlock: OLANEW_clean_sbu_2, # of connection points: 3
#     Node 6, Type 0, BuildingBlock: OLANEW_clean_sbu_2, # of connection points: 3
#     Node 7, Type 0, BuildingBlock: OLANEW_clean_sbu_2, # of connection points: 3
#     Node 8, Type 1, BuildingBlock: NAWXER_clean_sbu_0, # of connection points: 4
#     Node 9, Type 1, BuildingBlock: NAWXER_clean_sbu_0, # of connection points: 4
#     Node 10, Type 1, BuildingBlock: NAWXER_clean_sbu_0, # of connection points: 4
#     Node 11, Type 1, BuildingBlock: NAWXER_clean_sbu_0, # of connection points: 4
#     Node 12, Type 1, BuildingBlock: NAWXER_clean_sbu_0, # of connection points: 4
#     Node 13, Type 1, BuildingBlock: NAWXER_clean_sbu_0, # of connection points: 4
#     Edge 14, Type (0, 1), BuildingBlock: ZUJKAS_clean_linker_0, # of connection points: 2
#     Edge 15, Type (0, 1), BuildingBlock: ZUJKAS_clean_linker_0, # of connection points: 2
#     Edge 16, Type (0, 1), BuildingBlock: ZUJKAS_clean_linker_0, # of connection points: 2
#     Edge 17, Type (0, 1), BuildingBlock: ZUJKAS_clean_linker_0, # of connection points: 2
#     Edge 18, Type (0, 1), BuildingBlock: ZUJKAS_clean_linker_0, # of connection points: 2
#     Edge 19, Type (0, 1), BuildingBlock: ZUJKAS_clean_linker_0, # of connection points: 2
#     Edge 20, Type (0, 1), BuildingBlock: ZUJKAS_clean_linker_0, # of connection points: 2
#     Edge 21, Type (0, 1), BuildingBlock: ZUJKAS_clean_linker_0, # of connection points: 2
#     Edge 22, Type (0, 1), BuildingBlock: ZUJKAS_clean_linker_0, # of connection points: 2
#     Edge 23, Type (0, 1), BuildingBlock: ZUJKAS_clean_linker_0, # of connection points: 2
#     Edge 24, Type (0, 1), BuildingBlock: ZUJKAS_clean_linker_0, # of connection points: 2
#     Edge 25, Type (0, 1), BuildingBlock: ZUJKAS_clean_linker_0, # of connection points: 2
#     Edge 26, Type (0, 1), BuildingBlock: ZUJKAS_clean_linker_0, # of connection points: 2
#     Edge 27, Type (0, 1), BuildingBlock: ZUJKAS_clean_linker_0, # of connection points: 2
#     Edge 28, Type (0, 1), BuildingBlock: ZUJKAS_clean_linker_0, # of connection points: 2
#     Edge 29, Type (0, 1), BuildingBlock: ZUJKAS_clean_linker_0, # of connection points: 2
#     Edge 30, Type (0, 1), BuildingBlock: ZUJKAS_clean_linker_0, # of connection points: 2
#     Edge 31, Type (0, 1), BuildingBlock: ZUJKAS_clean_linker_0, # of connection points: 2
#     Edge 32, Type (0, 1), BuildingBlock: ZUJKAS_clean_linker_0, # of connection points: 2
#     Edge 33, Type (0, 1), BuildingBlock: ZUJKAS_clean_linker_0, # of connection points: 2
#     Edge 34, Type (0, 1), BuildingBlock: ZUJKAS_clean_linker_0, # of connection points: 2
#     Edge 35, Type (0, 1), BuildingBlock: ZUJKAS_clean_linker_0, # of connection points: 2
#     Edge 36, Type (0, 1), BuildingBlock: ZUJKAS_clean_linker_0, # of connection points: 2
#     Edge 37, Type (0, 1), BuildingBlock: ZUJKAS_clean_linker_0, # of connection points: 2
# Relax obj value: 0.011
# Max RMSD: 0.131
# Mean RMSD: 0.057
data_MOF--net-pto--node1-OLANEW_clean_sbu_2--node2-NAWXER_clean_sbu_0--edge1-ZUJKAS_clean_linker_0
_symmetry_space_group_name_H-M    P1
_symmetry_Int_Tables_number       1
_symmetry_cell_setting            triclinic
loop_
_symmetry_equiv_pos_as_xyz
'x, y, z'
_cell_length_a     58.386042
_cell_length_b     56.552594
_cell_length_c     53.113559
_cell_angle_alpha  92.750853
_cell_angle_beta   89.911327
_cell_angle_gamma 102.11516
loop_
_atom_site_label
_atom_site_type_symbol
_atom_site_fract_x
_atom_site_fract_y
_atom_site_fract_z
_atom_type_partial_charge
O0 O 0.3165 0.37033 0.24113 0.0
Cd1 Cd 0.29305 0.37678 0.27789 0.0
O2 O 0.33209 0.409 0.23814 0.0
Cd3 Cd 0.30713 0.41981 0.26468 0.0
O4 O 0.27503 0.43055 0.27748 0.0
C5 C 0.25655 0.42134 0.26489 0.0
O6 O 0.25787 0.40569 0.24611 0.0
C7 C 0.33095 0.38702 0.23083 0.0
C8 C 0.30213 0.34676 0.31509 0.0
O9 O 0.28507 0.33985 0.29945 0.0
O10 O 0.31461 0.36817 0.31353 0.0
O11 O 0.3212 0.88799 0.7956 0.0
Cd12 Cd 0.28804 0.89154 0.76915 0.0
O13 O 0.31624 0.84861 0.78821 0.0
Cd14 Cd 0.28481 0.84431 0.76469 0.0
O15 O 0.25107 0.8253 0.74872 0.0
C16 C 0.23423 0.81951 0.76394 0.0
O17 O 0.23764 0.82636 0.78788 0.0
C18 C 0.32756 0.86819 0.79888 0.0
C19 C 0.29983 0.93009 0.73745 0.0
O20 O 0.29303 0.93338 0.76007 0.0
O21 O 0.30104 0.90855 0.7298 0.0
O22 O 0.825 0.8011 0.25724 0.0
Cd23 Cd 0.8186 0.77437 0.21921 0.0
O24 O 0.78786 0.79306 0.26797 0.0
Cd25 Cd 0.77452 0.77363 0.23277 0.0
O26 O 0.74825 0.77115 0.20296 0.0
C27 C 0.74519 0.79128 0.19543 0.0
O28 O 0.75862 0.81136 0.20485 0.0
C29 C 0.80897 0.80358 0.27275 0.0
C30 C 0.84467 0.73837 0.22138 0.0
O31 O 0.85363 0.75917 0.21309 0.0
O32 O 0.82327 0.73448 0.22849 0.0
O33 O 0.79085 0.3222 0.71594 0.0
Cd34 Cd 0.75821 0.2876 0.71945 0.0
O35 O 0.79107 0.33247 0.75644 0.0
Cd36 Cd 0.75877 0.30692 0.76531 0.0
O37 O 0.72529 0.29585 0.78444 0.0
C38 C 0.70886 0.30647 0.77923 0.0
O39 O 0.71228 0.32236 0.76161 0.0
C40 C 0.79995 0.33574 0.73467 0.0
C41 C 0.76685 0.24801 0.69041 0.0
O42 O 0.75588 0.26303 0.68116 0.0
O43 O 0.77351 0.25155 0.71352 0.0
O44 O 0.74834 0.78793 0.7109 0.0
Cd45 Cd 0.74459 0.76283 0.74766 0.0
O46 O 0.71123 0.7766 0.69972 0.0
Cd47 Cd 0.70124 0.75378 0.73161 0.0
O48 O 0.68003 0.74166 0.76431 0.0
C49 C 0.66021 0.74759 0.76514 0.0
O50 O 0.6541 0.75951 0.7465 0.0
C51 C 0.73163 0.7891 0.69598 0.0
C52 C 0.7813 0.73856 0.75228 0.0
O53 O 0.76188 0.72801 0.7417 0.0
O54 O 0.78341 0.76058 0.76055 0.0
O55 O 0.78792 0.28567 0.2473 0.0
Cd56 Cd 0.74952 0.25804 0.24764 0.0
O57 O 0.78745 0.28778 0.20606 0.0
Cd58 Cd 0.75041 0.27139 0.20113 0.0
O59 O 0.7194 0.28066 0.1847 0.0
C60 C 0.72106 0.30321 0.18222 0.0
O61 O 0.74018 0.31829 0.19036 0.0
C62 C 0.79811 0.29305 0.22708 0.0
C63 C 0.74886 0.22073 0.28048 0.0
O64 O 0.75514 0.21865 0.25748 0.0
O65 O 0.74284 0.24043 0.28794 0.0
O66 O 0.29695 0.4349 0.80389 0.0
Cd67 Cd 0.26521 0.43079 0.77292 0.0
O68 O 0.31408 0.4108 0.78016 0.0
Cd69 Cd 0.2872 0.39991 0.75086 0.0
O70 O 0.27322 0.37433 0.71967 0.0
C71 C 0.2591 0.3546 0.72404 0.0
O72 O 0.25166 0.35085 0.74716 0.0
C73 C 0.31403 0.42452 0.79986 0.0
C74 C 0.23017 0.45567 0.78661 0.0
O75 O 0.22778 0.4331 0.79057 0.0
O76 O 0.24925 0.46652 0.77661 0.0
O77 O 0.32594 0.84314 0.26832 0.0
Cd78 Cd 0.30017 0.8439 0.30463 0.0
O79 O 0.29541 0.82103 0.24875 0.0
Cd80 Cd 0.27463 0.79647 0.22024 0.0
O81 O 0.24592 0.77049 0.20182 0.0
C82 C 0.24899 0.75342 0.18661 0.0
O83 O 0.27043 0.75151 0.18081 0.0
C84 C 0.31711 0.83087 0.24869 0.0
C85 C 0.29967 0.88944 0.32699 0.0
O86 O 0.31503 0.87757 0.33332 0.0
O87 O 0.28488 0.88003 0.3096 0.0
C88 C 0.99056 0.49527 0.21698 0.0
C89 C 0.05133 0.56532 0.19833 0.0
O90 O -0.00245 0.50874 0.23679 0.0
Zn91 Zn 0.02224 0.54209 0.24594 0.0
O92 O -0.00085 0.50147 0.19571 0.0
Zn93 Zn 0.02031 0.53075 0.20733 0.0
O94 O 0.04527 0.51735 0.22969 0.0
O95 O 0.04364 0.53207 0.26875 0.0
O96 O 0.04028 0.54909 0.18286 0.0
O97 O 0.04612 0.56461 0.22179 0.0
O98 O 0.00307 0.56367 0.25904 0.0
O99 O -0.00284 0.55434 0.21845 0.0
C100 C 0.05249 0.51928 0.25267 0.0
C101 C 0.99244 0.56566 0.23867 0.0
C102 C 0.97806 0.55116 0.73245 0.0
C103 C 0.03543 0.62772 0.73413 0.0
O104 O 0.98242 0.5607 0.75479 0.0
Zn105 Zn 0.00371 0.59265 0.77266 0.0
O106 O 0.98825 0.56201 0.71379 0.0
Zn107 Zn 0.00661 0.58956 0.73277 0.0
O108 O 0.03032 0.5734 0.75364 0.0
O109 O 0.02431 0.57963 0.79423 0.0
O110 O 0.02787 0.61395 0.71498 0.0
O111 O 0.02772 0.62179 0.75608 0.0
O112 O 0.9805 0.60861 0.78787 0.0
O113 O 0.9806 0.60879 0.74632 0.0
C114 C 0.03541 0.57092 0.77672 0.0
C115 C 0.97233 0.61468 0.76755 0.0
C116 C 0.31588 0.11127 0.55595 0.0
C117 C 0.3203 0.16869 0.48947 0.0
O118 O 0.29589 0.11116 0.54589 0.0
Zn119 Zn 0.28172 0.1296 0.51725 0.0
O120 O 0.33401 0.12572 0.54841 0.0
Zn121 Zn 0.31859 0.14024 0.52288 0.0
O122 O 0.2981 0.16074 0.54497 0.0
O123 O 0.2608 0.14631 0.53588 0.0
O124 O 0.3371 0.16491 0.50283 0.0
O125 O 0.29943 0.15674 0.49311 0.0
O126 O 0.2686 0.10351 0.49342 0.0
O127 O 0.3072 0.11046 0.49578 0.0
C128 C 0.27647 0.16141 0.54821 0.0
C129 C 0.28783 0.09829 0.48632 0.0
C130 C 0.54624 0.81189 0.04525 0.0
C131 C 0.48935 0.82813 0.98491 0.0
O132 O 0.53072 0.79286 0.03899 0.0
Zn133 Zn 0.49993 0.78351 0.01524 0.0
O134 O 0.54479 0.83203 0.03646 0.0
Zn135 Zn 0.51718 0.82041 0.01599 0.0
O136 O 0.48987 0.81187 0.04317 0.0
O137 O 0.47476 0.77278 0.03842 0.0
O138 O 0.50624 0.84312 -0.00446 0.0
O139 O 0.48532 0.80586 0.99065 0.0
O140 O 0.50857 0.75995 -0.00845 0.0
O141 O 0.52933 0.79705 0.98808 0.0
C142 C 0.475 0.79314 0.04972 0.0
C143 C 0.5247 0.77458 0.98076 0.0
C144 C 0.76127 0.97779 0.51917 0.0
C145 C 0.76312 0.03738 0.45525 0.0
O146 O 0.7441 0.98251 0.50713 0.0
Zn147 Zn 0.76191 0.00771 0.48747 0.0
O148 O 0.78206 0.98985 0.51523 0.0
Zn149 Zn 0.79876 0.01847 0.49174 0.0
O150 O 0.81233 0.04413 0.51598 0.0
O151 O 0.77371 0.03653 0.51526 0.0
O152 O 0.78355 0.03737 0.46411 0.0
O153 O 0.74542 0.02283 0.46352 0.0
O154 O 0.78203 0.98782 0.46392 0.0
O155 O 0.8195 0.0028 0.47177 0.0
C156 C 0.79323 0.04875 0.52427 0.0
C157 C 0.80364 0.98759 0.4598 0.0
C158 C 0.54958 0.36918 0.02318 0.0
C159 C 0.49364 0.38994 0.96416 0.0
O160 O 0.53427 0.35081 0.01477 0.0
Zn161 Zn 0.50497 0.34295 0.98927 0.0
O162 O 0.54925 0.39006 0.01549 0.0
Zn163 Zn 0.52237 0.38009 -0.00684 0.0
O164 O 0.49462 0.36883 0.01931 0.0
O165 O 0.4796 0.32998 0.0115 0.0
O166 O 0.51091 0.40423 0.97498 0.0
O167 O 0.48998 0.36723 0.96793 0.0
O168 O 0.51488 0.32174 0.96373 0.0
O169 O 0.53561 0.35916 0.96401 0.0
C170 C 0.47979 0.34954 0.02444 0.0
C171 C 0.53143 0.33729 0.95477 0.0
H172 H 0.2475 0.45357 0.30197 0.0
H173 H 0.21128 0.46847 0.30812 0.0
H174 H 0.1796 0.42274 0.24478 0.0
H175 H 0.21534 0.40744 0.23886 0.0
H176 H 0.19122 0.49314 0.27522 0.0
H177 H 0.12817 0.40906 0.29601 0.0
H178 H 0.15947 0.41132 0.29716 0.0
H179 H 0.14383 0.40534 0.26754 0.0
C180 C 0.23269 0.44643 0.2896 0.0
C181 C 0.2343 0.42928 0.26995 0.0
C182 C 0.21201 0.45496 0.29314 0.0
C183 C 0.19258 0.44641 0.27719 0.0
C184 C 0.19411 0.42912 0.25776 0.0
H185 H 0.07044 0.48594 0.22466 0.0
H186 H 0.10391 0.46842 0.23486 0.0
C187 C 0.21467 0.42052 0.25428 0.0
C188 C 0.17135 0.4569 0.27936 0.0
H189 H 0.11158 0.44146 0.28067 0.0
C190 C 0.17383 0.48193 0.27696 0.0
C191 C 0.14866 0.44226 0.28171 0.0
C192 C 0.14488 0.41555 0.28602 0.0
C193 C 0.15418 0.49247 0.27535 0.0
C194 C 0.13153 0.4776 0.27632 0.0
C195 C 0.12902 0.45277 0.27982 0.0
C196 C 0.11034 0.48716 0.27143 0.0
C197 C 0.15769 0.51922 0.2713 0.0
C198 C 0.10266 0.50316 0.28888 0.0
C199 C 0.0834 0.51318 0.28316 0.0
C200 C 0.07168 0.50741 0.25983 0.0
C201 C 0.07914 0.49087 0.24273 0.0
C202 C 0.09822 0.48078 0.24853 0.0
H203 H 0.17637 0.52772 0.26822 0.0
H204 H 0.14723 0.52231 0.25479 0.0
H205 H 0.15146 0.52843 0.28808 0.0
H206 H 0.11174 0.50814 0.30673 0.0
H207 H 0.07808 0.52585 0.29674 0.0
H208 H 0.19573 0.80294 0.79232 0.0
H209 H 0.16048 0.77327 0.7796 0.0
H210 H 0.1866 0.76983 0.70382 0.0
H211 H 0.22223 0.79936 0.71647 0.0
H212 H 0.12634 0.77309 0.74202 0.0
H213 H 0.17497 0.69916 0.72429 0.0
H214 H 0.18798 0.72733 0.74093 0.0
H215 H 0.18469 0.72611 0.70726 0.0
C216 C 0.19397 0.79604 0.77289 0.0
C217 C 0.21193 0.80335 0.75548 0.0
C218 C 0.17377 0.7791 0.76565 0.0
C219 C 0.1711 0.76907 0.74089 0.0
C220 C 0.18852 0.77703 0.72315 0.0
H221 H 0.06128 0.64298 0.6924 0.0
H222 H 0.09298 0.67898 0.68987 0.0
C223 C 0.20881 0.794 0.73039 0.0
C224 C 0.15043 0.74964 0.73421 0.0
H225 H 0.13406 0.68892 0.71978 0.0
C226 C 0.12801 0.75474 0.73687 0.0
C227 C 0.15268 0.72573 0.72738 0.0
C228 C 0.17633 0.71908 0.72494 0.0
C229 C 0.10777 0.73641 0.73362 0.0
C230 C 0.11005 0.71233 0.72794 0.0
C231 C 0.1324 0.70742 0.72411 0.0
C232 C 0.08974 0.69165 0.72854 0.0
C233 C 0.08412 0.74292 0.73671 0.0
C234 C 0.07755 0.68684 0.75111 0.0
C235 C 0.05962 0.66636 0.75265 0.0
C236 C 0.05351 0.65014 0.73165 0.0
C237 C 0.0655 0.65517 0.70888 0.0
C238 C 0.0836 0.67569 0.7074 0.0
H239 H 0.08496 0.76225 0.73301 0.0
H240 H 0.07089 0.73145 0.72384 0.0
H241 H 0.07818 0.74 0.75639 0.0
H242 H 0.08234 0.69862 0.7678 0.0
H243 H 0.05079 0.66306 0.77049 0.0
H244 H 0.89202 0.74381 0.21653 0.0
H245 H 0.91531 0.71287 0.21961 0.0
H246 H 0.85248 0.65925 0.23214 0.0
H247 H 0.82912 0.69035 0.22996 0.0
H248 H 0.88629 0.6546 0.26374 0.0
H249 H 0.9224 0.66151 0.16739 0.0
H250 H 0.92888 0.69008 0.18484 0.0
H251 H 0.8989 0.6759 0.17737 0.0
C252 C 0.88313 0.72541 0.21982 0.0
C253 C 0.8587 0.71949 0.22285 0.0
C254 C 0.89646 0.70769 0.22142 0.0
C255 C 0.88561 0.6836 0.22555 0.0
C256 C 0.86123 0.67768 0.22879 0.0
H257 H 0.9599 0.56606 0.20196 0.0
H258 H 0.9324 0.59305 0.1997 0.0
C259 C 0.8479 0.69547 0.2275 0.0
C260 C 0.89978 0.66474 0.22713 0.0
H261 H 0.941 0.64003 0.19605 0.0
C262 C 0.89812 0.65126 0.24885 0.0
C263 C 0.9149 0.66005 0.20752 0.0
C264 C 0.9162 0.67247 0.18287 0.0
C265 C 0.91158 0.63368 0.25176 0.0
C266 C 0.92768 0.62998 0.23275 0.0
C267 C 0.9289 0.64305 0.21079 0.0
C268 C 0.94344 0.61267 0.23511 0.0
C269 C 0.90808 0.619 0.27497 0.0
C270 C 0.95882 0.61464 0.25579 0.0
C271 C 0.97435 0.59897 0.25731 0.0
C272 C 0.97514 0.58138 0.2379 0.0
C273 C 0.95976 0.57946 0.21721 0.0
C274 C 0.94403 0.59489 0.21588 0.0
H275 H 0.89044 0.61836 0.28314 0.0
H276 H 0.91019 0.60016 0.27073 0.0
H277 H 0.92125 0.62756 0.2895 0.0
H278 H 0.95921 0.62864 0.27052 0.0
H279 H 0.98615 0.60108 0.27336 0.0
H280 H 0.82116 0.35094 0.69042 0.0
H281 H 0.85422 0.38501 0.685 0.0
H282 H 0.85792 0.39988 0.76544 0.0
H283 H 0.82513 0.36595 0.77109 0.0
H284 H 0.85615 0.43415 0.70027 0.0
H285 H 0.92596 0.39847 0.74652 0.0
H286 H 0.89858 0.37929 0.73596 0.0
H287 H 0.90018 0.3967 0.76539 0.0
C288 C 0.82915 0.36132 0.70698 0.0
C289 C 0.82052 0.35567 0.73121 0.0
C290 C 0.84801 0.38078 0.70383 0.0
C291 C 0.85871 0.39472 0.72484 0.0
C292 C 0.85021 0.38905 0.74901 0.0
H293 H 0.95408 0.52402 0.7688 0.0
H294 H 0.92621 0.48548 0.76347 0.0
C295 C 0.83135 0.36971 0.75218 0.0
C296 C 0.87797 0.41601 0.72168 0.0
H297 H 0.93371 0.44129 0.74137 0.0
C298 C 0.87327 0.43562 0.70885 0.0
C299 C 0.90027 0.41778 0.73284 0.0
C300 C 0.90668 0.39684 0.74574 0.0
C301 C 0.88986 0.45752 0.70816 0.0
C302 C 0.91179 0.45963 0.7203 0.0
C303 C 0.91683 0.43964 0.73217 0.0
C304 C 0.92896 0.48298 0.72286 0.0
C305 C 0.88337 0.47861 0.69562 0.0
C306 C 0.9399 0.49431 0.70174 0.0
C307 C 0.95591 0.51651 0.70471 0.0
C308 C 0.96126 0.52765 0.72886 0.0
C309 C 0.95037 0.51604 0.74992 0.0
C310 C 0.93445 0.49395 0.74693 0.0
H311 H 0.86437 0.4753 0.69105 0.0
H312 H 0.88811 0.49537 0.70793 0.0
H313 H 0.89325 0.48174 0.6778 0.0
H314 H 0.93616 0.48593 0.68302 0.0
H315 H 0.96408 0.52492 0.68812 0.0
H316 H 0.27755 0.30144 0.32434 0.0
H317 H 0.28728 0.27347 0.3542 0.0
H318 H 0.34918 0.32608 0.37757 0.0
H319 H 0.33936 0.35444 0.34799 0.0
H320 H 0.32759 0.25443 0.35551 0.0
H321 H 0.31753 0.30718 0.44459 0.0
H322 H 0.30643 0.31408 0.41472 0.0
H323 H 0.3372 0.32276 0.42183 0.0
C324 C 0.29315 0.30718 0.33595 0.0
C325 C 0.30762 0.33021 0.33387 0.0
C326 C 0.29872 0.29114 0.35296 0.0
C327 C 0.31883 0.29778 0.36826 0.0
C328 C 0.33336 0.32075 0.36626 0.0
H329 H 0.35819 0.20626 0.48431 0.0
H330 H 0.36237 0.23837 0.45394 0.0
C331 C 0.32775 0.33689 0.34928 0.0
C332 C 0.3246 0.28027 0.38584 0.0
H333 H 0.328 0.26952 0.44831 0.0
C334 C 0.32792 0.25783 0.37579 0.0
C335 C 0.32523 0.28484 0.41229 0.0
C336 C 0.32125 0.30842 0.42412 0.0
C337 C 0.331 0.2395 0.39151 0.0
C338 C 0.33053 0.24366 0.41792 0.0
C339 C 0.32841 0.26648 0.42801 0.0
C340 C 0.3292 0.22371 0.43521 0.0
C341 C 0.33415 0.21558 0.37978 0.0
C342 C 0.3092 0.205 0.43466 0.0
C343 C 0.30669 0.1869 0.45197 0.0
C344 C 0.32417 0.18709 0.47019 0.0
C345 C 0.3445 0.20558 0.4704 0.0
C346 C 0.34688 0.22392 0.45315 0.0
H347 H 0.34065 0.21744 0.36014 0.0
H348 H 0.34659 0.20786 0.39102 0.0
H349 H 0.31701 0.20258 0.37923 0.0
H350 H 0.29522 0.20472 0.42119 0.0
H351 H 0.29084 0.17291 0.45125 0.0
H352 H 0.35575 0.90629 0.82522 0.0
H353 H 0.38731 0.90463 0.855 0.0
H354 H 0.37541 0.82719 0.8415 0.0
H355 H 0.34427 0.82867 0.81151 0.0
H356 H 0.38386 0.88033 0.89874 0.0
H357 H 0.44582 0.8468 0.83438 0.0
H358 H 0.42178 0.85904 0.82305 0.0
H359 H 0.41696 0.82807 0.83199 0.0
C360 C 0.36005 0.88895 0.82836 0.0
C361 C 0.34752 0.86762 0.8159 0.0
C362 C 0.37807 0.88803 0.8454 0.0
C363 C 0.38397 0.86584 0.85015 0.0
C364 C 0.37157 0.84459 0.83765 0.0
H365 H 0.45546 0.79949 0.95534 0.0
H366 H 0.43157 0.81184 0.9228 0.0
C367 C 0.35364 0.84548 0.82062 0.0
C368 C 0.40205 0.86447 0.86928 0.0
H369 H 0.45071 0.84133 0.87862 0.0
C370 C 0.39874 0.87223 0.89429 0.0
C371 C 0.42151 0.854 0.8634 0.0
C372 C 0.42688 0.84674 0.83669 0.0
C373 C 0.41364 0.86855 0.91378 0.0
C374 C 0.43233 0.85694 0.90803 0.0
C375 C 0.43623 0.85009 0.88293 0.0
C376 C 0.4469 0.85003 0.928 0.0
C377 C 0.40873 0.87601 0.94056 0.0
C378 C 0.46347 0.86749 0.94163 0.0
C379 C 0.47729 0.86049 0.96026 0.0
C380 C 0.47464 0.83592 0.96556 0.0
C381 C 0.45792 0.81856 0.95184 0.0
C382 C 0.44428 0.82556 0.93318 0.0
H383 H 0.39213 0.88261 0.94216 0.0
H384 H 0.40774 0.86052 0.95289 0.0
H385 H 0.42331 0.89071 0.94767 0.0
H386 H 0.46582 0.88647 0.93771 0.0
H387 H 0.49003 0.87429 0.97046 0.0
H388 H 0.85094 0.8335 0.28642 0.0
H389 H 0.85836 0.86367 0.32178 0.0
H390 H 0.78658 0.84158 0.34515 0.0
H391 H 0.7791 0.81134 0.31032 0.0
H392 H 0.83629 0.90184 0.3288 0.0
H393 H 0.8216 0.84512 0.4115 0.0
H394 H 0.82657 0.83298 0.38036 0.0
H395 H 0.79779 0.83695 0.38934 0.0
C396 C 0.83687 0.83476 0.29938 0.0
C397 C 0.81441 0.82001 0.29551 0.0
C398 C 0.84113 0.85202 0.31954 0.0
C399 C 0.82312 0.85463 0.3363 0.0
C400 C 0.8009 0.8395 0.33283 0.0
H401 H 0.77352 0.9504 0.43529 0.0
H402 H 0.78292 0.9191 0.4064 0.0
C403 C 0.79661 0.82232 0.31274 0.0
C404 C 0.8266 0.87453 0.35602 0.0
H405 H 0.81603 0.88629 0.41808 0.0
C406 C 0.83246 0.8985 0.34845 0.0
C407 C 0.8217 0.87012 0.38166 0.0
C408 C 0.81681 0.84488 0.39123 0.0
C409 C 0.83185 0.91809 0.36554 0.0
C410 C 0.82535 0.91351 0.39074 0.0
C411 C 0.82087 0.88968 0.39865 0.0
C412 C 0.82037 0.93279 0.40835 0.0
C413 C 0.83669 0.94344 0.35626 0.0
C414 C 0.83841 0.95087 0.41899 0.0
C415 C 0.8331 0.9689 0.43566 0.0
C416 C 0.80967 0.96908 0.4418 0.0
C417 C 0.79174 0.9509 0.43094 0.0
C418 C 0.79706 0.93292 0.41448 0.0
H419 H 0.84002 0.94378 0.33567 0.0
H420 H 0.82161 0.95207 0.3605 0.0
H421 H 0.85226 0.95451 0.36629 0.0
H422 H 0.85653 0.95094 0.41452 0.0
H423 H 0.84731 0.98261 0.44375 0.0
H424 H 0.67212 0.32904 0.77493 0.0
H425 H 0.63928 0.32787 0.8037 0.0
H426 H 0.6638 0.27556 0.84724 0.0
H427 H 0.69702 0.27689 0.81875 0.0
H428 H 0.60293 0.29077 0.82016 0.0
H429 H 0.66384 0.33258 0.89813 0.0
H430 H 0.67312 0.33124 0.86579 0.0
H431 H 0.66916 0.30475 0.88401 0.0
C432 C 0.67044 0.31707 0.79045 0.0
C433 C 0.6874 0.30331 0.79474 0.0
C434 C 0.6516 0.31638 0.80684 0.0
C435 C 0.64934 0.30195 0.82783 0.0
C436 C 0.66548 0.28716 0.83139 0.0
H437 H 0.53116 0.29191 0.93342 0.0
H438 H 0.55857 0.28081 0.90215 0.0
C439 C 0.6844 0.28788 0.81504 0.0
C440 C 0.63104 0.30382 0.84677 0.0
H441 H 0.62363 0.32416 0.90717 0.0
C442 C 0.60738 0.29784 0.83927 0.0
C443 C 0.63698 0.31333 0.87159 0.0
C444 C 0.66213 0.32105 0.88041 0.0
C445 C 0.58951 0.30149 0.85586 0.0
C446 C 0.59552 0.31115 0.88059 0.0
C447 C 0.61911 0.31665 0.88821 0.0
C448 C 0.57792 0.31753 0.89837 0.0
C449 C 0.56448 0.29592 0.84654 0.0
C450 C 0.57979 0.34178 0.90663 0.0
C451 C 0.56432 0.34814 0.92447 0.0
C452 C 0.54665 0.33035 0.93457 0.0
C453 C 0.54451 0.30605 0.92594 0.0
C454 C 0.56009 0.29969 0.90802 0.0
H455 H 0.56326 0.29273 0.82574 0.0
H456 H 0.55478 0.27938 0.85531 0.0
H457 H 0.5557 0.311 0.85202 0.0
H458 H 0.59342 0.35582 0.89941 0.0
H459 H 0.56648 0.36703 0.93061 0.0
H460 H 0.3058 0.92789 0.68644 0.0
H461 H 0.31327 0.96153 0.65831 0.0
H462 H 0.31517 0.01213 0.72211 0.0
H463 H 0.30684 0.97847 0.75026 0.0
H464 H 0.2887 0.02238 0.68649 0.0
H465 H 0.37146 0.00967 0.6429 0.0
H466 H 0.3492 0.98258 0.63917 0.0
H467 H 0.35957 0.99389 0.6703 0.0
C468 C 0.30805 0.9462 0.69451 0.0
C469 C 0.30571 0.95053 0.72057 0.0
C470 C 0.31254 0.96545 0.67842 0.0
C471 C 0.31528 0.98944 0.68811 0.0
C472 C 0.31327 0.9938 0.71419 0.0
H473 H 0.3533 0.11047 0.58707 0.0
H474 H 0.35472 0.08285 0.62106 0.0
C475 C 0.30848 0.97454 0.73026 0.0
C476 C 0.31832 0.00977 0.67086 0.0
H477 H 0.34958 0.03386 0.62036 0.0
C478 C 0.30224 0.02508 0.67228 0.0
C479 C 0.33625 0.01368 0.65259 0.0
C480 C 0.35524 0.99924 0.65132 0.0
C481 C 0.3029 0.04339 0.65525 0.0
C482 C 0.31966 0.04603 0.63575 0.0
C483 C 0.33648 0.03156 0.63505 0.0
C484 C 0.31912 0.06276 0.6152 0.0
C485 C 0.28555 0.05968 0.65833 0.0
C486 C 0.29885 0.06029 0.60033 0.0
C487 C 0.29792 0.07606 0.58116 0.0
C488 C 0.31741 0.09446 0.57612 0.0
C489 C 0.33797 0.09654 0.59056 0.0
C490 C 0.33882 0.08079 0.60996 0.0
H491 H 0.27975 0.06089 0.6782 0.0
H492 H 0.29311 0.07824 0.65237 0.0
H493 H 0.26981 0.05209 0.64654 0.0
H494 H 0.28369 0.04606 0.60351 0.0
H495 H 0.28191 0.07371 0.5702 0.0
H496 H 0.73496 0.83144 0.17546 0.0
H497 H 0.70112 0.8339 0.14948 0.0
H498 H 0.67734 0.75641 0.15003 0.0
H499 H 0.7111 0.75374 0.17627 0.0
H500 H 0.68629 0.81102 0.10164 0.0
H501 H 0.62072 0.78339 0.17644 0.0
H502 H 0.65169 0.79292 0.18311 0.0
H503 H 0.64007 0.76305 0.16972 0.0
C504 C 0.72261 0.81488 0.17 0.0
C505 C 0.72565 0.7924 0.17809 0.0
C506 C 0.70329 0.81633 0.15513 0.0
C507 C 0.68657 0.7954 0.1482 0.0
C508 C 0.68986 0.77283 0.15559 0.0
H509 H 0.55525 0.77114 0.06527 0.0
H510 H 0.58944 0.76737 0.08997 0.0
C511 C 0.70923 0.77133 0.17044 0.0
C512 C 0.66561 0.79734 0.13341 0.0
H513 H 0.60604 0.78907 0.13623 0.0
C514 C 0.66873 0.80626 0.10917 0.0
C515 C 0.64277 0.79111 0.14336 0.0
C516 C 0.6385 0.78226 0.16966 0.0
C517 C 0.64955 0.80882 0.09442 0.0
C518 C 0.62671 0.80278 0.10444 0.0
C519 C 0.62359 0.79374 0.12864 0.0
C520 C 0.60577 0.80542 0.08999 0.0
C521 C 0.65387 0.81751 0.06807 0.0
C522 C 0.60337 0.82818 0.08227 0.0
C523 C 0.58384 0.83043 0.06809 0.0
C524 C 0.56627 0.80995 0.06154 0.0
C525 C 0.56846 0.78729 0.06992 0.0
C526 C 0.588 0.78507 0.08404 0.0
H527 H 0.67125 0.8153 0.06099 0.0
H528 H 0.64012 0.80755 0.05479 0.0
H529 H 0.65346 0.83704 0.06812 0.0
H530 H 0.61665 0.84421 0.08715 0.0
H531 H 0.58264 0.84816 0.06206 0.0
H532 H 0.79077 0.2138 0.70415 0.0
H533 H 0.79942 0.17998 0.67796 0.0
H534 H 0.76269 0.20139 0.61541 0.0
H535 H 0.75426 0.23538 0.64128 0.0
H536 H 0.76881 0.1417 0.65436 0.0
H537 H 0.82504 0.19499 0.58411 0.0
H538 H 0.81751 0.20826 0.61377 0.0
H539 H 0.79717 0.20336 0.58767 0.0
C540 C 0.78461 0.21137 0.68479 0.0
C541 C 0.77191 0.22735 0.67476 0.0
C542 C 0.78959 0.19205 0.66986 0.0
C543 C 0.78207 0.18844 0.64462 0.0
C544 C 0.76916 0.20419 0.63466 0.0
H545 H 0.75525 0.06223 0.54586 0.0
H546 H 0.75474 0.09537 0.57676 0.0
C547 C 0.7642 0.22351 0.64954 0.0
C548 C 0.7869 0.16769 0.6289 0.0
H549 H 0.81036 0.153 0.57285 0.0
C550 C 0.77812 0.14416 0.63667 0.0
C551 C 0.79942 0.17093 0.60606 0.0
C552 C 0.81055 0.19576 0.59751 0.0
C553 C 0.7806 0.12377 0.62164 0.0
C554 C 0.79182 0.12703 0.59805 0.0
C555 C 0.80154 0.15054 0.59082 0.0
C556 C 0.79246 0.10638 0.57999 0.0
C557 C 0.77107 0.09891 0.63111 0.0
C558 C 0.81387 0.10186 0.57111 0.0
C559 C 0.81425 0.08292 0.55323 0.0
C560 C 0.79319 0.06834 0.5438 0.0
C561 C 0.77181 0.07299 0.55279 0.0
C562 C 0.77146 0.09185 0.57061 0.0
H563 H 0.76977 0.09943 0.65199 0.0
H564 H 0.75321 0.09196 0.62322 0.0
H565 H 0.78224 0.08602 0.62516 0.0
H566 H 0.83027 0.11301 0.57798 0.0
H567 H 0.831 0.07988 0.54664 0.0
H568 H 0.33146 0.34224 0.20908 0.0
H569 H 0.35654 0.33227 0.17494 0.0
H570 H 0.38974 0.40772 0.17177 0.0
H571 H 0.3649 0.41791 0.20594 0.0
H572 H 0.36056 0.35031 0.12548 0.0
H573 H 0.445 0.37311 0.178 0.0
H574 H 0.41698 0.36831 0.19355 0.0
H575 H 0.42859 0.39667 0.17967 0.0
C576 C 0.34417 0.35673 0.20122 0.0
C577 C 0.34624 0.38088 0.21033 0.0
C578 C 0.35845 0.35098 0.1817 0.0
C579 C 0.37517 0.36921 0.17111 0.0
C580 C 0.37721 0.39333 0.18003 0.0
H581 H 0.47478 0.38928 0.05311 0.0
H582 H 0.44855 0.39136 0.08843 0.0
C583 C 0.36291 0.39912 0.19948 0.0
C584 C 0.39013 0.36323 0.15026 0.0
H585 H 0.44719 0.36751 0.13338 0.0
C586 C 0.37949 0.35377 0.12722 0.0
C587 C 0.41478 0.36769 0.15272 0.0
C588 C 0.42706 0.37679 0.17738 0.0
C589 C 0.39297 0.34973 0.10614 0.0
C590 C 0.41768 0.3549 0.10841 0.0
C591 C 0.42824 0.36362 0.1317 0.0
C592 C 0.43302 0.35307 0.08649 0.0
C593 C 0.38076 0.34098 0.08137 0.0
C594 C 0.43301 0.33076 0.07366 0.0
C595 C 0.44801 0.32948 0.05325 0.0
C596 C 0.46335 0.35047 0.04554 0.0
C597 C 0.46324 0.37273 0.05852 0.0
C598 C 0.44827 0.37398 0.07877 0.0
H599 H 0.36209 0.34248 0.08157 0.0
H600 H 0.38968 0.35144 0.06567 0.0
H601 H 0.38137 0.32166 0.07751 0.0
H602 H 0.42163 0.31434 0.07961 0.0
H603 H 0.44777 0.31206 0.04373 0.0
H604 H 0.82744 0.75832 0.76198 0.0
H605 H 0.85968 0.73711 0.7654 0.0
H606 H 0.8111 0.66859 0.75347 0.0
H607 H 0.77899 0.68976 0.74888 0.0
H608 H 0.86894 0.70617 0.79711 0.0
H609 H 0.85877 0.66078 0.70187 0.0
H610 H 0.84311 0.68395 0.7114 0.0
H611 H 0.83263 0.65318 0.7201 0.0
C612 C 0.82366 0.73873 0.75995 0.0
C613 C 0.80073 0.72571 0.75489 0.0
C614 C 0.84209 0.72662 0.76196 0.0
C615 C 0.83794 0.70124 0.7592 0.0
C616 C 0.81491 0.68818 0.75489 0.0
H617 H 0.9402 0.61736 0.80472 0.0
H618 H 0.90744 0.63821 0.80372 0.0
C619 C 0.79653 0.70031 0.75242 0.0
C620 C 0.85771 0.68854 0.76104 0.0
H621 H 0.88461 0.64773 0.73004 0.0
C622 C 0.87244 0.69347 0.78239 0.0
C623 C 0.86251 0.67221 0.74168 0.0
C624 C 0.84857 0.6674 0.71737 0.0
C625 C 0.89176 0.68252 0.78494 0.0
C626 C 0.89602 0.6655 0.76601 0.0
C627 C 0.88127 0.66059 0.74469 0.0
C628 C 0.91613 0.6532 0.76728 0.0
C629 C 0.90777 0.68993 0.80752 0.0
C630 C 0.93158 0.65408 0.7469 0.0
C631 C 0.94988 0.64169 0.74717 0.0
C632 C 0.95334 0.62836 0.76798 0.0
C633 C 0.93811 0.62772 0.78856 0.0
C634 C 0.91947 0.63977 0.78807 0.0
H635 H 0.90633 0.70798 0.8158 0.0
H636 H 0.90275 0.67659 0.82225 0.0
H637 H 0.92634 0.69056 0.80247 0.0
H638 H 0.92942 0.66429 0.73064 0.0
H639 H 0.96138 0.64262 0.73106 0.0
H640 H 0.82384 0.31355 0.26875 0.0
H641 H 0.85966 0.34521 0.26959 0.0
H642 H 0.8606 0.34214 0.18834 0.0
H643 H 0.82506 0.31042 0.18724 0.0
H644 H 0.9056 0.34672 0.21181 0.0
H645 H 0.85628 0.41447 0.25011 0.0
H646 H 0.85438 0.3879 0.26792 0.0
H647 H 0.84184 0.38519 0.23679 0.0
C648 C 0.83186 0.31934 0.25106 0.0
C649 C 0.82142 0.30965 0.22793 0.0
C650 C 0.85224 0.33751 0.25159 0.0
C651 C 0.86247 0.34627 0.22902 0.0
C652 C 0.85287 0.3357 0.20596 0.0
H653 H 0.97019 0.46331 0.17896 0.0
H654 H 0.94028 0.42627 0.18282 0.0
C655 C 0.83251 0.31759 0.20539 0.0
C656 C 0.88232 0.36742 0.22921 0.0
H657 H 0.89657 0.42828 0.24323 0.0
C658 C 0.90372 0.36455 0.21879 0.0
C659 C 0.8797 0.39064 0.23824 0.0
C660 C 0.85679 0.39492 0.24873 0.0
C661 C 0.92267 0.38434 0.21723 0.0
C662 C 0.91992 0.40763 0.22587 0.0
C663 C 0.89862 0.4104 0.23663 0.0
C664 C 0.93868 0.42954 0.22353 0.0
C665 C 0.94552 0.3801 0.20657 0.0
C666 C 0.9473 0.44395 0.24507 0.0
C667 C 0.96419 0.46524 0.24292 0.0
C668 C 0.97274 0.4726 0.21913 0.0
C669 C 0.96407 0.45811 0.19756 0.0
C670 C 0.94711 0.43683 0.19975 0.0
H671 H 0.94688 0.36086 0.20755 0.0
H672 H 0.94659 0.38467 0.18646 0.0
H673 H 0.9607 0.3917 0.21678 0.0
H674 H 0.9409 0.43873 0.26358 0.0
H675 H 0.97049 0.47595 0.25992 0.0
H676 H 0.23317 0.50451 0.79141 0.0
H677 H 0.20107 0.52586 0.79718 0.0
H678 H 0.15178 0.45739 0.79855 0.0
H679 H 0.18393 0.43603 0.79398 0.0
H680 H 0.16751 0.52579 0.76612 0.0
H681 H 0.12662 0.49258 0.85503 0.0
H682 H 0.15489 0.48748 0.8453 0.0
H683 H 0.12838 0.46775 0.83339 0.0
C684 C 0.21553 0.49403 0.79342 0.0
C685 C 0.21106 0.4686 0.79226 0.0
C686 C 0.19718 0.50625 0.79673 0.0
C687 C 0.17395 0.4933 0.79866 0.0
C688 C 0.16954 0.46787 0.7979 0.0
H689 H 0.05357 0.54033 0.74537 0.0
H690 H 0.08711 0.52217 0.75293 0.0
C691 C 0.18794 0.45565 0.79505 0.0
C692 C 0.15426 0.50627 0.79879 0.0
H693 H 0.10231 0.50956 0.82709 0.0
C694 C 0.15346 0.52246 0.77973 0.0
C695 C 0.13602 0.50234 0.81673 0.0
C696 C 0.13665 0.48679 0.83891 0.0
C697 C 0.13461 0.53403 0.77748 0.0
C698 C 0.11553 0.52864 0.7942 0.0
C699 C 0.11672 0.51332 0.81397 0.0
C700 C 0.09393 0.53812 0.79075 0.0
C701 C 0.13542 0.55198 0.75718 0.0
C702 C 0.08576 0.55204 0.81003 0.0
C703 C 0.0662 0.56215 0.8059 0.0
C704 C 0.05463 0.55855 0.78238 0.0
C705 C 0.06232 0.54379 0.76355 0.0
C706 C 0.08159 0.53349 0.76779 0.0
H707 H 0.15375 0.55995 0.75194 0.0
H708 H 0.12634 0.54255 0.74003 0.0
H709 H 0.12666 0.5669 0.76327 0.0
H710 H 0.09489 0.55564 0.828 0.0
H711 H 0.06062 0.57339 0.82079 0.0
H712 H 0.24914 0.71172 0.15808 0.0
H713 H 0.21566 0.6785 0.14806 0.0
H714 H 0.16961 0.71895 0.18578 0.0
H715 H 0.20271 0.75224 0.19548 0.0
H716 H 0.18974 0.65304 0.18354 0.0
H717 H 0.13117 0.69192 0.12375 0.0
H718 H 0.16166 0.7061 0.12881 0.0
H719 H 0.13995 0.7109 0.15155 0.0
C720 C 0.23181 0.71375 0.16377 0.0
C721 C 0.22862 0.73457 0.17773 0.0
C722 C 0.2127 0.69476 0.15799 0.0
C723 C 0.19008 0.69636 0.16585 0.0
C724 C 0.18678 0.71752 0.17894 0.0
H725 H 0.079 0.60079 0.2276 0.0
H726 H 0.11292 0.63064 0.21492 0.0
C727 C 0.20581 0.73647 0.18471 0.0
C728 C 0.17045 0.67495 0.16354 0.0
H729 H 0.11233 0.65787 0.14815 0.0
C730 C 0.17299 0.6539 0.17523 0.0
C731 C 0.14864 0.67592 0.15249 0.0
C732 C 0.14526 0.69736 0.13821 0.0
C733 C 0.15387 0.63456 0.17782 0.0
C734 C 0.13163 0.63644 0.16872 0.0
C735 C 0.12939 0.65665 0.15538 0.0
C736 C 0.11028 0.61889 0.1755 0.0
C737 C 0.15736 0.61263 0.19122 0.0
C738 C 0.09722 0.60281 0.15732 0.0
C739 C 0.0777 0.58555 0.16452 0.0
C740 C 0.07093 0.58435 0.18996 0.0
C741 C 0.08373 0.60108 0.20787 0.0
C742 C 0.10319 0.61814 0.2007 0.0
H743 H 0.17601 0.61107 0.19108 0.0
H744 H 0.15191 0.61424 0.21115 0.0
H745 H 0.1465 0.59578 0.1824 0.0
H746 H 0.10242 0.60328 0.13773 0.0
H747 H 0.06816 0.57297 0.15027 0.0
H748 H 0.77266 0.81905 0.68258 0.0
H749 H 0.77787 0.85005 0.65127 0.0
H750 H 0.70443 0.82964 0.63199 0.0
H751 H 0.69908 0.79835 0.66289 0.0
H752 H 0.7332 0.83799 0.59004 0.0
H753 H 0.75561 0.91361 0.66233 0.0
H754 H 0.77386 0.89177 0.66328 0.0
H755 H 0.74321 0.88293 0.67031 0.0
C756 C 0.75764 0.821 0.67155 0.0
C757 C 0.7354 0.80633 0.67543 0.0
C758 C 0.76063 0.83884 0.65378 0.0
C759 C 0.74143 0.84248 0.63971 0.0
C760 C 0.71944 0.82725 0.64279 0.0
H761 H 0.72023 0.94653 0.5304 0.0
H762 H 0.71495 0.91337 0.55933 0.0
C763 C 0.71643 0.80936 0.66049 0.0
C764 C 0.74412 0.86247 0.62214 0.0
H765 H 0.75941 0.924 0.61962 0.0
C766 C 0.73885 0.85681 0.59649 0.0
C767 C 0.75138 0.88701 0.63066 0.0
C768 C 0.75614 0.89429 0.65817 0.0
C769 C 0.74115 0.87502 0.57902 0.0
C770 C 0.74857 0.89953 0.58753 0.0
C771 C 0.75375 0.90518 0.61317 0.0
C772 C 0.75154 0.9196 0.57008 0.0
C773 C 0.73614 0.86789 0.55152 0.0
C774 C 0.77374 0.93444 0.56704 0.0
C775 C 0.7768 0.95343 0.55067 0.0
C776 C 0.75766 0.95809 0.53711 0.0
C777 C 0.73534 0.9434 0.54049 0.0
C778 C 0.73231 0.92434 0.55687 0.0
H779 H 0.73586 0.8484 0.54732 0.0
H780 H 0.71873 0.8713 0.54644 0.0
H781 H 0.74943 0.87882 0.53941 0.0
H782 H 0.78877 0.93116 0.57718 0.0
H783 H 0.79422 0.96439 0.54858 0.0
H784 H 0.6801 0.2771 0.16117 0.0
H785 H 0.65115 0.29245 0.13691 0.0
H786 H 0.69134 0.36529 0.14909 0.0
H787 H 0.72044 0.35019 0.17316 0.0
H788 H 0.62433 0.32818 0.15138 0.0
H789 H 0.68426 0.35596 0.07154 0.0
H790 H 0.69032 0.33575 0.09477 0.0
H791 H 0.69495 0.3677 0.10233 0.0
C792 C 0.68274 0.29639 0.15878 0.0
C793 C 0.70267 0.31239 0.16893 0.0
C794 C 0.66618 0.30513 0.14494 0.0
C795 C 0.66934 0.32994 0.14092 0.0
C796 C 0.68883 0.34603 0.15162 0.0
H797 H 0.58628 0.40295 0.04433 0.0
H798 H 0.61534 0.39595 0.07499 0.0
C799 C 0.70537 0.33734 0.16547 0.0
C800 C 0.65235 0.33889 0.1252 0.0
H801 H 0.64634 0.36393 0.06898 0.0
C802 C 0.62914 0.3361 0.13342 0.0
C803 C 0.65877 0.3494 0.10189 0.0
C804 C 0.68337 0.35228 0.09192 0.0
C805 C 0.61205 0.34324 0.11874 0.0
C806 C 0.61829 0.353 0.09504 0.0
C807 C 0.64165 0.35649 0.08718 0.0
C808 C 0.60046 0.35771 0.07724 0.0
C809 C 0.58744 0.34022 0.1287 0.0
C810 C 0.58278 0.33848 0.06814 0.0
C811 C 0.56631 0.34236 0.0507 0.0
C812 C 0.56722 0.36558 0.04183 0.0
C813 C 0.58505 0.38488 0.05086 0.0
C814 C 0.60164 0.38092 0.06835 0.0
H815 H 0.58717 0.33981 0.1496 0.0
H816 H 0.5791 0.35508 0.12294 0.0
H817 H 0.57676 0.3228 0.12099 0.0
H818 H 0.58189 0.32032 0.07429 0.0
H819 H 0.5529 0.32704 0.04411 0.0
H820 H 0.23034 0.30989 0.72724 0.0
H821 H 0.2262 0.27545 0.69667 0.0
H822 H 0.2724 0.31968 0.64592 0.0
H823 H 0.27632 0.35431 0.67609 0.0
H824 H 0.23464 0.28809 0.62128 0.0
H825 H 0.28064 0.24046 0.68786 0.0
H826 H 0.25456 0.24896 0.69979 0.0
H827 H 0.27962 0.27201 0.69264 0.0
C828 C 0.23936 0.31241 0.70942 0.0
C829 C 0.25392 0.33478 0.70426 0.0
C830 C 0.23704 0.29267 0.69202 0.0
C831 C 0.24938 0.2949 0.66927 0.0
C832 C 0.26282 0.31755 0.66343 0.0
H833 H 0.30633 0.19591 0.57654 0.0
H834 H 0.29675 0.22698 0.60555 0.0
C835 C 0.26507 0.33732 0.68075 0.0
C836 C 0.24978 0.27339 0.6523 0.0
H837 H 0.26922 0.22045 0.64869 0.0
C838 C 0.24196 0.27315 0.62728 0.0
C839 C 0.25961 0.25409 0.66018 0.0
C840 C 0.26928 0.25385 0.6865 0.0
C841 C 0.24413 0.25431 0.60978 0.0
C842 C 0.25412 0.23513 0.61765 0.0
C843 C 0.26141 0.23511 0.6428 0.0
C844 C 0.25929 0.21611 0.59967 0.0
C845 C 0.2367 0.25559 0.58277 0.0
C846 C 0.24134 0.19953 0.5868 0.0
C847 C 0.24678 0.18162 0.57005 0.0
C848 C 0.27024 0.18 0.56603 0.0
C849 C 0.28807 0.19659 0.57914 0.0
C850 C 0.28264 0.21439 0.59577 0.0
H851 H 0.23325 0.27365 0.57882 0.0
H852 H 0.25036 0.25156 0.56965 0.0
H853 H 0.22038 0.24183 0.5788 0.0
H854 H 0.22317 0.20032 0.58986 0.0
H855 H 0.23264 0.16908 0.56031 0.0
H856 H 0.364 0.83278 0.25 0.0
H857 H 0.38937 0.82553 0.2151 0.0
H858 H 0.33016 0.81251 0.16409 0.0
H859 H 0.30494 0.82099 0.19865 0.0
H860 H 0.38703 0.7844 0.18477 0.0
H861 H 0.37792 0.86184 0.12793 0.0
H862 H 0.36832 0.85931 0.16018 0.0
H863 H 0.35063 0.84214 0.13518 0.0
C864 C 0.35639 0.82857 0.23131 0.0
C865 C 0.33232 0.827 0.22721 0.0
C866 C 0.3709 0.8243 0.21142 0.0
C867 C 0.36169 0.81856 0.18697 0.0
C868 C 0.3377 0.81712 0.18275 0.0
H869 H 0.43756 0.75898 0.065 0.0
H870 H 0.4092 0.764 0.09783 0.0
C871 C 0.32318 0.82151 0.20265 0.0
C872 C 0.37728 0.81383 0.16609 0.0
H873 H 0.39884 0.83394 0.10942 0.0
C874 C 0.38961 0.7952 0.16826 0.0
C875 C 0.38077 0.8281 0.14471 0.0
C876 C 0.3689 0.84912 0.14187 0.0
C877 C 0.40543 0.79051 0.14968 0.0
C878 C 0.40864 0.80454 0.12811 0.0
C879 C 0.39621 0.82309 0.12589 0.0
C880 C 0.42569 0.80116 0.10821 0.0
C881 C 0.41909 0.7711 0.15372 0.0
C882 C 0.44406 0.8205 0.10279 0.0
C883 C 0.4601 0.81777 0.08392 0.0
C884 C 0.45813 0.79561 0.07004 0.0
C885 C 0.43969 0.77622 0.07548 0.0
C886 C 0.42352 0.77902 0.09431 0.0
H887 H 0.41893 0.76628 0.17377 0.0
H888 H 0.41108 0.75453 0.14224 0.0
H889 H 0.43757 0.77698 0.14777 0.0
H890 H 0.44604 0.83775 0.11325 0.0
H891 H 0.47407 0.8331 0.08025 0.0
H892 H 0.7332 0.21821 0.32906 0.0
H893 H 0.73393 0.18612 0.35813 0.0
H894 H 0.76542 0.14693 0.30085 0.0
H895 H 0.7643 0.17868 0.27145 0.0
H896 H 0.73037 0.11727 0.32592 0.0
H897 H 0.79209 0.1755 0.39389 0.0
H898 H 0.76622 0.18682 0.38786 0.0
H899 H 0.78666 0.18487 0.36286 0.0
C900 C 0.74028 0.20277 0.32263 0.0
C901 C 0.74885 0.20109 0.29798 0.0
C902 C 0.74079 0.18449 0.33932 0.0
C903 C 0.75012 0.16434 0.33181 0.0
C904 C 0.75825 0.16238 0.30707 0.0
H905 H 0.79775 0.06687 0.43011 0.0
H906 H 0.79364 0.0965 0.39944 0.0
C907 C 0.75763 0.18057 0.29031 0.0
C908 C 0.75153 0.14534 0.34974 0.0
H909 H 0.77492 0.13609 0.40639 0.0
C910 C 0.74012 0.12135 0.34351 0.0
C911 C 0.76453 0.15066 0.37252 0.0
C912 C 0.77827 0.1758 0.37963 0.0
C913 C 0.74122 0.10254 0.35954 0.0
C914 C 0.75369 0.10799 0.38264 0.0
C915 C 0.76519 0.13197 0.38878 0.0
C916 C 0.75576 0.08906 0.40044 0.0
C917 C 0.72951 0.07697 0.35129 0.0
C918 C 0.73581 0.07497 0.41124 0.0
C919 C 0.73809 0.05781 0.42872 0.0
C920 C 0.7604 0.05468 0.43594 0.0
C921 C 0.78031 0.06881 0.42502 0.0
C922 C 0.778 0.0858 0.40748 0.0
H923 H 0.72624 0.07502 0.33061 0.0
H924 H 0.74033 0.06394 0.35646 0.0
H925 H 0.71236 0.07205 0.36082 0.0
H926 H 0.71849 0.07753 0.40653 0.0
H927 H 0.72241 0.04735 0.4369 0.0
H928 H 0.35276 0.40485 0.79601 0.0
H929 H 0.38426 0.40778 0.82666 0.0
H930 H 0.35232 0.45453 0.87551 0.0
H931 H 0.32022 0.45139 0.84491 0.0
H932 H 0.4165 0.44734 0.84784 0.0
H933 H 0.35787 0.39869 0.92011 0.0
H934 H 0.34856 0.39945 0.88785 0.0
H935 H 0.35039 0.42561 0.90888 0.0
C936 C 0.35236 0.41586 0.8132 0.0
C937 C 0.33378 0.42769 0.8181 0.0
C938 C 0.3705 0.41759 0.83067 0.0
C939 C 0.37052 0.43115 0.85346 0.0
C940 C 0.35244 0.44366 0.85817 0.0
H941 H 0.49224 0.43725 0.95542 0.0
H942 H 0.46305 0.45158 0.93026 0.0
C943 C 0.33416 0.4419 0.84065 0.0
C944 C 0.38902 0.43092 0.87248 0.0
H945 H 0.39815 0.40755 0.92877 0.0
C946 C 0.41255 0.43903 0.86576 0.0
C947 C 0.38374 0.41992 0.89574 0.0
C948 C 0.35881 0.41024 0.90364 0.0
C949 C 0.43094 0.43541 0.88114 0.0
C950 C 0.4256 0.42364 0.90396 0.0
C951 C 0.40213 0.41663 0.91126 0.0
C952 C 0.44372 0.41566 0.91895 0.0
C953 C 0.45584 0.44288 0.87221 0.0
C954 C 0.44243 0.3908 0.921 0.0
C955 C 0.4589 0.38261 0.93532 0.0
C956 C 0.47708 0.39911 0.948 0.0
C957 C 0.47853 0.42408 0.94577 0.0
C958 C 0.46191 0.4323 0.93138 0.0
H959 H 0.45672 0.44856 0.85243 0.0
H960 H 0.46527 0.45832 0.88442 0.0
H961 H 0.46514 0.42775 0.87359 0.0
H962 H 0.42858 0.37766 0.91149 0.0
H963 H 0.45723 0.36326 0.93656 0.0
H964 H 0.3309 0.91605 0.36112 0.0
H965 H 0.3274 0.95323 0.38501 0.0
H966 H 0.26208 0.95266 0.34708 0.0
H967 H 0.26544 0.91554 0.32291 0.0
H968 H 0.31814 0.00074 0.36274 0.0
H969 H 0.25088 0.95281 0.42776 0.0
H970 H 0.27113 0.93754 0.41124 0.0
H971 H 0.24747 0.94546 0.39439 0.0
C972 C 0.31587 0.92391 0.3577 0.0
C973 C 0.2984 0.91279 0.34018 0.0
C974 C 0.31393 0.94515 0.37134 0.0
C975 C 0.29442 0.95549 0.36787 0.0
C976 C 0.2772 0.9448 0.35006 0.0
H977 H 0.25105 0.07157 0.45832 0.0
H978 H 0.25198 0.03808 0.42756 0.0
C979 C 0.2792 0.92365 0.33625 0.0
C980 C 0.29184 0.97712 0.38345 0.0
H981 H 0.2632 0.99492 0.43466 0.0
C982 C 0.30607 0.99958 0.37841 0.0
C983 C 0.27593 0.97544 0.40366 0.0
C984 C 0.26047 0.95155 0.40982 0.0
C985 C 0.30491 0.02051 0.39326 0.0
C986 C 0.28957 0.01871 0.4141 0.0
C987 C 0.27497 0.99628 0.41874 0.0
C988 C 0.28912 0.03959 0.43198 0.0
C989 C 0.31997 0.04435 0.38629 0.0
C990 C 0.3096 0.05137 0.4449 0.0
C991 C 0.30916 0.07055 0.46231 0.0
C992 C 0.28812 0.07816 0.46749 0.0
C993 C 0.26754 0.06618 0.45474 0.0
C994 C 0.26805 0.04706 0.43715 0.0
H995 H 0.3245 0.04415 0.36597 0.0
H996 H 0.31105 0.05959 0.39054 0.0
H997 H 0.33658 0.04773 0.39728 0.0
H998 H 0.32592 0.04548 0.4418 0.0
H999 H 0.32529 0.07919 0.47196 0.0
H1000 H 0.66665 0.72253 0.80666 0.0
H1001 H 0.64235 0.71733 0.84449 0.0
H1002 H 0.59556 0.75751 0.81195 0.0
H1003 H 0.61923 0.76219 0.77406 0.0
H1004 H 0.63449 0.75194 0.87658 0.0
H1005 H 0.5491 0.70219 0.83885 0.0
H1006 H 0.57575 0.70478 0.82094 0.0
H1007 H 0.55946 0.72858 0.82135 0.0
C1008 C 0.65096 0.7299 0.80743 0.0
C1009 C 0.64487 0.74277 0.78734 0.0
C1010 C 0.63709 0.72689 0.82903 0.0
C1011 C 0.61687 0.73663 0.8309 0.0
C1012 C 0.61064 0.74918 0.8107 0.0
H1013 H 0.55786 0.8022 0.9524 0.0
H1014 H 0.58042 0.78896 0.91798 0.0
C1015 C 0.62437 0.75206 0.78909 0.0
C1016 C 0.60353 0.73598 0.85475 0.0
H1017 H 0.54784 0.72663 0.87765 0.0
C1018 C 0.61559 0.74592 0.87691 0.0
C1019 C 0.57892 0.72768 0.85542 0.0
C1020 C 0.56513 0.71496 0.83289 0.0
C1021 C 0.60355 0.74939 0.89919 0.0
C1022 C 0.57878 0.74331 0.89913 0.0
C1023 C 0.56682 0.73172 0.87755 0.0
C1024 C 0.56502 0.75084 0.9204 0.0
C1025 C 0.61751 0.76006 0.92244 0.0
C1026 C 0.54821 0.73387 0.93268 0.0
C1027 C 0.53498 0.74145 0.95234 0.0
C1028 C 0.53831 0.76614 0.9599 0.0
C1029 C 0.55497 0.78303 0.94728 0.0
C1030 C 0.56805 0.77547 0.92768 0.0
H1031 H 0.63522 0.75573 0.92218 0.0
H1032 H 0.61985 0.78006 0.92298 0.0
H1033 H 0.60847 0.75329 0.9399 0.0
H1034 H 0.54542 0.71479 0.92714 0.0
H1035 H 0.52224 0.728 0.96163 0.0
loop_
_geom_bond_atom_site_label_1
_geom_bond_atom_site_label_2
_geom_bond_distance
_geom_bond_site_symmetry_2
_ccdc_geom_bond_type
O0 Cd1 2.300 . S
O0 C7 1.275 . S
Cd1 O0 2.300 . S
Cd1 O9 2.381 . S
Cd1 O10 2.378 . S
O2 Cd3 2.385 . S
O2 C7 1.255 . S
Cd3 O2 2.385 . S
Cd3 O4 2.317 . S
O4 Cd3 2.317 . S
O4 C5 1.232 . S
C5 O4 1.232 . S
C5 O6 1.218 . S
O6 C5 1.218 . S
C7 O0 1.275 . S
C7 O2 1.255 . S
C8 O9 1.258 . S
C8 O10 1.256 . S
O9 Cd1 2.381 . S
O9 C8 1.258 . S
O10 Cd1 2.378 . S
O10 C8 1.256 . S
O11 Cd12 2.300 . S
O11 C18 1.275 . S
Cd12 O11 2.300 . S
Cd12 O20 2.381 . S
Cd12 O21 2.378 . S
O13 Cd14 2.385 . S
O13 C18 1.255 . S
Cd14 O13 2.385 . S
Cd14 O15 2.317 . S
O15 Cd14 2.317 . S
O15 C16 1.232 . S
C16 O15 1.232 . S
C16 O17 1.218 . S
O17 C16 1.218 . S
C18 O11 1.275 . S
C18 O13 1.255 . S
C19 O20 1.258 . S
C19 O21 1.256 . S
O20 Cd12 2.381 . S
O20 C19 1.258 . S
O21 Cd12 2.378 . S
O21 C19 1.256 . S
O22 Cd23 2.300 . S
O22 C29 1.275 . S
Cd23 O22 2.300 . S
Cd23 O31 2.381 . S
Cd23 O32 2.378 . S
O24 Cd25 2.385 . S
O24 C29 1.255 . S
Cd25 O24 2.385 . S
Cd25 O26 2.317 . S
O26 Cd25 2.317 . S
O26 C27 1.232 . S
C27 O26 1.232 . S
C27 O28 1.218 . S
O28 C27 1.218 . S
C29 O22 1.275 . S
C29 O24 1.255 . S
C30 O31 1.258 . S
C30 O32 1.256 . S
O31 Cd23 2.381 . S
O31 C30 1.258 . S
O32 Cd23 2.378 . S
O32 C30 1.256 . S
O33 Cd34 2.300 . S
O33 C40 1.275 . S
Cd34 O33 2.300 . S
Cd34 O42 2.381 . S
Cd34 O43 2.378 . S
O35 Cd36 2.385 . S
O35 C40 1.255 . S
Cd36 O35 2.385 . S
Cd36 O37 2.317 . S
O37 Cd36 2.317 . S
O37 C38 1.232 . S
C38 O37 1.232 . S
C38 O39 1.218 . S
O39 C38 1.218 . S
C40 O33 1.275 . S
C40 O35 1.255 . S
C41 O42 1.258 . S
C41 O43 1.256 . S
O42 Cd34 2.381 . S
O42 C41 1.258 . S
O43 Cd34 2.378 . S
O43 C41 1.256 . S
O44 Cd45 2.300 . S
O44 C51 1.275 . S
Cd45 O44 2.300 . S
Cd45 O53 2.381 . S
Cd45 O54 2.378 . S
O46 Cd47 2.385 . S
O46 C51 1.255 . S
Cd47 O46 2.385 . S
Cd47 O48 2.317 . S
O48 Cd47 2.317 . S
O48 C49 1.232 . S
C49 O48 1.232 . S
C49 O50 1.218 . S
O50 C49 1.218 . S
C51 O44 1.275 . S
C51 O46 1.255 . S
C52 O53 1.258 . S
C52 O54 1.256 . S
O53 Cd45 2.381 . S
O53 C52 1.258 . S
O54 Cd45 2.378 . S
O54 C52 1.256 . S
O55 Cd56 2.300 . S
O55 C62 1.275 . S
Cd56 O55 2.300 . S
Cd56 O64 2.381 . S
Cd56 O65 2.378 . S
O57 Cd58 2.385 . S
O57 C62 1.255 . S
Cd58 O57 2.385 . S
Cd58 O59 2.317 . S
O59 Cd58 2.317 . S
O59 C60 1.232 . S
C60 O59 1.232 . S
C60 O61 1.218 . S
O61 C60 1.218 . S
C62 O55 1.275 . S
C62 O57 1.255 . S
C63 O64 1.258 . S
C63 O65 1.256 . S
O64 Cd56 2.381 . S
O64 C63 1.258 . S
O65 Cd56 2.378 . S
O65 C63 1.256 . S
O66 Cd67 2.300 . S
O66 C73 1.275 . S
Cd67 O66 2.300 . S
Cd67 O75 2.381 . S
Cd67 O76 2.378 . S
O68 Cd69 2.385 . S
O68 C73 1.255 . S
Cd69 O68 2.385 . S
Cd69 O70 2.317 . S
O70 Cd69 2.317 . S
O70 C71 1.232 . S
C71 O70 1.232 . S
C71 O72 1.218 . S
O72 C71 1.218 . S
C73 O66 1.275 . S
C73 O68 1.255 . S
C74 O75 1.258 . S
C74 O76 1.256 . S
O75 Cd67 2.381 . S
O75 C74 1.258 . S
O76 Cd67 2.378 . S
O76 C74 1.256 . S
O77 Cd78 2.300 . S
O77 C84 1.275 . S
Cd78 O77 2.300 . S
Cd78 O86 2.381 . S
Cd78 O87 2.378 . S
O79 Cd80 2.385 . S
O79 C84 1.255 . S
Cd80 O79 2.385 . S
Cd80 O81 2.317 . S
O81 Cd80 2.317 . S
O81 C82 1.232 . S
C82 O81 1.232 . S
C82 O83 1.218 . S
O83 C82 1.218 . S
C84 O77 1.275 . S
C84 O79 1.255 . S
C85 O86 1.258 . S
C85 O87 1.256 . S
O86 Cd78 2.381 . S
O86 C85 1.258 . S
O87 Cd78 2.378 . S
O87 C85 1.256 . S
C88 O90 1.246 . S
C88 O92 1.258 . S
C89 O96 1.247 . S
C89 O97 1.258 . S
O90 C88 1.246 . S
O90 Zn91 2.028 . S
Zn91 O90 2.028 . S
Zn91 O95 2.035 . S
Zn91 O97 2.035 . S
Zn91 O98 2.028 . S
O92 C88 1.258 . S
O92 Zn93 2.035 . S
Zn93 O92 2.035 . S
Zn93 O94 2.028 . S
Zn93 O96 2.028 . S
Zn93 O99 2.035 . S
O94 Zn93 2.028 . S
O94 C100 1.247 . S
O95 Zn91 2.035 . S
O95 C100 1.258 . S
O96 C89 1.247 . S
O96 Zn93 2.028 . S
O97 C89 1.258 . S
O97 Zn91 2.035 . S
O98 Zn91 2.028 . S
O98 C101 1.247 . S
O99 Zn93 2.035 . S
O99 C101 1.258 . S
C100 O94 1.247 . S
C100 O95 1.258 . S
C101 O98 1.247 . S
C101 O99 1.258 . S
C102 O104 1.247 . S
C102 O106 1.258 . S
C103 O110 1.247 . S
C103 O111 1.258 . S
O104 C102 1.247 . S
O104 Zn105 2.028 1_655 S
Zn105 O104 2.028 1_455 S
Zn105 O109 2.035 . S
Zn105 O111 2.035 . S
Zn105 O112 2.028 1_455 S
O106 C102 1.258 . S
O106 Zn107 2.035 1_655 S
Zn107 O106 2.035 1_455 S
Zn107 O108 2.028 . S
Zn107 O110 2.028 . S
Zn107 O113 2.035 1_455 S
O108 Zn107 2.028 . S
O108 C114 1.247 . S
O109 Zn105 2.035 . S
O109 C114 1.258 . S
O110 C103 1.247 . S
O110 Zn107 2.028 . S
O111 C103 1.258 . S
O111 Zn105 2.035 . S
O112 Zn105 2.028 1_655 S
O112 C115 1.247 . S
O113 Zn107 2.035 1_655 S
O113 C115 1.258 . S
C114 O108 1.247 . S
C114 O109 1.258 . S
C115 O112 1.247 . S
C115 O113 1.258 . S
C116 O118 1.247 . S
C116 O120 1.258 . S
C117 O124 1.247 . S
C117 O125 1.258 . S
O118 C116 1.247 . S
O118 Zn119 2.028 . S
Zn119 O118 2.028 . S
Zn119 O123 2.035 . S
Zn119 O125 2.035 . S
Zn119 O126 2.028 . S
O120 C116 1.258 . S
O120 Zn121 2.035 . S
Zn121 O120 2.035 . S
Zn121 O122 2.028 . S
Zn121 O124 2.028 . S
Zn121 O127 2.035 . S
O122 Zn121 2.028 . S
O122 C128 1.247 . S
O123 Zn119 2.035 . S
O123 C128 1.258 . S
O124 C117 1.247 . S
O124 Zn121 2.028 . S
O125 C117 1.258 . S
O125 Zn119 2.035 . S
O126 Zn119 2.028 . S
O126 C129 1.247 . S
O127 Zn121 2.035 . S
O127 C129 1.258 . S
C128 O122 1.247 . S
C128 O123 1.258 . S
C129 O126 1.247 . S
C129 O127 1.258 . S
C130 O132 1.247 . S
C130 O134 1.258 . S
C131 O138 1.247 . S
C131 O139 1.258 . S
O132 C130 1.247 . S
O132 Zn133 2.028 . S
Zn133 O132 2.028 . S
Zn133 O137 2.035 . S
Zn133 O139 2.035 1_554 S
Zn133 O140 2.028 1_554 S
O134 C130 1.258 . S
O134 Zn135 2.035 . S
Zn135 O134 2.035 . S
Zn135 O136 2.028 . S
Zn135 O138 2.028 1_554 S
Zn135 O141 2.035 1_554 S
O136 Zn135 2.028 . S
O136 C142 1.247 . S
O137 Zn133 2.035 . S
O137 C142 1.258 . S
O138 C131 1.247 . S
O138 Zn135 2.028 1_556 S
O139 C131 1.258 . S
O139 Zn133 2.035 1_556 S
O140 Zn133 2.028 1_556 S
O140 C143 1.247 . S
O141 Zn135 2.035 1_556 S
O141 C143 1.258 . S
C142 O136 1.247 . S
C142 O137 1.258 . S
C143 O140 1.247 . S
C143 O141 1.258 . S
C144 O146 1.247 . S
C144 O148 1.258 . S
C145 O152 1.247 . S
C145 O153 1.258 . S
O146 C144 1.247 . S
O146 Zn147 2.028 . S
Zn147 O146 2.028 . S
Zn147 O151 2.035 1_565 S
Zn147 O153 2.035 1_565 S
Zn147 O154 2.028 . S
O148 C144 1.258 . S
O148 Zn149 2.035 1_565 S
Zn149 O148 2.035 1_545 S
Zn149 O150 2.028 . S
Zn149 O152 2.028 . S
Zn149 O155 2.035 1_545 S
O150 Zn149 2.028 . S
O150 C156 1.247 . S
O151 Zn147 2.035 1_545 S
O151 C156 1.258 . S
O152 C145 1.247 . S
O152 Zn149 2.028 . S
O153 C145 1.258 . S
O153 Zn147 2.035 1_545 S
O154 Zn147 2.028 . S
O154 C157 1.247 . S
O155 Zn149 2.035 1_565 S
O155 C157 1.258 . S
C156 O150 1.247 . S
C156 O151 1.258 . S
C157 O154 1.247 . S
C157 O155 1.258 . S
C158 O160 1.247 . S
C158 O162 1.258 . S
C159 O166 1.247 . S
C159 O167 1.258 . S
O160 C158 1.247 . S
O160 Zn161 2.028 . S
Zn161 O160 2.028 . S
Zn161 O165 2.035 . S
Zn161 O167 2.035 1_554 S
Zn161 O168 2.028 1_554 S
O162 C158 1.258 . S
O162 Zn163 2.035 . S
Zn163 O162 2.035 . S
Zn163 O164 2.028 . S
Zn163 O166 2.028 1_554 S
Zn163 O169 2.035 1_554 S
O164 Zn163 2.028 . S
O164 C170 1.247 . S
O165 Zn161 2.035 . S
O165 C170 1.258 . S
O166 C159 1.247 . S
O166 Zn163 2.028 1_556 S
O167 C159 1.258 . S
O167 Zn161 2.035 1_556 S
O168 Zn161 2.028 1_556 S
O168 C171 1.247 . S
O169 Zn163 2.035 1_556 S
O169 C171 1.258 . S
C170 O164 1.247 . S
C170 O165 1.258 . S
C171 O168 1.247 . S
C171 O169 1.258 . S
H172 C180 0.929 . S
H173 C182 0.930 . S
H174 C184 0.930 . S
H175 C187 0.929 . S
H176 C190 0.930 . S
H177 C192 0.960 . S
H178 C192 0.960 . S
H179 C192 0.960 . S
C180 H172 0.929 . S
C180 C181 1.377 . S
C180 C182 1.384 . S
C181 C180 1.377 . S
C181 C187 1.390 . S
C182 H173 0.930 . S
C182 C180 1.384 . S
C182 C183 1.372 . S
C183 C182 1.372 . S
C183 C184 1.400 . S
C183 C188 1.490 . S
C184 H174 0.930 . S
C184 C183 1.400 . S
C184 C187 1.386 . S
H185 C201 0.930 . S
H186 C202 0.931 . S
C187 H175 0.929 . S
C187 C181 1.390 . S
C187 C184 1.386 . S
C188 C183 1.490 . S
C188 C190 1.395 . S
C188 C191 1.403 . S
H189 C195 0.930 . S
C190 H176 0.930 . S
C190 C188 1.395 . S
C190 C193 1.403 . S
C191 C188 1.403 . S
C191 C192 1.524 . S
C191 C195 1.400 . S
C192 H177 0.960 . S
C192 H178 0.960 . S
C192 H179 0.960 . S
C192 C191 1.524 . S
C193 C190 1.403 . S
C193 C194 1.392 . S
C193 C197 1.495 . S
C194 C193 1.392 . S
C194 C195 1.385 . S
C194 C196 1.478 . S
C195 H189 0.930 . S
C195 C191 1.400 . S
C195 C194 1.385 . S
C196 C194 1.478 . S
C196 C198 1.381 . S
C196 C202 1.383 . S
C197 C193 1.495 . S
C197 H203 0.959 . S
C197 H204 0.961 . S
C197 H205 0.960 . S
C198 C196 1.381 . S
C198 C199 1.394 . S
C198 H206 0.930 . S
C199 C198 1.394 . S
C199 C200 1.383 . S
C199 H207 0.929 . S
C200 C199 1.383 . S
C200 C201 1.377 . S
C201 H185 0.930 . S
C201 C200 1.377 . S
C201 C202 1.379 . S
C202 H186 0.931 . S
C202 C196 1.383 . S
C202 C201 1.379 . S
H203 C197 0.959 . S
H204 C197 0.961 . S
H205 C197 0.960 . S
H206 C198 0.930 . S
H207 C199 0.929 . S
H208 C216 0.929 . S
H209 C218 0.930 . S
H210 C220 0.930 . S
H211 C223 0.929 . S
H212 C226 0.930 . S
H213 C228 0.960 . S
H214 C228 0.960 . S
H215 C228 0.960 . S
C216 H208 0.929 . S
C216 C217 1.377 . S
C216 C218 1.384 . S
C217 C216 1.377 . S
C217 C223 1.390 . S
C218 H209 0.930 . S
C218 C216 1.384 . S
C218 C219 1.372 . S
C219 C218 1.372 . S
C219 C220 1.400 . S
C219 C224 1.490 . S
C220 H210 0.930 . S
C220 C219 1.400 . S
C220 C223 1.386 . S
H221 C237 0.930 . S
H222 C238 0.931 . S
C223 H211 0.929 . S
C223 C217 1.390 . S
C223 C220 1.386 . S
C224 C219 1.490 . S
C224 C226 1.395 . S
C224 C227 1.403 . S
H225 C231 0.930 . S
C226 H212 0.930 . S
C226 C224 1.395 . S
C226 C229 1.403 . S
C227 C224 1.403 . S
C227 C228 1.524 . S
C227 C231 1.400 . S
C228 H213 0.960 . S
C228 H214 0.960 . S
C228 H215 0.960 . S
C228 C227 1.524 . S
C229 C226 1.403 . S
C229 C230 1.392 . S
C229 C233 1.495 . S
C230 C229 1.392 . S
C230 C231 1.385 . S
C230 C232 1.478 . S
C231 H225 0.930 . S
C231 C227 1.400 . S
C231 C230 1.385 . S
C232 C230 1.478 . S
C232 C234 1.381 . S
C232 C238 1.383 . S
C233 C229 1.495 . S
C233 H239 0.959 . S
C233 H240 0.961 . S
C233 H241 0.960 . S
C234 C232 1.381 . S
C234 C235 1.394 . S
C234 H242 0.930 . S
C235 C234 1.394 . S
C235 C236 1.383 . S
C235 H243 0.929 . S
C236 C235 1.383 . S
C236 C237 1.377 . S
C237 H221 0.930 . S
C237 C236 1.377 . S
C237 C238 1.379 . S
C238 H222 0.931 . S
C238 C232 1.383 . S
C238 C237 1.379 . S
H239 C233 0.959 . S
H240 C233 0.961 . S
H241 C233 0.960 . S
H242 C234 0.930 . S
H243 C235 0.929 . S
H244 C252 0.929 . S
H245 C254 0.930 . S
H246 C256 0.930 . S
H247 C259 0.929 . S
H248 C262 0.930 . S
H249 C264 0.960 . S
H250 C264 0.960 . S
H251 C264 0.960 . S
C252 H244 0.929 . S
C252 C253 1.377 . S
C252 C254 1.384 . S
C253 C252 1.377 . S
C253 C259 1.390 . S
C254 H245 0.930 . S
C254 C252 1.384 . S
C254 C255 1.372 . S
C255 C254 1.372 . S
C255 C256 1.400 . S
C255 C260 1.490 . S
C256 H246 0.930 . S
C256 C255 1.400 . S
C256 C259 1.386 . S
H257 C273 0.930 . S
H258 C274 0.931 . S
C259 H247 0.929 . S
C259 C253 1.390 . S
C259 C256 1.386 . S
C260 C255 1.490 . S
C260 C262 1.395 . S
C260 C263 1.403 . S
H261 C267 0.930 . S
C262 H248 0.930 . S
C262 C260 1.395 . S
C262 C265 1.403 . S
C263 C260 1.403 . S
C263 C264 1.524 . S
C263 C267 1.400 . S
C264 H249 0.960 . S
C264 H250 0.960 . S
C264 H251 0.960 . S
C264 C263 1.524 . S
C265 C262 1.403 . S
C265 C266 1.392 . S
C265 C269 1.495 . S
C266 C265 1.392 . S
C266 C267 1.385 . S
C266 C268 1.478 . S
C267 H261 0.930 . S
C267 C263 1.400 . S
C267 C266 1.385 . S
C268 C266 1.478 . S
C268 C270 1.381 . S
C268 C274 1.383 . S
C269 C265 1.495 . S
C269 H275 0.959 . S
C269 H276 0.961 . S
C269 H277 0.960 . S
C270 C268 1.381 . S
C270 C271 1.394 . S
C270 H278 0.930 . S
C271 C270 1.394 . S
C271 C272 1.383 . S
C271 H279 0.929 . S
C272 C271 1.383 . S
C272 C273 1.377 . S
C273 H257 0.930 . S
C273 C272 1.377 . S
C273 C274 1.379 . S
C274 H258 0.931 . S
C274 C268 1.383 . S
C274 C273 1.379 . S
H275 C269 0.959 . S
H276 C269 0.961 . S
H277 C269 0.960 . S
H278 C270 0.930 . S
H279 C271 0.929 . S
H280 C288 0.929 . S
H281 C290 0.930 . S
H282 C292 0.930 . S
H283 C295 0.929 . S
H284 C298 0.930 . S
H285 C300 0.960 . S
H286 C300 0.960 . S
H287 C300 0.960 . S
C288 H280 0.929 . S
C288 C289 1.377 . S
C288 C290 1.384 . S
C289 C288 1.377 . S
C289 C295 1.390 . S
C290 H281 0.930 . S
C290 C288 1.384 . S
C290 C291 1.372 . S
C291 C290 1.372 . S
C291 C292 1.400 . S
C291 C296 1.490 . S
C292 H282 0.930 . S
C292 C291 1.400 . S
C292 C295 1.386 . S
H293 C309 0.930 . S
H294 C310 0.931 . S
C295 H283 0.929 . S
C295 C289 1.390 . S
C295 C292 1.386 . S
C296 C291 1.490 . S
C296 C298 1.395 . S
C296 C299 1.403 . S
H297 C303 0.930 . S
C298 H284 0.930 . S
C298 C296 1.395 . S
C298 C301 1.403 . S
C299 C296 1.403 . S
C299 C300 1.524 . S
C299 C303 1.400 . S
C300 H285 0.960 . S
C300 H286 0.960 . S
C300 H287 0.960 . S
C300 C299 1.524 . S
C301 C298 1.403 . S
C301 C302 1.392 . S
C301 C305 1.495 . S
C302 C301 1.392 . S
C302 C303 1.385 . S
C302 C304 1.478 . S
C303 H297 0.930 . S
C303 C299 1.400 . S
C303 C302 1.385 . S
C304 C302 1.478 . S
C304 C306 1.381 . S
C304 C310 1.383 . S
C305 C301 1.495 . S
C305 H311 0.959 . S
C305 H312 0.961 . S
C305 H313 0.960 . S
C306 C304 1.381 . S
C306 C307 1.394 . S
C306 H314 0.930 . S
C307 C306 1.394 . S
C307 C308 1.383 . S
C307 H315 0.929 . S
C308 C307 1.383 . S
C308 C309 1.377 . S
C309 H293 0.930 . S
C309 C308 1.377 . S
C309 C310 1.379 . S
C310 H294 0.931 . S
C310 C304 1.383 . S
C310 C309 1.379 . S
H311 C305 0.959 . S
H312 C305 0.961 . S
H313 C305 0.960 . S
H314 C306 0.930 . S
H315 C307 0.929 . S
H316 C324 0.929 . S
H317 C326 0.930 . S
H318 C328 0.930 . S
H319 C331 0.929 . S
H320 C334 0.930 . S
H321 C336 0.960 . S
H322 C336 0.960 . S
H323 C336 0.960 . S
C324 H316 0.929 . S
C324 C325 1.377 . S
C324 C326 1.384 . S
C325 C324 1.377 . S
C325 C331 1.390 . S
C326 H317 0.930 . S
C326 C324 1.384 . S
C326 C327 1.372 . S
C327 C326 1.372 . S
C327 C328 1.400 . S
C327 C332 1.490 . S
C328 H318 0.930 . S
C328 C327 1.400 . S
C328 C331 1.386 . S
H329 C345 0.930 . S
H330 C346 0.931 . S
C331 H319 0.929 . S
C331 C325 1.390 . S
C331 C328 1.386 . S
C332 C327 1.490 . S
C332 C334 1.395 . S
C332 C335 1.403 . S
H333 C339 0.930 . S
C334 H320 0.930 . S
C334 C332 1.395 . S
C334 C337 1.403 . S
C335 C332 1.403 . S
C335 C336 1.524 . S
C335 C339 1.400 . S
C336 H321 0.960 . S
C336 H322 0.960 . S
C336 H323 0.960 . S
C336 C335 1.524 . S
C337 C334 1.403 . S
C337 C338 1.392 . S
C337 C341 1.495 . S
C338 C337 1.392 . S
C338 C339 1.385 . S
C338 C340 1.478 . S
C339 H333 0.930 . S
C339 C335 1.400 . S
C339 C338 1.385 . S
C340 C338 1.478 . S
C340 C342 1.381 . S
C340 C346 1.383 . S
C341 C337 1.495 . S
C341 H347 0.959 . S
C341 H348 0.961 . S
C341 H349 0.960 . S
C342 C340 1.381 . S
C342 C343 1.394 . S
C342 H350 0.930 . S
C343 C342 1.394 . S
C343 C344 1.383 . S
C343 H351 0.929 . S
C344 C343 1.383 . S
C344 C345 1.377 . S
C345 H329 0.930 . S
C345 C344 1.377 . S
C345 C346 1.379 . S
C346 H330 0.931 . S
C346 C340 1.383 . S
C346 C345 1.379 . S
H347 C341 0.959 . S
H348 C341 0.961 . S
H349 C341 0.960 . S
H350 C342 0.930 . S
H351 C343 0.929 . S
H352 C360 0.929 . S
H353 C362 0.930 . S
H354 C364 0.930 . S
H355 C367 0.929 . S
H356 C370 0.930 . S
H357 C372 0.960 . S
H358 C372 0.960 . S
H359 C372 0.960 . S
C360 H352 0.929 . S
C360 C361 1.377 . S
C360 C362 1.384 . S
C361 C360 1.377 . S
C361 C367 1.390 . S
C362 H353 0.930 . S
C362 C360 1.384 . S
C362 C363 1.372 . S
C363 C362 1.372 . S
C363 C364 1.400 . S
C363 C368 1.490 . S
C364 H354 0.930 . S
C364 C363 1.400 . S
C364 C367 1.386 . S
H365 C381 0.930 . S
H366 C382 0.931 . S
C367 H355 0.929 . S
C367 C361 1.390 . S
C367 C364 1.386 . S
C368 C363 1.490 . S
C368 C370 1.395 . S
C368 C371 1.403 . S
H369 C375 0.930 . S
C370 H356 0.930 . S
C370 C368 1.395 . S
C370 C373 1.403 . S
C371 C368 1.403 . S
C371 C372 1.524 . S
C371 C375 1.400 . S
C372 H357 0.960 . S
C372 H358 0.960 . S
C372 H359 0.960 . S
C372 C371 1.524 . S
C373 C370 1.403 . S
C373 C374 1.392 . S
C373 C377 1.495 . S
C374 C373 1.392 . S
C374 C375 1.385 . S
C374 C376 1.478 . S
C375 H369 0.930 . S
C375 C371 1.400 . S
C375 C374 1.385 . S
C376 C374 1.478 . S
C376 C378 1.381 . S
C376 C382 1.383 . S
C377 C373 1.495 . S
C377 H383 0.959 . S
C377 H384 0.961 . S
C377 H385 0.960 . S
C378 C376 1.381 . S
C378 C379 1.394 . S
C378 H386 0.930 . S
C379 C378 1.394 . S
C379 C380 1.383 . S
C379 H387 0.929 . S
C380 C379 1.383 . S
C380 C381 1.377 . S
C381 H365 0.930 . S
C381 C380 1.377 . S
C381 C382 1.379 . S
C382 H366 0.931 . S
C382 C376 1.383 . S
C382 C381 1.379 . S
H383 C377 0.959 . S
H384 C377 0.961 . S
H385 C377 0.960 . S
H386 C378 0.930 . S
H387 C379 0.929 . S
H388 C396 0.929 . S
H389 C398 0.930 . S
H390 C400 0.930 . S
H391 C403 0.929 . S
H392 C406 0.930 . S
H393 C408 0.960 . S
H394 C408 0.960 . S
H395 C408 0.960 . S
C396 H388 0.929 . S
C396 C397 1.377 . S
C396 C398 1.384 . S
C397 C396 1.377 . S
C397 C403 1.390 . S
C398 H389 0.930 . S
C398 C396 1.384 . S
C398 C399 1.372 . S
C399 C398 1.372 . S
C399 C400 1.400 . S
C399 C404 1.490 . S
C400 H390 0.930 . S
C400 C399 1.400 . S
C400 C403 1.386 . S
H401 C417 0.930 . S
H402 C418 0.931 . S
C403 H391 0.929 . S
C403 C397 1.390 . S
C403 C400 1.386 . S
C404 C399 1.490 . S
C404 C406 1.395 . S
C404 C407 1.403 . S
H405 C411 0.930 . S
C406 H392 0.930 . S
C406 C404 1.395 . S
C406 C409 1.403 . S
C407 C404 1.403 . S
C407 C408 1.524 . S
C407 C411 1.400 . S
C408 H393 0.960 . S
C408 H394 0.960 . S
C408 H395 0.960 . S
C408 C407 1.524 . S
C409 C406 1.403 . S
C409 C410 1.392 . S
C409 C413 1.495 . S
C410 C409 1.392 . S
C410 C411 1.385 . S
C410 C412 1.478 . S
C411 H405 0.930 . S
C411 C407 1.400 . S
C411 C410 1.385 . S
C412 C410 1.478 . S
C412 C414 1.381 . S
C412 C418 1.383 . S
C413 C409 1.495 . S
C413 H419 0.959 . S
C413 H420 0.961 . S
C413 H421 0.960 . S
C414 C412 1.381 . S
C414 C415 1.394 . S
C414 H422 0.930 . S
C415 C414 1.394 . S
C415 C416 1.383 . S
C415 H423 0.929 . S
C416 C415 1.383 . S
C416 C417 1.377 . S
C417 H401 0.930 . S
C417 C416 1.377 . S
C417 C418 1.379 . S
C418 H402 0.931 . S
C418 C412 1.383 . S
C418 C417 1.379 . S
H419 C413 0.959 . S
H420 C413 0.961 . S
H421 C413 0.960 . S
H422 C414 0.930 . S
H423 C415 0.929 . S
H424 C432 0.929 . S
H425 C434 0.930 . S
H426 C436 0.930 . S
H427 C439 0.929 . S
H428 C442 0.930 . S
H429 C444 0.960 . S
H430 C444 0.960 . S
H431 C444 0.960 . S
C432 H424 0.929 . S
C432 C433 1.377 . S
C432 C434 1.384 . S
C433 C432 1.377 . S
C433 C439 1.390 . S
C434 H425 0.930 . S
C434 C432 1.384 . S
C434 C435 1.372 . S
C435 C434 1.372 . S
C435 C436 1.400 . S
C435 C440 1.490 . S
C436 H426 0.930 . S
C436 C435 1.400 . S
C436 C439 1.386 . S
H437 C453 0.930 . S
H438 C454 0.931 . S
C439 H427 0.929 . S
C439 C433 1.390 . S
C439 C436 1.386 . S
C440 C435 1.490 . S
C440 C442 1.395 . S
C440 C443 1.403 . S
H441 C447 0.930 . S
C442 H428 0.930 . S
C442 C440 1.395 . S
C442 C445 1.403 . S
C443 C440 1.403 . S
C443 C444 1.524 . S
C443 C447 1.400 . S
C444 H429 0.960 . S
C444 H430 0.960 . S
C444 H431 0.960 . S
C444 C443 1.524 . S
C445 C442 1.403 . S
C445 C446 1.392 . S
C445 C449 1.495 . S
C446 C445 1.392 . S
C446 C447 1.385 . S
C446 C448 1.478 . S
C447 H441 0.930 . S
C447 C443 1.400 . S
C447 C446 1.385 . S
C448 C446 1.478 . S
C448 C450 1.381 . S
C448 C454 1.383 . S
C449 C445 1.495 . S
C449 H455 0.959 . S
C449 H456 0.961 . S
C449 H457 0.960 . S
C450 C448 1.381 . S
C450 C451 1.394 . S
C450 H458 0.930 . S
C451 C450 1.394 . S
C451 C452 1.383 . S
C451 H459 0.929 . S
C452 C451 1.383 . S
C452 C453 1.377 . S
C453 H437 0.930 . S
C453 C452 1.377 . S
C453 C454 1.379 . S
C454 H438 0.931 . S
C454 C448 1.383 . S
C454 C453 1.379 . S
H455 C449 0.959 . S
H456 C449 0.961 . S
H457 C449 0.960 . S
H458 C450 0.930 . S
H459 C451 0.929 . S
H460 C468 0.929 . S
H461 C470 0.930 . S
H462 C472 0.930 . S
H463 C475 0.929 . S
H464 C478 0.930 . S
H465 C480 0.960 1_545 S
H466 C480 0.960 . S
H467 C480 0.957 1_545 S
C468 H460 0.929 . S
C468 C469 1.377 . S
C468 C470 1.384 . S
C469 C468 1.377 . S
C469 C475 1.390 . S
C470 H461 0.930 . S
C470 C468 1.384 . S
C470 C471 1.372 . S
C471 C470 1.372 . S
C471 C472 1.400 . S
C471 C476 1.490 . S
C472 H462 0.930 . S
C472 C471 1.400 . S
C472 C475 1.386 . S
H473 C489 0.930 . S
H474 C490 0.931 . S
C475 H463 0.929 . S
C475 C469 1.390 . S
C475 C472 1.386 . S
C476 C471 1.490 . S
C476 C478 1.395 . S
C476 C479 1.403 1_565 S
H477 C483 0.930 . S
C478 H464 0.930 . S
C478 C476 1.395 . S
C478 C481 1.403 1_565 S
C479 C476 1.403 1_545 S
C479 C480 1.524 1_545 S
C479 C483 1.400 . S
C480 H465 0.960 1_565 S
C480 H466 0.960 . S
C480 H467 0.957 1_565 S
C480 C479 1.524 1_565 S
C481 C478 1.403 1_545 S
C481 C482 1.392 . S
C481 C485 1.495 . S
C482 C481 1.392 . S
C482 C483 1.385 . S
C482 C484 1.478 . S
C483 H477 0.930 . S
C483 C479 1.400 . S
C483 C482 1.385 . S
C484 C482 1.478 . S
C484 C486 1.381 . S
C484 C490 1.383 . S
C485 C481 1.495 . S
C485 H491 0.959 . S
C485 H492 0.961 . S
C485 H493 0.960 . S
C486 C484 1.381 . S
C486 C487 1.394 . S
C486 H494 0.930 . S
C487 C486 1.394 . S
C487 C488 1.383 . S
C487 H495 0.929 . S
C488 C487 1.383 . S
C488 C489 1.377 . S
C489 H473 0.930 . S
C489 C488 1.377 . S
C489 C490 1.379 . S
C490 H474 0.931 . S
C490 C484 1.383 . S
C490 C489 1.379 . S
H491 C485 0.959 . S
H492 C485 0.961 . S
H493 C485 0.960 . S
H494 C486 0.930 . S
H495 C487 0.929 . S
H496 C504 0.929 . S
H497 C506 0.930 . S
H498 C508 0.930 . S
H499 C511 0.929 . S
H500 C514 0.930 . S
H501 C516 0.960 . S
H502 C516 0.960 . S
H503 C516 0.960 . S
C504 H496 0.929 . S
C504 C505 1.377 . S
C504 C506 1.384 . S
C505 C504 1.377 . S
C505 C511 1.390 . S
C506 H497 0.930 . S
C506 C504 1.384 . S
C506 C507 1.372 . S
C507 C506 1.372 . S
C507 C508 1.400 . S
C507 C512 1.490 . S
C508 H498 0.930 . S
C508 C507 1.400 . S
C508 C511 1.386 . S
H509 C525 0.930 . S
H510 C526 0.931 . S
C511 H499 0.929 . S
C511 C505 1.390 . S
C511 C508 1.386 . S
C512 C507 1.490 . S
C512 C514 1.395 . S
C512 C515 1.403 . S
H513 C519 0.930 . S
C514 H500 0.930 . S
C514 C512 1.395 . S
C514 C517 1.403 . S
C515 C512 1.403 . S
C515 C516 1.524 . S
C515 C519 1.400 . S
C516 H501 0.960 . S
C516 H502 0.960 . S
C516 H503 0.960 . S
C516 C515 1.524 . S
C517 C514 1.403 . S
C517 C518 1.392 . S
C517 C521 1.495 . S
C518 C517 1.392 . S
C518 C519 1.385 . S
C518 C520 1.478 . S
C519 H513 0.930 . S
C519 C515 1.400 . S
C519 C518 1.385 . S
C520 C518 1.478 . S
C520 C522 1.381 . S
C520 C526 1.383 . S
C521 C517 1.495 . S
C521 H527 0.959 . S
C521 H528 0.961 . S
C521 H529 0.960 . S
C522 C520 1.381 . S
C522 C523 1.394 . S
C522 H530 0.930 . S
C523 C522 1.394 . S
C523 C524 1.383 . S
C523 H531 0.929 . S
C524 C523 1.383 . S
C524 C525 1.377 . S
C525 H509 0.930 . S
C525 C524 1.377 . S
C525 C526 1.379 . S
C526 H510 0.931 . S
C526 C520 1.383 . S
C526 C525 1.379 . S
H527 C521 0.959 . S
H528 C521 0.961 . S
H529 C521 0.960 . S
H530 C522 0.930 . S
H531 C523 0.929 . S
H532 C540 0.929 . S
H533 C542 0.930 . S
H534 C544 0.930 . S
H535 C547 0.929 . S
H536 C550 0.930 . S
H537 C552 0.960 . S
H538 C552 0.960 . S
H539 C552 0.960 . S
C540 H532 0.929 . S
C540 C541 1.377 . S
C540 C542 1.384 . S
C541 C540 1.377 . S
C541 C547 1.390 . S
C542 H533 0.930 . S
C542 C540 1.384 . S
C542 C543 1.372 . S
C543 C542 1.372 . S
C543 C544 1.400 . S
C543 C548 1.490 . S
C544 H534 0.930 . S
C544 C543 1.400 . S
C544 C547 1.386 . S
H545 C561 0.930 . S
H546 C562 0.931 . S
C547 H535 0.929 . S
C547 C541 1.390 . S
C547 C544 1.386 . S
C548 C543 1.490 . S
C548 C550 1.395 . S
C548 C551 1.403 . S
H549 C555 0.930 . S
C550 H536 0.930 . S
C550 C548 1.395 . S
C550 C553 1.403 . S
C551 C548 1.403 . S
C551 C552 1.524 . S
C551 C555 1.400 . S
C552 H537 0.960 . S
C552 H538 0.960 . S
C552 H539 0.960 . S
C552 C551 1.524 . S
C553 C550 1.403 . S
C553 C554 1.392 . S
C553 C557 1.495 . S
C554 C553 1.392 . S
C554 C555 1.385 . S
C554 C556 1.478 . S
C555 H549 0.930 . S
C555 C551 1.400 . S
C555 C554 1.385 . S
C556 C554 1.478 . S
C556 C558 1.381 . S
C556 C562 1.383 . S
C557 C553 1.495 . S
C557 H563 0.959 . S
C557 H564 0.961 . S
C557 H565 0.960 . S
C558 C556 1.381 . S
C558 C559 1.394 . S
C558 H566 0.930 . S
C559 C558 1.394 . S
C559 C560 1.383 . S
C559 H567 0.929 . S
C560 C559 1.383 . S
C560 C561 1.377 . S
C561 H545 0.930 . S
C561 C560 1.377 . S
C561 C562 1.379 . S
C562 H546 0.931 . S
C562 C556 1.383 . S
C562 C561 1.379 . S
H563 C557 0.959 . S
H564 C557 0.961 . S
H565 C557 0.960 . S
H566 C558 0.930 . S
H567 C559 0.929 . S
H568 C576 0.929 . S
H569 C578 0.930 . S
H570 C580 0.930 . S
H571 C583 0.929 . S
H572 C586 0.930 . S
H573 C588 0.960 . S
H574 C588 0.960 . S
H575 C588 0.960 . S
C576 H568 0.929 . S
C576 C577 1.377 . S
C576 C578 1.384 . S
C577 C576 1.377 . S
C577 C583 1.390 . S
C578 H569 0.930 . S
C578 C576 1.384 . S
C578 C579 1.372 . S
C579 C578 1.372 . S
C579 C580 1.400 . S
C579 C584 1.490 . S
C580 H570 0.930 . S
C580 C579 1.400 . S
C580 C583 1.386 . S
H581 C597 0.930 . S
H582 C598 0.931 . S
C583 H571 0.929 . S
C583 C577 1.390 . S
C583 C580 1.386 . S
C584 C579 1.490 . S
C584 C586 1.395 . S
C584 C587 1.403 . S
H585 C591 0.930 . S
C586 H572 0.930 . S
C586 C584 1.395 . S
C586 C589 1.403 . S
C587 C584 1.403 . S
C587 C588 1.524 . S
C587 C591 1.400 . S
C588 H573 0.960 . S
C588 H574 0.960 . S
C588 H575 0.960 . S
C588 C587 1.524 . S
C589 C586 1.403 . S
C589 C590 1.392 . S
C589 C593 1.495 . S
C590 C589 1.392 . S
C590 C591 1.385 . S
C590 C592 1.478 . S
C591 H585 0.930 . S
C591 C587 1.400 . S
C591 C590 1.385 . S
C592 C590 1.478 . S
C592 C594 1.381 . S
C592 C598 1.383 . S
C593 C589 1.495 . S
C593 H599 0.959 . S
C593 H600 0.961 . S
C593 H601 0.960 . S
C594 C592 1.381 . S
C594 C595 1.394 . S
C594 H602 0.930 . S
C595 C594 1.394 . S
C595 C596 1.383 . S
C595 H603 0.929 . S
C596 C595 1.383 . S
C596 C597 1.377 . S
C597 H581 0.930 . S
C597 C596 1.377 . S
C597 C598 1.379 . S
C598 H582 0.931 . S
C598 C592 1.383 . S
C598 C597 1.379 . S
H599 C593 0.959 . S
H600 C593 0.961 . S
H601 C593 0.960 . S
H602 C594 0.930 . S
H603 C595 0.929 . S
H604 C612 0.929 . S
H605 C614 0.930 . S
H606 C616 0.930 . S
H607 C619 0.929 . S
H608 C622 0.930 . S
H609 C624 0.960 . S
H610 C624 0.960 . S
H611 C624 0.960 . S
C612 H604 0.929 . S
C612 C613 1.377 . S
C612 C614 1.384 . S
C613 C612 1.377 . S
C613 C619 1.390 . S
C614 H605 0.930 . S
C614 C612 1.384 . S
C614 C615 1.372 . S
C615 C614 1.372 . S
C615 C616 1.400 . S
C615 C620 1.490 . S
C616 H606 0.930 . S
C616 C615 1.400 . S
C616 C619 1.386 . S
H617 C633 0.930 . S
H618 C634 0.931 . S
C619 H607 0.929 . S
C619 C613 1.390 . S
C619 C616 1.386 . S
C620 C615 1.490 . S
C620 C622 1.395 . S
C620 C623 1.403 . S
H621 C627 0.930 . S
C622 H608 0.930 . S
C622 C620 1.395 . S
C622 C625 1.403 . S
C623 C620 1.403 . S
C623 C624 1.524 . S
C623 C627 1.400 . S
C624 H609 0.960 . S
C624 H610 0.960 . S
C624 H611 0.960 . S
C624 C623 1.524 . S
C625 C622 1.403 . S
C625 C626 1.392 . S
C625 C629 1.495 . S
C626 C625 1.392 . S
C626 C627 1.385 . S
C626 C628 1.478 . S
C627 H621 0.930 . S
C627 C623 1.400 . S
C627 C626 1.385 . S
C628 C626 1.478 . S
C628 C630 1.381 . S
C628 C634 1.383 . S
C629 C625 1.495 . S
C629 H635 0.959 . S
C629 H636 0.961 . S
C629 H637 0.960 . S
C630 C628 1.381 . S
C630 C631 1.394 . S
C630 H638 0.930 . S
C631 C630 1.394 . S
C631 C632 1.383 . S
C631 H639 0.929 . S
C632 C631 1.383 . S
C632 C633 1.377 . S
C633 H617 0.930 . S
C633 C632 1.377 . S
C633 C634 1.379 . S
C634 H618 0.931 . S
C634 C628 1.383 . S
C634 C633 1.379 . S
H635 C629 0.959 . S
H636 C629 0.961 . S
H637 C629 0.960 . S
H638 C630 0.930 . S
H639 C631 0.929 . S
H640 C648 0.929 . S
H641 C650 0.930 . S
H642 C652 0.930 . S
H643 C655 0.929 . S
H644 C658 0.930 . S
H645 C660 0.960 . S
H646 C660 0.960 . S
H647 C660 0.960 . S
C648 H640 0.929 . S
C648 C649 1.377 . S
C648 C650 1.384 . S
C649 C648 1.377 . S
C649 C655 1.390 . S
C650 H641 0.930 . S
C650 C648 1.384 . S
C650 C651 1.372 . S
C651 C650 1.372 . S
C651 C652 1.400 . S
C651 C656 1.490 . S
C652 H642 0.930 . S
C652 C651 1.400 . S
C652 C655 1.386 . S
H653 C669 0.930 . S
H654 C670 0.931 . S
C655 H643 0.929 . S
C655 C649 1.390 . S
C655 C652 1.386 . S
C656 C651 1.490 . S
C656 C658 1.395 . S
C656 C659 1.403 . S
H657 C663 0.930 . S
C658 H644 0.930 . S
C658 C656 1.395 . S
C658 C661 1.403 . S
C659 C656 1.403 . S
C659 C660 1.524 . S
C659 C663 1.400 . S
C660 H645 0.960 . S
C660 H646 0.960 . S
C660 H647 0.960 . S
C660 C659 1.524 . S
C661 C658 1.403 . S
C661 C662 1.392 . S
C661 C665 1.495 . S
C662 C661 1.392 . S
C662 C663 1.385 . S
C662 C664 1.478 . S
C663 H657 0.930 . S
C663 C659 1.400 . S
C663 C662 1.385 . S
C664 C662 1.478 . S
C664 C666 1.381 . S
C664 C670 1.383 . S
C665 C661 1.495 . S
C665 H671 0.959 . S
C665 H672 0.961 . S
C665 H673 0.960 . S
C666 C664 1.381 . S
C666 C667 1.394 . S
C666 H674 0.930 . S
C667 C666 1.394 . S
C667 C668 1.383 . S
C667 H675 0.929 . S
C668 C667 1.383 . S
C668 C669 1.377 . S
C669 H653 0.930 . S
C669 C668 1.377 . S
C669 C670 1.379 . S
C670 H654 0.931 . S
C670 C664 1.383 . S
C670 C669 1.379 . S
H671 C665 0.959 . S
H672 C665 0.961 . S
H673 C665 0.960 . S
H674 C666 0.930 . S
H675 C667 0.929 . S
H676 C684 0.929 . S
H677 C686 0.930 . S
H678 C688 0.930 . S
H679 C691 0.929 . S
H680 C694 0.930 . S
H681 C696 0.960 . S
H682 C696 0.960 . S
H683 C696 0.960 . S
C684 H676 0.929 . S
C684 C685 1.377 . S
C684 C686 1.384 . S
C685 C684 1.377 . S
C685 C691 1.390 . S
C686 H677 0.930 . S
C686 C684 1.384 . S
C686 C687 1.372 . S
C687 C686 1.372 . S
C687 C688 1.400 . S
C687 C692 1.490 . S
C688 H678 0.930 . S
C688 C687 1.400 . S
C688 C691 1.386 . S
H689 C705 0.930 . S
H690 C706 0.931 . S
C691 H679 0.929 . S
C691 C685 1.390 . S
C691 C688 1.386 . S
C692 C687 1.490 . S
C692 C694 1.395 . S
C692 C695 1.403 . S
H693 C699 0.930 . S
C694 H680 0.930 . S
C694 C692 1.395 . S
C694 C697 1.403 . S
C695 C692 1.403 . S
C695 C696 1.524 . S
C695 C699 1.400 . S
C696 H681 0.960 . S
C696 H682 0.960 . S
C696 H683 0.960 . S
C696 C695 1.524 . S
C697 C694 1.403 . S
C697 C698 1.392 . S
C697 C701 1.495 . S
C698 C697 1.392 . S
C698 C699 1.385 . S
C698 C700 1.478 . S
C699 H693 0.930 . S
C699 C695 1.400 . S
C699 C698 1.385 . S
C700 C698 1.478 . S
C700 C702 1.381 . S
C700 C706 1.383 . S
C701 C697 1.495 . S
C701 H707 0.959 . S
C701 H708 0.961 . S
C701 H709 0.960 . S
C702 C700 1.381 . S
C702 C703 1.394 . S
C702 H710 0.930 . S
C703 C702 1.394 . S
C703 C704 1.383 . S
C703 H711 0.929 . S
C704 C703 1.383 . S
C704 C705 1.377 . S
C705 H689 0.930 . S
C705 C704 1.377 . S
C705 C706 1.379 . S
C706 H690 0.931 . S
C706 C700 1.383 . S
C706 C705 1.379 . S
H707 C701 0.959 . S
H708 C701 0.961 . S
H709 C701 0.960 . S
H710 C702 0.930 . S
H711 C703 0.929 . S
H712 C720 0.929 . S
H713 C722 0.930 . S
H714 C724 0.930 . S
H715 C727 0.929 . S
H716 C730 0.930 . S
H717 C732 0.960 . S
H718 C732 0.960 . S
H719 C732 0.960 . S
C720 H712 0.929 . S
C720 C721 1.377 . S
C720 C722 1.384 . S
C721 C720 1.377 . S
C721 C727 1.390 . S
C722 H713 0.930 . S
C722 C720 1.384 . S
C722 C723 1.372 . S
C723 C722 1.372 . S
C723 C724 1.400 . S
C723 C728 1.490 . S
C724 H714 0.930 . S
C724 C723 1.400 . S
C724 C727 1.386 . S
H725 C741 0.930 . S
H726 C742 0.931 . S
C727 H715 0.929 . S
C727 C721 1.390 . S
C727 C724 1.386 . S
C728 C723 1.490 . S
C728 C730 1.395 . S
C728 C731 1.403 . S
H729 C735 0.930 . S
C730 H716 0.930 . S
C730 C728 1.395 . S
C730 C733 1.403 . S
C731 C728 1.403 . S
C731 C732 1.524 . S
C731 C735 1.400 . S
C732 H717 0.960 . S
C732 H718 0.960 . S
C732 H719 0.960 . S
C732 C731 1.524 . S
C733 C730 1.403 . S
C733 C734 1.392 . S
C733 C737 1.495 . S
C734 C733 1.392 . S
C734 C735 1.385 . S
C734 C736 1.478 . S
C735 H729 0.930 . S
C735 C731 1.400 . S
C735 C734 1.385 . S
C736 C734 1.478 . S
C736 C738 1.381 . S
C736 C742 1.383 . S
C737 C733 1.495 . S
C737 H743 0.959 . S
C737 H744 0.961 . S
C737 H745 0.960 . S
C738 C736 1.381 . S
C738 C739 1.394 . S
C738 H746 0.930 . S
C739 C738 1.394 . S
C739 C740 1.383 . S
C739 H747 0.929 . S
C740 C739 1.383 . S
C740 C741 1.377 . S
C741 H725 0.930 . S
C741 C740 1.377 . S
C741 C742 1.379 . S
C742 H726 0.931 . S
C742 C736 1.383 . S
C742 C741 1.379 . S
H743 C737 0.959 . S
H744 C737 0.961 . S
H745 C737 0.960 . S
H746 C738 0.930 . S
H747 C739 0.929 . S
H748 C756 0.929 . S
H749 C758 0.930 . S
H750 C760 0.930 . S
H751 C763 0.929 . S
H752 C766 0.930 . S
H753 C768 0.960 . S
H754 C768 0.960 . S
H755 C768 0.960 . S
C756 H748 0.929 . S
C756 C757 1.377 . S
C756 C758 1.384 . S
C757 C756 1.377 . S
C757 C763 1.390 . S
C758 H749 0.930 . S
C758 C756 1.384 . S
C758 C759 1.372 . S
C759 C758 1.372 . S
C759 C760 1.400 . S
C759 C764 1.490 . S
C760 H750 0.930 . S
C760 C759 1.400 . S
C760 C763 1.386 . S
H761 C777 0.930 . S
H762 C778 0.931 . S
C763 H751 0.929 . S
C763 C757 1.390 . S
C763 C760 1.386 . S
C764 C759 1.490 . S
C764 C766 1.395 . S
C764 C767 1.403 . S
H765 C771 0.930 . S
C766 H752 0.930 . S
C766 C764 1.395 . S
C766 C769 1.403 . S
C767 C764 1.403 . S
C767 C768 1.524 . S
C767 C771 1.400 . S
C768 H753 0.960 . S
C768 H754 0.960 . S
C768 H755 0.960 . S
C768 C767 1.524 . S
C769 C766 1.403 . S
C769 C770 1.392 . S
C769 C773 1.495 . S
C770 C769 1.392 . S
C770 C771 1.385 . S
C770 C772 1.478 . S
C771 H765 0.930 . S
C771 C767 1.400 . S
C771 C770 1.385 . S
C772 C770 1.478 . S
C772 C774 1.381 . S
C772 C778 1.383 . S
C773 C769 1.495 . S
C773 H779 0.959 . S
C773 H780 0.961 . S
C773 H781 0.960 . S
C774 C772 1.381 . S
C774 C775 1.394 . S
C774 H782 0.930 . S
C775 C774 1.394 . S
C775 C776 1.383 . S
C775 H783 0.929 . S
C776 C775 1.383 . S
C776 C777 1.377 . S
C777 H761 0.930 . S
C777 C776 1.377 . S
C777 C778 1.379 . S
C778 H762 0.931 . S
C778 C772 1.383 . S
C778 C777 1.379 . S
H779 C773 0.959 . S
H780 C773 0.961 . S
H781 C773 0.960 . S
H782 C774 0.930 . S
H783 C775 0.929 . S
H784 C792 0.929 . S
H785 C794 0.930 . S
H786 C796 0.930 . S
H787 C799 0.929 . S
H788 C802 0.930 . S
H789 C804 0.960 . S
H790 C804 0.960 . S
H791 C804 0.960 . S
C792 H784 0.929 . S
C792 C793 1.377 . S
C792 C794 1.384 . S
C793 C792 1.377 . S
C793 C799 1.390 . S
C794 H785 0.930 . S
C794 C792 1.384 . S
C794 C795 1.372 . S
C795 C794 1.372 . S
C795 C796 1.400 . S
C795 C800 1.490 . S
C796 H786 0.930 . S
C796 C795 1.400 . S
C796 C799 1.386 . S
H797 C813 0.930 . S
H798 C814 0.931 . S
C799 H787 0.929 . S
C799 C793 1.390 . S
C799 C796 1.386 . S
C800 C795 1.490 . S
C800 C802 1.395 . S
C800 C803 1.403 . S
H801 C807 0.930 . S
C802 H788 0.930 . S
C802 C800 1.395 . S
C802 C805 1.403 . S
C803 C800 1.403 . S
C803 C804 1.524 . S
C803 C807 1.400 . S
C804 H789 0.960 . S
C804 H790 0.960 . S
C804 H791 0.960 . S
C804 C803 1.524 . S
C805 C802 1.403 . S
C805 C806 1.392 . S
C805 C809 1.495 . S
C806 C805 1.392 . S
C806 C807 1.385 . S
C806 C808 1.478 . S
C807 H801 0.930 . S
C807 C803 1.400 . S
C807 C806 1.385 . S
C808 C806 1.478 . S
C808 C810 1.381 . S
C808 C814 1.383 . S
C809 C805 1.495 . S
C809 H815 0.959 . S
C809 H816 0.961 . S
C809 H817 0.960 . S
C810 C808 1.381 . S
C810 C811 1.394 . S
C810 H818 0.930 . S
C811 C810 1.394 . S
C811 C812 1.383 . S
C811 H819 0.929 . S
C812 C811 1.383 . S
C812 C813 1.377 . S
C813 H797 0.930 . S
C813 C812 1.377 . S
C813 C814 1.379 . S
C814 H798 0.931 . S
C814 C808 1.383 . S
C814 C813 1.379 . S
H815 C809 0.959 . S
H816 C809 0.961 . S
H817 C809 0.960 . S
H818 C810 0.930 . S
H819 C811 0.929 . S
H820 C828 0.929 . S
H821 C830 0.930 . S
H822 C832 0.930 . S
H823 C835 0.929 . S
H824 C838 0.930 . S
H825 C840 0.960 . S
H826 C840 0.960 . S
H827 C840 0.960 . S
C828 H820 0.929 . S
C828 C829 1.377 . S
C828 C830 1.384 . S
C829 C828 1.377 . S
C829 C835 1.390 . S
C830 H821 0.930 . S
C830 C828 1.384 . S
C830 C831 1.372 . S
C831 C830 1.372 . S
C831 C832 1.400 . S
C831 C836 1.490 . S
C832 H822 0.930 . S
C832 C831 1.400 . S
C832 C835 1.386 . S
H833 C849 0.930 . S
H834 C850 0.931 . S
C835 H823 0.929 . S
C835 C829 1.390 . S
C835 C832 1.386 . S
C836 C831 1.490 . S
C836 C838 1.395 . S
C836 C839 1.403 . S
H837 C843 0.930 . S
C838 H824 0.930 . S
C838 C836 1.395 . S
C838 C841 1.403 . S
C839 C836 1.403 . S
C839 C840 1.524 . S
C839 C843 1.400 . S
C840 H825 0.960 . S
C840 H826 0.960 . S
C840 H827 0.960 . S
C840 C839 1.524 . S
C841 C838 1.403 . S
C841 C842 1.392 . S
C841 C845 1.495 . S
C842 C841 1.392 . S
C842 C843 1.385 . S
C842 C844 1.478 . S
C843 H837 0.930 . S
C843 C839 1.400 . S
C843 C842 1.385 . S
C844 C842 1.478 . S
C844 C846 1.381 . S
C844 C850 1.383 . S
C845 C841 1.495 . S
C845 H851 0.959 . S
C845 H852 0.961 . S
C845 H853 0.960 . S
C846 C844 1.381 . S
C846 C847 1.394 . S
C846 H854 0.930 . S
C847 C846 1.394 . S
C847 C848 1.383 . S
C847 H855 0.929 . S
C848 C847 1.383 . S
C848 C849 1.377 . S
C849 H833 0.930 . S
C849 C848 1.377 . S
C849 C850 1.379 . S
C850 H834 0.931 . S
C850 C844 1.383 . S
C850 C849 1.379 . S
H851 C845 0.959 . S
H852 C845 0.961 . S
H853 C845 0.960 . S
H854 C846 0.930 . S
H855 C847 0.929 . S
H856 C864 0.929 . S
H857 C866 0.930 . S
H858 C868 0.930 . S
H859 C871 0.929 . S
H860 C874 0.930 . S
H861 C876 0.960 . S
H862 C876 0.960 . S
H863 C876 0.960 . S
C864 H856 0.929 . S
C864 C865 1.377 . S
C864 C866 1.384 . S
C865 C864 1.377 . S
C865 C871 1.390 . S
C866 H857 0.930 . S
C866 C864 1.384 . S
C866 C867 1.372 . S
C867 C866 1.372 . S
C867 C868 1.400 . S
C867 C872 1.490 . S
C868 H858 0.930 . S
C868 C867 1.400 . S
C868 C871 1.386 . S
H869 C885 0.930 . S
H870 C886 0.931 . S
C871 H859 0.929 . S
C871 C865 1.390 . S
C871 C868 1.386 . S
C872 C867 1.490 . S
C872 C874 1.395 . S
C872 C875 1.403 . S
H873 C879 0.930 . S
C874 H860 0.930 . S
C874 C872 1.395 . S
C874 C877 1.403 . S
C875 C872 1.403 . S
C875 C876 1.524 . S
C875 C879 1.400 . S
C876 H861 0.960 . S
C876 H862 0.960 . S
C876 H863 0.960 . S
C876 C875 1.524 . S
C877 C874 1.403 . S
C877 C878 1.392 . S
C877 C881 1.495 . S
C878 C877 1.392 . S
C878 C879 1.385 . S
C878 C880 1.478 . S
C879 H873 0.930 . S
C879 C875 1.400 . S
C879 C878 1.385 . S
C880 C878 1.478 . S
C880 C882 1.381 . S
C880 C886 1.383 . S
C881 C877 1.495 . S
C881 H887 0.959 . S
C881 H888 0.961 . S
C881 H889 0.960 . S
C882 C880 1.381 . S
C882 C883 1.394 . S
C882 H890 0.930 . S
C883 C882 1.394 . S
C883 C884 1.383 . S
C883 H891 0.929 . S
C884 C883 1.383 . S
C884 C885 1.377 . S
C885 H869 0.930 . S
C885 C884 1.377 . S
C885 C886 1.379 . S
C886 H870 0.931 . S
C886 C880 1.383 . S
C886 C885 1.379 . S
H887 C881 0.959 . S
H888 C881 0.961 . S
H889 C881 0.960 . S
H890 C882 0.930 . S
H891 C883 0.929 . S
H892 C900 0.929 . S
H893 C902 0.930 . S
H894 C904 0.930 . S
H895 C907 0.929 . S
H896 C910 0.930 . S
H897 C912 0.960 . S
H898 C912 0.960 . S
H899 C912 0.960 . S
C900 H892 0.929 . S
C900 C901 1.377 . S
C900 C902 1.384 . S
C901 C900 1.377 . S
C901 C907 1.390 . S
C902 H893 0.930 . S
C902 C900 1.384 . S
C902 C903 1.372 . S
C903 C902 1.372 . S
C903 C904 1.400 . S
C903 C908 1.490 . S
C904 H894 0.930 . S
C904 C903 1.400 . S
C904 C907 1.386 . S
H905 C921 0.930 . S
H906 C922 0.931 . S
C907 H895 0.929 . S
C907 C901 1.390 . S
C907 C904 1.386 . S
C908 C903 1.490 . S
C908 C910 1.395 . S
C908 C911 1.403 . S
H909 C915 0.930 . S
C910 H896 0.930 . S
C910 C908 1.395 . S
C910 C913 1.403 . S
C911 C908 1.403 . S
C911 C912 1.524 . S
C911 C915 1.400 . S
C912 H897 0.960 . S
C912 H898 0.960 . S
C912 H899 0.960 . S
C912 C911 1.524 . S
C913 C910 1.403 . S
C913 C914 1.392 . S
C913 C917 1.495 . S
C914 C913 1.392 . S
C914 C915 1.385 . S
C914 C916 1.478 . S
C915 H909 0.930 . S
C915 C911 1.400 . S
C915 C914 1.385 . S
C916 C914 1.478 . S
C916 C918 1.381 . S
C916 C922 1.383 . S
C917 C913 1.495 . S
C917 H923 0.959 . S
C917 H924 0.961 . S
C917 H925 0.960 . S
C918 C916 1.381 . S
C918 C919 1.394 . S
C918 H926 0.930 . S
C919 C918 1.394 . S
C919 C920 1.383 . S
C919 H927 0.929 . S
C920 C919 1.383 . S
C920 C921 1.377 . S
C921 H905 0.930 . S
C921 C920 1.377 . S
C921 C922 1.379 . S
C922 H906 0.931 . S
C922 C916 1.383 . S
C922 C921 1.379 . S
H923 C917 0.959 . S
H924 C917 0.961 . S
H925 C917 0.960 . S
H926 C918 0.930 . S
H927 C919 0.929 . S
H928 C936 0.929 . S
H929 C938 0.930 . S
H930 C940 0.930 . S
H931 C943 0.929 . S
H932 C946 0.930 . S
H933 C948 0.960 . S
H934 C948 0.960 . S
H935 C948 0.960 . S
C936 H928 0.929 . S
C936 C937 1.377 . S
C936 C938 1.384 . S
C937 C936 1.377 . S
C937 C943 1.390 . S
C938 H929 0.930 . S
C938 C936 1.384 . S
C938 C939 1.372 . S
C939 C938 1.372 . S
C939 C940 1.400 . S
C939 C944 1.490 . S
C940 H930 0.930 . S
C940 C939 1.400 . S
C940 C943 1.386 . S
H941 C957 0.930 . S
H942 C958 0.931 . S
C943 H931 0.929 . S
C943 C937 1.390 . S
C943 C940 1.386 . S
C944 C939 1.490 . S
C944 C946 1.395 . S
C944 C947 1.403 . S
H945 C951 0.930 . S
C946 H932 0.930 . S
C946 C944 1.395 . S
C946 C949 1.403 . S
C947 C944 1.403 . S
C947 C948 1.524 . S
C947 C951 1.400 . S
C948 H933 0.960 . S
C948 H934 0.960 . S
C948 H935 0.960 . S
C948 C947 1.524 . S
C949 C946 1.403 . S
C949 C950 1.392 . S
C949 C953 1.495 . S
C950 C949 1.392 . S
C950 C951 1.385 . S
C950 C952 1.478 . S
C951 H945 0.930 . S
C951 C947 1.400 . S
C951 C950 1.385 . S
C952 C950 1.478 . S
C952 C954 1.381 . S
C952 C958 1.383 . S
C953 C949 1.495 . S
C953 H959 0.959 . S
C953 H960 0.961 . S
C953 H961 0.960 . S
C954 C952 1.381 . S
C954 C955 1.394 . S
C954 H962 0.930 . S
C955 C954 1.394 . S
C955 C956 1.383 . S
C955 H963 0.929 . S
C956 C955 1.383 . S
C956 C957 1.377 . S
C957 H941 0.930 . S
C957 C956 1.377 . S
C957 C958 1.379 . S
C958 H942 0.931 . S
C958 C952 1.383 . S
C958 C957 1.379 . S
H959 C953 0.959 . S
H960 C953 0.961 . S
H961 C953 0.960 . S
H962 C954 0.930 . S
H963 C955 0.929 . S
H964 C972 0.929 . S
H965 C974 0.930 . S
H966 C976 0.930 . S
H967 C979 0.929 . S
H968 C982 0.930 . S
H969 C984 0.960 . S
H970 C984 0.960 . S
H971 C984 0.960 . S
C972 H964 0.929 . S
C972 C973 1.377 . S
C972 C974 1.384 . S
C973 C972 1.377 . S
C973 C979 1.390 . S
C974 H965 0.930 . S
C974 C972 1.384 . S
C974 C975 1.372 . S
C975 C974 1.372 . S
C975 C976 1.400 . S
C975 C980 1.490 . S
C976 H966 0.930 . S
C976 C975 1.400 . S
C976 C979 1.386 . S
H977 C993 0.930 . S
H978 C994 0.931 . S
C979 H967 0.929 . S
C979 C973 1.390 . S
C979 C976 1.386 . S
C980 C975 1.490 . S
C980 C982 1.395 . S
C980 C983 1.403 . S
H981 C987 0.930 . S
C982 H968 0.930 . S
C982 C980 1.395 . S
C982 C985 1.403 1_565 S
C983 C980 1.403 . S
C983 C984 1.524 . S
C983 C987 1.400 1_565 S
C984 H969 0.960 . S
C984 H970 0.960 . S
C984 H971 0.960 . S
C984 C983 1.524 . S
C985 C982 1.403 1_545 S
C985 C986 1.392 . S
C985 C989 1.495 . S
C986 C985 1.392 . S
C986 C987 1.385 . S
C986 C988 1.478 . S
C987 H981 0.930 . S
C987 C983 1.400 1_545 S
C987 C986 1.385 . S
C988 C986 1.478 . S
C988 C990 1.381 . S
C988 C994 1.383 . S
C989 C985 1.495 . S
C989 H995 0.959 . S
C989 H996 0.961 . S
C989 H997 0.960 . S
C990 C988 1.381 . S
C990 C991 1.394 . S
C990 H998 0.930 . S
C991 C990 1.394 . S
C991 C992 1.383 . S
C991 H999 0.929 . S
C992 C991 1.383 . S
C992 C993 1.377 . S
C993 H977 0.930 . S
C993 C992 1.377 . S
C993 C994 1.379 . S
C994 H978 0.931 . S
C994 C988 1.383 . S
C994 C993 1.379 . S
H995 C989 0.959 . S
H996 C989 0.961 . S
H997 C989 0.960 . S
H998 C990 0.930 . S
H999 C991 0.929 . S
H1000 C1008 0.929 . S
H1001 C1010 0.930 . S
H1002 C1012 0.930 . S
H1003 C1015 0.929 . S
H1004 C1018 0.930 . S
H1005 C1020 0.960 . S
H1006 C1020 0.960 . S
H1007 C1020 0.960 . S
C1008 H1000 0.929 . S
C1008 C1009 1.377 . S
C1008 C1010 1.384 . S
C1009 C1008 1.377 . S
C1009 C1015 1.390 . S
C1010 H1001 0.930 . S
C1010 C1008 1.384 . S
C1010 C1011 1.372 . S
C1011 C1010 1.372 . S
C1011 C1012 1.400 . S
C1011 C1016 1.490 . S
C1012 H1002 0.930 . S
C1012 C1011 1.400 . S
C1012 C1015 1.386 . S
H1013 C1029 0.930 . S
H1014 C1030 0.931 . S
C1015 H1003 0.929 . S
C1015 C1009 1.390 . S
C1015 C1012 1.386 . S
C1016 C1011 1.490 . S
C1016 C1018 1.395 . S
C1016 C1019 1.403 . S
H1017 C1023 0.930 . S
C1018 H1004 0.930 . S
C1018 C1016 1.395 . S
C1018 C1021 1.403 . S
C1019 C1016 1.403 . S
C1019 C1020 1.524 . S
C1019 C1023 1.400 . S
C1020 H1005 0.960 . S
C1020 H1006 0.960 . S
C1020 H1007 0.960 . S
C1020 C1019 1.524 . S
C1021 C1018 1.403 . S
C1021 C1022 1.392 . S
C1021 C1025 1.495 . S
C1022 C1021 1.392 . S
C1022 C1023 1.385 . S
C1022 C1024 1.478 . S
C1023 H1017 0.930 . S
C1023 C1019 1.400 . S
C1023 C1022 1.385 . S
C1024 C1022 1.478 . S
C1024 C1026 1.381 . S
C1024 C1030 1.383 . S
C1025 C1021 1.495 . S
C1025 H1031 0.959 . S
C1025 H1032 0.961 . S
C1025 H1033 0.960 . S
C1026 C1024 1.381 . S
C1026 C1027 1.394 . S
C1026 H1034 0.930 . S
C1027 C1026 1.394 . S
C1027 C1028 1.383 . S
C1027 H1035 0.929 . S
C1028 C1027 1.383 . S
C1028 C1029 1.377 . S
C1029 H1013 0.930 . S
C1029 C1028 1.377 . S
C1029 C1030 1.379 . S
C1030 H1014 0.931 . S
C1030 C1024 1.383 . S
C1030 C1029 1.379 . S
H1031 C1025 0.959 . S
H1032 C1025 0.961 . S
H1033 C1025 0.960 . S
H1034 C1026 0.930 . S
H1035 C1027 0.929 . S
C200 C100 1.688 . S
C181 C5 1.533 . S
C236 C103 1.438 . S
C217 C16 1.243 . S
C272 C101 1.767 1_655 S
C253 C30 1.793 . S
C308 C102 1.589 . S
C289 C40 1.547 . S
C344 C117 1.395 . S
C325 C8 1.407 . S
C380 C131 1.350 . S
C361 C18 1.288 . S
C397 C29 1.728 . S
C416 C157 1.749 . S
C452 C171 1.577 . S
C433 C38 1.383 . S
C488 C116 1.354 . S
C469 C19 1.359 . S
C505 C27 1.445 . S
C524 C130 1.602 . S
C560 C156 1.546 . S
C541 C41 1.539 . S
C596 C170 1.643 . S
C577 C7 1.590 . S
C613 C52 1.558 . S
C632 C115 1.587 . S
C668 C88 1.737 1_655 S
C649 C62 1.703 . S
C685 C74 1.366 . S
C704 C114 1.358 . S
C721 C82 1.277 . S
C740 C89 1.483 . S
C776 C144 1.839 . S
C757 C51 1.747 . S
C812 C158 1.721 . S
C793 C60 1.472 . S
C848 C128 1.414 . S
C829 C71 1.254 . S
C865 C84 1.384 . S
C884 C142 1.422 . S
C920 C145 1.709 . S
C901 C63 1.699 . S
C956 C159 1.480 . S
C937 C73 1.467 . S
C992 C129 1.496 . S
C973 C85 1.497 . S
C1009 C49 1.326 . S
C1028 C143 1.589 . S
