# Generated by pormake.
# Topology ibd, (4,6)-cn, num edge types: 1
# Building blocks:
#     Node 0, Type 0, BuildingBlock: GALJAG_clean_sbu_0, # of connection points: 4
#     Node 1, Type 0, BuildingBlock: GALJAG_clean_sbu_0, # of connection points: 4
#     Node 2, Type 0, BuildingBlock: GALJAG_clean_sbu_0, # of connection points: 4
#     Node 3, Type 0, BuildingBlock: GALJAG_clean_sbu_0, # of connection points: 4
#     Node 4, Type 0, BuildingBlock: GALJAG_clean_sbu_0, # of connection points: 4
#     Node 5, Type 0, BuildingBlock: GALJAG_clean_sbu_0, # of connection points: 4
#     Node 6, Type 0, BuildingBlock: GALJAG_clean_sbu_0, # of connection points: 4
#     Node 7, Type 0, BuildingBlock: GALJAG_clean_sbu_0, # of connection points: 4
#     Node 8, Type 0, BuildingBlock: GALJAG_clean_sbu_0, # of connection points: 4
#     Node 9, Type 0, BuildingBlock: GALJAG_clean_sbu_0, # of connection points: 4
#     Node 10, Type 0, BuildingBlock: GALJAG_clean_sbu_0, # of connection points: 4
#     Node 11, Type 0, BuildingBlock: GALJAG_clean_sbu_0, # of connection points: 4
#     Node 12, Type 0, BuildingBlock: GALJAG_clean_sbu_0, # of connection points: 4
#     Node 13, Type 0, BuildingBlock: GALJAG_clean_sbu_0, # of connection points: 4
#     Node 14, Type 0, BuildingBlock: GALJAG_clean_sbu_0, # of connection points: 4
#     Node 15, Type 0, BuildingBlock: GALJAG_clean_sbu_0, # of connection points: 4
#     Node 16, Type 0, BuildingBlock: GALJAG_clean_sbu_0, # of connection points: 4
#     Node 17, Type 0, BuildingBlock: GALJAG_clean_sbu_0, # of connection points: 4
#     Node 18, Type 0, BuildingBlock: GALJAG_clean_sbu_0, # of connection points: 4
#     Node 19, Type 0, BuildingBlock: GALJAG_clean_sbu_0, # of connection points: 4
#     Node 20, Type 0, BuildingBlock: GALJAG_clean_sbu_0, # of connection points: 4
#     Node 21, Type 0, BuildingBlock: GALJAG_clean_sbu_0, # of connection points: 4
#     Node 22, Type 0, BuildingBlock: GALJAG_clean_sbu_0, # of connection points: 4
#     Node 23, Type 0, BuildingBlock: GALJAG_clean_sbu_0, # of connection points: 4
#     Node 24, Type 1, BuildingBlock: CIFDUS_clean_sbu_1, # of connection points: 6
#     Node 25, Type 1, BuildingBlock: CIFDUS_clean_sbu_1, # of connection points: 6
#     Node 26, Type 1, BuildingBlock: CIFDUS_clean_sbu_1, # of connection points: 6
#     Node 27, Type 1, BuildingBlock: CIFDUS_clean_sbu_1, # of connection points: 6
#     Node 28, Type 1, BuildingBlock: CIFDUS_clean_sbu_1, # of connection points: 6
#     Node 29, Type 1, BuildingBlock: CIFDUS_clean_sbu_1, # of connection points: 6
#     Node 30, Type 1, BuildingBlock: CIFDUS_clean_sbu_1, # of connection points: 6
#     Node 31, Type 1, BuildingBlock: CIFDUS_clean_sbu_1, # of connection points: 6
#     Node 32, Type 1, BuildingBlock: CIFDUS_clean_sbu_1, # of connection points: 6
#     Node 33, Type 1, BuildingBlock: CIFDUS_clean_sbu_1, # of connection points: 6
#     Node 34, Type 1, BuildingBlock: CIFDUS_clean_sbu_1, # of connection points: 6
#     Node 35, Type 1, BuildingBlock: CIFDUS_clean_sbu_1, # of connection points: 6
#     Node 36, Type 1, BuildingBlock: CIFDUS_clean_sbu_1, # of connection points: 6
#     Node 37, Type 1, BuildingBlock: CIFDUS_clean_sbu_1, # of connection points: 6
#     Node 38, Type 1, BuildingBlock: CIFDUS_clean_sbu_1, # of connection points: 6
#     Node 39, Type 1, BuildingBlock: CIFDUS_clean_sbu_1, # of connection points: 6
#     Edge 40, Type (0, 1), BuildingBlock: XIVTED_clean_linker_0, # of connection points: 2
#     Edge 41, Type (0, 1), BuildingBlock: XIVTED_clean_linker_0, # of connection points: 2
#     Edge 42, Type (0, 1), BuildingBlock: XIVTED_clean_linker_0, # of connection points: 2
#     Edge 43, Type (0, 1), BuildingBlock: XIVTED_clean_linker_0, # of connection points: 2
#     Edge 44, Type (0, 1), BuildingBlock: XIVTED_clean_linker_0, # of connection points: 2
#     Edge 45, Type (0, 1), BuildingBlock: XIVTED_clean_linker_0, # of connection points: 2
#     Edge 46, Type (0, 1), BuildingBlock: XIVTED_clean_linker_0, # of connection points: 2
#     Edge 47, Type (0, 1), BuildingBlock: XIVTED_clean_linker_0, # of connection points: 2
#     Edge 48, Type (0, 1), BuildingBlock: XIVTED_clean_linker_0, # of connection points: 2
#     Edge 49, Type (0, 1), BuildingBlock: XIVTED_clean_linker_0, # of connection points: 2
#     Edge 50, Type (0, 1), BuildingBlock: XIVTED_clean_linker_0, # of connection points: 2
#     Edge 51, Type (0, 1), BuildingBlock: XIVTED_clean_linker_0, # of connection points: 2
#     Edge 52, Type (0, 1), BuildingBlock: XIVTED_clean_linker_0, # of connection points: 2
#     Edge 53, Type (0, 1), BuildingBlock: XIVTED_clean_linker_0, # of connection points: 2
#     Edge 54, Type (0, 1), BuildingBlock: XIVTED_clean_linker_0, # of connection points: 2
#     Edge 55, Type (0, 1), BuildingBlock: XIVTED_clean_linker_0, # of connection points: 2
#     Edge 56, Type (0, 1), BuildingBlock: XIVTED_clean_linker_0, # of connection points: 2
#     Edge 57, Type (0, 1), BuildingBlock: XIVTED_clean_linker_0, # of connection points: 2
#     Edge 58, Type (0, 1), BuildingBlock: XIVTED_clean_linker_0, # of connection points: 2
#     Edge 59, Type (0, 1), BuildingBlock: XIVTED_clean_linker_0, # of connection points: 2
#     Edge 60, Type (0, 1), BuildingBlock: XIVTED_clean_linker_0, # of connection points: 2
#     Edge 61, Type (0, 1), BuildingBlock: XIVTED_clean_linker_0, # of connection points: 2
#     Edge 62, Type (0, 1), BuildingBlock: XIVTED_clean_linker_0, # of connection points: 2
#     Edge 63, Type (0, 1), BuildingBlock: XIVTED_clean_linker_0, # of connection points: 2
#     Edge 64, Type (0, 1), BuildingBlock: XIVTED_clean_linker_0, # of connection points: 2
#     Edge 65, Type (0, 1), BuildingBlock: XIVTED_clean_linker_0, # of connection points: 2
#     Edge 66, Type (0, 1), BuildingBlock: XIVTED_clean_linker_0, # of connection points: 2
#     Edge 67, Type (0, 1), BuildingBlock: XIVTED_clean_linker_0, # of connection points: 2
#     Edge 68, Type (0, 1), BuildingBlock: XIVTED_clean_linker_0, # of connection points: 2
#     Edge 69, Type (0, 1), BuildingBlock: XIVTED_clean_linker_0, # of connection points: 2
#     Edge 70, Type (0, 1), BuildingBlock: XIVTED_clean_linker_0, # of connection points: 2
#     Edge 71, Type (0, 1), BuildingBlock: XIVTED_clean_linker_0, # of connection points: 2
#     Edge 72, Type (0, 1), BuildingBlock: XIVTED_clean_linker_0, # of connection points: 2
#     Edge 73, Type (0, 1), BuildingBlock: XIVTED_clean_linker_0, # of connection points: 2
#     Edge 74, Type (0, 1), BuildingBlock: XIVTED_clean_linker_0, # of connection points: 2
#     Edge 75, Type (0, 1), BuildingBlock: XIVTED_clean_linker_0, # of connection points: 2
#     Edge 76, Type (0, 1), BuildingBlock: XIVTED_clean_linker_0, # of connection points: 2
#     Edge 77, Type (0, 1), BuildingBlock: XIVTED_clean_linker_0, # of connection points: 2
#     Edge 78, Type (0, 1), BuildingBlock: XIVTED_clean_linker_0, # of connection points: 2
#     Edge 79, Type (0, 1), BuildingBlock: XIVTED_clean_linker_0, # of connection points: 2
#     Edge 80, Type (0, 1), BuildingBlock: XIVTED_clean_linker_0, # of connection points: 2
#     Edge 81, Type (0, 1), BuildingBlock: XIVTED_clean_linker_0, # of connection points: 2
#     Edge 82, Type (0, 1), BuildingBlock: XIVTED_clean_linker_0, # of connection points: 2
#     Edge 83, Type (0, 1), BuildingBlock: XIVTED_clean_linker_0, # of connection points: 2
#     Edge 84, Type (0, 1), BuildingBlock: XIVTED_clean_linker_0, # of connection points: 2
#     Edge 85, Type (0, 1), BuildingBlock: XIVTED_clean_linker_0, # of connection points: 2
#     Edge 86, Type (0, 1), BuildingBlock: XIVTED_clean_linker_0, # of connection points: 2
#     Edge 87, Type (0, 1), BuildingBlock: XIVTED_clean_linker_0, # of connection points: 2
#     Edge 88, Type (0, 1), BuildingBlock: XIVTED_clean_linker_0, # of connection points: 2
#     Edge 89, Type (0, 1), BuildingBlock: XIVTED_clean_linker_0, # of connection points: 2
#     Edge 90, Type (0, 1), BuildingBlock: XIVTED_clean_linker_0, # of connection points: 2
#     Edge 91, Type (0, 1), BuildingBlock: XIVTED_clean_linker_0, # of connection points: 2
#     Edge 92, Type (0, 1), BuildingBlock: XIVTED_clean_linker_0, # of connection points: 2
#     Edge 93, Type (0, 1), BuildingBlock: XIVTED_clean_linker_0, # of connection points: 2
#     Edge 94, Type (0, 1), BuildingBlock: XIVTED_clean_linker_0, # of connection points: 2
#     Edge 95, Type (0, 1), BuildingBlock: XIVTED_clean_linker_0, # of connection points: 2
#     Edge 96, Type (0, 1), BuildingBlock: XIVTED_clean_linker_0, # of connection points: 2
#     Edge 97, Type (0, 1), BuildingBlock: XIVTED_clean_linker_0, # of connection points: 2
#     Edge 98, Type (0, 1), BuildingBlock: XIVTED_clean_linker_0, # of connection points: 2
#     Edge 99, Type (0, 1), BuildingBlock: XIVTED_clean_linker_0, # of connection points: 2
#     Edge 100, Type (0, 1), BuildingBlock: XIVTED_clean_linker_0, # of connection points: 2
#     Edge 101, Type (0, 1), BuildingBlock: XIVTED_clean_linker_0, # of connection points: 2
#     Edge 102, Type (0, 1), BuildingBlock: XIVTED_clean_linker_0, # of connection points: 2
#     Edge 103, Type (0, 1), BuildingBlock: XIVTED_clean_linker_0, # of connection points: 2
#     Edge 104, Type (0, 1), BuildingBlock: XIVTED_clean_linker_0, # of connection points: 2
#     Edge 105, Type (0, 1), BuildingBlock: XIVTED_clean_linker_0, # of connection points: 2
#     Edge 106, Type (0, 1), BuildingBlock: XIVTED_clean_linker_0, # of connection points: 2
#     Edge 107, Type (0, 1), BuildingBlock: XIVTED_clean_linker_0, # of connection points: 2
#     Edge 108, Type (0, 1), BuildingBlock: XIVTED_clean_linker_0, # of connection points: 2
#     Edge 109, Type (0, 1), BuildingBlock: XIVTED_clean_linker_0, # of connection points: 2
#     Edge 110, Type (0, 1), BuildingBlock: XIVTED_clean_linker_0, # of connection points: 2
#     Edge 111, Type (0, 1), BuildingBlock: XIVTED_clean_linker_0, # of connection points: 2
#     Edge 112, Type (0, 1), BuildingBlock: XIVTED_clean_linker_0, # of connection points: 2
#     Edge 113, Type (0, 1), BuildingBlock: XIVTED_clean_linker_0, # of connection points: 2
#     Edge 114, Type (0, 1), BuildingBlock: XIVTED_clean_linker_0, # of connection points: 2
#     Edge 115, Type (0, 1), BuildingBlock: XIVTED_clean_linker_0, # of connection points: 2
#     Edge 116, Type (0, 1), BuildingBlock: XIVTED_clean_linker_0, # of connection points: 2
#     Edge 117, Type (0, 1), BuildingBlock: XIVTED_clean_linker_0, # of connection points: 2
#     Edge 118, Type (0, 1), BuildingBlock: XIVTED_clean_linker_0, # of connection points: 2
#     Edge 119, Type (0, 1), BuildingBlock: XIVTED_clean_linker_0, # of connection points: 2
#     Edge 120, Type (0, 1), BuildingBlock: XIVTED_clean_linker_0, # of connection points: 2
#     Edge 121, Type (0, 1), BuildingBlock: XIVTED_clean_linker_0, # of connection points: 2
#     Edge 122, Type (0, 1), BuildingBlock: XIVTED_clean_linker_0, # of connection points: 2
#     Edge 123, Type (0, 1), BuildingBlock: XIVTED_clean_linker_0, # of connection points: 2
#     Edge 124, Type (0, 1), BuildingBlock: XIVTED_clean_linker_0, # of connection points: 2
#     Edge 125, Type (0, 1), BuildingBlock: XIVTED_clean_linker_0, # of connection points: 2
#     Edge 126, Type (0, 1), BuildingBlock: XIVTED_clean_linker_0, # of connection points: 2
#     Edge 127, Type (0, 1), BuildingBlock: XIVTED_clean_linker_0, # of connection points: 2
#     Edge 128, Type (0, 1), BuildingBlock: XIVTED_clean_linker_0, # of connection points: 2
#     Edge 129, Type (0, 1), BuildingBlock: XIVTED_clean_linker_0, # of connection points: 2
#     Edge 130, Type (0, 1), BuildingBlock: XIVTED_clean_linker_0, # of connection points: 2
#     Edge 131, Type (0, 1), BuildingBlock: XIVTED_clean_linker_0, # of connection points: 2
#     Edge 132, Type (0, 1), BuildingBlock: XIVTED_clean_linker_0, # of connection points: 2
#     Edge 133, Type (0, 1), BuildingBlock: XIVTED_clean_linker_0, # of connection points: 2
#     Edge 134, Type (0, 1), BuildingBlock: XIVTED_clean_linker_0, # of connection points: 2
#     Edge 135, Type (0, 1), BuildingBlock: XIVTED_clean_linker_0, # of connection points: 2
# Relax obj value: 0.250
# Max RMSD: 0.284
# Mean RMSD: 0.231
data_MOF--net-ibd--node1-GALJAG_clean_sbu_0--node2-CIFDUS_clean_sbu_1--edge1-XIVTED_clean_linker_0
_symmetry_space_group_name_H-M    P1
_symmetry_Int_Tables_number       1
_symmetry_cell_setting            triclinic
loop_
_symmetry_equiv_pos_as_xyz
'x, y, z'
_cell_length_a     48.198415
_cell_length_b     49.430661
_cell_length_c     50.072434
_cell_angle_alpha  90.818065
_cell_angle_beta   89.285956
_cell_angle_gamma 93.098177
loop_
_atom_site_label
_atom_site_type_symbol
_atom_site_fract_x
_atom_site_fract_y
_atom_site_fract_z
_atom_type_partial_charge
In0 In 0.9886 0.30937 0.36885 0.0
O1 O 0.02645 0.30587 0.34164 0.0
O2 O -0.00499 0.27401 0.33994 0.0
C3 C 0.01749 0.34031 0.40451 0.0
C4 C 0.9578 0.33358 0.3326 0.0
C5 C 0.9645 0.27942 0.4084 0.0
O6 O 0.02661 0.31896 0.39438 0.0
O7 O -0.00525 0.34717 0.39507 0.0
O8 O 0.95391 0.30042 0.39985 0.0
O9 O 0.98567 0.27248 0.39548 0.0
C10 C 0.01772 0.28395 0.3306 0.0
O11 O 0.95045 0.3111 0.34293 0.0
O12 O 0.97964 0.34495 0.34217 0.0
In13 In 0.98569 0.78327 0.63636 0.0
O14 O -0.00534 0.82118 0.66259 0.0
O15 O 0.95587 0.79892 0.66713 0.0
C16 C 0.02638 0.78384 0.59932 0.0
C17 C -0.00053 0.74841 0.67372 0.0
C18 C 0.94632 0.7816 0.59878 0.0
O19 O 0.02129 0.80464 0.61323 0.0
O20 O 0.01219 0.76253 0.60543 0.0
O21 O 0.95017 0.76161 0.61357 0.0
O22 O 0.96078 0.80296 0.60448 0.0
C23 C 0.97244 0.81742 0.67608 0.0
O24 O 0.97713 0.74473 0.66083 0.0
O25 O 0.01562 0.76754 0.66556 0.0
In26 In 0.49342 0.81355 0.86964 0.0
O27 O 0.53181 0.80093 0.8472 0.0
O28 O 0.49312 0.7806 0.83716 0.0
C29 C 0.52277 0.84165 0.90723 0.0
C30 C 0.47221 0.84553 0.83261 0.0
C31 C 0.46562 0.7821 0.90604 0.0
O32 O 0.53126 0.82047 0.89621 0.0
O33 O 0.50038 0.84958 0.89804 0.0
O34 O 0.45758 0.80505 0.89977 0.0
O35 O 0.48589 0.77434 0.89231 0.0
C36 C 0.51889 0.78377 0.83232 0.0
O37 O 0.45715 0.82828 0.84544 0.0
O38 O 0.49722 0.84774 0.8398 0.0
In39 In 0.49426 0.28717 0.13984 0.0
O40 O 0.48493 0.24777 0.16283 0.0
O41 O 0.52088 0.27284 0.17265 0.0
C42 C 0.45581 0.28607 0.10153 0.0
C43 C 0.47882 0.32246 0.17758 0.0
C44 C 0.53594 0.28616 0.10389 0.0
O45 O 0.45824 0.26641 0.11715 0.0
O46 O 0.4715 0.30681 0.10653 0.0
O47 O 0.53076 0.30743 0.11702 0.0
O48 O 0.52143 0.2652 0.1104 0.0
C49 C 0.50521 0.25245 0.17837 0.0
O50 O 0.50275 0.32449 0.16688 0.0
O51 O 0.46226 0.30501 0.16683 0.0
In52 In -0.00024 0.77633 0.12369 0.0
O53 O 0.96171 0.78557 0.09949 0.0
O54 O -0.00197 0.81158 0.09495 0.0
C55 C 0.96896 0.75197 0.16263 0.0
C56 C 0.02185 0.74593 0.08476 0.0
C57 C 0.0333 0.80193 0.1597 0.0
O58 O 0.96243 0.77353 0.15166 0.0
O59 O 0.9901 0.74144 0.15258 0.0
O60 O 0.03928 0.78014 0.14808 0.0
O61 O 0.01145 0.81202 0.15154 0.0
C62 C 0.97366 0.80515 0.08724 0.0
O63 O 0.03485 0.76638 0.0948 0.0
O64 O -0.00117 0.73952 0.09597 0.0
In65 In 0.52744 0.76231 0.38843 0.0
O66 O 0.54568 0.72912 0.41335 0.0
O67 O 0.56663 0.76813 0.41303 0.0
C68 C 0.49464 0.73368 0.35375 0.0
C69 C 0.49968 0.78806 0.42694 0.0
C70 C 0.54877 0.79073 0.34714 0.0
O71 O 0.51842 0.72627 0.35981 0.0
O72 O 0.48633 0.75313 0.36778 0.0
O73 O 0.53011 0.79959 0.36227 0.0
O74 O 0.55846 0.76881 0.35444 0.0
C75 C 0.56515 0.74462 0.42255 0.0
O76 O 0.51652 0.80001 0.41094 0.0
O77 O 0.49555 0.76286 0.42269 0.0
In78 In 0.49791 0.27945 0.62549 0.0
O79 O 0.53341 0.26878 0.59722 0.0
O80 O 0.4962 0.24361 0.59644 0.0
C81 C 0.53102 0.30405 0.66252 0.0
C82 C 0.47394 0.31023 0.58926 0.0
C83 C 0.46618 0.25496 0.66377 0.0
O84 O 0.53693 0.2823 0.65075 0.0
O85 O 0.50955 0.31457 0.65402 0.0
O86 O 0.4598 0.27651 0.65267 0.0
O87 O 0.48749 0.24449 0.65403 0.0
C88 C 0.51979 0.24931 0.58607 0.0
O89 O 0.4611 0.29035 0.60026 0.0
O90 O 0.498 0.3159 0.5982 0.0
In91 In 0.0239 0.26935 0.89151 0.0
O92 O 0.04366 0.23526 0.91367 0.0
O93 O 0.06444 0.2744 0.914 0.0
C94 C 0.99113 0.24074 0.85691 0.0
C95 C -0.00173 0.29182 0.93349 0.0
C96 C 0.04253 0.29931 0.85023 0.0
O97 O 0.01481 0.23319 0.8632 0.0
O98 O 0.98288 0.26045 0.87063 0.0
O99 O 0.02354 0.30694 0.86573 0.0
O100 O 0.05389 0.27818 0.85733 0.0
C101 C 0.06357 0.25047 0.92248 0.0
O102 O 0.0154 0.30483 0.91856 0.0
O103 O -0.00757 0.26757 0.9262 0.0
In104 In 0.36195 -0.00292 0.22808 0.0
O105 O 0.32245 0.97096 0.23708 0.0
O106 O 0.33252 0.00443 0.26298 0.0
C107 C 0.3935 0.95673 0.21056 0.0
C108 C 0.33387 0.02816 0.19513 0.0
C109 C 0.40445 0.02137 0.2553 0.0
O110 O 0.38212 0.95683 0.23338 0.0
O111 O 0.38697 0.97575 0.19567 0.0
O112 O 0.40071 0.02604 0.23086 0.0
O113 O 0.38594 0.00587 0.266 0.0
C114 C 0.31519 0.98546 0.25668 0.0
O115 O 0.3493 0.03788 0.21351 0.0
O116 O 0.3349 0.00289 0.19156 0.0
In117 In 0.23452 0.15112 0.51101 0.0
O118 O 0.19785 0.17829 0.51378 0.0
O119 O 0.2286 0.18255 0.54395 0.0
C120 C 0.20098 0.11211 0.48908 0.0
C121 C 0.26572 0.18715 0.48226 0.0
C122 C 0.26355 0.11323 0.53471 0.0
O123 O 0.19654 0.12195 0.51208 0.0
O124 O 0.22106 0.12353 0.47633 0.0
O125 O 0.26851 0.12149 0.51133 0.0
O126 O 0.24544 0.12599 0.54748 0.0
C127 C 0.20701 0.19148 0.53387 0.0
O128 O 0.27242 0.18023 0.50539 0.0
O129 O 0.24456 0.17426 0.47292 0.0
In130 In 0.12795 0.03771 0.74471 0.0
O131 O 0.09543 0.00499 0.75645 0.0
O132 O 0.10216 0.03893 0.7828 0.0
C133 C 0.15671 0.00607 0.71182 0.0
C134 C 0.09131 0.068 0.7205 0.0
C135 C 0.1742 0.0554 0.77035 0.0
O136 O 0.14287 -0.00319 0.73157 0.0
O137 O 0.15444 0.03098 0.70764 0.0
O138 O 0.16482 0.0678 0.75078 0.0
O139 O 0.15908 0.03535 0.77821 0.0
C140 C 0.08797 0.01735 0.77738 0.0
O141 O 0.10697 0.07779 0.73868 0.0
O142 O 0.09622 0.04423 0.7131 0.0
In143 In 0.23937 0.90401 -0.00502 0.0
O144 O 0.20281 0.93088 -4e-05 0.0
O145 O 0.22879 0.92693 0.03352 0.0
C146 C 0.21089 0.86657 0.96459 0.0
C147 C 0.27154 0.9457 0.97529 0.0
C148 C 0.26795 0.86613 0.01911 0.0
O149 O 0.20249 0.87421 0.98729 0.0
O150 O 0.23273 0.87927 0.95627 0.0
O151 O 0.27735 0.87875 -0.00109 0.0
O152 O 0.24493 0.87371 0.02801 0.0
C153 C 0.20858 0.93835 0.02354 0.0
O154 O 0.27779 0.93264 -0.00437 0.0
O155 O 0.24996 0.93641 0.96344 0.0
In156 In 0.26448 0.41316 -0.00191 0.0
O157 O 0.28497 0.38893 0.96484 0.0
O158 O 0.30249 0.38834 0.00357 0.0
C159 C 0.23197 0.44091 0.96628 0.0
C160 C 0.23619 0.3729 0.02412 0.0
C161 C 0.28383 0.45926 0.02276 0.0
O162 O 0.25608 0.43476 0.95911 0.0
O163 O 0.22365 0.43101 0.98826 0.0
O164 O 0.2641 0.44442 0.03225 0.0
O165 O 0.29527 0.44965 0.00216 0.0
C166 C 0.30267 0.37924 0.9799 0.0
O167 O 0.25353 0.38924 0.03544 0.0
O168 O 0.23172 0.37793 -8e-05 0.0
In169 In 0.73525 0.15861 0.9842 0.0
O170 O 0.73811 0.13545 0.02334 0.0
O171 O 0.70911 0.12068 -0.00578 0.0
C172 C 0.76994 0.20176 -0.00524 0.0
C173 C 0.76188 0.12649 0.9498 0.0
C174 C 0.6909 0.18823 0.97749 0.0
O175 O 0.7645 0.18324 0.01152 0.0
O176 O 0.75878 0.19796 0.97222 0.0
O177 O 0.70291 0.17666 0.95822 0.0
O178 O 0.70019 0.18334 0.00029 0.0
C179 C 0.7206 0.11688 0.01622 0.0
O180 O 0.73715 0.13264 0.94602 0.0
O181 O 0.77364 0.13879 0.96916 0.0
In182 In 0.12777 0.53511 0.26661 0.0
O183 O 0.15334 0.5229 0.30249 0.0
O184 O 0.15389 0.49841 0.26724 0.0
C185 C 0.0893 0.56161 0.29451 0.0
C186 C 0.17015 0.565 0.24445 0.0
C187 C 0.08804 0.51138 0.23543 0.0
O188 O 0.0967 0.53846 0.30092 0.0
O189 O 0.10307 0.5724 0.27547 0.0
O190 O 0.1012 0.53327 0.22934 0.0
O191 O 0.0965 0.50031 0.25617 0.0
C192 C 0.16362 0.5032 0.29022 0.0
O193 O 0.15796 0.54532 0.23222 0.0
O194 O 0.15957 0.57075 0.2669 0.0
In195 In 0.76145 0.91016 0.50688 0.0
O196 O 0.76146 0.88048 0.47231 0.0
O197 O 0.79797 0.88389 0.49588 0.0
C198 C 0.73065 0.94307 0.47903 0.0
C199 C 0.737 0.87232 0.53858 0.0
C200 C 0.7877 0.95322 0.53093 0.0
O201 O 0.75373 0.9355 0.47034 0.0
O202 O 0.72235 0.9324 0.50068 0.0
O203 O 0.76664 0.94086 0.54111 0.0
O204 O 0.7972 0.94211 0.5101 0.0
C205 C 0.78485 0.87151 0.47726 0.0
O206 O 0.76143 0.8821 0.54244 0.0
O207 O 0.72419 0.88325 0.52009 0.0
In208 In 0.87163 0.03923 0.28807 0.0
O209 O 0.90602 0.02881 0.31636 0.0
O210 O 0.89531 0.00076 0.28504 0.0
C211 C 0.83637 0.05961 0.32457 0.0
C212 C 0.90938 0.06912 0.25945 0.0
C213 C 0.83008 0.0144 0.26039 0.0
O214 O 0.84453 0.03584 0.32565 0.0
O215 O 0.84791 0.07394 0.30647 0.0
O216 O 0.83767 0.03895 0.25647 0.0
O217 O 0.84445 0.00242 0.277 0.0
C218 C 0.9114 0.00721 0.30401 0.0
O219 O 0.89308 0.05118 0.24906 0.0
O220 O 0.90469 0.07396 0.28388 0.0
In221 In 0.22584 0.65593 0.4888 0.0
O222 O 0.23174 0.6301 0.45117 0.0
O223 O 0.26571 0.63664 0.47775 0.0
C224 C 0.18254 0.68385 0.47384 0.0
C225 C 0.2118 0.6132 0.51971 0.0
C226 C 0.25558 0.70094 0.5042 0.0
O227 O 0.19918 0.67394 0.4571 0.0
O228 O 0.18666 0.67793 0.49783 0.0
O229 O 0.23968 0.68746 0.51995 0.0
O230 O 0.25774 0.69088 0.48097 0.0
C231 C 0.25609 0.62433 0.45732 0.0
O232 O 0.23036 0.63091 0.52648 0.0
O233 O 0.19891 0.61844 0.49881 0.0
In234 In 0.36774 0.52763 0.7827 0.0
O235 O 0.39833 0.51746 0.81489 0.0
O236 O 0.39063 0.48888 0.7832 0.0
C237 C 0.33073 0.55766 0.80856 0.0
C238 C 0.4086 0.55511 0.75604 0.0
C239 C 0.32667 0.49864 0.75833 0.0
O240 O 0.34079 0.53747 0.81941 0.0
O241 O 0.34155 0.56394 0.78627 0.0
O242 O 0.3391 0.51886 0.74738 0.0
O243 O 0.33616 0.4923 0.78065 0.0
C244 C 0.40468 0.49556 0.80356 0.0
O245 O 0.39374 0.53618 0.74534 0.0
O246 O 0.40128 0.56165 0.77946 0.0
In247 In 0.62869 0.03456 0.77194 0.0
O248 O 0.6528 0.02296 0.80895 0.0
O249 O 0.65229 -0.00341 0.775 0.0
C250 C 0.58991 0.06383 0.79629 0.0
C251 C 0.67303 0.06179 0.75011 0.0
C252 C 0.59054 0.00932 0.74033 0.0
O253 O 0.59622 0.04091 0.80446 0.0
O254 O 0.60484 0.07302 0.77724 0.0
O255 O 0.60448 0.03051 0.73341 0.0
O256 O 0.59719 -0.00017 0.76249 0.0
C257 C 0.66194 0.00203 0.79788 0.0
O258 O 0.65953 0.04306 0.73769 0.0
O259 O 0.6629 0.06803 0.77261 0.0
In260 In 0.73362 0.65308 0.01016 0.0
O261 O 0.69696 0.68028 0.01356 0.0
O262 O 0.72853 0.68498 0.04288 0.0
C263 C 0.69964 0.61337 0.99021 0.0
C264 C 0.76379 0.68821 0.9797 0.0
C265 C 0.7655 0.61623 0.03195 0.0
O266 O 0.69686 0.62265 0.01369 0.0
O267 O 0.71815 0.62568 0.97615 0.0
O268 O 0.76933 0.62546 0.00878 0.0
O269 O 0.74687 0.62744 0.04552 0.0
C270 C 0.70664 0.69374 0.03326 0.0
O271 O 0.77038 0.68297 0.00333 0.0
O272 O 0.74293 0.6744 0.97087 0.0
In273 In 0.85628 0.49789 0.7258 0.0
O274 O 0.81943 0.47225 0.7423 0.0
O275 O 0.82551 0.51278 0.75695 0.0
C276 C 0.88887 0.45687 0.71246 0.0
C277 C 0.82641 0.5183 0.68647 0.0
C278 C 0.89752 0.52659 0.75114 0.0
O279 O 0.87789 0.45918 0.73531 0.0
O280 O 0.88168 0.47401 0.6958 0.0
O281 O 0.89378 0.52887 0.72631 0.0
O282 O 0.87949 0.51147 0.76294 0.0
C283 C 0.81043 0.4911 0.75679 0.0
O284 O 0.84415 0.53277 0.6995 0.0
O285 O 0.82556 0.49342 0.69187 0.0
In286 In 0.73685 0.40077 0.49907 0.0
O287 O 0.69863 0.42509 0.50581 0.0
O288 O 0.72784 0.42486 0.53724 0.0
C289 C 0.70897 0.36437 0.46734 0.0
C290 C 0.76741 0.4432 0.47901 0.0
C291 C 0.76503 0.36253 0.52325 0.0
O292 O 0.70048 0.37097 0.49032 0.0
O293 O 0.73082 0.3774 0.45954 0.0
O294 O 0.77477 0.37531 0.50326 0.0
O295 O 0.74191 0.37011 0.53184 0.0
C296 C 0.70589 0.4342 0.52848 0.0
O297 O 0.77495 0.42978 0.49864 0.0
O298 O 0.74542 0.43386 0.46795 0.0
In299 In 0.6264 0.54297 0.24052 0.0
O300 O 0.59577 0.50671 0.24793 0.0
O301 O 0.60089 0.53709 0.27831 0.0
C302 C 0.65624 0.52937 0.19727 0.0
C303 C 0.58876 0.57667 0.2233 0.0
C304 C 0.67095 0.54686 0.27234 0.0
O305 O 0.63947 0.51273 0.20896 0.0
O306 O 0.65654 0.55337 0.20637 0.0
O307 O 0.65619 0.56688 0.26847 0.0
O308 O 0.66249 0.52494 0.26119 0.0
C309 C 0.58769 0.51583 0.27027 0.0
O310 O 0.6091 0.58557 0.23728 0.0
O311 O 0.58913 0.55204 0.21661 0.0
O312 O 0.15415 0.1861 0.11203 0.0
Mn313 Mn 0.12949 0.1582 0.13481 0.0
O314 O 0.18669 0.20386 0.1402 0.0
Mn315 Mn 0.17497 0.1852 0.17041 0.0
O316 O 0.10383 0.13204 0.159 0.0
O317 O 0.09849 0.16284 0.10928 0.0
Mn318 Mn 0.07822 0.13279 0.10423 0.0
O319 O 0.14217 0.12525 0.11176 0.0
O320 O 0.06318 0.12574 0.1373 0.0
O321 O 0.11455 0.18998 0.15882 0.0
O322 O 0.14704 0.2004 0.18959 0.0
O323 O 0.06557 0.15766 0.08063 0.0
O324 O 0.10316 0.10802 0.09164 0.0
C325 C 0.18228 0.14329 0.17191 0.0
C326 C 0.17522 0.20246 0.11735 0.0
C327 C 0.0779 0.12399 0.15805 0.0
C328 C 0.08631 0.1729 0.08924 0.0
C329 C 0.1291 0.10764 0.09661 0.0
C330 C 0.1228 0.20232 0.18038 0.0
O331 O 0.16197 0.15313 0.15912 0.0
O332 O 0.19732 0.16095 0.18547 0.0
O333 O 0.10488 0.86479 0.35458 0.0
Mn334 Mn 0.1152 0.88973 0.38706 0.0
O335 O 0.14598 0.85837 0.33377 0.0
Mn336 Mn 0.17064 0.87356 0.35916 0.0
O337 O 0.12669 0.9166 0.41804 0.0
O338 O 0.07726 0.90481 0.38565 0.0
Mn339 Mn 0.0637 0.90687 0.41866 0.0
O340 O 0.10086 0.86031 0.41432 0.0
O341 O 0.08741 0.93165 0.43627 0.0
O342 O 0.13178 0.91965 0.36058 0.0
O343 O 0.17709 0.91037 0.35633 0.0
O344 O 0.03669 0.91911 0.39725 0.0
O345 O 0.06051 0.87235 0.43238 0.0
C346 C 0.16624 0.85459 0.39775 0.0
C347 C 0.11938 0.85597 0.33485 0.0
C348 C 0.1138 0.93264 0.43373 0.0
C349 C 0.05435 0.91466 0.3782 0.0
C350 C 0.07966 0.85582 0.42968 0.0
C351 C 0.15728 0.92628 0.3541 0.0
O352 O 0.15168 0.87336 0.38897 0.0
O353 O 0.1872 0.85006 0.38235 0.0
O354 O 0.40451 0.92955 0.64216 0.0
Mn355 Mn 0.37672 0.90737 0.6171 0.0
O356 O 0.42575 0.96153 0.61618 0.0
Mn357 Mn 0.40919 0.95104 0.58437 0.0
O358 O 0.35015 0.88458 0.59087 0.0
O359 O 0.37799 0.87659 0.64248 0.0
Mn360 Mn 0.34652 0.85724 0.64341 0.0
O361 O 0.34248 0.92079 0.63802 0.0
O362 O 0.34395 0.84341 0.60926 0.0
O363 O 0.40972 0.89141 0.5952 0.0
O364 O 0.42503 0.92319 0.56619 0.0
O365 O 0.36856 0.84411 0.66986 0.0
O366 O 0.32015 0.88222 0.65253 0.0
C367 C 0.36699 0.95984 0.57922 0.0
C368 C 0.42197 0.9499 0.63861 0.0
C369 C 0.34301 0.85909 0.58942 0.0
C370 C 0.38583 0.86379 0.66303 0.0
C371 C 0.32169 0.90794 0.64943 0.0
C372 C 0.4245 0.89912 0.57487 0.0
O373 O 0.37498 0.9396 0.59281 0.0
O374 O 0.3868 0.97406 0.56752 0.0
O375 O 0.38794 0.19802 0.91759 0.0
Mn376 Mn 0.37434 0.16856 0.8896 0.0
O377 O 0.42401 0.18249 0.93948 0.0
Mn378 Mn 0.42074 0.14832 0.92397 0.0
O379 O 0.35859 0.13874 0.86232 0.0
O380 O 0.33873 0.18692 0.88997 0.0
Mn381 Mn 0.32236 0.18726 0.85919 0.0
O382 O 0.38852 0.19257 0.85775 0.0
O383 O 0.31484 0.15072 0.85412 0.0
O384 O 0.35838 0.14253 0.91954 0.0
O385 O 0.39456 0.124 0.93856 0.0
O386 O 0.30404 0.21065 0.88217 0.0
O387 O 0.34943 0.20231 0.83603 0.0
C388 C 0.43514 0.14075 0.88458 0.0
C389 C 0.40722 0.20081 0.93499 0.0
C390 C 0.33375 0.13362 0.8535 0.0
C391 C 0.32349 0.20571 0.89861 0.0
C392 C 0.37591 0.203 0.83814 0.0
C393 C 0.36858 0.12486 0.93471 0.0
O394 O 0.41169 0.15149 0.88988 0.0
O395 O 0.44976 0.13512 0.90508 0.0
O396 O 0.60541 0.36529 0.85685 0.0
Mn397 Mn 0.61597 0.39015 0.88942 0.0
O398 O 0.64632 0.35941 0.83542 0.0
Mn399 Mn 0.67122 0.37525 0.86024 0.0
O400 O 0.62775 0.4169 0.92041 0.0
O401 O 0.57759 0.40448 0.88913 0.0
Mn402 Mn 0.56505 0.40609 0.92256 0.0
O403 O 0.60293 0.36032 0.91673 0.0
O404 O 0.58871 0.43119 0.93974 0.0
O405 O 0.63128 0.42061 0.86294 0.0
O406 O 0.67669 0.41219 0.85738 0.0
O407 O 0.53703 0.41788 0.90217 0.0
O408 O 0.56299 0.37152 0.93619 0.0
C409 C 0.66833 0.35635 0.89896 0.0
C410 C 0.61976 0.3566 0.83694 0.0
C411 C 0.61502 0.43256 0.93659 0.0
C412 C 0.55412 0.41381 0.88255 0.0
C413 C 0.58238 0.35539 0.93275 0.0
C414 C 0.65651 0.42777 0.85592 0.0
O415 O 0.65286 0.37449 0.89037 0.0
O416 O 0.68908 0.35236 0.88313 0.0
O417 O 0.89823 0.43842 0.13897 0.0
Mn418 Mn 0.87197 0.41461 0.11379 0.0
O419 O 0.92679 0.46348 0.11162 0.0
Mn420 Mn 0.91454 0.44922 0.07919 0.0
O421 O 0.84813 0.38932 0.08711 0.0
O422 O 0.86415 0.38953 0.14484 0.0
Mn423 Mn 0.82937 0.37652 0.14273 0.0
O424 O 0.83747 0.4364 0.12493 0.0
O425 O 0.82858 0.35593 0.11211 0.0
O426 O 0.90553 0.39181 0.10104 0.0
O427 O 0.92873 0.41667 0.0696 0.0
O428 O 0.84288 0.36211 0.17316 0.0
O429 O 0.80686 0.4057 0.14325 0.0
C430 C 0.87372 0.45965 0.0676 0.0
C431 C 0.91842 0.45614 0.13484 0.0
C432 C 0.8362 0.3655 0.08966 0.0
C433 C 0.86559 0.37562 0.16644 0.0
C434 C 0.81344 0.42946 0.13488 0.0
C435 C 0.92397 0.39469 0.08225 0.0
O436 O 0.87906 0.44122 0.08442 0.0
O437 O 0.89567 0.47048 0.05607 0.0
O438 O 0.88335 0.69218 0.41374 0.0
Mn439 Mn 0.87051 0.66117 0.38689 0.0
O440 O 0.91872 0.67798 0.43761 0.0
Mn441 Mn 0.91495 0.64272 0.42496 0.0
O442 O 0.8554 0.62932 0.36131 0.0
O443 O 0.83545 0.68063 0.38346 0.0
Mn444 Mn 0.82247 0.67939 0.35098 0.0
O445 O 0.88765 0.68274 0.35428 0.0
O446 O 0.81494 0.64305 0.34514 0.0
O447 O 0.85234 0.63787 0.418 0.0
O448 O 0.88729 0.62085 0.44052 0.0
O449 O 0.79981 0.70143 0.37087 0.0
O450 O 0.85103 0.69496 0.33025 0.0
C451 C 0.93039 0.63163 0.38677 0.0
C452 C 0.90214 0.69599 0.43156 0.0
C453 C 0.83218 0.6249 0.34893 0.0
C454 C 0.8172 0.69777 0.38976 0.0
C455 C 0.87714 0.69423 0.33407 0.0
C456 C 0.86154 0.62181 0.43548 0.0
O457 O 0.90714 0.64327 0.39048 0.0
O458 O 0.94402 0.62707 0.40821 0.0
O459 O 0.85115 0.87499 0.89705 0.0
Mn460 Mn 0.87384 0.90923 0.88282 0.0
O461 O 0.83771 0.85122 0.86004 0.0
Mn462 Mn 0.85227 0.87462 0.83416 0.0
O463 O 0.89762 0.94218 0.86721 0.0
O464 O 0.89465 0.91154 0.9178 0.0
Mn465 Mn 0.89855 0.94602 0.92754 0.0
O466 O 0.84418 0.93529 0.89767 0.0
O467 O 0.92009 0.96293 0.90146 0.0
O468 O 0.90485 0.88501 0.86629 0.0
O469 O 0.88902 0.87162 0.82572 0.0
O470 O 0.91493 0.92768 0.954 0.0
O471 O 0.86348 0.95851 0.93231 0.0
C472 C 0.83346 0.91275 0.83196 0.0
C473 C 0.83891 0.85424 0.88542 0.0
C474 C 0.91597 0.95954 0.87656 0.0
C475 C 0.90749 0.90659 0.93966 0.0
C476 C 0.84328 0.95301 0.91668 0.0
C477 C 0.9084 0.87494 0.84265 0.0
O478 O 0.85162 0.9067 0.84924 0.0
O479 O 0.82873 0.89415 0.81393 0.0
O480 O 0.90705 0.19413 0.66172 0.0
Mn481 Mn 0.88268 0.17404 0.63197 0.0
O482 O 0.88054 0.22411 0.68262 0.0
Mn483 Mn 0.84763 0.21067 0.66795 0.0
O484 O 0.858 0.15164 0.60378 0.0
O485 O 0.91221 0.14686 0.62966 0.0
Mn486 Mn 0.91917 0.13825 0.59616 0.0
O487 O 0.90253 0.19701 0.60126 0.0
O488 O 0.88649 0.12269 0.58349 0.0
O489 O 0.86117 0.15079 0.66149 0.0
O490 O 0.83308 0.17923 0.68299 0.0
O491 O 0.94304 0.11908 0.61592 0.0
O492 O 0.93162 0.16978 0.57965 0.0
C493 C 0.83714 0.22083 0.62839 0.0
C494 C 0.90349 0.21283 0.67943 0.0
C495 C 0.86251 0.13154 0.5878 0.0
C496 C 0.93191 0.13153 0.63593 0.0
C497 C 0.92101 0.19262 0.58308 0.0
C498 C 0.8419 0.15571 0.67875 0.0
O499 O 0.85432 0.20261 0.63419 0.0
O500 O 0.82579 0.23244 0.64879 0.0
O501 O 0.62809 0.17344 0.38771 0.0
Mn502 Mn 0.60661 0.1377 0.37545 0.0
O503 O 0.64343 0.19193 0.3487 0.0
Mn504 Mn 0.63479 0.16327 0.32487 0.0
O505 O 0.58436 0.10325 0.35988 0.0
O506 O 0.58044 0.14074 0.40746 0.0
Mn507 Mn 0.57227 0.10721 0.41813 0.0
O508 O 0.63256 0.11394 0.39742 0.0
O509 O 0.55369 0.08884 0.39114 0.0
O510 O 0.5797 0.16014 0.35256 0.0
O511 O 0.59931 0.16137 0.31159 0.0
O512 O 0.55324 0.12836 0.44116 0.0
O513 O 0.60516 0.09343 0.4287 0.0
C514 C 0.65574 0.12697 0.33347 0.0
C515 C 0.64027 0.19282 0.37417 0.0
C516 C 0.56294 0.08849 0.36732 0.0
C517 C 0.56508 0.14797 0.42759 0.0
C518 C 0.62872 0.09802 0.41737 0.0
C519 C 0.5783 0.16288 0.32707 0.0
O520 O 0.63376 0.13493 0.34529 0.0
O521 O 0.66311 0.14167 0.3132 0.0
O522 O 0.60066 0.89761 0.10113 0.0
Mn523 Mn 0.62393 0.90686 0.13497 0.0
O524 O 0.58707 0.93882 0.08885 0.0
Mn525 Mn 0.59718 0.95982 0.119 0.0
O526 O 0.64805 0.91977 0.16792 0.0
O527 O 0.6488 0.87595 0.12541 0.0
Mn528 Mn 0.65776 0.86202 0.15633 0.0
O529 O 0.59845 0.8812 0.15884 0.0
O530 O 0.67772 0.88768 0.17591 0.0
O531 O 0.65034 0.93344 0.1123 0.0
O532 O 0.63312 0.97424 0.11926 0.0
O533 O 0.6755 0.84182 0.13174 0.0
O534 O 0.62532 0.84812 0.17189 0.0
C535 C 0.57662 0.94598 0.15511 0.0
C536 C 0.589 0.91328 0.08475 0.0
C537 C 0.66928 0.91127 0.17981 0.0
C538 C 0.6633 0.85687 0.115 0.0
C539 C 0.60218 0.85936 0.17162 0.0
C540 C 0.653 0.95952 0.11272 0.0
O541 O 0.59797 0.93579 0.14407 0.0
O542 O 0.56997 0.96809 0.14397 0.0
O543 O 0.40966 0.69376 0.15791 0.0
Mn544 Mn 0.38332 0.67531 0.12874 0.0
O545 O 0.38634 0.72627 0.17867 0.0
Mn546 Mn 0.35247 0.71584 0.16402 0.0
O547 O 0.35647 0.65449 0.10113 0.0
O548 O 0.40989 0.64558 0.127 0.0
Mn549 Mn 0.41464 0.63316 0.09444 0.0
O550 O 0.4051 0.69508 0.09719 0.0
O551 O 0.38001 0.61906 0.0855 0.0
O552 O 0.35983 0.65479 0.15887 0.0
O553 O 0.33458 0.68616 0.17952 0.0
O554 O 0.439 0.61561 0.1156 0.0
O555 O 0.42732 0.66271 0.07452 0.0
C556 C 0.34274 0.72647 0.12449 0.0
C557 C 0.40798 0.71289 0.17551 0.0
C558 C 0.35787 0.63185 0.08803 0.0
C559 C 0.42967 0.63099 0.1344 0.0
C560 C 0.42068 0.68721 0.07773 0.0
C561 C 0.34099 0.66173 0.17579 0.0
O562 O 0.35809 0.7067 0.1303 0.0
O563 O 0.33304 0.73957 0.14481 0.0
O564 O 0.12656 0.67411 0.88592 0.0
Mn565 Mn 0.10416 0.63971 0.87061 0.0
O566 O 0.14252 0.69612 0.8489 0.0
Mn567 Mn 0.1304 0.67141 0.8226 0.0
O568 O 0.08079 0.60705 0.8527 0.0
O569 O 0.07966 0.63908 0.90374 0.0
Mn570 Mn 0.07202 0.60485 0.91207 0.0
O571 O 0.13109 0.61337 0.88842 0.0
O572 O 0.05236 0.58908 0.88427 0.0
O573 O 0.076 0.66457 0.8522 0.0
O574 O 0.09442 0.6738 0.81163 0.0
O575 O 0.05423 0.62443 0.93762 0.0
O576 O 0.1055 0.5904 0.91949 0.0
C577 C 0.14967 0.63331 0.82331 0.0
C578 C 0.13972 0.69428 0.87429 0.0
C579 C 0.06003 0.59127 0.86 0.0
C580 C 0.06526 0.64499 0.92486 0.0
C581 C 0.12832 0.59574 0.90708 0.0
C582 C 0.07402 0.67258 0.82798 0.0
O583 O 0.12974 0.64032 0.83884 0.0
O584 O 0.15596 0.65073 0.8049 0.0
O585 O 0.09166 0.39476 0.60022 0.0
Mn586 Mn 0.11505 0.40332 0.63412 0.0
O587 O 0.08034 0.43626 0.58663 0.0
Mn588 Mn 0.09187 0.45765 0.61606 0.0
O589 O 0.13968 0.41499 0.66696 0.0
O590 O 0.13736 0.37023 0.62584 0.0
Mn591 Mn 0.14315 0.35564 0.65731 0.0
O592 O 0.08712 0.38063 0.65843 0.0
O593 O 0.16445 0.37977 0.67758 0.0
O594 O 0.14359 0.42741 0.61108 0.0
O595 O 0.12864 0.46959 0.61563 0.0
O596 O 0.16016 0.33368 0.63384 0.0
O597 O 0.10923 0.34443 0.67169 0.0
C598 C 0.07121 0.44607 0.65296 0.0
C599 C 0.08102 0.41051 0.58327 0.0
C600 C 0.15901 0.40451 0.6801 0.0
C601 C 0.15088 0.34998 0.61642 0.0
C602 C 0.08786 0.35839 0.67129 0.0
C603 C 0.14763 0.45339 0.61017 0.0
O604 O 0.09175 0.43454 0.64198 0.0
O605 O 0.06543 0.46805 0.64108 0.0
O606 O 0.65334 0.68187 0.61564 0.0
Mn607 Mn 0.62785 0.65362 0.63655 0.0
O608 O 0.68556 0.69731 0.64543 0.0
Mn609 Mn 0.67452 0.67599 0.6743 0.0
O610 O 0.60175 0.62681 0.65937 0.0
O611 O 0.59706 0.66097 0.61164 0.0
Mn612 Mn 0.57494 0.63219 0.60632 0.0
O613 O 0.63881 0.62164 0.61153 0.0
O614 O 0.55999 0.62541 0.63953 0.0
O615 O 0.61466 0.68455 0.66268 0.0
O616 O 0.64663 0.68935 0.695 0.0
O617 O 0.56364 0.65845 0.58346 0.0
O618 O 0.59825 0.60601 0.59324 0.0
C619 C 0.68063 0.63368 0.66917 0.0
C620 C 0.67443 0.69753 0.6224 0.0
C621 C 0.57533 0.6211 0.65932 0.0
C622 C 0.58526 0.67234 0.59213 0.0
C623 C 0.62436 0.6045 0.59698 0.0
C624 C 0.62299 0.69394 0.68556 0.0
O625 O 0.6599 0.64602 0.66003 0.0
O626 O 0.69662 0.64874 0.6845 0.0
O627 O 0.35249 0.37731 0.40269 0.0
Mn628 Mn 0.37433 0.40965 0.38337 0.0
O629 O 0.33234 0.35164 0.36983 0.0
Mn630 Mn 0.34741 0.37047 0.34107 0.0
O631 O 0.39732 0.44061 0.36308 0.0
O632 O 0.39831 0.41467 0.41618 0.0
Mn633 Mn 0.40315 0.4497 0.42304 0.0
O634 O 0.34623 0.43733 0.39836 0.0
O635 O 0.42179 0.46461 0.39408 0.0
O636 O 0.40352 0.38357 0.36704 0.0
O637 O 0.38299 0.36279 0.33155 0.0
O638 O 0.42227 0.43336 0.44909 0.0
O639 O 0.36857 0.4623 0.43019 0.0
C640 C 0.33104 0.40881 0.33353 0.0
C641 C 0.33709 0.35679 0.39444 0.0
C642 C 0.41599 0.45897 0.36985 0.0
C643 C 0.41318 0.41128 0.43716 0.0
C644 C 0.34699 0.45592 0.41663 0.0
C645 C 0.40419 0.36856 0.34583 0.0
O646 O 0.34924 0.40456 0.35155 0.0
O647 O 0.32457 0.38792 0.31857 0.0
H648 H 0.00024 0.24019 0.29959 0.0
H649 H 0.13659 0.24852 0.20766 0.0
H650 H 0.06671 0.30173 0.30743 0.0
H651 H 0.06666 0.19328 0.19033 0.0
H652 H 0.1094 0.26988 0.24242 0.0
H653 H 0.02293 0.22308 0.25905 0.0
C654 C 0.01968 0.24999 0.29287 0.0
C655 C 0.03176 0.27228 0.30703 0.0
C656 C 0.09974 0.2533 0.23093 0.0
C657 C 0.05754 0.25308 0.26057 0.0
C658 C 0.11524 0.24117 0.21094 0.0
C659 C 0.10395 0.21884 0.19639 0.0
C660 C 0.07277 0.2428 0.23685 0.0
C661 C 0.07616 0.2103 0.2013 0.0
C662 C 0.03246 0.24036 0.26962 0.0
C663 C 0.05675 0.2844 0.29728 0.0
N664 N 0.06159 0.22199 0.22152 0.0
N665 N 0.06881 0.2746 0.27476 0.0
H666 H 0.02174 0.75095 0.55539 0.0
H667 H 0.11943 0.84926 0.46596 0.0
H668 H 0.06815 0.82131 0.58644 0.0
H669 H 0.03969 0.81594 0.44006 0.0
H670 H 0.11382 0.82359 0.50741 0.0
H671 H 0.04159 0.76028 0.51093 0.0
C672 C 0.03682 0.76783 0.55304 0.0
C673 C 0.04318 0.78558 0.57452 0.0
C674 C 0.09804 0.82117 0.49221 0.0
C675 C 0.06602 0.79601 0.52399 0.0
C676 C 0.10138 0.83545 0.46845 0.0
C677 C 0.08014 0.83431 0.44955 0.0
C678 C 0.07332 0.80562 0.4969 0.0
C679 C 0.05659 0.81708 0.45414 0.0
C680 C 0.04797 0.77316 0.52768 0.0
C681 C 0.06259 0.80729 0.57033 0.0
N682 N 0.05367 0.80351 0.47753 0.0
N683 N 0.07321 0.81204 0.54545 0.0
H684 H 0.50432 0.86697 0.79209 0.0
H685 H 0.43975 0.85102 0.66846 0.0
H686 H 0.41882 0.85296 0.81707 0.0
H687 H 0.3756 0.89768 0.70382 0.0
H688 H 0.46551 0.85517 0.71049 0.0
H689 H 0.48854 0.88077 0.74816 0.0
C690 C 0.48222 0.86737 0.78855 0.0
C691 C 0.46278 0.85854 0.80816 0.0
C692 C 0.44637 0.86548 0.70869 0.0
C693 C 0.44481 0.87432 0.75813 0.0
C694 C 0.43183 0.86326 0.68467 0.0
C695 C 0.40595 0.87458 0.68265 0.0
C696 C 0.43426 0.87817 0.73094 0.0
C697 C 0.39585 0.88922 0.70456 0.0
C698 C 0.47332 0.87506 0.76345 0.0
C699 C 0.43445 0.85939 0.80245 0.0
N700 N 0.40963 0.88995 0.72808 0.0
N701 N 0.4263 0.86707 0.77789 0.0
H702 H 0.46549 0.31386 0.05552 0.0
H703 H 0.36611 0.21348 0.9693 0.0
H704 H 0.41196 0.25046 0.08991 0.0
H705 H 0.44962 0.23813 0.94512 0.0
H706 H 0.3712 0.24274 0.00919 0.0
H707 H 0.44765 0.30113 0.01121 0.0
C708 C 0.4493 0.29787 0.05387 0.0
C709 C 0.44033 0.28297 0.07634 0.0
C710 C 0.38803 0.2424 -0.00533 0.0
C711 C 0.41979 0.26867 0.02592 0.0
C712 C 0.38503 0.22605 0.97181 0.0
C713 C 0.40739 0.22378 0.95391 0.0
C714 C 0.41351 0.25661 -0.0006 0.0
C715 C 0.43189 0.2396 0.95846 0.0
C716 C 0.43929 0.29059 0.0286 0.0
C717 C 0.41954 0.26228 0.07303 0.0
N718 N 0.4344 0.25526 0.98092 0.0
N719 N 0.41009 0.25557 0.0482 0.0
H720 H 0.08243 0.78593 0.17906 0.0
H721 H 0.06589 0.8634 0.31938 0.0
H722 H 0.01675 0.83977 0.19614 0.0
H723 H 0.14036 0.82464 0.29478 0.0
H724 H 0.04531 0.8512 0.27607 0.0
H725 H 0.10265 0.79759 0.22253 0.0
C726 C 0.07249 0.80052 0.19181 0.0
C727 C 0.04796 0.812 0.18393 0.0
C728 C 0.06609 0.84524 0.28026 0.0
C729 C 0.07059 0.82495 0.23401 0.0
C730 C 0.07773 0.85192 0.30509 0.0
C731 C 0.10493 0.84508 0.31073 0.0
C732 C 0.08166 0.83141 0.26103 0.0
C733 C 0.11939 0.83046 0.29128 0.0
C734 C 0.08394 0.80705 0.2167 0.0
C735 C 0.03582 0.83061 0.20135 0.0
N736 N 0.10762 0.82418 0.26733 0.0
N737 N 0.04713 0.83635 0.22567 0.0
H738 H 0.46405 0.76787 0.46628 0.0
H739 H 0.47161 0.90944 0.54599 0.0
H740 H 0.50979 0.84074 0.44106 0.0
H741 H 0.41259 0.84443 0.56739 0.0
H742 H 0.49123 0.88041 0.51199 0.0
H743 H 0.44843 0.79236 0.50644 0.0
C744 C 0.47064 0.78901 0.46911 0.0
C745 C 0.48812 0.80237 0.45027 0.0
C746 C 0.47411 0.87228 0.52416 0.0
C747 C 0.47094 0.8301 0.49612 0.0
C748 C 0.46302 0.88882 0.54374 0.0
C749 C 0.44011 0.87945 0.55915 0.0
C750 C 0.46206 0.84616 0.51963 0.0
C751 C 0.43009 0.85245 0.55568 0.0
C752 C 0.46188 0.80287 0.49205 0.0
C753 C 0.49624 0.82964 0.45495 0.0
N754 N 0.44085 0.83678 0.53589 0.0
N755 N 0.48765 0.84251 0.47736 0.0
H756 H 0.48193 0.21529 0.69736 0.0
H757 H 0.36095 0.24181 0.804 0.0
H758 H 0.41966 0.27375 0.68757 0.0
H759 H 0.4271 0.1889 0.81926 0.0
H760 H 0.38304 0.25408 0.76158 0.0
H761 H 0.46204 0.20433 0.74149 0.0
C762 C 0.46384 0.22553 0.70432 0.0
C763 C 0.45234 0.24538 0.68871 0.0
C764 C 0.39296 0.23998 0.77424 0.0
C765 C 0.42983 0.2333 0.7393 0.0
C766 C 0.3804 0.23307 0.79858 0.0
C767 C 0.39217 0.21426 0.8152 0.0
C768 C 0.41739 0.22782 0.76615 0.0
C769 C 0.41744 0.20363 0.80715 0.0
C770 C 0.45268 0.21946 0.72961 0.0
C771 C 0.42914 0.25825 0.69886 0.0
N772 N 0.42907 0.21033 0.78301 0.0
N773 N 0.41871 0.25202 0.72347 0.0
H774 H 0.08633 0.2838 0.96095 0.0
H775 H 0.12527 0.16178 0.05276 0.0
H776 H 0.0779 0.19975 0.93653 0.0
H777 H 0.07452 0.22546 0.08124 0.0
H778 H 0.13082 0.18469 0.00974 0.0
H779 H 0.10415 0.27005 0.00412 0.0
C780 C 0.08916 0.26253 0.9643 0.0
C781 C 0.08045 0.24279 0.94527 0.0
C782 C 0.11955 0.19423 0.02584 0.0
C783 C 0.10121 0.22722 -0.00582 0.0
C784 C 0.11666 0.18142 0.05044 0.0
C785 C 0.09972 0.19205 0.07054 0.0
C786 C 0.10559 0.21789 0.02157 0.0
C787 C 0.08811 0.21697 0.06632 0.0
C788 C 0.0992 0.25479 0.98893 0.0
C789 C 0.08423 0.21553 0.95075 0.0
N790 N 0.091 0.22898 0.04209 0.0
N791 N 0.0942 0.20851 0.97483 0.0
H792 H 0.32148 0.07987 0.20765 0.0
H793 H 0.20419 0.12225 0.12641 0.0
H794 H 0.29478 0.0117 0.15766 0.0
H795 H 0.18813 0.10582 0.20953 0.0
H796 H 0.24133 0.08987 0.12642 0.0
H797 H 0.27874 0.1017 0.19706 0.0
C798 C 0.30703 0.06977 0.19388 0.0
C799 C 0.31168 0.04384 0.18362 0.0
C800 C 0.22874 0.0925 0.14425 0.0
C801 C 0.26286 0.0688 0.17158 0.0
C802 C 0.20735 0.11061 0.14419 0.0
C803 C 0.19276 0.11621 0.1679 0.0
C804 C 0.23578 0.08069 0.16835 0.0
C805 C 0.19853 0.10159 0.19074 0.0
C806 C 0.28261 0.08216 0.18807 0.0
C807 C 0.29197 0.03171 0.16599 0.0
N808 N 0.22015 0.08509 0.19064 0.0
N809 N 0.26817 0.04424 0.16059 0.0
H810 H 0.21373 0.0814 0.44526 0.0
H811 H 0.09778 0.96414 0.47592 0.0
H812 H 0.15708 0.08391 0.51256 0.0
H813 H 0.16481 0.9551 0.41905 0.0
H814 H 0.11896 0.00802 0.48965 0.0
H815 H 0.19454 0.03591 0.43398 0.0
C816 C 0.19697 0.07254 0.45743 0.0
C817 C 0.18689 0.08648 0.47982 0.0
C818 C 0.12923 -0.0037 0.47441 0.0
C819 C 0.16519 0.03429 0.46731 0.0
C820 C 0.11724 0.97116 0.46666 0.0
C821 C 0.12947 0.95594 0.44623 0.0
C822 C 0.15347 0.00652 0.4614 0.0
C823 C 0.1547 0.96607 0.43495 0.0
C824 C 0.18624 0.04645 0.45116 0.0
C825 C 0.16538 0.07391 0.49507 0.0
N826 N 0.16567 0.9909 0.44244 0.0
N827 N 0.15525 0.04852 0.48854 0.0
H828 H 0.16384 0.95187 0.71526 0.0
H829 H 0.3145 0.96272 0.6471 0.0
H830 H 0.19791 0.02457 0.6777 0.0
H831 H 0.27301 0.88738 0.67159 0.0
H832 H 0.27243 0.98615 0.65856 0.0
H833 H 0.2036 0.92777 0.69871 0.0
C834 C 0.17947 0.96263 0.70312 0.0
C835 C 0.17765 0.99024 0.69788 0.0
C836 C 0.27257 0.96447 0.66131 0.0
C837 C 0.22352 0.96301 0.6794 0.0
C838 C 0.2966 0.95111 0.65479 0.0
C839 C 0.29733 0.92302 0.65811 0.0
C840 C 0.24919 0.94964 0.67151 0.0
C841 C 0.27356 0.90905 0.66862 0.0
C842 C 0.20225 0.94892 0.69379 0.0
C843 C 0.19851 0.00324 0.68214 0.0
N844 N 0.25054 0.9225 0.67495 0.0
N845 N 0.22079 0.98959 0.6737 0.0
H846 H 0.31923 0.96793 -0.00308 0.0
H847 H 0.31538 0.10868 0.91962 0.0
H848 H 0.25667 0.98353 0.93907 0.0
H849 H 0.38079 0.08811 0.97253 0.0
H850 H 0.29096 0.06499 0.92926 0.0
H851 H 0.3404 0.01316 0.98972 0.0
C852 C 0.31011 0.98079 0.98245 0.0
C853 C 0.28623 0.97184 0.96845 0.0
C854 C 0.31052 0.07021 0.93895 0.0
C855 C 0.31017 0.0241 0.96041 0.0
C856 C 0.32436 0.09526 0.93363 0.0
C857 C 0.35041 0.10198 0.94496 0.0
C858 C 0.32271 0.05189 0.95591 0.0
C859 C 0.36095 0.08377 0.96306 0.0
C860 C 0.32212 0.00674 0.97846 0.0
C861 C 0.27521 0.98952 0.95011 0.0
N862 N 0.34721 0.05957 0.96777 0.0
N863 N 0.28722 0.01486 0.94666 0.0
H864 H 0.27007 0.95439 0.23967 0.0
H865 H 0.18508 0.97184 0.37204 0.0
H866 H 0.29682 0.01056 0.3021 0.0
H867 H 0.15027 0.93361 0.30142 0.0
H868 H 0.22181 -0.00624 0.34472 0.0
H869 H 0.22376 0.95096 0.26017 0.0
C870 C 0.26621 0.9659 0.25778 0.0
C871 C 0.28744 0.98239 0.26949 0.0
C872 C 0.20557 0.98144 0.33494 0.0
C873 C 0.23434 0.9789 0.29291 0.0
C874 C 0.18419 0.96942 0.35052 0.0
C875 C 0.16485 0.95071 0.33895 0.0
C876 C 0.20768 0.97423 0.30778 0.0
C877 C 0.16488 0.94791 0.31106 0.0
C878 C 0.23966 0.96424 0.26929 0.0
C879 C 0.28113 -0.00269 0.29264 0.0
N880 N 0.18663 0.95869 0.29648 0.0
N881 N 0.25526 -0.00505 0.30379 0.0
H882 H 0.28669 0.07452 0.50439 0.0
H883 H 0.34475 0.99009 0.61843 0.0
H884 H 0.26461 0.09335 0.58607 0.0
H885 H 0.32939 0.95726 0.53967 0.0
H886 H 0.31272 0.02576 0.60991 0.0
H887 H 0.30231 0.0311 0.51844 0.0
C888 C 0.28537 0.06961 0.52541 0.0
C889 C 0.27469 0.08778 0.54416 0.0
C890 C 0.31538 0.01009 0.5949 0.0
C891 C 0.29243 0.03764 0.56044 0.0
C892 C 0.33317 0.98935 0.59999 0.0
C893 C 0.33915 0.97037 0.57993 0.0
C894 C 0.30433 0.01219 0.56926 0.0
C895 C 0.32491 0.97124 0.55581 0.0
C896 C 0.29393 0.04458 0.53337 0.0
C897 C 0.273 0.08001 0.57104 0.0
N898 N 0.3087 0.99221 0.55088 0.0
N899 N 0.28218 0.05562 0.57849 0.0
H900 H 0.21539 0.08879 0.74923 0.0
H901 H 0.30958 0.08817 0.87515 0.0
H902 H 0.19696 0.03558 0.81542 0.0
H903 H 0.33646 0.12353 0.80057 0.0
H904 H 0.2728 0.06183 0.85186 0.0
H905 H 0.2623 0.09761 0.76619 0.0
C906 C 0.22119 0.07909 0.76745 0.0
C907 C 0.20214 0.06183 0.78122 0.0
C908 C 0.28737 0.07452 0.84033 0.0
C909 C 0.25597 0.07152 0.80062 0.0
C910 C 0.30876 0.08915 0.8536 0.0
C911 C 0.32587 0.10813 0.83974 0.0
C912 C 0.28299 0.07941 0.81317 0.0
C913 C 0.32364 0.10903 0.81191 0.0
C914 C 0.24812 0.08382 0.77694 0.0
C915 C 0.21093 0.04934 0.80441 0.0
N916 N 0.30195 0.09558 0.79961 0.0
N917 N 0.23713 0.05469 0.81359 0.0
H918 H 0.22131 0.96281 0.07179 0.0
H919 H 0.12134 0.08432 0.04773 0.0
H920 H 0.16683 0.96743 0.00446 0.0
H921 H 0.16834 0.07762 0.1197 0.0
H922 H 0.14017 0.04251 0.03081 0.0
H923 H 0.20354 0.00508 0.08966 0.0
C924 C 0.20533 0.97249 0.06097 0.0
C925 C 0.19549 0.96155 0.03662 0.0
C926 C 0.1467 0.05027 0.05019 0.0
C927 C 0.1755 0.0101 0.05665 0.0
C928 C 0.13607 0.07424 0.05979 0.0
C929 C 0.14377 0.08472 0.08495 0.0
C930 C 0.16504 0.0364 0.06596 0.0
C931 C 0.16271 0.07073 0.09984 0.0
C932 C 0.19535 -0.00329 0.07108 0.0
C933 C 0.17498 0.97507 0.02332 0.0
N934 N 0.17264 0.04718 0.09019 0.0
N935 N 0.16581 -0.00135 0.03343 0.0
H936 H 0.251 0.35356 0.07215 0.0
H937 H 0.14747 0.2239 0.07541 0.0
H938 H 0.19699 0.33482 0.00554 0.0
H939 H 0.22592 0.22951 0.11595 0.0
H940 H 0.16166 0.26484 0.05051 0.0
H941 H 0.23708 0.30986 0.09144 0.0
C942 C 0.23594 0.34037 0.06171 0.0
C943 C 0.22514 0.34785 0.0372 0.0
C944 C 0.17589 0.25676 0.06454 0.0
C945 C 0.20927 0.29754 0.05912 0.0
C946 C 0.16792 0.23315 0.07848 0.0
C947 C 0.18539 0.22313 0.09781 0.0
C948 C 0.20133 0.27063 0.07044 0.0
C949 C 0.21154 0.23656 0.10147 0.0
C950 C 0.22822 0.31528 0.0726 0.0
C951 C 0.20579 0.32981 0.02451 0.0
N952 N 0.2185 0.25976 0.08828 0.0
N953 N 0.19836 0.30544 0.03567 0.0
H954 H 0.68175 0.23083 0.01102 0.0
H955 H 0.62894 0.31664 0.8904 0.0
H956 H 0.66022 0.19756 0.93343 0.0
H957 H 0.68845 0.3471 0.9484 0.0
H958 H 0.62204 0.27476 0.91589 0.0
H959 H 0.66504 0.27449 -0.00244 0.0
C960 C 0.67251 0.2324 0.99153 0.0
C961 C 0.67282 0.21078 0.97305 0.0
C962 C 0.63591 0.29097 0.92349 0.0
C963 C 0.65385 0.2604 0.95772 0.0
C964 C 0.63971 0.31484 0.90911 0.0
C965 C 0.65891 0.3353 0.91773 0.0
C966 C 0.65169 0.28756 0.9464 0.0
C967 C 0.67317 0.33183 0.94148 0.0
C968 C 0.66319 0.25734 0.98385 0.0
C969 C 0.6607 0.2139 0.94808 0.0
N970 N 0.66943 0.30821 0.95497 0.0
N971 N 0.65207 0.23845 0.94096 0.0
H972 H 0.05537 0.46508 0.24456 0.0
H973 H 0.93891 0.50763 0.143 0.0
H974 H 0.06117 0.53675 0.19617 0.0
H975 H 0.93987 0.42733 0.17515 0.0
H976 H 0.97914 0.52143 0.17004 0.0
H977 H 0.00988 0.45274 0.22496 0.0
C978 C 0.04722 0.47806 0.22963 0.0
C979 C 0.06219 0.50186 0.22181 0.0
C980 C 0.97026 0.50092 0.17167 0.0
C981 C 0.00998 0.48828 0.19994 0.0
C982 C 0.94706 0.49316 0.15651 0.0
C983 C 0.93592 0.46639 0.15709 0.0
C984 C 0.98269 0.48167 0.18731 0.0
C985 C 0.94746 0.44831 0.17464 0.0
C986 C 0.02119 0.47111 0.21863 0.0
C987 C 0.05051 0.51809 0.20263 0.0
N988 N 0.97054 0.45616 0.18882 0.0
N989 N 0.02511 0.51105 0.19246 0.0
H990 H 0.75188 0.8342 0.4511 0.0
H991 H 0.85934 0.73508 0.40035 0.0
H992 H 0.83611 0.8489 0.47817 0.0
H993 H 0.77749 0.70707 0.42657 0.0
H994 H 0.85457 0.77709 0.42633 0.0
H995 H 0.76308 0.78886 0.43667 0.0
C996 C 0.7729 0.82803 0.45368 0.0
C997 C 0.79316 0.84544 0.46571 0.0
C998 C 0.83814 0.76128 0.42722 0.0
C999 C 0.80602 0.79327 0.44933 0.0
C1000 C 0.84106 0.73708 0.41286 0.0
C1001 C 0.81913 0.71721 0.41216 0.0
C1002 C 0.8127 0.76588 0.43991 0.0
C1003 C 0.79507 0.72167 0.42714 0.0
C1004 C 0.77914 0.80198 0.44579 0.0
C1005 C 0.81995 0.83611 0.46884 0.0
N1006 N 0.79225 0.74575 0.43997 0.0
N1007 N 0.82577 0.81063 0.4604 0.0
H1008 H 0.92814 0.05391 0.21038 0.0
H1009 H 0.06637 0.14757 0.20653 0.0
H1010 H 0.94998 0.106 0.27763 0.0
H1011 H 0.0535 0.07394 0.16033 0.0
H1012 H 0.02533 0.13424 0.23409 0.0
H1013 H 0.97379 0.06437 0.19073 0.0
C1014 C 0.9424 0.06791 0.22085 0.0
C1015 C 0.93516 0.07916 0.24565 0.0
C1016 C 0.03203 0.12065 0.21842 0.0
C1017 C 0.98793 0.09092 0.2234 0.0
C1018 C 0.05564 0.12808 0.20298 0.0
C1019 C 0.06316 0.11182 0.18116 0.0
C1020 C 0.01594 0.09704 0.21159 0.0
C1021 C 0.04836 0.08696 0.17706 0.0
C1022 C 0.96867 0.07359 0.20979 0.0
C1023 C 0.95469 0.097 0.25838 0.0
N1024 N 0.02517 0.08059 0.19174 0.0
N1025 N 0.98024 0.10242 0.24708 0.0
H1026 H 0.30081 0.72812 0.48128 0.0
H1027 H 0.28819 0.8558 0.57954 0.0
H1028 H 0.23882 0.73492 0.54355 0.0
H1029 H 0.36703 0.83245 0.54805 0.0
H1030 H 0.26486 0.81967 0.5528 0.0
H1031 H 0.32097 0.77319 0.49432 0.0
C1032 C 0.29145 0.73913 0.49762 0.0
C1033 C 0.26844 0.72769 0.51169 0.0
C1034 C 0.28721 0.82303 0.55105 0.0
C1035 C 0.2906 0.77924 0.5259 0.0
C1036 C 0.30043 0.84392 0.5659 0.0
C1037 C 0.32947 0.84715 0.56569 0.0
C1038 C 0.30322 0.80527 0.53604 0.0
C1039 C 0.34456 0.83072 0.54841 0.0
C1040 C 0.30283 0.76479 0.50491 0.0
C1041 C 0.25687 0.74282 0.5325 0.0
N1042 N 0.33128 0.81013 0.5345 0.0
N1043 N 0.26803 0.76782 0.53894 0.0
H1044 H 0.04909 0.53624 0.3252 0.0
H1045 H 0.96185 0.66369 0.35344 0.0
H1046 H 0.07074 0.61261 0.28758 0.0
H1047 H 0.9295 0.58175 0.36464 0.0
H1048 H -0.00019 0.64663 0.32598 0.0
H1049 H 0.00476 0.55354 0.33938 0.0
C1050 C 0.04464 0.5568 0.32018 0.0
C1051 C 0.06377 0.57312 0.30545 0.0
C1052 C 0.98385 0.63242 0.3336 0.0
C1053 C 0.01273 0.593 0.32132 0.0
C1054 C 0.96189 0.64221 0.34881 0.0
C1055 C 0.9424 0.62406 0.36093 0.0
C1056 C 0.98652 0.60432 0.33121 0.0
C1057 C 0.94393 0.59637 0.35526 0.0
C1058 C 0.01913 0.56655 0.32795 0.0
C1059 C 0.05665 0.59945 0.29913 0.0
N1060 N 0.966 0.58727 0.34134 0.0
N1061 N 0.03177 0.60869 0.3073 0.0
H1062 H 0.41749 0.44408 0.78929 0.0
H1063 H 0.56556 0.46137 0.85833 0.0
H1064 H 0.44922 0.51537 0.83201 0.0
H1065 H 0.52158 0.38385 0.84852 0.0
H1066 H 0.53043 0.48199 0.83159 0.0
H1067 H 0.46131 0.42256 0.79745 0.0
C1068 C 0.43361 0.4551 0.80052 0.0
C1069 C 0.4296 0.4813 0.81049 0.0
C1070 C 0.52905 0.46027 0.83438 0.0
C1071 C 0.4799 0.45738 0.81876 0.0
C1072 C 0.54945 0.44841 0.84908 0.0
C1073 C 0.54621 0.42099 0.85566 0.0
C1074 C 0.50552 0.44442 0.82627 0.0
C1075 C 0.52468 0.40512 0.84375 0.0
C1076 C 0.45863 0.44295 0.80487 0.0
C1077 C 0.45126 0.49491 0.82449 0.0
N1078 N 0.50461 0.41718 0.83015 0.0
N1079 N 0.47551 0.48281 0.82818 0.0
H1080 H -0.00019 0.86173 0.70036 0.0
H1081 H 0.92618 0.8242 0.83944 0.0
H1082 H 0.93877 0.79633 0.71491 0.0
H1083 H 0.94982 0.90686 0.82037 0.0
H1084 H 0.95031 0.80928 0.79916 0.0
H1085 H -0.00362 0.87514 0.74801 0.0
C1086 C 0.98561 0.85038 0.71347 0.0
C1087 C 0.96911 0.82826 0.70356 0.0
C1088 C 0.95115 0.83067 0.80429 0.0
C1089 C 0.96638 0.84237 0.75786 0.0
C1090 C 0.93797 0.83914 0.82766 0.0
C1091 C 0.93556 0.86682 0.8329 0.0
C1092 C 0.96196 0.85011 0.7862 0.0
C1093 C 0.95093 0.88534 0.81677 0.0
C1094 C 0.98394 0.8578 0.74059 0.0
C1095 C 0.95145 0.81386 0.72147 0.0
N1096 N 0.96272 0.87677 0.7935 0.0
N1097 N 0.95069 0.82108 0.74766 0.0
H1098 H 0.99007 0.23979 0.43417 0.0
H1099 H 0.88649 0.22641 0.55822 0.0
H1100 H 0.92039 0.29077 0.44154 0.0
H1101 H 0.97118 0.20276 0.55913 0.0
H1102 H 0.89627 0.2498 0.51587 0.0
H1103 H 0.98024 0.22314 0.479 0.0
C1104 C 0.97243 0.24724 0.44509 0.0
C1105 C 0.95599 0.26667 0.43403 0.0
C1106 C 0.91286 0.24004 0.52571 0.0
C1107 C 0.94479 0.24787 0.48577 0.0
C1108 C 0.90741 0.22717 0.55014 0.0
C1109 C 0.92814 0.21298 0.5624 0.0
C1110 C 0.93906 0.23818 0.51336 0.0
C1111 C 0.95461 0.2135 0.55037 0.0
C1112 C 0.96702 0.23794 0.47086 0.0
C1113 C 0.93353 0.2757 0.44929 0.0
N1114 N 0.95918 0.2255 0.52641 0.0
N1115 N 0.92851 0.26618 0.47442 0.0
H1116 H 0.52872 0.27304 0.22336 0.0
H1117 H 0.5478 0.13591 0.28934 0.0
H1118 H 0.48769 0.20017 0.19132 0.0
H1119 H 0.55422 0.21093 0.33413 0.0
H1120 H 0.52014 0.15734 0.25604 0.0
H1121 H 0.53473 0.25032 0.26549 0.0
C1122 C 0.52107 0.25212 0.22521 0.0
C1123 C 0.50832 0.23818 0.20367 0.0
C1124 C 0.52661 0.1689 0.27364 0.0
C1125 C 0.51498 0.21203 0.25203 0.0
C1126 C 0.54213 0.15655 0.29284 0.0
C1127 C 0.55307 0.17169 0.31453 0.0
C1128 C 0.52298 0.1968 0.27574 0.0
C1129 C 0.54589 0.19859 0.31776 0.0
C1130 C 0.52413 0.23929 0.24943 0.0
C1131 C 0.49805 0.21141 0.20738 0.0
N1132 N 0.53192 0.21057 0.29811 0.0
N1133 N 0.50213 0.19895 0.231 0.0
H1134 H 0.56516 0.82273 0.93632 0.0
H1135 H 0.55329 0.9361 0.05089 0.0
H1136 H 0.5089 0.88764 0.93386 0.0
H1137 H 0.60077 0.86524 0.05966 0.0
H1138 H 0.53898 0.91975 0.00687 0.0
H1139 H 0.58152 0.83976 0.97984 0.0
C1140 C 0.55656 0.84081 0.94475 0.0
C1141 C 0.53564 0.85382 0.93148 0.0
C1142 C 0.55245 0.90767 0.01842 0.0
C1143 C 0.55396 0.87315 0.98134 0.0
C1144 C 0.56063 0.91698 0.04363 0.0
C1145 C 0.57832 0.90201 0.05907 0.0
C1146 C 0.5621 0.88324 0.00832 0.0
C1147 C 0.587 0.87734 0.04856 0.0
C1148 C 0.56573 0.85037 0.96969 0.0
C1149 C 0.52506 0.877 0.9434 0.0
N1150 N 0.57892 0.86877 0.02375 0.0
N1151 N 0.53428 0.88586 0.96767 0.0
H1152 H 0.00511 0.20035 0.82144 0.0
H1153 H 0.91475 0.26038 0.70617 0.0
H1154 H 0.94772 0.2636 0.83339 0.0
H1155 H 0.93675 0.17706 0.70296 0.0
H1156 H 0.93728 0.26569 0.74949 0.0
H1157 H 0.98809 0.1938 0.77548 0.0
C1158 C 0.9886 0.21248 0.81461 0.0
C1159 C 0.9777 0.23245 0.83138 0.0
C1160 C 0.9377 0.24637 0.73905 0.0
C1161 C 0.95914 0.22584 0.77873 0.0
C1162 C 0.92517 0.24343 0.71416 0.0
C1163 C 0.92419 0.21831 0.70072 0.0
C1164 C 0.94937 0.22404 0.75072 0.0
C1165 C 0.93779 0.19696 0.71221 0.0
C1166 C 0.97913 0.20889 0.78835 0.0
C1167 C 0.95663 0.24784 0.82133 0.0
N1168 N 0.94963 0.2002 0.73672 0.0
N1169 N 0.94832 0.24444 0.79564 0.0
H1170 H 0.48765 0.21986 0.55082 0.0
H1171 H 0.60576 0.17634 0.4542 0.0
H1172 H 0.57154 0.25261 0.56213 0.0
H1173 H 0.5206 0.17865 0.43004 0.0
H1174 H 0.59605 0.20675 0.49186 0.0
H1175 H 0.50075 0.20402 0.50635 0.0
C1176 C 0.50895 0.22344 0.54405 0.0
C1177 C 0.52861 0.23729 0.56032 0.0
C1178 C 0.57975 0.20154 0.4777 0.0
C1179 C 0.54373 0.21948 0.50912 0.0
C1180 C 0.58548 0.18471 0.45582 0.0
C1181 C 0.56405 0.17544 0.43875 0.0
C1182 C 0.55225 0.20837 0.48276 0.0
C1183 C 0.53776 0.1857 0.44255 0.0
C1184 C 0.51632 0.21476 0.51847 0.0
C1185 C 0.55581 0.24177 0.55028 0.0
N1186 N 0.53238 0.20103 0.46454 0.0
N1187 N 0.56269 0.23262 0.52538 0.0
H1188 H 0.577 0.76757 0.30632 0.0
H1189 H 0.57091 0.88828 0.20637 0.0
H1190 H 0.53241 0.83852 0.32682 0.0
H1191 H 0.58815 0.80679 0.18226 0.0
H1192 H 0.5529 0.87112 0.24919 0.0
H1193 H 0.58102 0.78284 0.2604 0.0
C1194 C 0.5684 0.7866 0.30122 0.0
C1195 C 0.55462 0.80195 0.32044 0.0
C1196 C 0.5598 0.8569 0.23419 0.0
C1197 C 0.55867 0.81938 0.26768 0.0
C1198 C 0.5696 0.86664 0.20955 0.0
C1199 C 0.58121 0.84891 0.19093 0.0
C1200 C 0.56205 0.8294 0.24007 0.0
C1201 C 0.57963 0.82112 0.19628 0.0
C1202 C 0.5703 0.79512 0.27488 0.0
C1203 C 0.54344 0.82623 0.3126 0.0
N1204 N 0.57088 0.81228 0.22061 0.0
N1205 N 0.54587 0.83434 0.28678 0.0
H1206 H 0.91971 0.8002 0.07026 0.0
H1207 H 0.95542 0.88119 0.93598 0.0
H1208 H 0.00064 0.8355 0.04896 0.0
H1209 H 0.87287 0.87434 0.96976 0.0
H1210 H 0.97115 0.85126 0.97056 0.0
H1211 H 0.90142 0.81686 0.0283 0.0
C1212 C 0.93357 0.81158 0.05684 0.0
C1213 C 0.96164 0.81686 0.06326 0.0
C1214 C 0.94937 0.85553 0.96989 0.0
C1215 C 0.94113 0.83502 0.01501 0.0
C1216 C 0.94028 0.8721 0.94981 0.0
C1217 C 0.91274 0.87976 0.94981 0.0
C1218 C 0.93076 0.8468 0.9902 0.0
C1219 C 0.89413 0.86831 0.96877 0.0
C1220 C 0.92317 0.82086 0.03286 0.0
C1221 C 0.97877 0.83136 0.04501 0.0
N1222 N 0.90355 0.85272 0.98855 0.0
N1223 N 0.96827 0.83986 0.02171 0.0
H1224 H 0.69296 0.96666 0.77059 0.0
H1225 H 0.79621 0.92039 0.87226 0.0
H1226 H 0.6869 0.00722 0.84723 0.0
H1227 H 0.82467 0.95126 0.79614 0.0
H1228 H 0.75355 0.94522 0.86801 0.0
H1229 H 0.73769 0.95049 0.78334 0.0
C1230 C 0.70075 0.97175 0.79033 0.0
C1231 C 0.6862 0.98839 0.80786 0.0
C1232 C 0.76968 0.94732 0.85281 0.0
C1233 C 0.73746 0.96992 0.82242 0.0
C1234 C 0.79411 0.93353 0.85536 0.0
C1235 C 0.81425 0.93458 0.83485 0.0
C1236 C 0.7652 0.96115 0.82914 0.0
C1237 C 0.8099 0.95056 0.81262 0.0
C1238 C 0.72642 0.96278 0.79741 0.0
C1239 C 0.69752 -0.00557 0.83316 0.0
N1240 N 0.78556 0.96278 0.81007 0.0
N1241 N 0.7226 0.98507 0.83982 0.0
H1242 H 0.8253 0.98785 0.5061 0.0
H1243 H 0.81714 0.10754 0.61297 0.0
H1244 H 0.77009 0.9823 0.57453 0.0
H1245 H 0.85779 0.11523 0.53626 0.0
H1246 H 0.79524 0.06391 0.5983 0.0
H1247 H 0.83582 0.03548 0.51692 0.0
C1248 C 0.81567 -0.00344 0.52365 0.0
C1249 C 0.79702 0.98097 0.53958 0.0
C1250 C 0.80831 0.07553 0.58439 0.0
C1251 C 0.80856 0.03588 0.55189 0.0
C1252 C 0.82042 0.10064 0.59265 0.0
C1253 C 0.83956 0.11473 0.57594 0.0
C1254 C 0.81556 0.06468 0.55929 0.0
C1255 C 0.84325 0.10486 0.54981 0.0
C1256 C 0.82139 0.02392 0.52963 0.0
C1257 C 0.78482 -0.00647 0.56185 0.0
N1258 N 0.83193 0.08018 0.5425 0.0
N1259 N 0.7909 0.02024 0.56743 0.0
H1260 H 0.82145 0.11075 0.338 0.0
H1261 H 0.68825 0.14031 0.37564 0.0
H1262 H 0.79257 0.02674 0.34101 0.0
H1263 H 0.67175 0.0777 0.3164 0.0
H1264 H 0.73376 0.12192 0.38366 0.0
H1265 H 0.77478 0.12374 0.35131 0.0
C1266 C 0.80551 0.09507 0.34226 0.0
C1267 C 0.81086 0.06768 0.33855 0.0
C1268 C 0.71973 0.1117 0.3696 0.0
C1269 C 0.75745 0.08231 0.35302 0.0
C1270 C 0.69368 0.12189 0.36531 0.0
C1271 C 0.67624 0.1102 0.34559 0.0
C1272 C 0.72815 0.08967 0.3541 0.0
C1273 C 0.68452 0.08696 0.33204 0.0
C1274 C 0.77894 0.10245 0.34992 0.0
C1275 C 0.78935 0.0481 0.34393 0.0
N1276 N 0.71004 0.0775 0.33641 0.0
N1277 N 0.76334 0.05581 0.35009 0.0
H1278 H 0.69532 0.07006 -0.0024 0.0
H1279 H 0.68705 -0.00178 0.13553 0.0
H1280 H 0.73699 0.1047 0.06684 0.0
H1281 H 0.6707 0.95574 0.06124 0.0
H1282 H 0.7112 0.03499 0.11104 0.0
H1283 H 0.68937 0.02688 0.02037 0.0
C1284 C 0.70309 0.0686 0.01771 0.0
C1285 C 0.71621 0.09112 0.03058 0.0
C1286 C 0.70323 0.01725 0.10008 0.0
C1287 C 0.70973 0.04154 0.0567 0.0
C1288 C 0.68979 -0.00391 0.11411 0.0
C1289 C 0.67703 0.974 0.1003 0.0
C1290 C 0.70309 0.01655 0.07206 0.0
C1291 C 0.68053 0.97238 0.07255 0.0
C1292 C 0.70003 0.04381 0.03057 0.0
C1293 C 0.7264 0.08791 0.05639 0.0
N1294 N 0.6926 -0.00621 0.05921 0.0
N1295 N 0.72261 0.06364 0.06878 0.0
H1296 H 0.70758 0.09885 0.77563 0.0
H1297 H 0.82219 0.10643 0.65886 0.0
H1298 H 0.701 0.05013 0.70357 0.0
H1299 H 0.82493 0.15582 0.7304 0.0
H1300 H 0.78232 0.0797 0.67771 0.0
H1301 H 0.75381 0.11557 0.76145 0.0
C1302 C 0.7158 0.09182 0.75669 0.0
C1303 C 0.70026 0.07335 0.7406 0.0
C1304 C 0.79206 0.09601 0.68951 0.0
C1305 C 0.75355 0.09217 0.72428 0.0
C1306 C 0.815 0.11102 0.67886 0.0
C1307 C 0.82642 0.1336 0.69289 0.0
C1308 C 0.78082 0.1037 0.71439 0.0
C1309 C 0.81645 0.13871 0.71881 0.0
C1310 C 0.74235 0.1012 0.74868 0.0
C1311 C 0.71217 0.06463 0.71643 0.0
N1312 N 0.79397 0.12421 0.72853 0.0
N1313 N 0.73807 0.07423 0.70892 0.0
H1314 H 0.74286 0.9693 0.43194 0.0
H1315 H 0.64048 0.08624 0.46838 0.0
H1316 H 0.68771 0.96962 0.50052 0.0
H1317 H 0.66644 0.07125 0.38709 0.0
H1318 H 0.66825 0.04947 0.48289 0.0
H1319 H 0.72298 0.01114 0.41669 0.0
C1320 C 0.72639 0.97798 0.44359 0.0
C1321 C 0.71676 0.96593 0.46744 0.0
C1322 C 0.66831 0.05453 0.46191 0.0
C1323 C 0.69483 0.01389 0.45067 0.0
C1324 C 0.65274 0.07567 0.45368 0.0
C1325 C 0.65132 0.08176 0.42653 0.0
C1326 C 0.68241 0.03921 0.44281 0.0
C1327 C 0.66747 0.06746 0.40824 0.0
C1328 C 0.71525 0.00187 0.43499 0.0
C1329 C 0.69561 0.97809 0.48193 0.0
N1330 N 0.68215 0.04648 0.41667 0.0
N1331 N 0.68552 0.00148 0.47342 0.0
H1332 H 0.79301 0.03553 0.22594 0.0
H1333 H 0.69737 0.89813 0.2238 0.0
H1334 H 0.80926 0.96316 0.26902 0.0
H1335 H 0.68138 0.96574 0.17385 0.0
H1336 H 0.73458 0.92519 0.24528 0.0
H1337 H 0.74958 0.01305 0.2096 0.0
C1338 C 0.78753 0.0149 0.23181 0.0
C1339 C 0.80484 0.00109 0.24868 0.0
C1340 C 0.72281 0.93436 0.22985 0.0
C1341 C 0.75521 0.97561 0.23062 0.0
C1342 C 0.70141 0.91894 0.21774 0.0
C1343 C 0.68652 0.9297 0.19691 0.0
C1344 C 0.72975 0.96066 0.22082 0.0
C1345 C 0.69244 0.95679 0.18989 0.0
C1346 C 0.7627 0.00219 0.22265 0.0
C1347 C 0.79667 0.97453 0.25591 0.0
N1348 N 0.714 0.97129 0.20153 0.0
N1349 N 0.77251 0.96272 0.24686 0.0
H1350 H 0.81047 0.10482 0.96223 0.0
H1351 H 0.82112 0.97946 0.87537 0.0
H1352 H 0.73911 0.0917 0.9114 0.0
H1353 H 0.81786 0.97232 0.96103 0.0
H1354 H 0.79677 0.0217 0.87927 0.0
H1355 H 0.8237 0.05891 0.95188 0.0
C1356 C 0.79794 0.09257 0.94834 0.0
C1357 C 0.77349 0.10202 0.93784 0.0
C1358 C 0.80043 0.01022 0.89704 0.0
C1359 C 0.78859 0.04954 0.92612 0.0
C1360 C 0.81375 0.98583 0.89484 0.0
C1361 C 0.82078 0.97197 0.91789 0.0
C1362 C 0.79525 0.02107 0.92248 0.0
C1363 C 0.81254 0.98226 0.9428 0.0
C1364 C 0.80536 0.06631 0.94275 0.0
C1365 C 0.75809 0.08512 0.91995 0.0
N1366 N 0.80087 0.00659 0.94449 0.0
N1367 N 0.76585 0.05945 0.91463 0.0
H1368 H 0.75295 0.70392 0.92907 0.0
H1369 H 0.85029 0.84054 0.9372 0.0
H1370 H 0.80391 0.72539 -0.00279 0.0
H1371 H 0.79958 0.81604 0.86974 0.0
H1372 H 0.8331 0.79943 0.96049 0.0
H1373 H 0.7706 0.74517 0.90712 0.0
C1374 C 0.76812 0.71718 0.93928 0.0
C1375 C 0.777 0.71121 0.96496 0.0
C1376 C 0.82568 0.8032 0.94063 0.0
C1377 C 0.79701 0.75881 0.94017 0.0
C1378 C 0.8353 0.82676 0.92747 0.0
C1379 C 0.8265 0.83168 0.90146 0.0
C1380 C 0.80708 0.78459 0.92765 0.0
C1381 C 0.8072 0.813 0.88966 0.0
C1382 C 0.77809 0.74085 0.92683 0.0
C1383 C 0.7966 0.7292 0.97733 0.0
N1384 N 0.79827 0.79032 0.90278 0.0
N1385 N 0.80586 0.75229 0.96487 0.0
H1386 H 0.32235 0.85306 0.01351 0.0
H1387 H 0.29678 0.71605 0.09517 0.0
H1388 H 0.24388 0.8252 0.04848 0.0
H1389 H 0.37515 0.76206 0.096 0.0
H1390 H 0.27929 0.74796 0.06324 0.0
H1391 H 0.34359 0.81292 0.03122 0.0
C1392 C 0.30962 0.83849 0.02486 0.0
C1393 C 0.28145 0.84261 0.02995 0.0
C1394 C 0.30067 0.75049 0.06963 0.0
C1395 C 0.30524 0.79649 0.04925 0.0
C1396 C 0.3108 0.73201 0.08741 0.0
C1397 C 0.3376 0.73617 0.09764 0.0
C1398 C 0.31749 0.77332 0.06226 0.0
C1399 C 0.3546 0.75784 0.08794 0.0
C1400 C 0.32169 0.81561 0.03478 0.0
C1401 C 0.26578 0.82302 0.0445 0.0
N1402 N 0.34416 0.77589 0.07099 0.0
N1403 N 0.27787 0.80079 0.05359 0.0
H1404 H 0.94274 0.55682 0.73076 0.0
H1405 H 0.0247 0.54742 0.86803 0.0
H1406 H 0.91003 0.52052 0.80326 0.0
H1407 H 0.05363 0.60259 0.80648 0.0
H1408 H 0.9868 0.53127 0.83962 0.0
H1409 H 0.98609 0.5701 0.75441 0.0
C1410 C 0.94455 0.55189 0.75165 0.0
C1411 C 0.92269 0.5376 0.76509 0.0
C1412 C 0.0014 0.54686 0.83214 0.0
C1413 C 0.97219 0.55202 0.79185 0.0
C1414 C 0.02327 0.55597 0.84832 0.0
C1415 C 0.04193 0.57702 0.83995 0.0
C1416 C -0.00214 0.55885 0.80727 0.0
C1417 C 0.0393 0.58679 0.81392 0.0
C1418 C 0.96931 0.55931 0.76503 0.0
C1419 C 0.92622 0.53153 0.79205 0.0
N1420 N 0.01729 0.57795 0.79858 0.0
N1421 N 0.95044 0.53863 0.80441 0.0
H1422 H 0.23438 0.23209 0.56156 0.0
H1423 H 0.1119 0.32341 0.5861 0.0
H1424 H 0.1566 0.21184 0.52246 0.0
H1425 H 0.19682 0.35493 0.58527 0.0
H1426 H 0.12539 0.2849 0.55859 0.0
H1427 H 0.21939 0.27777 0.57013 0.0
C1428 C 0.21396 0.23717 0.55508 0.0
C1429 C 0.19654 0.21805 0.54164 0.0
C1430 C 0.14089 0.30084 0.56339 0.0
C1431 C 0.17936 0.27055 0.55101 0.0
C1432 C 0.13306 0.32324 0.57855 0.0
C1433 C 0.15339 0.34214 0.58826 0.0
C1434 C 0.16922 0.29751 0.5583 0.0
C1435 C 0.18057 0.34062 0.57835 0.0
C1436 C 0.20561 0.26341 0.55954 0.0
C1437 C 0.17052 0.22595 0.53317 0.0
N1438 N 0.18798 0.31807 0.56483 0.0
N1439 N 0.16251 0.25155 0.53833 0.0
H1440 H 0.06773 0.04059 0.82278 0.0
H1441 H 0.92597 0.94838 0.82346 0.0
H1442 H 0.04912 0.97699 0.76475 0.0
H1443 H 0.95213 0.00241 0.88795 0.0
H1444 H 0.96738 0.96376 0.79785 0.0
H1445 H 0.02264 0.03054 0.84414 0.0
C1446 C 0.05425 0.02431 0.81471 0.0
C1447 C 0.06225 0.00942 0.79214 0.0
C1448 C 0.96383 0.97243 0.8175 0.0
C1449 C 0.01038 -0.00185 0.81613 0.0
C1450 C 0.94012 0.9638 0.83204 0.0
C1451 C 0.93603 0.97352 0.85818 0.0
C1452 C 0.98324 0.99116 0.82912 0.0
C1453 C 0.95474 -0.00612 0.8681 0.0
C1454 C 0.02842 0.01871 0.82678 0.0
C1455 C 0.04385 0.98875 0.78231 0.0
N1456 N 0.97768 0.00177 0.8537 0.0
N1457 N 0.01872 0.98373 0.79436 0.0
H1458 H 0.66622 0.32959 0.48341 0.0
H1459 H 0.67532 0.2332 0.3543 0.0
H1460 H 0.72346 0.34511 0.41777 0.0
H1461 H 0.62914 0.21026 0.42556 0.0
H1462 H 0.69053 0.27567 0.37605 0.0
H1463 H 0.64916 0.2878 0.46096 0.0
C1464 C 0.67497 0.32438 0.4641 0.0
C1465 C 0.69631 0.34088 0.45242 0.0
C1466 C 0.67711 0.26136 0.387 0.0
C1467 C 0.67704 0.2929 0.42676 0.0
C1468 C 0.66836 0.23701 0.37459 0.0
C1469 C 0.65078 0.21799 0.38811 0.0
C1470 C 0.66816 0.26701 0.41314 0.0
C1471 C 0.64268 0.22419 0.41442 0.0
C1472 C 0.66535 0.30041 0.4514 0.0
C1473 C 0.70697 0.33303 0.42747 0.0
N1474 N 0.65132 0.24822 0.42604 0.0
N1475 N 0.69727 0.30958 0.41551 0.0
H1476 H 0.9073 0.43671 0.66477 0.0
H1477 H 0.05609 0.45985 0.70351 0.0
H1478 H 0.92637 0.44132 0.74866 0.0
H1479 H 0.03619 0.40401 0.63895 0.0
H1480 H 0.00983 0.44986 0.72294 0.0
H1481 H 0.95386 0.42105 0.65554 0.0
C1482 C 0.92101 0.4336 0.6813 0.0
C1483 C 0.9131 0.44042 0.70745 0.0
C1484 C 0.01595 0.43892 0.70512 0.0
C1485 C 0.96656 0.42351 0.69702 0.0
C1486 C 0.0424 0.4445 0.69417 0.0
C1487 C 0.04993 0.43242 0.66989 0.0
C1488 C -0.0034 0.42222 0.69089 0.0
C1489 C 0.03118 0.41334 0.65798 0.0
C1490 C 0.94755 0.42464 0.67607 0.0
C1491 C 0.93168 0.43622 0.72819 0.0
N1492 N 0.005 0.40943 0.66815 0.0
N1493 N 0.9579 0.42883 0.72246 0.0
H1494 H 0.53633 0.55774 0.23164 0.0
H1495 H 0.47244 0.66742 0.14292 0.0
H1496 H 0.58393 0.62911 0.2058 0.0
H1497 H 0.42511 0.60114 0.17929 0.0
H1498 H 0.51071 0.66045 0.17341 0.0
H1499 H 0.49373 0.57876 0.22015 0.0
C1500 C 0.5377 0.57804 0.22364 0.0
C1501 C 0.56358 0.59157 0.21912 0.0
C1502 C 0.49161 0.64805 0.17546 0.0
C1503 C 0.51476 0.61577 0.2054 0.0
C1504 C 0.46964 0.65226 0.15829 0.0
C1505 C 0.4456 0.63497 0.15894 0.0
C1506 C 0.48961 0.62597 0.19285 0.0
C1507 C 0.4432 0.6151 0.17852 0.0
C1508 C 0.51333 0.59014 0.21722 0.0
C1509 C 0.56428 0.61799 0.20929 0.0
N1510 N 0.46514 0.61082 0.19439 0.0
N1511 N 0.54017 0.62907 0.20215 0.0
H1512 H 0.49567 0.74821 0.79501 0.0
H1513 H 0.64045 0.73587 0.7172 0.0
H1514 H 0.5733 0.78939 0.81744 0.0
H1515 H 0.56585 0.69085 0.69239 0.0
H1516 H 0.61396 0.75877 0.7513 0.0
H1517 H 0.51908 0.72869 0.7559 0.0
C1518 C 0.51764 0.753 0.7918 0.0
C1519 C 0.53263 0.77031 0.80959 0.0
C1520 C 0.60316 0.74403 0.73841 0.0
C1521 C 0.5593 0.74849 0.76485 0.0
C1522 C 0.6183 0.731 0.7188 0.0
C1523 C 0.60538 0.71111 0.70225 0.0
C1524 C 0.57477 0.73699 0.74188 0.0
C1525 C 0.57658 0.70592 0.70494 0.0
C1526 C 0.53091 0.742 0.76942 0.0
C1527 C 0.56094 0.77605 0.80438 0.0
N1528 N 0.56221 0.71852 0.72475 0.0
N1529 N 0.57328 0.76519 0.78255 0.0
H1530 H 0.53154 0.25157 0.0612 0.0
H1531 H 0.62376 0.35035 0.9676 0.0
H1532 H 0.57732 0.3235 0.08958 0.0
H1533 H 0.54401 0.31447 0.94476 0.0
H1534 H 0.62064 0.32495 0.00931 0.0
H1535 H 0.55022 0.26 0.01618 0.0
C1536 C 0.5463 0.2686 0.05817 0.0
C1537 C 0.55271 0.28709 0.07905 0.0
C1538 C 0.60433 0.32192 -0.00529 0.0
C1539 C 0.57422 0.2965 0.02783 0.0
C1540 C 0.60625 0.33606 0.97081 0.0
C1541 C 0.58427 0.33411 0.95269 0.0
C1542 C 0.58026 0.30573 0.00039 0.0
C1543 C 0.56145 0.31625 0.95821 0.0
C1544 C 0.55678 0.27341 0.03247 0.0
C1545 C 0.57171 0.30892 0.07396 0.0
N1546 N 0.55989 0.30287 0.98176 0.0
N1547 N 0.58164 0.31319 0.04875 0.0
H1548 H 0.92154 0.30512 0.3005 0.0
H1549 H 0.88868 0.41616 0.19813 0.0
H1550 H 0.96565 0.38312 0.30827 0.0
H1551 H 0.89429 0.33209 0.17616 0.0
H1552 H 0.91462 0.40811 0.23918 0.0
H1553 H 0.90561 0.31792 0.25671 0.0
C1554 C 0.92753 0.32514 0.29317 0.0
C1555 C 0.94491 0.3431 0.30807 0.0
C1556 C 0.91095 0.39171 0.22488 0.0
C1557 C 0.92692 0.35778 0.25772 0.0
C1558 C 0.89657 0.39637 0.20134 0.0
C1559 C 0.88983 0.37479 0.1837 0.0
C1560 C 0.91765 0.36516 0.23085 0.0
C1561 C 0.89949 0.34929 0.18916 0.0
C1562 C 0.91874 0.33229 0.26801 0.0
C1563 C 0.95221 0.36871 0.29738 0.0
N1564 N 0.9124 0.34503 0.2125 0.0
N1565 N 0.94303 0.37543 0.27281 0.0
H1566 H 0.95578 0.81014 0.5532 0.0
H1567 H 0.85965 0.70944 0.46399 0.0
H1568 H 0.90376 0.74481 0.58612 0.0
H1569 H 0.94399 0.73379 0.44223 0.0
H1570 H 0.86386 0.73825 0.50429 0.0
H1571 H 0.93915 0.7973 0.50846 0.0
C1572 C 0.94011 0.79371 0.55114 0.0
C1573 C 0.93121 0.77837 0.57335 0.0
C1574 C 0.88105 0.73798 0.49017 0.0
C1575 C 0.91203 0.76392 0.52242 0.0
C1576 C 0.8786 0.72186 0.46709 0.0
C1577 C 0.90146 0.71955 0.44977 0.0
C1578 C 0.90644 0.75205 0.49565 0.0
C1579 C 0.92585 0.73532 0.45504 0.0
C1580 C 0.93081 0.78635 0.52562 0.0
C1581 C 0.91121 0.75705 0.56948 0.0
N1582 N 0.9278 0.75081 0.47767 0.0
N1583 N 0.90239 0.75031 0.54443 0.0
H1584 H 0.51524 0.34318 0.69795 0.0
H1585 H 0.63997 0.32318 0.79827 0.0
H1586 H 0.57871 0.28625 0.68355 0.0
H1587 H 0.56686 0.36531 0.82052 0.0
H1588 H 0.61883 0.31091 0.75545 0.0
H1589 H 0.53566 0.35434 0.74155 0.0
C1590 C 0.53373 0.33333 0.70378 0.0
C1591 C 0.54537 0.31382 0.68705 0.0
C1592 C 0.60726 0.32262 0.76977 0.0
C1593 C 0.56857 0.3262 0.73706 0.0
C1594 C 0.61928 0.32956 0.79429 0.0
C1595 C 0.60517 0.34531 0.81306 0.0
C1596 C 0.58105 0.33179 0.7637 0.0
C1597 C 0.57841 0.35298 0.80676 0.0
C1598 C 0.54519 0.3395 0.72879 0.0
C1599 C 0.56912 0.30147 0.69577 0.0
N1600 N 0.56733 0.34639 0.78249 0.0
N1601 N 0.57992 0.30786 0.72016 0.0
H1602 H 0.01961 0.33678 0.95893 0.0
H1603 H 0.90139 0.34516 0.06787 0.0
H1604 H 0.95558 0.27282 0.96655 0.0
H1605 H 0.97876 0.39257 0.07042 0.0
H1606 H 0.9216 0.31482 0.03456 0.0
H1607 H 0.00525 0.35554 0.00165 0.0
C1608 C 0.00235 0.32676 0.96957 0.0
C1609 C 0.9885 0.30343 0.95901 0.0
C1610 C 0.93447 0.3313 0.04307 0.0
C1611 C 0.97193 0.32479 0.00831 0.0
C1612 C 0.92302 0.3483 0.06239 0.0
C1613 C 0.9384 0.37127 0.07176 0.0
C1614 C 0.96137 0.33771 0.03308 0.0
C1615 C 0.9662 0.37508 0.06354 0.0
C1616 C -0.00566 0.33731 -0.00582 0.0
C1617 C 0.9666 0.29102 0.97393 0.0
N1618 N 0.97662 0.3588 0.0443 0.0
N1619 N 0.9587 0.30207 -0.00225 0.0
H1620 H 0.92316 0.77135 0.18687 0.0
H1621 H 0.92695 0.67637 0.31514 0.0
H1622 H 0.98404 0.71131 0.19558 0.0
H1623 H 0.86771 0.73728 0.30325 0.0
H1624 H 0.95061 0.69025 0.27329 0.0
H1625 H 0.9037 0.75929 0.23042 0.0
C1626 C 0.93226 0.75538 0.19785 0.0
C1627 C 0.95517 0.74223 0.18751 0.0
C1628 C 0.93264 0.70078 0.28007 0.0
C1629 C 0.93321 0.7285 0.23786 0.0
C1630 C 0.91939 0.6931 0.30411 0.0
C1631 C 0.89533 0.70567 0.3126 0.0
C1632 C 0.92168 0.72115 0.26463 0.0
C1633 C 0.88608 0.72691 0.29733 0.0
C1634 C 0.92125 0.7486 0.22287 0.0
C1635 C 0.96621 0.72181 0.20275 0.0
N1636 N 0.89911 0.73381 0.27408 0.0
N1637 N 0.95516 0.71559 0.22723 0.0
H1638 H 0.58636 0.77939 0.4606 0.0
H1639 H 0.62696 0.66238 0.55792 0.0
H1640 H 0.57878 0.69448 0.43931 0.0
H1641 H 0.5721 0.72413 0.58272 0.0
H1642 H 0.63245 0.68396 0.51418 0.0
H1643 H 0.60333 0.76744 0.5047 0.0
C1644 C 0.58916 0.75829 0.46486 0.0
C1645 C 0.58101 0.73781 0.44638 0.0
C1646 C 0.62029 0.69345 0.52968 0.0
C1647 C 0.60092 0.72428 0.49635 0.0
C1648 C 0.61748 0.68145 0.55472 0.0
C1649 C 0.59924 0.69172 0.57391 0.0
C1650 C 0.60515 0.71609 0.52416 0.0
C1651 C 0.58662 0.71588 0.56851 0.0
C1652 C 0.59874 0.75157 0.49001 0.0
C1653 C 0.58472 0.71082 0.45306 0.0
N1654 N 0.58952 0.72714 0.54394 0.0
N1655 N 0.59431 0.70479 0.4776 0.0
H1656 H 0.82719 0.56808 0.66311 0.0
H1657 H 0.6723 0.58117 0.68485 0.0
H1658 H 0.77476 0.49585 0.67604 0.0
H1659 H 0.71748 0.63263 0.62886 0.0
H1660 H 0.70707 0.54707 0.67838 0.0
H1661 H 0.78676 0.59083 0.6472 0.0
C1662 C 0.80731 0.55682 0.66193 0.0
C1663 C 0.80426 0.53016 0.67102 0.0
C1664 C 0.70876 0.56534 0.66665 0.0
C1665 C 0.75783 0.55619 0.65369 0.0
C1666 C 0.68874 0.58461 0.67014 0.0
C1667 C 0.69198 0.60945 0.6571 0.0
C1668 C 0.73253 0.57162 0.65086 0.0
C1669 C 0.71421 0.61349 0.639 0.0
C1670 C 0.78424 0.56976 0.65283 0.0
C1671 C 0.778 0.51647 0.66919 0.0
N1672 N 0.73409 0.59511 0.63695 0.0
N1673 N 0.7556 0.52987 0.66143 0.0
H1674 H 0.71007 0.58383 0.94505 0.0
H1675 H 0.5999 0.46302 0.97986 0.0
H1676 H 0.65869 0.58336 0.01627 0.0
H1677 H 0.66498 0.4562 0.92052 0.0
H1678 H 0.62055 0.50721 -0.00658 0.0
H1679 H 0.69176 0.53794 0.93429 0.0
C1680 C 0.69462 0.57422 0.95822 0.0
C1681 C 0.68578 0.58744 0.98153 0.0
C1682 C 0.63053 0.49589 0.97767 0.0
C1683 C 0.66512 0.5348 0.96959 0.0
C1684 C 0.61884 0.47059 0.97002 0.0
C1685 C 0.63066 0.45594 0.94894 0.0
C1686 C 0.65397 0.50682 0.96389 0.0
C1687 C 0.65522 0.46674 0.93692 0.0
C1688 C 0.68443 0.5479 0.95223 0.0
C1689 C 0.66597 0.57392 -0.00197 0.0
N1690 N 0.66584 0.49172 0.94431 0.0
N1691 N 0.65629 0.54833 0.99174 0.0
H1692 H 0.70612 0.5551 0.18395 0.0
H1693 H 0.76029 0.41844 0.12106 0.0
H1694 H 0.65523 0.48225 0.16838 0.0
H1695 H 0.8156 0.48375 0.14946 0.0
H1696 H 0.72113 0.44694 0.12759 0.0
H1697 H 0.74525 0.53455 0.16107 0.0
C1698 C 0.70295 0.53509 0.17505 0.0
C1699 C 0.6775 0.52018 0.17826 0.0
C1700 C 0.7418 0.45527 0.13217 0.0
C1701 C 0.72209 0.49661 0.15238 0.0
C1702 C 0.76416 0.43899 0.12848 0.0
C1703 C 0.79107 0.44865 0.13522 0.0
C1704 C 0.74619 0.48138 0.14315 0.0
C1705 C 0.79508 0.47555 0.14421 0.0
C1706 C 0.72535 0.52333 0.16219 0.0
C1707 C 0.67457 0.49432 0.16655 0.0
N1708 N 0.77272 0.49093 0.1484 0.0
N1709 N 0.69666 0.48328 0.15438 0.0
H1710 H 0.81458 0.46673 0.50038 0.0
H1711 H 0.80746 0.60651 0.42213 0.0
H1712 H 0.75063 0.48078 0.44345 0.0
H1713 H 0.87283 0.58751 0.47572 0.0
H1714 H 0.78308 0.56299 0.43292 0.0
H1715 H 0.83407 0.51258 0.49346 0.0
C1716 C 0.8048 0.47939 0.48617 0.0
C1717 C 0.78107 0.46982 0.47232 0.0
C1718 C 0.80264 0.56854 0.44247 0.0
C1719 C 0.80307 0.52278 0.46456 0.0
C1720 C 0.8165 0.59341 0.43639 0.0
C1721 C 0.84271 0.60026 0.44724 0.0
C1722 C 0.81496 0.55072 0.45987 0.0
C1723 C 0.853 0.58289 0.4663 0.0
C1724 C 0.81582 0.50571 0.48235 0.0
C1725 C 0.76913 0.48728 0.45434 0.0
N1726 N 0.83932 0.55888 0.4717 0.0
N1727 N 0.78024 0.51296 0.45098 0.0
H1728 H 0.79163 0.52191 0.79851 0.0
H1729 H 0.6468 0.43621 0.80393 0.0
H1730 H 0.7667 0.45591 0.74526 0.0
H1731 H 0.68492 0.47322 0.87363 0.0
H1732 H 0.68206 0.45975 0.77593 0.0
H1733 H 0.74568 0.51757 0.82047 0.0
C1734 C 0.77645 0.50661 0.7914 0.0
C1735 C 0.7831 0.48884 0.77045 0.0
C1736 C 0.68203 0.46362 0.79727 0.0
C1737 C 0.73046 0.48453 0.79465 0.0
C1738 C 0.6615 0.45071 0.81321 0.0
C1739 C 0.66321 0.45262 0.84108 0.0
C1740 C 0.7041 0.47865 0.80946 0.0
C1741 C 0.68301 0.47123 0.85215 0.0
C1742 C 0.75026 0.5043 0.80377 0.0
C1743 C 0.76262 0.46962 0.76173 0.0
N1744 N 0.70326 0.48299 0.83636 0.0
N1745 N 0.73725 0.46795 0.7739 0.0
H1746 H 0.76433 0.59181 0.08142 0.0
H1747 H 0.84403 0.46553 0.02305 0.0
H1748 H 0.79566 0.58327 0.00078 0.0
H1749 H 0.84649 0.48669 0.10669 0.0
H1750 H 0.81255 0.50181 0.01589 0.0
H1751 H 0.78366 0.54805 0.09226 0.0
C1752 C 0.77539 0.58088 0.06611 0.0
C1753 C 0.7787 0.59137 0.04026 0.0
C1754 C 0.81926 0.49802 0.036 0.0
C1755 C 0.79971 0.54122 0.05216 0.0
C1756 C 0.83682 0.47703 0.04012 0.0
C1757 C 0.84727 0.47279 0.06556 0.0
C1758 C 0.81254 0.51525 0.05741 0.0
C1759 C 0.83806 0.4888 0.08694 0.0
C1760 C 0.78618 0.55591 0.07224 0.0
C1761 C 0.79286 0.57622 0.02106 0.0
N1762 N 0.82151 0.5097 0.08235 0.0
N1763 N 0.80267 0.55197 0.02737 0.0
H1764 H 0.71868 0.52304 0.25855 0.0
H1765 H 0.80464 0.58791 0.37946 0.0
H1766 H 0.68412 0.5768 0.31718 0.0
H1767 H 0.83329 0.60246 0.29903 0.0
H1768 H 0.76522 0.56009 0.36215 0.0
H1769 H 0.76468 0.5312 0.279 0.0
C1770 C 0.7207 0.53606 0.2761 0.0
C1771 C 0.69774 0.5494 0.28625 0.0
C1772 C 0.78093 0.56829 0.34839 0.0
C1773 C 0.74962 0.55785 0.30999 0.0
C1774 C 0.80372 0.58373 0.35826 0.0
C1775 C 0.82218 0.59754 0.34067 0.0
C1776 C 0.77715 0.56611 0.32075 0.0
C1777 C 0.81959 0.59197 0.31323 0.0
C1778 C 0.74683 0.54063 0.28764 0.0
C1779 C 0.70138 0.56628 0.30875 0.0
N1780 N 0.79703 0.57711 0.30399 0.0
N1781 N 0.72688 0.56997 0.31997 0.0
H1782 H 0.72374 0.46486 0.57162 0.0
H1783 H 0.60364 0.56943 0.55853 0.0
H1784 H 0.65781 0.45645 0.51409 0.0
H1785 H 0.67466 0.58421 0.60921 0.0
H1786 H 0.62247 0.52711 0.54343 0.0
H1787 H 0.70456 0.50695 0.58815 0.0
C1788 C 0.70497 0.47163 0.56277 0.0
C1789 C 0.69232 0.45714 0.54145 0.0
C1790 C 0.63406 0.53963 0.55779 0.0
C1791 C 0.67057 0.50541 0.55994 0.0
C1792 C 0.62335 0.56392 0.5664 0.0
C1793 C 0.63756 0.5805 0.58536 0.0
C1794 C 0.65916 0.53159 0.56826 0.0
C1795 C 0.66306 0.57219 0.59464 0.0
C1796 C 0.6942 0.49578 0.57204 0.0
C1797 C 0.66822 0.46696 0.53056 0.0
N1798 N 0.67298 0.54823 0.58615 0.0
N1799 N 0.65821 0.49051 0.53985 0.0
H1800 H 0.68637 0.84538 0.53154 0.0
H1801 H 0.72729 0.71921 0.61845 0.0
H1802 H 0.76341 0.84138 0.57394 0.0
H1803 H 0.64527 0.72637 0.58689 0.0
H1804 H 0.74235 0.76162 0.59716 0.0
H1805 H 0.67161 0.80048 0.54835 0.0
C1806 C 0.70001 0.83522 0.54468 0.0
C1807 C 0.7261 0.84718 0.55149 0.0
C1808 C 0.72112 0.75379 0.59454 0.0
C1809 C 0.70965 0.79566 0.57022 0.0
C1810 C 0.71258 0.72944 0.6065 0.0
C1811 C 0.68497 0.71921 0.60436 0.0
C1812 C 0.70187 0.76823 0.58045 0.0
C1813 C 0.6668 0.73329 0.58866 0.0
C1814 C 0.69166 0.80952 0.55407 0.0
C1815 C 0.74306 0.83301 0.56832 0.0
N1816 N 0.67548 0.7573 0.57752 0.0
N1817 N 0.73459 0.80798 0.577 0.0
H1818 H 0.16076 0.69418 0.42517 0.0
H1819 H 0.18341 0.84438 0.448 0.0
H1820 H 0.16594 0.72472 0.50618 0.0
H1821 H 0.12695 0.8155 0.38665 0.0
H1822 H 0.1747 0.80146 0.47154 0.0
H1823 H 0.14455 0.73783 0.41128 0.0
C1824 C 0.15761 0.70979 0.44014 0.0
C1825 C 0.16497 0.70604 0.46674 0.0
C1826 C 0.16343 0.80491 0.45343 0.0
C1827 C 0.1475 0.75609 0.45094 0.0
C1828 C 0.1684 0.82934 0.4401 0.0
C1829 C 0.15547 0.8334 0.41576 0.0
C1830 C 0.14643 0.78417 0.44159 0.0
C1831 C 0.13686 0.81311 0.4057 0.0
C1832 C 0.14838 0.73468 0.43224 0.0
C1833 C 0.16058 0.7269 0.48541 0.0
N1834 N 0.13332 0.78905 0.41837 0.0
N1835 N 0.15297 0.7514 0.47702 0.0
H1836 H 0.56766 0.03139 0.69691 0.0
H1837 H 0.44417 0.92009 0.67823 0.0
H1838 H 0.55657 0.9642 0.75082 0.0
H1839 H 0.44467 0.00069 0.6465 0.0
H1840 H 0.48486 0.93396 0.7052 0.0
H1841 H 0.52369 0.01759 0.67608 0.0
C1842 C 0.55611 0.01352 0.70417 0.0
C1843 C 0.56579 -0.0011 0.72559 0.0
C1844 C 0.47568 0.9487 0.69269 0.0
C1845 C 0.51509 0.98315 0.70205 0.0
C1846 C 0.45224 0.94087 0.67761 0.0
C1847 C 0.44113 0.95918 0.66004 0.0
C1848 C 0.48808 0.97491 0.68978 0.0
C1849 C 0.45278 0.9858 0.65955 0.0
C1850 C 0.53082 0.00581 0.69247 0.0
C1851 C 0.54982 0.97598 0.73428 0.0
N1852 N 0.47581 0.99273 0.67385 0.0
N1853 N 0.5252 0.96874 0.72243 0.0
H1854 H 0.31998 0.33975 0.0123 0.0
H1855 H 0.30203 0.21432 0.94842 0.0
H1856 H 0.31828 0.36317 0.92971 0.0
H1857 H 0.36253 0.24596 0.89138 0.0
H1858 H 0.30662 0.25734 0.9736 0.0
H1859 H 0.33422 0.29473 -0.00194 0.0
C1860 C 0.32345 0.33571 0.99123 0.0
C1861 C 0.31773 0.35507 0.97207 0.0
C1862 C 0.31973 0.25445 0.95618 0.0
C1863 C 0.33387 0.30391 0.95586 0.0
C1864 C 0.31715 0.22993 0.94192 0.0
C1865 C 0.33242 0.22656 0.91827 0.0
C1866 C 0.33679 0.27594 0.94595 0.0
C1867 C 0.35092 0.24772 0.90993 0.0
C1868 C 0.33129 0.30999 0.98319 0.0
C1869 C 0.32228 0.34872 0.94506 0.0
N1870 N 0.35205 0.27184 0.92336 0.0
N1871 N 0.32997 0.32359 0.93772 0.0
H1872 H 0.44337 0.59724 0.77359 0.0
H1873 H 0.55783 0.56861 0.66126 0.0
H1874 H 0.43466 0.53578 0.71173 0.0
H1875 H 0.55817 0.64347 0.70625 0.0
H1876 H 0.51859 0.55092 0.68833 0.0
H1877 H 0.48966 0.61064 0.75564 0.0
C1878 C 0.45109 0.58676 0.7561 0.0
C1879 C 0.43504 0.56558 0.74392 0.0
C1880 C 0.52764 0.57099 0.69279 0.0
C1881 C 0.48811 0.58018 0.72393 0.0
C1882 C 0.55035 0.58084 0.67769 0.0
C1883 C 0.56125 0.60737 0.6818 0.0
C1884 C 0.51555 0.58798 0.71186 0.0
C1885 C 0.55043 0.62279 0.70278 0.0
C1886 C 0.47755 0.59426 0.74604 0.0
C1887 C 0.44615 0.55244 0.72155 0.0
N1888 N 0.52779 0.61303 0.71683 0.0
N1889 N 0.47201 0.55989 0.71235 0.0
H1890 H 0.76755 0.25184 0.9723 0.0
H1891 H 0.86273 0.31973 0.08677 0.0
H1892 H 0.80787 0.20926 0.03422 0.0
H1893 H 0.80488 0.36558 0.04361 0.0
H1894 H 0.85276 0.28107 0.05736 0.0
H1895 H 0.7895 0.29475 0.98926 0.0
C1896 C 0.78147 0.25148 0.9891 0.0
C1897 C 0.78586 0.22706 0.00203 0.0
C1898 C 0.84257 0.29967 0.05382 0.0
C1899 C 0.81098 0.27571 0.02122 0.0
C1900 C 0.84858 0.3219 0.07037 0.0
C1901 C 0.83498 0.34596 0.06725 0.0
C1902 C 0.822 0.30104 0.03444 0.0
C1903 C 0.81611 0.34745 0.0463 0.0
C1904 C 0.79383 0.27593 -0.00121 0.0
C1905 C 0.80381 0.22765 0.02379 0.0
N1906 N 0.80976 0.32502 0.03085 0.0
N1907 N 0.81562 0.25156 0.03272 0.0
H1908 H 0.54649 0.0407 0.82444 0.0
H1909 H 0.46929 0.17269 0.85362 0.0
H1910 H 0.57488 0.11584 0.78781 0.0
H1911 H 0.42874 0.09316 0.85809 0.0
H1912 H 0.5061 0.15408 0.82586 0.0
H1913 H 0.50275 0.06064 0.83629 0.0
C1914 C 0.54361 0.06153 0.81912 0.0
C1915 C 0.56448 0.07676 0.80544 0.0
C1916 C 0.48859 0.14086 0.83199 0.0
C1917 C 0.5142 0.09969 0.81867 0.0
C1918 C 0.4673 0.15159 0.84739 0.0
C1919 C 0.44594 0.1344 0.85793 0.0
C1920 C 0.48865 0.11271 0.82781 0.0
C1921 C 0.44476 0.10708 0.85007 0.0
C1922 C 0.51845 0.07278 0.82553 0.0
C1923 C 0.55939 0.1035 0.79861 0.0
N1924 N 0.46626 0.09689 0.83611 0.0
N1925 N 0.53485 0.11427 0.80559 0.0
H1926 H 0.95754 0.02569 0.33079 0.0
H1927 H 0.02148 0.88687 0.34285 0.0
H1928 H 0.92312 0.95608 0.28722 0.0
H1929 H 0.06944 0.96192 0.35471 0.0
H1930 H 0.98872 0.9105 0.31598 0.0
H1931 H 0.00033 0.00235 0.33672 0.0
C1932 C 0.95895 0.00538 0.32264 0.0
C1933 C 0.93663 0.99256 0.30895 0.0
C1934 C 0.00703 0.92167 0.32346 0.0
C1935 C 0.98568 0.96583 0.3153 0.0
C1936 C 0.02605 0.90804 0.33835 0.0
C1937 C 0.04793 0.92261 0.35113 0.0
C1938 C 0.00983 0.95004 0.32203 0.0
C1939 C 0.0527 0.95005 0.34517 0.0
C1940 C 0.98355 0.99223 0.32563 0.0
C1941 C 0.93977 0.96649 0.29824 0.0
N1942 N 0.03318 0.96318 0.33186 0.0
N1943 N 0.96372 0.95377 0.302 0.0
H1944 H 0.5111 0.35822 0.2088 0.0
H1945 H 0.41708 0.31729 0.33425 0.0
H1946 H 0.43344 0.31038 0.2083 0.0
H1947 H 0.44948 0.39989 0.32942 0.0
H1948 H 0.443 0.30637 0.29374 0.0
H1949 H 0.50338 0.36828 0.2568 0.0
C1950 C 0.49232 0.35021 0.2186 0.0
C1951 C 0.4728 0.33354 0.20449 0.0
C1952 C 0.44523 0.32672 0.30204 0.0
C1953 C 0.4649 0.34358 0.25906 0.0
C1954 C 0.4309 0.33283 0.32545 0.0
C1955 C 0.43052 0.35972 0.33457 0.0
C1956 C 0.45917 0.34768 0.28779 0.0
C1957 C 0.44873 0.3791 0.32242 0.0
C1958 C 0.48818 0.35567 0.24592 0.0
C1959 C 0.44902 0.32339 0.21821 0.0
N1960 N 0.46166 0.373 0.2989 0.0
N1961 N 0.44596 0.32828 0.24471 0.0
H1962 H 0.48198 0.73371 0.92357 0.0
H1963 H 0.39461 0.73178 0.06019 0.0
H1964 H 0.42794 0.79772 0.94444 0.0
H1965 H 0.46534 0.68411 0.04426 0.0
H1966 H 0.40406 0.75587 0.01812 0.0
H1967 H 0.47198 0.71317 0.96673 0.0
C1968 C 0.46767 0.74328 0.93711 0.0
C1969 C 0.4558 0.7675 0.93034 0.0
C1970 C 0.41772 0.74041 0.02409 0.0
C1971 C 0.44454 0.74421 0.9803 0.0
C1972 C 0.41255 0.72696 0.04829 0.0
C1973 C 0.42921 0.70599 0.05588 0.0
C1974 C 0.43955 0.73256 0.0073 0.0
C1975 C 0.4518 0.70002 0.03923 0.0
C1976 C 0.46216 0.73166 0.96193 0.0
C1977 C 0.43746 0.77897 0.94882 0.0
N1978 N 0.4561 0.71299 0.01572 0.0
N1979 N 0.43242 0.76726 0.97304 0.0
H1980 H 0.97569 0.70068 0.69382 0.0
H1981 H 0.0585 0.72416 0.82999 0.0
H1982 H 0.03242 0.76844 0.71325 0.0
H1983 H 0.03356 0.64447 0.80052 0.0
H1984 H 0.03153 0.74377 0.79478 0.0
H1985 H 0.98288 0.68244 0.73875 0.0
C1986 C 0.98965 0.71161 0.70747 0.0
C1987 C 0.00404 0.73569 0.69965 0.0
C1988 C 0.03112 0.72194 0.79659 0.0
C1989 C 0.01117 0.71588 0.75097 0.0
C1990 C 0.04606 0.71079 0.81699 0.0
C1991 C 0.0482 0.68272 0.81801 0.0
C1992 C 0.01864 0.70481 0.77701 0.0
C1993 C 0.0323 0.66621 0.80031 0.0
C1994 C -0.0065 0.7014 0.73306 0.0
C1995 C 0.02145 0.74944 0.71819 0.0
N1996 N 0.01866 0.67749 0.78002 0.0
N1997 N 0.02448 0.73937 0.74291 0.0
H1998 H 0.00256 0.38687 0.42964 0.0
H1999 H 0.09149 0.36142 0.55989 0.0
H2000 H 0.05936 0.32265 0.43496 0.0
H2001 H 0.04734 0.43385 0.54771 0.0
H2002 H 0.07779 0.34534 0.51523 0.0
H2003 H 0.01785 0.40385 0.47342 0.0
C2004 C 0.01857 0.3766 0.43984 0.0
C2005 C 0.02974 0.35335 0.42865 0.0
C2006 C 0.07107 0.36472 0.5224 0.0
C2007 C 0.04687 0.37227 0.47901 0.0
C2008 C 0.07866 0.37378 0.54799 0.0
C2009 C 0.07059 0.39902 0.5576 0.0
C2010 C 0.05511 0.38094 0.5064 0.0
C2011 C 0.05418 0.41432 0.54114 0.0
C2012 C 0.02718 0.3862 0.46491 0.0
C2013 C 0.05029 0.34073 0.44282 0.0
N2014 N 0.04701 0.40504 0.5164 0.0
N2015 N 0.05802 0.3502 0.46739 0.0
H2016 H 0.50827 0.69358 0.31774 0.0
H2017 H 0.42373 0.75946 0.20214 0.0
H2018 H 0.45174 0.75746 0.33041 0.0
H2019 H 0.43721 0.67402 0.19932 0.0
H2020 H 0.4461 0.76264 0.2457 0.0
H2021 H 0.49164 0.68821 0.27149 0.0
C2022 C 0.49203 0.70608 0.31101 0.0
C2023 C 0.48127 0.7259 0.32805 0.0
C2024 C 0.44475 0.74329 0.23523 0.0
C2025 C 0.46329 0.72071 0.27513 0.0
C2026 C 0.43233 0.74153 0.21022 0.0
C2027 C 0.42897 0.71647 0.19681 0.0
C2028 C 0.454 0.71986 0.24699 0.0
C2029 C 0.44022 0.69384 0.20845 0.0
C2030 C 0.4828 0.70317 0.2846 0.0
C2031 C 0.46055 0.74181 0.31813 0.0
N2032 N 0.45205 0.69598 0.23304 0.0
N2033 N 0.45255 0.73912 0.29229 0.0
H2034 H 0.98999 0.71372 0.0516 0.0
H2035 H 0.10598 0.67461 0.95048 0.0
H2036 H 0.07257 0.75109 0.05907 0.0
H2037 H 0.01952 0.67348 0.92986 0.0
H2038 H 0.09657 0.70455 0.98869 0.0
H2039 H 0.00215 0.69757 0.00701 0.0
C2040 C 0.01083 0.71824 0.04397 0.0
C2041 C 0.03039 0.73353 0.05915 0.0
C2042 C 0.07987 0.69863 0.9752 0.0
C2043 C 0.04438 0.7154 0.00784 0.0
C2044 C 0.08534 0.68201 0.9531 0.0
C2045 C 0.06351 0.67197 0.9369 0.0
C2046 C 0.05228 0.70445 0.98128 0.0
C2047 C 0.03693 0.68115 0.94174 0.0
C2048 C 0.01764 0.70937 0.01833 0.0
C2049 C 0.05697 0.73915 0.04805 0.0
N2050 N 0.03189 0.69632 0.96389 0.0
N2051 N 0.06333 0.72984 0.02309 0.0
H2052 H 0.06909 0.27603 0.8086 0.0
H2053 H 0.06333 0.39198 0.7068 0.0
H2054 H 0.02378 0.34632 0.82991 0.0
H2055 H 0.06618 0.30811 0.6829 0.0
H2056 H 0.04609 0.37791 0.75087 0.0
H2057 H 0.06972 0.28993 0.76222 0.0
C2058 C 0.05964 0.29466 0.80357 0.0
C2059 C 0.0466 0.3102 0.82316 0.0
C2060 C 0.04946 0.36262 0.73564 0.0
C2061 C 0.04681 0.326 0.76988 0.0
C2062 C 0.05875 0.37066 0.71027 0.0
C2063 C 0.06625 0.35115 0.69127 0.0
C2064 C 0.04828 0.33499 0.74188 0.0
C2065 C 0.06084 0.32374 0.69714 0.0
C2066 C 0.05957 0.30233 0.777 0.0
C2067 C 0.03428 0.33393 0.81538 0.0
N2068 N 0.05291 0.31644 0.7222 0.0
N2069 N 0.03489 0.34131 0.78927 0.0
H2070 H 0.50295 0.34365 0.55497 0.0
H2071 H 0.3771 0.37758 0.46459 0.0
H2072 H 0.42162 0.30489 0.56793 0.0
H2073 H 0.46269 0.38912 0.43987 0.0
H2074 H 0.39129 0.34849 0.50082 0.0
H2075 H 0.48727 0.36084 0.51268 0.0
C2076 C 0.48166 0.33901 0.54905 0.0
C2077 C 0.46349 0.32303 0.56511 0.0
C2078 C 0.40687 0.35659 0.48689 0.0
C2079 C 0.44542 0.34238 0.51638 0.0
C2080 C 0.3987 0.37273 0.46592 0.0
C2081 C 0.41876 0.38527 0.44904 0.0
C2082 C 0.43532 0.35373 0.49121 0.0
C2083 C 0.4466 0.3794 0.45226 0.0
C2084 C 0.47281 0.34852 0.52469 0.0
C2085 C 0.43623 0.31733 0.5562 0.0
N2086 N 0.45414 0.36452 0.47328 0.0
N2087 N 0.42792 0.32718 0.53249 0.0
H2088 H 0.19707 0.47142 0.26106 0.0
H2089 H 0.29691 0.42804 0.37237 0.0
H2090 H 0.18757 0.50594 0.3401 0.0
H2091 H 0.32353 0.43975 0.29077 0.0
H2092 H 0.25615 0.45446 0.36394 0.0
H2093 H 0.24143 0.45463 0.27401 0.0
C2094 C 0.20412 0.47515 0.28131 0.0
C2095 C 0.18852 0.49003 0.29956 0.0
C2096 C 0.27144 0.452 0.34818 0.0
C2097 C 0.23962 0.47099 0.31445 0.0
C2098 C 0.29492 0.43736 0.3531 0.0
C2099 C 0.31394 0.43243 0.33239 0.0
C2100 C 0.26669 0.46077 0.32217 0.0
C2101 C 0.30963 0.44366 0.30737 0.0
C2102 C 0.22966 0.46586 0.28857 0.0
C2103 C 0.19894 0.49445 0.32546 0.0
N2104 N 0.28623 0.45688 0.30282 0.0
N2105 N 0.22385 0.48478 0.33227 0.0
H2106 H 0.26453 0.48407 0.06824 0.0
H2107 H 0.34861 0.62359 0.03549 0.0
H2108 H 0.31693 0.49854 -0.00112 0.0
H2109 H 0.31403 0.60579 0.11327 0.0
H2110 H 0.32478 0.58248 0.01776 0.0
H2111 H 0.27327 0.53165 0.08203 0.0
C2112 C 0.27798 0.49721 0.05601 0.0
C2113 C 0.29039 0.48723 0.03259 0.0
C2114 C 0.32168 0.58789 0.03858 0.0
C2115 C 0.29972 0.54174 0.04777 0.0
C2116 C 0.33476 0.61172 0.04856 0.0
C2117 C 0.3333 0.61801 0.0759 0.0
C2118 C 0.30726 0.57012 0.05618 0.0
C2119 C 0.31561 0.60164 0.09208 0.0
C2120 C 0.28275 0.52437 0.06376 0.0
C2121 C 0.30729 0.50522 0.01729 0.0
N2122 N 0.30379 0.57801 0.08216 0.0
N2123 N 0.31144 0.53153 0.02514 0.0
H2124 H 0.30081 0.54822 0.85538 0.0
H2125 H 0.16475 0.59383 0.78954 0.0
H2126 H 0.29968 0.59163 0.78121 0.0
H2127 H 0.18091 0.62808 0.86775 0.0
H2128 H 0.20925 0.57224 0.79074 0.0
H2129 H 0.25259 0.56095 0.8645 0.0
C2130 C 0.29068 0.56076 0.84131 0.0
C2131 C 0.30431 0.56894 0.81751 0.0
C2132 C 0.20245 0.58356 0.80809 0.0
C2133 C 0.24945 0.58223 0.82724 0.0
C2134 C 0.177 0.59557 0.80755 0.0
C2135 C 0.16897 0.61219 0.8288 0.0
C2136 C 0.21999 0.58836 0.82996 0.0
C2137 C 0.18606 0.6147 0.85133 0.0
C2138 C 0.26326 0.56777 0.84645 0.0
C2139 C 0.29013 0.58491 0.79982 0.0
N2140 N 0.21114 0.60321 0.85121 0.0
N2141 N 0.26338 0.59062 0.80482 0.0
H2142 H 0.18421 0.56786 0.5004 0.0
H2143 H 0.18609 0.48774 0.63321 0.0
H2144 H 0.23201 0.59778 0.56794 0.0
H2145 H 0.16265 0.45042 0.55805 0.0
H2146 H 0.20967 0.52524 0.60931 0.0
H2147 H 0.17984 0.5233 0.52061 0.0
C2148 C 0.19363 0.56508 0.51963 0.0
C2149 C 0.20804 0.58667 0.53278 0.0
C2150 C 0.20032 0.5084 0.59794 0.0
C2151 C 0.20342 0.53547 0.55595 0.0
C2152 C 0.18728 0.48675 0.6116 0.0
C2153 C 0.17248 0.46607 0.59749 0.0
C2154 C 0.19782 0.50955 0.57008 0.0
C2155 C 0.17402 0.46596 0.56957 0.0
C2156 C 0.19148 0.53949 0.53099 0.0
C2157 C 0.22037 0.58174 0.55735 0.0
N2158 N 0.18571 0.48785 0.55672 0.0
N2159 N 0.21746 0.55671 0.56835 0.0
H2160 H 0.20084 0.60611 0.26852 0.0
H2161 H 0.32305 0.61073 0.15844 0.0
H2162 H 0.2005 0.55289 0.19946 0.0
H2163 H 0.31751 0.66649 0.22496 0.0
H2164 H 0.28217 0.58454 0.17617 0.0
H2165 H 0.24648 0.62502 0.25497 0.0
C2166 C 0.21029 0.59856 0.25034 0.0
C2167 C 0.19671 0.5781 0.23495 0.0
C2168 C 0.29022 0.60227 0.18708 0.0
C2169 C 0.24936 0.59943 0.21941 0.0
C2170 C 0.31367 0.61703 0.17708 0.0
C2171 C 0.32319 0.64111 0.18989 0.0
C2172 C 0.2766 0.61164 0.21018 0.0
C2173 C 0.31053 0.64828 0.21418 0.0
C2174 C 0.23649 0.60923 0.24269 0.0
C2175 C 0.21013 0.56887 0.21175 0.0
N2176 N 0.28773 0.63386 0.22332 0.0
N2177 N 0.23573 0.57964 0.20463 0.0
H2178 H 0.2448 0.46692 0.91897 0.0
H2179 H 0.14543 0.58484 0.95655 0.0
H2180 H 0.18594 0.46469 0.9847 0.0
H2181 H 0.16135 0.56663 0.87351 0.0
H2182 H 0.17285 0.54699 0.96899 0.0
H2183 H 0.2239 0.508 0.90272 0.0
C2184 C 0.22725 0.47477 0.9297 0.0
C2185 C 0.21705 0.46237 0.95322 0.0
C2186 C 0.17085 0.55162 0.94804 0.0
C2187 C 0.19408 0.50951 0.93542 0.0
C2188 C 0.15553 0.57338 0.94096 0.0
C2189 C 0.1514 0.57895 0.91401 0.0
C2190 C 0.18207 0.5352 0.92803 0.0
C2191 C 0.16465 0.56333 0.89452 0.0
C2192 C 0.21555 0.49823 0.92053 0.0
C2193 C 0.19447 0.47349 0.96649 0.0
N2194 N 0.17926 0.54183 0.9019 0.0
N2195 N 0.18402 0.49658 0.95761 0.0
H2196 H 0.29875 0.45337 0.777 0.0
H2197 H 0.17432 0.45811 0.67308 0.0
H2198 H 0.29599 0.51379 0.71585 0.0
H2199 H 0.18812 0.39002 0.72327 0.0
H2200 H 0.21432 0.48286 0.69358 0.0
H2201 H 0.2545 0.43316 0.76148 0.0
C2202 C 0.2889 0.46226 0.76015 0.0
C2203 C 0.30115 0.48511 0.74752 0.0
C2204 C 0.2083 0.46265 0.70034 0.0
C2205 C 0.25023 0.46234 0.72989 0.0
C2206 C 0.18532 0.44867 0.68889 0.0
C2207 C 0.17814 0.42194 0.69636 0.0
C2208 C 0.22388 0.44979 0.71951 0.0
C2209 C 0.19316 0.41052 0.71677 0.0
C2210 C 0.26356 0.4508 0.75138 0.0
C2211 C 0.28736 0.49597 0.72594 0.0
N2212 N 0.21543 0.42442 0.72748 0.0
N2213 N 0.26256 0.48448 0.71779 0.0
H2214 H 0.30303 0.60278 0.47464 0.0
H2215 H 0.3199 0.48194 0.37789 0.0
H2216 H 0.23916 0.5911 0.41521 0.0
H2217 H 0.32502 0.47353 0.46318 0.0
H2218 H 0.29409 0.52306 0.38488 0.0
H2219 H 0.31931 0.55826 0.46328 0.0
C2220 C 0.29277 0.59112 0.45878 0.0
C2221 C 0.26956 0.60059 0.44597 0.0
C2222 C 0.30004 0.51159 0.40197 0.0
C2223 C 0.28805 0.54951 0.43311 0.0
C2224 C 0.31419 0.48784 0.39802 0.0
C2225 C 0.32398 0.47403 0.42002 0.0
C2226 C 0.2967 0.52179 0.42801 0.0
C2227 C 0.31762 0.48353 0.44574 0.0
C2228 C 0.30186 0.56558 0.45259 0.0
C2229 C 0.25711 0.58447 0.42557 0.0
N2230 N 0.30494 0.50717 0.44903 0.0
N2231 N 0.26652 0.55953 0.4197 0.0
H2232 H 0.25008 0.2097 0.43592 0.0
H2233 H 0.36159 0.33482 0.43787 0.0
H2234 H 0.30968 0.22047 0.49932 0.0
H2235 H 0.28616 0.33145 0.39235 0.0
H2236 H 0.34494 0.29321 0.46087 0.0
H2237 H 0.26648 0.25322 0.41786 0.0
C2238 C 0.26691 0.22107 0.44585 0.0
C2239 C 0.27854 0.21142 0.46914 0.0
C2240 C 0.33186 0.30193 0.44621 0.0
C2241 C 0.29721 0.26167 0.44878 0.0
C2242 C 0.34117 0.32587 0.43343 0.0
C2243 C 0.32515 0.33658 0.41332 0.0
C2244 C 0.30659 0.28868 0.43847 0.0
C2245 C 0.29919 0.32376 0.40767 0.0
C2246 C 0.27609 0.2461 0.43569 0.0
C2247 C 0.30021 0.22716 0.48124 0.0
N2248 N 0.29089 0.30039 0.41992 0.0
N2249 N 0.30887 0.25158 0.47093 0.0
H2250 H 0.81931 0.34869 0.51784 0.0
H2251 H 0.79044 0.21235 0.5999 0.0
H2252 H 0.74037 0.322 0.55263 0.0
H2253 H 0.87059 0.25517 0.59917 0.0
H2254 H 0.77379 0.24477 0.56813 0.0
H2255 H 0.83984 0.30818 0.53568 0.0
C2256 C 0.80633 0.3343 0.52918 0.0
C2257 C 0.77822 0.33884 0.53415 0.0
C2258 C 0.79532 0.24655 0.57418 0.0
C2259 C 0.8012 0.29234 0.55361 0.0
C2260 C 0.80494 0.22777 0.59189 0.0
C2261 C 0.83202 0.23089 0.60166 0.0
C2262 C 0.81286 0.26876 0.5665 0.0
C2263 C 0.84974 0.25181 0.59154 0.0
C2264 C 0.81801 0.31122 0.53918 0.0
C2265 C 0.76223 0.3195 0.54871 0.0
N2266 N 0.83975 0.27029 0.57474 0.0
N2267 N 0.77392 0.2971 0.55785 0.0
H2268 H 0.44886 0.05406 0.23749 0.0
H2269 H 0.52799 0.04451 0.37637 0.0
H2270 H 0.4179 0.0096 0.30618 0.0
H2271 H 0.55846 0.0972 0.31342 0.0
H2272 H 0.49144 0.02638 0.34719 0.0
H2273 H 0.4916 0.06685 0.26207 0.0
C2274 C 0.45098 0.04713 0.25774 0.0
C2275 C 0.4297 0.03093 0.2699 0.0
C2276 C 0.50618 0.04175 0.33953 0.0
C2277 C 0.47855 0.04494 0.29779 0.0
C2278 C 0.52724 0.05198 0.35616 0.0
C2279 C 0.54594 0.07283 0.34747 0.0
C2280 C 0.50347 0.05258 0.31398 0.0
C2281 C 0.54418 0.08141 0.32096 0.0
C2282 C 0.47541 0.05427 0.27167 0.0
C2283 C 0.43362 0.02228 0.29606 0.0
N2284 N 0.52293 0.0716 0.30523 0.0
N2285 N 0.45749 0.02936 0.30904 0.0
H2286 H 0.65501 0.71307 0.02517 0.0
H2287 H 0.70552 0.85975 0.07925 0.0
H2288 H 0.73587 0.7358 0.05689 0.0
H2289 H 0.62087 0.82932 0.08989 0.0
H2290 H 0.71477 0.81981 0.05201 0.0
H2291 H 0.6408 0.75958 0.03419 0.0
C2292 C 0.66966 0.72778 0.03417 0.0
C2293 C 0.69647 0.72049 0.04082 0.0
C2294 C 0.69384 0.82239 0.05939 0.0
C2295 C 0.68092 0.77365 0.04971 0.0
C2296 C 0.68835 0.84556 0.07434 0.0
C2297 C 0.66252 0.84761 0.08712 0.0
C2298 C 0.67318 0.8014 0.05703 0.0
C2299 C 0.64112 0.82841 0.08039 0.0
C2300 C 0.66165 0.75426 0.039 0.0
C2301 C 0.71483 0.74038 0.05198 0.0
N2302 N 0.64711 0.80552 0.06651 0.0
N2303 N 0.70677 0.76603 0.05593 0.0
H2304 H 0.54985 0.47545 0.25371 0.0
H2305 H 0.44559 0.50709 0.37428 0.0
H2306 H 0.56599 0.5342 0.31696 0.0
H2307 H 0.42936 0.44035 0.31928 0.0
H2308 H 0.48622 0.52137 0.34797 0.0
H2309 H 0.50395 0.46416 0.2739 0.0
C2310 C 0.54391 0.48568 0.27201 0.0
C2311 C 0.56183 0.50568 0.28379 0.0
C2312 C 0.4738 0.50365 0.34144 0.0
C2313 C 0.5093 0.49348 0.30641 0.0
C2314 C 0.45036 0.49562 0.35635 0.0
C2315 C 0.43462 0.47189 0.34949 0.0
C2316 C 0.48183 0.48778 0.31951 0.0
C2317 C 0.44145 0.45828 0.32569 0.0
C2318 C 0.51764 0.47944 0.28333 0.0
C2319 C 0.55297 0.51857 0.30725 0.0
N2320 N 0.46499 0.46607 0.31178 0.0
N2321 N 0.52738 0.51232 0.31767 0.0
H2322 H 0.16619 0.83389 0.98063 0.0
H2323 H 0.18526 0.72635 0.86153 0.0
H2324 H 0.22776 0.84314 0.91769 0.0
H2325 H 0.12159 0.71581 0.92227 0.0
H2326 H 0.20181 0.76835 0.88328 0.0
H2327 H 0.14944 0.79074 0.96032 0.0
C2328 C 0.17597 0.82702 0.96235 0.0
C2329 C 0.19838 0.84222 0.95078 0.0
C2330 C 0.18434 0.75685 0.89208 0.0
C2331 C 0.17957 0.79261 0.92769 0.0
C2332 C 0.17491 0.73274 0.8797 0.0
C2333 C 0.15197 0.71744 0.89014 0.0
C2334 C 0.17072 0.76609 0.91511 0.0
C2335 C 0.13953 0.72673 0.91379 0.0
C2336 C 0.1665 0.80228 0.95088 0.0
C2337 C 0.21037 0.8322 0.92724 0.0
N2338 N 0.14893 0.75059 0.9254 0.0
N2339 N 0.20089 0.80804 0.91657 0.0
H2340 H 0.41338 0.94153 0.16145 0.0
H2341 H 0.54509 0.90197 0.13925 0.0
H2342 H 0.42942 0.93655 0.24571 0.0
H2343 H 0.55798 0.95816 0.20497 0.0
H2344 H 0.49719 0.89227 0.15503 0.0
H2345 H 0.4596 0.92513 0.15189 0.0
C2346 C 0.42628 0.93611 0.1779 0.0
C2347 C 0.41759 0.94036 0.20437 0.0
C2348 C 0.51089 0.90589 0.16656 0.0
C2349 C 0.47063 0.92227 0.19366 0.0
C2350 C 0.53833 0.91106 0.15788 0.0
C2351 C 0.5554 0.93082 0.17095 0.0
C2352 C 0.50076 0.9205 0.18852 0.0
C2353 C 0.54543 0.94267 0.1945 0.0
C2354 C 0.4526 0.92664 0.17247 0.0
C2355 C 0.43527 0.93337 0.225 0.0
N2356 N 0.51858 0.93762 0.20238 0.0
N2357 N 0.46133 0.92554 0.21922 0.0
H2358 H 0.04624 0.04297 0.69763 0.0
H2359 H 0.96982 0.16811 0.65635 0.0
H2360 H 0.07788 0.1215 0.72568 0.0
H2361 H 0.92682 0.09124 0.6716 0.0
H2362 H 0.0083 0.15485 0.68406 0.0
H2363 H 0.00238 0.06217 0.68734 0.0
C2364 C 0.04406 0.0644 0.70136 0.0
C2365 C 0.06588 0.08076 0.71219 0.0
C2366 C 0.98992 0.14136 0.68233 0.0
C2367 C 0.01534 0.1029 0.70068 0.0
C2368 C 0.9678 0.14908 0.66686 0.0
C2369 C 0.94512 0.13076 0.66198 0.0
C2370 C 0.98947 0.11489 0.69211 0.0
C2371 C 0.94383 0.10601 0.67521 0.0
C2372 C 0.0188 0.07526 0.6959 0.0
C2373 C 0.06161 0.10829 0.71708 0.0
N2374 N 0.96607 0.09845 0.6891 0.0
N2375 N 0.03688 0.11868 0.71089 0.0
loop_
_geom_bond_atom_site_label_1
_geom_bond_atom_site_label_2
_geom_bond_distance
_geom_bond_site_symmetry_2
_ccdc_geom_bond_type
In0 O1 2.294 . S
In0 O2 2.326 . S
In0 O6 2.266 . S
In0 O7 2.326 . S
In0 O8 2.266 1_455 S
In0 O9 2.326 . S
In0 O11 2.294 1_455 S
In0 O12 2.326 . S
O1 In0 2.294 . S
O1 C10 1.240 . S
O2 In0 2.326 . S
O2 C10 1.252 . S
C3 O6 1.252 . S
C3 O7 1.260 . S
C4 O11 1.240 . S
C4 O12 1.252 1_655 S
C5 O8 1.252 . S
C5 O9 1.260 1_655 S
O6 In0 2.266 . S
O6 C3 1.252 . S
O7 In0 2.326 . S
O7 C3 1.260 . S
O8 In0 2.266 1_655 S
O8 C5 1.252 . S
O9 In0 2.326 . S
O9 C5 1.260 1_455 S
C10 O1 1.240 . S
C10 O2 1.252 . S
O11 In0 2.294 1_655 S
O11 C4 1.240 . S
O12 In0 2.326 . S
O12 C4 1.252 1_455 S
In13 O14 2.294 1_455 S
In13 O15 2.326 1_455 S
In13 O19 2.266 . S
In13 O20 2.326 . S
In13 O21 2.266 1_455 S
In13 O22 2.326 1_455 S
In13 O24 2.294 . S
In13 O25 2.326 . S
O14 In13 2.294 1_655 S
O14 C23 1.240 . S
O15 In13 2.326 1_655 S
O15 C23 1.252 . S
C16 O19 1.252 . S
C16 O20 1.260 . S
C17 O24 1.240 . S
C17 O25 1.252 . S
C18 O21 1.252 . S
C18 O22 1.260 . S
O19 In13 2.266 . S
O19 C16 1.252 . S
O20 In13 2.326 . S
O20 C16 1.260 . S
O21 In13 2.266 1_655 S
O21 C18 1.252 . S
O22 In13 2.326 1_655 S
O22 C18 1.260 . S
C23 O14 1.240 . S
C23 O15 1.252 . S
O24 In13 2.294 . S
O24 C17 1.240 . S
O25 In13 2.326 . S
O25 C17 1.252 . S
In26 O27 2.294 . S
In26 O28 2.326 . S
In26 O32 2.266 . S
In26 O33 2.326 . S
In26 O34 2.266 . S
In26 O35 2.326 . S
In26 O37 2.294 . S
In26 O38 2.326 . S
O27 In26 2.294 . S
O27 C36 1.240 . S
O28 In26 2.326 . S
O28 C36 1.252 . S
C29 O32 1.252 . S
C29 O33 1.260 . S
C30 O37 1.240 . S
C30 O38 1.252 . S
C31 O34 1.252 . S
C31 O35 1.260 . S
O32 In26 2.266 . S
O32 C29 1.252 . S
O33 In26 2.326 . S
O33 C29 1.260 . S
O34 In26 2.266 . S
O34 C31 1.252 . S
O35 In26 2.326 . S
O35 C31 1.260 . S
C36 O27 1.240 . S
C36 O28 1.252 . S
O37 In26 2.294 . S
O37 C30 1.240 . S
O38 In26 2.326 . S
O38 C30 1.252 . S
In39 O40 2.294 . S
In39 O41 2.326 . S
In39 O45 2.266 . S
In39 O46 2.326 . S
In39 O47 2.266 . S
In39 O48 2.326 . S
In39 O50 2.294 . S
In39 O51 2.326 . S
O40 In39 2.294 . S
O40 C49 1.240 . S
O41 In39 2.326 . S
O41 C49 1.252 . S
C42 O45 1.252 . S
C42 O46 1.260 . S
C43 O50 1.240 . S
C43 O51 1.252 . S
C44 O47 1.252 . S
C44 O48 1.260 . S
O45 In39 2.266 . S
O45 C42 1.252 . S
O46 In39 2.326 . S
O46 C42 1.260 . S
O47 In39 2.266 . S
O47 C44 1.252 . S
O48 In39 2.326 . S
O48 C44 1.260 . S
C49 O40 1.240 . S
C49 O41 1.252 . S
O50 In39 2.294 . S
O50 C43 1.240 . S
O51 In39 2.326 . S
O51 C43 1.252 . S
In52 O53 2.294 1_455 S
In52 O54 2.326 . S
In52 O58 2.266 1_455 S
In52 O59 2.326 . S
In52 O60 2.266 . S
In52 O61 2.326 1_455 S
In52 O63 2.294 . S
In52 O64 2.326 1_455 S
O53 In52 2.294 1_655 S
O53 C62 1.240 . S
O54 In52 2.326 . S
O54 C62 1.252 1_455 S
C55 O58 1.252 . S
C55 O59 1.260 1_655 S
C56 O63 1.240 . S
C56 O64 1.252 1_455 S
C57 O60 1.252 . S
C57 O61 1.260 1_455 S
O58 In52 2.266 1_655 S
O58 C55 1.252 . S
O59 In52 2.326 . S
O59 C55 1.260 1_455 S
O60 In52 2.266 . S
O60 C57 1.252 . S
O61 In52 2.326 1_655 S
O61 C57 1.260 1_655 S
C62 O53 1.240 . S
C62 O54 1.252 1_655 S
O63 In52 2.294 . S
O63 C56 1.240 . S
O64 In52 2.326 1_655 S
O64 C56 1.252 1_655 S
In65 O66 2.294 . S
In65 O67 2.326 . S
In65 O71 2.266 . S
In65 O72 2.326 . S
In65 O73 2.266 . S
In65 O74 2.326 . S
In65 O76 2.294 . S
In65 O77 2.326 . S
O66 In65 2.294 . S
O66 C75 1.240 . S
O67 In65 2.326 . S
O67 C75 1.252 . S
C68 O71 1.252 . S
C68 O72 1.260 . S
C69 O76 1.240 . S
C69 O77 1.252 . S
C70 O73 1.252 . S
C70 O74 1.260 . S
O71 In65 2.266 . S
O71 C68 1.252 . S
O72 In65 2.326 . S
O72 C68 1.260 . S
O73 In65 2.266 . S
O73 C70 1.252 . S
O74 In65 2.326 . S
O74 C70 1.260 . S
C75 O66 1.240 . S
C75 O67 1.252 . S
O76 In65 2.294 . S
O76 C69 1.240 . S
O77 In65 2.326 . S
O77 C69 1.252 . S
In78 O79 2.294 . S
In78 O80 2.326 . S
In78 O84 2.266 . S
In78 O85 2.326 . S
In78 O86 2.266 . S
In78 O87 2.326 . S
In78 O89 2.294 . S
In78 O90 2.326 . S
O79 In78 2.294 . S
O79 C88 1.240 . S
O80 In78 2.326 . S
O80 C88 1.252 . S
C81 O84 1.252 . S
C81 O85 1.260 . S
C82 O89 1.240 . S
C82 O90 1.252 . S
C83 O86 1.252 . S
C83 O87 1.260 . S
O84 In78 2.266 . S
O84 C81 1.252 . S
O85 In78 2.326 . S
O85 C81 1.260 . S
O86 In78 2.266 . S
O86 C83 1.252 . S
O87 In78 2.326 . S
O87 C83 1.260 . S
C88 O79 1.240 . S
C88 O80 1.252 . S
O89 In78 2.294 . S
O89 C82 1.240 . S
O90 In78 2.326 . S
O90 C82 1.252 . S
In91 O92 2.294 . S
In91 O93 2.326 . S
In91 O97 2.266 . S
In91 O98 2.326 1_455 S
In91 O99 2.266 . S
In91 O100 2.326 . S
In91 O102 2.294 . S
In91 O103 2.326 1_455 S
O92 In91 2.294 . S
O92 C101 1.240 . S
O93 In91 2.326 . S
O93 C101 1.252 . S
C94 O97 1.252 1_655 S
C94 O98 1.260 . S
C95 O102 1.240 1_655 S
C95 O103 1.252 . S
C96 O99 1.252 . S
C96 O100 1.260 . S
O97 In91 2.266 . S
O97 C94 1.252 1_455 S
O98 In91 2.326 1_655 S
O98 C94 1.260 . S
O99 In91 2.266 . S
O99 C96 1.252 . S
O100 In91 2.326 . S
O100 C96 1.260 . S
C101 O92 1.240 . S
C101 O93 1.252 . S
O102 In91 2.294 . S
O102 C95 1.240 1_455 S
O103 In91 2.326 1_655 S
O103 C95 1.252 . S
In104 O105 2.273 1_545 S
In104 O106 2.330 . S
In104 O110 2.245 1_545 S
In104 O111 2.329 . S
In104 O112 2.286 . S
In104 O113 2.321 1_545 S
In104 O115 2.316 . S
In104 O116 2.325 1_545 S
O105 In104 2.273 1_565 S
O105 C114 1.240 . S
O106 In104 2.330 . S
O106 C114 1.252 1_545 S
C107 O110 1.252 . S
C107 O111 1.260 1_565 S
C108 O115 1.240 . S
C108 O116 1.252 1_545 S
C109 O112 1.252 . S
C109 O113 1.260 1_545 S
O110 In104 2.245 1_565 S
O110 C107 1.252 . S
O111 In104 2.329 . S
O111 C107 1.260 1_545 S
O112 In104 2.286 . S
O112 C109 1.252 . S
O113 In104 2.321 1_565 S
O113 C109 1.260 1_565 S
C114 O105 1.240 . S
C114 O106 1.252 1_565 S
O115 In104 2.316 . S
O115 C108 1.240 . S
O116 In104 2.325 1_565 S
O116 C108 1.252 1_565 S
In117 O118 2.294 . S
In117 O119 2.326 . S
In117 O123 2.266 . S
In117 O124 2.326 . S
In117 O125 2.266 . S
In117 O126 2.326 . S
In117 O128 2.294 . S
In117 O129 2.326 . S
O118 In117 2.294 . S
O118 C127 1.240 . S
O119 In117 2.326 . S
O119 C127 1.252 . S
C120 O123 1.252 . S
C120 O124 1.260 . S
C121 O128 1.240 . S
C121 O129 1.252 . S
C122 O125 1.252 . S
C122 O126 1.260 . S
O123 In117 2.266 . S
O123 C120 1.252 . S
O124 In117 2.326 . S
O124 C120 1.260 . S
O125 In117 2.266 . S
O125 C122 1.252 . S
O126 In117 2.326 . S
O126 C122 1.260 . S
C127 O118 1.240 . S
C127 O119 1.252 . S
O128 In117 2.294 . S
O128 C121 1.240 . S
O129 In117 2.326 . S
O129 C121 1.252 . S
In130 O131 2.294 . S
In130 O132 2.326 . S
In130 O136 2.266 . S
In130 O137 2.326 . S
In130 O138 2.266 . S
In130 O139 2.326 . S
In130 O141 2.294 . S
In130 O142 2.326 . S
O131 In130 2.294 . S
O131 C140 1.240 . S
O132 In130 2.326 . S
O132 C140 1.252 . S
C133 O136 1.252 . S
C133 O137 1.260 . S
C134 O141 1.240 . S
C134 O142 1.252 . S
C135 O138 1.252 . S
C135 O139 1.260 . S
O136 In130 2.266 . S
O136 C133 1.252 . S
O137 In130 2.326 . S
O137 C133 1.260 . S
O138 In130 2.266 . S
O138 C135 1.252 . S
O139 In130 2.326 . S
O139 C135 1.260 . S
C140 O131 1.240 . S
C140 O132 1.252 . S
O141 In130 2.294 . S
O141 C134 1.240 . S
O142 In130 2.326 . S
O142 C134 1.252 . S
In143 O144 2.294 . S
In143 O145 2.326 . S
In143 O149 2.266 . S
In143 O150 2.326 1_554 S
In143 O151 2.266 . S
In143 O152 2.326 . S
In143 O154 2.294 . S
In143 O155 2.326 1_554 S
O144 In143 2.294 . S
O144 C153 1.240 . S
O145 In143 2.326 . S
O145 C153 1.252 . S
C146 O149 1.252 1_556 S
C146 O150 1.260 . S
C147 O154 1.240 1_556 S
C147 O155 1.252 . S
C148 O151 1.252 . S
C148 O152 1.260 . S
O149 In143 2.266 . S
O149 C146 1.252 1_554 S
O150 In143 2.326 1_556 S
O150 C146 1.260 . S
O151 In143 2.266 . S
O151 C148 1.252 . S
O152 In143 2.326 . S
O152 C148 1.260 . S
C153 O144 1.240 . S
C153 O145 1.252 . S
O154 In143 2.294 . S
O154 C147 1.240 1_554 S
O155 In143 2.326 1_556 S
O155 C147 1.252 . S
In156 O157 2.294 1_554 S
In156 O158 2.326 . S
In156 O162 2.266 1_554 S
In156 O163 2.326 . S
In156 O164 2.266 . S
In156 O165 2.326 1_554 S
In156 O167 2.294 . S
In156 O168 2.327 . S
O157 In156 2.294 1_556 S
O157 C166 1.240 . S
O158 In156 2.326 . S
O158 C166 1.252 1_554 S
C159 O162 1.252 . S
C159 O163 1.260 1_556 S
C160 O167 1.240 . S
C160 O168 1.262 . S
C161 O164 1.252 . S
C161 O165 1.260 1_554 S
O162 In156 2.266 1_556 S
O162 C159 1.252 . S
O163 In156 2.326 . S
O163 C159 1.260 1_554 S
O164 In156 2.266 . S
O164 C161 1.252 . S
O165 In156 2.326 1_556 S
O165 C161 1.260 1_556 S
C166 O157 1.240 . S
C166 O158 1.252 1_556 S
O167 In156 2.294 . S
O167 C160 1.240 . S
O168 In156 2.327 . S
O168 C160 1.262 . S
In169 O170 2.294 . S
In169 O171 2.326 1_554 S
In169 O175 2.266 . S
In169 O176 2.326 1_554 S
In169 O177 2.266 1_554 S
In169 O178 2.326 . S
In169 O180 2.294 1_554 S
In169 O181 2.326 . S
O170 In169 2.294 . S
O170 C179 1.240 . S
O171 In169 2.326 1_556 S
O171 C179 1.252 1_556 S
C172 O175 1.252 . S
C172 O176 1.260 1_554 S
C173 O180 1.240 . S
C173 O181 1.252 1_556 S
C174 O177 1.252 . S
C174 O178 1.260 1_556 S
O175 In169 2.266 . S
O175 C172 1.252 . S
O176 In169 2.326 1_556 S
O176 C172 1.260 1_556 S
O177 In169 2.266 1_556 S
O177 C174 1.252 . S
O178 In169 2.326 . S
O178 C174 1.260 1_554 S
C179 O170 1.240 . S
C179 O171 1.252 1_554 S
O180 In169 2.294 1_556 S
O180 C173 1.240 . S
O181 In169 2.326 . S
O181 C173 1.252 1_554 S
In182 O183 2.294 . S
In182 O184 2.326 . S
In182 O188 2.266 . S
In182 O189 2.326 . S
In182 O190 2.266 . S
In182 O191 2.326 . S
In182 O193 2.294 . S
In182 O194 2.326 . S
O183 In182 2.294 . S
O183 C192 1.240 . S
O184 In182 2.326 . S
O184 C192 1.252 . S
C185 O188 1.252 . S
C185 O189 1.260 . S
C186 O193 1.240 . S
C186 O194 1.252 . S
C187 O190 1.252 . S
C187 O191 1.260 . S
O188 In182 2.266 . S
O188 C185 1.252 . S
O189 In182 2.326 . S
O189 C185 1.260 . S
O190 In182 2.266 . S
O190 C187 1.252 . S
O191 In182 2.326 . S
O191 C187 1.260 . S
C192 O183 1.240 . S
C192 O184 1.252 . S
O193 In182 2.294 . S
O193 C186 1.240 . S
O194 In182 2.326 . S
O194 C186 1.252 . S
In195 O196 2.294 . S
In195 O197 2.326 . S
In195 O201 2.266 . S
In195 O202 2.326 . S
In195 O203 2.266 . S
In195 O204 2.326 . S
In195 O206 2.294 . S
In195 O207 2.326 . S
O196 In195 2.294 . S
O196 C205 1.240 . S
O197 In195 2.326 . S
O197 C205 1.252 . S
C198 O201 1.252 . S
C198 O202 1.260 . S
C199 O206 1.240 . S
C199 O207 1.252 . S
C200 O203 1.252 . S
C200 O204 1.260 . S
O201 In195 2.266 . S
O201 C198 1.252 . S
O202 In195 2.326 . S
O202 C198 1.260 . S
O203 In195 2.266 . S
O203 C200 1.252 . S
O204 In195 2.326 . S
O204 C200 1.260 . S
C205 O196 1.240 . S
C205 O197 1.252 . S
O206 In195 2.294 . S
O206 C199 1.240 . S
O207 In195 2.326 . S
O207 C199 1.252 . S
In208 O209 2.294 1_545 S
In208 O210 2.326 1_545 S
In208 O214 2.266 . S
In208 O215 2.326 . S
In208 O216 2.266 1_545 S
In208 O217 2.326 1_545 S
In208 O219 2.294 . S
In208 O220 2.326 . S
O209 In208 2.294 1_565 S
O209 C218 1.240 . S
O210 In208 2.326 1_565 S
O210 C218 1.252 . S
C211 O214 1.252 . S
C211 O215 1.260 . S
C212 O219 1.240 . S
C212 O220 1.252 . S
C213 O216 1.252 . S
C213 O217 1.260 . S
O214 In208 2.266 . S
O214 C211 1.252 . S
O215 In208 2.326 . S
O215 C211 1.260 . S
O216 In208 2.266 1_565 S
O216 C213 1.252 . S
O217 In208 2.326 1_565 S
O217 C213 1.260 . S
C218 O209 1.240 . S
C218 O210 1.252 . S
O219 In208 2.294 . S
O219 C212 1.240 . S
O220 In208 2.326 . S
O220 C212 1.252 . S
In221 O222 2.294 . S
In221 O223 2.326 . S
In221 O227 2.266 . S
In221 O228 2.326 . S
In221 O229 2.266 . S
In221 O230 2.326 . S
In221 O232 2.294 . S
In221 O233 2.326 . S
O222 In221 2.294 . S
O222 C231 1.240 . S
O223 In221 2.326 . S
O223 C231 1.252 . S
C224 O227 1.252 . S
C224 O228 1.260 . S
C225 O232 1.240 . S
C225 O233 1.252 . S
C226 O229 1.252 . S
C226 O230 1.260 . S
O227 In221 2.266 . S
O227 C224 1.252 . S
O228 In221 2.326 . S
O228 C224 1.260 . S
O229 In221 2.266 . S
O229 C226 1.252 . S
O230 In221 2.326 . S
O230 C226 1.260 . S
C231 O222 1.240 . S
C231 O223 1.252 . S
O232 In221 2.294 . S
O232 C225 1.240 . S
O233 In221 2.326 . S
O233 C225 1.252 . S
In234 O235 2.294 . S
In234 O236 2.326 . S
In234 O240 2.266 . S
In234 O241 2.326 . S
In234 O242 2.266 . S
In234 O243 2.326 . S
In234 O245 2.294 . S
In234 O246 2.326 . S
O235 In234 2.294 . S
O235 C244 1.240 . S
O236 In234 2.326 . S
O236 C244 1.252 . S
C237 O240 1.252 . S
C237 O241 1.260 . S
C238 O245 1.240 . S
C238 O246 1.252 . S
C239 O242 1.252 . S
C239 O243 1.260 . S
O240 In234 2.266 . S
O240 C237 1.252 . S
O241 In234 2.326 . S
O241 C237 1.260 . S
O242 In234 2.266 . S
O242 C239 1.252 . S
O243 In234 2.326 . S
O243 C239 1.260 . S
C244 O235 1.240 . S
C244 O236 1.252 . S
O245 In234 2.294 . S
O245 C238 1.240 . S
O246 In234 2.326 . S
O246 C238 1.252 . S
In247 O248 2.294 . S
In247 O249 2.326 . S
In247 O253 2.266 . S
In247 O254 2.326 . S
In247 O255 2.266 . S
In247 O256 2.326 . S
In247 O258 2.294 . S
In247 O259 2.326 . S
O248 In247 2.294 . S
O248 C257 1.240 . S
O249 In247 2.326 . S
O249 C257 1.252 . S
C250 O253 1.252 . S
C250 O254 1.260 . S
C251 O258 1.240 . S
C251 O259 1.252 . S
C252 O255 1.252 . S
C252 O256 1.260 . S
O253 In247 2.266 . S
O253 C250 1.252 . S
O254 In247 2.326 . S
O254 C250 1.260 . S
O255 In247 2.266 . S
O255 C252 1.252 . S
O256 In247 2.326 . S
O256 C252 1.260 . S
C257 O248 1.240 . S
C257 O249 1.252 . S
O258 In247 2.294 . S
O258 C251 1.240 . S
O259 In247 2.326 . S
O259 C251 1.252 . S
In260 O261 2.294 . S
In260 O262 2.326 . S
In260 O266 2.266 1_554 S
In260 O267 2.326 1_554 S
In260 O268 2.266 . S
In260 O269 2.326 . S
In260 O271 2.294 1_554 S
In260 O272 2.326 1_554 S
O261 In260 2.294 . S
O261 C270 1.240 . S
O262 In260 2.326 . S
O262 C270 1.252 . S
C263 O266 1.252 . S
C263 O267 1.260 . S
C264 O271 1.240 . S
C264 O272 1.252 . S
C265 O268 1.252 . S
C265 O269 1.260 . S
O266 In260 2.266 1_556 S
O266 C263 1.252 . S
O267 In260 2.326 1_556 S
O267 C263 1.260 . S
O268 In260 2.266 . S
O268 C265 1.252 . S
O269 In260 2.326 . S
O269 C265 1.260 . S
C270 O261 1.240 . S
C270 O262 1.252 . S
O271 In260 2.294 1_556 S
O271 C264 1.240 . S
O272 In260 2.326 1_556 S
O272 C264 1.252 . S
In273 O274 2.294 . S
In273 O275 2.326 . S
In273 O279 2.266 . S
In273 O280 2.326 . S
In273 O281 2.266 . S
In273 O282 2.326 . S
In273 O284 2.294 . S
In273 O285 2.326 . S
O274 In273 2.294 . S
O274 C283 1.240 . S
O275 In273 2.326 . S
O275 C283 1.252 . S
C276 O279 1.252 . S
C276 O280 1.260 . S
C277 O284 1.240 . S
C277 O285 1.252 . S
C278 O281 1.252 . S
C278 O282 1.260 . S
O279 In273 2.266 . S
O279 C276 1.252 . S
O280 In273 2.326 . S
O280 C276 1.260 . S
O281 In273 2.266 . S
O281 C278 1.252 . S
O282 In273 2.326 . S
O282 C278 1.260 . S
C283 O274 1.240 . S
C283 O275 1.252 . S
O284 In273 2.294 . S
O284 C277 1.240 . S
O285 In273 2.326 . S
O285 C277 1.252 . S
In286 O287 2.294 . S
In286 O288 2.326 . S
In286 O292 2.266 . S
In286 O293 2.326 . S
In286 O294 2.266 . S
In286 O295 2.326 . S
In286 O297 2.294 . S
In286 O298 2.326 . S
O287 In286 2.294 . S
O287 C296 1.240 . S
O288 In286 2.326 . S
O288 C296 1.252 . S
C289 O292 1.252 . S
C289 O293 1.260 . S
C290 O297 1.240 . S
C290 O298 1.252 . S
C291 O294 1.252 . S
C291 O295 1.260 . S
O292 In286 2.266 . S
O292 C289 1.252 . S
O293 In286 2.326 . S
O293 C289 1.260 . S
O294 In286 2.266 . S
O294 C291 1.252 . S
O295 In286 2.326 . S
O295 C291 1.260 . S
C296 O287 1.240 . S
C296 O288 1.252 . S
O297 In286 2.294 . S
O297 C290 1.240 . S
O298 In286 2.326 . S
O298 C290 1.252 . S
In299 O300 2.294 . S
In299 O301 2.326 . S
In299 O305 2.266 . S
In299 O306 2.326 . S
In299 O307 2.266 . S
In299 O308 2.326 . S
In299 O310 2.294 . S
In299 O311 2.326 . S
O300 In299 2.294 . S
O300 C309 1.240 . S
O301 In299 2.326 . S
O301 C309 1.252 . S
C302 O305 1.252 . S
C302 O306 1.260 . S
C303 O310 1.240 . S
C303 O311 1.252 . S
C304 O307 1.252 . S
C304 O308 1.260 . S
O305 In299 2.266 . S
O305 C302 1.252 . S
O306 In299 2.326 . S
O306 C302 1.260 . S
O307 In299 2.266 . S
O307 C304 1.252 . S
O308 In299 2.326 . S
O308 C304 1.260 . S
C309 O300 1.240 . S
C309 O301 1.252 . S
O310 In299 2.294 . S
O310 C303 1.240 . S
O311 In299 2.326 . S
O311 C303 1.252 . S
O312 Mn313 2.163 . S
O312 C326 1.244 . S
Mn313 O312 2.163 . S
Mn313 O316 2.160 . S
Mn313 O317 2.221 . S
Mn313 O319 2.163 . S
Mn313 O321 2.160 . S
Mn313 O331 2.221 . S
O314 Mn315 2.087 . S
O314 C326 1.256 . S
Mn315 O314 2.087 . S
Mn315 O322 2.089 . S
Mn315 O331 2.290 . S
Mn315 O332 2.251 . S
O316 Mn313 2.160 . S
O316 C327 1.239 . S
O317 Mn313 2.221 . S
O317 Mn318 2.290 . S
O317 C328 1.278 . S
Mn318 O317 2.290 . S
Mn318 O320 2.089 . S
Mn318 O323 2.251 . S
Mn318 O324 2.087 . S
O319 Mn313 2.163 . S
O319 C329 1.244 . S
O320 Mn318 2.089 . S
O320 C327 1.256 . S
O321 Mn313 2.160 . S
O321 C330 1.239 . S
O322 Mn315 2.089 . S
O322 C330 1.256 . S
O323 Mn318 2.251 . S
O323 C328 1.241 . S
O324 Mn318 2.087 . S
O324 C329 1.256 . S
C325 O331 1.278 . S
C325 O332 1.241 . S
C326 O312 1.244 . S
C326 O314 1.256 . S
C327 O316 1.239 . S
C327 O320 1.256 . S
C328 O317 1.278 . S
C328 O323 1.241 . S
C329 O319 1.244 . S
C329 O324 1.256 . S
C330 O321 1.239 . S
C330 O322 1.256 . S
O331 Mn313 2.221 . S
O331 Mn315 2.290 . S
O331 C325 1.278 . S
O332 Mn315 2.251 . S
O332 C325 1.241 . S
O333 Mn334 2.163 . S
O333 C347 1.244 . S
Mn334 O333 2.163 . S
Mn334 O337 2.160 . S
Mn334 O338 2.221 . S
Mn334 O340 2.163 . S
Mn334 O342 2.160 . S
Mn334 O352 2.221 . S
O335 Mn336 2.087 . S
O335 C347 1.256 . S
Mn336 O335 2.087 . S
Mn336 O343 2.089 . S
Mn336 O352 2.290 . S
Mn336 O353 2.251 . S
O337 Mn334 2.160 . S
O337 C348 1.239 . S
O338 Mn334 2.221 . S
O338 Mn339 2.290 . S
O338 C349 1.278 . S
Mn339 O338 2.290 . S
Mn339 O341 2.089 . S
Mn339 O344 2.251 . S
Mn339 O345 2.087 . S
O340 Mn334 2.163 . S
O340 C350 1.244 . S
O341 Mn339 2.089 . S
O341 C348 1.256 . S
O342 Mn334 2.160 . S
O342 C351 1.239 . S
O343 Mn336 2.089 . S
O343 C351 1.256 . S
O344 Mn339 2.251 . S
O344 C349 1.241 . S
O345 Mn339 2.087 . S
O345 C350 1.256 . S
C346 O352 1.278 . S
C346 O353 1.241 . S
C347 O333 1.244 . S
C347 O335 1.256 . S
C348 O337 1.239 . S
C348 O341 1.256 . S
C349 O338 1.278 . S
C349 O344 1.241 . S
C350 O340 1.244 . S
C350 O345 1.256 . S
C351 O342 1.239 . S
C351 O343 1.256 . S
O352 Mn334 2.221 . S
O352 Mn336 2.290 . S
O352 C346 1.278 . S
O353 Mn336 2.251 . S
O353 C346 1.241 . S
O354 Mn355 2.163 . S
O354 C368 1.244 . S
Mn355 O354 2.163 . S
Mn355 O358 2.160 . S
Mn355 O359 2.221 . S
Mn355 O361 2.163 . S
Mn355 O363 2.160 . S
Mn355 O373 2.221 . S
O356 Mn357 2.087 . S
O356 C368 1.256 . S
Mn357 O356 2.087 . S
Mn357 O364 2.089 . S
Mn357 O373 2.290 . S
Mn357 O374 2.251 . S
O358 Mn355 2.160 . S
O358 C369 1.239 . S
O359 Mn355 2.221 . S
O359 Mn360 2.290 . S
O359 C370 1.278 . S
Mn360 O359 2.290 . S
Mn360 O362 2.089 . S
Mn360 O365 2.251 . S
Mn360 O366 2.087 . S
O361 Mn355 2.163 . S
O361 C371 1.244 . S
O362 Mn360 2.089 . S
O362 C369 1.256 . S
O363 Mn355 2.160 . S
O363 C372 1.239 . S
O364 Mn357 2.089 . S
O364 C372 1.256 . S
O365 Mn360 2.251 . S
O365 C370 1.241 . S
O366 Mn360 2.087 . S
O366 C371 1.256 . S
C367 O373 1.278 . S
C367 O374 1.241 . S
C368 O354 1.244 . S
C368 O356 1.256 . S
C369 O358 1.239 . S
C369 O362 1.256 . S
C370 O359 1.278 . S
C370 O365 1.241 . S
C371 O361 1.244 . S
C371 O366 1.256 . S
C372 O363 1.239 . S
C372 O364 1.256 . S
O373 Mn355 2.221 . S
O373 Mn357 2.290 . S
O373 C367 1.278 . S
O374 Mn357 2.251 . S
O374 C367 1.241 . S
O375 Mn376 2.163 . S
O375 C389 1.244 . S
Mn376 O375 2.163 . S
Mn376 O379 2.160 . S
Mn376 O380 2.221 . S
Mn376 O382 2.163 . S
Mn376 O384 2.160 . S
Mn376 O394 2.221 . S
O377 Mn378 2.087 . S
O377 C389 1.256 . S
Mn378 O377 2.087 . S
Mn378 O385 2.089 . S
Mn378 O394 2.290 . S
Mn378 O395 2.251 . S
O379 Mn376 2.160 . S
O379 C390 1.239 . S
O380 Mn376 2.221 . S
O380 Mn381 2.290 . S
O380 C391 1.278 . S
Mn381 O380 2.290 . S
Mn381 O383 2.089 . S
Mn381 O386 2.251 . S
Mn381 O387 2.087 . S
O382 Mn376 2.163 . S
O382 C392 1.244 . S
O383 Mn381 2.089 . S
O383 C390 1.256 . S
O384 Mn376 2.160 . S
O384 C393 1.239 . S
O385 Mn378 2.089 . S
O385 C393 1.256 . S
O386 Mn381 2.251 . S
O386 C391 1.241 . S
O387 Mn381 2.087 . S
O387 C392 1.256 . S
C388 O394 1.278 . S
C388 O395 1.241 . S
C389 O375 1.244 . S
C389 O377 1.256 . S
C390 O379 1.239 . S
C390 O383 1.256 . S
C391 O380 1.278 . S
C391 O386 1.241 . S
C392 O382 1.244 . S
C392 O387 1.256 . S
C393 O384 1.239 . S
C393 O385 1.256 . S
O394 Mn376 2.221 . S
O394 Mn378 2.290 . S
O394 C388 1.278 . S
O395 Mn378 2.251 . S
O395 C388 1.241 . S
O396 Mn397 2.163 . S
O396 C410 1.244 . S
Mn397 O396 2.163 . S
Mn397 O400 2.160 . S
Mn397 O401 2.221 . S
Mn397 O403 2.163 . S
Mn397 O405 2.160 . S
Mn397 O415 2.221 . S
O398 Mn399 2.087 . S
O398 C410 1.256 . S
Mn399 O398 2.087 . S
Mn399 O406 2.089 . S
Mn399 O415 2.290 . S
Mn399 O416 2.251 . S
O400 Mn397 2.160 . S
O400 C411 1.239 . S
O401 Mn397 2.221 . S
O401 Mn402 2.290 . S
O401 C412 1.278 . S
Mn402 O401 2.290 . S
Mn402 O404 2.089 . S
Mn402 O407 2.251 . S
Mn402 O408 2.087 . S
O403 Mn397 2.163 . S
O403 C413 1.244 . S
O404 Mn402 2.089 . S
O404 C411 1.256 . S
O405 Mn397 2.160 . S
O405 C414 1.239 . S
O406 Mn399 2.089 . S
O406 C414 1.256 . S
O407 Mn402 2.251 . S
O407 C412 1.241 . S
O408 Mn402 2.087 . S
O408 C413 1.256 . S
C409 O415 1.278 . S
C409 O416 1.241 . S
C410 O396 1.244 . S
C410 O398 1.256 . S
C411 O400 1.239 . S
C411 O404 1.256 . S
C412 O401 1.278 . S
C412 O407 1.241 . S
C413 O403 1.244 . S
C413 O408 1.256 . S
C414 O405 1.239 . S
C414 O406 1.256 . S
O415 Mn397 2.221 . S
O415 Mn399 2.290 . S
O415 C409 1.278 . S
O416 Mn399 2.251 . S
O416 C409 1.241 . S
O417 Mn418 2.163 . S
O417 C431 1.244 . S
Mn418 O417 2.163 . S
Mn418 O421 2.160 . S
Mn418 O422 2.221 . S
Mn418 O424 2.163 . S
Mn418 O426 2.160 . S
Mn418 O436 2.221 . S
O419 Mn420 2.087 . S
O419 C431 1.256 . S
Mn420 O419 2.087 . S
Mn420 O427 2.089 . S
Mn420 O436 2.290 . S
Mn420 O437 2.251 . S
O421 Mn418 2.160 . S
O421 C432 1.239 . S
O422 Mn418 2.221 . S
O422 Mn423 2.290 . S
O422 C433 1.278 . S
Mn423 O422 2.290 . S
Mn423 O425 2.089 . S
Mn423 O428 2.251 . S
Mn423 O429 2.087 . S
O424 Mn418 2.163 . S
O424 C434 1.244 . S
O425 Mn423 2.089 . S
O425 C432 1.256 . S
O426 Mn418 2.160 . S
O426 C435 1.239 . S
O427 Mn420 2.089 . S
O427 C435 1.256 . S
O428 Mn423 2.251 . S
O428 C433 1.241 . S
O429 Mn423 2.087 . S
O429 C434 1.256 . S
C430 O436 1.278 . S
C430 O437 1.241 . S
C431 O417 1.244 . S
C431 O419 1.256 . S
C432 O421 1.239 . S
C432 O425 1.256 . S
C433 O422 1.278 . S
C433 O428 1.241 . S
C434 O424 1.244 . S
C434 O429 1.256 . S
C435 O426 1.239 . S
C435 O427 1.256 . S
O436 Mn418 2.221 . S
O436 Mn420 2.290 . S
O436 C430 1.278 . S
O437 Mn420 2.251 . S
O437 C430 1.241 . S
O438 Mn439 2.163 . S
O438 C452 1.244 . S
Mn439 O438 2.163 . S
Mn439 O442 2.160 . S
Mn439 O443 2.221 . S
Mn439 O445 2.163 . S
Mn439 O447 2.160 . S
Mn439 O457 2.221 . S
O440 Mn441 2.087 . S
O440 C452 1.256 . S
Mn441 O440 2.087 . S
Mn441 O448 2.089 . S
Mn441 O457 2.290 . S
Mn441 O458 2.251 . S
O442 Mn439 2.160 . S
O442 C453 1.239 . S
O443 Mn439 2.221 . S
O443 Mn444 2.290 . S
O443 C454 1.278 . S
Mn444 O443 2.290 . S
Mn444 O446 2.089 . S
Mn444 O449 2.251 . S
Mn444 O450 2.087 . S
O445 Mn439 2.163 . S
O445 C455 1.244 . S
O446 Mn444 2.089 . S
O446 C453 1.256 . S
O447 Mn439 2.160 . S
O447 C456 1.239 . S
O448 Mn441 2.089 . S
O448 C456 1.256 . S
O449 Mn444 2.251 . S
O449 C454 1.241 . S
O450 Mn444 2.087 . S
O450 C455 1.256 . S
C451 O457 1.278 . S
C451 O458 1.241 . S
C452 O438 1.244 . S
C452 O440 1.256 . S
C453 O442 1.239 . S
C453 O446 1.256 . S
C454 O443 1.278 . S
C454 O449 1.241 . S
C455 O445 1.244 . S
C455 O450 1.256 . S
C456 O447 1.239 . S
C456 O448 1.256 . S
O457 Mn439 2.221 . S
O457 Mn441 2.290 . S
O457 C451 1.278 . S
O458 Mn441 2.251 . S
O458 C451 1.241 . S
O459 Mn460 2.163 . S
O459 C473 1.244 . S
Mn460 O459 2.163 . S
Mn460 O463 2.160 . S
Mn460 O464 2.221 . S
Mn460 O466 2.163 . S
Mn460 O468 2.160 . S
Mn460 O478 2.221 . S
O461 Mn462 2.087 . S
O461 C473 1.256 . S
Mn462 O461 2.087 . S
Mn462 O469 2.089 . S
Mn462 O478 2.290 . S
Mn462 O479 2.251 . S
O463 Mn460 2.160 . S
O463 C474 1.239 . S
O464 Mn460 2.221 . S
O464 Mn465 2.290 . S
O464 C475 1.278 . S
Mn465 O464 2.290 . S
Mn465 O467 2.089 . S
Mn465 O470 2.251 . S
Mn465 O471 2.087 . S
O466 Mn460 2.163 . S
O466 C476 1.244 . S
O467 Mn465 2.089 . S
O467 C474 1.256 . S
O468 Mn460 2.160 . S
O468 C477 1.239 . S
O469 Mn462 2.089 . S
O469 C477 1.256 . S
O470 Mn465 2.251 . S
O470 C475 1.241 . S
O471 Mn465 2.087 . S
O471 C476 1.256 . S
C472 O478 1.278 . S
C472 O479 1.241 . S
C473 O459 1.244 . S
C473 O461 1.256 . S
C474 O463 1.239 . S
C474 O467 1.256 . S
C475 O464 1.278 . S
C475 O470 1.241 . S
C476 O466 1.244 . S
C476 O471 1.256 . S
C477 O468 1.239 . S
C477 O469 1.256 . S
O478 Mn460 2.221 . S
O478 Mn462 2.290 . S
O478 C472 1.278 . S
O479 Mn462 2.251 . S
O479 C472 1.241 . S
O480 Mn481 2.163 . S
O480 C494 1.244 . S
Mn481 O480 2.163 . S
Mn481 O484 2.160 . S
Mn481 O485 2.221 . S
Mn481 O487 2.163 . S
Mn481 O489 2.160 . S
Mn481 O499 2.221 . S
O482 Mn483 2.087 . S
O482 C494 1.256 . S
Mn483 O482 2.087 . S
Mn483 O490 2.089 . S
Mn483 O499 2.290 . S
Mn483 O500 2.251 . S
O484 Mn481 2.160 . S
O484 C495 1.239 . S
O485 Mn481 2.221 . S
O485 Mn486 2.290 . S
O485 C496 1.278 . S
Mn486 O485 2.290 . S
Mn486 O488 2.089 . S
Mn486 O491 2.251 . S
Mn486 O492 2.087 . S
O487 Mn481 2.163 . S
O487 C497 1.244 . S
O488 Mn486 2.089 . S
O488 C495 1.256 . S
O489 Mn481 2.160 . S
O489 C498 1.239 . S
O490 Mn483 2.089 . S
O490 C498 1.256 . S
O491 Mn486 2.251 . S
O491 C496 1.241 . S
O492 Mn486 2.087 . S
O492 C497 1.256 . S
C493 O499 1.278 . S
C493 O500 1.241 . S
C494 O480 1.244 . S
C494 O482 1.256 . S
C495 O484 1.239 . S
C495 O488 1.256 . S
C496 O485 1.278 . S
C496 O491 1.241 . S
C497 O487 1.244 . S
C497 O492 1.256 . S
C498 O489 1.239 . S
C498 O490 1.256 . S
O499 Mn481 2.221 . S
O499 Mn483 2.290 . S
O499 C493 1.278 . S
O500 Mn483 2.251 . S
O500 C493 1.241 . S
O501 Mn502 2.163 . S
O501 C515 1.244 . S
Mn502 O501 2.163 . S
Mn502 O505 2.160 . S
Mn502 O506 2.221 . S
Mn502 O508 2.163 . S
Mn502 O510 2.160 . S
Mn502 O520 2.221 . S
O503 Mn504 2.087 . S
O503 C515 1.256 . S
Mn504 O503 2.087 . S
Mn504 O511 2.089 . S
Mn504 O520 2.290 . S
Mn504 O521 2.251 . S
O505 Mn502 2.160 . S
O505 C516 1.239 . S
O506 Mn502 2.221 . S
O506 Mn507 2.290 . S
O506 C517 1.278 . S
Mn507 O506 2.290 . S
Mn507 O509 2.089 . S
Mn507 O512 2.251 . S
Mn507 O513 2.087 . S
O508 Mn502 2.163 . S
O508 C518 1.244 . S
O509 Mn507 2.089 . S
O509 C516 1.256 . S
O510 Mn502 2.160 . S
O510 C519 1.239 . S
O511 Mn504 2.089 . S
O511 C519 1.256 . S
O512 Mn507 2.251 . S
O512 C517 1.241 . S
O513 Mn507 2.087 . S
O513 C518 1.256 . S
C514 O520 1.278 . S
C514 O521 1.241 . S
C515 O501 1.244 . S
C515 O503 1.256 . S
C516 O505 1.239 . S
C516 O509 1.256 . S
C517 O506 1.278 . S
C517 O512 1.241 . S
C518 O508 1.244 . S
C518 O513 1.256 . S
C519 O510 1.239 . S
C519 O511 1.256 . S
O520 Mn502 2.221 . S
O520 Mn504 2.290 . S
O520 C514 1.278 . S
O521 Mn504 2.251 . S
O521 C514 1.241 . S
O522 Mn523 2.163 . S
O522 C536 1.244 . S
Mn523 O522 2.163 . S
Mn523 O526 2.160 . S
Mn523 O527 2.221 . S
Mn523 O529 2.163 . S
Mn523 O531 2.160 . S
Mn523 O541 2.221 . S
O524 Mn525 2.087 . S
O524 C536 1.256 . S
Mn525 O524 2.087 . S
Mn525 O532 2.089 . S
Mn525 O541 2.290 . S
Mn525 O542 2.251 . S
O526 Mn523 2.160 . S
O526 C537 1.239 . S
O527 Mn523 2.221 . S
O527 Mn528 2.290 . S
O527 C538 1.278 . S
Mn528 O527 2.290 . S
Mn528 O530 2.089 . S
Mn528 O533 2.251 . S
Mn528 O534 2.087 . S
O529 Mn523 2.163 . S
O529 C539 1.244 . S
O530 Mn528 2.089 . S
O530 C537 1.256 . S
O531 Mn523 2.160 . S
O531 C540 1.239 . S
O532 Mn525 2.089 . S
O532 C540 1.256 . S
O533 Mn528 2.251 . S
O533 C538 1.241 . S
O534 Mn528 2.087 . S
O534 C539 1.256 . S
C535 O541 1.278 . S
C535 O542 1.241 . S
C536 O522 1.244 . S
C536 O524 1.256 . S
C537 O526 1.239 . S
C537 O530 1.256 . S
C538 O527 1.278 . S
C538 O533 1.241 . S
C539 O529 1.244 . S
C539 O534 1.256 . S
C540 O531 1.239 . S
C540 O532 1.256 . S
O541 Mn523 2.221 . S
O541 Mn525 2.290 . S
O541 C535 1.278 . S
O542 Mn525 2.251 . S
O542 C535 1.241 . S
O543 Mn544 2.163 . S
O543 C557 1.244 . S
Mn544 O543 2.163 . S
Mn544 O547 2.160 . S
Mn544 O548 2.221 . S
Mn544 O550 2.163 . S
Mn544 O552 2.160 . S
Mn544 O562 2.221 . S
O545 Mn546 2.087 . S
O545 C557 1.256 . S
Mn546 O545 2.087 . S
Mn546 O553 2.089 . S
Mn546 O562 2.290 . S
Mn546 O563 2.251 . S
O547 Mn544 2.160 . S
O547 C558 1.239 . S
O548 Mn544 2.221 . S
O548 Mn549 2.290 . S
O548 C559 1.278 . S
Mn549 O548 2.290 . S
Mn549 O551 2.089 . S
Mn549 O554 2.251 . S
Mn549 O555 2.087 . S
O550 Mn544 2.163 . S
O550 C560 1.244 . S
O551 Mn549 2.089 . S
O551 C558 1.256 . S
O552 Mn544 2.160 . S
O552 C561 1.239 . S
O553 Mn546 2.089 . S
O553 C561 1.256 . S
O554 Mn549 2.251 . S
O554 C559 1.241 . S
O555 Mn549 2.087 . S
O555 C560 1.256 . S
C556 O562 1.278 . S
C556 O563 1.241 . S
C557 O543 1.244 . S
C557 O545 1.256 . S
C558 O547 1.239 . S
C558 O551 1.256 . S
C559 O548 1.278 . S
C559 O554 1.241 . S
C560 O550 1.244 . S
C560 O555 1.256 . S
C561 O552 1.239 . S
C561 O553 1.256 . S
O562 Mn544 2.221 . S
O562 Mn546 2.290 . S
O562 C556 1.278 . S
O563 Mn546 2.251 . S
O563 C556 1.241 . S
O564 Mn565 2.163 . S
O564 C578 1.244 . S
Mn565 O564 2.163 . S
Mn565 O568 2.160 . S
Mn565 O569 2.221 . S
Mn565 O571 2.163 . S
Mn565 O573 2.160 . S
Mn565 O583 2.221 . S
O566 Mn567 2.087 . S
O566 C578 1.256 . S
Mn567 O566 2.087 . S
Mn567 O574 2.089 . S
Mn567 O583 2.290 . S
Mn567 O584 2.251 . S
O568 Mn565 2.160 . S
O568 C579 1.239 . S
O569 Mn565 2.221 . S
O569 Mn570 2.290 . S
O569 C580 1.278 . S
Mn570 O569 2.290 . S
Mn570 O572 2.089 . S
Mn570 O575 2.251 . S
Mn570 O576 2.087 . S
O571 Mn565 2.163 . S
O571 C581 1.244 . S
O572 Mn570 2.089 . S
O572 C579 1.256 . S
O573 Mn565 2.160 . S
O573 C582 1.239 . S
O574 Mn567 2.089 . S
O574 C582 1.256 . S
O575 Mn570 2.251 . S
O575 C580 1.241 . S
O576 Mn570 2.087 . S
O576 C581 1.256 . S
C577 O583 1.278 . S
C577 O584 1.241 . S
C578 O564 1.244 . S
C578 O566 1.256 . S
C579 O568 1.239 . S
C579 O572 1.256 . S
C580 O569 1.278 . S
C580 O575 1.241 . S
C581 O571 1.244 . S
C581 O576 1.256 . S
C582 O573 1.239 . S
C582 O574 1.256 . S
O583 Mn565 2.221 . S
O583 Mn567 2.290 . S
O583 C577 1.278 . S
O584 Mn567 2.251 . S
O584 C577 1.241 . S
O585 Mn586 2.163 . S
O585 C599 1.244 . S
Mn586 O585 2.163 . S
Mn586 O589 2.160 . S
Mn586 O590 2.221 . S
Mn586 O592 2.163 . S
Mn586 O594 2.160 . S
Mn586 O604 2.221 . S
O587 Mn588 2.087 . S
O587 C599 1.256 . S
Mn588 O587 2.087 . S
Mn588 O595 2.089 . S
Mn588 O604 2.290 . S
Mn588 O605 2.251 . S
O589 Mn586 2.160 . S
O589 C600 1.239 . S
O590 Mn586 2.221 . S
O590 Mn591 2.290 . S
O590 C601 1.278 . S
Mn591 O590 2.290 . S
Mn591 O593 2.089 . S
Mn591 O596 2.251 . S
Mn591 O597 2.087 . S
O592 Mn586 2.163 . S
O592 C602 1.244 . S
O593 Mn591 2.089 . S
O593 C600 1.256 . S
O594 Mn586 2.160 . S
O594 C603 1.239 . S
O595 Mn588 2.089 . S
O595 C603 1.256 . S
O596 Mn591 2.251 . S
O596 C601 1.241 . S
O597 Mn591 2.087 . S
O597 C602 1.256 . S
C598 O604 1.278 . S
C598 O605 1.241 . S
C599 O585 1.244 . S
C599 O587 1.256 . S
C600 O589 1.239 . S
C600 O593 1.256 . S
C601 O590 1.278 . S
C601 O596 1.241 . S
C602 O592 1.244 . S
C602 O597 1.256 . S
C603 O594 1.239 . S
C603 O595 1.256 . S
O604 Mn586 2.221 . S
O604 Mn588 2.290 . S
O604 C598 1.278 . S
O605 Mn588 2.251 . S
O605 C598 1.241 . S
O606 Mn607 2.163 . S
O606 C620 1.244 . S
Mn607 O606 2.163 . S
Mn607 O610 2.160 . S
Mn607 O611 2.221 . S
Mn607 O613 2.163 . S
Mn607 O615 2.160 . S
Mn607 O625 2.221 . S
O608 Mn609 2.087 . S
O608 C620 1.256 . S
Mn609 O608 2.087 . S
Mn609 O616 2.089 . S
Mn609 O625 2.290 . S
Mn609 O626 2.251 . S
O610 Mn607 2.160 . S
O610 C621 1.239 . S
O611 Mn607 2.221 . S
O611 Mn612 2.290 . S
O611 C622 1.278 . S
Mn612 O611 2.290 . S
Mn612 O614 2.089 . S
Mn612 O617 2.251 . S
Mn612 O618 2.087 . S
O613 Mn607 2.163 . S
O613 C623 1.244 . S
O614 Mn612 2.089 . S
O614 C621 1.256 . S
O615 Mn607 2.160 . S
O615 C624 1.239 . S
O616 Mn609 2.089 . S
O616 C624 1.256 . S
O617 Mn612 2.251 . S
O617 C622 1.241 . S
O618 Mn612 2.087 . S
O618 C623 1.256 . S
C619 O625 1.278 . S
C619 O626 1.241 . S
C620 O606 1.244 . S
C620 O608 1.256 . S
C621 O610 1.239 . S
C621 O614 1.256 . S
C622 O611 1.278 . S
C622 O617 1.241 . S
C623 O613 1.244 . S
C623 O618 1.256 . S
C624 O615 1.239 . S
C624 O616 1.256 . S
O625 Mn607 2.221 . S
O625 Mn609 2.290 . S
O625 C619 1.278 . S
O626 Mn609 2.251 . S
O626 C619 1.241 . S
O627 Mn628 2.163 . S
O627 C641 1.244 . S
Mn628 O627 2.163 . S
Mn628 O631 2.160 . S
Mn628 O632 2.221 . S
Mn628 O634 2.163 . S
Mn628 O636 2.160 . S
Mn628 O646 2.221 . S
O629 Mn630 2.087 . S
O629 C641 1.256 . S
Mn630 O629 2.087 . S
Mn630 O637 2.089 . S
Mn630 O646 2.290 . S
Mn630 O647 2.251 . S
O631 Mn628 2.160 . S
O631 C642 1.239 . S
O632 Mn628 2.221 . S
O632 Mn633 2.290 . S
O632 C643 1.278 . S
Mn633 O632 2.290 . S
Mn633 O635 2.089 . S
Mn633 O638 2.251 . S
Mn633 O639 2.087 . S
O634 Mn628 2.163 . S
O634 C644 1.244 . S
O635 Mn633 2.089 . S
O635 C642 1.256 . S
O636 Mn628 2.160 . S
O636 C645 1.239 . S
O637 Mn630 2.089 . S
O637 C645 1.256 . S
O638 Mn633 2.251 . S
O638 C643 1.241 . S
O639 Mn633 2.087 . S
O639 C644 1.256 . S
C640 O646 1.278 . S
C640 O647 1.241 . S
C641 O627 1.244 . S
C641 O629 1.256 . S
C642 O631 1.239 . S
C642 O635 1.256 . S
C643 O632 1.278 . S
C643 O638 1.241 . S
C644 O634 1.244 . S
C644 O639 1.256 . S
C645 O636 1.239 . S
C645 O637 1.256 . S
O646 Mn628 2.221 . S
O646 Mn630 2.290 . S
O646 C640 1.278 . S
O647 Mn630 2.251 . S
O647 C640 1.241 . S
H648 C654 0.930 . S
H649 C658 0.930 . S
H650 C663 0.929 . S
H651 C661 0.929 . S
H652 C656 0.929 . S
H653 C662 0.929 . S
C654 H648 0.930 . S
C654 C655 1.367 . S
C654 C662 1.378 . S
C655 C654 1.367 . S
C655 C663 1.433 . S
C656 H652 0.929 . S
C656 C658 1.378 . S
C656 C660 1.350 . S
C657 C660 1.463 . S
C657 C662 1.350 . S
C657 N665 1.427 . S
C658 H649 0.930 . S
C658 C656 1.378 . S
C658 C659 1.367 . S
C659 C658 1.367 . S
C659 C661 1.433 . S
C660 C656 1.350 . S
C660 C657 1.463 . S
C660 N664 1.427 . S
C661 H651 0.929 . S
C661 C659 1.433 . S
C661 N664 1.384 . S
C662 H653 0.929 . S
C662 C654 1.378 . S
C662 C657 1.350 . S
C663 H650 0.929 . S
C663 C655 1.433 . S
C663 N665 1.384 . S
N664 C660 1.427 . S
N664 C661 1.384 . S
N665 C657 1.427 . S
N665 C663 1.384 . S
H666 C672 0.930 . S
H667 C676 0.930 . S
H668 C681 0.929 . S
H669 C679 0.929 . S
H670 C674 0.929 . S
H671 C680 0.929 . S
C672 H666 0.930 . S
C672 C673 1.367 . S
C672 C680 1.378 . S
C673 C672 1.367 . S
C673 C681 1.433 . S
C674 H670 0.929 . S
C674 C676 1.378 . S
C674 C678 1.350 . S
C675 C678 1.463 . S
C675 C680 1.350 . S
C675 N683 1.427 . S
C676 H667 0.930 . S
C676 C674 1.378 . S
C676 C677 1.367 . S
C677 C676 1.367 . S
C677 C679 1.433 . S
C678 C674 1.350 . S
C678 C675 1.463 . S
C678 N682 1.427 . S
C679 H669 0.929 . S
C679 C677 1.433 . S
C679 N682 1.384 . S
C680 H671 0.929 . S
C680 C672 1.378 . S
C680 C675 1.350 . S
C681 H668 0.929 . S
C681 C673 1.433 . S
C681 N683 1.384 . S
N682 C678 1.427 . S
N682 C679 1.384 . S
N683 C675 1.427 . S
N683 C681 1.384 . S
H684 C690 0.930 . S
H685 C694 0.930 . S
H686 C699 0.929 . S
H687 C697 0.929 . S
H688 C692 0.929 . S
H689 C698 0.929 . S
C690 H684 0.930 . S
C690 C691 1.367 . S
C690 C698 1.378 . S
C691 C690 1.367 . S
C691 C699 1.433 . S
C692 H688 0.929 . S
C692 C694 1.378 . S
C692 C696 1.350 . S
C693 C696 1.463 . S
C693 C698 1.350 . S
C693 N701 1.427 . S
C694 H685 0.930 . S
C694 C692 1.378 . S
C694 C695 1.367 . S
C695 C694 1.367 . S
C695 C697 1.433 . S
C696 C692 1.350 . S
C696 C693 1.463 . S
C696 N700 1.427 . S
C697 H687 0.929 . S
C697 C695 1.433 . S
C697 N700 1.384 . S
C698 H689 0.929 . S
C698 C690 1.378 . S
C698 C693 1.350 . S
C699 H686 0.929 . S
C699 C691 1.433 . S
C699 N701 1.384 . S
N700 C696 1.427 . S
N700 C697 1.384 . S
N701 C693 1.427 . S
N701 C699 1.384 . S
H702 C708 0.930 . S
H703 C712 0.930 . S
H704 C717 0.929 . S
H705 C715 0.929 . S
H706 C710 0.929 . S
H707 C716 0.929 . S
C708 H702 0.930 . S
C708 C709 1.367 . S
C708 C716 1.378 . S
C709 C708 1.367 . S
C709 C717 1.433 . S
C710 H706 0.929 . S
C710 C712 1.378 1_554 S
C710 C714 1.350 . S
C711 C714 1.463 . S
C711 C716 1.350 . S
C711 N719 1.427 . S
C712 H703 0.930 . S
C712 C710 1.378 1_556 S
C712 C713 1.367 . S
C713 C712 1.367 . S
C713 C715 1.433 . S
C714 C710 1.350 . S
C714 C711 1.463 . S
C714 N718 1.427 1_554 S
C715 H705 0.929 . S
C715 C713 1.433 . S
C715 N718 1.384 . S
C716 H707 0.929 . S
C716 C708 1.378 . S
C716 C711 1.350 . S
C717 H704 0.929 . S
C717 C709 1.433 . S
C717 N719 1.384 . S
N718 C714 1.427 1_556 S
N718 C715 1.384 . S
N719 C711 1.427 . S
N719 C717 1.384 . S
H720 C726 0.930 . S
H721 C730 0.930 . S
H722 C735 0.929 . S
H723 C733 0.929 . S
H724 C728 0.929 . S
H725 C734 0.929 . S
C726 H720 0.930 . S
C726 C727 1.367 . S
C726 C734 1.378 . S
C727 C726 1.367 . S
C727 C735 1.433 . S
C728 H724 0.929 . S
C728 C730 1.378 . S
C728 C732 1.350 . S
C729 C732 1.463 . S
C729 C734 1.350 . S
C729 N737 1.427 . S
C730 H721 0.930 . S
C730 C728 1.378 . S
C730 C731 1.367 . S
C731 C730 1.367 . S
C731 C733 1.433 . S
C732 C728 1.350 . S
C732 C729 1.463 . S
C732 N736 1.427 . S
C733 H723 0.929 . S
C733 C731 1.433 . S
C733 N736 1.384 . S
C734 H725 0.929 . S
C734 C726 1.378 . S
C734 C729 1.350 . S
C735 H722 0.929 . S
C735 C727 1.433 . S
C735 N737 1.384 . S
N736 C732 1.427 . S
N736 C733 1.384 . S
N737 C729 1.427 . S
N737 C735 1.384 . S
H738 C744 0.930 . S
H739 C748 0.930 . S
H740 C753 0.929 . S
H741 C751 0.929 . S
H742 C746 0.929 . S
H743 C752 0.929 . S
C744 H738 0.930 . S
C744 C745 1.367 . S
C744 C752 1.378 . S
C745 C744 1.367 . S
C745 C753 1.433 . S
C746 H742 0.929 . S
C746 C748 1.378 . S
C746 C750 1.350 . S
C747 C750 1.463 . S
C747 C752 1.350 . S
C747 N755 1.427 . S
C748 H739 0.930 . S
C748 C746 1.378 . S
C748 C749 1.367 . S
C749 C748 1.367 . S
C749 C751 1.433 . S
C750 C746 1.350 . S
C750 C747 1.463 . S
C750 N754 1.427 . S
C751 H741 0.929 . S
C751 C749 1.433 . S
C751 N754 1.384 . S
C752 H743 0.929 . S
C752 C744 1.378 . S
C752 C747 1.350 . S
C753 H740 0.929 . S
C753 C745 1.433 . S
C753 N755 1.384 . S
N754 C750 1.427 . S
N754 C751 1.384 . S
N755 C747 1.427 . S
N755 C753 1.384 . S
H756 C762 0.930 . S
H757 C766 0.930 . S
H758 C771 0.929 . S
H759 C769 0.929 . S
H760 C764 0.929 . S
H761 C770 0.929 . S
C762 H756 0.930 . S
C762 C763 1.367 . S
C762 C770 1.378 . S
C763 C762 1.367 . S
C763 C771 1.433 . S
C764 H760 0.929 . S
C764 C766 1.378 . S
C764 C768 1.350 . S
C765 C768 1.463 . S
C765 C770 1.350 . S
C765 N773 1.427 . S
C766 H757 0.930 . S
C766 C764 1.378 . S
C766 C767 1.367 . S
C767 C766 1.367 . S
C767 C769 1.433 . S
C768 C764 1.350 . S
C768 C765 1.463 . S
C768 N772 1.427 . S
C769 H759 0.929 . S
C769 C767 1.433 . S
C769 N772 1.384 . S
C770 H761 0.929 . S
C770 C762 1.378 . S
C770 C765 1.350 . S
C771 H758 0.929 . S
C771 C763 1.433 . S
C771 N773 1.384 . S
N772 C768 1.427 . S
N772 C769 1.384 . S
N773 C765 1.427 . S
N773 C771 1.384 . S
H774 C780 0.930 . S
H775 C784 0.930 . S
H776 C789 0.929 . S
H777 C787 0.929 . S
H778 C782 0.929 . S
H779 C788 0.929 . S
C780 H774 0.930 . S
C780 C781 1.367 . S
C780 C788 1.378 1_556 S
C781 C780 1.367 . S
C781 C789 1.433 . S
C782 H778 0.929 . S
C782 C784 1.378 . S
C782 C786 1.350 . S
C783 C786 1.463 . S
C783 C788 1.350 . S
C783 N791 1.427 1_554 S
C784 H775 0.930 . S
C784 C782 1.378 . S
C784 C785 1.367 . S
C785 C784 1.367 . S
C785 C787 1.433 . S
C786 C782 1.350 . S
C786 C783 1.463 . S
C786 N790 1.427 . S
C787 H777 0.929 . S
C787 C785 1.433 . S
C787 N790 1.384 . S
C788 H779 0.929 . S
C788 C780 1.378 1_554 S
C788 C783 1.350 . S
C789 H776 0.929 . S
C789 C781 1.433 . S
C789 N791 1.384 . S
N790 C786 1.427 . S
N790 C787 1.384 . S
N791 C783 1.427 1_556 S
N791 C789 1.384 . S
H792 C798 0.930 . S
H793 C802 0.930 . S
H794 C807 0.929 . S
H795 C805 0.929 . S
H796 C800 0.929 . S
H797 C806 0.929 . S
C798 H792 0.930 . S
C798 C799 1.367 . S
C798 C806 1.378 . S
C799 C798 1.367 . S
C799 C807 1.433 . S
C800 H796 0.929 . S
C800 C802 1.378 . S
C800 C804 1.350 . S
C801 C804 1.463 . S
C801 C806 1.350 . S
C801 N809 1.427 . S
C802 H793 0.930 . S
C802 C800 1.378 . S
C802 C803 1.367 . S
C803 C802 1.367 . S
C803 C805 1.433 . S
C804 C800 1.350 . S
C804 C801 1.463 . S
C804 N808 1.427 . S
C805 H795 0.929 . S
C805 C803 1.433 . S
C805 N808 1.384 . S
C806 H797 0.929 . S
C806 C798 1.378 . S
C806 C801 1.350 . S
C807 H794 0.929 . S
C807 C799 1.433 . S
C807 N809 1.384 . S
N808 C804 1.427 . S
N808 C805 1.384 . S
N809 C801 1.427 . S
N809 C807 1.384 . S
H810 C816 0.930 . S
H811 C820 0.930 . S
H812 C825 0.929 . S
H813 C823 0.929 . S
H814 C818 0.929 . S
H815 C824 0.929 . S
C816 H810 0.930 . S
C816 C817 1.367 . S
C816 C824 1.378 . S
C817 C816 1.367 . S
C817 C825 1.433 . S
C818 H814 0.929 . S
C818 C820 1.378 1_545 S
C818 C822 1.350 . S
C819 C822 1.463 . S
C819 C824 1.350 . S
C819 N827 1.427 . S
C820 H811 0.930 . S
C820 C818 1.378 1_565 S
C820 C821 1.367 . S
C821 C820 1.367 . S
C821 C823 1.433 . S
C822 C818 1.350 . S
C822 C819 1.463 . S
C822 N826 1.427 1_545 S
C823 H813 0.929 . S
C823 C821 1.433 . S
C823 N826 1.384 . S
C824 H815 0.929 . S
C824 C816 1.378 . S
C824 C819 1.350 . S
C825 H812 0.929 . S
C825 C817 1.433 . S
C825 N827 1.384 . S
N826 C822 1.427 1_565 S
N826 C823 1.384 . S
N827 C819 1.427 . S
N827 C825 1.384 . S
H828 C834 0.949 . S
H829 C838 0.930 . S
H830 C843 0.929 . S
H831 C841 0.929 . S
H832 C836 0.929 1_545 S
H833 C842 0.929 . S
C834 H828 0.949 . S
C834 C835 1.326 1_565 S
C834 C842 1.402 . S
C835 C834 1.326 1_545 S
C835 C843 1.433 . S
C836 H832 0.929 1_565 S
C836 C838 1.378 . S
C836 C840 1.350 . S
C837 C840 1.463 . S
C837 C842 1.350 . S
C837 N845 1.427 1_565 S
C838 H829 0.930 . S
C838 C836 1.378 . S
C838 C839 1.367 . S
C839 C838 1.367 . S
C839 C841 1.433 . S
C840 C836 1.350 . S
C840 C837 1.463 . S
C840 N844 1.427 . S
C841 H831 0.929 . S
C841 C839 1.433 . S
C841 N844 1.384 . S
C842 H833 0.929 . S
C842 C834 1.402 . S
C842 C837 1.350 . S
C843 H830 0.929 . S
C843 C835 1.433 . S
C843 N845 1.384 . S
N844 C840 1.427 . S
N844 C841 1.384 . S
N845 C837 1.427 1_545 S
N845 C843 1.384 . S
H846 C852 0.930 1_554 S
H847 C856 0.930 . S
H848 C861 0.929 . S
H849 C859 0.929 . S
H850 C854 0.929 . S
H851 C860 0.929 . S
C852 H846 0.930 1_556 S
C852 C853 1.367 . S
C852 C860 1.378 1_565 S
C853 C852 1.367 . S
C853 C861 1.433 . S
C854 H850 0.929 . S
C854 C856 1.378 . S
C854 C858 1.350 . S
C855 C858 1.463 . S
C855 C860 1.350 . S
C855 N863 1.427 . S
C856 H847 0.930 . S
C856 C854 1.378 . S
C856 C857 1.367 . S
C857 C856 1.367 . S
C857 C859 1.433 . S
C858 C854 1.350 . S
C858 C855 1.463 . S
C858 N862 1.427 . S
C859 H849 0.929 . S
C859 C857 1.433 . S
C859 N862 1.384 . S
C860 H851 0.929 . S
C860 C852 1.378 1_545 S
C860 C855 1.350 . S
C861 H848 0.929 . S
C861 C853 1.433 . S
C861 N863 1.384 1_565 S
N862 C858 1.427 . S
N862 C859 1.384 . S
N863 C855 1.427 . S
N863 C861 1.384 1_545 S
H864 C870 0.930 . S
H865 C874 0.930 . S
H866 C879 0.929 1_545 S
H867 C877 0.929 . S
H868 C872 0.929 . S
H869 C878 0.929 . S
C870 H864 0.930 . S
C870 C871 1.367 . S
C870 C878 1.378 . S
C871 C870 1.367 . S
C871 C879 1.433 . S
C872 H868 0.929 . S
C872 C874 1.378 . S
C872 C876 1.350 . S
C873 C876 1.463 . S
C873 C878 1.350 . S
C873 N881 1.427 . S
C874 H865 0.930 . S
C874 C872 1.378 . S
C874 C875 1.367 . S
C875 C874 1.367 . S
C875 C877 1.433 . S
C876 C872 1.350 . S
C876 C873 1.463 . S
C876 N880 1.427 . S
C877 H867 0.929 . S
C877 C875 1.433 . S
C877 N880 1.384 . S
C878 H869 0.929 . S
C878 C870 1.378 . S
C878 C873 1.350 . S
C879 H866 0.929 1_565 S
C879 C871 1.433 . S
C879 N881 1.384 . S
N880 C876 1.427 . S
N880 C877 1.384 . S
N881 C873 1.427 . S
N881 C879 1.384 . S
H882 C888 0.930 . S
H883 C892 0.930 . S
H884 C897 0.929 . S
H885 C895 0.929 . S
H886 C890 0.929 . S
H887 C896 0.929 . S
C888 H882 0.930 . S
C888 C889 1.367 . S
C888 C896 1.378 . S
C889 C888 1.367 . S
C889 C897 1.433 . S
C890 H886 0.929 . S
C890 C892 1.378 1_545 S
C890 C894 1.350 . S
C891 C894 1.463 . S
C891 C896 1.350 . S
C891 N899 1.427 . S
C892 H883 0.930 . S
C892 C890 1.378 1_565 S
C892 C893 1.367 . S
C893 C892 1.367 . S
C893 C895 1.433 . S
C894 C890 1.350 . S
C894 C891 1.463 . S
C894 N898 1.427 . S
C895 H885 0.929 . S
C895 C893 1.433 . S
C895 N898 1.384 1_565 S
C896 H887 0.929 . S
C896 C888 1.378 . S
C896 C891 1.350 . S
C897 H884 0.929 . S
C897 C889 1.433 . S
C897 N899 1.384 . S
N898 C894 1.427 . S
N898 C895 1.384 1_545 S
N899 C891 1.427 . S
N899 C897 1.384 . S
H900 C906 0.930 . S
H901 C910 0.930 . S
H902 C915 0.929 . S
H903 C913 0.929 . S
H904 C908 0.929 . S
H905 C914 0.929 . S
C906 H900 0.930 . S
C906 C907 1.367 . S
C906 C914 1.378 . S
C907 C906 1.367 . S
C907 C915 1.433 . S
C908 H904 0.929 . S
C908 C910 1.378 . S
C908 C912 1.350 . S
C909 C912 1.463 . S
C909 C914 1.350 . S
C909 N917 1.427 . S
C910 H901 0.930 . S
C910 C908 1.378 . S
C910 C911 1.367 . S
C911 C910 1.367 . S
C911 C913 1.433 . S
C912 C908 1.350 . S
C912 C909 1.463 . S
C912 N916 1.427 . S
C913 H903 0.929 . S
C913 C911 1.433 . S
C913 N916 1.384 . S
C914 H905 0.929 . S
C914 C906 1.378 . S
C914 C909 1.350 . S
C915 H902 0.929 . S
C915 C907 1.433 . S
C915 N917 1.384 . S
N916 C912 1.427 . S
N916 C913 1.384 . S
N917 C909 1.427 . S
N917 C915 1.384 . S
H918 C924 0.930 . S
H919 C928 0.930 . S
H920 C933 0.929 . S
H921 C931 0.929 . S
H922 C926 0.929 . S
H923 C932 0.929 . S
C924 H918 0.930 . S
C924 C925 1.367 . S
C924 C932 1.378 1_565 S
C925 C924 1.367 . S
C925 C933 1.433 . S
C926 H922 0.929 . S
C926 C928 1.378 . S
C926 C930 1.350 . S
C927 C930 1.463 . S
C927 C932 1.350 . S
C927 N935 1.427 1_545 S
C928 H919 0.930 . S
C928 C926 1.378 . S
C928 C929 1.367 . S
C929 C928 1.367 . S
C929 C931 1.433 . S
C930 C926 1.350 . S
C930 C927 1.463 . S
C930 N934 1.427 . S
C931 H921 0.929 . S
C931 C929 1.433 . S
C931 N934 1.384 . S
C932 H923 0.929 . S
C932 C924 1.378 1_545 S
C932 C927 1.350 . S
C933 H920 0.929 . S
C933 C925 1.433 . S
C933 N935 1.384 . S
N934 C930 1.427 . S
N934 C931 1.384 . S
N935 C927 1.427 1_565 S
N935 C933 1.384 . S
H936 C942 0.930 . S
H937 C946 0.930 . S
H938 C951 0.929 . S
H939 C949 0.929 . S
H940 C944 0.929 . S
H941 C950 0.929 . S
C942 H936 0.930 . S
C942 C943 1.367 . S
C942 C950 1.378 . S
C943 C942 1.367 . S
C943 C951 1.433 . S
C944 H940 0.929 . S
C944 C946 1.378 . S
C944 C948 1.350 . S
C945 C948 1.463 . S
C945 C950 1.350 . S
C945 N953 1.427 . S
C946 H937 0.930 . S
C946 C944 1.378 . S
C946 C947 1.367 . S
C947 C946 1.367 . S
C947 C949 1.433 . S
C948 C944 1.350 . S
C948 C945 1.463 . S
C948 N952 1.427 . S
C949 H939 0.929 . S
C949 C947 1.433 . S
C949 N952 1.384 . S
C950 H941 0.929 . S
C950 C942 1.378 . S
C950 C945 1.350 . S
C951 H938 0.929 . S
C951 C943 1.433 . S
C951 N953 1.384 . S
N952 C948 1.427 . S
N952 C949 1.384 . S
N953 C945 1.427 . S
N953 C951 1.384 . S
H954 C960 0.930 . S
H955 C964 0.930 . S
H956 C969 0.929 . S
H957 C967 0.929 . S
H958 C962 0.929 . S
H959 C968 0.929 . S
C960 H954 0.930 . S
C960 C961 1.367 . S
C960 C968 1.378 . S
C961 C960 1.367 . S
C961 C969 1.433 . S
C962 H958 0.929 . S
C962 C964 1.378 . S
C962 C966 1.350 . S
C963 C966 1.463 . S
C963 C968 1.350 . S
C963 N971 1.427 . S
C964 H955 0.930 . S
C964 C962 1.378 . S
C964 C965 1.367 . S
C965 C964 1.367 . S
C965 C967 1.433 . S
C966 C962 1.350 . S
C966 C963 1.463 . S
C966 N970 1.427 . S
C967 H957 0.929 . S
C967 C965 1.433 . S
C967 N970 1.384 . S
C968 H959 0.929 . S
C968 C960 1.378 . S
C968 C963 1.350 . S
C969 H956 0.929 . S
C969 C961 1.433 . S
C969 N971 1.384 . S
N970 C966 1.427 . S
N970 C967 1.384 . S
N971 C963 1.427 . S
N971 C969 1.384 . S
H972 C978 0.930 . S
H973 C982 0.930 . S
H974 C987 0.929 . S
H975 C985 0.929 . S
H976 C980 0.929 . S
H977 C986 0.929 . S
C978 H972 0.930 . S
C978 C979 1.367 . S
C978 C986 1.378 . S
C979 C978 1.367 . S
C979 C987 1.433 . S
C980 H976 0.929 . S
C980 C982 1.378 . S
C980 C984 1.350 1_655 S
C981 C984 1.463 . S
C981 C986 1.350 . S
C981 N989 1.427 . S
C982 H973 0.930 . S
C982 C980 1.378 . S
C982 C983 1.367 . S
C983 C982 1.367 . S
C983 C985 1.433 . S
C984 C980 1.350 1_455 S
C984 C981 1.463 . S
C984 N988 1.427 1_455 S
C985 H975 0.929 . S
C985 C983 1.433 . S
C985 N988 1.384 . S
C986 H977 0.929 . S
C986 C978 1.378 . S
C986 C981 1.350 . S
C987 H974 0.929 . S
C987 C979 1.433 . S
C987 N989 1.384 . S
N988 C984 1.427 1_655 S
N988 C985 1.384 . S
N989 C981 1.427 . S
N989 C987 1.384 . S
H990 C996 0.930 . S
H991 C1000 0.930 . S
H992 C1005 0.929 . S
H993 C1003 0.929 . S
H994 C998 0.929 . S
H995 C1004 0.929 . S
C996 H990 0.930 . S
C996 C997 1.367 . S
C996 C1004 1.378 . S
C997 C996 1.367 . S
C997 C1005 1.433 . S
C998 H994 0.929 . S
C998 C1000 1.378 . S
C998 C1002 1.350 . S
C999 C1002 1.463 . S
C999 C1004 1.350 . S
C999 N1007 1.427 . S
C1000 H991 0.930 . S
C1000 C998 1.378 . S
C1000 C1001 1.367 . S
C1001 C1000 1.367 . S
C1001 C1003 1.433 . S
C1002 C998 1.350 . S
C1002 C999 1.463 . S
C1002 N1006 1.427 . S
C1003 H993 0.929 . S
C1003 C1001 1.433 . S
C1003 N1006 1.384 . S
C1004 H995 0.929 . S
C1004 C996 1.378 . S
C1004 C999 1.350 . S
C1005 H992 0.929 . S
C1005 C997 1.433 . S
C1005 N1007 1.384 . S
N1006 C1002 1.427 . S
N1006 C1003 1.384 . S
N1007 C999 1.427 . S
N1007 C1005 1.384 . S
H1008 C1014 0.930 . S
H1009 C1018 0.930 . S
H1010 C1023 0.929 . S
H1011 C1021 0.929 . S
H1012 C1016 0.929 . S
H1013 C1022 0.929 . S
C1014 H1008 0.930 . S
C1014 C1015 1.367 . S
C1014 C1022 1.378 . S
C1015 C1014 1.367 . S
C1015 C1023 1.433 . S
C1016 H1012 0.929 . S
C1016 C1018 1.378 . S
C1016 C1020 1.350 . S
C1017 C1020 1.463 1_655 S
C1017 C1022 1.350 . S
C1017 N1025 1.427 . S
C1018 H1009 0.930 . S
C1018 C1016 1.378 . S
C1018 C1019 1.367 . S
C1019 C1018 1.367 . S
C1019 C1021 1.433 . S
C1020 C1016 1.350 . S
C1020 C1017 1.463 1_455 S
C1020 N1024 1.427 . S
C1021 H1011 0.929 . S
C1021 C1019 1.433 . S
C1021 N1024 1.384 . S
C1022 H1013 0.929 . S
C1022 C1014 1.378 . S
C1022 C1017 1.350 . S
C1023 H1010 0.929 . S
C1023 C1015 1.433 . S
C1023 N1025 1.384 . S
N1024 C1020 1.427 . S
N1024 C1021 1.384 . S
N1025 C1017 1.427 . S
N1025 C1023 1.384 . S
H1026 C1032 0.930 . S
H1027 C1036 0.930 . S
H1028 C1041 0.929 . S
H1029 C1039 0.929 . S
H1030 C1034 0.929 . S
H1031 C1040 0.929 . S
C1032 H1026 0.930 . S
C1032 C1033 1.367 . S
C1032 C1040 1.378 . S
C1033 C1032 1.367 . S
C1033 C1041 1.433 . S
C1034 H1030 0.929 . S
C1034 C1036 1.378 . S
C1034 C1038 1.350 . S
C1035 C1038 1.463 . S
C1035 C1040 1.350 . S
C1035 N1043 1.427 . S
C1036 H1027 0.930 . S
C1036 C1034 1.378 . S
C1036 C1037 1.367 . S
C1037 C1036 1.367 . S
C1037 C1039 1.433 . S
C1038 C1034 1.350 . S
C1038 C1035 1.463 . S
C1038 N1042 1.427 . S
C1039 H1029 0.929 . S
C1039 C1037 1.433 . S
C1039 N1042 1.384 . S
C1040 H1031 0.929 . S
C1040 C1032 1.378 . S
C1040 C1035 1.350 . S
C1041 H1028 0.929 . S
C1041 C1033 1.433 . S
C1041 N1043 1.384 . S
N1042 C1038 1.427 . S
N1042 C1039 1.384 . S
N1043 C1035 1.427 . S
N1043 C1041 1.384 . S
H1044 C1050 0.930 . S
H1045 C1054 0.930 . S
H1046 C1059 0.929 . S
H1047 C1057 0.929 . S
H1048 C1052 0.929 . S
H1049 C1058 0.929 . S
C1050 H1044 0.930 . S
C1050 C1051 1.367 . S
C1050 C1058 1.378 . S
C1051 C1050 1.367 . S
C1051 C1059 1.433 . S
C1052 H1048 0.929 . S
C1052 C1054 1.378 . S
C1052 C1056 1.350 . S
C1053 C1056 1.463 1_455 S
C1053 C1058 1.350 . S
C1053 N1061 1.427 . S
C1054 H1045 0.930 . S
C1054 C1052 1.378 . S
C1054 C1055 1.367 . S
C1055 C1054 1.367 . S
C1055 C1057 1.433 . S
C1056 C1052 1.350 . S
C1056 C1053 1.463 1_655 S
C1056 N1060 1.427 . S
C1057 H1047 0.929 . S
C1057 C1055 1.433 . S
C1057 N1060 1.384 . S
C1058 H1049 0.929 . S
C1058 C1050 1.378 . S
C1058 C1053 1.350 . S
C1059 H1046 0.929 . S
C1059 C1051 1.433 . S
C1059 N1061 1.384 . S
N1060 C1056 1.427 . S
N1060 C1057 1.384 . S
N1061 C1053 1.427 . S
N1061 C1059 1.384 . S
H1062 C1068 0.930 . S
H1063 C1072 0.930 . S
H1064 C1077 0.929 . S
H1065 C1075 0.929 . S
H1066 C1070 0.929 . S
H1067 C1076 0.929 . S
C1068 H1062 0.930 . S
C1068 C1069 1.367 . S
C1068 C1076 1.378 . S
C1069 C1068 1.367 . S
C1069 C1077 1.433 . S
C1070 H1066 0.929 . S
C1070 C1072 1.378 . S
C1070 C1074 1.350 . S
C1071 C1074 1.463 . S
C1071 C1076 1.350 . S
C1071 N1079 1.427 . S
C1072 H1063 0.930 . S
C1072 C1070 1.378 . S
C1072 C1073 1.367 . S
C1073 C1072 1.367 . S
C1073 C1075 1.433 . S
C1074 C1070 1.350 . S
C1074 C1071 1.463 . S
C1074 N1078 1.427 . S
C1075 H1065 0.929 . S
C1075 C1073 1.433 . S
C1075 N1078 1.384 . S
C1076 H1067 0.929 . S
C1076 C1068 1.378 . S
C1076 C1071 1.350 . S
C1077 H1064 0.929 . S
C1077 C1069 1.433 . S
C1077 N1079 1.384 . S
N1078 C1074 1.427 . S
N1078 C1075 1.384 . S
N1079 C1071 1.427 . S
N1079 C1077 1.384 . S
H1080 C1086 0.930 . S
H1081 C1090 0.930 . S
H1082 C1095 0.929 . S
H1083 C1093 0.929 . S
H1084 C1088 0.929 . S
H1085 C1094 0.929 . S
C1086 H1080 0.930 . S
C1086 C1087 1.367 . S
C1086 C1094 1.378 . S
C1087 C1086 1.367 . S
C1087 C1095 1.433 . S
C1088 H1084 0.929 . S
C1088 C1090 1.378 . S
C1088 C1092 1.350 . S
C1089 C1092 1.463 . S
C1089 C1094 1.350 . S
C1089 N1097 1.427 . S
C1090 H1081 0.930 . S
C1090 C1088 1.378 . S
C1090 C1091 1.367 . S
C1091 C1090 1.367 . S
C1091 C1093 1.433 . S
C1092 C1088 1.350 . S
C1092 C1089 1.463 . S
C1092 N1096 1.427 . S
C1093 H1083 0.929 . S
C1093 C1091 1.433 . S
C1093 N1096 1.384 . S
C1094 H1085 0.929 . S
C1094 C1086 1.378 . S
C1094 C1089 1.350 . S
C1095 H1082 0.929 . S
C1095 C1087 1.433 . S
C1095 N1097 1.384 . S
N1096 C1092 1.427 . S
N1096 C1093 1.384 . S
N1097 C1089 1.427 . S
N1097 C1095 1.384 . S
H1098 C1104 0.930 1_455 S
H1099 C1108 0.930 . S
H1100 C1113 0.929 . S
H1101 C1111 0.929 . S
H1102 C1106 0.929 . S
H1103 C1112 0.929 . S
C1104 H1098 0.930 1_655 S
C1104 C1105 1.367 . S
C1104 C1112 1.378 . S
C1105 C1104 1.367 . S
C1105 C1113 1.433 . S
C1106 H1102 0.929 . S
C1106 C1108 1.378 . S
C1106 C1110 1.350 . S
C1107 C1110 1.463 . S
C1107 C1112 1.350 . S
C1107 N1115 1.427 . S
C1108 H1099 0.930 . S
C1108 C1106 1.378 . S
C1108 C1109 1.367 . S
C1109 C1108 1.367 . S
C1109 C1111 1.433 . S
C1110 C1106 1.350 . S
C1110 C1107 1.463 . S
C1110 N1114 1.427 . S
C1111 H1101 0.929 . S
C1111 C1109 1.433 . S
C1111 N1114 1.384 . S
C1112 H1103 0.929 . S
C1112 C1104 1.378 . S
C1112 C1107 1.350 . S
C1113 H1100 0.929 . S
C1113 C1105 1.433 . S
C1113 N1115 1.384 . S
N1114 C1110 1.427 . S
N1114 C1111 1.384 . S
N1115 C1107 1.427 . S
N1115 C1113 1.384 . S
H1116 C1122 0.930 . S
H1117 C1126 0.930 . S
H1118 C1131 0.929 . S
H1119 C1129 0.929 . S
H1120 C1124 0.929 . S
H1121 C1130 0.929 . S
C1122 H1116 0.930 . S
C1122 C1123 1.367 . S
C1122 C1130 1.378 . S
C1123 C1122 1.367 . S
C1123 C1131 1.433 . S
C1124 H1120 0.929 . S
C1124 C1126 1.378 . S
C1124 C1128 1.350 . S
C1125 C1128 1.463 . S
C1125 C1130 1.350 . S
C1125 N1133 1.427 . S
C1126 H1117 0.930 . S
C1126 C1124 1.378 . S
C1126 C1127 1.367 . S
C1127 C1126 1.367 . S
C1127 C1129 1.433 . S
C1128 C1124 1.350 . S
C1128 C1125 1.463 . S
C1128 N1132 1.427 . S
C1129 H1119 0.929 . S
C1129 C1127 1.433 . S
C1129 N1132 1.384 . S
C1130 H1121 0.929 . S
C1130 C1122 1.378 . S
C1130 C1125 1.350 . S
C1131 H1118 0.929 . S
C1131 C1123 1.433 . S
C1131 N1133 1.384 . S
N1132 C1128 1.427 . S
N1132 C1129 1.384 . S
N1133 C1125 1.427 . S
N1133 C1131 1.384 . S
H1134 C1140 0.930 . S
H1135 C1144 0.930 . S
H1136 C1149 0.929 . S
H1137 C1147 0.929 . S
H1138 C1142 0.929 . S
H1139 C1148 0.929 . S
C1140 H1134 0.930 . S
C1140 C1141 1.367 . S
C1140 C1148 1.378 . S
C1141 C1140 1.367 . S
C1141 C1149 1.433 . S
C1142 H1138 0.929 . S
C1142 C1144 1.378 . S
C1142 C1146 1.350 . S
C1143 C1146 1.463 1_556 S
C1143 C1148 1.350 . S
C1143 N1151 1.427 . S
C1144 H1135 0.930 . S
C1144 C1142 1.378 . S
C1144 C1145 1.367 . S
C1145 C1144 1.367 . S
C1145 C1147 1.433 . S
C1146 C1142 1.350 . S
C1146 C1143 1.463 1_554 S
C1146 N1150 1.427 . S
C1147 H1137 0.929 . S
C1147 C1145 1.433 . S
C1147 N1150 1.384 . S
C1148 H1139 0.929 . S
C1148 C1140 1.378 . S
C1148 C1143 1.350 . S
C1149 H1136 0.929 . S
C1149 C1141 1.433 . S
C1149 N1151 1.384 . S
N1150 C1146 1.427 . S
N1150 C1147 1.384 . S
N1151 C1143 1.427 . S
N1151 C1149 1.384 . S
H1152 C1158 0.930 . S
H1153 C1162 0.930 . S
H1154 C1167 0.929 1_455 S
H1155 C1165 0.929 . S
H1156 C1160 0.929 . S
H1157 C1166 0.929 . S
C1158 H1152 0.930 . S
C1158 C1159 1.367 . S
C1158 C1166 1.378 . S
C1159 C1158 1.367 . S
C1159 C1167 1.433 . S
C1160 H1156 0.929 . S
C1160 C1162 1.378 . S
C1160 C1164 1.350 . S
C1161 C1164 1.463 . S
C1161 C1166 1.350 . S
C1161 N1169 1.427 . S
C1162 H1153 0.930 . S
C1162 C1160 1.378 . S
C1162 C1163 1.367 . S
C1163 C1162 1.367 . S
C1163 C1165 1.433 . S
C1164 C1160 1.350 . S
C1164 C1161 1.463 . S
C1164 N1168 1.427 . S
C1165 H1155 0.929 . S
C1165 C1163 1.433 . S
C1165 N1168 1.384 . S
C1166 H1157 0.929 . S
C1166 C1158 1.378 . S
C1166 C1161 1.350 . S
C1167 H1154 0.929 1_655 S
C1167 C1159 1.433 . S
C1167 N1169 1.384 . S
N1168 C1164 1.427 . S
N1168 C1165 1.384 . S
N1169 C1161 1.427 . S
N1169 C1167 1.384 . S
H1170 C1176 0.930 . S
H1171 C1180 0.930 . S
H1172 C1185 0.929 . S
H1173 C1183 0.929 . S
H1174 C1178 0.929 . S
H1175 C1184 0.929 . S
C1176 H1170 0.930 . S
C1176 C1177 1.367 . S
C1176 C1184 1.378 . S
C1177 C1176 1.367 . S
C1177 C1185 1.433 . S
C1178 H1174 0.929 . S
C1178 C1180 1.378 . S
C1178 C1182 1.350 . S
C1179 C1182 1.463 . S
C1179 C1184 1.350 . S
C1179 N1187 1.427 . S
C1180 H1171 0.930 . S
C1180 C1178 1.378 . S
C1180 C1181 1.367 . S
C1181 C1180 1.367 . S
C1181 C1183 1.433 . S
C1182 C1178 1.350 . S
C1182 C1179 1.463 . S
C1182 N1186 1.427 . S
C1183 H1173 0.929 . S
C1183 C1181 1.433 . S
C1183 N1186 1.384 . S
C1184 H1175 0.929 . S
C1184 C1176 1.378 . S
C1184 C1179 1.350 . S
C1185 H1172 0.929 . S
C1185 C1177 1.433 . S
C1185 N1187 1.384 . S
N1186 C1182 1.427 . S
N1186 C1183 1.384 . S
N1187 C1179 1.427 . S
N1187 C1185 1.384 . S
H1188 C1194 0.930 . S
H1189 C1198 0.930 . S
H1190 C1203 0.929 . S
H1191 C1201 0.929 . S
H1192 C1196 0.929 . S
H1193 C1202 0.929 . S
C1194 H1188 0.930 . S
C1194 C1195 1.367 . S
C1194 C1202 1.378 . S
C1195 C1194 1.367 . S
C1195 C1203 1.433 . S
C1196 H1192 0.929 . S
C1196 C1198 1.378 . S
C1196 C1200 1.350 . S
C1197 C1200 1.463 . S
C1197 C1202 1.350 . S
C1197 N1205 1.427 . S
C1198 H1189 0.930 . S
C1198 C1196 1.378 . S
C1198 C1199 1.367 . S
C1199 C1198 1.367 . S
C1199 C1201 1.433 . S
C1200 C1196 1.350 . S
C1200 C1197 1.463 . S
C1200 N1204 1.427 . S
C1201 H1191 0.929 . S
C1201 C1199 1.433 . S
C1201 N1204 1.384 . S
C1202 H1193 0.929 . S
C1202 C1194 1.378 . S
C1202 C1197 1.350 . S
C1203 H1190 0.929 . S
C1203 C1195 1.433 . S
C1203 N1205 1.384 . S
N1204 C1200 1.427 . S
N1204 C1201 1.384 . S
N1205 C1197 1.427 . S
N1205 C1203 1.384 . S
H1206 C1212 0.930 . S
H1207 C1216 0.930 . S
H1208 C1221 0.929 1_455 S
H1209 C1219 0.929 . S
H1210 C1214 0.929 . S
H1211 C1220 0.929 . S
C1212 H1206 0.930 . S
C1212 C1213 1.367 . S
C1212 C1220 1.378 . S
C1213 C1212 1.367 . S
C1213 C1221 1.433 . S
C1214 H1210 0.929 . S
C1214 C1216 1.378 . S
C1214 C1218 1.350 . S
C1215 C1218 1.463 1_554 S
C1215 C1220 1.350 . S
C1215 N1223 1.427 . S
C1216 H1207 0.930 . S
C1216 C1214 1.378 . S
C1216 C1217 1.367 . S
C1217 C1216 1.367 . S
C1217 C1219 1.433 . S
C1218 C1214 1.350 . S
C1218 C1215 1.463 1_556 S
C1218 N1222 1.427 . S
C1219 H1209 0.929 . S
C1219 C1217 1.433 . S
C1219 N1222 1.384 . S
C1220 H1211 0.929 . S
C1220 C1212 1.378 . S
C1220 C1215 1.350 . S
C1221 H1208 0.929 1_655 S
C1221 C1213 1.433 . S
C1221 N1223 1.384 . S
N1222 C1218 1.427 . S
N1222 C1219 1.384 . S
N1223 C1215 1.427 . S
N1223 C1221 1.384 . S
H1224 C1230 0.930 . S
H1225 C1234 0.930 . S
H1226 C1239 0.929 . S
H1227 C1237 0.929 . S
H1228 C1232 0.929 . S
H1229 C1238 0.929 . S
C1230 H1224 0.930 . S
C1230 C1231 1.367 . S
C1230 C1238 1.378 1_545 S
C1231 C1230 1.367 . S
C1231 C1239 1.433 1_545 S
C1232 H1228 0.929 . S
C1232 C1234 1.378 . S
C1232 C1236 1.350 . S
C1233 C1236 1.463 . S
C1233 C1238 1.350 . S
C1233 N1241 1.427 . S
C1234 H1225 0.930 . S
C1234 C1232 1.378 . S
C1234 C1235 1.367 . S
C1235 C1234 1.367 . S
C1235 C1237 1.433 . S
C1236 C1232 1.350 . S
C1236 C1233 1.463 . S
C1236 N1240 1.427 . S
C1237 H1227 0.929 . S
C1237 C1235 1.433 . S
C1237 N1240 1.384 . S
C1238 H1229 0.929 . S
C1238 C1230 1.378 1_565 S
C1238 C1233 1.350 . S
C1239 H1226 0.929 . S
C1239 C1231 1.433 1_565 S
C1239 N1241 1.384 . S
N1240 C1236 1.427 . S
N1240 C1237 1.384 . S
N1241 C1233 1.427 . S
N1241 C1239 1.384 . S
H1242 C1248 0.930 . S
H1243 C1252 0.930 . S
H1244 C1257 0.929 . S
H1245 C1255 0.929 . S
H1246 C1250 0.929 . S
H1247 C1256 0.929 . S
C1248 H1242 0.930 . S
C1248 C1249 1.367 1_545 S
C1248 C1256 1.378 . S
C1249 C1248 1.367 1_565 S
C1249 C1257 1.433 . S
C1250 H1246 0.929 . S
C1250 C1252 1.378 . S
C1250 C1254 1.350 . S
C1251 C1254 1.463 . S
C1251 C1256 1.350 . S
C1251 N1259 1.427 . S
C1252 H1243 0.930 . S
C1252 C1250 1.378 . S
C1252 C1253 1.367 . S
C1253 C1252 1.367 . S
C1253 C1255 1.433 . S
C1254 C1250 1.350 . S
C1254 C1251 1.463 . S
C1254 N1258 1.427 . S
C1255 H1245 0.929 . S
C1255 C1253 1.433 . S
C1255 N1258 1.384 . S
C1256 H1247 0.929 . S
C1256 C1248 1.378 . S
C1256 C1251 1.350 . S
C1257 H1244 0.929 . S
C1257 C1249 1.433 . S
C1257 N1259 1.384 1_565 S
N1258 C1254 1.427 . S
N1258 C1255 1.384 . S
N1259 C1251 1.427 . S
N1259 C1257 1.384 1_545 S
H1260 C1266 0.930 . S
H1261 C1270 0.930 . S
H1262 C1275 0.929 . S
H1263 C1273 0.929 . S
H1264 C1268 0.929 . S
H1265 C1274 0.929 . S
C1266 H1260 0.930 . S
C1266 C1267 1.367 . S
C1266 C1274 1.378 . S
C1267 C1266 1.367 . S
C1267 C1275 1.433 . S
C1268 H1264 0.929 . S
C1268 C1270 1.378 . S
C1268 C1272 1.350 . S
C1269 C1272 1.463 . S
C1269 C1274 1.350 . S
C1269 N1277 1.427 . S
C1270 H1261 0.930 . S
C1270 C1268 1.378 . S
C1270 C1271 1.367 . S
C1271 C1270 1.367 . S
C1271 C1273 1.433 . S
C1272 C1268 1.350 . S
C1272 C1269 1.463 . S
C1272 N1276 1.427 . S
C1273 H1263 0.929 . S
C1273 C1271 1.433 . S
C1273 N1276 1.384 . S
C1274 H1265 0.929 . S
C1274 C1266 1.378 . S
C1274 C1269 1.350 . S
C1275 H1262 0.929 . S
C1275 C1267 1.433 . S
C1275 N1277 1.384 . S
N1276 C1272 1.427 . S
N1276 C1273 1.384 . S
N1277 C1269 1.427 . S
N1277 C1275 1.384 . S
H1278 C1284 0.930 . S
H1279 C1288 0.930 . S
H1280 C1293 0.929 . S
H1281 C1291 0.929 . S
H1282 C1286 0.929 . S
H1283 C1292 0.929 . S
C1284 H1278 0.930 . S
C1284 C1285 1.367 . S
C1284 C1292 1.378 . S
C1285 C1284 1.367 . S
C1285 C1293 1.433 . S
C1286 H1282 0.929 . S
C1286 C1288 1.378 1_545 S
C1286 C1290 1.350 . S
C1287 C1290 1.463 . S
C1287 C1292 1.350 . S
C1287 N1295 1.427 . S
C1288 H1279 0.930 . S
C1288 C1286 1.378 1_565 S
C1288 C1289 1.367 . S
C1289 C1288 1.367 . S
C1289 C1291 1.433 . S
C1290 C1286 1.350 . S
C1290 C1287 1.463 . S
C1290 N1294 1.427 . S
C1291 H1281 0.929 . S
C1291 C1289 1.433 . S
C1291 N1294 1.384 1_565 S
C1292 H1283 0.929 . S
C1292 C1284 1.378 . S
C1292 C1287 1.350 . S
C1293 H1280 0.929 . S
C1293 C1285 1.433 . S
C1293 N1295 1.384 . S
N1294 C1290 1.427 . S
N1294 C1291 1.384 1_545 S
N1295 C1287 1.427 . S
N1295 C1293 1.384 . S
H1296 C1302 0.930 . S
H1297 C1306 0.930 . S
H1298 C1311 0.929 . S
H1299 C1309 0.929 . S
H1300 C1304 0.929 . S
H1301 C1310 0.929 . S
C1302 H1296 0.930 . S
C1302 C1303 1.367 . S
C1302 C1310 1.378 . S
C1303 C1302 1.367 . S
C1303 C1311 1.433 . S
C1304 H1300 0.929 . S
C1304 C1306 1.378 . S
C1304 C1308 1.350 . S
C1305 C1308 1.463 . S
C1305 C1310 1.350 . S
C1305 N1313 1.427 . S
C1306 H1297 0.930 . S
C1306 C1304 1.378 . S
C1306 C1307 1.367 . S
C1307 C1306 1.367 . S
C1307 C1309 1.433 . S
C1308 C1304 1.350 . S
C1308 C1305 1.463 . S
C1308 N1312 1.427 . S
C1309 H1299 0.929 . S
C1309 C1307 1.433 . S
C1309 N1312 1.384 . S
C1310 H1301 0.929 . S
C1310 C1302 1.378 . S
C1310 C1305 1.350 . S
C1311 H1298 0.929 . S
C1311 C1303 1.433 . S
C1311 N1313 1.384 . S
N1312 C1308 1.427 . S
N1312 C1309 1.384 . S
N1313 C1305 1.427 . S
N1313 C1311 1.384 . S
H1314 C1320 0.930 . S
H1315 C1324 0.930 . S
H1316 C1329 0.929 . S
H1317 C1327 0.929 . S
H1318 C1322 0.929 . S
H1319 C1328 0.929 . S
C1320 H1314 0.930 . S
C1320 C1321 1.367 . S
C1320 C1328 1.378 . S
C1321 C1320 1.367 . S
C1321 C1329 1.433 . S
C1322 H1318 0.929 . S
C1322 C1324 1.378 . S
C1322 C1326 1.350 . S
C1323 C1326 1.463 . S
C1323 C1328 1.350 1_545 S
C1323 N1331 1.427 . S
C1324 H1315 0.930 . S
C1324 C1322 1.378 . S
C1324 C1325 1.367 . S
C1325 C1324 1.367 . S
C1325 C1327 1.433 . S
C1326 C1322 1.350 . S
C1326 C1323 1.463 . S
C1326 N1330 1.427 . S
C1327 H1317 0.929 . S
C1327 C1325 1.433 . S
C1327 N1330 1.384 . S
C1328 H1319 0.929 . S
C1328 C1320 1.378 . S
C1328 C1323 1.350 1_565 S
C1329 H1316 0.929 . S
C1329 C1321 1.433 . S
C1329 N1331 1.384 1_565 S
N1330 C1326 1.427 . S
N1330 C1327 1.384 . S
N1331 C1323 1.427 . S
N1331 C1329 1.384 1_545 S
H1332 C1338 0.930 . S
H1333 C1342 0.930 . S
H1334 C1347 0.929 . S
H1335 C1345 0.929 . S
H1336 C1340 0.929 . S
H1337 C1346 0.929 . S
C1338 H1332 0.930 . S
C1338 C1339 1.367 . S
C1338 C1346 1.378 . S
C1339 C1338 1.367 . S
C1339 C1347 1.433 . S
C1340 H1336 0.929 . S
C1340 C1342 1.378 . S
C1340 C1344 1.350 . S
C1341 C1344 1.463 . S
C1341 C1346 1.350 . S
C1341 N1349 1.427 . S
C1342 H1333 0.930 . S
C1342 C1340 1.378 . S
C1342 C1343 1.367 . S
C1343 C1342 1.367 . S
C1343 C1345 1.433 . S
C1344 C1340 1.350 . S
C1344 C1341 1.463 . S
C1344 N1348 1.427 . S
C1345 H1335 0.929 . S
C1345 C1343 1.433 . S
C1345 N1348 1.384 . S
C1346 H1337 0.929 . S
C1346 C1338 1.378 . S
C1346 C1341 1.350 . S
C1347 H1334 0.929 . S
C1347 C1339 1.433 . S
C1347 N1349 1.384 . S
N1348 C1344 1.427 . S
N1348 C1345 1.384 . S
N1349 C1341 1.427 . S
N1349 C1347 1.384 . S
H1350 C1356 0.930 . S
H1351 C1360 0.930 . S
H1352 C1365 0.929 . S
H1353 C1363 0.929 . S
H1354 C1358 0.929 . S
H1355 C1364 0.929 . S
C1356 H1350 0.930 . S
C1356 C1357 1.367 . S
C1356 C1364 1.378 . S
C1357 C1356 1.367 . S
C1357 C1365 1.433 . S
C1358 H1354 0.929 . S
C1358 C1360 1.378 . S
C1358 C1362 1.350 . S
C1359 C1362 1.463 . S
C1359 C1364 1.350 . S
C1359 N1367 1.427 . S
C1360 H1351 0.930 . S
C1360 C1358 1.378 . S
C1360 C1361 1.367 1_545 S
C1361 C1360 1.367 1_565 S
C1361 C1363 1.433 . S
C1362 C1358 1.350 . S
C1362 C1359 1.463 . S
C1362 N1366 1.427 . S
C1363 H1353 0.929 . S
C1363 C1361 1.433 . S
C1363 N1366 1.384 1_565 S
C1364 H1355 0.929 . S
C1364 C1356 1.378 . S
C1364 C1359 1.350 . S
C1365 H1352 0.929 . S
C1365 C1357 1.433 . S
C1365 N1367 1.384 . S
N1366 C1362 1.427 . S
N1366 C1363 1.384 1_545 S
N1367 C1359 1.427 . S
N1367 C1365 1.384 . S
H1368 C1374 0.930 . S
H1369 C1378 0.930 . S
H1370 C1383 0.929 1_554 S
H1371 C1381 0.929 . S
H1372 C1376 0.929 . S
H1373 C1382 0.929 . S
C1374 H1368 0.930 . S
C1374 C1375 1.367 . S
C1374 C1382 1.378 . S
C1375 C1374 1.367 . S
C1375 C1383 1.433 . S
C1376 H1372 0.929 . S
C1376 C1378 1.378 . S
C1376 C1380 1.350 . S
C1377 C1380 1.463 . S
C1377 C1382 1.350 . S
C1377 N1385 1.427 . S
C1378 H1369 0.930 . S
C1378 C1376 1.378 . S
C1378 C1379 1.367 . S
C1379 C1378 1.367 . S
C1379 C1381 1.433 . S
C1380 C1376 1.350 . S
C1380 C1377 1.463 . S
C1380 N1384 1.427 . S
C1381 H1371 0.929 . S
C1381 C1379 1.433 . S
C1381 N1384 1.384 . S
C1382 H1373 0.929 . S
C1382 C1374 1.378 . S
C1382 C1377 1.350 . S
C1383 H1370 0.929 1_556 S
C1383 C1375 1.433 . S
C1383 N1385 1.384 . S
N1384 C1380 1.427 . S
N1384 C1381 1.384 . S
N1385 C1377 1.427 . S
N1385 C1383 1.384 . S
H1386 C1392 0.930 . S
H1387 C1396 0.930 . S
H1388 C1401 0.929 . S
H1389 C1399 0.929 . S
H1390 C1394 0.929 . S
H1391 C1400 0.929 . S
C1392 H1386 0.930 . S
C1392 C1393 1.367 . S
C1392 C1400 1.378 . S
C1393 C1392 1.367 . S
C1393 C1401 1.433 . S
C1394 H1390 0.929 . S
C1394 C1396 1.378 . S
C1394 C1398 1.350 . S
C1395 C1398 1.463 . S
C1395 C1400 1.350 . S
C1395 N1403 1.427 . S
C1396 H1387 0.930 . S
C1396 C1394 1.378 . S
C1396 C1397 1.367 . S
C1397 C1396 1.367 . S
C1397 C1399 1.433 . S
C1398 C1394 1.350 . S
C1398 C1395 1.463 . S
C1398 N1402 1.427 . S
C1399 H1389 0.929 . S
C1399 C1397 1.433 . S
C1399 N1402 1.384 . S
C1400 H1391 0.929 . S
C1400 C1392 1.378 . S
C1400 C1395 1.350 . S
C1401 H1388 0.929 . S
C1401 C1393 1.433 . S
C1401 N1403 1.384 . S
N1402 C1398 1.427 . S
N1402 C1399 1.384 . S
N1403 C1395 1.427 . S
N1403 C1401 1.384 . S
H1404 C1410 0.930 . S
H1405 C1414 0.930 . S
H1406 C1419 0.929 . S
H1407 C1417 0.929 . S
H1408 C1412 0.929 . S
H1409 C1418 0.929 . S
C1410 H1404 0.930 . S
C1410 C1411 1.367 . S
C1410 C1418 1.378 . S
C1411 C1410 1.367 . S
C1411 C1419 1.433 . S
C1412 H1408 0.929 . S
C1412 C1414 1.378 . S
C1412 C1416 1.350 . S
C1413 C1416 1.463 1_655 S
C1413 C1418 1.350 . S
C1413 N1421 1.427 . S
C1414 H1405 0.930 . S
C1414 C1412 1.378 . S
C1414 C1415 1.367 . S
C1415 C1414 1.367 . S
C1415 C1417 1.433 . S
C1416 C1412 1.350 . S
C1416 C1413 1.463 1_455 S
C1416 N1420 1.427 . S
C1417 H1407 0.929 . S
C1417 C1415 1.433 . S
C1417 N1420 1.384 . S
C1418 H1409 0.929 . S
C1418 C1410 1.378 . S
C1418 C1413 1.350 . S
C1419 H1406 0.929 . S
C1419 C1411 1.433 . S
C1419 N1421 1.384 . S
N1420 C1416 1.427 . S
N1420 C1417 1.384 . S
N1421 C1413 1.427 . S
N1421 C1419 1.384 . S
H1422 C1428 0.930 . S
H1423 C1432 0.930 . S
H1424 C1437 0.929 . S
H1425 C1435 0.929 . S
H1426 C1430 0.929 . S
H1427 C1436 0.929 . S
C1428 H1422 0.930 . S
C1428 C1429 1.367 . S
C1428 C1436 1.378 . S
C1429 C1428 1.367 . S
C1429 C1437 1.433 . S
C1430 H1426 0.929 . S
C1430 C1432 1.378 . S
C1430 C1434 1.350 . S
C1431 C1434 1.463 . S
C1431 C1436 1.350 . S
C1431 N1439 1.427 . S
C1432 H1423 0.930 . S
C1432 C1430 1.378 . S
C1432 C1433 1.367 . S
C1433 C1432 1.367 . S
C1433 C1435 1.433 . S
C1434 C1430 1.350 . S
C1434 C1431 1.463 . S
C1434 N1438 1.427 . S
C1435 H1425 0.929 . S
C1435 C1433 1.433 . S
C1435 N1438 1.384 . S
C1436 H1427 0.929 . S
C1436 C1428 1.378 . S
C1436 C1431 1.350 . S
C1437 H1424 0.929 . S
C1437 C1429 1.433 . S
C1437 N1439 1.384 . S
N1438 C1434 1.427 . S
N1438 C1435 1.384 . S
N1439 C1431 1.427 . S
N1439 C1437 1.384 . S
H1440 C1446 0.930 . S
H1441 C1450 0.930 . S
H1442 C1455 0.929 1_565 S
H1443 C1453 0.929 . S
H1444 C1448 0.903 1_455 S
H1445 C1454 0.931 . S
C1446 H1440 0.930 . S
C1446 C1447 1.367 . S
C1446 C1454 1.378 . S
C1447 C1446 1.367 . S
C1447 C1455 1.433 . S
C1448 H1444 0.903 1_655 S
C1448 C1450 1.378 . S
C1448 C1452 1.334 1_565 S
C1449 C1452 1.468 1_455 S
C1449 C1454 1.350 . S
C1449 N1457 1.427 1_545 S
C1450 H1441 0.930 . S
C1450 C1448 1.378 . S
C1450 C1451 1.367 . S
C1451 C1450 1.367 . S
C1451 C1453 1.433 1_565 S
C1452 C1448 1.334 1_545 S
C1452 C1449 1.468 1_655 S
C1452 N1456 1.439 . S
C1453 H1443 0.929 . S
C1453 C1451 1.433 1_545 S
C1453 N1456 1.384 . S
C1454 H1445 0.931 . S
C1454 C1446 1.378 . S
C1454 C1449 1.350 . S
C1455 H1442 0.929 1_545 S
C1455 C1447 1.433 . S
C1455 N1457 1.384 1_545 S
N1456 C1452 1.439 . S
N1456 C1453 1.384 . S
N1457 C1449 1.427 1_565 S
N1457 C1455 1.384 1_565 S
H1458 C1464 0.930 . S
H1459 C1468 0.930 . S
H1460 C1473 0.929 . S
H1461 C1471 0.929 . S
H1462 C1466 0.929 . S
H1463 C1472 0.929 . S
C1464 H1458 0.930 . S
C1464 C1465 1.367 . S
C1464 C1472 1.378 . S
C1465 C1464 1.367 . S
C1465 C1473 1.433 . S
C1466 H1462 0.929 . S
C1466 C1468 1.378 . S
C1466 C1470 1.350 . S
C1467 C1470 1.463 . S
C1467 C1472 1.350 . S
C1467 N1475 1.427 . S
C1468 H1459 0.930 . S
C1468 C1466 1.378 . S
C1468 C1469 1.367 . S
C1469 C1468 1.367 . S
C1469 C1471 1.433 . S
C1470 C1466 1.350 . S
C1470 C1467 1.463 . S
C1470 N1474 1.427 . S
C1471 H1461 0.929 . S
C1471 C1469 1.433 . S
C1471 N1474 1.384 . S
C1472 H1463 0.929 . S
C1472 C1464 1.378 . S
C1472 C1467 1.350 . S
C1473 H1460 0.929 . S
C1473 C1465 1.433 . S
C1473 N1475 1.384 . S
N1474 C1470 1.427 . S
N1474 C1471 1.384 . S
N1475 C1467 1.427 . S
N1475 C1473 1.384 . S
H1476 C1482 0.930 . S
H1477 C1486 0.930 . S
H1478 C1491 0.929 . S
H1479 C1489 0.929 . S
H1480 C1484 0.929 . S
H1481 C1490 0.929 . S
C1482 H1476 0.930 . S
C1482 C1483 1.367 . S
C1482 C1490 1.378 . S
C1483 C1482 1.367 . S
C1483 C1491 1.433 . S
C1484 H1480 0.929 . S
C1484 C1486 1.378 . S
C1484 C1488 1.350 . S
C1485 C1488 1.463 1_655 S
C1485 C1490 1.350 . S
C1485 N1493 1.427 . S
C1486 H1477 0.930 . S
C1486 C1484 1.378 . S
C1486 C1487 1.367 . S
C1487 C1486 1.367 . S
C1487 C1489 1.433 . S
C1488 C1484 1.350 . S
C1488 C1485 1.463 1_455 S
C1488 N1492 1.427 . S
C1489 H1479 0.929 . S
C1489 C1487 1.433 . S
C1489 N1492 1.384 . S
C1490 H1481 0.929 . S
C1490 C1482 1.378 . S
C1490 C1485 1.350 . S
C1491 H1478 0.929 . S
C1491 C1483 1.433 . S
C1491 N1493 1.384 . S
N1492 C1488 1.427 . S
N1492 C1489 1.384 . S
N1493 C1485 1.427 . S
N1493 C1491 1.384 . S
H1494 C1500 0.930 . S
H1495 C1504 0.930 . S
H1496 C1509 0.929 . S
H1497 C1507 0.929 . S
H1498 C1502 0.929 . S
H1499 C1508 0.929 . S
C1500 H1494 0.930 . S
C1500 C1501 1.367 . S
C1500 C1508 1.378 . S
C1501 C1500 1.367 . S
C1501 C1509 1.433 . S
C1502 H1498 0.929 . S
C1502 C1504 1.378 . S
C1502 C1506 1.350 . S
C1503 C1506 1.463 . S
C1503 C1508 1.350 . S
C1503 N1511 1.427 . S
C1504 H1495 0.930 . S
C1504 C1502 1.378 . S
C1504 C1505 1.367 . S
C1505 C1504 1.367 . S
C1505 C1507 1.433 . S
C1506 C1502 1.350 . S
C1506 C1503 1.463 . S
C1506 N1510 1.427 . S
C1507 H1497 0.929 . S
C1507 C1505 1.433 . S
C1507 N1510 1.384 . S
C1508 H1499 0.929 . S
C1508 C1500 1.378 . S
C1508 C1503 1.350 . S
C1509 H1496 0.929 . S
C1509 C1501 1.433 . S
C1509 N1511 1.384 . S
N1510 C1506 1.427 . S
N1510 C1507 1.384 . S
N1511 C1503 1.427 . S
N1511 C1509 1.384 . S
H1512 C1518 0.930 . S
H1513 C1522 0.930 . S
H1514 C1527 0.929 . S
H1515 C1525 0.929 . S
H1516 C1520 0.929 . S
H1517 C1526 0.929 . S
C1518 H1512 0.930 . S
C1518 C1519 1.367 . S
C1518 C1526 1.378 . S
C1519 C1518 1.367 . S
C1519 C1527 1.433 . S
C1520 H1516 0.929 . S
C1520 C1522 1.378 . S
C1520 C1524 1.350 . S
C1521 C1524 1.463 . S
C1521 C1526 1.350 . S
C1521 N1529 1.427 . S
C1522 H1513 0.930 . S
C1522 C1520 1.378 . S
C1522 C1523 1.367 . S
C1523 C1522 1.367 . S
C1523 C1525 1.433 . S
C1524 C1520 1.350 . S
C1524 C1521 1.463 . S
C1524 N1528 1.427 . S
C1525 H1515 0.929 . S
C1525 C1523 1.433 . S
C1525 N1528 1.384 . S
C1526 H1517 0.929 . S
C1526 C1518 1.378 . S
C1526 C1521 1.350 . S
C1527 H1514 0.929 . S
C1527 C1519 1.433 . S
C1527 N1529 1.384 . S
N1528 C1524 1.427 . S
N1528 C1525 1.384 . S
N1529 C1521 1.427 . S
N1529 C1527 1.384 . S
H1530 C1536 0.930 . S
H1531 C1540 0.930 . S
H1532 C1545 0.929 . S
H1533 C1543 0.929 . S
H1534 C1538 0.929 . S
H1535 C1544 0.929 . S
C1536 H1530 0.930 . S
C1536 C1537 1.367 . S
C1536 C1544 1.378 . S
C1537 C1536 1.367 . S
C1537 C1545 1.433 . S
C1538 H1534 0.929 . S
C1538 C1540 1.378 1_554 S
C1538 C1542 1.350 . S
C1539 C1542 1.463 . S
C1539 C1544 1.350 . S
C1539 N1547 1.427 . S
C1540 H1531 0.930 . S
C1540 C1538 1.378 1_556 S
C1540 C1541 1.367 . S
C1541 C1540 1.367 . S
C1541 C1543 1.433 . S
C1542 C1538 1.350 . S
C1542 C1539 1.463 . S
C1542 N1546 1.427 1_554 S
C1543 H1533 0.929 . S
C1543 C1541 1.433 . S
C1543 N1546 1.384 . S
C1544 H1535 0.929 . S
C1544 C1536 1.378 . S
C1544 C1539 1.350 . S
C1545 H1532 0.929 . S
C1545 C1537 1.433 . S
C1545 N1547 1.384 . S
N1546 C1542 1.427 1_556 S
N1546 C1543 1.384 . S
N1547 C1539 1.427 . S
N1547 C1545 1.384 . S
H1548 C1554 0.930 . S
H1549 C1558 0.930 . S
H1550 C1563 0.929 . S
H1551 C1561 0.929 . S
H1552 C1556 0.929 . S
H1553 C1562 0.929 . S
C1554 H1548 0.930 . S
C1554 C1555 1.367 . S
C1554 C1562 1.378 . S
C1555 C1554 1.367 . S
C1555 C1563 1.433 . S
C1556 H1552 0.929 . S
C1556 C1558 1.378 . S
C1556 C1560 1.350 . S
C1557 C1560 1.463 . S
C1557 C1562 1.350 . S
C1557 N1565 1.427 . S
C1558 H1549 0.930 . S
C1558 C1556 1.378 . S
C1558 C1559 1.367 . S
C1559 C1558 1.367 . S
C1559 C1561 1.433 . S
C1560 C1556 1.350 . S
C1560 C1557 1.463 . S
C1560 N1564 1.427 . S
C1561 H1551 0.929 . S
C1561 C1559 1.433 . S
C1561 N1564 1.384 . S
C1562 H1553 0.929 . S
C1562 C1554 1.378 . S
C1562 C1557 1.350 . S
C1563 H1550 0.929 . S
C1563 C1555 1.433 . S
C1563 N1565 1.384 . S
N1564 C1560 1.427 . S
N1564 C1561 1.384 . S
N1565 C1557 1.427 . S
N1565 C1563 1.384 . S
H1566 C1572 0.930 . S
H1567 C1576 0.930 . S
H1568 C1581 0.929 . S
H1569 C1579 0.929 . S
H1570 C1574 0.929 . S
H1571 C1580 0.929 . S
C1572 H1566 0.930 . S
C1572 C1573 1.367 . S
C1572 C1580 1.378 . S
C1573 C1572 1.367 . S
C1573 C1581 1.433 . S
C1574 H1570 0.929 . S
C1574 C1576 1.378 . S
C1574 C1578 1.350 . S
C1575 C1578 1.463 . S
C1575 C1580 1.350 . S
C1575 N1583 1.427 . S
C1576 H1567 0.930 . S
C1576 C1574 1.378 . S
C1576 C1577 1.367 . S
C1577 C1576 1.367 . S
C1577 C1579 1.433 . S
C1578 C1574 1.350 . S
C1578 C1575 1.463 . S
C1578 N1582 1.427 . S
C1579 H1569 0.929 . S
C1579 C1577 1.433 . S
C1579 N1582 1.384 . S
C1580 H1571 0.929 . S
C1580 C1572 1.378 . S
C1580 C1575 1.350 . S
C1581 H1568 0.929 . S
C1581 C1573 1.433 . S
C1581 N1583 1.384 . S
N1582 C1578 1.427 . S
N1582 C1579 1.384 . S
N1583 C1575 1.427 . S
N1583 C1581 1.384 . S
H1584 C1590 0.930 . S
H1585 C1594 0.930 . S
H1586 C1599 0.929 . S
H1587 C1597 0.929 . S
H1588 C1592 0.929 . S
H1589 C1598 0.929 . S
C1590 H1584 0.930 . S
C1590 C1591 1.367 . S
C1590 C1598 1.378 . S
C1591 C1590 1.367 . S
C1591 C1599 1.433 . S
C1592 H1588 0.929 . S
C1592 C1594 1.378 . S
C1592 C1596 1.350 . S
C1593 C1596 1.463 . S
C1593 C1598 1.350 . S
C1593 N1601 1.427 . S
C1594 H1585 0.930 . S
C1594 C1592 1.378 . S
C1594 C1595 1.367 . S
C1595 C1594 1.367 . S
C1595 C1597 1.433 . S
C1596 C1592 1.350 . S
C1596 C1593 1.463 . S
C1596 N1600 1.427 . S
C1597 H1587 0.929 . S
C1597 C1595 1.433 . S
C1597 N1600 1.384 . S
C1598 H1589 0.929 . S
C1598 C1590 1.378 . S
C1598 C1593 1.350 . S
C1599 H1586 0.929 . S
C1599 C1591 1.433 . S
C1599 N1601 1.384 . S
N1600 C1596 1.427 . S
N1600 C1597 1.384 . S
N1601 C1593 1.427 . S
N1601 C1599 1.384 . S
H1602 C1608 0.930 . S
H1603 C1612 0.930 . S
H1604 C1617 0.929 . S
H1605 C1615 0.929 . S
H1606 C1610 0.929 . S
H1607 C1616 0.929 . S
C1608 H1602 0.930 . S
C1608 C1609 1.367 . S
C1608 C1616 1.378 . S
C1609 C1608 1.367 . S
C1609 C1617 1.433 . S
C1610 H1606 0.929 . S
C1610 C1612 1.378 . S
C1610 C1614 1.350 . S
C1611 C1614 1.463 . S
C1611 C1616 1.350 1_554 S
C1611 N1619 1.427 . S
C1612 H1603 0.930 . S
C1612 C1610 1.378 . S
C1612 C1613 1.367 . S
C1613 C1612 1.367 . S
C1613 C1615 1.433 . S
C1614 C1610 1.350 . S
C1614 C1611 1.463 . S
C1614 N1618 1.427 . S
C1615 H1605 0.929 . S
C1615 C1613 1.433 . S
C1615 N1618 1.384 . S
C1616 H1607 0.929 . S
C1616 C1608 1.378 . S
C1616 C1611 1.350 1_556 S
C1617 H1604 0.929 . S
C1617 C1609 1.433 . S
C1617 N1619 1.384 1_556 S
N1618 C1614 1.427 . S
N1618 C1615 1.384 . S
N1619 C1611 1.427 . S
N1619 C1617 1.384 1_554 S
H1620 C1626 0.930 . S
H1621 C1630 0.930 . S
H1622 C1635 0.929 . S
H1623 C1633 0.929 . S
H1624 C1628 0.929 . S
H1625 C1634 0.929 . S
C1626 H1620 0.930 . S
C1626 C1627 1.367 . S
C1626 C1634 1.378 . S
C1627 C1626 1.367 . S
C1627 C1635 1.433 . S
C1628 H1624 0.929 . S
C1628 C1630 1.378 . S
C1628 C1632 1.350 . S
C1629 C1632 1.463 . S
C1629 C1634 1.350 . S
C1629 N1637 1.427 . S
C1630 H1621 0.930 . S
C1630 C1628 1.378 . S
C1630 C1631 1.367 . S
C1631 C1630 1.367 . S
C1631 C1633 1.433 . S
C1632 C1628 1.350 . S
C1632 C1629 1.463 . S
C1632 N1636 1.427 . S
C1633 H1623 0.929 . S
C1633 C1631 1.433 . S
C1633 N1636 1.384 . S
C1634 H1625 0.929 . S
C1634 C1626 1.378 . S
C1634 C1629 1.350 . S
C1635 H1622 0.929 . S
C1635 C1627 1.433 . S
C1635 N1637 1.384 . S
N1636 C1632 1.427 . S
N1636 C1633 1.384 . S
N1637 C1629 1.427 . S
N1637 C1635 1.384 . S
H1638 C1644 0.930 . S
H1639 C1648 0.930 . S
H1640 C1653 0.929 . S
H1641 C1651 0.929 . S
H1642 C1646 0.929 . S
H1643 C1652 0.929 . S
C1644 H1638 0.930 . S
C1644 C1645 1.367 . S
C1644 C1652 1.378 . S
C1645 C1644 1.367 . S
C1645 C1653 1.433 . S
C1646 H1642 0.929 . S
C1646 C1648 1.378 . S
C1646 C1650 1.350 . S
C1647 C1650 1.463 . S
C1647 C1652 1.350 . S
C1647 N1655 1.427 . S
C1648 H1639 0.930 . S
C1648 C1646 1.378 . S
C1648 C1649 1.367 . S
C1649 C1648 1.367 . S
C1649 C1651 1.433 . S
C1650 C1646 1.350 . S
C1650 C1647 1.463 . S
C1650 N1654 1.427 . S
C1651 H1641 0.929 . S
C1651 C1649 1.433 . S
C1651 N1654 1.384 . S
C1652 H1643 0.929 . S
C1652 C1644 1.378 . S
C1652 C1647 1.350 . S
C1653 H1640 0.929 . S
C1653 C1645 1.433 . S
C1653 N1655 1.384 . S
N1654 C1650 1.427 . S
N1654 C1651 1.384 . S
N1655 C1647 1.427 . S
N1655 C1653 1.384 . S
H1656 C1662 0.930 . S
H1657 C1666 0.930 . S
H1658 C1671 0.929 . S
H1659 C1669 0.929 . S
H1660 C1664 0.929 . S
H1661 C1670 0.929 . S
C1662 H1656 0.930 . S
C1662 C1663 1.367 . S
C1662 C1670 1.378 . S
C1663 C1662 1.367 . S
C1663 C1671 1.433 . S
C1664 H1660 0.929 . S
C1664 C1666 1.378 . S
C1664 C1668 1.350 . S
C1665 C1668 1.463 . S
C1665 C1670 1.350 . S
C1665 N1673 1.427 . S
C1666 H1657 0.930 . S
C1666 C1664 1.378 . S
C1666 C1667 1.367 . S
C1667 C1666 1.367 . S
C1667 C1669 1.433 . S
C1668 C1664 1.350 . S
C1668 C1665 1.463 . S
C1668 N1672 1.427 . S
C1669 H1659 0.929 . S
C1669 C1667 1.433 . S
C1669 N1672 1.384 . S
C1670 H1661 0.929 . S
C1670 C1662 1.378 . S
C1670 C1665 1.350 . S
C1671 H1658 0.929 . S
C1671 C1663 1.433 . S
C1671 N1673 1.384 . S
N1672 C1668 1.427 . S
N1672 C1669 1.384 . S
N1673 C1665 1.427 . S
N1673 C1671 1.384 . S
H1674 C1680 0.930 . S
H1675 C1684 0.930 . S
H1676 C1689 0.929 1_554 S
H1677 C1687 0.929 . S
H1678 C1682 0.929 . S
H1679 C1688 0.929 . S
C1680 H1674 0.930 . S
C1680 C1681 1.367 . S
C1680 C1688 1.378 . S
C1681 C1680 1.367 . S
C1681 C1689 1.433 . S
C1682 H1678 0.929 . S
C1682 C1684 1.378 . S
C1682 C1686 1.350 . S
C1683 C1686 1.463 . S
C1683 C1688 1.350 . S
C1683 N1691 1.427 . S
C1684 H1675 0.930 . S
C1684 C1682 1.378 . S
C1684 C1685 1.367 . S
C1685 C1684 1.367 . S
C1685 C1687 1.433 . S
C1686 C1682 1.350 . S
C1686 C1683 1.463 . S
C1686 N1690 1.427 . S
C1687 H1677 0.929 . S
C1687 C1685 1.433 . S
C1687 N1690 1.384 . S
C1688 H1679 0.929 . S
C1688 C1680 1.378 . S
C1688 C1683 1.350 . S
C1689 H1676 0.929 1_556 S
C1689 C1681 1.433 . S
C1689 N1691 1.384 . S
N1690 C1686 1.427 . S
N1690 C1687 1.384 . S
N1691 C1683 1.427 . S
N1691 C1689 1.384 . S
H1692 C1698 0.930 . S
H1693 C1702 0.930 . S
H1694 C1707 0.929 . S
H1695 C1705 0.929 . S
H1696 C1700 0.929 . S
H1697 C1706 0.929 . S
C1698 H1692 0.930 . S
C1698 C1699 1.367 . S
C1698 C1706 1.378 . S
C1699 C1698 1.367 . S
C1699 C1707 1.433 . S
C1700 H1696 0.929 . S
C1700 C1702 1.378 . S
C1700 C1704 1.350 . S
C1701 C1704 1.463 . S
C1701 C1706 1.350 . S
C1701 N1709 1.427 . S
C1702 H1693 0.930 . S
C1702 C1700 1.378 . S
C1702 C1703 1.367 . S
C1703 C1702 1.367 . S
C1703 C1705 1.433 . S
C1704 C1700 1.350 . S
C1704 C1701 1.463 . S
C1704 N1708 1.427 . S
C1705 H1695 0.929 . S
C1705 C1703 1.433 . S
C1705 N1708 1.384 . S
C1706 H1697 0.929 . S
C1706 C1698 1.378 . S
C1706 C1701 1.350 . S
C1707 H1694 0.929 . S
C1707 C1699 1.433 . S
C1707 N1709 1.384 . S
N1708 C1704 1.427 . S
N1708 C1705 1.384 . S
N1709 C1701 1.427 . S
N1709 C1707 1.384 . S
H1710 C1716 0.930 . S
H1711 C1720 0.930 . S
H1712 C1725 0.929 . S
H1713 C1723 0.929 . S
H1714 C1718 0.929 . S
H1715 C1724 0.929 . S
C1716 H1710 0.930 . S
C1716 C1717 1.367 . S
C1716 C1724 1.378 . S
C1717 C1716 1.367 . S
C1717 C1725 1.433 . S
C1718 H1714 0.929 . S
C1718 C1720 1.378 . S
C1718 C1722 1.350 . S
C1719 C1722 1.463 . S
C1719 C1724 1.350 . S
C1719 N1727 1.427 . S
C1720 H1711 0.930 . S
C1720 C1718 1.378 . S
C1720 C1721 1.367 . S
C1721 C1720 1.367 . S
C1721 C1723 1.433 . S
C1722 C1718 1.350 . S
C1722 C1719 1.463 . S
C1722 N1726 1.427 . S
C1723 H1713 0.929 . S
C1723 C1721 1.433 . S
C1723 N1726 1.384 . S
C1724 H1715 0.929 . S
C1724 C1716 1.378 . S
C1724 C1719 1.350 . S
C1725 H1712 0.929 . S
C1725 C1717 1.433 . S
C1725 N1727 1.384 . S
N1726 C1722 1.427 . S
N1726 C1723 1.384 . S
N1727 C1719 1.427 . S
N1727 C1725 1.384 . S
H1728 C1734 0.930 . S
H1729 C1738 0.930 . S
H1730 C1743 0.929 . S
H1731 C1741 0.929 . S
H1732 C1736 0.929 . S
H1733 C1742 0.929 . S
C1734 H1728 0.930 . S
C1734 C1735 1.367 . S
C1734 C1742 1.378 . S
C1735 C1734 1.367 . S
C1735 C1743 1.433 . S
C1736 H1732 0.929 . S
C1736 C1738 1.378 . S
C1736 C1740 1.350 . S
C1737 C1740 1.463 . S
C1737 C1742 1.350 . S
C1737 N1745 1.427 . S
C1738 H1729 0.930 . S
C1738 C1736 1.378 . S
C1738 C1739 1.367 . S
C1739 C1738 1.367 . S
C1739 C1741 1.433 . S
C1740 C1736 1.350 . S
C1740 C1737 1.463 . S
C1740 N1744 1.427 . S
C1741 H1731 0.929 . S
C1741 C1739 1.433 . S
C1741 N1744 1.384 . S
C1742 H1733 0.929 . S
C1742 C1734 1.378 . S
C1742 C1737 1.350 . S
C1743 H1730 0.929 . S
C1743 C1735 1.433 . S
C1743 N1745 1.384 . S
N1744 C1740 1.427 . S
N1744 C1741 1.384 . S
N1745 C1737 1.427 . S
N1745 C1743 1.384 . S
H1746 C1752 0.930 . S
H1747 C1756 0.930 . S
H1748 C1761 0.929 . S
H1749 C1759 0.929 . S
H1750 C1754 0.929 . S
H1751 C1760 0.929 . S
C1752 H1746 0.930 . S
C1752 C1753 1.367 . S
C1752 C1760 1.378 . S
C1753 C1752 1.367 . S
C1753 C1761 1.433 . S
C1754 H1750 0.929 . S
C1754 C1756 1.378 . S
C1754 C1758 1.350 . S
C1755 C1758 1.463 . S
C1755 C1760 1.350 . S
C1755 N1763 1.427 . S
C1756 H1747 0.930 . S
C1756 C1754 1.378 . S
C1756 C1757 1.367 . S
C1757 C1756 1.367 . S
C1757 C1759 1.433 . S
C1758 C1754 1.350 . S
C1758 C1755 1.463 . S
C1758 N1762 1.427 . S
C1759 H1749 0.929 . S
C1759 C1757 1.433 . S
C1759 N1762 1.384 . S
C1760 H1751 0.929 . S
C1760 C1752 1.378 . S
C1760 C1755 1.350 . S
C1761 H1748 0.929 . S
C1761 C1753 1.433 . S
C1761 N1763 1.384 . S
N1762 C1758 1.427 . S
N1762 C1759 1.384 . S
N1763 C1755 1.427 . S
N1763 C1761 1.384 . S
H1764 C1770 0.930 . S
H1765 C1774 0.930 . S
H1766 C1779 0.929 . S
H1767 C1777 0.929 . S
H1768 C1772 0.929 . S
H1769 C1778 0.929 . S
C1770 H1764 0.930 . S
C1770 C1771 1.367 . S
C1770 C1778 1.378 . S
C1771 C1770 1.367 . S
C1771 C1779 1.433 . S
C1772 H1768 0.929 . S
C1772 C1774 1.378 . S
C1772 C1776 1.350 . S
C1773 C1776 1.463 . S
C1773 C1778 1.350 . S
C1773 N1781 1.427 . S
C1774 H1765 0.930 . S
C1774 C1772 1.378 . S
C1774 C1775 1.367 . S
C1775 C1774 1.367 . S
C1775 C1777 1.433 . S
C1776 C1772 1.350 . S
C1776 C1773 1.463 . S
C1776 N1780 1.427 . S
C1777 H1767 0.929 . S
C1777 C1775 1.433 . S
C1777 N1780 1.384 . S
C1778 H1769 0.929 . S
C1778 C1770 1.378 . S
C1778 C1773 1.350 . S
C1779 H1766 0.929 . S
C1779 C1771 1.433 . S
C1779 N1781 1.384 . S
N1780 C1776 1.427 . S
N1780 C1777 1.384 . S
N1781 C1773 1.427 . S
N1781 C1779 1.384 . S
H1782 C1788 0.930 . S
H1783 C1792 0.930 . S
H1784 C1797 0.929 . S
H1785 C1795 0.929 . S
H1786 C1790 0.929 . S
H1787 C1796 0.929 . S
C1788 H1782 0.930 . S
C1788 C1789 1.367 . S
C1788 C1796 1.378 . S
C1789 C1788 1.367 . S
C1789 C1797 1.433 . S
C1790 H1786 0.929 . S
C1790 C1792 1.378 . S
C1790 C1794 1.350 . S
C1791 C1794 1.463 . S
C1791 C1796 1.350 . S
C1791 N1799 1.427 . S
C1792 H1783 0.930 . S
C1792 C1790 1.378 . S
C1792 C1793 1.367 . S
C1793 C1792 1.367 . S
C1793 C1795 1.433 . S
C1794 C1790 1.350 . S
C1794 C1791 1.463 . S
C1794 N1798 1.427 . S
C1795 H1785 0.929 . S
C1795 C1793 1.433 . S
C1795 N1798 1.384 . S
C1796 H1787 0.929 . S
C1796 C1788 1.378 . S
C1796 C1791 1.350 . S
C1797 H1784 0.929 . S
C1797 C1789 1.433 . S
C1797 N1799 1.384 . S
N1798 C1794 1.427 . S
N1798 C1795 1.384 . S
N1799 C1791 1.427 . S
N1799 C1797 1.384 . S
H1800 C1806 0.930 . S
H1801 C1810 0.930 . S
H1802 C1815 0.929 . S
H1803 C1813 0.929 . S
H1804 C1808 0.929 . S
H1805 C1814 0.929 . S
C1806 H1800 0.930 . S
C1806 C1807 1.367 . S
C1806 C1814 1.378 . S
C1807 C1806 1.367 . S
C1807 C1815 1.433 . S
C1808 H1804 0.929 . S
C1808 C1810 1.378 . S
C1808 C1812 1.350 . S
C1809 C1812 1.463 . S
C1809 C1814 1.350 . S
C1809 N1817 1.427 . S
C1810 H1801 0.930 . S
C1810 C1808 1.378 . S
C1810 C1811 1.367 . S
C1811 C1810 1.367 . S
C1811 C1813 1.433 . S
C1812 C1808 1.350 . S
C1812 C1809 1.463 . S
C1812 N1816 1.427 . S
C1813 H1803 0.929 . S
C1813 C1811 1.433 . S
C1813 N1816 1.384 . S
C1814 H1805 0.929 . S
C1814 C1806 1.378 . S
C1814 C1809 1.350 . S
C1815 H1802 0.929 . S
C1815 C1807 1.433 . S
C1815 N1817 1.384 . S
N1816 C1812 1.427 . S
N1816 C1813 1.384 . S
N1817 C1809 1.427 . S
N1817 C1815 1.384 . S
H1818 C1824 0.930 . S
H1819 C1828 0.930 . S
H1820 C1833 0.929 . S
H1821 C1831 0.929 . S
H1822 C1826 0.929 . S
H1823 C1832 0.929 . S
C1824 H1818 0.930 . S
C1824 C1825 1.367 . S
C1824 C1832 1.378 . S
C1825 C1824 1.367 . S
C1825 C1833 1.433 . S
C1826 H1822 0.929 . S
C1826 C1828 1.378 . S
C1826 C1830 1.350 . S
C1827 C1830 1.463 . S
C1827 C1832 1.350 . S
C1827 N1835 1.427 . S
C1828 H1819 0.930 . S
C1828 C1826 1.378 . S
C1828 C1829 1.367 . S
C1829 C1828 1.367 . S
C1829 C1831 1.433 . S
C1830 C1826 1.350 . S
C1830 C1827 1.463 . S
C1830 N1834 1.427 . S
C1831 H1821 0.929 . S
C1831 C1829 1.433 . S
C1831 N1834 1.384 . S
C1832 H1823 0.929 . S
C1832 C1824 1.378 . S
C1832 C1827 1.350 . S
C1833 H1820 0.929 . S
C1833 C1825 1.433 . S
C1833 N1835 1.384 . S
N1834 C1830 1.427 . S
N1834 C1831 1.384 . S
N1835 C1827 1.427 . S
N1835 C1833 1.384 . S
H1836 C1842 0.930 . S
H1837 C1846 0.930 . S
H1838 C1851 0.929 . S
H1839 C1849 0.929 . S
H1840 C1844 0.929 1_545 S
H1841 C1850 0.929 . S
C1842 H1836 0.930 . S
C1842 C1843 1.367 1_565 S
C1842 C1850 1.378 . S
C1843 C1842 1.367 1_545 S
C1843 C1851 1.433 . S
C1844 H1840 0.929 1_565 S
C1844 C1846 1.378 . S
C1844 C1848 1.350 . S
C1845 C1848 1.463 . S
C1845 C1850 1.350 . S
C1845 N1853 1.427 1_565 S
C1846 H1837 0.930 . S
C1846 C1844 1.378 . S
C1846 C1847 1.367 . S
C1847 C1846 1.367 . S
C1847 C1849 1.433 . S
C1848 C1844 1.350 . S
C1848 C1845 1.463 . S
C1848 N1852 1.427 . S
C1849 H1839 0.929 . S
C1849 C1847 1.433 . S
C1849 N1852 1.384 . S
C1850 H1841 0.929 . S
C1850 C1842 1.378 . S
C1850 C1845 1.350 . S
C1851 H1838 0.929 . S
C1851 C1843 1.433 . S
C1851 N1853 1.384 . S
N1852 C1848 1.427 . S
N1852 C1849 1.384 . S
N1853 C1845 1.427 1_545 S
N1853 C1851 1.384 . S
H1854 C1860 0.930 1_554 S
H1855 C1864 0.930 . S
H1856 C1869 0.929 . S
H1857 C1867 0.929 . S
H1858 C1862 0.929 . S
H1859 C1868 0.929 . S
C1860 H1854 0.930 1_556 S
C1860 C1861 1.367 . S
C1860 C1868 1.378 . S
C1861 C1860 1.367 . S
C1861 C1869 1.433 . S
C1862 H1858 0.929 . S
C1862 C1864 1.378 . S
C1862 C1866 1.350 . S
C1863 C1866 1.463 . S
C1863 C1868 1.350 . S
C1863 N1871 1.427 . S
C1864 H1855 0.930 . S
C1864 C1862 1.378 . S
C1864 C1865 1.367 . S
C1865 C1864 1.367 . S
C1865 C1867 1.433 . S
C1866 C1862 1.350 . S
C1866 C1863 1.463 . S
C1866 N1870 1.427 . S
C1867 H1857 0.929 . S
C1867 C1865 1.433 . S
C1867 N1870 1.384 . S
C1868 H1859 0.929 . S
C1868 C1860 1.378 . S
C1868 C1863 1.350 . S
C1869 H1856 0.929 . S
C1869 C1861 1.433 . S
C1869 N1871 1.384 . S
N1870 C1866 1.427 . S
N1870 C1867 1.384 . S
N1871 C1863 1.427 . S
N1871 C1869 1.384 . S
H1872 C1878 0.930 . S
H1873 C1882 0.930 . S
H1874 C1887 0.929 . S
H1875 C1885 0.929 . S
H1876 C1880 0.929 . S
H1877 C1886 0.929 . S
C1878 H1872 0.930 . S
C1878 C1879 1.367 . S
C1878 C1886 1.378 . S
C1879 C1878 1.367 . S
C1879 C1887 1.433 . S
C1880 H1876 0.929 . S
C1880 C1882 1.378 . S
C1880 C1884 1.350 . S
C1881 C1884 1.463 . S
C1881 C1886 1.350 . S
C1881 N1889 1.427 . S
C1882 H1873 0.930 . S
C1882 C1880 1.378 . S
C1882 C1883 1.367 . S
C1883 C1882 1.367 . S
C1883 C1885 1.433 . S
C1884 C1880 1.350 . S
C1884 C1881 1.463 . S
C1884 N1888 1.427 . S
C1885 H1875 0.929 . S
C1885 C1883 1.433 . S
C1885 N1888 1.384 . S
C1886 H1877 0.929 . S
C1886 C1878 1.378 . S
C1886 C1881 1.350 . S
C1887 H1874 0.929 . S
C1887 C1879 1.433 . S
C1887 N1889 1.384 . S
N1888 C1884 1.427 . S
N1888 C1885 1.384 . S
N1889 C1881 1.427 . S
N1889 C1887 1.384 . S
H1890 C1896 0.930 . S
H1891 C1900 0.930 . S
H1892 C1905 0.929 . S
H1893 C1903 0.929 . S
H1894 C1898 0.929 . S
H1895 C1904 0.929 . S
C1896 H1890 0.930 . S
C1896 C1897 1.367 . S
C1896 C1904 1.378 . S
C1897 C1896 1.367 . S
C1897 C1905 1.433 . S
C1898 H1894 0.929 . S
C1898 C1900 1.378 . S
C1898 C1902 1.350 . S
C1899 C1902 1.463 . S
C1899 C1904 1.350 . S
C1899 N1907 1.427 . S
C1900 H1891 0.930 . S
C1900 C1898 1.378 . S
C1900 C1901 1.367 . S
C1901 C1900 1.367 . S
C1901 C1903 1.433 . S
C1902 C1898 1.350 . S
C1902 C1899 1.463 . S
C1902 N1906 1.427 . S
C1903 H1893 0.929 . S
C1903 C1901 1.433 . S
C1903 N1906 1.384 . S
C1904 H1895 0.929 . S
C1904 C1896 1.378 . S
C1904 C1899 1.350 . S
C1905 H1892 0.929 . S
C1905 C1897 1.433 . S
C1905 N1907 1.384 . S
N1906 C1902 1.427 . S
N1906 C1903 1.384 . S
N1907 C1899 1.427 . S
N1907 C1905 1.384 . S
H1908 C1914 0.930 . S
H1909 C1918 0.930 . S
H1910 C1923 0.929 . S
H1911 C1921 0.929 . S
H1912 C1916 0.929 . S
H1913 C1922 0.929 . S
C1914 H1908 0.930 . S
C1914 C1915 1.367 . S
C1914 C1922 1.378 . S
C1915 C1914 1.367 . S
C1915 C1923 1.433 . S
C1916 H1912 0.929 . S
C1916 C1918 1.378 . S
C1916 C1920 1.350 . S
C1917 C1920 1.463 . S
C1917 C1922 1.350 . S
C1917 N1925 1.427 . S
C1918 H1909 0.930 . S
C1918 C1916 1.378 . S
C1918 C1919 1.367 . S
C1919 C1918 1.367 . S
C1919 C1921 1.433 . S
C1920 C1916 1.350 . S
C1920 C1917 1.463 . S
C1920 N1924 1.427 . S
C1921 H1911 0.929 . S
C1921 C1919 1.433 . S
C1921 N1924 1.384 . S
C1922 H1913 0.929 . S
C1922 C1914 1.378 . S
C1922 C1917 1.350 . S
C1923 H1910 0.929 . S
C1923 C1915 1.433 . S
C1923 N1925 1.384 . S
N1924 C1920 1.427 . S
N1924 C1921 1.384 . S
N1925 C1917 1.427 . S
N1925 C1923 1.384 . S
H1926 C1932 0.930 . S
H1927 C1936 0.930 . S
H1928 C1941 0.929 . S
H1929 C1939 0.929 . S
H1930 C1934 0.929 . S
H1931 C1940 0.929 . S
C1932 H1926 0.930 . S
C1932 C1933 1.367 . S
C1932 C1940 1.378 . S
C1933 C1932 1.367 . S
C1933 C1941 1.433 . S
C1934 H1930 0.929 . S
C1934 C1936 1.378 . S
C1934 C1938 1.350 . S
C1935 C1938 1.463 1_655 S
C1935 C1940 1.350 . S
C1935 N1943 1.427 . S
C1936 H1927 0.930 . S
C1936 C1934 1.378 . S
C1936 C1937 1.367 . S
C1937 C1936 1.367 . S
C1937 C1939 1.433 . S
C1938 C1934 1.350 . S
C1938 C1935 1.463 1_455 S
C1938 N1942 1.427 . S
C1939 H1929 0.929 . S
C1939 C1937 1.433 . S
C1939 N1942 1.384 . S
C1940 H1931 0.929 . S
C1940 C1932 1.378 . S
C1940 C1935 1.350 . S
C1941 H1928 0.929 . S
C1941 C1933 1.433 . S
C1941 N1943 1.384 . S
N1942 C1938 1.427 . S
N1942 C1939 1.384 . S
N1943 C1935 1.427 . S
N1943 C1941 1.384 . S
H1944 C1950 0.930 . S
H1945 C1954 0.930 . S
H1946 C1959 0.929 . S
H1947 C1957 0.929 . S
H1948 C1952 0.929 . S
H1949 C1958 0.929 . S
C1950 H1944 0.930 . S
C1950 C1951 1.367 . S
C1950 C1958 1.378 . S
C1951 C1950 1.367 . S
C1951 C1959 1.433 . S
C1952 H1948 0.929 . S
C1952 C1954 1.378 . S
C1952 C1956 1.350 . S
C1953 C1956 1.463 . S
C1953 C1958 1.350 . S
C1953 N1961 1.427 . S
C1954 H1945 0.930 . S
C1954 C1952 1.378 . S
C1954 C1955 1.367 . S
C1955 C1954 1.367 . S
C1955 C1957 1.433 . S
C1956 C1952 1.350 . S
C1956 C1953 1.463 . S
C1956 N1960 1.427 . S
C1957 H1947 0.929 . S
C1957 C1955 1.433 . S
C1957 N1960 1.384 . S
C1958 H1949 0.929 . S
C1958 C1950 1.378 . S
C1958 C1953 1.350 . S
C1959 H1946 0.929 . S
C1959 C1951 1.433 . S
C1959 N1961 1.384 . S
N1960 C1956 1.427 . S
N1960 C1957 1.384 . S
N1961 C1953 1.427 . S
N1961 C1959 1.384 . S
H1962 C1968 0.930 . S
H1963 C1972 0.930 . S
H1964 C1977 0.929 . S
H1965 C1975 0.929 . S
H1966 C1970 0.929 . S
H1967 C1976 0.929 . S
C1968 H1962 0.930 . S
C1968 C1969 1.367 . S
C1968 C1976 1.378 . S
C1969 C1968 1.367 . S
C1969 C1977 1.433 . S
C1970 H1966 0.929 . S
C1970 C1972 1.378 . S
C1970 C1974 1.350 . S
C1971 C1974 1.463 1_556 S
C1971 C1976 1.350 . S
C1971 N1979 1.427 . S
C1972 H1963 0.930 . S
C1972 C1970 1.378 . S
C1972 C1973 1.367 . S
C1973 C1972 1.367 . S
C1973 C1975 1.433 . S
C1974 C1970 1.350 . S
C1974 C1971 1.463 1_554 S
C1974 N1978 1.427 . S
C1975 H1965 0.929 . S
C1975 C1973 1.433 . S
C1975 N1978 1.384 . S
C1976 H1967 0.929 . S
C1976 C1968 1.378 . S
C1976 C1971 1.350 . S
C1977 H1964 0.929 . S
C1977 C1969 1.433 . S
C1977 N1979 1.384 . S
N1978 C1974 1.427 . S
N1978 C1975 1.384 . S
N1979 C1971 1.427 . S
N1979 C1977 1.384 . S
H1980 C1986 0.930 . S
H1981 C1990 0.930 . S
H1982 C1995 0.929 . S
H1983 C1993 0.929 . S
H1984 C1988 0.929 . S
H1985 C1994 0.929 . S
C1986 H1980 0.930 . S
C1986 C1987 1.367 . S
C1986 C1994 1.378 . S
C1987 C1986 1.367 . S
C1987 C1995 1.433 . S
C1988 H1984 0.929 . S
C1988 C1990 1.378 . S
C1988 C1992 1.350 . S
C1989 C1992 1.463 . S
C1989 C1994 1.350 . S
C1989 N1997 1.427 . S
C1990 H1981 0.930 . S
C1990 C1988 1.378 . S
C1990 C1991 1.367 . S
C1991 C1990 1.367 . S
C1991 C1993 1.433 . S
C1992 C1988 1.350 . S
C1992 C1989 1.463 . S
C1992 N1996 1.427 . S
C1993 H1983 0.929 . S
C1993 C1991 1.433 . S
C1993 N1996 1.384 . S
C1994 H1985 0.929 . S
C1994 C1986 1.378 . S
C1994 C1989 1.350 . S
C1995 H1982 0.929 . S
C1995 C1987 1.433 . S
C1995 N1997 1.384 . S
N1996 C1992 1.427 . S
N1996 C1993 1.384 . S
N1997 C1989 1.427 . S
N1997 C1995 1.384 . S
H1998 C2004 0.930 . S
H1999 C2008 0.930 . S
H2000 C2013 0.929 . S
H2001 C2011 0.929 . S
H2002 C2006 0.929 . S
H2003 C2012 0.929 . S
C2004 H1998 0.930 . S
C2004 C2005 1.367 . S
C2004 C2012 1.378 . S
C2005 C2004 1.367 . S
C2005 C2013 1.433 . S
C2006 H2002 0.929 . S
C2006 C2008 1.378 . S
C2006 C2010 1.350 . S
C2007 C2010 1.463 . S
C2007 C2012 1.350 . S
C2007 N2015 1.427 . S
C2008 H1999 0.930 . S
C2008 C2006 1.378 . S
C2008 C2009 1.367 . S
C2009 C2008 1.367 . S
C2009 C2011 1.433 . S
C2010 C2006 1.350 . S
C2010 C2007 1.463 . S
C2010 N2014 1.427 . S
C2011 H2001 0.929 . S
C2011 C2009 1.433 . S
C2011 N2014 1.384 . S
C2012 H2003 0.929 . S
C2012 C2004 1.378 . S
C2012 C2007 1.350 . S
C2013 H2000 0.929 . S
C2013 C2005 1.433 . S
C2013 N2015 1.384 . S
N2014 C2010 1.427 . S
N2014 C2011 1.384 . S
N2015 C2007 1.427 . S
N2015 C2013 1.384 . S
H2016 C2022 0.930 . S
H2017 C2026 0.930 . S
H2018 C2031 0.929 . S
H2019 C2029 0.929 . S
H2020 C2024 0.929 . S
H2021 C2030 0.929 . S
C2022 H2016 0.930 . S
C2022 C2023 1.367 . S
C2022 C2030 1.378 . S
C2023 C2022 1.367 . S
C2023 C2031 1.433 . S
C2024 H2020 0.929 . S
C2024 C2026 1.378 . S
C2024 C2028 1.350 . S
C2025 C2028 1.463 . S
C2025 C2030 1.350 . S
C2025 N2033 1.427 . S
C2026 H2017 0.930 . S
C2026 C2024 1.378 . S
C2026 C2027 1.367 . S
C2027 C2026 1.367 . S
C2027 C2029 1.433 . S
C2028 C2024 1.350 . S
C2028 C2025 1.463 . S
C2028 N2032 1.427 . S
C2029 H2019 0.929 . S
C2029 C2027 1.433 . S
C2029 N2032 1.384 . S
C2030 H2021 0.929 . S
C2030 C2022 1.378 . S
C2030 C2025 1.350 . S
C2031 H2018 0.929 . S
C2031 C2023 1.433 . S
C2031 N2033 1.384 . S
N2032 C2028 1.427 . S
N2032 C2029 1.384 . S
N2033 C2025 1.427 . S
N2033 C2031 1.384 . S
H2034 C2040 0.930 1_655 S
H2035 C2044 0.930 . S
H2036 C2049 0.929 . S
H2037 C2047 0.929 . S
H2038 C2042 0.929 1_554 S
H2039 C2048 0.929 . S
C2040 H2034 0.930 1_455 S
C2040 C2041 1.367 . S
C2040 C2048 1.378 . S
C2041 C2040 1.367 . S
C2041 C2049 1.433 . S
C2042 H2038 0.929 1_556 S
C2042 C2044 1.378 . S
C2042 C2046 1.350 . S
C2043 C2046 1.463 1_554 S
C2043 C2048 1.350 . S
C2043 N2051 1.427 . S
C2044 H2035 0.930 . S
C2044 C2042 1.378 . S
C2044 C2045 1.367 . S
C2045 C2044 1.367 . S
C2045 C2047 1.433 . S
C2046 C2042 1.350 . S
C2046 C2043 1.463 1_556 S
C2046 N2050 1.427 . S
C2047 H2037 0.929 . S
C2047 C2045 1.433 . S
C2047 N2050 1.384 . S
C2048 H2039 0.929 . S
C2048 C2040 1.378 . S
C2048 C2043 1.350 . S
C2049 H2036 0.929 . S
C2049 C2041 1.433 . S
C2049 N2051 1.384 . S
N2050 C2046 1.427 . S
N2050 C2047 1.384 . S
N2051 C2043 1.427 . S
N2051 C2049 1.384 . S
H2052 C2058 0.930 . S
H2053 C2062 0.930 . S
H2054 C2067 0.929 . S
H2055 C2065 0.929 . S
H2056 C2060 0.929 . S
H2057 C2066 0.929 . S
C2058 H2052 0.930 . S
C2058 C2059 1.367 . S
C2058 C2066 1.378 . S
C2059 C2058 1.367 . S
C2059 C2067 1.433 . S
C2060 H2056 0.929 . S
C2060 C2062 1.378 . S
C2060 C2064 1.350 . S
C2061 C2064 1.463 . S
C2061 C2066 1.350 . S
C2061 N2069 1.427 . S
C2062 H2053 0.930 . S
C2062 C2060 1.378 . S
C2062 C2063 1.367 . S
C2063 C2062 1.367 . S
C2063 C2065 1.433 . S
C2064 C2060 1.350 . S
C2064 C2061 1.463 . S
C2064 N2068 1.427 . S
C2065 H2055 0.929 . S
C2065 C2063 1.433 . S
C2065 N2068 1.384 . S
C2066 H2057 0.929 . S
C2066 C2058 1.378 . S
C2066 C2061 1.350 . S
C2067 H2054 0.929 . S
C2067 C2059 1.433 . S
C2067 N2069 1.384 . S
N2068 C2064 1.427 . S
N2068 C2065 1.384 . S
N2069 C2061 1.427 . S
N2069 C2067 1.384 . S
H2070 C2076 0.930 . S
H2071 C2080 0.930 . S
H2072 C2085 0.929 . S
H2073 C2083 0.929 . S
H2074 C2078 0.929 . S
H2075 C2084 0.929 . S
C2076 H2070 0.930 . S
C2076 C2077 1.367 . S
C2076 C2084 1.378 . S
C2077 C2076 1.367 . S
C2077 C2085 1.433 . S
C2078 H2074 0.929 . S
C2078 C2080 1.378 . S
C2078 C2082 1.350 . S
C2079 C2082 1.463 . S
C2079 C2084 1.350 . S
C2079 N2087 1.427 . S
C2080 H2071 0.930 . S
C2080 C2078 1.378 . S
C2080 C2081 1.367 . S
C2081 C2080 1.367 . S
C2081 C2083 1.433 . S
C2082 C2078 1.350 . S
C2082 C2079 1.463 . S
C2082 N2086 1.427 . S
C2083 H2073 0.929 . S
C2083 C2081 1.433 . S
C2083 N2086 1.384 . S
C2084 H2075 0.929 . S
C2084 C2076 1.378 . S
C2084 C2079 1.350 . S
C2085 H2072 0.929 . S
C2085 C2077 1.433 . S
C2085 N2087 1.384 . S
N2086 C2082 1.427 . S
N2086 C2083 1.384 . S
N2087 C2079 1.427 . S
N2087 C2085 1.384 . S
H2088 C2094 0.930 . S
H2089 C2098 0.930 . S
H2090 C2103 0.929 . S
H2091 C2101 0.929 . S
H2092 C2096 0.929 . S
H2093 C2102 0.929 . S
C2094 H2088 0.930 . S
C2094 C2095 1.367 . S
C2094 C2102 1.378 . S
C2095 C2094 1.367 . S
C2095 C2103 1.433 . S
C2096 H2092 0.929 . S
C2096 C2098 1.378 . S
C2096 C2100 1.350 . S
C2097 C2100 1.463 . S
C2097 C2102 1.350 . S
C2097 N2105 1.427 . S
C2098 H2089 0.930 . S
C2098 C2096 1.378 . S
C2098 C2099 1.367 . S
C2099 C2098 1.367 . S
C2099 C2101 1.433 . S
C2100 C2096 1.350 . S
C2100 C2097 1.463 . S
C2100 N2104 1.427 . S
C2101 H2091 0.929 . S
C2101 C2099 1.433 . S
C2101 N2104 1.384 . S
C2102 H2093 0.929 . S
C2102 C2094 1.378 . S
C2102 C2097 1.350 . S
C2103 H2090 0.929 . S
C2103 C2095 1.433 . S
C2103 N2105 1.384 . S
N2104 C2100 1.427 . S
N2104 C2101 1.384 . S
N2105 C2097 1.427 . S
N2105 C2103 1.384 . S
H2106 C2112 0.930 . S
H2107 C2116 0.930 . S
H2108 C2121 0.929 . S
H2109 C2119 0.929 . S
H2110 C2114 0.929 . S
H2111 C2120 0.929 . S
C2112 H2106 0.930 . S
C2112 C2113 1.367 . S
C2112 C2120 1.378 . S
C2113 C2112 1.367 . S
C2113 C2121 1.433 . S
C2114 H2110 0.929 . S
C2114 C2116 1.378 . S
C2114 C2118 1.350 . S
C2115 C2118 1.463 . S
C2115 C2120 1.350 . S
C2115 N2123 1.427 . S
C2116 H2107 0.930 . S
C2116 C2114 1.378 . S
C2116 C2117 1.367 . S
C2117 C2116 1.367 . S
C2117 C2119 1.433 . S
C2118 C2114 1.350 . S
C2118 C2115 1.463 . S
C2118 N2122 1.427 . S
C2119 H2109 0.929 . S
C2119 C2117 1.433 . S
C2119 N2122 1.384 . S
C2120 H2111 0.929 . S
C2120 C2112 1.378 . S
C2120 C2115 1.350 . S
C2121 H2108 0.929 . S
C2121 C2113 1.433 . S
C2121 N2123 1.384 . S
N2122 C2118 1.427 . S
N2122 C2119 1.384 . S
N2123 C2115 1.427 . S
N2123 C2121 1.384 . S
H2124 C2130 0.930 . S
H2125 C2134 0.930 . S
H2126 C2139 0.929 . S
H2127 C2137 0.929 . S
H2128 C2132 0.929 . S
H2129 C2138 0.929 . S
C2130 H2124 0.930 . S
C2130 C2131 1.367 . S
C2130 C2138 1.378 . S
C2131 C2130 1.367 . S
C2131 C2139 1.433 . S
C2132 H2128 0.929 . S
C2132 C2134 1.378 . S
C2132 C2136 1.350 . S
C2133 C2136 1.463 . S
C2133 C2138 1.350 . S
C2133 N2141 1.427 . S
C2134 H2125 0.930 . S
C2134 C2132 1.378 . S
C2134 C2135 1.367 . S
C2135 C2134 1.367 . S
C2135 C2137 1.433 . S
C2136 C2132 1.350 . S
C2136 C2133 1.463 . S
C2136 N2140 1.427 . S
C2137 H2127 0.929 . S
C2137 C2135 1.433 . S
C2137 N2140 1.384 . S
C2138 H2129 0.929 . S
C2138 C2130 1.378 . S
C2138 C2133 1.350 . S
C2139 H2126 0.929 . S
C2139 C2131 1.433 . S
C2139 N2141 1.384 . S
N2140 C2136 1.427 . S
N2140 C2137 1.384 . S
N2141 C2133 1.427 . S
N2141 C2139 1.384 . S
H2142 C2148 0.930 . S
H2143 C2152 0.930 . S
H2144 C2157 0.929 . S
H2145 C2155 0.929 . S
H2146 C2150 0.929 . S
H2147 C2156 0.929 . S
C2148 H2142 0.930 . S
C2148 C2149 1.367 . S
C2148 C2156 1.378 . S
C2149 C2148 1.367 . S
C2149 C2157 1.433 . S
C2150 H2146 0.929 . S
C2150 C2152 1.378 . S
C2150 C2154 1.350 . S
C2151 C2154 1.463 . S
C2151 C2156 1.350 . S
C2151 N2159 1.427 . S
C2152 H2143 0.930 . S
C2152 C2150 1.378 . S
C2152 C2153 1.367 . S
C2153 C2152 1.367 . S
C2153 C2155 1.433 . S
C2154 C2150 1.350 . S
C2154 C2151 1.463 . S
C2154 N2158 1.427 . S
C2155 H2145 0.929 . S
C2155 C2153 1.433 . S
C2155 N2158 1.384 . S
C2156 H2147 0.929 . S
C2156 C2148 1.378 . S
C2156 C2151 1.350 . S
C2157 H2144 0.929 . S
C2157 C2149 1.433 . S
C2157 N2159 1.384 . S
N2158 C2154 1.427 . S
N2158 C2155 1.384 . S
N2159 C2151 1.427 . S
N2159 C2157 1.384 . S
H2160 C2166 0.930 . S
H2161 C2170 0.930 . S
H2162 C2175 0.929 . S
H2163 C2173 0.929 . S
H2164 C2168 0.929 . S
H2165 C2174 0.929 . S
C2166 H2160 0.930 . S
C2166 C2167 1.367 . S
C2166 C2174 1.378 . S
C2167 C2166 1.367 . S
C2167 C2175 1.433 . S
C2168 H2164 0.929 . S
C2168 C2170 1.378 . S
C2168 C2172 1.350 . S
C2169 C2172 1.463 . S
C2169 C2174 1.350 . S
C2169 N2177 1.427 . S
C2170 H2161 0.930 . S
C2170 C2168 1.378 . S
C2170 C2171 1.367 . S
C2171 C2170 1.367 . S
C2171 C2173 1.433 . S
C2172 C2168 1.350 . S
C2172 C2169 1.463 . S
C2172 N2176 1.427 . S
C2173 H2163 0.929 . S
C2173 C2171 1.433 . S
C2173 N2176 1.384 . S
C2174 H2165 0.929 . S
C2174 C2166 1.378 . S
C2174 C2169 1.350 . S
C2175 H2162 0.929 . S
C2175 C2167 1.433 . S
C2175 N2177 1.384 . S
N2176 C2172 1.427 . S
N2176 C2173 1.384 . S
N2177 C2169 1.427 . S
N2177 C2175 1.384 . S
H2178 C2184 0.930 . S
H2179 C2188 0.930 . S
H2180 C2193 0.929 1_554 S
H2181 C2191 0.929 . S
H2182 C2186 0.929 . S
H2183 C2192 0.929 . S
C2184 H2178 0.930 . S
C2184 C2185 1.367 . S
C2184 C2192 1.378 . S
C2185 C2184 1.367 . S
C2185 C2193 1.433 . S
C2186 H2182 0.929 . S
C2186 C2188 1.378 . S
C2186 C2190 1.350 . S
C2187 C2190 1.463 . S
C2187 C2192 1.350 . S
C2187 N2195 1.427 . S
C2188 H2179 0.930 . S
C2188 C2186 1.378 . S
C2188 C2189 1.367 . S
C2189 C2188 1.367 . S
C2189 C2191 1.433 . S
C2190 C2186 1.350 . S
C2190 C2187 1.463 . S
C2190 N2194 1.427 . S
C2191 H2181 0.929 . S
C2191 C2189 1.433 . S
C2191 N2194 1.384 . S
C2192 H2183 0.929 . S
C2192 C2184 1.378 . S
C2192 C2187 1.350 . S
C2193 H2180 0.929 1_556 S
C2193 C2185 1.433 . S
C2193 N2195 1.384 . S
N2194 C2190 1.427 . S
N2194 C2191 1.384 . S
N2195 C2187 1.427 . S
N2195 C2193 1.384 . S
H2196 C2202 0.930 . S
H2197 C2206 0.930 . S
H2198 C2211 0.929 . S
H2199 C2209 0.929 . S
H2200 C2204 0.929 . S
H2201 C2210 0.929 . S
C2202 H2196 0.930 . S
C2202 C2203 1.367 . S
C2202 C2210 1.378 . S
C2203 C2202 1.367 . S
C2203 C2211 1.433 . S
C2204 H2200 0.929 . S
C2204 C2206 1.378 . S
C2204 C2208 1.350 . S
C2205 C2208 1.463 . S
C2205 C2210 1.350 . S
C2205 N2213 1.427 . S
C2206 H2197 0.930 . S
C2206 C2204 1.378 . S
C2206 C2207 1.367 . S
C2207 C2206 1.367 . S
C2207 C2209 1.433 . S
C2208 C2204 1.350 . S
C2208 C2205 1.463 . S
C2208 N2212 1.427 . S
C2209 H2199 0.929 . S
C2209 C2207 1.433 . S
C2209 N2212 1.384 . S
C2210 H2201 0.929 . S
C2210 C2202 1.378 . S
C2210 C2205 1.350 . S
C2211 H2198 0.929 . S
C2211 C2203 1.433 . S
C2211 N2213 1.384 . S
N2212 C2208 1.427 . S
N2212 C2209 1.384 . S
N2213 C2205 1.427 . S
N2213 C2211 1.384 . S
H2214 C2220 0.930 . S
H2215 C2224 0.930 . S
H2216 C2229 0.929 . S
H2217 C2227 0.929 . S
H2218 C2222 0.929 . S
H2219 C2228 0.929 . S
C2220 H2214 0.930 . S
C2220 C2221 1.367 . S
C2220 C2228 1.378 . S
C2221 C2220 1.367 . S
C2221 C2229 1.433 . S
C2222 H2218 0.929 . S
C2222 C2224 1.378 . S
C2222 C2226 1.350 . S
C2223 C2226 1.463 . S
C2223 C2228 1.350 . S
C2223 N2231 1.427 . S
C2224 H2215 0.930 . S
C2224 C2222 1.378 . S
C2224 C2225 1.367 . S
C2225 C2224 1.367 . S
C2225 C2227 1.433 . S
C2226 C2222 1.350 . S
C2226 C2223 1.463 . S
C2226 N2230 1.427 . S
C2227 H2217 0.929 . S
C2227 C2225 1.433 . S
C2227 N2230 1.384 . S
C2228 H2219 0.929 . S
C2228 C2220 1.378 . S
C2228 C2223 1.350 . S
C2229 H2216 0.929 . S
C2229 C2221 1.433 . S
C2229 N2231 1.384 . S
N2230 C2226 1.427 . S
N2230 C2227 1.384 . S
N2231 C2223 1.427 . S
N2231 C2229 1.384 . S
H2232 C2238 0.930 . S
H2233 C2242 0.930 . S
H2234 C2247 0.929 . S
H2235 C2245 0.929 . S
H2236 C2240 0.929 . S
H2237 C2246 0.929 . S
C2238 H2232 0.930 . S
C2238 C2239 1.367 . S
C2238 C2246 1.378 . S
C2239 C2238 1.367 . S
C2239 C2247 1.433 . S
C2240 H2236 0.929 . S
C2240 C2242 1.378 . S
C2240 C2244 1.350 . S
C2241 C2244 1.463 . S
C2241 C2246 1.350 . S
C2241 N2249 1.427 . S
C2242 H2233 0.930 . S
C2242 C2240 1.378 . S
C2242 C2243 1.367 . S
C2243 C2242 1.367 . S
C2243 C2245 1.433 . S
C2244 C2240 1.350 . S
C2244 C2241 1.463 . S
C2244 N2248 1.427 . S
C2245 H2235 0.929 . S
C2245 C2243 1.433 . S
C2245 N2248 1.384 . S
C2246 H2237 0.929 . S
C2246 C2238 1.378 . S
C2246 C2241 1.350 . S
C2247 H2234 0.929 . S
C2247 C2239 1.433 . S
C2247 N2249 1.384 . S
N2248 C2244 1.427 . S
N2248 C2245 1.384 . S
N2249 C2241 1.427 . S
N2249 C2247 1.384 . S
H2250 C2256 0.930 . S
H2251 C2260 0.930 . S
H2252 C2265 0.929 . S
H2253 C2263 0.929 . S
H2254 C2258 0.929 . S
H2255 C2264 0.929 . S
C2256 H2250 0.930 . S
C2256 C2257 1.367 . S
C2256 C2264 1.378 . S
C2257 C2256 1.367 . S
C2257 C2265 1.433 . S
C2258 H2254 0.929 . S
C2258 C2260 1.378 . S
C2258 C2262 1.350 . S
C2259 C2262 1.463 . S
C2259 C2264 1.350 . S
C2259 N2267 1.427 . S
C2260 H2251 0.930 . S
C2260 C2258 1.378 . S
C2260 C2261 1.367 . S
C2261 C2260 1.367 . S
C2261 C2263 1.433 . S
C2262 C2258 1.350 . S
C2262 C2259 1.463 . S
C2262 N2266 1.427 . S
C2263 H2253 0.929 . S
C2263 C2261 1.433 . S
C2263 N2266 1.384 . S
C2264 H2255 0.929 . S
C2264 C2256 1.378 . S
C2264 C2259 1.350 . S
C2265 H2252 0.929 . S
C2265 C2257 1.433 . S
C2265 N2267 1.384 . S
N2266 C2262 1.427 . S
N2266 C2263 1.384 . S
N2267 C2259 1.427 . S
N2267 C2265 1.384 . S
H2268 C2274 0.930 . S
H2269 C2278 0.930 . S
H2270 C2283 0.929 . S
H2271 C2281 0.929 . S
H2272 C2276 0.929 . S
H2273 C2282 0.929 . S
C2274 H2268 0.930 . S
C2274 C2275 1.367 . S
C2274 C2282 1.378 . S
C2275 C2274 1.367 . S
C2275 C2283 1.433 . S
C2276 H2272 0.929 . S
C2276 C2278 1.378 . S
C2276 C2280 1.350 . S
C2277 C2280 1.463 . S
C2277 C2282 1.350 . S
C2277 N2285 1.427 . S
C2278 H2269 0.930 . S
C2278 C2276 1.378 . S
C2278 C2279 1.367 . S
C2279 C2278 1.367 . S
C2279 C2281 1.433 . S
C2280 C2276 1.350 . S
C2280 C2277 1.463 . S
C2280 N2284 1.427 . S
C2281 H2271 0.929 . S
C2281 C2279 1.433 . S
C2281 N2284 1.384 . S
C2282 H2273 0.929 . S
C2282 C2274 1.378 . S
C2282 C2277 1.350 . S
C2283 H2270 0.929 . S
C2283 C2275 1.433 . S
C2283 N2285 1.384 . S
N2284 C2280 1.427 . S
N2284 C2281 1.384 . S
N2285 C2277 1.427 . S
N2285 C2283 1.384 . S
H2286 C2292 0.930 . S
H2287 C2296 0.930 . S
H2288 C2301 0.929 . S
H2289 C2299 0.929 . S
H2290 C2294 0.929 . S
H2291 C2300 0.929 . S
C2292 H2286 0.930 . S
C2292 C2293 1.367 . S
C2292 C2300 1.378 . S
C2293 C2292 1.367 . S
C2293 C2301 1.433 . S
C2294 H2290 0.929 . S
C2294 C2296 1.378 . S
C2294 C2298 1.350 . S
C2295 C2298 1.463 . S
C2295 C2300 1.350 . S
C2295 N2303 1.427 . S
C2296 H2287 0.930 . S
C2296 C2294 1.378 . S
C2296 C2297 1.367 . S
C2297 C2296 1.367 . S
C2297 C2299 1.433 . S
C2298 C2294 1.350 . S
C2298 C2295 1.463 . S
C2298 N2302 1.427 . S
C2299 H2289 0.929 . S
C2299 C2297 1.433 . S
C2299 N2302 1.384 . S
C2300 H2291 0.929 . S
C2300 C2292 1.378 . S
C2300 C2295 1.350 . S
C2301 H2288 0.929 . S
C2301 C2293 1.433 . S
C2301 N2303 1.384 . S
N2302 C2298 1.427 . S
N2302 C2299 1.384 . S
N2303 C2295 1.427 . S
N2303 C2301 1.384 . S
H2304 C2310 0.930 . S
H2305 C2314 0.930 . S
H2306 C2319 0.929 . S
H2307 C2317 0.929 . S
H2308 C2312 0.929 . S
H2309 C2318 0.929 . S
C2310 H2304 0.930 . S
C2310 C2311 1.367 . S
C2310 C2318 1.378 . S
C2311 C2310 1.367 . S
C2311 C2319 1.433 . S
C2312 H2308 0.929 . S
C2312 C2314 1.378 . S
C2312 C2316 1.350 . S
C2313 C2316 1.463 . S
C2313 C2318 1.350 . S
C2313 N2321 1.427 . S
C2314 H2305 0.930 . S
C2314 C2312 1.378 . S
C2314 C2315 1.367 . S
C2315 C2314 1.367 . S
C2315 C2317 1.433 . S
C2316 C2312 1.350 . S
C2316 C2313 1.463 . S
C2316 N2320 1.427 . S
C2317 H2307 0.929 . S
C2317 C2315 1.433 . S
C2317 N2320 1.384 . S
C2318 H2309 0.929 . S
C2318 C2310 1.378 . S
C2318 C2313 1.350 . S
C2319 H2306 0.929 . S
C2319 C2311 1.433 . S
C2319 N2321 1.384 . S
N2320 C2316 1.427 . S
N2320 C2317 1.384 . S
N2321 C2313 1.427 . S
N2321 C2319 1.384 . S
H2322 C2328 0.930 1_554 S
H2323 C2332 0.930 . S
H2324 C2337 0.929 . S
H2325 C2335 0.929 . S
H2326 C2330 0.929 . S
H2327 C2336 0.929 . S
C2328 H2322 0.930 1_556 S
C2328 C2329 1.367 . S
C2328 C2336 1.378 . S
C2329 C2328 1.367 . S
C2329 C2337 1.433 . S
C2330 H2326 0.929 . S
C2330 C2332 1.378 . S
C2330 C2334 1.350 . S
C2331 C2334 1.463 . S
C2331 C2336 1.350 . S
C2331 N2339 1.427 . S
C2332 H2323 0.930 . S
C2332 C2330 1.378 . S
C2332 C2333 1.367 . S
C2333 C2332 1.367 . S
C2333 C2335 1.433 . S
C2334 C2330 1.350 . S
C2334 C2331 1.463 . S
C2334 N2338 1.427 . S
C2335 H2325 0.929 . S
C2335 C2333 1.433 . S
C2335 N2338 1.384 . S
C2336 H2327 0.929 . S
C2336 C2328 1.378 . S
C2336 C2331 1.350 . S
C2337 H2324 0.929 . S
C2337 C2329 1.433 . S
C2337 N2339 1.384 . S
N2338 C2334 1.427 . S
N2338 C2335 1.384 . S
N2339 C2331 1.427 . S
N2339 C2337 1.384 . S
H2340 C2346 0.930 1_545 S
H2341 C2350 0.930 . S
H2342 C2355 0.929 . S
H2343 C2353 0.929 . S
H2344 C2348 0.929 . S
H2345 C2354 0.929 1_545 S
C2346 H2340 0.930 1_565 S
C2346 C2347 1.367 . S
C2346 C2354 1.378 . S
C2347 C2346 1.367 . S
C2347 C2355 1.433 . S
C2348 H2344 0.929 . S
C2348 C2350 1.378 . S
C2348 C2352 1.350 . S
C2349 C2352 1.463 . S
C2349 C2354 1.350 . S
C2349 N2357 1.427 . S
C2350 H2341 0.930 . S
C2350 C2348 1.378 . S
C2350 C2351 1.367 . S
C2351 C2350 1.367 . S
C2351 C2353 1.433 . S
C2352 C2348 1.350 . S
C2352 C2349 1.463 . S
C2352 N2356 1.427 . S
C2353 H2343 0.929 . S
C2353 C2351 1.433 . S
C2353 N2356 1.384 . S
C2354 H2345 0.929 1_565 S
C2354 C2346 1.378 . S
C2354 C2349 1.350 . S
C2355 H2342 0.929 . S
C2355 C2347 1.433 . S
C2355 N2357 1.384 . S
N2356 C2352 1.427 . S
N2356 C2353 1.384 . S
N2357 C2349 1.427 . S
N2357 C2355 1.384 . S
H2358 C2364 0.930 . S
H2359 C2368 0.930 . S
H2360 C2373 0.929 . S
H2361 C2371 0.929 . S
H2362 C2366 0.929 1_455 S
H2363 C2372 0.929 . S
C2364 H2358 0.930 . S
C2364 C2365 1.367 . S
C2364 C2372 1.378 . S
C2365 C2364 1.367 . S
C2365 C2373 1.433 . S
C2366 H2362 0.929 1_655 S
C2366 C2368 1.378 . S
C2366 C2370 1.350 . S
C2367 C2370 1.463 1_455 S
C2367 C2372 1.350 . S
C2367 N2375 1.427 . S
C2368 H2359 0.930 . S
C2368 C2366 1.378 . S
C2368 C2369 1.367 . S
C2369 C2368 1.367 . S
C2369 C2371 1.433 . S
C2370 C2366 1.350 . S
C2370 C2367 1.463 1_655 S
C2370 N2374 1.427 . S
C2371 H2361 0.929 . S
C2371 C2369 1.433 . S
C2371 N2374 1.384 . S
C2372 H2363 0.929 . S
C2372 C2364 1.378 . S
C2372 C2367 1.350 . S
C2373 H2360 0.929 . S
C2373 C2365 1.433 . S
C2373 N2375 1.384 . S
N2374 C2370 1.427 . S
N2374 C2371 1.384 . S
N2375 C2367 1.427 . S
N2375 C2373 1.384 . S
C659 C330 1.177 . S
C655 C10 1.232 . S
C673 C16 1.523 . S
C677 C350 1.544 . S
C695 C370 1.136 . S
C691 C30 1.257 . S
C713 C389 1.523 . S
C709 C42 1.504 . S
C731 C347 1.459 . S
C727 C57 1.437 . S
C745 C69 1.287 . S
C749 C372 1.221 . S
C767 C392 1.420 . S
C763 C83 1.419 . S
C781 C101 1.333 . S
C785 C328 1.209 . S
C799 C108 1.564 . S
C803 C325 1.459 . S
C821 C348 1.279 . S
C817 C120 1.361 . S
C839 C371 1.463 . S
C835 C133 1.424 . S
C857 C393 1.423 . S
C853 C147 1.481 . S
C875 C351 1.053 . S
C871 C114 1.108 . S
C893 C367 1.111 . S
C889 C122 1.218 . S
C907 C135 1.251 . S
C911 C390 1.185 . S
C929 C329 1.083 . S
C925 C153 1.072 . S
C943 C160 1.453 . S
C947 C326 1.486 . S
C961 C174 0.993 . S
C965 C409 0.893 . S
C983 C431 1.440 . S
C979 C187 1.427 . S
C1001 C454 1.141 . S
C997 C205 1.297 . S
C1015 C212 1.486 . S
C1019 C327 1.438 . S
C1033 C226 1.540 . S
C1037 C369 1.474 . S
C1055 C451 1.220 . S
C1051 C185 1.379 . S
C1073 C412 0.967 . S
C1069 C244 1.077 . S
C1091 C477 1.079 . S
C1087 C23 1.128 . S
C1109 C497 1.597 . S
C1105 C5 1.606 . S
C1123 C49 1.192 . S
C1127 C519 1.134 . S
C1141 C29 1.240 . S
C1145 C536 1.234 . S
C1159 C94 1.690 . S
C1163 C494 1.680 . S
C1177 C88 1.274 . S
C1181 C517 1.124 . S
C1199 C539 1.312 . S
C1195 C70 1.317 . S
C1213 C62 1.328 . S
C1217 C475 1.156 . S
C1231 C257 1.142 . S
C1235 C472 1.018 . S
C1253 C495 1.444 . S
C1249 C200 1.550 . S
C1271 C514 1.281 . S
C1267 C211 1.440 . S
C1289 C540 1.315 . S
C1285 C179 1.397 . S
C1307 C498 1.095 . S
C1303 C251 1.160 . S
C1325 C518 1.084 . S
C1321 C198 1.089 . S
C1343 C537 0.966 . S
C1339 C213 1.021 . S
C1357 C173 1.364 . S
C1361 C476 1.368 . S
C1379 C473 1.427 . S
C1375 C264 1.430 . S
C1393 C148 1.276 . S
C1397 C556 1.080 . S
C1415 C579 1.385 . S
C1411 C278 1.459 . S
C1429 C127 1.340 . S
C1433 C601 1.138 . S
C1451 C474 1.362 . S
C1447 C140 1.435 . S
C1469 C515 1.424 . S
C1465 C289 1.429 . S
C1487 C598 0.961 . S
C1483 C276 1.107 . S
C1501 C303 0.985 . S
C1505 C559 0.888 . S
C1519 C36 1.227 . S
C1523 C624 1.173 . S
C1537 C44 1.521 . S
C1541 C413 1.544 . S
C1559 C433 1.148 . S
C1555 C4 1.243 . S
C1573 C18 1.508 . S
C1577 C452 1.522 . S
C1591 C81 1.444 . S
C1595 C410 1.455 . S
C1609 C95 1.287 . S
C1613 C435 1.236 . S
C1631 C455 1.427 . S
C1627 C55 1.414 . S
C1649 C622 1.213 . S
C1645 C75 1.328 . S
C1667 C619 1.465 . S
C1663 C277 1.575 . S
C1685 C411 1.296 . S
C1681 C263 1.368 . S
C1703 C434 1.458 . S
C1699 C302 1.428 . S
C1717 C290 1.479 . S
C1721 C456 1.418 . S
C1739 C414 1.036 . S
C1735 C283 1.107 . S
C1753 C265 1.227 . S
C1757 C430 1.092 . S
C1775 C453 1.161 . S
C1771 C304 1.241 . S
C1789 C296 1.065 . S
C1793 C623 1.082 . S
C1811 C620 1.486 . S
C1807 C199 1.457 . S
C1825 C224 1.008 . S
C1829 C346 0.921 . S
C1847 C368 1.442 . S
C1843 C252 1.424 . S
C1861 C166 1.303 . S
C1865 C391 1.119 . S
C1883 C621 1.449 . S
C1879 C238 1.496 . S
C1901 C432 1.457 . S
C1897 C172 1.531 . S
C1919 C388 1.224 . S
C1915 C250 1.381 . S
C1937 C349 0.987 . S
C1933 C218 1.066 . S
C1951 C43 1.119 . S
C1955 C645 1.060 . S
C1969 C31 1.607 . S
C1973 C560 1.598 . S
C1987 C17 1.197 . S
C1991 C582 1.148 . S
C2009 C599 1.252 . S
C2005 C3 1.255 . S
C2027 C557 1.678 . S
C2023 C68 1.689 . S
C2041 C56 1.267 . S
C2045 C580 1.102 . S
C2063 C602 1.326 . S
C2059 C96 1.328 . S
C2077 C82 1.330 . S
C2081 C643 1.172 . S
C2099 C640 1.019 . S
C2095 C192 1.142 . S
C2113 C161 1.552 . S
C2117 C558 1.449 . S
C2131 C237 1.446 . S
C2135 C577 1.290 . S
C2153 C603 1.306 . S
C2149 C225 1.393 . S
C2171 C561 1.104 . S
C2167 C186 1.163 . S
C2185 C159 1.084 . S
C2189 C581 1.078 . S
C2207 C600 0.975 . S
C2203 C239 1.031 . S
C2225 C644 1.375 . S
C2221 C231 1.371 . S
C2243 C641 1.427 . S
C2239 C121 1.430 . S
C2261 C493 1.096 . S
C2257 C291 1.281 . S
C2275 C109 1.458 . S
C2279 C516 1.377 . S
C2293 C270 1.329 . S
C2297 C538 1.104 . S
C2315 C642 1.379 . S
C2311 C309 1.440 . S
C2333 C578 1.424 . S
C2329 C146 1.431 . S
C2351 C535 0.945 . S
C2347 C107 1.094 . S
C2369 C496 0.893 . S
C2365 C134 0.988 . S
