# Generated by pormake.
# Topology gar, (4,6)-cn, num edge types: 1
# Building blocks:
#     Node 0, Type 0, BuildingBlock: UXUYUI_clean_sbu_0, # of connection points: 4
#     Node 1, Type 0, BuildingBlock: UXUYUI_clean_sbu_0, # of connection points: 4
#     Node 2, Type 0, BuildingBlock: UXUYUI_clean_sbu_0, # of connection points: 4
#     Node 3, Type 0, BuildingBlock: UXUYUI_clean_sbu_0, # of connection points: 4
#     Node 4, Type 0, BuildingBlock: UXUYUI_clean_sbu_0, # of connection points: 4
#     Node 5, Type 0, BuildingBlock: UXUYUI_clean_sbu_0, # of connection points: 4
#     Node 6, Type 0, BuildingBlock: UXUYUI_clean_sbu_0, # of connection points: 4
#     Node 7, Type 0, BuildingBlock: UXUYUI_clean_sbu_0, # of connection points: 4
#     Node 8, Type 0, BuildingBlock: UXUYUI_clean_sbu_0, # of connection points: 4
#     Node 9, Type 0, BuildingBlock: UXUYUI_clean_sbu_0, # of connection points: 4
#     Node 10, Type 0, BuildingBlock: UXUYUI_clean_sbu_0, # of connection points: 4
#     Node 11, Type 0, BuildingBlock: UXUYUI_clean_sbu_0, # of connection points: 4
#     Node 12, Type 0, BuildingBlock: UXUYUI_clean_sbu_0, # of connection points: 4
#     Node 13, Type 0, BuildingBlock: UXUYUI_clean_sbu_0, # of connection points: 4
#     Node 14, Type 0, BuildingBlock: UXUYUI_clean_sbu_0, # of connection points: 4
#     Node 15, Type 0, BuildingBlock: UXUYUI_clean_sbu_0, # of connection points: 4
#     Node 16, Type 0, BuildingBlock: UXUYUI_clean_sbu_0, # of connection points: 4
#     Node 17, Type 0, BuildingBlock: UXUYUI_clean_sbu_0, # of connection points: 4
#     Node 18, Type 0, BuildingBlock: UXUYUI_clean_sbu_0, # of connection points: 4
#     Node 19, Type 0, BuildingBlock: UXUYUI_clean_sbu_0, # of connection points: 4
#     Node 20, Type 0, BuildingBlock: UXUYUI_clean_sbu_0, # of connection points: 4
#     Node 21, Type 0, BuildingBlock: UXUYUI_clean_sbu_0, # of connection points: 4
#     Node 22, Type 0, BuildingBlock: UXUYUI_clean_sbu_0, # of connection points: 4
#     Node 23, Type 0, BuildingBlock: UXUYUI_clean_sbu_0, # of connection points: 4
#     Node 24, Type 1, BuildingBlock: KUMJIN_clean_sbu_1, # of connection points: 6
#     Node 25, Type 1, BuildingBlock: KUMJIN_clean_sbu_1, # of connection points: 6
#     Node 26, Type 1, BuildingBlock: KUMJIN_clean_sbu_1, # of connection points: 6
#     Node 27, Type 1, BuildingBlock: KUMJIN_clean_sbu_1, # of connection points: 6
#     Node 28, Type 1, BuildingBlock: KUMJIN_clean_sbu_1, # of connection points: 6
#     Node 29, Type 1, BuildingBlock: KUMJIN_clean_sbu_1, # of connection points: 6
#     Node 30, Type 1, BuildingBlock: KUMJIN_clean_sbu_1, # of connection points: 6
#     Node 31, Type 1, BuildingBlock: KUMJIN_clean_sbu_1, # of connection points: 6
#     Node 32, Type 1, BuildingBlock: KUMJIN_clean_sbu_1, # of connection points: 6
#     Node 33, Type 1, BuildingBlock: KUMJIN_clean_sbu_1, # of connection points: 6
#     Node 34, Type 1, BuildingBlock: KUMJIN_clean_sbu_1, # of connection points: 6
#     Node 35, Type 1, BuildingBlock: KUMJIN_clean_sbu_1, # of connection points: 6
#     Node 36, Type 1, BuildingBlock: KUMJIN_clean_sbu_1, # of connection points: 6
#     Node 37, Type 1, BuildingBlock: KUMJIN_clean_sbu_1, # of connection points: 6
#     Node 38, Type 1, BuildingBlock: KUMJIN_clean_sbu_1, # of connection points: 6
#     Node 39, Type 1, BuildingBlock: KUMJIN_clean_sbu_1, # of connection points: 6
#     Edge 40, Type (0, 1), BuildingBlock: XIVTED_clean_linker_0, # of connection points: 2
#     Edge 41, Type (0, 1), BuildingBlock: XIVTED_clean_linker_0, # of connection points: 2
#     Edge 42, Type (0, 1), BuildingBlock: XIVTED_clean_linker_0, # of connection points: 2
#     Edge 43, Type (0, 1), BuildingBlock: XIVTED_clean_linker_0, # of connection points: 2
#     Edge 44, Type (0, 1), BuildingBlock: XIVTED_clean_linker_0, # of connection points: 2
#     Edge 45, Type (0, 1), BuildingBlock: XIVTED_clean_linker_0, # of connection points: 2
#     Edge 46, Type (0, 1), BuildingBlock: XIVTED_clean_linker_0, # of connection points: 2
#     Edge 47, Type (0, 1), BuildingBlock: XIVTED_clean_linker_0, # of connection points: 2
#     Edge 48, Type (0, 1), BuildingBlock: XIVTED_clean_linker_0, # of connection points: 2
#     Edge 49, Type (0, 1), BuildingBlock: XIVTED_clean_linker_0, # of connection points: 2
#     Edge 50, Type (0, 1), BuildingBlock: XIVTED_clean_linker_0, # of connection points: 2
#     Edge 51, Type (0, 1), BuildingBlock: XIVTED_clean_linker_0, # of connection points: 2
#     Edge 52, Type (0, 1), BuildingBlock: XIVTED_clean_linker_0, # of connection points: 2
#     Edge 53, Type (0, 1), BuildingBlock: XIVTED_clean_linker_0, # of connection points: 2
#     Edge 54, Type (0, 1), BuildingBlock: XIVTED_clean_linker_0, # of connection points: 2
#     Edge 55, Type (0, 1), BuildingBlock: XIVTED_clean_linker_0, # of connection points: 2
#     Edge 56, Type (0, 1), BuildingBlock: XIVTED_clean_linker_0, # of connection points: 2
#     Edge 57, Type (0, 1), BuildingBlock: XIVTED_clean_linker_0, # of connection points: 2
#     Edge 58, Type (0, 1), BuildingBlock: XIVTED_clean_linker_0, # of connection points: 2
#     Edge 59, Type (0, 1), BuildingBlock: XIVTED_clean_linker_0, # of connection points: 2
#     Edge 60, Type (0, 1), BuildingBlock: XIVTED_clean_linker_0, # of connection points: 2
#     Edge 61, Type (0, 1), BuildingBlock: XIVTED_clean_linker_0, # of connection points: 2
#     Edge 62, Type (0, 1), BuildingBlock: XIVTED_clean_linker_0, # of connection points: 2
#     Edge 63, Type (0, 1), BuildingBlock: XIVTED_clean_linker_0, # of connection points: 2
#     Edge 64, Type (0, 1), BuildingBlock: XIVTED_clean_linker_0, # of connection points: 2
#     Edge 65, Type (0, 1), BuildingBlock: XIVTED_clean_linker_0, # of connection points: 2
#     Edge 66, Type (0, 1), BuildingBlock: XIVTED_clean_linker_0, # of connection points: 2
#     Edge 67, Type (0, 1), BuildingBlock: XIVTED_clean_linker_0, # of connection points: 2
#     Edge 68, Type (0, 1), BuildingBlock: XIVTED_clean_linker_0, # of connection points: 2
#     Edge 69, Type (0, 1), BuildingBlock: XIVTED_clean_linker_0, # of connection points: 2
#     Edge 70, Type (0, 1), BuildingBlock: XIVTED_clean_linker_0, # of connection points: 2
#     Edge 71, Type (0, 1), BuildingBlock: XIVTED_clean_linker_0, # of connection points: 2
#     Edge 72, Type (0, 1), BuildingBlock: XIVTED_clean_linker_0, # of connection points: 2
#     Edge 73, Type (0, 1), BuildingBlock: XIVTED_clean_linker_0, # of connection points: 2
#     Edge 74, Type (0, 1), BuildingBlock: XIVTED_clean_linker_0, # of connection points: 2
#     Edge 75, Type (0, 1), BuildingBlock: XIVTED_clean_linker_0, # of connection points: 2
#     Edge 76, Type (0, 1), BuildingBlock: XIVTED_clean_linker_0, # of connection points: 2
#     Edge 77, Type (0, 1), BuildingBlock: XIVTED_clean_linker_0, # of connection points: 2
#     Edge 78, Type (0, 1), BuildingBlock: XIVTED_clean_linker_0, # of connection points: 2
#     Edge 79, Type (0, 1), BuildingBlock: XIVTED_clean_linker_0, # of connection points: 2
#     Edge 80, Type (0, 1), BuildingBlock: XIVTED_clean_linker_0, # of connection points: 2
#     Edge 81, Type (0, 1), BuildingBlock: XIVTED_clean_linker_0, # of connection points: 2
#     Edge 82, Type (0, 1), BuildingBlock: XIVTED_clean_linker_0, # of connection points: 2
#     Edge 83, Type (0, 1), BuildingBlock: XIVTED_clean_linker_0, # of connection points: 2
#     Edge 84, Type (0, 1), BuildingBlock: XIVTED_clean_linker_0, # of connection points: 2
#     Edge 85, Type (0, 1), BuildingBlock: XIVTED_clean_linker_0, # of connection points: 2
#     Edge 86, Type (0, 1), BuildingBlock: XIVTED_clean_linker_0, # of connection points: 2
#     Edge 87, Type (0, 1), BuildingBlock: XIVTED_clean_linker_0, # of connection points: 2
#     Edge 88, Type (0, 1), BuildingBlock: XIVTED_clean_linker_0, # of connection points: 2
#     Edge 89, Type (0, 1), BuildingBlock: XIVTED_clean_linker_0, # of connection points: 2
#     Edge 90, Type (0, 1), BuildingBlock: XIVTED_clean_linker_0, # of connection points: 2
#     Edge 91, Type (0, 1), BuildingBlock: XIVTED_clean_linker_0, # of connection points: 2
#     Edge 92, Type (0, 1), BuildingBlock: XIVTED_clean_linker_0, # of connection points: 2
#     Edge 93, Type (0, 1), BuildingBlock: XIVTED_clean_linker_0, # of connection points: 2
#     Edge 94, Type (0, 1), BuildingBlock: XIVTED_clean_linker_0, # of connection points: 2
#     Edge 95, Type (0, 1), BuildingBlock: XIVTED_clean_linker_0, # of connection points: 2
#     Edge 96, Type (0, 1), BuildingBlock: XIVTED_clean_linker_0, # of connection points: 2
#     Edge 97, Type (0, 1), BuildingBlock: XIVTED_clean_linker_0, # of connection points: 2
#     Edge 98, Type (0, 1), BuildingBlock: XIVTED_clean_linker_0, # of connection points: 2
#     Edge 99, Type (0, 1), BuildingBlock: XIVTED_clean_linker_0, # of connection points: 2
#     Edge 100, Type (0, 1), BuildingBlock: XIVTED_clean_linker_0, # of connection points: 2
#     Edge 101, Type (0, 1), BuildingBlock: XIVTED_clean_linker_0, # of connection points: 2
#     Edge 102, Type (0, 1), BuildingBlock: XIVTED_clean_linker_0, # of connection points: 2
#     Edge 103, Type (0, 1), BuildingBlock: XIVTED_clean_linker_0, # of connection points: 2
#     Edge 104, Type (0, 1), BuildingBlock: XIVTED_clean_linker_0, # of connection points: 2
#     Edge 105, Type (0, 1), BuildingBlock: XIVTED_clean_linker_0, # of connection points: 2
#     Edge 106, Type (0, 1), BuildingBlock: XIVTED_clean_linker_0, # of connection points: 2
#     Edge 107, Type (0, 1), BuildingBlock: XIVTED_clean_linker_0, # of connection points: 2
#     Edge 108, Type (0, 1), BuildingBlock: XIVTED_clean_linker_0, # of connection points: 2
#     Edge 109, Type (0, 1), BuildingBlock: XIVTED_clean_linker_0, # of connection points: 2
#     Edge 110, Type (0, 1), BuildingBlock: XIVTED_clean_linker_0, # of connection points: 2
#     Edge 111, Type (0, 1), BuildingBlock: XIVTED_clean_linker_0, # of connection points: 2
#     Edge 112, Type (0, 1), BuildingBlock: XIVTED_clean_linker_0, # of connection points: 2
#     Edge 113, Type (0, 1), BuildingBlock: XIVTED_clean_linker_0, # of connection points: 2
#     Edge 114, Type (0, 1), BuildingBlock: XIVTED_clean_linker_0, # of connection points: 2
#     Edge 115, Type (0, 1), BuildingBlock: XIVTED_clean_linker_0, # of connection points: 2
#     Edge 116, Type (0, 1), BuildingBlock: XIVTED_clean_linker_0, # of connection points: 2
#     Edge 117, Type (0, 1), BuildingBlock: XIVTED_clean_linker_0, # of connection points: 2
#     Edge 118, Type (0, 1), BuildingBlock: XIVTED_clean_linker_0, # of connection points: 2
#     Edge 119, Type (0, 1), BuildingBlock: XIVTED_clean_linker_0, # of connection points: 2
#     Edge 120, Type (0, 1), BuildingBlock: XIVTED_clean_linker_0, # of connection points: 2
#     Edge 121, Type (0, 1), BuildingBlock: XIVTED_clean_linker_0, # of connection points: 2
#     Edge 122, Type (0, 1), BuildingBlock: XIVTED_clean_linker_0, # of connection points: 2
#     Edge 123, Type (0, 1), BuildingBlock: XIVTED_clean_linker_0, # of connection points: 2
#     Edge 124, Type (0, 1), BuildingBlock: XIVTED_clean_linker_0, # of connection points: 2
#     Edge 125, Type (0, 1), BuildingBlock: XIVTED_clean_linker_0, # of connection points: 2
#     Edge 126, Type (0, 1), BuildingBlock: XIVTED_clean_linker_0, # of connection points: 2
#     Edge 127, Type (0, 1), BuildingBlock: XIVTED_clean_linker_0, # of connection points: 2
#     Edge 128, Type (0, 1), BuildingBlock: XIVTED_clean_linker_0, # of connection points: 2
#     Edge 129, Type (0, 1), BuildingBlock: XIVTED_clean_linker_0, # of connection points: 2
#     Edge 130, Type (0, 1), BuildingBlock: XIVTED_clean_linker_0, # of connection points: 2
#     Edge 131, Type (0, 1), BuildingBlock: XIVTED_clean_linker_0, # of connection points: 2
#     Edge 132, Type (0, 1), BuildingBlock: XIVTED_clean_linker_0, # of connection points: 2
#     Edge 133, Type (0, 1), BuildingBlock: XIVTED_clean_linker_0, # of connection points: 2
#     Edge 134, Type (0, 1), BuildingBlock: XIVTED_clean_linker_0, # of connection points: 2
#     Edge 135, Type (0, 1), BuildingBlock: XIVTED_clean_linker_0, # of connection points: 2
# Relax obj value: 0.086
# Max RMSD: 0.200
# Mean RMSD: 0.155
data_MOF--net-gar--node1-UXUYUI_clean_sbu_0--node2-KUMJIN_clean_sbu_1--edge1-XIVTED_clean_linker_0
_symmetry_space_group_name_H-M    P1
_symmetry_Int_Tables_number       1
_symmetry_cell_setting            triclinic
loop_
_symmetry_equiv_pos_as_xyz
'x, y, z'
_cell_length_a     73.448652
_cell_length_b     73.420723
_cell_length_c     68.934374
_cell_angle_alpha  95.816042
_cell_angle_beta   95.831241
_cell_angle_gamma 100.87594
loop_
_atom_site_label
_atom_site_type_symbol
_atom_site_fract_x
_atom_site_fract_y
_atom_site_fract_z
_atom_type_partial_charge
Li0 Li 0.02197 0.30014 0.34434 0.0
Li1 Li 0.04356 0.3221 0.37264 0.0
Li2 Li 0.05878 0.30208 0.34577 0.0
Li3 Li 0.04054 0.28642 0.37141 0.0
C4 C 0.0395 0.3345 0.33004 0.0
N5 N 0.03254 0.35909 0.30378 0.0
C6 C 0.0327 0.35038 0.33625 0.0
C7 C 0.04282 0.33113 0.31053 0.0
C8 C 0.02924 0.36264 0.32272 0.0
C9 C 0.0392 0.34374 0.29747 0.0
C10 C 0.00877 0.30111 0.38672 0.0
C11 C 1.00164 0.29775 0.4197 0.0
N12 N 0.9837 0.29915 0.41409 0.0
C13 C 0.9903 0.30264 0.38131 0.0
C14 C 0.01455 0.2988 0.4061 0.0
C15 C 0.97784 0.30159 0.39535 0.0
C16 C 0.98386 0.28045 0.33076 0.0
N17 N 0.99604 0.29679 0.32993 0.0
C18 C 0.97048 0.30952 0.31557 0.0
C19 C 0.98962 0.31112 0.32222 0.0
C20 C 0.95739 0.29305 0.31689 0.0
C21 C 0.96461 0.27829 0.32437 0.0
H22 H 0.98894 0.26928 0.33732 0.0
H23 H 0.99917 0.32415 0.3218 0.0
C24 C 0.06047 0.36027 0.39257 0.0
N25 N 0.045 0.34624 0.38975 0.0
C26 C 0.06081 0.37719 0.40453 0.0
C27 C 0.0294 0.36511 0.41058 0.0
C28 C 0.02958 0.34863 0.3984 0.0
C29 C 0.04515 0.37982 0.41397 0.0
H30 H 0.0726 0.3584 0.38551 0.0
H31 H 0.01715 0.33784 0.39574 0.0
C32 C 0.03527 0.2647 0.32855 0.0
N33 N 0.03104 0.23388 0.30075 0.0
C34 C 0.04069 0.24842 0.33373 0.0
C35 C 0.02767 0.26534 0.30927 0.0
C36 C 0.03845 0.23298 0.31945 0.0
C37 C 0.02566 0.2496 0.29541 0.0
C38 C 0.07658 0.30589 0.39088 0.0
C39 C 0.09263 0.29902 0.38757 0.0
C40 C 0.07391 0.31218 0.41 0.0
C41 C 0.10576 0.29845 0.40352 0.0
C42 C 0.08737 0.31137 0.42557 0.0
N43 N 0.10288 0.30459 0.42204 0.0
C44 C 0.0981 0.31369 0.33839 0.0
C45 C 0.08317 0.28512 0.31982 0.0
C46 C 0.11538 0.31186 0.33177 0.0
N47 N 0.0823 0.30033 0.33262 0.0
C48 C 0.10016 0.28279 0.31278 0.0
C49 C 0.11687 0.29609 0.31889 0.0
H50 H 0.09751 0.32564 0.34869 0.0
H51 H 0.0708 0.27437 0.31538 0.0
C52 C 0.02215 0.25639 0.39083 0.0
N53 N 0.03915 0.26513 0.38674 0.0
C54 C 0.02052 0.24102 0.40155 0.0
C55 C 0.0538 0.24322 0.4031 0.0
C56 C 0.05481 0.25867 0.39251 0.0
C57 C 0.03648 0.23417 0.40792 0.0
H58 H 0.00975 0.26126 0.38564 0.0
H59 H 0.06814 0.26534 0.38869 0.0
O60 O 0.04328 0.32254 0.34313 0.0
O61 O 0.02116 0.30207 0.37314 0.0
O62 O 0.03709 0.27985 0.34236 0.0
O63 O 0.06376 0.30689 0.37542 0.0
H64 H 0.0301 0.35318 0.35133 0.0
H65 H 0.04818 0.31893 0.30558 0.0
H66 H 0.02396 0.37498 0.32729 0.0
H67 H 0.04171 0.34134 0.28231 0.0
H68 H 0.00587 0.29582 0.43473 0.0
H69 H 0.98566 0.30483 0.36649 0.0
H70 H 0.02882 0.2977 0.41055 0.0
H71 H 0.96351 0.30276 0.39136 0.0
H72 H 0.96601 0.32129 0.30966 0.0
H73 H 0.95541 0.26536 0.3261 0.0
H74 H 0.07336 0.38797 0.40659 0.0
H75 H 0.01678 0.3664 0.417 0.0
H76 H 0.04657 0.24772 0.34862 0.0
H77 H 0.02336 0.27785 0.30508 0.0
H78 H 0.04257 0.22027 0.32323 0.0
H79 H 0.0198 0.24987 0.28042 0.0
H80 H 0.09487 0.29405 0.37285 0.0
H81 H 0.06162 0.3177 0.41275 0.0
H82 H 0.11824 0.29313 0.40119 0.0
H83 H 0.08551 0.31619 0.44046 0.0
H84 H 0.12749 0.32281 0.33685 0.0
H85 H 0.10021 0.27024 0.30311 0.0
H86 H 0.0068 0.23434 0.40447 0.0
H87 H 0.06652 0.23852 0.40763 0.0
Li88 Li 0.01826 0.76661 0.67539 0.0
Li89 Li 0.03638 0.75352 0.70301 0.0
Li90 Li 0.01404 0.73108 0.67484 0.0
Li91 Li 0.99926 0.75062 0.70124 0.0
C92 C 0.04876 0.75292 0.65988 0.0
N93 N 0.07248 0.75743 0.63134 0.0
C94 C 0.06759 0.76127 0.66511 0.0
C95 C 0.04198 0.74686 0.64016 0.0
C96 C 0.07937 0.76344 0.65046 0.0
C97 C 0.0542 0.74927 0.62594 0.0
C98 C 0.02529 0.78828 0.71889 0.0
C99 C 0.02548 0.80187 0.75225 0.0
N100 N 0.03431 0.81862 0.74769 0.0
C101 C 0.03437 0.8056 0.71452 0.0
C102 C 0.02079 0.78634 0.73788 0.0
C103 C 0.03882 0.82078 0.72929 0.0
C104 C 1.00339 0.79218 0.6519 0.0
N105 N 0.01947 0.78761 0.65977 0.0
C106 C 0.03759 0.81383 0.64754 0.0
C107 C 0.0364 0.79809 0.65771 0.0
C108 C 0.02123 0.81877 0.6391 0.0
C109 C 0.00396 0.80758 0.64125 0.0
H110 H 0.99005 0.78401 0.65406 0.0
H111 H 0.04902 0.79446 0.66427 0.0
C112 C 0.06921 0.74099 0.72098 0.0
N113 N 0.06227 0.75653 0.71772 0.0
C114 C 0.08821 0.7423 0.72812 0.0
C115 C 0.09292 0.77564 0.72881 0.0
C116 C 0.0738 0.77371 0.72178 0.0
C117 C 0.10072 0.7598 0.73188 0.0
H118 H 0.06012 0.72736 0.71746 0.0
H119 H 0.06839 0.78598 0.71872 0.0
C120 C 0.98051 0.74243 0.65649 0.0
N121 N 0.95151 0.73456 0.62616 0.0
C122 C 0.96231 0.73544 0.66018 0.0
C123 C 0.98402 0.74524 0.63736 0.0
C124 C 0.94782 0.73159 0.64465 0.0
C125 C 0.96916 0.74122 0.62223 0.0
C126 C 0.01411 0.71796 0.71716 0.0
C127 C 0.0061 0.6993 0.71039 0.0
C128 C 0.02102 0.72314 0.73699 0.0
C129 C 0.00514 0.68605 0.72363 0.0
C130 C 0.01981 0.70947 0.74977 0.0
N131 N 0.01197 0.69137 0.74288 0.0
C132 C 0.02904 0.70264 0.65398 0.0
C133 C 0.99605 0.69519 0.65032 0.0
C134 C 0.02961 0.68632 0.64171 0.0
N135 N 0.01245 0.70701 0.65792 0.0
C136 C 0.99601 0.67846 0.6382 0.0
C137 C 0.01297 0.67387 0.63349 0.0
H138 H 0.04197 0.71194 0.6603 0.0
H139 H 0.98295 0.69874 0.65358 0.0
C140 C 0.96545 0.76461 0.70593 0.0
N141 N 0.97562 0.75279 0.71381 0.0
C142 C 0.94815 0.76668 0.71219 0.0
C143 C 0.9519 0.74494 0.73535 0.0
C144 C 0.9691 0.74306 0.72843 0.0
C145 C 0.94087 0.75673 0.72708 0.0
H146 H 0.97063 0.77232 0.69438 0.0
H147 H 0.97708 0.73361 0.73463 0.0
O148 O 0.03715 0.75024 0.67408 0.0
O149 O 0.02037 0.7734 0.7045 0.0
O150 O 0.9947 0.74709 0.67166 0.0
O151 O 0.01562 0.731 0.70431 0.0
H152 H 0.07309 0.76597 0.68031 0.0
H153 H 0.02749 0.74019 0.6359 0.0
H154 H 0.09398 0.76985 0.6543 0.0
H155 H 0.04917 0.74458 0.61061 0.0
H156 H 0.02206 0.80062 0.76702 0.0
H157 H 0.03789 0.80732 0.69986 0.0
H158 H 0.01367 0.77302 0.74144 0.0
H159 H 0.04581 0.83429 0.72611 0.0
H160 H 0.0512 0.82202 0.64619 0.0
H161 H 0.99101 0.81099 0.63519 0.0
H162 H 0.09301 0.72955 0.73046 0.0
H163 H 0.10161 0.7895 0.73104 0.0
H164 H 0.95937 0.7331 0.67489 0.0
H165 H 0.99801 0.75078 0.63429 0.0
H166 H 0.93364 0.7263 0.64731 0.0
H167 H 0.97163 0.74348 0.60737 0.0
H168 H 1.00075 0.69509 0.69505 0.0
H169 H 0.02736 0.73754 0.7424 0.0
H170 H 0.99902 0.67154 0.71859 0.0
H171 H 0.02514 0.71324 0.76516 0.0
H172 H 0.04305 0.68338 0.63882 0.0
H173 H 0.9828 0.66941 0.63221 0.0
H174 H 0.94058 0.77616 0.70542 0.0
H175 H 0.94706 0.73681 0.74675 0.0
Li176 Li 0.5207 0.79945 0.84471 0.0
Li177 Li 0.54216 0.82065 0.87313 0.0
Li178 Li 0.55736 0.80124 0.84632 0.0
Li179 Li 0.5392 0.78524 0.87175 0.0
C180 C 0.53903 0.8336 0.83041 0.0
N181 N 0.53375 0.858 0.80339 0.0
C182 C 0.53359 0.85036 0.83624 0.0
C183 C 0.54188 0.82926 0.8109 0.0
C184 C 0.53094 0.86249 0.82234 0.0
C185 C 0.53912 0.8418 0.79744 0.0
C186 C 0.50808 0.80128 0.88769 0.0
C187 C 0.50262 0.80117 0.92158 0.0
N188 N 0.48442 0.80184 0.91634 0.0
C189 C 0.48933 0.80195 0.88263 0.0
C190 C 0.51482 0.8009 0.90731 0.0
C191 C 0.47759 0.80225 0.89733 0.0
C192 C 0.48292 0.78048 0.82683 0.0
N193 N 0.49498 0.79736 0.83043 0.0
C194 C 0.46962 0.81255 0.82069 0.0
C195 C 0.48859 0.81322 0.82727 0.0
C196 C 0.45662 0.7954 0.81742 0.0
C197 C 0.46379 0.77918 0.8203 0.0
H198 H 0.48793 0.76799 0.82986 0.0
H199 H 0.49803 0.82662 0.83061 0.0
C200 C 0.55921 0.85554 0.89921 0.0
N201 N 0.54304 0.84424 0.89021 0.0
C202 C 0.55885 0.87224 0.91112 0.0
C203 C 0.52529 0.8654 0.90447 0.0
C204 C 0.5263 0.84899 0.89263 0.0
C205 C 0.54169 0.87753 0.91393 0.0
H206 H 0.57244 0.85168 0.8971 0.0
H207 H 0.51357 0.84006 0.88526 0.0
C208 C 0.53445 0.7642 0.82831 0.0
N209 N 0.53141 0.73425 0.79969 0.0
C210 C 0.53906 0.74751 0.8333 0.0
C211 C 0.52824 0.76568 0.80881 0.0
C212 C 0.53746 0.73253 0.8186 0.0
C213 C 0.5268 0.75036 0.79454 0.0
C214 C 0.57567 0.80469 0.89088 0.0
C215 C 0.59178 0.79826 0.88681 0.0
C216 C 0.57356 0.81076 0.91024 0.0
C217 C 0.60551 0.79789 0.90227 0.0
C218 C 0.58759 0.81013 0.9253 0.0
N219 N 0.60314 0.80377 0.92104 0.0
C220 C 0.59398 0.81575 0.83279 0.0
C221 C 0.58467 0.78296 0.827 0.0
C222 C 0.61146 0.81479 0.82618 0.0
N223 N 0.58089 0.79995 0.83329 0.0
C224 C 0.60191 0.78139 0.82022 0.0
C225 C 0.61593 0.7974 0.8199 0.0
H226 H 0.59111 0.82919 0.838 0.0
H227 H 0.57454 0.77041 0.8278 0.0
C228 C 0.52133 0.75638 0.89291 0.0
N229 N 0.53799 0.76412 0.88725 0.0
C230 C 0.51987 0.74119 0.90388 0.0
C231 C 0.55262 0.74162 0.90259 0.0
C232 C 0.55348 0.75694 0.89178 0.0
C233 C 0.53565 0.73354 0.90895 0.0
H234 H 0.50904 0.7619 0.8888 0.0
H235 H 0.56654 0.76299 0.88687 0.0
O236 O 0.54203 0.82173 0.84389 0.0
O237 O 0.51971 0.80074 0.87344 0.0
O238 O 0.53563 0.77889 0.84255 0.0
O239 O 0.56233 0.80563 0.87589 0.0
H240 H 0.53142 0.85394 0.85132 0.0
H241 H 0.54623 0.81639 0.80623 0.0
H242 H 0.52668 0.8755 0.82662 0.0
H243 H 0.54129 0.83866 0.78227 0.0
H244 H 0.50762 0.8008 0.93682 0.0
H245 H 0.48386 0.80226 0.86753 0.0
H246 H 0.52924 0.80019 0.91143 0.0
H247 H 0.46304 0.80277 0.89361 0.0
H248 H 0.46522 0.82552 0.81848 0.0
H249 H 0.45462 0.76557 0.81837 0.0
H250 H 0.57196 0.88105 0.91777 0.0
H251 H 0.51165 0.86839 0.90628 0.0
H252 H 0.54383 0.74615 0.84836 0.0
H253 H 0.52451 0.77849 0.80477 0.0
H254 H 0.54101 0.71953 0.82223 0.0
H255 H 0.52199 0.75127 0.77937 0.0
H256 H 0.59368 0.79364 0.87188 0.0
H257 H 0.56131 0.81606 0.91358 0.0
H258 H 0.61806 0.79296 0.89935 0.0
H259 H 0.58615 0.81478 0.94036 0.0
H260 H 0.62141 0.82768 0.8261 0.0
H261 H 0.60442 0.76758 0.81592 0.0
H262 H 0.50639 0.73528 0.90804 0.0
H263 H 0.56518 0.73631 0.90611 0.0
Li264 Li 0.51839 0.26704 0.17509 0.0
Li265 Li 0.53675 0.25352 0.20249 0.0
Li266 Li 0.51434 0.23123 0.17427 0.0
Li267 Li 0.49961 0.25054 0.20101 0.0
C268 C 0.54992 0.25202 0.16046 0.0
N269 N 0.57585 0.25488 0.13403 0.0
C270 C 0.56812 0.26207 0.16638 0.0
C271 C 0.54488 0.24345 0.14112 0.0
C272 C 0.58104 0.26333 0.15279 0.0
C273 C 0.5582 0.24507 0.12797 0.0
C274 C 0.52582 0.2884 0.21865 0.0
C275 C 0.52658 0.30217 0.25206 0.0
N276 N 0.53513 0.31891 0.24723 0.0
C277 C 0.53464 0.30572 0.214 0.0
C278 C 0.52177 0.28655 0.23781 0.0
C279 C 0.53924 0.32099 0.22868 0.0
C280 C 0.507 0.2998 0.16216 0.0
N281 N 0.51915 0.28813 0.15935 0.0
C282 C 0.5322 0.30644 0.13519 0.0
C283 C 0.53164 0.29126 0.14614 0.0
C284 C 0.51987 0.31879 0.13776 0.0
C285 C 0.50715 0.31523 0.15157 0.0
H286 H 0.49717 0.29716 0.17272 0.0
H287 H 0.54132 0.2821 0.14407 0.0
C288 C 0.57138 0.24122 0.21252 0.0
N289 N 0.56286 0.25591 0.21653 0.0
C290 C 0.59049 0.24237 0.21893 0.0
C291 C 0.59207 0.27363 0.23418 0.0
C292 C 0.57289 0.27192 0.22737 0.0
C293 C 0.60144 0.25885 0.22974 0.0
H294 H 0.56347 0.22866 0.20369 0.0
H295 H 0.56623 0.2837 0.23022 0.0
C296 C 0.48095 0.24385 0.15609 0.0
N297 N 0.45262 0.23743 0.12517 0.0
C298 C 0.46249 0.2373 0.15924 0.0
C299 C 0.48505 0.24714 0.13725 0.0
C300 C 0.44835 0.23413 0.14341 0.0
C301 C 0.47051 0.24381 0.1218 0.0
C302 C 0.51439 0.21783 0.21642 0.0
C303 C 0.50573 0.19934 0.20959 0.0
C304 C 0.52168 0.22273 0.23618 0.0
C305 C 0.50453 0.18598 0.22272 0.0
C306 C 0.52019 0.20896 0.24885 0.0
N307 N 0.51173 0.19103 0.24191 0.0
C308 C 0.52797 0.19869 0.16064 0.0
C309 C 0.49913 0.19968 0.14269 0.0
C310 C 0.52905 0.18212 0.14902 0.0
N311 N 0.5132 0.20724 0.15739 0.0
C312 C 0.4997 0.18313 0.13061 0.0
C313 C 0.51487 0.17396 0.13352 0.0
H314 H 0.53908 0.20484 0.17231 0.0
H315 H 0.48751 0.20659 0.14009 0.0
C316 C 0.47181 0.26917 0.21838 0.0
N317 N 0.47602 0.25198 0.21412 0.0
C318 C 0.45472 0.27119 0.22529 0.0
C319 C 0.44612 0.23783 0.22359 0.0
C320 C 0.46348 0.23644 0.21682 0.0
C321 C 0.44116 0.25542 0.2278 0.0
H322 H 0.48161 0.28149 0.21603 0.0
H323 H 0.46661 0.22278 0.21313 0.0
O324 O 0.53711 0.25056 0.17355 0.0
O325 O 0.52071 0.27346 0.20437 0.0
O326 O 0.4949 0.24728 0.17147 0.0
O327 O 0.51613 0.23096 0.20369 0.0
H328 H 0.5722 0.26891 0.18126 0.0
H329 H 0.5308 0.23574 0.1363 0.0
H330 H 0.59518 0.27106 0.15716 0.0
H331 H 0.5545 0.23855 0.11294 0.0
H332 H 0.52348 0.30098 0.26694 0.0
H333 H 0.53781 0.30735 0.19921 0.0
H334 H 0.51486 0.27323 0.24157 0.0
H335 H 0.54602 0.3345 0.2253 0.0
H336 H 0.54251 0.30865 0.12505 0.0
H337 H 0.49724 0.32416 0.15405 0.0
H338 H 0.59662 0.23037 0.21526 0.0
H339 H 0.59962 0.28674 0.24224 0.0
H340 H 0.45911 0.23472 0.17376 0.0
H341 H 0.49929 0.25224 0.13462 0.0
H342 H 0.43399 0.22907 0.14562 0.0
H343 H 0.47344 0.24631 0.10713 0.0
H344 H 0.50008 0.19535 0.1943 0.0
H345 H 0.52851 0.23699 0.24163 0.0
H346 H 0.49792 0.1716 0.21764 0.0
H347 H 0.52579 0.21251 0.26418 0.0
H348 H 0.54092 0.17573 0.1524 0.0
H349 H 0.48846 0.17784 0.11884 0.0
H350 H 0.45225 0.28517 0.22856 0.0
H351 H 0.43646 0.22505 0.22487 0.0
Li352 Li 0.05416 0.80541 0.09488 0.0
Li353 Li 0.07333 0.79042 0.12142 0.0
Li354 Li 0.05128 0.76821 0.09315 0.0
Li355 Li 0.03797 0.78628 0.12047 0.0
C356 C 0.08708 0.79019 0.07953 0.0
N357 N 0.11422 0.79184 0.05449 0.0
C358 C 0.10563 0.79842 0.08658 0.0
C359 C 0.0823 0.7828 0.05979 0.0
C360 C 0.11916 0.79912 0.07367 0.0
C361 C 0.09624 0.78377 0.04735 0.0
C362 C 0.06074 0.8237 0.13999 0.0
C363 C 0.06085 0.83369 0.17441 0.0
N364 N 0.06678 0.85172 0.17121 0.0
C365 C 0.06681 0.84231 0.13702 0.0
C366 C 0.05769 0.81932 0.1588 0.0
C367 C 0.06979 0.85628 0.15301 0.0
C368 C 0.03509 0.833 0.07783 0.0
N369 N 0.05238 0.82897 0.08196 0.0
C370 C 0.06617 0.85903 0.0726 0.0
C371 C 0.0678 0.84169 0.07927 0.0
C372 C 0.04847 0.86369 0.06842 0.0
C373 C 0.03283 0.85006 0.07099 0.0
H374 H 0.02289 0.82313 0.08035 0.0
H375 H 0.08152 0.83865 0.0828 0.0
C376 C 0.10247 0.77474 0.13934 0.0
N377 N 0.09702 0.7914 0.13839 0.0
C378 C 0.11874 0.7735 0.15129 0.0
C379 C 0.12404 0.80668 0.16106 0.0
C380 C 0.10749 0.80726 0.149 0.0
C381 C 0.13 0.78959 0.16244 0.0
H382 H 0.09401 0.76224 0.1309 0.0
H383 H 0.10306 0.82042 0.14812 0.0
C384 C 0.01607 0.77891 0.07761 0.0
N385 N 0.98473 0.76912 0.05012 0.0
C386 C 0.99912 0.76995 0.08295 0.0
C387 C 0.01714 0.78288 0.05832 0.0
C388 C 0.98342 0.76511 0.06882 0.0
C389 C 1.00112 0.77782 0.04462 0.0
C390 C 0.05289 0.75543 0.13588 0.0
C391 C 0.04524 0.73645 0.13044 0.0
C392 C 0.0592 0.76205 0.1556 0.0
C393 C 0.04395 0.72439 0.14489 0.0
C394 C 0.05769 0.74954 0.16961 0.0
N395 N 0.05015 0.73113 0.16401 0.0
C396 C 0.06389 0.73456 0.07848 0.0
C397 C 0.03116 0.73137 0.0728 0.0
C398 C 0.06239 0.71536 0.07218 0.0
N399 N 0.0484 0.74228 0.07894 0.0
C400 C 0.02905 0.71209 0.06644 0.0
C401 C 0.04475 0.70353 0.06634 0.0
H402 H 0.07747 0.74316 0.08385 0.0
H403 H 0.01889 0.73742 0.07359 0.0
C404 C 0.0085 0.79972 0.13834 0.0
N405 N 0.01688 0.78477 0.13567 0.0
C406 C 0.99256 0.79855 0.1482 0.0
C407 C 0.99425 0.76673 0.1526 0.0
C408 C 0.01002 0.76846 0.14259 0.0
C409 C 0.98507 0.7818 0.15539 0.0
H410 H 0.014 0.81249 0.13251 0.0
H411 H 0.01656 0.75661 0.14009 0.0
O412 O 0.07376 0.78895 0.09205 0.0
O413 O 0.05742 0.80992 0.12444 0.0
O414 O 0.03144 0.78424 0.09135 0.0
O415 O 0.05421 0.76744 0.12193 0.0
H416 H 0.10953 0.80414 0.10186 0.0
H417 H 0.06799 0.77628 0.0542 0.0
H418 H 0.13358 0.80542 0.0789 0.0
H419 H 0.09278 0.77808 0.03204 0.0
H420 H 0.05853 0.83052 0.18906 0.0
H421 H 0.06914 0.84592 0.12253 0.0
H422 H 0.05277 0.805 0.16128 0.0
H423 H 0.07448 0.87075 0.15093 0.0
H424 H 0.07877 0.86871 0.07077 0.0
H425 H 0.01886 0.85276 0.06837 0.0
H426 H 0.12223 0.75989 0.15196 0.0
H427 H 0.13216 0.81959 0.16904 0.0
H428 H 0.99808 0.76682 0.09786 0.0
H429 H 0.03017 0.7899 0.05403 0.0
H430 H 0.97018 0.7582 0.07274 0.0
H431 H 1.0017 0.78084 0.02963 0.0
H432 H 0.04024 0.73109 0.11527 0.0
H433 H 0.06528 0.77667 0.16002 0.0
H434 H 0.03801 0.70968 0.1409 0.0
H435 H 0.06252 0.75446 0.18493 0.0
H436 H 0.07501 0.70974 0.07274 0.0
H437 H 0.0151 0.70394 0.06189 0.0
H438 H 0.98594 0.81052 0.14972 0.0
H439 H 0.98933 0.75362 0.1581 0.0
Li440 Li 0.50436 0.78307 0.4527 0.0
Li441 Li 0.48254 0.76163 0.42439 0.0
Li442 Li 0.50219 0.74634 0.45114 0.0
Li443 Li 0.51808 0.76443 0.42548 0.0
C444 C 0.47006 0.76536 0.46716 0.0
N445 N 0.44571 0.77153 0.49395 0.0
C446 C 0.454 0.77202 0.46135 0.0
C447 C 0.47375 0.7618 0.48654 0.0
C448 C 0.44186 0.77507 0.47513 0.0
C449 C 0.46126 0.76503 0.49988 0.0
C450 C 0.50302 0.79593 0.41001 0.0
C451 C 0.50719 0.80284 0.37711 0.0
N452 N 0.50463 0.8205 0.38214 0.0
C453 C 0.50037 0.81413 0.41485 0.0
C454 C 0.50638 0.79018 0.39099 0.0
C455 C 0.50124 0.82634 0.40055 0.0
C456 C 0.52339 0.82151 0.46487 0.0
N457 N 0.50778 0.80892 0.46718 0.0
C458 C 0.49573 0.83386 0.48383 0.0
C459 C 0.49415 0.81483 0.47671 0.0
C460 C 0.51141 0.84737 0.48108 0.0
C461 C 0.52547 0.84067 0.47163 0.0
H462 H 0.53397 0.81681 0.45694 0.0
H463 H 0.48169 0.80493 0.47835 0.0
C464 C 0.44714 0.74421 0.39925 0.0
N465 N 0.45874 0.76058 0.40724 0.0
C466 C 0.43038 0.74418 0.38723 0.0
C467 C 0.43767 0.7778 0.3917 0.0
C468 C 0.45418 0.77719 0.40365 0.0
C469 C 0.42528 0.76117 0.38323 0.0
H470 H 0.4508 0.73109 0.40226 0.0
H471 H 0.46334 0.79011 0.41018 0.0
C472 C 0.53973 0.76951 0.46835 0.0
N473 N 0.57055 0.77326 0.49603 0.0
C474 C 0.55592 0.76399 0.46303 0.0
C475 C 0.53919 0.77696 0.4877 0.0
C476 C 0.57136 0.76599 0.47726 0.0
C477 C 0.55493 0.77874 0.50149 0.0
C478 C 0.49763 0.72759 0.4067 0.0
C479 C 0.50458 0.71174 0.41073 0.0
C480 C 0.4904 0.72912 0.38752 0.0
C481 C 0.50416 0.69761 0.39542 0.0
C482 C 0.49027 0.71469 0.37261 0.0
N483 N 0.49708 0.69936 0.37684 0.0
C484 C 0.48847 0.70877 0.46282 0.0
C485 C 0.52052 0.72044 0.47295 0.0
C486 C 0.48982 0.69148 0.46968 0.0
N487 N 0.50372 0.72295 0.46436 0.0
C488 C 0.52248 0.70341 0.48002 0.0
C489 C 0.50709 0.6883 0.4783 0.0
H490 H 0.47521 0.71064 0.45579 0.0
H491 H 0.5327 0.73146 0.47387 0.0
C492 C 0.55304 0.78202 0.41536 0.0
N493 N 0.5395 0.76633 0.41042 0.0
C494 C 0.56913 0.78465 0.4058 0.0
C495 C 0.55722 0.755 0.386 0.0
C496 C 0.5414 0.75286 0.39608 0.0
C497 C 0.57145 0.77113 0.3907 0.0
H498 H 0.5514 0.79249 0.42693 0.0
H499 H 0.53067 0.74041 0.39232 0.0
O500 O 0.48188 0.76191 0.4538 0.0
O501 O 0.50263 0.78392 0.42394 0.0
O502 O 0.52455 0.76788 0.45461 0.0
O503 O 0.49757 0.74138 0.42153 0.0
H504 H 0.45093 0.77478 0.44638 0.0
H505 H 0.48611 0.75655 0.49119 0.0
H506 H 0.42936 0.78021 0.47086 0.0
H507 H 0.46391 0.76233 0.51494 0.0
H508 H 0.50987 0.79863 0.36235 0.0
H509 H 0.49756 0.81874 0.42945 0.0
H510 H 0.50843 0.77613 0.38702 0.0
H511 H 0.49922 0.84046 0.40409 0.0
H512 H 0.48456 0.83788 0.49128 0.0
H513 H 0.53775 0.85018 0.4687 0.0
H514 H 0.42138 0.73091 0.38142 0.0
H515 H 0.4348 0.79131 0.38899 0.0
H516 H 0.55652 0.75814 0.44811 0.0
H517 H 0.52675 0.78135 0.49199 0.0
H518 H 0.58398 0.76175 0.47338 0.0
H519 H 0.55474 0.78449 0.51654 0.0
H520 H 0.5102 0.71036 0.42551 0.0
H521 H 0.48499 0.74134 0.3842 0.0
H522 H 0.50946 0.68524 0.39831 0.0
H523 H 0.48473 0.71567 0.35769 0.0
H524 H 0.47734 0.68066 0.46813 0.0
H525 H 0.53621 0.70197 0.48617 0.0
H526 H 0.57972 0.79715 0.41043 0.0
H527 H 0.55808 0.7442 0.37441 0.0
Li528 Li 0.55424 0.30503 0.59547 0.0
Li529 Li 0.57381 0.29049 0.62214 0.0
Li530 Li 0.55161 0.26824 0.59399 0.0
Li531 Li 0.53834 0.28621 0.62133 0.0
C532 C 0.58713 0.29009 0.57995 0.0
N533 N 0.61385 0.29159 0.55442 0.0
C534 C 0.60579 0.29802 0.58676 0.0
C535 C 0.58201 0.28293 0.56018 0.0
C536 C 0.61911 0.29866 0.57361 0.0
C537 C 0.59574 0.28381 0.54749 0.0
C538 C 0.56055 0.32345 0.64064 0.0
C539 C 0.5602 0.3329 0.67509 0.0
N540 N 0.56573 0.35106 0.67214 0.0
C541 C 0.5662 0.34218 0.63793 0.0
C542 C 0.55752 0.31872 0.65933 0.0
C543 C 0.56876 0.35595 0.65406 0.0
C544 C 0.53509 0.33163 0.57669 0.0
N545 N 0.5524 0.3283 0.5824 0.0
C546 C 0.5662 0.35896 0.57469 0.0
C547 C 0.56785 0.34162 0.58126 0.0
C548 C 0.54847 0.36292 0.56895 0.0
C549 C 0.53284 0.34866 0.5698 0.0
H550 H 0.52284 0.32127 0.57803 0.0
H551 H 0.58154 0.33909 0.58606 0.0
C552 C 0.60543 0.27649 0.63725 0.0
N553 N 0.59772 0.29197 0.63903 0.0
C554 C 0.62193 0.27561 0.64908 0.0
C555 C 0.62268 0.30672 0.66447 0.0
C556 C 0.60607 0.307 0.65234 0.0
C557 C 0.6309 0.29081 0.66311 0.0
H558 H 0.59865 0.26466 0.62665 0.0
H559 H 0.59979 0.31918 0.65374 0.0
C560 C 0.51639 0.27844 0.57826 0.0
N561 N 0.48539 0.26851 0.55032 0.0
C562 C 0.49922 0.26989 0.58347 0.0
C563 C 0.51784 0.2819 0.55886 0.0
C564 C 0.4837 0.26496 0.56912 0.0
C565 C 0.50199 0.27679 0.54494 0.0
C566 C 0.55335 0.2552 0.63651 0.0
C567 C 0.54422 0.23661 0.63102 0.0
C568 C 0.56093 0.26119 0.65605 0.0
C569 C 0.54277 0.2243 0.64521 0.0
C570 C 0.5592 0.24844 0.66981 0.0
N571 N 0.55023 0.23042 0.66415 0.0
C572 C 0.56445 0.23568 0.57661 0.0
C573 C 0.53164 0.23104 0.57543 0.0
C574 C 0.56323 0.21662 0.56991 0.0
N575 N 0.54881 0.24258 0.57949 0.0
C576 C 0.52983 0.21184 0.569 0.0
C577 C 0.54577 0.20417 0.56641 0.0
H578 H 0.57803 0.24479 0.58031 0.0
H579 H 0.51933 0.23651 0.57812 0.0
C580 C 0.50779 0.29947 0.63668 0.0
N581 N 0.51751 0.2854 0.63698 0.0
C582 C 0.49244 0.29938 0.6473 0.0
C583 C 0.49736 0.27043 0.65851 0.0
C584 C 0.51247 0.27098 0.64756 0.0
C585 C 0.48703 0.28474 0.65853 0.0
H586 H 0.51193 0.31076 0.62809 0.0
H587 H 0.51999 0.25973 0.64743 0.0
O588 O 0.57403 0.2889 0.59272 0.0
O589 O 0.55779 0.30985 0.62497 0.0
O590 O 0.53156 0.28396 0.59224 0.0
O591 O 0.55481 0.26747 0.62283 0.0
H592 H 0.60995 0.30356 0.60206 0.0
H593 H 0.5676 0.27664 0.55474 0.0
H594 H 0.63362 0.30473 0.57868 0.0
H595 H 0.59202 0.27828 0.53215 0.0
H596 H 0.55787 0.32947 0.68965 0.0
H597 H 0.56857 0.34606 0.62354 0.0
H598 H 0.55305 0.30426 0.66162 0.0
H599 H 0.57315 0.37051 0.65218 0.0
H600 H 0.57878 0.36922 0.57422 0.0
H601 H 0.51884 0.35086 0.56586 0.0
H602 H 0.62766 0.26311 0.64708 0.0
H603 H 0.62877 0.31876 0.67511 0.0
H604 H 0.49789 0.26718 0.59846 0.0
H605 H 0.53105 0.28861 0.55466 0.0
H606 H 0.4703 0.25838 0.57294 0.0
H607 H 0.50286 0.27946 0.52988 0.0
H608 H 0.53818 0.23176 0.61601 0.0
H609 H 0.56803 0.27554 0.66054 0.0
H610 H 0.5357 0.20989 0.64117 0.0
H611 H 0.56497 0.25287 0.68499 0.0
H612 H 0.57598 0.21152 0.56838 0.0
H613 H 0.51603 0.20301 0.56639 0.0
H614 H 0.48501 0.31078 0.64689 0.0
H615 H 0.49357 0.25866 0.66658 0.0
Li616 Li 0.00407 0.28298 0.95277 0.0
Li617 Li 0.98278 0.26143 0.92431 0.0
Li618 Li 1.00222 0.24632 0.95122 0.0
Li619 Li 0.01841 0.2647 0.92588 0.0
C620 C 0.96978 0.2647 0.96685 0.0
N621 N 0.94522 0.27033 0.99357 0.0
C622 C 0.95313 0.27024 0.9608 0.0
C623 C 0.97393 0.26192 0.98642 0.0
C624 C 0.94091 0.27308 0.97456 0.0
C625 C 0.96131 0.26486 0.99972 0.0
C626 C 0.00385 0.296 0.91012 0.0
C627 C 0.0068 0.30209 0.87675 0.0
N628 N 0.00617 0.32031 0.88198 0.0
C629 C 1.00324 0.31478 0.91518 0.0
C630 C 0.00563 0.28956 0.89076 0.0
C631 C 0.00442 0.32685 0.90074 0.0
C632 C 0.02299 0.32082 0.96991 0.0
N633 N 0.0062 0.3086 0.96707 0.0
C634 C 0.99107 0.33376 0.97753 0.0
C635 C 0.99043 0.31481 0.97098 0.0
C636 C 0.00809 0.3469 0.98003 0.0
C637 C 0.02425 0.33993 0.97641 0.0
H638 H 0.03537 0.31593 0.96625 0.0
H639 H 0.9771 0.30524 0.96825 0.0
C640 C 0.94588 0.24404 0.90225 0.0
N641 N 0.95893 0.26015 0.90739 0.0
C642 C 0.92893 0.24399 0.89057 0.0
C643 C 0.93906 0.27699 0.88952 0.0
C644 C 0.9556 0.27647 0.90139 0.0
C645 C 0.92533 0.26063 0.88383 0.0
H646 H 0.94857 0.23119 0.90726 0.0
H647 H 0.96572 0.28927 0.90596 0.0
C648 C 0.03974 0.26955 0.96873 0.0
N649 N 0.0707 0.27308 0.99618 0.0
C650 C 0.05599 0.26435 0.96315 0.0
C651 C 0.03921 0.27658 0.98822 0.0
C652 C 0.0715 0.26623 0.97727 0.0
C653 C 0.05502 0.27825 0.0019 0.0
C654 C 0.99839 0.22799 0.90654 0.0
C655 C 0.00458 0.2117 0.91037 0.0
C656 C 0.99211 0.23028 0.88729 0.0
C657 C 0.00451 0.19795 0.89478 0.0
C658 C 0.99228 0.21622 0.8721 0.0
N659 N 0.99842 0.20048 0.87612 0.0
C660 C 0.98795 0.2086 0.96202 0.0
C661 C 0.01967 0.22032 0.97383 0.0
C662 C 0.9889 0.19123 0.96889 0.0
N663 N 1.00324 0.22284 0.96438 0.0
C664 C 0.02123 0.20319 0.98092 0.0
C665 C 0.00581 0.18802 0.97834 0.0
H666 H 0.97501 0.21047 0.95422 0.0
H667 H 0.03186 0.23145 0.97555 0.0
C668 C 0.05027 0.28385 0.90987 0.0
N669 N 0.03994 0.26655 0.91078 0.0
C670 C 0.06616 0.28603 0.8999 0.0
C671 C 0.06069 0.25258 0.89188 0.0
C672 C 0.04495 0.25104 0.90209 0.0
C673 C 0.07167 0.27027 0.89067 0.0
H674 H 0.04623 0.29603 0.91699 0.0
H675 H 0.03692 0.23736 0.90325 0.0
O676 O 0.98177 0.26162 0.95354 0.0
O677 O 1.00265 0.28398 0.92406 0.0
O678 O 0.02452 0.26807 0.95508 0.0
O679 O 0.99807 0.24144 0.92164 0.0
H680 H 0.94973 0.27241 0.94567 0.0
H681 H 0.98672 0.25751 0.99125 0.0
H682 H 0.928 0.27743 0.97012 0.0
H683 H 0.9643 0.26275 0.01493 0.0
H684 H 0.00822 0.29732 0.86171 0.0
H685 H 1.00175 0.31998 0.93005 0.0
H686 H 0.00617 0.27508 0.88663 0.0
H687 H 0.00392 0.34141 0.90444 0.0
H688 H 0.97818 0.33808 0.98033 0.0
H689 H 0.03773 0.34927 0.97774 0.0
H690 H 0.91888 0.23098 0.88658 0.0
H691 H 0.93692 0.29026 0.88513 0.0
H692 H 0.0566 0.25891 0.9481 0.0
H693 H 0.02673 0.28073 0.99271 0.0
H694 H 0.08417 0.26225 0.97318 0.0
H695 H 0.05484 0.28367 0.01705 0.0
H696 H 0.00943 0.20971 0.92522 0.0
H697 H 0.98709 0.24274 0.88415 0.0
H698 H 0.00929 0.18527 0.8975 0.0
H699 H 0.98748 0.21779 0.85711 0.0
H700 H 0.97656 0.18021 0.96615 0.0
H701 H 0.03457 0.20193 0.98832 0.0
H702 H 0.07393 0.29999 0.89927 0.0
H703 H 0.06442 0.23997 0.88533 0.0
Li704 Li 0.39073 0.01322 0.31314 0.0
Li705 Li 0.3634 0.99722 0.29065 0.0
Li706 Li 0.38967 0.01663 0.27857 0.0
Li707 Li 0.3679 0.03038 0.29849 0.0
C708 C 0.40115 0.98166 0.29447 0.0
N709 N 0.4251 0.95773 0.30223 0.0
C710 C 0.39412 0.9637 0.29888 0.0
C711 C 0.42031 0.9874 0.29381 0.0
C712 C 0.40647 0.95181 0.30278 0.0
C713 C 0.4322 0.97512 0.29786 0.0
C714 C 0.35215 0.01099 0.33 0.0
C715 C 0.32135 0.01204 0.33867 0.0
N716 N 0.32681 0.00836 0.35708 0.0
C717 C 0.35748 0.00726 0.34901 0.0
C718 C 0.33395 0.0134 0.32475 0.0
C719 C 0.34446 0.00597 0.36248 0.0
C720 C 0.40811 0.03134 0.34747 0.0
N721 N 0.40591 0.01445 0.33652 0.0
C722 C 0.4263 0.0041 0.36007 0.0
C723 C 0.41426 1.00068 0.3426 0.0
C724 C 0.42922 0.02165 0.3713 0.0
C725 C 0.41976 0.03526 0.36513 0.0
H726 H 0.40094 0.04183 0.34226 0.0
H727 H 0.41177 0.98717 0.33397 0.0
C728 C 0.34216 0.96563 0.26719 0.0
N729 N 0.34557 0.97529 0.28549 0.0
C730 C 0.33082 0.94791 0.26402 0.0
C731 C 0.32646 0.95079 0.29849 0.0
C732 C 0.33785 0.96838 0.30096 0.0
C733 C 0.3234 0.94016 0.28 0.0
H734 H 0.34906 0.97123 0.25534 0.0
H735 H 0.34148 0.97589 0.31549 0.0
C736 C 0.41083 0.05011 0.30114 0.0
N737 N 0.44202 0.07777 0.30116 0.0
C738 C 0.40881 0.06803 0.29748 0.0
C739 C 0.42866 0.04624 0.30497 0.0
C740 C 0.42477 0.08182 0.29749 0.0
C741 C 0.44427 0.06043 0.30488 0.0
C742 C 0.3492 0.00948 0.25651 0.0
C743 C 0.35419 0.00591 0.23767 0.0
C744 C 0.33033 0.00656 0.25929 0.0
C745 C 0.34019 0.99941 0.22189 0.0
C746 C 0.31674 1.00003 0.24314 0.0
N747 N 0.32191 0.99664 0.22493 0.0
C748 C 0.40672 0.00305 0.248 0.0
C749 C 0.40948 0.036 0.25148 0.0
C750 C 0.41592 0.00364 0.23135 0.0
N751 N 0.40369 0.01908 0.25758 0.0
C752 C 0.41894 0.03727 0.23498 0.0
C753 C 0.422 0.0209 0.22462 0.0
H754 H 0.40164 0.98978 0.25306 0.0
H755 H 0.40641 0.04842 0.25913 0.0
C756 C 0.35886 0.06065 0.32086 0.0
N757 N 0.35591 0.05001 0.30309 0.0
C758 C 0.34979 0.0756 0.32381 0.0
C759 C 0.33452 0.06761 0.29035 0.0
C760 C 0.34409 0.05314 0.28796 0.0
C761 C 0.33747 0.07908 0.30838 0.0
H762 H 0.36843 0.05766 0.33255 0.0
H763 H 0.34236 0.04463 0.27394 0.0
O764 O 0.38926 0.99345 0.29054 0.0
O765 O 0.36452 0.01142 0.31643 0.0
O766 O 0.39533 0.03656 0.30135 0.0
O767 O 0.36273 0.01642 0.272 0.0
H768 H 0.3793 0.95901 0.29932 0.0
H769 H 0.42594 1.0012 0.29025 0.0
H770 H 0.40126 0.93788 0.30625 0.0
H771 H 0.44708 0.97941 0.29753 0.0
H772 H 0.3072 0.01381 0.33481 0.0
H773 H 0.37144 0.00511 0.35322 0.0
H774 H 0.32957 0.01612 0.31004 0.0
H775 H 0.34836 1.00297 0.37721 0.0
H776 H 0.43325 0.99323 0.36476 0.0
H777 H 0.42177 0.04891 0.37359 0.0
H778 H 0.32885 0.9399 0.24962 0.0
H779 H 0.32146 0.94499 0.31126 0.0
H780 H 0.39506 0.07121 0.2946 0.0
H781 H 0.43042 0.03249 0.30809 0.0
H782 H 0.42343 0.09575 0.2946 0.0
H783 H 0.45818 0.05767 0.30782 0.0
H784 H 0.36871 0.00826 0.2352 0.0
H785 H 0.32624 0.00931 0.27377 0.0
H786 H 0.34385 0.99664 0.20722 0.0
H787 H 0.30209 0.99771 0.24507 0.0
H788 H 0.41827 0.99075 0.22382 0.0
H789 H 0.42336 0.05078 0.23008 0.0
H790 H 0.35253 0.08446 0.33777 0.0
H791 H 0.32553 0.07031 0.27796 0.0
Li792 Li 0.26831 0.18473 0.53252 0.0
Li793 Li 0.28058 0.15966 0.51269 0.0
Li794 Li 0.26591 0.1833 0.49581 0.0
Li795 Li 0.24616 0.15745 0.51048 0.0
C796 C 0.30385 0.20147 0.51834 0.0
N797 N 0.33485 0.23016 0.52354 0.0
C798 C 0.32171 0.19768 0.52235 0.0
C799 C 0.30173 0.21982 0.51696 0.0
C800 C 0.33721 0.21239 0.52494 0.0
C801 C 0.31759 0.23414 0.51964 0.0
C802 C 0.26626 0.14429 0.54639 0.0
C803 C 0.26271 0.11214 0.55255 0.0
N804 N 0.26972 0.11793 0.57168 0.0
C805 C 0.27338 0.14993 0.56611 0.0
C806 C 0.26083 0.12526 0.53954 0.0
C807 C 0.27505 0.13639 0.57866 0.0
C808 C 0.25529 0.20261 0.56503 0.0
N809 N 0.27111 0.19987 0.5575 0.0
C810 C 0.28983 0.21539 0.58718 0.0
C811 C 0.28821 0.20622 0.56805 0.0
C812 C 0.27368 0.21804 0.5956 0.0
C813 C 0.25625 0.21174 0.58406 0.0
H814 H 0.24183 0.19718 0.55645 0.0
H815 H 0.30058 0.20369 0.56184 0.0
C816 C 0.306 0.13982 0.49535 0.0
N817 N 0.30044 0.14618 0.51257 0.0
C818 C 0.32143 0.13115 0.49543 0.0
C819 C 0.32511 0.13585 0.53092 0.0
C820 C 0.3096 0.1443 0.53016 0.0
C821 C 0.33135 0.12934 0.51341 0.0
H822 H 0.29874 0.14186 0.48154 0.0
H823 H 0.30518 0.14982 0.54363 0.0
C824 C 0.23488 0.1973 0.50992 0.0
N825 N 0.21222 0.22259 0.50314 0.0
C826 C 0.21658 0.19105 0.50077 0.0
C827 C 0.24166 0.21637 0.51573 0.0
C828 C 0.20534 0.20407 0.49745 0.0
C829 C 0.22998 0.22895 0.51213 0.0
C830 C 0.25819 0.14184 0.4735 0.0
C831 C 0.25458 0.14606 0.45434 0.0
C832 C 0.25854 0.12343 0.47674 0.0
C833 C 0.25138 0.13173 0.43869 0.0
C834 C 0.25527 0.10949 0.46069 0.0
N835 N 0.2518 0.1139 0.44216 0.0
C836 C 0.28474 0.20074 0.46683 0.0
C837 C 0.25278 0.20256 0.46442 0.0
C838 C 0.2869 0.20951 0.44986 0.0
N839 N 0.26787 0.19737 0.47372 0.0
C840 C 0.25432 0.21142 0.44743 0.0
C841 C 0.27151 0.21483 0.43973 0.0
H842 H 0.29646 0.19616 0.47424 0.0
H843 H 0.23941 0.19946 0.46987 0.0
C844 C 0.2174 0.13598 0.52678 0.0
N845 N 0.22249 0.14084 0.50931 0.0
C846 C 0.20033 0.12413 0.52759 0.0
C847 C 0.19357 0.12287 0.49241 0.0
C848 C 0.21104 0.13452 0.49224 0.0
C849 C 0.18792 0.11749 0.51031 0.0
H850 H 0.22663 0.14138 0.54019 0.0
H851 H 0.21533 0.13875 0.47854 0.0
O852 O 0.2886 0.18716 0.51536 0.0
O853 O 0.26417 0.15739 0.53404 0.0
O854 O 0.24594 0.18472 0.51356 0.0
O855 O 0.26199 0.15584 0.48888 0.0
H856 H 0.32358 0.18353 0.52335 0.0
H857 H 0.288 0.22292 0.5137 0.0
H858 H 0.35112 0.20966 0.52803 0.0
H859 H 0.31619 0.24842 0.51857 0.0
H860 H 0.25853 0.09736 0.54747 0.0
H861 H 0.27754 0.16462 0.57167 0.0
H862 H 0.25505 0.12067 0.52439 0.0
H863 H 0.28053 0.14055 0.59397 0.0
H864 H 0.30358 0.22015 0.59537 0.0
H865 H 0.2434 0.21316 0.58993 0.0
H866 H 0.32592 0.12648 0.48161 0.0
H867 H 0.33225 0.13457 0.54511 0.0
H868 H 0.21112 0.1763 0.4963 0.0
H869 H 0.25575 0.22137 0.523 0.0
H870 H 0.19114 0.19945 0.49037 0.0
H871 H 0.23502 0.24376 0.51652 0.0
H872 H 0.25438 0.16028 0.45158 0.0
H873 H 0.26157 0.11998 0.49144 0.0
H874 H 0.24863 0.1348 0.42377 0.0
H875 H 0.25559 0.09518 0.46297 0.0
H876 H 0.30035 0.21149 0.44439 0.0
H877 H 0.24208 0.21542 0.44034 0.0
H878 H 0.19704 0.12018 0.54172 0.0
H879 H 0.18452 0.11847 0.47869 0.0
Li880 Li 0.14559 0.05748 0.78792 0.0
Li881 Li 0.11981 0.038 0.80244 0.0
Li882 Li 0.14322 0.0233 0.78548 0.0
Li883 Li 0.11838 0.03553 0.76586 0.0
C884 C 0.16155 0.04611 0.82443 0.0
N885 N 0.19028 0.05388 0.85504 0.0
C886 C 0.15783 0.05029 0.84368 0.0
C887 C 0.17986 0.04588 0.82073 0.0
C888 C 0.17256 0.05418 0.85896 0.0
C889 C 0.1942 0.04986 0.8364 0.0
C890 C 0.10619 0.0692 0.78896 0.0
C891 C 0.07475 0.07456 0.78789 0.0
N892 N 0.08154 0.09236 0.79659 0.0
C893 C 0.11288 0.08754 0.79785 0.0
C894 C 0.087 0.06263 0.78387 0.0
C895 C 0.10018 0.09904 0.8016 0.0
C896 C 0.16503 0.08683 0.77146 0.0
N897 N 0.16225 0.0809 0.78915 0.0
C898 C 0.18266 0.10857 0.80585 0.0
C899 C 0.17076 0.09132 0.80623 0.0
C900 C 0.18578 0.1151 0.78772 0.0
C901 C 0.17685 0.10384 0.77039 0.0
H902 H 0.15802 0.07828 0.75812 0.0
H903 H 0.16817 0.08635 0.82014 0.0
C904 C 0.10173 0.01922 0.83085 0.0
N905 N 0.10609 0.03631 0.82459 0.0
C906 C 0.09334 0.01717 0.84802 0.0
C907 C 0.09387 0.05034 0.85199 0.0
C908 C 0.10233 0.05176 0.83475 0.0
C909 C 0.08944 0.03289 0.85897 0.0
H910 H 0.10518 0.00721 0.82271 0.0
H911 H 0.1064 0.06529 0.82986 0.0
C912 C 0.15889 0.03747 0.75211 0.0
N913 N 0.18548 0.03368 0.72721 0.0
C914 C 0.15343 0.02947 0.73262 0.0
C915 C 0.17785 0.04368 0.7589 0.0
C916 C 0.16709 0.02765 0.72026 0.0
C917 C 0.19109 0.04158 0.7461 0.0
C918 C 0.10137 1.00005 0.7788 0.0
C919 C 0.10509 0.98239 0.77333 0.0
C920 C 0.08305 1.002 0.78061 0.0
C921 C 0.09035 0.9669 0.76975 0.0
C922 C 0.06868 0.98616 0.7769 0.0
N923 N 0.0726 0.96909 0.7716 0.0
C924 C 0.16347 0.999 0.80338 0.0
C925 C 0.15838 0.99392 0.76855 0.0
C926 C 0.17249 0.98389 0.80391 0.0
N927 N 0.15671 0.00371 0.78587 0.0
C928 C 0.16705 0.97858 0.76842 0.0
C929 C 0.1741 0.97335 0.78627 0.0
H930 H 0.16151 0.00671 0.81695 0.0
H931 H 0.15251 0.9977 0.75488 0.0
C932 C 0.09979 0.04906 0.73448 0.0
N933 N 0.10343 0.03305 0.74089 0.0
C934 C 0.09108 0.04883 0.71543 0.0
C935 C 0.08967 0.01556 0.70993 0.0
C936 C 0.09836 0.01642 0.72917 0.0
C937 C 0.08622 0.032 0.70265 0.0
H938 H 0.10416 0.06214 0.74399 0.0
H939 H 0.10171 0.00393 0.73449 0.0
O940 O 0.14718 0.04165 0.80943 0.0
O941 O 0.11845 0.05794 0.78477 0.0
O942 O 0.14566 0.03971 0.76425 0.0
O943 O 0.11574 0.01521 0.78302 0.0
H944 H 0.1437 0.05038 0.8468 0.0
H945 H 0.18292 0.04238 0.80597 0.0
H946 H 0.16988 0.05738 0.87395 0.0
H947 H 0.20844 0.04965 0.83377 0.0
H948 H 0.05985 0.06968 0.78403 0.0
H949 H 0.12773 0.09284 0.80175 0.0
H950 H 0.08166 0.04851 0.77681 0.0
H951 H 0.10515 0.11328 0.80846 0.0
H952 H 0.18905 0.11684 0.8196 0.0
H953 H 0.17905 0.10802 0.75605 0.0
H954 H 0.09003 0.00342 0.85272 0.0
H955 H 0.09143 0.06289 0.8601 0.0
H956 H 0.1388 0.02474 0.72708 0.0
H957 H 0.18229 0.05021 0.77383 0.0
H958 H 0.16307 0.02148 0.70514 0.0
H959 H 0.20582 0.04632 0.75116 0.0
H960 H 0.11922 0.98063 0.77202 0.0
H961 H 0.07999 0.01556 0.78502 0.0
H962 H 0.09303 0.95314 0.76557 0.0
H963 H 0.05442 0.98742 0.77831 0.0
H964 H 0.17757 0.9801 0.81795 0.0
H965 H 0.16812 0.97079 0.75451 0.0
H966 H 0.08845 0.06181 0.7107 0.0
H967 H 0.08641 1.00229 0.70063 0.0
Li968 Li 0.27824 0.9362 0.99654 0.0
Li969 Li 0.28956 0.9144 0.01788 0.0
Li970 Li 0.31053 0.9388 0.00392 0.0
Li971 Li 0.29207 0.91089 0.98269 0.0
C972 C 0.30165 0.95442 0.03867 0.0
N973 N 0.31871 0.9799 0.07062 0.0
C974 C 0.30351 0.94879 0.05743 0.0
C975 C 0.30835 0.97306 0.0362 0.0
C976 C 0.31216 0.96187 0.07339 0.0
C977 C 0.31704 0.9857 0.05251 0.0
C978 C 0.25551 0.8938 0.99544 0.0
C979 C 0.24478 0.86042 0.99243 0.0
N980 N 0.22728 0.86299 0.99502 0.0
C981 C 0.23743 0.89614 0.99805 0.0
C982 C 0.25926 0.87583 0.99258 0.0
C983 C 0.22335 0.88038 0.99781 0.0
C984 C 0.24508 0.94263 0.97767 0.0
N985 N 0.2595 0.9494 0.99208 0.0
C986 C 0.24413 0.97266 0.00515 0.0
C987 C 0.25973 0.96458 0.00513 0.0
C988 C 0.22833 0.96478 0.99172 0.0
C989 C 0.22908 0.95026 0.9772 0.0
H990 H 0.24547 0.93045 0.9676 0.0
H991 H 0.27145 0.96953 0.01638 0.0
C992 C 0.30135 0.89549 0.04813 0.0
N993 N 0.28605 0.90065 0.03932 0.0
C994 C 0.29975 0.88471 0.06358 0.0
C995 C 0.26682 0.88555 0.0613 0.0
C996 C 0.26901 0.89613 0.04564 0.0
C997 C 0.28231 0.8796 0.0702 0.0
H998 H 0.31481 0.89972 0.04313 0.0
H999 H 0.25716 0.90069 0.03852 0.0
C1000 C 0.2917 0.94792 0.96374 0.0
N1001 N 0.28408 0.97037 0.93533 0.0
C1002 C 0.28899 0.94079 0.94384 0.0
C1003 C 0.29087 0.9666 0.96914 0.0
C1004 C 0.28509 0.95233 0.92971 0.0
C1005 C 0.28684 0.97767 0.95458 0.0
C1006 C 0.32405 0.90044 0.00292 0.0
C1007 C 0.34214 0.90724 0.99873 0.0
C1008 C 0.31851 0.88154 0.00505 0.0
C1009 C 0.35441 0.89496 0.99671 0.0
C1010 C 0.33121 0.86971 0.00292 0.0
N1011 N 0.34874 0.87661 0.99883 0.0
C1012 C 0.34612 0.95868 0.02292 0.0
C1013 C 0.33676 0.96412 0.9904 0.0
C1014 C 0.36347 0.97038 0.02292 0.0
N1015 N 0.33333 0.95569 0.00666 0.0
C1016 C 0.35367 0.97592 0.98981 0.0
C1017 C 0.36741 0.97874 0.00596 0.0
H1018 H 0.34305 0.95155 0.03555 0.0
H1019 H 0.32674 0.96118 0.97748 0.0
C1020 C 0.2741 0.89221 0.94776 0.0
N1021 N 0.29032 0.89438 0.95988 0.0
C1022 C 0.27227 0.88274 0.92891 0.0
C1023 C 0.30344 0.87684 0.93601 0.0
C1024 C 0.30484 0.88686 0.9545 0.0
C1025 C 0.28719 0.87514 0.92272 0.0
H1026 H 0.26298 0.89876 0.95239 0.0
H1027 H 0.31772 0.88909 0.96419 0.0
O1028 O 0.29218 0.94203 0.02312 0.0
O1029 O 0.26933 0.9091 0.9953 0.0
O1030 O 0.29675 0.93714 0.97768 0.0
O1031 O 0.31198 0.91235 0.00526 0.0
H1032 H 0.29801 0.93457 0.05975 0.0
H1033 H 0.30687 0.97771 0.02182 0.0
H1034 H 0.31355 0.95772 0.088 0.0
H1035 H 0.32237 1.00014 0.0508 0.0
H1036 H 0.24744 0.8464 0.99021 0.0
H1037 H 0.23434 0.90999 1.00026 0.0
H1038 H 0.27315 0.87381 0.9904 0.0
H1039 H 0.20929 0.88197 0.99982 0.0
H1040 H 0.24372 0.98369 0.0167 0.0
H1041 H 0.21688 0.94374 0.96694 0.0
H1042 H 0.31199 0.88046 0.07036 0.0
H1043 H 0.2532 0.88178 0.06618 0.0
H1044 H 0.29039 0.92666 0.93928 0.0
H1045 H 0.29355 0.97254 0.98443 0.0
H1046 H 0.28306 0.94699 0.91427 0.0
H1047 H 0.2861 0.99212 0.95858 0.0
H1048 H 0.34665 0.92184 0.99704 0.0
H1049 H 0.30458 0.87607 0.00835 0.0
H1050 H 0.36845 0.90001 0.99346 0.0
H1051 H 0.32713 0.85505 0.00455 0.0
H1052 H 0.37396 0.9721 0.03556 0.0
H1053 H 0.35626 0.98219 0.97652 0.0
H1054 H 0.25959 0.88204 0.91914 0.0
H1055 H 0.31511 0.87079 0.93209 0.0
Li1056 Li 0.27568 0.39043 0.03607 0.0
Li1057 Li 0.29048 0.36762 0.05323 0.0
Li1058 Li 0.31005 0.39344 0.03707 0.0
Li1059 Li 0.28873 0.36564 0.01611 0.0
C1060 C 0.29401 0.40909 0.07394 0.0
N1061 N 0.29242 0.43673 0.10367 0.0
C1062 C 0.28678 0.40436 0.09116 0.0
C1063 C 0.30046 0.42785 0.07184 0.0
C1064 C 0.28609 0.41855 0.10603 0.0
C1065 C 0.29951 0.44163 0.08704 0.0
C1066 C 0.25228 0.34967 0.03229 0.0
C1067 C 0.23476 0.31826 0.02273 0.0
N1068 N 0.2198 0.3232 0.03044 0.0
C1069 C 0.23676 0.35445 0.04013 0.0
C1070 C 0.2513 0.33146 0.02347 0.0
C1071 C 0.22045 0.34086 0.03904 0.0
C1072 C 0.24689 0.40487 0.01744 0.0
N1073 N 0.25547 0.40344 0.03547 0.0
C1074 C 0.23394 0.41896 0.05107 0.0
C1075 C 0.24927 0.41018 0.05216 0.0
C1076 C 0.22475 0.42057 0.03262 0.0
C1077 C 0.23149 0.41345 0.01566 0.0
H1078 H 0.25195 0.39918 0.0044 0.0
H1079 H 0.25592 0.40844 0.06634 0.0
C1080 C 0.30299 0.36117 0.09158 0.0
N1081 N 0.28963 0.35439 0.07605 0.0
C1082 C 0.30191 0.35386 0.10952 0.0
C1083 C 0.27383 0.33208 0.09494 0.0
C1084 C 0.27533 0.33996 0.07736 0.0
C1085 C 0.28705 0.33926 0.11143 0.0
H1086 H 0.31418 0.37271 0.09023 0.0
H1087 H 0.26479 0.3348 0.06496 0.0
C1088 C 0.29311 0.40663 0.00231 0.0
N1089 N 0.2967 0.43464 0.97825 0.0
C1090 C 0.2952 0.40254 0.98252 0.0
C1091 C 0.29281 0.42494 0.00989 0.0
C1092 C 0.297 0.4169 0.97059 0.0
C1093 C 0.29466 0.43892 0.99748 0.0
C1094 C 0.32217 0.35368 0.03562 0.0
C1095 C 0.34068 0.35915 0.03204 0.0
C1096 C 0.31544 0.3353 0.03893 0.0
C1097 C 0.35221 0.34604 0.03179 0.0
C1098 C 0.32743 0.32262 0.0386 0.0
N1099 N 0.3454 0.3282 0.03506 0.0
C1100 C 0.3433 0.41887 0.05527 0.0
C1101 C 0.34009 0.41353 0.02052 0.0
C1102 C 0.36038 0.43127 0.05563 0.0
N1103 N 0.3335 0.41038 0.03787 0.0
C1104 C 0.35701 0.42589 0.02018 0.0
C1105 C 0.36744 0.43499 0.0379 0.0
H1106 H 0.33784 0.41601 0.06889 0.0
H1107 H 0.33225 0.40633 0.00689 0.0
C1108 C 0.27039 0.35073 0.97809 0.0
N1109 N 0.28565 0.35056 0.99098 0.0
C1110 C 0.26865 0.34205 0.95873 0.0
C1111 C 0.29807 0.33268 0.96642 0.0
C1112 C 0.29927 0.34158 0.98558 0.0
C1113 C 0.28279 0.33314 0.95252 0.0
H1114 H 0.25989 0.35822 0.98264 0.0
H1115 H 0.31139 0.34176 0.99592 0.0
O1116 O 0.29522 0.39535 0.05946 0.0
O1117 O 0.26823 0.36285 0.03287 0.0
O1118 O 0.2911 0.39267 0.01409 0.0
O1119 O 0.31079 0.36639 0.03609 0.0
H1120 H 0.28162 0.38991 0.09299 0.0
H1121 H 0.30626 0.43173 0.05868 0.0
H1122 H 0.28052 0.41509 0.11943 0.0
H1123 H 0.30447 0.45622 0.08563 0.0
H1124 H 0.2338 0.30409 0.01599 0.0
H1125 H 0.23729 0.3685 0.04697 0.0
H1126 H 0.26322 0.32758 0.01732 0.0
H1127 H 0.20831 0.34436 0.04501 0.0
H1128 H 0.22907 0.42402 0.06451 0.0
H1129 H 0.225 0.41459 0.00113 0.0
H1130 H 0.31251 0.35965 0.1218 0.0
H1131 H 0.2621 0.3209 0.09582 0.0
H1132 H 0.29544 0.38841 0.97644 0.0
H1133 H 0.29104 0.42828 0.02513 0.0
H1134 H 0.29862 0.41394 0.95523 0.0
H1135 H 0.29443 0.45316 0.00312 0.0
H1136 H 0.34606 0.37336 0.02949 0.0
H1137 H 0.30113 0.33091 0.04175 0.0
H1138 H 0.36656 0.35005 0.02903 0.0
H1139 H 0.32246 0.30834 0.04116 0.0
H1140 H 0.36788 0.43802 0.06964 0.0
H1141 H 0.36205 0.428 0.00619 0.0
H1142 H 0.25673 0.34301 0.94855 0.0
H1143 H 0.30918 0.32576 0.96248 0.0
Li1144 Li 0.76703 0.1392 0.06421 0.0
Li1145 Li 0.7828 0.11574 0.04813 0.0
Li1146 Li 0.76685 0.13699 0.02916 0.0
Li1147 Li 0.7491 0.11103 0.04345 0.0
C1148 C 0.80282 0.15866 0.05279 0.0
N1149 N 0.83141 0.18981 0.05946 0.0
C1150 C 0.82113 0.15683 0.05848 0.0
C1151 C 0.79906 0.17631 0.05037 0.0
C1152 C 0.8354 0.17274 0.06178 0.0
C1153 C 0.8137 0.1919 0.05388 0.0
C1154 C 0.76312 0.10004 0.0808 0.0
C1155 C 0.75719 0.06794 0.08721 0.0
N1156 N 0.75762 0.07375 0.10666 0.0
C1157 C 0.76347 0.10572 0.10083 0.0
C1158 C 0.76002 0.08103 0.07388 0.0
C1159 C 0.76071 0.0922 0.11368 0.0
C1160 C 0.75208 0.15797 0.09363 0.0
N1161 N 0.76817 0.15489 0.08706 0.0
C1162 C 0.78659 0.17433 0.11445 0.0
C1163 C 0.7852 0.16246 0.09714 0.0
C1164 C 0.77024 0.17812 0.12141 0.0
C1165 C 0.7528 0.16975 0.1109 0.0
H1166 H 0.73875 0.15118 0.08552 0.0
H1167 H 0.79767 0.1592 0.0918 0.0
C1168 C 0.80859 0.09733 0.03378 0.0
N1169 N 0.80242 0.10348 0.05062 0.0
C1170 C 0.82264 0.08709 0.0345 0.0
C1171 C 0.82426 0.0905 0.07003 0.0
C1172 C 0.80983 0.10038 0.06857 0.0
C1173 C 0.83059 0.08362 0.05279 0.0
H1174 H 0.80257 0.10041 0.01981 0.0
H1175 H 0.80458 0.10564 0.08167 0.0
C1176 C 0.73344 0.14921 0.04333 0.0
N1177 N 0.70924 0.17382 0.04255 0.0
C1178 C 0.71425 0.14252 0.03825 0.0
C1179 C 0.74031 0.16841 0.04804 0.0
C1180 C 0.70224 0.15519 0.03792 0.0
C1181 C 0.72785 0.18063 0.04756 0.0
C1182 C 0.76102 0.09728 0.00656 0.0
C1183 C 0.75186 0.1023 0.98974 0.0
C1184 C 0.76515 0.07943 0.00622 0.0
C1185 C 0.74708 0.0894 0.9728 0.0
C1186 C 0.76007 0.06691 0.98901 0.0
N1187 N 0.75125 0.07212 0.97279 0.0
C1188 C 0.78587 0.1557 0.00245 0.0
C1189 C 0.75323 0.15507 0.99848 0.0
C1190 C 0.7882 0.16547 0.98634 0.0
N1191 N 0.76862 0.15076 0.0081 0.0
C1192 C 0.75486 0.16454 0.98206 0.0
C1193 C 0.77252 0.1697 0.97585 0.0
H1194 H 0.79776 0.15181 0.01034 0.0
H1195 H 0.73968 0.15076 0.00328 0.0
C1196 C 0.71751 0.09525 0.05733 0.0
N1197 N 0.7275 0.09293 0.04208 0.0
C1198 C 0.70031 0.08358 0.0575 0.0
C1199 C 0.7046 0.06669 0.0268 0.0
C1200 C 0.72166 0.07879 0.02719 0.0
C1201 C 0.69345 0.06947 0.04175 0.0
H1202 H 0.72265 0.10667 0.06896 0.0
H1203 H 0.72978 0.07718 0.01525 0.0
O1204 O 0.7888 0.14313 0.04935 0.0
O1205 O 0.76582 0.11315 0.06811 0.0
O1206 O 0.74526 0.13687 0.04413 0.0
O1207 O 0.76631 0.10989 0.0231 0.0
H1208 H 0.82427 0.14323 0.06029 0.0
H1209 H 0.78506 0.17794 0.04562 0.0
H1210 H 0.84964 0.17153 0.06617 0.0
H1211 H 0.81099 0.20565 0.05208 0.0
H1212 H 0.75467 0.05316 0.08209 0.0
H1213 H 0.76592 0.12041 0.10638 0.0
H1214 H 0.75972 0.07646 0.0584 0.0
H1215 H 0.76101 0.09638 0.12924 0.0
H1216 H 0.80027 0.18058 0.1222 0.0
H1217 H 0.7399 0.17209 0.11611 0.0
H1218 H 0.82762 0.08238 0.02098 0.0
H1219 H 0.83039 0.08824 0.08433 0.0
H1220 H 0.70868 0.12768 0.03466 0.0
H1221 H 0.75503 0.1738 0.05237 0.0
H1222 H 0.68736 0.15021 0.03404 0.0
H1223 H 0.73298 0.19551 0.05127 0.0
H1224 H 0.74848 0.116 0.98974 0.0
H1225 H 0.77202 0.07523 0.01919 0.0
H1226 H 0.74006 0.09313 0.95966 0.0
H1227 H 0.76314 0.05304 0.98856 0.0
H1228 H 0.80197 0.16923 0.98179 0.0
H1229 H 0.74252 0.16779 0.97428 0.0
H1230 H 0.692 0.0864 0.06913 0.0
H1231 H 0.69978 0.05587 0.01449 0.0
Li1232 Li 0.1915 0.55921 0.2532 0.0
Li1233 Li 0.16688 0.54035 0.26884 0.0
Li1234 Li 0.18813 0.52569 0.24898 0.0
Li1235 Li 0.1635 0.53955 0.23339 0.0
C1236 C 0.20816 0.54991 0.28885 0.0
N1237 N 0.23594 0.56315 0.31985 0.0
C1238 C 0.20378 0.55787 0.30663 0.0
C1239 C 0.22662 0.54867 0.2868 0.0
C1240 C 0.21804 0.5645 0.32213 0.0
C1241 C 0.24048 0.55546 0.30265 0.0
C1242 C 0.15285 0.57318 0.25279 0.0
C1243 C 0.12137 0.5785 0.2481 0.0
N1244 N 0.12815 0.59725 0.25121 0.0
C1245 C 0.15952 0.5925 0.25587 0.0
C1246 C 0.13363 0.5661 0.24885 0.0
C1247 C 0.1468 0.60445 0.25505 0.0
C1248 C 0.21091 0.58617 0.23512 0.0
N1249 N 0.20847 0.58156 0.25338 0.0
C1250 C 0.22888 0.60979 0.26813 0.0
C1251 C 0.21719 0.59284 0.26983 0.0
C1252 C 0.23149 0.61493 0.24934 0.0
C1253 C 0.2227 0.60266 0.23273 0.0
H1254 H 0.20331 0.57725 0.22233 0.0
H1255 H 0.21462 0.589 0.28417 0.0
C1256 C 0.15299 0.52162 0.2987 0.0
N1257 N 0.15353 0.53762 0.29025 0.0
C1258 C 0.14167 0.51792 0.31346 0.0
C1259 C 0.13196 0.54738 0.3105 0.0
C1260 C 0.14364 0.55061 0.29604 0.0
C1261 C 0.13073 0.53076 0.31912 0.0
H1262 H 0.16102 0.51156 0.29359 0.0
H1263 H 0.14457 0.5633 0.28923 0.0
C1264 C 0.20175 0.54007 0.21536 0.0
N1265 N 0.2264 0.53642 0.18821 0.0
C1266 C 0.1951 0.53516 0.19543 0.0
C1267 C 0.22092 0.54317 0.22151 0.0
C1268 C 0.20779 0.53337 0.18193 0.0
C1269 C 0.23316 0.54123 0.20754 0.0
C1270 C 0.14582 0.50401 0.24649 0.0
C1271 C 0.14777 0.48572 0.24083 0.0
C1272 C 0.12838 0.5075 0.25021 0.0
C1273 C 0.13213 0.4712 0.23887 0.0
C1274 C 0.11307 0.4926 0.24805 0.0
N1275 N 0.11525 0.47491 0.24247 0.0
C1276 C 0.2073 0.50135 0.26434 0.0
C1277 C 0.20279 0.49713 0.22942 0.0
C1278 C 0.21676 0.48673 0.2646 0.0
N1279 N 0.20072 0.50627 0.24696 0.0
C1280 C 0.21213 0.48228 0.22897 0.0
C1281 C 0.21923 0.47707 0.24676 0.0
H1282 H 0.20492 0.50864 0.27799 0.0
H1283 H 0.19695 0.50116 0.21586 0.0
C1284 C 0.14371 0.55309 0.20362 0.0
N1285 N 0.14755 0.5374 0.21052 0.0
C1286 C 0.1329 0.5518 0.18563 0.0
C1287 C 0.13111 0.51831 0.18183 0.0
C1288 C 0.14165 0.52024 0.2001 0.0
C1289 C 0.12658 0.53424 0.17442 0.0
H1290 H 0.1493 0.56662 0.21194 0.0
H1291 H 0.14564 0.50815 0.20573 0.0
O1292 O 0.19426 0.54248 0.2739 0.0
O1293 O 0.16519 0.56137 0.25348 0.0
O1294 O 0.18954 0.54249 0.22865 0.0
O1295 O 0.1611 0.51828 0.24873 0.0
H1296 H 0.18951 0.55878 0.30847 0.0
H1297 H 0.23017 0.54236 0.27317 0.0
H1298 H 0.21487 0.57064 0.33601 0.0
H1299 H 0.25484 0.55452 0.30132 0.0
H1300 H 0.10646 0.57321 0.24501 0.0
H1301 H 0.17436 0.59821 0.25889 0.0
H1302 H 0.12825 0.55121 0.24618 0.0
H1303 H 0.15176 0.61943 0.25744 0.0
H1304 H 0.23509 0.61909 0.28131 0.0
H1305 H 0.22442 0.60604 0.21801 0.0
H1306 H 0.14102 0.50501 0.31993 0.0
H1307 H 0.12389 0.5577 0.31485 0.0
H1308 H 0.18031 0.5329 0.19043 0.0
H1309 H 0.22626 0.54715 0.23688 0.0
H1310 H 0.20285 0.52962 0.16644 0.0
H1311 H 0.24804 0.54362 0.21206 0.0
H1312 H 0.16123 0.48279 0.23803 0.0
H1313 H 0.1267 0.52151 0.25491 0.0
H1314 H 0.13343 0.45697 0.23451 0.0
H1315 H 0.09947 0.4951 0.25088 0.0
H1316 H 0.22159 0.48264 0.27858 0.0
H1317 H 0.21366 0.47488 0.21501 0.0
H1318 H 0.12956 0.56442 0.18063 0.0
H1319 H 0.12694 0.50458 0.17349 0.0
Li1320 Li 0.77509 0.89002 0.53476 0.0
Li1321 Li 0.78965 0.86704 0.55166 0.0
Li1322 Li 0.80963 0.89322 0.53647 0.0
Li1323 Li 0.78852 0.86551 0.51479 0.0
C1324 C 0.79542 0.9087 0.57318 0.0
N1325 N 0.79793 0.93723 0.60331 0.0
C1326 C 0.79028 0.90466 0.59149 0.0
C1327 C 0.80197 0.92723 0.57022 0.0
C1328 C 0.79161 0.91928 0.60653 0.0
C1329 C 0.8031 0.94146 0.58564 0.0
C1330 C 0.75224 0.84891 0.53194 0.0
C1331 C 0.73639 0.81662 0.52671 0.0
N1332 N 0.72091 0.8217 0.53307 0.0
C1333 C 0.73617 0.85384 0.53836 0.0
C1334 C 0.75237 0.83019 0.526 0.0
C1335 C 0.72048 0.83987 0.53887 0.0
C1336 C 0.74417 0.90245 0.5173 0.0
N1337 N 0.75493 0.903 0.53468 0.0
C1338 C 0.73572 0.92063 0.55145 0.0
C1339 C 0.75092 0.91171 0.55163 0.0
C1340 C 0.72436 0.92031 0.53372 0.0
C1341 C 0.72872 0.91103 0.51648 0.0
H1342 H 0.74756 0.89522 0.50409 0.0
H1343 H 0.7593 0.91156 0.56536 0.0
C1344 C 0.80294 0.84883 0.58376 0.0
N1345 N 0.78775 0.85368 0.57424 0.0
C1346 C 0.80164 0.84095 0.6014 0.0
C1347 C 0.76911 0.84312 0.59903 0.0
C1348 C 0.77104 0.85091 0.58149 0.0
C1349 C 0.78458 0.83821 0.60942 0.0
H1350 H 0.81621 0.85157 0.57799 0.0
H1351 H 0.7593 0.85534 0.57401 0.0
C1352 C 0.79033 0.90597 0.50081 0.0
N1353 N 0.78948 0.93285 0.47567 0.0
C1354 C 0.79104 0.90146 0.48075 0.0
C1355 C 0.78915 0.92411 0.50811 0.0
C1356 C 0.79062 0.91526 0.46828 0.0
C1357 C 0.78872 0.93751 0.49514 0.0
C1358 C 0.82179 0.85343 0.53422 0.0
C1359 C 0.84065 0.85934 0.53218 0.0
C1360 C 0.81474 0.83463 0.53566 0.0
C1361 C 0.85222 0.84628 0.53163 0.0
C1362 C 0.82679 0.82201 0.53511 0.0
N1363 N 0.84511 0.82805 0.53311 0.0
C1364 C 0.84517 0.91369 0.55505 0.0
C1365 C 0.83737 0.91887 0.52216 0.0
C1366 C 0.86244 0.92599 0.55615 0.0
N1367 N 0.83306 0.9104 0.53821 0.0
C1368 C 0.85431 0.9314 0.52268 0.0
C1369 C 0.86717 0.93508 0.5398 0.0
H1370 H 0.84146 0.90668 0.56759 0.0
H1371 H 0.8278 0.91574 0.50877 0.0
C1372 C 0.7698 0.84768 0.47752 0.0
N1373 N 0.78623 0.85078 0.48956 0.0
C1374 C 0.76847 0.83918 0.45813 0.0
C1375 C 0.80083 0.83676 0.46402 0.0
C1376 C 0.80156 0.84537 0.48322 0.0
C1377 C 0.78422 0.83384 0.45097 0.0
H1378 H 0.75789 0.85241 0.48277 0.0
H1379 H 0.81457 0.84824 0.49288 0.0
O1380 O 0.79418 0.89454 0.55833 0.0
O1381 O 0.76754 0.86245 0.53091 0.0
O1382 O 0.79109 0.89268 0.51324 0.0
O1383 O 0.81039 0.86611 0.53506 0.0
H1384 H 0.78526 0.89039 0.59405 0.0
H1385 H 0.80616 0.93057 0.55619 0.0
H1386 H 0.78762 0.91636 0.62075 0.0
H1387 H 0.80811 0.95587 0.58357 0.0
H1388 H 0.73626 0.80206 0.52215 0.0
H1389 H 0.73583 0.8683 0.54295 0.0
H1390 H 0.76467 0.8262 0.52083 0.0
H1391 H 0.70796 0.84347 0.54383 0.0
H1392 H 0.7327 0.92742 0.56511 0.0
H1393 H 0.72043 0.91062 0.50246 0.0
H1394 H 0.81401 0.83764 0.60899 0.0
H1395 H 0.75565 0.84113 0.60449 0.0
H1396 H 0.79206 0.88749 0.47491 0.0
H1397 H 0.78856 0.9278 0.52359 0.0
H1398 H 0.79123 0.912 0.45273 0.0
H1399 H 0.78781 0.95163 0.50056 0.0
H1400 H 0.84627 0.87388 0.53106 0.0
H1401 H 0.80017 0.82989 0.53732 0.0
H1402 H 0.86685 0.85065 0.53006 0.0
H1403 H 0.82158 0.80742 0.53628 0.0
H1404 H 0.87192 0.92843 0.56967 0.0
H1405 H 0.8575 0.93776 0.5096 0.0
H1406 H 0.75542 0.8375 0.44865 0.0
H1407 H 0.81327 0.83265 0.4594 0.0
Li1408 Li 0.9373 0.01496 0.28154 0.0
Li1409 Li 0.90965 0.99341 0.2603 0.0
Li1410 Li 0.93572 0.01367 0.24468 0.0
Li1411 Li 0.9125 0.02806 0.26162 0.0
C1412 C 0.94986 0.98203 0.26306 0.0
N1413 N 0.97581 0.95937 0.26546 0.0
C1414 C 0.9444 0.96344 0.26639 0.0
C1415 C 0.96848 0.98913 0.26092 0.0
C1416 C 0.95774 0.9522 0.26758 0.0
C1417 C 0.9814 0.97743 0.26218 0.0
C1418 C 0.89681 0.01182 0.29575 0.0
C1419 C 0.86489 0.01126 0.30147 0.0
N1420 N 0.86998 0.0116 0.32106 0.0
C1421 C 0.90174 0.01218 0.31592 0.0
C1422 C 0.87826 0.01131 0.28841 0.0
C1423 C 0.88796 0.01203 0.32848 0.0
C1424 C 0.95778 0.03467 0.31742 0.0
N1425 N 0.95238 0.01754 0.30667 0.0
C1426 C 0.96485 0.00316 0.33335 0.0
C1427 C 0.95584 1.00193 0.31421 0.0
C1428 C 0.97023 0.02061 0.34503 0.0
C1429 C 0.96677 0.03653 0.33666 0.0
H1430 H 0.95463 0.04685 0.31123 0.0
H1431 H 0.95104 0.98841 0.30561 0.0
C1432 C 0.88638 0.95865 0.24205 0.0
N1433 N 0.89279 0.96975 0.25935 0.0
C1434 C 0.87437 0.94131 0.24177 0.0
C1435 C 0.87565 0.94723 0.27703 0.0
C1436 C 0.88774 0.96431 0.27665 0.0
C1437 C 0.8688 0.93538 0.25945 0.0
H1438 H 0.89066 0.96324 0.22849 0.0
H1439 H 0.89329 0.97314 0.29027 0.0
C1440 C 0.95389 0.05122 0.26553 0.0
N1441 N 0.9818 0.08245 0.26668 0.0
C1442 C 0.94946 0.06798 0.26055 0.0
C1443 C 0.97248 0.05031 0.27115 0.0
C1444 C 0.96378 0.08362 0.26118 0.0
C1445 C 0.9864 0.06627 0.27164 0.0
C1446 C 0.89445 0.00935 0.22331 0.0
C1447 C 0.89939 0.01592 0.20584 0.0
C1448 C 0.87564 0.00307 0.22531 0.0
C1449 C 0.88536 0.01627 0.19069 0.0
C1450 C 0.86202 0.00367 0.20981 0.0
N1451 N 0.86712 0.0102 0.19297 0.0
C1452 C 0.95173 0.99975 0.2112 0.0
C1453 C 0.95506 0.03262 0.21659 0.0
C1454 C 0.9599 1.00106 0.19372 0.0
N1455 N 0.94936 0.01542 0.22217 0.0
C1456 C 0.96333 0.03458 0.19933 0.0
C1457 C 0.96562 0.01867 0.1874 0.0
H1458 H 0.94679 0.98618 0.21572 0.0
H1459 H 0.9527 0.04487 0.22521 0.0
C1460 C 0.89533 0.05569 0.2793 0.0
N1461 N 0.89882 0.04792 0.26167 0.0
C1462 C 0.88506 0.06987 0.28025 0.0
C1463 C 0.8829 0.06858 0.24492 0.0
C1464 C 0.8931 0.05427 0.24465 0.0
C1465 C 0.87853 0.07638 0.26289 0.0
H1466 H 0.9005 0.05084 0.29269 0.0
H1467 H 0.89646 0.04828 0.23083 0.0
O1468 O 0.93688 0.99304 0.26142 0.0
O1469 O 0.9102 0.01212 0.28332 0.0
O1470 O 0.94 0.03587 0.2652 0.0
O1471 O 0.90803 0.0086 0.23814 0.0
H1472 H 0.92999 0.95776 0.26798 0.0
H1473 H 0.97285 0.00347 0.25819 0.0
H1474 H 0.95373 0.93778 0.27014 0.0
H1475 H 0.99586 0.98269 0.26051 0.0
H1476 H 0.85049 0.01097 0.29603 0.0
H1477 H 0.91606 0.01256 0.32181 0.0
H1478 H 0.87427 0.01116 0.27285 0.0
H1479 H 0.89156 0.01229 0.34414 0.0
H1480 H 0.96688 0.99045 0.33919 0.0
H1481 H 0.97079 0.05031 0.34495 0.0
H1482 H 0.86939 0.93271 0.22785 0.0
H1483 H 0.87207 0.94316 0.29105 0.0
H1484 H 0.93511 0.0689 0.2562 0.0
H1485 H 0.97609 0.03745 0.27517 0.0
H1486 H 0.96057 0.09668 0.25733 0.0
H1487 H 1.00086 0.06581 0.276 0.0
H1488 H 0.91391 0.0207 0.20402 0.0
H1489 H 0.87162 0.99771 0.23863 0.0
H1490 H 0.88898 0.02135 0.1771 0.0
H1491 H 0.84739 0.99888 0.21114 0.0
H1492 H 0.96113 0.98836 0.18493 0.0
H1493 H 0.96772 0.04846 0.19529 0.0
H1494 H 0.88236 0.07579 0.29446 0.0
H1495 H 0.87818 0.07322 0.23121 0.0
Li1496 Li 0.26743 0.6409 0.56317 0.0
Li1497 Li 0.28475 0.61826 0.54828 0.0
Li1498 Li 0.26841 0.63841 0.52824 0.0
Li1499 Li 0.25124 0.61233 0.54269 0.0
C1500 C 0.30364 0.66103 0.551 0.0
N1501 N 0.33203 0.69224 0.55521 0.0
C1502 C 0.32206 0.65957 0.55667 0.0
C1503 C 0.29964 0.67832 0.54733 0.0
C1504 C 0.33623 0.67552 0.55873 0.0
C1505 C 0.3142 0.69395 0.54959 0.0
C1506 C 0.26411 0.60199 0.58023 0.0
C1507 C 0.2592 0.56986 0.58658 0.0
N1508 N 0.25782 0.57543 0.60572 0.0
C1509 C 0.26261 0.60741 0.59994 0.0
C1510 C 0.26247 0.58309 0.57347 0.0
C1511 C 0.25948 0.59377 0.61261 0.0
C1512 C 0.25143 0.65771 0.59321 0.0
N1513 N 0.26769 0.65641 0.58595 0.0
C1514 C 0.28554 0.6764 0.6133 0.0
C1515 C 0.28456 0.66519 0.59563 0.0
C1516 C 0.26897 0.67832 0.621 0.0
C1517 C 0.25173 0.66884 0.61083 0.0
H1518 H 0.2383 0.64993 0.58543 0.0
H1519 H 0.29724 0.66329 0.58975 0.0
C1520 C 0.31124 0.60123 0.53463 0.0
N1521 N 0.30442 0.6064 0.55141 0.0
C1522 C 0.32414 0.58972 0.53497 0.0
C1523 C 0.32356 0.59006 0.57013 0.0
C1524 C 0.31031 0.60134 0.56903 0.0
C1525 C 0.33021 0.58389 0.55282 0.0
H1526 H 0.30624 0.6057 0.52095 0.0
H1527 H 0.30448 0.60577 0.58207 0.0
C1528 C 0.23408 0.64979 0.54363 0.0
N1529 N 0.20974 0.67416 0.54644 0.0
C1530 C 0.21478 0.64299 0.5403 0.0
C1531 C 0.24098 0.66898 0.54848 0.0
C1532 C 0.20271 0.65554 0.54174 0.0
C1533 C 0.22846 0.68107 0.54984 0.0
C1534 C 0.26364 0.59954 0.50591 0.0
C1535 C 0.25271 0.60453 0.49028 0.0
C1536 C 0.26931 0.58237 0.50396 0.0
C1537 C 0.2477 0.59224 0.47288 0.0
C1538 C 0.26391 0.57044 0.48637 0.0
N1539 N 0.25334 0.57559 0.47132 0.0
C1540 C 0.28618 0.65208 0.49793 0.0
C1541 C 0.25724 0.66143 0.50099 0.0
C1542 C 0.28908 0.66241 0.48226 0.0
N1543 N 0.27053 0.65189 0.5069 0.0
C1544 C 0.25971 0.67217 0.48561 0.0
C1545 C 0.27581 0.67272 0.4762 0.0
H1546 H 0.29643 0.64429 0.50311 0.0
H1547 H 0.24482 0.66078 0.50822 0.0
C1548 C 0.21989 0.59555 0.55576 0.0
N1549 N 0.23068 0.59322 0.54124 0.0
C1550 C 0.20356 0.58268 0.55619 0.0
C1551 C 0.21038 0.56473 0.52731 0.0
C1552 C 0.2266 0.57798 0.52748 0.0
C1553 C 0.1984 0.56738 0.54144 0.0
H1554 H 0.22377 0.60777 0.56663 0.0
H1555 H 0.23552 0.57622 0.51633 0.0
O1556 O 0.28968 0.64553 0.54918 0.0
O1557 O 0.26739 0.61525 0.56776 0.0
O1558 O 0.24604 0.63763 0.54216 0.0
O1559 O 0.26905 0.61149 0.52293 0.0
H1560 H 0.32536 0.64625 0.55953 0.0
H1561 H 0.28552 0.67965 0.54267 0.0
H1562 H 0.35055 0.6746 0.56316 0.0
H1563 H 0.31132 0.70744 0.54685 0.0
H1564 H 0.2578 0.55516 0.58156 0.0
H1565 H 0.26398 0.62201 0.60541 0.0
H1566 H 0.26366 0.57871 0.55825 0.0
H1567 H 0.25838 0.59776 0.62793 0.0
H1568 H 0.29907 0.68356 0.62079 0.0
H1569 H 0.23871 0.66976 0.6166 0.0
H1570 H 0.32948 0.58555 0.52147 0.0
H1571 H 0.32835 0.58599 0.58412 0.0
H1572 H 0.2092 0.62817 0.53652 0.0
H1573 H 0.25583 0.67445 0.55134 0.0
H1574 H 0.18774 0.65048 0.53912 0.0
H1575 H 0.23362 0.69594 0.55361 0.0
H1576 H 0.24814 0.61772 0.49156 0.0
H1577 H 0.27749 0.57814 0.51602 0.0
H1578 H 0.23931 0.59593 0.46063 0.0
H1579 H 0.26809 0.55706 0.48472 0.0
H1580 H 0.30163 0.66265 0.4752 0.0
H1581 H 0.24917 0.67991 0.48102 0.0
H1582 H 0.19451 0.58537 0.56716 0.0
H1583 H 0.20681 0.55301 0.51579 0.0
Li1584 Li 0.40981 0.49315 0.76049 0.0
Li1585 Li 0.43747 0.51455 0.7817 0.0
Li1586 Li 0.41257 0.52758 0.76186 0.0
Li1587 Li 0.43568 0.51331 0.74495 0.0
C1588 C 0.39685 0.51092 0.79589 0.0
N1589 N 0.36967 0.50942 0.82091 0.0
C1590 C 0.40157 0.51054 0.81598 0.0
C1591 C 0.37834 0.51057 0.78851 0.0
C1592 C 0.38762 0.50976 0.8284 0.0
C1593 C 0.36479 0.5098 0.80141 0.0
C1594 C 0.44997 0.48163 0.76273 0.0
C1595 C 0.48167 0.47738 0.76231 0.0
N1596 N 0.476 0.45901 0.76438 0.0
C1597 C 0.44444 0.46273 0.76486 0.0
C1598 C 0.46871 0.48907 0.76147 0.0
C1599 C 0.45782 0.45152 0.76568 0.0
C1600 C 0.38567 0.4591 0.74214 0.0
N1601 N 0.39301 0.46962 0.75954 0.0
C1602 C 0.37669 0.44667 0.77729 0.0
C1603 C 0.38886 0.46369 0.77692 0.0
C1604 C 0.36884 0.43544 0.75959 0.0
C1605 C 0.37353 0.44185 0.74182 0.0
H1606 H 0.38928 0.46408 0.72851 0.0
H1607 H 0.39516 0.4721 0.79058 0.0
C1608 C 0.45512 0.53393 0.81844 0.0
N1609 N 0.45261 0.51739 0.80669 0.0
C1610 C 0.46404 0.53592 0.83771 0.0
C1611 C 0.46813 0.50401 0.83228 0.0
C1612 C 0.45901 0.50259 0.81318 0.0
C1613 C 0.47048 0.52075 0.84499 0.0
H1614 H 0.44968 0.54541 0.81303 0.0
H1615 H 0.4565 0.48945 0.80379 0.0
C1616 C 0.39418 0.50906 0.72373 0.0
N1617 N 0.36634 0.51018 0.69401 0.0
C1618 C 0.39877 0.51562 0.70615 0.0
C1619 C 0.37545 0.50289 0.72613 0.0
C1620 C 0.38449 0.51613 0.69132 0.0
C1621 C 0.36157 0.50363 0.71095 0.0
C1622 C 0.45389 0.55064 0.76499 0.0
C1623 C 0.44938 0.56715 0.75933 0.0
C1624 C 0.4725 0.54994 0.7708 0.0
C1625 C 0.46364 0.58273 0.75946 0.0
C1626 C 0.48637 0.56584 0.77072 0.0
N1627 N 0.48169 0.58176 0.76511 0.0
C1628 C 0.39761 0.55623 0.78026 0.0
C1629 C 0.39309 0.55395 0.74551 0.0
C1630 C 0.38903 0.57165 0.78179 0.0
N1631 N 0.39941 0.54768 0.76234 0.0
C1632 C 0.38433 0.56931 0.74635 0.0
C1633 C 0.38231 0.57845 0.76469 0.0
H1634 H 0.40305 0.55119 0.79342 0.0
H1635 H 0.39516 0.54733 0.73144 0.0
C1636 C 0.4549 0.50027 0.71364 0.0
N1637 N 0.44943 0.51532 0.72267 0.0
C1638 C 0.46339 0.50164 0.69639 0.0
C1639 C 0.46043 0.53392 0.69802 0.0
C1640 C 0.45219 0.53198 0.7153 0.0
C1641 C 0.46604 0.51859 0.68809 0.0
H1642 H 0.45233 0.48708 0.71959 0.0
H1643 H 0.4473 0.54362 0.72242 0.0
O1644 O 0.41038 0.51179 0.78361 0.0
O1645 O 0.43698 0.49267 0.76163 0.0
O1646 O 0.40802 0.50826 0.73828 0.0
O1647 O 0.44005 0.53543 0.76545 0.0
H1648 H 0.41585 0.51081 0.82191 0.0
H1649 H 0.37451 0.51102 0.77303 0.0
H1650 H 0.39106 0.50945 0.84398 0.0
H1651 H 0.35041 0.50955 0.79592 0.0
H1652 H 0.49623 0.4829 0.76128 0.0
H1653 H 0.42995 0.4568 0.76582 0.0
H1654 H 0.47316 0.50366 0.75973 0.0
H1655 H 0.45375 0.43686 0.76731 0.0
H1656 H 0.37379 0.44217 0.79134 0.0
H1657 H 0.36776 0.43371 0.72782 0.0
H1658 H 0.46566 0.54914 0.84687 0.0
H1659 H 0.47258 0.49185 0.83728 0.0
H1660 H 0.4132 0.52029 0.70397 0.0
H1661 H 0.37168 0.49749 0.73951 0.0
H1662 H 0.38785 0.52122 0.67766 0.0
H1663 H 0.34701 0.49893 0.71261 0.0
H1664 H 0.43501 0.56793 0.75491 0.0
H1665 H 0.47617 0.53731 0.77542 0.0
H1666 H 0.46036 0.59561 0.75511 0.0
H1667 H 0.50085 0.56553 0.77519 0.0
H1668 H 0.38757 0.5781 0.79623 0.0
H1669 H 0.37959 0.57423 0.73281 0.0
H1670 H 0.46767 0.48944 0.68959 0.0
H1671 H 0.46171 0.54718 0.69218 0.0
Li1672 Li 0.66618 0.03716 0.76853 0.0
Li1673 Li 0.69101 0.05508 0.75354 0.0
Li1674 Li 0.66331 0.03628 0.73315 0.0
Li1675 Li 0.68761 0.02209 0.74904 0.0
C1676 C 0.65337 0.07044 0.75432 0.0
N1677 N 0.62992 0.09573 0.75665 0.0
C1678 C 0.66081 0.08955 0.75905 0.0
C1679 C 0.634 0.06421 0.75074 0.0
C1680 C 0.64873 0.10211 0.76017 0.0
C1681 C 0.62238 0.07721 0.75199 0.0
C1682 C 0.7074 0.04699 0.789 0.0
C1683 C 0.73998 0.05494 0.80213 0.0
N1684 N 0.73531 0.06279 0.81919 0.0
C1685 C 0.70291 0.05512 0.80664 0.0
C1686 C 0.72606 0.04685 0.7867 0.0
C1687 C 0.71723 0.06305 0.82174 0.0
C1688 C 0.64725 0.01818 0.79545 0.0
N1689 N 0.65199 0.03524 0.78929 0.0
C1690 C 0.6337 0.04841 0.81129 0.0
C1691 C 0.64581 0.05033 0.79707 0.0
C1692 C 0.62824 0.03087 0.81766 0.0
C1693 C 0.63535 0.01567 0.80988 0.0
H1694 H 0.65251 0.00649 0.78891 0.0
H1695 H 0.65017 0.06381 0.79217 0.0
C1696 C 0.70893 0.08164 0.73529 0.0
N1697 N 0.70769 0.07706 0.75374 0.0
C1698 C 0.72019 0.0981 0.73232 0.0
C1699 C 0.72797 0.1055 0.76763 0.0
C1700 C 0.71689 0.08846 0.76989 0.0
C1701 C 0.72933 0.11046 0.74861 0.0
H1702 H 0.70056 0.07288 0.72284 0.0
H1703 H 0.71499 0.08479 0.78442 0.0
C1704 C 0.6448 1.00111 0.74394 0.0
N1705 N 0.61359 0.9727 0.73576 0.0
C1706 C 0.64659 0.98302 0.73716 0.0
C1707 C 0.62719 0.00476 0.74665 0.0
C1708 C 0.63063 0.96884 0.7331 0.0
C1709 C 0.61156 0.99021 0.74237 0.0
C1710 C 0.70206 0.0374 0.71586 0.0
C1711 C 0.69614 0.03455 0.69566 0.0
C1712 C 0.72109 0.04007 0.72258 0.0
C1713 C 0.70937 0.03432 0.6825 0.0
C1714 C 0.73389 0.03976 0.70894 0.0
N1715 N 0.72782 0.03692 0.68935 0.0
C1716 C 0.64329 0.05053 0.70424 0.0
C1717 C 0.64389 0.01823 0.69831 0.0
C1718 C 0.63355 0.04994 0.68579 0.0
N1719 N 0.64799 0.03476 0.71009 0.0
C1720 C 0.63454 0.01707 0.67956 0.0
C1721 C 0.6293 0.0331 0.6731 0.0
H1722 H 0.64753 0.06365 0.71365 0.0
H1723 H 0.64859 0.00617 0.7032 0.0
C1724 C 0.70965 0.99854 0.7621 0.0
N1725 N 0.70006 1.00279 0.7459 0.0
C1726 C 0.71857 0.98351 0.76061 0.0
C1727 C 0.70753 0.97764 0.72573 0.0
C1728 C 0.69901 0.993 0.72787 0.0
C1729 C 0.71727 0.97281 0.74231 0.0
H1730 H 0.70989 0.00651 0.77623 0.0
H1731 H 0.69108 0.99679 0.71535 0.0
O1732 O 0.66507 0.05802 0.75291 0.0
O1733 O 0.6935 0.03842 0.77443 0.0
O1734 O 0.66038 0.01496 0.74851 0.0
O1735 O 0.68932 0.03864 0.72887 0.0
H1736 H 0.67577 0.09463 0.76178 0.0
H1737 H 0.628 0.04953 0.74681 0.0
H1738 H 0.65429 0.11693 0.76381 0.0
H1739 H 0.60737 0.07258 0.7492 0.0
H1740 H 0.75448 0.0549 0.80059 0.0
H1741 H 0.68851 0.0552 0.8087 0.0
H1742 H 0.72974 0.04043 0.77321 0.0
H1743 H 0.71397 0.06935 0.8355 0.0
H1744 H 0.62878 0.06053 0.81737 0.0
H1745 H 0.63146 1.00199 0.81461 0.0
H1746 H 0.72092 0.10159 0.71748 0.0
H1747 H 0.73449 0.11506 0.78054 0.0
H1748 H 0.66017 0.97995 0.73519 0.0
H1749 H 0.62563 0.0186 0.7522 0.0
H1750 H 0.63181 0.95475 0.7279 0.0
H1751 H 0.59783 0.99282 0.74441 0.0
H1752 H 0.6815 0.03278 0.6902 0.0
H1753 H 0.72591 0.0426 0.73815 0.0
H1754 H 0.70498 0.03219 0.66683 0.0
H1755 H 0.74867 0.04187 0.71392 0.0
H1756 H 0.62954 0.06256 0.68154 0.0
H1757 H 0.63191 0.00392 0.6701 0.0
H1758 H 0.72565 0.97972 0.77372 0.0
H1759 H 0.70615 0.96937 0.71153 0.0
Li1760 Li 0.76741 0.6862 0.03194 0.0
Li1761 Li 0.77938 0.66087 0.0122 0.0
Li1762 Li 0.7649 0.68451 0.99524 0.0
Li1763 Li 0.74503 0.65898 0.0103 0.0
C1764 C 0.8032 0.70228 0.01868 0.0
N1765 N 0.83489 0.73019 0.02578 0.0
C1766 C 0.82051 0.69803 0.02465 0.0
C1767 C 0.80196 0.7207 0.01635 0.0
C1768 C 0.83638 0.71235 0.02818 0.0
C1769 C 0.81816 0.73463 0.02001 0.0
C1770 C 0.76251 0.646 0.04658 0.0
C1771 C 0.7552 0.61408 0.0535 0.0
N1772 N 0.76245 0.61975 0.07258 0.0
C1773 C 0.76981 0.65154 0.06627 0.0
C1774 C 0.75509 0.62714 0.04011 0.0
C1775 C 0.76968 0.63804 0.07918 0.0
C1776 C 0.75455 0.70426 0.06433 0.0
N1777 N 0.77037 0.70131 0.05695 0.0
C1778 C 0.78898 0.7164 0.08686 0.0
C1779 C 0.78743 0.7073 0.06771 0.0
C1780 C 0.77283 0.71933 0.09509 0.0
C1781 C 0.75546 0.71332 0.08338 0.0
H1782 H 0.74113 0.69905 0.05562 0.0
H1783 H 0.79979 0.70455 0.06164 0.0
C1784 C 0.80942 0.6472 0.99658 0.0
N1785 N 0.79871 0.64676 0.0116 0.0
C1786 C 0.82428 0.63769 0.99673 0.0
C1787 C 0.81618 0.6269 0.02729 0.0
C1788 C 0.80187 0.63684 0.02674 0.0
C1789 C 0.82799 0.62758 0.01246 0.0
H1790 H 0.80667 0.65528 0.98473 0.0
H1791 H 0.79357 0.63684 0.03869 0.0
C1792 C 0.73379 0.69855 0.00883 0.0
N1793 N 0.71067 0.72319 0.00103 0.0
C1794 C 0.71562 0.69187 0.99947 0.0
C1795 C 0.74022 0.71771 0.0143 0.0
C1796 C 0.70414 0.70457 0.99562 0.0
C1797 C 0.72831 0.72995 0.01021 0.0
C1798 C 0.75912 0.64285 0.97376 0.0
C1799 C 0.75696 0.64642 0.95421 0.0
C1800 C 0.75997 0.62481 0.97801 0.0
C1801 C 0.7556 0.63179 0.93918 0.0
C1802 C 0.7586 0.61056 0.96255 0.0
N1803 N 0.75645 0.61432 0.94362 0.0
C1804 C 0.78387 0.70173 0.96641 0.0
C1805 C 0.75156 0.70216 0.96261 0.0
C1806 C 0.78614 0.70988 0.9491 0.0
N1807 N 0.76679 0.69799 0.97279 0.0
C1808 C 0.7532 0.71038 0.94523 0.0
C1809 C 0.77065 0.71417 0.9381 0.0
H1810 H 0.79571 0.69797 0.97455 0.0
H1811 H 0.73802 0.69864 0.96763 0.0
C1812 C 0.7144 0.64049 0.02643 0.0
N1813 N 0.72161 0.64225 0.00917 0.0
C1814 C 0.69766 0.62798 0.02704 0.0
C1815 C 0.69577 0.61962 0.99197 0.0
C1816 C 0.71269 0.63219 0.99206 0.0
C1817 C 0.68808 0.61733 0.00966 0.0
H1818 H 0.72176 0.64875 0.03979 0.0
H1819 H 0.71872 0.63387 0.97853 0.0
O1820 O 0.78768 0.68832 0.01453 0.0
O1821 O 0.76312 0.65897 0.03363 0.0
O1822 O 0.74501 0.68628 0.01312 0.0
O1823 O 0.76054 0.65706 0.9886 0.0
H1824 H 0.82168 0.6838 0.02645 0.0
H1825 H 0.78865 0.72415 0.0116 0.0
H1826 H 0.84988 0.70926 0.03275 0.0
H1827 H 0.81745 0.74895 0.01819 0.0
H1828 H 0.74958 0.59942 0.0487 0.0
H1829 H 0.7757 0.66607 0.07147 0.0
H1830 H 0.74947 0.62261 0.0249 0.0
H1831 H 0.77539 0.6421 0.09444 0.0
H1832 H 0.80269 0.72091 0.09521 0.0
H1833 H 0.74259 0.71493 0.08911 0.0
H1834 H 0.83305 0.63872 0.98503 0.0
H1835 H 0.81809 0.61894 0.03946 0.0
H1836 H 0.71044 0.67703 0.99526 0.0
H1837 H 0.75422 0.72303 0.0217 0.0
H1838 H 0.69004 0.69962 0.98838 0.0
H1839 H 0.73306 0.74484 0.01437 0.0
H1840 H 0.7563 0.66034 0.9507 0.0
H1841 H 0.76176 0.62187 0.99307 0.0
H1842 H 0.75389 0.63434 0.92398 0.0
H1843 H 0.75927 0.59652 0.9656 0.0
H1844 H 0.79989 0.71269 0.94435 0.0
H1845 H 0.74081 0.71315 0.93712 0.0
H1846 H 0.69212 0.6269 0.04095 0.0
H1847 H 0.6889 0.61162 0.97824 0.0
Li1848 Li 0.86576 0.49815 0.79172 0.0
Li1849 Li 0.89231 0.51454 0.81523 0.0
Li1850 Li 0.86841 0.5304 0.80067 0.0
Li1851 Li 0.89139 0.51905 0.78083 0.0
C1852 C 0.85332 0.51089 0.83151 0.0
N1853 N 0.82792 0.50875 0.85854 0.0
C1854 C 0.85915 0.50971 0.8512 0.0
C1855 C 0.83459 0.51103 0.82556 0.0
C1856 C 0.84609 0.50863 0.86465 0.0
C1857 C 0.82196 0.50994 0.83946 0.0
C1858 C 0.90354 0.48361 0.7956 0.0
C1859 C 0.93436 0.47648 0.79845 0.0
N1860 N 0.92694 0.45886 0.80192 0.0
C1861 C 0.89619 0.4654 0.79909 0.0
C1862 C 0.92275 0.48919 0.79517 0.0
C1863 C 0.90827 0.45311 0.8023 0.0
C1864 C 0.84593 0.46714 0.76678 0.0
N1865 N 0.84895 0.47603 0.78541 0.0
C1866 C 0.82867 0.45142 0.79675 0.0
C1867 C 0.84067 0.46862 0.8003 0.0
C1868 C 0.82548 0.44178 0.77773 0.0
C1869 C 0.83383 0.44994 0.76247 0.0
H1870 H 0.85339 0.47311 0.75546 0.0
H1871 H 0.84411 0.47555 0.81511 0.0
C1872 C 0.91204 0.53212 0.84942 0.0
N1873 N 0.90749 0.51508 0.83853 0.0
C1874 C 0.92267 0.53441 0.86765 0.0
C1875 C 0.92357 0.50145 0.86313 0.0
C1876 C 0.91279 0.49979 0.84499 0.0
C1877 C 0.92855 0.51895 0.87468 0.0
H1878 H 0.90708 0.54386 0.84406 0.0
H1879 H 0.90848 0.48631 0.83628 0.0
C1880 C 0.85081 0.51044 0.75821 0.0
N1881 N 0.82356 0.49632 0.72682 0.0
C1882 C 0.85573 0.50762 0.73923 0.0
C1883 C 0.832 0.50626 0.76118 0.0
C1884 C 0.84176 0.50043 0.72357 0.0
C1885 C 0.81844 0.49907 0.74514 0.0
C1886 C 0.91076 0.55246 0.80396 0.0
C1887 C 0.9078 0.57023 0.80084 0.0
C1888 C 0.92894 0.54937 0.80727 0.0
C1889 C 0.9232 0.5847 0.80098 0.0
C1890 C 0.94397 0.56421 0.80729 0.0
N1891 N 0.94081 0.58141 0.80417 0.0
C1892 C 0.85864 0.55976 0.82326 0.0
C1893 C 0.84423 0.55285 0.79016 0.0
C1894 C 0.85095 0.57567 0.82584 0.0
N1895 N 0.85551 0.54916 0.80547 0.0
C1896 C 0.83602 0.56832 0.79218 0.0
C1897 C 0.83986 0.58013 0.80998 0.0
H1898 H 0.86783 0.55635 0.83503 0.0
H1899 H 0.84242 0.54437 0.77612 0.0
C1900 C 0.90593 0.50501 0.74996 0.0
N1901 N 0.90591 0.52172 0.76029 0.0
C1902 C 0.91585 0.50415 0.73396 0.0
C1903 C 0.9257 0.53783 0.73949 0.0
C1904 C 0.91534 0.53805 0.75539 0.0
C1905 C 0.92607 0.52067 0.72865 0.0
H1906 H 0.89793 0.49233 0.75401 0.0
H1907 H 0.9148 0.55117 0.7637 0.0
O1908 O 0.86573 0.51074 0.818 0.0
O1909 O 0.89191 0.49575 0.79219 0.0
O1910 O 0.86432 0.51772 0.77367 0.0
O1911 O 0.89585 0.53828 0.80421 0.0
H1912 H 0.87354 0.5093 0.85601 0.0
H1913 H 0.82982 0.51174 0.81036 0.0
H1914 H 0.85039 0.50757 0.87991 0.0
H1915 H 0.8074 0.50993 0.83505 0.0
H1916 H 0.94926 0.48061 0.7982 0.0
H1917 H 0.88133 0.46083 0.79937 0.0
H1918 H 0.92861 0.50318 0.7923 0.0
H1919 H 0.9028 0.43899 0.80507 0.0
H1920 H 0.82309 0.44516 0.80904 0.0
H1921 H 0.83185 0.44261 0.74772 0.0
H1922 H 0.92591 0.54803 0.87629 0.0
H1923 H 0.92795 0.48922 0.86802 0.0
H1924 H 0.87015 0.51104 0.73657 0.0
H1925 H 0.82792 0.50845 0.77573 0.0
H1926 H 0.84538 0.49816 0.70881 0.0
H1927 H 0.80385 0.49569 0.74725 0.0
H1928 H 0.89376 0.5728 0.79837 0.0
H1929 H 0.9314 0.53569 0.80984 0.0
H1930 H 0.92115 0.59854 0.79858 0.0
H1931 H 0.95815 0.56206 0.80982 0.0
H1932 H 0.85431 0.58481 0.8396 0.0
H1933 H 0.8279 0.5718 0.77956 0.0
H1934 H 0.91526 0.49066 0.72567 0.0
H1935 H 0.93339 0.55086 0.73582 0.0
Li1936 Li 0.78645 0.41227 0.51806 0.0
Li1937 Li 0.77515 0.43463 0.49721 0.0
Li1938 Li 0.79089 0.4101 0.48367 0.0
Li1939 Li 0.8078 0.4372 0.50624 0.0
C1940 C 0.75325 0.39244 0.49639 0.0
N1941 N 0.72494 0.36263 0.49935 0.0
C1942 C 0.73564 0.39552 0.49999 0.0
C1943 C 0.75649 0.37424 0.49419 0.0
C1944 C 0.7215 0.38025 0.50146 0.0
C1945 C 0.74199 0.35935 0.49578 0.0
C1946 C 0.79467 0.4529 0.5397 0.0
C1947 C 0.80543 0.48523 0.55321 0.0
N1948 N 0.80753 0.47996 0.57152 0.0
C1949 C 0.79692 0.44781 0.55867 0.0
C1950 C 0.79888 0.47177 0.53694 0.0
C1951 C 0.80344 0.4617 0.57456 0.0
C1952 C 0.79789 0.39229 0.5469 0.0
N1953 N 0.78271 0.39838 0.53917 0.0
C1954 C 0.76418 0.38402 0.5621 0.0
C1955 C 0.76611 0.39479 0.54656 0.0
C1956 C 0.77947 0.37695 0.56977 0.0
C1957 C 0.79654 0.38136 0.56219 0.0
H1958 H 0.81107 0.39591 0.54117 0.0
H1959 H 0.75441 0.4002 0.54035 0.0
C1960 C 0.74472 0.44272 0.47461 0.0
N1961 N 0.75622 0.44741 0.49183 0.0
C1962 C 0.72837 0.44973 0.47214 0.0
C1963 C 0.73711 0.46729 0.50454 0.0
C1964 C 0.75304 0.45976 0.50648 0.0
C1965 C 0.72435 0.46172 0.48751 0.0
H1966 H 0.74768 0.43267 0.46337 0.0
H1967 H 0.76219 0.46281 0.52015 0.0
C1968 C 0.8219 0.39939 0.50253 0.0
N1969 N 0.8465 0.37625 0.49442 0.0
C1970 C 0.83995 0.40697 0.49877 0.0
C1971 C 0.8164 0.38006 0.50228 0.0
C1972 C 0.85217 0.39502 0.49466 0.0
C1973 C 0.82904 0.3686 0.49812 0.0
C1974 C 0.79516 0.44899 0.46647 0.0
C1975 C 0.79599 0.44304 0.44672 0.0
C1976 C 0.79541 0.46781 0.47244 0.0
C1977 C 0.79712 0.45608 0.43325 0.0
C1978 C 0.79654 0.48041 0.45851 0.0
N1979 N 0.79739 0.47434 0.43938 0.0
C1980 C 0.77313 0.39065 0.44921 0.0
C1981 C 0.80538 0.38969 0.45362 0.0
C1982 C 0.77107 0.38117 0.43038 0.0
N1983 N 0.79007 0.39472 0.46031 0.0
C1984 C 0.8039 0.3799 0.43499 0.0
C1985 C 0.78663 0.3758 0.423 0.0
H1986 H 0.76136 0.39539 0.45478 0.0
H1987 H 0.81882 0.39369 0.46241 0.0
C1988 C 0.83778 0.45895 0.53115 0.0
N1989 N 0.82997 0.45443 0.51216 0.0
C1990 C 0.85402 0.47245 0.5359 0.0
C1991 C 0.85452 0.47531 0.50124 0.0
C1992 C 0.83796 0.46217 0.49725 0.0
C1993 C 0.8628 0.48049 0.52079 0.0
H1994 H 0.83151 0.45195 0.54258 0.0
H1995 H 0.8318 0.45771 0.48223 0.0
O1996 O 0.76712 0.40719 0.4946 0.0
O1997 O 0.78809 0.43945 0.52403 0.0
O1998 O 0.80986 0.41089 0.50694 0.0
O1999 O 0.79492 0.43653 0.47995 0.0
H2000 H 0.73293 0.40955 0.50161 0.0
H2001 H 0.77002 0.37167 0.4912 0.0
H2002 H 0.70778 0.3824 0.50424 0.0
H2003 H 0.74427 0.34517 0.49413 0.0
H2004 H 0.80883 0.49987 0.55127 0.0
H2005 H 0.79365 0.4333 0.56112 0.0
H2006 H 0.79726 0.47597 0.52239 0.0
H2007 H 0.80522 0.45795 0.58932 0.0
H2008 H 0.75085 0.38091 0.56775 0.0
H2009 H 0.80872 0.37642 0.56808 0.0
H2010 H 0.7185 0.445 0.45901 0.0
H2011 H 0.73403 0.47619 0.5168 0.0
H2012 H 0.84447 0.4219 0.49901 0.0
H2013 H 0.80255 0.37399 0.50534 0.0
H2014 H 0.86617 0.40068 0.49167 0.0
H2015 H 0.82497 0.35362 0.49787 0.0
H2016 H 0.796 0.42856 0.44189 0.0
H2017 H 0.79491 0.47264 0.48767 0.0
H2018 H 0.79789 0.4517 0.41794 0.0
H2019 H 0.79683 0.49504 0.46293 0.0
H2020 H 0.75758 0.37861 0.42154 0.0
H2021 H 0.8162 0.37576 0.43 0.0
H2022 H 0.85998 0.47603 0.55114 0.0
H2023 H 0.86118 0.4806 0.48906 0.0
Li2024 Li 0.61949 0.53779 0.30348 0.0
Li2025 Li 0.64514 0.5576 0.28903 0.0
Li2026 Li 0.618 0.53607 0.26686 0.0
Li2027 Li 0.64304 0.52331 0.28609 0.0
C2028 C 0.60581 0.5696 0.28905 0.0
N2029 N 0.58118 0.59333 0.29394 0.0
C2030 C 0.61241 0.58812 0.29741 0.0
C2031 C 0.58673 0.56312 0.28313 0.0
C2032 C 0.59972 0.5999 0.29978 0.0
C2033 C 0.57449 0.57535 0.28574 0.0
C2034 C 0.6614 0.54458 0.325 0.0
C2035 C 0.69383 0.54598 0.33635 0.0
N2036 N 0.69042 0.55024 0.35514 0.0
C2037 C 0.65819 0.54894 0.3444 0.0
C2038 C 0.67932 0.54305 0.32089 0.0
C2039 C 0.67305 0.55176 0.35944 0.0
C2040 C 0.6049 0.51962 0.33387 0.0
N2041 N 0.60593 0.5358 0.32566 0.0
C2042 C 0.59037 0.54861 0.35103 0.0
C2043 C 0.59886 0.55019 0.33384 0.0
C2044 C 0.58936 0.53215 0.36004 0.0
C2045 C 0.59664 0.51748 0.35111 0.0
H2046 H 0.61083 0.50848 0.32717 0.0
H2047 H 0.60019 0.56308 0.32734 0.0
C2048 C 0.66301 0.58782 0.27299 0.0
N2049 N 0.66174 0.58097 0.29047 0.0
C2050 C 0.67494 0.60473 0.27189 0.0
C2051 C 0.68383 0.60759 0.30697 0.0
C2052 C 0.67182 0.5904 0.30735 0.0
C2053 C 0.68544 0.61502 0.28903 0.0
H2054 H 0.65476 0.58005 0.25982 0.0
H2055 H 0.67044 0.58469 0.3211 0.0
C2056 C 0.60155 0.4998 0.27969 0.0
N2057 N 0.57373 0.46804 0.27299 0.0
C2058 C 0.60563 0.48265 0.27275 0.0
C2059 C 0.58337 0.50084 0.28323 0.0
C2060 C 0.59135 0.46674 0.26944 0.0
C2061 C 0.56948 0.4846 0.27975 0.0
C2062 C 0.65811 0.54112 0.2523 0.0
C2063 C 0.65244 0.5352 0.23231 0.0
C2064 C 0.67707 0.54761 0.25899 0.0
C2065 C 0.6659 0.53577 0.21933 0.0
C2066 C 0.69009 0.54801 0.24553 0.0
N2067 N 0.68428 0.54211 0.22615 0.0
C2068 C 0.60089 0.55018 0.23504 0.0
C2069 C 0.59699 0.5172 0.2306 0.0
C2070 C 0.59234 0.55004 0.21595 0.0
N2071 N 0.60319 0.53395 0.24191 0.0
C2072 C 0.5884 0.51641 0.21134 0.0
C2073 C 0.58623 0.53303 0.20362 0.0
H2074 H 0.6062 0.56334 0.24424 0.0
H2075 H 0.59934 0.50452 0.23626 0.0
C2076 C 0.65833 0.49398 0.30129 0.0
N2077 N 0.65699 0.50396 0.28579 0.0
C2078 C 0.66799 0.47923 0.30049 0.0
C2079 C 0.67525 0.48598 0.26824 0.0
C2080 C 0.66516 0.50016 0.26948 0.0
C2081 C 0.67641 0.47493 0.28363 0.0
H2082 H 0.65157 0.49723 0.31407 0.0
H2083 H 0.66363 0.50786 0.25716 0.0
O2084 O 0.6181 0.55804 0.28627 0.0
O2085 O 0.6469 0.54138 0.31021 0.0
O2086 O 0.6155 0.51533 0.28366 0.0
O2087 O 0.64514 0.5401 0.26525 0.0
H2088 H 0.62718 0.59333 0.30198 0.0
H2089 H 0.58146 0.54882 0.27653 0.0
H2090 H 0.60461 0.61428 0.30623 0.0
H2091 H 0.55967 0.57056 0.28121 0.0
H2092 H 0.70778 0.54482 0.33342 0.0
H2093 H 0.64434 0.55006 0.3478 0.0
H2094 H 0.68197 0.5395 0.30596 0.0
H2095 H 0.67078 0.55512 0.37454 0.0
H2096 H 0.58521 0.56039 0.35753 0.0
H2097 H 0.59601 0.50448 0.35739 0.0
H2098 H 0.67595 0.60961 0.25766 0.0
H2099 H 0.69148 0.61511 0.32059 0.0
H2100 H 0.61969 0.48164 0.27006 0.0
H2101 H 0.58007 0.51402 0.28874 0.0
H2102 H 0.5943 0.45336 0.26411 0.0
H2103 H 0.55534 0.48516 0.28248 0.0
H2104 H 0.63783 0.53003 0.22692 0.0
H2105 H 0.68167 0.55222 0.27441 0.0
H2106 H 0.66173 0.53114 0.20384 0.0
H2107 H 0.70481 0.55296 0.25049 0.0
H2108 H 0.59075 0.56319 0.21085 0.0
H2109 H 0.58418 0.50299 0.20238 0.0
H2110 H 0.66838 0.47101 0.31265 0.0
H2111 H 0.68184 0.48356 0.25513 0.0
Eu2112 Eu 0.05318 0.03651 0.03486 0.0
C2113 C 0.98855 0.97242 0.99429 0.0
N2114 N 0.99856 0.98805 0.98849 0.0
C2115 C 0.99998 0.97125 0.95719 0.0
C2116 C 0.98448 0.95532 0.98182 0.0
C2117 C 0.00378 0.98785 0.97004 0.0
C2118 C 0.99041 0.95488 0.96314 0.0
C2119 C 0.97261 0.95724 0.01935 0.0
C2120 C 0.98255 0.97345 0.01288 0.0
C2121 C 0.96878 0.94018 0.00703 0.0
C2122 C 0.97461 0.93924 0.9883 0.0
Eu2123 Eu 1.00184 0.01568 0.01013 0.0
N2124 N 0.98621 0.99022 0.0245 0.0
C2125 C 0.96655 0.95869 0.03793 0.0
C2126 C 0.97936 0.99183 0.04214 0.0
C2127 C 0.96982 0.97608 0.0493 0.0
H2128 H 0.01035 1.00054 0.9649 0.0
H2129 H 0.96463 0.97744 0.06341 0.0
H2130 H 0.04727 0.04669 0.08295 0.0
H2131 H 0.09029 0.08079 0.98706 0.0
H2132 H 0.98054 0.00526 0.05047 0.0
H2133 H 0.95893 0.94655 0.04343 0.0
H2134 H 0.07341 0.05132 0.99681 0.0
H2135 H 0.0042 0.97115 0.94259 0.0
H2136 H 0.96113 0.92763 0.01178 0.0
H2137 H 0.97138 0.926 0.97892 0.0
H2138 H 0.05146 0.07429 0.10732 0.0
H2139 H 0.98744 0.94204 0.9531 0.0
H2140 H 0.09491 0.11021 0.00957 0.0
N2141 N 0.05581 0.06208 0.05968 0.0
C2142 C 0.06425 0.079 0.05504 0.0
C2143 C 0.05477 0.07587 0.09256 0.0
C2144 C 0.06779 0.09512 0.06898 0.0
C2145 C 0.05189 0.06023 0.07843 0.0
C2146 C 0.06255 0.09343 0.08777 0.0
N2147 N 0.06748 0.06427 0.02375 0.0
C2148 C 0.07491 0.06422 0.00639 0.0
C2149 C 0.08036 0.09713 0.03195 0.0
C2150 C 0.07053 0.08006 0.03673 0.0
C2151 C 0.08726 0.09739 0.01374 0.0
C2152 C 0.08464 0.08082 0.00097 0.0
H2153 H 0.0651 0.10546 0.09889 0.0
H2154 H 0.07989 0.12474 0.07459 0.0
H2155 H 0.09085 0.12649 0.04218 0.0
O2156 O 0.0777 0.02655 0.02661 0.0
O2157 O 0.03845 0.05578 0.01727 0.0
O2158 O 0.00765 0.04712 0.02141 0.0
O2159 O 0.07818 0.04054 0.05594 0.0
O2160 O 0.04931 0.02045 0.00431 0.0
O2161 O 0.02247 0.02776 0.99036 0.0
O2162 O 0.97162 0.01277 0.00647 0.0
O2163 O 0.02116 0.99431 0.01519 0.0
O2164 O 0.04122 0.00755 0.04286 0.0
O2165 O 0.9874 0.02256 0.98345 0.0
O2166 O 0.00391 0.02983 0.04148 0.0
O2167 O 0.03245 0.02542 0.05523 0.0
C2168 C 0.02171 0.05978 0.01759 0.0
C2169 C 0.09661 0.01755 0.05205 0.0
C2170 C 0.1191 0.9976 0.04754 0.0
C2171 C 0.11789 0.99301 0.06677 0.0
C2172 C 0.09543 0.01288 0.07121 0.0
C2173 C 0.10597 1.00052 0.07844 0.0
C2174 C 0.10812 0.0096 0.04026 0.0
C2175 C 0.03913 0.02418 0.98903 0.0
C2176 C 0.08694 0.03138 0.04411 0.0
C2177 C 0.07708 0.11225 0.06405 0.0
C2178 C 0.08337 0.11325 0.0456 0.0
C2179 C 0.03239 0.99261 0.03093 0.0
C2180 C 0.96034 0.03474 0.98809 0.0
C2181 C 0.93684 0.05112 0.99952 0.0
C2182 C 0.94015 0.06342 0.98536 0.0
C2183 C 0.96331 0.04695 0.97375 0.0
C2184 C 0.94684 0.03676 0.00072 0.0
C2185 C 0.95325 0.06122 0.97245 0.0
C2186 C 0.01544 0.02812 0.05679 0.0
C2187 C 0.97116 0.01988 0.9899 0.0
H2188 H 0.12646 0.98405 0.07299 0.0
H2189 H 0.08657 0.01886 0.08061 0.0
H2190 H 0.10521 0.99706 0.09327 0.0
H2191 H 0.10868 0.01307 0.02538 0.0
H2192 H 0.93239 0.0745 0.98409 0.0
H2193 H 0.97342 0.04552 0.9636 0.0
H2194 H 0.94424 0.02736 0.01173 0.0
H2195 H 0.95561 0.0706 0.9614 0.0
Eu2196 Eu 0.25999 0.77691 0.29993 0.0
C2197 C 0.30198 0.73167 0.23145 0.0
N2198 N 0.31004 0.74698 0.24423 0.0
C2199 C 0.33649 0.73307 0.25217 0.0
C2200 C 0.31041 0.71597 0.22919 0.0
C2201 C 0.32751 0.74826 0.25386 0.0
C2202 C 0.32773 0.71669 0.24007 0.0
C2203 C 0.27749 0.71716 0.20534 0.0
C2204 C 0.28585 0.73226 0.21976 0.0
C2205 C 0.28507 0.70095 0.20385 0.0
C2206 C 0.30155 0.70037 0.21576 0.0
Eu2207 Eu 0.2927 0.771 0.24879 0.0
N2208 N 0.27906 0.74818 0.22162 0.0
C2209 C 0.26219 0.71911 0.19246 0.0
C2210 C 0.26534 0.7508 0.20789 0.0
C2211 C 0.25639 0.73619 0.19344 0.0
H2212 H 0.33449 0.76095 0.26308 0.0
H2213 H 0.24513 0.73819 0.18297 0.0
H2214 H 0.22058 0.79106 0.28473 0.0
H2215 H 0.30863 0.80434 0.36692 0.0
H2216 H 0.26124 0.76416 0.20792 0.0
H2217 H 0.25531 0.70784 0.18121 0.0
H2218 H 0.29176 0.78005 0.34061 0.0
H2219 H 0.35016 0.73402 0.26019 0.0
H2220 H 0.27866 0.68907 0.19311 0.0
H2221 H 0.30762 0.68804 0.21404 0.0
H2222 H 0.20684 0.81909 0.28972 0.0
H2223 H 0.33471 0.70496 0.23875 0.0
H2224 H 0.30006 0.83539 0.37063 0.0
N2225 N 0.24471 0.80216 0.30527 0.0
C2226 C 0.25345 0.81635 0.31921 0.0
C2227 C 0.22006 0.8186 0.29796 0.0
C2228 C 0.246 0.83258 0.32269 0.0
C2229 C 0.228 0.80283 0.295 0.0
C2230 C 0.22921 0.83366 0.31169 0.0
N2231 N 0.27547 0.79789 0.32777 0.0
C2232 C 0.28851 0.79382 0.34135 0.0
C2233 C 0.27814 0.82831 0.34604 0.0
C2234 C 0.2694 0.81424 0.33065 0.0
C2235 C 0.29295 0.82494 0.35867 0.0
C2236 C 0.29784 0.80744 0.35661 0.0
H2237 H 0.223 0.84584 0.31401 0.0
H2238 H 0.24985 0.85965 0.34003 0.0
H2239 H 0.278 0.85591 0.36052 0.0
O2240 O 0.25384 0.75206 0.31449 0.0
O2241 O 0.27189 0.79649 0.27916 0.0
O2242 O 0.30127 0.79531 0.27259 0.0
O2243 O 0.23462 0.7713 0.31415 0.0
O2244 O 0.291 0.77328 0.30619 0.0
O2245 O 0.30689 0.76604 0.27869 0.0
O2246 O 0.2923 0.79455 0.23178 0.0
O2247 O 0.27439 0.76295 0.26982 0.0
O2248 O 0.25307 0.74784 0.28405 0.0
O2249 O 0.31845 0.78643 0.2407 0.0
O2250 O 0.2616 0.77397 0.2419 0.0
O2251 O 0.24414 0.77735 0.26907 0.0
C2252 C 0.28969 0.80403 0.28121 0.0
C2253 C 0.23528 0.75309 0.34065 0.0
C2254 C 0.24379 0.74176 0.37154 0.0
C2255 C 0.22713 0.74519 0.3781 0.0
C2256 C 0.21857 0.75627 0.34732 0.0
C2257 C 0.21456 0.75236 0.36598 0.0
C2258 C 0.24783 0.74565 0.35282 0.0
C2259 C 0.30552 0.76854 0.29794 0.0
C2260 C 0.2386 0.75617 0.32048 0.0
C2261 C 0.25527 0.84701 0.33728 0.0
C2262 C 0.27133 0.84489 0.34891 0.0
C2263 C 0.26404 0.747 0.27096 0.0
C2264 C 0.31672 0.80077 0.2115 0.0
C2265 C 0.31221 0.81127 0.17927 0.0
C2266 C 0.3301 0.80855 0.17592 0.0
C2267 C 0.33473 0.79843 0.20797 0.0
C2268 C 0.3056 0.80753 0.19714 0.0
C2269 C 0.34132 0.80228 0.19026 0.0
C2270 C 0.2461 0.77626 0.24989 0.0
C2271 C 0.31022 0.79734 0.23063 0.0
H2272 H 0.22373 0.742 0.39247 0.0
H2273 H 0.20851 0.76156 0.33798 0.0
H2274 H 0.20161 0.75471 0.37099 0.0
H2275 H 0.26066 0.74278 0.34784 0.0
H2276 H 0.33551 0.81162 0.1623 0.0
H2277 H 0.34383 0.79376 0.21895 0.0
H2278 H 0.29186 0.80985 0.19976 0.0
H2279 H 0.35521 0.8005 0.1877 0.0
Eu2280 Eu 0.50067 0.02341 0.53781 0.0
C2281 C 0.57321 0.05998 0.49241 0.0
N2282 N 0.56134 0.04308 0.48804 0.0
C2283 C 0.56045 0.04596 0.45365 0.0
C2284 C 0.57834 0.07099 0.47746 0.0
C2285 C 0.55586 0.03551 0.46897 0.0
C2286 C 0.57141 0.06394 0.45794 0.0
C2287 C 0.59446 0.08273 0.51652 0.0
C2288 C 0.5813 0.06576 0.51172 0.0
C2289 C 0.59878 0.09417 0.50182 0.0
C2290 C 0.59076 0.08831 0.48235 0.0
Eu2291 Eu 0.55381 0.02719 0.51516 0.0
N2292 N 0.57679 0.0545 0.52572 0.0
C2293 C 0.60316 0.08751 0.53589 0.0
C2294 C 0.58611 0.05851 0.54427 0.0
C2295 C 0.59919 0.07518 0.54974 0.0
H2296 H 0.54823 0.02128 0.46556 0.0
H2297 H 0.60633 0.07841 0.56457 0.0
H2298 H 0.51245 0.01716 0.58609 0.0
H2299 H 0.45092 0.97907 0.48036 0.0
H2300 H 0.58366 0.04876 0.55475 0.0
H2301 H 0.61335 0.10041 0.54014 0.0
H2302 H 0.47576 0.00634 0.49427 0.0
H2303 H 0.55574 0.04004 0.43855 0.0
H2304 H 0.60868 0.10735 0.50528 0.0
H2305 H 0.59466 0.09704 0.47107 0.0
H2306 H 0.5031 0.99394 0.60804 0.0
H2307 H 0.57507 0.07194 0.44603 0.0
H2308 H 0.43952 0.95511 0.50145 0.0
N2309 N 0.49494 1.00173 0.56076 0.0
C2310 C 0.48105 0.98658 0.55396 0.0
C2311 C 0.49699 0.99158 0.59281 0.0
C2312 C 0.475 0.97313 0.56643 0.0
C2313 C 0.50253 0.00462 0.58005 0.0
C2314 C 0.48327 0.97573 0.58597 0.0
N2315 N 0.47879 0.99728 0.5224 0.0
C2316 C 0.47111 0.9957 0.50334 0.0
C2317 C 0.45827 0.96886 0.52725 0.0
C2318 C 0.47261 0.98446 0.53448 0.0
C2319 C 0.45048 0.96695 0.50756 0.0
C2320 C 0.45695 0.9804 0.49556 0.0
H2321 H 0.47894 0.96575 0.59598 0.0
H2322 H 0.45597 0.9472 0.56859 0.0
H2323 H 0.44148 0.9434 0.53435 0.0
O2324 O 0.47507 0.03391 0.52869 0.0
O2325 O 0.50825 0.99529 0.52512 0.0
O2326 O 0.53485 0.9984 0.50839 0.0
O2327 O 0.48501 0.03397 0.55981 0.0
O2328 O 0.50884 0.03593 0.51047 0.0
O2329 O 0.52848 0.02206 0.49275 0.0
O2330 O 0.57771 0.01738 0.52976 0.0
O2331 O 0.54784 0.0557 0.52797 0.0
O2332 O 0.51846 0.05288 0.53957 0.0
O2333 O 0.56786 0.00857 0.49888 0.0
O2334 O 0.53919 0.01814 0.54006 0.0
O2335 O 0.52496 0.03268 0.56133 0.0
C2336 C 0.52014 0.98826 0.51452 0.0
C2337 C 0.45665 0.04564 0.55344 0.0
C2338 C 0.43218 0.06361 0.54832 0.0
C2339 C 0.42854 0.06235 0.56779 0.0
C2340 C 0.45261 0.04448 0.57285 0.0
C2341 C 0.43862 0.05274 0.57992 0.0
C2342 C 0.44614 0.05504 0.54102 0.0
C2343 C 0.51254 0.02746 0.4941 0.0
C2344 C 0.47247 0.03783 0.54698 0.0
C2345 C 0.46073 0.95763 0.55919 0.0
C2346 C 0.45241 0.9555 0.53969 0.0
C2347 C 0.53451 0.06287 0.53587 0.0
C2348 C 0.59937 0.00887 0.50839 0.0
C2349 C 0.62746 0.99574 0.50917 0.0
C2350 C 0.63348 0.00643 0.49442 0.0
C2351 C 0.6057 0.01965 0.49376 0.0
C2352 C 0.61032 0.99689 0.51607 0.0
C2353 C 0.62262 0.01831 0.48675 0.0
C2354 C 0.54036 0.02841 0.55665 0.0
C2355 C 0.5803 0.00791 0.51351 0.0
H2356 H 0.41785 0.06888 0.57362 0.0
H2357 H 0.46041 0.03729 0.5827 0.0
H2358 H 0.4357 0.05185 0.59491 0.0
H2359 H 0.44918 0.05622 0.52609 0.0
H2360 H 0.64655 0.00548 0.48875 0.0
H2361 H 0.5973 0.02866 0.48732 0.0
H2362 H 0.60541 0.98829 0.52712 0.0
H2363 H 0.62724 0.02635 0.4752 0.0
Eu2364 Eu 0.30611 0.26978 0.77657 0.0
C2365 C 0.23442 0.29547 0.73575 0.0
N2366 N 0.2456 0.30301 0.75271 0.0
C2367 C 0.24766 0.33367 0.74289 0.0
C2368 C 0.23012 0.30678 0.72126 0.0
C2369 C 0.25147 0.32191 0.75685 0.0
C2370 C 0.23719 0.32605 0.72488 0.0
C2371 C 0.21491 0.26826 0.71579 0.0
C2372 C 0.22687 0.27642 0.73305 0.0
C2373 C 0.21109 0.27939 0.70108 0.0
C2374 C 0.21869 0.29859 0.70379 0.0
Eu2375 Eu 0.25265 0.28157 0.77436 0.0
N2376 N 0.23112 0.26588 0.74734 0.0
C2377 C 0.20701 0.24917 0.71392 0.0
C2378 C 0.2228 0.24749 0.746 0.0
C2379 C 0.21077 0.23881 0.72921 0.0
H2380 H 0.25893 0.32806 0.77098 0.0
H2381 H 0.20434 0.22415 0.72814 0.0
H2382 H 0.30157 0.22393 0.78489 0.0
H2383 H 0.35351 0.33074 0.81713 0.0
H2384 H 0.22512 0.23954 0.75798 0.0
H2385 H 0.19772 0.24239 0.70091 0.0
H2386 H 0.33157 0.3127 0.78901 0.0
H2387 H 0.25267 0.34863 0.7461 0.0
H2388 H 0.20208 0.27333 0.68765 0.0
H2389 H 0.2154 0.30704 0.69242 0.0
H2390 H 0.30868 0.20646 0.8122 0.0
H2391 H 0.23423 0.33521 0.7141 0.0
H2392 H 0.36097 0.31556 0.84658 0.0
N2393 N 0.31284 0.25076 0.80117 0.0
C2394 C 0.32372 0.26006 0.81772 0.0
C2395 C 0.31271 0.22156 0.81408 0.0
C2396 C 0.32889 0.25038 0.83342 0.0
C2397 C 0.30829 0.23164 0.79874 0.0
C2398 C 0.32278 0.23098 0.83163 0.0
N2399 N 0.32612 0.28816 0.80305 0.0
C2400 C 0.33461 0.30619 0.802 0.0
C2401 C 0.34335 0.28882 0.83479 0.0
C2402 C 0.33088 0.27914 0.8185 0.0
C2403 C 0.35128 0.30768 0.83437 0.0
C2404 C 0.34708 0.31633 0.81779 0.0
H2405 H 0.32644 0.22307 0.84336 0.0
H2406 H 0.34457 0.25297 0.86229 0.0
H2407 H 0.35727 0.28658 0.86345 0.0
O2408 O 0.32495 0.27905 0.75484 0.0
O2409 O 0.29844 0.28793 0.80205 0.0
O2410 O 0.26855 0.27282 0.80043 0.0
O2411 O 0.33053 0.25771 0.7724 0.0
O2412 O 0.29897 0.29457 0.76252 0.0
O2413 O 0.27773 0.30606 0.78032 0.0
O2414 O 0.22508 0.27374 0.7843 0.0
O2415 O 0.26469 0.27583 0.7452 0.0
O2416 O 0.28449 0.2554 0.75131 0.0
O2417 O 0.24254 0.30058 0.79545 0.0
O2418 O 0.25391 0.25186 0.77994 0.0
O2419 O 0.28254 0.24382 0.77371 0.0
C2420 C 0.28319 0.28391 0.81039 0.0
C2421 C 0.34434 0.2585 0.74287 0.0
C2422 C 0.3702 0.2581 0.72301 0.0
C2423 C 0.36268 0.23927 0.7161 0.0
C2424 C 0.33704 0.2397 0.73555 0.0
C2425 C 0.34619 0.23019 0.72228 0.0
C2426 C 0.36096 0.26773 0.73644 0.0
C2427 C 0.29252 0.30862 0.77071 0.0
C2428 C 0.33616 0.26781 0.75892 0.0
C2429 C 0.34059 0.26019 0.85007 0.0
C2430 C 0.34785 0.27933 0.85073 0.0
C2431 C 0.27453 0.26345 0.73909 0.0
C2432 C 0.20969 0.29703 0.79785 0.0
C2433 C 0.18074 0.29756 0.81285 0.0
C2434 C 0.1783 0.31296 0.8031 0.0
C2435 C 0.20677 0.31235 0.7882 0.0
C2436 C 0.19653 0.28958 0.81015 0.0
C2437 C 0.19117 0.32024 0.79084 0.0
C2438 C 0.26502 0.2398 0.77771 0.0
C2439 C 0.22669 0.28916 0.79599 0.0
H2440 H 0.36966 0.23156 0.70597 0.0
H2441 H 0.32452 0.23224 0.74051 0.0
H2442 H 0.34061 0.21561 0.71696 0.0
H2443 H 0.36692 0.28215 0.74223 0.0
H2444 H 0.16638 0.31941 0.80502 0.0
H2445 H 0.21663 0.31831 0.77876 0.0
H2446 H 0.19869 0.27783 0.81779 0.0
H2447 H 0.18909 0.33214 0.78345 0.0
Eu2448 Eu 0.03472 1.00019 0.52332 0.0
C2449 C 0.01193 0.06939 0.56728 0.0
N2450 N 1.00297 0.05917 0.55023 0.0
C2451 C 0.97339 0.05875 0.56231 0.0
C2452 C 1.00189 0.07398 0.58286 0.0
C2453 C 0.98389 0.05483 0.54717 0.0
C2454 C 0.98245 0.06805 0.58037 0.0
C2455 C 0.04046 0.08833 0.58553 0.0
C2456 C 0.03103 0.07653 0.56867 0.0
C2457 C 0.03064 0.09214 0.6014 0.0
C2458 C 0.01142 0.08495 0.60009 0.0
Eu2459 Eu 0.02245 0.05282 0.52603 0.0
N2460 N 0.0403 0.07243 0.55321 0.0
C2461 C 0.05937 0.09637 0.58569 0.0
C2462 C 0.05836 0.08118 0.5527 0.0
C2463 C 0.06828 0.09301 0.56908 0.0
H2464 H 0.97661 0.04873 0.53294 0.0
H2465 H 0.08274 0.09955 0.56888 0.0
H2466 H 0.08055 0.00667 0.51743 0.0
H2467 H 0.97396 0.95748 0.47647 0.0
H2468 H 0.0651 0.07872 0.53974 0.0
H2469 H 0.06708 0.10555 0.59836 0.0
H2470 H 0.99059 0.97743 0.50624 0.0
H2471 H 0.9583 0.05491 0.55991 0.0
H2472 H 0.03768 0.10103 0.61457 0.0
H2473 H 0.00393 0.08846 0.61225 0.0
H2474 H 0.09988 0.99912 0.49174 0.0
H2475 H 0.97425 0.07131 0.59198 0.0
H2476 H 0.99145 0.94848 0.44945 0.0
N2477 N 0.05489 0.99284 0.50053 0.0
C2478 C 0.04654 0.98155 0.48388 0.0
C2479 C 0.08489 0.99422 0.48929 0.0
C2480 C 0.05714 0.97666 0.46893 0.0
C2481 C 0.07383 0.99868 0.50372 0.0
C2482 C 0.0765 0.98331 0.47175 0.0
N2483 N 0.01724 0.98018 0.49609 0.0
C2484 C 0.9984 0.97384 0.49454 0.0
C2485 C 0.01825 0.96353 0.46435 0.0
C2486 C 0.02725 0.97499 0.48164 0.0
C2487 C 0.99887 0.95729 0.46251 0.0
C2488 C 0.98893 0.96239 0.4777 0.0
H2489 H 0.08512 0.97989 0.46059 0.0
H2490 H 0.0561 0.9615 0.44005 0.0
H2491 H 0.02209 0.95005 0.43603 0.0
O2492 O 0.02785 0.97152 0.53135 0.0
O2493 O 0.02966 0.01313 0.49457 0.0
O2494 O 0.00792 0.0311 0.50097 0.0
O2495 O 0.05401 0.99 0.54379 0.0
O2496 O 0.00636 1.00225 0.5323 0.0
O2497 O 0.99649 0.02877 0.5224 0.0
O2498 O 0.03186 0.07157 0.50432 0.0
O2499 O 0.04062 0.04495 0.55151 0.0
O2500 O 0.0261 0.01482 0.55027 0.0
O2501 O 0.0106 0.07744 0.52177 0.0
O2502 O 0.04805 0.04681 0.51249 0.0
O2503 O 0.05915 0.02505 0.53 0.0
C2504 C 0.01645 0.02201 0.48853 0.0
C2505 C 0.05113 0.95753 0.54857 0.0
C2506 C 0.04961 0.92922 0.56518 0.0
C2507 C 0.06812 0.92902 0.56191 0.0
C2508 C 0.06959 0.95683 0.54544 0.0
C2509 C 0.07798 0.94268 0.55209 0.0
C2510 C 0.04111 0.94356 0.55846 0.0
C2511 C 0.99334 0.01208 0.52877 0.0
C2512 C 0.04297 0.97379 0.54371 0.0
C2513 C 0.04817 0.96532 0.4517 0.0
C2514 C 0.0288 0.95878 0.44942 0.0
C2515 C 0.03647 0.0299 0.56018 0.0
C2516 C 0.01135 0.09066 0.49187 0.0
C2517 C 0.00975 0.11654 0.4722 0.0
C2518 C 0.99166 0.10744 0.46395 0.0
C2519 C 0.99328 0.08188 0.48328 0.0
C2520 C 0.01967 0.10799 0.48613 0.0
C2521 C 0.98357 0.0902 0.46935 0.0
C2522 C 0.06186 0.03989 0.52055 0.0
C2523 C 0.02072 0.08291 0.50825 0.0
H2524 H 0.07502 0.91833 0.56715 0.0
H2525 H 0.07767 0.96746 0.5382 0.0
H2526 H 0.0923 0.94241 0.54985 0.0
H2527 H 0.02698 0.94412 0.56132 0.0
H2528 H 0.98372 0.11377 0.45334 0.0
H2529 H 0.98649 0.06882 0.48774 0.0
H2530 H 0.03347 0.11509 0.49294 0.0
H2531 H 0.96956 0.0834 0.46295 0.0
Eu2532 Eu 0.28085 0.8041 0.76479 0.0
C2533 C 0.2402 0.729 0.80318 0.0
N2534 N 0.25701 0.74032 0.81022 0.0
C2535 C 0.24943 0.73921 0.84325 0.0
C2536 C 0.22694 0.72333 0.81599 0.0
C2537 C 0.26221 0.74427 0.83009 0.0
C2538 C 0.23157 0.72908 0.83615 0.0
C2539 C 0.21982 0.70918 0.77598 0.0
C2540 C 0.23665 0.72187 0.78333 0.0
C2541 C 0.20628 0.70441 0.78854 0.0
C2542 C 0.20981 0.71148 0.80847 0.0
Eu2543 Eu 0.27659 0.74882 0.78579 0.0
N2544 N 0.24987 0.72678 0.77131 0.0
C2545 C 0.21724 0.70136 0.75626 0.0
C2546 C 0.24779 0.71856 0.75236 0.0
C2547 C 0.2314 0.70588 0.74448 0.0
H2548 H 0.27628 0.75119 0.83603 0.0
H2549 H 0.22974 0.69957 0.72936 0.0
H2550 H 0.28412 0.79052 0.71555 0.0
H2551 H 0.32643 0.85986 0.81537 0.0
H2552 H 0.25884 0.72162 0.74341 0.0
H2553 H 0.20454 0.69153 0.75012 0.0
H2554 H 0.29769 0.83625 0.80373 0.0
H2555 H 0.25348 0.74287 0.85891 0.0
H2556 H 0.19319 0.69487 0.78308 0.0
H2557 H 0.19943 0.7072 0.81809 0.0
H2558 H 0.30794 0.79448 0.6934 0.0
H2559 H 0.22177 0.72501 0.84642 0.0
H2560 H 0.352 0.86457 0.79451 0.0
N2561 N 0.30166 0.80689 0.74048 0.0
C2562 C 0.31803 0.81948 0.74639 0.0
C2563 C 0.3111 0.8013 0.70837 0.0
C2564 C 0.33187 0.82265 0.73359 0.0
C2565 C 0.2977 0.79871 0.72136 0.0
C2566 C 0.32836 0.81304 0.7146 0.0
N2567 N 0.30734 0.82714 0.77717 0.0
C2568 C 0.30892 0.83797 0.79477 0.0
C2569 C 0.33738 0.84347 0.77097 0.0
C2570 C 0.3208 0.83001 0.76495 0.0
C2571 C 0.33946 0.8541 0.78941 0.0
C2572 C 0.32509 0.85146 0.80127 0.0
H2573 H 0.33863 0.81514 0.70438 0.0
H2574 H 0.35931 0.83813 0.73022 0.0
H2575 H 0.36416 0.85624 0.7629 0.0
O2576 O 0.26918 0.82878 0.77532 0.0
O2577 O 0.30801 0.7993 0.78227 0.0
O2578 O 0.30568 0.76695 0.78399 0.0
O2579 O 0.26721 0.81814 0.74387 0.0
O2580 O 0.27595 0.78502 0.78671 0.0
O2581 O 0.28117 0.7711 0.81182 0.0
O2582 O 0.28546 0.72344 0.77365 0.0
O2583 O 0.24942 0.7564 0.77006 0.0
O2584 O 0.25211 0.78918 0.77254 0.0
O2585 O 0.29482 0.73553 0.80384 0.0
O2586 O 0.28675 0.76218 0.75966 0.0
O2587 O 0.271 0.7796 0.74191 0.0
C2588 C 0.31548 0.78433 0.78474 0.0
C2589 C 0.25507 0.84586 0.75026 0.0
C2590 C 0.23786 0.87081 0.75556 0.0
C2591 C 0.23789 0.87358 0.73572 0.0
C2592 C 0.25508 0.84902 0.73043 0.0
C2593 C 0.24653 0.86278 0.72326 0.0
C2594 C 0.24656 0.85699 0.76294 0.0
C2595 C 0.27951 0.78666 0.80558 0.0
C2596 C 0.26379 0.83074 0.75704 0.0
C2597 C 0.34856 0.83569 0.73984 0.0
C2598 C 0.3513 0.84605 0.75844 0.0
C2599 C 0.24206 0.77171 0.76872 0.0
C2600 C 0.29512 0.70354 0.79633 0.0
C2601 C 0.30916 0.67602 0.79597 0.0
C2602 C 0.29952 0.67046 0.81162 0.0
C2603 C 0.28534 0.6977 0.81182 0.0
C2604 C 0.30688 0.69253 0.78829 0.0
C2605 C 0.28757 0.6812 0.8194 0.0
C2606 C 0.27578 0.7636 0.74398 0.0
C2607 C 0.29525 0.72211 0.79011 0.0
H2608 H 0.23121 0.88417 0.72989 0.0
H2609 H 0.26165 0.8408 0.72035 0.0
H2610 H 0.24654 0.86502 0.70798 0.0
H2611 H 0.24639 0.85474 0.77822 0.0
H2612 H 0.30131 0.65785 0.81785 0.0
H2613 H 0.2764 0.70611 0.81838 0.0
H2614 H 0.31473 0.69713 0.77656 0.0
H2615 H 0.28024 0.67689 0.83155 0.0
Eu2616 Eu 0.52075 0.04023 0.99775 0.0
C2617 C 0.57135 1.00304 0.06879 0.0
N2618 N 0.55734 0.99463 0.05454 0.0
C2619 C 0.57353 0.96974 0.04728 0.0
C2620 C 0.58735 0.99526 0.07252 0.0
C2621 C 0.55795 0.97794 0.04416 0.0
C2622 C 0.58841 0.97855 0.06136 0.0
C2623 C 0.583 0.02711 0.09631 0.0
C2624 C 0.56914 0.01874 0.08057 0.0
C2625 C 0.59933 0.01993 0.09948 0.0
C2626 C 0.60148 0.00401 0.08765 0.0
Eu2627 Eu 0.53176 0.00961 0.04982 0.0
N2628 N 0.55305 0.02521 0.07736 0.0
C2629 C 0.57976 0.04205 0.10884 0.0
C2630 C 0.54917 0.03863 0.09067 0.0
C2631 C 0.56263 0.0476 0.10622 0.0
H2632 H 0.54621 0.97059 0.03383 0.0
H2633 H 0.55964 0.05857 0.11637 0.0
H2634 H 0.51126 0.08212 0.01255 0.0
H2635 H 0.483 0.98987 0.93616 0.0
H2636 H 0.53561 0.04236 0.08967 0.0
H2637 H 0.59007 0.04887 0.12105 0.0
H2638 H 0.51052 0.00677 0.95864 0.0
H2639 H 0.57393 0.95652 0.03898 0.0
H2640 H 0.61015 0.02627 0.11142 0.0
H2641 H 0.6139 0.9983 0.09064 0.0
H2642 H 0.48436 0.09783 0.01133 0.0
H2643 H 0.60039 0.97208 0.06389 0.0
H2644 H 0.45293 1.00042 0.93634 0.0
N2645 N 0.49621 0.05715 0.99523 0.0
C2646 C 0.48018 0.04879 0.9837 0.0
C2647 C 0.4829 0.08392 0.00365 0.0
C2648 C 0.46449 0.05729 0.98233 0.0
C2649 C 0.49807 0.07489 0.00445 0.0
C2650 C 0.46591 0.07495 0.99282 0.0
N2651 N 0.49576 0.02524 0.97326 0.0
C2652 C 0.4973 0.01091 0.95967 0.0
C2653 C 0.46394 0.02345 0.95923 0.0
C2654 C 0.47992 0.03219 0.97237 0.0
C2655 C 0.46488 0.00758 0.94662 0.0
C2656 C 0.4818 1.00155 0.94653 0.0
H2657 H 0.4542 0.08199 0.99215 0.0
H2658 H 0.43584 0.05432 0.96912 0.0
H2659 H 0.43534 0.02456 0.94887 0.0
O2660 O 0.54215 0.03862 0.97822 0.0
O2661 O 0.51521 0.02243 0.01988 0.0
O2662 O 0.50209 1.00131 0.03575 0.0
O2663 O 0.53274 0.06508 0.98486 0.0
O2664 O 0.52473 0.00942 0.99143 0.0
O2665 O 0.53151 0.99343 0.01902 0.0
O2666 O 0.50803 0.00419 0.06618 0.0
O2667 O 0.54933 0.02233 0.02763 0.0
O2668 O 0.54696 0.05081 0.01885 0.0
O2669 O 0.52636 0.98414 0.0638 0.0
O2670 O 0.52745 0.04038 0.05566 0.0
O2671 O 0.51869 0.05554 0.0281 0.0
C2672 C 0.49989 0.01172 0.02237 0.0
C2673 C 0.55683 0.06523 0.96324 0.0
C2674 C 0.57343 0.06328 0.93472 0.0
C2675 C 0.5803 0.08263 0.9381 0.0
C2676 C 0.56377 0.0846 0.96659 0.0
C2677 C 0.5756 0.09322 0.95411 0.0
C2678 C 0.56193 0.05455 0.94744 0.0
C2679 C 0.52881 0.99465 0.99972 0.0
C2680 C 0.54379 0.05621 0.97572 0.0
C2681 C 0.44813 0.04816 0.97015 0.0
C2682 C 0.44785 0.03122 0.95863 0.0
C2683 C 0.55611 0.04026 0.0287 0.0
C2684 C 0.51113 0.98628 0.09255 0.0
C2685 C 0.4981 0.99288 0.1229 0.0
C2686 C 0.50819 0.98092 0.13189 0.0
C2687 C 0.52096 0.9741 0.10163 0.0
C2688 C 0.49943 0.99539 0.10323 0.0
C2689 C 0.51946 0.97147 0.12121 0.0
C2690 C 0.52213 0.0546 0.04735 0.0
C2691 C 0.51223 0.98881 0.07177 0.0
H2692 H 0.58917 0.08952 0.92827 0.0
H2693 H 0.56002 0.09304 0.97879 0.0
H2694 H 0.58092 0.10816 0.9567 0.0
H2695 H 0.55644 0.03962 0.94457 0.0
H2696 H 0.50707 0.97866 0.14705 0.0
H2697 H 0.52973 0.96655 0.0936 0.0
H2698 H 0.4914 0.00451 0.09636 0.0
H2699 H 0.527 0.96203 0.12811 0.0
Eu2700 Eu 0.26836 0.24913 0.26014 0.0
C2701 C 0.33044 0.31838 0.30782 0.0
N2702 N 0.31434 0.30848 0.31272 0.0
C2703 C 0.32849 0.31061 0.34609 0.0
C2704 C 0.34646 0.3242 0.32182 0.0
C2705 C 0.31296 0.30524 0.33177 0.0
C2706 C 0.34539 0.3199 0.34103 0.0
C2707 C 0.34681 0.3348 0.28383 0.0
C2708 C 0.33059 0.32376 0.28912 0.0
C2709 C 0.36301 0.33989 0.29744 0.0
C2710 C 0.36282 0.33466 0.3164 0.0
Eu2711 Eu 0.28883 0.30005 0.28724 0.0
N2712 N 0.31465 0.31889 0.27634 0.0
C2713 C 0.3461 0.34081 0.26518 0.0
C2714 C 0.31358 0.32561 0.25861 0.0
C2715 C 0.32933 0.33637 0.25261 0.0
H2716 H 0.29977 0.29862 0.33601 0.0
H2717 H 0.32848 0.34138 0.23837 0.0
H2718 H 0.2554 0.25901 0.21457 0.0
H2719 H 0.22951 0.19925 0.3028 0.0
H2720 H 0.30059 0.32268 0.24913 0.0
H2721 H 0.35826 0.34928 0.26056 0.0
H2722 H 0.2575 0.21897 0.29368 0.0
H2723 H 0.32733 0.30775 0.36106 0.0
H2724 H 0.37561 0.34829 0.2936 0.0
H2725 H 0.37527 0.33913 0.32692 0.0
H2726 H 0.22681 0.25495 0.19141 0.0
H2727 H 0.35736 0.32421 0.35221 0.0
H2728 H 0.19891 0.19624 0.28288 0.0
N2729 N 0.24191 0.24515 0.23635 0.0
C2730 C 0.22588 0.23458 0.24068 0.0
C2731 C 0.22628 0.24938 0.20534 0.0
C2732 C 0.20918 0.23158 0.22764 0.0
C2733 C 0.24246 0.25197 0.21869 0.0
C2734 C 0.2095 0.23935 0.20994 0.0
N2735 N 0.24274 0.22858 0.26975 0.0
C2736 C 0.24415 0.21837 0.28518 0.0
C2737 C 0.20998 0.2146 0.26233 0.0
C2738 C 0.22628 0.2262 0.2579 0.0
C2739 C 0.21112 0.20526 0.27899 0.0
C2740 C 0.22834 0.20693 0.29028 0.0
H2741 H 0.197 0.23727 0.19951 0.0
H2742 H 0.17987 0.21828 0.22264 0.0
H2743 H 0.18056 0.20341 0.253 0.0
O2744 O 0.27718 0.22304 0.26341 0.0
O2745 O 0.24657 0.26775 0.26417 0.0
O2746 O 0.25986 0.28535 0.29321 0.0
O2747 O 0.27205 0.23113 0.23381 0.0
O2748 O 0.26856 0.25204 0.29311 0.0
O2749 O 0.29285 0.2764 0.30536 0.0
O2750 O 0.27841 0.32525 0.28169 0.0
O2751 O 0.30923 0.28857 0.26876 0.0
O2752 O 0.30022 0.2573 0.27106 0.0
O2753 O 0.28329 0.31853 0.31184 0.0
O2754 O 0.27339 0.29677 0.25614 0.0
O2755 O 0.28121 0.27044 0.24158 0.0
C2756 C 0.24496 0.27816 0.28048 0.0
C2757 C 0.28215 0.20149 0.23659 0.0
C2758 C 0.29345 0.17343 0.24292 0.0
C2759 C 0.29603 0.1701 0.2231 0.0
C2760 C 0.28441 0.19798 0.21666 0.0
C2761 C 0.29128 0.18226 0.20996 0.0
C2762 C 0.28635 0.18893 0.24952 0.0
C2763 C 0.28087 0.26126 0.30754 0.0
C2764 C 0.27709 0.21888 0.24457 0.0
C2765 C 0.19282 0.22062 0.23243 0.0
C2766 C 0.19322 0.21217 0.24974 0.0
C2767 C 0.31287 0.27163 0.26749 0.0
C2768 C 0.27161 0.3468 0.30788 0.0
C2769 C 0.25834 0.37375 0.30149 0.0
C2770 C 0.25832 0.37838 0.32177 0.0
C2771 C 0.27172 0.35158 0.32815 0.0
C2772 C 0.26494 0.35795 0.29466 0.0
C2773 C 0.26507 0.36733 0.33503 0.0
C2774 C 0.27745 0.28708 0.2406 0.0
C2775 C 0.27782 0.32993 0.30034 0.0
H2776 H 0.30167 0.15817 0.21786 0.0
H2777 H 0.28133 0.20756 0.20642 0.0
H2778 H 0.29322 0.17968 0.19465 0.0
H2779 H 0.28479 0.19152 0.26499 0.0
H2780 H 0.25347 0.39071 0.32735 0.0
H2781 H 0.27684 0.34314 0.33866 0.0
H2782 H 0.2647 0.35427 0.27898 0.0
H2783 H 0.2652 0.37102 0.35066 0.0
Eu2784 Eu 0.53538 0.49922 0.02128 0.0
C2785 C 0.51149 0.567 0.06792 0.0
N2786 N 0.50285 0.55681 0.05073 0.0
C2787 C 0.47305 0.55526 0.06256 0.0
C2788 C 0.50115 0.57116 0.08339 0.0
C2789 C 0.48381 0.55182 0.04752 0.0
C2790 C 0.48177 0.56471 0.08069 0.0
C2791 C 0.53957 0.58641 0.08652 0.0
C2792 C 0.53052 0.5745 0.06957 0.0
C2793 C 0.52946 0.58989 0.10225 0.0
C2794 C 0.51032 0.58223 0.10071 0.0
Eu2795 Eu 0.52272 0.55148 0.02666 0.0
N2796 N 0.54006 0.57081 0.05422 0.0
C2797 C 0.55838 0.59494 0.0869 0.0
C2798 C 0.55803 0.57992 0.05396 0.0
C2799 C 0.56756 0.59191 0.07042 0.0
H2800 H 0.47675 0.5455 0.03325 0.0
H2801 H 0.58193 0.59882 0.07038 0.0
H2802 H 0.57904 0.50826 0.00879 0.0
H2803 H 0.4711 0.45663 0.98031 0.0
H2804 H 0.56498 0.57771 0.0411 0.0
H2805 H 0.56579 0.60425 0.09962 0.0
H2806 H 0.49035 0.47641 0.00879 0.0
H2807 H 0.45799 0.55094 0.06004 0.0
H2808 H 0.53621 0.59887 0.11547 0.0
H2809 H 0.50261 0.58545 0.11277 0.0
H2810 H 0.5955 0.50059 0.98066 0.0
H2811 H 0.47336 0.56761 0.09222 0.0
H2812 H 0.4855 0.44806 0.95069 0.0
N2813 N 0.55232 0.49381 0.9948 0.0
C2814 C 0.54261 0.48209 0.97905 0.0
C2815 C 0.58059 0.4955 0.97991 0.0
C2816 C 0.55157 0.47713 0.96272 0.0
C2817 C 0.57113 0.5001 0.99571 0.0
C2818 C 0.57076 0.48407 0.96328 0.0
N2819 N 0.51518 0.48027 0.99504 0.0
C2820 C 0.49671 0.47343 0.99577 0.0
C2821 C 0.5131 0.46359 0.96263 0.0
C2822 C 0.52354 0.47528 0.97909 0.0
C2823 C 0.49399 0.45705 0.96305 0.0
C2824 C 0.4858 0.46192 0.97972 0.0
H2825 H 0.57815 0.4805 0.95106 0.0
H2826 H 0.54783 0.46149 0.93373 0.0
H2827 H 0.51418 0.44974 0.93359 0.0
O2828 O 0.53009 0.47011 0.02873 0.0
O2829 O 0.52996 0.51378 0.99376 0.0
O2830 O 0.50756 0.53038 0.0014 0.0
O2831 O 0.55799 0.48693 0.03352 0.0
O2832 O 0.50836 0.5013 0.03405 0.0
O2833 O 0.49773 0.52668 0.02233 0.0
O2834 O 0.53201 0.57066 0.00527 0.0
O2835 O 0.54117 0.54296 0.05155 0.0
O2836 O 0.52939 0.51167 0.05084 0.0
O2837 O 0.51069 0.57609 0.02287 0.0
O2838 O 0.54826 0.54626 0.01282 0.0
O2839 O 0.55981 0.52407 0.02906 0.0
C2840 C 0.51607 0.522 0.98837 0.0
C2841 C 0.55313 0.46043 0.05155 0.0
C2842 C 0.54824 0.43403 0.07127 0.0
C2843 C 0.56694 0.43944 0.0797 0.0
C2844 C 0.5718 0.46524 0.06046 0.0
C2845 C 0.57857 0.45485 0.07432 0.0
C2846 C 0.54129 0.44449 0.05695 0.0
C2847 C 0.49505 0.51075 0.03016 0.0
C2848 C 0.54759 0.47075 0.03494 0.0
C2849 C 0.54117 0.46543 0.9464 0.0
C2850 C 0.522 0.45874 0.94633 0.0
C2851 C 0.53758 0.52793 0.0605 0.0
C2852 C 0.51141 0.5899 0.99322 0.0
C2853 C 0.51008 0.61595 0.97363 0.0
C2854 C 0.49173 0.60728 0.96582 0.0
C2855 C 0.49313 0.58152 0.98494 0.0
C2856 C 0.51998 0.60711 0.98733 0.0
C2857 C 0.48341 0.59016 0.97132 0.0
C2858 C 0.56232 0.5395 0.02049 0.0
C2859 C 0.52079 0.58185 0.00942 0.0
H2860 H 0.57263 0.43154 0.09044 0.0
H2861 H 0.58148 0.47685 0.05635 0.0
H2862 H 0.59304 0.45865 0.08078 0.0
H2863 H 0.52701 0.44015 0.04998 0.0
H2864 H 0.4838 0.61382 0.95542 0.0
H2865 H 0.4862 0.56851 0.9894 0.0
H2866 H 0.53399 0.61387 0.99382 0.0
H2867 H 0.46923 0.58369 0.96521 0.0
Eu2868 Eu 0.78349 0.30461 0.26581 0.0
C2869 C 0.73841 0.22935 0.30108 0.0
N2870 N 0.7548 0.24072 0.30939 0.0
C2871 C 0.74483 0.23895 0.34142 0.0
C2872 C 0.72415 0.22333 0.31267 0.0
C2873 C 0.75856 0.24453 0.32942 0.0
C2874 C 0.72741 0.22864 0.33298 0.0
C2875 C 0.7195 0.21058 0.27231 0.0
C2876 C 0.73619 0.22273 0.2811 0.0
C2877 C 0.70501 0.20537 0.28368 0.0
C2878 C 0.70736 0.21166 0.3038 0.0
Eu2879 Eu 0.77659 0.24936 0.28704 0.0
N2880 N 0.75043 0.2279 0.27031 0.0
C2881 C 0.71799 0.20372 0.25239 0.0
C2882 C 0.74944 0.22041 0.25126 0.0
C2883 C 0.73313 0.20846 0.24189 0.0
H2884 H 0.77224 0.25162 0.33642 0.0
H2885 H 0.73233 0.20275 0.22665 0.0
H2886 H 0.7804 0.29435 0.21512 0.0
H2887 H 0.8343 0.35858 0.31256 0.0
H2888 H 0.76136 0.22331 0.24348 0.0
H2889 H 0.7054 0.19437 0.24512 0.0
H2890 H 0.80414 0.33623 0.30307 0.0
H2891 H 0.74779 0.24237 0.35721 0.0
H2892 H 0.69208 0.19612 0.27714 0.0
H2893 H 0.69624 0.20707 0.31248 0.0
H2894 H 0.80181 0.29682 0.19011 0.0
H2895 H 0.71685 0.22422 0.34236 0.0
H2896 H 0.85842 0.36086 0.28983 0.0
N2897 N 0.80137 0.30722 0.23895 0.0
C2898 C 0.819 0.31771 0.24382 0.0
C2899 C 0.80691 0.30247 0.20522 0.0
C2900 C 0.83144 0.32031 0.22952 0.0
C2901 C 0.79489 0.30071 0.21968 0.0
C2902 C 0.82536 0.312 0.21021 0.0
N2903 N 0.81187 0.32537 0.27612 0.0
C2904 C 0.81486 0.33692 0.29342 0.0
C2905 C 0.84154 0.3399 0.26743 0.0
C2906 C 0.82421 0.3273 0.26272 0.0
C2907 C 0.84533 0.35093 0.28576 0.0
C2908 C 0.83177 0.34968 0.29866 0.0
H2909 H 0.83451 0.31364 0.19886 0.0
H2910 H 0.85892 0.33385 0.22384 0.0
H2911 H 0.86766 0.35113 0.25692 0.0
O2912 O 0.76881 0.32349 0.28199 0.0
O2913 O 0.80881 0.29814 0.2852 0.0
O2914 O 0.80567 0.26547 0.28116 0.0
O2915 O 0.77694 0.3289 0.25349 0.0
O2916 O 0.77837 0.28537 0.28728 0.0
O2917 O 0.78013 0.27162 0.3129 0.0
O2918 O 0.78466 0.22208 0.2791 0.0
O2919 O 0.74949 0.25867 0.27407 0.0
O2920 O 0.75299 0.28805 0.26153 0.0
O2921 O 0.79315 0.23791 0.30846 0.0
O2922 O 0.78755 0.26096 0.26011 0.0
O2923 O 0.77334 0.28018 0.24273 0.0
C2924 C 0.81593 0.28272 0.28591 0.0
C2925 C 0.74956 0.3379 0.26117 0.0
C2926 C 0.7295 0.36061 0.25895 0.0
C2927 C 0.71746 0.34831 0.24407 0.0
C2928 C 0.73728 0.32567 0.24642 0.0
C2929 C 0.72126 0.33087 0.238 0.0
C2930 C 0.74547 0.35524 0.26766 0.0
C2931 C 0.77925 0.28706 0.30614 0.0
C2932 C 0.7678 0.33378 0.26772 0.0
C2933 C 0.84921 0.33185 0.23463 0.0
C2934 C 0.8542 0.3417 0.25348 0.0
C2935 C 0.74278 0.27216 0.26574 0.0
C2936 C 0.80356 0.20867 0.3037 0.0
C2937 C 0.81688 0.18075 0.29839 0.0
C2938 C 0.82288 0.18254 0.3186 0.0
C2939 C 0.80977 0.21007 0.3239 0.0
C2940 C 0.80725 0.19392 0.29084 0.0
C2941 C 0.81937 0.19713 0.33124 0.0
C2942 C 0.77715 0.26363 0.24442 0.0
C2943 C 0.79366 0.22301 0.29666 0.0
H2944 H 0.70511 0.35224 0.23711 0.0
H2945 H 0.74041 0.31241 0.24092 0.0
H2946 H 0.712 0.32154 0.22643 0.0
H2947 H 0.75513 0.36489 0.2787 0.0
H2948 H 0.83037 0.17259 0.32463 0.0
H2949 H 0.8072 0.22122 0.33416 0.0
H2950 H 0.80262 0.19262 0.27523 0.0
H2951 H 0.8241 0.19839 0.3468 0.0
Eu2952 Eu 0.03205 0.54298 0.50021 0.0
C2953 C 0.06584 0.50352 0.56861 0.0
N2954 N 0.05166 0.49512 0.55445 0.0
C2955 C 0.06647 0.46894 0.54889 0.0
C2956 C 0.0812 0.49504 0.57315 0.0
C2957 C 0.05165 0.47798 0.54474 0.0
C2958 C 0.08137 0.47754 0.56308 0.0
C2959 C 0.0799 0.53014 0.59268 0.0
C2960 C 0.06525 0.52098 0.57805 0.0
C2961 C 0.09531 0.52184 0.59711 0.0
C2962 C 0.09596 0.50434 0.58736 0.0
Eu2963 Eu 0.02795 0.51193 0.54665 0.0
N2964 N 0.0504 0.52895 0.57297 0.0
C2965 C 0.07862 0.54738 0.6025 0.0
C2966 C 0.04852 0.54507 0.58364 0.0
C2967 C 0.06271 0.5547 0.59818 0.0
H2968 H 0.04019 0.47128 0.53376 0.0
H2969 H 0.06123 0.56767 0.60624 0.0
H2970 H 0.0212 0.58436 0.51273 0.0
H2971 H 0.99857 0.48794 0.43997 0.0
H2972 H 0.03597 0.55043 0.5816 0.0
H2973 H 0.08958 0.55489 0.61376 0.0
H2974 H 0.02348 0.50419 0.46535 0.0
H2975 H 0.06644 0.45538 0.54107 0.0
H2976 H 0.10675 0.5288 0.60813 0.0
H2977 H 0.10794 0.49811 0.59093 0.0
H2978 H 0.99645 0.60172 0.50393 0.0
H2979 H 0.09291 0.47058 0.56614 0.0
H2980 H 0.97151 0.50225 0.43109 0.0
N2981 N 0.00969 0.56094 0.4915 0.0
C2982 C 0.99592 0.55313 0.4767 0.0
C2983 C 0.99611 0.58806 0.49618 0.0
C2984 C 0.98143 0.56249 0.47127 0.0
C2985 C 0.01006 0.57818 0.50119 0.0
C2986 C 0.9817 0.58016 0.48119 0.0
N2987 N 0.00997 0.52661 0.4733 0.0
C2988 C 0.01141 0.51021 0.46285 0.0
C2989 C 0.98157 0.52683 0.45232 0.0
C2990 C 0.99593 0.53541 0.4675 0.0
C2991 C 0.98228 0.5093 0.44278 0.0
C2992 C 0.99745 0.50112 0.44785 0.0
H2993 H 0.97081 0.58778 0.47746 0.0
H2994 H 0.95572 0.56078 0.4521 0.0
H2995 H 0.9559 0.5296 0.43543 0.0
O2996 O 0.05394 0.54389 0.48113 0.0
O2997 O 1.00359 0.53585 0.50954 0.0
O2998 O 0.00741 0.50835 0.51943 0.0
O2999 O 0.04475 0.56924 0.49036 0.0
O3000 O 0.04069 0.514 0.49628 0.0
O3001 O 0.0244 0.49482 0.51636 0.0
O3002 O 0.00769 0.51032 0.56768 0.0
O3003 O 0.05586 0.51919 0.53603 0.0
O3004 O 0.052 0.54719 0.52766 0.0
O3005 O 0.01566 0.48505 0.5555 0.0
O3006 O 0.01834 0.54031 0.55049 0.0
O3007 O 0.03445 0.55993 0.53061 0.0
C3008 C 0.99679 0.52025 0.51591 0.0
C3009 C 0.05425 0.56608 0.4586 0.0
C3010 C 0.06061 0.55908 0.42496 0.0
C3011 C 0.05397 0.57496 0.41998 0.0
C3012 C 0.0478 0.582 0.45342 0.0
C3013 C 0.04765 0.58635 0.43418 0.0
C3014 C 0.06075 0.55477 0.44429 0.0
C3015 C 0.03443 0.4972 0.50152 0.0
C3016 C 0.05478 0.56142 0.47888 0.0
C3017 C 0.96701 0.55384 0.45639 0.0
C3018 C 0.96708 0.53606 0.44696 0.0
C3019 C 0.06251 0.53515 0.53037 0.0
C3020 C 1.0029 0.48436 0.58597 0.0
C3021 C 0.98724 0.48417 0.61536 0.0
C3022 C 0.99112 0.46649 0.61787 0.0
C3023 C 0.00687 0.46673 0.58872 0.0
C3024 C 0.99333 0.49312 0.59954 0.0
C3025 C 1.00106 0.45791 0.60469 0.0
C3026 C 0.02429 0.5572 0.54535 0.0
C3027 C 0.00569 0.49229 0.56752 0.0
H3028 H 0.05409 0.57881 0.40523 0.0
H3029 H 0.04294 0.59112 0.46422 0.0
H3030 H 0.04276 0.59867 0.43029 0.0
H3031 H 0.06591 0.54255 0.44816 0.0
H3032 H 0.98648 0.45934 0.63003 0.0
H3033 H 0.01391 0.4595 0.57825 0.0
H3034 H 0.98971 0.50647 0.59728 0.0
H3035 H 0.00392 0.44424 0.60664 0.0
Eu3036 Eu 0.80454 0.76887 0.27335 0.0
C3037 C 0.73219 0.79722 0.23566 0.0
N3038 N 0.74402 0.80434 0.25232 0.0
C3039 C 0.74694 0.83514 0.2427 0.0
C3040 C 0.72797 0.80877 0.2214 0.0
C3041 C 0.75073 0.82313 0.2564 0.0
C3042 C 0.73575 0.8279 0.22498 0.0
C3043 C 0.71144 0.77057 0.21607 0.0
C3044 C 0.724 0.77833 0.23303 0.0
C3045 C 0.70773 0.7819 0.20153 0.0
C3046 C 0.71596 0.80096 0.20419 0.0
Eu3047 Eu 0.75103 0.7825 0.27351 0.0
N3048 N 0.72812 0.76761 0.24719 0.0
C3049 C 0.7028 0.75168 0.21436 0.0
C3050 C 0.71885 0.74954 0.24616 0.0
C3051 C 0.70628 0.74122 0.22964 0.0
H3052 H 0.75884 0.82899 0.27029 0.0
H3053 H 0.69917 0.72678 0.22878 0.0
H3054 H 0.80276 0.7229 0.27792 0.0
H3055 H 0.85349 0.82893 0.31421 0.0
H3056 H 0.72076 0.74157 0.25822 0.0
H3057 H 0.69306 0.7452 0.20157 0.0
H3058 H 0.83097 0.81155 0.28624 0.0
H3059 H 0.75256 0.85 0.24587 0.0
H3060 H 0.69828 0.77613 0.18831 0.0
H3061 H 0.71273 0.80959 0.19297 0.0
H3062 H 0.81248 0.70381 0.30297 0.0
H3063 H 0.73285 0.83725 0.21439 0.0
H3064 H 0.86261 0.81263 0.34227 0.0
N3065 N 0.81473 0.74889 0.29536 0.0
C3066 C 0.82619 0.75747 0.31177 0.0
C3067 C 0.81624 0.7189 0.30575 0.0
C3068 C 0.83242 0.74706 0.32631 0.0
C3069 C 0.81058 0.72981 0.29169 0.0
C3070 C 0.82691 0.72757 0.32331 0.0
N3071 N 0.82714 0.78606 0.29874 0.0
C3072 C 0.83493 0.80443 0.29846 0.0
C3073 C 0.84553 0.78587 0.32964 0.0
C3074 C 0.83276 0.77659 0.31341 0.0
C3075 C 0.85277 0.80499 0.33005 0.0
C3076 C 0.84767 0.81425 0.31423 0.0
H3077 H 0.83139 0.71908 0.33413 0.0
H3078 H 0.84914 0.74861 0.35444 0.0
H3079 H 0.86058 0.78263 0.35738 0.0
O3080 O 0.82709 0.7804 0.25647 0.0
O3081 O 0.79894 0.78648 0.30046 0.0
O3082 O 0.76823 0.77365 0.29873 0.0
O3083 O 0.81817 0.75072 0.25529 0.0
O3084 O 0.79677 0.7941 0.26052 0.0
O3085 O 0.77685 0.80623 0.27962 0.0
O3086 O 0.72474 0.77415 0.28573 0.0
O3087 O 0.76191 0.77804 0.24368 0.0
O3088 O 0.77972 0.75665 0.25052 0.0
O3089 O 0.74118 0.80188 0.29442 0.0
O3090 O 0.7515 0.75189 0.27597 0.0
O3091 O 0.78136 0.74431 0.27733 0.0
C3092 C 0.78337 0.78416 0.30852 0.0
C3093 C 0.84983 0.76157 0.25159 0.0
C3094 C 0.87919 0.76232 0.23734 0.0
C3095 C 0.88556 0.75289 0.25257 0.0
C3096 C 0.85677 0.75248 0.26687 0.0
C3097 C 0.87448 0.74815 0.26728 0.0
C3098 C 0.86125 0.76673 0.23691 0.0
C3099 C 0.79167 0.8084 0.27004 0.0
C3100 C 0.83022 0.76413 0.25011 0.0
C3101 C 0.84442 0.75635 0.343 0.0
C3102 C 0.85096 0.77572 0.34466 0.0
C3103 C 0.77182 0.76577 0.23783 0.0
C3104 C 0.70835 0.79739 0.29652 0.0
C3105 C 0.67924 0.7989 0.31081 0.0
C3106 C 0.67594 0.81225 0.29832 0.0
C3107 C 0.70453 0.81057 0.28414 0.0
C3108 C 0.69549 0.79133 0.30968 0.0
C3109 C 0.68841 0.81791 0.28506 0.0
C3110 C 0.76305 0.74015 0.27774 0.0
C3111 C 0.72584 0.79017 0.29615 0.0
H3112 H 0.89921 0.74923 0.25308 0.0
H3113 H 0.84833 0.74833 0.27827 0.0
H3114 H 0.87955 0.74088 0.27895 0.0
H3115 H 0.85603 0.77361 0.22496 0.0
H3116 H 0.6636 0.81829 0.29878 0.0
H3117 H 0.71407 0.8153 0.27386 0.0
H3118 H 0.69837 0.78118 0.31934 0.0
H3119 H 0.68561 0.82817 0.27553 0.0
Eu3120 Eu 0.76086 0.27424 0.79753 0.0
C3121 C 0.802 0.23847 0.73167 0.0
N3122 N 0.81034 0.25321 0.74515 0.0
C3123 C 0.83676 0.23882 0.7515 0.0
C3124 C 0.81057 0.22298 0.72796 0.0
C3125 C 0.82759 0.25368 0.75489 0.0
C3126 C 0.82814 0.2233 0.73811 0.0
C3127 C 0.77585 0.22377 0.70736 0.0
C3128 C 0.7849 0.23891 0.72151 0.0
C3129 C 0.78401 0.20807 0.70408 0.0
C3130 C 0.80137 0.2077 0.71431 0.0
Eu3131 Eu 0.79326 0.27704 0.75187 0.0
N3132 N 0.77722 0.2542 0.72527 0.0
C3133 C 0.75896 0.22494 0.69674 0.0
C3134 C 0.7615 0.25594 0.71379 0.0
C3135 C 0.75195 0.24124 0.69972 0.0
H3136 H 0.8344 0.26565 0.76517 0.0
H3137 H 0.73926 0.24259 0.69102 0.0
H3138 H 0.71995 0.28517 0.78191 0.0
H3139 H 0.81367 0.30968 0.85916 0.0
H3140 H 0.7563 0.26868 0.715 0.0
H3141 H 0.75154 0.2136 0.68583 0.0
H3142 H 0.79825 0.2839 0.83434 0.0
H3143 H 0.85045 0.23932 0.75927 0.0
H3144 H 0.77714 0.19625 0.69345 0.0
H3145 H 0.80763 0.19561 0.71145 0.0
H3146 H 0.70252 0.31029 0.78862 0.0
H3147 H 0.83521 0.21174 0.73561 0.0
H3148 H 0.79946 0.3373 0.86531 0.0
N3149 N 0.74299 0.29742 0.80345 0.0
C3150 C 0.75046 0.31176 0.81778 0.0
C3151 C 0.71603 0.31093 0.79685 0.0
C3152 C 0.741 0.32649 0.82199 0.0
C3153 C 0.726 0.29678 0.79301 0.0
C3154 C 0.72358 0.32588 0.81135 0.0
N3155 N 0.77639 0.29729 0.82407 0.0
C3156 C 0.79226 0.29611 0.83569 0.0
C3157 C 0.7758 0.32671 0.84305 0.0
C3158 C 0.76771 0.31184 0.82818 0.0
C3159 C 0.7928 0.32614 0.85383 0.0
C3160 C 0.8009 0.31063 0.85033 0.0
H3161 H 0.71585 0.33686 0.81423 0.0
H3162 H 0.74214 0.35281 0.83989 0.0
H3163 H 0.77263 0.35303 0.85831 0.0
O3164 O 0.7582 0.2512 0.81519 0.0
O3165 O 0.77095 0.30055 0.78499 0.0
O3166 O 0.80016 0.29845 0.77833 0.0
O3167 O 0.73548 0.2659 0.81107 0.0
O3168 O 0.78996 0.2662 0.8038 0.0
O3169 O 0.81015 0.27907 0.7822 0.0
O3170 O 0.79581 0.30038 0.73438 0.0
O3171 O 0.78294 0.25282 0.76707 0.0
O3172 O 0.75312 0.25119 0.77246 0.0
O3173 O 0.81935 0.28709 0.74035 0.0
O3174 O 0.76466 0.28609 0.74665 0.0
O3175 O 0.7444 0.27111 0.7669 0.0
C3176 C 0.78849 0.30803 0.78513 0.0
C3177 C 0.73964 0.25338 0.84114 0.0
C3178 C 0.74851 0.24394 0.87292 0.0
C3179 C 0.73456 0.25201 0.88076 0.0
C3180 C 0.72551 0.26118 0.84906 0.0
C3181 C 0.72305 0.26051 0.86881 0.0
C3182 C 0.75096 0.24458 0.85316 0.0
C3183 C 0.80698 0.27119 0.79844 0.0
C3184 C 0.74202 0.25343 0.82022 0.0
C3185 C 0.74918 0.34137 0.83655 0.0
C3186 C 0.76656 0.34151 0.847 0.0
C3187 C 0.76567 0.24432 0.76374 0.0
C3188 C 0.8182 0.3019 0.71145 0.0
C3189 C 0.81196 0.31024 0.67848 0.0
C3190 C 0.83001 0.30824 0.67487 0.0
C3191 C 0.83628 0.30018 0.70762 0.0
C3192 C 0.80611 0.30717 0.69683 0.0
C3193 C 0.8421 0.30331 0.68941 0.0
C3194 C 0.74761 0.27986 0.75129 0.0
C3195 C 0.81291 0.29966 0.73125 0.0
H3196 H 0.73223 0.25122 0.89595 0.0
H3197 H 0.71627 0.26766 0.83998 0.0
H3198 H 0.71206 0.26639 0.8748 0.0
H3199 H 0.76159 0.23804 0.84719 0.0
H3200 H 0.83488 0.31091 0.66091 0.0
H3201 H 0.84603 0.29665 0.71881 0.0
H3202 H 0.79225 0.30894 0.69965 0.0
H3203 H 0.85609 0.3021 0.68662 0.0
Eu3204 Eu 0.76728 0.75095 0.76099 0.0
C3205 C 0.83308 0.81182 0.80534 0.0
N3206 N 0.81632 0.80396 0.81075 0.0
C3207 C 0.83083 0.80318 0.84333 0.0
C3208 C 0.84947 0.81548 0.81887 0.0
C3209 C 0.81493 0.79987 0.82949 0.0
C3210 C 0.84817 0.81099 0.83801 0.0
C3211 C 0.8511 0.82439 0.78029 0.0
C3212 C 0.83388 0.81621 0.78617 0.0
C3213 C 0.8674 0.82804 0.79378 0.0
C3214 C 0.86658 0.82362 0.81299 0.0
Eu3215 Eu 0.79029 0.80118 0.78683 0.0
N3216 N 0.81788 0.81255 0.77331 0.0
C3217 C 0.85142 0.82893 0.76108 0.0
C3218 C 0.81801 0.81785 0.75494 0.0
C3219 C 0.83478 0.82576 0.7484 0.0
H3220 H 0.80151 0.79472 0.83406 0.0
H3221 H 0.83479 0.8298 0.73373 0.0
H3222 H 0.75635 0.75638 0.71333 0.0
H3223 H 0.72315 0.71941 0.81283 0.0
H3224 H 0.80523 0.81674 0.7455 0.0
H3225 H 0.86436 0.83526 0.75603 0.0
H3226 H 0.75241 0.73437 0.80176 0.0
H3227 H 0.82964 0.79998 0.8582 0.0
H3228 H 0.88071 0.8344 0.78952 0.0
H3229 H 0.87928 0.82662 0.82324 0.0
H3230 H 0.72859 0.74964 0.6886 0.0
H3231 H 0.86043 0.81368 0.84884 0.0
H3232 H 0.69389 0.7122 0.78987 0.0
N3233 N 0.74151 0.74644 0.73635 0.0
C3234 C 0.72492 0.73765 0.74136 0.0
C3235 C 0.72733 0.74638 0.70343 0.0
C3236 C 0.70877 0.73308 0.72746 0.0
C3237 C 0.743 0.75054 0.71762 0.0
C3238 C 0.71013 0.73766 0.70837 0.0
N3239 N 0.73976 0.73789 0.7737 0.0
C3240 C 0.73968 0.73251 0.79205 0.0
C3241 C 0.70703 0.72394 0.76595 0.0
C3242 C 0.72405 0.73317 0.76047 0.0
C3243 C 0.70668 0.71934 0.78513 0.0
C3244 C 0.72312 0.72351 0.79818 0.0
H3245 H 0.69805 0.73432 0.69728 0.0
H3246 H 0.67932 0.72028 0.72244 0.0
H3247 H 0.6778 0.71227 0.75607 0.0
O3248 O 0.77424 0.72477 0.76851 0.0
O3249 O 0.74587 0.7696 0.76712 0.0
O3250 O 0.75976 0.79246 0.79262 0.0
O3251 O 0.76435 0.72727 0.7384 0.0
O3252 O 0.78169 0.7541 0.79256 0.0
O3253 O 0.77638 0.78192 0.80665 0.0
O3254 O 0.78697 0.82896 0.78062 0.0
O3255 O 0.81026 0.7806 0.78175 0.0
O3256 O 0.79679 0.76183 0.75342 0.0
O3257 O 0.79354 0.82388 0.81063 0.0
O3258 O 0.7753 0.79896 0.75561 0.0
O3259 O 0.77985 0.77096 0.74103 0.0
C3260 C 0.7447 0.78248 0.78157 0.0
C3261 C 0.78543 0.70704 0.74352 0.0
C3262 C 0.80485 0.6843 0.74942 0.0
C3263 C 0.81135 0.68622 0.7311 0.0
C3264 C 0.79196 0.70885 0.72519 0.0
C3265 C 0.80491 0.69847 0.71908 0.0
C3266 C 0.79201 0.69486 0.75551 0.0
C3267 C 0.77883 0.76487 0.80794 0.0
C3268 C 0.77122 0.71695 0.7503 0.0
C3269 C 0.69183 0.72396 0.73295 0.0
C3270 C 0.69097 0.7194 0.75211 0.0
C3271 C 0.81182 0.77009 0.76552 0.0
C3272 C 0.7741 0.84551 0.80506 0.0
C3273 C 0.75435 0.86763 0.79778 0.0
C3274 C 0.74599 0.86456 0.81493 0.0
C3275 C 0.76576 0.84262 0.82229 0.0
C3276 C 0.76838 0.85809 0.79301 0.0
C3277 C 0.75176 0.85215 0.82715 0.0
C3278 C 0.77694 0.7879 0.73989 0.0
C3279 C 0.7886 0.83554 0.79915 0.0
H3280 H 0.8211 0.67801 0.72594 0.0
H3281 H 0.78701 0.71812 0.71555 0.0
H3282 H 0.80982 0.69978 0.7049 0.0
H3283 H 0.78704 0.69359 0.7697 0.0
H3284 H 0.73526 0.87198 0.81902 0.0
H3285 H 0.76994 0.83299 0.83194 0.0
H3286 H 0.77473 0.86026 0.77966 0.0
H3287 H 0.74539 0.84991 0.84042 0.0
Eu3288 Eu 0.55118 0.53445 0.53689 0.0
C3289 C 0.48928 0.47068 0.49077 0.0
N3290 N 0.49829 0.48717 0.48572 0.0
C3291 C 0.50023 0.47235 0.4536 0.0
C3292 C 0.48571 0.45423 0.47733 0.0
C3293 C 0.50346 0.48831 0.46736 0.0
C3294 C 0.49137 0.45523 0.45861 0.0
C3295 C 0.4746 0.45318 0.51513 0.0
C3296 C 0.48381 0.47017 0.50958 0.0
C3297 C 0.47108 0.43681 0.50175 0.0
C3298 C 0.47659 0.43734 0.48292 0.0
Eu3299 Eu 0.50072 0.51336 0.50929 0.0
N3300 N 0.48744 0.4862 0.52237 0.0
C3301 C 0.46894 0.45317 0.53392 0.0
C3302 C 0.48093 0.48644 0.54019 0.0
C3303 C 0.47197 0.46991 0.54642 0.0
H3304 H 0.50944 0.50158 0.46299 0.0
H3305 H 0.467 0.47018 0.56068 0.0
H3306 H 0.54421 0.5454 0.58404 0.0
H3307 H 0.58816 0.57751 0.48744 0.0
H3308 H 0.48182 0.49942 0.54927 0.0
H3309 H 0.46181 0.44041 0.53871 0.0
H3310 H 0.57091 0.54868 0.49754 0.0
H3311 H 0.50432 0.47333 0.43903 0.0
H3312 H 0.46399 0.42366 0.50578 0.0
H3313 H 0.4737 0.42459 0.47276 0.0
H3314 H 0.55156 0.57287 0.6092 0.0
H3315 H 0.4888 0.44291 0.44786 0.0
H3316 H 0.59595 0.60656 0.51075 0.0
N3317 N 0.55633 0.56001 0.56187 0.0
C3318 C 0.56636 0.57633 0.55748 0.0
C3319 C 0.55563 0.57408 0.59465 0.0
C3320 C 0.5712 0.59229 0.57161 0.0
C3321 C 0.55119 0.55859 0.58022 0.0
C3322 C 0.56562 0.59101 0.59032 0.0
N3323 N 0.56701 0.56151 0.52537 0.0
C3324 C 0.57321 0.56139 0.5074 0.0
C3325 C 0.58235 0.5938 0.53388 0.0
C3326 C 0.5719 0.57708 0.53878 0.0
C3327 C 0.5879 0.594 0.51506 0.0
C3328 C 0.58343 0.57767 0.50182 0.0
H3329 H 0.56915 0.60295 0.6016 0.0
H3330 H 0.58544 0.62132 0.57742 0.0
H3331 H 0.59516 0.62264 0.54442 0.0
O3332 O 0.57628 0.52426 0.5302 0.0
O3333 O 0.53509 0.55752 0.52921 0.0
O3334 O 0.50968 0.54438 0.50595 0.0
O3335 O 0.5734 0.53482 0.56048 0.0
O3336 O 0.54821 0.5207 0.50519 0.0
O3337 O 0.52116 0.52721 0.49054 0.0
O3338 O 0.47206 0.51524 0.51305 0.0
O3339 O 0.52053 0.49263 0.51447 0.0
O3340 O 0.53785 0.50544 0.54369 0.0
O3341 O 0.48023 0.5124 0.4838 0.0
O3342 O 0.50216 0.52826 0.5405 0.0
O3343 O 0.52952 0.52264 0.55556 0.0
C3344 C 0.52129 0.55908 0.51596 0.0
C3345 C 0.60182 0.52381 0.55556 0.0
C3346 C 0.62857 0.51025 0.54903 0.0
C3347 C 0.63511 0.51331 0.56917 0.0
C3348 C 0.60859 0.52705 0.57569 0.0
C3349 C 0.62522 0.52186 0.58241 0.0
C3350 C 0.61204 0.51568 0.54226 0.0
C3351 C 0.53817 0.52447 0.48977 0.0
C3352 C 0.58353 0.52759 0.54861 0.0
C3353 C 0.58156 0.60895 0.56672 0.0
C3354 C 0.5871 0.6097 0.54792 0.0
C3355 C 0.5306 0.4907 0.53085 0.0
C3356 C 0.45747 0.53052 0.48956 0.0
C3357 C 0.43412 0.54845 0.49739 0.0
C3358 C 0.44011 0.5608 0.484 0.0
C3359 C 0.46316 0.54261 0.47576 0.0
C3360 C 0.44268 0.5333 0.49993 0.0
C3361 C 0.45447 0.55771 0.47304 0.0
C3362 C 0.51303 0.52674 0.55641 0.0
C3363 C 0.46722 0.51556 0.49438 0.0
H3364 H 0.64791 0.50919 0.5746 0.0
H3365 H 0.6009 0.53329 0.58626 0.0
H3366 H 0.63032 0.52425 0.59793 0.0
H3367 H 0.60687 0.51295 0.52673 0.0
H3368 H 0.4336 0.57265 0.48195 0.0
H3369 H 0.47452 0.54068 0.46742 0.0
H3370 H 0.43824 0.524 0.5106 0.0
H3371 H 0.45903 0.56715 0.46262 0.0
Eu3372 Eu 0.99848 0.5211 0.03384 0.0
C3373 C 0.07637 0.56021 0.99216 0.0
N3374 N 0.06477 0.54328 0.98654 0.0
C3375 C 0.06789 0.54654 0.95266 0.0
C3376 C 0.08333 0.57138 0.97798 0.0
C3377 C 0.06153 0.53585 0.96718 0.0
C3378 C 0.07851 0.56454 0.95806 0.0
C3379 C 0.0954 0.58289 0.01809 0.0
C3380 C 0.08246 0.56593 0.0121 0.0
C3381 C 0.1015 0.5944 0.00401 0.0
C3382 C 0.09547 0.58868 0.98403 0.0
Eu3383 Eu 0.05448 0.52733 0.01287 0.0
N3384 N 0.07636 0.55466 0.0256 0.0
C3385 C 0.1021 0.58768 0.03807 0.0
C3386 C 0.08358 0.55877 0.0449 0.0
C3387 C 0.09636 0.57543 0.05149 0.0
H3388 H 0.05384 0.52168 0.96286 0.0
H3389 H 0.10189 0.57872 0.06687 0.0
H3390 H 0.00866 0.52209 0.08462 0.0
H3391 H 0.94377 0.47217 0.98587 0.0
H3392 H 0.0797 0.54906 0.0551 0.0
H3393 H 0.11206 0.60056 0.04321 0.0
H3394 H 0.96609 0.50216 0.99659 0.0
H3395 H 0.06477 0.54081 0.93732 0.0
H3396 H 0.11124 0.60757 0.00839 0.0
H3397 H 0.10073 0.5975 0.97332 0.0
H3398 H 0.00618 0.49946 0.10834 0.0
H3399 H 0.08356 0.57272 0.94676 0.0
H3400 H 0.94173 0.44686 0.00717 0.0
N3401 N 0.99574 0.50208 0.0599 0.0
C3402 C 0.98513 0.48457 0.05431 0.0
C3403 C 1.0005 0.495 0.09312 0.0
C3404 C 0.98257 0.47142 0.06792 0.0
C3405 C 1.00228 0.50773 0.07933 0.0
C3406 C 0.99095 0.47667 0.08731 0.0
N3407 N 0.97732 0.49311 0.02263 0.0
C3408 C 0.96557 0.49089 0.00554 0.0
C3409 C 0.96278 0.4629 0.03001 0.0
C3410 C 0.97539 0.48015 0.0354 0.0
C3411 C 0.95167 0.45987 0.01175 0.0
C3412 C 0.9528 0.47409 0.99964 0.0
H3413 H 0.98933 0.46696 0.09815 0.0
H3414 H 0.96906 0.4435 0.07234 0.0
H3415 H 0.95163 0.43614 0.03926 0.0
O3416 O 0.97965 0.53659 0.01854 0.0
O3417 O 0.00406 0.49532 0.01442 0.0
O3418 O 0.03632 0.4979 0.01229 0.0
O3419 O 0.9742 0.527 0.04648 0.0
O3420 O 0.01764 0.52608 0.01197 0.0
O3421 O 0.0328 0.52679 0.98705 0.0
O3422 O 0.08005 0.52008 0.02678 0.0
O3423 O 0.04588 0.55467 0.02639 0.0
O3424 O 0.01581 0.5514 0.03748 0.0
O3425 O 0.06764 0.50716 0.99747 0.0
O3426 O 0.03962 0.51693 0.038 0.0
O3427 O 0.02251 0.53082 0.05764 0.0
C3428 C 0.01904 0.48798 0.01162 0.0
C3429 C 0.96411 0.55426 0.04007 0.0
C3430 C 0.9409 0.57387 0.04091 0.0
C3431 C 0.95125 0.58462 0.05788 0.0
C3432 C 0.97416 0.56502 0.05719 0.0
C3433 C 0.96788 0.58029 0.06585 0.0
C3434 C 0.94756 0.55887 0.0318 0.0
C3435 C 0.01689 0.52674 0.9933 0.0
C3436 C 0.96918 0.53663 0.03276 0.0
C3437 C 0.97101 0.45376 0.06209 0.0
C3438 C 0.96107 0.44955 0.04324 0.0
C3439 C 0.03209 0.56159 0.03401 0.0
C3440 C 0.09992 0.50898 0.00493 0.0
C3441 C 0.12742 0.49498 0.00432 0.0
C3442 C 0.13258 0.50482 0.98865 0.0
C3443 C 0.10545 0.51901 0.9895 0.0
C3444 C 0.11113 0.49718 0.01252 0.0
C3445 C 0.12172 0.51692 0.98143 0.0
C3446 C 0.03875 0.5272 0.05432 0.0
C3447 C 0.08143 0.50866 0.01143 0.0
H3448 H 0.94626 0.59619 0.06514 0.0
H3449 H 0.98652 0.5612 0.06424 0.0
H3450 H 0.97563 0.58844 0.07911 0.0
H3451 H 0.93934 0.55019 0.01906 0.0
H3452 H 0.14502 0.50313 0.98204 0.0
H3453 H 0.09695 0.52803 0.98333 0.0
H3454 H 0.1068 0.48916 0.02423 0.0
H3455 H 0.12575 0.52444 0.96932 0.0
H3456 H 0.97901 0.16109 0.99145 0.0
H3457 H 0.04642 0.08696 0.00365 0.0
H3458 H 0.03657 0.17083 0.98027 0.0
H3459 H 0.99005 0.0761 0.01813 0.0
H3460 H 0.04263 0.11757 0.99544 0.0
H3461 H 0.98219 0.1304 0.00107 0.0
C3462 C 0.99233 0.15691 0.99089 0.0
C3463 C 0.00752 0.16903 0.98488 0.0
C3464 C 0.03103 0.10863 1.00049 0.0
C3465 C 0.01128 0.13334 0.99624 0.0
C3466 C 0.03328 0.09101 0.00544 0.0
C3467 C 0.01879 0.07872 0.01219 0.0
C3468 C 0.01394 0.11438 0.00186 0.0
C3469 C 1.0018 0.08495 0.01327 0.0
C3470 C 0.99414 0.13928 0.99655 0.0
C3471 C 0.02442 0.16248 0.98496 0.0
N3472 N 0.99987 0.10221 0.00819 0.0
N3473 N 0.02577 0.1453 0.99043 0.0
H3474 H 0.14639 0.81093 0.19777 0.0
H3475 H 0.22914 0.75412 0.21572 0.0
H3476 H 0.15446 0.76547 0.15681 0.0
H3477 H 0.22499 0.80326 0.25334 0.0
H3478 H 0.20168 0.75786 0.1942 0.0
H3479 H 0.17469 0.80823 0.2184 0.0
C3480 C 0.15406 0.80045 0.19294 0.0
C3481 C 0.14766 0.78839 0.17531 0.0
C3482 C 0.20677 0.76788 0.20714 0.0
C3483 C 0.18033 0.78502 0.19939 0.0
C3484 C 0.22263 0.76585 0.21933 0.0
C3485 C 0.22954 0.77843 0.23637 0.0
C3486 C 0.19756 0.78261 0.21196 0.0
C3487 C 0.22001 0.79301 0.2406 0.0
C3488 C 0.17026 0.79884 0.20489 0.0
C3489 C 0.15836 0.77491 0.17032 0.0
N3490 N 0.2046 0.79469 0.22856 0.0
N3491 N 0.17398 0.7736 0.18222 0.0
H3492 H 0.54312 0.87548 0.49266 0.0
H3493 H 0.48845 0.95988 0.51165 0.0
H3494 H 0.48297 0.86758 0.48402 0.0
H3495 H 0.54745 0.96826 0.50761 0.0
H3496 H 0.48621 0.92598 0.50486 0.0
H3497 H 0.54499 0.90899 0.50107 0.0
C3498 C 0.53024 0.88061 0.49238 0.0
C3499 C 0.51282 0.86819 0.48734 0.0
C3500 C 0.49967 0.93524 0.50546 0.0
C3501 C 0.51498 0.90724 0.49754 0.0
C3502 C 0.50094 0.9547 0.5095 0.0
C3503 C 0.51808 0.96727 0.51022 0.0
C3504 C 0.51573 0.928 0.50227 0.0
C3505 C 0.5338 0.95937 0.50698 0.0
C3506 C 0.53137 0.89992 0.49736 0.0
C3507 C 0.49677 0.87618 0.48795 0.0
N3508 N 0.53225 0.94045 0.50325 0.0
N3509 N 0.49826 0.895 0.49288 0.0
H3510 H 0.48365 0.27425 0.69541 0.0
H3511 H 0.3745 0.27633 0.6907 0.0
H3512 H 0.45286 0.29374 0.64778 0.0
H3513 H 0.40595 0.25899 0.73915 0.0
H3514 H 0.40357 0.2857 0.67624 0.0
H3515 H 0.45607 0.2711 0.71285 0.0
C3516 C 0.47109 0.27787 0.68858 0.0
C3517 C 0.47062 0.28408 0.66992 0.0
C3518 C 0.40421 0.28014 0.69019 0.0
C3519 C 0.43878 0.28056 0.69 0.0
C3520 C 0.38764 0.27493 0.6985 0.0
C3521 C 0.38791 0.26708 0.71621 0.0
C3522 C 0.4212 0.27725 0.69955 0.0
C3523 C 0.40521 0.26517 0.72556 0.0
C3524 C 0.45533 0.27617 0.69863 0.0
C3525 C 0.45399 0.28895 0.66211 0.0
N3526 N 0.42112 0.27008 0.71707 0.0
N3527 N 0.43874 0.28693 0.67208 0.0
H3528 H 0.00487 0.82129 0.60199 0.0
H3529 H 0.04897 0.93073 0.60485 0.0
H3530 H 0.03989 0.85467 0.65186 0.0
H3531 H 0.02981 0.89415 0.55087 0.0
H3532 H 0.03939 0.90436 0.6234 0.0
H3533 H 0.00821 0.84891 0.58416 0.0
C3534 C 0.01312 0.83447 0.60925 0.0
C3535 C 0.02227 0.83561 0.62839 0.0
C3536 C 0.03701 0.90213 0.60749 0.0
C3537 C 0.02594 0.8674 0.60817 0.0
C3538 C 0.04229 0.91723 0.59693 0.0
C3539 C 0.04001 0.91464 0.57631 0.0
C3540 C 0.02945 0.88422 0.5974 0.0
C3541 C 0.03161 0.89676 0.56676 0.0
C3542 C 0.01505 0.85022 0.59905 0.0
C3543 C 0.03281 0.85308 0.63705 0.0
N3544 N 0.02672 0.88224 0.57734 0.0
N3545 N 0.03432 0.86822 0.62693 0.0
H3546 H 0.43516 0.82177 0.82701 0.0
H3547 H 0.33677 0.75799 0.77762 0.0
H3548 H 0.42984 0.76702 0.79493 0.0
H3549 H 0.34242 0.81579 0.80086 0.0
H3550 H 0.37058 0.76104 0.78461 0.0
H3551 H 0.40167 0.81989 0.81825 0.0
C3552 C 0.42715 0.80939 0.81796 0.0
C3553 C 0.43582 0.79455 0.81178 0.0
C3554 C 0.36452 0.77312 0.78817 0.0
C3555 C 0.39671 0.79221 0.80193 0.0
C3556 C 0.34508 0.77139 0.78422 0.0
C3557 C 0.33646 0.78666 0.78862 0.0
C3558 C 0.3758 0.79022 0.79689 0.0
C3559 C 0.34828 0.80365 0.79701 0.0
C3560 C 0.40783 0.80831 0.81307 0.0
C3561 C 0.42411 0.77878 0.80044 0.0
N3562 N 0.3672 0.80493 0.80097 0.0
N3563 N 0.40536 0.77804 0.79599 0.0
H3564 H 0.54635 0.16099 0.12337 0.0
H3565 H 0.49268 0.07271 0.04762 0.0
H3566 H 0.4861 0.14588 0.11353 0.0
H3567 H 0.54801 0.07563 0.07682 0.0
H3568 H 0.49066 0.10141 0.06838 0.0
H3569 H 0.54788 0.132 0.10338 0.0
C3570 C 0.53337 0.15164 0.11726 0.0
C3571 C 0.51602 0.15621 0.1206 0.0
C3572 C 0.50321 0.09574 0.07035 0.0
C3573 C 0.51785 0.12272 0.09684 0.0
C3574 C 0.50438 0.07934 0.05847 0.0
C3575 C 0.52044 0.07153 0.06064 0.0
C3576 C 0.51841 0.10483 0.08424 0.0
C3577 C 0.53521 0.08088 0.07489 0.0
C3578 C 0.53432 0.13502 0.10565 0.0
C3579 C 0.49986 0.14342 0.11142 0.0
N3580 N 0.53392 0.09704 0.08597 0.0
N3581 N 0.50118 0.12744 0.10001 0.0
H3582 H 0.12455 0.27821 0.28364 0.0
H3583 H 0.23638 0.29659 0.31421 0.0
H3584 H 0.15276 0.30751 0.33915 0.0
H3585 H 0.20949 0.26576 0.25894 0.0
H3586 H 0.20588 0.3008 0.32298 0.0
H3587 H 0.15484 0.27363 0.27406 0.0
C3588 C 0.13697 0.28366 0.29395 0.0
C3589 C 0.13564 0.29336 0.31239 0.0
C3590 C 0.20654 0.29309 0.30891 0.0
C3591 C 0.17102 0.28815 0.30118 0.0
C3592 C 0.22411 0.29065 0.30382 0.0
C3593 C 0.22587 0.28071 0.28571 0.0
C3594 C 0.19016 0.28564 0.2959 0.0
C3595 C 0.2091 0.27346 0.27307 0.0
C3596 C 0.15442 0.28108 0.28834 0.0
C3597 C 0.15269 0.30022 0.32469 0.0
N3598 N 0.19212 0.27606 0.27836 0.0
N3599 N 0.1694 0.29747 0.31892 0.0
H3600 H 0.95901 0.04259 0.16049 0.0
H3601 H 0.02769 0.01021 0.0869 0.0
H3602 H 0.98953 0.99887 0.17028 0.0
H3603 H 0.98752 0.04379 0.07113 0.0
H3604 H 0.01595 0.00808 0.11871 0.0
H3605 H 0.97149 0.04546 0.12918 0.0
C3606 C 0.96844 0.03366 0.15616 0.0
C3607 C 0.97323 0.02049 0.1682 0.0
C3608 C 0.0097 0.01594 0.10833 0.0
C3609 C 0.98745 0.0236 0.13202 0.0
C3610 C 0.01646 0.01725 0.09018 0.0
C3611 C 0.00859 0.02723 0.07631 0.0
C3612 C 0.99506 0.02483 0.11283 0.0
C3613 C 0.99396 0.03591 0.08134 0.0
C3614 C 0.97543 0.03522 0.13815 0.0
C3615 C 0.98527 0.0091 0.16149 0.0
N3616 N 0.98771 0.03457 0.0992 0.0
N3617 N 0.99199 0.01096 0.14393 0.0
H3618 H 0.28117 0.71033 0.47879 0.0
H3619 H 0.25303 0.70759 0.36504 0.0
H3620 H 0.27646 0.66096 0.43762 0.0
H3621 H 0.26285 0.75725 0.4068 0.0
H3622 H 0.2682 0.69165 0.38974 0.0
H3623 H 0.28116 0.7291 0.45154 0.0
C3624 C 0.28042 0.70357 0.46392 0.0
C3625 C 0.27863 0.68422 0.46021 0.0
C3626 C 0.26747 0.70618 0.39336 0.0
C3627 C 0.2781 0.70531 0.42899 0.0
C3628 C 0.25888 0.71524 0.37928 0.0
C3629 C 0.25647 0.73354 0.38423 0.0
C3630 C 0.27351 0.71557 0.41239 0.0
C3631 C 0.26421 0.74298 0.4027 0.0
C3632 C 0.28044 0.71422 0.44837 0.0
C3633 C 0.27779 0.67593 0.44086 0.0
N3634 N 0.27216 0.7338 0.41625 0.0
N3635 N 0.27716 0.6865 0.42584 0.0
H3636 H 0.60316 0.00414 0.65288 0.0
H3637 H 0.55429 0.05807 0.58438 0.0
H3638 H 0.63258 0.06014 0.64819 0.0
H3639 H 0.5626 0.00366 0.56163 0.0
H3640 H 0.5806 0.06017 0.61022 0.0
H3641 H 0.58533 0.00376 0.62109 0.0
C3642 C 0.60614 0.01623 0.64508 0.0
C3643 C 0.61931 0.03225 0.6533 0.0
C3644 C 0.5768 0.048 0.59926 0.0
C3645 C 0.59854 0.03201 0.61743 0.0
C3646 C 0.56179 0.04672 0.58483 0.0
C3647 C 0.55653 0.0307 0.57114 0.0
C3648 C 0.58579 0.03283 0.6002 0.0
C3649 C 0.5665 0.01628 0.57196 0.0
C3650 C 0.59593 0.01598 0.627 0.0
C3651 C 0.62219 0.04768 0.64265 0.0
N3652 N 0.58053 0.01752 0.58659 0.0
N3653 N 0.61156 0.04734 0.62533 0.0
H3654 H 0.25234 0.31411 0.92659 0.0
H3655 H 0.31116 0.30743 0.83531 0.0
H3656 H 0.31184 0.33446 0.93026 0.0
H3657 H 0.25412 0.27813 0.83284 0.0
H3658 H 0.31095 0.3187 0.8697 0.0
H3659 H 0.25193 0.30226 0.89194 0.0
C3660 C 0.26531 0.31612 0.92016 0.0
C3661 C 0.28217 0.32527 0.93151 0.0
C3662 C 0.29846 0.30977 0.8617 0.0
C3663 C 0.28178 0.31167 0.89177 0.0
C3664 C 0.29862 0.30322 0.84201 0.0
C3665 C 0.28279 0.29148 0.83116 0.0
C3666 C 0.28222 0.30486 0.87072 0.0
C3667 C 0.26673 0.287 0.84064 0.0
C3668 C 0.26507 0.30925 0.90038 0.0
C3669 C 0.29855 0.32725 0.92231 0.0
N3670 N 0.26685 0.29371 0.85985 0.0
N3671 N 0.29791 0.32059 0.90307 0.0
H3672 H 0.96356 0.04301 0.37693 0.0
H3673 H 0.02989 0.00504 0.4567 0.0
H3674 H 0.99554 1.00126 0.36137 0.0
H3675 H 0.99006 0.03899 0.4712 0.0
H3676 H 0.01964 0.00518 0.42172 0.0
H3677 H 0.97577 0.04397 0.41137 0.0
C3678 C 0.97331 0.03416 0.38067 0.0
C3679 C 0.97844 0.02199 0.36607 0.0
C3680 C 0.01318 0.01261 0.4326 0.0
C3681 C 0.99237 0.02284 0.40584 0.0
C3682 C 0.01897 0.01246 0.45262 0.0
C3683 C 0.01075 0.02187 0.46708 0.0
C3684 C 0.99922 0.02245 0.42694 0.0
C3685 C 0.99685 0.03151 0.46072 0.0
C3686 C 0.98017 0.03461 0.40044 0.0
C3687 C 0.99094 0.01068 0.37206 0.0
N3688 N 0.99159 0.03157 0.44124 0.0
N3689 N 0.99745 0.01136 0.39143 0.0
H3690 H 0.29233 0.6799 0.65474 0.0
H3691 H 0.24939 0.75826 0.71248 0.0
H3692 H 0.2473 0.70361 0.62936 0.0
H3693 H 0.29814 0.73888 0.7358 0.0
H3694 H 0.2472 0.73682 0.68251 0.0
H3695 H 0.29368 0.70023 0.68535 0.0
C3696 C 0.28278 0.68945 0.65564 0.0
C3697 C 0.26969 0.69017 0.63961 0.0
C3698 C 0.25835 0.73722 0.69419 0.0
C3699 C 0.27102 0.71321 0.67442 0.0
C3700 C 0.25959 0.74943 0.71123 0.0
C3701 C 0.27393 0.75021 0.72646 0.0
C3702 C 0.27159 0.72584 0.69247 0.0
C3703 C 0.28682 0.73855 0.72433 0.0
C3704 C 0.28349 0.70096 0.67309 0.0
C3705 C 0.25744 0.70253 0.64152 0.0
N3706 N 0.28535 0.72679 0.70755 0.0
N3707 N 0.25842 0.71363 0.65866 0.0
H3708 H 0.5949 0.04167 0.81796 0.0
H3709 H 0.59737 0.03919 0.93262 0.0
H3710 H 0.63316 0.01564 0.8518 0.0
H3711 H 0.55816 0.0629 0.89738 0.0
H3712 H 0.60662 0.02464 0.90247 0.0
H3713 H 0.57696 0.04343 0.84573 0.0
C3714 C 0.59932 0.03609 0.83122 0.0
C3715 C 0.61564 0.02885 0.83288 0.0
C3716 C 0.59575 0.03273 0.90132 0.0
C3717 C 0.5955 0.03106 0.86475 0.0
C3718 C 0.59055 0.04102 0.91846 0.0
C3719 C 0.57735 0.05244 0.91718 0.0
C3720 C 0.58765 0.03606 0.88297 0.0
C3721 C 0.56868 0.05441 0.89874 0.0
C3722 C 0.58909 0.03704 0.84704 0.0
C3723 C 0.62068 0.02146 0.85012 0.0
N3724 N 0.57414 0.04647 0.88229 0.0
N3725 N 0.61084 0.0231 0.86561 0.0
H3726 H 0.28967 0.35902 0.14791 0.0
H3727 H 0.28892 0.27208 0.20711 0.0
H3728 H 0.2799 0.30267 0.11864 0.0
H3729 H 0.26778 0.31981 0.23019 0.0
H3730 H 0.29027 0.28459 0.17574 0.0
H3731 H 0.28639 0.34651 0.1794 0.0
C3732 C 0.28691 0.34403 0.14813 0.0
C3733 C 0.28512 0.33186 0.13063 0.0
C3734 C 0.28529 0.2923 0.18765 0.0
C3735 C 0.28148 0.31753 0.16657 0.0
C3736 C 0.28452 0.2852 0.20564 0.0
C3737 C 0.27816 0.29486 0.22145 0.0
C3738 C 0.28015 0.30947 0.18543 0.0
C3739 C 0.2728 0.31187 0.21849 0.0
C3740 C 0.2849 0.33692 0.16606 0.0
C3741 C 0.28133 0.31255 0.13175 0.0
N3742 N 0.2741 0.31874 0.20091 0.0
N3743 N 0.27984 0.30598 0.14942 0.0
H3744 H 0.2116 0.95221 0.0216 0.0
H3745 H 0.13983 0.01657 0.02219 0.0
H3746 H 0.20444 0.98395 0.97306 0.0
H3747 H 0.12907 0.96336 0.04503 0.0
H3748 H 0.16356 0.0061 0.0042 0.0
H3749 H 0.18204 0.95773 0.03162 0.0
C3750 C 0.20359 0.96024 0.01301 0.0
C3751 C 0.21023 0.96779 0.99665 0.0
C3752 C 0.15574 0.99665 0.01289 0.0
C3753 C 0.17665 0.9741 0.00789 0.0
C3754 C 0.14215 1.00255 0.02317 0.0
C3755 C 0.13252 0.99086 0.03537 0.0
C3756 C 0.16004 0.97919 0.01524 0.0
C3757 C 0.13647 0.97301 0.03627 0.0
C3758 C 0.18673 0.96324 0.01859 0.0
C3759 C 0.19959 0.97806 0.98584 0.0
N3760 N 0.15017 0.96782 0.02658 0.0
N3761 N 0.18326 0.9812 0.99185 0.0
H3762 H 0.65621 0.61189 0.98361 0.0
H3763 H 0.59579 0.53676 0.04085 0.0
H3764 H 0.67868 0.5931 0.03659 0.0
H3765 H 0.57241 0.56462 0.99506 0.0
H3766 H 0.627 0.55445 0.03746 0.0
H3767 H 0.62613 0.59157 0.98537 0.0
C3768 C 0.65488 0.60335 0.99552 0.0
C3769 C 0.66999 0.60428 0.01002 0.0
C3770 C 0.61501 0.5566 0.02814 0.0
C3771 C 0.63547 0.58105 0.01224 0.0
C3772 C 0.59723 0.54647 0.03002 0.0
C3773 C 0.58146 0.54925 0.01828 0.0
C3774 C 0.61701 0.56945 0.0143 0.0
C3775 C 0.58412 0.56209 0.00453 0.0
C3776 C 0.63765 0.59184 0.9966 0.0
C3777 C 0.66734 0.59302 0.02524 0.0
N3778 N 0.60151 0.57167 0.00293 0.0
N3779 N 0.65042 0.58189 0.02597 0.0
H3780 H 0.67546 0.45136 0.25017 0.0
H3781 H 0.72584 0.37694 0.29559 0.0
H3782 H 0.69768 0.46054 0.31164 0.0
H3783 H 0.72433 0.38661 0.23485 0.0
H3784 H 0.71469 0.4062 0.30314 0.0
H3785 H 0.69148 0.42568 0.24541 0.0
C3786 C 0.68392 0.44817 0.26269 0.0
C3787 C 0.68554 0.45853 0.28127 0.0
C3788 C 0.71712 0.40202 0.28826 0.0
C3789 C 0.70359 0.42843 0.27592 0.0
C3790 C 0.72347 0.38542 0.28396 0.0
C3791 C 0.7256 0.3793 0.26452 0.0
C3792 C 0.71288 0.41235 0.27293 0.0
C3793 C 0.72242 0.39067 0.24994 0.0
C3794 C 0.69303 0.43338 0.25994 0.0
C3795 C 0.69605 0.45299 0.29705 0.0
N3796 N 0.71603 0.40653 0.2544 0.0
N3797 N 0.70468 0.43823 0.29404 0.0
H3798 H 0.8783 0.51072 0.50333 0.0
H3799 H 0.97981 0.49588 0.53874 0.0
H3800 H 0.89091 0.47535 0.54724 0.0
H3801 H 0.9689 0.53469 0.49824 0.0
H3802 H 0.94732 0.49084 0.54469 0.0
H3803 H 0.91167 0.52312 0.50436 0.0
C3804 C 0.88804 0.50586 0.51346 0.0
C3805 C 0.88187 0.4917 0.52489 0.0
C3806 C 0.95203 0.50055 0.53456 0.0
C3807 C 0.91979 0.50574 0.52618 0.0
C3808 C 0.97058 0.50341 0.53121 0.0
C3809 C 0.97705 0.516 0.51838 0.0
C3810 C 0.9398 0.50992 0.52443 0.0
C3811 C 0.96446 0.52508 0.50851 0.0
C3812 C 0.90705 0.51294 0.51407 0.0
C3813 C 0.89498 0.48623 0.53814 0.0
N3814 N 0.94631 0.52174 0.51162 0.0
N3815 N 0.91338 0.49307 0.53818 0.0
H3816 H 0.35618 0.11498 0.31643 0.0
H3817 H 0.27069 0.15061 0.26282 0.0
H3818 H 0.30083 0.08108 0.30172 0.0
H3819 H 0.32856 0.1702 0.25618 0.0
H3820 H 0.28025 0.13101 0.28731 0.0
H3821 H 0.34426 0.14191 0.30606 0.0
C3822 C 0.34136 0.11346 0.31184 0.0
C3823 C 0.32944 0.0959 0.30958 0.0
C3824 C 0.29082 0.13975 0.28061 0.0
C3825 C 0.31594 0.12619 0.29741 0.0
C3826 C 0.28539 0.1507 0.26659 0.0
C3827 C 0.29891 0.16141 0.25723 0.0
C3828 C 0.30987 0.1399 0.28543 0.0
C3829 C 0.3178 0.16162 0.26278 0.0
C3830 C 0.33463 0.12871 0.30572 0.0
C3831 C 0.3104 0.09447 0.30342 0.0
N3832 N 0.32276 0.15089 0.27651 0.0
N3833 N 0.30425 0.10939 0.29715 0.0
H3834 H 0.36463 0.14321 0.53606 0.0
H3835 H 0.4045 0.05066 0.5177 0.0
H3836 H 0.33717 0.09738 0.49241 0.0
H3837 H 0.43484 0.10107 0.55298 0.0
H3838 H 0.3815 0.0682 0.50475 0.0
H3839 H 0.39186 0.12882 0.53962 0.0
C3840 C 0.36438 0.1301 0.52717 0.0
C3841 C 0.3485 0.12132 0.51418 0.0
C3842 C 0.39344 0.07553 0.51494 0.0
C3843 C 0.37975 0.10465 0.51814 0.0
C3844 C 0.40661 0.06556 0.52218 0.0
C3845 C 0.42146 0.07452 0.53639 0.0
C3846 C 0.39516 0.09448 0.52221 0.0
C3847 C 0.42351 0.09373 0.54203 0.0
C3848 C 0.38 0.12193 0.52909 0.0
C3849 C 0.34911 0.10456 0.50269 0.0
N3850 N 0.41038 0.103 0.53513 0.0
N3851 N 0.36438 0.09659 0.50515 0.0
H3852 H 0.67846 0.64173 0.266 0.0
H3853 H 0.77015 0.71835 0.30654 0.0
H3854 H 0.72002 0.63075 0.30987 0.0
H3855 H 0.73654 0.71763 0.25141 0.0
H3856 H 0.75196 0.68715 0.30985 0.0
H3857 H 0.69886 0.67107 0.2628 0.0
C3858 C 0.69197 0.64538 0.27487 0.0
C3859 C 0.6976 0.63349 0.28799 0.0
C3860 C 0.74865 0.69384 0.29701 0.0
C3861 C 0.72105 0.66755 0.28464 0.0
C3862 C 0.75904 0.71152 0.2951 0.0
C3863 C 0.75437 0.72063 0.27895 0.0
C3864 C 0.73357 0.68547 0.28267 0.0
C3865 C 0.74 0.71134 0.26445 0.0
C3866 C 0.70361 0.66224 0.27308 0.0
C3867 C 0.71504 0.63945 0.29959 0.0
N3868 N 0.73 0.69436 0.26673 0.0
N3869 N 0.72618 0.65609 0.29765 0.0
H3870 H 0.83876 0.41368 0.75933 0.0
H3871 H 0.76616 0.33302 0.79108 0.0
H3872 H 0.79373 0.42514 0.79138 0.0
H3873 H 0.82322 0.32879 0.78445 0.0
H3874 H 0.77419 0.36622 0.78915 0.0
H3875 H 0.82977 0.38079 0.76318 0.0
C3876 C 0.82662 0.40917 0.76666 0.0
C3877 C 0.81694 0.42199 0.77514 0.0
C3878 C 0.78498 0.35803 0.78839 0.0
C3879 C 0.80728 0.38489 0.78031 0.0
C3880 C 0.78048 0.33913 0.78972 0.0
C3881 C 0.79399 0.32819 0.78764 0.0
C3882 C 0.80293 0.36575 0.78455 0.0
C3883 C 0.8123 0.33676 0.78567 0.0
C3884 C 0.82182 0.39053 0.76925 0.0
C3885 C 0.80154 0.41555 0.78478 0.0
N3886 N 0.81621 0.35516 0.7838 0.0
N3887 N 0.79725 0.39731 0.78731 0.0
H3888 H 0.02041 0.8723 0.04259 0.0
H3889 H 0.0571 0.98415 0.06014 0.0
H3890 H 0.07144 0.89889 0.07935 0.0
H3891 H 0.01496 0.95678 0.01281 0.0
H3892 H 0.0614 0.95345 0.06855 0.0
H3893 H 0.01681 0.90291 0.03316 0.0
C3894 C 0.03089 0.88448 0.0488 0.0
C3895 C 0.0463 0.8826 0.06194 0.0
C3896 C 0.0511 0.95411 0.05637 0.0
C3897 C 0.04213 0.91832 0.05097 0.0
C3898 C 0.04857 0.97177 0.0515 0.0
C3899 C 0.03531 0.97347 0.0358 0.0
C3900 C 0.04014 0.93761 0.04573 0.0
C3901 C 0.02501 0.95655 0.02523 0.0
C3902 C 0.02884 0.90207 0.04325 0.0
C3903 C 0.0594 0.89926 0.06907 0.0
N3904 N 0.0275 0.93953 0.03045 0.0
N3905 N 0.05695 0.91621 0.06365 0.0
H3906 H 0.92131 0.27971 0.85186 0.0
H3907 H 0.80891 0.25206 0.83134 0.0
H3908 H 0.88879 0.24279 0.886 0.0
H3909 H 0.84401 0.28496 0.7958 0.0
H3910 H 0.8372 0.24872 0.85206 0.0
H3911 H 0.89267 0.2817 0.83165 0.0
C3912 C 0.90814 0.27205 0.85521 0.0
C3913 C 0.90764 0.26116 0.87087 0.0
C3914 C 0.83866 0.25654 0.83962 0.0
C3915 C 0.8743 0.26337 0.84744 0.0
C3916 C 0.82248 0.25851 0.82777 0.0
C3917 C 0.82386 0.26872 0.81154 0.0
C3918 C 0.85648 0.26479 0.83526 0.0
C3919 C 0.84198 0.27674 0.80786 0.0
C3920 C 0.89169 0.27314 0.84354 0.0
C3921 C 0.88999 0.25129 0.87408 0.0
N3922 N 0.85738 0.2746 0.8195 0.0
N3923 N 0.87408 0.25272 0.8626 0.0
H3924 H 0.56483 0.1856 0.54056 0.0
H3925 H 0.51659 0.08239 0.56141 0.0
H3926 H 0.52343 0.17483 0.58024 0.0
H3927 H 0.55791 0.09159 0.52141 0.0
H3928 H 0.51926 0.11613 0.56829 0.0
H3929 H 0.56266 0.15171 0.53308 0.0
C3930 C 0.55532 0.17618 0.54779 0.0
C3931 C 0.54429 0.18334 0.5611 0.0
C3932 C 0.52784 0.11086 0.55805 0.0
C3933 C 0.54183 0.14413 0.55261 0.0
C3934 C 0.52634 0.09145 0.55408 0.0
C3935 C 0.53716 0.08382 0.54085 0.0
C3936 C 0.54021 0.12315 0.54872 0.0
C3937 C 0.54952 0.09661 0.53196 0.0
C3938 C 0.55407 0.15674 0.54345 0.0
C3939 C 0.53208 0.17018 0.56972 0.0
N3940 N 0.55066 0.11551 0.53598 0.0
N3941 N 0.53126 0.15142 0.56542 0.0
H3942 H 0.59019 0.74488 0.37422 0.0
H3943 H 0.66747 0.82235 0.33771 0.0
H3944 H 0.59159 0.80427 0.38183 0.0
H3945 H 0.66006 0.76388 0.31645 0.0
H3946 H 0.64244 0.81494 0.35812 0.0
H3947 H 0.61752 0.75058 0.35625 0.0
C3948 C 0.5961 0.7591 0.37214 0.0
C3949 C 0.58836 0.7741 0.37979 0.0
C3950 C 0.64624 0.80365 0.34906 0.0
C3951 C 0.62009 0.7807 0.35945 0.0
C3952 C 0.66062 0.80789 0.33745 0.0
C3953 C 0.66579 0.79376 0.32521 0.0
C3954 C 0.63668 0.78508 0.34847 0.0
C3955 C 0.65655 0.77521 0.32569 0.0
C3956 C 0.61184 0.76233 0.36195 0.0
C3957 C 0.59706 0.7922 0.37674 0.0
N3958 N 0.64232 0.77141 0.33698 0.0
N3959 N 0.61233 0.79493 0.36693 0.0
H3960 H 0.05493 0.20467 0.40465 0.0
H3961 H 1.00003 0.14969 0.48332 0.0
H3962 H 0.01455 0.22575 0.4372 0.0
H3963 H 0.03603 0.12556 0.44725 0.0
H3964 H 0.00849 0.17923 0.46954 0.0
H3965 H 0.05116 0.17722 0.42253 0.0
C3966 C 0.04539 0.20366 0.41567 0.0
C3967 C 0.03495 0.21761 0.41924 0.0
C3968 C 0.01473 0.16758 0.46473 0.0
C3969 C 0.03051 0.186 0.43983 0.0
C3970 C 0.01 0.15077 0.47272 0.0
C3971 C 0.01746 0.13524 0.46651 0.0
C3972 C 0.02684 0.16888 0.45015 0.0
C3973 C 0.03015 0.13729 0.45258 0.0
C3974 C 0.04318 0.18789 0.42582 0.0
C3975 C 0.02268 0.21529 0.43362 0.0
N3976 N 0.03432 0.15372 0.44475 0.0
N3977 N 0.0208 0.19987 0.44329 0.0
H3978 H 0.6241 0.2786 0.26315 0.0
H3979 H 0.72028 0.25076 0.23389 0.0
H3980 H 0.62733 0.24343 0.21009 0.0
H3981 H 0.71768 0.2874 0.28589 0.0
H3982 H 0.68628 0.2474 0.22534 0.0
H3983 H 0.65784 0.28153 0.27202 0.0
C3984 C 0.63177 0.27152 0.25325 0.0
C3985 C 0.62239 0.26069 0.23573 0.0
C3986 C 0.69306 0.25611 0.23869 0.0
C3987 C 0.66169 0.26397 0.24607 0.0
C3988 C 0.71253 0.258 0.24359 0.0
C3989 C 0.72193 0.26936 0.26066 0.0
C3990 C 0.68266 0.26554 0.251 0.0
C3991 C 0.71107 0.27851 0.27258 0.0
C3992 C 0.65118 0.27315 0.25843 0.0
C3993 C 0.63352 0.25171 0.22387 0.0
N3994 N 0.69217 0.27639 0.26758 0.0
N3995 N 0.65234 0.25357 0.2292 0.0
H3996 H 0.56501 0.89586 0.94735 0.0
H3997 H 0.50528 0.97581 0.96724 0.0
H3998 H 0.51614 0.90062 0.90928 0.0
H3999 H 0.55724 0.97514 0.00193 0.0
H4000 H 0.50905 0.94824 0.946 0.0
H4001 H 0.56252 0.92453 0.96753 0.0
C4002 C 0.55381 0.90288 0.94306 0.0
C4003 C 0.54072 0.89543 0.92643 0.0
C4004 C 0.5197 0.95413 0.95821 0.0
C4005 C 0.53763 0.92849 0.94996 0.0
C4006 C 0.51763 0.97007 0.97023 0.0
C4007 C 0.53101 0.97799 0.98636 0.0
C4008 C 0.53524 0.94583 0.96232 0.0
C4009 C 0.54641 0.96938 0.98988 0.0
C4010 C 0.55234 0.91928 0.95476 0.0
C4011 C 0.5264 0.90533 0.92207 0.0
N4012 N 0.54809 0.95384 0.97804 0.0
N4013 N 0.52524 0.92116 0.9337 0.0
H4014 H 0.92967 0.75836 0.76466 0.0
H4015 H 0.82142 0.75763 0.72954 0.0
H4016 H 0.90824 0.7592 0.70427 0.0
H4017 H 0.84634 0.77771 0.78902 0.0
H4018 H 0.85229 0.75453 0.72065 0.0
H4019 H 0.89896 0.76181 0.77434 0.0
C4020 C 0.91857 0.75916 0.75336 0.0
C4021 C 0.9219 0.75852 0.73351 0.0
C4022 C 0.85108 0.75965 0.73566 0.0
C4023 C 0.8862 0.76234 0.74466 0.0
C4024 C 0.83332 0.76138 0.74082 0.0
C4025 C 0.83097 0.76803 0.76014 0.0
C4026 C 0.86693 0.76424 0.7499 0.0
C4027 C 0.84725 0.77263 0.77393 0.0
C4028 C 0.90098 0.76126 0.75897 0.0
C4029 C 0.9067 0.75981 0.71975 0.0
N4030 N 0.86435 0.77055 0.76861 0.0
N4031 N 0.8897 0.76149 0.72552 0.0
H4032 H 0.06256 0.05021 0.87313 0.0
H4033 H 0.06842 0.00956 0.97676 0.0
H4034 H 0.09808 0.01182 0.88804 0.0
H4035 H 0.02686 0.0405 0.95765 0.0
H4036 H 0.08038 0.01116 0.9449 0.0
H4037 H 0.05026 0.04788 0.90464 0.0
C4038 C 0.06781 0.04132 0.88304 0.0
C4039 C 0.0814 0.03121 0.87787 0.0
C4040 C 0.06863 0.01758 0.94768 0.0
C4041 C 0.06729 0.02841 0.91404 0.0
C4042 C 0.06183 0.0167 0.96588 0.0
C4043 C 0.04661 0.02488 0.96987 0.0
C4044 C 0.06027 0.02688 0.93344 0.0
C4045 C 0.03857 0.03391 0.95519 0.0
C4046 C 0.0607 0.03991 0.901 0.0
C4047 C 0.08747 0.01971 0.89125 0.0
N4048 N 0.04553 0.03473 0.9377 0.0
N4049 N 0.08044 0.01869 0.90872 0.0
H4050 H 0.7673 0.38337 0.60564 0.0
H4051 H 0.80168 0.29394 0.64091 0.0
H4052 H 0.78825 0.34276 0.56912 0.0
H4053 H 0.79501 0.34039 0.68122 0.0
H4054 H 0.78734 0.30754 0.61386 0.0
H4055 H 0.76889 0.36406 0.63272 0.0
C4056 C 0.77187 0.37021 0.60327 0.0
C4057 C 0.77786 0.36464 0.58534 0.0
C4058 C 0.78874 0.31466 0.62865 0.0
C4059 C 0.7796 0.34265 0.61585 0.0
C4060 C 0.79687 0.30687 0.64404 0.0
C4061 C 0.79979 0.31629 0.66312 0.0
C4062 C 0.78381 0.33214 0.63235 0.0
C4063 C 0.79308 0.33284 0.66659 0.0
C4064 C 0.77282 0.35927 0.61866 0.0
C4065 C 0.78374 0.34759 0.58287 0.0
N4066 N 0.7857 0.3405 0.65123 0.0
N4067 N 0.78458 0.33727 0.598 0.0
H4068 H 0.42298 0.03448 0.40793 0.0
H4069 H 0.51681 0.01367 0.45696 0.0
H4070 H 0.46555 0.01882 0.37477 0.0
H4071 H 0.48361 0.04596 0.48907 0.0
H4072 H 0.49899 0.01709 0.42657 0.0
H4073 H 0.44525 0.04003 0.43791 0.0
C4074 C 0.43712 0.03245 0.40703 0.0
C4075 C 0.44254 0.02594 0.38916 0.0
C4076 C 0.49572 0.02363 0.44023 0.0
C4077 C 0.46786 0.03229 0.42293 0.0
C4078 C 0.506 0.02177 0.45764 0.0
C4079 C 0.50183 0.02966 0.47561 0.0
C4080 C 0.4807 0.03284 0.44082 0.0
C4081 C 0.48723 0.03954 0.47554 0.0
C4082 C 0.4498 0.03568 0.42402 0.0
C4083 C 0.46087 0.02346 0.38849 0.0
N4084 N 0.47697 0.04063 0.45836 0.0
N4085 N 0.47291 0.02652 0.40523 0.0
H4086 H 0.79553 0.7137 0.12724 0.0
H4087 H 0.75365 0.77772 0.20579 0.0
H4088 H 0.75245 0.74388 0.11088 0.0
H4089 H 0.79143 0.74151 0.22109 0.0
H4090 H 0.75454 0.76758 0.17091 0.0
H4091 H 0.79605 0.72615 0.16152 0.0
C4092 C 0.7863 0.72311 0.13078 0.0
C4093 C 0.77391 0.72768 0.11601 0.0
C4094 C 0.76264 0.76189 0.18194 0.0
C4095 C 0.77423 0.74186 0.15557 0.0
C4096 C 0.76213 0.76767 0.20188 0.0
C4097 C 0.77236 0.76037 0.21651 0.0
C4098 C 0.77358 0.74884 0.17655 0.0
C4099 C 0.78321 0.74748 0.21044 0.0
C4100 C 0.7865 0.73011 0.15045 0.0
C4101 C 0.76207 0.73974 0.12172 0.0
N4102 N 0.78352 0.74216 0.19103 0.0
N4103 N 0.76251 0.74638 0.14099 0.0
H4104 H 0.09559 0.05849 0.67798 0.0
H4105 H 0.02655 1.00296 0.58417 0.0
H4106 H 0.05934 0.00509 0.67917 0.0
H4107 H 0.06273 0.05652 0.58407 0.0
H4108 H 0.03817 0.00333 0.61881 0.0
H4109 H 0.08319 0.05807 0.64376 0.0
C4110 C 0.08489 0.04672 0.67115 0.0
C4111 C 0.07848 0.03184 0.68168 0.0
C4112 C 0.0435 0.01505 0.61124 0.0
C4113 C 0.06438 0.03113 0.64203 0.0
C4114 C 0.03689 0.01485 0.59142 0.0
C4115 C 0.04349 0.02988 0.58119 0.0
C4116 C 0.05688 0.03037 0.62095 0.0
C4117 C 0.05695 0.04483 0.59139 0.0
C4118 C 0.0779 0.04643 0.65148 0.0
C4119 C 0.06488 0.0168 0.67169 0.0
N4120 N 0.06316 0.0447 0.61065 0.0
N4121 N 0.0583 0.01684 0.65248 0.0
H4122 H 0.81221 0.38008 0.39667 0.0
H4123 H 0.75128 0.30472 0.31283 0.0
H4124 H 0.75713 0.34975 0.40321 0.0
H4125 H 0.81003 0.30721 0.32884 0.0
H4126 H 0.75235 0.33039 0.33904 0.0
H4127 H 0.81027 0.36184 0.36457 0.0
C4128 C 0.79971 0.36965 0.39139 0.0
C4129 C 0.78496 0.36616 0.40284 0.0
C4130 C 0.76506 0.3256 0.3364 0.0
C4131 C 0.78248 0.34602 0.366 0.0
C4132 C 0.76449 0.31116 0.32153 0.0
C4133 C 0.78069 0.30437 0.31874 0.0
C4134 C 0.78198 0.33314 0.34828 0.0
C4135 C 0.79739 0.31245 0.33059 0.0
C4136 C 0.79858 0.35947 0.37303 0.0
C4137 C 0.76882 0.35297 0.3949 0.0
N4138 N 0.79765 0.32657 0.34494 0.0
N4139 N 0.76804 0.34326 0.37694 0.0
H4140 H 0.4544 0.04415 0.21966 0.0
H4141 H 0.46033 0.98873 0.11552 0.0
H4142 H 0.41104 0.99942 0.18929 0.0
H4143 H 0.50818 0.01832 0.15539 0.0
H4144 H 0.43978 1.00063 0.13752 0.0
H4145 H 0.47171 0.04259 0.19116 0.0
C4146 C 0.44841 0.03424 0.20684 0.0
C4147 C 0.43149 0.02167 0.20683 0.0
C4148 C 0.45479 0.00478 0.14124 0.0
C4149 C 0.45106 0.01982 0.17444 0.0
C4150 C 0.46644 0.99805 0.12874 0.0
C4151 C 0.48582 1.00233 0.13405 0.0
C4152 C 0.4627 0.01591 0.15897 0.0
C4153 C 0.49323 0.01449 0.15114 0.0
C4154 C 0.45827 0.03333 0.19066 0.0
C4155 C 0.42427 0.00907 0.18994 0.0
N4156 N 0.48163 0.02075 0.16315 0.0
N4157 N 0.43419 0.00834 0.17444 0.0
H4158 H 0.7917 0.70477 0.90927 0.0
H4159 H 0.76306 0.77814 0.83926 0.0
H4160 H 0.75394 0.74127 0.92329 0.0
H4161 H 0.79292 0.73542 0.82085 0.0
H4162 H 0.76147 0.76622 0.87099 0.0
H4163 H 0.79433 0.71736 0.87794 0.0
C4164 C 0.78405 0.71553 0.90586 0.0
C4165 C 0.77257 0.72195 0.91904 0.0
C4166 C 0.76841 0.75945 0.86005 0.0
C4167 C 0.77541 0.73631 0.88294 0.0
C4168 C 0.76939 0.7663 0.84193 0.0
C4169 C 0.77819 0.75779 0.82736 0.0
C4170 C 0.7764 0.74403 0.8638 0.0
C4171 C 0.78598 0.74238 0.83163 0.0
C4172 C 0.78546 0.72261 0.88786 0.0
C4173 C 0.76279 0.73571 0.91356 0.0
N4174 N 0.78495 0.73604 0.84947 0.0
N4175 N 0.76446 0.74244 0.89599 0.0
H4176 H 0.86533 0.09744 0.07183 0.0
H4177 H 0.90829 0.02415 0.00689 0.0
H4178 H 0.83219 0.04948 0.03456 0.0
H4179 H 0.93382 0.0824 0.02273 0.0
H4180 H 0.88355 0.02839 0.0273 0.0
H4181 H 0.89368 0.08629 0.06479 0.0
C4182 C 0.86405 0.0842 0.06277 0.0
C4183 C 0.84663 0.07441 0.05349 0.0
C4184 C 0.89477 0.04012 0.02654 0.0
C4185 C 0.87862 0.06184 0.04527 0.0
C4186 C 0.90879 0.03775 0.01492 0.0
C4187 C 0.9228 0.05308 0.01294 0.0
C4188 C 0.89498 0.05787 0.03633 0.0
C4189 C 0.92298 0.07038 0.02362 0.0
C4190 C 0.88016 0.07795 0.05865 0.0
C4191 C 0.84553 0.05744 0.04174 0.0
N4192 N 0.90915 0.07236 0.03479 0.0
N4193 N 0.86141 0.05178 0.03768 0.0
H4194 H 0.37677 0.46111 0.01275 0.0
H4195 H 0.48498 0.48608 0.05599 0.0
H4196 H 0.39992 0.43832 0.06275 0.0
H4197 H 0.46146 0.51456 0.01091 0.0
H4198 H 0.45372 0.469 0.05895 0.0
H4199 H 0.40735 0.48106 0.01192 0.0
C4200 C 0.38827 0.46028 0.02356 0.0
C4201 C 0.38573 0.44791 0.0378 0.0
C4202 C 0.45531 0.47907 0.0485 0.0
C4203 C 0.42082 0.47085 0.03698 0.0
C4204 C 0.47319 0.48884 0.04679 0.0
C4205 C 0.47586 0.50178 0.03317 0.0
C4206 C 0.43988 0.48205 0.03636 0.0
C4207 C 0.46004 0.50483 0.02171 0.0
C4208 C 0.40571 0.47178 0.02314 0.0
C4209 C 0.40111 0.44771 0.05161 0.0
N4210 N 0.44273 0.49492 0.02344 0.0
N4211 N 0.41797 0.45889 0.05077 0.0
H4212 H 0.35106 0.58389 0.7423 0.0
H4213 H 0.34508 0.67682 0.8107 0.0
H4214 H 0.39301 0.61072 0.79026 0.0
H4215 H 0.30216 0.64954 0.76407 0.0
H4216 H 0.36496 0.65524 0.80026 0.0
H4217 H 0.33506 0.61011 0.74687 0.0
C4218 C 0.35703 0.59539 0.75365 0.0
C4219 C 0.37325 0.59494 0.76613 0.0
C4220 C 0.35127 0.65404 0.79215 0.0
C4221 C 0.35491 0.62493 0.77155 0.0
C4222 C 0.34 0.66637 0.79809 0.0
C4223 C 0.32204 0.66475 0.78824 0.0
C4224 C 0.34438 0.63985 0.77642 0.0
C4225 C 0.31597 0.65109 0.772 0.0
C4226 C 0.34784 0.61032 0.7563 0.0
C4227 C 0.3803 0.61023 0.78061 0.0
N4228 N 0.32705 0.639 0.76669 0.0
N4229 N 0.37102 0.62449 0.78301 0.0
H4230 H 0.17812 0.5534 0.56962 0.0
H4231 H 0.08172 0.52894 0.50004 0.0
H4232 H 0.17501 0.55769 0.50736 0.0
H4233 H 0.08765 0.55231 0.56078 0.0
H4234 H 0.11584 0.53309 0.5019 0.0
H4235 H 0.14406 0.54417 0.56607 0.0
C4236 C 0.17028 0.55195 0.55516 0.0
C4237 C 0.17923 0.55657 0.53882 0.0
C4238 C 0.10962 0.53732 0.51478 0.0
C4239 C 0.14076 0.54631 0.53476 0.0
C4240 C 0.09035 0.53518 0.51364 0.0
C4241 C 0.08235 0.54038 0.53031 0.0
C4242 C 0.12053 0.5442 0.53284 0.0
C4243 C 0.09365 0.5481 0.54777 0.0
C4244 C 0.15096 0.54686 0.55319 0.0
C4245 C 0.16861 0.5542 0.52032 0.0
N4246 N 0.11235 0.54966 0.54869 0.0
N4247 N 0.14978 0.54946 0.51881 0.0
H4248 H 0.75309 0.96833 0.74863 0.0
H4249 H 0.71902 0.8713 0.7846 0.0
H4250 H 0.69615 0.93806 0.73575 0.0
H4251 H 0.77716 0.89401 0.78148 0.0
H4252 H 0.71036 0.89437 0.76411 0.0
H4253 H 0.76276 0.93968 0.75689 0.0
C4254 C 0.74279 0.95542 0.74694 0.0
C4255 C 0.7239 0.95529 0.74157 0.0
C4256 C 0.72501 0.89411 0.76766 0.0
C4257 C 0.73451 0.92293 0.7517 0.0
C4258 C 0.72993 0.88113 0.77954 0.0
C4259 C 0.7488 0.88096 0.78489 0.0
C4260 C 0.7391 0.90712 0.76138 0.0
C4261 C 0.76243 0.8937 0.77767 0.0
C4262 C 0.74822 0.93913 0.75174 0.0
C4263 C 0.71088 0.93847 0.73976 0.0
N4264 N 0.75731 0.90644 0.76646 0.0
N4265 N 0.71637 0.92295 0.74526 0.0
H4266 H 0.68904 0.90756 0.51425 0.0
H4267 H 0.65981 0.00635 0.53356 0.0
H4268 H 0.72304 0.95487 0.55186 0.0
H4269 H 0.62233 0.95767 0.50218 0.0
H4270 H 0.68201 0.98679 0.54284 0.0
H4271 H 0.66347 0.92464 0.5116 0.0
C4272 C 0.6911 0.92153 0.52197 0.0
C4273 C 0.70827 0.9299 0.53311 0.0
C4274 C 0.66885 0.98027 0.53415 0.0
C4275 C 0.67909 0.9495 0.53019 0.0
C4276 C 0.6562 0.99143 0.52893 0.0
C4277 C 0.63936 0.98352 0.51716 0.0
C4278 C 0.66475 0.9611 0.52719 0.0
C4279 C 0.63523 0.96419 0.51136 0.0
C4280 C 0.67647 0.93122 0.52057 0.0
C4281 C 0.71005 0.94787 0.54315 0.0
N4282 N 0.64797 0.95362 0.51623 0.0
N4283 N 0.69573 0.95713 0.54128 0.0
H4284 H 0.36796 0.40225 0.73686 0.0
H4285 H 0.28968 0.34221 0.79089 0.0
H4286 H 0.34106 0.42648 0.78296 0.0
H4287 H 0.31765 0.31881 0.74524 0.0
H4288 H 0.307 0.37343 0.7872 0.0
H4289 H 0.34827 0.37183 0.73862 0.0
C4290 C 0.35778 0.40123 0.74722 0.0
C4291 C 0.35625 0.41699 0.75983 0.0
C4292 C 0.30926 0.36145 0.77794 0.0
C4293 C 0.33369 0.38203 0.76209 0.0
C4294 C 0.2993 0.34363 0.77998 0.0
C4295 C 0.30214 0.32782 0.76834 0.0
C4296 C 0.32219 0.36348 0.76419 0.0
C4297 C 0.315 0.33052 0.75461 0.0
C4298 C 0.34659 0.3838 0.74831 0.0
C4299 C 0.34294 0.41468 0.77315 0.0
N4300 N 0.32454 0.34794 0.75296 0.0
N4301 N 0.33223 0.39756 0.77396 0.0
H4302 H 0.26388 0.63542 0.27042 0.0
H4303 H 0.23898 0.72798 0.24108 0.0
H4304 H 0.22146 0.63754 0.22293 0.0
H4305 H 0.29007 0.72637 0.27693 0.0
H4306 H 0.23567 0.69483 0.22943 0.0
H4307 H 0.277 0.66837 0.26919 0.0
C4308 C 0.25753 0.64273 0.25955 0.0
C4309 C 0.24144 0.63382 0.24695 0.0
C4310 C 0.24794 0.70179 0.23938 0.0
C4311 C 0.25632 0.67132 0.24536 0.0
C4312 C 0.2498 0.72065 0.24591 0.0
C4313 C 0.26487 0.72958 0.25968 0.0
C4314 C 0.26088 0.69185 0.24742 0.0
C4315 C 0.27838 0.71973 0.26606 0.0
C4316 C 0.26512 0.66147 0.25869 0.0
C4317 C 0.23393 0.64381 0.23289 0.0
N4318 N 0.27592 0.70119 0.26012 0.0
N4319 N 0.24126 0.66211 0.23269 0.0
H4320 H 0.53145 0.68025 0.50873 0.0
H4321 H 0.49716 0.56815 0.48683 0.0
H4322 H 0.48761 0.65249 0.46301 0.0
H4323 H 0.54022 0.59462 0.53366 0.0
H4324 H 0.49343 0.5989 0.47853 0.0
H4325 H 0.53501 0.64966 0.51817 0.0
C4326 C 0.52256 0.66785 0.50053 0.0
C4327 C 0.50915 0.66941 0.48486 0.0
C4328 C 0.50374 0.59809 0.49063 0.0
C4329 C 0.51317 0.63372 0.49601 0.0
C4330 C 0.50584 0.58036 0.4955 0.0
C4331 C 0.51904 0.57837 0.51108 0.0
C4332 C 0.515 0.61442 0.50124 0.0
C4333 C 0.52995 0.59512 0.52145 0.0
C4334 C 0.52457 0.65025 0.5061 0.0
C4335 C 0.49797 0.65243 0.47531 0.0
N4336 N 0.52773 0.61227 0.51635 0.0
N4337 N 0.50027 0.63555 0.48095 0.0
H4338 H 0.66183 0.31897 0.6771 0.0
H4339 H 0.71477 0.25453 0.74139 0.0
H4340 H 0.64042 0.26044 0.67942 0.0
H4341 H 0.74208 0.30901 0.73012 0.0
H4342 H 0.68695 0.2573 0.72001 0.0
H4343 H 0.69028 0.31668 0.69799 0.0
C4344 C 0.66298 0.30564 0.682 0.0
C4345 C 0.64848 0.28986 0.6762 0.0
C4346 C 0.69896 0.26872 0.72219 0.0
C4347 C 0.68141 0.28714 0.70028 0.0
C4348 C 0.71489 0.26716 0.73449 0.0
C4349 C 0.73085 0.28158 0.7377 0.0
C4350 C 0.69862 0.28502 0.71315 0.0
C4351 C 0.73017 0.2975 0.72805 0.0
C4352 C 0.67938 0.30433 0.69385 0.0
C4353 C 0.65115 0.27297 0.68305 0.0
N4354 N 0.71432 0.29887 0.71641 0.0
N4355 N 0.66711 0.27211 0.69466 0.0
H4356 H 0.98154 0.36806 0.97043 0.0
H4357 H 0.04569 0.46686 0.0177 0.0
H4358 H 0.03641 0.37373 0.00229 0.0
H4359 H 0.98754 0.46095 0.99587 0.0
H4360 H 0.04261 0.43304 0.01106 0.0
H4361 H 0.9834 0.40163 0.97879 0.0
C4362 C 0.99394 0.37619 0.97935 0.0
C4363 C 0.00885 0.36764 0.98557 0.0
C4364 C 0.03045 0.43905 0.00776 0.0
C4365 C 0.01116 0.40675 0.99496 0.0
C4366 C 0.0322 0.4585 0.01147 0.0
C4367 C 0.01682 0.46704 0.00742 0.0
C4368 C 0.0132 0.42768 0.99964 0.0
C4369 C 0.99973 0.45515 0.99951 0.0
C4370 C 0.99501 0.39553 0.98402 0.0
C4371 C 0.02463 0.37942 0.99677 0.0
N4372 N 0.99841 0.43621 0.99579 0.0
N4373 N 0.02536 0.39819 0.00099 0.0
H4374 H 0.95667 0.75097 0.15304 0.0
H4375 H 0.90011 0.79627 0.2326 0.0
H4376 H 0.97343 0.80803 0.18053 0.0
H4377 H 0.88713 0.73835 0.20811 0.0
H4378 H 0.92476 0.80207 0.21098 0.0
H4379 H 0.92935 0.74721 0.17067 0.0
C4380 C 0.95471 0.76273 0.16284 0.0
C4381 C 0.9677 0.77979 0.16542 0.0
C4382 C 0.91633 0.78816 0.21009 0.0
C4383 C 0.93591 0.7756 0.1856 0.0
C4384 C 0.90217 0.7849 0.22229 0.0
C4385 C 0.89149 0.76686 0.22194 0.0
C4386 C 0.91984 0.77322 0.19748 0.0
C4387 C 0.89497 0.75249 0.20868 0.0
C4388 C 0.93894 0.7606 0.17283 0.0
C4389 C 0.96389 0.79463 0.17796 0.0
N4390 N 0.90885 0.75596 0.19706 0.0
N4391 N 0.94845 0.79216 0.18764 0.0
H4392 H 0.52597 0.32094 0.09908 0.0
H4393 H 0.53336 0.43177 0.10572 0.0
H4394 H 0.5153 0.35455 0.15011 0.0
H4395 H 0.53973 0.39787 0.05313 0.0
H4396 H 0.52363 0.40335 0.12102 0.0
H4397 H 0.52875 0.34834 0.08128 0.0
C4398 C 0.52422 0.33405 0.10661 0.0
C4399 C 0.52055 0.3353 0.12631 0.0
C4400 C 0.52671 0.40202 0.10597 0.0
C4401 C 0.52359 0.36699 0.10573 0.0
C4402 C 0.53202 0.41827 0.09713 0.0
C4403 C 0.53696 0.41721 0.07795 0.0
C4404 C 0.52663 0.38442 0.09572 0.0
C4405 C 0.53564 0.39934 0.06777 0.0
C4406 C 0.52568 0.34972 0.09633 0.0
C4407 C 0.51804 0.35273 0.13498 0.0
N4408 N 0.53081 0.3837 0.07682 0.0
N4409 N 0.51976 0.36782 0.12473 0.0
H4410 H 0.93006 0.26161 0.30181 0.0
H4411 H 0.84313 0.31452 0.2993 0.0
H4412 H 0.93624 0.32086 0.31892 0.0
H4413 H 0.83714 0.25532 0.28296 0.0
H4414 H 0.87707 0.31736 0.30548 0.0
H4415 H 0.89637 0.25927 0.29423 0.0
C4416 C 0.92449 0.27418 0.3041 0.0
C4417 C 0.93648 0.29148 0.31123 0.0
C4418 C 0.86837 0.30373 0.3005 0.0
C4419 C 0.8972 0.28882 0.30216 0.0
C4420 C 0.84885 0.30213 0.29679 0.0
C4421 C 0.83692 0.28472 0.29025 0.0
C4422 C 0.87632 0.28776 0.29793 0.0
C4423 C 0.84551 0.26911 0.28789 0.0
C4424 C 0.90508 0.27281 0.2996 0.0
C4425 C 0.92795 0.30719 0.31331 0.0
N4426 N 0.86449 0.271 0.2917 0.0
N4427 N 0.90904 0.30547 0.3089 0.0
H4428 H 0.03415 0.67068 0.60314 0.0
H4429 H 1.00184 0.55902 0.57535 0.0
H4430 H 0.9932 0.63747 0.63254 0.0
H4431 H 0.04006 0.59434 0.54479 0.0
H4432 H 0.99824 0.58692 0.59641 0.0
H4433 H 0.03603 0.64261 0.58172 0.0
C4434 C 0.02558 0.65746 0.60519 0.0
C4435 C 0.01356 0.65659 0.61986 0.0
C4436 C 0.00731 0.58857 0.58501 0.0
C4437 C 0.01572 0.62394 0.5951 0.0
C4438 C 0.00941 0.57259 0.57293 0.0
C4439 C 0.02127 0.57412 0.55805 0.0
C4440 C 0.0171 0.60639 0.58231 0.0
C4441 C 0.03064 0.59224 0.55582 0.0
C4442 C 0.02662 0.64136 0.59284 0.0
C4443 C 1.0026 0.63895 0.62142 0.0
N4444 N 0.02839 0.60748 0.56773 0.0
N4445 N 0.00403 0.62338 0.60935 0.0
H4446 H 0.6509 0.81974 0.83355 0.0
H4447 H 0.70942 0.7652 0.76262 0.0
H4448 H 0.62537 0.77155 0.79197 0.0
H4449 H 0.73555 0.80647 0.81128 0.0
H4450 H 0.67875 0.76855 0.77169 0.0
H4451 H 0.68151 0.81668 0.82394 0.0
C4452 C 0.65155 0.80857 0.82229 0.0
C4453 C 0.63508 0.79591 0.8137 0.0
C4454 C 0.69116 0.77689 0.78044 0.0
C4455 C 0.67084 0.79221 0.80259 0.0
C4456 C 0.70886 0.77486 0.77533 0.0
C4457 C 0.72551 0.78519 0.78635 0.0
C4458 C 0.68971 0.78971 0.79658 0.0
C4459 C 0.72337 0.79799 0.8023 0.0
C4460 C 0.66923 0.80675 0.8169 0.0
C4461 C 0.6374 0.78159 0.79935 0.0
N4462 N 0.70599 0.79987 0.80685 0.0
N4463 N 0.65473 0.7802 0.7943 0.0
H4464 H 0.48754 0.54932 0.67544 0.0
H4465 H 0.51022 0.4976 0.5777 0.0
H4466 H 0.46224 0.49134 0.65638 0.0
H4467 H 0.49943 0.55333 0.57846 0.0
H4468 H 0.49884 0.49563 0.60983 0.0
H4469 H 0.49826 0.55173 0.64312 0.0
C4470 C 0.4841 0.5371 0.66455 0.0
C4471 C 0.47376 0.52009 0.66884 0.0
C4472 C 0.4989 0.50826 0.60293 0.0
C4473 C 0.48657 0.52279 0.63196 0.0
C4474 C 0.50536 0.5094 0.58467 0.0
C4475 C 0.50533 0.5255 0.57532 0.0
C4476 C 0.49313 0.52364 0.61235 0.0
C4477 C 0.49921 0.54053 0.58504 0.0
C4478 C 0.49032 0.53854 0.64613 0.0
C4479 C 0.47037 0.50467 0.65411 0.0
N4480 N 0.49353 0.53933 0.6032 0.0
N4481 N 0.47684 0.50637 0.63643 0.0
H4482 H 0.75361 0.1582 0.93952 0.0
H4483 H 0.77045 0.25659 0.90768 0.0
H4484 H 0.79583 0.20246 0.97241 0.0
H4485 H 0.751 0.20756 0.8654 0.0
H4486 H 0.78302 0.23727 0.93053 0.0
H4487 H 0.75457 0.17556 0.91111 0.0
C4488 C 0.76322 0.17152 0.9406 0.0
C4489 C 0.77444 0.17916 0.95823 0.0
C4490 C 0.77641 0.2308 0.91608 0.0
C4491 C 0.77559 0.19906 0.92609 0.0
C4492 C 0.76918 0.24179 0.90316 0.0
C4493 C 0.75938 0.23345 0.885 0.0
C4494 C 0.77322 0.21138 0.91089 0.0
C4495 C 0.75829 0.21436 0.87948 0.0
C4496 C 0.76393 0.18132 0.92439 0.0
C4497 C 0.78688 0.19628 0.95899 0.0
N4498 N 0.76471 0.2038 0.89261 0.0
N4499 N 0.78686 0.20591 0.94321 0.0
H4500 H 0.09761 0.5059 0.15802 0.0
H4501 H 0.05032 0.55645 0.08297 0.0
H4502 H 0.12959 0.55883 0.1469 0.0
H4503 H 0.05964 0.50177 0.06269 0.0
H4504 H 0.07444 0.55849 0.11114 0.0
H4505 H 0.07812 0.50422 0.12678 0.0
C4506 C 0.10072 0.51704 0.14898 0.0
C4507 C 0.11523 0.5326 0.15517 0.0
C4508 C 0.07118 0.54617 0.10035 0.0
C4509 C 0.09261 0.53095 0.12008 0.0
C4510 C 0.05745 0.54494 0.08455 0.0
C4511 C 0.05325 0.52898 0.07073 0.0
C4512 C 0.0799 0.53098 0.10253 0.0
C4513 C 0.06276 0.51436 0.07308 0.0
C4514 C 0.08954 0.51608 0.13128 0.0
C4515 C 0.11827 0.54683 0.14298 0.0
N4516 N 0.0755 0.51555 0.089 0.0
N4517 N 0.1068 0.54582 0.12607 0.0
H4518 H 0.75528 0.80998 0.42673 0.0
H4519 H 0.8122 0.80677 0.33335 0.0
H4520 H 0.81179 0.84007 0.42681 0.0
H4521 H 0.75469 0.77894 0.33144 0.0
H4522 H 0.81234 0.8185 0.3678 0.0
H4523 H 0.75475 0.79808 0.39213 0.0
C4524 C 0.76757 0.81416 0.41953 0.0
C4525 C 0.78364 0.82605 0.4299 0.0
C4526 C 0.79967 0.80982 0.35988 0.0
C4527 C 0.78315 0.81226 0.39015 0.0
C4528 C 0.7996 0.80306 0.34016 0.0
C4529 C 0.78347 0.79172 0.32942 0.0
C4530 C 0.78346 0.80528 0.36908 0.0
C4531 C 0.76749 0.78759 0.3391 0.0
C4532 C 0.76728 0.80726 0.39975 0.0
C4533 C 0.79919 0.8307 0.41969 0.0
N4534 N 0.7679 0.79433 0.35834 0.0
N4535 N 0.79854 0.82382 0.40048 0.0
H4536 H 0.5002 0.50637 0.86024 0.0
H4537 H 0.48724 0.53659 0.97227 0.0
H4538 H 0.45917 0.5377 0.87776 0.0
H4539 H 0.53102 0.50853 0.95591 0.0
H4540 H 0.47721 0.53733 0.93765 0.0
H4541 H 0.51195 0.50706 0.89494 0.0
C4542 C 0.49365 0.51341 0.87135 0.0
C4543 C 0.47862 0.52197 0.86598 0.0
C4544 C 0.48898 0.53094 0.94158 0.0
C4545 C 0.49206 0.52282 0.90582 0.0
C4546 C 0.49476 0.53051 0.96143 0.0
C4547 C 0.50994 0.5223 0.96716 0.0
C4548 C 0.49831 0.52299 0.92714 0.0
C4549 C 0.51908 0.51472 0.95228 0.0
C4550 C 0.50043 0.51385 0.89118 0.0
C4551 C 0.47091 0.53109 0.88109 0.0
N4552 N 0.51308 0.51518 0.93299 0.0
N4553 N 0.47764 0.53119 0.90024 0.0
H4554 H 0.79241 0.17896 0.15578 0.0
H4555 H 0.75201 0.26002 0.21198 0.0
H4556 H 0.75071 0.20569 0.12835 0.0
H4557 H 0.79981 0.23936 0.23572 0.0
H4558 H 0.75022 0.23916 0.18158 0.0
H4559 H 0.79433 0.20011 0.18587 0.0
C4560 C 0.78374 0.18937 0.1561 0.0
C4561 C 0.7714 0.19067 0.13965 0.0
C4562 C 0.76112 0.23924 0.19343 0.0
C4563 C 0.77336 0.21468 0.17391 0.0
C4564 C 0.76214 0.25111 0.21069 0.0
C4565 C 0.77602 0.25127 0.22622 0.0
C4566 C 0.77408 0.22752 0.19184 0.0
C4567 C 0.78883 0.23952 0.22404 0.0
C4568 C 0.78478 0.20137 0.17326 0.0
C4569 C 0.76024 0.20415 0.14085 0.0
N4570 N 0.7875 0.22803 0.20711 0.0
N4571 N 0.76148 0.21568 0.15775 0.0
H4572 H 0.09364 0.53044 0.31509 0.0
H4573 H 0.09281 0.54546 0.42945 0.0
H4574 H 0.13885 0.52284 0.35649 0.0
H4575 H 0.04566 0.54641 0.38704 0.0
H4576 H 0.10747 0.53078 0.40348 0.0
H4577 H 0.07355 0.52984 0.34116 0.0
C4578 C 0.09919 0.52836 0.3297 0.0
C4579 C 0.1179 0.52704 0.33389 0.0
C4580 C 0.09376 0.53388 0.39991 0.0
C4581 C 0.09526 0.5267 0.36384 0.0
C4582 C 0.08538 0.54223 0.41473 0.0
C4583 C 0.06823 0.54759 0.41021 0.0
C4584 C 0.08497 0.53106 0.38048 0.0
C4585 C 0.05917 0.54304 0.39097 0.0
C4586 C 0.08775 0.52796 0.34457 0.0
C4587 C 0.12447 0.52407 0.35286 0.0
N4588 N 0.06779 0.53529 0.37674 0.0
N4589 N 0.11324 0.5244 0.36732 0.0
H4590 H 0.76552 0.84948 0.6393 0.0
H4591 H 0.79102 0.77376 0.70776 0.0
H4592 H 0.80011 0.81018 0.62375 0.0
H4593 H 0.76443 0.8186 0.72785 0.0
H4594 H 0.79259 0.78579 0.67618 0.0
H4595 H 0.76308 0.83722 0.67084 0.0
C4596 C 0.77252 0.83819 0.64243 0.0
C4597 C 0.78302 0.83084 0.62873 0.0
C4598 C 0.78637 0.79302 0.68744 0.0
C4599 C 0.78039 0.81683 0.66504 0.0
C4600 C 0.78537 0.7861 0.7055 0.0
C4601 C 0.77745 0.79512 0.72051 0.0
C4602 C 0.77935 0.80909 0.68417 0.0
C4603 C 0.77061 0.81119 0.71672 0.0
C4604 C 0.77122 0.83129 0.66054 0.0
C4605 C 0.79202 0.81643 0.63386 0.0
N4606 N 0.77167 0.81763 0.69891 0.0
N4607 N 0.79046 0.80989 0.65152 0.0
H4608 H 0.69587 0.43965 0.50016 0.0
H4609 H 0.6417 0.52309 0.51637 0.0
H4610 H 0.71124 0.4924 0.47785 0.0
H4611 H 0.63797 0.47634 0.54992 0.0
H4612 H 0.66078 0.50835 0.49474 0.0
H4613 H 0.66779 0.44906 0.51037 0.0
C4614 C 0.69283 0.45294 0.49675 0.0
C4615 C 0.70556 0.4653 0.48811 0.0
C4616 C 0.65557 0.50123 0.50668 0.0
C4617 C 0.67403 0.47637 0.50014 0.0
C4618 C 0.64477 0.50961 0.51897 0.0
C4619 C 0.63874 0.501 0.53506 0.0
C4620 C 0.66009 0.48409 0.51049 0.0
C4621 C 0.64281 0.48354 0.53788 0.0
C4622 C 0.67697 0.45838 0.50272 0.0
C4623 C 0.70152 0.48255 0.48439 0.0
N4624 N 0.65337 0.47569 0.52576 0.0
N4625 N 0.6861 0.48773 0.49067 0.0
H4626 H 0.1671 0.08961 0.4822 0.0
H4627 H 0.091 0.05084 0.54974 0.0
H4628 H 0.16567 0.11727 0.54033 0.0
H4629 H 0.07603 0.05088 0.48766 0.0
H4630 H 0.12209 0.0694 0.54708 0.0
H4631 H 0.1367 0.0699 0.48431 0.0
C4632 C 0.1605 0.09169 0.49537 0.0
C4633 C 0.16927 0.10525 0.51114 0.0
C4634 C 0.11202 0.06517 0.53404 0.0
C4635 C 0.13469 0.08211 0.51379 0.0
C4636 C 0.09443 0.05449 0.53552 0.0
C4637 C 0.08108 0.0494 0.51888 0.0
C4638 C 0.11641 0.07025 0.51569 0.0
C4639 C 0.086 0.05466 0.50081 0.0
C4640 C 0.14318 0.08029 0.49657 0.0
C4641 C 0.15994 0.1068 0.52794 0.0
N4642 N 0.10335 0.06471 0.49964 0.0
N4643 N 0.1433 0.0953 0.52887 0.0
H4644 H 0.15934 0.93866 0.76723 0.0
H4645 H 0.25333 0.90161 0.78157 0.0
H4646 H 0.20759 0.96983 0.80557 0.0
H4647 H 0.20063 0.86703 0.75597 0.0
H4648 H 0.23674 0.92565 0.79386 0.0
H4649 H 0.17388 0.91141 0.76541 0.0
C4650 C 0.17301 0.9397 0.77532 0.0
C4651 C 0.18241 0.95652 0.78635 0.0
C4652 C 0.22875 0.91259 0.78606 0.0
C4653 C 0.19923 0.92541 0.78435 0.0
C4654 C 0.2382 0.89886 0.77922 0.0
C4655 C 0.22821 0.88243 0.7679 0.0
C4656 C 0.20928 0.90985 0.78118 0.0
C4657 C 0.20871 0.87955 0.76477 0.0
C4658 C 0.18126 0.92411 0.77442 0.0
C4659 C 0.19995 0.95707 0.79684 0.0
N4660 N 0.19988 0.89326 0.77112 0.0
N4661 N 0.20796 0.9418 0.79535 0.0
H4662 H 0.38706 0.97327 0.97543 0.0
H4663 H 0.48029 0.03802 0.03086 0.0
H4664 H 0.39066 0.00593 0.03192 0.0
H4665 H 0.47824 0.9863 0.9943 0.0
H4666 H 0.44659 0.03494 0.02188 0.0
H4667 H 0.4197 0.98693 0.9735 0.0
C4668 C 0.39464 0.98364 0.98723 0.0
C4669 C 0.38635 0.98844 0.00397 0.0
C4670 C 0.45365 0.02459 0.0154 0.0
C4671 C 0.42339 0.00388 0.0018 0.0
C4672 C 0.47274 0.02639 0.02038 0.0
C4673 C 0.48168 0.01247 0.013 0.0
C4674 C 0.44371 0.00868 0.00318 0.0
C4675 C 0.47158 0.99733 0.99998 0.0
C4676 C 0.41318 0.99136 0.98609 0.0
C4677 C 0.39674 1.00173 0.01894 0.0
N4678 N 0.45292 0.99573 0.99552 0.0
N4679 N 0.4149 0.00892 0.01759 0.0
H4680 H 0.80555 0.58886 0.80989 0.0
H4681 H 0.84013 0.6779 0.75803 0.0
H4682 H 0.86369 0.61236 0.80853 0.0
H4683 H 0.78321 0.66063 0.76984 0.0
H4684 H 0.84951 0.65555 0.77906 0.0
H4685 H 0.79739 0.61746 0.79938 0.0
C4686 C 0.81658 0.60041 0.80805 0.0
C4687 C 0.83524 0.59858 0.81016 0.0
C4688 C 0.83501 0.65686 0.77726 0.0
C4689 C 0.82617 0.63064 0.79724 0.0
C4690 C 0.82964 0.66942 0.76507 0.0
C4691 C 0.81089 0.67102 0.76214 0.0
C4692 C 0.82147 0.64574 0.78638 0.0
C4693 C 0.79787 0.65993 0.77183 0.0
C4694 C 0.81198 0.61661 0.80188 0.0
C4695 C 0.84915 0.61356 0.80727 0.0
N4696 N 0.80339 0.64766 0.78341 0.0
N4697 N 0.8443 0.6289 0.80053 0.0
H4698 H 0.84384 0.60946 0.98316 0.0
H4699 H 0.91119 0.57262 0.06116 0.0
H4700 H 0.85016 0.62526 0.04597 0.0
H4701 H 0.92895 0.58362 0.00505 0.0
H4702 H 0.8824 0.58344 0.05196 0.0
H4703 H 0.87036 0.59347 0.98773 0.0
C4704 C 0.85072 0.60961 0.99785 0.0
C4705 C 0.84443 0.61844 0.01425 0.0
C4706 C 0.89254 0.58339 0.04159 0.0
C4707 C 0.87418 0.59984 0.01947 0.0
C4708 C 0.90888 0.5772 0.04681 0.0
C4709 C 0.92248 0.57763 0.03396 0.0
C4710 C 0.88982 0.59021 0.02345 0.0
C4711 C 0.91874 0.58328 0.01536 0.0
C4712 C 0.86573 0.6004 1.0004 0.0
C4713 C 0.85393 0.61813 0.03292 0.0
N4714 N 0.90277 0.58964 0.01068 0.0
N4715 N 0.86814 0.60886 0.03499 0.0
H4716 H 0.18085 0.14039 0.76197 0.0
H4717 H 0.26781 0.21996 0.8088 0.0
H4718 H 0.21857 0.13221 0.81113 0.0
H4719 H 0.24238 0.21564 0.74899 0.0
H4720 H 0.2491 0.18898 0.81168 0.0
H4721 H 0.20171 0.1697 0.75906 0.0
C4722 C 0.19359 0.14464 0.77208 0.0
C4723 C 0.19803 0.13356 0.78664 0.0
C4724 C 0.24777 0.19474 0.79787 0.0
C4725 C 0.22192 0.1675 0.78356 0.0
C4726 C 0.25851 0.21228 0.7962 0.0
C4727 C 0.25653 0.22019 0.77864 0.0
C4728 C 0.23476 0.18535 0.78196 0.0
C4729 C 0.24412 0.20999 0.76281 0.0
C4730 C 0.20549 0.16145 0.77043 0.0
C4731 C 0.21449 0.14026 0.79972 0.0
N4732 N 0.23354 0.19318 0.76489 0.0
N4733 N 0.22584 0.1568 0.79788 0.0
H4734 H 0.29233 0.92254 0.29433 0.0
H4735 H 0.32481 0.82529 0.2842 0.0
H4736 H 0.33876 0.91249 0.26394 0.0
H4737 H 0.26704 0.82901 0.28663 0.0
H4738 H 0.33264 0.85916 0.28449 0.0
H4739 H 0.28464 0.88918 0.29803 0.0
C4740 C 0.30062 0.91321 0.28811 0.0
C4741 C 0.31605 0.92007 0.27867 0.0
C4742 C 0.31831 0.85248 0.28533 0.0
C4743 C 0.30781 0.88255 0.28335 0.0
C4744 C 0.31386 0.83325 0.28528 0.0
C4745 C 0.29523 0.82436 0.2854 0.0
C4746 C 0.30407 0.86275 0.28577 0.0
C4747 C 0.2816 0.83529 0.2869 0.0
C4748 C 0.29635 0.89434 0.29035 0.0
C4749 C 0.32655 0.90762 0.27101 0.0
N4750 N 0.28628 0.854 0.28693 0.0
N4751 N 0.32233 0.8894 0.27368 0.0
H4752 H 0.56877 0.39828 0.5839 0.0
H4753 H 0.5173 0.45559 0.50915 0.0
H4754 H 0.52299 0.37131 0.54002 0.0
H4755 H 0.55058 0.48161 0.56344 0.0
H4756 H 0.52105 0.4249 0.51817 0.0
H4757 H 0.56459 0.42869 0.57445 0.0
C4758 C 0.55791 0.39863 0.57216 0.0
C4759 C 0.54627 0.38186 0.56284 0.0
C4760 C 0.5275 0.43731 0.52815 0.0
C4761 C 0.54134 0.41724 0.55181 0.0
C4762 C 0.52524 0.45498 0.52304 0.0
C4763 C 0.53323 0.47153 0.53564 0.0
C4764 C 0.53832 0.43593 0.54584 0.0
C4765 C 0.54393 0.46945 0.55319 0.0
C4766 C 0.55544 0.41614 0.56685 0.0
C4767 C 0.53228 0.38364 0.54787 0.0
N4768 N 0.5462 0.45218 0.55766 0.0
N4769 N 0.5303 0.40084 0.54281 0.0
H4770 H 0.40656 0.73632 0.35106 0.0
H4771 H 0.32361 0.79247 0.33036 0.0
H4772 H 0.40237 0.78715 0.38615 0.0
H4773 H 0.32691 0.74152 0.29532 0.0
H4774 H 0.35208 0.79038 0.35117 0.0
H4775 H 0.37748 0.7376 0.33089 0.0
C4776 C 0.39958 0.74772 0.3547 0.0
C4777 C 0.40727 0.76165 0.37056 0.0
C4778 C 0.34654 0.77952 0.33905 0.0
C4779 C 0.37363 0.76329 0.34703 0.0
C4780 C 0.33004 0.78058 0.32731 0.0
C4781 C 0.32245 0.76691 0.31131 0.0
C4782 C 0.35577 0.76469 0.33483 0.0
C4783 C 0.33214 0.75236 0.30751 0.0
C4784 C 0.38293 0.74849 0.343 0.0
C4785 C 0.39742 0.77618 0.37404 0.0
N4786 N 0.34817 0.7516 0.31915 0.0
N4787 N 0.38127 0.77659 0.36248 0.0
H4788 H 0.01627 0.67469 0.07254 0.0
H4789 H 0.06032 0.58992 0.02579 0.0
H4790 H 0.06858 0.68364 0.04811 0.0
H4791 H 0.00992 0.58217 0.0533 0.0
H4792 H 0.06369 0.62387 0.03332 0.0
H4793 H 0.0135 0.64099 0.06466 0.0
C4794 C 0.02716 0.66973 0.06536 0.0
C4795 C 0.04271 0.68249 0.06105 0.0
C4796 C 0.05188 0.61474 0.03777 0.0
C4797 C 0.03966 0.64311 0.0521 0.0
C4798 C 0.05001 0.59519 0.03357 0.0
C4799 C 0.03484 0.58269 0.03898 0.0
C4800 C 0.03841 0.6222 0.04743 0.0
C4801 C 0.02181 0.59087 0.04872 0.0
C4802 C 0.02561 0.65029 0.06098 0.0
C4803 C 0.05641 0.67466 0.05204 0.0
N4804 N 0.02386 0.60985 0.05255 0.0
N4805 N 0.05455 0.65567 0.0479 0.0
H4806 H 0.07698 0.2502 0.85621 0.0
H4807 H 0.17979 0.31026 0.85127 0.0
H4808 H 0.1055 0.29498 0.90057 0.0
H4809 H 0.14947 0.2697 0.80396 0.0
H4810 H 0.1542 0.30213 0.87117 0.0
H4811 H 0.10451 0.25457 0.83855 0.0
C4812 C 0.08904 0.26086 0.86237 0.0
C4813 C 0.08868 0.27233 0.87994 0.0
C4814 C 0.15317 0.29482 0.85653 0.0
C4815 C 0.12046 0.27748 0.85955 0.0
C4816 C 0.16786 0.29937 0.84524 0.0
C4817 C 0.16682 0.29049 0.82604 0.0
C4818 C 0.13714 0.28139 0.84853 0.0
C4819 C 0.1509 0.27671 0.81879 0.0
C4820 C 0.10477 0.26341 0.85217 0.0
C4821 C 0.10483 0.28601 0.88695 0.0
N4822 N 0.13667 0.27265 0.82997 0.0
N4823 N 0.11993 0.2882 0.87677 0.0
H4824 H 0.51609 0.72707 0.9404 0.0
H4825 H 0.53592 0.62384 0.94797 0.0
H4826 H 0.55202 0.70261 0.90431 0.0
H4827 H 0.50142 0.64974 0.9845 0.0
H4828 H 0.54425 0.65325 0.93364 0.0
H4829 H 0.51253 0.69971 0.95818 0.0
C4830 C 0.52321 0.71593 0.93614 0.0
C4831 C 0.53423 0.71719 0.92061 0.0
C4832 C 0.53511 0.65263 0.94502 0.0
C4833 C 0.53024 0.68555 0.94117 0.0
C4834 C 0.53049 0.63589 0.95332 0.0
C4835 C 0.51811 0.63443 0.96758 0.0
C4836 C 0.52722 0.66804 0.95097 0.0
C4837 C 0.51111 0.65032 0.97364 0.0
C4838 C 0.52126 0.7003 0.94642 0.0
C4839 C 0.54344 0.70238 0.91618 0.0
N4840 N 0.51567 0.66636 0.96528 0.0
N4841 N 0.54112 0.68717 0.92625 0.0
H4842 H 0.1264 0.78937 0.75425 0.0
H4843 H 0.21583 0.74012 0.75229 0.0
H4844 H 0.12365 0.73412 0.72443 0.0
H4845 H 0.21986 0.79807 0.77377 0.0
H4846 H 0.18193 0.73686 0.74429 0.0
H4847 H 0.15996 0.79206 0.76328 0.0
C4848 C 0.13266 0.77776 0.74943 0.0
C4849 C 0.12161 0.76147 0.73832 0.0
C4850 C 0.19018 0.75029 0.75082 0.0
C4851 C 0.16081 0.76447 0.7492 0.0
C4852 C 0.20965 0.75213 0.75558 0.0
C4853 C 0.22103 0.76934 0.76398 0.0
C4854 C 0.18168 0.76579 0.75444 0.0
C4855 C 0.21192 0.78447 0.76735 0.0
C4856 C 0.15202 0.77932 0.75478 0.0
C4857 C 0.13108 0.74691 0.73317 0.0
N4858 N 0.19298 0.78233 0.76265 0.0
N4859 N 0.1499 0.74877 0.7386 0.0
H4860 H 0.06107 0.41667 0.4103 0.0
H4861 H 0.01861 0.46037 0.5034 0.0
H4862 H 0.02881 0.38384 0.44815 0.0
H4863 H 0.05606 0.49428 0.47083 0.0
H4864 H 0.02225 0.43251 0.48295 0.0
H4865 H 0.05946 0.44514 0.43159 0.0
C4866 C 0.05377 0.41534 0.42312 0.0
C4867 C 0.04499 0.39757 0.42719 0.0
C4868 C 0.02973 0.446 0.48022 0.0
C4869 C 0.04296 0.43047 0.45175 0.0
C4870 C 0.02771 0.46206 0.49202 0.0
C4871 C 0.03704 0.47996 0.48904 0.0
C4872 C 0.04105 0.44757 0.46495 0.0
C4873 C 0.04849 0.4809 0.47377 0.0
C4874 C 0.05278 0.4317 0.43526 0.0
C4875 C 0.03555 0.39705 0.44401 0.0
N4876 N 0.05008 0.46504 0.46231 0.0
N4877 N 0.03478 0.4131 0.45551 0.0
H4878 H 0.41679 0.2315 0.24747 0.0
H4879 H 0.34032 0.29706 0.25459 0.0
H4880 H 0.42098 0.28379 0.22305 0.0
H4881 H 0.32934 0.24018 0.26778 0.0
H4882 H 0.37079 0.29306 0.24555 0.0
H4883 H 0.3862 0.23488 0.25698 0.0
C4884 C 0.41146 0.24368 0.24393 0.0
C4885 C 0.42209 0.25734 0.23426 0.0
C4886 C 0.3618 0.2814 0.25043 0.0
C4887 C 0.38643 0.26144 0.24573 0.0
C4888 C 0.34426 0.2837 0.25573 0.0
C4889 C 0.3319 0.26899 0.26213 0.0
C4890 C 0.36754 0.26423 0.25154 0.0
C4891 C 0.33816 0.252 0.26299 0.0
C4892 C 0.39383 0.24562 0.24955 0.0
C4893 C 0.41396 0.2729 0.23071 0.0
N4894 N 0.35541 0.25014 0.25787 0.0
N4895 N 0.39691 0.27448 0.23641 0.0
H4896 H 0.55821 0.54406 0.37111 0.0
H4897 H 0.56866 0.51128 0.47859 0.0
H4898 H 0.60206 0.51659 0.39208 0.0
H4899 H 0.52499 0.53883 0.4573 0.0
H4900 H 0.5809 0.51264 0.4469 0.0
H4901 H 0.54564 0.54189 0.40249 0.0
C4902 C 0.56524 0.53762 0.38232 0.0
C4903 C 0.58124 0.53051 0.3789 0.0
C4904 C 0.56862 0.51835 0.44915 0.0
C4905 C 0.56683 0.52787 0.41493 0.0
C4906 C 0.56164 0.5176 0.46726 0.0
C4907 C 0.54576 0.52492 0.47063 0.0
C4908 C 0.55969 0.52654 0.43429 0.0
C4909 C 0.53722 0.53292 0.45536 0.0
C4910 C 0.558 0.5363 0.40023 0.0
C4911 C 0.58957 0.52206 0.39393 0.0
N4912 N 0.54429 0.53353 0.43792 0.0
N4913 N 0.58231 0.52102 0.41126 0.0
H4914 H 0.27496 0.88909 0.10747 0.0
H4915 H 0.30051 0.7954 0.1418 0.0
H4916 H 0.28617 0.84363 0.06895 0.0
H4917 H 0.2988 0.84359 0.18229 0.0
H4918 H 0.28728 0.81013 0.11498 0.0
H4919 H 0.27649 0.87026 0.13495 0.0
C4920 C 0.27734 0.87498 0.10481 0.0
C4921 C 0.28052 0.86778 0.08613 0.0
C4922 C 0.28955 0.81744 0.12975 0.0
C4923 C 0.28228 0.84633 0.11711 0.0
C4924 C 0.29703 0.809 0.145 0.0
C4925 C 0.30092 0.81847 0.16407 0.0
C4926 C 0.28629 0.83563 0.13356 0.0
C4927 C 0.29603 0.83595 0.16767 0.0
C4928 C 0.27827 0.86429 0.12041 0.0
C4929 C 0.28374 0.84959 0.08325 0.0
N4930 N 0.28925 0.84417 0.15244 0.0
N4931 N 0.28464 0.83951 0.09861 0.0
H4932 H 0.95704 0.54771 0.8909 0.0
H4933 H 0.99395 0.49556 0.97451 0.0
H4934 H 0.92521 0.49504 0.90259 0.0
H4935 H 1.00354 0.55569 0.98086 0.0
H4936 H 0.96939 0.49433 0.94728 0.0
H4937 H 0.97565 0.55057 0.92289 0.0
C4938 C 0.95382 0.53687 0.90029 0.0
C4939 C 0.93964 0.52106 0.89409 0.0
C4940 C 0.97656 0.50778 0.95494 0.0
C4941 C 0.96093 0.52417 0.93038 0.0
C4942 C 0.99042 0.50845 0.97044 0.0
C4943 C 1.00009 0.52572 0.98005 0.0
C4944 C 0.9732 0.52454 0.94859 0.0
C4945 C 0.99582 0.54215 0.97394 0.0
C4946 C 0.96441 0.53854 0.91851 0.0
C4947 C 0.93627 0.50726 0.90667 0.0
N4948 N 0.98277 0.5412 0.9583 0.0
N4949 N 0.947 0.50905 0.9242 0.0
H4950 H 0.29695 0.21265 0.62737 0.0
H4951 H 0.25556 0.2754 0.70747 0.0
H4952 H 0.25295 0.24204 0.61193 0.0
H4953 H 0.2935 0.23899 0.7215 0.0
H4954 H 0.25574 0.26544 0.67242 0.0
H4955 H 0.29766 0.22473 0.66176 0.0
C4956 C 0.28756 0.22182 0.63113 0.0
C4957 C 0.27486 0.22627 0.61658 0.0
C4958 C 0.26398 0.25963 0.68322 0.0
C4959 C 0.27538 0.24 0.65632 0.0
C4960 C 0.26382 0.26526 0.70327 0.0
C4961 C 0.2743 0.25787 0.71762 0.0
C4962 C 0.27489 0.24668 0.67743 0.0
C4963 C 0.28504 0.24502 0.71112 0.0
C4964 C 0.28786 0.2286 0.65088 0.0
C4965 C 0.26282 0.238 0.6226 0.0
N4966 N 0.28505 0.23989 0.69162 0.0
N4967 N 0.26336 0.24443 0.64196 0.0
H4968 H 0.59714 0.55817 0.17798 0.0
H4969 H 0.52635 0.50256 0.08562 0.0
H4970 H 0.5577 0.50721 0.18112 0.0
H4971 H 0.56354 0.55522 0.08398 0.0
H4972 H 0.5375 0.50395 0.12051 0.0
H4973 H 0.58465 0.55745 0.14372 0.0
C4974 C 0.58572 0.5469 0.17158 0.0
C4975 C 0.57845 0.53277 0.18265 0.0
C4976 C 0.54313 0.51528 0.11256 0.0
C4977 C 0.56424 0.53169 0.143 0.0
C4978 C 0.53679 0.51449 0.0926 0.0
C4979 C 0.54387 0.52892 0.08183 0.0
C4980 C 0.55675 0.53058 0.12189 0.0
C4981 C 0.55739 0.54399 0.09172 0.0
C4982 C 0.57867 0.54644 0.1519 0.0
C4983 C 0.56393 0.51831 0.17321 0.0
N4984 N 0.5634 0.54441 0.11113 0.0
N4985 N 0.55734 0.51814 0.15398 0.0
H4986 H 0.25636 0.85365 0.89967 0.0
H4987 H 0.31009 0.80146 0.83155 0.0
H4988 H 0.31531 0.87538 0.89935 0.0
H4989 H 0.25586 0.81035 0.80933 0.0
H4990 H 0.31274 0.82768 0.85745 0.0
H4991 H 0.25542 0.83667 0.86721 0.0
C4992 C 0.26905 0.85512 0.89273 0.0
C4993 C 0.28602 0.86574 0.90248 0.0
C4994 C 0.30049 0.82417 0.84659 0.0
C4995 C 0.28502 0.84601 0.86562 0.0
C4996 C 0.29897 0.80927 0.83198 0.0
C4997 C 0.28283 0.8041 0.81848 0.0
C4998 C 0.28539 0.83322 0.84802 0.0
C4999 C 0.26859 0.81426 0.81949 0.0
C5000 C 0.26846 0.84541 0.8742 0.0
C5001 C 0.30204 0.86685 0.89275 0.0
N5002 N 0.27001 0.8282 0.83439 0.0
N5003 N 0.30123 0.85678 0.87498 0.0
H5004 H 0.92967 0.54411 0.69981 0.0
H5005 H 0.95367 0.46895 0.62602 0.0
H5006 H 0.94655 0.49475 0.71865 0.0
H5007 H 0.99594 0.51956 0.63506 0.0
H5008 H 0.93797 0.48205 0.65223 0.0
H5009 H 0.94378 0.53878 0.66926 0.0
C5010 C 0.93653 0.53236 0.69768 0.0
C5011 C 0.93662 0.51961 0.71158 0.0
C5012 C 0.9505 0.49035 0.64812 0.0
C5013 C 0.952 0.51336 0.67695 0.0
C5014 C 0.9595 0.48288 0.63341 0.0
C5015 C 0.97634 0.49302 0.62893 0.0
C5016 C 0.95845 0.50798 0.65832 0.0
C5017 C 0.98308 0.51127 0.63842 0.0
C5018 C 0.9444 0.52933 0.68029 0.0
C5019 C 0.94563 0.50459 0.70809 0.0
N5020 N 0.97428 0.51812 0.6531 0.0
N5021 N 0.95267 0.5017 0.69095 0.0
H5022 H 0.30122 0.23941 0.42917 0.0
H5023 H 0.25014 0.24291 0.32159 0.0
H5024 H 0.24564 0.20885 0.40681 0.0
H5025 H 0.30867 0.2662 0.33893 0.0
H5026 H 0.24791 0.23244 0.3538 0.0
H5027 H 0.30385 0.2514 0.39745 0.0
C5028 C 0.28957 0.23517 0.41764 0.0
C5029 C 0.27316 0.22303 0.42081 0.0
C5030 C 0.26128 0.23981 0.35063 0.0
C5031 C 0.27607 0.23693 0.38443 0.0
C5032 C 0.26261 0.24568 0.33212 0.0
C5033 C 0.27969 0.25526 0.3274 0.0
C5034 C 0.27712 0.24357 0.36475 0.0
C5035 C 0.29521 0.25895 0.34195 0.0
C5036 C 0.29108 0.2421 0.39954 0.0
C5037 C 0.25845 0.21836 0.40532 0.0
N5038 N 0.29357 0.25307 0.35997 0.0
N5039 N 0.26028 0.22528 0.38789 0.0
H5040 H 0.3283 0.54981 0.53265 0.0
H5041 H 0.43338 0.57912 0.52261 0.0
H5042 H 0.36501 0.59348 0.57258 0.0
H5043 H 0.40203 0.52403 0.49989 0.0
H5044 H 0.40894 0.58331 0.54331 0.0
H5045 H 0.35531 0.53737 0.52381 0.0
C5046 C 0.34207 0.55628 0.54009 0.0
C5047 C 0.3447 0.57275 0.55308 0.0
C5048 C 0.40749 0.57021 0.53397 0.0
C5049 C 0.37545 0.55922 0.54262 0.0
C5050 C 0.42124 0.56799 0.52198 0.0
C5051 C 0.41934 0.55141 0.50938 0.0
C5052 C 0.39165 0.55586 0.53297 0.0
C5053 C 0.40373 0.53711 0.50932 0.0
C5054 C 0.35746 0.54929 0.53501 0.0
C5055 C 0.36262 0.58078 0.5624 0.0
N5056 N 0.39028 0.53977 0.52075 0.0
N5057 N 0.37749 0.57423 0.55656 0.0
H5058 H 0.90159 0.93034 0.55529 0.0
H5059 H 0.95912 0.01957 0.51451 0.0
H5060 H 0.87482 0.96869 0.52493 0.0
H5061 H 0.98388 0.98336 0.55016 0.0
H5062 H 0.92803 1.00208 0.51872 0.0
H5063 H 0.93188 0.95038 0.55401 0.0
C5064 C 0.90206 0.94311 0.54857 0.0
C5065 C 0.88561 0.9478 0.54019 0.0
C5066 C 0.94032 0.9981 0.5257 0.0
C5067 C 0.92039 0.97083 0.53843 0.0
C5068 C 0.95806 0.00817 0.5234 0.0
C5069 C 0.9742 1.003 0.53196 0.0
C5070 C 0.93877 0.98272 0.53652 0.0
C5071 C 0.97192 0.98785 0.5431 0.0
C5072 C 0.9194 0.95453 0.54773 0.0
C5073 C 0.88716 0.9644 0.53136 0.0
N5074 N 0.95464 0.97826 0.54493 0.0
N5075 N 0.90423 0.97527 0.53065 0.0
H5076 H 0.88137 0.10772 0.2436 0.0
H5077 H 0.80143 0.14428 0.29803 0.0
H5078 H 0.84932 0.07823 0.28397 0.0
H5079 H 0.84232 0.18093 0.27189 0.0
H5080 H 0.81405 0.11761 0.28522 0.0
H5081 H 0.8631 0.13247 0.24708 0.0
C5082 C 0.87038 0.10636 0.25302 0.0
C5083 C 0.86701 0.091 0.26371 0.0
C5084 C 0.82008 0.13141 0.28191 0.0
C5085 C 0.84603 0.11908 0.26759 0.0
C5086 C 0.81272 0.14657 0.28903 0.0
C5087 C 0.82083 0.16472 0.28591 0.0
C5088 C 0.83583 0.13442 0.2718 0.0
C5089 C 0.83562 0.16708 0.27442 0.0
C5090 C 0.86002 0.12049 0.25503 0.0
C5091 C 0.85263 0.08996 0.27573 0.0
N5092 N 0.84286 0.15209 0.26797 0.0
N5093 N 0.84275 0.1038 0.27737 0.0
H5094 H 0.67259 0.05561 0.06978 0.0
H5095 H 0.57705 0.04304 0.99905 0.0
H5096 H 0.66922 0.06291 0.00819 0.0
H5097 H 0.58044 0.04912 0.06216 0.0
H5098 H 0.61093 0.04661 0.00163 0.0
H5099 H 0.63844 0.04744 0.06654 0.0
C5100 C 0.66467 0.05517 0.05554 0.0
C5101 C 0.67367 0.06016 0.0393 0.0
C5102 C 0.6043 0.0471 0.01495 0.0
C5103 C 0.63497 0.05112 0.03557 0.0
C5104 C 0.58508 0.0453 0.01347 0.0
C5105 C 0.57626 0.04556 0.03049 0.0
C5106 C 0.6146 0.04903 0.0336 0.0
C5107 C 0.58695 0.04832 0.04883 0.0
C5108 C 0.64527 0.05062 0.05373 0.0
C5109 C 0.66287 0.05907 0.02108 0.0
N5110 N 0.60571 0.04987 0.04997 0.0
N5111 N 0.64404 0.05488 0.01977 0.0
H5112 H 0.25233 0.47502 0.26687 0.0
H5113 H 0.27658 0.38712 0.27182 0.0
H5114 H 0.20499 0.44192 0.22852 0.0
H5115 H 0.22633 0.38756 0.29922 0.0
H5116 H 0.26805 0.41028 0.2511 0.0
H5117 H 0.26255 0.44624 0.27396 0.0
C5118 C 0.24448 0.46171 0.25947 0.0
C5119 C 0.22784 0.46065 0.24717 0.0
C5120 C 0.25876 0.40484 0.26133 0.0
C5121 C 0.23925 0.42817 0.2553 0.0
C5122 C 0.26357 0.39179 0.27315 0.0
C5123 C 0.25225 0.38581 0.28743 0.0
C5124 C 0.24245 0.41154 0.26371 0.0
C5125 C 0.23555 0.39219 0.28863 0.0
C5126 C 0.25033 0.44543 0.26343 0.0
C5127 C 0.21795 0.44315 0.23803 0.0
N5128 N 0.2312 0.40495 0.277 0.0
N5129 N 0.22351 0.42738 0.24278 0.0
H5130 H 0.19242 0.40915 0.00734 0.0
H5131 H 0.15073 0.49959 0.03859 0.0
H5132 H 0.21929 0.4523 0.05417 0.0
H5133 H 0.13029 0.4613 0.98598 0.0
H5134 H 0.17276 0.47968 0.04807 0.0
H5135 H 0.16646 0.42536 0.00284 0.0
C5136 C 0.19287 0.42206 0.01668 0.0
C5137 C 0.20822 0.42954 0.03092 0.0
C5138 C 0.1633 0.47551 0.03458 0.0
C5139 C 0.17841 0.44813 0.02594 0.0
C5140 C 0.15073 0.4868 0.02925 0.0
C5141 C 0.13889 0.48202 0.01148 0.0
C5142 C 0.16387 0.45932 0.02204 0.0
C5143 C 0.13935 0.46543 0.99974 0.0
C5144 C 0.17798 0.43126 0.01417 0.0
C5145 C 0.20776 0.44603 0.04298 0.0
N5146 N 0.15171 0.45471 0.00519 0.0
N5147 N 0.19319 0.45487 0.04009 0.0
H5148 H 0.86936 0.90178 0.23817 0.0
H5149 H 0.78936 0.84208 0.29047 0.0
H5150 H 0.83994 0.92651 0.28158 0.0
H5151 H 0.81777 0.81841 0.24536 0.0
H5152 H 0.80707 0.87319 0.28705 0.0
H5153 H 0.84989 0.87126 0.24008 0.0
C5154 C 0.85868 0.90085 0.24796 0.0
C5155 C 0.85638 0.91681 0.25977 0.0
C5156 C 0.80936 0.86118 0.27786 0.0
C5157 C 0.83405 0.8817 0.26222 0.0
C5158 C 0.79919 0.8434 0.27975 0.0
C5159 C 0.80194 0.82753 0.26812 0.0
C5160 C 0.82249 0.86313 0.26432 0.0
C5161 C 0.8151 0.83016 0.25467 0.0
C5162 C 0.84761 0.88336 0.24915 0.0
C5163 C 0.84244 0.91459 0.27241 0.0
N5164 N 0.82486 0.84754 0.25319 0.0
N5165 N 0.83186 0.89741 0.27332 0.0
H5166 H 0.76247 0.1315 0.7665 0.0
H5167 H 0.73356 0.22409 0.74308 0.0
H5168 H 0.7148 0.13243 0.72459 0.0
H5169 H 0.78934 0.22093 0.76725 0.0
H5170 H 0.72718 0.1903 0.73291 0.0
H5171 H 0.77387 0.16452 0.76442 0.0
C5172 C 0.75465 0.13862 0.7566 0.0
C5173 C 0.73777 0.12943 0.74573 0.0
C5174 C 0.74093 0.19714 0.74008 0.0
C5175 C 0.75049 0.16679 0.74322 0.0
C5176 C 0.74439 0.21621 0.74607 0.0
C5177 C 0.76175 0.22484 0.75625 0.0
C5178 C 0.75489 0.18703 0.74482 0.0
C5179 C 0.77568 0.21453 0.75954 0.0
C5180 C 0.76118 0.15734 0.75525 0.0
C5181 C 0.72804 0.13908 0.73305 0.0
N5182 N 0.77186 0.19602 0.75401 0.0
N5183 N 0.73444 0.15742 0.73233 0.0
loop_
_geom_bond_atom_site_label_1
_geom_bond_atom_site_label_2
_geom_bond_distance
_geom_bond_site_symmetry_2
_ccdc_geom_bond_type
Li0 N17 1.990 1_455 S
Li0 O60 1.956 . S
Li0 O61 1.970 . S
Li0 O62 1.961 . S
Li1 N25 1.990 . S
Li1 O60 1.970 . S
Li1 O61 1.956 . S
Li1 O63 1.961 . S
Li2 N47 1.990 . S
Li2 O60 1.961 . S
Li2 O62 1.956 . S
Li2 O63 1.970 . S
Li3 N53 1.990 . S
Li3 O61 1.961 . S
Li3 O62 1.970 . S
Li3 O63 1.956 . S
C4 C6 1.348 . S
C4 C7 1.356 . S
C4 O60 1.325 . S
N5 C8 1.314 . S
N5 C9 1.279 . S
C6 C4 1.348 . S
C6 C8 1.353 . S
C6 H64 0.929 . S
C7 C4 1.356 . S
C7 C9 1.358 . S
C7 H65 0.930 . S
C8 N5 1.314 . S
C8 C6 1.353 . S
C8 H66 0.930 . S
C9 N5 1.279 . S
C9 C7 1.358 . S
C9 H67 0.930 . S
C10 C13 1.348 1_455 S
C10 C14 1.356 . S
C10 O61 1.325 . S
C11 N12 1.279 . S
C11 C14 1.358 1_655 S
C11 H68 0.930 . S
N12 C11 1.279 . S
N12 C15 1.314 . S
C13 C10 1.348 1_655 S
C13 C15 1.353 . S
C13 H69 0.929 . S
C14 C10 1.356 . S
C14 C11 1.358 1_455 S
C14 H70 0.930 . S
C15 N12 1.314 . S
C15 C13 1.353 . S
C15 H71 0.930 . S
C16 N17 1.314 . S
C16 C21 1.353 . S
C16 H22 0.930 . S
N17 Li0 1.990 1_655 S
N17 C16 1.314 . S
N17 C19 1.279 . S
C18 C19 1.358 . S
C18 C20 1.356 . S
C18 H72 0.930 . S
C19 N17 1.279 . S
C19 C18 1.358 . S
C19 H23 0.930 . S
C20 C18 1.356 . S
C20 C21 1.348 . S
C21 C16 1.353 . S
C21 C20 1.348 . S
C21 H73 0.929 . S
H22 C16 0.930 . S
H23 C19 0.930 . S
C24 N25 1.314 . S
C24 C26 1.353 . S
C24 H30 0.930 . S
N25 Li1 1.990 . S
N25 C24 1.314 . S
N25 C28 1.279 . S
C26 C24 1.353 . S
C26 C29 1.348 . S
C26 H74 0.929 . S
C27 C28 1.358 . S
C27 C29 1.356 . S
C27 H75 0.930 . S
C28 N25 1.279 . S
C28 C27 1.358 . S
C28 H31 0.930 . S
C29 C26 1.348 . S
C29 C27 1.356 . S
H30 C24 0.930 . S
H31 C28 0.930 . S
C32 C34 1.348 . S
C32 C35 1.356 . S
C32 O62 1.325 . S
N33 C36 1.314 . S
N33 C37 1.279 . S
C34 C32 1.348 . S
C34 C36 1.353 . S
C34 H76 0.929 . S
C35 C32 1.356 . S
C35 C37 1.358 . S
C35 H77 0.930 . S
C36 N33 1.314 . S
C36 C34 1.353 . S
C36 H78 0.930 . S
C37 N33 1.279 . S
C37 C35 1.358 . S
C37 H79 0.930 . S
C38 C39 1.348 . S
C38 C40 1.356 . S
C38 O63 1.325 . S
C39 C38 1.348 . S
C39 C41 1.353 . S
C39 H80 0.929 . S
C40 C38 1.356 . S
C40 C42 1.358 . S
C40 H81 0.930 . S
C41 C39 1.353 . S
C41 N43 1.314 . S
C41 H82 0.930 . S
C42 C40 1.358 . S
C42 N43 1.279 . S
C42 H83 0.930 . S
N43 C41 1.314 . S
N43 C42 1.279 . S
C44 C46 1.353 . S
C44 N47 1.314 . S
C44 H50 0.930 . S
C45 N47 1.279 . S
C45 C48 1.358 . S
C45 H51 0.930 . S
C46 C44 1.353 . S
C46 C49 1.348 . S
C46 H84 0.929 . S
N47 Li2 1.990 . S
N47 C44 1.314 . S
N47 C45 1.279 . S
C48 C45 1.358 . S
C48 C49 1.356 . S
C48 H85 0.930 . S
C49 C46 1.348 . S
C49 C48 1.356 . S
H50 C44 0.930 . S
H51 C45 0.930 . S
C52 N53 1.314 . S
C52 C54 1.353 . S
C52 H58 0.930 . S
N53 Li3 1.990 . S
N53 C52 1.314 . S
N53 C56 1.279 . S
C54 C52 1.353 . S
C54 C57 1.348 . S
C54 H86 0.929 . S
C55 C56 1.358 . S
C55 C57 1.356 . S
C55 H87 0.930 . S
C56 N53 1.279 . S
C56 C55 1.358 . S
C56 H59 0.930 . S
C57 C54 1.348 . S
C57 C55 1.356 . S
H58 C52 0.930 . S
H59 C56 0.930 . S
O60 Li0 1.956 . S
O60 Li1 1.970 . S
O60 Li2 1.961 . S
O60 C4 1.325 . S
O61 Li0 1.970 . S
O61 Li1 1.956 . S
O61 Li3 1.961 . S
O61 C10 1.325 . S
O62 Li0 1.961 . S
O62 Li2 1.956 . S
O62 Li3 1.970 . S
O62 C32 1.325 . S
O63 Li1 1.961 . S
O63 Li2 1.970 . S
O63 Li3 1.956 . S
O63 C38 1.325 . S
H64 C6 0.929 . S
H65 C7 0.930 . S
H66 C8 0.930 . S
H67 C9 0.930 . S
H68 C11 0.930 . S
H69 C13 0.929 . S
H70 C14 0.930 . S
H71 C15 0.930 . S
H72 C18 0.930 . S
H73 C21 0.929 . S
H74 C26 0.929 . S
H75 C27 0.930 . S
H76 C34 0.929 . S
H77 C35 0.930 . S
H78 C36 0.930 . S
H79 C37 0.930 . S
H80 C39 0.929 . S
H81 C40 0.930 . S
H82 C41 0.930 . S
H83 C42 0.930 . S
H84 C46 0.929 . S
H85 C48 0.930 . S
H86 C54 0.929 . S
H87 C55 0.930 . S
Li88 N105 1.990 . S
Li88 O148 1.956 . S
Li88 O149 1.970 . S
Li88 O150 1.961 1_455 S
Li89 N113 1.990 . S
Li89 O148 1.970 . S
Li89 O149 1.956 . S
Li89 O151 1.961 . S
Li90 N135 1.990 . S
Li90 O148 1.961 . S
Li90 O150 1.956 1_455 S
Li90 O151 1.970 . S
Li91 N141 1.990 . S
Li91 O149 1.961 1_655 S
Li91 O150 1.970 . S
Li91 O151 1.956 1_655 S
C92 C94 1.348 . S
C92 C95 1.356 . S
C92 O148 1.325 . S
N93 C96 1.314 . S
N93 C97 1.279 . S
C94 C92 1.348 . S
C94 C96 1.353 . S
C94 H152 0.929 . S
C95 C92 1.356 . S
C95 C97 1.358 . S
C95 H153 0.930 . S
C96 N93 1.314 . S
C96 C94 1.353 . S
C96 H154 0.930 . S
C97 N93 1.279 . S
C97 C95 1.358 . S
C97 H155 0.930 . S
C98 C101 1.348 . S
C98 C102 1.356 . S
C98 O149 1.325 . S
C99 N100 1.279 . S
C99 C102 1.358 . S
C99 H156 0.930 . S
N100 C99 1.279 . S
N100 C103 1.314 . S
C101 C98 1.348 . S
C101 C103 1.353 . S
C101 H157 0.929 . S
C102 C98 1.356 . S
C102 C99 1.358 . S
C102 H158 0.930 . S
C103 N100 1.314 . S
C103 C101 1.353 . S
C103 H159 0.930 . S
C104 N105 1.314 . S
C104 C109 1.353 . S
C104 H110 0.930 1_455 S
N105 Li88 1.990 . S
N105 C104 1.314 . S
N105 C107 1.279 . S
C106 C107 1.358 . S
C106 C108 1.356 . S
C106 H160 0.930 . S
C107 N105 1.279 . S
C107 C106 1.358 . S
C107 H111 0.930 . S
C108 C106 1.356 . S
C108 C109 1.348 . S
C109 C104 1.353 . S
C109 C108 1.348 . S
C109 H161 0.929 1_455 S
H110 C104 0.930 1_655 S
H111 C107 0.930 . S
C112 N113 1.314 . S
C112 C114 1.353 . S
C112 H118 0.930 . S
N113 Li89 1.990 . S
N113 C112 1.314 . S
N113 C116 1.279 . S
C114 C112 1.353 . S
C114 C117 1.348 . S
C114 H162 0.929 . S
C115 C116 1.358 . S
C115 C117 1.356 . S
C115 H163 0.930 . S
C116 N113 1.279 . S
C116 C115 1.358 . S
C116 H119 0.930 . S
C117 C114 1.348 . S
C117 C115 1.356 . S
H118 C112 0.930 . S
H119 C116 0.930 . S
C120 C122 1.348 . S
C120 C123 1.356 . S
C120 O150 1.325 . S
N121 C124 1.314 . S
N121 C125 1.279 . S
C122 C120 1.348 . S
C122 C124 1.353 . S
C122 H164 0.929 . S
C123 C120 1.356 . S
C123 C125 1.358 . S
C123 H165 0.930 . S
C124 N121 1.314 . S
C124 C122 1.353 . S
C124 H166 0.930 . S
C125 N121 1.279 . S
C125 C123 1.358 . S
C125 H167 0.930 . S
C126 C127 1.348 . S
C126 C128 1.356 . S
C126 O151 1.325 . S
C127 C126 1.348 . S
C127 C129 1.353 . S
C127 H168 0.940 . S
C128 C126 1.356 . S
C128 C130 1.358 . S
C128 H169 0.930 . S
C129 C127 1.353 . S
C129 N131 1.314 . S
C129 H170 0.931 . S
C130 C128 1.358 . S
C130 N131 1.279 . S
C130 H171 0.930 . S
N131 C129 1.314 . S
N131 C130 1.279 . S
C132 C134 1.353 . S
C132 N135 1.314 . S
C132 H138 0.930 . S
C133 N135 1.279 1_655 S
C133 C136 1.358 . S
C133 H139 0.930 . S
C134 C132 1.353 . S
C134 C137 1.348 . S
C134 H172 0.929 . S
N135 Li90 1.990 . S
N135 C132 1.314 . S
N135 C133 1.279 1_455 S
C136 C133 1.358 . S
C136 C137 1.356 1_655 S
C136 H173 0.930 . S
C137 C134 1.348 . S
C137 C136 1.356 1_455 S
H138 C132 0.930 . S
H139 C133 0.930 . S
C140 N141 1.314 . S
C140 C142 1.353 . S
C140 H146 0.930 . S
N141 Li91 1.990 . S
N141 C140 1.314 . S
N141 C144 1.279 . S
C142 C140 1.353 . S
C142 C145 1.348 . S
C142 H174 0.929 . S
C143 C144 1.358 . S
C143 C145 1.356 . S
C143 H175 0.930 . S
C144 N141 1.279 . S
C144 C143 1.358 . S
C144 H147 0.930 . S
C145 C142 1.348 . S
C145 C143 1.356 . S
H146 C140 0.930 . S
H147 C144 0.930 . S
O148 Li88 1.956 . S
O148 Li89 1.970 . S
O148 Li90 1.961 . S
O148 C92 1.325 . S
O149 Li88 1.970 . S
O149 Li89 1.956 . S
O149 Li91 1.961 1_455 S
O149 C98 1.325 . S
O150 Li88 1.961 1_655 S
O150 Li90 1.956 1_655 S
O150 Li91 1.970 . S
O150 C120 1.325 . S
O151 Li89 1.961 . S
O151 Li90 1.970 . S
O151 Li91 1.956 1_455 S
O151 C126 1.325 . S
H152 C94 0.929 . S
H153 C95 0.930 . S
H154 C96 0.930 . S
H155 C97 0.930 . S
H156 C99 0.930 . S
H157 C101 0.929 . S
H158 C102 0.930 . S
H159 C103 0.930 . S
H160 C106 0.930 . S
H161 C109 0.929 1_655 S
H162 C114 0.929 . S
H163 C115 0.930 . S
H164 C122 0.929 . S
H165 C123 0.930 . S
H166 C124 0.930 . S
H167 C125 0.930 . S
H168 C127 0.940 . S
H169 C128 0.930 . S
H170 C129 0.931 . S
H171 C130 0.930 . S
H172 C134 0.929 . S
H173 C136 0.930 . S
H174 C142 0.929 . S
H175 C143 0.930 . S
Li176 N193 1.990 . S
Li176 O236 1.956 . S
Li176 O237 1.970 . S
Li176 O238 1.961 . S
Li177 N201 1.990 . S
Li177 O236 1.970 . S
Li177 O237 1.956 . S
Li177 O239 1.961 . S
Li178 N223 1.990 . S
Li178 O236 1.961 . S
Li178 O238 1.956 . S
Li178 O239 1.970 . S
Li179 N229 1.990 . S
Li179 O237 1.961 . S
Li179 O238 1.970 . S
Li179 O239 1.956 . S
C180 C182 1.348 . S
C180 C183 1.356 . S
C180 O236 1.325 . S
N181 C184 1.314 . S
N181 C185 1.279 . S
C182 C180 1.348 . S
C182 C184 1.353 . S
C182 H240 0.929 . S
C183 C180 1.356 . S
C183 C185 1.358 . S
C183 H241 0.930 . S
C184 N181 1.314 . S
C184 C182 1.353 . S
C184 H242 0.930 . S
C185 N181 1.279 . S
C185 C183 1.358 . S
C185 H243 0.930 . S
C186 C189 1.348 . S
C186 C190 1.356 . S
C186 O237 1.325 . S
C187 N188 1.279 . S
C187 C190 1.358 . S
C187 H244 0.930 . S
N188 C187 1.279 . S
N188 C191 1.314 . S
C189 C186 1.348 . S
C189 C191 1.353 . S
C189 H245 0.929 . S
C190 C186 1.356 . S
C190 C187 1.358 . S
C190 H246 0.930 . S
C191 N188 1.314 . S
C191 C189 1.353 . S
C191 H247 0.930 . S
C192 N193 1.314 . S
C192 C197 1.353 . S
C192 H198 0.930 . S
N193 Li176 1.990 . S
N193 C192 1.314 . S
N193 C195 1.279 . S
C194 C195 1.358 . S
C194 C196 1.356 . S
C194 H248 0.930 . S
C195 N193 1.279 . S
C195 C194 1.358 . S
C195 H199 0.930 . S
C196 C194 1.356 . S
C196 C197 1.348 . S
C197 C192 1.353 . S
C197 C196 1.348 . S
C197 H249 0.929 . S
H198 C192 0.930 . S
H199 C195 0.930 . S
C200 N201 1.314 . S
C200 C202 1.353 . S
C200 H206 0.930 . S
N201 Li177 1.990 . S
N201 C200 1.314 . S
N201 C204 1.279 . S
C202 C200 1.353 . S
C202 C205 1.348 . S
C202 H250 0.929 . S
C203 C204 1.358 . S
C203 C205 1.356 . S
C203 H251 0.930 . S
C204 N201 1.279 . S
C204 C203 1.358 . S
C204 H207 0.930 . S
C205 C202 1.348 . S
C205 C203 1.356 . S
H206 C200 0.930 . S
H207 C204 0.930 . S
C208 C210 1.348 . S
C208 C211 1.356 . S
C208 O238 1.325 . S
N209 C212 1.314 . S
N209 C213 1.279 . S
C210 C208 1.348 . S
C210 C212 1.353 . S
C210 H252 0.929 . S
C211 C208 1.356 . S
C211 C213 1.358 . S
C211 H253 0.930 . S
C212 N209 1.314 . S
C212 C210 1.353 . S
C212 H254 0.930 . S
C213 N209 1.279 . S
C213 C211 1.358 . S
C213 H255 0.930 . S
C214 C215 1.348 . S
C214 C216 1.356 . S
C214 O239 1.325 . S
C215 C214 1.348 . S
C215 C217 1.353 . S
C215 H256 0.929 . S
C216 C214 1.356 . S
C216 C218 1.358 . S
C216 H257 0.930 . S
C217 C215 1.353 . S
C217 N219 1.314 . S
C217 H258 0.930 . S
C218 C216 1.358 . S
C218 N219 1.279 . S
C218 H259 0.930 . S
N219 C217 1.314 . S
N219 C218 1.279 . S
C220 C222 1.353 . S
C220 N223 1.314 . S
C220 H226 0.930 . S
C221 N223 1.279 . S
C221 C224 1.358 . S
C221 H227 0.930 . S
C222 C220 1.353 . S
C222 C225 1.348 . S
C222 H260 0.929 . S
N223 Li178 1.990 . S
N223 C220 1.314 . S
N223 C221 1.279 . S
C224 C221 1.358 . S
C224 C225 1.356 . S
C224 H261 0.930 . S
C225 C222 1.348 . S
C225 C224 1.356 . S
H226 C220 0.930 . S
H227 C221 0.930 . S
C228 N229 1.314 . S
C228 C230 1.353 . S
C228 H234 0.930 . S
N229 Li179 1.990 . S
N229 C228 1.314 . S
N229 C232 1.279 . S
C230 C228 1.353 . S
C230 C233 1.348 . S
C230 H262 0.929 . S
C231 C232 1.358 . S
C231 C233 1.356 . S
C231 H263 0.930 . S
C232 N229 1.279 . S
C232 C231 1.358 . S
C232 H235 0.930 . S
C233 C230 1.348 . S
C233 C231 1.356 . S
H234 C228 0.930 . S
H235 C232 0.930 . S
O236 Li176 1.956 . S
O236 Li177 1.970 . S
O236 Li178 1.961 . S
O236 C180 1.325 . S
O237 Li176 1.970 . S
O237 Li177 1.956 . S
O237 Li179 1.961 . S
O237 C186 1.325 . S
O238 Li176 1.961 . S
O238 Li178 1.956 . S
O238 Li179 1.970 . S
O238 C208 1.325 . S
O239 Li177 1.961 . S
O239 Li178 1.970 . S
O239 Li179 1.956 . S
O239 C214 1.325 . S
H240 C182 0.929 . S
H241 C183 0.930 . S
H242 C184 0.930 . S
H243 C185 0.930 . S
H244 C187 0.930 . S
H245 C189 0.929 . S
H246 C190 0.930 . S
H247 C191 0.930 . S
H248 C194 0.930 . S
H249 C197 0.929 . S
H250 C202 0.929 . S
H251 C203 0.930 . S
H252 C210 0.929 . S
H253 C211 0.930 . S
H254 C212 0.930 . S
H255 C213 0.930 . S
H256 C215 0.929 . S
H257 C216 0.930 . S
H258 C217 0.930 . S
H259 C218 0.930 . S
H260 C222 0.929 . S
H261 C224 0.930 . S
H262 C230 0.929 . S
H263 C231 0.930 . S
Li264 N281 1.990 . S
Li264 O324 1.956 . S
Li264 O325 1.970 . S
Li264 O326 1.961 . S
Li265 N289 1.990 . S
Li265 O324 1.970 . S
Li265 O325 1.956 . S
Li265 O327 1.961 . S
Li266 N311 1.990 . S
Li266 O324 1.961 . S
Li266 O326 1.956 . S
Li266 O327 1.970 . S
Li267 N317 1.990 . S
Li267 O325 1.961 . S
Li267 O326 1.970 . S
Li267 O327 1.956 . S
C268 C270 1.348 . S
C268 C271 1.356 . S
C268 O324 1.325 . S
N269 C272 1.314 . S
N269 C273 1.279 . S
C270 C268 1.348 . S
C270 C272 1.353 . S
C270 H328 0.929 . S
C271 C268 1.356 . S
C271 C273 1.358 . S
C271 H329 0.930 . S
C272 N269 1.314 . S
C272 C270 1.353 . S
C272 H330 0.930 . S
C273 N269 1.279 . S
C273 C271 1.358 . S
C273 H331 0.930 . S
C274 C277 1.348 . S
C274 C278 1.356 . S
C274 O325 1.325 . S
C275 N276 1.279 . S
C275 C278 1.358 . S
C275 H332 0.930 . S
N276 C275 1.279 . S
N276 C279 1.314 . S
C277 C274 1.348 . S
C277 C279 1.353 . S
C277 H333 0.929 . S
C278 C274 1.356 . S
C278 C275 1.358 . S
C278 H334 0.930 . S
C279 N276 1.314 . S
C279 C277 1.353 . S
C279 H335 0.930 . S
C280 N281 1.314 . S
C280 C285 1.353 . S
C280 H286 0.930 . S
N281 Li264 1.990 . S
N281 C280 1.314 . S
N281 C283 1.279 . S
C282 C283 1.358 . S
C282 C284 1.356 . S
C282 H336 0.930 . S
C283 N281 1.279 . S
C283 C282 1.358 . S
C283 H287 0.930 . S
C284 C282 1.356 . S
C284 C285 1.348 . S
C285 C280 1.353 . S
C285 C284 1.348 . S
C285 H337 0.929 . S
H286 C280 0.930 . S
H287 C283 0.930 . S
C288 N289 1.314 . S
C288 C290 1.353 . S
C288 H294 0.930 . S
N289 Li265 1.990 . S
N289 C288 1.314 . S
N289 C292 1.279 . S
C290 C288 1.353 . S
C290 C293 1.348 . S
C290 H338 0.929 . S
C291 C292 1.358 . S
C291 C293 1.356 . S
C291 H339 0.930 . S
C292 N289 1.279 . S
C292 C291 1.358 . S
C292 H295 0.930 . S
C293 C290 1.348 . S
C293 C291 1.356 . S
H294 C288 0.930 . S
H295 C292 0.930 . S
C296 C298 1.348 . S
C296 C299 1.356 . S
C296 O326 1.325 . S
N297 C300 1.314 . S
N297 C301 1.279 . S
C298 C296 1.348 . S
C298 C300 1.353 . S
C298 H340 0.929 . S
C299 C296 1.356 . S
C299 C301 1.358 . S
C299 H341 0.930 . S
C300 N297 1.314 . S
C300 C298 1.353 . S
C300 H342 0.930 . S
C301 N297 1.279 . S
C301 C299 1.358 . S
C301 H343 0.930 . S
C302 C303 1.348 . S
C302 C304 1.356 . S
C302 O327 1.325 . S
C303 C302 1.348 . S
C303 C305 1.353 . S
C303 H344 0.929 . S
C304 C302 1.356 . S
C304 C306 1.358 . S
C304 H345 0.930 . S
C305 C303 1.353 . S
C305 N307 1.314 . S
C305 H346 0.930 . S
C306 C304 1.358 . S
C306 N307 1.279 . S
C306 H347 0.930 . S
N307 C305 1.314 . S
N307 C306 1.279 . S
C308 C310 1.353 . S
C308 N311 1.314 . S
C308 H314 0.930 . S
C309 N311 1.279 . S
C309 C312 1.358 . S
C309 H315 0.930 . S
C310 C308 1.353 . S
C310 C313 1.348 . S
C310 H348 0.929 . S
N311 Li266 1.990 . S
N311 C308 1.314 . S
N311 C309 1.279 . S
C312 C309 1.358 . S
C312 C313 1.356 . S
C312 H349 0.930 . S
C313 C310 1.348 . S
C313 C312 1.356 . S
H314 C308 0.930 . S
H315 C309 0.930 . S
C316 N317 1.314 . S
C316 C318 1.353 . S
C316 H322 0.930 . S
N317 Li267 1.990 . S
N317 C316 1.314 . S
N317 C320 1.279 . S
C318 C316 1.353 . S
C318 C321 1.348 . S
C318 H350 0.929 . S
C319 C320 1.358 . S
C319 C321 1.356 . S
C319 H351 0.930 . S
C320 N317 1.279 . S
C320 C319 1.358 . S
C320 H323 0.930 . S
C321 C318 1.348 . S
C321 C319 1.356 . S
H322 C316 0.930 . S
H323 C320 0.930 . S
O324 Li264 1.956 . S
O324 Li265 1.970 . S
O324 Li266 1.961 . S
O324 C268 1.325 . S
O325 Li264 1.970 . S
O325 Li265 1.956 . S
O325 Li267 1.961 . S
O325 C274 1.325 . S
O326 Li264 1.961 . S
O326 Li266 1.956 . S
O326 Li267 1.970 . S
O326 C296 1.325 . S
O327 Li265 1.961 . S
O327 Li266 1.970 . S
O327 Li267 1.956 . S
O327 C302 1.325 . S
H328 C270 0.929 . S
H329 C271 0.930 . S
H330 C272 0.930 . S
H331 C273 0.930 . S
H332 C275 0.930 . S
H333 C277 0.929 . S
H334 C278 0.930 . S
H335 C279 0.930 . S
H336 C282 0.930 . S
H337 C285 0.929 . S
H338 C290 0.929 . S
H339 C291 0.930 . S
H340 C298 0.929 . S
H341 C299 0.930 . S
H342 C300 0.930 . S
H343 C301 0.930 . S
H344 C303 0.929 . S
H345 C304 0.930 . S
H346 C305 0.930 . S
H347 C306 0.930 . S
H348 C310 0.929 . S
H349 C312 0.930 . S
H350 C318 0.929 . S
H351 C319 0.930 . S
Li352 N369 1.990 . S
Li352 O412 1.956 . S
Li352 O413 1.970 . S
Li352 O414 1.961 . S
Li353 N377 1.990 . S
Li353 O412 1.970 . S
Li353 O413 1.956 . S
Li353 O415 1.961 . S
Li354 N399 1.990 . S
Li354 O412 1.961 . S
Li354 O414 1.956 . S
Li354 O415 1.970 . S
Li355 N405 1.990 . S
Li355 O413 1.961 . S
Li355 O414 1.970 . S
Li355 O415 1.956 . S
C356 C358 1.348 . S
C356 C359 1.356 . S
C356 O412 1.325 . S
N357 C360 1.314 . S
N357 C361 1.279 . S
C358 C356 1.348 . S
C358 C360 1.353 . S
C358 H416 0.929 . S
C359 C356 1.356 . S
C359 C361 1.358 . S
C359 H417 0.930 . S
C360 N357 1.314 . S
C360 C358 1.353 . S
C360 H418 0.930 . S
C361 N357 1.279 . S
C361 C359 1.358 . S
C361 H419 0.930 . S
C362 C365 1.348 . S
C362 C366 1.356 . S
C362 O413 1.325 . S
C363 N364 1.279 . S
C363 C366 1.358 . S
C363 H420 0.930 . S
N364 C363 1.279 . S
N364 C367 1.314 . S
C365 C362 1.348 . S
C365 C367 1.353 . S
C365 H421 0.929 . S
C366 C362 1.356 . S
C366 C363 1.358 . S
C366 H422 0.930 . S
C367 N364 1.314 . S
C367 C365 1.353 . S
C367 H423 0.930 . S
C368 N369 1.314 . S
C368 C373 1.353 . S
C368 H374 0.930 . S
N369 Li352 1.990 . S
N369 C368 1.314 . S
N369 C371 1.279 . S
C370 C371 1.358 . S
C370 C372 1.356 . S
C370 H424 0.930 . S
C371 N369 1.279 . S
C371 C370 1.358 . S
C371 H375 0.930 . S
C372 C370 1.356 . S
C372 C373 1.348 . S
C373 C368 1.353 . S
C373 C372 1.348 . S
C373 H425 0.929 . S
H374 C368 0.930 . S
H375 C371 0.930 . S
C376 N377 1.314 . S
C376 C378 1.353 . S
C376 H382 0.930 . S
N377 Li353 1.990 . S
N377 C376 1.314 . S
N377 C380 1.279 . S
C378 C376 1.353 . S
C378 C381 1.348 . S
C378 H426 0.929 . S
C379 C380 1.358 . S
C379 C381 1.356 . S
C379 H427 0.930 . S
C380 N377 1.279 . S
C380 C379 1.358 . S
C380 H383 0.930 . S
C381 C378 1.348 . S
C381 C379 1.356 . S
H382 C376 0.930 . S
H383 C380 0.930 . S
C384 C386 1.348 1_455 S
C384 C387 1.356 . S
C384 O414 1.325 . S
N385 C388 1.314 . S
N385 C389 1.279 . S
C386 C384 1.348 1_655 S
C386 C388 1.353 . S
C386 H428 0.929 . S
C387 C384 1.356 . S
C387 C389 1.358 1_455 S
C387 H429 0.930 . S
C388 N385 1.314 . S
C388 C386 1.353 . S
C388 H430 0.930 . S
C389 N385 1.279 . S
C389 C387 1.358 1_655 S
C389 H431 0.930 . S
C390 C391 1.348 . S
C390 C392 1.356 . S
C390 O415 1.325 . S
C391 C390 1.348 . S
C391 C393 1.353 . S
C391 H432 0.929 . S
C392 C390 1.356 . S
C392 C394 1.358 . S
C392 H433 0.930 . S
C393 C391 1.353 . S
C393 N395 1.314 . S
C393 H434 0.930 . S
C394 C392 1.358 . S
C394 N395 1.279 . S
C394 H435 0.930 . S
N395 C393 1.314 . S
N395 C394 1.279 . S
C396 C398 1.353 . S
C396 N399 1.314 . S
C396 H402 0.930 . S
C397 N399 1.279 . S
C397 C400 1.358 . S
C397 H403 0.930 . S
C398 C396 1.353 . S
C398 C401 1.348 . S
C398 H436 0.929 . S
N399 Li354 1.990 . S
N399 C396 1.314 . S
N399 C397 1.279 . S
C400 C397 1.358 . S
C400 C401 1.356 . S
C400 H437 0.930 . S
C401 C398 1.348 . S
C401 C400 1.356 . S
H402 C396 0.930 . S
H403 C397 0.930 . S
C404 N405 1.314 . S
C404 C406 1.353 1_455 S
C404 H410 0.930 . S
N405 Li355 1.990 . S
N405 C404 1.314 . S
N405 C408 1.279 . S
C406 C404 1.353 1_655 S
C406 C409 1.348 . S
C406 H438 0.929 . S
C407 C408 1.358 1_655 S
C407 C409 1.356 . S
C407 H439 0.930 . S
C408 N405 1.279 . S
C408 C407 1.358 1_455 S
C408 H411 0.930 . S
C409 C406 1.348 . S
C409 C407 1.356 . S
H410 C404 0.930 . S
H411 C408 0.930 . S
O412 Li352 1.956 . S
O412 Li353 1.970 . S
O412 Li354 1.961 . S
O412 C356 1.325 . S
O413 Li352 1.970 . S
O413 Li353 1.956 . S
O413 Li355 1.961 . S
O413 C362 1.325 . S
O414 Li352 1.961 . S
O414 Li354 1.956 . S
O414 Li355 1.970 . S
O414 C384 1.325 . S
O415 Li353 1.961 . S
O415 Li354 1.970 . S
O415 Li355 1.956 . S
O415 C390 1.325 . S
H416 C358 0.929 . S
H417 C359 0.930 . S
H418 C360 0.930 . S
H419 C361 0.930 . S
H420 C363 0.930 . S
H421 C365 0.929 . S
H422 C366 0.930 . S
H423 C367 0.930 . S
H424 C370 0.930 . S
H425 C373 0.929 . S
H426 C378 0.929 . S
H427 C379 0.930 . S
H428 C386 0.929 . S
H429 C387 0.930 . S
H430 C388 0.930 . S
H431 C389 0.930 . S
H432 C391 0.929 . S
H433 C392 0.930 . S
H434 C393 0.930 . S
H435 C394 0.930 . S
H436 C398 0.929 . S
H437 C400 0.930 . S
H438 C406 0.929 . S
H439 C407 0.930 . S
Li440 N457 1.990 . S
Li440 O500 1.956 . S
Li440 O501 1.970 . S
Li440 O502 1.961 . S
Li441 N465 1.990 . S
Li441 O500 1.970 . S
Li441 O501 1.956 . S
Li441 O503 1.961 . S
Li442 N487 1.990 . S
Li442 O500 1.961 . S
Li442 O502 1.956 . S
Li442 O503 1.970 . S
Li443 N493 1.990 . S
Li443 O501 1.961 . S
Li443 O502 1.970 . S
Li443 O503 1.956 . S
C444 C446 1.348 . S
C444 C447 1.356 . S
C444 O500 1.325 . S
N445 C448 1.314 . S
N445 C449 1.279 . S
C446 C444 1.348 . S
C446 C448 1.353 . S
C446 H504 0.929 . S
C447 C444 1.356 . S
C447 C449 1.358 . S
C447 H505 0.930 . S
C448 N445 1.314 . S
C448 C446 1.353 . S
C448 H506 0.930 . S
C449 N445 1.279 . S
C449 C447 1.358 . S
C449 H507 0.930 . S
C450 C453 1.348 . S
C450 C454 1.356 . S
C450 O501 1.325 . S
C451 N452 1.279 . S
C451 C454 1.358 . S
C451 H508 0.930 . S
N452 C451 1.279 . S
N452 C455 1.314 . S
C453 C450 1.348 . S
C453 C455 1.353 . S
C453 H509 0.929 . S
C454 C450 1.356 . S
C454 C451 1.358 . S
C454 H510 0.930 . S
C455 N452 1.314 . S
C455 C453 1.353 . S
C455 H511 0.930 . S
C456 N457 1.314 . S
C456 C461 1.353 . S
C456 H462 0.930 . S
N457 Li440 1.990 . S
N457 C456 1.314 . S
N457 C459 1.279 . S
C458 C459 1.358 . S
C458 C460 1.356 . S
C458 H512 0.930 . S
C459 N457 1.279 . S
C459 C458 1.358 . S
C459 H463 0.930 . S
C460 C458 1.356 . S
C460 C461 1.348 . S
C461 C456 1.353 . S
C461 C460 1.348 . S
C461 H513 0.929 . S
H462 C456 0.930 . S
H463 C459 0.930 . S
C464 N465 1.314 . S
C464 C466 1.353 . S
C464 H470 0.930 . S
N465 Li441 1.990 . S
N465 C464 1.314 . S
N465 C468 1.279 . S
C466 C464 1.353 . S
C466 C469 1.348 . S
C466 H514 0.929 . S
C467 C468 1.358 . S
C467 C469 1.356 . S
C467 H515 0.930 . S
C468 N465 1.279 . S
C468 C467 1.358 . S
C468 H471 0.930 . S
C469 C466 1.348 . S
C469 C467 1.356 . S
H470 C464 0.930 . S
H471 C468 0.930 . S
C472 C474 1.348 . S
C472 C475 1.356 . S
C472 O502 1.325 . S
N473 C476 1.314 . S
N473 C477 1.279 . S
C474 C472 1.348 . S
C474 C476 1.353 . S
C474 H516 0.929 . S
C475 C472 1.356 . S
C475 C477 1.358 . S
C475 H517 0.930 . S
C476 N473 1.314 . S
C476 C474 1.353 . S
C476 H518 0.930 . S
C477 N473 1.279 . S
C477 C475 1.358 . S
C477 H519 0.930 . S
C478 C479 1.348 . S
C478 C480 1.356 . S
C478 O503 1.325 . S
C479 C478 1.348 . S
C479 C481 1.353 . S
C479 H520 0.929 . S
C480 C478 1.356 . S
C480 C482 1.358 . S
C480 H521 0.930 . S
C481 C479 1.353 . S
C481 N483 1.314 . S
C481 H522 0.930 . S
C482 C480 1.358 . S
C482 N483 1.279 . S
C482 H523 0.930 . S
N483 C481 1.314 . S
N483 C482 1.279 . S
C484 C486 1.353 . S
C484 N487 1.314 . S
C484 H490 0.930 . S
C485 N487 1.279 . S
C485 C488 1.358 . S
C485 H491 0.930 . S
C486 C484 1.353 . S
C486 C489 1.348 . S
C486 H524 0.929 . S
N487 Li442 1.990 . S
N487 C484 1.314 . S
N487 C485 1.279 . S
C488 C485 1.358 . S
C488 C489 1.356 . S
C488 H525 0.930 . S
C489 C486 1.348 . S
C489 C488 1.356 . S
H490 C484 0.930 . S
H491 C485 0.930 . S
C492 N493 1.314 . S
C492 C494 1.353 . S
C492 H498 0.930 . S
N493 Li443 1.990 . S
N493 C492 1.314 . S
N493 C496 1.279 . S
C494 C492 1.353 . S
C494 C497 1.348 . S
C494 H526 0.929 . S
C495 C496 1.358 . S
C495 C497 1.356 . S
C495 H527 0.930 . S
C496 N493 1.279 . S
C496 C495 1.358 . S
C496 H499 0.930 . S
C497 C494 1.348 . S
C497 C495 1.356 . S
H498 C492 0.930 . S
H499 C496 0.930 . S
O500 Li440 1.956 . S
O500 Li441 1.970 . S
O500 Li442 1.961 . S
O500 C444 1.325 . S
O501 Li440 1.970 . S
O501 Li441 1.956 . S
O501 Li443 1.961 . S
O501 C450 1.325 . S
O502 Li440 1.961 . S
O502 Li442 1.956 . S
O502 Li443 1.970 . S
O502 C472 1.325 . S
O503 Li441 1.961 . S
O503 Li442 1.970 . S
O503 Li443 1.956 . S
O503 C478 1.325 . S
H504 C446 0.929 . S
H505 C447 0.930 . S
H506 C448 0.930 . S
H507 C449 0.930 . S
H508 C451 0.930 . S
H509 C453 0.929 . S
H510 C454 0.930 . S
H511 C455 0.930 . S
H512 C458 0.930 . S
H513 C461 0.929 . S
H514 C466 0.929 . S
H515 C467 0.930 . S
H516 C474 0.929 . S
H517 C475 0.930 . S
H518 C476 0.930 . S
H519 C477 0.930 . S
H520 C479 0.929 . S
H521 C480 0.930 . S
H522 C481 0.930 . S
H523 C482 0.930 . S
H524 C486 0.929 . S
H525 C488 0.930 . S
H526 C494 0.929 . S
H527 C495 0.930 . S
Li528 N545 1.990 . S
Li528 O588 1.956 . S
Li528 O589 1.970 . S
Li528 O590 1.961 . S
Li529 N553 1.990 . S
Li529 O588 1.970 . S
Li529 O589 1.956 . S
Li529 O591 1.961 . S
Li530 N575 1.990 . S
Li530 O588 1.961 . S
Li530 O590 1.956 . S
Li530 O591 1.970 . S
Li531 N581 1.990 . S
Li531 O589 1.961 . S
Li531 O590 1.970 . S
Li531 O591 1.956 . S
C532 C534 1.348 . S
C532 C535 1.356 . S
C532 O588 1.325 . S
N533 C536 1.314 . S
N533 C537 1.279 . S
C534 C532 1.348 . S
C534 C536 1.353 . S
C534 H592 0.929 . S
C535 C532 1.356 . S
C535 C537 1.358 . S
C535 H593 0.930 . S
C536 N533 1.314 . S
C536 C534 1.353 . S
C536 H594 0.930 . S
C537 N533 1.279 . S
C537 C535 1.358 . S
C537 H595 0.930 . S
C538 C541 1.348 . S
C538 C542 1.356 . S
C538 O589 1.325 . S
C539 N540 1.279 . S
C539 C542 1.358 . S
C539 H596 0.930 . S
N540 C539 1.279 . S
N540 C543 1.314 . S
C541 C538 1.348 . S
C541 C543 1.353 . S
C541 H597 0.929 . S
C542 C538 1.356 . S
C542 C539 1.358 . S
C542 H598 0.930 . S
C543 N540 1.314 . S
C543 C541 1.353 . S
C543 H599 0.930 . S
C544 N545 1.314 . S
C544 C549 1.353 . S
C544 H550 0.930 . S
N545 Li528 1.990 . S
N545 C544 1.314 . S
N545 C547 1.279 . S
C546 C547 1.358 . S
C546 C548 1.356 . S
C546 H600 0.930 . S
C547 N545 1.279 . S
C547 C546 1.358 . S
C547 H551 0.930 . S
C548 C546 1.356 . S
C548 C549 1.348 . S
C549 C544 1.353 . S
C549 C548 1.348 . S
C549 H601 0.929 . S
H550 C544 0.930 . S
H551 C547 0.930 . S
C552 N553 1.314 . S
C552 C554 1.353 . S
C552 H558 0.930 . S
N553 Li529 1.990 . S
N553 C552 1.314 . S
N553 C556 1.279 . S
C554 C552 1.353 . S
C554 C557 1.348 . S
C554 H602 0.929 . S
C555 C556 1.358 . S
C555 C557 1.356 . S
C555 H603 0.930 . S
C556 N553 1.279 . S
C556 C555 1.358 . S
C556 H559 0.930 . S
C557 C554 1.348 . S
C557 C555 1.356 . S
H558 C552 0.930 . S
H559 C556 0.930 . S
C560 C562 1.348 . S
C560 C563 1.356 . S
C560 O590 1.325 . S
N561 C564 1.314 . S
N561 C565 1.279 . S
C562 C560 1.348 . S
C562 C564 1.353 . S
C562 H604 0.929 . S
C563 C560 1.356 . S
C563 C565 1.358 . S
C563 H605 0.930 . S
C564 N561 1.314 . S
C564 C562 1.353 . S
C564 H606 0.930 . S
C565 N561 1.279 . S
C565 C563 1.358 . S
C565 H607 0.930 . S
C566 C567 1.348 . S
C566 C568 1.356 . S
C566 O591 1.325 . S
C567 C566 1.348 . S
C567 C569 1.353 . S
C567 H608 0.929 . S
C568 C566 1.356 . S
C568 C570 1.358 . S
C568 H609 0.930 . S
C569 C567 1.353 . S
C569 N571 1.314 . S
C569 H610 0.930 . S
C570 C568 1.358 . S
C570 N571 1.279 . S
C570 H611 0.930 . S
N571 C569 1.314 . S
N571 C570 1.279 . S
C572 C574 1.353 . S
C572 N575 1.314 . S
C572 H578 0.930 . S
C573 N575 1.279 . S
C573 C576 1.358 . S
C573 H579 0.930 . S
C574 C572 1.353 . S
C574 C577 1.348 . S
C574 H612 0.929 . S
N575 Li530 1.990 . S
N575 C572 1.314 . S
N575 C573 1.279 . S
C576 C573 1.358 . S
C576 C577 1.356 . S
C576 H613 0.930 . S
C577 C574 1.348 . S
C577 C576 1.356 . S
H578 C572 0.930 . S
H579 C573 0.930 . S
C580 N581 1.314 . S
C580 C582 1.353 . S
C580 H586 0.930 . S
N581 Li531 1.990 . S
N581 C580 1.314 . S
N581 C584 1.279 . S
C582 C580 1.353 . S
C582 C585 1.348 . S
C582 H614 0.929 . S
C583 C584 1.358 . S
C583 C585 1.356 . S
C583 H615 0.930 . S
C584 N581 1.279 . S
C584 C583 1.358 . S
C584 H587 0.930 . S
C585 C582 1.348 . S
C585 C583 1.356 . S
H586 C580 0.930 . S
H587 C584 0.930 . S
O588 Li528 1.956 . S
O588 Li529 1.970 . S
O588 Li530 1.961 . S
O588 C532 1.325 . S
O589 Li528 1.970 . S
O589 Li529 1.956 . S
O589 Li531 1.961 . S
O589 C538 1.325 . S
O590 Li528 1.961 . S
O590 Li530 1.956 . S
O590 Li531 1.970 . S
O590 C560 1.325 . S
O591 Li529 1.961 . S
O591 Li530 1.970 . S
O591 Li531 1.956 . S
O591 C566 1.325 . S
H592 C534 0.929 . S
H593 C535 0.930 . S
H594 C536 0.930 . S
H595 C537 0.930 . S
H596 C539 0.930 . S
H597 C541 0.929 . S
H598 C542 0.930 . S
H599 C543 0.930 . S
H600 C546 0.930 . S
H601 C549 0.929 . S
H602 C554 0.929 . S
H603 C555 0.930 . S
H604 C562 0.929 . S
H605 C563 0.930 . S
H606 C564 0.930 . S
H607 C565 0.930 . S
H608 C567 0.929 . S
H609 C568 0.930 . S
H610 C569 0.930 . S
H611 C570 0.930 . S
H612 C574 0.929 . S
H613 C576 0.930 . S
H614 C582 0.929 . S
H615 C583 0.930 . S
Li616 N633 1.990 . S
Li616 O676 1.956 1_455 S
Li616 O677 1.970 . S
Li616 O678 1.961 . S
Li617 N641 1.990 . S
Li617 O676 1.970 . S
Li617 O677 1.956 1_655 S
Li617 O679 1.961 . S
Li618 N663 1.993 . S
Li618 O676 1.956 . S
Li618 O678 1.960 1_655 S
Li618 O679 1.970 . S
Li619 N669 1.990 . S
Li619 O677 1.961 . S
Li619 O678 1.970 . S
Li619 O679 1.956 1_455 S
C620 C622 1.348 . S
C620 C623 1.356 . S
C620 O676 1.325 . S
N621 C624 1.314 . S
N621 C625 1.279 . S
C622 C620 1.348 . S
C622 C624 1.353 . S
C622 H680 0.929 . S
C623 C620 1.356 . S
C623 C625 1.358 . S
C623 H681 0.930 . S
C624 N621 1.314 . S
C624 C622 1.353 . S
C624 H682 0.930 . S
C625 N621 1.279 . S
C625 C623 1.358 . S
C625 H683 0.930 1_556 S
C626 C629 1.348 1_455 S
C626 C630 1.356 . S
C626 O677 1.325 . S
C627 N628 1.279 . S
C627 C630 1.358 . S
C627 H684 0.930 . S
N628 C627 1.279 . S
N628 C631 1.301 1_455 S
C629 C626 1.348 1_655 S
C629 C631 1.351 . S
C629 H685 0.929 . S
C630 C626 1.356 . S
C630 C627 1.358 . S
C630 H686 0.930 . S
C631 N628 1.301 1_655 S
C631 C629 1.351 . S
C631 H687 0.950 . S
C632 N633 1.314 . S
C632 C637 1.353 . S
C632 H638 0.930 . S
N633 Li616 1.990 . S
N633 C632 1.314 . S
N633 C635 1.279 1_455 S
C634 C635 1.358 . S
C634 C636 1.356 1_655 S
C634 H688 0.930 . S
C635 N633 1.279 1_655 S
C635 C634 1.358 . S
C635 H639 0.930 . S
C636 C634 1.356 1_455 S
C636 C637 1.348 . S
C637 C632 1.353 . S
C637 C636 1.348 . S
C637 H689 0.929 . S
H638 C632 0.930 . S
H639 C635 0.930 . S
C640 N641 1.314 . S
C640 C642 1.353 . S
C640 H646 0.930 . S
N641 Li617 1.990 . S
N641 C640 1.314 . S
N641 C644 1.279 . S
C642 C640 1.353 . S
C642 C645 1.348 . S
C642 H690 0.929 . S
C643 C644 1.358 . S
C643 C645 1.356 . S
C643 H691 0.930 . S
C644 N641 1.279 . S
C644 C643 1.358 . S
C644 H647 0.930 . S
C645 C642 1.348 . S
C645 C643 1.356 . S
H646 C640 0.930 . S
H647 C644 0.930 . S
C648 C650 1.348 . S
C648 C651 1.356 . S
C648 O678 1.325 . S
N649 C652 1.314 . S
N649 C653 1.279 . S
C650 C648 1.348 . S
C650 C652 1.353 . S
C650 H692 0.929 . S
C651 C648 1.356 . S
C651 C653 1.358 . S
C651 H693 0.930 . S
C652 N649 1.314 . S
C652 C650 1.353 . S
C652 H694 0.930 . S
C653 N649 1.279 . S
C653 C651 1.358 . S
C653 H695 0.930 1_556 S
C654 C655 1.348 . S
C654 C656 1.356 . S
C654 O679 1.325 . S
C655 C654 1.348 . S
C655 C657 1.353 . S
C655 H696 0.929 1_655 S
C656 C654 1.356 . S
C656 C658 1.358 . S
C656 H697 0.930 . S
C657 C655 1.353 . S
C657 N659 1.314 . S
C657 H698 0.930 . S
C658 C656 1.358 . S
C658 N659 1.279 . S
C658 H699 0.930 . S
N659 C657 1.314 . S
N659 C658 1.279 . S
C660 C662 1.353 . S
C660 N663 1.340 . S
C660 H666 0.930 . S
C661 N663 1.252 1_455 S
C661 C664 1.358 . S
C661 H667 0.930 . S
C662 C660 1.353 . S
C662 C665 1.348 . S
C662 H700 0.929 . S
N663 Li618 1.993 . S
N663 C660 1.340 . S
N663 C661 1.252 1_655 S
C664 C661 1.358 . S
C664 C665 1.356 1_455 S
C664 H701 0.930 . S
C665 C662 1.348 . S
C665 C664 1.356 1_655 S
H666 C660 0.930 . S
H667 C661 0.930 . S
C668 N669 1.314 . S
C668 C670 1.353 . S
C668 H674 0.930 . S
N669 Li619 1.990 . S
N669 C668 1.314 . S
N669 C672 1.279 . S
C670 C668 1.353 . S
C670 C673 1.348 . S
C670 H702 0.929 . S
C671 C672 1.358 . S
C671 C673 1.356 . S
C671 H703 0.930 . S
C672 N669 1.279 . S
C672 C671 1.358 . S
C672 H675 0.930 . S
C673 C670 1.348 . S
C673 C671 1.356 . S
H674 C668 0.930 . S
H675 C672 0.930 . S
O676 Li616 1.956 1_655 S
O676 Li617 1.970 . S
O676 Li618 1.956 . S
O676 C620 1.325 . S
O677 Li616 1.970 . S
O677 Li617 1.956 1_455 S
O677 Li619 1.961 . S
O677 C626 1.325 . S
O678 Li616 1.961 . S
O678 Li618 1.960 1_455 S
O678 Li619 1.970 . S
O678 C648 1.325 . S
O679 Li617 1.961 . S
O679 Li618 1.970 . S
O679 Li619 1.956 1_655 S
O679 C654 1.325 . S
H680 C622 0.929 . S
H681 C623 0.930 . S
H682 C624 0.930 . S
H683 C625 0.930 1_554 S
H684 C627 0.930 . S
H685 C629 0.929 . S
H686 C630 0.930 . S
H687 C631 0.950 . S
H688 C634 0.930 . S
H689 C637 0.929 . S
H690 C642 0.929 . S
H691 C643 0.930 . S
H692 C650 0.929 . S
H693 C651 0.930 . S
H694 C652 0.930 . S
H695 C653 0.930 1_554 S
H696 C655 0.929 1_455 S
H697 C656 0.930 . S
H698 C657 0.930 . S
H699 C658 0.930 . S
H700 C662 0.929 . S
H701 C664 0.930 . S
H702 C670 0.929 . S
H703 C671 0.930 . S
Li704 N721 1.990 . S
Li704 O764 1.956 1_545 S
Li704 O765 1.970 . S
Li704 O766 1.961 . S
Li705 N729 1.990 . S
Li705 O764 1.970 . S
Li705 O765 1.956 1_565 S
Li705 O767 1.961 1_565 S
Li706 N751 1.990 . S
Li706 O764 1.961 1_545 S
Li706 O766 1.956 . S
Li706 O767 1.970 . S
Li707 N757 1.990 . S
Li707 O765 1.961 . S
Li707 O766 1.970 . S
Li707 O767 1.956 . S
C708 C710 1.348 . S
C708 C711 1.356 . S
C708 O764 1.325 . S
N709 C712 1.314 . S
N709 C713 1.279 . S
C710 C708 1.348 . S
C710 C712 1.353 . S
C710 H768 0.929 . S
C711 C708 1.356 . S
C711 C713 1.358 . S
C711 H769 0.930 . S
C712 N709 1.314 . S
C712 C710 1.353 . S
C712 H770 0.930 . S
C713 N709 1.279 . S
C713 C711 1.358 . S
C713 H771 0.930 . S
C714 C717 1.348 . S
C714 C718 1.356 . S
C714 O765 1.325 . S
C715 N716 1.279 . S
C715 C718 1.358 . S
C715 H772 0.930 . S
N716 C715 1.279 . S
N716 C719 1.322 . S
C717 C714 1.348 . S
C717 C719 1.353 . S
C717 H773 0.910 1_545 S
C718 C714 1.356 . S
C718 C715 1.358 . S
C718 H774 0.930 . S
C719 N716 1.322 . S
C719 C717 1.353 . S
C719 H775 0.921 1_545 S
C720 N721 1.314 . S
C720 C725 1.353 . S
C720 H726 0.930 . S
N721 Li704 1.990 . S
N721 C720 1.314 . S
N721 C723 1.279 1_545 S
C722 C723 1.362 1_545 S
C722 C724 1.382 . S
C722 H776 0.900 1_545 S
C723 N721 1.279 1_565 S
C723 C722 1.362 1_565 S
C723 H727 0.930 . S
C724 C722 1.382 . S
C724 C725 1.348 . S
C725 C720 1.353 . S
C725 C724 1.348 . S
C725 H777 0.929 . S
H726 C720 0.930 . S
H727 C723 0.930 . S
C728 N729 1.314 . S
C728 C730 1.353 . S
C728 H734 0.930 . S
N729 Li705 1.990 . S
N729 C728 1.314 . S
N729 C732 1.279 . S
C730 C728 1.353 . S
C730 C733 1.348 . S
C730 H778 0.929 . S
C731 C732 1.358 . S
C731 C733 1.356 . S
C731 H779 0.930 . S
C732 N729 1.279 . S
C732 C731 1.358 . S
C732 H735 0.930 . S
C733 C730 1.348 . S
C733 C731 1.356 . S
H734 C728 0.930 . S
H735 C732 0.930 . S
C736 C738 1.348 . S
C736 C739 1.356 . S
C736 O766 1.325 . S
N737 C740 1.314 . S
N737 C741 1.279 . S
C738 C736 1.348 . S
C738 C740 1.353 . S
C738 H780 0.929 . S
C739 C736 1.356 . S
C739 C741 1.358 . S
C739 H781 0.930 . S
C740 N737 1.314 . S
C740 C738 1.353 . S
C740 H782 0.930 . S
C741 N737 1.279 . S
C741 C739 1.358 . S
C741 H783 0.930 . S
C742 C743 1.358 . S
C742 C744 1.353 1_545 S
C742 O767 1.322 . S
C743 C742 1.358 . S
C743 C745 1.353 . S
C743 H784 0.929 . S
C744 C742 1.353 1_565 S
C744 C746 1.358 . S
C744 H785 0.930 . S
C745 C743 1.353 . S
C745 N747 1.314 1_545 S
C745 H786 0.930 . S
C746 C744 1.358 . S
C746 N747 1.279 . S
C746 H787 0.930 . S
N747 C745 1.314 1_565 S
N747 C746 1.279 . S
C748 C750 1.353 . S
C748 N751 1.314 1_565 S
C748 H754 0.930 . S
C749 N751 1.279 . S
C749 C752 1.358 . S
C749 H755 0.930 . S
C750 C748 1.353 . S
C750 C753 1.348 1_565 S
C750 H788 0.929 . S
N751 Li706 1.990 . S
N751 C748 1.314 1_545 S
N751 C749 1.279 . S
C752 C749 1.358 . S
C752 C753 1.356 . S
C752 H789 0.930 . S
C753 C750 1.348 1_545 S
C753 C752 1.356 . S
H754 C748 0.930 . S
H755 C749 0.930 . S
C756 N757 1.314 . S
C756 C758 1.353 . S
C756 H762 0.930 . S
N757 Li707 1.990 . S
N757 C756 1.314 . S
N757 C760 1.279 . S
C758 C756 1.353 . S
C758 C761 1.348 . S
C758 H790 0.929 . S
C759 C760 1.358 . S
C759 C761 1.356 . S
C759 H791 0.930 . S
C760 N757 1.279 . S
C760 C759 1.358 . S
C760 H763 0.930 . S
C761 C758 1.348 . S
C761 C759 1.356 . S
H762 C756 0.930 . S
H763 C760 0.930 . S
O764 Li704 1.956 1_565 S
O764 Li705 1.970 . S
O764 Li706 1.961 1_565 S
O764 C708 1.325 . S
O765 Li704 1.970 . S
O765 Li705 1.956 1_545 S
O765 Li707 1.961 . S
O765 C714 1.325 . S
O766 Li704 1.961 . S
O766 Li706 1.956 . S
O766 Li707 1.970 . S
O766 C736 1.325 . S
O767 Li705 1.961 1_545 S
O767 Li706 1.970 . S
O767 Li707 1.956 . S
O767 C742 1.322 . S
H768 C710 0.929 . S
H769 C711 0.930 . S
H770 C712 0.930 . S
H771 C713 0.930 . S
H772 C715 0.930 . S
H773 C717 0.910 1_565 S
H774 C718 0.930 . S
H775 C719 0.921 1_565 S
H776 C722 0.900 1_565 S
H777 C725 0.929 . S
H778 C730 0.929 . S
H779 C731 0.930 . S
H780 C738 0.929 . S
H781 C739 0.930 . S
H782 C740 0.930 . S
H783 C741 0.930 . S
H784 C743 0.929 . S
H785 C744 0.930 . S
H786 C745 0.930 . S
H787 C746 0.930 . S
H788 C750 0.929 . S
H789 C752 0.930 . S
H790 C758 0.929 . S
H791 C759 0.930 . S
Li792 N809 1.990 . S
Li792 O852 1.956 . S
Li792 O853 1.970 . S
Li792 O854 1.961 . S
Li793 N817 1.990 . S
Li793 O852 1.970 . S
Li793 O853 1.956 . S
Li793 O855 1.961 . S
Li794 N839 1.990 . S
Li794 O852 1.961 . S
Li794 O854 1.956 . S
Li794 O855 1.970 . S
Li795 N845 1.990 . S
Li795 O853 1.961 . S
Li795 O854 1.970 . S
Li795 O855 1.956 . S
C796 C798 1.348 . S
C796 C799 1.356 . S
C796 O852 1.325 . S
N797 C800 1.314 . S
N797 C801 1.279 . S
C798 C796 1.348 . S
C798 C800 1.353 . S
C798 H856 0.929 . S
C799 C796 1.356 . S
C799 C801 1.358 . S
C799 H857 0.930 . S
C800 N797 1.314 . S
C800 C798 1.353 . S
C800 H858 0.930 . S
C801 N797 1.279 . S
C801 C799 1.358 . S
C801 H859 0.930 . S
C802 C805 1.348 . S
C802 C806 1.356 . S
C802 O853 1.325 . S
C803 N804 1.279 . S
C803 C806 1.358 . S
C803 H860 0.930 . S
N804 C803 1.279 . S
N804 C807 1.314 . S
C805 C802 1.348 . S
C805 C807 1.353 . S
C805 H861 0.929 . S
C806 C802 1.356 . S
C806 C803 1.358 . S
C806 H862 0.930 . S
C807 N804 1.314 . S
C807 C805 1.353 . S
C807 H863 0.930 . S
C808 N809 1.314 . S
C808 C813 1.353 . S
C808 H814 0.930 . S
N809 Li792 1.990 . S
N809 C808 1.314 . S
N809 C811 1.279 . S
C810 C811 1.358 . S
C810 C812 1.356 . S
C810 H864 0.930 . S
C811 N809 1.279 . S
C811 C810 1.358 . S
C811 H815 0.930 . S
C812 C810 1.356 . S
C812 C813 1.348 . S
C813 C808 1.353 . S
C813 C812 1.348 . S
C813 H865 0.929 . S
H814 C808 0.930 . S
H815 C811 0.930 . S
C816 N817 1.314 . S
C816 C818 1.353 . S
C816 H822 0.930 . S
N817 Li793 1.990 . S
N817 C816 1.314 . S
N817 C820 1.279 . S
C818 C816 1.353 . S
C818 C821 1.348 . S
C818 H866 0.929 . S
C819 C820 1.358 . S
C819 C821 1.356 . S
C819 H867 0.930 . S
C820 N817 1.279 . S
C820 C819 1.358 . S
C820 H823 0.930 . S
C821 C818 1.348 . S
C821 C819 1.356 . S
H822 C816 0.930 . S
H823 C820 0.930 . S
C824 C826 1.348 . S
C824 C827 1.356 . S
C824 O854 1.325 . S
N825 C828 1.314 . S
N825 C829 1.279 . S
C826 C824 1.348 . S
C826 C828 1.353 . S
C826 H868 0.929 . S
C827 C824 1.356 . S
C827 C829 1.358 . S
C827 H869 0.930 . S
C828 N825 1.314 . S
C828 C826 1.353 . S
C828 H870 0.930 . S
C829 N825 1.279 . S
C829 C827 1.358 . S
C829 H871 0.930 . S
C830 C831 1.348 . S
C830 C832 1.356 . S
C830 O855 1.325 . S
C831 C830 1.348 . S
C831 C833 1.353 . S
C831 H872 0.929 . S
C832 C830 1.356 . S
C832 C834 1.358 . S
C832 H873 0.930 . S
C833 C831 1.353 . S
C833 N835 1.314 . S
C833 H874 0.930 . S
C834 C832 1.358 . S
C834 N835 1.279 . S
C834 H875 0.930 . S
N835 C833 1.314 . S
N835 C834 1.279 . S
C836 C838 1.353 . S
C836 N839 1.314 . S
C836 H842 0.930 . S
C837 N839 1.279 . S
C837 C840 1.358 . S
C837 H843 0.930 . S
C838 C836 1.353 . S
C838 C841 1.348 . S
C838 H876 0.929 . S
N839 Li794 1.990 . S
N839 C836 1.314 . S
N839 C837 1.279 . S
C840 C837 1.358 . S
C840 C841 1.356 . S
C840 H877 0.930 . S
C841 C838 1.348 . S
C841 C840 1.356 . S
H842 C836 0.930 . S
H843 C837 0.930 . S
C844 N845 1.314 . S
C844 C846 1.353 . S
C844 H850 0.930 . S
N845 Li795 1.990 . S
N845 C844 1.314 . S
N845 C848 1.279 . S
C846 C844 1.353 . S
C846 C849 1.348 . S
C846 H878 0.929 . S
C847 C848 1.358 . S
C847 C849 1.356 . S
C847 H879 0.930 . S
C848 N845 1.279 . S
C848 C847 1.358 . S
C848 H851 0.930 . S
C849 C846 1.348 . S
C849 C847 1.356 . S
H850 C844 0.930 . S
H851 C848 0.930 . S
O852 Li792 1.956 . S
O852 Li793 1.970 . S
O852 Li794 1.961 . S
O852 C796 1.325 . S
O853 Li792 1.970 . S
O853 Li793 1.956 . S
O853 Li795 1.961 . S
O853 C802 1.325 . S
O854 Li792 1.961 . S
O854 Li794 1.956 . S
O854 Li795 1.970 . S
O854 C824 1.325 . S
O855 Li793 1.961 . S
O855 Li794 1.970 . S
O855 Li795 1.956 . S
O855 C830 1.325 . S
H856 C798 0.929 . S
H857 C799 0.930 . S
H858 C800 0.930 . S
H859 C801 0.930 . S
H860 C803 0.930 . S
H861 C805 0.929 . S
H862 C806 0.930 . S
H863 C807 0.930 . S
H864 C810 0.930 . S
H865 C813 0.929 . S
H866 C818 0.929 . S
H867 C819 0.930 . S
H868 C826 0.929 . S
H869 C827 0.930 . S
H870 C828 0.930 . S
H871 C829 0.930 . S
H872 C831 0.929 . S
H873 C832 0.930 . S
H874 C833 0.930 . S
H875 C834 0.930 . S
H876 C838 0.929 . S
H877 C840 0.930 . S
H878 C846 0.929 . S
H879 C847 0.930 . S
Li880 N897 1.990 . S
Li880 O940 1.956 . S
Li880 O941 1.970 . S
Li880 O942 1.961 . S
Li881 N905 1.990 . S
Li881 O940 1.970 . S
Li881 O941 1.956 . S
Li881 O943 1.961 . S
Li882 N927 1.990 1_545 S
Li882 O940 1.961 . S
Li882 O942 1.956 . S
Li882 O943 1.970 . S
Li883 N933 1.990 . S
Li883 O941 1.961 . S
Li883 O942 1.970 . S
Li883 O943 1.956 . S
C884 C886 1.348 . S
C884 C887 1.356 . S
C884 O940 1.325 . S
N885 C888 1.314 . S
N885 C889 1.279 . S
C886 C884 1.348 . S
C886 C888 1.353 . S
C886 H944 0.929 . S
C887 C884 1.356 . S
C887 C889 1.358 . S
C887 H945 0.930 . S
C888 N885 1.314 . S
C888 C886 1.353 . S
C888 H946 0.930 . S
C889 N885 1.279 . S
C889 C887 1.358 . S
C889 H947 0.930 . S
C890 C893 1.348 . S
C890 C894 1.356 . S
C890 O941 1.325 . S
C891 N892 1.279 . S
C891 C894 1.358 . S
C891 H948 0.930 . S
N892 C891 1.279 . S
N892 C895 1.314 . S
C893 C890 1.348 . S
C893 C895 1.353 . S
C893 H949 0.929 . S
C894 C890 1.356 . S
C894 C891 1.358 . S
C894 H950 0.930 . S
C895 N892 1.314 . S
C895 C893 1.353 . S
C895 H951 0.930 . S
C896 N897 1.314 . S
C896 C901 1.353 . S
C896 H902 0.930 . S
N897 Li880 1.990 . S
N897 C896 1.314 . S
N897 C899 1.279 . S
C898 C899 1.358 . S
C898 C900 1.356 . S
C898 H952 0.930 . S
C899 N897 1.279 . S
C899 C898 1.358 . S
C899 H903 0.930 . S
C900 C898 1.356 . S
C900 C901 1.348 . S
C901 C896 1.353 . S
C901 C900 1.348 . S
C901 H953 0.929 . S
H902 C896 0.930 . S
H903 C899 0.930 . S
C904 N905 1.314 . S
C904 C906 1.353 . S
C904 H910 0.930 . S
N905 Li881 1.990 . S
N905 C904 1.314 . S
N905 C908 1.279 . S
C906 C904 1.353 . S
C906 C909 1.348 . S
C906 H954 0.929 . S
C907 C908 1.358 . S
C907 C909 1.356 . S
C907 H955 0.930 . S
C908 N905 1.279 . S
C908 C907 1.358 . S
C908 H911 0.930 . S
C909 C906 1.348 . S
C909 C907 1.356 . S
H910 C904 0.930 . S
H911 C908 0.930 . S
C912 C914 1.348 . S
C912 C915 1.356 . S
C912 O942 1.325 . S
N913 C916 1.314 . S
N913 C917 1.279 . S
C914 C912 1.348 . S
C914 C916 1.353 . S
C914 H956 0.929 . S
C915 C912 1.356 . S
C915 C917 1.358 . S
C915 H957 0.930 . S
C916 N913 1.314 . S
C916 C914 1.353 . S
C916 H958 0.930 . S
C917 N913 1.279 . S
C917 C915 1.358 . S
C917 H959 0.930 . S
C918 C919 1.348 . S
C918 C920 1.356 . S
C918 O943 1.325 1_565 S
C919 C918 1.348 . S
C919 C921 1.353 . S
C919 H960 0.929 . S
C920 C918 1.356 . S
C920 C922 1.358 . S
C920 H961 0.930 1_565 S
C921 C919 1.353 . S
C921 N923 1.314 . S
C921 H962 0.930 . S
C922 C920 1.358 . S
C922 N923 1.279 . S
C922 H963 0.930 . S
N923 C921 1.314 . S
N923 C922 1.279 . S
C924 C926 1.353 . S
C924 N927 1.314 . S
C924 H930 0.930 . S
C925 N927 1.279 . S
C925 C928 1.358 . S
C925 H931 0.930 . S
C926 C924 1.353 . S
C926 C929 1.348 . S
C926 H964 0.929 . S
N927 Li882 1.990 1_565 S
N927 C924 1.314 . S
N927 C925 1.279 . S
C928 C925 1.358 . S
C928 C929 1.356 . S
C928 H965 0.930 . S
C929 C926 1.348 . S
C929 C928 1.356 . S
H930 C924 0.930 . S
H931 C925 0.930 . S
C932 N933 1.314 . S
C932 C934 1.353 . S
C932 H938 0.930 . S
N933 Li883 1.990 . S
N933 C932 1.314 . S
N933 C936 1.279 . S
C934 C932 1.353 . S
C934 C937 1.348 . S
C934 H966 0.929 . S
C935 C936 1.358 . S
C935 C937 1.356 . S
C935 H967 0.930 1_545 S
C936 N933 1.279 . S
C936 C935 1.358 . S
C936 H939 0.936 1_545 S
C937 C934 1.348 . S
C937 C935 1.356 . S
H938 C932 0.930 . S
H939 C936 0.936 1_565 S
O940 Li880 1.956 . S
O940 Li881 1.970 . S
O940 Li882 1.961 . S
O940 C884 1.325 . S
O941 Li880 1.970 . S
O941 Li881 1.956 . S
O941 Li883 1.961 . S
O941 C890 1.325 . S
O942 Li880 1.961 . S
O942 Li882 1.956 . S
O942 Li883 1.970 . S
O942 C912 1.325 . S
O943 Li881 1.961 . S
O943 Li882 1.970 . S
O943 Li883 1.956 . S
O943 C918 1.325 1_545 S
H944 C886 0.929 . S
H945 C887 0.930 . S
H946 C888 0.930 . S
H947 C889 0.930 . S
H948 C891 0.930 . S
H949 C893 0.929 . S
H950 C894 0.930 . S
H951 C895 0.930 . S
H952 C898 0.930 . S
H953 C901 0.929 . S
H954 C906 0.929 . S
H955 C907 0.930 . S
H956 C914 0.929 . S
H957 C915 0.930 . S
H958 C916 0.930 . S
H959 C917 0.930 . S
H960 C919 0.929 . S
H961 C920 0.930 1_545 S
H962 C921 0.930 . S
H963 C922 0.930 . S
H964 C926 0.929 . S
H965 C928 0.930 . S
H966 C934 0.929 . S
H967 C935 0.930 1_565 S
Li968 N985 1.990 . S
Li968 O1028 1.979 . S
Li968 O1029 1.971 1_554 S
Li968 O1030 1.934 1_554 S
Li969 N993 1.990 . S
Li969 O1028 1.970 . S
Li969 O1029 1.956 1_554 S
Li969 O1031 1.996 . S
Li970 N1015 1.990 . S
Li970 O1028 1.961 . S
Li970 O1030 1.956 1_554 S
Li970 O1031 1.967 . S
Li971 N1021 1.990 . S
Li971 O1029 1.961 . S
Li971 O1030 1.970 . S
Li971 O1031 1.923 1_556 S
C972 C974 1.348 . S
C972 C975 1.356 . S
C972 O1028 1.325 . S
N973 C976 1.314 . S
N973 C977 1.279 . S
C974 C972 1.348 . S
C974 C976 1.353 . S
C974 H1032 0.929 . S
C975 C972 1.356 . S
C975 C977 1.358 . S
C975 H1033 0.930 . S
C976 N973 1.314 . S
C976 C974 1.353 . S
C976 H1034 0.930 . S
C977 N973 1.279 . S
C977 C975 1.358 . S
C977 H1035 0.930 . S
C978 C981 1.348 1_556 S
C978 C982 1.356 . S
C978 O1029 1.325 . S
C979 N980 1.279 . S
C979 C982 1.358 . S
C979 H1036 0.930 . S
N980 C979 1.279 . S
N980 C983 1.323 . S
C981 C978 1.348 1_554 S
C981 C983 1.357 1_554 S
C981 H1037 0.929 . S
C982 C978 1.356 . S
C982 C979 1.358 . S
C982 H1038 0.930 . S
C983 N980 1.323 . S
C983 C981 1.357 1_556 S
C983 H1039 0.918 1_556 S
C984 N985 1.272 1_556 S
C984 C989 1.353 . S
C984 H990 0.930 . S
N985 Li968 1.990 . S
N985 C984 1.272 1_554 S
N985 C987 1.323 . S
C986 C987 1.358 . S
C986 C988 1.343 1_554 S
C986 H1040 0.930 . S
C987 N985 1.323 . S
C987 C986 1.358 . S
C987 H991 0.930 . S
C988 C986 1.343 1_556 S
C988 C989 1.361 . S
C989 C984 1.353 . S
C989 C988 1.361 . S
C989 H1041 0.929 . S
H990 C984 0.930 . S
H991 C987 0.930 . S
C992 N993 1.314 . S
C992 C994 1.353 . S
C992 H998 0.930 . S
N993 Li969 1.990 . S
N993 C992 1.314 . S
N993 C996 1.279 . S
C994 C992 1.353 . S
C994 C997 1.348 . S
C994 H1042 0.929 . S
C995 C996 1.358 . S
C995 C997 1.356 . S
C995 H1043 0.930 . S
C996 N993 1.279 . S
C996 C995 1.358 . S
C996 H999 0.930 . S
C997 C994 1.348 . S
C997 C995 1.356 . S
H998 C992 0.930 . S
H999 C996 0.930 . S
C1000 C1002 1.348 . S
C1000 C1003 1.356 . S
C1000 O1030 1.325 . S
N1001 C1004 1.314 . S
N1001 C1005 1.279 . S
C1002 C1000 1.348 . S
C1002 C1004 1.353 . S
C1002 H1044 0.929 . S
C1003 C1000 1.356 . S
C1003 C1005 1.358 . S
C1003 H1045 0.930 . S
C1004 N1001 1.314 . S
C1004 C1002 1.353 . S
C1004 H1046 0.930 . S
C1005 N1001 1.279 . S
C1005 C1003 1.358 . S
C1005 H1047 0.930 . S
C1006 C1007 1.341 1_554 S
C1006 C1008 1.361 . S
C1006 O1031 1.324 . S
C1007 C1006 1.341 1_556 S
C1007 C1009 1.353 . S
C1007 H1048 0.929 . S
C1008 C1006 1.361 . S
C1008 C1010 1.358 . S
C1008 H1049 0.930 . S
C1009 C1007 1.353 . S
C1009 N1011 1.314 . S
C1009 H1050 0.930 . S
C1010 C1008 1.358 . S
C1010 N1011 1.279 1_554 S
C1010 H1051 0.930 . S
N1011 C1009 1.314 . S
N1011 C1010 1.279 1_556 S
C1012 C1014 1.353 . S
C1012 N1015 1.314 . S
C1012 H1018 0.930 . S
C1013 N1015 1.279 1_556 S
C1013 C1016 1.358 . S
C1013 H1019 0.930 . S
C1014 C1012 1.353 . S
C1014 C1017 1.348 . S
C1014 H1052 0.929 . S
N1015 Li970 1.990 . S
N1015 C1012 1.314 . S
N1015 C1013 1.279 1_554 S
C1016 C1013 1.358 . S
C1016 C1017 1.356 1_556 S
C1016 H1053 0.930 . S
C1017 C1014 1.348 . S
C1017 C1016 1.356 1_554 S
H1018 C1012 0.930 . S
H1019 C1013 0.930 . S
C1020 N1021 1.314 . S
C1020 C1022 1.353 . S
C1020 H1026 0.930 . S
N1021 Li971 1.990 . S
N1021 C1020 1.314 . S
N1021 C1024 1.279 . S
C1022 C1020 1.353 . S
C1022 C1025 1.348 . S
C1022 H1054 0.929 . S
C1023 C1024 1.358 . S
C1023 C1025 1.356 . S
C1023 H1055 0.930 . S
C1024 N1021 1.279 . S
C1024 C1023 1.358 . S
C1024 H1027 0.930 . S
C1025 C1022 1.348 . S
C1025 C1023 1.356 . S
H1026 C1020 0.930 . S
H1027 C1024 0.930 . S
O1028 Li968 1.979 . S
O1028 Li969 1.970 . S
O1028 Li970 1.961 . S
O1028 C972 1.325 . S
O1029 Li968 1.971 1_556 S
O1029 Li969 1.956 1_556 S
O1029 Li971 1.961 . S
O1029 C978 1.325 . S
O1030 Li968 1.934 1_556 S
O1030 Li970 1.956 1_556 S
O1030 Li971 1.970 . S
O1030 C1000 1.325 . S
O1031 Li969 1.996 . S
O1031 Li970 1.967 . S
O1031 Li971 1.923 1_554 S
O1031 C1006 1.324 . S
H1032 C974 0.929 . S
H1033 C975 0.930 . S
H1034 C976 0.930 . S
H1035 C977 0.930 . S
H1036 C979 0.930 . S
H1037 C981 0.929 . S
H1038 C982 0.930 . S
H1039 C983 0.918 1_554 S
H1040 C986 0.930 . S
H1041 C989 0.929 . S
H1042 C994 0.929 . S
H1043 C995 0.930 . S
H1044 C1002 0.929 . S
H1045 C1003 0.930 . S
H1046 C1004 0.930 . S
H1047 C1005 0.930 . S
H1048 C1007 0.929 . S
H1049 C1008 0.930 . S
H1050 C1009 0.930 . S
H1051 C1010 0.930 . S
H1052 C1014 0.929 . S
H1053 C1016 0.930 . S
H1054 C1022 0.929 . S
H1055 C1023 0.930 . S
Li1056 N1073 1.990 . S
Li1056 O1116 1.956 . S
Li1056 O1117 1.970 . S
Li1056 O1118 1.961 . S
Li1057 N1081 1.990 . S
Li1057 O1116 1.970 . S
Li1057 O1117 1.956 . S
Li1057 O1119 1.961 . S
Li1058 N1103 1.990 . S
Li1058 O1116 1.961 . S
Li1058 O1118 1.956 . S
Li1058 O1119 1.970 . S
Li1059 N1109 1.990 1_554 S
Li1059 O1117 1.961 . S
Li1059 O1118 1.970 . S
Li1059 O1119 1.956 . S
C1060 C1062 1.348 . S
C1060 C1063 1.356 . S
C1060 O1116 1.325 . S
N1061 C1064 1.314 . S
N1061 C1065 1.279 . S
C1062 C1060 1.348 . S
C1062 C1064 1.353 . S
C1062 H1120 0.929 . S
C1063 C1060 1.356 . S
C1063 C1065 1.358 . S
C1063 H1121 0.930 . S
C1064 N1061 1.314 . S
C1064 C1062 1.353 . S
C1064 H1122 0.930 . S
C1065 N1061 1.279 . S
C1065 C1063 1.358 . S
C1065 H1123 0.930 . S
C1066 C1069 1.348 . S
C1066 C1070 1.356 . S
C1066 O1117 1.325 . S
C1067 N1068 1.279 . S
C1067 C1070 1.358 . S
C1067 H1124 0.930 . S
N1068 C1067 1.279 . S
N1068 C1071 1.314 . S
C1069 C1066 1.348 . S
C1069 C1071 1.353 . S
C1069 H1125 0.929 . S
C1070 C1066 1.356 . S
C1070 C1067 1.358 . S
C1070 H1126 0.930 . S
C1071 N1068 1.314 . S
C1071 C1069 1.353 . S
C1071 H1127 0.930 . S
C1072 N1073 1.314 . S
C1072 C1077 1.353 . S
C1072 H1078 0.930 . S
N1073 Li1056 1.990 . S
N1073 C1072 1.314 . S
N1073 C1075 1.279 . S
C1074 C1075 1.358 . S
C1074 C1076 1.356 . S
C1074 H1128 0.930 . S
C1075 N1073 1.279 . S
C1075 C1074 1.358 . S
C1075 H1079 0.930 . S
C1076 C1074 1.356 . S
C1076 C1077 1.348 . S
C1077 C1072 1.353 . S
C1077 C1076 1.348 . S
C1077 H1129 0.929 . S
H1078 C1072 0.930 . S
H1079 C1075 0.930 . S
C1080 N1081 1.314 . S
C1080 C1082 1.353 . S
C1080 H1086 0.930 . S
N1081 Li1057 1.990 . S
N1081 C1080 1.314 . S
N1081 C1084 1.279 . S
C1082 C1080 1.353 . S
C1082 C1085 1.348 . S
C1082 H1130 0.929 . S
C1083 C1084 1.358 . S
C1083 C1085 1.356 . S
C1083 H1131 0.930 . S
C1084 N1081 1.279 . S
C1084 C1083 1.358 . S
C1084 H1087 0.930 . S
C1085 C1082 1.348 . S
C1085 C1083 1.356 . S
H1086 C1080 0.930 . S
H1087 C1084 0.930 . S
C1088 C1090 1.348 1_554 S
C1088 C1091 1.356 . S
C1088 O1118 1.325 . S
N1089 C1092 1.314 . S
N1089 C1093 1.279 . S
C1090 C1088 1.348 1_556 S
C1090 C1092 1.353 . S
C1090 H1132 0.929 . S
C1091 C1088 1.356 . S
C1091 C1093 1.358 1_554 S
C1091 H1133 0.930 . S
C1092 N1089 1.314 . S
C1092 C1090 1.353 . S
C1092 H1134 0.930 . S
C1093 N1089 1.279 . S
C1093 C1091 1.358 1_556 S
C1093 H1135 0.930 . S
C1094 C1095 1.348 . S
C1094 C1096 1.356 . S
C1094 O1119 1.325 . S
C1095 C1094 1.348 . S
C1095 C1097 1.353 . S
C1095 H1136 0.929 . S
C1096 C1094 1.356 . S
C1096 C1098 1.358 . S
C1096 H1137 0.930 . S
C1097 C1095 1.353 . S
C1097 N1099 1.314 . S
C1097 H1138 0.930 . S
C1098 C1096 1.358 . S
C1098 N1099 1.279 . S
C1098 H1139 0.930 . S
N1099 C1097 1.314 . S
N1099 C1098 1.279 . S
C1100 C1102 1.353 . S
C1100 N1103 1.314 . S
C1100 H1106 0.930 . S
C1101 N1103 1.279 . S
C1101 C1104 1.358 . S
C1101 H1107 0.930 . S
C1102 C1100 1.353 . S
C1102 C1105 1.348 . S
C1102 H1140 0.929 . S
N1103 Li1058 1.990 . S
N1103 C1100 1.314 . S
N1103 C1101 1.279 . S
C1104 C1101 1.358 . S
C1104 C1105 1.356 . S
C1104 H1141 0.930 . S
C1105 C1102 1.348 . S
C1105 C1104 1.356 . S
H1106 C1100 0.930 . S
H1107 C1101 0.930 . S
C1108 N1109 1.314 . S
C1108 C1110 1.353 . S
C1108 H1114 0.930 . S
N1109 Li1059 1.990 1_556 S
N1109 C1108 1.314 . S
N1109 C1112 1.279 . S
C1110 C1108 1.353 . S
C1110 C1113 1.348 . S
C1110 H1142 0.929 . S
C1111 C1112 1.358 . S
C1111 C1113 1.356 . S
C1111 H1143 0.930 . S
C1112 N1109 1.279 . S
C1112 C1111 1.358 . S
C1112 H1115 0.930 . S
C1113 C1110 1.348 . S
C1113 C1111 1.356 . S
H1114 C1108 0.930 . S
H1115 C1112 0.930 . S
O1116 Li1056 1.956 . S
O1116 Li1057 1.970 . S
O1116 Li1058 1.961 . S
O1116 C1060 1.325 . S
O1117 Li1056 1.970 . S
O1117 Li1057 1.956 . S
O1117 Li1059 1.961 . S
O1117 C1066 1.325 . S
O1118 Li1056 1.961 . S
O1118 Li1058 1.956 . S
O1118 Li1059 1.970 . S
O1118 C1088 1.325 . S
O1119 Li1057 1.961 . S
O1119 Li1058 1.970 . S
O1119 Li1059 1.956 . S
O1119 C1094 1.325 . S
H1120 C1062 0.929 . S
H1121 C1063 0.930 . S
H1122 C1064 0.930 . S
H1123 C1065 0.930 . S
H1124 C1067 0.930 . S
H1125 C1069 0.929 . S
H1126 C1070 0.930 . S
H1127 C1071 0.930 . S
H1128 C1074 0.930 . S
H1129 C1077 0.929 . S
H1130 C1082 0.929 . S
H1131 C1083 0.930 . S
H1132 C1090 0.929 . S
H1133 C1091 0.930 . S
H1134 C1092 0.930 . S
H1135 C1093 0.930 . S
H1136 C1095 0.929 . S
H1137 C1096 0.930 . S
H1138 C1097 0.930 . S
H1139 C1098 0.930 . S
H1140 C1102 0.929 . S
H1141 C1104 0.930 . S
H1142 C1110 0.929 . S
H1143 C1111 0.930 . S
Li1144 N1161 1.990 . S
Li1144 O1204 1.956 . S
Li1144 O1205 1.970 . S
Li1144 O1206 1.961 . S
Li1145 N1169 1.990 . S
Li1145 O1204 1.970 . S
Li1145 O1205 1.956 . S
Li1145 O1207 1.961 . S
Li1146 N1191 1.990 . S
Li1146 O1204 1.961 . S
Li1146 O1206 1.956 . S
Li1146 O1207 1.970 . S
Li1147 N1197 1.990 . S
Li1147 O1205 1.961 . S
Li1147 O1206 1.970 . S
Li1147 O1207 1.956 . S
C1148 C1150 1.348 . S
C1148 C1151 1.356 . S
C1148 O1204 1.325 . S
N1149 C1152 1.314 . S
N1149 C1153 1.279 . S
C1150 C1148 1.348 . S
C1150 C1152 1.353 . S
C1150 H1208 0.929 . S
C1151 C1148 1.356 . S
C1151 C1153 1.358 . S
C1151 H1209 0.930 . S
C1152 N1149 1.314 . S
C1152 C1150 1.353 . S
C1152 H1210 0.930 . S
C1153 N1149 1.279 . S
C1153 C1151 1.358 . S
C1153 H1211 0.930 . S
C1154 C1157 1.348 . S
C1154 C1158 1.356 . S
C1154 O1205 1.325 . S
C1155 N1156 1.279 . S
C1155 C1158 1.358 . S
C1155 H1212 0.930 . S
N1156 C1155 1.279 . S
N1156 C1159 1.314 . S
C1157 C1154 1.348 . S
C1157 C1159 1.353 . S
C1157 H1213 0.929 . S
C1158 C1154 1.356 . S
C1158 C1155 1.358 . S
C1158 H1214 0.930 . S
C1159 N1156 1.314 . S
C1159 C1157 1.353 . S
C1159 H1215 0.930 . S
C1160 N1161 1.314 . S
C1160 C1165 1.353 . S
C1160 H1166 0.930 . S
N1161 Li1144 1.990 . S
N1161 C1160 1.314 . S
N1161 C1163 1.279 . S
C1162 C1163 1.358 . S
C1162 C1164 1.356 . S
C1162 H1216 0.930 . S
C1163 N1161 1.279 . S
C1163 C1162 1.358 . S
C1163 H1167 0.930 . S
C1164 C1162 1.356 . S
C1164 C1165 1.348 . S
C1165 C1160 1.353 . S
C1165 C1164 1.348 . S
C1165 H1217 0.929 . S
H1166 C1160 0.930 . S
H1167 C1163 0.930 . S
C1168 N1169 1.314 . S
C1168 C1170 1.353 . S
C1168 H1174 0.930 . S
N1169 Li1145 1.990 . S
N1169 C1168 1.314 . S
N1169 C1172 1.279 . S
C1170 C1168 1.353 . S
C1170 C1173 1.348 . S
C1170 H1218 0.929 . S
C1171 C1172 1.358 . S
C1171 C1173 1.356 . S
C1171 H1219 0.930 . S
C1172 N1169 1.279 . S
C1172 C1171 1.358 . S
C1172 H1175 0.930 . S
C1173 C1170 1.348 . S
C1173 C1171 1.356 . S
H1174 C1168 0.930 . S
H1175 C1172 0.930 . S
C1176 C1178 1.348 . S
C1176 C1179 1.356 . S
C1176 O1206 1.325 . S
N1177 C1180 1.314 . S
N1177 C1181 1.279 . S
C1178 C1176 1.348 . S
C1178 C1180 1.353 . S
C1178 H1220 0.929 . S
C1179 C1176 1.356 . S
C1179 C1181 1.358 . S
C1179 H1221 0.930 . S
C1180 N1177 1.314 . S
C1180 C1178 1.353 . S
C1180 H1222 0.930 . S
C1181 N1177 1.279 . S
C1181 C1179 1.358 . S
C1181 H1223 0.930 . S
C1182 C1183 1.348 1_554 S
C1182 C1184 1.356 . S
C1182 O1207 1.325 . S
C1183 C1182 1.348 1_556 S
C1183 C1185 1.353 . S
C1183 H1224 0.929 . S
C1184 C1182 1.356 . S
C1184 C1186 1.358 1_554 S
C1184 H1225 0.930 . S
C1185 C1183 1.353 . S
C1185 N1187 1.314 . S
C1185 H1226 0.930 . S
C1186 C1184 1.358 1_556 S
C1186 N1187 1.279 . S
C1186 H1227 0.930 . S
N1187 C1185 1.314 . S
N1187 C1186 1.279 . S
C1188 C1190 1.353 . S
C1188 N1191 1.314 1_556 S
C1188 H1194 0.914 1_556 S
C1189 N1191 1.269 1_556 S
C1189 C1192 1.385 . S
C1189 H1195 0.913 1_556 S
C1190 C1188 1.353 . S
C1190 C1193 1.348 . S
C1190 H1228 0.929 . S
N1191 Li1146 1.990 . S
N1191 C1188 1.314 1_554 S
N1191 C1189 1.269 1_554 S
C1192 C1189 1.385 . S
C1192 C1193 1.356 . S
C1192 H1229 0.930 . S
C1193 C1190 1.348 . S
C1193 C1192 1.356 . S
H1194 C1188 0.914 1_554 S
H1195 C1189 0.913 1_554 S
C1196 N1197 1.314 . S
C1196 C1198 1.353 . S
C1196 H1202 0.930 . S
N1197 Li1147 1.990 . S
N1197 C1196 1.314 . S
N1197 C1200 1.279 . S
C1198 C1196 1.353 . S
C1198 C1201 1.348 . S
C1198 H1230 0.929 . S
C1199 C1200 1.358 . S
C1199 C1201 1.356 . S
C1199 H1231 0.930 . S
C1200 N1197 1.279 . S
C1200 C1199 1.358 . S
C1200 H1203 0.930 . S
C1201 C1198 1.348 . S
C1201 C1199 1.356 . S
H1202 C1196 0.930 . S
H1203 C1200 0.930 . S
O1204 Li1144 1.956 . S
O1204 Li1145 1.970 . S
O1204 Li1146 1.961 . S
O1204 C1148 1.325 . S
O1205 Li1144 1.970 . S
O1205 Li1145 1.956 . S
O1205 Li1147 1.961 . S
O1205 C1154 1.325 . S
O1206 Li1144 1.961 . S
O1206 Li1146 1.956 . S
O1206 Li1147 1.970 . S
O1206 C1176 1.325 . S
O1207 Li1145 1.961 . S
O1207 Li1146 1.970 . S
O1207 Li1147 1.956 . S
O1207 C1182 1.325 . S
H1208 C1150 0.929 . S
H1209 C1151 0.930 . S
H1210 C1152 0.930 . S
H1211 C1153 0.930 . S
H1212 C1155 0.930 . S
H1213 C1157 0.929 . S
H1214 C1158 0.930 . S
H1215 C1159 0.930 . S
H1216 C1162 0.930 . S
H1217 C1165 0.929 . S
H1218 C1170 0.929 . S
H1219 C1171 0.930 . S
H1220 C1178 0.929 . S
H1221 C1179 0.930 . S
H1222 C1180 0.930 . S
H1223 C1181 0.930 . S
H1224 C1183 0.929 . S
H1225 C1184 0.930 . S
H1226 C1185 0.930 . S
H1227 C1186 0.930 . S
H1228 C1190 0.929 . S
H1229 C1192 0.930 . S
H1230 C1198 0.929 . S
H1231 C1199 0.930 . S
Li1232 N1249 1.990 . S
Li1232 O1292 1.956 . S
Li1232 O1293 1.970 . S
Li1232 O1294 1.961 . S
Li1233 N1257 1.990 . S
Li1233 O1292 1.970 . S
Li1233 O1293 1.956 . S
Li1233 O1295 1.961 . S
Li1234 N1279 1.990 . S
Li1234 O1292 1.961 . S
Li1234 O1294 1.956 . S
Li1234 O1295 1.970 . S
Li1235 N1285 1.990 . S
Li1235 O1293 1.961 . S
Li1235 O1294 1.970 . S
Li1235 O1295 1.956 . S
C1236 C1238 1.348 . S
C1236 C1239 1.356 . S
C1236 O1292 1.325 . S
N1237 C1240 1.314 . S
N1237 C1241 1.279 . S
C1238 C1236 1.348 . S
C1238 C1240 1.353 . S
C1238 H1296 0.929 . S
C1239 C1236 1.356 . S
C1239 C1241 1.358 . S
C1239 H1297 0.930 . S
C1240 N1237 1.314 . S
C1240 C1238 1.353 . S
C1240 H1298 0.930 . S
C1241 N1237 1.279 . S
C1241 C1239 1.358 . S
C1241 H1299 0.930 . S
C1242 C1245 1.348 . S
C1242 C1246 1.356 . S
C1242 O1293 1.325 . S
C1243 N1244 1.279 . S
C1243 C1246 1.358 . S
C1243 H1300 0.930 . S
N1244 C1243 1.279 . S
N1244 C1247 1.314 . S
C1245 C1242 1.348 . S
C1245 C1247 1.353 . S
C1245 H1301 0.929 . S
C1246 C1242 1.356 . S
C1246 C1243 1.358 . S
C1246 H1302 0.930 . S
C1247 N1244 1.314 . S
C1247 C1245 1.353 . S
C1247 H1303 0.930 . S
C1248 N1249 1.314 . S
C1248 C1253 1.353 . S
C1248 H1254 0.930 . S
N1249 Li1232 1.990 . S
N1249 C1248 1.314 . S
N1249 C1251 1.279 . S
C1250 C1251 1.358 . S
C1250 C1252 1.356 . S
C1250 H1304 0.930 . S
C1251 N1249 1.279 . S
C1251 C1250 1.358 . S
C1251 H1255 0.930 . S
C1252 C1250 1.356 . S
C1252 C1253 1.348 . S
C1253 C1248 1.353 . S
C1253 C1252 1.348 . S
C1253 H1305 0.929 . S
H1254 C1248 0.930 . S
H1255 C1251 0.930 . S
C1256 N1257 1.314 . S
C1256 C1258 1.353 . S
C1256 H1262 0.930 . S
N1257 Li1233 1.990 . S
N1257 C1256 1.314 . S
N1257 C1260 1.279 . S
C1258 C1256 1.353 . S
C1258 C1261 1.348 . S
C1258 H1306 0.929 . S
C1259 C1260 1.358 . S
C1259 C1261 1.356 . S
C1259 H1307 0.930 . S
C1260 N1257 1.279 . S
C1260 C1259 1.358 . S
C1260 H1263 0.930 . S
C1261 C1258 1.348 . S
C1261 C1259 1.356 . S
H1262 C1256 0.930 . S
H1263 C1260 0.930 . S
C1264 C1266 1.348 . S
C1264 C1267 1.356 . S
C1264 O1294 1.325 . S
N1265 C1268 1.314 . S
N1265 C1269 1.279 . S
C1266 C1264 1.348 . S
C1266 C1268 1.353 . S
C1266 H1308 0.929 . S
C1267 C1264 1.356 . S
C1267 C1269 1.358 . S
C1267 H1309 0.930 . S
C1268 N1265 1.314 . S
C1268 C1266 1.353 . S
C1268 H1310 0.930 . S
C1269 N1265 1.279 . S
C1269 C1267 1.358 . S
C1269 H1311 0.930 . S
C1270 C1271 1.348 . S
C1270 C1272 1.356 . S
C1270 O1295 1.325 . S
C1271 C1270 1.348 . S
C1271 C1273 1.353 . S
C1271 H1312 0.929 . S
C1272 C1270 1.356 . S
C1272 C1274 1.358 . S
C1272 H1313 0.930 . S
C1273 C1271 1.353 . S
C1273 N1275 1.314 . S
C1273 H1314 0.930 . S
C1274 C1272 1.358 . S
C1274 N1275 1.279 . S
C1274 H1315 0.930 . S
N1275 C1273 1.314 . S
N1275 C1274 1.279 . S
C1276 C1278 1.353 . S
C1276 N1279 1.314 . S
C1276 H1282 0.930 . S
C1277 N1279 1.279 . S
C1277 C1280 1.358 . S
C1277 H1283 0.930 . S
C1278 C1276 1.353 . S
C1278 C1281 1.348 . S
C1278 H1316 0.929 . S
N1279 Li1234 1.990 . S
N1279 C1276 1.314 . S
N1279 C1277 1.279 . S
C1280 C1277 1.358 . S
C1280 C1281 1.356 . S
C1280 H1317 0.930 . S
C1281 C1278 1.348 . S
C1281 C1280 1.356 . S
H1282 C1276 0.930 . S
H1283 C1277 0.930 . S
C1284 N1285 1.314 . S
C1284 C1286 1.353 . S
C1284 H1290 0.930 . S
N1285 Li1235 1.990 . S
N1285 C1284 1.314 . S
N1285 C1288 1.279 . S
C1286 C1284 1.353 . S
C1286 C1289 1.348 . S
C1286 H1318 0.929 . S
C1287 C1288 1.358 . S
C1287 C1289 1.356 . S
C1287 H1319 0.930 . S
C1288 N1285 1.279 . S
C1288 C1287 1.358 . S
C1288 H1291 0.930 . S
C1289 C1286 1.348 . S
C1289 C1287 1.356 . S
H1290 C1284 0.930 . S
H1291 C1288 0.930 . S
O1292 Li1232 1.956 . S
O1292 Li1233 1.970 . S
O1292 Li1234 1.961 . S
O1292 C1236 1.325 . S
O1293 Li1232 1.970 . S
O1293 Li1233 1.956 . S
O1293 Li1235 1.961 . S
O1293 C1242 1.325 . S
O1294 Li1232 1.961 . S
O1294 Li1234 1.956 . S
O1294 Li1235 1.970 . S
O1294 C1264 1.325 . S
O1295 Li1233 1.961 . S
O1295 Li1234 1.970 . S
O1295 Li1235 1.956 . S
O1295 C1270 1.325 . S
H1296 C1238 0.929 . S
H1297 C1239 0.930 . S
H1298 C1240 0.930 . S
H1299 C1241 0.930 . S
H1300 C1243 0.930 . S
H1301 C1245 0.929 . S
H1302 C1246 0.930 . S
H1303 C1247 0.930 . S
H1304 C1250 0.930 . S
H1305 C1253 0.929 . S
H1306 C1258 0.929 . S
H1307 C1259 0.930 . S
H1308 C1266 0.929 . S
H1309 C1267 0.930 . S
H1310 C1268 0.930 . S
H1311 C1269 0.930 . S
H1312 C1271 0.929 . S
H1313 C1272 0.930 . S
H1314 C1273 0.930 . S
H1315 C1274 0.930 . S
H1316 C1278 0.929 . S
H1317 C1280 0.930 . S
H1318 C1286 0.929 . S
H1319 C1287 0.930 . S
Li1320 N1337 1.990 . S
Li1320 O1380 1.956 . S
Li1320 O1381 1.970 . S
Li1320 O1382 1.961 . S
Li1321 N1345 1.990 . S
Li1321 O1380 1.970 . S
Li1321 O1381 1.956 . S
Li1321 O1383 1.961 . S
Li1322 N1367 1.990 . S
Li1322 O1380 1.961 . S
Li1322 O1382 1.956 . S
Li1322 O1383 1.970 . S
Li1323 N1373 1.990 . S
Li1323 O1381 1.961 . S
Li1323 O1382 1.970 . S
Li1323 O1383 1.956 . S
C1324 C1326 1.348 . S
C1324 C1327 1.356 . S
C1324 O1380 1.325 . S
N1325 C1328 1.314 . S
N1325 C1329 1.279 . S
C1326 C1324 1.348 . S
C1326 C1328 1.353 . S
C1326 H1384 0.929 . S
C1327 C1324 1.356 . S
C1327 C1329 1.358 . S
C1327 H1385 0.930 . S
C1328 N1325 1.314 . S
C1328 C1326 1.353 . S
C1328 H1386 0.930 . S
C1329 N1325 1.279 . S
C1329 C1327 1.358 . S
C1329 H1387 0.930 . S
C1330 C1333 1.348 . S
C1330 C1334 1.356 . S
C1330 O1381 1.325 . S
C1331 N1332 1.279 . S
C1331 C1334 1.358 . S
C1331 H1388 0.930 . S
N1332 C1331 1.279 . S
N1332 C1335 1.314 . S
C1333 C1330 1.348 . S
C1333 C1335 1.353 . S
C1333 H1389 0.929 . S
C1334 C1330 1.356 . S
C1334 C1331 1.358 . S
C1334 H1390 0.930 . S
C1335 N1332 1.314 . S
C1335 C1333 1.353 . S
C1335 H1391 0.930 . S
C1336 N1337 1.314 . S
C1336 C1341 1.353 . S
C1336 H1342 0.930 . S
N1337 Li1320 1.990 . S
N1337 C1336 1.314 . S
N1337 C1339 1.279 . S
C1338 C1339 1.358 . S
C1338 C1340 1.356 . S
C1338 H1392 0.930 . S
C1339 N1337 1.279 . S
C1339 C1338 1.358 . S
C1339 H1343 0.930 . S
C1340 C1338 1.356 . S
C1340 C1341 1.348 . S
C1341 C1336 1.353 . S
C1341 C1340 1.348 . S
C1341 H1393 0.929 . S
H1342 C1336 0.930 . S
H1343 C1339 0.930 . S
C1344 N1345 1.314 . S
C1344 C1346 1.353 . S
C1344 H1350 0.930 . S
N1345 Li1321 1.990 . S
N1345 C1344 1.314 . S
N1345 C1348 1.279 . S
C1346 C1344 1.353 . S
C1346 C1349 1.348 . S
C1346 H1394 0.929 . S
C1347 C1348 1.358 . S
C1347 C1349 1.356 . S
C1347 H1395 0.930 . S
C1348 N1345 1.279 . S
C1348 C1347 1.358 . S
C1348 H1351 0.930 . S
C1349 C1346 1.348 . S
C1349 C1347 1.356 . S
H1350 C1344 0.930 . S
H1351 C1348 0.930 . S
C1352 C1354 1.348 . S
C1352 C1355 1.356 . S
C1352 O1382 1.325 . S
N1353 C1356 1.314 . S
N1353 C1357 1.279 . S
C1354 C1352 1.348 . S
C1354 C1356 1.353 . S
C1354 H1396 0.929 . S
C1355 C1352 1.356 . S
C1355 C1357 1.358 . S
C1355 H1397 0.930 . S
C1356 N1353 1.314 . S
C1356 C1354 1.353 . S
C1356 H1398 0.930 . S
C1357 N1353 1.279 . S
C1357 C1355 1.358 . S
C1357 H1399 0.930 . S
C1358 C1359 1.348 . S
C1358 C1360 1.356 . S
C1358 O1383 1.325 . S
C1359 C1358 1.348 . S
C1359 C1361 1.353 . S
C1359 H1400 0.929 . S
C1360 C1358 1.356 . S
C1360 C1362 1.358 . S
C1360 H1401 0.930 . S
C1361 C1359 1.353 . S
C1361 N1363 1.314 . S
C1361 H1402 0.930 . S
C1362 C1360 1.358 . S
C1362 N1363 1.279 . S
C1362 H1403 0.930 . S
N1363 C1361 1.314 . S
N1363 C1362 1.279 . S
C1364 C1366 1.353 . S
C1364 N1367 1.314 . S
C1364 H1370 0.930 . S
C1365 N1367 1.279 . S
C1365 C1368 1.358 . S
C1365 H1371 0.930 . S
C1366 C1364 1.353 . S
C1366 C1369 1.348 . S
C1366 H1404 0.929 . S
N1367 Li1322 1.990 . S
N1367 C1364 1.314 . S
N1367 C1365 1.279 . S
C1368 C1365 1.358 . S
C1368 C1369 1.356 . S
C1368 H1405 0.930 . S
C1369 C1366 1.348 . S
C1369 C1368 1.356 . S
H1370 C1364 0.930 . S
H1371 C1365 0.930 . S
C1372 N1373 1.314 . S
C1372 C1374 1.353 . S
C1372 H1378 0.930 . S
N1373 Li1323 1.990 . S
N1373 C1372 1.314 . S
N1373 C1376 1.279 . S
C1374 C1372 1.353 . S
C1374 C1377 1.348 . S
C1374 H1406 0.929 . S
C1375 C1376 1.358 . S
C1375 C1377 1.356 . S
C1375 H1407 0.930 . S
C1376 N1373 1.279 . S
C1376 C1375 1.358 . S
C1376 H1379 0.930 . S
C1377 C1374 1.348 . S
C1377 C1375 1.356 . S
H1378 C1372 0.930 . S
H1379 C1376 0.930 . S
O1380 Li1320 1.956 . S
O1380 Li1321 1.970 . S
O1380 Li1322 1.961 . S
O1380 C1324 1.325 . S
O1381 Li1320 1.970 . S
O1381 Li1321 1.956 . S
O1381 Li1323 1.961 . S
O1381 C1330 1.325 . S
O1382 Li1320 1.961 . S
O1382 Li1322 1.956 . S
O1382 Li1323 1.970 . S
O1382 C1352 1.325 . S
O1383 Li1321 1.961 . S
O1383 Li1322 1.970 . S
O1383 Li1323 1.956 . S
O1383 C1358 1.325 . S
H1384 C1326 0.929 . S
H1385 C1327 0.930 . S
H1386 C1328 0.930 . S
H1387 C1329 0.930 . S
H1388 C1331 0.930 . S
H1389 C1333 0.929 . S
H1390 C1334 0.930 . S
H1391 C1335 0.930 . S
H1392 C1338 0.930 . S
H1393 C1341 0.929 . S
H1394 C1346 0.929 . S
H1395 C1347 0.930 . S
H1396 C1354 0.929 . S
H1397 C1355 0.930 . S
H1398 C1356 0.930 . S
H1399 C1357 0.930 . S
H1400 C1359 0.929 . S
H1401 C1360 0.930 . S
H1402 C1361 0.930 . S
H1403 C1362 0.930 . S
H1404 C1366 0.929 . S
H1405 C1368 0.930 . S
H1406 C1374 0.929 . S
H1407 C1375 0.930 . S
Li1408 N1425 1.990 . S
Li1408 O1468 1.956 1_545 S
Li1408 O1469 1.970 . S
Li1408 O1470 1.961 . S
Li1409 N1433 1.990 . S
Li1409 O1468 1.970 . S
Li1409 O1469 1.956 1_565 S
Li1409 O1471 1.961 1_565 S
Li1410 N1455 1.990 . S
Li1410 O1468 1.961 1_545 S
Li1410 O1470 1.956 . S
Li1410 O1471 1.970 . S
Li1411 N1461 1.990 . S
Li1411 O1469 1.961 . S
Li1411 O1470 1.970 . S
Li1411 O1471 1.956 . S
C1412 C1414 1.348 . S
C1412 C1415 1.356 . S
C1412 O1468 1.325 . S
N1413 C1416 1.314 . S
N1413 C1417 1.279 . S
C1414 C1412 1.348 . S
C1414 C1416 1.353 . S
C1414 H1472 0.929 . S
C1415 C1412 1.356 . S
C1415 C1417 1.358 . S
C1415 H1473 0.930 . S
C1416 N1413 1.314 . S
C1416 C1414 1.353 . S
C1416 H1474 0.930 . S
C1417 N1413 1.279 . S
C1417 C1415 1.358 . S
C1417 H1475 0.930 . S
C1418 C1421 1.348 . S
C1418 C1422 1.356 . S
C1418 O1469 1.325 . S
C1419 N1420 1.279 . S
C1419 C1422 1.358 . S
C1419 H1476 0.930 . S
N1420 C1419 1.279 . S
N1420 C1423 1.314 . S
C1421 C1418 1.348 . S
C1421 C1423 1.353 . S
C1421 H1477 0.929 . S
C1422 C1418 1.356 . S
C1422 C1419 1.358 . S
C1422 H1478 0.930 . S
C1423 N1420 1.314 . S
C1423 C1421 1.353 . S
C1423 H1479 0.930 . S
C1424 N1425 1.314 . S
C1424 C1429 1.353 . S
C1424 H1430 0.930 . S
N1425 Li1408 1.990 . S
N1425 C1424 1.314 . S
N1425 C1427 1.279 . S
C1426 C1427 1.358 . S
C1426 C1428 1.356 . S
C1426 H1480 0.930 1_545 S
C1427 N1425 1.279 . S
C1427 C1426 1.358 . S
C1427 H1431 0.930 1_545 S
C1428 C1426 1.356 . S
C1428 C1429 1.348 . S
C1429 C1424 1.353 . S
C1429 C1428 1.348 . S
C1429 H1481 0.929 . S
H1430 C1424 0.930 . S
H1431 C1427 0.930 1_565 S
C1432 N1433 1.314 . S
C1432 C1434 1.353 . S
C1432 H1438 0.930 . S
N1433 Li1409 1.990 . S
N1433 C1432 1.314 . S
N1433 C1436 1.279 . S
C1434 C1432 1.353 . S
C1434 C1437 1.348 . S
C1434 H1482 0.929 . S
C1435 C1436 1.358 . S
C1435 C1437 1.356 . S
C1435 H1483 0.930 . S
C1436 N1433 1.279 . S
C1436 C1435 1.358 . S
C1436 H1439 0.930 . S
C1437 C1434 1.348 . S
C1437 C1435 1.356 . S
H1438 C1432 0.930 . S
H1439 C1436 0.930 . S
C1440 C1442 1.348 . S
C1440 C1443 1.356 . S
C1440 O1470 1.325 . S
N1441 C1444 1.314 . S
N1441 C1445 1.279 . S
C1442 C1440 1.348 . S
C1442 C1444 1.353 . S
C1442 H1484 0.929 . S
C1443 C1440 1.356 . S
C1443 C1445 1.358 . S
C1443 H1485 0.930 . S
C1444 N1441 1.314 . S
C1444 C1442 1.353 . S
C1444 H1486 0.930 . S
C1445 N1441 1.279 . S
C1445 C1443 1.358 . S
C1445 H1487 0.930 . S
C1446 C1447 1.348 . S
C1446 C1448 1.356 . S
C1446 O1471 1.325 . S
C1447 C1446 1.348 . S
C1447 C1449 1.353 . S
C1447 H1488 0.929 . S
C1448 C1446 1.356 . S
C1448 C1450 1.357 . S
C1448 H1489 0.923 1_545 S
C1449 C1447 1.353 . S
C1449 N1451 1.314 . S
C1449 H1490 0.930 . S
C1450 C1448 1.357 . S
C1450 N1451 1.284 . S
C1450 H1491 0.927 1_545 S
N1451 C1449 1.314 . S
N1451 C1450 1.284 . S
C1452 C1454 1.350 1_545 S
C1452 N1455 1.326 . S
C1452 H1458 0.918 1_545 S
C1453 N1455 1.279 . S
C1453 C1456 1.358 . S
C1453 H1459 0.930 . S
C1454 C1452 1.350 1_565 S
C1454 C1457 1.314 1_565 S
C1454 H1492 0.966 . S
N1455 Li1410 1.990 . S
N1455 C1452 1.326 . S
N1455 C1453 1.279 . S
C1456 C1453 1.358 . S
C1456 C1457 1.356 . S
C1456 H1493 0.930 . S
C1457 C1454 1.314 1_545 S
C1457 C1456 1.356 . S
H1458 C1452 0.918 1_565 S
H1459 C1453 0.930 . S
C1460 N1461 1.314 . S
C1460 C1462 1.353 . S
C1460 H1466 0.930 . S
N1461 Li1411 1.990 . S
N1461 C1460 1.314 . S
N1461 C1464 1.279 . S
C1462 C1460 1.353 . S
C1462 C1465 1.348 . S
C1462 H1494 0.929 . S
C1463 C1464 1.358 . S
C1463 C1465 1.356 . S
C1463 H1495 0.930 . S
C1464 N1461 1.279 . S
C1464 C1463 1.358 . S
C1464 H1467 0.930 . S
C1465 C1462 1.348 . S
C1465 C1463 1.356 . S
H1466 C1460 0.930 . S
H1467 C1464 0.930 . S
O1468 Li1408 1.956 1_565 S
O1468 Li1409 1.970 . S
O1468 Li1410 1.961 1_565 S
O1468 C1412 1.325 . S
O1469 Li1408 1.970 . S
O1469 Li1409 1.956 1_545 S
O1469 Li1411 1.961 . S
O1469 C1418 1.325 . S
O1470 Li1408 1.961 . S
O1470 Li1410 1.956 . S
O1470 Li1411 1.970 . S
O1470 C1440 1.325 . S
O1471 Li1409 1.961 1_545 S
O1471 Li1410 1.970 . S
O1471 Li1411 1.956 . S
O1471 C1446 1.325 . S
H1472 C1414 0.929 . S
H1473 C1415 0.930 . S
H1474 C1416 0.930 . S
H1475 C1417 0.930 . S
H1476 C1419 0.930 . S
H1477 C1421 0.929 . S
H1478 C1422 0.930 . S
H1479 C1423 0.930 . S
H1480 C1426 0.930 1_565 S
H1481 C1429 0.929 . S
H1482 C1434 0.929 . S
H1483 C1435 0.930 . S
H1484 C1442 0.929 . S
H1485 C1443 0.930 . S
H1486 C1444 0.930 . S
H1487 C1445 0.930 . S
H1488 C1447 0.929 . S
H1489 C1448 0.923 1_565 S
H1490 C1449 0.930 . S
H1491 C1450 0.927 1_565 S
H1492 C1454 0.966 . S
H1493 C1456 0.930 . S
H1494 C1462 0.929 . S
H1495 C1463 0.930 . S
Li1496 N1513 1.990 . S
Li1496 O1556 1.956 . S
Li1496 O1557 1.970 . S
Li1496 O1558 1.961 . S
Li1497 N1521 1.990 . S
Li1497 O1556 1.970 . S
Li1497 O1557 1.956 . S
Li1497 O1559 1.961 . S
Li1498 N1543 1.990 . S
Li1498 O1556 1.961 . S
Li1498 O1558 1.956 . S
Li1498 O1559 1.970 . S
Li1499 N1549 1.990 . S
Li1499 O1557 1.961 . S
Li1499 O1558 1.970 . S
Li1499 O1559 1.956 . S
C1500 C1502 1.348 . S
C1500 C1503 1.356 . S
C1500 O1556 1.325 . S
N1501 C1504 1.314 . S
N1501 C1505 1.279 . S
C1502 C1500 1.348 . S
C1502 C1504 1.353 . S
C1502 H1560 0.929 . S
C1503 C1500 1.356 . S
C1503 C1505 1.358 . S
C1503 H1561 0.930 . S
C1504 N1501 1.314 . S
C1504 C1502 1.353 . S
C1504 H1562 0.930 . S
C1505 N1501 1.279 . S
C1505 C1503 1.358 . S
C1505 H1563 0.930 . S
C1506 C1509 1.348 . S
C1506 C1510 1.356 . S
C1506 O1557 1.325 . S
C1507 N1508 1.279 . S
C1507 C1510 1.358 . S
C1507 H1564 0.930 . S
N1508 C1507 1.279 . S
N1508 C1511 1.314 . S
C1509 C1506 1.348 . S
C1509 C1511 1.353 . S
C1509 H1565 0.929 . S
C1510 C1506 1.356 . S
C1510 C1507 1.358 . S
C1510 H1566 0.930 . S
C1511 N1508 1.314 . S
C1511 C1509 1.353 . S
C1511 H1567 0.930 . S
C1512 N1513 1.314 . S
C1512 C1517 1.353 . S
C1512 H1518 0.930 . S
N1513 Li1496 1.990 . S
N1513 C1512 1.314 . S
N1513 C1515 1.279 . S
C1514 C1515 1.358 . S
C1514 C1516 1.356 . S
C1514 H1568 0.930 . S
C1515 N1513 1.279 . S
C1515 C1514 1.358 . S
C1515 H1519 0.930 . S
C1516 C1514 1.356 . S
C1516 C1517 1.348 . S
C1517 C1512 1.353 . S
C1517 C1516 1.348 . S
C1517 H1569 0.929 . S
H1518 C1512 0.930 . S
H1519 C1515 0.930 . S
C1520 N1521 1.314 . S
C1520 C1522 1.353 . S
C1520 H1526 0.930 . S
N1521 Li1497 1.990 . S
N1521 C1520 1.314 . S
N1521 C1524 1.279 . S
C1522 C1520 1.353 . S
C1522 C1525 1.348 . S
C1522 H1570 0.929 . S
C1523 C1524 1.358 . S
C1523 C1525 1.356 . S
C1523 H1571 0.930 . S
C1524 N1521 1.279 . S
C1524 C1523 1.358 . S
C1524 H1527 0.930 . S
C1525 C1522 1.348 . S
C1525 C1523 1.356 . S
H1526 C1520 0.930 . S
H1527 C1524 0.930 . S
C1528 C1530 1.348 . S
C1528 C1531 1.356 . S
C1528 O1558 1.325 . S
N1529 C1532 1.314 . S
N1529 C1533 1.279 . S
C1530 C1528 1.348 . S
C1530 C1532 1.353 . S
C1530 H1572 0.929 . S
C1531 C1528 1.356 . S
C1531 C1533 1.358 . S
C1531 H1573 0.930 . S
C1532 N1529 1.314 . S
C1532 C1530 1.353 . S
C1532 H1574 0.930 . S
C1533 N1529 1.279 . S
C1533 C1531 1.358 . S
C1533 H1575 0.930 . S
C1534 C1535 1.348 . S
C1534 C1536 1.356 . S
C1534 O1559 1.325 . S
C1535 C1534 1.348 . S
C1535 C1537 1.353 . S
C1535 H1576 0.929 . S
C1536 C1534 1.356 . S
C1536 C1538 1.358 . S
C1536 H1577 0.930 . S
C1537 C1535 1.353 . S
C1537 N1539 1.314 . S
C1537 H1578 0.930 . S
C1538 C1536 1.358 . S
C1538 N1539 1.279 . S
C1538 H1579 0.930 . S
N1539 C1537 1.314 . S
N1539 C1538 1.279 . S
C1540 C1542 1.353 . S
C1540 N1543 1.314 . S
C1540 H1546 0.930 . S
C1541 N1543 1.279 . S
C1541 C1544 1.358 . S
C1541 H1547 0.930 . S
C1542 C1540 1.353 . S
C1542 C1545 1.348 . S
C1542 H1580 0.929 . S
N1543 Li1498 1.990 . S
N1543 C1540 1.314 . S
N1543 C1541 1.279 . S
C1544 C1541 1.358 . S
C1544 C1545 1.356 . S
C1544 H1581 0.930 . S
C1545 C1542 1.348 . S
C1545 C1544 1.356 . S
H1546 C1540 0.930 . S
H1547 C1541 0.930 . S
C1548 N1549 1.314 . S
C1548 C1550 1.353 . S
C1548 H1554 0.930 . S
N1549 Li1499 1.990 . S
N1549 C1548 1.314 . S
N1549 C1552 1.279 . S
C1550 C1548 1.353 . S
C1550 C1553 1.348 . S
C1550 H1582 0.929 . S
C1551 C1552 1.358 . S
C1551 C1553 1.356 . S
C1551 H1583 0.930 . S
C1552 N1549 1.279 . S
C1552 C1551 1.358 . S
C1552 H1555 0.930 . S
C1553 C1550 1.348 . S
C1553 C1551 1.356 . S
H1554 C1548 0.930 . S
H1555 C1552 0.930 . S
O1556 Li1496 1.956 . S
O1556 Li1497 1.970 . S
O1556 Li1498 1.961 . S
O1556 C1500 1.325 . S
O1557 Li1496 1.970 . S
O1557 Li1497 1.956 . S
O1557 Li1499 1.961 . S
O1557 C1506 1.325 . S
O1558 Li1496 1.961 . S
O1558 Li1498 1.956 . S
O1558 Li1499 1.970 . S
O1558 C1528 1.325 . S
O1559 Li1497 1.961 . S
O1559 Li1498 1.970 . S
O1559 Li1499 1.956 . S
O1559 C1534 1.325 . S
H1560 C1502 0.929 . S
H1561 C1503 0.930 . S
H1562 C1504 0.930 . S
H1563 C1505 0.930 . S
H1564 C1507 0.930 . S
H1565 C1509 0.929 . S
H1566 C1510 0.930 . S
H1567 C1511 0.930 . S
H1568 C1514 0.930 . S
H1569 C1517 0.929 . S
H1570 C1522 0.929 . S
H1571 C1523 0.930 . S
H1572 C1530 0.929 . S
H1573 C1531 0.930 . S
H1574 C1532 0.930 . S
H1575 C1533 0.930 . S
H1576 C1535 0.929 . S
H1577 C1536 0.930 . S
H1578 C1537 0.930 . S
H1579 C1538 0.930 . S
H1580 C1542 0.929 . S
H1581 C1544 0.930 . S
H1582 C1550 0.929 . S
H1583 C1551 0.930 . S
Li1584 N1601 1.990 . S
Li1584 O1644 1.956 . S
Li1584 O1645 1.970 . S
Li1584 O1646 1.961 . S
Li1585 N1609 1.990 . S
Li1585 O1644 1.970 . S
Li1585 O1645 1.956 . S
Li1585 O1647 1.961 . S
Li1586 N1631 1.990 . S
Li1586 O1644 1.961 . S
Li1586 O1646 1.956 . S
Li1586 O1647 1.970 . S
Li1587 N1637 1.990 . S
Li1587 O1645 1.961 . S
Li1587 O1646 1.970 . S
Li1587 O1647 1.956 . S
C1588 C1590 1.348 . S
C1588 C1591 1.356 . S
C1588 O1644 1.325 . S
N1589 C1592 1.314 . S
N1589 C1593 1.279 . S
C1590 C1588 1.348 . S
C1590 C1592 1.353 . S
C1590 H1648 0.929 . S
C1591 C1588 1.356 . S
C1591 C1593 1.358 . S
C1591 H1649 0.930 . S
C1592 N1589 1.314 . S
C1592 C1590 1.353 . S
C1592 H1650 0.930 . S
C1593 N1589 1.279 . S
C1593 C1591 1.358 . S
C1593 H1651 0.930 . S
C1594 C1597 1.348 . S
C1594 C1598 1.356 . S
C1594 O1645 1.325 . S
C1595 N1596 1.279 . S
C1595 C1598 1.358 . S
C1595 H1652 0.930 . S
N1596 C1595 1.279 . S
N1596 C1599 1.314 . S
C1597 C1594 1.348 . S
C1597 C1599 1.353 . S
C1597 H1653 0.929 . S
C1598 C1594 1.356 . S
C1598 C1595 1.358 . S
C1598 H1654 0.930 . S
C1599 N1596 1.314 . S
C1599 C1597 1.353 . S
C1599 H1655 0.930 . S
C1600 N1601 1.314 . S
C1600 C1605 1.353 . S
C1600 H1606 0.930 . S
N1601 Li1584 1.990 . S
N1601 C1600 1.314 . S
N1601 C1603 1.279 . S
C1602 C1603 1.358 . S
C1602 C1604 1.356 . S
C1602 H1656 0.930 . S
C1603 N1601 1.279 . S
C1603 C1602 1.358 . S
C1603 H1607 0.930 . S
C1604 C1602 1.356 . S
C1604 C1605 1.348 . S
C1605 C1600 1.353 . S
C1605 C1604 1.348 . S
C1605 H1657 0.929 . S
H1606 C1600 0.930 . S
H1607 C1603 0.930 . S
C1608 N1609 1.314 . S
C1608 C1610 1.353 . S
C1608 H1614 0.930 . S
N1609 Li1585 1.990 . S
N1609 C1608 1.314 . S
N1609 C1612 1.279 . S
C1610 C1608 1.353 . S
C1610 C1613 1.348 . S
C1610 H1658 0.929 . S
C1611 C1612 1.358 . S
C1611 C1613 1.356 . S
C1611 H1659 0.930 . S
C1612 N1609 1.279 . S
C1612 C1611 1.358 . S
C1612 H1615 0.930 . S
C1613 C1610 1.348 . S
C1613 C1611 1.356 . S
H1614 C1608 0.930 . S
H1615 C1612 0.930 . S
C1616 C1618 1.348 . S
C1616 C1619 1.356 . S
C1616 O1646 1.325 . S
N1617 C1620 1.314 . S
N1617 C1621 1.279 . S
C1618 C1616 1.348 . S
C1618 C1620 1.353 . S
C1618 H1660 0.929 . S
C1619 C1616 1.356 . S
C1619 C1621 1.358 . S
C1619 H1661 0.930 . S
C1620 N1617 1.314 . S
C1620 C1618 1.353 . S
C1620 H1662 0.930 . S
C1621 N1617 1.279 . S
C1621 C1619 1.358 . S
C1621 H1663 0.930 . S
C1622 C1623 1.348 . S
C1622 C1624 1.356 . S
C1622 O1647 1.325 . S
C1623 C1622 1.348 . S
C1623 C1625 1.353 . S
C1623 H1664 0.929 . S
C1624 C1622 1.356 . S
C1624 C1626 1.358 . S
C1624 H1665 0.930 . S
C1625 C1623 1.353 . S
C1625 N1627 1.314 . S
C1625 H1666 0.930 . S
C1626 C1624 1.358 . S
C1626 N1627 1.279 . S
C1626 H1667 0.930 . S
N1627 C1625 1.314 . S
N1627 C1626 1.279 . S
C1628 C1630 1.353 . S
C1628 N1631 1.314 . S
C1628 H1634 0.930 . S
C1629 N1631 1.279 . S
C1629 C1632 1.358 . S
C1629 H1635 0.930 . S
C1630 C1628 1.353 . S
C1630 C1633 1.348 . S
C1630 H1668 0.929 . S
N1631 Li1586 1.990 . S
N1631 C1628 1.314 . S
N1631 C1629 1.279 . S
C1632 C1629 1.358 . S
C1632 C1633 1.356 . S
C1632 H1669 0.930 . S
C1633 C1630 1.348 . S
C1633 C1632 1.356 . S
H1634 C1628 0.930 . S
H1635 C1629 0.930 . S
C1636 N1637 1.314 . S
C1636 C1638 1.353 . S
C1636 H1642 0.930 . S
N1637 Li1587 1.990 . S
N1637 C1636 1.314 . S
N1637 C1640 1.279 . S
C1638 C1636 1.353 . S
C1638 C1641 1.348 . S
C1638 H1670 0.929 . S
C1639 C1640 1.358 . S
C1639 C1641 1.356 . S
C1639 H1671 0.930 . S
C1640 N1637 1.279 . S
C1640 C1639 1.358 . S
C1640 H1643 0.930 . S
C1641 C1638 1.348 . S
C1641 C1639 1.356 . S
H1642 C1636 0.930 . S
H1643 C1640 0.930 . S
O1644 Li1584 1.956 . S
O1644 Li1585 1.970 . S
O1644 Li1586 1.961 . S
O1644 C1588 1.325 . S
O1645 Li1584 1.970 . S
O1645 Li1585 1.956 . S
O1645 Li1587 1.961 . S
O1645 C1594 1.325 . S
O1646 Li1584 1.961 . S
O1646 Li1586 1.956 . S
O1646 Li1587 1.970 . S
O1646 C1616 1.325 . S
O1647 Li1585 1.961 . S
O1647 Li1586 1.970 . S
O1647 Li1587 1.956 . S
O1647 C1622 1.325 . S
H1648 C1590 0.929 . S
H1649 C1591 0.930 . S
H1650 C1592 0.930 . S
H1651 C1593 0.930 . S
H1652 C1595 0.930 . S
H1653 C1597 0.929 . S
H1654 C1598 0.930 . S
H1655 C1599 0.930 . S
H1656 C1602 0.930 . S
H1657 C1605 0.929 . S
H1658 C1610 0.929 . S
H1659 C1611 0.930 . S
H1660 C1618 0.929 . S
H1661 C1619 0.930 . S
H1662 C1620 0.930 . S
H1663 C1621 0.930 . S
H1664 C1623 0.929 . S
H1665 C1624 0.930 . S
H1666 C1625 0.930 . S
H1667 C1626 0.930 . S
H1668 C1630 0.929 . S
H1669 C1632 0.930 . S
H1670 C1638 0.929 . S
H1671 C1639 0.930 . S
Li1672 N1689 1.990 . S
Li1672 O1732 1.956 . S
Li1672 O1733 1.970 . S
Li1672 O1734 1.961 . S
Li1673 N1697 1.990 . S
Li1673 O1732 1.970 . S
Li1673 O1733 1.956 . S
Li1673 O1735 1.961 . S
Li1674 N1719 1.990 . S
Li1674 O1732 1.961 . S
Li1674 O1734 1.956 . S
Li1674 O1735 1.970 . S
Li1675 N1725 1.990 . S
Li1675 O1733 1.961 . S
Li1675 O1734 1.970 . S
Li1675 O1735 1.956 . S
C1676 C1678 1.348 . S
C1676 C1679 1.356 . S
C1676 O1732 1.325 . S
N1677 C1680 1.314 . S
N1677 C1681 1.279 . S
C1678 C1676 1.348 . S
C1678 C1680 1.353 . S
C1678 H1736 0.929 . S
C1679 C1676 1.356 . S
C1679 C1681 1.358 . S
C1679 H1737 0.930 . S
C1680 N1677 1.314 . S
C1680 C1678 1.353 . S
C1680 H1738 0.930 . S
C1681 N1677 1.279 . S
C1681 C1679 1.358 . S
C1681 H1739 0.930 . S
C1682 C1685 1.348 . S
C1682 C1686 1.356 . S
C1682 O1733 1.325 . S
C1683 N1684 1.279 . S
C1683 C1686 1.358 . S
C1683 H1740 0.930 . S
N1684 C1683 1.279 . S
N1684 C1687 1.314 . S
C1685 C1682 1.348 . S
C1685 C1687 1.353 . S
C1685 H1741 0.929 . S
C1686 C1682 1.356 . S
C1686 C1683 1.358 . S
C1686 H1742 0.930 . S
C1687 N1684 1.314 . S
C1687 C1685 1.353 . S
C1687 H1743 0.930 . S
C1688 N1689 1.314 . S
C1688 C1693 1.353 . S
C1688 H1694 0.930 . S
N1689 Li1672 1.990 . S
N1689 C1688 1.314 . S
N1689 C1691 1.279 . S
C1690 C1691 1.358 . S
C1690 C1692 1.356 . S
C1690 H1744 0.930 . S
C1691 N1689 1.279 . S
C1691 C1690 1.358 . S
C1691 H1695 0.930 . S
C1692 C1690 1.356 . S
C1692 C1693 1.348 . S
C1693 C1688 1.353 . S
C1693 C1692 1.348 . S
C1693 H1745 0.929 . S
H1694 C1688 0.930 . S
H1695 C1691 0.930 . S
C1696 N1697 1.314 . S
C1696 C1698 1.353 . S
C1696 H1702 0.930 . S
N1697 Li1673 1.990 . S
N1697 C1696 1.314 . S
N1697 C1700 1.279 . S
C1698 C1696 1.353 . S
C1698 C1701 1.348 . S
C1698 H1746 0.929 . S
C1699 C1700 1.358 . S
C1699 C1701 1.356 . S
C1699 H1747 0.930 . S
C1700 N1697 1.279 . S
C1700 C1699 1.358 . S
C1700 H1703 0.930 . S
C1701 C1698 1.348 . S
C1701 C1699 1.356 . S
H1702 C1696 0.930 . S
H1703 C1700 0.930 . S
C1704 C1706 1.348 1_545 S
C1704 C1707 1.356 . S
C1704 O1734 1.325 . S
N1705 C1708 1.314 . S
N1705 C1709 1.279 . S
C1706 C1704 1.348 1_565 S
C1706 C1708 1.353 . S
C1706 H1748 0.929 . S
C1707 C1704 1.356 . S
C1707 C1709 1.358 1_545 S
C1707 H1749 0.930 . S
C1708 N1705 1.314 . S
C1708 C1706 1.353 . S
C1708 H1750 0.930 . S
C1709 N1705 1.279 . S
C1709 C1707 1.358 1_565 S
C1709 H1751 0.930 . S
C1710 C1711 1.348 . S
C1710 C1712 1.356 . S
C1710 O1735 1.325 . S
C1711 C1710 1.348 . S
C1711 C1713 1.353 . S
C1711 H1752 0.929 . S
C1712 C1710 1.356 . S
C1712 C1714 1.358 . S
C1712 H1753 0.930 . S
C1713 C1711 1.353 . S
C1713 N1715 1.314 . S
C1713 H1754 0.930 . S
C1714 C1712 1.358 . S
C1714 N1715 1.279 . S
C1714 H1755 0.930 . S
N1715 C1713 1.314 . S
N1715 C1714 1.279 . S
C1716 C1718 1.353 . S
C1716 N1719 1.314 . S
C1716 H1722 0.930 . S
C1717 N1719 1.279 . S
C1717 C1720 1.358 . S
C1717 H1723 0.930 . S
C1718 C1716 1.353 . S
C1718 C1721 1.348 . S
C1718 H1756 0.929 . S
N1719 Li1674 1.990 . S
N1719 C1716 1.314 . S
N1719 C1717 1.279 . S
C1720 C1717 1.358 . S
C1720 C1721 1.356 . S
C1720 H1757 0.930 . S
C1721 C1718 1.348 . S
C1721 C1720 1.356 . S
H1722 C1716 0.930 . S
H1723 C1717 0.930 . S
C1724 N1725 1.314 1_565 S
C1724 C1726 1.353 . S
C1724 H1730 0.930 . S
N1725 Li1675 1.990 . S
N1725 C1724 1.314 1_545 S
N1725 C1728 1.279 1_545 S
C1726 C1724 1.353 . S
C1726 C1729 1.348 . S
C1726 H1758 0.929 . S
C1727 C1728 1.358 . S
C1727 C1729 1.356 . S
C1727 H1759 0.930 . S
C1728 N1725 1.279 1_565 S
C1728 C1727 1.358 . S
C1728 H1731 0.930 1_565 S
C1729 C1726 1.348 . S
C1729 C1727 1.356 . S
H1730 C1724 0.930 . S
H1731 C1728 0.930 1_545 S
O1732 Li1672 1.956 . S
O1732 Li1673 1.970 . S
O1732 Li1674 1.961 . S
O1732 C1676 1.325 . S
O1733 Li1672 1.970 . S
O1733 Li1673 1.956 . S
O1733 Li1675 1.961 . S
O1733 C1682 1.325 . S
O1734 Li1672 1.961 . S
O1734 Li1674 1.956 . S
O1734 Li1675 1.970 . S
O1734 C1704 1.325 . S
O1735 Li1673 1.961 . S
O1735 Li1674 1.970 . S
O1735 Li1675 1.956 . S
O1735 C1710 1.325 . S
H1736 C1678 0.929 . S
H1737 C1679 0.930 . S
H1738 C1680 0.930 . S
H1739 C1681 0.930 . S
H1740 C1683 0.930 . S
H1741 C1685 0.929 . S
H1742 C1686 0.930 . S
H1743 C1687 0.930 . S
H1744 C1690 0.930 . S
H1745 C1693 0.929 . S
H1746 C1698 0.929 . S
H1747 C1699 0.930 . S
H1748 C1706 0.929 . S
H1749 C1707 0.930 . S
H1750 C1708 0.930 . S
H1751 C1709 0.930 . S
H1752 C1711 0.929 . S
H1753 C1712 0.930 . S
H1754 C1713 0.930 . S
H1755 C1714 0.930 . S
H1756 C1718 0.929 . S
H1757 C1720 0.930 . S
H1758 C1726 0.929 . S
H1759 C1727 0.930 . S
Li1760 N1777 1.990 . S
Li1760 O1820 1.956 . S
Li1760 O1821 1.970 . S
Li1760 O1822 1.961 . S
Li1761 N1785 1.990 . S
Li1761 O1820 1.970 . S
Li1761 O1821 1.956 . S
Li1761 O1823 1.961 1_554 S
Li1762 N1807 1.990 . S
Li1762 O1820 1.961 1_556 S
Li1762 O1822 1.956 1_556 S
Li1762 O1823 1.970 . S
Li1763 N1813 1.990 . S
Li1763 O1821 1.961 . S
Li1763 O1822 1.970 . S
Li1763 O1823 1.956 1_554 S
C1764 C1766 1.348 . S
C1764 C1767 1.356 . S
C1764 O1820 1.325 . S
N1765 C1768 1.314 . S
N1765 C1769 1.279 . S
C1766 C1764 1.348 . S
C1766 C1768 1.353 . S
C1766 H1824 0.929 . S
C1767 C1764 1.356 . S
C1767 C1769 1.358 . S
C1767 H1825 0.930 . S
C1768 N1765 1.314 . S
C1768 C1766 1.353 . S
C1768 H1826 0.930 . S
C1769 N1765 1.279 . S
C1769 C1767 1.358 . S
C1769 H1827 0.930 . S
C1770 C1773 1.348 . S
C1770 C1774 1.356 . S
C1770 O1821 1.325 . S
C1771 N1772 1.279 . S
C1771 C1774 1.358 . S
C1771 H1828 0.930 . S
N1772 C1771 1.279 . S
N1772 C1775 1.314 . S
C1773 C1770 1.348 . S
C1773 C1775 1.353 . S
C1773 H1829 0.929 . S
C1774 C1770 1.356 . S
C1774 C1771 1.358 . S
C1774 H1830 0.930 . S
C1775 N1772 1.314 . S
C1775 C1773 1.353 . S
C1775 H1831 0.930 . S
C1776 N1777 1.314 . S
C1776 C1781 1.353 . S
C1776 H1782 0.930 . S
N1777 Li1760 1.990 . S
N1777 C1776 1.314 . S
N1777 C1779 1.279 . S
C1778 C1779 1.358 . S
C1778 C1780 1.356 . S
C1778 H1832 0.930 . S
C1779 N1777 1.279 . S
C1779 C1778 1.358 . S
C1779 H1783 0.930 . S
C1780 C1778 1.356 . S
C1780 C1781 1.348 . S
C1781 C1776 1.353 . S
C1781 C1780 1.348 . S
C1781 H1833 0.929 . S
H1782 C1776 0.930 . S
H1783 C1779 0.930 . S
C1784 N1785 1.314 1_556 S
C1784 C1786 1.353 . S
C1784 H1790 0.930 . S
N1785 Li1761 1.990 . S
N1785 C1784 1.314 1_554 S
N1785 C1788 1.279 . S
C1786 C1784 1.353 . S
C1786 C1789 1.348 1_556 S
C1786 H1834 0.929 . S
C1787 C1788 1.358 . S
C1787 C1789 1.356 . S
C1787 H1835 0.930 . S
C1788 N1785 1.279 . S
C1788 C1787 1.358 . S
C1788 H1791 0.930 . S
C1789 C1786 1.348 1_554 S
C1789 C1787 1.356 . S
H1790 C1784 0.930 . S
H1791 C1788 0.930 . S
C1792 C1794 1.348 . S
C1792 C1795 1.356 . S
C1792 O1822 1.325 . S
N1793 C1796 1.314 . S
N1793 C1797 1.279 . S
C1794 C1792 1.348 . S
C1794 C1796 1.353 . S
C1794 H1836 0.929 1_554 S
C1795 C1792 1.356 . S
C1795 C1797 1.358 . S
C1795 H1837 0.930 . S
C1796 N1793 1.314 . S
C1796 C1794 1.353 . S
C1796 H1838 0.930 1_554 S
C1797 N1793 1.279 . S
C1797 C1795 1.358 . S
C1797 H1839 0.930 . S
C1798 C1799 1.348 . S
C1798 C1800 1.356 . S
C1798 O1823 1.325 . S
C1799 C1798 1.348 . S
C1799 C1801 1.353 . S
C1799 H1840 0.929 . S
C1800 C1798 1.356 . S
C1800 C1802 1.358 . S
C1800 H1841 0.930 . S
C1801 C1799 1.353 . S
C1801 N1803 1.314 . S
C1801 H1842 0.930 . S
C1802 C1800 1.358 . S
C1802 N1803 1.279 . S
C1802 H1843 0.930 . S
N1803 C1801 1.314 . S
N1803 C1802 1.279 . S
C1804 C1806 1.353 . S
C1804 N1807 1.314 . S
C1804 H1810 0.930 . S
C1805 N1807 1.279 . S
C1805 C1808 1.358 . S
C1805 H1811 0.930 . S
C1806 C1804 1.353 . S
C1806 C1809 1.348 . S
C1806 H1844 0.929 . S
N1807 Li1762 1.990 . S
N1807 C1804 1.314 . S
N1807 C1805 1.279 . S
C1808 C1805 1.358 . S
C1808 C1809 1.356 . S
C1808 H1845 0.930 . S
C1809 C1806 1.348 . S
C1809 C1808 1.356 . S
H1810 C1804 0.930 . S
H1811 C1805 0.930 . S
C1812 N1813 1.314 . S
C1812 C1814 1.353 . S
C1812 H1818 0.930 . S
N1813 Li1763 1.990 . S
N1813 C1812 1.314 . S
N1813 C1816 1.279 1_554 S
C1814 C1812 1.353 . S
C1814 C1817 1.387 . S
C1814 H1846 0.929 . S
C1815 C1816 1.358 . S
C1815 C1817 1.314 1_556 S
C1815 H1847 0.930 . S
C1816 N1813 1.279 1_556 S
C1816 C1815 1.358 . S
C1816 H1819 0.930 . S
C1817 C1814 1.387 . S
C1817 C1815 1.314 1_554 S
H1818 C1812 0.930 . S
H1819 C1816 0.930 . S
O1820 Li1760 1.956 . S
O1820 Li1761 1.970 . S
O1820 Li1762 1.961 1_554 S
O1820 C1764 1.325 . S
O1821 Li1760 1.970 . S
O1821 Li1761 1.956 . S
O1821 Li1763 1.961 . S
O1821 C1770 1.325 . S
O1822 Li1760 1.961 . S
O1822 Li1762 1.956 1_554 S
O1822 Li1763 1.970 . S
O1822 C1792 1.325 . S
O1823 Li1761 1.961 1_556 S
O1823 Li1762 1.970 . S
O1823 Li1763 1.956 1_556 S
O1823 C1798 1.325 . S
H1824 C1766 0.929 . S
H1825 C1767 0.930 . S
H1826 C1768 0.930 . S
H1827 C1769 0.930 . S
H1828 C1771 0.930 . S
H1829 C1773 0.929 . S
H1830 C1774 0.930 . S
H1831 C1775 0.930 . S
H1832 C1778 0.930 . S
H1833 C1781 0.929 . S
H1834 C1786 0.929 . S
H1835 C1787 0.930 . S
H1836 C1794 0.929 1_556 S
H1837 C1795 0.930 . S
H1838 C1796 0.930 1_556 S
H1839 C1797 0.930 . S
H1840 C1799 0.929 . S
H1841 C1800 0.930 . S
H1842 C1801 0.930 . S
H1843 C1802 0.930 . S
H1844 C1806 0.929 . S
H1845 C1808 0.930 . S
H1846 C1814 0.929 . S
H1847 C1815 0.930 . S
Li1848 N1865 1.990 . S
Li1848 O1908 1.956 . S
Li1848 O1909 1.970 . S
Li1848 O1910 1.961 . S
Li1849 N1873 1.990 . S
Li1849 O1908 1.970 . S
Li1849 O1909 1.956 . S
Li1849 O1911 1.961 . S
Li1850 N1895 1.990 . S
Li1850 O1908 1.961 . S
Li1850 O1910 1.956 . S
Li1850 O1911 1.970 . S
Li1851 N1901 1.990 . S
Li1851 O1909 1.961 . S
Li1851 O1910 1.970 . S
Li1851 O1911 1.956 . S
C1852 C1854 1.348 . S
C1852 C1855 1.356 . S
C1852 O1908 1.325 . S
N1853 C1856 1.314 . S
N1853 C1857 1.279 . S
C1854 C1852 1.348 . S
C1854 C1856 1.353 . S
C1854 H1912 0.929 . S
C1855 C1852 1.356 . S
C1855 C1857 1.358 . S
C1855 H1913 0.930 . S
C1856 N1853 1.314 . S
C1856 C1854 1.353 . S
C1856 H1914 0.930 . S
C1857 N1853 1.279 . S
C1857 C1855 1.358 . S
C1857 H1915 0.930 . S
C1858 C1861 1.348 . S
C1858 C1862 1.356 . S
C1858 O1909 1.325 . S
C1859 N1860 1.279 . S
C1859 C1862 1.358 . S
C1859 H1916 0.930 . S
N1860 C1859 1.279 . S
N1860 C1863 1.314 . S
C1861 C1858 1.348 . S
C1861 C1863 1.353 . S
C1861 H1917 0.929 . S
C1862 C1858 1.356 . S
C1862 C1859 1.358 . S
C1862 H1918 0.930 . S
C1863 N1860 1.314 . S
C1863 C1861 1.353 . S
C1863 H1919 0.930 . S
C1864 N1865 1.314 . S
C1864 C1869 1.353 . S
C1864 H1870 0.930 . S
N1865 Li1848 1.990 . S
N1865 C1864 1.314 . S
N1865 C1867 1.279 . S
C1866 C1867 1.358 . S
C1866 C1868 1.356 . S
C1866 H1920 0.930 . S
C1867 N1865 1.279 . S
C1867 C1866 1.358 . S
C1867 H1871 0.930 . S
C1868 C1866 1.356 . S
C1868 C1869 1.348 . S
C1869 C1864 1.353 . S
C1869 C1868 1.348 . S
C1869 H1921 0.929 . S
H1870 C1864 0.930 . S
H1871 C1867 0.930 . S
C1872 N1873 1.314 . S
C1872 C1874 1.353 . S
C1872 H1878 0.930 . S
N1873 Li1849 1.990 . S
N1873 C1872 1.314 . S
N1873 C1876 1.279 . S
C1874 C1872 1.353 . S
C1874 C1877 1.348 . S
C1874 H1922 0.929 . S
C1875 C1876 1.358 . S
C1875 C1877 1.356 . S
C1875 H1923 0.930 . S
C1876 N1873 1.279 . S
C1876 C1875 1.358 . S
C1876 H1879 0.930 . S
C1877 C1874 1.348 . S
C1877 C1875 1.356 . S
H1878 C1872 0.930 . S
H1879 C1876 0.930 . S
C1880 C1882 1.348 . S
C1880 C1883 1.356 . S
C1880 O1910 1.325 . S
N1881 C1884 1.314 . S
N1881 C1885 1.279 . S
C1882 C1880 1.348 . S
C1882 C1884 1.353 . S
C1882 H1924 0.929 . S
C1883 C1880 1.356 . S
C1883 C1885 1.358 . S
C1883 H1925 0.930 . S
C1884 N1881 1.314 . S
C1884 C1882 1.353 . S
C1884 H1926 0.930 . S
C1885 N1881 1.279 . S
C1885 C1883 1.358 . S
C1885 H1927 0.930 . S
C1886 C1887 1.348 . S
C1886 C1888 1.356 . S
C1886 O1911 1.325 . S
C1887 C1886 1.348 . S
C1887 C1889 1.353 . S
C1887 H1928 0.929 . S
C1888 C1886 1.356 . S
C1888 C1890 1.358 . S
C1888 H1929 0.930 . S
C1889 C1887 1.353 . S
C1889 N1891 1.314 . S
C1889 H1930 0.930 . S
C1890 C1888 1.358 . S
C1890 N1891 1.279 . S
C1890 H1931 0.930 . S
N1891 C1889 1.314 . S
N1891 C1890 1.279 . S
C1892 C1894 1.353 . S
C1892 N1895 1.314 . S
C1892 H1898 0.930 . S
C1893 N1895 1.279 . S
C1893 C1896 1.358 . S
C1893 H1899 0.930 . S
C1894 C1892 1.353 . S
C1894 C1897 1.348 . S
C1894 H1932 0.929 . S
N1895 Li1850 1.990 . S
N1895 C1892 1.314 . S
N1895 C1893 1.279 . S
C1896 C1893 1.358 . S
C1896 C1897 1.356 . S
C1896 H1933 0.930 . S
C1897 C1894 1.348 . S
C1897 C1896 1.356 . S
H1898 C1892 0.930 . S
H1899 C1893 0.930 . S
C1900 N1901 1.314 . S
C1900 C1902 1.353 . S
C1900 H1906 0.930 . S
N1901 Li1851 1.990 . S
N1901 C1900 1.314 . S
N1901 C1904 1.279 . S
C1902 C1900 1.353 . S
C1902 C1905 1.348 . S
C1902 H1934 0.929 . S
C1903 C1904 1.358 . S
C1903 C1905 1.356 . S
C1903 H1935 0.930 . S
C1904 N1901 1.279 . S
C1904 C1903 1.358 . S
C1904 H1907 0.930 . S
C1905 C1902 1.348 . S
C1905 C1903 1.356 . S
H1906 C1900 0.930 . S
H1907 C1904 0.930 . S
O1908 Li1848 1.956 . S
O1908 Li1849 1.970 . S
O1908 Li1850 1.961 . S
O1908 C1852 1.325 . S
O1909 Li1848 1.970 . S
O1909 Li1849 1.956 . S
O1909 Li1851 1.961 . S
O1909 C1858 1.325 . S
O1910 Li1848 1.961 . S
O1910 Li1850 1.956 . S
O1910 Li1851 1.970 . S
O1910 C1880 1.325 . S
O1911 Li1849 1.961 . S
O1911 Li1850 1.970 . S
O1911 Li1851 1.956 . S
O1911 C1886 1.325 . S
H1912 C1854 0.929 . S
H1913 C1855 0.930 . S
H1914 C1856 0.930 . S
H1915 C1857 0.930 . S
H1916 C1859 0.930 . S
H1917 C1861 0.929 . S
H1918 C1862 0.930 . S
H1919 C1863 0.930 . S
H1920 C1866 0.930 . S
H1921 C1869 0.929 . S
H1922 C1874 0.929 . S
H1923 C1875 0.930 . S
H1924 C1882 0.929 . S
H1925 C1883 0.930 . S
H1926 C1884 0.930 . S
H1927 C1885 0.930 . S
H1928 C1887 0.929 . S
H1929 C1888 0.930 . S
H1930 C1889 0.930 . S
H1931 C1890 0.930 . S
H1932 C1894 0.929 . S
H1933 C1896 0.930 . S
H1934 C1902 0.929 . S
H1935 C1903 0.930 . S
Li1936 N1953 1.990 . S
Li1936 O1996 1.956 . S
Li1936 O1997 1.970 . S
Li1936 O1998 1.961 . S
Li1937 N1961 1.990 . S
Li1937 O1996 1.970 . S
Li1937 O1997 1.956 . S
Li1937 O1999 1.961 . S
Li1938 N1983 1.990 . S
Li1938 O1996 1.961 . S
Li1938 O1998 1.956 . S
Li1938 O1999 1.970 . S
Li1939 N1989 1.990 . S
Li1939 O1997 1.961 . S
Li1939 O1998 1.970 . S
Li1939 O1999 1.956 . S
C1940 C1942 1.348 . S
C1940 C1943 1.356 . S
C1940 O1996 1.325 . S
N1941 C1944 1.314 . S
N1941 C1945 1.279 . S
C1942 C1940 1.348 . S
C1942 C1944 1.353 . S
C1942 H2000 0.929 . S
C1943 C1940 1.356 . S
C1943 C1945 1.358 . S
C1943 H2001 0.930 . S
C1944 N1941 1.314 . S
C1944 C1942 1.353 . S
C1944 H2002 0.930 . S
C1945 N1941 1.279 . S
C1945 C1943 1.358 . S
C1945 H2003 0.930 . S
C1946 C1949 1.348 . S
C1946 C1950 1.356 . S
C1946 O1997 1.325 . S
C1947 N1948 1.279 . S
C1947 C1950 1.358 . S
C1947 H2004 0.930 . S
N1948 C1947 1.279 . S
N1948 C1951 1.314 . S
C1949 C1946 1.348 . S
C1949 C1951 1.353 . S
C1949 H2005 0.929 . S
C1950 C1946 1.356 . S
C1950 C1947 1.358 . S
C1950 H2006 0.930 . S
C1951 N1948 1.314 . S
C1951 C1949 1.353 . S
C1951 H2007 0.930 . S
C1952 N1953 1.314 . S
C1952 C1957 1.353 . S
C1952 H1958 0.930 . S
N1953 Li1936 1.990 . S
N1953 C1952 1.314 . S
N1953 C1955 1.279 . S
C1954 C1955 1.358 . S
C1954 C1956 1.356 . S
C1954 H2008 0.930 . S
C1955 N1953 1.279 . S
C1955 C1954 1.358 . S
C1955 H1959 0.930 . S
C1956 C1954 1.356 . S
C1956 C1957 1.348 . S
C1957 C1952 1.353 . S
C1957 C1956 1.348 . S
C1957 H2009 0.929 . S
H1958 C1952 0.930 . S
H1959 C1955 0.930 . S
C1960 N1961 1.314 . S
C1960 C1962 1.353 . S
C1960 H1966 0.930 . S
N1961 Li1937 1.990 . S
N1961 C1960 1.314 . S
N1961 C1964 1.279 . S
C1962 C1960 1.353 . S
C1962 C1965 1.348 . S
C1962 H2010 0.929 . S
C1963 C1964 1.358 . S
C1963 C1965 1.356 . S
C1963 H2011 0.930 . S
C1964 N1961 1.279 . S
C1964 C1963 1.358 . S
C1964 H1967 0.930 . S
C1965 C1962 1.348 . S
C1965 C1963 1.356 . S
H1966 C1960 0.930 . S
H1967 C1964 0.930 . S
C1968 C1970 1.348 . S
C1968 C1971 1.356 . S
C1968 O1998 1.325 . S
N1969 C1972 1.314 . S
N1969 C1973 1.279 . S
C1970 C1968 1.348 . S
C1970 C1972 1.353 . S
C1970 H2012 0.929 . S
C1971 C1968 1.356 . S
C1971 C1973 1.358 . S
C1971 H2013 0.930 . S
C1972 N1969 1.314 . S
C1972 C1970 1.353 . S
C1972 H2014 0.930 . S
C1973 N1969 1.279 . S
C1973 C1971 1.358 . S
C1973 H2015 0.930 . S
C1974 C1975 1.348 . S
C1974 C1976 1.356 . S
C1974 O1999 1.325 . S
C1975 C1974 1.348 . S
C1975 C1977 1.353 . S
C1975 H2016 0.929 . S
C1976 C1974 1.356 . S
C1976 C1978 1.358 . S
C1976 H2017 0.930 . S
C1977 C1975 1.353 . S
C1977 N1979 1.314 . S
C1977 H2018 0.930 . S
C1978 C1976 1.358 . S
C1978 N1979 1.279 . S
C1978 H2019 0.930 . S
N1979 C1977 1.314 . S
N1979 C1978 1.279 . S
C1980 C1982 1.353 . S
C1980 N1983 1.314 . S
C1980 H1986 0.930 . S
C1981 N1983 1.279 . S
C1981 C1984 1.358 . S
C1981 H1987 0.930 . S
C1982 C1980 1.353 . S
C1982 C1985 1.348 . S
C1982 H2020 0.929 . S
N1983 Li1938 1.990 . S
N1983 C1980 1.314 . S
N1983 C1981 1.279 . S
C1984 C1981 1.358 . S
C1984 C1985 1.356 . S
C1984 H2021 0.930 . S
C1985 C1982 1.348 . S
C1985 C1984 1.356 . S
H1986 C1980 0.930 . S
H1987 C1981 0.930 . S
C1988 N1989 1.314 . S
C1988 C1990 1.353 . S
C1988 H1994 0.930 . S
N1989 Li1939 1.990 . S
N1989 C1988 1.314 . S
N1989 C1992 1.279 . S
C1990 C1988 1.353 . S
C1990 C1993 1.348 . S
C1990 H2022 0.929 . S
C1991 C1992 1.358 . S
C1991 C1993 1.356 . S
C1991 H2023 0.930 . S
C1992 N1989 1.279 . S
C1992 C1991 1.358 . S
C1992 H1995 0.930 . S
C1993 C1990 1.348 . S
C1993 C1991 1.356 . S
H1994 C1988 0.930 . S
H1995 C1992 0.930 . S
O1996 Li1936 1.956 . S
O1996 Li1937 1.970 . S
O1996 Li1938 1.961 . S
O1996 C1940 1.325 . S
O1997 Li1936 1.970 . S
O1997 Li1937 1.956 . S
O1997 Li1939 1.961 . S
O1997 C1946 1.325 . S
O1998 Li1936 1.961 . S
O1998 Li1938 1.956 . S
O1998 Li1939 1.970 . S
O1998 C1968 1.325 . S
O1999 Li1937 1.961 . S
O1999 Li1938 1.970 . S
O1999 Li1939 1.956 . S
O1999 C1974 1.325 . S
H2000 C1942 0.929 . S
H2001 C1943 0.930 . S
H2002 C1944 0.930 . S
H2003 C1945 0.930 . S
H2004 C1947 0.930 . S
H2005 C1949 0.929 . S
H2006 C1950 0.930 . S
H2007 C1951 0.930 . S
H2008 C1954 0.930 . S
H2009 C1957 0.929 . S
H2010 C1962 0.929 . S
H2011 C1963 0.930 . S
H2012 C1970 0.929 . S
H2013 C1971 0.930 . S
H2014 C1972 0.930 . S
H2015 C1973 0.930 . S
H2016 C1975 0.929 . S
H2017 C1976 0.930 . S
H2018 C1977 0.930 . S
H2019 C1978 0.930 . S
H2020 C1982 0.929 . S
H2021 C1984 0.930 . S
H2022 C1990 0.929 . S
H2023 C1991 0.930 . S
Li2024 N2041 1.990 . S
Li2024 O2084 1.956 . S
Li2024 O2085 1.970 . S
Li2024 O2086 1.961 . S
Li2025 N2049 1.990 . S
Li2025 O2084 1.970 . S
Li2025 O2085 1.956 . S
Li2025 O2087 1.961 . S
Li2026 N2071 1.990 . S
Li2026 O2084 1.961 . S
Li2026 O2086 1.956 . S
Li2026 O2087 1.970 . S
Li2027 N2077 1.990 . S
Li2027 O2085 1.961 . S
Li2027 O2086 1.970 . S
Li2027 O2087 1.956 . S
C2028 C2030 1.348 . S
C2028 C2031 1.356 . S
C2028 O2084 1.325 . S
N2029 C2032 1.314 . S
N2029 C2033 1.279 . S
C2030 C2028 1.348 . S
C2030 C2032 1.353 . S
C2030 H2088 0.929 . S
C2031 C2028 1.356 . S
C2031 C2033 1.358 . S
C2031 H2089 0.930 . S
C2032 N2029 1.314 . S
C2032 C2030 1.353 . S
C2032 H2090 0.930 . S
C2033 N2029 1.279 . S
C2033 C2031 1.358 . S
C2033 H2091 0.930 . S
C2034 C2037 1.348 . S
C2034 C2038 1.356 . S
C2034 O2085 1.325 . S
C2035 N2036 1.279 . S
C2035 C2038 1.358 . S
C2035 H2092 0.930 . S
N2036 C2035 1.279 . S
N2036 C2039 1.314 . S
C2037 C2034 1.348 . S
C2037 C2039 1.353 . S
C2037 H2093 0.929 . S
C2038 C2034 1.356 . S
C2038 C2035 1.358 . S
C2038 H2094 0.930 . S
C2039 N2036 1.314 . S
C2039 C2037 1.353 . S
C2039 H2095 0.930 . S
C2040 N2041 1.314 . S
C2040 C2045 1.353 . S
C2040 H2046 0.930 . S
N2041 Li2024 1.990 . S
N2041 C2040 1.314 . S
N2041 C2043 1.279 . S
C2042 C2043 1.358 . S
C2042 C2044 1.356 . S
C2042 H2096 0.930 . S
C2043 N2041 1.279 . S
C2043 C2042 1.358 . S
C2043 H2047 0.930 . S
C2044 C2042 1.356 . S
C2044 C2045 1.348 . S
C2045 C2040 1.353 . S
C2045 C2044 1.348 . S
C2045 H2097 0.929 . S
H2046 C2040 0.930 . S
H2047 C2043 0.930 . S
C2048 N2049 1.314 . S
C2048 C2050 1.353 . S
C2048 H2054 0.930 . S
N2049 Li2025 1.990 . S
N2049 C2048 1.314 . S
N2049 C2052 1.279 . S
C2050 C2048 1.353 . S
C2050 C2053 1.348 . S
C2050 H2098 0.929 . S
C2051 C2052 1.358 . S
C2051 C2053 1.356 . S
C2051 H2099 0.930 . S
C2052 N2049 1.279 . S
C2052 C2051 1.358 . S
C2052 H2055 0.930 . S
C2053 C2050 1.348 . S
C2053 C2051 1.356 . S
H2054 C2048 0.930 . S
H2055 C2052 0.930 . S
C2056 C2058 1.348 . S
C2056 C2059 1.356 . S
C2056 O2086 1.325 . S
N2057 C2060 1.314 . S
N2057 C2061 1.279 . S
C2058 C2056 1.348 . S
C2058 C2060 1.353 . S
C2058 H2100 0.929 . S
C2059 C2056 1.356 . S
C2059 C2061 1.358 . S
C2059 H2101 0.930 . S
C2060 N2057 1.314 . S
C2060 C2058 1.353 . S
C2060 H2102 0.930 . S
C2061 N2057 1.279 . S
C2061 C2059 1.358 . S
C2061 H2103 0.930 . S
C2062 C2063 1.348 . S
C2062 C2064 1.356 . S
C2062 O2087 1.325 . S
C2063 C2062 1.348 . S
C2063 C2065 1.353 . S
C2063 H2104 0.929 . S
C2064 C2062 1.356 . S
C2064 C2066 1.358 . S
C2064 H2105 0.930 . S
C2065 C2063 1.353 . S
C2065 N2067 1.314 . S
C2065 H2106 0.930 . S
C2066 C2064 1.358 . S
C2066 N2067 1.279 . S
C2066 H2107 0.930 . S
N2067 C2065 1.314 . S
N2067 C2066 1.279 . S
C2068 C2070 1.353 . S
C2068 N2071 1.314 . S
C2068 H2074 0.930 . S
C2069 N2071 1.279 . S
C2069 C2072 1.358 . S
C2069 H2075 0.930 . S
C2070 C2068 1.353 . S
C2070 C2073 1.348 . S
C2070 H2108 0.929 . S
N2071 Li2026 1.990 . S
N2071 C2068 1.314 . S
N2071 C2069 1.279 . S
C2072 C2069 1.358 . S
C2072 C2073 1.356 . S
C2072 H2109 0.930 . S
C2073 C2070 1.348 . S
C2073 C2072 1.356 . S
H2074 C2068 0.930 . S
H2075 C2069 0.930 . S
C2076 N2077 1.314 . S
C2076 C2078 1.353 . S
C2076 H2082 0.930 . S
N2077 Li2027 1.990 . S
N2077 C2076 1.314 . S
N2077 C2080 1.279 . S
C2078 C2076 1.353 . S
C2078 C2081 1.348 . S
C2078 H2110 0.929 . S
C2079 C2080 1.358 . S
C2079 C2081 1.356 . S
C2079 H2111 0.930 . S
C2080 N2077 1.279 . S
C2080 C2079 1.358 . S
C2080 H2083 0.930 . S
C2081 C2078 1.348 . S
C2081 C2079 1.356 . S
H2082 C2076 0.930 . S
H2083 C2080 0.930 . S
O2084 Li2024 1.956 . S
O2084 Li2025 1.970 . S
O2084 Li2026 1.961 . S
O2084 C2028 1.325 . S
O2085 Li2024 1.970 . S
O2085 Li2025 1.956 . S
O2085 Li2027 1.961 . S
O2085 C2034 1.325 . S
O2086 Li2024 1.961 . S
O2086 Li2026 1.956 . S
O2086 Li2027 1.970 . S
O2086 C2056 1.325 . S
O2087 Li2025 1.961 . S
O2087 Li2026 1.970 . S
O2087 Li2027 1.956 . S
O2087 C2062 1.325 . S
H2088 C2030 0.929 . S
H2089 C2031 0.930 . S
H2090 C2032 0.930 . S
H2091 C2033 0.930 . S
H2092 C2035 0.930 . S
H2093 C2037 0.929 . S
H2094 C2038 0.930 . S
H2095 C2039 0.930 . S
H2096 C2042 0.930 . S
H2097 C2045 0.929 . S
H2098 C2050 0.929 . S
H2099 C2051 0.930 . S
H2100 C2058 0.929 . S
H2101 C2059 0.930 . S
H2102 C2060 0.930 . S
H2103 C2061 0.930 . S
H2104 C2063 0.929 . S
H2105 C2064 0.930 . S
H2106 C2065 0.930 . S
H2107 C2066 0.930 . S
H2108 C2070 0.929 . S
H2109 C2072 0.930 . S
H2110 C2078 0.929 . S
H2111 C2079 0.930 . S
Eu2112 N2141 2.600 . S
Eu2112 N2147 2.562 . S
Eu2112 O2156 2.462 . S
Eu2112 O2157 2.373 . S
Eu2112 O2159 2.432 . S
Eu2112 O2160 2.291 . S
Eu2112 O2164 2.332 . S
Eu2112 O2167 2.372 . S
Eu2112 C2176 2.787 . S
C2113 N2114 1.365 . S
C2113 C2116 1.405 . S
C2113 C2120 1.448 1_556 S
N2114 C2113 1.365 . S
N2114 C2117 1.319 . S
N2114 Eu2123 2.600 1_566 S
C2115 C2117 1.397 . S
C2115 C2118 1.367 . S
C2115 H2135 0.931 . S
C2116 C2113 1.405 . S
C2116 C2118 1.403 . S
C2116 C2122 1.439 . S
C2117 N2114 1.319 . S
C2117 C2115 1.397 . S
C2117 H2128 0.930 . S
C2118 C2115 1.367 . S
C2118 C2116 1.403 . S
C2118 H2139 0.929 . S
C2119 C2120 1.430 . S
C2119 C2121 1.387 1_554 S
C2119 C2125 1.404 . S
C2120 C2113 1.448 1_554 S
C2120 C2119 1.430 . S
C2120 N2124 1.351 . S
C2121 C2119 1.387 1_556 S
C2121 C2122 1.374 . S
C2121 H2136 0.916 1_556 S
C2122 C2116 1.439 . S
C2122 C2121 1.374 . S
C2122 H2137 0.931 . S
Eu2123 N2114 2.600 1_544 S
Eu2123 N2124 2.562 1_545 S
Eu2123 O2158 2.335 1_655 S
Eu2123 O2161 2.372 1_654 S
Eu2123 O2162 2.462 . S
Eu2123 O2163 2.373 1_645 S
Eu2123 O2165 2.432 1_554 S
Eu2123 O2166 2.291 1_655 S
Eu2123 C2187 2.787 . S
N2124 C2120 1.351 . S
N2124 Eu2123 2.562 1_565 S
N2124 C2126 1.325 . S
C2125 C2119 1.404 . S
C2125 C2127 1.366 . S
C2125 H2133 0.930 . S
C2126 N2124 1.325 . S
C2126 C2127 1.416 . S
C2126 H2132 0.929 . S
C2127 C2125 1.366 . S
C2127 C2126 1.416 . S
C2127 H2129 0.930 . S
H2128 C2117 0.930 . S
H2129 C2127 0.930 . S
H2130 C2145 0.930 . S
H2131 C2152 0.930 1_556 S
H2132 C2126 0.929 . S
H2133 C2125 0.930 . S
H2134 C2148 0.944 . S
H2135 C2115 0.931 . S
H2136 C2121 0.916 1_554 S
H2137 C2122 0.931 . S
H2138 C2143 0.931 . S
H2139 C2118 0.929 . S
H2140 C2151 0.930 . S
N2141 Eu2112 2.600 . S
N2141 C2142 1.365 . S
N2141 C2145 1.319 . S
C2142 N2141 1.365 . S
C2142 C2144 1.405 . S
C2142 C2150 1.448 . S
C2143 H2138 0.931 . S
C2143 C2145 1.397 . S
C2143 C2146 1.367 . S
C2144 C2142 1.405 . S
C2144 C2146 1.403 . S
C2144 C2177 1.439 . S
C2145 H2130 0.930 . S
C2145 N2141 1.319 . S
C2145 C2143 1.397 . S
C2146 C2143 1.367 . S
C2146 C2144 1.403 . S
C2146 H2153 0.929 . S
N2147 Eu2112 2.562 . S
N2147 C2148 1.325 . S
N2147 C2150 1.351 . S
C2148 H2134 0.944 . S
C2148 N2147 1.325 . S
C2148 C2152 1.416 . S
C2149 C2150 1.430 . S
C2149 C2151 1.404 . S
C2149 C2178 1.387 . S
C2150 C2142 1.448 . S
C2150 N2147 1.351 . S
C2150 C2149 1.430 . S
C2151 H2140 0.930 . S
C2151 C2149 1.404 . S
C2151 C2152 1.366 . S
C2152 H2131 0.930 1_554 S
C2152 C2148 1.416 . S
C2152 C2151 1.366 . S
H2153 C2146 0.929 . S
H2154 C2177 0.931 . S
H2155 C2178 0.931 . S
O2156 Eu2112 2.462 . S
O2156 C2176 1.252 . S
O2157 Eu2112 2.373 . S
O2157 C2168 1.249 . S
O2158 Eu2123 2.335 1_455 S
O2158 C2168 1.264 . S
O2159 Eu2112 2.432 . S
O2159 C2176 1.268 . S
O2160 Eu2112 2.291 . S
O2160 C2175 1.255 1_554 S
O2161 Eu2123 2.372 1_456 S
O2161 C2175 1.257 . S
O2162 Eu2123 2.462 . S
O2162 C2187 1.252 . S
O2163 Eu2123 2.373 1_465 S
O2163 C2179 1.249 . S
O2164 Eu2112 2.332 . S
O2164 C2179 1.265 1_545 S
O2165 Eu2123 2.432 1_556 S
O2165 C2187 1.268 1_556 S
O2166 Eu2123 2.291 1_455 S
O2166 C2186 1.255 . S
O2167 Eu2112 2.372 . S
O2167 C2186 1.257 . S
C2168 O2157 1.249 . S
C2168 O2158 1.264 . S
C2169 C2172 1.382 . S
C2169 C2174 1.390 . S
C2169 C2176 1.506 . S
C2170 C2171 1.405 . S
C2170 C2174 1.365 1_565 S
C2171 C2170 1.405 . S
C2171 C2173 1.366 1_565 S
C2171 H2188 0.939 . S
C2172 C2169 1.382 . S
C2172 C2173 1.390 . S
C2172 H2189 0.931 . S
C2173 C2171 1.366 1_545 S
C2173 C2172 1.390 . S
C2173 H2190 0.929 . S
C2174 C2169 1.390 . S
C2174 C2170 1.365 1_545 S
C2174 H2191 0.930 . S
C2175 O2160 1.255 1_556 S
C2175 O2161 1.257 . S
C2176 Eu2112 2.787 . S
C2176 O2156 1.252 . S
C2176 O2159 1.268 . S
C2176 C2169 1.506 . S
C2177 C2144 1.439 . S
C2177 H2154 0.931 . S
C2177 C2178 1.374 . S
C2178 C2149 1.387 . S
C2178 H2155 0.931 . S
C2178 C2177 1.374 . S
C2179 O2163 1.249 . S
C2179 O2164 1.265 1_565 S
C2180 C2183 1.424 . S
C2180 C2184 1.354 1_556 S
C2180 C2187 1.502 1_556 S
C2181 C2182 1.398 1_554 S
C2181 C2184 1.392 . S
C2182 C2181 1.398 1_556 S
C2182 C2185 1.372 . S
C2182 H2192 0.931 . S
C2183 C2180 1.424 . S
C2183 C2185 1.390 . S
C2183 H2193 0.931 . S
C2184 C2180 1.354 1_554 S
C2184 C2181 1.392 . S
C2184 H2194 0.930 . S
C2185 C2182 1.372 . S
C2185 C2183 1.390 . S
C2185 H2195 0.929 . S
C2186 O2166 1.255 . S
C2186 O2167 1.257 . S
C2187 Eu2123 2.787 . S
C2187 O2162 1.252 . S
C2187 O2165 1.268 1_554 S
C2187 C2180 1.502 1_554 S
H2188 C2171 0.939 . S
H2189 C2172 0.931 . S
H2190 C2173 0.929 . S
H2191 C2174 0.930 . S
H2192 C2182 0.931 . S
H2193 C2183 0.931 . S
H2194 C2184 0.930 . S
H2195 C2185 0.929 . S
Eu2196 N2225 2.600 . S
Eu2196 N2231 2.562 . S
Eu2196 O2240 2.462 . S
Eu2196 O2241 2.373 . S
Eu2196 O2243 2.432 . S
Eu2196 O2244 2.291 . S
Eu2196 O2248 2.335 . S
Eu2196 O2251 2.372 . S
Eu2196 C2260 2.787 . S
C2197 N2198 1.365 . S
C2197 C2200 1.405 . S
C2197 C2204 1.448 . S
N2198 C2197 1.365 . S
N2198 C2201 1.319 . S
N2198 Eu2207 2.600 . S
C2199 C2201 1.397 . S
C2199 C2202 1.367 . S
C2199 H2219 0.931 . S
C2200 C2197 1.405 . S
C2200 C2202 1.403 . S
C2200 C2206 1.439 . S
C2201 N2198 1.319 . S
C2201 C2199 1.397 . S
C2201 H2212 0.930 . S
C2202 C2199 1.367 . S
C2202 C2200 1.403 . S
C2202 H2223 0.929 . S
C2203 C2204 1.430 . S
C2203 C2205 1.387 . S
C2203 C2209 1.404 . S
C2204 C2197 1.448 . S
C2204 C2203 1.430 . S
C2204 N2208 1.351 . S
C2205 C2203 1.387 . S
C2205 C2206 1.374 . S
C2205 H2220 0.931 . S
C2206 C2200 1.439 . S
C2206 C2205 1.374 . S
C2206 H2221 0.931 . S
Eu2207 N2198 2.600 . S
Eu2207 N2208 2.562 . S
Eu2207 O2242 2.335 . S
Eu2207 O2245 2.372 . S
Eu2207 O2246 2.462 . S
Eu2207 O2247 2.373 . S
Eu2207 O2249 2.432 . S
Eu2207 O2250 2.291 . S
Eu2207 C2271 2.787 . S
N2208 C2204 1.351 . S
N2208 Eu2207 2.562 . S
N2208 C2210 1.325 . S
C2209 C2203 1.404 . S
C2209 C2211 1.366 . S
C2209 H2217 0.930 . S
C2210 N2208 1.325 . S
C2210 C2211 1.416 . S
C2210 H2216 0.929 . S
C2211 C2209 1.366 . S
C2211 C2210 1.416 . S
C2211 H2213 0.930 . S
H2212 C2201 0.930 . S
H2213 C2211 0.930 . S
H2214 C2229 0.930 . S
H2215 C2236 0.930 . S
H2216 C2210 0.929 . S
H2217 C2209 0.930 . S
H2218 C2232 0.929 . S
H2219 C2199 0.931 . S
H2220 C2205 0.931 . S
H2221 C2206 0.931 . S
H2222 C2227 0.931 . S
H2223 C2202 0.929 . S
H2224 C2235 0.930 . S
N2225 Eu2196 2.600 . S
N2225 C2226 1.365 . S
N2225 C2229 1.319 . S
C2226 N2225 1.365 . S
C2226 C2228 1.405 . S
C2226 C2234 1.448 . S
C2227 H2222 0.931 . S
C2227 C2229 1.397 . S
C2227 C2230 1.367 . S
C2228 C2226 1.405 . S
C2228 C2230 1.403 . S
C2228 C2261 1.439 . S
C2229 H2214 0.930 . S
C2229 N2225 1.319 . S
C2229 C2227 1.397 . S
C2230 C2227 1.367 . S
C2230 C2228 1.403 . S
C2230 H2237 0.929 . S
N2231 Eu2196 2.562 . S
N2231 C2232 1.325 . S
N2231 C2234 1.351 . S
C2232 H2218 0.929 . S
C2232 N2231 1.325 . S
C2232 C2236 1.416 . S
C2233 C2234 1.430 . S
C2233 C2235 1.404 . S
C2233 C2262 1.387 . S
C2234 C2226 1.448 . S
C2234 N2231 1.351 . S
C2234 C2233 1.430 . S
C2235 H2224 0.930 . S
C2235 C2233 1.404 . S
C2235 C2236 1.366 . S
C2236 H2215 0.930 . S
C2236 C2232 1.416 . S
C2236 C2235 1.366 . S
H2237 C2230 0.929 . S
H2238 C2261 0.931 . S
H2239 C2262 0.931 . S
O2240 Eu2196 2.462 . S
O2240 C2260 1.252 . S
O2241 Eu2196 2.373 . S
O2241 C2252 1.249 . S
O2242 Eu2207 2.335 . S
O2242 C2252 1.264 . S
O2243 Eu2196 2.432 . S
O2243 C2260 1.268 . S
O2244 Eu2196 2.291 . S
O2244 C2259 1.255 . S
O2245 Eu2207 2.372 . S
O2245 C2259 1.257 . S
O2246 Eu2207 2.462 . S
O2246 C2271 1.252 . S
O2247 Eu2207 2.373 . S
O2247 C2263 1.249 . S
O2248 Eu2196 2.335 . S
O2248 C2263 1.264 . S
O2249 Eu2207 2.432 . S
O2249 C2271 1.268 . S
O2250 Eu2207 2.291 . S
O2250 C2270 1.255 . S
O2251 Eu2196 2.372 . S
O2251 C2270 1.257 . S
C2252 O2241 1.249 . S
C2252 O2242 1.264 . S
C2253 C2256 1.382 . S
C2253 C2258 1.390 . S
C2253 C2260 1.506 . S
C2254 C2255 1.398 . S
C2254 C2258 1.392 . S
C2255 C2254 1.398 . S
C2255 C2257 1.372 . S
C2255 H2272 0.931 . S
C2256 C2253 1.382 . S
C2256 C2257 1.390 . S
C2256 H2273 0.931 . S
C2257 C2255 1.372 . S
C2257 C2256 1.390 . S
C2257 H2274 0.929 . S
C2258 C2253 1.390 . S
C2258 C2254 1.392 . S
C2258 H2275 0.930 . S
C2259 O2244 1.255 . S
C2259 O2245 1.257 . S
C2260 Eu2196 2.787 . S
C2260 O2240 1.252 . S
C2260 O2243 1.268 . S
C2260 C2253 1.506 . S
C2261 C2228 1.439 . S
C2261 H2238 0.931 . S
C2261 C2262 1.374 . S
C2262 C2233 1.387 . S
C2262 H2239 0.931 . S
C2262 C2261 1.374 . S
C2263 O2247 1.249 . S
C2263 O2248 1.264 . S
C2264 C2267 1.382 . S
C2264 C2268 1.390 . S
C2264 C2271 1.506 . S
C2265 C2266 1.398 . S
C2265 C2268 1.392 . S
C2266 C2265 1.398 . S
C2266 C2269 1.372 . S
C2266 H2276 0.931 . S
C2267 C2264 1.382 . S
C2267 C2269 1.390 . S
C2267 H2277 0.931 . S
C2268 C2264 1.390 . S
C2268 C2265 1.392 . S
C2268 H2278 0.930 . S
C2269 C2266 1.372 . S
C2269 C2267 1.390 . S
C2269 H2279 0.929 . S
C2270 O2250 1.255 . S
C2270 O2251 1.257 . S
C2271 Eu2207 2.787 . S
C2271 O2246 1.252 . S
C2271 O2249 1.268 . S
C2271 C2264 1.506 . S
H2272 C2255 0.931 . S
H2273 C2256 0.931 . S
H2274 C2257 0.929 . S
H2275 C2258 0.930 . S
H2276 C2266 0.931 . S
H2277 C2267 0.931 . S
H2278 C2268 0.930 . S
H2279 C2269 0.929 . S
Eu2280 N2309 2.600 1_545 S
Eu2280 N2315 2.562 1_545 S
Eu2280 O2324 2.462 . S
Eu2280 O2325 2.373 1_545 S
Eu2280 O2327 2.432 . S
Eu2280 O2328 2.291 . S
Eu2280 O2332 2.335 . S
Eu2280 O2335 2.372 . S
Eu2280 C2344 2.787 . S
C2281 N2282 1.365 . S
C2281 C2284 1.405 . S
C2281 C2288 1.448 . S
N2282 C2281 1.365 . S
N2282 C2285 1.319 . S
N2282 Eu2291 2.600 . S
C2283 C2285 1.397 . S
C2283 C2286 1.367 . S
C2283 H2303 0.931 . S
C2284 C2281 1.405 . S
C2284 C2286 1.403 . S
C2284 C2290 1.439 . S
C2285 N2282 1.319 . S
C2285 C2283 1.397 . S
C2285 H2296 0.930 . S
C2286 C2283 1.367 . S
C2286 C2284 1.403 . S
C2286 H2307 0.929 . S
C2287 C2288 1.430 . S
C2287 C2289 1.387 . S
C2287 C2293 1.404 . S
C2288 C2281 1.448 . S
C2288 C2287 1.430 . S
C2288 N2292 1.351 . S
C2289 C2287 1.387 . S
C2289 C2290 1.374 . S
C2289 H2304 0.931 . S
C2290 C2284 1.439 . S
C2290 C2289 1.374 . S
C2290 H2305 0.931 . S
Eu2291 N2282 2.600 . S
Eu2291 N2292 2.562 . S
Eu2291 O2326 2.335 1_545 S
Eu2291 O2329 2.372 . S
Eu2291 O2330 2.462 . S
Eu2291 O2331 2.373 . S
Eu2291 O2333 2.432 . S
Eu2291 O2334 2.291 . S
Eu2291 C2355 2.787 . S
N2292 C2288 1.351 . S
N2292 Eu2291 2.562 . S
N2292 C2294 1.325 . S
C2293 C2287 1.404 . S
C2293 C2295 1.366 . S
C2293 H2301 0.930 . S
C2294 N2292 1.325 . S
C2294 C2295 1.416 . S
C2294 H2300 0.929 . S
C2295 C2293 1.366 . S
C2295 C2294 1.416 . S
C2295 H2297 0.930 . S
H2296 C2285 0.930 . S
H2297 C2295 0.930 . S
H2298 C2313 0.971 . S
H2299 C2320 0.930 . S
H2300 C2294 0.929 . S
H2301 C2293 0.930 . S
H2302 C2316 0.929 . S
H2303 C2283 0.931 . S
H2304 C2289 0.931 . S
H2305 C2290 0.931 . S
H2306 C2311 0.931 . S
H2307 C2286 0.929 . S
H2308 C2319 0.930 . S
N2309 Eu2280 2.600 1_565 S
N2309 C2310 1.365 . S
N2309 C2313 1.322 1_565 S
C2310 N2309 1.365 . S
C2310 C2312 1.405 . S
C2310 C2318 1.448 . S
C2311 H2306 0.931 . S
C2311 C2313 1.357 1_565 S
C2311 C2314 1.367 . S
C2312 C2310 1.405 . S
C2312 C2314 1.403 . S
C2312 C2345 1.439 . S
C2313 H2298 0.971 . S
C2313 N2309 1.322 1_545 S
C2313 C2311 1.357 1_545 S
C2314 C2311 1.367 . S
C2314 C2312 1.403 . S
C2314 H2321 0.929 . S
N2315 Eu2280 2.562 1_565 S
N2315 C2316 1.325 . S
N2315 C2318 1.351 . S
C2316 H2302 0.929 . S
C2316 N2315 1.325 . S
C2316 C2320 1.416 . S
C2317 C2318 1.430 . S
C2317 C2319 1.404 . S
C2317 C2346 1.387 . S
C2318 C2310 1.448 . S
C2318 N2315 1.351 . S
C2318 C2317 1.430 . S
C2319 H2308 0.930 . S
C2319 C2317 1.404 . S
C2319 C2320 1.366 . S
C2320 H2299 0.930 . S
C2320 C2316 1.416 . S
C2320 C2319 1.366 . S
H2321 C2314 0.929 . S
H2322 C2345 0.931 . S
H2323 C2346 0.931 . S
O2324 Eu2280 2.462 . S
O2324 C2344 1.252 . S
O2325 Eu2280 2.373 1_565 S
O2325 C2336 1.249 . S
O2326 Eu2291 2.335 1_565 S
O2326 C2336 1.264 . S
O2327 Eu2280 2.432 . S
O2327 C2344 1.268 . S
O2328 Eu2280 2.291 . S
O2328 C2343 1.255 . S
O2329 Eu2291 2.372 . S
O2329 C2343 1.257 . S
O2330 Eu2291 2.462 . S
O2330 C2355 1.252 . S
O2331 Eu2291 2.373 . S
O2331 C2347 1.249 . S
O2332 Eu2280 2.335 . S
O2332 C2347 1.264 . S
O2333 Eu2291 2.432 . S
O2333 C2355 1.268 . S
O2334 Eu2291 2.291 . S
O2334 C2354 1.255 . S
O2335 Eu2280 2.372 . S
O2335 C2354 1.257 . S
C2336 O2325 1.249 . S
C2336 O2326 1.264 . S
C2337 C2340 1.382 . S
C2337 C2342 1.390 . S
C2337 C2344 1.506 . S
C2338 C2339 1.398 . S
C2338 C2342 1.392 . S
C2339 C2338 1.398 . S
C2339 C2341 1.372 . S
C2339 H2356 0.931 . S
C2340 C2337 1.382 . S
C2340 C2341 1.390 . S
C2340 H2357 0.931 . S
C2341 C2339 1.372 . S
C2341 C2340 1.390 . S
C2341 H2358 0.929 . S
C2342 C2337 1.390 . S
C2342 C2338 1.392 . S
C2342 H2359 0.930 . S
C2343 O2328 1.255 . S
C2343 O2329 1.257 . S
C2344 Eu2280 2.787 . S
C2344 O2324 1.252 . S
C2344 O2327 1.268 . S
C2344 C2337 1.506 . S
C2345 C2312 1.439 . S
C2345 H2322 0.931 . S
C2345 C2346 1.374 . S
C2346 C2317 1.387 . S
C2346 H2323 0.931 . S
C2346 C2345 1.374 . S
C2347 O2331 1.249 . S
C2347 O2332 1.264 . S
C2348 C2351 1.382 . S
C2348 C2352 1.390 . S
C2348 C2355 1.506 1_565 S
C2349 C2350 1.398 . S
C2349 C2352 1.392 . S
C2350 C2349 1.398 . S
C2350 C2353 1.372 . S
C2350 H2360 0.931 . S
C2351 C2348 1.382 . S
C2351 C2353 1.390 . S
C2351 H2361 0.931 . S
C2352 C2348 1.390 . S
C2352 C2349 1.392 . S
C2352 H2362 0.930 . S
C2353 C2350 1.372 . S
C2353 C2351 1.390 . S
C2353 H2363 0.929 . S
C2354 O2334 1.255 . S
C2354 O2335 1.257 . S
C2355 Eu2291 2.787 . S
C2355 O2330 1.252 . S
C2355 O2333 1.268 . S
C2355 C2348 1.506 1_545 S
H2356 C2339 0.931 . S
H2357 C2340 0.931 . S
H2358 C2341 0.929 . S
H2359 C2342 0.930 . S
H2360 C2350 0.931 . S
H2361 C2351 0.931 . S
H2362 C2352 0.930 . S
H2363 C2353 0.929 . S
Eu2364 N2393 2.600 . S
Eu2364 N2399 2.562 . S
Eu2364 O2408 2.462 . S
Eu2364 O2409 2.373 . S
Eu2364 O2411 2.432 . S
Eu2364 O2412 2.291 . S
Eu2364 O2416 2.335 . S
Eu2364 O2419 2.372 . S
Eu2364 C2428 2.787 . S
C2365 N2366 1.365 . S
C2365 C2368 1.405 . S
C2365 C2372 1.448 . S
N2366 C2365 1.365 . S
N2366 C2369 1.319 . S
N2366 Eu2375 2.600 . S
C2367 C2369 1.397 . S
C2367 C2370 1.367 . S
C2367 H2387 0.931 . S
C2368 C2365 1.405 . S
C2368 C2370 1.403 . S
C2368 C2374 1.439 . S
C2369 N2366 1.319 . S
C2369 C2367 1.397 . S
C2369 H2380 0.930 . S
C2370 C2367 1.367 . S
C2370 C2368 1.403 . S
C2370 H2391 0.929 . S
C2371 C2372 1.430 . S
C2371 C2373 1.387 . S
C2371 C2377 1.404 . S
C2372 C2365 1.448 . S
C2372 C2371 1.430 . S
C2372 N2376 1.351 . S
C2373 C2371 1.387 . S
C2373 C2374 1.374 . S
C2373 H2388 0.931 . S
C2374 C2368 1.439 . S
C2374 C2373 1.374 . S
C2374 H2389 0.931 . S
Eu2375 N2366 2.600 . S
Eu2375 N2376 2.562 . S
Eu2375 O2410 2.335 . S
Eu2375 O2413 2.372 . S
Eu2375 O2414 2.462 . S
Eu2375 O2415 2.373 . S
Eu2375 O2417 2.432 . S
Eu2375 O2418 2.291 . S
Eu2375 C2439 2.787 . S
N2376 C2372 1.351 . S
N2376 Eu2375 2.562 . S
N2376 C2378 1.325 . S
C2377 C2371 1.404 . S
C2377 C2379 1.366 . S
C2377 H2385 0.930 . S
C2378 N2376 1.325 . S
C2378 C2379 1.416 . S
C2378 H2384 0.929 . S
C2379 C2377 1.366 . S
C2379 C2378 1.416 . S
C2379 H2381 0.930 . S
H2380 C2369 0.930 . S
H2381 C2379 0.930 . S
H2382 C2397 0.930 . S
H2383 C2404 0.930 . S
H2384 C2378 0.929 . S
H2385 C2377 0.930 . S
H2386 C2400 0.929 . S
H2387 C2367 0.931 . S
H2388 C2373 0.931 . S
H2389 C2374 0.931 . S
H2390 C2395 0.931 . S
H2391 C2370 0.929 . S
H2392 C2403 0.930 . S
N2393 Eu2364 2.600 . S
N2393 C2394 1.365 . S
N2393 C2397 1.319 . S
C2394 N2393 1.365 . S
C2394 C2396 1.405 . S
C2394 C2402 1.448 . S
C2395 H2390 0.931 . S
C2395 C2397 1.397 . S
C2395 C2398 1.367 . S
C2396 C2394 1.405 . S
C2396 C2398 1.403 . S
C2396 C2429 1.439 . S
C2397 H2382 0.930 . S
C2397 N2393 1.319 . S
C2397 C2395 1.397 . S
C2398 C2395 1.367 . S
C2398 C2396 1.403 . S
C2398 H2405 0.929 . S
N2399 Eu2364 2.562 . S
N2399 C2400 1.325 . S
N2399 C2402 1.351 . S
C2400 H2386 0.929 . S
C2400 N2399 1.325 . S
C2400 C2404 1.416 . S
C2401 C2402 1.430 . S
C2401 C2403 1.404 . S
C2401 C2430 1.387 . S
C2402 C2394 1.448 . S
C2402 N2399 1.351 . S
C2402 C2401 1.430 . S
C2403 H2392 0.930 . S
C2403 C2401 1.404 . S
C2403 C2404 1.366 . S
C2404 H2383 0.930 . S
C2404 C2400 1.416 . S
C2404 C2403 1.366 . S
H2405 C2398 0.929 . S
H2406 C2429 0.931 . S
H2407 C2430 0.931 . S
O2408 Eu2364 2.462 . S
O2408 C2428 1.252 . S
O2409 Eu2364 2.373 . S
O2409 C2420 1.249 . S
O2410 Eu2375 2.335 . S
O2410 C2420 1.264 . S
O2411 Eu2364 2.432 . S
O2411 C2428 1.268 . S
O2412 Eu2364 2.291 . S
O2412 C2427 1.255 . S
O2413 Eu2375 2.372 . S
O2413 C2427 1.257 . S
O2414 Eu2375 2.462 . S
O2414 C2439 1.252 . S
O2415 Eu2375 2.373 . S
O2415 C2431 1.249 . S
O2416 Eu2364 2.335 . S
O2416 C2431 1.264 . S
O2417 Eu2375 2.432 . S
O2417 C2439 1.268 . S
O2418 Eu2375 2.291 . S
O2418 C2438 1.255 . S
O2419 Eu2364 2.372 . S
O2419 C2438 1.257 . S
C2420 O2409 1.249 . S
C2420 O2410 1.264 . S
C2421 C2424 1.382 . S
C2421 C2426 1.390 . S
C2421 C2428 1.506 . S
C2422 C2423 1.398 . S
C2422 C2426 1.392 . S
C2423 C2422 1.398 . S
C2423 C2425 1.372 . S
C2423 H2440 0.931 . S
C2424 C2421 1.382 . S
C2424 C2425 1.390 . S
C2424 H2441 0.931 . S
C2425 C2423 1.372 . S
C2425 C2424 1.390 . S
C2425 H2442 0.929 . S
C2426 C2421 1.390 . S
C2426 C2422 1.392 . S
C2426 H2443 0.930 . S
C2427 O2412 1.255 . S
C2427 O2413 1.257 . S
C2428 Eu2364 2.787 . S
C2428 O2408 1.252 . S
C2428 O2411 1.268 . S
C2428 C2421 1.506 . S
C2429 C2396 1.439 . S
C2429 H2406 0.931 . S
C2429 C2430 1.374 . S
C2430 C2401 1.387 . S
C2430 H2407 0.931 . S
C2430 C2429 1.374 . S
C2431 O2415 1.249 . S
C2431 O2416 1.264 . S
C2432 C2435 1.382 . S
C2432 C2436 1.390 . S
C2432 C2439 1.506 . S
C2433 C2434 1.398 . S
C2433 C2436 1.392 . S
C2434 C2433 1.398 . S
C2434 C2437 1.372 . S
C2434 H2444 0.931 . S
C2435 C2432 1.382 . S
C2435 C2437 1.390 . S
C2435 H2445 0.931 . S
C2436 C2432 1.390 . S
C2436 C2433 1.392 . S
C2436 H2446 0.930 . S
C2437 C2434 1.372 . S
C2437 C2435 1.390 . S
C2437 H2447 0.929 . S
C2438 O2418 1.255 . S
C2438 O2419 1.257 . S
C2439 Eu2375 2.787 . S
C2439 O2414 1.252 . S
C2439 O2417 1.268 . S
C2439 C2432 1.506 . S
H2440 C2423 0.931 . S
H2441 C2424 0.931 . S
H2442 C2425 0.929 . S
H2443 C2426 0.930 . S
H2444 C2434 0.931 . S
H2445 C2435 0.931 . S
H2446 C2436 0.930 . S
H2447 C2437 0.929 . S
Eu2448 N2477 2.600 . S
Eu2448 N2483 2.562 . S
Eu2448 O2492 2.462 . S
Eu2448 O2493 2.373 1_565 S
Eu2448 O2495 2.432 . S
Eu2448 O2496 2.291 1_565 S
Eu2448 O2500 2.335 1_565 S
Eu2448 O2503 2.372 1_565 S
Eu2448 C2512 2.787 . S
C2449 N2450 1.365 1_455 S
C2449 C2452 1.405 1_455 S
C2449 C2456 1.448 . S
N2450 C2449 1.365 1_655 S
N2450 C2453 1.319 . S
N2450 Eu2459 2.600 1_655 S
C2451 C2453 1.397 . S
C2451 C2454 1.367 . S
C2451 H2471 0.931 . S
C2452 C2449 1.405 1_655 S
C2452 C2454 1.403 . S
C2452 C2458 1.439 1_655 S
C2453 N2450 1.319 . S
C2453 C2451 1.397 . S
C2453 H2464 0.930 . S
C2454 C2451 1.367 . S
C2454 C2452 1.403 . S
C2454 H2475 0.929 . S
C2455 C2456 1.430 . S
C2455 C2457 1.387 . S
C2455 C2461 1.404 . S
C2456 C2449 1.448 . S
C2456 C2455 1.430 . S
C2456 N2460 1.351 . S
C2457 C2455 1.387 . S
C2457 C2458 1.374 . S
C2457 H2472 0.931 . S
C2458 C2452 1.439 1_455 S
C2458 C2457 1.374 . S
C2458 H2473 0.931 1_455 S
Eu2459 N2450 2.600 1_455 S
Eu2459 N2460 2.562 . S
Eu2459 O2494 2.335 . S
Eu2459 O2497 2.372 1_455 S
Eu2459 O2498 2.462 . S
Eu2459 O2499 2.373 . S
Eu2459 O2501 2.432 1_455 S
Eu2459 O2502 2.291 . S
Eu2459 C2523 2.787 . S
N2460 C2456 1.351 . S
N2460 Eu2459 2.562 . S
N2460 C2462 1.325 . S
C2461 C2455 1.404 . S
C2461 C2463 1.366 . S
C2461 H2469 0.930 . S
C2462 N2460 1.325 . S
C2462 C2463 1.416 . S
C2462 H2468 0.929 . S
C2463 C2461 1.366 . S
C2463 C2462 1.416 . S
C2463 H2465 0.930 . S
H2464 C2453 0.930 . S
H2465 C2463 0.930 . S
H2466 C2481 0.930 1_545 S
H2467 C2488 0.930 . S
H2468 C2462 0.929 . S
H2469 C2461 0.930 . S
H2470 C2484 0.925 1_655 S
H2471 C2451 0.931 . S
H2472 C2457 0.931 . S
H2473 C2458 0.931 1_655 S
H2474 C2479 0.931 . S
H2475 C2454 0.929 . S
H2476 C2487 0.930 . S
N2477 Eu2448 2.600 . S
N2477 C2478 1.365 . S
N2477 C2481 1.319 . S
C2478 N2477 1.365 . S
C2478 C2480 1.405 . S
C2478 C2486 1.448 . S
C2479 H2474 0.931 . S
C2479 C2481 1.397 . S
C2479 C2482 1.367 . S
C2480 C2478 1.405 . S
C2480 C2482 1.403 . S
C2480 C2513 1.439 . S
C2481 H2466 0.930 1_565 S
C2481 N2477 1.319 . S
C2481 C2479 1.397 . S
C2482 C2479 1.367 . S
C2482 C2480 1.403 . S
C2482 H2489 0.929 . S
N2483 Eu2448 2.562 . S
N2483 C2484 1.330 . S
N2483 C2486 1.351 . S
C2484 H2470 0.925 1_455 S
C2484 N2483 1.330 . S
C2484 C2488 1.414 1_455 S
C2485 C2486 1.430 . S
C2485 C2487 1.404 1_455 S
C2485 C2514 1.387 . S
C2486 C2478 1.448 . S
C2486 N2483 1.351 . S
C2486 C2485 1.430 . S
C2487 H2476 0.930 . S
C2487 C2485 1.404 1_655 S
C2487 C2488 1.366 . S
C2488 H2467 0.930 . S
C2488 C2484 1.414 1_655 S
C2488 C2487 1.366 . S
H2489 C2482 0.929 . S
H2490 C2513 0.931 . S
H2491 C2514 0.931 . S
O2492 Eu2448 2.462 . S
O2492 C2512 1.252 . S
O2493 Eu2448 2.373 1_545 S
O2493 C2504 1.249 . S
O2494 Eu2459 2.335 . S
O2494 C2504 1.264 . S
O2495 Eu2448 2.432 . S
O2495 C2512 1.268 . S
O2496 Eu2448 2.291 1_545 S
O2496 C2511 1.255 1_455 S
O2497 Eu2459 2.372 1_655 S
O2497 C2511 1.257 . S
O2498 Eu2459 2.462 . S
O2498 C2523 1.252 . S
O2499 Eu2459 2.373 . S
O2499 C2515 1.249 . S
O2500 Eu2448 2.335 1_545 S
O2500 C2515 1.264 . S
O2501 Eu2459 2.432 1_655 S
O2501 C2523 1.268 1_655 S
O2502 Eu2459 2.291 . S
O2502 C2522 1.255 . S
O2503 Eu2448 2.372 1_545 S
O2503 C2522 1.257 . S
C2504 O2493 1.249 . S
C2504 O2494 1.264 . S
C2505 C2508 1.382 . S
C2505 C2510 1.390 . S
C2505 C2512 1.506 . S
C2506 C2507 1.398 . S
C2506 C2510 1.392 . S
C2507 C2506 1.398 . S
C2507 C2509 1.372 . S
C2507 H2524 0.931 . S
C2508 C2505 1.382 . S
C2508 C2509 1.390 . S
C2508 H2525 0.931 . S
C2509 C2507 1.372 . S
C2509 C2508 1.390 . S
C2509 H2526 0.929 . S
C2510 C2505 1.390 . S
C2510 C2506 1.392 . S
C2510 H2527 0.930 . S
C2511 O2496 1.255 1_655 S
C2511 O2497 1.257 . S
C2512 Eu2448 2.787 . S
C2512 O2492 1.252 . S
C2512 O2495 1.268 . S
C2512 C2505 1.506 . S
C2513 C2480 1.439 . S
C2513 H2490 0.931 . S
C2513 C2514 1.374 . S
C2514 C2485 1.387 . S
C2514 H2491 0.931 . S
C2514 C2513 1.374 . S
C2515 O2499 1.249 . S
C2515 O2500 1.264 . S
C2516 C2519 1.382 1_455 S
C2516 C2520 1.390 . S
C2516 C2523 1.506 . S
C2517 C2518 1.398 1_455 S
C2517 C2520 1.392 . S
C2518 C2517 1.398 1_655 S
C2518 C2521 1.372 . S
C2518 H2528 0.931 . S
C2519 C2516 1.382 1_655 S
C2519 C2521 1.390 . S
C2519 H2529 0.931 . S
C2520 C2516 1.390 . S
C2520 C2517 1.392 . S
C2520 H2530 0.930 . S
C2521 C2518 1.372 . S
C2521 C2519 1.390 . S
C2521 H2531 0.929 . S
C2522 O2502 1.255 . S
C2522 O2503 1.257 . S
C2523 Eu2459 2.787 . S
C2523 O2498 1.252 . S
C2523 O2501 1.268 1_455 S
C2523 C2516 1.506 . S
H2524 C2507 0.931 . S
H2525 C2508 0.931 . S
H2526 C2509 0.929 . S
H2527 C2510 0.930 . S
H2528 C2518 0.931 . S
H2529 C2519 0.931 . S
H2530 C2520 0.930 . S
H2531 C2521 0.929 . S
Eu2532 N2561 2.600 . S
Eu2532 N2567 2.562 . S
Eu2532 O2576 2.462 . S
Eu2532 O2577 2.373 . S
Eu2532 O2579 2.432 . S
Eu2532 O2580 2.291 . S
Eu2532 O2584 2.335 . S
Eu2532 O2587 2.372 . S
Eu2532 C2596 2.787 . S
C2533 N2534 1.365 . S
C2533 C2536 1.405 . S
C2533 C2540 1.448 . S
N2534 C2533 1.365 . S
N2534 C2537 1.319 . S
N2534 Eu2543 2.600 . S
C2535 C2537 1.397 . S
C2535 C2538 1.367 . S
C2535 H2555 0.931 . S
C2536 C2533 1.405 . S
C2536 C2538 1.403 . S
C2536 C2542 1.439 . S
C2537 N2534 1.319 . S
C2537 C2535 1.397 . S
C2537 H2548 0.930 . S
C2538 C2535 1.367 . S
C2538 C2536 1.403 . S
C2538 H2559 0.929 . S
C2539 C2540 1.430 . S
C2539 C2541 1.387 . S
C2539 C2545 1.404 . S
C2540 C2533 1.448 . S
C2540 C2539 1.430 . S
C2540 N2544 1.351 . S
C2541 C2539 1.387 . S
C2541 C2542 1.374 . S
C2541 H2556 0.931 . S
C2542 C2536 1.439 . S
C2542 C2541 1.374 . S
C2542 H2557 0.931 . S
Eu2543 N2534 2.600 . S
Eu2543 N2544 2.562 . S
Eu2543 O2578 2.335 . S
Eu2543 O2581 2.372 . S
Eu2543 O2582 2.462 . S
Eu2543 O2583 2.373 . S
Eu2543 O2585 2.432 . S
Eu2543 O2586 2.291 . S
Eu2543 C2607 2.787 . S
N2544 C2540 1.351 . S
N2544 Eu2543 2.562 . S
N2544 C2546 1.325 . S
C2545 C2539 1.404 . S
C2545 C2547 1.366 . S
C2545 H2553 0.930 . S
C2546 N2544 1.325 . S
C2546 C2547 1.416 . S
C2546 H2552 0.929 . S
C2547 C2545 1.366 . S
C2547 C2546 1.416 . S
C2547 H2549 0.930 . S
H2548 C2537 0.930 . S
H2549 C2547 0.930 . S
H2550 C2565 0.930 . S
H2551 C2572 0.930 . S
H2552 C2546 0.929 . S
H2553 C2545 0.930 . S
H2554 C2568 0.929 . S
H2555 C2535 0.931 . S
H2556 C2541 0.931 . S
H2557 C2542 0.931 . S
H2558 C2563 0.931 . S
H2559 C2538 0.929 . S
H2560 C2571 0.930 . S
N2561 Eu2532 2.600 . S
N2561 C2562 1.365 . S
N2561 C2565 1.319 . S
C2562 N2561 1.365 . S
C2562 C2564 1.405 . S
C2562 C2570 1.448 . S
C2563 H2558 0.931 . S
C2563 C2565 1.397 . S
C2563 C2566 1.367 . S
C2564 C2562 1.405 . S
C2564 C2566 1.403 . S
C2564 C2597 1.439 . S
C2565 H2550 0.930 . S
C2565 N2561 1.319 . S
C2565 C2563 1.397 . S
C2566 C2563 1.367 . S
C2566 C2564 1.403 . S
C2566 H2573 0.929 . S
N2567 Eu2532 2.562 . S
N2567 C2568 1.325 . S
N2567 C2570 1.351 . S
C2568 H2554 0.929 . S
C2568 N2567 1.325 . S
C2568 C2572 1.416 . S
C2569 C2570 1.430 . S
C2569 C2571 1.404 . S
C2569 C2598 1.387 . S
C2570 C2562 1.448 . S
C2570 N2567 1.351 . S
C2570 C2569 1.430 . S
C2571 H2560 0.930 . S
C2571 C2569 1.404 . S
C2571 C2572 1.366 . S
C2572 H2551 0.930 . S
C2572 C2568 1.416 . S
C2572 C2571 1.366 . S
H2573 C2566 0.929 . S
H2574 C2597 0.931 . S
H2575 C2598 0.931 . S
O2576 Eu2532 2.462 . S
O2576 C2596 1.252 . S
O2577 Eu2532 2.373 . S
O2577 C2588 1.249 . S
O2578 Eu2543 2.335 . S
O2578 C2588 1.264 . S
O2579 Eu2532 2.432 . S
O2579 C2596 1.268 . S
O2580 Eu2532 2.291 . S
O2580 C2595 1.255 . S
O2581 Eu2543 2.372 . S
O2581 C2595 1.257 . S
O2582 Eu2543 2.462 . S
O2582 C2607 1.252 . S
O2583 Eu2543 2.373 . S
O2583 C2599 1.249 . S
O2584 Eu2532 2.335 . S
O2584 C2599 1.264 . S
O2585 Eu2543 2.432 . S
O2585 C2607 1.268 . S
O2586 Eu2543 2.291 . S
O2586 C2606 1.255 . S
O2587 Eu2532 2.372 . S
O2587 C2606 1.257 . S
C2588 O2577 1.249 . S
C2588 O2578 1.264 . S
C2589 C2592 1.382 . S
C2589 C2594 1.390 . S
C2589 C2596 1.506 . S
C2590 C2591 1.398 . S
C2590 C2594 1.392 . S
C2591 C2590 1.398 . S
C2591 C2593 1.372 . S
C2591 H2608 0.931 . S
C2592 C2589 1.382 . S
C2592 C2593 1.390 . S
C2592 H2609 0.931 . S
C2593 C2591 1.372 . S
C2593 C2592 1.390 . S
C2593 H2610 0.929 . S
C2594 C2589 1.390 . S
C2594 C2590 1.392 . S
C2594 H2611 0.930 . S
C2595 O2580 1.255 . S
C2595 O2581 1.257 . S
C2596 Eu2532 2.787 . S
C2596 O2576 1.252 . S
C2596 O2579 1.268 . S
C2596 C2589 1.506 . S
C2597 C2564 1.439 . S
C2597 H2574 0.931 . S
C2597 C2598 1.374 . S
C2598 C2569 1.387 . S
C2598 H2575 0.931 . S
C2598 C2597 1.374 . S
C2599 O2583 1.249 . S
C2599 O2584 1.264 . S
C2600 C2603 1.382 . S
C2600 C2604 1.390 . S
C2600 C2607 1.506 . S
C2601 C2602 1.398 . S
C2601 C2604 1.392 . S
C2602 C2601 1.398 . S
C2602 C2605 1.372 . S
C2602 H2612 0.931 . S
C2603 C2600 1.382 . S
C2603 C2605 1.390 . S
C2603 H2613 0.931 . S
C2604 C2600 1.390 . S
C2604 C2601 1.392 . S
C2604 H2614 0.930 . S
C2605 C2602 1.372 . S
C2605 C2603 1.390 . S
C2605 H2615 0.929 . S
C2606 O2586 1.255 . S
C2606 O2587 1.257 . S
C2607 Eu2543 2.787 . S
C2607 O2582 1.252 . S
C2607 O2585 1.268 . S
C2607 C2600 1.506 . S
H2608 C2591 0.931 . S
H2609 C2592 0.931 . S
H2610 C2593 0.929 . S
H2611 C2594 0.930 . S
H2612 C2602 0.931 . S
H2613 C2603 0.931 . S
H2614 C2604 0.930 . S
H2615 C2605 0.929 . S
Eu2616 N2645 2.600 . S
Eu2616 N2651 2.562 . S
Eu2616 O2660 2.462 . S
Eu2616 O2661 2.373 1_556 S
Eu2616 O2663 2.432 . S
Eu2616 O2664 2.294 . S
Eu2616 O2668 2.335 1_556 S
Eu2616 O2671 2.372 1_556 S
Eu2616 C2680 2.787 . S
C2617 N2618 1.365 . S
C2617 C2620 1.405 . S
C2617 C2624 1.448 1_565 S
N2618 C2617 1.365 . S
N2618 C2621 1.319 . S
N2618 Eu2627 2.600 1_565 S
C2619 C2621 1.397 . S
C2619 C2622 1.367 . S
C2619 H2639 0.931 . S
C2620 C2617 1.405 . S
C2620 C2622 1.403 . S
C2620 C2626 1.439 . S
C2621 N2618 1.319 . S
C2621 C2619 1.397 . S
C2621 H2632 0.930 . S
C2622 C2619 1.367 . S
C2622 C2620 1.403 . S
C2622 H2643 0.929 . S
C2623 C2624 1.430 . S
C2623 C2625 1.387 . S
C2623 C2629 1.404 . S
C2624 C2617 1.448 1_545 S
C2624 C2623 1.430 . S
C2624 N2628 1.351 . S
C2625 C2623 1.387 . S
C2625 C2626 1.374 1_545 S
C2625 H2640 0.931 . S
C2626 C2620 1.439 . S
C2626 C2625 1.374 1_565 S
C2626 H2641 0.931 . S
Eu2627 N2618 2.600 1_545 S
Eu2627 N2628 2.562 . S
Eu2627 O2662 2.335 . S
Eu2627 O2665 2.372 1_545 S
Eu2627 O2666 2.462 . S
Eu2627 O2667 2.373 . S
Eu2627 O2669 2.432 1_545 S
Eu2627 O2670 2.291 . S
Eu2627 C2691 2.786 . S
N2628 C2624 1.351 . S
N2628 Eu2627 2.562 . S
N2628 C2630 1.325 . S
C2629 C2623 1.404 . S
C2629 C2631 1.366 . S
C2629 H2637 0.930 . S
C2630 N2628 1.325 . S
C2630 C2631 1.416 . S
C2630 H2636 0.929 . S
C2631 C2629 1.366 . S
C2631 C2630 1.416 . S
C2631 H2633 0.930 . S
H2632 C2621 0.930 . S
H2633 C2631 0.930 . S
H2634 C2649 0.930 1_554 S
H2635 C2656 0.930 . S
H2636 C2630 0.929 . S
H2637 C2629 0.930 . S
H2638 C2652 0.929 1_565 S
H2639 C2619 0.931 . S
H2640 C2625 0.931 . S
H2641 C2626 0.931 . S
H2642 C2647 0.931 . S
H2643 C2622 0.929 . S
H2644 C2655 0.930 1_565 S
N2645 Eu2616 2.600 . S
N2645 C2646 1.365 . S
N2645 C2649 1.319 . S
C2646 N2645 1.365 . S
C2646 C2648 1.405 . S
C2646 C2654 1.448 . S
C2647 H2642 0.931 . S
C2647 C2649 1.397 . S
C2647 C2650 1.367 . S
C2648 C2646 1.405 . S
C2648 C2650 1.403 . S
C2648 C2681 1.439 . S
C2649 H2634 0.930 1_556 S
C2649 N2645 1.319 . S
C2649 C2647 1.397 . S
C2650 C2647 1.367 . S
C2650 C2648 1.403 . S
C2650 H2657 0.929 . S
N2651 Eu2616 2.562 . S
N2651 C2652 1.325 . S
N2651 C2654 1.351 . S
C2652 H2638 0.929 1_545 S
C2652 N2651 1.325 . S
C2652 C2656 1.416 1_545 S
C2653 C2654 1.430 . S
C2653 C2655 1.404 . S
C2653 C2682 1.387 . S
C2654 C2646 1.448 . S
C2654 N2651 1.351 . S
C2654 C2653 1.430 . S
C2655 H2644 0.930 1_545 S
C2655 C2653 1.404 . S
C2655 C2656 1.366 1_545 S
C2656 H2635 0.930 . S
C2656 C2652 1.416 1_565 S
C2656 C2655 1.366 1_565 S
H2657 C2650 0.929 . S
H2658 C2681 0.931 . S
H2659 C2682 0.931 . S
O2660 Eu2616 2.462 . S
O2660 C2680 1.252 . S
O2661 Eu2616 2.373 1_554 S
O2661 C2672 1.249 . S
O2662 Eu2627 2.335 . S
O2662 C2672 1.264 . S
O2663 Eu2616 2.432 . S
O2663 C2680 1.268 . S
O2664 Eu2616 2.294 . S
O2664 C2679 1.250 1_546 S
O2665 Eu2627 2.372 1_565 S
O2665 C2679 1.257 . S
O2666 Eu2627 2.462 . S
O2666 C2691 1.251 . S
O2667 Eu2627 2.373 . S
O2667 C2683 1.249 . S
O2668 Eu2616 2.335 1_554 S
O2668 C2683 1.264 . S
O2669 Eu2627 2.432 1_565 S
O2669 C2691 1.269 1_565 S
O2670 Eu2627 2.291 . S
O2670 C2690 1.255 . S
O2671 Eu2616 2.372 1_554 S
O2671 C2690 1.257 . S
C2672 O2661 1.249 . S
C2672 O2662 1.264 . S
C2673 C2676 1.382 . S
C2673 C2678 1.390 . S
C2673 C2680 1.506 . S
C2674 C2675 1.398 . S
C2674 C2678 1.392 . S
C2675 C2674 1.398 . S
C2675 C2677 1.372 . S
C2675 H2692 0.931 . S
C2676 C2673 1.382 . S
C2676 C2677 1.390 . S
C2676 H2693 0.931 . S
C2677 C2675 1.372 . S
C2677 C2676 1.390 . S
C2677 H2694 0.929 . S
C2678 C2673 1.390 . S
C2678 C2674 1.392 . S
C2678 H2695 0.930 . S
C2679 O2664 1.250 1_564 S
C2679 O2665 1.257 . S
C2680 Eu2616 2.787 . S
C2680 O2660 1.252 . S
C2680 O2663 1.268 . S
C2680 C2673 1.506 . S
C2681 C2648 1.439 . S
C2681 H2658 0.931 . S
C2681 C2682 1.374 . S
C2682 C2653 1.387 . S
C2682 H2659 0.931 . S
C2682 C2681 1.374 . S
C2683 O2667 1.249 . S
C2683 O2668 1.264 . S
C2684 C2687 1.382 . S
C2684 C2688 1.390 1_565 S
C2684 C2691 1.507 1_565 S
C2685 C2686 1.398 1_545 S
C2685 C2688 1.392 . S
C2686 C2685 1.398 1_565 S
C2686 C2689 1.372 . S
C2686 H2696 0.931 . S
C2687 C2684 1.382 . S
C2687 C2689 1.390 . S
C2687 H2697 0.931 . S
C2688 C2684 1.390 1_545 S
C2688 C2685 1.392 . S
C2688 H2698 0.930 . S
C2689 C2686 1.372 . S
C2689 C2687 1.390 . S
C2689 H2699 0.929 . S
C2690 O2670 1.255 . S
C2690 O2671 1.257 . S
C2691 Eu2627 2.786 . S
C2691 O2666 1.251 . S
C2691 O2669 1.269 1_545 S
C2691 C2684 1.507 1_545 S
H2692 C2675 0.931 . S
H2693 C2676 0.931 . S
H2694 C2677 0.929 . S
H2695 C2678 0.930 . S
H2696 C2686 0.931 . S
H2697 C2687 0.931 . S
H2698 C2688 0.930 . S
H2699 C2689 0.929 . S
Eu2700 N2729 2.600 . S
Eu2700 N2735 2.562 . S
Eu2700 O2744 2.462 . S
Eu2700 O2745 2.373 . S
Eu2700 O2747 2.432 . S
Eu2700 O2748 2.291 . S
Eu2700 O2752 2.335 . S
Eu2700 O2755 2.372 . S
Eu2700 C2764 2.787 . S
C2701 N2702 1.365 . S
C2701 C2704 1.405 . S
C2701 C2708 1.448 . S
N2702 C2701 1.365 . S
N2702 C2705 1.319 . S
N2702 Eu2711 2.600 . S
C2703 C2705 1.397 . S
C2703 C2706 1.367 . S
C2703 H2723 0.931 . S
C2704 C2701 1.405 . S
C2704 C2706 1.403 . S
C2704 C2710 1.439 . S
C2705 N2702 1.319 . S
C2705 C2703 1.397 . S
C2705 H2716 0.930 . S
C2706 C2703 1.367 . S
C2706 C2704 1.403 . S
C2706 H2727 0.929 . S
C2707 C2708 1.430 . S
C2707 C2709 1.387 . S
C2707 C2713 1.404 . S
C2708 C2701 1.448 . S
C2708 C2707 1.430 . S
C2708 N2712 1.351 . S
C2709 C2707 1.387 . S
C2709 C2710 1.374 . S
C2709 H2724 0.931 . S
C2710 C2704 1.439 . S
C2710 C2709 1.374 . S
C2710 H2725 0.931 . S
Eu2711 N2702 2.600 . S
Eu2711 N2712 2.562 . S
Eu2711 O2746 2.335 . S
Eu2711 O2749 2.372 . S
Eu2711 O2750 2.462 . S
Eu2711 O2751 2.373 . S
Eu2711 O2753 2.432 . S
Eu2711 O2754 2.291 . S
Eu2711 C2775 2.787 . S
N2712 C2708 1.351 . S
N2712 Eu2711 2.562 . S
N2712 C2714 1.325 . S
C2713 C2707 1.404 . S
C2713 C2715 1.366 . S
C2713 H2721 0.930 . S
C2714 N2712 1.325 . S
C2714 C2715 1.416 . S
C2714 H2720 0.929 . S
C2715 C2713 1.366 . S
C2715 C2714 1.416 . S
C2715 H2717 0.930 . S
H2716 C2705 0.930 . S
H2717 C2715 0.930 . S
H2718 C2733 0.930 . S
H2719 C2740 0.930 . S
H2720 C2714 0.929 . S
H2721 C2713 0.930 . S
H2722 C2736 0.929 . S
H2723 C2703 0.931 . S
H2724 C2709 0.931 . S
H2725 C2710 0.931 . S
H2726 C2731 0.931 . S
H2727 C2706 0.929 . S
H2728 C2739 0.930 . S
N2729 Eu2700 2.600 . S
N2729 C2730 1.365 . S
N2729 C2733 1.319 . S
C2730 N2729 1.365 . S
C2730 C2732 1.405 . S
C2730 C2738 1.448 . S
C2731 H2726 0.931 . S
C2731 C2733 1.397 . S
C2731 C2734 1.367 . S
C2732 C2730 1.405 . S
C2732 C2734 1.403 . S
C2732 C2765 1.439 . S
C2733 H2718 0.930 . S
C2733 N2729 1.319 . S
C2733 C2731 1.397 . S
C2734 C2731 1.367 . S
C2734 C2732 1.403 . S
C2734 H2741 0.929 . S
N2735 Eu2700 2.562 . S
N2735 C2736 1.325 . S
N2735 C2738 1.351 . S
C2736 H2722 0.929 . S
C2736 N2735 1.325 . S
C2736 C2740 1.416 . S
C2737 C2738 1.430 . S
C2737 C2739 1.404 . S
C2737 C2766 1.387 . S
C2738 C2730 1.448 . S
C2738 N2735 1.351 . S
C2738 C2737 1.430 . S
C2739 H2728 0.930 . S
C2739 C2737 1.404 . S
C2739 C2740 1.366 . S
C2740 H2719 0.930 . S
C2740 C2736 1.416 . S
C2740 C2739 1.366 . S
H2741 C2734 0.929 . S
H2742 C2765 0.931 . S
H2743 C2766 0.931 . S
O2744 Eu2700 2.462 . S
O2744 C2764 1.252 . S
O2745 Eu2700 2.373 . S
O2745 C2756 1.249 . S
O2746 Eu2711 2.335 . S
O2746 C2756 1.264 . S
O2747 Eu2700 2.432 . S
O2747 C2764 1.268 . S
O2748 Eu2700 2.291 . S
O2748 C2763 1.255 . S
O2749 Eu2711 2.372 . S
O2749 C2763 1.257 . S
O2750 Eu2711 2.462 . S
O2750 C2775 1.252 . S
O2751 Eu2711 2.373 . S
O2751 C2767 1.249 . S
O2752 Eu2700 2.335 . S
O2752 C2767 1.264 . S
O2753 Eu2711 2.432 . S
O2753 C2775 1.268 . S
O2754 Eu2711 2.291 . S
O2754 C2774 1.255 . S
O2755 Eu2700 2.372 . S
O2755 C2774 1.257 . S
C2756 O2745 1.249 . S
C2756 O2746 1.264 . S
C2757 C2760 1.382 . S
C2757 C2762 1.390 . S
C2757 C2764 1.506 . S
C2758 C2759 1.398 . S
C2758 C2762 1.392 . S
C2759 C2758 1.398 . S
C2759 C2761 1.372 . S
C2759 H2776 0.931 . S
C2760 C2757 1.382 . S
C2760 C2761 1.390 . S
C2760 H2777 0.931 . S
C2761 C2759 1.372 . S
C2761 C2760 1.390 . S
C2761 H2778 0.929 . S
C2762 C2757 1.390 . S
C2762 C2758 1.392 . S
C2762 H2779 0.930 . S
C2763 O2748 1.255 . S
C2763 O2749 1.257 . S
C2764 Eu2700 2.787 . S
C2764 O2744 1.252 . S
C2764 O2747 1.268 . S
C2764 C2757 1.506 . S
C2765 C2732 1.439 . S
C2765 H2742 0.931 . S
C2765 C2766 1.374 . S
C2766 C2737 1.387 . S
C2766 H2743 0.931 . S
C2766 C2765 1.374 . S
C2767 O2751 1.249 . S
C2767 O2752 1.264 . S
C2768 C2771 1.382 . S
C2768 C2772 1.390 . S
C2768 C2775 1.506 . S
C2769 C2770 1.398 . S
C2769 C2772 1.392 . S
C2770 C2769 1.398 . S
C2770 C2773 1.372 . S
C2770 H2780 0.931 . S
C2771 C2768 1.382 . S
C2771 C2773 1.390 . S
C2771 H2781 0.931 . S
C2772 C2768 1.390 . S
C2772 C2769 1.392 . S
C2772 H2782 0.930 . S
C2773 C2770 1.372 . S
C2773 C2771 1.390 . S
C2773 H2783 0.929 . S
C2774 O2754 1.255 . S
C2774 O2755 1.257 . S
C2775 Eu2711 2.787 . S
C2775 O2750 1.252 . S
C2775 O2753 1.268 . S
C2775 C2768 1.506 . S
H2776 C2759 0.931 . S
H2777 C2760 0.931 . S
H2778 C2761 0.929 . S
H2779 C2762 0.930 . S
H2780 C2770 0.931 . S
H2781 C2771 0.931 . S
H2782 C2772 0.930 . S
H2783 C2773 0.929 . S
Eu2784 N2813 2.600 1_554 S
Eu2784 N2819 2.562 1_554 S
Eu2784 O2828 2.462 . S
Eu2784 O2829 2.373 1_554 S
Eu2784 O2831 2.432 . S
Eu2784 O2832 2.291 . S
Eu2784 O2836 2.335 . S
Eu2784 O2839 2.372 . S
Eu2784 C2848 2.787 . S
C2785 N2786 1.365 . S
C2785 C2788 1.405 . S
C2785 C2792 1.448 . S
N2786 C2785 1.365 . S
N2786 C2789 1.319 . S
N2786 Eu2795 2.600 . S
C2787 C2789 1.397 . S
C2787 C2790 1.367 . S
C2787 H2807 0.931 . S
C2788 C2785 1.405 . S
C2788 C2790 1.403 . S
C2788 C2794 1.439 . S
C2789 N2786 1.319 . S
C2789 C2787 1.397 . S
C2789 H2800 0.930 . S
C2790 C2787 1.367 . S
C2790 C2788 1.403 . S
C2790 H2811 0.929 . S
C2791 C2792 1.430 . S
C2791 C2793 1.387 . S
C2791 C2797 1.404 . S
C2792 C2785 1.448 . S
C2792 C2791 1.430 . S
C2792 N2796 1.351 . S
C2793 C2791 1.387 . S
C2793 C2794 1.374 . S
C2793 H2808 0.931 . S
C2794 C2788 1.439 . S
C2794 C2793 1.374 . S
C2794 H2809 0.931 . S
Eu2795 N2786 2.600 . S
Eu2795 N2796 2.562 . S
Eu2795 O2830 2.335 1_554 S
Eu2795 O2833 2.372 . S
Eu2795 O2834 2.462 . S
Eu2795 O2835 2.373 . S
Eu2795 O2837 2.432 . S
Eu2795 O2838 2.291 . S
Eu2795 C2859 2.787 . S
N2796 C2792 1.351 . S
N2796 Eu2795 2.562 . S
N2796 C2798 1.325 . S
C2797 C2791 1.404 . S
C2797 C2799 1.366 . S
C2797 H2805 0.930 . S
C2798 N2796 1.325 . S
C2798 C2799 1.416 . S
C2798 H2804 0.929 . S
C2799 C2797 1.366 . S
C2799 C2798 1.416 . S
C2799 H2801 0.930 . S
H2800 C2789 0.930 . S
H2801 C2799 0.930 . S
H2802 C2817 0.930 1_554 S
H2803 C2824 0.930 . S
H2804 C2798 0.929 . S
H2805 C2797 0.930 . S
H2806 C2820 0.929 1_554 S
H2807 C2787 0.931 . S
H2808 C2793 0.931 . S
H2809 C2794 0.931 . S
H2810 C2815 0.931 . S
H2811 C2790 0.929 . S
H2812 C2823 0.930 . S
N2813 Eu2784 2.600 1_556 S
N2813 C2814 1.365 . S
N2813 C2817 1.319 . S
C2814 N2813 1.365 . S
C2814 C2816 1.405 . S
C2814 C2822 1.448 . S
C2815 H2810 0.931 . S
C2815 C2817 1.397 . S
C2815 C2818 1.367 . S
C2816 C2814 1.405 . S
C2816 C2818 1.403 . S
C2816 C2849 1.439 . S
C2817 H2802 0.930 1_556 S
C2817 N2813 1.319 . S
C2817 C2815 1.397 . S
C2818 C2815 1.367 . S
C2818 C2816 1.403 . S
C2818 H2825 0.929 . S
N2819 Eu2784 2.562 1_556 S
N2819 C2820 1.325 . S
N2819 C2822 1.351 . S
C2820 H2806 0.929 1_556 S
C2820 N2819 1.325 . S
C2820 C2824 1.416 . S
C2821 C2822 1.430 . S
C2821 C2823 1.404 . S
C2821 C2850 1.387 . S
C2822 C2814 1.448 . S
C2822 N2819 1.351 . S
C2822 C2821 1.430 . S
C2823 H2812 0.930 . S
C2823 C2821 1.404 . S
C2823 C2824 1.366 . S
C2824 H2803 0.930 . S
C2824 C2820 1.416 . S
C2824 C2823 1.366 . S
H2825 C2818 0.929 . S
H2826 C2849 0.931 . S
H2827 C2850 0.931 . S
O2828 Eu2784 2.462 . S
O2828 C2848 1.252 . S
O2829 Eu2784 2.373 1_556 S
O2829 C2840 1.249 . S
O2830 Eu2795 2.335 1_556 S
O2830 C2840 1.264 . S
O2831 Eu2784 2.432 . S
O2831 C2848 1.268 . S
O2832 Eu2784 2.291 . S
O2832 C2847 1.255 . S
O2833 Eu2795 2.372 . S
O2833 C2847 1.257 . S
O2834 Eu2795 2.462 . S
O2834 C2859 1.252 . S
O2835 Eu2795 2.373 . S
O2835 C2851 1.249 . S
O2836 Eu2784 2.335 . S
O2836 C2851 1.264 . S
O2837 Eu2795 2.432 . S
O2837 C2859 1.268 . S
O2838 Eu2795 2.291 . S
O2838 C2858 1.255 . S
O2839 Eu2784 2.372 . S
O2839 C2858 1.257 . S
C2840 O2829 1.249 . S
C2840 O2830 1.264 . S
C2841 C2844 1.382 . S
C2841 C2846 1.390 . S
C2841 C2848 1.506 . S
C2842 C2843 1.398 . S
C2842 C2846 1.392 . S
C2843 C2842 1.398 . S
C2843 C2845 1.372 . S
C2843 H2860 0.931 . S
C2844 C2841 1.382 . S
C2844 C2845 1.390 . S
C2844 H2861 0.931 . S
C2845 C2843 1.372 . S
C2845 C2844 1.390 . S
C2845 H2862 0.929 . S
C2846 C2841 1.390 . S
C2846 C2842 1.392 . S
C2846 H2863 0.930 . S
C2847 O2832 1.255 . S
C2847 O2833 1.257 . S
C2848 Eu2784 2.787 . S
C2848 O2828 1.252 . S
C2848 O2831 1.268 . S
C2848 C2841 1.506 . S
C2849 C2816 1.439 . S
C2849 H2826 0.931 . S
C2849 C2850 1.374 . S
C2850 C2821 1.387 . S
C2850 H2827 0.931 . S
C2850 C2849 1.374 . S
C2851 O2835 1.249 . S
C2851 O2836 1.264 . S
C2852 C2855 1.382 . S
C2852 C2856 1.390 . S
C2852 C2859 1.506 1_556 S
C2853 C2854 1.398 . S
C2853 C2856 1.392 . S
C2854 C2853 1.398 . S
C2854 C2857 1.372 . S
C2854 H2864 0.931 . S
C2855 C2852 1.382 . S
C2855 C2857 1.390 . S
C2855 H2865 0.956 . S
C2856 C2852 1.390 . S
C2856 C2853 1.392 . S
C2856 H2866 0.930 . S
C2857 C2854 1.372 . S
C2857 C2855 1.390 . S
C2857 H2867 0.929 . S
C2858 O2838 1.255 . S
C2858 O2839 1.257 . S
C2859 Eu2795 2.787 . S
C2859 O2834 1.252 . S
C2859 O2837 1.268 . S
C2859 C2852 1.506 1_554 S
H2860 C2843 0.931 . S
H2861 C2844 0.931 . S
H2862 C2845 0.929 . S
H2863 C2846 0.930 . S
H2864 C2854 0.931 . S
H2865 C2855 0.956 . S
H2866 C2856 0.930 . S
H2867 C2857 0.929 . S
Eu2868 N2897 2.600 . S
Eu2868 N2903 2.562 . S
Eu2868 O2912 2.462 . S
Eu2868 O2913 2.373 . S
Eu2868 O2915 2.432 . S
Eu2868 O2916 2.291 . S
Eu2868 O2920 2.335 . S
Eu2868 O2923 2.372 . S
Eu2868 C2932 2.787 . S
C2869 N2870 1.365 . S
C2869 C2872 1.405 . S
C2869 C2876 1.448 . S
N2870 C2869 1.365 . S
N2870 C2873 1.319 . S
N2870 Eu2879 2.600 . S
C2871 C2873 1.397 . S
C2871 C2874 1.367 . S
C2871 H2891 0.931 . S
C2872 C2869 1.405 . S
C2872 C2874 1.403 . S
C2872 C2878 1.439 . S
C2873 N2870 1.319 . S
C2873 C2871 1.397 . S
C2873 H2884 0.930 . S
C2874 C2871 1.367 . S
C2874 C2872 1.403 . S
C2874 H2895 0.929 . S
C2875 C2876 1.430 . S
C2875 C2877 1.387 . S
C2875 C2881 1.404 . S
C2876 C2869 1.448 . S
C2876 C2875 1.430 . S
C2876 N2880 1.351 . S
C2877 C2875 1.387 . S
C2877 C2878 1.374 . S
C2877 H2892 0.931 . S
C2878 C2872 1.439 . S
C2878 C2877 1.374 . S
C2878 H2893 0.931 . S
Eu2879 N2870 2.600 . S
Eu2879 N2880 2.562 . S
Eu2879 O2914 2.335 . S
Eu2879 O2917 2.372 . S
Eu2879 O2918 2.462 . S
Eu2879 O2919 2.373 . S
Eu2879 O2921 2.432 . S
Eu2879 O2922 2.291 . S
Eu2879 C2943 2.787 . S
N2880 C2876 1.351 . S
N2880 Eu2879 2.562 . S
N2880 C2882 1.325 . S
C2881 C2875 1.404 . S
C2881 C2883 1.366 . S
C2881 H2889 0.930 . S
C2882 N2880 1.325 . S
C2882 C2883 1.416 . S
C2882 H2888 0.929 . S
C2883 C2881 1.366 . S
C2883 C2882 1.416 . S
C2883 H2885 0.930 . S
H2884 C2873 0.930 . S
H2885 C2883 0.930 . S
H2886 C2901 0.930 . S
H2887 C2908 0.930 . S
H2888 C2882 0.929 . S
H2889 C2881 0.930 . S
H2890 C2904 0.929 . S
H2891 C2871 0.931 . S
H2892 C2877 0.931 . S
H2893 C2878 0.931 . S
H2894 C2899 0.931 . S
H2895 C2874 0.929 . S
H2896 C2907 0.930 . S
N2897 Eu2868 2.600 . S
N2897 C2898 1.365 . S
N2897 C2901 1.319 . S
C2898 N2897 1.365 . S
C2898 C2900 1.405 . S
C2898 C2906 1.448 . S
C2899 H2894 0.931 . S
C2899 C2901 1.397 . S
C2899 C2902 1.367 . S
C2900 C2898 1.405 . S
C2900 C2902 1.403 . S
C2900 C2933 1.439 . S
C2901 H2886 0.930 . S
C2901 N2897 1.319 . S
C2901 C2899 1.397 . S
C2902 C2899 1.367 . S
C2902 C2900 1.403 . S
C2902 H2909 0.929 . S
N2903 Eu2868 2.562 . S
N2903 C2904 1.325 . S
N2903 C2906 1.351 . S
C2904 H2890 0.929 . S
C2904 N2903 1.325 . S
C2904 C2908 1.416 . S
C2905 C2906 1.430 . S
C2905 C2907 1.404 . S
C2905 C2934 1.387 . S
C2906 C2898 1.448 . S
C2906 N2903 1.351 . S
C2906 C2905 1.430 . S
C2907 H2896 0.930 . S
C2907 C2905 1.404 . S
C2907 C2908 1.366 . S
C2908 H2887 0.930 . S
C2908 C2904 1.416 . S
C2908 C2907 1.366 . S
H2909 C2902 0.929 . S
H2910 C2933 0.931 . S
H2911 C2934 0.931 . S
O2912 Eu2868 2.462 . S
O2912 C2932 1.252 . S
O2913 Eu2868 2.373 . S
O2913 C2924 1.249 . S
O2914 Eu2879 2.335 . S
O2914 C2924 1.264 . S
O2915 Eu2868 2.432 . S
O2915 C2932 1.268 . S
O2916 Eu2868 2.291 . S
O2916 C2931 1.255 . S
O2917 Eu2879 2.372 . S
O2917 C2931 1.257 . S
O2918 Eu2879 2.462 . S
O2918 C2943 1.252 . S
O2919 Eu2879 2.373 . S
O2919 C2935 1.249 . S
O2920 Eu2868 2.335 . S
O2920 C2935 1.264 . S
O2921 Eu2879 2.432 . S
O2921 C2943 1.268 . S
O2922 Eu2879 2.291 . S
O2922 C2942 1.255 . S
O2923 Eu2868 2.372 . S
O2923 C2942 1.257 . S
C2924 O2913 1.249 . S
C2924 O2914 1.264 . S
C2925 C2928 1.382 . S
C2925 C2930 1.390 . S
C2925 C2932 1.506 . S
C2926 C2927 1.398 . S
C2926 C2930 1.392 . S
C2927 C2926 1.398 . S
C2927 C2929 1.372 . S
C2927 H2944 0.931 . S
C2928 C2925 1.382 . S
C2928 C2929 1.390 . S
C2928 H2945 0.931 . S
C2929 C2927 1.372 . S
C2929 C2928 1.390 . S
C2929 H2946 0.929 . S
C2930 C2925 1.390 . S
C2930 C2926 1.392 . S
C2930 H2947 0.930 . S
C2931 O2916 1.255 . S
C2931 O2917 1.257 . S
C2932 Eu2868 2.787 . S
C2932 O2912 1.252 . S
C2932 O2915 1.268 . S
C2932 C2925 1.506 . S
C2933 C2900 1.439 . S
C2933 H2910 0.931 . S
C2933 C2934 1.374 . S
C2934 C2905 1.387 . S
C2934 H2911 0.931 . S
C2934 C2933 1.374 . S
C2935 O2919 1.249 . S
C2935 O2920 1.264 . S
C2936 C2939 1.382 . S
C2936 C2940 1.390 . S
C2936 C2943 1.506 . S
C2937 C2938 1.398 . S
C2937 C2940 1.392 . S
C2938 C2937 1.398 . S
C2938 C2941 1.372 . S
C2938 H2948 0.931 . S
C2939 C2936 1.382 . S
C2939 C2941 1.390 . S
C2939 H2949 0.931 . S
C2940 C2936 1.390 . S
C2940 C2937 1.392 . S
C2940 H2950 0.930 . S
C2941 C2938 1.372 . S
C2941 C2939 1.390 . S
C2941 H2951 0.929 . S
C2942 O2922 1.255 . S
C2942 O2923 1.257 . S
C2943 Eu2879 2.787 . S
C2943 O2918 1.252 . S
C2943 O2921 1.268 . S
C2943 C2936 1.506 . S
H2944 C2927 0.931 . S
H2945 C2928 0.931 . S
H2946 C2929 0.929 . S
H2947 C2930 0.930 . S
H2948 C2938 0.931 . S
H2949 C2939 0.931 . S
H2950 C2940 0.930 . S
H2951 C2941 0.929 . S
Eu2952 N2981 2.600 1_455 S
Eu2952 N2987 2.562 1_455 S
Eu2952 O2996 2.462 . S
Eu2952 O2997 2.373 1_455 S
Eu2952 O2999 2.432 . S
Eu2952 O3000 2.291 . S
Eu2952 O3004 2.335 . S
Eu2952 O3007 2.372 . S
Eu2952 C3016 2.787 . S
C2953 N2954 1.365 . S
C2953 C2956 1.405 . S
C2953 C2960 1.448 . S
N2954 C2953 1.365 . S
N2954 C2957 1.319 . S
N2954 Eu2963 2.600 . S
C2955 C2957 1.397 . S
C2955 C2958 1.367 . S
C2955 H2975 0.931 . S
C2956 C2953 1.405 . S
C2956 C2958 1.403 . S
C2956 C2962 1.439 . S
C2957 N2954 1.319 . S
C2957 C2955 1.397 . S
C2957 H2968 0.930 . S
C2958 C2955 1.367 . S
C2958 C2956 1.403 . S
C2958 H2979 0.929 . S
C2959 C2960 1.430 . S
C2959 C2961 1.387 . S
C2959 C2965 1.404 . S
C2960 C2953 1.448 . S
C2960 C2959 1.430 . S
C2960 N2964 1.351 . S
C2961 C2959 1.387 . S
C2961 C2962 1.374 . S
C2961 H2976 0.931 . S
C2962 C2956 1.439 . S
C2962 C2961 1.374 . S
C2962 H2977 0.931 . S
Eu2963 N2954 2.600 . S
Eu2963 N2964 2.562 . S
Eu2963 O2998 2.335 1_455 S
Eu2963 O3001 2.372 . S
Eu2963 O3002 2.462 . S
Eu2963 O3003 2.373 . S
Eu2963 O3005 2.432 . S
Eu2963 O3006 2.291 . S
Eu2963 C3027 2.787 . S
N2964 C2960 1.351 . S
N2964 Eu2963 2.562 . S
N2964 C2966 1.325 . S
C2965 C2959 1.404 . S
C2965 C2967 1.366 . S
C2965 H2973 0.930 . S
C2966 N2964 1.325 . S
C2966 C2967 1.416 . S
C2966 H2972 0.929 . S
C2967 C2965 1.366 . S
C2967 C2966 1.416 . S
C2967 H2969 0.930 . S
H2968 C2957 0.930 . S
H2969 C2967 0.930 . S
H2970 C2985 0.929 1_455 S
H2971 C2992 0.930 . S
H2972 C2966 0.929 . S
H2973 C2965 0.930 . S
H2974 C2988 0.929 1_455 S
H2975 C2955 0.931 . S
H2976 C2961 0.931 . S
H2977 C2962 0.931 . S
H2978 C2983 0.931 . S
H2979 C2958 0.929 . S
H2980 C2991 0.930 . S
N2981 Eu2952 2.600 1_655 S
N2981 C2982 1.365 . S
N2981 C2985 1.319 . S
C2982 N2981 1.365 . S
C2982 C2984 1.405 . S
C2982 C2990 1.448 . S
C2983 H2978 0.931 . S
C2983 C2985 1.398 . S
C2983 C2986 1.367 . S
C2984 C2982 1.405 . S
C2984 C2986 1.403 . S
C2984 C3017 1.439 . S
C2985 H2970 0.929 1_655 S
C2985 N2981 1.319 . S
C2985 C2983 1.398 . S
C2986 C2983 1.367 . S
C2986 C2984 1.403 . S
C2986 H2993 0.929 . S
N2987 Eu2952 2.562 1_655 S
N2987 C2988 1.325 . S
N2987 C2990 1.351 . S
C2988 H2974 0.929 1_655 S
C2988 N2987 1.325 . S
C2988 C2992 1.416 . S
C2989 C2990 1.430 . S
C2989 C2991 1.404 . S
C2989 C3018 1.387 . S
C2990 C2982 1.448 . S
C2990 N2987 1.351 . S
C2990 C2989 1.430 . S
C2991 H2980 0.930 . S
C2991 C2989 1.404 . S
C2991 C2992 1.366 . S
C2992 H2971 0.930 . S
C2992 C2988 1.416 . S
C2992 C2991 1.366 . S
H2993 C2986 0.929 . S
H2994 C3017 0.931 . S
H2995 C3018 0.931 . S
O2996 Eu2952 2.462 . S
O2996 C3016 1.252 . S
O2997 Eu2952 2.373 1_655 S
O2997 C3008 1.249 . S
O2998 Eu2963 2.335 1_655 S
O2998 C3008 1.264 . S
O2999 Eu2952 2.432 . S
O2999 C3016 1.268 . S
O3000 Eu2952 2.291 . S
O3000 C3015 1.255 . S
O3001 Eu2963 2.372 . S
O3001 C3015 1.257 . S
O3002 Eu2963 2.462 . S
O3002 C3027 1.252 . S
O3003 Eu2963 2.373 . S
O3003 C3019 1.249 . S
O3004 Eu2952 2.335 . S
O3004 C3019 1.264 . S
O3005 Eu2963 2.432 . S
O3005 C3027 1.268 . S
O3006 Eu2963 2.291 . S
O3006 C3026 1.255 . S
O3007 Eu2952 2.372 . S
O3007 C3026 1.257 . S
C3008 O2997 1.249 . S
C3008 O2998 1.264 . S
C3009 C3012 1.382 . S
C3009 C3014 1.390 . S
C3009 C3016 1.506 . S
C3010 C3011 1.398 . S
C3010 C3014 1.392 . S
C3011 C3010 1.398 . S
C3011 C3013 1.372 . S
C3011 H3028 0.931 . S
C3012 C3009 1.382 . S
C3012 C3013 1.390 . S
C3012 H3029 0.931 . S
C3013 C3011 1.372 . S
C3013 C3012 1.390 . S
C3013 H3030 0.929 . S
C3014 C3009 1.390 . S
C3014 C3010 1.392 . S
C3014 H3031 0.930 . S
C3015 O3000 1.255 . S
C3015 O3001 1.257 . S
C3016 Eu2952 2.787 . S
C3016 O2996 1.252 . S
C3016 O2999 1.268 . S
C3016 C3009 1.506 . S
C3017 C2984 1.439 . S
C3017 H2994 0.931 . S
C3017 C3018 1.374 . S
C3018 C2989 1.387 . S
C3018 H2995 0.931 . S
C3018 C3017 1.374 . S
C3019 O3003 1.249 . S
C3019 O3004 1.264 . S
C3020 C3023 1.382 . S
C3020 C3024 1.390 . S
C3020 C3027 1.506 1_655 S
C3021 C3022 1.398 . S
C3021 C3024 1.392 . S
C3022 C3021 1.398 . S
C3022 C3025 1.372 . S
C3022 H3032 0.931 . S
C3023 C3020 1.382 . S
C3023 C3025 1.390 . S
C3023 H3033 0.931 . S
C3024 C3020 1.390 . S
C3024 C3021 1.392 . S
C3024 H3034 0.930 . S
C3025 C3022 1.372 . S
C3025 C3023 1.390 . S
C3025 H3035 0.929 . S
C3026 O3006 1.255 . S
C3026 O3007 1.257 . S
C3027 Eu2963 2.787 . S
C3027 O3002 1.252 . S
C3027 O3005 1.268 . S
C3027 C3020 1.506 1_455 S
H3028 C3011 0.931 . S
H3029 C3012 0.931 . S
H3030 C3013 0.929 . S
H3031 C3014 0.930 . S
H3032 C3022 0.931 . S
H3033 C3023 0.931 . S
H3034 C3024 0.930 . S
H3035 C3025 0.929 . S
Eu3036 N3065 2.600 . S
Eu3036 N3071 2.562 . S
Eu3036 O3080 2.462 . S
Eu3036 O3081 2.373 . S
Eu3036 O3083 2.432 . S
Eu3036 O3084 2.291 . S
Eu3036 O3088 2.335 . S
Eu3036 O3091 2.372 . S
Eu3036 C3100 2.787 . S
C3037 N3038 1.365 . S
C3037 C3040 1.405 . S
C3037 C3044 1.448 . S
N3038 C3037 1.365 . S
N3038 C3041 1.319 . S
N3038 Eu3047 2.600 . S
C3039 C3041 1.397 . S
C3039 C3042 1.367 . S
C3039 H3059 0.931 . S
C3040 C3037 1.405 . S
C3040 C3042 1.403 . S
C3040 C3046 1.439 . S
C3041 N3038 1.319 . S
C3041 C3039 1.397 . S
C3041 H3052 0.930 . S
C3042 C3039 1.367 . S
C3042 C3040 1.403 . S
C3042 H3063 0.929 . S
C3043 C3044 1.430 . S
C3043 C3045 1.387 . S
C3043 C3049 1.404 . S
C3044 C3037 1.448 . S
C3044 C3043 1.430 . S
C3044 N3048 1.351 . S
C3045 C3043 1.387 . S
C3045 C3046 1.374 . S
C3045 H3060 0.931 . S
C3046 C3040 1.439 . S
C3046 C3045 1.374 . S
C3046 H3061 0.931 . S
Eu3047 N3038 2.600 . S
Eu3047 N3048 2.562 . S
Eu3047 O3082 2.335 . S
Eu3047 O3085 2.372 . S
Eu3047 O3086 2.462 . S
Eu3047 O3087 2.373 . S
Eu3047 O3089 2.432 . S
Eu3047 O3090 2.291 . S
Eu3047 C3111 2.787 . S
N3048 C3044 1.351 . S
N3048 Eu3047 2.562 . S
N3048 C3050 1.325 . S
C3049 C3043 1.404 . S
C3049 C3051 1.366 . S
C3049 H3057 0.930 . S
C3050 N3048 1.325 . S
C3050 C3051 1.416 . S
C3050 H3056 0.929 . S
C3051 C3049 1.366 . S
C3051 C3050 1.416 . S
C3051 H3053 0.930 . S
H3052 C3041 0.930 . S
H3053 C3051 0.930 . S
H3054 C3069 0.930 . S
H3055 C3076 0.930 . S
H3056 C3050 0.929 . S
H3057 C3049 0.930 . S
H3058 C3072 0.929 . S
H3059 C3039 0.931 . S
H3060 C3045 0.931 . S
H3061 C3046 0.931 . S
H3062 C3067 0.931 . S
H3063 C3042 0.929 . S
H3064 C3075 0.930 . S
N3065 Eu3036 2.600 . S
N3065 C3066 1.365 . S
N3065 C3069 1.319 . S
C3066 N3065 1.365 . S
C3066 C3068 1.405 . S
C3066 C3074 1.448 . S
C3067 H3062 0.931 . S
C3067 C3069 1.397 . S
C3067 C3070 1.367 . S
C3068 C3066 1.405 . S
C3068 C3070 1.403 . S
C3068 C3101 1.439 . S
C3069 H3054 0.930 . S
C3069 N3065 1.319 . S
C3069 C3067 1.397 . S
C3070 C3067 1.367 . S
C3070 C3068 1.403 . S
C3070 H3077 0.929 . S
N3071 Eu3036 2.562 . S
N3071 C3072 1.325 . S
N3071 C3074 1.351 . S
C3072 H3058 0.929 . S
C3072 N3071 1.325 . S
C3072 C3076 1.416 . S
C3073 C3074 1.430 . S
C3073 C3075 1.404 . S
C3073 C3102 1.387 . S
C3074 C3066 1.448 . S
C3074 N3071 1.351 . S
C3074 C3073 1.430 . S
C3075 H3064 0.930 . S
C3075 C3073 1.404 . S
C3075 C3076 1.366 . S
C3076 H3055 0.930 . S
C3076 C3072 1.416 . S
C3076 C3075 1.366 . S
H3077 C3070 0.929 . S
H3078 C3101 0.931 . S
H3079 C3102 0.931 . S
O3080 Eu3036 2.462 . S
O3080 C3100 1.252 . S
O3081 Eu3036 2.373 . S
O3081 C3092 1.249 . S
O3082 Eu3047 2.335 . S
O3082 C3092 1.264 . S
O3083 Eu3036 2.432 . S
O3083 C3100 1.268 . S
O3084 Eu3036 2.291 . S
O3084 C3099 1.255 . S
O3085 Eu3047 2.372 . S
O3085 C3099 1.257 . S
O3086 Eu3047 2.462 . S
O3086 C3111 1.252 . S
O3087 Eu3047 2.373 . S
O3087 C3103 1.249 . S
O3088 Eu3036 2.335 . S
O3088 C3103 1.264 . S
O3089 Eu3047 2.432 . S
O3089 C3111 1.268 . S
O3090 Eu3047 2.291 . S
O3090 C3110 1.255 . S
O3091 Eu3036 2.372 . S
O3091 C3110 1.257 . S
C3092 O3081 1.249 . S
C3092 O3082 1.264 . S
C3093 C3096 1.382 . S
C3093 C3098 1.390 . S
C3093 C3100 1.506 . S
C3094 C3095 1.398 . S
C3094 C3098 1.392 . S
C3095 C3094 1.398 . S
C3095 C3097 1.372 . S
C3095 H3112 0.931 . S
C3096 C3093 1.382 . S
C3096 C3097 1.390 . S
C3096 H3113 0.931 . S
C3097 C3095 1.372 . S
C3097 C3096 1.390 . S
C3097 H3114 0.929 . S
C3098 C3093 1.390 . S
C3098 C3094 1.392 . S
C3098 H3115 0.930 . S
C3099 O3084 1.255 . S
C3099 O3085 1.257 . S
C3100 Eu3036 2.787 . S
C3100 O3080 1.252 . S
C3100 O3083 1.268 . S
C3100 C3093 1.506 . S
C3101 C3068 1.439 . S
C3101 H3078 0.931 . S
C3101 C3102 1.374 . S
C3102 C3073 1.387 . S
C3102 H3079 0.931 . S
C3102 C3101 1.374 . S
C3103 O3087 1.249 . S
C3103 O3088 1.264 . S
C3104 C3107 1.382 . S
C3104 C3108 1.390 . S
C3104 C3111 1.506 . S
C3105 C3106 1.398 . S
C3105 C3108 1.392 . S
C3106 C3105 1.398 . S
C3106 C3109 1.372 . S
C3106 H3116 0.931 . S
C3107 C3104 1.382 . S
C3107 C3109 1.390 . S
C3107 H3117 0.931 . S
C3108 C3104 1.390 . S
C3108 C3105 1.392 . S
C3108 H3118 0.930 . S
C3109 C3106 1.372 . S
C3109 C3107 1.390 . S
C3109 H3119 0.929 . S
C3110 O3090 1.255 . S
C3110 O3091 1.257 . S
C3111 Eu3047 2.787 . S
C3111 O3086 1.252 . S
C3111 O3089 1.268 . S
C3111 C3104 1.506 . S
H3112 C3095 0.931 . S
H3113 C3096 0.931 . S
H3114 C3097 0.929 . S
H3115 C3098 0.930 . S
H3116 C3106 0.931 . S
H3117 C3107 0.931 . S
H3118 C3108 0.930 . S
H3119 C3109 0.929 . S
Eu3120 N3149 2.600 . S
Eu3120 N3155 2.562 . S
Eu3120 O3164 2.462 . S
Eu3120 O3165 2.373 . S
Eu3120 O3167 2.432 . S
Eu3120 O3168 2.291 . S
Eu3120 O3172 2.335 . S
Eu3120 O3175 2.372 . S
Eu3120 C3184 2.787 . S
C3121 N3122 1.365 . S
C3121 C3124 1.405 . S
C3121 C3128 1.448 . S
N3122 C3121 1.365 . S
N3122 C3125 1.319 . S
N3122 Eu3131 2.600 . S
C3123 C3125 1.397 . S
C3123 C3126 1.367 . S
C3123 H3143 0.931 . S
C3124 C3121 1.405 . S
C3124 C3126 1.403 . S
C3124 C3130 1.439 . S
C3125 N3122 1.319 . S
C3125 C3123 1.397 . S
C3125 H3136 0.930 . S
C3126 C3123 1.367 . S
C3126 C3124 1.403 . S
C3126 H3147 0.929 . S
C3127 C3128 1.430 . S
C3127 C3129 1.387 . S
C3127 C3133 1.404 . S
C3128 C3121 1.448 . S
C3128 C3127 1.430 . S
C3128 N3132 1.351 . S
C3129 C3127 1.387 . S
C3129 C3130 1.374 . S
C3129 H3144 0.931 . S
C3130 C3124 1.439 . S
C3130 C3129 1.374 . S
C3130 H3145 0.931 . S
Eu3131 N3122 2.600 . S
Eu3131 N3132 2.562 . S
Eu3131 O3166 2.335 . S
Eu3131 O3169 2.372 . S
Eu3131 O3170 2.462 . S
Eu3131 O3171 2.373 . S
Eu3131 O3173 2.432 . S
Eu3131 O3174 2.291 . S
Eu3131 C3195 2.787 . S
N3132 C3128 1.351 . S
N3132 Eu3131 2.562 . S
N3132 C3134 1.325 . S
C3133 C3127 1.404 . S
C3133 C3135 1.366 . S
C3133 H3141 0.930 . S
C3134 N3132 1.325 . S
C3134 C3135 1.416 . S
C3134 H3140 0.929 . S
C3135 C3133 1.366 . S
C3135 C3134 1.416 . S
C3135 H3137 0.930 . S
H3136 C3125 0.930 . S
H3137 C3135 0.930 . S
H3138 C3153 0.930 . S
H3139 C3160 0.930 . S
H3140 C3134 0.929 . S
H3141 C3133 0.930 . S
H3142 C3156 0.929 . S
H3143 C3123 0.931 . S
H3144 C3129 0.931 . S
H3145 C3130 0.931 . S
H3146 C3151 0.931 . S
H3147 C3126 0.929 . S
H3148 C3159 0.930 . S
N3149 Eu3120 2.600 . S
N3149 C3150 1.365 . S
N3149 C3153 1.319 . S
C3150 N3149 1.365 . S
C3150 C3152 1.405 . S
C3150 C3158 1.448 . S
C3151 H3146 0.931 . S
C3151 C3153 1.397 . S
C3151 C3154 1.367 . S
C3152 C3150 1.405 . S
C3152 C3154 1.403 . S
C3152 C3185 1.439 . S
C3153 H3138 0.930 . S
C3153 N3149 1.319 . S
C3153 C3151 1.397 . S
C3154 C3151 1.367 . S
C3154 C3152 1.403 . S
C3154 H3161 0.929 . S
N3155 Eu3120 2.562 . S
N3155 C3156 1.325 . S
N3155 C3158 1.351 . S
C3156 H3142 0.929 . S
C3156 N3155 1.325 . S
C3156 C3160 1.416 . S
C3157 C3158 1.430 . S
C3157 C3159 1.404 . S
C3157 C3186 1.387 . S
C3158 C3150 1.448 . S
C3158 N3155 1.351 . S
C3158 C3157 1.430 . S
C3159 H3148 0.930 . S
C3159 C3157 1.404 . S
C3159 C3160 1.366 . S
C3160 H3139 0.930 . S
C3160 C3156 1.416 . S
C3160 C3159 1.366 . S
H3161 C3154 0.929 . S
H3162 C3185 0.931 . S
H3163 C3186 0.931 . S
O3164 Eu3120 2.462 . S
O3164 C3184 1.252 . S
O3165 Eu3120 2.373 . S
O3165 C3176 1.249 . S
O3166 Eu3131 2.335 . S
O3166 C3176 1.264 . S
O3167 Eu3120 2.432 . S
O3167 C3184 1.268 . S
O3168 Eu3120 2.291 . S
O3168 C3183 1.255 . S
O3169 Eu3131 2.372 . S
O3169 C3183 1.257 . S
O3170 Eu3131 2.462 . S
O3170 C3195 1.252 . S
O3171 Eu3131 2.373 . S
O3171 C3187 1.249 . S
O3172 Eu3120 2.335 . S
O3172 C3187 1.264 . S
O3173 Eu3131 2.432 . S
O3173 C3195 1.268 . S
O3174 Eu3131 2.291 . S
O3174 C3194 1.255 . S
O3175 Eu3120 2.372 . S
O3175 C3194 1.257 . S
C3176 O3165 1.249 . S
C3176 O3166 1.264 . S
C3177 C3180 1.382 . S
C3177 C3182 1.390 . S
C3177 C3184 1.506 . S
C3178 C3179 1.398 . S
C3178 C3182 1.392 . S
C3179 C3178 1.398 . S
C3179 C3181 1.372 . S
C3179 H3196 0.931 . S
C3180 C3177 1.382 . S
C3180 C3181 1.390 . S
C3180 H3197 0.931 . S
C3181 C3179 1.372 . S
C3181 C3180 1.390 . S
C3181 H3198 0.929 . S
C3182 C3177 1.390 . S
C3182 C3178 1.392 . S
C3182 H3199 0.930 . S
C3183 O3168 1.255 . S
C3183 O3169 1.257 . S
C3184 Eu3120 2.787 . S
C3184 O3164 1.252 . S
C3184 O3167 1.268 . S
C3184 C3177 1.506 . S
C3185 C3152 1.439 . S
C3185 H3162 0.931 . S
C3185 C3186 1.374 . S
C3186 C3157 1.387 . S
C3186 H3163 0.931 . S
C3186 C3185 1.374 . S
C3187 O3171 1.249 . S
C3187 O3172 1.264 . S
C3188 C3191 1.382 . S
C3188 C3192 1.390 . S
C3188 C3195 1.506 . S
C3189 C3190 1.398 . S
C3189 C3192 1.392 . S
C3190 C3189 1.398 . S
C3190 C3193 1.372 . S
C3190 H3200 0.931 . S
C3191 C3188 1.382 . S
C3191 C3193 1.390 . S
C3191 H3201 0.931 . S
C3192 C3188 1.390 . S
C3192 C3189 1.392 . S
C3192 H3202 0.930 . S
C3193 C3190 1.372 . S
C3193 C3191 1.390 . S
C3193 H3203 0.929 . S
C3194 O3174 1.255 . S
C3194 O3175 1.257 . S
C3195 Eu3131 2.787 . S
C3195 O3170 1.252 . S
C3195 O3173 1.268 . S
C3195 C3188 1.506 . S
H3196 C3179 0.931 . S
H3197 C3180 0.931 . S
H3198 C3181 0.929 . S
H3199 C3182 0.930 . S
H3200 C3190 0.931 . S
H3201 C3191 0.931 . S
H3202 C3192 0.930 . S
H3203 C3193 0.929 . S
Eu3204 N3233 2.600 . S
Eu3204 N3239 2.562 . S
Eu3204 O3248 2.462 . S
Eu3204 O3249 2.373 . S
Eu3204 O3251 2.432 . S
Eu3204 O3252 2.291 . S
Eu3204 O3256 2.335 . S
Eu3204 O3259 2.372 . S
Eu3204 C3268 2.787 . S
C3205 N3206 1.365 . S
C3205 C3208 1.405 . S
C3205 C3212 1.448 . S
N3206 C3205 1.365 . S
N3206 C3209 1.319 . S
N3206 Eu3215 2.600 . S
C3207 C3209 1.397 . S
C3207 C3210 1.367 . S
C3207 H3227 0.931 . S
C3208 C3205 1.405 . S
C3208 C3210 1.403 . S
C3208 C3214 1.439 . S
C3209 N3206 1.319 . S
C3209 C3207 1.397 . S
C3209 H3220 0.930 . S
C3210 C3207 1.367 . S
C3210 C3208 1.403 . S
C3210 H3231 0.929 . S
C3211 C3212 1.430 . S
C3211 C3213 1.387 . S
C3211 C3217 1.404 . S
C3212 C3205 1.448 . S
C3212 C3211 1.430 . S
C3212 N3216 1.351 . S
C3213 C3211 1.387 . S
C3213 C3214 1.374 . S
C3213 H3228 0.931 . S
C3214 C3208 1.439 . S
C3214 C3213 1.374 . S
C3214 H3229 0.931 . S
Eu3215 N3206 2.600 . S
Eu3215 N3216 2.562 . S
Eu3215 O3250 2.335 . S
Eu3215 O3253 2.372 . S
Eu3215 O3254 2.462 . S
Eu3215 O3255 2.373 . S
Eu3215 O3257 2.432 . S
Eu3215 O3258 2.291 . S
Eu3215 C3279 2.787 . S
N3216 C3212 1.351 . S
N3216 Eu3215 2.562 . S
N3216 C3218 1.325 . S
C3217 C3211 1.404 . S
C3217 C3219 1.366 . S
C3217 H3225 0.930 . S
C3218 N3216 1.325 . S
C3218 C3219 1.416 . S
C3218 H3224 0.929 . S
C3219 C3217 1.366 . S
C3219 C3218 1.416 . S
C3219 H3221 0.930 . S
H3220 C3209 0.930 . S
H3221 C3219 0.930 . S
H3222 C3237 0.930 . S
H3223 C3244 0.930 . S
H3224 C3218 0.929 . S
H3225 C3217 0.930 . S
H3226 C3240 0.929 . S
H3227 C3207 0.931 . S
H3228 C3213 0.931 . S
H3229 C3214 0.931 . S
H3230 C3235 0.931 . S
H3231 C3210 0.929 . S
H3232 C3243 0.930 . S
N3233 Eu3204 2.600 . S
N3233 C3234 1.365 . S
N3233 C3237 1.319 . S
C3234 N3233 1.365 . S
C3234 C3236 1.405 . S
C3234 C3242 1.448 . S
C3235 H3230 0.931 . S
C3235 C3237 1.397 . S
C3235 C3238 1.367 . S
C3236 C3234 1.405 . S
C3236 C3238 1.403 . S
C3236 C3269 1.439 . S
C3237 H3222 0.930 . S
C3237 N3233 1.319 . S
C3237 C3235 1.397 . S
C3238 C3235 1.367 . S
C3238 C3236 1.403 . S
C3238 H3245 0.929 . S
N3239 Eu3204 2.562 . S
N3239 C3240 1.325 . S
N3239 C3242 1.351 . S
C3240 H3226 0.929 . S
C3240 N3239 1.325 . S
C3240 C3244 1.416 . S
C3241 C3242 1.430 . S
C3241 C3243 1.404 . S
C3241 C3270 1.387 . S
C3242 C3234 1.448 . S
C3242 N3239 1.351 . S
C3242 C3241 1.430 . S
C3243 H3232 0.930 . S
C3243 C3241 1.404 . S
C3243 C3244 1.366 . S
C3244 H3223 0.930 . S
C3244 C3240 1.416 . S
C3244 C3243 1.366 . S
H3245 C3238 0.929 . S
H3246 C3269 0.931 . S
H3247 C3270 0.931 . S
O3248 Eu3204 2.462 . S
O3248 C3268 1.252 . S
O3249 Eu3204 2.373 . S
O3249 C3260 1.249 . S
O3250 Eu3215 2.335 . S
O3250 C3260 1.264 . S
O3251 Eu3204 2.432 . S
O3251 C3268 1.268 . S
O3252 Eu3204 2.291 . S
O3252 C3267 1.255 . S
O3253 Eu3215 2.372 . S
O3253 C3267 1.257 . S
O3254 Eu3215 2.462 . S
O3254 C3279 1.252 . S
O3255 Eu3215 2.373 . S
O3255 C3271 1.249 . S
O3256 Eu3204 2.335 . S
O3256 C3271 1.264 . S
O3257 Eu3215 2.432 . S
O3257 C3279 1.268 . S
O3258 Eu3215 2.291 . S
O3258 C3278 1.255 . S
O3259 Eu3204 2.372 . S
O3259 C3278 1.257 . S
C3260 O3249 1.249 . S
C3260 O3250 1.264 . S
C3261 C3264 1.382 . S
C3261 C3266 1.390 . S
C3261 C3268 1.506 . S
C3262 C3263 1.398 . S
C3262 C3266 1.392 . S
C3263 C3262 1.398 . S
C3263 C3265 1.372 . S
C3263 H3280 0.931 . S
C3264 C3261 1.382 . S
C3264 C3265 1.390 . S
C3264 H3281 0.931 . S
C3265 C3263 1.372 . S
C3265 C3264 1.390 . S
C3265 H3282 0.929 . S
C3266 C3261 1.390 . S
C3266 C3262 1.392 . S
C3266 H3283 0.930 . S
C3267 O3252 1.255 . S
C3267 O3253 1.257 . S
C3268 Eu3204 2.787 . S
C3268 O3248 1.252 . S
C3268 O3251 1.268 . S
C3268 C3261 1.506 . S
C3269 C3236 1.439 . S
C3269 H3246 0.931 . S
C3269 C3270 1.374 . S
C3270 C3241 1.387 . S
C3270 H3247 0.931 . S
C3270 C3269 1.374 . S
C3271 O3255 1.249 . S
C3271 O3256 1.264 . S
C3272 C3275 1.382 . S
C3272 C3276 1.390 . S
C3272 C3279 1.506 . S
C3273 C3274 1.398 . S
C3273 C3276 1.392 . S
C3274 C3273 1.398 . S
C3274 C3277 1.372 . S
C3274 H3284 0.931 . S
C3275 C3272 1.382 . S
C3275 C3277 1.390 . S
C3275 H3285 0.931 . S
C3276 C3272 1.390 . S
C3276 C3273 1.392 . S
C3276 H3286 0.930 . S
C3277 C3274 1.372 . S
C3277 C3275 1.390 . S
C3277 H3287 0.929 . S
C3278 O3258 1.255 . S
C3278 O3259 1.257 . S
C3279 Eu3215 2.787 . S
C3279 O3254 1.252 . S
C3279 O3257 1.268 . S
C3279 C3272 1.506 . S
H3280 C3263 0.931 . S
H3281 C3264 0.931 . S
H3282 C3265 0.929 . S
H3283 C3266 0.930 . S
H3284 C3274 0.931 . S
H3285 C3275 0.931 . S
H3286 C3276 0.930 . S
H3287 C3277 0.929 . S
Eu3288 N3317 2.600 . S
Eu3288 N3323 2.562 . S
Eu3288 O3332 2.462 . S
Eu3288 O3333 2.373 . S
Eu3288 O3335 2.432 . S
Eu3288 O3336 2.291 . S
Eu3288 O3340 2.335 . S
Eu3288 O3343 2.372 . S
Eu3288 C3352 2.787 . S
C3289 N3290 1.365 . S
C3289 C3292 1.405 . S
C3289 C3296 1.448 . S
N3290 C3289 1.365 . S
N3290 C3293 1.319 . S
N3290 Eu3299 2.600 . S
C3291 C3293 1.397 . S
C3291 C3294 1.367 . S
C3291 H3311 0.931 . S
C3292 C3289 1.405 . S
C3292 C3294 1.403 . S
C3292 C3298 1.439 . S
C3293 N3290 1.319 . S
C3293 C3291 1.397 . S
C3293 H3304 0.930 . S
C3294 C3291 1.367 . S
C3294 C3292 1.403 . S
C3294 H3315 0.929 . S
C3295 C3296 1.430 . S
C3295 C3297 1.387 . S
C3295 C3301 1.404 . S
C3296 C3289 1.448 . S
C3296 C3295 1.430 . S
C3296 N3300 1.351 . S
C3297 C3295 1.387 . S
C3297 C3298 1.374 . S
C3297 H3312 0.931 . S
C3298 C3292 1.439 . S
C3298 C3297 1.374 . S
C3298 H3313 0.931 . S
Eu3299 N3290 2.600 . S
Eu3299 N3300 2.562 . S
Eu3299 O3334 2.335 . S
Eu3299 O3337 2.372 . S
Eu3299 O3338 2.462 . S
Eu3299 O3339 2.373 . S
Eu3299 O3341 2.432 . S
Eu3299 O3342 2.291 . S
Eu3299 C3363 2.787 . S
N3300 C3296 1.351 . S
N3300 Eu3299 2.562 . S
N3300 C3302 1.325 . S
C3301 C3295 1.404 . S
C3301 C3303 1.366 . S
C3301 H3309 0.930 . S
C3302 N3300 1.325 . S
C3302 C3303 1.416 . S
C3302 H3308 0.929 . S
C3303 C3301 1.366 . S
C3303 C3302 1.416 . S
C3303 H3305 0.930 . S
H3304 C3293 0.930 . S
H3305 C3303 0.930 . S
H3306 C3321 0.930 . S
H3307 C3328 0.930 . S
H3308 C3302 0.929 . S
H3309 C3301 0.930 . S
H3310 C3324 0.929 . S
H3311 C3291 0.931 . S
H3312 C3297 0.931 . S
H3313 C3298 0.931 . S
H3314 C3319 0.931 . S
H3315 C3294 0.929 . S
H3316 C3327 0.930 . S
N3317 Eu3288 2.600 . S
N3317 C3318 1.365 . S
N3317 C3321 1.319 . S
C3318 N3317 1.365 . S
C3318 C3320 1.405 . S
C3318 C3326 1.448 . S
C3319 H3314 0.931 . S
C3319 C3321 1.397 . S
C3319 C3322 1.367 . S
C3320 C3318 1.405 . S
C3320 C3322 1.403 . S
C3320 C3353 1.439 . S
C3321 H3306 0.930 . S
C3321 N3317 1.319 . S
C3321 C3319 1.397 . S
C3322 C3319 1.367 . S
C3322 C3320 1.403 . S
C3322 H3329 0.929 . S
N3323 Eu3288 2.562 . S
N3323 C3324 1.325 . S
N3323 C3326 1.351 . S
C3324 H3310 0.929 . S
C3324 N3323 1.325 . S
C3324 C3328 1.416 . S
C3325 C3326 1.430 . S
C3325 C3327 1.404 . S
C3325 C3354 1.387 . S
C3326 C3318 1.448 . S
C3326 N3323 1.351 . S
C3326 C3325 1.430 . S
C3327 H3316 0.930 . S
C3327 C3325 1.404 . S
C3327 C3328 1.366 . S
C3328 H3307 0.930 . S
C3328 C3324 1.416 . S
C3328 C3327 1.366 . S
H3329 C3322 0.929 . S
H3330 C3353 0.931 . S
H3331 C3354 0.931 . S
O3332 Eu3288 2.462 . S
O3332 C3352 1.252 . S
O3333 Eu3288 2.373 . S
O3333 C3344 1.249 . S
O3334 Eu3299 2.335 . S
O3334 C3344 1.264 . S
O3335 Eu3288 2.432 . S
O3335 C3352 1.268 . S
O3336 Eu3288 2.291 . S
O3336 C3351 1.255 . S
O3337 Eu3299 2.372 . S
O3337 C3351 1.257 . S
O3338 Eu3299 2.462 . S
O3338 C3363 1.252 . S
O3339 Eu3299 2.373 . S
O3339 C3355 1.249 . S
O3340 Eu3288 2.335 . S
O3340 C3355 1.264 . S
O3341 Eu3299 2.432 . S
O3341 C3363 1.268 . S
O3342 Eu3299 2.291 . S
O3342 C3362 1.255 . S
O3343 Eu3288 2.372 . S
O3343 C3362 1.257 . S
C3344 O3333 1.249 . S
C3344 O3334 1.264 . S
C3345 C3348 1.382 . S
C3345 C3350 1.390 . S
C3345 C3352 1.506 . S
C3346 C3347 1.398 . S
C3346 C3350 1.392 . S
C3347 C3346 1.398 . S
C3347 C3349 1.372 . S
C3347 H3364 0.931 . S
C3348 C3345 1.382 . S
C3348 C3349 1.390 . S
C3348 H3365 0.931 . S
C3349 C3347 1.372 . S
C3349 C3348 1.390 . S
C3349 H3366 0.929 . S
C3350 C3345 1.390 . S
C3350 C3346 1.392 . S
C3350 H3367 0.930 . S
C3351 O3336 1.255 . S
C3351 O3337 1.257 . S
C3352 Eu3288 2.787 . S
C3352 O3332 1.252 . S
C3352 O3335 1.268 . S
C3352 C3345 1.506 . S
C3353 C3320 1.439 . S
C3353 H3330 0.931 . S
C3353 C3354 1.374 . S
C3354 C3325 1.387 . S
C3354 H3331 0.931 . S
C3354 C3353 1.374 . S
C3355 O3339 1.249 . S
C3355 O3340 1.264 . S
C3356 C3359 1.382 . S
C3356 C3360 1.390 . S
C3356 C3363 1.506 . S
C3357 C3358 1.398 . S
C3357 C3360 1.392 . S
C3358 C3357 1.398 . S
C3358 C3361 1.372 . S
C3358 H3368 0.931 . S
C3359 C3356 1.382 . S
C3359 C3361 1.390 . S
C3359 H3369 0.931 . S
C3360 C3356 1.390 . S
C3360 C3357 1.392 . S
C3360 H3370 0.930 . S
C3361 C3358 1.372 . S
C3361 C3359 1.390 . S
C3361 H3371 0.929 . S
C3362 O3342 1.255 . S
C3362 O3343 1.257 . S
C3363 Eu3299 2.787 . S
C3363 O3338 1.252 . S
C3363 O3341 1.268 . S
C3363 C3356 1.506 . S
H3364 C3347 0.931 . S
H3365 C3348 0.931 . S
H3366 C3349 0.929 . S
H3367 C3350 0.930 . S
H3368 C3358 0.931 . S
H3369 C3359 0.931 . S
H3370 C3360 0.930 . S
H3371 C3361 0.929 . S
Eu3372 N3401 2.602 . S
Eu3372 N3407 2.566 . S
Eu3372 O3416 2.467 . S
Eu3372 O3417 2.369 1_655 S
Eu3372 O3419 2.436 . S
Eu3372 O3420 2.290 1_655 S
Eu3372 O3424 2.333 1_655 S
Eu3372 O3427 2.367 1_655 S
Eu3372 C3436 2.792 . S
C3373 N3374 1.365 . S
C3373 C3376 1.405 . S
C3373 C3380 1.448 1_556 S
N3374 C3373 1.365 . S
N3374 C3377 1.319 . S
N3374 Eu3383 2.600 1_556 S
C3375 C3377 1.397 . S
C3375 C3378 1.367 . S
C3375 H3395 0.931 . S
C3376 C3373 1.405 . S
C3376 C3378 1.403 . S
C3376 C3382 1.439 . S
C3377 N3374 1.319 . S
C3377 C3375 1.397 . S
C3377 H3388 0.930 . S
C3378 C3375 1.367 . S
C3378 C3376 1.403 . S
C3378 H3399 0.929 . S
C3379 C3380 1.430 . S
C3379 C3381 1.387 . S
C3379 C3385 1.404 . S
C3380 C3373 1.448 1_554 S
C3380 C3379 1.430 . S
C3380 N3384 1.351 . S
C3381 C3379 1.387 . S
C3381 C3382 1.374 1_554 S
C3381 H3396 0.931 . S
C3382 C3376 1.439 . S
C3382 C3381 1.374 1_556 S
C3382 H3397 0.931 . S
Eu3383 N3374 2.600 1_554 S
Eu3383 N3384 2.562 . S
Eu3383 O3418 2.335 . S
Eu3383 O3421 2.372 1_554 S
Eu3383 O3422 2.462 . S
Eu3383 O3423 2.373 . S
Eu3383 O3425 2.432 1_554 S
Eu3383 O3426 2.291 . S
Eu3383 C3447 2.787 . S
N3384 C3380 1.351 . S
N3384 Eu3383 2.562 . S
N3384 C3386 1.325 . S
C3385 C3379 1.404 . S
C3385 C3387 1.366 . S
C3385 H3393 0.930 . S
C3386 N3384 1.325 . S
C3386 C3387 1.416 . S
C3386 H3392 0.929 . S
C3387 C3385 1.366 . S
C3387 C3386 1.416 . S
C3387 H3389 0.930 . S
H3388 C3377 0.930 . S
H3389 C3387 0.930 . S
H3390 C3405 0.930 1_455 S
H3391 C3412 0.930 . S
H3392 C3386 0.929 . S
H3393 C3385 0.930 . S
H3394 C3408 0.929 1_556 S
H3395 C3375 0.931 . S
H3396 C3381 0.931 . S
H3397 C3382 0.931 . S
H3398 C3403 0.931 . S
H3399 C3378 0.929 . S
H3400 C3411 0.930 . S
N3401 Eu3372 2.602 . S
N3401 C3402 1.365 . S
N3401 C3405 1.319 . S
C3402 N3401 1.365 . S
C3402 C3404 1.405 . S
C3402 C3410 1.448 . S
C3403 H3398 0.931 . S
C3403 C3405 1.397 . S
C3403 C3406 1.367 . S
C3404 C3402 1.405 . S
C3404 C3406 1.403 . S
C3404 C3437 1.439 . S
C3405 H3390 0.930 1_655 S
C3405 N3401 1.319 . S
C3405 C3403 1.397 . S
C3406 C3403 1.367 . S
C3406 C3404 1.403 . S
C3406 H3413 0.929 . S
N3407 Eu3372 2.566 . S
N3407 C3408 1.325 . S
N3407 C3410 1.351 . S
C3408 H3394 0.929 1_554 S
C3408 N3407 1.325 . S
C3408 C3412 1.416 1_554 S
C3409 C3410 1.430 . S
C3409 C3411 1.404 . S
C3409 C3438 1.387 . S
C3410 C3402 1.448 . S
C3410 N3407 1.351 . S
C3410 C3409 1.430 . S
C3411 H3400 0.930 . S
C3411 C3409 1.404 . S
C3411 C3412 1.366 1_554 S
C3412 H3391 0.930 . S
C3412 C3408 1.416 1_556 S
C3412 C3411 1.366 1_556 S
H3413 C3406 0.929 . S
H3414 C3437 0.931 . S
H3415 C3438 0.931 . S
O3416 Eu3372 2.467 . S
O3416 C3436 1.252 . S
O3417 Eu3372 2.369 1_455 S
O3417 C3428 1.249 . S
O3418 Eu3383 2.335 . S
O3418 C3428 1.264 . S
O3419 Eu3372 2.436 . S
O3419 C3436 1.268 . S
O3420 Eu3372 2.290 1_455 S
O3420 C3435 1.255 1_554 S
O3421 Eu3383 2.372 1_556 S
O3421 C3435 1.257 . S
O3422 Eu3383 2.462 . S
O3422 C3447 1.252 . S
O3423 Eu3383 2.373 . S
O3423 C3439 1.249 . S
O3424 Eu3372 2.333 1_455 S
O3424 C3439 1.264 . S
O3425 Eu3383 2.432 1_556 S
O3425 C3447 1.268 1_556 S
O3426 Eu3383 2.291 . S
O3426 C3446 1.255 . S
O3427 Eu3372 2.367 1_455 S
O3427 C3446 1.257 . S
C3428 O3417 1.249 . S
C3428 O3418 1.264 . S
C3429 C3432 1.382 . S
C3429 C3434 1.390 . S
C3429 C3436 1.506 . S
C3430 C3431 1.398 . S
C3430 C3434 1.392 . S
C3431 C3430 1.398 . S
C3431 C3433 1.372 . S
C3431 H3448 0.931 . S
C3432 C3429 1.382 . S
C3432 C3433 1.390 . S
C3432 H3449 0.931 . S
C3433 C3431 1.372 . S
C3433 C3432 1.390 . S
C3433 H3450 0.929 . S
C3434 C3429 1.390 . S
C3434 C3430 1.392 . S
C3434 H3451 0.930 . S
C3435 O3420 1.255 1_556 S
C3435 O3421 1.257 . S
C3436 Eu3372 2.792 . S
C3436 O3416 1.252 . S
C3436 O3419 1.268 . S
C3436 C3429 1.506 . S
C3437 C3404 1.439 . S
C3437 H3414 0.931 . S
C3437 C3438 1.374 . S
C3438 C3409 1.387 . S
C3438 H3415 0.931 . S
C3438 C3437 1.374 . S
C3439 O3423 1.249 . S
C3439 O3424 1.264 . S
C3440 C3443 1.382 . S
C3440 C3444 1.390 1_556 S
C3440 C3447 1.506 1_556 S
C3441 C3442 1.398 1_554 S
C3441 C3444 1.392 . S
C3442 C3441 1.398 1_556 S
C3442 C3445 1.372 . S
C3442 H3452 0.931 . S
C3443 C3440 1.382 . S
C3443 C3445 1.390 . S
C3443 H3453 0.931 . S
C3444 C3440 1.390 1_554 S
C3444 C3441 1.392 . S
C3444 H3454 0.930 . S
C3445 C3442 1.372 . S
C3445 C3443 1.390 . S
C3445 H3455 0.929 . S
C3446 O3426 1.255 . S
C3446 O3427 1.257 . S
C3447 Eu3383 2.787 . S
C3447 O3422 1.252 . S
C3447 O3425 1.268 1_554 S
C3447 C3440 1.506 1_554 S
H3448 C3431 0.931 . S
H3449 C3432 0.931 . S
H3450 C3433 0.929 . S
H3451 C3434 0.930 . S
H3452 C3442 0.931 . S
H3453 C3443 0.931 . S
H3454 C3444 0.930 . S
H3455 C3445 0.929 . S
H3456 C3462 0.930 . S
H3457 C3466 0.930 . S
H3458 C3471 0.929 . S
H3459 C3469 0.917 1_655 S
H3460 C3464 0.929 . S
H3461 C3470 0.929 . S
C3462 H3456 0.930 . S
C3462 C3463 1.380 1_554 S
C3462 C3470 1.378 . S
C3463 C3462 1.380 1_556 S
C3463 C3471 1.413 1_655 S
C3464 H3460 0.929 . S
C3464 C3466 1.378 . S
C3464 C3468 1.350 . S
C3465 C3468 1.463 . S
C3465 C3470 1.350 1_455 S
C3465 N3473 1.408 1_554 S
C3466 H3457 0.930 . S
C3466 C3464 1.378 . S
C3466 C3467 1.367 . S
C3467 C3466 1.367 . S
C3467 C3469 1.452 . S
C3468 C3464 1.350 . S
C3468 C3465 1.463 . S
C3468 N3472 1.427 1_455 S
C3469 H3459 0.917 1_455 S
C3469 C3467 1.452 . S
C3469 N3472 1.377 1_455 S
C3470 H3461 0.929 . S
C3470 C3462 1.378 . S
C3470 C3465 1.350 1_655 S
C3471 H3458 0.929 . S
C3471 C3463 1.413 1_455 S
C3471 N3473 1.398 . S
N3472 C3468 1.427 1_655 S
N3472 C3469 1.377 1_655 S
N3473 C3465 1.408 1_556 S
N3473 C3471 1.398 . S
H3474 C3480 0.930 . S
H3475 C3484 0.930 . S
H3476 C3489 0.929 . S
H3477 C3487 0.929 . S
H3478 C3482 0.929 . S
H3479 C3488 0.929 . S
C3480 H3474 0.930 . S
C3480 C3481 1.367 . S
C3480 C3488 1.378 . S
C3481 C3480 1.367 . S
C3481 C3489 1.433 . S
C3482 H3478 0.929 . S
C3482 C3484 1.378 . S
C3482 C3486 1.350 . S
C3483 C3486 1.463 . S
C3483 C3488 1.350 . S
C3483 N3491 1.427 . S
C3484 H3475 0.930 . S
C3484 C3482 1.378 . S
C3484 C3485 1.367 . S
C3485 C3484 1.367 . S
C3485 C3487 1.433 . S
C3486 C3482 1.350 . S
C3486 C3483 1.463 . S
C3486 N3490 1.427 . S
C3487 H3477 0.929 . S
C3487 C3485 1.433 . S
C3487 N3490 1.384 . S
C3488 H3479 0.929 . S
C3488 C3480 1.378 . S
C3488 C3483 1.350 . S
C3489 H3476 0.929 . S
C3489 C3481 1.433 . S
C3489 N3491 1.384 . S
N3490 C3486 1.427 . S
N3490 C3487 1.384 . S
N3491 C3483 1.427 . S
N3491 C3489 1.384 . S
H3492 C3498 0.930 . S
H3493 C3502 0.930 . S
H3494 C3507 0.929 . S
H3495 C3505 0.929 . S
H3496 C3500 0.929 . S
H3497 C3506 0.929 . S
C3498 H3492 0.930 . S
C3498 C3499 1.367 . S
C3498 C3506 1.378 . S
C3499 C3498 1.367 . S
C3499 C3507 1.433 . S
C3500 H3496 0.929 . S
C3500 C3502 1.378 . S
C3500 C3504 1.350 . S
C3501 C3504 1.463 . S
C3501 C3506 1.350 . S
C3501 N3509 1.427 . S
C3502 H3493 0.930 . S
C3502 C3500 1.378 . S
C3502 C3503 1.367 . S
C3503 C3502 1.367 . S
C3503 C3505 1.433 . S
C3504 C3500 1.350 . S
C3504 C3501 1.463 . S
C3504 N3508 1.427 . S
C3505 H3495 0.929 . S
C3505 C3503 1.433 . S
C3505 N3508 1.384 . S
C3506 H3497 0.929 . S
C3506 C3498 1.378 . S
C3506 C3501 1.350 . S
C3507 H3494 0.929 . S
C3507 C3499 1.433 . S
C3507 N3509 1.384 . S
N3508 C3504 1.427 . S
N3508 C3505 1.384 . S
N3509 C3501 1.427 . S
N3509 C3507 1.384 . S
H3510 C3516 0.930 . S
H3511 C3520 0.930 . S
H3512 C3525 0.929 . S
H3513 C3523 0.929 . S
H3514 C3518 0.929 . S
H3515 C3524 0.929 . S
C3516 H3510 0.930 . S
C3516 C3517 1.367 . S
C3516 C3524 1.378 . S
C3517 C3516 1.367 . S
C3517 C3525 1.433 . S
C3518 H3514 0.929 . S
C3518 C3520 1.378 . S
C3518 C3522 1.350 . S
C3519 C3522 1.463 . S
C3519 C3524 1.350 . S
C3519 N3527 1.427 . S
C3520 H3511 0.930 . S
C3520 C3518 1.378 . S
C3520 C3521 1.367 . S
C3521 C3520 1.367 . S
C3521 C3523 1.433 . S
C3522 C3518 1.350 . S
C3522 C3519 1.463 . S
C3522 N3526 1.427 . S
C3523 H3513 0.929 . S
C3523 C3521 1.433 . S
C3523 N3526 1.384 . S
C3524 H3515 0.929 . S
C3524 C3516 1.378 . S
C3524 C3519 1.350 . S
C3525 H3512 0.929 . S
C3525 C3517 1.433 . S
C3525 N3527 1.384 . S
N3526 C3522 1.427 . S
N3526 C3523 1.384 . S
N3527 C3519 1.427 . S
N3527 C3525 1.384 . S
H3528 C3534 0.930 . S
H3529 C3538 0.930 . S
H3530 C3543 0.929 . S
H3531 C3541 0.929 . S
H3532 C3536 0.929 . S
H3533 C3542 0.929 . S
C3534 H3528 0.930 . S
C3534 C3535 1.367 . S
C3534 C3542 1.378 . S
C3535 C3534 1.367 . S
C3535 C3543 1.433 . S
C3536 H3532 0.929 . S
C3536 C3538 1.378 . S
C3536 C3540 1.350 . S
C3537 C3540 1.463 . S
C3537 C3542 1.350 . S
C3537 N3545 1.427 . S
C3538 H3529 0.930 . S
C3538 C3536 1.378 . S
C3538 C3539 1.367 . S
C3539 C3538 1.367 . S
C3539 C3541 1.433 . S
C3540 C3536 1.350 . S
C3540 C3537 1.463 . S
C3540 N3544 1.427 . S
C3541 H3531 0.929 . S
C3541 C3539 1.433 . S
C3541 N3544 1.384 . S
C3542 H3533 0.929 . S
C3542 C3534 1.378 . S
C3542 C3537 1.350 . S
C3543 H3530 0.929 . S
C3543 C3535 1.433 . S
C3543 N3545 1.384 . S
N3544 C3540 1.427 . S
N3544 C3541 1.384 . S
N3545 C3537 1.427 . S
N3545 C3543 1.384 . S
H3546 C3552 0.930 . S
H3547 C3556 0.930 . S
H3548 C3561 0.929 . S
H3549 C3559 0.929 . S
H3550 C3554 0.929 . S
H3551 C3560 0.929 . S
C3552 H3546 0.930 . S
C3552 C3553 1.367 . S
C3552 C3560 1.378 . S
C3553 C3552 1.367 . S
C3553 C3561 1.433 . S
C3554 H3550 0.929 . S
C3554 C3556 1.378 . S
C3554 C3558 1.350 . S
C3555 C3558 1.463 . S
C3555 C3560 1.350 . S
C3555 N3563 1.427 . S
C3556 H3547 0.930 . S
C3556 C3554 1.378 . S
C3556 C3557 1.367 . S
C3557 C3556 1.367 . S
C3557 C3559 1.433 . S
C3558 C3554 1.350 . S
C3558 C3555 1.463 . S
C3558 N3562 1.427 . S
C3559 H3549 0.929 . S
C3559 C3557 1.433 . S
C3559 N3562 1.384 . S
C3560 H3551 0.929 . S
C3560 C3552 1.378 . S
C3560 C3555 1.350 . S
C3561 H3548 0.929 . S
C3561 C3553 1.433 . S
C3561 N3563 1.384 . S
N3562 C3558 1.427 . S
N3562 C3559 1.384 . S
N3563 C3555 1.427 . S
N3563 C3561 1.384 . S
H3564 C3570 0.930 . S
H3565 C3574 0.930 . S
H3566 C3579 0.929 . S
H3567 C3577 0.929 . S
H3568 C3572 0.929 . S
H3569 C3578 0.929 . S
C3570 H3564 0.930 . S
C3570 C3571 1.367 . S
C3570 C3578 1.378 . S
C3571 C3570 1.367 . S
C3571 C3579 1.433 . S
C3572 H3568 0.929 . S
C3572 C3574 1.378 . S
C3572 C3576 1.350 . S
C3573 C3576 1.463 . S
C3573 C3578 1.350 . S
C3573 N3581 1.427 . S
C3574 H3565 0.930 . S
C3574 C3572 1.378 . S
C3574 C3575 1.367 . S
C3575 C3574 1.367 . S
C3575 C3577 1.433 . S
C3576 C3572 1.350 . S
C3576 C3573 1.463 . S
C3576 N3580 1.427 . S
C3577 H3567 0.929 . S
C3577 C3575 1.433 . S
C3577 N3580 1.384 . S
C3578 H3569 0.929 . S
C3578 C3570 1.378 . S
C3578 C3573 1.350 . S
C3579 H3566 0.929 . S
C3579 C3571 1.433 . S
C3579 N3581 1.384 . S
N3580 C3576 1.427 . S
N3580 C3577 1.384 . S
N3581 C3573 1.427 . S
N3581 C3579 1.384 . S
H3582 C3588 0.930 . S
H3583 C3592 0.930 . S
H3584 C3597 0.929 . S
H3585 C3595 0.929 . S
H3586 C3590 0.929 . S
H3587 C3596 0.929 . S
C3588 H3582 0.930 . S
C3588 C3589 1.367 . S
C3588 C3596 1.378 . S
C3589 C3588 1.367 . S
C3589 C3597 1.433 . S
C3590 H3586 0.929 . S
C3590 C3592 1.378 . S
C3590 C3594 1.350 . S
C3591 C3594 1.463 . S
C3591 C3596 1.350 . S
C3591 N3599 1.427 . S
C3592 H3583 0.930 . S
C3592 C3590 1.378 . S
C3592 C3593 1.367 . S
C3593 C3592 1.367 . S
C3593 C3595 1.433 . S
C3594 C3590 1.350 . S
C3594 C3591 1.463 . S
C3594 N3598 1.427 . S
C3595 H3585 0.929 . S
C3595 C3593 1.433 . S
C3595 N3598 1.384 . S
C3596 H3587 0.929 . S
C3596 C3588 1.378 . S
C3596 C3591 1.350 . S
C3597 H3584 0.929 . S
C3597 C3589 1.433 . S
C3597 N3599 1.384 . S
N3598 C3594 1.427 . S
N3598 C3595 1.384 . S
N3599 C3591 1.427 . S
N3599 C3597 1.384 . S
H3600 C3606 0.930 . S
H3601 C3610 0.930 . S
H3602 C3615 0.929 1_565 S
H3603 C3613 0.929 . S
H3604 C3608 0.888 1_565 S
H3605 C3614 0.929 . S
C3606 H3600 0.930 . S
C3606 C3607 1.367 . S
C3606 C3614 1.378 . S
C3607 C3606 1.367 . S
C3607 C3615 1.433 . S
C3608 H3604 0.888 1_545 S
C3608 C3610 1.378 . S
C3608 C3612 1.350 1_455 S
C3609 C3612 1.463 . S
C3609 C3614 1.350 . S
C3609 N3617 1.427 . S
C3610 H3601 0.930 . S
C3610 C3608 1.378 . S
C3610 C3611 1.367 . S
C3611 C3610 1.367 . S
C3611 C3613 1.433 1_455 S
C3612 C3608 1.350 1_655 S
C3612 C3609 1.463 . S
C3612 N3616 1.427 . S
C3613 H3603 0.929 . S
C3613 C3611 1.433 1_655 S
C3613 N3616 1.384 . S
C3614 H3605 0.929 . S
C3614 C3606 1.378 . S
C3614 C3609 1.350 . S
C3615 H3602 0.929 1_545 S
C3615 C3607 1.433 . S
C3615 N3617 1.384 . S
N3616 C3612 1.427 . S
N3616 C3613 1.384 . S
N3617 C3609 1.427 . S
N3617 C3615 1.384 . S
H3618 C3624 0.930 . S
H3619 C3628 0.930 . S
H3620 C3633 0.929 . S
H3621 C3631 0.929 . S
H3622 C3626 0.929 . S
H3623 C3632 0.929 . S
C3624 H3618 0.930 . S
C3624 C3625 1.367 . S
C3624 C3632 1.378 . S
C3625 C3624 1.367 . S
C3625 C3633 1.433 . S
C3626 H3622 0.929 . S
C3626 C3628 1.378 . S
C3626 C3630 1.350 . S
C3627 C3630 1.463 . S
C3627 C3632 1.350 . S
C3627 N3635 1.427 . S
C3628 H3619 0.930 . S
C3628 C3626 1.378 . S
C3628 C3629 1.367 . S
C3629 C3628 1.367 . S
C3629 C3631 1.433 . S
C3630 C3626 1.350 . S
C3630 C3627 1.463 . S
C3630 N3634 1.427 . S
C3631 H3621 0.929 . S
C3631 C3629 1.433 . S
C3631 N3634 1.384 . S
C3632 H3623 0.929 . S
C3632 C3624 1.378 . S
C3632 C3627 1.350 . S
C3633 H3620 0.929 . S
C3633 C3625 1.433 . S
C3633 N3635 1.384 . S
N3634 C3630 1.427 . S
N3634 C3631 1.384 . S
N3635 C3627 1.427 . S
N3635 C3633 1.384 . S
H3636 C3642 0.930 . S
H3637 C3646 0.930 . S
H3638 C3651 0.929 . S
H3639 C3649 0.929 1_565 S
H3640 C3644 0.929 . S
H3641 C3650 0.910 1_565 S
C3642 H3636 0.930 . S
C3642 C3643 1.367 . S
C3642 C3650 1.378 . S
C3643 C3642 1.367 . S
C3643 C3651 1.433 . S
C3644 H3640 0.929 . S
C3644 C3646 1.378 . S
C3644 C3648 1.350 . S
C3645 C3648 1.463 . S
C3645 C3650 1.350 . S
C3645 N3653 1.427 . S
C3646 H3637 0.930 . S
C3646 C3644 1.378 . S
C3646 C3647 1.367 . S
C3647 C3646 1.367 . S
C3647 C3649 1.433 . S
C3648 C3644 1.350 . S
C3648 C3645 1.463 . S
C3648 N3652 1.427 . S
C3649 H3639 0.929 1_545 S
C3649 C3647 1.433 . S
C3649 N3652 1.384 . S
C3650 H3641 0.910 1_545 S
C3650 C3642 1.378 . S
C3650 C3645 1.350 . S
C3651 H3638 0.929 . S
C3651 C3643 1.433 . S
C3651 N3653 1.384 . S
N3652 C3648 1.427 . S
N3652 C3649 1.384 . S
N3653 C3645 1.427 . S
N3653 C3651 1.384 . S
H3654 C3660 0.930 . S
H3655 C3664 0.930 . S
H3656 C3669 0.929 . S
H3657 C3667 0.929 . S
H3658 C3662 0.929 . S
H3659 C3668 0.929 . S
C3660 H3654 0.930 . S
C3660 C3661 1.367 . S
C3660 C3668 1.378 . S
C3661 C3660 1.367 . S
C3661 C3669 1.433 . S
C3662 H3658 0.929 . S
C3662 C3664 1.378 . S
C3662 C3666 1.350 . S
C3663 C3666 1.463 . S
C3663 C3668 1.350 . S
C3663 N3671 1.427 . S
C3664 H3655 0.930 . S
C3664 C3662 1.378 . S
C3664 C3665 1.367 . S
C3665 C3664 1.367 . S
C3665 C3667 1.433 . S
C3666 C3662 1.350 . S
C3666 C3663 1.463 . S
C3666 N3670 1.427 . S
C3667 H3657 0.929 . S
C3667 C3665 1.433 . S
C3667 N3670 1.384 . S
C3668 H3659 0.929 . S
C3668 C3660 1.378 . S
C3668 C3663 1.350 . S
C3669 H3656 0.929 . S
C3669 C3661 1.433 . S
C3669 N3671 1.384 . S
N3670 C3666 1.427 . S
N3670 C3667 1.384 . S
N3671 C3663 1.427 . S
N3671 C3669 1.384 . S
H3672 C3678 0.930 . S
H3673 C3682 0.930 1_565 S
H3674 C3687 0.913 1_565 S
H3675 C3685 0.926 1_655 S
H3676 C3680 0.929 1_565 S
H3677 C3686 0.929 . S
C3678 H3672 0.930 . S
C3678 C3679 1.367 . S
C3678 C3686 1.378 . S
C3679 C3678 1.367 . S
C3679 C3687 1.433 . S
C3680 H3676 0.929 1_545 S
C3680 C3682 1.378 . S
C3680 C3684 1.350 1_455 S
C3681 C3684 1.463 . S
C3681 C3686 1.350 . S
C3681 N3689 1.427 . S
C3682 H3673 0.930 1_545 S
C3682 C3680 1.378 . S
C3682 C3683 1.367 . S
C3683 C3682 1.367 . S
C3683 C3685 1.439 . S
C3684 C3680 1.350 1_655 S
C3684 C3681 1.463 . S
C3684 N3688 1.427 . S
C3685 H3675 0.926 1_455 S
C3685 C3683 1.439 . S
C3685 N3688 1.382 1_455 S
C3686 H3677 0.929 . S
C3686 C3678 1.378 . S
C3686 C3681 1.350 . S
C3687 H3674 0.913 1_545 S
C3687 C3679 1.433 . S
C3687 N3689 1.384 . S
N3688 C3684 1.427 . S
N3688 C3685 1.382 1_655 S
N3689 C3681 1.427 . S
N3689 C3687 1.384 . S
H3690 C3696 0.930 . S
H3691 C3700 0.930 . S
H3692 C3705 0.929 . S
H3693 C3703 0.929 . S
H3694 C3698 0.929 . S
H3695 C3704 0.929 . S
C3696 H3690 0.930 . S
C3696 C3697 1.367 . S
C3696 C3704 1.378 . S
C3697 C3696 1.367 . S
C3697 C3705 1.433 . S
C3698 H3694 0.929 . S
C3698 C3700 1.378 . S
C3698 C3702 1.350 . S
C3699 C3702 1.463 . S
C3699 C3704 1.350 . S
C3699 N3707 1.427 . S
C3700 H3691 0.930 . S
C3700 C3698 1.378 . S
C3700 C3701 1.367 . S
C3701 C3700 1.367 . S
C3701 C3703 1.433 . S
C3702 C3698 1.350 . S
C3702 C3699 1.463 . S
C3702 N3706 1.427 . S
C3703 H3693 0.929 . S
C3703 C3701 1.433 . S
C3703 N3706 1.384 . S
C3704 H3695 0.929 . S
C3704 C3696 1.378 . S
C3704 C3699 1.350 . S
C3705 H3692 0.929 . S
C3705 C3697 1.433 . S
C3705 N3707 1.384 . S
N3706 C3702 1.427 . S
N3706 C3703 1.384 . S
N3707 C3699 1.427 . S
N3707 C3705 1.384 . S
H3708 C3714 0.930 . S
H3709 C3718 0.930 . S
H3710 C3723 0.929 . S
H3711 C3721 0.929 . S
H3712 C3716 0.929 . S
H3713 C3722 0.929 . S
C3714 H3708 0.930 . S
C3714 C3715 1.367 . S
C3714 C3722 1.378 . S
C3715 C3714 1.367 . S
C3715 C3723 1.433 . S
C3716 H3712 0.929 . S
C3716 C3718 1.378 . S
C3716 C3720 1.350 . S
C3717 C3720 1.463 . S
C3717 C3722 1.350 . S
C3717 N3725 1.427 . S
C3718 H3709 0.930 . S
C3718 C3716 1.378 . S
C3718 C3719 1.367 . S
C3719 C3718 1.367 . S
C3719 C3721 1.433 . S
C3720 C3716 1.350 . S
C3720 C3717 1.463 . S
C3720 N3724 1.427 . S
C3721 H3711 0.929 . S
C3721 C3719 1.433 . S
C3721 N3724 1.384 . S
C3722 H3713 0.929 . S
C3722 C3714 1.378 . S
C3722 C3717 1.350 . S
C3723 H3710 0.929 . S
C3723 C3715 1.433 . S
C3723 N3725 1.384 . S
N3724 C3720 1.427 . S
N3724 C3721 1.384 . S
N3725 C3717 1.427 . S
N3725 C3723 1.384 . S
H3726 C3732 0.930 . S
H3727 C3736 0.930 . S
H3728 C3741 0.929 . S
H3729 C3739 0.929 . S
H3730 C3734 0.929 . S
H3731 C3740 0.929 . S
C3732 H3726 0.930 . S
C3732 C3733 1.367 . S
C3732 C3740 1.378 . S
C3733 C3732 1.367 . S
C3733 C3741 1.433 . S
C3734 H3730 0.929 . S
C3734 C3736 1.378 . S
C3734 C3738 1.350 . S
C3735 C3738 1.463 . S
C3735 C3740 1.350 . S
C3735 N3743 1.427 . S
C3736 H3727 0.930 . S
C3736 C3734 1.378 . S
C3736 C3737 1.367 . S
C3737 C3736 1.367 . S
C3737 C3739 1.433 . S
C3738 C3734 1.350 . S
C3738 C3735 1.463 . S
C3738 N3742 1.427 . S
C3739 H3729 0.929 . S
C3739 C3737 1.433 . S
C3739 N3742 1.384 . S
C3740 H3731 0.929 . S
C3740 C3732 1.378 . S
C3740 C3735 1.350 . S
C3741 H3728 0.929 . S
C3741 C3733 1.433 . S
C3741 N3743 1.384 . S
N3742 C3738 1.427 . S
N3742 C3739 1.384 . S
N3743 C3735 1.427 . S
N3743 C3741 1.384 . S
H3744 C3750 0.930 . S
H3745 C3754 0.930 1_546 S
H3746 C3759 0.929 . S
H3747 C3757 0.929 . S
H3748 C3752 0.929 1_556 S
H3749 C3758 0.929 . S
C3750 H3744 0.930 . S
C3750 C3751 1.388 . S
C3750 C3758 1.378 . S
C3751 C3750 1.388 . S
C3751 C3759 1.419 1_554 S
C3752 H3748 0.929 1_554 S
C3752 C3754 1.378 . S
C3752 C3756 1.350 . S
C3753 C3756 1.463 . S
C3753 C3758 1.350 . S
C3753 N3761 1.427 1_554 S
C3754 H3745 0.930 1_564 S
C3754 C3752 1.378 . S
C3754 C3755 1.367 . S
C3755 C3754 1.367 . S
C3755 C3757 1.433 . S
C3756 C3752 1.350 . S
C3756 C3753 1.463 . S
C3756 N3760 1.427 . S
C3757 H3747 0.929 . S
C3757 C3755 1.433 . S
C3757 N3760 1.384 . S
C3758 H3749 0.929 . S
C3758 C3750 1.378 . S
C3758 C3753 1.350 . S
C3759 H3746 0.929 . S
C3759 C3751 1.419 1_556 S
C3759 N3761 1.384 . S
N3760 C3756 1.427 . S
N3760 C3757 1.384 . S
N3761 C3753 1.427 1_556 S
N3761 C3759 1.384 . S
H3762 C3768 0.930 . S
H3763 C3772 0.930 . S
H3764 C3777 0.929 . S
H3765 C3775 0.929 . S
H3766 C3770 0.929 . S
H3767 C3776 0.929 . S
C3768 H3762 0.930 . S
C3768 C3769 1.367 1_556 S
C3768 C3776 1.378 . S
C3769 C3768 1.367 1_554 S
C3769 C3777 1.433 . S
C3770 H3766 0.929 . S
C3770 C3772 1.378 . S
C3770 C3774 1.350 . S
C3771 C3774 1.463 . S
C3771 C3776 1.350 1_554 S
C3771 N3779 1.427 . S
C3772 H3763 0.930 . S
C3772 C3770 1.378 . S
C3772 C3773 1.367 . S
C3773 C3772 1.367 . S
C3773 C3775 1.433 1_554 S
C3774 C3770 1.350 . S
C3774 C3771 1.463 . S
C3774 N3778 1.427 1_554 S
C3775 H3765 0.929 . S
C3775 C3773 1.433 1_556 S
C3775 N3778 1.384 . S
C3776 H3767 0.929 . S
C3776 C3768 1.378 . S
C3776 C3771 1.350 1_556 S
C3777 H3764 0.929 . S
C3777 C3769 1.433 . S
C3777 N3779 1.384 . S
N3778 C3774 1.427 1_556 S
N3778 C3775 1.384 . S
N3779 C3771 1.427 . S
N3779 C3777 1.384 . S
H3780 C3786 0.930 . S
H3781 C3790 0.930 . S
H3782 C3795 0.929 . S
H3783 C3793 0.929 . S
H3784 C3788 0.929 . S
H3785 C3794 0.929 . S
C3786 H3780 0.930 . S
C3786 C3787 1.367 . S
C3786 C3794 1.378 . S
C3787 C3786 1.367 . S
C3787 C3795 1.433 . S
C3788 H3784 0.929 . S
C3788 C3790 1.378 . S
C3788 C3792 1.350 . S
C3789 C3792 1.463 . S
C3789 C3794 1.350 . S
C3789 N3797 1.427 . S
C3790 H3781 0.930 . S
C3790 C3788 1.378 . S
C3790 C3791 1.367 . S
C3791 C3790 1.367 . S
C3791 C3793 1.433 . S
C3792 C3788 1.350 . S
C3792 C3789 1.463 . S
C3792 N3796 1.427 . S
C3793 H3783 0.929 . S
C3793 C3791 1.433 . S
C3793 N3796 1.384 . S
C3794 H3785 0.929 . S
C3794 C3786 1.378 . S
C3794 C3789 1.350 . S
C3795 H3782 0.929 . S
C3795 C3787 1.433 . S
C3795 N3797 1.384 . S
N3796 C3792 1.427 . S
N3796 C3793 1.384 . S
N3797 C3789 1.427 . S
N3797 C3795 1.384 . S
H3798 C3804 0.930 . S
H3799 C3808 0.930 . S
H3800 C3813 0.929 . S
H3801 C3811 0.929 . S
H3802 C3806 0.929 . S
H3803 C3812 0.929 . S
C3804 H3798 0.930 . S
C3804 C3805 1.367 . S
C3804 C3812 1.378 . S
C3805 C3804 1.367 . S
C3805 C3813 1.433 . S
C3806 H3802 0.929 . S
C3806 C3808 1.378 . S
C3806 C3810 1.350 . S
C3807 C3810 1.463 . S
C3807 C3812 1.350 . S
C3807 N3815 1.427 . S
C3808 H3799 0.930 . S
C3808 C3806 1.378 . S
C3808 C3809 1.367 . S
C3809 C3808 1.367 . S
C3809 C3811 1.433 . S
C3810 C3806 1.350 . S
C3810 C3807 1.463 . S
C3810 N3814 1.427 . S
C3811 H3801 0.929 . S
C3811 C3809 1.433 . S
C3811 N3814 1.384 . S
C3812 H3803 0.929 . S
C3812 C3804 1.378 . S
C3812 C3807 1.350 . S
C3813 H3800 0.929 . S
C3813 C3805 1.433 . S
C3813 N3815 1.384 . S
N3814 C3810 1.427 . S
N3814 C3811 1.384 . S
N3815 C3807 1.427 . S
N3815 C3813 1.384 . S
H3816 C3822 0.930 . S
H3817 C3826 0.930 . S
H3818 C3831 0.929 . S
H3819 C3829 0.929 . S
H3820 C3824 0.929 . S
H3821 C3830 0.929 . S
C3822 H3816 0.930 . S
C3822 C3823 1.367 . S
C3822 C3830 1.378 . S
C3823 C3822 1.367 . S
C3823 C3831 1.433 . S
C3824 H3820 0.929 . S
C3824 C3826 1.378 . S
C3824 C3828 1.350 . S
C3825 C3828 1.463 . S
C3825 C3830 1.350 . S
C3825 N3833 1.427 . S
C3826 H3817 0.930 . S
C3826 C3824 1.378 . S
C3826 C3827 1.367 . S
C3827 C3826 1.367 . S
C3827 C3829 1.433 . S
C3828 C3824 1.350 . S
C3828 C3825 1.463 . S
C3828 N3832 1.427 . S
C3829 H3819 0.929 . S
C3829 C3827 1.433 . S
C3829 N3832 1.384 . S
C3830 H3821 0.929 . S
C3830 C3822 1.378 . S
C3830 C3825 1.350 . S
C3831 H3818 0.929 . S
C3831 C3823 1.433 . S
C3831 N3833 1.384 . S
N3832 C3828 1.427 . S
N3832 C3829 1.384 . S
N3833 C3825 1.427 . S
N3833 C3831 1.384 . S
H3834 C3840 0.930 . S
H3835 C3844 0.930 . S
H3836 C3849 0.929 . S
H3837 C3847 0.929 . S
H3838 C3842 0.929 . S
H3839 C3848 0.929 . S
C3840 H3834 0.930 . S
C3840 C3841 1.367 . S
C3840 C3848 1.378 . S
C3841 C3840 1.367 . S
C3841 C3849 1.433 . S
C3842 H3838 0.929 . S
C3842 C3844 1.378 . S
C3842 C3846 1.350 . S
C3843 C3846 1.463 . S
C3843 C3848 1.350 . S
C3843 N3851 1.427 . S
C3844 H3835 0.930 . S
C3844 C3842 1.378 . S
C3844 C3845 1.367 . S
C3845 C3844 1.367 . S
C3845 C3847 1.433 . S
C3846 C3842 1.350 . S
C3846 C3843 1.463 . S
C3846 N3850 1.427 . S
C3847 H3837 0.929 . S
C3847 C3845 1.433 . S
C3847 N3850 1.384 . S
C3848 H3839 0.929 . S
C3848 C3840 1.378 . S
C3848 C3843 1.350 . S
C3849 H3836 0.929 . S
C3849 C3841 1.433 . S
C3849 N3851 1.384 . S
N3850 C3846 1.427 . S
N3850 C3847 1.384 . S
N3851 C3843 1.427 . S
N3851 C3849 1.384 . S
H3852 C3858 0.930 . S
H3853 C3862 0.930 . S
H3854 C3867 0.929 . S
H3855 C3865 0.929 . S
H3856 C3860 0.929 . S
H3857 C3866 0.929 . S
C3858 H3852 0.930 . S
C3858 C3859 1.367 . S
C3858 C3866 1.378 . S
C3859 C3858 1.367 . S
C3859 C3867 1.433 . S
C3860 H3856 0.929 . S
C3860 C3862 1.378 . S
C3860 C3864 1.350 . S
C3861 C3864 1.463 . S
C3861 C3866 1.350 . S
C3861 N3869 1.427 . S
C3862 H3853 0.930 . S
C3862 C3860 1.378 . S
C3862 C3863 1.367 . S
C3863 C3862 1.367 . S
C3863 C3865 1.433 . S
C3864 C3860 1.350 . S
C3864 C3861 1.463 . S
C3864 N3868 1.427 . S
C3865 H3855 0.929 . S
C3865 C3863 1.433 . S
C3865 N3868 1.384 . S
C3866 H3857 0.929 . S
C3866 C3858 1.378 . S
C3866 C3861 1.350 . S
C3867 H3854 0.929 . S
C3867 C3859 1.433 . S
C3867 N3869 1.384 . S
N3868 C3864 1.427 . S
N3868 C3865 1.384 . S
N3869 C3861 1.427 . S
N3869 C3867 1.384 . S
H3870 C3876 0.930 . S
H3871 C3880 0.930 . S
H3872 C3885 0.929 . S
H3873 C3883 0.929 . S
H3874 C3878 0.929 . S
H3875 C3884 0.929 . S
C3876 H3870 0.930 . S
C3876 C3877 1.367 . S
C3876 C3884 1.378 . S
C3877 C3876 1.367 . S
C3877 C3885 1.433 . S
C3878 H3874 0.929 . S
C3878 C3880 1.378 . S
C3878 C3882 1.350 . S
C3879 C3882 1.463 . S
C3879 C3884 1.350 . S
C3879 N3887 1.427 . S
C3880 H3871 0.930 . S
C3880 C3878 1.378 . S
C3880 C3881 1.367 . S
C3881 C3880 1.367 . S
C3881 C3883 1.433 . S
C3882 C3878 1.350 . S
C3882 C3879 1.463 . S
C3882 N3886 1.427 . S
C3883 H3873 0.929 . S
C3883 C3881 1.433 . S
C3883 N3886 1.384 . S
C3884 H3875 0.929 . S
C3884 C3876 1.378 . S
C3884 C3879 1.350 . S
C3885 H3872 0.929 . S
C3885 C3877 1.433 . S
C3885 N3887 1.384 . S
N3886 C3882 1.427 . S
N3886 C3883 1.384 . S
N3887 C3879 1.427 . S
N3887 C3885 1.384 . S
H3888 C3894 0.930 . S
H3889 C3898 0.930 . S
H3890 C3903 0.929 . S
H3891 C3901 0.929 . S
H3892 C3896 0.929 . S
H3893 C3902 0.929 . S
C3894 H3888 0.930 . S
C3894 C3895 1.367 . S
C3894 C3902 1.378 . S
C3895 C3894 1.367 . S
C3895 C3903 1.433 . S
C3896 H3892 0.929 . S
C3896 C3898 1.378 . S
C3896 C3900 1.350 . S
C3897 C3900 1.463 . S
C3897 C3902 1.350 . S
C3897 N3905 1.427 . S
C3898 H3889 0.930 . S
C3898 C3896 1.378 . S
C3898 C3899 1.367 . S
C3899 C3898 1.367 . S
C3899 C3901 1.433 . S
C3900 C3896 1.350 . S
C3900 C3897 1.463 . S
C3900 N3904 1.427 . S
C3901 H3891 0.929 . S
C3901 C3899 1.433 . S
C3901 N3904 1.384 . S
C3902 H3893 0.929 . S
C3902 C3894 1.378 . S
C3902 C3897 1.350 . S
C3903 H3890 0.929 . S
C3903 C3895 1.433 . S
C3903 N3905 1.384 . S
N3904 C3900 1.427 . S
N3904 C3901 1.384 . S
N3905 C3897 1.427 . S
N3905 C3903 1.384 . S
H3906 C3912 0.930 . S
H3907 C3916 0.930 . S
H3908 C3921 0.929 . S
H3909 C3919 0.929 . S
H3910 C3914 0.929 . S
H3911 C3920 0.929 . S
C3912 H3906 0.930 . S
C3912 C3913 1.367 . S
C3912 C3920 1.378 . S
C3913 C3912 1.367 . S
C3913 C3921 1.433 . S
C3914 H3910 0.929 . S
C3914 C3916 1.378 . S
C3914 C3918 1.350 . S
C3915 C3918 1.463 . S
C3915 C3920 1.350 . S
C3915 N3923 1.427 . S
C3916 H3907 0.930 . S
C3916 C3914 1.378 . S
C3916 C3917 1.367 . S
C3917 C3916 1.367 . S
C3917 C3919 1.433 . S
C3918 C3914 1.350 . S
C3918 C3915 1.463 . S
C3918 N3922 1.427 . S
C3919 H3909 0.929 . S
C3919 C3917 1.433 . S
C3919 N3922 1.384 . S
C3920 H3911 0.929 . S
C3920 C3912 1.378 . S
C3920 C3915 1.350 . S
C3921 H3908 0.929 . S
C3921 C3913 1.433 . S
C3921 N3923 1.384 . S
N3922 C3918 1.427 . S
N3922 C3919 1.384 . S
N3923 C3915 1.427 . S
N3923 C3921 1.384 . S
H3924 C3930 0.930 . S
H3925 C3934 0.930 . S
H3926 C3939 0.929 . S
H3927 C3937 0.929 . S
H3928 C3932 0.929 . S
H3929 C3938 0.929 . S
C3930 H3924 0.930 . S
C3930 C3931 1.367 . S
C3930 C3938 1.378 . S
C3931 C3930 1.367 . S
C3931 C3939 1.433 . S
C3932 H3928 0.929 . S
C3932 C3934 1.378 . S
C3932 C3936 1.350 . S
C3933 C3936 1.463 . S
C3933 C3938 1.350 . S
C3933 N3941 1.427 . S
C3934 H3925 0.930 . S
C3934 C3932 1.378 . S
C3934 C3935 1.367 . S
C3935 C3934 1.367 . S
C3935 C3937 1.433 . S
C3936 C3932 1.350 . S
C3936 C3933 1.463 . S
C3936 N3940 1.427 . S
C3937 H3927 0.929 . S
C3937 C3935 1.433 . S
C3937 N3940 1.384 . S
C3938 H3929 0.929 . S
C3938 C3930 1.378 . S
C3938 C3933 1.350 . S
C3939 H3926 0.929 . S
C3939 C3931 1.433 . S
C3939 N3941 1.384 . S
N3940 C3936 1.427 . S
N3940 C3937 1.384 . S
N3941 C3933 1.427 . S
N3941 C3939 1.384 . S
H3942 C3948 0.930 . S
H3943 C3952 0.930 . S
H3944 C3957 0.929 . S
H3945 C3955 0.929 . S
H3946 C3950 0.929 . S
H3947 C3956 0.929 . S
C3948 H3942 0.930 . S
C3948 C3949 1.367 . S
C3948 C3956 1.378 . S
C3949 C3948 1.367 . S
C3949 C3957 1.433 . S
C3950 H3946 0.929 . S
C3950 C3952 1.378 . S
C3950 C3954 1.350 . S
C3951 C3954 1.463 . S
C3951 C3956 1.350 . S
C3951 N3959 1.427 . S
C3952 H3943 0.930 . S
C3952 C3950 1.378 . S
C3952 C3953 1.367 . S
C3953 C3952 1.367 . S
C3953 C3955 1.433 . S
C3954 C3950 1.350 . S
C3954 C3951 1.463 . S
C3954 N3958 1.427 . S
C3955 H3945 0.929 . S
C3955 C3953 1.433 . S
C3955 N3958 1.384 . S
C3956 H3947 0.929 . S
C3956 C3948 1.378 . S
C3956 C3951 1.350 . S
C3957 H3944 0.929 . S
C3957 C3949 1.433 . S
C3957 N3959 1.384 . S
N3958 C3954 1.427 . S
N3958 C3955 1.384 . S
N3959 C3951 1.427 . S
N3959 C3957 1.384 . S
H3960 C3966 0.930 . S
H3961 C3970 0.930 . S
H3962 C3975 0.929 . S
H3963 C3973 0.929 . S
H3964 C3968 0.929 . S
H3965 C3974 0.929 . S
C3966 H3960 0.930 . S
C3966 C3967 1.367 . S
C3966 C3974 1.378 . S
C3967 C3966 1.367 . S
C3967 C3975 1.433 . S
C3968 H3964 0.929 . S
C3968 C3970 1.378 . S
C3968 C3972 1.350 . S
C3969 C3972 1.463 . S
C3969 C3974 1.350 . S
C3969 N3977 1.427 . S
C3970 H3961 0.930 . S
C3970 C3968 1.378 . S
C3970 C3971 1.367 . S
C3971 C3970 1.367 . S
C3971 C3973 1.433 . S
C3972 C3968 1.350 . S
C3972 C3969 1.463 . S
C3972 N3976 1.427 . S
C3973 H3963 0.929 . S
C3973 C3971 1.433 . S
C3973 N3976 1.384 . S
C3974 H3965 0.929 . S
C3974 C3966 1.378 . S
C3974 C3969 1.350 . S
C3975 H3962 0.929 . S
C3975 C3967 1.433 . S
C3975 N3977 1.384 . S
N3976 C3972 1.427 . S
N3976 C3973 1.384 . S
N3977 C3969 1.427 . S
N3977 C3975 1.384 . S
H3978 C3984 0.930 . S
H3979 C3988 0.930 . S
H3980 C3993 0.929 . S
H3981 C3991 0.929 . S
H3982 C3986 0.929 . S
H3983 C3992 0.929 . S
C3984 H3978 0.930 . S
C3984 C3985 1.367 . S
C3984 C3992 1.378 . S
C3985 C3984 1.367 . S
C3985 C3993 1.433 . S
C3986 H3982 0.929 . S
C3986 C3988 1.378 . S
C3986 C3990 1.350 . S
C3987 C3990 1.463 . S
C3987 C3992 1.350 . S
C3987 N3995 1.427 . S
C3988 H3979 0.930 . S
C3988 C3986 1.378 . S
C3988 C3989 1.367 . S
C3989 C3988 1.367 . S
C3989 C3991 1.433 . S
C3990 C3986 1.350 . S
C3990 C3987 1.463 . S
C3990 N3994 1.427 . S
C3991 H3981 0.929 . S
C3991 C3989 1.433 . S
C3991 N3994 1.384 . S
C3992 H3983 0.929 . S
C3992 C3984 1.378 . S
C3992 C3987 1.350 . S
C3993 H3980 0.929 . S
C3993 C3985 1.433 . S
C3993 N3995 1.384 . S
N3994 C3990 1.427 . S
N3994 C3991 1.384 . S
N3995 C3987 1.427 . S
N3995 C3993 1.384 . S
H3996 C4002 0.930 . S
H3997 C4006 0.930 . S
H3998 C4011 0.929 . S
H3999 C4009 0.929 1_554 S
H4000 C4004 0.929 . S
H4001 C4010 0.929 . S
C4002 H3996 0.930 . S
C4002 C4003 1.367 . S
C4002 C4010 1.378 . S
C4003 C4002 1.367 . S
C4003 C4011 1.433 . S
C4004 H4000 0.929 . S
C4004 C4006 1.378 . S
C4004 C4008 1.350 . S
C4005 C4008 1.463 . S
C4005 C4010 1.350 . S
C4005 N4013 1.427 . S
C4006 H3997 0.930 . S
C4006 C4004 1.378 . S
C4006 C4007 1.367 . S
C4007 C4006 1.367 . S
C4007 C4009 1.433 . S
C4008 C4004 1.350 . S
C4008 C4005 1.463 . S
C4008 N4012 1.427 . S
C4009 H3999 0.929 1_556 S
C4009 C4007 1.433 . S
C4009 N4012 1.384 . S
C4010 H4001 0.929 . S
C4010 C4002 1.378 . S
C4010 C4005 1.350 . S
C4011 H3998 0.929 . S
C4011 C4003 1.433 . S
C4011 N4013 1.384 . S
N4012 C4008 1.427 . S
N4012 C4009 1.384 . S
N4013 C4005 1.427 . S
N4013 C4011 1.384 . S
H4014 C4020 0.930 . S
H4015 C4024 0.930 . S
H4016 C4029 0.929 . S
H4017 C4027 0.929 . S
H4018 C4022 0.929 . S
H4019 C4028 0.929 . S
C4020 H4014 0.930 . S
C4020 C4021 1.367 . S
C4020 C4028 1.378 . S
C4021 C4020 1.367 . S
C4021 C4029 1.433 . S
C4022 H4018 0.929 . S
C4022 C4024 1.378 . S
C4022 C4026 1.350 . S
C4023 C4026 1.463 . S
C4023 C4028 1.350 . S
C4023 N4031 1.427 . S
C4024 H4015 0.930 . S
C4024 C4022 1.378 . S
C4024 C4025 1.367 . S
C4025 C4024 1.367 . S
C4025 C4027 1.433 . S
C4026 C4022 1.350 . S
C4026 C4023 1.463 . S
C4026 N4030 1.427 . S
C4027 H4017 0.929 . S
C4027 C4025 1.433 . S
C4027 N4030 1.384 . S
C4028 H4019 0.929 . S
C4028 C4020 1.378 . S
C4028 C4023 1.350 . S
C4029 H4016 0.929 . S
C4029 C4021 1.433 . S
C4029 N4031 1.384 . S
N4030 C4026 1.427 . S
N4030 C4027 1.384 . S
N4031 C4023 1.427 . S
N4031 C4029 1.384 . S
H4032 C4038 0.930 . S
H4033 C4042 0.930 1_565 S
H4034 C4047 0.929 . S
H4035 C4045 0.929 . S
H4036 C4040 0.929 1_565 S
H4037 C4046 0.929 . S
C4038 H4032 0.930 . S
C4038 C4039 1.367 . S
C4038 C4046 1.378 . S
C4039 C4038 1.367 . S
C4039 C4047 1.433 . S
C4040 H4036 0.929 1_545 S
C4040 C4042 1.378 . S
C4040 C4044 1.350 . S
C4041 C4044 1.463 . S
C4041 C4046 1.350 . S
C4041 N4049 1.427 . S
C4042 H4033 0.930 1_545 S
C4042 C4040 1.378 . S
C4042 C4043 1.367 . S
C4043 C4042 1.367 . S
C4043 C4045 1.433 . S
C4044 C4040 1.350 . S
C4044 C4041 1.463 . S
C4044 N4048 1.427 . S
C4045 H4035 0.929 . S
C4045 C4043 1.433 . S
C4045 N4048 1.384 . S
C4046 H4037 0.929 . S
C4046 C4038 1.378 . S
C4046 C4041 1.350 . S
C4047 H4034 0.929 . S
C4047 C4039 1.433 . S
C4047 N4049 1.384 . S
N4048 C4044 1.427 . S
N4048 C4045 1.384 . S
N4049 C4041 1.427 . S
N4049 C4047 1.384 . S
H4050 C4056 0.930 . S
H4051 C4060 0.930 . S
H4052 C4065 0.929 . S
H4053 C4063 0.929 . S
H4054 C4058 0.929 . S
H4055 C4064 0.929 . S
C4056 H4050 0.930 . S
C4056 C4057 1.367 . S
C4056 C4064 1.378 . S
C4057 C4056 1.367 . S
C4057 C4065 1.433 . S
C4058 H4054 0.929 . S
C4058 C4060 1.378 . S
C4058 C4062 1.350 . S
C4059 C4062 1.463 . S
C4059 C4064 1.350 . S
C4059 N4067 1.427 . S
C4060 H4051 0.930 . S
C4060 C4058 1.378 . S
C4060 C4061 1.367 . S
C4061 C4060 1.367 . S
C4061 C4063 1.433 . S
C4062 C4058 1.350 . S
C4062 C4059 1.463 . S
C4062 N4066 1.427 . S
C4063 H4053 0.929 . S
C4063 C4061 1.433 . S
C4063 N4066 1.384 . S
C4064 H4055 0.929 . S
C4064 C4056 1.378 . S
C4064 C4059 1.350 . S
C4065 H4052 0.929 . S
C4065 C4057 1.433 . S
C4065 N4067 1.384 . S
N4066 C4062 1.427 . S
N4066 C4063 1.384 . S
N4067 C4059 1.427 . S
N4067 C4065 1.384 . S
H4068 C4074 0.930 . S
H4069 C4078 0.930 . S
H4070 C4083 0.929 . S
H4071 C4081 0.929 . S
H4072 C4076 0.929 . S
H4073 C4082 0.929 . S
C4074 H4068 0.930 . S
C4074 C4075 1.367 . S
C4074 C4082 1.378 . S
C4075 C4074 1.367 . S
C4075 C4083 1.433 . S
C4076 H4072 0.929 . S
C4076 C4078 1.378 . S
C4076 C4080 1.350 . S
C4077 C4080 1.463 . S
C4077 C4082 1.350 . S
C4077 N4085 1.427 . S
C4078 H4069 0.930 . S
C4078 C4076 1.378 . S
C4078 C4079 1.367 . S
C4079 C4078 1.367 . S
C4079 C4081 1.433 . S
C4080 C4076 1.350 . S
C4080 C4077 1.463 . S
C4080 N4084 1.427 . S
C4081 H4071 0.929 . S
C4081 C4079 1.433 . S
C4081 N4084 1.384 . S
C4082 H4073 0.929 . S
C4082 C4074 1.378 . S
C4082 C4077 1.350 . S
C4083 H4070 0.929 . S
C4083 C4075 1.433 . S
C4083 N4085 1.384 . S
N4084 C4080 1.427 . S
N4084 C4081 1.384 . S
N4085 C4077 1.427 . S
N4085 C4083 1.384 . S
H4086 C4092 0.930 . S
H4087 C4096 0.930 . S
H4088 C4101 0.929 . S
H4089 C4099 0.929 . S
H4090 C4094 0.929 . S
H4091 C4100 0.929 . S
C4092 H4086 0.930 . S
C4092 C4093 1.367 . S
C4092 C4100 1.378 . S
C4093 C4092 1.367 . S
C4093 C4101 1.433 . S
C4094 H4090 0.929 . S
C4094 C4096 1.378 . S
C4094 C4098 1.350 . S
C4095 C4098 1.463 . S
C4095 C4100 1.350 . S
C4095 N4103 1.427 . S
C4096 H4087 0.930 . S
C4096 C4094 1.378 . S
C4096 C4097 1.367 . S
C4097 C4096 1.367 . S
C4097 C4099 1.433 . S
C4098 C4094 1.350 . S
C4098 C4095 1.463 . S
C4098 N4102 1.427 . S
C4099 H4089 0.929 . S
C4099 C4097 1.433 . S
C4099 N4102 1.384 . S
C4100 H4091 0.929 . S
C4100 C4092 1.378 . S
C4100 C4095 1.350 . S
C4101 H4088 0.929 . S
C4101 C4093 1.433 . S
C4101 N4103 1.384 . S
N4102 C4098 1.427 . S
N4102 C4099 1.384 . S
N4103 C4095 1.427 . S
N4103 C4101 1.384 . S
H4104 C4110 0.930 . S
H4105 C4114 0.930 1_565 S
H4106 C4119 0.929 1_565 S
H4107 C4117 0.929 . S
H4108 C4112 0.929 1_565 S
H4109 C4118 0.929 . S
C4110 H4104 0.930 . S
C4110 C4111 1.367 . S
C4110 C4118 1.378 . S
C4111 C4110 1.367 . S
C4111 C4119 1.433 . S
C4112 H4108 0.929 1_545 S
C4112 C4114 1.378 . S
C4112 C4116 1.350 . S
C4113 C4116 1.463 . S
C4113 C4118 1.350 . S
C4113 N4121 1.427 . S
C4114 H4105 0.930 1_545 S
C4114 C4112 1.378 . S
C4114 C4115 1.367 . S
C4115 C4114 1.367 . S
C4115 C4117 1.433 . S
C4116 C4112 1.350 . S
C4116 C4113 1.463 . S
C4116 N4120 1.427 . S
C4117 H4107 0.929 . S
C4117 C4115 1.433 . S
C4117 N4120 1.384 . S
C4118 H4109 0.929 . S
C4118 C4110 1.378 . S
C4118 C4113 1.350 . S
C4119 H4106 0.929 1_545 S
C4119 C4111 1.433 . S
C4119 N4121 1.384 . S
N4120 C4116 1.427 . S
N4120 C4117 1.384 . S
N4121 C4113 1.427 . S
N4121 C4119 1.384 . S
H4122 C4128 0.930 . S
H4123 C4132 0.930 . S
H4124 C4137 0.929 . S
H4125 C4135 0.929 . S
H4126 C4130 0.929 . S
H4127 C4136 0.929 . S
C4128 H4122 0.930 . S
C4128 C4129 1.367 . S
C4128 C4136 1.378 . S
C4129 C4128 1.367 . S
C4129 C4137 1.433 . S
C4130 H4126 0.929 . S
C4130 C4132 1.378 . S
C4130 C4134 1.350 . S
C4131 C4134 1.463 . S
C4131 C4136 1.350 . S
C4131 N4139 1.427 . S
C4132 H4123 0.930 . S
C4132 C4130 1.378 . S
C4132 C4133 1.367 . S
C4133 C4132 1.367 . S
C4133 C4135 1.433 . S
C4134 C4130 1.350 . S
C4134 C4131 1.463 . S
C4134 N4138 1.427 . S
C4135 H4125 0.929 . S
C4135 C4133 1.433 . S
C4135 N4138 1.384 . S
C4136 H4127 0.929 . S
C4136 C4128 1.378 . S
C4136 C4131 1.350 . S
C4137 H4124 0.929 . S
C4137 C4129 1.433 . S
C4137 N4139 1.384 . S
N4138 C4134 1.427 . S
N4138 C4135 1.384 . S
N4139 C4131 1.427 . S
N4139 C4137 1.384 . S
H4140 C4146 0.930 . S
H4141 C4150 0.930 . S
H4142 C4155 0.929 . S
H4143 C4153 0.929 . S
H4144 C4148 0.929 . S
H4145 C4154 0.929 . S
C4146 H4140 0.930 . S
C4146 C4147 1.367 . S
C4146 C4154 1.378 . S
C4147 C4146 1.367 . S
C4147 C4155 1.433 1_545 S
C4148 H4144 0.929 . S
C4148 C4150 1.378 . S
C4148 C4152 1.350 1_565 S
C4149 C4152 1.463 . S
C4149 C4154 1.350 . S
C4149 N4157 1.427 1_545 S
C4150 H4141 0.930 . S
C4150 C4148 1.378 . S
C4150 C4151 1.367 1_565 S
C4151 C4150 1.367 1_545 S
C4151 C4153 1.433 . S
C4152 C4148 1.350 1_545 S
C4152 C4149 1.463 . S
C4152 N4156 1.427 . S
C4153 H4143 0.929 . S
C4153 C4151 1.433 . S
C4153 N4156 1.384 . S
C4154 H4145 0.929 . S
C4154 C4146 1.378 . S
C4154 C4149 1.350 . S
C4155 H4142 0.929 . S
C4155 C4147 1.433 1_565 S
C4155 N4157 1.384 . S
N4156 C4152 1.427 . S
N4156 C4153 1.384 . S
N4157 C4149 1.427 1_565 S
N4157 C4155 1.384 . S
H4158 C4164 0.930 . S
H4159 C4168 0.930 . S
H4160 C4173 0.929 . S
H4161 C4171 0.929 . S
H4162 C4166 0.929 . S
H4163 C4172 0.929 . S
C4164 H4158 0.930 . S
C4164 C4165 1.367 . S
C4164 C4172 1.378 . S
C4165 C4164 1.367 . S
C4165 C4173 1.433 . S
C4166 H4162 0.929 . S
C4166 C4168 1.378 . S
C4166 C4170 1.350 . S
C4167 C4170 1.463 . S
C4167 C4172 1.350 . S
C4167 N4175 1.427 . S
C4168 H4159 0.930 . S
C4168 C4166 1.378 . S
C4168 C4169 1.367 . S
C4169 C4168 1.367 . S
C4169 C4171 1.433 . S
C4170 C4166 1.350 . S
C4170 C4167 1.463 . S
C4170 N4174 1.427 . S
C4171 H4161 0.929 . S
C4171 C4169 1.433 . S
C4171 N4174 1.384 . S
C4172 H4163 0.929 . S
C4172 C4164 1.378 . S
C4172 C4167 1.350 . S
C4173 H4160 0.929 . S
C4173 C4165 1.433 . S
C4173 N4175 1.384 . S
N4174 C4170 1.427 . S
N4174 C4171 1.384 . S
N4175 C4167 1.427 . S
N4175 C4173 1.384 . S
H4176 C4182 0.930 . S
H4177 C4186 0.930 . S
H4178 C4191 0.929 . S
H4179 C4189 0.929 . S
H4180 C4184 0.929 . S
H4181 C4190 0.929 . S
C4182 H4176 0.930 . S
C4182 C4183 1.367 . S
C4182 C4190 1.378 . S
C4183 C4182 1.367 . S
C4183 C4191 1.433 . S
C4184 H4180 0.929 . S
C4184 C4186 1.378 . S
C4184 C4188 1.350 . S
C4185 C4188 1.463 . S
C4185 C4190 1.350 . S
C4185 N4193 1.427 . S
C4186 H4177 0.930 . S
C4186 C4184 1.378 . S
C4186 C4187 1.367 . S
C4187 C4186 1.367 . S
C4187 C4189 1.433 . S
C4188 C4184 1.350 . S
C4188 C4185 1.463 . S
C4188 N4192 1.427 . S
C4189 H4179 0.929 . S
C4189 C4187 1.433 . S
C4189 N4192 1.384 . S
C4190 H4181 0.929 . S
C4190 C4182 1.378 . S
C4190 C4185 1.350 . S
C4191 H4178 0.929 . S
C4191 C4183 1.433 . S
C4191 N4193 1.384 . S
N4192 C4188 1.427 . S
N4192 C4189 1.384 . S
N4193 C4185 1.427 . S
N4193 C4191 1.384 . S
H4194 C4200 0.930 . S
H4195 C4204 0.930 . S
H4196 C4209 0.929 . S
H4197 C4207 0.929 . S
H4198 C4202 0.929 . S
H4199 C4208 0.929 . S
C4200 H4194 0.930 . S
C4200 C4201 1.367 . S
C4200 C4208 1.378 . S
C4201 C4200 1.367 . S
C4201 C4209 1.433 . S
C4202 H4198 0.929 . S
C4202 C4204 1.378 . S
C4202 C4206 1.350 . S
C4203 C4206 1.463 . S
C4203 C4208 1.350 . S
C4203 N4211 1.427 . S
C4204 H4195 0.930 . S
C4204 C4202 1.378 . S
C4204 C4205 1.367 . S
C4205 C4204 1.367 . S
C4205 C4207 1.433 . S
C4206 C4202 1.350 . S
C4206 C4203 1.463 . S
C4206 N4210 1.427 . S
C4207 H4197 0.929 . S
C4207 C4205 1.433 . S
C4207 N4210 1.384 . S
C4208 H4199 0.929 . S
C4208 C4200 1.378 . S
C4208 C4203 1.350 . S
C4209 H4196 0.929 . S
C4209 C4201 1.433 . S
C4209 N4211 1.384 . S
N4210 C4206 1.427 . S
N4210 C4207 1.384 . S
N4211 C4203 1.427 . S
N4211 C4209 1.384 . S
H4212 C4218 0.930 . S
H4213 C4222 0.930 . S
H4214 C4227 0.929 . S
H4215 C4225 0.929 . S
H4216 C4220 0.929 . S
H4217 C4226 0.929 . S
C4218 H4212 0.930 . S
C4218 C4219 1.367 . S
C4218 C4226 1.378 . S
C4219 C4218 1.367 . S
C4219 C4227 1.433 . S
C4220 H4216 0.929 . S
C4220 C4222 1.378 . S
C4220 C4224 1.350 . S
C4221 C4224 1.463 . S
C4221 C4226 1.350 . S
C4221 N4229 1.427 . S
C4222 H4213 0.930 . S
C4222 C4220 1.378 . S
C4222 C4223 1.367 . S
C4223 C4222 1.367 . S
C4223 C4225 1.433 . S
C4224 C4220 1.350 . S
C4224 C4221 1.463 . S
C4224 N4228 1.427 . S
C4225 H4215 0.929 . S
C4225 C4223 1.433 . S
C4225 N4228 1.384 . S
C4226 H4217 0.929 . S
C4226 C4218 1.378 . S
C4226 C4221 1.350 . S
C4227 H4214 0.929 . S
C4227 C4219 1.433 . S
C4227 N4229 1.384 . S
N4228 C4224 1.427 . S
N4228 C4225 1.384 . S
N4229 C4221 1.427 . S
N4229 C4227 1.384 . S
H4230 C4236 0.930 . S
H4231 C4240 0.930 . S
H4232 C4245 0.929 . S
H4233 C4243 0.929 . S
H4234 C4238 0.929 . S
H4235 C4244 0.929 . S
C4236 H4230 0.930 . S
C4236 C4237 1.367 . S
C4236 C4244 1.378 . S
C4237 C4236 1.367 . S
C4237 C4245 1.433 . S
C4238 H4234 0.929 . S
C4238 C4240 1.378 . S
C4238 C4242 1.350 . S
C4239 C4242 1.463 . S
C4239 C4244 1.350 . S
C4239 N4247 1.427 . S
C4240 H4231 0.930 . S
C4240 C4238 1.378 . S
C4240 C4241 1.367 . S
C4241 C4240 1.367 . S
C4241 C4243 1.433 . S
C4242 C4238 1.350 . S
C4242 C4239 1.463 . S
C4242 N4246 1.427 . S
C4243 H4233 0.929 . S
C4243 C4241 1.433 . S
C4243 N4246 1.384 . S
C4244 H4235 0.929 . S
C4244 C4236 1.378 . S
C4244 C4239 1.350 . S
C4245 H4232 0.929 . S
C4245 C4237 1.433 . S
C4245 N4247 1.384 . S
N4246 C4242 1.427 . S
N4246 C4243 1.384 . S
N4247 C4239 1.427 . S
N4247 C4245 1.384 . S
H4248 C4254 0.930 . S
H4249 C4258 0.930 . S
H4250 C4263 0.929 . S
H4251 C4261 0.929 . S
H4252 C4256 0.929 . S
H4253 C4262 0.929 . S
C4254 H4248 0.930 . S
C4254 C4255 1.367 . S
C4254 C4262 1.378 . S
C4255 C4254 1.367 . S
C4255 C4263 1.433 . S
C4256 H4252 0.929 . S
C4256 C4258 1.378 . S
C4256 C4260 1.350 . S
C4257 C4260 1.463 . S
C4257 C4262 1.350 . S
C4257 N4265 1.427 . S
C4258 H4249 0.930 . S
C4258 C4256 1.378 . S
C4258 C4259 1.367 . S
C4259 C4258 1.367 . S
C4259 C4261 1.433 . S
C4260 C4256 1.350 . S
C4260 C4257 1.463 . S
C4260 N4264 1.427 . S
C4261 H4251 0.929 . S
C4261 C4259 1.433 . S
C4261 N4264 1.384 . S
C4262 H4253 0.929 . S
C4262 C4254 1.378 . S
C4262 C4257 1.350 . S
C4263 H4250 0.929 . S
C4263 C4255 1.433 . S
C4263 N4265 1.384 . S
N4264 C4260 1.427 . S
N4264 C4261 1.384 . S
N4265 C4257 1.427 . S
N4265 C4263 1.384 . S
H4266 C4272 0.930 . S
H4267 C4276 0.930 . S
H4268 C4281 0.929 . S
H4269 C4279 0.929 . S
H4270 C4274 0.929 . S
H4271 C4280 0.929 . S
C4272 H4266 0.930 . S
C4272 C4273 1.367 . S
C4272 C4280 1.378 . S
C4273 C4272 1.367 . S
C4273 C4281 1.433 . S
C4274 H4270 0.929 . S
C4274 C4276 1.378 . S
C4274 C4278 1.350 . S
C4275 C4278 1.463 . S
C4275 C4280 1.350 . S
C4275 N4283 1.427 . S
C4276 H4267 0.930 . S
C4276 C4274 1.378 . S
C4276 C4277 1.367 . S
C4277 C4276 1.367 . S
C4277 C4279 1.433 . S
C4278 C4274 1.350 . S
C4278 C4275 1.463 . S
C4278 N4282 1.427 . S
C4279 H4269 0.929 . S
C4279 C4277 1.433 . S
C4279 N4282 1.384 . S
C4280 H4271 0.929 . S
C4280 C4272 1.378 . S
C4280 C4275 1.350 . S
C4281 H4268 0.929 . S
C4281 C4273 1.433 . S
C4281 N4283 1.384 . S
N4282 C4278 1.427 . S
N4282 C4279 1.384 . S
N4283 C4275 1.427 . S
N4283 C4281 1.384 . S
H4284 C4290 0.930 . S
H4285 C4294 0.930 . S
H4286 C4299 0.929 . S
H4287 C4297 0.929 . S
H4288 C4292 0.929 . S
H4289 C4298 0.929 . S
C4290 H4284 0.930 . S
C4290 C4291 1.367 . S
C4290 C4298 1.378 . S
C4291 C4290 1.367 . S
C4291 C4299 1.433 . S
C4292 H4288 0.929 . S
C4292 C4294 1.378 . S
C4292 C4296 1.350 . S
C4293 C4296 1.463 . S
C4293 C4298 1.350 . S
C4293 N4301 1.427 . S
C4294 H4285 0.930 . S
C4294 C4292 1.378 . S
C4294 C4295 1.367 . S
C4295 C4294 1.367 . S
C4295 C4297 1.433 . S
C4296 C4292 1.350 . S
C4296 C4293 1.463 . S
C4296 N4300 1.427 . S
C4297 H4287 0.929 . S
C4297 C4295 1.433 . S
C4297 N4300 1.384 . S
C4298 H4289 0.929 . S
C4298 C4290 1.378 . S
C4298 C4293 1.350 . S
C4299 H4286 0.929 . S
C4299 C4291 1.433 . S
C4299 N4301 1.384 . S
N4300 C4296 1.427 . S
N4300 C4297 1.384 . S
N4301 C4293 1.427 . S
N4301 C4299 1.384 . S
H4302 C4308 0.930 . S
H4303 C4312 0.930 . S
H4304 C4317 0.929 . S
H4305 C4315 0.929 . S
H4306 C4310 0.929 . S
H4307 C4316 0.929 . S
C4308 H4302 0.930 . S
C4308 C4309 1.367 . S
C4308 C4316 1.378 . S
C4309 C4308 1.367 . S
C4309 C4317 1.433 . S
C4310 H4306 0.929 . S
C4310 C4312 1.378 . S
C4310 C4314 1.350 . S
C4311 C4314 1.463 . S
C4311 C4316 1.350 . S
C4311 N4319 1.427 . S
C4312 H4303 0.930 . S
C4312 C4310 1.378 . S
C4312 C4313 1.367 . S
C4313 C4312 1.367 . S
C4313 C4315 1.433 . S
C4314 C4310 1.350 . S
C4314 C4311 1.463 . S
C4314 N4318 1.427 . S
C4315 H4305 0.929 . S
C4315 C4313 1.433 . S
C4315 N4318 1.384 . S
C4316 H4307 0.929 . S
C4316 C4308 1.378 . S
C4316 C4311 1.350 . S
C4317 H4304 0.929 . S
C4317 C4309 1.433 . S
C4317 N4319 1.384 . S
N4318 C4314 1.427 . S
N4318 C4315 1.384 . S
N4319 C4311 1.427 . S
N4319 C4317 1.384 . S
H4320 C4326 0.930 . S
H4321 C4330 0.930 . S
H4322 C4335 0.929 . S
H4323 C4333 0.929 . S
H4324 C4328 0.929 . S
H4325 C4334 0.929 . S
C4326 H4320 0.930 . S
C4326 C4327 1.367 . S
C4326 C4334 1.378 . S
C4327 C4326 1.367 . S
C4327 C4335 1.433 . S
C4328 H4324 0.929 . S
C4328 C4330 1.378 . S
C4328 C4332 1.350 . S
C4329 C4332 1.463 . S
C4329 C4334 1.350 . S
C4329 N4337 1.427 . S
C4330 H4321 0.930 . S
C4330 C4328 1.378 . S
C4330 C4331 1.367 . S
C4331 C4330 1.367 . S
C4331 C4333 1.433 . S
C4332 C4328 1.350 . S
C4332 C4329 1.463 . S
C4332 N4336 1.427 . S
C4333 H4323 0.929 . S
C4333 C4331 1.433 . S
C4333 N4336 1.384 . S
C4334 H4325 0.929 . S
C4334 C4326 1.378 . S
C4334 C4329 1.350 . S
C4335 H4322 0.929 . S
C4335 C4327 1.433 . S
C4335 N4337 1.384 . S
N4336 C4332 1.427 . S
N4336 C4333 1.384 . S
N4337 C4329 1.427 . S
N4337 C4335 1.384 . S
H4338 C4344 0.930 . S
H4339 C4348 0.930 . S
H4340 C4353 0.929 . S
H4341 C4351 0.929 . S
H4342 C4346 0.929 . S
H4343 C4352 0.929 . S
C4344 H4338 0.930 . S
C4344 C4345 1.367 . S
C4344 C4352 1.378 . S
C4345 C4344 1.367 . S
C4345 C4353 1.433 . S
C4346 H4342 0.929 . S
C4346 C4348 1.378 . S
C4346 C4350 1.350 . S
C4347 C4350 1.463 . S
C4347 C4352 1.350 . S
C4347 N4355 1.427 . S
C4348 H4339 0.930 . S
C4348 C4346 1.378 . S
C4348 C4349 1.367 . S
C4349 C4348 1.367 . S
C4349 C4351 1.433 . S
C4350 C4346 1.350 . S
C4350 C4347 1.463 . S
C4350 N4354 1.427 . S
C4351 H4341 0.929 . S
C4351 C4349 1.433 . S
C4351 N4354 1.384 . S
C4352 H4343 0.929 . S
C4352 C4344 1.378 . S
C4352 C4347 1.350 . S
C4353 H4340 0.929 . S
C4353 C4345 1.433 . S
C4353 N4355 1.384 . S
N4354 C4350 1.427 . S
N4354 C4351 1.384 . S
N4355 C4347 1.427 . S
N4355 C4353 1.384 . S
H4356 C4362 0.930 1_655 S
H4357 C4366 0.930 . S
H4358 C4371 0.929 . S
H4359 C4369 0.914 1_655 S
H4360 C4364 0.929 . S
H4361 C4370 0.929 1_655 S
C4362 H4356 0.930 1_455 S
C4362 C4363 1.367 1_556 S
C4362 C4370 1.378 . S
C4363 C4362 1.367 1_554 S
C4363 C4371 1.433 . S
C4364 H4360 0.929 . S
C4364 C4366 1.378 . S
C4364 C4368 1.350 . S
C4365 C4368 1.463 . S
C4365 C4370 1.350 1_554 S
C4365 N4373 1.427 . S
C4366 H4357 0.930 . S
C4366 C4364 1.378 . S
C4366 C4367 1.367 . S
C4367 C4366 1.367 . S
C4367 C4369 1.433 1_554 S
C4368 C4364 1.350 . S
C4368 C4365 1.463 . S
C4368 N4372 1.427 1_554 S
C4369 H4359 0.914 1_455 S
C4369 C4367 1.433 1_556 S
C4369 N4372 1.384 . S
C4370 H4361 0.929 1_455 S
C4370 C4362 1.378 . S
C4370 C4365 1.350 1_556 S
C4371 H4358 0.929 . S
C4371 C4363 1.433 . S
C4371 N4373 1.384 . S
N4372 C4368 1.427 1_556 S
N4372 C4369 1.384 . S
N4373 C4365 1.427 . S
N4373 C4371 1.384 . S
H4374 C4380 0.930 . S
H4375 C4384 0.930 . S
H4376 C4389 0.929 . S
H4377 C4387 0.929 . S
H4378 C4382 0.929 . S
H4379 C4388 0.929 . S
C4380 H4374 0.930 . S
C4380 C4381 1.367 . S
C4380 C4388 1.378 . S
C4381 C4380 1.367 . S
C4381 C4389 1.433 . S
C4382 H4378 0.929 . S
C4382 C4384 1.378 . S
C4382 C4386 1.350 . S
C4383 C4386 1.463 . S
C4383 C4388 1.350 . S
C4383 N4391 1.427 . S
C4384 H4375 0.930 . S
C4384 C4382 1.378 . S
C4384 C4385 1.367 . S
C4385 C4384 1.367 . S
C4385 C4387 1.433 . S
C4386 C4382 1.350 . S
C4386 C4383 1.463 . S
C4386 N4390 1.427 . S
C4387 H4377 0.929 . S
C4387 C4385 1.433 . S
C4387 N4390 1.384 . S
C4388 H4379 0.929 . S
C4388 C4380 1.378 . S
C4388 C4383 1.350 . S
C4389 H4376 0.929 . S
C4389 C4381 1.433 . S
C4389 N4391 1.384 . S
N4390 C4386 1.427 . S
N4390 C4387 1.384 . S
N4391 C4383 1.427 . S
N4391 C4389 1.384 . S
H4392 C4398 0.930 . S
H4393 C4402 0.930 . S
H4394 C4407 0.929 . S
H4395 C4405 0.929 . S
H4396 C4400 0.929 . S
H4397 C4406 0.929 . S
C4398 H4392 0.930 . S
C4398 C4399 1.367 . S
C4398 C4406 1.378 . S
C4399 C4398 1.367 . S
C4399 C4407 1.433 . S
C4400 H4396 0.929 . S
C4400 C4402 1.378 . S
C4400 C4404 1.350 . S
C4401 C4404 1.463 . S
C4401 C4406 1.350 . S
C4401 N4409 1.427 . S
C4402 H4393 0.930 . S
C4402 C4400 1.378 . S
C4402 C4403 1.367 . S
C4403 C4402 1.367 . S
C4403 C4405 1.433 . S
C4404 C4400 1.350 . S
C4404 C4401 1.463 . S
C4404 N4408 1.427 . S
C4405 H4395 0.929 . S
C4405 C4403 1.433 . S
C4405 N4408 1.384 . S
C4406 H4397 0.929 . S
C4406 C4398 1.378 . S
C4406 C4401 1.350 . S
C4407 H4394 0.929 . S
C4407 C4399 1.433 . S
C4407 N4409 1.384 . S
N4408 C4404 1.427 . S
N4408 C4405 1.384 . S
N4409 C4401 1.427 . S
N4409 C4407 1.384 . S
H4410 C4416 0.930 . S
H4411 C4420 0.930 . S
H4412 C4425 0.929 . S
H4413 C4423 0.929 . S
H4414 C4418 0.929 . S
H4415 C4424 0.929 . S
C4416 H4410 0.930 . S
C4416 C4417 1.367 . S
C4416 C4424 1.378 . S
C4417 C4416 1.367 . S
C4417 C4425 1.433 . S
C4418 H4414 0.929 . S
C4418 C4420 1.378 . S
C4418 C4422 1.350 . S
C4419 C4422 1.463 . S
C4419 C4424 1.350 . S
C4419 N4427 1.427 . S
C4420 H4411 0.930 . S
C4420 C4418 1.378 . S
C4420 C4421 1.367 . S
C4421 C4420 1.367 . S
C4421 C4423 1.433 . S
C4422 C4418 1.350 . S
C4422 C4419 1.463 . S
C4422 N4426 1.427 . S
C4423 H4413 0.929 . S
C4423 C4421 1.433 . S
C4423 N4426 1.384 . S
C4424 H4415 0.929 . S
C4424 C4416 1.378 . S
C4424 C4419 1.350 . S
C4425 H4412 0.929 . S
C4425 C4417 1.433 . S
C4425 N4427 1.384 . S
N4426 C4422 1.427 . S
N4426 C4423 1.384 . S
N4427 C4419 1.427 . S
N4427 C4425 1.384 . S
H4428 C4434 0.930 . S
H4429 C4438 0.930 . S
H4430 C4443 0.916 1_655 S
H4431 C4441 0.929 . S
H4432 C4436 0.929 . S
H4433 C4442 0.929 . S
C4434 H4428 0.930 . S
C4434 C4435 1.367 . S
C4434 C4442 1.378 . S
C4435 C4434 1.367 . S
C4435 C4443 1.435 . S
C4436 H4432 0.929 . S
C4436 C4438 1.378 . S
C4436 C4440 1.350 . S
C4437 C4440 1.463 . S
C4437 C4442 1.350 . S
C4437 N4445 1.427 . S
C4438 H4429 0.930 . S
C4438 C4436 1.378 . S
C4438 C4439 1.367 . S
C4439 C4438 1.367 . S
C4439 C4441 1.433 . S
C4440 C4436 1.350 . S
C4440 C4437 1.463 . S
C4440 N4444 1.427 . S
C4441 H4431 0.929 . S
C4441 C4439 1.433 . S
C4441 N4444 1.384 . S
C4442 H4433 0.929 . S
C4442 C4434 1.378 . S
C4442 C4437 1.350 . S
C4443 H4430 0.916 1_455 S
C4443 C4435 1.435 . S
C4443 N4445 1.396 . S
N4444 C4440 1.427 . S
N4444 C4441 1.384 . S
N4445 C4437 1.427 . S
N4445 C4443 1.396 . S
H4446 C4452 0.930 . S
H4447 C4456 0.930 . S
H4448 C4461 0.929 . S
H4449 C4459 0.929 . S
H4450 C4454 0.929 . S
H4451 C4460 0.929 . S
C4452 H4446 0.930 . S
C4452 C4453 1.367 . S
C4452 C4460 1.378 . S
C4453 C4452 1.367 . S
C4453 C4461 1.433 . S
C4454 H4450 0.929 . S
C4454 C4456 1.378 . S
C4454 C4458 1.350 . S
C4455 C4458 1.463 . S
C4455 C4460 1.350 . S
C4455 N4463 1.427 . S
C4456 H4447 0.930 . S
C4456 C4454 1.378 . S
C4456 C4457 1.367 . S
C4457 C4456 1.367 . S
C4457 C4459 1.433 . S
C4458 C4454 1.350 . S
C4458 C4455 1.463 . S
C4458 N4462 1.427 . S
C4459 H4449 0.929 . S
C4459 C4457 1.433 . S
C4459 N4462 1.384 . S
C4460 H4451 0.929 . S
C4460 C4452 1.378 . S
C4460 C4455 1.350 . S
C4461 H4448 0.929 . S
C4461 C4453 1.433 . S
C4461 N4463 1.384 . S
N4462 C4458 1.427 . S
N4462 C4459 1.384 . S
N4463 C4455 1.427 . S
N4463 C4461 1.384 . S
H4464 C4470 0.930 . S
H4465 C4474 0.930 . S
H4466 C4479 0.929 . S
H4467 C4477 0.929 . S
H4468 C4472 0.929 . S
H4469 C4478 0.929 . S
C4470 H4464 0.930 . S
C4470 C4471 1.367 . S
C4470 C4478 1.378 . S
C4471 C4470 1.367 . S
C4471 C4479 1.433 . S
C4472 H4468 0.929 . S
C4472 C4474 1.378 . S
C4472 C4476 1.350 . S
C4473 C4476 1.463 . S
C4473 C4478 1.350 . S
C4473 N4481 1.427 . S
C4474 H4465 0.930 . S
C4474 C4472 1.378 . S
C4474 C4475 1.367 . S
C4475 C4474 1.367 . S
C4475 C4477 1.433 . S
C4476 C4472 1.350 . S
C4476 C4473 1.463 . S
C4476 N4480 1.427 . S
C4477 H4467 0.929 . S
C4477 C4475 1.433 . S
C4477 N4480 1.384 . S
C4478 H4469 0.929 . S
C4478 C4470 1.378 . S
C4478 C4473 1.350 . S
C4479 H4466 0.929 . S
C4479 C4471 1.433 . S
C4479 N4481 1.384 . S
N4480 C4476 1.427 . S
N4480 C4477 1.384 . S
N4481 C4473 1.427 . S
N4481 C4479 1.384 . S
H4482 C4488 0.930 . S
H4483 C4492 0.930 . S
H4484 C4497 0.929 . S
H4485 C4495 0.929 . S
H4486 C4490 0.929 . S
H4487 C4496 0.929 . S
C4488 H4482 0.930 . S
C4488 C4489 1.367 . S
C4488 C4496 1.378 . S
C4489 C4488 1.367 . S
C4489 C4497 1.433 . S
C4490 H4486 0.929 . S
C4490 C4492 1.378 . S
C4490 C4494 1.350 . S
C4491 C4494 1.463 . S
C4491 C4496 1.350 . S
C4491 N4499 1.427 . S
C4492 H4483 0.930 . S
C4492 C4490 1.378 . S
C4492 C4493 1.367 . S
C4493 C4492 1.367 . S
C4493 C4495 1.433 . S
C4494 C4490 1.350 . S
C4494 C4491 1.463 . S
C4494 N4498 1.427 . S
C4495 H4485 0.929 . S
C4495 C4493 1.433 . S
C4495 N4498 1.384 . S
C4496 H4487 0.929 . S
C4496 C4488 1.378 . S
C4496 C4491 1.350 . S
C4497 H4484 0.929 . S
C4497 C4489 1.433 . S
C4497 N4499 1.384 . S
N4498 C4494 1.427 . S
N4498 C4495 1.384 . S
N4499 C4491 1.427 . S
N4499 C4497 1.384 . S
H4500 C4506 0.930 . S
H4501 C4510 0.930 . S
H4502 C4515 0.929 . S
H4503 C4513 0.929 . S
H4504 C4508 0.929 . S
H4505 C4514 0.929 . S
C4506 H4500 0.930 . S
C4506 C4507 1.367 . S
C4506 C4514 1.378 . S
C4507 C4506 1.367 . S
C4507 C4515 1.433 . S
C4508 H4504 0.929 . S
C4508 C4510 1.378 . S
C4508 C4512 1.350 . S
C4509 C4512 1.463 . S
C4509 C4514 1.350 . S
C4509 N4517 1.427 . S
C4510 H4501 0.930 . S
C4510 C4508 1.378 . S
C4510 C4511 1.367 . S
C4511 C4510 1.367 . S
C4511 C4513 1.433 . S
C4512 C4508 1.350 . S
C4512 C4509 1.463 . S
C4512 N4516 1.427 . S
C4513 H4503 0.929 . S
C4513 C4511 1.433 . S
C4513 N4516 1.384 . S
C4514 H4505 0.929 . S
C4514 C4506 1.378 . S
C4514 C4509 1.350 . S
C4515 H4502 0.929 . S
C4515 C4507 1.433 . S
C4515 N4517 1.384 . S
N4516 C4512 1.427 . S
N4516 C4513 1.384 . S
N4517 C4509 1.427 . S
N4517 C4515 1.384 . S
H4518 C4524 0.930 . S
H4519 C4528 0.930 . S
H4520 C4533 0.929 . S
H4521 C4531 0.929 . S
H4522 C4526 0.929 . S
H4523 C4532 0.929 . S
C4524 H4518 0.930 . S
C4524 C4525 1.367 . S
C4524 C4532 1.378 . S
C4525 C4524 1.367 . S
C4525 C4533 1.433 . S
C4526 H4522 0.929 . S
C4526 C4528 1.378 . S
C4526 C4530 1.350 . S
C4527 C4530 1.463 . S
C4527 C4532 1.350 . S
C4527 N4535 1.427 . S
C4528 H4519 0.930 . S
C4528 C4526 1.378 . S
C4528 C4529 1.367 . S
C4529 C4528 1.367 . S
C4529 C4531 1.433 . S
C4530 C4526 1.350 . S
C4530 C4527 1.463 . S
C4530 N4534 1.427 . S
C4531 H4521 0.929 . S
C4531 C4529 1.433 . S
C4531 N4534 1.384 . S
C4532 H4523 0.929 . S
C4532 C4524 1.378 . S
C4532 C4527 1.350 . S
C4533 H4520 0.929 . S
C4533 C4525 1.433 . S
C4533 N4535 1.384 . S
N4534 C4530 1.427 . S
N4534 C4531 1.384 . S
N4535 C4527 1.427 . S
N4535 C4533 1.384 . S
H4536 C4542 0.930 . S
H4537 C4546 0.930 . S
H4538 C4551 0.929 . S
H4539 C4549 0.929 . S
H4540 C4544 0.929 . S
H4541 C4550 0.929 . S
C4542 H4536 0.930 . S
C4542 C4543 1.367 . S
C4542 C4550 1.378 . S
C4543 C4542 1.367 . S
C4543 C4551 1.433 . S
C4544 H4540 0.929 . S
C4544 C4546 1.378 . S
C4544 C4548 1.350 . S
C4545 C4548 1.463 . S
C4545 C4550 1.350 . S
C4545 N4553 1.427 . S
C4546 H4537 0.930 . S
C4546 C4544 1.378 . S
C4546 C4547 1.367 . S
C4547 C4546 1.367 . S
C4547 C4549 1.433 . S
C4548 C4544 1.350 . S
C4548 C4545 1.463 . S
C4548 N4552 1.427 . S
C4549 H4539 0.929 . S
C4549 C4547 1.433 . S
C4549 N4552 1.384 . S
C4550 H4541 0.929 . S
C4550 C4542 1.378 . S
C4550 C4545 1.350 . S
C4551 H4538 0.929 . S
C4551 C4543 1.433 . S
C4551 N4553 1.384 . S
N4552 C4548 1.427 . S
N4552 C4549 1.384 . S
N4553 C4545 1.427 . S
N4553 C4551 1.384 . S
H4554 C4560 0.930 . S
H4555 C4564 0.930 . S
H4556 C4569 0.929 . S
H4557 C4567 0.929 . S
H4558 C4562 0.929 . S
H4559 C4568 0.929 . S
C4560 H4554 0.930 . S
C4560 C4561 1.367 . S
C4560 C4568 1.378 . S
C4561 C4560 1.367 . S
C4561 C4569 1.433 . S
C4562 H4558 0.929 . S
C4562 C4564 1.378 . S
C4562 C4566 1.350 . S
C4563 C4566 1.463 . S
C4563 C4568 1.350 . S
C4563 N4571 1.427 . S
C4564 H4555 0.930 . S
C4564 C4562 1.378 . S
C4564 C4565 1.367 . S
C4565 C4564 1.367 . S
C4565 C4567 1.433 . S
C4566 C4562 1.350 . S
C4566 C4563 1.463 . S
C4566 N4570 1.427 . S
C4567 H4557 0.929 . S
C4567 C4565 1.433 . S
C4567 N4570 1.384 . S
C4568 H4559 0.929 . S
C4568 C4560 1.378 . S
C4568 C4563 1.350 . S
C4569 H4556 0.929 . S
C4569 C4561 1.433 . S
C4569 N4571 1.384 . S
N4570 C4566 1.427 . S
N4570 C4567 1.384 . S
N4571 C4563 1.427 . S
N4571 C4569 1.384 . S
H4572 C4578 0.930 . S
H4573 C4582 0.930 . S
H4574 C4587 0.929 . S
H4575 C4585 0.929 . S
H4576 C4580 0.929 . S
H4577 C4586 0.929 . S
C4578 H4572 0.930 . S
C4578 C4579 1.367 . S
C4578 C4586 1.378 . S
C4579 C4578 1.367 . S
C4579 C4587 1.433 . S
C4580 H4576 0.929 . S
C4580 C4582 1.378 . S
C4580 C4584 1.350 . S
C4581 C4584 1.463 . S
C4581 C4586 1.350 . S
C4581 N4589 1.427 . S
C4582 H4573 0.930 . S
C4582 C4580 1.378 . S
C4582 C4583 1.367 . S
C4583 C4582 1.367 . S
C4583 C4585 1.433 . S
C4584 C4580 1.350 . S
C4584 C4581 1.463 . S
C4584 N4588 1.427 . S
C4585 H4575 0.929 . S
C4585 C4583 1.433 . S
C4585 N4588 1.384 . S
C4586 H4577 0.929 . S
C4586 C4578 1.378 . S
C4586 C4581 1.350 . S
C4587 H4574 0.929 . S
C4587 C4579 1.433 . S
C4587 N4589 1.384 . S
N4588 C4584 1.427 . S
N4588 C4585 1.384 . S
N4589 C4581 1.427 . S
N4589 C4587 1.384 . S
H4590 C4596 0.930 . S
H4591 C4600 0.930 . S
H4592 C4605 0.929 . S
H4593 C4603 0.929 . S
H4594 C4598 0.929 . S
H4595 C4604 0.929 . S
C4596 H4590 0.930 . S
C4596 C4597 1.367 . S
C4596 C4604 1.378 . S
C4597 C4596 1.367 . S
C4597 C4605 1.433 . S
C4598 H4594 0.929 . S
C4598 C4600 1.378 . S
C4598 C4602 1.350 . S
C4599 C4602 1.463 . S
C4599 C4604 1.350 . S
C4599 N4607 1.427 . S
C4600 H4591 0.930 . S
C4600 C4598 1.378 . S
C4600 C4601 1.367 . S
C4601 C4600 1.367 . S
C4601 C4603 1.433 . S
C4602 C4598 1.350 . S
C4602 C4599 1.463 . S
C4602 N4606 1.427 . S
C4603 H4593 0.929 . S
C4603 C4601 1.433 . S
C4603 N4606 1.384 . S
C4604 H4595 0.929 . S
C4604 C4596 1.378 . S
C4604 C4599 1.350 . S
C4605 H4592 0.929 . S
C4605 C4597 1.433 . S
C4605 N4607 1.384 . S
N4606 C4602 1.427 . S
N4606 C4603 1.384 . S
N4607 C4599 1.427 . S
N4607 C4605 1.384 . S
H4608 C4614 0.930 . S
H4609 C4618 0.930 . S
H4610 C4623 0.929 . S
H4611 C4621 0.929 . S
H4612 C4616 0.929 . S
H4613 C4622 0.929 . S
C4614 H4608 0.930 . S
C4614 C4615 1.367 . S
C4614 C4622 1.378 . S
C4615 C4614 1.367 . S
C4615 C4623 1.433 . S
C4616 H4612 0.929 . S
C4616 C4618 1.378 . S
C4616 C4620 1.350 . S
C4617 C4620 1.463 . S
C4617 C4622 1.350 . S
C4617 N4625 1.427 . S
C4618 H4609 0.930 . S
C4618 C4616 1.378 . S
C4618 C4619 1.367 . S
C4619 C4618 1.367 . S
C4619 C4621 1.433 . S
C4620 C4616 1.350 . S
C4620 C4617 1.463 . S
C4620 N4624 1.427 . S
C4621 H4611 0.929 . S
C4621 C4619 1.433 . S
C4621 N4624 1.384 . S
C4622 H4613 0.929 . S
C4622 C4614 1.378 . S
C4622 C4617 1.350 . S
C4623 H4610 0.929 . S
C4623 C4615 1.433 . S
C4623 N4625 1.384 . S
N4624 C4620 1.427 . S
N4624 C4621 1.384 . S
N4625 C4617 1.427 . S
N4625 C4623 1.384 . S
H4626 C4632 0.930 . S
H4627 C4636 0.930 . S
H4628 C4641 0.929 . S
H4629 C4639 0.929 . S
H4630 C4634 0.929 . S
H4631 C4640 0.929 . S
C4632 H4626 0.930 . S
C4632 C4633 1.367 . S
C4632 C4640 1.378 . S
C4633 C4632 1.367 . S
C4633 C4641 1.433 . S
C4634 H4630 0.929 . S
C4634 C4636 1.378 . S
C4634 C4638 1.350 . S
C4635 C4638 1.463 . S
C4635 C4640 1.350 . S
C4635 N4643 1.427 . S
C4636 H4627 0.930 . S
C4636 C4634 1.378 . S
C4636 C4637 1.367 . S
C4637 C4636 1.367 . S
C4637 C4639 1.433 . S
C4638 C4634 1.350 . S
C4638 C4635 1.463 . S
C4638 N4642 1.427 . S
C4639 H4629 0.929 . S
C4639 C4637 1.433 . S
C4639 N4642 1.384 . S
C4640 H4631 0.929 . S
C4640 C4632 1.378 . S
C4640 C4635 1.350 . S
C4641 H4628 0.929 . S
C4641 C4633 1.433 . S
C4641 N4643 1.384 . S
N4642 C4638 1.427 . S
N4642 C4639 1.384 . S
N4643 C4635 1.427 . S
N4643 C4641 1.384 . S
H4644 C4650 0.930 . S
H4645 C4654 0.930 . S
H4646 C4659 0.929 . S
H4647 C4657 0.929 . S
H4648 C4652 0.929 . S
H4649 C4658 0.929 . S
C4650 H4644 0.930 . S
C4650 C4651 1.367 . S
C4650 C4658 1.378 . S
C4651 C4650 1.367 . S
C4651 C4659 1.433 . S
C4652 H4648 0.929 . S
C4652 C4654 1.378 . S
C4652 C4656 1.350 . S
C4653 C4656 1.463 . S
C4653 C4658 1.350 . S
C4653 N4661 1.427 . S
C4654 H4645 0.930 . S
C4654 C4652 1.378 . S
C4654 C4655 1.367 . S
C4655 C4654 1.367 . S
C4655 C4657 1.433 . S
C4656 C4652 1.350 . S
C4656 C4653 1.463 . S
C4656 N4660 1.427 . S
C4657 H4647 0.929 . S
C4657 C4655 1.433 . S
C4657 N4660 1.384 . S
C4658 H4649 0.929 . S
C4658 C4650 1.378 . S
C4658 C4653 1.350 . S
C4659 H4646 0.929 . S
C4659 C4651 1.433 . S
C4659 N4661 1.384 . S
N4660 C4656 1.427 . S
N4660 C4657 1.384 . S
N4661 C4653 1.427 . S
N4661 C4659 1.384 . S
H4662 C4668 0.930 . S
H4663 C4672 0.930 . S
H4664 C4677 0.929 1_545 S
H4665 C4675 0.929 1_556 S
H4666 C4670 0.929 . S
H4667 C4676 0.929 . S
C4668 H4662 0.930 . S
C4668 C4669 1.367 1_556 S
C4668 C4676 1.378 . S
C4669 C4668 1.367 1_554 S
C4669 C4677 1.433 . S
C4670 H4666 0.929 . S
C4670 C4672 1.378 . S
C4670 C4674 1.350 1_545 S
C4671 C4674 1.463 . S
C4671 C4676 1.350 1_554 S
C4671 N4679 1.427 1_565 S
C4672 H4663 0.930 . S
C4672 C4670 1.378 . S
C4672 C4673 1.367 . S
C4673 C4672 1.367 . S
C4673 C4675 1.433 1_545 S
C4674 C4670 1.350 1_565 S
C4674 C4671 1.463 . S
C4674 N4678 1.427 . S
C4675 H4665 0.929 1_554 S
C4675 C4673 1.433 1_565 S
C4675 N4678 1.384 . S
C4676 H4667 0.929 . S
C4676 C4668 1.378 . S
C4676 C4671 1.350 1_556 S
C4677 H4664 0.929 1_565 S
C4677 C4669 1.433 . S
C4677 N4679 1.384 1_565 S
N4678 C4674 1.427 . S
N4678 C4675 1.384 . S
N4679 C4671 1.427 1_545 S
N4679 C4677 1.384 1_545 S
H4680 C4686 0.930 . S
H4681 C4690 0.930 . S
H4682 C4695 0.929 . S
H4683 C4693 0.929 . S
H4684 C4688 0.929 . S
H4685 C4694 0.929 . S
C4686 H4680 0.930 . S
C4686 C4687 1.367 . S
C4686 C4694 1.378 . S
C4687 C4686 1.367 . S
C4687 C4695 1.433 . S
C4688 H4684 0.929 . S
C4688 C4690 1.378 . S
C4688 C4692 1.350 . S
C4689 C4692 1.463 . S
C4689 C4694 1.350 . S
C4689 N4697 1.427 . S
C4690 H4681 0.930 . S
C4690 C4688 1.378 . S
C4690 C4691 1.367 . S
C4691 C4690 1.367 . S
C4691 C4693 1.433 . S
C4692 C4688 1.350 . S
C4692 C4689 1.463 . S
C4692 N4696 1.427 . S
C4693 H4683 0.929 . S
C4693 C4691 1.433 . S
C4693 N4696 1.384 . S
C4694 H4685 0.929 . S
C4694 C4686 1.378 . S
C4694 C4689 1.350 . S
C4695 H4682 0.929 . S
C4695 C4687 1.433 . S
C4695 N4697 1.384 . S
N4696 C4692 1.427 . S
N4696 C4693 1.384 . S
N4697 C4689 1.427 . S
N4697 C4695 1.384 . S
H4698 C4704 0.930 . S
H4699 C4708 0.930 . S
H4700 C4713 0.929 . S
H4701 C4711 0.929 1_556 S
H4702 C4706 0.929 . S
H4703 C4712 0.929 . S
C4704 H4698 0.930 . S
C4704 C4705 1.367 1_556 S
C4704 C4712 1.378 . S
C4705 C4704 1.367 1_554 S
C4705 C4713 1.433 . S
C4706 H4702 0.929 . S
C4706 C4708 1.378 . S
C4706 C4710 1.350 . S
C4707 C4710 1.463 . S
C4707 C4712 1.350 1_554 S
C4707 N4715 1.427 . S
C4708 H4699 0.930 . S
C4708 C4706 1.378 . S
C4708 C4709 1.367 . S
C4709 C4708 1.367 . S
C4709 C4711 1.433 . S
C4710 C4706 1.350 . S
C4710 C4707 1.463 . S
C4710 N4714 1.427 . S
C4711 H4701 0.929 1_554 S
C4711 C4709 1.433 . S
C4711 N4714 1.384 . S
C4712 H4703 0.929 . S
C4712 C4704 1.378 . S
C4712 C4707 1.350 1_556 S
C4713 H4700 0.929 . S
C4713 C4705 1.433 . S
C4713 N4715 1.384 . S
N4714 C4710 1.427 . S
N4714 C4711 1.384 . S
N4715 C4707 1.427 . S
N4715 C4713 1.384 . S
H4716 C4722 0.930 . S
H4717 C4726 0.930 . S
H4718 C4731 0.929 . S
H4719 C4729 0.929 . S
H4720 C4724 0.929 . S
H4721 C4730 0.929 . S
C4722 H4716 0.930 . S
C4722 C4723 1.367 . S
C4722 C4730 1.378 . S
C4723 C4722 1.367 . S
C4723 C4731 1.433 . S
C4724 H4720 0.929 . S
C4724 C4726 1.378 . S
C4724 C4728 1.350 . S
C4725 C4728 1.463 . S
C4725 C4730 1.350 . S
C4725 N4733 1.427 . S
C4726 H4717 0.930 . S
C4726 C4724 1.378 . S
C4726 C4727 1.367 . S
C4727 C4726 1.367 . S
C4727 C4729 1.433 . S
C4728 C4724 1.350 . S
C4728 C4725 1.463 . S
C4728 N4732 1.427 . S
C4729 H4719 0.929 . S
C4729 C4727 1.433 . S
C4729 N4732 1.384 . S
C4730 H4721 0.929 . S
C4730 C4722 1.378 . S
C4730 C4725 1.350 . S
C4731 H4718 0.929 . S
C4731 C4723 1.433 . S
C4731 N4733 1.384 . S
N4732 C4728 1.427 . S
N4732 C4729 1.384 . S
N4733 C4725 1.427 . S
N4733 C4731 1.384 . S
H4734 C4740 0.930 . S
H4735 C4744 0.930 . S
H4736 C4749 0.929 . S
H4737 C4747 0.929 . S
H4738 C4742 0.929 . S
H4739 C4748 0.929 . S
C4740 H4734 0.930 . S
C4740 C4741 1.367 . S
C4740 C4748 1.378 . S
C4741 C4740 1.367 . S
C4741 C4749 1.433 . S
C4742 H4738 0.929 . S
C4742 C4744 1.378 . S
C4742 C4746 1.350 . S
C4743 C4746 1.463 . S
C4743 C4748 1.350 . S
C4743 N4751 1.427 . S
C4744 H4735 0.930 . S
C4744 C4742 1.378 . S
C4744 C4745 1.367 . S
C4745 C4744 1.367 . S
C4745 C4747 1.433 . S
C4746 C4742 1.350 . S
C4746 C4743 1.463 . S
C4746 N4750 1.427 . S
C4747 H4737 0.929 . S
C4747 C4745 1.433 . S
C4747 N4750 1.384 . S
C4748 H4739 0.929 . S
C4748 C4740 1.378 . S
C4748 C4743 1.350 . S
C4749 H4736 0.929 . S
C4749 C4741 1.433 . S
C4749 N4751 1.384 . S
N4750 C4746 1.427 . S
N4750 C4747 1.384 . S
N4751 C4743 1.427 . S
N4751 C4749 1.384 . S
H4752 C4758 0.930 . S
H4753 C4762 0.930 . S
H4754 C4767 0.929 . S
H4755 C4765 0.929 . S
H4756 C4760 0.929 . S
H4757 C4766 0.929 . S
C4758 H4752 0.930 . S
C4758 C4759 1.367 . S
C4758 C4766 1.378 . S
C4759 C4758 1.367 . S
C4759 C4767 1.433 . S
C4760 H4756 0.929 . S
C4760 C4762 1.378 . S
C4760 C4764 1.350 . S
C4761 C4764 1.463 . S
C4761 C4766 1.350 . S
C4761 N4769 1.427 . S
C4762 H4753 0.930 . S
C4762 C4760 1.378 . S
C4762 C4763 1.367 . S
C4763 C4762 1.367 . S
C4763 C4765 1.433 . S
C4764 C4760 1.350 . S
C4764 C4761 1.463 . S
C4764 N4768 1.427 . S
C4765 H4755 0.929 . S
C4765 C4763 1.433 . S
C4765 N4768 1.384 . S
C4766 H4757 0.929 . S
C4766 C4758 1.378 . S
C4766 C4761 1.350 . S
C4767 H4754 0.929 . S
C4767 C4759 1.433 . S
C4767 N4769 1.384 . S
N4768 C4764 1.427 . S
N4768 C4765 1.384 . S
N4769 C4761 1.427 . S
N4769 C4767 1.384 . S
H4770 C4776 0.930 . S
H4771 C4780 0.930 . S
H4772 C4785 0.929 . S
H4773 C4783 0.929 . S
H4774 C4778 0.929 . S
H4775 C4784 0.929 . S
C4776 H4770 0.930 . S
C4776 C4777 1.367 . S
C4776 C4784 1.378 . S
C4777 C4776 1.367 . S
C4777 C4785 1.433 . S
C4778 H4774 0.929 . S
C4778 C4780 1.378 . S
C4778 C4782 1.350 . S
C4779 C4782 1.463 . S
C4779 C4784 1.350 . S
C4779 N4787 1.427 . S
C4780 H4771 0.930 . S
C4780 C4778 1.378 . S
C4780 C4781 1.367 . S
C4781 C4780 1.367 . S
C4781 C4783 1.433 . S
C4782 C4778 1.350 . S
C4782 C4779 1.463 . S
C4782 N4786 1.427 . S
C4783 H4773 0.929 . S
C4783 C4781 1.433 . S
C4783 N4786 1.384 . S
C4784 H4775 0.929 . S
C4784 C4776 1.378 . S
C4784 C4779 1.350 . S
C4785 H4772 0.929 . S
C4785 C4777 1.433 . S
C4785 N4787 1.384 . S
N4786 C4782 1.427 . S
N4786 C4783 1.384 . S
N4787 C4779 1.427 . S
N4787 C4785 1.384 . S
H4788 C4794 0.930 . S
H4789 C4798 0.930 . S
H4790 C4803 0.929 . S
H4791 C4801 0.929 . S
H4792 C4796 0.929 . S
H4793 C4802 0.929 . S
C4794 H4788 0.930 . S
C4794 C4795 1.367 . S
C4794 C4802 1.378 . S
C4795 C4794 1.367 . S
C4795 C4803 1.433 . S
C4796 H4792 0.929 . S
C4796 C4798 1.378 . S
C4796 C4800 1.350 . S
C4797 C4800 1.463 . S
C4797 C4802 1.350 . S
C4797 N4805 1.427 . S
C4798 H4789 0.930 . S
C4798 C4796 1.378 . S
C4798 C4799 1.367 . S
C4799 C4798 1.367 . S
C4799 C4801 1.433 . S
C4800 C4796 1.350 . S
C4800 C4797 1.463 . S
C4800 N4804 1.427 . S
C4801 H4791 0.929 . S
C4801 C4799 1.433 . S
C4801 N4804 1.384 . S
C4802 H4793 0.929 . S
C4802 C4794 1.378 . S
C4802 C4797 1.350 . S
C4803 H4790 0.929 . S
C4803 C4795 1.433 . S
C4803 N4805 1.384 . S
N4804 C4800 1.427 . S
N4804 C4801 1.384 . S
N4805 C4797 1.427 . S
N4805 C4803 1.384 . S
H4806 C4812 0.930 . S
H4807 C4816 0.930 . S
H4808 C4821 0.929 . S
H4809 C4819 0.929 . S
H4810 C4814 0.929 . S
H4811 C4820 0.929 . S
C4812 H4806 0.930 . S
C4812 C4813 1.367 . S
C4812 C4820 1.378 . S
C4813 C4812 1.367 . S
C4813 C4821 1.433 . S
C4814 H4810 0.929 . S
C4814 C4816 1.378 . S
C4814 C4818 1.350 . S
C4815 C4818 1.463 . S
C4815 C4820 1.350 . S
C4815 N4823 1.427 . S
C4816 H4807 0.930 . S
C4816 C4814 1.378 . S
C4816 C4817 1.367 . S
C4817 C4816 1.367 . S
C4817 C4819 1.433 . S
C4818 C4814 1.350 . S
C4818 C4815 1.463 . S
C4818 N4822 1.427 . S
C4819 H4809 0.929 . S
C4819 C4817 1.433 . S
C4819 N4822 1.384 . S
C4820 H4811 0.929 . S
C4820 C4812 1.378 . S
C4820 C4815 1.350 . S
C4821 H4808 0.929 . S
C4821 C4813 1.433 . S
C4821 N4823 1.384 . S
N4822 C4818 1.427 . S
N4822 C4819 1.384 . S
N4823 C4815 1.427 . S
N4823 C4821 1.384 . S
H4824 C4830 0.930 . S
H4825 C4834 0.930 . S
H4826 C4839 0.929 . S
H4827 C4837 0.929 . S
H4828 C4832 0.929 . S
H4829 C4838 0.929 . S
C4830 H4824 0.930 . S
C4830 C4831 1.367 . S
C4830 C4838 1.378 . S
C4831 C4830 1.367 . S
C4831 C4839 1.433 . S
C4832 H4828 0.929 . S
C4832 C4834 1.378 . S
C4832 C4836 1.350 . S
C4833 C4836 1.463 . S
C4833 C4838 1.350 . S
C4833 N4841 1.427 . S
C4834 H4825 0.930 . S
C4834 C4832 1.378 . S
C4834 C4835 1.367 . S
C4835 C4834 1.367 . S
C4835 C4837 1.433 . S
C4836 C4832 1.350 . S
C4836 C4833 1.463 . S
C4836 N4840 1.427 . S
C4837 H4827 0.929 . S
C4837 C4835 1.433 . S
C4837 N4840 1.384 . S
C4838 H4829 0.929 . S
C4838 C4830 1.378 . S
C4838 C4833 1.350 . S
C4839 H4826 0.929 . S
C4839 C4831 1.433 . S
C4839 N4841 1.384 . S
N4840 C4836 1.427 . S
N4840 C4837 1.384 . S
N4841 C4833 1.427 . S
N4841 C4839 1.384 . S
H4842 C4848 0.930 . S
H4843 C4852 0.930 . S
H4844 C4857 0.929 . S
H4845 C4855 0.929 . S
H4846 C4850 0.929 . S
H4847 C4856 0.929 . S
C4848 H4842 0.930 . S
C4848 C4849 1.367 . S
C4848 C4856 1.378 . S
C4849 C4848 1.367 . S
C4849 C4857 1.433 . S
C4850 H4846 0.929 . S
C4850 C4852 1.378 . S
C4850 C4854 1.350 . S
C4851 C4854 1.463 . S
C4851 C4856 1.350 . S
C4851 N4859 1.427 . S
C4852 H4843 0.930 . S
C4852 C4850 1.378 . S
C4852 C4853 1.367 . S
C4853 C4852 1.367 . S
C4853 C4855 1.433 . S
C4854 C4850 1.350 . S
C4854 C4851 1.463 . S
C4854 N4858 1.427 . S
C4855 H4845 0.929 . S
C4855 C4853 1.433 . S
C4855 N4858 1.384 . S
C4856 H4847 0.929 . S
C4856 C4848 1.378 . S
C4856 C4851 1.350 . S
C4857 H4844 0.929 . S
C4857 C4849 1.433 . S
C4857 N4859 1.384 . S
N4858 C4854 1.427 . S
N4858 C4855 1.384 . S
N4859 C4851 1.427 . S
N4859 C4857 1.384 . S
H4860 C4866 0.930 . S
H4861 C4870 0.930 . S
H4862 C4875 0.929 . S
H4863 C4873 0.929 . S
H4864 C4868 0.929 . S
H4865 C4874 0.929 . S
C4866 H4860 0.930 . S
C4866 C4867 1.367 . S
C4866 C4874 1.378 . S
C4867 C4866 1.367 . S
C4867 C4875 1.433 . S
C4868 H4864 0.929 . S
C4868 C4870 1.378 . S
C4868 C4872 1.350 . S
C4869 C4872 1.463 . S
C4869 C4874 1.350 . S
C4869 N4877 1.427 . S
C4870 H4861 0.930 . S
C4870 C4868 1.378 . S
C4870 C4871 1.367 . S
C4871 C4870 1.367 . S
C4871 C4873 1.433 . S
C4872 C4868 1.350 . S
C4872 C4869 1.463 . S
C4872 N4876 1.427 . S
C4873 H4863 0.929 . S
C4873 C4871 1.433 . S
C4873 N4876 1.384 . S
C4874 H4865 0.929 . S
C4874 C4866 1.378 . S
C4874 C4869 1.350 . S
C4875 H4862 0.929 . S
C4875 C4867 1.433 . S
C4875 N4877 1.384 . S
N4876 C4872 1.427 . S
N4876 C4873 1.384 . S
N4877 C4869 1.427 . S
N4877 C4875 1.384 . S
H4878 C4884 0.930 . S
H4879 C4888 0.930 . S
H4880 C4893 0.929 . S
H4881 C4891 0.929 . S
H4882 C4886 0.929 . S
H4883 C4892 0.929 . S
C4884 H4878 0.930 . S
C4884 C4885 1.367 . S
C4884 C4892 1.378 . S
C4885 C4884 1.367 . S
C4885 C4893 1.433 . S
C4886 H4882 0.929 . S
C4886 C4888 1.378 . S
C4886 C4890 1.350 . S
C4887 C4890 1.463 . S
C4887 C4892 1.350 . S
C4887 N4895 1.427 . S
C4888 H4879 0.930 . S
C4888 C4886 1.378 . S
C4888 C4889 1.367 . S
C4889 C4888 1.367 . S
C4889 C4891 1.433 . S
C4890 C4886 1.350 . S
C4890 C4887 1.463 . S
C4890 N4894 1.427 . S
C4891 H4881 0.929 . S
C4891 C4889 1.433 . S
C4891 N4894 1.384 . S
C4892 H4883 0.929 . S
C4892 C4884 1.378 . S
C4892 C4887 1.350 . S
C4893 H4880 0.929 . S
C4893 C4885 1.433 . S
C4893 N4895 1.384 . S
N4894 C4890 1.427 . S
N4894 C4891 1.384 . S
N4895 C4887 1.427 . S
N4895 C4893 1.384 . S
H4896 C4902 0.930 . S
H4897 C4906 0.930 . S
H4898 C4911 0.929 . S
H4899 C4909 0.929 . S
H4900 C4904 0.929 . S
H4901 C4910 0.929 . S
C4902 H4896 0.930 . S
C4902 C4903 1.367 . S
C4902 C4910 1.378 . S
C4903 C4902 1.367 . S
C4903 C4911 1.433 . S
C4904 H4900 0.929 . S
C4904 C4906 1.378 . S
C4904 C4908 1.350 . S
C4905 C4908 1.463 . S
C4905 C4910 1.350 . S
C4905 N4913 1.427 . S
C4906 H4897 0.930 . S
C4906 C4904 1.378 . S
C4906 C4907 1.367 . S
C4907 C4906 1.367 . S
C4907 C4909 1.433 . S
C4908 C4904 1.350 . S
C4908 C4905 1.463 . S
C4908 N4912 1.427 . S
C4909 H4899 0.929 . S
C4909 C4907 1.433 . S
C4909 N4912 1.384 . S
C4910 H4901 0.929 . S
C4910 C4902 1.378 . S
C4910 C4905 1.350 . S
C4911 H4898 0.929 . S
C4911 C4903 1.433 . S
C4911 N4913 1.384 . S
N4912 C4908 1.427 . S
N4912 C4909 1.384 . S
N4913 C4905 1.427 . S
N4913 C4911 1.384 . S
H4914 C4920 0.930 . S
H4915 C4924 0.930 . S
H4916 C4929 0.929 . S
H4917 C4927 0.929 . S
H4918 C4922 0.929 . S
H4919 C4928 0.929 . S
C4920 H4914 0.930 . S
C4920 C4921 1.367 . S
C4920 C4928 1.378 . S
C4921 C4920 1.367 . S
C4921 C4929 1.433 . S
C4922 H4918 0.929 . S
C4922 C4924 1.378 . S
C4922 C4926 1.350 . S
C4923 C4926 1.463 . S
C4923 C4928 1.350 . S
C4923 N4931 1.427 . S
C4924 H4915 0.930 . S
C4924 C4922 1.378 . S
C4924 C4925 1.367 . S
C4925 C4924 1.367 . S
C4925 C4927 1.433 . S
C4926 C4922 1.350 . S
C4926 C4923 1.463 . S
C4926 N4930 1.427 . S
C4927 H4917 0.929 . S
C4927 C4925 1.433 . S
C4927 N4930 1.384 . S
C4928 H4919 0.929 . S
C4928 C4920 1.378 . S
C4928 C4923 1.350 . S
C4929 H4916 0.929 . S
C4929 C4921 1.433 . S
C4929 N4931 1.384 . S
N4930 C4926 1.427 . S
N4930 C4927 1.384 . S
N4931 C4923 1.427 . S
N4931 C4929 1.384 . S
H4932 C4938 0.930 . S
H4933 C4942 0.930 . S
H4934 C4947 0.929 . S
H4935 C4945 0.929 . S
H4936 C4940 0.929 . S
H4937 C4946 0.929 . S
C4938 H4932 0.930 . S
C4938 C4939 1.367 . S
C4938 C4946 1.378 . S
C4939 C4938 1.367 . S
C4939 C4947 1.433 . S
C4940 H4936 0.929 . S
C4940 C4942 1.378 . S
C4940 C4944 1.350 . S
C4941 C4944 1.463 . S
C4941 C4946 1.350 . S
C4941 N4949 1.427 . S
C4942 H4933 0.930 . S
C4942 C4940 1.378 . S
C4942 C4943 1.367 . S
C4943 C4942 1.367 . S
C4943 C4945 1.433 1_655 S
C4944 C4940 1.350 . S
C4944 C4941 1.463 . S
C4944 N4948 1.427 . S
C4945 H4935 0.929 . S
C4945 C4943 1.433 1_455 S
C4945 N4948 1.384 1_455 S
C4946 H4937 0.929 . S
C4946 C4938 1.378 . S
C4946 C4941 1.350 . S
C4947 H4934 0.929 . S
C4947 C4939 1.433 . S
C4947 N4949 1.384 . S
N4948 C4944 1.427 . S
N4948 C4945 1.384 1_655 S
N4949 C4941 1.427 . S
N4949 C4947 1.384 . S
H4950 C4956 0.930 . S
H4951 C4960 0.930 . S
H4952 C4965 0.929 . S
H4953 C4963 0.929 . S
H4954 C4958 0.929 . S
H4955 C4964 0.929 . S
C4956 H4950 0.930 . S
C4956 C4957 1.367 . S
C4956 C4964 1.378 . S
C4957 C4956 1.367 . S
C4957 C4965 1.433 . S
C4958 H4954 0.929 . S
C4958 C4960 1.378 . S
C4958 C4962 1.350 . S
C4959 C4962 1.463 . S
C4959 C4964 1.350 . S
C4959 N4967 1.427 . S
C4960 H4951 0.930 . S
C4960 C4958 1.378 . S
C4960 C4961 1.367 . S
C4961 C4960 1.367 . S
C4961 C4963 1.433 . S
C4962 C4958 1.350 . S
C4962 C4959 1.463 . S
C4962 N4966 1.427 . S
C4963 H4953 0.929 . S
C4963 C4961 1.433 . S
C4963 N4966 1.384 . S
C4964 H4955 0.929 . S
C4964 C4956 1.378 . S
C4964 C4959 1.350 . S
C4965 H4952 0.929 . S
C4965 C4957 1.433 . S
C4965 N4967 1.384 . S
N4966 C4962 1.427 . S
N4966 C4963 1.384 . S
N4967 C4959 1.427 . S
N4967 C4965 1.384 . S
H4968 C4974 0.930 . S
H4969 C4978 0.930 . S
H4970 C4983 0.929 . S
H4971 C4981 0.929 . S
H4972 C4976 0.929 . S
H4973 C4982 0.929 . S
C4974 H4968 0.930 . S
C4974 C4975 1.367 . S
C4974 C4982 1.378 . S
C4975 C4974 1.367 . S
C4975 C4983 1.433 . S
C4976 H4972 0.929 . S
C4976 C4978 1.378 . S
C4976 C4980 1.350 . S
C4977 C4980 1.463 . S
C4977 C4982 1.350 . S
C4977 N4985 1.427 . S
C4978 H4969 0.930 . S
C4978 C4976 1.378 . S
C4978 C4979 1.367 . S
C4979 C4978 1.367 . S
C4979 C4981 1.433 . S
C4980 C4976 1.350 . S
C4980 C4977 1.463 . S
C4980 N4984 1.427 . S
C4981 H4971 0.929 . S
C4981 C4979 1.433 . S
C4981 N4984 1.384 . S
C4982 H4973 0.929 . S
C4982 C4974 1.378 . S
C4982 C4977 1.350 . S
C4983 H4970 0.929 . S
C4983 C4975 1.433 . S
C4983 N4985 1.384 . S
N4984 C4980 1.427 . S
N4984 C4981 1.384 . S
N4985 C4977 1.427 . S
N4985 C4983 1.384 . S
H4986 C4992 0.930 . S
H4987 C4996 0.930 . S
H4988 C5001 0.929 . S
H4989 C4999 0.929 . S
H4990 C4994 0.929 . S
H4991 C5000 0.929 . S
C4992 H4986 0.930 . S
C4992 C4993 1.367 . S
C4992 C5000 1.378 . S
C4993 C4992 1.367 . S
C4993 C5001 1.433 . S
C4994 H4990 0.929 . S
C4994 C4996 1.378 . S
C4994 C4998 1.350 . S
C4995 C4998 1.463 . S
C4995 C5000 1.350 . S
C4995 N5003 1.427 . S
C4996 H4987 0.930 . S
C4996 C4994 1.378 . S
C4996 C4997 1.367 . S
C4997 C4996 1.367 . S
C4997 C4999 1.433 . S
C4998 C4994 1.350 . S
C4998 C4995 1.463 . S
C4998 N5002 1.427 . S
C4999 H4989 0.929 . S
C4999 C4997 1.433 . S
C4999 N5002 1.384 . S
C5000 H4991 0.929 . S
C5000 C4992 1.378 . S
C5000 C4995 1.350 . S
C5001 H4988 0.929 . S
C5001 C4993 1.433 . S
C5001 N5003 1.384 . S
N5002 C4998 1.427 . S
N5002 C4999 1.384 . S
N5003 C4995 1.427 . S
N5003 C5001 1.384 . S
H5004 C5010 0.930 . S
H5005 C5014 0.930 . S
H5006 C5019 0.929 . S
H5007 C5017 0.929 . S
H5008 C5012 0.929 . S
H5009 C5018 0.929 . S
C5010 H5004 0.930 . S
C5010 C5011 1.367 . S
C5010 C5018 1.378 . S
C5011 C5010 1.367 . S
C5011 C5019 1.433 . S
C5012 H5008 0.929 . S
C5012 C5014 1.378 . S
C5012 C5016 1.350 . S
C5013 C5016 1.463 . S
C5013 C5018 1.350 . S
C5013 N5021 1.427 . S
C5014 H5005 0.930 . S
C5014 C5012 1.378 . S
C5014 C5015 1.367 . S
C5015 C5014 1.367 . S
C5015 C5017 1.433 . S
C5016 C5012 1.350 . S
C5016 C5013 1.463 . S
C5016 N5020 1.427 . S
C5017 H5007 0.929 . S
C5017 C5015 1.433 . S
C5017 N5020 1.384 . S
C5018 H5009 0.929 . S
C5018 C5010 1.378 . S
C5018 C5013 1.350 . S
C5019 H5006 0.929 . S
C5019 C5011 1.433 . S
C5019 N5021 1.384 . S
N5020 C5016 1.427 . S
N5020 C5017 1.384 . S
N5021 C5013 1.427 . S
N5021 C5019 1.384 . S
H5022 C5028 0.930 . S
H5023 C5032 0.930 . S
H5024 C5037 0.929 . S
H5025 C5035 0.929 . S
H5026 C5030 0.929 . S
H5027 C5036 0.929 . S
C5028 H5022 0.930 . S
C5028 C5029 1.367 . S
C5028 C5036 1.378 . S
C5029 C5028 1.367 . S
C5029 C5037 1.433 . S
C5030 H5026 0.929 . S
C5030 C5032 1.378 . S
C5030 C5034 1.350 . S
C5031 C5034 1.463 . S
C5031 C5036 1.350 . S
C5031 N5039 1.427 . S
C5032 H5023 0.930 . S
C5032 C5030 1.378 . S
C5032 C5033 1.367 . S
C5033 C5032 1.367 . S
C5033 C5035 1.433 . S
C5034 C5030 1.350 . S
C5034 C5031 1.463 . S
C5034 N5038 1.427 . S
C5035 H5025 0.929 . S
C5035 C5033 1.433 . S
C5035 N5038 1.384 . S
C5036 H5027 0.929 . S
C5036 C5028 1.378 . S
C5036 C5031 1.350 . S
C5037 H5024 0.929 . S
C5037 C5029 1.433 . S
C5037 N5039 1.384 . S
N5038 C5034 1.427 . S
N5038 C5035 1.384 . S
N5039 C5031 1.427 . S
N5039 C5037 1.384 . S
H5040 C5046 0.930 . S
H5041 C5050 0.930 . S
H5042 C5055 0.929 . S
H5043 C5053 0.929 . S
H5044 C5048 0.929 . S
H5045 C5054 0.929 . S
C5046 H5040 0.930 . S
C5046 C5047 1.367 . S
C5046 C5054 1.378 . S
C5047 C5046 1.367 . S
C5047 C5055 1.433 . S
C5048 H5044 0.929 . S
C5048 C5050 1.378 . S
C5048 C5052 1.350 . S
C5049 C5052 1.463 . S
C5049 C5054 1.350 . S
C5049 N5057 1.427 . S
C5050 H5041 0.930 . S
C5050 C5048 1.378 . S
C5050 C5051 1.367 . S
C5051 C5050 1.367 . S
C5051 C5053 1.433 . S
C5052 C5048 1.350 . S
C5052 C5049 1.463 . S
C5052 N5056 1.427 . S
C5053 H5043 0.929 . S
C5053 C5051 1.433 . S
C5053 N5056 1.384 . S
C5054 H5045 0.929 . S
C5054 C5046 1.378 . S
C5054 C5049 1.350 . S
C5055 H5042 0.929 . S
C5055 C5047 1.433 . S
C5055 N5057 1.384 . S
N5056 C5052 1.427 . S
N5056 C5053 1.384 . S
N5057 C5049 1.427 . S
N5057 C5055 1.384 . S
H5058 C5064 0.930 . S
H5059 C5068 0.930 . S
H5060 C5073 0.929 . S
H5061 C5071 0.929 . S
H5062 C5066 0.929 1_545 S
H5063 C5072 0.929 . S
C5064 H5058 0.930 . S
C5064 C5065 1.367 . S
C5064 C5072 1.378 . S
C5065 C5064 1.367 . S
C5065 C5073 1.433 . S
C5066 H5062 0.929 1_565 S
C5066 C5068 1.378 1_565 S
C5066 C5070 1.350 . S
C5067 C5070 1.463 . S
C5067 C5072 1.350 . S
C5067 N5075 1.427 . S
C5068 H5059 0.930 . S
C5068 C5066 1.378 1_545 S
C5068 C5069 1.367 1_545 S
C5069 C5068 1.367 1_565 S
C5069 C5071 1.433 . S
C5070 C5066 1.350 . S
C5070 C5067 1.463 . S
C5070 N5074 1.427 . S
C5071 H5061 0.929 . S
C5071 C5069 1.433 . S
C5071 N5074 1.384 . S
C5072 H5063 0.929 . S
C5072 C5064 1.378 . S
C5072 C5067 1.350 . S
C5073 H5060 0.929 . S
C5073 C5065 1.433 . S
C5073 N5075 1.384 . S
N5074 C5070 1.427 . S
N5074 C5071 1.384 . S
N5075 C5067 1.427 . S
N5075 C5073 1.384 . S
H5076 C5082 0.930 . S
H5077 C5086 0.930 . S
H5078 C5091 0.929 . S
H5079 C5089 0.929 . S
H5080 C5084 0.929 . S
H5081 C5090 0.929 . S
C5082 H5076 0.930 . S
C5082 C5083 1.367 . S
C5082 C5090 1.378 . S
C5083 C5082 1.367 . S
C5083 C5091 1.433 . S
C5084 H5080 0.929 . S
C5084 C5086 1.378 . S
C5084 C5088 1.350 . S
C5085 C5088 1.463 . S
C5085 C5090 1.350 . S
C5085 N5093 1.427 . S
C5086 H5077 0.930 . S
C5086 C5084 1.378 . S
C5086 C5087 1.367 . S
C5087 C5086 1.367 . S
C5087 C5089 1.433 . S
C5088 C5084 1.350 . S
C5088 C5085 1.463 . S
C5088 N5092 1.427 . S
C5089 H5079 0.929 . S
C5089 C5087 1.433 . S
C5089 N5092 1.384 . S
C5090 H5081 0.929 . S
C5090 C5082 1.378 . S
C5090 C5085 1.350 . S
C5091 H5078 0.929 . S
C5091 C5083 1.433 . S
C5091 N5093 1.384 . S
N5092 C5088 1.427 . S
N5092 C5089 1.384 . S
N5093 C5085 1.427 . S
N5093 C5091 1.384 . S
H5094 C5100 0.930 . S
H5095 C5104 0.927 1_556 S
H5096 C5109 0.929 . S
H5097 C5107 0.929 . S
H5098 C5102 0.929 . S
H5099 C5108 0.929 . S
C5100 H5094 0.930 . S
C5100 C5101 1.367 . S
C5100 C5108 1.378 . S
C5101 C5100 1.367 . S
C5101 C5109 1.433 . S
C5102 H5098 0.929 . S
C5102 C5104 1.378 . S
C5102 C5106 1.350 . S
C5103 C5106 1.463 . S
C5103 C5108 1.350 . S
C5103 N5111 1.427 . S
C5104 H5095 0.927 1_554 S
C5104 C5102 1.378 . S
C5104 C5105 1.367 . S
C5105 C5104 1.367 . S
C5105 C5107 1.433 . S
C5106 C5102 1.350 . S
C5106 C5103 1.463 . S
C5106 N5110 1.427 . S
C5107 H5097 0.929 . S
C5107 C5105 1.433 . S
C5107 N5110 1.384 . S
C5108 H5099 0.929 . S
C5108 C5100 1.378 . S
C5108 C5103 1.350 . S
C5109 H5096 0.929 . S
C5109 C5101 1.433 . S
C5109 N5111 1.384 . S
N5110 C5106 1.427 . S
N5110 C5107 1.384 . S
N5111 C5103 1.427 . S
N5111 C5109 1.384 . S
H5112 C5118 0.930 . S
H5113 C5122 0.930 . S
H5114 C5127 0.929 . S
H5115 C5125 0.929 . S
H5116 C5120 0.929 . S
H5117 C5126 0.929 . S
C5118 H5112 0.930 . S
C5118 C5119 1.367 . S
C5118 C5126 1.378 . S
C5119 C5118 1.367 . S
C5119 C5127 1.433 . S
C5120 H5116 0.929 . S
C5120 C5122 1.378 . S
C5120 C5124 1.350 . S
C5121 C5124 1.463 . S
C5121 C5126 1.350 . S
C5121 N5129 1.427 . S
C5122 H5113 0.930 . S
C5122 C5120 1.378 . S
C5122 C5123 1.367 . S
C5123 C5122 1.367 . S
C5123 C5125 1.433 . S
C5124 C5120 1.350 . S
C5124 C5121 1.463 . S
C5124 N5128 1.427 . S
C5125 H5115 0.929 . S
C5125 C5123 1.433 . S
C5125 N5128 1.384 . S
C5126 H5117 0.929 . S
C5126 C5118 1.378 . S
C5126 C5121 1.350 . S
C5127 H5114 0.929 . S
C5127 C5119 1.433 . S
C5127 N5129 1.384 . S
N5128 C5124 1.427 . S
N5128 C5125 1.384 . S
N5129 C5121 1.427 . S
N5129 C5127 1.384 . S
H5130 C5136 0.930 . S
H5131 C5140 0.930 . S
H5132 C5145 0.929 . S
H5133 C5143 0.929 1_556 S
H5134 C5138 0.929 . S
H5135 C5144 0.977 . S
C5136 H5130 0.930 . S
C5136 C5137 1.367 . S
C5136 C5144 1.378 . S
C5137 C5136 1.367 . S
C5137 C5145 1.433 . S
C5138 H5134 0.929 . S
C5138 C5140 1.378 . S
C5138 C5142 1.350 . S
C5139 C5142 1.463 . S
C5139 C5144 1.350 . S
C5139 N5147 1.427 . S
C5140 H5131 0.930 . S
C5140 C5138 1.378 . S
C5140 C5141 1.367 . S
C5141 C5140 1.367 . S
C5141 C5143 1.433 . S
C5142 C5138 1.350 . S
C5142 C5139 1.463 . S
C5142 N5146 1.427 . S
C5143 H5133 0.929 1_554 S
C5143 C5141 1.433 . S
C5143 N5146 1.384 . S
C5144 H5135 0.977 . S
C5144 C5136 1.378 . S
C5144 C5139 1.350 . S
C5145 H5132 0.929 . S
C5145 C5137 1.433 . S
C5145 N5147 1.384 . S
N5146 C5142 1.427 . S
N5146 C5143 1.384 . S
N5147 C5139 1.427 . S
N5147 C5145 1.384 . S
H5148 C5154 0.930 . S
H5149 C5158 0.930 . S
H5150 C5163 0.929 . S
H5151 C5161 0.929 . S
H5152 C5156 0.929 . S
H5153 C5162 0.929 . S
C5154 H5148 0.930 . S
C5154 C5155 1.367 . S
C5154 C5162 1.378 . S
C5155 C5154 1.367 . S
C5155 C5163 1.433 . S
C5156 H5152 0.929 . S
C5156 C5158 1.378 . S
C5156 C5160 1.350 . S
C5157 C5160 1.463 . S
C5157 C5162 1.350 . S
C5157 N5165 1.427 . S
C5158 H5149 0.930 . S
C5158 C5156 1.378 . S
C5158 C5159 1.367 . S
C5159 C5158 1.367 . S
C5159 C5161 1.433 . S
C5160 C5156 1.350 . S
C5160 C5157 1.463 . S
C5160 N5164 1.427 . S
C5161 H5151 0.929 . S
C5161 C5159 1.433 . S
C5161 N5164 1.384 . S
C5162 H5153 0.929 . S
C5162 C5154 1.378 . S
C5162 C5157 1.350 . S
C5163 H5150 0.929 . S
C5163 C5155 1.433 . S
C5163 N5165 1.384 . S
N5164 C5160 1.427 . S
N5164 C5161 1.384 . S
N5165 C5157 1.427 . S
N5165 C5163 1.384 . S
H5166 C5172 0.930 . S
H5167 C5176 0.930 . S
H5168 C5181 0.929 . S
H5169 C5179 0.929 . S
H5170 C5174 0.929 . S
H5171 C5180 0.929 . S
C5172 H5166 0.930 . S
C5172 C5173 1.367 . S
C5172 C5180 1.378 . S
C5173 C5172 1.367 . S
C5173 C5181 1.433 . S
C5174 H5170 0.929 . S
C5174 C5176 1.378 . S
C5174 C5178 1.350 . S
C5175 C5178 1.463 . S
C5175 C5180 1.350 . S
C5175 N5183 1.427 . S
C5176 H5167 0.930 . S
C5176 C5174 1.378 . S
C5176 C5177 1.367 . S
C5177 C5176 1.367 . S
C5177 C5179 1.433 . S
C5178 C5174 1.350 . S
C5178 C5175 1.463 . S
C5178 N5182 1.427 . S
C5179 H5169 0.929 . S
C5179 C5177 1.433 . S
C5179 N5182 1.384 . S
C5180 H5171 0.929 . S
C5180 C5172 1.378 . S
C5180 C5175 1.350 . S
C5181 H5168 0.929 . S
C5181 C5173 1.433 . S
C5181 N5183 1.384 . S
N5182 C5178 1.427 . S
N5182 C5179 1.384 . S
N5183 C5175 1.427 . S
N5183 C5181 1.384 . S
C3463 C665 2.040 . S
C3467 C2168 2.074 . S
C3481 C381 1.811 . S
C3485 C2270 1.806 . S
C3499 C460 1.887 . S
C3503 C2336 1.936 . S
C3521 C2422 1.425 . S
C3517 C585 1.538 . S
C3535 C108 1.538 . S
C3539 C2506 1.419 . S
C3557 C2588 1.931 . S
C3553 C196 1.882 . S
C3575 C2690 1.810 . S
C3571 C313 1.806 . S
C3589 C49 2.036 . S
C3593 C2756 2.073 . S
C3611 C2186 1.509 . S
C3607 C1457 1.557 . S
C3625 C1545 0.822 . S
C3629 C2254 0.802 . S
C3647 C2354 1.012 . S
C3643 C1721 1.029 . S
C3665 C2420 1.649 . S
C3661 C1113 1.631 . S
C3679 C1428 1.630 . S
C3683 C2504 1.648 . S
C3701 C2606 1.010 . S
C3697 C1516 1.030 . S
C3719 C2674 0.819 . S
C3715 C1692 0.820 . S
C3737 C2774 1.513 . S
C3733 C1085 1.557 . S
C3755 C2170 0.950 . S
C3751 C988 0.921 1_554 S
C3769 C1817 1.665 . S
C3773 C2858 1.635 . S
C3791 C2926 1.278 . S
C3787 C2081 1.333 . S
C3809 C3008 0.831 . S
C3805 C1993 0.831 . S
C3823 C761 0.927 . S
C3827 C2758 0.914 . S
C3841 C821 1.334 . S
C3845 C2338 1.277 . S
C3859 C2053 1.652 . S
C3863 C3110 1.640 . S
C3881 C3176 0.830 . S
C3877 C1868 0.822 . S
C3899 C2179 2.066 . S
C3895 C372 2.031 . S
C3917 C3183 1.807 . S
C3913 C645 1.800 . S
C3931 C577 1.888 . S
C3935 C2347 1.931 . S
C3949 C497 1.535 . S
C3953 C3105 1.408 . S
C3971 C2517 1.410 . S
C3967 C57 1.535 . S
C3985 C293 1.888 . S
C3989 C2935 1.932 . S
C4007 C2679 1.804 1_556 S
C4003 C205 1.805 . S
C4025 C3271 2.068 . S
C4021 C145 2.035 . S
C4043 C2175 1.519 . S
C4039 C909 1.559 . S
C4061 C3189 0.791 . S
C4057 C1956 0.816 . S
C4075 C724 1.025 . S
C4079 C2343 1.012 . S
C4093 C1780 1.624 . S
C4097 C3103 1.642 . S
C4111 C937 1.624 . S
C4115 C2515 1.639 . S
C4133 C2931 1.016 . S
C4129 C1985 1.025 . S
C4147 C753 0.817 . S
C4151 C2685 0.785 . S
C4165 C1809 1.554 . S
C4169 C3267 1.505 . S
C4183 C1173 0.928 . S
C4187 C2181 0.906 . S
C4201 C1105 1.647 . S
C4205 C2847 1.641 . S
C4219 C1633 1.337 . S
C4223 C2601 1.255 . S
C4237 C1553 0.825 . S
C4241 C3019 0.825 . S
C4259 C3273 0.913 . S
C4255 C1729 0.937 . S
C4273 C1340 1.334 . S
C4277 C2349 1.271 . S
C4295 C2427 1.632 . S
C4291 C1604 1.650 . S
C4313 C2263 0.831 . S
C4309 C1252 0.828 . S
C4327 C489 2.034 . S
C4331 C3344 2.072 . S
C4349 C3194 1.805 . S
C4345 C557 1.812 . S
C4363 C636 1.882 1_554 S
C4367 C3428 1.931 . S
C4381 C409 1.538 . S
C4385 C3094 1.431 . S
C4399 C284 1.538 . S
C4403 C2842 1.421 . S
C4421 C2924 1.936 . S
C4417 C20 1.888 . S
C4439 C3026 1.810 . S
C4435 C137 1.807 . S
C4457 C3260 2.073 . S
C4453 C225 2.032 . S
C4475 C3362 1.515 . S
C4471 C1641 1.561 . S
C4489 C1193 0.819 . S
C4493 C3178 0.811 . S
C4511 C3446 1.015 . S
C4507 C1289 1.029 . S
C4529 C3092 1.650 . S
C4525 C1377 1.634 . S
C4547 C2840 1.649 . S
C4543 C1613 1.634 . S
C4561 C1164 1.029 . S
C4565 C2942 1.011 . S
C4583 C3010 0.810 . S
C4579 C1261 0.821 . S
C4597 C1349 1.556 . S
C4601 C3278 1.510 . S
C4619 C3346 0.928 . S
C4615 C1965 0.924 . S
C4633 C849 1.658 . S
C4637 C2522 1.638 . S
C4655 C2590 1.273 . S
C4651 C929 1.335 . S
C4673 C2672 0.826 . S
C4669 C1017 0.822 . S
C4691 C3262 0.910 . S
C4687 C1897 0.941 . S
C4705 C1789 1.338 . S
C4709 C3430 1.257 . S
C4727 C2438 1.640 . S
C4723 C900 1.652 . S
C4745 C2252 0.834 . S
C4741 C733 0.835 . S
C4759 C548 2.028 . S
C4763 C3355 2.066 . S
C4781 C2259 1.803 . S
C4777 C469 1.805 . S
C4795 C401 1.879 . S
C4799 C3439 1.928 . S
C4813 C673 1.535 . S
C4817 C2433 1.409 . S
C4831 C233 1.536 . S
C4835 C2853 1.425 . S
C4853 C2599 1.931 . S
C4849 C117 1.885 . S
C4867 C29 1.802 . S
C4871 C3015 1.803 . S
C4885 C321 2.035 . S
C4889 C2767 2.069 . S
C4907 C3351 1.518 . S
C4903 C2044 1.560 . S
C4921 C997 0.816 . S
C4925 C2265 0.789 . S
C4943 C3435 1.013 1_655 S
C4939 C1877 1.025 . S
C4957 C812 1.624 . S
C4961 C2431 1.642 . S
C4975 C2073 1.623 . S
C4979 C2851 1.639 . S
C4997 C2595 1.008 . S
C4993 C1025 1.032 . S
C5011 C1905 0.817 . S
C5015 C3021 0.782 . S
C5033 C2763 1.512 . S
C5029 C841 1.558 . S
C5051 C3357 0.925 . S
C5047 C1525 0.930 . S
C5069 C2511 1.634 1_565 S
C5065 C1369 1.648 . S
C5083 C1465 1.337 . S
C5087 C2937 1.256 . S
C5105 C2683 0.825 . S
C5101 C1201 0.825 . S
C5119 C1281 0.924 . S
C5123 C2769 0.926 . S
C5137 C1076 1.333 . S
C5141 C3441 1.275 . S
C5159 C3099 1.632 . S
C5155 C1437 1.650 . S
C5177 C3187 0.832 . S
C5173 C1701 0.830 . S
