# Generated by pormake.
# Topology zzz, (3,6)-cn, num edge types: 1
# Building blocks:
#     Node 0, Type 0, BuildingBlock: WUSLED_clean_sbu_0, # of connection points: 3
#     Node 1, Type 0, BuildingBlock: WUSLED_clean_sbu_0, # of connection points: 3
#     Node 2, Type 0, BuildingBlock: WUSLED_clean_sbu_0, # of connection points: 3
#     Node 3, Type 0, BuildingBlock: WUSLED_clean_sbu_0, # of connection points: 3
#     Node 4, Type 0, BuildingBlock: WUSLED_clean_sbu_0, # of connection points: 3
#     Node 5, Type 0, BuildingBlock: WUSLED_clean_sbu_0, # of connection points: 3
#     Node 6, Type 0, BuildingBlock: WUSLED_clean_sbu_0, # of connection points: 3
#     Node 7, Type 0, BuildingBlock: WUSLED_clean_sbu_0, # of connection points: 3
#     Node 8, Type 1, BuildingBlock: BETDIP_clean_sbu_0, # of connection points: 6
#     Node 9, Type 1, BuildingBlock: BETDIP_clean_sbu_0, # of connection points: 6
#     Node 10, Type 1, BuildingBlock: BETDIP_clean_sbu_0, # of connection points: 6
#     Node 11, Type 1, BuildingBlock: BETDIP_clean_sbu_0, # of connection points: 6
#     Edge 12, Type (0, 1), BuildingBlock: ZUJKAS_clean_linker_0, # of connection points: 2
#     Edge 13, Type (0, 1), BuildingBlock: ZUJKAS_clean_linker_0, # of connection points: 2
#     Edge 14, Type (0, 1), BuildingBlock: ZUJKAS_clean_linker_0, # of connection points: 2
#     Edge 15, Type (0, 1), BuildingBlock: ZUJKAS_clean_linker_0, # of connection points: 2
#     Edge 16, Type (0, 1), BuildingBlock: ZUJKAS_clean_linker_0, # of connection points: 2
#     Edge 17, Type (0, 1), BuildingBlock: ZUJKAS_clean_linker_0, # of connection points: 2
#     Edge 18, Type (0, 1), BuildingBlock: ZUJKAS_clean_linker_0, # of connection points: 2
#     Edge 19, Type (0, 1), BuildingBlock: ZUJKAS_clean_linker_0, # of connection points: 2
#     Edge 20, Type (0, 1), BuildingBlock: ZUJKAS_clean_linker_0, # of connection points: 2
#     Edge 21, Type (0, 1), BuildingBlock: ZUJKAS_clean_linker_0, # of connection points: 2
#     Edge 22, Type (0, 1), BuildingBlock: ZUJKAS_clean_linker_0, # of connection points: 2
#     Edge 23, Type (0, 1), BuildingBlock: ZUJKAS_clean_linker_0, # of connection points: 2
#     Edge 24, Type (0, 1), BuildingBlock: ZUJKAS_clean_linker_0, # of connection points: 2
#     Edge 25, Type (0, 1), BuildingBlock: ZUJKAS_clean_linker_0, # of connection points: 2
#     Edge 26, Type (0, 1), BuildingBlock: ZUJKAS_clean_linker_0, # of connection points: 2
#     Edge 27, Type (0, 1), BuildingBlock: ZUJKAS_clean_linker_0, # of connection points: 2
#     Edge 28, Type (0, 1), BuildingBlock: ZUJKAS_clean_linker_0, # of connection points: 2
#     Edge 29, Type (0, 1), BuildingBlock: ZUJKAS_clean_linker_0, # of connection points: 2
#     Edge 30, Type (0, 1), BuildingBlock: ZUJKAS_clean_linker_0, # of connection points: 2
#     Edge 31, Type (0, 1), BuildingBlock: ZUJKAS_clean_linker_0, # of connection points: 2
#     Edge 32, Type (0, 1), BuildingBlock: ZUJKAS_clean_linker_0, # of connection points: 2
#     Edge 33, Type (0, 1), BuildingBlock: ZUJKAS_clean_linker_0, # of connection points: 2
#     Edge 34, Type (0, 1), BuildingBlock: ZUJKAS_clean_linker_0, # of connection points: 2
#     Edge 35, Type (0, 1), BuildingBlock: ZUJKAS_clean_linker_0, # of connection points: 2
# Relax obj value: 0.383
# Max RMSD: 0.260
# Mean RMSD: 0.234
data_MOF--net-zzz--node1-WUSLED_clean_sbu_0--node2-BETDIP_clean_sbu_0--edge1-ZUJKAS_clean_linker_0
_symmetry_space_group_name_H-M    P1
_symmetry_Int_Tables_number       1
_symmetry_cell_setting            triclinic
loop_
_symmetry_equiv_pos_as_xyz
'x, y, z'
_cell_length_a     79.203044
_cell_length_b     79.208238
_cell_length_c     24.36399
_cell_angle_alpha  90.035933
_cell_angle_beta   89.959037
_cell_angle_gamma 90.015372
loop_
_atom_site_label
_atom_site_type_symbol
_atom_site_fract_x
_atom_site_fract_y
_atom_site_fract_z
_atom_type_partial_charge
C0 C 0.7744 0.51463 0.34404 0.0
C1 C 0.78894 0.51151 0.31245 0.0
C2 C 0.80644 0.51089 0.39532 0.0
C3 C 0.80476 0.50961 0.3378 0.0
C4 C 0.79176 0.51376 0.42664 0.0
C5 C 0.77599 0.51559 0.40132 0.0
U6 U 0.73751 0.50658 0.24123 0.0
O7 O 0.71 0.50807 0.25581 0.0
O8 O 0.72222 0.52575 0.19907 0.0
C9 C 0.70789 0.52001 0.21897 0.0
C10 C 0.75766 0.51804 0.31883 0.0
C11 C 0.69407 0.51744 0.17879 0.0
C12 C 0.66421 0.51984 0.156 0.0
C13 C 0.67741 0.5212 0.19405 0.0
C14 C 0.6841 0.51072 0.08664 0.0
C15 C 0.66738 0.51475 0.10158 0.0
C16 C 0.69729 0.512 0.12486 0.0
C17 C 0.76385 0.471 0.18134 0.0
C18 C 0.78255 0.45237 0.131 0.0
C19 C 0.79227 0.46593 0.21446 0.0
C20 C 0.77648 0.47356 0.22075 0.0
C21 C 0.7956 0.45559 0.16873 0.0
C22 C 0.76681 0.46008 0.1372 0.0
C23 C 0.74821 0.48086 0.18301 0.0
O24 O 0.75755 0.52395 0.26838 0.0
O25 O 0.74571 0.50686 0.32788 0.0
O26 O 0.739 0.47914 0.22756 0.0
O27 O 0.74992 0.49664 0.1674 0.0
H28 H 0.78814 0.51074 0.26814 0.0
H29 H 0.81568 0.50717 0.31224 0.0
H30 H 0.79248 0.51511 0.4708 0.0
H31 H 0.76503 0.51814 0.42661 0.0
H32 H 0.65157 0.52322 0.16891 0.0
H33 H 0.67462 0.52548 0.23532 0.0
H34 H 0.687 0.50653 0.04538 0.0
H35 H 0.71003 0.50892 0.11207 0.0
H36 H 0.78479 0.44465 0.095 0.0
H37 H 0.80203 0.46854 0.24442 0.0
H38 H 0.7743 0.4819 0.25524 0.0
H39 H 0.75718 0.45805 0.10633 0.0
C40 C 0.0075 0.77904 0.37108 0.0
C41 C 0.01317 0.793 0.34043 0.0
C42 C 0.00552 0.81232 0.41494 0.0
C43 C 0.01214 0.80942 0.36201 0.0
C44 C 0.99962 0.79832 0.445 0.0
C45 C 1.00063 0.78194 0.42341 0.0
U46 U 1.00011 0.74208 0.26864 0.0
O47 O 0.01819 0.72264 0.2422 0.0
O48 O 0.99504 0.71513 0.28506 0.0
C49 C 0.00846 0.71008 0.25788 0.0
C50 C 0.00958 0.76134 0.35135 0.0
C51 C 0.00577 0.69656 0.2168 0.0
C52 C 0.00601 0.66664 0.19361 0.0
C53 C 0.00778 0.67963 0.23227 0.0
C54 C 1.00001 0.68731 0.12319 0.0
C55 C 1.00221 0.67028 0.13839 0.0
C56 C 1.00172 0.7003 0.162 0.0
C57 C 0.97574 0.77392 0.18504 0.0
C58 C 0.96217 0.79484 0.12762 0.0
C59 C 0.97698 0.80354 0.21003 0.0
C60 C 0.98079 0.78669 0.22134 0.0
C61 C 0.96798 0.80784 0.16226 0.0
C62 C 0.9661 0.778 0.13885 0.0
C63 C 0.98166 0.75659 0.19295 0.0
O64 O 0.99607 0.75169 0.35275 0.0
O65 O 0.01881 0.75894 0.3071 0.0
O66 O 0.99811 0.75477 0.18892 0.0
O67 O 0.97513 0.74857 0.23512 0.0
H68 H 0.01862 0.79126 0.30005 0.0
H69 H 0.01696 0.8198 0.33771 0.0
H70 H 0.99418 0.79999 0.48542 0.0
H71 H 0.99624 0.77146 0.44812 0.0
H72 H 0.008 0.65374 0.2068 0.0
H73 H 0.01096 0.67645 0.27425 0.0
H74 H 0.99686 0.6906 0.0813 0.0
H75 H 1.00003 0.71328 0.14913 0.0
H76 H 0.955 0.79772 0.09099 0.0
H77 H 0.98182 0.8132 0.23726 0.0
H78 H 0.98824 0.78367 0.25725 0.0
H79 H 0.96206 0.76824 0.1106 0.0
C80 C 0.74248 0.01129 0.37671 0.0
C81 C 0.73217 0.99711 0.3672 0.0
C82 C 0.70893 0.01013 0.4183 0.0
C83 C 0.71555 0.99659 0.38744 0.0
C84 C 0.71931 0.02429 0.42743 0.0
C85 C 0.73582 0.02486 0.40681 0.0
U86 U 0.77806 1.00433 0.26937 0.0
O87 O 0.79868 0.02178 0.24865 0.0
O88 O 0.80467 0.9966 0.2804 0.0
C89 C 0.81053 0.0105 0.25778 0.0
C90 C 0.76023 0.01224 0.3571 0.0
C91 C 0.82358 0.00844 0.21421 0.0
C92 C 0.85111 0.99765 0.18557 0.0
C93 C 0.8382 0.99892 0.22485 0.0
C94 C 0.83507 0.01538 0.12395 0.0
C95 C 0.84981 0.00602 0.13479 0.0
C96 C 0.82212 0.01654 0.16302 0.0
C97 C 0.74383 0.98549 0.18047 0.0
C98 C 0.72221 0.97149 0.12689 0.0
C99 C 0.71442 0.98784 0.20722 0.0
C100 C 0.7314 0.99166 0.21622 0.0
C101 C 0.70964 0.97796 0.16189 0.0
C102 C 0.73921 0.97521 0.13625 0.0
C103 C 0.76156 0.9901 0.18849 0.0
O104 O 0.76851 0.99792 0.35179 0.0
O105 O 0.76319 0.02285 0.31678 0.0
O106 O 0.76448 0.00642 0.19117 0.0
O107 O 0.76952 0.98142 0.22644 0.0
H108 H 0.73697 0.9864 0.34437 0.0
H109 H 0.70801 0.98543 0.37989 0.0
H110 H 0.71462 0.03506 0.45023 0.0
H111 H 0.74348 0.03593 0.41473 0.0
H112 H 0.86232 0.99045 0.19556 0.0
H113 H 0.83975 0.99265 0.26402 0.0
H114 H 0.83351 0.0218 0.08504 0.0
H115 H 0.81105 0.02396 0.15319 0.0
H116 H 0.71886 0.96376 0.09185 0.0
H117 H 0.70501 0.99321 0.23438 0.0
H118 H 0.73481 0.99977 0.2502 0.0
H119 H 0.74871 0.97031 0.10843 0.0
C120 C 0.51875 0.7429 0.3425 0.0
C121 C 0.51594 0.72907 0.3075 0.0
C122 C 0.51425 0.70996 0.38632 0.0
C123 C 0.51366 0.71279 0.32918 0.0
C124 C 0.51686 0.72395 0.42103 0.0
C125 C 0.51905 0.74017 0.39936 0.0
U126 U 0.51284 0.78094 0.24308 0.0
O127 O 0.51285 0.80823 0.26182 0.0
O128 O 0.53278 0.7974 0.21021 0.0
C129 C 0.5258 0.81124 0.22947 0.0
C130 C 0.52238 0.76009 0.32134 0.0
C131 C 0.52369 0.82513 0.18947 0.0
C132 C 0.52668 0.85492 0.16663 0.0
C133 C 0.52791 0.84169 0.20461 0.0
C134 C 0.51682 0.83523 0.09771 0.0
C135 C 0.52125 0.85185 0.1125 0.0
C136 C 0.51797 0.82202 0.13584 0.0
C137 C 0.48013 0.75491 0.16536 0.0
C138 C 0.46392 0.7372 0.10378 0.0
C139 C 0.47337 0.72612 0.1913 0.0
C140 C 0.48077 0.7417 0.20357 0.0
C141 C 0.46516 0.72361 0.14072 0.0
C142 C 0.47139 0.7527 0.11601 0.0
C143 C 0.48964 0.77052 0.17418 0.0
O144 O 0.52993 0.76112 0.27336 0.0
O145 O 0.51049 0.77149 0.32803 0.0
O146 O 0.48612 0.77889 0.21937 0.0
O147 O 0.50591 0.76931 0.16446 0.0
H148 H 0.51571 0.73077 0.26341 0.0
H149 H 0.51145 0.70243 0.30107 0.0
H150 H 0.5177 0.72234 0.46506 0.0
H151 H 0.52135 0.7506 0.42719 0.0
H152 H 0.53035 0.8675 0.17935 0.0
H153 H 0.53239 0.84437 0.24572 0.0
H154 H 0.51237 0.83243 0.05668 0.0
H155 H 0.51453 0.80936 0.12329 0.0
H156 H 0.45792 0.73561 0.06417 0.0
H157 H 0.47441 0.71593 0.22075 0.0
H158 H 0.4874 0.7433 0.24207 0.0
H159 H 0.47086 0.76279 0.08603 0.0
C160 C 0.24603 0.50578 0.94338 0.0
C161 C 0.23819 0.52028 0.92213 0.0
C162 C 0.21184 0.50485 0.90731 0.0
C163 C 0.22137 0.51983 0.90426 0.0
C164 C 0.21966 0.49033 0.92894 0.0
C165 C 0.23658 0.49074 0.94629 0.0
U166 U 0.28241 0.5004 0.04846 0.0
O167 O 0.30872 0.49158 0.03833 0.0
O168 O 0.30363 0.51766 0.06359 0.0
C169 C 0.31507 0.50578 0.05735 0.0
C170 C 0.26409 0.50667 0.96048 0.0
C171 C 0.3278 0.50425 0.10191 0.0
C172 C 0.35593 0.49574 0.13198 0.0
C173 C 0.3435 0.4967 0.09106 0.0
C174 C 0.33719 0.50986 0.19559 0.0
C175 C 0.35301 0.50246 0.18467 0.0
C176 C 0.32472 0.51067 0.15486 0.0
C177 C 0.24804 0.48519 0.14278 0.0
C178 C 0.22507 0.47878 0.20484 0.0
C179 C 0.21921 0.48532 0.10948 0.0
C180 C 0.23645 0.48729 0.09992 0.0
C181 C 0.2133 0.48139 0.16237 0.0
C182 C 0.24234 0.48066 0.19503 0.0
C183 C 0.26592 0.4888 0.13365 0.0
O184 O 0.26782 0.51818 0.99742 0.0
O185 O 0.27211 0.49233 0.96852 0.0
O186 O 0.27344 0.47895 0.09775 0.0
O187 O 0.26938 0.50488 0.12669 0.0
H188 H 0.24514 0.53202 0.91907 0.0
H189 H 0.21576 0.53131 0.88848 0.0
H190 H 0.21281 0.47852 0.93147 0.0
H191 H 0.24223 0.47927 0.96203 0.0
H192 H 0.36799 0.49008 0.12195 0.0
H193 H 0.34622 0.49169 0.05063 0.0
H194 H 0.3344 0.51493 0.23587 0.0
H195 H 0.31271 0.51645 0.16479 0.0
H196 H 0.22093 0.47604 0.24626 0.0
H197 H 0.21049 0.48727 0.07583 0.0
H198 H 0.24076 0.49093 0.05954 0.0
H199 H 0.25118 0.47912 0.22859 0.0
C200 C 1.00296 0.25171 0.97425 0.0
C201 C 0.01718 0.24154 0.98436 0.0
C202 C 1.0049 0.2184 0.93088 0.0
C203 C 0.01811 0.22505 0.96315 0.0
C204 C 0.99064 0.22861 0.92146 0.0
C205 C 0.9897 0.24501 0.94287 0.0
U206 U 0.00916 0.28689 0.08314 0.0
O207 O 0.01712 0.31341 0.07299 0.0
O208 O 0.99187 0.30764 0.1046 0.0
C209 C 1.00312 0.31943 0.0944 0.0
C210 C 1.00174 0.26941 0.99428 0.0
C211 C 1.00508 0.33251 0.13735 0.0
C212 C 1.00122 0.36167 0.16664 0.0
C213 C 0.99996 0.3491 0.12633 0.0
C214 C 0.01287 0.34123 0.22993 0.0
C215 C 0.00765 0.35794 0.21916 0.0
C216 C 0.0116 0.32865 0.18944 0.0
C217 C 0.02692 0.25176 0.16895 0.0
C218 C 0.04147 0.22918 0.21643 0.0
C219 C 0.02311 0.22273 0.13962 0.0
C220 C 0.01963 0.23988 0.13342 0.0
C221 C 0.03389 0.21717 0.1817 0.0
C222 C 0.03802 0.24637 0.21002 0.0
C223 C 0.02281 0.26971 0.16335 0.0
O224 O 0.99088 0.27221 0.03408 0.0
O225 O 0.01597 0.27774 1.00062 0.0
O226 O 0.03179 0.2779 0.12662 0.0
O227 O 0.00658 0.27306 0.16069 0.0
H228 H 0.02764 0.24636 0.00833 0.0
H229 H 0.02935 0.21767 0.97106 0.0
H230 H 0.98009 0.2239 0.89773 0.0
H231 H 0.97858 0.25256 0.93451 0.0
H232 H 0.99682 0.37425 0.15688 0.0
H233 H 0.9948 0.35234 0.08651 0.0
H234 H 0.01807 0.33788 0.26953 0.0
H235 H 0.01564 0.31591 0.19884 0.0
H236 H 0.04996 0.22528 0.24887 0.0
H237 H 0.01688 0.21379 0.11271 0.0
H238 H 0.01095 0.24387 0.10164 0.0
H239 H 0.04383 0.25542 0.23752 0.0
C240 C 0.27013 0.02788 0.97849 0.0
C241 C 0.28445 0.02704 0.01256 0.0
C242 C 0.30286 0.02268 0.93291 0.0
C243 C 0.30058 0.02442 0.99007 0.0
C244 C 0.28843 0.02327 0.89917 0.0
C245 C 0.27233 0.02584 0.92167 0.0
U246 U 0.2311 0.02211 0.07475 0.0
O247 O 0.21578 0.0422 0.11238 0.0
O248 O 0.20392 0.02424 0.05592 0.0
C249 C 0.2016 0.03663 0.09109 0.0
C250 C 0.25304 0.03214 1.00009 0.0
C251 C 0.18747 0.03461 0.13033 0.0
C252 C 0.16038 0.04433 0.16561 0.0
C253 C 0.17352 0.04545 0.1272 0.0
C254 C 0.17485 0.02128 0.21067 0.0
C255 C 0.16089 0.03231 0.20819 0.0
C256 C 0.18802 0.02245 0.17221 0.0
C257 C 0.25544 0.98685 0.14383 0.0
C258 C 0.27182 0.96699 0.19735 0.0
C259 C 0.2854 0.98364 0.12644 0.0
C260 C 0.26989 0.99098 0.11349 0.0
C261 C 0.28664 0.97199 0.16985 0.0
C262 C 0.25634 0.97445 0.1846 0.0
C263 C 0.24 0.99681 0.13767 0.0
O264 O 0.24084 0.02132 0.98977 0.0
O265 O 0.25214 0.0386 0.04977 0.0
O266 O 0.24163 0.01271 0.15204 0.0
O267 O 0.23175 0.99477 0.09135 0.0
H268 H 0.28325 0.02862 0.05654 0.0
H269 H 0.31129 0.0238 0.0176 0.0
H270 H 0.28959 0.02226 0.85501 0.0
H271 H 0.26158 0.02663 0.89431 0.0
H272 H 0.14977 0.05286 0.16174 0.0
H273 H 0.17284 0.05493 0.09522 0.0
H274 H 0.17582 0.012 0.24313 0.0
H275 H 0.19873 0.01401 0.17559 0.0
H276 H 0.27231 0.95783 0.23032 0.0
H277 H 0.29654 0.98792 0.10475 0.0
H278 H 0.26932 1.00054 0.0818 0.0
H279 H 0.24524 0.97111 0.20823 0.0
C280 C 0.49645 0.27277 0.96355 0.0
C281 C 0.49596 0.28739 0.99638 0.0
C282 C 0.5009 0.30526 0.91598 0.0
C283 C 0.49822 0.30344 0.97289 0.0
C284 C 0.5018 0.29054 0.88365 0.0
C285 C 0.49959 0.27455 0.90713 0.0
U286 U 0.50107 0.23488 0.06491 0.0
O287 O 0.48054 0.21911 0.09742 0.0
O288 O 0.50045 0.20747 0.04763 0.0
C289 C 0.48741 0.20496 0.08012 0.0
C290 C 0.49237 0.25574 0.98562 0.0
C291 C 0.4891 0.19121 0.12132 0.0
C292 C 0.49336 0.16138 0.14201 0.0
C293 C 0.49232 0.17462 0.10393 0.0
C294 C 0.48795 0.18107 0.21582 0.0
C295 C 0.49111 0.16438 0.19857 0.0
C296 C 0.48702 0.1943 0.1778 0.0
C297 C 0.5344 0.26007 0.14351 0.0
C298 C 0.55599 0.2745 0.19604 0.0
C299 C 0.53845 0.29021 0.13253 0.0
C300 C 0.53014 0.27532 0.11791 0.0
C301 C 0.55117 0.29003 0.17287 0.0
C302 C 0.54762 0.25965 0.18155 0.0
C303 C 0.52435 0.24481 0.13424 0.0
O304 O 0.50392 0.24395 0.97966 0.0
O305 O 0.48461 0.25503 0.03332 0.0
O306 O 0.50808 0.24651 0.14331 0.0
O307 O 0.52781 0.23631 0.08928 0.0
H308 H 0.49344 0.2865 0.03997 0.0
H309 H 0.4973 0.31444 0.99911 0.0
H310 H 0.50412 0.29137 0.83993 0.0
H311 H 0.49997 0.26353 0.88079 0.0
H312 H 0.49607 0.14879 0.12703 0.0
H313 H 0.49397 0.17186 0.0607 0.0
H314 H 0.48586 0.18393 0.25874 0.0
H315 H 0.4845 0.20693 0.19277 0.0
H316 H 0.56591 0.27391 0.22658 0.0
H317 H 0.53429 0.30196 0.1143 0.0
H318 H 0.51996 0.2758 0.0883 0.0
H319 H 0.5511 0.24791 0.20141 0.0
Tb320 Tb 0.01678 0.01043 0.72078 0.0
Tb321 Tb 0.99544 0.01997 0.62736 0.0
C322 C 0.02821 0.99791 0.80798 0.0
C323 C 0.0217 0.98504 0.84551 0.0
C324 C 1.00503 0.97929 0.84025 0.0
C325 C 0.99851 0.96765 0.87763 0.0
C326 C 0.0086 0.96151 0.92064 0.0
C327 C 0.02535 0.96725 0.92546 0.0
C328 C 0.03184 0.97898 0.88818 0.0
C329 C 0.03426 0.02208 0.63552 0.0
C330 C 1.00403 0.98216 0.63901 0.0
C331 C 0.98277 0.03175 0.54069 0.0
C332 C 0.98887 0.04289 0.49718 0.0
C333 C 0.00569 0.04844 0.49691 0.0
C334 C 0.01161 0.05854 0.4541 0.0
C335 C 1.00075 0.06331 0.41117 0.0
C336 C 0.98393 0.05761 0.4116 0.0
C337 C 0.97805 0.04743 0.45429 0.0
C338 C 0.97817 0.00824 0.7132 0.0
C339 C 0.00926 0.04852 0.70696 0.0
O340 O 0.01922 0.0117 0.80605 0.0
O341 O 0.03258 0.99267 0.75909 0.0
O342 O 0.02133 0.01288 0.63397 0.0
O343 O 0.03869 0.02373 0.68633 0.0
O344 O 0.0073 0.98584 0.69098 0.0
O345 O 1.00146 0.99434 0.60325 0.0
O346 O 0.99049 0.01725 0.54359 0.0
O347 O 0.9807 0.03861 0.58902 0.0
O348 O 0.99094 0.01762 0.71403 0.0
O349 O 0.97377 0.00637 0.66255 0.0
O350 O 1.00512 0.04467 0.65571 0.0
O351 O 0.01242 0.03653 0.74297 0.0
H352 H 0.99704 0.98388 0.80742 0.0
H353 H 0.98564 0.96329 0.87238 0.0
H354 H 0.03337 0.96282 0.95844 0.0
H355 H 0.0447 0.98342 0.89291 0.0
H356 H 0.01419 0.04496 0.52983 0.0
H357 H 0.02456 0.06292 0.45527 0.0
H358 H 0.97534 0.06098 0.37883 0.0
H359 H 0.96509 0.04308 0.45377 0.0
Tb360 Tb 0.51003 0.02203 0.71897 0.0
Tb361 Tb 0.50019 0.99999 0.61918 0.0
C362 C 0.51894 0.03019 0.81433 0.0
C363 C 0.52986 0.02303 0.85675 0.0
C364 C 0.53682 0.00687 0.85048 0.0
C365 C 0.54761 1.00037 0.89053 0.0
C366 C 0.55183 0.01012 0.93675 0.0
C367 C 0.54468 0.02623 0.94307 0.0
C368 C 0.53368 0.0326 0.90342 0.0
C369 C 0.50276 0.04165 0.63315 0.0
C370 C 0.53787 0.01052 0.63307 0.0
C371 C 0.48937 0.98619 0.53336 0.0
C372 C 0.47418 0.98479 0.49965 0.0
C373 C 0.45923 0.99324 0.5135 0.0
C374 C 0.44468 0.99085 0.48189 0.0
C375 C 0.44495 0.97996 0.43614 0.0
C376 C 0.46009 0.97173 0.42232 0.0
C377 C 0.47456 0.97414 0.45384 0.0
C378 C 0.51344 0.98376 0.70441 0.0
C379 C 0.47126 0.01472 0.69884 0.0
O380 O 0.50522 0.02161 0.80343 0.0
O381 O 0.52664 0.03539 0.76987 0.0
O382 O 0.50246 0.02584 0.63674 0.0
O383 O 0.50708 0.04721 0.68113 0.0
O384 O 0.53448 0.01354 0.68561 0.0
O385 O 0.52573 0.00738 0.59723 0.0
O386 O 0.49699 1.00087 0.53385 0.0
O387 O 0.48852 0.97926 0.58207 0.0
O388 O 0.50349 0.99613 0.70567 0.0
O389 O 0.51576 0.97968 0.65352 0.0
O390 O 0.47512 0.00648 0.65283 0.0
O391 O 0.48287 0.02163 0.73087 0.0
H392 H 0.5342 0.99947 0.81411 0.0
H393 H 0.55317 0.98802 0.88433 0.0
H394 H 0.54776 0.03396 0.97839 0.0
H395 H 0.5284 0.04512 0.90871 0.0
H396 H 0.45878 1.00152 0.54889 0.0
H397 H 0.43326 0.99751 0.49319 0.0
H398 H 0.46065 0.96308 0.38791 0.0
H399 H 0.48602 0.96745 0.44294 0.0
Tb400 Tb 0.49791 0.51222 0.69945 0.0
Tb401 Tb 0.51791 0.50287 0.60242 0.0
C402 C 0.48709 0.5239 0.78899 0.0
C403 C 0.48021 0.53957 0.81181 0.0
C404 C 0.48072 0.55472 0.78221 0.0
C405 C 0.47476 0.56964 0.80596 0.0
C406 C 0.4681 0.56957 0.85953 0.0
C407 C 0.46726 0.55423 0.8884 0.0
C408 C 0.4733 0.53936 0.8647 0.0
C409 C 0.47972 0.50318 0.61309 0.0
C410 C 0.50913 0.54105 0.61447 0.0
C411 C 0.52892 0.49081 0.51392 0.0
C412 C 0.53644 0.47517 0.49261 0.0
C413 C 0.5294 0.45928 0.50385 0.0
C414 C 0.53606 0.4448 0.47923 0.0
C415 C 0.54992 0.44596 0.44319 0.0
C416 C 0.55731 0.46184 0.43387 0.0
C417 C 0.55059 0.4763 0.45823 0.0
C418 C 0.53617 0.51194 0.68863 0.0
C419 C 0.50665 0.47398 0.68694 0.0
O420 O 0.50298 0.52427 0.77422 0.0
O421 O 0.47761 0.51605 0.75332 0.0
O422 O 0.4929 0.51206 0.61283 0.0
O423 O 0.47581 0.49977 0.66346 0.0
O424 O 0.50406 0.53742 0.6651 0.0
O425 O 0.51303 0.5289 0.57959 0.0
O426 O 0.51301 0.49028 0.52857 0.0
O427 O 0.53819 0.49951 0.54809 0.0
O428 O 0.52299 0.50304 0.68904 0.0
O429 O 0.53999 0.51529 0.63816 0.0
O430 O 0.51191 0.47765 0.63659 0.0
O431 O 0.50254 0.48608 0.72176 0.0
H432 H 0.48586 0.555 0.74112 0.0
H433 H 0.47541 0.58124 0.78252 0.0
H434 H 0.4624 0.55379 0.92994 0.0
H435 H 0.47281 0.52773 0.88804 0.0
H436 H 0.5185 0.45808 0.53048 0.0
H437 H 0.52994 0.4328 0.48685 0.0
H438 H 0.56816 0.46313 0.40711 0.0
H439 H 0.55625 0.48845 0.44934 0.0
Tb440 Tb 0.99896 0.50163 0.74317 0.0
Tb441 Tb 0.00977 0.52158 0.63897 0.0
C442 C 0.98871 0.4952 0.83806 0.0
C443 C 0.9752 0.48484 0.86162 0.0
C444 C 0.9756 0.48078 0.91751 0.0
C445 C 0.96245 0.4715 0.94102 0.0
C446 C 0.94868 0.46622 0.90889 0.0
C447 C 0.94858 0.46997 0.85246 0.0
C448 C 0.96178 0.47917 0.82895 0.0
C449 C 1.00336 0.48075 0.6581 0.0
C450 C 0.97154 0.51139 0.65233 0.0
C451 C 0.02209 0.5319 0.55032 0.0
C452 C 0.03567 0.5262 0.51426 0.0
C453 C 0.04464 0.51141 0.52632 0.0
C454 C 0.05726 0.50576 0.49084 0.0
C455 C 0.06105 0.51482 0.44279 0.0
C456 C 0.05195 0.52961 0.43086 0.0
C457 C 0.03933 0.53525 0.46644 0.0
C458 C 0.99922 0.53977 0.72393 0.0
C459 C 0.03778 0.50714 0.72028 0.0
O460 O 0.98375 0.50841 0.80972 0.0
O461 O 1.00096 0.48683 0.81403 0.0
O462 O 1.00526 0.49645 0.66085 0.0
O463 O 0.99852 0.47598 0.70657 0.0
O464 O 0.97444 0.50726 0.70439 0.0
O465 O 0.98381 0.51566 0.61815 0.0
O466 O 0.00914 0.52166 0.55331 0.0
O467 O 0.02674 0.53763 0.59849 0.0
O468 O 0.00789 0.52648 0.72517 0.0
O469 O 0.99712 0.54395 0.673 0.0
O470 O 0.03397 0.51163 0.66922 0.0
O471 O 0.02596 0.50455 0.75792 0.0
H472 H 0.98592 0.48504 0.94318 0.0
H473 H 0.96278 0.46898 0.98469 0.0
H474 H 0.93821 0.46592 0.82663 0.0
H475 H 0.96138 0.48207 0.78551 0.0
H476 H 0.04182 0.50419 0.56292 0.0
H477 H 0.06394 0.49423 0.50075 0.0
H478 H 0.05476 0.53697 0.39452 0.0
H479 H 0.03243 0.54667 0.45661 0.0
H480 H 0.1439 0.05865 0.25686 0.0
H481 H 0.12164 0.05736 0.32638 0.0
H482 H 0.12415 1.00301 0.32461 0.0
H483 H 0.14639 1.00416 0.25494 0.0
H484 H 0.08998 0.04292 0.32622 0.0
H485 H 0.12986 0.01348 0.48679 0.0
H486 H 0.1386 0.02235 0.42478 0.0
H487 H 0.12916 1.00169 0.4239 0.0
C488 C 0.13965 0.04639 0.27083 0.0
C489 C 0.14708 0.0315 0.25024 0.0
C490 C 0.12693 0.04568 0.31083 0.0
C491 C 0.12134 0.0301 0.33153 0.0
C492 C 0.12848 0.01521 0.31037 0.0
H493 H 0.03013 0.01237 0.52824 0.0
H494 H 0.05058 0.01499 0.45302 0.0
C495 C 0.14124 0.01589 0.27044 0.0
C496 C 0.10813 0.02949 0.37536 0.0
H497 H 0.1006 0.01564 0.50603 0.0
C498 C 0.09231 0.03697 0.36556 0.0
C499 C 0.11119 0.02196 0.42712 0.0
C500 C 0.12816 0.01455 0.44166 0.0
C501 C 0.07946 0.03691 0.40567 0.0
C502 C 0.08238 0.02894 0.45682 0.0
C503 C 0.09826 0.02164 0.46677 0.0
C504 C 0.06935 0.02825 0.5012 0.0
C505 C 0.06302 0.04574 0.3933 0.0
C506 C 0.07303 0.0347 0.5536 0.0
C507 C 0.06141 0.03311 0.59668 0.0
C508 C 0.04586 0.02493 0.58849 0.0
C509 C 0.042 0.01877 0.53581 0.0
C510 C 0.05365 0.02036 0.49265 0.0
H511 H 0.06442 0.05503 0.35943 0.0
H512 H 0.05349 0.03625 0.38047 0.0
H513 H 0.0581 0.0524 0.43011 0.0
H514 H 0.08502 0.04084 0.56139 0.0
H515 H 0.06474 0.03801 0.63671 0.0
H516 H 0.50399 0.16492 0.30351 0.0
H517 H 0.50417 0.14218 0.37121 0.0
H518 H 0.4806 0.10879 0.25454 0.0
H519 H 0.47985 0.1316 0.18683 0.0
H520 H 0.47427 0.12334 0.40994 0.0
H521 H 0.52302 0.08232 0.31321 0.0
H522 H 0.52116 0.10451 0.29726 0.0
H523 H 0.50612 0.08978 0.27023 0.0
C524 C 0.49869 0.15281 0.29212 0.0
C525 C 0.49186 0.15023 0.23938 0.0
C526 C 0.49892 0.13977 0.3309 0.0
C527 C 0.49253 0.12374 0.31785 0.0
C528 C 0.48583 0.12099 0.26528 0.0
H529 H 0.49172 0.03273 0.5292 0.0
H530 H 0.48778 0.05163 0.44991 0.0
C531 C 0.48548 0.13407 0.2265 0.0
C532 C 0.49242 0.11015 0.3601 0.0
H533 H 0.51096 0.07274 0.39597 0.0
C534 C 0.48223 0.11223 0.40675 0.0
C535 C 0.50264 0.09556 0.35561 0.0
C536 C 0.51396 0.09283 0.30663 0.0
C537 C 0.48217 0.10028 0.44939 0.0
C538 C 0.49294 0.08603 0.44613 0.0
C539 C 0.50273 0.08365 0.3986 0.0
C540 C 0.49518 0.07429 0.49346 0.0
C541 C 0.47053 0.10305 0.49761 0.0
C542 C 0.50088 0.08062 0.54393 0.0
C543 C 0.50313 0.0699 0.58881 0.0
C544 C 0.49993 0.0525 0.58437 0.0
C545 C 0.49438 0.04604 0.53376 0.0
C546 C 0.49209 0.05685 0.48854 0.0
H547 H 0.45949 0.11094 0.48601 0.0
H548 H 0.46587 0.09089 0.51444 0.0
H549 H 0.47748 0.10981 0.5305 0.0
H550 H 0.50376 0.09392 0.54858 0.0
H551 H 0.50755 0.07529 0.62707 0.0
H552 H 0.37426 0.47624 0.21105 0.0
H553 H 0.39594 0.47545 0.28269 0.0
H554 H 0.38421 0.52688 0.32649 0.0
H555 H 0.36235 0.52764 0.25575 0.0
H556 H 0.42428 0.49296 0.29865 0.0
H557 H 0.38157 0.5049 0.47421 0.0
H558 H 0.37377 0.50012 0.40643 0.0
H559 H 0.38038 0.52124 0.42348 0.0
C560 C 0.3763 0.48739 0.23592 0.0
C561 C 0.36641 0.50195 0.22789 0.0
C562 C 0.3887 0.48692 0.27701 0.0
C563 C 0.39156 0.50098 0.31102 0.0
C564 C 0.38197 0.51566 0.30216 0.0
H565 H 0.48166 0.51817 0.51193 0.0
H566 H 0.46074 0.51714 0.43793 0.0
C567 C 0.36946 0.5161 0.26148 0.0
C568 C 0.4047 0.50038 0.35509 0.0
H569 H 0.41104 0.50703 0.49228 0.0
C570 C 0.42135 0.49595 0.34105 0.0
C571 C 0.40093 0.504 0.41075 0.0
C572 C 0.38316 0.50765 0.42979 0.0
C573 C 0.4343 0.49534 0.38065 0.0
C574 C 0.43067 0.49971 0.43586 0.0
C575 C 0.41396 0.50385 0.45001 0.0
C576 C 0.44386 0.4999 0.47985 0.0
C577 C 0.45165 0.48964 0.36298 0.0
C578 C 0.44132 0.49087 0.52887 0.0
C579 C 0.45314 0.49169 0.57158 0.0
C580 C 0.46782 0.50152 0.5663 0.0
C581 C 0.47053 0.51037 0.51704 0.0
C582 C 0.45861 0.50969 0.4745 0.0
H583 H 0.45108 0.48183 0.32512 0.0
H584 H 0.45953 0.50088 0.35391 0.0
H585 H 0.45795 0.4822 0.39568 0.0
H586 H 0.43008 0.48325 0.5343 0.0
H587 H 0.45069 0.48474 0.60903 0.0
H588 H 1.00126 0.35509 0.32991 0.0
H589 H 1.00217 0.37724 0.39988 0.0
H590 H 0.01706 0.41349 0.2772 0.0
H591 H 0.01635 0.39141 0.20702 0.0
H592 H 0.02879 0.39791 0.43372 0.0
H593 H 0.97654 0.43667 0.34877 0.0
H594 H 0.98045 0.41526 0.32674 0.0
H595 H 0.99336 0.43221 0.30146 0.0
C596 C 1.00488 0.36773 0.31772 0.0
C597 C 0.00863 0.37139 0.26246 0.0
C598 C 1.0053 0.38043 0.35785 0.0
C599 C 0.00939 0.39715 0.34382 0.0
C600 C 0.01345 0.40081 0.28897 0.0
H601 H 0.01282 0.48873 0.55199 0.0
H602 H 0.01558 0.46924 0.47364 0.0
C603 C 0.01304 0.38812 0.24879 0.0
C604 C 0.00961 0.41062 0.38681 0.0
H605 H 0.99092 0.44774 0.42577 0.0
C606 C 0.02052 0.40881 0.43187 0.0
C607 C 0.99893 0.42496 0.38437 0.0
C608 C 0.98654 0.4274 0.33803 0.0
C609 C 0.02097 0.42081 0.47449 0.0
C610 C 0.00998 0.43492 0.47278 0.0
C611 C 0.99936 0.43697 0.42711 0.0
C612 C 0.00853 0.44696 0.51976 0.0
C613 C 0.03331 0.41831 0.52092 0.0
C614 C 1.00343 0.44105 0.57148 0.0
C615 C 1.00186 0.45213 0.61589 0.0
C616 C 1.00523 0.46945 0.60979 0.0
C617 C 0.01017 0.47548 0.55795 0.0
C618 C 0.01174 0.46433 0.51321 0.0
H619 H 0.04408 0.41019 0.50832 0.0
H620 H 0.03833 0.43057 0.53581 0.0
H621 H 0.02678 0.41198 0.55557 0.0
H622 H 1.00051 0.42782 0.57746 0.0
H623 H 0.99792 0.44708 0.65518 0.0
H624 H 0.86272 0.03187 0.07283 0.0
H625 H 0.88529 0.03068 0.00451 0.0
H626 H 0.89137 0.9774 0.03479 0.0
H627 H 0.86889 0.97856 0.10395 0.0
H628 H 0.92175 0.99275 0.025 0.0
H629 H 0.88113 0.01218 0.85146 0.0
H630 H 0.88095 0.0273 0.90626 0.0
H631 H 0.8726 0.00643 0.9175 0.0
C632 C 0.86874 0.01985 0.06468 0.0
C633 C 0.86381 1.00527 0.09358 0.0
C634 C 0.88167 0.01918 0.02545 0.0
C635 C 0.88985 1.00388 0.0134 0.0
C636 C 0.88523 0.98936 0.04302 0.0
H637 H 0.9488 0.9904 0.71379 0.0
H638 H 0.92829 0.9878 0.78848 0.0
C639 C 0.87237 0.99004 0.08266 0.0
C640 C 0.90317 1.00305 0.9699 0.0
H641 H 0.91076 0.01228 0.83505 0.0
C642 C 0.91932 0.99694 0.98339 0.0
C643 C 0.89999 0.0082 0.91517 0.0
C644 C 0.88269 0.01372 0.89651 0.0
C645 C 0.93241 0.99623 0.94418 0.0
C646 C 0.92943 1.00215 0.89016 0.0
C647 C 0.91318 0.00791 0.87648 0.0
C648 C 0.9428 1.00244 0.8468 0.0
C649 C 0.9492 0.98884 0.96078 0.0
C650 C 0.958 0.01135 0.85457 0.0
C651 C 0.96983 0.01274 0.81186 0.0
C652 C 0.9666 0.00545 0.76029 0.0
C653 C 0.95161 0.99622 0.75297 0.0
C654 C 0.93986 0.99474 0.79569 0.0
H655 H 0.94789 0.98026 0.99661 0.0
H656 H 0.95505 0.9817 0.92644 0.0
H657 H 0.95788 0.99921 0.97267 0.0
H658 H 0.96048 0.01772 0.89305 0.0
H659 H 0.98125 0.01997 0.81869 0.0
H660 H 0.50986 0.8843 0.12755 0.0
H661 H 0.50883 0.90723 0.06023 0.0
H662 H 0.53023 0.87424 0.93776 0.0
H663 H 0.53116 0.85126 0.00461 0.0
H664 H 0.53375 0.92286 1.00262 0.0
H665 H 0.48954 0.89218 0.85739 0.0
H666 H 0.49321 0.88412 0.92558 0.0
H667 H 0.50789 0.87961 0.87108 0.0
C668 C 0.51437 0.88192 0.08629 0.0
C669 C 0.52047 0.86586 0.07147 0.0
C670 C 0.51373 0.89505 0.04777 0.0
C671 C 0.51915 0.89244 0.9935 0.0
C672 C 0.52551 0.87649 0.97884 0.0
H673 H 0.5309 0.95419 0.70208 0.0
H674 H 0.53282 0.93277 0.77427 0.0
C675 C 0.52606 0.86334 0.01722 0.0
C676 C 0.51848 0.90645 0.95258 0.0
H677 H 0.50335 0.91705 0.82571 0.0
C678 C 0.527 0.92162 0.96413 0.0
C679 C 0.50964 0.90491 0.90228 0.0
C680 C 0.49941 0.8894 0.88848 0.0
C681 C 0.52724 0.93507 0.92632 0.0
C682 C 0.51863 0.93338 0.8758 0.0
C683 C 0.51002 0.91829 0.86437 0.0
C684 C 0.51848 0.94705 0.83388 0.0
C685 C 0.53703 0.95083 0.93999 0.0
C686 C 0.50989 0.9623 0.84352 0.0
C687 C 0.50865 0.97453 0.80207 0.0
C688 C 0.51609 0.97177 0.7504 0.0
C689 C 0.52507 0.95671 0.74147 0.0
C690 C 0.52616 0.94444 0.78265 0.0
H691 H 0.54554 0.94894 0.9757 0.0
H692 H 0.54469 0.95496 0.90424 0.0
H693 H 0.52807 0.96115 0.95006 0.0
H694 H 0.50371 0.96452 0.88252 0.0
H695 H 0.50155 0.98595 0.81005 0.0
H696 H 0.66793 0.52486 0.99377 0.0
H697 H 0.64482 0.52431 0.9272 0.0
H698 H 0.61199 0.50233 0.04896 0.0
H699 H 0.63502 0.50293 0.11588 0.0
H700 H 0.62676 0.49818 0.88541 0.0
H701 H 0.58344 0.54136 0.99643 0.0
H702 H 0.60531 0.53885 0.01551 0.0
H703 H 0.5899 0.52341 0.03612 0.0
C704 C 0.65583 0.51982 0.0064 0.0
C705 C 0.65336 0.51402 0.06043 0.0
C706 C 0.64258 0.51959 0.96828 0.0
C707 C 0.62651 0.51359 0.98316 0.0
C708 C 0.62409 0.50748 0.03675 0.0
H709 H 0.53306 0.49981 0.79382 0.0
H710 H 0.55463 0.50004 0.86645 0.0
C711 C 0.63732 0.50778 0.075 0.0
C712 C 0.61248 0.51338 0.94214 0.0
H713 H 0.57241 0.52772 0.91743 0.0
C714 C 0.61491 0.50469 0.89244 0.0
C715 C 0.59693 0.52181 0.95117 0.0
C716 C 0.59375 0.53202 1.00245 0.0
C717 C 0.60227 0.50412 0.85192 0.0
C718 C 0.58679 0.51264 0.86078 0.0
C719 C 0.58425 0.52116 0.91067 0.0
C720 C 0.57335 0.51322 0.81797 0.0
C721 C 0.60552 0.49418 0.80012 0.0
C722 C 0.57651 0.52095 0.76714 0.0
C723 C 0.56423 0.52089 0.72584 0.0
C724 C 0.54848 0.51312 0.73442 0.0
C725 C 0.54509 0.50585 0.78594 0.0
C726 C 0.5574 0.50596 0.82742 0.0
H727 H 0.61593 0.48493 0.80551 0.0
H728 H 0.59399 0.4873 0.78692 0.0
H729 H 0.60918 0.50299 0.76677 0.0
H730 H 0.58856 0.52693 0.75921 0.0
H731 H 0.56719 0.5267 0.68676 0.0
H732 H 0.98745 0.63905 0.15019 0.0
H733 H 0.98623 0.61601 0.08318 0.0
H734 H 0.01232 0.64701 0.96508 0.0
H735 H 0.01395 0.66996 0.03217 0.0
H736 H 0.97164 0.61502 0.97787 0.0
H737 H 0.04067 0.60355 0.9679 0.0
H738 H 0.031 0.61588 0.02178 0.0
H739 H 0.03465 0.62507 0.95539 0.0
C740 C 0.99307 0.64094 0.11013 0.0
C741 C 1.0009 0.65639 0.09686 0.0
C742 C 0.99226 0.62777 0.07171 0.0
C743 C 0.99939 0.62965 0.01927 0.0
C744 C 0.00697 0.64513 0.00553 0.0
H745 H 0.98391 0.57059 0.72317 0.0
H746 H 0.98311 0.59157 0.79698 0.0
C747 C 0.00772 0.65833 0.04383 0.0
C748 C 0.99881 0.61548 0.97886 0.0
H749 H 0.02379 0.58945 0.90156 0.0
C750 C 0.98304 0.60939 0.96134 0.0
C751 C 0.01367 0.60793 0.95781 0.0
C752 C 0.03097 0.6133 0.97697 0.0
C753 C 0.98175 0.59629 0.9224 0.0
C754 C 0.99662 0.58917 0.89986 0.0
C755 C 0.01238 0.59497 0.91845 0.0
C756 C 0.99615 0.57594 0.85617 0.0
C757 C 0.96446 0.59009 0.90612 0.0
C758 C 1.00384 0.56015 0.86449 0.0
C759 C 1.00432 0.54811 0.82221 0.0
C760 C 0.99728 0.55171 0.77054 0.0
C761 C 0.98936 0.5674 0.76258 0.0
C762 C 0.98884 0.57939 0.80487 0.0
H763 H 0.95479 0.59339 0.9374 0.0
H764 H 0.96074 0.5961 0.86683 0.0
H765 H 0.96442 0.57619 0.90012 0.0
H766 H 0.00963 0.55719 0.90358 0.0
H767 H 0.01056 0.53616 0.82955 0.0
H768 H 0.03347 0.20103 0.28015 0.0
H769 H 0.03416 0.17079 0.29707 0.0
H770 H 0.0395 0.16141 0.12346 0.0
H771 H 0.03874 0.1919 0.10606 0.0
H772 H 0.01472 0.14289 0.16645 0.0
H773 H 0.07069 0.13569 0.2979 0.0
H774 H 0.05772 0.15233 0.32437 0.0
H775 H 0.06713 0.15441 0.25723 0.0
C776 C 0.03528 0.19259 0.24564 0.0
C777 C 0.03615 0.19886 0.19181 0.0
C778 C 0.03573 0.17527 0.25539 0.0
C779 C 0.03727 0.16384 0.21164 0.0
C780 C 0.03849 0.17003 0.15783 0.0
H781 H 0.0308 0.06267 0.35536 0.0
H782 H 0.04155 0.08394 0.2911 0.0
C783 C 0.03797 0.18742 0.14798 0.0
C784 C 0.03562 0.14553 0.22252 0.0
H785 H 0.04751 0.11579 0.31568 0.0
C786 C 0.02219 0.13677 0.19798 0.0
C787 C 0.04564 0.13732 0.26238 0.0
C788 C 0.06122 0.14541 0.28641 0.0
C789 C 0.01744 0.1207 0.21654 0.0
C790 C 0.02608 0.11349 0.26156 0.0
C791 C 0.04062 0.12146 0.28193 0.0
C792 C 0.01893 0.09926 0.29333 0.0
C793 C 1.00276 0.11195 0.1892 0.0
C794 C 1.00267 0.10079 0.31571 0.0
C795 C 0.99656 0.08875 0.35233 0.0
C796 C 0.00669 0.07502 0.36791 0.0
C797 C 0.02281 0.07323 0.34443 0.0
C798 C 0.02891 0.08528 0.30748 0.0
H799 H 1.00222 0.11516 0.14485 0.0
H800 H 1.00358 0.09802 0.19355 0.0
H801 H 0.9908 0.11634 0.2082 0.0
H802 H 0.99495 0.11175 0.30698 0.0
H803 H 0.98422 0.09064 0.37047 0.0
H804 H 0.29641 0.96919 0.2767 0.0
H805 H 0.32493 0.96554 0.31181 0.0
H806 H 0.34382 0.96041 0.14664 0.0
H807 H 0.3151 0.9638 0.11075 0.0
H808 H 0.3509 0.94023 0.29752 0.0
H809 H 0.36752 1.00307 0.20974 0.0
H810 H 0.34596 0.99595 0.21558 0.0
H811 H 0.3594 0.98747 0.16303 0.0
C812 C 0.30649 0.96676 0.24771 0.0
C813 C 0.30347 0.9669 0.19082 0.0
C814 C 0.32282 0.96477 0.26793 0.0
C815 C 0.33645 0.96297 0.23175 0.0
C816 C 0.33344 0.96204 0.17511 0.0
H817 H 0.44212 0.97753 0.32449 0.0
H818 H 0.41674 0.97125 0.27109 0.0
C819 C 0.31706 0.96401 0.15474 0.0
C820 C 0.3538 0.96366 0.25374 0.0
H821 H 0.38777 0.9899 0.26511 0.0
C822 C 0.35909 0.95097 0.28996 0.0
C823 C 0.36438 0.97771 0.2437 0.0
C824 C 0.35907 0.99192 0.20621 0.0
C825 C 0.37459 0.95214 0.31748 0.0
C826 C 0.38482 0.96656 0.3093 0.0
C827 C 0.37984 0.9789 0.27138 0.0
C828 C 0.40028 0.96961 0.3418 0.0
C829 C 0.37981 0.93801 0.35533 0.0
C830 C 0.39935 0.97104 0.39913 0.0
C831 C 0.41382 0.97454 0.42977 0.0
C832 C 0.42947 0.97681 0.40353 0.0
C833 C 0.4303 0.9756 0.34597 0.0
C834 C 0.41582 0.97207 0.31539 0.0
H835 H 0.37351 0.92595 0.34416 0.0
H836 H 0.39369 0.93609 0.35449 0.0
H837 H 0.37604 0.94123 0.39795 0.0
H838 H 0.38739 0.9696 0.42018 0.0
H839 H 0.41279 0.97525 0.47403 0.0
H840 H 0.56008 0.31857 0.11572 0.0
H841 H 0.56704 0.3463 0.15417 0.0
H842 H 0.5642 0.32562 0.31762 0.0
H843 H 0.55716 0.29807 0.27988 0.0
H844 H 0.54489 0.36297 0.22054 0.0
H845 H 0.60569 0.35547 0.3292 0.0
H846 H 0.5985 0.34069 0.27775 0.0
H847 H 0.59085 0.33928 0.34721 0.0
C848 C 0.56123 0.31989 0.15981 0.0
C849 C 0.55803 0.30612 0.19474 0.0
C850 C 0.56531 0.33569 0.18166 0.0
C851 C 0.56637 0.33795 0.2387 0.0
C852 C 0.56393 0.32407 0.27346 0.0
H853 H 0.55343 0.41355 0.48121 0.0
H854 H 0.55986 0.38827 0.42735 0.0
C855 C 0.55986 0.3083 0.25173 0.0
C856 C 0.56749 0.35511 0.26243 0.0
H857 H 0.58794 0.37851 0.35952 0.0
C858 C 0.55452 0.36654 0.25002 0.0
C859 C 0.57998 0.35963 0.30118 0.0
C860 C 0.59463 0.34817 0.31422 0.0
C861 C 0.55315 0.38201 0.2775 0.0
C862 C 0.5653 0.38628 0.31771 0.0
C863 C 0.57865 0.37515 0.32872 0.0
C864 C 0.56358 0.40176 0.35111 0.0
C865 C 0.5382 0.39324 0.26535 0.0
C866 C 0.56403 0.41771 0.32629 0.0
C867 C 0.56012 0.43213 0.35669 0.0
C868 C 0.55587 0.43086 0.41264 0.0
C869 C 0.55635 0.41492 0.43801 0.0
C870 C 0.56017 0.40049 0.40746 0.0
H871 H 0.52825 0.38653 0.24172 0.0
H872 H 0.53254 0.39811 0.30394 0.0
H873 H 0.54246 0.40421 0.24066 0.0
H874 H 0.56683 0.41893 0.28295 0.0
H875 H 0.55975 0.44417 0.3357 0.0
H876 H 0.18977 0.50371 0.12448 0.0
H877 H 0.16084 0.50724 0.15713 0.0
H878 H 0.16664 0.46399 0.26279 0.0
H879 H 0.19547 0.45996 0.229 0.0
H880 H 0.13308 0.46823 0.21116 0.0
H881 H 0.15788 0.52524 0.31829 0.0
H882 H 0.16117 0.52438 0.24533 0.0
H883 H 0.17159 0.50942 0.28905 0.0
C884 C 0.18475 0.49459 0.15329 0.0
C885 C 0.19499 0.48168 0.17479 0.0
C886 C 0.16825 0.49671 0.17211 0.0
C887 C 0.1618 0.48603 0.21285 0.0
C888 C 0.1715 0.47239 0.23141 0.0
H889 H 0.09219 0.50351 0.47243 0.0
H890 H 0.1155 0.4955 0.41211 0.0
C891 C 0.18799 0.47021 0.2125 0.0
C892 C 0.14595 0.49032 0.24124 0.0
H893 H 0.12928 0.51864 0.33167 0.0
C894 C 0.13213 0.47931 0.23716 0.0
C895 C 0.14496 0.50469 0.27553 0.0
C896 C 0.1597 0.51658 0.28286 0.0
C897 C 0.11727 0.4823 0.26709 0.0
C898 C 0.11637 0.49662 0.30154 0.0
C899 C 0.1301 0.50771 0.30496 0.0
C900 C 0.10168 0.49997 0.33697 0.0
C901 C 0.10285 0.46991 0.26317 0.0
C902 C 0.08623 0.50506 0.31438 0.0
C903 C 0.07286 0.50962 0.34874 0.0
C904 C 0.07482 0.50917 0.40611 0.0
C905 C 0.09025 0.50377 0.42843 0.0
C906 C 0.10358 0.49927 0.39411 0.0
H907 H 0.10651 0.4582 0.24102 0.0
H908 H 0.09829 0.46648 0.30481 0.0
H909 H 0.09219 0.47587 0.24089 0.0
H910 H 0.08466 0.50587 0.2703 0.0
H911 H 0.06105 0.51359 0.33049 0.0
H912 H 0.96091 0.83527 0.22767 0.0
H913 H 0.96178 0.86512 0.20117 0.0
H914 H 0.97246 0.85071 0.03398 0.0
H915 H 0.9718 0.8211 0.05991 0.0
H916 H 0.98943 0.88106 0.15998 0.0
H917 H 0.93704 0.88687 0.01223 0.0
H918 H 0.93864 0.86941 0.05961 0.0
H919 H 0.95006 0.86908 0.99559 0.0
C920 C 0.96322 0.83849 0.18513 0.0
C921 C 0.96622 0.82579 0.14585 0.0
C922 C 0.96362 0.85552 0.17005 0.0
C923 C 0.96688 0.86011 0.11544 0.0
C924 C 0.96941 0.84745 0.07601 0.0
H925 H 0.02424 0.93308 0.95764 0.0
H926 H 0.01242 0.91098 0.01576 0.0
C927 C 0.96903 0.83049 0.09097 0.0
C928 C 0.96964 0.87796 0.1001 0.0
H929 H 0.96058 0.90629 0.99911 0.0
C930 C 0.98285 0.88677 0.12568 0.0
C931 C 0.96085 0.88556 0.05611 0.0
C932 C 0.94573 0.87729 0.02976 0.0
C933 C 0.98842 0.90237 0.10536 0.0
C934 C 0.98078 0.90908 0.05771 0.0
C935 C 0.96664 0.90098 0.0351 0.0
C936 C 0.9883 0.92338 0.02724 0.0
C937 C 1.00278 0.91121 0.1341 0.0
C938 C 0.97857 0.93757 0.01362 0.0
C939 C 0.98529 0.95019 0.98 0.0
C940 C 1.00181 0.94876 0.95925 0.0
C941 C 0.01159 0.93467 0.97376 0.0
C942 C 1.00487 0.92207 0.00717 0.0
H943 H 1.00301 0.90805 0.17852 0.0
H944 H 0.01493 0.90695 0.11606 0.0
H945 H 1.00189 0.92513 0.12957 0.0
H946 H 0.96572 0.93875 0.02834 0.0
H947 H 0.97752 0.96099 0.96989 0.0
H948 H 0.69478 0.98181 0.06235 0.0
H949 H 0.66471 0.98153 0.04136 0.0
H950 H 0.65346 0.96884 0.20969 0.0
H951 H 0.68372 0.96946 0.23131 0.0
H952 H 0.63978 0.95802 0.049 0.0
H953 H 0.62713 0.01217 0.18924 0.0
H954 H 0.64827 0.00553 0.17232 0.0
H955 H 0.63584 0.99351 0.22007 0.0
C956 C 0.68594 0.97866 0.09472 0.0
C957 C 0.69156 0.97574 0.1485 0.0
C958 C 0.66875 0.97853 0.08272 0.0
C959 C 0.65684 0.97542 0.12415 0.0
C960 C 0.66243 0.97164 0.1774 0.0
H961 H 0.55336 0.97957 0.9885 0.0
H962 H 0.57653 0.96869 0.04534 0.0
C963 C 0.67968 0.97194 0.18963 0.0
C964 C 0.63868 0.97728 0.1112 0.0
H965 H 0.60518 1.00363 0.1315 0.0
C966 C 0.63206 0.96778 0.06761 0.0
C967 C 0.62871 0.99006 0.13569 0.0
C968 C 0.63531 1.00101 0.18167 0.0
C969 C 0.61619 0.9715 0.04515 0.0
C970 C 0.60653 0.98478 0.06808 0.0
C971 C 0.61265 0.99346 0.11418 0.0
C972 C 0.59145 0.99155 0.0399 0.0
C973 C 0.61052 0.96202 0.99461 0.0
C974 C 0.59181 0.00821 0.02027 0.0
C975 C 0.57858 0.01442 0.98855 0.0
C976 C 0.56477 1.00406 0.97563 0.0
C977 C 0.56405 0.98763 0.99718 0.0
C978 C 0.57724 0.98144 0.02951 0.0
H979 H 0.62081 0.95426 0.97662 0.0
H980 H 0.59998 0.95344 0.00562 0.0
H981 H 0.60592 0.97091 0.96273 0.0
H982 H 0.60266 0.01622 0.02777 0.0
H983 H 0.57948 0.0271 0.97213 0.0
H984 H 0.43597 0.71494 0.08716 0.0
H985 H 0.42923 0.6876 0.04555 0.0
H986 H 0.47512 0.66671 0.11234 0.0
H987 H 0.48188 0.69384 0.15394 0.0
H988 H 0.44833 0.67336 0.96765 0.0
H989 H 0.44248 0.62865 0.14018 0.0
H990 H 0.44149 0.65124 0.14974 0.0
H991 H 0.46159 0.64065 0.14566 0.0
C992 C 0.44444 0.70441 0.09381 0.0
C993 C 0.45948 0.70655 0.1237 0.0
C994 C 0.44054 0.6888 0.07023 0.0
C995 C 0.45157 0.67506 0.07635 0.0
C996 C 0.46619 0.67698 0.10828 0.0
H997 H 0.48464 0.59974 0.85868 0.0
H998 H 0.47728 0.6254 0.90869 0.0
C999 C 0.47006 0.69254 0.13199 0.0
C1000 C 0.44914 0.65947 0.04369 0.0
H1001 H 0.45094 0.61654 0.05262 0.0
C1002 C 0.44852 0.66093 0.9863 0.0
C1003 C 0.44912 0.64326 0.06793 0.0
C1004 C 0.44851 0.64086 0.12931 0.0
C1005 C 0.44906 0.64663 0.95245 0.0
C1006 C 0.45062 0.6305 0.97668 0.0
C1007 C 0.45003 0.62895 0.03406 0.0
C1008 C 0.45426 0.61526 0.94352 0.0
C1009 C 0.44833 0.64899 0.89105 0.0
C1010 C 0.4439 0.60093 0.9472 0.0
C1011 C 0.44814 0.58619 0.91881 0.0
C1012 C 0.46284 0.58552 0.88646 0.0
C1013 C 0.47306 0.59996 0.88236 0.0
C1014 C 0.46885 0.61465 0.91088 0.0
H1015 H 0.44146 0.66075 0.88008 0.0
H1016 H 0.46137 0.65009 0.87473 0.0
H1017 H 0.44205 0.63814 0.87064 0.0
H1018 H 0.43263 0.60112 0.97244 0.0
H1019 H 0.43997 0.57527 0.92245 0.0
H1020 H 0.806 0.4245 0.132 0.0
H1021 H 0.83421 0.41689 0.09865 0.0
H1022 H 0.85228 0.46655 0.14189 0.0
H1023 H 0.82443 0.47403 0.17586 0.0
H1024 H 0.8492 0.43062 0.01482 0.0
H1025 H 0.89147 0.43918 0.19129 0.0
H1026 H 0.86885 0.43765 0.1994 0.0
H1027 H 0.8787 0.45769 0.18451 0.0
C1028 C 0.81613 0.43362 0.13546 0.0
C1029 C 0.81302 0.44984 0.15669 0.0
C1030 C 0.83223 0.42925 0.11658 0.0
C1031 C 0.84548 0.44103 0.11859 0.0
C1032 C 0.84248 0.45701 0.14158 0.0
H1033 H 0.9155 0.47336 0.8925 0.0
H1034 H 0.89128 0.46215 0.94203 0.0
C1035 C 0.82648 0.46133 0.16083 0.0
C1036 C 0.8617 0.43776 0.09002 0.0
H1037 H 0.90383 0.44586 0.10096 0.0
C1038 C 0.86121 0.43349 0.03409 0.0
C1039 C 0.87747 0.44101 0.11514 0.0
C1040 C 0.87913 0.44393 0.17607 0.0
C1041 C 0.87581 0.43403 1.0016 0.0
C1042 C 0.89117 0.43948 0.02535 0.0
C1043 C 0.89198 0.44207 0.08231 0.0
C1044 C 0.90581 0.44464 0.99134 0.0
C1045 C 0.87448 0.42931 0.94176 0.0
C1046 C 0.92214 0.43879 1.00314 0.0
C1047 C 0.9361 0.44538 0.97519 0.0
C1048 C 0.93394 0.45794 0.935 0.0
C1049 C 0.91754 0.46346 0.9224 0.0
C1050 C 0.90366 0.45698 0.95057 0.0
H1051 H 0.86476 0.41937 0.93556 0.0
H1052 H 0.87052 0.44054 0.91781 0.0
H1053 H 0.88671 0.42468 0.92528 0.0
H1054 H 0.92412 0.42939 0.03476 0.0
H1055 H 0.9486 0.44085 0.98553 0.0
H1056 H 0.9947 0.20789 0.82855 0.0
H1057 H 0.9957 0.17945 0.78958 0.0
H1058 H 0.01913 0.16103 0.93746 0.0
H1059 H 0.01773 0.18937 0.97749 0.0
H1060 H 0.02296 0.15834 0.76819 0.0
H1061 H 0.97966 0.12846 0.9185 0.0
H1062 H 0.98172 0.15107 0.91215 0.0
H1063 H 0.99731 0.13912 0.94907 0.0
C1064 C 0.99989 0.19778 0.85321 0.0
C1065 C 0.00598 0.20101 0.90656 0.0
C1066 C 1.00057 0.1815 0.83059 0.0
C1067 C 0.00725 0.16796 0.86075 0.0
C1068 C 0.01362 0.17115 0.91363 0.0
H1069 H 0.02028 0.06048 0.80592 0.0
H1070 H 0.02015 0.08944 0.83973 0.0
C1071 C 0.01298 0.18746 0.93629 0.0
C1072 C 0.00763 0.15057 0.83663 0.0
H1073 H 0.99371 0.11014 0.85662 0.0
C1074 C 0.0165 0.14781 0.78741 0.0
C1075 C 0.99919 0.13678 0.86149 0.0
C1076 C 0.9888 0.13897 0.91293 0.0
C1077 C 0.01753 0.13165 0.76326 0.0
C1078 C 0.00915 0.11784 0.78828 0.0
C1079 C 1.00017 0.12065 0.8373 0.0
C1080 C 0.00985 0.10027 0.76549 0.0
C1081 C 0.02802 0.12945 0.71205 0.0
C1082 C 1.00414 0.09651 0.71211 0.0
C1083 C 1.0043 0.07982 0.6923 0.0
C1084 C 0.01 0.06648 0.72565 0.0
C1085 C 0.01579 0.07034 0.77888 0.0
C1086 C 0.01569 0.08697 0.79846 0.0
H1087 H 0.03717 0.13995 0.70668 0.0
H1088 H 0.03508 0.11734 0.71299 0.0
H1089 H 0.01957 0.12931 0.67575 0.0
H1090 H 0.99921 0.10643 0.68611 0.0
H1091 H 0.99961 0.07733 0.65131 0.0
H1092 H 0.31264 1.00324 0.84437 0.0
H1093 H 0.34065 1.00111 0.80243 0.0
H1094 H 0.36043 0.03568 0.92292 0.0
H1095 H 0.33248 0.03807 0.96474 0.0
H1096 H 0.36088 0.02611 0.75606 0.0
H1097 H 0.39371 0.99656 0.93228 0.0
H1098 H 0.37099 0.99767 0.92773 0.0
H1099 H 0.38293 0.01576 0.94969 0.0
C1100 C 0.32291 0.01046 0.86199 0.0
C1101 C 0.32017 0.02079 0.90832 0.0
C1102 C 0.33898 0.00916 0.83797 0.0
C1103 C 0.35279 0.01804 0.85982 0.0
C1104 C 0.35012 0.02838 0.90592 0.0
H1105 H 0.45854 0.03249 0.78596 0.0
H1106 H 0.42972 0.03294 0.82078 0.0
C1107 C 0.33406 0.02971 0.92994 0.0
C1108 C 0.36986 0.01682 0.83372 0.0
H1109 H 0.41109 0.00678 0.85995 0.0
C1110 C 0.37184 0.02175 0.77864 0.0
C1111 C 0.38421 0.01111 0.86298 0.0
C1112 C 0.38289 1.00481 0.92127 0.0
C1113 C 0.38779 0.02169 0.75276 0.0
C1114 C 0.40219 0.01624 0.78235 0.0
C1115 C 0.40013 0.01103 0.83714 0.0
C1116 C 0.41961 0.01638 0.75832 0.0
C1117 C 0.38915 0.02804 0.69457 0.0
C1118 C 0.42371 0.00697 0.7111 0.0
C1119 C 0.44033 0.00673 0.69064 0.0
C1120 C 0.45327 0.01579 0.71726 0.0
C1121 C 0.44902 0.02532 0.76416 0.0
C1122 C 0.43247 0.02558 0.78437 0.0
H1123 H 0.37797 0.03567 0.68262 0.0
H1124 H 0.40068 0.03584 0.68902 0.0
H1125 H 0.38996 0.0171 0.66623 0.0
H1126 H 0.41414 0.99948 0.69072 0.0
H1127 H 0.44309 0.99915 0.65476 0.0
H1128 H 0.4874 0.31582 0.81806 0.0
H1129 H 0.48933 0.34368 0.77544 0.0
H1130 H 0.51849 0.36172 0.91277 0.0
H1131 H 0.51703 0.3337 0.95512 0.0
H1132 H 0.47783 0.37425 0.81428 0.0
H1133 H 0.5471 0.37684 0.7819 0.0
H1134 H 0.53614 0.35748 0.79809 0.0
H1135 H 0.54098 0.37241 0.85141 0.0
C1136 C 0.49448 0.3256 0.83894 0.0
C1137 C 0.50218 0.32237 0.88999 0.0
C1138 C 0.49546 0.3416 0.81459 0.0
C1139 C 0.50427 0.3548 0.84034 0.0
C1140 C 0.51189 0.35169 0.89146 0.0
H1141 H 0.49458 0.46225 0.78484 0.0
H1142 H 0.49404 0.4333 0.8187 0.0
C1143 C 0.51088 0.33568 0.91597 0.0
C1144 C 0.50491 0.37191 0.81452 0.0
H1145 H 0.53188 0.40235 0.76679 0.0
C1146 C 0.48966 0.38034 0.80372 0.0
C1147 C 0.52031 0.37983 0.79992 0.0
C1148 C 0.53707 0.37114 0.80788 0.0
C1149 C 0.48941 0.39656 0.78015 0.0
C1150 C 0.50482 0.40474 0.76741 0.0
C1151 C 0.52006 0.39616 0.77685 0.0
C1152 C 0.50532 0.4224 0.74604 0.0
C1153 C 0.47259 0.40478 0.76872 0.0
C1154 C 0.51217 0.42608 0.6941 0.0
C1155 C 0.51251 0.44276 0.67436 0.0
C1156 C 0.50619 0.45613 0.70651 0.0
C1157 C 0.49952 0.45235 0.75871 0.0
C1158 C 0.49911 0.43573 0.77817 0.0
H1159 H 0.46222 0.39534 0.76686 0.0
H1160 H 0.46964 0.41382 0.80219 0.0
H1161 H 0.4729 0.41187 0.72943 0.0
H1162 H 0.51712 0.41602 0.66864 0.0
H1163 H 0.51781 0.44517 0.63414 0.0
H1164 H 0.19858 0.51936 0.81444 0.0
H1165 H 0.16924 0.51908 0.78274 0.0
H1166 H 0.1551 0.48885 0.92239 0.0
H1167 H 0.1844 0.48926 0.95486 0.0
H1168 H 0.14807 0.49044 0.75726 0.0
H1169 H 0.12173 0.52924 0.92695 0.0
H1170 H 0.14405 0.52847 0.9119 0.0
H1171 H 0.1341 0.51132 0.94768 0.0
C1172 C 0.18922 0.51276 0.83876 0.0
C1173 C 0.19392 0.50441 0.88748 0.0
C1174 C 0.17244 0.51252 0.82033 0.0
C1175 C 0.15987 0.50411 0.8504 0.0
C1176 C 0.1645 0.49562 0.89877 0.0
H1177 H 0.05061 0.49468 0.81667 0.0
H1178 H 0.08008 0.4933 0.84573 0.0
C1179 C 0.18132 0.49574 0.91706 0.0
C1180 C 0.14197 0.50415 0.83088 0.0
H1181 H 0.10222 0.51761 0.86421 0.0
C1182 C 0.13804 0.49641 0.78056 0.0
C1183 C 0.12884 0.51188 0.86129 0.0
C1184 C 0.13232 0.52083 0.91477 0.0
C1185 C 0.12135 0.49591 0.76038 0.0
C1186 C 0.1082 0.5038 0.79053 0.0
C1187 C 0.11219 0.51155 0.84089 0.0
C1188 C 0.09023 0.50409 0.7711 0.0
C1189 C 0.11796 0.48648 0.70771 0.0
C1190 C 0.08589 0.51065 0.71929 0.0
C1191 C 0.06896 0.51129 0.70218 0.0
C1192 C 0.05589 0.50565 0.73685 0.0
C1193 C 0.06027 0.49915 0.78872 0.0
C1194 C 0.07718 0.49837 0.80554 0.0
H1195 H 0.12795 0.47699 0.69915 0.0
H1196 H 0.10557 0.47993 0.70907 0.0
H1197 H 0.11782 0.49556 0.67305 0.0
H1198 H 0.09557 0.51559 0.69233 0.0
H1199 H 0.06612 0.51654 0.66222 0.0
H1200 H 0.01178 0.8218 0.52166 0.0
H1201 H 0.01075 0.85008 0.56172 0.0
H1202 H 0.99817 0.87088 0.40354 0.0
H1203 H 0.99853 0.84255 0.36347 0.0
H1204 H 0.02938 0.87831 0.53875 0.0
H1205 H 0.96172 0.89136 0.49951 0.0
H1206 H 0.97067 0.87051 0.49288 0.0
H1207 H 0.97331 0.88577 0.43887 0.0
C1208 C 0.00852 0.83232 0.49541 0.0
C1209 C 1.00508 0.82974 0.43924 0.0
C1210 C 0.00808 0.84855 0.51838 0.0
C1211 C 1.0041 0.86267 0.48602 0.0
C1212 C 1.00091 0.86021 0.42979 0.0
H1213 H 0.9977 0.97076 0.53512 0.0
H1214 H 0.9979 0.94179 0.50131 0.0
C1215 C 1.00134 0.84396 0.40674 0.0
C1216 C 1.00365 0.87994 0.51092 0.0
H1217 H 0.97838 0.91449 0.53005 0.0
C1218 C 0.01819 0.88617 0.53717 0.0
C1219 C 0.98905 0.89026 0.50907 0.0
C1220 C 0.97275 0.88411 0.48405 0.0
C1221 C 0.01867 0.90251 0.56012 0.0
C1222 C 1.00412 0.91288 0.55776 0.0
C1223 C 0.98954 0.9066 0.53196 0.0
C1224 C 1.00393 0.93053 0.57972 0.0
C1225 C 0.03496 0.90871 0.58512 0.0
C1226 C 0.00702 0.934 0.63551 0.0
C1227 C 0.00692 0.9507 0.65519 0.0
C1228 C 1.00365 0.96429 0.61954 0.0
C1229 C 1.0003 0.9607 0.56394 0.0
C1230 C 1.00039 0.94407 0.54441 0.0
H1231 H 0.04593 0.90098 0.57187 0.0
H1232 H 0.03736 0.92208 0.57388 0.0
H1233 H 0.03404 0.90792 0.63049 0.0
H1234 H 0.00943 0.92378 0.66393 0.0
H1235 H 0.00948 0.95294 0.69826 0.0
H1236 H 0.69816 0.02052 0.52003 0.0
H1237 H 0.66955 0.01996 0.55767 0.0
H1238 H 0.65118 0.9981 0.40699 0.0
H1239 H 0.67985 0.99848 0.36924 0.0
H1240 H 0.64113 0.03541 0.52509 0.0
H1241 H 0.63079 0.96629 0.5171 0.0
H1242 H 0.65131 0.97565 0.50674 0.0
H1243 H 0.6362 0.9751 0.45162 0.0
C1244 C 0.68805 0.01561 0.49475 0.0
C1245 C 0.6914 0.0095 0.44151 0.0
C1246 C 0.67165 0.01524 0.51648 0.0
C1247 C 0.65813 0.00873 0.48572 0.0
C1248 C 0.6614 1.00276 0.43233 0.0
H1249 H 0.54953 1.00198 0.53083 0.0
H1250 H 0.57862 1.00176 0.49759 0.0
C1251 C 0.67783 1.00302 0.41066 0.0
C1252 C 0.64062 0.00867 0.50905 0.0
H1253 H 0.60671 0.98323 0.53686 0.0
C1254 C 0.63367 0.02396 0.52799 0.0
C1255 C 0.63079 0.99376 0.5131 0.0
C1256 C 0.63769 0.97674 0.49658 0.0
C1257 C 0.61717 0.0248 0.5495 0.0
C1258 C 0.6073 0.00993 0.55291 0.0
C1259 C 0.61424 0.99464 0.53425 0.0
C1260 C 0.58959 0.01005 0.57423 0.0
C1261 C 0.61025 0.04171 0.56706 0.0
C1262 C 0.58596 0.01459 0.62882 0.0
C1263 C 0.56924 0.01468 0.64823 0.0
C1264 C 0.55575 0.01024 0.61343 0.0
C1265 C 0.5595 0.00555 0.55894 0.0
C1266 C 0.57618 1.00538 0.53975 0.0
H1267 H 0.61788 0.05234 0.55064 0.0
H1268 H 0.59698 0.04325 0.55318 0.0
H1269 H 0.6104 0.0425 0.61253 0.0
H1270 H 0.59608 0.01797 0.65659 0.0
H1271 H 0.56689 0.0183 0.69042 0.0
H1272 H 0.4984 0.70007 0.48178 0.0
H1273 H 0.49762 0.67196 0.52305 0.0
H1274 H 0.52502 0.6519 0.38473 0.0
H1275 H 0.52657 0.68008 0.34436 0.0
H1276 H 0.48423 0.64225 0.48912 0.0
H1277 H 0.55348 0.63504 0.51043 0.0
H1278 H 0.54374 0.65496 0.4935 0.0
H1279 H 0.54707 0.63925 0.44118 0.0
C1280 C 0.50446 0.68975 0.46031 0.0
C1281 C 0.51272 0.69252 0.40983 0.0
C1282 C 0.50388 0.67361 0.48386 0.0
C1283 C 0.51157 0.6598 0.45772 0.0
C1284 C 0.51935 0.66238 0.40652 0.0
H1285 H 0.52044 0.55255 0.51531 0.0
H1286 H 0.52062 0.58142 0.48057 0.0
C1287 C 0.52 0.67853 0.38301 0.0
C1288 C 0.51137 0.64272 0.48384 0.0
H1289 H 0.53692 0.61041 0.5261 0.0
C1290 C 0.49577 0.63536 0.49759 0.0
C1291 C 0.52641 0.63368 0.49531 0.0
C1292 C 0.54363 0.64119 0.48488 0.0
C1293 C 0.49479 0.61909 0.5208 0.0
C1294 C 0.50981 0.60996 0.53116 0.0
C1295 C 0.5254 0.61738 0.51806 0.0
C1296 C 0.50962 0.59242 0.5535 0.0
C1297 C 0.47766 0.61158 0.53259 0.0
C1298 C 0.50358 0.58893 0.6066 0.0
C1299 C 0.50354 0.57233 0.62693 0.0
C1300 C 0.50948 0.55886 0.59449 0.0
C1301 C 0.51568 0.56251 0.54156 0.0
C1302 C 0.51581 0.57906 0.5215 0.0
H1303 H 0.46735 0.61877 0.51241 0.0
H1304 H 0.4771 0.59825 0.51857 0.0
H1305 H 0.47538 0.61174 0.57753 0.0
H1306 H 0.499 0.59907 0.63247 0.0
H1307 H 0.49879 0.57008 0.66788 0.0
H1308 H 0.8146 0.49618 0.49438 0.0
H1309 H 0.84185 0.49622 0.54149 0.0
H1310 H 0.86429 0.52251 0.40485 0.0
H1311 H 0.83696 0.52318 0.35845 0.0
H1312 H 0.87258 0.48297 0.51468 0.0
H1313 H 0.87801 0.55249 0.53149 0.0
H1314 H 0.85863 0.54219 0.51169 0.0
H1315 H 0.87519 0.54542 0.46214 0.0
C1316 C 0.82526 0.50215 0.47446 0.0
C1317 C 0.8234 0.50984 0.42262 0.0
C1318 C 0.84091 0.50205 0.5014 0.0
C1319 C 0.85513 0.50967 0.47741 0.0
C1320 C 0.85347 0.51689 0.42497 0.0
H1321 H 0.96074 0.52224 0.55177 0.0
H1322 H 0.93235 0.52131 0.51353 0.0
C1323 C 0.83782 0.51704 0.39804 0.0
C1324 C 0.87167 0.51003 0.50706 0.0
H1325 H 0.90266 0.53662 0.55308 0.0
C1326 C 0.87908 0.49471 0.52349 0.0
C1327 C 0.88018 0.52534 0.51901 0.0
C1328 C 0.87253 0.5423 0.50569 0.0
C1329 C 0.89496 0.49427 0.54963 0.0
C1330 C 0.90362 0.50956 0.56038 0.0
C1331 C 0.89607 0.52488 0.54479 0.0
C1332 C 0.92088 0.50997 0.58508 0.0
C1333 C 0.90262 0.4774 0.56389 0.0
C1334 C 0.92397 0.50406 0.63862 0.0
C1335 C 0.94034 0.50461 0.66099 0.0
C1336 C 0.95395 0.51108 0.63022 0.0
C1337 C 0.95068 0.5171 0.57685 0.0
C1338 C 0.93439 0.51662 0.55476 0.0
H1339 H 0.89603 0.46681 0.54304 0.0
H1340 H 0.91619 0.47705 0.55246 0.0
H1341 H 0.90168 0.47538 0.60886 0.0
H1342 H 0.91372 0.49912 0.66325 0.0
H1343 H 0.94233 0.49989 0.70219 0.0
loop_
_geom_bond_atom_site_label_1
_geom_bond_atom_site_label_2
_geom_bond_distance
_geom_bond_site_symmetry_2
_ccdc_geom_bond_type
C0 C1 1.264 . S
C0 C5 1.479 . S
C0 C10 1.465 . S
C1 C0 1.264 . S
C1 C3 1.339 . S
C1 H28 0.931 . S
C2 C3 1.395 . S
C2 C4 1.320 . S
C3 C1 1.339 . S
C3 C2 1.395 . S
C3 H29 0.929 . S
C4 C2 1.320 . S
C4 C5 1.405 . S
C4 H30 0.930 . S
C5 C0 1.479 . S
C5 C4 1.405 . S
C5 H31 0.931 . S
U6 O7 2.454 . S
U6 O8 2.458 . S
U6 C9 2.984 . S
U6 C10 2.847 . S
U6 C23 2.882 . S
U6 O24 2.441 . S
U6 O25 2.420 . S
U6 O26 2.455 . S
U6 O27 2.449 . S
O7 U6 2.454 . S
O7 C9 1.353 . S
O8 U6 2.458 . S
O8 C9 1.286 . S
C9 U6 2.984 . S
C9 O7 1.353 . S
C9 O8 1.286 . S
C9 C11 1.363 . S
C10 C0 1.465 . S
C10 U6 2.847 . S
C10 O24 1.249 . S
C10 O25 1.202 . S
C11 C9 1.363 . S
C11 C13 1.408 . S
C11 C16 1.342 . S
C12 C13 1.310 . S
C12 C15 1.461 . S
C12 H32 0.932 . S
C13 C11 1.408 . S
C13 C12 1.310 . S
C13 H33 0.930 . S
C14 C15 1.474 . S
C14 C16 1.285 . S
C14 H34 0.929 . S
C15 C12 1.461 . S
C15 C14 1.474 . S
C16 C11 1.342 . S
C16 C14 1.285 . S
C16 H35 0.930 . S
C17 C20 1.424 . S
C17 C22 1.245 . S
C17 C23 1.428 . S
C18 C21 1.260 . S
C18 C22 1.477 . S
C18 H36 0.932 . S
C19 C20 1.384 . S
C19 C21 1.479 . S
C19 H37 0.929 . S
C20 C17 1.424 . S
C20 C19 1.384 . S
C20 H38 0.928 . S
C21 C18 1.260 . S
C21 C19 1.479 . S
C22 C17 1.245 . S
C22 C18 1.477 . S
C22 H39 0.932 . S
C23 U6 2.882 . S
C23 C17 1.428 . S
C23 O26 1.301 . S
C23 O27 1.282 . S
O24 U6 2.441 . S
O24 C10 1.249 . S
O25 U6 2.420 . S
O25 C10 1.202 . S
O26 U6 2.455 . S
O26 C23 1.301 . S
O27 U6 2.449 . S
O27 C23 1.282 . S
H28 C1 0.931 . S
H29 C3 0.929 . S
H30 C4 0.930 . S
H31 C5 0.931 . S
H32 C12 0.932 . S
H33 C13 0.930 . S
H34 C14 0.929 . S
H35 C16 0.930 . S
H36 C18 0.932 . S
H37 C19 0.929 . S
H38 C20 0.928 . S
H39 C22 0.932 . S
C40 C41 1.264 . S
C40 C45 1.479 . S
C40 C50 1.465 . S
C41 C40 1.264 . S
C41 C43 1.339 . S
C41 H68 0.931 . S
C42 C43 1.395 . S
C42 C44 1.320 . S
C43 C41 1.339 . S
C43 C42 1.395 . S
C43 H69 0.929 . S
C44 C42 1.320 . S
C44 C45 1.405 . S
C44 H70 0.921 1_455 S
C45 C40 1.479 . S
C45 C44 1.405 . S
C45 H71 0.931 . S
U46 O47 2.454 . S
U46 O48 2.458 . S
U46 C49 2.984 . S
U46 C50 2.847 . S
U46 C63 2.882 . S
U46 O64 2.441 . S
U46 O65 2.420 . S
U46 O66 2.455 . S
U46 O67 2.449 . S
O47 U46 2.454 . S
O47 C49 1.353 . S
O48 U46 2.458 . S
O48 C49 1.286 . S
C49 U46 2.984 . S
C49 O47 1.353 . S
C49 O48 1.286 . S
C49 C51 1.363 . S
C50 C40 1.465 . S
C50 U46 2.847 . S
C50 O64 1.249 . S
C50 O65 1.202 . S
C51 C49 1.363 . S
C51 C53 1.408 . S
C51 C56 1.342 . S
C52 C53 1.310 . S
C52 C55 1.461 . S
C52 H72 0.936 . S
C53 C51 1.408 . S
C53 C52 1.310 . S
C53 H73 0.930 . S
C54 C55 1.474 1_655 S
C54 C56 1.285 1_655 S
C54 H74 0.930 . S
C55 C52 1.461 . S
C55 C54 1.474 1_455 S
C56 C51 1.342 . S
C56 C54 1.285 1_455 S
C56 H75 0.932 . S
C57 C60 1.424 . S
C57 C62 1.245 . S
C57 C63 1.428 . S
C58 C61 1.260 . S
C58 C62 1.477 . S
C58 H76 0.932 . S
C59 C60 1.384 . S
C59 C61 1.479 . S
C59 H77 0.929 . S
C60 C57 1.424 . S
C60 C59 1.384 . S
C60 H78 0.928 . S
C61 C58 1.260 . S
C61 C59 1.479 . S
C62 C57 1.245 . S
C62 C58 1.477 . S
C62 H79 0.932 . S
C63 U46 2.882 . S
C63 C57 1.428 . S
C63 O66 1.301 . S
C63 O67 1.282 . S
O64 U46 2.441 . S
O64 C50 1.249 . S
O65 U46 2.420 . S
O65 C50 1.202 . S
O66 U46 2.455 . S
O66 C63 1.301 . S
O67 U46 2.449 . S
O67 C63 1.282 . S
H68 C41 0.931 . S
H69 C43 0.929 . S
H70 C44 0.921 1_655 S
H71 C45 0.931 . S
H72 C52 0.936 . S
H73 C53 0.930 . S
H74 C54 0.930 . S
H75 C56 0.932 . S
H76 C58 0.932 . S
H77 C59 0.929 . S
H78 C60 0.928 . S
H79 C62 0.932 . S
C80 C81 1.264 . S
C80 C85 1.479 . S
C80 C90 1.465 . S
C81 C80 1.264 . S
C81 C83 1.339 . S
C81 H108 0.931 . S
C82 C83 1.395 . S
C82 C84 1.320 . S
C83 C81 1.339 . S
C83 C82 1.395 . S
C83 H109 0.929 . S
C84 C82 1.320 . S
C84 C85 1.405 . S
C84 H110 0.921 1_545 S
C85 C80 1.479 . S
C85 C84 1.405 . S
C85 H111 0.931 . S
U86 O87 2.454 . S
U86 O88 2.458 . S
U86 C89 2.984 . S
U86 C90 2.847 . S
U86 C103 2.882 . S
U86 O104 2.441 . S
U86 O105 2.420 . S
U86 O106 2.455 . S
U86 O107 2.449 . S
O87 U86 2.454 . S
O87 C89 1.353 . S
O88 U86 2.458 . S
O88 C89 1.286 . S
C89 U86 2.984 . S
C89 O87 1.353 . S
C89 O88 1.286 . S
C89 C91 1.363 . S
C90 C80 1.465 . S
C90 U86 2.847 . S
C90 O104 1.249 . S
C90 O105 1.202 . S
C91 C89 1.363 . S
C91 C93 1.408 . S
C91 C96 1.342 . S
C92 C93 1.310 . S
C92 C95 1.461 . S
C92 H112 0.936 . S
C93 C91 1.408 . S
C93 C92 1.310 . S
C93 H113 0.930 . S
C94 C95 1.474 1_565 S
C94 C96 1.285 1_565 S
C94 H114 0.930 . S
C95 C92 1.461 . S
C95 C94 1.474 1_545 S
C96 C91 1.342 . S
C96 C94 1.285 1_545 S
C96 H115 0.932 . S
C97 C100 1.424 . S
C97 C102 1.245 . S
C97 C103 1.428 . S
C98 C101 1.260 . S
C98 C102 1.477 . S
C98 H116 0.932 . S
C99 C100 1.384 . S
C99 C101 1.479 . S
C99 H117 0.929 . S
C100 C97 1.424 . S
C100 C99 1.384 . S
C100 H118 0.928 . S
C101 C98 1.260 . S
C101 C99 1.479 . S
C102 C97 1.245 . S
C102 C98 1.477 . S
C102 H119 0.932 . S
C103 U86 2.882 . S
C103 C97 1.428 . S
C103 O106 1.301 . S
C103 O107 1.282 . S
O104 U86 2.441 . S
O104 C90 1.249 . S
O105 U86 2.420 . S
O105 C90 1.202 . S
O106 U86 2.455 . S
O106 C103 1.301 . S
O107 U86 2.449 . S
O107 C103 1.282 . S
H108 C81 0.931 . S
H109 C83 0.929 . S
H110 C84 0.921 1_565 S
H111 C85 0.931 . S
H112 C92 0.936 . S
H113 C93 0.930 . S
H114 C94 0.930 . S
H115 C96 0.932 . S
H116 C98 0.932 . S
H117 C99 0.929 . S
H118 C100 0.928 . S
H119 C102 0.932 . S
C120 C121 1.264 . S
C120 C125 1.479 . S
C120 C130 1.465 . S
C121 C120 1.264 . S
C121 C123 1.339 . S
C121 H148 0.931 . S
C122 C123 1.395 . S
C122 C124 1.320 . S
C123 C121 1.339 . S
C123 C122 1.395 . S
C123 H149 0.929 . S
C124 C122 1.320 . S
C124 C125 1.405 . S
C124 H150 0.930 . S
C125 C120 1.479 . S
C125 C124 1.405 . S
C125 H151 0.931 . S
U126 O127 2.454 . S
U126 O128 2.458 . S
U126 C129 2.984 . S
U126 C130 2.847 . S
U126 C143 2.882 . S
U126 O144 2.441 . S
U126 O145 2.420 . S
U126 O146 2.455 . S
U126 O147 2.449 . S
O127 U126 2.454 . S
O127 C129 1.353 . S
O128 U126 2.458 . S
O128 C129 1.286 . S
C129 U126 2.984 . S
C129 O127 1.353 . S
C129 O128 1.286 . S
C129 C131 1.363 . S
C130 C120 1.465 . S
C130 U126 2.847 . S
C130 O144 1.249 . S
C130 O145 1.202 . S
C131 C129 1.363 . S
C131 C133 1.408 . S
C131 C136 1.342 . S
C132 C133 1.310 . S
C132 C135 1.461 . S
C132 H152 0.932 . S
C133 C131 1.408 . S
C133 C132 1.310 . S
C133 H153 0.930 . S
C134 C135 1.474 . S
C134 C136 1.285 . S
C134 H154 0.929 . S
C135 C132 1.461 . S
C135 C134 1.474 . S
C136 C131 1.342 . S
C136 C134 1.285 . S
C136 H155 0.930 . S
C137 C140 1.424 . S
C137 C142 1.245 . S
C137 C143 1.428 . S
C138 C141 1.260 . S
C138 C142 1.477 . S
C138 H156 0.932 . S
C139 C140 1.384 . S
C139 C141 1.479 . S
C139 H157 0.929 . S
C140 C137 1.424 . S
C140 C139 1.384 . S
C140 H158 0.928 . S
C141 C138 1.260 . S
C141 C139 1.479 . S
C142 C137 1.245 . S
C142 C138 1.477 . S
C142 H159 0.932 . S
C143 U126 2.882 . S
C143 C137 1.428 . S
C143 O146 1.301 . S
C143 O147 1.282 . S
O144 U126 2.441 . S
O144 C130 1.249 . S
O145 U126 2.420 . S
O145 C130 1.202 . S
O146 U126 2.455 . S
O146 C143 1.301 . S
O147 U126 2.449 . S
O147 C143 1.282 . S
H148 C121 0.931 . S
H149 C123 0.929 . S
H150 C124 0.930 . S
H151 C125 0.931 . S
H152 C132 0.932 . S
H153 C133 0.930 . S
H154 C134 0.929 . S
H155 C136 0.930 . S
H156 C138 0.932 . S
H157 C139 0.929 . S
H158 C140 0.928 . S
H159 C142 0.932 . S
C160 C161 1.264 . S
C160 C165 1.479 . S
C160 C170 1.465 . S
C161 C160 1.264 . S
C161 C163 1.339 . S
C161 H188 0.931 . S
C162 C163 1.395 . S
C162 C164 1.320 . S
C163 C161 1.339 . S
C163 C162 1.395 . S
C163 H189 0.929 . S
C164 C162 1.320 . S
C164 C165 1.405 . S
C164 H190 0.930 . S
C165 C160 1.479 . S
C165 C164 1.405 . S
C165 H191 0.931 . S
U166 O167 2.454 . S
U166 O168 2.458 . S
U166 C169 2.984 . S
U166 C170 2.847 1_554 S
U166 C183 2.882 . S
U166 O184 2.441 1_554 S
U166 O185 2.420 1_554 S
U166 O186 2.455 . S
U166 O187 2.449 . S
O167 U166 2.454 . S
O167 C169 1.353 . S
O168 U166 2.458 . S
O168 C169 1.286 . S
C169 U166 2.984 . S
C169 O167 1.353 . S
C169 O168 1.286 . S
C169 C171 1.363 . S
C170 C160 1.465 . S
C170 U166 2.847 1_556 S
C170 O184 1.249 . S
C170 O185 1.202 . S
C171 C169 1.363 . S
C171 C173 1.408 . S
C171 C176 1.342 . S
C172 C173 1.310 . S
C172 C175 1.461 . S
C172 H192 0.932 . S
C173 C171 1.408 . S
C173 C172 1.310 . S
C173 H193 0.930 . S
C174 C175 1.474 . S
C174 C176 1.285 . S
C174 H194 0.929 . S
C175 C172 1.461 . S
C175 C174 1.474 . S
C176 C171 1.342 . S
C176 C174 1.285 . S
C176 H195 0.930 . S
C177 C180 1.424 . S
C177 C182 1.245 . S
C177 C183 1.428 . S
C178 C181 1.260 . S
C178 C182 1.477 . S
C178 H196 0.932 . S
C179 C180 1.384 . S
C179 C181 1.479 . S
C179 H197 0.929 . S
C180 C177 1.424 . S
C180 C179 1.384 . S
C180 H198 0.928 . S
C181 C178 1.260 . S
C181 C179 1.479 . S
C182 C177 1.245 . S
C182 C178 1.477 . S
C182 H199 0.932 . S
C183 U166 2.882 . S
C183 C177 1.428 . S
C183 O186 1.301 . S
C183 O187 1.282 . S
O184 U166 2.441 1_556 S
O184 C170 1.249 . S
O185 U166 2.420 1_556 S
O185 C170 1.202 . S
O186 U166 2.455 . S
O186 C183 1.301 . S
O187 U166 2.449 . S
O187 C183 1.282 . S
H188 C161 0.931 . S
H189 C163 0.929 . S
H190 C164 0.930 . S
H191 C165 0.931 . S
H192 C172 0.932 . S
H193 C173 0.930 . S
H194 C174 0.929 . S
H195 C176 0.930 . S
H196 C178 0.932 . S
H197 C179 0.929 . S
H198 C180 0.928 . S
H199 C182 0.932 . S
C200 C201 1.264 . S
C200 C205 1.479 . S
C200 C210 1.465 . S
C201 C200 1.264 . S
C201 C203 1.339 . S
C201 H228 0.931 . S
C202 C203 1.395 . S
C202 C204 1.320 . S
C203 C201 1.339 . S
C203 C202 1.395 . S
C203 H229 0.929 . S
C204 C202 1.320 . S
C204 C205 1.405 . S
C204 H230 0.924 1_455 S
C205 C200 1.479 . S
C205 C204 1.405 . S
C205 H231 0.931 . S
U206 O207 2.454 . S
U206 O208 2.458 . S
U206 C209 2.984 . S
U206 C210 2.847 1_554 S
U206 C223 2.882 . S
U206 O224 2.441 1_554 S
U206 O225 2.420 1_554 S
U206 O226 2.455 . S
U206 O227 2.449 . S
O207 U206 2.454 . S
O207 C209 1.353 . S
O208 U206 2.458 . S
O208 C209 1.286 . S
C209 U206 2.984 . S
C209 O207 1.353 . S
C209 O208 1.286 . S
C209 C211 1.363 . S
C210 C200 1.465 . S
C210 U206 2.847 1_556 S
C210 O224 1.249 . S
C210 O225 1.202 . S
C211 C209 1.363 . S
C211 C213 1.408 . S
C211 C216 1.342 . S
C212 C213 1.310 . S
C212 C215 1.462 . S
C212 H232 0.932 . S
C213 C211 1.408 . S
C213 C212 1.310 . S
C213 H233 0.930 . S
C214 C215 1.474 1_655 S
C214 C216 1.286 1_655 S
C214 H234 0.929 . S
C215 C212 1.462 . S
C215 C214 1.474 1_455 S
C216 C211 1.342 . S
C216 C214 1.286 1_455 S
C216 H235 0.934 . S
C217 C220 1.424 . S
C217 C222 1.245 . S
C217 C223 1.428 . S
C218 C221 1.260 . S
C218 C222 1.477 . S
C218 H236 0.932 . S
C219 C220 1.384 . S
C219 C221 1.479 . S
C219 H237 0.929 . S
C220 C217 1.424 . S
C220 C219 1.384 . S
C220 H238 0.928 . S
C221 C218 1.260 . S
C221 C219 1.479 . S
C222 C217 1.245 . S
C222 C218 1.477 . S
C222 H239 0.932 . S
C223 U206 2.882 . S
C223 C217 1.428 . S
C223 O226 1.301 . S
C223 O227 1.282 . S
O224 U206 2.441 1_556 S
O224 C210 1.249 . S
O225 U206 2.420 1_556 S
O225 C210 1.202 . S
O226 U206 2.455 . S
O226 C223 1.301 . S
O227 U206 2.449 . S
O227 C223 1.282 . S
H228 C201 0.931 . S
H229 C203 0.929 . S
H230 C204 0.924 1_655 S
H231 C205 0.931 . S
H232 C212 0.932 . S
H233 C213 0.930 . S
H234 C214 0.929 . S
H235 C216 0.934 . S
H236 C218 0.932 . S
H237 C219 0.929 . S
H238 C220 0.928 . S
H239 C222 0.932 . S
C240 C241 1.264 . S
C240 C245 1.479 . S
C240 C250 1.465 . S
C241 C240 1.264 . S
C241 C243 1.339 . S
C241 H268 0.931 . S
C242 C243 1.395 . S
C242 C244 1.320 . S
C243 C241 1.339 . S
C243 C242 1.395 . S
C243 H269 0.929 . S
C244 C242 1.320 . S
C244 C245 1.405 . S
C244 H270 0.924 1_545 S
C245 C240 1.479 . S
C245 C244 1.405 . S
C245 H271 0.931 . S
U246 O247 2.454 . S
U246 O248 2.458 . S
U246 C249 2.984 . S
U246 C250 2.847 1_554 S
U246 C263 2.882 . S
U246 O264 2.441 1_554 S
U246 O265 2.420 1_554 S
U246 O266 2.455 . S
U246 O267 2.449 . S
O247 U246 2.454 . S
O247 C249 1.353 . S
O248 U246 2.458 . S
O248 C249 1.286 . S
C249 U246 2.984 . S
C249 O247 1.353 . S
C249 O248 1.286 . S
C249 C251 1.363 . S
C250 C240 1.465 . S
C250 U246 2.847 1_556 S
C250 O264 1.249 . S
C250 O265 1.202 . S
C251 C249 1.363 . S
C251 C253 1.408 . S
C251 C256 1.342 . S
C252 C253 1.310 . S
C252 C255 1.462 . S
C252 H272 0.932 . S
C253 C251 1.408 . S
C253 C252 1.310 . S
C253 H273 0.930 . S
C254 C255 1.474 1_565 S
C254 C256 1.286 1_565 S
C254 H274 0.929 . S
C255 C252 1.462 . S
C255 C254 1.474 1_545 S
C256 C251 1.342 . S
C256 C254 1.286 1_545 S
C256 H275 0.933 . S
C257 C260 1.424 . S
C257 C262 1.245 . S
C257 C263 1.428 . S
C258 C261 1.260 . S
C258 C262 1.477 . S
C258 H276 0.932 . S
C259 C260 1.384 . S
C259 C261 1.479 . S
C259 H277 0.929 . S
C260 C257 1.424 . S
C260 C259 1.384 . S
C260 H278 0.928 . S
C261 C258 1.260 . S
C261 C259 1.479 . S
C262 C257 1.245 . S
C262 C258 1.477 . S
C262 H279 0.932 . S
C263 U246 2.882 . S
C263 C257 1.428 . S
C263 O266 1.301 . S
C263 O267 1.282 . S
O264 U246 2.441 1_556 S
O264 C250 1.249 . S
O265 U246 2.420 1_556 S
O265 C250 1.202 . S
O266 U246 2.455 . S
O266 C263 1.301 . S
O267 U246 2.449 . S
O267 C263 1.282 . S
H268 C241 0.931 . S
H269 C243 0.929 . S
H270 C244 0.924 1_565 S
H271 C245 0.931 . S
H272 C252 0.932 . S
H273 C253 0.930 . S
H274 C254 0.929 . S
H275 C256 0.933 . S
H276 C258 0.932 . S
H277 C259 0.929 . S
H278 C260 0.928 . S
H279 C262 0.932 . S
C280 C281 1.264 . S
C280 C285 1.479 . S
C280 C290 1.465 . S
C281 C280 1.264 . S
C281 C283 1.339 . S
C281 H308 0.931 . S
C282 C283 1.395 . S
C282 C284 1.320 . S
C283 C281 1.339 . S
C283 C282 1.395 . S
C283 H309 0.929 . S
C284 C282 1.320 . S
C284 C285 1.405 . S
C284 H310 0.930 . S
C285 C280 1.479 . S
C285 C284 1.405 . S
C285 H311 0.931 . S
U286 O287 2.454 . S
U286 O288 2.458 . S
U286 C289 2.984 . S
U286 C290 2.847 1_554 S
U286 C303 2.882 . S
U286 O304 2.441 1_554 S
U286 O305 2.420 1_554 S
U286 O306 2.455 . S
U286 O307 2.449 . S
O287 U286 2.454 . S
O287 C289 1.353 . S
O288 U286 2.458 . S
O288 C289 1.286 . S
C289 U286 2.984 . S
C289 O287 1.353 . S
C289 O288 1.286 . S
C289 C291 1.363 . S
C290 C280 1.465 . S
C290 U286 2.847 1_556 S
C290 O304 1.249 . S
C290 O305 1.202 . S
C291 C289 1.363 . S
C291 C293 1.408 . S
C291 C296 1.342 . S
C292 C293 1.310 . S
C292 C295 1.461 . S
C292 H312 0.932 . S
C293 C291 1.408 . S
C293 C292 1.310 . S
C293 H313 0.930 . S
C294 C295 1.474 . S
C294 C296 1.285 . S
C294 H314 0.929 . S
C295 C292 1.461 . S
C295 C294 1.474 . S
C296 C291 1.342 . S
C296 C294 1.285 . S
C296 H315 0.930 . S
C297 C300 1.424 . S
C297 C302 1.245 . S
C297 C303 1.428 . S
C298 C301 1.260 . S
C298 C302 1.477 . S
C298 H316 0.932 . S
C299 C300 1.384 . S
C299 C301 1.479 . S
C299 H317 0.929 . S
C300 C297 1.424 . S
C300 C299 1.384 . S
C300 H318 0.928 . S
C301 C298 1.260 . S
C301 C299 1.479 . S
C302 C297 1.245 . S
C302 C298 1.477 . S
C302 H319 0.932 . S
C303 U286 2.882 . S
C303 C297 1.428 . S
C303 O306 1.301 . S
C303 O307 1.282 . S
O304 U286 2.441 1_556 S
O304 C290 1.249 . S
O305 U286 2.420 1_556 S
O305 C290 1.202 . S
O306 U286 2.455 . S
O306 C303 1.301 . S
O307 U286 2.449 . S
O307 C303 1.282 . S
H308 C281 0.931 . S
H309 C283 0.929 . S
H310 C284 0.930 . S
H311 C285 0.931 . S
H312 C292 0.932 . S
H313 C293 0.930 . S
H314 C294 0.929 . S
H315 C296 0.930 . S
H316 C298 0.932 . S
H317 C299 0.929 . S
H318 C300 0.928 . S
H319 C302 0.932 . S
Tb320 C322 2.809 . S
Tb320 O340 2.503 . S
Tb320 O341 2.440 . S
Tb320 O342 2.658 1_565 S
Tb320 O343 2.409 . S
Tb320 O344 2.378 . S
Tb320 O348 2.325 1_455 S
Tb320 O351 2.341 1_565 S
Tb321 C331 2.809 . S
Tb321 O342 2.325 1_655 S
Tb321 O345 2.341 1_545 S
Tb321 O346 2.497 . S
Tb321 O347 2.440 . S
Tb321 O348 2.658 1_545 S
Tb321 O349 2.409 . S
Tb321 O350 2.378 . S
C322 Tb320 2.809 . S
C322 C323 1.514 . S
C322 O340 1.291 . S
C322 O341 1.266 . S
C323 C322 1.514 . S
C323 C324 1.359 . S
C323 C328 1.348 . S
C324 C323 1.359 . S
C324 C325 1.380 . S
C324 H352 0.929 1_455 S
C325 C324 1.380 . S
C325 C326 1.347 . S
C325 H353 0.931 1_455 S
C326 C325 1.347 . S
C326 C327 1.369 . S
C327 C326 1.369 . S
C327 C328 1.408 . S
C327 H354 0.930 . S
C328 C323 1.348 . S
C328 C327 1.408 . S
C328 H355 0.930 . S
C329 O342 1.265 1_565 S
C329 O343 1.278 . S
C330 O344 1.236 1_655 S
C330 O345 1.266 . S
C331 Tb321 2.809 . S
C331 C332 1.514 . S
C331 O346 1.277 . S
C331 O347 1.266 . S
C332 C331 1.514 . S
C332 C333 1.359 . S
C332 C337 1.348 . S
C333 C332 1.359 . S
C333 C334 1.380 . S
C333 H356 0.929 1_655 S
C334 C333 1.380 . S
C334 C335 1.347 . S
C334 H357 0.931 1_655 S
C335 C334 1.347 . S
C335 C336 1.369 . S
C336 C335 1.369 . S
C336 C337 1.408 . S
C336 H358 0.930 . S
C337 C332 1.348 . S
C337 C336 1.408 . S
C337 H359 0.930 . S
C338 O348 1.259 1_545 S
C338 O349 1.286 . S
C339 O350 1.236 1_455 S
C339 O351 1.266 . S
O340 Tb320 2.503 . S
O340 C322 1.291 . S
O341 Tb320 2.440 . S
O341 C322 1.266 . S
O342 Tb320 2.658 1_545 S
O342 Tb321 2.325 1_455 S
O342 C329 1.265 1_545 S
O343 Tb320 2.409 . S
O343 C329 1.278 . S
O344 Tb320 2.378 . S
O344 C330 1.236 1_455 S
O345 Tb321 2.341 1_565 S
O345 C330 1.266 . S
O346 Tb321 2.497 . S
O346 C331 1.277 . S
O347 Tb321 2.440 . S
O347 C331 1.266 . S
O348 Tb320 2.325 1_655 S
O348 Tb321 2.658 1_565 S
O348 C338 1.259 1_565 S
O349 Tb321 2.409 . S
O349 C338 1.286 . S
O350 Tb321 2.378 . S
O350 C339 1.236 1_655 S
O351 Tb320 2.341 1_545 S
O351 C339 1.266 . S
H352 C324 0.929 1_655 S
H353 C325 0.931 1_655 S
H354 C327 0.930 . S
H355 C328 0.930 . S
H356 C333 0.929 1_455 S
H357 C334 0.931 1_455 S
H358 C336 0.930 . S
H359 C337 0.930 . S
Tb360 C362 2.809 . S
Tb360 O380 2.501 . S
Tb360 O381 2.440 . S
Tb360 O382 2.658 . S
Tb360 O383 2.409 . S
Tb360 O384 2.378 . S
Tb360 O388 2.325 1_545 S
Tb360 O391 2.341 . S
Tb361 C371 2.809 . S
Tb361 O382 2.325 1_565 S
Tb361 O385 2.341 . S
Tb361 O386 2.495 . S
Tb361 O387 2.440 . S
Tb361 O388 2.658 . S
Tb361 O389 2.409 . S
Tb361 O390 2.378 . S
C362 Tb360 2.809 . S
C362 C363 1.514 . S
C362 O380 1.287 . S
C362 O381 1.266 . S
C363 C362 1.514 . S
C363 C364 1.359 . S
C363 C368 1.348 . S
C364 C363 1.359 . S
C364 C365 1.380 . S
C364 H392 0.929 1_545 S
C365 C364 1.380 . S
C365 C366 1.347 . S
C365 H393 0.931 1_545 S
C366 C365 1.347 . S
C366 C367 1.369 . S
C367 C366 1.369 . S
C367 C368 1.408 . S
C367 H394 0.930 . S
C368 C363 1.348 . S
C368 C367 1.408 . S
C368 H395 0.930 . S
C369 O382 1.281 . S
C369 O383 1.254 . S
C370 O384 1.236 1_565 S
C370 O385 1.266 . S
C371 Tb361 2.809 . S
C371 C372 1.514 . S
C371 O386 1.272 . S
C371 O387 1.266 . S
C372 C371 1.514 . S
C372 C373 1.359 . S
C372 C377 1.348 . S
C373 C372 1.359 . S
C373 C374 1.380 . S
C373 H396 0.929 1_565 S
C374 C373 1.380 . S
C374 C375 1.347 . S
C374 H397 0.931 1_565 S
C375 C374 1.347 . S
C375 C376 1.369 . S
C376 C375 1.369 . S
C376 C377 1.408 . S
C376 H398 0.930 . S
C377 C372 1.348 . S
C377 C376 1.408 . S
C377 H399 0.930 . S
C378 O388 1.281 . S
C378 O389 1.254 . S
C379 O390 1.236 1_545 S
C379 O391 1.266 . S
O380 Tb360 2.501 . S
O380 C362 1.287 . S
O381 Tb360 2.440 . S
O381 C362 1.266 . S
O382 Tb360 2.658 . S
O382 Tb361 2.325 1_545 S
O382 C369 1.281 . S
O383 Tb360 2.409 . S
O383 C369 1.254 . S
O384 Tb360 2.378 . S
O384 C370 1.236 1_545 S
O385 Tb361 2.341 . S
O385 C370 1.266 . S
O386 Tb361 2.495 . S
O386 C371 1.272 . S
O387 Tb361 2.440 . S
O387 C371 1.266 . S
O388 Tb360 2.325 1_565 S
O388 Tb361 2.658 . S
O388 C378 1.281 . S
O389 Tb361 2.409 . S
O389 C378 1.254 . S
O390 Tb361 2.378 . S
O390 C379 1.236 1_565 S
O391 Tb360 2.341 . S
O391 C379 1.266 . S
H392 C364 0.929 1_565 S
H393 C365 0.931 1_565 S
H394 C367 0.930 . S
H395 C368 0.930 . S
H396 C373 0.929 1_545 S
H397 C374 0.931 1_545 S
H398 C376 0.930 . S
H399 C377 0.930 . S
Tb400 C402 2.809 . S
Tb400 O420 2.484 . S
Tb400 O421 2.440 . S
Tb400 O422 2.658 . S
Tb400 O423 2.409 . S
Tb400 O424 2.378 . S
Tb400 O428 2.325 . S
Tb400 O431 2.341 . S
Tb401 C411 2.809 . S
Tb401 O422 2.325 . S
Tb401 O425 2.341 . S
Tb401 O426 2.484 . S
Tb401 O427 2.440 . S
Tb401 O428 2.658 . S
Tb401 O429 2.409 . S
Tb401 O430 2.378 . S
C402 Tb400 2.809 . S
C402 C403 1.514 . S
C402 O420 1.248 . S
C402 O421 1.266 . S
C403 C402 1.514 . S
C403 C404 1.359 . S
C403 C408 1.348 . S
C404 C403 1.359 . S
C404 C405 1.380 . S
C404 H432 0.929 . S
C405 C404 1.380 . S
C405 C406 1.347 . S
C405 H433 0.931 . S
C406 C405 1.347 . S
C406 C407 1.369 . S
C407 C406 1.369 . S
C407 C408 1.408 . S
C407 H434 0.930 . S
C408 C403 1.348 . S
C408 C407 1.408 . S
C408 H435 0.930 . S
C409 O422 1.281 . S
C409 O423 1.254 . S
C410 O424 1.236 . S
C410 O425 1.266 . S
C411 Tb401 2.809 . S
C411 C412 1.514 . S
C411 O426 1.248 . S
C411 O427 1.266 . S
C412 C411 1.514 . S
C412 C413 1.359 . S
C412 C417 1.348 . S
C413 C412 1.359 . S
C413 C414 1.380 . S
C413 H436 0.929 . S
C414 C413 1.380 . S
C414 C415 1.347 . S
C414 H437 0.931 . S
C415 C414 1.347 . S
C415 C416 1.369 . S
C416 C415 1.369 . S
C416 C417 1.408 . S
C416 H438 0.930 . S
C417 C412 1.348 . S
C417 C416 1.408 . S
C417 H439 0.930 . S
C418 O428 1.281 . S
C418 O429 1.254 . S
C419 O430 1.236 . S
C419 O431 1.266 . S
O420 Tb400 2.484 . S
O420 C402 1.248 . S
O421 Tb400 2.440 . S
O421 C402 1.266 . S
O422 Tb400 2.658 . S
O422 Tb401 2.325 . S
O422 C409 1.281 . S
O423 Tb400 2.409 . S
O423 C409 1.254 . S
O424 Tb400 2.378 . S
O424 C410 1.236 . S
O425 Tb401 2.341 . S
O425 C410 1.266 . S
O426 Tb401 2.484 . S
O426 C411 1.248 . S
O427 Tb401 2.440 . S
O427 C411 1.266 . S
O428 Tb400 2.325 . S
O428 Tb401 2.658 . S
O428 C418 1.281 . S
O429 Tb401 2.409 . S
O429 C418 1.254 . S
O430 Tb401 2.378 . S
O430 C419 1.236 . S
O431 Tb400 2.341 . S
O431 C419 1.266 . S
H432 C404 0.929 . S
H433 C405 0.931 . S
H434 C407 0.930 . S
H435 C408 0.930 . S
H436 C413 0.929 . S
H437 C414 0.931 . S
H438 C416 0.930 . S
H439 C417 0.930 . S
Tb440 C442 2.809 . S
Tb440 O460 2.484 . S
Tb440 O461 2.440 . S
Tb440 O462 2.658 1_655 S
Tb440 O463 2.409 . S
Tb440 O464 2.378 . S
Tb440 O468 2.325 . S
Tb440 O471 2.341 1_655 S
Tb441 C451 2.809 . S
Tb441 O462 2.325 . S
Tb441 O465 2.341 1_455 S
Tb441 O466 2.484 . S
Tb441 O467 2.440 . S
Tb441 O468 2.658 1_455 S
Tb441 O469 2.409 . S
Tb441 O470 2.378 . S
C442 Tb440 2.809 . S
C442 C443 1.514 . S
C442 O460 1.248 . S
C442 O461 1.266 . S
C443 C442 1.514 . S
C443 C444 1.359 . S
C443 C448 1.348 . S
C444 C443 1.359 . S
C444 C445 1.380 . S
C444 H472 0.929 . S
C445 C444 1.380 . S
C445 C446 1.347 . S
C445 H473 0.931 . S
C446 C445 1.347 . S
C446 C447 1.369 . S
C447 C446 1.369 . S
C447 C448 1.408 . S
C447 H474 0.930 . S
C448 C443 1.348 . S
C448 C447 1.408 . S
C448 H475 0.930 . S
C449 O462 1.268 1_655 S
C449 O463 1.273 . S
C450 O464 1.236 . S
C450 O465 1.266 . S
C451 Tb441 2.809 . S
C451 C452 1.514 . S
C451 O466 1.248 . S
C451 O467 1.266 . S
C452 C451 1.514 . S
C452 C453 1.359 . S
C452 C457 1.348 . S
C453 C452 1.359 . S
C453 C454 1.380 . S
C453 H476 0.929 . S
C454 C453 1.380 . S
C454 C455 1.347 . S
C454 H477 0.931 . S
C455 C454 1.347 . S
C455 C456 1.369 . S
C456 C455 1.369 . S
C456 C457 1.408 . S
C456 H478 0.930 . S
C457 C452 1.348 . S
C457 C456 1.408 . S
C457 H479 0.930 . S
C458 O468 1.263 1_455 S
C458 O469 1.281 . S
C459 O470 1.236 . S
C459 O471 1.266 . S
O460 Tb440 2.484 . S
O460 C442 1.248 . S
O461 Tb440 2.440 . S
O461 C442 1.266 . S
O462 Tb440 2.658 1_455 S
O462 Tb441 2.325 . S
O462 C449 1.268 1_455 S
O463 Tb440 2.409 . S
O463 C449 1.273 . S
O464 Tb440 2.378 . S
O464 C450 1.236 . S
O465 Tb441 2.341 1_655 S
O465 C450 1.266 . S
O466 Tb441 2.484 . S
O466 C451 1.248 . S
O467 Tb441 2.440 . S
O467 C451 1.266 . S
O468 Tb440 2.325 . S
O468 Tb441 2.658 1_655 S
O468 C458 1.263 1_655 S
O469 Tb441 2.409 . S
O469 C458 1.281 . S
O470 Tb441 2.378 . S
O470 C459 1.236 . S
O471 Tb440 2.341 1_455 S
O471 C459 1.266 . S
H472 C444 0.929 . S
H473 C445 0.931 . S
H474 C447 0.930 . S
H475 C448 0.930 . S
H476 C453 0.929 . S
H477 C454 0.931 . S
H478 C456 0.930 . S
H479 C457 0.930 . S
H480 C488 0.929 . S
H481 C490 0.930 . S
H482 C492 0.930 . S
H483 C495 0.929 . S
H484 C498 0.930 . S
H485 C500 0.960 . S
H486 C500 0.960 . S
H487 C500 0.960 . S
C488 H480 0.929 . S
C488 C489 1.393 . S
C488 C490 1.384 . S
C489 C488 1.393 . S
C489 C495 1.374 1_545 S
C490 H481 0.930 . S
C490 C488 1.384 . S
C490 C491 1.372 . S
C491 C490 1.372 . S
C491 C492 1.400 1_545 S
C491 C496 1.490 . S
C492 H482 0.930 . S
C492 C491 1.400 1_565 S
C492 C495 1.386 . S
H493 C509 0.930 . S
H494 C510 0.931 . S
C495 H483 0.929 . S
C495 C489 1.374 1_565 S
C495 C492 1.386 . S
C496 C491 1.490 . S
C496 C498 1.395 . S
C496 C499 1.403 1_545 S
H497 C503 0.930 . S
C498 H484 0.930 . S
C498 C496 1.395 . S
C498 C501 1.403 . S
C499 C496 1.403 1_565 S
C499 C500 1.524 . S
C499 C503 1.400 . S
C500 H485 0.960 . S
C500 H486 0.960 . S
C500 H487 0.960 . S
C500 C499 1.524 . S
C501 C498 1.403 . S
C501 C502 1.392 . S
C501 C505 1.495 . S
C502 C501 1.392 . S
C502 C503 1.385 1_545 S
C502 C504 1.478 . S
C503 H497 0.930 . S
C503 C499 1.400 . S
C503 C502 1.385 1_565 S
C504 C502 1.478 . S
C504 C506 1.381 . S
C504 C510 1.383 1_545 S
C505 C501 1.495 . S
C505 H511 0.959 . S
C505 H512 0.961 . S
C505 H513 0.960 . S
C506 C504 1.381 . S
C506 C507 1.394 . S
C506 H514 0.930 . S
C507 C506 1.394 . S
C507 C508 1.383 . S
C507 H515 0.929 . S
C508 C507 1.383 . S
C508 C509 1.377 1_545 S
C509 H493 0.930 . S
C509 C508 1.377 1_565 S
C509 C510 1.379 . S
C510 H494 0.931 . S
C510 C504 1.383 1_565 S
C510 C509 1.379 . S
H511 C505 0.959 . S
H512 C505 0.961 . S
H513 C505 0.960 . S
H514 C506 0.930 . S
H515 C507 0.929 . S
H516 C524 0.929 . S
H517 C526 0.930 . S
H518 C528 0.930 . S
H519 C531 0.929 . S
H520 C534 0.930 . S
H521 C536 0.960 . S
H522 C536 0.960 . S
H523 C536 0.960 . S
C524 H516 0.929 . S
C524 C525 1.377 . S
C524 C526 1.384 . S
C525 C524 1.377 . S
C525 C531 1.390 . S
C526 H517 0.930 . S
C526 C524 1.384 . S
C526 C527 1.372 . S
C527 C526 1.372 . S
C527 C528 1.400 . S
C527 C532 1.490 . S
C528 H518 0.930 . S
C528 C527 1.400 . S
C528 C531 1.386 . S
H529 C545 0.930 . S
H530 C546 0.931 . S
C531 H519 0.929 . S
C531 C525 1.390 . S
C531 C528 1.386 . S
C532 C527 1.490 . S
C532 C534 1.395 . S
C532 C535 1.403 . S
H533 C539 0.930 . S
C534 H520 0.930 . S
C534 C532 1.395 . S
C534 C537 1.403 . S
C535 C532 1.403 . S
C535 C536 1.524 . S
C535 C539 1.400 . S
C536 H521 0.960 . S
C536 H522 0.960 . S
C536 H523 0.960 . S
C536 C535 1.524 . S
C537 C534 1.403 . S
C537 C538 1.392 . S
C537 C541 1.495 . S
C538 C537 1.392 . S
C538 C539 1.385 . S
C538 C540 1.478 . S
C539 H533 0.930 . S
C539 C535 1.400 . S
C539 C538 1.385 . S
C540 C538 1.478 . S
C540 C542 1.381 . S
C540 C546 1.383 . S
C541 C537 1.495 . S
C541 H547 0.959 . S
C541 H548 0.961 . S
C541 H549 0.960 . S
C542 C540 1.381 . S
C542 C543 1.394 . S
C542 H550 0.930 . S
C543 C542 1.394 . S
C543 C544 1.383 . S
C543 H551 0.929 . S
C544 C543 1.383 . S
C544 C545 1.377 . S
C545 H529 0.930 . S
C545 C544 1.377 . S
C545 C546 1.379 . S
C546 H530 0.931 . S
C546 C540 1.383 . S
C546 C545 1.379 . S
H547 C541 0.959 . S
H548 C541 0.961 . S
H549 C541 0.960 . S
H550 C542 0.930 . S
H551 C543 0.929 . S
H552 C560 0.929 . S
H553 C562 0.930 . S
H554 C564 0.930 . S
H555 C567 0.929 . S
H556 C570 0.930 . S
H557 C572 0.960 . S
H558 C572 0.960 . S
H559 C572 0.960 . S
C560 H552 0.929 . S
C560 C561 1.377 . S
C560 C562 1.384 . S
C561 C560 1.377 . S
C561 C567 1.390 . S
C562 H553 0.930 . S
C562 C560 1.384 . S
C562 C563 1.372 . S
C563 C562 1.372 . S
C563 C564 1.400 . S
C563 C568 1.490 . S
C564 H554 0.930 . S
C564 C563 1.400 . S
C564 C567 1.386 . S
H565 C581 0.930 . S
H566 C582 0.931 . S
C567 H555 0.929 . S
C567 C561 1.390 . S
C567 C564 1.386 . S
C568 C563 1.490 . S
C568 C570 1.395 . S
C568 C571 1.403 . S
H569 C575 0.930 . S
C570 H556 0.930 . S
C570 C568 1.395 . S
C570 C573 1.403 . S
C571 C568 1.403 . S
C571 C572 1.524 . S
C571 C575 1.400 . S
C572 H557 0.960 . S
C572 H558 0.960 . S
C572 H559 0.960 . S
C572 C571 1.524 . S
C573 C570 1.403 . S
C573 C574 1.392 . S
C573 C577 1.495 . S
C574 C573 1.392 . S
C574 C575 1.385 . S
C574 C576 1.478 . S
C575 H569 0.930 . S
C575 C571 1.400 . S
C575 C574 1.385 . S
C576 C574 1.478 . S
C576 C578 1.381 . S
C576 C582 1.383 . S
C577 C573 1.495 . S
C577 H583 0.959 . S
C577 H584 0.961 . S
C577 H585 0.960 . S
C578 C576 1.381 . S
C578 C579 1.394 . S
C578 H586 0.930 . S
C579 C578 1.394 . S
C579 C580 1.383 . S
C579 H587 0.929 . S
C580 C579 1.383 . S
C580 C581 1.377 . S
C581 H565 0.930 . S
C581 C580 1.377 . S
C581 C582 1.379 . S
C582 H566 0.931 . S
C582 C576 1.383 . S
C582 C581 1.379 . S
H583 C577 0.959 . S
H584 C577 0.961 . S
H585 C577 0.960 . S
H586 C578 0.930 . S
H587 C579 0.929 . S
H588 C596 0.929 . S
H589 C598 0.930 . S
H590 C600 0.930 . S
H591 C603 0.929 . S
H592 C606 0.930 . S
H593 C608 0.960 . S
H594 C608 0.960 . S
H595 C608 0.960 1_455 S
C596 H588 0.929 . S
C596 C597 1.376 . S
C596 C598 1.384 . S
C597 C596 1.376 . S
C597 C603 1.391 1_655 S
C598 H589 0.930 . S
C598 C596 1.384 . S
C598 C599 1.400 . S
C599 C598 1.400 . S
C599 C600 1.371 1_655 S
C599 C604 1.490 . S
C600 H590 0.930 . S
C600 C599 1.371 1_455 S
C600 C603 1.386 . S
H601 C617 0.930 . S
H602 C618 0.931 . S
C603 H591 0.929 . S
C603 C597 1.391 1_455 S
C603 C600 1.386 . S
C604 C599 1.490 . S
C604 C606 1.394 . S
C604 C607 1.403 . S
H605 C611 0.930 . S
C606 H592 0.930 . S
C606 C604 1.394 . S
C606 C609 1.403 1_655 S
C607 C604 1.403 . S
C607 C608 1.528 . S
C607 C611 1.399 . S
C608 H593 0.960 . S
C608 H594 0.960 . S
C608 H595 0.960 1_655 S
C608 C607 1.528 . S
C609 C606 1.403 1_455 S
C609 C610 1.392 . S
C609 C613 1.495 . S
C610 C609 1.392 . S
C610 C611 1.385 1_455 S
C610 C612 1.477 . S
C611 H605 0.930 . S
C611 C607 1.399 . S
C611 C610 1.385 1_655 S
C612 C610 1.477 . S
C612 C614 1.351 1_455 S
C612 C618 1.414 . S
C613 C609 1.495 . S
C613 H619 0.959 . S
C613 H620 0.997 . S
C613 H621 0.926 1_455 S
C614 C612 1.351 1_655 S
C614 C615 1.394 . S
C614 H622 0.930 . S
C615 C614 1.394 . S
C615 C616 1.336 1_655 S
C615 H623 0.929 . S
C616 C615 1.336 1_455 S
C616 C617 1.424 . S
C617 H601 0.930 . S
C617 C616 1.424 . S
C617 C618 1.379 . S
C618 H602 0.931 . S
C618 C612 1.414 . S
C618 C617 1.379 . S
H619 C613 0.959 . S
H620 C613 0.997 . S
H621 C613 0.926 1_655 S
H622 C614 0.930 . S
H623 C615 0.929 . S
H624 C632 0.929 . S
H625 C634 0.930 . S
H626 C636 0.930 . S
H627 C639 0.929 . S
H628 C642 0.930 . S
H629 C644 0.960 . S
H630 C644 0.960 . S
H631 C644 0.960 . S
C632 H624 0.929 . S
C632 C633 1.381 . S
C632 C634 1.384 . S
C633 C632 1.381 . S
C633 C639 1.386 1_545 S
C634 H625 0.930 . S
C634 C632 1.384 . S
C634 C635 1.419 . S
C635 C634 1.419 . S
C635 C636 1.352 1_545 S
C635 C640 1.492 . S
C636 H626 0.930 . S
C636 C635 1.352 1_565 S
C636 C639 1.386 . S
H637 C653 0.930 . S
H638 C654 0.931 . S
C639 H627 0.929 . S
C639 C633 1.386 1_565 S
C639 C636 1.386 . S
C640 C635 1.492 . S
C640 C642 1.395 . S
C640 C643 1.403 1_544 S
H641 C647 0.930 . S
C642 H628 0.930 . S
C642 C640 1.395 . S
C642 C645 1.403 1_554 S
C643 C640 1.403 1_566 S
C643 C644 1.524 . S
C643 C647 1.400 . S
C644 H629 0.960 . S
C644 H630 0.960 . S
C644 H631 0.960 . S
C644 C643 1.524 . S
C645 C642 1.403 1_556 S
C645 C646 1.392 . S
C645 C649 1.495 . S
C646 C645 1.392 . S
C646 C647 1.385 1_545 S
C646 C648 1.478 . S
C647 H641 0.930 . S
C647 C643 1.400 . S
C647 C646 1.385 1_565 S
C648 C646 1.478 . S
C648 C650 1.381 . S
C648 C654 1.383 1_545 S
C649 C645 1.495 . S
C649 H655 0.959 1_556 S
C649 H656 0.961 . S
C649 H657 0.960 . S
C650 C648 1.381 . S
C650 C651 1.394 . S
C650 H658 0.930 . S
C651 C650 1.394 . S
C651 C652 1.400 . S
C651 H659 0.929 . S
C652 C651 1.400 . S
C652 C653 1.361 1_545 S
C653 H637 0.930 . S
C653 C652 1.361 1_565 S
C653 C654 1.379 . S
C654 H638 0.931 . S
C654 C648 1.383 1_565 S
C654 C653 1.379 . S
H655 C649 0.959 1_554 S
H656 C649 0.961 . S
H657 C649 0.960 . S
H658 C650 0.930 . S
H659 C651 0.929 . S
H660 C668 0.929 . S
H661 C670 0.930 . S
H662 C672 0.930 . S
H663 C675 0.929 . S
H664 C678 0.930 . S
H665 C680 0.960 . S
H666 C680 0.960 . S
H667 C680 0.960 . S
C668 H660 0.929 . S
C668 C669 1.377 . S
C668 C670 1.384 . S
C669 C668 1.377 . S
C669 C675 1.390 . S
C670 H661 0.930 . S
C670 C668 1.384 . S
C670 C671 1.372 . S
C671 C670 1.372 . S
C671 C672 1.400 . S
C671 C676 1.490 . S
C672 H662 0.930 . S
C672 C671 1.400 . S
C672 C675 1.386 . S
H673 C689 0.930 . S
H674 C690 0.931 . S
C675 H663 0.929 . S
C675 C669 1.390 . S
C675 C672 1.386 . S
C676 C671 1.490 . S
C676 C678 1.395 . S
C676 C679 1.403 1_554 S
H677 C683 0.930 . S
C678 H664 0.930 . S
C678 C676 1.395 . S
C678 C681 1.403 1_554 S
C679 C676 1.403 1_556 S
C679 C680 1.524 . S
C679 C683 1.400 . S
C680 H665 0.960 . S
C680 H666 0.960 . S
C680 H667 0.960 . S
C680 C679 1.524 . S
C681 C678 1.403 1_556 S
C681 C682 1.392 . S
C681 C685 1.495 . S
C682 C681 1.392 . S
C682 C683 1.385 . S
C682 C684 1.478 . S
C683 H677 0.930 . S
C683 C679 1.400 . S
C683 C682 1.385 . S
C684 C682 1.478 . S
C684 C686 1.381 . S
C684 C690 1.383 . S
C685 C681 1.495 . S
C685 H691 0.959 1_556 S
C685 H692 0.961 . S
C685 H693 0.960 . S
C686 C684 1.381 . S
C686 C687 1.394 . S
C686 H694 0.930 . S
C687 C686 1.394 . S
C687 C688 1.383 . S
C687 H695 0.929 . S
C688 C687 1.383 . S
C688 C689 1.377 . S
C689 H673 0.930 . S
C689 C688 1.377 . S
C689 C690 1.379 . S
C690 H674 0.931 . S
C690 C684 1.383 . S
C690 C689 1.379 . S
H691 C685 0.959 1_554 S
H692 C685 0.961 . S
H693 C685 0.960 . S
H694 C686 0.930 . S
H695 C687 0.929 . S
H696 C704 0.929 . S
H697 C706 0.930 . S
H698 C708 0.930 . S
H699 C711 0.929 . S
H700 C714 0.930 . S
H701 C716 0.960 . S
H702 C716 0.960 . S
H703 C716 0.960 . S
C704 H696 0.929 . S
C704 C705 1.377 . S
C704 C706 1.384 . S
C705 C704 1.377 . S
C705 C711 1.390 . S
C706 H697 0.930 . S
C706 C704 1.384 . S
C706 C707 1.372 . S
C707 C706 1.372 . S
C707 C708 1.400 . S
C707 C712 1.490 . S
C708 H698 0.930 . S
C708 C707 1.400 . S
C708 C711 1.386 . S
H709 C725 0.930 . S
H710 C726 0.931 . S
C711 H699 0.929 . S
C711 C705 1.390 . S
C711 C708 1.386 . S
C712 C707 1.490 . S
C712 C714 1.395 1_554 S
C712 C715 1.403 . S
H713 C719 0.930 . S
C714 H700 0.930 . S
C714 C712 1.395 1_556 S
C714 C717 1.403 . S
C715 C712 1.403 . S
C715 C716 1.524 . S
C715 C719 1.400 1_554 S
C716 H701 0.960 . S
C716 H702 0.960 . S
C716 H703 0.960 . S
C716 C715 1.524 . S
C717 C714 1.403 . S
C717 C718 1.392 . S
C717 C721 1.495 . S
C718 C717 1.392 . S
C718 C719 1.385 . S
C718 C720 1.478 . S
C719 H713 0.930 . S
C719 C715 1.400 1_556 S
C719 C718 1.385 . S
C720 C718 1.478 . S
C720 C722 1.381 . S
C720 C726 1.383 . S
C721 C717 1.495 . S
C721 H727 0.959 . S
C721 H728 0.961 . S
C721 H729 0.960 . S
C722 C720 1.381 . S
C722 C723 1.394 . S
C722 H730 0.930 . S
C723 C722 1.394 . S
C723 C724 1.383 . S
C723 H731 0.929 . S
C724 C723 1.383 . S
C724 C725 1.377 . S
C725 H709 0.930 . S
C725 C724 1.377 . S
C725 C726 1.379 . S
C726 H710 0.931 . S
C726 C720 1.383 . S
C726 C725 1.379 . S
H727 C721 0.959 . S
H728 C721 0.961 . S
H729 C721 0.960 . S
H730 C722 0.930 . S
H731 C723 0.929 . S
H732 C740 0.929 . S
H733 C742 0.930 . S
H734 C744 0.930 . S
H735 C747 0.929 . S
H736 C750 0.930 . S
H737 C752 0.960 . S
H738 C752 0.960 1_554 S
H739 C752 0.960 . S
C740 H732 0.929 . S
C740 C741 1.379 1_655 S
C740 C742 1.384 . S
C741 C740 1.379 1_455 S
C741 C747 1.389 . S
C742 H733 0.930 . S
C742 C740 1.384 . S
C742 C743 1.375 . S
C743 C742 1.375 . S
C743 C744 1.397 1_655 S
C743 C748 1.489 . S
C744 H734 0.930 . S
C744 C743 1.397 1_455 S
C744 C747 1.386 . S
H745 C761 0.929 . S
H746 C762 0.931 . S
C747 H735 0.929 . S
C747 C741 1.389 . S
C747 C744 1.386 . S
C748 C743 1.489 . S
C748 C750 1.453 . S
C748 C751 1.349 1_654 S
H749 C755 0.930 . S
C750 H736 0.930 . S
C750 C748 1.453 . S
C750 C753 1.403 1_554 S
C751 C748 1.349 1_456 S
C751 C752 1.524 . S
C751 C755 1.400 . S
C752 H737 0.960 . S
C752 H738 0.960 1_556 S
C752 H739 0.960 . S
C752 C751 1.524 . S
C753 C750 1.403 1_556 S
C753 C754 1.392 . S
C753 C757 1.495 . S
C754 C753 1.392 . S
C754 C755 1.385 1_655 S
C754 C756 1.478 . S
C755 H749 0.930 . S
C755 C751 1.400 . S
C755 C754 1.385 1_455 S
C756 C754 1.478 . S
C756 C758 1.381 . S
C756 C762 1.383 . S
C757 C753 1.495 . S
C757 H763 0.959 . S
C757 H764 0.961 . S
C757 H765 0.960 . S
C758 C756 1.381 . S
C758 C759 1.394 . S
C758 H766 0.930 . S
C759 C758 1.394 . S
C759 C760 1.383 . S
C759 H767 0.929 . S
C760 C759 1.383 . S
C760 C761 1.377 . S
C761 H745 0.929 . S
C761 C760 1.377 . S
C761 C762 1.379 . S
C762 H746 0.931 . S
C762 C756 1.383 . S
C762 C761 1.379 . S
H763 C757 0.959 . S
H764 C757 0.961 . S
H765 C757 0.960 . S
H766 C758 0.930 . S
H767 C759 0.929 . S
H768 C776 0.929 . S
H769 C778 0.930 . S
H770 C780 0.930 . S
H771 C783 0.929 . S
H772 C786 0.930 . S
H773 C788 0.960 . S
H774 C788 0.960 . S
H775 C788 0.960 . S
C776 H768 0.929 . S
C776 C777 1.377 1_655 S
C776 C778 1.384 . S
C777 C776 1.377 1_455 S
C777 C783 1.390 . S
C778 H769 0.930 . S
C778 C776 1.384 . S
C778 C779 1.372 . S
C779 C778 1.372 . S
C779 C780 1.400 1_655 S
C779 C784 1.490 . S
C780 H770 0.930 . S
C780 C779 1.400 1_455 S
C780 C783 1.386 . S
H781 C797 0.930 . S
H782 C798 0.931 . S
C783 H771 0.929 . S
C783 C777 1.390 . S
C783 C780 1.386 . S
C784 C779 1.490 . S
C784 C786 1.395 . S
C784 C787 1.403 1_655 S
H785 C791 0.928 1_455 S
C786 H772 0.930 . S
C786 C784 1.395 . S
C786 C789 1.403 . S
C787 C784 1.403 1_455 S
C787 C788 1.524 . S
C787 C791 1.399 1_455 S
C788 H773 0.960 . S
C788 H774 0.960 . S
C788 H775 0.960 . S
C788 C787 1.524 . S
C789 C786 1.403 . S
C789 C790 1.392 . S
C789 C793 1.495 . S
C790 C789 1.392 . S
C790 C791 1.387 . S
C790 C792 1.478 . S
C791 H785 0.928 1_655 S
C791 C787 1.399 1_655 S
C791 C790 1.387 . S
C792 C790 1.478 . S
C792 C794 1.381 . S
C792 C798 1.383 . S
C793 C789 1.495 . S
C793 H799 0.959 . S
C793 H800 0.961 . S
C793 H801 0.960 . S
C794 C792 1.381 . S
C794 C795 1.394 . S
C794 H802 0.930 . S
C795 C794 1.394 . S
C795 C796 1.383 . S
C795 H803 0.929 . S
C796 C795 1.383 . S
C796 C797 1.377 . S
C797 H781 0.930 . S
C797 C796 1.377 . S
C797 C798 1.379 . S
C798 H782 0.931 . S
C798 C792 1.383 . S
C798 C797 1.379 . S
H799 C793 0.959 . S
H800 C793 0.961 . S
H801 C793 0.960 . S
H802 C794 0.930 . S
H803 C795 0.929 . S
H804 C812 0.929 . S
H805 C814 0.930 . S
H806 C816 0.930 . S
H807 C819 0.929 . S
H808 C822 0.930 . S
H809 C824 0.960 . S
H810 C824 0.960 . S
H811 C824 0.960 . S
C812 H804 0.929 . S
C812 C813 1.377 . S
C812 C814 1.384 . S
C813 C812 1.377 . S
C813 C819 1.390 1_545 S
C814 H805 0.930 . S
C814 C812 1.384 . S
C814 C815 1.372 1_545 S
C815 C814 1.372 1_565 S
C815 C816 1.400 . S
C815 C820 1.490 . S
C816 H806 0.930 . S
C816 C815 1.400 . S
C816 C819 1.386 . S
H817 C833 0.930 . S
H818 C834 0.931 . S
C819 H807 0.929 . S
C819 C813 1.390 1_565 S
C819 C816 1.386 . S
C820 C815 1.490 . S
C820 C822 1.395 . S
C820 C823 1.403 . S
H821 C827 0.930 . S
C822 H808 0.930 . S
C822 C820 1.395 . S
C822 C825 1.403 . S
C823 C820 1.403 . S
C823 C824 1.524 1_565 S
C823 C827 1.400 . S
C824 H809 0.960 . S
C824 H810 0.960 . S
C824 H811 0.960 . S
C824 C823 1.524 1_545 S
C825 C822 1.403 . S
C825 C826 1.392 . S
C825 C829 1.495 . S
C826 C825 1.392 . S
C826 C827 1.385 . S
C826 C828 1.478 . S
C827 H821 0.930 . S
C827 C823 1.400 . S
C827 C826 1.385 . S
C828 C826 1.478 . S
C828 C830 1.381 . S
C828 C834 1.383 . S
C829 C825 1.495 . S
C829 H835 0.959 . S
C829 H836 0.961 . S
C829 H837 0.960 . S
C830 C828 1.381 . S
C830 C831 1.394 . S
C830 H838 0.930 . S
C831 C830 1.394 . S
C831 C832 1.383 . S
C831 H839 0.929 . S
C832 C831 1.383 . S
C832 C833 1.377 . S
C833 H817 0.930 . S
C833 C832 1.377 . S
C833 C834 1.379 . S
C834 H818 0.931 . S
C834 C828 1.383 . S
C834 C833 1.379 . S
H835 C829 0.959 . S
H836 C829 0.961 . S
H837 C829 0.960 . S
H838 C830 0.930 . S
H839 C831 0.929 . S
H840 C848 0.929 . S
H841 C850 0.930 . S
H842 C852 0.930 . S
H843 C855 0.929 . S
H844 C858 0.930 . S
H845 C860 0.960 . S
H846 C860 0.960 . S
H847 C860 0.960 . S
C848 H840 0.929 . S
C848 C849 1.377 . S
C848 C850 1.384 . S
C849 C848 1.377 . S
C849 C855 1.390 . S
C850 H841 0.930 . S
C850 C848 1.384 . S
C850 C851 1.372 . S
C851 C850 1.372 . S
C851 C852 1.400 . S
C851 C856 1.490 . S
C852 H842 0.930 . S
C852 C851 1.400 . S
C852 C855 1.386 . S
H853 C869 0.930 . S
H854 C870 0.931 . S
C855 H843 0.929 . S
C855 C849 1.390 . S
C855 C852 1.386 . S
C856 C851 1.490 . S
C856 C858 1.395 . S
C856 C859 1.403 . S
H857 C863 0.930 . S
C858 H844 0.930 . S
C858 C856 1.395 . S
C858 C861 1.403 . S
C859 C856 1.403 . S
C859 C860 1.524 . S
C859 C863 1.400 . S
C860 H845 0.960 . S
C860 H846 0.960 . S
C860 H847 0.960 . S
C860 C859 1.524 . S
C861 C858 1.403 . S
C861 C862 1.392 . S
C861 C865 1.495 . S
C862 C861 1.392 . S
C862 C863 1.385 . S
C862 C864 1.478 . S
C863 H857 0.930 . S
C863 C859 1.400 . S
C863 C862 1.385 . S
C864 C862 1.478 . S
C864 C866 1.381 . S
C864 C870 1.383 . S
C865 C861 1.495 . S
C865 H871 0.959 . S
C865 H872 0.961 . S
C865 H873 0.960 . S
C866 C864 1.381 . S
C866 C867 1.394 . S
C866 H874 0.930 . S
C867 C866 1.394 . S
C867 C868 1.383 . S
C867 H875 0.929 . S
C868 C867 1.383 . S
C868 C869 1.377 . S
C869 H853 0.930 . S
C869 C868 1.377 . S
C869 C870 1.379 . S
C870 H854 0.931 . S
C870 C864 1.383 . S
C870 C869 1.379 . S
H871 C865 0.959 . S
H872 C865 0.961 . S
H873 C865 0.960 . S
H874 C866 0.930 . S
H875 C867 0.929 . S
H876 C884 0.929 . S
H877 C886 0.930 . S
H878 C888 0.930 . S
H879 C891 0.929 . S
H880 C894 0.930 . S
H881 C896 0.960 . S
H882 C896 0.960 . S
H883 C896 0.960 . S
C884 H876 0.929 . S
C884 C885 1.377 . S
C884 C886 1.384 . S
C885 C884 1.377 . S
C885 C891 1.390 . S
C886 H877 0.930 . S
C886 C884 1.384 . S
C886 C887 1.372 . S
C887 C886 1.372 . S
C887 C888 1.400 . S
C887 C892 1.490 . S
C888 H878 0.930 . S
C888 C887 1.400 . S
C888 C891 1.386 . S
H889 C905 0.930 . S
H890 C906 0.931 . S
C891 H879 0.929 . S
C891 C885 1.390 . S
C891 C888 1.386 . S
C892 C887 1.490 . S
C892 C894 1.395 . S
C892 C895 1.403 . S
H893 C899 0.930 . S
C894 H880 0.930 . S
C894 C892 1.395 . S
C894 C897 1.403 . S
C895 C892 1.403 . S
C895 C896 1.524 . S
C895 C899 1.400 . S
C896 H881 0.960 . S
C896 H882 0.960 . S
C896 H883 0.960 . S
C896 C895 1.524 . S
C897 C894 1.403 . S
C897 C898 1.392 . S
C897 C901 1.495 . S
C898 C897 1.392 . S
C898 C899 1.385 . S
C898 C900 1.478 . S
C899 H893 0.930 . S
C899 C895 1.400 . S
C899 C898 1.385 . S
C900 C898 1.478 . S
C900 C902 1.381 . S
C900 C906 1.383 . S
C901 C897 1.495 . S
C901 H907 0.959 . S
C901 H908 0.961 . S
C901 H909 0.960 . S
C902 C900 1.381 . S
C902 C903 1.394 . S
C902 H910 0.930 . S
C903 C902 1.394 . S
C903 C904 1.383 . S
C903 H911 0.929 . S
C904 C903 1.383 . S
C904 C905 1.377 . S
C905 H889 0.930 . S
C905 C904 1.377 . S
C905 C906 1.379 . S
C906 H890 0.931 . S
C906 C900 1.383 . S
C906 C905 1.379 . S
H907 C901 0.959 . S
H908 C901 0.961 . S
H909 C901 0.960 . S
H910 C902 0.930 . S
H911 C903 0.929 . S
H912 C920 0.929 . S
H913 C922 0.930 . S
H914 C924 0.930 . S
H915 C927 0.929 1_556 S
H916 C930 0.930 . S
H917 C932 0.960 . S
H918 C932 0.960 . S
H919 C932 0.960 . S
C920 H912 0.929 . S
C920 C921 1.377 . S
C920 C922 1.384 . S
C921 C920 1.377 . S
C921 C927 1.390 1_655 S
C922 H913 0.930 . S
C922 C920 1.384 . S
C922 C923 1.372 1_655 S
C923 C922 1.372 1_455 S
C923 C924 1.400 1_554 S
C923 C928 1.490 1_554 S
C924 H914 0.930 . S
C924 C923 1.400 1_556 S
C924 C927 1.386 1_556 S
H925 C941 0.930 . S
H926 C942 0.931 . S
C927 H915 0.929 1_554 S
C927 C921 1.390 1_455 S
C927 C924 1.386 1_554 S
C928 C923 1.490 1_556 S
C928 C930 1.395 1_556 S
C928 C931 1.406 . S
H929 C935 0.928 . S
C930 H916 0.930 . S
C930 C928 1.395 1_554 S
C930 C933 1.403 1_554 S
C931 C928 1.406 . S
C931 C932 1.519 1_455 S
C931 C935 1.402 . S
C932 H917 0.960 . S
C932 H918 0.960 . S
C932 H919 0.960 . S
C932 C931 1.519 1_655 S
C933 C930 1.403 1_556 S
C933 C934 1.392 . S
C933 C937 1.495 1_556 S
C934 C933 1.392 . S
C934 C935 1.385 . S
C934 C936 1.478 . S
C935 H929 0.928 . S
C935 C931 1.402 . S
C935 C934 1.385 . S
C936 C934 1.478 . S
C936 C938 1.381 . S
C936 C942 1.383 . S
C937 C933 1.495 1_554 S
C937 H943 0.959 . S
C937 H944 0.961 1_554 S
C937 H945 0.960 . S
C938 C936 1.381 . S
C938 C939 1.394 . S
C938 H946 0.930 . S
C939 C938 1.394 . S
C939 C940 1.383 . S
C939 H947 0.929 . S
C940 C939 1.383 . S
C940 C941 1.377 . S
C941 H925 0.930 . S
C941 C940 1.377 . S
C941 C942 1.379 . S
C942 H926 0.931 . S
C942 C936 1.383 . S
C942 C941 1.379 . S
H943 C937 0.959 . S
H944 C937 0.961 1_556 S
H945 C937 0.960 . S
H946 C938 0.930 . S
H947 C939 0.929 . S
H948 C956 0.929 . S
H949 C958 0.930 . S
H950 C960 0.930 . S
H951 C963 0.929 . S
H952 C966 0.954 . S
H953 C968 0.960 . S
H954 C968 0.960 . S
H955 C968 0.960 . S
C956 H948 0.929 . S
C956 C957 1.335 1_545 S
C956 C958 1.384 1_554 S
C957 C956 1.335 1_565 S
C957 C963 1.423 . S
C958 H949 0.930 . S
C958 C956 1.384 1_556 S
C958 C959 1.372 1_556 S
C959 C958 1.372 1_554 S
C959 C960 1.400 1_545 S
C959 C964 1.490 1_554 S
C960 H950 0.930 . S
C960 C959 1.400 1_565 S
C960 C963 1.386 . S
H961 C977 0.930 . S
H962 C978 0.931 1_565 S
C963 H951 0.929 . S
C963 C957 1.423 . S
C963 C960 1.386 . S
C964 C959 1.490 1_556 S
C964 C966 1.395 . S
C964 C967 1.393 1_556 S
H965 C971 0.930 . S
C966 H952 0.954 . S
C966 C964 1.395 . S
C966 C969 1.403 . S
C967 C964 1.393 1_554 S
C967 C968 1.545 . S
C967 C971 1.388 1_554 S
C968 H953 0.960 . S
C968 H954 0.960 . S
C968 H955 0.960 . S
C968 C967 1.545 . S
C969 C966 1.403 . S
C969 C970 1.392 . S
C969 C973 1.495 . S
C970 C969 1.392 . S
C970 C971 1.385 . S
C970 C972 1.478 . S
C971 H965 0.930 . S
C971 C967 1.388 1_556 S
C971 C970 1.385 . S
C972 C970 1.478 . S
C972 C974 1.381 . S
C972 C978 1.383 . S
C973 C969 1.495 . S
C973 H979 0.941 1_545 S
C973 H980 0.961 1_545 S
C973 H981 0.960 . S
C974 C972 1.381 . S
C974 C975 1.394 . S
C974 H982 0.930 . S
C975 C974 1.394 . S
C975 C976 1.383 . S
C975 H983 0.929 . S
C976 C975 1.383 . S
C976 C977 1.377 . S
C977 H961 0.930 . S
C977 C976 1.377 . S
C977 C978 1.379 . S
C978 H962 0.931 1_545 S
C978 C972 1.383 . S
C978 C977 1.379 . S
H979 C973 0.941 1_565 S
H980 C973 0.961 1_565 S
H981 C973 0.960 . S
H982 C974 0.930 . S
H983 C975 0.929 . S
H984 C992 0.929 . S
H985 C994 0.930 . S
H986 C996 0.930 . S
H987 C999 0.929 . S
H988 C1002 0.930 . S
H989 C1004 0.960 . S
H990 C1004 0.960 . S
H991 C1004 0.960 . S
C992 H984 0.929 . S
C992 C993 1.377 . S
C992 C994 1.384 1_554 S
C993 C992 1.377 . S
C993 C999 1.390 . S
C994 H985 0.930 . S
C994 C992 1.384 1_556 S
C994 C995 1.372 1_556 S
C995 C994 1.372 1_554 S
C995 C996 1.400 . S
C995 C1000 1.490 1_554 S
C996 H986 0.930 . S
C996 C995 1.400 . S
C996 C999 1.386 . S
H997 C1013 0.930 . S
H998 C1014 0.931 . S
C999 H987 0.929 . S
C999 C993 1.390 . S
C999 C996 1.386 . S
C1000 C995 1.490 1_556 S
C1000 C1002 1.395 . S
C1000 C1003 1.403 1_556 S
H1001 C1007 0.930 . S
C1002 H988 0.930 . S
C1002 C1000 1.395 . S
C1002 C1005 1.403 . S
C1003 C1000 1.403 1_554 S
C1003 C1004 1.524 . S
C1003 C1007 1.400 1_554 S
C1004 H989 0.960 . S
C1004 H990 0.960 . S
C1004 H991 0.960 . S
C1004 C1003 1.524 . S
C1005 C1002 1.403 . S
C1005 C1006 1.392 . S
C1005 C1009 1.495 . S
C1006 C1005 1.392 . S
C1006 C1007 1.385 . S
C1006 C1008 1.478 . S
C1007 H1001 0.930 . S
C1007 C1003 1.400 1_556 S
C1007 C1006 1.385 . S
C1008 C1006 1.478 . S
C1008 C1010 1.381 . S
C1008 C1014 1.383 . S
C1009 C1005 1.495 . S
C1009 H1015 0.959 . S
C1009 H1016 0.961 . S
C1009 H1017 0.960 . S
C1010 C1008 1.381 . S
C1010 C1011 1.394 . S
C1010 H1018 0.930 . S
C1011 C1010 1.394 . S
C1011 C1012 1.383 . S
C1011 H1019 0.929 . S
C1012 C1011 1.383 . S
C1012 C1013 1.377 . S
C1013 H997 0.930 . S
C1013 C1012 1.377 . S
C1013 C1014 1.379 . S
C1014 H998 0.931 . S
C1014 C1008 1.383 . S
C1014 C1013 1.379 . S
H1015 C1009 0.959 . S
H1016 C1009 0.961 . S
H1017 C1009 0.960 . S
H1018 C1010 0.930 . S
H1019 C1011 0.929 . S
H1020 C1028 0.929 . S
H1021 C1030 0.930 . S
H1022 C1032 0.930 . S
H1023 C1035 0.929 . S
H1024 C1038 0.930 . S
H1025 C1040 0.960 . S
H1026 C1040 0.960 . S
H1027 C1040 0.960 . S
C1028 H1020 0.929 . S
C1028 C1029 1.377 . S
C1028 C1030 1.384 . S
C1029 C1028 1.377 . S
C1029 C1035 1.390 . S
C1030 H1021 0.930 . S
C1030 C1028 1.384 . S
C1030 C1031 1.372 . S
C1031 C1030 1.372 . S
C1031 C1032 1.400 . S
C1031 C1036 1.490 1_554 S
C1032 H1022 0.930 . S
C1032 C1031 1.400 . S
C1032 C1035 1.386 . S
H1033 C1049 0.930 . S
H1034 C1050 0.931 . S
C1035 H1023 0.929 . S
C1035 C1029 1.390 . S
C1035 C1032 1.386 . S
C1036 C1031 1.490 1_556 S
C1036 C1038 1.395 . S
C1036 C1039 1.403 . S
H1037 C1043 0.930 . S
C1038 H1024 0.930 . S
C1038 C1036 1.395 . S
C1038 C1041 1.403 . S
C1039 C1036 1.403 . S
C1039 C1040 1.524 1_556 S
C1039 C1043 1.400 . S
C1040 H1025 0.960 . S
C1040 H1026 0.960 . S
C1040 H1027 0.960 . S
C1040 C1039 1.524 1_554 S
C1041 C1038 1.403 . S
C1041 C1042 1.392 . S
C1041 C1045 1.495 . S
C1042 C1041 1.392 . S
C1042 C1043 1.385 . S
C1042 C1044 1.478 . S
C1043 H1037 0.930 . S
C1043 C1039 1.400 . S
C1043 C1042 1.385 . S
C1044 C1042 1.478 . S
C1044 C1046 1.381 . S
C1044 C1050 1.383 . S
C1045 C1041 1.495 . S
C1045 H1051 0.959 . S
C1045 H1052 0.961 . S
C1045 H1053 0.960 . S
C1046 C1044 1.381 . S
C1046 C1047 1.394 . S
C1046 H1054 0.930 . S
C1047 C1046 1.394 . S
C1047 C1048 1.383 . S
C1047 H1055 0.929 . S
C1048 C1047 1.383 . S
C1048 C1049 1.377 . S
C1049 H1033 0.930 . S
C1049 C1048 1.377 . S
C1049 C1050 1.379 . S
C1050 H1034 0.931 . S
C1050 C1044 1.383 . S
C1050 C1049 1.379 . S
H1051 C1045 0.959 . S
H1052 C1045 0.961 . S
H1053 C1045 0.960 . S
H1054 C1046 0.930 . S
H1055 C1047 0.929 . S
H1056 C1064 0.926 1_655 S
H1057 C1066 0.933 . S
H1058 C1068 0.930 . S
H1059 C1071 0.929 . S
H1060 C1074 0.930 . S
H1061 C1076 0.960 . S
H1062 C1076 0.960 . S
H1063 C1076 0.960 . S
C1064 H1056 0.926 1_455 S
C1064 C1065 1.376 . S
C1064 C1066 1.385 . S
C1065 C1064 1.376 . S
C1065 C1071 1.396 . S
C1066 H1057 0.933 . S
C1066 C1064 1.385 . S
C1066 C1067 1.372 . S
C1067 C1066 1.372 . S
C1067 C1068 1.400 . S
C1067 C1072 1.490 . S
C1068 H1058 0.930 . S
C1068 C1067 1.400 . S
C1068 C1071 1.386 . S
H1069 C1085 0.930 . S
H1070 C1086 0.931 . S
C1071 H1059 0.929 . S
C1071 C1065 1.396 . S
C1071 C1068 1.386 . S
C1072 C1067 1.490 . S
C1072 C1074 1.395 . S
C1072 C1075 1.403 1_455 S
H1073 C1079 0.930 . S
C1074 H1060 0.930 . S
C1074 C1072 1.395 . S
C1074 C1077 1.403 . S
C1075 C1072 1.403 1_655 S
C1075 C1076 1.524 . S
C1075 C1079 1.400 . S
C1076 H1061 0.960 . S
C1076 H1062 0.960 . S
C1076 H1063 0.960 . S
C1076 C1075 1.524 . S
C1077 C1074 1.403 . S
C1077 C1078 1.392 . S
C1077 C1081 1.495 . S
C1078 C1077 1.392 . S
C1078 C1079 1.385 1_455 S
C1078 C1080 1.478 . S
C1079 H1073 0.930 . S
C1079 C1075 1.400 . S
C1079 C1078 1.385 1_655 S
C1080 C1078 1.478 . S
C1080 C1082 1.381 . S
C1080 C1086 1.383 . S
C1081 C1077 1.495 . S
C1081 H1087 0.959 . S
C1081 H1088 0.961 . S
C1081 H1089 0.960 . S
C1082 C1080 1.381 . S
C1082 C1083 1.394 . S
C1082 H1090 0.930 . S
C1083 C1082 1.394 . S
C1083 C1084 1.383 . S
C1083 H1091 0.929 . S
C1084 C1083 1.383 . S
C1084 C1085 1.377 . S
C1085 H1069 0.930 . S
C1085 C1084 1.377 . S
C1085 C1086 1.379 . S
C1086 H1070 0.931 . S
C1086 C1080 1.383 . S
C1086 C1085 1.379 . S
H1087 C1081 0.959 . S
H1088 C1081 0.961 . S
H1089 C1081 0.960 . S
H1090 C1082 0.930 . S
H1091 C1083 0.929 . S
H1092 C1100 0.929 . S
H1093 C1102 0.930 . S
H1094 C1104 0.930 . S
H1095 C1107 0.929 . S
H1096 C1110 0.935 . S
H1097 C1112 0.960 . S
H1098 C1112 0.960 1_565 S
H1099 C1112 0.960 . S
C1100 H1092 0.929 . S
C1100 C1101 1.323 1_565 S
C1100 C1102 1.384 . S
C1101 C1100 1.323 1_545 S
C1101 C1107 1.447 . S
C1102 H1093 0.930 . S
C1102 C1100 1.384 . S
C1102 C1103 1.372 1_565 S
C1103 C1102 1.372 1_545 S
C1103 C1104 1.400 . S
C1103 C1108 1.490 . S
C1104 H1094 0.930 . S
C1104 C1103 1.400 . S
C1104 C1107 1.386 . S
H1105 C1121 0.930 . S
H1106 C1122 0.931 . S
C1107 H1095 0.929 . S
C1107 C1101 1.447 . S
C1107 C1104 1.386 . S
C1108 C1103 1.490 . S
C1108 C1110 1.391 1_545 S
C1108 C1111 1.403 . S
H1109 C1115 0.930 . S
C1110 H1096 0.935 . S
C1110 C1108 1.391 1_565 S
C1110 C1113 1.403 1_565 S
C1111 C1108 1.403 . S
C1111 C1112 1.524 . S
C1111 C1115 1.400 . S
C1112 H1097 0.960 . S
C1112 H1098 0.960 1_545 S
C1112 H1099 0.960 . S
C1112 C1111 1.524 . S
C1113 C1110 1.403 1_545 S
C1113 C1114 1.393 . S
C1113 C1117 1.495 1_545 S
C1114 C1113 1.393 . S
C1114 C1115 1.385 . S
C1114 C1116 1.478 . S
C1115 H1109 0.930 . S
C1115 C1111 1.400 . S
C1115 C1114 1.385 . S
C1116 C1114 1.478 . S
C1116 C1118 1.381 1_545 S
C1116 C1122 1.383 . S
C1117 C1113 1.495 1_565 S
C1117 H1123 0.959 . S
C1117 H1124 0.961 1_565 S
C1117 H1125 0.960 . S
C1118 C1116 1.381 1_565 S
C1118 C1119 1.394 . S
C1118 H1126 0.930 . S
C1119 C1118 1.394 . S
C1119 C1120 1.383 1_565 S
C1119 H1127 0.929 . S
C1120 C1119 1.383 1_545 S
C1120 C1121 1.377 . S
C1121 H1105 0.930 . S
C1121 C1120 1.377 . S
C1121 C1122 1.379 . S
C1122 H1106 0.931 . S
C1122 C1116 1.383 . S
C1122 C1121 1.379 . S
H1123 C1117 0.959 . S
H1124 C1117 0.961 1_545 S
H1125 C1117 0.960 . S
H1126 C1118 0.930 . S
H1127 C1119 0.929 . S
H1128 C1136 0.929 . S
H1129 C1138 0.930 . S
H1130 C1140 0.930 . S
H1131 C1143 0.929 . S
H1132 C1146 0.930 . S
H1133 C1148 0.960 . S
H1134 C1148 0.960 . S
H1135 C1148 0.960 . S
C1136 H1128 0.929 . S
C1136 C1137 1.377 . S
C1136 C1138 1.384 . S
C1137 C1136 1.377 . S
C1137 C1143 1.390 . S
C1138 H1129 0.930 . S
C1138 C1136 1.384 . S
C1138 C1139 1.372 . S
C1139 C1138 1.372 . S
C1139 C1140 1.400 . S
C1139 C1144 1.490 . S
C1140 H1130 0.930 . S
C1140 C1139 1.400 . S
C1140 C1143 1.386 . S
H1141 C1157 0.930 . S
H1142 C1158 0.931 . S
C1143 H1131 0.929 . S
C1143 C1137 1.390 . S
C1143 C1140 1.386 . S
C1144 C1139 1.490 . S
C1144 C1146 1.395 . S
C1144 C1147 1.403 . S
H1145 C1151 0.930 . S
C1146 H1132 0.930 . S
C1146 C1144 1.395 . S
C1146 C1149 1.403 . S
C1147 C1144 1.403 . S
C1147 C1148 1.524 . S
C1147 C1151 1.400 . S
C1148 H1133 0.960 . S
C1148 H1134 0.960 . S
C1148 H1135 0.960 . S
C1148 C1147 1.524 . S
C1149 C1146 1.403 . S
C1149 C1150 1.392 . S
C1149 C1153 1.495 . S
C1150 C1149 1.392 . S
C1150 C1151 1.385 . S
C1150 C1152 1.478 . S
C1151 H1145 0.930 . S
C1151 C1147 1.400 . S
C1151 C1150 1.385 . S
C1152 C1150 1.478 . S
C1152 C1154 1.381 . S
C1152 C1158 1.383 . S
C1153 C1149 1.495 . S
C1153 H1159 0.959 . S
C1153 H1160 0.961 . S
C1153 H1161 0.960 . S
C1154 C1152 1.381 . S
C1154 C1155 1.394 . S
C1154 H1162 0.930 . S
C1155 C1154 1.394 . S
C1155 C1156 1.383 . S
C1155 H1163 0.929 . S
C1156 C1155 1.383 . S
C1156 C1157 1.377 . S
C1157 H1141 0.930 . S
C1157 C1156 1.377 . S
C1157 C1158 1.379 . S
C1158 H1142 0.931 . S
C1158 C1152 1.383 . S
C1158 C1157 1.379 . S
H1159 C1153 0.959 . S
H1160 C1153 0.961 . S
H1161 C1153 0.960 . S
H1162 C1154 0.930 . S
H1163 C1155 0.929 . S
H1164 C1172 0.929 . S
H1165 C1174 0.930 . S
H1166 C1176 0.930 . S
H1167 C1179 0.929 . S
H1168 C1182 0.930 . S
H1169 C1184 0.960 . S
H1170 C1184 0.960 . S
H1171 C1184 0.960 . S
C1172 H1164 0.929 . S
C1172 C1173 1.377 . S
C1172 C1174 1.384 . S
C1173 C1172 1.377 . S
C1173 C1179 1.390 . S
C1174 H1165 0.930 . S
C1174 C1172 1.384 . S
C1174 C1175 1.372 . S
C1175 C1174 1.372 . S
C1175 C1176 1.400 . S
C1175 C1180 1.490 . S
C1176 H1166 0.930 . S
C1176 C1175 1.400 . S
C1176 C1179 1.386 . S
H1177 C1193 0.930 . S
H1178 C1194 0.931 . S
C1179 H1167 0.929 . S
C1179 C1173 1.390 . S
C1179 C1176 1.386 . S
C1180 C1175 1.490 . S
C1180 C1182 1.395 . S
C1180 C1183 1.403 . S
H1181 C1187 0.930 . S
C1182 H1168 0.930 . S
C1182 C1180 1.395 . S
C1182 C1185 1.403 . S
C1183 C1180 1.403 . S
C1183 C1184 1.524 . S
C1183 C1187 1.400 . S
C1184 H1169 0.960 . S
C1184 H1170 0.960 . S
C1184 H1171 0.960 . S
C1184 C1183 1.524 . S
C1185 C1182 1.403 . S
C1185 C1186 1.392 . S
C1185 C1189 1.495 . S
C1186 C1185 1.392 . S
C1186 C1187 1.385 . S
C1186 C1188 1.478 . S
C1187 H1181 0.930 . S
C1187 C1183 1.400 . S
C1187 C1186 1.385 . S
C1188 C1186 1.478 . S
C1188 C1190 1.381 . S
C1188 C1194 1.383 . S
C1189 C1185 1.495 . S
C1189 H1195 0.959 . S
C1189 H1196 0.961 . S
C1189 H1197 0.960 . S
C1190 C1188 1.381 . S
C1190 C1191 1.394 . S
C1190 H1198 0.930 . S
C1191 C1190 1.394 . S
C1191 C1192 1.383 . S
C1191 H1199 0.929 . S
C1192 C1191 1.383 . S
C1192 C1193 1.377 . S
C1193 H1177 0.930 . S
C1193 C1192 1.377 . S
C1193 C1194 1.379 . S
C1194 H1178 0.931 . S
C1194 C1188 1.383 . S
C1194 C1193 1.379 . S
H1195 C1189 0.959 . S
H1196 C1189 0.961 . S
H1197 C1189 0.960 . S
H1198 C1190 0.930 . S
H1199 C1191 0.929 . S
H1200 C1208 0.929 . S
H1201 C1210 0.930 . S
H1202 C1212 0.925 1_455 S
H1203 C1215 0.937 . S
H1204 C1218 0.930 . S
H1205 C1220 0.960 . S
H1206 C1220 0.960 . S
H1207 C1220 0.960 . S
C1208 H1200 0.929 . S
C1208 C1209 1.377 . S
C1208 C1210 1.384 . S
C1209 C1208 1.377 . S
C1209 C1215 1.386 1_655 S
C1210 H1201 0.930 . S
C1210 C1208 1.384 . S
C1210 C1211 1.372 . S
C1211 C1210 1.372 . S
C1211 C1212 1.401 . S
C1211 C1216 1.490 . S
C1212 H1202 0.925 1_655 S
C1212 C1211 1.401 . S
C1212 C1215 1.384 1_655 S
H1213 C1229 0.923 1_455 S
H1214 C1230 0.952 . S
C1215 H1203 0.937 . S
C1215 C1209 1.386 1_455 S
C1215 C1212 1.384 1_455 S
C1216 C1211 1.490 . S
C1216 C1218 1.395 1_655 S
C1216 C1219 1.403 . S
H1217 C1223 0.930 . S
C1218 H1204 0.930 . S
C1218 C1216 1.395 1_455 S
C1218 C1221 1.403 . S
C1219 C1216 1.403 . S
C1219 C1220 1.524 . S
C1219 C1223 1.400 . S
C1220 H1205 0.960 . S
C1220 H1206 0.960 . S
C1220 H1207 0.960 . S
C1220 C1219 1.524 . S
C1221 C1218 1.403 . S
C1221 C1222 1.392 1_455 S
C1221 C1225 1.495 . S
C1222 C1221 1.392 1_655 S
C1222 C1223 1.385 . S
C1222 C1224 1.478 . S
C1223 H1217 0.930 . S
C1223 C1219 1.400 . S
C1223 C1222 1.385 . S
C1224 C1222 1.478 . S
C1224 C1226 1.381 . S
C1224 C1230 1.371 1_655 S
C1225 C1221 1.495 . S
C1225 H1231 0.959 . S
C1225 H1232 0.961 . S
C1225 H1233 0.960 . S
C1226 C1224 1.381 . S
C1226 C1227 1.394 . S
C1226 H1234 0.930 . S
C1227 C1226 1.394 . S
C1227 C1228 1.383 . S
C1227 H1235 0.929 . S
C1228 C1227 1.383 . S
C1228 C1229 1.387 . S
C1229 H1213 0.923 1_655 S
C1229 C1228 1.387 . S
C1229 C1230 1.374 1_655 S
C1230 H1214 0.952 . S
C1230 C1224 1.371 1_455 S
C1230 C1229 1.374 1_455 S
H1231 C1225 0.959 . S
H1232 C1225 0.961 . S
H1233 C1225 0.960 . S
H1234 C1226 0.930 . S
H1235 C1227 0.929 . S
H1236 C1244 0.929 . S
H1237 C1246 0.930 . S
H1238 C1248 0.930 . S
H1239 C1251 0.929 . S
H1240 C1254 0.930 . S
H1241 C1256 0.960 . S
H1242 C1256 0.960 . S
H1243 C1256 0.960 . S
C1244 H1236 0.929 . S
C1244 C1245 1.377 . S
C1244 C1246 1.384 . S
C1245 C1244 1.377 . S
C1245 C1251 1.390 1_565 S
C1246 H1237 0.930 . S
C1246 C1244 1.384 . S
C1246 C1247 1.372 . S
C1247 C1246 1.372 . S
C1247 C1248 1.400 1_565 S
C1247 C1252 1.490 . S
C1248 H1238 0.930 . S
C1248 C1247 1.400 1_545 S
C1248 C1251 1.386 . S
H1249 C1265 0.930 . S
H1250 C1266 0.931 . S
C1251 H1239 0.929 . S
C1251 C1245 1.390 1_545 S
C1251 C1248 1.386 . S
C1252 C1247 1.490 . S
C1252 C1254 1.395 1_565 S
C1252 C1255 1.403 . S
H1253 C1259 0.930 . S
C1254 H1240 0.930 . S
C1254 C1252 1.395 1_545 S
C1254 C1257 1.403 . S
C1255 C1252 1.403 . S
C1255 C1256 1.524 . S
C1255 C1259 1.400 . S
C1256 H1241 0.960 . S
C1256 H1242 0.960 . S
C1256 H1243 0.960 . S
C1256 C1255 1.524 . S
C1257 C1254 1.403 . S
C1257 C1258 1.392 1_545 S
C1257 C1261 1.495 . S
C1258 C1257 1.392 1_565 S
C1258 C1259 1.385 . S
C1258 C1260 1.478 . S
C1259 H1253 0.930 . S
C1259 C1255 1.400 . S
C1259 C1258 1.385 . S
C1260 C1258 1.478 . S
C1260 C1262 1.381 . S
C1260 C1266 1.383 1_565 S
C1261 C1257 1.495 . S
C1261 H1267 0.959 . S
C1261 H1268 0.961 . S
C1261 H1269 0.960 . S
C1262 C1260 1.381 . S
C1262 C1263 1.394 . S
C1262 H1270 0.930 . S
C1263 C1262 1.394 . S
C1263 C1264 1.383 . S
C1263 H1271 0.929 . S
C1264 C1263 1.383 . S
C1264 C1265 1.377 1_565 S
C1265 H1249 0.930 . S
C1265 C1264 1.377 1_545 S
C1265 C1266 1.379 . S
C1266 H1250 0.931 . S
C1266 C1260 1.383 1_545 S
C1266 C1265 1.379 . S
H1267 C1261 0.959 . S
H1268 C1261 0.961 . S
H1269 C1261 0.960 . S
H1270 C1262 0.930 . S
H1271 C1263 0.929 . S
H1272 C1280 0.929 . S
H1273 C1282 0.930 . S
H1274 C1284 0.930 . S
H1275 C1287 0.929 . S
H1276 C1290 0.930 . S
H1277 C1292 0.960 . S
H1278 C1292 0.960 . S
H1279 C1292 0.960 . S
C1280 H1272 0.929 . S
C1280 C1281 1.377 . S
C1280 C1282 1.384 . S
C1281 C1280 1.377 . S
C1281 C1287 1.390 . S
C1282 H1273 0.930 . S
C1282 C1280 1.384 . S
C1282 C1283 1.372 . S
C1283 C1282 1.372 . S
C1283 C1284 1.400 . S
C1283 C1288 1.490 . S
C1284 H1274 0.930 . S
C1284 C1283 1.400 . S
C1284 C1287 1.386 . S
H1285 C1301 0.930 . S
H1286 C1302 0.931 . S
C1287 H1275 0.929 . S
C1287 C1281 1.390 . S
C1287 C1284 1.386 . S
C1288 C1283 1.490 . S
C1288 C1290 1.395 . S
C1288 C1291 1.403 . S
H1289 C1295 0.930 . S
C1290 H1276 0.930 . S
C1290 C1288 1.395 . S
C1290 C1293 1.403 . S
C1291 C1288 1.403 . S
C1291 C1292 1.524 . S
C1291 C1295 1.400 . S
C1292 H1277 0.960 . S
C1292 H1278 0.960 . S
C1292 H1279 0.960 . S
C1292 C1291 1.524 . S
C1293 C1290 1.403 . S
C1293 C1294 1.392 . S
C1293 C1297 1.495 . S
C1294 C1293 1.392 . S
C1294 C1295 1.385 . S
C1294 C1296 1.478 . S
C1295 H1289 0.930 . S
C1295 C1291 1.400 . S
C1295 C1294 1.385 . S
C1296 C1294 1.478 . S
C1296 C1298 1.381 . S
C1296 C1302 1.383 . S
C1297 C1293 1.495 . S
C1297 H1303 0.959 . S
C1297 H1304 0.961 . S
C1297 H1305 0.960 . S
C1298 C1296 1.381 . S
C1298 C1299 1.394 . S
C1298 H1306 0.930 . S
C1299 C1298 1.394 . S
C1299 C1300 1.383 . S
C1299 H1307 0.929 . S
C1300 C1299 1.383 . S
C1300 C1301 1.377 . S
C1301 H1285 0.930 . S
C1301 C1300 1.377 . S
C1301 C1302 1.379 . S
C1302 H1286 0.931 . S
C1302 C1296 1.383 . S
C1302 C1301 1.379 . S
H1303 C1297 0.959 . S
H1304 C1297 0.961 . S
H1305 C1297 0.960 . S
H1306 C1298 0.930 . S
H1307 C1299 0.929 . S
H1308 C1316 0.929 . S
H1309 C1318 0.930 . S
H1310 C1320 0.930 . S
H1311 C1323 0.929 . S
H1312 C1326 0.930 . S
H1313 C1328 0.960 . S
H1314 C1328 0.960 . S
H1315 C1328 0.960 . S
C1316 H1308 0.929 . S
C1316 C1317 1.377 . S
C1316 C1318 1.384 . S
C1317 C1316 1.377 . S
C1317 C1323 1.390 . S
C1318 H1309 0.930 . S
C1318 C1316 1.384 . S
C1318 C1319 1.372 . S
C1319 C1318 1.372 . S
C1319 C1320 1.400 . S
C1319 C1324 1.490 . S
C1320 H1310 0.930 . S
C1320 C1319 1.400 . S
C1320 C1323 1.386 . S
H1321 C1337 0.930 . S
H1322 C1338 0.931 . S
C1323 H1311 0.929 . S
C1323 C1317 1.390 . S
C1323 C1320 1.386 . S
C1324 C1319 1.490 . S
C1324 C1326 1.395 . S
C1324 C1327 1.403 . S
H1325 C1331 0.930 . S
C1326 H1312 0.930 . S
C1326 C1324 1.395 . S
C1326 C1329 1.403 . S
C1327 C1324 1.403 . S
C1327 C1328 1.524 . S
C1327 C1331 1.400 . S
C1328 H1313 0.960 . S
C1328 H1314 0.960 . S
C1328 H1315 0.960 . S
C1328 C1327 1.524 . S
C1329 C1326 1.403 . S
C1329 C1330 1.392 . S
C1329 C1333 1.495 . S
C1330 C1329 1.392 . S
C1330 C1331 1.385 . S
C1330 C1332 1.478 . S
C1331 H1325 0.930 . S
C1331 C1327 1.400 . S
C1331 C1330 1.385 . S
C1332 C1330 1.478 . S
C1332 C1334 1.381 . S
C1332 C1338 1.383 . S
C1333 C1329 1.495 . S
C1333 H1339 0.959 . S
C1333 H1340 0.961 . S
C1333 H1341 0.960 . S
C1334 C1332 1.381 . S
C1334 C1335 1.394 . S
C1334 H1342 0.930 . S
C1335 C1334 1.394 . S
C1335 C1336 1.383 . S
C1335 H1343 0.929 . S
C1336 C1335 1.383 . S
C1336 C1337 1.377 . S
C1337 H1321 0.930 . S
C1337 C1336 1.377 . S
C1337 C1338 1.379 . S
C1338 H1322 0.931 . S
C1338 C1332 1.383 . S
C1338 C1337 1.379 . S
H1339 C1333 0.959 . S
H1340 C1333 0.961 . S
H1341 C1333 0.960 . S
H1342 C1334 0.930 . S
H1343 C1335 0.929 . S
C489 C255 1.975 . S
C508 C329 2.102 1_545 S
C544 C369 2.112 . S
C525 C295 1.976 . S
C580 C409 2.111 . S
C561 C175 1.982 . S
C616 C449 2.103 1_455 S
C597 C215 1.982 1_655 S
C652 C338 2.104 . S
C633 C95 1.981 . S
C669 C135 1.981 . S
C688 C378 2.115 . S
C705 C15 1.987 . S
C724 C418 2.109 . S
C741 C55 1.984 . S
C760 C458 2.108 1_655 S
C796 C335 0.331 . S
C777 C221 0.293 . S
C832 C375 0.307 . S
C813 C261 0.272 . S
C868 C415 0.225 . S
C849 C301 0.287 . S
C885 C181 0.276 . S
C904 C455 0.178 . S
C921 C61 0.400 1_655 S
C940 C326 0.294 . S
C976 C366 0.226 . S
C957 C101 0.317 1_565 S
C1012 C406 0.226 . S
C993 C141 0.365 . S
C1029 C21 0.362 . S
C1048 C446 0.301 . S
C1065 C202 2.821 . S
C1084 C339 3.074 . S
C1101 C242 2.807 . S
C1120 C379 3.062 . S
C1156 C419 3.070 . S
C1137 C282 2.804 . S
C1192 C459 3.062 . S
C1173 C162 2.796 . S
C1209 C42 2.828 1_655 S
C1228 C330 3.075 . S
C1264 C370 3.059 . S
C1245 C82 2.816 1_565 S
C1300 C410 3.052 . S
C1281 C122 2.816 . S
C1317 C2 2.825 . S
C1336 C450 3.068 . S
