# Generated by pormake.
# Topology ocu, (6,8)-cn, num edge types: 1
# Building blocks:
#     Node 0, Type 0, BuildingBlock: VOLQOD_clean_sbu_1, # of connection points: 6
#     Node 1, Type 0, BuildingBlock: VOLQOD_clean_sbu_1, # of connection points: 6
#     Node 2, Type 0, BuildingBlock: VOLQOD_clean_sbu_1, # of connection points: 6
#     Node 3, Type 0, BuildingBlock: VOLQOD_clean_sbu_1, # of connection points: 6
#     Node 4, Type 0, BuildingBlock: VOLQOD_clean_sbu_1, # of connection points: 6
#     Node 5, Type 0, BuildingBlock: VOLQOD_clean_sbu_1, # of connection points: 6
#     Node 6, Type 0, BuildingBlock: VOLQOD_clean_sbu_1, # of connection points: 6
#     Node 7, Type 0, BuildingBlock: VOLQOD_clean_sbu_1, # of connection points: 6
#     Node 8, Type 1, BuildingBlock: VETTIZ_charged_sbu_0, # of connection points: 8
#     Node 9, Type 1, BuildingBlock: VETTIZ_charged_sbu_0, # of connection points: 8
#     Node 10, Type 1, BuildingBlock: VETTIZ_charged_sbu_0, # of connection points: 8
#     Node 11, Type 1, BuildingBlock: VETTIZ_charged_sbu_0, # of connection points: 8
#     Node 12, Type 1, BuildingBlock: VETTIZ_charged_sbu_0, # of connection points: 8
#     Node 13, Type 1, BuildingBlock: VETTIZ_charged_sbu_0, # of connection points: 8
#     Edge 14, Type (0, 1), BuildingBlock: ZUJKAS_clean_linker_0, # of connection points: 2
#     Edge 15, Type (0, 1), BuildingBlock: ZUJKAS_clean_linker_0, # of connection points: 2
#     Edge 16, Type (0, 1), BuildingBlock: ZUJKAS_clean_linker_0, # of connection points: 2
#     Edge 17, Type (0, 1), BuildingBlock: ZUJKAS_clean_linker_0, # of connection points: 2
#     Edge 18, Type (0, 1), BuildingBlock: ZUJKAS_clean_linker_0, # of connection points: 2
#     Edge 19, Type (0, 1), BuildingBlock: ZUJKAS_clean_linker_0, # of connection points: 2
#     Edge 20, Type (0, 1), BuildingBlock: ZUJKAS_clean_linker_0, # of connection points: 2
#     Edge 21, Type (0, 1), BuildingBlock: ZUJKAS_clean_linker_0, # of connection points: 2
#     Edge 22, Type (0, 1), BuildingBlock: ZUJKAS_clean_linker_0, # of connection points: 2
#     Edge 23, Type (0, 1), BuildingBlock: ZUJKAS_clean_linker_0, # of connection points: 2
#     Edge 24, Type (0, 1), BuildingBlock: ZUJKAS_clean_linker_0, # of connection points: 2
#     Edge 25, Type (0, 1), BuildingBlock: ZUJKAS_clean_linker_0, # of connection points: 2
#     Edge 26, Type (0, 1), BuildingBlock: ZUJKAS_clean_linker_0, # of connection points: 2
#     Edge 27, Type (0, 1), BuildingBlock: ZUJKAS_clean_linker_0, # of connection points: 2
#     Edge 28, Type (0, 1), BuildingBlock: ZUJKAS_clean_linker_0, # of connection points: 2
#     Edge 29, Type (0, 1), BuildingBlock: ZUJKAS_clean_linker_0, # of connection points: 2
#     Edge 30, Type (0, 1), BuildingBlock: ZUJKAS_clean_linker_0, # of connection points: 2
#     Edge 31, Type (0, 1), BuildingBlock: ZUJKAS_clean_linker_0, # of connection points: 2
#     Edge 32, Type (0, 1), BuildingBlock: ZUJKAS_clean_linker_0, # of connection points: 2
#     Edge 33, Type (0, 1), BuildingBlock: ZUJKAS_clean_linker_0, # of connection points: 2
#     Edge 34, Type (0, 1), BuildingBlock: ZUJKAS_clean_linker_0, # of connection points: 2
#     Edge 35, Type (0, 1), BuildingBlock: ZUJKAS_clean_linker_0, # of connection points: 2
#     Edge 36, Type (0, 1), BuildingBlock: ZUJKAS_clean_linker_0, # of connection points: 2
#     Edge 37, Type (0, 1), BuildingBlock: ZUJKAS_clean_linker_0, # of connection points: 2
#     Edge 38, Type (0, 1), BuildingBlock: ZUJKAS_clean_linker_0, # of connection points: 2
#     Edge 39, Type (0, 1), BuildingBlock: ZUJKAS_clean_linker_0, # of connection points: 2
#     Edge 40, Type (0, 1), BuildingBlock: ZUJKAS_clean_linker_0, # of connection points: 2
#     Edge 41, Type (0, 1), BuildingBlock: ZUJKAS_clean_linker_0, # of connection points: 2
#     Edge 42, Type (0, 1), BuildingBlock: ZUJKAS_clean_linker_0, # of connection points: 2
#     Edge 43, Type (0, 1), BuildingBlock: ZUJKAS_clean_linker_0, # of connection points: 2
#     Edge 44, Type (0, 1), BuildingBlock: ZUJKAS_clean_linker_0, # of connection points: 2
#     Edge 45, Type (0, 1), BuildingBlock: ZUJKAS_clean_linker_0, # of connection points: 2
#     Edge 46, Type (0, 1), BuildingBlock: ZUJKAS_clean_linker_0, # of connection points: 2
#     Edge 47, Type (0, 1), BuildingBlock: ZUJKAS_clean_linker_0, # of connection points: 2
#     Edge 48, Type (0, 1), BuildingBlock: ZUJKAS_clean_linker_0, # of connection points: 2
#     Edge 49, Type (0, 1), BuildingBlock: ZUJKAS_clean_linker_0, # of connection points: 2
#     Edge 50, Type (0, 1), BuildingBlock: ZUJKAS_clean_linker_0, # of connection points: 2
#     Edge 51, Type (0, 1), BuildingBlock: ZUJKAS_clean_linker_0, # of connection points: 2
#     Edge 52, Type (0, 1), BuildingBlock: ZUJKAS_clean_linker_0, # of connection points: 2
#     Edge 53, Type (0, 1), BuildingBlock: ZUJKAS_clean_linker_0, # of connection points: 2
#     Edge 54, Type (0, 1), BuildingBlock: ZUJKAS_clean_linker_0, # of connection points: 2
#     Edge 55, Type (0, 1), BuildingBlock: ZUJKAS_clean_linker_0, # of connection points: 2
#     Edge 56, Type (0, 1), BuildingBlock: ZUJKAS_clean_linker_0, # of connection points: 2
#     Edge 57, Type (0, 1), BuildingBlock: ZUJKAS_clean_linker_0, # of connection points: 2
#     Edge 58, Type (0, 1), BuildingBlock: ZUJKAS_clean_linker_0, # of connection points: 2
#     Edge 59, Type (0, 1), BuildingBlock: ZUJKAS_clean_linker_0, # of connection points: 2
#     Edge 60, Type (0, 1), BuildingBlock: ZUJKAS_clean_linker_0, # of connection points: 2
#     Edge 61, Type (0, 1), BuildingBlock: ZUJKAS_clean_linker_0, # of connection points: 2
# Relax obj value: 0.154
# Max RMSD: 0.303
# Mean RMSD: 0.175
data_MOF--net-ocu--node1-VOLQOD_clean_sbu_1--node2-VETTIZ_charged_sbu_0--edge1-ZUJKAS_clean_linker_0
_symmetry_space_group_name_H-M    P1
_symmetry_Int_Tables_number       1
_symmetry_cell_setting            triclinic
loop_
_symmetry_equiv_pos_as_xyz
'x, y, z'
_cell_length_a     48.544272
_cell_length_b     48.788077
_cell_length_c     48.550002
_cell_angle_alpha  89.808601
_cell_angle_beta   89.644204
_cell_angle_gamma 89.644878
loop_
_atom_site_label
_atom_site_type_symbol
_atom_site_fract_x
_atom_site_fract_y
_atom_site_fract_z
_atom_type_partial_charge
O0 O 0.30564 0.28243 0.25152 0.0
Zn1 Zn 0.27497 0.2634 0.27288 0.0
O2 O 0.25262 0.241 0.24739 0.0
Zn3 Zn 0.21468 0.25333 0.24805 0.0
Zn4 Zn 0.26574 0.24443 0.20957 0.0
Zn5 Zn 0.25362 0.2025 0.25813 0.0
O6 O 0.18946 0.2255 0.26452 0.0
O7 O 0.2162 0.1889 0.27004 0.0
O8 O 0.25157 0.29354 0.29082 0.0
O9 O 0.21134 0.28724 0.27023 0.0
O10 O 0.20073 0.2637 0.21097 0.0
O11 O 0.23788 0.26232 0.18431 0.0
O12 O 0.27678 0.20804 0.194 0.0
O13 O 0.29289 0.2392 0.30239 0.0
O14 O 0.26968 0.17852 0.22815 0.0
O15 O 0.27822 0.19789 0.29049 0.0
C16 C 0.31286 0.2813 0.22623 0.0
C17 C 0.19278 0.2007 0.27198 0.0
C18 C 0.21242 0.26777 0.18785 0.0
C19 C 0.22669 0.30078 0.28627 0.0
C20 C 0.27786 0.18382 0.20374 0.0
C21 C 0.29222 0.21328 0.30612 0.0
O22 O 0.29946 0.26737 0.20879 0.0
O23 O 0.74981 0.20634 0.22433 0.0
Zn24 Zn 0.77809 0.22877 0.24551 0.0
O25 O 0.75942 0.25597 0.26936 0.0
Zn26 Zn 0.76591 0.29309 0.25611 0.0
Zn27 Zn 0.72002 0.24951 0.26993 0.0
Zn28 Zn 0.77295 0.25311 0.30681 0.0
O29 O 0.78429 0.31651 0.28467 0.0
O30 O 0.78946 0.28804 0.31992 0.0
O31 O 0.803 0.24836 0.21776 0.0
O32 O 0.791 0.29208 0.22343 0.0
O33 O 0.73074 0.31236 0.24602 0.0
O34 O 0.69859 0.28307 0.25948 0.0
O35 O 0.70666 0.2378 0.30711 0.0
O36 O 0.80181 0.20276 0.26853 0.0
O37 O 0.7432 0.24272 0.33372 0.0
O38 O 0.8014 0.22377 0.30913 0.0
C39 C 0.72356 0.20551 0.22593 0.0
C40 C 0.79238 0.3116 0.30908 0.0
C41 C 0.70554 0.3062 0.24962 0.0
C42 C 0.80488 0.27361 0.21101 0.0
C43 C 0.71794 0.23677 0.33067 0.0
C44 C 0.81002 0.20474 0.29337 0.0
O45 O 0.71029 0.22067 0.24273 0.0
O46 O 0.72674 0.72148 0.23565 0.0
Zn47 Zn 0.7503 0.73926 0.26499 0.0
O48 O 0.77263 0.76838 0.2478 0.0
Zn49 Zn 0.81111 0.7629 0.25616 0.0
Zn50 Zn 0.76863 0.76886 0.20796 0.0
Zn51 Zn 0.7614 0.80376 0.26189 0.0
O52 O 0.82645 0.79269 0.27948 0.0
O53 O 0.79048 0.82031 0.28523 0.0
O54 O 0.77469 0.70996 0.28296 0.0
O55 O 0.81621 0.72764 0.27597 0.0
O56 O 0.8341 0.75931 0.22236 0.0
O57 O 0.80354 0.7567 0.18876 0.0
O58 O 0.75944 0.80649 0.19383 0.0
O59 O 0.72367 0.75542 0.29346 0.0
O60 O 0.75415 0.83089 0.23195 0.0
O61 O 0.72764 0.80009 0.28494 0.0
C62 C 0.72354 0.72626 0.21 0.0
C63 C 0.8155 0.81409 0.28976 0.0
C64 C 0.8283 0.7554 0.1972 0.0
C65 C 0.80086 0.70863 0.28513 0.0
C66 C 0.75437 0.82911 0.20586 0.0
C67 C 0.71588 0.78018 0.29713 0.0
O68 O 0.73792 0.74407 0.19729 0.0
O69 O 0.28461 0.7806 0.30033 0.0
Zn70 Zn 0.26789 0.75123 0.27646 0.0
O71 O 0.24249 0.76727 0.24899 0.0
Zn72 Zn 0.20616 0.75129 0.25343 0.0
Zn73 Zn 0.23994 0.80698 0.25411 0.0
Zn74 Zn 0.25519 0.7594 0.21167 0.0
O75 O 0.19224 0.7338 0.21873 0.0
O76 O 0.22783 0.73699 0.19011 0.0
O77 O 0.24868 0.72346 0.30101 0.0
O78 O 0.20757 0.72126 0.28132 0.0
O79 O 0.17893 0.77902 0.26793 0.0
O80 O 0.2017 0.81835 0.26685 0.0
O81 O 0.25247 0.82763 0.22002 0.0
O82 O 0.29937 0.73146 0.25745 0.0
O83 O 0.26362 0.79417 0.19101 0.0
O84 O 0.29031 0.73774 0.21308 0.0
C85 C 0.28188 0.8066 0.30054 0.0
C86 C 0.20357 0.72869 0.19557 0.0
C87 C 0.17995 0.80474 0.27221 0.0
C88 C 0.22484 0.7129 0.2991 0.0
C89 C 0.26183 0.81956 0.1968 0.0
C90 C 0.30549 0.72806 0.23213 0.0
O91 O 0.26569 0.81878 0.28393 0.0
O92 O 0.2552 0.70682 0.71549 0.0
Zn93 Zn 0.28088 0.73272 0.73489 0.0
O94 O 0.26011 0.75946 0.75727 0.0
Zn95 Zn 0.27018 0.79625 0.7463 0.0
Zn96 Zn 0.22097 0.75468 0.7515 0.0
Zn97 Zn 0.26799 0.75533 0.79641 0.0
O98 O 0.29256 0.81481 0.77519 0.0
O99 O 0.28514 0.78928 0.81242 0.0
O100 O 0.30303 0.75149 0.70479 0.0
O101 O 0.29287 0.79526 0.71215 0.0
O102 O 0.23699 0.81941 0.73798 0.0
O103 O 0.20297 0.78927 0.73827 0.0
O104 O 0.20199 0.74395 0.78636 0.0
O105 O 0.30656 0.71055 0.75891 0.0
O106 O 0.23417 0.74484 0.81856 0.0
O107 O 0.29636 0.72578 0.80093 0.0
C108 C 0.22913 0.70681 0.71267 0.0
C109 C 0.29545 0.81033 0.80083 0.0
C110 C 0.21172 0.81356 0.73469 0.0
C111 C 0.30486 0.77669 0.69811 0.0
C112 C 0.20932 0.74094 0.81129 0.0
C113 C 0.31011 0.71016 0.7849 0.0
O114 O 0.21393 0.72458 0.72457 0.0
O115 O 0.21717 0.21493 0.75121 0.0
Zn116 Zn 0.24096 0.2333 0.77904 0.0
O117 O 0.26501 0.26046 0.76123 0.0
Zn118 Zn 0.30335 0.25039 0.76739 0.0
Zn119 Zn 0.2577 0.26203 0.72172 0.0
Zn120 Zn 0.25827 0.29648 0.77701 0.0
O121 O 0.32277 0.27803 0.79099 0.0
O122 O 0.2919 0.31165 0.79494 0.0
O123 O 0.26272 0.20352 0.79811 0.0
O124 O 0.30575 0.21466 0.78754 0.0
O125 O 0.32369 0.24534 0.73151 0.0
O126 O 0.29149 0.25156 0.69974 0.0
O127 O 0.24405 0.29947 0.71008 0.0
O128 O 0.21529 0.25093 0.80652 0.0
O129 O 0.24462 0.32333 0.74887 0.0
O130 O 0.22864 0.29436 0.80573 0.0
C131 C 0.21411 0.21786 0.72536 0.0
C132 C 0.31565 0.30162 0.79967 0.0
C133 C 0.31619 0.24571 0.70641 0.0
C134 C 0.28849 0.19861 0.79891 0.0
C135 C 0.2397 0.32166 0.72324 0.0
C136 C 0.21314 0.27549 0.81503 0.0
O137 O 0.22819 0.2352 0.7117 0.0
O138 O 0.78557 0.29138 0.79124 0.0
Zn139 Zn 0.77087 0.262 0.76594 0.0
O140 O 0.74497 0.27837 0.73915 0.0
Zn141 Zn 0.70814 0.26385 0.74468 0.0
Zn142 Zn 0.74376 0.31818 0.7428 0.0
Zn143 Zn 0.7565 0.26935 0.70196 0.0
O144 O 0.69373 0.24502 0.71084 0.0
O145 O 0.73077 0.24266 0.68381 0.0
O146 O 0.75214 0.23264 0.78907 0.0
O147 O 0.70909 0.23495 0.77398 0.0
O148 O 0.68148 0.29305 0.75713 0.0
O149 O 0.70571 0.33131 0.75318 0.0
O150 O 0.75648 0.33724 0.70798 0.0
O151 O 0.80402 0.2449 0.74658 0.0
O152 O 0.76117 0.30286 0.6785 0.0
O153 O 0.79386 0.25269 0.70264 0.0
C154 C 0.78317 0.31743 0.79138 0.0
C155 C 0.7059 0.23635 0.68924 0.0
C156 C 0.68336 0.31899 0.75904 0.0
C157 C 0.72726 0.22441 0.78965 0.0
C158 C 0.76206 0.32835 0.68392 0.0
C159 C 0.81018 0.24393 0.72106 0.0
O160 O 0.76839 0.32994 0.7737 0.0
O161 O 0.80148 0.77749 0.74927 0.0
Zn162 Zn 0.77193 0.76002 0.77366 0.0
O163 O 0.74713 0.73712 0.75097 0.0
Zn164 Zn 0.70932 0.75034 0.75364 0.0
Zn165 Zn 0.75853 0.73754 0.7124 0.0
Zn166 Zn 0.74771 0.69935 0.76356 0.0
O167 O 0.68373 0.72298 0.7714 0.0
O168 O 0.71123 0.68721 0.77826 0.0
O169 O 0.7502 0.7906 0.79303 0.0
O170 O 0.70796 0.78337 0.77747 0.0
O171 O 0.69474 0.76212 0.71683 0.0
O172 O 0.73003 0.75568 0.68825 0.0
O173 O 0.76731 0.69972 0.69812 0.0
O174 O 0.79176 0.7364 0.80252 0.0
O175 O 0.76 0.6731 0.73443 0.0
O176 O 0.77469 0.69526 0.79371 0.0
C177 C 0.80754 0.77416 0.72387 0.0
C178 C 0.68773 0.6987 0.78022 0.0
C179 C 0.70551 0.76395 0.69292 0.0
C180 C 0.7247 0.79712 0.79187 0.0
C181 C 0.7673 0.67615 0.70945 0.0
C182 C 0.79063 0.71067 0.80728 0.0
O183 O 0.79307 0.75912 0.70833 0.0
Fe184 Fe 0.00451 0.04248 0.51803 0.0
O185 O 0.98526 0.01231 0.53797 0.0
Fe186 Fe 0.06701 0.01262 0.49882 0.0
Fe187 Fe 0.94502 0.00963 0.5404 0.0
O188 O 0.02657 0.01242 0.50071 0.0
O189 O 0.0267 0.00995 0.50085 0.0
O190 O 0.98541 0.00979 0.53813 0.0
Fe191 Fe 0.00698 0.97974 0.52034 0.0
C192 C 0.96266 0.06605 0.56037 0.0
O193 O 0.97736 0.04081 0.48607 0.0
O194 O 0.93759 0.03745 0.50899 0.0
O195 O 0.03185 0.9519 0.49799 0.0
O196 O 0.06219 0.97928 0.47348 0.0
O197 O 0.05913 0.04331 0.47068 0.0
O198 O 0.02727 0.07031 0.49399 0.0
O199 O 0.94043 0.97854 0.51208 0.0
O200 O 0.97988 0.9781 0.48855 0.0
C201 C 0.0449 0.06568 0.47416 0.0
O202 O 0.03402 0.9807 0.55232 0.0
O203 O 0.07398 0.98447 0.5299 0.0
O204 O 0.97929 0.07033 0.53961 0.0
O205 O 0.95045 0.04297 0.5657 0.0
C206 C 0.95129 0.04283 0.48718 0.0
C207 C 0.95431 0.97325 0.49038 0.0
C208 C 0.96652 0.9562 0.56438 0.0
O209 O 0.95323 0.97904 0.56856 0.0
O210 O 0.98362 0.95172 0.54397 0.0
C211 C 0.04982 0.95619 0.47833 0.0
O212 O 0.07138 0.04364 0.52723 0.0
O213 O 0.0315 0.04532 0.55 0.0
C214 C 0.06006 0.97849 0.55139 0.0
C215 C 0.05716 0.04988 0.54844 0.0
Fe216 Fe 0.52491 0.94656 0.0193 0.0
O217 O 0.52259 0.98668 0.01922 0.0
Fe218 Fe 0.48841 0.00545 0.00163 0.0
Fe219 Fe 0.55115 0.01099 0.00249 0.0
O220 O 0.52018 0.98647 0.01926 0.0
O221 O 0.51687 0.02966 0.98467 0.0
O222 O 0.5194 0.02978 0.98443 0.0
Fe223 Fe 0.51415 0.06982 0.98535 0.0
C224 C 0.57783 0.96988 0.04335 0.0
O225 O 0.55577 0.94496 0.98994 0.0
O226 O 0.55608 0.98572 0.96899 0.0
O227 O 0.48287 0.06208 0.95775 0.0
O228 O 0.45851 0.02822 0.98044 0.0
O229 O 0.49055 0.98044 0.96805 0.0
O230 O 0.49619 0.93994 0.9887 0.0
O231 O 0.57715 0.03897 0.98211 0.0
O232 O 0.54753 0.06801 0.95876 0.0
C233 C 0.48783 0.95459 0.96859 0.0
O234 O 0.48324 0.07097 0.015 0.0
O235 O 0.48484 0.03011 0.03534 0.0
O236 O 0.55616 0.95459 0.04685 0.0
O237 O 0.58064 0.98862 0.02437 0.0
C238 C 0.56261 0.96043 0.96987 0.0
C239 C 0.57175 0.05731 0.96324 0.0
C240 C 0.55138 0.0618 0.03583 0.0
O241 O 0.54829 0.036 0.03618 0.0
O242 O 0.54315 0.07647 0.0157 0.0
C243 C 0.46113 0.04698 0.96146 0.0
O244 O 0.46228 0.97786 0.02203 0.0
O245 O 0.49128 0.94872 0.04587 0.0
C246 C 0.47727 0.05502 0.03498 0.0
C247 C 0.46718 0.9595 0.04096 0.0
Fe248 Fe 0.0087 0.53105 0.00552 0.0
O249 O 0.98978 0.50141 0.02654 0.0
Fe250 Fe 0.06257 0.49769 0.97225 0.0
Fe251 Fe 0.95067 0.50309 0.03656 0.0
O252 O 0.02337 0.50093 0.98194 0.0
O253 O 0.02331 0.49854 0.98203 0.0
O254 O 0.98973 0.49906 0.02664 0.0
Fe255 Fe 0.0045 0.46883 0.0032 0.0
C256 C 0.97742 0.55552 0.05592 0.0
O257 O 0.97584 0.53585 0.97947 0.0
O258 O 0.94189 0.53554 0.01049 0.0
O259 O 0.02237 0.44085 0.97584 0.0
O260 O 0.04937 0.46673 0.9464 0.0
O261 O 0.05316 0.5317 0.94849 0.0
O262 O 0.03043 0.55863 0.98047 0.0
O263 O 0.9369 0.47619 0.00673 0.0
O264 O 0.97177 0.4717 0.97694 0.0
C265 C 0.04426 0.55523 0.95762 0.0
O266 O 0.03729 0.46431 0.02933 0.0
O267 O 0.07206 0.46637 -0.00079 0.0
O268 O 0.99129 0.55895 0.03314 0.0
O269 O 0.96482 0.53304 0.06305 0.0
C270 C 0.95182 0.54299 0.98732 0.0
C271 C 0.9464 0.46944 0.98313 0.0
C272 C 0.96871 0.44482 0.05108 0.0
O273 O 0.95928 0.46834 0.0597 0.0
O274 O 0.98279 0.44124 0.02839 0.0
C275 C 0.03696 0.44413 0.95347 0.0
O276 O 0.07565 0.526 0.00118 0.0
O277 O 0.04148 0.52787 0.03173 0.0
C278 C 0.06192 0.45862 0.02217 0.0
C279 C 0.06626 0.53265 0.02483 0.0
Fe280 Fe 0.50118 0.50676 0.9927 0.0
O281 O 0.52552 0.49159 0.0219 0.0
Fe282 Fe 0.44161 0.52531 0.02842 0.0
Fe283 Fe 0.56577 0.49177 0.01919 0.0
O284 O 0.48175 0.5259 0.02346 0.0
O285 O 0.48204 0.52629 0.02584 0.0
O286 O 0.52568 0.49173 0.02428 0.0
Fe287 Fe 0.50654 0.51112 0.05509 0.0
C288 C 0.54348 0.46596 0.96698 0.0
O289 O 0.52571 0.54019 0.9875 0.0
O290 O 0.56702 0.52007 0.98723 0.0
O291 O 0.48336 0.53398 0.08373 0.0
O292 O 0.44911 0.55473 0.05792 0.0
O293 O 0.44304 0.54958 0.99339 0.0
O294 O 0.47335 0.52533 0.96569 0.0
O295 O 0.57219 0.52307 0.0467 0.0
O296 O 0.53185 0.54457 0.05128 0.0
C297 C 0.4543 0.54382 0.96967 0.0
O298 O 0.48176 0.4777 0.06057 0.0
O299 O 0.44063 0.49799 0.061 0.0
O300 O 0.52433 0.48449 0.96379 0.0
O301 O 0.55826 0.46291 0.98906 0.0
C302 C 0.55092 0.5397 0.98045 0.0
C303 C 0.55793 0.54398 0.05353 0.0
C304 C 0.55229 0.47245 0.07746 0.0
O305 O 0.56349 0.46689 0.05365 0.0
O306 O 0.53429 0.49192 0.08191 0.0
C307 C 0.46427 0.55253 0.07988 0.0
O308 O 0.4355 0.49303 0.00149 0.0
O309 O 0.47669 0.47321 -0.00337 0.0
C310 C 0.45654 0.47823 0.0676 0.0
C311 C 0.45073 0.47296 0.99409 0.0
Fe312 Fe 0.02686 0.44636 0.50601 0.0
O313 O 0.03065 0.48639 0.50851 0.0
Fe314 Fe 0.01703 0.50994 0.47505 0.0
Fe315 Fe 0.01309 0.50854 0.53837 0.0
O316 O 0.03091 0.4865 0.50585 0.0
O317 O -0.00036 0.53198 0.50506 0.0
O318 O -0.00045 0.53195 0.5076 0.0
Fe319 Fe 0.00212 0.57195 0.50743 0.0
C320 C 0.97446 0.46091 0.53863 0.0
O321 O 0.05151 0.44794 0.54028 0.0
O322 O 0.03047 0.48118 0.56702 0.0
O323 O 0.03398 0.57478 0.47936 0.0
O324 O 0.05231 0.53284 0.47637 0.0
O325 O 0.03839 0.48352 0.44777 0.0
O326 O 0.05691 0.45012 0.47623 0.0
O327 O 0.04834 0.53104 0.54157 0.0
O328 O 0.03096 0.57334 0.53855 0.0
C329 C 0.0561 0.46399 0.45331 0.0
O330 O 0.97622 0.56891 0.47415 0.0
O331 O -0.00133 0.53712 0.44657 0.0
O332 O 0.99376 0.44393 0.53313 0.0
O333 O 0.9776 0.48656 0.53627 0.0
C334 C 0.04785 0.46103 0.56329 0.0
C335 C 0.05016 0.55672 0.5453 0.0
C336 C 0.97371 0.55346 0.56055 0.0
O337 O 0.99176 0.53429 0.56582 0.0
O338 O 0.97288 0.56774 0.53795 0.0
C339 C 0.0541 0.55872 0.47402 0.0
O340 O 0.98166 0.48755 0.47238 0.0
O341 O -0.00056 0.44557 0.47376 0.0
C342 C 0.97969 0.55564 0.45121 0.0
C343 C 0.98019 0.46214 0.46731 0.0
Fe344 Fe 0.50811 0.96897 0.50049 0.0
O345 O 0.49188 -0.00244 0.52513 0.0
Fe346 Fe 0.52645 0.00529 0.44144 0.0
Fe347 Fe 0.49256 0.99484 0.56548 0.0
O348 O 0.52646 0.00022 0.48149 0.0
O349 O 0.52646 0.00255 0.4817 0.0
O350 O 0.49174 4e-05 0.52527 0.0
Fe351 Fe 0.5106 0.03118 0.50647 0.0
C352 C 0.46789 0.94236 0.54258 0.0
O353 O 0.54188 0.96432 0.52513 0.0
O354 O 0.52161 0.96368 0.56636 0.0
O355 O 0.53313 0.06013 0.48409 0.0
O356 O 0.55501 0.03551 0.44965 0.0
O357 O 0.55209 0.97111 0.4432 0.0
O358 O 0.52776 0.94269 0.47252 0.0
O359 O 0.5236 0.02309 0.57209 0.0
O360 O 0.54422 0.02722 0.53133 0.0
C361 C 0.54682 0.94727 0.45411 0.0
O362 O 0.47714 0.03693 0.48147 0.0
O363 O 0.49783 0.03686 0.44033 0.0
O364 O 0.48652 0.93968 0.52335 0.0
O365 O 0.46438 0.96408 0.55778 0.0
C366 C 0.5415 0.95731 0.55033 0.0
C367 C 0.54388 0.0307 0.5572 0.0
C368 C 0.47206 0.05264 0.55325 0.0
O369 O 0.46667 0.02868 0.56388 0.0
O370 O 0.49113 0.0574 0.53483 0.0
C371 C 0.55215 0.05701 0.4653 0.0
O372 O 0.49495 0.97771 0.43473 0.0
O373 O 0.47439 0.97202 0.47551 0.0
C374 C 0.47794 0.04376 0.45618 0.0
C375 C 0.47446 0.97015 0.44941 0.0
H376 H 0.19399 0.15128 0.29868 0.0
H377 H 0.15776 0.13147 0.32727 0.0
H378 H 0.10296 0.19781 0.30519 0.0
H379 H 0.13932 0.21816 0.2769 0.0
H380 H 0.1059 0.19142 0.35993 0.0
H381 H 0.08756 0.09062 0.31244 0.0
H382 H 0.12359 0.09554 0.31843 0.0
H383 H 0.10569 0.11768 0.29464 0.0
C384 C 0.17407 0.16138 0.29938 0.0
C385 C 0.16963 0.1864 0.28563 0.0
C386 C 0.15328 0.14992 0.31562 0.0
C387 C 0.12756 0.16301 0.3181 0.0
C388 C 0.12264 0.18734 0.30345 0.0
H389 H 0.01643 0.07287 0.42717 0.0
H390 H 0.02958 0.10186 0.38794 0.0
C391 C 0.14346 0.19891 0.2873 0.0
C392 C 0.10712 0.15284 0.33837 0.0
H393 H 0.07668 0.09423 0.36119 0.0
C394 C 0.09899 0.17032 0.35991 0.0
C395 C 0.09763 0.12552 0.33807 0.0
C396 C 0.10384 0.10639 0.31446 0.0
C397 C 0.0833 0.16061 0.38219 0.0
C398 C 0.07612 0.1326 0.38316 0.0
C399 C 0.08249 0.11566 0.36064 0.0
C400 C 0.06472 0.11965 0.40834 0.0
C401 C 0.07515 0.1803 0.40474 0.0
C402 C 0.0797 0.12055 0.43301 0.0
C403 C 0.07192 0.10436 0.45546 0.0
C404 C 0.04915 0.08704 0.45348 0.0
C405 C 0.03353 0.08684 0.4293 0.0
C406 C 0.04119 0.10315 0.40688 0.0
H407 H 0.07291 0.2015 0.39657 0.0
H408 H 0.05549 0.17424 0.41479 0.0
H409 H 0.09154 0.18057 0.42057 0.0
H410 H 0.0984 0.13244 0.43435 0.0
H411 H 0.08458 0.10416 0.47377 0.0
H412 H 0.8149 0.15025 0.27976 0.0
H413 H 0.83858 0.11454 0.30688 0.0
H414 H 0.86974 0.1765 0.3614 0.0
H415 H 0.84608 0.21191 0.33492 0.0
H416 H 0.89611 0.10675 0.32643 0.0
H417 H 0.8203 0.12563 0.41008 0.0
H418 H 0.81495 0.13718 0.37512 0.0
H419 H 0.83652 0.1564 0.39795 0.0
C420 C 0.82735 0.15622 0.29716 0.0
C421 C 0.82835 0.18377 0.30552 0.0
C422 C 0.84075 0.13585 0.31264 0.0
C423 C 0.85534 0.14294 0.33643 0.0
C424 C 0.85811 0.17062 0.3434 0.0
H425 H 0.97122 0.07599 0.44672 0.0
H426 H 0.94656 0.09466 0.40721 0.0
C427 C 0.84463 0.19081 0.32822 0.0
C428 C 0.86602 0.12179 0.35551 0.0
H429 H 0.86185 0.10232 0.42287 0.0
C430 C 0.8884 0.10534 0.3474 0.0
C431 C 0.85545 0.11954 0.38262 0.0
C432 C 0.83029 0.13542 0.39193 0.0
C433 C 0.90167 0.08798 0.36638 0.0
C434 C 0.89261 0.08765 0.39418 0.0
C435 C 0.86906 0.10275 0.40168 0.0
C436 C 0.90832 0.07377 0.4164 0.0
C437 C 0.92543 0.07046 0.3565 0.0
C438 C 0.89493 0.05629 0.43519 0.0
C439 C 0.90892 0.046 0.45813 0.0
C440 C 0.93659 0.0529 0.46259 0.0
C441 C 0.95008 0.06994 0.44351 0.0
C442 C 0.93603 0.08047 0.42078 0.0
H443 H 0.92315 0.06519 0.33439 0.0
H444 H 0.94488 0.08209 0.35863 0.0
H445 H 0.92718 0.0512 0.36862 0.0
H446 H 0.87349 0.05103 0.43237 0.0
H447 H 0.89808 0.03273 0.47242 0.0
H448 H 0.79963 0.86241 0.31338 0.0
H449 H 0.82654 0.89131 0.34388 0.0
H450 H 0.89559 0.83571 0.3365 0.0
H451 H 0.86881 0.80641 0.30607 0.0
H452 H 0.87988 0.84877 0.39102 0.0
H453 H 0.89239 0.94186 0.32613 0.0
H454 H 0.85757 0.92983 0.32884 0.0
H455 H 0.88322 0.90893 0.31208 0.0
C456 C 0.82061 0.85638 0.31804 0.0
C457 C 0.83208 0.83207 0.30737 0.0
C458 C 0.83599 0.87305 0.33528 0.0
C459 C 0.86308 0.86575 0.34199 0.0
C460 C 0.87473 0.84168 0.33126 0.0
H461 H 0.97723 0.95909 0.44086 0.0
H462 H 0.95565 0.93345 0.40374 0.0
C463 C 0.85939 0.825 0.31396 0.0
C464 C 0.87844 0.88219 0.36195 0.0
H465 H 0.90306 0.94633 0.37389 0.0
C466 C 0.8852 0.87002 0.38723 0.0
C467 C 0.8854 0.9098 0.35669 0.0
C468 C 0.87952 0.92336 0.32937 0.0
C469 C 0.8981 0.88508 0.40786 0.0
C470 C 0.90403 0.91297 0.40301 0.0
C471 C 0.89809 0.92496 0.37746 0.0
C472 C 0.9163 0.92997 0.42451 0.0
C473 C 0.90519 0.87117 0.43473 0.0
C474 C 0.90094 0.93683 0.44803 0.0
C475 C 0.91311 0.95146 0.46928 0.0
C476 C 0.94084 0.95936 0.46724 0.0
C477 C 0.95587 0.95314 0.44315 0.0
C478 C 0.94363 0.93858 0.4219 0.0
H479 H 0.90424 0.84849 0.43314 0.0
H480 H 0.92615 0.87703 0.44149 0.0
H481 H 0.89033 0.87785 0.45087 0.0
H482 H 0.87968 0.93048 0.4501 0.0
H483 H 0.90093 0.9561 0.48746 0.0
H484 H 0.13423 0.78058 0.29473 0.0
H485 H 0.10129 0.80107 0.32699 0.0
H486 H 0.14085 0.87939 0.31719 0.0
H487 H 0.1739 0.85918 0.28491 0.0
H488 H 0.11918 0.82446 0.37645 0.0
H489 H 0.05826 0.89931 0.31576 0.0
H490 H 0.07708 0.87129 0.30004 0.0
H491 H 0.0947 0.90204 0.30987 0.0
C492 C 0.13554 0.80234 0.29884 0.0
C493 C 0.15689 0.81819 0.28731 0.0
C494 C 0.11668 0.81398 0.31735 0.0
C495 C 0.1185 0.84176 0.32436 0.0
C496 C 0.13877 0.858 0.31171 0.0
H497 H 0.10032 0.9441 0.45799 0.0
H498 H 0.11207 0.91132 0.4218 0.0
C499 C 0.15776 0.84636 0.29334 0.0
C500 C 0.10174 0.85305 0.34735 0.0
H501 H 0.06011 0.90698 0.36485 0.0
C502 C 0.10572 0.84209 0.37383 0.0
C503 C 0.08406 0.87593 0.3439 0.0
C504 C 0.07802 0.88769 0.31581 0.0
C505 C 0.09405 0.85464 0.39714 0.0
C506 C 0.078 0.87863 0.39383 0.0
C507 C 0.07246 0.88853 0.36726 0.0
C508 C 0.07061 0.896 0.41766 0.0
C509 C 0.10004 0.84308 0.42533 0.0
C510 C 0.04343 0.89778 0.4276 0.0
C511 C 0.03671 0.91627 0.44872 0.0
C512 C 0.05703 0.93352 0.45956 0.0
C513 C 0.08428 0.93105 0.44996 0.0
C514 C 0.09102 0.91237 0.42933 0.0
H515 H 0.1079 0.82167 0.42424 0.0
H516 H 0.11587 0.85586 0.43542 0.0
H517 H 0.08121 0.84358 0.43844 0.0
H518 H 0.02742 0.88534 0.41866 0.0
H519 H 0.01549 0.91806 0.45557 0.0
H520 H 0.22396 0.86593 0.71874 0.0
H521 H 0.19359 0.89843 0.69542 0.0
H522 H 0.12588 0.84219 0.70427 0.0
H523 H 0.15615 0.80931 0.72727 0.0
H524 H 0.13632 0.85704 0.65092 0.0
H525 H 0.12999 0.94944 0.71684 0.0
H526 H 0.16467 0.93778 0.71091 0.0
H527 H 0.14105 0.9164 0.72976 0.0
C528 C 0.20247 0.86068 0.71629 0.0
C529 C 0.19255 0.83488 0.72455 0.0
C530 C 0.18508 0.87941 0.70317 0.0
C531 C 0.15747 0.87278 0.69838 0.0
C532 C 0.14713 0.84769 0.70793 0.0
H533 H 0.03755 0.96406 0.60116 0.0
H534 H 0.06046 0.94038 0.6392 0.0
C535 C 0.1645 0.82891 0.72098 0.0
C536 C 0.14066 0.89007 0.67991 0.0
H537 H 0.11716 0.95534 0.66936 0.0
C538 C 0.13179 0.87842 0.65515 0.0
C539 C 0.13483 0.91794 0.68553 0.0
C540 C 0.1429 0.93109 0.71233 0.0
C541 C 0.11802 0.89415 0.63539 0.0
C542 C 0.11327 0.92223 0.64048 0.0
C543 C 0.12122 0.93379 0.66556 0.0
C544 C 0.10044 0.93973 0.6194 0.0
C545 C 0.10901 0.88081 0.60894 0.0
C546 C 0.11568 0.94757 0.59612 0.0
C547 C 0.10275 0.96102 0.57431 0.0
C548 C 0.07433 0.96669 0.57548 0.0
C549 C 0.05942 0.95981 0.59949 0.0
C550 C 0.07244 0.94643 0.62131 0.0
H551 H 0.11052 0.8581 0.60997 0.0
H552 H 0.08743 0.88668 0.60412 0.0
H553 H 0.12228 0.88808 0.59174 0.0
H554 H 0.13738 0.94245 0.59446 0.0
H555 H 0.11486 0.96618 0.55624 0.0
H556 H 0.2011 0.21889 0.67066 0.0
H557 H 0.16916 0.18907 0.64655 0.0
H558 H 0.14969 0.14779 0.72284 0.0
H559 H 0.18182 0.17735 0.74723 0.0
H560 H 0.16283 0.11239 0.67972 0.0
H561 H 0.08463 0.18913 0.64784 0.0
H562 H 0.1191 0.19898 0.63883 0.0
H563 H 0.10948 0.19568 0.67453 0.0
C564 C 0.1899 0.20363 0.68241 0.0
C565 C 0.19403 0.20051 0.71089 0.0
C566 C 0.1715 0.18675 0.66861 0.0
C567 C 0.1568 0.16658 0.68303 0.0
C568 C 0.16073 0.16343 0.71144 0.0
H569 H 0.03279 0.0725 0.59414 0.0
H570 H 0.05513 0.09842 0.6307 0.0
C571 C 0.17911 0.18033 0.7253 0.0
C572 C 0.13868 0.14771 0.668 0.0
H573 H 0.08487 0.14647 0.62326 0.0
C574 C 0.14551 0.11973 0.66769 0.0
C575 C 0.11586 0.15732 0.65275 0.0
C576 C 0.10662 0.18689 0.65368 0.0
C577 C 0.131 0.1013 0.65123 0.0
C578 C 0.10947 0.11129 0.63444 0.0
C579 C 0.10162 0.13896 0.63596 0.0
C580 C 0.09618 0.09388 0.61365 0.0
C581 C 0.13914 0.0714 0.65161 0.0
C582 C 0.11193 0.08289 0.59201 0.0
C583 C 0.0993 0.06814 0.57109 0.0
C584 C 0.07063 0.06428 0.57137 0.0
C585 C 0.05493 0.07504 0.59333 0.0
C586 C 0.06762 0.08985 0.61423 0.0
H587 H 0.14957 0.06575 0.67115 0.0
H588 H 0.12092 0.05803 0.64896 0.0
H589 H 0.15376 0.06733 0.63443 0.0
H590 H 0.13394 0.0863 0.59092 0.0
H591 H 0.112 0.06015 0.55451 0.0
H592 H 0.84546 0.26627 0.68439 0.0
H593 H 0.88378 0.2432 0.66093 0.0
H594 H 0.8713 0.17157 0.71176 0.0
H595 H 0.83368 0.19526 0.73627 0.0
H596 H 0.92683 0.17961 0.69733 0.0
H597 H 0.85842 0.18647 0.60598 0.0
H598 H 0.8678 0.21892 0.62027 0.0
H599 H 0.84687 0.19568 0.64006 0.0
C600 C 0.85149 0.24589 0.69106 0.0
C601 C 0.83659 0.23229 0.71181 0.0
C602 C 0.87325 0.23272 0.6776 0.0
C603 C 0.87977 0.20543 0.68407 0.0
C604 C 0.86642 0.19261 0.70638 0.0
H605 H 0.94307 0.0625 0.61286 0.0
H606 H 0.92963 0.09981 0.6433 0.0
C607 C 0.84499 0.20608 0.72035 0.0
C608 C 0.89767 0.18922 0.66541 0.0
H609 H 0.90056 0.16369 0.60008 0.0
C610 C 0.92129 0.17633 0.67599 0.0
C611 C 0.89031 0.18495 0.63755 0.0
C612 C 0.86436 0.197 0.62529 0.0
C613 C 0.93743 0.15878 0.65955 0.0
C614 C 0.92955 0.15396 0.63201 0.0
C615 C 0.90666 0.16772 0.62114 0.0
C616 C 0.94212 0.13197 0.6152 0.0
C617 C 0.96245 0.14513 0.67187 0.0
C618 C 0.95354 0.13772 0.58918 0.0
C619 C 0.96117 0.11633 0.57152 0.0
C620 C 0.95693 0.08893 0.57948 0.0
C621 C 0.9463 0.08337 0.60592 0.0
C622 C 0.93897 0.10467 0.62357 0.0
H623 H 0.97059 0.15709 0.68944 0.0
H624 H 0.95667 0.12454 0.6797 0.0
H625 H 0.97905 0.1425 0.65624 0.0
H626 H 0.95577 0.15873 0.58226 0.0
H627 H 0.96937 0.12126 0.55132 0.0
H628 H 0.83102 0.82255 0.73997 0.0
H629 H 0.86595 0.84894 0.71466 0.0
H630 H 0.87303 0.78403 0.65489 0.0
H631 H 0.83767 0.75811 0.67941 0.0
H632 H 0.92004 0.84007 0.69726 0.0
H633 H 0.84981 0.84857 0.60773 0.0
H634 H 0.83854 0.83579 0.64078 0.0
H635 H 0.85743 0.81388 0.61756 0.0
C636 C 0.84029 0.81382 0.72162 0.0
C637 C 0.83127 0.78853 0.71137 0.0
C638 C 0.86023 0.82888 0.70719 0.0
C639 C 0.87154 0.81872 0.68251 0.0
C640 C 0.86399 0.7926 0.67343 0.0
H641 H 0.96863 0.90087 0.55442 0.0
H642 H 0.95062 0.8643 0.58428 0.0
C643 C 0.84384 0.77779 0.68753 0.0
C644 C 0.88981 0.83608 0.66526 0.0
H645 H 0.8944 0.8666 0.60201 0.0
C646 C 0.91451 0.84581 0.67641 0.0
C647 C 0.88251 0.84359 0.63804 0.0
C648 C 0.85552 0.83516 0.62537 0.0
C649 C 0.93206 0.86292 0.66104 0.0
C650 C 0.92459 0.87055 0.63397 0.0
C651 C 0.90022 0.86037 0.62265 0.0
C652 C 0.93993 0.89139 0.61795 0.0
C653 C 0.95836 0.87285 0.67388 0.0
C654 C 0.94022 0.91856 0.62719 0.0
C655 C 0.95017 0.93939 0.61017 0.0
C656 C 0.96009 0.93346 0.58354 0.0
C657 C 0.96123 0.90603 0.57486 0.0
C658 C 0.95093 0.88516 0.59186 0.0
H659 H 0.96496 0.85937 0.69114 0.0
H660 H 0.97525 0.87388 0.65838 0.0
H661 H 0.95496 0.89377 0.6822 0.0
H662 H 0.93139 0.92389 0.64702 0.0
H663 H 0.94921 0.96031 0.61754 0.0
H664 H 0.28703 0.1833 0.1483 0.0
H665 H 0.3185 0.15318 0.12298 0.0
H666 H 0.33394 0.10682 0.19711 0.0
H667 H 0.30222 0.13676 0.22267 0.0
H668 H 0.38181 0.1315 0.16924 0.0
H669 H 0.31649 0.07046 0.09906 0.0
H670 H 0.30814 0.10639 0.10069 0.0
H671 H 0.30351 0.08527 0.13071 0.0
C672 C 0.29655 0.16627 0.15909 0.0
C673 C 0.29224 0.16248 0.1875 0.0
C674 C 0.31444 0.14903 0.14456 0.0
C675 C 0.32841 0.12779 0.15821 0.0
C676 C 0.32316 0.12305 0.18625 0.0
H677 H 0.44873 0.02398 0.07233 0.0
H678 H 0.41366 0.03961 0.10515 0.0
C679 C 0.30497 0.1401 0.20076 0.0
C680 C 0.35086 0.11298 0.14385 0.0
H681 H 0.36449 0.07278 0.088 0.0
C682 C 0.37806 0.11828 0.15175 0.0
C683 C 0.34581 0.09578 0.12112 0.0
C684 C 0.31691 0.08888 0.11244 0.0
C685 C 0.40045 0.1078 0.13665 0.0
C686 C 0.39538 0.09171 0.11313 0.0
C687 C 0.36821 0.08532 0.10599 0.0
C688 C 0.41797 0.08251 0.09483 0.0
C689 C 0.42937 0.11441 0.14555 0.0
C690 C 0.43204 0.10158 0.07837 0.0
C691 C 0.45199 0.09277 0.05946 0.0
C692 C 0.45825 0.06473 0.05682 0.0
C693 C 0.44458 0.04576 0.07396 0.0
C694 C 0.42445 0.05459 0.09265 0.0
H695 H 0.42992 0.12207 0.16707 0.0
H696 H 0.44289 0.09604 0.14386 0.0
H697 H 0.4379 0.13053 0.13181 0.0
H698 H 0.42706 0.12321 0.07965 0.0
H699 H 0.46211 0.10787 0.04657 0.0
H700 H 0.85054 0.24617 0.19108 0.0
H701 H 0.88576 0.26435 0.15935 0.0
H702 H 0.83876 0.33916 0.15089 0.0
H703 H 0.80381 0.32137 0.18222 0.0
H704 H 0.862 0.31616 0.09985 0.0
H705 H 0.93753 0.32885 0.1849 0.0
H706 H 0.92165 0.29595 0.18002 0.0
H707 H 0.90124 0.32438 0.19178 0.0
C708 C 0.84756 0.2663 0.18207 0.0
C709 C 0.82453 0.28244 0.18935 0.0
C710 C 0.86773 0.27668 0.16411 0.0
C711 C 0.86492 0.30318 0.15305 0.0
C712 C 0.84132 0.31868 0.15926 0.0
H713 H 0.94494 0.44288 0.10228 0.0
H714 H 0.92518 0.40315 0.1254 0.0
C715 C 0.8214 0.30849 0.17726 0.0
C716 C 0.88693 0.31601 0.13629 0.0
H717 H 0.94715 0.35106 0.14308 0.0
C718 C 0.88102 0.3232 0.10896 0.0
C719 C 0.91154 0.3253 0.14847 0.0
C720 C 0.91854 0.31841 0.17793 0.0
C721 C 0.89828 0.34085 0.09396 0.0
C722 C 0.92215 0.35134 0.10665 0.0
C723 C 0.9289 0.34284 0.13343 0.0
C724 C 0.93781 0.37419 0.09407 0.0
C725 C 0.88979 0.34974 0.06542 0.0
C726 C 0.95231 0.3709 0.0692 0.0
C727 C 0.96366 0.39369 0.0558 0.0
C728 C 0.9606 0.42013 0.06705 0.0
C729 C 0.94745 0.42295 0.0928 0.0
C730 C 0.93623 0.40021 0.10616 0.0
H731 H 0.86891 0.34237 0.05999 0.0
H732 H 0.88999 0.37244 0.0637 0.0
H733 H 0.90468 0.34144 0.05011 0.0
H734 H 0.95406 0.35089 0.05974 0.0
H735 H 0.97378 0.39068 0.03609 0.0
H736 H 0.75475 0.88284 0.22173 0.0
H737 H 0.73627 0.92215 0.19619 0.0
H738 H 0.71768 0.86917 0.12786 0.0
H739 H 0.73706 0.8302 0.15266 0.0
H740 H 0.73394 0.91982 0.11061 0.0
H741 H 0.6536 0.92824 0.19295 0.0
H742 H 0.68873 0.93342 0.20292 0.0
H743 H 0.67775 0.90009 0.19196 0.0
C744 C 0.74711 0.87972 0.20107 0.0
C745 C 0.74682 0.85338 0.18935 0.0
C746 C 0.73656 0.90217 0.18656 0.0
C747 C 0.72503 0.89842 0.16044 0.0
C748 C 0.72645 0.8725 0.14804 0.0
H749 H 0.58585 0.92652 0.0779 0.0
H750 H 0.62483 0.91799 0.10793 0.0
C751 C 0.7374 0.85019 0.16229 0.0
C752 C 0.70846 0.92013 0.14704 0.0
H753 H 0.64501 0.95021 0.15137 0.0
C754 C 0.7148 0.92715 0.11967 0.0
C755 C 0.68358 0.9297 0.15911 0.0
C756 C 0.6753 0.92244 0.18827 0.0
C757 C 0.69566 0.94107 0.10315 0.0
C758 C 0.6699 0.94858 0.11465 0.0
C759 C 0.66482 0.94422 0.14276 0.0
C760 C 0.64615 0.95539 0.09708 0.0
C761 C 0.70205 0.94535 0.07299 0.0
C762 C 0.64522 0.97937 0.08116 0.0
C763 C 0.62294 0.98424 0.06365 0.0
C764 C 0.60125 0.96526 0.06208 0.0
C765 C 0.60212 0.94159 0.07858 0.0
C766 C 0.62438 0.9367 0.09583 0.0
H767 H 0.72217 0.93616 0.06688 0.0
H768 H 0.68565 0.93622 0.06015 0.0
H769 H 0.70268 0.96763 0.06841 0.0
H770 H 0.6617 0.99419 0.08217 0.0
H771 H 0.62272 0.00285 0.05142 0.0
H772 H 0.15236 0.70599 0.20091 0.0
H773 H 0.13094 0.6723 0.17091 0.0
H774 H 0.20076 0.67603 0.11576 0.0
H775 H 0.22238 0.71001 0.14554 0.0
H776 H 0.14875 0.67573 0.08898 0.0
H777 H 0.15769 0.59211 0.16626 0.0
H778 H 0.14067 0.62241 0.1788 0.0
H779 H 0.17641 0.62383 0.16902 0.0
C780 C 0.16313 0.69989 0.1823 0.0
C781 C 0.18924 0.71061 0.17579 0.0
C782 C 0.1509 0.68046 0.16526 0.0
C783 C 0.16454 0.67124 0.14145 0.0
C784 C 0.19001 0.68271 0.1342 0.0
H785 H 0.1185 0.55197 0.01558 0.0
H786 H 0.14399 0.58465 0.04363 0.0
C787 C 0.2023 0.70217 0.15124 0.0
C788 C 0.15232 0.64933 0.12439 0.0
H789 H 0.13069 0.58286 0.12674 0.0
C790 C 0.14498 0.65535 0.09711 0.0
C791 C 0.14754 0.62275 0.13508 0.0
C792 C 0.1562 0.61472 0.16381 0.0
C793 C 0.13211 0.63573 0.08051 0.0
C794 C 0.12693 0.60928 0.09136 0.0
C795 C 0.13466 0.60316 0.11849 0.0
C796 C 0.11253 0.588 0.07522 0.0
C797 C 0.12334 0.64376 0.0518 0.0
C798 C 0.08693 0.57817 0.08428 0.0
C799 C 0.07239 0.55934 0.06845 0.0
C800 C 0.08323 0.54984 0.04324 0.0
C801 C 0.10946 0.55888 0.03481 0.0
C802 C 0.12398 0.57775 0.05069 0.0
H803 H 0.12317 0.66636 0.04887 0.0
H804 H 0.13799 0.6348 0.03664 0.0
H805 H 0.10248 0.63579 0.04725 0.0
H806 H 0.07781 0.58569 0.10325 0.0
H807 H 0.05228 0.55285 0.07564 0.0
H808 H 0.29063 0.82358 0.85525 0.0
H809 H 0.3219 0.85195 0.88224 0.0
H810 H 0.37282 0.86415 0.81003 0.0
H811 H 0.34064 0.83755 0.78276 0.0
H812 H 0.37128 0.84367 0.89556 0.0
H813 H 0.37116 0.94012 0.83597 0.0
H814 H 0.34696 0.91313 0.82927 0.0
H815 H 0.38104 0.91215 0.81422 0.0
C816 C 0.30823 0.83284 0.84512 0.0
C817 C 0.3131 0.82869 0.81692 0.0
C818 C 0.32613 0.84897 0.86052 0.0
C819 C 0.34953 0.86071 0.84811 0.0
C820 C 0.35444 0.8563 0.81993 0.0
H821 H 0.49237 0.90317 0.94697 0.0
H822 H 0.45993 0.88076 0.91594 0.0
C823 C 0.33613 0.84089 0.80438 0.0
C824 C 0.36981 0.87582 0.86502 0.0
H825 H 0.40934 0.93339 0.86662 0.0
C826 C 0.37931 0.86347 0.88937 0.0
C827 C 0.3801 0.90185 0.85727 0.0
C828 C 0.36902 0.91767 0.83292 0.0
C829 C 0.39895 0.87619 0.90599 0.0
C830 C 0.41063 0.90132 0.89724 0.0
C831 C 0.40086 0.91386 0.87308 0.0
C832 C 0.43204 0.91556 0.91347 0.0
C833 C 0.4062 0.86284 0.93313 0.0
C834 C 0.4283 0.94318 0.92073 0.0
C835 C 0.44738 0.95629 0.93744 0.0
C836 C 0.4703 0.94187 0.94764 0.0
C837 C 0.47467 0.91459 0.93958 0.0
C838 C 0.45597 0.90171 0.92215 0.0
H839 H 0.38937 0.84936 0.94064 0.0
H840 H 0.42485 0.84985 0.93035 0.0
H841 H 0.41038 0.87835 0.94923 0.0
H842 H 0.41014 0.9544 0.91419 0.0
H843 H 0.44342 0.97732 0.94349 0.0
H844 H 0.16682 0.24614 0.82819 0.0
H845 H 0.12698 0.2622 0.8552 0.0
H846 H 0.16913 0.33781 0.87202 0.0
H847 H 0.20879 0.3221 0.84531 0.0
H848 H 0.1389 0.31203 0.91856 0.0
H849 H 0.07811 0.3267 0.82239 0.0
H850 H 0.09422 0.29401 0.82918 0.0
H851 H 0.11514 0.32319 0.82136 0.0
C852 C 0.16777 0.26597 0.83809 0.0
C853 C 0.19081 0.28301 0.8344 0.0
C854 C 0.14498 0.27511 0.85337 0.0
C855 C 0.14515 0.30124 0.86527 0.0
C856 C 0.16869 0.31757 0.8629 0.0
H857 H 0.06499 0.44113 0.90447 0.0
H858 H 0.08376 0.39994 0.88308 0.0
C859 C 0.19129 0.3086 0.84755 0.0
C860 C 0.12038 0.31305 0.87847 0.0
H861 H 0.06219 0.34896 0.86217 0.0
C862 C 0.1216 0.31943 0.90655 0.0
C863 C 0.09806 0.32268 0.8625 0.0
C864 C 0.0961 0.31646 0.83215 0.0
C865 C 0.10215 0.33704 0.91868 0.0
C866 C 0.08088 0.34824 0.90222 0.0
C867 C 0.07848 0.34017 0.87465 0.0
C868 C 0.06448 0.37193 0.91185 0.0
C869 C 0.10588 0.34539 0.94836 0.0
C870 C 0.04632 0.36964 0.93425 0.0
C871 C 0.03557 0.39322 0.94667 0.0
C872 C 0.04295 0.4194 0.93684 0.0
C873 C 0.05918 0.42137 0.91285 0.0
C874 C 0.06985 0.39783 0.90049 0.0
H875 H 0.12517 0.33696 0.95732 0.0
H876 H 0.10627 0.36807 0.9501 0.0
H877 H 0.08827 0.33783 0.96086 0.0
H878 H 0.04165 0.34974 0.94302 0.0
H879 H 0.02286 0.39087 0.96493 0.0
H880 H 0.75719 0.20012 0.83131 0.0
H881 H 0.74193 0.16348 0.86267 0.0
H882 H 0.66331 0.16173 0.8219 0.0
H883 H 0.67816 0.19782 0.79072 0.0
H884 H 0.69568 0.16538 0.89859 0.0
H885 H 0.68571 0.08068 0.82423 0.0
H886 H 0.70599 0.11085 0.81705 0.0
H887 H 0.66926 0.11136 0.81201 0.0
C888 C 0.73675 0.19173 0.82891 0.0
C889 C 0.71891 0.20192 0.80848 0.0
C890 C 0.7281 0.17081 0.84681 0.0
C891 C 0.7017 0.15954 0.84422 0.0
C892 C 0.684 0.16966 0.82383 0.0
H893 H 0.56834 0.086 0.9151 0.0
H894 H 0.60575 0.10621 0.88847 0.0
C895 C 0.69249 0.19053 0.80615 0.0
C896 C 0.69134 0.13859 0.86377 0.0
H897 H 0.65606 0.07833 0.86477 0.0
C898 C 0.68776 0.14592 0.89149 0.0
C899 C 0.68121 0.11316 0.85445 0.0
C900 C 0.686 0.10342 0.82535 0.0
C901 C 0.67204 0.12961 0.90949 0.0
C902 C 0.65986 0.10541 0.89943 0.0
C903 C 0.66532 0.09701 0.87234 0.0
C904 C 0.63803 0.09114 0.91512 0.0
C905 C 0.6667 0.13938 0.9385 0.0
C906 C 0.64391 0.07555 0.93871 0.0
C907 C 0.62246 0.0638 0.95408 0.0
C908 C 0.59484 0.06772 0.94614 0.0
C909 C 0.58928 0.08277 0.92203 0.0
C910 C 0.61065 0.09426 0.90667 0.0
H911 H 0.67665 0.15937 0.94271 0.0
H912 H 0.64419 0.1415 0.94217 0.0
H913 H 0.67471 0.12399 0.95336 0.0
H914 H 0.665 0.0728 0.9454 0.0
H915 H 0.62747 0.0523 0.97252 0.0
H916 H 0.79908 0.65615 0.815 0.0
H917 H 0.82737 0.63353 0.84926 0.0
H918 H 0.8512 0.71192 0.88188 0.0
H919 H 0.82293 0.7352 0.84683 0.0
H920 H 0.89527 0.67488 0.87652 0.0
H921 H 0.80785 0.6258 0.9303 0.0
H922 H 0.80721 0.6189 0.89406 0.0
H923 H 0.8032 0.6536 0.9061 0.0
C924 C 0.81014 0.66879 0.82946 0.0
C925 C 0.80841 0.69759 0.82834 0.0
C926 C 0.82627 0.65572 0.84916 0.0
C927 C 0.84083 0.67099 0.86853 0.0
C928 C 0.83983 0.69977 0.86724 0.0
H929 H 0.91006 0.57641 0.00454 0.0
H930 H 0.88505 0.6107 0.9778 0.0
C931 C 0.82368 0.71302 0.84726 0.0
C932 C 0.85724 0.65635 0.88966 0.0
H933 H 0.85228 0.60459 0.93675 0.0
C934 C 0.8859 0.65983 0.89007 0.0
C935 C 0.84492 0.63708 0.90767 0.0
C936 C 0.81407 0.63383 0.90975 0.0
C937 C 0.90272 0.64346 0.90701 0.0
C938 C 0.89054 0.62261 0.92333 0.0
C939 C 0.86174 0.6202 0.92392 0.0
C940 C 0.90705 0.60275 0.93971 0.0
C941 C 0.93331 0.64873 0.90721 0.0
C942 C 0.92766 0.5866 0.92719 0.0
C943 C 0.94227 0.5671 0.94256 0.0
C944 C 0.93606 0.56295 0.97057 0.0
C945 C 0.91517 0.57888 0.98293 0.0
C946 C 0.90092 0.59862 0.9677 0.0
H947 H 0.93793 0.6703 0.90152 0.0
H948 H 0.94231 0.64437 0.92775 0.0
H949 H 0.94356 0.63529 0.89181 0.0
H950 H 0.93219 0.58876 0.90543 0.0
H951 H 0.95818 0.55507 0.93245 0.0
H952 H 0.23221 0.29189 0.14061 0.0
H953 H 0.20691 0.32286 0.1098 0.0
H954 H 0.13207 0.30747 0.15537 0.0
H955 H 0.15698 0.27671 0.18625 0.0
H956 H 0.15559 0.31647 0.07718 0.0
H957 H 0.1473 0.39168 0.16265 0.0
H958 H 0.17146 0.3634 0.16306 0.0
H959 H 0.13573 0.35767 0.17083 0.0
C960 C 0.21026 0.29465 0.14372 0.0
C961 C 0.19669 0.28216 0.16613 0.0
C962 C 0.19588 0.31237 0.12615 0.0
C963 C 0.16783 0.31777 0.13076 0.0
C964 C 0.15385 0.30386 0.15184 0.0
H965 H 0.04553 0.43077 0.06857 0.0
H966 H 0.07198 0.39654 0.09437 0.0
C967 C 0.16814 0.28625 0.16941 0.0
C968 C 0.15345 0.33936 0.11494 0.0
H969 H 0.12239 0.40188 0.12211 0.0
C970 C 0.14843 0.33523 0.08687 0.0
C971 C 0.14426 0.36376 0.12778 0.0
C972 C 0.15011 0.36962 0.15769 0.0
C973 C 0.13369 0.35468 0.07138 0.0
C974 C 0.12426 0.37898 0.08433 0.0
C975 C 0.12957 0.38317 0.11233 0.0
C976 C 0.10872 0.40031 0.06922 0.0
C977 C 0.1277 0.34876 0.04152 0.0
C978 C 0.12097 0.41427 0.0471 0.0
C979 C 0.106 0.43386 0.03237 0.0
C980 C 0.07851 0.43996 0.03961 0.0
C981 C 0.06664 0.4266 0.06245 0.0
C982 C 0.08166 0.40697 0.07715 0.0
H983 H 0.13034 0.32666 0.03664 0.0
H984 H 0.1064 0.35512 0.03614 0.0
H985 H 0.14217 0.36051 0.0283 0.0
H986 H 0.14207 0.40988 0.04111 0.0
H987 H 0.11588 0.44388 0.01504 0.0
H988 H 0.15609 0.72665 0.80147 0.0
H989 H 0.12443 0.70364 0.8326 0.0
H990 H 0.18375 0.70911 0.89813 0.0
H991 H 0.21619 0.73158 0.86667 0.0
H992 H 0.16726 0.65841 0.89163 0.0
H993 H 0.07451 0.72415 0.89505 0.0
H994 H 0.08433 0.71756 0.86005 0.0
H995 H 0.10718 0.73636 0.88209 0.0
C996 C 0.16232 0.72349 0.82263 0.0
C997 C 0.18883 0.73074 0.83149 0.0
C998 C 0.14397 0.71057 0.84054 0.0
C999 C 0.15149 0.70502 0.86784 0.0
C1000 C 0.17745 0.71339 0.87717 0.0
H1001 H 0.04416 0.60815 0.97642 0.0
H1002 H 0.06866 0.64703 0.95618 0.0
C1003 C 0.19598 0.72617 0.85916 0.0
C1004 C 0.1339 0.68702 0.88505 0.0
H1005 H 0.06709 0.67551 0.90409 0.0
C1006 C 0.14548 0.66246 0.89482 0.0
C1007 C 0.10552 0.69236 0.88951 0.0
C1008 C 0.09228 0.71921 0.88136 0.0
C1009 C 0.12918 0.64243 0.90747 0.0
C1010 C 0.10045 0.6468 0.90979 0.0
C1011 C 0.08905 0.672 0.90163 0.0
C1012 C 0.08211 0.62491 0.91995 0.0
C1013 C 0.14283 0.61651 0.91783 0.0
C1014 C 0.0805 0.60012 0.90555 0.0
C1015 C 0.06664 0.57784 0.91702 0.0
C1016 C 0.05396 0.58007 0.94304 0.0
C1017 C 0.05377 0.60567 0.95638 0.0
C1018 C 0.06779 0.62793 0.94491 0.0
H1019 H 0.16518 0.61953 0.9215 0.0
H1020 H 0.13305 0.60933 0.93727 0.0
H1021 H 0.14065 0.60017 0.90216 0.0
H1022 H 0.09098 0.59766 0.88594 0.0
H1023 H 0.06688 0.55857 0.906 0.0
H1024 H 0.25918 0.16134 0.82984 0.0
H1025 H 0.27774 0.12264 0.85647 0.0
H1026 H 0.35969 0.14225 0.82818 0.0
H1027 H 0.34155 0.18043 0.80144 0.0
H1028 H 0.34689 0.08483 0.82788 0.0
H1029 H 0.32215 0.13591 0.92783 0.0
H1030 H 0.29476 0.13056 0.90366 0.0
H1031 H 0.32152 0.15456 0.89568 0.0
C1032 C 0.28112 0.15725 0.82913 0.0
C1033 C 0.29892 0.17418 0.81375 0.0
C1034 C 0.29165 0.13518 0.84438 0.0
C1035 C 0.32008 0.12981 0.84443 0.0
C1036 C 0.33767 0.14606 0.82835 0.0
H1037 H 0.46128 0.07397 0.91223 0.0
H1038 H 0.42187 0.08583 0.88376 0.0
C1039 C 0.32725 0.16801 0.8132 0.0
C1040 C 0.33238 0.10861 0.86241 0.0
H1041 H 0.35311 0.0991 0.92875 0.0
C1042 C 0.34769 0.08744 0.85004 0.0
C1043 C 0.33314 0.11195 0.89132 0.0
C1044 C 0.31715 0.13448 0.90558 0.0
C1045 C 0.36552 0.07092 0.8656 0.0
C1046 C 0.36825 0.07603 0.89406 0.0
C1047 C 0.351 0.09539 0.90685 0.0
C1048 C 0.39198 0.06537 0.90978 0.0
C1049 C 0.38239 0.04915 0.85121 0.0
C1050 C 0.38818 0.05006 0.93399 0.0
C1051 C 0.41078 0.04323 0.95045 0.0
C1052 C 0.4374 0.05214 0.94317 0.0
C1053 C 0.44107 0.06695 0.91857 0.0
C1054 C 0.41859 0.07349 0.90207 0.0
H1055 H 0.37165 0.04145 0.83267 0.0
H1056 H 0.40227 0.05809 0.84436 0.0
H1057 H 0.38685 0.03163 0.86518 0.0
H1058 H 0.36771 0.04393 0.94041 0.0
H1059 H 0.40726 0.0318 0.96929 0.0
H1060 H 0.82302 0.29984 0.82726 0.0
H1061 H 0.84831 0.32731 0.86058 0.0
H1062 H 0.80187 0.39905 0.83656 0.0
H1063 H 0.77699 0.37198 0.80276 0.0
H1064 H 0.85587 0.40972 0.83904 0.0
H1065 H 0.82337 0.35621 0.93453 0.0
H1066 H 0.83861 0.33347 0.90971 0.0
H1067 H 0.80673 0.35076 0.90188 0.0
C1068 C 0.81804 0.32142 0.82919 0.0
C1069 C 0.79795 0.33368 0.81233 0.0
C1070 C 0.8324 0.33707 0.8484 0.0
C1071 C 0.82667 0.36515 0.8514 0.0
C1072 C 0.80656 0.3774 0.83468 0.0
H1073 H 0.89025 0.46397 0.98638 0.0
H1074 H 0.86012 0.44059 0.95389 0.0
C1075 C 0.79236 0.36185 0.81535 0.0
C1076 C 0.84246 0.38209 0.87106 0.0
H1077 H 0.86116 0.38705 0.93854 0.0
C1078 C 0.85686 0.40487 0.86083 0.0
C1079 C 0.84339 0.37605 0.89957 0.0
C1080 C 0.82697 0.35296 0.91215 0.0
C1081 C 0.87273 0.42134 0.87819 0.0
C1082 C 0.87479 0.41446 0.90643 0.0
C1083 C 0.8598 0.39213 0.91682 0.0
C1084 C 0.89286 0.42974 0.92544 0.0
C1085 C 0.88689 0.44612 0.86612 0.0
C1086 C 0.92127 0.43136 0.92025 0.0
C1087 C 0.93851 0.44484 0.93863 0.0
C1088 C 0.92775 0.45671 0.96283 0.0
C1089 C 0.89924 0.45511 0.96794 0.0
C1090 C 0.88198 0.44172 0.94943 0.0
H1091 H 0.87661 0.45328 0.84699 0.0
H1092 H 0.88722 0.46331 0.88104 0.0
H1093 H 0.90847 0.44063 0.86075 0.0
H1094 H 0.93023 0.42169 0.90223 0.0
H1095 H 0.96039 0.44539 0.93413 0.0
H1096 H 0.67194 0.8162 0.79209 0.0
H1097 H 0.65194 0.85222 0.82011 0.0
H1098 H 0.73128 0.86803 0.85604 0.0
H1099 H 0.7517 0.83106 0.82817 0.0
H1100 H 0.69214 0.86354 0.89472 0.0
H1101 H 0.65351 0.9341 0.81492 0.0
H1102 H 0.6418 0.90008 0.808 0.0
H1103 H 0.6782 0.90729 0.8073 0.0
C1104 C 0.68539 0.82743 0.80566 0.0
C1105 C 0.71352 0.82062 0.80785 0.0
C1106 C 0.67388 0.84834 0.8215 0.0
C1107 C 0.69017 0.86334 0.83972 0.0
C1108 C 0.71838 0.85694 0.84183 0.0
H1109 H 0.59672 0.98806 0.93406 0.0
H1110 H 0.63127 0.96802 0.90282 0.0
C1111 C 0.73001 0.83581 0.82593 0.0
C1112 C 0.67674 0.8836 0.85828 0.0
H1113 H 0.62797 0.93437 0.85853 0.0
C1114 C 0.6786 0.87945 0.88682 0.0
C1115 C 0.65949 0.90481 0.84811 0.0
C1116 C 0.6584 0.91201 0.81789 0.0
C1117 C 0.66204 0.89441 0.90526 0.0
C1118 C 0.6426 0.91349 0.89482 0.0
C1119 C 0.64237 0.91927 0.8665 0.0
C1120 C 0.62108 0.92598 0.91272 0.0
C1121 C 0.66514 0.88915 0.93573 0.0
C1122 C 0.60319 0.90903 0.92777 0.0
C1123 C 0.58359 0.92033 0.94559 0.0
C1124 C 0.58112 0.9489 0.94844 0.0
C1125 C 0.59808 0.96596 0.93229 0.0
C1126 C 0.61793 0.95456 0.91456 0.0
H1127 H 0.68632 0.88201 0.94068 0.0
H1128 H 0.66052 0.90784 0.94795 0.0
H1129 H 0.65066 0.87278 0.94216 0.0
H1130 H 0.60458 0.88694 0.92596 0.0
H1131 H 0.57061 0.90662 0.95743 0.0
H1132 H 0.82491 0.74403 0.14203 0.0
H1133 H 0.85812 0.71733 0.11493 0.0
H1134 H 0.91402 0.71631 0.18362 0.0
H1135 H 0.88162 0.74365 0.21047 0.0
H1136 H 0.94141 0.71648 0.13335 0.0
H1137 H 0.85992 0.637 0.13863 0.0
H1138 H 0.84968 0.66801 0.12143 0.0
H1139 H 0.85759 0.66862 0.15757 0.0
C1140 C 0.84459 0.73878 0.1511 0.0
C1141 C 0.8503 0.74529 0.17865 0.0
C1142 C 0.86349 0.72349 0.13562 0.0
C1143 C 0.88807 0.71421 0.14766 0.0
C1144 C 0.89503 0.72308 0.17409 0.0
H1145 H 0.96019 0.55754 0.10964 0.0
H1146 H 0.94367 0.598 0.13439 0.0
C1147 C 0.87635 0.73862 0.18945 0.0
C1148 C 0.90452 0.6922 0.13467 0.0
H1149 H 0.9007 0.62538 0.11509 0.0
C1150 C 0.93259 0.69655 0.12923 0.0
C1151 C 0.89303 0.66604 0.13014 0.0
C1152 C 0.86349 0.65945 0.13747 0.0
C1153 C 0.94947 0.67538 0.11902 0.0
C1154 C 0.93772 0.64949 0.11374 0.0
C1155 C 0.90969 0.64523 0.11927 0.0
C1156 C 0.95346 0.62651 0.10152 0.0
C1157 C 0.97975 0.68076 0.11459 0.0
C1158 C 0.96541 0.62932 0.07533 0.0
C1159 C 0.97516 0.60631 0.0613 0.0
C1160 C 0.97256 0.58002 0.07303 0.0
C1161 C 0.9622 0.57747 0.09997 0.0
C1162 C 0.95282 0.60057 0.11414 0.0
H1163 H 0.98698 0.69791 0.12764 0.0
H1164 H 0.99235 0.66225 0.11918 0.0
H1165 H 0.9833 0.68659 0.09275 0.0
H1166 H 0.96556 0.649 0.06495 0.0
H1167 H 0.98294 0.609 0.04052 0.0
H1168 H 0.28282 0.86985 0.20911 0.0
H1169 H 0.31278 0.89779 0.18001 0.0
H1170 H 0.29999 0.84249 0.11216 0.0
H1171 H 0.27094 0.81382 0.14157 0.0
H1172 H 0.35219 0.8489 0.12 0.0
H1173 H 0.30484 0.95218 0.11924 0.0
H1174 H 0.31001 0.94005 0.15371 0.0
H1175 H 0.28655 0.92236 0.13142 0.0
C1176 C 0.28574 0.86407 0.18776 0.0
C1177 C 0.27459 0.83955 0.17766 0.0
C1178 C 0.30282 0.88017 0.17106 0.0
C1179 C 0.30855 0.87244 0.14375 0.0
C1180 C 0.29595 0.84889 0.13316 0.0
H1181 H 0.41219 0.96587 0.02979 0.0
H1182 H 0.37324 0.9455 0.05438 0.0
C1183 C 0.27927 0.83254 0.14996 0.0
C1184 C 0.33022 0.88672 0.12743 0.0
H1185 H 0.35281 0.94967 0.10639 0.0
C1186 C 0.35208 0.87091 0.11678 0.0
C1187 C 0.33011 0.91543 0.12296 0.0
C1188 C 0.30645 0.93343 0.1322 0.0
C1189 C 0.37401 0.88295 0.10235 0.0
C1190 C 0.3747 0.91179 0.09924 0.0
C1191 C 0.35252 0.92761 0.10921 0.0
C1192 C 0.3982 0.92572 0.0855 0.0
C1193 C 0.39604 0.86452 0.09027 0.0
C1194 C 0.42515 0.92205 0.09526 0.0
C1195 C 0.44751 0.93339 0.0811 0.0
C1196 C 0.44336 0.94908 0.0571 0.0
C1197 C 0.4162 0.95383 0.04813 0.0
C1198 C 0.39386 0.94222 0.06218 0.0
H1199 H 0.38835 0.84335 0.08716 0.0
H1200 H 0.40363 0.87252 0.07019 0.0
H1201 H 0.41367 0.86332 0.10467 0.0
H1202 H 0.42894 0.91005 0.11368 0.0
H1203 H 0.46806 0.92966 0.08886 0.0
H1204 H 0.743 0.1685 0.1875 0.0
H1205 H 0.71566 0.14027 0.15623 0.0
H1206 H 0.64089 0.17401 0.19097 0.0
H1207 H 0.6677 0.2016 0.22245 0.0
H1208 H 0.63767 0.11883 0.1843 0.0
H1209 H 0.67566 0.1688 0.08837 0.0
H1210 H 0.70196 0.15401 0.10974 0.0
H1211 H 0.68207 0.18268 0.1221 0.0
C1212 C 0.72074 0.16982 0.18852 0.0
C1213 C 0.70761 0.18746 0.20742 0.0
C1214 C 0.70515 0.1538 0.17053 0.0
C1215 C 0.67623 0.15535 0.17099 0.0
C1216 C 0.66316 0.1725 0.1902 0.0
H1217 H 0.55796 0.1165 0.04602 0.0
H1218 H 0.5883 0.13758 0.0798 0.0
C1219 C 0.67862 0.18834 0.20818 0.0
C1220 C 0.65919 0.13953 0.15145 0.0
H1221 H 0.64403 0.13273 0.08324 0.0
C1222 C 0.63915 0.12173 0.16218 0.0
C1223 C 0.66091 0.14365 0.12263 0.0
C1224 C 0.68112 0.16348 0.10993 0.0
C1225 C 0.62052 0.10823 0.14494 0.0
C1226 C 0.62239 0.11219 0.11611 0.0
C1227 C 0.64268 0.12968 0.10535 0.0
C1228 C 0.60298 0.09912 0.09672 0.0
C1229 C 0.59841 0.09068 0.15786 0.0
C1230 C 0.60098 0.07048 0.09516 0.0
C1231 C 0.58339 0.05837 0.0761 0.0
C1232 C 0.56777 0.07466 0.05791 0.0
C1233 C 0.56964 0.10335 0.05972 0.0
C1234 C 0.58706 0.11543 0.07895 0.0
H1235 H 0.59525 0.09559 0.17999 0.0
H1236 H 0.57849 0.09333 0.14702 0.0
H1237 H 0.60464 0.06881 0.15641 0.0
H1238 H 0.61349 0.05746 0.10824 0.0
H1239 H 0.58271 0.0362 0.07508 0.0
H1240 H 0.68427 0.64407 0.79141 0.0
H1241 H 0.65233 0.62162 0.82315 0.0
H1242 H 0.61005 0.69846 0.83648 0.0
H1243 H 0.64191 0.72121 0.80451 0.0
H1244 H 0.63122 0.67075 0.88519 0.0
H1245 H 0.56868 0.60239 0.81963 0.0
H1246 H 0.60502 0.60127 0.81237 0.0
H1247 H 0.58599 0.63239 0.80628 0.0
C1248 C 0.66782 0.65611 0.80061 0.0
C1249 C 0.66568 0.68443 0.79557 0.0
C1250 C 0.6495 0.64321 0.81861 0.0
C1251 C 0.6288 0.65839 0.83196 0.0
C1252 C 0.62583 0.68643 0.82616 0.0
H1253 H 0.52015 0.57605 0.95044 0.0
H1254 H 0.53653 0.60836 0.91551 0.0
C1255 C 0.64398 0.69933 0.80786 0.0
C1256 C 0.6126 0.64545 0.85423 0.0
H1257 H 0.57025 0.59149 0.8678 0.0
C1258 C 0.61747 0.65374 0.88141 0.0
C1259 C 0.59465 0.62339 0.84915 0.0
C1260 C 0.58802 0.61443 0.82026 0.0
C1261 C 0.60598 0.63951 0.90378 0.0
C1262 C 0.58936 0.61645 0.89872 0.0
C1263 C 0.58323 0.6091 0.87154 0.0
C1264 C 0.57961 0.5986 0.9213 0.0
C1265 C 0.61221 0.64878 0.93268 0.0
C1266 C 0.59852 0.58257 0.93611 0.0
C1267 C 0.58929 0.56393 0.95595 0.0
C1268 C 0.56097 0.56113 0.96136 0.0
C1269 C 0.54213 0.57781 0.94693 0.0
C1270 C 0.55139 0.59624 0.9269 0.0
H1271 H 0.61968 0.67025 0.93306 0.0
H1272 H 0.59364 0.64716 0.94606 0.0
H1273 H 0.62849 0.63537 0.94149 0.0
H1274 H 0.62039 0.58394 0.93176 0.0
H1275 H 0.60429 0.55139 0.96669 0.0
H1276 H 0.3321 0.71297 0.83615 0.0
H1277 H 0.36456 0.68131 0.85749 0.0
H1278 H 0.36752 0.63325 0.78313 0.0
H1279 H 0.33485 0.66515 0.7613 0.0
H1280 H 0.35542 0.60369 0.8335 0.0
H1281 H 0.44812 0.66838 0.84319 0.0
H1282 H 0.41709 0.68566 0.85385 0.0
H1283 H 0.42124 0.67543 0.81849 0.0
C1284 C 0.33976 0.69582 0.82416 0.0
C1285 C 0.33081 0.69149 0.79705 0.0
C1286 C 0.35854 0.67791 0.83632 0.0
C1287 C 0.36871 0.65527 0.8217 0.0
C1288 C 0.36008 0.65087 0.79456 0.0
H1289 H 0.47926 0.54904 0.91915 0.0
H1290 H 0.46123 0.57285 0.87844 0.0
C1291 C 0.34143 0.66904 0.78219 0.0
C1292 C 0.38625 0.63512 0.83613 0.0
H1293 H 0.44363 0.63128 0.87616 0.0
C1294 C 0.37508 0.60937 0.84225 0.0
C1295 C 0.41198 0.64253 0.84725 0.0
C1296 C 0.42547 0.66943 0.84014 0.0
C1297 C 0.3879 0.59175 0.86114 0.0
C1298 C 0.4123 0.6003 0.87419 0.0
C1299 C 0.42471 0.62499 0.8663 0.0
C1300 C 0.42329 0.58553 0.8983 0.0
C1301 C 0.3746 0.5647 0.86804 0.0
C1302 C 0.40806 0.58537 0.92292 0.0
C1303 C 0.41831 0.57212 0.94619 0.0
C1304 C 0.44397 0.55865 0.94522 0.0
C1305 C 0.45932 0.55905 0.9205 0.0
C1306 C 0.44911 0.5726 0.89725 0.0
H1307 H 0.36067 0.55791 0.85135 0.0
H1308 H 0.39041 0.54856 0.87165 0.0
H1309 H 0.36217 0.56698 0.88716 0.0
H1310 H 0.38825 0.59567 0.92415 0.0
H1311 H 0.40594 0.57215 0.96484 0.0
H1312 H 0.3272 0.35594 0.79786 0.0
H1313 H 0.35403 0.38206 0.83112 0.0
H1314 H 0.36941 0.3078 0.87741 0.0
H1315 H 0.34454 0.28149 0.84288 0.0
H1316 H 0.34292 0.39146 0.88051 0.0
H1317 H 0.44366 0.33818 0.88101 0.0
H1318 H 0.4179 0.33111 0.85549 0.0
H1319 H 0.41643 0.31478 0.88887 0.0
C1320 C 0.33702 0.34521 0.81477 0.0
C1321 C 0.3342 0.31679 0.81777 0.0
C1322 C 0.3522 0.36009 0.83385 0.0
C1323 C 0.36412 0.34692 0.85671 0.0
C1324 C 0.36134 0.31839 0.85955 0.0
H1325 H 0.40044 0.44874 0.00059 0.0
H1326 H 0.37936 0.41513 0.96982 0.0
C1327 C 0.34697 0.30337 0.83992 0.0
C1328 C 0.37737 0.36342 0.87856 0.0
H1329 H 0.43434 0.36786 0.91908 0.0
C1330 C 0.36308 0.38643 0.88869 0.0
C1331 C 0.40373 0.35703 0.88924 0.0
C1332 C 0.4214 0.33411 0.87785 0.0
C1333 C 0.37445 0.40344 0.90878 0.0
C1334 C 0.40022 0.39632 0.92041 0.0
C1335 C 0.4144 0.37312 0.91053 0.0
C1336 C 0.41383 0.41381 0.94122 0.0
C1337 C 0.35914 0.42944 0.91629 0.0
C1338 C 0.44094 0.42265 0.93656 0.0
C1339 C 0.45334 0.44079 0.9547 0.0
C1340 C 0.43868 0.45093 0.97756 0.0
C1341 C 0.41197 0.4414 0.98289 0.0
C1342 C 0.39986 0.42248 0.96516 0.0
H1343 H 0.34467 0.43584 0.89979 0.0
H1344 H 0.34678 0.42586 0.93525 0.0
H1345 H 0.37355 0.44659 0.92007 0.0
H1346 H 0.45224 0.41625 0.91835 0.0
H1347 H 0.47395 0.44794 0.95003 0.0
H1348 H 0.67653 0.37467 0.76061 0.0
H1349 H 0.64492 0.4003 0.79043 0.0
H1350 H 0.60791 0.32469 0.81754 0.0
H1351 H 0.6389 0.29889 0.7873 0.0
H1352 H 0.56996 0.36888 0.81416 0.0
H1353 H 0.66429 0.39542 0.87241 0.0
H1354 H 0.66472 0.40616 0.83701 0.0
H1355 H 0.66439 0.37022 0.84535 0.0
C1356 C 0.66123 0.36352 0.7724 0.0
C1357 C 0.6606 0.33471 0.77201 0.0
C1358 C 0.64323 0.3782 0.78946 0.0
C1359 C 0.62462 0.3643 0.80667 0.0
C1360 C 0.62227 0.33576 0.80452 0.0
H1361 H 0.57347 0.41841 0.9671 0.0
H1362 H 0.58942 0.39225 0.92733 0.0
C1363 C 0.64006 0.32106 0.78724 0.0
C1364 C 0.61025 0.37894 0.82925 0.0
H1365 H 0.62246 0.41424 0.88838 0.0
C1366 C 0.58134 0.3789 0.83039 0.0
C1367 C 0.62526 0.39145 0.85066 0.0
C1368 C 0.65637 0.39067 0.85155 0.0
C1369 C 0.56701 0.39132 0.85236 0.0
C1370 C 0.58209 0.40433 0.8734 0.0
C1371 C 0.61096 0.4043 0.87218 0.0
C1372 C 0.56874 0.41784 0.8973 0.0
C1373 C 0.536 0.3898 0.85323 0.0
C1374 C 0.55129 0.44058 0.89364 0.0
C1375 C 0.54196 0.45554 0.91641 0.0
C1376 C 0.55032 0.44825 0.94318 0.0
C1377 C 0.56689 0.4248 0.94678 0.0
C1378 C 0.57597 0.40975 0.92407 0.0
H1379 H 0.52814 0.37321 0.83982 0.0
H1380 H 0.52844 0.38629 0.87458 0.0
H1381 H 0.52723 0.40952 0.84581 0.0
H1382 H 0.54589 0.4475 0.87315 0.0
H1383 H 0.52926 0.47353 0.9129 0.0
H1384 H 0.71207 0.35469 0.22219 0.0
H1385 H 0.6761 0.38471 0.20439 0.0
H1386 H 0.61393 0.33271 0.2405 0.0
H1387 H 0.64988 0.30205 0.25792 0.0
H1388 H 0.60431 0.34151 0.18774 0.0
H1389 H 0.62463 0.44124 0.23608 0.0
H1390 H 0.65585 0.42788 0.22136 0.0
H1391 H 0.63918 0.40962 0.24914 0.0
C1392 C 0.69079 0.34982 0.22678 0.0
C1393 C 0.68385 0.32586 0.24129 0.0
C1394 C 0.67022 0.36721 0.21685 0.0
C1395 C 0.64234 0.36123 0.22158 0.0
C1396 C 0.63534 0.33782 0.23686 0.0
H1397 H 0.53519 0.47659 0.1314 0.0
H1398 H 0.5504 0.44865 0.17051 0.0
C1399 C 0.65592 0.32029 0.24668 0.0
C1400 C 0.62087 0.37742 0.20731 0.0
H1401 H 0.60407 0.44316 0.19 0.0
C1402 C 0.6037 0.36371 0.1888 0.0
C1403 C 0.61954 0.40632 0.2091 0.0
C1404 C 0.6356 0.42204 0.23026 0.0
C1405 C 0.58727 0.3783 0.17016 0.0
C1406 C 0.58858 0.40721 0.16974 0.0
C1407 C 0.60356 0.42093 0.19002 0.0
C1408 C 0.57787 0.4232 0.14626 0.0
C1409 C 0.56967 0.3626 0.15024 0.0
C1410 C 0.58861 0.41829 0.11986 0.0
C1411 C 0.58015 0.43416 0.09757 0.0
C1412 C 0.56088 0.45548 0.10125 0.0
C1413 C 0.55009 0.46036 0.1278 0.0
C1414 C 0.55866 0.44441 0.15018 0.0
H1415 H 0.56329 0.34258 0.15913 0.0
H1416 H 0.55094 0.37444 0.14449 0.0
H1417 H 0.58178 0.35835 0.13125 0.0
H1418 H 0.604 0.40244 0.11656 0.0
H1419 H 0.58899 0.4298 0.07751 0.0
H1420 H 0.70086 0.67643 0.22241 0.0
H1421 H 0.66862 0.65021 0.19434 0.0
H1422 H 0.66571 0.71625 0.13509 0.0
H1423 H 0.69867 0.74202 0.16238 0.0
H1424 H 0.61677 0.65916 0.17619 0.0
H1425 H 0.68881 0.65328 0.08713 0.0
H1426 H 0.69923 0.66581 0.12032 0.0
H1427 H 0.68038 0.68769 0.0971 0.0
C1428 C 0.69329 0.68534 0.20342 0.0
C1429 C 0.70264 0.71104 0.19434 0.0
C1430 C 0.67484 0.6704 0.18745 0.0
C1431 C 0.66526 0.68104 0.16232 0.0
C1432 C 0.67348 0.7073 0.15397 0.0
H1433 H 0.53612 0.59336 0.07073 0.0
H1434 H 0.56001 0.62975 0.09564 0.0
C1435 C 0.69225 0.72202 0.16965 0.0
C1436 C 0.64747 0.66423 0.14442 0.0
H1437 H 0.64453 0.63491 0.08081 0.0
C1438 C 0.62275 0.65388 0.1553 0.0
C1439 C 0.65546 0.65727 0.11722 0.0
C1440 C 0.68253 0.66635 0.1048 0.0
C1441 C 0.60607 0.63626 0.13992 0.0
C1442 C 0.61404 0.62942 0.1127 0.0
C1443 C 0.63836 0.64039 0.1016 0.0
C1444 C 0.59932 0.60855 0.0964 0.0
C1445 C 0.58079 0.62418 0.15341 0.0
C1446 C 0.61374 0.58514 0.08764 0.0
C1447 C 0.60038 0.56469 0.07305 0.0
C1448 C 0.57217 0.56704 0.067 0.0
C1449 C 0.55782 0.59084 0.0752 0.0
C1450 C 0.57137 0.61154 0.08964 0.0
H1451 H 0.58094 0.62678 0.17614 0.0
H1452 H 0.56216 0.63467 0.14533 0.0
H1453 H 0.57911 0.60199 0.14874 0.0
H1454 H 0.63533 0.58242 0.09256 0.0
H1455 H 0.61216 0.54671 0.0671 0.0
H1456 H 0.32704 0.72126 0.18067 0.0
H1457 H 0.36586 0.69257 0.16694 0.0
H1458 H 0.37962 0.67002 0.25173 0.0
H1459 H 0.3403 0.69871 0.26585 0.0
H1460 H 0.4229 0.69275 0.18404 0.0
H1461 H 0.36758 0.5962 0.21089 0.0
H1462 H 0.3495 0.62849 0.20785 0.0
H1463 H 0.37128 0.6221 0.2369 0.0
C1464 C 0.33831 0.71037 0.19652 0.0
C1465 C 0.33034 0.71206 0.22435 0.0
C1466 C 0.36063 0.69408 0.18862 0.0
C1467 C 0.37543 0.67906 0.2083 0.0
C1468 C 0.36823 0.6813 0.23623 0.0
H1469 H 0.47592 0.54702 0.13494 0.0
H1470 H 0.46215 0.57825 0.17222 0.0
C1471 C 0.34582 0.69772 0.24423 0.0
C1472 C 0.39714 0.65993 0.19868 0.0
H1473 H 0.40649 0.59252 0.18253 0.0
C1474 C 0.41979 0.67075 0.18433 0.0
C1475 C 0.39314 0.63124 0.19935 0.0
C1476 C 0.36906 0.61863 0.21446 0.0
C1477 C 0.43727 0.6538 0.16874 0.0
C1478 C 0.43163 0.62547 0.16722 0.0
C1479 C 0.41064 0.61431 0.18369 0.0
C1480 C 0.44347 0.60822 0.1451 0.0
C1481 C 0.4607 0.66654 0.1528 0.0
C1482 C 0.43749 0.6148 0.11764 0.0
C1483 C 0.44496 0.59701 0.09648 0.0
C1484 C 0.45861 0.5722 0.10233 0.0
C1485 C 0.46548 0.56603 0.12979 0.0
C1486 C 0.45768 0.58381 0.15109 0.0
H1487 H 0.46827 0.68526 0.16322 0.0
H1488 H 0.47813 0.65189 0.15023 0.0
H1489 H 0.45333 0.67264 0.13206 0.0
H1490 H 0.42599 0.63324 0.11263 0.0
H1491 H 0.43953 0.60248 0.07556 0.0
H1492 H 0.34777 0.26808 0.1846 0.0
H1493 H 0.38051 0.29819 0.16136 0.0
H1494 H 0.362 0.36213 0.21996 0.0
H1495 H 0.3299 0.33155 0.24397 0.0
H1496 H 0.36324 0.34279 0.13632 0.0
H1497 H 0.4439 0.37185 0.21064 0.0
H1498 H 0.42128 0.3431 0.21637 0.0
H1499 H 0.4098 0.37741 0.22402 0.0
C1500 C 0.35128 0.2883 0.19298 0.0
C1501 C 0.33621 0.29762 0.21593 0.0
C1502 C 0.37 0.30547 0.17971 0.0
C1503 C 0.37377 0.33241 0.18891 0.0
C1504 C 0.35989 0.34126 0.21281 0.0
H1505 H 0.40376 0.47195 0.08626 0.0
H1506 H 0.38578 0.43572 0.11588 0.0
C1507 C 0.34145 0.32384 0.22645 0.0
C1508 C 0.38883 0.35214 0.17118 0.0
H1509 H 0.43895 0.40095 0.17077 0.0
C1510 C 0.38004 0.35522 0.14382 0.0
C1511 C 0.41087 0.36824 0.18084 0.0
C1512 C 0.42221 0.36481 0.2095 0.0
C1513 C 0.39213 0.37442 0.12611 0.0
C1514 C 0.4131 0.39156 0.1362 0.0
C1515 C 0.4226 0.38796 0.16324 0.0
C1516 C 0.42458 0.41393 0.11913 0.0
C1517 C 0.38227 0.37622 0.09672 0.0
C1518 C 0.45254 0.41399 0.11171 0.0
C1519 C 0.46298 0.43477 0.09479 0.0
C1520 C 0.44561 0.45591 0.08517 0.0
C1521 C 0.41769 0.45591 0.09307 0.0
C1522 C 0.40733 0.43519 0.10996 0.0
H1523 H 0.37221 0.35693 0.09016 0.0
H1524 H 0.36688 0.39304 0.09497 0.0
H1525 H 0.39957 0.38066 0.08234 0.0
H1526 H 0.46618 0.39778 0.11872 0.0
H1527 H 0.48465 0.43427 0.08931 0.0
H1528 H 0.77609 0.62405 0.72898 0.0
H1529 H 0.80516 0.5886 0.70801 0.0
H1530 H 0.81621 0.63952 0.63609 0.0
H1531 H 0.78707 0.67494 0.65661 0.0
H1532 H 0.81093 0.58121 0.62533 0.0
H1533 H 0.88891 0.60581 0.70547 0.0
H1534 H 0.85514 0.59533 0.71658 0.0
H1535 H 0.85944 0.62769 0.69948 0.0
C1536 C 0.78417 0.62748 0.70842 0.0
C1537 C 0.77967 0.65258 0.69466 0.0
C1538 C 0.80084 0.60721 0.69655 0.0
C1539 C 0.81319 0.61174 0.6708 0.0
C1540 C 0.80691 0.63574 0.65608 0.0
H1541 H 0.93598 0.59497 0.55991 0.0
H1542 H 0.89597 0.6008 0.58953 0.0
C1543 C 0.79029 0.65601 0.66788 0.0
C1544 C 0.83509 0.59339 0.66021 0.0
H1545 H 0.904 0.581 0.66711 0.0
C1546 C 0.8311 0.58047 0.63481 0.0
C1547 C 0.86133 0.59234 0.67278 0.0
C1548 C 0.86671 0.60607 0.70003 0.0
C1549 C 0.85322 0.56831 0.62065 0.0
C1550 C 0.87989 0.56956 0.63204 0.0
C1551 C 0.88344 0.5802 0.65852 0.0
C1552 C 0.90455 0.56516 0.61472 0.0
C1553 C 0.84827 0.55573 0.5928 0.0
C1554 C 0.92318 0.54369 0.61983 0.0
C1555 C 0.94637 0.54023 0.60282 0.0
C1556 C 0.95124 0.55839 0.58072 0.0
C1557 C 0.93289 0.58042 0.57652 0.0
C1558 C 0.90984 0.58372 0.59333 0.0
H1559 H 0.8266 0.54888 0.59071 0.0
H1560 H 0.85234 0.57127 0.57655 0.0
H1561 H 0.86227 0.53798 0.58921 0.0
H1562 H 0.91951 0.52941 0.63656 0.0
H1563 H 0.96002 0.52298 0.60656 0.0
H1564 H 0.33721 0.74459 0.66402 0.0
H1565 H 0.36515 0.76011 0.62458 0.0
H1566 H 0.3369 0.84303 0.63792 0.0
H1567 H 0.30901 0.82797 0.67662 0.0
H1568 H 0.33712 0.82599 0.58146 0.0
H1569 H 0.43652 0.80538 0.63522 0.0
H1570 H 0.41217 0.77799 0.6314 0.0
H1571 H 0.40427 0.80608 0.6539 0.0
C1572 C 0.33687 0.76609 0.65839 0.0
C1573 C 0.32109 0.78507 0.67365 0.0
C1574 C 0.35284 0.77488 0.63592 0.0
C1575 C 0.35313 0.80271 0.62851 0.0
C1576 C 0.33685 0.82144 0.64326 0.0
H1577 H 0.41866 0.94196 0.56997 0.0
H1578 H 0.39112 0.9022 0.58263 0.0
C1579 C 0.32103 0.81277 0.66555 0.0
C1580 C 0.37139 0.81347 0.60663 0.0
H1581 H 0.43732 0.83568 0.59783 0.0
C1582 C 0.35919 0.82744 0.58447 0.0
C1583 C 0.40017 0.81511 0.61054 0.0
C1584 C 0.41424 0.80046 0.63404 0.0
C1585 C 0.37462 0.8451 0.56771 0.0
C1586 C 0.40279 0.84893 0.57348 0.0
C1587 C 0.4156 0.83276 0.59368 0.0
C1588 C 0.41796 0.87274 0.56253 0.0
C1589 C 0.36033 0.86085 0.5451 0.0
C1590 C 0.44224 0.86927 0.54715 0.0
C1591 C 0.45807 0.89203 0.53983 0.0
C1592 C 0.4501 0.91852 0.54831 0.0
C1593 C 0.42546 0.92187 0.56326 0.0
C1594 C 0.40954 0.89919 0.57026 0.0
H1595 H 0.34209 0.84959 0.53746 0.0
H1596 H 0.35305 0.88084 0.55332 0.0
H1597 H 0.37455 0.86487 0.52756 0.0
H1598 H 0.44919 0.84894 0.54133 0.0
H1599 H 0.47701 0.88875 0.52837 0.0
H1600 H 0.22331 0.37061 0.74574 0.0
H1601 H 0.1936 0.40541 0.7247 0.0
H1602 H 0.19414 0.36003 0.64866 0.0
H1603 H 0.22396 0.32524 0.66931 0.0
H1604 H 0.19781 0.41919 0.64279 0.0
H1605 H 0.11162 0.38511 0.71105 0.0
H1606 H 0.14317 0.39544 0.72711 0.0
H1607 H 0.14259 0.36491 0.70662 0.0
C1608 C 0.21753 0.36824 0.72438 0.0
C1609 C 0.22573 0.3449 0.70931 0.0
C1610 C 0.20047 0.38812 0.71246 0.0
C1611 C 0.19136 0.38499 0.68534 0.0
C1612 C 0.20091 0.36271 0.6697 0.0
H1613 H 0.07277 0.41164 0.57057 0.0
H1614 H 0.10738 0.39932 0.6046 0.0
C1615 C 0.21793 0.34282 0.68156 0.0
C1616 C 0.17009 0.40339 0.67368 0.0
H1617 H 0.10065 0.41511 0.67493 0.0
C1618 C 0.17669 0.4189 0.65021 0.0
C1619 C 0.14255 0.40286 0.68345 0.0
C1620 C 0.13433 0.38612 0.70835 0.0
C1621 C 0.15615 0.43271 0.63535 0.0
C1622 C 0.12846 0.43072 0.64414 0.0
C1623 C 0.12203 0.41668 0.66852 0.0
C1624 C 0.10584 0.43835 0.6255 0.0
C1625 C 0.16377 0.44788 0.60931 0.0
C1626 C 0.09311 0.46421 0.6266 0.0
C1627 C 0.0731 0.47137 0.60711 0.0
C1628 C 0.06585 0.45275 0.58632 0.0
C1629 C 0.07804 0.42653 0.58615 0.0
C1630 C 0.09779 0.41943 0.60557 0.0
H1631 H 0.18635 0.45112 0.60753 0.0
H1632 H 0.15691 0.43589 0.59123 0.0
H1633 H 0.15311 0.46808 0.60861 0.0
H1634 H 0.09918 0.479 0.64196 0.0
H1635 H 0.0642 0.49178 0.60762 0.0
H1636 H 0.72736 0.19036 0.66599 0.0
H1637 H 0.70243 0.15423 0.64215 0.0
H1638 H 0.62746 0.20205 0.64811 0.0
H1639 H 0.65204 0.23714 0.67398 0.0
H1640 H 0.61602 0.15406 0.66121 0.0
H1641 H 0.67839 0.14509 0.56616 0.0
H1642 H 0.69934 0.13909 0.59581 0.0
H1643 H 0.68362 0.1723 0.59053 0.0
C1644 C 0.70564 0.19328 0.66177 0.0
C1645 C 0.69159 0.21654 0.6716 0.0
C1646 C 0.69141 0.1727 0.64795 0.0
C1647 C 0.66308 0.17551 0.64269 0.0
C1648 C 0.64928 0.19928 0.65184 0.0
H1649 H 0.57173 0.07187 0.53198 0.0
H1650 H 0.60121 0.10588 0.55326 0.0
C1651 C 0.66332 0.21941 0.66648 0.0
C1652 C 0.64735 0.15295 0.62956 0.0
H1653 H 0.64765 0.10804 0.57574 0.0
C1654 C 0.62284 0.14425 0.64232 0.0
C1655 C 0.65596 0.14016 0.60477 0.0
C1656 C 0.6806 0.14987 0.5884 0.0
C1657 C 0.60666 0.12343 0.63103 0.0
C1658 C 0.61605 0.1096 0.60709 0.0
C1659 C 0.64061 0.11822 0.59434 0.0
C1660 C 0.59985 0.08742 0.59392 0.0
C1661 C 0.57916 0.11742 0.6444 0.0
C1662 C 0.58987 0.06504 0.60931 0.0
C1663 C 0.57217 0.04602 0.59729 0.0
C1664 C 0.56514 0.04837 0.56938 0.0
C1665 C 0.57679 0.06954 0.55354 0.0
C1666 C 0.5937 0.08901 0.56573 0.0
H1667 H 0.57143 0.13522 0.65647 0.0
H1668 H 0.5634 0.11215 0.62885 0.0
H1669 H 0.5815 0.09993 0.65888 0.0
H1670 H 0.59522 0.06261 0.63079 0.0
H1671 H 0.56375 0.02967 0.60987 0.0
H1672 H 0.80345 0.36444 0.29302 0.0
H1673 H 0.82902 0.39901 0.31874 0.0
H1674 H 0.83803 0.34239 0.38653 0.0
H1675 H 0.8123 0.30798 0.36138 0.0
H1676 H 0.82536 0.39705 0.40272 0.0
H1677 H 0.91305 0.39056 0.32823 0.0
H1678 H 0.87981 0.39911 0.31441 0.0
H1679 H 0.88572 0.36567 0.32881 0.0
C1680 C 0.81068 0.35943 0.3135 0.0
C1681 C 0.80612 0.33332 0.32501 0.0
C1682 C 0.82528 0.37919 0.32812 0.0
C1683 C 0.83563 0.37307 0.35435 0.0
C1684 C 0.83018 0.34747 0.36629 0.0
H1685 H 0.96965 0.40918 0.45326 0.0
H1686 H 0.93185 0.3922 0.4254 0.0
C1687 C 0.81559 0.32777 0.35179 0.0
C1688 C 0.85386 0.39227 0.36887 0.0
H1689 H 0.91957 0.41663 0.36803 0.0
C1690 C 0.84577 0.40185 0.39496 0.0
C1691 C 0.88052 0.39821 0.35866 0.0
C1692 C 0.89051 0.38777 0.33109 0.0
C1693 C 0.86415 0.41629 0.41163 0.0
C1694 C 0.89109 0.42121 0.40182 0.0
C1695 C 0.89876 0.4128 0.37528 0.0
C1696 C 0.91269 0.43195 0.4199 0.0
C1697 C 0.85536 0.42486 0.4402 0.0
C1698 C 0.91412 0.45992 0.42611 0.0
C1699 C 0.93579 0.4698 0.44203 0.0
C1700 C 0.95631 0.45176 0.45185 0.0
C1701 C 0.95433 0.42366 0.44595 0.0
C1702 C 0.93275 0.41389 0.43005 0.0
H1703 H 0.83383 0.41882 0.44503 0.0
H1704 H 0.86928 0.41545 0.45568 0.0
H1705 H 0.85705 0.44745 0.44217 0.0
H1706 H 0.89879 0.47411 0.41825 0.0
H1707 H 0.93672 0.49157 0.4462 0.0
H1708 H 0.70218 0.75468 0.34581 0.0
H1709 H 0.66842 0.77109 0.38024 0.0
H1710 H 0.64503 0.83695 0.32554 0.0
H1711 H 0.67866 0.8211 0.29163 0.0
H1712 H 0.67172 0.82734 0.40189 0.0
H1713 H 0.57051 0.8057 0.35508 0.0
H1714 H 0.60144 0.78665 0.34641 0.0
H1715 H 0.59495 0.81961 0.33096 0.0
C1716 C 0.68932 0.77225 0.341 0.0
C1717 C 0.69304 0.78673 0.31618 0.0
C1718 C 0.67016 0.7816 0.36062 0.0
C1719 C 0.65409 0.80503 0.35523 0.0
C1720 C 0.65692 0.81859 0.3299 0.0
H1721 H 0.59434 0.94773 0.4235 0.0
H1722 H 0.61987 0.90843 0.40542 0.0
C1723 C 0.67627 0.80961 0.31063 0.0
C1724 C 0.63666 0.81776 0.37678 0.0
H1725 H 0.57219 0.84443 0.38609 0.0
C1726 C 0.64978 0.83045 0.39898 0.0
C1727 C 0.60806 0.82162 0.37302 0.0
C1728 C 0.59283 0.80745 0.35021 0.0
C1729 C 0.63546 0.84885 0.41607 0.0
C1730 C 0.60747 0.85471 0.41062 0.0
C1731 C 0.59377 0.84014 0.39001 0.0
C1732 C 0.59302 0.87808 0.42371 0.0
C1733 C 0.65067 0.86287 0.43901 0.0
C1734 C 0.56932 0.87398 0.43979 0.0
C1735 C 0.55463 0.89645 0.45022 0.0
C1736 C 0.56315 0.92341 0.44432 0.0
C1737 C 0.5871 0.92732 0.42839 0.0
C1738 C 0.60188 0.90487 0.41822 0.0
H1739 H 0.66887 0.85066 0.44565 0.0
H1740 H 0.65809 0.88307 0.43159 0.0
H1741 H 0.63696 0.86636 0.45707 0.0
H1742 H 0.56206 0.85343 0.44402 0.0
H1743 H 0.53625 0.89265 0.46237 0.0
H1744 H 0.24072 0.70472 0.35265 0.0
H1745 H 0.21928 0.67344 0.38612 0.0
H1746 H 0.16817 0.64065 0.32189 0.0
H1747 H 0.18875 0.67225 0.28881 0.0
H1748 H 0.13867 0.66112 0.36434 0.0
H1749 H 0.22033 0.59122 0.40358 0.0
H1750 H 0.22853 0.62707 0.40486 0.0
H1751 H 0.22417 0.61071 0.3721 0.0
C1752 C 0.22539 0.69034 0.34563 0.0
C1753 C 0.21609 0.6911 0.31828 0.0
C1754 C 0.21328 0.67239 0.36471 0.0
C1755 C 0.19219 0.65467 0.35645 0.0
C1756 C 0.18436 0.65419 0.3287 0.0
H1757 H 0.09166 0.53437 0.43948 0.0
H1758 H 0.12879 0.55721 0.41395 0.0
C1759 C 0.19607 0.67231 0.30985 0.0
C1760 C 0.17537 0.63957 0.37694 0.0
H1761 H 0.17697 0.59004 0.42686 0.0
C1762 C 0.14708 0.64554 0.37795 0.0
C1763 C 0.18639 0.61923 0.39461 0.0
C1764 C 0.21648 0.61143 0.39367 0.0
C1765 C 0.1294 0.63163 0.39592 0.0
C1766 C 0.14042 0.6117 0.41404 0.0
C1767 C 0.16872 0.60559 0.41313 0.0
C1768 C 0.12227 0.59663 0.4333 0.0
C1769 C 0.09892 0.63797 0.39484 0.0
C1770 C 0.10724 0.61099 0.45341 0.0
C1771 C 0.08581 0.5982 0.46761 0.0
C1772 C 0.0794 0.57069 0.46226 0.0
C1773 C 0.09607 0.55565 0.44388 0.0
C1774 C 0.11732 0.56862 0.42937 0.0
H1775 H 0.09317 0.64871 0.37547 0.0
H1776 H 0.08658 0.61894 0.39656 0.0
H1777 H 0.09326 0.65151 0.41233 0.0
H1778 H 0.11112 0.63252 0.45703 0.0
H1779 H 0.07365 0.6101 0.48209 0.0
H1780 H 0.32779 0.23725 0.34304 0.0
H1781 H 0.35769 0.21369 0.37634 0.0
H1782 H 0.3247 0.13586 0.35119 0.0
H1783 H 0.29455 0.15894 0.31881 0.0
H1784 H 0.33088 0.13823 0.40651 0.0
H1785 H 0.42657 0.17212 0.35294 0.0
H1786 H 0.40432 0.19895 0.36541 0.0
H1787 H 0.39289 0.17698 0.33818 0.0
C1788 C 0.32675 0.21515 0.34484 0.0
C1789 C 0.30895 0.20002 0.32799 0.0
C1790 C 0.34395 0.20171 0.36376 0.0
C1791 C 0.34377 0.17296 0.36591 0.0
C1792 C 0.32527 0.15803 0.34988 0.0
H1793 H 0.46522 0.0532 0.40235 0.0
H1794 H 0.43205 0.08617 0.38394 0.0
C1795 C 0.30807 0.17135 0.33122 0.0
C1796 C 0.36349 0.15776 0.38366 0.0
H1797 H 0.43164 0.14127 0.38965 0.0
C1798 C 0.35296 0.13911 0.40311 0.0
C1799 C 0.39227 0.15879 0.37898 0.0
C1800 C 0.40479 0.1776 0.35763 0.0
C1801 C 0.37026 0.12063 0.41712 0.0
C1802 C 0.39898 0.1213 0.41201 0.0
C1803 C 0.40961 0.14078 0.39349 0.0
C1804 C 0.41819 0.10064 0.42382 0.0
C1805 C 0.35746 0.09962 0.43608 0.0
C1806 C 0.42127 0.09759 0.45241 0.0
C1807 C 0.44001 0.0784 0.46304 0.0
C1808 C 0.45632 0.06229 0.44522 0.0
C1809 C 0.45303 0.06532 0.41663 0.0
C1810 C 0.43413 0.08423 0.40608 0.0
H1811 H 0.33492 0.09779 0.43279 0.0
H1812 H 0.36712 0.07916 0.43306 0.0
H1813 H 0.36074 0.10584 0.45777 0.0
H1814 H 0.40963 0.11039 0.46651 0.0
H1815 H 0.44231 0.07682 0.48517 0.0
H1816 H 0.72557 0.78401 0.644 0.0
H1817 H 0.70186 0.81495 0.61198 0.0
H1818 H 0.62758 0.80875 0.66065 0.0
H1819 H 0.65096 0.77795 0.69278 0.0
H1820 H 0.62208 0.80737 0.59864 0.0
H1821 H 0.68145 0.8949 0.64125 0.0
H1822 H 0.70021 0.86499 0.62995 0.0
H1823 H 0.67809 0.86282 0.65957 0.0
C1824 C 0.70403 0.78877 0.6476 0.0
C1825 C 0.69022 0.77874 0.67111 0.0
C1826 C 0.69059 0.80652 0.62934 0.0
C1827 C 0.66314 0.81428 0.63421 0.0
C1828 C 0.64882 0.80299 0.65665 0.0
H1829 H 0.55299 0.94452 0.60383 0.0
H1830 H 0.58565 0.91015 0.62069 0.0
C1831 C 0.66225 0.78545 0.675 0.0
C1832 C 0.64979 0.83586 0.6175 0.0
H1833 H 0.64633 0.90538 0.60984 0.0
C1834 C 0.62762 0.82877 0.60063 0.0
C1835 C 0.65704 0.86372 0.62048 0.0
C1836 C 0.68039 0.8723 0.63886 0.0
C1837 C 0.61197 0.849 0.58718 0.0
C1838 C 0.61874 0.87689 0.59081 0.0
C1839 C 0.64139 0.88392 0.60704 0.0
C1840 C 0.60084 0.89908 0.58024 0.0
C1841 C 0.5875 0.84059 0.57023 0.0
C1842 C 0.59916 0.9046 0.55195 0.0
C1843 C 0.58061 0.92436 0.54221 0.0
C1844 C 0.56335 0.93874 0.56067 0.0
C1845 C 0.56584 0.93372 0.58907 0.0
C1846 C 0.58451 0.91414 0.59876 0.0
H1847 H 0.58328 0.81829 0.57191 0.0
H1848 H 0.56883 0.85214 0.57687 0.0
H1849 H 0.59142 0.84563 0.54826 0.0
H1850 H 0.61181 0.89328 0.53741 0.0
H1851 H 0.57916 0.92769 0.52019 0.0
H1852 H 0.66461 0.21974 0.33098 0.0
H1853 H 0.63939 0.19888 0.36881 0.0
H1854 H 0.70857 0.21126 0.42266 0.0
H1855 H 0.73448 0.23168 0.38443 0.0
H1856 H 0.69247 0.16014 0.4247 0.0
H1857 H 0.59984 0.22421 0.4364 0.0
H1858 H 0.60404 0.21636 0.40063 0.0
H1859 H 0.62998 0.23612 0.41802 0.0
C1860 C 0.67438 0.21853 0.35095 0.0
C1861 C 0.70165 0.22719 0.3546 0.0
C1862 C 0.65975 0.20689 0.37272 0.0
C1863 C 0.67186 0.20403 0.39876 0.0
C1864 C 0.69874 0.21356 0.40281 0.0
H1865 H 0.55585 0.10479 0.49483 0.0
H1866 H 0.58839 0.14221 0.48772 0.0
C1867 C 0.71352 0.22513 0.38091 0.0
C1868 C 0.65768 0.18749 0.42006 0.0
H1869 H 0.59295 0.17439 0.44391 0.0
C1870 C 0.67092 0.16369 0.42967 0.0
C1871 C 0.62984 0.19241 0.42737 0.0
C1872 C 0.61529 0.21888 0.42028 0.0
C1873 C 0.65616 0.14323 0.44351 0.0
C1874 C 0.6274 0.14642 0.44706 0.0
C1875 C 0.61489 0.17159 0.44048 0.0
C1876 C 0.60948 0.12284 0.45349 0.0
C1877 C 0.6713 0.11782 0.45296 0.0
C1878 C 0.61039 0.0997 0.43643 0.0
C1879 C 0.592 0.07825 0.44046 0.0
C1880 C 0.57195 0.07966 0.46142 0.0
C1881 C 0.57105 0.10294 0.47852 0.0
C1882 C 0.58967 0.12434 0.47457 0.0
H1883 H 0.6927 0.12281 0.45908 0.0
H1884 H 0.66068 0.10784 0.47062 0.0
H1885 H 0.67261 0.10302 0.43568 0.0
H1886 H 0.62489 0.09851 0.41942 0.0
H1887 H 0.59326 0.06079 0.42677 0.0
H1888 H 0.77841 0.67068 0.32086 0.0
H1889 H 0.80336 0.63461 0.34622 0.0
H1890 H 0.87867 0.65703 0.3046 0.0
H1891 H 0.85422 0.69271 0.27935 0.0
H1892 H 0.86976 0.5979 0.31158 0.0
H1893 H 0.85832 0.65946 0.40757 0.0
H1894 H 0.82745 0.65122 0.3891 0.0
H1895 H 0.85219 0.67399 0.37392 0.0
C1896 C 0.80018 0.66761 0.31687 0.0
C1897 C 0.81442 0.68483 0.29846 0.0
C1898 C 0.81439 0.64706 0.33135 0.0
C1899 C 0.84288 0.64339 0.32739 0.0
C1900 C 0.85671 0.65955 0.30793 0.0
H1901 H 0.9877 0.56979 0.39702 0.0
H1902 H 0.95215 0.58645 0.36508 0.0
C1903 C 0.84268 0.68009 0.29369 0.0
C1904 C 0.85919 0.6248 0.34515 0.0
H1905 H 0.88639 0.6205 0.40955 0.0
C1906 C 0.87313 0.60249 0.33314 0.0
C1907 C 0.86365 0.63105 0.37314 0.0
C1908 C 0.84981 0.6553 0.38682 0.0
C1909 C 0.89173 0.5864 0.34842 0.0
C1910 C 0.89696 0.5933 0.37617 0.0
C1911 C 0.88238 0.61517 0.38828 0.0
C1912 C 0.91803 0.57904 0.39311 0.0
C1913 C 0.90556 0.56223 0.3347 0.0
C1914 C 0.91073 0.5692 0.41931 0.0
C1915 C 0.93096 0.56043 0.4376 0.0
C1916 C 0.95888 0.56094 0.42996 0.0
C1917 C 0.96624 0.56906 0.40319 0.0
C1918 C 0.94592 0.57839 0.38494 0.0
H1919 H 0.8931 0.55446 0.3173 0.0
H1920 H 0.9258 0.56872 0.32626 0.0
H1921 H 0.90907 0.54522 0.34955 0.0
H1922 H 0.88941 0.56945 0.42608 0.0
H1923 H 0.92485 0.55402 0.45814 0.0
H1924 H 0.28391 0.86246 0.30395 0.0
H1925 H 0.31439 0.89005 0.3322 0.0
H1926 H 0.34832 0.81659 0.36855 0.0
H1927 H 0.31821 0.78863 0.33991 0.0
H1928 H 0.32128 0.89448 0.38855 0.0
H1929 H 0.41624 0.85506 0.33747 0.0
H1930 H 0.38229 0.84901 0.32398 0.0
H1931 H 0.39482 0.82906 0.35252 0.0
C1932 C 0.29773 0.85208 0.31802 0.0
C1933 C 0.29881 0.82326 0.31941 0.0
C1934 C 0.31511 0.86793 0.33421 0.0
C1935 C 0.33392 0.85536 0.35211 0.0
C1936 C 0.33433 0.82667 0.35442 0.0
H1937 H 0.43312 0.9406 0.47384 0.0
H1938 H 0.39776 0.91358 0.45108 0.0
C1939 C 0.31701 0.81074 0.33813 0.0
C1940 C 0.35367 0.87241 0.36755 0.0
H1941 H 0.42224 0.88536 0.37474 0.0
C1942 C 0.34337 0.89248 0.38561 0.0
C1943 C 0.38244 0.87001 0.36332 0.0
C1944 C 0.39468 0.84981 0.3431 0.0
C1945 C 0.36111 0.91021 0.39963 0.0
C1946 C 0.3899 0.90745 0.39577 0.0
C1947 C 0.40016 0.88736 0.37773 0.0
C1948 C 0.4099 0.92542 0.40977 0.0
C1949 C 0.34885 0.93217 0.41785 0.0
C1950 C 0.42859 0.94092 0.39411 0.0
C1951 C 0.44901 0.95618 0.40702 0.0
C1952 C 0.45116 0.95623 0.43589 0.0
C1953 C 0.43192 0.94124 0.45157 0.0
C1954 C 0.4116 0.92583 0.43861 0.0
H1955 H 0.32688 0.93622 0.4129 0.0
H1956 H 0.34991 0.92536 0.43965 0.0
H1957 H 0.36044 0.95164 0.41583 0.0
H1958 H 0.42765 0.94085 0.37182 0.0
H1959 H 0.46342 0.96754 0.39433 0.0
H1960 H 0.18755 0.33422 0.26506 0.0
H1961 H 0.163 0.37147 0.288 0.0
H1962 H 0.21298 0.35959 0.36032 0.0
H1963 H 0.23844 0.32271 0.33689 0.0
H1964 H 0.13203 0.36382 0.33179 0.0
H1965 H 0.21008 0.442 0.35653 0.0
H1966 H 0.21666 0.41471 0.33227 0.0
H1967 H 0.21966 0.40855 0.36872 0.0
C1968 C 0.19369 0.33988 0.28569 0.0
C1969 C 0.21474 0.32544 0.29933 0.0
C1970 C 0.17967 0.36123 0.29873 0.0
C1971 C 0.18619 0.36849 0.32582 0.0
C1972 C 0.20798 0.35481 0.33918 0.0
H1973 H 0.10504 0.43821 0.46184 0.0
H1974 H 0.13691 0.42008 0.42752 0.0
C1975 C 0.2224 0.33362 0.32589 0.0
C1976 C 0.16793 0.38781 0.34097 0.0
H1977 H 0.16731 0.44459 0.38193 0.0
C1978 C 0.13968 0.38179 0.3423 0.0
C1979 C 0.17791 0.41126 0.35467 0.0
C1980 C 0.2077 0.41969 0.35277 0.0
C1981 C 0.12138 0.39778 0.35795 0.0
C1982 C 0.13153 0.42057 0.37251 0.0
C1983 C 0.1596 0.42717 0.37056 0.0
C1984 C 0.11398 0.43535 0.39261 0.0
C1985 C 0.09156 0.38931 0.35999 0.0
C1986 C 0.09086 0.45069 0.3843 0.0
C1987 C 0.07237 0.46113 0.40399 0.0
C1988 C 0.07674 0.45613 0.43217 0.0
C1989 C 0.10075 0.44201 0.44028 0.0
C1990 C 0.11917 0.43181 0.42072 0.0
H1991 H 0.08788 0.36899 0.35046 0.0
H1992 H 0.08482 0.38846 0.38187 0.0
H1993 H 0.07851 0.4047 0.34929 0.0
H1994 H 0.08669 0.45381 0.36262 0.0
H1995 H 0.05418 0.47208 0.39713 0.0
H1996 H 0.30377 0.22678 0.6551 0.0
H1997 H 0.33383 0.20011 0.62474 0.0
H1998 H 0.4024 0.21467 0.67871 0.0
H1999 H 0.37223 0.24061 0.70977 0.0
H2000 H 0.38248 0.20585 0.59599 0.0
H2001 H 0.39419 0.13215 0.68272 0.0
H2002 H 0.37005 0.16033 0.68383 0.0
H2003 H 0.40603 0.16607 0.69019 0.0
C2004 C 0.32537 0.22484 0.66025 0.0
C2005 C 0.33551 0.23532 0.68515 0.0
C2006 C 0.34254 0.20958 0.64283 0.0
C2007 C 0.37014 0.20478 0.64989 0.0
C2008 C 0.38095 0.21751 0.67331 0.0
H2009 H 0.48543 0.10709 0.55023 0.0
H2010 H 0.4611 0.14557 0.57176 0.0
C2011 C 0.36372 0.23242 0.69096 0.0
C2012 C 0.38652 0.18415 0.63446 0.0
H2013 H 0.41825 0.12199 0.64183 0.0
C2014 C 0.39045 0.18755 0.60597 0.0
C2015 C 0.39639 0.16004 0.64749 0.0
C2016 C 0.39127 0.15421 0.67767 0.0
C2017 C 0.40393 0.1674 0.59013 0.0
C2018 C 0.41416 0.14354 0.60331 0.0
C2019 C 0.41047 0.14035 0.63181 0.0
C2020 C 0.42782 0.12092 0.58806 0.0
C2021 C 0.40627 0.1714 0.55938 0.0
C2022 C 0.41732 0.09426 0.59024 0.0
C2023 C 0.43137 0.0722 0.57838 0.0
C2024 C 0.45619 0.07635 0.56396 0.0
C2025 C 0.46626 0.10321 0.56105 0.0
C2026 C 0.4523 0.12528 0.5732 0.0
H2027 H 0.39133 0.18696 0.55174 0.0
H2028 H 0.42731 0.1786 0.5542 0.0
H2029 H 0.40276 0.15185 0.54832 0.0
H2030 H 0.39845 0.09044 0.60161 0.0
H2031 H 0.42291 0.05184 0.58083 0.0
H2032 H 0.78684 0.3147 0.6352 0.0
H2033 H 0.81579 0.34383 0.60658 0.0
H2034 H 0.79337 0.41389 0.656 0.0
H2035 H 0.76507 0.38455 0.68565 0.0
H2036 H 0.81166 0.38926 0.57522 0.0
H2037 H 0.87528 0.41035 0.66763 0.0
H2038 H 0.84794 0.38555 0.66801 0.0
H2039 H 0.84011 0.42157 0.67036 0.0
C2040 C 0.78758 0.33639 0.63979 0.0
C2041 C 0.77408 0.34717 0.66313 0.0
C2042 C 0.80418 0.35305 0.62332 0.0
C2043 C 0.80741 0.38087 0.62965 0.0
C2044 C 0.79185 0.39228 0.65128 0.0
H2045 H 0.93378 0.4906 0.56401 0.0
H2046 H 0.89069 0.47371 0.58378 0.0
C2047 C 0.77551 0.37552 0.66808 0.0
C2048 C 0.82903 0.39687 0.6152 0.0
H2049 H 0.89037 0.42907 0.62569 0.0
C2050 C 0.82873 0.39819 0.58627 0.0
C2051 C 0.85148 0.40831 0.62965 0.0
C2052 C 0.85397 0.40622 0.66058 0.0
C2053 C 0.85049 0.41019 0.57143 0.0
C2054 C 0.87301 0.4211 0.58592 0.0
C2055 C 0.87292 0.42069 0.61476 0.0
C2056 C 0.89775 0.43163 0.57167 0.0
C2057 C 0.84954 0.41084 0.54039 0.0
C2058 C 0.91597 0.41346 0.55842 0.0
C2059 C 0.94083 0.42294 0.54738 0.0
C2060 C 0.94777 0.45079 0.54933 0.0
C2061 C 0.92909 0.46902 0.56211 0.0
C2062 C 0.90442 0.45946 0.57338 0.0
H2063 H 0.82853 0.40664 0.53255 0.0
H2064 H 0.8564 0.43107 0.53245 0.0
H2065 H 0.86379 0.395 0.53206 0.0
H2066 H 0.91128 0.39181 0.55729 0.0
H2067 H 0.95469 0.40843 0.53756 0.0
H2068 H 0.17427 0.69648 0.70776 0.0
H2069 H 0.15222 0.6632 0.67799 0.0
H2070 H 0.23167 0.63642 0.64795 0.0
H2071 H 0.25418 0.66992 0.67779 0.0
H2072 H 0.19243 0.64839 0.60619 0.0
H2073 H 0.14945 0.57906 0.68573 0.0
H2074 H 0.14197 0.61445 0.69271 0.0
H2075 H 0.17715 0.60259 0.69266 0.0
C2076 C 0.18717 0.68344 0.695 0.0
C2077 C 0.21602 0.68587 0.69518 0.0
C2078 C 0.17451 0.66428 0.67814 0.0
C2079 C 0.19036 0.64709 0.66115 0.0
C2080 C 0.21915 0.64936 0.66117 0.0
H2081 H 0.09136 0.52765 0.57077 0.0
H2082 H 0.13058 0.54601 0.59602 0.0
C2083 C 0.23192 0.66849 0.67821 0.0
C2084 C 0.17636 0.62808 0.64228 0.0
H2085 H 0.12684 0.57887 0.64158 0.0
C2086 C 0.17851 0.63276 0.61383 0.0
C2087 C 0.15864 0.60739 0.65228 0.0
C2088 C 0.15685 0.60035 0.68252 0.0
C2089 C 0.16176 0.61868 0.59524 0.0
C2090 C 0.14219 0.59982 0.60552 0.0
C2091 C 0.14161 0.59362 0.63376 0.0
C2092 C 0.12028 0.58848 0.58795 0.0
C2093 C 0.16462 0.62469 0.56487 0.0
C2094 C 0.1015 0.60631 0.57514 0.0
C2095 C 0.07905 0.59596 0.56082 0.0
C2096 C 0.07483 0.56753 0.55918 0.0
C2097 C 0.09401 0.54967 0.5716 0.0
C2098 C 0.11645 0.56008 0.58602 0.0
H2099 H 0.18575 0.63173 0.55966 0.0
H2100 H 0.15987 0.60636 0.55229 0.0
H2101 H 0.15003 0.64134 0.55917 0.0
H2102 H 0.10371 0.62831 0.57694 0.0
H2103 H 0.06476 0.61028 0.55144 0.0
loop_
_geom_bond_atom_site_label_1
_geom_bond_atom_site_label_2
_geom_bond_distance
_geom_bond_site_symmetry_2
_ccdc_geom_bond_type
O0 Zn1 1.953 . S
O0 C16 1.225 . S
Zn1 O0 1.953 . S
Zn1 O2 1.949 . S
Zn1 O8 1.919 . S
Zn1 O13 1.924 . S
O2 Zn1 1.949 . S
O2 Zn3 1.923 . S
O2 Zn4 1.950 . S
O2 Zn5 1.945 . S
Zn3 O2 1.923 . S
Zn3 O6 1.933 . S
Zn3 O9 1.941 . S
Zn3 O10 1.965 . S
Zn4 O2 1.950 . S
Zn4 O11 1.938 . S
Zn4 O12 1.906 . S
Zn4 O22 1.953 . S
Zn5 O2 1.945 . S
Zn5 O7 1.932 . S
Zn5 O14 1.977 . S
Zn5 O15 1.910 . S
O6 Zn3 1.933 . S
O6 C17 1.226 . S
O7 Zn5 1.932 . S
O7 C17 1.307 . S
O8 Zn1 1.919 . S
O8 C19 1.253 . S
O9 Zn3 1.941 . S
O9 C19 1.283 . S
O10 Zn3 1.965 . S
O10 C18 1.303 . S
O11 Zn4 1.938 . S
O11 C18 1.247 . S
O12 Zn4 1.906 . S
O12 C20 1.304 . S
O13 Zn1 1.924 . S
O13 C21 1.311 . S
O14 Zn5 1.977 . S
O14 C20 1.272 . S
O15 Zn5 1.910 . S
O15 C21 1.231 . S
C16 O0 1.225 . S
C16 O22 1.298 . S
C17 O6 1.226 . S
C17 O7 1.307 . S
C18 O10 1.303 . S
C18 O11 1.247 . S
C19 O8 1.253 . S
C19 O9 1.283 . S
C20 O12 1.304 . S
C20 O14 1.272 . S
C21 O13 1.311 . S
C21 O15 1.231 . S
O22 Zn4 1.953 . S
O22 C16 1.298 . S
O23 Zn24 1.953 . S
O23 C39 1.225 . S
Zn24 O23 1.953 . S
Zn24 O25 1.949 . S
Zn24 O31 1.919 . S
Zn24 O36 1.924 . S
O25 Zn24 1.949 . S
O25 Zn26 1.923 . S
O25 Zn27 1.950 . S
O25 Zn28 1.945 . S
Zn26 O25 1.923 . S
Zn26 O29 1.933 . S
Zn26 O32 1.941 . S
Zn26 O33 1.965 . S
Zn27 O25 1.950 . S
Zn27 O34 1.938 . S
Zn27 O35 1.906 . S
Zn27 O45 1.953 . S
Zn28 O25 1.945 . S
Zn28 O30 1.932 . S
Zn28 O37 1.977 . S
Zn28 O38 1.910 . S
O29 Zn26 1.933 . S
O29 C40 1.226 . S
O30 Zn28 1.932 . S
O30 C40 1.307 . S
O31 Zn24 1.919 . S
O31 C42 1.253 . S
O32 Zn26 1.941 . S
O32 C42 1.283 . S
O33 Zn26 1.965 . S
O33 C41 1.303 . S
O34 Zn27 1.938 . S
O34 C41 1.247 . S
O35 Zn27 1.906 . S
O35 C43 1.304 . S
O36 Zn24 1.924 . S
O36 C44 1.311 . S
O37 Zn28 1.977 . S
O37 C43 1.272 . S
O38 Zn28 1.910 . S
O38 C44 1.231 . S
C39 O23 1.225 . S
C39 O45 1.298 . S
C40 O29 1.226 . S
C40 O30 1.307 . S
C41 O33 1.303 . S
C41 O34 1.247 . S
C42 O31 1.253 . S
C42 O32 1.283 . S
C43 O35 1.304 . S
C43 O37 1.272 . S
C44 O36 1.311 . S
C44 O38 1.231 . S
O45 Zn27 1.953 . S
O45 C39 1.298 . S
O46 Zn47 1.953 . S
O46 C62 1.225 . S
Zn47 O46 1.953 . S
Zn47 O48 1.949 . S
Zn47 O54 1.919 . S
Zn47 O59 1.924 . S
O48 Zn47 1.949 . S
O48 Zn49 1.923 . S
O48 Zn50 1.950 . S
O48 Zn51 1.945 . S
Zn49 O48 1.923 . S
Zn49 O52 1.933 . S
Zn49 O55 1.941 . S
Zn49 O56 1.965 . S
Zn50 O48 1.950 . S
Zn50 O57 1.938 . S
Zn50 O58 1.906 . S
Zn50 O68 1.953 . S
Zn51 O48 1.945 . S
Zn51 O53 1.932 . S
Zn51 O60 1.977 . S
Zn51 O61 1.910 . S
O52 Zn49 1.933 . S
O52 C63 1.226 . S
O53 Zn51 1.932 . S
O53 C63 1.307 . S
O54 Zn47 1.919 . S
O54 C65 1.253 . S
O55 Zn49 1.941 . S
O55 C65 1.283 . S
O56 Zn49 1.965 . S
O56 C64 1.303 . S
O57 Zn50 1.938 . S
O57 C64 1.247 . S
O58 Zn50 1.906 . S
O58 C66 1.304 . S
O59 Zn47 1.924 . S
O59 C67 1.311 . S
O60 Zn51 1.977 . S
O60 C66 1.272 . S
O61 Zn51 1.910 . S
O61 C67 1.231 . S
C62 O46 1.225 . S
C62 O68 1.298 . S
C63 O52 1.226 . S
C63 O53 1.307 . S
C64 O56 1.303 . S
C64 O57 1.247 . S
C65 O54 1.253 . S
C65 O55 1.283 . S
C66 O58 1.304 . S
C66 O60 1.272 . S
C67 O59 1.311 . S
C67 O61 1.231 . S
O68 Zn50 1.953 . S
O68 C62 1.298 . S
O69 Zn70 1.953 . S
O69 C85 1.225 . S
Zn70 O69 1.953 . S
Zn70 O71 1.949 . S
Zn70 O77 1.919 . S
Zn70 O82 1.924 . S
O71 Zn70 1.949 . S
O71 Zn72 1.923 . S
O71 Zn73 1.950 . S
O71 Zn74 1.945 . S
Zn72 O71 1.923 . S
Zn72 O75 1.933 . S
Zn72 O78 1.941 . S
Zn72 O79 1.965 . S
Zn73 O71 1.950 . S
Zn73 O80 1.938 . S
Zn73 O81 1.906 . S
Zn73 O91 1.953 . S
Zn74 O71 1.945 . S
Zn74 O76 1.932 . S
Zn74 O83 1.977 . S
Zn74 O84 1.910 . S
O75 Zn72 1.933 . S
O75 C86 1.226 . S
O76 Zn74 1.932 . S
O76 C86 1.307 . S
O77 Zn70 1.919 . S
O77 C88 1.253 . S
O78 Zn72 1.941 . S
O78 C88 1.283 . S
O79 Zn72 1.965 . S
O79 C87 1.303 . S
O80 Zn73 1.938 . S
O80 C87 1.247 . S
O81 Zn73 1.906 . S
O81 C89 1.304 . S
O82 Zn70 1.924 . S
O82 C90 1.311 . S
O83 Zn74 1.977 . S
O83 C89 1.272 . S
O84 Zn74 1.910 . S
O84 C90 1.231 . S
C85 O69 1.225 . S
C85 O91 1.298 . S
C86 O75 1.226 . S
C86 O76 1.307 . S
C87 O79 1.303 . S
C87 O80 1.247 . S
C88 O77 1.253 . S
C88 O78 1.283 . S
C89 O81 1.304 . S
C89 O83 1.272 . S
C90 O82 1.311 . S
C90 O84 1.231 . S
O91 Zn73 1.953 . S
O91 C85 1.298 . S
O92 Zn93 1.953 . S
O92 C108 1.225 . S
Zn93 O92 1.953 . S
Zn93 O94 1.949 . S
Zn93 O100 1.919 . S
Zn93 O105 1.924 . S
O94 Zn93 1.949 . S
O94 Zn95 1.923 . S
O94 Zn96 1.950 . S
O94 Zn97 1.945 . S
Zn95 O94 1.923 . S
Zn95 O98 1.933 . S
Zn95 O101 1.941 . S
Zn95 O102 1.965 . S
Zn96 O94 1.950 . S
Zn96 O103 1.938 . S
Zn96 O104 1.906 . S
Zn96 O114 1.953 . S
Zn97 O94 1.945 . S
Zn97 O99 1.932 . S
Zn97 O106 1.977 . S
Zn97 O107 1.910 . S
O98 Zn95 1.933 . S
O98 C109 1.226 . S
O99 Zn97 1.932 . S
O99 C109 1.307 . S
O100 Zn93 1.919 . S
O100 C111 1.253 . S
O101 Zn95 1.941 . S
O101 C111 1.283 . S
O102 Zn95 1.965 . S
O102 C110 1.303 . S
O103 Zn96 1.938 . S
O103 C110 1.247 . S
O104 Zn96 1.906 . S
O104 C112 1.304 . S
O105 Zn93 1.924 . S
O105 C113 1.311 . S
O106 Zn97 1.977 . S
O106 C112 1.272 . S
O107 Zn97 1.910 . S
O107 C113 1.231 . S
C108 O92 1.225 . S
C108 O114 1.298 . S
C109 O98 1.226 . S
C109 O99 1.307 . S
C110 O102 1.303 . S
C110 O103 1.247 . S
C111 O100 1.253 . S
C111 O101 1.283 . S
C112 O104 1.304 . S
C112 O106 1.272 . S
C113 O105 1.311 . S
C113 O107 1.231 . S
O114 Zn96 1.953 . S
O114 C108 1.298 . S
O115 Zn116 1.953 . S
O115 C131 1.225 . S
Zn116 O115 1.953 . S
Zn116 O117 1.949 . S
Zn116 O123 1.919 . S
Zn116 O128 1.924 . S
O117 Zn116 1.949 . S
O117 Zn118 1.923 . S
O117 Zn119 1.950 . S
O117 Zn120 1.945 . S
Zn118 O117 1.923 . S
Zn118 O121 1.933 . S
Zn118 O124 1.941 . S
Zn118 O125 1.965 . S
Zn119 O117 1.950 . S
Zn119 O126 1.938 . S
Zn119 O127 1.906 . S
Zn119 O137 1.953 . S
Zn120 O117 1.945 . S
Zn120 O122 1.932 . S
Zn120 O129 1.977 . S
Zn120 O130 1.910 . S
O121 Zn118 1.933 . S
O121 C132 1.226 . S
O122 Zn120 1.932 . S
O122 C132 1.307 . S
O123 Zn116 1.919 . S
O123 C134 1.253 . S
O124 Zn118 1.941 . S
O124 C134 1.283 . S
O125 Zn118 1.965 . S
O125 C133 1.303 . S
O126 Zn119 1.938 . S
O126 C133 1.247 . S
O127 Zn119 1.906 . S
O127 C135 1.304 . S
O128 Zn116 1.924 . S
O128 C136 1.311 . S
O129 Zn120 1.977 . S
O129 C135 1.272 . S
O130 Zn120 1.910 . S
O130 C136 1.231 . S
C131 O115 1.225 . S
C131 O137 1.298 . S
C132 O121 1.226 . S
C132 O122 1.307 . S
C133 O125 1.303 . S
C133 O126 1.247 . S
C134 O123 1.253 . S
C134 O124 1.283 . S
C135 O127 1.304 . S
C135 O129 1.272 . S
C136 O128 1.311 . S
C136 O130 1.231 . S
O137 Zn119 1.953 . S
O137 C131 1.298 . S
O138 Zn139 1.953 . S
O138 C154 1.225 . S
Zn139 O138 1.953 . S
Zn139 O140 1.949 . S
Zn139 O146 1.919 . S
Zn139 O151 1.924 . S
O140 Zn139 1.949 . S
O140 Zn141 1.923 . S
O140 Zn142 1.950 . S
O140 Zn143 1.945 . S
Zn141 O140 1.923 . S
Zn141 O144 1.933 . S
Zn141 O147 1.941 . S
Zn141 O148 1.965 . S
Zn142 O140 1.950 . S
Zn142 O149 1.938 . S
Zn142 O150 1.906 . S
Zn142 O160 1.953 . S
Zn143 O140 1.945 . S
Zn143 O145 1.932 . S
Zn143 O152 1.977 . S
Zn143 O153 1.910 . S
O144 Zn141 1.933 . S
O144 C155 1.226 . S
O145 Zn143 1.932 . S
O145 C155 1.307 . S
O146 Zn139 1.919 . S
O146 C157 1.253 . S
O147 Zn141 1.941 . S
O147 C157 1.283 . S
O148 Zn141 1.965 . S
O148 C156 1.303 . S
O149 Zn142 1.938 . S
O149 C156 1.247 . S
O150 Zn142 1.906 . S
O150 C158 1.304 . S
O151 Zn139 1.924 . S
O151 C159 1.311 . S
O152 Zn143 1.977 . S
O152 C158 1.272 . S
O153 Zn143 1.910 . S
O153 C159 1.231 . S
C154 O138 1.225 . S
C154 O160 1.298 . S
C155 O144 1.226 . S
C155 O145 1.307 . S
C156 O148 1.303 . S
C156 O149 1.247 . S
C157 O146 1.253 . S
C157 O147 1.283 . S
C158 O150 1.304 . S
C158 O152 1.272 . S
C159 O151 1.311 . S
C159 O153 1.231 . S
O160 Zn142 1.953 . S
O160 C154 1.298 . S
O161 Zn162 1.953 . S
O161 C177 1.225 . S
Zn162 O161 1.953 . S
Zn162 O163 1.949 . S
Zn162 O169 1.919 . S
Zn162 O174 1.924 . S
O163 Zn162 1.949 . S
O163 Zn164 1.923 . S
O163 Zn165 1.950 . S
O163 Zn166 1.945 . S
Zn164 O163 1.923 . S
Zn164 O167 1.933 . S
Zn164 O170 1.941 . S
Zn164 O171 1.965 . S
Zn165 O163 1.950 . S
Zn165 O172 1.938 . S
Zn165 O173 1.906 . S
Zn165 O183 1.953 . S
Zn166 O163 1.945 . S
Zn166 O168 1.932 . S
Zn166 O175 1.977 . S
Zn166 O176 1.910 . S
O167 Zn164 1.933 . S
O167 C178 1.226 . S
O168 Zn166 1.932 . S
O168 C178 1.307 . S
O169 Zn162 1.919 . S
O169 C180 1.253 . S
O170 Zn164 1.941 . S
O170 C180 1.283 . S
O171 Zn164 1.965 . S
O171 C179 1.303 . S
O172 Zn165 1.938 . S
O172 C179 1.247 . S
O173 Zn165 1.906 . S
O173 C181 1.304 . S
O174 Zn162 1.924 . S
O174 C182 1.311 . S
O175 Zn166 1.977 . S
O175 C181 1.272 . S
O176 Zn166 1.910 . S
O176 C182 1.231 . S
C177 O161 1.225 . S
C177 O183 1.298 . S
C178 O167 1.226 . S
C178 O168 1.307 . S
C179 O171 1.303 . S
C179 O172 1.247 . S
C180 O169 1.253 . S
C180 O170 1.283 . S
C181 O173 1.304 . S
C181 O175 1.272 . S
C182 O174 1.311 . S
C182 O176 1.231 . S
O183 Zn165 1.953 . S
O183 C177 1.298 . S
Fe184 O185 1.886 1_455 S
Fe184 O188 1.715 . S
Fe184 O193 2.077 1_455 S
Fe184 O198 1.935 . S
Fe184 O204 2.077 1_455 S
Fe184 O213 1.935 . S
O185 Fe184 1.886 1_655 S
O185 Fe187 1.715 . S
Fe186 O188 1.886 . S
Fe186 O189 1.715 1_545 S
Fe186 O196 1.935 1_545 S
Fe186 O197 2.077 . S
Fe186 O203 1.935 1_545 S
Fe186 O212 2.077 . S
Fe187 O185 1.715 . S
Fe187 O190 1.886 1_545 S
Fe187 O194 1.935 . S
Fe187 O199 2.077 1_545 S
Fe187 O205 1.935 . S
Fe187 O209 2.077 1_545 S
O188 Fe184 1.715 . S
O188 Fe186 1.886 . S
O189 Fe186 1.715 1_565 S
O189 Fe191 1.886 . S
O190 Fe187 1.886 1_565 S
O190 Fe191 1.715 1_655 S
Fe191 O189 1.886 . S
Fe191 O190 1.715 1_455 S
Fe191 O195 2.077 . S
Fe191 O200 1.935 1_455 S
Fe191 O202 2.077 . S
Fe191 O210 1.935 1_455 S
C192 O204 1.381 . S
C192 O205 1.421 . S
O193 Fe184 2.077 1_655 S
O193 C206 1.381 . S
O194 Fe187 1.935 . S
O194 C206 1.421 . S
O195 Fe191 2.077 . S
O195 C211 1.381 . S
O196 Fe186 1.935 1_565 S
O196 C211 1.421 . S
O197 Fe186 2.077 . S
O197 C201 1.381 . S
O198 Fe184 1.935 . S
O198 C201 1.421 . S
O199 Fe187 2.077 1_565 S
O199 C207 1.381 . S
O200 Fe191 1.935 1_655 S
O200 C207 1.421 . S
C201 O197 1.381 . S
C201 O198 1.421 . S
O202 Fe191 2.077 . S
O202 C214 1.381 . S
O203 Fe186 1.935 1_565 S
O203 C214 1.421 . S
O204 Fe184 2.077 1_655 S
O204 C192 1.381 . S
O205 Fe187 1.935 . S
O205 C192 1.421 . S
C206 O193 1.381 . S
C206 O194 1.421 . S
C207 O199 1.381 . S
C207 O200 1.421 . S
C208 O209 1.381 . S
C208 O210 1.421 . S
O209 Fe187 2.077 1_565 S
O209 C208 1.381 . S
O210 Fe191 1.935 1_655 S
O210 C208 1.421 . S
C211 O195 1.381 . S
C211 O196 1.421 . S
O212 Fe186 2.077 . S
O212 C215 1.381 . S
O213 Fe184 1.935 . S
O213 C215 1.421 . S
C214 O202 1.381 . S
C214 O203 1.421 . S
C215 O212 1.381 . S
C215 O213 1.421 . S
Fe216 O217 1.886 . S
Fe216 O220 1.715 . S
Fe216 O225 2.077 1_554 S
Fe216 O230 1.935 1_554 S
Fe216 O236 2.077 . S
Fe216 O245 1.935 . S
O217 Fe216 1.886 . S
O217 Fe219 1.715 1_565 S
Fe218 O220 1.886 1_545 S
Fe218 O221 1.715 . S
Fe218 O228 1.935 1_554 S
Fe218 O229 2.077 1_544 S
Fe218 O235 1.935 . S
Fe218 O244 2.077 1_545 S
Fe219 O217 1.715 1_545 S
Fe219 O222 1.886 . S
Fe219 O226 1.935 1_544 S
Fe219 O231 2.077 1_554 S
Fe219 O237 1.935 1_545 S
Fe219 O241 2.077 . S
O220 Fe216 1.715 . S
O220 Fe218 1.886 1_565 S
O221 Fe218 1.715 . S
O221 Fe223 1.886 . S
O222 Fe219 1.886 . S
O222 Fe223 1.715 . S
Fe223 O221 1.886 . S
Fe223 O222 1.715 . S
Fe223 O227 2.077 1_554 S
Fe223 O232 1.935 1_554 S
Fe223 O234 2.077 . S
Fe223 O242 1.935 . S
C224 O236 1.381 . S
C224 O237 1.421 . S
O225 Fe216 2.077 1_556 S
O225 C238 1.381 . S
O226 Fe219 1.935 1_566 S
O226 C238 1.421 . S
O227 Fe223 2.077 1_556 S
O227 C243 1.381 . S
O228 Fe218 1.935 1_556 S
O228 C243 1.421 . S
O229 Fe218 2.077 1_566 S
O229 C233 1.381 . S
O230 Fe216 1.935 1_556 S
O230 C233 1.421 . S
O231 Fe219 2.077 1_556 S
O231 C239 1.381 . S
O232 Fe223 1.935 1_556 S
O232 C239 1.421 . S
C233 O229 1.381 . S
C233 O230 1.421 . S
O234 Fe223 2.077 . S
O234 C246 1.381 . S
O235 Fe218 1.935 . S
O235 C246 1.421 . S
O236 Fe216 2.077 . S
O236 C224 1.381 . S
O237 Fe219 1.935 1_565 S
O237 C224 1.421 . S
C238 O225 1.381 . S
C238 O226 1.421 . S
C239 O231 1.381 . S
C239 O232 1.421 . S
C240 O241 1.381 . S
C240 O242 1.421 . S
O241 Fe219 2.077 . S
O241 C240 1.381 . S
O242 Fe223 1.935 . S
O242 C240 1.421 . S
C243 O227 1.381 . S
C243 O228 1.421 . S
O244 Fe218 2.077 1_565 S
O244 C247 1.381 . S
O245 Fe216 1.935 . S
O245 C247 1.421 . S
C246 O234 1.381 . S
C246 O235 1.421 . S
C247 O244 1.381 . S
C247 O245 1.421 . S
Fe248 O249 1.886 1_455 S
Fe248 O252 1.715 . S
Fe248 O257 2.077 1_454 S
Fe248 O262 1.935 1_554 S
Fe248 O268 2.077 1_455 S
Fe248 O277 1.935 . S
O249 Fe248 1.886 1_655 S
O249 Fe251 1.715 . S
Fe250 O252 1.886 . S
Fe250 O253 1.715 . S
Fe250 O260 1.935 1_554 S
Fe250 O261 2.077 1_554 S
Fe250 O267 1.935 . S
Fe250 O276 2.077 . S
Fe251 O249 1.715 . S
Fe251 O254 1.886 . S
Fe251 O258 1.935 1_554 S
Fe251 O263 2.077 1_554 S
Fe251 O269 1.935 . S
Fe251 O273 2.077 . S
O252 Fe248 1.715 . S
O252 Fe250 1.886 . S
O253 Fe250 1.715 . S
O253 Fe255 1.886 . S
O254 Fe251 1.886 . S
O254 Fe255 1.715 1_655 S
Fe255 O253 1.886 . S
Fe255 O254 1.715 1_455 S
Fe255 O259 2.077 1_554 S
Fe255 O264 1.935 1_454 S
Fe255 O266 2.077 . S
Fe255 O274 1.935 1_455 S
C256 O268 1.381 . S
C256 O269 1.421 . S
O257 Fe248 2.077 1_656 S
O257 C270 1.381 . S
O258 Fe251 1.935 1_556 S
O258 C270 1.421 . S
O259 Fe255 2.077 1_556 S
O259 C275 1.381 . S
O260 Fe250 1.935 1_556 S
O260 C275 1.421 . S
O261 Fe250 2.077 1_556 S
O261 C265 1.381 . S
O262 Fe248 1.935 1_556 S
O262 C265 1.421 . S
O263 Fe251 2.077 1_556 S
O263 C271 1.381 . S
O264 Fe255 1.935 1_656 S
O264 C271 1.421 . S
C265 O261 1.381 . S
C265 O262 1.421 . S
O266 Fe255 2.077 . S
O266 C278 1.381 . S
O267 Fe250 1.935 . S
O267 C278 1.421 . S
O268 Fe248 2.077 1_655 S
O268 C256 1.381 . S
O269 Fe251 1.935 . S
O269 C256 1.421 . S
C270 O257 1.381 . S
C270 O258 1.421 . S
C271 O263 1.381 . S
C271 O264 1.421 . S
C272 O273 1.381 . S
C272 O274 1.421 . S
O273 Fe251 2.077 . S
O273 C272 1.381 . S
O274 Fe255 1.935 1_655 S
O274 C272 1.421 . S
C275 O259 1.381 . S
C275 O260 1.421 . S
O276 Fe250 2.077 . S
O276 C279 1.381 . S
O277 Fe248 1.935 . S
O277 C279 1.421 . S
C278 O266 1.381 . S
C278 O267 1.421 . S
C279 O276 1.381 . S
C279 O277 1.421 . S
Fe280 O281 1.886 . S
Fe280 O284 1.715 . S
Fe280 O289 2.077 . S
Fe280 O294 1.935 . S
Fe280 O300 2.077 . S
Fe280 O309 1.935 . S
O281 Fe280 1.886 . S
O281 Fe283 1.715 1_556 S
Fe282 O284 1.886 1_554 S
Fe282 O285 1.715 . S
Fe282 O292 1.935 . S
Fe282 O293 2.077 1_554 S
Fe282 O299 1.935 . S
Fe282 O308 2.077 1_554 S
Fe283 O281 1.715 1_554 S
Fe283 O286 1.886 . S
Fe283 O290 1.935 1_554 S
Fe283 O295 2.077 . S
Fe283 O301 1.935 1_554 S
Fe283 O305 2.077 . S
O284 Fe280 1.715 . S
O284 Fe282 1.886 1_556 S
O285 Fe282 1.715 . S
O285 Fe287 1.886 . S
O286 Fe283 1.886 . S
O286 Fe287 1.715 . S
Fe287 O285 1.886 . S
Fe287 O286 1.715 . S
Fe287 O291 2.077 . S
Fe287 O296 1.935 . S
Fe287 O298 2.077 . S
Fe287 O306 1.935 . S
C288 O300 1.381 . S
C288 O301 1.421 . S
O289 Fe280 2.077 . S
O289 C302 1.381 . S
O290 Fe283 1.935 1_556 S
O290 C302 1.421 . S
O291 Fe287 2.077 . S
O291 C307 1.381 . S
O292 Fe282 1.935 . S
O292 C307 1.421 . S
O293 Fe282 2.077 1_556 S
O293 C297 1.381 . S
O294 Fe280 1.935 . S
O294 C297 1.421 . S
O295 Fe283 2.077 . S
O295 C303 1.381 . S
O296 Fe287 1.935 . S
O296 C303 1.421 . S
C297 O293 1.381 . S
C297 O294 1.421 . S
O298 Fe287 2.077 . S
O298 C310 1.381 . S
O299 Fe282 1.935 . S
O299 C310 1.421 . S
O300 Fe280 2.077 . S
O300 C288 1.381 . S
O301 Fe283 1.935 1_556 S
O301 C288 1.421 . S
C302 O289 1.381 . S
C302 O290 1.421 . S
C303 O295 1.381 . S
C303 O296 1.421 . S
C304 O305 1.381 . S
C304 O306 1.421 . S
O305 Fe283 2.077 . S
O305 C304 1.381 . S
O306 Fe287 1.935 . S
O306 C304 1.421 . S
C307 O291 1.381 . S
C307 O292 1.421 . S
O308 Fe282 2.077 1_556 S
O308 C311 1.381 . S
O309 Fe280 1.935 . S
O309 C311 1.421 . S
C310 O298 1.381 . S
C310 O299 1.421 . S
C311 O308 1.381 . S
C311 O309 1.421 . S
Fe312 O313 1.886 . S
Fe312 O316 1.715 . S
Fe312 O321 2.077 . S
Fe312 O326 1.935 . S
Fe312 O332 2.077 1_455 S
Fe312 O341 1.935 1_455 S
O313 Fe312 1.886 . S
O313 Fe315 1.715 . S
Fe314 O316 1.886 . S
Fe314 O317 1.715 . S
Fe314 O324 1.935 . S
Fe314 O325 2.077 . S
Fe314 O331 1.935 1_455 S
Fe314 O340 2.077 1_455 S
Fe315 O313 1.715 . S
Fe315 O318 1.886 . S
Fe315 O322 1.935 . S
Fe315 O327 2.077 . S
Fe315 O333 1.935 1_455 S
Fe315 O337 2.077 1_455 S
O316 Fe312 1.715 . S
O316 Fe314 1.886 . S
O317 Fe314 1.715 . S
O317 Fe319 1.886 . S
O318 Fe315 1.886 . S
O318 Fe319 1.715 . S
Fe319 O317 1.886 . S
Fe319 O318 1.715 . S
Fe319 O323 2.077 . S
Fe319 O328 1.935 . S
Fe319 O330 2.077 1_455 S
Fe319 O338 1.935 1_455 S
C320 O332 1.381 . S
C320 O333 1.421 . S
O321 Fe312 2.077 . S
O321 C334 1.381 . S
O322 Fe315 1.935 . S
O322 C334 1.421 . S
O323 Fe319 2.077 . S
O323 C339 1.381 . S
O324 Fe314 1.935 . S
O324 C339 1.421 . S
O325 Fe314 2.077 . S
O325 C329 1.381 . S
O326 Fe312 1.935 . S
O326 C329 1.421 . S
O327 Fe315 2.077 . S
O327 C335 1.381 . S
O328 Fe319 1.935 . S
O328 C335 1.421 . S
C329 O325 1.381 . S
C329 O326 1.421 . S
O330 Fe319 2.077 1_655 S
O330 C342 1.381 . S
O331 Fe314 1.935 1_655 S
O331 C342 1.421 . S
O332 Fe312 2.077 1_655 S
O332 C320 1.381 . S
O333 Fe315 1.935 1_655 S
O333 C320 1.421 . S
C334 O321 1.381 . S
C334 O322 1.421 . S
C335 O327 1.381 . S
C335 O328 1.421 . S
C336 O337 1.381 . S
C336 O338 1.421 . S
O337 Fe315 2.077 1_655 S
O337 C336 1.381 . S
O338 Fe319 1.935 1_655 S
O338 C336 1.421 . S
C339 O323 1.381 . S
C339 O324 1.421 . S
O340 Fe314 2.077 1_655 S
O340 C343 1.381 . S
O341 Fe312 1.935 1_655 S
O341 C343 1.421 . S
C342 O330 1.381 . S
C342 O331 1.421 . S
C343 O340 1.381 . S
C343 O341 1.421 . S
Fe344 O345 1.886 . S
Fe344 O348 1.715 . S
Fe344 O353 2.077 . S
Fe344 O358 1.935 . S
Fe344 O364 2.077 . S
Fe344 O373 1.935 . S
O345 Fe344 1.886 . S
O345 Fe347 1.715 1_565 S
Fe346 O348 1.886 1_545 S
Fe346 O349 1.715 . S
Fe346 O356 1.935 . S
Fe346 O357 2.077 1_545 S
Fe346 O363 1.935 . S
Fe346 O372 2.077 1_545 S
Fe347 O345 1.715 1_545 S
Fe347 O350 1.886 . S
Fe347 O354 1.935 1_545 S
Fe347 O359 2.077 . S
Fe347 O365 1.935 1_545 S
Fe347 O369 2.077 . S
O348 Fe344 1.715 . S
O348 Fe346 1.886 1_565 S
O349 Fe346 1.715 . S
O349 Fe351 1.886 . S
O350 Fe347 1.886 . S
O350 Fe351 1.715 . S
Fe351 O349 1.886 . S
Fe351 O350 1.715 . S
Fe351 O355 2.077 . S
Fe351 O360 1.935 . S
Fe351 O362 2.077 . S
Fe351 O370 1.935 . S
C352 O364 1.381 . S
C352 O365 1.421 . S
O353 Fe344 2.077 . S
O353 C366 1.381 . S
O354 Fe347 1.935 1_565 S
O354 C366 1.421 . S
O355 Fe351 2.077 . S
O355 C371 1.381 . S
O356 Fe346 1.935 . S
O356 C371 1.421 . S
O357 Fe346 2.077 1_565 S
O357 C361 1.381 . S
O358 Fe344 1.935 . S
O358 C361 1.421 . S
O359 Fe347 2.077 . S
O359 C367 1.381 . S
O360 Fe351 1.935 . S
O360 C367 1.421 . S
C361 O357 1.381 . S
C361 O358 1.421 . S
O362 Fe351 2.077 . S
O362 C374 1.381 . S
O363 Fe346 1.935 . S
O363 C374 1.421 . S
O364 Fe344 2.077 . S
O364 C352 1.381 . S
O365 Fe347 1.935 1_565 S
O365 C352 1.421 . S
C366 O353 1.381 . S
C366 O354 1.421 . S
C367 O359 1.381 . S
C367 O360 1.421 . S
C368 O369 1.381 . S
C368 O370 1.421 . S
O369 Fe347 2.077 . S
O369 C368 1.381 . S
O370 Fe351 1.935 . S
O370 C368 1.421 . S
C371 O355 1.381 . S
C371 O356 1.421 . S
O372 Fe346 2.077 1_565 S
O372 C375 1.381 . S
O373 Fe344 1.935 . S
O373 C375 1.421 . S
C374 O362 1.381 . S
C374 O363 1.421 . S
C375 O372 1.381 . S
C375 O373 1.421 . S
H376 C384 0.929 . S
H377 C386 0.930 . S
H378 C388 0.930 . S
H379 C391 0.929 . S
H380 C394 0.930 . S
H381 C396 0.960 . S
H382 C396 0.960 . S
H383 C396 0.960 . S
C384 H376 0.929 . S
C384 C385 1.377 . S
C384 C386 1.384 . S
C385 C384 1.377 . S
C385 C391 1.390 . S
C386 H377 0.930 . S
C386 C384 1.384 . S
C386 C387 1.372 . S
C387 C386 1.372 . S
C387 C388 1.400 . S
C387 C392 1.490 . S
C388 H378 0.930 . S
C388 C387 1.400 . S
C388 C391 1.386 . S
H389 C405 0.930 . S
H390 C406 0.931 . S
C391 H379 0.929 . S
C391 C385 1.390 . S
C391 C388 1.386 . S
C392 C387 1.490 . S
C392 C394 1.395 . S
C392 C395 1.403 . S
H393 C399 0.930 . S
C394 H380 0.930 . S
C394 C392 1.395 . S
C394 C397 1.403 . S
C395 C392 1.403 . S
C395 C396 1.524 . S
C395 C399 1.400 . S
C396 H381 0.960 . S
C396 H382 0.960 . S
C396 H383 0.960 . S
C396 C395 1.524 . S
C397 C394 1.403 . S
C397 C398 1.392 . S
C397 C401 1.495 . S
C398 C397 1.392 . S
C398 C399 1.385 . S
C398 C400 1.478 . S
C399 H393 0.930 . S
C399 C395 1.400 . S
C399 C398 1.385 . S
C400 C398 1.478 . S
C400 C402 1.381 . S
C400 C406 1.383 . S
C401 C397 1.495 . S
C401 H407 0.959 . S
C401 H408 0.961 . S
C401 H409 0.960 . S
C402 C400 1.381 . S
C402 C403 1.394 . S
C402 H410 0.930 . S
C403 C402 1.394 . S
C403 C404 1.383 . S
C403 H411 0.929 . S
C404 C403 1.383 . S
C404 C405 1.377 . S
C405 H389 0.930 . S
C405 C404 1.377 . S
C405 C406 1.379 . S
C406 H390 0.931 . S
C406 C400 1.383 . S
C406 C405 1.379 . S
H407 C401 0.959 . S
H408 C401 0.961 . S
H409 C401 0.960 . S
H410 C402 0.930 . S
H411 C403 0.929 . S
H412 C420 0.929 . S
H413 C422 0.930 . S
H414 C424 0.930 . S
H415 C427 0.929 . S
H416 C430 0.930 . S
H417 C432 0.960 . S
H418 C432 0.960 . S
H419 C432 0.960 . S
C420 H412 0.929 . S
C420 C421 1.377 . S
C420 C422 1.384 . S
C421 C420 1.377 . S
C421 C427 1.390 . S
C422 H413 0.930 . S
C422 C420 1.384 . S
C422 C423 1.372 . S
C423 C422 1.372 . S
C423 C424 1.400 . S
C423 C428 1.490 . S
C424 H414 0.930 . S
C424 C423 1.400 . S
C424 C427 1.386 . S
H425 C441 0.930 . S
H426 C442 0.931 . S
C427 H415 0.929 . S
C427 C421 1.390 . S
C427 C424 1.386 . S
C428 C423 1.490 . S
C428 C430 1.395 . S
C428 C431 1.403 . S
H429 C435 0.930 . S
C430 H416 0.930 . S
C430 C428 1.395 . S
C430 C433 1.403 . S
C431 C428 1.403 . S
C431 C432 1.524 . S
C431 C435 1.400 . S
C432 H417 0.960 . S
C432 H418 0.960 . S
C432 H419 0.960 . S
C432 C431 1.524 . S
C433 C430 1.403 . S
C433 C434 1.392 . S
C433 C437 1.495 . S
C434 C433 1.392 . S
C434 C435 1.385 . S
C434 C436 1.478 . S
C435 H429 0.930 . S
C435 C431 1.400 . S
C435 C434 1.385 . S
C436 C434 1.478 . S
C436 C438 1.381 . S
C436 C442 1.383 . S
C437 C433 1.495 . S
C437 H443 0.959 . S
C437 H444 0.961 . S
C437 H445 0.960 . S
C438 C436 1.381 . S
C438 C439 1.394 . S
C438 H446 0.930 . S
C439 C438 1.394 . S
C439 C440 1.383 . S
C439 H447 0.929 . S
C440 C439 1.383 . S
C440 C441 1.377 . S
C441 H425 0.930 . S
C441 C440 1.377 . S
C441 C442 1.379 . S
C442 H426 0.931 . S
C442 C436 1.383 . S
C442 C441 1.379 . S
H443 C437 0.959 . S
H444 C437 0.961 . S
H445 C437 0.960 . S
H446 C438 0.930 . S
H447 C439 0.929 . S
H448 C456 0.929 . S
H449 C458 0.930 . S
H450 C460 0.930 . S
H451 C463 0.929 . S
H452 C466 0.930 . S
H453 C468 0.960 . S
H454 C468 0.960 . S
H455 C468 0.960 . S
C456 H448 0.929 . S
C456 C457 1.377 . S
C456 C458 1.384 . S
C457 C456 1.377 . S
C457 C463 1.390 . S
C458 H449 0.930 . S
C458 C456 1.384 . S
C458 C459 1.372 . S
C459 C458 1.372 . S
C459 C460 1.400 . S
C459 C464 1.490 . S
C460 H450 0.930 . S
C460 C459 1.400 . S
C460 C463 1.386 . S
H461 C477 0.930 . S
H462 C478 0.931 . S
C463 H451 0.929 . S
C463 C457 1.390 . S
C463 C460 1.386 . S
C464 C459 1.490 . S
C464 C466 1.395 . S
C464 C467 1.403 . S
H465 C471 0.930 . S
C466 H452 0.930 . S
C466 C464 1.395 . S
C466 C469 1.403 . S
C467 C464 1.403 . S
C467 C468 1.524 . S
C467 C471 1.400 . S
C468 H453 0.960 . S
C468 H454 0.960 . S
C468 H455 0.960 . S
C468 C467 1.524 . S
C469 C466 1.403 . S
C469 C470 1.392 . S
C469 C473 1.495 . S
C470 C469 1.392 . S
C470 C471 1.385 . S
C470 C472 1.478 . S
C471 H465 0.930 . S
C471 C467 1.400 . S
C471 C470 1.385 . S
C472 C470 1.478 . S
C472 C474 1.381 . S
C472 C478 1.383 . S
C473 C469 1.495 . S
C473 H479 0.959 . S
C473 H480 0.961 . S
C473 H481 0.960 . S
C474 C472 1.381 . S
C474 C475 1.394 . S
C474 H482 0.930 . S
C475 C474 1.394 . S
C475 C476 1.383 . S
C475 H483 0.929 . S
C476 C475 1.383 . S
C476 C477 1.377 . S
C477 H461 0.930 . S
C477 C476 1.377 . S
C477 C478 1.379 . S
C478 H462 0.931 . S
C478 C472 1.383 . S
C478 C477 1.379 . S
H479 C473 0.959 . S
H480 C473 0.961 . S
H481 C473 0.960 . S
H482 C474 0.930 . S
H483 C475 0.929 . S
H484 C492 0.929 . S
H485 C494 0.930 . S
H486 C496 0.930 . S
H487 C499 0.929 . S
H488 C502 0.930 . S
H489 C504 0.960 . S
H490 C504 0.960 . S
H491 C504 0.960 . S
C492 H484 0.929 . S
C492 C493 1.377 . S
C492 C494 1.384 . S
C493 C492 1.377 . S
C493 C499 1.390 . S
C494 H485 0.930 . S
C494 C492 1.384 . S
C494 C495 1.372 . S
C495 C494 1.372 . S
C495 C496 1.400 . S
C495 C500 1.490 . S
C496 H486 0.930 . S
C496 C495 1.400 . S
C496 C499 1.386 . S
H497 C513 0.930 . S
H498 C514 0.931 . S
C499 H487 0.929 . S
C499 C493 1.390 . S
C499 C496 1.386 . S
C500 C495 1.490 . S
C500 C502 1.395 . S
C500 C503 1.403 . S
H501 C507 0.930 . S
C502 H488 0.930 . S
C502 C500 1.395 . S
C502 C505 1.403 . S
C503 C500 1.403 . S
C503 C504 1.524 . S
C503 C507 1.400 . S
C504 H489 0.960 . S
C504 H490 0.960 . S
C504 H491 0.960 . S
C504 C503 1.524 . S
C505 C502 1.403 . S
C505 C506 1.392 . S
C505 C509 1.495 . S
C506 C505 1.392 . S
C506 C507 1.385 . S
C506 C508 1.478 . S
C507 H501 0.930 . S
C507 C503 1.400 . S
C507 C506 1.385 . S
C508 C506 1.478 . S
C508 C510 1.381 . S
C508 C514 1.383 . S
C509 C505 1.495 . S
C509 H515 0.959 . S
C509 H516 0.961 . S
C509 H517 0.960 . S
C510 C508 1.381 . S
C510 C511 1.394 . S
C510 H518 0.930 . S
C511 C510 1.394 . S
C511 C512 1.383 . S
C511 H519 0.929 . S
C512 C511 1.383 . S
C512 C513 1.377 . S
C513 H497 0.930 . S
C513 C512 1.377 . S
C513 C514 1.379 . S
C514 H498 0.931 . S
C514 C508 1.383 . S
C514 C513 1.379 . S
H515 C509 0.959 . S
H516 C509 0.961 . S
H517 C509 0.960 . S
H518 C510 0.930 . S
H519 C511 0.929 . S
H520 C528 0.929 . S
H521 C530 0.930 . S
H522 C532 0.930 . S
H523 C535 0.929 . S
H524 C538 0.930 . S
H525 C540 0.960 . S
H526 C540 0.960 . S
H527 C540 0.960 . S
C528 H520 0.929 . S
C528 C529 1.377 . S
C528 C530 1.384 . S
C529 C528 1.377 . S
C529 C535 1.390 . S
C530 H521 0.930 . S
C530 C528 1.384 . S
C530 C531 1.372 . S
C531 C530 1.372 . S
C531 C532 1.400 . S
C531 C536 1.490 . S
C532 H522 0.930 . S
C532 C531 1.400 . S
C532 C535 1.386 . S
H533 C549 0.930 . S
H534 C550 0.931 . S
C535 H523 0.929 . S
C535 C529 1.390 . S
C535 C532 1.386 . S
C536 C531 1.490 . S
C536 C538 1.395 . S
C536 C539 1.403 . S
H537 C543 0.930 . S
C538 H524 0.930 . S
C538 C536 1.395 . S
C538 C541 1.403 . S
C539 C536 1.403 . S
C539 C540 1.524 . S
C539 C543 1.400 . S
C540 H525 0.960 . S
C540 H526 0.960 . S
C540 H527 0.960 . S
C540 C539 1.524 . S
C541 C538 1.403 . S
C541 C542 1.392 . S
C541 C545 1.495 . S
C542 C541 1.392 . S
C542 C543 1.385 . S
C542 C544 1.478 . S
C543 H537 0.930 . S
C543 C539 1.400 . S
C543 C542 1.385 . S
C544 C542 1.478 . S
C544 C546 1.381 . S
C544 C550 1.383 . S
C545 C541 1.495 . S
C545 H551 0.959 . S
C545 H552 0.961 . S
C545 H553 0.960 . S
C546 C544 1.381 . S
C546 C547 1.394 . S
C546 H554 0.930 . S
C547 C546 1.394 . S
C547 C548 1.383 . S
C547 H555 0.929 . S
C548 C547 1.383 . S
C548 C549 1.377 . S
C549 H533 0.930 . S
C549 C548 1.377 . S
C549 C550 1.379 . S
C550 H534 0.931 . S
C550 C544 1.383 . S
C550 C549 1.379 . S
H551 C545 0.959 . S
H552 C545 0.961 . S
H553 C545 0.960 . S
H554 C546 0.930 . S
H555 C547 0.929 . S
H556 C564 0.929 . S
H557 C566 0.930 . S
H558 C568 0.930 . S
H559 C571 0.929 . S
H560 C574 0.930 . S
H561 C576 0.960 . S
H562 C576 0.960 . S
H563 C576 0.960 . S
C564 H556 0.929 . S
C564 C565 1.377 . S
C564 C566 1.384 . S
C565 C564 1.377 . S
C565 C571 1.390 . S
C566 H557 0.930 . S
C566 C564 1.384 . S
C566 C567 1.372 . S
C567 C566 1.372 . S
C567 C568 1.400 . S
C567 C572 1.490 . S
C568 H558 0.930 . S
C568 C567 1.400 . S
C568 C571 1.386 . S
H569 C585 0.930 . S
H570 C586 0.931 . S
C571 H559 0.929 . S
C571 C565 1.390 . S
C571 C568 1.386 . S
C572 C567 1.490 . S
C572 C574 1.395 . S
C572 C575 1.403 . S
H573 C579 0.930 . S
C574 H560 0.930 . S
C574 C572 1.395 . S
C574 C577 1.403 . S
C575 C572 1.403 . S
C575 C576 1.524 . S
C575 C579 1.400 . S
C576 H561 0.960 . S
C576 H562 0.960 . S
C576 H563 0.960 . S
C576 C575 1.524 . S
C577 C574 1.403 . S
C577 C578 1.392 . S
C577 C581 1.495 . S
C578 C577 1.392 . S
C578 C579 1.385 . S
C578 C580 1.478 . S
C579 H573 0.930 . S
C579 C575 1.400 . S
C579 C578 1.385 . S
C580 C578 1.478 . S
C580 C582 1.381 . S
C580 C586 1.383 . S
C581 C577 1.495 . S
C581 H587 0.959 . S
C581 H588 0.961 . S
C581 H589 0.960 . S
C582 C580 1.381 . S
C582 C583 1.394 . S
C582 H590 0.930 . S
C583 C582 1.394 . S
C583 C584 1.383 . S
C583 H591 0.929 . S
C584 C583 1.383 . S
C584 C585 1.377 . S
C585 H569 0.930 . S
C585 C584 1.377 . S
C585 C586 1.379 . S
C586 H570 0.931 . S
C586 C580 1.383 . S
C586 C585 1.379 . S
H587 C581 0.959 . S
H588 C581 0.961 . S
H589 C581 0.960 . S
H590 C582 0.930 . S
H591 C583 0.929 . S
H592 C600 0.929 . S
H593 C602 0.930 . S
H594 C604 0.930 . S
H595 C607 0.929 . S
H596 C610 0.930 . S
H597 C612 0.960 . S
H598 C612 0.960 . S
H599 C612 0.960 . S
C600 H592 0.929 . S
C600 C601 1.377 . S
C600 C602 1.384 . S
C601 C600 1.377 . S
C601 C607 1.390 . S
C602 H593 0.930 . S
C602 C600 1.384 . S
C602 C603 1.372 . S
C603 C602 1.372 . S
C603 C604 1.400 . S
C603 C608 1.490 . S
C604 H594 0.930 . S
C604 C603 1.400 . S
C604 C607 1.386 . S
H605 C621 0.930 . S
H606 C622 0.931 . S
C607 H595 0.929 . S
C607 C601 1.390 . S
C607 C604 1.386 . S
C608 C603 1.490 . S
C608 C610 1.395 . S
C608 C611 1.403 . S
H609 C615 0.930 . S
C610 H596 0.930 . S
C610 C608 1.395 . S
C610 C613 1.403 . S
C611 C608 1.403 . S
C611 C612 1.524 . S
C611 C615 1.400 . S
C612 H597 0.960 . S
C612 H598 0.960 . S
C612 H599 0.960 . S
C612 C611 1.524 . S
C613 C610 1.403 . S
C613 C614 1.392 . S
C613 C617 1.495 . S
C614 C613 1.392 . S
C614 C615 1.385 . S
C614 C616 1.478 . S
C615 H609 0.930 . S
C615 C611 1.400 . S
C615 C614 1.385 . S
C616 C614 1.478 . S
C616 C618 1.381 . S
C616 C622 1.383 . S
C617 C613 1.495 . S
C617 H623 0.959 . S
C617 H624 0.961 . S
C617 H625 0.960 . S
C618 C616 1.381 . S
C618 C619 1.394 . S
C618 H626 0.930 . S
C619 C618 1.394 . S
C619 C620 1.383 . S
C619 H627 0.929 . S
C620 C619 1.383 . S
C620 C621 1.377 . S
C621 H605 0.930 . S
C621 C620 1.377 . S
C621 C622 1.379 . S
C622 H606 0.931 . S
C622 C616 1.383 . S
C622 C621 1.379 . S
H623 C617 0.959 . S
H624 C617 0.961 . S
H625 C617 0.960 . S
H626 C618 0.930 . S
H627 C619 0.929 . S
H628 C636 0.929 . S
H629 C638 0.930 . S
H630 C640 0.930 . S
H631 C643 0.929 . S
H632 C646 0.930 . S
H633 C648 0.960 . S
H634 C648 0.960 . S
H635 C648 0.960 . S
C636 H628 0.929 . S
C636 C637 1.377 . S
C636 C638 1.384 . S
C637 C636 1.377 . S
C637 C643 1.390 . S
C638 H629 0.930 . S
C638 C636 1.384 . S
C638 C639 1.372 . S
C639 C638 1.372 . S
C639 C640 1.400 . S
C639 C644 1.490 . S
C640 H630 0.930 . S
C640 C639 1.400 . S
C640 C643 1.386 . S
H641 C657 0.930 . S
H642 C658 0.931 . S
C643 H631 0.929 . S
C643 C637 1.390 . S
C643 C640 1.386 . S
C644 C639 1.490 . S
C644 C646 1.395 . S
C644 C647 1.403 . S
H645 C651 0.930 . S
C646 H632 0.930 . S
C646 C644 1.395 . S
C646 C649 1.403 . S
C647 C644 1.403 . S
C647 C648 1.524 . S
C647 C651 1.400 . S
C648 H633 0.960 . S
C648 H634 0.960 . S
C648 H635 0.960 . S
C648 C647 1.524 . S
C649 C646 1.403 . S
C649 C650 1.392 . S
C649 C653 1.495 . S
C650 C649 1.392 . S
C650 C651 1.385 . S
C650 C652 1.478 . S
C651 H645 0.930 . S
C651 C647 1.400 . S
C651 C650 1.385 . S
C652 C650 1.478 . S
C652 C654 1.381 . S
C652 C658 1.383 . S
C653 C649 1.495 . S
C653 H659 0.959 . S
C653 H660 0.961 . S
C653 H661 0.960 . S
C654 C652 1.381 . S
C654 C655 1.394 . S
C654 H662 0.930 . S
C655 C654 1.394 . S
C655 C656 1.383 . S
C655 H663 0.929 . S
C656 C655 1.383 . S
C656 C657 1.377 . S
C657 H641 0.930 . S
C657 C656 1.377 . S
C657 C658 1.379 . S
C658 H642 0.931 . S
C658 C652 1.383 . S
C658 C657 1.379 . S
H659 C653 0.959 . S
H660 C653 0.961 . S
H661 C653 0.960 . S
H662 C654 0.930 . S
H663 C655 0.929 . S
H664 C672 0.929 . S
H665 C674 0.930 . S
H666 C676 0.930 . S
H667 C679 0.929 . S
H668 C682 0.930 . S
H669 C684 0.960 . S
H670 C684 0.960 . S
H671 C684 0.960 . S
C672 H664 0.929 . S
C672 C673 1.377 . S
C672 C674 1.384 . S
C673 C672 1.377 . S
C673 C679 1.390 . S
C674 H665 0.930 . S
C674 C672 1.384 . S
C674 C675 1.372 . S
C675 C674 1.372 . S
C675 C676 1.400 . S
C675 C680 1.490 . S
C676 H666 0.930 . S
C676 C675 1.400 . S
C676 C679 1.386 . S
H677 C693 0.930 . S
H678 C694 0.931 . S
C679 H667 0.929 . S
C679 C673 1.390 . S
C679 C676 1.386 . S
C680 C675 1.490 . S
C680 C682 1.395 . S
C680 C683 1.403 . S
H681 C687 0.930 . S
C682 H668 0.930 . S
C682 C680 1.395 . S
C682 C685 1.403 . S
C683 C680 1.403 . S
C683 C684 1.524 . S
C683 C687 1.400 . S
C684 H669 0.960 . S
C684 H670 0.960 . S
C684 H671 0.960 . S
C684 C683 1.524 . S
C685 C682 1.403 . S
C685 C686 1.392 . S
C685 C689 1.495 . S
C686 C685 1.392 . S
C686 C687 1.385 . S
C686 C688 1.478 . S
C687 H681 0.930 . S
C687 C683 1.400 . S
C687 C686 1.385 . S
C688 C686 1.478 . S
C688 C690 1.381 . S
C688 C694 1.383 . S
C689 C685 1.495 . S
C689 H695 0.959 . S
C689 H696 0.961 . S
C689 H697 0.960 . S
C690 C688 1.381 . S
C690 C691 1.394 . S
C690 H698 0.930 . S
C691 C690 1.394 . S
C691 C692 1.383 . S
C691 H699 0.929 . S
C692 C691 1.383 . S
C692 C693 1.377 . S
C693 H677 0.930 . S
C693 C692 1.377 . S
C693 C694 1.379 . S
C694 H678 0.931 . S
C694 C688 1.383 . S
C694 C693 1.379 . S
H695 C689 0.959 . S
H696 C689 0.961 . S
H697 C689 0.960 . S
H698 C690 0.930 . S
H699 C691 0.929 . S
H700 C708 0.929 . S
H701 C710 0.930 . S
H702 C712 0.930 . S
H703 C715 0.929 . S
H704 C718 0.930 . S
H705 C720 0.960 . S
H706 C720 0.960 . S
H707 C720 0.960 . S
C708 H700 0.929 . S
C708 C709 1.377 . S
C708 C710 1.384 . S
C709 C708 1.377 . S
C709 C715 1.390 . S
C710 H701 0.930 . S
C710 C708 1.384 . S
C710 C711 1.372 . S
C711 C710 1.372 . S
C711 C712 1.400 . S
C711 C716 1.490 . S
C712 H702 0.930 . S
C712 C711 1.400 . S
C712 C715 1.386 . S
H713 C729 0.930 . S
H714 C730 0.931 . S
C715 H703 0.929 . S
C715 C709 1.390 . S
C715 C712 1.386 . S
C716 C711 1.490 . S
C716 C718 1.395 . S
C716 C719 1.403 . S
H717 C723 0.930 . S
C718 H704 0.930 . S
C718 C716 1.395 . S
C718 C721 1.403 . S
C719 C716 1.403 . S
C719 C720 1.524 . S
C719 C723 1.400 . S
C720 H705 0.960 . S
C720 H706 0.960 . S
C720 H707 0.960 . S
C720 C719 1.524 . S
C721 C718 1.403 . S
C721 C722 1.392 . S
C721 C725 1.495 . S
C722 C721 1.392 . S
C722 C723 1.385 . S
C722 C724 1.478 . S
C723 H717 0.930 . S
C723 C719 1.400 . S
C723 C722 1.385 . S
C724 C722 1.478 . S
C724 C726 1.381 . S
C724 C730 1.383 . S
C725 C721 1.495 . S
C725 H731 0.959 . S
C725 H732 0.961 . S
C725 H733 0.960 . S
C726 C724 1.381 . S
C726 C727 1.394 . S
C726 H734 0.930 . S
C727 C726 1.394 . S
C727 C728 1.383 . S
C727 H735 0.929 . S
C728 C727 1.383 . S
C728 C729 1.377 . S
C729 H713 0.930 . S
C729 C728 1.377 . S
C729 C730 1.379 . S
C730 H714 0.931 . S
C730 C724 1.383 . S
C730 C729 1.379 . S
H731 C725 0.959 . S
H732 C725 0.961 . S
H733 C725 0.960 . S
H734 C726 0.930 . S
H735 C727 0.929 . S
H736 C744 0.929 . S
H737 C746 0.930 . S
H738 C748 0.930 . S
H739 C751 0.929 . S
H740 C754 0.930 . S
H741 C756 0.960 . S
H742 C756 0.960 . S
H743 C756 0.960 . S
C744 H736 0.929 . S
C744 C745 1.377 . S
C744 C746 1.384 . S
C745 C744 1.377 . S
C745 C751 1.390 . S
C746 H737 0.930 . S
C746 C744 1.384 . S
C746 C747 1.372 . S
C747 C746 1.372 . S
C747 C748 1.400 . S
C747 C752 1.490 . S
C748 H738 0.930 . S
C748 C747 1.400 . S
C748 C751 1.386 . S
H749 C765 0.930 . S
H750 C766 0.931 . S
C751 H739 0.929 . S
C751 C745 1.390 . S
C751 C748 1.386 . S
C752 C747 1.490 . S
C752 C754 1.395 . S
C752 C755 1.403 . S
H753 C759 0.930 . S
C754 H740 0.930 . S
C754 C752 1.395 . S
C754 C757 1.403 . S
C755 C752 1.403 . S
C755 C756 1.524 . S
C755 C759 1.400 . S
C756 H741 0.960 . S
C756 H742 0.960 . S
C756 H743 0.960 . S
C756 C755 1.524 . S
C757 C754 1.403 . S
C757 C758 1.392 . S
C757 C761 1.495 . S
C758 C757 1.392 . S
C758 C759 1.385 . S
C758 C760 1.478 . S
C759 H753 0.930 . S
C759 C755 1.400 . S
C759 C758 1.385 . S
C760 C758 1.478 . S
C760 C762 1.381 . S
C760 C766 1.383 . S
C761 C757 1.495 . S
C761 H767 0.959 . S
C761 H768 0.961 . S
C761 H769 0.960 . S
C762 C760 1.381 . S
C762 C763 1.394 . S
C762 H770 0.930 . S
C763 C762 1.394 . S
C763 C764 1.383 . S
C763 H771 0.929 . S
C764 C763 1.383 . S
C764 C765 1.377 . S
C765 H749 0.930 . S
C765 C764 1.377 . S
C765 C766 1.379 . S
C766 H750 0.931 . S
C766 C760 1.383 . S
C766 C765 1.379 . S
H767 C761 0.959 . S
H768 C761 0.961 . S
H769 C761 0.960 . S
H770 C762 0.930 . S
H771 C763 0.929 . S
H772 C780 0.929 . S
H773 C782 0.930 . S
H774 C784 0.930 . S
H775 C787 0.929 . S
H776 C790 0.930 . S
H777 C792 0.960 . S
H778 C792 0.960 . S
H779 C792 0.960 . S
C780 H772 0.929 . S
C780 C781 1.377 . S
C780 C782 1.384 . S
C781 C780 1.377 . S
C781 C787 1.390 . S
C782 H773 0.930 . S
C782 C780 1.384 . S
C782 C783 1.372 . S
C783 C782 1.372 . S
C783 C784 1.400 . S
C783 C788 1.490 . S
C784 H774 0.930 . S
C784 C783 1.400 . S
C784 C787 1.386 . S
H785 C801 0.930 . S
H786 C802 0.931 . S
C787 H775 0.929 . S
C787 C781 1.390 . S
C787 C784 1.386 . S
C788 C783 1.490 . S
C788 C790 1.395 . S
C788 C791 1.403 . S
H789 C795 0.930 . S
C790 H776 0.930 . S
C790 C788 1.395 . S
C790 C793 1.403 . S
C791 C788 1.403 . S
C791 C792 1.524 . S
C791 C795 1.400 . S
C792 H777 0.960 . S
C792 H778 0.960 . S
C792 H779 0.960 . S
C792 C791 1.524 . S
C793 C790 1.403 . S
C793 C794 1.392 . S
C793 C797 1.495 . S
C794 C793 1.392 . S
C794 C795 1.385 . S
C794 C796 1.478 . S
C795 H789 0.930 . S
C795 C791 1.400 . S
C795 C794 1.385 . S
C796 C794 1.478 . S
C796 C798 1.381 . S
C796 C802 1.383 . S
C797 C793 1.495 . S
C797 H803 0.959 . S
C797 H804 0.961 . S
C797 H805 0.960 . S
C798 C796 1.381 . S
C798 C799 1.394 . S
C798 H806 0.930 . S
C799 C798 1.394 . S
C799 C800 1.383 . S
C799 H807 0.929 . S
C800 C799 1.383 . S
C800 C801 1.377 . S
C801 H785 0.930 . S
C801 C800 1.377 . S
C801 C802 1.379 . S
C802 H786 0.931 . S
C802 C796 1.383 . S
C802 C801 1.379 . S
H803 C797 0.959 . S
H804 C797 0.961 . S
H805 C797 0.960 . S
H806 C798 0.930 . S
H807 C799 0.929 . S
H808 C816 0.929 . S
H809 C818 0.930 . S
H810 C820 0.930 . S
H811 C823 0.929 . S
H812 C826 0.930 . S
H813 C828 0.960 . S
H814 C828 0.960 . S
H815 C828 0.960 . S
C816 H808 0.929 . S
C816 C817 1.377 . S
C816 C818 1.384 . S
C817 C816 1.377 . S
C817 C823 1.390 . S
C818 H809 0.930 . S
C818 C816 1.384 . S
C818 C819 1.372 . S
C819 C818 1.372 . S
C819 C820 1.400 . S
C819 C824 1.490 . S
C820 H810 0.930 . S
C820 C819 1.400 . S
C820 C823 1.386 . S
H821 C837 0.930 . S
H822 C838 0.931 . S
C823 H811 0.929 . S
C823 C817 1.390 . S
C823 C820 1.386 . S
C824 C819 1.490 . S
C824 C826 1.395 . S
C824 C827 1.403 . S
H825 C831 0.930 . S
C826 H812 0.930 . S
C826 C824 1.395 . S
C826 C829 1.403 . S
C827 C824 1.403 . S
C827 C828 1.524 . S
C827 C831 1.400 . S
C828 H813 0.960 . S
C828 H814 0.960 . S
C828 H815 0.960 . S
C828 C827 1.524 . S
C829 C826 1.403 . S
C829 C830 1.392 . S
C829 C833 1.495 . S
C830 C829 1.392 . S
C830 C831 1.385 . S
C830 C832 1.478 . S
C831 H825 0.930 . S
C831 C827 1.400 . S
C831 C830 1.385 . S
C832 C830 1.478 . S
C832 C834 1.381 . S
C832 C838 1.383 . S
C833 C829 1.495 . S
C833 H839 0.959 . S
C833 H840 0.961 . S
C833 H841 0.960 . S
C834 C832 1.381 . S
C834 C835 1.394 . S
C834 H842 0.930 . S
C835 C834 1.394 . S
C835 C836 1.383 . S
C835 H843 0.929 . S
C836 C835 1.383 . S
C836 C837 1.377 . S
C837 H821 0.930 . S
C837 C836 1.377 . S
C837 C838 1.379 . S
C838 H822 0.931 . S
C838 C832 1.383 . S
C838 C837 1.379 . S
H839 C833 0.959 . S
H840 C833 0.961 . S
H841 C833 0.960 . S
H842 C834 0.930 . S
H843 C835 0.929 . S
H844 C852 0.929 . S
H845 C854 0.930 . S
H846 C856 0.930 . S
H847 C859 0.929 . S
H848 C862 0.930 . S
H849 C864 0.960 . S
H850 C864 0.960 . S
H851 C864 0.960 . S
C852 H844 0.929 . S
C852 C853 1.377 . S
C852 C854 1.384 . S
C853 C852 1.377 . S
C853 C859 1.390 . S
C854 H845 0.930 . S
C854 C852 1.384 . S
C854 C855 1.372 . S
C855 C854 1.372 . S
C855 C856 1.400 . S
C855 C860 1.490 . S
C856 H846 0.930 . S
C856 C855 1.400 . S
C856 C859 1.386 . S
H857 C873 0.930 . S
H858 C874 0.931 . S
C859 H847 0.929 . S
C859 C853 1.390 . S
C859 C856 1.386 . S
C860 C855 1.490 . S
C860 C862 1.395 . S
C860 C863 1.403 . S
H861 C867 0.930 . S
C862 H848 0.930 . S
C862 C860 1.395 . S
C862 C865 1.403 . S
C863 C860 1.403 . S
C863 C864 1.524 . S
C863 C867 1.400 . S
C864 H849 0.960 . S
C864 H850 0.960 . S
C864 H851 0.960 . S
C864 C863 1.524 . S
C865 C862 1.403 . S
C865 C866 1.392 . S
C865 C869 1.495 . S
C866 C865 1.392 . S
C866 C867 1.385 . S
C866 C868 1.478 . S
C867 H861 0.930 . S
C867 C863 1.400 . S
C867 C866 1.385 . S
C868 C866 1.478 . S
C868 C870 1.381 . S
C868 C874 1.383 . S
C869 C865 1.495 . S
C869 H875 0.959 . S
C869 H876 0.961 . S
C869 H877 0.960 . S
C870 C868 1.381 . S
C870 C871 1.394 . S
C870 H878 0.930 . S
C871 C870 1.394 . S
C871 C872 1.383 . S
C871 H879 0.929 . S
C872 C871 1.383 . S
C872 C873 1.377 . S
C873 H857 0.930 . S
C873 C872 1.377 . S
C873 C874 1.379 . S
C874 H858 0.931 . S
C874 C868 1.383 . S
C874 C873 1.379 . S
H875 C869 0.959 . S
H876 C869 0.961 . S
H877 C869 0.960 . S
H878 C870 0.930 . S
H879 C871 0.929 . S
H880 C888 0.929 . S
H881 C890 0.930 . S
H882 C892 0.930 . S
H883 C895 0.929 . S
H884 C898 0.930 . S
H885 C900 0.960 . S
H886 C900 0.960 . S
H887 C900 0.960 . S
C888 H880 0.929 . S
C888 C889 1.377 . S
C888 C890 1.384 . S
C889 C888 1.377 . S
C889 C895 1.390 . S
C890 H881 0.930 . S
C890 C888 1.384 . S
C890 C891 1.372 . S
C891 C890 1.372 . S
C891 C892 1.400 . S
C891 C896 1.490 . S
C892 H882 0.930 . S
C892 C891 1.400 . S
C892 C895 1.386 . S
H893 C909 0.930 . S
H894 C910 0.931 . S
C895 H883 0.929 . S
C895 C889 1.390 . S
C895 C892 1.386 . S
C896 C891 1.490 . S
C896 C898 1.395 . S
C896 C899 1.403 . S
H897 C903 0.930 . S
C898 H884 0.930 . S
C898 C896 1.395 . S
C898 C901 1.403 . S
C899 C896 1.403 . S
C899 C900 1.524 . S
C899 C903 1.400 . S
C900 H885 0.960 . S
C900 H886 0.960 . S
C900 H887 0.960 . S
C900 C899 1.524 . S
C901 C898 1.403 . S
C901 C902 1.392 . S
C901 C905 1.495 . S
C902 C901 1.392 . S
C902 C903 1.385 . S
C902 C904 1.478 . S
C903 H897 0.930 . S
C903 C899 1.400 . S
C903 C902 1.385 . S
C904 C902 1.478 . S
C904 C906 1.381 . S
C904 C910 1.383 . S
C905 C901 1.495 . S
C905 H911 0.959 . S
C905 H912 0.961 . S
C905 H913 0.960 . S
C906 C904 1.381 . S
C906 C907 1.394 . S
C906 H914 0.930 . S
C907 C906 1.394 . S
C907 C908 1.383 . S
C907 H915 0.929 . S
C908 C907 1.383 . S
C908 C909 1.377 . S
C909 H893 0.930 . S
C909 C908 1.377 . S
C909 C910 1.379 . S
C910 H894 0.931 . S
C910 C904 1.383 . S
C910 C909 1.379 . S
H911 C905 0.959 . S
H912 C905 0.961 . S
H913 C905 0.960 . S
H914 C906 0.930 . S
H915 C907 0.929 . S
H916 C924 0.929 . S
H917 C926 0.930 . S
H918 C928 0.930 . S
H919 C931 0.929 . S
H920 C934 0.930 . S
H921 C936 0.960 . S
H922 C936 0.960 . S
H923 C936 0.960 . S
C924 H916 0.929 . S
C924 C925 1.377 . S
C924 C926 1.384 . S
C925 C924 1.377 . S
C925 C931 1.390 . S
C926 H917 0.930 . S
C926 C924 1.384 . S
C926 C927 1.372 . S
C927 C926 1.372 . S
C927 C928 1.400 . S
C927 C932 1.490 . S
C928 H918 0.930 . S
C928 C927 1.400 . S
C928 C931 1.386 . S
H929 C945 0.930 . S
H930 C946 0.931 . S
C931 H919 0.929 . S
C931 C925 1.390 . S
C931 C928 1.386 . S
C932 C927 1.490 . S
C932 C934 1.395 . S
C932 C935 1.403 . S
H933 C939 0.930 . S
C934 H920 0.930 . S
C934 C932 1.395 . S
C934 C937 1.403 . S
C935 C932 1.403 . S
C935 C936 1.524 . S
C935 C939 1.400 . S
C936 H921 0.960 . S
C936 H922 0.960 . S
C936 H923 0.960 . S
C936 C935 1.524 . S
C937 C934 1.403 . S
C937 C938 1.392 . S
C937 C941 1.495 . S
C938 C937 1.392 . S
C938 C939 1.385 . S
C938 C940 1.478 . S
C939 H933 0.930 . S
C939 C935 1.400 . S
C939 C938 1.385 . S
C940 C938 1.478 . S
C940 C942 1.381 . S
C940 C946 1.383 . S
C941 C937 1.495 . S
C941 H947 0.959 . S
C941 H948 0.961 . S
C941 H949 0.960 . S
C942 C940 1.381 . S
C942 C943 1.394 . S
C942 H950 0.930 . S
C943 C942 1.394 . S
C943 C944 1.383 . S
C943 H951 0.929 . S
C944 C943 1.383 . S
C944 C945 1.377 . S
C945 H929 0.930 . S
C945 C944 1.377 . S
C945 C946 1.379 . S
C946 H930 0.931 . S
C946 C940 1.383 . S
C946 C945 1.379 . S
H947 C941 0.959 . S
H948 C941 0.961 . S
H949 C941 0.960 . S
H950 C942 0.930 . S
H951 C943 0.929 . S
H952 C960 0.929 . S
H953 C962 0.930 . S
H954 C964 0.930 . S
H955 C967 0.929 . S
H956 C970 0.930 . S
H957 C972 0.960 . S
H958 C972 0.960 . S
H959 C972 0.960 . S
C960 H952 0.929 . S
C960 C961 1.377 . S
C960 C962 1.384 . S
C961 C960 1.377 . S
C961 C967 1.390 . S
C962 H953 0.930 . S
C962 C960 1.384 . S
C962 C963 1.372 . S
C963 C962 1.372 . S
C963 C964 1.400 . S
C963 C968 1.490 . S
C964 H954 0.930 . S
C964 C963 1.400 . S
C964 C967 1.386 . S
H965 C981 0.930 . S
H966 C982 0.931 . S
C967 H955 0.929 . S
C967 C961 1.390 . S
C967 C964 1.386 . S
C968 C963 1.490 . S
C968 C970 1.395 . S
C968 C971 1.403 . S
H969 C975 0.930 . S
C970 H956 0.930 . S
C970 C968 1.395 . S
C970 C973 1.403 . S
C971 C968 1.403 . S
C971 C972 1.524 . S
C971 C975 1.400 . S
C972 H957 0.960 . S
C972 H958 0.960 . S
C972 H959 0.960 . S
C972 C971 1.524 . S
C973 C970 1.403 . S
C973 C974 1.392 . S
C973 C977 1.495 . S
C974 C973 1.392 . S
C974 C975 1.385 . S
C974 C976 1.478 . S
C975 H969 0.930 . S
C975 C971 1.400 . S
C975 C974 1.385 . S
C976 C974 1.478 . S
C976 C978 1.381 . S
C976 C982 1.383 . S
C977 C973 1.495 . S
C977 H983 0.959 . S
C977 H984 0.961 . S
C977 H985 0.960 . S
C978 C976 1.381 . S
C978 C979 1.394 . S
C978 H986 0.930 . S
C979 C978 1.394 . S
C979 C980 1.383 . S
C979 H987 0.929 . S
C980 C979 1.383 . S
C980 C981 1.377 . S
C981 H965 0.930 . S
C981 C980 1.377 . S
C981 C982 1.379 . S
C982 H966 0.931 . S
C982 C976 1.383 . S
C982 C981 1.379 . S
H983 C977 0.959 . S
H984 C977 0.961 . S
H985 C977 0.960 . S
H986 C978 0.930 . S
H987 C979 0.929 . S
H988 C996 0.929 . S
H989 C998 0.930 . S
H990 C1000 0.930 . S
H991 C1003 0.929 . S
H992 C1006 0.930 . S
H993 C1008 0.960 . S
H994 C1008 0.960 . S
H995 C1008 0.960 . S
C996 H988 0.929 . S
C996 C997 1.377 . S
C996 C998 1.384 . S
C997 C996 1.377 . S
C997 C1003 1.390 . S
C998 H989 0.930 . S
C998 C996 1.384 . S
C998 C999 1.372 . S
C999 C998 1.372 . S
C999 C1000 1.400 . S
C999 C1004 1.490 . S
C1000 H990 0.930 . S
C1000 C999 1.400 . S
C1000 C1003 1.386 . S
H1001 C1017 0.930 . S
H1002 C1018 0.931 . S
C1003 H991 0.929 . S
C1003 C997 1.390 . S
C1003 C1000 1.386 . S
C1004 C999 1.490 . S
C1004 C1006 1.395 . S
C1004 C1007 1.403 . S
H1005 C1011 0.930 . S
C1006 H992 0.930 . S
C1006 C1004 1.395 . S
C1006 C1009 1.403 . S
C1007 C1004 1.403 . S
C1007 C1008 1.524 . S
C1007 C1011 1.400 . S
C1008 H993 0.960 . S
C1008 H994 0.960 . S
C1008 H995 0.960 . S
C1008 C1007 1.524 . S
C1009 C1006 1.403 . S
C1009 C1010 1.392 . S
C1009 C1013 1.495 . S
C1010 C1009 1.392 . S
C1010 C1011 1.385 . S
C1010 C1012 1.478 . S
C1011 H1005 0.930 . S
C1011 C1007 1.400 . S
C1011 C1010 1.385 . S
C1012 C1010 1.478 . S
C1012 C1014 1.381 . S
C1012 C1018 1.383 . S
C1013 C1009 1.495 . S
C1013 H1019 0.959 . S
C1013 H1020 0.961 . S
C1013 H1021 0.960 . S
C1014 C1012 1.381 . S
C1014 C1015 1.394 . S
C1014 H1022 0.930 . S
C1015 C1014 1.394 . S
C1015 C1016 1.383 . S
C1015 H1023 0.929 . S
C1016 C1015 1.383 . S
C1016 C1017 1.377 . S
C1017 H1001 0.930 . S
C1017 C1016 1.377 . S
C1017 C1018 1.379 . S
C1018 H1002 0.931 . S
C1018 C1012 1.383 . S
C1018 C1017 1.379 . S
H1019 C1013 0.959 . S
H1020 C1013 0.961 . S
H1021 C1013 0.960 . S
H1022 C1014 0.930 . S
H1023 C1015 0.929 . S
H1024 C1032 0.929 . S
H1025 C1034 0.930 . S
H1026 C1036 0.930 . S
H1027 C1039 0.929 . S
H1028 C1042 0.930 . S
H1029 C1044 0.960 . S
H1030 C1044 0.960 . S
H1031 C1044 0.960 . S
C1032 H1024 0.929 . S
C1032 C1033 1.377 . S
C1032 C1034 1.384 . S
C1033 C1032 1.377 . S
C1033 C1039 1.390 . S
C1034 H1025 0.930 . S
C1034 C1032 1.384 . S
C1034 C1035 1.372 . S
C1035 C1034 1.372 . S
C1035 C1036 1.400 . S
C1035 C1040 1.490 . S
C1036 H1026 0.930 . S
C1036 C1035 1.400 . S
C1036 C1039 1.386 . S
H1037 C1053 0.930 . S
H1038 C1054 0.931 . S
C1039 H1027 0.929 . S
C1039 C1033 1.390 . S
C1039 C1036 1.386 . S
C1040 C1035 1.490 . S
C1040 C1042 1.395 . S
C1040 C1043 1.403 . S
H1041 C1047 0.930 . S
C1042 H1028 0.930 . S
C1042 C1040 1.395 . S
C1042 C1045 1.403 . S
C1043 C1040 1.403 . S
C1043 C1044 1.524 . S
C1043 C1047 1.400 . S
C1044 H1029 0.960 . S
C1044 H1030 0.960 . S
C1044 H1031 0.960 . S
C1044 C1043 1.524 . S
C1045 C1042 1.403 . S
C1045 C1046 1.392 . S
C1045 C1049 1.495 . S
C1046 C1045 1.392 . S
C1046 C1047 1.385 . S
C1046 C1048 1.478 . S
C1047 H1041 0.930 . S
C1047 C1043 1.400 . S
C1047 C1046 1.385 . S
C1048 C1046 1.478 . S
C1048 C1050 1.381 . S
C1048 C1054 1.383 . S
C1049 C1045 1.495 . S
C1049 H1055 0.959 . S
C1049 H1056 0.961 . S
C1049 H1057 0.960 . S
C1050 C1048 1.381 . S
C1050 C1051 1.394 . S
C1050 H1058 0.930 . S
C1051 C1050 1.394 . S
C1051 C1052 1.383 . S
C1051 H1059 0.929 . S
C1052 C1051 1.383 . S
C1052 C1053 1.377 . S
C1053 H1037 0.930 . S
C1053 C1052 1.377 . S
C1053 C1054 1.379 . S
C1054 H1038 0.931 . S
C1054 C1048 1.383 . S
C1054 C1053 1.379 . S
H1055 C1049 0.959 . S
H1056 C1049 0.961 . S
H1057 C1049 0.960 . S
H1058 C1050 0.930 . S
H1059 C1051 0.929 . S
H1060 C1068 0.929 . S
H1061 C1070 0.930 . S
H1062 C1072 0.930 . S
H1063 C1075 0.929 . S
H1064 C1078 0.930 . S
H1065 C1080 0.960 . S
H1066 C1080 0.960 . S
H1067 C1080 0.960 . S
C1068 H1060 0.929 . S
C1068 C1069 1.377 . S
C1068 C1070 1.384 . S
C1069 C1068 1.377 . S
C1069 C1075 1.390 . S
C1070 H1061 0.930 . S
C1070 C1068 1.384 . S
C1070 C1071 1.372 . S
C1071 C1070 1.372 . S
C1071 C1072 1.400 . S
C1071 C1076 1.490 . S
C1072 H1062 0.930 . S
C1072 C1071 1.400 . S
C1072 C1075 1.386 . S
H1073 C1089 0.930 . S
H1074 C1090 0.931 . S
C1075 H1063 0.929 . S
C1075 C1069 1.390 . S
C1075 C1072 1.386 . S
C1076 C1071 1.490 . S
C1076 C1078 1.395 . S
C1076 C1079 1.403 . S
H1077 C1083 0.930 . S
C1078 H1064 0.930 . S
C1078 C1076 1.395 . S
C1078 C1081 1.403 . S
C1079 C1076 1.403 . S
C1079 C1080 1.524 . S
C1079 C1083 1.400 . S
C1080 H1065 0.960 . S
C1080 H1066 0.960 . S
C1080 H1067 0.960 . S
C1080 C1079 1.524 . S
C1081 C1078 1.403 . S
C1081 C1082 1.392 . S
C1081 C1085 1.495 . S
C1082 C1081 1.392 . S
C1082 C1083 1.385 . S
C1082 C1084 1.478 . S
C1083 H1077 0.930 . S
C1083 C1079 1.400 . S
C1083 C1082 1.385 . S
C1084 C1082 1.478 . S
C1084 C1086 1.381 . S
C1084 C1090 1.383 . S
C1085 C1081 1.495 . S
C1085 H1091 0.959 . S
C1085 H1092 0.961 . S
C1085 H1093 0.960 . S
C1086 C1084 1.381 . S
C1086 C1087 1.394 . S
C1086 H1094 0.930 . S
C1087 C1086 1.394 . S
C1087 C1088 1.383 . S
C1087 H1095 0.929 . S
C1088 C1087 1.383 . S
C1088 C1089 1.377 . S
C1089 H1073 0.930 . S
C1089 C1088 1.377 . S
C1089 C1090 1.379 . S
C1090 H1074 0.931 . S
C1090 C1084 1.383 . S
C1090 C1089 1.379 . S
H1091 C1085 0.959 . S
H1092 C1085 0.961 . S
H1093 C1085 0.960 . S
H1094 C1086 0.930 . S
H1095 C1087 0.929 . S
H1096 C1104 0.929 . S
H1097 C1106 0.930 . S
H1098 C1108 0.930 . S
H1099 C1111 0.929 . S
H1100 C1114 0.930 . S
H1101 C1116 0.960 . S
H1102 C1116 0.960 . S
H1103 C1116 0.960 . S
C1104 H1096 0.929 . S
C1104 C1105 1.377 . S
C1104 C1106 1.384 . S
C1105 C1104 1.377 . S
C1105 C1111 1.390 . S
C1106 H1097 0.930 . S
C1106 C1104 1.384 . S
C1106 C1107 1.372 . S
C1107 C1106 1.372 . S
C1107 C1108 1.400 . S
C1107 C1112 1.490 . S
C1108 H1098 0.930 . S
C1108 C1107 1.400 . S
C1108 C1111 1.386 . S
H1109 C1125 0.930 . S
H1110 C1126 0.931 . S
C1111 H1099 0.929 . S
C1111 C1105 1.390 . S
C1111 C1108 1.386 . S
C1112 C1107 1.490 . S
C1112 C1114 1.395 . S
C1112 C1115 1.403 . S
H1113 C1119 0.930 . S
C1114 H1100 0.930 . S
C1114 C1112 1.395 . S
C1114 C1117 1.403 . S
C1115 C1112 1.403 . S
C1115 C1116 1.524 . S
C1115 C1119 1.400 . S
C1116 H1101 0.960 . S
C1116 H1102 0.960 . S
C1116 H1103 0.960 . S
C1116 C1115 1.524 . S
C1117 C1114 1.403 . S
C1117 C1118 1.392 . S
C1117 C1121 1.495 . S
C1118 C1117 1.392 . S
C1118 C1119 1.385 . S
C1118 C1120 1.478 . S
C1119 H1113 0.930 . S
C1119 C1115 1.400 . S
C1119 C1118 1.385 . S
C1120 C1118 1.478 . S
C1120 C1122 1.381 . S
C1120 C1126 1.383 . S
C1121 C1117 1.495 . S
C1121 H1127 0.959 . S
C1121 H1128 0.961 . S
C1121 H1129 0.960 . S
C1122 C1120 1.381 . S
C1122 C1123 1.394 . S
C1122 H1130 0.930 . S
C1123 C1122 1.394 . S
C1123 C1124 1.383 . S
C1123 H1131 0.929 . S
C1124 C1123 1.383 . S
C1124 C1125 1.377 . S
C1125 H1109 0.930 . S
C1125 C1124 1.377 . S
C1125 C1126 1.379 . S
C1126 H1110 0.931 . S
C1126 C1120 1.383 . S
C1126 C1125 1.379 . S
H1127 C1121 0.959 . S
H1128 C1121 0.961 . S
H1129 C1121 0.960 . S
H1130 C1122 0.930 . S
H1131 C1123 0.929 . S
H1132 C1140 0.929 . S
H1133 C1142 0.930 . S
H1134 C1144 0.930 . S
H1135 C1147 0.929 . S
H1136 C1150 0.930 . S
H1137 C1152 0.960 . S
H1138 C1152 0.960 . S
H1139 C1152 0.960 . S
C1140 H1132 0.929 . S
C1140 C1141 1.377 . S
C1140 C1142 1.384 . S
C1141 C1140 1.377 . S
C1141 C1147 1.390 . S
C1142 H1133 0.930 . S
C1142 C1140 1.384 . S
C1142 C1143 1.372 . S
C1143 C1142 1.372 . S
C1143 C1144 1.400 . S
C1143 C1148 1.490 . S
C1144 H1134 0.930 . S
C1144 C1143 1.400 . S
C1144 C1147 1.386 . S
H1145 C1161 0.930 . S
H1146 C1162 0.931 . S
C1147 H1135 0.929 . S
C1147 C1141 1.390 . S
C1147 C1144 1.386 . S
C1148 C1143 1.490 . S
C1148 C1150 1.395 . S
C1148 C1151 1.403 . S
H1149 C1155 0.930 . S
C1150 H1136 0.930 . S
C1150 C1148 1.395 . S
C1150 C1153 1.403 . S
C1151 C1148 1.403 . S
C1151 C1152 1.524 . S
C1151 C1155 1.400 . S
C1152 H1137 0.960 . S
C1152 H1138 0.960 . S
C1152 H1139 0.960 . S
C1152 C1151 1.524 . S
C1153 C1150 1.403 . S
C1153 C1154 1.392 . S
C1153 C1157 1.495 . S
C1154 C1153 1.392 . S
C1154 C1155 1.385 . S
C1154 C1156 1.478 . S
C1155 H1149 0.930 . S
C1155 C1151 1.400 . S
C1155 C1154 1.385 . S
C1156 C1154 1.478 . S
C1156 C1158 1.381 . S
C1156 C1162 1.383 . S
C1157 C1153 1.495 . S
C1157 H1163 0.959 . S
C1157 H1164 0.961 . S
C1157 H1165 0.960 . S
C1158 C1156 1.381 . S
C1158 C1159 1.394 . S
C1158 H1166 0.930 . S
C1159 C1158 1.394 . S
C1159 C1160 1.383 . S
C1159 H1167 0.929 . S
C1160 C1159 1.383 . S
C1160 C1161 1.377 . S
C1161 H1145 0.930 . S
C1161 C1160 1.377 . S
C1161 C1162 1.379 . S
C1162 H1146 0.931 . S
C1162 C1156 1.383 . S
C1162 C1161 1.379 . S
H1163 C1157 0.959 . S
H1164 C1157 0.961 . S
H1165 C1157 0.960 . S
H1166 C1158 0.930 . S
H1167 C1159 0.929 . S
H1168 C1176 0.929 . S
H1169 C1178 0.930 . S
H1170 C1180 0.930 . S
H1171 C1183 0.929 . S
H1172 C1186 0.930 . S
H1173 C1188 0.960 . S
H1174 C1188 0.960 . S
H1175 C1188 0.960 . S
C1176 H1168 0.929 . S
C1176 C1177 1.377 . S
C1176 C1178 1.384 . S
C1177 C1176 1.377 . S
C1177 C1183 1.390 . S
C1178 H1169 0.930 . S
C1178 C1176 1.384 . S
C1178 C1179 1.372 . S
C1179 C1178 1.372 . S
C1179 C1180 1.400 . S
C1179 C1184 1.490 . S
C1180 H1170 0.930 . S
C1180 C1179 1.400 . S
C1180 C1183 1.386 . S
H1181 C1197 0.930 . S
H1182 C1198 0.931 . S
C1183 H1171 0.929 . S
C1183 C1177 1.390 . S
C1183 C1180 1.386 . S
C1184 C1179 1.490 . S
C1184 C1186 1.395 . S
C1184 C1187 1.403 . S
H1185 C1191 0.930 . S
C1186 H1172 0.930 . S
C1186 C1184 1.395 . S
C1186 C1189 1.403 . S
C1187 C1184 1.403 . S
C1187 C1188 1.524 . S
C1187 C1191 1.400 . S
C1188 H1173 0.960 . S
C1188 H1174 0.960 . S
C1188 H1175 0.960 . S
C1188 C1187 1.524 . S
C1189 C1186 1.403 . S
C1189 C1190 1.392 . S
C1189 C1193 1.495 . S
C1190 C1189 1.392 . S
C1190 C1191 1.385 . S
C1190 C1192 1.478 . S
C1191 H1185 0.930 . S
C1191 C1187 1.400 . S
C1191 C1190 1.385 . S
C1192 C1190 1.478 . S
C1192 C1194 1.381 . S
C1192 C1198 1.383 . S
C1193 C1189 1.495 . S
C1193 H1199 0.959 . S
C1193 H1200 0.961 . S
C1193 H1201 0.960 . S
C1194 C1192 1.381 . S
C1194 C1195 1.394 . S
C1194 H1202 0.930 . S
C1195 C1194 1.394 . S
C1195 C1196 1.383 . S
C1195 H1203 0.929 . S
C1196 C1195 1.383 . S
C1196 C1197 1.377 . S
C1197 H1181 0.930 . S
C1197 C1196 1.377 . S
C1197 C1198 1.379 . S
C1198 H1182 0.931 . S
C1198 C1192 1.383 . S
C1198 C1197 1.379 . S
H1199 C1193 0.959 . S
H1200 C1193 0.961 . S
H1201 C1193 0.960 . S
H1202 C1194 0.930 . S
H1203 C1195 0.929 . S
H1204 C1212 0.929 . S
H1205 C1214 0.930 . S
H1206 C1216 0.930 . S
H1207 C1219 0.929 . S
H1208 C1222 0.930 . S
H1209 C1224 0.960 . S
H1210 C1224 0.960 . S
H1211 C1224 0.960 . S
C1212 H1204 0.929 . S
C1212 C1213 1.377 . S
C1212 C1214 1.384 . S
C1213 C1212 1.377 . S
C1213 C1219 1.390 . S
C1214 H1205 0.930 . S
C1214 C1212 1.384 . S
C1214 C1215 1.372 . S
C1215 C1214 1.372 . S
C1215 C1216 1.400 . S
C1215 C1220 1.490 . S
C1216 H1206 0.930 . S
C1216 C1215 1.400 . S
C1216 C1219 1.386 . S
H1217 C1233 0.930 . S
H1218 C1234 0.931 . S
C1219 H1207 0.929 . S
C1219 C1213 1.390 . S
C1219 C1216 1.386 . S
C1220 C1215 1.490 . S
C1220 C1222 1.395 . S
C1220 C1223 1.403 . S
H1221 C1227 0.930 . S
C1222 H1208 0.930 . S
C1222 C1220 1.395 . S
C1222 C1225 1.403 . S
C1223 C1220 1.403 . S
C1223 C1224 1.524 . S
C1223 C1227 1.400 . S
C1224 H1209 0.960 . S
C1224 H1210 0.960 . S
C1224 H1211 0.960 . S
C1224 C1223 1.524 . S
C1225 C1222 1.403 . S
C1225 C1226 1.392 . S
C1225 C1229 1.495 . S
C1226 C1225 1.392 . S
C1226 C1227 1.385 . S
C1226 C1228 1.478 . S
C1227 H1221 0.930 . S
C1227 C1223 1.400 . S
C1227 C1226 1.385 . S
C1228 C1226 1.478 . S
C1228 C1230 1.381 . S
C1228 C1234 1.383 . S
C1229 C1225 1.495 . S
C1229 H1235 0.959 . S
C1229 H1236 0.961 . S
C1229 H1237 0.960 . S
C1230 C1228 1.381 . S
C1230 C1231 1.394 . S
C1230 H1238 0.930 . S
C1231 C1230 1.394 . S
C1231 C1232 1.383 . S
C1231 H1239 0.929 . S
C1232 C1231 1.383 . S
C1232 C1233 1.377 . S
C1233 H1217 0.930 . S
C1233 C1232 1.377 . S
C1233 C1234 1.379 . S
C1234 H1218 0.931 . S
C1234 C1228 1.383 . S
C1234 C1233 1.379 . S
H1235 C1229 0.959 . S
H1236 C1229 0.961 . S
H1237 C1229 0.960 . S
H1238 C1230 0.930 . S
H1239 C1231 0.929 . S
H1240 C1248 0.929 . S
H1241 C1250 0.930 . S
H1242 C1252 0.930 . S
H1243 C1255 0.929 . S
H1244 C1258 0.930 . S
H1245 C1260 0.960 . S
H1246 C1260 0.960 . S
H1247 C1260 0.960 . S
C1248 H1240 0.929 . S
C1248 C1249 1.377 . S
C1248 C1250 1.384 . S
C1249 C1248 1.377 . S
C1249 C1255 1.390 . S
C1250 H1241 0.930 . S
C1250 C1248 1.384 . S
C1250 C1251 1.372 . S
C1251 C1250 1.372 . S
C1251 C1252 1.400 . S
C1251 C1256 1.490 . S
C1252 H1242 0.930 . S
C1252 C1251 1.400 . S
C1252 C1255 1.386 . S
H1253 C1269 0.930 . S
H1254 C1270 0.931 . S
C1255 H1243 0.929 . S
C1255 C1249 1.390 . S
C1255 C1252 1.386 . S
C1256 C1251 1.490 . S
C1256 C1258 1.395 . S
C1256 C1259 1.403 . S
H1257 C1263 0.930 . S
C1258 H1244 0.930 . S
C1258 C1256 1.395 . S
C1258 C1261 1.403 . S
C1259 C1256 1.403 . S
C1259 C1260 1.524 . S
C1259 C1263 1.400 . S
C1260 H1245 0.960 . S
C1260 H1246 0.960 . S
C1260 H1247 0.960 . S
C1260 C1259 1.524 . S
C1261 C1258 1.403 . S
C1261 C1262 1.392 . S
C1261 C1265 1.495 . S
C1262 C1261 1.392 . S
C1262 C1263 1.385 . S
C1262 C1264 1.478 . S
C1263 H1257 0.930 . S
C1263 C1259 1.400 . S
C1263 C1262 1.385 . S
C1264 C1262 1.478 . S
C1264 C1266 1.381 . S
C1264 C1270 1.383 . S
C1265 C1261 1.495 . S
C1265 H1271 0.959 . S
C1265 H1272 0.961 . S
C1265 H1273 0.960 . S
C1266 C1264 1.381 . S
C1266 C1267 1.394 . S
C1266 H1274 0.930 . S
C1267 C1266 1.394 . S
C1267 C1268 1.383 . S
C1267 H1275 0.929 . S
C1268 C1267 1.383 . S
C1268 C1269 1.377 . S
C1269 H1253 0.930 . S
C1269 C1268 1.377 . S
C1269 C1270 1.379 . S
C1270 H1254 0.931 . S
C1270 C1264 1.383 . S
C1270 C1269 1.379 . S
H1271 C1265 0.959 . S
H1272 C1265 0.961 . S
H1273 C1265 0.960 . S
H1274 C1266 0.930 . S
H1275 C1267 0.929 . S
H1276 C1284 0.929 . S
H1277 C1286 0.930 . S
H1278 C1288 0.930 . S
H1279 C1291 0.929 . S
H1280 C1294 0.930 . S
H1281 C1296 0.960 . S
H1282 C1296 0.960 . S
H1283 C1296 0.960 . S
C1284 H1276 0.929 . S
C1284 C1285 1.377 . S
C1284 C1286 1.384 . S
C1285 C1284 1.377 . S
C1285 C1291 1.390 . S
C1286 H1277 0.930 . S
C1286 C1284 1.384 . S
C1286 C1287 1.372 . S
C1287 C1286 1.372 . S
C1287 C1288 1.400 . S
C1287 C1292 1.490 . S
C1288 H1278 0.930 . S
C1288 C1287 1.400 . S
C1288 C1291 1.386 . S
H1289 C1305 0.930 . S
H1290 C1306 0.931 . S
C1291 H1279 0.929 . S
C1291 C1285 1.390 . S
C1291 C1288 1.386 . S
C1292 C1287 1.490 . S
C1292 C1294 1.395 . S
C1292 C1295 1.403 . S
H1293 C1299 0.930 . S
C1294 H1280 0.930 . S
C1294 C1292 1.395 . S
C1294 C1297 1.403 . S
C1295 C1292 1.403 . S
C1295 C1296 1.524 . S
C1295 C1299 1.400 . S
C1296 H1281 0.960 . S
C1296 H1282 0.960 . S
C1296 H1283 0.960 . S
C1296 C1295 1.524 . S
C1297 C1294 1.403 . S
C1297 C1298 1.392 . S
C1297 C1301 1.495 . S
C1298 C1297 1.392 . S
C1298 C1299 1.385 . S
C1298 C1300 1.478 . S
C1299 H1293 0.930 . S
C1299 C1295 1.400 . S
C1299 C1298 1.385 . S
C1300 C1298 1.478 . S
C1300 C1302 1.381 . S
C1300 C1306 1.383 . S
C1301 C1297 1.495 . S
C1301 H1307 0.959 . S
C1301 H1308 0.961 . S
C1301 H1309 0.960 . S
C1302 C1300 1.381 . S
C1302 C1303 1.394 . S
C1302 H1310 0.930 . S
C1303 C1302 1.394 . S
C1303 C1304 1.383 . S
C1303 H1311 0.929 . S
C1304 C1303 1.383 . S
C1304 C1305 1.377 . S
C1305 H1289 0.930 . S
C1305 C1304 1.377 . S
C1305 C1306 1.379 . S
C1306 H1290 0.931 . S
C1306 C1300 1.383 . S
C1306 C1305 1.379 . S
H1307 C1301 0.959 . S
H1308 C1301 0.961 . S
H1309 C1301 0.960 . S
H1310 C1302 0.930 . S
H1311 C1303 0.929 . S
H1312 C1320 0.929 . S
H1313 C1322 0.930 . S
H1314 C1324 0.930 . S
H1315 C1327 0.929 . S
H1316 C1330 0.930 . S
H1317 C1332 0.960 . S
H1318 C1332 0.960 . S
H1319 C1332 0.960 . S
C1320 H1312 0.929 . S
C1320 C1321 1.377 . S
C1320 C1322 1.384 . S
C1321 C1320 1.377 . S
C1321 C1327 1.390 . S
C1322 H1313 0.930 . S
C1322 C1320 1.384 . S
C1322 C1323 1.372 . S
C1323 C1322 1.372 . S
C1323 C1324 1.400 . S
C1323 C1328 1.490 . S
C1324 H1314 0.930 . S
C1324 C1323 1.400 . S
C1324 C1327 1.386 . S
H1325 C1341 0.930 . S
H1326 C1342 0.931 . S
C1327 H1315 0.929 . S
C1327 C1321 1.390 . S
C1327 C1324 1.386 . S
C1328 C1323 1.490 . S
C1328 C1330 1.395 . S
C1328 C1331 1.403 . S
H1329 C1335 0.930 . S
C1330 H1316 0.930 . S
C1330 C1328 1.395 . S
C1330 C1333 1.403 . S
C1331 C1328 1.403 . S
C1331 C1332 1.524 . S
C1331 C1335 1.400 . S
C1332 H1317 0.960 . S
C1332 H1318 0.960 . S
C1332 H1319 0.960 . S
C1332 C1331 1.524 . S
C1333 C1330 1.403 . S
C1333 C1334 1.392 . S
C1333 C1337 1.495 . S
C1334 C1333 1.392 . S
C1334 C1335 1.385 . S
C1334 C1336 1.478 . S
C1335 H1329 0.930 . S
C1335 C1331 1.400 . S
C1335 C1334 1.385 . S
C1336 C1334 1.478 . S
C1336 C1338 1.381 . S
C1336 C1342 1.383 . S
C1337 C1333 1.495 . S
C1337 H1343 0.959 . S
C1337 H1344 0.961 . S
C1337 H1345 0.960 . S
C1338 C1336 1.381 . S
C1338 C1339 1.394 . S
C1338 H1346 0.930 . S
C1339 C1338 1.394 . S
C1339 C1340 1.383 . S
C1339 H1347 0.929 . S
C1340 C1339 1.383 . S
C1340 C1341 1.377 . S
C1341 H1325 0.930 . S
C1341 C1340 1.377 . S
C1341 C1342 1.379 . S
C1342 H1326 0.931 . S
C1342 C1336 1.383 . S
C1342 C1341 1.379 . S
H1343 C1337 0.959 . S
H1344 C1337 0.961 . S
H1345 C1337 0.960 . S
H1346 C1338 0.930 . S
H1347 C1339 0.929 . S
H1348 C1356 0.929 . S
H1349 C1358 0.930 . S
H1350 C1360 0.930 . S
H1351 C1363 0.929 . S
H1352 C1366 0.930 . S
H1353 C1368 0.960 . S
H1354 C1368 0.960 . S
H1355 C1368 0.960 . S
C1356 H1348 0.929 . S
C1356 C1357 1.377 . S
C1356 C1358 1.384 . S
C1357 C1356 1.377 . S
C1357 C1363 1.390 . S
C1358 H1349 0.930 . S
C1358 C1356 1.384 . S
C1358 C1359 1.372 . S
C1359 C1358 1.372 . S
C1359 C1360 1.400 . S
C1359 C1364 1.490 . S
C1360 H1350 0.930 . S
C1360 C1359 1.400 . S
C1360 C1363 1.386 . S
H1361 C1377 0.930 . S
H1362 C1378 0.931 . S
C1363 H1351 0.929 . S
C1363 C1357 1.390 . S
C1363 C1360 1.386 . S
C1364 C1359 1.490 . S
C1364 C1366 1.395 . S
C1364 C1367 1.403 . S
H1365 C1371 0.930 . S
C1366 H1352 0.930 . S
C1366 C1364 1.395 . S
C1366 C1369 1.403 . S
C1367 C1364 1.403 . S
C1367 C1368 1.524 . S
C1367 C1371 1.400 . S
C1368 H1353 0.960 . S
C1368 H1354 0.960 . S
C1368 H1355 0.960 . S
C1368 C1367 1.524 . S
C1369 C1366 1.403 . S
C1369 C1370 1.392 . S
C1369 C1373 1.495 . S
C1370 C1369 1.392 . S
C1370 C1371 1.385 . S
C1370 C1372 1.478 . S
C1371 H1365 0.930 . S
C1371 C1367 1.400 . S
C1371 C1370 1.385 . S
C1372 C1370 1.478 . S
C1372 C1374 1.381 . S
C1372 C1378 1.383 . S
C1373 C1369 1.495 . S
C1373 H1379 0.959 . S
C1373 H1380 0.961 . S
C1373 H1381 0.960 . S
C1374 C1372 1.381 . S
C1374 C1375 1.394 . S
C1374 H1382 0.930 . S
C1375 C1374 1.394 . S
C1375 C1376 1.383 . S
C1375 H1383 0.929 . S
C1376 C1375 1.383 . S
C1376 C1377 1.377 . S
C1377 H1361 0.930 . S
C1377 C1376 1.377 . S
C1377 C1378 1.379 . S
C1378 H1362 0.931 . S
C1378 C1372 1.383 . S
C1378 C1377 1.379 . S
H1379 C1373 0.959 . S
H1380 C1373 0.961 . S
H1381 C1373 0.960 . S
H1382 C1374 0.930 . S
H1383 C1375 0.929 . S
H1384 C1392 0.929 . S
H1385 C1394 0.930 . S
H1386 C1396 0.930 . S
H1387 C1399 0.929 . S
H1388 C1402 0.930 . S
H1389 C1404 0.960 . S
H1390 C1404 0.960 . S
H1391 C1404 0.960 . S
C1392 H1384 0.929 . S
C1392 C1393 1.377 . S
C1392 C1394 1.384 . S
C1393 C1392 1.377 . S
C1393 C1399 1.390 . S
C1394 H1385 0.930 . S
C1394 C1392 1.384 . S
C1394 C1395 1.372 . S
C1395 C1394 1.372 . S
C1395 C1396 1.400 . S
C1395 C1400 1.490 . S
C1396 H1386 0.930 . S
C1396 C1395 1.400 . S
C1396 C1399 1.386 . S
H1397 C1413 0.930 . S
H1398 C1414 0.931 . S
C1399 H1387 0.929 . S
C1399 C1393 1.390 . S
C1399 C1396 1.386 . S
C1400 C1395 1.490 . S
C1400 C1402 1.395 . S
C1400 C1403 1.403 . S
H1401 C1407 0.930 . S
C1402 H1388 0.930 . S
C1402 C1400 1.395 . S
C1402 C1405 1.403 . S
C1403 C1400 1.403 . S
C1403 C1404 1.524 . S
C1403 C1407 1.400 . S
C1404 H1389 0.960 . S
C1404 H1390 0.960 . S
C1404 H1391 0.960 . S
C1404 C1403 1.524 . S
C1405 C1402 1.403 . S
C1405 C1406 1.392 . S
C1405 C1409 1.495 . S
C1406 C1405 1.392 . S
C1406 C1407 1.385 . S
C1406 C1408 1.478 . S
C1407 H1401 0.930 . S
C1407 C1403 1.400 . S
C1407 C1406 1.385 . S
C1408 C1406 1.478 . S
C1408 C1410 1.381 . S
C1408 C1414 1.383 . S
C1409 C1405 1.495 . S
C1409 H1415 0.959 . S
C1409 H1416 0.961 . S
C1409 H1417 0.960 . S
C1410 C1408 1.381 . S
C1410 C1411 1.394 . S
C1410 H1418 0.930 . S
C1411 C1410 1.394 . S
C1411 C1412 1.383 . S
C1411 H1419 0.929 . S
C1412 C1411 1.383 . S
C1412 C1413 1.377 . S
C1413 H1397 0.930 . S
C1413 C1412 1.377 . S
C1413 C1414 1.379 . S
C1414 H1398 0.931 . S
C1414 C1408 1.383 . S
C1414 C1413 1.379 . S
H1415 C1409 0.959 . S
H1416 C1409 0.961 . S
H1417 C1409 0.960 . S
H1418 C1410 0.930 . S
H1419 C1411 0.929 . S
H1420 C1428 0.929 . S
H1421 C1430 0.930 . S
H1422 C1432 0.930 . S
H1423 C1435 0.929 . S
H1424 C1438 0.930 . S
H1425 C1440 0.960 . S
H1426 C1440 0.960 . S
H1427 C1440 0.960 . S
C1428 H1420 0.929 . S
C1428 C1429 1.377 . S
C1428 C1430 1.384 . S
C1429 C1428 1.377 . S
C1429 C1435 1.390 . S
C1430 H1421 0.930 . S
C1430 C1428 1.384 . S
C1430 C1431 1.372 . S
C1431 C1430 1.372 . S
C1431 C1432 1.400 . S
C1431 C1436 1.490 . S
C1432 H1422 0.930 . S
C1432 C1431 1.400 . S
C1432 C1435 1.386 . S
H1433 C1449 0.930 . S
H1434 C1450 0.931 . S
C1435 H1423 0.929 . S
C1435 C1429 1.390 . S
C1435 C1432 1.386 . S
C1436 C1431 1.490 . S
C1436 C1438 1.395 . S
C1436 C1439 1.403 . S
H1437 C1443 0.930 . S
C1438 H1424 0.930 . S
C1438 C1436 1.395 . S
C1438 C1441 1.403 . S
C1439 C1436 1.403 . S
C1439 C1440 1.524 . S
C1439 C1443 1.400 . S
C1440 H1425 0.960 . S
C1440 H1426 0.960 . S
C1440 H1427 0.960 . S
C1440 C1439 1.524 . S
C1441 C1438 1.403 . S
C1441 C1442 1.392 . S
C1441 C1445 1.495 . S
C1442 C1441 1.392 . S
C1442 C1443 1.385 . S
C1442 C1444 1.478 . S
C1443 H1437 0.930 . S
C1443 C1439 1.400 . S
C1443 C1442 1.385 . S
C1444 C1442 1.478 . S
C1444 C1446 1.381 . S
C1444 C1450 1.383 . S
C1445 C1441 1.495 . S
C1445 H1451 0.959 . S
C1445 H1452 0.961 . S
C1445 H1453 0.960 . S
C1446 C1444 1.381 . S
C1446 C1447 1.394 . S
C1446 H1454 0.930 . S
C1447 C1446 1.394 . S
C1447 C1448 1.383 . S
C1447 H1455 0.929 . S
C1448 C1447 1.383 . S
C1448 C1449 1.377 . S
C1449 H1433 0.930 . S
C1449 C1448 1.377 . S
C1449 C1450 1.379 . S
C1450 H1434 0.931 . S
C1450 C1444 1.383 . S
C1450 C1449 1.379 . S
H1451 C1445 0.959 . S
H1452 C1445 0.961 . S
H1453 C1445 0.960 . S
H1454 C1446 0.930 . S
H1455 C1447 0.929 . S
H1456 C1464 0.929 . S
H1457 C1466 0.930 . S
H1458 C1468 0.930 . S
H1459 C1471 0.929 . S
H1460 C1474 0.930 . S
H1461 C1476 0.960 . S
H1462 C1476 0.960 . S
H1463 C1476 0.960 . S
C1464 H1456 0.929 . S
C1464 C1465 1.377 . S
C1464 C1466 1.384 . S
C1465 C1464 1.377 . S
C1465 C1471 1.390 . S
C1466 H1457 0.930 . S
C1466 C1464 1.384 . S
C1466 C1467 1.372 . S
C1467 C1466 1.372 . S
C1467 C1468 1.400 . S
C1467 C1472 1.490 . S
C1468 H1458 0.930 . S
C1468 C1467 1.400 . S
C1468 C1471 1.386 . S
H1469 C1485 0.930 . S
H1470 C1486 0.931 . S
C1471 H1459 0.929 . S
C1471 C1465 1.390 . S
C1471 C1468 1.386 . S
C1472 C1467 1.490 . S
C1472 C1474 1.395 . S
C1472 C1475 1.403 . S
H1473 C1479 0.930 . S
C1474 H1460 0.930 . S
C1474 C1472 1.395 . S
C1474 C1477 1.403 . S
C1475 C1472 1.403 . S
C1475 C1476 1.524 . S
C1475 C1479 1.400 . S
C1476 H1461 0.960 . S
C1476 H1462 0.960 . S
C1476 H1463 0.960 . S
C1476 C1475 1.524 . S
C1477 C1474 1.403 . S
C1477 C1478 1.392 . S
C1477 C1481 1.495 . S
C1478 C1477 1.392 . S
C1478 C1479 1.385 . S
C1478 C1480 1.478 . S
C1479 H1473 0.930 . S
C1479 C1475 1.400 . S
C1479 C1478 1.385 . S
C1480 C1478 1.478 . S
C1480 C1482 1.381 . S
C1480 C1486 1.383 . S
C1481 C1477 1.495 . S
C1481 H1487 0.959 . S
C1481 H1488 0.961 . S
C1481 H1489 0.960 . S
C1482 C1480 1.381 . S
C1482 C1483 1.394 . S
C1482 H1490 0.930 . S
C1483 C1482 1.394 . S
C1483 C1484 1.383 . S
C1483 H1491 0.929 . S
C1484 C1483 1.383 . S
C1484 C1485 1.377 . S
C1485 H1469 0.930 . S
C1485 C1484 1.377 . S
C1485 C1486 1.379 . S
C1486 H1470 0.931 . S
C1486 C1480 1.383 . S
C1486 C1485 1.379 . S
H1487 C1481 0.959 . S
H1488 C1481 0.961 . S
H1489 C1481 0.960 . S
H1490 C1482 0.930 . S
H1491 C1483 0.929 . S
H1492 C1500 0.929 . S
H1493 C1502 0.930 . S
H1494 C1504 0.930 . S
H1495 C1507 0.929 . S
H1496 C1510 0.930 . S
H1497 C1512 0.960 . S
H1498 C1512 0.960 . S
H1499 C1512 0.960 . S
C1500 H1492 0.929 . S
C1500 C1501 1.377 . S
C1500 C1502 1.384 . S
C1501 C1500 1.377 . S
C1501 C1507 1.390 . S
C1502 H1493 0.930 . S
C1502 C1500 1.384 . S
C1502 C1503 1.372 . S
C1503 C1502 1.372 . S
C1503 C1504 1.400 . S
C1503 C1508 1.490 . S
C1504 H1494 0.930 . S
C1504 C1503 1.400 . S
C1504 C1507 1.386 . S
H1505 C1521 0.930 . S
H1506 C1522 0.931 . S
C1507 H1495 0.929 . S
C1507 C1501 1.390 . S
C1507 C1504 1.386 . S
C1508 C1503 1.490 . S
C1508 C1510 1.395 . S
C1508 C1511 1.403 . S
H1509 C1515 0.930 . S
C1510 H1496 0.930 . S
C1510 C1508 1.395 . S
C1510 C1513 1.403 . S
C1511 C1508 1.403 . S
C1511 C1512 1.524 . S
C1511 C1515 1.400 . S
C1512 H1497 0.960 . S
C1512 H1498 0.960 . S
C1512 H1499 0.960 . S
C1512 C1511 1.524 . S
C1513 C1510 1.403 . S
C1513 C1514 1.392 . S
C1513 C1517 1.495 . S
C1514 C1513 1.392 . S
C1514 C1515 1.385 . S
C1514 C1516 1.478 . S
C1515 H1509 0.930 . S
C1515 C1511 1.400 . S
C1515 C1514 1.385 . S
C1516 C1514 1.478 . S
C1516 C1518 1.381 . S
C1516 C1522 1.383 . S
C1517 C1513 1.495 . S
C1517 H1523 0.959 . S
C1517 H1524 0.961 . S
C1517 H1525 0.960 . S
C1518 C1516 1.381 . S
C1518 C1519 1.394 . S
C1518 H1526 0.930 . S
C1519 C1518 1.394 . S
C1519 C1520 1.383 . S
C1519 H1527 0.929 . S
C1520 C1519 1.383 . S
C1520 C1521 1.377 . S
C1521 H1505 0.930 . S
C1521 C1520 1.377 . S
C1521 C1522 1.379 . S
C1522 H1506 0.931 . S
C1522 C1516 1.383 . S
C1522 C1521 1.379 . S
H1523 C1517 0.959 . S
H1524 C1517 0.961 . S
H1525 C1517 0.960 . S
H1526 C1518 0.930 . S
H1527 C1519 0.929 . S
H1528 C1536 0.929 . S
H1529 C1538 0.930 . S
H1530 C1540 0.930 . S
H1531 C1543 0.929 . S
H1532 C1546 0.930 . S
H1533 C1548 0.960 . S
H1534 C1548 0.960 . S
H1535 C1548 0.960 . S
C1536 H1528 0.929 . S
C1536 C1537 1.377 . S
C1536 C1538 1.384 . S
C1537 C1536 1.377 . S
C1537 C1543 1.390 . S
C1538 H1529 0.930 . S
C1538 C1536 1.384 . S
C1538 C1539 1.372 . S
C1539 C1538 1.372 . S
C1539 C1540 1.400 . S
C1539 C1544 1.490 . S
C1540 H1530 0.930 . S
C1540 C1539 1.400 . S
C1540 C1543 1.386 . S
H1541 C1557 0.930 . S
H1542 C1558 0.931 . S
C1543 H1531 0.929 . S
C1543 C1537 1.390 . S
C1543 C1540 1.386 . S
C1544 C1539 1.490 . S
C1544 C1546 1.395 . S
C1544 C1547 1.403 . S
H1545 C1551 0.930 . S
C1546 H1532 0.930 . S
C1546 C1544 1.395 . S
C1546 C1549 1.403 . S
C1547 C1544 1.403 . S
C1547 C1548 1.524 . S
C1547 C1551 1.400 . S
C1548 H1533 0.960 . S
C1548 H1534 0.960 . S
C1548 H1535 0.960 . S
C1548 C1547 1.524 . S
C1549 C1546 1.403 . S
C1549 C1550 1.392 . S
C1549 C1553 1.495 . S
C1550 C1549 1.392 . S
C1550 C1551 1.385 . S
C1550 C1552 1.478 . S
C1551 H1545 0.930 . S
C1551 C1547 1.400 . S
C1551 C1550 1.385 . S
C1552 C1550 1.478 . S
C1552 C1554 1.381 . S
C1552 C1558 1.383 . S
C1553 C1549 1.495 . S
C1553 H1559 0.959 . S
C1553 H1560 0.961 . S
C1553 H1561 0.960 . S
C1554 C1552 1.381 . S
C1554 C1555 1.394 . S
C1554 H1562 0.930 . S
C1555 C1554 1.394 . S
C1555 C1556 1.383 . S
C1555 H1563 0.929 . S
C1556 C1555 1.383 . S
C1556 C1557 1.377 . S
C1557 H1541 0.930 . S
C1557 C1556 1.377 . S
C1557 C1558 1.379 . S
C1558 H1542 0.931 . S
C1558 C1552 1.383 . S
C1558 C1557 1.379 . S
H1559 C1553 0.959 . S
H1560 C1553 0.961 . S
H1561 C1553 0.960 . S
H1562 C1554 0.930 . S
H1563 C1555 0.929 . S
H1564 C1572 0.929 . S
H1565 C1574 0.930 . S
H1566 C1576 0.930 . S
H1567 C1579 0.929 . S
H1568 C1582 0.930 . S
H1569 C1584 0.960 . S
H1570 C1584 0.960 . S
H1571 C1584 0.960 . S
C1572 H1564 0.929 . S
C1572 C1573 1.377 . S
C1572 C1574 1.384 . S
C1573 C1572 1.377 . S
C1573 C1579 1.390 . S
C1574 H1565 0.930 . S
C1574 C1572 1.384 . S
C1574 C1575 1.372 . S
C1575 C1574 1.372 . S
C1575 C1576 1.400 . S
C1575 C1580 1.490 . S
C1576 H1566 0.930 . S
C1576 C1575 1.400 . S
C1576 C1579 1.386 . S
H1577 C1593 0.930 . S
H1578 C1594 0.931 . S
C1579 H1567 0.929 . S
C1579 C1573 1.390 . S
C1579 C1576 1.386 . S
C1580 C1575 1.490 . S
C1580 C1582 1.395 . S
C1580 C1583 1.403 . S
H1581 C1587 0.930 . S
C1582 H1568 0.930 . S
C1582 C1580 1.395 . S
C1582 C1585 1.403 . S
C1583 C1580 1.403 . S
C1583 C1584 1.524 . S
C1583 C1587 1.400 . S
C1584 H1569 0.960 . S
C1584 H1570 0.960 . S
C1584 H1571 0.960 . S
C1584 C1583 1.524 . S
C1585 C1582 1.403 . S
C1585 C1586 1.392 . S
C1585 C1589 1.495 . S
C1586 C1585 1.392 . S
C1586 C1587 1.385 . S
C1586 C1588 1.478 . S
C1587 H1581 0.930 . S
C1587 C1583 1.400 . S
C1587 C1586 1.385 . S
C1588 C1586 1.478 . S
C1588 C1590 1.381 . S
C1588 C1594 1.383 . S
C1589 C1585 1.495 . S
C1589 H1595 0.959 . S
C1589 H1596 0.961 . S
C1589 H1597 0.960 . S
C1590 C1588 1.381 . S
C1590 C1591 1.394 . S
C1590 H1598 0.930 . S
C1591 C1590 1.394 . S
C1591 C1592 1.383 . S
C1591 H1599 0.929 . S
C1592 C1591 1.383 . S
C1592 C1593 1.377 . S
C1593 H1577 0.930 . S
C1593 C1592 1.377 . S
C1593 C1594 1.379 . S
C1594 H1578 0.931 . S
C1594 C1588 1.383 . S
C1594 C1593 1.379 . S
H1595 C1589 0.959 . S
H1596 C1589 0.961 . S
H1597 C1589 0.960 . S
H1598 C1590 0.930 . S
H1599 C1591 0.929 . S
H1600 C1608 0.929 . S
H1601 C1610 0.930 . S
H1602 C1612 0.930 . S
H1603 C1615 0.929 . S
H1604 C1618 0.930 . S
H1605 C1620 0.960 . S
H1606 C1620 0.960 . S
H1607 C1620 0.960 . S
C1608 H1600 0.929 . S
C1608 C1609 1.377 . S
C1608 C1610 1.384 . S
C1609 C1608 1.377 . S
C1609 C1615 1.390 . S
C1610 H1601 0.930 . S
C1610 C1608 1.384 . S
C1610 C1611 1.372 . S
C1611 C1610 1.372 . S
C1611 C1612 1.400 . S
C1611 C1616 1.490 . S
C1612 H1602 0.930 . S
C1612 C1611 1.400 . S
C1612 C1615 1.386 . S
H1613 C1629 0.930 . S
H1614 C1630 0.931 . S
C1615 H1603 0.929 . S
C1615 C1609 1.390 . S
C1615 C1612 1.386 . S
C1616 C1611 1.490 . S
C1616 C1618 1.395 . S
C1616 C1619 1.403 . S
H1617 C1623 0.930 . S
C1618 H1604 0.930 . S
C1618 C1616 1.395 . S
C1618 C1621 1.403 . S
C1619 C1616 1.403 . S
C1619 C1620 1.524 . S
C1619 C1623 1.400 . S
C1620 H1605 0.960 . S
C1620 H1606 0.960 . S
C1620 H1607 0.960 . S
C1620 C1619 1.524 . S
C1621 C1618 1.403 . S
C1621 C1622 1.392 . S
C1621 C1625 1.495 . S
C1622 C1621 1.392 . S
C1622 C1623 1.385 . S
C1622 C1624 1.478 . S
C1623 H1617 0.930 . S
C1623 C1619 1.400 . S
C1623 C1622 1.385 . S
C1624 C1622 1.478 . S
C1624 C1626 1.381 . S
C1624 C1630 1.383 . S
C1625 C1621 1.495 . S
C1625 H1631 0.959 . S
C1625 H1632 0.961 . S
C1625 H1633 0.960 . S
C1626 C1624 1.381 . S
C1626 C1627 1.394 . S
C1626 H1634 0.930 . S
C1627 C1626 1.394 . S
C1627 C1628 1.383 . S
C1627 H1635 0.929 . S
C1628 C1627 1.383 . S
C1628 C1629 1.377 . S
C1629 H1613 0.930 . S
C1629 C1628 1.377 . S
C1629 C1630 1.379 . S
C1630 H1614 0.931 . S
C1630 C1624 1.383 . S
C1630 C1629 1.379 . S
H1631 C1625 0.959 . S
H1632 C1625 0.961 . S
H1633 C1625 0.960 . S
H1634 C1626 0.930 . S
H1635 C1627 0.929 . S
H1636 C1644 0.929 . S
H1637 C1646 0.930 . S
H1638 C1648 0.930 . S
H1639 C1651 0.929 . S
H1640 C1654 0.930 . S
H1641 C1656 0.960 . S
H1642 C1656 0.960 . S
H1643 C1656 0.960 . S
C1644 H1636 0.929 . S
C1644 C1645 1.377 . S
C1644 C1646 1.384 . S
C1645 C1644 1.377 . S
C1645 C1651 1.390 . S
C1646 H1637 0.930 . S
C1646 C1644 1.384 . S
C1646 C1647 1.372 . S
C1647 C1646 1.372 . S
C1647 C1648 1.400 . S
C1647 C1652 1.490 . S
C1648 H1638 0.930 . S
C1648 C1647 1.400 . S
C1648 C1651 1.386 . S
H1649 C1665 0.930 . S
H1650 C1666 0.931 . S
C1651 H1639 0.929 . S
C1651 C1645 1.390 . S
C1651 C1648 1.386 . S
C1652 C1647 1.490 . S
C1652 C1654 1.395 . S
C1652 C1655 1.403 . S
H1653 C1659 0.930 . S
C1654 H1640 0.930 . S
C1654 C1652 1.395 . S
C1654 C1657 1.403 . S
C1655 C1652 1.403 . S
C1655 C1656 1.524 . S
C1655 C1659 1.400 . S
C1656 H1641 0.960 . S
C1656 H1642 0.960 . S
C1656 H1643 0.960 . S
C1656 C1655 1.524 . S
C1657 C1654 1.403 . S
C1657 C1658 1.392 . S
C1657 C1661 1.495 . S
C1658 C1657 1.392 . S
C1658 C1659 1.385 . S
C1658 C1660 1.478 . S
C1659 H1653 0.930 . S
C1659 C1655 1.400 . S
C1659 C1658 1.385 . S
C1660 C1658 1.478 . S
C1660 C1662 1.381 . S
C1660 C1666 1.383 . S
C1661 C1657 1.495 . S
C1661 H1667 0.959 . S
C1661 H1668 0.961 . S
C1661 H1669 0.960 . S
C1662 C1660 1.381 . S
C1662 C1663 1.394 . S
C1662 H1670 0.930 . S
C1663 C1662 1.394 . S
C1663 C1664 1.383 . S
C1663 H1671 0.929 . S
C1664 C1663 1.383 . S
C1664 C1665 1.377 . S
C1665 H1649 0.930 . S
C1665 C1664 1.377 . S
C1665 C1666 1.379 . S
C1666 H1650 0.931 . S
C1666 C1660 1.383 . S
C1666 C1665 1.379 . S
H1667 C1661 0.959 . S
H1668 C1661 0.961 . S
H1669 C1661 0.960 . S
H1670 C1662 0.930 . S
H1671 C1663 0.929 . S
H1672 C1680 0.929 . S
H1673 C1682 0.930 . S
H1674 C1684 0.930 . S
H1675 C1687 0.929 . S
H1676 C1690 0.930 . S
H1677 C1692 0.960 . S
H1678 C1692 0.960 . S
H1679 C1692 0.960 . S
C1680 H1672 0.929 . S
C1680 C1681 1.377 . S
C1680 C1682 1.384 . S
C1681 C1680 1.377 . S
C1681 C1687 1.390 . S
C1682 H1673 0.930 . S
C1682 C1680 1.384 . S
C1682 C1683 1.372 . S
C1683 C1682 1.372 . S
C1683 C1684 1.400 . S
C1683 C1688 1.490 . S
C1684 H1674 0.930 . S
C1684 C1683 1.400 . S
C1684 C1687 1.386 . S
H1685 C1701 0.930 . S
H1686 C1702 0.931 . S
C1687 H1675 0.929 . S
C1687 C1681 1.390 . S
C1687 C1684 1.386 . S
C1688 C1683 1.490 . S
C1688 C1690 1.395 . S
C1688 C1691 1.403 . S
H1689 C1695 0.930 . S
C1690 H1676 0.930 . S
C1690 C1688 1.395 . S
C1690 C1693 1.403 . S
C1691 C1688 1.403 . S
C1691 C1692 1.524 . S
C1691 C1695 1.400 . S
C1692 H1677 0.960 . S
C1692 H1678 0.960 . S
C1692 H1679 0.960 . S
C1692 C1691 1.524 . S
C1693 C1690 1.403 . S
C1693 C1694 1.392 . S
C1693 C1697 1.495 . S
C1694 C1693 1.392 . S
C1694 C1695 1.385 . S
C1694 C1696 1.478 . S
C1695 H1689 0.930 . S
C1695 C1691 1.400 . S
C1695 C1694 1.385 . S
C1696 C1694 1.478 . S
C1696 C1698 1.381 . S
C1696 C1702 1.383 . S
C1697 C1693 1.495 . S
C1697 H1703 0.959 . S
C1697 H1704 0.961 . S
C1697 H1705 0.960 . S
C1698 C1696 1.381 . S
C1698 C1699 1.394 . S
C1698 H1706 0.930 . S
C1699 C1698 1.394 . S
C1699 C1700 1.383 . S
C1699 H1707 0.929 . S
C1700 C1699 1.383 . S
C1700 C1701 1.377 . S
C1701 H1685 0.930 . S
C1701 C1700 1.377 . S
C1701 C1702 1.379 . S
C1702 H1686 0.931 . S
C1702 C1696 1.383 . S
C1702 C1701 1.379 . S
H1703 C1697 0.959 . S
H1704 C1697 0.961 . S
H1705 C1697 0.960 . S
H1706 C1698 0.930 . S
H1707 C1699 0.929 . S
H1708 C1716 0.929 . S
H1709 C1718 0.930 . S
H1710 C1720 0.930 . S
H1711 C1723 0.929 . S
H1712 C1726 0.930 . S
H1713 C1728 0.960 . S
H1714 C1728 0.960 . S
H1715 C1728 0.960 . S
C1716 H1708 0.929 . S
C1716 C1717 1.377 . S
C1716 C1718 1.384 . S
C1717 C1716 1.377 . S
C1717 C1723 1.390 . S
C1718 H1709 0.930 . S
C1718 C1716 1.384 . S
C1718 C1719 1.372 . S
C1719 C1718 1.372 . S
C1719 C1720 1.400 . S
C1719 C1724 1.490 . S
C1720 H1710 0.930 . S
C1720 C1719 1.400 . S
C1720 C1723 1.386 . S
H1721 C1737 0.930 . S
H1722 C1738 0.931 . S
C1723 H1711 0.929 . S
C1723 C1717 1.390 . S
C1723 C1720 1.386 . S
C1724 C1719 1.490 . S
C1724 C1726 1.395 . S
C1724 C1727 1.403 . S
H1725 C1731 0.930 . S
C1726 H1712 0.930 . S
C1726 C1724 1.395 . S
C1726 C1729 1.403 . S
C1727 C1724 1.403 . S
C1727 C1728 1.524 . S
C1727 C1731 1.400 . S
C1728 H1713 0.960 . S
C1728 H1714 0.960 . S
C1728 H1715 0.960 . S
C1728 C1727 1.524 . S
C1729 C1726 1.403 . S
C1729 C1730 1.392 . S
C1729 C1733 1.495 . S
C1730 C1729 1.392 . S
C1730 C1731 1.385 . S
C1730 C1732 1.478 . S
C1731 H1725 0.930 . S
C1731 C1727 1.400 . S
C1731 C1730 1.385 . S
C1732 C1730 1.478 . S
C1732 C1734 1.381 . S
C1732 C1738 1.383 . S
C1733 C1729 1.495 . S
C1733 H1739 0.959 . S
C1733 H1740 0.961 . S
C1733 H1741 0.960 . S
C1734 C1732 1.381 . S
C1734 C1735 1.394 . S
C1734 H1742 0.930 . S
C1735 C1734 1.394 . S
C1735 C1736 1.383 . S
C1735 H1743 0.929 . S
C1736 C1735 1.383 . S
C1736 C1737 1.377 . S
C1737 H1721 0.930 . S
C1737 C1736 1.377 . S
C1737 C1738 1.379 . S
C1738 H1722 0.931 . S
C1738 C1732 1.383 . S
C1738 C1737 1.379 . S
H1739 C1733 0.959 . S
H1740 C1733 0.961 . S
H1741 C1733 0.960 . S
H1742 C1734 0.930 . S
H1743 C1735 0.929 . S
H1744 C1752 0.929 . S
H1745 C1754 0.930 . S
H1746 C1756 0.930 . S
H1747 C1759 0.929 . S
H1748 C1762 0.930 . S
H1749 C1764 0.960 . S
H1750 C1764 0.960 . S
H1751 C1764 0.960 . S
C1752 H1744 0.929 . S
C1752 C1753 1.377 . S
C1752 C1754 1.384 . S
C1753 C1752 1.377 . S
C1753 C1759 1.390 . S
C1754 H1745 0.930 . S
C1754 C1752 1.384 . S
C1754 C1755 1.372 . S
C1755 C1754 1.372 . S
C1755 C1756 1.400 . S
C1755 C1760 1.490 . S
C1756 H1746 0.930 . S
C1756 C1755 1.400 . S
C1756 C1759 1.386 . S
H1757 C1773 0.930 . S
H1758 C1774 0.931 . S
C1759 H1747 0.929 . S
C1759 C1753 1.390 . S
C1759 C1756 1.386 . S
C1760 C1755 1.490 . S
C1760 C1762 1.395 . S
C1760 C1763 1.403 . S
H1761 C1767 0.930 . S
C1762 H1748 0.930 . S
C1762 C1760 1.395 . S
C1762 C1765 1.403 . S
C1763 C1760 1.403 . S
C1763 C1764 1.524 . S
C1763 C1767 1.400 . S
C1764 H1749 0.960 . S
C1764 H1750 0.960 . S
C1764 H1751 0.960 . S
C1764 C1763 1.524 . S
C1765 C1762 1.403 . S
C1765 C1766 1.392 . S
C1765 C1769 1.495 . S
C1766 C1765 1.392 . S
C1766 C1767 1.385 . S
C1766 C1768 1.478 . S
C1767 H1761 0.930 . S
C1767 C1763 1.400 . S
C1767 C1766 1.385 . S
C1768 C1766 1.478 . S
C1768 C1770 1.381 . S
C1768 C1774 1.383 . S
C1769 C1765 1.495 . S
C1769 H1775 0.959 . S
C1769 H1776 0.961 . S
C1769 H1777 0.960 . S
C1770 C1768 1.381 . S
C1770 C1771 1.394 . S
C1770 H1778 0.930 . S
C1771 C1770 1.394 . S
C1771 C1772 1.383 . S
C1771 H1779 0.929 . S
C1772 C1771 1.383 . S
C1772 C1773 1.377 . S
C1773 H1757 0.930 . S
C1773 C1772 1.377 . S
C1773 C1774 1.379 . S
C1774 H1758 0.931 . S
C1774 C1768 1.383 . S
C1774 C1773 1.379 . S
H1775 C1769 0.959 . S
H1776 C1769 0.961 . S
H1777 C1769 0.960 . S
H1778 C1770 0.930 . S
H1779 C1771 0.929 . S
H1780 C1788 0.929 . S
H1781 C1790 0.930 . S
H1782 C1792 0.930 . S
H1783 C1795 0.929 . S
H1784 C1798 0.930 . S
H1785 C1800 0.960 . S
H1786 C1800 0.960 . S
H1787 C1800 0.960 . S
C1788 H1780 0.929 . S
C1788 C1789 1.377 . S
C1788 C1790 1.384 . S
C1789 C1788 1.377 . S
C1789 C1795 1.390 . S
C1790 H1781 0.930 . S
C1790 C1788 1.384 . S
C1790 C1791 1.372 . S
C1791 C1790 1.372 . S
C1791 C1792 1.400 . S
C1791 C1796 1.490 . S
C1792 H1782 0.930 . S
C1792 C1791 1.400 . S
C1792 C1795 1.386 . S
H1793 C1809 0.930 . S
H1794 C1810 0.931 . S
C1795 H1783 0.929 . S
C1795 C1789 1.390 . S
C1795 C1792 1.386 . S
C1796 C1791 1.490 . S
C1796 C1798 1.395 . S
C1796 C1799 1.403 . S
H1797 C1803 0.930 . S
C1798 H1784 0.930 . S
C1798 C1796 1.395 . S
C1798 C1801 1.403 . S
C1799 C1796 1.403 . S
C1799 C1800 1.524 . S
C1799 C1803 1.400 . S
C1800 H1785 0.960 . S
C1800 H1786 0.960 . S
C1800 H1787 0.960 . S
C1800 C1799 1.524 . S
C1801 C1798 1.403 . S
C1801 C1802 1.392 . S
C1801 C1805 1.495 . S
C1802 C1801 1.392 . S
C1802 C1803 1.385 . S
C1802 C1804 1.478 . S
C1803 H1797 0.930 . S
C1803 C1799 1.400 . S
C1803 C1802 1.385 . S
C1804 C1802 1.478 . S
C1804 C1806 1.381 . S
C1804 C1810 1.383 . S
C1805 C1801 1.495 . S
C1805 H1811 0.959 . S
C1805 H1812 0.961 . S
C1805 H1813 0.960 . S
C1806 C1804 1.381 . S
C1806 C1807 1.394 . S
C1806 H1814 0.930 . S
C1807 C1806 1.394 . S
C1807 C1808 1.383 . S
C1807 H1815 0.929 . S
C1808 C1807 1.383 . S
C1808 C1809 1.377 . S
C1809 H1793 0.930 . S
C1809 C1808 1.377 . S
C1809 C1810 1.379 . S
C1810 H1794 0.931 . S
C1810 C1804 1.383 . S
C1810 C1809 1.379 . S
H1811 C1805 0.959 . S
H1812 C1805 0.961 . S
H1813 C1805 0.960 . S
H1814 C1806 0.930 . S
H1815 C1807 0.929 . S
H1816 C1824 0.929 . S
H1817 C1826 0.930 . S
H1818 C1828 0.930 . S
H1819 C1831 0.929 . S
H1820 C1834 0.930 . S
H1821 C1836 0.960 . S
H1822 C1836 0.960 . S
H1823 C1836 0.960 . S
C1824 H1816 0.929 . S
C1824 C1825 1.377 . S
C1824 C1826 1.384 . S
C1825 C1824 1.377 . S
C1825 C1831 1.390 . S
C1826 H1817 0.930 . S
C1826 C1824 1.384 . S
C1826 C1827 1.372 . S
C1827 C1826 1.372 . S
C1827 C1828 1.400 . S
C1827 C1832 1.490 . S
C1828 H1818 0.930 . S
C1828 C1827 1.400 . S
C1828 C1831 1.386 . S
H1829 C1845 0.930 . S
H1830 C1846 0.931 . S
C1831 H1819 0.929 . S
C1831 C1825 1.390 . S
C1831 C1828 1.386 . S
C1832 C1827 1.490 . S
C1832 C1834 1.395 . S
C1832 C1835 1.403 . S
H1833 C1839 0.930 . S
C1834 H1820 0.930 . S
C1834 C1832 1.395 . S
C1834 C1837 1.403 . S
C1835 C1832 1.403 . S
C1835 C1836 1.524 . S
C1835 C1839 1.400 . S
C1836 H1821 0.960 . S
C1836 H1822 0.960 . S
C1836 H1823 0.960 . S
C1836 C1835 1.524 . S
C1837 C1834 1.403 . S
C1837 C1838 1.392 . S
C1837 C1841 1.495 . S
C1838 C1837 1.392 . S
C1838 C1839 1.385 . S
C1838 C1840 1.478 . S
C1839 H1833 0.930 . S
C1839 C1835 1.400 . S
C1839 C1838 1.385 . S
C1840 C1838 1.478 . S
C1840 C1842 1.381 . S
C1840 C1846 1.383 . S
C1841 C1837 1.495 . S
C1841 H1847 0.959 . S
C1841 H1848 0.961 . S
C1841 H1849 0.960 . S
C1842 C1840 1.381 . S
C1842 C1843 1.394 . S
C1842 H1850 0.930 . S
C1843 C1842 1.394 . S
C1843 C1844 1.383 . S
C1843 H1851 0.929 . S
C1844 C1843 1.383 . S
C1844 C1845 1.377 . S
C1845 H1829 0.930 . S
C1845 C1844 1.377 . S
C1845 C1846 1.379 . S
C1846 H1830 0.931 . S
C1846 C1840 1.383 . S
C1846 C1845 1.379 . S
H1847 C1841 0.959 . S
H1848 C1841 0.961 . S
H1849 C1841 0.960 . S
H1850 C1842 0.930 . S
H1851 C1843 0.929 . S
H1852 C1860 0.929 . S
H1853 C1862 0.930 . S
H1854 C1864 0.930 . S
H1855 C1867 0.929 . S
H1856 C1870 0.930 . S
H1857 C1872 0.960 . S
H1858 C1872 0.960 . S
H1859 C1872 0.960 . S
C1860 H1852 0.929 . S
C1860 C1861 1.377 . S
C1860 C1862 1.384 . S
C1861 C1860 1.377 . S
C1861 C1867 1.390 . S
C1862 H1853 0.930 . S
C1862 C1860 1.384 . S
C1862 C1863 1.372 . S
C1863 C1862 1.372 . S
C1863 C1864 1.400 . S
C1863 C1868 1.490 . S
C1864 H1854 0.930 . S
C1864 C1863 1.400 . S
C1864 C1867 1.386 . S
H1865 C1881 0.930 . S
H1866 C1882 0.931 . S
C1867 H1855 0.929 . S
C1867 C1861 1.390 . S
C1867 C1864 1.386 . S
C1868 C1863 1.490 . S
C1868 C1870 1.395 . S
C1868 C1871 1.403 . S
H1869 C1875 0.930 . S
C1870 H1856 0.930 . S
C1870 C1868 1.395 . S
C1870 C1873 1.403 . S
C1871 C1868 1.403 . S
C1871 C1872 1.524 . S
C1871 C1875 1.400 . S
C1872 H1857 0.960 . S
C1872 H1858 0.960 . S
C1872 H1859 0.960 . S
C1872 C1871 1.524 . S
C1873 C1870 1.403 . S
C1873 C1874 1.392 . S
C1873 C1877 1.495 . S
C1874 C1873 1.392 . S
C1874 C1875 1.385 . S
C1874 C1876 1.478 . S
C1875 H1869 0.930 . S
C1875 C1871 1.400 . S
C1875 C1874 1.385 . S
C1876 C1874 1.478 . S
C1876 C1878 1.381 . S
C1876 C1882 1.383 . S
C1877 C1873 1.495 . S
C1877 H1883 0.959 . S
C1877 H1884 0.961 . S
C1877 H1885 0.960 . S
C1878 C1876 1.381 . S
C1878 C1879 1.394 . S
C1878 H1886 0.930 . S
C1879 C1878 1.394 . S
C1879 C1880 1.383 . S
C1879 H1887 0.929 . S
C1880 C1879 1.383 . S
C1880 C1881 1.377 . S
C1881 H1865 0.930 . S
C1881 C1880 1.377 . S
C1881 C1882 1.379 . S
C1882 H1866 0.931 . S
C1882 C1876 1.383 . S
C1882 C1881 1.379 . S
H1883 C1877 0.959 . S
H1884 C1877 0.961 . S
H1885 C1877 0.960 . S
H1886 C1878 0.930 . S
H1887 C1879 0.929 . S
H1888 C1896 0.929 . S
H1889 C1898 0.930 . S
H1890 C1900 0.930 . S
H1891 C1903 0.929 . S
H1892 C1906 0.930 . S
H1893 C1908 0.960 . S
H1894 C1908 0.960 . S
H1895 C1908 0.960 . S
C1896 H1888 0.929 . S
C1896 C1897 1.377 . S
C1896 C1898 1.384 . S
C1897 C1896 1.377 . S
C1897 C1903 1.390 . S
C1898 H1889 0.930 . S
C1898 C1896 1.384 . S
C1898 C1899 1.372 . S
C1899 C1898 1.372 . S
C1899 C1900 1.400 . S
C1899 C1904 1.490 . S
C1900 H1890 0.930 . S
C1900 C1899 1.400 . S
C1900 C1903 1.386 . S
H1901 C1917 0.930 . S
H1902 C1918 0.931 . S
C1903 H1891 0.929 . S
C1903 C1897 1.390 . S
C1903 C1900 1.386 . S
C1904 C1899 1.490 . S
C1904 C1906 1.395 . S
C1904 C1907 1.403 . S
H1905 C1911 0.930 . S
C1906 H1892 0.930 . S
C1906 C1904 1.395 . S
C1906 C1909 1.403 . S
C1907 C1904 1.403 . S
C1907 C1908 1.524 . S
C1907 C1911 1.400 . S
C1908 H1893 0.960 . S
C1908 H1894 0.960 . S
C1908 H1895 0.960 . S
C1908 C1907 1.524 . S
C1909 C1906 1.403 . S
C1909 C1910 1.392 . S
C1909 C1913 1.495 . S
C1910 C1909 1.392 . S
C1910 C1911 1.385 . S
C1910 C1912 1.478 . S
C1911 H1905 0.930 . S
C1911 C1907 1.400 . S
C1911 C1910 1.385 . S
C1912 C1910 1.478 . S
C1912 C1914 1.381 . S
C1912 C1918 1.383 . S
C1913 C1909 1.495 . S
C1913 H1919 0.959 . S
C1913 H1920 0.961 . S
C1913 H1921 0.960 . S
C1914 C1912 1.381 . S
C1914 C1915 1.394 . S
C1914 H1922 0.930 . S
C1915 C1914 1.394 . S
C1915 C1916 1.383 . S
C1915 H1923 0.929 . S
C1916 C1915 1.383 . S
C1916 C1917 1.377 . S
C1917 H1901 0.930 . S
C1917 C1916 1.377 . S
C1917 C1918 1.379 . S
C1918 H1902 0.931 . S
C1918 C1912 1.383 . S
C1918 C1917 1.379 . S
H1919 C1913 0.959 . S
H1920 C1913 0.961 . S
H1921 C1913 0.960 . S
H1922 C1914 0.930 . S
H1923 C1915 0.929 . S
H1924 C1932 0.929 . S
H1925 C1934 0.930 . S
H1926 C1936 0.930 . S
H1927 C1939 0.929 . S
H1928 C1942 0.930 . S
H1929 C1944 0.960 . S
H1930 C1944 0.960 . S
H1931 C1944 0.960 . S
C1932 H1924 0.929 . S
C1932 C1933 1.377 . S
C1932 C1934 1.384 . S
C1933 C1932 1.377 . S
C1933 C1939 1.390 . S
C1934 H1925 0.930 . S
C1934 C1932 1.384 . S
C1934 C1935 1.372 . S
C1935 C1934 1.372 . S
C1935 C1936 1.400 . S
C1935 C1940 1.490 . S
C1936 H1926 0.930 . S
C1936 C1935 1.400 . S
C1936 C1939 1.386 . S
H1937 C1953 0.930 . S
H1938 C1954 0.931 . S
C1939 H1927 0.929 . S
C1939 C1933 1.390 . S
C1939 C1936 1.386 . S
C1940 C1935 1.490 . S
C1940 C1942 1.395 . S
C1940 C1943 1.403 . S
H1941 C1947 0.930 . S
C1942 H1928 0.930 . S
C1942 C1940 1.395 . S
C1942 C1945 1.403 . S
C1943 C1940 1.403 . S
C1943 C1944 1.524 . S
C1943 C1947 1.400 . S
C1944 H1929 0.960 . S
C1944 H1930 0.960 . S
C1944 H1931 0.960 . S
C1944 C1943 1.524 . S
C1945 C1942 1.403 . S
C1945 C1946 1.392 . S
C1945 C1949 1.495 . S
C1946 C1945 1.392 . S
C1946 C1947 1.385 . S
C1946 C1948 1.478 . S
C1947 H1941 0.930 . S
C1947 C1943 1.400 . S
C1947 C1946 1.385 . S
C1948 C1946 1.478 . S
C1948 C1950 1.381 . S
C1948 C1954 1.383 . S
C1949 C1945 1.495 . S
C1949 H1955 0.959 . S
C1949 H1956 0.961 . S
C1949 H1957 0.960 . S
C1950 C1948 1.381 . S
C1950 C1951 1.394 . S
C1950 H1958 0.930 . S
C1951 C1950 1.394 . S
C1951 C1952 1.383 . S
C1951 H1959 0.929 . S
C1952 C1951 1.383 . S
C1952 C1953 1.377 . S
C1953 H1937 0.930 . S
C1953 C1952 1.377 . S
C1953 C1954 1.379 . S
C1954 H1938 0.931 . S
C1954 C1948 1.383 . S
C1954 C1953 1.379 . S
H1955 C1949 0.959 . S
H1956 C1949 0.961 . S
H1957 C1949 0.960 . S
H1958 C1950 0.930 . S
H1959 C1951 0.929 . S
H1960 C1968 0.929 . S
H1961 C1970 0.930 . S
H1962 C1972 0.930 . S
H1963 C1975 0.929 . S
H1964 C1978 0.930 . S
H1965 C1980 0.960 . S
H1966 C1980 0.960 . S
H1967 C1980 0.960 . S
C1968 H1960 0.929 . S
C1968 C1969 1.377 . S
C1968 C1970 1.384 . S
C1969 C1968 1.377 . S
C1969 C1975 1.390 . S
C1970 H1961 0.930 . S
C1970 C1968 1.384 . S
C1970 C1971 1.372 . S
C1971 C1970 1.372 . S
C1971 C1972 1.400 . S
C1971 C1976 1.490 . S
C1972 H1962 0.930 . S
C1972 C1971 1.400 . S
C1972 C1975 1.386 . S
H1973 C1989 0.930 . S
H1974 C1990 0.931 . S
C1975 H1963 0.929 . S
C1975 C1969 1.390 . S
C1975 C1972 1.386 . S
C1976 C1971 1.490 . S
C1976 C1978 1.395 . S
C1976 C1979 1.403 . S
H1977 C1983 0.930 . S
C1978 H1964 0.930 . S
C1978 C1976 1.395 . S
C1978 C1981 1.403 . S
C1979 C1976 1.403 . S
C1979 C1980 1.524 . S
C1979 C1983 1.400 . S
C1980 H1965 0.960 . S
C1980 H1966 0.960 . S
C1980 H1967 0.960 . S
C1980 C1979 1.524 . S
C1981 C1978 1.403 . S
C1981 C1982 1.392 . S
C1981 C1985 1.495 . S
C1982 C1981 1.392 . S
C1982 C1983 1.385 . S
C1982 C1984 1.478 . S
C1983 H1977 0.930 . S
C1983 C1979 1.400 . S
C1983 C1982 1.385 . S
C1984 C1982 1.478 . S
C1984 C1986 1.381 . S
C1984 C1990 1.383 . S
C1985 C1981 1.495 . S
C1985 H1991 0.959 . S
C1985 H1992 0.961 . S
C1985 H1993 0.960 . S
C1986 C1984 1.381 . S
C1986 C1987 1.394 . S
C1986 H1994 0.930 . S
C1987 C1986 1.394 . S
C1987 C1988 1.383 . S
C1987 H1995 0.929 . S
C1988 C1987 1.383 . S
C1988 C1989 1.377 . S
C1989 H1973 0.930 . S
C1989 C1988 1.377 . S
C1989 C1990 1.379 . S
C1990 H1974 0.931 . S
C1990 C1984 1.383 . S
C1990 C1989 1.379 . S
H1991 C1985 0.959 . S
H1992 C1985 0.961 . S
H1993 C1985 0.960 . S
H1994 C1986 0.930 . S
H1995 C1987 0.929 . S
H1996 C2004 0.929 . S
H1997 C2006 0.930 . S
H1998 C2008 0.930 . S
H1999 C2011 0.929 . S
H2000 C2014 0.930 . S
H2001 C2016 0.960 . S
H2002 C2016 0.960 . S
H2003 C2016 0.960 . S
C2004 H1996 0.929 . S
C2004 C2005 1.377 . S
C2004 C2006 1.384 . S
C2005 C2004 1.377 . S
C2005 C2011 1.390 . S
C2006 H1997 0.930 . S
C2006 C2004 1.384 . S
C2006 C2007 1.372 . S
C2007 C2006 1.372 . S
C2007 C2008 1.400 . S
C2007 C2012 1.490 . S
C2008 H1998 0.930 . S
C2008 C2007 1.400 . S
C2008 C2011 1.386 . S
H2009 C2025 0.930 . S
H2010 C2026 0.931 . S
C2011 H1999 0.929 . S
C2011 C2005 1.390 . S
C2011 C2008 1.386 . S
C2012 C2007 1.490 . S
C2012 C2014 1.395 . S
C2012 C2015 1.403 . S
H2013 C2019 0.930 . S
C2014 H2000 0.930 . S
C2014 C2012 1.395 . S
C2014 C2017 1.403 . S
C2015 C2012 1.403 . S
C2015 C2016 1.524 . S
C2015 C2019 1.400 . S
C2016 H2001 0.960 . S
C2016 H2002 0.960 . S
C2016 H2003 0.960 . S
C2016 C2015 1.524 . S
C2017 C2014 1.403 . S
C2017 C2018 1.392 . S
C2017 C2021 1.495 . S
C2018 C2017 1.392 . S
C2018 C2019 1.385 . S
C2018 C2020 1.478 . S
C2019 H2013 0.930 . S
C2019 C2015 1.400 . S
C2019 C2018 1.385 . S
C2020 C2018 1.478 . S
C2020 C2022 1.381 . S
C2020 C2026 1.383 . S
C2021 C2017 1.495 . S
C2021 H2027 0.959 . S
C2021 H2028 0.961 . S
C2021 H2029 0.960 . S
C2022 C2020 1.381 . S
C2022 C2023 1.394 . S
C2022 H2030 0.930 . S
C2023 C2022 1.394 . S
C2023 C2024 1.383 . S
C2023 H2031 0.929 . S
C2024 C2023 1.383 . S
C2024 C2025 1.377 . S
C2025 H2009 0.930 . S
C2025 C2024 1.377 . S
C2025 C2026 1.379 . S
C2026 H2010 0.931 . S
C2026 C2020 1.383 . S
C2026 C2025 1.379 . S
H2027 C2021 0.959 . S
H2028 C2021 0.961 . S
H2029 C2021 0.960 . S
H2030 C2022 0.930 . S
H2031 C2023 0.929 . S
H2032 C2040 0.929 . S
H2033 C2042 0.930 . S
H2034 C2044 0.930 . S
H2035 C2047 0.929 . S
H2036 C2050 0.930 . S
H2037 C2052 0.960 . S
H2038 C2052 0.960 . S
H2039 C2052 0.960 . S
C2040 H2032 0.929 . S
C2040 C2041 1.377 . S
C2040 C2042 1.384 . S
C2041 C2040 1.377 . S
C2041 C2047 1.390 . S
C2042 H2033 0.930 . S
C2042 C2040 1.384 . S
C2042 C2043 1.372 . S
C2043 C2042 1.372 . S
C2043 C2044 1.400 . S
C2043 C2048 1.490 . S
C2044 H2034 0.930 . S
C2044 C2043 1.400 . S
C2044 C2047 1.386 . S
H2045 C2061 0.930 . S
H2046 C2062 0.931 . S
C2047 H2035 0.929 . S
C2047 C2041 1.390 . S
C2047 C2044 1.386 . S
C2048 C2043 1.490 . S
C2048 C2050 1.395 . S
C2048 C2051 1.403 . S
H2049 C2055 0.930 . S
C2050 H2036 0.930 . S
C2050 C2048 1.395 . S
C2050 C2053 1.403 . S
C2051 C2048 1.403 . S
C2051 C2052 1.524 . S
C2051 C2055 1.400 . S
C2052 H2037 0.960 . S
C2052 H2038 0.960 . S
C2052 H2039 0.960 . S
C2052 C2051 1.524 . S
C2053 C2050 1.403 . S
C2053 C2054 1.392 . S
C2053 C2057 1.495 . S
C2054 C2053 1.392 . S
C2054 C2055 1.385 . S
C2054 C2056 1.478 . S
C2055 H2049 0.930 . S
C2055 C2051 1.400 . S
C2055 C2054 1.385 . S
C2056 C2054 1.478 . S
C2056 C2058 1.381 . S
C2056 C2062 1.383 . S
C2057 C2053 1.495 . S
C2057 H2063 0.959 . S
C2057 H2064 0.961 . S
C2057 H2065 0.960 . S
C2058 C2056 1.381 . S
C2058 C2059 1.394 . S
C2058 H2066 0.930 . S
C2059 C2058 1.394 . S
C2059 C2060 1.383 . S
C2059 H2067 0.929 . S
C2060 C2059 1.383 . S
C2060 C2061 1.377 . S
C2061 H2045 0.930 . S
C2061 C2060 1.377 . S
C2061 C2062 1.379 . S
C2062 H2046 0.931 . S
C2062 C2056 1.383 . S
C2062 C2061 1.379 . S
H2063 C2057 0.959 . S
H2064 C2057 0.961 . S
H2065 C2057 0.960 . S
H2066 C2058 0.930 . S
H2067 C2059 0.929 . S
H2068 C2076 0.929 . S
H2069 C2078 0.930 . S
H2070 C2080 0.930 . S
H2071 C2083 0.929 . S
H2072 C2086 0.930 . S
H2073 C2088 0.960 . S
H2074 C2088 0.960 . S
H2075 C2088 0.960 . S
C2076 H2068 0.929 . S
C2076 C2077 1.377 . S
C2076 C2078 1.384 . S
C2077 C2076 1.377 . S
C2077 C2083 1.390 . S
C2078 H2069 0.930 . S
C2078 C2076 1.384 . S
C2078 C2079 1.372 . S
C2079 C2078 1.372 . S
C2079 C2080 1.400 . S
C2079 C2084 1.490 . S
C2080 H2070 0.930 . S
C2080 C2079 1.400 . S
C2080 C2083 1.386 . S
H2081 C2097 0.930 . S
H2082 C2098 0.931 . S
C2083 H2071 0.929 . S
C2083 C2077 1.390 . S
C2083 C2080 1.386 . S
C2084 C2079 1.490 . S
C2084 C2086 1.395 . S
C2084 C2087 1.403 . S
H2085 C2091 0.930 . S
C2086 H2072 0.930 . S
C2086 C2084 1.395 . S
C2086 C2089 1.403 . S
C2087 C2084 1.403 . S
C2087 C2088 1.524 . S
C2087 C2091 1.400 . S
C2088 H2073 0.960 . S
C2088 H2074 0.960 . S
C2088 H2075 0.960 . S
C2088 C2087 1.524 . S
C2089 C2086 1.403 . S
C2089 C2090 1.392 . S
C2089 C2093 1.495 . S
C2090 C2089 1.392 . S
C2090 C2091 1.385 . S
C2090 C2092 1.478 . S
C2091 H2085 0.930 . S
C2091 C2087 1.400 . S
C2091 C2090 1.385 . S
C2092 C2090 1.478 . S
C2092 C2094 1.381 . S
C2092 C2098 1.383 . S
C2093 C2089 1.495 . S
C2093 H2099 0.959 . S
C2093 H2100 0.961 . S
C2093 H2101 0.960 . S
C2094 C2092 1.381 . S
C2094 C2095 1.394 . S
C2094 H2102 0.930 . S
C2095 C2094 1.394 . S
C2095 C2096 1.383 . S
C2095 H2103 0.929 . S
C2096 C2095 1.383 . S
C2096 C2097 1.377 . S
C2097 H2081 0.930 . S
C2097 C2096 1.377 . S
C2097 C2098 1.379 . S
C2098 H2082 0.931 . S
C2098 C2092 1.383 . S
C2098 C2097 1.379 . S
H2099 C2093 0.959 . S
H2100 C2093 0.961 . S
H2101 C2093 0.960 . S
H2102 C2094 0.930 . S
H2103 C2095 0.929 . S
C404 C201 1.174 . S
C385 C17 1.197 . S
C440 C206 1.402 . S
C421 C44 1.316 . S
C476 C207 1.193 . S
C457 C63 1.231 . S
C493 C87 1.214 . S
C512 C211 1.200 . S
C529 C110 1.188 . S
C548 C214 1.137 . S
C584 C215 1.222 . S
C565 C131 1.246 . S
C601 C159 1.288 . S
C620 C192 1.378 . S
C637 C177 1.214 . S
C656 C208 1.227 . S
C692 C246 1.242 . S
C673 C20 1.207 . S
C709 C42 1.302 . S
C728 C272 1.260 . S
C764 C224 1.249 . S
C745 C66 1.222 . S
C800 C279 1.089 . S
C781 C86 1.151 . S
C817 C109 1.151 . S
C836 C233 1.099 . S
C872 C275 1.253 . S
C853 C136 1.246 . S
C889 C157 1.302 . S
C908 C239 1.267 . S
C925 C182 1.203 . S
C944 C270 1.264 . S
C961 C18 1.236 . S
C980 C278 1.165 . S
C997 C112 1.124 . S
C1016 C265 1.175 . S
C1052 C243 1.197 . S
C1033 C134 1.206 . S
C1088 C271 1.240 . S
C1069 C154 1.280 . S
C1105 C180 1.210 . S
C1124 C238 1.161 . S
C1141 C64 1.224 . S
C1160 C256 1.179 . S
C1196 C247 1.205 . S
C1177 C89 1.152 . S
C1213 C39 1.308 . S
C1232 C240 1.294 . S
C1249 C178 1.169 . S
C1268 C302 1.160 . S
C1285 C113 1.285 . S
C1304 C297 1.335 . S
C1340 C311 1.145 . S
C1321 C132 1.202 . S
C1376 C288 1.163 . S
C1357 C156 1.183 . S
C1393 C41 1.155 . S
C1412 C304 1.150 . S
C1448 C303 1.161 . S
C1429 C62 1.213 . S
C1465 C90 1.252 . S
C1484 C307 1.327 . S
C1501 C16 1.185 . S
C1520 C310 1.166 . S
C1537 C181 1.197 . S
C1556 C336 1.299 . S
C1592 C352 1.329 . S
C1573 C111 1.324 . S
C1609 C135 1.222 . S
C1628 C334 1.334 . S
C1645 C155 1.175 . S
C1664 C367 1.119 . S
C1700 C343 1.159 . S
C1681 C40 1.146 . S
C1717 C67 1.274 . S
C1736 C361 1.310 . S
C1772 C339 1.277 . S
C1753 C88 1.297 . S
C1808 C374 1.299 . S
C1789 C21 1.245 . S
C1844 C366 1.209 . S
C1825 C179 1.265 . S
C1861 C43 1.148 . S
C1880 C371 1.242 . S
C1897 C65 1.206 . S
C1916 C342 1.213 . S
C1952 C375 1.293 . S
C1933 C85 1.305 . S
C1969 C19 1.207 . S
C1988 C329 1.185 . S
C2005 C133 1.254 . S
C2024 C368 1.246 . S
C2060 C320 1.249 . S
C2041 C158 1.145 . S
C2096 C335 1.305 . S
C2077 C108 1.304 . S
