# Generated by pormake.
# Topology ocu, (6,8)-cn, num edge types: 1
# Building blocks:
#     Node 0, Type 0, BuildingBlock: BETDEL_clean_sbu_0, # of connection points: 6
#     Node 1, Type 0, BuildingBlock: BETDEL_clean_sbu_0, # of connection points: 6
#     Node 2, Type 0, BuildingBlock: BETDEL_clean_sbu_0, # of connection points: 6
#     Node 3, Type 0, BuildingBlock: BETDEL_clean_sbu_0, # of connection points: 6
#     Node 4, Type 0, BuildingBlock: BETDEL_clean_sbu_0, # of connection points: 6
#     Node 5, Type 0, BuildingBlock: BETDEL_clean_sbu_0, # of connection points: 6
#     Node 6, Type 0, BuildingBlock: BETDEL_clean_sbu_0, # of connection points: 6
#     Node 7, Type 0, BuildingBlock: BETDEL_clean_sbu_0, # of connection points: 6
#     Node 8, Type 1, BuildingBlock: AJUNOK_clean_sbu_0, # of connection points: 8
#     Node 9, Type 1, BuildingBlock: AJUNOK_clean_sbu_0, # of connection points: 8
#     Node 10, Type 1, BuildingBlock: AJUNOK_clean_sbu_0, # of connection points: 8
#     Node 11, Type 1, BuildingBlock: AJUNOK_clean_sbu_0, # of connection points: 8
#     Node 12, Type 1, BuildingBlock: AJUNOK_clean_sbu_0, # of connection points: 8
#     Node 13, Type 1, BuildingBlock: AJUNOK_clean_sbu_0, # of connection points: 8
#     Edge 14, Type (0, 1), BuildingBlock: KIFKEQ_clean_linker_1, # of connection points: 2
#     Edge 15, Type (0, 1), BuildingBlock: KIFKEQ_clean_linker_1, # of connection points: 2
#     Edge 16, Type (0, 1), BuildingBlock: KIFKEQ_clean_linker_1, # of connection points: 2
#     Edge 17, Type (0, 1), BuildingBlock: KIFKEQ_clean_linker_1, # of connection points: 2
#     Edge 18, Type (0, 1), BuildingBlock: KIFKEQ_clean_linker_1, # of connection points: 2
#     Edge 19, Type (0, 1), BuildingBlock: KIFKEQ_clean_linker_1, # of connection points: 2
#     Edge 20, Type (0, 1), BuildingBlock: KIFKEQ_clean_linker_1, # of connection points: 2
#     Edge 21, Type (0, 1), BuildingBlock: KIFKEQ_clean_linker_1, # of connection points: 2
#     Edge 22, Type (0, 1), BuildingBlock: KIFKEQ_clean_linker_1, # of connection points: 2
#     Edge 23, Type (0, 1), BuildingBlock: KIFKEQ_clean_linker_1, # of connection points: 2
#     Edge 24, Type (0, 1), BuildingBlock: KIFKEQ_clean_linker_1, # of connection points: 2
#     Edge 25, Type (0, 1), BuildingBlock: KIFKEQ_clean_linker_1, # of connection points: 2
#     Edge 26, Type (0, 1), BuildingBlock: KIFKEQ_clean_linker_1, # of connection points: 2
#     Edge 27, Type (0, 1), BuildingBlock: KIFKEQ_clean_linker_1, # of connection points: 2
#     Edge 28, Type (0, 1), BuildingBlock: KIFKEQ_clean_linker_1, # of connection points: 2
#     Edge 29, Type (0, 1), BuildingBlock: KIFKEQ_clean_linker_1, # of connection points: 2
#     Edge 30, Type (0, 1), BuildingBlock: KIFKEQ_clean_linker_1, # of connection points: 2
#     Edge 31, Type (0, 1), BuildingBlock: KIFKEQ_clean_linker_1, # of connection points: 2
#     Edge 32, Type (0, 1), BuildingBlock: KIFKEQ_clean_linker_1, # of connection points: 2
#     Edge 33, Type (0, 1), BuildingBlock: KIFKEQ_clean_linker_1, # of connection points: 2
#     Edge 34, Type (0, 1), BuildingBlock: KIFKEQ_clean_linker_1, # of connection points: 2
#     Edge 35, Type (0, 1), BuildingBlock: KIFKEQ_clean_linker_1, # of connection points: 2
#     Edge 36, Type (0, 1), BuildingBlock: KIFKEQ_clean_linker_1, # of connection points: 2
#     Edge 37, Type (0, 1), BuildingBlock: KIFKEQ_clean_linker_1, # of connection points: 2
#     Edge 38, Type (0, 1), BuildingBlock: KIFKEQ_clean_linker_1, # of connection points: 2
#     Edge 39, Type (0, 1), BuildingBlock: KIFKEQ_clean_linker_1, # of connection points: 2
#     Edge 40, Type (0, 1), BuildingBlock: KIFKEQ_clean_linker_1, # of connection points: 2
#     Edge 41, Type (0, 1), BuildingBlock: KIFKEQ_clean_linker_1, # of connection points: 2
#     Edge 42, Type (0, 1), BuildingBlock: KIFKEQ_clean_linker_1, # of connection points: 2
#     Edge 43, Type (0, 1), BuildingBlock: KIFKEQ_clean_linker_1, # of connection points: 2
#     Edge 44, Type (0, 1), BuildingBlock: KIFKEQ_clean_linker_1, # of connection points: 2
#     Edge 45, Type (0, 1), BuildingBlock: KIFKEQ_clean_linker_1, # of connection points: 2
#     Edge 46, Type (0, 1), BuildingBlock: KIFKEQ_clean_linker_1, # of connection points: 2
#     Edge 47, Type (0, 1), BuildingBlock: KIFKEQ_clean_linker_1, # of connection points: 2
#     Edge 48, Type (0, 1), BuildingBlock: KIFKEQ_clean_linker_1, # of connection points: 2
#     Edge 49, Type (0, 1), BuildingBlock: KIFKEQ_clean_linker_1, # of connection points: 2
#     Edge 50, Type (0, 1), BuildingBlock: KIFKEQ_clean_linker_1, # of connection points: 2
#     Edge 51, Type (0, 1), BuildingBlock: KIFKEQ_clean_linker_1, # of connection points: 2
#     Edge 52, Type (0, 1), BuildingBlock: KIFKEQ_clean_linker_1, # of connection points: 2
#     Edge 53, Type (0, 1), BuildingBlock: KIFKEQ_clean_linker_1, # of connection points: 2
#     Edge 54, Type (0, 1), BuildingBlock: KIFKEQ_clean_linker_1, # of connection points: 2
#     Edge 55, Type (0, 1), BuildingBlock: KIFKEQ_clean_linker_1, # of connection points: 2
#     Edge 56, Type (0, 1), BuildingBlock: KIFKEQ_clean_linker_1, # of connection points: 2
#     Edge 57, Type (0, 1), BuildingBlock: KIFKEQ_clean_linker_1, # of connection points: 2
#     Edge 58, Type (0, 1), BuildingBlock: KIFKEQ_clean_linker_1, # of connection points: 2
#     Edge 59, Type (0, 1), BuildingBlock: KIFKEQ_clean_linker_1, # of connection points: 2
#     Edge 60, Type (0, 1), BuildingBlock: KIFKEQ_clean_linker_1, # of connection points: 2
#     Edge 61, Type (0, 1), BuildingBlock: KIFKEQ_clean_linker_1, # of connection points: 2
# Relax obj value: 0.128
# Max RMSD: 0.248
# Mean RMSD: 0.191
data_MOF--net-ocu--node1-BETDEL_clean_sbu_0--node2-AJUNOK_clean_sbu_0--edge1-KIFKEQ_clean_linker_1
_symmetry_space_group_name_H-M    P1
_symmetry_Int_Tables_number       1
_symmetry_cell_setting            triclinic
loop_
_symmetry_equiv_pos_as_xyz
'x, y, z'
_cell_length_a     41.933198
_cell_length_b     42.860743
_cell_length_c     35.094749
_cell_angle_alpha  98.373253
_cell_angle_beta   98.325341
_cell_angle_gamma 105.51321
loop_
_atom_site_label
_atom_site_type_symbol
_atom_site_fract_x
_atom_site_fract_y
_atom_site_fract_z
_atom_type_partial_charge
Dy0 Dy 0.26974 0.25671 0.28314 0.0
C1 C 0.19552 0.27647 0.1403 0.0
C2 C 0.29327 0.22837 0.34173 0.0
Dy3 Dy 0.22795 0.25759 0.20234 0.0
O4 O 0.30394 0.25963 0.34052 0.0
O5 O 0.26947 0.21322 0.31165 0.0
O6 O 0.30538 0.3069 0.28611 0.0
O7 O 0.28061 0.27682 0.23161 0.0
C8 C 0.29836 0.30556 0.24838 0.0
C9 C 0.20222 0.20932 0.23942 0.0
O10 O 0.26101 0.22893 0.17906 0.0
O11 O 0.2836 0.22003 0.23987 0.0
O12 O 0.18125 0.25478 0.15961 0.0
O13 O 0.22774 0.28697 0.15408 0.0
O14 O 0.19805 0.20484 0.20131 0.0
O15 O 0.21759 0.23891 0.2544 0.0
O16 O 0.23475 0.28407 0.30443 0.0
O17 O 0.21932 0.29858 0.24462 0.0
C18 C 0.27933 0.21459 0.20083 0.0
C19 C 0.22008 0.30149 0.28308 0.0
Dy20 Dy 0.79553 0.20887 0.26113 0.0
C21 C 0.70028 0.25074 0.15731 0.0
C22 C 0.83956 0.19567 0.31715 0.0
Dy23 Dy 0.74202 0.23554 0.21403 0.0
O24 O 0.81155 0.17463 0.29742 0.0
O25 O 0.84373 0.22379 0.30594 0.0
O26 O 0.79037 0.16938 0.20786 0.0
O27 O 0.75034 0.18842 0.21667 0.0
C28 C 0.76072 0.17078 0.19266 0.0
C29 C 0.7761 0.27429 0.28227 0.0
O30 O 0.7103 0.20634 0.24947 0.0
O31 O 0.75491 0.20555 0.29707 0.0
O32 O 0.7315 0.26747 0.17154 0.0
O33 O 0.69143 0.22571 0.17446 0.0
O34 O 0.74618 0.27446 0.26629 0.0
O35 O 0.78734 0.25681 0.25877 0.0
O36 O 0.82761 0.23732 0.22524 0.0
O37 O 0.78275 0.23855 0.17856 0.0
C38 C 0.72234 0.20127 0.28431 0.0
C39 C 0.81536 0.24315 0.19091 0.0
Dy40 Dy 0.72964 0.76541 0.29196 0.0
C41 C 0.76474 0.7046 0.15174 0.0
C42 C 0.71515 0.80246 0.35395 0.0
Dy43 Dy 0.75049 0.74353 0.21223 0.0
O44 O 0.7021 0.77076 0.34211 0.0
O45 O 0.73688 0.81365 0.33263 0.0
O46 O 0.69529 0.71375 0.28503 0.0
O47 O 0.70471 0.73459 0.23563 0.0
C48 C 0.69075 0.70882 0.24695 0.0
C49 C 0.78988 0.80028 0.25667 0.0
O50 O 0.71409 0.76953 0.18895 0.0
O51 O 0.70997 0.79529 0.25066 0.0
O52 O 0.78099 0.73547 0.16587 0.0
O53 O 0.73963 0.69548 0.16949 0.0
O54 O 0.7861 0.79419 0.21859 0.0
O55 O 0.77559 0.77486 0.26864 0.0
O56 O 0.76828 0.74131 0.31481 0.0
O57 O 0.7692 0.71314 0.2532 0.0
C58 C 0.70418 0.79149 0.21159 0.0
C59 C 0.77696 0.71834 0.29223 0.0
Dy60 Dy 0.29576 0.70844 0.23516 0.0
C61 C 0.24368 0.80033 0.32773 0.0
C62 C 0.31592 0.66755 0.18299 0.0
Dy63 Dy 0.26397 0.75901 0.27651 0.0
O64 O 0.33564 0.69392 0.20674 0.0
O65 O 0.28507 0.66308 0.18811 0.0
O66 O 0.33507 0.71702 0.29005 0.0
O67 O 0.31395 0.75437 0.27712 0.0
C68 C 0.3321 0.74593 0.30295 0.0
C69 C 0.2267 0.7215 0.20885 0.0
O70 O 0.29145 0.79002 0.23948 0.0
O71 O 0.29942 0.74679 0.19713 0.0
O72 O 0.22505 0.77152 0.30834 0.0
O73 O 0.27345 0.80696 0.31877 0.0
O74 O 0.22565 0.75112 0.22187 0.0
O75 O 0.24497 0.71265 0.23437 0.0
O76 O 0.26703 0.67736 0.27185 0.0
O77 O 0.26178 0.7215 0.31518 0.0
C78 C 0.30013 0.77814 0.20685 0.0
C79 C 0.25896 0.6897 0.30481 0.0
Dy80 Dy 0.29063 0.70647 0.76273 0.0
C81 C 0.20728 0.77139 0.67767 0.0
C82 C 0.32913 0.68113 0.81185 0.0
Dy83 Dy 0.24499 0.74454 0.72554 0.0
O84 O 0.30632 0.66409 0.78159 0.0
O85 O 0.33137 0.71224 0.81507 0.0
O86 O 0.27514 0.66855 0.70669 0.0
O87 O 0.24133 0.69325 0.72525 0.0
C88 C 0.24587 0.6734 0.69795 0.0
C89 C 0.28848 0.7774 0.79122 0.0
O90 O 0.21204 0.72231 0.76444 0.0
O91 O 0.25358 0.70744 0.80296 0.0
O92 O 0.23333 0.78796 0.70459 0.0
O93 O 0.2015 0.73999 0.67698 0.0
O94 O 0.25919 0.78185 0.78133 0.0
O95 O 0.29412 0.75809 0.76406 0.0
O96 O 0.32412 0.73109 0.7253 0.0
O97 O 0.28101 0.74188 0.68467 0.0
C98 C 0.22336 0.71215 0.79618 0.0
C99 C 0.31226 0.74 0.69283 0.0
Dy100 Dy 0.23778 0.26992 0.78481 0.0
C101 C 0.25766 0.195 0.63947 0.0
C102 C 0.23028 0.31007 0.84914 0.0
Dy103 Dy 0.25212 0.23602 0.70417 0.0
O104 O 0.21782 0.27806 0.84072 0.0
O105 O 0.24837 0.31971 0.82357 0.0
O106 O 0.18316 0.23979 0.76441 0.0
O107 O 0.22151 0.22179 0.74687 0.0
C108 C 0.19024 0.21633 0.74272 0.0
C109 C 0.30176 0.28768 0.7458 0.0
O110 O 0.21435 0.26156 0.68143 0.0
O111 O 0.21708 0.29604 0.74065 0.0
O112 O 0.27364 0.22633 0.64998 0.0
O113 O 0.237 0.18669 0.66303 0.0
O114 O 0.30661 0.2652 0.72026 0.0
O115 O 0.27063 0.28369 0.74386 0.0
O116 O 0.27624 0.24494 0.8075 0.0
O117 O 0.27324 0.21004 0.74835 0.0
C118 C 0.20668 0.2864 0.702 0.0
C119 C 0.28405 0.22012 0.78696 0.0
Dy120 Dy 0.80021 0.20364 0.73592 0.0
C121 C 0.75601 0.29341 0.84263 0.0
C122 C 0.81324 0.16266 0.67713 0.0
Dy123 Dy 0.77073 0.25277 0.78496 0.0
O124 O 0.83045 0.19332 0.69048 0.0
O125 O 0.78921 0.15396 0.69653 0.0
O126 O 0.84763 0.2176 0.78287 0.0
O127 O 0.81979 0.25096 0.77486 0.0
C128 C 0.84324 0.24565 0.79694 0.0
C129 C 0.72723 0.21101 0.72392 0.0
O130 O 0.78981 0.2827 0.74203 0.0
O131 O 0.79138 0.23841 0.69608 0.0
O132 O 0.74409 0.26149 0.83467 0.0
O133 O 0.77564 0.30337 0.81859 0.0
O134 O 0.72402 0.23947 0.73825 0.0
O135 O 0.75048 0.20511 0.74585 0.0
O136 O 0.78107 0.17395 0.77942 0.0
O137 O 0.78126 0.21904 0.82517 0.0
C138 C 0.79243 0.26979 0.70637 0.0
C139 C 0.77839 0.18724 0.81497 0.0
Dy140 Dy 0.76818 0.7528 0.78191 0.0
C141 C 0.69725 0.77615 0.63969 0.0
C142 C 0.79276 0.72553 0.84105 0.0
Dy143 Dy 0.72492 0.75312 0.70124 0.0
O144 O 0.80345 0.75659 0.83884 0.0
O145 O 0.76838 0.71004 0.81167 0.0
O146 O 0.80614 0.80063 0.77942 0.0
O147 O 0.77803 0.76822 0.72777 0.0
C148 C 0.79819 0.79649 0.74133 0.0
C149 C 0.69673 0.70878 0.74214 0.0
O150 O 0.75577 0.72149 0.67823 0.0
O151 O 0.7774 0.71226 0.73924 0.0
O152 O 0.6833 0.74865 0.65032 0.0
O153 O 0.72664 0.79048 0.66205 0.0
O154 O 0.68976 0.70351 0.70391 0.0
O155 O 0.71537 0.7377 0.75543 0.0
O156 O 0.73665 0.78414 0.80418 0.0
O157 O 0.7171 0.79474 0.74324 0.0
C158 C 0.77266 0.70599 0.70014 0.0
C159 C 0.72078 0.8004 0.78222 0.0
Cd160 Cd 0.97941 0.9513 0.52156 0.0
Cd161 Cd 0.06243 0.02067 0.45527 0.0
C162 C 0.04861 0.93696 0.54449 0.0
N163 N 0.01806 0.92172 0.52086 0.0
C164 C 0.03225 0.87133 0.50832 0.0
C165 C 0.06339 0.886 0.53427 0.0
C166 C 0.07179 0.91955 0.55157 0.0
C167 C 0.00969 0.88974 0.50216 0.0
H168 H 0.05436 0.96225 0.55942 0.0
H169 H 0.98499 0.87813 0.48396 0.0
C170 C 0.99496 0.96129 0.42662 0.0
C171 C 1.00475 0.05302 0.44245 0.0
C172 C 0.98622 0.0754 0.44204 0.0
C173 C 1.00076 0.10771 0.46314 0.0
C174 C 0.03392 0.11688 0.48452 0.0
C175 C 0.05153 0.09329 0.48464 0.0
N176 N 0.03652 0.06202 0.46388 0.0
H177 H 0.99388 0.02846 0.42508 0.0
H178 H 0.07734 0.10014 0.50024 0.0
C179 C 0.08308 0.95605 0.46369 0.0
N180 N 0.09671 0.98925 0.47491 0.0
C181 C 0.15199 0.98345 0.4896 0.0
C182 C 0.1389 0.94926 0.47498 0.0
C183 C 0.10374 0.93548 0.4637 0.0
C184 C 0.13027 0.00318 0.48909 0.0
H185 H 0.05643 0.94569 0.45183 0.0
H186 H 0.14047 0.02973 0.49734 0.0
C187 C 0.03633 0.02183 0.55003 0.0
C188 C 0.94222 0.9151 0.56968 0.0
N189 N 0.93569 0.97029 0.49569 0.0
C190 C 0.94553 0.0003 0.48569 0.0
C191 C 0.9246 0.02062 0.48637 0.0
C192 C 0.89394 0.01048 0.49929 0.0
C193 C 0.88279 0.97783 0.50508 0.0
C194 C 0.90429 0.95798 0.50312 0.0
C195 C 0.1032 0.05435 0.40819 0.0
O196 O 1.002 0.96459 0.46354 0.0
O197 O 0.01616 0.97848 0.40978 0.0
O198 O 0.03925 0.01287 0.51497 0.0
O199 O 0.01445 0.00268 0.56427 0.0
O200 O 0.93993 0.90226 0.53381 0.0
O201 O 0.96219 0.94411 0.5825 0.0
O202 O 0.11114 0.06267 0.44555 0.0
O203 O 0.07696 0.03017 0.39366 0.0
H204 H 0.9711 0.00993 0.48186 0.0
H205 H 0.89733 0.93436 0.51199 0.0
H206 H 0.02491 0.84563 0.49403 0.0
H207 H 0.09519 0.93184 0.57222 0.0
H208 H 0.96107 0.06781 0.42424 0.0
H209 H 0.04609 0.14194 0.50034 0.0
H210 H 0.17887 -0.00494 0.49912 0.0
H211 H 0.09236 0.90941 0.45177 0.0
H212 H 0.93392 0.04535 0.48102 0.0
H213 H 0.85949 0.96892 0.51534 0.0
Cd214 Cd 0.4811 0.99111 0.04689 0.0
Cd215 Cd 0.52892 0.03427 0.93774 0.0
C216 C 0.53401 0.97007 0.10799 0.0
N217 N 0.52252 0.96568 0.06872 0.0
C218 C 0.55347 0.92674 0.05615 0.0
C219 C 0.56495 0.92997 0.09672 0.0
C220 C 0.5553 0.95254 0.12261 0.0
C221 C 0.5321 0.94477 0.04277 0.0
H222 H 0.52594 0.98665 0.12812 0.0
H223 H 0.52233 0.94132 0.01169 0.0
C224 C 0.4692 0.97006 0.93931 0.0
C225 C 0.45685 0.05241 0.92265 0.0
C226 C 0.43365 0.06945 0.912 0.0
C227 C 0.44422 0.09914 0.89828 0.0
C228 C 0.47854 0.11088 0.89619 0.0
C229 C 0.50088 0.09302 0.90707 0.0
N230 N 0.4898 0.06414 0.91972 0.0
H231 H 0.44845 0.02976 0.93333 0.0
H232 H 0.52714 0.10228 0.90525 0.0
C233 C 0.55085 0.98225 0.87676 0.0
N234 N 0.54966 0.98952 0.91549 0.0
C235 C 0.58075 0.95159 0.92975 0.0
C236 C 0.58338 0.94435 0.89005 0.0
C237 C 0.56754 0.95974 0.86341 0.0
C238 C 0.56375 0.97429 0.94185 0.0
H239 H 0.53983 -0.00516 0.85631 0.0
H240 H 0.56261 0.98044 0.97251 0.0
C241 C 0.54634 0.04524 0.04175 0.0
C242 C 0.43416 0.94412 0.07498 0.0
N243 N 0.45201 0.03121 0.05996 0.0
C244 C 0.4676 0.06351 0.07672 0.0
C245 C 0.44863 0.08451 0.08823 0.0
C246 C 0.4133 0.07211 0.083 0.0
C247 C 0.39796 0.03896 0.0645 0.0
C248 C 0.41778 0.01899 0.05309 0.0
C249 C 0.5888 0.07377 0.92169 0.0
O250 O 0.47853 0.98436 0.97512 0.0
O251 O 0.48307 0.98389 0.91375 0.0
O252 O 0.52909 0.03414 0.00736 0.0
O253 O 0.53377 0.03541 0.07023 0.0
O254 O 0.43698 0.93942 0.03914 0.0
O255 O 0.45332 0.97059 0.09724 0.0
O256 O 0.58581 0.07183 0.9569 0.0
O257 O 0.56295 0.05948 0.89486 0.0
H258 H 0.4948 0.07288 0.08236 0.0
H259 H 0.40584 -0.00671 0.03977 0.0
H260 H 0.55986 0.90954 0.03496 0.0
H261 H 0.56387 0.95646 0.15403 0.0
H262 H 0.4077 0.05953 0.91487 0.0
H263 H 0.48804 0.13338 0.88551 0.0
H264 H 0.59199 0.94008 0.9514 0.0
H265 H 0.5691 0.95549 0.83266 0.0
H266 H 0.46162 0.10983 0.10258 0.0
H267 H 0.37083 0.02837 0.05931 0.0
Cd268 Cd 0.97034 0.47758 0.04409 0.0
Cd269 Cd 0.02261 0.53458 0.96121 0.0
C270 C 0.03959 0.4611 0.07555 0.0
N271 N 0.01531 0.45469 0.04285 0.0
C272 C 0.0368 0.41321 0.01191 0.0
C273 C 0.06161 0.41862 0.04567 0.0
C274 C 0.06319 0.44344 0.0775 0.0
C275 C 0.01367 0.43136 0.0113 0.0
H276 H 0.03971 0.47877 0.10093 0.0
H277 H 0.99359 0.42583 0.98623 0.0
C278 C 0.96893 0.46872 0.93895 0.0
C279 C 0.94713 0.54454 0.94144 0.0
C280 C 0.92394 0.56265 0.93849 0.0
C281 C 0.93344 0.59578 0.95794 0.0
C282 C 0.96557 0.60915 0.98202 0.0
C283 C 0.98788 0.59012 0.98428 0.0
N284 N 0.97865 0.55872 0.96346 0.0
H285 H 0.94037 0.5198 0.92452 0.0
H286 H 0.01315 0.60085 0.00141 0.0
C287 C 0.0603 0.48822 0.91829 0.0
N288 N 0.05718 0.49943 0.95543 0.0
C289 C 0.09522 0.47133 0.98145 0.0
C290 C 0.09914 0.45962 0.94335 0.0
C291 C 0.08103 0.46816 0.91155 0.0
C292 C 0.07399 0.49128 0.98685 0.0
H293 H 0.04673 0.49506 0.89379 0.0
H294 H 0.07115 0.50037 0.01615 0.0
C295 C 0.02888 0.53966 0.06408 0.0
C296 C 0.93473 0.42295 0.07231 0.0
N297 N 0.93273 0.5102 0.04399 0.0
C298 C 0.94462 0.54351 0.0475 0.0
C299 C 0.9232 0.56327 0.05152 0.0
C300 C 0.88899 0.54881 0.05199 0.0
C301 C 0.87716 0.5142 0.04708 0.0
C302 C 0.89956 0.49534 0.04319 0.0
C303 C 0.06341 0.58805 0.93622 0.0
O304 O 0.9741 0.48111 0.97526 0.0
O305 O 0.98346 0.48655 0.91698 0.0
O306 O 0.01833 0.52818 0.02778 0.0
O307 O 0.01311 0.52483 0.08759 0.0
O308 O 0.93158 0.42297 0.0358 0.0
O309 O 0.95272 0.44935 0.09562 0.0
O310 O 0.069 0.58489 0.97182 0.0
O311 O 0.03934 0.56597 0.91279 0.0
H312 H 0.97094 0.55507 0.04829 0.0
H313 H 0.89061 0.46883 0.04044 0.0
H314 H 0.03476 0.39463 0.98648 0.0
H315 H 0.08132 0.44804 0.10451 0.0
H316 H 0.89959 0.55142 0.91926 0.0
H317 H 0.97378 0.6344 -0.002 0.0
H318 H 0.10887 0.46566 0.00687 0.0
H319 H 0.08277 0.45935 0.88162 0.0
H320 H 0.93377 0.58978 0.05573 0.0
H321 H 0.85094 0.50178 0.04663 0.0
Cd322 Cd 0.48726 0.44319 0.02556 0.0
Cd323 Cd 0.5617 0.50621 0.95161 0.0
C324 C 0.54247 0.40942 0.00322 0.0
N325 N 0.511 0.40054 0.01143 0.0
C326 C 0.51609 0.3477 0.02029 0.0
C327 C 0.54959 0.35712 0.01454 0.0
C328 C 0.56202 0.38781 0.00394 0.0
C329 C 0.49712 0.36997 0.01861 0.0
H330 H 0.55333 0.43415 -0.00113 0.0
H331 H 0.47231 0.36366 0.02587 0.0
C332 C 0.50091 0.44424 0.92985 0.0
C333 C 0.49004 0.52009 0.92919 0.0
C334 C 0.46643 0.5375 0.92737 0.0
C335 C 0.47382 0.56853 0.95171 0.0
C336 C 0.50446 0.58062 0.97887 0.0
C337 C 0.52721 0.56196 0.98024 0.0
N338 N 0.51983 0.53252 0.95517 0.0
H339 H 0.48501 0.49746 0.90836 0.0
H340 H 0.55131 0.57149 0.00023 0.0
C341 C 0.59248 0.44776 0.93307 0.0
N342 N 0.5975 0.47408 0.9623 0.0
C343 C 0.64437 0.46157 -0.00257 0.0
C344 C 0.63939 0.43407 0.96766 0.0
C345 C 0.61301 0.42724 0.93529 0.0
C346 C 0.62278 0.48137 0.99422 0.0
H347 H 0.57288 0.44299 0.90752 0.0
H348 H 0.6265 0.50274 0.01679 0.0
C349 C 0.55832 0.50385 0.05676 0.0
C350 C 0.44611 0.41302 0.0747 0.0
N351 N 0.45389 0.47742 0.01279 0.0
C352 C 0.46914 0.51028 0.02542 0.0
C353 C 0.44989 0.53203 0.02999 0.0
C354 C 0.4145 0.51982 0.02152 0.0
C355 C 0.39952 0.48605 0.00554 0.0
C356 C 0.41978 0.46509 0.00195 0.0
C357 C 0.60128 0.55071 0.91212 0.0
O358 O 0.50666 0.45603 0.96624 0.0
O359 O 0.51992 0.45896 0.909 0.0
O360 O 0.55714 0.50243 0.02013 0.0
O361 O 0.53541 0.48373 0.06868 0.0
O362 O 0.43697 0.40465 0.03743 0.0
O363 O 0.47454 0.4346 0.08829 0.0
O364 O 0.60263 0.55855 0.94888 0.0
O365 O 0.5824 0.52229 0.89474 0.0
H366 H 0.4962 0.51931 0.03487 0.0
H367 H 0.40817 0.43876 0.99281 0.0
H368 H 0.50549 0.3245 0.02902 0.0
H369 H 0.58746 0.39595 -0.00116 0.0
H370 H 0.44351 0.52765 0.90532 0.0
H371 H 0.51106 0.60451 -0.00193 0.0
H372 H 0.66469 0.46767 0.02265 0.0
H373 H 0.60888 0.40672 0.91128 0.0
H374 H 0.4627 0.55768 0.04296 0.0
H375 H 0.37237 0.47559 -0.00192 0.0
Cd376 Cd 0.97056 0.47763 0.54472 0.0
Cd377 Cd 0.01465 0.52242 0.43438 0.0
C378 C 0.02635 0.45544 0.60089 0.0
N379 N 0.01071 0.44923 0.56262 0.0
C380 C 0.03927 0.40868 0.54684 0.0
C381 C 0.05582 0.41453 0.58626 0.0
C382 C 0.04907 0.43849 0.6133 0.0
C383 C 0.01684 0.4264 0.53561 0.0
H384 H 0.02091 0.47341 0.62198 0.0
H385 H 1.00408 0.42172 0.50535 0.0
C386 C 0.95007 0.46464 0.43861 0.0
C387 C 0.94758 0.54964 0.43026 0.0
C388 C 0.92541 0.56773 0.4195 0.0
C389 C 0.93403 0.59129 0.39569 0.0
C390 C 0.96551 0.59623 0.38412 0.0
C391 C 0.98682 0.5776 0.39546 0.0
N392 N 0.97755 0.55453 0.41782 0.0
H393 H 0.94064 0.53144 0.44829 0.0
H394 H 0.01081 0.58162 0.38618 0.0
C395 C 0.02399 0.45484 0.38327 0.0
N396 N 0.03729 0.47824 0.41656 0.0
C397 C 0.08631 0.45938 0.42675 0.0
C398 C 0.07382 0.43547 0.39186 0.0
C399 C 0.04168 0.43298 0.37061 0.0
C400 C 0.06761 0.48043 0.43856 0.0
H401 H 1.00021 0.45386 0.36566 0.0
H402 H 0.07807 0.49968 0.46444 0.0
C403 C 0.03692 0.53121 0.53876 0.0
C404 C 0.92011 0.43251 0.57038 0.0
N405 N 0.94596 0.52039 0.56263 0.0
C406 C 0.96187 0.5475 0.59121 0.0
C407 C 0.94447 0.56966 0.60391 0.0
C408 C 0.91014 0.56382 0.58751 0.0
C409 C 0.89478 0.53593 0.5574 0.0
C410 C 0.91315 0.51459 0.54542 0.0
C411 C 0.07185 0.561 0.41202 0.0
O412 O 0.96549 0.47616 0.47377 0.0
O413 O 0.96218 0.4775 0.41141 0.0
O414 O 0.01872 0.52257 0.50471 0.0
O415 O 0.02493 0.51953 0.56666 0.0
O416 O 0.92204 0.42898 0.5342 0.0
O417 O 0.94194 0.45669 0.59389 0.0
O418 O 0.06882 0.56443 0.44786 0.0
O419 O 0.04728 0.54104 0.38684 0.0
H420 H 0.98781 0.55154 0.60497 0.0
H421 H 0.90083 0.49262 0.5232 0.0
H422 H 0.04378 0.39075 0.52478 0.0
H423 H 0.06066 0.44364 0.64407 0.0
H424 H 0.90144 0.56272 0.42904 0.0
H425 H 0.97383 0.61449 0.36654 0.0
H426 H 0.11103 0.46297 0.44401 0.0
H427 H 0.03047 0.41474 0.34394 0.0
H428 H 0.9578 0.59097 0.62672 0.0
H429 H 0.86837 0.52978 0.54411 0.0
Cd430 Cd 0.46744 0.96953 0.54361 0.0
Cd431 Cd 0.51875 0.03301 0.46379 0.0
C432 C 0.53753 0.95372 0.57054 0.0
N433 N 0.51283 0.9475 0.53832 0.0
C434 C 0.5353 0.90767 0.5053 0.0
C435 C 0.56087 0.91325 0.53842 0.0
C436 C 0.56194 0.93705 0.57112 0.0
C437 C 0.51144 0.92508 0.50593 0.0
H438 H 0.53745 0.97044 0.59669 0.0
H439 H 0.49104 0.91966 0.48114 0.0
C440 C 0.46409 0.9678 0.44116 0.0
C441 C 0.44483 0.0454 0.44634 0.0
C442 C 0.42206 0.06385 0.44251 0.0
C443 C 0.43206 0.09736 0.4606 0.0
C444 C 0.4644 0.11078 0.48432 0.0
C445 C 0.4864 0.09143 0.48727 0.0
N446 N 0.47659 0.05957 0.46773 0.0
H447 H 0.43753 0.02029 0.43042 0.0
H448 H 0.51189 0.10231 0.50365 0.0
C449 C 0.54739 0.97479 0.42652 0.0
N450 N 0.55106 -0.00441 0.46111 0.0
C451 C 0.59354 0.9741 0.49121 0.0
C452 C 0.58931 0.95154 0.45618 0.0
C453 C 0.56594 0.95224 0.42356 0.0
C454 C 0.57382 -0.00417 0.49314 0.0
H455 H 0.53029 0.97584 0.40092 0.0
H456 H 0.57679 0.01299 0.52016 0.0
C457 C 0.52639 0.03337 0.56862 0.0
C458 C 0.4335 0.91335 0.57052 0.0
N459 N 0.42869 0.00073 0.54468 0.0
C460 C 0.43974 0.03385 0.54623 0.0
C461 C 0.41786 0.05315 0.54968 0.0
C462 C 0.38401 0.03841 0.55156 0.0
C463 C 0.3731 0.00399 0.5491 0.0
C464 C 0.39595 0.98558 0.54569 0.0
C465 C 0.56301 0.08288 0.43625 0.0
O466 O 0.47129 0.97966 0.47765 0.0
O467 O 0.47769 0.98577 0.41878 0.0
O468 O 0.51656 0.02677 0.53165 0.0
O469 O 0.50967 0.01508 0.58867 0.0
O470 O 0.43043 0.91372 0.53406 0.0
O471 O 0.45062 0.93989 0.59417 0.0
O472 O 0.57011 0.07835 0.47106 0.0
O473 O 0.53564 0.06419 0.41475 0.0
H474 H 0.46574 0.0456 0.54557 0.0
H475 H 0.38768 0.95922 0.54443 0.0
H476 H 0.53339 0.88971 0.47932 0.0
H477 H 0.58039 0.94163 0.59785 0.0
H478 H 0.39762 0.05242 0.42356 0.0
H479 H 0.47308 0.1363 0.49941 0.0
H480 H 0.61136 0.97446 0.51702 0.0
H481 H 0.56253 0.93599 0.39565 0.0
H482 H 0.42776 0.07956 0.55202 0.0
H483 H 0.34718 0.99138 0.54986 0.0
H484 H 0.19961 0.22036 0.31643 0.0
H485 H 0.1783 0.1421 0.21539 0.0
H486 H 0.17963 0.18034 0.35626 0.0
H487 H 0.159 0.10137 0.25582 0.0
H488 H 0.16346 0.10321 0.42884 0.0
H489 H 0.19138 0.13772 0.38673 0.0
H490 H 0.11248 0.08325 0.28746 0.0
H491 H 0.0855 0.04807 0.3291 0.0
C492 C 0.19093 0.19443 0.30283 0.0
C493 C 0.19036 0.18426 0.26282 0.0
C494 C 0.17979 0.17141 0.32582 0.0
C495 C 0.16792 0.13755 0.30941 0.0
C496 C 0.16771 0.1273 0.26931 0.0
C497 C 0.17874 0.15051 0.24615 0.0
C498 C 0.1524 0.09836 0.39791 0.0
C499 C 0.12213 0.07318 0.38238 0.0
C500 C 0.16826 0.11823 0.37379 0.0
C501 C 0.15393 0.11357 0.33376 0.0
C502 C 0.12444 0.08738 0.31799 0.0
C503 C 0.10882 0.06733 0.34199 0.0
H504 H 0.83298 0.13797 0.3427 0.0
H505 H 0.89956 0.23708 0.35952 0.0
H506 H 0.87358 0.12437 0.38926 0.0
H507 H 0.94029 0.2237 0.407 0.0
H508 H 0.0174 0.16189 0.43033 0.0
H509 H 0.97801 0.18933 0.40269 0.0
H510 H 0.9011 0.1338 0.457 0.0
H511 H 0.9404 0.10581 0.48348 0.0
C512 C 0.85617 0.15697 0.35683 0.0
C513 C 0.86332 0.18843 0.34732 0.0
C514 C 0.87932 0.14933 0.38387 0.0
C515 C 0.91016 0.17304 0.40208 0.0
C516 C 0.91687 0.20487 0.39332 0.0
C517 C 0.8936 0.21252 0.36621 0.0
C518 C 0.9925 0.15665 0.4376 0.0
C519 C 0.9817 0.13168 0.45867 0.0
C520 C 0.96986 0.17227 0.42173 0.0
C521 C 0.93617 0.16316 0.42689 0.0
C522 C 0.92664 0.14075 0.45168 0.0
C523 C 0.94916 0.12497 0.4672 0.0
H524 H 0.83765 0.84735 0.23532 0.0
H525 H 0.79953 0.81654 0.33593 0.0
H526 H 0.88479 0.88937 0.27853 0.0
H527 H 0.84468 0.86063 0.37941 0.0
H528 H 0.95419 0.90616 0.44304 0.0
H529 H 0.90114 0.87056 0.40297 0.0
H530 H 0.90643 0.93853 0.32235 0.0
H531 H 0.96085 0.97233 0.36092 0.0
C532 C 0.83884 0.85034 0.26673 0.0
C533 C 0.81512 0.82881 0.2824 0.0
C534 C 0.8657 0.87464 0.29163 0.0
C535 C 0.8688 0.87837 0.33267 0.0
C536 C 0.84366 0.858 0.34807 0.0
C537 C 0.81741 0.83307 0.32317 0.0
C538 C 0.94392 0.9132 0.41662 0.0
C539 C 0.9618 0.94124 0.40429 0.0
C540 C 0.91327 0.89314 0.39386 0.0
C541 C 0.8995 0.90143 0.35902 0.0
C542 C 0.91669 0.93076 0.34822 0.0
C543 C 0.94779 0.9502 0.37034 0.0
H544 H 0.2811 0.8587 0.37585 0.0
H545 H 0.18071 0.79044 0.34289 0.0
H546 H 0.26112 0.8949 0.42119 0.0
H547 H 0.16049 0.82667 0.38675 0.0
H548 H 0.13079 0.88438 0.48021 0.0
H549 H 0.16121 0.84851 0.45296 0.0
H550 H 0.22636 0.93103 0.41712 0.0
H551 H 0.19693 0.9672 0.44602 0.0
C552 C 0.25479 0.85151 0.37835 0.0
C553 C 0.23234 0.82198 0.3558 0.0
C554 C 0.24334 0.87218 0.40422 0.0
C555 C 0.20922 0.86368 0.40779 0.0
C556 C 0.18706 0.83375 0.38552 0.0
C557 C 0.19854 0.81309 0.35998 0.0
C558 C 0.15231 0.89517 0.46782 0.0
C559 C 0.16138 0.9288 0.46562 0.0
C560 C 0.16954 0.87447 0.45168 0.0
C561 C 0.19581 0.88672 0.4321 0.0
C562 C 0.20644 0.92075 0.43223 0.0
C563 C 0.18949 0.94157 0.44892 0.0
H564 H 0.15559 0.7401 0.61569 0.0
H565 H 0.21435 0.83649 0.68191 0.0
H566 H 0.12231 0.76567 0.57391 0.0
H567 H 0.18065 0.86197 0.64148 0.0
H568 H 0.13248 0.90391 0.5495 0.0
H569 H 0.1685 0.87397 0.57805 0.0
H570 H 0.0804 0.79387 0.57853 0.0
H571 H 0.04447 0.82329 0.54869 0.0
C572 C 0.1613 0.76673 0.62127 0.0
C573 C 0.18738 0.78639 0.65197 0.0
C574 C 0.14224 0.78137 0.59749 0.0
C575 C 0.14886 0.8159 0.60423 0.0
C576 C 0.17527 0.83539 0.63485 0.0
C577 C 0.1944 0.82079 0.65832 0.0
C578 C 0.1208 0.87967 0.55508 0.0
C579 C 0.08556 0.86601 0.54666 0.0
C580 C 0.14146 0.86257 0.57167 0.0
C581 C 0.12734 0.8317 0.58113 0.0
C582 C 0.09219 0.8174 0.5712 0.0
C583 C 0.07154 0.83432 0.55404 0.0
H584 H 0.20025 0.15959 0.71063 0.0
H585 H 0.12581 0.21239 0.71016 0.0
H586 H 0.16211 0.11589 0.65883 0.0
H587 H 0.08697 0.16798 0.65865 0.0
H588 H 0.09834 0.05822 0.54248 0.0
H589 H 0.1348 0.10862 0.58695 0.0
H590 H 0.05693 0.10715 0.65552 0.0
H591 H 0.02059 0.05706 0.6112 0.0
C592 C 0.17577 0.1619 0.69905 0.0
C593 C 0.16599 0.18939 0.71366 0.0
C594 C 0.15404 0.137 0.66944 0.0
C595 C 0.12192 0.13895 0.65443 0.0
C596 C 0.11175 0.16612 0.66973 0.0
C597 C 0.13375 0.19129 0.6992 0.0
C598 C 0.08895 0.06904 0.56673 0.0
C599 C 0.05695 0.05378 0.57381 0.0
C600 C 0.10973 0.09769 0.59212 0.0
C601 C 0.09859 0.11149 0.62463 0.0
C602 C 0.06594 0.09708 0.63049 0.0
C603 C 0.04535 0.06832 0.60539 0.0
H604 H 0.78728 0.09577 0.65365 0.0
H605 H 0.85418 0.18177 0.62651 0.0
H606 H 0.80272 0.06043 0.60266 0.0
H607 H 0.86856 0.14686 0.57459 0.0
H608 H 0.92583 0.07293 0.53982 0.0
H609 H 0.90219 0.11039 0.57588 0.0
H610 H 0.80227 0.0423 0.53351 0.0
H611 H 0.82625 0.0042 0.49656 0.0
C612 C 0.80488 0.10708 0.63632 0.0
C613 C 0.82007 0.14134 0.64439 0.0
C614 C 0.81347 0.08693 0.60685 0.0
C615 C 0.83714 0.10079 0.58474 0.0
C616 C 0.85081 0.13531 0.59159 0.0
C617 C 0.84256 0.15532 0.6213 0.0
C618 C 0.89866 0.06623 0.53673 0.0
C619 C 0.87796 0.03546 0.51492 0.0
C620 C 0.88504 0.08784 0.55775 0.0
C621 C 0.8503 0.07938 0.55778 0.0
C622 C 0.82923 0.04934 0.53453 0.0
C623 C 0.84293 0.02758 0.51327 0.0
H624 H 0.78776 0.78599 0.66184 0.0
H625 H 0.85408 0.85016 0.76567 0.0
H626 H 0.82183 0.81551 0.62076 0.0
H627 H 0.88978 0.87861 0.72463 0.0
H628 H 0.92965 0.94215 0.63883 0.0
H629 H 0.89399 0.91486 0.68024 0.0
H630 H 0.87363 0.82164 0.60074 0.0
H631 H 0.90806 0.84948 0.5583 0.0
C632 C 0.80955 0.80664 0.67588 0.0
C633 C 0.81805 0.81605 0.71693 0.0
C634 C 0.82948 0.82324 0.65231 0.0
C635 C 0.85885 0.84929 0.66924 0.0
C636 C 0.86713 0.85896 0.71046 0.0
C637 C 0.84679 0.84261 0.73405 0.0
C638 C 0.91758 0.9158 0.63025 0.0
C639 C 0.92158 0.89791 0.5953 0.0
C640 C 0.89725 0.90009 0.65414 0.0
C641 C 0.8808 0.866 0.64395 0.0
C642 C 0.88529 0.84805 0.60918 0.0
C643 C 0.90524 0.8639 0.58495 0.0
H644 H 0.30667 0.17061 0.23225 0.0
H645 H 0.29333 0.20948 0.12616 0.0
H646 H 0.33818 0.13661 0.20264 0.0
H647 H 0.32514 0.17529 0.09648 0.0
H648 H 0.41808 0.13686 0.07851 0.0
H649 H 0.38476 0.17077 0.10526 0.0
H650 H 0.32849 0.08826 0.14916 0.0
H651 H 0.36179 0.05459 0.12279 0.0
C652 C 0.31034 0.17187 0.20252 0.0
C653 C 0.29732 0.19285 0.18163 0.0
C654 C 0.32833 0.15219 0.18545 0.0
C655 C 0.33425 0.15314 0.14713 0.0
C656 C 0.32128 0.17412 0.12616 0.0
C657 C 0.30281 0.19353 0.14308 0.0
C658 C 0.39862 0.126 0.0939 0.0
C659 C 0.39265 0.09292 0.09839 0.0
C660 C 0.37932 0.14535 0.10896 0.0
C661 C 0.35392 0.1323 0.12945 0.0
C662 C 0.34798 0.09924 0.13384 0.0
C663 C 0.36691 0.07981 0.11838 0.0
H664 H 0.79981 0.25032 0.11537 0.0
H665 H 0.88315 0.27394 0.21349 0.0
H666 H 0.83315 0.29036 0.08363 0.0
H667 H 0.91708 0.31346 0.18087 0.0
H668 H 0.93407 0.41687 0.14828 0.0
H669 H 0.91091 0.36703 0.17272 0.0
H670 H 0.88087 0.3109 0.05391 0.0
H671 H 0.90327 0.3611 0.02933 0.0
C672 C 0.82565 0.26336 0.12964 0.0
C673 C 0.83859 0.25968 0.1674 0.0
C674 C 0.84487 0.28618 0.11125 0.0
C675 C 0.87745 0.3056 0.13021 0.0
C676 C 0.89168 0.29935 0.16607 0.0
C677 C 0.87238 0.27651 0.18456 0.0
C678 C 0.9225 0.3939 0.12739 0.0
C679 C 0.92004 0.39291 0.08692 0.0
C680 C 0.9097 0.36523 0.14141 0.0
C681 C 0.89435 0.33497 0.11524 0.0
C682 C 0.8924 0.3339 0.07474 0.0
C683 C 0.90506 0.36265 0.0607 0.0
H684 H 0.6823 0.84023 0.24884 0.0
H685 H 0.68198 0.78967 0.13288 0.0
H686 H 0.64991 0.87317 0.2203 0.0
H687 H 0.64869 0.82247 0.10414 0.0
H688 H 0.6157 0.91071 0.06673 0.0
H689 H 0.64948 0.87736 0.09292 0.0
H690 H 0.59442 0.86824 0.18762 0.0
H691 H 0.56091 0.90139 0.16163 0.0
C692 C 0.67525 0.83596 0.21717 0.0
C693 C 0.68479 0.812 0.19328 0.0
C694 C 0.65637 0.85485 0.20073 0.0
C695 C 0.64623 0.85044 0.15979 0.0
C696 C 0.65618 0.82682 0.13576 0.0
C697 C 0.67517 0.80784 0.15228 0.0
C698 C 0.61064 0.90142 0.093 0.0
C699 C 0.58567 0.90921 0.11218 0.0
C700 C 0.63005 0.8822 0.10805 0.0
C701 C 0.62504 0.87019 0.14271 0.0
C702 C 0.5997 0.87759 0.16144 0.0
C703 C 0.58039 0.89675 0.14647 0.0
H704 H 0.2218 0.65749 0.18113 0.0
H705 H 0.17179 0.73235 0.16778 0.0
H706 H 0.17369 0.61617 0.13737 0.0
H707 H 0.12298 0.69052 0.12537 0.0
H708 H 0.03689 0.58723 0.12772 0.0
H709 H 0.08632 0.63523 0.15438 0.0
H710 H 0.13456 0.60668 0.06008 0.0
H711 H 0.0848 0.55909 0.03288 0.0
C712 C 0.20097 0.66524 0.16802 0.0
C713 C 0.20048 0.69801 0.17775 0.0
C714 C 0.1735 0.64166 0.1431 0.0
C715 C 0.14494 0.65045 0.12832 0.0
C716 C 0.14495 0.68344 0.13651 0.0
C717 C 0.17279 0.70721 0.1607 0.0
C718 C 0.05788 0.59155 0.11245 0.0
C719 C 0.05726 0.56967 0.07835 0.0
C720 C 0.08588 0.61901 0.12743 0.0
C721 C 0.11384 0.62444 0.10895 0.0
C722 C 0.11303 0.60292 0.07448 0.0
C723 C 0.08468 0.57586 0.05901 0.0
H724 H 0.28261 0.82755 0.84382 0.0
H725 H 0.35296 0.7756 0.81208 0.0
H726 H 0.32814 0.8697 0.88939 0.0
H727 H 0.39832 0.81653 0.85972 0.0
H728 H 0.46908 0.92272 0.87982 0.0
H729 H 0.42611 0.87057 0.85375 0.0
H730 H 0.37176 0.89028 0.94593 0.0
H731 H 0.41418 0.94406 0.97025 0.0
C732 C 0.30769 0.82464 0.84756 0.0
C733 C 0.31452 0.79877 0.824 0.0
C734 C 0.33377 0.84861 0.87404 0.0
C735 C 0.36703 0.8468 0.87774 0.0
C736 C 0.3731 0.81904 0.85685 0.0
C737 C 0.34712 0.79544 0.82981 0.0
C738 C 0.44808 0.91573 0.8947 0.0
C739 C 0.44486 0.93714 0.92713 0.0
C740 C 0.42368 0.88555 0.88018 0.0
C741 C 0.39551 0.87604 0.89788 0.0
C742 C 0.3931 0.89693 0.93155 0.0
C743 C 0.41754 0.92742 0.9459 0.0
H744 H 0.25442 0.37701 0.86928 0.0
H745 H 0.17691 0.29392 0.88645 0.0
H746 H 0.22658 0.41464 0.89936 0.0
H747 H 0.14829 0.33141 0.91541 0.0
H748 H 0.14198 0.46372 0.8913 0.0
H749 H 0.17705 0.42855 0.87651 0.0
H750 H 0.14539 0.3746 0.96611 0.0
H751 H 0.10886 0.40916 0.97961 0.0
C752 C 0.23175 0.36682 0.88021 0.0
C753 C 0.21774 0.33252 0.87526 0.0
C754 C 0.21553 0.38837 0.89708 0.0
C755 C 0.18467 0.37614 0.90905 0.0
C756 C 0.172 0.34183 0.90668 0.0
C757 C 0.18842 0.32027 0.89004 0.0
C758 C 0.14232 0.44428 0.90779 0.0
C759 C 0.1223 0.43916 0.93647 0.0
C760 C 0.16293 0.42435 0.89972 0.0
C761 C 0.16435 0.39869 0.9202 0.0
C762 C 0.14484 0.39392 0.94952 0.0
C763 C 0.12412 0.41396 0.95758 0.0
H764 H 0.77131 0.20541 0.89045 0.0
H765 H 0.75281 0.11994 0.79875 0.0
H766 H 0.72975 0.17373 0.92253 0.0
H767 H 0.71182 0.08806 0.8316 0.0
H768 H 0.60225 0.07647 0.8488 0.0
H769 H 0.65635 0.09824 0.83088 0.0
H770 H 0.70429 0.12653 0.9534 0.0
H771 H 0.64951 0.10467 0.97163 0.0
C772 C 0.75939 0.1795 0.87793 0.0
C773 C 0.76442 0.16549 0.84127 0.0
C774 C 0.73564 0.1613 0.8965 0.0
C775 C 0.71679 0.1288 0.8788 0.0
C776 C 0.72541 0.11342 0.84524 0.0
C777 C 0.74911 0.13163 0.82659 0.0
C778 C 0.62424 0.08736 0.87202 0.0
C779 C 0.62158 0.08911 0.91162 0.0
C780 C 0.65539 0.09934 0.86171 0.0
C781 C 0.68468 0.11347 0.89073 0.0
C782 C 0.68212 0.11553 0.93046 0.0
C783 C 0.65079 0.10327 0.94084 0.0
H784 H 0.77603 0.65993 0.84064 0.0
H785 H 0.8475 0.75267 0.90116 0.0
H786 H 0.80848 0.63028 0.87567 0.0
H787 H 0.87953 0.72302 0.9381 0.0
H788 H 0.95215 0.65893 0.94534 0.0
H789 H 0.91613 0.6917 0.925 0.0
H790 H 0.82841 0.61397 0.93273 0.0
H791 H 0.86467 0.58058 0.95156 0.0
C792 C 0.79831 0.67403 0.86228 0.0
C793 C 0.80946 0.7086 0.86787 0.0
C794 C 0.8169 0.65698 0.8827 0.0
C795 C 0.84698 0.6741 0.90963 0.0
C796 C 0.85693 0.70891 0.91699 0.0
C797 C 0.83845 0.72598 0.89615 0.0
C798 C 0.92523 0.64904 0.94343 0.0
C799 C 0.91133 0.61705 0.95001 0.0
C800 C 0.90445 0.66797 0.93186 0.0
C801 C 0.86916 0.65558 0.92692 0.0
C802 C 0.85537 0.62413 0.9353 0.0
C803 C 0.87616 0.60496 0.94622 0.0
H804 H 0.12767 0.26194 0.11732 0.0
H805 H 0.22188 0.3279 0.10537 0.0
H806 H 0.09706 0.29515 0.08597 0.0
H807 H 0.19118 0.36086 0.07274 0.0
H808 H 0.12825 0.43557 0.08144 0.0
H809 H 0.16167 0.3986 0.0952 0.0
H810 H 0.07939 0.31538 0.02939 0.0
H811 H 0.0453 0.35205 0.01765 0.0
C812 C 0.14176 0.28305 0.10692 0.0
C813 C 0.17712 0.29249 0.11403 0.0
C814 C 0.12421 0.30208 0.08874 0.0
C815 C 0.14164 0.33096 0.07711 0.0
C816 C 0.17699 0.33913 0.08196 0.0
C817 C 0.19457 0.3201 0.1003 0.0
C818 C 0.11727 0.40938 0.06991 0.0
C819 C 0.08381 0.39681 0.04908 0.0
C820 C 0.13666 0.38818 0.07726 0.0
C821 C 0.12312 0.35387 0.06379 0.0
C822 C 0.09042 0.34157 0.04084 0.0
C823 C 0.07097 0.36273 0.03371 0.0
H824 H 0.23561 0.68647 0.86155 0.0
H825 H 0.16064 0.72002 0.79468 0.0
H826 H 0.19577 0.66565 0.90212 0.0
H827 H 0.12096 0.69977 0.83614 0.0
H828 H 0.05344 0.60283 0.86376 0.0
H829 H 0.09219 0.64245 0.8367 0.0
H830 H 0.16007 0.6752 0.94936 0.0
H831 H 0.12126 0.63476 0.97649 0.0
C832 C 0.21086 0.69003 0.85599 0.0
C833 C 0.20096 0.70411 0.82426 0.0
C834 C 0.18814 0.67843 0.87961 0.0
C835 C 0.15516 0.68081 0.87201 0.0
C836 C 0.1461 0.69719 0.8422 0.0
C837 C 0.1688 0.7087 0.81846 0.0
C838 C 0.07638 0.6188 0.88296 0.0
C839 C 0.08472 0.6153 0.92197 0.0
C840 C 0.09842 0.64182 0.86757 0.0
C841 C 0.12923 0.6618 0.8909 0.0
C842 C 0.13661 0.65981 0.93067 0.0
C843 C 0.11444 0.63673 0.94615 0.0
H844 H 0.32437 0.23818 0.86132 0.0
H845 H 0.29374 0.16158 0.7573 0.0
H846 H 0.36204 0.20939 0.89092 0.0
H847 H 0.33128 0.1335 0.78627 0.0
H848 H 0.37839 0.07313 0.85885 0.0
H849 H 0.33891 0.10212 0.83621 0.0
H850 H 0.41456 0.19552 0.8844 0.0
H851 H 0.45386 0.16645 0.90835 0.0
C852 C 0.3254 0.21516 0.84487 0.0
C853 C 0.30579 0.20231 0.80688 0.0
C854 C 0.34725 0.19876 0.8617 0.0
C855 C 0.34979 0.16891 0.84114 0.0
C856 C 0.32979 0.15603 0.80342 0.0
C857 C 0.30828 0.17242 0.78661 0.0
C858 C 0.3866 0.09985 0.86523 0.0
C859 C 0.4196 0.11726 0.88545 0.0
C860 C 0.36396 0.11657 0.85178 0.0
C861 C 0.37344 0.15132 0.85809 0.0
C862 C 0.40615 0.16881 0.87912 0.0
C863 C 0.42891 0.15205 0.89247 0.0
H864 H 0.91196 0.26464 0.81902 0.0
H865 H 0.82186 0.2823 0.85015 0.0
H866 H 0.94598 0.31649 0.86289 0.0
H867 H 0.8547 0.33454 0.89165 0.0
H868 H 0.91923 0.4287 0.96651 0.0
H869 H 0.89423 0.36906 0.94497 0.0
H870 H 0.95271 0.37124 0.85284 0.0
H871 H 0.9795 0.4299 0.87685 0.0
C872 C 0.8996 0.27924 0.8361 0.0
C873 C 0.86439 0.27036 0.83065 0.0
C874 C 0.91889 0.30907 0.86074 0.0
C875 C 0.90301 0.33021 0.87989 0.0
C876 C 0.86796 0.31916 0.87746 0.0
C877 C 0.84895 0.28943 0.85319 0.0
C878 C 0.92722 0.416 0.94244 0.0
C879 C 0.95144 0.43358 0.92373 0.0
C880 C 0.91275 0.38201 0.92974 0.0
C881 C 0.92167 0.36519 0.89732 0.0
C882 C 0.94586 0.38308 0.87852 0.0
C883 C 0.96065 0.41688 0.89167 0.0
H884 H 0.71344 0.81388 0.8595 0.0
H885 H 0.6879 0.83867 0.74632 0.0
H886 H 0.68045 0.84774 0.88701 0.0
H887 H 0.65559 0.87252 0.77374 0.0
H888 H 0.56936 0.89955 0.8207 0.0
H889 H 0.60336 0.86584 0.7968 0.0
H890 H 0.67703 0.90409 0.90456 0.0
H891 H 0.64301 0.93811 0.9285 0.0
C892 C 0.70116 0.82677 0.84055 0.0
C893 C 0.70334 0.82325 0.80055 0.0
C894 C 0.68223 0.84627 0.85636 0.0
C895 C 0.66486 0.86266 0.83257 0.0
C896 C 0.66787 0.85977 0.79288 0.0
C897 C 0.68676 0.84044 0.77717 0.0
C898 C 0.59288 0.90103 0.83933 0.0
C899 C 0.60336 0.92194 0.87652 0.0
C900 C 0.6125 0.88161 0.82555 0.0
C901 C 0.64329 0.88237 0.84847 0.0
C902 C 0.6534 0.90258 0.88612 0.0
C903 C 0.63377 0.92211 0.89991 0.0
H904 H 0.73598 0.63837 0.12409 0.0
H905 H 0.82381 0.71897 0.12518 0.0
H906 H 0.76225 0.5994 0.09328 0.0
H907 H 0.85067 0.68026 0.09597 0.0
H908 H 0.88847 0.6065 0.02681 0.0
H909 H 0.85423 0.64252 0.04238 0.0
H910 H 0.80566 0.57615 0.11248 0.0
H911 H 0.83898 0.5396 0.09555 0.0
C912 C 0.76071 0.64778 0.11719 0.0
C913 C 0.77787 0.6817 0.1271 0.0
C914 C 0.77598 0.62542 0.09993 0.0
C915 C 0.8089 0.63646 0.09249 0.0
C916 C 0.82523 0.67067 0.10073 0.0
C917 C 0.80986 0.69298 0.11766 0.0
C918 C 0.87014 0.59931 0.04504 0.0
C919 C 0.86643 0.56988 0.05954 0.0
C920 C 0.85059 0.62017 0.05428 0.0
C921 C 0.82712 0.61252 0.07895 0.0
C922 C 0.82291 0.58272 0.0928 0.0
C923 C 0.84217 0.56166 0.08312 0.0
H924 H 0.29888 0.8419 0.21169 0.0
H925 H 0.33039 0.76654 0.14445 0.0
H926 H 0.32611 0.88189 0.17504 0.0
H927 H 0.35825 0.80683 0.10844 0.0
H928 H 0.42325 0.94883 0.14968 0.0
H929 H 0.38556 0.90812 0.17672 0.0
H930 H 0.35198 0.84408 0.06248 0.0
H931 H 0.39043 0.88486 0.03532 0.0
C932 C 0.31137 0.83378 0.1889 0.0
C933 C 0.31294 0.80118 0.1814 0.0
C934 C 0.32703 0.85672 0.16798 0.0
C935 C 0.34469 0.84757 0.13929 0.0
C936 C 0.34464 0.81454 0.13023 0.0
C937 C 0.32884 0.79152 0.15105 0.0
C938 C 0.4077 0.92618 0.13022 0.0
C939 C 0.40992 0.91991 0.09046 0.0
C940 C 0.38586 0.90296 0.14565 0.0
C941 C 0.36571 0.87298 0.12166 0.0
C942 C 0.36743 0.86691 0.08168 0.0
C943 C 0.38933 0.89024 0.06616 0.0
H944 H 0.7311 0.19728 0.13769 0.0
H945 H 0.74318 0.105 0.16227 0.0
H946 H 0.68279 0.16796 0.08605 0.0
H947 H 0.69392 0.07517 0.11064 0.0
H948 H 0.59967 0.0305 0.0168 0.0
H949 H 0.65935 0.06217 0.03967 0.0
H950 H 0.6296 0.13855 0.10734 0.0
H951 H 0.57047 0.10673 0.08483 0.0
C952 C 0.72411 0.17068 0.13109 0.0
C953 C 0.74033 0.15331 0.15423 0.0
C954 C 0.69646 0.15389 0.10146 0.0
C955 C 0.68425 0.1194 0.09504 0.0
C956 C 0.70293 0.10183 0.115 0.0
C957 C 0.73104 0.1188 0.14452 0.0
C958 C 0.60613 0.05454 0.03561 0.0
C959 C 0.58093 0.06663 0.04891 0.0
C960 C 0.64009 0.07249 0.04876 0.0
C961 C 0.649 0.10282 0.07498 0.0
C962 C 0.62345 0.11552 0.0865 0.0
C963 C 0.58968 0.09737 0.07388 0.0
H964 H 0.65409 0.64592 0.71908 0.0
H965 H 0.70924 0.71939 0.82168 0.0
H966 H 0.63223 0.608 0.76116 0.0
H967 H 0.6899 0.68099 0.86368 0.0
H968 H 0.6212 0.61797 0.93027 0.0
H969 H 0.64402 0.65605 0.88903 0.0
H970 H 0.64531 0.57367 0.8024 0.0
H971 H 0.62051 0.53576 0.84274 0.0
C972 C 0.66185 0.65375 0.75063 0.0
C973 C 0.68357 0.68542 0.7671 0.0
C974 C 0.64965 0.63195 0.77485 0.0
C975 C 0.65938 0.64121 0.81606 0.0
C976 C 0.68129 0.673 0.83227 0.0
C977 C 0.6928 0.69495 0.80811 0.0
C978 C 0.62671 0.60814 0.90257 0.0
C979 C 0.61903 0.57398 0.88963 0.0
C980 C 0.63992 0.62995 0.87886 0.0
C981 C 0.64641 0.61807 0.84202 0.0
C982 C 0.63987 0.58382 0.82997 0.0
C983 C 0.626 0.56204 0.8533 0.0
H984 H 0.37691 0.71338 0.8774 0.0
H985 H 0.32533 0.61662 0.80713 0.0
H986 H 0.40988 0.68897 0.92132 0.0
H987 H 0.35843 0.59236 0.8501 0.0
H988 H 0.40513 0.55036 0.94155 0.0
H989 H 0.36791 0.58036 0.91514 0.0
H990 H 0.45462 0.6629 0.91768 0.0
H991 H 0.49166 0.63316 0.94489 0.0
C992 C 0.37263 0.68692 0.87145 0.0
C993 C 0.34877 0.66684 0.83886 0.0
C994 C 0.39146 0.67296 0.89651 0.0
C995 C 0.38663 0.6387 0.88939 0.0
C996 C 0.36232 0.61873 0.85699 0.0
C997 C 0.34359 0.63265 0.83207 0.0
C998 C 0.41611 0.57521 0.93723 0.0
C999 C 0.45127 0.58928 0.94476 0.0
C1000 C 0.39485 0.59233 0.92198 0.0
C1001 C 0.40836 0.6237 0.91345 0.0
C1002 C 0.44337 0.63884 0.92403 0.0
C1003 C 0.46464 0.6218 0.93966 0.0
H1004 H 0.30228 0.30831 0.8233 0.0
H1005 H 0.36389 0.31706 0.73501 0.0
H1006 H 0.35055 0.34204 0.87331 0.0
H1007 H 0.41213 0.35157 0.78435 0.0
H1008 H 0.50052 0.38956 0.88032 0.0
H1009 H 0.45083 0.34838 0.83899 0.0
H1010 H 0.38664 0.39746 0.89389 0.0
H1011 H 0.43649 0.4376 0.93564 0.0
C1012 C 0.32586 0.31837 0.81447 0.0
C1013 C 0.32929 0.31088 0.77538 0.0
C1014 C 0.35366 0.33734 0.84311 0.0
C1015 C 0.38527 0.34923 0.83289 0.0
C1016 C 0.38837 0.3421 0.79345 0.0
C1017 C 0.3607 0.3228 0.76508 0.0
C1018 C 0.47564 0.3907 0.88413 0.0
C1019 C 0.47185 0.41612 0.91132 0.0
C1020 C 0.44727 0.36749 0.86032 0.0
C1021 C 0.41481 0.37002 0.86271 0.0
C1022 C 0.41119 0.39452 0.89162 0.0
C1023 C 0.43961 0.41737 0.91581 0.0
H1024 H 0.7229 0.2751 0.90054 0.0
H1025 H 0.76924 0.36012 0.85378 0.0
H1026 H 0.70205 0.30963 0.94642 0.0
H1027 H 0.74727 0.3945 0.89826 0.0
H1028 H 0.70812 0.45434 0.97968 0.0
H1029 H 0.74413 0.42029 0.96206 0.0
H1030 H 0.65756 0.33334 0.93633 0.0
H1031 H 0.62233 0.36718 0.95535 0.0
C1032 C 0.72883 0.30128 0.90036 0.0
C1033 C 0.74708 0.31496 0.87325 0.0
C1034 C 0.71688 0.32105 0.92658 0.0
C1035 C 0.72255 0.35478 0.92575 0.0
C1036 C 0.7427 0.36873 0.90015 0.0
C1037 C 0.755 0.34901 0.87429 0.0
C1038 C 0.69723 0.4278 0.97173 0.0
C1039 C 0.66243 0.41336 0.96806 0.0
C1040 C 0.71771 0.40833 0.96119 0.0
C1041 C 0.70362 0.37418 0.94679 0.0
C1042 C 0.66943 0.35949 0.94726 0.0
C1043 C 0.64908 0.3789 0.95787 0.0
H1044 H 0.7196 0.29332 0.10939 0.0
H1045 H 0.63147 0.22907 0.13755 0.0
H1046 H 0.68375 0.31417 0.06503 0.0
H1047 H 0.59531 0.25103 0.09445 0.0
H1048 H 0.5366 0.28942 0.00311 0.0
H1049 H 0.57338 0.25882 0.02972 0.0
H1050 H 0.65148 0.35076 0.07813 0.0
H1051 H 0.61531 0.38092 0.05211 0.0
C1052 C 0.69247 0.28357 0.10587 0.0
C1053 C 0.67821 0.26008 0.12731 0.0
C1054 C 0.67192 0.29556 0.08057 0.0
C1055 C 0.63665 0.28478 0.07674 0.0
C1056 C 0.62235 0.25976 0.0965 0.0
C1057 C 0.643 0.24736 0.12143 0.0
C1058 C 0.56177 0.30298 0.0191 0.0
C1059 C 0.57289 0.33767 0.02537 0.0
C1060 C 0.58282 0.28546 0.03435 0.0
C1061 C 0.6154 0.3023 0.0561 0.0
C1062 C 0.62687 0.33683 0.06087 0.0
C1063 C 0.60596 0.35424 0.04578 0.0
H1064 H 0.67987 0.64736 0.26429 0.0
H1065 H 0.66649 0.69939 0.16953 0.0
H1066 H 0.65463 0.59469 0.2183 0.0
H1067 H 0.64006 0.64733 0.12402 0.0
H1068 H 0.56404 0.51546 0.13601 0.0
H1069 H 0.6004 0.5634 0.18272 0.0
H1070 H 0.64837 0.5993 0.08994 0.0
H1071 H 0.61034 0.55207 0.04254 0.0
C1072 C 0.67122 0.64739 0.23368 0.0
C1073 C 0.67477 0.67712 0.22027 0.0
C1074 C 0.65687 0.61738 0.20737 0.0
C1075 C 0.64544 0.6168 0.16744 0.0
C1076 C 0.64928 0.64678 0.1543 0.0
C1077 C 0.66398 0.67663 0.18044 0.0
C1078 C 0.58259 0.53337 0.12558 0.0
C1079 C 0.58406 0.53023 0.08552 0.0
C1080 C 0.60372 0.56075 0.15251 0.0
C1081 C 0.62705 0.58537 0.14001 0.0
C1082 C 0.6301 0.58108 0.10032 0.0
C1083 C 0.60856 0.55389 0.07322 0.0
H1084 H 0.37946 0.67624 0.16955 0.0
H1085 H 0.27763 0.61169 0.13093 0.0
H1086 H 0.39898 0.64106 0.12318 0.0
H1087 H 0.29706 0.57651 0.08373 0.0
H1088 H 0.35854 0.50244 0.05433 0.0
H1089 H 0.33134 0.53876 0.08738 0.0
H1090 H 0.39696 0.62224 0.05385 0.0
H1091 H 0.42454 0.58589 0.02091 0.0
C1092 C 0.36121 0.65461 0.15085 0.0
C1093 C 0.32712 0.64649 0.15398 0.0
C1094 C 0.37231 0.63463 0.12397 0.0
C1095 C 0.34954 0.60605 0.09958 0.0
C1096 C 0.31525 0.59823 0.10229 0.0
C1097 C 0.30413 0.61833 0.12924 0.0
C1098 C 0.36655 0.52834 0.05277 0.0
C1099 C 0.39389 0.54115 0.03488 0.0
C1100 C 0.35092 0.54924 0.07191 0.0
C1101 C 0.36225 0.58346 0.07369 0.0
C1102 C 0.38809 0.59604 0.05366 0.0
C1103 C 0.40379 0.57515 0.03458 0.0
H1104 H 0.27881 0.33169 0.18648 0.0
H1105 H 0.36674 0.32807 0.26396 0.0
H1106 H 0.31447 0.35929 0.1448 0.0
H1107 H 0.40281 0.35574 0.2226 0.0
H1108 H 0.45874 0.42843 0.15464 0.0
H1109 H 0.42283 0.40642 0.19899 0.0
H1110 H 0.34893 0.3435 0.09975 0.0
H1111 H 0.38457 0.3661 0.05525 0.0
C1112 C 0.30578 0.33675 0.19437 0.0
C1113 C 0.32005 0.32728 0.22773 0.0
C1114 C 0.32625 0.35259 0.17068 0.0
C1115 C 0.36146 0.3592 0.18 0.0
C1116 C 0.3758 0.35117 0.21467 0.0
C1117 C 0.35523 0.33541 0.23841 0.0
C1118 C 0.43483 0.40988 0.14225 0.0
C1119 C 0.4245 0.39893 0.10142 0.0
C1120 C 0.41431 0.3972 0.16772 0.0
C1121 C 0.38299 0.37327 0.15294 0.0
C1122 C 0.37268 0.36231 0.11206 0.0
C1123 C 0.39321 0.37503 0.08656 0.0
H1124 H 0.78661 0.69929 0.62548 0.0
H1125 H 0.79876 0.66167 0.73256 0.0
H1126 H 0.81986 0.66605 0.59777 0.0
H1127 H 0.83079 0.62768 0.70461 0.0
H1128 H 0.91649 0.59638 0.66329 0.0
H1129 H 0.88339 0.63034 0.68842 0.0
H1130 H 0.82315 0.61317 0.57238 0.0
H1131 H 0.85779 0.58091 0.54668 0.0
C1132 C 0.79588 0.68353 0.64291 0.0
C1133 C 0.79001 0.68335 0.68137 0.0
C1134 C 0.81499 0.66433 0.62697 0.0
C1135 C 0.82856 0.64419 0.64892 0.0
C1136 C 0.8217 0.64337 0.68696 0.0
C1137 C 0.80293 0.66274 0.70296 0.0
C1138 C 0.89664 0.60024 0.64282 0.0
C1139 C 0.89011 0.58563 0.60275 0.0
C1140 C 0.8771 0.6194 0.65747 0.0
C1141 C 0.85007 0.62444 0.63271 0.0
C1142 C 0.84377 0.6102 0.59252 0.0
C1143 C 0.8635 0.5912 0.57779 0.0
H1144 H 0.29533 0.74665 0.61745 0.0
H1145 H 0.381 0.76428 0.71108 0.0
H1146 H 0.32991 0.78378 0.58346 0.0
H1147 H 0.41605 0.80097 0.67634 0.0
H1148 H 0.43583 0.90603 0.64641 0.0
H1149 H 0.41247 0.85612 0.67046 0.0
H1150 H 0.37721 0.80159 0.55115 0.0
H1151 H 0.40009 0.85197 0.52692 0.0
C1152 C 0.32189 0.75762 0.63011 0.0
C1153 C 0.33531 0.75335 0.66738 0.0
C1154 C 0.34179 0.77874 0.61046 0.0
C1155 C 0.37547 0.79589 0.62774 0.0
C1156 C 0.3899 0.78858 0.66282 0.0
C1157 C 0.36994 0.76737 0.68253 0.0
C1158 C 0.42319 0.88339 0.62529 0.0
C1159 C 0.41933 0.88297 0.58482 0.0
C1160 C 0.41027 0.85465 0.63907 0.0
C1161 C 0.39328 0.82485 0.61268 0.0
C1162 C 0.3901 0.82424 0.57215 0.0
C1163 C 0.40302 0.85308 0.55832 0.0
H1164 H 0.18816 0.3388 0.73558 0.0
H1165 H 0.17656 0.27593 0.62336 0.0
H1166 H 0.15311 0.36852 0.70558 0.0
H1167 H 0.14157 0.30666 0.59275 0.0
H1168 H 0.05014 0.34848 0.56316 0.0
H1169 H 0.08716 0.31755 0.58819 0.0
H1170 H 0.15276 0.40715 0.66398 0.0
H1171 H 0.11575 0.4378 0.63934 0.0
C1172 C 0.1784 0.33136 0.7043 0.0
C1173 C 0.18556 0.30481 0.68202 0.0
C1174 C 0.15831 0.34875 0.68692 0.0
C1175 C 0.14455 0.34045 0.64649 0.0
C1176 C 0.15149 0.31378 0.62401 0.0
C1177 C 0.17178 0.29623 0.64153 0.0
C1178 C 0.07267 0.36167 0.58485 0.0
C1179 C 0.07958 0.39571 0.59948 0.0
C1180 C 0.094 0.34386 0.59922 0.0
C1181 C 0.12294 0.35958 0.62861 0.0
C1182 C 0.13036 0.39383 0.64216 0.0
C1183 C 0.10904 0.41154 0.62794 0.0
H1184 H 0.72278 0.14614 0.70416 0.0
H1185 H 0.67378 0.21913 0.67691 0.0
H1186 H 0.67599 0.10281 0.66118 0.0
H1187 H 0.62669 0.17565 0.63417 0.0
H1188 H 0.55747 0.08731 0.54068 0.0
H1189 H 0.60973 0.13065 0.5725 0.0
H1190 H 0.61636 0.08196 0.67159 0.0
H1191 H 0.56471 0.03878 0.63967 0.0
C1192 C 0.70228 0.15294 0.68841 0.0
C1193 C 0.70155 0.1858 0.69405 0.0
C1194 C 0.67549 0.12818 0.66403 0.0
C1195 C 0.64767 0.13596 0.64482 0.0
C1196 C 0.64795 0.16909 0.64856 0.0
C1197 C 0.67471 0.19387 0.67314 0.0
C1198 C 0.5704 0.08587 0.56902 0.0
C1199 C 0.55725 0.05982 0.58768 0.0
C1200 C 0.60008 0.11062 0.58727 0.0
C1201 C 0.61713 0.10937 0.62425 0.0
C1202 C 0.60398 0.08319 0.64276 0.0
C1203 C 0.57424 0.05872 0.62472 0.0
H1204 H 0.7579 0.32022 0.32937 0.0
H1205 H 0.8418 0.2828 0.31262 0.0
H1206 H 0.79559 0.36577 0.38012 0.0
H1207 H 0.87894 0.32728 0.36407 0.0
H1208 H 0.89283 0.46062 0.38948 0.0
H1209 H 0.84493 0.41139 0.36346 0.0
H1210 H 0.89056 0.35719 0.43833 0.0
H1211 H 0.93847 0.40688 0.46476 0.0
C1212 C 0.78413 0.32117 0.33736 0.0
C1213 C 0.79709 0.29813 0.31708 0.0
C1214 C 0.80554 0.34705 0.36643 0.0
C1215 C 0.83999 0.34979 0.37599 0.0
C1216 C 0.85233 0.32534 0.3577 0.0
C1217 C 0.8311 0.29989 0.3282 0.0
C1218 C 0.89201 0.43841 0.40114 0.0
C1219 C 0.91899 0.43721 0.42894 0.0
C1220 C 0.86458 0.41041 0.3866 0.0
C1221 C 0.86418 0.38066 0.39904 0.0
C1222 C 0.89034 0.37998 0.42855 0.0
C1223 C 0.91754 0.40827 0.44367 0.0
H1224 H 0.73561 0.86955 0.37447 0.0
H1225 H 0.66457 0.78272 0.39417 0.0
H1226 H 0.70722 0.90435 0.40892 0.0
H1227 H 0.63644 0.81754 0.42949 0.0
H1228 H 0.56697 0.88632 0.42155 0.0
H1229 H 0.60059 0.8495 0.40672 0.0
H1230 H 0.69085 0.92558 0.46903 0.0
H1231 H 0.65702 0.96283 0.48309 0.0
C1232 C 0.71444 0.85796 0.38709 0.0
C1233 C 0.70209 0.82342 0.38129 0.0
C1234 C 0.69822 0.87792 0.40705 0.0
C1235 C 0.66926 0.86377 0.42166 0.0
C1236 C 0.65831 0.82924 0.41804 0.0
C1237 C 0.67455 0.80928 0.39805 0.0
C1238 C 0.59396 0.89512 0.43238 0.0
C1239 C 0.60939 0.92773 0.45279 0.0
C1240 C 0.61325 0.87385 0.42429 0.0
C1241 C 0.64855 0.88464 0.43629 0.0
C1242 C 0.66378 0.91663 0.45883 0.0
C1243 C 0.64438 0.9379 0.46715 0.0
H1244 H 0.24396 0.7062 0.37665 0.0
H1245 H 0.23361 0.62233 0.28581 0.0
H1246 H 0.20248 0.67201 0.40644 0.0
H1247 H 0.19271 0.58774 0.31656 0.0
H1248 H 0.08337 0.56025 0.33772 0.0
H1249 H 0.13495 0.58741 0.31735 0.0
H1250 H 0.18345 0.6263 0.43881 0.0
H1251 H 0.13123 0.59958 0.45928 0.0
C1252 C 0.23356 0.68021 0.36364 0.0
C1253 C 0.24146 0.66715 0.32829 0.0
C1254 C 0.20988 0.66053 0.38094 0.0
C1255 C 0.19374 0.62735 0.36335 0.0
C1256 C 0.20416 0.61348 0.33022 0.0
C1257 C 0.22783 0.63323 0.31281 0.0
C1258 C 0.10501 0.57458 0.36012 0.0
C1259 C 0.10316 0.57809 0.40006 0.0
C1260 C 0.13477 0.58977 0.34846 0.0
C1261 C 0.16344 0.60874 0.37648 0.0
C1262 C 0.16173 0.61197 0.41653 0.0
C1263 C 0.13183 0.59678 0.42823 0.0
H1264 H 0.27675 0.16253 0.33951 0.0
H1265 H 0.34699 0.25491 0.40315 0.0
H1266 H 0.30878 0.1325 0.37442 0.0
H1267 H 0.37854 0.22483 0.43999 0.0
H1268 H 0.45135 0.16105 0.4491 0.0
H1269 H 0.41577 0.19392 0.4279 0.0
H1270 H 0.32721 0.11535 0.43119 0.0
H1271 H 0.36286 0.0818 0.45053 0.0
C1272 C 0.29866 0.17644 0.3618 0.0
C1273 C 0.3096 0.21105 0.36835 0.0
C1274 C 0.317 0.15917 0.38214 0.0
C1275 C 0.34659 0.17609 0.40997 0.0
C1276 C 0.35633 0.21089 0.41819 0.0
C1277 C 0.33811 0.2282 0.39742 0.0
C1278 C 0.42433 0.15095 0.44609 0.0
C1279 C 0.41012 0.11871 0.4518 0.0
C1280 C 0.4038 0.16996 0.43398 0.0
C1281 C 0.36843 0.15741 0.42758 0.0
C1282 C 0.35427 0.12568 0.43492 0.0
C1283 C 0.37479 0.10644 0.44629 0.0
H1284 H 0.72472 0.831 0.61106 0.0
H1285 H 0.63031 0.75803 0.60768 0.0
H1286 H 0.69473 0.86264 0.57516 0.0
H1287 H 0.60003 0.79021 0.57377 0.0
H1288 H 0.54833 0.84746 0.507 0.0
H1289 H 0.58406 0.81244 0.51986 0.0
H1290 H 0.66218 0.89721 0.59009 0.0
H1291 H 0.62756 0.93247 0.57458 0.0
C1292 C 0.69754 0.82154 0.60215 0.0
C1293 C 0.6798 0.79219 0.61235 0.0
C1294 C 0.68026 0.83982 0.58188 0.0
C1295 C 0.64476 0.82944 0.57194 0.0
C1296 C 0.62731 0.799 0.58032 0.0
C1297 C 0.64466 0.78051 0.60005 0.0
C1298 C 0.57353 0.85886 0.52417 0.0
C1299 C 0.58464 0.8928 0.54058 0.0
C1300 C 0.59392 0.83859 0.53207 0.0
C1301 C 0.6258 0.85163 0.55698 0.0
C1302 C 0.63787 0.886 0.57082 0.0
C1303 C 0.61769 0.90629 0.56245 0.0
H1304 H 0.7348 0.20972 0.36411 0.0
H1305 H 0.65628 0.16629 0.2613 0.0
H1306 H 0.6957 0.18794 0.40559 0.0
H1307 H 0.61782 0.1429 0.30206 0.0
H1308 H 0.54666 0.11631 0.38033 0.0
H1309 H 0.585 0.15171 0.34779 0.0
H1310 H 0.66995 0.13772 0.42203 0.0
H1311 H 0.6314 0.10426 0.45619 0.0
C1312 C 0.70917 0.19541 0.35045 0.0
C1313 C 0.69851 0.18953 0.30958 0.0
C1314 C 0.6868 0.18281 0.37414 0.0
C1315 C 0.65355 0.16353 0.35728 0.0
C1316 C 0.64292 0.15823 0.31632 0.0
C1317 C 0.66505 0.17139 0.2928 0.0
C1318 C 0.57359 0.12141 0.39003 0.0
C1319 C 0.58623 0.10742 0.42033 0.0
C1320 C 0.59558 0.14144 0.37124 0.0
C1321 C 0.63061 0.14705 0.38162 0.0
C1322 C 0.6432 0.13428 0.4134 0.0
C1323 C 0.62116 0.11493 0.43288 0.0
H1324 H 0.7908 0.66422 0.25544 0.0
H1325 H 0.81041 0.7276 0.36903 0.0
H1326 H 0.82708 0.63375 0.2816 0.0
H1327 H 0.84773 0.6972 0.3953 0.0
H1328 H 0.89101 0.61567 0.43609 0.0
H1329 H 0.85198 0.64536 0.41299 0.0
H1330 H 0.88521 0.64033 0.30201 0.0
H1331 H 0.92281 0.6096 0.32426 0.0
C1332 C 0.8029 0.67179 0.28611 0.0
C1333 C 0.79771 0.69869 0.30996 0.0
C1334 C 0.82403 0.65431 0.30112 0.0
C1335 C 0.84097 0.66314 0.34055 0.0
C1336 C 0.83508 0.68948 0.36485 0.0
C1337 C 0.81371 0.70702 0.34975 0.0
C1338 C 0.88976 0.6206 0.4066 0.0
C1339 C 0.91029 0.61005 0.38217 0.0
C1340 C 0.86759 0.63803 0.39349 0.0
C1341 C 0.86513 0.64528 0.35546 0.0
C1342 C 0.88583 0.63489 0.33124 0.0
C1343 C 0.90791 0.61754 0.34429 0.0
H1344 H 0.3115 0.78213 0.35785 0.0
H1345 H 0.40042 0.76343 0.32428 0.0
H1346 H 0.3454 0.83504 0.39789 0.0
H1347 H 0.43533 0.81544 0.36679 0.0
H1348 H 0.41418 0.93008 0.47049 0.0
H1349 H 0.38669 0.87066 0.44965 0.0
H1350 H 0.44153 0.86945 0.35428 0.0
H1351 H 0.47059 0.92786 0.37731 0.0
C1352 C 0.33856 0.78917 0.36014 0.0
C1353 C 0.35341 0.76971 0.33725 0.0
C1354 C 0.35814 0.81922 0.38349 0.0
C1355 C 0.39305 0.83 0.3846 0.0
C1356 C 0.40834 0.80829 0.36551 0.0
C1357 C 0.38855 0.7783 0.34174 0.0
C1358 C 0.42076 0.91664 0.44576 0.0
C1359 C 0.44477 0.93312 0.42597 0.0
C1360 C 0.40486 0.88282 0.4335 0.0
C1361 C 0.41226 0.86508 0.40061 0.0
C1362 C 0.43593 0.88199 0.38043 0.0
C1363 C 0.45206 0.91564 0.39304 0.0
H1364 H 0.19738 0.30034 0.35276 0.0
H1365 H 0.19932 0.35043 0.25462 0.0
H1366 H 0.16185 0.33141 0.37915 0.0
H1367 H 0.16522 0.38255 0.28167 0.0
H1368 H 0.07624 0.41216 0.31507 0.0
H1369 H 0.11106 0.37996 0.29064 0.0
H1370 H 0.15675 0.38146 0.4097 0.0
H1371 H 0.11993 0.41151 0.43418 0.0
C1372 C 0.19074 0.31842 0.33714 0.0
C1373 C 0.20122 0.32274 0.30145 0.0
C1374 C 0.17033 0.33641 0.35236 0.0
C1375 C 0.16011 0.35955 0.33257 0.0
C1376 C 0.17159 0.36447 0.29745 0.0
C1377 C 0.19156 0.34621 0.28202 0.0
C1378 C 0.09312 0.40513 0.33624 0.0
C1379 C 0.0949 0.41469 0.37683 0.0
C1380 C 0.11377 0.38704 0.3221 0.0
C1381 C 0.13733 0.37816 0.34798 0.0
C1382 C 0.13889 0.38742 0.38859 0.0
C1383 C 0.11795 0.40521 0.40275 0.0
H1384 H 0.31338 0.20801 0.60643 0.0
H1385 H 0.22952 0.12813 0.61777 0.0
H1386 H 0.34053 0.16865 0.57995 0.0
H1387 H 0.25577 0.08825 0.58917 0.0
H1388 H 0.33463 0.03125 0.59617 0.0
H1389 H 0.30003 0.06737 0.60926 0.0
H1390 H 0.3455 0.12827 0.53197 0.0
H1391 H 0.38139 0.0931 0.52098 0.0
C1392 C 0.30018 0.18193 0.60196 0.0
C1393 C 0.26944 0.17118 0.61443 0.0
C1394 C 0.31575 0.15917 0.58661 0.0
C1395 C 0.30075 0.12498 0.58281 0.0
C1396 C 0.26865 0.1143 0.5926 0.0
C1397 C 0.2533 0.13714 0.60849 0.0
C1398 C 0.33691 0.05206 0.58148 0.0
C1399 C 0.36078 0.05906 0.5572 0.0
C1400 C 0.31685 0.07283 0.58886 0.0
C1401 C 0.31974 0.10102 0.57178 0.0
C1402 C 0.34282 0.1073 0.54639 0.0
C1403 C 0.36328 0.08688 0.53968 0.0
H1404 H 0.81497 0.25717 0.63819 0.0
H1405 H 0.78774 0.33249 0.71119 0.0
H1406 H 0.83868 0.29715 0.59963 0.0
H1407 H 0.81062 0.37224 0.67182 0.0
H1408 H 0.90859 0.43742 0.64474 0.0
H1409 H 0.86931 0.39772 0.67107 0.0
H1410 H 0.83286 0.33563 0.55576 0.0
H1411 H 0.87305 0.37548 0.52928 0.0
C1412 C 0.81318 0.28202 0.64535 0.0
C1413 C 0.80021 0.2919 0.6783 0.0
C1414 C 0.8266 0.3049 0.62304 0.0
C1415 C 0.82705 0.33798 0.63315 0.0
C1416 C 0.81132 0.34707 0.66392 0.0
C1417 C 0.79815 0.32429 0.68641 0.0
C1418 C 0.89202 0.41547 0.62485 0.0
C1419 C 0.89414 0.40936 0.58505 0.0
C1420 C 0.86918 0.39285 0.63987 0.0
C1421 C 0.84785 0.36357 0.61546 0.0
C1422 C 0.84915 0.3579 0.5753 0.0
C1423 C 0.87207 0.38069 0.56017 0.0
H1424 H 0.24945 0.62677 0.6379 0.0
H1425 H 0.18303 0.67911 0.68098 0.0
H1426 H 0.20296 0.59311 0.58452 0.0
H1427 H 0.13767 0.64706 0.62716 0.0
H1428 H 0.0908 0.51477 0.57075 0.0
H1429 H 0.1476 0.55195 0.59659 0.0
H1430 H 0.11831 0.63038 0.55036 0.0
H1431 H 0.06132 0.59271 0.52393 0.0
C1432 C 0.22527 0.63168 0.6353 0.0
C1433 C 0.21977 0.65562 0.66331 0.0
C1434 C 0.1989 0.61268 0.60473 0.0
C1435 C 0.16703 0.61795 0.6015 0.0
C1436 C 0.16224 0.6431 0.62837 0.0
C1437 C 0.18822 0.66143 0.65926 0.0
C1438 C 0.09698 0.53966 0.565 0.0
C1439 C 0.07208 0.55126 0.54582 0.0
C1440 C 0.12946 0.56078 0.57938 0.0
C1441 C 0.13714 0.59395 0.57549 0.0
C1442 C 0.11286 0.60482 0.55353 0.0
C1443 C 0.08043 0.58343 0.53854 0.0
loop_
_geom_bond_atom_site_label_1
_geom_bond_atom_site_label_2
_geom_bond_distance
_geom_bond_site_symmetry_2
_ccdc_geom_bond_type
Dy0 O4 2.398 . S
Dy0 O5 2.491 . S
Dy0 O6 2.403 . S
Dy0 O7 2.664 . S
Dy0 O11 2.326 . S
Dy0 O15 2.310 . S
Dy0 O16 2.351 . S
C1 O12 1.185 . S
C1 O13 1.355 . S
C2 O4 1.185 . S
C2 O5 1.355 . S
Dy3 O7 2.310 . S
Dy3 O10 2.351 . S
Dy3 O12 2.398 . S
Dy3 O13 2.491 . S
Dy3 O14 2.403 . S
Dy3 O15 2.664 . S
Dy3 O17 2.326 . S
O4 Dy0 2.398 . S
O4 C2 1.185 . S
O5 Dy0 2.491 . S
O5 C2 1.355 . S
O6 Dy0 2.403 . S
O6 C8 1.254 . S
O7 Dy0 2.664 . S
O7 Dy3 2.310 . S
O7 C8 1.268 . S
C8 O6 1.254 . S
C8 O7 1.268 . S
C9 O14 1.254 . S
C9 O15 1.268 . S
O10 Dy3 2.351 . S
O10 C18 1.249 . S
O11 Dy0 2.326 . S
O11 C18 1.267 . S
O12 C1 1.185 . S
O12 Dy3 2.398 . S
O13 C1 1.355 . S
O13 Dy3 2.491 . S
O14 Dy3 2.403 . S
O14 C9 1.254 . S
O15 Dy0 2.310 . S
O15 Dy3 2.664 . S
O15 C9 1.268 . S
O16 Dy0 2.351 . S
O16 C19 1.249 . S
O17 Dy3 2.326 . S
O17 C19 1.267 . S
C18 O10 1.249 . S
C18 O11 1.267 . S
C19 O16 1.249 . S
C19 O17 1.267 . S
Dy20 O24 2.398 . S
Dy20 O25 2.491 . S
Dy20 O26 2.403 . S
Dy20 O27 2.664 . S
Dy20 O31 2.326 . S
Dy20 O35 2.310 . S
Dy20 O36 2.351 . S
C21 O32 1.185 . S
C21 O33 1.355 . S
C22 O24 1.185 . S
C22 O25 1.355 . S
Dy23 O27 2.310 . S
Dy23 O30 2.351 . S
Dy23 O32 2.398 . S
Dy23 O33 2.491 . S
Dy23 O34 2.403 . S
Dy23 O35 2.664 . S
Dy23 O37 2.326 . S
O24 Dy20 2.398 . S
O24 C22 1.185 . S
O25 Dy20 2.491 . S
O25 C22 1.355 . S
O26 Dy20 2.403 . S
O26 C28 1.254 . S
O27 Dy20 2.664 . S
O27 Dy23 2.310 . S
O27 C28 1.268 . S
C28 O26 1.254 . S
C28 O27 1.268 . S
C29 O34 1.254 . S
C29 O35 1.268 . S
O30 Dy23 2.351 . S
O30 C38 1.249 . S
O31 Dy20 2.326 . S
O31 C38 1.267 . S
O32 C21 1.185 . S
O32 Dy23 2.398 . S
O33 C21 1.355 . S
O33 Dy23 2.491 . S
O34 Dy23 2.403 . S
O34 C29 1.254 . S
O35 Dy20 2.310 . S
O35 Dy23 2.664 . S
O35 C29 1.268 . S
O36 Dy20 2.351 . S
O36 C39 1.249 . S
O37 Dy23 2.326 . S
O37 C39 1.267 . S
C38 O30 1.249 . S
C38 O31 1.267 . S
C39 O36 1.249 . S
C39 O37 1.267 . S
Dy40 O44 2.398 . S
Dy40 O45 2.491 . S
Dy40 O46 2.403 . S
Dy40 O47 2.664 . S
Dy40 O51 2.326 . S
Dy40 O55 2.310 . S
Dy40 O56 2.351 . S
C41 O52 1.185 . S
C41 O53 1.355 . S
C42 O44 1.185 . S
C42 O45 1.355 . S
Dy43 O47 2.310 . S
Dy43 O50 2.351 . S
Dy43 O52 2.398 . S
Dy43 O53 2.491 . S
Dy43 O54 2.403 . S
Dy43 O55 2.664 . S
Dy43 O57 2.326 . S
O44 Dy40 2.398 . S
O44 C42 1.185 . S
O45 Dy40 2.491 . S
O45 C42 1.355 . S
O46 Dy40 2.403 . S
O46 C48 1.254 . S
O47 Dy40 2.664 . S
O47 Dy43 2.310 . S
O47 C48 1.268 . S
C48 O46 1.254 . S
C48 O47 1.268 . S
C49 O54 1.254 . S
C49 O55 1.268 . S
O50 Dy43 2.351 . S
O50 C58 1.249 . S
O51 Dy40 2.326 . S
O51 C58 1.267 . S
O52 C41 1.185 . S
O52 Dy43 2.398 . S
O53 C41 1.355 . S
O53 Dy43 2.491 . S
O54 Dy43 2.403 . S
O54 C49 1.254 . S
O55 Dy40 2.310 . S
O55 Dy43 2.664 . S
O55 C49 1.268 . S
O56 Dy40 2.351 . S
O56 C59 1.249 . S
O57 Dy43 2.326 . S
O57 C59 1.267 . S
C58 O50 1.249 . S
C58 O51 1.267 . S
C59 O56 1.249 . S
C59 O57 1.267 . S
Dy60 O64 2.398 . S
Dy60 O65 2.491 . S
Dy60 O66 2.403 . S
Dy60 O67 2.664 . S
Dy60 O71 2.326 . S
Dy60 O75 2.310 . S
Dy60 O76 2.351 . S
C61 O72 1.185 . S
C61 O73 1.355 . S
C62 O64 1.185 . S
C62 O65 1.355 . S
Dy63 O67 2.310 . S
Dy63 O70 2.351 . S
Dy63 O72 2.398 . S
Dy63 O73 2.491 . S
Dy63 O74 2.403 . S
Dy63 O75 2.664 . S
Dy63 O77 2.326 . S
O64 Dy60 2.398 . S
O64 C62 1.185 . S
O65 Dy60 2.491 . S
O65 C62 1.355 . S
O66 Dy60 2.403 . S
O66 C68 1.254 . S
O67 Dy60 2.664 . S
O67 Dy63 2.310 . S
O67 C68 1.268 . S
C68 O66 1.254 . S
C68 O67 1.268 . S
C69 O74 1.254 . S
C69 O75 1.268 . S
O70 Dy63 2.351 . S
O70 C78 1.249 . S
O71 Dy60 2.326 . S
O71 C78 1.267 . S
O72 C61 1.185 . S
O72 Dy63 2.398 . S
O73 C61 1.355 . S
O73 Dy63 2.491 . S
O74 Dy63 2.403 . S
O74 C69 1.254 . S
O75 Dy60 2.310 . S
O75 Dy63 2.664 . S
O75 C69 1.268 . S
O76 Dy60 2.351 . S
O76 C79 1.249 . S
O77 Dy63 2.326 . S
O77 C79 1.267 . S
C78 O70 1.249 . S
C78 O71 1.267 . S
C79 O76 1.249 . S
C79 O77 1.267 . S
Dy80 O84 2.398 . S
Dy80 O85 2.491 . S
Dy80 O86 2.403 . S
Dy80 O87 2.664 . S
Dy80 O91 2.326 . S
Dy80 O95 2.310 . S
Dy80 O96 2.351 . S
C81 O92 1.185 . S
C81 O93 1.355 . S
C82 O84 1.185 . S
C82 O85 1.355 . S
Dy83 O87 2.310 . S
Dy83 O90 2.351 . S
Dy83 O92 2.398 . S
Dy83 O93 2.491 . S
Dy83 O94 2.403 . S
Dy83 O95 2.664 . S
Dy83 O97 2.326 . S
O84 Dy80 2.398 . S
O84 C82 1.185 . S
O85 Dy80 2.491 . S
O85 C82 1.355 . S
O86 Dy80 2.403 . S
O86 C88 1.254 . S
O87 Dy80 2.664 . S
O87 Dy83 2.310 . S
O87 C88 1.268 . S
C88 O86 1.254 . S
C88 O87 1.268 . S
C89 O94 1.254 . S
C89 O95 1.268 . S
O90 Dy83 2.351 . S
O90 C98 1.249 . S
O91 Dy80 2.326 . S
O91 C98 1.267 . S
O92 C81 1.185 . S
O92 Dy83 2.398 . S
O93 C81 1.355 . S
O93 Dy83 2.491 . S
O94 Dy83 2.403 . S
O94 C89 1.254 . S
O95 Dy80 2.310 . S
O95 Dy83 2.664 . S
O95 C89 1.268 . S
O96 Dy80 2.351 . S
O96 C99 1.249 . S
O97 Dy83 2.326 . S
O97 C99 1.267 . S
C98 O90 1.249 . S
C98 O91 1.267 . S
C99 O96 1.249 . S
C99 O97 1.267 . S
Dy100 O104 2.398 . S
Dy100 O105 2.491 . S
Dy100 O106 2.403 . S
Dy100 O107 2.664 . S
Dy100 O111 2.326 . S
Dy100 O115 2.310 . S
Dy100 O116 2.351 . S
C101 O112 1.185 . S
C101 O113 1.355 . S
C102 O104 1.185 . S
C102 O105 1.355 . S
Dy103 O107 2.310 . S
Dy103 O110 2.351 . S
Dy103 O112 2.398 . S
Dy103 O113 2.491 . S
Dy103 O114 2.403 . S
Dy103 O115 2.664 . S
Dy103 O117 2.326 . S
O104 Dy100 2.398 . S
O104 C102 1.185 . S
O105 Dy100 2.491 . S
O105 C102 1.355 . S
O106 Dy100 2.403 . S
O106 C108 1.254 . S
O107 Dy100 2.664 . S
O107 Dy103 2.310 . S
O107 C108 1.268 . S
C108 O106 1.254 . S
C108 O107 1.268 . S
C109 O114 1.254 . S
C109 O115 1.268 . S
O110 Dy103 2.351 . S
O110 C118 1.249 . S
O111 Dy100 2.326 . S
O111 C118 1.267 . S
O112 C101 1.185 . S
O112 Dy103 2.398 . S
O113 C101 1.355 . S
O113 Dy103 2.491 . S
O114 Dy103 2.403 . S
O114 C109 1.254 . S
O115 Dy100 2.310 . S
O115 Dy103 2.664 . S
O115 C109 1.268 . S
O116 Dy100 2.351 . S
O116 C119 1.249 . S
O117 Dy103 2.326 . S
O117 C119 1.267 . S
C118 O110 1.249 . S
C118 O111 1.267 . S
C119 O116 1.249 . S
C119 O117 1.267 . S
Dy120 O124 2.398 . S
Dy120 O125 2.491 . S
Dy120 O126 2.403 . S
Dy120 O127 2.664 . S
Dy120 O131 2.326 . S
Dy120 O135 2.310 . S
Dy120 O136 2.351 . S
C121 O132 1.185 . S
C121 O133 1.355 . S
C122 O124 1.185 . S
C122 O125 1.355 . S
Dy123 O127 2.310 . S
Dy123 O130 2.351 . S
Dy123 O132 2.398 . S
Dy123 O133 2.491 . S
Dy123 O134 2.403 . S
Dy123 O135 2.664 . S
Dy123 O137 2.326 . S
O124 Dy120 2.398 . S
O124 C122 1.185 . S
O125 Dy120 2.491 . S
O125 C122 1.355 . S
O126 Dy120 2.403 . S
O126 C128 1.254 . S
O127 Dy120 2.664 . S
O127 Dy123 2.310 . S
O127 C128 1.268 . S
C128 O126 1.254 . S
C128 O127 1.268 . S
C129 O134 1.254 . S
C129 O135 1.268 . S
O130 Dy123 2.351 . S
O130 C138 1.249 . S
O131 Dy120 2.326 . S
O131 C138 1.267 . S
O132 C121 1.185 . S
O132 Dy123 2.398 . S
O133 C121 1.355 . S
O133 Dy123 2.491 . S
O134 Dy123 2.403 . S
O134 C129 1.254 . S
O135 Dy120 2.310 . S
O135 Dy123 2.664 . S
O135 C129 1.268 . S
O136 Dy120 2.351 . S
O136 C139 1.249 . S
O137 Dy123 2.326 . S
O137 C139 1.267 . S
C138 O130 1.249 . S
C138 O131 1.267 . S
C139 O136 1.249 . S
C139 O137 1.267 . S
Dy140 O144 2.398 . S
Dy140 O145 2.491 . S
Dy140 O146 2.403 . S
Dy140 O147 2.664 . S
Dy140 O151 2.326 . S
Dy140 O155 2.310 . S
Dy140 O156 2.351 . S
C141 O152 1.185 . S
C141 O153 1.355 . S
C142 O144 1.185 . S
C142 O145 1.355 . S
Dy143 O147 2.310 . S
Dy143 O150 2.351 . S
Dy143 O152 2.398 . S
Dy143 O153 2.491 . S
Dy143 O154 2.403 . S
Dy143 O155 2.664 . S
Dy143 O157 2.326 . S
O144 Dy140 2.398 . S
O144 C142 1.185 . S
O145 Dy140 2.491 . S
O145 C142 1.355 . S
O146 Dy140 2.403 . S
O146 C148 1.254 . S
O147 Dy140 2.664 . S
O147 Dy143 2.310 . S
O147 C148 1.268 . S
C148 O146 1.254 . S
C148 O147 1.268 . S
C149 O154 1.254 . S
C149 O155 1.268 . S
O150 Dy143 2.351 . S
O150 C158 1.249 . S
O151 Dy140 2.326 . S
O151 C158 1.267 . S
O152 C141 1.185 . S
O152 Dy143 2.398 . S
O153 C141 1.355 . S
O153 Dy143 2.491 . S
O154 Dy143 2.403 . S
O154 C149 1.254 . S
O155 Dy140 2.310 . S
O155 Dy143 2.664 . S
O155 C149 1.268 . S
O156 Dy140 2.351 . S
O156 C159 1.249 . S
O157 Dy143 2.326 . S
O157 C159 1.267 . S
C158 O150 1.249 . S
C158 O151 1.267 . S
C159 O156 1.249 . S
C159 O157 1.267 . S
Cd160 N163 2.334 1_655 S
Cd160 N189 2.304 1_565 S
Cd160 O196 2.268 . S
Cd160 O199 2.273 1_665 S
Cd160 O200 2.417 . S
Cd160 O201 2.330 . S
Cd161 N176 2.304 1_455 S
Cd161 N180 2.334 1_545 S
Cd161 O197 2.273 1_445 S
Cd161 O198 2.268 . S
Cd161 O202 2.417 . S
Cd161 O203 2.330 . S
C162 N163 1.332 . S
C162 C166 1.381 . S
C162 H168 0.931 . S
N163 Cd160 2.334 1_455 S
N163 C162 1.332 . S
N163 C167 1.328 . S
C164 C165 1.396 . S
C164 C167 1.378 . S
C164 H206 0.931 . S
C165 C164 1.396 . S
C165 C166 1.382 . S
C166 C162 1.381 . S
C166 C165 1.382 . S
C166 H207 0.930 . S
C167 N163 1.328 . S
C167 C164 1.378 . S
C167 H169 0.930 1_455 S
H168 C162 0.931 . S
H169 C167 0.930 1_655 S
C170 O196 1.238 . S
C170 O197 1.253 . S
C171 C172 1.379 . S
C171 N176 1.337 . S
C171 H177 0.929 . S
C172 C171 1.379 . S
C172 C173 1.380 . S
C172 H208 0.929 . S
C173 C172 1.380 . S
C173 C174 1.399 . S
C174 C173 1.399 . S
C174 C175 1.376 . S
C174 H209 0.931 . S
C175 C174 1.376 . S
C175 N176 1.338 . S
C175 H178 0.930 1_655 S
N176 Cd161 2.304 1_655 S
N176 C171 1.337 . S
N176 C175 1.338 . S
H177 C171 0.929 . S
H178 C175 0.930 1_455 S
C179 N180 1.332 . S
C179 C183 1.381 . S
C179 H185 0.931 . S
N180 Cd161 2.334 1_565 S
N180 C179 1.332 . S
N180 C184 1.328 . S
C181 C182 1.396 . S
C181 C184 1.378 . S
C181 H210 0.931 . S
C182 C181 1.396 . S
C182 C183 1.382 . S
C183 C179 1.381 . S
C183 C182 1.382 . S
C183 H211 0.930 . S
C184 N180 1.328 . S
C184 C181 1.378 . S
C184 H186 0.930 1_565 S
H185 C179 0.931 . S
H186 C184 0.930 1_545 S
C187 O198 1.238 . S
C187 O199 1.253 . S
C188 O200 1.239 . S
C188 O201 1.230 . S
N189 Cd160 2.304 1_545 S
N189 C190 1.337 . S
N189 C194 1.338 . S
C190 N189 1.337 . S
C190 C191 1.379 . S
C190 H204 0.929 . S
C191 C190 1.379 . S
C191 C192 1.380 . S
C191 H212 0.929 . S
C192 C191 1.380 . S
C192 C193 1.399 . S
C193 C192 1.399 . S
C193 C194 1.376 . S
C193 H213 0.931 . S
C194 N189 1.338 . S
C194 C193 1.376 . S
C194 H205 0.930 1_545 S
C195 O202 1.239 . S
C195 O203 1.230 . S
O196 Cd160 2.268 . S
O196 C170 1.238 . S
O197 Cd161 2.273 1_665 S
O197 C170 1.253 . S
O198 Cd161 2.268 . S
O198 C187 1.238 . S
O199 Cd160 2.273 1_445 S
O199 C187 1.253 . S
O200 Cd160 2.417 . S
O200 C188 1.239 . S
O201 Cd160 2.330 . S
O201 C188 1.230 . S
O202 Cd161 2.417 . S
O202 C195 1.239 . S
O203 Cd161 2.330 . S
O203 C195 1.230 . S
H204 C190 0.929 . S
H205 C194 0.930 1_565 S
H206 C164 0.931 . S
H207 C166 0.930 . S
H208 C172 0.929 . S
H209 C174 0.931 . S
H210 C181 0.931 . S
H211 C183 0.930 . S
H212 C191 0.929 . S
H213 C193 0.931 . S
Cd214 N217 2.334 . S
Cd214 N243 2.304 1_565 S
Cd214 O250 2.268 1_554 S
Cd214 O253 2.273 1_565 S
Cd214 O254 2.417 . S
Cd214 O255 2.330 . S
Cd215 N230 2.304 . S
Cd215 N234 2.334 1_545 S
Cd215 O251 2.273 1_545 S
Cd215 O252 2.268 1_556 S
Cd215 O256 2.417 . S
Cd215 O257 2.330 . S
C216 N217 1.332 . S
C216 C220 1.381 . S
C216 H222 0.931 . S
N217 Cd214 2.334 . S
N217 C216 1.332 . S
N217 C221 1.328 . S
C218 C219 1.396 . S
C218 C221 1.378 . S
C218 H260 0.931 1_554 S
C219 C218 1.396 . S
C219 C220 1.382 . S
C220 C216 1.381 . S
C220 C219 1.382 . S
C220 H261 0.930 . S
C221 N217 1.328 . S
C221 C218 1.378 . S
C221 H223 0.930 1_554 S
H222 C216 0.931 . S
H223 C221 0.930 1_556 S
C224 O250 1.238 . S
C224 O251 1.253 . S
C225 C226 1.379 . S
C225 N230 1.337 . S
C225 H231 0.929 . S
C226 C225 1.379 . S
C226 C227 1.380 . S
C226 H262 0.929 . S
C227 C226 1.380 . S
C227 C228 1.399 . S
C228 C227 1.399 . S
C228 C229 1.376 . S
C228 H263 0.931 1_556 S
C229 C228 1.376 . S
C229 N230 1.338 . S
C229 H232 0.930 1_556 S
N230 Cd215 2.304 . S
N230 C225 1.337 . S
N230 C229 1.338 . S
H231 C225 0.929 . S
H232 C229 0.930 1_554 S
C233 N234 1.332 . S
C233 C237 1.381 . S
C233 H239 0.931 . S
N234 Cd215 2.334 1_565 S
N234 C233 1.332 . S
N234 C238 1.328 . S
C235 C236 1.396 . S
C235 C238 1.378 . S
C235 H264 0.931 1_556 S
C236 C235 1.396 . S
C236 C237 1.382 . S
C237 C233 1.381 . S
C237 C236 1.382 . S
C237 H265 0.930 . S
C238 N234 1.328 . S
C238 C235 1.378 . S
C238 H240 0.930 1_566 S
H239 C233 0.931 . S
H240 C238 0.930 1_544 S
C241 O252 1.238 . S
C241 O253 1.253 . S
C242 O254 1.239 . S
C242 O255 1.230 . S
N243 Cd214 2.304 1_545 S
N243 C244 1.337 . S
N243 C248 1.338 . S
C244 N243 1.337 . S
C244 C245 1.379 . S
C244 H258 0.929 . S
C245 C244 1.379 . S
C245 C246 1.380 . S
C245 H266 0.929 . S
C246 C245 1.380 . S
C246 C247 1.399 . S
C247 C246 1.399 . S
C247 C248 1.376 . S
C247 H267 0.931 1_554 S
C248 N243 1.338 . S
C248 C247 1.376 . S
C248 H259 0.930 1_544 S
C249 O256 1.239 . S
C249 O257 1.230 . S
O250 Cd214 2.268 1_556 S
O250 C224 1.238 . S
O251 Cd215 2.273 1_565 S
O251 C224 1.253 . S
O252 Cd215 2.268 1_554 S
O252 C241 1.238 . S
O253 Cd214 2.273 1_545 S
O253 C241 1.253 . S
O254 Cd214 2.417 . S
O254 C242 1.239 . S
O255 Cd214 2.330 . S
O255 C242 1.230 . S
O256 Cd215 2.417 . S
O256 C249 1.239 . S
O257 Cd215 2.330 . S
O257 C249 1.230 . S
H258 C244 0.929 . S
H259 C248 0.930 1_566 S
H260 C218 0.931 1_556 S
H261 C220 0.930 . S
H262 C226 0.929 . S
H263 C228 0.931 1_554 S
H264 C235 0.931 1_554 S
H265 C237 0.930 . S
H266 C245 0.929 . S
H267 C247 0.931 1_556 S
Cd268 N271 2.334 1_655 S
Cd268 N297 2.304 . S
Cd268 O304 2.268 1_554 S
Cd268 O307 2.273 1_655 S
Cd268 O308 2.417 . S
Cd268 O309 2.330 . S
Cd269 N284 2.304 1_455 S
Cd269 N288 2.334 . S
Cd269 O305 2.273 1_455 S
Cd269 O306 2.268 1_556 S
Cd269 O310 2.417 . S
Cd269 O311 2.330 . S
C270 N271 1.332 . S
C270 C274 1.381 . S
C270 H276 0.931 . S
N271 Cd268 2.334 1_455 S
N271 C270 1.332 . S
N271 C275 1.328 . S
C272 C273 1.396 . S
C272 C275 1.378 . S
C272 H314 0.931 1_554 S
C273 C272 1.396 . S
C273 C274 1.382 . S
C274 C270 1.381 . S
C274 C273 1.382 . S
C274 H315 0.930 . S
C275 N271 1.328 . S
C275 C272 1.378 . S
C275 H277 0.930 1_454 S
H276 C270 0.931 . S
H277 C275 0.930 1_656 S
C278 O304 1.238 . S
C278 O305 1.253 . S
C279 C280 1.379 . S
C279 N284 1.337 . S
C279 H285 0.929 . S
C280 C279 1.379 . S
C280 C281 1.380 . S
C280 H316 0.929 . S
C281 C280 1.380 . S
C281 C282 1.399 . S
C282 C281 1.399 . S
C282 C283 1.376 . S
C282 H317 0.931 1_556 S
C283 C282 1.376 . S
C283 N284 1.338 . S
C283 H286 0.930 1_656 S
N284 Cd269 2.304 1_655 S
N284 C279 1.337 . S
N284 C283 1.338 . S
H285 C279 0.929 . S
H286 C283 0.930 1_454 S
C287 N288 1.332 . S
C287 C291 1.381 . S
C287 H293 0.931 . S
N288 Cd269 2.334 . S
N288 C287 1.332 . S
N288 C292 1.328 . S
C289 C290 1.396 . S
C289 C292 1.378 . S
C289 H318 0.931 1_556 S
C290 C289 1.396 . S
C290 C291 1.382 . S
C291 C287 1.381 . S
C291 C290 1.382 . S
C291 H319 0.930 . S
C292 N288 1.328 . S
C292 C289 1.378 . S
C292 H294 0.930 1_556 S
H293 C287 0.931 . S
H294 C292 0.930 1_554 S
C295 O306 1.238 . S
C295 O307 1.253 . S
C296 O308 1.239 . S
C296 O309 1.230 . S
N297 Cd268 2.304 . S
N297 C298 1.337 . S
N297 C302 1.338 . S
C298 N297 1.337 . S
C298 C299 1.379 . S
C298 H312 0.929 . S
C299 C298 1.379 . S
C299 C300 1.380 . S
C299 H320 0.929 . S
C300 C299 1.380 . S
C300 C301 1.399 . S
C301 C300 1.399 . S
C301 C302 1.376 . S
C301 H321 0.931 1_554 S
C302 N297 1.338 . S
C302 C301 1.376 . S
C302 H313 0.930 1_554 S
C303 O310 1.239 . S
C303 O311 1.230 . S
O304 Cd268 2.268 1_556 S
O304 C278 1.238 . S
O305 Cd269 2.273 1_655 S
O305 C278 1.253 . S
O306 Cd269 2.268 1_554 S
O306 C295 1.238 . S
O307 Cd268 2.273 1_455 S
O307 C295 1.253 . S
O308 Cd268 2.417 . S
O308 C296 1.239 . S
O309 Cd268 2.330 . S
O309 C296 1.230 . S
O310 Cd269 2.417 . S
O310 C303 1.239 . S
O311 Cd269 2.330 . S
O311 C303 1.230 . S
H312 C298 0.929 . S
H313 C302 0.930 1_556 S
H314 C272 0.931 1_556 S
H315 C274 0.930 . S
H316 C280 0.929 . S
H317 C282 0.931 1_554 S
H318 C289 0.931 1_554 S
H319 C291 0.930 . S
H320 C299 0.929 . S
H321 C301 0.931 1_556 S
Cd322 N325 2.334 . S
Cd322 N351 2.304 . S
Cd322 O358 2.268 1_554 S
Cd322 O361 2.273 . S
Cd322 O362 2.417 . S
Cd322 O363 2.330 . S
Cd323 N338 2.304 . S
Cd323 N342 2.334 . S
Cd323 O359 2.273 . S
Cd323 O360 2.268 1_556 S
Cd323 O364 2.417 . S
Cd323 O365 2.330 . S
C324 N325 1.332 . S
C324 C328 1.381 . S
C324 H330 0.931 . S
N325 Cd322 2.334 . S
N325 C324 1.332 . S
N325 C329 1.328 . S
C326 C327 1.396 . S
C326 C329 1.378 . S
C326 H368 0.931 1_554 S
C327 C326 1.396 . S
C327 C328 1.382 . S
C328 C324 1.381 . S
C328 C327 1.382 . S
C328 H369 0.930 . S
C329 N325 1.328 . S
C329 C326 1.378 . S
C329 H331 0.930 1_554 S
H330 C324 0.931 . S
H331 C329 0.930 1_556 S
C332 O358 1.238 . S
C332 O359 1.253 . S
C333 C334 1.379 . S
C333 N338 1.337 . S
C333 H339 0.929 . S
C334 C333 1.379 . S
C334 C335 1.380 . S
C334 H370 0.929 . S
C335 C334 1.380 . S
C335 C336 1.399 . S
C336 C335 1.399 . S
C336 C337 1.376 . S
C336 H371 0.931 1_556 S
C337 C336 1.376 . S
C337 N338 1.338 . S
C337 H340 0.930 1_556 S
N338 Cd323 2.304 . S
N338 C333 1.337 . S
N338 C337 1.338 . S
H339 C333 0.929 . S
H340 C337 0.930 1_554 S
C341 N342 1.332 . S
C341 C345 1.381 . S
C341 H347 0.931 . S
N342 Cd323 2.334 . S
N342 C341 1.332 . S
N342 C346 1.328 . S
C343 C344 1.396 . S
C343 C346 1.378 . S
C343 H372 0.931 1_556 S
C344 C343 1.396 . S
C344 C345 1.382 . S
C345 C341 1.381 . S
C345 C344 1.382 . S
C345 H373 0.930 . S
C346 N342 1.328 . S
C346 C343 1.378 . S
C346 H348 0.930 1_556 S
H347 C341 0.931 . S
H348 C346 0.930 1_554 S
C349 O360 1.238 . S
C349 O361 1.253 . S
C350 O362 1.239 . S
C350 O363 1.230 . S
N351 Cd322 2.304 . S
N351 C352 1.337 . S
N351 C356 1.338 . S
C352 N351 1.337 . S
C352 C353 1.379 . S
C352 H366 0.929 . S
C353 C352 1.379 . S
C353 C354 1.380 . S
C353 H374 0.929 . S
C354 C353 1.380 . S
C354 C355 1.399 . S
C355 C354 1.399 . S
C355 C356 1.376 . S
C355 H375 0.931 1_554 S
C356 N351 1.338 . S
C356 C355 1.376 . S
C356 H367 0.930 1_554 S
C357 O364 1.239 . S
C357 O365 1.230 . S
O358 Cd322 2.268 1_556 S
O358 C332 1.238 . S
O359 Cd323 2.273 . S
O359 C332 1.253 . S
O360 Cd323 2.268 1_554 S
O360 C349 1.238 . S
O361 Cd322 2.273 . S
O361 C349 1.253 . S
O362 Cd322 2.417 . S
O362 C350 1.239 . S
O363 Cd322 2.330 . S
O363 C350 1.230 . S
O364 Cd323 2.417 . S
O364 C357 1.239 . S
O365 Cd323 2.330 . S
O365 C357 1.230 . S
H366 C352 0.929 . S
H367 C356 0.930 1_556 S
H368 C326 0.931 1_556 S
H369 C328 0.930 . S
H370 C334 0.929 . S
H371 C336 0.931 1_554 S
H372 C343 0.931 1_554 S
H373 C345 0.930 . S
H374 C353 0.929 . S
H375 C355 0.931 1_556 S
Cd376 N379 2.334 1_655 S
Cd376 N405 2.304 . S
Cd376 O412 2.268 . S
Cd376 O415 2.273 1_655 S
Cd376 O416 2.417 . S
Cd376 O417 2.330 . S
Cd377 N392 2.304 1_455 S
Cd377 N396 2.334 . S
Cd377 O413 2.273 1_455 S
Cd377 O414 2.268 . S
Cd377 O418 2.417 . S
Cd377 O419 2.330 . S
C378 N379 1.332 . S
C378 C382 1.381 . S
C378 H384 0.931 . S
N379 Cd376 2.334 1_455 S
N379 C378 1.332 . S
N379 C383 1.328 . S
C380 C381 1.396 . S
C380 C383 1.378 . S
C380 H422 0.931 . S
C381 C380 1.396 . S
C381 C382 1.382 . S
C382 C378 1.381 . S
C382 C381 1.382 . S
C382 H423 0.930 . S
C383 N379 1.328 . S
C383 C380 1.378 . S
C383 H385 0.930 1_455 S
H384 C378 0.931 . S
H385 C383 0.930 1_655 S
C386 O412 1.238 . S
C386 O413 1.253 . S
C387 C388 1.379 . S
C387 N392 1.337 . S
C387 H393 0.929 . S
C388 C387 1.379 . S
C388 C389 1.380 . S
C388 H424 0.929 . S
C389 C388 1.380 . S
C389 C390 1.399 . S
C390 C389 1.399 . S
C390 C391 1.376 . S
C390 H425 0.931 . S
C391 C390 1.376 . S
C391 N392 1.338 . S
C391 H394 0.930 1_655 S
N392 Cd377 2.304 1_655 S
N392 C387 1.337 . S
N392 C391 1.338 . S
H393 C387 0.929 . S
H394 C391 0.930 1_455 S
C395 N396 1.332 . S
C395 C399 1.381 . S
C395 H401 0.931 . S
N396 Cd377 2.334 . S
N396 C395 1.332 . S
N396 C400 1.328 . S
C397 C398 1.396 . S
C397 C400 1.378 . S
C397 H426 0.931 . S
C398 C397 1.396 . S
C398 C399 1.382 . S
C399 C395 1.381 . S
C399 C398 1.382 . S
C399 H427 0.930 . S
C400 N396 1.328 . S
C400 C397 1.378 . S
C400 H402 0.930 . S
H401 C395 0.931 . S
H402 C400 0.930 . S
C403 O414 1.238 . S
C403 O415 1.253 . S
C404 O416 1.239 . S
C404 O417 1.230 . S
N405 Cd376 2.304 . S
N405 C406 1.337 . S
N405 C410 1.338 . S
C406 N405 1.337 . S
C406 C407 1.379 . S
C406 H420 0.929 . S
C407 C406 1.379 . S
C407 C408 1.380 . S
C407 H428 0.929 . S
C408 C407 1.380 . S
C408 C409 1.399 . S
C409 C408 1.399 . S
C409 C410 1.376 . S
C409 H429 0.931 . S
C410 N405 1.338 . S
C410 C409 1.376 . S
C410 H421 0.930 . S
C411 O418 1.239 . S
C411 O419 1.230 . S
O412 Cd376 2.268 . S
O412 C386 1.238 . S
O413 Cd377 2.273 1_655 S
O413 C386 1.253 . S
O414 Cd377 2.268 . S
O414 C403 1.238 . S
O415 Cd376 2.273 1_455 S
O415 C403 1.253 . S
O416 Cd376 2.417 . S
O416 C404 1.239 . S
O417 Cd376 2.330 . S
O417 C404 1.230 . S
O418 Cd377 2.417 . S
O418 C411 1.239 . S
O419 Cd377 2.330 . S
O419 C411 1.230 . S
H420 C406 0.929 . S
H421 C410 0.930 . S
H422 C380 0.931 . S
H423 C382 0.930 . S
H424 C388 0.929 . S
H425 C390 0.931 . S
H426 C397 0.931 . S
H427 C399 0.930 . S
H428 C407 0.929 . S
H429 C409 0.931 . S
Cd430 N433 2.334 . S
Cd430 N459 2.304 1_565 S
Cd430 O466 2.268 . S
Cd430 O469 2.273 1_565 S
Cd430 O470 2.417 . S
Cd430 O471 2.330 . S
Cd431 N446 2.304 . S
Cd431 N450 2.334 1_545 S
Cd431 O467 2.273 1_545 S
Cd431 O468 2.268 . S
Cd431 O472 2.417 . S
Cd431 O473 2.330 . S
C432 N433 1.332 . S
C432 C436 1.381 . S
C432 H438 0.931 . S
N433 Cd430 2.334 . S
N433 C432 1.332 . S
N433 C437 1.328 . S
C434 C435 1.396 . S
C434 C437 1.378 . S
C434 H476 0.931 . S
C435 C434 1.396 . S
C435 C436 1.382 . S
C436 C432 1.381 . S
C436 C435 1.382 . S
C436 H477 0.930 . S
C437 N433 1.328 . S
C437 C434 1.378 . S
C437 H439 0.930 . S
H438 C432 0.931 . S
H439 C437 0.930 . S
C440 O466 1.238 . S
C440 O467 1.253 . S
C441 C442 1.379 . S
C441 N446 1.337 . S
C441 H447 0.929 . S
C442 C441 1.379 . S
C442 C443 1.380 . S
C442 H478 0.929 . S
C443 C442 1.380 . S
C443 C444 1.399 . S
C444 C443 1.399 . S
C444 C445 1.376 . S
C444 H479 0.931 . S
C445 C444 1.376 . S
C445 N446 1.338 . S
C445 H448 0.930 . S
N446 Cd431 2.304 . S
N446 C441 1.337 . S
N446 C445 1.338 . S
H447 C441 0.929 . S
H448 C445 0.930 . S
C449 N450 1.332 . S
C449 C453 1.381 . S
C449 H455 0.931 . S
N450 Cd431 2.334 1_565 S
N450 C449 1.332 . S
N450 C454 1.328 . S
C451 C452 1.396 . S
C451 C454 1.378 . S
C451 H480 0.931 . S
C452 C451 1.396 . S
C452 C453 1.382 . S
C453 C449 1.381 . S
C453 C452 1.382 . S
C453 H481 0.930 . S
C454 N450 1.328 . S
C454 C451 1.378 . S
C454 H456 0.930 1_565 S
H455 C449 0.931 . S
H456 C454 0.930 1_545 S
C457 O468 1.238 . S
C457 O469 1.253 . S
C458 O470 1.239 . S
C458 O471 1.230 . S
N459 Cd430 2.304 1_545 S
N459 C460 1.337 . S
N459 C464 1.338 . S
C460 N459 1.337 . S
C460 C461 1.379 . S
C460 H474 0.929 . S
C461 C460 1.379 . S
C461 C462 1.380 . S
C461 H482 0.929 . S
C462 C461 1.380 . S
C462 C463 1.399 . S
C463 C462 1.399 . S
C463 C464 1.376 . S
C463 H483 0.931 . S
C464 N459 1.338 . S
C464 C463 1.376 . S
C464 H475 0.930 1_545 S
C465 O472 1.239 . S
C465 O473 1.230 . S
O466 Cd430 2.268 . S
O466 C440 1.238 . S
O467 Cd431 2.273 1_565 S
O467 C440 1.253 . S
O468 Cd431 2.268 . S
O468 C457 1.238 . S
O469 Cd430 2.273 1_545 S
O469 C457 1.253 . S
O470 Cd430 2.417 . S
O470 C458 1.239 . S
O471 Cd430 2.330 . S
O471 C458 1.230 . S
O472 Cd431 2.417 . S
O472 C465 1.239 . S
O473 Cd431 2.330 . S
O473 C465 1.230 . S
H474 C460 0.929 . S
H475 C464 0.930 1_565 S
H476 C434 0.931 . S
H477 C436 0.930 . S
H478 C442 0.929 . S
H479 C444 0.931 . S
H480 C451 0.931 . S
H481 C453 0.930 . S
H482 C461 0.929 . S
H483 C463 0.931 . S
H484 C492 0.950 . S
H485 C497 0.950 . S
H486 C494 0.950 . S
H487 C496 0.950 . S
H488 C498 0.950 . S
H489 C500 0.950 . S
H490 C502 0.950 . S
H491 C503 0.950 . S
C492 H484 0.950 . S
C492 C493 1.386 . S
C492 C494 1.391 . S
C493 C492 1.386 . S
C493 C497 1.393 . S
C494 H486 0.950 . S
C494 C492 1.391 . S
C494 C495 1.400 . S
C495 C494 1.400 . S
C495 C496 1.398 . S
C495 C501 1.491 . S
C496 H487 0.950 . S
C496 C495 1.398 . S
C496 C497 1.391 . S
C497 H485 0.950 . S
C497 C493 1.393 . S
C497 C496 1.391 . S
C498 H488 0.950 . S
C498 C499 1.386 . S
C498 C500 1.391 . S
C499 C498 1.386 . S
C499 C503 1.393 . S
C500 H489 0.950 . S
C500 C498 1.391 . S
C500 C501 1.400 . S
C501 C495 1.491 . S
C501 C500 1.400 . S
C501 C502 1.398 . S
C502 H490 0.950 . S
C502 C501 1.398 . S
C502 C503 1.391 . S
C503 H491 0.950 . S
C503 C499 1.393 . S
C503 C502 1.391 . S
H504 C512 0.950 . S
H505 C517 0.950 . S
H506 C514 0.950 . S
H507 C516 0.950 . S
H508 C518 0.950 . S
H509 C520 0.950 . S
H510 C522 0.950 . S
H511 C523 0.950 . S
C512 H504 0.950 . S
C512 C513 1.386 . S
C512 C514 1.391 . S
C513 C512 1.386 . S
C513 C517 1.393 . S
C514 H506 0.950 . S
C514 C512 1.391 . S
C514 C515 1.400 . S
C515 C514 1.400 . S
C515 C516 1.398 . S
C515 C521 1.491 . S
C516 H507 0.950 . S
C516 C515 1.398 . S
C516 C517 1.391 . S
C517 H505 0.950 . S
C517 C513 1.393 . S
C517 C516 1.391 . S
C518 H508 0.950 . S
C518 C519 1.386 . S
C518 C520 1.391 . S
C519 C518 1.386 . S
C519 C523 1.393 . S
C520 H509 0.950 . S
C520 C518 1.391 . S
C520 C521 1.400 . S
C521 C515 1.491 . S
C521 C520 1.400 . S
C521 C522 1.398 . S
C522 H510 0.950 . S
C522 C521 1.398 . S
C522 C523 1.391 . S
C523 H511 0.950 . S
C523 C519 1.393 . S
C523 C522 1.391 . S
H524 C532 0.950 . S
H525 C537 0.950 . S
H526 C534 0.950 . S
H527 C536 0.950 . S
H528 C538 0.950 . S
H529 C540 0.950 . S
H530 C542 0.950 . S
H531 C543 0.950 . S
C532 H524 0.950 . S
C532 C533 1.386 . S
C532 C534 1.391 . S
C533 C532 1.386 . S
C533 C537 1.393 . S
C534 H526 0.950 . S
C534 C532 1.391 . S
C534 C535 1.400 . S
C535 C534 1.400 . S
C535 C536 1.398 . S
C535 C541 1.491 . S
C536 H527 0.950 . S
C536 C535 1.398 . S
C536 C537 1.391 . S
C537 H525 0.950 . S
C537 C533 1.393 . S
C537 C536 1.391 . S
C538 H528 0.950 . S
C538 C539 1.386 . S
C538 C540 1.391 . S
C539 C538 1.386 . S
C539 C543 1.393 . S
C540 H529 0.950 . S
C540 C538 1.391 . S
C540 C541 1.400 . S
C541 C535 1.491 . S
C541 C540 1.400 . S
C541 C542 1.398 . S
C542 H530 0.950 . S
C542 C541 1.398 . S
C542 C543 1.391 . S
C543 H531 0.950 . S
C543 C539 1.393 . S
C543 C542 1.391 . S
H544 C552 0.950 . S
H545 C557 0.950 . S
H546 C554 0.950 . S
H547 C556 0.950 . S
H548 C558 0.950 . S
H549 C560 0.950 . S
H550 C562 0.950 . S
H551 C563 0.950 . S
C552 H544 0.950 . S
C552 C553 1.386 . S
C552 C554 1.391 . S
C553 C552 1.386 . S
C553 C557 1.393 . S
C554 H546 0.950 . S
C554 C552 1.391 . S
C554 C555 1.400 . S
C555 C554 1.400 . S
C555 C556 1.398 . S
C555 C561 1.491 . S
C556 H547 0.950 . S
C556 C555 1.398 . S
C556 C557 1.391 . S
C557 H545 0.950 . S
C557 C553 1.393 . S
C557 C556 1.391 . S
C558 H548 0.950 . S
C558 C559 1.386 . S
C558 C560 1.391 . S
C559 C558 1.386 . S
C559 C563 1.393 . S
C560 H549 0.950 . S
C560 C558 1.391 . S
C560 C561 1.400 . S
C561 C555 1.491 . S
C561 C560 1.400 . S
C561 C562 1.398 . S
C562 H550 0.950 . S
C562 C561 1.398 . S
C562 C563 1.391 . S
C563 H551 0.950 . S
C563 C559 1.393 . S
C563 C562 1.391 . S
H564 C572 0.950 . S
H565 C577 0.950 . S
H566 C574 0.950 . S
H567 C576 0.950 . S
H568 C578 0.950 . S
H569 C580 0.950 . S
H570 C582 0.950 . S
H571 C583 0.950 . S
C572 H564 0.950 . S
C572 C573 1.386 . S
C572 C574 1.391 . S
C573 C572 1.386 . S
C573 C577 1.393 . S
C574 H566 0.950 . S
C574 C572 1.391 . S
C574 C575 1.400 . S
C575 C574 1.400 . S
C575 C576 1.398 . S
C575 C581 1.491 . S
C576 H567 0.950 . S
C576 C575 1.398 . S
C576 C577 1.391 . S
C577 H565 0.950 . S
C577 C573 1.393 . S
C577 C576 1.391 . S
C578 H568 0.950 . S
C578 C579 1.386 . S
C578 C580 1.391 . S
C579 C578 1.386 . S
C579 C583 1.393 . S
C580 H569 0.950 . S
C580 C578 1.391 . S
C580 C581 1.400 . S
C581 C575 1.491 . S
C581 C580 1.400 . S
C581 C582 1.398 . S
C582 H570 0.950 . S
C582 C581 1.398 . S
C582 C583 1.391 . S
C583 H571 0.950 . S
C583 C579 1.393 . S
C583 C582 1.391 . S
H584 C592 0.950 . S
H585 C597 0.950 . S
H586 C594 0.950 . S
H587 C596 0.950 . S
H588 C598 0.950 . S
H589 C600 0.950 . S
H590 C602 0.950 . S
H591 C603 0.950 . S
C592 H584 0.950 . S
C592 C593 1.386 . S
C592 C594 1.391 . S
C593 C592 1.386 . S
C593 C597 1.393 . S
C594 H586 0.950 . S
C594 C592 1.391 . S
C594 C595 1.400 . S
C595 C594 1.400 . S
C595 C596 1.398 . S
C595 C601 1.491 . S
C596 H587 0.950 . S
C596 C595 1.398 . S
C596 C597 1.391 . S
C597 H585 0.950 . S
C597 C593 1.393 . S
C597 C596 1.391 . S
C598 H588 0.950 . S
C598 C599 1.386 . S
C598 C600 1.391 . S
C599 C598 1.386 . S
C599 C603 1.393 . S
C600 H589 0.950 . S
C600 C598 1.391 . S
C600 C601 1.400 . S
C601 C595 1.491 . S
C601 C600 1.400 . S
C601 C602 1.398 . S
C602 H590 0.950 . S
C602 C601 1.398 . S
C602 C603 1.391 . S
C603 H591 0.950 . S
C603 C599 1.393 . S
C603 C602 1.391 . S
H604 C612 0.950 . S
H605 C617 0.950 . S
H606 C614 0.950 . S
H607 C616 0.950 . S
H608 C618 0.950 . S
H609 C620 0.950 . S
H610 C622 0.950 . S
H611 C623 0.950 . S
C612 H604 0.950 . S
C612 C613 1.386 . S
C612 C614 1.391 . S
C613 C612 1.386 . S
C613 C617 1.393 . S
C614 H606 0.950 . S
C614 C612 1.391 . S
C614 C615 1.400 . S
C615 C614 1.400 . S
C615 C616 1.398 . S
C615 C621 1.491 . S
C616 H607 0.950 . S
C616 C615 1.398 . S
C616 C617 1.391 . S
C617 H605 0.950 . S
C617 C613 1.393 . S
C617 C616 1.391 . S
C618 H608 0.950 . S
C618 C619 1.386 . S
C618 C620 1.391 . S
C619 C618 1.386 . S
C619 C623 1.393 . S
C620 H609 0.950 . S
C620 C618 1.391 . S
C620 C621 1.400 . S
C621 C615 1.491 . S
C621 C620 1.400 . S
C621 C622 1.398 . S
C622 H610 0.950 . S
C622 C621 1.398 . S
C622 C623 1.391 . S
C623 H611 0.950 . S
C623 C619 1.393 . S
C623 C622 1.391 . S
H624 C632 0.950 . S
H625 C637 0.950 . S
H626 C634 0.950 . S
H627 C636 0.950 . S
H628 C638 0.950 . S
H629 C640 0.950 . S
H630 C642 0.950 . S
H631 C643 0.950 . S
C632 H624 0.950 . S
C632 C633 1.386 . S
C632 C634 1.391 . S
C633 C632 1.386 . S
C633 C637 1.393 . S
C634 H626 0.950 . S
C634 C632 1.391 . S
C634 C635 1.400 . S
C635 C634 1.400 . S
C635 C636 1.398 . S
C635 C641 1.491 . S
C636 H627 0.950 . S
C636 C635 1.398 . S
C636 C637 1.391 . S
C637 H625 0.950 . S
C637 C633 1.393 . S
C637 C636 1.391 . S
C638 H628 0.950 . S
C638 C639 1.386 . S
C638 C640 1.391 . S
C639 C638 1.386 . S
C639 C643 1.393 . S
C640 H629 0.950 . S
C640 C638 1.391 . S
C640 C641 1.400 . S
C641 C635 1.491 . S
C641 C640 1.400 . S
C641 C642 1.398 . S
C642 H630 0.950 . S
C642 C641 1.398 . S
C642 C643 1.391 . S
C643 H631 0.950 . S
C643 C639 1.393 . S
C643 C642 1.391 . S
H644 C652 0.950 . S
H645 C657 0.950 . S
H646 C654 0.950 . S
H647 C656 0.950 . S
H648 C658 0.950 . S
H649 C660 0.950 . S
H650 C662 0.950 . S
H651 C663 0.950 . S
C652 H644 0.950 . S
C652 C653 1.386 . S
C652 C654 1.391 . S
C653 C652 1.386 . S
C653 C657 1.393 . S
C654 H646 0.950 . S
C654 C652 1.391 . S
C654 C655 1.400 . S
C655 C654 1.400 . S
C655 C656 1.398 . S
C655 C661 1.491 . S
C656 H647 0.950 . S
C656 C655 1.398 . S
C656 C657 1.391 . S
C657 H645 0.950 . S
C657 C653 1.393 . S
C657 C656 1.391 . S
C658 H648 0.950 . S
C658 C659 1.386 . S
C658 C660 1.391 . S
C659 C658 1.386 . S
C659 C663 1.393 . S
C660 H649 0.950 . S
C660 C658 1.391 . S
C660 C661 1.400 . S
C661 C655 1.491 . S
C661 C660 1.400 . S
C661 C662 1.398 . S
C662 H650 0.950 . S
C662 C661 1.398 . S
C662 C663 1.391 . S
C663 H651 0.950 . S
C663 C659 1.393 . S
C663 C662 1.391 . S
H664 C672 0.950 . S
H665 C677 0.950 . S
H666 C674 0.950 . S
H667 C676 0.950 . S
H668 C678 0.950 . S
H669 C680 0.950 . S
H670 C682 0.950 . S
H671 C683 0.950 . S
C672 H664 0.950 . S
C672 C673 1.386 . S
C672 C674 1.391 . S
C673 C672 1.386 . S
C673 C677 1.393 . S
C674 H666 0.950 . S
C674 C672 1.391 . S
C674 C675 1.400 . S
C675 C674 1.400 . S
C675 C676 1.398 . S
C675 C681 1.491 . S
C676 H667 0.950 . S
C676 C675 1.398 . S
C676 C677 1.391 . S
C677 H665 0.950 . S
C677 C673 1.393 . S
C677 C676 1.391 . S
C678 H668 0.950 . S
C678 C679 1.386 . S
C678 C680 1.391 . S
C679 C678 1.386 . S
C679 C683 1.393 . S
C680 H669 0.950 . S
C680 C678 1.391 . S
C680 C681 1.400 . S
C681 C675 1.491 . S
C681 C680 1.400 . S
C681 C682 1.398 . S
C682 H670 0.950 . S
C682 C681 1.398 . S
C682 C683 1.391 . S
C683 H671 0.950 . S
C683 C679 1.393 . S
C683 C682 1.391 . S
H684 C692 0.950 . S
H685 C697 0.950 . S
H686 C694 0.950 . S
H687 C696 0.950 . S
H688 C698 0.950 . S
H689 C700 0.950 . S
H690 C702 0.950 . S
H691 C703 0.950 . S
C692 H684 0.950 . S
C692 C693 1.386 . S
C692 C694 1.391 . S
C693 C692 1.386 . S
C693 C697 1.393 . S
C694 H686 0.950 . S
C694 C692 1.391 . S
C694 C695 1.400 . S
C695 C694 1.400 . S
C695 C696 1.398 . S
C695 C701 1.491 . S
C696 H687 0.950 . S
C696 C695 1.398 . S
C696 C697 1.391 . S
C697 H685 0.950 . S
C697 C693 1.393 . S
C697 C696 1.391 . S
C698 H688 0.950 . S
C698 C699 1.386 . S
C698 C700 1.391 . S
C699 C698 1.386 . S
C699 C703 1.393 . S
C700 H689 0.950 . S
C700 C698 1.391 . S
C700 C701 1.400 . S
C701 C695 1.491 . S
C701 C700 1.400 . S
C701 C702 1.398 . S
C702 H690 0.950 . S
C702 C701 1.398 . S
C702 C703 1.391 . S
C703 H691 0.950 . S
C703 C699 1.393 . S
C703 C702 1.391 . S
H704 C712 0.950 . S
H705 C717 0.950 . S
H706 C714 0.950 . S
H707 C716 0.950 . S
H708 C718 0.950 . S
H709 C720 0.950 . S
H710 C722 0.950 . S
H711 C723 0.950 . S
C712 H704 0.950 . S
C712 C713 1.386 . S
C712 C714 1.391 . S
C713 C712 1.386 . S
C713 C717 1.393 . S
C714 H706 0.950 . S
C714 C712 1.391 . S
C714 C715 1.400 . S
C715 C714 1.400 . S
C715 C716 1.398 . S
C715 C721 1.491 . S
C716 H707 0.950 . S
C716 C715 1.398 . S
C716 C717 1.391 . S
C717 H705 0.950 . S
C717 C713 1.393 . S
C717 C716 1.391 . S
C718 H708 0.950 . S
C718 C719 1.386 . S
C718 C720 1.391 . S
C719 C718 1.386 . S
C719 C723 1.393 . S
C720 H709 0.950 . S
C720 C718 1.391 . S
C720 C721 1.400 . S
C721 C715 1.491 . S
C721 C720 1.400 . S
C721 C722 1.398 . S
C722 H710 0.950 . S
C722 C721 1.398 . S
C722 C723 1.391 . S
C723 H711 0.950 . S
C723 C719 1.393 . S
C723 C722 1.391 . S
H724 C732 0.950 . S
H725 C737 0.950 . S
H726 C734 0.950 . S
H727 C736 0.950 . S
H728 C738 0.950 . S
H729 C740 0.950 . S
H730 C742 0.950 . S
H731 C743 0.950 . S
C732 H724 0.950 . S
C732 C733 1.386 . S
C732 C734 1.391 . S
C733 C732 1.386 . S
C733 C737 1.393 . S
C734 H726 0.950 . S
C734 C732 1.391 . S
C734 C735 1.400 . S
C735 C734 1.400 . S
C735 C736 1.398 . S
C735 C741 1.491 . S
C736 H727 0.950 . S
C736 C735 1.398 . S
C736 C737 1.391 . S
C737 H725 0.950 . S
C737 C733 1.393 . S
C737 C736 1.391 . S
C738 H728 0.950 . S
C738 C739 1.386 . S
C738 C740 1.391 . S
C739 C738 1.386 . S
C739 C743 1.393 . S
C740 H729 0.950 . S
C740 C738 1.391 . S
C740 C741 1.400 . S
C741 C735 1.491 . S
C741 C740 1.400 . S
C741 C742 1.398 . S
C742 H730 0.950 . S
C742 C741 1.398 . S
C742 C743 1.391 . S
C743 H731 0.950 . S
C743 C739 1.393 . S
C743 C742 1.391 . S
H744 C752 0.950 . S
H745 C757 0.950 . S
H746 C754 0.950 . S
H747 C756 0.950 . S
H748 C758 0.950 . S
H749 C760 0.950 . S
H750 C762 0.950 . S
H751 C763 0.950 . S
C752 H744 0.950 . S
C752 C753 1.386 . S
C752 C754 1.391 . S
C753 C752 1.386 . S
C753 C757 1.393 . S
C754 H746 0.950 . S
C754 C752 1.391 . S
C754 C755 1.400 . S
C755 C754 1.400 . S
C755 C756 1.398 . S
C755 C761 1.491 . S
C756 H747 0.950 . S
C756 C755 1.398 . S
C756 C757 1.391 . S
C757 H745 0.950 . S
C757 C753 1.393 . S
C757 C756 1.391 . S
C758 H748 0.950 . S
C758 C759 1.386 . S
C758 C760 1.391 . S
C759 C758 1.386 . S
C759 C763 1.393 . S
C760 H749 0.950 . S
C760 C758 1.391 . S
C760 C761 1.400 . S
C761 C755 1.491 . S
C761 C760 1.400 . S
C761 C762 1.398 . S
C762 H750 0.950 . S
C762 C761 1.398 . S
C762 C763 1.391 . S
C763 H751 0.950 . S
C763 C759 1.393 . S
C763 C762 1.391 . S
H764 C772 0.950 . S
H765 C777 0.950 . S
H766 C774 0.950 . S
H767 C776 0.950 . S
H768 C778 0.950 . S
H769 C780 0.950 . S
H770 C782 0.950 . S
H771 C783 0.950 . S
C772 H764 0.950 . S
C772 C773 1.386 . S
C772 C774 1.391 . S
C773 C772 1.386 . S
C773 C777 1.393 . S
C774 H766 0.950 . S
C774 C772 1.391 . S
C774 C775 1.400 . S
C775 C774 1.400 . S
C775 C776 1.398 . S
C775 C781 1.491 . S
C776 H767 0.950 . S
C776 C775 1.398 . S
C776 C777 1.391 . S
C777 H765 0.950 . S
C777 C773 1.393 . S
C777 C776 1.391 . S
C778 H768 0.950 . S
C778 C779 1.386 . S
C778 C780 1.391 . S
C779 C778 1.386 . S
C779 C783 1.393 . S
C780 H769 0.950 . S
C780 C778 1.391 . S
C780 C781 1.400 . S
C781 C775 1.491 . S
C781 C780 1.400 . S
C781 C782 1.398 . S
C782 H770 0.950 . S
C782 C781 1.398 . S
C782 C783 1.391 . S
C783 H771 0.950 . S
C783 C779 1.393 . S
C783 C782 1.391 . S
H784 C792 0.950 . S
H785 C797 0.950 . S
H786 C794 0.950 . S
H787 C796 0.950 . S
H788 C798 0.950 . S
H789 C800 0.950 . S
H790 C802 0.950 . S
H791 C803 0.950 . S
C792 H784 0.950 . S
C792 C793 1.386 . S
C792 C794 1.391 . S
C793 C792 1.386 . S
C793 C797 1.393 . S
C794 H786 0.950 . S
C794 C792 1.391 . S
C794 C795 1.400 . S
C795 C794 1.400 . S
C795 C796 1.398 . S
C795 C801 1.491 . S
C796 H787 0.950 . S
C796 C795 1.398 . S
C796 C797 1.391 . S
C797 H785 0.950 . S
C797 C793 1.393 . S
C797 C796 1.391 . S
C798 H788 0.950 . S
C798 C799 1.386 . S
C798 C800 1.391 . S
C799 C798 1.386 . S
C799 C803 1.393 . S
C800 H789 0.950 . S
C800 C798 1.391 . S
C800 C801 1.400 . S
C801 C795 1.491 . S
C801 C800 1.400 . S
C801 C802 1.398 . S
C802 H790 0.950 . S
C802 C801 1.398 . S
C802 C803 1.391 . S
C803 H791 0.950 . S
C803 C799 1.393 . S
C803 C802 1.391 . S
H804 C812 0.950 . S
H805 C817 0.950 . S
H806 C814 0.950 . S
H807 C816 0.950 . S
H808 C818 0.950 . S
H809 C820 0.950 . S
H810 C822 0.950 . S
H811 C823 0.950 . S
C812 H804 0.950 . S
C812 C813 1.386 . S
C812 C814 1.391 . S
C813 C812 1.386 . S
C813 C817 1.393 . S
C814 H806 0.950 . S
C814 C812 1.391 . S
C814 C815 1.400 . S
C815 C814 1.400 . S
C815 C816 1.398 . S
C815 C821 1.491 . S
C816 H807 0.950 . S
C816 C815 1.398 . S
C816 C817 1.391 . S
C817 H805 0.950 . S
C817 C813 1.393 . S
C817 C816 1.391 . S
C818 H808 0.950 . S
C818 C819 1.386 . S
C818 C820 1.391 . S
C819 C818 1.386 . S
C819 C823 1.393 . S
C820 H809 0.950 . S
C820 C818 1.391 . S
C820 C821 1.400 . S
C821 C815 1.491 . S
C821 C820 1.400 . S
C821 C822 1.398 . S
C822 H810 0.950 . S
C822 C821 1.398 . S
C822 C823 1.391 . S
C823 H811 0.950 . S
C823 C819 1.393 . S
C823 C822 1.391 . S
H824 C832 0.950 . S
H825 C837 0.950 . S
H826 C834 0.950 . S
H827 C836 0.950 . S
H828 C838 0.950 . S
H829 C840 0.950 . S
H830 C842 0.950 . S
H831 C843 0.950 . S
C832 H824 0.950 . S
C832 C833 1.386 . S
C832 C834 1.391 . S
C833 C832 1.386 . S
C833 C837 1.393 . S
C834 H826 0.950 . S
C834 C832 1.391 . S
C834 C835 1.400 . S
C835 C834 1.400 . S
C835 C836 1.398 . S
C835 C841 1.491 . S
C836 H827 0.950 . S
C836 C835 1.398 . S
C836 C837 1.391 . S
C837 H825 0.950 . S
C837 C833 1.393 . S
C837 C836 1.391 . S
C838 H828 0.950 . S
C838 C839 1.386 . S
C838 C840 1.391 . S
C839 C838 1.386 . S
C839 C843 1.393 . S
C840 H829 0.950 . S
C840 C838 1.391 . S
C840 C841 1.400 . S
C841 C835 1.491 . S
C841 C840 1.400 . S
C841 C842 1.398 . S
C842 H830 0.950 . S
C842 C841 1.398 . S
C842 C843 1.391 . S
C843 H831 0.950 . S
C843 C839 1.393 . S
C843 C842 1.391 . S
H844 C852 0.950 . S
H845 C857 0.950 . S
H846 C854 0.950 . S
H847 C856 0.950 . S
H848 C858 0.950 . S
H849 C860 0.950 . S
H850 C862 0.950 . S
H851 C863 0.950 . S
C852 H844 0.950 . S
C852 C853 1.386 . S
C852 C854 1.391 . S
C853 C852 1.386 . S
C853 C857 1.393 . S
C854 H846 0.950 . S
C854 C852 1.391 . S
C854 C855 1.400 . S
C855 C854 1.400 . S
C855 C856 1.398 . S
C855 C861 1.491 . S
C856 H847 0.950 . S
C856 C855 1.398 . S
C856 C857 1.391 . S
C857 H845 0.950 . S
C857 C853 1.393 . S
C857 C856 1.391 . S
C858 H848 0.950 . S
C858 C859 1.386 . S
C858 C860 1.391 . S
C859 C858 1.386 . S
C859 C863 1.393 . S
C860 H849 0.950 . S
C860 C858 1.391 . S
C860 C861 1.400 . S
C861 C855 1.491 . S
C861 C860 1.400 . S
C861 C862 1.398 . S
C862 H850 0.950 . S
C862 C861 1.398 . S
C862 C863 1.391 . S
C863 H851 0.950 . S
C863 C859 1.393 . S
C863 C862 1.391 . S
H864 C872 0.950 . S
H865 C877 0.950 . S
H866 C874 0.950 . S
H867 C876 0.950 . S
H868 C878 0.950 . S
H869 C880 0.950 . S
H870 C882 0.950 . S
H871 C883 0.950 . S
C872 H864 0.950 . S
C872 C873 1.386 . S
C872 C874 1.391 . S
C873 C872 1.386 . S
C873 C877 1.393 . S
C874 H866 0.950 . S
C874 C872 1.391 . S
C874 C875 1.400 . S
C875 C874 1.400 . S
C875 C876 1.398 . S
C875 C881 1.491 . S
C876 H867 0.950 . S
C876 C875 1.398 . S
C876 C877 1.391 . S
C877 H865 0.950 . S
C877 C873 1.393 . S
C877 C876 1.391 . S
C878 H868 0.950 . S
C878 C879 1.386 . S
C878 C880 1.391 . S
C879 C878 1.386 . S
C879 C883 1.393 . S
C880 H869 0.950 . S
C880 C878 1.391 . S
C880 C881 1.400 . S
C881 C875 1.491 . S
C881 C880 1.400 . S
C881 C882 1.398 . S
C882 H870 0.950 . S
C882 C881 1.398 . S
C882 C883 1.391 . S
C883 H871 0.950 . S
C883 C879 1.393 . S
C883 C882 1.391 . S
H884 C892 0.950 . S
H885 C897 0.950 . S
H886 C894 0.950 . S
H887 C896 0.950 . S
H888 C898 0.950 . S
H889 C900 0.950 . S
H890 C902 0.950 . S
H891 C903 0.950 . S
C892 H884 0.950 . S
C892 C893 1.386 . S
C892 C894 1.391 . S
C893 C892 1.386 . S
C893 C897 1.393 . S
C894 H886 0.950 . S
C894 C892 1.391 . S
C894 C895 1.400 . S
C895 C894 1.400 . S
C895 C896 1.398 . S
C895 C901 1.491 . S
C896 H887 0.950 . S
C896 C895 1.398 . S
C896 C897 1.391 . S
C897 H885 0.950 . S
C897 C893 1.393 . S
C897 C896 1.391 . S
C898 H888 0.950 . S
C898 C899 1.386 . S
C898 C900 1.391 . S
C899 C898 1.386 . S
C899 C903 1.393 . S
C900 H889 0.950 . S
C900 C898 1.391 . S
C900 C901 1.400 . S
C901 C895 1.491 . S
C901 C900 1.400 . S
C901 C902 1.398 . S
C902 H890 0.950 . S
C902 C901 1.398 . S
C902 C903 1.391 . S
C903 H891 0.950 . S
C903 C899 1.393 . S
C903 C902 1.391 . S
H904 C912 0.950 . S
H905 C917 0.950 . S
H906 C914 0.950 . S
H907 C916 0.950 . S
H908 C918 0.950 . S
H909 C920 0.950 . S
H910 C922 0.950 . S
H911 C923 0.950 . S
C912 H904 0.950 . S
C912 C913 1.386 . S
C912 C914 1.391 . S
C913 C912 1.386 . S
C913 C917 1.393 . S
C914 H906 0.950 . S
C914 C912 1.391 . S
C914 C915 1.400 . S
C915 C914 1.400 . S
C915 C916 1.398 . S
C915 C921 1.491 . S
C916 H907 0.950 . S
C916 C915 1.398 . S
C916 C917 1.391 . S
C917 H905 0.950 . S
C917 C913 1.393 . S
C917 C916 1.391 . S
C918 H908 0.950 . S
C918 C919 1.386 . S
C918 C920 1.391 . S
C919 C918 1.386 . S
C919 C923 1.393 . S
C920 H909 0.950 . S
C920 C918 1.391 . S
C920 C921 1.400 . S
C921 C915 1.491 . S
C921 C920 1.400 . S
C921 C922 1.398 . S
C922 H910 0.950 . S
C922 C921 1.398 . S
C922 C923 1.391 . S
C923 H911 0.950 . S
C923 C919 1.393 . S
C923 C922 1.391 . S
H924 C932 0.950 . S
H925 C937 0.950 . S
H926 C934 0.950 . S
H927 C936 0.950 . S
H928 C938 0.950 . S
H929 C940 0.950 . S
H930 C942 0.950 . S
H931 C943 0.950 . S
C932 H924 0.950 . S
C932 C933 1.386 . S
C932 C934 1.391 . S
C933 C932 1.386 . S
C933 C937 1.393 . S
C934 H926 0.950 . S
C934 C932 1.391 . S
C934 C935 1.400 . S
C935 C934 1.400 . S
C935 C936 1.398 . S
C935 C941 1.491 . S
C936 H927 0.950 . S
C936 C935 1.398 . S
C936 C937 1.391 . S
C937 H925 0.950 . S
C937 C933 1.393 . S
C937 C936 1.391 . S
C938 H928 0.950 . S
C938 C939 1.386 . S
C938 C940 1.391 . S
C939 C938 1.386 . S
C939 C943 1.393 . S
C940 H929 0.950 . S
C940 C938 1.391 . S
C940 C941 1.400 . S
C941 C935 1.491 . S
C941 C940 1.400 . S
C941 C942 1.398 . S
C942 H930 0.950 . S
C942 C941 1.398 . S
C942 C943 1.391 . S
C943 H931 0.950 . S
C943 C939 1.393 . S
C943 C942 1.391 . S
H944 C952 0.950 . S
H945 C957 0.950 . S
H946 C954 0.950 . S
H947 C956 0.950 . S
H948 C958 0.950 . S
H949 C960 0.950 . S
H950 C962 0.950 . S
H951 C963 0.950 . S
C952 H944 0.950 . S
C952 C953 1.386 . S
C952 C954 1.391 . S
C953 C952 1.386 . S
C953 C957 1.393 . S
C954 H946 0.950 . S
C954 C952 1.391 . S
C954 C955 1.400 . S
C955 C954 1.400 . S
C955 C956 1.398 . S
C955 C961 1.491 . S
C956 H947 0.950 . S
C956 C955 1.398 . S
C956 C957 1.391 . S
C957 H945 0.950 . S
C957 C953 1.393 . S
C957 C956 1.391 . S
C958 H948 0.950 . S
C958 C959 1.386 . S
C958 C960 1.391 . S
C959 C958 1.386 . S
C959 C963 1.393 . S
C960 H949 0.950 . S
C960 C958 1.391 . S
C960 C961 1.400 . S
C961 C955 1.491 . S
C961 C960 1.400 . S
C961 C962 1.398 . S
C962 H950 0.950 . S
C962 C961 1.398 . S
C962 C963 1.391 . S
C963 H951 0.950 . S
C963 C959 1.393 . S
C963 C962 1.391 . S
H964 C972 0.950 . S
H965 C977 0.950 . S
H966 C974 0.950 . S
H967 C976 0.950 . S
H968 C978 0.950 . S
H969 C980 0.950 . S
H970 C982 0.950 . S
H971 C983 0.950 . S
C972 H964 0.950 . S
C972 C973 1.386 . S
C972 C974 1.391 . S
C973 C972 1.386 . S
C973 C977 1.393 . S
C974 H966 0.950 . S
C974 C972 1.391 . S
C974 C975 1.400 . S
C975 C974 1.400 . S
C975 C976 1.398 . S
C975 C981 1.491 . S
C976 H967 0.950 . S
C976 C975 1.398 . S
C976 C977 1.391 . S
C977 H965 0.950 . S
C977 C973 1.393 . S
C977 C976 1.391 . S
C978 H968 0.950 . S
C978 C979 1.386 . S
C978 C980 1.391 . S
C979 C978 1.386 . S
C979 C983 1.393 . S
C980 H969 0.950 . S
C980 C978 1.391 . S
C980 C981 1.400 . S
C981 C975 1.491 . S
C981 C980 1.400 . S
C981 C982 1.398 . S
C982 H970 0.950 . S
C982 C981 1.398 . S
C982 C983 1.391 . S
C983 H971 0.950 . S
C983 C979 1.393 . S
C983 C982 1.391 . S
H984 C992 0.950 . S
H985 C997 0.950 . S
H986 C994 0.950 . S
H987 C996 0.950 . S
H988 C998 0.950 . S
H989 C1000 0.950 . S
H990 C1002 0.950 . S
H991 C1003 0.950 . S
C992 H984 0.950 . S
C992 C993 1.386 . S
C992 C994 1.391 . S
C993 C992 1.386 . S
C993 C997 1.393 . S
C994 H986 0.950 . S
C994 C992 1.391 . S
C994 C995 1.400 . S
C995 C994 1.400 . S
C995 C996 1.398 . S
C995 C1001 1.491 . S
C996 H987 0.950 . S
C996 C995 1.398 . S
C996 C997 1.391 . S
C997 H985 0.950 . S
C997 C993 1.393 . S
C997 C996 1.391 . S
C998 H988 0.950 . S
C998 C999 1.386 . S
C998 C1000 1.391 . S
C999 C998 1.386 . S
C999 C1003 1.393 . S
C1000 H989 0.950 . S
C1000 C998 1.391 . S
C1000 C1001 1.400 . S
C1001 C995 1.491 . S
C1001 C1000 1.400 . S
C1001 C1002 1.398 . S
C1002 H990 0.950 . S
C1002 C1001 1.398 . S
C1002 C1003 1.391 . S
C1003 H991 0.950 . S
C1003 C999 1.393 . S
C1003 C1002 1.391 . S
H1004 C1012 0.950 . S
H1005 C1017 0.950 . S
H1006 C1014 0.950 . S
H1007 C1016 0.950 . S
H1008 C1018 0.950 . S
H1009 C1020 0.950 . S
H1010 C1022 0.950 . S
H1011 C1023 0.950 . S
C1012 H1004 0.950 . S
C1012 C1013 1.386 . S
C1012 C1014 1.391 . S
C1013 C1012 1.386 . S
C1013 C1017 1.393 . S
C1014 H1006 0.950 . S
C1014 C1012 1.391 . S
C1014 C1015 1.400 . S
C1015 C1014 1.400 . S
C1015 C1016 1.398 . S
C1015 C1021 1.491 . S
C1016 H1007 0.950 . S
C1016 C1015 1.398 . S
C1016 C1017 1.391 . S
C1017 H1005 0.950 . S
C1017 C1013 1.393 . S
C1017 C1016 1.391 . S
C1018 H1008 0.950 . S
C1018 C1019 1.386 . S
C1018 C1020 1.391 . S
C1019 C1018 1.386 . S
C1019 C1023 1.393 . S
C1020 H1009 0.950 . S
C1020 C1018 1.391 . S
C1020 C1021 1.400 . S
C1021 C1015 1.491 . S
C1021 C1020 1.400 . S
C1021 C1022 1.398 . S
C1022 H1010 0.950 . S
C1022 C1021 1.398 . S
C1022 C1023 1.391 . S
C1023 H1011 0.950 . S
C1023 C1019 1.393 . S
C1023 C1022 1.391 . S
H1024 C1032 0.950 . S
H1025 C1037 0.950 . S
H1026 C1034 0.950 . S
H1027 C1036 0.950 . S
H1028 C1038 0.950 . S
H1029 C1040 0.950 . S
H1030 C1042 0.950 . S
H1031 C1043 0.950 . S
C1032 H1024 0.950 . S
C1032 C1033 1.386 . S
C1032 C1034 1.391 . S
C1033 C1032 1.386 . S
C1033 C1037 1.393 . S
C1034 H1026 0.950 . S
C1034 C1032 1.391 . S
C1034 C1035 1.400 . S
C1035 C1034 1.400 . S
C1035 C1036 1.398 . S
C1035 C1041 1.491 . S
C1036 H1027 0.950 . S
C1036 C1035 1.398 . S
C1036 C1037 1.391 . S
C1037 H1025 0.950 . S
C1037 C1033 1.393 . S
C1037 C1036 1.391 . S
C1038 H1028 0.950 . S
C1038 C1039 1.386 . S
C1038 C1040 1.391 . S
C1039 C1038 1.386 . S
C1039 C1043 1.393 . S
C1040 H1029 0.950 . S
C1040 C1038 1.391 . S
C1040 C1041 1.400 . S
C1041 C1035 1.491 . S
C1041 C1040 1.400 . S
C1041 C1042 1.398 . S
C1042 H1030 0.950 . S
C1042 C1041 1.398 . S
C1042 C1043 1.391 . S
C1043 H1031 0.950 . S
C1043 C1039 1.393 . S
C1043 C1042 1.391 . S
H1044 C1052 0.950 . S
H1045 C1057 0.950 . S
H1046 C1054 0.950 . S
H1047 C1056 0.950 . S
H1048 C1058 0.950 . S
H1049 C1060 0.950 . S
H1050 C1062 0.950 . S
H1051 C1063 0.950 . S
C1052 H1044 0.950 . S
C1052 C1053 1.386 . S
C1052 C1054 1.391 . S
C1053 C1052 1.386 . S
C1053 C1057 1.393 . S
C1054 H1046 0.950 . S
C1054 C1052 1.391 . S
C1054 C1055 1.400 . S
C1055 C1054 1.400 . S
C1055 C1056 1.398 . S
C1055 C1061 1.491 . S
C1056 H1047 0.950 . S
C1056 C1055 1.398 . S
C1056 C1057 1.391 . S
C1057 H1045 0.950 . S
C1057 C1053 1.393 . S
C1057 C1056 1.391 . S
C1058 H1048 0.950 . S
C1058 C1059 1.386 . S
C1058 C1060 1.391 . S
C1059 C1058 1.386 . S
C1059 C1063 1.393 . S
C1060 H1049 0.950 . S
C1060 C1058 1.391 . S
C1060 C1061 1.400 . S
C1061 C1055 1.491 . S
C1061 C1060 1.400 . S
C1061 C1062 1.398 . S
C1062 H1050 0.950 . S
C1062 C1061 1.398 . S
C1062 C1063 1.391 . S
C1063 H1051 0.950 . S
C1063 C1059 1.393 . S
C1063 C1062 1.391 . S
H1064 C1072 0.950 . S
H1065 C1077 0.950 . S
H1066 C1074 0.950 . S
H1067 C1076 0.950 . S
H1068 C1078 0.950 . S
H1069 C1080 0.950 . S
H1070 C1082 0.950 . S
H1071 C1083 0.950 . S
C1072 H1064 0.950 . S
C1072 C1073 1.386 . S
C1072 C1074 1.391 . S
C1073 C1072 1.386 . S
C1073 C1077 1.393 . S
C1074 H1066 0.950 . S
C1074 C1072 1.391 . S
C1074 C1075 1.400 . S
C1075 C1074 1.400 . S
C1075 C1076 1.398 . S
C1075 C1081 1.491 . S
C1076 H1067 0.950 . S
C1076 C1075 1.398 . S
C1076 C1077 1.391 . S
C1077 H1065 0.950 . S
C1077 C1073 1.393 . S
C1077 C1076 1.391 . S
C1078 H1068 0.950 . S
C1078 C1079 1.386 . S
C1078 C1080 1.391 . S
C1079 C1078 1.386 . S
C1079 C1083 1.393 . S
C1080 H1069 0.950 . S
C1080 C1078 1.391 . S
C1080 C1081 1.400 . S
C1081 C1075 1.491 . S
C1081 C1080 1.400 . S
C1081 C1082 1.398 . S
C1082 H1070 0.950 . S
C1082 C1081 1.398 . S
C1082 C1083 1.391 . S
C1083 H1071 0.950 . S
C1083 C1079 1.393 . S
C1083 C1082 1.391 . S
H1084 C1092 0.950 . S
H1085 C1097 0.950 . S
H1086 C1094 0.950 . S
H1087 C1096 0.950 . S
H1088 C1098 0.950 . S
H1089 C1100 0.950 . S
H1090 C1102 0.950 . S
H1091 C1103 0.950 . S
C1092 H1084 0.950 . S
C1092 C1093 1.386 . S
C1092 C1094 1.391 . S
C1093 C1092 1.386 . S
C1093 C1097 1.393 . S
C1094 H1086 0.950 . S
C1094 C1092 1.391 . S
C1094 C1095 1.400 . S
C1095 C1094 1.400 . S
C1095 C1096 1.398 . S
C1095 C1101 1.491 . S
C1096 H1087 0.950 . S
C1096 C1095 1.398 . S
C1096 C1097 1.391 . S
C1097 H1085 0.950 . S
C1097 C1093 1.393 . S
C1097 C1096 1.391 . S
C1098 H1088 0.950 . S
C1098 C1099 1.386 . S
C1098 C1100 1.391 . S
C1099 C1098 1.386 . S
C1099 C1103 1.393 . S
C1100 H1089 0.950 . S
C1100 C1098 1.391 . S
C1100 C1101 1.400 . S
C1101 C1095 1.491 . S
C1101 C1100 1.400 . S
C1101 C1102 1.398 . S
C1102 H1090 0.950 . S
C1102 C1101 1.398 . S
C1102 C1103 1.391 . S
C1103 H1091 0.950 . S
C1103 C1099 1.393 . S
C1103 C1102 1.391 . S
H1104 C1112 0.950 . S
H1105 C1117 0.950 . S
H1106 C1114 0.950 . S
H1107 C1116 0.950 . S
H1108 C1118 0.950 . S
H1109 C1120 0.950 . S
H1110 C1122 0.950 . S
H1111 C1123 0.950 . S
C1112 H1104 0.950 . S
C1112 C1113 1.386 . S
C1112 C1114 1.391 . S
C1113 C1112 1.386 . S
C1113 C1117 1.393 . S
C1114 H1106 0.950 . S
C1114 C1112 1.391 . S
C1114 C1115 1.400 . S
C1115 C1114 1.400 . S
C1115 C1116 1.398 . S
C1115 C1121 1.491 . S
C1116 H1107 0.950 . S
C1116 C1115 1.398 . S
C1116 C1117 1.391 . S
C1117 H1105 0.950 . S
C1117 C1113 1.393 . S
C1117 C1116 1.391 . S
C1118 H1108 0.950 . S
C1118 C1119 1.386 . S
C1118 C1120 1.391 . S
C1119 C1118 1.386 . S
C1119 C1123 1.393 . S
C1120 H1109 0.950 . S
C1120 C1118 1.391 . S
C1120 C1121 1.400 . S
C1121 C1115 1.491 . S
C1121 C1120 1.400 . S
C1121 C1122 1.398 . S
C1122 H1110 0.950 . S
C1122 C1121 1.398 . S
C1122 C1123 1.391 . S
C1123 H1111 0.950 . S
C1123 C1119 1.393 . S
C1123 C1122 1.391 . S
H1124 C1132 0.950 . S
H1125 C1137 0.950 . S
H1126 C1134 0.950 . S
H1127 C1136 0.950 . S
H1128 C1138 0.950 . S
H1129 C1140 0.950 . S
H1130 C1142 0.950 . S
H1131 C1143 0.950 . S
C1132 H1124 0.950 . S
C1132 C1133 1.386 . S
C1132 C1134 1.391 . S
C1133 C1132 1.386 . S
C1133 C1137 1.393 . S
C1134 H1126 0.950 . S
C1134 C1132 1.391 . S
C1134 C1135 1.400 . S
C1135 C1134 1.400 . S
C1135 C1136 1.398 . S
C1135 C1141 1.491 . S
C1136 H1127 0.950 . S
C1136 C1135 1.398 . S
C1136 C1137 1.391 . S
C1137 H1125 0.950 . S
C1137 C1133 1.393 . S
C1137 C1136 1.391 . S
C1138 H1128 0.950 . S
C1138 C1139 1.386 . S
C1138 C1140 1.391 . S
C1139 C1138 1.386 . S
C1139 C1143 1.393 . S
C1140 H1129 0.950 . S
C1140 C1138 1.391 . S
C1140 C1141 1.400 . S
C1141 C1135 1.491 . S
C1141 C1140 1.400 . S
C1141 C1142 1.398 . S
C1142 H1130 0.950 . S
C1142 C1141 1.398 . S
C1142 C1143 1.391 . S
C1143 H1131 0.950 . S
C1143 C1139 1.393 . S
C1143 C1142 1.391 . S
H1144 C1152 0.950 . S
H1145 C1157 0.950 . S
H1146 C1154 0.950 . S
H1147 C1156 0.950 . S
H1148 C1158 0.950 . S
H1149 C1160 0.950 . S
H1150 C1162 0.950 . S
H1151 C1163 0.950 . S
C1152 H1144 0.950 . S
C1152 C1153 1.386 . S
C1152 C1154 1.391 . S
C1153 C1152 1.386 . S
C1153 C1157 1.393 . S
C1154 H1146 0.950 . S
C1154 C1152 1.391 . S
C1154 C1155 1.400 . S
C1155 C1154 1.400 . S
C1155 C1156 1.398 . S
C1155 C1161 1.491 . S
C1156 H1147 0.950 . S
C1156 C1155 1.398 . S
C1156 C1157 1.391 . S
C1157 H1145 0.950 . S
C1157 C1153 1.393 . S
C1157 C1156 1.391 . S
C1158 H1148 0.950 . S
C1158 C1159 1.386 . S
C1158 C1160 1.391 . S
C1159 C1158 1.386 . S
C1159 C1163 1.393 . S
C1160 H1149 0.950 . S
C1160 C1158 1.391 . S
C1160 C1161 1.400 . S
C1161 C1155 1.491 . S
C1161 C1160 1.400 . S
C1161 C1162 1.398 . S
C1162 H1150 0.950 . S
C1162 C1161 1.398 . S
C1162 C1163 1.391 . S
C1163 H1151 0.950 . S
C1163 C1159 1.393 . S
C1163 C1162 1.391 . S
H1164 C1172 0.950 . S
H1165 C1177 0.950 . S
H1166 C1174 0.950 . S
H1167 C1176 0.950 . S
H1168 C1178 0.950 . S
H1169 C1180 0.950 . S
H1170 C1182 0.950 . S
H1171 C1183 0.950 . S
C1172 H1164 0.950 . S
C1172 C1173 1.386 . S
C1172 C1174 1.391 . S
C1173 C1172 1.386 . S
C1173 C1177 1.393 . S
C1174 H1166 0.950 . S
C1174 C1172 1.391 . S
C1174 C1175 1.400 . S
C1175 C1174 1.400 . S
C1175 C1176 1.398 . S
C1175 C1181 1.491 . S
C1176 H1167 0.950 . S
C1176 C1175 1.398 . S
C1176 C1177 1.391 . S
C1177 H1165 0.950 . S
C1177 C1173 1.393 . S
C1177 C1176 1.391 . S
C1178 H1168 0.950 . S
C1178 C1179 1.386 . S
C1178 C1180 1.391 . S
C1179 C1178 1.386 . S
C1179 C1183 1.393 . S
C1180 H1169 0.950 . S
C1180 C1178 1.391 . S
C1180 C1181 1.400 . S
C1181 C1175 1.491 . S
C1181 C1180 1.400 . S
C1181 C1182 1.398 . S
C1182 H1170 0.950 . S
C1182 C1181 1.398 . S
C1182 C1183 1.391 . S
C1183 H1171 0.950 . S
C1183 C1179 1.393 . S
C1183 C1182 1.391 . S
H1184 C1192 0.950 . S
H1185 C1197 0.950 . S
H1186 C1194 0.950 . S
H1187 C1196 0.950 . S
H1188 C1198 0.950 . S
H1189 C1200 0.950 . S
H1190 C1202 0.950 . S
H1191 C1203 0.950 . S
C1192 H1184 0.950 . S
C1192 C1193 1.386 . S
C1192 C1194 1.391 . S
C1193 C1192 1.386 . S
C1193 C1197 1.393 . S
C1194 H1186 0.950 . S
C1194 C1192 1.391 . S
C1194 C1195 1.400 . S
C1195 C1194 1.400 . S
C1195 C1196 1.398 . S
C1195 C1201 1.491 . S
C1196 H1187 0.950 . S
C1196 C1195 1.398 . S
C1196 C1197 1.391 . S
C1197 H1185 0.950 . S
C1197 C1193 1.393 . S
C1197 C1196 1.391 . S
C1198 H1188 0.950 . S
C1198 C1199 1.386 . S
C1198 C1200 1.391 . S
C1199 C1198 1.386 . S
C1199 C1203 1.393 . S
C1200 H1189 0.950 . S
C1200 C1198 1.391 . S
C1200 C1201 1.400 . S
C1201 C1195 1.491 . S
C1201 C1200 1.400 . S
C1201 C1202 1.398 . S
C1202 H1190 0.950 . S
C1202 C1201 1.398 . S
C1202 C1203 1.391 . S
C1203 H1191 0.950 . S
C1203 C1199 1.393 . S
C1203 C1202 1.391 . S
H1204 C1212 0.950 . S
H1205 C1217 0.950 . S
H1206 C1214 0.950 . S
H1207 C1216 0.950 . S
H1208 C1218 0.950 . S
H1209 C1220 0.950 . S
H1210 C1222 0.950 . S
H1211 C1223 0.950 . S
C1212 H1204 0.950 . S
C1212 C1213 1.386 . S
C1212 C1214 1.391 . S
C1213 C1212 1.386 . S
C1213 C1217 1.393 . S
C1214 H1206 0.950 . S
C1214 C1212 1.391 . S
C1214 C1215 1.400 . S
C1215 C1214 1.400 . S
C1215 C1216 1.398 . S
C1215 C1221 1.491 . S
C1216 H1207 0.950 . S
C1216 C1215 1.398 . S
C1216 C1217 1.391 . S
C1217 H1205 0.950 . S
C1217 C1213 1.393 . S
C1217 C1216 1.391 . S
C1218 H1208 0.950 . S
C1218 C1219 1.386 . S
C1218 C1220 1.391 . S
C1219 C1218 1.386 . S
C1219 C1223 1.393 . S
C1220 H1209 0.950 . S
C1220 C1218 1.391 . S
C1220 C1221 1.400 . S
C1221 C1215 1.491 . S
C1221 C1220 1.400 . S
C1221 C1222 1.398 . S
C1222 H1210 0.950 . S
C1222 C1221 1.398 . S
C1222 C1223 1.391 . S
C1223 H1211 0.950 . S
C1223 C1219 1.393 . S
C1223 C1222 1.391 . S
H1224 C1232 0.950 . S
H1225 C1237 0.950 . S
H1226 C1234 0.950 . S
H1227 C1236 0.950 . S
H1228 C1238 0.950 . S
H1229 C1240 0.950 . S
H1230 C1242 0.950 . S
H1231 C1243 0.950 . S
C1232 H1224 0.950 . S
C1232 C1233 1.386 . S
C1232 C1234 1.391 . S
C1233 C1232 1.386 . S
C1233 C1237 1.393 . S
C1234 H1226 0.950 . S
C1234 C1232 1.391 . S
C1234 C1235 1.400 . S
C1235 C1234 1.400 . S
C1235 C1236 1.398 . S
C1235 C1241 1.491 . S
C1236 H1227 0.950 . S
C1236 C1235 1.398 . S
C1236 C1237 1.391 . S
C1237 H1225 0.950 . S
C1237 C1233 1.393 . S
C1237 C1236 1.391 . S
C1238 H1228 0.950 . S
C1238 C1239 1.386 . S
C1238 C1240 1.391 . S
C1239 C1238 1.386 . S
C1239 C1243 1.393 . S
C1240 H1229 0.950 . S
C1240 C1238 1.391 . S
C1240 C1241 1.400 . S
C1241 C1235 1.491 . S
C1241 C1240 1.400 . S
C1241 C1242 1.398 . S
C1242 H1230 0.950 . S
C1242 C1241 1.398 . S
C1242 C1243 1.391 . S
C1243 H1231 0.950 . S
C1243 C1239 1.393 . S
C1243 C1242 1.391 . S
H1244 C1252 0.950 . S
H1245 C1257 0.950 . S
H1246 C1254 0.950 . S
H1247 C1256 0.950 . S
H1248 C1258 0.950 . S
H1249 C1260 0.950 . S
H1250 C1262 0.950 . S
H1251 C1263 0.950 . S
C1252 H1244 0.950 . S
C1252 C1253 1.386 . S
C1252 C1254 1.391 . S
C1253 C1252 1.386 . S
C1253 C1257 1.393 . S
C1254 H1246 0.950 . S
C1254 C1252 1.391 . S
C1254 C1255 1.400 . S
C1255 C1254 1.400 . S
C1255 C1256 1.398 . S
C1255 C1261 1.491 . S
C1256 H1247 0.950 . S
C1256 C1255 1.398 . S
C1256 C1257 1.391 . S
C1257 H1245 0.950 . S
C1257 C1253 1.393 . S
C1257 C1256 1.391 . S
C1258 H1248 0.950 . S
C1258 C1259 1.386 . S
C1258 C1260 1.391 . S
C1259 C1258 1.386 . S
C1259 C1263 1.393 . S
C1260 H1249 0.950 . S
C1260 C1258 1.391 . S
C1260 C1261 1.400 . S
C1261 C1255 1.491 . S
C1261 C1260 1.400 . S
C1261 C1262 1.398 . S
C1262 H1250 0.950 . S
C1262 C1261 1.398 . S
C1262 C1263 1.391 . S
C1263 H1251 0.950 . S
C1263 C1259 1.393 . S
C1263 C1262 1.391 . S
H1264 C1272 0.950 . S
H1265 C1277 0.950 . S
H1266 C1274 0.950 . S
H1267 C1276 0.950 . S
H1268 C1278 0.950 . S
H1269 C1280 0.950 . S
H1270 C1282 0.950 . S
H1271 C1283 0.950 . S
C1272 H1264 0.950 . S
C1272 C1273 1.386 . S
C1272 C1274 1.391 . S
C1273 C1272 1.386 . S
C1273 C1277 1.393 . S
C1274 H1266 0.950 . S
C1274 C1272 1.391 . S
C1274 C1275 1.400 . S
C1275 C1274 1.400 . S
C1275 C1276 1.398 . S
C1275 C1281 1.491 . S
C1276 H1267 0.950 . S
C1276 C1275 1.398 . S
C1276 C1277 1.391 . S
C1277 H1265 0.950 . S
C1277 C1273 1.393 . S
C1277 C1276 1.391 . S
C1278 H1268 0.950 . S
C1278 C1279 1.386 . S
C1278 C1280 1.391 . S
C1279 C1278 1.386 . S
C1279 C1283 1.393 . S
C1280 H1269 0.950 . S
C1280 C1278 1.391 . S
C1280 C1281 1.400 . S
C1281 C1275 1.491 . S
C1281 C1280 1.400 . S
C1281 C1282 1.398 . S
C1282 H1270 0.950 . S
C1282 C1281 1.398 . S
C1282 C1283 1.391 . S
C1283 H1271 0.950 . S
C1283 C1279 1.393 . S
C1283 C1282 1.391 . S
H1284 C1292 0.950 . S
H1285 C1297 0.950 . S
H1286 C1294 0.950 . S
H1287 C1296 0.950 . S
H1288 C1298 0.950 . S
H1289 C1300 0.950 . S
H1290 C1302 0.950 . S
H1291 C1303 0.950 . S
C1292 H1284 0.950 . S
C1292 C1293 1.386 . S
C1292 C1294 1.391 . S
C1293 C1292 1.386 . S
C1293 C1297 1.393 . S
C1294 H1286 0.950 . S
C1294 C1292 1.391 . S
C1294 C1295 1.400 . S
C1295 C1294 1.400 . S
C1295 C1296 1.398 . S
C1295 C1301 1.491 . S
C1296 H1287 0.950 . S
C1296 C1295 1.398 . S
C1296 C1297 1.391 . S
C1297 H1285 0.950 . S
C1297 C1293 1.393 . S
C1297 C1296 1.391 . S
C1298 H1288 0.950 . S
C1298 C1299 1.386 . S
C1298 C1300 1.391 . S
C1299 C1298 1.386 . S
C1299 C1303 1.393 . S
C1300 H1289 0.950 . S
C1300 C1298 1.391 . S
C1300 C1301 1.400 . S
C1301 C1295 1.491 . S
C1301 C1300 1.400 . S
C1301 C1302 1.398 . S
C1302 H1290 0.950 . S
C1302 C1301 1.398 . S
C1302 C1303 1.391 . S
C1303 H1291 0.950 . S
C1303 C1299 1.393 . S
C1303 C1302 1.391 . S
H1304 C1312 0.950 . S
H1305 C1317 0.950 . S
H1306 C1314 0.950 . S
H1307 C1316 0.950 . S
H1308 C1318 0.950 . S
H1309 C1320 0.950 . S
H1310 C1322 0.950 . S
H1311 C1323 0.950 . S
C1312 H1304 0.950 . S
C1312 C1313 1.386 . S
C1312 C1314 1.391 . S
C1313 C1312 1.386 . S
C1313 C1317 1.393 . S
C1314 H1306 0.950 . S
C1314 C1312 1.391 . S
C1314 C1315 1.400 . S
C1315 C1314 1.400 . S
C1315 C1316 1.398 . S
C1315 C1321 1.491 . S
C1316 H1307 0.950 . S
C1316 C1315 1.398 . S
C1316 C1317 1.391 . S
C1317 H1305 0.950 . S
C1317 C1313 1.393 . S
C1317 C1316 1.391 . S
C1318 H1308 0.950 . S
C1318 C1319 1.386 . S
C1318 C1320 1.391 . S
C1319 C1318 1.386 . S
C1319 C1323 1.393 . S
C1320 H1309 0.950 . S
C1320 C1318 1.391 . S
C1320 C1321 1.400 . S
C1321 C1315 1.491 . S
C1321 C1320 1.400 . S
C1321 C1322 1.398 . S
C1322 H1310 0.950 . S
C1322 C1321 1.398 . S
C1322 C1323 1.391 . S
C1323 H1311 0.950 . S
C1323 C1319 1.393 . S
C1323 C1322 1.391 . S
H1324 C1332 0.950 . S
H1325 C1337 0.950 . S
H1326 C1334 0.950 . S
H1327 C1336 0.950 . S
H1328 C1338 0.950 . S
H1329 C1340 0.950 . S
H1330 C1342 0.950 . S
H1331 C1343 0.950 . S
C1332 H1324 0.950 . S
C1332 C1333 1.386 . S
C1332 C1334 1.391 . S
C1333 C1332 1.386 . S
C1333 C1337 1.393 . S
C1334 H1326 0.950 . S
C1334 C1332 1.391 . S
C1334 C1335 1.400 . S
C1335 C1334 1.400 . S
C1335 C1336 1.398 . S
C1335 C1341 1.491 . S
C1336 H1327 0.950 . S
C1336 C1335 1.398 . S
C1336 C1337 1.391 . S
C1337 H1325 0.950 . S
C1337 C1333 1.393 . S
C1337 C1336 1.391 . S
C1338 H1328 0.950 . S
C1338 C1339 1.386 . S
C1338 C1340 1.391 . S
C1339 C1338 1.386 . S
C1339 C1343 1.393 . S
C1340 H1329 0.950 . S
C1340 C1338 1.391 . S
C1340 C1341 1.400 . S
C1341 C1335 1.491 . S
C1341 C1340 1.400 . S
C1341 C1342 1.398 . S
C1342 H1330 0.950 . S
C1342 C1341 1.398 . S
C1342 C1343 1.391 . S
C1343 H1331 0.950 . S
C1343 C1339 1.393 . S
C1343 C1342 1.391 . S
H1344 C1352 0.950 . S
H1345 C1357 0.950 . S
H1346 C1354 0.950 . S
H1347 C1356 0.950 . S
H1348 C1358 0.950 . S
H1349 C1360 0.950 . S
H1350 C1362 0.950 . S
H1351 C1363 0.950 . S
C1352 H1344 0.950 . S
C1352 C1353 1.386 . S
C1352 C1354 1.391 . S
C1353 C1352 1.386 . S
C1353 C1357 1.393 . S
C1354 H1346 0.950 . S
C1354 C1352 1.391 . S
C1354 C1355 1.400 . S
C1355 C1354 1.400 . S
C1355 C1356 1.398 . S
C1355 C1361 1.491 . S
C1356 H1347 0.950 . S
C1356 C1355 1.398 . S
C1356 C1357 1.391 . S
C1357 H1345 0.950 . S
C1357 C1353 1.393 . S
C1357 C1356 1.391 . S
C1358 H1348 0.950 . S
C1358 C1359 1.386 . S
C1358 C1360 1.391 . S
C1359 C1358 1.386 . S
C1359 C1363 1.393 . S
C1360 H1349 0.950 . S
C1360 C1358 1.391 . S
C1360 C1361 1.400 . S
C1361 C1355 1.491 . S
C1361 C1360 1.400 . S
C1361 C1362 1.398 . S
C1362 H1350 0.950 . S
C1362 C1361 1.398 . S
C1362 C1363 1.391 . S
C1363 H1351 0.950 . S
C1363 C1359 1.393 . S
C1363 C1362 1.391 . S
H1364 C1372 0.950 . S
H1365 C1377 0.950 . S
H1366 C1374 0.950 . S
H1367 C1376 0.950 . S
H1368 C1378 0.950 . S
H1369 C1380 0.950 . S
H1370 C1382 0.950 . S
H1371 C1383 0.950 . S
C1372 H1364 0.950 . S
C1372 C1373 1.386 . S
C1372 C1374 1.391 . S
C1373 C1372 1.386 . S
C1373 C1377 1.393 . S
C1374 H1366 0.950 . S
C1374 C1372 1.391 . S
C1374 C1375 1.400 . S
C1375 C1374 1.400 . S
C1375 C1376 1.398 . S
C1375 C1381 1.491 . S
C1376 H1367 0.950 . S
C1376 C1375 1.398 . S
C1376 C1377 1.391 . S
C1377 H1365 0.950 . S
C1377 C1373 1.393 . S
C1377 C1376 1.391 . S
C1378 H1368 0.950 . S
C1378 C1379 1.386 . S
C1378 C1380 1.391 . S
C1379 C1378 1.386 . S
C1379 C1383 1.393 . S
C1380 H1369 0.950 . S
C1380 C1378 1.391 . S
C1380 C1381 1.400 . S
C1381 C1375 1.491 . S
C1381 C1380 1.400 . S
C1381 C1382 1.398 . S
C1382 H1370 0.950 . S
C1382 C1381 1.398 . S
C1382 C1383 1.391 . S
C1383 H1371 0.950 . S
C1383 C1379 1.393 . S
C1383 C1382 1.391 . S
H1384 C1392 0.950 . S
H1385 C1397 0.950 . S
H1386 C1394 0.950 . S
H1387 C1396 0.950 . S
H1388 C1398 0.950 . S
H1389 C1400 0.950 . S
H1390 C1402 0.950 . S
H1391 C1403 0.950 . S
C1392 H1384 0.950 . S
C1392 C1393 1.386 . S
C1392 C1394 1.391 . S
C1393 C1392 1.386 . S
C1393 C1397 1.393 . S
C1394 H1386 0.950 . S
C1394 C1392 1.391 . S
C1394 C1395 1.400 . S
C1395 C1394 1.400 . S
C1395 C1396 1.398 . S
C1395 C1401 1.491 . S
C1396 H1387 0.950 . S
C1396 C1395 1.398 . S
C1396 C1397 1.391 . S
C1397 H1385 0.950 . S
C1397 C1393 1.393 . S
C1397 C1396 1.391 . S
C1398 H1388 0.950 . S
C1398 C1399 1.386 . S
C1398 C1400 1.391 . S
C1399 C1398 1.386 . S
C1399 C1403 1.393 . S
C1400 H1389 0.950 . S
C1400 C1398 1.391 . S
C1400 C1401 1.400 . S
C1401 C1395 1.491 . S
C1401 C1400 1.400 . S
C1401 C1402 1.398 . S
C1402 H1390 0.950 . S
C1402 C1401 1.398 . S
C1402 C1403 1.391 . S
C1403 H1391 0.950 . S
C1403 C1399 1.393 . S
C1403 C1402 1.391 . S
H1404 C1412 0.950 . S
H1405 C1417 0.950 . S
H1406 C1414 0.950 . S
H1407 C1416 0.950 . S
H1408 C1418 0.950 . S
H1409 C1420 0.950 . S
H1410 C1422 0.950 . S
H1411 C1423 0.950 . S
C1412 H1404 0.950 . S
C1412 C1413 1.386 . S
C1412 C1414 1.391 . S
C1413 C1412 1.386 . S
C1413 C1417 1.393 . S
C1414 H1406 0.950 . S
C1414 C1412 1.391 . S
C1414 C1415 1.400 . S
C1415 C1414 1.400 . S
C1415 C1416 1.398 . S
C1415 C1421 1.491 . S
C1416 H1407 0.950 . S
C1416 C1415 1.398 . S
C1416 C1417 1.391 . S
C1417 H1405 0.950 . S
C1417 C1413 1.393 . S
C1417 C1416 1.391 . S
C1418 H1408 0.950 . S
C1418 C1419 1.386 . S
C1418 C1420 1.391 . S
C1419 C1418 1.386 . S
C1419 C1423 1.393 . S
C1420 H1409 0.950 . S
C1420 C1418 1.391 . S
C1420 C1421 1.400 . S
C1421 C1415 1.491 . S
C1421 C1420 1.400 . S
C1421 C1422 1.398 . S
C1422 H1410 0.950 . S
C1422 C1421 1.398 . S
C1422 C1423 1.391 . S
C1423 H1411 0.950 . S
C1423 C1419 1.393 . S
C1423 C1422 1.391 . S
H1424 C1432 0.950 . S
H1425 C1437 0.950 . S
H1426 C1434 0.950 . S
H1427 C1436 0.950 . S
H1428 C1438 0.950 . S
H1429 C1440 0.950 . S
H1430 C1442 0.950 . S
H1431 C1443 0.950 . S
C1432 H1424 0.950 . S
C1432 C1433 1.386 . S
C1432 C1434 1.391 . S
C1433 C1432 1.386 . S
C1433 C1437 1.393 . S
C1434 H1426 0.950 . S
C1434 C1432 1.391 . S
C1434 C1435 1.400 . S
C1435 C1434 1.400 . S
C1435 C1436 1.398 . S
C1435 C1441 1.491 . S
C1436 H1427 0.950 . S
C1436 C1435 1.398 . S
C1436 C1437 1.391 . S
C1437 H1425 0.950 . S
C1437 C1433 1.393 . S
C1437 C1436 1.391 . S
C1438 H1428 0.950 . S
C1438 C1439 1.386 . S
C1438 C1440 1.391 . S
C1439 C1438 1.386 . S
C1439 C1443 1.393 . S
C1440 H1429 0.950 . S
C1440 C1438 1.391 . S
C1440 C1441 1.400 . S
C1441 C1435 1.491 . S
C1441 C1440 1.400 . S
C1441 C1442 1.398 . S
C1442 H1430 0.950 . S
C1442 C1441 1.398 . S
C1442 C1443 1.391 . S
C1443 H1431 0.950 . S
C1443 C1439 1.393 . S
C1443 C1442 1.391 . S
C499 C195 1.330 . S
C493 C9 1.313 . S
C519 C173 1.496 . S
C513 C22 1.513 . S
C539 C170 0.549 . S
C533 C49 0.565 . S
C553 C61 1.521 . S
C559 C182 1.505 . S
C573 C81 1.513 . S
C579 C165 1.492 . S
C599 C187 0.570 . S
C593 C108 0.543 . S
C613 C122 1.544 . S
C619 C192 1.498 . S
C633 C148 1.329 . S
C639 C188 1.338 . S
C659 C246 2.339 . S
C653 C18 2.359 . S
C673 C39 1.258 . S
C679 C296 1.311 . S
C699 C219 2.336 . S
C693 C58 2.361 . S
C719 C295 0.595 . S
C713 C69 0.584 . S
C733 C89 0.596 . S
C739 C224 0.582 . S
C759 C290 1.475 . S
C753 C102 1.519 . S
C773 C139 1.267 . S
C779 C249 1.320 . S
C793 C142 1.544 . S
C799 C281 1.506 . S
C813 C1 1.544 . S
C819 C273 1.502 . S
C833 C98 1.285 . S
C839 C303 1.331 . S
C859 C227 2.346 . S
C853 C119 2.370 . S
C879 C278 0.605 . S
C873 C128 0.602 . S
C893 C159 2.368 . S
C899 C236 2.356 . S
C913 C41 1.527 . S
C919 C300 1.481 . S
C939 C242 1.317 . S
C933 C78 1.254 . S
C953 C28 0.616 . S
C959 C241 0.591 . S
C973 C149 1.329 . S
C979 C357 1.340 . S
C993 C82 1.529 . S
C999 C335 1.477 . S
C1019 C332 0.555 . S
C1013 C109 0.557 . S
C1039 C344 1.480 . S
C1033 C121 1.531 . S
C1053 C21 1.526 . S
C1059 C327 1.478 . S
C1079 C349 0.571 . S
C1073 C48 0.559 . S
C1093 C62 1.526 . S
C1099 C354 1.513 . S
C1113 C8 1.313 . S
C1119 C350 1.329 . S
C1133 C158 2.356 . S
C1139 C408 2.347 . S
C1159 C458 1.318 . S
C1153 C99 1.271 . S
C1173 C118 2.351 . S
C1179 C381 2.324 . S
C1193 C129 0.591 . S
C1199 C457 0.594 . S
C1219 C386 0.585 . S
C1213 C29 0.624 . S
C1233 C42 1.526 . S
C1239 C452 1.486 . S
C1259 C411 1.319 . S
C1253 C79 1.266 . S
C1279 C443 1.503 . S
C1273 C2 1.542 . S
C1299 C435 1.490 . S
C1293 C141 1.539 . S
C1313 C38 1.271 . S
C1319 C465 1.324 . S
C1333 C59 2.361 . S
C1339 C389 2.340 . S
C1359 C440 0.592 . S
C1353 C68 0.635 . S
C1373 C19 2.372 . S
C1379 C398 2.350 . S
C1393 C101 1.538 . S
C1399 C462 1.502 . S
C1419 C404 1.336 . S
C1413 C138 1.289 . S
C1439 C403 0.596 . S
C1433 C88 0.598 . S
