# Generated by pormake.
# Topology pth, (4,4)-cn, num edge types: 1
# Building blocks:
#     Node 0, Type 0, BuildingBlock: NAHDIM_clean_sbu_0, # of connection points: 4
#     Node 1, Type 0, BuildingBlock: NAHDIM_clean_sbu_0, # of connection points: 4
#     Node 2, Type 0, BuildingBlock: NAHDIM_clean_sbu_0, # of connection points: 4
#     Node 3, Type 1, BuildingBlock: MUDLON_clean_sbu_0, # of connection points: 4
#     Node 4, Type 1, BuildingBlock: MUDLON_clean_sbu_0, # of connection points: 4
#     Node 5, Type 1, BuildingBlock: MUDLON_clean_sbu_0, # of connection points: 4
#     Edge 6, Type (0, 1), BuildingBlock: XUDNAN_clean_linker_2, # of connection points: 2
#     Edge 7, Type (0, 1), BuildingBlock: XUDNAN_clean_linker_2, # of connection points: 2
#     Edge 8, Type (0, 1), BuildingBlock: XUDNAN_clean_linker_2, # of connection points: 2
#     Edge 9, Type (0, 1), BuildingBlock: XUDNAN_clean_linker_2, # of connection points: 2
#     Edge 10, Type (0, 1), BuildingBlock: XUDNAN_clean_linker_2, # of connection points: 2
#     Edge 11, Type (0, 1), BuildingBlock: XUDNAN_clean_linker_2, # of connection points: 2
#     Edge 12, Type (0, 1), BuildingBlock: XUDNAN_clean_linker_2, # of connection points: 2
#     Edge 13, Type (0, 1), BuildingBlock: XUDNAN_clean_linker_2, # of connection points: 2
#     Edge 14, Type (0, 1), BuildingBlock: XUDNAN_clean_linker_2, # of connection points: 2
#     Edge 15, Type (0, 1), BuildingBlock: XUDNAN_clean_linker_2, # of connection points: 2
#     Edge 16, Type (0, 1), BuildingBlock: XUDNAN_clean_linker_2, # of connection points: 2
#     Edge 17, Type (0, 1), BuildingBlock: XUDNAN_clean_linker_2, # of connection points: 2
# Relax obj value: 0.076
# Max RMSD: 0.190
# Mean RMSD: 0.122
data_MOF--net-pth--node1-NAHDIM_clean_sbu_0--node2-MUDLON_clean_sbu_0--edge1-XUDNAN_clean_linker_2
_symmetry_space_group_name_H-M    P1
_symmetry_Int_Tables_number       1
_symmetry_cell_setting            triclinic
loop_
_symmetry_equiv_pos_as_xyz
'x, y, z'
_cell_length_a     22.61295
_cell_length_b     22.837424
_cell_length_c     59.196234
_cell_angle_alpha  92.207163
_cell_angle_beta   89.929724
_cell_angle_gamma 120.60466
loop_
_atom_site_label
_atom_site_type_symbol
_atom_site_fract_x
_atom_site_fract_y
_atom_site_fract_z
_atom_type_partial_charge
C0 C 0.05658 1.00234 0.11414 0.0
O1 O 1.00161 0.00647 0.11817 0.0
O2 O 0.05229 0.14966 0.10168 0.0
Zn3 Zn 0.06282 0.08655 0.07928 0.0
O4 O 0.96856 0.02162 0.06541 0.0
C5 C 0.18389 0.1931 0.05532 0.0
O6 O 0.19806 0.23163 0.0739 0.0
O7 O 0.09317 0.03272 0.09738 0.0
C8 C 0.95274 0.02177 0.04481 0.0
O9 O 0.99954 0.06534 0.03141 0.0
C10 C 0.04673 0.20103 0.09781 0.0
O11 O 0.05184 0.22109 0.07703 0.0
O12 O 0.13109 0.13358 0.05445 0.0
C13 C 0.13119 0.21935 0.38763 0.0
O14 O 0.16006 0.18255 0.38386 0.0
O15 O 0.02951 0.03934 0.40306 0.0
Zn16 Zn 0.06162 0.12441 0.42353 0.0
O17 O 0.98363 0.11323 0.44347 0.0
C18 C 0.20211 0.18712 0.44428 0.0
O19 O 0.21921 0.23838 0.43124 0.0
O20 O 0.08937 0.20477 0.40377 0.0
C21 C 0.94263 0.05669 0.45211 0.0
O22 O 0.95085 0.00442 0.44782 0.0
C23 C 0.0693 0.01589 0.39957 0.0
O24 O 0.13034 0.04708 0.40947 0.0
O25 O 0.14041 0.13742 0.44379 0.0
C26 C 0.1657 0.06421 0.71701 0.0
O27 O 0.14906 0.10494 0.70742 0.0
O28 O 1.00676 0.04989 0.7183 0.0
Zn29 Zn 0.05731 0.04728 0.74612 0.0
O30 O 0.09838 0.13538 0.7653 0.0
C31 C 0.96165 0.96549 0.78159 0.0
O32 O 0.96981 0.02361 0.78964 0.0
O33 O 0.13433 0.03427 0.73464 0.0
C34 C 0.12402 0.13875 0.78477 0.0
O35 O 0.12221 0.08442 0.79222 0.0
C36 C 0.97701 0.08365 0.71528 0.0
O37 O 0.97548 0.1225 0.73195 0.0
O38 O 0.99286 0.96456 0.7638 0.0
Mg39 Mg 0.06984 0.60097 0.25278 0.0
C40 C 0.09665 0.53442 0.28878 0.0
O41 O 0.03324 0.52089 0.29133 0.0
C42 C 0.07683 0.70561 0.22546 0.0
O43 O 0.01425 0.67161 0.23328 0.0
C44 C 0.02578 0.51586 0.20957 0.0
O45 O 0.06956 0.5761 0.20217 0.0
O46 O 0.01 0.51098 0.23036 0.0
O47 O 0.13147 0.57247 0.27289 0.0
O48 O 0.01726 0.63159 0.27736 0.0
C49 C 0.06008 0.67592 0.29171 0.0
O50 O 0.12487 0.69282 0.29045 0.0
O51 O 0.11986 0.68841 0.23135 0.0
Mg52 Mg 0.55275 0.03804 0.57251 0.0
C53 C 0.4735 0.07188 0.54326 0.0
O54 O 0.4299 0.01438 0.55245 0.0
C55 C 0.67425 0.03181 0.58926 0.0
O56 O 0.63432 0.96917 0.58126 0.0
C57 C 0.48486 0.00618 0.6189 0.0
O58 O 0.52042 0.9759 0.62163 0.0
O59 O 0.48892 0.03454 0.60045 0.0
O60 O 0.53707 0.09905 0.54839 0.0
O61 O 0.50806 0.935 0.55741 0.0
C62 C 0.52839 0.90755 0.54254 0.0
O63 O 0.48862 0.84206 0.53766 0.0
O64 O 0.65506 0.07497 0.58723 0.0
Mg65 Mg 0.53907 0.59303 0.91575 0.0
C66 C 0.39405 0.50675 0.89661 0.0
O67 O 0.38312 0.48489 0.91725 0.0
C68 C 0.55161 0.67735 0.958 0.0
O69 O 0.50871 0.61679 0.96541 0.0
C70 C 0.48698 0.44945 0.93292 0.0
O71 O 0.48053 0.43175 0.91128 0.0
O72 O 0.51511 0.51221 0.93887 0.0
O73 O 0.45265 0.55671 0.89194 0.0
O74 O 0.6304 0.62772 0.89561 0.0
C75 C 0.62945 0.6042 0.87571 0.0
O76 O 0.57321 0.54973 0.86788 0.0
O77 O 0.56586 0.68289 0.93712 0.0
H78 H 0.06189 0.32853 0.09908 0.0
H79 H 0.99732 0.15163 0.13926 0.0
H80 H 0.97186 0.20837 0.1709 0.0
H81 H 0.14859 0.45021 0.14377 0.0
H82 H 0.12482 0.50972 0.13435 0.0
H83 H 0.13137 0.45244 0.11418 0.0
H84 H 1.0062 0.40787 0.1004 0.0
H85 H 0.99912 0.46471 0.12072 0.0
H86 H 0.93786 0.37461 0.1205 0.0
H87 H 0.95809 0.28626 0.19887 0.0
H88 H 0.96829 0.38341 0.22209 0.0
H89 H 0.04465 0.51041 0.16407 0.0
C90 C 0.04158 0.30143 0.11443 0.0
C91 C 0.03124 0.2355 0.11663 0.0
C92 C 1.00573 0.20221 0.13717 0.0
C93 C 0.99062 0.23381 0.15519 0.0
C94 C 1.00151 0.29889 0.15251 0.0
C95 C 0.02696 0.33258 0.13271 0.0
C96 C 0.03921 0.40425 0.13483 0.0
C97 C 0.11552 0.45726 0.1316 0.0
C98 C 0.99282 0.41337 0.11812 0.0
C99 C 0.01796 0.40601 0.15902 0.0
C100 C 0.99518 0.34436 0.16881 0.0
C101 C 0.97538 0.33466 0.19133 0.0
C102 C 0.98104 0.39007 0.20438 0.0
C103 C 1.00715 0.45453 0.19493 0.0
C104 C 0.02411 0.46173 0.17179 0.0
H105 H 0.83905 0.93985 0.46956 0.0
H106 H 0.91808 0.15714 0.4678 0.0
H107 H 0.82336 0.14433 0.49205 0.0
H108 H 0.66199 0.88814 0.46615 0.0
H109 H 0.63526 0.81901 0.48488 0.0
H110 H 0.71096 0.84619 0.4683 0.0
H111 H 0.78296 0.86517 0.50481 0.0
H112 H 0.70737 0.83799 0.52149 0.0
H113 H 0.78301 0.91993 0.52759 0.0
H114 H 0.71754 0.10643 0.51629 0.0
H115 H 0.60861 0.04619 0.53679 0.0
H116 H 0.59959 0.85444 0.52202 0.0
C117 C 0.83682 0.98492 0.47435 0.0
C118 C 0.88623 0.04956 0.4668 0.0
C119 C 0.88089 0.10705 0.47336 0.0
C120 C 0.82735 0.10031 0.48718 0.0
C121 C 0.77943 0.03575 0.49429 0.0
C122 C 0.78367 0.97907 0.48802 0.0
C123 C 0.7247 0.91505 0.49727 0.0
C124 C 0.68063 0.86412 0.478 0.0
C125 C 0.75111 0.88265 0.51377 0.0
C126 C 0.6861 0.94431 0.50953 0.0
C127 C 0.71865 0.01405 0.50785 0.0
C128 C 0.69186 0.05182 0.51776 0.0
C129 C 0.62999 0.01723 0.52951 0.0
C130 C 0.59542 0.94566 0.53116 0.0
C131 C 0.62445 0.9092 0.52105 0.0
H132 H 0.91131 0.95177 0.82445 0.0
H133 H 0.90957 0.83454 0.76472 0.0
H134 H 0.83101 0.72796 0.78345 0.0
H135 H 0.90726 0.83403 0.86563 0.0
H136 H 0.85278 0.84822 0.88453 0.0
H137 H 0.91135 0.91502 0.86679 0.0
H138 H 0.81017 0.92366 0.85018 0.0
H139 H 0.75151 0.85722 0.86794 0.0
H140 H 0.73677 0.84841 0.83776 0.0
H141 H 0.74439 0.63449 0.80757 0.0
H142 H 0.65972 0.5621 0.83559 0.0
H143 H 0.72384 0.74036 0.88021 0.0
C144 C 0.89476 0.90369 0.81535 0.0
C145 C 0.91641 0.90151 0.79308 0.0
C146 C 0.89379 0.83749 0.78181 0.0
C147 C 0.8492 0.77666 0.79231 0.0
C148 C 0.82853 0.78063 0.81423 0.0
C149 C 0.85109 0.84253 0.82569 0.0
C150 C 0.82017 0.83298 0.84893 0.0
C151 C 0.87624 0.85911 0.86757 0.0
C152 C 0.77709 0.8676 0.85133 0.0
C153 C 0.7753 0.75614 0.84854 0.0
C154 C 0.78084 0.72676 0.82841 0.0
C155 C 0.74051 0.65683 0.82356 0.0
C156 C 0.69258 0.6161 0.83955 0.0
C157 C 0.68584 0.64535 0.86021 0.0
C158 C 0.72882 0.71614 0.86483 0.0
H159 H 0.98457 0.92824 0.14984 0.0
H160 H 0.17099 0.98884 0.11255 0.0
H161 H 0.20106 0.92416 0.13816 0.0
H162 H 0.0549 0.93697 0.20528 0.0
H163 H 0.97753 0.86354 0.21446 0.0
H164 H 0.97258 0.91629 0.19358 0.0
H165 H 0.90702 0.81085 0.16601 0.0
H166 H 0.91146 0.75779 0.18683 0.0
H167 H 0.94442 0.75929 0.15899 0.0
H168 H 0.20862 0.84943 0.16814 0.0
H169 H 0.19004 0.76913 0.19819 0.0
H170 H 0.99872 0.7601 0.21482 0.0
C171 C 0.03193 0.92831 0.14704 0.0
C172 C 0.07546 0.96375 0.12919 0.0
C173 C 0.13678 0.96204 0.12612 0.0
C174 C 0.15438 0.9256 0.14062 0.0
C175 C 0.11014 0.89124 0.1581 0.0
C176 C 0.05009 0.89232 0.16125 0.0
C177 C 0.01001 0.84995 0.18075 0.0
C178 C 1.0034 0.89436 0.19963 0.0
C179 C 0.93906 0.79098 0.17265 0.0
C180 C 0.05645 0.82426 0.18805 0.0
C181 C 0.11426 0.84872 0.17497 0.0
C182 C 0.16359 0.83025 0.17852 0.0
C183 C 0.1528 0.78485 0.19565 0.0
C184 C 0.09298 0.75833 0.20885 0.0
C185 C 0.04502 0.77931 0.20506 0.0
H186 H 0.18245 0.09021 0.47407 0.0
H187 H 0.34122 0.27862 0.44661 0.0
H188 H 0.42914 0.27152 0.46922 0.0
H189 H 0.25627 0.12175 0.53055 0.0
H190 H 0.23013 0.03372 0.53384 0.0
H191 H 0.18034 0.05528 0.51592 0.0
H192 H 0.19301 0.98619 0.48242 0.0
H193 H 0.24302 0.96462 0.5002 0.0
H194 H 0.27763 0.00574 0.47406 0.0
H195 H 0.50047 0.24094 0.49449 0.0
H196 H 0.54713 0.19072 0.52043 0.0
H197 H 0.34008 0.02357 0.53075 0.0
C198 C 0.23562 0.13031 0.47286 0.0
C199 C 0.25484 0.18501 0.45855 0.0
C200 C 0.32512 0.23627 0.4575 0.0
C201 C 0.37549 0.23265 0.47027 0.0
C202 C 0.35472 0.17761 0.48407 0.0
C203 C 0.28632 0.12759 0.48548 0.0
C204 C 0.27705 0.07332 0.50133 0.0
C205 C 0.23338 0.07091 0.52161 0.0
C206 C 0.24586 1.00335 0.48874 0.0
C207 C 0.35095 0.10009 0.50848 0.0
C208 C 0.39522 0.16034 0.49844 0.0
C209 C 0.46613 0.19387 0.50249 0.0
C210 C 0.49221 0.16499 0.51722 0.0
C211 C 0.44739 0.10325 0.52764 0.0
C212 C 0.37595 0.07082 0.52311 0.0
H213 H 0.15265 0.15497 0.83021 0.0
H214 H 0.17145 0.2682 0.77079 0.0
H215 H 0.23475 0.37615 0.79374 0.0
H216 H 0.1292 0.26776 0.87065 0.0
H217 H 0.17765 0.25752 0.89272 0.0
H218 H 0.13017 0.1895 0.87186 0.0
H219 H 0.24127 0.18843 0.86184 0.0
H220 H 0.28891 0.25626 0.88265 0.0
H221 H 0.31623 0.26608 0.85373 0.0
H222 H 0.30784 0.47192 0.82247 0.0
H223 H 0.37832 0.54666 0.85498 0.0
H224 H 0.30403 0.37005 0.89591 0.0
C225 C 0.1694 0.20243 0.82206 0.0
C226 C 0.15734 0.20324 0.7987 0.0
C227 C 0.17992 0.26639 0.78868 0.0
C228 C 0.21592 0.32794 0.80159 0.0
C229 C 0.22776 0.32535 0.82455 0.0
C230 C 0.20432 0.26409 0.83474 0.0
C231 C 0.2252 0.27502 0.85953 0.0
C232 C 0.16176 0.24572 0.87457 0.0
C233 C 0.27061 0.24467 0.86473 0.0
C234 C 0.26576 0.35203 0.86159 0.0
C235 C 0.26679 0.3803 0.84125 0.0
C236 C 0.3061 0.45041 0.8386 0.0
C237 C 0.34595 0.49247 0.85712 0.0
C238 C 0.34547 0.46432 0.87806 0.0
C239 C 0.30382 0.39332 0.88033 0.0
H240 H 0.8959 0.13647 0.70344 0.0
H241 H 0.98336 0.01793 0.67665 0.0
H242 H 0.92563 1.00395 0.63995 0.0
H243 H 0.73352 0.03697 0.67705 0.0
H244 H 0.72159 0.10721 0.67122 0.0
H245 H 0.77518 0.1139 0.69478 0.0
H246 H 0.87632 0.22349 0.67899 0.0
H247 H 0.82298 0.21688 0.65528 0.0
H248 H 0.90399 0.2215 0.65054 0.0
H249 H 0.85016 0.99242 0.60762 0.0
H250 H 0.75994 0.98322 0.58174 0.0
H251 H 0.72302 0.11186 0.62831 0.0
C252 C 0.90373 0.10845 0.68975 0.0
C253 C 0.94432 0.07837 0.69298 0.0
C254 C 0.95253 0.04141 0.67468 0.0
C255 C 0.92021 0.03345 0.65368 0.0
C256 C 0.88008 0.06307 0.65112 0.0
C257 C 0.87175 0.09998 0.66859 0.0
C258 C 0.82216 0.12274 0.6617 0.0
C259 C 0.7594 0.09343 0.6771 0.0
C260 C 0.85856 0.2008 0.66162 0.0
C261 C 0.80256 0.0912 0.63787 0.0
C262 C 0.83714 0.05752 0.63208 0.0
C263 C 0.82371 0.01965 0.61176 0.0
C264 C 0.77245 0.01469 0.59718 0.0
C265 C 0.73563 0.04781 0.60289 0.0
C266 C 0.752 0.08783 0.62325 0.0
H267 H 0.90799 0.99339 1.0005 0.0
H268 H 0.83903 0.9381 0.069 0.0
H269 H 0.7232 0.85325 0.05411 0.0
H270 H 0.74614 0.97025 0.97705 0.0
H271 H 0.75505 0.9347 0.95044 0.0
H272 H 0.83046 0.9961 0.96654 0.0
H273 H 0.87469 0.91132 0.96633 0.0
H274 H 0.79982 0.85008 0.95011 0.0
H275 H 0.82025 0.82724 0.97658 0.0
H276 H 0.61785 0.76806 0.03171 0.0
H277 H 0.53355 0.68497 1.00354 0.0
H278 H 0.67104 0.79606 0.94966 0.0
C279 C 0.86827 0.96426 0.01241 0.0
C280 C 0.88254 0.9727 0.03594 0.0
C281 C 0.82935 0.93265 0.05091 0.0
C282 C 0.76325 0.88457 0.04262 0.0
C283 C 0.75104 0.87718 0.01931 0.0
C284 C 0.80213 0.91582 1.00441 0.0
C285 C 0.77726 0.89424 0.9801 0.0
C286 C 0.77722 0.95229 0.96781 0.0
C287 C 0.82056 0.86922 0.96756 0.0
C288 C 0.70472 0.83635 0.98365 0.0
C289 C 0.69028 0.82789 1.00638 0.0
C290 C 0.62823 0.77474 0.01385 0.0
C291 C 0.58058 0.72782 0.99771 0.0
C292 C 0.59533 0.73415 0.97436 0.0
C293 C 0.65751 0.79039 0.96732 0.0
H294 H 0.14366 0.95487 0.38955 0.0
H295 H 0.94971 0.94185 0.37403 0.0
H296 H 0.92038 0.84567 0.34662 0.0
H297 H 0.1803 0.92601 0.33429 0.0
H298 H 0.21855 0.87699 0.34221 0.0
H299 H 0.22056 0.94016 0.36181 0.0
H300 H 0.16138 0.8488 0.39177 0.0
H301 H 0.1591 0.7852 0.37221 0.0
H302 H 0.08085 0.77227 0.38473 0.0
H303 H 0.91658 0.75442 0.31885 0.0
H304 H 0.94052 0.68083 0.29314 0.0
H305 H 0.13685 0.7563 0.32767 0.0
C306 C 0.09458 0.93146 0.38062 0.0
C307 C 0.04897 0.95594 0.38398 0.0
C308 C 0.98546 0.92388 0.37179 0.0
C309 C 0.9683 0.86911 0.35622 0.0
C310 C 0.015 0.84679 0.35316 0.0
C311 C 0.07676 0.87705 0.36513 0.0
C312 C 0.1199 0.84646 0.3581 0.0
C313 C 0.18887 0.90063 0.34853 0.0
C314 C 0.13093 0.81108 0.37788 0.0
C315 C 0.07369 0.79528 0.33988 0.0
C316 C 0.01298 0.79533 0.33736 0.0
C317 C 0.96373 0.75364 0.32086 0.0
C318 C 0.97762 0.71188 0.30637 0.0
C319 C 0.0405 0.71278 0.3084 0.0
C320 C 0.08823 0.75426 0.32566 0.0
H321 H 0.22843 0.10717 0.67648 0.0
H322 H 0.2187 0.98925 0.73364 0.0
H323 H 0.30123 0.96301 0.71518 0.0
H324 H 0.23452 0.99627 0.63392 0.0
H325 H 0.2928 0.06398 0.6164 0.0
H326 H 0.23546 0.07573 0.63458 0.0
H327 H 0.33907 0.18369 0.65338 0.0
H328 H 0.39673 0.17239 0.63519 0.0
H329 H 0.40913 0.17813 0.66545 0.0
H330 H 0.3837 0.94807 0.68984 0.0
H331 H 0.45824 0.94512 0.65974 0.0
H332 H 0.41133 0.07143 0.61923 0.0
C333 C 0.24399 0.07629 0.68525 0.0
C334 C 0.21725 0.05048 0.70656 0.0
C335 C 0.23859 0.00972 0.71732 0.0
C336 C 0.28546 0.99456 0.70697 0.0
C337 C 0.31035 0.02041 0.68586 0.0
C338 C 0.29031 0.06042 0.67514 0.0
C339 C 0.32307 0.08057 0.65228 0.0
C340 C 0.26818 0.05244 0.63317 0.0
C341 C 0.36978 0.15831 0.65155 0.0
C342 C 0.36454 0.04544 0.65173 0.0
C343 C 0.35685 0.0112 0.67126 0.0
C344 C 0.39014 0.97479 0.67449 0.0
C345 C 0.43236 0.97339 0.65729 0.0
C346 C 0.44064 0.00794 0.6371 0.0
C347 C 0.40613 0.04438 0.63442 0.0
H348 H 0.29114 0.3229 0.04876 0.0
H349 H 0.17812 0.12017 0.01673 0.0
H350 H 0.25118 0.16159 0.9833 0.0
H351 H 0.30762 0.4118 0.99927 0.0
H352 H 0.39271 0.48161 1.00641 0.0
H353 H 0.33496 0.43477 0.02849 0.0
H354 H 0.42579 0.40967 0.04475 0.0
H355 H 0.48364 0.45615 0.02259 0.0
H356 H 0.46015 0.36918 0.02673 0.0
H357 H 0.33228 0.2263 0.9524 0.0
H358 H 0.41129 0.31063 0.92582 0.0
H359 H 0.47166 0.47103 0.97797 0.0
C360 C 0.28223 0.28701 0.03484 0.0
C361 C 0.22899 0.21815 0.03546 0.0
C362 C 0.21856 0.17313 0.0167 0.0
C363 C 0.26002 0.1961 0.99765 0.0
C364 C 0.31185 0.26427 0.99755 0.0
C365 C 0.32297 0.30915 0.01562 0.0
C366 C 0.37948 0.3807 0.01069 0.0
C367 C 0.35203 0.43011 0.01124 0.0
C368 C 0.4409 0.40535 0.02717 0.0
C369 C 0.39761 0.3692 0.98691 0.0
C370 C 0.35849 0.30159 0.97971 0.0
C371 C 0.36371 0.27928 0.95794 0.0
C372 C 0.40892 0.32759 0.94296 0.0
C373 C 0.44817 0.39749 0.94979 0.0
C374 C 0.44321 0.41796 0.97225 0.0
H375 H 0.06164 0.28829 0.38543 0.0
H376 H 0.22979 0.27519 0.35531 0.0
H377 H 0.24724 0.36329 0.32871 0.0
H378 H 0.99129 0.30175 0.33465 0.0
H379 H 0.96607 0.35985 0.34616 0.0
H380 H 0.9721 0.30151 0.36423 0.0
H381 H 0.05679 0.40251 0.39098 0.0
H382 H 0.05108 0.46127 0.37292 0.0
H383 H 0.13372 0.47176 0.3797 0.0
H384 H 0.24136 0.44881 0.30373 0.0
H385 H 0.20831 0.51837 0.28171 0.0
H386 H 0.04287 0.47215 0.32807 0.0
C387 C 0.10295 0.30472 0.37352 0.0
C388 C 0.14463 0.2751 0.37257 0.0
C389 C 0.1973 0.29727 0.35642 0.0
C390 C 0.20779 0.34749 0.34128 0.0
C391 C 0.16517 0.37505 0.3425 0.0
C392 C 0.11373 0.35426 0.35822 0.0
C393 C 0.07166 0.38794 0.35507 0.0
C394 C 0.99582 0.33458 0.3497 0.0
C395 C 0.07877 0.43359 0.37591 0.0
C396 C 0.10646 0.42989 0.33485 0.0
C397 C 0.16094 0.42276 0.32797 0.0
C398 C 0.1991 0.45513 0.30909 0.0
C399 C 0.18015 0.49469 0.29672 0.0
C400 C 0.12305 0.50066 0.30315 0.0
C401 C 0.08683 0.46869 0.3227 0.0
loop_
_geom_bond_atom_site_label_1
_geom_bond_atom_site_label_2
_geom_bond_distance
_geom_bond_site_symmetry_2
_ccdc_geom_bond_type
C0 O1 1.160 . S
C0 O7 1.185 1_565 S
O1 C0 1.160 . S
O2 Zn3 1.899 . S
O2 C10 1.284 . S
Zn3 O2 1.899 . S
Zn3 O4 2.032 1_445 S
Zn3 O7 2.086 . S
Zn3 O12 1.977 . S
O4 Zn3 2.032 1_665 S
O4 C8 1.278 1_565 S
C5 O6 1.203 . S
C5 O12 1.267 . S
O6 C5 1.203 . S
O7 C0 1.185 1_545 S
O7 Zn3 2.086 . S
C8 O4 1.278 1_545 S
C8 O9 1.211 . S
O9 C8 1.211 . S
C10 O2 1.284 . S
C10 O11 1.273 1_455 S
O11 C10 1.273 1_655 S
O12 Zn3 1.977 . S
O12 C5 1.267 . S
C13 O14 1.160 . S
C13 O20 1.185 . S
O14 C13 1.160 . S
O15 Zn16 1.899 . S
O15 C23 1.284 1_545 S
Zn16 O15 1.899 . S
Zn16 O17 2.032 . S
Zn16 O20 2.086 . S
Zn16 O25 1.977 . S
O17 Zn16 2.032 . S
O17 C21 1.278 1_455 S
C18 O19 1.203 . S
C18 O25 1.267 . S
O19 C18 1.203 . S
O20 C13 1.185 . S
O20 Zn16 2.086 . S
C21 O17 1.278 1_655 S
C21 O22 1.211 1_655 S
O22 C21 1.211 1_455 S
C23 O15 1.284 1_565 S
C23 O24 1.273 . S
O24 C23 1.273 . S
O25 Zn16 1.977 . S
O25 C18 1.267 . S
C26 O27 1.160 . S
C26 O33 1.185 1_545 S
O27 C26 1.160 . S
O28 Zn29 1.899 1_655 S
O28 C36 1.284 . S
Zn29 O28 1.899 1_455 S
Zn29 O30 2.032 . S
Zn29 O33 2.086 1_545 S
Zn29 O38 1.977 1_445 S
O30 Zn29 2.032 . S
O30 C34 1.278 . S
C31 O32 1.203 . S
C31 O38 1.267 . S
O32 C31 1.203 . S
O33 C26 1.185 1_565 S
O33 Zn29 2.086 1_565 S
C34 O30 1.278 . S
C34 O35 1.211 . S
O35 C34 1.211 . S
C36 O28 1.284 . S
C36 O37 1.273 . S
O37 C36 1.273 . S
O38 Zn29 1.977 1_665 S
O38 C31 1.267 . S
Mg39 O46 2.141 . S
Mg39 O47 2.048 . S
Mg39 O48 2.048 . S
Mg39 O51 2.141 . S
C40 O41 1.313 1_455 S
C40 O47 1.195 . S
O41 C40 1.313 1_655 S
C42 O43 1.245 1_455 S
C42 O51 1.289 . S
O43 C42 1.245 1_655 S
C44 O45 1.245 1_455 S
C44 O46 1.289 . S
O45 C44 1.245 1_655 S
O46 Mg39 2.141 . S
O46 C44 1.289 . S
O47 Mg39 2.048 . S
O47 C40 1.195 . S
O48 Mg39 2.048 . S
O48 C49 1.195 . S
C49 O48 1.195 . S
C49 O50 1.313 1_455 S
O50 C49 1.313 1_655 S
O51 Mg39 2.141 . S
O51 C42 1.289 . S
Mg52 O59 2.141 . S
Mg52 O60 2.048 . S
Mg52 O61 2.048 . S
Mg52 O64 2.141 . S
C53 O54 1.313 1_545 S
C53 O60 1.195 . S
O54 C53 1.313 1_565 S
C55 O56 1.245 1_545 S
C55 O64 1.289 . S
O56 C55 1.245 1_565 S
C57 O58 1.245 1_545 S
C57 O59 1.289 . S
O58 C57 1.245 1_565 S
O59 Mg52 2.141 . S
O59 C57 1.289 . S
O60 Mg52 2.048 . S
O60 C53 1.195 . S
O61 Mg52 2.048 . S
O61 C62 1.195 . S
C62 O61 1.195 . S
C62 O63 1.313 1_545 S
O63 C62 1.313 1_565 S
O64 Mg52 2.141 . S
O64 C55 1.289 . S
Mg65 O72 2.141 . S
Mg65 O73 2.048 . S
Mg65 O74 2.048 . S
Mg65 O77 2.141 . S
C66 O67 1.313 . S
C66 O73 1.195 . S
O67 C66 1.313 . S
C68 O69 1.245 . S
C68 O77 1.289 . S
O69 C68 1.245 . S
C70 O71 1.245 . S
C70 O72 1.289 . S
O71 C70 1.245 . S
O72 Mg65 2.141 . S
O72 C70 1.289 . S
O73 Mg65 2.048 . S
O73 C66 1.195 . S
O74 Mg65 2.048 . S
O74 C75 1.195 . S
C75 O74 1.195 . S
C75 O76 1.313 . S
O76 C75 1.313 . S
O77 Mg65 2.141 . S
O77 C68 1.289 . S
H78 C90 0.930 1_655 S
H79 C92 0.930 . S
H80 C93 0.930 . S
H81 C97 0.959 . S
H82 C97 0.959 . S
H83 C97 0.961 . S
H84 C98 0.960 . S
H85 C98 0.961 . S
H86 C98 0.959 . S
H87 C101 0.929 . S
H88 C102 0.931 . S
H89 C104 0.930 . S
C90 H78 0.930 1_455 S
C90 C91 1.399 . S
C90 C95 1.399 . S
C91 C90 1.399 . S
C91 C92 1.376 . S
C92 H79 0.930 . S
C92 C91 1.376 . S
C92 C93 1.388 . S
C93 H80 0.930 . S
C93 C92 1.388 . S
C93 C94 1.390 . S
C94 C93 1.390 . S
C94 C95 1.394 . S
C94 C100 1.465 . S
C95 C90 1.399 . S
C95 C94 1.394 . S
C95 C96 1.516 1_455 S
C96 C95 1.516 1_655 S
C96 C97 1.502 1_655 S
C96 C98 1.561 . S
C96 C99 1.526 1_655 S
C97 H81 0.959 . S
C97 H82 0.959 . S
C97 H83 0.961 . S
C97 C96 1.502 1_455 S
C98 H84 0.960 . S
C98 H85 0.961 . S
C98 H86 0.959 . S
C98 C96 1.561 . S
C99 C96 1.526 1_455 S
C99 C100 1.396 . S
C99 C104 1.390 . S
C100 C94 1.465 . S
C100 C99 1.396 . S
C100 C101 1.399 . S
C101 H87 0.929 . S
C101 C100 1.399 . S
C101 C102 1.385 . S
C102 H88 0.931 . S
C102 C101 1.385 . S
C102 C103 1.389 . S
C103 C102 1.389 . S
C103 C104 1.387 . S
C104 H89 0.930 . S
C104 C99 1.390 . S
C104 C103 1.387 . S
H105 C117 0.930 1_565 S
H106 C119 0.931 . S
H107 C120 0.930 . S
H108 C124 0.959 . S
H109 C124 0.959 . S
H110 C124 0.961 . S
H111 C125 0.960 . S
H112 C125 0.961 . S
H113 C125 0.959 . S
H114 C128 0.929 . S
H115 C129 0.931 . S
H116 C131 0.930 1_565 S
C117 H105 0.930 1_545 S
C117 C118 1.399 . S
C117 C122 1.399 . S
C118 C117 1.399 . S
C118 C119 1.376 . S
C119 H106 0.931 . S
C119 C118 1.376 . S
C119 C120 1.388 . S
C120 H107 0.930 . S
C120 C119 1.388 . S
C120 C121 1.390 . S
C121 C120 1.390 . S
C121 C122 1.394 . S
C121 C127 1.465 . S
C122 C117 1.399 . S
C122 C121 1.394 . S
C122 C123 1.516 1_545 S
C123 C122 1.516 1_565 S
C123 C124 1.502 . S
C123 C125 1.561 . S
C123 C126 1.526 1_565 S
C124 H108 0.959 . S
C124 H109 0.959 . S
C124 H110 0.961 . S
C124 C123 1.502 . S
C125 H111 0.960 . S
C125 H112 0.961 . S
C125 H113 0.959 . S
C125 C123 1.561 . S
C126 C123 1.526 1_545 S
C126 C127 1.396 . S
C126 C131 1.390 . S
C127 C121 1.465 . S
C127 C126 1.396 . S
C127 C128 1.399 . S
C128 H114 0.929 . S
C128 C127 1.399 . S
C128 C129 1.385 . S
C129 H115 0.931 . S
C129 C128 1.385 . S
C129 C130 1.389 . S
C130 C129 1.389 . S
C130 C131 1.387 . S
C131 H116 0.930 1_545 S
C131 C126 1.390 . S
C131 C130 1.387 . S
H132 C144 0.930 . S
H133 C146 0.930 . S
H134 C147 0.930 . S
H135 C151 0.959 . S
H136 C151 0.959 . S
H137 C151 0.961 . S
H138 C152 0.960 . S
H139 C152 0.961 . S
H140 C152 0.959 . S
H141 C155 0.929 . S
H142 C156 0.931 . S
H143 C158 0.930 . S
C144 H132 0.930 . S
C144 C145 1.399 . S
C144 C149 1.399 . S
C145 C144 1.399 . S
C145 C146 1.376 . S
C146 H133 0.930 . S
C146 C145 1.376 . S
C146 C147 1.388 . S
C147 H134 0.930 . S
C147 C146 1.388 . S
C147 C148 1.390 . S
C148 C147 1.390 . S
C148 C149 1.394 . S
C148 C154 1.465 . S
C149 C144 1.399 . S
C149 C148 1.394 . S
C149 C150 1.516 . S
C150 C149 1.516 . S
C150 C151 1.502 . S
C150 C152 1.561 . S
C150 C153 1.526 . S
C151 H135 0.959 . S
C151 H136 0.959 . S
C151 H137 0.961 . S
C151 C150 1.502 . S
C152 H138 0.960 . S
C152 H139 0.961 . S
C152 H140 0.959 . S
C152 C150 1.561 . S
C153 C150 1.526 . S
C153 C154 1.396 . S
C153 C158 1.390 . S
C154 C148 1.465 . S
C154 C153 1.396 . S
C154 C155 1.399 . S
C155 H141 0.929 . S
C155 C154 1.399 . S
C155 C156 1.385 . S
C156 H142 0.931 . S
C156 C155 1.385 . S
C156 C157 1.389 . S
C157 C156 1.389 . S
C157 C158 1.387 . S
C158 H143 0.930 . S
C158 C153 1.390 . S
C158 C157 1.387 . S
H159 C171 0.930 1_655 S
H160 C173 0.930 . S
H161 C174 0.930 . S
H162 C178 0.959 . S
H163 C178 0.959 . S
H164 C178 0.961 . S
H165 C179 0.960 . S
H166 C179 0.961 . S
H167 C179 0.959 . S
H168 C182 0.929 . S
H169 C183 0.931 . S
H170 C185 0.930 . S
C171 H159 0.930 1_455 S
C171 C172 1.399 . S
C171 C176 1.399 . S
C172 C171 1.399 . S
C172 C173 1.376 . S
C173 H160 0.930 . S
C173 C172 1.376 . S
C173 C174 1.388 . S
C174 H161 0.930 . S
C174 C173 1.388 . S
C174 C175 1.390 . S
C175 C174 1.390 . S
C175 C176 1.394 . S
C175 C181 1.465 . S
C176 C171 1.399 . S
C176 C175 1.394 . S
C176 C177 1.516 1_455 S
C177 C176 1.516 1_655 S
C177 C178 1.502 . S
C177 C179 1.561 . S
C177 C180 1.526 1_655 S
C178 H162 0.959 . S
C178 H163 0.959 . S
C178 H164 0.961 . S
C178 C177 1.502 . S
C179 H165 0.960 . S
C179 H166 0.961 . S
C179 H167 0.959 . S
C179 C177 1.561 . S
C180 C177 1.526 1_455 S
C180 C181 1.396 . S
C180 C185 1.390 1_455 S
C181 C175 1.465 . S
C181 C180 1.396 . S
C181 C182 1.399 . S
C182 H168 0.929 . S
C182 C181 1.399 . S
C182 C183 1.385 . S
C183 H169 0.931 . S
C183 C182 1.385 . S
C183 C184 1.389 . S
C184 C183 1.389 . S
C184 C185 1.387 1_455 S
C185 H170 0.930 . S
C185 C180 1.390 1_655 S
C185 C184 1.387 1_655 S
H186 C198 0.930 . S
H187 C200 0.930 . S
H188 C201 0.930 1_565 S
H189 C205 0.959 . S
H190 C205 0.959 . S
H191 C205 0.961 . S
H192 C206 0.960 . S
H193 C206 0.961 . S
H194 C206 0.959 . S
H195 C209 0.929 . S
H196 C210 0.931 1_565 S
H197 C212 0.930 . S
C198 H186 0.930 . S
C198 C199 1.399 . S
C198 C203 1.399 . S
C199 C198 1.399 . S
C199 C200 1.376 . S
C200 H187 0.930 . S
C200 C199 1.376 . S
C200 C201 1.388 . S
C201 H188 0.930 1_545 S
C201 C200 1.388 . S
C201 C202 1.390 . S
C202 C201 1.390 . S
C202 C203 1.394 . S
C202 C208 1.465 . S
C203 C198 1.399 . S
C203 C202 1.394 . S
C203 C204 1.516 . S
C204 C203 1.516 . S
C204 C205 1.502 . S
C204 C206 1.561 . S
C204 C207 1.526 . S
C205 H189 0.959 . S
C205 H190 0.959 . S
C205 H191 0.961 . S
C205 C204 1.502 . S
C206 H192 0.960 . S
C206 H193 0.961 . S
C206 H194 0.959 . S
C206 C204 1.561 . S
C207 C204 1.526 . S
C207 C208 1.396 . S
C207 C212 1.390 . S
C208 C202 1.465 . S
C208 C207 1.396 . S
C208 C209 1.399 1_545 S
C209 H195 0.929 . S
C209 C208 1.399 1_565 S
C209 C210 1.385 1_565 S
C210 H196 0.931 1_545 S
C210 C209 1.385 1_545 S
C210 C211 1.389 . S
C211 C210 1.389 . S
C211 C212 1.387 . S
C212 H197 0.930 . S
C212 C207 1.390 . S
C212 C211 1.387 . S
H213 C225 0.930 . S
H214 C227 0.930 . S
H215 C228 0.930 . S
H216 C232 0.959 . S
H217 C232 0.959 . S
H218 C232 0.961 . S
H219 C233 0.960 . S
H220 C233 0.961 . S
H221 C233 0.959 . S
H222 C236 0.929 . S
H223 C237 0.931 . S
H224 C239 0.930 . S
C225 H213 0.930 . S
C225 C226 1.399 . S
C225 C230 1.399 . S
C226 C225 1.399 . S
C226 C227 1.376 . S
C227 H214 0.930 . S
C227 C226 1.376 . S
C227 C228 1.388 . S
C228 H215 0.930 . S
C228 C227 1.388 . S
C228 C229 1.390 . S
C229 C228 1.390 . S
C229 C230 1.394 . S
C229 C235 1.465 . S
C230 C225 1.399 . S
C230 C229 1.394 . S
C230 C231 1.516 . S
C231 C230 1.516 . S
C231 C232 1.502 . S
C231 C233 1.561 . S
C231 C234 1.526 . S
C232 H216 0.959 . S
C232 H217 0.959 . S
C232 H218 0.961 . S
C232 C231 1.502 . S
C233 H219 0.960 . S
C233 H220 0.961 . S
C233 H221 0.959 . S
C233 C231 1.561 . S
C234 C231 1.526 . S
C234 C235 1.396 . S
C234 C239 1.390 . S
C235 C229 1.465 . S
C235 C234 1.396 . S
C235 C236 1.399 . S
C236 H222 0.929 . S
C236 C235 1.399 . S
C236 C237 1.385 . S
C237 H223 0.931 . S
C237 C236 1.385 . S
C237 C238 1.389 . S
C238 C237 1.389 . S
C238 C239 1.387 . S
C239 H224 0.930 . S
C239 C234 1.390 . S
C239 C238 1.387 . S
H240 C252 0.930 . S
H241 C254 0.946 . S
H242 C255 0.930 . S
H243 C259 0.959 . S
H244 C259 0.959 . S
H245 C259 0.961 . S
H246 C260 0.960 . S
H247 C260 0.961 . S
H248 C260 0.959 . S
H249 C263 0.929 . S
H250 C264 0.931 . S
H251 C266 0.930 . S
C252 H240 0.930 . S
C252 C253 1.399 . S
C252 C257 1.399 . S
C253 C252 1.399 . S
C253 C254 1.363 1_545 S
C254 H241 0.946 . S
C254 C253 1.363 1_565 S
C254 C255 1.386 . S
C255 H242 0.930 . S
C255 C254 1.386 . S
C255 C256 1.390 1_565 S
C256 C255 1.390 1_545 S
C256 C257 1.394 . S
C256 C262 1.465 . S
C257 C252 1.399 . S
C257 C256 1.394 . S
C257 C258 1.516 . S
C258 C257 1.516 . S
C258 C259 1.502 . S
C258 C260 1.561 . S
C258 C261 1.526 . S
C259 H243 0.959 . S
C259 H244 0.959 . S
C259 H245 0.961 . S
C259 C258 1.502 . S
C260 H246 0.960 . S
C260 H247 0.961 . S
C260 H248 0.959 . S
C260 C258 1.561 . S
C261 C258 1.526 . S
C261 C262 1.396 . S
C261 C266 1.390 . S
C262 C256 1.465 . S
C262 C261 1.396 . S
C262 C263 1.399 1_545 S
C263 H249 0.929 . S
C263 C262 1.399 1_565 S
C263 C264 1.385 . S
C264 H250 0.931 . S
C264 C263 1.385 . S
C264 C265 1.389 1_565 S
C265 C264 1.389 1_545 S
C265 C266 1.387 . S
C266 H251 0.930 . S
C266 C261 1.390 . S
C266 C265 1.387 . S
H267 C279 0.930 1_545 S
H268 C281 0.930 . S
H269 C282 0.930 . S
H270 C286 0.959 . S
H271 C286 0.959 . S
H272 C286 0.961 . S
H273 C287 0.960 . S
H274 C287 0.961 . S
H275 C287 0.959 . S
H276 C290 0.929 1_554 S
H277 C291 0.931 . S
H278 C293 0.930 . S
C279 H267 0.930 1_565 S
C279 C280 1.399 . S
C279 C284 1.399 . S
C280 C279 1.399 . S
C280 C281 1.376 . S
C281 H268 0.930 . S
C281 C280 1.376 . S
C281 C282 1.388 . S
C282 H269 0.930 . S
C282 C281 1.388 . S
C282 C283 1.390 . S
C283 C282 1.390 . S
C283 C284 1.394 . S
C283 C289 1.465 1_554 S
C284 C279 1.399 . S
C284 C283 1.394 . S
C284 C285 1.516 1_554 S
C285 C284 1.516 1_556 S
C285 C286 1.502 . S
C285 C287 1.561 . S
C285 C288 1.526 . S
C286 H270 0.959 . S
C286 H271 0.959 . S
C286 H272 0.961 . S
C286 C285 1.502 . S
C287 H273 0.960 . S
C287 H274 0.961 . S
C287 H275 0.959 . S
C287 C285 1.561 . S
C288 C285 1.526 . S
C288 C289 1.396 . S
C288 C293 1.390 . S
C289 C283 1.465 1_556 S
C289 C288 1.396 . S
C289 C290 1.399 . S
C290 H276 0.929 1_556 S
C290 C289 1.399 . S
C290 C291 1.385 . S
C291 H277 0.931 . S
C291 C290 1.385 . S
C291 C292 1.389 . S
C292 C291 1.389 . S
C292 C293 1.387 . S
C293 H278 0.930 . S
C293 C288 1.390 . S
C293 C292 1.387 . S
H294 C306 0.930 . S
H295 C308 0.919 1_655 S
H296 C309 0.930 1_655 S
H297 C313 0.959 . S
H298 C313 0.959 . S
H299 C313 0.961 . S
H300 C314 0.960 . S
H301 C314 0.961 . S
H302 C314 0.959 1_655 S
H303 C317 0.929 1_655 S
H304 C318 0.931 . S
H305 C320 0.930 . S
C306 H294 0.930 . S
C306 C307 1.399 . S
C306 C311 1.399 . S
C307 C306 1.399 . S
C307 C308 1.376 . S
C308 H295 0.919 1_455 S
C308 C307 1.376 . S
C308 C309 1.388 . S
C309 H296 0.930 1_455 S
C309 C308 1.388 . S
C309 C310 1.390 . S
C310 C309 1.390 . S
C310 C311 1.394 . S
C310 C316 1.465 . S
C311 C306 1.399 . S
C311 C310 1.394 . S
C311 C312 1.516 . S
C312 C311 1.516 . S
C312 C313 1.502 . S
C312 C314 1.561 . S
C312 C315 1.526 . S
C313 H297 0.959 . S
C313 H298 0.959 . S
C313 H299 0.961 . S
C313 C312 1.502 . S
C314 H300 0.960 . S
C314 H301 0.961 . S
C314 H302 0.959 1_455 S
C314 C312 1.561 . S
C315 C312 1.526 . S
C315 C316 1.396 . S
C315 C320 1.390 . S
C316 C310 1.465 . S
C316 C315 1.396 . S
C316 C317 1.399 . S
C317 H303 0.929 1_455 S
C317 C316 1.399 . S
C317 C318 1.385 . S
C318 H304 0.931 . S
C318 C317 1.385 . S
C318 C319 1.389 . S
C319 C318 1.389 . S
C319 C320 1.387 . S
C320 H305 0.930 . S
C320 C315 1.390 . S
C320 C319 1.387 . S
H321 C333 0.930 . S
H322 C335 0.930 . S
H323 C336 0.930 . S
H324 C340 0.959 . S
H325 C340 0.959 . S
H326 C340 0.961 . S
H327 C341 0.960 . S
H328 C341 0.961 . S
H329 C341 0.959 . S
H330 C344 0.929 . S
H331 C345 0.931 . S
H332 C347 0.930 . S
C333 H321 0.930 . S
C333 C334 1.399 . S
C333 C338 1.399 . S
C334 C333 1.399 . S
C334 C335 1.376 1_545 S
C335 H322 0.930 . S
C335 C334 1.376 1_565 S
C335 C336 1.388 . S
C336 H323 0.930 . S
C336 C335 1.388 . S
C336 C337 1.390 1_565 S
C337 C336 1.390 1_545 S
C337 C338 1.394 . S
C337 C343 1.465 . S
C338 C333 1.399 . S
C338 C337 1.394 . S
C338 C339 1.516 . S
C339 C338 1.516 . S
C339 C340 1.502 . S
C339 C341 1.561 . S
C339 C342 1.526 . S
C340 H324 0.959 . S
C340 H325 0.959 . S
C340 H326 0.961 . S
C340 C339 1.502 . S
C341 H327 0.960 . S
C341 H328 0.961 . S
C341 H329 0.959 . S
C341 C339 1.561 . S
C342 C339 1.526 . S
C342 C343 1.396 . S
C342 C347 1.390 . S
C343 C337 1.465 . S
C343 C342 1.396 . S
C343 C344 1.399 1_545 S
C344 H330 0.929 . S
C344 C343 1.399 1_565 S
C344 C345 1.385 . S
C345 H331 0.931 . S
C345 C344 1.385 . S
C345 C346 1.389 1_565 S
C346 C345 1.389 1_545 S
C346 C347 1.387 . S
C347 H332 0.930 . S
C347 C342 1.390 . S
C347 C346 1.387 . S
H348 C360 0.930 . S
H349 C362 0.930 . S
H350 C363 0.930 . S
H351 C367 0.943 1_556 S
H352 C367 0.959 . S
H353 C367 0.961 . S
H354 C368 0.960 . S
H355 C368 0.961 . S
H356 C368 0.959 . S
H357 C371 0.929 . S
H358 C372 0.931 . S
H359 C374 0.930 . S
C360 H348 0.930 . S
C360 C361 1.399 . S
C360 C365 1.399 . S
C361 C360 1.399 . S
C361 C362 1.376 . S
C362 H349 0.930 . S
C362 C361 1.376 . S
C362 C363 1.388 1_554 S
C363 H350 0.930 . S
C363 C362 1.388 1_556 S
C363 C364 1.390 . S
C364 C363 1.390 . S
C364 C365 1.394 1_556 S
C364 C370 1.465 . S
C365 C360 1.399 . S
C365 C364 1.394 1_554 S
C365 C366 1.516 . S
C366 C365 1.516 . S
C366 C367 1.502 . S
C366 C368 1.561 . S
C366 C369 1.526 1_554 S
C367 H351 0.943 1_554 S
C367 H352 0.959 . S
C367 H353 0.961 . S
C367 C366 1.502 . S
C368 H354 0.960 . S
C368 H355 0.961 . S
C368 H356 0.959 . S
C368 C366 1.561 . S
C369 C366 1.526 1_556 S
C369 C370 1.396 . S
C369 C374 1.390 . S
C370 C364 1.465 . S
C370 C369 1.396 . S
C370 C371 1.399 . S
C371 H357 0.929 . S
C371 C370 1.399 . S
C371 C372 1.385 . S
C372 H358 0.931 . S
C372 C371 1.385 . S
C372 C373 1.389 . S
C373 C372 1.389 . S
C373 C374 1.387 . S
C374 H359 0.930 . S
C374 C369 1.390 . S
C374 C373 1.387 . S
H375 C387 0.930 . S
H376 C389 0.930 . S
H377 C390 0.930 . S
H378 C394 0.959 . S
H379 C394 0.959 . S
H380 C394 0.961 . S
H381 C395 0.960 . S
H382 C395 0.961 . S
H383 C395 0.959 . S
H384 C398 0.929 . S
H385 C399 0.931 . S
H386 C401 0.930 . S
C387 H375 0.930 . S
C387 C388 1.399 . S
C387 C392 1.399 . S
C388 C387 1.399 . S
C388 C389 1.376 . S
C389 H376 0.930 . S
C389 C388 1.376 . S
C389 C390 1.388 . S
C390 H377 0.930 . S
C390 C389 1.388 . S
C390 C391 1.390 . S
C391 C390 1.390 . S
C391 C392 1.394 . S
C391 C397 1.465 . S
C392 C387 1.399 . S
C392 C391 1.394 . S
C392 C393 1.516 . S
C393 C392 1.516 . S
C393 C394 1.502 . S
C393 C395 1.561 . S
C393 C396 1.526 . S
C394 H378 0.959 . S
C394 H379 0.959 . S
C394 H380 0.961 . S
C394 C393 1.502 . S
C395 H381 0.960 . S
C395 H382 0.961 . S
C395 H383 0.959 . S
C395 C393 1.561 . S
C396 C393 1.526 . S
C396 C397 1.396 . S
C396 C401 1.390 . S
C397 C391 1.465 . S
C397 C396 1.396 . S
C397 C398 1.399 . S
C398 H384 0.929 . S
C398 C397 1.399 . S
C398 C399 1.385 . S
C399 H385 0.931 . S
C399 C398 1.385 . S
C399 C400 1.389 . S
C400 C399 1.389 . S
C400 C401 1.387 . S
C401 H386 0.930 . S
C401 C396 1.390 . S
C401 C400 1.387 . S
C103 C44 1.351 . S
C91 C10 1.356 . S
C118 C21 1.409 . S
C130 C62 1.488 . S
C145 C31 1.372 . S
C157 C75 1.433 . S
C172 C0 1.354 . S
C184 C42 1.374 . S
C211 C53 1.434 . S
C199 C18 1.325 . S
C226 C34 1.422 . S
C238 C66 1.425 . S
C265 C55 1.345 . S
C253 C36 1.362 . S
C280 C8 1.326 1_565 S
C292 C68 1.336 . S
C319 C49 1.420 . S
C307 C23 1.430 . S
C346 C57 1.275 . S
C334 C26 1.300 . S
C373 C70 1.337 . S
C361 C5 1.365 . S
C388 C13 1.337 . S
C400 C40 1.441 . S
