# Generated by pormake.
# Topology iac, (4,6)-cn, num edge types: 1
# Building blocks:
#     Node 0, Type 0, BuildingBlock: KUFVIS_clean_sbu_0, # of connection points: 4
#     Node 1, Type 0, BuildingBlock: KUFVIS_clean_sbu_0, # of connection points: 4
#     Node 2, Type 0, BuildingBlock: KUFVIS_clean_sbu_0, # of connection points: 4
#     Node 3, Type 0, BuildingBlock: KUFVIS_clean_sbu_0, # of connection points: 4
#     Node 4, Type 0, BuildingBlock: KUFVIS_clean_sbu_0, # of connection points: 4
#     Node 5, Type 0, BuildingBlock: KUFVIS_clean_sbu_0, # of connection points: 4
#     Node 6, Type 0, BuildingBlock: KUFVIS_clean_sbu_0, # of connection points: 4
#     Node 7, Type 0, BuildingBlock: KUFVIS_clean_sbu_0, # of connection points: 4
#     Node 8, Type 0, BuildingBlock: KUFVIS_clean_sbu_0, # of connection points: 4
#     Node 9, Type 0, BuildingBlock: KUFVIS_clean_sbu_0, # of connection points: 4
#     Node 10, Type 0, BuildingBlock: KUFVIS_clean_sbu_0, # of connection points: 4
#     Node 11, Type 0, BuildingBlock: KUFVIS_clean_sbu_0, # of connection points: 4
#     Node 12, Type 0, BuildingBlock: KUFVIS_clean_sbu_0, # of connection points: 4
#     Node 13, Type 0, BuildingBlock: KUFVIS_clean_sbu_0, # of connection points: 4
#     Node 14, Type 0, BuildingBlock: KUFVIS_clean_sbu_0, # of connection points: 4
#     Node 15, Type 0, BuildingBlock: KUFVIS_clean_sbu_0, # of connection points: 4
#     Node 16, Type 0, BuildingBlock: KUFVIS_clean_sbu_0, # of connection points: 4
#     Node 17, Type 0, BuildingBlock: KUFVIS_clean_sbu_0, # of connection points: 4
#     Node 18, Type 0, BuildingBlock: KUFVIS_clean_sbu_0, # of connection points: 4
#     Node 19, Type 0, BuildingBlock: KUFVIS_clean_sbu_0, # of connection points: 4
#     Node 20, Type 0, BuildingBlock: KUFVIS_clean_sbu_0, # of connection points: 4
#     Node 21, Type 0, BuildingBlock: KUFVIS_clean_sbu_0, # of connection points: 4
#     Node 22, Type 0, BuildingBlock: KUFVIS_clean_sbu_0, # of connection points: 4
#     Node 23, Type 0, BuildingBlock: KUFVIS_clean_sbu_0, # of connection points: 4
#     Node 24, Type 1, BuildingBlock: JUFBIX_clean_sbu_0, # of connection points: 6
#     Node 25, Type 1, BuildingBlock: JUFBIX_clean_sbu_0, # of connection points: 6
#     Node 26, Type 1, BuildingBlock: JUFBIX_clean_sbu_0, # of connection points: 6
#     Node 27, Type 1, BuildingBlock: JUFBIX_clean_sbu_0, # of connection points: 6
#     Node 28, Type 1, BuildingBlock: JUFBIX_clean_sbu_0, # of connection points: 6
#     Node 29, Type 1, BuildingBlock: JUFBIX_clean_sbu_0, # of connection points: 6
#     Node 30, Type 1, BuildingBlock: JUFBIX_clean_sbu_0, # of connection points: 6
#     Node 31, Type 1, BuildingBlock: JUFBIX_clean_sbu_0, # of connection points: 6
#     Node 32, Type 1, BuildingBlock: JUFBIX_clean_sbu_0, # of connection points: 6
#     Node 33, Type 1, BuildingBlock: JUFBIX_clean_sbu_0, # of connection points: 6
#     Node 34, Type 1, BuildingBlock: JUFBIX_clean_sbu_0, # of connection points: 6
#     Node 35, Type 1, BuildingBlock: JUFBIX_clean_sbu_0, # of connection points: 6
#     Node 36, Type 1, BuildingBlock: JUFBIX_clean_sbu_0, # of connection points: 6
#     Node 37, Type 1, BuildingBlock: JUFBIX_clean_sbu_0, # of connection points: 6
#     Node 38, Type 1, BuildingBlock: JUFBIX_clean_sbu_0, # of connection points: 6
#     Node 39, Type 1, BuildingBlock: JUFBIX_clean_sbu_0, # of connection points: 6
#     Edge 40, Type (0, 1), BuildingBlock: CIFDUS_clean_linker_0, # of connection points: 2
#     Edge 41, Type (0, 1), BuildingBlock: CIFDUS_clean_linker_0, # of connection points: 2
#     Edge 42, Type (0, 1), BuildingBlock: CIFDUS_clean_linker_0, # of connection points: 2
#     Edge 43, Type (0, 1), BuildingBlock: CIFDUS_clean_linker_0, # of connection points: 2
#     Edge 44, Type (0, 1), BuildingBlock: CIFDUS_clean_linker_0, # of connection points: 2
#     Edge 45, Type (0, 1), BuildingBlock: CIFDUS_clean_linker_0, # of connection points: 2
#     Edge 46, Type (0, 1), BuildingBlock: CIFDUS_clean_linker_0, # of connection points: 2
#     Edge 47, Type (0, 1), BuildingBlock: CIFDUS_clean_linker_0, # of connection points: 2
#     Edge 48, Type (0, 1), BuildingBlock: CIFDUS_clean_linker_0, # of connection points: 2
#     Edge 49, Type (0, 1), BuildingBlock: CIFDUS_clean_linker_0, # of connection points: 2
#     Edge 50, Type (0, 1), BuildingBlock: CIFDUS_clean_linker_0, # of connection points: 2
#     Edge 51, Type (0, 1), BuildingBlock: CIFDUS_clean_linker_0, # of connection points: 2
#     Edge 52, Type (0, 1), BuildingBlock: CIFDUS_clean_linker_0, # of connection points: 2
#     Edge 53, Type (0, 1), BuildingBlock: CIFDUS_clean_linker_0, # of connection points: 2
#     Edge 54, Type (0, 1), BuildingBlock: CIFDUS_clean_linker_0, # of connection points: 2
#     Edge 55, Type (0, 1), BuildingBlock: CIFDUS_clean_linker_0, # of connection points: 2
#     Edge 56, Type (0, 1), BuildingBlock: CIFDUS_clean_linker_0, # of connection points: 2
#     Edge 57, Type (0, 1), BuildingBlock: CIFDUS_clean_linker_0, # of connection points: 2
#     Edge 58, Type (0, 1), BuildingBlock: CIFDUS_clean_linker_0, # of connection points: 2
#     Edge 59, Type (0, 1), BuildingBlock: CIFDUS_clean_linker_0, # of connection points: 2
#     Edge 60, Type (0, 1), BuildingBlock: CIFDUS_clean_linker_0, # of connection points: 2
#     Edge 61, Type (0, 1), BuildingBlock: CIFDUS_clean_linker_0, # of connection points: 2
#     Edge 62, Type (0, 1), BuildingBlock: CIFDUS_clean_linker_0, # of connection points: 2
#     Edge 63, Type (0, 1), BuildingBlock: CIFDUS_clean_linker_0, # of connection points: 2
#     Edge 64, Type (0, 1), BuildingBlock: CIFDUS_clean_linker_0, # of connection points: 2
#     Edge 65, Type (0, 1), BuildingBlock: CIFDUS_clean_linker_0, # of connection points: 2
#     Edge 66, Type (0, 1), BuildingBlock: CIFDUS_clean_linker_0, # of connection points: 2
#     Edge 67, Type (0, 1), BuildingBlock: CIFDUS_clean_linker_0, # of connection points: 2
#     Edge 68, Type (0, 1), BuildingBlock: CIFDUS_clean_linker_0, # of connection points: 2
#     Edge 69, Type (0, 1), BuildingBlock: CIFDUS_clean_linker_0, # of connection points: 2
#     Edge 70, Type (0, 1), BuildingBlock: CIFDUS_clean_linker_0, # of connection points: 2
#     Edge 71, Type (0, 1), BuildingBlock: CIFDUS_clean_linker_0, # of connection points: 2
#     Edge 72, Type (0, 1), BuildingBlock: CIFDUS_clean_linker_0, # of connection points: 2
#     Edge 73, Type (0, 1), BuildingBlock: CIFDUS_clean_linker_0, # of connection points: 2
#     Edge 74, Type (0, 1), BuildingBlock: CIFDUS_clean_linker_0, # of connection points: 2
#     Edge 75, Type (0, 1), BuildingBlock: CIFDUS_clean_linker_0, # of connection points: 2
#     Edge 76, Type (0, 1), BuildingBlock: CIFDUS_clean_linker_0, # of connection points: 2
#     Edge 77, Type (0, 1), BuildingBlock: CIFDUS_clean_linker_0, # of connection points: 2
#     Edge 78, Type (0, 1), BuildingBlock: CIFDUS_clean_linker_0, # of connection points: 2
#     Edge 79, Type (0, 1), BuildingBlock: CIFDUS_clean_linker_0, # of connection points: 2
#     Edge 80, Type (0, 1), BuildingBlock: CIFDUS_clean_linker_0, # of connection points: 2
#     Edge 81, Type (0, 1), BuildingBlock: CIFDUS_clean_linker_0, # of connection points: 2
#     Edge 82, Type (0, 1), BuildingBlock: CIFDUS_clean_linker_0, # of connection points: 2
#     Edge 83, Type (0, 1), BuildingBlock: CIFDUS_clean_linker_0, # of connection points: 2
#     Edge 84, Type (0, 1), BuildingBlock: CIFDUS_clean_linker_0, # of connection points: 2
#     Edge 85, Type (0, 1), BuildingBlock: CIFDUS_clean_linker_0, # of connection points: 2
#     Edge 86, Type (0, 1), BuildingBlock: CIFDUS_clean_linker_0, # of connection points: 2
#     Edge 87, Type (0, 1), BuildingBlock: CIFDUS_clean_linker_0, # of connection points: 2
#     Edge 88, Type (0, 1), BuildingBlock: CIFDUS_clean_linker_0, # of connection points: 2
#     Edge 89, Type (0, 1), BuildingBlock: CIFDUS_clean_linker_0, # of connection points: 2
#     Edge 90, Type (0, 1), BuildingBlock: CIFDUS_clean_linker_0, # of connection points: 2
#     Edge 91, Type (0, 1), BuildingBlock: CIFDUS_clean_linker_0, # of connection points: 2
#     Edge 92, Type (0, 1), BuildingBlock: CIFDUS_clean_linker_0, # of connection points: 2
#     Edge 93, Type (0, 1), BuildingBlock: CIFDUS_clean_linker_0, # of connection points: 2
#     Edge 94, Type (0, 1), BuildingBlock: CIFDUS_clean_linker_0, # of connection points: 2
#     Edge 95, Type (0, 1), BuildingBlock: CIFDUS_clean_linker_0, # of connection points: 2
#     Edge 96, Type (0, 1), BuildingBlock: CIFDUS_clean_linker_0, # of connection points: 2
#     Edge 97, Type (0, 1), BuildingBlock: CIFDUS_clean_linker_0, # of connection points: 2
#     Edge 98, Type (0, 1), BuildingBlock: CIFDUS_clean_linker_0, # of connection points: 2
#     Edge 99, Type (0, 1), BuildingBlock: CIFDUS_clean_linker_0, # of connection points: 2
#     Edge 100, Type (0, 1), BuildingBlock: CIFDUS_clean_linker_0, # of connection points: 2
#     Edge 101, Type (0, 1), BuildingBlock: CIFDUS_clean_linker_0, # of connection points: 2
#     Edge 102, Type (0, 1), BuildingBlock: CIFDUS_clean_linker_0, # of connection points: 2
#     Edge 103, Type (0, 1), BuildingBlock: CIFDUS_clean_linker_0, # of connection points: 2
#     Edge 104, Type (0, 1), BuildingBlock: CIFDUS_clean_linker_0, # of connection points: 2
#     Edge 105, Type (0, 1), BuildingBlock: CIFDUS_clean_linker_0, # of connection points: 2
#     Edge 106, Type (0, 1), BuildingBlock: CIFDUS_clean_linker_0, # of connection points: 2
#     Edge 107, Type (0, 1), BuildingBlock: CIFDUS_clean_linker_0, # of connection points: 2
#     Edge 108, Type (0, 1), BuildingBlock: CIFDUS_clean_linker_0, # of connection points: 2
#     Edge 109, Type (0, 1), BuildingBlock: CIFDUS_clean_linker_0, # of connection points: 2
#     Edge 110, Type (0, 1), BuildingBlock: CIFDUS_clean_linker_0, # of connection points: 2
#     Edge 111, Type (0, 1), BuildingBlock: CIFDUS_clean_linker_0, # of connection points: 2
#     Edge 112, Type (0, 1), BuildingBlock: CIFDUS_clean_linker_0, # of connection points: 2
#     Edge 113, Type (0, 1), BuildingBlock: CIFDUS_clean_linker_0, # of connection points: 2
#     Edge 114, Type (0, 1), BuildingBlock: CIFDUS_clean_linker_0, # of connection points: 2
#     Edge 115, Type (0, 1), BuildingBlock: CIFDUS_clean_linker_0, # of connection points: 2
#     Edge 116, Type (0, 1), BuildingBlock: CIFDUS_clean_linker_0, # of connection points: 2
#     Edge 117, Type (0, 1), BuildingBlock: CIFDUS_clean_linker_0, # of connection points: 2
#     Edge 118, Type (0, 1), BuildingBlock: CIFDUS_clean_linker_0, # of connection points: 2
#     Edge 119, Type (0, 1), BuildingBlock: CIFDUS_clean_linker_0, # of connection points: 2
#     Edge 120, Type (0, 1), BuildingBlock: CIFDUS_clean_linker_0, # of connection points: 2
#     Edge 121, Type (0, 1), BuildingBlock: CIFDUS_clean_linker_0, # of connection points: 2
#     Edge 122, Type (0, 1), BuildingBlock: CIFDUS_clean_linker_0, # of connection points: 2
#     Edge 123, Type (0, 1), BuildingBlock: CIFDUS_clean_linker_0, # of connection points: 2
#     Edge 124, Type (0, 1), BuildingBlock: CIFDUS_clean_linker_0, # of connection points: 2
#     Edge 125, Type (0, 1), BuildingBlock: CIFDUS_clean_linker_0, # of connection points: 2
#     Edge 126, Type (0, 1), BuildingBlock: CIFDUS_clean_linker_0, # of connection points: 2
#     Edge 127, Type (0, 1), BuildingBlock: CIFDUS_clean_linker_0, # of connection points: 2
#     Edge 128, Type (0, 1), BuildingBlock: CIFDUS_clean_linker_0, # of connection points: 2
#     Edge 129, Type (0, 1), BuildingBlock: CIFDUS_clean_linker_0, # of connection points: 2
#     Edge 130, Type (0, 1), BuildingBlock: CIFDUS_clean_linker_0, # of connection points: 2
#     Edge 131, Type (0, 1), BuildingBlock: CIFDUS_clean_linker_0, # of connection points: 2
#     Edge 132, Type (0, 1), BuildingBlock: CIFDUS_clean_linker_0, # of connection points: 2
#     Edge 133, Type (0, 1), BuildingBlock: CIFDUS_clean_linker_0, # of connection points: 2
#     Edge 134, Type (0, 1), BuildingBlock: CIFDUS_clean_linker_0, # of connection points: 2
#     Edge 135, Type (0, 1), BuildingBlock: CIFDUS_clean_linker_0, # of connection points: 2
# Relax obj value: 0.234
# Max RMSD: 0.239
# Mean RMSD: 0.108
data_MOF--net-iac--node1-KUFVIS_clean_sbu_0--node2-JUFBIX_clean_sbu_0--edge1-CIFDUS_clean_linker_0
_symmetry_space_group_name_H-M    P1
_symmetry_Int_Tables_number       1
_symmetry_cell_setting            triclinic
loop_
_symmetry_equiv_pos_as_xyz
'x, y, z'
_cell_length_a     47.316814
_cell_length_b     47.979167
_cell_length_c     49.2281
_cell_angle_alpha  89.267926
_cell_angle_beta   87.919779
_cell_angle_gamma 88.78049
loop_
_atom_site_label
_atom_site_type_symbol
_atom_site_fract_x
_atom_site_fract_y
_atom_site_fract_z
_atom_type_partial_charge
Mn0 Mn 0.04913 0.28706 0.15889 0.0
Mn1 Mn 1.00342 0.27862 0.1077 0.0
C2 C 0.04123 0.24101 0.14087 0.0
C3 C 0.09534 0.29534 0.178 0.0
C4 C 0.98274 0.2858 0.16664 0.0
O5 O 0.04527 0.32817 0.14261 0.0
O6 O 0.0146 0.31861 0.11044 0.0
C7 C 0.04353 0.29206 0.06201 0.0
N8 N 0.02447 0.27451 0.07405 0.0
C9 C 0.02781 0.24361 0.03589 0.0
C10 C 0.04735 0.26144 0.02301 0.0
C11 C 0.05536 0.28569 0.03619 0.0
C12 C 0.01691 0.25094 0.0617 0.0
H13 H 0.04963 0.3108 0.07199 0.0
C14 C 0.02986 0.33604 0.12265 0.0
O15 O 0.07158 0.29968 0.19128 0.0
O16 O 0.09249 0.28702 0.15322 0.0
N17 N 0.99037 0.24184 0.10142 0.0
C18 C 0.97255 0.22603 0.11725 0.0
C19 C 0.96312 0.20066 0.10734 0.0
C20 C 0.97164 0.19206 0.08108 0.0
C21 C 0.98966 0.20885 0.06501 0.0
C22 C 0.99849 0.23386 0.07602 0.0
H23 H 0.96586 0.23254 0.13741 0.0
O24 O 0.05068 0.24479 0.16494 0.0
O25 O 0.03669 0.26437 0.12755 0.0
O26 O 1.0075 0.28908 0.176 0.0
O27 O 0.97911 0.28183 0.14139 0.0
C28 C 0.99971 0.20146 0.03873 0.0
C29 C 0.01889 0.21875 0.02424 0.0
H30 H 0.05646 0.25664 1.00307 0.0
H31 H 0.07051 0.2995 0.02642 0.0
H32 H 0.94929 0.18779 0.11991 0.0
H33 H 0.96445 0.17241 0.07357 0.0
H34 H 0.9933 0.18222 0.02971 0.0
H35 H 0.02688 0.21258 1.00426 0.0
Mn36 Mn 0.06517 0.78063 0.41488 0.0
Mn37 Mn 0.02458 0.77805 0.47292 0.0
C38 C 0.0458 0.82093 0.43299 0.0
C39 C 0.1079 0.78272 0.39084 0.0
C40 C 1.00346 0.7634 0.41784 0.0
O41 O 0.0743 0.742 0.42969 0.0
O42 O 0.04833 0.74382 0.46894 0.0
C43 C 0.07093 0.78034 0.51165 0.0
N44 N 0.04586 0.7905 0.50254 0.0
C45 C 0.04204 0.82405 0.53848 0.0
C46 C 0.06765 0.81372 0.54845 0.0
C47 C 0.08225 0.7919 0.53486 0.0
C48 C 0.03196 0.8119 0.51511 0.0
H49 H 0.08221 0.76361 0.50124 0.0
C50 C 0.06591 0.73163 0.45243 0.0
O51 O 0.08578 0.77228 0.3804 0.0
O52 O 0.10547 0.79134 0.41579 0.0
N53 N 1.00036 0.80979 0.4801 0.0
C54 C 0.97639 0.81795 0.46738 0.0
C55 C 0.95962 0.83999 0.47806 0.0
C56 C 0.96736 0.85307 0.50196 0.0
C57 C 0.99177 0.84393 0.51502 0.0
C58 C 1.00766 0.82187 0.50342 0.0
H59 H 0.97012 0.80779 0.44918 0.0
O60 O 0.05393 0.82018 0.40756 0.0
O61 O 0.04995 0.79843 0.44742 0.0
O62 O 0.02655 0.76823 0.40489 0.0
O63 O 1.00028 0.7657 0.44359 0.0
C64 C 1.00111 0.856 0.53896 0.0
C65 C 0.02628 0.84614 0.55063 0.0
H66 H 0.07641 0.82254 0.56638 0.0
H67 H 0.10214 0.78396 0.5423 0.0
H68 H 0.94075 0.84685 0.46791 0.0
H69 H 0.95445 0.87016 0.51006 0.0
H70 H 0.98933 0.87318 0.54832 0.0
H71 H 0.03351 0.85592 0.56876 0.0
Mn72 Mn 0.5493 0.77931 0.66103 0.0
Mn73 Mn 0.50914 0.77208 0.60554 0.0
C74 C 0.54337 0.73384 0.64159 0.0
C75 C 0.59402 0.78789 0.68229 0.0
C76 C 0.48299 0.77719 0.66286 0.0
O77 O 0.54571 0.82075 0.64634 0.0
O78 O 0.51919 0.81189 0.61076 0.0
C79 C 0.5535 0.78726 0.56434 0.0
N80 N 0.53347 0.76926 0.57383 0.0
C81 C 0.54079 0.73998 0.53478 0.0
C82 C 0.56139 0.75828 0.5245 0.0
C83 C 0.56788 0.78194 0.53942 0.0
C84 C 0.52737 0.74623 0.55985 0.0
H85 H 0.5584 0.80556 0.57567 0.0
C86 C 0.53226 0.82907 0.62533 0.0
O87 O 0.5697 0.79125 0.69493 0.0
O88 O 0.59249 0.78018 0.65719 0.0
N89 N 0.4971 0.73557 0.59664 0.0
C90 C 0.47771 0.7193 0.61 0.0
C91 C 0.46924 0.69454 0.59805 0.0
C92 C 0.48034 0.68704 0.57226 0.0
C93 C 0.49996 0.7043 0.55871 0.0
C94 C 0.5077 0.72866 0.57169 0.0
H95 H 0.46908 0.72496 0.62979 0.0
O96 O 0.55116 0.73712 0.66632 0.0
O97 O 0.53987 0.75738 0.62827 0.0
O98 O 0.50642 0.78019 0.67498 0.0
O99 O 0.48217 0.77409 0.63713 0.0
C100 C 0.51259 0.698 0.5331 0.0
C101 C 0.53314 0.71572 0.52123 0.0
H102 H 0.57244 0.75431 0.50523 0.0
H103 H 0.58382 0.79611 0.53166 0.0
H104 H 0.45418 0.68128 0.60869 0.0
H105 H 0.47388 0.66785 0.56318 0.0
H106 H 0.50709 0.67926 0.52262 0.0
H107 H 0.54307 0.7104 0.50176 0.0
Mn108 Mn 0.55417 0.27722 0.92341 0.0
Mn109 Mn 0.51533 0.26449 0.98121 0.0
C110 C 0.5308 0.31296 0.94566 0.0
C111 C 0.59568 0.28581 0.89927 0.0
C112 C 0.49407 0.25479 0.92529 0.0
O113 O 0.56837 0.23881 0.93357 0.0
O114 O 0.54033 0.23235 0.97094 0.0
C115 C 0.56468 0.26372 0.01664 0.0
N116 N 0.53788 0.27258 0.01149 0.0
C117 C 0.53408 0.29743 0.05366 0.0
C118 C 0.56124 0.28763 0.05991 0.0
C119 C 0.57675 0.27099 0.04115 0.0
C120 C 0.52326 0.28956 0.02887 0.0
H121 H 0.57686 0.25156 1.00197 0.0
C122 C 0.55961 0.22431 0.95373 0.0
O123 O 0.5744 0.27453 0.8881 0.0
O124 O 0.59293 0.29221 0.92484 0.0
N125 N 0.49019 0.29322 0.99514 0.0
C126 C 0.46566 0.30333 0.98486 0.0
C127 C 0.4483 0.32173 1.00028 0.0
C128 C 0.4561 0.32924 0.02639 0.0
C129 C 0.48131 0.31841 0.03674 0.0
C130 C 0.49775 0.30016 0.02038 0.0
H131 H 0.45975 0.29786 0.96485 0.0
O132 O 0.53808 0.31557 0.92012 0.0
O133 O 0.53809 0.2899 0.95797 0.0
O134 O 0.51714 0.26099 0.91291 0.0
O135 O 0.49 0.25649 0.95104 0.0
C136 C 0.49115 0.32558 0.06235 0.0
C137 C 0.51761 0.31523 0.07074 0.0
H138 H 0.57062 0.29325 0.07877 0.0
H139 H 0.59798 0.26388 0.04551 0.0
H140 H 0.42899 0.33017 0.99202 0.0
H141 H 0.44278 0.34362 0.03815 0.0
H142 H 0.47892 0.33967 0.07542 0.0
H143 H 0.52534 0.32153 0.09013 0.0
Mn144 Mn 0.15895 0.02851 0.31156 0.0
Mn145 Mn 0.21434 0.04349 0.34979 0.0
C146 C 0.16435 0.07288 0.32687 0.0
C147 C 0.14067 0.0234 0.269 0.0
C148 C 0.16171 0.01509 0.37212 0.0
O149 O 0.18544 0.99553 0.30546 0.0
O150 O 0.22189 0.00816 0.33039 0.0
C151 C 0.25624 0.05343 0.30471 0.0
N152 N 0.2421 0.06238 0.32767 0.0
C153 C 0.26864 0.1046 0.32763 0.0
C154 C 0.28359 0.09578 0.30406 0.0
C155 C 0.27722 0.07017 0.29245 0.0
C156 C 0.24763 0.08725 0.33866 0.0
H157 H 0.2516 0.03364 0.29586 0.0
C158 C 0.21022 0.99167 0.3142 0.0
O159 O 0.12945 0.0109 0.29023 0.0
O160 O 0.1625 0.03861 0.2726 0.0
N161 N 0.21071 0.07756 0.36963 0.0
C162 C 0.19345 0.08371 0.39158 0.0
C163 C 0.19682 0.10878 0.40539 0.0
C164 C 0.21808 0.12718 0.39665 0.0
C165 C 0.23564 0.12041 0.37405 0.0
C166 C 0.23124 0.09514 0.36108 0.0
H167 H 0.17701 0.06978 0.39829 0.0
O168 O 0.13976 0.06517 0.31929 0.0
O169 O 0.18494 0.05465 0.3247 0.0
O170 O 0.14869 0.01466 0.3499 0.0
O171 O 0.18644 0.02493 0.37417 0.0
C172 C 0.25721 0.13784 0.36377 0.0
C173 C 0.27361 0.13001 0.34049 0.0
H174 H 0.2999 0.10856 0.29464 0.0
H175 H 0.28859 0.06326 0.2742 0.0
H176 H 0.18305 0.11392 0.42272 0.0
H177 H 0.22056 0.14655 0.40729 0.0
H178 H 0.2611 0.1575 0.37338 0.0
H179 H 0.28978 0.14383 0.33249 0.0
Mn180 Mn 0.26839 0.89855 0.55408 0.0
Mn181 Mn 0.27123 0.95492 0.51261 0.0
C182 C 0.31168 0.9161 0.54101 0.0
C183 C 0.26102 0.88039 0.59728 0.0
C184 C 0.26071 0.89616 0.49346 0.0
O185 O 0.22796 0.91324 0.55456 0.0
O186 O 0.23417 0.95446 0.53303 0.0
C187 C 0.27084 0.99857 0.55466 0.0
N188 N 0.28277 0.98688 0.53184 0.0
C189 C 0.31801 0.0223 0.52832 0.0
C190 C 0.30566 0.03511 0.55141 0.0
C191 C 0.28212 0.02303 0.56479 0.0
C192 C 0.30594 0.99785 0.51931 0.0
H193 H 0.25305 0.98913 0.56515 0.0
C194 C 0.21918 0.93723 0.54707 0.0
O195 O 0.25624 0.86588 0.5759 0.0
O196 O 0.27045 0.90542 0.5935 0.0
N197 N 0.30595 0.95884 0.4917 0.0
C198 C 0.31656 0.94294 0.47081 0.0
C199 C 0.34078 0.95153 0.45591 0.0
C200 C 0.3537 0.97653 0.46241 0.0
C201 C 0.34229 0.99272 0.48379 0.0
C202 C 0.31803 0.98316 0.49784 0.0
H203 H 0.30683 0.92373 0.46565 0.0
O204 O 0.31005 0.8911 0.55123 0.0
O205 O 0.28821 0.93057 0.54013 0.0
O206 O 0.26445 0.88388 0.51612 0.0
O207 O 0.26036 0.92273 0.49049 0.0
C208 C 0.35427 0.01777 0.49194 0.0
C209 C 0.34218 0.03252 0.51425 0.0
H210 H 0.31433 0.05396 0.55929 0.0
H211 H 0.27273 0.03254 0.58287 0.0
H212 H 0.34949 0.93886 0.43948 0.0
H213 H 0.37251 0.98298 0.45102 0.0
H214 H 0.3731 0.0256 0.48154 0.0
H215 H 0.35195 0.05143 0.52071 0.0
Mn216 Mn 0.41254 0.06614 0.77519 0.0
Mn217 Mn 0.35484 0.04705 0.81292 0.0
C218 C 0.40829 0.02104 0.78995 0.0
C219 C 0.43529 0.07481 0.73391 0.0
C220 C 0.40467 0.07559 0.83628 0.0
O221 O 0.38533 0.0979 0.76889 0.0
O222 O 0.34847 0.08377 0.79521 0.0
C223 C 0.31704 0.04042 0.76681 0.0
N224 N 0.3289 0.02994 0.78969 0.0
C225 C 0.30071 0.98885 0.7886 0.0
C226 C 0.28809 0.99926 0.76511 0.0
C227 C 0.29648 0.02505 0.75404 0.0
C228 C 0.32155 0.00481 0.80004 0.0
H229 H 0.32313 0.0604 0.75841 0.0
C230 C 0.36025 0.10096 0.77857 0.0
O231 O 0.44323 0.08657 0.7559 0.0
O232 O 0.4141 0.05805 0.73598 0.0
N233 N 0.35639 0.01161 0.83131 0.0
C234 C 0.37144 0.00385 0.85332 0.0
C235 C 0.36558 0.9786 0.86691 0.0
C236 C 0.3441 0.96164 0.85788 0.0
C237 C 0.3289 0.96995 0.83513 0.0
C238 C 0.33572 0.99534 0.82242 0.0
H239 H 0.38819 0.01652 0.86006 0.0
O240 O 0.43302 0.03049 0.78296 0.0
O241 O 0.3866 0.03788 0.7874 0.0
O242 O 0.41811 0.07897 0.81366 0.0
O243 O 0.3808 0.0636 0.83864 0.0
C244 C 0.30731 0.95398 0.82453 0.0
C245 C 0.2934 0.9633 0.80112 0.0
H246 H 0.272 0.98761 0.75537 0.0
H247 H 0.2869 0.0332 0.73587 0.0
H248 H 0.37767 0.9722 0.88424 0.0
H249 H 0.3397 0.94212 0.86833 0.0
H250 H 0.30159 0.93426 0.83392 0.0
H251 H 0.27723 0.95058 0.79284 0.0
Mn252 Mn 0.27934 0.17508 0.04614 0.0
Mn253 Mn 0.27815 0.12141 1.00139 0.0
C254 C 0.23562 0.15194 0.03791 0.0
C255 C 0.28547 0.19625 0.09075 0.0
C256 C 0.2829 0.18218 0.9819 0.0
O257 O 0.32159 0.16117 0.04366 0.0
O258 O 0.31753 0.12566 0.01464 0.0
C259 C 0.29092 0.0753 0.03996 0.0
N260 N 0.2738 0.08708 0.02114 0.0
C261 C 0.24233 0.04832 0.02441 0.0
C262 C 0.25972 0.03571 0.0437 0.0
C263 C 0.28407 0.04931 0.05157 0.0
C264 C 0.25019 0.07428 0.0136 0.0
H265 H 0.30965 0.08564 0.04611 0.0
C266 C 0.33231 0.14025 0.03038 0.0
O267 O 0.28918 0.20923 0.06774 0.0
O268 O 0.27821 0.17042 0.08826 0.0
N269 N 0.24197 0.11397 0.98714 0.0
C270 C 0.22678 0.12942 0.96914 0.0
C271 C 0.20163 0.11888 0.95944 0.0
C272 C 0.19244 0.09251 0.96819 0.0
C273 C 0.20853 0.07687 0.98652 0.0
C274 C 0.23354 0.08835 0.99532 0.0
H275 H 0.23361 0.14974 0.96243 0.0
O276 O 0.236 0.17731 0.04686 0.0
O277 O 0.2608 0.14103 0.03336 0.0
O278 O 0.2823 0.19223 1.00609 0.0
O279 O 0.28185 0.15588 0.97806 0.0
C280 C 0.20049 0.05052 0.99673 0.0
C281 C 0.21733 0.03631 0.01573 0.0
H282 H 0.25449 0.01568 0.05272 0.0
H283 H 0.29753 0.03976 0.06653 0.0
H284 H 0.18929 0.13112 0.94536 0.0
H285 H 0.17288 0.08457 0.96089 0.0
H286 H 0.18117 0.0412 0.99043 0.0
H287 H 0.21071 0.01626 0.02375 0.0
Mn288 Mn 0.76723 0.40628 0.0554 0.0
Mn289 Mn 0.75653 0.46206 0.01498 0.0
C290 C 0.8051 0.43185 0.04087 0.0
C291 C 0.76628 0.38967 0.09952 0.0
C292 C 0.75617 0.40218 0.9955 0.0
O293 O 0.72494 0.41272 0.05781 0.0
O294 O 0.72149 0.45491 0.03737 0.0
C295 C 0.74982 0.50576 0.05678 0.0
N296 N 0.76352 0.4955 0.03413 0.0
C297 C 0.79507 0.53423 0.03206 0.0
C298 C 0.78114 0.54531 0.05524 0.0
C299 C 0.75845 0.53097 0.06769 0.0
C300 C 0.78548 0.50905 0.02208 0.0
H301 H 0.7325 0.49474 0.0665 0.0
C302 C 0.71114 0.43463 0.05139 0.0
O303 O 0.76313 0.37288 0.07933 0.0
O304 O 0.77006 0.41577 0.094 0.0
N305 N 0.78906 0.47146 0.99264 0.0
C306 C 0.80067 0.45772 0.97073 0.0
C307 C 0.82375 0.46922 0.95612 0.0
C308 C 0.83451 0.49481 0.96401 0.0
C309 C 0.82197 0.50878 0.98634 0.0
C310 C 0.79882 0.49646 0.99996 0.0
H311 H 0.7925 0.43811 0.96443 0.0
O312 O 0.80915 0.40696 0.05078 0.0
O313 O 0.77919 0.44118 0.04079 0.0
O314 O 0.76436 0.39041 0.01735 0.0
O315 O 0.75013 0.42827 0.99345 0.0
C316 C 0.83175 0.53429 0.99582 0.0
C317 C 0.81837 0.54696 0.01871 0.0
H318 H 0.78782 0.56469 0.06378 0.0
H319 H 0.7477 0.53931 0.08568 0.0
H320 H 0.83329 0.45831 0.93889 0.0
H321 H 0.85252 0.50345 0.95288 0.0
H322 H 0.84975 0.54419 0.98583 0.0
H323 H 0.82629 0.56641 0.026 0.0
Mn324 Mn 0.90568 0.54502 0.26123 0.0
Mn325 Mn 0.85114 0.54337 0.30697 0.0
C326 C 0.88653 0.50306 0.27344 0.0
C327 C 0.92115 0.55227 0.21677 0.0
C328 C 0.91214 0.55181 0.32167 0.0
O329 O 0.89242 0.58524 0.2638 0.0
O330 O 0.85169 0.58026 0.28838 0.0
C331 C 0.80414 0.54649 0.26887 0.0
N332 N 0.81741 0.53327 0.28963 0.0
C333 C 0.7823 0.49768 0.29226 0.0
C334 C 0.76803 0.51116 0.27118 0.0
C335 C 0.77908 0.53559 0.25934 0.0
C336 C 0.80724 0.50947 0.30082 0.0
H337 H 0.81271 0.56511 0.25956 0.0
C338 C 0.869 0.59469 0.27373 0.0
O339 O 0.9377 0.55607 0.23684 0.0
O340 O 0.89565 0.54414 0.22259 0.0
N341 N 0.84768 0.50868 0.32639 0.0
C342 C 0.86427 0.4979 0.34618 0.0
C343 C 0.85622 0.47339 0.36002 0.0
C344 C 0.83104 0.46037 0.35362 0.0
C345 C 0.8141 0.47204 0.33347 0.0
C346 C 0.82307 0.49666 0.32054 0.0
H347 H 0.88349 0.50792 0.35146 0.0
O348 O 0.91143 0.5037 0.26151 0.0
O349 O 0.87339 0.5268 0.27686 0.0
O350 O 0.92318 0.54746 0.29808 0.0
O351 O 0.88541 0.55293 0.32676 0.0
C352 C 0.78878 0.46008 0.32554 0.0
C353 C 0.77299 0.4728 0.30483 0.0
H354 H 0.74872 0.50279 0.26375 0.0
H355 H 0.76834 0.54597 0.24289 0.0
H356 H 0.8694 0.46453 0.37558 0.0
H357 H 0.82504 0.44132 0.36416 0.0
H358 H 0.78146 0.44092 0.33501 0.0
H359 H 0.75378 0.46319 0.29864 0.0
Mn360 Mn 0.77719 0.67046 0.54991 0.0
Mn361 Mn 0.7763 0.61907 0.50258 0.0
C362 C 0.73375 0.64762 0.54044 0.0
C363 C 0.78239 0.68698 0.59667 0.0
C364 C 0.78006 0.68073 0.48595 0.0
O365 O 0.81952 0.65716 0.5465 0.0
O366 O 0.81576 0.62343 0.51547 0.0
C367 C 0.79045 0.57156 0.53903 0.0
N368 N 0.77289 0.58382 0.52087 0.0
C369 C 0.74234 0.54432 0.52267 0.0
C370 C 0.7602 0.5312 0.54125 0.0
C371 C 0.7843 0.54493 0.54953 0.0
C372 C 0.74951 0.57089 0.51295 0.0
H373 H 0.809 0.582 0.54549 0.0
C374 C 0.83046 0.63736 0.53181 0.0
O375 O 0.78644 0.70269 0.57531 0.0
O376 O 0.77572 0.66163 0.59102 0.0
N377 N 0.7401 0.61159 0.48839 0.0
C378 C 0.72429 0.6276 0.47135 0.0
C379 C 0.69927 0.61702 0.46142 0.0
C380 C 0.6908 0.59005 0.46899 0.0
C381 C 0.70749 0.57388 0.48639 0.0
C382 C 0.73235 0.58545 0.49546 0.0
H383 H 0.73049 0.64841 0.46567 0.0
O384 O 0.73389 0.6724 0.55079 0.0
O385 O 0.75898 0.63717 0.53525 0.0
O386 O 0.77995 0.68989 0.51057 0.0
O387 O 0.77898 0.65464 0.48107 0.0
C388 C 0.70016 0.54693 0.49547 0.0
C389 C 0.71753 0.5322 0.51367 0.0
H390 H 0.75552 0.51068 0.54942 0.0
H391 H 0.79812 0.535 0.56397 0.0
H392 H 0.68644 0.62969 0.44811 0.0
H393 H 0.67133 0.58208 0.46153 0.0
H394 H 0.68098 0.53753 0.48894 0.0
H395 H 0.71145 0.51167 0.52084 0.0
Mn396 Mn 0.64415 0.53381 0.81894 0.0
Mn397 Mn 0.70834 0.53556 0.84652 0.0
C398 C 0.66026 0.5749 0.83545 0.0
C399 C 0.61928 0.53557 0.77902 0.0
C400 C 0.65622 0.51284 0.87627 0.0
O401 O 0.66287 0.49765 0.80675 0.0
O402 O 0.70638 0.50282 0.82264 0.0
C403 C 0.74283 0.54602 0.79615 0.0
N404 N 0.73442 0.55353 0.82183 0.0
C405 C 0.76649 0.59181 0.82082 0.0
C406 C 0.7756 0.58441 0.79442 0.0
C407 C 0.7636 0.5615 0.78198 0.0
C408 C 0.74552 0.57577 0.83382 0.0
H409 H 0.73377 0.52834 0.78657 0.0
C410 C 0.68853 0.4898 0.80887 0.0
O411 O 0.60873 0.52332 0.80074 0.0
O412 O 0.6436 0.54704 0.78091 0.0
N413 N 0.71366 0.56657 0.86979 0.0
C414 C 0.70151 0.57188 0.89476 0.0
C415 C 0.71064 0.59456 0.90967 0.0
C416 C 0.73233 0.6114 0.89888 0.0
C417 C 0.74462 0.60546 0.87321 0.0
C418 C 0.73467 0.58257 0.8593 0.0
H419 H 0.68485 0.55906 0.90316 0.0
O420 O 0.63346 0.5722 0.83167 0.0
O421 O 0.67656 0.55382 0.82887 0.0
O422 O 0.63854 0.51804 0.85768 0.0
O423 O 0.68268 0.51759 0.87355 0.0
C424 C 0.76616 0.62155 0.86075 0.0
C425 C 0.77706 0.61475 0.83457 0.0
H426 H 0.79164 0.59628 0.78343 0.0
H427 H 0.77043 0.55573 0.76156 0.0
H428 H 0.70097 0.59905 0.92943 0.0
H429 H 0.73922 0.62895 0.91038 0.0
H430 H 0.77419 0.63945 0.87097 0.0
H431 H 0.79328 0.62755 0.82502 0.0
Mn432 Mn 0.04013 0.80391 0.90863 0.0
Mn433 Mn 0.99426 0.80805 0.9627 0.0
C434 C 0.03094 0.8482 0.92976 0.0
C435 C 0.08598 0.79671 0.88662 0.0
C436 C 0.97456 0.79977 0.90455 0.0
O437 O 0.03891 0.76272 0.92387 0.0
O438 O 0.01001 0.76865 0.96088 0.0
C439 C 0.0337 0.79924 1.00751 0.0
N440 N 0.01379 0.81531 0.9951 0.0
C441 C 0.01557 0.85032 0.02956 0.0
C442 C 0.03596 0.83405 0.0428 0.0
C443 C 0.04511 0.80843 0.03169 0.0
C444 C 1.00491 0.84004 1.00557 0.0
H445 H 0.04086 0.77958 0.999 0.0
C446 C 0.02625 0.75315 0.94563 0.0
O447 O 0.06251 0.79222 0.87489 0.0
O448 O 0.08318 0.80482 0.9117 0.0
N449 N 0.97771 0.84451 0.96725 0.0
C450 C 0.95931 0.85851 0.95105 0.0
C451 C 0.94863 0.88482 0.95893 0.0
C452 C 0.95694 0.8964 0.98336 0.0
C453 C 0.97598 0.88169 0.99964 0.0
C454 C 0.9857 0.85543 0.99089 0.0
H455 H 0.95283 0.8497 0.93225 0.0
O456 O 0.03965 0.84624 0.9045 0.0
O457 O 0.02689 0.82398 0.94167 0.0
O458 O 0.99928 0.8016 0.89324 0.0
O459 O 0.97086 0.80094 0.93041 0.0
C460 C 0.986 0.89224 0.02399 0.0
C461 C 1.00581 0.87657 0.03893 0.0
H462 H 0.04492 0.84114 0.06137 0.0
H463 H 0.06095 0.79583 0.04172 0.0
H464 H 0.934 0.89614 0.94623 0.0
H465 H 0.94863 0.91659 0.98942 0.0
H466 H 0.97892 0.91255 0.0312 0.0
H467 H 0.01371 0.88509 0.05739 0.0
Mn468 Mn 0.02847 0.31973 0.66815 0.0
Mn469 Mn 0.99937 0.29216 0.61358 0.0
C470 C 0.04488 0.27747 0.65243 0.0
C471 C 0.06107 0.34698 0.68827 0.0
C472 C 0.97073 0.29474 0.66953 0.0
O473 O 1.00735 0.35227 0.65112 0.0
O474 O 0.99531 0.33336 0.6115 0.0
C475 C 0.03824 0.31282 0.56971 0.0
N476 N 0.0256 0.29117 0.58314 0.0
C477 C 0.04766 0.25794 0.55245 0.0
C478 C 0.06076 0.2799 0.53815 0.0
C479 C 0.05613 0.30744 0.5469 0.0
C480 C 0.03021 0.26457 0.57513 0.0
H481 H 0.03471 0.334 0.57638 0.0
C482 C 0.99729 0.35412 0.62743 0.0
O483 O 0.03695 0.34152 0.70033 0.0
O484 O 0.06506 0.33877 0.66333 0.0
N485 N 1.00229 0.25228 0.61311 0.0
C486 C 0.98922 0.23338 0.62993 0.0
C487 C 0.99216 0.20481 0.62432 0.0
C488 C 1.00818 0.19598 0.60132 0.0
C489 C 0.02132 0.2158 0.58424 0.0
C490 C 0.01766 0.24398 0.59086 0.0
H491 H 0.97658 0.24003 0.64744 0.0
O492 O 0.04928 0.28446 0.67726 0.0
O493 O 0.03124 0.29545 0.63765 0.0
O494 O 0.99192 0.30318 0.68179 0.0
O495 O 0.9705 0.29165 0.64381 0.0
C496 C 0.03814 0.20869 0.56106 0.0
C497 C 0.05148 0.22972 0.54529 0.0
H498 H 0.07455 0.27584 0.52054 0.0
H499 H 0.06628 0.32448 0.53606 0.0
H500 H 0.98203 0.18962 0.63765 0.0
H501 H 0.01049 0.17392 0.59712 0.0
H502 H 0.04128 0.18708 0.55541 0.0
H503 H 0.06479 0.22395 0.52781 0.0
Mn504 Mn 0.52528 0.28401 0.41736 0.0
Mn505 Mn 0.52326 0.327 0.36212 0.0
C506 C 0.48112 0.29401 0.39571 0.0
C507 C 0.52948 0.23742 0.43769 0.0
C508 C 0.53193 0.3488 0.42003 0.0
O509 O 0.56755 0.28413 0.40238 0.0
O510 O 0.56188 0.30902 0.3636 0.0
C511 C 0.52954 0.28543 0.31822 0.0
N512 N 0.51489 0.30703 0.33013 0.0
C513 C 0.48042 0.30729 0.29533 0.0
C514 C 0.49545 0.28538 0.28244 0.0
C515 C 0.52003 0.27431 0.29403 0.0
C516 C 0.49099 0.31759 0.31936 0.0
H517 H 0.54823 0.27665 0.32724 0.0
C518 C 0.57726 0.29416 0.37947 0.0
O519 O 0.53471 0.25989 0.45082 0.0
O520 O 0.52289 0.24185 0.41262 0.0
N521 N 0.48733 0.34539 0.35776 0.0
C522 C 0.47394 0.36476 0.37396 0.0
C523 C 0.44821 0.3769 0.36602 0.0
C524 C 0.43656 0.36912 0.34147 0.0
C525 C 0.45074 0.34922 0.32509 0.0
C526 C 0.47642 0.33797 0.33396 0.0
H527 H 0.48274 0.37084 0.39286 0.0
O528 O 0.48192 0.28586 0.42093 0.0
O529 O 0.50612 0.29695 0.38426 0.0
O530 O 0.52893 0.32517 0.43245 0.0
O531 O 0.5313 0.35062 0.39404 0.0
C532 C 0.44011 0.33969 0.30059 0.0
C533 C 0.45496 0.31877 0.2857 0.0
H534 H 0.48807 0.27661 0.26388 0.0
H535 H 0.53155 0.25716 0.28438 0.0
H536 H 0.43734 0.39218 0.37882 0.0
H537 H 0.4166 0.37838 0.33551 0.0
H538 H 0.42025 0.3479 0.29332 0.0
H539 H 0.44627 0.31121 0.26719 0.0
Mn540 Mn 0.53123 0.80323 0.14384 0.0
Mn541 Mn 0.50367 0.77337 0.08936 0.0
C542 C 0.54435 0.7587 0.13238 0.0
C543 C 0.56561 0.82744 0.1653 0.0
C544 C 0.47063 0.784 0.14216 0.0
O545 O 0.51602 0.83608 0.12225 0.0
O546 O 0.50239 0.81446 0.08435 0.0
C547 C 0.54649 0.78842 0.04666 0.0
N548 N 0.53181 0.76859 0.06088 0.0
C549 C 0.55411 0.73189 0.03441 0.0
C550 C 0.56936 0.75193 0.01936 0.0
C551 C 0.56561 0.7803 0.02559 0.0
C552 C 0.5354 0.74122 0.0552 0.0
H553 H 0.54365 0.81023 0.0514 0.0
C554 C 0.50623 0.83636 0.09834 0.0
O555 O 0.53995 0.82617 0.17541 0.0
O556 O 0.57047 0.81714 0.14126 0.0
N557 N 0.50419 0.7335 0.09199 0.0
C558 C 0.48938 0.71673 0.10966 0.0
C559 C 0.49157 0.68764 0.10686 0.0
C560 C 0.50873 0.67613 0.0858 0.0
C561 C 0.52369 0.69381 0.06782 0.0
C562 C 0.5207 0.72263 0.07162 0.0
H563 H 0.47603 0.72547 0.12578 0.0
O564 O 0.54653 0.76679 0.15725 0.0
O565 O 0.53383 0.77658 0.11535 0.0
O566 O 0.49138 0.79267 0.15505 0.0
O567 O 0.47263 0.7768 0.11729 0.0
C568 C 0.54185 0.68398 0.04657 0.0
C569 C 0.55713 0.70299 0.02994 0.0
H570 H 0.58417 0.74576 1.00314 0.0
H571 H 0.57741 0.79588 0.01416 0.0
H572 H 0.48005 0.67413 0.1209 0.0
H573 H 0.51049 0.65369 0.08381 0.0
H574 H 0.54462 0.6618 0.04317 0.0
H575 H 0.57143 0.69515 0.014 0.0
Mn576 Mn 0.91046 0.0648 0.77311 0.0
Mn577 Mn 0.85355 0.04263 0.80981 0.0
C578 C 0.90196 0.01826 0.77702 0.0
C579 C 0.93035 0.07975 0.73216 0.0
C580 C 0.9067 0.06325 0.83462 0.0
O581 O 0.88646 0.09955 0.77791 0.0
O582 O 0.847 0.08219 0.79862 0.0
C583 C 0.81171 0.04404 0.7665 0.0
N584 N 0.82587 0.0296 0.78592 0.0
C585 C 0.80087 0.98772 0.7769 0.0
C586 C 0.78586 1.00222 0.75695 0.0
C587 C 0.79141 0.03046 0.75163 0.0
C588 C 0.82097 1.00231 0.79094 0.0
H589 H 0.81594 0.06574 0.76236 0.0
C590 C 0.86131 0.1021 0.78779 0.0
O591 O 0.94166 0.08591 0.75494 0.0
O592 O 0.90687 0.06627 0.73347 0.0
N593 N 0.85709 0.00455 0.82162 0.0
C594 C 0.87439 0.99321 0.84055 0.0
C595 C 0.87208 0.96489 0.84769 0.0
C596 C 0.8519 0.94856 0.83546 0.0
C597 C 0.83421 0.96072 0.81617 0.0
C598 C 0.83741 0.98908 0.80994 0.0
H599 H 0.88984 0.00567 0.85012 0.0
O600 O 0.92718 0.02648 0.77016 0.0
O601 O 0.8827 0.03755 0.7811 0.0
O602 O 0.92076 0.06675 0.81236 0.0
O603 O 0.88121 0.05491 0.83615 0.0
C604 C 0.81371 0.94575 0.80268 0.0
C605 C 0.79708 0.95924 0.78304 0.0
H606 H 0.77023 0.9918 0.74539 0.0
H607 H 0.78005 0.04174 0.73613 0.0
H608 H 0.88581 0.95567 0.86261 0.0
H609 H 0.85025 0.9267 0.84094 0.0
H610 H 0.81086 0.92377 0.80696 0.0
H611 H 0.78173 0.94739 0.77248 0.0
Mn612 Mn 0.80608 0.16646 0.514 0.0
Mn613 Mn 0.78851 0.11068 0.47798 0.0
C614 C 0.75979 0.15349 0.51251 0.0
C615 C 0.81675 0.18686 0.5544 0.0
C616 C 0.80453 0.16604 0.45239 0.0
O617 O 0.84369 0.14598 0.50839 0.0
O618 O 0.8293 0.10801 0.48631 0.0
C619 C 0.79566 0.06713 0.52045 0.0
N620 N 0.77888 0.08095 0.50261 0.0
C621 C 0.73837 0.05456 0.5176 0.0
C622 C 0.75527 0.03994 0.536 0.0
C623 C 0.78404 0.04625 0.53742 0.0
C624 C 0.75119 0.07496 0.501 0.0
H625 H 0.8177 0.07215 0.52184 0.0
C626 C 0.84847 0.12247 0.49697 0.0
O627 O 0.82287 0.19907 0.53128 0.0
O628 O 0.80709 0.1618 0.55382 0.0
N629 N 0.74939 0.11119 0.4692 0.0
C630 C 0.73569 0.12812 0.45129 0.0
C631 C 0.70664 0.12481 0.44774 0.0
C632 C 0.69195 0.10427 0.46275 0.0
C633 C 0.70652 0.08702 0.48096 0.0
C634 C 0.7356 0.0909 0.48322 0.0
H635 H 0.74683 0.14411 0.43989 0.0
O636 O 0.76572 0.17899 0.51801 0.0
O637 O 0.78116 0.13676 0.50748 0.0
O638 O 0.80772 0.1787 0.47456 0.0
O639 O 0.79742 0.14055 0.45117 0.0
C640 C 0.69322 0.06655 0.4974 0.0
C641 C 0.70913 0.05028 0.51564 0.0
H642 H 0.74632 0.02405 0.54935 0.0
H643 H 0.79717 0.03518 0.55171 0.0
H644 H 0.69555 0.1382 0.43363 0.0
H645 H 0.66946 0.10204 0.46024 0.0
H646 H 0.67067 0.06351 0.49652 0.0
H647 H 0.69858 0.03486 0.52842 0.0
Mn648 Mn 0.64256 0.01841 0.30309 0.0
Mn649 Mn 0.69858 0.03981 0.33675 0.0
C650 C 0.65602 0.06376 0.29928 0.0
C651 C 0.62375 0.99972 0.26511 0.0
C652 C 0.64155 0.02735 0.36356 0.0
O653 O 0.66235 0.98265 0.31399 0.0
O654 O 0.70244 0.99895 0.33107 0.0
C655 C 0.74405 0.02996 0.29488 0.0
N656 N 0.72927 0.04775 0.3117 0.0
C657 C 0.75698 0.0866 0.29583 0.0
C658 C 0.77261 0.06866 0.27845 0.0
C659 C 0.76608 0.04024 0.27794 0.0
C660 C 0.73532 0.07515 0.31229 0.0
H661 H 0.73898 0.00814 0.29435 0.0
C662 C 0.6867 0.97905 0.32394 0.0
O663 O 0.61024 0.9986 0.28854 0.0
O664 O 0.64886 0.01011 0.26419 0.0
N665 N 0.69708 0.07911 0.34317 0.0
C666 C 0.67924 0.09381 0.36027 0.0
C667 C 0.6826 0.12267 0.36281 0.0
C668 C 0.70427 0.13609 0.34779 0.0
C669 C 0.7225 0.12049 0.33049 0.0
C670 C 0.71836 0.09174 0.32906 0.0
H671 H 0.66256 0.08362 0.37188 0.0
O672 O 0.6305 0.05717 0.29351 0.0
O673 O 0.6727 0.04354 0.30686 0.0
O674 O 0.62863 0.02362 0.3418 0.0
O675 O 0.66787 0.03266 0.36414 0.0
C676 C 0.74435 0.13241 0.31431 0.0
C677 C 0.7616 0.11548 0.297 0.0
H678 H 0.78948 0.07653 0.26521 0.0
H679 H 0.77795 0.0263 0.26446 0.0
H680 H 0.66848 0.13455 0.37627 0.0
H681 H 0.70664 0.15839 0.34962 0.0
H682 H 0.7478 0.15463 0.31475 0.0
H683 H 0.77808 0.12497 0.28439 0.0
Mn684 Mn 0.79986 0.90827 0.04392 0.0
Mn685 Mn 0.80018 0.96391 1.00032 0.0
C686 C 0.84295 0.93365 0.03399 0.0
C687 C 0.79383 0.88607 0.08891 0.0
C688 C 0.79502 0.90404 0.98 0.0
O689 O 0.75724 0.92142 0.04383 0.0
O690 O 0.76109 0.95944 0.01656 0.0
C691 C 0.78918 0.00827 0.04086 0.0
N692 N 0.80579 0.99703 0.02047 0.0
C693 C 0.83946 0.03369 0.02345 0.0
C694 C 0.82262 0.04574 0.04437 0.0
C695 C 0.79741 0.03293 0.05315 0.0
C696 C 0.83024 0.00903 0.01206 0.0
H697 H 0.76986 0.99843 0.04777 0.0
C698 C 0.74639 0.94321 0.03221 0.0
O699 O 0.79037 0.87332 0.06629 0.0
O700 O 0.80065 0.91205 0.08576 0.0
N701 N 0.83646 0.97104 0.9834 0.0
C702 C 0.85056 0.95652 0.96331 0.0
C703 C 0.87591 0.96687 0.95183 0.0
C704 C 0.88648 0.99205 0.96105 0.0
C705 C 0.87157 0.00668 0.98168 0.0
C706 C 0.8462 0.99556 0.99207 0.0
H707 H 0.84248 0.93725 0.95596 0.0
O708 O 0.84354 0.90791 0.0426 0.0
O709 O 0.81734 0.94308 0.03067 0.0
O710 O 0.79765 0.89275 1.00375 0.0
O711 O 0.79499 0.93058 0.97679 0.0
C712 C 0.88109 0.03166 0.9926 0.0
C713 C 0.86514 0.04505 0.0136 0.0
H714 H 0.82889 0.06475 0.05391 0.0
H715 H 0.78437 0.04204 0.06938 0.0
H716 H 0.88731 0.95543 0.93594 0.0
H717 H 0.90616 0.99984 0.95232 0.0
H718 H 0.90078 0.04059 0.98518 0.0
H719 H 0.87283 0.06407 0.02205 0.0
Mn720 Mn 0.31894 0.66461 1.00707 0.0
Mn721 Mn 0.31209 0.60197 0.97806 0.0
C722 C 0.27758 0.64124 0.01272 0.0
C723 C 0.32989 0.69208 0.04302 0.0
C724 C 0.31018 0.65619 0.94679 0.0
O725 O 0.35935 0.65331 0.99839 0.0
O726 O 0.35288 0.61088 0.98057 0.0
C727 C 0.33639 0.56641 0.02127 0.0
N728 N 0.31431 0.57342 1.00537 0.0
C729 C 0.2856 0.53762 0.0261 0.0
C730 C 0.30808 0.52991 0.04259 0.0
C731 C 0.33358 0.54438 0.04017 0.0
C732 C 0.28973 0.55955 1.00743 0.0
H733 H 0.35596 0.57758 0.01959 0.0
C734 C 0.36873 0.63069 0.98787 0.0
O735 O 0.32946 0.70233 0.01848 0.0
O736 O 0.32591 0.66556 0.04624 0.0
N737 N 0.2736 0.59121 0.97501 0.0
C738 C 0.25336 0.60248 0.95894 0.0
C739 C 0.22624 0.59107 0.95967 0.0
C740 C 0.22026 0.56819 0.97686 0.0
C741 C 0.24149 0.55684 0.99306 0.0
C742 C 0.26819 0.56892 0.9913 0.0
H743 H 0.25778 0.62023 0.94589 0.0
O744 O 0.27782 0.66808 0.01533 0.0
O745 O 0.30159 0.62883 1.00649 0.0
O746 O 0.31311 0.67176 0.96715 0.0
O747 O 0.30902 0.6297 0.94833 0.0
C748 C 0.237 0.53444 0.0114 0.0
C749 C 0.25904 0.52484 0.02789 0.0
H750 H 0.30592 0.5131 0.05737 0.0
H751 H 0.35098 0.53864 0.05293 0.0
H752 H 0.20993 0.59999 0.94717 0.0
H753 H 0.19923 0.55966 0.97765 0.0
H754 H 0.21655 0.52474 0.01327 0.0
H755 H 0.25521 0.50786 0.04218 0.0
Mn756 Mn 0.15063 0.52591 0.79754 0.0
Mn757 Mn 0.21238 0.5436 0.82416 0.0
C758 C 0.16925 0.56868 0.78802 0.0
C759 C 0.12582 0.50699 0.76285 0.0
C760 C 0.15707 0.54099 0.85673 0.0
O761 O 0.16715 0.48887 0.80963 0.0
O762 O 0.20971 0.5024 0.82347 0.0
C763 C 0.25198 0.52245 0.78092 0.0
N764 N 0.24161 0.54395 0.79636 0.0
C765 C 0.27449 0.57575 0.77504 0.0
C766 C 0.28562 0.55391 0.75899 0.0
C767 C 0.27425 0.52717 0.7619 0.0
C768 C 0.2523 0.56979 0.79365 0.0
H769 H 0.24328 0.50187 0.78313 0.0
C770 C 0.19158 0.48366 0.81886 0.0
O771 O 0.11449 0.50923 0.78719 0.0
O772 O 0.15195 0.51415 0.75921 0.0
N773 N 0.21743 0.58304 0.82572 0.0
C774 C 0.20345 0.60207 0.84187 0.0
C775 C 0.21183 0.62999 0.84101 0.0
C776 C 0.23459 0.63801 0.82374 0.0
C777 C 0.24882 0.618 0.80752 0.0
C778 C 0.23961 0.59046 0.80933 0.0
H779 H 0.186 0.596 0.85524 0.0
O780 O 0.14242 0.56493 0.78554 0.0
O781 O 0.18419 0.54744 0.79624 0.0
O782 O 0.14154 0.53548 0.83698 0.0
O783 O 0.18373 0.54428 0.85424 0.0
C784 C 0.27147 0.62438 0.78929 0.0
C785 C 0.28425 0.60329 0.773 0.0
H786 H 0.30274 0.55748 0.74423 0.0
H787 H 0.28266 0.51024 0.74951 0.0
H788 H 0.20073 0.64532 0.85358 0.0
H789 H 0.24081 0.65962 0.82294 0.0
H790 H 0.27896 0.64552 0.78736 0.0
H791 H 0.30138 0.60853 0.75878 0.0
Mn792 Mn 0.2977 0.41107 0.54076 0.0
Mn793 Mn 0.30326 0.46546 0.49579 0.0
C794 C 0.34262 0.43223 0.53108 0.0
C795 C 0.29063 0.39031 0.58632 0.0
C796 C 0.29564 0.40582 0.47649 0.0
O797 O 0.25598 0.42668 0.53948 0.0
O798 O 0.26299 0.46213 0.5095 0.0
C799 C 0.29053 0.51107 0.53461 0.0
N800 N 0.30821 0.49895 0.51555 0.0
C801 C 0.34181 0.53561 0.51891 0.0
C802 C 0.32388 0.54857 0.53847 0.0
C803 C 0.29817 0.5362 0.54639 0.0
C804 C 0.33308 0.51059 0.50789 0.0
H805 H 0.27079 0.5016 0.5408 0.0
C806 C 0.24681 0.44771 0.52552 0.0
O807 O 0.28592 0.37733 0.56405 0.0
O808 O 0.29873 0.4158 0.58244 0.0
N809 N 0.34062 0.47149 0.48091 0.0
C810 C 0.35603 0.45576 0.46262 0.0
C811 C 0.38256 0.46498 0.45295 0.0
C812 C 0.39288 0.49033 0.46202 0.0
C813 C 0.37649 0.50633 0.48057 0.0
C814 C 0.35012 0.49618 0.48934 0.0
H815 H 0.3482 0.43626 0.45555 0.0
O816 O 0.34079 0.40666 0.53985 0.0
O817 O 0.31814 0.44434 0.52724 0.0
O818 O 0.29497 0.39502 0.50071 0.0
O819 O 0.29881 0.432 0.47264 0.0
C820 C 0.38548 0.53174 0.49101 0.0
C821 C 0.36818 0.54634 0.51022 0.0
H822 H 0.32972 0.56791 0.54766 0.0
H823 H 0.28428 0.54601 0.56156 0.0
H824 H 0.39507 0.45252 0.43862 0.0
H825 H 0.41349 0.49721 0.45474 0.0
H826 H 0.40583 0.54004 0.4847 0.0
H827 H 0.37549 0.56564 0.5184 0.0
Mn828 Mn 0.40912 0.56685 0.26848 0.0
Mn829 Mn 0.3556 0.53819 0.30556 0.0
C830 C 0.40075 0.5202 0.26574 0.0
C831 C 0.42689 0.58687 0.22854 0.0
C832 C 0.4103 0.55583 0.32942 0.0
O833 O 0.38426 0.60002 0.2785 0.0
O834 O 0.34777 0.57883 0.301 0.0
C835 C 0.30997 0.5458 0.26637 0.0
N836 N 0.32607 0.52866 0.28208 0.0
C837 C 0.30147 0.48824 0.26785 0.0
C838 C 0.28452 0.50549 0.25165 0.0
C839 C 0.28886 0.53438 0.25084 0.0
C840 C 0.32226 0.5008 0.28279 0.0
H841 H 0.31326 0.56801 0.26568 0.0
C842 C 0.36014 0.60035 0.29097 0.0
O843 O 0.43921 0.59036 0.25139 0.0
O844 O 0.40327 0.57362 0.22951 0.0
N845 N 0.3607 0.49879 0.31096 0.0
C846 C 0.37976 0.48489 0.32653 0.0
C847 C 0.37857 0.45574 0.32917 0.0
C848 C 0.35769 0.44121 0.31597 0.0
C849 C 0.33827 0.45596 0.30009 0.0
C850 C 0.34043 0.48501 0.29827 0.0
H851 H 0.39574 0.49595 0.33689 0.0
O852 O 0.42575 0.52938 0.25941 0.0
O853 O 0.38203 0.53847 0.2742 0.0
O854 O 0.42228 0.5636 0.30712 0.0
O855 O 0.38522 0.54651 0.33128 0.0
C856 C 0.31711 0.44293 0.2857 0.0
C857 C 0.29882 0.45905 0.26946 0.0
H858 H 0.26823 0.49677 0.23961 0.0
H859 H 0.27595 0.5478 0.23827 0.0
H860 H 0.39371 0.4445 0.34138 0.0
H861 H 0.35692 0.41872 0.31794 0.0
H862 H 0.315 0.4205 0.28663 0.0
H863 H 0.28295 0.44875 0.25812 0.0
Co864 Co 0.03814 0.05117 0.01997 0.0
C865 C 0.03142 0.08945 0.0648 0.0
Co866 Co 0.04234 0.03152 0.05963 0.0
C867 C 0.01606 0.06427 0.96835 0.0
C868 C 0.04547 0.09465 0.98035 0.0
N869 N 0.03389 0.07015 0.98795 0.0
N870 N 0.01559 0.08433 0.94903 0.0
C871 C 0.03427 0.10341 0.95625 0.0
H872 H 1.00323 0.04586 0.96855 0.0
H873 H 0.0602 0.10596 0.99211 0.0
C874 C 0.04902 0.99356 0.01418 0.0
N875 N 0.04633 0.01257 0.09199 0.0
C876 C 0.05983 0.02026 0.1142 0.0
C877 C 0.03558 0.98741 0.09839 0.0
N878 N 0.05788 1.00088 0.13428 0.0
C879 C 0.0426 0.98018 0.12441 0.0
C880 C 0.98682 0.02631 0.04001 0.0
O881 O 0.04579 0.01599 1.00028 0.0
O882 O 0.05033 0.99605 0.03995 0.0
O883 O 1.00179 0.02155 0.06067 0.0
O884 O 0.99797 0.04086 0.02072 0.0
O885 O 0.03444 0.06731 0.07926 0.0
H886 H 0.02339 0.97509 0.08498 0.0
H887 H 0.07052 0.03987 0.11571 0.0
O888 O 0.03034 0.08629 0.03916 0.0
O889 O 0.07809 0.06124 0.01892 0.0
O890 O 0.08311 0.04144 0.05859 0.0
C891 C 0.09368 0.05621 0.03903 0.0
H892 H 0.03856 0.1228 0.94555 0.0
H893 H 0.03725 0.96102 0.13505 0.0
Co894 Co 0.29397 0.80324 0.2783 0.0
C895 C 0.29247 0.7489 0.26416 0.0
Co896 Co 0.27296 0.79797 0.23977 0.0
C897 C 0.29572 0.82917 0.32906 0.0
C898 C 0.32578 0.79522 0.3274 0.0
N899 N 0.30709 0.80965 0.31232 0.0
N900 N 0.30624 0.82751 0.35395 0.0
C901 C 0.32512 0.8061 0.35327 0.0
H902 H 0.27861 0.84329 0.32366 0.0
H903 H 0.3381 0.77727 0.32044 0.0
C904 C 0.27426 0.85228 0.25418 0.0
N905 N 0.25962 0.79236 0.20579 0.0
C906 C 0.27434 0.77777 0.18677 0.0
C907 C 0.23747 0.80374 0.19287 0.0
N908 N 0.26287 0.77981 0.16223 0.0
C909 C 0.23945 0.79606 0.1659 0.0
C910 C 0.23512 0.79547 0.28176 0.0
O911 O 0.28833 0.84167 0.27325 0.0
O912 O 0.26492 0.83652 0.23626 0.0
O913 O 0.23645 0.79283 0.25609 0.0
O914 O 0.25746 0.80042 0.29412 0.0
O915 O 0.28088 0.75923 0.24337 0.0
H916 H 0.22174 0.81768 0.20212 0.0
H917 H 0.29421 0.76719 0.19067 0.0
O918 O 0.29952 0.76478 0.28302 0.0
O919 O 0.33051 0.8058 0.26273 0.0
O920 O 0.30989 0.80296 0.22377 0.0
C921 C 0.33228 0.80496 0.237 0.0
H922 H 0.337 0.79853 0.37034 0.0
H923 H 0.22518 0.8025 0.15021 0.0
Co924 Co 0.52126 0.03569 0.53828 0.0
C925 C 0.537 0.09104 0.52579 0.0
Co926 Co 0.55756 0.04745 0.56145 0.0
C927 C 0.46706 0.01361 0.53345 0.0
C928 C 0.48515 0.02262 0.49393 0.0
N929 N 0.49 0.0244 0.52071 0.0
N930 N 0.4481 0.00513 0.51591 0.0
C931 C 0.45928 0.01047 0.4909 0.0
H932 H 0.46468 0.01098 0.55529 0.0
H933 H 0.4997 0.02913 0.47773 0.0
C934 C 0.54233 0.992 0.57352 0.0
N935 N 0.58876 0.05848 0.57905 0.0
C936 C 0.60945 0.07342 0.567 0.0
C937 C 0.59734 0.0532 0.60447 0.0
N938 N 0.63072 0.07779 0.58364 0.0
C939 C 0.62344 0.06498 0.60731 0.0
C940 C 0.50755 0.05916 0.5884 0.0
O941 O 0.52323 0.9987 0.55677 0.0
O942 O 0.56031 0.01049 0.57866 0.0
O943 O 0.53413 0.06 0.59054 0.0
O944 O 0.49759 0.04966 0.56693 0.0
O945 O 0.55463 0.08458 0.54401 0.0
H946 H 0.58569 0.04115 0.61966 0.0
H947 H 0.60943 0.07999 0.54588 0.0
O948 O 0.51952 0.07244 0.51951 0.0
O949 O 0.54477 0.02211 0.51002 0.0
O950 O 0.58136 0.03492 0.53229 0.0
C951 C 0.5713 0.02448 0.51132 0.0
H952 H 0.44949 0.00584 0.47198 0.0
H953 H 0.63611 0.064 0.62518 0.0
Co954 Co 0.30821 0.30156 0.79244 0.0
C955 C 0.29065 0.32311 0.74117 0.0
Co956 Co 0.26563 0.2887 0.78357 0.0
C957 C 0.35614 0.30938 0.82359 0.0
C958 C 0.36771 0.30687 0.78125 0.0
N959 N 0.34523 0.30883 0.79878 0.0
N960 N 0.38443 0.30624 0.82252 0.0
C961 C 0.39195 0.3051 0.79587 0.0
H962 H 0.34341 0.30878 0.84228 0.0
H963 H 0.36641 0.30398 0.75958 0.0
C964 C 0.28309 0.26636 0.8346 0.0
N965 N 0.22859 0.28179 0.77775 0.0
C966 C 0.21017 0.30115 0.76869 0.0
C967 C 0.21286 0.25954 0.78478 0.0
N968 N 0.18351 0.29219 0.77008 0.0
C969 C 0.1849 0.26596 0.78012 0.0
C970 C 0.30355 0.25198 0.76355 0.0
O971 O 0.3053 0.27964 0.82748 0.0
O972 O 0.26274 0.26754 0.81828 0.0
O973 O 0.27706 0.25619 0.76579 0.0
O974 O 0.32012 0.26907 0.77379 0.0
O975 O 0.26866 0.3094 0.74824 0.0
H976 H 0.22104 0.24037 0.79358 0.0
H977 H 0.21604 0.32202 0.76243 0.0
O978 O 0.31075 0.32309 0.75787 0.0
O979 O 0.29665 0.33398 0.81083 0.0
O980 O 0.25391 0.3216 0.80168 0.0
C981 C 0.27023 0.33868 0.81222 0.0
H982 H 0.41313 0.30092 0.78766 0.0
H983 H 0.16704 0.25254 0.7839 0.0
Co984 Co 0.03197 0.029 0.54542 0.0
C985 C 0.01093 0.05492 0.59131 0.0
Co986 Co 0.05323 0.06806 0.55346 0.0
C987 C 0.02906 0.97277 0.53048 0.0
C988 C 0.98735 0.99054 0.53541 0.0
N989 N 0.01492 0.9961 0.53821 0.0
N990 N 0.01165 0.95301 0.52247 0.0
C991 C 0.98529 0.96395 0.52543 0.0
H992 H 0.05192 0.97106 0.52883 0.0
H993 H 0.97008 0.00533 0.539 0.0
C994 C 0.07439 0.0416 0.50774 0.0
N995 N 0.0708 0.10086 0.56007 0.0
C996 C 0.07487 0.11218 0.58445 0.0
C997 C 0.07926 0.12019 0.54167 0.0
N998 N 0.08466 0.13837 0.5822 0.0
C999 C 0.08775 0.14324 0.55515 0.0
C1000 C 0.07975 0.02214 0.57566 0.0
O1001 O 0.05511 0.02449 0.51373 0.0
O1002 O 0.07694 0.06297 0.52223 0.0
O1003 O 0.08034 0.04852 0.57375 0.0
O1004 O 0.05947 0.00942 0.56553 0.0
O1005 O 0.02953 0.07274 0.58492 0.0
H1006 H 0.07761 0.11837 0.51991 0.0
H1007 H 0.06916 0.10182 0.60341 0.0
O1008 O 0.00876 0.03342 0.57686 0.0
O1009 O 1.00498 0.04856 0.5254 0.0
O1010 O 0.02579 0.08789 0.53297 0.0
C1011 C 1.00575 0.07485 0.52273 0.0
H1012 H 0.96612 0.95386 0.51987 0.0
H1013 H 0.09332 0.16284 0.54552 0.0
Co1014 Co 0.29784 0.8097 0.79564 0.0
C1015 C 0.24233 0.79851 0.81198 0.0
Co1016 Co 0.28265 0.7744 0.7733 0.0
C1017 C 0.3275 0.85843 0.79763 0.0
C1018 C 0.31552 0.84663 0.83839 0.0
N1019 N 0.3131 0.83931 0.81221 0.0
N1020 N 0.33877 0.87753 0.81326 0.0
C1021 C 0.33146 0.87045 0.83909 0.0
H1022 H 0.33012 0.85814 0.7757 0.0
H1023 H 0.30654 0.83534 0.85568 0.0
C1024 C 0.3388 0.786 0.75814 0.0
N1025 N 0.2681 0.74504 0.75561 0.0
C1026 C 0.24909 0.72734 0.76643 0.0
C1027 C 0.27178 0.73754 0.72937 0.0
N1028 N 0.24039 0.70929 0.74804 0.0
C1029 C 0.25482 0.71523 0.72469 0.0
C1030 C 0.27288 0.82406 0.74717 0.0
O1031 O 0.33355 0.8044 0.77599 0.0
O1032 O 0.31901 0.76952 0.75279 0.0
O1033 O 0.26969 0.79803 0.746 0.0
O1034 O 0.28465 0.83401 0.76752 0.0
O1035 O 0.24636 0.7797 0.79404 0.0
H1036 H 0.28546 0.74794 0.71455 0.0
H1037 H 0.24184 0.72753 0.78755 0.0
O1038 O 0.26252 0.81497 0.81593 0.0
O1039 O 0.31065 0.78584 0.82306 0.0
O1040 O 0.29556 0.75012 0.80081 0.0
C1041 C 0.30734 0.75978 0.82131 0.0
H1042 H 0.33669 0.88195 0.85694 0.0
H1043 H 0.25287 0.70454 0.70564 0.0
Co1044 Co 0.53543 0.02892 0.01521 0.0
C1045 C 0.5868 0.01097 0.03616 0.0
Co1046 Co 0.53914 0.044 0.05654 0.0
C1047 C 0.50629 0.01578 0.96834 0.0
C1048 C 0.55031 0.02132 0.95888 0.0
N1049 N 0.53139 0.01858 0.97982 0.0
N1050 N 0.50823 0.01891 0.9412 0.0
C1051 C 0.53604 0.02169 0.93501 0.0
H1052 H 0.48639 0.0155 0.97986 0.0
H1053 H 0.57233 0.02626 0.96094 0.0
C1054 C 0.48775 0.06239 0.03408 0.0
N1055 N 0.54243 0.05435 0.09186 0.0
C1056 C 0.55087 0.0374 0.11207 0.0
C1057 C 0.53422 0.07839 0.10397 0.0
N1058 N 0.548 0.04968 0.13641 0.0
C1059 C 0.53757 0.07553 0.13156 0.0
C1060 C 0.56175 0.07975 0.01918 0.0
O1061 O 0.49878 0.04794 0.01485 0.0
O1062 O 0.50189 0.06426 0.05553 0.0
O1063 O 0.55758 0.07608 0.04453 0.0
O1064 O 0.55294 0.06193 1.00285 0.0
O1065 O 0.57675 0.0238 0.05716 0.0
H1066 H 0.5257 0.0965 0.09352 0.0
H1067 H 0.55796 0.01601 0.10909 0.0
O1068 O 0.57171 0.01056 0.01533 0.0
O1069 O 0.51808 0.99579 0.02761 0.0
O1070 O 0.52074 0.01181 0.06881 0.0
C1071 C 0.51337 0.99289 0.05302 0.0
H1072 H 0.54501 0.02675 0.91506 0.0
H1073 H 0.5328 0.09117 0.1468 0.0
Co1074 Co 0.28203 0.28005 0.29845 0.0
C1075 C 0.34029 0.28763 0.30411 0.0
Co1076 Co 0.29675 0.31393 0.27261 0.0
C1077 C 0.25109 0.23213 0.30848 0.0
C1078 C 0.26908 0.245 0.34543 0.0
N1079 N 0.26777 0.25132 0.31869 0.0
N1080 N 0.242 0.21395 0.32749 0.0
C1081 C 0.25307 0.22174 0.35094 0.0
H1082 H 0.2455 0.23149 0.28737 0.0
H1083 H 0.28086 0.25648 0.35985 0.0
C1084 C 0.23814 0.30577 0.26715 0.0
N1085 N 0.31064 0.34243 0.25163 0.0
C1086 C 0.33161 0.35925 0.2581 0.0
C1087 C 0.3049 0.34904 0.22566 0.0
N1088 N 0.33953 0.3759 0.23716 0.0
C1089 C 0.32257 0.36991 0.21674 0.0
C1090 C 0.29637 0.26392 0.243 0.0
O1091 O 0.24352 0.28819 0.286 0.0
O1092 O 0.25836 0.32118 0.25869 0.0
O1093 O 0.30353 0.2893 0.24153 0.0
O1094 O 0.28795 0.25485 0.2664 0.0
O1095 O 0.33521 0.30638 0.28621 0.0
H1096 H 0.28933 0.33892 0.21384 0.0
H1097 H 0.34076 0.35947 0.27795 0.0
O1098 O 0.32009 0.27173 0.31146 0.0
O1099 O 0.2764 0.30461 0.32987 0.0
O1100 O 0.29014 0.33944 0.30419 0.0
C1101 C 0.28281 0.33023 0.32795 0.0
H1102 H 0.25048 0.21094 0.37028 0.0
H1103 H 0.32305 0.37978 0.19684 0.0
Co1104 Co 0.52333 0.50992 0.05261 0.0
C1105 C 0.50586 0.54612 0.09276 0.0
Co1106 Co 0.55065 0.54608 0.05485 0.0
C1107 C 0.50994 0.45391 0.04763 0.0
C1108 C 0.47207 0.47898 0.04712 0.0
N1109 N 0.50023 0.48018 0.05025 0.0
N1110 N 0.48934 0.43623 0.04231 0.0
C1111 C 0.46532 0.4518 0.04181 0.0
H1112 H 0.53224 0.44829 0.04689 0.0
H1113 H 0.45779 0.49689 0.04689 0.0
C1114 C 0.56666 0.51012 0.0135 0.0
N1115 N 0.5743 0.57561 0.05795 0.0
C1116 C 0.56646 0.60019 0.06884 0.0
C1117 C 0.6029 0.5754 0.05728 0.0
N1118 N 0.58876 0.61476 0.07615 0.0
C1119 C 0.61191 0.59966 0.06865 0.0
C1120 C 0.5682 0.50073 0.08555 0.0
O1121 O 0.54559 0.49663 0.02267 0.0
O1122 O 0.57322 0.53257 0.0249 0.0
O1123 O 0.5732 0.52573 0.07881 0.0
O1124 O 0.54643 0.48936 0.07681 0.0
O1125 O 0.5276 0.55932 0.0848 0.0
H1126 H 0.61618 0.55768 0.05147 0.0
H1127 H 0.54472 0.60631 0.07372 0.0
O1128 O 0.50051 0.52323 0.08172 0.0
O1129 O 0.50122 0.53003 0.02831 0.0
O1130 O 0.52794 0.56675 0.0305 0.0
C1131 C 0.50705 0.55465 0.02071 0.0
H1132 H 0.44489 0.44442 0.03623 0.0
H1133 H 0.6334 0.60459 0.07332 0.0
Co1134 Co 0.7866 0.29139 0.28537 0.0
C1135 C 0.7304 0.27589 0.29926 0.0
Co1136 Co 0.77333 0.25629 0.26145 0.0
C1137 C 0.81146 0.34306 0.29553 0.0
C1138 C 0.79926 0.32254 0.33285 0.0
N1139 N 0.79852 0.32034 0.30556 0.0
N1140 N 0.82053 0.35925 0.31535 0.0
C1141 C 0.81308 0.34654 0.33896 0.0
H1142 H 0.81523 0.34711 0.27402 0.0
H1143 H 0.79102 0.30732 0.3473 0.0
C1144 C 0.8292 0.27242 0.24699 0.0
N1145 N 0.76175 0.22697 0.24161 0.0
C1146 C 0.74547 0.20657 0.25186 0.0
C1147 C 0.76721 0.22017 0.21538 0.0
N1148 N 0.74029 0.18733 0.23325 0.0
C1149 C 0.75412 0.19545 0.21021 0.0
C1150 C 0.76115 0.30664 0.23769 0.0
O1151 O 0.82384 0.29011 0.26571 0.0
O1152 O 0.80997 0.25513 0.24203 0.0
O1153 O 0.75967 0.28051 0.23548 0.0
O1154 O 0.77256 0.31675 0.25829 0.0
O1155 O 0.73636 0.25824 0.28065 0.0
H1156 H 0.78004 0.23223 0.20111 0.0
H1157 H 0.73821 0.20539 0.27295 0.0
O1158 O 0.74954 0.2929 0.30517 0.0
O1159 O 0.80027 0.2661 0.31165 0.0
O1160 O 0.78686 0.23107 0.28769 0.0
C1161 C 0.79795 0.24004 0.30878 0.0
H1162 H 0.81742 0.35402 0.35901 0.0
H1163 H 0.75466 0.18437 0.19117 0.0
Co1164 Co 0.03795 0.53317 0.51306 0.0
C1165 C 0.0879 0.51589 0.53821 0.0
Co1166 Co 0.0376 0.54642 0.5555 0.0
C1167 C 0.02379 0.53797 0.45736 0.0
C1168 C 0.04835 0.50085 0.46464 0.0
N1169 N 0.03741 0.52383 0.47692 0.0
N1170 N 0.0253 0.52459 0.43347 0.0
C1171 C 0.04096 0.50129 0.43783 0.0
H1172 H 0.01231 0.55744 0.46075 0.0
H1173 H 0.05996 0.48432 0.47477 0.0
C1174 C 0.98761 0.5636 0.5303 0.0
N1175 N 0.0376 0.55537 0.59167 0.0
C1176 C 0.04545 0.53824 0.61205 0.0
C1177 C 0.02853 0.57909 0.60385 0.0
N1178 N 0.04165 0.55021 0.63655 0.0
C1179 C 0.031 0.57597 0.63153 0.0
C1180 C 0.06081 0.58517 0.521 0.0
O1181 O 1.00011 0.55041 0.51081 0.0
O1182 O 1.00042 0.56499 0.55254 0.0
O1183 O 0.05533 0.57991 0.54595 0.0
O1184 O 0.05458 0.56754 0.50326 0.0
O1185 O 0.07504 0.52778 0.55837 0.0
H1186 H 0.02059 0.59738 0.5933 0.0
H1187 H 0.05345 0.51717 0.60895 0.0
O1188 O 0.07551 0.51602 0.51566 0.0
O1189 O 0.02133 0.49881 0.52284 0.0
O1190 O 0.01975 0.51296 0.56495 0.0
C1191 C 0.01455 0.49456 0.54769 0.0
H1192 H 0.04536 0.48501 0.42316 0.0
H1193 H 0.02597 0.59164 0.64668 0.0
Co1194 Co 0.8055 0.79524 0.29491 0.0
C1195 C 0.78889 0.81519 0.24225 0.0
Co1196 Co 0.76217 0.78457 0.28592 0.0
C1197 C 0.86063 0.78503 0.3141 0.0
C1198 C 0.85865 0.82312 0.291 0.0
N1199 N 0.84281 0.80174 0.30036 0.0
N1200 N 0.88692 0.79503 0.31362 0.0
C1201 C 0.88597 0.81895 0.29908 0.0
H1202 H 0.85457 0.7657 0.32406 0.0
H1203 H 0.85084 0.84062 0.27918 0.0
C1204 C 0.77907 0.7644 0.33861 0.0
N1205 N 0.72458 0.7785 0.28034 0.0
C1206 C 0.70684 0.79625 0.26763 0.0
C1207 C 0.70844 0.75701 0.28879 0.0
N1208 N 0.68027 0.78682 0.26782 0.0
C1209 C 0.68106 0.76214 0.28115 0.0
C1210 C 0.79836 0.74389 0.26958 0.0
O1211 O 0.80178 0.77681 0.33137 0.0
O1212 O 0.75899 0.76528 0.32186 0.0
O1213 O 0.77233 0.75067 0.26995 0.0
O1214 O 0.81595 0.76049 0.27914 0.0
O1215 O 0.76584 0.80349 0.24968 0.0
H1216 H 0.71605 0.73888 0.29981 0.0
H1217 H 0.71316 0.81603 0.25877 0.0
O1218 O 0.809 0.8138 0.25886 0.0
O1219 O 0.79524 0.82963 0.31058 0.0
O1220 O 0.75179 0.81861 0.3022 0.0
C1221 C 0.76902 0.83557 0.31164 0.0
H1222 H 0.90355 0.8327 0.29525 0.0
H1223 H 0.66327 0.74855 0.28458 0.0
Co1224 Co 0.78377 0.30225 0.78624 0.0
C1225 C 0.78133 0.24734 0.77318 0.0
Co1226 Co 0.76023 0.29564 0.7491 0.0
C1227 C 0.7877 0.32113 0.84074 0.0
C1228 C 0.82485 0.29789 0.82816 0.0
N1229 N 0.79999 0.30793 0.81925 0.0
N1230 N 0.80361 0.31953 0.86293 0.0
C1231 C 0.82716 0.30501 0.85501 0.0
H1232 H 0.76687 0.33082 0.84031 0.0
H1233 H 0.83995 0.28555 0.81615 0.0
C1234 C 0.76343 0.35067 0.76281 0.0
N1235 N 0.745 0.28958 0.71584 0.0
C1236 C 0.75796 0.27278 0.69739 0.0
C1237 C 0.7243 0.3029 0.70236 0.0
N1238 N 0.74686 0.27529 0.67273 0.0
C1239 C 0.72549 0.2942 0.67564 0.0
C1240 C 0.72486 0.29454 0.79258 0.0
O1241 O 0.77802 0.34061 0.78183 0.0
O1242 O 0.75281 0.33455 0.7458 0.0
O1243 O 0.72521 0.29144 0.76702 0.0
O1244 O 0.74773 0.29941 0.80425 0.0
O1245 O 0.76769 0.25651 0.7531 0.0
H1246 H 0.71053 0.31909 0.71086 0.0
H1247 H 0.77694 0.26069 0.70146 0.0
O1248 O 0.78974 0.26419 0.79057 0.0
O1249 O 0.81935 0.30471 0.76781 0.0
O1250 O 0.7955 0.30002 0.73096 0.0
C1251 C 0.81886 0.30306 0.74213 0.0
H1252 H 0.84473 0.29966 0.86768 0.0
H1253 H 0.71247 0.30201 0.65948 0.0
Co1254 Co 0.78344 0.77891 0.79905 0.0
C1255 C 0.84062 0.79375 0.8036 0.0
Co1256 Co 0.79315 0.81602 0.77554 0.0
C1257 C 0.75905 0.72695 0.80988 0.0
C1258 C 0.77877 0.74161 0.84529 0.0
N1259 N 0.77446 0.74782 0.81892 0.0
N1260 N 0.75331 0.70802 0.82947 0.0
C1261 C 0.76552 0.71699 0.85193 0.0
H1262 H 0.75118 0.72617 0.78953 0.0
H1263 H 0.79019 0.75443 0.8589 0.0
C1264 C 0.73569 0.80102 0.77169 0.0
N1265 N 0.80145 0.84659 0.75467 0.0
C1266 C 0.8188 0.86731 0.76026 0.0
C1267 C 0.79316 0.85182 0.72912 0.0
N1268 N 0.82196 0.88518 0.73911 0.0
C1269 C 0.80571 0.87568 0.7195 0.0
C1270 C 0.79737 0.76771 0.74255 0.0
O1271 O 0.74353 0.78298 0.78924 0.0
O1272 O 0.75385 0.81876 0.76351 0.0
O1273 O 0.80199 0.79362 0.74382 0.0
O1274 O 0.79005 0.75553 0.76497 0.0
O1275 O 0.83263 0.81316 0.7874 0.0
H1276 H 0.77935 0.83877 0.718 0.0
H1277 H 0.82879 0.86925 0.77957 0.0
O1278 O 0.82294 0.77473 0.80964 0.0
O1279 O 0.77709 0.80207 0.83223 0.0
O1280 O 0.78464 0.8395 0.80774 0.0
C1281 C 0.78003 0.82849 0.83128 0.0
H1282 H 0.76485 0.70655 0.87156 0.0
H1283 H 0.80341 0.88502 0.69955 0.0
Co1284 Co 0.53785 0.54552 0.52071 0.0
C1285 C 0.53225 0.58372 0.56484 0.0
Co1286 Co 0.5432 0.52548 0.56029 0.0
C1287 C 0.51672 0.5561 0.46809 0.0
C1288 C 0.54468 0.58797 0.47974 0.0
N1289 N 0.53329 0.56367 0.4882 0.0
N1290 N 0.51706 0.57479 0.44746 0.0
C1291 C 0.53476 0.59484 0.45456 0.0
H1292 H 0.50454 0.53724 0.46866 0.0
H1293 H 0.5588 0.60017 0.49138 0.0
C1294 C 0.54902 0.48759 0.51509 0.0
N1295 N 0.54749 0.50742 0.59342 0.0
C1296 C 0.55645 0.51806 0.61674 0.0
C1297 C 0.53991 0.48118 0.59995 0.0
N1298 N 0.55465 0.49958 0.63769 0.0
C1299 C 0.54436 0.47627 0.62706 0.0
C1300 C 0.48703 0.52146 0.54232 0.0
O1301 O 0.54559 0.51023 0.50159 0.0
O1302 O 0.55043 0.48963 0.54093 0.0
O1303 O 0.50291 0.51627 0.56222 0.0
O1304 O 0.49743 0.5355 0.52229 0.0
O1305 O 0.53591 0.5616 0.57912 0.0
H1306 H 0.53109 0.4667 0.58605 0.0
H1307 H 0.56334 0.53929 0.61843 0.0
O1308 O 0.53031 0.58078 0.53927 0.0
O1309 O 0.57779 0.55556 0.5193 0.0
O1310 O 0.58378 0.53491 0.5585 0.0
C1311 C 0.59381 0.55009 0.53902 0.0
H1312 H 0.53947 0.61351 0.44283 0.0
H1313 H 0.54025 0.457 0.63799 0.0
Co1314 Co 0.01677 0.53969 0.02664 0.0
C1315 C 0.03092 0.59612 0.01363 0.0
Co1316 Co 0.05589 0.5519 0.04483 0.0
C1317 C 0.96297 0.51512 0.01938 0.0
C1318 C 0.98009 0.53365 0.98273 0.0
N1319 N 0.98499 0.52972 0.0094 0.0
N1320 N 0.94483 0.50947 0.99988 0.0
C1321 C 0.95541 0.52091 0.97675 0.0
H1322 H 0.9608 0.50786 0.04026 0.0
H1323 H 0.994 0.54445 0.96841 0.0
C1324 C 0.04107 0.49539 0.05827 0.0
N1325 N 0.08841 0.56248 0.06041 0.0
C1326 C 0.10774 0.57819 0.04725 0.0
C1327 C 0.0991 0.55694 0.08498 0.0
N1328 N 0.13009 0.58294 0.06238 0.0
C1329 C 0.12507 0.56945 0.08619 0.0
C1330 C 1.00796 0.56152 0.07735 0.0
O1331 O 0.02062 0.50172 0.04288 0.0
O1332 O 0.05938 0.51419 0.06171 0.0
O1333 O 0.0346 0.5641 0.07546 0.0
O1334 O 0.99517 0.55105 0.05777 0.0
O1335 O 0.05214 0.58967 0.02785 0.0
H1336 H 0.08887 0.54444 0.10076 0.0
H1337 H 0.10588 0.58531 0.02642 0.0
O1338 O 0.01249 0.57745 0.01091 0.0
O1339 O 0.03843 0.52835 0.99557 0.0
O1340 O 0.07749 0.53993 0.01422 0.0
C1341 C 0.06501 0.53065 0.99406 0.0
H1342 H 0.94603 0.51991 0.95705 0.0
H1343 H 0.13907 0.56871 0.1031 0.0
H1344 H 0.05724 0.21772 0.09054 0.0
H1345 H 0.01819 0.19633 0.16806 0.0
H1346 H 0.01202 0.1484 0.15295 0.0
H1347 H 0.01697 0.11152 0.11694 0.0
H1348 H 0.05322 0.13473 0.03847 0.0
H1349 H 0.06109 0.18163 0.05451 0.0
C1350 C 0.04687 0.20278 0.10401 0.0
C1351 C 0.03727 0.21151 0.13028 0.0
C1352 C 0.04294 0.1749 0.09492 0.0
C1353 C 0.02527 0.1909 0.1476 0.0
C1354 C 0.02169 0.16323 0.13888 0.0
C1355 C 0.02634 0.12685 0.10321 0.0
C1356 C 0.03414 0.1189 0.07613 0.0
C1357 C 0.03021 0.15481 0.11244 0.0
C1358 C 0.04646 0.13965 0.05914 0.0
C1359 C 0.0512 0.16678 0.06841 0.0
H1360 H 0.11541 0.77344 0.33696 0.0
H1361 H 0.15916 0.79937 0.40757 0.0
H1362 H 0.20224 0.80601 0.37955 0.0
H1363 H 0.22703 0.80462 0.3354 0.0
H1364 H 0.18358 0.77925 0.2644 0.0
H1365 H 0.14035 0.77245 0.29239 0.0
C1366 C 0.13441 0.78042 0.34626 0.0
C1367 C 0.13421 0.78581 0.3743 0.0
C1368 C 0.15892 0.78444 0.33002 0.0
C1369 C 0.15886 0.79504 0.38604 0.0
C1370 C 0.18343 0.79888 0.37004 0.0
C1371 C 0.20814 0.7976 0.32593 0.0
C1372 C 0.20849 0.79235 0.29785 0.0
C1373 C 0.18361 0.7937 0.34205 0.0
C1374 C 0.18379 0.78345 0.28595 0.0
C1375 C 0.15915 0.77949 0.30195 0.0
H1376 H 0.56769 0.87479 0.6351 0.0
H1377 H 0.49211 0.85323 0.59421 0.0
H1378 H 0.48838 0.89995 0.57526 0.0
H1379 H 0.50655 0.94744 0.5684 0.0
H1380 H 0.58186 0.97049 0.60854 0.0
H1381 H 0.5854 0.9238 0.62908 0.0
C1382 C 0.55024 0.88032 0.62229 0.0
C1383 C 0.53032 0.85966 0.61632 0.0
C1384 C 0.5481 0.90797 0.61086 0.0
C1385 C 0.50807 0.86793 0.59933 0.0
C1386 C 0.5058 0.89498 0.5883 0.0
C1387 C 0.52377 0.94241 0.58167 0.0
C1388 C 0.54391 0.96303 0.5866 0.0
C1389 C 0.52576 0.91521 0.5936 0.0
C1390 C 0.56593 0.9555 0.60408 0.0
C1391 C 0.568 0.92855 0.61596 0.0
H1392 H 0.44121 0.27688 0.93175 0.0
H1393 H 0.49377 0.22584 0.87829 0.0
H1394 H 0.46291 0.23688 0.84072 0.0
H1395 H 0.42615 0.26735 0.82171 0.0
H1396 H 0.37798 0.32337 0.87424 0.0
H1397 H 0.40289 0.30524 0.91354 0.0
C1398 C 0.44569 0.2678 0.91211 0.0
C1399 C 0.47009 0.25122 0.90763 0.0
C1400 C 0.4294 0.2762 0.89021 0.0
C1401 C 0.47508 0.23884 0.88213 0.0
C1402 C 0.4578 0.24558 0.86055 0.0
C1403 C 0.42143 0.27587 0.84168 0.0
C1404 C 0.40075 0.29709 0.84506 0.0
C1405 C 0.43596 0.26553 0.86404 0.0
C1406 C 0.39408 0.30723 0.87121 0.0
C1407 C 0.40812 0.29673 0.89365 0.0
H1408 H 0.06877 0.84465 0.4754 0.0
H1409 H 1.00413 0.85645 0.41677 0.0
H1410 H 0.98709 0.89898 0.43989 0.0
H1411 H 0.98938 0.93111 0.47843 0.0
H1412 H 0.05494 0.9194 0.53626 0.0
H1413 H 0.07302 0.87829 0.51192 0.0
C1414 C 0.05097 0.85666 0.4678 0.0
C1415 C 0.03687 0.8473 0.44529 0.0
C1416 C 0.04151 0.88084 0.4811 0.0
C1417 C 0.01469 0.86329 0.43459 0.0
C1418 C 1.00498 0.88742 0.44781 0.0
C1419 C 1.00734 0.91924 0.48581 0.0
C1420 C 0.02059 0.92777 0.50925 0.0
C1421 C 0.01782 0.89597 0.47148 0.0
C1422 C 0.04441 0.91292 0.51829 0.0
C1423 C 0.05482 0.88962 0.50433 0.0
H1424 H 0.46793 0.79479 0.71564 0.0
H1425 H 0.43334 0.75726 0.6452 0.0
H1426 H 0.38734 0.7548 0.66821 0.0
H1427 H 0.35526 0.76427 0.70797 0.0
H1428 H 0.38815 0.8051 0.77723 0.0
H1429 H 0.43533 0.80521 0.75538 0.0
C1430 C 0.45042 0.78595 0.70534 0.0
C1431 C 0.45483 0.77602 0.67853 0.0
C1432 C 0.42311 0.78519 0.71859 0.0
C1433 C 0.4313 0.76498 0.66575 0.0
C1434 C 0.40461 0.76355 0.67894 0.0
C1435 C 0.37278 0.77298 0.71839 0.0
C1436 C 0.36783 0.78447 0.74443 0.0
C1437 C 0.40007 0.77368 0.70533 0.0
C1438 C 0.39101 0.79604 0.75724 0.0
C1439 C 0.4182 0.79614 0.74471 0.0
H1440 H 0.58252 0.20451 0.99896 0.0
H1441 H 0.56205 0.18178 0.91776 0.0
H1442 H 0.56717 0.13226 0.93001 0.0
H1443 H 0.56662 0.09697 0.96659 0.0
H1444 H 0.58379 0.12114 0.04855 0.0
H1445 H 0.59166 0.1688 0.03306 0.0
C1446 C 0.58011 0.18873 0.98374 0.0
C1447 C 0.57146 0.19636 0.95778 0.0
C1448 C 0.58213 0.1607 0.99121 0.0
C1449 C 0.56868 0.17602 0.93794 0.0
C1450 C 0.57133 0.14783 0.94503 0.0
C1451 C 0.57277 0.11253 0.98093 0.0
C1452 C 0.57362 0.10593 0.00879 0.0
C1453 C 0.57635 0.14006 0.97206 0.0
C1454 C 0.58228 0.12599 0.02709 0.0
C1455 C 0.58676 0.15323 0.01828 0.0
H1456 H 0.10878 0.29602 0.23264 0.0
H1457 H 0.14749 0.30289 0.15234 0.0
H1458 H 0.19379 0.30893 0.17208 0.0
H1459 H 0.22444 0.31123 0.21255 0.0
H1460 H 0.1861 0.29973 0.2925 0.0
H1461 H 0.13945 0.29679 0.27283 0.0
C1462 C 0.12727 0.29896 0.21935 0.0
C1463 C 0.12404 0.29916 0.19071 0.0
C1464 C 0.15437 0.30173 0.23099 0.0
C1465 C 0.14878 0.30263 0.17426 0.0
C1466 C 0.17549 0.30615 0.18565 0.0
C1467 C 0.20584 0.30851 0.22575 0.0
C1468 C 0.2092 0.30637 0.25434 0.0
C1469 C 0.17873 0.3057 0.21404 0.0
C1470 C 0.18458 0.30189 0.27066 0.0
C1471 C 0.15769 0.30007 0.25932 0.0
H1472 H 0.09407 0.99533 0.25545 0.0
H1473 H 0.16121 0.04613 0.2216 0.0
H1474 H 0.14146 0.04344 0.1767 0.0
H1475 H 0.10506 0.02702 0.14715 0.0
H1476 H 0.03745 0.97689 0.18078 0.0
H1477 H 0.05765 0.97869 0.22566 0.0
C1478 C 0.1044 0.00574 0.23823 0.0
C1479 C 0.12899 0.02094 0.24184 0.0
C1480 C 0.0929 0.00422 0.21245 0.0
C1481 C 0.14219 0.03432 0.21936 0.0
C1482 C 0.13093 0.03283 0.19367 0.0
C1483 C 0.0946 0.01674 0.16435 0.0
C1484 C 0.06977 1.00195 0.16068 0.0
C1485 C 0.10622 0.01797 0.19003 0.0
C1486 C 0.05676 0.9882 0.18304 0.0
C1487 C 0.0682 0.98933 0.20872 0.0
H1488 H 0.26239 0.91357 0.44052 0.0
H1489 H 0.26239 0.83922 0.49101 0.0
H1490 H 0.27682 0.81117 0.45187 0.0
H1491 H 0.29426 0.80837 0.40426 0.0
H1492 H 0.29471 0.88248 0.35402 0.0
H1493 H 0.27594 0.91019 0.39225 0.0
C1494 C 0.26506 0.89118 0.44295 0.0
C1495 C 0.26192 0.87871 0.46885 0.0
C1496 C 0.27424 0.87523 0.42055 0.0
C1497 C 0.26503 0.84954 0.47141 0.0
C1498 C 0.27355 0.83344 0.44908 0.0
C1499 C 0.29044 0.83062 0.40192 0.0
C1500 C 0.29632 0.84362 0.37677 0.0
C1501 C 0.27926 0.84622 0.42382 0.0
C1502 C 0.29055 0.87227 0.37346 0.0
C1503 C 0.27971 0.88801 0.3952 0.0
H1504 H 0.41725 0.06269 0.68418 0.0
H1505 H 0.48754 0.09668 0.72532 0.0
H1506 H 0.5154 0.09788 0.68257 0.0
H1507 H 0.52137 0.08424 0.6349 0.0
H1508 H 0.45101 0.04989 0.59398 0.0
H1509 H 0.42137 0.05431 0.63528 0.0
C1510 C 0.43857 0.07062 0.6837 0.0
C1511 C 0.45059 0.07909 0.7078 0.0
C1512 C 0.45443 0.0711 0.6592 0.0
C1513 C 0.47798 0.08984 0.70695 0.0
C1514 C 0.49392 0.09046 0.68258 0.0
C1515 C 0.49944 0.07809 0.63492 0.0
C1516 C 0.48854 0.0663 0.61165 0.0
C1517 C 0.48261 0.08038 0.65877 0.0
C1518 C 0.45997 0.05882 0.61176 0.0
C1519 C 0.44303 0.06122 0.63538 0.0
H1520 H 0.26381 0.17441 0.92964 0.0
H1521 H 0.30707 0.23427 0.97665 0.0
H1522 H 0.31237 0.26455 0.93626 0.0
H1523 H 0.30484 0.27458 0.88651 0.0
H1524 H 0.25683 0.21656 0.84166 0.0
H1525 H 0.25337 0.18577 0.88154 0.0
C1526 C 0.27431 0.19412 0.9313 0.0
C1527 C 0.28507 0.20157 0.95683 0.0
C1528 C 0.27652 0.21211 0.90789 0.0
C1529 C 0.29841 0.22757 0.95781 0.0
C1530 C 0.30153 0.24503 0.93445 0.0
C1531 C 0.2936 0.25521 0.8854 0.0
C1532 C 0.28128 0.24816 0.86043 0.0
C1533 C 0.29073 0.23763 0.9092 0.0
C1534 C 0.26655 0.22292 0.86012 0.0
C1535 C 0.26458 0.2051 0.88313 0.0
H1536 H 0.17546 0.02807 0.42327 0.0
H1537 H 0.11091 0.98867 0.37826 0.0
H1538 H 0.07854 0.99115 0.41802 0.0
H1539 H 0.06638 0.01119 0.46287 0.0
H1540 H 0.12899 0.05733 0.50411 0.0
H1541 H 0.16404 0.04667 0.46795 0.0
C1542 C 0.15439 0.01985 0.42206 0.0
C1543 C 0.14534 0.00901 0.39753 0.0
C1544 C 0.13526 0.02343 0.44405 0.0
C1545 C 0.11827 0.99756 0.39678 0.0
C1546 C 0.09965 0.99924 0.41939 0.0
C1547 C 0.08774 0.01882 0.46386 0.0
C1548 C 0.0951 0.03537 0.48572 0.0
C1549 C 0.10749 0.01336 0.44263 0.0
C1550 C 0.12278 0.04505 0.48707 0.0
C1551 C 0.14287 0.03873 0.4666 0.0
H1552 H 0.27503 0.90311 0.64507 0.0
H1553 H 0.23653 0.83125 0.61097 0.0
H1554 H 0.23283 0.80939 0.65584 0.0
H1555 H 0.24515 0.80847 0.70329 0.0
H1556 H 0.28631 0.8787 0.7375 0.0
H1557 H 0.28361 0.90384 0.69408 0.0
C1558 C 0.26556 0.8828 0.64754 0.0
C1559 C 0.25647 0.86859 0.62474 0.0
C1560 C 0.26394 0.87013 0.67334 0.0
C1561 C 0.24404 0.84242 0.62819 0.0
C1562 C 0.24185 0.82993 0.65382 0.0
C1563 C 0.25318 0.82946 0.70142 0.0
C1564 C 0.26629 0.84157 0.72338 0.0
C1565 C 0.25243 0.84327 0.67634 0.0
C1566 C 0.27623 0.86889 0.72079 0.0
C1567 C 0.27489 0.88317 0.69594 0.0
H1568 H 0.3953 0.05235 0.88655 0.0
H1569 H 0.45175 0.10696 0.8417 0.0
H1570 H 0.48974 0.09434 0.87197 0.0
H1571 H 0.50923 0.06088 0.90463 0.0
H1572 H 0.45481 1.00065 0.94422 0.0
H1573 H 0.4141 0.02061 0.92099 0.0
C1574 C 0.41591 0.06142 0.8833 0.0
C1575 C 0.42126 0.07903 0.86079 0.0
C1576 C 0.43838 0.05188 0.89886 0.0
C1577 C 0.44735 0.09256 0.85838 0.0
C1578 C 0.46925 0.08494 0.87532 0.0
C1579 C 0.48859 0.05177 0.90777 0.0
C1580 C 0.48509 0.02879 0.92543 0.0
C1581 C 0.4655 0.06318 0.89425 0.0
C1582 C 0.45797 0.01802 0.93026 0.0
C1583 C 0.43472 0.02962 0.91727 0.0
H1584 H 0.27756 0.17747 0.1455 0.0
H1585 H 0.3026 0.24943 0.09773 0.0
H1586 H 0.30908 0.27553 0.13898 0.0
H1587 H 0.30708 0.27939 0.1891 0.0
H1588 H 0.28161 0.20854 0.23802 0.0
H1589 H 0.2762 0.18131 0.19672 0.0
C1590 C 0.28451 0.19882 0.14403 0.0
C1591 C 0.28948 0.21108 0.11776 0.0
C1592 C 0.28828 0.21429 0.16846 0.0
C1593 C 0.29845 0.23899 0.11704 0.0
C1594 C 0.30224 0.25416 0.1409 0.0
C1595 C 0.30062 0.25789 0.19094 0.0
C1596 C 0.29512 0.24632 0.2173 0.0
C1597 C 0.29719 0.24221 0.1668 0.0
C1598 C 0.28636 0.21834 0.21849 0.0
C1599 C 0.28311 0.20264 0.19463 0.0
H1600 H 0.21855 0.10109 0.06089 0.0
H1601 H 0.18887 0.16902 0.01077 0.0
H1602 H 0.14389 0.14555 1.00567 0.0
H1603 H 0.11241 0.10529 0.01488 0.0
H1604 H 0.14012 0.03894 0.06802 0.0
H1605 H 0.18576 0.06168 0.07215 0.0
C1606 C 0.20233 0.11069 0.04867 0.0
C1607 C 0.2079 0.13664 0.03539 0.0
C1608 C 0.17583 0.09713 0.04628 0.0
C1609 C 0.18581 0.14899 0.02071 0.0
C1610 C 0.15991 0.13546 0.01778 0.0
C1611 C 0.12846 0.09556 0.02721 0.0
C1612 C 0.12248 0.06983 0.04072 0.0
C1613 C 0.15463 0.10937 0.03024 0.0
C1614 C 0.14373 0.05836 0.05712 0.0
C1615 C 0.16998 0.07155 0.0596 0.0
H1616 H 0.69279 0.47091 0.08909 0.0
H1617 H 0.66569 0.40452 0.03877 0.0
H1618 H 0.61619 0.41427 0.05281 0.0
H1619 H 0.58134 0.44782 0.07183 0.0
H1620 H 0.60902 0.51642 0.11925 0.0
H1621 H 0.65771 0.49871 0.11547 0.0
C1622 C 0.67596 0.45844 0.08157 0.0
C1623 C 0.68227 0.43772 0.06243 0.0
C1624 C 0.64785 0.46431 0.0896 0.0
C1625 C 0.66082 0.42094 0.05321 0.0
C1626 C 0.63269 0.42646 0.0613 0.0
C1627 C 0.59782 0.4581 0.08246 0.0
C1628 C 0.59189 0.48365 0.0953 0.0
C1629 C 0.62593 0.44888 0.07856 0.0
C1630 C 0.6133 0.4968 0.10907 0.0
C1631 C 0.64117 0.48698 0.10647 0.0
H1632 H 0.90111 0.46094 0.30707 0.0
H1633 H 0.84092 0.48669 0.24767 0.0
H1634 H 0.81543 0.4432 0.2547 0.0
H1635 H 0.80899 0.3993 0.2796 0.0
H1636 H 0.86627 0.37493 0.34199 0.0
H1637 H 0.8941 0.41683 0.33266 0.0
C1638 C 0.88247 0.45675 0.29572 0.0
C1639 C 0.87231 0.47672 0.27736 0.0
C1640 C 0.86743 0.43228 0.30065 0.0
C1641 C 0.84851 0.47146 0.26228 0.0
C1642 C 0.83406 0.44673 0.26626 0.0
C1643 C 0.82765 0.40325 0.29101 0.0
C1644 C 0.83582 0.38439 0.31131 0.0
C1645 C 0.84304 0.42729 0.28576 0.0
C1646 C 0.85967 0.38956 0.32642 0.0
C1647 C 0.87564 0.41323 0.32089 0.0
H1648 H 0.86318 0.60312 0.49828 0.0
H1649 H 0.86757 0.65018 0.57199 0.0
H1650 H 0.91572 0.63184 0.57837 0.0
H1651 H 0.95677 0.60092 0.56368 0.0
H1652 H 0.95188 0.55562 0.48887 0.0
H1653 H 0.90436 0.5746 0.48253 0.0
C1654 C 0.87459 0.60965 0.51573 0.0
C1655 C 0.8612 0.62824 0.53461 0.0
C1656 C 0.90251 0.59903 0.51924 0.0
C1657 C 0.87693 0.63619 0.55693 0.0
C1658 C 0.9046 0.6255 0.56069 0.0
C1659 C 0.94535 0.59519 0.54596 0.0
C1660 C 0.95834 0.57645 0.5269 0.0
C1661 C 0.91764 0.60665 0.54211 0.0
C1662 C 0.94288 0.56974 0.50401 0.0
C1663 C 0.91548 0.58066 0.50032 0.0
H1664 H 0.19909 0.09923 0.29319 0.0
H1665 H 0.14236 0.11184 0.36246 0.0
H1666 H 0.16044 0.15914 0.36796 0.0
H1667 H 0.19764 0.19367 0.35627 0.0
H1668 H 0.25316 0.17961 0.2862 0.0
H1669 H 0.23035 0.13579 0.27754 0.0
C1670 C 0.19047 0.1126 0.30924 0.0
C1671 C 0.17053 0.10231 0.32811 0.0
C1672 C 0.20094 0.13916 0.31215 0.0
C1673 C 0.15837 0.11964 0.3482 0.0
C1674 C 0.16873 0.14645 0.35133 0.0
C1675 C 0.20437 0.18095 0.33908 0.0
C1676 C 0.22715 0.18924 0.32212 0.0
C1677 C 0.19094 0.15589 0.33409 0.0
C1678 C 0.23563 0.17329 0.29946 0.0
C1679 C 0.22263 0.14837 0.29449 0.0
H1680 H 0.33296 0.96127 0.56306 0.0
H1681 H 0.35197 0.89634 0.50528 0.0
H1682 H 0.39662 0.91867 0.49171 0.0
H1683 H 0.42865 0.95849 0.49474 0.0
H1684 H 0.41038 0.02181 0.5544 0.0
H1685 H 0.36677 0.99853 0.56892 0.0
C1686 C 0.34703 0.95212 0.54755 0.0
C1687 C 0.33916 0.92804 0.53432 0.0
C1688 C 0.37251 0.96486 0.5402 0.0
C1689 C 0.3577 0.91538 0.51513 0.0
C1690 C 0.38305 0.92812 0.50739 0.0
C1691 C 0.41486 0.96714 0.51071 0.0
C1692 C 0.4221 0.99192 0.52324 0.0
C1693 C 0.39031 0.95325 0.51934 0.0
C1694 C 0.4048 1.00278 0.54448 0.0
C1695 C 0.38009 0.98944 0.55284 0.0
H1696 H 0.81663 0.61522 0.26574 0.0
H1697 H 0.90389 0.63896 0.26819 0.0
H1698 H 0.88983 0.68811 0.26308 0.0
H1699 H 0.85218 0.72406 0.26326 0.0
H1700 H 0.76496 0.69974 0.26035 0.0
H1701 H 0.7797 0.6508 0.25941 0.0
C1702 C 0.83256 0.63116 0.26492 0.0
C1703 C 0.8611 0.62377 0.26789 0.0
C1704 C 0.82437 0.6591 0.26175 0.0
C1705 C 0.88172 0.64439 0.26616 0.0
C1706 C 0.8737 0.67239 0.26327 0.0
C1707 C 0.83645 0.70806 0.26187 0.0
C1708 C 0.80754 0.71541 0.2624 0.0
C1709 C 0.845 0.67998 0.26177 0.0
C1710 C 0.78737 0.69457 0.26016 0.0
C1711 C 0.79573 0.66658 0.25985 0.0
H1712 H 0.74272 0.47187 0.80115 0.0
H1713 H 0.65689 0.45143 0.78338 0.0
H1714 H 0.67374 0.40815 0.76215 0.0
H1715 H 0.71219 0.37364 0.754 0.0
H1716 H 0.79709 0.39305 0.77523 0.0
H1717 H 0.78138 0.43973 0.78908 0.0
C1718 C 0.72763 0.45805 0.79257 0.0
C1719 C 0.69856 0.46455 0.7944 0.0
C1720 C 0.73736 0.43317 0.78078 0.0
C1721 C 0.67939 0.4467 0.7826 0.0
C1722 C 0.68899 0.42199 0.77039 0.0
C1723 C 0.72731 0.38851 0.7608 0.0
C1724 C 0.75565 0.38026 0.76363 0.0
C1725 C 0.71785 0.41471 0.77 0.0
C1726 C 0.77514 0.39925 0.77291 0.0
C1727 C 0.76614 0.42574 0.78104 0.0
H1728 H 0.05405 0.86411 0.97886 0.0
H1729 H 1.00863 0.89746 0.91116 0.0
H1730 H 0.01093 0.94443 0.92978 0.0
H1731 H 0.02629 0.97715 0.96529 0.0
H1732 H 0.06974 0.94358 0.03423 0.0
H1733 H 0.06763 0.89664 0.01553 0.0
C1734 C 0.04404 0.88151 0.96846 0.0
C1735 C 0.03034 0.87655 0.94375 0.0
C1736 C 0.04547 0.909 0.97947 0.0
C1737 C 0.0188 0.90006 0.9303 0.0
C1738 C 0.02022 0.92718 0.94098 0.0
C1739 C 0.03561 0.95968 0.97618 0.0
C1740 C 0.04875 0.96465 1.0012 0.0
C1741 C 0.03368 0.93212 0.9655 0.0
C1742 C 0.05986 0.94107 0.01494 0.0
C1743 C 0.05857 0.91393 1.00419 0.0
H1744 H 0.91706 0.30014 0.65287 0.0
H1745 H 0.96611 0.28202 0.72343 0.0
H1746 H 0.92327 0.28365 0.75251 0.0
H1747 H 0.87226 0.29271 0.75816 0.0
H1748 H 0.82337 0.31121 0.68753 0.0
H1749 H 0.86585 0.30731 0.65826 0.0
C1750 C 0.91826 0.29603 0.67453 0.0
C1751 C 0.94457 0.29108 0.68602 0.0
C1752 C 0.89371 0.29765 0.69119 0.0
C1753 C 0.94597 0.28605 0.71416 0.0
C1754 C 0.92157 0.28712 0.73082 0.0
C1755 C 0.87101 0.29614 0.7364 0.0
C1756 C 0.84491 0.30255 0.72505 0.0
C1757 C 0.89542 0.29353 0.71963 0.0
C1758 C 0.84338 0.30643 0.69677 0.0
C1759 C 0.86759 0.30407 0.67998 0.0
H1760 H 0.55075 0.21897 0.48721 0.0
H1761 H 0.50754 0.18958 0.41787 0.0
H1762 H 0.50495 0.14301 0.43848 0.0
H1763 H 0.51469 0.10962 0.47663 0.0
H1764 H 0.56057 0.13843 0.54457 0.0
H1765 H 0.56224 0.18517 0.52439 0.0
C1766 C 0.54081 0.20242 0.4765 0.0
C1767 C 0.52931 0.20838 0.45074 0.0
C1768 C 0.53974 0.17508 0.48844 0.0
C1769 C 0.5167 0.18613 0.4375 0.0
C1770 C 0.51512 0.15926 0.44941 0.0
C1771 C 0.52497 0.1261 0.48714 0.0
C1772 C 0.53725 0.11998 0.51252 0.0
C1773 C 0.52647 0.15332 0.47495 0.0
C1774 C 0.55079 0.142 0.52525 0.0
C1775 C 0.55178 0.169 0.51362 0.0
H1776 H 0.56481 0.82146 0.21966 0.0
H1777 H 0.61976 0.84176 0.15074 0.0
H1778 H 0.66117 0.83441 0.17859 0.0
H1779 H 0.68141 0.81404 0.21991 0.0
H1780 H 0.62606 0.78793 0.28642 0.0
H1781 H 0.58493 0.80533 0.2621 0.0
C1782 C 0.58579 0.8252 0.21094 0.0
C1783 C 0.5893 0.83211 0.1832 0.0
C1784 C 0.60938 0.81903 0.22648 0.0
C1785 C 0.61661 0.8365 0.17209 0.0
C1786 C 0.64025 0.83197 0.18792 0.0
C1787 C 0.66035 0.81274 0.22923 0.0
C1788 C 0.65656 0.79957 0.25475 0.0
C1789 C 0.63687 0.8219 0.21472 0.0
C1790 C 0.62926 0.79764 0.2666 0.0
C1791 C 0.60586 0.80769 0.25277 0.0
H1792 H 0.04231 0.22376 0.66857 0.0
H1793 H 0.08295 0.27915 0.61056 0.0
H1794 H 0.10569 0.23948 0.58719 0.0
H1795 H 0.10722 0.18958 0.57911 0.0
H1796 H 0.0606 0.13445 0.6336 0.0
H1797 H 0.04832 0.17305 0.66312 0.0
C1798 C 0.05647 0.22692 0.65101 0.0
C1799 C 0.06033 0.25381 0.64046 0.0
C1800 C 0.06849 0.20404 0.63714 0.0
C1801 C 0.07914 0.25825 0.61826 0.0
C1802 C 0.09223 0.23567 0.60509 0.0
C1803 C 0.0945 0.18583 0.59746 0.0
C1804 C 0.0839 0.15917 0.60317 0.0
C1805 C 0.08594 0.20846 0.61359 0.0
C1806 C 0.0687 0.15466 0.62797 0.0
C1807 C 0.06141 0.17688 0.64498 0.0
H1808 H 0.5979 0.28624 0.32734 0.0
H1809 H 0.62591 0.29051 0.40941 0.0
H1810 H 0.67542 0.28649 0.39248 0.0
H1811 H 0.71147 0.28293 0.35347 0.0
H1812 H 0.68162 0.27362 0.27244 0.0
H1813 H 0.63274 0.2784 0.28968 0.0
C1814 C 0.61472 0.28604 0.3417 0.0
C1815 C 0.60773 0.28881 0.36981 0.0
C1816 C 0.64319 0.28298 0.33181 0.0
C1817 C 0.63025 0.28828 0.38779 0.0
C1818 C 0.65873 0.28614 0.37801 0.0
C1819 C 0.69425 0.28194 0.33961 0.0
C1820 C 0.70059 0.27821 0.31141 0.0
C1821 C 0.6656 0.2837 0.34995 0.0
C1822 C 0.67771 0.27651 0.29406 0.0
C1823 C 0.64959 0.27927 0.30396 0.0
H1824 H 0.49654 0.88561 0.12338 0.0
H1825 H 0.5031 0.84806 0.04409 0.0
H1826 H 0.50114 0.89406 0.02253 0.0
H1827 H 0.50464 0.94474 0.02652 0.0
H1828 H 0.49935 0.98192 0.10606 0.0
H1829 H 0.49316 0.93621 0.12713 0.0
C1830 C 0.49725 0.88749 0.10138 0.0
C1831 C 0.50067 0.8636 0.08538 0.0
C1832 C 0.49641 0.9139 0.08914 0.0
C1833 C 0.50081 0.86622 0.05689 0.0
C1834 C 0.49975 0.8925 0.04452 0.0
C1835 C 0.50149 0.94289 0.04841 0.0
C1836 C 0.5031 0.96651 0.06474 0.0
C1837 C 0.49859 0.91649 0.06048 0.0
C1838 C 0.49865 0.96392 0.09305 0.0
C1839 C 0.49522 0.9378 0.10516 0.0
H1840 H 0.96318 0.81714 0.85107 0.0
H1841 H 0.92643 0.77237 0.91969 0.0
H1842 H 0.88373 0.76495 0.89466 0.0
H1843 H 0.85529 0.77191 0.85362 0.0
H1844 H 0.88953 0.8201 0.78624 0.0
H1845 H 0.93382 0.82518 0.80997 0.0
C1846 C 0.94594 0.80559 0.86053 0.0
C1847 C 0.94866 0.79523 0.88757 0.0
C1848 C 0.92055 0.80191 0.84603 0.0
C1849 C 0.92547 0.78072 0.89919 0.0
C1850 C 0.90081 0.77638 0.88475 0.0
C1851 C 0.87254 0.78322 0.84387 0.0
C1852 C 0.86878 0.79511 0.81763 0.0
C1853 C 0.8979 0.78692 0.85818 0.0
C1854 C 0.89149 0.81035 0.80607 0.0
C1855 C 0.91699 0.81337 0.8198 0.0
H1856 H 0.95475 0.09163 0.83926 0.0
H1857 H 0.89161 0.04639 0.88646 0.0
H1858 H 0.91942 0.05075 0.92702 0.0
H1859 H 0.96315 0.0645 0.94785 0.0
H1860 H 0.02691 0.10785 0.89995 0.0
H1861 H 0.99696 0.10746 0.86056 0.0
C1862 C 0.94696 0.08275 0.85841 0.0
C1863 C 0.92143 0.0683 0.8598 0.0
C1864 C 0.96314 0.08495 0.88134 0.0
C1865 C 0.91131 0.05748 0.88487 0.0
C1866 C 0.92723 0.05986 0.908 0.0
C1867 C 0.97053 0.07368 0.92873 0.0
C1868 C 0.99733 0.08574 0.92651 0.0
C1869 C 0.95345 0.073 0.90624 0.0
C1870 C 1.00634 0.09844 0.90198 0.0
C1871 C 0.98932 0.0981 0.87952 0.0
H1872 H 0.79749 0.23974 0.55862 0.0
H1873 H 0.82456 0.16849 0.60598 0.0
H1874 H 0.80479 0.19011 0.64741 0.0
H1875 H 0.77541 0.22659 0.66891 0.0
H1876 H 0.74628 0.29709 0.62159 0.0
H1877 H 0.77019 0.2778 0.58088 0.0
C1878 C 0.7999 0.22945 0.57818 0.0
C1879 C 0.81282 0.20283 0.57949 0.0
C1880 C 0.78713 0.24131 0.60157 0.0
C1881 C 0.81506 0.1892 0.60471 0.0
C1882 C 0.80341 0.20136 0.62825 0.0
C1883 C 0.77455 0.23793 0.64978 0.0
C1884 C 0.75907 0.26323 0.64828 0.0
C1885 C 0.7886 0.22693 0.62672 0.0
C1886 C 0.75765 0.27737 0.62319 0.0
C1887 C 0.77164 0.26653 0.60002 0.0
H1888 H 0.66104 0.02831 0.41493 0.0
H1889 H 0.58502 0.01875 0.36998 0.0
H1890 H 0.55754 0.01289 0.4121 0.0
H1891 H 0.55431 0.01343 0.46121 0.0
H1892 H 0.62915 0.02539 0.50701 0.0
H1893 H 0.65809 0.02613 0.46477 0.0
C1894 C 0.63848 0.02496 0.41434 0.0
C1895 C 0.62514 0.02426 0.38933 0.0
C1896 C 0.62263 0.02167 0.43869 0.0
C1897 C 0.59589 0.01961 0.38893 0.0
C1898 C 0.58009 0.01612 0.413 0.0
C1899 C 0.57701 0.0158 0.46208 0.0
C1900 C 0.58956 0.01957 0.48707 0.0
C1901 C 0.59319 0.01742 0.43792 0.0
C1902 C 0.619 0.02256 0.48788 0.0
C1903 C 0.6355 0.02328 0.4638 0.0
H1904 H 0.81964 0.89438 0.13867 0.0
H1905 H 0.75789 0.84368 0.10176 0.0
H1906 H 0.7498 0.81849 0.14476 0.0
H1907 H 0.76047 0.80969 0.19358 0.0
H1908 H 0.82546 0.85734 0.2293 0.0
H1909 H 0.83185 0.88414 0.187 0.0
C1910 C 0.80429 0.87793 0.14 0.0
C1911 C 0.78925 0.87141 0.11647 0.0
C1912 C 0.8003 0.86256 0.16502 0.0
C1913 C 0.76985 0.8495 0.11908 0.0
C1914 C 0.76516 0.83493 0.14389 0.0
C1915 C 0.77603 0.82595 0.19221 0.0
C1916 C 0.79232 0.83123 0.21526 0.0
C1917 C 0.78029 0.84108 0.16713 0.0
C1918 C 0.81253 0.85241 0.21236 0.0
C1919 C 0.81621 0.86795 0.18795 0.0
H1920 H 0.91817 0.05599 0.68512 0.0
H1921 H 0.97712 0.1112 0.72057 0.0
H1922 H 1.00656 0.11017 0.67856 0.0
H1923 H 0.01769 0.0895 0.63373 0.0
H1924 H 0.96021 0.0309 0.60099 0.0
H1925 H 0.92803 0.03715 0.64028 0.0
C1926 C 0.9372 0.06823 0.68356 0.0
C1927 C 0.94556 0.08358 0.70586 0.0
C1928 C 0.9545 0.06647 0.66007 0.0
C1929 C 0.97033 0.09919 0.7036 0.0
C1930 C 0.98722 0.09844 0.6797 0.0
C1931 C 0.99803 0.07825 0.63519 0.0
C1932 C 0.99142 0.05952 0.61475 0.0
C1933 C 0.97991 0.08146 0.65814 0.0
C1934 C 0.96591 0.04509 0.61673 0.0
C1935 C 0.94745 0.04876 0.63908 0.0
H1936 H 0.79705 0.14877 0.40064 0.0
H1937 H 0.8222 0.21958 0.44689 0.0
H1938 H 0.8261 0.24758 0.40558 0.0
H1939 H 0.81807 0.25342 0.35738 0.0
H1940 H 0.79173 0.18354 0.31077 0.0
H1941 H 0.79327 0.15355 0.3512 0.0
C1942 C 0.80362 0.17024 0.40168 0.0
C1943 C 0.80886 0.18212 0.42691 0.0
C1944 C 0.80567 0.18642 0.37783 0.0
C1945 C 0.81763 0.20993 0.42782 0.0
C1946 C 0.81997 0.22601 0.40419 0.0
C1947 C 0.81311 0.23152 0.35592 0.0
C1948 C 0.80433 0.22081 0.33132 0.0
C1949 C 0.81342 0.21465 0.37923 0.0
C1950 C 0.79826 0.19233 0.32965 0.0
C1951 C 0.799 0.17521 0.35275 0.0
H1952 H 0.57067 0.01641 0.25641 0.0
H1953 H 0.6447 0.97875 0.21729 0.0
H1954 H 0.62516 0.9882 0.17264 0.0
H1955 H 0.59124 0.01449 0.14537 0.0
H1956 H 0.5205 0.05756 0.18474 0.0
H1957 H 0.53468 0.03923 0.22896 0.0
C1958 C 0.58196 0.00934 0.2381 0.0
C1959 C 0.60886 0.99674 0.23986 0.0
C1960 C 0.57161 0.01673 0.2127 0.0
C1961 C 0.6238 0.98827 0.21616 0.0
C1962 C 0.61281 0.994 0.19074 0.0
C1963 C 0.57868 0.01937 0.16361 0.0
C1964 C 0.55508 0.03747 0.16204 0.0
C1965 C 0.58742 0.00941 0.18882 0.0
C1966 C 0.53905 0.04403 0.18571 0.0
C1967 C 0.54702 0.0334 0.21086 0.0
H1968 H 0.7913 0.91988 0.92528 0.0
H1969 H 0.79124 0.84643 0.97666 0.0
H1970 H 0.78567 0.81727 0.93678 0.0
H1971 H 0.78118 0.81182 0.88637 0.0
H1972 H 0.78204 0.88557 0.83537 0.0
H1973 H 0.78678 0.91456 0.87531 0.0
C1974 C 0.79004 0.89749 0.92799 0.0
C1975 C 0.79175 0.88584 0.95474 0.0
C1976 C 0.78682 0.8805 0.90457 0.0
C1977 C 0.79009 0.85652 0.95692 0.0
C1978 C 0.78682 0.83964 0.93386 0.0
C1979 C 0.78205 0.83426 0.88389 0.0
C1980 C 0.78083 0.84609 0.85717 0.0
C1981 C 0.78512 0.85125 0.90743 0.0
C1982 C 0.78259 0.8754 0.85512 0.0
C1983 C 0.78542 0.8922 0.87821 0.0
H1984 H 0.89364 0.94003 1.00321 0.0
H1985 H 0.84871 0.97077 0.07465 0.0
H1986 H 0.88826 1.00097 0.0841 0.0
H1987 H 0.93686 0.019 0.07238 0.0
H1988 H 0.97724 0.99465 0.99626 0.0
H1989 H 0.93845 0.96357 0.98783 0.0
C1990 C 0.89231 0.95353 0.0207 0.0
C1991 C 0.86774 0.95283 0.03814 0.0
C1992 C 0.91474 0.97238 0.02524 0.0
C1993 C 0.86699 0.97064 0.06074 0.0
C1994 C 0.88978 0.98807 0.06619 0.0
C1995 C 0.93719 0.00691 0.05393 0.0
C1996 C 0.9606 0.00932 0.03515 0.0
C1997 C 0.91396 0.98921 0.04865 0.0
C1998 C 0.95993 0.9935 0.01122 0.0
C1999 C 0.93774 0.97521 1.00652 0.0
H2000 H 0.39752 0.58748 0.96433 0.0
H2001 H 0.40943 0.66278 0.00935 0.0
H2002 H 0.45787 0.64811 0.01813 0.0
H2003 H 0.49224 0.60927 0.02185 0.0
H2004 H 0.47789 0.53244 0.98046 0.0
H2005 H 0.43535 0.55254 0.96089 0.0
C2006 C 0.41085 0.60098 0.97558 0.0
C2007 C 0.39958 0.62563 0.98699 0.0
C2008 C 0.43825 0.592 0.9814 0.0
C2009 C 0.4174 0.64332 1.00083 0.0
C2010 C 0.44511 0.63493 1.00596 0.0
C2011 C 0.48029 0.59739 1.00775 0.0
C2012 C 0.48757 0.5694 1.00292 0.0
C2013 C 0.45514 0.6086 0.99769 0.0
C2014 C 0.47217 0.55399 0.98469 0.0
C2015 C 0.44784 0.56539 0.97363 0.0
H2016 H 0.157 0.62256 0.79798 0.0
H2017 H 0.20942 0.5679 0.74796 0.0
H2018 H 0.23377 0.60788 0.72746 0.0
H2019 H 0.24392 0.65775 0.72829 0.0
H2020 H 0.19341 0.71215 0.78036 0.0
H2021 H 0.16439 0.67308 0.79571 0.0
C2022 C 0.17363 0.61966 0.78244 0.0
C2023 C 0.18239 0.59276 0.77504 0.0
C2024 C 0.18784 0.64261 0.77131 0.0
C2025 C 0.20327 0.58873 0.75445 0.0
C2026 C 0.21698 0.61148 0.74266 0.0
C2027 C 0.22607 0.66104 0.74241 0.0
C2028 C 0.22081 0.68746 0.75341 0.0
C2029 C 0.21005 0.63844 0.75159 0.0
C2030 C 0.19794 0.6917 0.772 0.0
C2031 C 0.18137 0.66947 0.78072 0.0
H2032 H 0.21039 0.46578 0.56801 0.0
H2033 H 0.21352 0.4493 0.48214 0.0
H2034 H 0.16531 0.46785 0.47833 0.0
H2035 H 0.12254 0.49106 0.49859 0.0
H2036 H 0.11932 0.50958 0.58412 0.0
H2037 H 0.16647 0.48834 0.58872 0.0
C2038 C 0.20028 0.46571 0.54861 0.0
C2039 C 0.21569 0.45549 0.52544 0.0
C2040 C 0.17235 0.47729 0.54636 0.0
C2041 C 0.20227 0.45652 0.50037 0.0
C2042 C 0.17461 0.46736 0.49813 0.0
C2043 C 0.13201 0.49042 0.51832 0.0
C2044 C 0.11693 0.50221 0.54094 0.0
C2045 C 0.15949 0.4782 0.52085 0.0
C2046 C 0.13005 0.50094 0.56623 0.0
C2047 C 0.1572 0.48866 0.56891 0.0
H2048 H 0.86568 0.00586 0.7398 0.0
H2049 H 0.92182 0.96892 0.79771 0.0
H2050 H 0.90422 0.9224 0.7878 0.0
H2051 H 0.86892 0.89393 0.76643 0.0
H2052 H 0.8114 0.93219 0.71022 0.0
H2053 H 0.83435 0.97675 0.71477 0.0
C2054 C 0.87408 0.98748 0.75007 0.0
C2055 C 0.89393 0.99031 0.77014 0.0
C2056 C 0.86388 0.96133 0.74434 0.0
C2057 C 0.90584 0.96677 0.7827 0.0
C2058 C 0.89587 0.9404 0.77699 0.0
C2059 C 0.8615 0.91202 0.75515 0.0
C2060 C 0.83813 0.91003 0.73853 0.0
C2061 C 0.87419 0.93765 0.75852 0.0
C2062 C 0.82934 0.93327 0.72316 0.0
C2063 C 0.8423 0.95875 0.72588 0.0
H2064 H 0.7531 0.11444 0.55089 0.0
H2065 H 0.7069 0.17012 0.49849 0.0
H2066 H 0.66197 0.15261 0.51781 0.0
H2067 H 0.63654 0.12063 0.54876 0.0
H2068 H 0.68299 0.06464 0.60082 0.0
H2069 H 0.72762 0.08366 0.58296 0.0
C2070 C 0.7331 0.12246 0.54358 0.0
C2071 C 0.73286 0.14266 0.52276 0.0
C2072 C 0.70774 0.11261 0.555 0.0
C2073 C 0.70719 0.15398 0.51407 0.0
C2074 C 0.6817 0.1441 0.52518 0.0
C2075 C 0.65646 0.11263 0.55618 0.0
C2076 C 0.65663 0.09117 0.57588 0.0
C2077 C 0.68181 0.12329 0.54551 0.0
C2078 C 0.68244 0.08135 0.58585 0.0
C2079 C 0.70787 0.09202 0.57549 0.0
H2080 H 0.24257 0.46383 0.8348 0.0
H2081 H 0.15989 0.43736 0.81234 0.0
H2082 H 0.17631 0.38893 0.81302 0.0
H2083 H 0.21541 0.35527 0.81386 0.0
H2084 H 0.29891 0.3819 0.83318 0.0
H2085 H 0.28052 0.42925 0.84061 0.0
C2086 C 0.22797 0.4475 0.83039 0.0
C2087 C 0.20022 0.45428 0.82296 0.0
C2088 C 0.23767 0.41979 0.83023 0.0
C2089 C 0.18151 0.43278 0.8177 0.0
C2090 C 0.19085 0.40507 0.8181 0.0
C2091 C 0.22955 0.37129 0.82016 0.0
C2092 C 0.25856 0.36531 0.82244 0.0
C2093 C 0.21911 0.3985 0.82341 0.0
C2094 C 0.27653 0.38614 0.83099 0.0
C2095 C 0.26607 0.41321 0.8351 0.0
H2096 H 0.3421 0.62818 0.24773 0.0
H2097 H 0.34309 0.63056 0.3351 0.0
H2098 H 0.31988 0.67686 0.33475 0.0
H2099 H 0.30272 0.71768 0.30894 0.0
H2100 H 0.30014 0.71397 0.22147 0.0
H2101 H 0.32015 0.6667 0.22238 0.0
C2102 C 0.33698 0.63892 0.26662 0.0
C2103 C 0.34445 0.62672 0.29136 0.0
C2104 C 0.32338 0.66501 0.26617 0.0
C2105 C 0.33752 0.64007 0.3159 0.0
C2106 C 0.32435 0.66638 0.31565 0.0
C2107 C 0.30624 0.70633 0.29015 0.0
C2108 C 0.30033 0.71922 0.26518 0.0
C2109 C 0.31766 0.67922 0.29084 0.0
C2110 C 0.30455 0.70435 0.24094 0.0
C2111 C 0.31614 0.67745 0.24142 0.0
H2112 H 0.56247 0.71004 0.59254 0.0
H2113 H 0.51657 0.6905 0.66716 0.0
H2114 H 0.50954 0.64292 0.65157 0.0
H2115 H 0.51542 0.60607 0.61584 0.0
H2116 H 0.55825 0.62746 0.53989 0.0
H2117 H 0.56745 0.67387 0.55669 0.0
C2118 C 0.55048 0.69556 0.60522 0.0
C2119 C 0.53916 0.70466 0.63074 0.0
C2120 C 0.54601 0.66797 0.59581 0.0
C2121 C 0.52499 0.68471 0.64722 0.0
C2122 C 0.52093 0.65728 0.63825 0.0
C2123 C 0.5265 0.62095 0.60283 0.0
C2124 C 0.53576 0.6128 0.57626 0.0
C2125 C 0.53105 0.64855 0.6124 0.0
C2126 C 0.55033 0.63278 0.56013 0.0
C2127 C 0.55582 0.65953 0.56984 0.0
H2128 H 0.60385 0.27814 0.84558 0.0
H2129 H 0.64628 0.30381 0.91702 0.0
H2130 H 0.69029 0.30922 0.88989 0.0
H2131 H 0.71657 0.30531 0.8462 0.0
H2132 H 0.6735 0.27956 0.77505 0.0
H2133 H 0.62953 0.27546 0.80203 0.0
C2134 C 0.62269 0.28497 0.85528 0.0
C2135 C 0.62196 0.29044 0.88324 0.0
C2136 C 0.64767 0.2879 0.83969 0.0
C2137 C 0.64643 0.29946 0.89548 0.0
C2138 C 0.67153 0.30249 0.88002 0.0
C2139 C 0.69756 0.2988 0.83658 0.0
C2140 C 0.69826 0.29259 0.80873 0.0
C2141 C 0.6724 0.29653 0.85216 0.0
C2142 C 0.67347 0.2844 0.79649 0.0
C2143 C 0.64836 0.28204 0.81187 0.0
H2144 H 0.06878 0.38081 0.12467 0.0
H2145 H 0.98714 0.36045 0.09488 0.0
H2146 H 0.98344 0.40575 0.07279 0.0
H2147 H 1.003 0.45175 0.06013 0.0
H2148 H 0.08413 0.47376 0.08945 0.0
H2149 H 0.08807 0.42844 0.11274 0.0
C2150 C 0.05001 0.38631 0.11366 0.0
C2151 C 0.02831 0.36628 0.11185 0.0
C2152 C 0.04785 0.4132 0.10034 0.0
C2153 C 1.00445 0.37458 0.09693 0.0
C2154 C 1.00221 0.40084 0.08406 0.0
C2155 C 0.02165 0.44678 0.07154 0.0
C2156 C 0.04328 0.4668 0.07253 0.0
C2157 C 0.02379 0.42036 0.08526 0.0
C2158 C 0.06703 0.45929 0.08788 0.0
C2159 C 0.06931 0.4331 0.1014 0.0
H2160 H 1.00208 0.76407 0.36305 0.0
H2161 H 0.94833 0.75483 0.43535 0.0
H2162 H 0.90647 0.76021 0.40785 0.0
H2163 H 0.8858 0.77504 0.36454 0.0
H2164 H 0.94047 0.7902 0.29428 0.0
H2165 H 0.98169 0.77533 0.31984 0.0
C2166 C 0.98127 0.76275 0.37292 0.0
C2167 C 0.97838 0.75957 0.40135 0.0
C2168 C 0.95756 0.76749 0.35736 0.0
C2169 C 0.95118 0.7575 0.41355 0.0
C2170 C 0.92725 0.76081 0.39787 0.0
C2171 C 0.90675 0.77453 0.35485 0.0
C2172 C 0.91046 0.78375 0.32779 0.0
C2173 C 0.93028 0.76702 0.36998 0.0
C2174 C 0.93749 0.78342 0.31524 0.0
C2175 C 0.96088 0.77487 0.32979 0.0
H2176 H 0.54817 0.33159 0.99269 0.0
H2177 H 0.48811 0.34792 0.9305 0.0
H2178 H 0.46711 0.38668 0.95698 0.0
H2179 H 0.46673 0.41588 0.99779 0.0
H2180 H 0.52612 0.39786 0.06029 0.0
H2181 H 0.54632 0.35901 0.03402 0.0
C2182 C 0.53025 0.34352 0.9852 0.0
C2183 C 0.51889 0.33673 0.96044 0.0
C2184 C 0.51813 0.36504 1.00067 0.0
C2185 C 0.49665 0.35281 0.94996 0.0
C2186 C 0.4846 0.37469 0.96512 0.0
C2187 C 0.48333 0.40273 1.00604 0.0
C2188 C 0.49494 0.40941 0.03087 0.0
C2189 C 0.49497 0.38072 0.99068 0.0
C2190 C 0.51694 0.39279 0.04118 0.0
C2191 C 0.5287 0.37095 0.02606 0.0
H2192 H 0.93036 0.26447 0.15765 0.0
H2193 H 0.97546 0.30691 0.21882 0.0
H2194 H 0.93271 0.30731 0.24869 0.0
H2195 H 0.88156 0.29561 0.25764 0.0
H2196 H 0.83882 0.24998 0.19688 0.0
H2197 H 0.88117 0.25078 0.16724 0.0
C2198 C 0.9311 0.2738 0.17753 0.0
C2199 C 0.95661 0.28577 0.18561 0.0
C2200 C 0.90649 0.27335 0.19496 0.0
C2201 C 0.95652 0.29751 0.21174 0.0
C2202 C 0.93188 0.29776 0.22892 0.0
C2203 C 0.8815 0.28577 0.23795 0.0
C2204 C 0.8565 0.27275 0.22977 0.0
C2205 C 0.90659 0.28575 0.22082 0.0
C2206 C 0.85736 0.26005 0.20408 0.0
C2207 C 0.88173 0.26056 0.18693 0.0
H2208 H 0.07531 0.71246 0.50281 0.0
H2209 H 0.07659 0.68738 0.41897 0.0
H2210 H 0.07993 0.63832 0.43315 0.0
H2211 H 0.07377 0.60325 0.46962 0.0
H2212 H 0.07077 0.6292 0.55343 0.0
H2213 H 0.07736 0.67741 0.53897 0.0
C2214 C 0.07697 0.69626 0.48763 0.0
C2215 C 0.07513 0.70327 0.45999 0.0
C2216 C 0.07824 0.66836 0.49594 0.0
C2217 C 0.07783 0.6823 0.4404 0.0
C2218 C 0.0795 0.65432 0.44852 0.0
C2219 C 0.07514 0.61937 0.48473 0.0
C2220 C 0.07104 0.61281 0.5125 0.0
C2221 C 0.07836 0.64714 0.47628 0.0
C2222 C 0.0734 0.63379 0.53189 0.0
C2223 C 0.07708 0.66138 0.52366 0.0
H2224 H 0.60756 0.7832 0.73686 0.0
H2225 H 0.64453 0.80283 0.65784 0.0
H2226 H 0.69015 0.81061 0.67814 0.0
H2227 H 0.72068 0.81103 0.71846 0.0
H2228 H 0.68516 0.78643 0.79669 0.0
H2229 H 0.63868 0.78161 0.77694 0.0
C2230 C 0.62554 0.78931 0.72405 0.0
C2231 C 0.62208 0.79261 0.6956 0.0
C2232 C 0.65237 0.79295 0.7359 0.0
C2233 C 0.64612 0.8001 0.67961 0.0
C2234 C 0.6724 0.80462 0.69131 0.0
C2235 C 0.70271 0.80494 0.73131 0.0
C2236 C 0.7067 0.79969 0.7594 0.0
C2237 C 0.67595 0.80108 0.71945 0.0
C2238 C 0.68302 0.79098 0.77524 0.0
C2239 C 0.65628 0.78812 0.76385 0.0
H2240 H 0.57849 0.50063 0.76264 0.0
H2241 H 0.63094 0.56877 0.73542 0.0
H2242 H 0.61488 0.56413 0.68934 0.0
H2243 H 0.58913 0.53861 0.65618 0.0
H2244 H 0.53604 0.47064 0.68258 0.0
H2245 H 0.54959 0.47703 0.72936 0.0
C2246 C 0.58597 0.51474 0.74669 0.0
C2247 C 0.60595 0.53491 0.75241 0.0
C2248 C 0.57699 0.51168 0.71996 0.0
C2249 C 0.61565 0.55294 0.73152 0.0
C2250 C 0.60656 0.55027 0.70511 0.0
C2251 C 0.58006 0.52543 0.67209 0.0
C2252 C 0.56173 0.50403 0.66559 0.0
C2253 C 0.58772 0.52935 0.69899 0.0
C2254 C 0.55065 0.48695 0.68672 0.0
C2255 C 0.5582 0.49073 0.71361 0.0
H2256 H 0.78725 0.35505 0.98485 0.0
H2257 H 0.72891 0.41384 0.94869 0.0
H2258 H 0.73802 0.39272 0.90433 0.0
H2259 H 0.76573 0.36072 0.87535 0.0
H2260 H 0.82438 0.30197 0.91114 0.0
H2261 H 0.8124 0.32046 0.95609 0.0
C2262 C 0.77602 0.36284 0.9674 0.0
C2263 C 0.75743 0.38601 0.9701 0.0
C2264 C 0.78192 0.35109 0.9418 0.0
C2265 C 0.74335 0.39606 0.94717 0.0
C2266 C 0.74868 0.38411 0.92177 0.0
C2267 C 0.77562 0.35155 0.89292 0.0
C2268 C 0.79612 0.33004 0.88964 0.0
C2269 C 0.76847 0.36211 0.91874 0.0
C2270 C 0.80895 0.31887 0.91284 0.0
C2271 C 0.80192 0.32927 0.93864 0.0
H2272 H 0.96943 0.57669 0.19915 0.0
H2273 H 0.89515 0.53695 0.1709 0.0
H2274 H 0.91411 0.53953 0.12414 0.0
H2275 H 0.95391 0.54873 0.09219 0.0
H2276 H 0.02852 0.58761 0.12098 0.0
H2277 H 1.00701 0.59016 0.1666 0.0
C2278 C 0.9573 0.56879 0.18273 0.0
C2279 C 0.93122 0.55625 0.18842 0.0
C2280 C 0.96836 0.57019 0.15602 0.0
C2281 C 0.91546 0.5465 0.16698 0.0
C2282 C 0.92627 0.54794 0.14026 0.0
C2283 C 0.96524 0.55823 0.10833 0.0
C2284 C 0.99288 0.5676 0.10333 0.0
C2285 C 0.953 0.55914 0.13466 0.0
C2286 C 1.00729 0.57997 0.1244 0.0
C2287 C 0.99508 0.58136 0.15052 0.0
H2288 H 0.7592 0.67397 0.43451 0.0
H2289 H 0.80463 0.73291 0.48066 0.0
H2290 H 0.8095 0.76316 0.44011 0.0
H2291 H 0.80139 0.77301 0.39029 0.0
H2292 H 0.75113 0.71576 0.34678 0.0
H2293 H 0.74763 0.68543 0.38694 0.0
C2294 C 0.76998 0.69353 0.43604 0.0
C2295 C 0.78153 0.7007 0.46129 0.0
C2296 C 0.77194 0.71143 0.41262 0.0
C2297 C 0.79532 0.72646 0.46203 0.0
C2298 C 0.79822 0.74387 0.43858 0.0
C2299 C 0.78957 0.75395 0.38957 0.0
C2300 C 0.77667 0.74694 0.36486 0.0
C2301 C 0.78672 0.73663 0.41356 0.0
C2302 C 0.76126 0.7221 0.36502 0.0
C2303 C 0.7593 0.70454 0.38819 0.0
H2304 H 0.60314 0.49568 0.89133 0.0
H2305 H 0.68498 0.51155 0.92346 0.0
H2306 H 0.6648 0.50991 0.96949 0.0
H2307 H 0.62259 0.51099 1.00022 0.0
H2308 H 0.54148 0.49186 0.96888 0.0
H2309 H 0.56272 0.48748 0.92306 0.0
C2310 C 0.61668 0.49823 0.90839 0.0
C2311 C 0.64529 0.50475 0.90377 0.0
C2312 C 0.60503 0.497 0.93501 0.0
C2313 C 0.66269 0.5072 0.92623 0.0
C2314 C 0.65119 0.50635 0.95269 0.0
C2315 C 0.6098 0.50531 0.98338 0.0
C2316 C 0.58061 0.50216 0.98759 0.0
C2317 C 0.62219 0.50244 0.95723 0.0
C2318 C 0.56409 0.49439 0.96591 0.0
C2319 C 0.57617 0.49205 0.93973 0.0
H2320 H 0.73578 0.34747 0.12075 0.0
H2321 H 0.79418 0.4109 0.14146 0.0
H2322 H 0.79443 0.39347 0.18838 0.0
H2323 H 0.78173 0.35696 0.222 0.0
H2324 H 0.72258 0.29421 0.20089 0.0
H2325 H 0.71813 0.31517 0.15592 0.0
C2326 C 0.74847 0.35743 0.13562 0.0
C2327 C 0.76541 0.37987 0.12779 0.0
C2328 C 0.74811 0.34766 0.16251 0.0
C2329 C 0.78123 0.39327 0.14719 0.0
C2330 C 0.78132 0.38341 0.17396 0.0
C2331 C 0.76725 0.34846 0.20781 0.0
C2332 C 0.75285 0.32394 0.21444 0.0
C2333 C 0.76525 0.36025 0.18172 0.0
C2334 C 0.73415 0.31298 0.19597 0.0
C2335 C 0.73173 0.32478 0.17021 0.0
H2336 H 0.9676 0.53634 0.32171 0.0
H2337 H 0.89951 0.56917 0.37356 0.0
H2338 H 0.92976 0.56559 0.41267 0.0
H2339 H 0.97393 0.5494 0.43259 0.0
H2340 H 0.04108 0.51446 0.38125 0.0
H2341 H 0.0126 0.5225 0.34125 0.0
C2342 C 0.95944 0.54315 0.34145 0.0
C2343 C 0.93128 0.55296 0.34469 0.0
C2344 C 0.97665 0.54036 0.36392 0.0
C2345 C 0.92106 0.56145 0.37051 0.0
C2346 C 0.93831 0.55936 0.39289 0.0
C2347 C 0.98256 0.54407 0.41258 0.0
C2348 C 0.00957 0.5314 0.40978 0.0
C2349 C 0.96591 0.54831 0.38989 0.0
C2350 C 0.02024 0.52403 0.38383 0.0
C2351 C 1.00402 0.52869 0.36103 0.0
H2352 H 0.80262 0.73734 0.61526 0.0
H2353 H 0.76704 0.66044 0.64504 0.0
H2354 H 0.76899 0.6769 0.69188 0.0
H2355 H 0.7798 0.71425 0.72558 0.0
H2356 H 0.81666 0.79032 0.69451 0.0
H2357 H 0.81527 0.77318 0.64842 0.0
C2358 C 0.79532 0.72402 0.63191 0.0
C2359 C 0.78456 0.69743 0.6259 0.0
C2360 C 0.79677 0.73361 0.65928 0.0
C2361 C 0.77545 0.68088 0.64839 0.0
C2362 C 0.77655 0.69039 0.67549 0.0
C2363 C 0.7879 0.727 0.70884 0.0
C2364 C 0.79847 0.7539 0.71444 0.0
C2365 C 0.7871 0.71685 0.68143 0.0
C2366 C 0.80844 0.76969 0.69172 0.0
C2367 C 0.80759 0.75988 0.66491 0.0
H2368 H 0.71804 0.59562 0.5611 0.0
H2369 H 0.68636 0.66551 0.51478 0.0
H2370 H 0.64171 0.64161 0.50911 0.0
H2371 H 0.61115 0.60042 0.51678 0.0
H2372 H 0.64102 0.53192 0.56617 0.0
H2373 H 0.68629 0.55516 0.57078 0.0
C2374 C 0.70145 0.60553 0.54956 0.0
C2375 C 0.7063 0.63217 0.5375 0.0
C2376 C 0.67522 0.59169 0.54683 0.0
C2377 C 0.68379 0.64495 0.52374 0.0
C2378 C 0.65811 0.63118 0.52049 0.0
C2379 C 0.62763 0.59034 0.52834 0.0
C2380 C 0.62241 0.56389 0.54066 0.0
C2381 C 0.65355 0.6044 0.53169 0.0
C2382 C 0.64411 0.55192 0.55617 0.0
C2383 C 0.67013 0.56538 0.55895 0.0
H2384 H 0.20538 0.98514 0.5722 0.0
H2385 H 0.16988 0.90937 0.54382 0.0
H2386 H 0.12208 0.92715 0.55594 0.0
H2387 H 0.09098 0.96688 0.56865 0.0
H2388 H 0.1274 0.04263 0.59681 0.0
H2389 H 0.17458 0.02159 0.59199 0.0
C2390 C 0.1872 0.97248 0.56887 0.0
C2391 C 0.19081 0.94644 0.55651 0.0
C2392 C 0.16014 0.98265 0.57619 0.0
C2393 C 0.1673 0.92972 0.55299 0.0
C2394 C 0.14011 0.93983 0.55997 0.0
C2395 C 0.10914 0.97851 0.57457 0.0
C2396 C 0.10576 0.00653 0.58243 0.0
C2397 C 0.13629 0.96663 0.57086 0.0
C2398 C 0.12947 0.02116 0.59035 0.0
C2399 C 0.15649 0.00926 0.58731 0.0
H2400 H 0.37553 0.98968 0.76148 0.0
H2401 H 0.43384 0.9864 0.82657 0.0
H2402 H 0.41933 0.93865 0.83835 0.0
H2403 H 0.38363 0.90173 0.83444 0.0
H2404 H 0.32574 0.90695 0.76875 0.0
H2405 H 0.34664 0.95004 0.75255 0.0
C2406 C 0.38534 0.9782 0.77794 0.0
C2407 C 0.40453 0.99133 0.79406 0.0
C2408 C 0.3768 0.95135 0.7845 0.0
C2409 C 0.41834 0.97642 0.81451 0.0
C2410 C 0.40999 0.94933 0.82123 0.0
C2411 C 0.37595 0.91232 0.81649 0.0
C2412 C 0.35294 0.90169 0.80311 0.0
C2413 C 0.38811 0.93723 0.80723 0.0
C2414 C 0.34346 0.91489 0.77937 0.0
C2415 C 0.35535 0.9395 0.77007 0.0
H2416 H 0.36413 0.10238 1.00018 0.0
H2417 H 0.36983 0.15548 0.06964 0.0
H2418 H 0.41749 0.13647 0.07762 0.0
H2419 H 0.458 0.10327 0.06536 0.0
H2420 H 0.45088 0.05196 0.99459 0.0
H2421 H 0.40413 0.0715 0.98705 0.0
C2422 C 0.3757 0.11009 0.01705 0.0
C2423 C 0.36282 0.13061 0.0342 0.0
C2424 C 0.40326 0.09905 0.02152 0.0
C2425 C 0.37878 0.13998 0.05585 0.0
C2426 C 0.40619 0.1289 0.06054 0.0
C2427 C 0.44624 0.09632 0.04832 0.0
C2428 C 0.45856 0.07572 0.03074 0.0
C2429 C 0.41873 0.10817 0.04364 0.0
C2430 C 0.44257 0.06751 0.00866 0.0
C2431 C 0.41552 0.07878 1.00422 0.0
H2432 H 0.69409 0.59898 0.79893 0.0
H2433 H 0.65133 0.61235 0.87647 0.0
H2434 H 0.67647 0.65631 0.88145 0.0
H2435 H 0.71397 0.68836 0.86489 0.0
H2436 H 0.75539 0.6742 0.78671 0.0
H2437 H 0.72738 0.63282 0.78056 0.0
C2438 C 0.6902 0.61174 0.81679 0.0
C2439 C 0.67197 0.60249 0.83778 0.0
C2440 C 0.70456 0.63652 0.81934 0.0
C2441 C 0.66594 0.61923 0.86043 0.0
C2442 C 0.6803 0.64414 0.86325 0.0
C2443 C 0.71676 0.67603 0.84665 0.0
C2444 C 0.73682 0.68378 0.82643 0.0
C2445 C 0.70033 0.6525 0.84316 0.0
C2446 C 0.74001 0.66835 0.80247 0.0
C2447 C 0.724 0.64485 0.79893 0.0
H2448 H 0.84637 0.42493 1.00276 0.0
H2449 H 0.8175 0.47739 0.0689 0.0
H2450 H 0.85932 0.5063 0.06242 0.0
H2451 H 0.90401 0.51637 0.03765 0.0
H2452 H 0.93085 0.46656 0.96902 0.0
H2453 H 0.88959 0.43685 0.97615 0.0
C2454 C 0.84935 0.44285 0.01549 0.0
C2455 C 0.82911 0.44969 0.0358 0.0
C2456 C 0.87287 0.45965 0.01112 0.0
C2457 C 0.83289 0.47243 0.05275 0.0
C2458 C 0.85671 0.48877 0.04913 0.0
C2459 C 0.90059 0.49898 0.02438 0.0
C2460 C 0.92008 0.49323 1.00307 0.0
C2461 C 0.87675 0.48259 0.02832 0.0
C2462 C 0.91574 0.4711 0.9855 0.0
C2463 C 0.8924 0.45414 0.98968 0.0
H2464 H 0.38021 0.14728 0.7533 0.0
H2465 H 0.30329 0.10979 0.78477 0.0
H2466 H 0.27694 0.15292 0.7759 0.0
H2467 H 0.27765 0.20291 0.76682 0.0
H2468 H 0.35559 0.24156 0.74043 0.0
H2469 H 0.37953 0.19597 0.73859 0.0
C2470 C 0.3576 0.14839 0.75785 0.0
C2471 C 0.34384 0.12573 0.77033 0.0
C2472 C 0.34278 0.17338 0.75343 0.0
C2473 C 0.31449 0.1273 0.77579 0.0
C2474 C 0.29937 0.15184 0.77059 0.0
C2475 C 0.29961 0.20119 0.75975 0.0
C2476 C 0.31506 0.22526 0.75408 0.0
C2477 C 0.31355 0.1753 0.76046 0.0
C2478 C 0.34349 0.22306 0.74508 0.0
C2479 C 0.35719 0.19712 0.74428 0.0
H2480 H 0.20147 0.96102 0.26946 0.0
H2481 H 0.25737 0.9689 0.33634 0.0
H2482 H 0.28538 0.92891 0.32022 0.0
H2483 H 0.29154 0.8898 0.28975 0.0
H2484 H 0.2345 0.87979 0.22421 0.0
H2485 H 0.21005 0.92348 0.23655 0.0
C2486 C 0.21975 0.95394 0.28052 0.0
C2487 C 0.22707 0.96757 0.30429 0.0
C2488 C 0.23579 0.93096 0.27116 0.0
C2489 C 0.25116 0.95859 0.3181 0.0
C2490 C 0.26726 0.93582 0.30886 0.0
C2491 C 0.27407 0.89738 0.27781 0.0
C2492 C 0.26453 0.88145 0.25639 0.0
C2493 C 0.25948 0.92165 0.2857 0.0
C2494 C 0.24217 0.89171 0.24087 0.0
C2495 C 0.22798 0.91647 0.24811 0.0
H2496 H 0.54092 0.35955 0.47599 0.0
H2497 H 0.53074 0.40168 0.39879 0.0
H2498 H 0.53575 0.44642 0.42012 0.0
H2499 H 0.54248 0.47526 0.46059 0.0
H2500 H 0.55312 0.43475 0.53824 0.0
H2501 H 0.54873 0.38909 0.51713 0.0
C2502 C 0.53981 0.37844 0.46374 0.0
C2503 C 0.53539 0.37629 0.43532 0.0
C2504 C 0.54295 0.40509 0.47635 0.0
C2505 C 0.53416 0.40171 0.42042 0.0
C2506 C 0.53704 0.42776 0.4327 0.0
C2507 C 0.54416 0.45652 0.47301 0.0
C2508 C 0.54846 0.45913 0.50128 0.0
C2509 C 0.54146 0.42992 0.46064 0.0
C2510 C 0.55012 0.43403 0.51656 0.0
C2511 C 0.54746 0.40762 0.5044 0.0
H2512 H 0.45873 0.79946 0.19412 0.0
H2513 H 0.41939 0.76977 0.12238 0.0
H2514 H 0.37286 0.77469 0.14528 0.0
H2515 H 0.34357 0.78846 0.18523 0.0
H2516 H 0.38339 0.81757 0.25687 0.0
H2517 H 0.42981 0.81227 0.23401 0.0
C2518 C 0.44007 0.79389 0.1834 0.0
C2519 C 0.44261 0.78435 0.15648 0.0
C2520 C 0.41352 0.79705 0.1965 0.0
C2521 C 0.41809 0.77718 0.14309 0.0
C2522 C 0.39148 0.78012 0.15611 0.0
C2523 C 0.36238 0.79388 0.19578 0.0
C2524 C 0.36008 0.80362 0.22263 0.0
C2525 C 0.38897 0.79034 0.1827 0.0
C2526 C 0.38464 0.81016 0.23616 0.0
C2527 C 0.41116 0.80704 0.22315 0.0
H2528 H 0.98951 0.71765 0.97336 0.0
H2529 H 0.07474 0.72022 0.93973 0.0
H2530 H 0.08448 0.67344 0.95844 0.0
H2531 H 0.06904 0.63117 0.98557 0.0
H2532 H 0.98215 0.62729 0.01449 0.0
H2533 H 0.97306 0.67439 0.99678 0.0
C2534 C 0.01021 0.70798 0.96988 0.0
C2535 C 0.03132 0.72303 0.95496 0.0
C2536 C 0.0155 0.68047 0.98019 0.0
C2537 C 0.05789 0.70955 0.95078 0.0
C2538 C 0.06354 0.68264 0.96171 0.0
C2539 C 0.04811 0.64063 0.98803 0.0
C2540 C 0.02639 0.62535 1.00187 0.0
C2541 C 0.04261 0.66781 0.97668 0.0
C2542 C 0.99936 0.63817 1.00419 0.0
C2543 C 0.99411 0.66531 0.99399 0.0
H2544 H 0.06483 0.33823 0.74191 0.0
H2545 H 0.1125 0.36685 0.67094 0.0
H2546 H 0.15671 0.35585 0.6934 0.0
H2547 H 0.1805 0.32761 0.72798 0.0
H2548 H 0.13186 0.29198 0.79497 0.0
H2549 H 0.08897 0.31535 0.779 0.0
C2550 C 0.08487 0.34305 0.7317 0.0
C2551 C 0.08554 0.35277 0.70464 0.0
C2552 C 0.10989 0.33418 0.74361 0.0
C2553 C 0.11158 0.35912 0.69173 0.0
C2554 C 0.1368 0.35239 0.70438 0.0
C2555 C 0.16057 0.32551 0.73933 0.0
C2556 C 0.15898 0.30784 0.76227 0.0
C2557 C 0.13605 0.33813 0.72946 0.0
C2558 C 0.13321 0.30502 0.77688 0.0
C2559 C 0.10886 0.31855 0.76789 0.0
H2560 H 0.5412 0.70642 0.15228 0.0
H2561 H 0.58464 0.75757 0.09238 0.0
H2562 H 0.6083 0.71636 0.07265 0.0
H2563 H 0.60928 0.66537 0.06747 0.0
H2564 H 0.56283 0.61444 0.12522 0.0
H2565 H 0.54787 0.6556 0.15118 0.0
C2566 C 0.55618 0.70834 0.13517 0.0
C2567 C 0.56046 0.73434 0.12287 0.0
C2568 C 0.56902 0.68459 0.12361 0.0
C2569 C 0.5804 0.73725 0.1013 0.0
C2570 C 0.59404 0.71382 0.09019 0.0
C2571 C 0.59683 0.66348 0.08631 0.0
C2572 C 0.58686 0.63744 0.09454 0.0
C2573 C 0.58747 0.68729 0.10038 0.0
C2574 C 0.57042 0.63467 0.11871 0.0
C2575 C 0.56181 0.6581 0.13339 0.0
H2576 H 0.13752 0.82119 0.8956 0.0
H2577 H 0.09776 0.76438 0.84241 0.0
H2578 H 0.14174 0.75933 0.81524 0.0
H2579 H 0.19177 0.77163 0.80546 0.0
H2580 H 0.23097 0.83044 0.85704 0.0
H2581 H 0.18759 0.83408 0.88534 0.0
C2582 C 0.13854 0.80753 0.8782 0.0
C2583 C 0.11407 0.79306 0.87136 0.0
C2584 C 0.16403 0.80519 0.86199 0.0
C2585 C 0.116 0.7758 0.84838 0.0
C2586 C 0.14128 0.7729 0.83269 0.0
C2587 C 0.19088 0.78529 0.82286 0.0
C2588 C 0.215 0.80076 0.82882 0.0
C2589 C 0.16546 0.78763 0.83909 0.0
C2590 C 0.21302 0.81832 0.85161 0.0
C2591 C 0.18807 0.82039 0.86798 0.0
H2592 H 0.99266 0.36928 0.57449 0.0
H2593 H 0.98839 0.40215 0.65589 0.0
H2594 H 0.98866 0.44955 0.63747 0.0
H2595 H 0.99784 0.48079 0.59898 0.0
H2596 H 1.00622 0.44794 0.51775 0.0
H2597 H 0.99614 0.40123 0.53545 0.0
C2598 C 0.99117 0.38679 0.58823 0.0
C2599 C 0.9911 0.38223 0.61652 0.0
C2600 C 0.99243 0.41391 0.57756 0.0
C2601 C 0.98894 0.40514 0.63402 0.0
C2602 C 0.98916 0.43223 0.62353 0.0
C2603 C 0.99704 0.46351 0.58504 0.0
C2604 C 1.00334 0.46764 0.55719 0.0
C2605 C 0.99217 0.43675 0.59541 0.0
C2606 C 1.00176 0.44518 0.53934 0.0
C2607 C 0.99609 0.41848 0.54945 0.0
H2608 H 0.46619 0.26916 0.34751 0.0
H2609 H 0.43227 0.32164 0.41158 0.0
H2610 H 0.38658 0.32434 0.38961 0.0
H2611 H 0.35547 0.31196 0.35179 0.0
H2612 H 0.38923 0.25979 0.28742 0.0
H2613 H 0.43503 0.25691 0.30944 0.0
C2614 C 0.44893 0.28152 0.35649 0.0
C2615 C 0.45334 0.29594 0.381 0.0
C2616 C 0.42228 0.28287 0.3436 0.0
C2617 C 0.43003 0.31078 0.39265 0.0
C2618 C 0.40372 0.31231 0.38001 0.0
C2619 C 0.37286 0.29993 0.34256 0.0
C2620 C 0.36855 0.28598 0.31782 0.0
C2621 C 0.39947 0.29851 0.35542 0.0
C2622 C 0.39159 0.27065 0.30633 0.0
C2623 C 0.41792 0.26898 0.31904 0.0
H2624 H 0.46134 0.57938 0.3345 0.0
H2625 H 0.39565 0.53627 0.38041 0.0
H2626 H 0.42307 0.53877 0.4213 0.0
H2627 H 0.46572 0.55285 0.44372 0.0
H2628 H 0.53144 0.59543 0.39775 0.0
H2629 H 0.50365 0.5937 0.35694 0.0
C2630 C 0.45295 0.57045 0.3534 0.0
C2631 C 0.42651 0.55758 0.35434 0.0
C2632 C 0.46877 0.57189 0.37673 0.0
C2633 C 0.41594 0.54632 0.37909 0.0
C2634 C 0.43161 0.54768 0.40247 0.0
C2635 C 0.47408 0.56147 0.4247 0.0
C2636 C 0.50064 0.57406 0.4236 0.0
C2637 C 0.45808 0.5603 0.40145 0.0
C2638 C 0.51095 0.5858 0.39903 0.0
C2639 C 0.49515 0.58469 0.37574 0.0
H2640 H 0.30496 0.74292 0.0458 0.0
H2641 H 0.34825 0.68041 0.09347 0.0
H2642 H 0.33173 0.70335 0.13531 0.0
H2643 H 0.29945 0.73635 0.15766 0.0
H2644 H 0.25459 0.79844 0.11065 0.0
H2645 H 0.2763 0.77952 0.06882 0.0
C2646 C 0.31156 0.73494 0.06535 0.0
C2647 C 0.3278 0.71014 0.06676 0.0
C2648 C 0.30076 0.74738 0.08924 0.0
C2649 C 0.33584 0.69958 0.09208 0.0
C2650 C 0.3261 0.71246 0.11592 0.0
C2651 C 0.29479 0.74629 0.13842 0.0
C2652 C 0.27529 0.76879 0.13739 0.0
C2653 C 0.30759 0.7356 0.11467 0.0
C2654 C 0.26908 0.78078 0.11205 0.0
C2655 C 0.28176 0.7702 0.08815 0.0
H2656 H 0.10737 0.51838 0.87279 0.0
H2657 H 0.17751 0.56385 0.90255 0.0
H2658 H 0.15618 0.56236 0.9485 0.0
H2659 H 0.11716 0.54907 0.97976 0.0
H2660 H 0.04683 0.50425 0.94954 0.0
H2661 H 0.06923 0.50397 0.9041 0.0
C2662 C 0.11794 0.52817 0.88926 0.0
C2663 C 0.14381 0.54146 0.88424 0.0
C2664 C 0.10582 0.52692 0.91554 0.0
C2665 C 0.15749 0.55358 0.9059 0.0
C2666 C 0.14541 0.55262 0.93217 0.0
C2667 C 0.10696 0.53882 0.96333 0.0
C2668 C 0.08044 0.52665 0.96793 0.0
C2669 C 0.1196 0.53933 0.93719 0.0
C2670 C 0.0673 0.51372 0.94644 0.0
C2671 C 0.07998 0.5137 0.92046 0.0
H2672 H 0.31679 0.40092 0.63541 0.0
H2673 H 0.25624 0.34704 0.60087 0.0
H2674 H 0.24983 0.32275 0.64457 0.0
H2675 H 0.26175 0.31559 0.69326 0.0
H2676 H 0.32525 0.36672 0.72688 0.0
H2677 H 0.32997 0.39263 0.68383 0.0
C2678 C 0.30204 0.38398 0.63741 0.0
C2679 C 0.28685 0.37628 0.61431 0.0
C2680 C 0.29898 0.36923 0.66288 0.0
C2681 C 0.26827 0.35379 0.61781 0.0
C2682 C 0.26456 0.33973 0.64304 0.0
C2683 C 0.2766 0.33245 0.6913 0.0
C2684 C 0.29297 0.33898 0.71398 0.0
C2685 C 0.27983 0.34708 0.66583 0.0
C2686 C 0.31226 0.36088 0.71029 0.0
C2687 C 0.31499 0.37587 0.68544 0.0
H2688 H 0.40984 0.57154 0.17958 0.0
H2689 H 0.47824 0.61144 0.21848 0.0
H2690 H 0.50833 0.60563 0.1773 0.0
H2691 H 0.51746 0.58153 0.13356 0.0
H2692 H 0.44996 0.5366 0.0984 0.0
H2693 H 0.41734 0.55172 0.13491 0.0
C2694 C 0.43111 0.57959 0.17892 0.0
C2695 C 0.44196 0.59146 0.20217 0.0
C2696 C 0.44871 0.57451 0.15606 0.0
C2697 C 0.46948 0.60202 0.20086 0.0
C2698 C 0.48678 0.59841 0.17744 0.0
C2699 C 0.49552 0.57539 0.13384 0.0
C2700 C 0.48619 0.55754 0.11376 0.0
C2701 C 0.47705 0.58339 0.15547 0.0
C2702 C 0.45772 0.54982 0.11406 0.0
C2703 C 0.43902 0.55858 0.13481 0.0
H2704 H 0.33411 0.70455 0.93296 0.0
H2705 H 0.28579 0.63814 0.90056 0.0
H2706 H 0.28325 0.6634 0.85705 0.0
H2707 H 0.29151 0.70626 0.83007 0.0
H2708 H 0.33924 0.77249 0.8639 0.0
H2709 H 0.34553 0.74504 0.90521 0.0
C2710 C 0.32294 0.69558 0.91641 0.0
C2711 C 0.30961 0.66991 0.92001 0.0
C2712 C 0.32154 0.71011 0.89183 0.0
C2713 C 0.29595 0.65809 0.89822 0.0
C2714 C 0.29448 0.6725 0.87344 0.0
C2715 C 0.30367 0.71446 0.84632 0.0
C2716 C 0.31464 0.74144 0.84415 0.0
C2717 C 0.30677 0.69879 0.87024 0.0
C2718 C 0.33038 0.75186 0.86527 0.0
C2719 C 0.33392 0.73625 0.88889 0.0
H2720 H 0.07226 0.52506 0.75661 0.0
H2721 H 0.14185 0.48176 0.71555 0.0
H2722 H 0.11911 0.48828 0.67204 0.0
H2723 H 0.0842 0.51366 0.64531 0.0
H2724 H 0.01701 0.56098 0.68583 0.0
H2725 H 0.03417 0.5459 0.73004 0.0
C2726 C 0.08187 0.51617 0.73825 0.0
C2727 C 0.10857 0.50292 0.7391 0.0
C2728 C 0.06953 0.52153 0.71319 0.0
C2729 C 0.12121 0.49195 0.71522 0.0
C2730 C 0.10837 0.49595 0.69036 0.0
C2731 C 0.07289 0.52011 0.66378 0.0
C2732 C 0.04959 0.53868 0.66235 0.0
C2733 C 0.08326 0.51189 0.689 0.0
C2734 C 0.03534 0.54714 0.68648 0.0
C2735 C 0.04504 0.53839 0.71171 0.0
H2736 H 0.2993 0.42083 0.4215 0.0
H2737 H 0.28435 0.3493 0.47358 0.0
H2738 H 0.27822 0.32053 0.4335 0.0
H2739 H 0.2772 0.31497 0.38296 0.0
H2740 H 0.2932 0.38651 0.33116 0.0
H2741 H 0.29859 0.4153 0.37124 0.0
C2742 C 0.29468 0.39894 0.42432 0.0
C2743 C 0.29233 0.38767 0.4513 0.0
C2744 C 0.29117 0.38221 0.40082 0.0
C2745 C 0.2864 0.35902 0.45366 0.0
C2746 C 0.2828 0.3424 0.43049 0.0
C2747 C 0.28158 0.33694 0.3803 0.0
C2748 C 0.28432 0.34826 0.35338 0.0
C2749 C 0.28506 0.35366 0.40386 0.0
C2750 C 0.29055 0.37685 0.35108 0.0
C2751 C 0.29378 0.39347 0.37424 0.0
H2752 H 0.3583 0.48134 0.55548 0.0
H2753 H 0.39166 0.41507 0.5048 0.0
H2754 H 0.43812 0.43684 0.50273 0.0
H2755 H 0.47021 0.47479 0.51563 0.0
H2756 H 0.43779 0.53981 0.5683 0.0
H2757 H 0.39071 0.51902 0.56904 0.0
C2758 C 0.37565 0.47182 0.5437 0.0
C2759 C 0.37088 0.44682 0.52953 0.0
C2760 C 0.40283 0.48439 0.54301 0.0
C2761 C 0.39422 0.43443 0.51542 0.0
C2762 C 0.42096 0.44696 0.51426 0.0
C2763 C 0.45278 0.48455 0.52712 0.0
C2764 C 0.45775 0.50922 0.54168 0.0
C2765 C 0.42564 0.47199 0.52792 0.0
C2766 C 0.43481 0.52109 0.55677 0.0
C2767 C 0.40778 0.50905 0.55727 0.0
H2768 H 0.89687 0.14893 0.50885 0.0
H2769 H 0.86572 0.06981 0.48306 0.0
H2770 H 0.91313 0.04945 0.48454 0.0
H2771 H 0.96205 0.05263 0.4975 0.0
H2772 H 0.99342 0.13083 0.52511 0.0
H2773 H 0.9474 0.15323 0.51771 0.0
C2774 C 0.90046 0.12727 0.50344 0.0
C2775 C 0.87764 0.11085 0.49629 0.0
C2776 C 0.92781 0.11556 0.50445 0.0
C2777 C 0.88279 0.08294 0.48886 0.0
C2778 C 0.90992 0.07123 0.48965 0.0
C2779 C 0.95902 0.07471 0.50144 0.0
C2780 C 0.98095 0.08995 0.51218 0.0
C2781 C 0.93241 0.08717 0.49799 0.0
C2782 C 0.97682 0.11861 0.51687 0.0
C2783 C 0.95044 0.13136 0.51291 0.0
H2784 H 0.69706 0.06858 0.26129 0.0
H2785 H 0.63838 0.11632 0.31196 0.0
H2786 H 0.65781 0.15985 0.29319 0.0
H2787 H 0.69347 0.18358 0.26455 0.0
H2788 H 0.75254 0.13582 0.21425 0.0
H2789 H 0.73041 0.09251 0.23004 0.0
C2790 C 0.68872 0.08862 0.26819 0.0
C2791 C 0.66726 0.08976 0.28853 0.0
C2792 C 0.69971 0.11318 0.25711 0.0
C2793 C 0.6555 0.11541 0.29676 0.0
C2794 C 0.66647 0.14009 0.28597 0.0
C2795 C 0.70125 0.16364 0.25692 0.0
C2796 C 0.72464 0.16259 0.23857 0.0
C2797 C 0.68885 0.13913 0.26648 0.0
C2798 C 0.73438 0.1369 0.22826 0.0
C2799 C 0.72194 0.11227 0.23746 0.0
H2800 H 0.71321 0.97657 1.00042 0.0
H2801 H 0.70949 0.92941 0.07548 0.0
H2802 H 0.66082 0.94685 0.08462 0.0
H2803 H 0.61862 0.97666 0.07125 0.0
H2804 H 0.62336 0.02068 0.99433 0.0
H2805 H 0.67178 1.00375 0.98635 0.0
C2806 C 0.70186 0.96989 0.01881 0.0
C2807 C 0.71551 0.95155 0.03719 0.0
C2808 C 0.67373 0.97981 0.0238 0.0
C2809 C 0.69986 0.94324 0.06075 0.0
C2810 C 0.67192 0.95343 0.06608 0.0
C2811 C 0.63035 0.98265 0.05286 0.0
C2812 C 0.61707 1.00032 0.03352 0.0
C2813 C 0.65853 0.97197 0.04784 0.0
C2814 C 0.63272 0.00729 0.00962 0.0
C2815 C 0.66057 0.99754 1.00497 0.0
H2816 H 0.41926 0.4673 0.27521 0.0
H2817 H 0.36237 0.51739 0.22755 0.0
H2818 H 0.342 0.47562 0.20932 0.0
H2819 H 0.33491 0.42574 0.21326 0.0
H2820 H 0.38807 0.37527 0.26423 0.0
H2821 H 0.41572 0.41601 0.27478 0.0
C2822 C 0.40273 0.46879 0.26052 0.0
C2823 C 0.39152 0.49487 0.25321 0.0
C2824 C 0.39047 0.44468 0.25089 0.0
C2825 C 0.37056 0.49714 0.23386 0.0
C2826 C 0.35906 0.47338 0.22336 0.0
C2827 C 0.35315 0.42355 0.22588 0.0
C2828 C 0.35934 0.39789 0.23827 0.0
C2829 C 0.36802 0.44711 0.23264 0.0
C2830 C 0.38278 0.39516 0.25491 0.0
C2831 C 0.39854 0.41837 0.26091 0.0
H2832 H 0.22356 0.65246 1.00227 0.0
H2833 H 0.27735 0.59901 0.04976 0.0
H2834 H 0.23589 0.57636 0.07067 0.0
H2835 H 0.18406 0.57173 0.07476 0.0
H2836 H 0.13077 0.62771 0.02909 0.0
H2837 H 0.17222 0.64975 0.00828 0.0
C2838 C 0.22603 0.63564 0.017 0.0
C2839 C 0.2531 0.62628 0.0236 0.0
C2840 C 0.20224 0.62348 0.02941 0.0
C2841 C 0.25645 0.60537 0.04347 0.0
C2842 C 0.23284 0.59279 0.05569 0.0
C2843 C 0.18165 0.58905 0.06064 0.0
C2844 C 0.15455 0.59796 0.05325 0.0
C2845 C 0.20559 0.60166 0.04875 0.0
C2846 C 0.15154 0.62027 0.03472 0.0
C2847 C 0.17516 0.63288 0.02283 0.0
H2848 H 0.74112 0.96191 0.33086 0.0
H2849 H 0.65648 0.93153 0.32296 0.0
H2850 H 0.67468 0.88377 0.32248 0.0
H2851 H 0.71457 0.85136 0.31939 0.0
H2852 H 0.79969 0.88108 0.3245 0.0
H2853 H 0.78117 0.92851 0.33179 0.0
C2854 C 0.72663 0.94482 0.3294 0.0
C2855 C 0.69758 0.95025 0.32649 0.0
C2856 C 0.73726 0.91739 0.32865 0.0
C2857 C 0.67902 0.92792 0.32474 0.0
C2858 C 0.68935 0.90059 0.32456 0.0
C2859 C 0.72913 0.86812 0.32244 0.0
C2860 C 0.75842 0.86291 0.32097 0.0
C2861 C 0.71846 0.89521 0.32573 0.0
C2862 C 0.777 0.8847 0.32538 0.0
C2863 C 0.76645 0.9118 0.32938 0.0
H2864 H 0.81008 0.11854 0.76983 0.0
H2865 H 0.88522 0.14786 0.8064 0.0
H2866 H 0.86581 0.19541 0.80666 0.0
H2867 H 0.82865 0.22843 0.7952 0.0
H2868 H 0.75518 0.20126 0.75435 0.0
H2869 H 0.77272 0.15272 0.75689 0.0
C2870 C 0.82195 0.13544 0.77795 0.0
C2871 C 0.84882 0.1301 0.78819 0.0
C2872 C 0.81106 0.16283 0.77717 0.0
C2873 C 0.86447 0.15186 0.79838 0.0
C2874 C 0.85341 0.1789 0.79856 0.0
C2875 C 0.81629 0.21185 0.78711 0.0
C2876 C 0.79056 0.21809 0.77497 0.0
C2877 C 0.82688 0.18458 0.78785 0.0
C2878 C 0.77503 0.19667 0.76391 0.0
C2879 C 0.78504 0.16906 0.76537 0.0
loop_
_geom_bond_atom_site_label_1
_geom_bond_atom_site_label_2
_geom_bond_distance
_geom_bond_site_symmetry_2
_ccdc_geom_bond_type
Mn0 O5 2.095 . S
Mn0 O15 2.162 . S
Mn0 O16 2.297 . S
Mn0 O24 2.385 . S
Mn0 O25 2.209 . S
Mn0 O26 2.094 1_455 S
Mn1 O6 2.121 1_655 S
Mn1 N8 2.257 . S
Mn1 N17 2.282 . S
Mn1 O25 2.215 1_655 S
Mn1 O27 2.117 . S
C2 O24 1.234 . S
C2 O25 1.283 . S
C3 O15 1.281 . S
C3 O16 1.236 . S
C4 O26 1.240 . S
C4 O27 1.264 . S
O5 Mn0 2.095 . S
O5 C14 1.250 . S
O6 Mn1 2.121 1_455 S
O6 C14 1.258 . S
C7 N8 1.326 1_455 S
C7 C11 1.460 . S
C7 H13 0.929 . S
N8 Mn1 2.257 . S
N8 C7 1.326 1_655 S
N8 C12 1.362 . S
C9 C10 1.274 . S
C9 C12 1.431 . S
C9 C29 1.449 . S
C10 C9 1.274 . S
C10 C11 1.461 1_655 S
C10 H30 0.931 1_554 S
C11 C7 1.460 . S
C11 C10 1.461 1_455 S
C11 H31 0.930 . S
C12 N8 1.362 . S
C12 C9 1.431 . S
C12 C22 1.476 . S
H13 C7 0.929 . S
C14 O5 1.250 . S
C14 O6 1.258 . S
O15 Mn0 2.162 . S
O15 C3 1.281 . S
O16 Mn0 2.297 . S
O16 C3 1.236 . S
N17 Mn1 2.282 . S
N17 C18 1.328 . S
N17 C22 1.318 . S
C18 N17 1.328 . S
C18 C19 1.457 . S
C18 H23 0.929 . S
C19 C18 1.457 . S
C19 C20 1.291 . S
C19 H32 0.931 . S
C20 C19 1.291 . S
C20 C21 1.373 . S
C20 H33 0.929 . S
C21 C20 1.373 . S
C21 C22 1.396 . S
C21 C28 1.403 . S
C22 C12 1.476 . S
C22 N17 1.318 . S
C22 C21 1.396 . S
H23 C18 0.929 . S
O24 Mn0 2.385 . S
O24 C2 1.234 . S
O25 Mn0 2.209 . S
O25 Mn1 2.215 1_455 S
O25 C2 1.283 . S
O26 Mn0 2.094 1_655 S
O26 C4 1.240 . S
O27 Mn1 2.117 . S
O27 C4 1.264 . S
C28 C21 1.403 . S
C28 C29 1.399 . S
C28 H34 0.929 . S
C29 C9 1.449 . S
C29 C28 1.399 . S
C29 H35 0.930 . S
H30 C10 0.931 1_556 S
H31 C11 0.930 . S
H32 C19 0.931 . S
H33 C20 0.929 . S
H34 C28 0.929 . S
H35 C29 0.930 . S
Mn36 O41 2.095 . S
Mn36 O51 2.162 . S
Mn36 O52 2.297 . S
Mn36 O60 2.385 . S
Mn36 O61 2.209 . S
Mn36 O62 2.094 . S
Mn37 O42 2.121 . S
Mn37 N44 2.257 . S
Mn37 N53 2.282 1_455 S
Mn37 O61 2.215 . S
Mn37 O63 2.117 1_455 S
C38 O60 1.234 . S
C38 O61 1.283 . S
C39 O51 1.281 . S
C39 O52 1.236 . S
C40 O62 1.240 . S
C40 O63 1.264 1_455 S
O41 Mn36 2.095 . S
O41 C50 1.250 . S
O42 Mn37 2.121 . S
O42 C50 1.258 . S
C43 N44 1.326 . S
C43 C47 1.460 . S
C43 H49 0.929 . S
N44 Mn37 2.257 . S
N44 C43 1.326 . S
N44 C48 1.362 . S
C45 C46 1.258 . S
C45 C48 1.431 . S
C45 C65 1.449 1_455 S
C46 C45 1.258 . S
C46 C47 1.477 . S
C46 H66 0.931 . S
C47 C43 1.460 . S
C47 C46 1.477 . S
C47 H67 0.930 . S
C48 N44 1.362 . S
C48 C45 1.431 . S
C48 C58 1.476 1_455 S
H49 C43 0.929 . S
C50 O41 1.250 . S
C50 O42 1.258 . S
O51 Mn36 2.162 . S
O51 C39 1.281 . S
O52 Mn36 2.297 . S
O52 C39 1.236 . S
N53 Mn37 2.282 1_655 S
N53 C54 1.328 . S
N53 C58 1.318 . S
C54 N53 1.328 . S
C54 C55 1.457 . S
C54 H59 0.929 . S
C55 C54 1.457 . S
C55 C56 1.291 . S
C55 H68 0.931 . S
C56 C55 1.291 . S
C56 C57 1.373 . S
C56 H69 0.929 . S
C57 C56 1.373 . S
C57 C58 1.396 . S
C57 C64 1.403 . S
C58 C48 1.476 1_655 S
C58 N53 1.318 . S
C58 C57 1.396 . S
H59 C54 0.929 . S
O60 Mn36 2.385 . S
O60 C38 1.234 . S
O61 Mn36 2.209 . S
O61 Mn37 2.215 . S
O61 C38 1.283 . S
O62 Mn36 2.094 . S
O62 C40 1.240 . S
O63 Mn37 2.117 1_655 S
O63 C40 1.264 1_655 S
C64 C57 1.403 . S
C64 C65 1.399 . S
C64 H70 0.929 . S
C65 C45 1.449 1_655 S
C65 C64 1.399 . S
C65 H71 0.930 . S
H66 C46 0.931 . S
H67 C47 0.930 . S
H68 C55 0.931 . S
H69 C56 0.929 . S
H70 C64 0.929 . S
H71 C65 0.930 . S
Mn72 O77 2.095 . S
Mn72 O87 2.162 . S
Mn72 O88 2.297 . S
Mn72 O96 2.385 . S
Mn72 O97 2.209 . S
Mn72 O98 2.094 . S
Mn73 O78 2.121 . S
Mn73 N80 2.257 . S
Mn73 N89 2.282 . S
Mn73 O97 2.215 . S
Mn73 O99 2.117 . S
C74 O96 1.234 . S
C74 O97 1.283 . S
C75 O87 1.281 . S
C75 O88 1.236 . S
C76 O98 1.240 . S
C76 O99 1.264 . S
O77 Mn72 2.095 . S
O77 C86 1.250 . S
O78 Mn73 2.121 . S
O78 C86 1.258 . S
C79 N80 1.326 . S
C79 C83 1.460 . S
C79 H85 0.929 . S
N80 Mn73 2.257 . S
N80 C79 1.326 . S
N80 C84 1.362 . S
C81 C82 1.258 . S
C81 C84 1.431 . S
C81 C101 1.449 . S
C82 C81 1.258 . S
C82 C83 1.477 . S
C82 H102 0.931 . S
C83 C79 1.460 . S
C83 C82 1.477 . S
C83 H103 0.930 . S
C84 N80 1.362 . S
C84 C81 1.431 . S
C84 C94 1.476 . S
H85 C79 0.929 . S
C86 O77 1.250 . S
C86 O78 1.258 . S
O87 Mn72 2.162 . S
O87 C75 1.281 . S
O88 Mn72 2.297 . S
O88 C75 1.236 . S
N89 Mn73 2.282 . S
N89 C90 1.328 . S
N89 C94 1.318 . S
C90 N89 1.328 . S
C90 C91 1.457 . S
C90 H95 0.929 . S
C91 C90 1.457 . S
C91 C92 1.291 . S
C91 H104 0.931 . S
C92 C91 1.291 . S
C92 C93 1.373 . S
C92 H105 0.929 . S
C93 C92 1.373 . S
C93 C94 1.396 . S
C93 C100 1.403 . S
C94 C84 1.476 . S
C94 N89 1.318 . S
C94 C93 1.396 . S
H95 C90 0.929 . S
O96 Mn72 2.385 . S
O96 C74 1.234 . S
O97 Mn72 2.209 . S
O97 Mn73 2.215 . S
O97 C74 1.283 . S
O98 Mn72 2.094 . S
O98 C76 1.240 . S
O99 Mn73 2.117 . S
O99 C76 1.264 . S
C100 C93 1.403 . S
C100 C101 1.399 . S
C100 H106 0.929 . S
C101 C81 1.449 . S
C101 C100 1.399 . S
C101 H107 0.930 . S
H102 C82 0.931 . S
H103 C83 0.930 . S
H104 C91 0.931 . S
H105 C92 0.929 . S
H106 C100 0.929 . S
H107 C101 0.930 . S
Mn108 O113 2.095 . S
Mn108 O123 2.162 . S
Mn108 O124 2.297 . S
Mn108 O132 2.385 . S
Mn108 O133 2.209 . S
Mn108 O134 2.094 . S
Mn109 O114 2.121 . S
Mn109 N116 2.257 . S
Mn109 N125 2.282 . S
Mn109 O133 2.215 . S
Mn109 O135 2.117 . S
C110 O132 1.234 . S
C110 O133 1.283 . S
C111 O123 1.281 . S
C111 O124 1.236 . S
C112 O134 1.240 . S
C112 O135 1.264 . S
O113 Mn108 2.095 . S
O113 C122 1.250 . S
O114 Mn109 2.121 . S
O114 C122 1.258 . S
C115 N116 1.326 1_554 S
C115 C119 1.460 . S
C115 H121 0.929 . S
N116 Mn109 2.257 . S
N116 C115 1.326 1_556 S
N116 C120 1.373 . S
C117 C118 1.258 . S
C117 C120 1.396 1_554 S
C117 C137 1.449 . S
C118 C117 1.258 . S
C118 C119 1.477 . S
C118 H138 0.931 . S
C119 C115 1.460 . S
C119 C118 1.477 . S
C119 H139 0.930 . S
C120 N116 1.373 . S
C120 C117 1.396 1_556 S
C120 C130 1.502 . S
H121 C115 0.929 . S
C122 O113 1.250 . S
C122 O114 1.258 . S
O123 Mn108 2.162 . S
O123 C111 1.281 . S
O124 Mn108 2.297 . S
O124 C111 1.236 . S
N125 Mn109 2.282 . S
N125 C126 1.328 . S
N125 C130 1.318 . S
C126 N125 1.328 . S
C126 C127 1.457 . S
C126 H131 0.929 . S
C127 C126 1.457 . S
C127 C128 1.291 . S
C127 H140 0.931 . S
C128 C127 1.291 . S
C128 C129 1.373 . S
C128 H141 0.929 . S
C129 C128 1.373 . S
C129 C130 1.396 . S
C129 C136 1.403 1_556 S
C130 C120 1.502 . S
C130 N125 1.318 . S
C130 C129 1.396 . S
H131 C126 0.929 . S
O132 Mn108 2.385 . S
O132 C110 1.234 . S
O133 Mn108 2.209 . S
O133 Mn109 2.215 . S
O133 C110 1.283 . S
O134 Mn108 2.094 . S
O134 C112 1.240 . S
O135 Mn109 2.117 . S
O135 C112 1.264 . S
C136 C129 1.403 1_554 S
C136 C137 1.399 . S
C136 H142 0.929 . S
C137 C117 1.449 . S
C137 C136 1.399 . S
C137 H143 0.930 . S
H138 C118 0.931 . S
H139 C119 0.930 . S
H140 C127 0.931 . S
H141 C128 0.929 . S
H142 C136 0.929 . S
H143 C137 0.930 . S
Mn144 O149 2.095 1_545 S
Mn144 O159 2.162 . S
Mn144 O160 2.297 . S
Mn144 O168 2.385 . S
Mn144 O169 2.209 . S
Mn144 O170 2.094 . S
Mn145 O150 2.121 1_545 S
Mn145 N152 2.257 . S
Mn145 N161 2.282 . S
Mn145 O169 2.215 . S
Mn145 O171 2.117 . S
C146 O168 1.234 . S
C146 O169 1.283 . S
C147 O159 1.281 . S
C147 O160 1.236 . S
C148 O170 1.240 . S
C148 O171 1.264 . S
O149 Mn144 2.095 1_565 S
O149 C158 1.250 . S
O150 Mn145 2.121 1_565 S
O150 C158 1.258 . S
C151 N152 1.326 . S
C151 C155 1.460 . S
C151 H157 0.929 1_545 S
N152 Mn145 2.257 . S
N152 C151 1.326 . S
N152 C156 1.362 . S
C153 C154 1.258 . S
C153 C156 1.431 . S
C153 C173 1.449 . S
C154 C153 1.258 . S
C154 C155 1.477 . S
C154 H174 0.931 . S
C155 C151 1.460 . S
C155 C154 1.477 . S
C155 H175 0.942 . S
C156 N152 1.362 . S
C156 C153 1.431 . S
C156 C166 1.476 . S
H157 C151 0.929 1_565 S
C158 O149 1.250 . S
C158 O150 1.258 . S
O159 Mn144 2.162 . S
O159 C147 1.281 . S
O160 Mn144 2.297 . S
O160 C147 1.236 . S
N161 Mn145 2.282 . S
N161 C162 1.328 . S
N161 C166 1.318 . S
C162 N161 1.328 . S
C162 C163 1.457 . S
C162 H167 0.929 . S
C163 C162 1.457 . S
C163 C164 1.291 . S
C163 H176 0.931 . S
C164 C163 1.291 . S
C164 C165 1.373 . S
C164 H177 0.929 . S
C165 C164 1.373 . S
C165 C166 1.396 . S
C165 C172 1.403 . S
C166 C156 1.476 . S
C166 N161 1.318 . S
C166 C165 1.396 . S
H167 C162 0.929 . S
O168 Mn144 2.385 . S
O168 C146 1.234 . S
O169 Mn144 2.209 . S
O169 Mn145 2.215 . S
O169 C146 1.283 . S
O170 Mn144 2.094 . S
O170 C148 1.240 . S
O171 Mn145 2.117 . S
O171 C148 1.264 . S
C172 C165 1.403 . S
C172 C173 1.399 . S
C172 H178 0.929 . S
C173 C153 1.449 . S
C173 C172 1.399 . S
C173 H179 0.930 . S
H174 C154 0.931 . S
H175 C155 0.942 . S
H176 C163 0.931 . S
H177 C164 0.929 . S
H178 C172 0.929 . S
H179 C173 0.930 . S
Mn180 O185 2.095 . S
Mn180 O195 2.162 . S
Mn180 O196 2.297 . S
Mn180 O204 2.385 . S
Mn180 O205 2.209 . S
Mn180 O206 2.094 . S
Mn181 O186 2.121 . S
Mn181 N188 2.257 . S
Mn181 N197 2.282 . S
Mn181 O205 2.215 . S
Mn181 O207 2.117 . S
C182 O204 1.234 . S
C182 O205 1.283 . S
C183 O195 1.281 . S
C183 O196 1.236 . S
C184 O206 1.240 . S
C184 O207 1.264 . S
O185 Mn180 2.095 . S
O185 C194 1.250 . S
O186 Mn181 2.121 . S
O186 C194 1.258 . S
C187 N188 1.326 1_545 S
C187 C191 1.460 . S
C187 H193 0.929 . S
N188 Mn181 2.257 . S
N188 C187 1.326 1_565 S
N188 C192 1.362 1_565 S
C189 C190 1.258 . S
C189 C192 1.431 . S
C189 C209 1.449 . S
C190 C189 1.258 . S
C190 C191 1.477 . S
C190 H210 0.931 . S
C191 C187 1.460 . S
C191 C190 1.477 . S
C191 H211 0.930 . S
C192 N188 1.362 1_545 S
C192 C189 1.431 . S
C192 C202 1.476 1_545 S
H193 C187 0.929 . S
C194 O185 1.250 . S
C194 O186 1.258 . S
O195 Mn180 2.162 . S
O195 C183 1.281 . S
O196 Mn180 2.297 . S
O196 C183 1.236 . S
N197 Mn181 2.282 . S
N197 C198 1.328 . S
N197 C202 1.318 . S
C198 N197 1.328 . S
C198 C199 1.457 . S
C198 H203 0.929 . S
C199 C198 1.457 . S
C199 C200 1.291 . S
C199 H212 0.931 . S
C200 C199 1.291 . S
C200 C201 1.373 . S
C200 H213 0.929 . S
C201 C200 1.373 . S
C201 C202 1.396 . S
C201 C208 1.403 1_565 S
C202 C192 1.476 1_565 S
C202 N197 1.318 . S
C202 C201 1.396 . S
H203 C198 0.929 . S
O204 Mn180 2.385 . S
O204 C182 1.234 . S
O205 Mn180 2.209 . S
O205 Mn181 2.215 . S
O205 C182 1.283 . S
O206 Mn180 2.094 . S
O206 C184 1.240 . S
O207 Mn181 2.117 . S
O207 C184 1.264 . S
C208 C201 1.403 1_545 S
C208 C209 1.399 . S
C208 H214 0.929 . S
C209 C189 1.449 . S
C209 C208 1.399 . S
C209 H215 0.930 . S
H210 C190 0.931 . S
H211 C191 0.930 . S
H212 C199 0.931 . S
H213 C200 0.929 . S
H214 C208 0.929 . S
H215 C209 0.930 . S
Mn216 O221 2.095 . S
Mn216 O231 2.162 . S
Mn216 O232 2.297 . S
Mn216 O240 2.385 . S
Mn216 O241 2.209 . S
Mn216 O242 2.094 . S
Mn217 O222 2.121 . S
Mn217 N224 2.257 . S
Mn217 N233 2.282 . S
Mn217 O241 2.215 . S
Mn217 O243 2.117 . S
C218 O240 1.234 . S
C218 O241 1.283 . S
C219 O231 1.281 . S
C219 O232 1.236 . S
C220 O242 1.240 . S
C220 O243 1.264 . S
O221 Mn216 2.095 . S
O221 C230 1.250 . S
O222 Mn217 2.121 . S
O222 C230 1.258 . S
C223 N224 1.326 . S
C223 C227 1.460 . S
C223 H229 0.929 . S
N224 Mn217 2.257 . S
N224 C223 1.326 . S
N224 C228 1.362 . S
C225 C226 1.258 . S
C225 C228 1.431 . S
C225 C245 1.449 1_545 S
C226 C225 1.258 . S
C226 C227 1.477 . S
C226 H246 0.931 . S
C227 C223 1.460 . S
C227 C226 1.477 . S
C227 H247 0.930 . S
C228 N224 1.362 . S
C228 C225 1.431 . S
C228 C238 1.476 . S
H229 C223 0.929 . S
C230 O221 1.250 . S
C230 O222 1.258 . S
O231 Mn216 2.162 . S
O231 C219 1.281 . S
O232 Mn216 2.297 . S
O232 C219 1.236 . S
N233 Mn217 2.282 . S
N233 C234 1.328 . S
N233 C238 1.318 . S
C234 N233 1.328 . S
C234 C235 1.457 1_545 S
C234 H239 0.929 . S
C235 C234 1.457 1_565 S
C235 C236 1.291 . S
C235 H248 0.931 . S
C236 C235 1.291 . S
C236 C237 1.373 . S
C236 H249 0.929 . S
C237 C236 1.373 . S
C237 C238 1.396 1_565 S
C237 C244 1.403 . S
C238 C228 1.476 . S
C238 N233 1.318 . S
C238 C237 1.396 1_545 S
H239 C234 0.929 . S
O240 Mn216 2.385 . S
O240 C218 1.234 . S
O241 Mn216 2.209 . S
O241 Mn217 2.215 . S
O241 C218 1.283 . S
O242 Mn216 2.094 . S
O242 C220 1.240 . S
O243 Mn217 2.117 . S
O243 C220 1.264 . S
C244 C237 1.403 . S
C244 C245 1.399 . S
C244 H250 0.929 . S
C245 C225 1.449 1_565 S
C245 C244 1.399 . S
C245 H251 0.930 . S
H246 C226 0.931 . S
H247 C227 0.930 . S
H248 C235 0.931 . S
H249 C236 0.929 . S
H250 C244 0.929 . S
H251 C245 0.930 . S
Mn252 O257 2.095 . S
Mn252 O267 2.162 . S
Mn252 O268 2.297 . S
Mn252 O276 2.385 . S
Mn252 O277 2.209 . S
Mn252 O278 2.082 1_554 S
Mn253 O258 2.121 1_556 S
Mn253 N260 2.257 . S
Mn253 N269 2.282 . S
Mn253 O277 2.215 1_556 S
Mn253 O279 2.117 . S
C254 O276 1.234 . S
C254 O277 1.283 . S
C255 O267 1.281 . S
C255 O268 1.236 . S
C256 O278 1.253 . S
C256 O279 1.264 . S
O257 Mn252 2.095 . S
O257 C266 1.250 . S
O258 Mn253 2.121 1_554 S
O258 C266 1.258 . S
C259 N260 1.326 1_554 S
C259 C263 1.460 . S
C259 H265 0.929 . S
N260 Mn253 2.257 . S
N260 C259 1.326 1_556 S
N260 C264 1.362 . S
C261 C262 1.258 . S
C261 C264 1.431 . S
C261 C281 1.449 . S
C262 C261 1.258 . S
C262 C263 1.477 1_556 S
C262 H282 0.931 1_545 S
C263 C259 1.460 . S
C263 C262 1.477 1_554 S
C263 H283 0.930 . S
C264 N260 1.362 . S
C264 C261 1.431 . S
C264 C274 1.476 . S
H265 C259 0.929 . S
C266 O257 1.250 . S
C266 O258 1.258 . S
O267 Mn252 2.162 . S
O267 C255 1.281 . S
O268 Mn252 2.297 . S
O268 C255 1.236 . S
N269 Mn253 2.282 . S
N269 C270 1.328 . S
N269 C274 1.318 . S
C270 N269 1.328 . S
C270 C271 1.457 . S
C270 H275 0.929 . S
C271 C270 1.457 . S
C271 C272 1.291 . S
C271 H284 0.931 . S
C272 C271 1.291 . S
C272 C273 1.373 . S
C272 H285 0.929 . S
C273 C272 1.373 . S
C273 C274 1.396 . S
C273 C280 1.403 . S
C274 C264 1.476 . S
C274 N269 1.318 . S
C274 C273 1.396 . S
H275 C270 0.929 . S
O276 Mn252 2.385 . S
O276 C254 1.234 . S
O277 Mn252 2.209 . S
O277 Mn253 2.215 1_554 S
O277 C254 1.283 . S
O278 Mn252 2.082 1_556 S
O278 C256 1.253 . S
O279 Mn253 2.117 . S
O279 C256 1.264 . S
C280 C273 1.403 . S
C280 C281 1.399 . S
C280 H286 0.929 . S
C281 C261 1.449 . S
C281 C280 1.399 . S
C281 H287 0.930 . S
H282 C262 0.931 1_565 S
H283 C263 0.930 . S
H284 C271 0.931 . S
H285 C272 0.929 . S
H286 C280 0.929 . S
H287 C281 0.930 . S
Mn288 O293 2.095 . S
Mn288 O303 2.162 . S
Mn288 O304 2.297 . S
Mn288 O312 2.385 . S
Mn288 O313 2.209 . S
Mn288 O314 2.094 . S
Mn289 O294 2.121 . S
Mn289 N296 2.257 . S
Mn289 N305 2.282 1_554 S
Mn289 O313 2.215 . S
Mn289 O315 2.117 1_554 S
C290 O312 1.234 . S
C290 O313 1.283 . S
C291 O303 1.281 . S
C291 O304 1.236 . S
C292 O314 1.240 . S
C292 O315 1.264 1_554 S
O293 Mn288 2.095 . S
O293 C302 1.250 . S
O294 Mn289 2.121 . S
O294 C302 1.258 . S
C295 N296 1.326 . S
C295 C299 1.460 . S
C295 H301 0.929 . S
N296 Mn289 2.257 . S
N296 C295 1.326 . S
N296 C300 1.362 . S
C297 C298 1.258 . S
C297 C300 1.431 . S
C297 C317 1.449 1_554 S
C298 C297 1.258 . S
C298 C299 1.477 . S
C298 H318 0.931 . S
C299 C295 1.460 . S
C299 C298 1.477 . S
C299 H319 0.930 . S
C300 N296 1.362 . S
C300 C297 1.431 . S
C300 C310 1.476 1_554 S
H301 C295 0.929 . S
C302 O293 1.250 . S
C302 O294 1.258 . S
O303 Mn288 2.162 . S
O303 C291 1.281 . S
O304 Mn288 2.297 . S
O304 C291 1.236 . S
N305 Mn289 2.282 1_556 S
N305 C306 1.328 . S
N305 C310 1.318 . S
C306 N305 1.328 . S
C306 C307 1.457 . S
C306 H311 0.929 . S
C307 C306 1.457 . S
C307 C308 1.291 . S
C307 H320 0.931 . S
C308 C307 1.291 . S
C308 C309 1.373 . S
C308 H321 0.929 . S
C309 C308 1.373 . S
C309 C310 1.396 . S
C309 C316 1.403 . S
C310 C300 1.476 1_556 S
C310 N305 1.318 . S
C310 C309 1.396 . S
H311 C306 0.929 . S
O312 Mn288 2.385 . S
O312 C290 1.234 . S
O313 Mn288 2.209 . S
O313 Mn289 2.215 . S
O313 C290 1.283 . S
O314 Mn288 2.094 . S
O314 C292 1.240 . S
O315 Mn289 2.117 1_556 S
O315 C292 1.264 1_556 S
C316 C309 1.403 . S
C316 C317 1.399 . S
C316 H322 0.929 . S
C317 C297 1.449 1_556 S
C317 C316 1.399 . S
C317 H323 0.930 . S
H318 C298 0.931 . S
H319 C299 0.930 . S
H320 C307 0.931 . S
H321 C308 0.929 . S
H322 C316 0.929 . S
H323 C317 0.930 . S
Mn324 O329 2.095 . S
Mn324 O339 2.162 . S
Mn324 O340 2.297 . S
Mn324 O348 2.385 . S
Mn324 O349 2.209 . S
Mn324 O350 2.094 . S
Mn325 O330 2.121 . S
Mn325 N332 2.257 . S
Mn325 N341 2.282 . S
Mn325 O349 2.215 . S
Mn325 O351 2.117 . S
C326 O348 1.234 . S
C326 O349 1.283 . S
C327 O339 1.281 . S
C327 O340 1.236 . S
C328 O350 1.240 . S
C328 O351 1.264 . S
O329 Mn324 2.095 . S
O329 C338 1.250 . S
O330 Mn325 2.121 . S
O330 C338 1.258 . S
C331 N332 1.326 . S
C331 C335 1.460 . S
C331 H337 0.929 . S
N332 Mn325 2.257 . S
N332 C331 1.326 . S
N332 C336 1.362 . S
C333 C334 1.258 . S
C333 C336 1.431 . S
C333 C353 1.449 . S
C334 C333 1.258 . S
C334 C335 1.477 . S
C334 H354 0.931 . S
C335 C331 1.460 . S
C335 C334 1.477 . S
C335 H355 0.930 . S
C336 N332 1.362 . S
C336 C333 1.431 . S
C336 C346 1.476 . S
H337 C331 0.929 . S
C338 O329 1.250 . S
C338 O330 1.258 . S
O339 Mn324 2.162 . S
O339 C327 1.281 . S
O340 Mn324 2.297 . S
O340 C327 1.236 . S
N341 Mn325 2.282 . S
N341 C342 1.328 . S
N341 C346 1.318 . S
C342 N341 1.328 . S
C342 C343 1.457 . S
C342 H347 0.929 . S
C343 C342 1.457 . S
C343 C344 1.291 . S
C343 H356 0.931 . S
C344 C343 1.291 . S
C344 C345 1.373 . S
C344 H357 0.929 . S
C345 C344 1.373 . S
C345 C346 1.396 . S
C345 C352 1.403 . S
C346 C336 1.476 . S
C346 N341 1.318 . S
C346 C345 1.396 . S
H347 C342 0.929 . S
O348 Mn324 2.385 . S
O348 C326 1.234 . S
O349 Mn324 2.209 . S
O349 Mn325 2.215 . S
O349 C326 1.283 . S
O350 Mn324 2.094 . S
O350 C328 1.240 . S
O351 Mn325 2.117 . S
O351 C328 1.264 . S
C352 C345 1.403 . S
C352 C353 1.399 . S
C352 H358 0.929 . S
C353 C333 1.449 . S
C353 C352 1.399 . S
C353 H359 0.930 . S
H354 C334 0.931 . S
H355 C335 0.930 . S
H356 C343 0.931 . S
H357 C344 0.929 . S
H358 C352 0.929 . S
H359 C353 0.930 . S
Mn360 O365 2.095 . S
Mn360 O375 2.162 . S
Mn360 O376 2.297 . S
Mn360 O384 2.385 . S
Mn360 O385 2.209 . S
Mn360 O386 2.094 . S
Mn361 O366 2.121 . S
Mn361 N368 2.257 . S
Mn361 N377 2.282 . S
Mn361 O385 2.215 . S
Mn361 O387 2.117 . S
C362 O384 1.234 . S
C362 O385 1.283 . S
C363 O375 1.281 . S
C363 O376 1.236 . S
C364 O386 1.240 . S
C364 O387 1.264 . S
O365 Mn360 2.095 . S
O365 C374 1.250 . S
O366 Mn361 2.121 . S
O366 C374 1.258 . S
C367 N368 1.326 . S
C367 C371 1.460 . S
C367 H373 0.929 . S
N368 Mn361 2.257 . S
N368 C367 1.326 . S
N368 C372 1.362 . S
C369 C370 1.258 . S
C369 C372 1.431 . S
C369 C389 1.449 . S
C370 C369 1.258 . S
C370 C371 1.477 . S
C370 H390 0.931 . S
C371 C367 1.460 . S
C371 C370 1.477 . S
C371 H391 0.930 . S
C372 N368 1.362 . S
C372 C369 1.431 . S
C372 C382 1.476 . S
H373 C367 0.929 . S
C374 O365 1.250 . S
C374 O366 1.258 . S
O375 Mn360 2.162 . S
O375 C363 1.281 . S
O376 Mn360 2.297 . S
O376 C363 1.236 . S
N377 Mn361 2.282 . S
N377 C378 1.328 . S
N377 C382 1.318 . S
C378 N377 1.328 . S
C378 C379 1.457 . S
C378 H383 0.929 . S
C379 C378 1.457 . S
C379 C380 1.291 . S
C379 H392 0.931 . S
C380 C379 1.291 . S
C380 C381 1.373 . S
C380 H393 0.929 . S
C381 C380 1.373 . S
C381 C382 1.396 . S
C381 C388 1.403 . S
C382 C372 1.476 . S
C382 N377 1.318 . S
C382 C381 1.396 . S
H383 C378 0.929 . S
O384 Mn360 2.385 . S
O384 C362 1.234 . S
O385 Mn360 2.209 . S
O385 Mn361 2.215 . S
O385 C362 1.283 . S
O386 Mn360 2.094 . S
O386 C364 1.240 . S
O387 Mn361 2.117 . S
O387 C364 1.264 . S
C388 C381 1.403 . S
C388 C389 1.399 . S
C388 H394 0.929 . S
C389 C369 1.449 . S
C389 C388 1.399 . S
C389 H395 0.930 . S
H390 C370 0.931 . S
H391 C371 0.930 . S
H392 C379 0.931 . S
H393 C380 0.929 . S
H394 C388 0.929 . S
H395 C389 0.930 . S
Mn396 O401 2.095 . S
Mn396 O411 2.162 . S
Mn396 O412 2.297 . S
Mn396 O420 2.385 . S
Mn396 O421 2.209 . S
Mn396 O422 2.094 . S
Mn397 O402 2.121 . S
Mn397 N404 2.257 . S
Mn397 N413 2.282 . S
Mn397 O421 2.215 . S
Mn397 O423 2.117 . S
C398 O420 1.234 . S
C398 O421 1.283 . S
C399 O411 1.281 . S
C399 O412 1.236 . S
C400 O422 1.240 . S
C400 O423 1.264 . S
O401 Mn396 2.095 . S
O401 C410 1.250 . S
O402 Mn397 2.121 . S
O402 C410 1.258 . S
C403 N404 1.326 . S
C403 C407 1.460 . S
C403 H409 0.929 . S
N404 Mn397 2.257 . S
N404 C403 1.326 . S
N404 C408 1.362 . S
C405 C406 1.258 . S
C405 C408 1.431 . S
C405 C425 1.449 . S
C406 C405 1.258 . S
C406 C407 1.477 . S
C406 H426 0.931 . S
C407 C403 1.460 . S
C407 C406 1.477 . S
C407 H427 0.930 . S
C408 N404 1.362 . S
C408 C405 1.431 . S
C408 C418 1.476 . S
H409 C403 0.929 . S
C410 O401 1.250 . S
C410 O402 1.258 . S
O411 Mn396 2.162 . S
O411 C399 1.281 . S
O412 Mn396 2.297 . S
O412 C399 1.236 . S
N413 Mn397 2.282 . S
N413 C414 1.328 . S
N413 C418 1.318 . S
C414 N413 1.328 . S
C414 C415 1.457 . S
C414 H419 0.929 . S
C415 C414 1.457 . S
C415 C416 1.291 . S
C415 H428 0.931 . S
C416 C415 1.291 . S
C416 C417 1.373 . S
C416 H429 0.929 . S
C417 C416 1.373 . S
C417 C418 1.396 . S
C417 C424 1.403 . S
C418 C408 1.476 . S
C418 N413 1.318 . S
C418 C417 1.396 . S
H419 C414 0.929 . S
O420 Mn396 2.385 . S
O420 C398 1.234 . S
O421 Mn396 2.209 . S
O421 Mn397 2.215 . S
O421 C398 1.283 . S
O422 Mn396 2.094 . S
O422 C400 1.240 . S
O423 Mn397 2.117 . S
O423 C400 1.264 . S
C424 C417 1.403 . S
C424 C425 1.399 . S
C424 H430 0.929 . S
C425 C405 1.449 . S
C425 C424 1.399 . S
C425 H431 0.930 . S
H426 C406 0.931 . S
H427 C407 0.930 . S
H428 C415 0.931 . S
H429 C416 0.929 . S
H430 C424 0.929 . S
H431 C425 0.930 . S
Mn432 O437 2.095 . S
Mn432 O447 2.162 . S
Mn432 O448 2.297 . S
Mn432 O456 2.385 . S
Mn432 O457 2.209 . S
Mn432 O458 2.094 1_455 S
Mn433 O438 2.121 1_655 S
Mn433 N440 2.257 . S
Mn433 N449 2.282 . S
Mn433 O457 2.215 1_655 S
Mn433 O459 2.117 . S
C434 O456 1.234 . S
C434 O457 1.283 . S
C435 O447 1.281 . S
C435 O448 1.236 . S
C436 O458 1.240 . S
C436 O459 1.264 . S
O437 Mn432 2.095 . S
O437 C446 1.250 . S
O438 Mn433 2.121 1_455 S
O438 C446 1.258 . S
C439 N440 1.326 1_554 S
C439 C443 1.460 . S
C439 H445 0.929 1_655 S
N440 Mn433 2.257 . S
N440 C439 1.326 1_556 S
N440 C444 1.362 1_556 S
C441 C442 1.258 . S
C441 C444 1.431 . S
C441 C461 1.449 . S
C442 C441 1.258 . S
C442 C443 1.477 . S
C442 H462 0.931 . S
C443 C439 1.460 . S
C443 C442 1.477 . S
C443 H463 0.930 1_655 S
C444 N440 1.362 1_554 S
C444 C441 1.431 . S
C444 C454 1.476 1_554 S
H445 C439 0.929 1_455 S
C446 O437 1.250 . S
C446 O438 1.258 . S
O447 Mn432 2.162 . S
O447 C435 1.281 . S
O448 Mn432 2.297 . S
O448 C435 1.236 . S
N449 Mn433 2.282 . S
N449 C450 1.328 . S
N449 C454 1.318 . S
C450 N449 1.328 . S
C450 C451 1.457 . S
C450 H455 0.929 . S
C451 C450 1.457 . S
C451 C452 1.291 . S
C451 H464 0.931 . S
C452 C451 1.291 . S
C452 C453 1.373 . S
C452 H465 0.929 . S
C453 C452 1.373 . S
C453 C454 1.396 . S
C453 C460 1.403 1_556 S
C454 C444 1.476 1_556 S
C454 N449 1.318 . S
C454 C453 1.396 . S
H455 C450 0.929 . S
O456 Mn432 2.385 . S
O456 C434 1.234 . S
O457 Mn432 2.209 . S
O457 Mn433 2.215 1_455 S
O457 C434 1.283 . S
O458 Mn432 2.094 1_655 S
O458 C436 1.240 . S
O459 Mn433 2.117 . S
O459 C436 1.264 . S
C460 C453 1.403 1_554 S
C460 C461 1.399 . S
C460 H466 0.929 . S
C461 C441 1.449 . S
C461 C460 1.399 . S
C461 H467 0.930 . S
H462 C442 0.931 . S
H463 C443 0.930 1_455 S
H464 C451 0.931 . S
H465 C452 0.929 . S
H466 C460 0.929 . S
H467 C461 0.930 . S
Mn468 O473 2.095 1_455 S
Mn468 O483 2.162 . S
Mn468 O484 2.297 . S
Mn468 O492 2.385 . S
Mn468 O493 2.209 1_455 S
Mn468 O494 2.094 1_455 S
Mn469 O474 2.121 . S
Mn469 N476 2.257 . S
Mn469 N485 2.282 . S
Mn469 O493 2.215 . S
Mn469 O495 2.117 . S
C470 O492 1.234 . S
C470 O493 1.283 1_455 S
C471 O483 1.281 . S
C471 O484 1.236 . S
C472 O494 1.240 . S
C472 O495 1.264 . S
O473 Mn468 2.095 1_655 S
O473 C482 1.250 . S
O474 Mn469 2.121 . S
O474 C482 1.258 . S
C475 N476 1.326 . S
C475 C479 1.460 . S
C475 H481 0.929 . S
N476 Mn469 2.257 . S
N476 C475 1.326 . S
N476 C480 1.362 . S
C477 C478 1.258 . S
C477 C480 1.431 . S
C477 C497 1.449 . S
C478 C477 1.258 . S
C478 C479 1.477 . S
C478 H498 0.931 . S
C479 C475 1.460 . S
C479 C478 1.477 . S
C479 H499 0.930 . S
C480 N476 1.362 . S
C480 C477 1.431 . S
C480 C490 1.476 . S
H481 C475 0.929 . S
C482 O473 1.250 . S
C482 O474 1.258 . S
O483 Mn468 2.162 . S
O483 C471 1.281 . S
O484 Mn468 2.297 . S
O484 C471 1.236 . S
N485 Mn469 2.282 . S
N485 C486 1.328 . S
N485 C490 1.318 . S
C486 N485 1.328 . S
C486 C487 1.457 . S
C486 H491 0.929 . S
C487 C486 1.457 . S
C487 C488 1.291 . S
C487 H500 0.931 . S
C488 C487 1.291 . S
C488 C489 1.373 . S
C488 H501 0.929 . S
C489 C488 1.373 . S
C489 C490 1.396 . S
C489 C496 1.403 . S
C490 C480 1.476 . S
C490 N485 1.318 . S
C490 C489 1.396 . S
H491 C486 0.929 . S
O492 Mn468 2.385 . S
O492 C470 1.234 . S
O493 Mn468 2.209 1_655 S
O493 Mn469 2.215 . S
O493 C470 1.283 1_655 S
O494 Mn468 2.094 1_655 S
O494 C472 1.240 . S
O495 Mn469 2.117 . S
O495 C472 1.264 . S
C496 C489 1.403 . S
C496 C497 1.399 . S
C496 H502 0.929 . S
C497 C477 1.449 . S
C497 C496 1.399 . S
C497 H503 0.930 . S
H498 C478 0.931 . S
H499 C479 0.930 . S
H500 C487 0.931 . S
H501 C488 0.929 . S
H502 C496 0.929 . S
H503 C497 0.930 . S
Mn504 O509 2.095 . S
Mn504 O519 2.162 . S
Mn504 O520 2.297 . S
Mn504 O528 2.385 . S
Mn504 O529 2.209 . S
Mn504 O530 2.094 . S
Mn505 O510 2.121 . S
Mn505 N512 2.257 . S
Mn505 N521 2.282 . S
Mn505 O529 2.215 . S
Mn505 O531 2.117 . S
C506 O528 1.234 . S
C506 O529 1.283 . S
C507 O519 1.281 . S
C507 O520 1.236 . S
C508 O530 1.240 . S
C508 O531 1.264 . S
O509 Mn504 2.095 . S
O509 C518 1.250 . S
O510 Mn505 2.121 . S
O510 C518 1.258 . S
C511 N512 1.326 . S
C511 C515 1.460 . S
C511 H517 0.929 . S
N512 Mn505 2.257 . S
N512 C511 1.326 . S
N512 C516 1.362 . S
C513 C514 1.258 . S
C513 C516 1.431 . S
C513 C533 1.449 . S
C514 C513 1.258 . S
C514 C515 1.477 . S
C514 H534 0.931 . S
C515 C511 1.460 . S
C515 C514 1.477 . S
C515 H535 0.930 . S
C516 N512 1.362 . S
C516 C513 1.431 . S
C516 C526 1.476 . S
H517 C511 0.929 . S
C518 O509 1.250 . S
C518 O510 1.258 . S
O519 Mn504 2.162 . S
O519 C507 1.281 . S
O520 Mn504 2.297 . S
O520 C507 1.236 . S
N521 Mn505 2.282 . S
N521 C522 1.328 . S
N521 C526 1.318 . S
C522 N521 1.328 . S
C522 C523 1.457 . S
C522 H527 0.929 . S
C523 C522 1.457 . S
C523 C524 1.291 . S
C523 H536 0.931 . S
C524 C523 1.291 . S
C524 C525 1.373 . S
C524 H537 0.929 . S
C525 C524 1.373 . S
C525 C526 1.396 . S
C525 C532 1.403 . S
C526 C516 1.476 . S
C526 N521 1.318 . S
C526 C525 1.396 . S
H527 C522 0.929 . S
O528 Mn504 2.385 . S
O528 C506 1.234 . S
O529 Mn504 2.209 . S
O529 Mn505 2.215 . S
O529 C506 1.283 . S
O530 Mn504 2.094 . S
O530 C508 1.240 . S
O531 Mn505 2.117 . S
O531 C508 1.264 . S
C532 C525 1.403 . S
C532 C533 1.399 . S
C532 H538 0.929 . S
C533 C513 1.449 . S
C533 C532 1.399 . S
C533 H539 0.930 . S
H534 C514 0.931 . S
H535 C515 0.930 . S
H536 C523 0.931 . S
H537 C524 0.929 . S
H538 C532 0.929 . S
H539 C533 0.930 . S
Mn540 O545 2.095 . S
Mn540 O555 2.162 . S
Mn540 O556 2.297 . S
Mn540 O564 2.385 . S
Mn540 O565 2.209 . S
Mn540 O566 2.094 . S
Mn541 O546 2.121 . S
Mn541 N548 2.257 . S
Mn541 N557 2.282 . S
Mn541 O565 2.215 . S
Mn541 O567 2.117 . S
C542 O564 1.234 . S
C542 O565 1.283 . S
C543 O555 1.281 . S
C543 O556 1.236 . S
C544 O566 1.240 . S
C544 O567 1.264 . S
O545 Mn540 2.095 . S
O545 C554 1.250 . S
O546 Mn541 2.121 . S
O546 C554 1.258 . S
C547 N548 1.326 . S
C547 C551 1.460 . S
C547 H553 0.929 . S
N548 Mn541 2.257 . S
N548 C547 1.326 . S
N548 C552 1.362 . S
C549 C550 1.258 . S
C549 C552 1.431 . S
C549 C569 1.449 . S
C550 C549 1.258 . S
C550 C551 1.477 . S
C550 H570 0.931 1_554 S
C551 C547 1.460 . S
C551 C550 1.477 . S
C551 H571 0.930 . S
C552 N548 1.362 . S
C552 C549 1.431 . S
C552 C562 1.476 . S
H553 C547 0.929 . S
C554 O545 1.250 . S
C554 O546 1.258 . S
O555 Mn540 2.162 . S
O555 C543 1.281 . S
O556 Mn540 2.297 . S
O556 C543 1.236 . S
N557 Mn541 2.282 . S
N557 C558 1.328 . S
N557 C562 1.318 . S
C558 N557 1.328 . S
C558 C559 1.457 . S
C558 H563 0.929 . S
C559 C558 1.457 . S
C559 C560 1.291 . S
C559 H572 0.931 . S
C560 C559 1.291 . S
C560 C561 1.373 . S
C560 H573 0.929 . S
C561 C560 1.373 . S
C561 C562 1.396 . S
C561 C568 1.403 . S
C562 C552 1.476 . S
C562 N557 1.318 . S
C562 C561 1.396 . S
H563 C558 0.929 . S
O564 Mn540 2.385 . S
O564 C542 1.234 . S
O565 Mn540 2.209 . S
O565 Mn541 2.215 . S
O565 C542 1.283 . S
O566 Mn540 2.094 . S
O566 C544 1.240 . S
O567 Mn541 2.117 . S
O567 C544 1.264 . S
C568 C561 1.403 . S
C568 C569 1.399 . S
C568 H574 0.929 . S
C569 C549 1.449 . S
C569 C568 1.399 . S
C569 H575 0.930 . S
H570 C550 0.931 1_556 S
H571 C551 0.930 . S
H572 C559 0.931 . S
H573 C560 0.929 . S
H574 C568 0.929 . S
H575 C569 0.930 . S
Mn576 O581 2.095 . S
Mn576 O591 2.162 . S
Mn576 O592 2.297 . S
Mn576 O600 2.385 . S
Mn576 O601 2.209 . S
Mn576 O602 2.094 . S
Mn577 O582 2.121 . S
Mn577 N584 2.257 . S
Mn577 N593 2.282 . S
Mn577 O601 2.215 . S
Mn577 O603 2.117 . S
C578 O600 1.234 . S
C578 O601 1.283 . S
C579 O591 1.281 . S
C579 O592 1.236 . S
C580 O602 1.240 . S
C580 O603 1.264 . S
O581 Mn576 2.095 . S
O581 C590 1.250 . S
O582 Mn577 2.121 . S
O582 C590 1.258 . S
C583 N584 1.326 . S
C583 C587 1.460 . S
C583 H589 0.929 . S
N584 Mn577 2.257 . S
N584 C583 1.326 . S
N584 C588 1.362 . S
C585 C586 1.258 . S
C585 C588 1.431 . S
C585 C605 1.449 1_545 S
C586 C585 1.258 . S
C586 C587 1.477 . S
C586 H606 0.931 . S
C587 C583 1.460 . S
C587 C586 1.477 . S
C587 H607 0.930 . S
C588 N584 1.362 . S
C588 C585 1.431 . S
C588 C598 1.476 . S
H589 C583 0.929 . S
C590 O581 1.250 . S
C590 O582 1.258 . S
O591 Mn576 2.162 . S
O591 C579 1.281 . S
O592 Mn576 2.297 . S
O592 C579 1.236 . S
N593 Mn577 2.282 . S
N593 C594 1.328 . S
N593 C598 1.318 . S
C594 N593 1.328 . S
C594 C595 1.457 1_545 S
C594 H599 0.929 . S
C595 C594 1.457 1_565 S
C595 C596 1.291 . S
C595 H608 0.931 . S
C596 C595 1.291 . S
C596 C597 1.373 . S
C596 H609 0.929 . S
C597 C596 1.373 . S
C597 C598 1.396 1_565 S
C597 C604 1.403 . S
C598 C588 1.476 . S
C598 N593 1.318 . S
C598 C597 1.396 1_545 S
H599 C594 0.929 . S
O600 Mn576 2.385 . S
O600 C578 1.234 . S
O601 Mn576 2.209 . S
O601 Mn577 2.215 . S
O601 C578 1.283 . S
O602 Mn576 2.094 . S
O602 C580 1.240 . S
O603 Mn577 2.117 . S
O603 C580 1.264 . S
C604 C597 1.403 . S
C604 C605 1.399 . S
C604 H610 0.929 . S
C605 C585 1.449 1_565 S
C605 C604 1.399 . S
C605 H611 0.930 . S
H606 C586 0.931 . S
H607 C587 0.930 . S
H608 C595 0.931 . S
H609 C596 0.929 . S
H610 C604 0.929 . S
H611 C605 0.930 . S
Mn612 O617 2.095 . S
Mn612 O627 2.162 . S
Mn612 O628 2.297 . S
Mn612 O636 2.385 . S
Mn612 O637 2.209 . S
Mn612 O638 2.094 . S
Mn613 O618 2.121 . S
Mn613 N620 2.257 . S
Mn613 N629 2.282 . S
Mn613 O637 2.215 . S
Mn613 O639 2.117 . S
C614 O636 1.234 . S
C614 O637 1.283 . S
C615 O627 1.281 . S
C615 O628 1.236 . S
C616 O638 1.240 . S
C616 O639 1.264 . S
O617 Mn612 2.095 . S
O617 C626 1.250 . S
O618 Mn613 2.121 . S
O618 C626 1.258 . S
C619 N620 1.326 . S
C619 C623 1.460 . S
C619 H625 0.929 . S
N620 Mn613 2.257 . S
N620 C619 1.326 . S
N620 C624 1.362 . S
C621 C622 1.258 . S
C621 C624 1.431 . S
C621 C641 1.449 . S
C622 C621 1.258 . S
C622 C623 1.477 . S
C622 H642 0.931 1_545 S
C623 C619 1.460 . S
C623 C622 1.477 . S
C623 H643 0.930 . S
C624 N620 1.362 . S
C624 C621 1.431 . S
C624 C634 1.476 . S
H625 C619 0.929 . S
C626 O617 1.250 . S
C626 O618 1.258 . S
O627 Mn612 2.162 . S
O627 C615 1.281 . S
O628 Mn612 2.297 . S
O628 C615 1.236 . S
N629 Mn613 2.282 . S
N629 C630 1.328 . S
N629 C634 1.318 . S
C630 N629 1.328 . S
C630 C631 1.457 . S
C630 H635 0.929 . S
C631 C630 1.457 . S
C631 C632 1.291 . S
C631 H644 0.931 . S
C632 C631 1.291 . S
C632 C633 1.373 . S
C632 H645 0.929 . S
C633 C632 1.373 . S
C633 C634 1.396 . S
C633 C640 1.403 . S
C634 C624 1.476 . S
C634 N629 1.318 . S
C634 C633 1.396 . S
H635 C630 0.929 . S
O636 Mn612 2.385 . S
O636 C614 1.234 . S
O637 Mn612 2.209 . S
O637 Mn613 2.215 . S
O637 C614 1.283 . S
O638 Mn612 2.094 . S
O638 C616 1.240 . S
O639 Mn613 2.117 . S
O639 C616 1.264 . S
C640 C633 1.403 . S
C640 C641 1.399 . S
C640 H646 0.929 . S
C641 C621 1.449 . S
C641 C640 1.399 . S
C641 H647 0.930 . S
H642 C622 0.931 1_565 S
H643 C623 0.930 . S
H644 C631 0.931 . S
H645 C632 0.929 . S
H646 C640 0.929 . S
H647 C641 0.930 . S
Mn648 O653 2.095 1_545 S
Mn648 O663 2.162 . S
Mn648 O664 2.297 . S
Mn648 O672 2.385 . S
Mn648 O673 2.209 . S
Mn648 O674 2.094 . S
Mn649 O654 2.121 1_545 S
Mn649 N656 2.257 . S
Mn649 N665 2.282 . S
Mn649 O673 2.215 . S
Mn649 O675 2.117 . S
C650 O672 1.234 . S
C650 O673 1.283 . S
C651 O663 1.281 . S
C651 O664 1.236 . S
C652 O674 1.240 . S
C652 O675 1.264 . S
O653 Mn648 2.095 1_565 S
O653 C662 1.250 . S
O654 Mn649 2.121 1_565 S
O654 C662 1.258 . S
C655 N656 1.326 . S
C655 C659 1.460 . S
C655 H661 0.929 1_545 S
N656 Mn649 2.257 . S
N656 C655 1.326 . S
N656 C660 1.362 . S
C657 C658 1.258 . S
C657 C660 1.431 . S
C657 C677 1.449 . S
C658 C657 1.258 . S
C658 C659 1.477 . S
C658 H678 0.931 . S
C659 C655 1.460 . S
C659 C658 1.477 . S
C659 H679 0.930 . S
C660 N656 1.362 . S
C660 C657 1.431 . S
C660 C670 1.476 . S
H661 C655 0.929 1_565 S
C662 O653 1.250 . S
C662 O654 1.258 . S
O663 Mn648 2.162 . S
O663 C651 1.281 . S
O664 Mn648 2.297 . S
O664 C651 1.236 . S
N665 Mn649 2.282 . S
N665 C666 1.328 . S
N665 C670 1.318 . S
C666 N665 1.328 . S
C666 C667 1.457 . S
C666 H671 0.929 . S
C667 C666 1.457 . S
C667 C668 1.291 . S
C667 H680 0.931 . S
C668 C667 1.291 . S
C668 C669 1.373 . S
C668 H681 0.929 . S
C669 C668 1.373 . S
C669 C670 1.396 . S
C669 C676 1.403 . S
C670 C660 1.476 . S
C670 N665 1.318 . S
C670 C669 1.396 . S
H671 C666 0.929 . S
O672 Mn648 2.385 . S
O672 C650 1.234 . S
O673 Mn648 2.209 . S
O673 Mn649 2.215 . S
O673 C650 1.283 . S
O674 Mn648 2.094 . S
O674 C652 1.240 . S
O675 Mn649 2.117 . S
O675 C652 1.264 . S
C676 C669 1.403 . S
C676 C677 1.399 . S
C676 H682 0.929 . S
C677 C657 1.449 . S
C677 C676 1.399 . S
C677 H683 0.930 . S
H678 C658 0.931 . S
H679 C659 0.930 . S
H680 C667 0.931 . S
H681 C668 0.929 . S
H682 C676 0.929 . S
H683 C677 0.930 . S
Mn684 O689 2.095 . S
Mn684 O699 2.162 . S
Mn684 O700 2.297 . S
Mn684 O708 2.385 . S
Mn684 O709 2.209 . S
Mn684 O710 2.094 1_554 S
Mn685 O690 2.121 1_556 S
Mn685 N692 2.257 1_565 S
Mn685 N701 2.282 . S
Mn685 O709 2.215 1_556 S
Mn685 O711 2.117 . S
C686 O708 1.234 . S
C686 O709 1.283 . S
C687 O699 1.281 . S
C687 O700 1.236 . S
C688 O710 1.240 . S
C688 O711 1.264 . S
O689 Mn684 2.095 . S
O689 C698 1.250 . S
O690 Mn685 2.121 1_554 S
O690 C698 1.258 . S
C691 N692 1.308 1_554 S
C691 C695 1.462 . S
C691 H697 0.947 . S
N692 Mn685 2.257 1_545 S
N692 C691 1.308 1_556 S
N692 C696 1.362 . S
C693 C694 1.258 . S
C693 C696 1.431 . S
C693 C713 1.449 . S
C694 C693 1.258 . S
C694 C695 1.477 1_556 S
C694 H714 0.931 . S
C695 C691 1.462 . S
C695 C694 1.477 1_554 S
C695 H715 0.930 . S
C696 N692 1.362 . S
C696 C693 1.431 . S
C696 C706 1.476 1_545 S
H697 C691 0.947 . S
C698 O689 1.250 . S
C698 O690 1.258 . S
O699 Mn684 2.162 . S
O699 C687 1.281 . S
O700 Mn684 2.297 . S
O700 C687 1.236 . S
N701 Mn685 2.282 . S
N701 C702 1.328 . S
N701 C706 1.318 . S
C702 N701 1.328 . S
C702 C703 1.457 . S
C702 H707 0.929 . S
C703 C702 1.457 . S
C703 C704 1.291 . S
C703 H716 0.931 . S
C704 C703 1.291 . S
C704 C705 1.373 . S
C704 H717 0.929 . S
C705 C704 1.373 . S
C705 C706 1.396 . S
C705 C712 1.403 1_565 S
C706 C696 1.476 1_565 S
C706 N701 1.318 . S
C706 C705 1.396 . S
H707 C702 0.929 . S
O708 Mn684 2.385 . S
O708 C686 1.234 . S
O709 Mn684 2.209 . S
O709 Mn685 2.215 1_554 S
O709 C686 1.283 . S
O710 Mn684 2.094 1_556 S
O710 C688 1.240 . S
O711 Mn685 2.117 . S
O711 C688 1.264 . S
C712 C705 1.403 1_545 S
C712 C713 1.399 . S
C712 H718 0.929 . S
C713 C693 1.449 . S
C713 C712 1.399 . S
C713 H719 0.930 . S
H714 C694 0.931 . S
H715 C695 0.930 . S
H716 C703 0.931 . S
H717 C704 0.929 . S
H718 C712 0.929 . S
H719 C713 0.930 . S
Mn720 O725 2.095 1_554 S
Mn720 O735 2.162 . S
Mn720 O736 2.297 . S
Mn720 O744 2.385 . S
Mn720 O745 2.209 1_554 S
Mn720 O746 2.094 1_554 S
Mn721 O726 2.121 . S
Mn721 N728 2.257 . S
Mn721 N737 2.282 . S
Mn721 O745 2.215 . S
Mn721 O747 2.117 . S
C722 O744 1.234 . S
C722 O745 1.283 1_554 S
C723 O735 1.281 . S
C723 O736 1.236 . S
C724 O746 1.240 . S
C724 O747 1.264 . S
O725 Mn720 2.095 1_556 S
O725 C734 1.250 . S
O726 Mn721 2.121 . S
O726 C734 1.258 . S
C727 N728 1.326 . S
C727 C731 1.460 . S
C727 H733 0.929 . S
N728 Mn721 2.257 . S
N728 C727 1.326 . S
N728 C732 1.362 . S
C729 C730 1.258 . S
C729 C732 1.431 . S
C729 C749 1.449 . S
C730 C729 1.258 . S
C730 C731 1.477 . S
C730 H750 0.931 . S
C731 C727 1.460 . S
C731 C730 1.477 . S
C731 H751 0.930 . S
C732 N728 1.362 . S
C732 C729 1.431 . S
C732 C742 1.476 . S
H733 C727 0.929 . S
C734 O725 1.250 . S
C734 O726 1.258 . S
O735 Mn720 2.162 . S
O735 C723 1.281 . S
O736 Mn720 2.297 . S
O736 C723 1.236 . S
N737 Mn721 2.282 . S
N737 C738 1.328 . S
N737 C742 1.318 . S
C738 N737 1.328 . S
C738 C739 1.457 . S
C738 H743 0.929 . S
C739 C738 1.457 . S
C739 C740 1.291 . S
C739 H752 0.931 . S
C740 C739 1.291 . S
C740 C741 1.373 . S
C740 H753 0.929 . S
C741 C740 1.373 . S
C741 C742 1.396 . S
C741 C748 1.403 . S
C742 C732 1.476 . S
C742 N737 1.318 . S
C742 C741 1.396 . S
H743 C738 0.929 . S
O744 Mn720 2.385 . S
O744 C722 1.234 . S
O745 Mn720 2.209 1_556 S
O745 Mn721 2.215 . S
O745 C722 1.283 1_556 S
O746 Mn720 2.094 1_556 S
O746 C724 1.240 . S
O747 Mn721 2.117 . S
O747 C724 1.264 . S
C748 C741 1.403 . S
C748 C749 1.399 . S
C748 H754 0.929 . S
C749 C729 1.449 . S
C749 C748 1.399 . S
C749 H755 0.930 . S
H750 C730 0.931 . S
H751 C731 0.930 . S
H752 C739 0.931 . S
H753 C740 0.929 . S
H754 C748 0.929 . S
H755 C749 0.930 . S
Mn756 O761 2.095 . S
Mn756 O771 2.162 . S
Mn756 O772 2.297 . S
Mn756 O780 2.385 . S
Mn756 O781 2.209 . S
Mn756 O782 2.094 . S
Mn757 O762 2.121 . S
Mn757 N764 2.257 . S
Mn757 N773 2.282 . S
Mn757 O781 2.215 . S
Mn757 O783 2.117 . S
C758 O780 1.234 . S
C758 O781 1.283 . S
C759 O771 1.281 . S
C759 O772 1.236 . S
C760 O782 1.240 . S
C760 O783 1.264 . S
O761 Mn756 2.095 . S
O761 C770 1.250 . S
O762 Mn757 2.121 . S
O762 C770 1.258 . S
C763 N764 1.326 . S
C763 C767 1.460 . S
C763 H769 0.929 . S
N764 Mn757 2.257 . S
N764 C763 1.326 . S
N764 C768 1.362 . S
C765 C766 1.258 . S
C765 C768 1.431 . S
C765 C785 1.449 . S
C766 C765 1.258 . S
C766 C767 1.477 . S
C766 H786 0.931 . S
C767 C763 1.460 . S
C767 C766 1.477 . S
C767 H787 0.930 . S
C768 N764 1.362 . S
C768 C765 1.431 . S
C768 C778 1.476 . S
H769 C763 0.929 . S
C770 O761 1.250 . S
C770 O762 1.258 . S
O771 Mn756 2.162 . S
O771 C759 1.281 . S
O772 Mn756 2.297 . S
O772 C759 1.236 . S
N773 Mn757 2.282 . S
N773 C774 1.328 . S
N773 C778 1.318 . S
C774 N773 1.328 . S
C774 C775 1.457 . S
C774 H779 0.929 . S
C775 C774 1.457 . S
C775 C776 1.291 . S
C775 H788 0.931 . S
C776 C775 1.291 . S
C776 C777 1.373 . S
C776 H789 0.929 . S
C777 C776 1.373 . S
C777 C778 1.396 . S
C777 C784 1.403 . S
C778 C768 1.476 . S
C778 N773 1.318 . S
C778 C777 1.396 . S
H779 C774 0.929 . S
O780 Mn756 2.385 . S
O780 C758 1.234 . S
O781 Mn756 2.209 . S
O781 Mn757 2.215 . S
O781 C758 1.283 . S
O782 Mn756 2.094 . S
O782 C760 1.240 . S
O783 Mn757 2.117 . S
O783 C760 1.264 . S
C784 C777 1.403 . S
C784 C785 1.399 . S
C784 H790 0.929 . S
C785 C765 1.449 . S
C785 C784 1.399 . S
C785 H791 0.930 . S
H786 C766 0.931 . S
H787 C767 0.930 . S
H788 C775 0.931 . S
H789 C776 0.929 . S
H790 C784 0.929 . S
H791 C785 0.930 . S
Mn792 O797 2.095 . S
Mn792 O807 2.162 . S
Mn792 O808 2.297 . S
Mn792 O816 2.385 . S
Mn792 O817 2.209 . S
Mn792 O818 2.094 . S
Mn793 O798 2.121 . S
Mn793 N800 2.257 . S
Mn793 N809 2.282 . S
Mn793 O817 2.215 . S
Mn793 O819 2.117 . S
C794 O816 1.234 . S
C794 O817 1.283 . S
C795 O807 1.281 . S
C795 O808 1.236 . S
C796 O818 1.240 . S
C796 O819 1.264 . S
O797 Mn792 2.095 . S
O797 C806 1.250 . S
O798 Mn793 2.121 . S
O798 C806 1.258 . S
C799 N800 1.326 . S
C799 C803 1.460 . S
C799 H805 0.929 . S
N800 Mn793 2.257 . S
N800 C799 1.326 . S
N800 C804 1.362 . S
C801 C802 1.258 . S
C801 C804 1.431 . S
C801 C821 1.449 . S
C802 C801 1.258 . S
C802 C803 1.477 . S
C802 H822 0.931 . S
C803 C799 1.460 . S
C803 C802 1.477 . S
C803 H823 0.930 . S
C804 N800 1.362 . S
C804 C801 1.431 . S
C804 C814 1.476 . S
H805 C799 0.929 . S
C806 O797 1.250 . S
C806 O798 1.258 . S
O807 Mn792 2.162 . S
O807 C795 1.281 . S
O808 Mn792 2.297 . S
O808 C795 1.236 . S
N809 Mn793 2.282 . S
N809 C810 1.328 . S
N809 C814 1.318 . S
C810 N809 1.328 . S
C810 C811 1.457 . S
C810 H815 0.929 . S
C811 C810 1.457 . S
C811 C812 1.291 . S
C811 H824 0.931 . S
C812 C811 1.291 . S
C812 C813 1.373 . S
C812 H825 0.929 . S
C813 C812 1.373 . S
C813 C814 1.396 . S
C813 C820 1.403 . S
C814 C804 1.476 . S
C814 N809 1.318 . S
C814 C813 1.396 . S
H815 C810 0.929 . S
O816 Mn792 2.385 . S
O816 C794 1.234 . S
O817 Mn792 2.209 . S
O817 Mn793 2.215 . S
O817 C794 1.283 . S
O818 Mn792 2.094 . S
O818 C796 1.240 . S
O819 Mn793 2.117 . S
O819 C796 1.264 . S
C820 C813 1.403 . S
C820 C821 1.399 . S
C820 H826 0.929 . S
C821 C801 1.449 . S
C821 C820 1.399 . S
C821 H827 0.930 . S
H822 C802 0.931 . S
H823 C803 0.930 . S
H824 C811 0.931 . S
H825 C812 0.929 . S
H826 C820 0.929 . S
H827 C821 0.930 . S
Mn828 O833 2.095 . S
Mn828 O843 2.162 . S
Mn828 O844 2.297 . S
Mn828 O852 2.385 . S
Mn828 O853 2.209 . S
Mn828 O854 2.094 . S
Mn829 O834 2.121 . S
Mn829 N836 2.257 . S
Mn829 N845 2.282 . S
Mn829 O853 2.215 . S
Mn829 O855 2.117 . S
C830 O852 1.234 . S
C830 O853 1.283 . S
C831 O843 1.281 . S
C831 O844 1.236 . S
C832 O854 1.240 . S
C832 O855 1.264 . S
O833 Mn828 2.095 . S
O833 C842 1.250 . S
O834 Mn829 2.121 . S
O834 C842 1.258 . S
C835 N836 1.326 . S
C835 C839 1.460 . S
C835 H841 0.929 . S
N836 Mn829 2.257 . S
N836 C835 1.326 . S
N836 C840 1.362 . S
C837 C838 1.258 . S
C837 C840 1.431 . S
C837 C857 1.449 . S
C838 C837 1.258 . S
C838 C839 1.477 . S
C838 H858 0.931 . S
C839 C835 1.460 . S
C839 C838 1.477 . S
C839 H859 0.930 . S
C840 N836 1.362 . S
C840 C837 1.431 . S
C840 C850 1.476 . S
H841 C835 0.929 . S
C842 O833 1.250 . S
C842 O834 1.258 . S
O843 Mn828 2.162 . S
O843 C831 1.281 . S
O844 Mn828 2.297 . S
O844 C831 1.236 . S
N845 Mn829 2.282 . S
N845 C846 1.328 . S
N845 C850 1.318 . S
C846 N845 1.328 . S
C846 C847 1.457 . S
C846 H851 0.929 . S
C847 C846 1.457 . S
C847 C848 1.291 . S
C847 H860 0.931 . S
C848 C847 1.291 . S
C848 C849 1.373 . S
C848 H861 0.929 . S
C849 C848 1.373 . S
C849 C850 1.396 . S
C849 C856 1.403 . S
C850 C840 1.476 . S
C850 N845 1.318 . S
C850 C849 1.396 . S
H851 C846 0.929 . S
O852 Mn828 2.385 . S
O852 C830 1.234 . S
O853 Mn828 2.209 . S
O853 Mn829 2.215 . S
O853 C830 1.283 . S
O854 Mn828 2.094 . S
O854 C832 1.240 . S
O855 Mn829 2.117 . S
O855 C832 1.264 . S
C856 C849 1.403 . S
C856 C857 1.399 . S
C856 H862 0.929 . S
C857 C837 1.449 . S
C857 C856 1.399 . S
C857 H863 0.930 . S
H858 C838 0.931 . S
H859 C839 0.930 . S
H860 C847 0.931 . S
H861 C848 0.929 . S
H862 C856 0.929 . S
H863 C857 0.930 . S
Co864 N869 2.057 1_554 S
Co864 O881 2.021 1_554 S
Co864 O884 2.062 1_455 S
Co864 O888 2.117 . S
Co864 O889 2.020 . S
C865 O885 1.259 . S
C865 O888 1.258 . S
Co866 N875 2.057 . S
Co866 O882 2.117 1_545 S
Co866 O883 2.020 1_455 S
Co866 O885 2.021 . S
Co866 O890 2.062 . S
C867 N869 1.316 . S
C867 N870 1.347 1_455 S
C867 H872 0.931 . S
C868 N869 1.374 . S
C868 C871 1.351 1_455 S
C868 H873 0.929 . S
N869 Co864 2.057 1_556 S
N869 C867 1.316 . S
N869 C868 1.374 . S
N870 C867 1.347 1_655 S
N870 C871 1.373 . S
C871 C868 1.351 1_655 S
C871 N870 1.373 . S
C871 H892 0.931 . S
H872 C867 0.931 . S
H873 C868 0.929 . S
C874 O881 1.259 1_564 S
C874 O882 1.258 . S
N875 Co866 2.057 . S
N875 C876 1.316 . S
N875 C877 1.375 1_545 S
C876 N875 1.316 . S
C876 N878 1.347 . S
C876 H887 0.931 . S
C877 N875 1.375 1_565 S
C877 C879 1.350 . S
C877 H886 0.930 . S
N878 C876 1.347 . S
N878 C879 1.373 1_545 S
C879 C877 1.350 . S
C879 N878 1.373 1_565 S
C879 H893 0.931 . S
C880 O883 1.256 . S
C880 O884 1.255 . S
O881 Co864 2.021 1_556 S
O881 C874 1.259 1_546 S
O882 Co866 2.117 1_565 S
O882 C874 1.258 . S
O883 Co866 2.020 1_655 S
O883 C880 1.256 . S
O884 Co864 2.062 1_655 S
O884 C880 1.255 . S
O885 C865 1.259 . S
O885 Co866 2.021 . S
H886 C877 0.930 . S
H887 C876 0.931 . S
O888 Co864 2.117 . S
O888 C865 1.258 . S
O889 Co864 2.020 . S
O889 C891 1.256 . S
O890 Co866 2.062 . S
O890 C891 1.255 . S
C891 O889 1.256 . S
C891 O890 1.255 . S
H892 C871 0.931 . S
H893 C879 0.931 . S
Co894 N899 2.057 . S
Co894 O911 2.021 . S
Co894 O914 2.062 . S
Co894 O918 2.117 . S
Co894 O919 2.020 . S
C895 O915 1.259 . S
C895 O918 1.258 . S
Co896 N905 2.057 . S
Co896 O912 2.117 . S
Co896 O913 2.020 . S
Co896 O915 2.021 . S
Co896 O920 2.062 . S
C897 N899 1.316 . S
C897 N900 1.347 . S
C897 H902 0.931 . S
C898 N899 1.375 . S
C898 C901 1.350 . S
C898 H903 0.930 . S
N899 Co894 2.057 . S
N899 C897 1.316 . S
N899 C898 1.375 . S
N900 C897 1.347 . S
N900 C901 1.373 . S
C901 C898 1.350 . S
C901 N900 1.373 . S
C901 H922 0.931 . S
H902 C897 0.931 . S
H903 C898 0.930 . S
C904 O911 1.259 . S
C904 O912 1.258 . S
N905 Co896 2.057 . S
N905 C906 1.316 . S
N905 C907 1.375 . S
C906 N905 1.316 . S
C906 N908 1.347 . S
C906 H917 0.931 . S
C907 N905 1.375 . S
C907 C909 1.350 . S
C907 H916 0.930 . S
N908 C906 1.347 . S
N908 C909 1.373 . S
C909 C907 1.350 . S
C909 N908 1.373 . S
C909 H923 0.931 . S
C910 O913 1.256 . S
C910 O914 1.255 . S
O911 Co894 2.021 . S
O911 C904 1.259 . S
O912 Co896 2.117 . S
O912 C904 1.258 . S
O913 Co896 2.020 . S
O913 C910 1.256 . S
O914 Co894 2.062 . S
O914 C910 1.255 . S
O915 C895 1.259 . S
O915 Co896 2.021 . S
H916 C907 0.930 . S
H917 C906 0.931 . S
O918 Co894 2.117 . S
O918 C895 1.258 . S
O919 Co894 2.020 . S
O919 C921 1.256 . S
O920 Co896 2.062 . S
O920 C921 1.255 . S
C921 O919 1.256 . S
C921 O920 1.255 . S
H922 C901 0.931 . S
H923 C909 0.931 . S
Co924 N929 2.057 . S
Co924 O941 2.021 1_545 S
Co924 O944 2.062 . S
Co924 O948 2.117 . S
Co924 O949 2.020 . S
C925 O945 1.259 . S
C925 O948 1.258 . S
Co926 N935 2.057 . S
Co926 O942 2.117 . S
Co926 O943 2.020 . S
Co926 O945 2.021 . S
Co926 O950 2.062 . S
C927 N929 1.316 1_565 S
C927 N930 1.341 1_565 S
C927 H932 0.931 . S
C928 N929 1.375 . S
C928 C931 1.350 . S
C928 H933 0.930 . S
N929 Co924 2.057 . S
N929 C927 1.316 1_545 S
N929 C928 1.375 . S
N930 C927 1.341 1_545 S
N930 C931 1.406 . S
C931 C928 1.350 . S
C931 N930 1.406 . S
C931 H952 0.931 . S
H932 C927 0.931 . S
H933 C928 0.930 . S
C934 O941 1.259 . S
C934 O942 1.258 1_565 S
N935 Co926 2.057 . S
N935 C936 1.316 . S
N935 C937 1.375 . S
C936 N935 1.316 . S
C936 N938 1.347 . S
C936 H947 0.931 . S
C937 N935 1.375 . S
C937 C939 1.350 . S
C937 H946 0.930 . S
N938 C936 1.347 . S
N938 C939 1.373 . S
C939 C937 1.350 . S
C939 N938 1.373 . S
C939 H953 0.931 . S
C940 O943 1.256 . S
C940 O944 1.255 . S
O941 Co924 2.021 1_565 S
O941 C934 1.259 . S
O942 Co926 2.117 . S
O942 C934 1.258 1_545 S
O943 Co926 2.020 . S
O943 C940 1.256 . S
O944 Co924 2.062 . S
O944 C940 1.255 . S
O945 C925 1.259 . S
O945 Co926 2.021 . S
H946 C937 0.930 . S
H947 C936 0.931 . S
O948 Co924 2.117 . S
O948 C925 1.258 . S
O949 Co924 2.020 . S
O949 C951 1.256 . S
O950 Co926 2.062 . S
O950 C951 1.255 . S
C951 O949 1.256 . S
C951 O950 1.255 . S
H952 C931 0.931 . S
H953 C939 0.931 . S
Co954 N959 2.057 . S
Co954 O971 2.021 . S
Co954 O974 2.062 . S
Co954 O978 2.117 . S
Co954 O979 2.020 . S
C955 O975 1.259 . S
C955 O978 1.258 . S
Co956 N965 2.057 . S
Co956 O972 2.117 . S
Co956 O973 2.020 . S
Co956 O975 2.021 . S
Co956 O980 2.062 . S
C957 N959 1.316 . S
C957 N960 1.347 . S
C957 H962 0.931 . S
C958 N959 1.375 . S
C958 C961 1.350 . S
C958 H963 0.930 . S
N959 Co954 2.057 . S
N959 C957 1.316 . S
N959 C958 1.375 . S
N960 C957 1.347 . S
N960 C961 1.373 . S
C961 C958 1.350 . S
C961 N960 1.373 . S
C961 H982 0.931 . S
H962 C957 0.931 . S
H963 C958 0.930 . S
C964 O971 1.259 . S
C964 O972 1.258 . S
N965 Co956 2.057 . S
N965 C966 1.316 . S
N965 C967 1.375 . S
C966 N965 1.316 . S
C966 N968 1.347 . S
C966 H977 0.931 . S
C967 N965 1.375 . S
C967 C969 1.350 . S
C967 H976 0.930 . S
N968 C966 1.347 . S
N968 C969 1.373 . S
C969 C967 1.350 . S
C969 N968 1.373 . S
C969 H983 0.931 . S
C970 O973 1.256 . S
C970 O974 1.255 . S
O971 Co954 2.021 . S
O971 C964 1.259 . S
O972 Co956 2.117 . S
O972 C964 1.258 . S
O973 Co956 2.020 . S
O973 C970 1.256 . S
O974 Co954 2.062 . S
O974 C970 1.255 . S
O975 C955 1.259 . S
O975 Co956 2.021 . S
H976 C967 0.930 . S
H977 C966 0.931 . S
O978 Co954 2.117 . S
O978 C955 1.258 . S
O979 Co954 2.020 . S
O979 C981 1.256 . S
O980 Co956 2.062 . S
O980 C981 1.255 . S
C981 O979 1.256 . S
C981 O980 1.255 . S
H982 C961 0.931 . S
H983 C969 0.931 . S
Co984 N989 2.057 1_545 S
Co984 O1001 2.021 . S
Co984 O1004 2.063 1_545 S
Co984 O1008 2.117 . S
Co984 O1009 2.020 1_455 S
C985 O1005 1.259 . S
C985 O1008 1.258 . S
Co986 N995 2.057 . S
Co986 O1002 2.117 . S
Co986 O1003 2.020 . S
Co986 O1005 2.021 . S
Co986 O1010 2.062 1_455 S
C987 N989 1.316 . S
C987 N990 1.347 . S
C987 H992 0.931 . S
C988 N989 1.375 1_655 S
C988 C991 1.350 . S
C988 H993 0.930 . S
N989 Co984 2.057 1_565 S
N989 C987 1.316 . S
N989 C988 1.375 1_455 S
N990 C987 1.347 . S
N990 C991 1.373 1_455 S
C991 C988 1.350 . S
C991 N990 1.373 1_655 S
C991 H1012 0.931 . S
H992 C987 0.931 . S
H993 C988 0.930 . S
C994 O1001 1.259 . S
C994 O1002 1.258 . S
N995 Co986 2.057 . S
N995 C996 1.316 . S
N995 C997 1.375 . S
C996 N995 1.316 . S
C996 N998 1.347 . S
C996 H1007 0.931 . S
C997 N995 1.375 . S
C997 C999 1.350 . S
C997 H1006 0.930 . S
N998 C996 1.347 . S
N998 C999 1.373 . S
C999 C997 1.350 . S
C999 N998 1.373 . S
C999 H1013 0.931 . S
C1000 O1003 1.256 . S
C1000 O1004 1.257 1_545 S
O1001 Co984 2.021 . S
O1001 C994 1.259 . S
O1002 Co986 2.117 . S
O1002 C994 1.258 . S
O1003 Co986 2.020 . S
O1003 C1000 1.256 . S
O1004 Co984 2.063 1_565 S
O1004 C1000 1.257 1_565 S
O1005 C985 1.259 . S
O1005 Co986 2.021 . S
H1006 C997 0.930 . S
H1007 C996 0.931 . S
O1008 Co984 2.117 . S
O1008 C985 1.258 . S
O1009 Co984 2.020 1_655 S
O1009 C1011 1.256 . S
O1010 Co986 2.062 1_655 S
O1010 C1011 1.255 . S
C1011 O1009 1.256 . S
C1011 O1010 1.255 . S
H1012 C991 0.931 . S
H1013 C999 0.931 . S
Co1014 N1019 2.057 . S
Co1014 O1031 2.021 . S
Co1014 O1034 2.062 . S
Co1014 O1038 2.117 . S
Co1014 O1039 2.020 . S
C1015 O1035 1.259 . S
C1015 O1038 1.258 . S
Co1016 N1025 2.057 . S
Co1016 O1032 2.117 . S
Co1016 O1033 2.020 . S
Co1016 O1035 2.021 . S
Co1016 O1040 2.062 . S
C1017 N1019 1.316 . S
C1017 N1020 1.347 . S
C1017 H1022 0.931 . S
C1018 N1019 1.375 . S
C1018 C1021 1.350 . S
C1018 H1023 0.930 . S
N1019 Co1014 2.057 . S
N1019 C1017 1.316 . S
N1019 C1018 1.375 . S
N1020 C1017 1.347 . S
N1020 C1021 1.373 . S
C1021 C1018 1.350 . S
C1021 N1020 1.373 . S
C1021 H1042 0.931 . S
H1022 C1017 0.931 . S
H1023 C1018 0.930 . S
C1024 O1031 1.259 . S
C1024 O1032 1.258 . S
N1025 Co1016 2.057 . S
N1025 C1026 1.316 . S
N1025 C1027 1.375 . S
C1026 N1025 1.316 . S
C1026 N1028 1.347 . S
C1026 H1037 0.931 . S
C1027 N1025 1.375 . S
C1027 C1029 1.350 . S
C1027 H1036 0.930 . S
N1028 C1026 1.347 . S
N1028 C1029 1.373 . S
C1029 C1027 1.350 . S
C1029 N1028 1.373 . S
C1029 H1043 0.931 . S
C1030 O1033 1.256 . S
C1030 O1034 1.255 . S
O1031 Co1014 2.021 . S
O1031 C1024 1.259 . S
O1032 Co1016 2.117 . S
O1032 C1024 1.258 . S
O1033 Co1016 2.020 . S
O1033 C1030 1.256 . S
O1034 Co1014 2.062 . S
O1034 C1030 1.255 . S
O1035 C1015 1.259 . S
O1035 Co1016 2.021 . S
H1036 C1027 0.930 . S
H1037 C1026 0.931 . S
O1038 Co1014 2.117 . S
O1038 C1015 1.258 . S
O1039 Co1014 2.020 . S
O1039 C1041 1.256 . S
O1040 Co1016 2.062 . S
O1040 C1041 1.255 . S
C1041 O1039 1.256 . S
C1041 O1040 1.255 . S
H1042 C1021 0.931 . S
H1043 C1029 0.931 . S
Co1044 N1049 2.057 1_554 S
Co1044 O1061 2.021 . S
Co1044 O1064 2.062 1_554 S
Co1044 O1068 2.117 . S
Co1044 O1069 2.020 1_545 S
C1045 O1065 1.259 . S
C1045 O1068 1.258 . S
Co1046 N1055 2.057 . S
Co1046 O1062 2.117 . S
Co1046 O1063 2.020 . S
Co1046 O1065 2.021 . S
Co1046 O1070 2.062 . S
C1047 N1049 1.316 . S
C1047 N1050 1.347 . S
C1047 H1052 0.931 . S
C1048 N1049 1.375 . S
C1048 C1051 1.350 . S
C1048 H1053 0.930 1_545 S
N1049 Co1044 2.057 1_556 S
N1049 C1047 1.316 . S
N1049 C1048 1.375 . S
N1050 C1047 1.347 . S
N1050 C1051 1.373 . S
C1051 C1048 1.350 . S
C1051 N1050 1.373 . S
C1051 H1072 0.931 1_545 S
H1052 C1047 0.931 . S
H1053 C1048 0.930 1_565 S
C1054 O1061 1.259 . S
C1054 O1062 1.258 . S
N1055 Co1046 2.057 . S
N1055 C1056 1.316 . S
N1055 C1057 1.375 . S
C1056 N1055 1.316 . S
C1056 N1058 1.347 . S
C1056 H1067 0.931 . S
C1057 N1055 1.375 . S
C1057 C1059 1.350 . S
C1057 H1066 0.930 . S
N1058 C1056 1.347 . S
N1058 C1059 1.373 . S
C1059 C1057 1.350 . S
C1059 N1058 1.373 . S
C1059 H1073 0.931 . S
C1060 O1063 1.256 . S
C1060 O1064 1.255 1_554 S
O1061 Co1044 2.021 . S
O1061 C1054 1.259 . S
O1062 Co1046 2.117 . S
O1062 C1054 1.258 . S
O1063 Co1046 2.020 . S
O1063 C1060 1.256 . S
O1064 Co1044 2.062 1_556 S
O1064 C1060 1.255 1_556 S
O1065 C1045 1.259 . S
O1065 Co1046 2.021 . S
H1066 C1057 0.930 . S
H1067 C1056 0.931 . S
O1068 Co1044 2.117 . S
O1068 C1045 1.258 . S
O1069 Co1044 2.020 1_565 S
O1069 C1071 1.256 . S
O1070 Co1046 2.062 . S
O1070 C1071 1.255 1_545 S
C1071 O1069 1.256 . S
C1071 O1070 1.255 1_565 S
H1072 C1051 0.931 1_565 S
H1073 C1059 0.931 . S
Co1074 N1079 2.057 . S
Co1074 O1091 2.021 . S
Co1074 O1094 2.062 . S
Co1074 O1098 2.117 . S
Co1074 O1099 2.020 . S
C1075 O1095 1.259 . S
C1075 O1098 1.258 . S
Co1076 N1085 2.057 . S
Co1076 O1092 2.117 . S
Co1076 O1093 2.020 . S
Co1076 O1095 2.021 . S
Co1076 O1100 2.062 . S
C1077 N1079 1.316 . S
C1077 N1080 1.347 . S
C1077 H1082 0.931 . S
C1078 N1079 1.375 . S
C1078 C1081 1.350 . S
C1078 H1083 0.930 . S
N1079 Co1074 2.057 . S
N1079 C1077 1.316 . S
N1079 C1078 1.375 . S
N1080 C1077 1.347 . S
N1080 C1081 1.373 . S
C1081 C1078 1.350 . S
C1081 N1080 1.373 . S
C1081 H1102 0.931 . S
H1082 C1077 0.931 . S
H1083 C1078 0.930 . S
C1084 O1091 1.259 . S
C1084 O1092 1.258 . S
N1085 Co1076 2.057 . S
N1085 C1086 1.316 . S
N1085 C1087 1.375 . S
C1086 N1085 1.316 . S
C1086 N1088 1.347 . S
C1086 H1097 0.931 . S
C1087 N1085 1.375 . S
C1087 C1089 1.350 . S
C1087 H1096 0.930 . S
N1088 C1086 1.347 . S
N1088 C1089 1.373 . S
C1089 C1087 1.350 . S
C1089 N1088 1.373 . S
C1089 H1103 0.931 . S
C1090 O1093 1.256 . S
C1090 O1094 1.255 . S
O1091 Co1074 2.021 . S
O1091 C1084 1.259 . S
O1092 Co1076 2.117 . S
O1092 C1084 1.258 . S
O1093 Co1076 2.020 . S
O1093 C1090 1.256 . S
O1094 Co1074 2.062 . S
O1094 C1090 1.255 . S
O1095 C1075 1.259 . S
O1095 Co1076 2.021 . S
H1096 C1087 0.930 . S
H1097 C1086 0.931 . S
O1098 Co1074 2.117 . S
O1098 C1075 1.258 . S
O1099 Co1074 2.020 . S
O1099 C1101 1.256 . S
O1100 Co1076 2.062 . S
O1100 C1101 1.255 . S
C1101 O1099 1.256 . S
C1101 O1100 1.255 . S
H1102 C1081 0.931 . S
H1103 C1089 0.931 . S
Co1104 N1109 2.057 . S
Co1104 O1121 2.021 1_554 S
Co1104 O1124 2.062 . S
Co1104 O1128 2.117 . S
Co1104 O1129 2.020 . S
C1105 O1125 1.259 . S
C1105 O1128 1.258 . S
Co1106 N1115 2.057 . S
Co1106 O1122 2.117 1_554 S
Co1106 O1123 2.020 . S
Co1106 O1125 2.021 . S
Co1106 O1130 2.062 . S
C1107 N1109 1.316 1_556 S
C1107 N1110 1.339 1_556 S
C1107 H1112 0.931 . S
C1108 N1109 1.375 . S
C1108 C1111 1.350 . S
C1108 H1113 0.930 . S
N1109 Co1104 2.057 . S
N1109 C1107 1.316 1_554 S
N1109 C1108 1.375 . S
N1110 C1107 1.339 1_554 S
N1110 C1111 1.412 . S
C1111 C1108 1.350 . S
C1111 N1110 1.412 . S
C1111 H1132 0.931 . S
H1112 C1107 0.931 . S
H1113 C1108 0.930 . S
C1114 O1121 1.259 . S
C1114 O1122 1.258 . S
N1115 Co1106 2.057 . S
N1115 C1116 1.316 . S
N1115 C1117 1.375 . S
C1116 N1115 1.316 . S
C1116 N1118 1.347 . S
C1116 H1127 0.931 . S
C1117 N1115 1.375 . S
C1117 C1119 1.350 . S
C1117 H1126 0.930 . S
N1118 C1116 1.347 . S
N1118 C1119 1.373 . S
C1119 C1117 1.350 . S
C1119 N1118 1.373 . S
C1119 H1133 0.931 . S
C1120 O1123 1.256 . S
C1120 O1124 1.255 . S
O1121 Co1104 2.021 1_556 S
O1121 C1114 1.259 . S
O1122 Co1106 2.117 1_556 S
O1122 C1114 1.258 . S
O1123 Co1106 2.020 . S
O1123 C1120 1.256 . S
O1124 Co1104 2.062 . S
O1124 C1120 1.255 . S
O1125 C1105 1.259 . S
O1125 Co1106 2.021 . S
H1126 C1117 0.930 . S
H1127 C1116 0.931 . S
O1128 Co1104 2.117 . S
O1128 C1105 1.258 . S
O1129 Co1104 2.020 . S
O1129 C1131 1.256 . S
O1130 Co1106 2.062 . S
O1130 C1131 1.255 . S
C1131 O1129 1.256 . S
C1131 O1130 1.255 . S
H1132 C1111 0.931 . S
H1133 C1119 0.931 . S
Co1134 N1139 2.057 . S
Co1134 O1151 2.021 . S
Co1134 O1154 2.062 . S
Co1134 O1158 2.117 . S
Co1134 O1159 2.020 . S
C1135 O1155 1.259 . S
C1135 O1158 1.258 . S
Co1136 N1145 2.057 . S
Co1136 O1152 2.117 . S
Co1136 O1153 2.020 . S
Co1136 O1155 2.021 . S
Co1136 O1160 2.062 . S
C1137 N1139 1.316 . S
C1137 N1140 1.347 . S
C1137 H1142 0.931 . S
C1138 N1139 1.375 . S
C1138 C1141 1.350 . S
C1138 H1143 0.930 . S
N1139 Co1134 2.057 . S
N1139 C1137 1.316 . S
N1139 C1138 1.375 . S
N1140 C1137 1.347 . S
N1140 C1141 1.373 . S
C1141 C1138 1.350 . S
C1141 N1140 1.373 . S
C1141 H1162 0.931 . S
H1142 C1137 0.931 . S
H1143 C1138 0.930 . S
C1144 O1151 1.259 . S
C1144 O1152 1.258 . S
N1145 Co1136 2.057 . S
N1145 C1146 1.316 . S
N1145 C1147 1.375 . S
C1146 N1145 1.316 . S
C1146 N1148 1.347 . S
C1146 H1157 0.931 . S
C1147 N1145 1.375 . S
C1147 C1149 1.350 . S
C1147 H1156 0.930 . S
N1148 C1146 1.347 . S
N1148 C1149 1.373 . S
C1149 C1147 1.350 . S
C1149 N1148 1.373 . S
C1149 H1163 0.931 . S
C1150 O1153 1.256 . S
C1150 O1154 1.255 . S
O1151 Co1134 2.021 . S
O1151 C1144 1.259 . S
O1152 Co1136 2.117 . S
O1152 C1144 1.258 . S
O1153 Co1136 2.020 . S
O1153 C1150 1.256 . S
O1154 Co1134 2.062 . S
O1154 C1150 1.255 . S
O1155 C1135 1.259 . S
O1155 Co1136 2.021 . S
H1156 C1147 0.930 . S
H1157 C1146 0.931 . S
O1158 Co1134 2.117 . S
O1158 C1135 1.258 . S
O1159 Co1134 2.020 . S
O1159 C1161 1.256 . S
O1160 Co1136 2.062 . S
O1160 C1161 1.255 . S
C1161 O1159 1.256 . S
C1161 O1160 1.255 . S
H1162 C1141 0.931 . S
H1163 C1149 0.931 . S
Co1164 N1169 2.057 . S
Co1164 O1181 2.021 1_455 S
Co1164 O1184 2.062 . S
Co1164 O1188 2.117 . S
Co1164 O1189 2.020 . S
C1165 O1185 1.259 . S
C1165 O1188 1.258 . S
Co1166 N1175 2.057 . S
Co1166 O1182 2.117 1_455 S
Co1166 O1183 2.020 . S
Co1166 O1185 2.021 . S
Co1166 O1190 2.062 . S
C1167 N1169 1.316 1_655 S
C1167 N1170 1.347 . S
C1167 H1172 0.931 . S
C1168 N1169 1.375 . S
C1168 C1171 1.350 . S
C1168 H1173 0.930 . S
N1169 Co1164 2.057 . S
N1169 C1167 1.316 1_455 S
N1169 C1168 1.375 . S
N1170 C1167 1.347 . S
N1170 C1171 1.373 1_655 S
C1171 C1168 1.350 . S
C1171 N1170 1.373 1_455 S
C1171 H1192 0.931 . S
H1172 C1167 0.931 . S
H1173 C1168 0.930 . S
C1174 O1181 1.259 . S
C1174 O1182 1.258 . S
N1175 Co1166 2.057 . S
N1175 C1176 1.316 . S
N1175 C1177 1.375 . S
C1176 N1175 1.316 . S
C1176 N1178 1.347 . S
C1176 H1187 0.931 . S
C1177 N1175 1.375 . S
C1177 C1179 1.350 . S
C1177 H1186 0.930 . S
N1178 C1176 1.347 . S
N1178 C1179 1.373 . S
C1179 C1177 1.350 . S
C1179 N1178 1.373 . S
C1179 H1193 0.931 . S
C1180 O1183 1.256 . S
C1180 O1184 1.255 . S
O1181 Co1164 2.021 1_655 S
O1181 C1174 1.259 . S
O1182 Co1166 2.117 1_655 S
O1182 C1174 1.258 . S
O1183 Co1166 2.020 . S
O1183 C1180 1.256 . S
O1184 Co1164 2.062 . S
O1184 C1180 1.255 . S
O1185 C1165 1.259 . S
O1185 Co1166 2.021 . S
H1186 C1177 0.930 . S
H1187 C1176 0.931 . S
O1188 Co1164 2.117 . S
O1188 C1165 1.258 . S
O1189 Co1164 2.020 . S
O1189 C1191 1.256 . S
O1190 Co1166 2.062 . S
O1190 C1191 1.255 . S
C1191 O1189 1.256 . S
C1191 O1190 1.255 . S
H1192 C1171 0.931 . S
H1193 C1179 0.931 . S
Co1194 N1199 2.057 . S
Co1194 O1211 2.021 . S
Co1194 O1214 2.062 . S
Co1194 O1218 2.117 . S
Co1194 O1219 2.020 . S
C1195 O1215 1.259 . S
C1195 O1218 1.258 . S
Co1196 N1205 2.057 . S
Co1196 O1212 2.117 . S
Co1196 O1213 2.020 . S
Co1196 O1215 2.021 . S
Co1196 O1220 2.062 . S
C1197 N1199 1.316 . S
C1197 N1200 1.347 . S
C1197 H1202 0.931 . S
C1198 N1199 1.375 . S
C1198 C1201 1.350 . S
C1198 H1203 0.930 . S
N1199 Co1194 2.057 . S
N1199 C1197 1.316 . S
N1199 C1198 1.375 . S
N1200 C1197 1.347 . S
N1200 C1201 1.373 . S
C1201 C1198 1.350 . S
C1201 N1200 1.373 . S
C1201 H1222 0.931 . S
H1202 C1197 0.931 . S
H1203 C1198 0.930 . S
C1204 O1211 1.259 . S
C1204 O1212 1.258 . S
N1205 Co1196 2.057 . S
N1205 C1206 1.316 . S
N1205 C1207 1.375 . S
C1206 N1205 1.316 . S
C1206 N1208 1.347 . S
C1206 H1217 0.931 . S
C1207 N1205 1.375 . S
C1207 C1209 1.350 . S
C1207 H1216 0.930 . S
N1208 C1206 1.347 . S
N1208 C1209 1.373 . S
C1209 C1207 1.350 . S
C1209 N1208 1.373 . S
C1209 H1223 0.931 . S
C1210 O1213 1.256 . S
C1210 O1214 1.255 . S
O1211 Co1194 2.021 . S
O1211 C1204 1.259 . S
O1212 Co1196 2.117 . S
O1212 C1204 1.258 . S
O1213 Co1196 2.020 . S
O1213 C1210 1.256 . S
O1214 Co1194 2.062 . S
O1214 C1210 1.255 . S
O1215 C1195 1.259 . S
O1215 Co1196 2.021 . S
H1216 C1207 0.930 . S
H1217 C1206 0.931 . S
O1218 Co1194 2.117 . S
O1218 C1195 1.258 . S
O1219 Co1194 2.020 . S
O1219 C1221 1.256 . S
O1220 Co1196 2.062 . S
O1220 C1221 1.255 . S
C1221 O1219 1.256 . S
C1221 O1220 1.255 . S
H1222 C1201 0.931 . S
H1223 C1209 0.931 . S
Co1224 N1229 2.057 . S
Co1224 O1241 2.021 . S
Co1224 O1244 2.062 . S
Co1224 O1248 2.117 . S
Co1224 O1249 2.020 . S
C1225 O1245 1.259 . S
C1225 O1248 1.258 . S
Co1226 N1235 2.057 . S
Co1226 O1242 2.117 . S
Co1226 O1243 2.020 . S
Co1226 O1245 2.021 . S
Co1226 O1250 2.062 . S
C1227 N1229 1.316 . S
C1227 N1230 1.347 . S
C1227 H1232 0.931 . S
C1228 N1229 1.375 . S
C1228 C1231 1.350 . S
C1228 H1233 0.930 . S
N1229 Co1224 2.057 . S
N1229 C1227 1.316 . S
N1229 C1228 1.375 . S
N1230 C1227 1.347 . S
N1230 C1231 1.373 . S
C1231 C1228 1.350 . S
C1231 N1230 1.373 . S
C1231 H1252 0.931 . S
H1232 C1227 0.931 . S
H1233 C1228 0.930 . S
C1234 O1241 1.259 . S
C1234 O1242 1.258 . S
N1235 Co1226 2.057 . S
N1235 C1236 1.316 . S
N1235 C1237 1.375 . S
C1236 N1235 1.316 . S
C1236 N1238 1.347 . S
C1236 H1247 0.931 . S
C1237 N1235 1.375 . S
C1237 C1239 1.350 . S
C1237 H1246 0.930 . S
N1238 C1236 1.347 . S
N1238 C1239 1.373 . S
C1239 C1237 1.350 . S
C1239 N1238 1.373 . S
C1239 H1253 0.931 . S
C1240 O1243 1.256 . S
C1240 O1244 1.255 . S
O1241 Co1224 2.021 . S
O1241 C1234 1.259 . S
O1242 Co1226 2.117 . S
O1242 C1234 1.258 . S
O1243 Co1226 2.020 . S
O1243 C1240 1.256 . S
O1244 Co1224 2.062 . S
O1244 C1240 1.255 . S
O1245 C1225 1.259 . S
O1245 Co1226 2.021 . S
H1246 C1237 0.930 . S
H1247 C1236 0.931 . S
O1248 Co1224 2.117 . S
O1248 C1225 1.258 . S
O1249 Co1224 2.020 . S
O1249 C1251 1.256 . S
O1250 Co1226 2.062 . S
O1250 C1251 1.255 . S
C1251 O1249 1.256 . S
C1251 O1250 1.255 . S
H1252 C1231 0.931 . S
H1253 C1239 0.931 . S
Co1254 N1259 2.057 . S
Co1254 O1271 2.021 . S
Co1254 O1274 2.062 . S
Co1254 O1278 2.117 . S
Co1254 O1279 2.020 . S
C1255 O1275 1.259 . S
C1255 O1278 1.258 . S
Co1256 N1265 2.057 . S
Co1256 O1272 2.117 . S
Co1256 O1273 2.020 . S
Co1256 O1275 2.021 . S
Co1256 O1280 2.062 . S
C1257 N1259 1.316 . S
C1257 N1260 1.347 . S
C1257 H1262 0.931 . S
C1258 N1259 1.375 . S
C1258 C1261 1.350 . S
C1258 H1263 0.930 . S
N1259 Co1254 2.057 . S
N1259 C1257 1.316 . S
N1259 C1258 1.375 . S
N1260 C1257 1.347 . S
N1260 C1261 1.373 . S
C1261 C1258 1.350 . S
C1261 N1260 1.373 . S
C1261 H1282 0.931 . S
H1262 C1257 0.931 . S
H1263 C1258 0.930 . S
C1264 O1271 1.259 . S
C1264 O1272 1.258 . S
N1265 Co1256 2.057 . S
N1265 C1266 1.316 . S
N1265 C1267 1.375 . S
C1266 N1265 1.316 . S
C1266 N1268 1.347 . S
C1266 H1277 0.931 . S
C1267 N1265 1.375 . S
C1267 C1269 1.350 . S
C1267 H1276 0.930 . S
N1268 C1266 1.347 . S
N1268 C1269 1.373 . S
C1269 C1267 1.350 . S
C1269 N1268 1.373 . S
C1269 H1283 0.931 . S
C1270 O1273 1.256 . S
C1270 O1274 1.255 . S
O1271 Co1254 2.021 . S
O1271 C1264 1.259 . S
O1272 Co1256 2.117 . S
O1272 C1264 1.258 . S
O1273 Co1256 2.020 . S
O1273 C1270 1.256 . S
O1274 Co1254 2.062 . S
O1274 C1270 1.255 . S
O1275 C1255 1.259 . S
O1275 Co1256 2.021 . S
H1276 C1267 0.930 . S
H1277 C1266 0.931 . S
O1278 Co1254 2.117 . S
O1278 C1255 1.258 . S
O1279 Co1254 2.020 . S
O1279 C1281 1.256 . S
O1280 Co1256 2.062 . S
O1280 C1281 1.255 . S
C1281 O1279 1.256 . S
C1281 O1280 1.255 . S
H1282 C1261 0.931 . S
H1283 C1269 0.931 . S
Co1284 N1289 2.057 . S
Co1284 O1301 2.021 . S
Co1284 O1304 2.062 . S
Co1284 O1308 2.117 . S
Co1284 O1309 2.020 . S
C1285 O1305 1.259 . S
C1285 O1308 1.258 . S
Co1286 N1295 2.057 . S
Co1286 O1302 2.117 . S
Co1286 O1303 2.020 . S
Co1286 O1305 2.021 . S
Co1286 O1310 2.062 . S
C1287 N1289 1.316 . S
C1287 N1290 1.347 . S
C1287 H1292 0.931 . S
C1288 N1289 1.375 . S
C1288 C1291 1.350 . S
C1288 H1293 0.930 . S
N1289 Co1284 2.057 . S
N1289 C1287 1.316 . S
N1289 C1288 1.375 . S
N1290 C1287 1.347 . S
N1290 C1291 1.373 . S
C1291 C1288 1.350 . S
C1291 N1290 1.373 . S
C1291 H1312 0.931 . S
H1292 C1287 0.931 . S
H1293 C1288 0.930 . S
C1294 O1301 1.259 . S
C1294 O1302 1.258 . S
N1295 Co1286 2.057 . S
N1295 C1296 1.316 . S
N1295 C1297 1.375 . S
C1296 N1295 1.316 . S
C1296 N1298 1.347 . S
C1296 H1307 0.931 . S
C1297 N1295 1.375 . S
C1297 C1299 1.350 . S
C1297 H1306 0.930 . S
N1298 C1296 1.347 . S
N1298 C1299 1.373 . S
C1299 C1297 1.350 . S
C1299 N1298 1.373 . S
C1299 H1313 0.931 . S
C1300 O1303 1.256 . S
C1300 O1304 1.255 . S
O1301 Co1284 2.021 . S
O1301 C1294 1.259 . S
O1302 Co1286 2.117 . S
O1302 C1294 1.258 . S
O1303 Co1286 2.020 . S
O1303 C1300 1.256 . S
O1304 Co1284 2.062 . S
O1304 C1300 1.255 . S
O1305 C1285 1.259 . S
O1305 Co1286 2.021 . S
H1306 C1297 0.930 . S
H1307 C1296 0.931 . S
O1308 Co1284 2.117 . S
O1308 C1285 1.258 . S
O1309 Co1284 2.020 . S
O1309 C1311 1.256 . S
O1310 Co1286 2.062 . S
O1310 C1311 1.255 . S
C1311 O1309 1.256 . S
C1311 O1310 1.255 . S
H1312 C1291 0.931 . S
H1313 C1299 0.931 . S
Co1314 N1319 2.057 1_455 S
Co1314 O1331 2.021 . S
Co1314 O1334 2.062 1_455 S
Co1314 O1338 2.117 . S
Co1314 O1339 2.020 1_554 S
C1315 O1335 1.259 . S
C1315 O1338 1.258 . S
Co1316 N1325 2.057 . S
Co1316 O1332 2.117 . S
Co1316 O1333 2.020 . S
Co1316 O1335 2.021 . S
Co1316 O1340 2.062 1_554 S
C1317 N1319 1.316 . S
C1317 N1320 1.347 . S
C1317 H1322 0.931 . S
C1318 N1319 1.392 . S
C1318 C1321 1.350 . S
C1318 H1323 0.917 1_554 S
N1319 Co1314 2.057 1_655 S
N1319 C1317 1.316 . S
N1319 C1318 1.392 . S
N1320 C1317 1.347 . S
N1320 C1321 1.393 . S
C1321 C1318 1.350 . S
C1321 N1320 1.393 . S
C1321 H1342 0.914 1_554 S
H1322 C1317 0.931 . S
H1323 C1318 0.917 1_556 S
C1324 O1331 1.259 . S
C1324 O1332 1.258 . S
N1325 Co1316 2.057 . S
N1325 C1326 1.316 . S
N1325 C1327 1.375 . S
C1326 N1325 1.316 . S
C1326 N1328 1.347 . S
C1326 H1337 0.931 . S
C1327 N1325 1.375 . S
C1327 C1329 1.350 . S
C1327 H1336 0.930 . S
N1328 C1326 1.347 . S
N1328 C1329 1.373 . S
C1329 C1327 1.350 . S
C1329 N1328 1.373 . S
C1329 H1343 0.931 . S
C1330 O1333 1.256 . S
C1330 O1334 1.255 1_455 S
O1331 Co1314 2.021 . S
O1331 C1324 1.259 . S
O1332 Co1316 2.117 . S
O1332 C1324 1.258 . S
O1333 Co1316 2.020 . S
O1333 C1330 1.256 . S
O1334 Co1314 2.062 1_655 S
O1334 C1330 1.255 1_655 S
O1335 C1315 1.259 . S
O1335 Co1316 2.021 . S
H1336 C1327 0.930 . S
H1337 C1326 0.931 . S
O1338 Co1314 2.117 . S
O1338 C1315 1.258 . S
O1339 Co1314 2.020 1_556 S
O1339 C1341 1.256 . S
O1340 Co1316 2.062 1_556 S
O1340 C1341 1.255 . S
C1341 O1339 1.256 . S
C1341 O1340 1.255 . S
H1342 C1321 0.914 1_556 S
H1343 C1329 0.931 . S
H1344 C1350 0.930 . S
H1345 C1353 0.930 . S
H1346 C1354 0.930 1_655 S
H1347 C1355 0.944 . S
H1348 C1358 0.930 . S
H1349 C1359 0.930 . S
C1350 H1344 0.930 . S
C1350 C1351 1.355 . S
C1350 C1352 1.415 . S
C1351 C1350 1.355 . S
C1351 C1353 1.419 . S
C1352 C1350 1.415 . S
C1352 C1357 1.425 . S
C1352 C1359 1.409 . S
C1353 H1345 0.930 . S
C1353 C1351 1.419 . S
C1353 C1354 1.362 . S
C1354 H1346 0.930 1_455 S
C1354 C1353 1.362 . S
C1354 C1357 1.409 . S
C1355 H1347 0.944 . S
C1355 C1356 1.355 . S
C1355 C1357 1.415 . S
C1356 C1355 1.355 . S
C1356 C1358 1.419 . S
C1357 C1352 1.425 . S
C1357 C1354 1.409 . S
C1357 C1355 1.415 . S
C1358 H1348 0.930 . S
C1358 C1356 1.419 . S
C1358 C1359 1.362 . S
C1359 H1349 0.930 . S
C1359 C1352 1.409 . S
C1359 C1358 1.362 . S
H1360 C1366 0.930 . S
H1361 C1369 0.930 . S
H1362 C1370 0.930 . S
H1363 C1371 0.930 . S
H1364 C1374 0.930 . S
H1365 C1375 0.930 . S
C1366 H1360 0.930 . S
C1366 C1367 1.355 . S
C1366 C1368 1.415 . S
C1367 C1366 1.355 . S
C1367 C1369 1.419 . S
C1368 C1366 1.415 . S
C1368 C1373 1.425 . S
C1368 C1375 1.409 . S
C1369 H1361 0.930 . S
C1369 C1367 1.419 . S
C1369 C1370 1.362 . S
C1370 H1362 0.930 . S
C1370 C1369 1.362 . S
C1370 C1373 1.409 . S
C1371 H1363 0.930 . S
C1371 C1372 1.355 . S
C1371 C1373 1.415 . S
C1372 C1371 1.355 . S
C1372 C1374 1.419 . S
C1373 C1368 1.425 . S
C1373 C1370 1.409 . S
C1373 C1371 1.415 . S
C1374 H1364 0.930 . S
C1374 C1372 1.419 . S
C1374 C1375 1.362 . S
C1375 H1365 0.930 . S
C1375 C1368 1.409 . S
C1375 C1374 1.362 . S
H1376 C1382 0.930 . S
H1377 C1385 0.930 . S
H1378 C1386 0.930 . S
H1379 C1387 0.930 . S
H1380 C1390 0.930 . S
H1381 C1391 0.930 . S
C1382 H1376 0.930 . S
C1382 C1383 1.355 . S
C1382 C1384 1.415 . S
C1383 C1382 1.355 . S
C1383 C1385 1.419 . S
C1384 C1382 1.415 . S
C1384 C1389 1.425 . S
C1384 C1391 1.409 . S
C1385 H1377 0.930 . S
C1385 C1383 1.419 . S
C1385 C1386 1.362 . S
C1386 H1378 0.930 . S
C1386 C1385 1.362 . S
C1386 C1389 1.409 . S
C1387 H1379 0.930 . S
C1387 C1388 1.355 . S
C1387 C1389 1.415 . S
C1388 C1387 1.355 . S
C1388 C1390 1.419 . S
C1389 C1384 1.425 . S
C1389 C1386 1.409 . S
C1389 C1387 1.415 . S
C1390 H1380 0.930 . S
C1390 C1388 1.419 . S
C1390 C1391 1.362 . S
C1391 H1381 0.930 . S
C1391 C1384 1.409 . S
C1391 C1390 1.362 . S
H1392 C1398 0.930 . S
H1393 C1401 0.930 . S
H1394 C1402 0.930 . S
H1395 C1403 0.930 . S
H1396 C1406 0.930 . S
H1397 C1407 0.930 . S
C1398 H1392 0.930 . S
C1398 C1399 1.355 . S
C1398 C1400 1.415 . S
C1399 C1398 1.355 . S
C1399 C1401 1.419 . S
C1400 C1398 1.415 . S
C1400 C1405 1.425 . S
C1400 C1407 1.409 . S
C1401 H1393 0.930 . S
C1401 C1399 1.419 . S
C1401 C1402 1.362 . S
C1402 H1394 0.930 . S
C1402 C1401 1.362 . S
C1402 C1405 1.409 . S
C1403 H1395 0.930 . S
C1403 C1404 1.355 . S
C1403 C1405 1.415 . S
C1404 C1403 1.355 . S
C1404 C1406 1.419 . S
C1405 C1400 1.425 . S
C1405 C1402 1.409 . S
C1405 C1403 1.415 . S
C1406 H1396 0.930 . S
C1406 C1404 1.419 . S
C1406 C1407 1.362 . S
C1407 H1397 0.930 . S
C1407 C1400 1.409 . S
C1407 C1406 1.362 . S
H1408 C1414 0.930 . S
H1409 C1417 0.930 . S
H1410 C1418 0.930 1_655 S
H1411 C1419 0.930 1_655 S
H1412 C1422 0.930 . S
H1413 C1423 0.930 . S
C1414 H1408 0.930 . S
C1414 C1415 1.355 . S
C1414 C1416 1.415 . S
C1415 C1414 1.355 . S
C1415 C1417 1.419 . S
C1416 C1414 1.415 . S
C1416 C1421 1.425 . S
C1416 C1423 1.409 . S
C1417 H1409 0.930 . S
C1417 C1415 1.419 . S
C1417 C1418 1.362 . S
C1418 H1410 0.930 1_455 S
C1418 C1417 1.362 . S
C1418 C1421 1.409 . S
C1419 H1411 0.930 1_455 S
C1419 C1420 1.355 . S
C1419 C1421 1.415 . S
C1420 C1419 1.355 . S
C1420 C1422 1.419 . S
C1421 C1416 1.425 . S
C1421 C1418 1.409 . S
C1421 C1419 1.415 . S
C1422 H1412 0.930 . S
C1422 C1420 1.419 . S
C1422 C1423 1.362 . S
C1423 H1413 0.930 . S
C1423 C1416 1.409 . S
C1423 C1422 1.362 . S
H1424 C1430 0.930 . S
H1425 C1433 0.930 . S
H1426 C1434 0.930 . S
H1427 C1435 0.930 . S
H1428 C1438 0.930 . S
H1429 C1439 0.930 . S
C1430 H1424 0.930 . S
C1430 C1431 1.355 . S
C1430 C1432 1.415 . S
C1431 C1430 1.355 . S
C1431 C1433 1.419 . S
C1432 C1430 1.415 . S
C1432 C1437 1.425 . S
C1432 C1439 1.409 . S
C1433 H1425 0.930 . S
C1433 C1431 1.419 . S
C1433 C1434 1.362 . S
C1434 H1426 0.930 . S
C1434 C1433 1.362 . S
C1434 C1437 1.409 . S
C1435 H1427 0.930 . S
C1435 C1436 1.355 . S
C1435 C1437 1.415 . S
C1436 C1435 1.355 . S
C1436 C1438 1.419 . S
C1437 C1432 1.425 . S
C1437 C1434 1.409 . S
C1437 C1435 1.415 . S
C1438 H1428 0.930 . S
C1438 C1436 1.419 . S
C1438 C1439 1.362 . S
C1439 H1429 0.930 . S
C1439 C1432 1.409 . S
C1439 C1438 1.362 . S
H1440 C1446 0.930 . S
H1441 C1449 0.930 . S
H1442 C1450 0.930 . S
H1443 C1451 0.930 . S
H1444 C1454 0.930 . S
H1445 C1455 0.930 . S
C1446 H1440 0.930 . S
C1446 C1447 1.355 . S
C1446 C1448 1.415 . S
C1447 C1446 1.355 . S
C1447 C1449 1.419 . S
C1448 C1446 1.415 . S
C1448 C1453 1.425 . S
C1448 C1455 1.409 . S
C1449 H1441 0.930 . S
C1449 C1447 1.419 . S
C1449 C1450 1.362 . S
C1450 H1442 0.930 . S
C1450 C1449 1.362 . S
C1450 C1453 1.409 . S
C1451 H1443 0.930 . S
C1451 C1452 1.365 . S
C1451 C1453 1.415 . S
C1452 C1451 1.365 . S
C1452 C1454 1.416 1_556 S
C1453 C1448 1.425 . S
C1453 C1450 1.409 . S
C1453 C1451 1.415 . S
C1454 H1444 0.930 . S
C1454 C1452 1.416 1_554 S
C1454 C1455 1.362 1_554 S
C1455 H1445 0.930 . S
C1455 C1448 1.409 . S
C1455 C1454 1.362 1_556 S
H1456 C1462 0.930 . S
H1457 C1465 0.930 . S
H1458 C1466 0.930 . S
H1459 C1467 0.930 . S
H1460 C1470 0.930 . S
H1461 C1471 0.930 . S
C1462 H1456 0.930 . S
C1462 C1463 1.355 . S
C1462 C1464 1.415 . S
C1463 C1462 1.355 . S
C1463 C1465 1.419 . S
C1464 C1462 1.415 . S
C1464 C1469 1.425 . S
C1464 C1471 1.409 . S
C1465 H1457 0.930 . S
C1465 C1463 1.419 . S
C1465 C1466 1.362 . S
C1466 H1458 0.930 . S
C1466 C1465 1.362 . S
C1466 C1469 1.409 . S
C1467 H1459 0.930 . S
C1467 C1468 1.355 . S
C1467 C1469 1.415 . S
C1468 C1467 1.355 . S
C1468 C1470 1.419 . S
C1469 C1464 1.425 . S
C1469 C1466 1.409 . S
C1469 C1467 1.415 . S
C1470 H1460 0.930 . S
C1470 C1468 1.419 . S
C1470 C1471 1.362 . S
C1471 H1461 0.930 . S
C1471 C1464 1.409 . S
C1471 C1470 1.362 . S
H1472 C1478 0.930 . S
H1473 C1481 0.930 . S
H1474 C1482 0.930 . S
H1475 C1483 0.930 . S
H1476 C1486 0.930 . S
H1477 C1487 0.930 . S
C1478 H1472 0.930 . S
C1478 C1479 1.355 1_565 S
C1478 C1480 1.415 . S
C1479 C1478 1.355 1_545 S
C1479 C1481 1.419 . S
C1480 C1478 1.415 . S
C1480 C1485 1.425 1_565 S
C1480 C1487 1.409 . S
C1481 H1473 0.930 . S
C1481 C1479 1.419 . S
C1481 C1482 1.362 . S
C1482 H1474 0.930 . S
C1482 C1481 1.362 . S
C1482 C1485 1.409 . S
C1483 H1475 0.930 . S
C1483 C1484 1.355 . S
C1483 C1485 1.415 . S
C1484 C1483 1.355 . S
C1484 C1486 1.419 1_545 S
C1485 C1480 1.425 1_545 S
C1485 C1482 1.409 . S
C1485 C1483 1.415 . S
C1486 H1476 0.930 . S
C1486 C1484 1.419 1_565 S
C1486 C1487 1.362 . S
C1487 H1477 0.930 . S
C1487 C1480 1.409 . S
C1487 C1486 1.362 . S
H1488 C1494 0.930 . S
H1489 C1497 0.930 . S
H1490 C1498 0.930 . S
H1491 C1499 0.930 . S
H1492 C1502 0.930 . S
H1493 C1503 0.930 . S
C1494 H1488 0.930 . S
C1494 C1495 1.355 . S
C1494 C1496 1.415 . S
C1495 C1494 1.355 . S
C1495 C1497 1.419 . S
C1496 C1494 1.415 . S
C1496 C1501 1.425 . S
C1496 C1503 1.409 . S
C1497 H1489 0.930 . S
C1497 C1495 1.419 . S
C1497 C1498 1.362 . S
C1498 H1490 0.930 . S
C1498 C1497 1.362 . S
C1498 C1501 1.409 . S
C1499 H1491 0.930 . S
C1499 C1500 1.355 . S
C1499 C1501 1.415 . S
C1500 C1499 1.355 . S
C1500 C1502 1.419 . S
C1501 C1496 1.425 . S
C1501 C1498 1.409 . S
C1501 C1499 1.415 . S
C1502 H1492 0.930 . S
C1502 C1500 1.419 . S
C1502 C1503 1.362 . S
C1503 H1493 0.930 . S
C1503 C1496 1.409 . S
C1503 C1502 1.362 . S
H1504 C1510 0.930 . S
H1505 C1513 0.930 . S
H1506 C1514 0.930 . S
H1507 C1515 0.930 . S
H1508 C1518 0.930 . S
H1509 C1519 0.930 . S
C1510 H1504 0.930 . S
C1510 C1511 1.355 . S
C1510 C1512 1.415 . S
C1511 C1510 1.355 . S
C1511 C1513 1.419 . S
C1512 C1510 1.415 . S
C1512 C1517 1.425 . S
C1512 C1519 1.409 . S
C1513 H1505 0.930 . S
C1513 C1511 1.419 . S
C1513 C1514 1.362 . S
C1514 H1506 0.930 . S
C1514 C1513 1.362 . S
C1514 C1517 1.409 . S
C1515 H1507 0.930 . S
C1515 C1516 1.355 . S
C1515 C1517 1.415 . S
C1516 C1515 1.355 . S
C1516 C1518 1.419 . S
C1517 C1512 1.425 . S
C1517 C1514 1.409 . S
C1517 C1515 1.415 . S
C1518 H1508 0.930 . S
C1518 C1516 1.419 . S
C1518 C1519 1.362 . S
C1519 H1509 0.930 . S
C1519 C1512 1.409 . S
C1519 C1518 1.362 . S
H1520 C1526 0.930 . S
H1521 C1529 0.930 . S
H1522 C1530 0.930 . S
H1523 C1531 0.930 . S
H1524 C1534 0.930 . S
H1525 C1535 0.930 . S
C1526 H1520 0.930 . S
C1526 C1527 1.355 . S
C1526 C1528 1.415 . S
C1527 C1526 1.355 . S
C1527 C1529 1.419 . S
C1528 C1526 1.415 . S
C1528 C1533 1.425 . S
C1528 C1535 1.409 . S
C1529 H1521 0.930 . S
C1529 C1527 1.419 . S
C1529 C1530 1.362 . S
C1530 H1522 0.930 . S
C1530 C1529 1.362 . S
C1530 C1533 1.409 . S
C1531 H1523 0.930 . S
C1531 C1532 1.355 . S
C1531 C1533 1.415 . S
C1532 C1531 1.355 . S
C1532 C1534 1.419 . S
C1533 C1528 1.425 . S
C1533 C1530 1.409 . S
C1533 C1531 1.415 . S
C1534 H1524 0.930 . S
C1534 C1532 1.419 . S
C1534 C1535 1.362 . S
C1535 H1525 0.930 . S
C1535 C1528 1.409 . S
C1535 C1534 1.362 . S
H1536 C1542 0.930 . S
H1537 C1545 0.930 . S
H1538 C1546 0.930 . S
H1539 C1547 0.930 . S
H1540 C1550 0.930 . S
H1541 C1551 0.930 . S
C1542 H1536 0.930 . S
C1542 C1543 1.355 . S
C1542 C1544 1.415 . S
C1543 C1542 1.355 . S
C1543 C1545 1.419 . S
C1544 C1542 1.415 . S
C1544 C1549 1.425 . S
C1544 C1551 1.409 . S
C1545 H1537 0.930 . S
C1545 C1543 1.419 . S
C1545 C1546 1.362 . S
C1546 H1538 0.930 . S
C1546 C1545 1.362 . S
C1546 C1549 1.409 . S
C1547 H1539 0.930 . S
C1547 C1548 1.355 . S
C1547 C1549 1.415 . S
C1548 C1547 1.355 . S
C1548 C1550 1.419 . S
C1549 C1544 1.425 . S
C1549 C1546 1.409 . S
C1549 C1547 1.415 . S
C1550 H1540 0.930 . S
C1550 C1548 1.419 . S
C1550 C1551 1.362 . S
C1551 H1541 0.930 . S
C1551 C1544 1.409 . S
C1551 C1550 1.362 . S
H1552 C1558 0.930 . S
H1553 C1561 0.930 . S
H1554 C1562 0.930 . S
H1555 C1563 0.930 . S
H1556 C1566 0.930 . S
H1557 C1567 0.930 . S
C1558 H1552 0.930 . S
C1558 C1559 1.355 . S
C1558 C1560 1.415 . S
C1559 C1558 1.355 . S
C1559 C1561 1.419 . S
C1560 C1558 1.415 . S
C1560 C1565 1.425 . S
C1560 C1567 1.409 . S
C1561 H1553 0.930 . S
C1561 C1559 1.419 . S
C1561 C1562 1.362 . S
C1562 H1554 0.930 . S
C1562 C1561 1.362 . S
C1562 C1565 1.409 . S
C1563 H1555 0.930 . S
C1563 C1564 1.355 . S
C1563 C1565 1.415 . S
C1564 C1563 1.355 . S
C1564 C1566 1.419 . S
C1565 C1560 1.425 . S
C1565 C1562 1.409 . S
C1565 C1563 1.415 . S
C1566 H1556 0.930 . S
C1566 C1564 1.419 . S
C1566 C1567 1.362 . S
C1567 H1557 0.930 . S
C1567 C1560 1.409 . S
C1567 C1566 1.362 . S
H1568 C1574 0.930 . S
H1569 C1577 0.930 . S
H1570 C1578 0.930 . S
H1571 C1579 0.930 . S
H1572 C1582 0.930 . S
H1573 C1583 0.930 . S
C1574 H1568 0.930 . S
C1574 C1575 1.355 . S
C1574 C1576 1.415 . S
C1575 C1574 1.355 . S
C1575 C1577 1.419 . S
C1576 C1574 1.415 . S
C1576 C1581 1.425 . S
C1576 C1583 1.409 . S
C1577 H1569 0.930 . S
C1577 C1575 1.419 . S
C1577 C1578 1.362 . S
C1578 H1570 0.930 . S
C1578 C1577 1.362 . S
C1578 C1581 1.409 . S
C1579 H1571 0.930 . S
C1579 C1580 1.355 . S
C1579 C1581 1.415 . S
C1580 C1579 1.355 . S
C1580 C1582 1.419 . S
C1581 C1576 1.425 . S
C1581 C1578 1.409 . S
C1581 C1579 1.415 . S
C1582 H1572 0.930 . S
C1582 C1580 1.419 . S
C1582 C1583 1.362 . S
C1583 H1573 0.930 . S
C1583 C1576 1.409 . S
C1583 C1582 1.362 . S
H1584 C1590 0.930 . S
H1585 C1593 0.930 . S
H1586 C1594 0.930 . S
H1587 C1595 0.930 . S
H1588 C1598 0.930 . S
H1589 C1599 0.930 . S
C1590 H1584 0.930 . S
C1590 C1591 1.355 . S
C1590 C1592 1.415 . S
C1591 C1590 1.355 . S
C1591 C1593 1.419 . S
C1592 C1590 1.415 . S
C1592 C1597 1.425 . S
C1592 C1599 1.409 . S
C1593 H1585 0.930 . S
C1593 C1591 1.419 . S
C1593 C1594 1.362 . S
C1594 H1586 0.930 . S
C1594 C1593 1.362 . S
C1594 C1597 1.409 . S
C1595 H1587 0.930 . S
C1595 C1596 1.355 . S
C1595 C1597 1.415 . S
C1596 C1595 1.355 . S
C1596 C1598 1.419 . S
C1597 C1592 1.425 . S
C1597 C1594 1.409 . S
C1597 C1595 1.415 . S
C1598 H1588 0.930 . S
C1598 C1596 1.419 . S
C1598 C1599 1.362 . S
C1599 H1589 0.930 . S
C1599 C1592 1.409 . S
C1599 C1598 1.362 . S
H1600 C1606 0.930 . S
H1601 C1609 0.930 . S
H1602 C1610 0.906 1_556 S
H1603 C1611 0.930 . S
H1604 C1614 0.930 . S
H1605 C1615 0.930 . S
C1606 H1600 0.930 . S
C1606 C1607 1.355 . S
C1606 C1608 1.415 . S
C1607 C1606 1.355 . S
C1607 C1609 1.419 . S
C1608 C1606 1.415 . S
C1608 C1613 1.425 . S
C1608 C1615 1.409 . S
C1609 H1601 0.930 . S
C1609 C1607 1.419 . S
C1609 C1610 1.362 . S
C1610 H1602 0.906 1_554 S
C1610 C1609 1.362 . S
C1610 C1613 1.409 . S
C1611 H1603 0.930 . S
C1611 C1612 1.355 . S
C1611 C1613 1.415 . S
C1612 C1611 1.355 . S
C1612 C1614 1.419 . S
C1613 C1608 1.425 . S
C1613 C1610 1.409 . S
C1613 C1611 1.415 . S
C1614 H1604 0.930 . S
C1614 C1612 1.419 . S
C1614 C1615 1.362 . S
C1615 H1605 0.930 . S
C1615 C1608 1.409 . S
C1615 C1614 1.362 . S
H1616 C1622 0.930 . S
H1617 C1625 0.930 . S
H1618 C1626 0.930 . S
H1619 C1627 0.930 . S
H1620 C1630 0.930 . S
H1621 C1631 0.930 . S
C1622 H1616 0.930 . S
C1622 C1623 1.355 . S
C1622 C1624 1.415 . S
C1623 C1622 1.355 . S
C1623 C1625 1.419 . S
C1624 C1622 1.415 . S
C1624 C1629 1.425 . S
C1624 C1631 1.409 . S
C1625 H1617 0.930 . S
C1625 C1623 1.419 . S
C1625 C1626 1.362 . S
C1626 H1618 0.930 . S
C1626 C1625 1.362 . S
C1626 C1629 1.409 . S
C1627 H1619 0.930 . S
C1627 C1628 1.355 . S
C1627 C1629 1.415 . S
C1628 C1627 1.355 . S
C1628 C1630 1.419 . S
C1629 C1624 1.425 . S
C1629 C1626 1.409 . S
C1629 C1627 1.415 . S
C1630 H1620 0.930 . S
C1630 C1628 1.419 . S
C1630 C1631 1.362 . S
C1631 H1621 0.930 . S
C1631 C1624 1.409 . S
C1631 C1630 1.362 . S
H1632 C1638 0.930 . S
H1633 C1641 0.930 . S
H1634 C1642 0.930 . S
H1635 C1643 0.930 . S
H1636 C1646 0.930 . S
H1637 C1647 0.930 . S
C1638 H1632 0.930 . S
C1638 C1639 1.355 . S
C1638 C1640 1.415 . S
C1639 C1638 1.355 . S
C1639 C1641 1.419 . S
C1640 C1638 1.415 . S
C1640 C1645 1.425 . S
C1640 C1647 1.409 . S
C1641 H1633 0.930 . S
C1641 C1639 1.419 . S
C1641 C1642 1.362 . S
C1642 H1634 0.930 . S
C1642 C1641 1.362 . S
C1642 C1645 1.409 . S
C1643 H1635 0.930 . S
C1643 C1644 1.355 . S
C1643 C1645 1.415 . S
C1644 C1643 1.355 . S
C1644 C1646 1.419 . S
C1645 C1640 1.425 . S
C1645 C1642 1.409 . S
C1645 C1643 1.415 . S
C1646 H1636 0.930 . S
C1646 C1644 1.419 . S
C1646 C1647 1.362 . S
C1647 H1637 0.930 . S
C1647 C1640 1.409 . S
C1647 C1646 1.362 . S
H1648 C1654 0.930 . S
H1649 C1657 0.930 . S
H1650 C1658 0.930 . S
H1651 C1659 0.930 . S
H1652 C1662 0.930 . S
H1653 C1663 0.930 . S
C1654 H1648 0.930 . S
C1654 C1655 1.355 . S
C1654 C1656 1.415 . S
C1655 C1654 1.355 . S
C1655 C1657 1.419 . S
C1656 C1654 1.415 . S
C1656 C1661 1.425 . S
C1656 C1663 1.409 . S
C1657 H1649 0.930 . S
C1657 C1655 1.419 . S
C1657 C1658 1.362 . S
C1658 H1650 0.930 . S
C1658 C1657 1.362 . S
C1658 C1661 1.409 . S
C1659 H1651 0.930 . S
C1659 C1660 1.355 . S
C1659 C1661 1.415 . S
C1660 C1659 1.355 . S
C1660 C1662 1.419 . S
C1661 C1656 1.425 . S
C1661 C1658 1.409 . S
C1661 C1659 1.415 . S
C1662 H1652 0.930 . S
C1662 C1660 1.419 . S
C1662 C1663 1.362 . S
C1663 H1653 0.930 . S
C1663 C1656 1.409 . S
C1663 C1662 1.362 . S
H1664 C1670 0.930 . S
H1665 C1673 0.930 . S
H1666 C1674 0.930 . S
H1667 C1675 0.930 . S
H1668 C1678 0.930 . S
H1669 C1679 0.930 . S
C1670 H1664 0.930 . S
C1670 C1671 1.355 . S
C1670 C1672 1.415 . S
C1671 C1670 1.355 . S
C1671 C1673 1.419 . S
C1672 C1670 1.415 . S
C1672 C1677 1.425 . S
C1672 C1679 1.409 . S
C1673 H1665 0.930 . S
C1673 C1671 1.419 . S
C1673 C1674 1.362 . S
C1674 H1666 0.930 . S
C1674 C1673 1.362 . S
C1674 C1677 1.409 . S
C1675 H1667 0.930 . S
C1675 C1676 1.355 . S
C1675 C1677 1.415 . S
C1676 C1675 1.355 . S
C1676 C1678 1.419 . S
C1677 C1672 1.425 . S
C1677 C1674 1.409 . S
C1677 C1675 1.415 . S
C1678 H1668 0.930 . S
C1678 C1676 1.419 . S
C1678 C1679 1.362 . S
C1679 H1669 0.930 . S
C1679 C1672 1.409 . S
C1679 C1678 1.362 . S
H1680 C1686 0.930 . S
H1681 C1689 0.930 . S
H1682 C1690 0.930 . S
H1683 C1691 0.930 . S
H1684 C1694 0.930 1_545 S
H1685 C1695 0.930 . S
C1686 H1680 0.930 . S
C1686 C1687 1.355 . S
C1686 C1688 1.415 . S
C1687 C1686 1.355 . S
C1687 C1689 1.419 . S
C1688 C1686 1.415 . S
C1688 C1693 1.425 . S
C1688 C1695 1.409 . S
C1689 H1681 0.930 . S
C1689 C1687 1.419 . S
C1689 C1690 1.362 . S
C1690 H1682 0.930 . S
C1690 C1689 1.362 . S
C1690 C1693 1.409 . S
C1691 H1683 0.930 . S
C1691 C1692 1.355 . S
C1691 C1693 1.415 . S
C1692 C1691 1.355 . S
C1692 C1694 1.419 . S
C1693 C1688 1.425 . S
C1693 C1690 1.409 . S
C1693 C1691 1.415 . S
C1694 H1684 0.930 1_565 S
C1694 C1692 1.419 . S
C1694 C1695 1.362 . S
C1695 H1685 0.930 . S
C1695 C1688 1.409 . S
C1695 C1694 1.362 . S
H1696 C1702 0.930 . S
H1697 C1705 0.930 . S
H1698 C1706 0.930 . S
H1699 C1707 0.930 . S
H1700 C1710 0.930 . S
H1701 C1711 0.930 . S
C1702 H1696 0.930 . S
C1702 C1703 1.355 . S
C1702 C1704 1.415 . S
C1703 C1702 1.355 . S
C1703 C1705 1.419 . S
C1704 C1702 1.415 . S
C1704 C1709 1.425 . S
C1704 C1711 1.409 . S
C1705 H1697 0.930 . S
C1705 C1703 1.419 . S
C1705 C1706 1.362 . S
C1706 H1698 0.930 . S
C1706 C1705 1.362 . S
C1706 C1709 1.409 . S
C1707 H1699 0.930 . S
C1707 C1708 1.355 . S
C1707 C1709 1.415 . S
C1708 C1707 1.355 . S
C1708 C1710 1.419 . S
C1709 C1704 1.425 . S
C1709 C1706 1.409 . S
C1709 C1707 1.415 . S
C1710 H1700 0.930 . S
C1710 C1708 1.419 . S
C1710 C1711 1.362 . S
C1711 H1701 0.930 . S
C1711 C1704 1.409 . S
C1711 C1710 1.362 . S
H1712 C1718 0.930 . S
H1713 C1721 0.930 . S
H1714 C1722 0.930 . S
H1715 C1723 0.930 . S
H1716 C1726 0.930 . S
H1717 C1727 0.930 . S
C1718 H1712 0.930 . S
C1718 C1719 1.355 . S
C1718 C1720 1.415 . S
C1719 C1718 1.355 . S
C1719 C1721 1.419 . S
C1720 C1718 1.415 . S
C1720 C1725 1.425 . S
C1720 C1727 1.409 . S
C1721 H1713 0.930 . S
C1721 C1719 1.419 . S
C1721 C1722 1.362 . S
C1722 H1714 0.930 . S
C1722 C1721 1.362 . S
C1722 C1725 1.409 . S
C1723 H1715 0.930 . S
C1723 C1724 1.355 . S
C1723 C1725 1.415 . S
C1724 C1723 1.355 . S
C1724 C1726 1.419 . S
C1725 C1720 1.425 . S
C1725 C1722 1.409 . S
C1725 C1723 1.415 . S
C1726 H1716 0.930 . S
C1726 C1724 1.419 . S
C1726 C1727 1.362 . S
C1727 H1717 0.930 . S
C1727 C1720 1.409 . S
C1727 C1726 1.362 . S
H1728 C1734 0.930 . S
H1729 C1737 0.930 1_655 S
H1730 C1738 0.930 1_655 S
H1731 C1739 0.930 . S
H1732 C1742 0.908 1_554 S
H1733 C1743 0.930 . S
C1734 H1728 0.930 . S
C1734 C1735 1.355 . S
C1734 C1736 1.415 . S
C1735 C1734 1.355 . S
C1735 C1737 1.419 . S
C1736 C1734 1.415 . S
C1736 C1741 1.425 . S
C1736 C1743 1.409 . S
C1737 H1729 0.930 1_455 S
C1737 C1735 1.419 . S
C1737 C1738 1.362 . S
C1738 H1730 0.930 1_455 S
C1738 C1737 1.362 . S
C1738 C1741 1.409 . S
C1739 H1731 0.930 . S
C1739 C1740 1.355 . S
C1739 C1741 1.415 . S
C1740 C1739 1.355 . S
C1740 C1742 1.427 . S
C1741 C1736 1.425 . S
C1741 C1738 1.409 . S
C1741 C1739 1.415 . S
C1742 H1732 0.908 1_556 S
C1742 C1740 1.427 . S
C1742 C1743 1.377 . S
C1743 H1733 0.930 . S
C1743 C1736 1.409 . S
C1743 C1742 1.377 . S
H1744 C1750 0.930 . S
H1745 C1753 0.930 . S
H1746 C1754 0.930 . S
H1747 C1755 0.930 . S
H1748 C1758 0.930 . S
H1749 C1759 0.930 . S
C1750 H1744 0.930 . S
C1750 C1751 1.355 . S
C1750 C1752 1.415 . S
C1751 C1750 1.355 . S
C1751 C1753 1.419 . S
C1752 C1750 1.415 . S
C1752 C1757 1.425 . S
C1752 C1759 1.409 . S
C1753 H1745 0.930 . S
C1753 C1751 1.419 . S
C1753 C1754 1.362 . S
C1754 H1746 0.930 . S
C1754 C1753 1.362 . S
C1754 C1757 1.409 . S
C1755 H1747 0.930 . S
C1755 C1756 1.355 . S
C1755 C1757 1.415 . S
C1756 C1755 1.355 . S
C1756 C1758 1.419 . S
C1757 C1752 1.425 . S
C1757 C1754 1.409 . S
C1757 C1755 1.415 . S
C1758 H1748 0.930 . S
C1758 C1756 1.419 . S
C1758 C1759 1.362 . S
C1759 H1749 0.930 . S
C1759 C1752 1.409 . S
C1759 C1758 1.362 . S
H1760 C1766 0.930 . S
H1761 C1769 0.930 . S
H1762 C1770 0.930 . S
H1763 C1771 0.930 . S
H1764 C1774 0.930 . S
H1765 C1775 0.930 . S
C1766 H1760 0.930 . S
C1766 C1767 1.355 . S
C1766 C1768 1.415 . S
C1767 C1766 1.355 . S
C1767 C1769 1.419 . S
C1768 C1766 1.415 . S
C1768 C1773 1.425 . S
C1768 C1775 1.409 . S
C1769 H1761 0.930 . S
C1769 C1767 1.419 . S
C1769 C1770 1.362 . S
C1770 H1762 0.930 . S
C1770 C1769 1.362 . S
C1770 C1773 1.409 . S
C1771 H1763 0.930 . S
C1771 C1772 1.355 . S
C1771 C1773 1.415 . S
C1772 C1771 1.355 . S
C1772 C1774 1.419 . S
C1773 C1768 1.425 . S
C1773 C1770 1.409 . S
C1773 C1771 1.415 . S
C1774 H1764 0.930 . S
C1774 C1772 1.419 . S
C1774 C1775 1.362 . S
C1775 H1765 0.930 . S
C1775 C1768 1.409 . S
C1775 C1774 1.362 . S
H1776 C1782 0.930 . S
H1777 C1785 0.930 . S
H1778 C1786 0.930 . S
H1779 C1787 0.930 . S
H1780 C1790 0.930 . S
H1781 C1791 0.930 . S
C1782 H1776 0.930 . S
C1782 C1783 1.355 . S
C1782 C1784 1.415 . S
C1783 C1782 1.355 . S
C1783 C1785 1.419 . S
C1784 C1782 1.415 . S
C1784 C1789 1.425 . S
C1784 C1791 1.409 . S
C1785 H1777 0.930 . S
C1785 C1783 1.419 . S
C1785 C1786 1.362 . S
C1786 H1778 0.930 . S
C1786 C1785 1.362 . S
C1786 C1789 1.409 . S
C1787 H1779 0.930 . S
C1787 C1788 1.355 . S
C1787 C1789 1.415 . S
C1788 C1787 1.355 . S
C1788 C1790 1.419 . S
C1789 C1784 1.425 . S
C1789 C1786 1.409 . S
C1789 C1787 1.415 . S
C1790 H1780 0.930 . S
C1790 C1788 1.419 . S
C1790 C1791 1.362 . S
C1791 H1781 0.930 . S
C1791 C1784 1.409 . S
C1791 C1790 1.362 . S
H1792 C1798 0.930 . S
H1793 C1801 0.930 . S
H1794 C1802 0.930 . S
H1795 C1803 0.930 . S
H1796 C1806 0.930 . S
H1797 C1807 0.906 1_655 S
C1798 H1792 0.930 . S
C1798 C1799 1.355 1_655 S
C1798 C1800 1.415 1_655 S
C1799 C1798 1.355 1_455 S
C1799 C1801 1.419 . S
C1800 C1798 1.415 1_455 S
C1800 C1805 1.425 . S
C1800 C1807 1.421 . S
C1801 H1793 0.930 . S
C1801 C1799 1.419 . S
C1801 C1802 1.362 . S
C1802 H1794 0.930 . S
C1802 C1801 1.362 . S
C1802 C1805 1.409 . S
C1803 H1795 0.930 . S
C1803 C1804 1.355 . S
C1803 C1805 1.415 . S
C1804 C1803 1.355 . S
C1804 C1806 1.419 . S
C1805 C1800 1.425 . S
C1805 C1802 1.409 . S
C1805 C1803 1.415 . S
C1806 H1796 0.930 . S
C1806 C1804 1.419 . S
C1806 C1807 1.376 . S
C1807 H1797 0.906 1_455 S
C1807 C1800 1.421 . S
C1807 C1806 1.376 . S
H1808 C1814 0.930 . S
H1809 C1817 0.930 . S
H1810 C1818 0.930 . S
H1811 C1819 0.930 . S
H1812 C1822 0.930 . S
H1813 C1823 0.930 . S
C1814 H1808 0.930 . S
C1814 C1815 1.355 . S
C1814 C1816 1.415 . S
C1815 C1814 1.355 . S
C1815 C1817 1.419 . S
C1816 C1814 1.415 . S
C1816 C1821 1.425 . S
C1816 C1823 1.409 . S
C1817 H1809 0.930 . S
C1817 C1815 1.419 . S
C1817 C1818 1.362 . S
C1818 H1810 0.930 . S
C1818 C1817 1.362 . S
C1818 C1821 1.409 . S
C1819 H1811 0.930 . S
C1819 C1820 1.355 . S
C1819 C1821 1.415 . S
C1820 C1819 1.355 . S
C1820 C1822 1.419 . S
C1821 C1816 1.425 . S
C1821 C1818 1.409 . S
C1821 C1819 1.415 . S
C1822 H1812 0.930 . S
C1822 C1820 1.419 . S
C1822 C1823 1.362 . S
C1823 H1813 0.930 . S
C1823 C1816 1.409 . S
C1823 C1822 1.362 . S
H1824 C1830 0.930 . S
H1825 C1833 0.930 . S
H1826 C1834 0.930 . S
H1827 C1835 0.930 . S
H1828 C1838 0.930 . S
H1829 C1839 0.930 . S
C1830 H1824 0.930 . S
C1830 C1831 1.355 . S
C1830 C1832 1.415 . S
C1831 C1830 1.355 . S
C1831 C1833 1.419 . S
C1832 C1830 1.415 . S
C1832 C1837 1.425 . S
C1832 C1839 1.409 . S
C1833 H1825 0.930 . S
C1833 C1831 1.419 . S
C1833 C1834 1.362 . S
C1834 H1826 0.930 . S
C1834 C1833 1.362 . S
C1834 C1837 1.409 . S
C1835 H1827 0.930 . S
C1835 C1836 1.355 . S
C1835 C1837 1.415 . S
C1836 C1835 1.355 . S
C1836 C1838 1.419 . S
C1837 C1832 1.425 . S
C1837 C1834 1.409 . S
C1837 C1835 1.415 . S
C1838 H1828 0.930 . S
C1838 C1836 1.419 . S
C1838 C1839 1.362 . S
C1839 H1829 0.930 . S
C1839 C1832 1.409 . S
C1839 C1838 1.362 . S
H1840 C1846 0.930 . S
H1841 C1849 0.930 . S
H1842 C1850 0.930 . S
H1843 C1851 0.930 . S
H1844 C1854 0.930 . S
H1845 C1855 0.930 . S
C1846 H1840 0.930 . S
C1846 C1847 1.355 . S
C1846 C1848 1.415 . S
C1847 C1846 1.355 . S
C1847 C1849 1.419 . S
C1848 C1846 1.415 . S
C1848 C1853 1.425 . S
C1848 C1855 1.409 . S
C1849 H1841 0.930 . S
C1849 C1847 1.419 . S
C1849 C1850 1.362 . S
C1850 H1842 0.930 . S
C1850 C1849 1.362 . S
C1850 C1853 1.409 . S
C1851 H1843 0.930 . S
C1851 C1852 1.355 . S
C1851 C1853 1.415 . S
C1852 C1851 1.355 . S
C1852 C1854 1.419 . S
C1853 C1848 1.425 . S
C1853 C1850 1.409 . S
C1853 C1851 1.415 . S
C1854 H1844 0.930 . S
C1854 C1852 1.419 . S
C1854 C1855 1.362 . S
C1855 H1845 0.930 . S
C1855 C1848 1.409 . S
C1855 C1854 1.362 . S
H1856 C1862 0.930 . S
H1857 C1865 0.930 . S
H1858 C1866 0.930 . S
H1859 C1867 0.930 . S
H1860 C1870 0.930 1_455 S
H1861 C1871 0.930 . S
C1862 H1856 0.930 . S
C1862 C1863 1.355 . S
C1862 C1864 1.415 . S
C1863 C1862 1.355 . S
C1863 C1865 1.419 . S
C1864 C1862 1.415 . S
C1864 C1869 1.425 . S
C1864 C1871 1.409 . S
C1865 H1857 0.930 . S
C1865 C1863 1.419 . S
C1865 C1866 1.362 . S
C1866 H1858 0.930 . S
C1866 C1865 1.362 . S
C1866 C1869 1.409 . S
C1867 H1859 0.930 . S
C1867 C1868 1.355 . S
C1867 C1869 1.415 . S
C1868 C1867 1.355 . S
C1868 C1870 1.419 . S
C1869 C1864 1.425 . S
C1869 C1866 1.409 . S
C1869 C1867 1.415 . S
C1870 H1860 0.930 1_655 S
C1870 C1868 1.419 . S
C1870 C1871 1.362 . S
C1871 H1861 0.930 . S
C1871 C1864 1.409 . S
C1871 C1870 1.362 . S
H1872 C1878 0.930 . S
H1873 C1881 0.930 . S
H1874 C1882 0.930 . S
H1875 C1883 0.930 . S
H1876 C1886 0.930 . S
H1877 C1887 0.930 . S
C1878 H1872 0.930 . S
C1878 C1879 1.355 . S
C1878 C1880 1.415 . S
C1879 C1878 1.355 . S
C1879 C1881 1.419 . S
C1880 C1878 1.415 . S
C1880 C1885 1.425 . S
C1880 C1887 1.409 . S
C1881 H1873 0.930 . S
C1881 C1879 1.419 . S
C1881 C1882 1.362 . S
C1882 H1874 0.930 . S
C1882 C1881 1.362 . S
C1882 C1885 1.409 . S
C1883 H1875 0.930 . S
C1883 C1884 1.355 . S
C1883 C1885 1.415 . S
C1884 C1883 1.355 . S
C1884 C1886 1.419 . S
C1885 C1880 1.425 . S
C1885 C1882 1.409 . S
C1885 C1883 1.415 . S
C1886 H1876 0.930 . S
C1886 C1884 1.419 . S
C1886 C1887 1.362 . S
C1887 H1877 0.930 . S
C1887 C1880 1.409 . S
C1887 C1886 1.362 . S
H1888 C1894 0.930 . S
H1889 C1897 0.930 . S
H1890 C1898 0.930 . S
H1891 C1899 0.930 1_565 S
H1892 C1902 0.930 . S
H1893 C1903 0.930 . S
C1894 H1888 0.930 . S
C1894 C1895 1.355 . S
C1894 C1896 1.415 . S
C1895 C1894 1.355 . S
C1895 C1897 1.419 1_545 S
C1896 C1894 1.415 . S
C1896 C1901 1.425 . S
C1896 C1903 1.409 . S
C1897 H1889 0.930 . S
C1897 C1895 1.419 1_565 S
C1897 C1898 1.362 . S
C1898 H1890 0.930 . S
C1898 C1897 1.362 . S
C1898 C1901 1.409 1_565 S
C1899 H1891 0.930 1_545 S
C1899 C1900 1.355 . S
C1899 C1901 1.415 . S
C1900 C1899 1.355 . S
C1900 C1902 1.419 . S
C1901 C1896 1.425 . S
C1901 C1898 1.409 1_545 S
C1901 C1899 1.415 . S
C1902 H1892 0.930 . S
C1902 C1900 1.419 . S
C1902 C1903 1.362 . S
C1903 H1893 0.930 . S
C1903 C1896 1.409 . S
C1903 C1902 1.362 . S
H1904 C1910 0.930 . S
H1905 C1913 0.930 . S
H1906 C1914 0.930 . S
H1907 C1915 0.930 . S
H1908 C1918 0.930 . S
H1909 C1919 0.930 . S
C1910 H1904 0.930 . S
C1910 C1911 1.355 . S
C1910 C1912 1.415 . S
C1911 C1910 1.355 . S
C1911 C1913 1.419 . S
C1912 C1910 1.415 . S
C1912 C1917 1.425 . S
C1912 C1919 1.409 . S
C1913 H1905 0.930 . S
C1913 C1911 1.419 . S
C1913 C1914 1.362 . S
C1914 H1906 0.930 . S
C1914 C1913 1.362 . S
C1914 C1917 1.409 . S
C1915 H1907 0.930 . S
C1915 C1916 1.355 . S
C1915 C1917 1.415 . S
C1916 C1915 1.355 . S
C1916 C1918 1.419 . S
C1917 C1912 1.425 . S
C1917 C1914 1.409 . S
C1917 C1915 1.415 . S
C1918 H1908 0.930 . S
C1918 C1916 1.419 . S
C1918 C1919 1.362 . S
C1919 H1909 0.930 . S
C1919 C1912 1.409 . S
C1919 C1918 1.362 . S
H1920 C1926 0.930 . S
H1921 C1929 0.930 . S
H1922 C1930 0.930 1_455 S
H1923 C1931 0.925 1_455 S
H1924 C1934 0.930 . S
H1925 C1935 0.930 . S
C1926 H1920 0.930 . S
C1926 C1927 1.355 . S
C1926 C1928 1.415 . S
C1927 C1926 1.355 . S
C1927 C1929 1.419 . S
C1928 C1926 1.415 . S
C1928 C1933 1.425 . S
C1928 C1935 1.409 . S
C1929 H1921 0.930 . S
C1929 C1927 1.419 . S
C1929 C1930 1.362 . S
C1930 H1922 0.930 1_655 S
C1930 C1929 1.362 . S
C1930 C1933 1.409 . S
C1931 H1923 0.925 1_655 S
C1931 C1932 1.356 . S
C1931 C1933 1.417 . S
C1932 C1931 1.356 . S
C1932 C1934 1.419 . S
C1933 C1928 1.425 . S
C1933 C1930 1.409 . S
C1933 C1931 1.417 . S
C1934 H1924 0.930 . S
C1934 C1932 1.419 . S
C1934 C1935 1.362 . S
C1935 H1925 0.930 . S
C1935 C1928 1.409 . S
C1935 C1934 1.362 . S
H1936 C1942 0.930 . S
H1937 C1945 0.930 . S
H1938 C1946 0.930 . S
H1939 C1947 0.930 . S
H1940 C1950 0.930 . S
H1941 C1951 0.930 . S
C1942 H1936 0.930 . S
C1942 C1943 1.355 . S
C1942 C1944 1.415 . S
C1943 C1942 1.355 . S
C1943 C1945 1.419 . S
C1944 C1942 1.415 . S
C1944 C1949 1.425 . S
C1944 C1951 1.409 . S
C1945 H1937 0.930 . S
C1945 C1943 1.419 . S
C1945 C1946 1.362 . S
C1946 H1938 0.930 . S
C1946 C1945 1.362 . S
C1946 C1949 1.409 . S
C1947 H1939 0.930 . S
C1947 C1948 1.355 . S
C1947 C1949 1.415 . S
C1948 C1947 1.355 . S
C1948 C1950 1.419 . S
C1949 C1944 1.425 . S
C1949 C1946 1.409 . S
C1949 C1947 1.415 . S
C1950 H1940 0.930 . S
C1950 C1948 1.419 . S
C1950 C1951 1.362 . S
C1951 H1941 0.930 . S
C1951 C1944 1.409 . S
C1951 C1950 1.362 . S
H1952 C1958 0.930 1_565 S
H1953 C1961 0.930 . S
H1954 C1962 0.930 . S
H1955 C1963 0.930 . S
H1956 C1966 0.930 . S
H1957 C1967 0.930 . S
C1958 H1952 0.930 1_545 S
C1958 C1959 1.355 . S
C1958 C1960 1.415 . S
C1959 C1958 1.355 . S
C1959 C1961 1.419 . S
C1960 C1958 1.415 . S
C1960 C1965 1.425 . S
C1960 C1967 1.409 . S
C1961 H1953 0.930 . S
C1961 C1959 1.419 . S
C1961 C1962 1.362 . S
C1962 H1954 0.930 . S
C1962 C1961 1.362 . S
C1962 C1965 1.409 . S
C1963 H1955 0.930 . S
C1963 C1964 1.355 . S
C1963 C1965 1.415 . S
C1964 C1963 1.355 . S
C1964 C1966 1.419 . S
C1965 C1960 1.425 . S
C1965 C1962 1.409 . S
C1965 C1963 1.415 . S
C1966 H1956 0.930 . S
C1966 C1964 1.419 . S
C1966 C1967 1.362 . S
C1967 H1957 0.930 . S
C1967 C1960 1.409 . S
C1967 C1966 1.362 . S
H1968 C1974 0.930 . S
H1969 C1977 0.930 . S
H1970 C1978 0.930 . S
H1971 C1979 0.930 . S
H1972 C1982 0.930 . S
H1973 C1983 0.930 . S
C1974 H1968 0.930 . S
C1974 C1975 1.355 . S
C1974 C1976 1.415 . S
C1975 C1974 1.355 . S
C1975 C1977 1.419 . S
C1976 C1974 1.415 . S
C1976 C1981 1.425 . S
C1976 C1983 1.409 . S
C1977 H1969 0.930 . S
C1977 C1975 1.419 . S
C1977 C1978 1.362 . S
C1978 H1970 0.930 . S
C1978 C1977 1.362 . S
C1978 C1981 1.409 . S
C1979 H1971 0.930 . S
C1979 C1980 1.355 . S
C1979 C1981 1.415 . S
C1980 C1979 1.355 . S
C1980 C1982 1.419 . S
C1981 C1976 1.425 . S
C1981 C1978 1.409 . S
C1981 C1979 1.415 . S
C1982 H1972 0.930 . S
C1982 C1980 1.419 . S
C1982 C1983 1.362 . S
C1983 H1973 0.930 . S
C1983 C1976 1.409 . S
C1983 C1982 1.362 . S
H1984 C1990 0.930 . S
H1985 C1993 0.930 . S
H1986 C1994 0.930 1_545 S
H1987 C1995 0.930 . S
H1988 C1998 0.930 . S
H1989 C1999 0.930 . S
C1990 H1984 0.930 . S
C1990 C1991 1.355 . S
C1990 C1992 1.415 . S
C1991 C1990 1.355 . S
C1991 C1993 1.419 . S
C1992 C1990 1.415 . S
C1992 C1997 1.425 . S
C1992 C1999 1.409 . S
C1993 H1985 0.930 . S
C1993 C1991 1.419 . S
C1993 C1994 1.362 . S
C1994 H1986 0.930 1_565 S
C1994 C1993 1.362 . S
C1994 C1997 1.409 . S
C1995 H1987 0.930 . S
C1995 C1996 1.355 . S
C1995 C1997 1.415 1_545 S
C1996 C1995 1.355 . S
C1996 C1998 1.419 1_545 S
C1997 C1992 1.425 . S
C1997 C1994 1.409 . S
C1997 C1995 1.415 1_565 S
C1998 H1988 0.930 . S
C1998 C1996 1.419 1_565 S
C1998 C1999 1.362 . S
C1999 H1989 0.930 . S
C1999 C1992 1.409 . S
C1999 C1998 1.362 . S
H2000 C2006 0.930 . S
H2001 C2009 0.930 . S
H2002 C2010 0.930 . S
H2003 C2011 0.930 . S
H2004 C2014 0.930 . S
H2005 C2015 0.930 . S
C2006 H2000 0.930 . S
C2006 C2007 1.355 1_556 S
C2006 C2008 1.415 . S
C2007 C2006 1.355 1_554 S
C2007 C2009 1.419 . S
C2008 C2006 1.415 . S
C2008 C2013 1.425 1_556 S
C2008 C2015 1.409 . S
C2009 H2001 0.930 . S
C2009 C2007 1.419 . S
C2009 C2010 1.362 . S
C2010 H2002 0.930 . S
C2010 C2009 1.362 . S
C2010 C2013 1.409 . S
C2011 H2003 0.930 . S
C2011 C2012 1.355 . S
C2011 C2013 1.415 . S
C2012 C2011 1.355 . S
C2012 C2014 1.419 1_554 S
C2013 C2008 1.425 1_554 S
C2013 C2010 1.409 . S
C2013 C2011 1.415 . S
C2014 H2004 0.930 . S
C2014 C2012 1.419 1_556 S
C2014 C2015 1.362 . S
C2015 H2005 0.930 . S
C2015 C2008 1.409 . S
C2015 C2014 1.362 . S
H2016 C2022 0.930 . S
H2017 C2025 0.930 . S
H2018 C2026 0.930 . S
H2019 C2027 0.930 . S
H2020 C2030 0.930 . S
H2021 C2031 0.930 . S
C2022 H2016 0.930 . S
C2022 C2023 1.355 . S
C2022 C2024 1.415 . S
C2023 C2022 1.355 . S
C2023 C2025 1.419 . S
C2024 C2022 1.415 . S
C2024 C2029 1.425 . S
C2024 C2031 1.409 . S
C2025 H2017 0.930 . S
C2025 C2023 1.419 . S
C2025 C2026 1.362 . S
C2026 H2018 0.930 . S
C2026 C2025 1.362 . S
C2026 C2029 1.409 . S
C2027 H2019 0.930 . S
C2027 C2028 1.355 . S
C2027 C2029 1.415 . S
C2028 C2027 1.355 . S
C2028 C2030 1.419 . S
C2029 C2024 1.425 . S
C2029 C2026 1.409 . S
C2029 C2027 1.415 . S
C2030 H2020 0.930 . S
C2030 C2028 1.419 . S
C2030 C2031 1.362 . S
C2031 H2021 0.930 . S
C2031 C2024 1.409 . S
C2031 C2030 1.362 . S
H2032 C2038 0.930 . S
H2033 C2041 0.930 . S
H2034 C2042 0.930 . S
H2035 C2043 0.930 . S
H2036 C2046 0.930 . S
H2037 C2047 0.930 . S
C2038 H2032 0.930 . S
C2038 C2039 1.355 . S
C2038 C2040 1.415 . S
C2039 C2038 1.355 . S
C2039 C2041 1.419 . S
C2040 C2038 1.415 . S
C2040 C2045 1.425 . S
C2040 C2047 1.409 . S
C2041 H2033 0.930 . S
C2041 C2039 1.419 . S
C2041 C2042 1.362 . S
C2042 H2034 0.930 . S
C2042 C2041 1.362 . S
C2042 C2045 1.409 . S
C2043 H2035 0.930 . S
C2043 C2044 1.355 . S
C2043 C2045 1.415 . S
C2044 C2043 1.355 . S
C2044 C2046 1.419 . S
C2045 C2040 1.425 . S
C2045 C2042 1.409 . S
C2045 C2043 1.415 . S
C2046 H2036 0.930 . S
C2046 C2044 1.419 . S
C2046 C2047 1.362 . S
C2047 H2037 0.930 . S
C2047 C2040 1.409 . S
C2047 C2046 1.362 . S
H2048 C2054 0.930 1_545 S
H2049 C2057 0.930 . S
H2050 C2058 0.930 . S
H2051 C2059 0.930 . S
H2052 C2062 0.930 . S
H2053 C2063 0.930 . S
C2054 H2048 0.930 1_565 S
C2054 C2055 1.355 1_565 S
C2054 C2056 1.415 . S
C2055 C2054 1.355 1_545 S
C2055 C2057 1.419 1_545 S
C2056 C2054 1.415 . S
C2056 C2061 1.425 . S
C2056 C2063 1.409 . S
C2057 H2049 0.930 . S
C2057 C2055 1.419 1_565 S
C2057 C2058 1.362 . S
C2058 H2050 0.930 . S
C2058 C2057 1.362 . S
C2058 C2061 1.409 . S
C2059 H2051 0.930 . S
C2059 C2060 1.355 . S
C2059 C2061 1.415 . S
C2060 C2059 1.355 . S
C2060 C2062 1.419 . S
C2061 C2056 1.425 . S
C2061 C2058 1.409 . S
C2061 C2059 1.415 . S
C2062 H2052 0.930 . S
C2062 C2060 1.419 . S
C2062 C2063 1.362 . S
C2063 H2053 0.930 . S
C2063 C2056 1.409 . S
C2063 C2062 1.362 . S
H2064 C2070 0.930 . S
H2065 C2073 0.930 . S
H2066 C2074 0.930 . S
H2067 C2075 0.930 . S
H2068 C2078 0.930 . S
H2069 C2079 0.930 . S
C2070 H2064 0.930 . S
C2070 C2071 1.355 . S
C2070 C2072 1.415 . S
C2071 C2070 1.355 . S
C2071 C2073 1.419 . S
C2072 C2070 1.415 . S
C2072 C2077 1.425 . S
C2072 C2079 1.409 . S
C2073 H2065 0.930 . S
C2073 C2071 1.419 . S
C2073 C2074 1.362 . S
C2074 H2066 0.930 . S
C2074 C2073 1.362 . S
C2074 C2077 1.409 . S
C2075 H2067 0.930 . S
C2075 C2076 1.355 . S
C2075 C2077 1.415 . S
C2076 C2075 1.355 . S
C2076 C2078 1.419 . S
C2077 C2072 1.425 . S
C2077 C2074 1.409 . S
C2077 C2075 1.415 . S
C2078 H2068 0.930 . S
C2078 C2076 1.419 . S
C2078 C2079 1.362 . S
C2079 H2069 0.930 . S
C2079 C2072 1.409 . S
C2079 C2078 1.362 . S
H2080 C2086 0.930 . S
H2081 C2089 0.930 . S
H2082 C2090 0.930 . S
H2083 C2091 0.930 . S
H2084 C2094 0.930 . S
H2085 C2095 0.930 . S
C2086 H2080 0.930 . S
C2086 C2087 1.355 . S
C2086 C2088 1.415 . S
C2087 C2086 1.355 . S
C2087 C2089 1.419 . S
C2088 C2086 1.415 . S
C2088 C2093 1.425 . S
C2088 C2095 1.409 . S
C2089 H2081 0.930 . S
C2089 C2087 1.419 . S
C2089 C2090 1.362 . S
C2090 H2082 0.930 . S
C2090 C2089 1.362 . S
C2090 C2093 1.409 . S
C2091 H2083 0.930 . S
C2091 C2092 1.355 . S
C2091 C2093 1.415 . S
C2092 C2091 1.355 . S
C2092 C2094 1.419 . S
C2093 C2088 1.425 . S
C2093 C2090 1.409 . S
C2093 C2091 1.415 . S
C2094 H2084 0.930 . S
C2094 C2092 1.419 . S
C2094 C2095 1.362 . S
C2095 H2085 0.930 . S
C2095 C2088 1.409 . S
C2095 C2094 1.362 . S
H2096 C2102 0.930 . S
H2097 C2105 0.930 . S
H2098 C2106 0.930 . S
H2099 C2107 0.930 . S
H2100 C2110 0.930 . S
H2101 C2111 0.930 . S
C2102 H2096 0.930 . S
C2102 C2103 1.355 . S
C2102 C2104 1.415 . S
C2103 C2102 1.355 . S
C2103 C2105 1.419 . S
C2104 C2102 1.415 . S
C2104 C2109 1.425 . S
C2104 C2111 1.409 . S
C2105 H2097 0.930 . S
C2105 C2103 1.419 . S
C2105 C2106 1.362 . S
C2106 H2098 0.930 . S
C2106 C2105 1.362 . S
C2106 C2109 1.409 . S
C2107 H2099 0.930 . S
C2107 C2108 1.355 . S
C2107 C2109 1.415 . S
C2108 C2107 1.355 . S
C2108 C2110 1.419 . S
C2109 C2104 1.425 . S
C2109 C2106 1.409 . S
C2109 C2107 1.415 . S
C2110 H2100 0.930 . S
C2110 C2108 1.419 . S
C2110 C2111 1.362 . S
C2111 H2101 0.930 . S
C2111 C2104 1.409 . S
C2111 C2110 1.362 . S
H2112 C2118 0.930 . S
H2113 C2121 0.930 . S
H2114 C2122 0.930 . S
H2115 C2123 0.930 . S
H2116 C2126 0.930 . S
H2117 C2127 0.930 . S
C2118 H2112 0.930 . S
C2118 C2119 1.355 . S
C2118 C2120 1.415 . S
C2119 C2118 1.355 . S
C2119 C2121 1.419 . S
C2120 C2118 1.415 . S
C2120 C2125 1.425 . S
C2120 C2127 1.409 . S
C2121 H2113 0.930 . S
C2121 C2119 1.419 . S
C2121 C2122 1.362 . S
C2122 H2114 0.930 . S
C2122 C2121 1.362 . S
C2122 C2125 1.409 . S
C2123 H2115 0.930 . S
C2123 C2124 1.355 . S
C2123 C2125 1.415 . S
C2124 C2123 1.355 . S
C2124 C2126 1.419 . S
C2125 C2120 1.425 . S
C2125 C2122 1.409 . S
C2125 C2123 1.415 . S
C2126 H2116 0.930 . S
C2126 C2124 1.419 . S
C2126 C2127 1.362 . S
C2127 H2117 0.930 . S
C2127 C2120 1.409 . S
C2127 C2126 1.362 . S
H2128 C2134 0.930 . S
H2129 C2137 0.930 . S
H2130 C2138 0.930 . S
H2131 C2139 0.930 . S
H2132 C2142 0.930 . S
H2133 C2143 0.930 . S
C2134 H2128 0.930 . S
C2134 C2135 1.355 . S
C2134 C2136 1.415 . S
C2135 C2134 1.355 . S
C2135 C2137 1.419 . S
C2136 C2134 1.415 . S
C2136 C2141 1.425 . S
C2136 C2143 1.409 . S
C2137 H2129 0.930 . S
C2137 C2135 1.419 . S
C2137 C2138 1.362 . S
C2138 H2130 0.930 . S
C2138 C2137 1.362 . S
C2138 C2141 1.409 . S
C2139 H2131 0.930 . S
C2139 C2140 1.355 . S
C2139 C2141 1.415 . S
C2140 C2139 1.355 . S
C2140 C2142 1.419 . S
C2141 C2136 1.425 . S
C2141 C2138 1.409 . S
C2141 C2139 1.415 . S
C2142 H2132 0.930 . S
C2142 C2140 1.419 . S
C2142 C2143 1.362 . S
C2143 H2133 0.930 . S
C2143 C2136 1.409 . S
C2143 C2142 1.362 . S
H2144 C2150 0.930 . S
H2145 C2153 0.930 . S
H2146 C2154 0.930 . S
H2147 C2155 0.930 . S
H2148 C2158 0.930 . S
H2149 C2159 0.930 . S
C2150 H2144 0.930 . S
C2150 C2151 1.355 . S
C2150 C2152 1.415 . S
C2151 C2150 1.355 . S
C2151 C2153 1.419 . S
C2152 C2150 1.415 . S
C2152 C2157 1.425 . S
C2152 C2159 1.409 . S
C2153 H2145 0.930 . S
C2153 C2151 1.419 . S
C2153 C2154 1.362 . S
C2154 H2146 0.930 . S
C2154 C2153 1.362 . S
C2154 C2157 1.409 . S
C2155 H2147 0.930 . S
C2155 C2156 1.355 . S
C2155 C2157 1.415 . S
C2156 C2155 1.355 . S
C2156 C2158 1.419 . S
C2157 C2152 1.425 . S
C2157 C2154 1.409 . S
C2157 C2155 1.415 . S
C2158 H2148 0.930 . S
C2158 C2156 1.419 . S
C2158 C2159 1.362 . S
C2159 H2149 0.930 . S
C2159 C2152 1.409 . S
C2159 C2158 1.362 . S
H2160 C2166 0.930 . S
H2161 C2169 0.930 . S
H2162 C2170 0.930 . S
H2163 C2171 0.930 . S
H2164 C2174 0.930 . S
H2165 C2175 0.930 . S
C2166 H2160 0.930 . S
C2166 C2167 1.355 . S
C2166 C2168 1.415 . S
C2167 C2166 1.355 . S
C2167 C2169 1.419 . S
C2168 C2166 1.415 . S
C2168 C2173 1.425 . S
C2168 C2175 1.409 . S
C2169 H2161 0.930 . S
C2169 C2167 1.419 . S
C2169 C2170 1.362 . S
C2170 H2162 0.930 . S
C2170 C2169 1.362 . S
C2170 C2173 1.409 . S
C2171 H2163 0.930 . S
C2171 C2172 1.355 . S
C2171 C2173 1.415 . S
C2172 C2171 1.355 . S
C2172 C2174 1.419 . S
C2173 C2168 1.425 . S
C2173 C2170 1.409 . S
C2173 C2171 1.415 . S
C2174 H2164 0.930 . S
C2174 C2172 1.419 . S
C2174 C2175 1.362 . S
C2175 H2165 0.930 . S
C2175 C2168 1.409 . S
C2175 C2174 1.362 . S
H2176 C2182 0.930 . S
H2177 C2185 0.930 . S
H2178 C2186 0.930 . S
H2179 C2187 0.930 . S
H2180 C2190 0.930 . S
H2181 C2191 0.930 . S
C2182 H2176 0.930 . S
C2182 C2183 1.355 . S
C2182 C2184 1.415 . S
C2183 C2182 1.355 . S
C2183 C2185 1.419 . S
C2184 C2182 1.415 . S
C2184 C2189 1.425 . S
C2184 C2191 1.409 . S
C2185 H2177 0.930 . S
C2185 C2183 1.419 . S
C2185 C2186 1.362 . S
C2186 H2178 0.930 . S
C2186 C2185 1.362 . S
C2186 C2189 1.409 . S
C2187 H2179 0.930 . S
C2187 C2188 1.355 . S
C2187 C2189 1.415 . S
C2188 C2187 1.355 . S
C2188 C2190 1.419 . S
C2189 C2184 1.425 . S
C2189 C2186 1.409 . S
C2189 C2187 1.415 . S
C2190 H2180 0.930 . S
C2190 C2188 1.419 . S
C2190 C2191 1.362 . S
C2191 H2181 0.930 . S
C2191 C2184 1.409 . S
C2191 C2190 1.362 . S
H2192 C2198 0.930 . S
H2193 C2201 0.930 . S
H2194 C2202 0.930 . S
H2195 C2203 0.930 . S
H2196 C2206 0.930 . S
H2197 C2207 0.930 . S
C2198 H2192 0.930 . S
C2198 C2199 1.355 . S
C2198 C2200 1.415 . S
C2199 C2198 1.355 . S
C2199 C2201 1.419 . S
C2200 C2198 1.415 . S
C2200 C2205 1.425 . S
C2200 C2207 1.409 . S
C2201 H2193 0.930 . S
C2201 C2199 1.419 . S
C2201 C2202 1.362 . S
C2202 H2194 0.930 . S
C2202 C2201 1.362 . S
C2202 C2205 1.409 . S
C2203 H2195 0.930 . S
C2203 C2204 1.355 . S
C2203 C2205 1.415 . S
C2204 C2203 1.355 . S
C2204 C2206 1.419 . S
C2205 C2200 1.425 . S
C2205 C2202 1.409 . S
C2205 C2203 1.415 . S
C2206 H2196 0.930 . S
C2206 C2204 1.419 . S
C2206 C2207 1.362 . S
C2207 H2197 0.930 . S
C2207 C2200 1.409 . S
C2207 C2206 1.362 . S
H2208 C2214 0.930 . S
H2209 C2217 0.930 . S
H2210 C2218 0.930 . S
H2211 C2219 0.930 . S
H2212 C2222 0.930 . S
H2213 C2223 0.930 . S
C2214 H2208 0.930 . S
C2214 C2215 1.355 . S
C2214 C2216 1.415 . S
C2215 C2214 1.355 . S
C2215 C2217 1.419 . S
C2216 C2214 1.415 . S
C2216 C2221 1.425 . S
C2216 C2223 1.409 . S
C2217 H2209 0.930 . S
C2217 C2215 1.419 . S
C2217 C2218 1.362 . S
C2218 H2210 0.930 . S
C2218 C2217 1.362 . S
C2218 C2221 1.409 . S
C2219 H2211 0.930 . S
C2219 C2220 1.355 . S
C2219 C2221 1.415 . S
C2220 C2219 1.355 . S
C2220 C2222 1.419 . S
C2221 C2216 1.425 . S
C2221 C2218 1.409 . S
C2221 C2219 1.415 . S
C2222 H2212 0.930 . S
C2222 C2220 1.419 . S
C2222 C2223 1.362 . S
C2223 H2213 0.930 . S
C2223 C2216 1.409 . S
C2223 C2222 1.362 . S
H2224 C2230 0.930 . S
H2225 C2233 0.930 . S
H2226 C2234 0.930 . S
H2227 C2235 0.930 . S
H2228 C2238 0.930 . S
H2229 C2239 0.930 . S
C2230 H2224 0.930 . S
C2230 C2231 1.355 . S
C2230 C2232 1.415 . S
C2231 C2230 1.355 . S
C2231 C2233 1.419 . S
C2232 C2230 1.415 . S
C2232 C2237 1.425 . S
C2232 C2239 1.409 . S
C2233 H2225 0.930 . S
C2233 C2231 1.419 . S
C2233 C2234 1.362 . S
C2234 H2226 0.930 . S
C2234 C2233 1.362 . S
C2234 C2237 1.409 . S
C2235 H2227 0.930 . S
C2235 C2236 1.355 . S
C2235 C2237 1.415 . S
C2236 C2235 1.355 . S
C2236 C2238 1.419 . S
C2237 C2232 1.425 . S
C2237 C2234 1.409 . S
C2237 C2235 1.415 . S
C2238 H2228 0.930 . S
C2238 C2236 1.419 . S
C2238 C2239 1.362 . S
C2239 H2229 0.930 . S
C2239 C2232 1.409 . S
C2239 C2238 1.362 . S
H2240 C2246 0.930 . S
H2241 C2249 0.930 . S
H2242 C2250 0.930 . S
H2243 C2251 0.930 . S
H2244 C2254 0.930 . S
H2245 C2255 0.930 . S
C2246 H2240 0.930 . S
C2246 C2247 1.355 . S
C2246 C2248 1.415 . S
C2247 C2246 1.355 . S
C2247 C2249 1.419 . S
C2248 C2246 1.415 . S
C2248 C2253 1.425 . S
C2248 C2255 1.409 . S
C2249 H2241 0.930 . S
C2249 C2247 1.419 . S
C2249 C2250 1.362 . S
C2250 H2242 0.930 . S
C2250 C2249 1.362 . S
C2250 C2253 1.409 . S
C2251 H2243 0.930 . S
C2251 C2252 1.355 . S
C2251 C2253 1.415 . S
C2252 C2251 1.355 . S
C2252 C2254 1.419 . S
C2253 C2248 1.425 . S
C2253 C2250 1.409 . S
C2253 C2251 1.415 . S
C2254 H2244 0.930 . S
C2254 C2252 1.419 . S
C2254 C2255 1.362 . S
C2255 H2245 0.930 . S
C2255 C2248 1.409 . S
C2255 C2254 1.362 . S
H2256 C2262 0.930 . S
H2257 C2265 0.930 . S
H2258 C2266 0.930 . S
H2259 C2267 0.930 . S
H2260 C2270 0.930 . S
H2261 C2271 0.930 . S
C2262 H2256 0.930 . S
C2262 C2263 1.355 . S
C2262 C2264 1.415 . S
C2263 C2262 1.355 . S
C2263 C2265 1.419 . S
C2264 C2262 1.415 . S
C2264 C2269 1.425 . S
C2264 C2271 1.409 . S
C2265 H2257 0.930 . S
C2265 C2263 1.419 . S
C2265 C2266 1.362 . S
C2266 H2258 0.930 . S
C2266 C2265 1.362 . S
C2266 C2269 1.409 . S
C2267 H2259 0.930 . S
C2267 C2268 1.355 . S
C2267 C2269 1.415 . S
C2268 C2267 1.355 . S
C2268 C2270 1.419 . S
C2269 C2264 1.425 . S
C2269 C2266 1.409 . S
C2269 C2267 1.415 . S
C2270 H2260 0.930 . S
C2270 C2268 1.419 . S
C2270 C2271 1.362 . S
C2271 H2261 0.930 . S
C2271 C2264 1.409 . S
C2271 C2270 1.362 . S
H2272 C2278 0.930 . S
H2273 C2281 0.930 . S
H2274 C2282 0.930 . S
H2275 C2283 0.930 . S
H2276 C2286 0.930 . S
H2277 C2287 0.930 . S
C2278 H2272 0.930 . S
C2278 C2279 1.355 . S
C2278 C2280 1.415 . S
C2279 C2278 1.355 . S
C2279 C2281 1.419 . S
C2280 C2278 1.415 . S
C2280 C2285 1.425 . S
C2280 C2287 1.409 . S
C2281 H2273 0.930 . S
C2281 C2279 1.419 . S
C2281 C2282 1.362 . S
C2282 H2274 0.930 . S
C2282 C2281 1.362 . S
C2282 C2285 1.409 . S
C2283 H2275 0.930 . S
C2283 C2284 1.355 . S
C2283 C2285 1.415 . S
C2284 C2283 1.355 . S
C2284 C2286 1.419 . S
C2285 C2280 1.425 . S
C2285 C2282 1.409 . S
C2285 C2283 1.415 . S
C2286 H2276 0.930 . S
C2286 C2284 1.419 . S
C2286 C2287 1.362 . S
C2287 H2277 0.930 . S
C2287 C2280 1.409 . S
C2287 C2286 1.362 . S
H2288 C2294 0.930 . S
H2289 C2297 0.930 . S
H2290 C2298 0.930 . S
H2291 C2299 0.930 . S
H2292 C2302 0.930 . S
H2293 C2303 0.930 . S
C2294 H2288 0.930 . S
C2294 C2295 1.355 . S
C2294 C2296 1.415 . S
C2295 C2294 1.355 . S
C2295 C2297 1.419 . S
C2296 C2294 1.415 . S
C2296 C2301 1.425 . S
C2296 C2303 1.409 . S
C2297 H2289 0.930 . S
C2297 C2295 1.419 . S
C2297 C2298 1.362 . S
C2298 H2290 0.930 . S
C2298 C2297 1.362 . S
C2298 C2301 1.409 . S
C2299 H2291 0.930 . S
C2299 C2300 1.355 . S
C2299 C2301 1.415 . S
C2300 C2299 1.355 . S
C2300 C2302 1.419 . S
C2301 C2296 1.425 . S
C2301 C2298 1.409 . S
C2301 C2299 1.415 . S
C2302 H2292 0.930 . S
C2302 C2300 1.419 . S
C2302 C2303 1.362 . S
C2303 H2293 0.930 . S
C2303 C2296 1.409 . S
C2303 C2302 1.362 . S
H2304 C2310 0.930 . S
H2305 C2313 0.930 . S
H2306 C2314 0.930 . S
H2307 C2315 0.930 . S
H2308 C2318 0.930 . S
H2309 C2319 0.930 . S
C2310 H2304 0.930 . S
C2310 C2311 1.355 . S
C2310 C2312 1.415 . S
C2311 C2310 1.355 . S
C2311 C2313 1.419 . S
C2312 C2310 1.415 . S
C2312 C2317 1.425 . S
C2312 C2319 1.409 . S
C2313 H2305 0.930 . S
C2313 C2311 1.419 . S
C2313 C2314 1.362 . S
C2314 H2306 0.930 . S
C2314 C2313 1.362 . S
C2314 C2317 1.409 . S
C2315 H2307 0.930 . S
C2315 C2316 1.355 . S
C2315 C2317 1.415 . S
C2316 C2315 1.355 . S
C2316 C2318 1.419 . S
C2317 C2312 1.425 . S
C2317 C2314 1.409 . S
C2317 C2315 1.415 . S
C2318 H2308 0.930 . S
C2318 C2316 1.419 . S
C2318 C2319 1.362 . S
C2319 H2309 0.930 . S
C2319 C2312 1.409 . S
C2319 C2318 1.362 . S
H2320 C2326 0.930 . S
H2321 C2329 0.930 . S
H2322 C2330 0.930 . S
H2323 C2331 0.930 . S
H2324 C2334 0.930 . S
H2325 C2335 0.930 . S
C2326 H2320 0.930 . S
C2326 C2327 1.355 . S
C2326 C2328 1.415 . S
C2327 C2326 1.355 . S
C2327 C2329 1.419 . S
C2328 C2326 1.415 . S
C2328 C2333 1.425 . S
C2328 C2335 1.409 . S
C2329 H2321 0.930 . S
C2329 C2327 1.419 . S
C2329 C2330 1.362 . S
C2330 H2322 0.930 . S
C2330 C2329 1.362 . S
C2330 C2333 1.409 . S
C2331 H2323 0.930 . S
C2331 C2332 1.355 . S
C2331 C2333 1.415 . S
C2332 C2331 1.355 . S
C2332 C2334 1.419 . S
C2333 C2328 1.425 . S
C2333 C2330 1.409 . S
C2333 C2331 1.415 . S
C2334 H2324 0.930 . S
C2334 C2332 1.419 . S
C2334 C2335 1.362 . S
C2335 H2325 0.930 . S
C2335 C2328 1.409 . S
C2335 C2334 1.362 . S
H2336 C2342 0.930 . S
H2337 C2345 0.930 . S
H2338 C2346 0.930 . S
H2339 C2347 0.930 . S
H2340 C2350 0.930 . S
H2341 C2351 0.930 . S
C2342 H2336 0.930 . S
C2342 C2343 1.355 . S
C2342 C2344 1.415 . S
C2343 C2342 1.355 . S
C2343 C2345 1.419 . S
C2344 C2342 1.415 . S
C2344 C2349 1.425 . S
C2344 C2351 1.409 . S
C2345 H2337 0.930 . S
C2345 C2343 1.419 . S
C2345 C2346 1.362 . S
C2346 H2338 0.930 . S
C2346 C2345 1.362 . S
C2346 C2349 1.409 . S
C2347 H2339 0.930 . S
C2347 C2348 1.355 . S
C2347 C2349 1.415 . S
C2348 C2347 1.355 . S
C2348 C2350 1.419 . S
C2349 C2344 1.425 . S
C2349 C2346 1.409 . S
C2349 C2347 1.415 . S
C2350 H2340 0.930 . S
C2350 C2348 1.419 . S
C2350 C2351 1.362 . S
C2351 H2341 0.930 . S
C2351 C2344 1.409 . S
C2351 C2350 1.362 . S
H2352 C2358 0.930 . S
H2353 C2361 0.930 . S
H2354 C2362 0.930 . S
H2355 C2363 0.930 . S
H2356 C2366 0.930 . S
H2357 C2367 0.930 . S
C2358 H2352 0.930 . S
C2358 C2359 1.355 . S
C2358 C2360 1.415 . S
C2359 C2358 1.355 . S
C2359 C2361 1.419 . S
C2360 C2358 1.415 . S
C2360 C2365 1.425 . S
C2360 C2367 1.409 . S
C2361 H2353 0.930 . S
C2361 C2359 1.419 . S
C2361 C2362 1.362 . S
C2362 H2354 0.930 . S
C2362 C2361 1.362 . S
C2362 C2365 1.409 . S
C2363 H2355 0.930 . S
C2363 C2364 1.355 . S
C2363 C2365 1.415 . S
C2364 C2363 1.355 . S
C2364 C2366 1.419 . S
C2365 C2360 1.425 . S
C2365 C2362 1.409 . S
C2365 C2363 1.415 . S
C2366 H2356 0.930 . S
C2366 C2364 1.419 . S
C2366 C2367 1.362 . S
C2367 H2357 0.930 . S
C2367 C2360 1.409 . S
C2367 C2366 1.362 . S
H2368 C2374 0.930 . S
H2369 C2377 0.930 . S
H2370 C2378 0.930 . S
H2371 C2379 0.930 . S
H2372 C2382 0.930 . S
H2373 C2383 0.930 . S
C2374 H2368 0.930 . S
C2374 C2375 1.355 . S
C2374 C2376 1.415 . S
C2375 C2374 1.355 . S
C2375 C2377 1.419 . S
C2376 C2374 1.415 . S
C2376 C2381 1.425 . S
C2376 C2383 1.409 . S
C2377 H2369 0.930 . S
C2377 C2375 1.419 . S
C2377 C2378 1.362 . S
C2378 H2370 0.930 . S
C2378 C2377 1.362 . S
C2378 C2381 1.409 . S
C2379 H2371 0.930 . S
C2379 C2380 1.355 . S
C2379 C2381 1.415 . S
C2380 C2379 1.355 . S
C2380 C2382 1.419 . S
C2381 C2376 1.425 . S
C2381 C2378 1.409 . S
C2381 C2379 1.415 . S
C2382 H2372 0.930 . S
C2382 C2380 1.419 . S
C2382 C2383 1.362 . S
C2383 H2373 0.930 . S
C2383 C2376 1.409 . S
C2383 C2382 1.362 . S
H2384 C2390 0.930 . S
H2385 C2393 0.930 . S
H2386 C2394 0.930 . S
H2387 C2395 0.930 . S
H2388 C2398 0.930 . S
H2389 C2399 0.930 . S
C2390 H2384 0.930 . S
C2390 C2391 1.355 . S
C2390 C2392 1.415 . S
C2391 C2390 1.355 . S
C2391 C2393 1.419 . S
C2392 C2390 1.415 . S
C2392 C2397 1.425 . S
C2392 C2399 1.409 1_565 S
C2393 H2385 0.930 . S
C2393 C2391 1.419 . S
C2393 C2394 1.362 . S
C2394 H2386 0.930 . S
C2394 C2393 1.362 . S
C2394 C2397 1.409 . S
C2395 H2387 0.930 . S
C2395 C2396 1.355 1_565 S
C2395 C2397 1.415 . S
C2396 C2395 1.355 1_545 S
C2396 C2398 1.419 . S
C2397 C2392 1.425 . S
C2397 C2394 1.409 . S
C2397 C2395 1.415 . S
C2398 H2388 0.930 . S
C2398 C2396 1.419 . S
C2398 C2399 1.362 . S
C2399 H2389 0.930 . S
C2399 C2392 1.409 1_545 S
C2399 C2398 1.362 . S
H2400 C2406 0.930 . S
H2401 C2409 0.930 . S
H2402 C2410 0.930 . S
H2403 C2411 0.930 . S
H2404 C2414 0.930 . S
H2405 C2415 0.930 . S
C2406 H2400 0.930 . S
C2406 C2407 1.320 1_565 S
C2406 C2408 1.415 . S
C2407 C2406 1.320 1_545 S
C2407 C2409 1.425 . S
C2408 C2406 1.415 . S
C2408 C2413 1.425 . S
C2408 C2415 1.409 . S
C2409 H2401 0.930 . S
C2409 C2407 1.425 . S
C2409 C2410 1.362 1_545 S
C2410 H2402 0.930 . S
C2410 C2409 1.362 1_565 S
C2410 C2413 1.409 . S
C2411 H2403 0.930 . S
C2411 C2412 1.355 . S
C2411 C2413 1.415 . S
C2412 C2411 1.355 . S
C2412 C2414 1.419 . S
C2413 C2408 1.425 . S
C2413 C2410 1.409 . S
C2413 C2411 1.415 . S
C2414 H2404 0.930 . S
C2414 C2412 1.419 . S
C2414 C2415 1.362 . S
C2415 H2405 0.930 . S
C2415 C2408 1.409 . S
C2415 C2414 1.362 . S
H2416 C2422 0.930 . S
H2417 C2425 0.930 . S
H2418 C2426 0.930 . S
H2419 C2427 0.930 . S
H2420 C2430 0.930 . S
H2421 C2431 0.930 . S
C2422 H2416 0.930 . S
C2422 C2423 1.355 . S
C2422 C2424 1.415 . S
C2423 C2422 1.355 . S
C2423 C2425 1.419 . S
C2424 C2422 1.415 . S
C2424 C2429 1.425 . S
C2424 C2431 1.409 . S
C2425 H2417 0.930 . S
C2425 C2423 1.419 . S
C2425 C2426 1.362 . S
C2426 H2418 0.930 . S
C2426 C2425 1.362 . S
C2426 C2429 1.409 . S
C2427 H2419 0.930 . S
C2427 C2428 1.355 . S
C2427 C2429 1.415 . S
C2428 C2427 1.355 . S
C2428 C2430 1.419 . S
C2429 C2424 1.425 . S
C2429 C2426 1.409 . S
C2429 C2427 1.415 . S
C2430 H2420 0.930 . S
C2430 C2428 1.419 . S
C2430 C2431 1.362 . S
C2431 H2421 0.930 . S
C2431 C2424 1.409 . S
C2431 C2430 1.362 . S
H2432 C2438 0.930 . S
H2433 C2441 0.930 . S
H2434 C2442 0.930 . S
H2435 C2443 0.930 . S
H2436 C2446 0.930 . S
H2437 C2447 0.930 . S
C2438 H2432 0.930 . S
C2438 C2439 1.355 . S
C2438 C2440 1.415 . S
C2439 C2438 1.355 . S
C2439 C2441 1.419 . S
C2440 C2438 1.415 . S
C2440 C2445 1.425 . S
C2440 C2447 1.409 . S
C2441 H2433 0.930 . S
C2441 C2439 1.419 . S
C2441 C2442 1.362 . S
C2442 H2434 0.930 . S
C2442 C2441 1.362 . S
C2442 C2445 1.409 . S
C2443 H2435 0.930 . S
C2443 C2444 1.355 . S
C2443 C2445 1.415 . S
C2444 C2443 1.355 . S
C2444 C2446 1.419 . S
C2445 C2440 1.425 . S
C2445 C2442 1.409 . S
C2445 C2443 1.415 . S
C2446 H2436 0.930 . S
C2446 C2444 1.419 . S
C2446 C2447 1.362 . S
C2447 H2437 0.930 . S
C2447 C2440 1.409 . S
C2447 C2446 1.362 . S
H2448 C2454 0.930 . S
H2449 C2457 0.930 . S
H2450 C2458 0.930 . S
H2451 C2459 0.930 . S
H2452 C2462 0.930 . S
H2453 C2463 0.930 . S
C2454 H2448 0.930 . S
C2454 C2455 1.355 . S
C2454 C2456 1.415 . S
C2455 C2454 1.355 . S
C2455 C2457 1.419 . S
C2456 C2454 1.415 . S
C2456 C2461 1.425 . S
C2456 C2463 1.409 . S
C2457 H2449 0.930 . S
C2457 C2455 1.419 . S
C2457 C2458 1.362 . S
C2458 H2450 0.930 . S
C2458 C2457 1.362 . S
C2458 C2461 1.409 . S
C2459 H2451 0.930 . S
C2459 C2460 1.355 . S
C2459 C2461 1.415 . S
C2460 C2459 1.355 . S
C2460 C2462 1.419 . S
C2461 C2456 1.425 . S
C2461 C2458 1.409 . S
C2461 C2459 1.415 . S
C2462 H2452 0.930 . S
C2462 C2460 1.419 . S
C2462 C2463 1.362 . S
C2463 H2453 0.930 . S
C2463 C2456 1.409 . S
C2463 C2462 1.362 . S
H2464 C2470 0.930 . S
H2465 C2473 0.930 . S
H2466 C2474 0.930 . S
H2467 C2475 0.930 . S
H2468 C2478 0.930 . S
H2469 C2479 0.930 . S
C2470 H2464 0.930 . S
C2470 C2471 1.355 . S
C2470 C2472 1.415 . S
C2471 C2470 1.355 . S
C2471 C2473 1.419 . S
C2472 C2470 1.415 . S
C2472 C2477 1.425 . S
C2472 C2479 1.409 . S
C2473 H2465 0.930 . S
C2473 C2471 1.419 . S
C2473 C2474 1.362 . S
C2474 H2466 0.930 . S
C2474 C2473 1.362 . S
C2474 C2477 1.409 . S
C2475 H2467 0.930 . S
C2475 C2476 1.355 . S
C2475 C2477 1.415 . S
C2476 C2475 1.355 . S
C2476 C2478 1.419 . S
C2477 C2472 1.425 . S
C2477 C2474 1.409 . S
C2477 C2475 1.415 . S
C2478 H2468 0.930 . S
C2478 C2476 1.419 . S
C2478 C2479 1.362 . S
C2479 H2469 0.930 . S
C2479 C2472 1.409 . S
C2479 C2478 1.362 . S
H2480 C2486 0.930 . S
H2481 C2489 0.930 . S
H2482 C2490 0.930 . S
H2483 C2491 0.930 . S
H2484 C2494 0.930 . S
H2485 C2495 0.930 . S
C2486 H2480 0.930 . S
C2486 C2487 1.355 . S
C2486 C2488 1.415 . S
C2487 C2486 1.355 . S
C2487 C2489 1.419 . S
C2488 C2486 1.415 . S
C2488 C2493 1.425 . S
C2488 C2495 1.409 . S
C2489 H2481 0.930 . S
C2489 C2487 1.419 . S
C2489 C2490 1.362 . S
C2490 H2482 0.930 . S
C2490 C2489 1.362 . S
C2490 C2493 1.409 . S
C2491 H2483 0.930 . S
C2491 C2492 1.355 . S
C2491 C2493 1.415 . S
C2492 C2491 1.355 . S
C2492 C2494 1.419 . S
C2493 C2488 1.425 . S
C2493 C2490 1.409 . S
C2493 C2491 1.415 . S
C2494 H2484 0.930 . S
C2494 C2492 1.419 . S
C2494 C2495 1.362 . S
C2495 H2485 0.930 . S
C2495 C2488 1.409 . S
C2495 C2494 1.362 . S
H2496 C2502 0.930 . S
H2497 C2505 0.930 . S
H2498 C2506 0.930 . S
H2499 C2507 0.930 . S
H2500 C2510 0.930 . S
H2501 C2511 0.930 . S
C2502 H2496 0.930 . S
C2502 C2503 1.355 . S
C2502 C2504 1.415 . S
C2503 C2502 1.355 . S
C2503 C2505 1.419 . S
C2504 C2502 1.415 . S
C2504 C2509 1.425 . S
C2504 C2511 1.409 . S
C2505 H2497 0.930 . S
C2505 C2503 1.419 . S
C2505 C2506 1.362 . S
C2506 H2498 0.930 . S
C2506 C2505 1.362 . S
C2506 C2509 1.409 . S
C2507 H2499 0.930 . S
C2507 C2508 1.355 . S
C2507 C2509 1.415 . S
C2508 C2507 1.355 . S
C2508 C2510 1.419 . S
C2509 C2504 1.425 . S
C2509 C2506 1.409 . S
C2509 C2507 1.415 . S
C2510 H2500 0.930 . S
C2510 C2508 1.419 . S
C2510 C2511 1.362 . S
C2511 H2501 0.930 . S
C2511 C2504 1.409 . S
C2511 C2510 1.362 . S
H2512 C2518 0.930 . S
H2513 C2521 0.930 . S
H2514 C2522 0.930 . S
H2515 C2523 0.930 . S
H2516 C2526 0.930 . S
H2517 C2527 0.930 . S
C2518 H2512 0.930 . S
C2518 C2519 1.355 . S
C2518 C2520 1.415 . S
C2519 C2518 1.355 . S
C2519 C2521 1.419 . S
C2520 C2518 1.415 . S
C2520 C2525 1.425 . S
C2520 C2527 1.409 . S
C2521 H2513 0.930 . S
C2521 C2519 1.419 . S
C2521 C2522 1.362 . S
C2522 H2514 0.930 . S
C2522 C2521 1.362 . S
C2522 C2525 1.409 . S
C2523 H2515 0.930 . S
C2523 C2524 1.355 . S
C2523 C2525 1.415 . S
C2524 C2523 1.355 . S
C2524 C2526 1.419 . S
C2525 C2520 1.425 . S
C2525 C2522 1.409 . S
C2525 C2523 1.415 . S
C2526 H2516 0.930 . S
C2526 C2524 1.419 . S
C2526 C2527 1.362 . S
C2527 H2517 0.930 . S
C2527 C2520 1.409 . S
C2527 C2526 1.362 . S
H2528 C2534 0.930 . S
H2529 C2537 0.930 . S
H2530 C2538 0.930 1_554 S
H2531 C2539 0.930 . S
H2532 C2542 0.937 . S
H2533 C2543 0.930 . S
C2534 H2528 0.930 . S
C2534 C2535 1.355 . S
C2534 C2536 1.415 . S
C2535 C2534 1.355 . S
C2535 C2537 1.419 . S
C2536 C2534 1.415 . S
C2536 C2541 1.425 . S
C2536 C2543 1.409 . S
C2537 H2529 0.930 . S
C2537 C2535 1.419 . S
C2537 C2538 1.362 . S
C2538 H2530 0.930 1_556 S
C2538 C2537 1.362 . S
C2538 C2541 1.409 . S
C2539 H2531 0.930 . S
C2539 C2540 1.355 1_554 S
C2539 C2541 1.415 1_554 S
C2540 C2539 1.355 1_556 S
C2540 C2542 1.419 . S
C2541 C2536 1.425 . S
C2541 C2538 1.409 . S
C2541 C2539 1.415 1_556 S
C2542 H2532 0.937 . S
C2542 C2540 1.419 . S
C2542 C2543 1.362 . S
C2543 H2533 0.930 . S
C2543 C2536 1.409 . S
C2543 C2542 1.362 . S
H2544 C2550 0.930 . S
H2545 C2553 0.930 . S
H2546 C2554 0.930 . S
H2547 C2555 0.930 . S
H2548 C2558 0.930 . S
H2549 C2559 0.930 . S
C2550 H2544 0.930 . S
C2550 C2551 1.355 . S
C2550 C2552 1.415 . S
C2551 C2550 1.355 . S
C2551 C2553 1.419 . S
C2552 C2550 1.415 . S
C2552 C2557 1.425 . S
C2552 C2559 1.409 . S
C2553 H2545 0.930 . S
C2553 C2551 1.419 . S
C2553 C2554 1.362 . S
C2554 H2546 0.930 . S
C2554 C2553 1.362 . S
C2554 C2557 1.409 . S
C2555 H2547 0.930 . S
C2555 C2556 1.355 . S
C2555 C2557 1.415 . S
C2556 C2555 1.355 . S
C2556 C2558 1.419 . S
C2557 C2552 1.425 . S
C2557 C2554 1.409 . S
C2557 C2555 1.415 . S
C2558 H2548 0.930 . S
C2558 C2556 1.419 . S
C2558 C2559 1.362 . S
C2559 H2549 0.930 . S
C2559 C2552 1.409 . S
C2559 C2558 1.362 . S
H2560 C2566 0.930 . S
H2561 C2569 0.930 . S
H2562 C2570 0.930 . S
H2563 C2571 0.930 . S
H2564 C2574 0.930 . S
H2565 C2575 0.930 . S
C2566 H2560 0.930 . S
C2566 C2567 1.355 . S
C2566 C2568 1.415 . S
C2567 C2566 1.355 . S
C2567 C2569 1.419 . S
C2568 C2566 1.415 . S
C2568 C2573 1.425 . S
C2568 C2575 1.409 . S
C2569 H2561 0.930 . S
C2569 C2567 1.419 . S
C2569 C2570 1.362 . S
C2570 H2562 0.930 . S
C2570 C2569 1.362 . S
C2570 C2573 1.409 . S
C2571 H2563 0.930 . S
C2571 C2572 1.355 . S
C2571 C2573 1.415 . S
C2572 C2571 1.355 . S
C2572 C2574 1.419 . S
C2573 C2568 1.425 . S
C2573 C2570 1.409 . S
C2573 C2571 1.415 . S
C2574 H2564 0.930 . S
C2574 C2572 1.419 . S
C2574 C2575 1.362 . S
C2575 H2565 0.930 . S
C2575 C2568 1.409 . S
C2575 C2574 1.362 . S
H2576 C2582 0.930 . S
H2577 C2585 0.930 . S
H2578 C2586 0.930 . S
H2579 C2587 0.930 . S
H2580 C2590 0.930 . S
H2581 C2591 0.930 . S
C2582 H2576 0.930 . S
C2582 C2583 1.355 . S
C2582 C2584 1.415 . S
C2583 C2582 1.355 . S
C2583 C2585 1.419 . S
C2584 C2582 1.415 . S
C2584 C2589 1.425 . S
C2584 C2591 1.409 . S
C2585 H2577 0.930 . S
C2585 C2583 1.419 . S
C2585 C2586 1.362 . S
C2586 H2578 0.930 . S
C2586 C2585 1.362 . S
C2586 C2589 1.409 . S
C2587 H2579 0.930 . S
C2587 C2588 1.355 . S
C2587 C2589 1.415 . S
C2588 C2587 1.355 . S
C2588 C2590 1.419 . S
C2589 C2584 1.425 . S
C2589 C2586 1.409 . S
C2589 C2587 1.415 . S
C2590 H2580 0.930 . S
C2590 C2588 1.419 . S
C2590 C2591 1.362 . S
C2591 H2581 0.930 . S
C2591 C2584 1.409 . S
C2591 C2590 1.362 . S
H2592 C2598 0.930 . S
H2593 C2601 0.930 . S
H2594 C2602 0.930 . S
H2595 C2603 0.930 . S
H2596 C2606 0.930 . S
H2597 C2607 0.930 . S
C2598 H2592 0.930 . S
C2598 C2599 1.355 1_655 S
C2598 C2600 1.415 . S
C2599 C2598 1.355 1_455 S
C2599 C2601 1.419 . S
C2600 C2598 1.415 . S
C2600 C2605 1.425 1_655 S
C2600 C2607 1.409 . S
C2601 H2593 0.930 . S
C2601 C2599 1.419 . S
C2601 C2602 1.362 . S
C2602 H2594 0.930 . S
C2602 C2601 1.362 . S
C2602 C2605 1.409 . S
C2603 H2595 0.930 . S
C2603 C2604 1.355 . S
C2603 C2605 1.415 . S
C2604 C2603 1.355 . S
C2604 C2606 1.419 1_455 S
C2605 C2600 1.425 1_455 S
C2605 C2602 1.409 . S
C2605 C2603 1.415 . S
C2606 H2596 0.930 . S
C2606 C2604 1.419 1_655 S
C2606 C2607 1.362 . S
C2607 H2597 0.930 . S
C2607 C2600 1.409 . S
C2607 C2606 1.362 . S
H2608 C2614 0.930 . S
H2609 C2617 0.930 . S
H2610 C2618 0.930 . S
H2611 C2619 0.930 . S
H2612 C2622 0.930 . S
H2613 C2623 0.930 . S
C2614 H2608 0.930 . S
C2614 C2615 1.355 . S
C2614 C2616 1.415 . S
C2615 C2614 1.355 . S
C2615 C2617 1.419 . S
C2616 C2614 1.415 . S
C2616 C2621 1.425 . S
C2616 C2623 1.409 . S
C2617 H2609 0.930 . S
C2617 C2615 1.419 . S
C2617 C2618 1.362 . S
C2618 H2610 0.930 . S
C2618 C2617 1.362 . S
C2618 C2621 1.409 . S
C2619 H2611 0.930 . S
C2619 C2620 1.355 . S
C2619 C2621 1.415 . S
C2620 C2619 1.355 . S
C2620 C2622 1.419 . S
C2621 C2616 1.425 . S
C2621 C2618 1.409 . S
C2621 C2619 1.415 . S
C2622 H2612 0.930 . S
C2622 C2620 1.419 . S
C2622 C2623 1.362 . S
C2623 H2613 0.930 . S
C2623 C2616 1.409 . S
C2623 C2622 1.362 . S
H2624 C2630 0.930 . S
H2625 C2633 0.930 . S
H2626 C2634 0.930 . S
H2627 C2635 0.930 . S
H2628 C2638 0.930 . S
H2629 C2639 0.930 . S
C2630 H2624 0.930 . S
C2630 C2631 1.355 . S
C2630 C2632 1.415 . S
C2631 C2630 1.355 . S
C2631 C2633 1.419 . S
C2632 C2630 1.415 . S
C2632 C2637 1.425 . S
C2632 C2639 1.409 . S
C2633 H2625 0.930 . S
C2633 C2631 1.419 . S
C2633 C2634 1.362 . S
C2634 H2626 0.930 . S
C2634 C2633 1.362 . S
C2634 C2637 1.409 . S
C2635 H2627 0.930 . S
C2635 C2636 1.355 . S
C2635 C2637 1.415 . S
C2636 C2635 1.355 . S
C2636 C2638 1.419 . S
C2637 C2632 1.425 . S
C2637 C2634 1.409 . S
C2637 C2635 1.415 . S
C2638 H2628 0.930 . S
C2638 C2636 1.419 . S
C2638 C2639 1.362 . S
C2639 H2629 0.930 . S
C2639 C2632 1.409 . S
C2639 C2638 1.362 . S
H2640 C2646 0.930 . S
H2641 C2649 0.930 . S
H2642 C2650 0.930 . S
H2643 C2651 0.930 . S
H2644 C2654 0.930 . S
H2645 C2655 0.930 . S
C2646 H2640 0.930 . S
C2646 C2647 1.355 . S
C2646 C2648 1.415 . S
C2647 C2646 1.355 . S
C2647 C2649 1.419 . S
C2648 C2646 1.415 . S
C2648 C2653 1.425 . S
C2648 C2655 1.409 . S
C2649 H2641 0.930 . S
C2649 C2647 1.419 . S
C2649 C2650 1.362 . S
C2650 H2642 0.930 . S
C2650 C2649 1.362 . S
C2650 C2653 1.409 . S
C2651 H2643 0.930 . S
C2651 C2652 1.355 . S
C2651 C2653 1.415 . S
C2652 C2651 1.355 . S
C2652 C2654 1.419 . S
C2653 C2648 1.425 . S
C2653 C2650 1.409 . S
C2653 C2651 1.415 . S
C2654 H2644 0.930 . S
C2654 C2652 1.419 . S
C2654 C2655 1.362 . S
C2655 H2645 0.930 . S
C2655 C2648 1.409 . S
C2655 C2654 1.362 . S
H2656 C2662 0.930 . S
H2657 C2665 0.930 . S
H2658 C2666 0.930 . S
H2659 C2667 0.930 . S
H2660 C2670 0.930 . S
H2661 C2671 0.930 . S
C2662 H2656 0.930 . S
C2662 C2663 1.355 . S
C2662 C2664 1.415 . S
C2663 C2662 1.355 . S
C2663 C2665 1.419 . S
C2664 C2662 1.415 . S
C2664 C2669 1.425 . S
C2664 C2671 1.409 . S
C2665 H2657 0.930 . S
C2665 C2663 1.419 . S
C2665 C2666 1.362 . S
C2666 H2658 0.930 . S
C2666 C2665 1.362 . S
C2666 C2669 1.409 . S
C2667 H2659 0.930 . S
C2667 C2668 1.355 . S
C2667 C2669 1.415 . S
C2668 C2667 1.355 . S
C2668 C2670 1.419 . S
C2669 C2664 1.425 . S
C2669 C2666 1.409 . S
C2669 C2667 1.415 . S
C2670 H2660 0.930 . S
C2670 C2668 1.419 . S
C2670 C2671 1.362 . S
C2671 H2661 0.930 . S
C2671 C2664 1.409 . S
C2671 C2670 1.362 . S
H2672 C2678 0.930 . S
H2673 C2681 0.930 . S
H2674 C2682 0.930 . S
H2675 C2683 0.930 . S
H2676 C2686 0.930 . S
H2677 C2687 0.930 . S
C2678 H2672 0.930 . S
C2678 C2679 1.355 . S
C2678 C2680 1.415 . S
C2679 C2678 1.355 . S
C2679 C2681 1.419 . S
C2680 C2678 1.415 . S
C2680 C2685 1.425 . S
C2680 C2687 1.409 . S
C2681 H2673 0.930 . S
C2681 C2679 1.419 . S
C2681 C2682 1.362 . S
C2682 H2674 0.930 . S
C2682 C2681 1.362 . S
C2682 C2685 1.409 . S
C2683 H2675 0.930 . S
C2683 C2684 1.355 . S
C2683 C2685 1.415 . S
C2684 C2683 1.355 . S
C2684 C2686 1.419 . S
C2685 C2680 1.425 . S
C2685 C2682 1.409 . S
C2685 C2683 1.415 . S
C2686 H2676 0.930 . S
C2686 C2684 1.419 . S
C2686 C2687 1.362 . S
C2687 H2677 0.930 . S
C2687 C2680 1.409 . S
C2687 C2686 1.362 . S
H2688 C2694 0.930 . S
H2689 C2697 0.930 . S
H2690 C2698 0.930 . S
H2691 C2699 0.930 . S
H2692 C2702 0.930 . S
H2693 C2703 0.930 . S
C2694 H2688 0.930 . S
C2694 C2695 1.355 . S
C2694 C2696 1.415 . S
C2695 C2694 1.355 . S
C2695 C2697 1.419 . S
C2696 C2694 1.415 . S
C2696 C2701 1.425 . S
C2696 C2703 1.409 . S
C2697 H2689 0.930 . S
C2697 C2695 1.419 . S
C2697 C2698 1.362 . S
C2698 H2690 0.930 . S
C2698 C2697 1.362 . S
C2698 C2701 1.409 . S
C2699 H2691 0.930 . S
C2699 C2700 1.355 . S
C2699 C2701 1.415 . S
C2700 C2699 1.355 . S
C2700 C2702 1.419 . S
C2701 C2696 1.425 . S
C2701 C2698 1.409 . S
C2701 C2699 1.415 . S
C2702 H2692 0.930 . S
C2702 C2700 1.419 . S
C2702 C2703 1.362 . S
C2703 H2693 0.930 . S
C2703 C2696 1.409 . S
C2703 C2702 1.362 . S
H2704 C2710 0.930 . S
H2705 C2713 0.930 . S
H2706 C2714 0.930 . S
H2707 C2715 0.930 . S
H2708 C2718 0.930 . S
H2709 C2719 0.930 . S
C2710 H2704 0.930 . S
C2710 C2711 1.355 . S
C2710 C2712 1.415 . S
C2711 C2710 1.355 . S
C2711 C2713 1.419 . S
C2712 C2710 1.415 . S
C2712 C2717 1.425 . S
C2712 C2719 1.409 . S
C2713 H2705 0.930 . S
C2713 C2711 1.419 . S
C2713 C2714 1.362 . S
C2714 H2706 0.930 . S
C2714 C2713 1.362 . S
C2714 C2717 1.409 . S
C2715 H2707 0.930 . S
C2715 C2716 1.355 . S
C2715 C2717 1.415 . S
C2716 C2715 1.355 . S
C2716 C2718 1.419 . S
C2717 C2712 1.425 . S
C2717 C2714 1.409 . S
C2717 C2715 1.415 . S
C2718 H2708 0.930 . S
C2718 C2716 1.419 . S
C2718 C2719 1.362 . S
C2719 H2709 0.930 . S
C2719 C2712 1.409 . S
C2719 C2718 1.362 . S
H2720 C2726 0.930 . S
H2721 C2729 0.930 . S
H2722 C2730 0.930 . S
H2723 C2731 0.930 . S
H2724 C2734 0.930 . S
H2725 C2735 0.930 . S
C2726 H2720 0.930 . S
C2726 C2727 1.355 . S
C2726 C2728 1.415 . S
C2727 C2726 1.355 . S
C2727 C2729 1.419 . S
C2728 C2726 1.415 . S
C2728 C2733 1.425 . S
C2728 C2735 1.409 . S
C2729 H2721 0.930 . S
C2729 C2727 1.419 . S
C2729 C2730 1.362 . S
C2730 H2722 0.930 . S
C2730 C2729 1.362 . S
C2730 C2733 1.409 . S
C2731 H2723 0.930 . S
C2731 C2732 1.355 . S
C2731 C2733 1.415 . S
C2732 C2731 1.355 . S
C2732 C2734 1.419 . S
C2733 C2728 1.425 . S
C2733 C2730 1.409 . S
C2733 C2731 1.415 . S
C2734 H2724 0.930 . S
C2734 C2732 1.419 . S
C2734 C2735 1.362 . S
C2735 H2725 0.930 . S
C2735 C2728 1.409 . S
C2735 C2734 1.362 . S
H2736 C2742 0.930 . S
H2737 C2745 0.930 . S
H2738 C2746 0.930 . S
H2739 C2747 0.930 . S
H2740 C2750 0.930 . S
H2741 C2751 0.930 . S
C2742 H2736 0.930 . S
C2742 C2743 1.355 . S
C2742 C2744 1.415 . S
C2743 C2742 1.355 . S
C2743 C2745 1.419 . S
C2744 C2742 1.415 . S
C2744 C2749 1.425 . S
C2744 C2751 1.409 . S
C2745 H2737 0.930 . S
C2745 C2743 1.419 . S
C2745 C2746 1.362 . S
C2746 H2738 0.930 . S
C2746 C2745 1.362 . S
C2746 C2749 1.409 . S
C2747 H2739 0.930 . S
C2747 C2748 1.355 . S
C2747 C2749 1.415 . S
C2748 C2747 1.355 . S
C2748 C2750 1.419 . S
C2749 C2744 1.425 . S
C2749 C2746 1.409 . S
C2749 C2747 1.415 . S
C2750 H2740 0.930 . S
C2750 C2748 1.419 . S
C2750 C2751 1.362 . S
C2751 H2741 0.930 . S
C2751 C2744 1.409 . S
C2751 C2750 1.362 . S
H2752 C2758 0.930 . S
H2753 C2761 0.930 . S
H2754 C2762 0.930 . S
H2755 C2763 0.930 . S
H2756 C2766 0.930 . S
H2757 C2767 0.930 . S
C2758 H2752 0.930 . S
C2758 C2759 1.355 . S
C2758 C2760 1.415 . S
C2759 C2758 1.355 . S
C2759 C2761 1.419 . S
C2760 C2758 1.415 . S
C2760 C2765 1.425 . S
C2760 C2767 1.409 . S
C2761 H2753 0.930 . S
C2761 C2759 1.419 . S
C2761 C2762 1.362 . S
C2762 H2754 0.930 . S
C2762 C2761 1.362 . S
C2762 C2765 1.409 . S
C2763 H2755 0.930 . S
C2763 C2764 1.355 . S
C2763 C2765 1.415 . S
C2764 C2763 1.355 . S
C2764 C2766 1.419 . S
C2765 C2760 1.425 . S
C2765 C2762 1.409 . S
C2765 C2763 1.415 . S
C2766 H2756 0.930 . S
C2766 C2764 1.419 . S
C2766 C2767 1.362 . S
C2767 H2757 0.930 . S
C2767 C2760 1.409 . S
C2767 C2766 1.362 . S
H2768 C2774 0.930 . S
H2769 C2777 0.930 . S
H2770 C2778 0.930 . S
H2771 C2779 0.930 . S
H2772 C2782 0.930 . S
H2773 C2783 0.930 . S
C2774 H2768 0.930 . S
C2774 C2775 1.355 . S
C2774 C2776 1.415 . S
C2775 C2774 1.355 . S
C2775 C2777 1.419 . S
C2776 C2774 1.415 . S
C2776 C2781 1.425 . S
C2776 C2783 1.409 . S
C2777 H2769 0.930 . S
C2777 C2775 1.419 . S
C2777 C2778 1.362 . S
C2778 H2770 0.930 . S
C2778 C2777 1.362 . S
C2778 C2781 1.409 . S
C2779 H2771 0.930 . S
C2779 C2780 1.355 . S
C2779 C2781 1.415 . S
C2780 C2779 1.355 . S
C2780 C2782 1.419 . S
C2781 C2776 1.425 . S
C2781 C2778 1.409 . S
C2781 C2779 1.415 . S
C2782 H2772 0.930 . S
C2782 C2780 1.419 . S
C2782 C2783 1.362 . S
C2783 H2773 0.930 . S
C2783 C2776 1.409 . S
C2783 C2782 1.362 . S
H2784 C2790 0.930 . S
H2785 C2793 0.930 . S
H2786 C2794 0.930 . S
H2787 C2795 0.930 . S
H2788 C2798 0.930 . S
H2789 C2799 0.930 . S
C2790 H2784 0.930 . S
C2790 C2791 1.355 . S
C2790 C2792 1.415 . S
C2791 C2790 1.355 . S
C2791 C2793 1.419 . S
C2792 C2790 1.415 . S
C2792 C2797 1.425 . S
C2792 C2799 1.409 . S
C2793 H2785 0.930 . S
C2793 C2791 1.419 . S
C2793 C2794 1.362 . S
C2794 H2786 0.930 . S
C2794 C2793 1.362 . S
C2794 C2797 1.409 . S
C2795 H2787 0.930 . S
C2795 C2796 1.355 . S
C2795 C2797 1.415 . S
C2796 C2795 1.355 . S
C2796 C2798 1.419 . S
C2797 C2792 1.425 . S
C2797 C2794 1.409 . S
C2797 C2795 1.415 . S
C2798 H2788 0.930 . S
C2798 C2796 1.419 . S
C2798 C2799 1.362 . S
C2799 H2789 0.930 . S
C2799 C2792 1.409 . S
C2799 C2798 1.362 . S
H2800 C2806 0.930 . S
H2801 C2809 0.930 . S
H2802 C2810 0.930 . S
H2803 C2811 0.930 . S
H2804 C2814 0.930 . S
H2805 C2815 0.930 . S
C2806 H2800 0.930 . S
C2806 C2807 1.355 . S
C2806 C2808 1.415 . S
C2807 C2806 1.355 . S
C2807 C2809 1.419 . S
C2808 C2806 1.415 . S
C2808 C2813 1.425 . S
C2808 C2815 1.409 . S
C2809 H2801 0.930 . S
C2809 C2807 1.419 . S
C2809 C2810 1.362 1_565 S
C2810 H2802 0.930 . S
C2810 C2809 1.362 1_545 S
C2810 C2813 1.409 1_545 S
C2811 H2803 0.930 . S
C2811 C2812 1.355 1_545 S
C2811 C2813 1.415 1_545 S
C2812 C2811 1.355 1_565 S
C2812 C2814 1.419 . S
C2813 C2808 1.425 . S
C2813 C2810 1.409 1_565 S
C2813 C2811 1.415 1_565 S
C2814 H2804 0.930 . S
C2814 C2812 1.419 . S
C2814 C2815 1.362 . S
C2815 H2805 0.930 . S
C2815 C2808 1.409 . S
C2815 C2814 1.362 . S
H2816 C2822 0.930 . S
H2817 C2825 0.930 . S
H2818 C2826 0.930 . S
H2819 C2827 0.930 . S
H2820 C2830 0.930 . S
H2821 C2831 0.930 . S
C2822 H2816 0.930 . S
C2822 C2823 1.355 . S
C2822 C2824 1.415 . S
C2823 C2822 1.355 . S
C2823 C2825 1.419 . S
C2824 C2822 1.415 . S
C2824 C2829 1.425 . S
C2824 C2831 1.409 . S
C2825 H2817 0.930 . S
C2825 C2823 1.419 . S
C2825 C2826 1.362 . S
C2826 H2818 0.930 . S
C2826 C2825 1.362 . S
C2826 C2829 1.409 . S
C2827 H2819 0.930 . S
C2827 C2828 1.355 . S
C2827 C2829 1.415 . S
C2828 C2827 1.355 . S
C2828 C2830 1.419 . S
C2829 C2824 1.425 . S
C2829 C2826 1.409 . S
C2829 C2827 1.415 . S
C2830 H2820 0.930 . S
C2830 C2828 1.419 . S
C2830 C2831 1.362 . S
C2831 H2821 0.930 . S
C2831 C2824 1.409 . S
C2831 C2830 1.362 . S
H2832 C2838 0.930 . S
H2833 C2841 0.930 . S
H2834 C2842 0.930 . S
H2835 C2843 0.930 . S
H2836 C2846 0.930 . S
H2837 C2847 0.930 . S
C2838 H2832 0.930 . S
C2838 C2839 1.355 . S
C2838 C2840 1.415 . S
C2839 C2838 1.355 . S
C2839 C2841 1.419 1_554 S
C2840 C2838 1.415 . S
C2840 C2845 1.425 . S
C2840 C2847 1.409 . S
C2841 H2833 0.930 . S
C2841 C2839 1.419 1_556 S
C2841 C2842 1.362 1_556 S
C2842 H2834 0.930 . S
C2842 C2841 1.362 1_554 S
C2842 C2845 1.409 . S
C2843 H2835 0.930 . S
C2843 C2844 1.355 . S
C2843 C2845 1.415 . S
C2844 C2843 1.355 . S
C2844 C2846 1.419 . S
C2845 C2840 1.425 . S
C2845 C2842 1.409 . S
C2845 C2843 1.415 . S
C2846 H2836 0.930 . S
C2846 C2844 1.419 . S
C2846 C2847 1.362 . S
C2847 H2837 0.930 . S
C2847 C2840 1.409 . S
C2847 C2846 1.362 . S
H2848 C2854 0.930 . S
H2849 C2857 0.930 . S
H2850 C2858 0.930 . S
H2851 C2859 0.930 . S
H2852 C2862 0.930 . S
H2853 C2863 0.930 . S
C2854 H2848 0.930 . S
C2854 C2855 1.355 . S
C2854 C2856 1.415 . S
C2855 C2854 1.355 . S
C2855 C2857 1.419 . S
C2856 C2854 1.415 . S
C2856 C2861 1.425 . S
C2856 C2863 1.409 . S
C2857 H2849 0.930 . S
C2857 C2855 1.419 . S
C2857 C2858 1.362 . S
C2858 H2850 0.930 . S
C2858 C2857 1.362 . S
C2858 C2861 1.409 . S
C2859 H2851 0.930 . S
C2859 C2860 1.355 . S
C2859 C2861 1.415 . S
C2860 C2859 1.355 . S
C2860 C2862 1.419 . S
C2861 C2856 1.425 . S
C2861 C2858 1.409 . S
C2861 C2859 1.415 . S
C2862 H2852 0.930 . S
C2862 C2860 1.419 . S
C2862 C2863 1.362 . S
C2863 H2853 0.930 . S
C2863 C2856 1.409 . S
C2863 C2862 1.362 . S
H2864 C2870 0.930 . S
H2865 C2873 0.930 . S
H2866 C2874 0.930 . S
H2867 C2875 0.930 . S
H2868 C2878 0.930 . S
H2869 C2879 0.930 . S
C2870 H2864 0.930 . S
C2870 C2871 1.355 . S
C2870 C2872 1.415 . S
C2871 C2870 1.355 . S
C2871 C2873 1.419 . S
C2872 C2870 1.415 . S
C2872 C2877 1.425 . S
C2872 C2879 1.409 . S
C2873 H2865 0.930 . S
C2873 C2871 1.419 . S
C2873 C2874 1.362 . S
C2874 H2866 0.930 . S
C2874 C2873 1.362 . S
C2874 C2877 1.409 . S
C2875 H2867 0.930 . S
C2875 C2876 1.355 . S
C2875 C2877 1.415 . S
C2876 C2875 1.355 . S
C2876 C2878 1.419 . S
C2877 C2872 1.425 . S
C2877 C2874 1.409 . S
C2877 C2875 1.415 . S
C2878 H2868 0.930 . S
C2878 C2876 1.419 . S
C2878 C2879 1.362 . S
C2879 H2869 0.930 . S
C2879 C2872 1.409 . S
C2879 C2878 1.362 . S
C1356 C865 1.790 . S
C1351 C2 1.803 . S
C1367 C39 0.952 . S
C1372 C910 0.925 . S
C1383 C86 1.566 . S
C1388 C934 1.617 . S
C1404 N960 1.041 . S
C1399 C112 1.017 . S
C1415 C38 1.126 . S
C1420 N990 1.164 . S
C1436 C1024 1.478 . S
C1431 C76 1.521 . S
C1452 C1060 1.144 1_556 S
C1447 C122 1.072 . S
C1463 C3 1.742 . S
C1468 C1084 1.705 . S
C1479 C147 1.007 . S
C1484 N878 0.983 . S
C1495 C184 1.078 . S
C1500 N900 1.120 . S
C1516 C940 1.036 . S
C1511 C219 1.038 . S
C1532 C964 1.769 . S
C1527 C256 1.784 . S
C1543 C148 1.224 . S
C1548 C994 1.194 . S
C1564 C1030 1.125 . S
C1559 C183 1.109 . S
C1580 N1050 1.137 . S
C1575 C220 1.130 . S
C1596 C1090 1.739 . S
C1591 C255 1.748 . S
C1612 C891 1.729 . S
C1607 C254 1.730 . S
C1628 C1120 1.025 . S
C1623 C302 1.054 . S
C1639 C326 1.172 . S
C1644 N1140 1.167 . S
C1660 C1174 1.626 . S
C1655 C374 1.609 . S
C1671 C146 0.964 . S
C1676 N1080 0.988 . S
C1692 N930 1.106 1_565 S
C1687 C182 1.110 . S
C1703 C338 1.071 . S
C1708 C1210 1.073 . S
C1724 C1234 1.006 . S
C1719 C410 1.102 . S
C1735 C434 1.863 . S
C1740 C874 1.854 1_556 S
C1756 C1251 0.977 . S
C1751 C472 0.981 . S
C1767 C507 1.648 . S
C1772 C925 1.610 . S
C1783 C543 1.091 . S
C1788 N1208 1.079 . S
C1804 N998 1.185 . S
C1799 C470 1.158 . S
C1820 C1135 1.607 . S
C1815 C518 1.583 . S
C1836 C1071 1.150 . S
C1831 C554 1.116 . S
C1852 C1255 1.725 . S
C1847 C436 1.748 . S
C1868 N870 1.004 . S
C1863 C580 1.012 . S
C1879 C615 1.145 . S
C1884 N1238 1.153 . S
C1900 C951 1.037 . S
C1895 C652 1.080 . S
C1911 C687 1.810 . S
C1916 C1195 1.769 . S
C1927 C579 1.237 . S
C1932 C985 1.201 1_655 S
C1943 C616 1.167 . S
C1948 C1161 1.166 . S
C1964 N1058 1.136 . S
C1959 C651 1.140 . S
C1975 C688 1.762 . S
C1980 C1281 1.723 . S
C1991 C686 1.780 . S
C1996 C880 1.744 . S
C2007 C734 1.096 1_554 S
C2012 C1131 1.097 . S
C2023 C758 1.142 . S
C2028 N1028 1.162 . S
C2039 C806 1.594 . S
C2044 C1165 1.640 . S
C2060 N1268 0.986 . S
C2055 C578 0.971 . S
C2076 N938 1.163 . S
C2071 C614 1.156 . S
C2092 C981 1.117 . S
C2087 C770 1.107 . S
C2108 C895 1.027 . S
C2103 C842 0.970 . S
C2119 C74 1.759 . S
C2124 C1285 1.710 . S
C2140 C1240 0.968 . S
C2135 C111 0.948 . S
C2156 C1324 1.669 . S
C2151 C14 1.630 . S
C2167 C40 1.068 1_655 S
C2172 N1200 1.060 . S
C2183 C110 1.142 . S
C2188 N1110 1.143 1_556 S
C2204 C1144 1.563 . S
C2199 C4 1.593 . S
C2220 C1180 1.139 . S
C2215 C50 1.122 . S
C2236 C1264 1.673 . S
C2231 C75 1.705 . S
C2252 N1298 0.990 . S
C2247 C399 0.994 . S
C2263 C292 1.077 1_556 S
C2268 N1230 1.120 . S
C2279 C327 1.048 . S
C2284 C1330 1.062 1_655 S
C2300 C1204 1.759 . S
C2295 C364 1.784 . S
C2316 C1114 1.222 . S
C2311 C400 1.232 . S
C2327 C291 1.110 . S
C2332 C1150 1.088 . S
C2348 N1170 1.139 . S
C2343 C328 1.144 . S
C2359 C363 1.728 . S
C2364 C1270 1.704 . S
C2380 C1311 1.706 . S
C2375 C362 1.718 . S
C2396 C1000 1.043 . S
C2391 C194 1.051 . S
C2412 N1020 1.136 . S
C2407 C218 1.138 . S
C2423 C266 1.634 . S
C2428 C1054 1.581 . S
C2444 N1260 0.967 . S
C2439 C398 0.945 . S
C2455 C290 1.132 . S
C2460 N1320 1.143 . S
C2476 C970 1.082 . S
C2471 C230 0.983 . S
C2492 C904 1.077 . S
C2487 C158 1.074 . S
C2503 C508 1.762 . S
C2508 C1294 1.746 . S
C2524 C921 1.001 . S
C2519 C544 0.999 . S
C2540 C1315 1.695 1_556 S
C2535 C446 1.650 . S
C2551 C471 1.095 . S
C2556 N968 1.080 . S
C2567 C542 1.159 . S
C2572 N1118 1.184 . S
C2583 C435 1.562 . S
C2588 C1015 1.529 . S
C2599 C482 1.178 1_455 S
C2604 C1191 1.179 . S
C2615 C506 1.835 . S
C2620 C1075 1.813 . S
C2636 N1290 1.005 . S
C2631 C832 1.021 . S
C2647 C723 1.171 . S
C2652 N908 1.164 . S
C2668 C1341 1.104 . S
C2663 C760 1.073 . S
C2679 C795 1.815 . S
C2684 C955 1.769 . S
C2695 C831 1.262 . S
C2700 C1105 1.255 . S
C2716 C1041 1.169 . S
C2711 C724 1.144 . S
C2727 C759 1.168 . S
C2732 N1178 1.157 . S
C2748 C1101 1.762 . S
C2743 C796 1.794 . S
C2764 C1300 1.771 . S
C2759 C794 1.765 . S
C2780 C1011 1.075 . S
C2775 C626 1.039 . S
C2791 C650 1.172 . S
C2796 N1148 1.173 . S
C2812 C1045 1.640 1_565 S
C2807 C698 1.591 . S
C2828 N1088 1.020 . S
C2823 C830 1.022 . S
C2839 C722 1.163 . S
C2844 N1328 1.165 . S
C2860 C1221 1.108 . S
C2855 C662 1.105 . S
C2876 C1225 1.124 . S
C2871 C590 1.114 . S
