# Generated by pormake.
# Topology nia, (6,6)-cn, num edge types: 1
# Building blocks:
#     Node 0, Type 0, BuildingBlock: FUNLAD_clean_sbu_0, # of connection points: 6
#     Node 1, Type 0, BuildingBlock: FUNLAD_clean_sbu_0, # of connection points: 6
#     Node 2, Type 1, BuildingBlock: MIDCAF_clean_sbu_0, # of connection points: 6
#     Node 3, Type 1, BuildingBlock: MIDCAF_clean_sbu_0, # of connection points: 6
#     Edge 4, Type (0, 1), BuildingBlock: UVAHIK_clean_linker_0, # of connection points: 2
#     Edge 5, Type (0, 1), BuildingBlock: UVAHIK_clean_linker_0, # of connection points: 2
#     Edge 6, Type (0, 1), BuildingBlock: UVAHIK_clean_linker_0, # of connection points: 2
#     Edge 7, Type (0, 1), BuildingBlock: UVAHIK_clean_linker_0, # of connection points: 2
#     Edge 8, Type (0, 1), BuildingBlock: UVAHIK_clean_linker_0, # of connection points: 2
#     Edge 9, Type (0, 1), BuildingBlock: UVAHIK_clean_linker_0, # of connection points: 2
#     Edge 10, Type (0, 1), BuildingBlock: UVAHIK_clean_linker_0, # of connection points: 2
#     Edge 11, Type (0, 1), BuildingBlock: UVAHIK_clean_linker_0, # of connection points: 2
#     Edge 12, Type (0, 1), BuildingBlock: UVAHIK_clean_linker_0, # of connection points: 2
#     Edge 13, Type (0, 1), BuildingBlock: UVAHIK_clean_linker_0, # of connection points: 2
#     Edge 14, Type (0, 1), BuildingBlock: UVAHIK_clean_linker_0, # of connection points: 2
#     Edge 15, Type (0, 1), BuildingBlock: UVAHIK_clean_linker_0, # of connection points: 2
# Relax obj value: 0.135
# Max RMSD: 0.241
# Mean RMSD: 0.139
data_MOF--net-nia--node1-FUNLAD_clean_sbu_0--node2-MIDCAF_clean_sbu_0--edge1-UVAHIK_clean_linker_0
_symmetry_space_group_name_H-M    P1
_symmetry_Int_Tables_number       1
_symmetry_cell_setting            triclinic
loop_
_symmetry_equiv_pos_as_xyz
'x, y, z'
_cell_length_a     30.09341
_cell_length_b     29.985634
_cell_length_c     45.998864
_cell_angle_alpha  94.666089
_cell_angle_beta   95.740914
_cell_angle_gamma 118.18301
loop_
_atom_site_label
_atom_site_type_symbol
_atom_site_fract_x
_atom_site_fract_y
_atom_site_fract_z
_atom_type_partial_charge
C0 C 0.05591 0.98512 0.06258 0.0
N1 N 0.10178 0.06695 0.99157 0.0
C2 C 0.14961 0.09911 0.00636 0.0
C3 C 0.1902 0.12302 0.99074 0.0
C4 C 0.18128 0.11326 0.95972 0.0
C5 C 0.13171 0.07942 0.94516 0.0
C6 C 0.09238 0.05677 0.96155 0.0
Zn7 Zn 0.04054 0.03468 0.01304 0.0
C8 C 0.97011 0.92646 0.98559 0.0
N9 N 0.90785 0.96679 0.05405 0.0
C10 C 0.91571 0.97673 0.08405 0.0
C11 C 0.86021 0.93654 0.03848 0.0
C12 C 0.81806 0.91508 0.0532 0.0
C13 C 0.82512 0.92516 0.08417 0.0
C14 C 0.87475 0.95631 0.0996 0.0
Zn15 Zn 0.96985 -0.00121 0.03306 0.0
O16 O 0.079 0.00961 0.04267 0.0
C17 C 0.0407 0.10719 0.06063 0.0
O18 O 0.01043 0.97609 0.06385 0.0
H19 H 0.85489 0.92922 0.01463 0.0
H20 H 0.15615 0.10669 0.03023 0.0
H21 H 0.95391 0.00061 0.09602 0.0
O22 O 0.06816 0.10356 0.0423 0.0
O23 O -0.00292 0.0693 0.06103 0.0
H24 H 0.05402 0.03165 0.95015 0.0
O25 O 0.93028 0.02153 0.00165 0.0
O26 O 0.00146 0.05893 0.98335 0.0
O27 O 0.9434 0.92875 0.0048 0.0
O28 O 0.01235 0.96548 0.98434 0.0
C29 C 0.95498 0.04738 0.9826 0.0
H30 H 0.22809 0.1487 0.00274 0.0
H31 H 0.12313 0.0715 0.92127 0.0
H32 H 0.78031 0.89158 0.04049 0.0
H33 H 0.88194 0.96443 0.12349 0.0
C34 C 0.05551 0.98891 0.48858 0.0
N35 N 0.98102 0.94311 0.56145 0.0
C36 C 0.96017 0.89451 0.5471 0.0
C37 C 0.94276 0.85312 0.56277 0.0
C38 C 0.94633 0.8615 0.59361 0.0
C39 C 0.96892 0.91217 0.60798 0.0
C40 C 0.9861 0.95262 0.59138 0.0
Zn41 Zn 0.00198 0.00101 0.53627 0.0
C42 C 0.10668 0.08895 0.55975 0.0
N43 N 0.04343 0.11984 0.48239 0.0
C44 C 0.03227 0.10077 0.45314 0.0
C45 C 0.06533 0.17103 0.49156 0.0
C46 C 0.07685 0.20509 0.47078 0.0
C47 C 0.06561 0.18605 0.44041 0.0
C48 C 0.0432 0.13313 0.43184 0.0
Zn49 Zn 0.02492 0.06588 0.51025 0.0
O50 O 0.03459 0.96655 0.50963 0.0
C51 C 0.92101 0.97788 0.48636 0.0
O52 O 0.05684 0.03078 0.48457 0.0
H53 H 0.07382 0.18539 0.51491 0.0
H54 H 0.95642 0.88766 0.52331 0.0
H55 H 0.01495 0.06007 0.44609 0.0
O56 O 0.93079 0.95817 0.50782 0.0
O57 O 0.95361 0.02247 0.48278 0.0
H58 H 0.00272 0.99156 0.60234 0.0
O59 O -0.00768 0.10032 0.53647 0.0
O60 O 0.9695 0.03645 0.56226 0.0
O61 O 0.09651 0.10845 0.53818 0.0
O62 O 0.07367 0.04483 0.56422 0.0
C63 C 0.97054 0.07812 0.55743 0.0
H64 H 0.92655 0.81487 0.55078 0.0
H65 H 0.97209 0.92043 0.63168 0.0
H66 H 0.09391 0.24569 0.47836 0.0
H67 H 0.03487 0.11668 0.40881 0.0
Zn68 Zn 0.31372 0.70521 0.18631 0.0
Zn69 Zn 0.31871 0.68421 0.32906 0.0
Zn70 Zn 0.32069 0.70074 0.27691 0.0
C71 C 0.41932 0.72173 0.32285 0.0
C72 C 0.25242 0.59195 0.29175 0.0
O73 O 0.28705 0.75024 0.26789 0.0
O74 O 0.30544 0.72962 0.22693 0.0
C75 C 0.39754 0.7408 0.2418 0.0
O76 O 0.40092 0.72921 0.29833 0.0
O77 O 0.38977 0.69762 0.34037 0.0
O78 O 0.26292 0.6125 0.31837 0.0
O79 O 0.27346 0.61854 0.27176 0.0
O80 O 0.35336 0.72537 0.22779 0.0
O81 O 0.39972 0.7382 0.26934 0.0
O82 O 0.28052 0.63098 0.24054 0.0
O83 O 0.27591 0.62949 0.19044 0.0
C84 C 0.26575 0.60716 0.21346 0.0
O85 O 0.28525 0.74299 0.29727 0.0
O86 O 0.30113 0.73672 0.34432 0.0
C87 C 0.2862 0.75305 0.24039 0.0
C88 C 0.28419 0.75432 0.32471 0.0
Zn89 Zn 0.70966 0.3431 0.83018 0.0
Zn90 Zn 0.67432 0.33074 0.67453 0.0
Zn91 Zn 0.69653 0.33669 0.77758 0.0
C92 C 0.73361 0.41006 0.73511 0.0
C93 C 0.61002 0.3061 0.72952 0.0
O94 O 0.72549 0.28273 0.78535 0.0
O95 O 0.7149 0.27979 0.83206 0.0
C96 C 0.77868 0.43792 0.81959 0.0
O97 O 0.73974 0.41062 0.7631 0.0
O98 O 0.70419 0.36658 0.71932 0.0
O99 O 0.64954 0.32104 0.71672 0.0
O100 O 0.61742 0.30809 0.75762 0.0
O101 O 0.77276 0.41056 0.83986 0.0
O102 O 0.75082 0.41795 0.79405 0.0
O103 O 0.6199 0.31241 0.78863 0.0
O104 O 0.64417 0.34086 0.8364 0.0
C105 C 0.60953 0.32185 0.8141 0.0
O106 O 0.72076 0.28755 0.75493 0.0
O107 O 0.69566 0.31098 0.71561 0.0
C108 C 0.7256 0.26313 0.80919 0.0
C109 C 0.71614 0.28598 0.72682 0.0
C110 C 0.06019 0.94703 0.10866 0.0
C111 C 0.08091 0.96551 0.08332 0.0
C112 C 0.08258 0.92622 0.12744 0.0
C113 C 0.15714 0.86 0.12629 0.0
H114 H 0.19145 0.90081 0.2112 0.0
C115 C 0.2748 0.79185 0.1964 0.0
C116 C 0.26325 0.77996 0.22452 0.0
C117 C 0.25245 0.81576 0.18052 0.0
C118 C 0.18139 0.88837 0.18758 0.0
H119 H 0.14173 0.97733 0.05804 0.0
H120 H 0.18014 0.94016 0.09054 0.0
H121 H 0.15208 0.9403 0.18109 0.0
H122 H 0.22005 0.78475 0.25834 0.0
H123 H 0.17929 0.82506 0.23022 0.0
H124 H 0.18478 0.8072 0.13244 0.0
C125 C 0.14671 0.94196 0.09588 0.0
C126 C 0.15908 0.91119 0.17038 0.0
C127 C 0.12485 0.96343 0.07738 0.0
C128 C 0.22949 0.79334 0.2367 0.0
C129 C 0.20642 0.81672 0.22061 0.0
C130 C 0.17869 0.83672 0.14344 0.0
C131 C 0.12557 0.92279 0.12094 0.0
C132 C 0.14744 0.89767 0.13953 0.0
C133 C 0.21727 0.82777 0.19214 0.0
C134 C 0.19189 0.85111 0.17428 0.0
H135 H 0.02643 0.94827 0.11387 0.0
H136 H 0.06546 0.9115 0.14657 0.0
H137 H 0.14763 0.84821 0.1026 0.0
H138 H 0.30147 0.78293 0.18662 0.0
H139 H 0.26303 0.82499 0.1591 0.0
C140 C 0.19895 0.15633 0.5694 0.0
C141 C 0.15734 0.11603 0.57873 0.0
C142 C 0.24765 0.17916 0.58632 0.0
C143 C 0.32308 0.15432 0.64579 0.0
H144 H 0.41947 0.29809 0.64861 0.0
C145 C 0.51494 0.25712 0.72518 0.0
C146 C 0.55839 0.2869 0.71266 0.0
C147 C 0.46605 0.23786 0.70917 0.0
C148 C 0.39299 0.25781 0.64785 0.0
H149 H 0.13375 0.06954 0.61374 0.0
H150 H 0.21794 0.11047 0.64375 0.0
H151 H 0.33352 0.26245 0.6209 0.0
H152 H 0.58473 0.32078 0.67366 0.0
H153 H 0.49904 0.28755 0.64569 0.0
H154 H 0.3824 0.15014 0.67329 0.0
C155 C 0.21361 0.12344 0.62289 0.0
C156 C 0.34375 0.23726 0.6319 0.0
C157 C 0.16513 0.10018 0.60579 0.0
C158 C 0.55195 0.2977 0.68386 0.0
C159 C 0.50295 0.279 0.66793 0.0
C160 C 0.37201 0.17502 0.66203 0.0
C161 C 0.25578 0.16267 0.61318 0.0
C162 C 0.3081 0.18515 0.63059 0.0
C163 C 0.45952 0.24851 0.68036 0.0
C164 C 0.40752 0.22692 0.66318 0.0
H165 H 0.19426 0.16924 0.54856 0.0
H166 H 0.27913 0.20874 0.57786 0.0
H167 H 0.29733 0.11383 0.64481 0.0
H168 H 0.51872 0.24791 0.74719 0.0
H169 H 0.43328 0.21479 0.7194 0.0
C170 C 0.02715 0.1618 0.09914 0.0
C171 C 0.05985 0.15443 0.0819 0.0
C172 C 0.04559 0.20625 0.11951 0.0
C173 C 0.16399 0.31122 0.16284 0.0
H174 H 0.09354 0.391 0.15881 0.0
C175 C 0.26609 0.52722 0.19654 0.0
C176 C 0.2404 0.55118 0.20842 0.0
C177 C 0.24102 0.47444 0.18806 0.0
C178 C 0.1131 0.3687 0.16082 0.0
H179 H 0.13759 0.18759 0.07275 0.0
H180 H 0.16971 0.26491 0.10835 0.0
H181 H 0.05467 0.30602 0.12988 0.0
H182 H 0.16912 0.53979 0.22145 0.0
H183 H 0.12462 0.44651 0.20666 0.0
H184 H 0.22294 0.37417 0.19322 0.0
C185 C 0.1299 0.23624 0.10619 0.0
C186 C 0.0909 0.3201 0.14412 0.0
C187 C 0.11139 0.19217 0.08561 0.0
C188 C 0.18955 0.52166 0.21247 0.0
C189 C 0.1642 0.46856 0.20387 0.0
C190 C 0.18598 0.35956 0.17969 0.0
C191 C 0.09721 0.24377 0.12331 0.0
C192 C 0.11697 0.29169 0.14422 0.0
C193 C 0.18948 0.44453 0.19105 0.0
C194 C 0.16167 0.38964 0.17803 0.0
H195 H 0.98724 0.13335 0.09682 0.0
H196 H 0.01962 0.21109 0.13247 0.0
H197 H 0.18442 0.28963 0.16376 0.0
H198 H 0.30525 0.54963 0.19301 0.0
H199 H 0.26142 0.45748 0.17778 0.0
C200 C 0.92696 0.07897 0.60096 0.0
C201 C 0.94501 0.09944 0.57545 0.0
C202 C 0.90113 0.09774 0.6174 0.0
C203 C 0.82531 0.16382 0.61096 0.0
H204 H 0.85907 0.1944 0.69633 0.0
C205 C 0.74731 0.2723 0.68033 0.0
C206 C 0.73663 0.25952 0.70845 0.0
C207 C 0.77049 0.25038 0.66384 0.0
C208 C 0.8485 0.18527 0.67255 0.0
H209 H 0.95034 0.1559 0.54732 0.0
H210 H 0.90495 0.18842 0.57599 0.0
H211 H 0.90475 0.16151 0.66838 0.0
H212 H 0.73958 0.21203 0.74079 0.0
H213 H 0.77916 0.17288 0.71186 0.0
H214 H 0.76864 0.18683 0.615 0.0
C215 C 0.91068 0.15773 0.58316 0.0
C216 C 0.87489 0.16663 0.65654 0.0
C217 C 0.93697 0.13934 0.56687 0.0
C218 C 0.74816 0.22321 0.71939 0.0
C219 C 0.771 0.20093 0.70282 0.0
C220 C 0.79859 0.18201 0.62696 0.0
C221 C 0.89235 0.13701 0.60853 0.0
C222 C 0.86382 0.15606 0.62557 0.0
C223 C 0.78312 0.21476 0.67498 0.0
C224 C 0.81007 0.19334 0.65797 0.0
H225 H 0.93253 0.04822 0.60818 0.0
H226 H 0.88713 0.0808 0.63674 0.0
H227 H 0.8154 0.15523 0.58712 0.0
H228 H 0.73929 0.30053 0.67141 0.0
H229 H 0.77988 0.26258 0.64272 0.0
C230 C 0.74254 0.85257 0.09279 0.0
C231 C 0.78116 0.90371 0.10045 0.0
C232 C 0.70171 0.8323 0.1086 0.0
C233 C 0.66249 0.85493 0.17977 0.0
H234 H 0.52581 0.76632 0.13724 0.0
C235 C 0.4403 0.77263 0.19858 0.0
C236 C 0.44233 0.75747 0.22653 0.0
C237 C 0.4821 0.78813 0.18364 0.0
C238 C 0.56372 0.79122 0.14944 0.0
H239 H 0.80668 0.97406 0.1302 0.0
H240 H 0.73525 0.93897 0.15754 0.0
H241 H 0.59779 0.79869 0.11024 0.0
H242 H 0.48902 0.7453 0.2605 0.0
H243 H 0.5625 0.77257 0.23441 0.0
H244 H 0.62812 0.84885 0.21884 0.0
C245 C 0.73705 0.9141 0.1398 0.0
C246 C 0.60506 0.80927 0.134 0.0
C247 C 0.77791 0.93427 0.12408 0.0
C248 C 0.48691 0.75787 0.23927 0.0
C249 C 0.52884 0.77332 0.22427 0.0
C250 C 0.6211 0.83696 0.19521 0.0
C251 C 0.69854 0.86284 0.13232 0.0
C252 C 0.65488 0.84175 0.14893 0.0
C253 C 0.52683 0.78854 0.19624 0.0
C254 C 0.57118 0.80535 0.18017 0.0
H255 H 0.74436 0.82794 0.07491 0.0
H256 H 0.67299 0.7925 0.1025 0.0
H257 H 0.70048 0.8793 0.192 0.0
H258 H 0.40655 0.7731 0.18833 0.0
H259 H 0.47959 0.80053 0.16236 0.0
C260 C 0.87936 0.77298 0.59847 0.0
C261 C 0.92536 0.81739 0.61034 0.0
C262 C 0.85983 0.73092 0.61362 0.0
C263 C 0.89706 0.67124 0.67171 0.0
H264 H 0.75057 0.59145 0.66878 0.0
C265 C 0.80123 0.50111 0.73729 0.0
C266 C 0.75817 0.4573 0.72168 0.0
C267 C 0.82305 0.54641 0.72493 0.0
C268 C 0.79154 0.61314 0.66962 0.0
H269 H 0.98672 0.85236 0.64769 0.0
H270 H 0.95186 0.77918 0.67457 0.0
H271 H 0.7856 0.66889 0.64581 0.0
H272 H 0.70462 0.42614 0.68076 0.0
H273 H 0.74275 0.50502 0.65912 0.0
H274 H 0.90271 0.61528 0.69572 0.0
C275 C 0.93134 0.77673 0.65325 0.0
C276 C 0.81166 0.65751 0.65642 0.0
C277 C 0.95102 0.8189 0.638 0.0
C278 C 0.73784 0.4593 0.6933 0.0
C279 C 0.75938 0.5046 0.68102 0.0
C280 C 0.87689 0.62693 0.6851 0.0
C281 C 0.88552 0.73217 0.64119 0.0
C282 C 0.86461 0.68676 0.65692 0.0
C283 C 0.80198 0.54876 0.69678 0.0
C284 C 0.82386 0.59707 0.68383 0.0
H285 H 0.85813 0.7707 0.57744 0.0
H286 H 0.82483 0.69707 0.60344 0.0
H287 H 0.93797 0.6925 0.67224 0.0
H288 H 0.81819 0.50033 0.75899 0.0
H289 H 0.8558 0.57984 0.73761 0.0
C290 C 0.07313 0.9184 0.4707 0.0
C291 C 0.07727 0.96658 0.46834 0.0
C292 C 0.09326 0.8975 0.45103 0.0
C293 C 0.19037 0.93481 0.4024 0.0
H294 H 0.11752 0.79079 0.36989 0.0
C295 C 0.21441 0.77713 0.32031 0.0
C296 C 0.26254 0.78691 0.33395 0.0
C297 C 0.19063 0.80306 0.33232 0.0
C298 C 0.13796 0.83125 0.37842 0.0
H299 H 0.10535 0.03042 0.44337 0.0
H300 H 0.14039 -0.00604 0.40927 0.0
H301 H 0.07658 0.82668 0.40021 0.0
H302 H 0.32448 0.83187 0.36999 0.0
H303 H 0.28343 0.87754 0.39083 0.0
H304 H 0.25206 0.93922 0.38106 0.0
C305 C 0.12197 0.97253 0.42639 0.0
C306 C 0.11482 0.85159 0.39608 0.0
C307 C 0.10175 0.99331 0.44591 0.0
C308 C 0.28747 0.82414 0.35901 0.0
C309 C 0.26408 0.85038 0.37081 0.0
C310 C 0.21358 0.91442 0.3849 0.0
C311 C 0.11805 0.9245 0.42876 0.0
C312 C 0.14112 0.9034 0.4086 0.0
C313 C 0.21494 0.83926 0.35801 0.0
C314 C 0.18794 0.86228 0.37316 0.0
H315 H 0.05437 0.89685 0.48769 0.0
H316 H 0.09023 0.86061 0.45357 0.0
H317 H 0.21168 0.97483 0.41188 0.0
H318 H 0.19402 0.74747 0.30145 0.0
H319 H 0.15273 0.79383 0.32204 0.0
C320 C 0.22776 0.11104 0.91797 0.0
C321 C 0.22289 0.1389 0.94235 0.0
C322 C 0.26561 0.13544 0.90078 0.0
C323 C 0.3896 0.25043 0.90369 0.0
H324 H 0.36372 0.21025 0.81875 0.0
C325 C 0.54972 0.34357 0.83658 0.0
C326 C 0.55745 0.30865 0.81856 0.0
C327 C 0.50356 0.32792 0.84711 0.0
C328 C 0.3714 0.22185 0.84244 0.0
H329 H 0.25326 0.21415 0.96768 0.0
H330 H 0.31938 0.257 0.93755 0.0
H331 H 0.29379 0.17275 0.84734 0.0
H332 H 0.52317 0.23077 0.79652 0.0
H333 H 0.44199 0.20305 0.81486 0.0
H334 H 0.46718 0.29864 0.89903 0.0
C335 C 0.29441 0.21613 0.93197 0.0
C336 C 0.33151 0.20029 0.85882 0.0
C337 C 0.25669 0.19164 0.94927 0.0
C338 C 0.51736 0.25866 0.80966 0.0
C339 C 0.4711 0.24282 0.82034 0.0
C340 C 0.4293 0.27206 0.88734 0.0
C341 C 0.29927 0.18829 0.90752 0.0
C342 C 0.3404 0.2138 0.8897 0.0
C343 C 0.46462 0.27681 0.84017 0.0
C344 C 0.42082 0.25755 0.85661 0.0
H345 H 0.20255 0.0702 0.91235 0.0
H346 H 0.269 0.11269 0.88249 0.0
H347 H 0.39798 0.26106 0.92746 0.0
H348 H 0.58038 0.38232 0.84376 0.0
H349 H 0.49931 0.35515 0.86194 0.0
C350 C 0.12413 0.26664 0.42161 0.0
C351 C 0.07795 0.22047 0.41749 0.0
C352 C 0.13723 0.29693 0.39906 0.0
C353 C 0.16971 0.34039 0.34322 0.0
H354 H 0.06769 0.36367 0.29918 0.0
C355 C 0.23572 0.50343 0.27618 0.0
C356 C 0.21762 0.53678 0.2853 0.0
C357 C 0.20986 0.45215 0.28052 0.0
C358 C 0.09657 0.35719 0.31105 0.0
H359 H 0.00843 0.17091 0.38673 0.0
H360 H 0.03191 0.22295 0.34722 0.0
H361 H 0.04227 0.30184 0.33369 0.0
H362 H 0.1565 0.5427 0.30308 0.0
H363 H 0.11165 0.45414 0.31087 0.0
H364 H 0.22461 0.39849 0.32244 0.0
C365 C 0.05794 0.23596 0.3679 0.0
C366 C 0.08196 0.32149 0.33076 0.0
C367 C 0.04471 0.20588 0.3905 0.0
C368 C 0.17081 0.51732 0.29573 0.0
C369 C 0.14505 0.46637 0.30008 0.0
C370 C 0.18437 0.37635 0.32374 0.0
C371 C 0.10457 0.28166 0.3718 0.0
C372 C 0.1187 0.31413 0.34791 0.0
C373 C 0.16601 0.43402 0.29434 0.0
C374 C 0.14829 0.38671 0.30831 0.0
H375 H 0.15076 0.27885 0.44201 0.0
H376 H 0.17295 0.3325 0.40309 0.0
H377 H 0.19877 0.3346 0.35546 0.0
H378 H 0.27205 0.51793 0.26825 0.0
H379 H 0.22639 0.42788 0.27527 0.0
C380 C 0.95792 0.08843 0.93717 0.0
C381 C 0.9301 0.06232 0.95881 0.0
C382 C 0.93482 0.10171 0.91415 0.0
C383 C 0.80904 0.07348 0.87442 0.0
H384 H 0.88396 0.21153 0.8563 0.0
C385 C 0.71523 0.18499 0.82867 0.0
C386 C 0.7407 0.2234 0.81157 0.0
C387 C 0.73636 0.15523 0.83826 0.0
C388 C 0.86289 0.17239 0.86043 0.0
H389 H 0.85596 0.02932 0.97307 0.0
H390 H 0.81572 0.05346 0.93308 0.0
H391 H 0.92539 0.1809 0.89124 0.0
H392 H 0.80619 0.25864 0.78915 0.0
H393 H 0.84357 0.2062 0.80591 0.0
H394 H 0.74586 0.06583 0.84437 0.0
C395 C 0.85531 0.06293 0.93373 0.0
C396 C 0.8866 0.15489 0.88064 0.0
C397 C 0.87847 0.04954 0.95681 0.0
C398 C 0.78568 0.22887 0.80212 0.0
C399 C 0.80723 0.19927 0.81197 0.0
C400 C 0.78531 0.091 0.85416 0.0
C401 C 0.88331 0.08931 0.91219 0.0
C402 C 0.85954 0.10572 0.88847 0.0
C403 C 0.7838 0.16366 0.8312 0.0
C404 C 0.81153 0.14118 0.84758 0.0
H405 H -0.00231 0.09849 0.93785 0.0
H406 H 0.9573 0.12146 0.89776 0.0
H407 H 0.78752 0.03502 0.87951 0.0
H408 H 0.68049 0.18021 0.83627 0.0
H409 H 0.71745 0.12857 0.8532 0.0
C410 C 0.8356 0.9003 0.46906 0.0
C411 C 0.87267 0.94953 0.46542 0.0
C412 C 0.78988 0.87404 0.44921 0.0
C413 C 0.70551 0.89668 0.39617 0.0
H414 H 0.64228 0.75042 0.37118 0.0
C415 C 0.50987 0.78707 0.32137 0.0
C416 C 0.47481 0.74295 0.33167 0.0
C417 C 0.56188 0.81044 0.33283 0.0
C418 C 0.65948 0.79128 0.37799 0.0
H419 H 0.89128 0.00939 0.43777 0.0
H420 H 0.8118 0.9635 0.40321 0.0
H421 H 0.72667 0.79526 0.4015 0.0
H422 H 0.46671 0.68746 0.36105 0.0
H423 H 0.55695 0.72833 0.38121 0.0
H424 H 0.63792 0.89262 0.37337 0.0
C425 C 0.81772 0.94545 0.42157 0.0
C426 C 0.70769 0.8169 0.39542 0.0
C427 C 0.86335 0.97166 0.44136 0.0
C428 C 0.49288 0.7215 0.35271 0.0
C429 C 0.54469 0.7447 0.36408 0.0
C430 C 0.65733 0.87108 0.37877 0.0
C431 C 0.78034 0.89649 0.42535 0.0
C432 C 0.73084 0.86973 0.40511 0.0
C433 C 0.57965 0.79005 0.35478 0.0
C434 C 0.63338 0.81795 0.36994 0.0
H435 H 0.84168 0.88219 0.48734 0.0
H436 H 0.76153 0.83661 0.45293 0.0
H437 H 0.72204 0.9373 0.40356 0.0
H438 H 0.49693 0.80475 0.30541 0.0
H439 H 0.58801 0.84514 0.32505 0.0
C440 C 0.90955 0.83358 0.96819 0.0
C441 C 0.95275 0.87904 0.96488 0.0
C442 C 0.89447 0.78849 0.94914 0.0
C443 C 0.90577 0.73715 0.87647 0.0
H444 H 0.87336 0.61566 0.91308 0.0
C445 C 0.85457 0.51176 0.84993 0.0
C446 C 0.81285 0.49342 0.82714 0.0
C447 C 0.8793 0.56285 0.86284 0.0
C448 C 0.88291 0.64936 0.90251 0.0
H449 H 0.01317 0.91326 0.93845 0.0
H450 H 0.98669 0.83442 0.90525 0.0
H451 H 0.89838 0.69617 0.94378 0.0
H452 H 0.76667 0.5146 0.79833 0.0
H453 H 0.8099 0.60429 0.82106 0.0
H454 H 0.88982 0.68973 0.83506 0.0
C455 C 0.96451 0.83376 0.92253 0.0
C456 C 0.89651 0.69529 0.92008 0.0
C457 C 0.97982 0.87877 0.94169 0.0
C458 C 0.79907 0.52796 0.81572 0.0
C459 C 0.82375 0.57924 0.82877 0.0
C460 C 0.8917 0.69087 0.85877 0.0
C461 C 0.92208 0.78806 0.9263 0.0
C462 C 0.90783 0.73959 0.90728 0.0
C463 C 0.86241 0.59645 0.85341 0.0
C464 C 0.88019 0.64655 0.87167 0.0
H465 H 0.88776 0.83262 0.98573 0.0
H466 H 0.86121 0.75386 0.95232 0.0
H467 H 0.91416 0.77078 0.86604 0.0
H468 H 0.86617 0.48591 0.85896 0.0
H469 H 0.90978 0.57539 0.88136 0.0
loop_
_geom_bond_atom_site_label_1
_geom_bond_atom_site_label_2
_geom_bond_distance
_geom_bond_site_symmetry_2
_ccdc_geom_bond_type
C0 O16 1.251 1_565 S
C0 O18 1.254 . S
N1 C2 1.333 . S
N1 C6 1.307 . S
N1 Zn7 2.024 . S
C2 N1 1.333 . S
C2 C3 1.379 . S
C2 H20 0.952 1_556 S
C3 C2 1.379 . S
C3 C4 1.390 . S
C3 H30 0.949 . S
C4 C3 1.390 . S
C4 C5 1.357 . S
C5 C4 1.357 . S
C5 C6 1.370 . S
C5 H31 0.950 . S
C6 N1 1.307 . S
C6 C5 1.370 . S
C6 H24 0.948 . S
Zn7 N1 2.024 . S
Zn7 O16 2.034 1_556 S
Zn7 O22 2.030 1_556 S
Zn7 O26 2.029 . S
Zn7 O28 2.027 1_545 S
C8 O27 1.246 1_556 S
C8 O28 1.249 1_655 S
N9 C10 1.307 . S
N9 C11 1.333 . S
N9 Zn15 2.020 1_565 S
C10 N9 1.307 . S
C10 C14 1.370 . S
C10 H21 0.948 . S
C11 N9 1.333 . S
C11 C12 1.379 . S
C11 H19 0.952 . S
C12 C11 1.379 . S
C12 C13 1.390 . S
C12 H32 0.949 . S
C13 C12 1.390 . S
C13 C14 1.357 . S
C14 C10 1.370 . S
C14 C13 1.357 . S
C14 H33 0.950 . S
Zn15 N9 2.020 1_545 S
Zn15 O18 2.025 1_645 S
Zn15 O23 2.024 1_655 S
Zn15 O25 2.039 . S
Zn15 O27 2.034 1_545 S
O16 C0 1.251 1_545 S
O16 Zn7 2.034 1_554 S
C17 O22 1.246 . S
C17 O23 1.249 . S
O18 C0 1.254 . S
O18 Zn15 2.025 1_465 S
H19 C11 0.952 . S
H20 C2 0.952 1_554 S
H21 C10 0.948 . S
O22 Zn7 2.030 1_554 S
O22 C17 1.246 . S
O23 Zn15 2.024 1_455 S
O23 C17 1.249 . S
H24 C6 0.948 . S
O25 Zn15 2.039 . S
O25 C29 1.251 1_554 S
O26 Zn7 2.029 . S
O26 C29 1.254 1_455 S
O27 C8 1.246 1_554 S
O27 Zn15 2.034 1_565 S
O28 Zn7 2.027 1_565 S
O28 C8 1.249 1_455 S
C29 O25 1.251 1_556 S
C29 O26 1.254 1_655 S
H30 C3 0.949 . S
H31 C5 0.950 . S
H32 C12 0.949 . S
H33 C14 0.950 . S
C34 O50 1.251 . S
C34 O52 1.254 1_565 S
N35 C36 1.333 . S
N35 C40 1.307 . S
N35 Zn41 2.020 . S
C36 N35 1.333 . S
C36 C37 1.379 . S
C36 H54 0.952 . S
C37 C36 1.379 . S
C37 C38 1.390 . S
C37 H64 0.949 . S
C38 C37 1.390 . S
C38 C39 1.357 . S
C39 C38 1.357 . S
C39 C40 1.370 . S
C39 H65 0.950 . S
C40 N35 1.307 . S
C40 C39 1.370 . S
C40 H58 0.948 . S
Zn41 N35 2.020 . S
Zn41 O50 2.039 1_655 S
Zn41 O56 2.034 . S
Zn41 O60 2.025 1_565 S
Zn41 O62 2.024 1_665 S
C42 O61 1.246 . S
C42 O62 1.249 . S
N43 C44 1.307 . S
N43 C45 1.333 . S
N43 Zn49 2.020 . S
C44 N43 1.307 . S
C44 C48 1.370 . S
C44 H55 0.948 . S
C45 N43 1.333 . S
C45 C46 1.379 . S
C45 H53 0.952 . S
C46 C45 1.379 . S
C46 C47 1.390 . S
C46 H66 0.949 . S
C47 C46 1.390 . S
C47 C48 1.357 . S
C48 C44 1.370 . S
C48 C47 1.357 . S
C48 H67 0.950 . S
Zn49 N43 2.020 . S
Zn49 O52 2.025 . S
Zn49 O57 2.024 1_455 S
Zn49 O59 2.039 1_455 S
Zn49 O61 2.034 . S
O50 C34 1.251 . S
O50 Zn41 2.039 1_455 S
C51 O56 1.246 . S
C51 O57 1.249 1_565 S
O52 C34 1.254 1_545 S
O52 Zn49 2.025 . S
H53 C45 0.952 . S
H54 C36 0.952 . S
H55 C44 0.948 . S
O56 Zn41 2.034 . S
O56 C51 1.246 . S
O57 Zn49 2.024 1_655 S
O57 C51 1.249 1_545 S
H58 C40 0.948 . S
O59 Zn49 2.039 1_655 S
O59 C63 1.251 . S
O60 Zn41 2.025 1_545 S
O60 C63 1.254 . S
O61 C42 1.246 . S
O61 Zn49 2.034 . S
O62 Zn41 2.024 1_445 S
O62 C42 1.249 . S
C63 O59 1.251 . S
C63 O60 1.254 . S
H64 C37 0.949 . S
H65 C39 0.950 . S
H66 C46 0.949 . S
H67 C48 0.950 . S
Zn68 O74 1.920 . S
Zn68 O80 1.898 . S
Zn68 O83 1.905 . S
Zn69 O77 1.905 . S
Zn69 O78 1.898 . S
Zn69 O86 1.920 . S
Zn70 O73 2.080 . S
Zn70 O76 2.114 . S
Zn70 O79 2.120 . S
Zn70 O81 2.120 . S
Zn70 O82 2.114 . S
Zn70 O85 2.080 . S
C71 O76 1.166 . S
C71 O77 1.182 . S
C72 O78 1.167 . S
C72 O79 1.299 . S
O73 Zn70 2.080 . S
O73 C87 1.305 . S
O74 Zn68 1.920 . S
O74 C87 1.234 . S
C75 O80 1.167 . S
C75 O81 1.299 . S
O76 Zn70 2.114 . S
O76 C71 1.166 . S
O77 Zn69 1.905 . S
O77 C71 1.182 . S
O78 Zn69 1.898 . S
O78 C72 1.167 . S
O79 Zn70 2.120 . S
O79 C72 1.299 . S
O80 Zn68 1.898 . S
O80 C75 1.167 . S
O81 Zn70 2.120 . S
O81 C75 1.299 . S
O82 Zn70 2.114 . S
O82 C84 1.166 . S
O83 Zn68 1.905 . S
O83 C84 1.182 . S
C84 O82 1.166 . S
C84 O83 1.182 . S
O85 Zn70 2.080 . S
O85 C88 1.305 . S
O86 Zn69 1.920 . S
O86 C88 1.234 . S
C87 O73 1.305 . S
C87 O74 1.234 . S
C88 O85 1.305 . S
C88 O86 1.234 . S
Zn89 O95 1.920 . S
Zn89 O101 1.898 . S
Zn89 O104 1.905 . S
Zn90 O98 1.905 . S
Zn90 O99 1.898 . S
Zn90 O107 1.920 . S
Zn91 O94 2.080 . S
Zn91 O97 2.114 . S
Zn91 O100 2.120 . S
Zn91 O102 2.120 . S
Zn91 O103 2.114 . S
Zn91 O106 2.080 . S
C92 O97 1.166 . S
C92 O98 1.182 . S
C93 O99 1.167 . S
C93 O100 1.299 . S
O94 Zn91 2.080 . S
O94 C108 1.305 . S
O95 Zn89 1.920 . S
O95 C108 1.234 . S
C96 O101 1.167 . S
C96 O102 1.299 . S
O97 Zn91 2.114 . S
O97 C92 1.166 . S
O98 Zn90 1.905 . S
O98 C92 1.182 . S
O99 Zn90 1.898 . S
O99 C93 1.167 . S
O100 Zn91 2.120 . S
O100 C93 1.299 . S
O101 Zn89 1.898 . S
O101 C96 1.167 . S
O102 Zn91 2.120 . S
O102 C96 1.299 . S
O103 Zn91 2.114 . S
O103 C105 1.166 . S
O104 Zn89 1.905 . S
O104 C105 1.182 . S
C105 O103 1.166 . S
C105 O104 1.182 . S
O106 Zn91 2.080 . S
O106 C109 1.305 . S
O107 Zn90 1.920 . S
O107 C109 1.234 . S
C108 O94 1.305 . S
C108 O95 1.234 . S
C109 O106 1.305 . S
C109 O107 1.234 . S
C110 C111 1.349 . S
C110 C112 1.327 . S
C110 H135 0.950 . S
C111 C110 1.349 . S
C111 C127 1.349 . S
C112 C110 1.327 . S
C112 C131 1.429 . S
C112 H136 0.950 . S
C113 C130 1.574 . S
C113 C132 1.368 . S
C113 H137 0.949 . S
H114 C118 0.949 . S
C115 C116 1.349 . S
C115 C117 1.327 . S
C115 H138 0.950 . S
C116 C115 1.349 . S
C116 C128 1.349 . S
C117 C115 1.327 . S
C117 C133 1.429 . S
C117 H139 0.950 . S
C118 H114 0.949 . S
C118 C126 1.574 . S
C118 C134 1.368 . S
H119 C127 0.950 . S
H120 C125 0.950 . S
H121 C126 0.949 . S
H122 C128 0.950 . S
H123 C129 0.950 . S
H124 C130 0.949 . S
C125 H120 0.950 . S
C125 C127 1.327 . S
C125 C131 1.429 . S
C126 C118 1.574 . S
C126 H121 0.949 . S
C126 C132 1.368 . S
C127 C111 1.349 . S
C127 H119 0.950 . S
C127 C125 1.327 . S
C128 C116 1.349 . S
C128 H122 0.950 . S
C128 C129 1.327 . S
C129 H123 0.950 . S
C129 C128 1.327 . S
C129 C133 1.429 . S
C130 C113 1.574 . S
C130 H124 0.949 . S
C130 C134 1.368 . S
C131 C112 1.429 . S
C131 C125 1.429 . S
C131 C132 1.523 . S
C132 C113 1.368 . S
C132 C126 1.368 . S
C132 C131 1.523 . S
C133 C117 1.429 . S
C133 C129 1.429 . S
C133 C134 1.523 . S
C134 C118 1.368 . S
C134 C130 1.368 . S
C134 C133 1.523 . S
H135 C110 0.950 . S
H136 C112 0.950 . S
H137 C113 0.949 . S
H138 C115 0.950 . S
H139 C117 0.950 . S
C140 C141 1.349 . S
C140 C142 1.327 . S
C140 H165 0.950 . S
C141 C140 1.349 . S
C141 C157 1.349 . S
C142 C140 1.327 . S
C142 C161 1.429 . S
C142 H166 0.950 . S
C143 C160 1.574 . S
C143 C162 1.368 . S
C143 H167 0.949 . S
H144 C148 0.949 . S
C145 C146 1.349 . S
C145 C147 1.327 . S
C145 H168 0.950 . S
C146 C145 1.349 . S
C146 C158 1.349 . S
C147 C145 1.327 . S
C147 C163 1.429 . S
C147 H169 0.950 . S
C148 H144 0.949 . S
C148 C156 1.574 . S
C148 C164 1.368 . S
H149 C157 0.950 . S
H150 C155 0.950 . S
H151 C156 0.949 . S
H152 C158 0.950 . S
H153 C159 0.950 . S
H154 C160 0.949 . S
C155 H150 0.950 . S
C155 C157 1.327 . S
C155 C161 1.429 . S
C156 C148 1.574 . S
C156 H151 0.949 . S
C156 C162 1.368 . S
C157 C141 1.349 . S
C157 H149 0.950 . S
C157 C155 1.327 . S
C158 C146 1.349 . S
C158 H152 0.950 . S
C158 C159 1.327 . S
C159 H153 0.950 . S
C159 C158 1.327 . S
C159 C163 1.429 . S
C160 C143 1.574 . S
C160 H154 0.949 . S
C160 C164 1.368 . S
C161 C142 1.429 . S
C161 C155 1.429 . S
C161 C162 1.523 . S
C162 C143 1.368 . S
C162 C156 1.368 . S
C162 C161 1.523 . S
C163 C147 1.429 . S
C163 C159 1.429 . S
C163 C164 1.523 . S
C164 C148 1.368 . S
C164 C160 1.368 . S
C164 C163 1.523 . S
H165 C140 0.950 . S
H166 C142 0.950 . S
H167 C143 0.949 . S
H168 C145 0.950 . S
H169 C147 0.950 . S
C170 C171 1.349 . S
C170 C172 1.327 . S
C170 H195 0.950 . S
C171 C170 1.349 . S
C171 C187 1.349 . S
C172 C170 1.327 . S
C172 C191 1.429 . S
C172 H196 0.950 . S
C173 C190 1.574 . S
C173 C192 1.368 . S
C173 H197 0.949 . S
H174 C178 0.949 . S
C175 C176 1.349 . S
C175 C177 1.327 . S
C175 H198 0.950 . S
C176 C175 1.349 . S
C176 C188 1.349 . S
C177 C175 1.327 . S
C177 C193 1.429 . S
C177 H199 0.950 . S
C178 H174 0.949 . S
C178 C186 1.574 . S
C178 C194 1.368 . S
H179 C187 0.950 . S
H180 C185 0.950 . S
H181 C186 0.949 . S
H182 C188 0.950 . S
H183 C189 0.950 . S
H184 C190 0.949 . S
C185 H180 0.950 . S
C185 C187 1.327 . S
C185 C191 1.429 . S
C186 C178 1.574 . S
C186 H181 0.949 . S
C186 C192 1.368 . S
C187 C171 1.349 . S
C187 H179 0.950 . S
C187 C185 1.327 . S
C188 C176 1.349 . S
C188 H182 0.950 . S
C188 C189 1.327 . S
C189 H183 0.950 . S
C189 C188 1.327 . S
C189 C193 1.429 . S
C190 C173 1.574 . S
C190 H184 0.949 . S
C190 C194 1.368 . S
C191 C172 1.429 . S
C191 C185 1.429 . S
C191 C192 1.523 . S
C192 C173 1.368 . S
C192 C186 1.368 . S
C192 C191 1.523 . S
C193 C177 1.429 . S
C193 C189 1.429 . S
C193 C194 1.523 . S
C194 C178 1.368 . S
C194 C190 1.368 . S
C194 C193 1.523 . S
H195 C170 0.950 . S
H196 C172 0.950 . S
H197 C173 0.949 . S
H198 C175 0.950 . S
H199 C177 0.950 . S
C200 C201 1.349 . S
C200 C202 1.327 . S
C200 H225 0.950 . S
C201 C200 1.349 . S
C201 C217 1.349 . S
C202 C200 1.327 . S
C202 C221 1.429 . S
C202 H226 0.950 . S
C203 C220 1.574 . S
C203 C222 1.368 . S
C203 H227 0.949 . S
H204 C208 0.949 . S
C205 C206 1.349 . S
C205 C207 1.327 . S
C205 H228 0.950 . S
C206 C205 1.349 . S
C206 C218 1.349 . S
C207 C205 1.327 . S
C207 C223 1.429 . S
C207 H229 0.950 . S
C208 H204 0.949 . S
C208 C216 1.574 . S
C208 C224 1.368 . S
H209 C217 0.950 . S
H210 C215 0.950 . S
H211 C216 0.949 . S
H212 C218 0.950 . S
H213 C219 0.950 . S
H214 C220 0.949 . S
C215 H210 0.950 . S
C215 C217 1.327 . S
C215 C221 1.429 . S
C216 C208 1.574 . S
C216 H211 0.949 . S
C216 C222 1.368 . S
C217 C201 1.349 . S
C217 H209 0.950 . S
C217 C215 1.327 . S
C218 C206 1.349 . S
C218 H212 0.950 . S
C218 C219 1.327 . S
C219 H213 0.950 . S
C219 C218 1.327 . S
C219 C223 1.429 . S
C220 C203 1.574 . S
C220 H214 0.949 . S
C220 C224 1.368 . S
C221 C202 1.429 . S
C221 C215 1.429 . S
C221 C222 1.523 . S
C222 C203 1.368 . S
C222 C216 1.368 . S
C222 C221 1.523 . S
C223 C207 1.429 . S
C223 C219 1.429 . S
C223 C224 1.523 . S
C224 C208 1.368 . S
C224 C220 1.368 . S
C224 C223 1.523 . S
H225 C200 0.950 . S
H226 C202 0.950 . S
H227 C203 0.949 . S
H228 C205 0.950 . S
H229 C207 0.950 . S
C230 C231 1.349 . S
C230 C232 1.327 . S
C230 H255 0.950 . S
C231 C230 1.349 . S
C231 C247 1.349 . S
C232 C230 1.327 . S
C232 C251 1.429 . S
C232 H256 0.950 . S
C233 C250 1.574 . S
C233 C252 1.368 . S
C233 H257 0.949 . S
H234 C238 0.949 . S
C235 C236 1.349 . S
C235 C237 1.327 . S
C235 H258 0.950 . S
C236 C235 1.349 . S
C236 C248 1.349 . S
C237 C235 1.327 . S
C237 C253 1.429 . S
C237 H259 0.950 . S
C238 H234 0.949 . S
C238 C246 1.574 . S
C238 C254 1.368 . S
H239 C247 0.950 1_545 S
H240 C245 0.950 . S
H241 C246 0.949 . S
H242 C248 0.950 . S
H243 C249 0.950 . S
H244 C250 0.949 . S
C245 H240 0.950 . S
C245 C247 1.327 . S
C245 C251 1.429 . S
C246 C238 1.574 . S
C246 H241 0.949 . S
C246 C252 1.368 . S
C247 C231 1.349 . S
C247 H239 0.950 1_565 S
C247 C245 1.327 . S
C248 C236 1.349 . S
C248 H242 0.950 . S
C248 C249 1.327 . S
C249 H243 0.950 . S
C249 C248 1.327 . S
C249 C253 1.429 . S
C250 C233 1.574 . S
C250 H244 0.949 . S
C250 C254 1.368 . S
C251 C232 1.429 . S
C251 C245 1.429 . S
C251 C252 1.523 . S
C252 C233 1.368 . S
C252 C246 1.368 . S
C252 C251 1.523 . S
C253 C237 1.429 . S
C253 C249 1.429 . S
C253 C254 1.523 . S
C254 C238 1.368 . S
C254 C250 1.368 . S
C254 C253 1.523 . S
H255 C230 0.950 . S
H256 C232 0.950 . S
H257 C233 0.949 . S
H258 C235 0.950 . S
H259 C237 0.950 . S
C260 C261 1.349 . S
C260 C262 1.327 . S
C260 H285 0.950 . S
C261 C260 1.349 . S
C261 C277 1.349 . S
C262 C260 1.327 . S
C262 C281 1.429 . S
C262 H286 0.950 . S
C263 C280 1.574 . S
C263 C282 1.368 . S
C263 H287 0.949 . S
H264 C268 0.949 . S
C265 C266 1.349 . S
C265 C267 1.327 . S
C265 H288 0.950 . S
C266 C265 1.349 . S
C266 C278 1.349 . S
C267 C265 1.327 . S
C267 C283 1.429 . S
C267 H289 0.950 . S
C268 H264 0.949 . S
C268 C276 1.574 . S
C268 C284 1.368 . S
H269 C277 0.950 . S
H270 C275 0.950 . S
H271 C276 0.949 . S
H272 C278 0.950 . S
H273 C279 0.950 . S
H274 C280 0.949 . S
C275 H270 0.950 . S
C275 C277 1.327 . S
C275 C281 1.429 . S
C276 C268 1.574 . S
C276 H271 0.949 . S
C276 C282 1.368 . S
C277 C261 1.349 . S
C277 H269 0.950 . S
C277 C275 1.327 . S
C278 C266 1.349 . S
C278 H272 0.950 . S
C278 C279 1.327 . S
C279 H273 0.950 . S
C279 C278 1.327 . S
C279 C283 1.429 . S
C280 C263 1.574 . S
C280 H274 0.949 . S
C280 C284 1.368 . S
C281 C262 1.429 . S
C281 C275 1.429 . S
C281 C282 1.523 . S
C282 C263 1.368 . S
C282 C276 1.368 . S
C282 C281 1.523 . S
C283 C267 1.429 . S
C283 C279 1.429 . S
C283 C284 1.523 . S
C284 C268 1.368 . S
C284 C280 1.368 . S
C284 C283 1.523 . S
H285 C260 0.950 . S
H286 C262 0.950 . S
H287 C263 0.949 . S
H288 C265 0.950 . S
H289 C267 0.950 . S
C290 C291 1.349 . S
C290 C292 1.327 . S
C290 H315 0.950 . S
C291 C290 1.349 . S
C291 C307 1.349 . S
C292 C290 1.327 . S
C292 C311 1.429 . S
C292 H316 0.950 . S
C293 C310 1.574 . S
C293 C312 1.368 . S
C293 H317 0.949 . S
H294 C298 0.949 . S
C295 C296 1.349 . S
C295 C297 1.327 . S
C295 H318 0.950 . S
C296 C295 1.349 . S
C296 C308 1.349 . S
C297 C295 1.327 . S
C297 C313 1.429 . S
C297 H319 0.950 . S
C298 H294 0.949 . S
C298 C306 1.574 . S
C298 C314 1.368 . S
H299 C307 0.950 . S
H300 C305 0.950 . S
H301 C306 0.949 . S
H302 C308 0.950 . S
H303 C309 0.950 . S
H304 C310 0.949 . S
C305 H300 0.950 . S
C305 C307 1.327 . S
C305 C311 1.429 . S
C306 C298 1.574 . S
C306 H301 0.949 . S
C306 C312 1.368 . S
C307 C291 1.349 . S
C307 H299 0.950 . S
C307 C305 1.327 . S
C308 C296 1.349 . S
C308 H302 0.950 . S
C308 C309 1.327 . S
C309 H303 0.950 . S
C309 C308 1.327 . S
C309 C313 1.429 . S
C310 C293 1.574 . S
C310 H304 0.949 . S
C310 C314 1.368 . S
C311 C292 1.429 . S
C311 C305 1.429 . S
C311 C312 1.523 . S
C312 C293 1.368 . S
C312 C306 1.368 . S
C312 C311 1.523 . S
C313 C297 1.429 . S
C313 C309 1.429 . S
C313 C314 1.523 . S
C314 C298 1.368 . S
C314 C310 1.368 . S
C314 C313 1.523 . S
H315 C290 0.950 . S
H316 C292 0.950 . S
H317 C293 0.949 . S
H318 C295 0.950 . S
H319 C297 0.950 . S
C320 C321 1.349 . S
C320 C322 1.327 . S
C320 H345 0.950 . S
C321 C320 1.349 . S
C321 C337 1.349 . S
C322 C320 1.327 . S
C322 C341 1.429 . S
C322 H346 0.950 . S
C323 C340 1.574 . S
C323 C342 1.368 . S
C323 H347 0.949 . S
H324 C328 0.949 . S
C325 C326 1.349 . S
C325 C327 1.327 . S
C325 H348 0.950 . S
C326 C325 1.349 . S
C326 C338 1.349 . S
C327 C325 1.327 . S
C327 C343 1.429 . S
C327 H349 0.950 . S
C328 H324 0.949 . S
C328 C336 1.574 . S
C328 C344 1.368 . S
H329 C337 0.950 . S
H330 C335 0.950 . S
H331 C336 0.949 . S
H332 C338 0.950 . S
H333 C339 0.950 . S
H334 C340 0.949 . S
C335 H330 0.950 . S
C335 C337 1.327 . S
C335 C341 1.429 . S
C336 C328 1.574 . S
C336 H331 0.949 . S
C336 C342 1.368 . S
C337 C321 1.349 . S
C337 H329 0.950 . S
C337 C335 1.327 . S
C338 C326 1.349 . S
C338 H332 0.950 . S
C338 C339 1.327 . S
C339 H333 0.950 . S
C339 C338 1.327 . S
C339 C343 1.429 . S
C340 C323 1.574 . S
C340 H334 0.949 . S
C340 C344 1.368 . S
C341 C322 1.429 . S
C341 C335 1.429 . S
C341 C342 1.523 . S
C342 C323 1.368 . S
C342 C336 1.368 . S
C342 C341 1.523 . S
C343 C327 1.429 . S
C343 C339 1.429 . S
C343 C344 1.523 . S
C344 C328 1.368 . S
C344 C340 1.368 . S
C344 C343 1.523 . S
H345 C320 0.950 . S
H346 C322 0.950 . S
H347 C323 0.949 . S
H348 C325 0.950 . S
H349 C327 0.950 . S
C350 C351 1.349 . S
C350 C352 1.327 . S
C350 H375 0.950 . S
C351 C350 1.349 . S
C351 C367 1.349 . S
C352 C350 1.327 . S
C352 C371 1.429 . S
C352 H376 0.950 . S
C353 C370 1.574 . S
C353 C372 1.368 . S
C353 H377 0.949 . S
H354 C358 0.949 . S
C355 C356 1.349 . S
C355 C357 1.327 . S
C355 H378 0.950 . S
C356 C355 1.349 . S
C356 C368 1.349 . S
C357 C355 1.327 . S
C357 C373 1.429 . S
C357 H379 0.950 . S
C358 H354 0.949 . S
C358 C366 1.574 . S
C358 C374 1.368 . S
H359 C367 0.950 . S
H360 C365 0.950 . S
H361 C366 0.949 . S
H362 C368 0.950 . S
H363 C369 0.950 . S
H364 C370 0.949 . S
C365 H360 0.950 . S
C365 C367 1.327 . S
C365 C371 1.429 . S
C366 C358 1.574 . S
C366 H361 0.949 . S
C366 C372 1.368 . S
C367 C351 1.349 . S
C367 H359 0.950 . S
C367 C365 1.327 . S
C368 C356 1.349 . S
C368 H362 0.950 . S
C368 C369 1.327 . S
C369 H363 0.950 . S
C369 C368 1.327 . S
C369 C373 1.429 . S
C370 C353 1.574 . S
C370 H364 0.949 . S
C370 C374 1.368 . S
C371 C352 1.429 . S
C371 C365 1.429 . S
C371 C372 1.523 . S
C372 C353 1.368 . S
C372 C366 1.368 . S
C372 C371 1.523 . S
C373 C357 1.429 . S
C373 C369 1.429 . S
C373 C374 1.523 . S
C374 C358 1.368 . S
C374 C370 1.368 . S
C374 C373 1.523 . S
H375 C350 0.950 . S
H376 C352 0.950 . S
H377 C353 0.949 . S
H378 C355 0.950 . S
H379 C357 0.950 . S
C380 C381 1.349 . S
C380 C382 1.327 . S
C380 H405 0.950 1_655 S
C381 C380 1.349 . S
C381 C397 1.349 . S
C382 C380 1.327 . S
C382 C401 1.429 . S
C382 H406 0.950 . S
C383 C400 1.574 . S
C383 C402 1.368 . S
C383 H407 0.949 . S
H384 C388 0.949 . S
C385 C386 1.349 . S
C385 C387 1.327 . S
C385 H408 0.950 . S
C386 C385 1.349 . S
C386 C398 1.349 . S
C387 C385 1.327 . S
C387 C403 1.429 . S
C387 H409 0.950 . S
C388 H384 0.949 . S
C388 C396 1.574 . S
C388 C404 1.368 . S
H389 C397 0.950 . S
H390 C395 0.950 . S
H391 C396 0.949 . S
H392 C398 0.950 . S
H393 C399 0.950 . S
H394 C400 0.949 . S
C395 H390 0.950 . S
C395 C397 1.327 . S
C395 C401 1.429 . S
C396 C388 1.574 . S
C396 H391 0.949 . S
C396 C402 1.368 . S
C397 C381 1.349 . S
C397 H389 0.950 . S
C397 C395 1.327 . S
C398 C386 1.349 . S
C398 H392 0.950 . S
C398 C399 1.327 . S
C399 H393 0.950 . S
C399 C398 1.327 . S
C399 C403 1.429 . S
C400 C383 1.574 . S
C400 H394 0.949 . S
C400 C404 1.368 . S
C401 C382 1.429 . S
C401 C395 1.429 . S
C401 C402 1.523 . S
C402 C383 1.368 . S
C402 C396 1.368 . S
C402 C401 1.523 . S
C403 C387 1.429 . S
C403 C399 1.429 . S
C403 C404 1.523 . S
C404 C388 1.368 . S
C404 C400 1.368 . S
C404 C403 1.523 . S
H405 C380 0.950 1_455 S
H406 C382 0.950 . S
H407 C383 0.949 . S
H408 C385 0.950 . S
H409 C387 0.950 . S
C410 C411 1.349 . S
C410 C412 1.327 . S
C410 H435 0.950 . S
C411 C410 1.349 . S
C411 C427 1.349 . S
C412 C410 1.327 . S
C412 C431 1.429 . S
C412 H436 0.950 . S
C413 C430 1.574 . S
C413 C432 1.368 . S
C413 H437 0.949 . S
H414 C418 0.949 . S
C415 C416 1.349 . S
C415 C417 1.327 . S
C415 H438 0.950 . S
C416 C415 1.349 . S
C416 C428 1.349 . S
C417 C415 1.327 . S
C417 C433 1.429 . S
C417 H439 0.950 . S
C418 H414 0.949 . S
C418 C426 1.574 . S
C418 C434 1.368 . S
H419 C427 0.950 1_545 S
H420 C425 0.950 . S
H421 C426 0.949 . S
H422 C428 0.950 . S
H423 C429 0.950 . S
H424 C430 0.949 . S
C425 H420 0.950 . S
C425 C427 1.327 . S
C425 C431 1.429 . S
C426 C418 1.574 . S
C426 H421 0.949 . S
C426 C432 1.368 . S
C427 C411 1.349 . S
C427 H419 0.950 1_565 S
C427 C425 1.327 . S
C428 C416 1.349 . S
C428 H422 0.950 . S
C428 C429 1.327 . S
C429 H423 0.950 . S
C429 C428 1.327 . S
C429 C433 1.429 . S
C430 C413 1.574 . S
C430 H424 0.949 . S
C430 C434 1.368 . S
C431 C412 1.429 . S
C431 C425 1.429 . S
C431 C432 1.523 . S
C432 C413 1.368 . S
C432 C426 1.368 . S
C432 C431 1.523 . S
C433 C417 1.429 . S
C433 C429 1.429 . S
C433 C434 1.523 . S
C434 C418 1.368 . S
C434 C430 1.368 . S
C434 C433 1.523 . S
H435 C410 0.950 . S
H436 C412 0.950 . S
H437 C413 0.949 . S
H438 C415 0.950 . S
H439 C417 0.950 . S
C440 C441 1.349 . S
C440 C442 1.327 . S
C440 H465 0.950 . S
C441 C440 1.349 . S
C441 C457 1.349 . S
C442 C440 1.327 . S
C442 C461 1.429 . S
C442 H466 0.950 . S
C443 C460 1.574 . S
C443 C462 1.368 . S
C443 H467 0.949 . S
H444 C448 0.949 . S
C445 C446 1.349 . S
C445 C447 1.327 . S
C445 H468 0.950 . S
C446 C445 1.349 . S
C446 C458 1.349 . S
C447 C445 1.327 . S
C447 C463 1.429 . S
C447 H469 0.950 . S
C448 H444 0.949 . S
C448 C456 1.574 . S
C448 C464 1.368 . S
H449 C457 0.950 1_455 S
H450 C455 0.950 . S
H451 C456 0.949 . S
H452 C458 0.950 . S
H453 C459 0.950 . S
H454 C460 0.949 . S
C455 H450 0.950 . S
C455 C457 1.327 . S
C455 C461 1.429 . S
C456 C448 1.574 . S
C456 H451 0.949 . S
C456 C462 1.368 . S
C457 C441 1.349 . S
C457 H449 0.950 1_655 S
C457 C455 1.327 . S
C458 C446 1.349 . S
C458 H452 0.950 . S
C458 C459 1.327 . S
C459 H453 0.950 . S
C459 C458 1.327 . S
C459 C463 1.429 . S
C460 C443 1.574 . S
C460 H454 0.949 . S
C460 C464 1.368 . S
C461 C442 1.429 . S
C461 C455 1.429 . S
C461 C462 1.523 . S
C462 C443 1.368 . S
C462 C456 1.368 . S
C462 C461 1.523 . S
C463 C447 1.429 . S
C463 C459 1.429 . S
C463 C464 1.523 . S
C464 C448 1.368 . S
C464 C460 1.368 . S
C464 C463 1.523 . S
H465 C440 0.950 . S
H466 C442 0.950 . S
H467 C443 0.949 . S
H468 C445 0.950 . S
H469 C447 0.950 . S
C111 C0 1.627 . S
C116 C87 1.447 . S
C141 C42 1.745 . S
C146 C93 1.588 . S
C171 C17 1.629 . S
C176 C84 1.507 . S
C201 C63 1.483 . S
C206 C109 1.331 . S
C231 C13 1.197 . S
C236 C75 1.084 . S
C266 C92 1.119 . S
C261 C38 1.226 . S
C291 C34 1.628 . S
C296 C88 1.448 . S
C326 C105 1.119 . S
C321 C4 1.226 . S
C356 C72 1.084 . S
C351 C47 1.197 . S
C386 C108 1.331 . S
C381 C29 1.483 . S
C416 C71 1.507 . S
C411 C51 1.629 . S
C446 C96 1.589 . S
C441 C8 1.745 . S
