# Generated by pormake.
# Topology wbl, (4,4)-cn, num edge types: 1
# Building blocks:
#     Node 0, Type 0, BuildingBlock: MUDLON_clean_sbu_0, # of connection points: 4
#     Node 1, Type 0, BuildingBlock: MUDLON_clean_sbu_0, # of connection points: 4
#     Node 2, Type 0, BuildingBlock: MUDLON_clean_sbu_0, # of connection points: 4
#     Node 3, Type 0, BuildingBlock: MUDLON_clean_sbu_0, # of connection points: 4
#     Node 4, Type 0, BuildingBlock: MUDLON_clean_sbu_0, # of connection points: 4
#     Node 5, Type 0, BuildingBlock: MUDLON_clean_sbu_0, # of connection points: 4
#     Node 6, Type 0, BuildingBlock: MUDLON_clean_sbu_0, # of connection points: 4
#     Node 7, Type 0, BuildingBlock: MUDLON_clean_sbu_0, # of connection points: 4
#     Node 8, Type 1, BuildingBlock: TATPOV_clean_sbu_0, # of connection points: 4
#     Node 9, Type 1, BuildingBlock: TATPOV_clean_sbu_0, # of connection points: 4
#     Node 10, Type 1, BuildingBlock: TATPOV_clean_sbu_0, # of connection points: 4
#     Node 11, Type 1, BuildingBlock: TATPOV_clean_sbu_0, # of connection points: 4
#     Node 12, Type 1, BuildingBlock: TATPOV_clean_sbu_0, # of connection points: 4
#     Node 13, Type 1, BuildingBlock: TATPOV_clean_sbu_0, # of connection points: 4
#     Node 14, Type 1, BuildingBlock: TATPOV_clean_sbu_0, # of connection points: 4
#     Node 15, Type 1, BuildingBlock: TATPOV_clean_sbu_0, # of connection points: 4
#     Edge 16, Type (0, 1), BuildingBlock: EZIPEK_clean_linker_0, # of connection points: 2
#     Edge 17, Type (0, 1), BuildingBlock: EZIPEK_clean_linker_0, # of connection points: 2
#     Edge 18, Type (0, 1), BuildingBlock: EZIPEK_clean_linker_0, # of connection points: 2
#     Edge 19, Type (0, 1), BuildingBlock: EZIPEK_clean_linker_0, # of connection points: 2
#     Edge 20, Type (0, 1), BuildingBlock: EZIPEK_clean_linker_0, # of connection points: 2
#     Edge 21, Type (0, 1), BuildingBlock: EZIPEK_clean_linker_0, # of connection points: 2
#     Edge 22, Type (0, 1), BuildingBlock: EZIPEK_clean_linker_0, # of connection points: 2
#     Edge 23, Type (0, 1), BuildingBlock: EZIPEK_clean_linker_0, # of connection points: 2
#     Edge 24, Type (0, 1), BuildingBlock: EZIPEK_clean_linker_0, # of connection points: 2
#     Edge 25, Type (0, 1), BuildingBlock: EZIPEK_clean_linker_0, # of connection points: 2
#     Edge 26, Type (0, 1), BuildingBlock: EZIPEK_clean_linker_0, # of connection points: 2
#     Edge 27, Type (0, 1), BuildingBlock: EZIPEK_clean_linker_0, # of connection points: 2
#     Edge 28, Type (0, 1), BuildingBlock: EZIPEK_clean_linker_0, # of connection points: 2
#     Edge 29, Type (0, 1), BuildingBlock: EZIPEK_clean_linker_0, # of connection points: 2
#     Edge 30, Type (0, 1), BuildingBlock: EZIPEK_clean_linker_0, # of connection points: 2
#     Edge 31, Type (0, 1), BuildingBlock: EZIPEK_clean_linker_0, # of connection points: 2
#     Edge 32, Type (0, 1), BuildingBlock: EZIPEK_clean_linker_0, # of connection points: 2
#     Edge 33, Type (0, 1), BuildingBlock: EZIPEK_clean_linker_0, # of connection points: 2
#     Edge 34, Type (0, 1), BuildingBlock: EZIPEK_clean_linker_0, # of connection points: 2
#     Edge 35, Type (0, 1), BuildingBlock: EZIPEK_clean_linker_0, # of connection points: 2
#     Edge 36, Type (0, 1), BuildingBlock: EZIPEK_clean_linker_0, # of connection points: 2
#     Edge 37, Type (0, 1), BuildingBlock: EZIPEK_clean_linker_0, # of connection points: 2
#     Edge 38, Type (0, 1), BuildingBlock: EZIPEK_clean_linker_0, # of connection points: 2
#     Edge 39, Type (0, 1), BuildingBlock: EZIPEK_clean_linker_0, # of connection points: 2
#     Edge 40, Type (0, 1), BuildingBlock: EZIPEK_clean_linker_0, # of connection points: 2
#     Edge 41, Type (0, 1), BuildingBlock: EZIPEK_clean_linker_0, # of connection points: 2
#     Edge 42, Type (0, 1), BuildingBlock: EZIPEK_clean_linker_0, # of connection points: 2
#     Edge 43, Type (0, 1), BuildingBlock: EZIPEK_clean_linker_0, # of connection points: 2
#     Edge 44, Type (0, 1), BuildingBlock: EZIPEK_clean_linker_0, # of connection points: 2
#     Edge 45, Type (0, 1), BuildingBlock: EZIPEK_clean_linker_0, # of connection points: 2
#     Edge 46, Type (0, 1), BuildingBlock: EZIPEK_clean_linker_0, # of connection points: 2
#     Edge 47, Type (0, 1), BuildingBlock: EZIPEK_clean_linker_0, # of connection points: 2
# Relax obj value: 0.244
# Max RMSD: 0.235
# Mean RMSD: 0.173
data_MOF--net-wbl--node1-MUDLON_clean_sbu_0--node2-TATPOV_clean_sbu_0--edge1-EZIPEK_clean_linker_0
_symmetry_space_group_name_H-M    P1
_symmetry_Int_Tables_number       1
_symmetry_cell_setting            triclinic
loop_
_symmetry_equiv_pos_as_xyz
'x, y, z'
_cell_length_a     25.606679
_cell_length_b     25.640437
_cell_length_c     54.432971
_cell_angle_alpha  91.27676
_cell_angle_beta   91.357574
_cell_angle_gamma 89.979351
loop_
_atom_site_label
_atom_site_type_symbol
_atom_site_fract_x
_atom_site_fract_y
_atom_site_fract_z
_atom_type_partial_charge
Mg0 Mg 0.12242 0.18797 0.36339 0.0
C1 C 0.08802 0.11858 0.40397 0.0
O2 O 0.07495 0.1633 0.41428 0.0
C3 C 0.01302 0.22988 0.3535 0.0
O4 O 0.00862 0.22275 0.37717 0.0
C5 C 0.17865 0.12077 0.32785 0.0
O6 O 0.13146 0.1007 0.32658 0.0
O7 O 0.1867 0.16216 0.34072 0.0
O8 O 0.10218 0.1173 0.38173 0.0
O9 O 0.14755 0.23655 0.39442 0.0
C10 C 0.12519 0.27895 0.40038 0.0
O11 O 0.09334 0.29976 0.38409 0.0
O12 O 0.0557 0.2188 0.34306 0.0
Mg13 Mg 0.01873 0.61076 0.60778 0.0
C14 C 0.10858 0.55301 0.63557 0.0
O15 O 0.0863 0.50846 0.6292 0.0
C16 C 0.96625 0.54475 0.56723 0.0
O17 O 0.95655 0.59003 0.55727 0.0
C18 C 0.08321 0.66645 0.5733 0.0
O19 O 0.11261 0.62774 0.58086 0.0
O20 O 0.03767 0.67169 0.58203 0.0
O21 O 0.09026 0.59578 0.6278 0.0
O22 O 0.96854 0.62232 0.63919 0.0
C23 C 0.96204 0.57844 0.64924 0.0
O24 O 0.97824 0.53597 0.63791 0.0
O25 O 0.99234 0.54264 0.58732 0.0
Mg26 Mg 0.57664 0.46439 0.85728 0.0
C27 C 0.57418 0.56194 0.88273 0.0
O28 O 0.53028 0.5371 0.88641 0.0
C29 C 0.67473 0.43488 0.83048 0.0
O30 O 0.69148 0.47809 0.84142 0.0
C31 C 0.51794 0.52678 0.82343 0.0
O32 O 0.5667 0.54256 0.8228 0.0
O33 O 0.50754 0.48728 0.83616 0.0
O34 O 0.60824 0.53985 0.86947 0.0
O35 O 0.56201 0.42947 0.89251 0.0
C36 C 0.59654 0.40058 0.90236 0.0
O37 O 0.63395 0.3818 0.88868 0.0
O38 O 0.62837 0.41955 0.83386 0.0
Mg39 Mg 0.6575 0.07274 0.10997 0.0
C40 C 0.75366 0.06021 0.14846 0.0
O41 O 0.7663 0.01264 0.14142 0.0
C42 C 0.6186 0.00168 0.07275 0.0
O43 O 0.59436 0.046 0.06881 0.0
C44 C 0.71727 0.14395 0.08001 0.0
O45 O 0.75058 0.10594 0.08401 0.0
O46 O 0.67053 0.13941 0.08716 0.0
O47 O 0.71622 0.08429 0.13817 0.0
O48 O 0.58647 0.07244 0.13077 0.0
C49 C 0.58923 0.03842 0.14743 0.0
O50 O 0.63183 0.01019 0.14966 0.0
O51 O 0.65431 0.00024 0.08932 0.0
Mg52 Mg 0.09517 0.62088 0.9221 0.0
C53 C 0.05933 0.6659 0.874 0.0
O54 O 0.02018 0.63336 0.87608 0.0
C55 C 0.00153 0.62725 0.95876 0.0
O56 O 0.00836 0.67795 0.96078 0.0
C57 C 0.17204 0.68786 0.94999 0.0
O58 O 0.13598 0.72281 0.94512 0.0
O59 O 0.16432 0.64046 0.94362 0.0
O60 O 0.0884 0.67637 0.89272 0.0
O61 O 0.10769 0.55234 0.89961 0.0
C62 C 0.08504 0.50988 0.90424 0.0
O63 O 0.06548 0.50346 0.92606 0.0
O64 O 0.02947 0.60013 0.9444 0.0
Mg65 Mg 0.50302 0.56392 0.16768 0.0
C66 C 0.46952 0.52318 0.11546 0.0
O67 O 0.48267 0.47631 0.12262 0.0
C68 C 0.53492 0.49921 0.21051 0.0
O69 O 0.52425 0.54346 0.22195 0.0
C70 C 0.4263 0.6475 0.18464 0.0
O71 O 0.3995 0.63255 0.16485 0.0
O72 O 0.46922 0.62513 0.19011 0.0
O73 O 0.46731 0.56067 0.13107 0.0
O74 O 0.57967 0.58775 0.15672 0.0
C75 C 0.60236 0.54906 0.14667 0.0
O76 O 0.58011 0.503 0.14691 0.0
O77 O 0.52182 0.49351 0.18791 0.0
Mg78 Mg 0.62357 0.99442 0.40958 0.0
C79 C 0.58545 0.05183 0.365 0.0
O80 O 0.56827 0.00494 0.35912 0.0
C81 C 0.51715 0.9435 0.417 0.0
O82 O 0.517 0.9401 0.3929 0.0
C83 C 0.68292 0.06993 0.44073 0.0
O84 O 0.64409 0.09851 0.43239 0.0
O85 O 0.68492 0.0218 0.4347 0.0
O86 O 0.60556 0.06026 0.38627 0.0
O87 O 0.65137 0.93819 0.38284 0.0
C88 C 0.63456 0.89166 0.3817 0.0
O89 O 0.6141 0.87299 0.40156 0.0
O90 O 0.55599 0.9642 0.42856 0.0
Mg91 Mg 0.19163 0.08657 0.66955 0.0
C92 C 0.25184 0.10328 0.62448 0.0
O93 O 0.21853 0.14171 0.62195 0.0
C94 C 0.15821 0.14599 0.71339 0.0
O95 O 0.155 0.09815 0.72136 0.0
C96 C 0.23551 0.0023 0.70107 0.0
O97 O 0.2743 0.03581 0.70249 0.0
O98 O 0.19379 0.01417 0.68936 0.0
O99 O 0.25824 0.08352 0.64551 0.0
O100 O 0.12253 0.08917 0.64538 0.0
C101 C 0.10761 0.13445 0.63913 0.0
O102 O 0.1326 0.17545 0.6483 0.0
O103 O 0.18108 0.15391 0.69339 0.0
Zn104 Zn 0.47602 0.80723 0.97019 0.0
Zn105 Zn 0.48641 0.7247 0.00058 0.0
O106 O 0.40788 0.72793 0.99385 0.0
O107 O 0.3983 0.79192 0.96773 0.0
O108 O 0.49122 0.66699 0.02531 0.0
O109 O 0.50746 0.8551 0.99599 0.0
O110 O 0.52064 0.78691 0.01942 0.0
C111 C 0.379 0.75557 0.98001 0.0
C112 C 0.53463 0.72228 0.94955 0.0
O113 O 0.52316 0.69947 0.96932 0.0
O114 O 0.52284 0.76967 0.94642 0.0
C115 C 0.46641 0.62415 0.02277 0.0
O116 O 0.44031 0.61354 0.00219 0.0
C117 C 0.52552 0.83543 0.0155 0.0
Zn118 Zn 0.37722 0.87042 0.2975 0.0
Zn119 Zn 0.42386 0.93071 0.26451 0.0
O120 O 0.36844 0.98 0.279 0.0
O121 O 0.32368 0.92805 0.30248 0.0
O122 O 0.46101 0.97329 0.23981 0.0
O123 O 0.37257 0.81364 0.27051 0.0
O124 O 0.39874 0.86959 0.24326 0.0
C125 C 0.33059 0.97239 0.29326 0.0
C126 C 0.48581 0.88658 0.30844 0.0
O127 O 0.48365 0.90732 0.28743 0.0
O128 O 0.44403 0.87197 0.31826 0.0
C129 C 0.4391 0.9835 0.21931 0.0
O130 O 0.39055 0.96897 0.21486 0.0
C131 C 0.38401 0.82402 0.24863 0.0
Zn132 Zn 0.21676 0.84425 0.45858 0.0
Zn133 Zn 0.24206 0.90467 0.4989 0.0
O134 O 0.31328 0.89642 0.48413 0.0
O135 O 0.29429 0.85341 0.44959 0.0
O136 O 0.25771 0.94626 0.5296 0.0
O137 O 0.18584 0.78978 0.48116 0.0
O138 O 0.20586 0.84138 0.51277 0.0
C139 C 0.32686 0.87836 0.46333 0.0
C140 C 0.16814 0.94486 0.45824 0.0
O141 O 0.19524 0.95177 0.47797 0.0
O142 O 0.16852 0.90147 0.44669 0.0
C143 C 0.26258 0.99553 0.53085 0.0
O144 O 0.25967 0.02274 0.5107 0.0
C145 C 0.18488 0.79979 0.50407 0.0
Zn146 Zn 0.33613 0.69608 0.72423 0.0
Zn147 Zn 0.26206 0.69019 0.75653 0.0
O148 O 0.26004 0.76819 0.74835 0.0
O149 O 0.31751 0.77153 0.7189 0.0
O150 O 0.2079 0.68301 0.78283 0.0
O151 O 0.39161 0.67519 0.74803 0.0
O152 O 0.32938 0.6614 0.77378 0.0
C153 C 0.2835 0.79359 0.73206 0.0
C154 C 0.25477 0.62904 0.70745 0.0
O155 O 0.23359 0.64626 0.727 0.0
O156 O 0.30164 0.64044 0.70308 0.0
C157 C 0.16784 0.7119 0.78536 0.0
O158 O 0.15777 0.7487 0.76953 0.0
C159 C 0.37786 0.6601 0.76881 0.0
Zn160 Zn 0.85925 0.23936 0.54713 0.0
Zn161 Zn 0.93839 0.23437 0.51392 0.0
O162 O 0.92799 0.31143 0.52119 0.0
O163 O 0.86679 0.31831 0.54885 0.0
O164 O 0.99353 0.23791 0.48815 0.0
O165 O 0.81236 0.20133 0.52233 0.0
O166 O 0.8782 0.19342 0.49704 0.0
C167 C 0.90087 0.33912 0.53573 0.0
C168 C 0.95417 0.18893 0.56472 0.0
O169 O 0.97213 0.20013 0.54384 0.0
O170 O 0.90704 0.19857 0.56981 0.0
C171 C 0.03512 0.26406 0.49231 0.0
O172 O 0.04393 0.28579 0.51406 0.0
C173 C 0.83092 0.18436 0.50233 0.0
Zn174 Zn 0.94734 0.30893 0.79726 0.0
Zn175 Zn 0.95522 0.39217 0.76769 0.0
O176 O 0.87602 0.38113 0.77219 0.0
O177 O 0.86893 0.31289 0.79536 0.0
O178 O 0.95871 0.44985 0.74261 0.0
O179 O 0.98891 0.26411 0.77447 0.0
O180 O 0.99959 0.33356 0.75186 0.0
C181 C 0.84734 0.3489 0.78326 0.0
C182 C -3e-05 0.39855 0.81964 0.0
O183 O 0.99011 0.42069 0.79932 0.0
O184 O 0.98615 0.35197 0.82314 0.0
C185 C 0.92691 0.48787 0.7409 0.0
O186 O 0.8896 0.49352 0.75689 0.0
C187 C 0.00929 0.28594 0.75646 0.0
Zn188 Zn 0.84922 0.44276 0.06144 0.0
Zn189 Zn 0.7671 0.44751 0.03032 0.0
O190 O 0.77284 0.37024 0.03757 0.0
O191 O 0.83721 0.36443 0.06485 0.0
O192 O 0.7138 0.44452 0.00281 0.0
O193 O 0.89753 0.47499 0.03698 0.0
O194 O 0.82625 0.48899 0.01476 0.0
C195 C 0.80052 0.34327 0.05218 0.0
C196 C 0.75919 0.50024 0.07988 0.0
O197 O 0.73653 0.48528 0.05983 0.0
O198 O 0.80737 0.49124 0.08374 0.0
C199 C 0.6666 0.42914 0.00286 0.0
O200 O 0.64468 0.41807 0.02369 0.0
C201 C 0.87502 0.49578 0.01869 0.0
Zn202 Zn 0.79764 0.31439 0.24548 0.0
Zn203 Zn 0.73126 0.25402 0.26901 0.0
O204 O 0.68404 0.31651 0.26087 0.0
O205 O 0.736 0.36249 0.23797 0.0
O206 O 0.6898 0.20932 0.29131 0.0
O207 O 0.8471 0.32435 0.27468 0.0
O208 O 0.79814 0.26328 0.29012 0.0
C209 C 0.69148 0.35509 0.24702 0.0
C210 C 0.78139 0.21131 0.22325 0.0
O211 O 0.74528 0.20807 0.23885 0.0
O212 O 0.81135 0.25066 0.22358 0.0
C213 C 0.6444 0.19005 0.28803 0.0
O214 O 0.61766 0.19896 0.26766 0.0
C215 C 0.83906 0.29147 0.29114 0.0
C216 C 0.25843 0.06579 0.33521 0.0
C217 C 0.2229 0.08949 0.3184 0.0
C218 C 0.26054 0.0389 0.28427 0.0
C219 C 0.2968 0.01641 0.30106 0.0
N220 N 0.33945 0.01832 0.34103 0.0
N221 N 0.19636 0.1069 0.27667 0.0
C222 C 0.29864 0.03308 0.32608 0.0
C223 C 0.22599 0.07863 0.29279 0.0
N224 N 0.25191 0.07174 0.35999 0.0
N225 N 0.25751 0.02064 0.26049 0.0
H226 H 0.17087 0.13625 0.28243 0.0
H227 H 0.20024 0.10457 0.25768 0.0
H228 H 0.28268 0.99221 0.25356 0.0
H229 H 0.22806 0.03108 0.24804 0.0
H230 H 0.27264 0.05029 0.37299 0.0
H231 H 0.22271 0.09478 0.36764 0.0
H232 H 0.34585 0.03358 0.35874 0.0
H233 H 0.3699 0.9947 0.33489 0.0
C234 C 0.12958 0.67863 0.53378 0.0
C235 C 0.10347 0.70126 0.55416 0.0
C236 C 0.12138 0.78787 0.53823 0.0
C237 C 0.15572 0.76539 0.52071 0.0
N238 N 0.19947 0.68825 0.50519 0.0
N239 N 0.08294 0.779 0.57804 0.0
C240 C 0.16163 0.71038 0.51931 0.0
C241 C 0.10141 0.75636 0.55701 0.0
N242 N 0.12256 0.62706 0.52772 0.0
N243 N 0.1059 0.83869 0.53644 0.0
H244 H 0.06955 0.75773 0.5927 0.0
H245 H 0.08591 0.81891 0.58189 0.0
H246 H 0.11654 0.86238 0.52206 0.0
H247 H 0.07742 0.8553 0.54753 0.0
H248 H 0.13716 0.60987 0.51177 0.0
H249 H 0.09703 0.60311 0.537 0.0
H250 H 0.20837 0.64858 0.50551 0.0
H251 H 0.22576 0.70997 0.49527 0.0
C252 C 0.43366 0.5794 0.82172 0.0
C253 C 0.47758 0.55701 0.80976 0.0
C254 C 0.46539 0.61679 0.77589 0.0
C255 C 0.41699 0.63369 0.78545 0.0
N256 N 0.36687 0.64718 0.82186 0.0
N257 N 0.52604 0.54545 0.77257 0.0
C258 C 0.40384 0.61903 0.80961 0.0
C259 C 0.49032 0.57289 0.78593 0.0
N260 N 0.42079 0.56341 0.8446 0.0
N261 N 0.49067 0.64555 0.75901 0.0
H262 H 0.54371 0.51143 0.7789 0.0
H263 H 0.53324 0.55316 0.75423 0.0
H264 H 0.4795 0.68345 0.75478 0.0
H265 H 0.5277 0.63592 0.75276 0.0
H266 H 0.38657 0.57379 0.85335 0.0
H267 H 0.44311 0.53737 0.85476 0.0
H268 H 0.35618 0.64103 0.83987 0.0
H269 H 0.351 0.68149 0.81496 0.0
C270 C 0.544 0.94076 0.06464 0.0
C271 C 0.59741 0.95313 0.06127 0.0
C272 C 0.60606 0.87717 0.03355 0.0
C273 C 0.55119 0.87022 0.03397 0.0
N274 N 0.46694 0.89448 0.04931 0.0
N275 N 0.67956 0.93508 0.04204 0.0
C276 C 0.51992 0.90143 0.04956 0.0
C277 C 0.62889 0.92131 0.04593 0.0
N278 N 0.51668 0.96582 0.08269 0.0
N279 N 0.63606 0.8417 0.02116 0.0
H280 H 0.6976 0.96711 0.05079 0.0
H281 H 0.70284 0.91701 0.02895 0.0
H282 H 0.62016 0.80949 0.01162 0.0
H283 H 0.67671 0.84159 0.02199 0.0
H284 H 0.47946 0.9548 0.08783 0.0
H285 H 0.53298 0.9948 0.09422 0.0
H286 H 0.44114 0.92025 0.05773 0.0
H287 H 0.44831 0.86405 0.03953 0.0
C288 C 0.2322 0.73188 0.98125 0.0
C289 C 0.22478 0.7049 0.95835 0.0
C290 C 0.31894 0.7053 0.95203 0.0
C291 C 0.32589 0.73703 0.97351 0.0
N292 N 0.28994 0.78498 0.00764 0.0
N293 N 0.25969 0.67677 0.91933 0.0
C294 C 0.28271 0.75164 0.98792 0.0
C295 C 0.26777 0.69441 0.94302 0.0
N296 N 0.19147 0.73701 0.99691 0.0
N297 N 0.36132 0.68456 0.94049 0.0
H298 H 0.22267 0.67033 0.91146 0.0
H299 H 0.2894 0.67385 0.90662 0.0
H300 H 0.39967 0.69115 0.94666 0.0
H301 H 0.35827 0.65673 0.92629 0.0
H302 H 0.19548 0.75168 0.01484 0.0
H303 H 0.15413 0.72274 0.99263 0.0
H304 H 0.2594 0.80157 0.01739 0.0
H305 H 0.32675 0.79878 0.01328 0.0
C306 C 0.44836 0.73602 0.20129 0.0
C307 C 0.4114 0.69518 0.1986 0.0
C308 C 0.35136 0.74439 0.22489 0.0
C309 C 0.39181 0.78084 0.23055 0.0
N310 N 0.48375 0.80303 0.22844 0.0
N311 N 0.32909 0.6574 0.20959 0.0
C312 C 0.44162 0.7747 0.21982 0.0
C313 C 0.36294 0.69861 0.2107 0.0
N314 N 0.48958 0.73848 0.18585 0.0
N315 N 0.30186 0.75403 0.23264 0.0
H316 H 0.33626 0.62331 0.19942 0.0
H317 H 0.29586 0.65543 0.2202 0.0
H318 H 0.29219 0.78745 0.24284 0.0
H319 H 0.2697 0.73144 0.22713 0.0
H320 H 0.51474 0.77042 0.1856 0.0
H321 H 0.49507 0.71157 0.17148 0.0
H322 H 0.52167 0.79597 0.22267 0.0
H323 H 0.4824 0.82921 0.24333 0.0
C324 C 0.43977 0.96353 0.443 0.0
C325 C 0.47067 0.92607 0.43044 0.0
C326 C 0.41194 0.85625 0.44323 0.0
C327 C 0.37803 0.89427 0.45342 0.0
N328 N 0.35527 0.98561 0.45894 0.0
N329 N 0.48372 0.83722 0.41622 0.0
C330 C 0.39099 0.9483 0.4525 0.0
C331 C 0.45596 0.87254 0.42982 0.0
N332 N 0.45632 0.01414 0.4455 0.0
N333 N 0.40316 0.80456 0.4472 0.0
H334 H 0.51766 0.84685 0.4072 0.0
H335 H 0.4713 0.79911 0.41254 0.0
H336 H 0.37198 0.79143 0.45739 0.0
H337 H 0.42927 0.77509 0.44246 0.0
H338 H 0.43936 0.0412 0.45744 0.0
H339 H 0.48907 0.02865 0.43694 0.0
H340 H 0.35988 0.0251 0.45549 0.0
H341 H 0.31853 0.97747 0.46562 0.0
C342 C 0.2398 0.90581 0.69292 0.0
C343 C 0.24347 0.94856 0.7099 0.0
C344 C 0.27259 0.88939 0.74236 0.0
C345 C 0.26585 0.84662 0.72563 0.0
N346 N 0.22907 0.81263 0.68729 0.0
N347 N 0.25351 0.98035 0.75177 0.0
C348 C 0.24501 0.85441 0.70163 0.0
C349 C 0.25695 0.94015 0.73497 0.0
N350 N 0.23462 0.91416 0.66826 0.0
N351 N 0.29575 0.88188 0.76488 0.0
H352 H 0.24171 0.0178 0.74698 0.0
H353 H 0.25784 0.9756 0.77066 0.0
H354 H 0.30709 0.84518 0.77094 0.0
H355 H 0.30705 0.9123 0.77684 0.0
H356 H 0.2374 0.88445 0.65498 0.0
H357 H 0.23316 0.9512 0.66081 0.0
H358 H 0.20876 0.81645 0.67062 0.0
H359 H 0.23109 0.77425 0.69323 0.0
C360 C 0.72879 0.43194 0.79258 0.0
C361 C 0.70895 0.40604 0.81324 0.0
C362 C 0.76162 0.32926 0.80285 0.0
C363 C 0.79039 0.36001 0.78671 0.0
N364 N 0.78226 0.42572 0.75627 0.0
N365 N 0.70444 0.32826 0.83751 0.0
C366 C 0.76819 0.40717 0.77845 0.0
C367 C 0.72368 0.35361 0.81786 0.0
N368 N 0.71064 0.4804 0.78683 0.0
N369 N 0.76904 0.27655 0.80289 0.0
H370 H 0.67643 0.3443 0.84896 0.0
H371 H 0.71886 0.29258 0.84344 0.0
H372 H 0.79324 0.25785 0.79028 0.0
H373 H 0.7464 0.25117 0.81285 0.0
H374 H 0.72775 0.50408 0.77398 0.0
H375 H 0.67888 0.4977 0.79549 0.0
H376 H 0.76575 0.4584 0.74818 0.0
H377 H 0.80599 0.40391 0.74458 0.0
C378 C 0.73508 0.23864 0.0888 0.0
C379 C 0.73731 0.19512 0.07228 0.0
C380 C 0.78675 0.24732 0.04343 0.0
C381 C 0.78047 0.29165 0.05909 0.0
N382 N 0.73856 0.33246 0.09389 0.0
N383 N 0.75906 0.15895 0.03257 0.0
C384 C 0.75168 0.28817 0.08097 0.0
C385 C 0.7616 0.19965 0.04921 0.0
N386 N 0.71961 0.23234 0.11245 0.0
N387 N 0.81751 0.25067 0.02335 0.0
H388 H 0.74063 0.12375 0.03619 0.0
H389 H 0.7714 0.16131 0.01455 0.0
H390 H 0.83568 0.2853 0.01856 0.0
H391 H 0.82812 0.21863 0.0125 0.0
H392 H 0.72202 0.26184 0.12589 0.0
H393 H 0.70921 0.19642 0.11947 0.0
H394 H 0.71254 0.33276 0.10831 0.0
H395 H 0.7496 0.36976 0.08879 0.0
C396 C 0.94308 0.29508 0.34241 0.0
C397 C 0.9669 0.24556 0.33849 0.0
C398 C 0.90889 0.22849 0.30287 0.0
C399 C 0.88267 0.27631 0.30774 0.0
N400 N 0.8693 0.35206 0.33369 0.0
N401 N 0.96473 0.16036 0.31874 0.0
C402 C 0.89819 0.30882 0.32798 0.0
C403 C 0.94761 0.2109 0.31977 0.0
N404 N 0.96448 0.32967 0.35926 0.0
N405 N 0.89823 0.20071 0.28157 0.0
H406 H 0.99228 0.14545 0.33114 0.0
H407 H 0.94786 0.13178 0.3072 0.0
H408 H 0.87033 0.21208 0.26849 0.0
H409 H 0.92035 0.16886 0.27575 0.0
H410 H 0.95261 0.36836 0.36109 0.0
H411 H 0.99679 0.3208 0.37038 0.0
H412 H 0.87505 0.37447 0.34971 0.0
H413 H 0.83679 0.36341 0.32319 0.0
C414 C 0.98694 0.45546 0.55203 0.0
C415 C 0.94934 0.49537 0.55496 0.0
C416 C 0.88084 0.43502 0.53991 0.0
C417 C 0.9173 0.39351 0.54111 0.0
N418 N 0.00287 0.36328 0.5545 0.0
N419 N 0.8587 0.52204 0.55442 0.0
C420 C 0.96995 0.40339 0.54865 0.0
C421 C 0.89572 0.4852 0.54937 0.0
N422 N 0.03899 0.46733 0.55235 0.0
N423 N 0.83242 0.42668 0.5295 0.0
H424 H 0.86765 0.55896 0.5617 0.0
H425 H 0.81873 0.5145 0.55324 0.0
H426 H 0.82059 0.39036 0.52235 0.0
H427 H 0.80599 0.45662 0.52597 0.0
H428 H 0.06772 0.43996 0.54812 0.0
H429 H 0.05283 0.50556 0.55409 0.0
H430 H 0.04002 0.36923 0.5623 0.0
H431 H 0.99126 0.32431 0.55441 0.0
C432 C 0.75313 0.1372 0.44566 0.0
C433 C 0.72532 0.09503 0.45562 0.0
C434 C 0.77572 0.10513 0.4942 0.0
C435 C 0.79747 0.15201 0.48554 0.0
N436 N 0.80267 0.21632 0.45395 0.0
N437 N 0.70565 0.04189 0.49027 0.0
C438 C 0.78544 0.16889 0.46142 0.0
C439 C 0.73567 0.07943 0.48008 0.0
N440 N 0.74973 0.14605 0.421 0.0
N441 N 0.79441 0.0844 0.5156 0.0
H442 H 0.67579 0.02216 0.4806 0.0
H443 H 0.70748 0.03328 0.50888 0.0
H444 H 0.82448 0.10161 0.52621 0.0
H445 H 0.78382 0.04764 0.52157 0.0
H446 H 0.77312 0.17287 0.41229 0.0
H447 H 0.72727 0.1229 0.40879 0.0
H448 H 0.79016 0.23319 0.4376 0.0
H449 H 0.82611 0.24099 0.46497 0.0
C450 C 0.06621 0.17682 0.71804 0.0
C451 C 0.12062 0.18552 0.72226 0.0
C452 C 0.10195 0.26517 0.74615 0.0
C453 C 0.04767 0.25617 0.742 0.0
N454 N 0.97814 0.21166 0.7198 0.0
N455 N 0.19097 0.24238 0.73574 0.0
C456 C 0.02982 0.21436 0.72667 0.0
C457 C 0.13872 0.23136 0.73474 0.0
N458 N 0.04923 0.13241 0.70594 0.0
N459 N 0.11821 0.30431 0.76201 0.0
H460 H 0.21902 0.21737 0.7284 0.0
H461 H 0.20634 0.27777 0.74225 0.0
H462 H 0.09257 0.3306 0.77027 0.0
H463 H 0.15673 0.30908 0.76818 0.0
H464 H 0.01045 0.12022 0.70534 0.0
H465 H 0.07409 0.10656 0.69689 0.0
H466 H 0.96309 0.18541 0.7066 0.0
H467 H 0.95075 0.23905 0.72572 0.0
C468 C 0.92742 0.56464 0.96284 0.0
C469 C 0.96395 0.59959 0.97427 0.0
C470 C 0.93396 0.5734 0.01458 0.0
C471 C 0.90447 0.53214 0.0032 0.0
N472 N 0.87891 0.48422 0.96611 0.0
N473 N 0.00792 0.63118 0.01151 0.0
C474 C 0.90243 0.52673 0.97718 0.0
C475 C 0.96869 0.60266 0.00029 0.0
N476 N 0.91563 0.56859 0.93834 0.0
N477 N 0.92738 0.58618 0.03883 0.0
H478 H 0.03506 0.65251 0.00191 0.0
H479 H 0.0164 0.62975 0.0303 0.0
H480 H 0.90054 0.56753 0.04975 0.0
H481 H 0.94423 0.61914 0.04731 0.0
H482 H 0.88593 0.54724 0.92942 0.0
H483 H 0.93179 0.59737 0.92758 0.0
H484 H 0.88103 0.4758 0.94735 0.0
H485 H 0.86166 0.45458 0.97593 0.0
C486 C 0.6216 0.48053 0.23135 0.0
C487 C 0.5726 0.46202 0.22185 0.0
C488 C 0.60101 0.37203 0.22907 0.0
C489 C 0.64795 0.39115 0.24056 0.0
N490 N 0.69592 0.46411 0.25834 0.0
N491 N 0.51168 0.39089 0.21627 0.0
C492 C 0.65592 0.4456 0.24353 0.0
C493 C 0.56105 0.40793 0.22216 0.0
N494 N 0.63734 0.53052 0.22732 0.0
N495 N 0.59561 0.32008 0.22339 0.0
H496 H 0.48146 0.41614 0.2113 0.0
H497 H 0.49955 0.35257 0.21857 0.0
H498 H 0.62416 0.29242 0.22746 0.0
H499 H 0.56476 0.305 0.21262 0.0
H500 H 0.67488 0.54394 0.23172 0.0
H501 H 0.61559 0.55682 0.21695 0.0
H502 H 0.70041 0.50352 0.26303 0.0
H503 H 0.72112 0.43964 0.26807 0.0
C504 C 0.07149 0.0415 0.43061 0.0
C505 C 0.10684 0.07634 0.41984 0.0
C506 C 0.18099 0.02399 0.43373 0.0
C507 C 0.14623 0.99058 0.44574 0.0
N508 N 0.05954 0.97029 0.45878 0.0
N509 N 0.19495 0.10906 0.41706 0.0
C510 C 0.09165 0.00017 0.44516 0.0
C511 C 0.16152 0.07017 0.42326 0.0
N512 N 0.01902 0.04721 0.42635 0.0
N513 N 0.23224 0.01028 0.43118 0.0
H514 H 0.18235 0.14393 0.40943 0.0
H515 H 0.23467 0.10888 0.42166 0.0
H516 H 0.24781 0.97558 0.43776 0.0
H517 H 0.25798 0.03058 0.42035 0.0
H518 H 0.99128 0.02019 0.43155 0.0
H519 H 0.00337 0.07792 0.41629 0.0
H520 H 0.02004 0.97811 0.46103 0.0
H521 H 0.07341 0.93943 0.46928 0.0
C522 C 0.19622 0.58745 0.6453 0.0
C523 C 0.15433 0.5561 0.65256 0.0
C524 C 0.18906 0.55973 0.69488 0.0
C525 C 0.22304 0.60069 0.68834 0.0
N526 N 0.25041 0.66063 0.65711 0.0
N527 N 0.10902 0.51283 0.68483 0.0
C528 C 0.22516 0.61603 0.66341 0.0
C529 C 0.1506 0.54141 0.67746 0.0
N530 N 0.20693 0.59126 0.62096 0.0
N531 N 0.19394 0.53795 0.71749 0.0
H532 H 0.08048 0.49788 0.67268 0.0
H533 H 0.10105 0.50687 0.70323 0.0
H534 H 0.2227 0.54945 0.73038 0.0
H535 H 0.17311 0.50505 0.72244 0.0
H536 H 0.23963 0.61073 0.61472 0.0
H537 H 0.18619 0.56987 0.6074 0.0
H538 H 0.2485 0.67532 0.63941 0.0
H539 H 0.26763 0.68664 0.66983 0.0
C540 C 0.61624 0.62803 0.91151 0.0
C541 C 0.57929 0.61594 0.89261 0.0
C542 C 0.5212 0.68466 0.90707 0.0
C543 C 0.55394 0.69119 0.92846 0.0
N544 N 0.63477 0.67381 0.95037 0.0
N545 N 0.51121 0.64678 0.86597 0.0
C546 C 0.6027 0.66485 0.9303 0.0
C547 C 0.53664 0.64936 0.88828 0.0
N548 N 0.66448 0.60567 0.91077 0.0
N549 N 0.47331 0.70826 0.9056 0.0
H550 H 0.52389 0.62178 0.85196 0.0
H551 H 0.48217 0.67277 0.86048 0.0
H552 H 0.4592 0.73401 0.91891 0.0
H553 H 0.44539 0.69937 0.89193 0.0
H554 H 0.69497 0.61456 0.92312 0.0
H555 H 0.67533 0.5815 0.8961 0.0
H556 H 0.66823 0.65219 0.95427 0.0
H557 H 0.62692 0.70246 0.9637 0.0
C558 C 0.52707 0.06571 0.1805 0.0
C559 C 0.54469 0.02738 0.16336 0.0
C560 C 0.49063 0.96103 0.18221 0.0
C561 C 0.47192 -0.00038 0.19888 0.0
N562 N 0.46394 0.08979 0.2114 0.0
N563 N 0.53567 0.9417 0.14448 0.0
C564 C 0.48745 0.05243 0.19718 0.0
C565 C 0.524 0.97601 0.16316 0.0
N566 N 0.55034 0.11372 0.18183 0.0
N567 N 0.47857 0.90962 0.18531 0.0
H568 H 0.56077 0.95083 0.1304 0.0
H569 H 0.51715 0.90584 0.1417 0.0
H570 H 0.45337 0.89692 0.19871 0.0
H571 H 0.49637 0.87903 0.1758 0.0
H572 H 0.5436 0.14119 0.19576 0.0
H573 H 0.57941 0.12499 0.16995 0.0
H574 H 0.46957 0.12965 0.20936 0.0
H575 H 0.43528 0.08099 0.22399 0.0
C576 C 0.0926 0.73174 0.84468 0.0
C577 C 0.07865 0.67937 0.84933 0.0
C578 C 0.11033 0.65294 0.80867 0.0
C579 C 0.13247 0.70301 0.80609 0.0
N580 N 0.14908 0.78962 0.82283 0.0
N581 N 0.08339 0.58783 0.83694 0.0
C582 C 0.1243 0.74262 0.82426 0.0
C583 C 0.08928 0.6393 0.83153 0.0
N584 N 0.07503 0.77112 0.85966 0.0
N585 N 0.10895 0.61842 0.78915 0.0
H586 H 0.07096 0.57485 0.85376 0.0
H587 H 0.0962 0.55748 0.82553 0.0
H588 H 0.12344 0.62742 0.77199 0.0
H589 H 0.08847 0.58331 0.78924 0.0
H590 H 0.0797 0.81048 0.85591 0.0
H591 H 0.05121 0.7644 0.87456 0.0
H592 H 0.14932 0.81766 0.83697 0.0
H593 H 0.17305 0.7991 0.80837 0.0
C594 C 0.50978 0.53404 0.0741 0.0
C595 C 0.46471 0.53587 0.08895 0.0
C596 C 0.41696 0.58396 0.05691 0.0
C597 C 0.4641 0.58845 0.04383 0.0
N598 N 0.55486 0.56731 0.03885 0.0
N599 N 0.37469 0.55898 0.09446 0.0
C600 C 0.51019 0.56273 0.05197 0.0
C601 C 0.41784 0.55916 0.08011 0.0
N602 N 0.55238 0.50539 0.08122 0.0
N603 N 0.3716 0.60419 0.04734 0.0
H604 H 0.37306 0.53782 0.11059 0.0
H605 H 0.34103 0.58055 0.09099 0.0
H606 H 0.36981 0.62535 0.03122 0.0
H607 H 0.3349 0.59788 0.05449 0.0
H608 H 0.58431 0.49807 0.0702 0.0
H609 H 0.55498 0.48557 0.09765 0.0
H610 H 0.59168 0.55573 0.04511 0.0
H611 H 0.55562 0.58497 0.02178 0.0
C612 C 0.62347 0.90315 0.33657 0.0
C613 C 0.61728 0.87081 0.35692 0.0
C614 C 0.54228 0.83065 0.33549 0.0
C615 C 0.53688 0.87654 0.32129 0.0
N616 N 0.57767 0.95643 0.30735 0.0
N617 N 0.58288 0.79017 0.37117 0.0
C618 C 0.5797 0.9121 0.32081 0.0
C619 C 0.58079 0.82957 0.35476 0.0
N620 N 0.67047 0.92637 0.33303 0.0
N621 N 0.51195 0.78798 0.32992 0.0
H622 H 0.61475 0.78585 0.38328 0.0
H623 H 0.55353 0.76243 0.37276 0.0
H624 H 0.48653 0.78648 0.31465 0.0
H625 H 0.51605 0.75242 0.33861 0.0
H626 H 0.67845 0.94756 0.31743 0.0
H627 H 0.70273 0.91894 0.34454 0.0
H628 H 0.60672 0.98486 0.30854 0.0
H629 H 0.54569 0.9679 0.29672 0.0
C630 C 0.22999 0.02667 0.59702 0.0
C631 C 0.26224 0.07081 0.60232 0.0
C632 C 0.30101 0.06068 0.5617 0.0
C633 C 0.26306 0.02202 0.5553 0.0
N634 N 0.18257 0.97867 0.56518 0.0
N635 N 0.32599 0.13272 0.58923 0.0
C636 C 0.2254 0.00745 0.57254 0.0
C637 C 0.29712 0.08869 0.58449 0.0
N638 N 0.20224 0.00371 0.61501 0.0
N639 N 0.34164 0.06937 0.54649 0.0
H640 H 0.32607 0.15241 0.60622 0.0
H641 H 0.34753 0.15117 0.57594 0.0
H642 H 0.34631 0.0488 0.52994 0.0
H643 H 0.37314 0.0935 0.55128 0.0
H644 H 0.18353 0.96784 0.61237 0.0
H645 H 0.20071 0.01785 0.633 0.0
H646 H 0.1513 0.9717 0.57656 0.0
H647 H 0.17478 0.96727 0.54696 0.0
C648 C 0.63678 0.45366 0.93664 0.0
C649 C 0.60802 0.40883 0.92892 0.0
C650 C 0.61259 0.37689 0.97104 0.0
C651 C 0.63787 0.42418 0.97888 0.0
N652 N 0.65749 0.51375 0.97011 0.0
N653 N 0.56002 0.3321 0.93926 0.0
C654 C 0.64442 0.46456 0.96197 0.0
C655 C 0.59275 0.37197 0.94634 0.0
N656 N 0.65994 0.48438 0.9199 0.0
N657 N 0.61074 0.33547 0.98634 0.0
H658 H 0.54615 0.32707 0.92118 0.0
H659 H 0.54345 0.30685 0.95163 0.0
H660 H 0.6258 0.33651 0.00427 0.0
H661 H 0.59799 0.29852 0.98059 0.0
H662 H 0.68842 0.51171 0.92517 0.0
H663 H 0.65578 0.47842 0.90096 0.0
H664 H 0.65868 0.54542 0.95844 0.0
H665 H 0.66121 0.52378 0.98876 0.0
C666 C 0.77574 0.07672 0.193 0.0
C667 C 0.78245 0.08937 0.16811 0.0
C668 C 0.79616 0.18091 0.17943 0.0
C669 C 0.78803 0.169 0.20449 0.0
N670 N 0.78976 0.10322 0.23565 0.0
N671 N 0.8186 0.14725 0.13902 0.0
C672 C 0.78428 0.11601 0.21149 0.0
C673 C 0.80041 0.13936 0.16202 0.0
N674 N 0.75825 0.02839 0.19886 0.0
N675 N 0.79493 0.23128 0.17168 0.0
H676 H 0.82126 0.11674 0.12607 0.0
H677 H 0.83585 0.18201 0.13384 0.0
H678 H 0.78624 0.2632 0.18298 0.0
H679 H 0.79699 0.24114 0.15328 0.0
H680 H 0.74623 0.01913 0.21639 0.0
H681 H 0.75355 0.99826 0.18582 0.0
H682 H 0.79129 0.06484 0.24151 0.0
H683 H 0.79862 0.13077 0.24951 0.0
C684 C 0.14169 0.25831 0.44494 0.0
C685 C 0.11936 0.29179 0.42717 0.0
C686 C 0.05344 0.31995 0.45641 0.0
C687 C 0.06835 0.27784 0.4716 0.0
N688 N 0.12857 0.20891 0.48179 0.0
N689 N 0.07446 0.37285 0.42142 0.0
C690 C 0.11378 0.24824 0.46659 0.0
C691 C 0.08148 0.32865 0.43462 0.0
N692 N 0.19035 0.23818 0.44141 0.0
N693 N 0.01125 0.35003 0.46229 0.0
H694 H 0.09851 0.38158 0.40684 0.0
H695 H 0.04981 0.40329 0.42651 0.0
H696 H 0.99127 0.34614 0.47864 0.0
H697 H 0.99458 0.37729 0.45059 0.0
H698 H 0.21055 0.21605 0.45432 0.0
H699 H 0.21289 0.24923 0.42666 0.0
H700 H 0.1575 0.18186 0.47754 0.0
H701 H 0.10976 0.20161 0.49816 0.0
C702 C 0.98206 0.58021 0.69445 0.0
C703 C 0.9449 0.57356 0.67486 0.0
C704 C 0.8909 0.51877 0.70032 0.0
C705 C 0.92945 0.52272 0.71951 0.0
N706 N 0.0045 0.56673 0.73755 0.0
N707 N 0.85827 0.55055 0.66107 0.0
C708 C 0.97268 0.55683 0.71746 0.0
C709 C 0.89717 0.54773 0.67861 0.0
N710 N 0.02747 0.60645 0.69054 0.0
N711 N 0.85029 0.48461 0.70209 0.0
H712 H 0.8626 0.57181 0.6451 0.0
H713 H 0.82062 0.53644 0.66333 0.0
H714 H 0.84456 0.46242 0.71757 0.0
H715 H 0.82424 0.47548 0.68767 0.0
H716 H 0.05896 0.60799 0.70297 0.0
H717 H 0.03441 0.62559 0.67424 0.0
H718 H 0.03431 0.59433 0.73805 0.0
H719 H 0.99834 0.55006 0.75456 0.0
C720 C 0.64764 0.0811 0.33358 0.0
C721 C 0.5987 0.0872 0.34499 0.0
C722 C 0.5779 0.16091 0.31851 0.0
C723 C 0.62546 0.15237 0.30608 0.0
N724 N 0.6979 0.09526 0.2973 0.0
N725 N 0.51337 0.12648 0.34593 0.0
C726 C 0.6581 0.10977 0.31232 0.0
C727 C 0.56247 0.12505 0.33664 0.0
N728 N 0.68472 0.04864 0.3433 0.0
N729 N 0.54884 0.20447 0.3139 0.0
H730 H 0.50158 0.1017 0.35971 0.0
H731 H 0.48336 0.14945 0.33878 0.0
H732 H 0.55897 0.23167 0.30088 0.0
H733 H 0.51687 0.21573 0.32422 0.0
H734 H 0.72307 0.04731 0.33734 0.0
H735 H 0.67862 0.02605 0.35865 0.0
H736 H 0.71956 0.06123 0.29959 0.0
H737 H 0.70552 0.11398 0.28094 0.0
C738 C 0.02618 0.18098 0.62627 0.0
C739 C 0.06416 0.14232 0.62103 0.0
C740 C 0.02249 0.12697 0.58044 0.0
C741 C 0.99022 0.17106 0.58441 0.0
N742 N 0.97033 0.24756 0.60941 0.0
N743 N 0.10422 0.08526 0.59087 0.0
C744 C 0.99415 0.20003 0.60692 0.0
C745 C 0.06368 0.11661 0.59758 0.0
N746 N 0.02018 0.19926 0.6498 0.0
N747 N 0.01349 0.09462 0.5605 0.0
H748 H 0.13644 0.07873 0.6023 0.0
H749 H 0.10843 0.0703 0.57307 0.0
H750 H 0.98322 0.10077 0.54772 0.0
H751 H 0.03273 0.05914 0.55802 0.0
H752 H 0.98957 0.2237 0.65493 0.0
H753 H 0.04236 0.18565 0.6646 0.0
H754 H 0.97669 0.27232 0.62463 0.0
H755 H 0.94903 0.26509 0.59528 0.0
C756 C 0.0972 0.4499 0.86789 0.0
C757 C 0.06348 0.47959 0.88302 0.0
C758 C 0.98838 0.45573 0.85646 0.0
C759 C 0.02248 0.42871 0.84055 0.0
N760 N 0.1094 0.40485 0.82867 0.0
N761 N 0.97954 0.52108 0.88865 0.0
C762 C 0.07704 0.42721 0.84553 0.0
C763 C 0.00969 0.48523 0.87655 0.0
N764 N 0.14802 0.44247 0.87526 0.0
N765 N 0.93544 0.45247 0.85264 0.0
H766 H 0.99365 0.54483 0.90307 0.0
H767 H 0.94188 0.53113 0.88286 0.0
H768 H 0.91812 0.43304 0.83749 0.0
H769 H 0.90855 0.46577 0.8654 0.0
H770 H 0.17353 0.41722 0.86634 0.0
H771 H 0.16379 0.45888 0.89151 0.0
H772 H 0.14997 0.40682 0.82996 0.0
H773 H 0.09554 0.38738 0.81229 0.0
C774 C 0.65182 0.57748 0.1102 0.0
C775 C 0.65157 0.55396 0.13351 0.0
C776 C 0.72794 0.50178 0.12343 0.0
C777 C 0.72773 0.52402 0.09966 0.0
N778 N 0.70014 0.5937 0.07332 0.0
N779 N 0.69828 0.50911 0.16534 0.0
C780 C 0.69318 0.56563 0.09403 0.0
C781 C 0.69322 0.52176 0.14115 0.0
N782 N 0.61103 0.60829 0.1029 0.0
N783 N 0.7574 0.45867 0.12855 0.0
H784 H 0.67267 0.52348 0.1785 0.0
H785 H 0.73048 0.48935 0.17259 0.0
H786 H 0.78207 0.44045 0.11613 0.0
H787 H 0.75376 0.43769 0.14459 0.0
H788 H 0.60571 0.6211 0.08499 0.0
H789 H 0.58081 0.61889 0.11449 0.0
H790 H 0.67885 0.62713 0.06922 0.0
H791 H 0.73084 0.58644 0.06144 0.0
loop_
_geom_bond_atom_site_label_1
_geom_bond_atom_site_label_2
_geom_bond_distance
_geom_bond_site_symmetry_2
_ccdc_geom_bond_type
Mg0 O7 2.141 . S
Mg0 O8 2.048 . S
Mg0 O9 2.048 . S
Mg0 O12 2.141 . S
C1 O2 1.313 . S
C1 O8 1.195 . S
O2 C1 1.313 . S
C3 O4 1.245 . S
C3 O12 1.289 . S
O4 C3 1.245 . S
C5 O6 1.245 . S
C5 O7 1.289 . S
O6 C5 1.245 . S
O7 Mg0 2.141 . S
O7 C5 1.289 . S
O8 Mg0 2.048 . S
O8 C1 1.195 . S
O9 Mg0 2.048 . S
O9 C10 1.195 . S
C10 O9 1.195 . S
C10 O11 1.313 . S
O11 C10 1.313 . S
O12 Mg0 2.141 . S
O12 C3 1.289 . S
Mg13 O20 2.141 . S
Mg13 O21 2.048 . S
Mg13 O22 2.048 1_455 S
Mg13 O25 2.141 1_455 S
C14 O15 1.313 . S
C14 O21 1.195 . S
O15 C14 1.313 . S
C16 O17 1.245 1_655 S
C16 O25 1.289 . S
O17 C16 1.245 1_455 S
C18 O19 1.245 . S
C18 O20 1.289 . S
O19 C18 1.245 . S
O20 Mg13 2.141 . S
O20 C18 1.289 . S
O21 Mg13 2.048 . S
O21 C14 1.195 . S
O22 Mg13 2.048 1_655 S
O22 C23 1.195 . S
C23 O22 1.195 . S
C23 O24 1.313 1_655 S
O24 C23 1.313 1_455 S
O25 Mg13 2.141 1_655 S
O25 C16 1.289 . S
Mg26 O33 2.141 . S
Mg26 O34 2.048 . S
Mg26 O35 2.048 . S
Mg26 O38 2.141 . S
C27 O28 1.313 . S
C27 O34 1.195 . S
O28 C27 1.313 . S
C29 O30 1.245 . S
C29 O38 1.289 . S
O30 C29 1.245 . S
C31 O32 1.245 . S
C31 O33 1.289 . S
O32 C31 1.245 . S
O33 Mg26 2.141 . S
O33 C31 1.289 . S
O34 Mg26 2.048 . S
O34 C27 1.195 . S
O35 Mg26 2.048 . S
O35 C36 1.195 . S
C36 O35 1.195 . S
C36 O37 1.313 . S
O37 C36 1.313 . S
O38 Mg26 2.141 . S
O38 C29 1.289 . S
Mg39 O46 2.141 . S
Mg39 O47 2.048 . S
Mg39 O48 2.048 1_545 S
Mg39 O51 2.141 1_545 S
C40 O41 1.313 . S
C40 O47 1.195 . S
O41 C40 1.313 . S
C42 O43 1.245 . S
C42 O51 1.289 . S
O43 C42 1.245 . S
C44 O45 1.245 . S
C44 O46 1.289 . S
O45 C44 1.245 . S
O46 Mg39 2.141 . S
O46 C44 1.289 . S
O47 Mg39 2.048 . S
O47 C40 1.195 . S
O48 Mg39 2.048 1_565 S
O48 C49 1.195 . S
C49 O48 1.195 . S
C49 O50 1.313 . S
O50 C49 1.313 . S
O51 Mg39 2.141 1_565 S
O51 C42 1.289 . S
Mg52 O59 2.141 . S
Mg52 O60 2.048 . S
Mg52 O61 2.048 1_455 S
Mg52 O64 2.141 1_455 S
C53 O54 1.313 . S
C53 O60 1.195 . S
O54 C53 1.313 . S
C55 O56 1.245 . S
C55 O64 1.289 . S
O56 C55 1.245 . S
C57 O58 1.245 . S
C57 O59 1.289 . S
O58 C57 1.245 . S
O59 Mg52 2.141 . S
O59 C57 1.289 . S
O60 Mg52 2.048 . S
O60 C53 1.195 . S
O61 Mg52 2.048 1_655 S
O61 C62 1.195 . S
C62 O61 1.195 . S
C62 O63 1.313 . S
O63 C62 1.313 . S
O64 Mg52 2.141 1_655 S
O64 C55 1.289 . S
Mg65 O72 2.141 . S
Mg65 O73 2.048 . S
Mg65 O74 2.048 . S
Mg65 O77 2.141 . S
C66 O67 1.313 . S
C66 O73 1.195 . S
O67 C66 1.313 . S
C68 O69 1.245 . S
C68 O77 1.289 . S
O69 C68 1.245 . S
C70 O71 1.245 . S
C70 O72 1.289 . S
O71 C70 1.245 . S
O72 Mg65 2.141 . S
O72 C70 1.289 . S
O73 Mg65 2.048 . S
O73 C66 1.195 . S
O74 Mg65 2.048 . S
O74 C75 1.195 . S
C75 O74 1.195 . S
C75 O76 1.313 . S
O76 C75 1.313 . S
O77 Mg65 2.141 . S
O77 C68 1.289 . S
Mg78 O85 2.141 1_565 S
Mg78 O86 2.048 1_565 S
Mg78 O87 2.048 . S
Mg78 O90 2.141 . S
C79 O80 1.313 . S
C79 O86 1.195 . S
O80 C79 1.313 . S
C81 O82 1.245 1_565 S
C81 O90 1.289 . S
O82 C81 1.245 1_545 S
C83 O84 1.245 . S
C83 O85 1.289 . S
O84 C83 1.245 . S
O85 Mg78 2.141 1_545 S
O85 C83 1.289 . S
O86 Mg78 2.048 1_545 S
O86 C79 1.195 . S
O87 Mg78 2.048 . S
O87 C88 1.195 . S
C88 O87 1.195 . S
C88 O89 1.313 . S
O89 C88 1.313 . S
O90 Mg78 2.141 . S
O90 C81 1.289 . S
Mg91 O98 2.141 . S
Mg91 O99 2.048 . S
Mg91 O100 2.048 . S
Mg91 O103 2.141 . S
C92 O93 1.313 . S
C92 O99 1.195 . S
O93 C92 1.313 . S
C94 O95 1.245 . S
C94 O103 1.289 . S
O95 C94 1.245 . S
C96 O97 1.245 . S
C96 O98 1.289 . S
O97 C96 1.245 . S
O98 Mg91 2.141 . S
O98 C96 1.289 . S
O99 Mg91 2.048 . S
O99 C92 1.195 . S
O100 Mg91 2.048 . S
O100 C101 1.195 . S
C101 O100 1.195 . S
C101 O102 1.313 . S
O102 C101 1.313 . S
O103 Mg91 2.141 . S
O103 C94 1.289 . S
Zn104 O107 2.031 . S
Zn104 O109 2.049 1_556 S
Zn104 O114 2.067 . S
Zn105 O106 1.962 . S
Zn105 O108 1.986 . S
Zn105 O110 1.996 . S
Zn105 O113 1.943 . S
O106 Zn105 1.962 . S
O106 C111 1.254 . S
O107 Zn104 2.031 . S
O107 C111 1.269 1_556 S
O108 Zn105 1.986 . S
O108 C115 1.262 . S
O109 Zn104 2.049 1_554 S
O109 C117 1.260 . S
O110 Zn105 1.996 . S
O110 C117 1.257 . S
C111 O106 1.254 . S
C111 O107 1.269 1_554 S
C112 O113 1.249 1_556 S
C112 O114 1.270 . S
O113 Zn105 1.943 . S
O113 C112 1.249 1_554 S
O114 Zn104 2.067 . S
O114 C112 1.270 . S
C115 O108 1.262 . S
C115 O116 1.232 . S
O116 C115 1.232 . S
C117 O109 1.260 . S
C117 O110 1.257 . S
Zn118 O121 2.031 . S
Zn118 O123 2.049 . S
Zn118 O128 2.067 . S
Zn119 O120 1.962 . S
Zn119 O122 1.986 . S
Zn119 O124 1.996 . S
Zn119 O127 1.943 . S
O120 Zn119 1.962 . S
O120 C125 1.254 . S
O121 Zn118 2.031 . S
O121 C125 1.269 . S
O122 Zn119 1.986 . S
O122 C129 1.262 . S
O123 Zn118 2.049 . S
O123 C131 1.260 . S
O124 Zn119 1.996 . S
O124 C131 1.257 . S
C125 O120 1.254 . S
C125 O121 1.269 . S
C126 O127 1.249 . S
C126 O128 1.270 . S
O127 Zn119 1.943 . S
O127 C126 1.249 . S
O128 Zn118 2.067 . S
O128 C126 1.270 . S
C129 O122 1.262 . S
C129 O130 1.232 . S
O130 C129 1.232 . S
C131 O123 1.260 . S
C131 O124 1.257 . S
Zn132 O135 2.031 . S
Zn132 O137 2.049 . S
Zn132 O142 2.067 . S
Zn133 O134 1.962 . S
Zn133 O136 1.986 . S
Zn133 O138 1.996 . S
Zn133 O141 1.943 . S
O134 Zn133 1.962 . S
O134 C139 1.254 . S
O135 Zn132 2.031 . S
O135 C139 1.269 . S
O136 Zn133 1.986 . S
O136 C143 1.262 1_565 S
O137 Zn132 2.049 . S
O137 C145 1.260 . S
O138 Zn133 1.996 . S
O138 C145 1.257 . S
C139 O134 1.254 . S
C139 O135 1.269 . S
C140 O141 1.249 . S
C140 O142 1.270 . S
O141 Zn133 1.943 . S
O141 C140 1.249 . S
O142 Zn132 2.067 . S
O142 C140 1.270 . S
C143 O136 1.262 1_545 S
C143 O144 1.232 . S
O144 C143 1.232 . S
C145 O137 1.260 . S
C145 O138 1.257 . S
Zn146 O149 2.031 . S
Zn146 O151 2.049 . S
Zn146 O156 2.067 . S
Zn147 O148 1.962 . S
Zn147 O150 1.986 . S
Zn147 O152 1.996 . S
Zn147 O155 1.943 . S
O148 Zn147 1.962 . S
O148 C153 1.254 . S
O149 Zn146 2.031 . S
O149 C153 1.269 . S
O150 Zn147 1.986 . S
O150 C157 1.262 . S
O151 Zn146 2.049 . S
O151 C159 1.260 . S
O152 Zn147 1.996 . S
O152 C159 1.257 . S
C153 O148 1.254 . S
C153 O149 1.269 . S
C154 O155 1.249 . S
C154 O156 1.270 . S
O155 Zn147 1.943 . S
O155 C154 1.249 . S
O156 Zn146 2.067 . S
O156 C154 1.270 . S
C157 O150 1.262 . S
C157 O158 1.232 . S
O158 C157 1.232 . S
C159 O151 1.260 . S
C159 O152 1.257 . S
Zn160 O163 2.031 . S
Zn160 O165 2.049 . S
Zn160 O170 2.067 . S
Zn161 O162 1.962 . S
Zn161 O164 1.986 . S
Zn161 O166 1.996 . S
Zn161 O169 1.943 . S
O162 Zn161 1.962 . S
O162 C167 1.254 . S
O163 Zn160 2.031 . S
O163 C167 1.269 . S
O164 Zn161 1.986 . S
O164 C171 1.262 1_655 S
O165 Zn160 2.049 . S
O165 C173 1.260 . S
O166 Zn161 1.996 . S
O166 C173 1.257 . S
C167 O162 1.254 . S
C167 O163 1.269 . S
C168 O169 1.249 . S
C168 O170 1.270 . S
O169 Zn161 1.943 . S
O169 C168 1.249 . S
O170 Zn160 2.067 . S
O170 C168 1.270 . S
C171 O164 1.262 1_455 S
C171 O172 1.232 . S
O172 C171 1.232 . S
C173 O165 1.260 . S
C173 O166 1.257 . S
Zn174 O177 2.031 . S
Zn174 O179 2.049 . S
Zn174 O184 2.067 . S
Zn175 O176 1.962 . S
Zn175 O178 1.986 . S
Zn175 O180 1.996 . S
Zn175 O183 1.943 . S
O176 Zn175 1.962 . S
O176 C181 1.254 . S
O177 Zn174 2.031 . S
O177 C181 1.269 . S
O178 Zn175 1.986 . S
O178 C185 1.262 . S
O179 Zn174 2.049 . S
O179 C187 1.260 . S
O180 Zn175 1.996 . S
O180 C187 1.257 . S
C181 O176 1.254 . S
C181 O177 1.269 . S
C182 O183 1.249 . S
C182 O184 1.270 . S
O183 Zn175 1.943 . S
O183 C182 1.249 . S
O184 Zn174 2.067 . S
O184 C182 1.270 . S
C185 O178 1.262 . S
C185 O186 1.232 . S
O186 C185 1.232 . S
C187 O179 1.260 . S
C187 O180 1.257 . S
Zn188 O191 2.031 . S
Zn188 O193 2.049 . S
Zn188 O198 2.067 . S
Zn189 O190 1.962 . S
Zn189 O192 1.986 . S
Zn189 O194 1.996 . S
Zn189 O197 1.943 1_556 S
O190 Zn189 1.962 . S
O190 C195 1.254 1_556 S
O191 Zn188 2.031 . S
O191 C195 1.269 . S
O192 Zn189 1.986 . S
O192 C199 1.262 . S
O193 Zn188 2.049 . S
O193 C201 1.260 1_554 S
O194 Zn189 1.996 . S
O194 C201 1.257 . S
C195 O190 1.254 1_554 S
C195 O191 1.269 . S
C196 O197 1.249 . S
C196 O198 1.270 . S
O197 Zn189 1.943 1_554 S
O197 C196 1.249 . S
O198 Zn188 2.067 . S
O198 C196 1.270 . S
C199 O192 1.262 . S
C199 O200 1.232 . S
O200 C199 1.232 . S
C201 O193 1.260 1_556 S
C201 O194 1.257 . S
Zn202 O205 2.031 . S
Zn202 O207 2.049 . S
Zn202 O212 2.067 . S
Zn203 O204 1.962 . S
Zn203 O206 1.986 . S
Zn203 O208 1.996 . S
Zn203 O211 1.943 . S
O204 Zn203 1.962 . S
O204 C209 1.254 . S
O205 Zn202 2.031 . S
O205 C209 1.269 . S
O206 Zn203 1.986 . S
O206 C213 1.262 . S
O207 Zn202 2.049 . S
O207 C215 1.260 . S
O208 Zn203 1.996 . S
O208 C215 1.257 . S
C209 O204 1.254 . S
C209 O205 1.269 . S
C210 O211 1.249 . S
C210 O212 1.270 . S
O211 Zn203 1.943 . S
O211 C210 1.249 . S
O212 Zn202 2.067 . S
O212 C210 1.270 . S
C213 O206 1.262 . S
C213 O214 1.232 . S
O214 C213 1.232 . S
C215 O207 1.260 . S
C215 O208 1.257 . S
C216 C217 1.363 1_565 S
C216 C222 1.379 . S
C216 N224 1.356 1_565 S
C217 C216 1.363 1_545 S
C217 C223 1.363 . S
C218 C219 1.363 . S
C218 C223 1.379 1_565 S
C218 N225 1.356 . S
C219 C218 1.363 . S
C219 C222 1.363 . S
N220 C222 1.356 . S
N220 H232 0.984 . S
N220 H233 0.985 . S
N221 C223 1.356 . S
N221 H226 0.984 . S
N221 H227 0.985 . S
C222 C216 1.379 . S
C222 C219 1.363 . S
C222 N220 1.356 . S
C223 C217 1.363 . S
C223 C218 1.379 1_545 S
C223 N221 1.356 . S
N224 C216 1.356 1_545 S
N224 H230 0.984 1_545 S
N224 H231 0.984 . S
N225 C218 1.356 . S
N225 H228 0.984 . S
N225 H229 0.985 . S
H226 N221 0.984 . S
H227 N221 0.985 . S
H228 N225 0.984 . S
H229 N225 0.985 . S
H230 N224 0.984 1_565 S
H231 N224 0.984 . S
H232 N220 0.984 . S
H233 N220 0.985 . S
C234 C235 1.363 . S
C234 C240 1.379 . S
C234 N242 1.356 . S
C235 C234 1.363 . S
C235 C241 1.363 . S
C236 C237 1.363 . S
C236 C241 1.379 . S
C236 N243 1.356 . S
C237 C236 1.363 . S
C237 C240 1.363 . S
N238 C240 1.356 . S
N238 H250 0.984 . S
N238 H251 0.985 . S
N239 C241 1.356 . S
N239 H244 0.984 . S
N239 H245 0.985 . S
C240 C234 1.379 . S
C240 C237 1.363 . S
C240 N238 1.356 . S
C241 C235 1.363 . S
C241 C236 1.379 . S
C241 N239 1.356 . S
N242 C234 1.356 . S
N242 H248 0.984 . S
N242 H249 0.984 . S
N243 C236 1.356 . S
N243 H246 0.984 . S
N243 H247 0.985 . S
H244 N239 0.984 . S
H245 N239 0.985 . S
H246 N243 0.984 . S
H247 N243 0.985 . S
H248 N242 0.984 . S
H249 N242 0.984 . S
H250 N238 0.984 . S
H251 N238 0.985 . S
C252 C253 1.363 . S
C252 C258 1.379 . S
C252 N260 1.356 . S
C253 C252 1.363 . S
C253 C259 1.363 . S
C254 C255 1.363 . S
C254 C259 1.379 . S
C254 N261 1.356 . S
C255 C254 1.363 . S
C255 C258 1.363 . S
N256 C258 1.356 . S
N256 H268 0.984 . S
N256 H269 0.985 . S
N257 C259 1.356 . S
N257 H262 0.984 . S
N257 H263 0.985 . S
C258 C252 1.379 . S
C258 C255 1.363 . S
C258 N256 1.356 . S
C259 C253 1.363 . S
C259 C254 1.379 . S
C259 N257 1.356 . S
N260 C252 1.356 . S
N260 H266 0.984 . S
N260 H267 0.984 . S
N261 C254 1.356 . S
N261 H264 0.984 . S
N261 H265 0.985 . S
H262 N257 0.984 . S
H263 N257 0.985 . S
H264 N261 0.984 . S
H265 N261 0.985 . S
H266 N260 0.984 . S
H267 N260 0.984 . S
H268 N256 0.984 . S
H269 N256 0.985 . S
C270 C271 1.363 . S
C270 C276 1.379 . S
C270 N278 1.356 . S
C271 C270 1.363 . S
C271 C277 1.363 . S
C272 C273 1.363 . S
C272 C277 1.379 . S
C272 N279 1.356 . S
C273 C272 1.363 . S
C273 C276 1.363 . S
N274 C276 1.356 . S
N274 H286 0.984 1_554 S
N274 H287 0.985 . S
N275 C277 1.356 . S
N275 H280 0.984 . S
N275 H281 0.985 . S
C276 C270 1.379 . S
C276 C273 1.363 . S
C276 N274 1.356 . S
C277 C271 1.363 . S
C277 C272 1.379 . S
C277 N275 1.356 . S
N278 C270 1.356 . S
N278 H284 0.984 . S
N278 H285 0.984 . S
N279 C272 1.356 . S
N279 H282 0.984 . S
N279 H283 0.985 . S
H280 N275 0.984 . S
H281 N275 0.985 . S
H282 N279 0.984 . S
H283 N279 0.985 . S
H284 N278 0.984 . S
H285 N278 0.984 . S
H286 N274 0.984 1_556 S
H287 N274 0.985 . S
C288 C289 1.363 . S
C288 C294 1.379 1_556 S
C288 N296 1.356 1_556 S
C289 C288 1.363 . S
C289 C295 1.363 . S
C290 C291 1.363 . S
C290 C295 1.379 . S
C290 N297 1.356 . S
C291 C290 1.363 . S
C291 C294 1.363 1_556 S
N292 C294 1.356 . S
N292 H304 0.984 . S
N292 H305 0.985 . S
N293 C295 1.356 . S
N293 H298 0.984 . S
N293 H299 0.985 . S
C294 C288 1.379 1_554 S
C294 C291 1.363 1_554 S
C294 N292 1.356 . S
C295 C289 1.363 . S
C295 C290 1.379 . S
C295 N293 1.356 . S
N296 C288 1.356 1_554 S
N296 H302 0.984 . S
N296 H303 0.984 1_554 S
N297 C290 1.356 . S
N297 H300 0.984 . S
N297 H301 0.985 . S
H298 N293 0.984 . S
H299 N293 0.985 . S
H300 N297 0.984 . S
H301 N297 0.985 . S
H302 N296 0.984 . S
H303 N296 0.984 1_556 S
H304 N292 0.984 . S
H305 N292 0.985 . S
C306 C307 1.363 . S
C306 C312 1.379 . S
C306 N314 1.356 . S
C307 C306 1.363 . S
C307 C313 1.363 . S
C308 C309 1.363 . S
C308 C313 1.379 . S
C308 N315 1.356 . S
C309 C308 1.363 . S
C309 C312 1.363 . S
N310 C312 1.356 . S
N310 H322 0.984 . S
N310 H323 0.985 . S
N311 C313 1.356 . S
N311 H316 0.984 . S
N311 H317 0.985 . S
C312 C306 1.379 . S
C312 C309 1.363 . S
C312 N310 1.356 . S
C313 C307 1.363 . S
C313 C308 1.379 . S
C313 N311 1.356 . S
N314 C306 1.356 . S
N314 H320 0.984 . S
N314 H321 0.984 . S
N315 C308 1.356 . S
N315 H318 0.984 . S
N315 H319 0.985 . S
H316 N311 0.984 . S
H317 N311 0.985 . S
H318 N315 0.984 . S
H319 N315 0.985 . S
H320 N314 0.984 . S
H321 N314 0.984 . S
H322 N310 0.984 . S
H323 N310 0.985 . S
C324 C325 1.363 . S
C324 C330 1.379 . S
C324 N332 1.356 1_565 S
C325 C324 1.363 . S
C325 C331 1.363 . S
C326 C327 1.363 . S
C326 C331 1.379 . S
C326 N333 1.356 . S
C327 C326 1.363 . S
C327 C330 1.363 . S
N328 C330 1.356 1_545 S
N328 H340 0.984 . S
N328 H341 0.985 1_545 S
N329 C331 1.356 . S
N329 H334 0.984 . S
N329 H335 0.985 . S
C330 C324 1.379 . S
C330 C327 1.363 . S
C330 N328 1.356 1_565 S
C331 C325 1.363 . S
C331 C326 1.379 . S
C331 N329 1.356 . S
N332 C324 1.356 1_545 S
N332 H338 0.984 . S
N332 H339 0.984 . S
N333 C326 1.356 . S
N333 H336 0.984 . S
N333 H337 0.985 . S
H334 N329 0.984 . S
H335 N329 0.985 . S
H336 N333 0.984 . S
H337 N333 0.985 . S
H338 N332 0.984 . S
H339 N332 0.984 . S
H340 N328 0.984 . S
H341 N328 0.985 1_565 S
C342 C343 1.363 . S
C342 C348 1.379 1_545 S
C342 N350 1.356 . S
C343 C342 1.363 . S
C343 C349 1.363 . S
C344 C345 1.363 1_545 S
C344 C349 1.379 . S
C344 N351 1.356 1_545 S
C345 C344 1.363 1_565 S
C345 C348 1.363 . S
N346 C348 1.356 . S
N346 H358 0.984 . S
N346 H359 0.985 . S
N347 C349 1.356 . S
N347 H352 0.984 . S
N347 H353 0.985 . S
C348 C342 1.379 1_565 S
C348 C345 1.363 . S
C348 N346 1.356 . S
C349 C343 1.363 . S
C349 C344 1.379 . S
C349 N347 1.356 . S
N350 C342 1.356 . S
N350 H356 0.984 . S
N350 H357 0.984 . S
N351 C344 1.356 1_565 S
N351 H354 0.984 . S
N351 H355 0.985 1_565 S
H352 N347 0.984 . S
H353 N347 0.985 . S
H354 N351 0.984 . S
H355 N351 0.985 1_545 S
H356 N350 0.984 . S
H357 N350 0.984 . S
H358 N346 0.984 . S
H359 N346 0.985 . S
C360 C361 1.363 . S
C360 C366 1.379 . S
C360 N368 1.356 . S
C361 C360 1.363 . S
C361 C367 1.363 . S
C362 C363 1.363 . S
C362 C367 1.379 . S
C362 N369 1.356 . S
C363 C362 1.363 . S
C363 C366 1.363 . S
N364 C366 1.356 . S
N364 H376 0.984 . S
N364 H377 0.985 . S
N365 C367 1.356 . S
N365 H370 0.984 . S
N365 H371 0.985 . S
C366 C360 1.379 . S
C366 C363 1.363 . S
C366 N364 1.356 . S
C367 C361 1.363 . S
C367 C362 1.379 . S
C367 N365 1.356 . S
N368 C360 1.356 . S
N368 H374 0.984 . S
N368 H375 0.984 . S
N369 C362 1.356 . S
N369 H372 0.984 . S
N369 H373 0.985 . S
H370 N365 0.984 . S
H371 N365 0.985 . S
H372 N369 0.984 . S
H373 N369 0.985 . S
H374 N368 0.984 . S
H375 N368 0.984 . S
H376 N364 0.984 . S
H377 N364 0.985 . S
C378 C379 1.363 . S
C378 C384 1.379 . S
C378 N386 1.356 . S
C379 C378 1.363 . S
C379 C385 1.363 . S
C380 C381 1.363 . S
C380 C385 1.379 . S
C380 N387 1.356 1_554 S
C381 C380 1.363 . S
C381 C384 1.363 . S
N382 C384 1.356 . S
N382 H394 0.984 . S
N382 H395 0.985 . S
N383 C385 1.356 . S
N383 H388 0.984 . S
N383 H389 0.985 . S
C384 C378 1.379 . S
C384 C381 1.363 . S
C384 N382 1.356 . S
C385 C379 1.363 . S
C385 C380 1.379 . S
C385 N383 1.356 . S
N386 C378 1.356 . S
N386 H392 0.984 . S
N386 H393 0.984 . S
N387 C380 1.356 1_556 S
N387 H390 0.984 . S
N387 H391 0.985 . S
H388 N383 0.984 . S
H389 N383 0.985 . S
H390 N387 0.984 . S
H391 N387 0.985 . S
H392 N386 0.984 . S
H393 N386 0.984 . S
H394 N382 0.984 . S
H395 N382 0.985 . S
C396 C397 1.363 . S
C396 C402 1.379 . S
C396 N404 1.356 . S
C397 C396 1.363 . S
C397 C403 1.363 . S
C398 C399 1.363 1_455 S
C398 C403 1.379 . S
C398 N405 1.356 1_455 S
C399 C398 1.363 1_655 S
C399 C402 1.363 1_655 S
N400 C402 1.356 1_655 S
N400 H412 0.984 . S
N400 H413 0.985 . S
N401 C403 1.356 . S
N401 H406 0.984 . S
N401 H407 0.985 . S
C402 C396 1.379 . S
C402 C399 1.363 1_455 S
C402 N400 1.356 1_455 S
C403 C397 1.363 . S
C403 C398 1.379 . S
C403 N401 1.356 . S
N404 C396 1.356 . S
N404 H410 0.984 . S
N404 H411 0.984 . S
N405 C398 1.356 1_655 S
N405 H408 0.984 . S
N405 H409 0.984 1_655 S
H406 N401 0.984 . S
H407 N401 0.985 . S
H408 N405 0.984 . S
H409 N405 0.984 1_455 S
H410 N404 0.984 . S
H411 N404 0.984 . S
H412 N400 0.984 . S
H413 N400 0.985 . S
C414 C415 1.363 . S
C414 C420 1.379 . S
C414 N422 1.356 1_655 S
C415 C414 1.363 . S
C415 C421 1.363 . S
C416 C417 1.363 . S
C416 C421 1.379 . S
C416 N423 1.356 . S
C417 C416 1.363 . S
C417 C420 1.363 . S
N418 C420 1.356 . S
N418 H430 0.984 1_655 S
N418 H431 0.985 . S
N419 C421 1.356 . S
N419 H424 0.984 . S
N419 H425 0.985 . S
C420 C414 1.379 . S
C420 C417 1.363 . S
C420 N418 1.356 . S
C421 C415 1.363 . S
C421 C416 1.379 . S
C421 N419 1.356 . S
N422 C414 1.356 1_455 S
N422 H428 0.984 . S
N422 H429 0.984 . S
N423 C416 1.356 . S
N423 H426 0.984 . S
N423 H427 0.985 . S
H424 N419 0.984 . S
H425 N419 0.985 . S
H426 N423 0.984 . S
H427 N423 0.985 . S
H428 N422 0.984 . S
H429 N422 0.984 . S
H430 N418 0.984 1_455 S
H431 N418 0.985 . S
C432 C433 1.363 . S
C432 C438 1.379 . S
C432 N440 1.356 . S
C433 C432 1.363 . S
C433 C439 1.363 . S
C434 C435 1.363 . S
C434 C439 1.379 . S
C434 N441 1.356 . S
C435 C434 1.363 . S
C435 C438 1.363 . S
N436 C438 1.356 . S
N436 H448 0.984 . S
N436 H449 0.985 . S
N437 C439 1.356 . S
N437 H442 0.984 . S
N437 H443 0.985 . S
C438 C432 1.379 . S
C438 C435 1.363 . S
C438 N436 1.356 . S
C439 C433 1.363 . S
C439 C434 1.379 . S
C439 N437 1.356 . S
N440 C432 1.356 . S
N440 H446 0.984 . S
N440 H447 0.984 . S
N441 C434 1.356 . S
N441 H444 0.984 . S
N441 H445 0.985 . S
H442 N437 0.984 . S
H443 N437 0.985 . S
H444 N441 0.984 . S
H445 N441 0.985 . S
H446 N440 0.984 . S
H447 N440 0.984 . S
H448 N436 0.984 . S
H449 N436 0.985 . S
C450 C451 1.363 . S
C450 C456 1.379 1_455 S
C450 N458 1.356 . S
C451 C450 1.363 . S
C451 C457 1.363 . S
C452 C453 1.363 . S
C452 C457 1.379 1_655 S
C452 N459 1.356 . S
C453 C452 1.363 . S
C453 C456 1.363 . S
N454 C456 1.356 . S
N454 H466 0.984 . S
N454 H467 0.985 . S
N455 C457 1.356 . S
N455 H460 0.984 . S
N455 H461 0.985 . S
C456 C450 1.379 1_655 S
C456 C453 1.363 . S
C456 N454 1.356 . S
C457 C451 1.363 . S
C457 C452 1.379 1_455 S
C457 N455 1.356 . S
N458 C450 1.356 . S
N458 H464 0.984 . S
N458 H465 0.984 . S
N459 C452 1.356 . S
N459 H462 0.984 . S
N459 H463 0.985 1_655 S
H460 N455 0.984 . S
H461 N455 0.985 . S
H462 N459 0.984 . S
H463 N459 0.985 1_455 S
H464 N458 0.984 . S
H465 N458 0.984 . S
H466 N454 0.984 . S
H467 N454 0.985 . S
C468 C469 1.363 . S
C468 C474 1.379 . S
C468 N476 1.356 . S
C469 C468 1.363 . S
C469 C475 1.363 . S
C470 C471 1.363 1_554 S
C470 C475 1.379 1_554 S
C470 N477 1.356 . S
C471 C470 1.363 1_556 S
C471 C474 1.363 . S
N472 C474 1.356 . S
N472 H484 0.984 . S
N472 H485 0.985 . S
N473 C475 1.356 1_554 S
N473 H478 0.984 1_554 S
N473 H479 0.985 . S
C474 C468 1.379 . S
C474 C471 1.363 . S
C474 N472 1.356 . S
C475 C469 1.363 . S
C475 C470 1.379 1_556 S
C475 N473 1.356 1_556 S
N476 C468 1.356 . S
N476 H482 0.984 . S
N476 H483 0.984 . S
N477 C470 1.356 . S
N477 H480 0.984 . S
N477 H481 0.985 . S
H478 N473 0.984 1_556 S
H479 N473 0.985 . S
H480 N477 0.984 . S
H481 N477 0.985 . S
H482 N476 0.984 . S
H483 N476 0.984 . S
H484 N472 0.984 . S
H485 N472 0.985 . S
C486 C487 1.363 . S
C486 C492 1.379 . S
C486 N494 1.356 . S
C487 C486 1.363 . S
C487 C493 1.363 . S
C488 C489 1.363 . S
C488 C493 1.379 . S
C488 N495 1.356 . S
C489 C488 1.363 . S
C489 C492 1.363 . S
N490 C492 1.356 . S
N490 H502 0.984 . S
N490 H503 0.985 . S
N491 C493 1.356 . S
N491 H496 0.984 . S
N491 H497 0.985 . S
C492 C486 1.379 . S
C492 C489 1.363 . S
C492 N490 1.356 . S
C493 C487 1.363 . S
C493 C488 1.379 . S
C493 N491 1.356 . S
N494 C486 1.356 . S
N494 H500 0.984 . S
N494 H501 0.984 . S
N495 C488 1.356 . S
N495 H498 0.984 . S
N495 H499 0.985 . S
H496 N491 0.984 . S
H497 N491 0.985 . S
H498 N495 0.984 . S
H499 N495 0.985 . S
H500 N494 0.984 . S
H501 N494 0.984 . S
H502 N490 0.984 . S
H503 N490 0.985 . S
C504 C505 1.363 . S
C504 C510 1.379 1_545 S
C504 N512 1.356 . S
C505 C504 1.363 . S
C505 C511 1.363 . S
C506 C507 1.363 1_545 S
C506 C511 1.379 . S
C506 N513 1.356 . S
C507 C506 1.363 1_565 S
C507 C510 1.363 . S
N508 C510 1.356 . S
N508 H520 0.984 . S
N508 H521 0.985 . S
N509 C511 1.356 . S
N509 H514 0.984 . S
N509 H515 0.985 . S
C510 C504 1.379 1_565 S
C510 C507 1.363 . S
C510 N508 1.356 . S
C511 C505 1.363 . S
C511 C506 1.379 . S
C511 N509 1.356 . S
N512 C504 1.356 . S
N512 H518 0.984 1_545 S
N512 H519 0.984 . S
N513 C506 1.356 . S
N513 H516 0.984 . S
N513 H517 0.985 . S
H514 N509 0.984 . S
H515 N509 0.985 . S
H516 N513 0.984 . S
H517 N513 0.985 . S
H518 N512 0.984 1_565 S
H519 N512 0.984 . S
H520 N508 0.984 . S
H521 N508 0.985 . S
C522 C523 1.363 . S
C522 C528 1.379 . S
C522 N530 1.356 . S
C523 C522 1.363 . S
C523 C529 1.363 . S
C524 C525 1.363 . S
C524 C529 1.379 . S
C524 N531 1.356 . S
C525 C524 1.363 . S
C525 C528 1.363 . S
N526 C528 1.356 . S
N526 H538 0.984 . S
N526 H539 0.985 . S
N527 C529 1.356 . S
N527 H532 0.984 . S
N527 H533 0.985 . S
C528 C522 1.379 . S
C528 C525 1.363 . S
C528 N526 1.356 . S
C529 C523 1.363 . S
C529 C524 1.379 . S
C529 N527 1.356 . S
N530 C522 1.356 . S
N530 H536 0.984 . S
N530 H537 0.984 . S
N531 C524 1.356 . S
N531 H534 0.984 . S
N531 H535 0.985 . S
H532 N527 0.984 . S
H533 N527 0.985 . S
H534 N531 0.984 . S
H535 N531 0.985 . S
H536 N530 0.984 . S
H537 N530 0.984 . S
H538 N526 0.984 . S
H539 N526 0.985 . S
C540 C541 1.363 . S
C540 C546 1.379 . S
C540 N548 1.356 . S
C541 C540 1.363 . S
C541 C547 1.363 . S
C542 C543 1.363 . S
C542 C547 1.379 . S
C542 N549 1.356 . S
C543 C542 1.363 . S
C543 C546 1.363 . S
N544 C546 1.356 . S
N544 H556 0.984 . S
N544 H557 0.985 . S
N545 C547 1.356 . S
N545 H550 0.984 . S
N545 H551 0.985 . S
C546 C540 1.379 . S
C546 C543 1.363 . S
C546 N544 1.356 . S
C547 C541 1.363 . S
C547 C542 1.379 . S
C547 N545 1.356 . S
N548 C540 1.356 . S
N548 H554 0.984 . S
N548 H555 0.984 . S
N549 C542 1.356 . S
N549 H552 0.984 . S
N549 H553 0.985 . S
H550 N545 0.984 . S
H551 N545 0.985 . S
H552 N549 0.984 . S
H553 N549 0.985 . S
H554 N548 0.984 . S
H555 N548 0.984 . S
H556 N544 0.984 . S
H557 N544 0.985 . S
C558 C559 1.363 . S
C558 C564 1.379 . S
C558 N566 1.356 . S
C559 C558 1.363 . S
C559 C565 1.363 . S
C560 C561 1.363 . S
C560 C565 1.379 . S
C560 N567 1.356 . S
C561 C560 1.363 . S
C561 C564 1.363 . S
N562 C564 1.356 . S
N562 H574 0.984 . S
N562 H575 0.985 . S
N563 C565 1.356 . S
N563 H568 0.984 . S
N563 H569 0.985 . S
C564 C558 1.379 . S
C564 C561 1.363 . S
C564 N562 1.356 . S
C565 C559 1.363 . S
C565 C560 1.379 . S
C565 N563 1.356 . S
N566 C558 1.356 . S
N566 H572 0.984 1_565 S
N566 H573 0.984 . S
N567 C560 1.356 . S
N567 H570 0.984 . S
N567 H571 0.985 . S
H568 N563 0.984 . S
H569 N563 0.985 . S
H570 N567 0.984 . S
H571 N567 0.985 . S
H572 N566 0.984 1_545 S
H573 N566 0.984 . S
H574 N562 0.984 . S
H575 N562 0.985 . S
C576 C577 1.363 . S
C576 C582 1.379 . S
C576 N584 1.356 . S
C577 C576 1.363 . S
C577 C583 1.363 . S
C578 C579 1.363 . S
C578 C583 1.379 . S
C578 N585 1.356 . S
C579 C578 1.363 . S
C579 C582 1.363 . S
N580 C582 1.356 . S
N580 H592 0.984 . S
N580 H593 0.985 . S
N581 C583 1.356 . S
N581 H586 0.984 . S
N581 H587 0.985 . S
C582 C576 1.379 . S
C582 C579 1.363 . S
C582 N580 1.356 . S
C583 C577 1.363 . S
C583 C578 1.379 . S
C583 N581 1.356 . S
N584 C576 1.356 . S
N584 H590 0.984 . S
N584 H591 0.984 . S
N585 C578 1.356 . S
N585 H588 0.984 . S
N585 H589 0.985 . S
H586 N581 0.984 . S
H587 N581 0.985 . S
H588 N585 0.984 . S
H589 N585 0.985 . S
H590 N584 0.984 . S
H591 N584 0.984 . S
H592 N580 0.984 . S
H593 N580 0.985 . S
C594 C595 1.363 . S
C594 C600 1.379 . S
C594 N602 1.356 . S
C595 C594 1.363 . S
C595 C601 1.363 . S
C596 C597 1.363 . S
C596 C601 1.379 . S
C596 N603 1.356 . S
C597 C596 1.363 . S
C597 C600 1.363 . S
N598 C600 1.356 . S
N598 H610 0.984 . S
N598 H611 0.985 . S
N599 C601 1.356 . S
N599 H604 0.984 . S
N599 H605 0.985 . S
C600 C594 1.379 . S
C600 C597 1.363 . S
C600 N598 1.356 . S
C601 C595 1.363 . S
C601 C596 1.379 . S
C601 N599 1.356 . S
N602 C594 1.356 . S
N602 H608 0.984 . S
N602 H609 0.984 . S
N603 C596 1.356 . S
N603 H606 0.984 . S
N603 H607 0.985 . S
H604 N599 0.984 . S
H605 N599 0.985 . S
H606 N603 0.984 . S
H607 N603 0.985 . S
H608 N602 0.984 . S
H609 N602 0.984 . S
H610 N598 0.984 . S
H611 N598 0.985 . S
C612 C613 1.363 . S
C612 C618 1.379 . S
C612 N620 1.356 . S
C613 C612 1.363 . S
C613 C619 1.363 . S
C614 C615 1.363 . S
C614 C619 1.379 . S
C614 N621 1.356 . S
C615 C614 1.363 . S
C615 C618 1.363 . S
N616 C618 1.356 . S
N616 H628 0.984 . S
N616 H629 0.985 . S
N617 C619 1.356 . S
N617 H622 0.984 . S
N617 H623 0.985 . S
C618 C612 1.379 . S
C618 C615 1.363 . S
C618 N616 1.356 . S
C619 C613 1.363 . S
C619 C614 1.379 . S
C619 N617 1.356 . S
N620 C612 1.356 . S
N620 H626 0.984 1_565 S
N620 H627 0.984 . S
N621 C614 1.356 . S
N621 H624 0.984 . S
N621 H625 0.985 . S
H622 N617 0.984 . S
H623 N617 0.985 . S
H624 N621 0.984 . S
H625 N621 0.985 . S
H626 N620 0.984 1_545 S
H627 N620 0.984 . S
H628 N616 0.984 . S
H629 N616 0.985 . S
C630 C631 1.363 . S
C630 C636 1.379 . S
C630 N638 1.356 . S
C631 C630 1.363 . S
C631 C637 1.363 . S
C632 C633 1.363 . S
C632 C637 1.379 . S
C632 N639 1.356 1_545 S
C633 C632 1.363 . S
C633 C636 1.363 . S
N634 C636 1.356 . S
N634 H646 0.984 . S
N634 H647 0.985 . S
N635 C637 1.356 . S
N635 H640 0.984 . S
N635 H641 0.985 . S
C636 C630 1.379 . S
C636 C633 1.363 . S
C636 N634 1.356 . S
C637 C631 1.363 . S
C637 C632 1.379 . S
C637 N635 1.356 . S
N638 C630 1.356 . S
N638 H644 0.984 . S
N638 H645 0.984 . S
N639 C632 1.356 1_565 S
N639 H642 0.984 . S
N639 H643 0.985 . S
H640 N635 0.984 . S
H641 N635 0.985 . S
H642 N639 0.984 . S
H643 N639 0.985 . S
H644 N638 0.984 . S
H645 N638 0.984 . S
H646 N634 0.984 . S
H647 N634 0.985 . S
C648 C649 1.363 . S
C648 C654 1.379 . S
C648 N656 1.356 . S
C649 C648 1.363 . S
C649 C655 1.363 . S
C650 C651 1.363 . S
C650 C655 1.379 . S
C650 N657 1.356 . S
C651 C650 1.363 . S
C651 C654 1.363 . S
N652 C654 1.356 . S
N652 H664 0.984 . S
N652 H665 0.985 . S
N653 C655 1.356 . S
N653 H658 0.984 . S
N653 H659 0.985 . S
C654 C648 1.379 . S
C654 C651 1.363 . S
C654 N652 1.356 . S
C655 C649 1.363 . S
C655 C650 1.379 . S
C655 N653 1.356 . S
N656 C648 1.356 . S
N656 H662 0.984 . S
N656 H663 0.984 . S
N657 C650 1.356 . S
N657 H660 0.984 . S
N657 H661 0.985 . S
H658 N653 0.984 . S
H659 N653 0.985 . S
H660 N657 0.984 . S
H661 N657 0.985 . S
H662 N656 0.984 . S
H663 N656 0.984 . S
H664 N652 0.984 . S
H665 N652 0.985 . S
C666 C667 1.363 . S
C666 C672 1.379 . S
C666 N674 1.356 . S
C667 C666 1.363 . S
C667 C673 1.363 . S
C668 C669 1.363 . S
C668 C673 1.379 . S
C668 N675 1.356 . S
C669 C668 1.363 . S
C669 C672 1.363 . S
N670 C672 1.356 . S
N670 H682 0.984 . S
N670 H683 0.985 . S
N671 C673 1.356 . S
N671 H676 0.984 . S
N671 H677 0.985 . S
C672 C666 1.379 . S
C672 C669 1.363 . S
C672 N670 1.356 . S
C673 C667 1.363 . S
C673 C668 1.379 . S
C673 N671 1.356 . S
N674 C666 1.356 . S
N674 H680 0.984 1_545 S
N674 H681 0.984 . S
N675 C668 1.356 . S
N675 H678 0.984 . S
N675 H679 0.985 . S
H676 N671 0.984 . S
H677 N671 0.985 . S
H678 N675 0.984 . S
H679 N675 0.985 . S
H680 N674 0.984 1_565 S
H681 N674 0.984 . S
H682 N670 0.984 . S
H683 N670 0.985 . S
C684 C685 1.363 . S
C684 C690 1.379 . S
C684 N692 1.356 . S
C685 C684 1.363 . S
C685 C691 1.363 . S
C686 C687 1.363 . S
C686 C691 1.379 . S
C686 N693 1.356 1_455 S
C687 C686 1.363 . S
C687 C690 1.363 . S
N688 C690 1.356 . S
N688 H700 0.984 . S
N688 H701 0.985 . S
N689 C691 1.356 . S
N689 H694 0.984 . S
N689 H695 0.985 . S
C690 C684 1.379 . S
C690 C687 1.363 . S
C690 N688 1.356 . S
C691 C685 1.363 . S
C691 C686 1.379 . S
C691 N689 1.356 . S
N692 C684 1.356 . S
N692 H698 0.984 . S
N692 H699 0.984 . S
N693 C686 1.356 1_655 S
N693 H696 0.984 . S
N693 H697 0.985 . S
H694 N689 0.984 . S
H695 N689 0.985 . S
H696 N693 0.984 . S
H697 N693 0.985 . S
H698 N692 0.984 . S
H699 N692 0.984 . S
H700 N688 0.984 . S
H701 N688 0.985 . S
C702 C703 1.363 . S
C702 C708 1.379 . S
C702 N710 1.356 1_655 S
C703 C702 1.363 . S
C703 C709 1.363 . S
C704 C705 1.363 . S
C704 C709 1.379 . S
C704 N711 1.356 . S
C705 C704 1.363 . S
C705 C708 1.363 . S
N706 C708 1.356 . S
N706 H718 0.984 . S
N706 H719 0.985 . S
N707 C709 1.356 . S
N707 H712 0.984 . S
N707 H713 0.985 . S
C708 C702 1.379 . S
C708 C705 1.363 . S
C708 N706 1.356 . S
C709 C703 1.363 . S
C709 C704 1.379 . S
C709 N707 1.356 . S
N710 C702 1.356 1_455 S
N710 H716 0.984 . S
N710 H717 0.984 . S
N711 C704 1.356 . S
N711 H714 0.984 . S
N711 H715 0.985 . S
H712 N707 0.984 . S
H713 N707 0.985 . S
H714 N711 0.984 . S
H715 N711 0.985 . S
H716 N710 0.984 . S
H717 N710 0.984 . S
H718 N706 0.984 . S
H719 N706 0.985 . S
C720 C721 1.363 . S
C720 C726 1.379 . S
C720 N728 1.356 1_545 S
C721 C720 1.363 . S
C721 C727 1.363 . S
C722 C723 1.363 . S
C722 C727 1.379 . S
C722 N729 1.356 . S
C723 C722 1.363 . S
C723 C726 1.363 . S
N724 C726 1.356 . S
N724 H736 0.984 . S
N724 H737 0.985 . S
N725 C727 1.356 . S
N725 H730 0.984 . S
N725 H731 0.985 . S
C726 C720 1.379 . S
C726 C723 1.363 . S
C726 N724 1.356 . S
C727 C721 1.363 . S
C727 C722 1.379 . S
C727 N725 1.356 . S
N728 C720 1.356 1_565 S
N728 H734 0.984 . S
N728 H735 0.984 . S
N729 C722 1.356 . S
N729 H732 0.984 . S
N729 H733 0.985 . S
H730 N725 0.984 . S
H731 N725 0.985 . S
H732 N729 0.984 . S
H733 N729 0.985 . S
H734 N728 0.984 . S
H735 N728 0.984 . S
H736 N724 0.984 . S
H737 N724 0.985 . S
C738 C739 1.363 . S
C738 C744 1.379 . S
C738 N746 1.356 . S
C739 C738 1.363 . S
C739 C745 1.363 . S
C740 C741 1.363 . S
C740 C745 1.379 . S
C740 N747 1.356 . S
C741 C740 1.363 . S
C741 C744 1.363 . S
N742 C744 1.356 1_655 S
N742 H754 0.984 . S
N742 H755 0.985 . S
N743 C745 1.356 . S
N743 H748 0.984 . S
N743 H749 0.985 . S
C744 C738 1.379 . S
C744 C741 1.363 . S
C744 N742 1.356 1_455 S
C745 C739 1.363 . S
C745 C740 1.379 . S
C745 N743 1.356 . S
N746 C738 1.356 . S
N746 H752 0.984 . S
N746 H753 0.984 . S
N747 C740 1.356 . S
N747 H750 0.984 . S
N747 H751 0.985 . S
H748 N743 0.984 . S
H749 N743 0.985 . S
H750 N747 0.984 . S
H751 N747 0.985 . S
H752 N746 0.984 . S
H753 N746 0.984 . S
H754 N742 0.984 . S
H755 N742 0.985 . S
C756 C757 1.363 . S
C756 C762 1.379 . S
C756 N764 1.356 . S
C757 C756 1.363 . S
C757 C763 1.363 . S
C758 C759 1.363 . S
C758 C763 1.379 . S
C758 N765 1.356 . S
C759 C758 1.363 . S
C759 C762 1.363 . S
N760 C762 1.356 . S
N760 H772 0.984 . S
N760 H773 0.985 . S
N761 C763 1.356 . S
N761 H766 0.984 . S
N761 H767 0.985 . S
C762 C756 1.379 . S
C762 C759 1.363 . S
C762 N760 1.356 . S
C763 C757 1.363 . S
C763 C758 1.379 . S
C763 N761 1.356 . S
N764 C756 1.356 . S
N764 H770 0.984 . S
N764 H771 0.984 . S
N765 C758 1.356 . S
N765 H768 0.984 . S
N765 H769 0.985 . S
H766 N761 0.984 . S
H767 N761 0.985 . S
H768 N765 0.984 . S
H769 N765 0.985 . S
H770 N764 0.984 . S
H771 N764 0.984 . S
H772 N760 0.984 . S
H773 N760 0.985 . S
C774 C775 1.363 . S
C774 C780 1.379 . S
C774 N782 1.356 . S
C775 C774 1.363 . S
C775 C781 1.363 . S
C776 C777 1.363 . S
C776 C781 1.379 . S
C776 N783 1.356 . S
C777 C776 1.363 . S
C777 C780 1.363 . S
N778 C780 1.356 . S
N778 H790 0.984 . S
N778 H791 0.985 . S
N779 C781 1.356 . S
N779 H784 0.984 . S
N779 H785 0.985 . S
C780 C774 1.379 . S
C780 C777 1.363 . S
C780 N778 1.356 . S
C781 C775 1.363 . S
C781 C776 1.379 . S
C781 N779 1.356 . S
N782 C774 1.356 . S
N782 H788 0.984 . S
N782 H789 0.984 . S
N783 C776 1.356 . S
N783 H786 0.984 . S
N783 H787 0.985 . S
H784 N779 0.984 . S
H785 N779 0.985 . S
H786 N783 0.984 . S
H787 N783 0.985 . S
H788 N782 0.984 . S
H789 N782 0.984 . S
H790 N778 0.984 . S
H791 N778 0.985 . S
C219 C125 1.564 . S
C217 C5 1.507 . S
C237 C145 1.631 . S
C235 C18 1.569 . S
C255 C159 1.618 . S
C253 C31 1.565 . S
C271 C42 1.613 . S
C273 C117 1.594 . S
C289 C57 1.429 . S
C291 C111 1.446 1_556 S
C307 C70 1.438 . S
C309 C131 1.432 . S
C327 C139 1.352 . S
C325 C81 1.324 . S
C345 C153 1.399 . S
C343 C96 1.395 . S
C361 C29 1.336 . S
C363 C181 1.399 . S
C381 C195 1.352 . S
C379 C44 1.367 . S
C397 C3 1.388 . S
C399 C215 1.432 . S
C417 C167 1.446 . S
C415 C16 1.361 . S
C433 C83 1.550 . S
C435 C173 1.594 . S
C451 C94 1.642 . S
C453 C187 1.618 . S
C471 C201 1.631 . S
C469 C55 1.651 . S
C487 C68 1.580 . S
C489 C209 1.563 . S
C507 C140 1.759 . S
C505 C1 1.629 . S
C525 C154 1.759 . S
C523 C14 1.626 . S
C541 C27 1.582 . S
C543 C112 1.710 . S
C559 C49 1.560 . S
C561 C129 1.583 . S
C577 C53 1.283 . S
C579 C157 1.291 . S
C597 C115 1.265 . S
C595 C66 1.255 . S
C615 C126 1.371 . S
C613 C88 1.358 . S
C633 C143 1.328 . S
C631 C92 1.319 . S
C651 C199 1.328 . S
C649 C36 1.321 . S
C669 C210 1.371 . S
C667 C40 1.358 . S
C685 C10 1.256 . S
C687 C171 1.265 . S
C705 C185 1.292 . S
C703 C23 1.283 . S
C723 C213 1.584 . S
C721 C79 1.482 . S
C739 C101 1.671 . S
C741 C168 1.710 1_455 S
C759 C182 1.758 . S
C757 C62 1.718 . S
C777 C196 1.759 . S
C775 C75 1.719 . S
