# Generated by pormake.
# Topology zzz, (3,6)-cn, num edge types: 1
# Building blocks:
#     Node 0, Type 0, BuildingBlock: OLANEW_clean_sbu_2, # of connection points: 3
#     Node 1, Type 0, BuildingBlock: OLANEW_clean_sbu_2, # of connection points: 3
#     Node 2, Type 0, BuildingBlock: OLANEW_clean_sbu_2, # of connection points: 3
#     Node 3, Type 0, BuildingBlock: OLANEW_clean_sbu_2, # of connection points: 3
#     Node 4, Type 0, BuildingBlock: OLANEW_clean_sbu_2, # of connection points: 3
#     Node 5, Type 0, BuildingBlock: OLANEW_clean_sbu_2, # of connection points: 3
#     Node 6, Type 0, BuildingBlock: OLANEW_clean_sbu_2, # of connection points: 3
#     Node 7, Type 0, BuildingBlock: OLANEW_clean_sbu_2, # of connection points: 3
#     Node 8, Type 1, BuildingBlock: KUMJIN_clean_sbu_0, # of connection points: 6
#     Node 9, Type 1, BuildingBlock: KUMJIN_clean_sbu_0, # of connection points: 6
#     Node 10, Type 1, BuildingBlock: KUMJIN_clean_sbu_0, # of connection points: 6
#     Node 11, Type 1, BuildingBlock: KUMJIN_clean_sbu_0, # of connection points: 6
#     Edge 12, Type (0, 1), BuildingBlock: ZUJKAS_clean_linker_0, # of connection points: 2
#     Edge 13, Type (0, 1), BuildingBlock: ZUJKAS_clean_linker_0, # of connection points: 2
#     Edge 14, Type (0, 1), BuildingBlock: ZUJKAS_clean_linker_0, # of connection points: 2
#     Edge 15, Type (0, 1), BuildingBlock: ZUJKAS_clean_linker_0, # of connection points: 2
#     Edge 16, Type (0, 1), BuildingBlock: ZUJKAS_clean_linker_0, # of connection points: 2
#     Edge 17, Type (0, 1), BuildingBlock: ZUJKAS_clean_linker_0, # of connection points: 2
#     Edge 18, Type (0, 1), BuildingBlock: ZUJKAS_clean_linker_0, # of connection points: 2
#     Edge 19, Type (0, 1), BuildingBlock: ZUJKAS_clean_linker_0, # of connection points: 2
#     Edge 20, Type (0, 1), BuildingBlock: ZUJKAS_clean_linker_0, # of connection points: 2
#     Edge 21, Type (0, 1), BuildingBlock: ZUJKAS_clean_linker_0, # of connection points: 2
#     Edge 22, Type (0, 1), BuildingBlock: ZUJKAS_clean_linker_0, # of connection points: 2
#     Edge 23, Type (0, 1), BuildingBlock: ZUJKAS_clean_linker_0, # of connection points: 2
#     Edge 24, Type (0, 1), BuildingBlock: ZUJKAS_clean_linker_0, # of connection points: 2
#     Edge 25, Type (0, 1), BuildingBlock: ZUJKAS_clean_linker_0, # of connection points: 2
#     Edge 26, Type (0, 1), BuildingBlock: ZUJKAS_clean_linker_0, # of connection points: 2
#     Edge 27, Type (0, 1), BuildingBlock: ZUJKAS_clean_linker_0, # of connection points: 2
#     Edge 28, Type (0, 1), BuildingBlock: ZUJKAS_clean_linker_0, # of connection points: 2
#     Edge 29, Type (0, 1), BuildingBlock: ZUJKAS_clean_linker_0, # of connection points: 2
#     Edge 30, Type (0, 1), BuildingBlock: ZUJKAS_clean_linker_0, # of connection points: 2
#     Edge 31, Type (0, 1), BuildingBlock: ZUJKAS_clean_linker_0, # of connection points: 2
#     Edge 32, Type (0, 1), BuildingBlock: ZUJKAS_clean_linker_0, # of connection points: 2
#     Edge 33, Type (0, 1), BuildingBlock: ZUJKAS_clean_linker_0, # of connection points: 2
#     Edge 34, Type (0, 1), BuildingBlock: ZUJKAS_clean_linker_0, # of connection points: 2
#     Edge 35, Type (0, 1), BuildingBlock: ZUJKAS_clean_linker_0, # of connection points: 2
# Relax obj value: 0.134
# Max RMSD: 0.157
# Mean RMSD: 0.121
data_MOF--net-zzz--node1-OLANEW_clean_sbu_2--node2-KUMJIN_clean_sbu_0--edge1-ZUJKAS_clean_linker_0
_symmetry_space_group_name_H-M    P1
_symmetry_Int_Tables_number       1
_symmetry_cell_setting            triclinic
loop_
_symmetry_equiv_pos_as_xyz
'x, y, z'
_cell_length_a     69.005137
_cell_length_b     68.996987
_cell_length_c     21.288164
_cell_angle_alpha  89.901265
_cell_angle_beta   90.029798
_cell_angle_gamma 89.965651
loop_
_atom_site_label
_atom_site_type_symbol
_atom_site_fract_x
_atom_site_fract_y
_atom_site_fract_z
_atom_type_partial_charge
O0 O 0.7578 0.63817 0.89605 0.0
Cd1 Cd 0.72909 0.65539 0.93365 0.0
O2 O 0.76123 0.62445 0.98851 0.0
Cd3 Cd 0.77725 0.60661 0.05622 0.0
O4 O 0.79752 0.58899 0.11085 0.0
C5 C 0.80239 0.59401 0.16605 0.0
O6 O 0.79472 0.60974 0.19037 0.0
C7 C 0.76693 0.62664 0.93208 0.0
C8 C 0.69507 0.63759 0.89251 0.0
O9 O 0.70347 0.65063 0.85929 0.0
O10 O 0.70273 0.63303 0.94538 0.0
O11 O 0.92211 0.74129 0.95529 0.0
Cd12 Cd 0.90351 0.71299 0.98892 0.0
O13 O 0.92124 0.75245 0.05176 0.0
Cd14 Cd 0.93025 0.77385 0.12144 0.0
O15 O 0.94167 0.79967 0.16723 0.0
C16 C 0.93122 0.81481 0.17011 0.0
O17 O 0.91358 0.81432 0.1469 0.0
C18 C 0.92635 0.75442 0.99471 0.0
C19 C 0.9175 0.67897 0.93497 0.0
O20 O 0.90457 0.68922 0.90718 0.0
O21 O 0.92377 0.6848 0.98836 0.0
O22 O 0.75024 0.90085 0.99024 0.0
Cd23 Cd 0.78115 0.89182 0.03838 0.0
O24 O 0.73878 0.91096 0.08051 0.0
Cd25 Cd 0.718 0.92635 0.14022 0.0
O26 O 0.69571 0.94152 0.19402 0.0
C27 C 0.68766 0.93324 0.24056 0.0
O28 O 0.6931 0.91561 0.25598 0.0
C29 C 0.73652 0.90834 0.02179 0.0
C30 C 0.81222 0.90761 0.97149 0.0
O31 O 0.80549 0.89081 0.95799 0.0
O32 O 0.80432 0.91689 0.01688 0.0
O33 O 0.63239 0.75767 0.90856 0.0
Cd34 Cd 0.65265 0.78568 0.93501 0.0
O35 O 0.62979 0.75154 0.00939 0.0
Cd36 Cd 0.62022 0.73267 0.08598 0.0
O37 O 0.60613 0.70992 0.14065 0.0
C38 C 0.60666 0.69255 0.12094 0.0
O39 O 0.61611 0.68868 0.06887 0.0
C40 C 0.6256 0.74734 0.95283 0.0
C41 C 0.63507 0.82073 0.902 0.0
O42 O 0.64654 0.81203 0.86398 0.0
O43 O 0.63196 0.81288 0.95567 0.0
O44 O 0.26923 0.42417 0.19916 0.0
Cd45 Cd 0.29704 0.40509 0.16435 0.0
O46 O 0.25438 0.41726 0.11092 0.0
Cd47 Cd 0.23062 0.42099 0.04405 0.0
O48 O 0.20574 0.42701 0.98384 0.0
C49 C 0.19419 0.44063 0.9984 0.0
O50 O 0.19768 0.45092 0.04899 0.0
C51 C 0.25442 0.42566 0.16405 0.0
C52 C 0.3313 0.42108 0.20995 0.0
O53 O 0.32454 0.4261 0.15624 0.0
O54 O 0.32196 0.40833 0.24163 0.0
O55 O 0.11945 0.25263 0.17964 0.0
Cd56 Cd 0.12272 0.28463 0.13134 0.0
O57 O 0.109 0.24185 0.08897 0.0
Cd58 Cd 0.09889 0.2191 0.02552 0.0
O59 O 0.0869 0.19438 0.97504 0.0
C60 C 0.07186 0.19638 0.94118 0.0
O61 O 0.06384 0.21359 0.93625 0.0
C62 C 0.11304 0.23875 0.14645 0.0
C63 C 0.09976 0.3127 0.18964 0.0
O64 O 0.093 0.30226 0.14496 0.0
O65 O 0.11731 0.30975 0.20697 0.0
O66 O 0.25907 0.10295 0.20618 0.0
Cd67 Cd 0.23465 0.10308 0.12275 0.0
O68 O 0.28525 0.10206 0.14654 0.0
Cd69 Cd 0.27423 0.09882 0.05133 0.0
O70 O 0.29367 0.08481 0.98381 0.0
C71 C 0.31143 0.0893 0.99084 0.0
O72 O 0.31598 0.10239 0.03313 0.0
C73 C 0.27743 0.10281 0.20052 0.0
C74 C 0.19834 0.09385 0.1734 0.0
O75 O 0.21023 0.08063 0.15606 0.0
O76 O 0.20343 0.11156 0.16599 0.0
O77 O 0.40789 0.25849 0.22963 0.0
Cd78 Cd 0.38924 0.23274 0.17842 0.0
O79 O 0.39991 0.27845 0.15341 0.0
Cd80 Cd 0.40402 0.30621 0.10535 0.0
O81 O 0.41498 0.3315 0.05482 0.0
C82 C 0.41749 0.34777 0.08159 0.0
O83 O 0.41289 0.34965 0.14114 0.0
C84 C 0.40868 0.27524 0.2049 0.0
C85 C 0.39848 0.19604 0.22523 0.0
O86 O 0.40775 0.20332 0.17868 0.0
O87 O 0.38481 0.20611 0.24961 0.0
Eu88 Eu 0.01668 0.99479 0.6097 0.0
C89 C 0.94333 0.00276 0.43185 0.0
C90 C 0.95262 0.98766 0.3339 0.0
C91 C 0.91879 0.98791 0.36555 0.0
C92 C 0.95756 0.99754 0.38963 0.0
C93 C 0.92373 0.99833 0.41986 0.0
C94 C 0.93322 0.98258 0.32263 0.0
C95 C 0.91523 0.01595 0.51391 0.0
N96 N 0.94858 0.01284 0.48363 0.0
C97 C 0.93485 0.02005 0.52355 0.0
C98 C 0.90965 0.00485 0.46218 0.0
Eu99 Eu 0.98205 0.01852 0.49925 0.0
N100 N 0.97617 0.00258 0.40219 0.0
C101 C 0.9904 0.99916 0.35894 0.0
C102 C 0.96728 0.98345 0.2907 0.0
C103 C 0.98622 0.98937 0.30307 0.0
H104 H 0.93914 0.02851 0.56389 0.0
H105 H 0.99764 0.98637 0.26964 0.0
H106 H 0.92919 0.97483 0.28037 0.0
H107 H 0.90444 0.02132 0.54643 0.0
H108 H 0.00514 0.00353 0.36751 0.0
H109 H 0.00472 0.02969 0.83666 0.0
H110 H 0.96406 0.97594 0.24728 0.0
H111 H 0.05855 0.98265 0.54118 0.0
H112 H 0.99567 0.01161 0.74147 0.0
H113 H 0.0936 0.98896 0.55378 0.0
H114 H 0.90383 0.98422 0.35574 0.0
H115 H 0.03875 0.0398 0.85307 0.0
H116 H 0.0732 0.0398 0.81527 0.0
H117 H 0.89444 0.00173 0.4547 0.0
H118 H 0.0974 0.02876 0.73828 0.0
N119 N 0.02411 0.01198 0.70289 0.0
C120 C 0.01055 0.01595 0.74775 0.0
C121 C 0.03481 0.03197 0.81089 0.0
C122 C 0.04881 0.02708 0.76616 0.0
C123 C 0.01562 0.02622 0.8019 0.0
C124 C 0.04296 0.01677 0.71225 0.0
H125 H 0.10518 0.00956 0.64114 0.0
N126 N 0.05045 0.99982 0.61974 0.0
C127 C 0.08334 0.99517 0.58647 0.0
C128 C 0.05655 0.01053 0.66921 0.0
C129 C 0.0635 0.99159 0.57955 0.0
C130 C 0.08981 0.00685 0.63574 0.0
C131 C 0.0764 0.01447 0.67842 0.0
O132 O 0.02788 0.9653 0.61868 0.0
O133 O 0.99719 0.99154 0.52762 0.0
O134 O 0.96542 0.99701 0.55856 0.0
O135 O 0.98551 0.99474 0.64657 0.0
O136 O 0.02261 0.97603 0.5238 0.0
O137 O 0.00638 0.9759 0.68461 0.0
O138 O 0.96934 0.04742 0.49428 0.0
O139 O 0.00137 0.02171 0.58174 0.0
O140 O 0.03339 0.01655 0.55136 0.0
O141 O 0.01331 0.01896 0.4634 0.0
O142 O 0.97536 0.03613 0.58706 0.0
O143 O 0.99242 0.03961 0.43033 0.0
C144 C 0.00661 0.97967 0.49491 0.0
C145 C 0.0277 0.95181 0.72095 0.0
C146 C 0.02879 0.92454 0.79389 0.0
C147 C 0.02021 0.93421 0.7428 0.0
C148 C 0.04505 0.93288 0.82312 0.0
C149 C 0.04395 0.95996 0.75029 0.0
C150 C 0.05258 0.95047 0.80121 0.0
C151 C 0.96862 0.99213 0.61784 0.0
C152 C 0.01776 0.96162 0.66906 0.0
C153 C 0.08224 0.02544 0.73063 0.0
C154 C 0.06846 0.03172 0.77446 0.0
C155 C 0.99167 0.0332 0.61503 0.0
C156 C 0.99405 0.0707 0.47693 0.0
C157 C 0.01042 0.07672 0.44273 0.0
C158 C 0.02259 0.09141 0.46602 0.0
C159 C 0.0181 0.10015 0.52384 0.0
C160 C 0.98962 0.08004 0.5339 0.0
C161 C 0.00166 0.09457 0.5572 0.0
C162 C 0.03003 0.02202 0.49266 0.0
C163 C 0.98261 0.05376 0.45573 0.0
H164 H 0.00738 0.92824 0.72062 0.0
H165 H 0.05204 0.92574 0.86241 0.0
H166 H 0.04984 0.97361 0.73415 0.0
H167 H 0.06512 0.95679 0.82387 0.0
H168 H 0.01388 0.06976 0.39853 0.0
H169 H 0.02701 0.11172 0.54249 0.0
H170 H 0.97707 0.07593 0.56131 0.0
H171 H 0.99822 0.10152 0.60137 0.0
Eu172 Eu 0.50488 0.02279 0.65726 0.0
C173 C 0.51082 0.95177 0.48282 0.0
C174 C 0.52021 0.96702 0.38491 0.0
C175 C 0.53136 0.93445 0.40869 0.0
C176 C 0.5104 0.96765 0.44314 0.0
C177 C 0.52094 0.93482 0.46528 0.0
C178 C 0.53093 0.95049 0.36849 0.0
C179 C 0.50794 0.91894 0.55706 0.0
N180 N 0.50051 0.95247 0.53698 0.0
C181 C 0.49797 0.93595 0.57192 0.0
C182 C 0.51977 0.91847 0.50403 0.0
Eu183 Eu 0.48446 0.9822 0.56075 0.0
N184 N 0.50006 0.98353 0.46057 0.0
C185 C 0.49849 0.99898 0.4204 0.0
C186 C 0.51874 0.98289 0.34435 0.0
C187 C 0.5078 0.99891 0.36217 0.0
H188 H 0.48859 0.9361 0.61264 0.0
H189 H 0.5066 0.0113 0.33115 0.0
H190 H 0.53867 0.94984 0.32426 0.0
H191 H 0.50638 0.90619 0.58626 0.0
H192 H 0.49055 0.01176 0.43288 0.0
H193 H 0.47971 0.99539 0.88545 0.0
H194 H 0.52583 0.98287 0.29896 0.0
H195 H 0.50393 0.06836 0.6029 0.0
H196 H 0.49708 0.99408 0.78553 0.0
H197 H 0.48887 0.09986 0.62907 0.0
H198 H 0.53935 0.92163 0.3948 0.0
H199 H 0.46155 0.02486 0.9152 0.0
H200 H 0.45175 0.05896 0.88982 0.0
H201 H 0.52736 0.90522 0.49223 0.0
H202 H 0.45406 0.0873 0.81995 0.0
N203 N 0.48935 0.02279 0.75736 0.0
C204 C 0.48969 0.00728 0.79753 0.0
C205 C 0.46944 0.02451 0.8712 0.0
C206 C 0.46969 0.0406 0.83122 0.0
C207 C 0.47968 0.00788 0.8546 0.0
C208 C 0.48009 0.03936 0.77423 0.0
H209 H 0.46806 0.10276 0.72322 0.0
N210 N 0.49148 0.05359 0.68084 0.0
C211 C 0.48647 0.08739 0.65901 0.0
C212 C 0.48112 0.0552 0.73461 0.0
C213 C 0.49501 0.06958 0.64449 0.0
C214 C 0.47471 0.08896 0.71209 0.0
C215 C 0.47214 0.07284 0.75121 0.0
O216 O 0.52896 0.04312 0.64978 0.0
O217 O 0.50982 0.00103 0.58196 0.0
O218 O 0.50484 0.9686 0.63109 0.0
O219 O 0.51617 0.99394 0.69452 0.0
O220 O 0.51937 0.02885 0.56372 0.0
O221 O 0.52947 0.02098 0.7218 0.0
O222 O 0.46261 0.95947 0.56333 0.0
O223 O 0.47973 0.00385 0.63581 0.0
O224 O 0.48282 0.03626 0.59227 0.0
O225 O 0.4728 0.0113 0.52469 0.0
O226 O 0.46717 0.97729 0.65078 0.0
O227 O 0.4601 0.98272 0.4952 0.0
C228 C 0.51922 0.01123 0.54357 0.0
C229 C 0.55904 0.0276 0.6695 0.0
C230 C 0.5879 0.00762 0.68611 0.0
C231 C 0.57045 0.01567 0.70832 0.0
C232 C 0.5942 0.0123 0.62512 0.0
C233 C 0.56583 0.03229 0.60902 0.0
C234 C 0.58329 0.02466 0.58717 0.0
C235 C 0.51509 0.97542 0.67851 0.0
C236 C 0.53954 0.0338 0.69061 0.0
C237 C 0.46127 0.07396 0.80682 0.0
C238 C 0.46 0.05784 0.84667 0.0
C239 C 0.4689 0.99462 0.67259 0.0
C240 C 0.43092 0.96922 0.53681 0.0
C241 C 0.42032 0.98634 0.52592 0.0
C242 C 0.40035 0.98717 0.53944 0.0
C243 C 0.39125 0.97074 0.56536 0.0
C244 C 0.42146 0.95303 0.5624 0.0
C245 C 0.40179 0.95387 0.57697 0.0
C246 C 0.47297 0.02968 0.54334 0.0
C247 C 0.4517 0.96774 0.52113 0.0
H248 H 0.56528 0.01197 0.7549 0.0
H249 H 0.60772 0.00663 0.60698 0.0
H250 H 0.55754 0.04157 0.57797 0.0
H251 H 0.5883 0.02821 0.54035 0.0
H252 H 0.42757 0.99897 0.50687 0.0
H253 H 0.37586 0.97072 0.57519 0.0
H254 H 0.42929 0.93967 0.57096 0.0
H255 H 0.39461 0.94128 0.59648 0.0
Eu256 Eu 0.52309 0.50751 0.58778 0.0
C257 C 0.44615 0.54655 0.54021 0.0
C258 C 0.44853 0.57638 0.48108 0.0
C259 C 0.42106 0.55503 0.46457 0.0
C260 C 0.4561 0.56312 0.52523 0.0
C261 C 0.42807 0.54266 0.51195 0.0
C262 C 0.43135 0.57186 0.44892 0.0
C263 C 0.42385 0.51654 0.58599 0.0
N264 N 0.45317 0.53538 0.58744 0.0
C265 C 0.44184 0.52106 0.61248 0.0
C266 C 0.41708 0.52715 0.53469 0.0
Eu267 Eu 0.48459 0.54302 0.62786 0.0
N268 N 0.47211 0.56729 0.55919 0.0
C269 C 0.48006 0.58542 0.55633 0.0
C270 C 0.45782 0.59425 0.47344 0.0
C271 C 0.47343 0.59896 0.51228 0.0
H272 H 0.44643 0.51288 0.65288 0.0
H273 H 0.48027 0.61302 0.50864 0.0
H274 H 0.4254 0.58172 0.41426 0.0
H275 H 0.41518 0.50491 0.60538 0.0
H276 H 0.49199 0.58917 0.58688 0.0
H277 H 0.57341 0.50762 0.78623 0.0
H278 H 0.4525 0.60484 0.43996 0.0
H279 H 0.53384 0.50271 0.43343 0.0
H280 H 0.5418 0.50526 0.7343 0.0
H281 H 0.56195 0.50587 0.36371 0.0
H282 H 0.40731 0.55218 0.4418 0.0
H283 H 0.60294 0.5136 0.72359 0.0
H284 H 0.61833 0.51752 0.61777 0.0
H285 H 0.40303 0.52377 0.51484 0.0
H286 H 0.61512 0.51774 0.50286 0.0
N287 N 0.55287 0.51066 0.64241 0.0
C288 C 0.55439 0.50805 0.70589 0.0
C289 C 0.589 0.51273 0.7003 0.0
C290 C 0.58752 0.51438 0.63498 0.0
C291 C 0.57238 0.5093 0.73578 0.0
C292 C 0.56903 0.51313 0.60692 0.0
H293 H 0.59422 0.51331 0.40781 0.0
N294 N 0.54948 0.50993 0.51667 0.0
C295 C 0.56363 0.50809 0.41374 0.0
C296 C 0.56727 0.5129 0.54215 0.0
C297 C 0.54764 0.50648 0.45366 0.0
C298 C 0.5818 0.51233 0.43878 0.0
C299 C 0.58391 0.51426 0.50381 0.0
O300 O 0.50982 0.48004 0.55897 0.0
O301 O 0.49185 0.51594 0.57768 0.0
O302 O 0.47977 0.51306 0.6697 0.0
O303 O 0.51115 0.50324 0.68592 0.0
O304 O 0.50614 0.50761 0.49665 0.0
O305 O 0.53592 0.47962 0.61363 0.0
O306 O 0.47119 0.53919 0.72032 0.0
O307 O 0.51434 0.53181 0.65036 0.0
O308 O 0.52957 0.53426 0.52985 0.0
O309 O 0.5012 0.55321 0.54019 0.0
O310 O 0.51042 0.56172 0.65192 0.0
O311 O 0.4784 0.56775 0.68878 0.0
C312 C 0.48987 0.51357 0.51926 0.0
C313 C 0.5318 0.45485 0.53753 0.0
C314 C 0.52652 0.42667 0.46996 0.0
C315 C 0.51941 0.44085 0.51159 0.0
C316 C 0.54638 0.42681 0.45474 0.0
C317 C 0.55151 0.45485 0.52098 0.0
C318 C 0.5587 0.44086 0.47989 0.0
C319 C 0.49257 0.50219 0.69941 0.0
C320 C 0.52376 0.46945 0.58083 0.0
C321 C 0.60221 0.51657 0.53157 0.0
C322 C 0.60403 0.51646 0.597 0.0
C323 C 0.52268 0.54789 0.65911 0.0
C324 C 0.48281 0.56094 0.79725 0.0
C325 C 0.49597 0.57639 0.80455 0.0
C326 C 0.50495 0.57986 0.86281 0.0
C327 C 0.50075 0.56759 0.91377 0.0
C328 C 0.4788 0.54894 0.84897 0.0
C329 C 0.48778 0.55222 0.90672 0.0
C330 C 0.51839 0.54922 0.51469 0.0
C331 C 0.47322 0.55719 0.7363 0.0
H332 H 0.50412 0.44125 0.52329 0.0
H333 H 0.5525 0.41594 0.42395 0.0
H334 H 0.56135 0.46563 0.53966 0.0
H335 H 0.57393 0.44085 0.46764 0.0
H336 H 0.49899 0.58595 0.76532 0.0
H337 H 0.50759 0.5698 0.95899 0.0
H338 H 0.46872 0.53697 0.84469 0.0
H339 H 0.48466 0.54284 0.94624 0.0
Eu340 Eu 0.00953 0.51102 0.50821 0.0
C341 C 0.98978 0.42677 0.58532 0.0
C342 C 0.97931 0.41318 0.48616 0.0
C343 C 0.99567 0.39271 0.56241 0.0
C344 C 0.98103 0.42918 0.52725 0.0
C345 C 0.99666 0.40837 0.60421 0.0
C346 C 0.98703 0.39512 0.50349 0.0
C347 C 0.00323 0.42172 0.70679 0.0
N348 N 0.99065 0.44212 0.62479 0.0
C349 C 0.9962 0.43961 0.68597 0.0
C350 C 0.00381 0.4061 0.66533 0.0
Eu351 Eu 0.98022 0.4725 0.5852 0.0
N352 N 0.97382 0.44693 0.51149 0.0
C353 C 0.96352 0.44902 0.45675 0.0
C354 C 0.96963 0.41567 0.42914 0.0
C355 C 0.96145 0.43358 0.41489 0.0
H356 H 0.99556 0.45166 0.71827 0.0
H357 H 0.95365 0.43558 0.37124 0.0
H358 H 0.986 0.38279 0.47218 0.0
H359 H 0.00815 0.42 0.75477 0.0
H360 H 0.95709 0.46252 0.44298 0.0
H361 H 0.02997 0.55901 0.70139 0.0
H362 H 0.96808 0.40378 0.39634 0.0
H363 H 0.99425 0.52268 0.36395 0.0
H364 H 0.02857 0.52828 0.64303 0.0
H365 H 0.98208 0.55143 0.30643 0.0
H366 H 0.00111 0.37856 0.5758 0.0
H367 H 0.01522 0.58864 0.6565 0.0
H368 H 0.99848 0.60485 0.56562 0.0
H369 H 0.0092 0.39222 0.68155 0.0
H370 H 0.98564 0.60286 0.45788 0.0
N371 N 0.01268 0.54013 0.56628 0.0
C372 C 0.02213 0.54106 0.62258 0.0
C373 C 0.01457 0.57517 0.63054 0.0
C374 C 0.00595 0.57437 0.57109 0.0
C375 C 0.02295 0.55849 0.65596 0.0
C376 C 0.00538 0.55643 0.53949 0.0
H377 H 0.97977 0.58308 0.36048 0.0
N378 N 0.99842 0.53794 0.44951 0.0
C379 C 0.98646 0.55271 0.35506 0.0
C380 C 0.99809 0.55532 0.47912 0.0
C381 C 0.99339 0.53649 0.38761 0.0
C382 C 0.98515 0.57054 0.38579 0.0
C383 C 0.99123 0.57208 0.44835 0.0
O384 O 0.02856 0.50875 0.42671 0.0
O385 O 0.00223 0.47965 0.51317 0.0
O386 O 0.01109 0.46954 0.62211 0.0
O387 O 0.02705 0.49757 0.58728 0.0
O388 O 0.00389 0.49145 0.42434 0.0
O389 O 0.04046 0.51683 0.51742 0.0
O390 O 0.96037 0.45815 0.65027 0.0
O391 O 0.98924 0.50316 0.58535 0.0
O392 O 0.9781 0.51785 0.49075 0.0
O393 O 0.9632 0.4878 0.50716 0.0
O394 O 0.98765 0.49003 0.6724 0.0
O395 O 0.95158 0.48475 0.60589 0.0
C396 C 0.0015 0.47563 0.45571 0.0
C397 C 0.05728 0.5272 0.42664 0.0
C398 C 0.08714 0.53167 0.36722 0.0
C399 C 0.07379 0.51953 0.39775 0.0
C400 C 0.08372 0.55176 0.36629 0.0
C401 C 0.05391 0.54723 0.42503 0.0
C402 C 0.06715 0.55945 0.3949 0.0
C403 C 0.0263 0.48127 0.62007 0.0
C404 C 0.04397 0.51382 0.45801 0.0
C405 C 0.99104 0.58985 0.48047 0.0
C406 C 0.99835 0.59098 0.54181 0.0
C407 C 0.99048 0.50629 0.64352 0.0
C408 C 0.94378 0.48109 0.71317 0.0
C409 C 0.92932 0.49535 0.71864 0.0
C410 C 0.92586 0.50451 0.77666 0.0
C411 C 0.93723 0.49938 0.82896 0.0
C412 C 0.95476 0.47604 0.7665 0.0
C413 C 0.95152 0.48521 0.82381 0.0
C414 C 0.96318 0.50592 0.48578 0.0
C415 C 0.94821 0.47254 0.65114 0.0
H416 H 0.07638 0.50403 0.40005 0.0
H417 H 0.09373 0.56148 0.34295 0.0
H418 H 0.04117 0.55335 0.44708 0.0
H419 H 0.06457 0.57492 0.39372 0.0
H420 H 0.92073 0.49922 0.67784 0.0
H421 H 0.93518 0.50646 0.87386 0.0
H422 H 0.96608 0.46523 0.76392 0.0
H423 H 0.9602 0.48138 0.86434 0.0
H424 H 0.16698 0.11746 0.19457 0.0
H425 H 0.13606 0.10864 0.24348 0.0
H426 H 0.15663 0.05006 0.26877 0.0
H427 H 0.18712 0.05858 0.21798 0.0
H428 H 0.12099 0.0499 0.22549 0.0
H429 H 0.1244 0.10141 0.42564 0.0
H430 H 0.12477 0.11258 0.34953 0.0
H431 H 0.14473 0.09753 0.37389 0.0
C432 C 0.16487 0.1027 0.21059 0.0
C433 C 0.17951 0.08872 0.20248 0.0
C434 C 0.14724 0.09771 0.23897 0.0
C435 C 0.14409 0.07875 0.26087 0.0
C436 C 0.15869 0.0648 0.25238 0.0
H437 H 0.06613 0.03214 0.53531 0.0
H438 H 0.09235 0.04724 0.47613 0.0
C439 C 0.17614 0.06969 0.22331 0.0
C440 C 0.1256 0.07302 0.29163 0.0
H441 H 0.09685 0.08139 0.41937 0.0
C442 C 0.11563 0.0569 0.26765 0.0
C443 C 0.11861 0.08212 0.34677 0.0
C444 C 0.12875 0.09927 0.37587 0.0
C445 C 0.09934 0.04921 0.29817 0.0
C446 C 0.09239 0.05825 0.35342 0.0
C447 C 0.10205 0.07464 0.37666 0.0
C448 C 0.07593 0.05012 0.38993 0.0
C449 C 0.09037 0.03089 0.27252 0.0
C450 C 0.0578 0.04707 0.36174 0.0
C451 C 0.04295 0.03784 0.39491 0.0
C452 C 0.04574 0.03193 0.45759 0.0
C453 C 0.0636 0.03596 0.48668 0.0
C454 C 0.07856 0.04484 0.45308 0.0
H455 H 0.10042 0.02309 0.24056 0.0
H456 H 0.08614 0.02089 0.31103 0.0
H457 H 0.07719 0.03466 0.24524 0.0
H458 H 0.05519 0.05161 0.31376 0.0
H459 H 0.02929 0.03534 0.37121 0.0
H460 H 0.38136 0.17659 0.32269 0.0
H461 H 0.39159 0.14583 0.36978 0.0
H462 H 0.4375 0.14111 0.23336 0.0
H463 H 0.42749 0.17188 0.18615 0.0
H464 H 0.39705 0.10732 0.31703 0.0
H465 H 0.46507 0.14051 0.40679 0.0
H466 H 0.44494 0.15483 0.37887 0.0
H467 H 0.4609 0.14324 0.32391 0.0
C468 C 0.39356 0.16896 0.30243 0.0
C469 C 0.40376 0.1768 0.25112 0.0
C470 C 0.39933 0.15136 0.32925 0.0
C471 C 0.41542 0.14136 0.30547 0.0
C472 C 0.42518 0.14876 0.25284 0.0
H473 H 0.46005 0.02783 0.42104 0.0
H474 H 0.44441 0.05385 0.36094 0.0
C475 C 0.41942 0.16633 0.22593 0.0
C476 C 0.42271 0.12383 0.33804 0.0
H477 H 0.46099 0.10701 0.42377 0.0
C478 C 0.41105 0.10717 0.34022 0.0
C479 C 0.44088 0.12383 0.36879 0.0
C480 C 0.45365 0.14158 0.37012 0.0
C481 C 0.41719 0.09041 0.37224 0.0
C482 C 0.43543 0.09039 0.40255 0.0
C483 C 0.44704 0.10706 0.40023 0.0
C484 C 0.4426 0.07364 0.43952 0.0
C485 C 0.404 0.07304 0.37485 0.0
C486 C 0.44647 0.07602 0.50367 0.0
C487 C 0.45554 0.06133 0.53776 0.0
C488 C 0.46115 0.04399 0.50832 0.0
C489 C 0.45622 0.04113 0.44488 0.0
C490 C 0.44715 0.05594 0.41056 0.0
H491 H 0.38901 0.07663 0.35968 0.0
H492 H 0.40968 0.06159 0.34328 0.0
H493 H 0.40355 0.06702 0.42322 0.0
H494 H 0.44289 0.08949 0.52709 0.0
H495 H 0.45841 0.06372 0.5871 0.0
H496 H 0.35482 0.44778 0.15311 0.0
H497 H 0.38319 0.46393 0.19798 0.0
H498 H 0.37585 0.43155 0.36982 0.0
H499 H 0.34776 0.41511 0.32507 0.0
H500 H 0.38406 0.48703 0.30107 0.0
H501 H 0.43323 0.4246 0.33633 0.0
H502 H 0.41193 0.42327 0.28727 0.0
H503 H 0.40991 0.42063 0.37116 0.0
C504 C 0.35939 0.44393 0.20019 0.0
C505 C 0.34906 0.43014 0.23552 0.0
C506 C 0.3756 0.45317 0.22573 0.0
C507 C 0.38181 0.44873 0.28686 0.0
C508 C 0.37161 0.43486 0.322 0.0
H509 H 0.46372 0.48751 0.5608 0.0
H510 H 0.43685 0.47346 0.50126 0.0
C511 C 0.35545 0.42557 0.29648 0.0
C512 C 0.39809 0.45951 0.31573 0.0
H513 H 0.44084 0.45343 0.39383 0.0
C514 C 0.3966 0.47974 0.32082 0.0
C515 C 0.4145 0.44997 0.34085 0.0
C516 C 0.41762 0.42845 0.33307 0.0
C517 C 0.41061 0.4906 0.35308 0.0
C518 C 0.42659 0.48096 0.38073 0.0
C519 C 0.42841 0.46079 0.37362 0.0
C520 C 0.44141 0.49124 0.41865 0.0
C521 C 0.40778 0.5122 0.35871 0.0
C522 C 0.4527 0.50615 0.39248 0.0
C523 C 0.46782 0.51443 0.42708 0.0
C524 C 0.47175 0.50799 0.48829 0.0
C525 C 0.46041 0.49322 0.51456 0.0
C526 C 0.44526 0.48503 0.48027 0.0
H527 H 0.39237 0.51641 0.35208 0.0
H528 H 0.4127 0.51748 0.40505 0.0
H529 H 0.41646 0.51959 0.32196 0.0
H530 H 0.45035 0.51083 0.34451 0.0
H531 H 0.47688 0.52536 0.40531 0.0
H532 H 0.11115 0.33931 0.27709 0.0
H533 H 0.0918 0.36538 0.3231 0.0
H534 H 0.04217 0.34698 0.2156 0.0
H535 H 0.06141 0.32081 0.16916 0.0
H536 H 0.07223 0.39532 0.25141 0.0
H537 H 0.02209 0.35209 0.40083 0.0
H538 H 0.0449 0.34261 0.3727 0.0
H539 H 0.02458 0.34449 0.3204 0.0
C540 C 0.09608 0.34068 0.26353 0.0
C541 C 0.08782 0.32798 0.21943 0.0
C542 C 0.08506 0.3556 0.28985 0.0
C543 C 0.06554 0.35797 0.27314 0.0
C544 C 0.05715 0.34521 0.22972 0.0
H545 H 0.99657 0.46234 0.33671 0.0
H546 H 0.01062 0.4329 0.29042 0.0
C547 C 0.0682 0.33034 0.20304 0.0
C548 C 0.05431 0.37441 0.29893 0.0
H549 H 0.0166 0.38591 0.39595 0.0
C550 C 0.06003 0.39328 0.28282 0.0
C551 C 0.03848 0.37164 0.34013 0.0
C552 C 0.03214 0.35164 0.36011 0.0
C553 C 0.05032 0.40951 0.30691 0.0
C554 C 0.03442 0.40674 0.34779 0.0
C555 C 0.02869 0.38789 0.36405 0.0
C556 C 0.02432 0.4234 0.37656 0.0
C557 C 0.05737 0.42953 0.28969 0.0
C558 C 0.02714 0.4275 0.44036 0.0
C559 C 0.01927 0.44427 0.46659 0.0
C560 C 0.00807 0.45696 0.42973 0.0
C561 C 0.00495 0.45263 0.36614 0.0
C562 C 0.01294 0.43589 0.33978 0.0
H563 H 0.07163 0.42916 0.26553 0.0
H564 H 0.04671 0.43651 0.25782 0.0
H565 H 0.05865 0.4387 0.33233 0.0
H566 H 0.03598 0.41806 0.46933 0.0
H567 H 0.02228 0.4475 0.51539 0.0
H568 H 0.82947 0.94291 0.9885 0.0
H569 H 0.85605 0.95705 0.9278 0.0
H570 H 0.85827 0.90589 0.81197 0.0
H571 H 0.83184 0.89152 0.87283 0.0
H572 H 0.89474 0.91853 0.85243 0.0
H573 H 0.85203 0.97884 0.7487 0.0
H574 H 0.85089 0.97748 0.83288 0.0
H575 H 0.84083 0.95823 0.78637 0.0
C576 C 0.83559 0.93466 0.95008 0.0
C577 C 0.82847 0.91611 0.93532 0.0
C578 C 0.85071 0.94281 0.91523 0.0
C579 C 0.85891 0.93264 0.8648 0.0
C580 C 0.85206 0.91402 0.85053 0.0
H581 H 0.93369 0.97922 0.57344 0.0
H582 H 0.90732 0.96451 0.63331 0.0
C583 C 0.83694 0.90584 0.88533 0.0
C584 C 0.87482 0.9413 0.82736 0.0
H585 H 0.88608 0.97975 0.73299 0.0
C586 C 0.89285 0.93189 0.82617 0.0
C587 C 0.87223 0.95859 0.7925 0.0
C588 C 0.85291 0.96882 0.78952 0.0
C589 C 0.90849 0.93948 0.79188 0.0
C590 C 0.90606 0.9571 0.75868 0.0
C591 C 0.88794 0.96634 0.75899 0.0
C592 C 0.92211 0.96612 0.72279 0.0
C593 C 0.92736 0.92843 0.79069 0.0
C594 C 0.93906 0.97216 0.75341 0.0
C595 C 0.95416 0.98067 0.7194 0.0
C596 C 0.9525 0.98344 0.65411 0.0
C597 C 0.93539 0.97752 0.62371 0.0
C598 C 0.92031 0.96903 0.6578 0.0
H599 H 0.92536 0.91302 0.80452 0.0
H600 H 0.93403 0.92892 0.74325 0.0
H601 H 0.93763 0.93512 0.82439 0.0
H602 H 0.94058 0.9704 0.80374 0.0
H603 H 0.96707 0.98512 0.74442 0.0
H604 H 0.60721 0.84047 0.96707 0.0
H605 H 0.58911 0.86908 0.93271 0.0
H606 H 0.62284 0.87122 0.76239 0.0
H607 H 0.64077 0.84237 0.79574 0.0
H608 H 0.59998 0.9068 0.8982 0.0
H609 H 0.56714 0.86678 0.69839 0.0
H610 H 0.58017 0.85471 0.76065 0.0
H611 H 0.59316 0.86701 0.69922 0.0
C612 C 0.61086 0.84708 0.92244 0.0
C613 C 0.62523 0.83897 0.88369 0.0
C614 C 0.60054 0.86346 0.90299 0.0
C615 C 0.60439 0.87204 0.84452 0.0
C616 C 0.61936 0.86455 0.80708 0.0
H617 H 0.55239 0.9808 0.7137 0.0
H618 H 0.57483 0.95674 0.75673 0.0
C619 C 0.62962 0.8481 0.82631 0.0
C620 C 0.59204 0.88814 0.82151 0.0
H621 H 0.55957 0.89995 0.70679 0.0
C622 C 0.59111 0.90536 0.85636 0.0
C623 C 0.58039 0.88611 0.76723 0.0
C624 C 0.58007 0.86762 0.7294 0.0
C625 C 0.57876 0.92063 0.83855 0.0
C626 C 0.5672 0.91864 0.78389 0.0
C627 C 0.56834 0.90146 0.7488 0.0
C628 C 0.55344 0.93386 0.76245 0.0
C629 C 0.57787 0.93844 0.87949 0.0
C630 C 0.534 0.92903 0.75025 0.0
C631 C 0.5213 0.94272 0.72472 0.0
C632 C 0.52774 0.96157 0.71166 0.0
C633 C 0.54701 0.96655 0.72517 0.0
C634 C 0.55982 0.95278 0.74973 0.0
H635 H 0.58302 0.93535 0.92795 0.0
H636 H 0.58743 0.94979 0.85938 0.0
H637 H 0.5629 0.94429 0.8821 0.0
H638 H 0.52872 0.91451 0.75947 0.0
H639 H 0.5065 0.93853 0.71469 0.0
H640 H 0.67704 0.64217 0.77906 0.0
H641 H 0.64806 0.62548 0.74093 0.0
H642 H 0.64385 0.59437 0.9162 0.0
H643 H 0.67279 0.61101 0.95491 0.0
H644 H 0.64353 0.58417 0.73013 0.0
H645 H 0.58877 0.6171 0.88815 0.0
H646 H 0.61212 0.62808 0.87457 0.0
H647 H 0.60995 0.60763 0.92648 0.0
C648 C 0.66989 0.63188 0.80971 0.0
C649 C 0.67722 0.62793 0.87006 0.0
C650 C 0.65335 0.62235 0.7878 0.0
C651 C 0.64373 0.60886 0.82601 0.0
C652 C 0.65091 0.60496 0.88638 0.0
H653 H 0.53688 0.54382 0.77644 0.0
H654 H 0.56768 0.55648 0.81648 0.0
C655 C 0.66751 0.61441 0.90826 0.0
C656 C 0.62666 0.59829 0.80162 0.0
H657 H 0.57827 0.59145 0.82436 0.0
C658 C 0.6292 0.5858 0.75043 0.0
C659 C 0.60809 0.60036 0.82857 0.0
C660 C 0.60445 0.61413 0.88222 0.0
C661 C 0.61367 0.57511 0.72576 0.0
C662 C 0.59494 0.57728 0.75222 0.0
C663 C 0.59253 0.58973 0.80385 0.0
C664 C 0.5775 0.56735 0.72635 0.0
C665 C 0.61776 0.56124 0.67285 0.0
C666 C 0.57273 0.569 0.66233 0.0
C667 C 0.55544 0.5612 0.63931 0.0
C668 C 0.54257 0.55167 0.67982 0.0
C669 C 0.5471 0.55024 0.74386 0.0
C670 C 0.56456 0.55771 0.76677 0.0
H671 H 0.63295 0.55592 0.67431 0.0
H672 H 0.60794 0.54862 0.67495 0.0
H673 H 0.61562 0.56877 0.62729 0.0
H674 H 0.58191 0.57709 0.63053 0.0
H675 H 0.55174 0.56341 0.59039 0.0
H676 H 0.94324 0.65309 0.98528 0.0
H677 H 0.95618 0.62372 0.9363 0.0
H678 H 0.92181 0.63474 0.77089 0.0
H679 H 0.90878 0.66414 0.81929 0.0
H680 H 0.93403 0.59073 0.8857 0.0
H681 H 0.97911 0.62874 0.70736 0.0
H682 H 0.97031 0.6406 0.77737 0.0
H683 H 0.95422 0.63631 0.71259 0.0
C684 C 0.93843 0.64928 0.93846 0.0
C685 C 0.92506 0.66101 0.90602 0.0
C686 C 0.94582 0.6325 0.91066 0.0
C687 C 0.94011 0.62726 0.84982 0.0
C688 C 0.92658 0.63874 0.8176 0.0
H689 H 0.96913 0.53561 0.59223 0.0
H690 H 0.95742 0.56479 0.64423 0.0
C691 C 0.91911 0.65548 0.84543 0.0
C692 C 0.94827 0.60972 0.82007 0.0
H693 H 0.97718 0.59464 0.69967 0.0
C694 C 0.94353 0.59154 0.8452 0.0
C695 C 0.96061 0.61091 0.76724 0.0
C696 C 0.96654 0.63017 0.73962 0.0
C697 C 0.95052 0.57439 0.818 0.0
C698 C 0.96294 0.57557 0.76519 0.0
C699 C 0.96772 0.5938 0.74027 0.0
C700 C 0.97069 0.55807 0.7338 0.0
C701 C 0.94418 0.55524 0.84537 0.0
C702 C 0.98229 0.54473 0.76666 0.0
C703 C 0.98909 0.52803 0.73676 0.0
C704 C 0.98472 0.52465 0.67334 0.0
C705 C 0.97321 0.53808 0.64056 0.0
C706 C 0.96639 0.55471 0.67038 0.0
H707 H 0.92997 0.55651 0.86959 0.0
H708 H 0.94302 0.54394 0.80865 0.0
H709 H 0.95506 0.55038 0.88044 0.0
H710 H 0.98596 0.54719 0.81546 0.0
H711 H 0.99772 0.51772 0.76316 0.0
H712 H 0.08362 0.21333 0.1235 0.0
H713 H 0.07757 0.18229 0.17511 0.0
H714 H 0.1286 0.19013 0.2892 0.0
H715 H 0.13497 0.22118 0.23658 0.0
H716 H 0.10144 0.14725 0.19425 0.0
H717 H 0.08261 0.18671 0.4144 0.0
H718 H 0.08453 0.19895 0.33973 0.0
H719 H 0.10601 0.19135 0.38048 0.0
C720 C 0.09396 0.20814 0.15785 0.0
C721 C 0.11001 0.21947 0.17503 0.0
C722 C 0.09039 0.19047 0.1877 0.0
C723 C 0.10266 0.18392 0.23582 0.0
C724 C 0.11895 0.19497 0.25223 0.0
H725 H 0.05915 0.10009 0.50741 0.0
H726 H 0.08402 0.11828 0.45046 0.0
C727 C 0.12253 0.21269 0.22233 0.0
C728 C 0.09711 0.16654 0.27247 0.0
H729 H 0.0766 0.15352 0.41179 0.0
C730 C 0.09631 0.14849 0.24222 0.0
C731 C 0.09059 0.16819 0.33516 0.0
C732 C 0.09082 0.18732 0.36955 0.0
C733 C 0.08832 0.13219 0.27224 0.0
C734 C 0.08059 0.13419 0.33345 0.0
C735 C 0.08254 0.15196 0.36491 0.0
C736 C 0.0681 0.11922 0.36289 0.0
C737 C 0.08781 0.11317 0.23745 0.0
C738 C 0.05117 0.11312 0.33205 0.0
C739 C 0.03693 0.1028 0.36452 0.0
C740 C 0.03926 0.09861 0.42869 0.0
C741 C 0.05681 0.10346 0.45827 0.0
C742 C 0.07107 0.11375 0.42571 0.0
H743 H 0.10066 0.11167 0.20642 0.0
H744 H 0.08733 0.10061 0.27002 0.0
H745 H 0.07474 0.11277 0.20709 0.0
H746 H 0.04827 0.11756 0.28415 0.0
H747 H 0.02352 0.0994 0.34056 0.0
H748 H 0.2665 0.09698 0.32319 0.0
H749 H 0.28731 0.08571 0.40889 0.0
H750 H 0.33737 0.09135 0.28893 0.0
H751 H 0.31692 0.10309 0.20427 0.0
H752 H 0.30546 0.05236 0.39561 0.0
H753 H 0.36091 0.10717 0.45208 0.0
H754 H 0.33899 0.11323 0.40988 0.0
H755 H 0.35968 0.10346 0.36898 0.0
C756 C 0.28202 0.0965 0.31583 0.0
C757 C 0.29 0.10065 0.25655 0.0
C758 C 0.29391 0.09006 0.3649 0.0
C759 C 0.31394 0.08776 0.35557 0.0
C760 C 0.32206 0.09339 0.29799 0.0
H761 H 0.40377 0.0106 0.43595 0.0
H762 H 0.38245 0.03709 0.40443 0.0
C763 C 0.31025 0.09991 0.24917 0.0
C764 C 0.32569 0.07611 0.40015 0.0
H765 H 0.37028 0.07344 0.4693 0.0
C766 C 0.31942 0.05716 0.41312 0.0
C767 C 0.34397 0.0823 0.42263 0.0
C768 C 0.35116 0.10274 0.41313 0.0
C769 C 0.33146 0.04382 0.44383 0.0
C770 C 0.35015 0.0497 0.46308 0.0
C771 C 0.35602 0.06895 0.45367 0.0
C772 C 0.36435 0.03547 0.48711 0.0
C773 C 0.32458 0.02319 0.45189 0.0
C774 C 0.36129 0.02592 0.54437 0.0
C775 C 0.37329 0.01057 0.56224 0.0
C776 C 0.38875 0.00468 0.52358 0.0
C777 C 0.39224 0.01491 0.46749 0.0
C778 C 0.3801 0.03011 0.44937 0.0
H779 H 0.31089 0.02034 0.42602 0.0
H780 H 0.33579 0.01286 0.43518 0.0
H781 H 0.322 0.02025 0.50245 0.0
H782 H 0.34925 0.02996 0.57427 0.0
H783 H 0.37028 0.00313 0.60596 0.0
H784 H 0.44516 0.27286 0.25301 0.0
H785 H 0.46439 0.29914 0.29888 0.0
H786 H 0.41636 0.3385 0.27321 0.0
H787 H 0.39761 0.3125 0.22408 0.0
H788 H 0.4478 0.35563 0.23927 0.0
H789 H 0.46188 0.32141 0.46986 0.0
H790 H 0.47073 0.30665 0.40696 0.0
H791 H 0.4451 0.31125 0.41401 0.0
C792 C 0.43876 0.28713 0.25748 0.0
C793 C 0.42001 0.29077 0.23488 0.0
C794 C 0.44967 0.3021 0.28411 0.0
C795 C 0.44173 0.32077 0.29066 0.0
C796 C 0.42285 0.32426 0.26865 0.0
H797 H 0.49568 0.40849 0.5266 0.0
H798 H 0.47397 0.38436 0.48159 0.0
C799 C 0.41214 0.30944 0.24063 0.0
C800 C 0.45324 0.33684 0.3184 0.0
H801 H 0.48112 0.34916 0.44467 0.0
C802 C 0.45495 0.35425 0.28447 0.0
C803 C 0.46228 0.33526 0.37793 0.0
C804 C 0.45973 0.31771 0.41955 0.0
C805 C 0.4657 0.36994 0.30779 0.0
C806 C 0.4757 0.36791 0.36553 0.0
C807 C 0.47369 0.35065 0.4 0.0
C808 C 0.48834 0.38342 0.39129 0.0
C809 C 0.46583 0.38864 0.27085 0.0
C810 C 0.50371 0.39095 0.35567 0.0
C811 C 0.51592 0.40513 0.3808 0.0
C812 C 0.51329 0.41181 0.44268 0.0
C813 C 0.49797 0.40404 0.47843 0.0
C814 C 0.48562 0.39007 0.45294 0.0
H815 H 0.45275 0.38996 0.24065 0.0
H816 H 0.46647 0.40143 0.30235 0.0
H817 H 0.4787 0.38888 0.23964 0.0
H818 H 0.50645 0.38572 0.30859 0.0
H819 H 0.52737 0.41088 0.35148 0.0
H820 H 0.25518 0.46004 0.22631 0.0
H821 H 0.22742 0.47997 0.25801 0.0
H822 H 0.18837 0.43723 0.18182 0.0
H823 H 0.21606 0.41745 0.14921 0.0
H824 H 0.17918 0.47479 0.14535 0.0
H825 H 0.19034 0.47034 0.40335 0.0
H826 H 0.21104 0.47888 0.36045 0.0
H827 H 0.20261 0.45449 0.34896 0.0
C828 C 0.24065 0.45492 0.21652 0.0
C829 C 0.23772 0.43741 0.18437 0.0
C830 C 0.22483 0.46625 0.23487 0.0
C831 C 0.20584 0.46002 0.22261 0.0
C832 C 0.20291 0.44235 0.19144 0.0
H833 H 0.08948 0.49911 0.2948 0.0
H834 H 0.1187 0.48316 0.25585 0.0
C835 C 0.21872 0.43115 0.17243 0.0
C836 C 0.18898 0.47204 0.24104 0.0
H837 H 0.1659 0.49175 0.36756 0.0
C838 C 0.17626 0.4785 0.19393 0.0
C839 C 0.18524 0.47689 0.30443 0.0
C840 C 0.19791 0.46966 0.35734 0.0
C841 C 0.15992 0.48976 0.20847 0.0
C842 C 0.15611 0.49446 0.2719 0.0
C843 C 0.16895 0.48821 0.31892 0.0
C844 C 0.13837 0.505 0.29116 0.0
C845 C 0.14699 0.49663 0.15576 0.0
C846 C 0.13974 0.5225 0.32442 0.0
C847 C 0.12304 0.53158 0.34729 0.0
C848 C 0.10471 0.52317 0.33784 0.0
C849 C 0.1034 0.50586 0.30329 0.0
C850 C 0.12007 0.49683 0.28039 0.0
H851 H 0.15472 0.49665 0.10997 0.0
H852 H 0.13442 0.48669 0.1516 0.0
H853 H 0.14141 0.51145 0.16504 0.0
H854 H 0.15376 0.52895 0.33363 0.0
H855 H 0.12453 0.54478 0.3743 0.0
H856 H 0.92028 0.79195 0.02905 0.0
H857 H 0.939 0.8205 0.99751 0.0
H858 H 0.9751 0.78458 0.88024 0.0
H859 H 0.95664 0.75583 0.91292 0.0
H860 H 0.99518 0.81269 0.9649 0.0
H861 H 0.93714 0.84493 0.81609 0.0
H862 H 0.93018 0.83752 0.89395 0.0
H863 H 0.93742 0.81959 0.83766 0.0
C864 C 0.93244 0.7901 0.9975 0.0
C865 C 0.93733 0.77167 0.9745 0.0
C866 C 0.94294 0.80643 0.97893 0.0
C867 C 0.95839 0.80459 0.93658 0.0
C868 C 0.96324 0.78622 0.91314 0.0
H869 H 0.01597 0.89407 0.72358 0.0
H870 H 0.99984 0.86464 0.76033 0.0
C871 C 0.95267 0.76988 0.93155 0.0
C872 C 0.96939 0.82188 0.91638 0.0
H873 H 0.9654 0.86364 0.8313 0.0
C874 C 0.98873 0.82385 0.93564 0.0
C875 C 0.96088 0.83629 0.87798 0.0
C876 C 0.94031 0.83452 0.85467 0.0
C877 C 0.99981 0.84002 0.91777 0.0
C878 C 0.99121 0.85456 0.88004 0.0
C879 C 0.9719 0.85249 0.86047 0.0
C880 C 0.00207 0.87187 0.85889 0.0
C881 C 0.02068 0.84127 0.93845 0.0
C882 C 0.00876 0.88564 0.90225 0.0
C883 C 0.01794 0.90254 0.88137 0.0
C884 C 0.02044 0.90599 0.81673 0.0
C885 C 0.01403 0.89196 0.77362 0.0
C886 C 0.00488 0.87511 0.7945 0.0
H887 H 0.02627 0.82705 0.95511 0.0
H888 H 0.03002 0.84649 0.89948 0.0
H889 H 0.02188 0.85176 0.97772 0.0
H890 H 0.00641 0.88356 0.95211 0.0
H891 H 0.02248 0.91319 0.91566 0.0
H892 H 0.69903 0.90896 0.06542 0.0
H893 H 0.67061 0.92288 0.01272 0.0
H894 H 0.70558 0.93572 0.85007 0.0
H895 H 0.73408 0.92244 0.90312 0.0
H896 H 0.68474 0.96753 0.89827 0.0
H897 H 0.6377 0.90315 0.86144 0.0
H898 H 0.64613 0.90675 0.94052 0.0
H899 H 0.6632 0.90114 0.87955 0.0
C900 C 0.70068 0.91498 0.01878 0.0
C901 C 0.71888 0.91516 0.98907 0.0
C902 C 0.68436 0.92256 0.98827 0.0
C903 C 0.686 0.93026 0.92744 0.0
C904 C 0.70402 0.92982 0.89699 0.0
H905 H 0.6066 0.9743 0.65128 0.0
H906 H 0.6285 0.95446 0.71509 0.0
C907 C 0.72028 0.92222 0.92733 0.0
C908 C 0.66949 0.94034 0.89721 0.0
H909 H 0.62448 0.93377 0.83378 0.0
C910 C 0.67153 0.96017 0.88439 0.0
C911 C 0.65234 0.93062 0.87901 0.0
C912 C 0.64967 0.9092 0.89029 0.0
C913 C 0.65698 0.97058 0.85323 0.0
C914 C 0.63976 0.96095 0.8353 0.0
C915 C 0.63762 0.94111 0.84831 0.0
C916 C 0.62444 0.97122 0.79983 0.0
C917 C 0.66041 0.99169 0.83806 0.0
C918 C 0.61448 0.98683 0.82698 0.0
C919 C 0.60218 0.99835 0.79052 0.0
C920 C 0.59955 0.99439 0.72628 0.0
C921 C 0.60871 0.97804 0.70021 0.0
C922 C 0.62103 0.96654 0.73673 0.0
H923 H 0.67589 0.9958 0.84346 0.0
H924 H 0.6558 0.99506 0.78926 0.0
H925 H 0.65174 0.00081 0.87046 0.0
H926 H 0.61679 0.99051 0.87586 0.0
H927 H 0.59536 0.01081 0.81209 0.0
H928 H 0.63006 0.72107 0.85829 0.0
H929 H 0.61053 0.69192 0.83899 0.0
H930 H 0.5738 0.70657 0.99578 0.0
H931 H 0.59307 0.73574 0.01463 0.0
H932 H 0.58731 0.66768 0.99616 0.0
H933 H 0.55525 0.6886 0.76613 0.0
H934 H 0.5812 0.69014 0.77114 0.0
H935 H 0.56647 0.70598 0.81796 0.0
C936 C 0.61772 0.7181 0.88821 0.0
C937 C 0.61331 0.73037 0.93882 0.0
C938 C 0.60657 0.7015 0.87712 0.0
C939 C 0.5907 0.69713 0.91591 0.0
C940 C 0.58606 0.70963 0.96556 0.0
H941 H 0.50588 0.60581 0.95935 0.0
H942 H 0.52741 0.63362 0.97206 0.0
C943 C 0.59718 0.72617 0.97663 0.0
C944 C 0.57914 0.67931 0.90608 0.0
H945 H 0.54829 0.65717 0.80351 0.0
C946 C 0.57878 0.66535 0.95406 0.0
C947 C 0.56814 0.67629 0.85094 0.0
C948 C 0.56759 0.69108 0.79869 0.0
C949 C 0.56773 0.64838 0.94842 0.0
C950 C 0.55637 0.6455 0.89375 0.0
C951 C 0.55698 0.65936 0.84536 0.0
C952 C 0.54342 0.62847 0.88625 0.0
C953 C 0.56875 0.63359 0.0007 0.0
C954 C 0.54481 0.61666 0.83276 0.0
C955 C 0.53241 0.60081 0.82515 0.0
C956 C 0.51832 0.59653 0.87084 0.0
C957 C 0.51684 0.6085 0.924 0.0
C958 C 0.52916 0.62438 0.93137 0.0
H959 H 0.5831 0.63397 0.0243 0.0
H960 H 0.55759 0.63706 0.03649 0.0
H961 H 0.56625 0.61864 0.98342 0.0
H962 H 0.55559 0.61963 0.79705 0.0
H963 H 0.53395 0.59181 0.78381 0.0
H964 H 0.79435 0.63955 0.84983 0.0
H965 H 0.82246 0.62157 0.80941 0.0
H966 H 0.80573 0.57186 0.9198 0.0
H967 H 0.77744 0.58945 0.95848 0.0
H968 H 0.85358 0.60387 0.87819 0.0
H969 H 0.8115 0.5503 0.74068 0.0
H970 H 0.80111 0.57272 0.7686 0.0
H971 H 0.80346 0.55226 0.8206 0.0
C972 C 0.79672 0.62478 0.86531 0.0
C973 C 0.78398 0.61601 0.90835 0.0
C974 C 0.81277 0.61457 0.84238 0.0
C975 C 0.81607 0.59537 0.86132 0.0
C976 C 0.80334 0.58662 0.90421 0.0
H977 H 0.90002 0.50805 0.87263 0.0
H978 H 0.87472 0.53249 0.88547 0.0
C979 C 0.78737 0.5968 0.92716 0.0
C980 C 0.83284 0.58432 0.83694 0.0
H981 H 0.84451 0.54186 0.7641 0.0
C982 C 0.85166 0.59051 0.85218 0.0
C983 C 0.83027 0.567 0.80244 0.0
C984 C 0.8105 0.56026 0.78152 0.0
C985 C 0.8679 0.57914 0.83705 0.0
C986 C 0.86513 0.56127 0.80618 0.0
C987 C 0.84647 0.55558 0.78808 0.0
C988 C 0.8811 0.5473 0.79839 0.0
C989 C 0.88786 0.58574 0.8564 0.0
C990 C 0.89295 0.54764 0.74495 0.0
C991 C 0.90749 0.53367 0.73741 0.0
C992 C 0.91032 0.51924 0.78335 0.0
C993 C 0.89836 0.51909 0.8368 0.0
C994 C 0.88389 0.53299 0.84417 0.0
H995 H 0.88776 0.60059 0.8765 0.0
H996 H 0.89383 0.57557 0.89197 0.0
H997 H 0.89775 0.58548 0.81527 0.0
H998 H 0.8909 0.55863 0.70916 0.0
H999 H 0.91668 0.53433 0.69622 0.0
H1000 H 0.08348 0.15854 0.94803 0.0
H1001 H 0.06932 0.13063 0.89434 0.0
H1002 H 0.0268 0.16786 0.80756 0.0
H1003 H 0.04091 0.19593 0.86076 0.0
H1004 H 0.03014 0.11705 0.90177 0.0
H1005 H 0.05148 0.13781 0.65896 0.0
H1006 H 0.06244 0.14851 0.72772 0.0
H1007 H 0.03874 0.15606 0.70275 0.0
C1008 C 0.07117 0.16084 0.91734 0.0
C1009 C 0.06338 0.17949 0.90845 0.0
C1010 C 0.06308 0.14486 0.88684 0.0
C1011 C 0.04717 0.14724 0.84655 0.0
C1012 C 0.03927 0.16579 0.83778 0.0
H1013 H 0.97296 0.05495 0.70191 0.0
H1014 H 0.98595 0.08253 0.76103 0.0
C1015 C 0.04731 0.18178 0.86843 0.0
C1016 C 0.03873 0.13023 0.81443 0.0
H1017 H 0.03147 0.11027 0.6699 0.0
C1018 C 0.03043 0.1155 0.85108 0.0
C1019 C 0.03926 0.12829 0.74839 0.0
C1020 C 0.04858 0.1434 0.70696 0.0
C1021 C 0.02257 0.09882 0.82338 0.0
C1022 C 0.02289 0.09695 0.75718 0.0
C1023 C 0.03122 0.11172 0.72062 0.0
C1024 C 0.0151 0.07967 0.72456 0.0
C1025 C 0.01428 0.0833 0.86548 0.0
C1026 C 0.02704 0.06916 0.68358 0.0
C1027 C 0.01958 0.05368 0.64925 0.0
C1028 C 0.00011 0.04816 0.65607 0.0
C1029 C 0.98815 0.05863 0.69712 0.0
C1030 C 0.99557 0.0743 0.73104 0.0
H1031 H 0.02054 0.08399 0.91352 0.0
H1032 H 0.99839 0.08545 0.86953 0.0
H1033 H 0.0169 0.06863 0.84615 0.0
H1034 H 0.0421 0.07317 0.67729 0.0
H1035 H 0.02898 0.04641 0.61635 0.0
H1036 H 0.30823 0.05716 0.91555 0.0
H1037 H 0.33459 0.03913 0.86515 0.0
H1038 H 0.376 0.08032 0.93697 0.0
H1039 H 0.34992 0.09811 0.98846 0.0
H1040 H 0.36032 0.05001 0.77658 0.0
H1041 H 0.39999 0.02978 0.9931 0.0
H1042 H 0.37575 0.03962 0.99467 0.0
H1043 H 0.39634 0.05544 0.98645 0.0
C1044 C 0.32295 0.06238 0.92054 0.0
C1045 C 0.32698 0.079 0.95638 0.0
C1046 C 0.338 0.05203 0.89189 0.0
C1047 C 0.35733 0.0581 0.89861 0.0
C1048 C 0.36129 0.07501 0.93276 0.0
H1049 H 0.45328 0.03071 0.65756 0.0
H1050 H 0.4265 0.04518 0.7144 0.0
C1051 C 0.34631 0.08527 0.96168 0.0
C1052 C 0.37331 0.04719 0.86811 0.0
H1053 H 0.4171 0.02562 0.89617 0.0
C1054 C 0.37263 0.04451 0.80285 0.0
C1055 C 0.38928 0.03978 0.90247 0.0
C1056 C 0.39033 0.04111 0.97313 0.0
C1057 C 0.38771 0.03516 0.77078 0.0
C1058 C 0.40413 0.02862 0.80468 0.0
C1059 C 0.40458 0.03078 0.87018 0.0
C1060 C 0.42115 0.02 0.77261 0.0
C1061 C 0.3858 0.03227 0.70085 0.0
C1062 C 0.42762 0.00126 0.78792 0.0
C1063 C 0.44338 0.99307 0.75605 0.0
C1064 C 0.45309 0.00363 0.70925 0.0
C1065 C 0.4465 0.02233 0.69415 0.0
C1066 C 0.43094 0.03055 0.72618 0.0
H1067 H 0.37035 0.0322 0.68615 0.0
H1068 H 0.39306 0.0444 0.67597 0.0
H1069 H 0.39265 0.01848 0.68578 0.0
H1070 H 0.42027 0.99286 0.82373 0.0
H1071 H 0.44798 0.9785 0.76788 0.0
H1072 H 0.43099 0.34779 0.96103 0.0
H1073 H 0.44468 0.37492 0.90232 0.0
H1074 H 0.43592 0.41239 0.06181 0.0
H1075 H 0.42264 0.38515 0.12164 0.0
H1076 H 0.42776 0.40852 0.86884 0.0
H1077 H 0.49195 0.42348 0.01814 0.0
H1078 H 0.4777 0.40168 0.02605 0.0
H1079 H 0.46938 0.42404 0.06002 0.0
C1080 C 0.43205 0.36176 0.98384 0.0
C1081 C 0.42574 0.36429 0.04609 0.0
C1082 C 0.43989 0.37727 0.95017 0.0
C1083 C 0.44158 0.39562 0.97791 0.0
C1084 C 0.43517 0.39826 0.03991 0.0
H1085 H 0.45742 0.50097 0.75809 0.0
H1086 H 0.44523 0.47588 0.82878 0.0
C1087 C 0.42743 0.3827 0.07387 0.0
C1088 C 0.44941 0.41206 0.94077 0.0
H1089 H 0.48526 0.44618 0.93686 0.0
C1090 C 0.44034 0.41675 0.8837 0.0
C1091 C 0.46597 0.42262 0.95988 0.0
C1092 C 0.47695 0.41762 0.01905 0.0
C1093 C 0.44731 0.43172 0.84525 0.0
C1094 C 0.46353 0.44265 0.86518 0.0
C1095 C 0.4727 0.43791 0.92207 0.0
C1096 C 0.47146 0.45869 0.82658 0.0
C1097 C 0.43753 0.43533 0.78285 0.0
C1098 C 0.49057 0.45782 0.80417 0.0
C1099 C 0.49767 0.47227 0.76422 0.0
C1100 C 0.48574 0.48781 0.74591 0.0
C1101 C 0.46686 0.48902 0.77039 0.0
C1102 C 0.45984 0.47466 0.81068 0.0
H1103 H 0.42892 0.4226 0.76735 0.0
H1104 H 0.42748 0.44781 0.78739 0.0
H1105 H 0.44831 0.43882 0.74582 0.0
H1106 H 0.49982 0.44567 0.81618 0.0
H1107 H 0.5123 0.47095 0.74623 0.0
H1108 H 0.18569 0.42612 0.88225 0.0
H1109 H 0.15736 0.43324 0.81721 0.0
H1110 H 0.13517 0.47104 0.96153 0.0
H1111 H 0.16371 0.46443 0.02613 0.0
H1112 H 0.1195 0.4268 0.83876 0.0
H1113 H 0.13215 0.50561 0.80879 0.0
H1114 H 0.1503 0.48952 0.84058 0.0
H1115 H 0.13097 0.4983 0.88962 0.0
C1116 C 0.17483 0.43602 0.90003 0.0
C1117 C 0.17701 0.44482 0.95913 0.0
C1118 C 0.15864 0.44006 0.86283 0.0
C1119 C 0.14431 0.45292 0.88404 0.0
C1120 C 0.14628 0.46147 0.9435 0.0
H1121 H 0.02763 0.46179 0.73215 0.0
H1122 H 0.05621 0.45436 0.79543 0.0
C1123 C 0.16256 0.45758 0.98052 0.0
C1124 C 0.12712 0.45702 0.84438 0.0
H1125 H 0.10158 0.49362 0.77491 0.0
C1126 C 0.11562 0.4414 0.82456 0.0
C1127 C 0.12223 0.47605 0.82517 0.0
C1128 C 0.13466 0.49331 0.84157 0.0
C1129 C 0.09922 0.4443 0.78665 0.0
C1130 C 0.09392 0.4634 0.76947 0.0
C1131 C 0.10555 0.479 0.78866 0.0
C1132 C 0.07653 0.46756 0.7308 0.0
C1133 C 0.08801 0.42684 0.76433 0.0
C1134 C 0.07836 0.47791 0.6743 0.0
C1135 C 0.062 0.48229 0.63834 0.0
C1136 C 0.04351 0.47631 0.65805 0.0
C1137 C 0.04169 0.46606 0.71477 0.0
C1138 C 0.05804 0.46183 0.75105 0.0
H1139 H 0.09698 0.41347 0.76595 0.0
H1140 H 0.07531 0.42458 0.79543 0.0
H1141 H 0.08268 0.42892 0.71556 0.0
H1142 H 0.09248 0.48256 0.65791 0.0
H1143 H 0.06386 0.49023 0.59481 0.0
H1144 H 0.96846 0.82237 0.20684 0.0
H1145 H 0.98088 0.85207 0.25529 0.0
H1146 H 0.92386 0.87745 0.24692 0.0
H1147 H 0.91126 0.8479 0.19805 0.0
H1148 H 0.97169 0.89639 0.19984 0.0
H1149 H 0.9488 0.87563 0.44196 0.0
H1150 H 0.95526 0.85761 0.38414 0.0
H1151 H 0.93295 0.87068 0.37651 0.0
C1152 C 0.95855 0.83427 0.21521 0.0
C1153 C 0.93885 0.83276 0.19883 0.0
C1154 C 0.96569 0.85122 0.24262 0.0
C1155 C 0.95324 0.86683 0.25445 0.0
C1156 C 0.93364 0.86548 0.23788 0.0
H1157 H 0.96881 0.9682 0.48653 0.0
H1158 H 0.9555 0.94256 0.42094 0.0
C1159 C 0.92649 0.8486 0.21009 0.0
C1160 C 0.96061 0.88437 0.28589 0.0
H1161 H 0.96408 0.90576 0.42952 0.0
C1162 C 0.97004 0.89856 0.25002 0.0
C1163 C 0.9583 0.88702 0.35111 0.0
C1164 C 0.94834 0.87197 0.39118 0.0
C1165 C 0.97716 0.91557 0.27791 0.0
C1166 C 0.9751 0.91815 0.34359 0.0
C1167 C 0.96559 0.90386 0.37919 0.0
C1168 C 0.98287 0.93533 0.37707 0.0
C1169 C 0.98652 0.93064 0.23646 0.0
C1170 C 0.00265 0.94004 0.3738 0.0
C1171 C 0.01017 0.95511 0.4102 0.0
C1172 C 0.99809 0.96562 0.4508 0.0
C1173 C 0.97835 0.96085 0.4542 0.0
C1174 C 0.97077 0.94602 0.41713 0.0
H1175 H 0.98099 0.92979 0.18751 0.0
H1176 H 0.98398 0.9455 0.2544 0.0
H1177 H 0.00238 0.92803 0.23504 0.0
H1178 H 0.01241 0.93164 0.34482 0.0
H1179 H 0.02554 0.95823 0.40792 0.0
H1180 H 0.67323 0.96977 0.2217 0.0
H1181 H 0.64613 0.98523 0.27613 0.0
H1182 H 0.63892 0.93423 0.39117 0.0
H1183 H 0.66618 0.91879 0.33784 0.0
H1184 H 0.60884 0.97232 0.27826 0.0
H1185 H 0.63698 0.97712 0.52151 0.0
H1186 H 0.65248 0.97239 0.45492 0.0
H1187 H 0.63849 0.95313 0.48948 0.0
C1188 C 0.66603 0.96192 0.25908 0.0
C1189 C 0.67187 0.94303 0.27542 0.0
C1190 C 0.65056 0.97079 0.29017 0.0
C1191 C 0.64069 0.96101 0.33836 0.0
C1192 C 0.64661 0.94224 0.3552 0.0
H1193 H 0.53796 0.97681 0.5605 0.0
H1194 H 0.56724 0.96552 0.50775 0.0
C1195 C 0.66211 0.93337 0.32426 0.0
C1196 C 0.62328 0.9698 0.36755 0.0
H1197 H 0.60294 0.98187 0.50833 0.0
C1198 C 0.60761 0.97461 0.3285 0.0
C1199 C 0.62172 0.97276 0.4331 0.0
C1200 C 0.63839 0.96876 0.47716 0.0
C1201 C 0.59015 0.98165 0.35333 0.0
C1202 C 0.58841 0.98421 0.41903 0.0
C1203 C 0.60424 0.97978 0.45801 0.0
C1204 C 0.57013 0.99091 0.44862 0.0
C1205 C 0.57353 0.98557 0.30911 0.0
C1206 C 0.56198 0.00894 0.43294 0.0
C1207 C 0.545 0.01527 0.46234 0.0
C1208 C 0.53594 0.00369 0.50793 0.0
C1209 C 0.54428 0.98579 0.5242 0.0
C1210 C 0.56114 0.97941 0.49453 0.0
H1211 H 0.57541 0.97801 0.26347 0.0
H1212 H 0.55967 0.98087 0.33026 0.0
H1213 H 0.57263 0.00135 0.29959 0.0
H1214 H 0.56896 0.0183 0.39895 0.0
H1215 H 0.5391 0.02934 0.45021 0.0
H1216 H 0.60657 0.6537 0.0952 0.0
H1217 H 0.58996 0.62795 0.15329 0.0
H1218 H 0.56789 0.67017 0.28414 0.0
H1219 H 0.58416 0.69601 0.226 0.0
H1220 H 0.59523 0.61779 0.27994 0.0
H1221 H 0.51926 0.63978 0.23362 0.0
H1222 H 0.53941 0.64873 0.1879 0.0
H1223 H 0.5341 0.65905 0.26348 0.0
C1224 C 0.59806 0.65753 0.13607 0.0
C1225 C 0.59662 0.67692 0.15584 0.0
C1226 C 0.58861 0.64279 0.1692 0.0
C1227 C 0.57747 0.6472 0.2224 0.0
C1228 C 0.57608 0.66652 0.24241 0.0
H1229 H 0.51964 0.58844 0.52285 0.0
H1230 H 0.53332 0.61128 0.44693 0.0
C1231 C 0.58552 0.68125 0.20937 0.0
C1232 C 0.56798 0.63157 0.2589 0.0
H1233 H 0.5242 0.61673 0.316 0.0
C1234 C 0.57968 0.61738 0.28724 0.0
C1235 C 0.54769 0.6311 0.26815 0.0
C1236 C 0.53434 0.64536 0.23621 0.0
C1237 C 0.57169 0.60317 0.32677 0.0
C1238 C 0.55146 0.60304 0.33739 0.0
C1239 C 0.53971 0.61694 0.30785 0.0
C1240 C 0.54234 0.58913 0.38131 0.0
C1241 C 0.58501 0.58888 0.35876 0.0
C1242 C 0.54257 0.56916 0.36899 0.0
C1243 C 0.53451 0.55613 0.41203 0.0
C1244 C 0.526 0.56291 0.4677 0.0
C1245 C 0.52554 0.5829 0.47945 0.0
C1246 C 0.53355 0.59592 0.43645 0.0
H1247 H 0.60045 0.59332 0.35549 0.0
H1248 H 0.58112 0.58723 0.40911 0.0
H1249 H 0.58348 0.57449 0.33606 0.0
H1250 H 0.54901 0.56366 0.32618 0.0
H1251 H 0.53474 0.54082 0.40147 0.0
H1252 H 0.81705 0.60167 0.2828 0.0
H1253 H 0.84307 0.58449 0.33762 0.0
H1254 H 0.84725 0.54393 0.18435 0.0
H1255 H 0.82141 0.56115 0.12869 0.0
H1256 H 0.84658 0.54537 0.37632 0.0
H1257 H 0.90249 0.56577 0.20035 0.0
H1258 H 0.87902 0.57729 0.20357 0.0
H1259 H 0.88158 0.55372 0.16876 0.0
C1260 C 0.82344 0.58906 0.26077 0.0
C1261 C 0.81727 0.5829 0.20107 0.0
C1262 C 0.83827 0.57923 0.29227 0.0
C1263 C 0.84726 0.56312 0.26462 0.0
C1264 C 0.84072 0.55654 0.20599 0.0
H1265 H 0.93051 0.48587 0.45013 0.0
H1266 H 0.90177 0.4988 0.39711 0.0
C1267 C 0.82591 0.56637 0.17439 0.0
C1268 C 0.86384 0.5536 0.29641 0.0
H1269 H 0.91231 0.54476 0.28204 0.0
C1270 C 0.86094 0.54514 0.3557 0.0
C1271 C 0.88259 0.55357 0.26961 0.0
C1272 C 0.88674 0.56321 0.20733 0.0
C1273 C 0.87635 0.53661 0.38894 0.0
C1274 C 0.89504 0.53638 0.36172 0.0
C1275 C 0.89791 0.54482 0.30245 0.0
C1276 C 0.91209 0.5284 0.3952 0.0
C1277 C 0.87267 0.52841 0.45358 0.0
C1278 C 0.92745 0.54072 0.41117 0.0
C1279 C 0.94387 0.53341 0.44114 0.0
C1280 C 0.94544 0.51352 0.45512 0.0
C1281 C 0.9299 0.50121 0.43967 0.0
C1282 C 0.91339 0.50859 0.4097 0.0
H1283 H 0.85851 0.53324 0.47289 0.0
H1284 H 0.87257 0.51235 0.45102 0.0
H1285 H 0.88434 0.53277 0.48661 0.0
H1286 H 0.92669 0.55608 0.40061 0.0
H1287 H 0.95529 0.54343 0.45356 0.0
loop_
_geom_bond_atom_site_label_1
_geom_bond_atom_site_label_2
_geom_bond_distance
_geom_bond_site_symmetry_2
_ccdc_geom_bond_type
O0 Cd1 2.300 . S
O0 C7 1.275 . S
Cd1 O0 2.300 . S
Cd1 O9 2.381 . S
Cd1 O10 2.378 . S
O2 Cd3 2.385 . S
O2 C7 1.255 . S
Cd3 O2 2.385 . S
Cd3 O4 2.317 . S
O4 Cd3 2.317 . S
O4 C5 1.232 . S
C5 O4 1.232 . S
C5 O6 1.218 . S
O6 C5 1.218 . S
C7 O0 1.275 . S
C7 O2 1.255 . S
C8 O9 1.258 . S
C8 O10 1.256 . S
O9 Cd1 2.381 . S
O9 C8 1.258 . S
O10 Cd1 2.378 . S
O10 C8 1.256 . S
O11 Cd12 2.300 . S
O11 C18 1.275 . S
Cd12 O11 2.300 . S
Cd12 O20 2.381 . S
Cd12 O21 2.378 . S
O13 Cd14 2.385 . S
O13 C18 1.255 . S
Cd14 O13 2.385 . S
Cd14 O15 2.317 . S
O15 Cd14 2.317 . S
O15 C16 1.232 . S
C16 O15 1.232 . S
C16 O17 1.218 . S
O17 C16 1.218 . S
C18 O11 1.275 . S
C18 O13 1.255 . S
C19 O20 1.258 . S
C19 O21 1.256 . S
O20 Cd12 2.381 . S
O20 C19 1.258 . S
O21 Cd12 2.378 . S
O21 C19 1.256 . S
O22 Cd23 2.300 . S
O22 C29 1.275 . S
Cd23 O22 2.300 . S
Cd23 O31 2.381 . S
Cd23 O32 2.378 . S
O24 Cd25 2.385 . S
O24 C29 1.255 . S
Cd25 O24 2.385 . S
Cd25 O26 2.317 . S
O26 Cd25 2.317 . S
O26 C27 1.232 . S
C27 O26 1.232 . S
C27 O28 1.218 . S
O28 C27 1.218 . S
C29 O22 1.275 . S
C29 O24 1.255 . S
C30 O31 1.258 . S
C30 O32 1.256 . S
O31 Cd23 2.381 . S
O31 C30 1.258 . S
O32 Cd23 2.378 . S
O32 C30 1.256 . S
O33 Cd34 2.300 . S
O33 C40 1.275 . S
Cd34 O33 2.300 . S
Cd34 O42 2.381 . S
Cd34 O43 2.378 . S
O35 Cd36 2.385 . S
O35 C40 1.255 . S
Cd36 O35 2.385 . S
Cd36 O37 2.317 . S
O37 Cd36 2.317 . S
O37 C38 1.232 . S
C38 O37 1.232 . S
C38 O39 1.218 . S
O39 C38 1.218 . S
C40 O33 1.275 . S
C40 O35 1.255 . S
C41 O42 1.258 . S
C41 O43 1.256 . S
O42 Cd34 2.381 . S
O42 C41 1.258 . S
O43 Cd34 2.378 . S
O43 C41 1.256 . S
O44 Cd45 2.300 . S
O44 C51 1.275 . S
Cd45 O44 2.300 . S
Cd45 O53 2.381 . S
Cd45 O54 2.378 . S
O46 Cd47 2.385 1_554 S
O46 C51 1.255 . S
Cd47 O46 2.385 1_556 S
Cd47 O48 2.317 . S
O48 Cd47 2.317 . S
O48 C49 1.232 . S
C49 O48 1.232 . S
C49 O50 1.218 . S
O50 C49 1.218 . S
C51 O44 1.275 . S
C51 O46 1.255 . S
C52 O53 1.258 . S
C52 O54 1.256 . S
O53 Cd45 2.381 . S
O53 C52 1.258 . S
O54 Cd45 2.378 . S
O54 C52 1.256 . S
O55 Cd56 2.300 . S
O55 C62 1.275 . S
Cd56 O55 2.300 . S
Cd56 O64 2.381 . S
Cd56 O65 2.378 . S
O57 Cd58 2.385 1_554 S
O57 C62 1.255 . S
Cd58 O57 2.385 1_556 S
Cd58 O59 2.317 . S
O59 Cd58 2.317 . S
O59 C60 1.232 . S
C60 O59 1.232 . S
C60 O61 1.218 . S
O61 C60 1.218 . S
C62 O55 1.275 . S
C62 O57 1.255 . S
C63 O64 1.258 . S
C63 O65 1.256 . S
O64 Cd56 2.381 . S
O64 C63 1.258 . S
O65 Cd56 2.378 . S
O65 C63 1.256 . S
O66 Cd67 2.300 . S
O66 C73 1.275 . S
Cd67 O66 2.300 . S
Cd67 O75 2.381 . S
Cd67 O76 2.378 . S
O68 Cd69 2.385 1_554 S
O68 C73 1.255 . S
Cd69 O68 2.385 1_556 S
Cd69 O70 2.317 . S
O70 Cd69 2.317 . S
O70 C71 1.232 . S
C71 O70 1.232 . S
C71 O72 1.218 . S
O72 C71 1.218 . S
C73 O66 1.275 . S
C73 O68 1.255 . S
C74 O75 1.258 . S
C74 O76 1.256 . S
O75 Cd67 2.381 . S
O75 C74 1.258 . S
O76 Cd67 2.378 . S
O76 C74 1.256 . S
O77 Cd78 2.300 . S
O77 C84 1.275 . S
Cd78 O77 2.300 . S
Cd78 O86 2.381 . S
Cd78 O87 2.378 . S
O79 Cd80 2.385 1_554 S
O79 C84 1.255 . S
Cd80 O79 2.385 1_556 S
Cd80 O81 2.317 . S
O81 Cd80 2.317 . S
O81 C82 1.232 . S
C82 O81 1.232 . S
C82 O83 1.218 . S
O83 C82 1.218 . S
C84 O77 1.275 . S
C84 O79 1.255 . S
C85 O86 1.258 . S
C85 O87 1.256 . S
O86 Cd78 2.381 . S
O86 C85 1.258 . S
O87 Cd78 2.378 . S
O87 C85 1.256 . S
Eu88 N119 2.657 1_565 S
Eu88 N126 2.615 . S
Eu88 O132 2.558 . S
Eu88 O133 2.612 1_455 S
Eu88 O135 2.348 1_455 S
Eu88 O136 2.563 . S
Eu88 O137 2.419 . S
Eu88 O139 2.380 1_565 S
Eu88 O140 2.432 . S
Eu88 C152 2.848 . S
C89 C92 1.429 . S
C89 C93 1.411 . S
C89 N96 1.377 . S
C90 C92 1.420 1_565 S
C90 C94 1.423 . S
C90 C102 1.392 . S
C91 C93 1.420 1_565 S
C91 C94 1.351 . S
C91 H114 0.931 . S
C92 C89 1.429 . S
C92 C90 1.420 1_545 S
C92 N100 1.362 . S
C93 C89 1.411 . S
C93 C91 1.420 1_545 S
C93 C98 1.395 . S
C94 C90 1.423 . S
C94 C91 1.351 . S
C94 H106 0.930 . S
C95 C97 1.400 . S
C95 C98 1.386 . S
C95 H107 0.930 . S
N96 C89 1.377 . S
N96 C97 1.321 . S
N96 Eu99 2.609 . S
C97 C95 1.400 . S
C97 N96 1.321 . S
C97 H104 0.930 . S
C98 C93 1.395 . S
C98 C95 1.386 . S
C98 H117 0.930 . S
Eu99 N96 2.609 . S
Eu99 N100 2.657 . S
Eu99 O133 2.380 1_545 S
Eu99 O134 2.432 . S
Eu99 O138 2.558 . S
Eu99 O139 2.612 1_655 S
Eu99 O141 2.339 1_655 S
Eu99 O142 2.563 1_655 S
Eu99 O143 2.420 . S
Eu99 C163 2.848 . S
N100 C92 1.362 . S
N100 Eu99 2.657 . S
N100 C101 1.334 1_645 S
C101 N100 1.334 1_465 S
C101 C103 1.413 . S
C101 H108 0.933 . S
C102 C90 1.392 . S
C102 C103 1.367 1_655 S
C102 H110 0.930 . S
C103 C101 1.413 . S
C103 C102 1.367 1_455 S
C103 H105 0.930 . S
H104 C97 0.930 . S
H105 C103 0.930 . S
H106 C94 0.930 . S
H107 C95 0.930 . S
H108 C101 0.933 . S
H109 C123 0.930 1_655 S
H110 C102 0.930 . S
H111 C129 0.930 . S
H112 C120 0.929 1_655 S
H113 C127 0.930 . S
H114 C91 0.931 . S
H115 C121 0.930 . S
H116 C154 0.930 . S
H117 C98 0.930 . S
H118 C153 0.931 . S
N119 Eu88 2.657 1_545 S
N119 C120 1.334 . S
N119 C124 1.362 . S
C120 H112 0.929 1_455 S
C120 N119 1.334 . S
C120 C123 1.413 . S
C121 H115 0.930 . S
C121 C122 1.392 . S
C121 C123 1.367 . S
C122 C121 1.392 . S
C122 C124 1.420 . S
C122 C154 1.423 . S
C123 H109 0.930 1_455 S
C123 C120 1.413 . S
C123 C121 1.367 . S
C124 N119 1.362 . S
C124 C122 1.420 . S
C124 C128 1.429 . S
H125 C130 0.930 . S
N126 Eu88 2.615 . S
N126 C128 1.362 1_565 S
N126 C129 1.334 . S
C127 H113 0.930 . S
C127 C129 1.400 . S
C127 C130 1.386 1_565 S
C128 C124 1.429 . S
C128 N126 1.362 1_545 S
C128 C131 1.411 . S
C129 H111 0.930 . S
C129 N126 1.334 . S
C129 C127 1.400 . S
C130 H125 0.930 . S
C130 C127 1.386 1_545 S
C130 C131 1.395 . S
C131 C128 1.411 . S
C131 C130 1.395 . S
C131 C153 1.420 . S
O132 Eu88 2.558 . S
O132 C152 1.257 . S
O133 Eu88 2.612 1_655 S
O133 Eu99 2.380 1_565 S
O133 C144 1.276 . S
O134 Eu99 2.432 . S
O134 C151 1.264 . S
O135 Eu88 2.348 1_655 S
O135 C151 1.240 1_565 S
O136 Eu88 2.563 . S
O136 C144 1.235 1_455 S
O137 Eu88 2.419 . S
O137 C152 1.249 . S
O138 Eu99 2.558 . S
O138 C163 1.257 . S
O139 Eu88 2.380 1_545 S
O139 Eu99 2.612 1_455 S
O139 C155 1.276 . S
O140 Eu88 2.432 . S
O140 C162 1.264 1_565 S
O141 Eu99 2.339 1_455 S
O141 C162 1.254 . S
O142 Eu99 2.563 1_455 S
O142 C155 1.235 . S
O143 Eu99 2.420 . S
O143 C163 1.253 . S
C144 O133 1.276 . S
C144 O136 1.235 1_655 S
C145 C147 1.393 . S
C145 C149 1.395 . S
C145 C152 1.492 . S
C146 C147 1.392 . S
C146 C148 1.386 . S
C147 C145 1.393 . S
C147 C146 1.392 . S
C147 H164 0.930 1_455 S
C148 C146 1.386 . S
C148 C150 1.395 . S
C148 H165 0.930 . S
C149 C145 1.395 . S
C149 C150 1.379 . S
C149 H166 0.930 . S
C150 C148 1.395 . S
C150 C149 1.379 . S
C150 H167 0.930 . S
C151 O134 1.264 . S
C151 O135 1.240 1_545 S
C152 Eu88 2.848 . S
C152 O132 1.257 . S
C152 O137 1.249 . S
C152 C145 1.492 . S
C153 H118 0.931 . S
C153 C131 1.420 . S
C153 C154 1.351 . S
C154 H116 0.930 . S
C154 C122 1.423 . S
C154 C153 1.351 . S
C155 O139 1.276 . S
C155 O142 1.235 . S
C156 C157 1.345 1_655 S
C156 C160 1.395 . S
C156 C163 1.492 . S
C157 C156 1.345 1_455 S
C157 C158 1.392 . S
C157 H168 0.981 . S
C158 C157 1.392 . S
C158 C159 1.379 1_455 S
C159 C158 1.379 1_655 S
C159 C161 1.395 . S
C159 H169 0.930 . S
C160 C156 1.395 . S
C160 C161 1.379 . S
C160 H170 0.930 . S
C161 C159 1.395 . S
C161 C160 1.379 . S
C161 H171 0.930 . S
C162 O140 1.264 1_545 S
C162 O141 1.254 . S
C163 Eu99 2.848 . S
C163 O138 1.257 . S
C163 O143 1.253 . S
C163 C156 1.492 . S
H164 C147 0.930 1_655 S
H165 C148 0.930 . S
H166 C149 0.930 . S
H167 C150 0.930 . S
H168 C157 0.981 . S
H169 C159 0.930 . S
H170 C160 0.930 . S
H171 C161 0.930 . S
Eu172 N203 2.657 . S
Eu172 N210 2.609 . S
Eu172 O216 2.558 . S
Eu172 O217 2.612 . S
Eu172 O219 2.339 1_545 S
Eu172 O220 2.563 . S
Eu172 O221 2.419 . S
Eu172 O223 2.380 . S
Eu172 O224 2.432 . S
Eu172 C236 2.848 . S
C173 C176 1.429 . S
C173 C177 1.411 . S
C173 N180 1.377 . S
C174 C176 1.420 . S
C174 C178 1.423 . S
C174 C186 1.392 . S
C175 C177 1.420 . S
C175 C178 1.351 . S
C175 H198 0.931 . S
C176 C173 1.429 . S
C176 C174 1.420 . S
C176 N184 1.362 . S
C177 C173 1.411 . S
C177 C175 1.420 . S
C177 C182 1.395 . S
C178 C174 1.423 . S
C178 C175 1.351 . S
C178 H190 0.930 . S
C179 C181 1.400 . S
C179 C182 1.386 . S
C179 H191 0.930 . S
N180 C173 1.377 . S
N180 C181 1.321 . S
N180 Eu183 2.609 . S
C181 C179 1.400 . S
C181 N180 1.321 . S
C181 H188 0.930 . S
C182 C177 1.395 . S
C182 C179 1.386 . S
C182 H201 0.930 . S
Eu183 N180 2.609 . S
Eu183 N184 2.657 . S
Eu183 O217 2.380 1_565 S
Eu183 O218 2.432 . S
Eu183 O222 2.558 . S
Eu183 O223 2.612 1_565 S
Eu183 O225 2.339 1_565 S
Eu183 O226 2.563 1_565 S
Eu183 O227 2.419 1_565 S
Eu183 C247 2.848 . S
N184 C176 1.362 . S
N184 Eu183 2.657 . S
N184 C185 1.334 1_565 S
C185 N184 1.334 1_545 S
C185 C187 1.413 . S
C185 H192 0.929 . S
C186 C174 1.392 . S
C186 C187 1.367 1_565 S
C186 H194 0.930 . S
C187 C185 1.413 . S
C187 C186 1.367 1_545 S
C187 H189 0.930 . S
H188 C181 0.930 . S
H189 C187 0.930 . S
H190 C178 0.930 . S
H191 C179 0.930 . S
H192 C185 0.929 . S
H193 C207 0.930 1_565 S
H194 C186 0.930 . S
H195 C213 0.930 . S
H196 C204 0.929 1_565 S
H197 C211 0.930 . S
H198 C175 0.931 . S
H199 C205 0.930 . S
H200 C238 0.930 . S
H201 C182 0.930 . S
H202 C237 0.931 . S
N203 Eu172 2.657 . S
N203 C204 1.334 . S
N203 C208 1.362 . S
C204 H196 0.929 1_545 S
C204 N203 1.334 . S
C204 C207 1.413 . S
C205 H199 0.930 . S
C205 C206 1.392 . S
C205 C207 1.367 . S
C206 C205 1.392 . S
C206 C208 1.420 . S
C206 C238 1.423 . S
C207 H193 0.930 1_545 S
C207 C204 1.413 . S
C207 C205 1.367 . S
C208 N203 1.362 . S
C208 C206 1.420 . S
C208 C212 1.429 . S
H209 C214 0.930 . S
N210 Eu172 2.609 . S
N210 C212 1.377 . S
N210 C213 1.321 . S
C211 H197 0.930 . S
C211 C213 1.400 . S
C211 C214 1.386 . S
C212 C208 1.429 . S
C212 N210 1.377 . S
C212 C215 1.411 . S
C213 H195 0.930 . S
C213 N210 1.321 . S
C213 C211 1.400 . S
C214 H209 0.930 . S
C214 C211 1.386 . S
C214 C215 1.395 . S
C215 C212 1.411 . S
C215 C214 1.395 . S
C215 C237 1.420 . S
O216 Eu172 2.558 . S
O216 C236 1.257 . S
O217 Eu172 2.612 . S
O217 Eu183 2.380 1_545 S
O217 C228 1.276 . S
O218 Eu183 2.432 . S
O218 C235 1.264 . S
O219 Eu172 2.339 1_565 S
O219 C235 1.254 . S
O220 Eu172 2.563 . S
O220 C228 1.245 . S
O221 Eu172 2.419 . S
O221 C236 1.249 . S
O222 Eu183 2.558 . S
O222 C247 1.257 . S
O223 Eu172 2.380 . S
O223 Eu183 2.612 1_545 S
O223 C239 1.276 . S
O224 Eu172 2.432 . S
O224 C246 1.264 . S
O225 Eu183 2.339 1_545 S
O225 C246 1.254 . S
O226 Eu183 2.563 1_545 S
O226 C239 1.235 . S
O227 Eu183 2.419 1_545 S
O227 C247 1.249 1_545 S
C228 O217 1.276 . S
C228 O220 1.245 . S
C229 C231 1.393 . S
C229 C233 1.395 . S
C229 C236 1.492 . S
C230 C231 1.392 . S
C230 C232 1.386 . S
C231 C229 1.393 . S
C231 C230 1.392 . S
C231 H248 0.930 . S
C232 C230 1.386 . S
C232 C234 1.395 . S
C232 H249 0.930 . S
C233 C229 1.395 . S
C233 C234 1.379 . S
C233 H250 0.930 . S
C234 C232 1.395 . S
C234 C233 1.379 . S
C234 H251 0.930 . S
C235 O218 1.264 . S
C235 O219 1.254 . S
C236 Eu172 2.848 . S
C236 O216 1.257 . S
C236 O221 1.249 . S
C236 C229 1.492 . S
C237 H202 0.931 . S
C237 C215 1.420 . S
C237 C238 1.351 . S
C238 H200 0.930 . S
C238 C206 1.423 . S
C238 C237 1.351 . S
C239 O223 1.276 . S
C239 O226 1.235 . S
C240 C241 1.393 1_565 S
C240 C244 1.395 . S
C240 C247 1.492 . S
C241 C240 1.393 1_545 S
C241 C242 1.392 . S
C241 H252 0.930 . S
C242 C241 1.392 . S
C242 C243 1.386 1_545 S
C243 C242 1.386 1_565 S
C243 C245 1.395 . S
C243 H253 0.930 . S
C244 C240 1.395 . S
C244 C245 1.379 . S
C244 H254 0.930 . S
C245 C243 1.395 . S
C245 C244 1.379 . S
C245 H255 0.930 . S
C246 O224 1.264 . S
C246 O225 1.254 . S
C247 Eu183 2.848 . S
C247 O222 1.257 . S
C247 O227 1.249 1_565 S
C247 C240 1.492 . S
H248 C231 0.930 . S
H249 C232 0.930 . S
H250 C233 0.930 . S
H251 C234 0.930 . S
H252 C241 0.930 . S
H253 C243 0.930 . S
H254 C244 0.930 . S
H255 C245 0.930 . S
Eu256 N287 2.657 . S
Eu256 N294 2.609 . S
Eu256 O300 2.558 . S
Eu256 O301 2.612 . S
Eu256 O303 2.339 . S
Eu256 O304 2.563 . S
Eu256 O305 2.419 . S
Eu256 O307 2.380 . S
Eu256 O308 2.432 . S
Eu256 C320 2.848 . S
C257 C260 1.429 . S
C257 C261 1.411 . S
C257 N264 1.377 . S
C258 C260 1.420 . S
C258 C262 1.423 . S
C258 C270 1.392 . S
C259 C261 1.420 . S
C259 C262 1.351 . S
C259 H282 0.931 . S
C260 C257 1.429 . S
C260 C258 1.420 . S
C260 N268 1.362 . S
C261 C257 1.411 . S
C261 C259 1.420 . S
C261 C266 1.395 . S
C262 C258 1.423 . S
C262 C259 1.351 . S
C262 H274 0.930 . S
C263 C265 1.400 . S
C263 C266 1.386 . S
C263 H275 0.930 . S
N264 C257 1.377 . S
N264 C265 1.321 . S
N264 Eu267 2.609 . S
C265 C263 1.400 . S
C265 N264 1.321 . S
C265 H272 0.930 . S
C266 C261 1.395 . S
C266 C263 1.386 . S
C266 H285 0.930 . S
Eu267 N264 2.609 . S
Eu267 N268 2.657 . S
Eu267 O301 2.380 . S
Eu267 O302 2.432 . S
Eu267 O306 2.558 . S
Eu267 O307 2.612 . S
Eu267 O309 2.339 . S
Eu267 O310 2.563 . S
Eu267 O311 2.419 . S
Eu267 C331 2.848 . S
N268 C260 1.362 . S
N268 Eu267 2.657 . S
N268 C269 1.334 . S
C269 N268 1.334 . S
C269 C271 1.413 . S
C269 H276 0.929 . S
C270 C258 1.392 . S
C270 C271 1.367 . S
C270 H278 0.930 . S
C271 C269 1.413 . S
C271 C270 1.367 . S
C271 H273 0.930 . S
H272 C265 0.930 . S
H273 C271 0.930 . S
H274 C262 0.930 . S
H275 C263 0.930 . S
H276 C269 0.929 . S
H277 C291 0.930 . S
H278 C270 0.930 . S
H279 C297 0.930 . S
H280 C288 0.929 . S
H281 C295 0.930 . S
H282 C259 0.931 . S
H283 C289 0.930 . S
H284 C322 0.930 . S
H285 C266 0.930 . S
H286 C321 0.931 . S
N287 Eu256 2.657 . S
N287 C288 1.334 . S
N287 C292 1.362 . S
C288 H280 0.929 . S
C288 N287 1.334 . S
C288 C291 1.413 . S
C289 H283 0.930 . S
C289 C290 1.392 . S
C289 C291 1.367 . S
C290 C289 1.392 . S
C290 C292 1.420 . S
C290 C322 1.423 . S
C291 H277 0.930 . S
C291 C288 1.413 . S
C291 C289 1.367 . S
C292 N287 1.362 . S
C292 C290 1.420 . S
C292 C296 1.429 . S
H293 C298 0.930 . S
N294 Eu256 2.609 . S
N294 C296 1.377 . S
N294 C297 1.321 . S
C295 H281 0.930 . S
C295 C297 1.400 . S
C295 C298 1.386 . S
C296 C292 1.429 . S
C296 N294 1.377 . S
C296 C299 1.411 . S
C297 H279 0.930 . S
C297 N294 1.321 . S
C297 C295 1.400 . S
C298 H293 0.930 . S
C298 C295 1.386 . S
C298 C299 1.395 . S
C299 C296 1.411 . S
C299 C298 1.395 . S
C299 C321 1.420 . S
O300 Eu256 2.558 . S
O300 C320 1.257 . S
O301 Eu256 2.612 . S
O301 Eu267 2.380 . S
O301 C312 1.276 . S
O302 Eu267 2.432 . S
O302 C319 1.264 . S
O303 Eu256 2.339 . S
O303 C319 1.254 . S
O304 Eu256 2.563 . S
O304 C312 1.235 . S
O305 Eu256 2.419 . S
O305 C320 1.249 . S
O306 Eu267 2.558 . S
O306 C331 1.257 . S
O307 Eu256 2.380 . S
O307 Eu267 2.612 . S
O307 C323 1.276 . S
O308 Eu256 2.432 . S
O308 C330 1.264 . S
O309 Eu267 2.339 . S
O309 C330 1.254 . S
O310 Eu267 2.563 . S
O310 C323 1.235 . S
O311 Eu267 2.419 . S
O311 C331 1.249 . S
C312 O301 1.276 . S
C312 O304 1.235 . S
C313 C315 1.393 . S
C313 C317 1.395 . S
C313 C320 1.492 . S
C314 C315 1.392 . S
C314 C316 1.386 . S
C315 C313 1.393 . S
C315 C314 1.392 . S
C315 H332 0.930 . S
C316 C314 1.386 . S
C316 C318 1.395 . S
C316 H333 0.930 . S
C317 C313 1.395 . S
C317 C318 1.379 . S
C317 H334 0.930 . S
C318 C316 1.395 . S
C318 C317 1.379 . S
C318 H335 0.930 . S
C319 O302 1.264 . S
C319 O303 1.254 . S
C320 Eu256 2.848 . S
C320 O300 1.257 . S
C320 O305 1.249 . S
C320 C313 1.492 . S
C321 H286 0.931 . S
C321 C299 1.420 . S
C321 C322 1.351 . S
C322 H284 0.930 . S
C322 C290 1.423 . S
C322 C321 1.351 . S
C323 O307 1.276 . S
C323 O310 1.235 . S
C324 C325 1.393 . S
C324 C328 1.395 . S
C324 C331 1.492 . S
C325 C324 1.393 . S
C325 C326 1.392 . S
C325 H336 0.930 . S
C326 C325 1.392 . S
C326 C327 1.386 . S
C327 C326 1.386 . S
C327 C329 1.395 . S
C327 H337 0.930 . S
C328 C324 1.395 . S
C328 C329 1.379 . S
C328 H338 0.930 . S
C329 C327 1.395 . S
C329 C328 1.379 . S
C329 H339 0.930 . S
C330 O308 1.264 . S
C330 O309 1.254 . S
C331 Eu267 2.848 . S
C331 O306 1.257 . S
C331 O311 1.249 . S
C331 C324 1.492 . S
H332 C315 0.930 . S
H333 C316 0.930 . S
H334 C317 0.930 . S
H335 C318 0.930 . S
H336 C325 0.930 . S
H337 C327 0.930 . S
H338 C328 0.930 . S
H339 C329 0.930 . S
Eu340 N371 2.657 . S
Eu340 N378 2.609 . S
Eu340 O384 2.558 . S
Eu340 O385 2.612 . S
Eu340 O387 2.339 . S
Eu340 O388 2.563 . S
Eu340 O389 2.419 . S
Eu340 O391 2.380 . S
Eu340 O392 2.432 1_455 S
Eu340 C404 2.848 . S
C341 C344 1.429 . S
C341 C345 1.411 . S
C341 N348 1.377 . S
C342 C344 1.420 . S
C342 C346 1.423 . S
C342 C354 1.392 . S
C343 C345 1.420 . S
C343 C346 1.351 . S
C343 H366 0.931 . S
C344 C341 1.429 . S
C344 C342 1.420 . S
C344 N352 1.362 . S
C345 C341 1.411 . S
C345 C343 1.420 . S
C345 C350 1.395 . S
C346 C342 1.423 . S
C346 C343 1.351 . S
C346 H358 0.930 . S
C347 C349 1.400 . S
C347 C350 1.386 1_455 S
C347 H359 0.930 . S
N348 C341 1.377 . S
N348 C349 1.321 1_655 S
N348 Eu351 2.609 . S
C349 C347 1.400 . S
C349 N348 1.321 1_455 S
C349 H356 0.930 . S
C350 C345 1.395 . S
C350 C347 1.386 1_655 S
C350 H369 0.930 . S
Eu351 N348 2.609 . S
Eu351 N352 2.657 . S
Eu351 O385 2.380 1_655 S
Eu351 O386 2.432 1_655 S
Eu351 O390 2.558 . S
Eu351 O391 2.612 1_655 S
Eu351 O393 2.339 . S
Eu351 O394 2.563 . S
Eu351 O395 2.419 . S
Eu351 C415 2.848 . S
N352 C344 1.362 . S
N352 Eu351 2.657 . S
N352 C353 1.334 . S
C353 N352 1.334 . S
C353 C355 1.413 . S
C353 H360 0.929 . S
C354 C342 1.392 . S
C354 C355 1.367 . S
C354 H362 0.930 . S
C355 C353 1.413 . S
C355 C354 1.367 . S
C355 H357 0.930 . S
H356 C349 0.930 . S
H357 C355 0.930 . S
H358 C346 0.930 . S
H359 C347 0.930 . S
H360 C353 0.929 . S
H361 C375 0.930 . S
H362 C354 0.930 . S
H363 C381 0.930 1_655 S
H364 C372 0.929 . S
H365 C379 0.930 1_655 S
H366 C343 0.931 . S
H367 C373 0.930 . S
H368 C406 0.930 . S
H369 C350 0.930 . S
H370 C405 0.931 . S
N371 Eu340 2.657 . S
N371 C372 1.334 . S
N371 C376 1.362 . S
C372 H364 0.929 . S
C372 N371 1.334 . S
C372 C375 1.413 . S
C373 H367 0.930 . S
C373 C374 1.392 . S
C373 C375 1.367 . S
C374 C373 1.392 . S
C374 C376 1.420 . S
C374 C406 1.423 . S
C375 H361 0.930 . S
C375 C372 1.413 . S
C375 C373 1.367 . S
C376 N371 1.362 . S
C376 C374 1.420 . S
C376 C380 1.429 . S
H377 C382 0.930 . S
N378 Eu340 2.609 . S
N378 C380 1.377 . S
N378 C381 1.321 . S
C379 H365 0.930 1_455 S
C379 C381 1.400 . S
C379 C382 1.386 . S
C380 C376 1.429 . S
C380 N378 1.377 . S
C380 C383 1.411 . S
C381 H363 0.930 1_455 S
C381 N378 1.321 . S
C381 C379 1.400 . S
C382 H377 0.930 . S
C382 C379 1.386 . S
C382 C383 1.395 . S
C383 C380 1.411 . S
C383 C382 1.395 . S
C383 C405 1.420 . S
O384 Eu340 2.558 . S
O384 C404 1.257 . S
O385 Eu340 2.612 . S
O385 Eu351 2.380 1_455 S
O385 C396 1.276 . S
O386 Eu351 2.432 1_455 S
O386 C403 1.264 . S
O387 Eu340 2.339 . S
O387 C403 1.254 . S
O388 Eu340 2.563 . S
O388 C396 1.235 . S
O389 Eu340 2.419 . S
O389 C404 1.249 . S
O390 Eu351 2.558 . S
O390 C415 1.257 . S
O391 Eu340 2.380 . S
O391 Eu351 2.612 1_455 S
O391 C407 1.276 1_455 S
O392 Eu340 2.432 1_655 S
O392 C414 1.264 . S
O393 Eu351 2.339 . S
O393 C414 1.254 . S
O394 Eu351 2.563 . S
O394 C407 1.235 . S
O395 Eu351 2.419 . S
O395 C415 1.249 . S
C396 O385 1.276 . S
C396 O388 1.235 . S
C397 C399 1.393 . S
C397 C401 1.395 . S
C397 C404 1.492 . S
C398 C399 1.392 . S
C398 C400 1.386 . S
C399 C397 1.393 . S
C399 C398 1.392 . S
C399 H416 0.930 . S
C400 C398 1.386 . S
C400 C402 1.395 . S
C400 H417 0.930 . S
C401 C397 1.395 . S
C401 C402 1.379 . S
C401 H418 0.930 . S
C402 C400 1.395 . S
C402 C401 1.379 . S
C402 H419 0.930 . S
C403 O386 1.264 . S
C403 O387 1.254 . S
C404 Eu340 2.848 . S
C404 O384 1.257 . S
C404 O389 1.249 . S
C404 C397 1.492 . S
C405 H370 0.931 . S
C405 C383 1.420 . S
C405 C406 1.351 . S
C406 H368 0.930 . S
C406 C374 1.423 . S
C406 C405 1.351 . S
C407 O391 1.276 1_655 S
C407 O394 1.235 . S
C408 C409 1.393 . S
C408 C412 1.395 . S
C408 C415 1.492 . S
C409 C408 1.393 . S
C409 C410 1.392 . S
C409 H420 0.930 . S
C410 C409 1.392 . S
C410 C411 1.386 . S
C411 C410 1.386 . S
C411 C413 1.395 . S
C411 H421 0.930 . S
C412 C408 1.395 . S
C412 C413 1.379 . S
C412 H422 0.930 . S
C413 C411 1.395 . S
C413 C412 1.379 . S
C413 H423 0.930 . S
C414 O392 1.264 . S
C414 O393 1.254 . S
C415 Eu351 2.848 . S
C415 O390 1.257 . S
C415 O395 1.249 . S
C415 C408 1.492 . S
H416 C399 0.930 . S
H417 C400 0.930 . S
H418 C401 0.930 . S
H419 C402 0.930 . S
H420 C409 0.930 . S
H421 C411 0.930 . S
H422 C412 0.930 . S
H423 C413 0.930 . S
H424 C432 0.929 . S
H425 C434 0.930 . S
H426 C436 0.930 . S
H427 C439 0.929 . S
H428 C442 0.930 . S
H429 C444 0.960 . S
H430 C444 0.960 . S
H431 C444 0.960 . S
C432 H424 0.929 . S
C432 C433 1.377 . S
C432 C434 1.384 . S
C433 C432 1.377 . S
C433 C439 1.390 . S
C434 H425 0.930 . S
C434 C432 1.384 . S
C434 C435 1.372 . S
C435 C434 1.372 . S
C435 C436 1.400 . S
C435 C440 1.490 . S
C436 H426 0.930 . S
C436 C435 1.400 . S
C436 C439 1.386 . S
H437 C453 0.930 1_565 S
H438 C454 0.931 . S
C439 H427 0.929 . S
C439 C433 1.390 . S
C439 C436 1.386 . S
C440 C435 1.490 . S
C440 C442 1.395 . S
C440 C443 1.403 . S
H441 C447 0.930 . S
C442 H428 0.930 . S
C442 C440 1.395 . S
C442 C445 1.403 . S
C443 C440 1.403 . S
C443 C444 1.524 . S
C443 C447 1.400 . S
C444 H429 0.960 . S
C444 H430 0.960 . S
C444 H431 0.960 . S
C444 C443 1.524 . S
C445 C442 1.403 . S
C445 C446 1.392 . S
C445 C449 1.495 . S
C446 C445 1.392 . S
C446 C447 1.385 . S
C446 C448 1.478 . S
C447 H441 0.930 . S
C447 C443 1.400 . S
C447 C446 1.385 . S
C448 C446 1.478 . S
C448 C450 1.381 . S
C448 C454 1.383 . S
C449 C445 1.495 . S
C449 H455 0.959 . S
C449 H456 0.961 . S
C449 H457 0.960 . S
C450 C448 1.381 . S
C450 C451 1.394 . S
C450 H458 0.930 . S
C451 C450 1.394 . S
C451 C452 1.383 . S
C451 H459 0.929 . S
C452 C451 1.383 . S
C452 C453 1.377 . S
C453 H437 0.930 1_545 S
C453 C452 1.377 . S
C453 C454 1.379 . S
C454 H438 0.931 . S
C454 C448 1.383 . S
C454 C453 1.379 . S
H455 C449 0.959 . S
H456 C449 0.961 . S
H457 C449 0.960 . S
H458 C450 0.930 . S
H459 C451 0.929 . S
H460 C468 0.929 . S
H461 C470 0.930 . S
H462 C472 0.930 . S
H463 C475 0.929 . S
H464 C478 0.930 . S
H465 C480 0.960 . S
H466 C480 0.960 . S
H467 C480 0.960 . S
C468 H460 0.929 . S
C468 C469 1.377 . S
C468 C470 1.384 . S
C469 C468 1.377 . S
C469 C475 1.390 . S
C470 H461 0.930 . S
C470 C468 1.384 . S
C470 C471 1.372 . S
C471 C470 1.372 . S
C471 C472 1.400 . S
C471 C476 1.490 . S
C472 H462 0.930 . S
C472 C471 1.400 . S
C472 C475 1.386 . S
H473 C489 0.930 . S
H474 C490 0.931 . S
C475 H463 0.929 . S
C475 C469 1.390 . S
C475 C472 1.386 . S
C476 C471 1.490 . S
C476 C478 1.395 . S
C476 C479 1.403 . S
H477 C483 0.930 . S
C478 H464 0.930 . S
C478 C476 1.395 . S
C478 C481 1.403 . S
C479 C476 1.403 . S
C479 C480 1.524 . S
C479 C483 1.400 . S
C480 H465 0.960 . S
C480 H466 0.960 . S
C480 H467 0.960 . S
C480 C479 1.524 . S
C481 C478 1.403 . S
C481 C482 1.392 . S
C481 C485 1.495 . S
C482 C481 1.392 . S
C482 C483 1.385 . S
C482 C484 1.478 . S
C483 H477 0.930 . S
C483 C479 1.400 . S
C483 C482 1.385 . S
C484 C482 1.478 . S
C484 C486 1.381 . S
C484 C490 1.383 . S
C485 C481 1.495 . S
C485 H491 0.959 . S
C485 H492 0.961 . S
C485 H493 0.960 . S
C486 C484 1.381 . S
C486 C487 1.394 . S
C486 H494 0.930 . S
C487 C486 1.394 . S
C487 C488 1.383 . S
C487 H495 0.929 . S
C488 C487 1.383 . S
C488 C489 1.377 . S
C489 H473 0.930 . S
C489 C488 1.377 . S
C489 C490 1.379 . S
C490 H474 0.931 . S
C490 C484 1.383 . S
C490 C489 1.379 . S
H491 C485 0.959 . S
H492 C485 0.961 . S
H493 C485 0.960 . S
H494 C486 0.930 . S
H495 C487 0.929 . S
H496 C504 0.929 . S
H497 C506 0.930 . S
H498 C508 0.930 . S
H499 C511 0.929 . S
H500 C514 0.930 . S
H501 C516 0.960 . S
H502 C516 0.960 . S
H503 C516 0.960 . S
C504 H496 0.929 . S
C504 C505 1.377 . S
C504 C506 1.384 . S
C505 C504 1.377 . S
C505 C511 1.390 . S
C506 H497 0.930 . S
C506 C504 1.384 . S
C506 C507 1.372 . S
C507 C506 1.372 . S
C507 C508 1.400 . S
C507 C512 1.490 . S
C508 H498 0.930 . S
C508 C507 1.400 . S
C508 C511 1.386 . S
H509 C525 0.930 . S
H510 C526 0.931 . S
C511 H499 0.929 . S
C511 C505 1.390 . S
C511 C508 1.386 . S
C512 C507 1.490 . S
C512 C514 1.395 . S
C512 C515 1.403 . S
H513 C519 0.930 . S
C514 H500 0.930 . S
C514 C512 1.395 . S
C514 C517 1.403 . S
C515 C512 1.403 . S
C515 C516 1.524 . S
C515 C519 1.400 . S
C516 H501 0.960 . S
C516 H502 0.960 . S
C516 H503 0.960 . S
C516 C515 1.524 . S
C517 C514 1.403 . S
C517 C518 1.392 . S
C517 C521 1.495 . S
C518 C517 1.392 . S
C518 C519 1.385 . S
C518 C520 1.478 . S
C519 H513 0.930 . S
C519 C515 1.400 . S
C519 C518 1.385 . S
C520 C518 1.478 . S
C520 C522 1.381 . S
C520 C526 1.383 . S
C521 C517 1.495 . S
C521 H527 0.959 . S
C521 H528 0.961 . S
C521 H529 0.960 . S
C522 C520 1.381 . S
C522 C523 1.394 . S
C522 H530 0.930 . S
C523 C522 1.394 . S
C523 C524 1.383 . S
C523 H531 0.929 . S
C524 C523 1.383 . S
C524 C525 1.377 . S
C525 H509 0.930 . S
C525 C524 1.377 . S
C525 C526 1.379 . S
C526 H510 0.931 . S
C526 C520 1.383 . S
C526 C525 1.379 . S
H527 C521 0.959 . S
H528 C521 0.961 . S
H529 C521 0.960 . S
H530 C522 0.930 . S
H531 C523 0.929 . S
H532 C540 0.929 . S
H533 C542 0.930 . S
H534 C544 0.930 . S
H535 C547 0.929 . S
H536 C550 0.930 . S
H537 C552 0.960 . S
H538 C552 0.960 . S
H539 C552 0.960 . S
C540 H532 0.929 . S
C540 C541 1.377 . S
C540 C542 1.384 . S
C541 C540 1.377 . S
C541 C547 1.390 . S
C542 H533 0.930 . S
C542 C540 1.384 . S
C542 C543 1.372 . S
C543 C542 1.372 . S
C543 C544 1.400 . S
C543 C548 1.490 . S
C544 H534 0.930 . S
C544 C543 1.400 . S
C544 C547 1.386 . S
H545 C561 0.930 1_655 S
H546 C562 0.931 . S
C547 H535 0.929 . S
C547 C541 1.390 . S
C547 C544 1.386 . S
C548 C543 1.490 . S
C548 C550 1.395 . S
C548 C551 1.403 . S
H549 C555 0.930 . S
C550 H536 0.930 . S
C550 C548 1.395 . S
C550 C553 1.403 . S
C551 C548 1.403 . S
C551 C552 1.524 . S
C551 C555 1.400 . S
C552 H537 0.960 . S
C552 H538 0.960 . S
C552 H539 0.960 . S
C552 C551 1.524 . S
C553 C550 1.403 . S
C553 C554 1.392 . S
C553 C557 1.495 . S
C554 C553 1.392 . S
C554 C555 1.385 . S
C554 C556 1.478 . S
C555 H549 0.930 . S
C555 C551 1.400 . S
C555 C554 1.385 . S
C556 C554 1.478 . S
C556 C558 1.381 . S
C556 C562 1.383 . S
C557 C553 1.495 . S
C557 H563 0.959 . S
C557 H564 0.961 . S
C557 H565 0.960 . S
C558 C556 1.381 . S
C558 C559 1.394 . S
C558 H566 0.930 . S
C559 C558 1.394 . S
C559 C560 1.383 . S
C559 H567 0.929 . S
C560 C559 1.383 . S
C560 C561 1.377 . S
C561 H545 0.930 1_455 S
C561 C560 1.377 . S
C561 C562 1.379 . S
C562 H546 0.931 . S
C562 C556 1.383 . S
C562 C561 1.379 . S
H563 C557 0.959 . S
H564 C557 0.961 . S
H565 C557 0.960 . S
H566 C558 0.930 . S
H567 C559 0.929 . S
H568 C576 0.929 . S
H569 C578 0.930 . S
H570 C580 0.930 . S
H571 C583 0.929 . S
H572 C586 0.930 . S
H573 C588 0.927 1_545 S
H574 C588 0.960 1_545 S
H575 C588 0.960 . S
C576 H568 0.929 . S
C576 C577 1.377 . S
C576 C578 1.384 . S
C577 C576 1.377 . S
C577 C583 1.390 1_554 S
C578 H569 0.930 . S
C578 C576 1.384 . S
C578 C579 1.372 1_554 S
C579 C578 1.372 1_556 S
C579 C580 1.400 . S
C579 C584 1.490 . S
C580 H570 0.930 . S
C580 C579 1.400 . S
C580 C583 1.386 . S
H581 C597 0.930 . S
H582 C598 0.931 . S
C583 H571 0.929 . S
C583 C577 1.390 1_556 S
C583 C580 1.386 . S
C584 C579 1.490 . S
C584 C586 1.395 . S
C584 C587 1.403 . S
H585 C591 0.930 . S
C586 H572 0.930 . S
C586 C584 1.395 . S
C586 C589 1.403 . S
C587 C584 1.403 . S
C587 C588 1.524 . S
C587 C591 1.400 . S
C588 H573 0.927 1_565 S
C588 H574 0.960 1_565 S
C588 H575 0.960 . S
C588 C587 1.524 . S
C589 C586 1.403 . S
C589 C590 1.392 . S
C589 C593 1.495 . S
C590 C589 1.392 . S
C590 C591 1.385 . S
C590 C592 1.478 . S
C591 H585 0.930 . S
C591 C587 1.400 . S
C591 C590 1.385 . S
C592 C590 1.478 . S
C592 C594 1.381 . S
C592 C598 1.383 . S
C593 C589 1.495 . S
C593 H599 0.959 . S
C593 H600 0.961 . S
C593 H601 0.960 . S
C594 C592 1.381 . S
C594 C595 1.390 1_565 S
C594 H602 0.930 . S
C595 C594 1.390 1_545 S
C595 C596 1.379 1_545 S
C595 H603 0.938 . S
C596 C595 1.379 1_565 S
C596 C597 1.377 . S
C597 H581 0.930 . S
C597 C596 1.377 . S
C597 C598 1.379 . S
C598 H582 0.931 . S
C598 C592 1.383 . S
C598 C597 1.379 . S
H599 C593 0.959 . S
H600 C593 0.961 . S
H601 C593 0.960 . S
H602 C594 0.930 . S
H603 C595 0.938 . S
H604 C612 0.929 . S
H605 C614 0.930 . S
H606 C616 0.930 . S
H607 C619 0.929 . S
H608 C622 0.930 . S
H609 C624 0.960 . S
H610 C624 0.960 . S
H611 C624 0.960 . S
C612 H604 0.929 . S
C612 C613 1.377 . S
C612 C614 1.384 1_554 S
C613 C612 1.377 . S
C613 C619 1.390 . S
C614 H605 0.930 . S
C614 C612 1.384 1_556 S
C614 C615 1.372 . S
C615 C614 1.372 . S
C615 C616 1.400 . S
C615 C620 1.490 . S
C616 H606 0.930 . S
C616 C615 1.400 . S
C616 C619 1.386 1_556 S
H617 C633 0.930 . S
H618 C634 0.931 . S
C619 H607 0.929 . S
C619 C613 1.390 . S
C619 C616 1.386 1_554 S
C620 C615 1.490 . S
C620 C622 1.395 . S
C620 C623 1.403 . S
H621 C627 0.930 . S
C622 H608 0.930 . S
C622 C620 1.395 . S
C622 C625 1.403 . S
C623 C620 1.403 . S
C623 C624 1.524 . S
C623 C627 1.400 . S
C624 H609 0.960 . S
C624 H610 0.960 . S
C624 H611 0.960 . S
C624 C623 1.524 . S
C625 C622 1.403 . S
C625 C626 1.392 . S
C625 C629 1.495 . S
C626 C625 1.392 . S
C626 C627 1.385 . S
C626 C628 1.478 . S
C627 H621 0.930 . S
C627 C623 1.400 . S
C627 C626 1.385 . S
C628 C626 1.478 . S
C628 C630 1.381 . S
C628 C634 1.383 . S
C629 C625 1.495 . S
C629 H635 0.959 . S
C629 H636 0.961 . S
C629 H637 0.960 . S
C630 C628 1.381 . S
C630 C631 1.394 . S
C630 H638 0.930 . S
C631 C630 1.394 . S
C631 C632 1.383 . S
C631 H639 0.929 . S
C632 C631 1.383 . S
C632 C633 1.377 . S
C633 H617 0.930 . S
C633 C632 1.377 . S
C633 C634 1.379 . S
C634 H618 0.931 . S
C634 C628 1.383 . S
C634 C633 1.379 . S
H635 C629 0.959 . S
H636 C629 0.961 . S
H637 C629 0.960 . S
H638 C630 0.930 . S
H639 C631 0.929 . S
H640 C648 0.929 . S
H641 C650 0.930 . S
H642 C652 0.930 . S
H643 C655 0.929 . S
H644 C658 0.930 . S
H645 C660 0.960 . S
H646 C660 0.960 1_554 S
H647 C660 0.960 1_554 S
C648 H640 0.929 . S
C648 C649 1.377 . S
C648 C650 1.384 1_554 S
C649 C648 1.377 . S
C649 C655 1.390 . S
C650 H641 0.930 . S
C650 C648 1.384 1_556 S
C650 C651 1.372 . S
C651 C650 1.372 . S
C651 C652 1.400 . S
C651 C656 1.490 . S
C652 H642 0.930 . S
C652 C651 1.400 . S
C652 C655 1.386 1_556 S
H653 C669 0.930 . S
H654 C670 0.931 . S
C655 H643 0.929 . S
C655 C649 1.390 . S
C655 C652 1.386 1_554 S
C656 C651 1.490 . S
C656 C658 1.395 . S
C656 C659 1.403 . S
H657 C663 0.930 . S
C658 H644 0.930 . S
C658 C656 1.395 . S
C658 C661 1.403 . S
C659 C656 1.403 . S
C659 C660 1.524 . S
C659 C663 1.400 . S
C660 H645 0.960 . S
C660 H646 0.960 1_556 S
C660 H647 0.960 1_556 S
C660 C659 1.524 . S
C661 C658 1.403 . S
C661 C662 1.392 . S
C661 C665 1.495 . S
C662 C661 1.392 . S
C662 C663 1.385 . S
C662 C664 1.478 . S
C663 H657 0.930 . S
C663 C659 1.400 . S
C663 C662 1.385 . S
C664 C662 1.478 . S
C664 C666 1.381 . S
C664 C670 1.383 . S
C665 C661 1.495 . S
C665 H671 0.959 . S
C665 H672 0.961 . S
C665 H673 0.960 . S
C666 C664 1.381 . S
C666 C667 1.394 . S
C666 H674 0.930 . S
C667 C666 1.394 . S
C667 C668 1.383 . S
C667 H675 0.929 . S
C668 C667 1.383 . S
C668 C669 1.377 . S
C669 H653 0.930 . S
C669 C668 1.377 . S
C669 C670 1.379 . S
C670 H654 0.931 . S
C670 C664 1.383 . S
C670 C669 1.379 . S
H671 C665 0.959 . S
H672 C665 0.961 . S
H673 C665 0.960 . S
H674 C666 0.930 . S
H675 C667 0.929 . S
H676 C684 0.929 . S
H677 C686 0.930 . S
H678 C688 0.930 . S
H679 C691 0.929 . S
H680 C694 0.930 . S
H681 C696 0.960 . S
H682 C696 0.960 . S
H683 C696 0.960 . S
C684 H676 0.929 . S
C684 C685 1.377 . S
C684 C686 1.384 . S
C685 C684 1.377 . S
C685 C691 1.390 1_554 S
C686 H677 0.930 . S
C686 C684 1.384 . S
C686 C687 1.372 1_554 S
C687 C686 1.372 1_556 S
C687 C688 1.400 . S
C687 C692 1.490 . S
C688 H678 0.930 . S
C688 C687 1.400 . S
C688 C691 1.386 . S
H689 C705 0.930 . S
H690 C706 0.931 . S
C691 H679 0.929 . S
C691 C685 1.390 1_556 S
C691 C688 1.386 . S
C692 C687 1.490 . S
C692 C694 1.395 . S
C692 C695 1.403 . S
H693 C699 0.930 . S
C694 H680 0.930 . S
C694 C692 1.395 . S
C694 C697 1.403 . S
C695 C692 1.403 . S
C695 C696 1.524 . S
C695 C699 1.400 . S
C696 H681 0.960 . S
C696 H682 0.960 . S
C696 H683 0.960 . S
C696 C695 1.524 . S
C697 C694 1.403 . S
C697 C698 1.392 . S
C697 C701 1.495 . S
C698 C697 1.392 . S
C698 C699 1.385 . S
C698 C700 1.478 . S
C699 H693 0.930 . S
C699 C695 1.400 . S
C699 C698 1.385 . S
C700 C698 1.478 . S
C700 C702 1.381 . S
C700 C706 1.383 . S
C701 C697 1.495 . S
C701 H707 0.959 . S
C701 H708 0.961 . S
C701 H709 0.960 . S
C702 C700 1.381 . S
C702 C703 1.394 . S
C702 H710 0.930 . S
C703 C702 1.394 . S
C703 C704 1.383 . S
C703 H711 0.929 1_655 S
C704 C703 1.383 . S
C704 C705 1.377 . S
C705 H689 0.930 . S
C705 C704 1.377 . S
C705 C706 1.379 . S
C706 H690 0.931 . S
C706 C700 1.383 . S
C706 C705 1.379 . S
H707 C701 0.959 . S
H708 C701 0.961 . S
H709 C701 0.960 . S
H710 C702 0.930 . S
H711 C703 0.929 1_455 S
H712 C720 0.929 . S
H713 C722 0.930 . S
H714 C724 0.930 . S
H715 C727 0.929 . S
H716 C730 0.930 . S
H717 C732 0.960 . S
H718 C732 0.960 . S
H719 C732 0.960 . S
C720 H712 0.929 . S
C720 C721 1.377 . S
C720 C722 1.384 . S
C721 C720 1.377 . S
C721 C727 1.390 . S
C722 H713 0.930 . S
C722 C720 1.384 . S
C722 C723 1.372 . S
C723 C722 1.372 . S
C723 C724 1.400 . S
C723 C728 1.490 . S
C724 H714 0.930 . S
C724 C723 1.400 . S
C724 C727 1.386 . S
H725 C741 0.930 . S
H726 C742 0.931 . S
C727 H715 0.929 . S
C727 C721 1.390 . S
C727 C724 1.386 . S
C728 C723 1.490 . S
C728 C730 1.395 . S
C728 C731 1.403 . S
H729 C735 0.930 . S
C730 H716 0.930 . S
C730 C728 1.395 . S
C730 C733 1.403 . S
C731 C728 1.403 . S
C731 C732 1.524 . S
C731 C735 1.400 . S
C732 H717 0.960 . S
C732 H718 0.960 . S
C732 H719 0.960 . S
C732 C731 1.524 . S
C733 C730 1.403 . S
C733 C734 1.392 . S
C733 C737 1.495 . S
C734 C733 1.392 . S
C734 C735 1.385 . S
C734 C736 1.478 . S
C735 H729 0.930 . S
C735 C731 1.400 . S
C735 C734 1.385 . S
C736 C734 1.478 . S
C736 C738 1.381 . S
C736 C742 1.383 . S
C737 C733 1.495 . S
C737 H743 0.959 . S
C737 H744 0.961 . S
C737 H745 0.960 . S
C738 C736 1.381 . S
C738 C739 1.375 1_455 S
C738 H746 0.950 . S
C739 C738 1.375 1_655 S
C739 C740 1.359 1_655 S
C739 H747 0.975 . S
C740 C739 1.359 1_455 S
C740 C741 1.377 . S
C741 H725 0.930 . S
C741 C740 1.377 . S
C741 C742 1.379 . S
C742 H726 0.931 . S
C742 C736 1.383 . S
C742 C741 1.379 . S
H743 C737 0.959 . S
H744 C737 0.961 . S
H745 C737 0.960 . S
H746 C738 0.950 . S
H747 C739 0.975 . S
H748 C756 0.929 . S
H749 C758 0.930 . S
H750 C760 0.930 . S
H751 C763 0.929 . S
H752 C766 0.930 . S
H753 C768 0.960 . S
H754 C768 0.960 . S
H755 C768 0.960 . S
C756 H748 0.929 . S
C756 C757 1.377 . S
C756 C758 1.384 . S
C757 C756 1.377 . S
C757 C763 1.390 . S
C758 H749 0.930 . S
C758 C756 1.384 . S
C758 C759 1.372 . S
C759 C758 1.372 . S
C759 C760 1.400 . S
C759 C764 1.490 . S
C760 H750 0.930 . S
C760 C759 1.400 . S
C760 C763 1.386 . S
H761 C777 0.930 . S
H762 C778 0.931 . S
C763 H751 0.929 . S
C763 C757 1.390 . S
C763 C760 1.386 . S
C764 C759 1.490 . S
C764 C766 1.395 . S
C764 C767 1.403 . S
H765 C771 0.930 . S
C766 H752 0.930 . S
C766 C764 1.395 . S
C766 C769 1.403 . S
C767 C764 1.403 . S
C767 C768 1.524 . S
C767 C771 1.400 . S
C768 H753 0.960 . S
C768 H754 0.960 . S
C768 H755 0.960 . S
C768 C767 1.524 . S
C769 C766 1.403 . S
C769 C770 1.392 . S
C769 C773 1.464 1_545 S
C770 C769 1.392 . S
C770 C771 1.385 . S
C770 C772 1.478 . S
C771 H765 0.930 . S
C771 C767 1.400 . S
C771 C770 1.385 . S
C772 C770 1.478 . S
C772 C774 1.381 . S
C772 C778 1.383 . S
C773 C769 1.464 1_565 S
C773 H779 0.970 . S
C773 H780 0.983 . S
C773 H781 0.959 1_565 S
C774 C772 1.381 . S
C774 C775 1.394 . S
C774 H782 0.930 . S
C775 C774 1.394 . S
C775 C776 1.383 . S
C775 H783 0.929 . S
C776 C775 1.383 . S
C776 C777 1.377 . S
C777 H761 0.930 . S
C777 C776 1.377 . S
C777 C778 1.379 . S
C778 H762 0.931 . S
C778 C772 1.383 . S
C778 C777 1.379 . S
H779 C773 0.970 . S
H780 C773 0.983 . S
H781 C773 0.959 1_545 S
H782 C774 0.930 . S
H783 C775 0.929 . S
H784 C792 0.929 . S
H785 C794 0.930 . S
H786 C796 0.930 . S
H787 C799 0.929 . S
H788 C802 0.930 . S
H789 C804 0.960 . S
H790 C804 0.960 . S
H791 C804 0.960 . S
C792 H784 0.929 . S
C792 C793 1.377 . S
C792 C794 1.384 . S
C793 C792 1.377 . S
C793 C799 1.390 . S
C794 H785 0.930 . S
C794 C792 1.384 . S
C794 C795 1.372 . S
C795 C794 1.372 . S
C795 C796 1.400 . S
C795 C800 1.490 . S
C796 H786 0.930 . S
C796 C795 1.400 . S
C796 C799 1.386 . S
H797 C813 0.930 . S
H798 C814 0.931 . S
C799 H787 0.929 . S
C799 C793 1.390 . S
C799 C796 1.386 . S
C800 C795 1.490 . S
C800 C802 1.395 . S
C800 C803 1.403 . S
H801 C807 0.930 . S
C802 H788 0.930 . S
C802 C800 1.395 . S
C802 C805 1.403 . S
C803 C800 1.403 . S
C803 C804 1.524 . S
C803 C807 1.400 . S
C804 H789 0.960 . S
C804 H790 0.960 . S
C804 H791 0.960 . S
C804 C803 1.524 . S
C805 C802 1.403 . S
C805 C806 1.392 . S
C805 C809 1.495 . S
C806 C805 1.392 . S
C806 C807 1.385 . S
C806 C808 1.478 . S
C807 H801 0.930 . S
C807 C803 1.400 . S
C807 C806 1.385 . S
C808 C806 1.478 . S
C808 C810 1.381 . S
C808 C814 1.383 . S
C809 C805 1.495 . S
C809 H815 0.959 . S
C809 H816 0.961 . S
C809 H817 0.960 . S
C810 C808 1.381 . S
C810 C811 1.394 . S
C810 H818 0.930 . S
C811 C810 1.394 . S
C811 C812 1.383 . S
C811 H819 0.929 . S
C812 C811 1.383 . S
C812 C813 1.377 . S
C813 H797 0.930 . S
C813 C812 1.377 . S
C813 C814 1.379 . S
C814 H798 0.931 . S
C814 C808 1.383 . S
C814 C813 1.379 . S
H815 C809 0.959 . S
H816 C809 0.961 . S
H817 C809 0.960 . S
H818 C810 0.930 . S
H819 C811 0.929 . S
H820 C828 0.929 . S
H821 C830 0.930 . S
H822 C832 0.930 . S
H823 C835 0.929 . S
H824 C838 0.930 . S
H825 C840 0.960 . S
H826 C840 0.960 . S
H827 C840 0.960 . S
C828 H820 0.929 . S
C828 C829 1.377 . S
C828 C830 1.384 . S
C829 C828 1.377 . S
C829 C835 1.390 . S
C830 H821 0.930 . S
C830 C828 1.384 . S
C830 C831 1.372 . S
C831 C830 1.372 . S
C831 C832 1.400 . S
C831 C836 1.490 . S
C832 H822 0.930 . S
C832 C831 1.400 . S
C832 C835 1.386 . S
H833 C849 0.930 . S
H834 C850 0.931 . S
C835 H823 0.929 . S
C835 C829 1.390 . S
C835 C832 1.386 . S
C836 C831 1.490 . S
C836 C838 1.395 . S
C836 C839 1.403 . S
H837 C843 0.930 . S
C838 H824 0.930 . S
C838 C836 1.395 . S
C838 C841 1.403 . S
C839 C836 1.403 . S
C839 C840 1.524 . S
C839 C843 1.400 . S
C840 H825 0.960 . S
C840 H826 0.960 . S
C840 H827 0.960 . S
C840 C839 1.524 . S
C841 C838 1.403 . S
C841 C842 1.392 . S
C841 C845 1.495 . S
C842 C841 1.392 . S
C842 C843 1.385 . S
C842 C844 1.478 . S
C843 H837 0.930 . S
C843 C839 1.400 . S
C843 C842 1.385 . S
C844 C842 1.478 . S
C844 C846 1.381 . S
C844 C850 1.383 . S
C845 C841 1.495 . S
C845 H851 0.959 . S
C845 H852 0.961 . S
C845 H853 0.960 . S
C846 C844 1.381 . S
C846 C847 1.394 . S
C846 H854 0.930 . S
C847 C846 1.394 . S
C847 C848 1.383 . S
C847 H855 0.929 . S
C848 C847 1.383 . S
C848 C849 1.377 . S
C849 H833 0.930 . S
C849 C848 1.377 . S
C849 C850 1.379 . S
C850 H834 0.931 . S
C850 C844 1.383 . S
C850 C849 1.379 . S
H851 C845 0.959 . S
H852 C845 0.961 . S
H853 C845 0.960 . S
H854 C846 0.930 . S
H855 C847 0.929 . S
H856 C864 0.929 . S
H857 C866 0.930 . S
H858 C868 0.930 . S
H859 C871 0.929 1_556 S
H860 C874 0.930 1_554 S
H861 C876 0.960 . S
H862 C876 0.960 . S
H863 C876 0.960 . S
C864 H856 0.929 . S
C864 C865 1.377 . S
C864 C866 1.384 . S
C865 C864 1.377 . S
C865 C871 1.390 . S
C866 H857 0.930 . S
C866 C864 1.384 . S
C866 C867 1.372 . S
C867 C866 1.372 . S
C867 C868 1.400 1_554 S
C867 C872 1.490 1_554 S
C868 H858 0.930 . S
C868 C867 1.400 1_556 S
C868 C871 1.386 1_556 S
H869 C885 0.929 1_455 S
H870 C886 0.931 . S
C871 H859 0.929 1_554 S
C871 C865 1.390 . S
C871 C868 1.386 1_554 S
C872 C867 1.490 1_556 S
C872 C874 1.395 . S
C872 C875 1.403 . S
H873 C879 0.930 . S
C874 H860 0.930 1_556 S
C874 C872 1.395 . S
C874 C877 1.403 . S
C875 C872 1.403 . S
C875 C876 1.524 . S
C875 C879 1.400 . S
C876 H861 0.960 . S
C876 H862 0.960 . S
C876 H863 0.960 . S
C876 C875 1.524 . S
C877 C874 1.403 . S
C877 C878 1.392 . S
C877 C881 1.495 1_655 S
C878 C877 1.392 . S
C878 C879 1.385 . S
C878 C880 1.478 . S
C879 H873 0.930 . S
C879 C875 1.400 . S
C879 C878 1.385 . S
C880 C878 1.478 . S
C880 C882 1.381 . S
C880 C886 1.383 . S
C881 C877 1.495 1_455 S
C881 H887 0.959 1_556 S
C881 H888 0.961 . S
C881 H889 0.960 . S
C882 C880 1.381 . S
C882 C883 1.394 1_655 S
C882 H890 0.930 . S
C883 C882 1.394 1_455 S
C883 C884 1.383 . S
C883 H891 0.929 . S
C884 C883 1.383 . S
C884 C885 1.377 1_455 S
C885 H869 0.929 1_655 S
C885 C884 1.377 1_655 S
C885 C886 1.379 . S
C886 H870 0.931 . S
C886 C880 1.383 . S
C886 C885 1.379 . S
H887 C881 0.959 1_554 S
H888 C881 0.961 . S
H889 C881 0.960 . S
H890 C882 0.930 . S
H891 C883 0.929 . S
H892 C900 0.929 . S
H893 C902 0.930 . S
H894 C904 0.930 . S
H895 C907 0.929 . S
H896 C910 0.930 . S
H897 C912 0.960 . S
H898 C912 0.960 1_554 S
H899 C912 0.960 . S
C900 H892 0.929 . S
C900 C901 1.377 . S
C900 C902 1.384 . S
C901 C900 1.377 . S
C901 C907 1.390 . S
C902 H893 0.930 . S
C902 C900 1.384 . S
C902 C903 1.372 . S
C903 C902 1.372 . S
C903 C904 1.400 1_554 S
C903 C908 1.490 1_554 S
C904 H894 0.930 . S
C904 C903 1.400 1_556 S
C904 C907 1.386 1_556 S
H905 C921 0.930 . S
H906 C922 0.931 . S
C907 H895 0.929 . S
C907 C901 1.390 . S
C907 C904 1.386 1_554 S
C908 C903 1.490 1_556 S
C908 C910 1.395 . S
C908 C911 1.403 . S
H909 C915 0.930 . S
C910 H896 0.930 . S
C910 C908 1.395 . S
C910 C913 1.401 . S
C911 C908 1.403 . S
C911 C912 1.524 . S
C911 C915 1.400 . S
C912 H897 0.960 . S
C912 H898 0.960 1_556 S
C912 H899 0.960 . S
C912 C911 1.524 . S
C913 C910 1.401 . S
C913 C914 1.389 . S
C913 C917 1.501 1_565 S
C914 C913 1.389 . S
C914 C915 1.385 . S
C914 C916 1.478 . S
C915 H909 0.930 . S
C915 C911 1.400 . S
C915 C914 1.385 . S
C916 C914 1.478 . S
C916 C918 1.381 1_565 S
C916 C922 1.383 . S
C917 C913 1.501 1_545 S
C917 H923 0.959 . S
C917 H924 0.961 . S
C917 H925 0.960 . S
C918 C916 1.381 1_545 S
C918 C919 1.394 . S
C918 H926 0.930 . S
C919 C918 1.394 . S
C919 C920 1.383 . S
C919 H927 0.929 . S
C920 C919 1.383 . S
C920 C921 1.377 1_545 S
C921 H905 0.930 . S
C921 C920 1.377 1_565 S
C921 C922 1.379 . S
C922 H906 0.931 . S
C922 C916 1.383 . S
C922 C921 1.379 . S
H923 C917 0.959 . S
H924 C917 0.961 . S
H925 C917 0.960 . S
H926 C918 0.930 . S
H927 C919 0.929 . S
H928 C936 0.929 . S
H929 C938 0.930 . S
H930 C940 0.930 . S
H931 C943 0.929 . S
H932 C946 0.936 . S
H933 C948 0.960 . S
H934 C948 0.960 . S
H935 C948 0.960 . S
C936 H928 0.929 . S
C936 C937 1.377 . S
C936 C938 1.384 1_554 S
C937 C936 1.377 . S
C937 C943 1.390 . S
C938 H929 0.930 . S
C938 C936 1.384 1_556 S
C938 C939 1.372 1_556 S
C939 C938 1.372 1_554 S
C939 C940 1.400 . S
C939 C944 1.490 1_554 S
C940 H930 0.930 . S
C940 C939 1.400 . S
C940 C943 1.386 . S
H941 C957 0.930 . S
H942 C958 0.931 . S
C943 H931 0.929 . S
C943 C937 1.390 . S
C943 C940 1.386 . S
C944 C939 1.490 1_556 S
C944 C946 1.395 . S
C944 C947 1.403 . S
H945 C951 0.930 . S
C946 H932 0.936 . S
C946 C944 1.395 . S
C946 C949 1.403 . S
C947 C944 1.403 . S
C947 C948 1.524 . S
C947 C951 1.400 . S
C948 H933 0.960 . S
C948 H934 0.960 . S
C948 H935 0.960 . S
C948 C947 1.524 . S
C949 C946 1.403 . S
C949 C950 1.392 . S
C949 C953 1.495 . S
C950 C949 1.392 . S
C950 C951 1.385 . S
C950 C952 1.478 . S
C951 H945 0.930 . S
C951 C947 1.400 . S
C951 C950 1.385 . S
C952 C950 1.478 . S
C952 C954 1.381 . S
C952 C958 1.383 . S
C953 C949 1.495 . S
C953 H959 0.959 . S
C953 H960 0.961 . S
C953 H961 0.960 . S
C954 C952 1.381 . S
C954 C955 1.394 . S
C954 H962 0.930 . S
C955 C954 1.394 . S
C955 C956 1.383 . S
C955 H963 0.929 . S
C956 C955 1.383 . S
C956 C957 1.377 . S
C957 H941 0.930 . S
C957 C956 1.377 . S
C957 C958 1.379 . S
C958 H942 0.931 . S
C958 C952 1.383 . S
C958 C957 1.379 . S
H959 C953 0.959 . S
H960 C953 0.961 . S
H961 C953 0.960 . S
H962 C954 0.930 . S
H963 C955 0.929 . S
H964 C972 0.929 . S
H965 C974 0.930 . S
H966 C976 0.930 . S
H967 C979 0.929 . S
H968 C982 0.930 1_554 S
H969 C984 0.960 . S
H970 C984 0.960 . S
H971 C984 0.960 . S
C972 H964 0.929 . S
C972 C973 1.377 . S
C972 C974 1.384 1_554 S
C973 C972 1.377 . S
C973 C979 1.390 . S
C974 H965 0.930 . S
C974 C972 1.384 1_556 S
C974 C975 1.372 1_556 S
C975 C974 1.372 1_554 S
C975 C976 1.400 . S
C975 C980 1.490 1_554 S
C976 H966 0.930 . S
C976 C975 1.400 . S
C976 C979 1.386 . S
H977 C993 0.930 . S
H978 C994 0.931 . S
C979 H967 0.929 . S
C979 C973 1.390 . S
C979 C976 1.386 . S
C980 C975 1.490 1_556 S
C980 C982 1.395 . S
C980 C983 1.403 . S
H981 C987 0.930 . S
C982 H968 0.930 1_556 S
C982 C980 1.395 . S
C982 C985 1.403 . S
C983 C980 1.403 . S
C983 C984 1.524 . S
C983 C987 1.400 . S
C984 H969 0.960 . S
C984 H970 0.960 . S
C984 H971 0.960 . S
C984 C983 1.524 . S
C985 C982 1.403 . S
C985 C986 1.392 . S
C985 C989 1.495 . S
C986 C985 1.392 . S
C986 C987 1.385 . S
C986 C988 1.478 . S
C987 H981 0.930 . S
C987 C983 1.400 . S
C987 C986 1.385 . S
C988 C986 1.478 . S
C988 C990 1.381 . S
C988 C994 1.383 . S
C989 C985 1.495 . S
C989 H995 0.959 . S
C989 H996 0.961 . S
C989 H997 0.960 . S
C990 C988 1.381 . S
C990 C991 1.394 . S
C990 H998 0.930 . S
C991 C990 1.394 . S
C991 C992 1.383 . S
C991 H999 0.929 . S
C992 C991 1.383 . S
C992 C993 1.377 . S
C993 H977 0.930 . S
C993 C992 1.377 . S
C993 C994 1.379 . S
C994 H978 0.931 . S
C994 C988 1.383 . S
C994 C993 1.379 . S
H995 C989 0.959 . S
H996 C989 0.961 . S
H997 C989 0.960 . S
H998 C990 0.930 . S
H999 C991 0.929 . S
H1000 C1008 0.929 . S
H1001 C1010 0.930 . S
H1002 C1012 0.930 . S
H1003 C1015 0.929 . S
H1004 C1018 0.930 . S
H1005 C1020 0.960 . S
H1006 C1020 0.960 . S
H1007 C1020 0.960 . S
C1008 H1000 0.929 . S
C1008 C1009 1.377 . S
C1008 C1010 1.384 . S
C1009 C1008 1.377 . S
C1009 C1015 1.390 . S
C1010 H1001 0.930 . S
C1010 C1008 1.384 . S
C1010 C1011 1.372 . S
C1011 C1010 1.372 . S
C1011 C1012 1.400 . S
C1011 C1016 1.490 . S
C1012 H1002 0.930 . S
C1012 C1011 1.400 . S
C1012 C1015 1.386 . S
H1013 C1029 0.930 . S
H1014 C1030 0.931 . S
C1015 H1003 0.929 . S
C1015 C1009 1.390 . S
C1015 C1012 1.386 . S
C1016 C1011 1.490 . S
C1016 C1018 1.395 . S
C1016 C1019 1.403 . S
H1017 C1023 0.930 . S
C1018 H1004 0.930 . S
C1018 C1016 1.395 . S
C1018 C1021 1.403 . S
C1019 C1016 1.403 . S
C1019 C1020 1.524 . S
C1019 C1023 1.400 . S
C1020 H1005 0.960 . S
C1020 H1006 0.960 . S
C1020 H1007 0.960 . S
C1020 C1019 1.524 . S
C1021 C1018 1.403 . S
C1021 C1022 1.392 . S
C1021 C1025 1.495 . S
C1022 C1021 1.392 . S
C1022 C1023 1.385 . S
C1022 C1024 1.478 . S
C1023 H1017 0.930 . S
C1023 C1019 1.400 . S
C1023 C1022 1.385 . S
C1024 C1022 1.478 . S
C1024 C1026 1.381 . S
C1024 C1030 1.383 . S
C1025 C1021 1.495 . S
C1025 H1031 0.959 . S
C1025 H1032 0.961 1_455 S
C1025 H1033 0.960 . S
C1026 C1024 1.381 . S
C1026 C1027 1.394 . S
C1026 H1034 0.930 . S
C1027 C1026 1.394 . S
C1027 C1028 1.383 . S
C1027 H1035 0.929 . S
C1028 C1027 1.383 . S
C1028 C1029 1.377 . S
C1029 H1013 0.930 . S
C1029 C1028 1.377 . S
C1029 C1030 1.379 . S
C1030 H1014 0.931 . S
C1030 C1024 1.383 . S
C1030 C1029 1.379 . S
H1031 C1025 0.959 . S
H1032 C1025 0.961 1_655 S
H1033 C1025 0.960 . S
H1034 C1026 0.930 . S
H1035 C1027 0.929 . S
H1036 C1044 0.929 . S
H1037 C1046 0.930 . S
H1038 C1048 0.930 . S
H1039 C1051 0.929 . S
H1040 C1054 0.930 . S
H1041 C1056 0.960 . S
H1042 C1056 0.960 . S
H1043 C1056 0.960 . S
C1044 H1036 0.929 . S
C1044 C1045 1.377 . S
C1044 C1046 1.384 . S
C1045 C1044 1.377 . S
C1045 C1051 1.390 . S
C1046 H1037 0.930 . S
C1046 C1044 1.384 . S
C1046 C1047 1.372 . S
C1047 C1046 1.372 . S
C1047 C1048 1.400 . S
C1047 C1052 1.490 . S
C1048 H1038 0.930 . S
C1048 C1047 1.400 . S
C1048 C1051 1.386 . S
H1049 C1065 0.930 . S
H1050 C1066 0.931 . S
C1051 H1039 0.929 . S
C1051 C1045 1.390 . S
C1051 C1048 1.386 . S
C1052 C1047 1.490 . S
C1052 C1054 1.395 . S
C1052 C1055 1.403 . S
H1053 C1059 0.930 . S
C1054 H1040 0.930 . S
C1054 C1052 1.395 . S
C1054 C1057 1.403 . S
C1055 C1052 1.403 . S
C1055 C1056 1.524 . S
C1055 C1059 1.400 . S
C1056 H1041 0.960 . S
C1056 H1042 0.960 . S
C1056 H1043 0.960 . S
C1056 C1055 1.524 . S
C1057 C1054 1.403 . S
C1057 C1058 1.392 . S
C1057 C1061 1.495 . S
C1058 C1057 1.392 . S
C1058 C1059 1.385 . S
C1058 C1060 1.478 . S
C1059 H1053 0.930 . S
C1059 C1055 1.400 . S
C1059 C1058 1.385 . S
C1060 C1058 1.478 . S
C1060 C1062 1.381 . S
C1060 C1066 1.383 . S
C1061 C1057 1.495 . S
C1061 H1067 0.959 . S
C1061 H1068 0.961 . S
C1061 H1069 0.960 . S
C1062 C1060 1.381 . S
C1062 C1063 1.394 . S
C1062 H1070 0.930 . S
C1063 C1062 1.394 . S
C1063 C1064 1.383 . S
C1063 H1071 0.929 . S
C1064 C1063 1.383 . S
C1064 C1065 1.377 . S
C1065 H1049 0.930 . S
C1065 C1064 1.377 . S
C1065 C1066 1.379 . S
C1066 H1050 0.931 . S
C1066 C1060 1.383 . S
C1066 C1065 1.379 . S
H1067 C1061 0.959 . S
H1068 C1061 0.961 . S
H1069 C1061 0.960 . S
H1070 C1062 0.930 . S
H1071 C1063 0.929 . S
H1072 C1080 0.929 . S
H1073 C1082 0.930 . S
H1074 C1084 0.930 . S
H1075 C1087 0.929 . S
H1076 C1090 0.930 . S
H1077 C1092 0.960 . S
H1078 C1092 0.960 . S
H1079 C1092 0.960 . S
C1080 H1072 0.929 . S
C1080 C1081 1.377 . S
C1080 C1082 1.384 . S
C1081 C1080 1.377 . S
C1081 C1087 1.390 . S
C1082 H1073 0.930 . S
C1082 C1080 1.384 . S
C1082 C1083 1.372 . S
C1083 C1082 1.372 . S
C1083 C1084 1.400 . S
C1083 C1088 1.490 . S
C1084 H1074 0.930 . S
C1084 C1083 1.400 . S
C1084 C1087 1.386 . S
H1085 C1101 0.930 . S
H1086 C1102 0.931 . S
C1087 H1075 0.929 . S
C1087 C1081 1.390 . S
C1087 C1084 1.386 . S
C1088 C1083 1.490 . S
C1088 C1090 1.395 . S
C1088 C1091 1.403 . S
H1089 C1095 0.930 . S
C1090 H1076 0.930 . S
C1090 C1088 1.395 . S
C1090 C1093 1.403 . S
C1091 C1088 1.403 . S
C1091 C1092 1.524 . S
C1091 C1095 1.400 . S
C1092 H1077 0.960 . S
C1092 H1078 0.960 . S
C1092 H1079 0.960 . S
C1092 C1091 1.524 . S
C1093 C1090 1.403 . S
C1093 C1094 1.392 . S
C1093 C1097 1.495 . S
C1094 C1093 1.392 . S
C1094 C1095 1.385 . S
C1094 C1096 1.478 . S
C1095 H1089 0.930 . S
C1095 C1091 1.400 . S
C1095 C1094 1.385 . S
C1096 C1094 1.478 . S
C1096 C1098 1.381 . S
C1096 C1102 1.383 . S
C1097 C1093 1.495 . S
C1097 H1103 0.959 . S
C1097 H1104 0.961 . S
C1097 H1105 0.960 . S
C1098 C1096 1.381 . S
C1098 C1099 1.394 . S
C1098 H1106 0.930 . S
C1099 C1098 1.394 . S
C1099 C1100 1.383 . S
C1099 H1107 0.929 . S
C1100 C1099 1.383 . S
C1100 C1101 1.377 . S
C1101 H1085 0.930 . S
C1101 C1100 1.377 . S
C1101 C1102 1.379 . S
C1102 H1086 0.931 . S
C1102 C1096 1.383 . S
C1102 C1101 1.379 . S
H1103 C1097 0.959 . S
H1104 C1097 0.961 . S
H1105 C1097 0.960 . S
H1106 C1098 0.930 . S
H1107 C1099 0.929 . S
H1108 C1116 0.929 . S
H1109 C1118 0.930 . S
H1110 C1120 0.930 . S
H1111 C1123 0.929 . S
H1112 C1126 0.930 . S
H1113 C1128 0.960 . S
H1114 C1128 0.960 . S
H1115 C1128 0.960 . S
C1116 H1108 0.929 . S
C1116 C1117 1.377 . S
C1116 C1118 1.384 . S
C1117 C1116 1.377 . S
C1117 C1123 1.390 . S
C1118 H1109 0.930 . S
C1118 C1116 1.384 . S
C1118 C1119 1.372 . S
C1119 C1118 1.372 . S
C1119 C1120 1.400 . S
C1119 C1124 1.490 . S
C1120 H1110 0.930 . S
C1120 C1119 1.400 . S
C1120 C1123 1.386 . S
H1121 C1137 0.930 . S
H1122 C1138 0.931 . S
C1123 H1111 0.929 . S
C1123 C1117 1.390 . S
C1123 C1120 1.386 . S
C1124 C1119 1.490 . S
C1124 C1126 1.395 . S
C1124 C1127 1.403 . S
H1125 C1131 0.930 . S
C1126 H1112 0.930 . S
C1126 C1124 1.395 . S
C1126 C1129 1.403 . S
C1127 C1124 1.403 . S
C1127 C1128 1.524 . S
C1127 C1131 1.400 . S
C1128 H1113 0.960 . S
C1128 H1114 0.960 . S
C1128 H1115 0.960 . S
C1128 C1127 1.524 . S
C1129 C1126 1.403 . S
C1129 C1130 1.392 . S
C1129 C1133 1.495 . S
C1130 C1129 1.392 . S
C1130 C1131 1.385 . S
C1130 C1132 1.478 . S
C1131 H1125 0.930 . S
C1131 C1127 1.400 . S
C1131 C1130 1.385 . S
C1132 C1130 1.478 . S
C1132 C1134 1.381 . S
C1132 C1138 1.383 . S
C1133 C1129 1.495 . S
C1133 H1139 0.959 . S
C1133 H1140 0.961 . S
C1133 H1141 0.960 . S
C1134 C1132 1.381 . S
C1134 C1135 1.394 . S
C1134 H1142 0.930 . S
C1135 C1134 1.394 . S
C1135 C1136 1.383 . S
C1135 H1143 0.929 . S
C1136 C1135 1.383 . S
C1136 C1137 1.377 . S
C1137 H1121 0.930 . S
C1137 C1136 1.377 . S
C1137 C1138 1.379 . S
C1138 H1122 0.931 . S
C1138 C1132 1.383 . S
C1138 C1137 1.379 . S
H1139 C1133 0.959 . S
H1140 C1133 0.961 . S
H1141 C1133 0.960 . S
H1142 C1134 0.930 . S
H1143 C1135 0.929 . S
H1144 C1152 0.929 . S
H1145 C1154 0.930 . S
H1146 C1156 0.930 . S
H1147 C1159 0.929 . S
H1148 C1162 0.930 . S
H1149 C1164 0.960 . S
H1150 C1164 0.960 . S
H1151 C1164 0.960 . S
C1152 H1144 0.929 . S
C1152 C1153 1.377 . S
C1152 C1154 1.384 . S
C1153 C1152 1.377 . S
C1153 C1159 1.390 . S
C1154 H1145 0.930 . S
C1154 C1152 1.384 . S
C1154 C1155 1.372 . S
C1155 C1154 1.372 . S
C1155 C1156 1.400 . S
C1155 C1160 1.490 . S
C1156 H1146 0.930 . S
C1156 C1155 1.400 . S
C1156 C1159 1.386 . S
H1157 C1173 0.930 . S
H1158 C1174 0.931 . S
C1159 H1147 0.929 . S
C1159 C1153 1.390 . S
C1159 C1156 1.386 . S
C1160 C1155 1.490 . S
C1160 C1162 1.395 . S
C1160 C1163 1.403 . S
H1161 C1167 0.930 . S
C1162 H1148 0.930 . S
C1162 C1160 1.395 . S
C1162 C1165 1.403 . S
C1163 C1160 1.403 . S
C1163 C1164 1.524 . S
C1163 C1167 1.400 . S
C1164 H1149 0.960 . S
C1164 H1150 0.960 . S
C1164 H1151 0.960 . S
C1164 C1163 1.524 . S
C1165 C1162 1.403 . S
C1165 C1166 1.392 . S
C1165 C1169 1.495 1_655 S
C1166 C1165 1.392 . S
C1166 C1167 1.385 . S
C1166 C1168 1.478 . S
C1167 H1161 0.930 . S
C1167 C1163 1.400 . S
C1167 C1166 1.385 . S
C1168 C1166 1.478 . S
C1168 C1170 1.381 . S
C1168 C1174 1.383 . S
C1169 C1165 1.495 1_455 S
C1169 H1175 0.959 . S
C1169 H1176 0.961 1_455 S
C1169 H1177 0.960 . S
C1170 C1168 1.381 . S
C1170 C1171 1.394 . S
C1170 H1178 0.930 1_655 S
C1171 C1170 1.394 . S
C1171 C1172 1.383 . S
C1171 H1179 0.929 1_655 S
C1172 C1171 1.383 . S
C1172 C1173 1.377 . S
C1173 H1157 0.930 . S
C1173 C1172 1.377 . S
C1173 C1174 1.379 . S
C1174 H1158 0.931 . S
C1174 C1168 1.383 . S
C1174 C1173 1.379 . S
H1175 C1169 0.959 . S
H1176 C1169 0.961 1_655 S
H1177 C1169 0.960 . S
H1178 C1170 0.930 1_455 S
H1179 C1171 0.929 1_455 S
H1180 C1188 0.929 . S
H1181 C1190 0.930 . S
H1182 C1192 0.930 . S
H1183 C1195 0.929 . S
H1184 C1198 0.930 . S
H1185 C1200 0.960 . S
H1186 C1200 0.960 . S
H1187 C1200 0.960 . S
C1188 H1180 0.929 . S
C1188 C1189 1.377 . S
C1188 C1190 1.384 . S
C1189 C1188 1.377 . S
C1189 C1195 1.390 . S
C1190 H1181 0.930 . S
C1190 C1188 1.384 . S
C1190 C1191 1.372 . S
C1191 C1190 1.372 . S
C1191 C1192 1.400 . S
C1191 C1196 1.490 . S
C1192 H1182 0.930 . S
C1192 C1191 1.400 . S
C1192 C1195 1.386 . S
H1193 C1209 0.930 . S
H1194 C1210 0.931 . S
C1195 H1183 0.929 . S
C1195 C1189 1.390 . S
C1195 C1192 1.386 . S
C1196 C1191 1.490 . S
C1196 C1198 1.395 . S
C1196 C1199 1.403 . S
H1197 C1203 0.930 . S
C1198 H1184 0.930 . S
C1198 C1196 1.395 . S
C1198 C1201 1.403 . S
C1199 C1196 1.403 . S
C1199 C1200 1.524 . S
C1199 C1203 1.400 . S
C1200 H1185 0.960 . S
C1200 H1186 0.960 . S
C1200 H1187 0.960 . S
C1200 C1199 1.524 . S
C1201 C1198 1.403 . S
C1201 C1202 1.392 . S
C1201 C1205 1.495 . S
C1202 C1201 1.392 . S
C1202 C1203 1.385 . S
C1202 C1204 1.478 . S
C1203 H1197 0.930 . S
C1203 C1199 1.400 . S
C1203 C1202 1.385 . S
C1204 C1202 1.478 . S
C1204 C1206 1.381 1_565 S
C1204 C1210 1.383 . S
C1205 C1201 1.495 . S
C1205 H1211 0.959 . S
C1205 H1212 0.961 . S
C1205 H1213 0.960 1_565 S
C1206 C1204 1.381 1_545 S
C1206 C1207 1.394 . S
C1206 H1214 0.930 . S
C1207 C1206 1.394 . S
C1207 C1208 1.383 1_545 S
C1207 H1215 0.929 . S
C1208 C1207 1.383 1_565 S
C1208 C1209 1.377 . S
C1209 H1193 0.930 . S
C1209 C1208 1.377 . S
C1209 C1210 1.379 . S
C1210 H1194 0.931 . S
C1210 C1204 1.383 . S
C1210 C1209 1.379 . S
H1211 C1205 0.959 . S
H1212 C1205 0.961 . S
H1213 C1205 0.960 1_545 S
H1214 C1206 0.930 . S
H1215 C1207 0.929 . S
H1216 C1224 0.929 . S
H1217 C1226 0.930 . S
H1218 C1228 0.930 . S
H1219 C1231 0.929 . S
H1220 C1234 0.930 . S
H1221 C1236 0.960 . S
H1222 C1236 0.960 . S
H1223 C1236 0.960 . S
C1224 H1216 0.929 . S
C1224 C1225 1.377 . S
C1224 C1226 1.384 . S
C1225 C1224 1.377 . S
C1225 C1231 1.390 . S
C1226 H1217 0.930 . S
C1226 C1224 1.384 . S
C1226 C1227 1.372 . S
C1227 C1226 1.372 . S
C1227 C1228 1.400 . S
C1227 C1232 1.490 . S
C1228 H1218 0.930 . S
C1228 C1227 1.400 . S
C1228 C1231 1.386 . S
H1229 C1245 0.930 . S
H1230 C1246 0.931 . S
C1231 H1219 0.929 . S
C1231 C1225 1.390 . S
C1231 C1228 1.386 . S
C1232 C1227 1.490 . S
C1232 C1234 1.395 . S
C1232 C1235 1.403 . S
H1233 C1239 0.930 . S
C1234 H1220 0.930 . S
C1234 C1232 1.395 . S
C1234 C1237 1.403 . S
C1235 C1232 1.403 . S
C1235 C1236 1.524 . S
C1235 C1239 1.400 . S
C1236 H1221 0.960 . S
C1236 H1222 0.960 . S
C1236 H1223 0.960 . S
C1236 C1235 1.524 . S
C1237 C1234 1.403 . S
C1237 C1238 1.392 . S
C1237 C1241 1.495 . S
C1238 C1237 1.392 . S
C1238 C1239 1.385 . S
C1238 C1240 1.478 . S
C1239 H1233 0.930 . S
C1239 C1235 1.400 . S
C1239 C1238 1.385 . S
C1240 C1238 1.478 . S
C1240 C1242 1.381 . S
C1240 C1246 1.383 . S
C1241 C1237 1.495 . S
C1241 H1247 0.959 . S
C1241 H1248 0.961 . S
C1241 H1249 0.960 . S
C1242 C1240 1.381 . S
C1242 C1243 1.394 . S
C1242 H1250 0.930 . S
C1243 C1242 1.394 . S
C1243 C1244 1.383 . S
C1243 H1251 0.929 . S
C1244 C1243 1.383 . S
C1244 C1245 1.377 . S
C1245 H1229 0.930 . S
C1245 C1244 1.377 . S
C1245 C1246 1.379 . S
C1246 H1230 0.931 . S
C1246 C1240 1.383 . S
C1246 C1245 1.379 . S
H1247 C1241 0.959 . S
H1248 C1241 0.961 . S
H1249 C1241 0.960 . S
H1250 C1242 0.930 . S
H1251 C1243 0.929 . S
H1252 C1260 0.929 . S
H1253 C1262 0.930 . S
H1254 C1264 0.930 . S
H1255 C1267 0.929 . S
H1256 C1270 0.930 . S
H1257 C1272 0.960 . S
H1258 C1272 0.960 . S
H1259 C1272 0.960 . S
C1260 H1252 0.929 . S
C1260 C1261 1.377 . S
C1260 C1262 1.384 . S
C1261 C1260 1.377 . S
C1261 C1267 1.390 . S
C1262 H1253 0.930 . S
C1262 C1260 1.384 . S
C1262 C1263 1.372 . S
C1263 C1262 1.372 . S
C1263 C1264 1.400 . S
C1263 C1268 1.490 . S
C1264 H1254 0.930 . S
C1264 C1263 1.400 . S
C1264 C1267 1.386 . S
H1265 C1281 0.930 . S
H1266 C1282 0.931 . S
C1267 H1255 0.929 . S
C1267 C1261 1.390 . S
C1267 C1264 1.386 . S
C1268 C1263 1.490 . S
C1268 C1270 1.395 . S
C1268 C1271 1.403 . S
H1269 C1275 0.930 . S
C1270 H1256 0.930 . S
C1270 C1268 1.395 . S
C1270 C1273 1.403 . S
C1271 C1268 1.403 . S
C1271 C1272 1.524 . S
C1271 C1275 1.400 . S
C1272 H1257 0.960 . S
C1272 H1258 0.960 . S
C1272 H1259 0.960 . S
C1272 C1271 1.524 . S
C1273 C1270 1.403 . S
C1273 C1274 1.392 . S
C1273 C1277 1.495 . S
C1274 C1273 1.392 . S
C1274 C1275 1.385 . S
C1274 C1276 1.478 . S
C1275 H1269 0.930 . S
C1275 C1271 1.400 . S
C1275 C1274 1.385 . S
C1276 C1274 1.478 . S
C1276 C1278 1.381 . S
C1276 C1282 1.383 . S
C1277 C1273 1.495 . S
C1277 H1283 0.959 . S
C1277 H1284 0.961 . S
C1277 H1285 0.960 . S
C1278 C1276 1.381 . S
C1278 C1279 1.394 . S
C1278 H1286 0.930 . S
C1279 C1278 1.394 . S
C1279 C1280 1.383 . S
C1279 H1287 0.929 . S
C1280 C1279 1.383 . S
C1280 C1281 1.377 . S
C1281 H1265 0.930 . S
C1281 C1280 1.377 . S
C1281 C1282 1.379 . S
C1282 H1266 0.931 . S
C1282 C1276 1.383 . S
C1282 C1281 1.379 . S
H1283 C1277 0.959 . S
H1284 C1277 0.961 . S
H1285 C1277 0.960 . S
H1286 C1278 0.930 . S
H1287 C1279 0.929 . S
C433 C74 1.789 . S
C452 C162 1.769 . S
C488 C246 1.831 . S
C469 C85 1.827 . S
C524 C312 1.828 . S
C505 C52 1.957 . S
C560 C396 1.777 . S
C541 C63 1.919 . S
C596 C151 1.782 1_565 S
C577 C30 1.740 . S
C613 C41 1.771 . S
C632 C235 1.805 . S
C649 C8 1.902 . S
C668 C323 1.867 . S
C685 C19 1.864 . S
C704 C407 1.779 . S
C740 C158 0.616 . S
C721 C62 0.544 . S
C776 C242 0.500 . S
C757 C73 0.499 . S
C812 C314 0.542 . S
C793 C84 0.439 . S
C829 C51 0.481 . S
C848 C398 0.504 . S
C865 C18 0.628 . S
C884 C146 0.518 . S
C920 C230 0.503 . S
C901 C29 0.590 . S
C956 C326 0.541 . S
C937 C40 0.553 . S
C973 C7 0.580 . S
C992 C410 0.555 . S
C1009 C60 1.804 . S
C1028 C155 1.998 . S
C1045 C71 1.768 . S
C1064 C239 1.954 . S
C1100 C319 1.954 . S
C1081 C82 1.680 . S
C1136 C403 1.990 . S
C1117 C49 1.718 . S
C1153 C16 1.584 . S
C1172 C144 2.006 . S
C1208 C228 1.970 1_565 S
C1189 C27 1.550 . S
C1244 C330 1.954 . S
C1225 C38 1.437 . S
C1261 C5 1.475 . S
C1280 C414 1.977 . S
