# Generated by pormake.
# Topology gar, (4,6)-cn, num edge types: 1
# Building blocks:
#     Node 0, Type 0, BuildingBlock: QUQFOY_clean_sbu_3, # of connection points: 4
#     Node 1, Type 0, BuildingBlock: QUQFOY_clean_sbu_3, # of connection points: 4
#     Node 2, Type 0, BuildingBlock: QUQFOY_clean_sbu_3, # of connection points: 4
#     Node 3, Type 0, BuildingBlock: QUQFOY_clean_sbu_3, # of connection points: 4
#     Node 4, Type 0, BuildingBlock: QUQFOY_clean_sbu_3, # of connection points: 4
#     Node 5, Type 0, BuildingBlock: QUQFOY_clean_sbu_3, # of connection points: 4
#     Node 6, Type 0, BuildingBlock: QUQFOY_clean_sbu_3, # of connection points: 4
#     Node 7, Type 0, BuildingBlock: QUQFOY_clean_sbu_3, # of connection points: 4
#     Node 8, Type 0, BuildingBlock: QUQFOY_clean_sbu_3, # of connection points: 4
#     Node 9, Type 0, BuildingBlock: QUQFOY_clean_sbu_3, # of connection points: 4
#     Node 10, Type 0, BuildingBlock: QUQFOY_clean_sbu_3, # of connection points: 4
#     Node 11, Type 0, BuildingBlock: QUQFOY_clean_sbu_3, # of connection points: 4
#     Node 12, Type 0, BuildingBlock: QUQFOY_clean_sbu_3, # of connection points: 4
#     Node 13, Type 0, BuildingBlock: QUQFOY_clean_sbu_3, # of connection points: 4
#     Node 14, Type 0, BuildingBlock: QUQFOY_clean_sbu_3, # of connection points: 4
#     Node 15, Type 0, BuildingBlock: QUQFOY_clean_sbu_3, # of connection points: 4
#     Node 16, Type 0, BuildingBlock: QUQFOY_clean_sbu_3, # of connection points: 4
#     Node 17, Type 0, BuildingBlock: QUQFOY_clean_sbu_3, # of connection points: 4
#     Node 18, Type 0, BuildingBlock: QUQFOY_clean_sbu_3, # of connection points: 4
#     Node 19, Type 0, BuildingBlock: QUQFOY_clean_sbu_3, # of connection points: 4
#     Node 20, Type 0, BuildingBlock: QUQFOY_clean_sbu_3, # of connection points: 4
#     Node 21, Type 0, BuildingBlock: QUQFOY_clean_sbu_3, # of connection points: 4
#     Node 22, Type 0, BuildingBlock: QUQFOY_clean_sbu_3, # of connection points: 4
#     Node 23, Type 0, BuildingBlock: QUQFOY_clean_sbu_3, # of connection points: 4
#     Node 24, Type 1, BuildingBlock: BETDIP_clean_sbu_0, # of connection points: 6
#     Node 25, Type 1, BuildingBlock: BETDIP_clean_sbu_0, # of connection points: 6
#     Node 26, Type 1, BuildingBlock: BETDIP_clean_sbu_0, # of connection points: 6
#     Node 27, Type 1, BuildingBlock: BETDIP_clean_sbu_0, # of connection points: 6
#     Node 28, Type 1, BuildingBlock: BETDIP_clean_sbu_0, # of connection points: 6
#     Node 29, Type 1, BuildingBlock: BETDIP_clean_sbu_0, # of connection points: 6
#     Node 30, Type 1, BuildingBlock: BETDIP_clean_sbu_0, # of connection points: 6
#     Node 31, Type 1, BuildingBlock: BETDIP_clean_sbu_0, # of connection points: 6
#     Node 32, Type 1, BuildingBlock: BETDIP_clean_sbu_0, # of connection points: 6
#     Node 33, Type 1, BuildingBlock: BETDIP_clean_sbu_0, # of connection points: 6
#     Node 34, Type 1, BuildingBlock: BETDIP_clean_sbu_0, # of connection points: 6
#     Node 35, Type 1, BuildingBlock: BETDIP_clean_sbu_0, # of connection points: 6
#     Node 36, Type 1, BuildingBlock: BETDIP_clean_sbu_0, # of connection points: 6
#     Node 37, Type 1, BuildingBlock: BETDIP_clean_sbu_0, # of connection points: 6
#     Node 38, Type 1, BuildingBlock: BETDIP_clean_sbu_0, # of connection points: 6
#     Node 39, Type 1, BuildingBlock: BETDIP_clean_sbu_0, # of connection points: 6
#     Edge 40, Type (0, 1), BuildingBlock: MIFKUJ_clean_linker_0, # of connection points: 2
#     Edge 41, Type (0, 1), BuildingBlock: MIFKUJ_clean_linker_0, # of connection points: 2
#     Edge 42, Type (0, 1), BuildingBlock: MIFKUJ_clean_linker_0, # of connection points: 2
#     Edge 43, Type (0, 1), BuildingBlock: MIFKUJ_clean_linker_0, # of connection points: 2
#     Edge 44, Type (0, 1), BuildingBlock: MIFKUJ_clean_linker_0, # of connection points: 2
#     Edge 45, Type (0, 1), BuildingBlock: MIFKUJ_clean_linker_0, # of connection points: 2
#     Edge 46, Type (0, 1), BuildingBlock: MIFKUJ_clean_linker_0, # of connection points: 2
#     Edge 47, Type (0, 1), BuildingBlock: MIFKUJ_clean_linker_0, # of connection points: 2
#     Edge 48, Type (0, 1), BuildingBlock: MIFKUJ_clean_linker_0, # of connection points: 2
#     Edge 49, Type (0, 1), BuildingBlock: MIFKUJ_clean_linker_0, # of connection points: 2
#     Edge 50, Type (0, 1), BuildingBlock: MIFKUJ_clean_linker_0, # of connection points: 2
#     Edge 51, Type (0, 1), BuildingBlock: MIFKUJ_clean_linker_0, # of connection points: 2
#     Edge 52, Type (0, 1), BuildingBlock: MIFKUJ_clean_linker_0, # of connection points: 2
#     Edge 53, Type (0, 1), BuildingBlock: MIFKUJ_clean_linker_0, # of connection points: 2
#     Edge 54, Type (0, 1), BuildingBlock: MIFKUJ_clean_linker_0, # of connection points: 2
#     Edge 55, Type (0, 1), BuildingBlock: MIFKUJ_clean_linker_0, # of connection points: 2
#     Edge 56, Type (0, 1), BuildingBlock: MIFKUJ_clean_linker_0, # of connection points: 2
#     Edge 57, Type (0, 1), BuildingBlock: MIFKUJ_clean_linker_0, # of connection points: 2
#     Edge 58, Type (0, 1), BuildingBlock: MIFKUJ_clean_linker_0, # of connection points: 2
#     Edge 59, Type (0, 1), BuildingBlock: MIFKUJ_clean_linker_0, # of connection points: 2
#     Edge 60, Type (0, 1), BuildingBlock: MIFKUJ_clean_linker_0, # of connection points: 2
#     Edge 61, Type (0, 1), BuildingBlock: MIFKUJ_clean_linker_0, # of connection points: 2
#     Edge 62, Type (0, 1), BuildingBlock: MIFKUJ_clean_linker_0, # of connection points: 2
#     Edge 63, Type (0, 1), BuildingBlock: MIFKUJ_clean_linker_0, # of connection points: 2
#     Edge 64, Type (0, 1), BuildingBlock: MIFKUJ_clean_linker_0, # of connection points: 2
#     Edge 65, Type (0, 1), BuildingBlock: MIFKUJ_clean_linker_0, # of connection points: 2
#     Edge 66, Type (0, 1), BuildingBlock: MIFKUJ_clean_linker_0, # of connection points: 2
#     Edge 67, Type (0, 1), BuildingBlock: MIFKUJ_clean_linker_0, # of connection points: 2
#     Edge 68, Type (0, 1), BuildingBlock: MIFKUJ_clean_linker_0, # of connection points: 2
#     Edge 69, Type (0, 1), BuildingBlock: MIFKUJ_clean_linker_0, # of connection points: 2
#     Edge 70, Type (0, 1), BuildingBlock: MIFKUJ_clean_linker_0, # of connection points: 2
#     Edge 71, Type (0, 1), BuildingBlock: MIFKUJ_clean_linker_0, # of connection points: 2
#     Edge 72, Type (0, 1), BuildingBlock: MIFKUJ_clean_linker_0, # of connection points: 2
#     Edge 73, Type (0, 1), BuildingBlock: MIFKUJ_clean_linker_0, # of connection points: 2
#     Edge 74, Type (0, 1), BuildingBlock: MIFKUJ_clean_linker_0, # of connection points: 2
#     Edge 75, Type (0, 1), BuildingBlock: MIFKUJ_clean_linker_0, # of connection points: 2
#     Edge 76, Type (0, 1), BuildingBlock: MIFKUJ_clean_linker_0, # of connection points: 2
#     Edge 77, Type (0, 1), BuildingBlock: MIFKUJ_clean_linker_0, # of connection points: 2
#     Edge 78, Type (0, 1), BuildingBlock: MIFKUJ_clean_linker_0, # of connection points: 2
#     Edge 79, Type (0, 1), BuildingBlock: MIFKUJ_clean_linker_0, # of connection points: 2
#     Edge 80, Type (0, 1), BuildingBlock: MIFKUJ_clean_linker_0, # of connection points: 2
#     Edge 81, Type (0, 1), BuildingBlock: MIFKUJ_clean_linker_0, # of connection points: 2
#     Edge 82, Type (0, 1), BuildingBlock: MIFKUJ_clean_linker_0, # of connection points: 2
#     Edge 83, Type (0, 1), BuildingBlock: MIFKUJ_clean_linker_0, # of connection points: 2
#     Edge 84, Type (0, 1), BuildingBlock: MIFKUJ_clean_linker_0, # of connection points: 2
#     Edge 85, Type (0, 1), BuildingBlock: MIFKUJ_clean_linker_0, # of connection points: 2
#     Edge 86, Type (0, 1), BuildingBlock: MIFKUJ_clean_linker_0, # of connection points: 2
#     Edge 87, Type (0, 1), BuildingBlock: MIFKUJ_clean_linker_0, # of connection points: 2
#     Edge 88, Type (0, 1), BuildingBlock: MIFKUJ_clean_linker_0, # of connection points: 2
#     Edge 89, Type (0, 1), BuildingBlock: MIFKUJ_clean_linker_0, # of connection points: 2
#     Edge 90, Type (0, 1), BuildingBlock: MIFKUJ_clean_linker_0, # of connection points: 2
#     Edge 91, Type (0, 1), BuildingBlock: MIFKUJ_clean_linker_0, # of connection points: 2
#     Edge 92, Type (0, 1), BuildingBlock: MIFKUJ_clean_linker_0, # of connection points: 2
#     Edge 93, Type (0, 1), BuildingBlock: MIFKUJ_clean_linker_0, # of connection points: 2
#     Edge 94, Type (0, 1), BuildingBlock: MIFKUJ_clean_linker_0, # of connection points: 2
#     Edge 95, Type (0, 1), BuildingBlock: MIFKUJ_clean_linker_0, # of connection points: 2
#     Edge 96, Type (0, 1), BuildingBlock: MIFKUJ_clean_linker_0, # of connection points: 2
#     Edge 97, Type (0, 1), BuildingBlock: MIFKUJ_clean_linker_0, # of connection points: 2
#     Edge 98, Type (0, 1), BuildingBlock: MIFKUJ_clean_linker_0, # of connection points: 2
#     Edge 99, Type (0, 1), BuildingBlock: MIFKUJ_clean_linker_0, # of connection points: 2
#     Edge 100, Type (0, 1), BuildingBlock: MIFKUJ_clean_linker_0, # of connection points: 2
#     Edge 101, Type (0, 1), BuildingBlock: MIFKUJ_clean_linker_0, # of connection points: 2
#     Edge 102, Type (0, 1), BuildingBlock: MIFKUJ_clean_linker_0, # of connection points: 2
#     Edge 103, Type (0, 1), BuildingBlock: MIFKUJ_clean_linker_0, # of connection points: 2
#     Edge 104, Type (0, 1), BuildingBlock: MIFKUJ_clean_linker_0, # of connection points: 2
#     Edge 105, Type (0, 1), BuildingBlock: MIFKUJ_clean_linker_0, # of connection points: 2
#     Edge 106, Type (0, 1), BuildingBlock: MIFKUJ_clean_linker_0, # of connection points: 2
#     Edge 107, Type (0, 1), BuildingBlock: MIFKUJ_clean_linker_0, # of connection points: 2
#     Edge 108, Type (0, 1), BuildingBlock: MIFKUJ_clean_linker_0, # of connection points: 2
#     Edge 109, Type (0, 1), BuildingBlock: MIFKUJ_clean_linker_0, # of connection points: 2
#     Edge 110, Type (0, 1), BuildingBlock: MIFKUJ_clean_linker_0, # of connection points: 2
#     Edge 111, Type (0, 1), BuildingBlock: MIFKUJ_clean_linker_0, # of connection points: 2
#     Edge 112, Type (0, 1), BuildingBlock: MIFKUJ_clean_linker_0, # of connection points: 2
#     Edge 113, Type (0, 1), BuildingBlock: MIFKUJ_clean_linker_0, # of connection points: 2
#     Edge 114, Type (0, 1), BuildingBlock: MIFKUJ_clean_linker_0, # of connection points: 2
#     Edge 115, Type (0, 1), BuildingBlock: MIFKUJ_clean_linker_0, # of connection points: 2
#     Edge 116, Type (0, 1), BuildingBlock: MIFKUJ_clean_linker_0, # of connection points: 2
#     Edge 117, Type (0, 1), BuildingBlock: MIFKUJ_clean_linker_0, # of connection points: 2
#     Edge 118, Type (0, 1), BuildingBlock: MIFKUJ_clean_linker_0, # of connection points: 2
#     Edge 119, Type (0, 1), BuildingBlock: MIFKUJ_clean_linker_0, # of connection points: 2
#     Edge 120, Type (0, 1), BuildingBlock: MIFKUJ_clean_linker_0, # of connection points: 2
#     Edge 121, Type (0, 1), BuildingBlock: MIFKUJ_clean_linker_0, # of connection points: 2
#     Edge 122, Type (0, 1), BuildingBlock: MIFKUJ_clean_linker_0, # of connection points: 2
#     Edge 123, Type (0, 1), BuildingBlock: MIFKUJ_clean_linker_0, # of connection points: 2
#     Edge 124, Type (0, 1), BuildingBlock: MIFKUJ_clean_linker_0, # of connection points: 2
#     Edge 125, Type (0, 1), BuildingBlock: MIFKUJ_clean_linker_0, # of connection points: 2
#     Edge 126, Type (0, 1), BuildingBlock: MIFKUJ_clean_linker_0, # of connection points: 2
#     Edge 127, Type (0, 1), BuildingBlock: MIFKUJ_clean_linker_0, # of connection points: 2
#     Edge 128, Type (0, 1), BuildingBlock: MIFKUJ_clean_linker_0, # of connection points: 2
#     Edge 129, Type (0, 1), BuildingBlock: MIFKUJ_clean_linker_0, # of connection points: 2
#     Edge 130, Type (0, 1), BuildingBlock: MIFKUJ_clean_linker_0, # of connection points: 2
#     Edge 131, Type (0, 1), BuildingBlock: MIFKUJ_clean_linker_0, # of connection points: 2
#     Edge 132, Type (0, 1), BuildingBlock: MIFKUJ_clean_linker_0, # of connection points: 2
#     Edge 133, Type (0, 1), BuildingBlock: MIFKUJ_clean_linker_0, # of connection points: 2
#     Edge 134, Type (0, 1), BuildingBlock: MIFKUJ_clean_linker_0, # of connection points: 2
#     Edge 135, Type (0, 1), BuildingBlock: MIFKUJ_clean_linker_0, # of connection points: 2
# Relax obj value: 0.148
# Max RMSD: 0.267
# Mean RMSD: 0.138
data_MOF--net-gar--node1-QUQFOY_clean_sbu_3--node2-BETDIP_clean_sbu_0--edge1-MIFKUJ_clean_linker_0
_symmetry_space_group_name_H-M    P1
_symmetry_Int_Tables_number       1
_symmetry_cell_setting            triclinic
loop_
_symmetry_equiv_pos_as_xyz
'x, y, z'
_cell_length_a     80.218666
_cell_length_b     74.714584
_cell_length_c     71.586244
_cell_angle_alpha  97.593606
_cell_angle_beta   97.793967
_cell_angle_gamma 100.31164
loop_
_atom_site_label
_atom_site_type_symbol
_atom_site_fract_x
_atom_site_fract_y
_atom_site_fract_z
_atom_type_partial_charge
C0 C 0.99342 0.29254 0.34425 0.0
O1 O 1.00251 0.30375 0.33598 0.0
Cd2 Cd 0.03282 0.31325 0.34613 0.0
O3 O 1.00026 0.28598 0.35823 0.0
Cd4 Cd 0.02839 0.2868 0.37693 0.0
C5 C 0.03402 0.33251 0.39244 0.0
O6 O 0.0417 0.28441 0.34898 0.0
O7 O 0.05913 0.28889 0.37573 0.0
O8 O 0.01673 0.25498 0.37937 0.0
C9 C 0.05672 0.28527 0.35764 0.0
O10 O 0.03633 0.33533 0.37574 0.0
C11 C 0.02125 0.25704 0.39734 0.0
O12 O 0.03041 0.31623 0.39608 0.0
O13 O 0.02939 0.27287 0.40565 0.0
C14 C 0.01859 0.72833 0.70848 0.0
O15 O 0.03173 0.723 0.71601 0.0
Cd16 Cd 0.05919 0.72998 0.7054 0.0
O17 O 0.01964 0.73873 0.69579 0.0
Cd18 Cd 0.04012 0.75475 0.67829 0.0
C19 C 0.04767 0.71446 0.65699 0.0
O20 O 0.06501 0.76212 0.70349 0.0
O21 O 0.06932 0.76718 0.67535 0.0
O22 O 0.0288 0.78305 0.68198 0.0
C23 C 0.07546 0.76779 0.69272 0.0
O24 O 0.05579 0.71293 0.6731 0.0
C25 C 0.02562 0.78322 0.66413 0.0
O26 O 0.0399 0.72773 0.65524 0.0
O27 O 0.02838 0.76967 0.65312 0.0
C28 C 0.48469 0.7962 0.84887 0.0
O29 O 0.49429 0.80882 0.84276 0.0
Cd30 Cd 0.52514 0.81546 0.8521 0.0
O31 O 0.49096 0.787 0.86075 0.0
Cd32 Cd 0.51797 0.78525 0.87926 0.0
C33 C 0.52583 0.83035 0.89899 0.0
O34 O 0.534 0.78645 0.85318 0.0
O35 O 0.5488 0.78778 0.88114 0.0
O36 O 0.50871 0.75223 0.87891 0.0
C37 C 0.54837 0.78682 0.86325 0.0
O38 O 0.53033 0.83464 0.88352 0.0
C39 C 0.50912 0.75389 0.89687 0.0
O40 O 0.51987 0.81374 0.90038 0.0
O41 O 0.51397 0.76999 0.90644 0.0
C42 C 0.51652 0.23318 0.20547 0.0
O43 O 0.52961 0.22815 0.21358 0.0
Cd44 Cd 0.55742 0.2342 0.20362 0.0
O45 O 0.51758 0.24202 0.19151 0.0
Cd46 Cd 0.53858 0.2542 0.17226 0.0
C47 C 0.54861 0.21318 0.15701 0.0
O48 O 0.56293 0.26558 0.19798 0.0
O49 O 0.56787 0.26603 0.16912 0.0
O50 O 0.5272 0.28202 0.16924 0.0
C51 C 0.57356 0.26973 0.18686 0.0
O52 O 0.55637 0.21356 0.17385 0.0
C53 C 0.52339 0.27839 0.15115 0.0
O54 O 0.54026 0.22555 0.15319 0.0
O55 O 0.52614 0.26324 0.14313 0.0
C56 C 0.03351 0.78285 0.17021 0.0
O57 O 0.04409 0.77511 0.17939 0.0
Cd58 Cd 0.07062 0.77006 0.17028 0.0
O59 O 0.03718 0.78972 0.15547 0.0
Cd60 Cd 0.06249 0.79444 0.13753 0.0
C61 C 0.05687 0.74791 0.12377 0.0
O62 O 0.08585 0.79882 0.1647 0.0
O63 O 0.09342 0.79443 0.13707 0.0
O64 O 0.05933 0.8266 0.13737 0.0
C65 C 0.09786 0.79765 0.15506 0.0
O66 O 0.06256 0.74738 0.14113 0.0
C67 C 0.05796 0.82614 0.11943 0.0
O68 O 0.05484 0.76304 0.11819 0.0
O69 O 0.05864 0.81086 0.10965 0.0
C70 C 0.47729 0.76051 0.38335 0.0
O71 O 0.48859 0.77019 0.37603 0.0
Cd72 Cd 0.51893 0.77731 0.38628 0.0
O73 O 0.48178 0.75269 0.39755 0.0
Cd74 Cd 0.51049 0.75112 0.41685 0.0
C75 C 0.51936 0.79772 0.43229 0.0
O76 O 0.52762 0.74932 0.39093 0.0
O77 O 0.54223 0.75603 0.41931 0.0
O78 O 0.50344 0.71766 0.41615 0.0
C79 C 0.54211 0.75191 0.40152 0.0
O80 O 0.52355 0.79899 0.41592 0.0
C81 C 0.50553 0.71801 0.43409 0.0
O82 O 0.51294 0.78209 0.43642 0.0
O83 O 0.50902 0.73387 0.44436 0.0
C84 C 0.53553 0.28272 0.67219 0.0
O85 O 0.54639 0.27544 0.68157 0.0
Cd86 Cd 0.5738 0.27167 0.67375 0.0
O87 O 0.53905 0.28952 0.65737 0.0
Cd88 Cd 0.56408 0.29392 0.63914 0.0
C89 C 0.56129 0.24733 0.62786 0.0
O90 O 0.58783 0.29982 0.66608 0.0
O91 O 0.59502 0.29381 0.63846 0.0
O92 O 0.56229 0.3263 0.63789 0.0
C93 C 0.5997 0.29796 0.6564 0.0
O94 O 0.56797 0.24839 0.64527 0.0
C95 C 0.55914 0.32489 0.61984 0.0
O96 O 0.55711 0.26144 0.62158 0.0
O97 O 0.55813 0.30894 0.61042 0.0
C98 C 0.97725 0.25532 0.88045 0.0
O99 O 0.98725 0.26305 0.87027 0.0
Cd100 Cd 0.01738 0.27411 0.8799 0.0
O101 O 0.98331 0.251 0.89633 0.0
Cd102 Cd 0.01304 0.25177 0.91468 0.0
C103 C 0.01761 0.29838 0.92483 0.0
O104 O 0.02962 0.24906 0.88831 0.0
O105 O 0.04457 0.25843 0.91641 0.0
O106 O 0.00736 0.2187 0.91593 0.0
C107 C 0.04431 0.25341 0.89872 0.0
O108 O 0.01944 0.29792 0.90738 0.0
C109 C 0.01002 0.22 0.93399 0.0
O110 O 0.01469 0.28348 0.93185 0.0
O111 O 0.01328 0.23623 0.94347 0.0
C112 C 0.4374 0.0377 0.30602 0.0
O113 O 0.44381 0.02744 0.29457 0.0
Cd114 Cd 0.43394 0.01795 0.26078 0.0
O115 O 0.42494 0.04514 0.29929 0.0
Cd116 Cd 0.40762 0.04536 0.26376 0.0
C117 C 0.39217 0.99599 0.25993 0.0
O118 O 0.43342 0.0448 0.24561 0.0
O119 O 0.40934 0.03977 0.22727 0.0
O120 O 0.40646 0.08049 0.27088 0.0
C121 C 0.42556 0.04196 0.22851 0.0
O122 O 0.40722 0.99476 0.25686 0.0
C123 C 0.39036 0.07945 0.26623 0.0
O124 O 0.38853 0.0121 0.26381 0.0
O125 O 0.38199 0.06296 0.26073 0.0
C126 C 0.29239 0.12177 0.50948 0.0
O127 O 0.28143 0.11209 0.51721 0.0
Cd128 Cd 0.25365 0.11763 0.5216 0.0
O129 O 0.28886 0.13585 0.50262 0.0
Cd130 Cd 0.26331 0.1516 0.49945 0.0
C131 C 0.26565 0.16146 0.54768 0.0
O132 O 0.2398 0.12421 0.49253 0.0
O133 O 0.23252 0.15003 0.50098 0.0
O134 O 0.26779 0.15589 0.46683 0.0
C135 C 0.22787 0.13282 0.49532 0.0
O136 O 0.25868 0.14453 0.54646 0.0
C137 C 0.26772 0.17302 0.46895 0.0
O138 O 0.27026 0.16784 0.53307 0.0
O139 O 0.26592 0.18042 0.4854 0.0
C140 C 0.11487 0.05282 0.83169 0.0
O141 O 0.10712 0.06226 0.82127 0.0
Cd142 Cd 0.1138 0.06713 0.79043 0.0
O143 O 0.12653 0.04509 0.82579 0.0
Cd144 Cd 0.13962 0.04136 0.79633 0.0
C145 C 0.15651 0.08682 0.79869 0.0
O146 O 0.1133 0.03719 0.77268 0.0
O147 O 0.1373 0.03873 0.7619 0.0
O148 O 0.13897 0.00953 0.80105 0.0
C149 C 0.12106 0.03587 0.7584 0.0
O150 O 0.14114 0.08894 0.79445 0.0
C151 C 0.15473 0.00997 0.80024 0.0
O152 O 0.15967 0.0711 0.80105 0.0
O153 O 0.16361 0.0252 0.79807 0.0
C154 C 0.26563 0.90592 0.99851 0.0
O155 O 0.2527 0.90921 0.98822 0.0
Cd156 Cd 0.22503 0.89083 0.98908 0.0
O157 O 0.26406 0.89266 0.008 0.0
Cd158 Cd 0.2435 0.86735 0.01534 0.0
C159 C 0.23086 0.84896 0.96863 0.0
O160 O 0.22576 0.88895 0.0228 0.0
O161 O 0.21513 0.86083 0.0254 0.0
O162 O 0.2673 0.87324 0.04161 0.0
C163 C 0.21428 0.87774 0.02817 0.0
O164 O 0.22343 0.86247 0.96681 0.0
C165 C 0.26531 0.85676 0.04476 0.0
O166 O 0.23946 0.84792 0.98457 0.0
O167 O 0.25291 0.84515 0.03439 0.0
C168 C 0.33696 0.42843 0.04362 0.0
O169 O 0.32611 0.43572 0.03424 0.0
Cd170 Cd 0.29561 0.42586 0.02792 0.0
O171 O 0.33189 0.41445 0.05146 0.0
Cd172 Cd 0.30281 0.39526 0.05335 0.0
C173 C 0.29453 0.38238 0.00478 0.0
O174 O 0.28685 0.4203 0.05741 0.0
O175 O 0.27127 0.39304 0.05028 0.0
O176 O 0.31187 0.39239 0.087 0.0
C177 C 0.27204 0.41016 0.05504 0.0
O178 O 0.29051 0.39805 0.00411 0.0
C179 C 0.30746 0.37494 0.08467 0.0
O180 O 0.30059 0.37812 0.02066 0.0
O181 O 0.30151 0.36687 0.06769 0.0
C182 C 0.86688 0.14851 0.04304 0.0
O183 O 0.8657 0.14073 0.05766 0.0
Cd184 Cd 0.84248 0.1421 0.07527 0.0
O185 O 0.85598 0.15803 0.03784 0.0
Cd186 Cd 0.8306 0.16652 0.04959 0.0
C187 C 0.84754 0.18694 0.09429 0.0
O188 O 0.81562 0.13559 0.05342 0.0
O189 O 0.80519 0.15897 0.06394 0.0
O190 O 0.81833 0.16471 0.0163 0.0
C191 C 0.8032 0.14167 0.05941 0.0
O192 O 0.847 0.17056 0.09762 0.0
C193 C 0.8147 0.18061 0.01824 0.0
O194 O 0.84396 0.18989 0.07725 0.0
O195 O 0.81906 0.1903 0.03472 0.0
C196 C 0.13512 0.50917 0.32078 0.0
O197 O 0.12777 0.51794 0.30921 0.0
Cd198 Cd 0.1354 0.52407 0.279 0.0
O199 O 0.14778 0.5019 0.31594 0.0
Cd200 Cd 0.16367 0.49913 0.28366 0.0
C201 C 0.17724 0.54861 0.28673 0.0
O202 O 0.13654 0.49603 0.25869 0.0
O203 O 0.16005 0.50232 0.24797 0.0
O204 O 0.16629 0.4643 0.28153 0.0
C205 C 0.14376 0.49877 0.24429 0.0
O206 O 0.16122 0.54854 0.28356 0.0
C207 C 0.18257 0.46612 0.28392 0.0
O208 O 0.18233 0.5333 0.28811 0.0
O209 O 0.19041 0.4829 0.28642 0.0
C210 C 0.83878 0.92532 0.5481 0.0
O211 O 0.82899 0.9351 0.54091 0.0
Cd212 Cd 0.79859 0.9256 0.53176 0.0
O213 O 0.83249 0.90992 0.55284 0.0
Cd214 Cd 0.80267 0.89203 0.55392 0.0
C215 C 0.79651 0.88269 0.50544 0.0
O216 O 0.7873 0.91753 0.55925 0.0
O217 O 0.77126 0.89068 0.54961 0.0
O218 O 0.81105 0.88804 0.58729 0.0
C219 C 0.77229 0.90768 0.55547 0.0
O220 O 0.79447 0.89928 0.50607 0.0
C221 C 0.80643 0.8706 0.58444 0.0
O222 O 0.8004 0.87636 0.5208 0.0
O223 O 0.8005 0.86299 0.5673 0.0
C224 C 0.9528 0.99929 0.2876 0.0
O225 O 0.9578 0.98741 0.27644 0.0
Cd226 Cd 0.94759 0.97951 0.24264 0.0
O227 O 0.94136 0.0078 0.28127 0.0
Cd228 Cd 0.92323 0.00745 0.25027 0.0
C229 C 0.90612 0.9614 0.24458 0.0
O230 O 0.946 0.00785 0.23087 0.0
O231 O 0.92031 1.00412 0.21528 0.0
O232 O 0.92388 0.0405 0.25808 0.0
C233 C 0.93633 1.00671 0.21503 0.0
O234 O 0.91998 0.9584 0.23917 0.0
C235 C 0.90772 0.03884 0.25681 0.0
O236 O 0.9045 0.97773 0.25055 0.0
O237 O 0.8988 0.02258 0.25277 0.0
C238 C 0.36695 0.6466 0.55495 0.0
O239 O 0.36657 0.63917 0.56987 0.0
Cd240 Cd 0.34469 0.64055 0.58926 0.0
O241 O 0.35571 0.65587 0.55008 0.0
Cd242 Cd 0.33134 0.66466 0.56403 0.0
C243 C 0.35119 0.68551 0.60792 0.0
O244 O 0.31698 0.63412 0.56898 0.0
O245 O 0.3073 0.65761 0.58084 0.0
O246 O 0.31296 0.66261 0.53357 0.0
C247 C 0.30497 0.6403 0.57583 0.0
O248 O 0.35128 0.66931 0.61149 0.0
C249 C 0.31364 0.6798 0.53477 0.0
O250 O 0.34576 0.68799 0.59114 0.0
O251 O 0.32301 0.69009 0.5493 0.0
C252 C 0.45788 0.49826 0.78689 0.0
O253 O 0.46393 0.48706 0.77609 0.0
Cd254 Cd 0.45318 0.47781 0.74266 0.0
O255 O 0.44548 0.5053 0.78011 0.0
Cd256 Cd 0.42748 0.50316 0.74839 0.0
C257 C 0.41225 0.4572 0.74464 0.0
O258 O 0.45043 0.50521 0.729 0.0
O259 O 0.42464 0.49704 0.71332 0.0
O260 O 0.42606 0.53583 0.75595 0.0
C261 C 0.44054 0.50207 0.71305 0.0
O262 O 0.42664 0.45493 0.74014 0.0
C263 C 0.40977 0.53307 0.75324 0.0
O264 O 0.40963 0.47334 0.74944 0.0
O265 O 0.40181 0.51646 0.74834 0.0
C266 C 0.6356 0.00941 0.82319 0.0
O267 O 0.62843 0.01843 0.81175 0.0
Cd268 Cd 0.63532 0.02451 0.78118 0.0
O269 O 0.64799 1.00179 0.81815 0.0
Cd270 Cd 0.66378 0.999 0.78585 0.0
C271 C 0.67737 0.04864 0.78882 0.0
O272 O 0.63666 0.99655 0.76109 0.0
O273 O 0.66009 1.00114 0.74992 0.0
O274 O 0.66592 0.96407 0.78329 0.0
C275 C 0.64382 0.9986 0.74651 0.0
O276 O 0.66134 0.04848 0.78556 0.0
C277 C 0.68218 0.96569 0.78621 0.0
O278 O 0.68251 0.03335 0.79028 0.0
O279 O 0.69024 0.98241 0.78922 0.0
C280 C 0.7926 0.62169 0.00931 0.0
O281 O 0.78142 0.61161 0.01642 0.0
Cd282 Cd 0.75377 0.61654 0.02168 0.0
O283 O 0.78937 0.63622 1.0031 0.0
Cd284 Cd 0.76386 0.65231 0.99941 0.0
C285 C 0.76577 0.66056 0.04806 0.0
O286 O 0.74152 0.62442 0.99273 0.0
O287 O 0.73215 0.64954 0.99669 0.0
O288 O 0.77019 0.65789 0.96765 0.0
C289 C 0.72873 0.63209 0.99342 0.0
O290 O 0.75999 0.64333 0.04676 0.0
C291 C 0.76961 0.67491 0.97013 0.0
O292 O 0.76901 0.66765 0.03332 0.0
O293 O 0.76676 0.68161 0.98639 0.0
C294 C 0.93707 0.53878 0.80383 0.0
O295 O 0.94447 0.52968 0.79243 0.0
Cd296 Cd 0.93396 0.51972 0.75895 0.0
O297 O 0.92381 0.54496 0.79702 0.0
Cd298 Cd 0.90642 0.54501 0.76141 0.0
C299 C 0.89275 0.49594 0.75948 0.0
O300 O 0.93225 0.54594 0.74292 0.0
O301 O 0.90791 0.53827 0.72498 0.0
O302 O 0.90416 0.57955 0.77138 0.0
C303 C 0.92412 0.54196 0.7259 0.0
O304 O 0.90808 0.49567 0.75672 0.0
C305 C 0.88868 0.57879 0.76378 0.0
O306 O 0.88812 0.51163 0.76242 0.0
O307 O 0.88108 0.5627 0.75537 0.0
C308 C 0.75548 0.41789 0.47924 0.0
O309 O 0.74312 0.42029 0.46737 0.0
Cd310 Cd 0.71477 0.40178 0.46614 0.0
O311 O 0.75329 0.40503 0.48919 0.0
Cd312 Cd 0.73078 0.37991 0.49332 0.0
C313 C 0.71885 0.36002 0.44664 0.0
O314 O 0.71143 0.40051 0.49949 0.0
O315 O 0.7022 0.37198 0.50192 0.0
O316 O 0.74866 0.38159 0.52404 0.0
C317 C 0.70051 0.38862 0.50487 0.0
O318 O 0.71161 0.37332 0.44329 0.0
C319 C 0.74953 0.36467 0.52147 0.0
O320 O 0.72697 0.36015 0.46314 0.0
O321 O 0.74125 0.35485 0.50607 0.0
C322 C 0.6212 0.54706 0.33244 0.0
O323 O 0.61366 0.55787 0.32375 0.0
Cd324 Cd 0.61854 0.56371 0.29255 0.0
O325 O 0.63215 0.53932 0.32494 0.0
Cd326 Cd 0.64495 0.53915 0.29514 0.0
C327 C 0.66064 0.58501 0.30041 0.0
O328 O 0.61809 0.53495 0.27226 0.0
O329 O 0.64183 0.54126 0.26125 0.0
O330 O 0.64643 0.5072 0.29799 0.0
C331 C 0.62562 0.53649 0.25791 0.0
O332 O 0.64511 0.58644 0.29574 0.0
C333 C 0.66194 0.50859 0.29547 0.0
O334 O 0.66428 0.56947 0.30278 0.0
O335 O 0.66963 0.52425 0.29294 0.0
Tb336 Tb 0.01477 0.01288 0.01454 0.0
Tb337 Tb 0.04838 0.03116 0.0377 0.0
C338 C 0.98406 1.00494 0.99833 0.0
C339 C 0.97506 0.01447 0.98477 0.0
C340 C 0.95718 0.01239 0.98255 0.0
C341 C 0.94903 0.02443 0.97299 0.0
C342 C 0.95876 0.03883 0.96587 0.0
C343 C 0.97652 0.03996 0.96692 0.0
C344 C 0.98459 0.02777 0.97616 0.0
C345 C 0.0415 0.01191 0.99651 0.0
C346 C 0.02855 0.05672 0.01694 0.0
C347 C 0.07945 0.0378 0.05232 0.0
C348 C 0.09096 0.02474 0.05498 0.0
C349 C 0.09102 0.01061 0.03998 0.0
C350 C 0.09953 0.99638 0.04322 0.0
C351 C 0.10803 0.99585 0.06154 0.0
C352 C 0.10868 0.01039 0.0764 0.0
C353 C 0.10014 0.02475 0.07314 0.0
C354 C 0.0218 0.03302 0.05523 0.0
C355 C 0.03439 0.98801 0.03582 0.0
O356 O 0.98908 0.01447 0.01552 0.0
O357 O 0.99612 0.99724 0.99217 0.0
O358 O 0.039 0.02505 0.00792 0.0
O359 O 0.02801 0.99891 0.99405 0.0
O360 O 0.01549 0.04237 0.01275 0.0
O361 O 0.04376 0.0553 0.02565 0.0
O362 O 0.07409 0.03941 0.03461 0.0
O363 O 0.067 0.03636 0.06242 0.0
O364 O 0.02405 0.01938 0.04426 0.0
O365 O 0.03532 0.04607 0.05762 0.0
O366 O 0.04798 1.00126 0.03641 0.0
O367 O 0.01878 0.99067 0.0302 0.0
H368 H 0.94966 1.00226 0.98921 0.0
H369 H 0.93535 0.02344 0.97263 0.0
H370 H 0.98432 0.05104 0.96177 0.0
H371 H 0.99843 0.02953 0.97766 0.0
H372 H 0.08392 0.01008 0.02588 0.0
H373 H 0.09908 0.98549 0.03143 0.0
H374 H 0.11515 0.01025 0.09067 0.0
H375 H 0.10008 0.03541 0.08494 0.0
Tb376 Tb 0.28833 0.76574 0.25464 0.0
Tb377 Tb 0.28079 0.7798 0.29425 0.0
C378 C 0.28982 0.75226 0.22113 0.0
C379 C 0.30146 0.75813 0.20802 0.0
C380 C 0.31076 0.7763 0.21114 0.0
C381 C 0.32088 0.78241 0.19802 0.0
C382 C 0.32201 0.77042 0.18154 0.0
C383 C 0.31363 0.75181 0.17924 0.0
C384 C 0.30335 0.74574 0.19236 0.0
C385 C 0.31398 0.77079 0.28313 0.0
C386 C 0.29903 0.80891 0.2698 0.0
C387 C 0.2842 0.78934 0.32968 0.0
C388 C 0.28425 0.77958 0.34604 0.0
C389 C 0.28406 0.76062 0.3436 0.0
C390 C 0.2814 0.75082 0.35859 0.0
C391 C 0.27887 0.75988 0.37617 0.0
C392 C 0.27957 0.779 0.37867 0.0
C393 C 0.28222 0.78877 0.36366 0.0
C394 C 0.25545 0.78297 0.2675 0.0
C395 C 0.26741 0.73702 0.27767 0.0
O396 O 0.2795 0.76343 0.22538 0.0
O397 O 0.29705 0.74661 0.23617 0.0
O398 O 0.29841 0.76426 0.2836 0.0
O399 O 0.31555 0.77409 0.26608 0.0
O400 O 0.29565 0.7957 0.25456 0.0
O401 O 0.2955 0.80527 0.28675 0.0
O402 O 0.29727 0.7894 0.32044 0.0
O403 O 0.26945 0.78569 0.31824 0.0
O404 O 0.26882 0.77689 0.26543 0.0
O405 O 0.25617 0.78784 0.28565 0.0
O406 O 0.27037 0.75012 0.29294 0.0
O407 O 0.27223 0.74062 0.26123 0.0
H408 H 0.30969 0.78599 0.22337 0.0
H409 H 0.32689 0.79686 0.20029 0.0
H410 H 0.31445 0.74212 0.1669 0.0
H411 H 0.29651 0.73154 0.18999 0.0
H412 H 0.28537 0.7533 0.32996 0.0
H413 H 0.2808 0.73608 0.35621 0.0
H414 H 0.27796 0.78637 0.39217 0.0
H415 H 0.28217 0.80339 0.36565 0.0
Tb416 Tb 0.55523 0.02472 0.52426 0.0
Tb417 Tb 0.51727 0.01915 0.53423 0.0
C418 C 0.58711 0.02708 0.52594 0.0
C419 C 0.60078 0.0173 0.53204 0.0
C420 C 0.59735 1.0009 0.53964 0.0
C421 C 0.61053 0.99129 0.54404 0.0
C422 C 0.62733 0.9979 0.5408 0.0
C423 C 0.6306 0.01445 0.53331 0.0
C424 C 0.61748 0.02403 0.52903 0.0
C425 C 0.53191 0.02864 0.49438 0.0
C426 C 0.53219 0.98432 0.51971 0.0
C427 C 0.48543 0.01708 0.53208 0.0
C428 C 0.47204 0.02715 0.5257 0.0
C429 C 0.47589 0.04611 0.52487 0.0
C430 C 0.46263 0.05578 0.52129 0.0
C431 C 0.44531 0.04666 0.51856 0.0
C432 C 0.44163 0.02751 0.51849 0.0
C433 C 0.45485 0.01789 0.52206 0.0
C434 C 0.54056 0.01546 0.56425 0.0
C435 C 0.54032 0.0594 0.53879 0.0
O436 O 0.58018 0.03538 0.53933 0.0
O437 O 0.5757 0.01844 0.51118 0.0
O438 O 0.5298 0.02523 0.51086 0.0
O439 O 0.54833 0.03039 0.49473 0.0
O440 O 0.54776 0.99482 0.52191 0.0
O441 O 0.51827 0.99101 0.52231 0.0
O442 O 0.49238 0.0085 0.51888 0.0
O443 O 0.49673 0.0255 0.54705 0.0
O444 O 0.54273 0.01872 0.54772 0.0
O445 O 0.52415 0.01392 0.56393 0.0
O446 O 0.52465 0.04902 0.53581 0.0
O447 O 0.55432 0.0526 0.53706 0.0
H448 H 0.58448 0.99541 0.54194 0.0
H449 H 0.60755 0.97871 0.54995 0.0
H450 H 0.64322 0.01982 0.53023 0.0
H451 H 0.62033 0.03655 0.52296 0.0
H452 H 0.4891 0.05354 0.52764 0.0
H453 H 0.46594 0.07052 0.52148 0.0
H454 H 0.42848 0.01996 0.51602 0.0
H455 H 0.45161 1.00327 0.52257 0.0
Tb456 Tb 0.26687 0.2742 0.77313 0.0
Tb457 Tb 0.30558 0.27318 0.77963 0.0
C458 C 0.23509 0.26963 0.77339 0.0
C459 C 0.22195 0.26816 0.78603 0.0
C460 C 0.2219 0.25688 0.80026 0.0
C461 C 0.20846 0.25496 0.81097 0.0
C462 C 0.19477 0.2642 0.80756 0.0
C463 C 0.19516 0.2758 0.79359 0.0
C464 C 0.20855 0.27771 0.78296 0.0
C465 C 0.28698 0.29945 0.75958 0.0
C466 C 0.28894 0.28921 0.81458 0.0
C467 C 0.33788 0.28169 0.78442 0.0
C468 C 0.35167 0.28048 0.77262 0.0
C469 C 0.35824 0.2956 0.76411 0.0
C470 C 0.37175 0.295 0.7537 0.0
C471 C 0.3792 0.27934 0.75168 0.0
C472 C 0.37258 0.26416 0.76011 0.0
C473 C 0.359 0.26473 0.77047 0.0
C474 C 0.28422 0.24261 0.78156 0.0
C475 C 0.28361 0.25757 0.73935 0.0
O476 O 0.24325 0.25597 0.77075 0.0
O477 O 0.2451 0.28585 0.77481 0.0
O478 O 0.2904 0.29306 0.77468 0.0
O479 O 0.27094 0.29325 0.75246 0.0
O480 O 0.27391 0.28657 0.80321 0.0
O481 O 0.30276 0.28442 0.80865 0.0
O482 O 0.32774 0.293 0.78023 0.0
O483 O 0.32945 0.26636 0.78851 0.0
O484 O 0.28288 0.2588 0.78734 0.0
O485 O 0.29861 0.24285 0.77507 0.0
O486 O 0.29889 0.26641 0.74866 0.0
O487 O 0.26963 0.25613 0.74753 0.0
H488 H 0.232 0.24928 0.80286 0.0
H489 H 0.20851 0.24578 0.82147 0.0
H490 H 0.18506 0.28344 0.79082 0.0
H491 H 0.20831 0.28649 0.77207 0.0
H492 H 0.35311 0.30808 0.76572 0.0
H493 H 0.37666 0.30705 0.74768 0.0
H494 H 0.3779 0.2518 0.75869 0.0
H495 H 0.35438 0.25289 0.77694 0.0
Tb496 Tb 0.03528 0.03758 0.52907 0.0
Tb497 Tb 0.03922 0.99931 0.5188 0.0
C498 C 0.03616 0.07152 0.53128 0.0
C499 C 0.0271 0.08337 0.52056 0.0
C500 C 0.02657 0.08247 0.50076 0.0
C501 C 0.01901 0.09478 0.49114 0.0
C502 C 0.01171 0.10812 0.5011 0.0
C503 C 0.01149 0.10834 0.52073 0.0
C504 C 0.01921 0.09612 0.53038 0.0
C505 C 0.00974 0.01284 0.53566 0.0
C506 C 0.02285 0.01682 0.48589 0.0
C507 C 0.03986 0.96587 0.51839 0.0
C508 C 0.03865 0.95393 0.53306 0.0
C509 C 0.02729 0.95554 0.54621 0.0
C510 C 0.02657 0.9443 0.56031 0.0
C511 C 0.03732 0.93142 0.5616 0.0
C512 C 0.04901 0.93028 0.54871 0.0
C513 C 0.0496 0.94139 0.53452 0.0
C514 C 0.06436 0.02438 0.51204 0.0
C515 C 0.04963 0.01929 0.56143 0.0
O516 O 0.04652 0.06298 0.52254 0.0
O517 O 0.02691 0.06097 0.54082 0.0
O518 O 0.01747 0.01158 0.52149 0.0
O519 O 0.01549 0.02889 0.54598 0.0
O520 O 0.02626 0.03249 0.49808 0.0
O521 O 0.02567 1.00123 0.4912 0.0
O522 O 0.02598 0.97187 0.5126 0.0
O523 O 0.05371 0.97878 0.5214 0.0
O524 O 0.05694 0.02528 0.52647 0.0
O525 O 0.05836 0.00856 0.50133 0.0
O526 O 0.04216 1.00372 0.55009 0.0
O527 O 0.05158 0.035 0.55477 0.0
H528 H 0.03243 0.07263 0.49277 0.0
H529 H 0.01963 0.09438 0.47608 0.0
H530 H 0.00576 0.11827 0.52875 0.0
H531 H 0.01933 0.0969 0.54563 0.0
H532 H 0.01891 0.96539 0.54556 0.0
H533 H 0.01733 0.94543 0.5699 0.0
H534 H 0.05773 0.9208 0.54958 0.0
H535 H 0.05867 0.94023 0.52471 0.0
Tb536 Tb 0.27838 0.74818 0.76651 0.0
Tb537 Tb 0.27923 0.78906 0.78156 0.0
C538 C 0.28212 0.7186 0.74816 0.0
C539 C 0.29281 0.70474 0.75161 0.0
C540 C 0.30893 0.70637 0.74563 0.0
C541 C 0.31888 0.69309 0.74813 0.0
C542 C 0.31309 0.67789 0.75688 0.0
C543 C 0.29705 0.67638 0.76311 0.0
C544 C 0.28698 0.68959 0.76039 0.0
C545 C 0.26358 0.75454 0.79642 0.0
C546 C 0.30529 0.76902 0.80213 0.0
C547 C 0.27215 0.81896 0.79493 0.0
C548 C 0.25763 0.82863 0.79345 0.0
C549 C 0.25074 0.8338 0.80989 0.0
C550 C 0.23895 0.84551 0.80948 0.0
C551 C 0.23408 0.85239 0.79268 0.0
C552 C 0.24017 0.84633 0.77596 0.0
C553 C 0.25177 0.83448 0.7763 0.0
C554 C 0.30279 0.78259 0.76097 0.0
C555 C 0.25104 0.76811 0.7462 0.0
O556 O 0.29044 0.73489 0.74636 0.0
O557 O 0.26968 0.7196 0.7582 0.0
O558 O 0.26354 0.76318 0.78252 0.0
O559 O 0.27162 0.74105 0.79361 0.0
O560 O 0.30209 0.75599 0.78692 0.0
O561 O 0.29593 0.78176 0.8045 0.0
O562 O 0.27056 0.80449 0.80363 0.0
O563 O 0.2796 0.81674 0.77979 0.0
O564 O 0.28751 0.77403 0.75858 0.0
O565 O 0.30504 0.79677 0.77424 0.0
O566 O 0.25805 0.78368 0.75792 0.0
O567 O 0.25655 0.7525 0.74721 0.0
H568 H 0.3138 0.71782 0.73875 0.0
H569 H 0.33097 0.69457 0.74279 0.0
H570 H 0.29226 0.66499 0.77013 0.0
H571 H 0.27462 0.68789 0.76514 0.0
H572 H 0.25503 0.82944 0.82326 0.0
H573 H 0.2344 0.85001 0.82254 0.0
H574 H 0.23638 0.85128 0.76278 0.0
H575 H 0.25668 0.83058 0.76331 0.0
Tb576 Tb 0.52034 0.02284 0.01589 0.0
Tb577 Tb 0.55105 0.02069 0.04319 0.0
C578 C 0.49123 0.01706 0.99559 0.0
C579 C 0.47358 0.00943 0.99776 0.0
C580 C 0.46254 0.99814 0.98216 0.0
C581 C 0.44598 0.98991 0.98411 0.0
C582 C 0.44021 0.9928 1.00175 0.0
C583 C 0.45128 1.00428 0.01734 0.0
C584 C 0.46785 0.01254 0.01535 0.0
C585 C 0.54181 0.0544 0.02849 0.0
C586 C 0.51739 0.02337 0.06107 0.0
C587 C 0.58019 0.02625 0.0634 0.0
C588 C 0.59813 0.03213 0.06112 0.0
C589 C 0.60924 0.04439 0.07598 0.0
C590 C 0.62611 0.05121 0.07393 0.0
C591 C 0.63217 0.04584 0.05697 0.0
C592 C 0.62114 0.03322 0.0422 0.0
C593 C 0.60416 0.02648 0.04421 0.0
C594 C 0.52936 0.98907 0.03142 0.0
C595 C 0.55403 0.02071 0.99798 0.0
O596 O 0.50147 1.00528 0.99519 0.0
O597 O 0.49856 0.03294 0.00611 0.0
O598 O 0.53754 0.04172 0.03783 0.0
O599 O 0.53296 0.05008 0.01143 0.0
O600 O 0.50932 0.02039 0.04298 0.0
O601 O 0.53438 0.02541 0.0647 0.0
O602 O 0.57083 0.03882 0.06228 0.0
O603 O 0.57206 0.01001 0.05431 0.0
O604 O 0.53358 1.00142 0.02156 0.0
O605 O 0.5383 0.99402 0.04841 0.0
O606 O 0.56204 0.02261 0.01599 0.0
O607 O 0.53715 0.01938 0.99438 0.0
H608 H 0.46679 0.99558 0.96849 0.0
H609 H 0.43764 0.98139 0.97175 0.0
H610 H 0.44724 1.00665 0.03115 0.0
H611 H 0.47621 0.02122 0.02754 0.0
H612 H 0.60478 0.04889 0.08911 0.0
H613 H 0.63442 0.06073 0.08564 0.0
H614 H 0.62551 0.02896 0.02895 0.0
H615 H 0.59573 0.01708 0.03252 0.0
Tb616 Tb 0.27265 0.26134 0.2669 0.0
Tb617 Tb 0.30385 0.28623 0.28604 0.0
C618 C 0.24258 0.2426 0.2584 0.0
C619 C 0.22541 0.24689 0.25599 0.0
C620 C 0.21143 0.23368 0.25832 0.0
C621 C 0.19559 0.23857 0.25961 0.0
C622 C 0.19367 0.2568 0.25886 0.0
C623 C 0.20742 0.26972 0.25536 0.0
C624 C 0.22318 0.26473 0.25375 0.0
C625 C 0.29133 0.27636 0.24325 0.0
C626 C 0.27157 0.30499 0.28004 0.0
C627 C 0.33431 0.30366 0.29526 0.0
C628 C 0.35067 0.29741 0.29627 0.0
C629 C 0.36457 0.30811 0.29041 0.0
C630 C 0.37878 0.30063 0.28692 0.0
C631 C 0.37919 0.28222 0.28898 0.0
C632 C 0.36592 0.2721 0.29654 0.0
C633 C 0.35172 0.27964 0.30012 0.0
C634 C 0.28511 0.27079 0.30949 0.0
C635 C 0.3051 0.24292 0.27194 0.0
O636 O 0.25103 0.24707 0.27586 0.0
O637 O 0.25212 0.24726 0.24572 0.0
O638 O 0.28859 0.28427 0.25889 0.0
O639 O 0.28304 0.25941 0.24022 0.0
O640 O 0.2629 0.28758 0.27465 0.0
O641 O 0.28861 0.30808 0.28406 0.0
O642 O 0.32561 0.30127 0.27799 0.0
O643 O 0.3246 0.29868 0.30768 0.0
O644 O 0.28816 0.26312 0.29391 0.0
O645 O 0.29286 0.28793 0.31243 0.0
O646 O 0.31369 0.26036 0.27696 0.0
O647 O 0.28807 0.2397 0.26885 0.0
H648 H 0.21299 0.21987 0.26011 0.0
H649 H 0.18519 0.22842 0.2625 0.0
H650 H 0.20616 0.28382 0.25464 0.0
H651 H 0.23381 0.27499 0.25163 0.0
H652 H 0.36401 0.32187 0.28747 0.0
H653 H 0.38909 0.30898 0.28169 0.0
H654 H 0.36589 0.25795 0.29841 0.0
H655 H 0.34114 0.27116 0.30477 0.0
Tb656 Tb 0.53576 0.54074 0.02913 0.0
Tb657 Tb 0.53919 0.5021 0.02032 0.0
C658 C 0.53896 0.57479 0.03899 0.0
C659 C 0.53246 0.589 0.02926 0.0
C660 C 0.54317 0.5998 0.01927 0.0
C661 C 0.53664 0.61166 0.00808 0.0
C662 C 0.51933 0.61311 0.00683 0.0
C663 C 0.5088 0.60304 0.01756 0.0
C664 C 0.5153 0.59104 0.02866 0.0
C665 C 0.5071 0.51638 0.02695 0.0
C666 C 0.52623 0.52324 0.9865 0.0
C667 C 0.53362 0.46779 0.01038 0.0
C668 C 0.52906 0.45223 0.02042 0.0
C669 C 0.52153 0.45455 0.03689 0.0
C670 C 0.51782 0.43994 0.0469 0.0
C671 C 0.52191 0.42281 0.0408 0.0
C672 C 0.52948 0.42057 0.02423 0.0
C673 C 0.53297 0.43517 0.01408 0.0
C674 C 0.56783 0.52634 0.02142 0.0
C675 C 0.54919 0.52014 0.06217 0.0
O676 O 0.55039 0.56728 0.03113 0.0
O677 O 0.52752 0.56255 0.04436 0.0
O678 O 0.52186 0.51509 0.0346 0.0
O679 O 0.50796 0.53204 0.02089 0.0
O680 O 0.52958 0.53893 0.99848 0.0
O681 O 0.52852 0.50755 0.99218 0.0
O682 O 0.5219 0.47775 0.00761 0.0
O683 O 0.54895 0.4779 0.01648 0.0
O684 O 0.55288 0.52764 0.01461 0.0
O685 O 0.56723 0.51034 0.02667 0.0
O686 O 0.54169 0.50443 0.05113 0.0
O687 O 0.55059 0.53583 0.05536 0.0
H688 H 0.5565 0.59871 0.01966 0.0
H689 H 0.5451 0.61961 1.00026 0.0
H690 H 0.49543 0.60401 0.01687 0.0
H691 H 0.50674 0.58303 0.03632 0.0
H692 H 0.51871 0.46774 0.04213 0.0
H693 H 0.51179 0.44211 0.05943 0.0
H694 H 0.5331 0.40769 0.01933 0.0
H695 H 0.53899 0.43324 1.0015 0.0
Tb696 Tb 0.77762 0.25115 0.25884 0.0
Tb697 Tb 0.78495 0.28913 0.28194 0.0
C698 C 0.78131 0.22196 0.23967 0.0
C699 C 0.79352 0.20983 0.24352 0.0
C700 C 0.79863 0.1994 0.22836 0.0
C701 C 0.81043 0.18809 0.23201 0.0
C702 C 0.81708 0.18686 0.25088 0.0
C703 C 0.81206 0.19741 0.26605 0.0
C704 C 0.80049 0.20894 0.2624 0.0
C705 C 0.76566 0.25367 0.29127 0.0
C706 C 0.8129 0.26668 0.28812 0.0
C707 C 0.78257 0.31834 0.3023 0.0
C708 C 0.77141 0.3318 0.30038 0.0
C709 C 0.76867 0.34268 0.31674 0.0
C710 C 0.75803 0.35548 0.31512 0.0
C711 C 0.75026 0.35783 0.29705 0.0
C712 C 0.75302 0.34694 0.28065 0.0
C713 C 0.76338 0.33387 0.28231 0.0
C714 C 0.79699 0.28645 0.24952 0.0
C715 C 0.74963 0.2737 0.2526 0.0
O716 O 0.78808 0.23837 0.23656 0.0
O717 O 0.76994 0.22252 0.25112 0.0
O718 O 0.77987 0.26193 0.28831 0.0
O719 O 0.75752 0.24304 0.27576 0.0
O720 O 0.80464 0.25561 0.27234 0.0
O721 O 0.806 0.27953 0.29681 0.0
O722 O 0.775 0.30194 0.30462 0.0
O723 O 0.79329 0.31764 0.2901 0.0
O724 O 0.78274 0.27834 0.25246 0.0
O725 O 0.80511 0.29714 0.26501 0.0
O726 O 0.75802 0.28497 0.26823 0.0
O727 O 0.75634 0.26058 0.24401 0.0
H728 H 0.7934 0.19986 0.21372 0.0
H729 H 0.81401 0.17992 0.22009 0.0
H730 H 0.81711 0.19673 0.28071 0.0
H731 H 0.79689 0.21706 0.27434 0.0
H732 H 0.77487 0.34141 0.33077 0.0
H733 H 0.75617 0.36385 0.32794 0.0
H734 H 0.74708 0.34848 0.26659 0.0
H735 H 0.76524 0.32548 0.2695 0.0
Tb736 Tb 0.01575 0.52037 0.51089 0.0
Tb737 Tb 0.04833 0.52469 0.53904 0.0
C738 C 0.98717 0.50721 0.49023 0.0
C739 C 0.96873 0.50505 0.49058 0.0
C740 C 0.95743 0.50003 0.47322 0.0
C741 C 0.93975 0.49614 0.47301 0.0
C742 C 0.93308 0.49718 0.4902 0.0
C743 C 0.94444 0.50299 0.50761 0.0
C744 C 0.9622 0.50688 0.50779 0.0
C745 C 0.03131 0.55448 0.52412 0.0
C746 C 0.01361 0.5231 0.55669 0.0
C747 C 0.07714 0.53765 0.55924 0.0
C748 C 0.09535 0.54117 0.55752 0.0
C749 C 0.10663 0.55437 0.57137 0.0
C750 C 0.12377 0.5595 0.56942 0.0
C751 C 0.12993 0.55149 0.55354 0.0
C752 C 0.11873 0.53779 0.5399 0.0
C753 C 0.10144 0.53273 0.54181 0.0
C754 C 0.03264 0.49059 0.52517 0.0
C755 C 0.05068 0.52221 0.49346 0.0
O756 O 0.9955 0.49782 0.50114 0.0
O757 O 0.99568 0.52397 0.49061 0.0
O758 O 0.02996 0.54113 0.53315 0.0
O759 O 0.02222 0.54927 0.50721 0.0
O760 O 0.0053 0.51921 0.5386 0.0
O761 O 0.03072 0.52696 0.56015 0.0
O762 O 0.06794 0.54752 0.55007 0.0
O763 O 0.06931 0.52042 0.55763 0.0
O764 O 0.03422 0.50423 0.51662 0.0
O765 O 0.04147 0.49557 0.54227 0.0
O766 O 0.0589 0.52637 0.51154 0.0
O767 O 0.03357 0.51792 0.48995 0.0
H768 H 0.9623 0.49866 0.45981 0.0
H769 H 0.93129 0.492 0.45938 0.0
H770 H 0.93966 0.50382 0.52107 0.0
H771 H 0.9708 0.51079 0.52132 0.0
H772 H 0.10208 0.56103 0.58354 0.0
H773 H 0.13222 0.56986 0.58029 0.0
H774 H 0.12322 0.53144 0.52755 0.0
H775 H 0.09279 0.52256 0.53093 0.0
Tb776 Tb 0.76276 0.77481 0.27307 0.0
Tb777 Tb 0.80318 0.77566 0.27944 0.0
C778 C 0.73105 0.77087 0.27362 0.0
C779 C 0.71789 0.76857 0.28613 0.0
C780 C 0.71933 0.75896 0.30169 0.0
C781 C 0.70606 0.75655 0.31262 0.0
C782 C 0.69115 0.7637 0.30818 0.0
C783 C 0.69004 0.77363 0.29282 0.0
C784 C 0.70322 0.77597 0.28193 0.0
C785 C 0.78332 0.80306 0.26476 0.0
C786 C 0.78558 0.7861 0.31504 0.0
C787 C 0.83427 0.78773 0.27824 0.0
C788 C 0.84788 0.78449 0.26678 0.0
C789 C 0.85213 0.79614 0.2535 0.0
C790 C 0.86599 0.79465 0.24389 0.0
C791 C 0.87598 0.78135 0.24715 0.0
C792 C 0.87147 0.76937 0.26012 0.0
C793 C 0.85766 0.771 0.26991 0.0
C794 C 0.78456 0.74357 0.28313 0.0
C795 C 0.77951 0.75893 0.2388 0.0
O796 O 0.73873 0.75705 0.26954 0.0
O797 O 0.74152 0.78696 0.27648 0.0
O798 O 0.78617 0.79459 0.27847 0.0
O799 O 0.76802 0.79637 0.25532 0.0
O800 O 0.77013 0.78011 0.30432 0.0
O801 O 0.80016 0.78721 0.30799 0.0
O802 O 0.82155 0.79412 0.26975 0.0
O803 O 0.82914 0.77558 0.28907 0.0
O804 O 0.78007 0.75792 0.27907 0.0
O805 O 0.80125 0.74666 0.28488 0.0
O806 O 0.79511 0.76599 0.24871 0.0
O807 O 0.76514 0.75913 0.24607 0.0
H808 H 0.73057 0.75323 0.30531 0.0
H809 H 0.70732 0.74876 0.32429 0.0
H810 H 0.67897 0.77969 0.2892 0.0
H811 H 0.70189 0.78353 0.27007 0.0
H812 H 0.84494 0.80676 0.25083 0.0
H813 H 0.86915 0.80434 0.23431 0.0
H814 H 0.87865 0.75877 0.26283 0.0
H815 H 0.85482 0.76185 0.2801 0.0
Tb816 Tb 0.78985 0.26443 0.7578 0.0
Tb817 Tb 0.78191 0.28017 0.79662 0.0
C818 C 0.79332 0.25633 0.72363 0.0
C819 C 0.79708 0.26604 0.70778 0.0
C820 C 0.79167 0.25673 0.68906 0.0
C821 C 0.79494 0.26575 0.6737 0.0
C822 C 0.8037 0.28422 0.67689 0.0
C823 C 0.8093 0.29344 0.69573 0.0
C824 C 0.80601 0.2844 0.71108 0.0
C825 C 0.81067 0.26069 0.78809 0.0
C826 C 0.80112 0.30854 0.77297 0.0
C827 C 0.78413 0.28863 0.83196 0.0
C828 C 0.77316 0.28255 0.84554 0.0
C829 C 0.77913 0.28779 0.8651 0.0
C830 C 0.77044 0.27927 0.87818 0.0
C831 C 0.75567 0.2653 0.87181 0.0
C832 C 0.74898 0.26119 0.85219 0.0
C833 C 0.75771 0.26974 0.83912 0.0
C834 C 0.75514 0.27874 0.76977 0.0
C835 C 0.76836 0.23664 0.77991 0.0
O836 O 0.77843 0.25693 0.72902 0.0
O837 O 0.80587 0.25885 0.73805 0.0
O838 O 0.80428 0.27466 0.78577 0.0
O839 O 0.80587 0.24847 0.77281 0.0
O840 O 0.79936 0.29454 0.75871 0.0
O841 O 0.79594 0.30588 0.78944 0.0
O842 O 0.79131 0.27579 0.82394 0.0
O843 O 0.77775 0.29821 0.81972 0.0
O844 O 0.76919 0.274 0.76794 0.0
O845 O 0.75572 0.2843 0.7878 0.0
O846 O 0.77159 0.2501 0.79497 0.0
O847 O 0.77293 0.23971 0.76325 0.0
H848 H 0.78474 0.24255 0.68632 0.0
H849 H 0.79017 0.25842 0.65933 0.0
H850 H 0.81613 0.30766 0.69858 0.0
H851 H 0.81039 0.29176 0.72548 0.0
H852 H 0.79109 0.29762 0.87022 0.0
H853 H 0.77613 0.28259 0.89313 0.0
H854 H 0.73759 0.2506 0.84688 0.0
H855 H 0.75294 0.2656 0.82398 0.0
Tb856 Tb 0.77055 0.76 0.76816 0.0
Tb857 Tb 0.8027 0.78549 0.78541 0.0
C858 C 0.74012 0.74302 0.76419 0.0
C859 C 0.72532 0.74926 0.77088 0.0
C860 C 0.7278 0.76217 0.78766 0.0
C861 C 0.71391 0.76843 0.794 0.0
C862 C 0.69728 0.76191 0.78369 0.0
C863 C 0.69482 0.74925 0.76668 0.0
C864 C 0.70879 0.74295 0.76033 0.0
C865 C 0.78848 0.77271 0.74292 0.0
C866 C 0.77035 0.80404 0.78118 0.0
C867 C 0.83329 0.80214 0.79035 0.0
C868 C 0.84805 0.79517 0.78442 0.0
C869 C 0.84604 0.78362 0.76676 0.0
C870 C 0.8594 0.77546 0.76174 0.0
C871 C 0.87505 0.77863 0.77428 0.0
C872 C 0.87712 0.79024 0.79193 0.0
C873 C 0.86367 0.79847 0.79696 0.0
C874 C 0.78462 0.77226 0.81044 0.0
C875 C 0.80304 0.7416 0.77148 0.0
O876 O 0.7522 0.74136 0.77773 0.0
O877 O 0.74628 0.75141 0.75093 0.0
O878 O 0.78658 0.78154 0.75851 0.0
O879 O 0.77925 0.75615 0.74057 0.0
O880 O 0.7616 0.78665 0.77606 0.0
O881 O 0.78738 0.80725 0.78496 0.0
O882 O 0.82165 0.80392 0.7764 0.0
O883 O 0.82651 0.79422 0.80355 0.0
O884 O 0.78689 0.76375 0.79489 0.0
O885 O 0.79328 0.78906 0.81273 0.0
O886 O 0.81175 0.75894 0.77723 0.0
O887 O 0.78601 0.73835 0.76751 0.0
H888 H 0.74049 0.7674 0.79595 0.0
H889 H 0.71616 0.77838 0.807 0.0
H890 H 0.68208 0.74395 0.75856 0.0
H891 H 0.7067 0.73312 0.74726 0.0
H892 H 0.83399 0.78054 0.75694 0.0
H893 H 0.85736 0.76636 0.74819 0.0
H894 H 0.88912 0.793 0.80177 0.0
H895 H 0.86536 0.80715 0.81073 0.0
Tb896 Tb 0.51524 0.50786 0.50923 0.0
Tb897 Tb 0.54736 0.52908 0.53389 0.0
C898 C 0.48485 0.49784 0.49226 0.0
C899 C 0.47291 0.50816 0.48309 0.0
C900 C 0.45785 0.50966 0.4905 0.0
C901 C 0.44804 0.52216 0.48473 0.0
C902 C 0.45294 0.53329 0.47119 0.0
C903 C 0.46732 0.53069 0.46267 0.0
C904 C 0.4773 0.51835 0.46867 0.0
C905 C 0.5433 0.5085 0.49375 0.0
C906 C 0.52609 0.55202 0.51107 0.0
C907 C 0.57814 0.53736 0.54955 0.0
C908 C 0.5888 0.52469 0.55641 0.0
C909 C 0.58706 0.50711 0.54568 0.0
C910 C 0.59469 0.49381 0.55326 0.0
C911 C 0.60462 0.49788 0.57151 0.0
C912 C 0.60711 0.51567 0.58202 0.0
C913 C 0.599 0.52896 0.57459 0.0
C914 C 0.51968 0.52926 0.54956 0.0
C915 C 0.53561 0.48506 0.53312 0.0
O916 O 0.48898 0.50248 0.51083 0.0
O917 O 0.49815 0.49575 0.48408 0.0
O918 O 0.53936 0.52158 0.50401 0.0
O919 O 0.53082 0.4943 0.4912 0.0
O920 O 0.51379 0.53691 0.50708 0.0
O921 O 0.54153 0.55189 0.52021 0.0
O922 O 0.57333 0.53507 0.53099 0.0
O923 O 0.56544 0.53924 0.55885 0.0
O924 O 0.52311 0.51579 0.53924 0.0
O925 O 0.53255 0.54313 0.55214 0.0
O926 O 0.54791 0.5001 0.53712 0.0
O927 O 0.52044 0.48507 0.52335 0.0
H928 H 0.45425 0.50197 0.50164 0.0
H929 H 0.43726 0.52392 0.49191 0.0
H930 H 0.47132 0.53875 0.45197 0.0
H931 H 0.48885 0.51747 0.46263 0.0
H932 H 0.57941 0.50338 0.53155 0.0
H933 H 0.5929 0.4803 0.54476 0.0
H934 H 0.61499 0.51911 0.59603 0.0
H935 H 0.6004 0.54239 0.58315 0.0
Tb936 Tb 0.05421 0.52587 0.02249 0.0
Tb937 Tb 0.01817 0.51881 0.03281 0.0
C938 C 0.0861 0.52845 0.0235 0.0
C939 C 0.09959 0.51786 0.02795 0.0
C940 C 0.09981 0.50746 0.04294 0.0
C941 C 0.11273 0.49728 0.04629 0.0
C942 C 0.12546 0.49716 0.03454 0.0
C943 C 0.12515 0.50767 0.01964 0.0
C944 C 0.11239 0.51791 0.01642 0.0
C945 C 0.03104 0.52823 0.99189 0.0
C946 C 0.03219 0.48535 0.01558 0.0
C947 C 0.98729 0.51851 0.03622 0.0
C948 C 0.97418 0.52986 0.03308 0.0
C949 C 0.97408 0.54114 0.01885 0.0
C950 C 0.96073 0.55074 0.01547 0.0
C951 C 0.94728 0.54929 0.02632 0.0
C952 C 0.94784 0.53843 0.04097 0.0
C953 C 0.96109 0.5288 0.04424 0.0
C954 C 0.04275 0.51218 0.05917 0.0
C955 C 0.03916 0.56028 0.03595 0.0
O956 O 0.07928 0.53556 0.03762 0.0
O957 O 0.07464 0.52125 0.00837 0.0
O958 O 0.02855 0.52472 0.00824 0.0
O959 O 0.04755 0.53107 0.99283 0.0
O960 O 0.04768 0.49593 0.02064 0.0
O961 O 0.01814 0.49214 0.01645 0.0
O962 O 0.99211 0.51058 0.02098 0.0
O963 O 1.00018 0.52524 0.0501 0.0
O964 O 0.04405 0.52494 0.04899 0.0
O965 O 0.02693 0.50335 0.05511 0.0
O966 O 0.02436 0.54892 0.03569 0.0
O967 O 0.05306 0.55435 0.03199 0.0
H968 H 0.08997 0.50709 0.05193 0.0
H969 H 0.11256 0.48923 0.05781 0.0
H970 H 0.13489 0.50811 0.01051 0.0
H971 H 0.11246 0.52584 0.00479 0.0
H972 H 0.98416 0.5423 0.01017 0.0
H973 H 0.96072 0.55892 0.00407 0.0
H974 H 0.93799 0.53732 0.04995 0.0
H975 H 0.96099 0.5203 0.05539 0.0
H976 H 0.00652 0.21575 0.97097 0.0
H977 H 0.00873 0.18848 0.98609 0.0
H978 H 0.01843 0.16011 0.93332 0.0
H979 H 0.01508 0.18673 0.91798 0.0
H980 H 1.00073 0.13672 0.94659 0.0
H981 H 0.0511 0.1809 0.97506 0.0
H982 H 0.06844 0.21059 0.99228 0.0
H983 H 0.04464 0.20301 0.04167 0.0
H984 H 0.027 0.17336 0.02465 0.0
H985 H 0.05361 0.08626 0.01483 0.0
H986 H 0.05008 0.11437 1.00208 0.0
H987 H 0.99518 0.09585 0.99211 0.0
H988 H 0.99852 0.0673 0.00428 0.0
H989 H 0.03646 0.14241 0.01005 0.0
H990 H 0.97702 0.10928 0.95121 0.0
H991 H 0.96491 0.08011 0.9293 0.0
H992 H 0.01427 0.06487 0.93598 0.0
H993 H 0.0267 0.09419 0.95749 0.0
C994 C 0.00898 0.20361 0.9626 0.0
C995 C 0.01062 0.20341 0.94328 0.0
C996 C 0.01042 0.18805 0.97131 0.0
C997 C 0.01414 0.17219 0.96106 0.0
C998 C 0.01554 0.17201 0.94166 0.0
C999 C 0.01364 0.18732 0.93286 0.0
C1000 C 0.01653 0.15573 0.9703 0.0
C1001 C 0.00838 0.13808 0.96058 0.0
C1002 C 0.02708 0.15718 0.98825 0.0
C1003 C 0.0376 0.17502 0.99851 0.0
C1004 C 0.04948 0.18564 0.98954 0.0
C1005 C 0.05937 0.20244 0.99927 0.0
C1006 C 0.05761 0.20871 0.01804 0.0
C1007 C 0.04597 0.19816 0.02712 0.0
C1008 C 0.03603 0.18135 0.01745 0.0
C1009 C 0.04074 0.08813 0.00998 0.0
C1010 C 0.02635 0.07439 0.01043 0.0
C1011 C 0.03875 0.10426 1.00267 0.0
C1012 C 0.02234 0.10702 0.9956 0.0
C1013 C 0.00795 0.09369 0.99683 0.0
C1014 C 0.0099 0.07746 0.00394 0.0
C1015 C 0.02028 0.12355 0.98649 0.0
C1016 C 0.02853 0.14116 0.99623 0.0
C1017 C 0.01034 0.12203 0.96819 0.0
C1018 C 1.00278 0.10395 0.95599 0.0
C1019 C 0.9853 0.09977 0.94787 0.0
C1020 C 0.97839 0.08323 0.93548 0.0
C1021 C 0.98883 0.07067 0.93117 0.0
C1022 C 0.00619 0.07462 0.93929 0.0
C1023 C 0.01317 0.09121 0.95158 0.0
H1024 H 0.98343 0.05782 0.92165 0.0
H1025 H 0.06528 0.22172 0.02555 0.0
H1026 H 0.11058 0.80386 0.19324 0.0
H1027 H 0.13922 0.80209 0.20863 0.0
H1028 H 0.1538 0.78869 0.15346 0.0
H1029 H 0.12504 0.79036 0.13789 0.0
H1030 H 0.16417 0.76632 0.17861 0.0
H1031 H 0.1689 0.83101 0.17851 0.0
H1032 H 0.16017 0.86103 0.18395 0.0
H1033 H 0.16431 0.85891 0.24401 0.0
H1034 H 0.17284 0.82875 0.23891 0.0
H1035 H 0.25144 0.77535 0.22789 0.0
H1036 H 0.2267 0.77857 0.20498 0.0
H1037 H 0.20204 0.79684 0.25192 0.0
H1038 H 0.22651 0.79397 0.27446 0.0
H1039 H 0.19936 0.81833 0.22607 0.0
H1040 H 0.19063 0.75237 0.22594 0.0
H1041 H 0.19858 0.72189 0.22117 0.0
H1042 H 0.20149 0.72608 0.1624 0.0
H1043 H 0.19377 0.75672 0.1669 0.0
C1044 C 0.11989 0.80064 0.18434 0.0
C1045 C 0.11552 0.79734 0.16432 0.0
C1046 C 0.13629 0.79966 0.19317 0.0
C1047 C 0.14875 0.79541 0.18221 0.0
C1048 C 0.14442 0.79202 0.16221 0.0
C1049 C 0.128 0.79307 0.15334 0.0
C1050 C 0.16618 0.79443 0.19179 0.0
C1051 C 0.17203 0.7778 0.18872 0.0
C1052 C 0.17639 0.80932 0.20514 0.0
C1053 C 0.17141 0.82755 0.2083 0.0
C1054 C 0.16784 0.83689 0.19286 0.0
C1055 C 0.16295 0.85394 0.19589 0.0
C1056 C 0.16166 0.86186 0.21431 0.0
C1057 C 0.16531 0.85276 0.22975 0.0
C1058 C 0.1702 0.83569 0.2268 0.0
C1059 C 0.24072 0.78002 0.23321 0.0
C1060 C 0.24094 0.7844 0.25296 0.0
C1061 C 0.22656 0.78182 0.22015 0.0
C1062 C 0.21242 0.78793 0.2267 0.0
C1063 C 0.21277 0.79224 0.24643 0.0
C1064 C 0.2268 0.79052 0.25934 0.0
C1065 C 0.19711 0.79001 0.21343 0.0
C1066 C 0.19166 0.80691 0.21574 0.0
C1067 C 0.18725 0.77533 0.19953 0.0
C1068 C 0.19184 0.75692 0.19682 0.0
C1069 C 0.1931 0.74685 0.21204 0.0
C1070 C 0.19754 0.72954 0.20938 0.0
C1071 C 0.20059 0.72208 0.19151 0.0
C1072 C 0.19916 0.73189 0.17625 0.0
C1073 C 0.19475 0.74923 0.17884 0.0
H1074 H 0.20402 0.70867 0.18948 0.0
H1075 H 0.15786 0.87506 0.21662 0.0
H1076 H 0.54294 0.82933 0.43502 0.0
H1077 H 0.54436 0.85909 0.4546 0.0
H1078 H 0.50115 0.83553 0.47943 0.0
H1079 H 0.49986 0.80538 0.46001 0.0
H1080 H 0.49837 0.86922 0.46367 0.0
H1081 H 0.537 0.84654 0.50739 0.0
H1082 H 0.56159 0.83232 0.51712 0.0
H1083 H 0.59588 0.87639 0.50074 0.0
H1084 H 0.57147 0.89074 0.49063 0.0
H1085 H 0.505 0.95659 0.52125 0.0
H1086 H 0.5021 0.92347 0.51085 0.0
H1087 H 0.55209 0.93332 0.49378 0.0
H1088 H 0.55535 0.96621 0.50484 0.0
H1089 H 0.5494 0.9044 0.50934 0.0
H1090 H 0.51225 0.92471 0.46142 0.0
H1091 H 0.48855 0.93914 0.44909 0.0
H1092 H 0.45262 0.90014 0.47026 0.0
H1093 H 0.47616 0.88562 0.48293 0.0
C1094 C 0.53388 0.83038 0.44486 0.0
C1095 C 0.52129 0.81499 0.44598 0.0
C1096 C 0.53474 0.84741 0.45606 0.0
C1097 C 0.52288 0.84954 0.46848 0.0
C1098 C 0.51045 0.83415 0.46995 0.0
C1099 C 0.5098 0.81694 0.45896 0.0
C1100 C 0.52308 0.86816 0.47899 0.0
C1101 C 0.50934 0.87681 0.474 0.0
C1102 C 0.53763 0.87821 0.492 0.0
C1103 C 0.55237 0.86965 0.49812 0.0
C1104 C 0.54976 0.85313 0.50571 0.0
C1105 C 0.56368 0.84506 0.51133 0.0
C1106 C 0.58028 0.85343 0.50952 0.0
C1107 C 0.58301 0.86991 0.50212 0.0
C1108 C 0.56914 0.87803 0.49647 0.0
C1109 C 0.5154 0.95169 0.51533 0.0
C1110 C 0.53038 0.96412 0.51383 0.0
C1111 C 0.51369 0.93272 0.50929 0.0
C1112 C 0.52675 0.92579 0.5012 0.0
C1113 C 0.54181 0.9382 0.49997 0.0
C1114 C 0.54363 0.95709 0.50627 0.0
C1115 C 0.52482 0.90574 0.49375 0.0
C1116 C 0.53826 0.8968 0.49926 0.0
C1117 C 0.51014 0.89552 0.48091 0.0
C1118 C 0.49598 0.90424 0.47333 0.0
C1119 C 0.49931 0.91931 0.46357 0.0
C1120 C 0.48591 0.92749 0.4565 0.0
C1121 C 0.4691 0.9206 0.45895 0.0
C1122 C 0.46565 0.90549 0.46842 0.0
C1123 C 0.47901 0.89728 0.47554 0.0
H1124 H 0.45874 0.92695 0.45345 0.0
H1125 H 0.59104 0.84716 0.51388 0.0
H1126 H 0.50797 0.29582 0.6556 0.0
H1127 H 0.48008 0.29518 0.66627 0.0
H1128 H 0.49707 0.26951 0.71397 0.0
H1129 H 0.52467 0.26986 0.70336 0.0
H1130 H 0.46548 0.2525 0.69733 0.0
H1131 H 0.49507 0.31594 0.7188 0.0
H1132 H 0.51011 0.34655 0.71444 0.0
H1133 H 0.46603 0.35215 0.67602 0.0
H1134 H 0.45081 0.32146 0.67998 0.0
H1135 H 0.40819 0.26593 0.76183 0.0
H1136 H 0.43308 0.26631 0.74558 0.0
H1137 H 0.40935 0.29284 0.70213 0.0
H1138 H 0.38434 0.29252 0.71837 0.0
H1139 H 0.44228 0.30894 0.71273 0.0
H1140 H 0.41164 0.24713 0.69301 0.0
H1141 H 0.39613 0.2166 0.69692 0.0
H1142 H 0.44143 0.20756 0.73072 0.0
H1143 H 0.45715 0.23818 0.72726 0.0
C1144 C 0.50577 0.29008 0.66838 0.0
C1145 C 0.51864 0.28291 0.6786 0.0
C1146 C 0.48982 0.28977 0.67451 0.0
C1147 C 0.48646 0.28238 0.69102 0.0
C1148 C 0.49928 0.27523 0.70117 0.0
C1149 C 0.51514 0.27551 0.69508 0.0
C1150 C 0.46964 0.28187 0.69786 0.0
C1151 C 0.46049 0.26488 0.70084 0.0
C1152 C 0.46275 0.29788 0.70184 0.0
C1153 C 0.47188 0.31633 0.69951 0.0
C1154 C 0.48864 0.32364 0.70931 0.0
C1155 C 0.49719 0.34101 0.70693 0.0
C1156 C 0.48905 0.35126 0.69492 0.0
C1157 C 0.47233 0.34418 0.68529 0.0
C1158 C 0.46373 0.32681 0.68761 0.0
C1159 C 0.40813 0.27162 0.74867 0.0
C1160 C 0.39418 0.2791 0.74138 0.0
C1161 C 0.42241 0.27186 0.73939 0.0
C1162 C 0.42306 0.2794 0.72246 0.0
C1163 C 0.40919 0.28695 0.71516 0.0
C1164 C 0.3949 0.28678 0.72449 0.0
C1165 C 0.43836 0.27964 0.71265 0.0
C1166 C 0.44717 0.29653 0.70906 0.0
C1167 C 0.4449 0.26352 0.70798 0.0
C1168 C 0.43554 0.24502 0.70999 0.0
C1169 C 0.41827 0.23869 0.70139 0.0
C1170 C 0.40944 0.22136 0.70351 0.0
C1171 C 0.41778 0.21016 0.71409 0.0
C1172 C 0.43499 0.21626 0.72254 0.0
C1173 C 0.44387 0.23359 0.72048 0.0
H1174 H 0.41093 0.19675 0.71572 0.0
H1175 H 0.49569 0.36471 0.6931 0.0
H1176 H 0.02039 0.78778 0.62691 0.0
H1177 H 0.02019 0.81674 0.61482 0.0
H1178 H 0.02129 0.84476 0.67174 0.0
H1179 H 0.02166 0.8157 0.68416 0.0
H1180 H 0.99935 0.85588 0.63636 0.0
H1181 H 0.05607 0.85081 0.66438 0.0
H1182 H 0.07962 0.83418 0.67082 0.0
H1183 H 0.08195 0.82398 0.61087 0.0
H1184 H 0.05816 0.84024 0.60404 0.0
H1185 H 0.03228 0.93876 0.59889 0.0
H1186 H 0.0287 0.91686 0.62143 0.0
H1187 H 0.03568 0.87354 0.5788 0.0
H1188 H 0.03873 0.89499 0.55614 0.0
H1189 H 0.05506 0.87493 0.61445 0.0
H1190 H 0.99656 0.87665 0.58631 0.0
H1191 H 0.9725 0.89244 0.57911 0.0
H1192 H 0.97361 0.90917 0.63907 0.0
H1193 H 0.99784 0.89368 0.64661 0.0
C1194 C 0.02013 0.79996 0.63684 0.0
C1195 C 0.02133 0.79954 0.65653 0.0
C1196 C 0.01999 0.81648 0.62989 0.0
C1197 C 0.02093 0.83281 0.64246 0.0
C1198 C 0.02056 0.83222 0.66189 0.0
C1199 C 0.02082 0.81564 0.66892 0.0
C1200 C 0.02474 0.85052 0.63542 0.0
C1201 C 0.01165 0.86039 0.63198 0.0
C1202 C 0.04077 0.8562 0.62966 0.0
C1203 C 0.05523 0.8466 0.6337 0.0
C1204 C 0.06149 0.84487 0.65256 0.0
C1205 C 0.0749 0.83554 0.65628 0.0
C1206 C 0.08225 0.82799 0.64126 0.0
C1207 C 0.07623 0.82981 0.62249 0.0
C1208 C 0.06279 0.8391 0.61869 0.0
C1209 C 0.03292 0.92453 0.59429 0.0
C1210 C 0.03583 0.91862 0.57572 0.0
C1211 C 0.03095 0.9121 0.60721 0.0
C1212 C 0.03191 0.89363 0.60172 0.0
C1213 C 0.03503 0.88779 0.58332 0.0
C1214 C 0.03687 0.90011 0.57042 0.0
C1215 C 0.02951 0.88004 0.61482 0.0
C1216 C 0.04292 0.87085 0.61935 0.0
C1217 C 0.01381 0.87509 0.62158 0.0
C1218 C 0.99915 0.88422 0.61701 0.0
C1219 C 0.99177 0.88383 0.59795 0.0
C1220 C 0.97809 0.89269 0.5938 0.0
C1221 C 0.97159 0.90187 0.60862 0.0
C1222 C 0.97869 0.9021 0.62761 0.0
C1223 C 0.99239 0.89328 0.63182 0.0
H1224 H 0.96104 0.90878 0.60541 0.0
H1225 H 0.09263 0.82077 0.64417 0.0
H1226 H 0.46199 0.76503 0.85022 0.0
H1227 H 0.43075 0.76048 0.84547 0.0
H1228 H 0.43359 0.81532 0.83169 0.0
H1229 H 0.46507 0.82001 0.83633 0.0
H1230 H 0.41206 0.80553 0.86036 0.0
H1231 H 0.4214 0.78271 0.79688 0.0
H1232 H 0.43347 0.7635 0.77359 0.0
H1233 H 0.40778 0.71455 0.79122 0.0
H1234 H 0.39576 0.73349 0.81482 0.0
H1235 H 0.32618 0.80122 0.81893 0.0
H1236 H 0.3565 0.80541 0.83164 0.0
H1237 H 0.35154 0.7464 0.8275 0.0
H1238 H 0.32135 0.74218 0.81322 0.0
H1239 H 0.37478 0.75786 0.80975 0.0
H1240 H 0.36349 0.77922 0.8716 0.0
H1241 H 0.35096 0.79751 0.89521 0.0
H1242 H 0.37981 0.8475 0.88281 0.0
H1243 H 0.3923 0.82955 0.85888 0.0
C1244 C 0.45598 0.77607 0.84597 0.0
C1245 C 0.46591 0.79288 0.84361 0.0
C1246 C 0.43817 0.77345 0.84332 0.0
C1247 C 0.43001 0.78761 0.83835 0.0
C1248 C 0.4398 0.80431 0.83563 0.0
C1249 C 0.45769 0.80688 0.83807 0.0
C1250 C 0.41119 0.78482 0.8361 0.0
C1251 C 0.40379 0.79528 0.84921 0.0
C1252 C 0.40064 0.77093 0.82201 0.0
C1253 C 0.40782 0.75953 0.80775 0.0
C1254 C 0.41845 0.76786 0.79591 0.0
C1255 C 0.42526 0.75702 0.78263 0.0
C1256 C 0.42144 0.73782 0.78096 0.0
C1257 C 0.41076 0.72942 0.79254 0.0
C1258 C 0.40393 0.74021 0.80586 0.0
C1259 C 0.33144 0.78918 0.82133 0.0
C1260 C 0.3216 0.77137 0.81496 0.0
C1261 C 0.3488 0.79159 0.82873 0.0
C1262 C 0.35638 0.77622 0.83056 0.0
C1263 C 0.34602 0.75845 0.82604 0.0
C1264 C 0.32879 0.75603 0.818 0.0
C1265 C 0.37531 0.77852 0.83411 0.0
C1266 C 0.38285 0.76799 0.82116 0.0
C1267 C 0.38593 0.79216 0.84858 0.0
C1268 C 0.37877 0.80301 0.86334 0.0
C1269 C 0.36711 0.79412 0.87383 0.0
C1270 C 0.36001 0.80443 0.88728 0.0
C1271 C 0.36456 0.82366 0.89048 0.0
C1272 C 0.37629 0.83261 0.88031 0.0
C1273 C 0.38341 0.82237 0.86682 0.0
H1274 H 0.35902 0.83161 0.90087 0.0
H1275 H 0.42672 0.72945 0.77067 0.0
H1276 H 0.56055 0.18146 0.16 0.0
H1277 H 0.56402 0.15847 0.13402 0.0
H1278 H 0.54469 0.19013 0.09279 0.0
H1279 H 0.54061 0.21285 0.11867 0.0
H1280 H 0.53046 0.15569 0.08246 0.0
H1281 H 0.5884 0.18816 0.10238 0.0
H1282 H 0.61496 0.20226 0.12497 0.0
H1283 H 0.61892 0.14942 0.14051 0.0
H1284 H 0.59225 0.13503 0.11822 0.0
H1285 H 0.54395 0.08589 0.01252 0.0
H1286 H 0.55074 0.11759 0.02992 0.0
H1287 H 0.56269 0.0972 0.08277 0.0
H1288 H 0.55559 0.06582 0.06572 0.0
H1289 H 0.58377 0.13082 0.08168 0.0
H1290 H 0.52294 0.10101 0.06876 0.0
H1291 H 0.49604 0.0859 0.04715 0.0
H1292 H 0.4977 0.13359 0.01936 0.0
H1293 H 0.52478 0.14887 0.04067 0.0
C1294 C 0.55702 0.18352 0.14541 0.0
C1295 C 0.55027 0.19894 0.14139 0.0
C1296 C 0.55918 0.17047 0.13057 0.0
C1297 C 0.55498 0.1728 0.11146 0.0
C1298 C 0.54813 0.18813 0.10742 0.0
C1299 C 0.54574 0.20105 0.12224 0.0
C1300 C 0.55682 0.15868 0.09573 0.0
C1301 C 0.54228 0.15062 0.08201 0.0
C1302 C 0.57218 0.1519 0.09523 0.0
C1303 C 0.58827 0.16053 0.10865 0.0
C1304 C 0.59487 0.17956 0.1107 0.0
C1305 C 0.60996 0.1876 0.12344 0.0
C1306 C 0.61863 0.17673 0.13416 0.0
C1307 C 0.61221 0.15781 0.13218 0.0
C1308 C 0.59712 0.1497 0.11946 0.0
C1309 C 0.54848 0.08828 0.02777 0.0
C1310 C 0.54922 0.07343 0.03781 0.0
C1311 C 0.55237 0.10634 0.03765 0.0
C1312 C 0.55709 0.10964 0.05761 0.0
C1313 C 0.55919 0.09493 0.06735 0.0
C1314 C 0.55515 0.07696 0.05756 0.0
C1315 C 0.55734 0.12771 0.06892 0.0
C1316 C 0.5722 0.13643 0.08182 0.0
C1317 C 0.54228 0.13507 0.06878 0.0
C1318 C 0.52596 0.12597 0.05611 0.0
C1319 C 0.51762 0.10821 0.05794 0.0
C1320 C 0.50234 0.09963 0.04577 0.0
C1321 C 0.49519 0.10876 0.03185 0.0
C1322 C 0.50328 0.12652 0.03012 0.0
C1323 C 0.51859 0.13514 0.04223 0.0
H1324 H 0.48336 0.1021 0.02244 0.0
H1325 H 0.63033 0.18295 0.14399 0.0
H1326 H 0.05342 0.26714 0.32162 0.0
H1327 H 0.0763 0.26308 0.30308 0.0
H1328 H 0.11412 0.29365 0.35045 0.0
H1329 H 0.09124 0.2974 0.36939 0.0
H1330 H 0.11439 0.30438 0.31044 0.0
H1331 H 0.11462 0.25369 0.34612 0.0
H1332 H 0.10103 0.22605 0.35795 0.0
H1333 H 0.08343 0.19833 0.30028 0.0
H1334 H 0.09672 0.22594 0.2881 0.0
H1335 H 0.1928 0.285 0.28635 0.0
H1336 H 0.1678 0.29107 0.30028 0.0
H1337 H 0.13492 0.24808 0.25827 0.0
H1338 H 0.16008 0.24128 0.24481 0.0
H1339 H 0.13041 0.24386 0.29362 0.0
H1340 H 0.13369 0.29256 0.25766 0.0
H1341 H 0.14519 0.32033 0.24477 0.0
H1342 H 0.15399 0.35254 0.30075 0.0
H1343 H 0.14316 0.32485 0.31417 0.0
C1344 C 0.06662 0.27295 0.32811 0.0
C1345 C 0.07063 0.2826 0.34689 0.0
C1346 C 0.07961 0.27058 0.31754 0.0
C1347 C 0.09675 0.27808 0.3255 0.0
C1348 C 0.10087 0.2878 0.3442 0.0
C1349 C 0.08787 0.28986 0.35496 0.0
C1350 C 0.11031 0.27592 0.31402 0.0
C1351 C 0.11823 0.2913 0.30696 0.0
C1352 C 0.11447 0.25858 0.30892 0.0
C1353 C 0.10648 0.24196 0.31621 0.0
C1354 C 0.1077 0.24178 0.33596 0.0
C1355 C 0.10009 0.2261 0.34273 0.0
C1356 C 0.09132 0.21046 0.32987 0.0
C1357 C 0.0902 0.21046 0.31022 0.0
C1358 C 0.09777 0.22612 0.30338 0.0
C1359 C 0.18017 0.27724 0.27972 0.0
C1360 C 0.17827 0.26275 0.26446 0.0
C1361 C 0.16593 0.28082 0.2876 0.0
C1362 C 0.14953 0.27034 0.28004 0.0
C1363 C 0.14749 0.25641 0.2642 0.0
C1364 C 0.16179 0.25257 0.25652 0.0
C1365 C 0.135 0.27251 0.29016 0.0
C1366 C 0.12674 0.25706 0.29699 0.0
C1367 C 0.13049 0.28985 0.29491 0.0
C1368 C 0.13777 0.30646 0.28699 0.0
C1369 C 0.13837 0.30546 0.26733 0.0
C1370 C 0.14472 0.32123 0.2599 0.0
C1371 C 0.15031 0.33818 0.27193 0.0
C1372 C 0.1496 0.3394 0.29143 0.0
C1373 C 0.14341 0.32364 0.29897 0.0
H1374 H 0.15519 0.35038 0.26614 0.0
H1375 H 0.08545 0.19833 0.33514 0.0
H1376 H 0.9696 0.00812 0.21 0.0
H1377 H 0.98176 0.01195 0.18093 0.0
H1378 H 0.93159 0.01254 0.15072 0.0
H1379 H 0.91928 0.00872 0.1798 0.0
H1380 H 0.97526 0.99102 0.14526 0.0
H1381 H 0.93763 0.04484 0.12043 0.0
H1382 H 0.92324 0.06884 0.13413 0.0
H1383 H 0.95697 0.07566 0.18766 0.0
H1384 H 0.97169 0.05191 0.1742 0.0
H1385 H 0.99491 1.00482 0.05448 0.0
H1386 H 0.97739 1.00012 0.07954 0.0
H1387 H 1.00425 0.05255 0.11212 0.0
H1388 H 0.02144 0.05754 0.08685 0.0
H1389 H 0.97123 0.0469 0.11572 0.0
H1390 H 0.01649 0.01175 0.1198 0.0
H1391 H 0.03253 0.98881 0.10725 0.0
H1392 H 0.98695 0.94656 0.09795 0.0
H1393 H 0.97058 0.96928 0.11019 0.0
C1394 C 0.96112 0.00898 0.19715 0.0
C1395 C 0.94349 0.00821 0.1972 0.0
C1396 C 0.96809 0.01109 0.18054 0.0
C1397 C 0.9576 0.01264 0.16374 0.0
C1398 C 0.93992 0.01152 0.16361 0.0
C1399 C 0.93291 0.0093 0.18021 0.0
C1400 C 0.96533 0.01602 0.14656 0.0
C1401 C 0.9743 1.00317 0.13872 0.0
C1402 C 0.96422 0.03198 0.13818 0.0
C1403 C 0.95561 0.04645 0.14636 0.0
C1404 C 0.94199 0.05151 0.13511 0.0
C1405 C 0.93378 0.06506 0.14283 0.0
C1406 C 0.93914 0.07372 0.16178 0.0
C1407 C 0.95278 0.0689 0.17302 0.0
C1408 C 0.96104 0.05537 0.16535 0.0
C1409 C 0.99683 0.01548 0.06683 0.0
C1410 C 0.00963 0.03145 0.06887 0.0
C1411 C 0.98689 0.01274 0.08117 0.0
C1412 C 0.98978 0.0258 0.09788 0.0
C1413 C 1.00186 0.04225 0.09939 0.0
C1414 C 0.0117 0.04507 0.08498 0.0
C1415 C 0.98112 0.02187 0.11434 0.0
C1416 C 0.972 0.03462 0.12208 0.0
C1417 C 0.98233 1.00595 0.12282 0.0
C1418 C 0.99227 0.99225 0.11576 0.0
C1419 C 0.00987 0.99758 0.11499 0.0
C1420 C 0.01902 0.98463 0.10793 0.0
C1421 C 0.01074 0.96626 0.10178 0.0
C1422 C 0.99333 0.9608 0.10271 0.0
C1423 C 0.98411 0.9737 0.10971 0.0
H1424 H 0.01781 0.95623 0.09636 0.0
H1425 H 0.93276 0.0842 0.16774 0.0
H1426 H 0.32253 0.71294 0.52345 0.0
H1427 H 0.30727 0.72482 0.49753 0.0
H1428 H 0.26687 0.67621 0.48776 0.0
H1429 H 0.28289 0.66371 0.51282 0.0
H1430 H 0.27257 0.68188 0.45625 0.0
H1431 H 0.26107 0.7218 0.50661 0.0
H1432 H 0.26593 0.743 0.53717 0.0
H1433 H 0.30086 0.78242 0.5153 0.0
H1434 H 0.29645 0.76138 0.48472 0.0
H1435 H 0.25525 0.76313 0.4 0.0
H1436 H 0.25086 0.74691 0.42706 0.0
H1437 H 0.29042 0.71698 0.41469 0.0
H1438 H 0.29486 0.73309 0.3878 0.0
H1439 H 0.27211 0.74838 0.45813 0.0
H1440 H 0.28351 0.67548 0.4257 0.0
H1441 H 0.27404 0.65372 0.39551 0.0
H1442 H 0.23071 0.67893 0.38246 0.0
H1443 H 0.23973 0.70065 0.41269 0.0
C1444 C 0.31033 0.7049 0.51582 0.0
C1445 C 0.30389 0.68743 0.51997 0.0
C1446 C 0.30147 0.71178 0.50116 0.0
C1447 C 0.28566 0.70164 0.4909 0.0
C1448 C 0.27901 0.68433 0.49544 0.0
C1449 C 0.28816 0.67719 0.50972 0.0
C1450 C 0.27711 0.7084 0.47427 0.0
C1451 C 0.27224 0.69638 0.45676 0.0
C1452 C 0.27572 0.72711 0.47497 0.0
C1453 C 0.27842 0.73995 0.49333 0.0
C1454 C 0.26986 0.73495 0.50834 0.0
C1455 C 0.27253 0.74695 0.52567 0.0
C1456 C 0.2837 0.76404 0.52817 0.0
C1457 C 0.2922 0.76919 0.51333 0.0
C1458 C 0.28958 0.75724 0.49597 0.0
C1459 C 0.26295 0.75303 0.40305 0.0
C1460 C 0.27546 0.74942 0.39186 0.0
C1461 C 0.26034 0.74371 0.41841 0.0
C1462 C 0.27013 0.73057 0.42272 0.0
C1463 C 0.28239 0.72672 0.41133 0.0
C1464 C 0.28498 0.73599 0.396 0.0
C1465 C 0.26903 0.72212 0.44017 0.0
C1466 C 0.27196 0.7338 0.45781 0.0
C1467 C 0.26787 0.70297 0.43969 0.0
C1468 C 0.26235 0.68977 0.4215 0.0
C1469 C 0.27188 0.67631 0.41648 0.0
C1470 C 0.26661 0.66399 0.39932 0.0
C1471 C 0.25179 0.66495 0.38706 0.0
C1472 C 0.2422 0.67822 0.39194 0.0
C1473 C 0.24741 0.69056 0.40908 0.0
H1474 H 0.24774 0.65541 0.37378 0.0
H1475 H 0.28576 0.77331 0.54161 0.0
H1476 H 0.65633 1.00484 0.71317 0.0
H1477 H 0.64063 0.00745 0.68211 0.0
H1478 H 0.59304 0.99828 0.70429 0.0
H1479 H 0.60873 0.99538 0.73531 0.0
H1480 H 0.58698 0.98031 0.66972 0.0
H1481 H 0.61499 0.04266 0.69532 0.0
H1482 H 0.6395 0.06808 0.70905 0.0
H1483 H 0.6627 0.05808 0.65904 0.0
H1484 H 0.63843 0.03243 0.64511 0.0
H1485 H 0.53293 0.01015 0.59908 0.0
H1486 H 0.5513 0.00733 0.62802 0.0
H1487 H 0.59523 0.01419 0.59917 0.0
H1488 H 0.57656 0.01737 0.56977 0.0
H1489 H 0.60453 0.03251 0.63573 0.0
H1490 H 0.57567 0.97092 0.60961 0.0
H1491 H 0.55091 0.94577 0.59598 0.0
H1492 H 0.52921 0.95446 0.64726 0.0
H1493 H 0.55373 0.97984 0.6611 0.0
C1494 C 0.64251 1.00336 0.71152 0.0
C1495 C 0.63397 0.99989 0.72709 0.0
C1496 C 0.63345 1.005 0.6936 0.0
C1497 C 0.61542 1.00339 0.69044 0.0
C1498 C 0.60685 0.99967 0.70594 0.0
C1499 C 0.61592 0.99803 0.72387 0.0
C1500 C 0.60549 1.00532 0.67114 0.0
C1501 C 0.5908 0.9919 0.66253 0.0
C1502 C 0.61041 0.02007 0.66096 0.0
C1503 C 0.62498 0.0355 0.66926 0.0
C1504 C 0.62538 0.04579 0.68731 0.0
C1505 C 0.63922 0.06026 0.69512 0.0
C1506 C 0.65267 0.06465 0.68495 0.0
C1507 C 0.65229 0.05463 0.66692 0.0
C1508 C 0.63849 0.04014 0.65905 0.0
C1509 C 0.5465 0.01105 0.59868 0.0
C1510 C 0.55305 0.01392 0.58172 0.0
C1511 C 0.55711 0.00931 0.61545 0.0
C1512 C 0.57487 0.01014 0.61617 0.0
C1513 C 0.58164 0.01336 0.59933 0.0
C1514 C 0.5709 0.01514 0.58236 0.0
C1515 C 0.58594 0.00759 0.63449 0.0
C1516 C 0.60079 0.02087 0.64291 0.0
C1517 C 0.58119 0.99272 0.64455 0.0
C1518 C 0.56648 0.97738 0.63633 0.0
C1519 C 0.56557 0.96754 0.61793 0.0
C1520 C 0.55158 0.95324 0.61018 0.0
C1521 C 0.53848 0.94854 0.62073 0.0
C1522 C 0.53936 0.95812 0.6391 0.0
C1523 C 0.55331 0.97245 0.64691 0.0
H1524 H 0.52766 0.93746 0.6147 0.0
H1525 H 0.66337 0.07585 0.69102 0.0
H1526 H 0.2738 0.3817 0.97112 0.0
H1527 H 0.2729 0.36267 0.94035 0.0
H1528 H 0.31113 0.33559 0.96616 0.0
H1529 H 0.31191 0.35445 0.99723 0.0
H1530 H 0.31839 0.34986 0.93192 0.0
H1531 H 0.27283 0.31179 0.9541 0.0
H1532 H 0.24593 0.30476 0.96715 0.0
H1533 H 0.21827 0.3215 0.91899 0.0
H1534 H 0.24507 0.32897 0.9058 0.0
H1535 H 0.31343 0.28852 0.84511 0.0
H1536 H 0.31454 0.30149 0.8786 0.0
H1537 H 0.26831 0.32184 0.86324 0.0
H1538 H 0.26677 0.30831 0.83 0.0
H1539 H 0.26609 0.30838 0.89402 0.0
H1540 H 0.31025 0.34988 0.87333 0.0
H1541 H 0.33647 0.35868 0.85946 0.0
H1542 H 0.36587 0.33824 0.90362 0.0
H1543 H 0.33978 0.32906 0.9176 0.0
C1544 C 0.28189 0.37155 0.97033 0.0
C1545 C 0.29294 0.36959 0.98663 0.0
C1546 C 0.28132 0.36066 0.95273 0.0
C1547 C 0.29192 0.3477 0.95098 0.0
C1548 C 0.30282 0.3455 0.96724 0.0
C1549 C 0.30319 0.35621 0.98498 0.0
C1550 C 0.29209 0.33718 0.93191 0.0
C1551 C 0.30707 0.3405 0.92373 0.0
C1552 C 0.27714 0.32545 0.92106 0.0
C1553 C 0.26102 0.32111 0.92905 0.0
C1554 C 0.26105 0.31417 0.94638 0.0
C1555 C 0.24581 0.31007 0.95379 0.0
C1556 C 0.23041 0.31273 0.94393 0.0
C1557 C 0.23021 0.31948 0.92663 0.0
C1558 C 0.24543 0.32364 0.91918 0.0
C1559 C 0.30353 0.2958 0.84888 0.0
C1560 C 0.29003 0.2974 0.83486 0.0
C1561 C 0.30421 0.30327 0.86804 0.0
C1562 C 0.29163 0.31288 0.87351 0.0
C1563 C 0.27816 0.31446 0.85948 0.0
C1564 C 0.27732 0.30675 0.84042 0.0
C1565 C 0.29233 0.32128 0.89377 0.0
C1566 C 0.2775 0.31759 0.9022 0.0
C1567 C 0.30731 0.33299 0.90471 0.0
C1568 C 0.32303 0.33859 0.89639 0.0
C1569 C 0.32229 0.34713 0.88 0.0
C1570 C 0.33712 0.35221 0.87213 0.0
C1571 C 0.35281 0.34897 0.88062 0.0
C1572 C 0.35371 0.3407 0.89704 0.0
C1573 C 0.3389 0.33557 0.90495 0.0
H1574 H 0.36428 0.35291 0.8745 0.0
H1575 H 0.21862 0.30952 0.94968 0.0
H1576 H 0.9499 0.02764 0.31467 0.0
H1577 H 0.96089 0.0326 0.34899 0.0
H1578 H 0.98227 0.98363 0.34155 0.0
H1579 H 0.97153 0.97864 0.30729 0.0
H1580 H 0.96261 0.98588 0.37173 0.0
H1581 H 0.00823 0.02342 0.34752 0.0
H1582 H 0.01993 0.04807 0.33032 0.0
H1583 H 1.00268 0.08788 0.3681 0.0
H1584 H 0.99067 0.0634 0.38537 0.0
H1585 H 0.0191 0.98921 0.45577 0.0
H1586 H 0.00603 0.98839 0.42285 0.0
H1587 H 0.99571 0.04278 0.43762 0.0
H1588 H 0.00924 0.04391 0.47067 0.0
H1589 H 0.00704 0.03996 0.40462 0.0
H1590 H 0.96342 1.00443 0.43057 0.0
H1591 H 0.9507 0.98069 0.44822 0.0
H1592 H 0.9619 0.93836 0.40796 0.0
H1593 H 0.97492 0.96185 0.39019 0.0
C1594 C 0.957 0.01797 0.32033 0.0
C1595 C 0.95987 1.00275 0.30824 0.0
C1596 C 0.96328 0.02085 0.33992 0.0
C1597 C 0.97239 0.00849 0.34774 0.0
C1598 C 0.97524 0.9933 0.33575 0.0
C1599 C 0.96916 0.99053 0.31616 0.0
C1600 C 0.97883 0.01116 0.36848 0.0
C1601 C 0.97243 0.99761 0.37893 0.0
C1602 C 0.99111 0.02685 0.37793 0.0
C1603 C 0.99838 0.04155 0.36759 0.0
C1604 C 0.00679 0.0374 0.35205 0.0
C1605 C 0.01351 0.05135 0.34231 0.0
C1606 C 0.012 0.06952 0.34807 0.0
C1607 C 1.00381 0.07379 0.36363 0.0
C1608 C 0.99706 0.05989 0.3734 0.0
C1609 C 0.01404 1.00101 0.45208 0.0
C1610 C 0.01511 0.01657 0.46588 0.0
C1611 C 0.00649 1.00049 0.43324 0.0
C1612 C 0.99957 0.01537 0.42784 0.0
C1613 C 1.00088 0.0311 0.4415 0.0
C1614 C 0.0086 0.03171 0.46037 0.0
C1615 C 0.99115 0.01442 0.40786 0.0
C1616 C 0.9971 0.0283 0.39754 0.0
C1617 C 0.97822 0.99917 0.39857 0.0
C1618 C 0.97027 0.98494 0.40912 0.0
C1619 C 0.96328 0.99007 0.42554 0.0
C1620 C 0.956 0.97666 0.43556 0.0
C1621 C 0.95553 0.95804 0.42924 0.0
C1622 C 0.96229 0.95279 0.41284 0.0
C1623 C 0.9696 0.96615 0.40277 0.0
H1624 H 0.94989 0.94767 0.43702 0.0
H1625 H 0.01721 0.08029 0.34052 0.0
H1626 H 0.34884 0.72148 0.60634 0.0
H1627 H 0.34781 0.74482 0.63336 0.0
H1628 H 0.36051 0.70821 0.6724 0.0
H1629 H 0.36171 0.68488 0.64566 0.0
H1630 H 0.3256 0.71854 0.66835 0.0
H1631 H 0.38703 0.74411 0.67731 0.0
H1632 H 0.41314 0.75907 0.66641 0.0
H1633 H 0.38995 0.80523 0.65652 0.0
H1634 H 0.36359 0.79041 0.66709 0.0
H1635 H 0.3217 0.7561 0.76009 0.0
H1636 H 0.33584 0.74559 0.73368 0.0
H1637 H 0.32475 0.79083 0.70572 0.0
H1638 H 0.31017 0.80117 0.73209 0.0
H1639 H 0.35835 0.77982 0.70148 0.0
H1640 H 0.29852 0.75753 0.69213 0.0
H1641 H 0.26998 0.7436 0.69825 0.0
H1642 H 0.28643 0.69251 0.7027 0.0
H1643 H 0.31534 0.70636 0.6974 0.0
C1644 C 0.352 0.71862 0.6207 0.0
C1645 C 0.35498 0.70116 0.62385 0.0
C1646 C 0.35148 0.73202 0.6361 0.0
C1647 C 0.35401 0.72812 0.65476 0.0
C1648 C 0.35858 0.71142 0.65802 0.0
C1649 C 0.35918 0.69808 0.64271 0.0
C1650 C 0.34834 0.73934 0.67025 0.0
C1651 C 0.33287 0.73182 0.67582 0.0
C1652 C 0.35737 0.75713 0.67899 0.0
C1653 C 0.37326 0.76605 0.67279 0.0
C1654 C 0.38742 0.75736 0.67262 0.0
C1655 C 0.40229 0.76584 0.66655 0.0
C1656 C 0.40318 0.78307 0.66072 0.0
C1657 C 0.38923 0.79188 0.66101 0.0
C1658 C 0.37434 0.78345 0.66706 0.0
C1659 C 0.32259 0.76398 0.74849 0.0
C1660 C 0.31471 0.7792 0.7478 0.0
C1661 C 0.3307 0.75804 0.7335 0.0
C1662 C 0.33108 0.76732 0.71771 0.0
C1663 C 0.32457 0.78355 0.71783 0.0
C1664 C 0.31627 0.7894 0.73281 0.0
C1665 C 0.33606 0.75848 0.70024 0.0
C1666 C 0.35114 0.76651 0.69409 0.0
C1667 C 0.32641 0.74128 0.69046 0.0
C1668 C 0.30927 0.73314 0.69469 0.0
C1669 C 0.29622 0.74347 0.69485 0.0
C1670 C 0.27992 0.73554 0.69807 0.0
C1671 C 0.27638 0.71717 0.70081 0.0
C1672 C 0.28917 0.70673 0.70049 0.0
C1673 C 0.30555 0.71464 0.69748 0.0
H1674 H 0.26373 0.71104 0.70324 0.0
H1675 H 0.4147 0.78961 0.65602 0.0
H1676 H 0.60519 0.01722 0.83175 0.0
H1677 H 0.59366 0.01833 0.86136 0.0
H1678 H 0.63793 1.00102 0.88864 0.0
H1679 H 0.64963 0.99949 0.85828 0.0
H1680 H 0.61037 0.98561 0.90304 0.0
H1681 H 0.6313 0.04785 0.8965 0.0
H1682 H 0.63514 0.07531 0.88061 0.0
H1683 H 0.58093 0.07409 0.8742 0.0
H1684 H 0.57672 0.04647 0.88982 0.0
H1685 H 0.5868 0.0131 0.99619 0.0
H1686 H 0.60171 0.01008 0.96838 0.0
H1687 H 0.55894 0.02304 0.93325 0.0
H1688 H 0.54396 0.02576 0.96081 0.0
H1689 H 0.58823 0.04135 0.92464 0.0
H1690 H 0.56723 0.97719 0.92776 0.0
H1691 H 0.5633 0.94899 0.9425 0.0
H1692 H 0.61795 0.95495 0.95663 0.0
H1693 H 0.62222 0.98294 0.94153 0.0
C1694 C 0.6127 0.01358 0.84391 0.0
C1695 C 0.62865 0.0084 0.84214 0.0
C1696 C 0.60598 0.01437 0.86117 0.0
C1697 C 0.61489 0.01031 0.87796 0.0
C1698 C 0.6306 1.00447 0.87624 0.0
C1699 C 0.63738 1.00356 0.8587 0.0
C1700 C 0.60762 0.01245 0.89687 0.0
C1701 C 0.60587 0.99801 0.90783 0.0
C1702 C 0.60122 0.02836 0.90356 0.0
C1703 C 0.60368 0.04499 0.89419 0.0
C1704 C 0.62018 0.05337 0.89158 0.0
C1705 C 0.62242 0.06897 0.88264 0.0
C1706 C 0.60828 0.07641 0.87636 0.0
C1707 C 0.59187 0.06829 0.87905 0.0
C1708 C 0.58955 0.05268 0.88797 0.0
C1709 C 0.58053 0.0154 0.9826 0.0
C1710 C 0.56399 0.01975 0.98113 0.0
C1711 C 0.58909 0.01349 0.96647 0.0
C1712 C 0.58163 0.01613 0.94819 0.0
C1713 C 0.56526 0.02084 0.94687 0.0
C1714 C 0.55661 0.02243 0.96285 0.0
C1715 C 0.59079 0.01445 0.93064 0.0
C1716 C 0.59286 0.02902 0.91991 0.0
C1717 C 0.59753 0.99874 0.92427 0.0
C1718 C 0.59504 0.98223 0.93372 0.0
C1719 C 0.5784 0.97255 0.93414 0.0
C1720 C 0.57611 0.95659 0.9425 0.0
C1721 C 0.59035 0.95031 0.95069 0.0
C1722 C 0.60693 0.95987 0.95035 0.0
C1723 C 0.6093 0.97571 0.94178 0.0
H1724 H 0.58854 0.93798 0.9572 0.0
H1725 H 0.61005 0.08849 0.86944 0.0
H1726 H 0.31772 0.38886 0.12271 0.0
H1727 H 0.31708 0.37205 0.14977 0.0
H1728 H 0.29843 0.32086 0.11094 0.0
H1729 H 0.29876 0.33764 0.08382 0.0
H1730 H 0.28017 0.32245 0.13898 0.0
H1731 H 0.34036 0.33299 0.13555 0.0
H1732 H 0.36882 0.35147 0.13441 0.0
H1733 H 0.36888 0.38279 0.18922 0.0
H1734 H 0.34029 0.36465 0.19058 0.0
H1735 H 0.28986 0.26198 0.20585 0.0
H1736 H 0.29471 0.2788 0.17933 0.0
H1737 H 0.30866 0.33006 0.21863 0.0
H1738 H 0.30377 0.31326 0.24527 0.0
H1739 H 0.32969 0.32853 0.19072 0.0
H1740 H 0.26952 0.31835 0.19395 0.0
H1741 H 0.24109 0.2999 0.19529 0.0
H1742 H 0.24106 0.26802 0.14078 0.0
H1743 H 0.26963 0.28611 0.13925 0.0
C1744 C 0.31364 0.374 0.1199 0.0
C1745 C 0.30833 0.36461 0.10106 0.0
C1746 C 0.31333 0.36438 0.13542 0.0
C1747 C 0.30785 0.34512 0.13246 0.0
C1748 C 0.30272 0.3357 0.11364 0.0
C1749 C 0.30298 0.34532 0.09812 0.0
C1750 C 0.30682 0.33487 0.14896 0.0
C1751 C 0.2911 0.32358 0.15011 0.0
C1752 C 0.32091 0.33667 0.16384 0.0
C1753 C 0.33811 0.34757 0.16308 0.0
C1754 C 0.34638 0.34391 0.14729 0.0
C1755 C 0.36255 0.35431 0.14662 0.0
C1756 C 0.37063 0.36833 0.16171 0.0
C1757 C 0.36259 0.37194 0.17753 0.0
C1758 C 0.34641 0.3616 0.17827 0.0
C1759 C 0.29416 0.27681 0.20889 0.0
C1760 C 0.29632 0.28632 0.22763 0.0
C1761 C 0.29686 0.28642 0.1937 0.0
C1762 C 0.30182 0.30573 0.19694 0.0
C1763 C 0.30479 0.31517 0.21577 0.0
C1764 C 0.30198 0.30557 0.23098 0.0
C1765 C 0.30312 0.31605 0.18057 0.0
C1766 C 0.31882 0.32738 0.17951 0.0
C1767 C 0.28902 0.31431 0.16575 0.0
C1768 C 0.2718 0.30346 0.16658 0.0
C1769 C 0.26352 0.30731 0.18232 0.0
C1770 C 0.24737 0.29693 0.18311 0.0
C1771 C 0.2393 0.28276 0.16816 0.0
C1772 C 0.24734 0.27898 0.15237 0.0
C1773 C 0.26351 0.28929 0.15153 0.0
H1774 H 0.22679 0.27475 0.16879 0.0
H1775 H 0.38315 0.37636 0.16116 0.0
H1776 H 0.18236 0.85876 0.03098 0.0
H1777 H 0.15956 0.8717 0.04435 0.0
H1778 H 0.19399 0.9246 0.06071 0.0
H1779 H 0.21651 0.91197 0.04723 0.0
H1780 H 0.17176 0.9153 0.08805 0.0
H1781 H 0.17065 0.91636 0.01865 0.0
H1782 H 0.16779 0.90061 0.98549 0.0
H1783 H 0.11909 0.8682 0.99033 0.0
H1784 H 0.1218 0.88364 0.02363 0.0
H1785 H 0.13991 0.99534 0.08046 0.0
H1786 H 0.15316 0.96848 0.08219 0.0
H1787 H 0.10565 0.93297 0.05304 0.0
H1788 H 0.09306 0.95999 0.04991 0.0
H1789 H 0.12827 0.92475 0.03603 0.0
H1790 H 0.12498 0.93057 0.10172 0.0
H1791 H 0.12699 0.94604 0.1348 0.0
H1792 H 0.1815 0.96354 0.1386 0.0
H1793 H 0.17979 0.9484 0.10544 0.0
C1794 C 0.18507 0.87305 0.03773 0.0
C1795 C 0.20103 0.88448 0.03782 0.0
C1796 C 0.17212 0.88037 0.04542 0.0
C1797 C 0.17518 0.89906 0.05352 0.0
C1798 C 0.19146 0.91011 0.05467 0.0
C1799 C 0.20423 0.90293 0.04674 0.0
C1800 C 0.16108 0.90814 0.05818 0.0
C1801 C 0.16205 0.91728 0.07683 0.0
C1802 C 0.14813 0.91014 0.04362 0.0
C1803 C 0.14653 0.90094 0.02364 0.0
C1804 C 0.1594 0.90577 0.01267 0.0
C1805 C 0.1578 0.89692 0.99386 0.0
C1806 C 0.14329 0.88336 0.98583 0.0
C1807 C 0.13034 0.87866 0.99658 0.0
C1808 C 0.13191 0.88745 0.01542 0.0
C1809 C 0.13226 0.98175 0.07475 0.0
C1810 C 0.11547 0.97966 0.06502 0.0
C1811 C 0.13975 0.96634 0.07594 0.0
C1812 C 0.13036 0.94855 0.06796 0.0
C1813 C 0.11322 0.94648 0.05926 0.0
C1814 C 0.10598 0.96189 0.05755 0.0
C1815 C 0.13915 0.9327 0.06597 0.0
C1816 C 0.1373 0.92231 0.04768 0.0
C1817 C 0.15103 0.92937 0.08101 0.0
C1818 C 0.15223 0.9384 0.10104 0.0
C1819 C 0.13739 0.9378 0.10957 0.0
C1820 C 0.13848 0.9465 0.12835 0.0
C1821 C 0.15436 0.95578 0.1388 0.0
C1822 C 0.1692 0.95634 0.1305 0.0
C1823 C 0.16818 0.94766 0.11172 0.0
H1824 H 0.15518 0.96253 0.15333 0.0
H1825 H 0.14207 0.87653 0.97126 0.0
H1826 H 0.69822 0.6439 0.99026 0.0
H1827 H 0.67004 0.62681 0.99359 0.0
H1828 H 0.69219 0.57953 1.00291 0.0
H1829 H 0.72016 0.59627 0.99874 0.0
H1830 H 0.66288 0.56786 0.9821 0.0
H1831 H 0.68244 0.61095 0.04026 0.0
H1832 H 0.69314 0.64151 0.06012 0.0
H1833 H 0.64757 0.65942 0.03779 0.0
H1834 H 0.63669 0.62902 0.0176 0.0
H1835 H 0.60059 0.52134 0.03004 0.0
H1836 H 0.62697 0.54028 0.02407 0.0
H1837 H 0.59767 0.57767 1.00097 0.0
H1838 H 0.57111 0.55848 0.00646 0.0
H1839 H 0.62917 0.59505 0.02754 0.0
H1840 H 0.60951 0.5499 0.9706 0.0
H1841 H 0.59935 0.51837 0.95274 0.0
H1842 H 0.64634 0.50341 0.9755 0.0
H1843 H 0.65668 0.53479 0.99374 0.0
C1844 C 0.69703 0.62981 0.99288 0.0
C1845 C 0.71143 0.62146 0.99429 0.0
C1846 C 0.68093 0.62008 0.99493 0.0
C1847 C 0.67896 0.60194 0.99892 0.0
C1848 C 0.6933 0.59348 0.99989 0.0
C1849 C 0.70932 0.60309 0.99751 0.0
C1850 C 0.66208 0.59176 1.00221 0.0
C1851 C 0.65566 0.57381 0.99221 0.0
C1852 C 0.65235 0.59951 0.01512 0.0
C1853 C 0.65884 0.61778 0.02727 0.0
C1854 C 0.67476 0.62145 0.03948 0.0
C1855 C 0.68085 0.63874 0.05082 0.0
C1856 C 0.67107 0.65242 0.05018 0.0
C1857 C 0.65515 0.64882 0.03824 0.0
C1858 C 0.64901 0.63156 0.02686 0.0
C1859 C 0.59976 0.53363 0.02375 0.0
C1860 C 0.58379 0.53845 0.01874 0.0
C1861 C 0.61484 0.54442 0.02034 0.0
C1862 C 0.61427 0.56033 0.012 0.0
C1863 C 0.59839 0.56547 0.00745 0.0
C1864 C 0.58324 0.55452 0.01062 0.0
C1865 C 0.63025 0.57124 0.00761 0.0
C1866 C 0.63644 0.58926 0.01739 0.0
C1867 C 0.63992 0.56347 0.99475 0.0
C1868 C 0.6338 0.54465 0.98366 0.0
C1869 C 0.61762 0.53984 0.97192 0.0
C1870 C 0.61183 0.52201 0.9617 0.0
C1871 C 0.62217 0.50889 0.96302 0.0
C1872 C 0.63834 0.51359 0.97451 0.0
C1873 C 0.64417 0.5314 0.98477 0.0
H1874 H 0.61767 0.49508 0.9551 0.0
H1875 H 0.6758 0.66579 0.05896 0.0
H1876 H 0.65138 0.47614 0.308 0.0
H1877 H 0.66559 0.44971 0.30757 0.0
H1878 H 0.7058 0.47843 0.2818 0.0
H1879 H 0.69182 0.50506 0.28245 0.0
H1880 H 0.69137 0.44067 0.26382 0.0
H1881 H 0.71514 0.47669 0.32589 0.0
H1882 H 0.71357 0.49341 0.35749 0.0
H1883 H 0.68578 0.44386 0.37199 0.0
H1884 H 0.68697 0.4269 0.34034 0.0
H1885 H 0.75423 0.38574 0.27621 0.0
H1886 H 0.7375 0.41003 0.27453 0.0
H1887 H 0.70548 0.38572 0.31215 0.0
H1888 H 0.72257 0.36172 0.31424 0.0
H1889 H 0.71453 0.42073 0.32379 0.0
H1890 H 0.68817 0.38489 0.26262 0.0
H1891 H 0.6865 0.36758 0.23033 0.0
H1892 H 0.71685 0.41471 0.21421 0.0
H1893 H 0.71833 0.43245 0.24625 0.0
C1894 C 0.66326 0.47684 0.30227 0.0
C1895 C 0.67053 0.49268 0.29531 0.0
C1896 C 0.67136 0.46176 0.30206 0.0
C1897 C 0.68673 0.46219 0.29469 0.0
C1898 C 0.69392 0.47788 0.28752 0.0
C1899 C 0.68597 0.49308 0.28799 0.0
C1900 C 0.69535 0.44627 0.29454 0.0
C1901 C 0.69663 0.43639 0.27691 0.0
C1902 C 0.70166 0.44041 0.31163 0.0
C1903 C 0.70098 0.45058 0.33067 0.0
C1904 C 0.70855 0.4694 0.33575 0.0
C1905 C 0.70776 0.47892 0.35368 0.0
C1906 C 0.69953 0.46972 0.36672 0.0
C1907 C 0.69212 0.45098 0.36186 0.0
C1908 C 0.69286 0.4414 0.34394 0.0
C1909 C 0.74352 0.38556 0.28397 0.0
C1910 C 0.73964 0.37195 0.29536 0.0
C1911 C 0.73388 0.39932 0.28289 0.0
C1912 C 0.72005 0.39958 0.293 0.0
C1913 C 0.71607 0.38581 0.30421 0.0
C1914 C 0.72582 0.37215 0.30544 0.0
C1915 C 0.71061 0.41496 0.293 0.0
C1916 C 0.7092 0.42484 0.31064 0.0
C1917 C 0.70393 0.42064 0.27591 0.0
C1918 C 0.70351 0.40991 0.25685 0.0
C1919 C 0.69457 0.39151 0.25221 0.0
C1920 C 0.69359 0.38166 0.23394 0.0
C1921 C 0.7017 0.38998 0.2203 0.0
C1922 C 0.71063 0.40826 0.22481 0.0
C1923 C 0.71145 0.41826 0.24297 0.0
H1924 H 0.70099 0.3823 0.2062 0.0
H1925 H 0.69894 0.47711 0.3806 0.0
H1926 H 0.77011 0.43632 0.453 0.0
H1927 H 0.80004 0.45264 0.4564 0.0
H1928 H 0.80908 0.44312 0.51475 0.0
H1929 H 0.77957 0.4262 0.51116 0.0
H1930 H 0.82084 0.48195 0.47846 0.0
H1931 H 0.84838 0.43391 0.52527 0.0
H1932 H 0.84072 0.40251 0.53276 0.0
H1933 H 0.81027 0.38449 0.47705 0.0
H1934 H 0.81797 0.41577 0.46914 0.0
H1935 H 0.9119 0.51379 0.51075 0.0
H1936 H 0.88104 0.50285 0.51017 0.0
H1937 H 0.88155 0.45583 0.46834 0.0
H1938 H 0.91223 0.46644 0.46909 0.0
H1939 H 0.86511 0.44616 0.49727 0.0
H1940 H 0.86553 0.49129 0.45476 0.0
H1941 H 0.87339 0.52224 0.44618 0.0
H1942 H 0.84823 0.54476 0.49036 0.0
H1943 H 0.84042 0.51395 0.49937 0.0
C1944 C 0.77848 0.4379 0.46657 0.0
C1945 C 0.77267 0.42973 0.4817 0.0
C1946 C 0.79553 0.44725 0.46853 0.0
C1947 C 0.80688 0.44873 0.4857 0.0
C1948 C 0.80068 0.44172 0.50122 0.0
C1949 C 0.78381 0.43208 0.49916 0.0
C1950 C 0.82542 0.45641 0.48697 0.0
C1951 C 0.83053 0.47415 0.48263 0.0
C1952 C 0.83807 0.4462 0.49235 0.0
C1953 C 0.83362 0.42722 0.49671 0.0
C1954 C 0.84012 0.42322 0.51459 0.0
C1955 C 0.83575 0.40545 0.51892 0.0
C1956 C 0.82495 0.39151 0.50542 0.0
C1957 C 0.81858 0.39531 0.48752 0.0
C1958 C 0.82294 0.41306 0.48311 0.0
C1959 C 0.90539 0.50111 0.50149 0.0
C1960 C 0.91442 0.49103 0.48987 0.0
C1961 C 0.88779 0.49495 0.50108 0.0
C1962 C 0.87904 0.4786 0.48911 0.0
C1963 C 0.88808 0.46851 0.47763 0.0
C1964 C 0.90557 0.47467 0.47796 0.0
C1965 C 0.86052 0.47163 0.48868 0.0
C1966 C 0.85543 0.45401 0.49325 0.0
C1967 C 0.84794 0.48187 0.48333 0.0
C1968 C 0.85255 0.50036 0.47787 0.0
C1969 C 0.8618 0.50287 0.46275 0.0
C1970 C 0.86622 0.52038 0.45779 0.0
C1971 C 0.86135 0.53547 0.46776 0.0
C1972 C 0.85201 0.53306 0.48267 0.0
C1973 C 0.84758 0.51558 0.4877 0.0
H1974 H 0.86479 0.54901 0.46389 0.0
H1975 H 0.82155 0.37777 0.50882 0.0
H1976 H 0.35562 0.08132 0.25994 0.0
H1977 H 0.34215 0.1083 0.26111 0.0
H1978 H 0.39208 0.14401 0.2749 0.0
H1979 H 0.40553 0.11694 0.2744 0.0
H1980 H 0.37409 0.16177 0.29271 0.0
H1981 H 0.36171 0.13461 0.22731 0.0
H1982 H 0.35128 0.11033 0.19917 0.0
H1983 H 0.30036 0.10324 0.21314 0.0
H1984 H 0.31054 0.12734 0.24151 0.0
H1985 H 0.34018 0.2427 0.27316 0.0
H1986 H 0.35491 0.21651 0.27185 0.0
H1987 H 0.3063 0.17917 0.26621 0.0
H1988 H 0.29162 0.2053 0.26737 0.0
H1989 H 0.32448 0.16312 0.24385 0.0
H1990 H 0.33898 0.19354 0.3094 0.0
H1991 H 0.3507 0.22091 0.33382 0.0
H1992 H 0.40022 0.22423 0.31656 0.0
H1993 H 0.38865 0.19714 0.29162 0.0
C1994 C 0.36384 0.09488 0.2632 0.0
C1995 C 0.38189 0.0965 0.26696 0.0
C1996 C 0.35602 0.1106 0.26369 0.0
C1997 C 0.36578 0.1289 0.26761 0.0
C1998 C 0.38383 0.13048 0.27167 0.0
C1999 C 0.39166 0.11474 0.27134 0.0
C2000 C 0.3573 0.1461 0.26756 0.0
C2001 C 0.36336 0.16191 0.28181 0.0
C2002 C 0.34311 0.14716 0.2536 0.0
C2003 C 0.33693 0.13262 0.23665 0.0
C2004 C 0.34832 0.12777 0.22446 0.0
C2005 C 0.34245 0.11406 0.20846 0.0
C2006 C 0.32518 0.1052 0.20441 0.0
C2007 C 0.31374 0.11008 0.21632 0.0
C2008 C 0.31955 0.12378 0.23236 0.0
C2009 C 0.33256 0.22897 0.27182 0.0
C2010 C 0.31451 0.22659 0.27065 0.0
C2011 C 0.3411 0.21375 0.27107 0.0
C2012 C 0.33204 0.19528 0.26927 0.0
C2013 C 0.31397 0.19292 0.26768 0.0
C2014 C 0.30546 0.20811 0.2684 0.0
C2015 C 0.34111 0.17856 0.26909 0.0
C2016 C 0.33516 0.16286 0.25479 0.0
C2017 C 0.35564 0.17783 0.28272 0.0
C2018 C 0.36287 0.19343 0.29845 0.0
C2019 C 0.35236 0.20012 0.31077 0.0
C2020 C 0.35898 0.21562 0.32473 0.0
C2021 C 0.3762 0.22434 0.32679 0.0
C2022 C 0.38686 0.2175 0.31494 0.0
C2023 C 0.38026 0.20209 0.30084 0.0
H2024 H 0.38128 0.23637 0.33759 0.0
H2025 H 0.32066 0.0946 0.19201 0.0
H2026 H 0.30465 0.0951 0.52645 0.0
H2027 H 0.33256 0.08667 0.52669 0.0
H2028 H 0.3471 0.12793 0.49193 0.0
H2029 H 0.31888 0.1366 0.49159 0.0
H2030 H 0.35643 0.09397 0.48 0.0
H2031 H 0.36396 0.13695 0.5371 0.0
H2032 H 0.3568 0.15118 0.56728 0.0
H2033 H 0.35917 0.10151 0.59074 0.0
H2034 H 0.36608 0.08687 0.56058 0.0
H2035 H 0.44198 0.07525 0.49851 0.0
H2036 H 0.41828 0.09197 0.49594 0.0
H2037 H 0.39282 0.0583 0.53228 0.0
H2038 H 0.41648 0.04191 0.53521 0.0
H2039 H 0.39191 0.09411 0.54247 0.0
H2040 H 0.38062 0.05022 0.48358 0.0
H2041 H 0.38828 0.03623 0.45356 0.0
H2042 H 0.39373 0.08843 0.43372 0.0
H2043 H 0.38631 0.10279 0.46376 0.0
C2044 C 0.31369 0.10245 0.51879 0.0
C2045 C 0.30946 0.11662 0.50905 0.0
C2046 C 0.32973 0.09761 0.51901 0.0
C2047 C 0.34203 0.10679 0.50953 0.0
C2048 C 0.33782 0.1207 0.49941 0.0
C2049 C 0.32171 0.12568 0.49928 0.0
C2050 C 0.35921 0.10168 0.5105 0.0
C2051 C 0.36439 0.09437 0.49363 0.0
C2052 C 0.36955 0.10203 0.52828 0.0
C2053 C 0.36543 0.11077 0.5465 0.0
C2054 C 0.36282 0.12901 0.54863 0.0
C2055 C 0.35883 0.13716 0.56575 0.0
C2056 C 0.3575 0.12725 0.58091 0.0
C2057 C 0.3602 0.10917 0.57898 0.0
C2058 C 0.36417 0.10095 0.56188 0.0
C2059 C 0.43137 0.07148 0.506 0.0
C2060 C 0.43107 0.05706 0.51686 0.0
C2061 C 0.41778 0.08099 0.50444 0.0
C2062 C 0.40366 0.07629 0.51378 0.0
C2063 C 0.40352 0.06216 0.5249 0.0
C2064 C 0.41701 0.05265 0.52639 0.0
C2065 C 0.38885 0.08584 0.51204 0.0
C2066 C 0.38412 0.094 0.52881 0.0
C2067 C 0.379 0.08632 0.49418 0.0
C2068 C 0.3831 0.07761 0.47598 0.0
C2069 C 0.38355 0.05874 0.47285 0.0
C2070 C 0.38784 0.05074 0.45584 0.0
C2071 C 0.39155 0.06145 0.44177 0.0
C2072 C 0.39089 0.08016 0.44465 0.0
C2073 C 0.38663 0.08823 0.46166 0.0
H2074 H 0.3949 0.05524 0.42861 0.0
H2075 H 0.35441 0.13358 0.59415 0.0
H2076 H 0.69477 0.58569 0.29955 0.0
H2077 H 0.71698 0.61226 0.29807 0.0
H2078 H 0.68031 0.64776 0.30279 0.0
H2079 H 0.65792 0.62116 0.30357 0.0
H2080 H 0.6971 0.65557 0.27571 0.0
H2081 H 0.71358 0.64688 0.34034 0.0
H2082 H 0.72153 0.6297 0.3662 0.0
H2083 H 0.76533 0.61899 0.34147 0.0
H2084 H 0.75751 0.63592 0.31531 0.0
H2085 H 0.75367 0.74164 0.29441 0.0
H2086 H 0.73383 0.7142 0.29887 0.0
H2087 H 0.77063 0.68085 0.28537 0.0
H2088 H 0.79048 0.70853 0.2808 0.0
H2089 H 0.75471 0.67138 0.31609 0.0
H2090 H 0.73791 0.68182 0.25184 0.0
H2091 H 0.73055 0.7016 0.22827 0.0
H2092 H 0.68693 0.71062 0.25424 0.0
H2093 H 0.69428 0.69128 0.27829 0.0
C2094 C 0.69149 0.59919 0.30052 0.0
C2095 C 0.67456 0.6013 0.30166 0.0
C2096 C 0.70423 0.6144 0.29972 0.0
C2097 C 0.70039 0.63209 0.30045 0.0
C2098 C 0.6836 0.63427 0.30211 0.0
C2099 C 0.67081 0.61904 0.30264 0.0
C2100 C 0.71361 0.64822 0.29863 0.0
C2101 C 0.70961 0.6591 0.28473 0.0
C2102 C 0.73012 0.65267 0.31005 0.0
C2103 C 0.73485 0.6425 0.32576 0.0
C2104 C 0.72483 0.64074 0.34033 0.0
C2105 C 0.72932 0.63107 0.35506 0.0
C2106 C 0.7439 0.62322 0.35545 0.0
C2107 C 0.75403 0.62506 0.34113 0.0
C2108 C 0.74958 0.6347 0.32636 0.0
C2109 C 0.75732 0.72841 0.29207 0.0
C2110 C 0.77323 0.72702 0.28664 0.0
C2111 C 0.74612 0.71278 0.29483 0.0
C2112 C 0.75063 0.69543 0.29208 0.0
C2113 C 0.76688 0.69411 0.28744 0.0
C2114 C 0.77814 0.70985 0.28477 0.0
C2115 C 0.73805 0.6787 0.2934 0.0
C2116 C 0.7422 0.66771 0.30709 0.0
C2117 C 0.7216 0.67423 0.28194 0.0
C2118 C 0.71669 0.68515 0.26692 0.0
C2119 C 0.72677 0.68804 0.25255 0.0
C2120 C 0.72261 0.69919 0.23911 0.0
C2121 C 0.70826 0.70731 0.23972 0.0
C2122 C 0.69803 0.70429 0.25376 0.0
C2123 C 0.70218 0.69323 0.2673 0.0
H2124 H 0.70508 0.71596 0.22932 0.0
H2125 H 0.74736 0.61574 0.36686 0.0
H2126 H 0.86157 0.48781 0.77365 0.0
H2127 H 0.84482 0.4572 0.77568 0.0
H2128 H 0.88108 0.43131 0.74847 0.0
H2129 H 0.89753 0.46141 0.7463 0.0
H2130 H 0.85089 0.41208 0.73421 0.0
H2131 H 0.87907 0.43559 0.79881 0.0
H2132 H 0.88635 0.4577 0.8289 0.0
H2133 H 0.83308 0.4498 0.83479 0.0
H2134 H 0.82546 0.4278 0.80459 0.0
H2135 H 0.82643 0.31948 0.75164 0.0
H2136 H 0.84092 0.35064 0.74941 0.0
H2137 H 0.80875 0.37322 0.78606 0.0
H2138 H 0.79536 0.34198 0.78954 0.0
H2139 H 0.83559 0.39513 0.79518 0.0
H2140 H 0.80732 0.37097 0.73017 0.0
H2141 H 0.8004 0.35006 0.69922 0.0
H2142 H 0.8537 0.35988 0.69338 0.0
H2143 H 0.86096 0.38063 0.72436 0.0
C2144 C 0.8659 0.47562 0.76794 0.0
C2145 C 0.8811 0.47746 0.7598 0.0
C2146 C 0.85634 0.45795 0.76927 0.0
C2147 C 0.86158 0.44147 0.76244 0.0
C2148 C 0.87649 0.44343 0.75393 0.0
C2149 C 0.88603 0.46092 0.75273 0.0
C2150 C 0.85186 0.42221 0.76393 0.0
C2151 C 0.84768 0.40842 0.74764 0.0
C2152 C 0.84713 0.41704 0.7812 0.0
C2153 C 0.85168 0.43022 0.79934 0.0
C2154 C 0.8689 0.43868 0.80645 0.0
C2155 C 0.87309 0.45117 0.82354 0.0
C2156 C 0.86018 0.4552 0.83372 0.0
C2157 C 0.84306 0.44669 0.82687 0.0
C2158 C 0.8388 0.43421 0.80977 0.0
C2159 C 0.82235 0.33106 0.75916 0.0
C2160 C 0.80952 0.32792 0.77069 0.0
C2161 C 0.8306 0.34916 0.75771 0.0
C2162 C 0.82587 0.365 0.76705 0.0
C2163 C 0.81296 0.36172 0.77855 0.0
C2164 C 0.80512 0.34364 0.78049 0.0
C2165 C 0.83448 0.38476 0.76534 0.0
C2166 C 0.83855 0.3987 0.78164 0.0
C2167 C 0.83907 0.39011 0.748 0.0
C2168 C 0.83469 0.37724 0.72964 0.0
C2169 C 0.81757 0.36854 0.72235 0.0
C2170 C 0.81359 0.35674 0.70479 0.0
C2171 C 0.82662 0.35367 0.69436 0.0
C2172 C 0.84364 0.36228 0.70148 0.0
C2173 C 0.84768 0.37406 0.71902 0.0
H2174 H 0.82357 0.34472 0.6807 0.0
H2175 H 0.86345 0.46487 0.84695 0.0
H2176 H 0.05525 0.86002 0.13717 0.0
H2177 H 0.0511 0.88706 0.12266 0.0
H2178 H 0.05179 0.85705 0.06709 0.0
H2179 H 0.05563 0.82979 0.08151 0.0
H2180 H 0.0695 0.90864 0.10367 0.0
H2181 H 0.02555 0.87146 0.0333 0.0
H2182 H 1.00406 0.84277 0.02137 0.0
H2183 H 0.9925 0.84055 0.07796 0.0
H2184 H 0.01375 0.86934 0.09017 0.0
H2185 H 0.06355 0.9736 0.04081 0.0
H2186 H 0.06708 0.94562 0.05418 0.0
H2187 H 0.01406 0.93587 0.06161 0.0
H2188 H 0.01015 0.96324 0.04759 0.0
H2189 H 0.02196 0.90461 0.05019 0.0
H2190 H 0.04834 0.95594 0.09864 0.0
H2191 H 0.06785 0.98559 0.11209 0.0
H2192 H 0.11134 0.96118 0.10383 0.0
H2193 H 0.09207 0.93142 0.08989 0.0
C2194 C 0.0545 0.85913 0.12185 0.0
C2195 C 0.05568 0.84265 0.11051 0.0
C2196 C 0.0522 0.87467 0.11356 0.0
C2197 C 0.05096 0.87414 0.09372 0.0
C2198 C 0.05241 0.85778 0.08238 0.0
C2199 C 0.05467 0.8422 0.09066 0.0
C2200 C 0.04801 0.89065 0.08497 0.0
C2201 C 0.05913 0.90773 0.09194 0.0
C2202 C 0.03429 0.88967 0.06989 0.0
C2203 C 0.02137 0.87244 0.06266 0.0
C2204 C 0.01838 0.86487 0.04318 0.0
C2205 C 0.00625 0.84859 0.03637 0.0
C2206 C 0.99697 0.83981 0.04891 0.0
C2207 C 0.99975 0.84732 0.06827 0.0
C2208 C 0.01185 0.86361 0.07515 0.0
C2209 C 0.05262 0.96546 0.04521 0.0
C2210 C 0.03657 0.9707 0.04314 0.0
C2211 C 0.05472 0.94957 0.05297 0.0
C2212 C 0.04102 0.93886 0.05934 0.0
C2213 C 0.02489 0.94387 0.05689 0.0
C2214 C 0.02268 0.95957 0.04885 0.0
C2215 C 0.04358 0.92258 0.06872 0.0
C2216 C 0.03239 0.90553 0.06187 0.0
C2217 C 0.05701 0.92372 0.08421 0.0
C2218 C 0.06871 0.94148 0.09299 0.0
C2219 C 0.06205 0.9569 0.09955 0.0
C2220 C 0.07308 0.97373 0.10726 0.0
C2221 C 0.09083 0.97526 0.10876 0.0
C2222 C 0.09759 0.95993 0.10267 0.0
C2223 C 0.08661 0.94309 0.09482 0.0
H2224 H 0.09936 0.98831 0.11468 0.0
H2225 H 0.98759 0.8272 0.04361 0.0
H2226 H 0.96057 0.25207 0.84412 0.0
H2227 H 0.93048 0.25255 0.83368 0.0
H2228 H 0.92114 0.25415 0.89175 0.0
H2229 H 0.9514 0.25312 0.90229 0.0
H2230 H 0.89369 0.23376 0.86738 0.0
H2231 H 0.92769 0.29387 0.87278 0.0
H2232 H 0.95193 0.31725 0.86794 0.0
H2233 H 0.9352 0.30478 0.80726 0.0
H2234 H 0.91099 0.28114 0.81172 0.0
H2235 H 0.82896 0.28861 0.81622 0.0
H2236 H 0.85509 0.28789 0.8382 0.0
H2237 H 0.8511 0.23061 0.81528 0.0
H2238 H 0.82504 0.23124 0.79364 0.0
H2239 H 0.88441 0.28276 0.82889 0.0
H2240 H 0.86976 0.20803 0.847 0.0
H2241 H 0.84528 0.18655 0.85437 0.0
H2242 H 0.82239 0.23207 0.87309 0.0
H2243 H 0.84679 0.25383 0.86604 0.0
C2244 C 0.95209 0.25226 0.85468 0.0
C2245 C 0.95844 0.25275 0.87408 0.0
C2246 C 0.93487 0.25262 0.84869 0.0
C2247 C 0.9236 0.25391 0.86198 0.0
C2248 C 0.92961 0.25331 0.88124 0.0
C2249 C 0.9469 0.2527 0.88724 0.0
C2250 C 0.90591 0.25684 0.85567 0.0
C2251 C 0.89163 0.2445 0.85903 0.0
C2252 C 0.90315 0.27127 0.84534 0.0
C2253 C 0.91757 0.28566 0.84259 0.0
C2254 C 0.92923 0.29605 0.8584 0.0
C2255 C 0.94296 0.30935 0.85572 0.0
C2256 C 0.94512 0.31248 0.8373 0.0
C2257 C 0.93352 0.30234 0.82152 0.0
C2258 C 0.91977 0.28901 0.82412 0.0
C2259 C 0.83351 0.2758 0.81618 0.0
C2260 C 0.82504 0.26001 0.80315 0.0
C2261 C 0.84845 0.2754 0.8287 0.0
C2262 C 0.85508 0.25917 0.82852 0.0
C2263 C 0.84617 0.24323 0.81599 0.0
C2264 C 0.83131 0.24364 0.8035 0.0
C2265 C 0.87213 0.2592 0.83985 0.0
C2266 C 0.88636 0.27213 0.83743 0.0
C2267 C 0.87475 0.2456 0.8514 0.0
C2268 C 0.86009 0.23257 0.85586 0.0
C2269 C 0.85955 0.21347 0.85278 0.0
C2270 C 0.84567 0.20124 0.85687 0.0
C2271 C 0.83227 0.20794 0.86416 0.0
C2272 C 0.83274 0.22689 0.86739 0.0
C2273 C 0.84658 0.23918 0.8633 0.0
H2274 H 0.82154 0.19844 0.86732 0.0
H2275 H 0.95577 0.32278 0.83526 0.0
H2276 H 0.57754 0.21909 0.63343 0.0
H2277 H 0.5729 0.18883 0.61393 0.0
H2278 H 0.53441 0.20378 0.57416 0.0
H2279 H 0.53913 0.23454 0.59371 0.0
H2280 H 0.52467 0.16806 0.58641 0.0
H2281 H 0.57019 0.20128 0.55969 0.0
H2282 H 0.59815 0.22197 0.56122 0.0
H2283 H 0.62375 0.18468 0.58933 0.0
H2284 H 0.59592 0.16386 0.58818 0.0
H2285 H 0.51769 0.08114 0.52862 0.0
H2286 H 0.52048 0.11423 0.53897 0.0
H2287 H 0.56951 0.11592 0.57334 0.0
H2288 H 0.56723 0.08314 0.56193 0.0
H2289 H 0.57219 0.14515 0.55954 0.0
H2290 H 0.52835 0.11454 0.59116 0.0
H2291 H 0.50113 0.09358 0.59233 0.0
H2292 H 0.47321 0.12535 0.55857 0.0
H2293 H 0.50031 0.14639 0.55703 0.0
C2294 C 0.5681 0.21606 0.62051 0.0
C2295 C 0.55868 0.22928 0.61516 0.0
C2296 C 0.56552 0.19872 0.60934 0.0
C2297 C 0.55337 0.19405 0.59255 0.0
C2298 C 0.54387 0.20714 0.58706 0.0
C2299 C 0.54664 0.22471 0.59818 0.0
C2300 C 0.55061 0.17529 0.58118 0.0
C2301 C 0.53491 0.16311 0.58015 0.0
C2302 C 0.56414 0.16871 0.57352 0.0
C2303 C 0.58094 0.18105 0.57394 0.0
C2304 C 0.58177 0.19753 0.56629 0.0
C2305 C 0.5976 0.20928 0.56708 0.0
C2306 C 0.61272 0.20465 0.57539 0.0
C2307 C 0.61204 0.18824 0.58289 0.0
C2308 C 0.59624 0.17644 0.58214 0.0
C2309 C 0.5291 0.08863 0.5383 0.0
C2310 C 0.54221 0.07954 0.54455 0.0
C2311 C 0.53065 0.10756 0.54435 0.0
C2312 C 0.54503 0.11767 0.55738 0.0
C2313 C 0.55826 0.10857 0.56331 0.0
C2314 C 0.55695 0.08978 0.55682 0.0
C2315 C 0.54632 0.13758 0.56513 0.0
C2316 C 0.56179 0.15004 0.56552 0.0
C2317 C 0.53267 0.14431 0.57256 0.0
C2318 C 0.51636 0.13191 0.57382 0.0
C2319 C 0.5164 0.117 0.58393 0.0
C2320 C 0.501 0.10511 0.58466 0.0
C2321 C 0.48546 0.1081 0.57548 0.0
C2322 C 0.48527 0.12304 0.56564 0.0
C2323 C 0.50064 0.13496 0.56485 0.0
H2324 H 0.47355 0.09885 0.57602 0.0
H2325 H 0.62496 0.21377 0.57601 0.0
H2326 H 0.54552 0.74783 0.36384 0.0
H2327 H 0.57183 0.74845 0.35016 0.0
H2328 H 0.6014 0.75663 0.40671 0.0
H2329 H 0.57505 0.75644 0.42056 0.0
H2330 H 0.61718 0.77871 0.38555 0.0
H2331 H 0.59298 0.71438 0.37701 0.0
H2332 H 0.57038 0.68632 0.3671 0.0
H2333 H 0.56664 0.6953 0.30879 0.0
H2334 H 0.58905 0.72356 0.31839 0.0
H2335 H 0.69261 0.7648 0.34702 0.0
H2336 H 0.66854 0.76105 0.36485 0.0
H2337 H 0.63285 0.7528 0.31221 0.0
H2338 H 0.6567 0.75577 0.29431 0.0
H2339 H 0.62164 0.72913 0.33417 0.0
H2340 H 0.64416 0.79481 0.34336 0.0
H2341 H 0.66664 0.82297 0.35336 0.0
H2342 H 0.67363 0.81118 0.41069 0.0
H2343 H 0.65132 0.78282 0.40096 0.0
C2344 C 0.5576 0.74971 0.3734 0.0
C2345 C 0.55816 0.75201 0.39331 0.0
C2346 C 0.57266 0.74997 0.36554 0.0
C2347 C 0.58863 0.75229 0.37736 0.0
C2348 C 0.58925 0.75475 0.39727 0.0
C2349 C 0.57417 0.75459 0.40517 0.0
C2350 C 0.60462 0.75244 0.36886 0.0
C2351 C 0.61827 0.7677 0.37456 0.0
C2352 C 0.60602 0.73823 0.3543 0.0
C2353 C 0.59261 0.72117 0.34845 0.0
C2354 C 0.58726 0.71044 0.36209 0.0
C2355 C 0.57449 0.69449 0.35653 0.0
C2356 C 0.56706 0.68905 0.33733 0.0
C2357 C 0.5724 0.69953 0.32365 0.0
C2358 C 0.58515 0.71551 0.32915 0.0
C2359 C 0.67963 0.76196 0.33922 0.0
C2360 C 0.67664 0.76077 0.31921 0.0
C2361 C 0.66587 0.76 0.34946 0.0
C2362 C 0.64884 0.75692 0.33993 0.0
C2363 C 0.64584 0.75526 0.31994 0.0
C2364 C 0.65954 0.75715 0.30972 0.0
C2365 C 0.63404 0.75557 0.35058 0.0
C2366 C 0.62062 0.74005 0.3453 0.0
C2367 C 0.63287 0.76952 0.36553 0.0
C2368 C 0.64622 0.7866 0.37139 0.0
C2369 C 0.65059 0.79816 0.35807 0.0
C2370 C 0.66328 0.81416 0.36369 0.0
C2371 C 0.6716 0.81883 0.38264 0.0
C2372 C 0.6672 0.80753 0.39601 0.0
C2373 C 0.65453 0.7915 0.39046 0.0
H2374 H 0.68142 0.83123 0.38696 0.0
H2375 H 0.55717 0.6767 0.33306 0.0
H2376 H 1.00432 0.2217 0.38333 0.0
H2377 H 0.99833 0.1963 0.40135 0.0
H2378 H 0.02271 0.23262 0.45362 0.0
H2379 H 0.02894 0.25799 0.43573 0.0
H2380 H 0.0346 0.20113 0.44955 0.0
H2381 H 0.97934 0.21844 0.44383 0.0
H2382 H 0.953 0.22507 0.42648 0.0
H2383 H 0.94036 0.16991 0.39538 0.0
H2384 H 0.96676 0.16302 0.41237 0.0
H2385 H 0.01701 0.14467 0.51568 0.0
H2386 H 0.01332 0.16984 0.4982 0.0
H2387 H 0.9915 0.13088 0.44698 0.0
H2388 H 0.99444 0.10538 0.46462 0.0
H2389 H 0.97721 0.16297 0.44976 0.0
H2390 H 0.03239 0.14589 0.45385 0.0
H2391 H 0.05876 0.13865 0.47046 0.0
H2392 H 0.07177 0.19307 0.50331 0.0
H2393 H 0.0453 0.20053 0.48711 0.0
C2394 C 0.00833 0.22428 0.39867 0.0
C2395 C 0.01719 0.24179 0.40813 0.0
C2396 C 1.00479 0.2098 0.40894 0.0
C2397 C 0.00996 0.21266 0.42881 0.0
C2398 C 0.0186 0.23018 0.43828 0.0
C2399 C 0.02216 0.24463 0.42804 0.0
C2400 C 0.00741 0.19717 0.43963 0.0
C2401 C 0.02202 0.19299 0.44983 0.0
C2402 C 0.99104 0.18618 0.43941 0.0
C2403 C 0.97512 0.19027 0.42924 0.0
C2404 C 0.97102 0.20777 0.43318 0.0
C2405 C 0.95606 0.21157 0.42344 0.0
C2406 C 0.94503 0.19794 0.4098 0.0
C2407 C 0.94892 0.18046 0.40593 0.0
C2408 C 0.96387 0.1766 0.41563 0.0
C2409 C 0.0108 0.14134 0.5009 0.0
C2410 C 0.00625 0.12299 0.49146 0.0
C2411 C 0.00882 0.15578 0.4909 0.0
C2412 C 1.00249 0.15216 0.47126 0.0
C2413 C 0.99653 0.1339 0.46213 0.0
C2414 C 0.99839 0.11938 0.47217 0.0
C2415 C 1.00437 0.1673 0.45994 0.0
C2416 C 0.98974 0.17125 0.44953 0.0
C2417 C 0.02074 0.17807 0.45979 0.0
C2418 C 0.03678 0.1737 0.4694 0.0
C2419 C 0.04081 0.15627 0.46472 0.0
C2420 C 0.05578 0.15213 0.47404 0.0
C2421 C 0.06692 0.16538 0.48796 0.0
C2422 C 0.06312 0.18281 0.49254 0.0
C2423 C 0.04814 0.18701 0.48329 0.0
H2424 H 0.07851 0.16215 0.49517 0.0
H2425 H 0.93346 0.20091 0.40227 0.0
H2426 H 0.5991 0.27359 0.16543 0.0
H2427 H 0.6299 0.27818 0.1766 0.0
H2428 H 0.62106 0.28302 0.23497 0.0
H2429 H 0.59003 0.27818 0.22393 0.0
H2430 H 0.65196 0.30907 0.22519 0.0
H2431 H 0.62371 0.24411 0.21896 0.0
H2432 H 0.60453 0.21597 0.20051 0.0
H2433 H 0.63598 0.21683 0.1565 0.0
H2434 H 0.65517 0.24508 0.17456 0.0
H2435 H 0.72799 0.28996 0.27187 0.0
H2436 H 0.69863 0.29203 0.26011 0.0
H2437 H 0.70301 0.26553 0.20408 0.0
H2438 H 0.73216 0.26227 0.21623 0.0
H2439 H 0.67418 0.25162 0.21149 0.0
H2440 H 0.70315 0.31367 0.21555 0.0
H2441 H 0.72261 0.34299 0.23046 0.0
H2442 H 0.6912 0.34969 0.27387 0.0
H2443 H 0.6716 0.32027 0.25935 0.0
C2444 C 0.60369 0.27595 0.18067 0.0
C2445 C 0.59216 0.27528 0.19383 0.0
C2446 C 0.62127 0.27861 0.18699 0.0
C2447 C 0.6276 0.2808 0.20653 0.0
C2448 C 0.61629 0.28138 0.21981 0.0
C2449 C 0.59862 0.27852 0.21349 0.0
C2450 C 0.64572 0.28036 0.21285 0.0
C2451 C 0.65688 0.29652 0.22246 0.0
C2452 C 0.65206 0.2641 0.20855 0.0
C2453 C 0.64078 0.24678 0.19802 0.0
C2454 C 0.62647 0.23834 0.20529 0.0
C2455 C 0.61559 0.22235 0.19492 0.0
C2456 C 0.619 0.21461 0.17732 0.0
C2457 C 0.63332 0.2228 0.17012 0.0
C2458 C 0.64422 0.23878 0.18043 0.0
C2459 C 0.72272 0.28461 0.25702 0.0
C2460 C 0.7323 0.27591 0.24494 0.0
C2461 C 0.70597 0.28596 0.25026 0.0
C2462 C 0.69869 0.27928 0.23109 0.0
C2463 C 0.70836 0.2708 0.21892 0.0
C2464 C 0.725 0.26898 0.22584 0.0
C2465 C 0.68072 0.28039 0.22405 0.0
C2466 C 0.66947 0.26429 0.21427 0.0
C2467 C 0.67443 0.29686 0.22779 0.0
C2468 C 0.68598 0.31469 0.23644 0.0
C2469 C 0.70044 0.32133 0.22834 0.0
C2470 C 0.7115 0.33794 0.23673 0.0
C2471 C 0.70817 0.34808 0.25314 0.0
C2472 C 0.69377 0.34172 0.2612 0.0
C2473 C 0.68265 0.32511 0.25286 0.0
H2474 H 0.7166 0.36103 0.25941 0.0
H2475 H 0.61054 0.20226 0.16928 0.0
H2476 H 0.54804 0.86355 0.90845 0.0
H2477 H 0.54819 0.88815 0.93469 0.0
H2478 H 0.50451 0.85487 0.9513 0.0
H2479 H 0.50504 0.82991 0.92589 0.0
H2480 H 0.5269 0.90792 0.93955 0.0
H2481 H 0.50146 0.86694 0.99734 0.0
H2482 H 0.50397 0.83801 0.00956 0.0
H2483 H 0.55212 0.83875 0.9895 0.0
H2484 H 0.55002 0.86779 0.97738 0.0
H2485 H 0.5034 0.97339 1.00212 0.0
H2486 H 0.5 0.94309 0.98267 0.0
H2487 H 0.54149 0.93114 0.02102 0.0
H2488 H 0.54435 0.96104 0.04085 0.0
H2489 H 0.52077 0.90046 0.00629 0.0
H2490 H 0.54919 0.95188 0.98215 0.0
H2491 H 0.55336 0.98196 0.97129 0.0
H2492 H 0.50986 0.96231 0.9267 0.0
H2493 H 0.50538 0.93196 0.93738 0.0
C2494 C 0.53865 0.86145 0.91791 0.0
C2495 C 0.52656 0.84489 0.91523 0.0
C2496 C 0.53871 0.87549 0.93286 0.0
C2497 C 0.52644 0.87334 0.9451 0.0
C2498 C 0.51439 0.85672 0.94242 0.0
C2499 C 0.51463 0.84251 0.9278 0.0
C2500 C 0.5255 0.88893 0.95977 0.0
C2501 C 0.52558 0.90621 0.95413 0.0
C2502 C 0.52405 0.88687 0.97892 0.0
C2503 C 0.52548 0.86945 0.98627 0.0
C2504 C 0.51261 0.86096 0.99559 0.0
C2505 C 0.51396 0.84454 1.00249 0.0
C2506 C 0.52816 0.83651 1.00025 0.0
C2507 C 0.54109 0.84493 0.99116 0.0
C2508 C 0.53981 0.86136 0.98424 0.0
C2509 C 0.51144 0.96408 0.00661 0.0
C2510 C 0.52432 0.96961 0.02268 0.0
C2511 C 0.50952 0.9468 0.99553 0.0
C2512 C 0.52087 0.93512 1.00008 0.0
C2513 C 0.53266 0.93996 0.01717 0.0
C2514 C 0.5343 0.95707 0.02848 0.0
C2515 C 0.52208 0.91926 0.98593 0.0
C2516 C 0.52199 0.902 0.99165 0.0
C2517 C 0.5244 0.92148 0.96705 0.0
C2518 C 0.52682 0.93975 0.96072 0.0
C2519 C 0.54038 0.95404 0.97018 0.0
C2520 C 0.5428 0.97116 0.96404 0.0
C2521 C 0.5318 0.97416 0.9484 0.0
C2522 C 0.51835 0.95999 0.93884 0.0
C2523 C 0.51587 0.94281 0.94491 0.0
H2524 H 0.53374 0.9874 0.94361 0.0
H2525 H 0.52918 0.82379 0.0056 0.0
H2526 H 0.98688 0.72601 0.68861 0.0
H2527 H 0.96067 0.72731 0.70193 0.0
H2528 H 0.98676 0.72294 0.75741 0.0
H2529 H 0.01319 0.72139 0.74406 0.0
H2530 H 0.94698 0.70648 0.74615 0.0
H2531 H 0.99133 0.76239 0.75293 0.0
H2532 H 0.01273 0.7831 0.73985 0.0
H2533 H 0.97316 0.79061 0.69653 0.0
H2534 H 0.95158 0.76966 0.70916 0.0
H2535 H 0.89592 0.76135 0.79607 0.0
H2536 H 0.91932 0.747 0.78641 0.0
H2537 H 0.90875 0.76139 0.73017 0.0
H2538 H 0.88581 0.7761 0.73983 0.0
H2539 H 0.94198 0.77166 0.7451 0.0
H2540 H 0.89745 0.71758 0.73745 0.0
H2541 H 0.87517 0.69548 0.74772 0.0
H2542 H 0.91309 0.68351 0.79005 0.0
H2543 H 0.9356 0.70575 0.78023 0.0
C2544 C 0.9869 0.72469 0.70351 0.0
C2545 C 1.00212 0.72404 0.71543 0.0
C2546 C 0.97189 0.72527 0.71104 0.0
C2547 C 0.97194 0.72545 0.73064 0.0
C2548 C 0.98654 0.72273 0.74221 0.0
C2549 C 1.00162 0.72196 0.7346 0.0
C2550 C 0.95836 0.73265 0.7393 0.0
C2551 C 0.94596 0.72077 0.7463 0.0
C2552 C 0.95701 0.75123 0.73907 0.0
C2553 C 0.96988 0.76434 0.73189 0.0
C2554 C 0.98722 0.76837 0.74055 0.0
C2555 C 0.99938 0.78016 0.73322 0.0
C2556 C 0.99432 0.78814 0.71734 0.0
C2557 C 0.97707 0.78441 0.70882 0.0
C2558 C 0.96487 0.77259 0.71606 0.0
C2559 C 0.89869 0.7615 0.78169 0.0
C2560 C 0.88912 0.76986 0.76869 0.0
C2561 C 0.91188 0.75313 0.77614 0.0
C2562 C 0.91562 0.75303 0.75755 0.0
C2563 C 0.90599 0.76127 0.74456 0.0
C2564 C 0.89287 0.76961 0.75007 0.0
C2565 C 0.93026 0.74547 0.75177 0.0
C2566 C 0.94299 0.75739 0.7453 0.0
C2567 C 0.93171 0.72693 0.75237 0.0
C2568 C 0.91818 0.71354 0.75828 0.0
C2569 C 0.90102 0.71038 0.74908 0.0
C2570 C 0.88835 0.6978 0.75479 0.0
C2571 C 0.89271 0.68818 0.76959 0.0
C2572 C 0.90974 0.69103 0.77863 0.0
C2573 C 0.92246 0.70362 0.77299 0.0
H2574 H 0.8829 0.6785 0.77404 0.0
H2575 H 1.00375 0.79722 0.71166 0.0
H2576 H 0.13135 0.03802 0.8602 0.0
H2577 H 0.12169 0.03179 0.89011 0.0
H2578 H 0.07653 0.05395 0.87469 0.0
H2579 H 0.08638 0.0608 0.8452 0.0
H2580 H 0.08837 0.06521 0.91053 0.0
H2581 H 0.07657 1.0061 0.86949 0.0
H2582 H 0.08398 0.9804 0.84906 0.0
H2583 H 0.11941 0.9719 0.89611 0.0
H2584 H 0.11234 0.99771 0.91677 0.0
H2585 H 0.03003 0.02627 0.96594 0.0
H2586 H 0.04514 0.03373 0.9396 0.0
H2587 H 0.08862 0.01358 0.96513 0.0
H2588 H 0.07319 1.00571 0.99138 0.0
H2589 H 0.08118 1.00209 0.92685 0.0
H2590 H 0.08868 0.05947 0.96889 0.0
H2591 H 0.07989 0.08497 0.98818 0.0
H2592 H 0.05095 0.09662 0.93782 0.0
H2593 H 0.05906 0.07084 0.91832 0.0
C2594 C 0.11941 0.04167 0.86325 0.0
C2595 C 0.10961 0.04986 0.85028 0.0
C2596 C 0.11386 0.03799 0.88031 0.0
C2597 C 0.09823 0.04211 0.88454 0.0
C2598 C 0.08863 0.05063 0.87177 0.0
C2599 C 0.09428 0.05453 0.85487 0.0
C2600 C 0.09165 0.03748 0.90211 0.0
C2601 C 0.08665 0.05136 0.914 0.0
C2602 C 0.08988 0.01953 0.90698 0.0
C2603 C 0.09407 1.00397 0.8946 0.0
C2604 C 0.08603 0.99883 0.87544 0.0
C2605 C 0.09015 0.98423 0.86383 0.0
C2606 C 0.1022 0.97456 0.87127 0.0
C2607 C 0.11011 0.97943 0.89036 0.0
C2608 C 0.10604 0.99403 0.90203 0.0
C2609 C 0.04278 0.02336 0.9658 0.0
C2610 C 0.05056 0.01548 0.98053 0.0
C2611 C 0.05144 0.02772 0.95087 0.0
C2612 C 0.06813 0.02451 0.95057 0.0
C2613 C 0.07579 0.01626 0.96516 0.0
C2614 C 0.06705 0.01182 0.98011 0.0
C2615 C 0.07743 0.02971 0.93492 0.0
C2616 C 0.08303 0.01597 0.92347 0.0
C2617 C 0.07953 0.04775 0.93029 0.0
C2618 C 0.07442 0.06312 0.94214 0.0
C2619 C 0.08028 0.06732 0.96195 0.0
C2620 C 0.0754 0.08183 0.97294 0.0
C2621 C 0.06487 0.09239 0.96423 0.0
C2622 C 0.05908 0.0884 0.94455 0.0
C2623 C 0.06379 0.07383 0.93354 0.0
H2624 H 0.06124 0.10373 0.97269 0.0
H2625 H 0.10539 0.96326 0.86226 0.0
H2626 H 0.76364 0.38034 0.55806 0.0
H2627 H 0.7797 0.36662 0.58187 0.0
H2628 H 0.77527 0.31777 0.54041 0.0
H2629 H 0.75867 0.33118 0.51672 0.0
H2630 H 0.76693 0.30836 0.57157 0.0
H2631 H 0.8145 0.34774 0.55688 0.0
H2632 H 0.8315 0.37646 0.55044 0.0
H2633 H 0.83206 0.40256 0.60775 0.0
H2634 H 0.81485 0.37402 0.61448 0.0
H2635 H 0.81335 0.27193 0.64305 0.0
H2636 H 0.81163 0.2863 0.61419 0.0
H2637 H 0.79718 0.33315 0.64511 0.0
H2638 H 0.79812 0.31857 0.67369 0.0
H2639 H 0.81989 0.34103 0.61587 0.0
H2640 H 0.76638 0.30221 0.62595 0.0
H2641 H 0.75011 0.27274 0.63177 0.0
H2642 H 0.76264 0.24467 0.58081 0.0
H2643 H 0.77923 0.27397 0.57489 0.0
C2644 C 0.7662 0.36673 0.554 0.0
C2645 C 0.75982 0.35676 0.53562 0.0
C2646 C 0.77552 0.35898 0.56754 0.0
C2647 C 0.77891 0.34128 0.56282 0.0
C2648 C 0.77284 0.33146 0.54433 0.0
C2649 C 0.76333 0.33912 0.53085 0.0
C2650 C 0.78739 0.33243 0.57771 0.0
C2651 C 0.77877 0.31532 0.58089 0.0
C2652 C 0.80278 0.34154 0.58999 0.0
C2653 C 0.81328 0.35874 0.58615 0.0
C2654 C 0.81815 0.35963 0.56809 0.0
C2655 C 0.82784 0.37589 0.56438 0.0
C2656 C 0.83283 0.39136 0.57866 0.0
C2657 C 0.82818 0.39057 0.5967 0.0
C2658 C 0.81848 0.37434 0.60048 0.0
C2659 C 0.81008 0.28542 0.64374 0.0
C2660 C 0.80577 0.29412 0.66055 0.0
C2661 C 0.80931 0.29367 0.62735 0.0
C2662 C 0.80432 0.31074 0.62765 0.0
C2663 C 0.80127 0.32006 0.64475 0.0
C2664 C 0.80182 0.31172 0.66105 0.0
C2665 C 0.79921 0.31732 0.60968 0.0
C2666 C 0.80837 0.33397 0.60608 0.0
C2667 C 0.78446 0.30771 0.59677 0.0
C2668 C 0.77419 0.2902 0.60011 0.0
C2669 C 0.76576 0.28973 0.61608 0.0
C2670 C 0.75648 0.27306 0.61938 0.0
C2671 C 0.75538 0.25683 0.6067 0.0
C2672 C 0.76353 0.25724 0.59064 0.0
C2673 C 0.77287 0.27387 0.58731 0.0
H2674 H 0.74819 0.24394 0.60928 0.0
H2675 H 0.84032 0.40394 0.57575 0.0
H2676 H 0.47092 0.04061 0.32135 0.0
H2677 H 0.48375 0.03992 0.35399 0.0
H2678 H 0.43442 0.03836 0.37186 0.0
H2679 H 0.42153 0.03984 0.33883 0.0
H2680 H 0.45777 0.05658 0.40108 0.0
H2681 H 0.45331 0.99821 0.36364 0.0
H2682 H 0.45628 0.97578 0.33637 0.0
H2683 H 0.51114 0.99325 0.34881 0.0
H2684 H 0.5085 0.01597 0.37601 0.0
H2685 H 0.49599 0.02756 0.48914 0.0
H2686 H 0.47714 0.0294 0.45936 0.0
H2687 H 0.52091 0.03491 0.43015 0.0
H2688 H 0.53936 0.03284 0.4593 0.0
H2689 H 0.49619 0.01191 0.40771 0.0
H2690 H 0.49887 0.07171 0.44569 0.0
H2691 H 0.49411 0.09214 0.47362 0.0
H2692 H 0.44007 0.06898 0.4611 0.0
H2693 H 0.44456 0.04818 0.43328 0.0
C2694 C 0.46272 0.04041 0.33219 0.0
C2695 C 0.44506 0.0403 0.3271 0.0
C2696 C 0.47012 0.03978 0.35106 0.0
C2697 C 0.46017 0.03843 0.36581 0.0
C2698 C 0.4426 0.03921 0.36103 0.0
C2699 C 0.43517 0.04015 0.34201 0.0
C2700 C 0.46823 0.03562 0.38566 0.0
C2701 C 0.46597 0.0466 0.40244 0.0
C2702 C 0.47901 0.02259 0.38808 0.0
C2703 C 0.48069 0.0089 0.37178 0.0
C2704 C 0.46601 0.99735 0.36049 0.0
C2705 C 0.46763 0.98458 0.34505 0.0
C2706 C 0.48388 0.98312 0.34083 0.0
C2707 C 0.49855 0.99441 0.35208 0.0
C2708 C 0.497 0.00722 0.36753 0.0
C2709 C 0.50156 0.02911 0.47636 0.0
C2710 C 0.51936 0.02993 0.47688 0.0
C2711 C 0.49074 0.03031 0.45921 0.0
C2712 C 0.49738 0.0324 0.44204 0.0
C2713 C 0.51513 0.03323 0.4428 0.0
C2714 C 0.52581 0.03209 0.45974 0.0
C2715 C 0.48633 0.03335 0.42308 0.0
C2716 C 0.48797 0.02189 0.40639 0.0
C2717 C 0.47478 0.04566 0.4209 0.0
C2718 C 0.47209 0.05825 0.43753 0.0
C2719 C 0.486 0.07088 0.44898 0.0
C2720 C 0.48335 0.08253 0.46479 0.0
C2721 C 0.46681 0.08182 0.46917 0.0
C2722 C 0.45288 0.06948 0.45773 0.0
C2723 C 0.45547 0.05776 0.44194 0.0
H2724 H 0.4648 0.09089 0.48139 0.0
H2725 H 0.48511 0.97323 0.32887 0.0
H2726 H 0.76779 0.69802 0.05662 0.0
H2727 H 0.77011 0.71628 0.08832 0.0
H2728 H 0.7726 0.66759 0.11415 0.0
H2729 H 0.76967 0.64932 0.0827 0.0
H2730 H 0.75198 0.68443 0.12979 0.0
H2731 H 0.80868 0.70339 0.11536 0.0
H2732 H 0.8302 0.71611 0.09652 0.0
H2733 H 0.81249 0.76721 0.10147 0.0
H2734 H 0.79073 0.75471 0.12016 0.0
H2735 H 0.80525 0.74939 0.22052 0.0
H2736 H 0.80289 0.73411 0.1877 0.0
H2737 H 0.7486 0.73407 0.17825 0.0
H2738 H 0.75075 0.74879 0.21129 0.0
H2739 H 0.7947 0.74236 0.15412 0.0
H2740 H 0.72714 0.69653 0.14686 0.0
H2741 H 0.70819 0.68164 0.16719 0.0
H2742 H 0.75211 0.6803 0.20817 0.0
H2743 H 0.77134 0.69494 0.18797 0.0
C2744 C 0.76896 0.69128 0.06909 0.0
C2745 C 0.76849 0.67221 0.06712 0.0
C2746 C 0.77033 0.70173 0.08723 0.0
C2747 C 0.7716 0.69336 0.10373 0.0
C2748 C 0.77148 0.67439 0.10171 0.0
C2749 C 0.76987 0.66395 0.08366 0.0
C2750 C 0.77265 0.70403 0.12315 0.0
C2751 C 0.76131 0.69713 0.13504 0.0
C2752 C 0.78491 0.72052 0.13022 0.0
C2753 C 0.79796 0.72805 0.11897 0.0
C2754 C 0.80929 0.71729 0.1123 0.0
C2755 C 0.82155 0.72447 0.10167 0.0
C2756 C 0.82268 0.74244 0.09775 0.0
C2757 C 0.81158 0.75329 0.10449 0.0
C2758 C 0.79929 0.74617 0.11511 0.0
C2759 C 0.79279 0.74615 0.21149 0.0
C2760 C 0.77815 0.75019 0.21864 0.0
C2761 C 0.79147 0.73746 0.19265 0.0
C2762 C 0.77554 0.7327 0.18049 0.0
C2763 C 0.76099 0.73723 0.18743 0.0
C2764 C 0.76225 0.74571 0.20635 0.0
C2765 C 0.77414 0.72264 0.16075 0.0
C2766 C 0.78532 0.72971 0.14879 0.0
C2767 C 0.76208 0.70599 0.15379 0.0
C2768 C 0.75066 0.69701 0.16599 0.0
C2769 C 0.73275 0.693 0.16018 0.0
C2770 C 0.72196 0.6846 0.17168 0.0
C2771 C 0.72894 0.68005 0.18897 0.0
C2772 C 0.74673 0.68386 0.19479 0.0
C2773 C 0.75758 0.69223 0.18333 0.0
H2774 H 0.72057 0.67357 0.19785 0.0
H2775 H 0.83217 0.74797 0.08952 0.0
H2776 H 0.13425 0.02742 0.72602 0.0
H2777 H 0.11935 0.02151 0.69305 0.0
H2778 H 0.07206 0.02823 0.71285 0.0
H2779 H 0.0869 0.03413 0.74601 0.0
H2780 H 0.09089 0.99543 0.673 0.0
H2781 H 0.05293 0.05329 0.6818 0.0
H2782 H 0.05425 0.08264 0.70288 0.0
H2783 H 0.10924 0.09071 0.71479 0.0
H2784 H 0.10824 0.06156 0.69359 0.0
H2785 H 0.03881 0.99319 0.58286 0.0
H2786 H 0.048 0.99372 0.61699 0.0
H2787 H 0.08324 0.04534 0.61978 0.0
H2788 H 0.07351 0.0453 0.58598 0.0
H2789 H 0.06787 0.04705 0.64919 0.0
H2790 H 0.0952 1.00118 0.61708 0.0
H2791 H 0.09427 0.97254 0.59505 0.0
H2792 H 0.06317 0.94149 0.62868 0.0
H2793 H 0.06366 0.97 0.65071 0.0
C2794 C 0.12065 0.02752 0.72339 0.0
C2795 C 0.11176 0.03139 0.73858 0.0
C2796 C 0.11214 0.024 0.70455 0.0
C2797 C 0.09465 0.02449 0.70055 0.0
C2798 C 0.0856 0.02786 0.71569 0.0
C2799 C 0.09408 0.03124 0.73458 0.0
C2800 C 0.08632 0.02282 0.68049 0.0
C2801 C 0.08574 1.00664 0.66777 0.0
C2802 C 0.07969 0.03748 0.67372 0.0
C2803 C 0.08047 0.05514 0.68631 0.0
C2804 C 0.06529 0.06136 0.68889 0.0
C2805 C 0.06599 0.07796 0.70085 0.0
C2806 C 0.08181 0.08849 0.71023 0.0
C2807 C 0.09698 0.0825 0.70759 0.0
C2808 C 0.09636 0.06593 0.69562 0.0
C2809 C 0.04853 1.00463 0.59079 0.0
C2810 C 0.05549 0.0192 0.58181 0.0
C2811 C 0.0538 1.00489 0.61027 0.0
C2812 C 0.06646 0.01947 0.62093 0.0
C2813 C 0.07341 0.03399 0.61189 0.0
C2814 C 0.0679 0.03392 0.59256 0.0
C2815 C 0.07268 0.01977 0.64147 0.0
C2816 C 0.0728 0.0357 0.65437 0.0
C2817 C 0.07907 1.00494 0.6483 0.0
C2818 C 0.07934 0.98774 0.63544 0.0
C2819 C 0.08812 0.98825 0.61973 0.0
C2820 C 0.08764 0.97204 0.60723 0.0
C2821 C 0.07859 0.95522 0.6104 0.0
C2822 C 0.07011 0.95454 0.62619 0.0
C2823 C 0.0705 0.97071 0.63869 0.0
H2824 H 0.07817 0.9427 0.60067 0.0
H2825 H 0.08232 0.10133 0.71949 0.0
H2826 H 0.70501 0.35545 0.40855 0.0
H2827 H 0.70925 0.33229 0.38288 0.0
H2828 H 0.73766 0.30741 0.42431 0.0
H2829 H 0.73342 0.33015 0.44991 0.0
H2830 H 0.75557 0.31897 0.39556 0.0
H2831 H 0.70161 0.28347 0.4026 0.0
H2832 H 0.67067 0.27762 0.4043 0.0
H2833 H 0.65944 0.28851 0.347 0.0
H2834 H 0.69037 0.2947 0.34506 0.0
H2835 H 0.77813 0.25447 0.32841 0.0
H2836 H 0.76677 0.26712 0.35621 0.0
H2837 H 0.72555 0.2806 0.31857 0.0
H2838 H 0.73582 0.26582 0.29101 0.0
H2839 H 0.71356 0.27326 0.34723 0.0
H2840 H 0.76761 0.31175 0.34128 0.0
H2841 H 0.79877 0.31951 0.3403 0.0
H2842 H 0.80985 0.30459 0.39581 0.0
H2843 H 0.77886 0.2968 0.39713 0.0
C2844 C 0.71186 0.34483 0.41221 0.0
C2845 C 0.71907 0.34481 0.43124 0.0
C2846 C 0.7142 0.33159 0.39756 0.0
C2847 C 0.7238 0.31823 0.40179 0.0
C2848 C 0.73024 0.31764 0.42082 0.0
C2849 C 0.72782 0.33071 0.43541 0.0
C2850 C 0.72894 0.30629 0.38637 0.0
C2851 C 0.74644 0.30877 0.3851 0.0
C2852 C 0.71692 0.29336 0.37261 0.0
C2853 C 0.69833 0.28974 0.37376 0.0
C2854 C 0.69257 0.28481 0.39043 0.0
C2855 C 0.67502 0.28138 0.39142 0.0
C2856 C 0.6631 0.28274 0.37579 0.0
C2857 C 0.6687 0.28749 0.35912 0.0
C2858 C 0.68623 0.29094 0.35805 0.0
C2859 C 0.76642 0.25977 0.32624 0.0
C2860 C 0.75783 0.25937 0.30777 0.0
C2861 C 0.76005 0.26725 0.34206 0.0
C2862 C 0.74566 0.27555 0.33957 0.0
C2863 C 0.73672 0.27443 0.32099 0.0
C2864 C 0.74261 0.26609 0.30522 0.0
C2865 C 0.74032 0.2861 0.35608 0.0
C2866 C 0.72277 0.28341 0.35764 0.0
C2867 C 0.75231 0.29905 0.37009 0.0
C2868 C 0.77094 0.30356 0.36919 0.0
C2869 C 0.77673 0.31008 0.35321 0.0
C2870 C 0.79433 0.31448 0.35259 0.0
C2871 C 0.80625 0.31245 0.36792 0.0
C2872 C 0.80061 0.30611 0.38393 0.0
C2873 C 0.78304 0.30174 0.38463 0.0
H2874 H 0.81985 0.31585 0.3674 0.0
H2875 H 0.64952 0.28007 0.37658 0.0
H2876 H 0.4598 0.04074 0.22711 0.0
H2877 H 0.47446 0.03724 0.1994 0.0
H2878 H 0.42722 0.03583 0.16203 0.0
H2879 H 0.41238 0.0386 0.18981 0.0
H2880 H 0.44168 0.01351 0.14376 0.0
H2881 H 0.46549 0.07526 0.17476 0.0
H2882 H 0.47985 0.10011 0.20126 0.0
H2883 H 0.52438 0.07557 0.20699 0.0
H2884 H 0.5102 0.05045 0.18066 0.0
H2885 H 0.48277 0.02484 0.06106 0.0
H2886 H 0.46723 0.02824 0.08807 0.0
H2887 H 0.51333 0.02847 0.12684 0.0
H2888 H 0.529 0.02575 0.09987 0.0
H2889 H 0.49894 0.05175 0.14393 0.0
H2890 H 0.47412 0.9896 0.11219 0.0
H2891 H 0.45951 0.96602 0.08461 0.0
H2892 H 0.41641 0.99283 0.07926 0.0
H2893 H 0.43083 0.01667 0.1067 0.0
C2894 C 0.45245 0.03976 0.21303 0.0
C2895 C 0.43474 0.04012 0.21109 0.0
C2896 C 0.46098 0.03788 0.19695 0.0
C2897 C 0.45235 0.03663 0.17804 0.0
C2898 C 0.43456 0.03679 0.17611 0.0
C2899 C 0.42598 0.03847 0.19221 0.0
C2900 C 0.46168 0.03501 0.16052 0.0
C2901 C 0.45411 0.02213 0.14389 0.0
C2902 C 0.47816 0.04582 0.16005 0.0
C2903 C 0.48672 0.06088 0.17587 0.0
C2904 C 0.4783 0.0751 0.18176 0.0
C2905 C 0.48641 0.08924 0.19674 0.0
C2906 C 0.503 0.08939 0.20584 0.0
C2907 C 0.51153 0.07542 0.19994 0.0
C2908 C 0.50346 0.06123 0.18499 0.0
C2909 C 0.48967 0.02549 0.07527 0.0
C2910 C 0.50734 0.02484 0.07784 0.0
C2911 C 0.48063 0.02734 0.09096 0.0
C2912 C 0.4887 0.0283 0.11006 0.0
C2913 C 0.5064 0.02777 0.1126 0.0
C2914 C 0.51547 0.0261 0.09693 0.0
C2915 C 0.47904 0.03014 0.12727 0.0
C2916 C 0.48654 0.0431 0.14384 0.0
C2917 C 0.46244 0.01952 0.1276 0.0
C2918 C 0.45361 1.00499 0.11139 0.0
C2919 C 0.46154 0.99049 0.10509 0.0
C2920 C 0.4533 0.97708 0.08949 0.0
C2921 C 0.43706 0.97795 0.08016 0.0
C2922 C 0.42899 0.99218 0.08648 0.0
C2923 C 0.43718 1.00563 0.10208 0.0
H2924 H 0.43072 0.96759 0.06805 0.0
H2925 H 0.50926 0.10035 0.21743 0.0
H2926 H 0.76331 0.70966 0.96898 0.0
H2927 H 0.76529 0.72752 0.94271 0.0
H2928 H 0.78235 0.68361 0.90994 0.0
H2929 H 0.78027 0.66561 0.93606 0.0
H2930 H 0.80158 0.7185 0.90879 0.0
H2931 H 0.74196 0.6882 0.89994 0.0
H2932 H 0.71366 0.67997 0.90979 0.0
H2933 H 0.71058 0.73715 0.91981 0.0
H2934 H 0.739 0.74573 0.91026 0.0
H2935 H 0.78443 0.7363 0.81373 0.0
H2936 H 0.78165 0.72169 0.84212 0.0
H2937 H 0.77291 0.77209 0.87244 0.0
H2938 H 0.77636 0.78709 0.84418 0.0
H2939 H 0.74978 0.73634 0.87628 0.0
H2940 H 0.80781 0.76706 0.88353 0.0
H2941 H 0.83627 0.77644 0.87458 0.0
H2942 H 0.84343 0.72059 0.86989 0.0
H2943 H 0.81459 0.71064 0.878 0.0
C2944 C 0.76756 0.70383 0.95622 0.0
C2945 C 0.77159 0.68617 0.95462 0.0
C2946 C 0.76863 0.71404 0.94118 0.0
C2947 C 0.77385 0.70686 0.92427 0.0
C2948 C 0.77828 0.68943 0.92283 0.0
C2949 C 0.77704 0.67914 0.93776 0.0
C2950 C 0.77449 0.71736 0.90796 0.0
C2951 C 0.79022 0.72221 0.90155 0.0
C2952 C 0.75978 0.72277 0.8989 0.0
C2953 C 0.74269 0.71762 0.9046 0.0
C2954 C 0.73532 0.69903 0.9044 0.0
C2955 C 0.71924 0.6943 0.9099 0.0
C2956 C 0.71035 0.70803 0.91548 0.0
C2957 C 0.71749 0.72652 0.91552 0.0
C2958 C 0.73358 0.73133 0.91006 0.0
C2959 C 0.78172 0.74424 0.82636 0.0
C2960 C 0.78066 0.76288 0.82678 0.0
C2961 C 0.78019 0.73588 0.84259 0.0
C2962 C 0.77719 0.74584 0.85942 0.0
C2963 C 0.77526 0.76418 0.85959 0.0
C2964 C 0.77723 0.77272 0.84348 0.0
C2965 C 0.77681 0.73719 0.87696 0.0
C2966 C 0.76115 0.73268 0.88358 0.0
C2967 C 0.79163 0.73226 0.88634 0.0
C2968 C 0.80883 0.73803 0.88099 0.0
C2969 C 0.81524 0.75667 0.88016 0.0
C2970 C 0.83147 0.76209 0.87527 0.0
C2971 C 0.84156 0.74906 0.87146 0.0
C2972 C 0.83546 0.73059 0.8726 0.0
C2973 C 0.81916 0.72504 0.8773 0.0
H2974 H 0.85416 0.7533 0.86777 0.0
H2975 H 0.6979 0.70434 0.91973 0.0
H2976 H 0.86962 0.15808 0.00774 0.0
H2977 H 0.8857 0.14501 0.98446 0.0
H2978 H 0.90816 0.11626 0.0266 0.0
H2979 H 0.8922 0.12911 0.0499 0.0
H2980 H 0.92184 0.14113 0.98287 0.0
H2981 H 0.89717 0.07169 0.00689 0.0
H2982 H 0.87255 0.05717 0.02062 0.0
H2983 H 0.84124 0.09128 0.995 0.0
H2984 H 0.86559 0.10577 0.98085 0.0
H2985 H 0.97059 0.07445 0.98089 0.0
H2986 H 0.95491 0.09932 0.98072 0.0
H2987 H 0.9131 0.06345 0.94119 0.0
H2988 H 0.92904 0.03833 0.94154 0.0
H2989 H 0.90267 0.07313 0.97197 0.0
H2990 H 0.93069 0.10801 0.93176 0.0
H2991 H 0.95311 0.12427 0.91618 0.0
H2992 H 0.97569 0.15923 0.9694 0.0
H2993 H 0.95351 0.14312 0.98537 0.0
C2994 C 0.87835 0.14938 0.01222 0.0
C2995 C 0.87938 0.14432 0.03056 0.0
C2996 C 0.88755 0.142 0.99891 0.0
C2997 C 0.89783 0.12949 0.00379 0.0
C2998 C 0.90011 0.12579 0.02258 0.0
C2999 C 0.89095 0.13311 0.03586 0.0
C3000 C 0.90426 0.11818 0.98896 0.0
C3001 C 0.91769 0.12626 0.98026 0.0
C3002 C 0.8981 0.09893 0.98489 0.0
C3003 C 0.88324 0.08988 0.99289 0.0
C3004 C 0.885 0.07599 0.00406 0.0
C3005 C 0.8711 0.06779 0.01195 0.0
C3006 C 0.85535 0.07332 0.00871 0.0
C3007 C 0.85346 0.08703 0.99753 0.0
C3008 C 0.86731 0.09525 0.98959 0.0
C3009 C 0.95847 0.07217 0.97141 0.0
C3010 C 0.95104 0.05455 0.96125 0.0
C3011 C 0.94947 0.08646 0.97123 0.0
C3012 C 0.93277 0.08334 0.96092 0.0
C3013 C 0.92599 0.0662 0.94922 0.0
C3014 C 0.93502 0.05184 0.94949 0.0
C3015 C 0.92126 0.09583 0.96661 0.0
C3016 C 0.90671 0.088 0.97384 0.0
C3017 C 0.92628 0.11528 0.96895 0.0
C3018 C 0.94034 0.12435 0.95976 0.0
C3019 C 0.94051 0.11905 0.9402 0.0
C3020 C 0.95314 0.12832 0.93127 0.0
C3021 C 0.96571 0.14289 0.94175 0.0
C3022 C 0.96585 0.14805 0.96126 0.0
C3023 C 0.95322 0.13888 0.97025 0.0
H3024 H 0.9754 0.15012 0.93478 0.0
H3025 H 0.84462 0.06698 0.01486 0.0
H3026 H 0.36506 0.41675 0.06133 0.0
H3027 H 0.39553 0.42836 0.06004 0.0
H3028 H 0.38126 0.46836 0.02597 0.0
H3029 H 0.35116 0.45708 0.0272 0.0
H3030 H 0.40319 0.44835 0.01031 0.0
H3031 H 0.39858 0.48116 0.07236 0.0
H3032 H 0.39282 0.48281 0.10546 0.0
H3033 H 0.43177 0.45176 0.1189 0.0
H3034 H 0.43761 0.44973 0.08579 0.0
H3035 H 0.47519 0.51644 0.00865 0.0
H3036 H 0.4479 0.49777 0.01227 0.0
H3037 H 0.47475 0.47 0.05224 0.0
H3038 H 0.50209 0.48937 0.0492 0.0
H3039 H 0.44814 0.47821 0.06565 0.0
H3040 H 0.45556 0.44801 0.00585 0.0
H3041 H 0.46049 0.44273 0.97248 0.0
H3042 H 0.41652 0.4653 0.95437 0.0
H3043 H 0.41147 0.471 0.98764 0.0
C3044 C 0.36845 0.42813 0.05371 0.0
C3045 C 0.35559 0.43591 0.04432 0.0
C3046 C 0.38587 0.43475 0.05301 0.0
C3047 C 0.39067 0.44921 0.04285 0.0
C3048 C 0.37787 0.45714 0.0338 0.0
C3049 C 0.36061 0.45066 0.03458 0.0
C3050 C 0.40888 0.45592 0.04086 0.0
C3051 C 0.41302 0.45502 0.02239 0.0
C3052 C 0.42188 0.46381 0.05667 0.0
C3053 C 0.41839 0.4651 0.07655 0.0
C3054 C 0.40581 0.47455 0.08233 0.0
C3055 C 0.40255 0.47558 0.1011 0.0
C3056 C 0.41188 0.46734 0.11426 0.0
C3057 C 0.42453 0.4581 0.10868 0.0
C3058 C 0.42783 0.45702 0.08992 0.0
C3059 C 0.47528 0.50625 0.01809 0.0
C3060 C 0.49079 0.50415 0.02842 0.0
C3061 C 0.45967 0.49546 0.02006 0.0
C3062 C 0.45919 0.48216 0.03228 0.0
C3063 C 0.47473 0.48002 0.0426 0.0
C3064 C 0.49038 0.49092 0.04069 0.0
C3065 C 0.44235 0.47134 0.03492 0.0
C3066 C 0.43845 0.47138 0.05351 0.0
C3067 C 0.42958 0.46239 0.01919 0.0
C3068 C 0.43318 0.46 0.99929 0.0
C3069 C 0.44707 0.45207 0.9948 0.0
C3070 C 0.44984 0.44894 0.97588 0.0
C3071 C 0.43876 0.45358 0.96132 0.0
C3072 C 0.42504 0.46163 0.96566 0.0
C3073 C 0.42222 0.46482 0.98454 0.0
H3074 H 0.44075 0.4509 0.94664 0.0
H3075 H 0.40935 0.46816 0.12878 0.0
H3076 H 0.42326 0.57012 0.76045 0.0
H3077 H 0.40758 0.59538 0.76277 0.0
H3078 H 0.35967 0.55598 0.75348 0.0
H3079 H 0.3752 0.53072 0.75074 0.0
H3080 H 0.35776 0.58171 0.73153 0.0
H3081 H 0.3781 0.58135 0.79817 0.0
H3082 H 0.40005 0.58281 0.82632 0.0
H3083 H 0.42492 0.63657 0.81861 0.0
H3084 H 0.40326 0.63533 0.79025 0.0
H3085 H 0.30165 0.64049 0.75289 0.0
H3086 H 0.31877 0.61673 0.75452 0.0
H3087 H 0.36525 0.6584 0.76583 0.0
H3088 H 0.34819 0.68239 0.76539 0.0
H3089 H 0.36889 0.63241 0.78667 0.0
H3090 H 0.34971 0.6334 0.72062 0.0
H3091 H 0.3286 0.63271 0.69195 0.0
H3092 H 0.30282 0.57863 0.69764 0.0
H3093 H 0.32365 0.5791 0.72651 0.0
C3094 C 0.40939 0.56685 0.759 0.0
C3095 C 0.40046 0.54843 0.75539 0.0
C3096 C 0.40045 0.5813 0.76042 0.0
C3097 C 0.38245 0.57758 0.75848 0.0
C3098 C 0.37355 0.55919 0.75502 0.0
C3099 C 0.38245 0.54476 0.75349 0.0
C3100 C 0.37275 0.59275 0.75929 0.0
C3101 C 0.36003 0.59264 0.74371 0.0
C3102 C 0.37614 0.6074 0.77488 0.0
C3103 C 0.38915 0.60816 0.79197 0.0
C3104 C 0.38833 0.59342 0.80238 0.0
C3105 C 0.40071 0.59422 0.81839 0.0
C3106 C 0.4139 0.60975 0.82422 0.0
C3107 C 0.41472 0.62454 0.81407 0.0
C3108 C 0.40238 0.6238 0.79803 0.0
C3109 C 0.3155 0.64469 0.75611 0.0
C3110 C 0.32351 0.66341 0.75886 0.0
C3111 C 0.32529 0.63103 0.7568 0.0
C3112 C 0.34331 0.63574 0.75988 0.0
C3113 C 0.35137 0.65442 0.76327 0.0
C3114 C 0.34158 0.66812 0.7628 0.0
C3115 C 0.35371 0.62116 0.75904 0.0
C3116 C 0.3666 0.62144 0.77451 0.0
C3117 C 0.35064 0.60674 0.74326 0.0
C3118 C 0.33815 0.60636 0.72582 0.0
C3119 C 0.33947 0.62141 0.71583 0.0
C3120 C 0.32756 0.62105 0.69953 0.0
C3121 C 0.31435 0.60565 0.69301 0.0
C3122 C 0.31305 0.59056 0.70273 0.0
C3123 C 0.32491 0.59085 0.71905 0.0
H3124 H 0.30514 0.60541 0.68039 0.0
H3125 H 0.42347 0.61035 0.83662 0.0
H3126 H 0.29562 0.60289 0.56491 0.0
H3127 H 0.26666 0.58398 0.56044 0.0
H3128 H 0.24714 0.63211 0.58002 0.0
H3129 H 0.27597 0.6509 0.585 0.0
H3130 H 0.23259 0.60406 0.59415 0.0
H3131 H 0.24426 0.61504 0.53184 0.0
H3132 H 0.26024 0.61425 0.50474 0.0
H3133 H 0.25155 0.55518 0.49815 0.0
H3134 H 0.2357 0.55565 0.52539 0.0
H3135 H 0.14652 0.58684 0.55612 0.0
H3136 H 0.17731 0.5981 0.55808 0.0
H3137 H 0.18497 0.54216 0.54826 0.0
H3138 H 0.15392 0.53072 0.54627 0.0
H3139 H 0.20626 0.56933 0.5298 0.0
H3140 H 0.19124 0.55996 0.59142 0.0
H3141 H 0.17353 0.56302 0.61682 0.0
H3142 H 0.18757 0.62199 0.62322 0.0
H3143 H 0.20513 0.61928 0.59763 0.0
C3144 C 0.28518 0.60936 0.56852 0.0
C3145 C 0.28804 0.62839 0.57523 0.0
C3146 C 0.26863 0.59857 0.56582 0.0
C3147 C 0.2547 0.60669 0.56959 0.0
C3148 C 0.25769 0.62554 0.57699 0.0
C3149 C 0.27419 0.63628 0.57983 0.0
C3150 C 0.23688 0.59586 0.56546 0.0
C3151 C 0.22687 0.5965 0.58006 0.0
C3152 C 0.22946 0.5857 0.54716 0.0
C3153 C 0.239 0.5854 0.5308 0.0
C3154 C 0.24589 0.60189 0.52472 0.0
C3155 C 0.2549 0.6015 0.50931 0.0
C3156 C 0.25696 0.58468 0.49977 0.0
C3157 C 0.24998 0.56821 0.50558 0.0
C3158 C 0.24098 0.56853 0.521 0.0
C3159 C 0.15474 0.57694 0.55411 0.0
C3160 C 0.14797 0.55794 0.5514 0.0
C3161 C 0.17227 0.58338 0.55515 0.0
C3162 C 0.18335 0.57093 0.55363 0.0
C3163 C 0.17654 0.55193 0.54952 0.0
C3164 C 0.15888 0.54544 0.5484 0.0
C3165 C 0.20207 0.57798 0.55836 0.0
C3166 C 0.21217 0.5766 0.54394 0.0
C3167 C 0.20957 0.58775 0.57674 0.0
C3168 C 0.19943 0.58941 0.59254 0.0
C3169 C 0.19049 0.57358 0.59819 0.0
C3170 C 0.18047 0.57526 0.61261 0.0
C3171 C 0.17941 0.59269 0.62161 0.0
C3172 C 0.18841 0.60849 0.61624 0.0
C3173 C 0.19841 0.60689 0.60179 0.0
H3174 H 0.17164 0.59396 0.63276 0.0
H3175 H 0.26394 0.5844 0.48784 0.0
H3176 H 0.7169 0.96475 0.79636 0.0
H3177 H 0.7311 0.93831 0.79611 0.0
H3178 H 0.68248 0.90157 0.77453 0.0
H3179 H 0.66818 0.92805 0.77562 0.0
H3180 H 0.69783 0.88324 0.79521 0.0
H3181 H 0.71956 0.91502 0.74713 0.0
H3182 H 0.7335 0.9412 0.73329 0.0
H3183 H 0.77958 0.94666 0.77367 0.0
H3184 H 0.76585 0.92064 0.7879 0.0
H3185 H 0.73559 0.80431 0.76986 0.0
H3186 H 0.72099 0.83043 0.76987 0.0
H3187 H 0.76864 0.86762 0.79475 0.0
H3188 H 0.7834 0.84155 0.79392 0.0
H3189 H 0.75345 0.88528 0.77195 0.0
H3190 H 0.73026 0.85304 0.82019 0.0
H3191 H 0.71679 0.82443 0.83052 0.0
H3192 H 0.67318 0.81824 0.7865 0.0
H3193 H 0.68641 0.84681 0.77587 0.0
C3194 C 0.70913 0.95108 0.79151 0.0
C3195 C 0.69117 0.949 0.78593 0.0
C3196 C 0.7174 0.93568 0.79117 0.0
C3197 C 0.70828 0.91726 0.78482 0.0
C3198 C 0.69027 0.91521 0.77948 0.0
C3199 C 0.68196 0.93061 0.78004 0.0
C3200 C 0.71731 0.9004 0.78385 0.0
C3201 C 0.7099 0.88387 0.78988 0.0
C3202 C 0.73333 0.90037 0.77717 0.0
C3203 C 0.74161 0.91602 0.76871 0.0
C3204 C 0.73263 0.92189 0.75314 0.0
C3205 C 0.7405 0.93668 0.74522 0.0
C3206 C 0.75739 0.94562 0.75264 0.0
C3207 C 0.76648 0.93975 0.76797 0.0
C3208 C 0.75867 0.92497 0.77596 0.0
C3209 C 0.74306 0.818 0.77546 0.0
C3210 C 0.7609 0.82035 0.78201 0.0
C3211 C 0.73454 0.83321 0.77562 0.0
C3212 C 0.74328 0.85163 0.78276 0.0
C3213 C 0.76116 0.85394 0.78917 0.0
C3214 C 0.76971 0.83876 0.78879 0.0
C3215 C 0.73407 0.86831 0.78346 0.0
C3216 C 0.74143 0.88477 0.77737 0.0
C3217 C 0.71794 0.86821 0.78987 0.0
C3218 C 0.70936 0.85196 0.79718 0.0
C3219 C 0.71777 0.8456 0.81277 0.0
C3220 C 0.71023 0.82936 0.8186 0.0
C3221 C 0.69425 0.81945 0.80903 0.0
C3222 C 0.68564 0.82587 0.79378 0.0
C3223 C 0.69309 0.84215 0.78792 0.0
H3224 H 0.68842 0.80698 0.81367 0.0
H3225 H 0.76346 0.95707 0.74648 0.0
H3226 H 0.77092 0.94411 0.56416 0.0
H3227 H 0.74543 0.95786 0.56322 0.0
H3228 H 0.71301 0.90387 0.54625 0.0
H3229 H 0.73851 0.89003 0.54685 0.0
H3230 H 0.702 0.92746 0.52503 0.0
H3231 H 0.71766 0.92774 0.59205 0.0
H3232 H 0.73707 0.93417 0.62301 0.0
H3233 H 0.74512 0.99219 0.62082 0.0
H3234 H 0.72593 0.98609 0.58971 0.0
H3235 H 0.62525 0.96031 0.53498 0.0
H3236 H 0.64866 0.94357 0.53945 0.0
H3237 H 0.68477 0.99503 0.55874 0.0
H3238 H 0.66137 0.01177 0.5553 0.0
H3239 H 0.69279 0.9708 0.57964 0.0
H3240 H 0.67886 0.97053 0.51186 0.0
H3241 H 0.65982 0.96437 0.48066 0.0
H3242 H 0.64884 0.90661 0.4841 0.0
H3243 H 0.66766 0.91247 0.51545 0.0
C3244 C 0.75837 0.93513 0.56033 0.0
C3245 C 0.75677 0.91595 0.55563 0.0
C3246 C 0.74378 0.94302 0.55987 0.0
C3247 C 0.72724 0.93191 0.55489 0.0
C3248 C 0.72561 0.91275 0.55018 0.0
C3249 C 0.74021 0.90484 0.55059 0.0
C3250 C 0.7117 0.94036 0.55414 0.0
C3251 C 0.69985 0.9367 0.53709 0.0
C3252 C 0.709 0.95271 0.56971 0.0
C3253 C 0.72047 0.95644 0.58847 0.0
C3254 C 0.72367 0.94186 0.59811 0.0
C3255 C 0.73461 0.94545 0.61569 0.0
C3256 C 0.74235 0.96357 0.62386 0.0
C3257 C 0.73912 0.97815 0.61447 0.0
C3258 C 0.7282 0.97464 0.59687 0.0
C3259 C 0.63812 0.96808 0.5405 0.0
C3260 C 0.64137 0.98746 0.5446 0.0
C3261 C 0.65156 0.95847 0.54282 0.0
C3262 C 0.6686 0.96802 0.54907 0.0
C3263 C 0.67179 0.98731 0.55376 0.0
C3264 C 0.65837 0.9969 0.55159 0.0
C3265 C 0.68319 0.95808 0.55044 0.0
C3266 C 0.69487 0.96146 0.56762 0.0
C3267 C 0.68577 0.94551 0.53496 0.0
C3268 C 0.67452 0.94197 0.51608 0.0
C3269 C 0.67229 0.95654 0.50602 0.0
C3270 C 0.66155 0.9531 0.4883 0.0
C3271 C 0.65309 0.93512 0.48043 0.0
C3272 C 0.65538 0.92053 0.49023 0.0
C3273 C 0.66609 0.9239 0.50796 0.0
H3274 H 0.64478 0.93248 0.46671 0.0
H3275 H 0.75082 0.96632 0.63747 0.0
H3276 H 0.41332 0.42067 0.73555 0.0
H3277 H 0.39082 0.39401 0.73598 0.0
H3278 H 0.35761 0.43021 0.75369 0.0
H3279 H 0.3801 0.45696 0.75355 0.0
H3280 H 0.35736 0.40287 0.7746 0.0
H3281 H 0.35115 0.40762 0.70793 0.0
H3282 H 0.36082 0.40985 0.67691 0.0
H3283 H 0.37599 0.35755 0.67669 0.0
H3284 H 0.36662 0.35513 0.70786 0.0
H3285 H 0.28157 0.33429 0.76087 0.0
H3286 H 0.30182 0.36143 0.75596 0.0
H3287 H 0.33743 0.32685 0.74159 0.0
H3288 H 0.31711 0.29977 0.74626 0.0
H3289 H 0.33573 0.35363 0.71842 0.0
H3290 H 0.34301 0.34932 0.78533 0.0
H3291 H 0.33324 0.34669 0.81625 0.0
H3292 H 0.31624 0.398 0.816 0.0
H3293 H 0.32567 0.40079 0.78491 0.0
C3294 C 0.40122 0.42299 0.73948 0.0
C3295 C 0.39852 0.44098 0.74449 0.0
C3296 C 0.38833 0.40772 0.73964 0.0
C3297 C 0.37247 0.41013 0.74468 0.0
C3298 C 0.36975 0.42804 0.74973 0.0
C3299 C 0.38262 0.44332 0.7496 0.0
C3300 C 0.35884 0.39395 0.7451 0.0
C3301 C 0.35244 0.39227 0.76222 0.0
C3302 C 0.35271 0.37988 0.72907 0.0
C3303 C 0.35833 0.38128 0.71032 0.0
C3304 C 0.35668 0.39667 0.70134 0.0
C3305 C 0.36208 0.39795 0.68372 0.0
C3306 C 0.36905 0.38387 0.67486 0.0
C3307 C 0.3706 0.36846 0.68359 0.0
C3308 C 0.36523 0.36711 0.70122 0.0
C3309 C 0.29362 0.33255 0.75637 0.0
C3310 C 0.29801 0.31515 0.75422 0.0
C3311 C 0.30518 0.34799 0.75367 0.0
C3312 C 0.32122 0.34616 0.74872 0.0
C3313 C 0.32517 0.32857 0.74554 0.0
C3314 C 0.31365 0.31316 0.74836 0.0
C3315 C 0.33426 0.36265 0.74787 0.0
C3316 C 0.34059 0.36434 0.73073 0.0
C3317 C 0.34037 0.37671 0.76388 0.0
C3318 C 0.33488 0.37517 0.78269 0.0
C3319 C 0.33707 0.35997 0.79179 0.0
C3320 C 0.33161 0.35846 0.80936 0.0
C3321 C 0.32407 0.37214 0.81805 0.0
C3322 C 0.32205 0.3874 0.80923 0.0
C3323 C 0.32746 0.38896 0.79164 0.0
H3324 H 0.31982 0.37094 0.83163 0.0
H3325 H 0.37323 0.38489 0.66121 0.0
H3326 H 0.17476 0.5817 0.30626 0.0
H3327 H 0.19101 0.61248 0.30586 0.0
H3328 H 0.22251 0.58917 0.26891 0.0
H3329 H 0.20675 0.55799 0.27039 0.0
H3330 H 0.24211 0.61757 0.2884 0.0
H3331 H 0.18598 0.6122 0.25391 0.0
H3332 H 0.15431 0.60586 0.24777 0.0
H3333 H 0.15411 0.64829 0.29441 0.0
H3334 H 0.18578 0.65474 0.30098 0.0
H3335 H 0.26694 0.70438 0.25397 0.0
H3336 H 0.25338 0.67278 0.25642 0.0
H3337 H 0.23418 0.69313 0.30668 0.0
H3338 H 0.24814 0.72476 0.30463 0.0
H3339 H 0.20871 0.66645 0.27939 0.0
H3340 H 0.26644 0.67165 0.31195 0.0
H3341 H 0.298 0.67797 0.31485 0.0
H3342 H 0.29465 0.63544 0.26707 0.0
H3343 H 0.26303 0.62905 0.26371 0.0
C3344 C 0.18535 0.58302 0.29829 0.0
C3345 C 0.18937 0.56709 0.28847 0.0
C3346 C 0.19457 0.60086 0.29778 0.0
C3347 C 0.20783 0.60377 0.28674 0.0
C3348 C 0.21235 0.58778 0.27747 0.0
C3349 C 0.20334 0.56976 0.27839 0.0
C3350 C 0.21659 0.62333 0.28476 0.0
C3351 C 0.23463 0.62806 0.28616 0.0
C3352 C 0.20729 0.63763 0.28194 0.0
C3353 C 0.18825 0.63382 0.27805 0.0
C3354 C 0.17918 0.6201 0.26293 0.0
C3355 C 0.16123 0.61649 0.25937 0.0
C3356 C 0.1522 0.62663 0.27073 0.0
C3357 C 0.16111 0.64043 0.28565 0.0
C3358 C 0.17907 0.64408 0.28929 0.0
C3359 C 0.25986 0.70224 0.2656 0.0
C3360 C 0.25875 0.71746 0.27907 0.0
C3361 C 0.2521 0.68399 0.26703 0.0
C3362 C 0.24264 0.6802 0.28178 0.0
C3363 C 0.24131 0.69539 0.29511 0.0
C3364 C 0.24939 0.71361 0.29393 0.0
C3365 C 0.23407 0.66056 0.28321 0.0
C3366 C 0.21608 0.65587 0.28164 0.0
C3367 C 0.24337 0.64625 0.28539 0.0
C3368 C 0.26236 0.65001 0.28745 0.0
C3369 C 0.27242 0.66376 0.30195 0.0
C3370 C 0.29032 0.66733 0.30371 0.0
C3371 C 0.29832 0.65715 0.29112 0.0
C3372 C 0.28844 0.64334 0.27679 0.0
C3373 C 0.27053 0.63972 0.27497 0.0
H3374 H 0.31219 0.65994 0.2925 0.0
H3375 H 0.13831 0.62382 0.26794 0.0
H3376 H 0.50009 0.7118 0.47006 0.0
H3377 H 0.50131 0.68359 0.4838 0.0
H3378 H 0.51332 0.6577 0.43106 0.0
H3379 H 0.51089 0.68527 0.41701 0.0
H3380 H 0.49477 0.63329 0.4426 0.0
H3381 H 0.54447 0.67772 0.47494 0.0
H3382 H 0.56051 0.70709 0.49425 0.0
H3383 H 0.53399 0.69574 0.54092 0.0
H3384 H 0.51765 0.6664 0.52179 0.0
H3385 H 0.54956 0.58306 0.50969 0.0
H3386 H 0.54453 0.61077 0.49717 0.0
H3387 H 0.49015 0.58843 0.48516 0.0
H3388 H 0.49509 0.56017 0.49698 0.0
H3389 H 0.52919 0.63674 0.50638 0.0
H3390 H 0.47186 0.60561 0.44374 0.0
H3391 H 0.46012 0.57627 0.42205 0.0
H3392 H 0.50914 0.56055 0.43122 0.0
H3393 H 0.52132 0.59001 0.45252 0.0
C3394 C 0.50281 0.69999 0.46138 0.0
C3395 C 0.50537 0.70078 0.44244 0.0
C3396 C 0.50368 0.68388 0.4693 0.0
C3397 C 0.50779 0.66844 0.45869 0.0
C3398 C 0.51008 0.66924 0.43966 0.0
C3399 C 0.50873 0.6851 0.4316 0.0
C3400 C 0.50992 0.65152 0.46724 0.0
C3401 C 0.50225 0.63409 0.45659 0.0
C3402 C 0.51996 0.65234 0.48537 0.0
C3403 C 0.52971 0.66999 0.49686 0.0
C3404 C 0.54198 0.68156 0.48927 0.0
C3405 C 0.55114 0.69819 0.50019 0.0
C3406 C 0.54824 0.70331 0.51878 0.0
C3407 C 0.5362 0.69178 0.52651 0.0
C3408 C 0.52699 0.67515 0.51564 0.0
C3409 C 0.53649 0.58397 0.5044 0.0
C3410 C 0.52276 0.56926 0.50426 0.0
C3411 C 0.53361 0.59991 0.49726 0.0
C3412 C 0.51693 0.60166 0.48988 0.0
C3413 C 0.50315 0.5872 0.49022 0.0
C3414 C 0.50601 0.57111 0.49715 0.0
C3415 C 0.51412 0.61852 0.48167 0.0
C3416 C 0.52163 0.63593 0.49243 0.0
C3417 C 0.50449 0.61763 0.46329 0.0
C3418 C 0.49738 0.59988 0.45023 0.0
C3419 C 0.48016 0.59592 0.44114 0.0
C3420 C 0.47344 0.57929 0.42882 0.0
C3421 C 0.48384 0.56649 0.42538 0.0
C3422 C 0.50105 0.57041 0.43404 0.0
C3423 C 0.50786 0.58709 0.44625 0.0
H3424 H 0.47858 0.55356 0.41594 0.0
H3425 H 0.55534 0.71618 0.52721 0.0
H3426 H 0.62659 0.28942 0.63937 0.0
H3427 H 0.65481 0.28626 0.65504 0.0
H3428 H 0.64057 0.30114 0.71012 0.0
H3429 H 0.61249 0.30449 0.69458 0.0
H3430 H 0.6727 0.31827 0.70916 0.0
H3431 H 0.63961 0.256 0.69106 0.0
H3432 H 0.62234 0.22943 0.66819 0.0
H3433 H 0.66445 0.2281 0.6372 0.0
H3434 H 0.6819 0.25486 0.65975 0.0
H3435 H 0.72406 0.28439 0.77596 0.0
H3436 H 0.69993 0.28752 0.75297 0.0
H3437 H 0.72814 0.27677 0.70695 0.0
H3438 H 0.75271 0.27368 0.73026 0.0
H3439 H 0.69202 0.25873 0.69901 0.0
H3440 H 0.72622 0.31901 0.71956 0.0
H3441 H 0.74334 0.34526 0.74292 0.0
H3442 H 0.69908 0.35032 0.76932 0.0
H3443 H 0.68174 0.32389 0.74631 0.0
C3444 C 0.62952 0.29214 0.65482 0.0
C3445 C 0.61724 0.29717 0.66572 0.0
C3446 C 0.64564 0.29023 0.66377 0.0
C3447 C 0.6498 0.29325 0.6838 0.0
C3448 C 0.6377 0.29871 0.69466 0.0
C3449 C 0.62161 0.3006 0.68574 0.0
C3450 C 0.66662 0.2906 0.69363 0.0
C3451 C 0.67686 0.30522 0.70697 0.0
C3452 C 0.6724 0.27376 0.69038 0.0
C3453 C 0.66199 0.25756 0.67695 0.0
C3454 C 0.64515 0.25013 0.67928 0.0
C3455 C 0.63533 0.23502 0.6664 0.0
C3456 C 0.64227 0.22712 0.65121 0.0
C3457 C 0.65908 0.23426 0.64894 0.0
C3458 C 0.66894 0.24939 0.66178 0.0
C3459 C 0.72516 0.28253 0.76094 0.0
C3460 C 0.74034 0.27879 0.75493 0.0
C3461 C 0.71132 0.28436 0.7478 0.0
C3462 C 0.71226 0.28262 0.72825 0.0
C3463 C 0.72714 0.27819 0.72199 0.0
C3464 C 0.74115 0.27638 0.73528 0.0
C3465 C 0.69779 0.28627 0.71485 0.0
C3466 C 0.688 0.27187 0.7009 0.0
C3467 C 0.69237 0.30333 0.7175 0.0
C3468 C 0.7027 0.31938 0.73126 0.0
C3469 C 0.72016 0.32563 0.73043 0.0
C3470 C 0.7299 0.34056 0.7436 0.0
C3471 C 0.72231 0.34944 0.75761 0.0
C3472 C 0.70494 0.34343 0.75846 0.0
C3473 C 0.69514 0.32848 0.74534 0.0
H3474 H 0.72988 0.36099 0.7678 0.0
H3475 H 0.63465 0.21543 0.64124 0.0
H3476 H 0.01679 0.33104 0.91218 0.0
H3477 H 0.01949 0.36133 0.93082 0.0
H3478 H 0.02379 0.33802 0.98284 0.0
H3479 H 0.02064 0.30721 0.96405 0.0
H3480 H 1.00441 0.36383 0.9851 0.0
H3481 H 0.05959 0.36123 0.9689 0.0
H3482 H 0.0806 0.35535 0.94786 0.0
H3483 H 0.06659 0.39619 0.9152 0.0
H3484 H 0.04532 0.40213 0.93589 0.0
H3485 H 0.0578 0.4656 0.0176 0.0
H3486 H 0.05568 0.4329 0.0062 0.0
H3487 H 1.00134 0.427 0.98695 0.0
H3488 H 1.00329 0.45966 0.99883 0.0
H3489 H 0.04835 0.4146 0.97244 0.0
H3490 H 0.98023 0.38327 0.98655 0.0
H3491 H 0.96127 0.38858 0.01025 0.0
H3492 H 0.00511 0.41494 0.05244 0.0
H3493 H 0.02434 0.40956 0.0291 0.0
C3494 C 0.01831 0.33223 0.92759 0.0
C3495 C 0.01871 0.31664 0.93662 0.0
C3496 C 0.01989 0.34965 0.93826 0.0
C3497 C 0.02221 0.35208 0.95828 0.0
C3498 C 0.02211 0.33651 0.9674 0.0
C3499 C 0.02036 0.31892 0.95666 0.0
C3500 C 0.02504 0.371 0.96941 0.0
C3501 C 0.01405 0.37493 0.98241 0.0
C3502 C 0.0379 0.38546 0.96629 0.0
C3503 C 0.05078 0.38203 0.95388 0.0
C3504 C 0.06092 0.36887 0.95716 0.0
C3505 C 0.07288 0.36554 0.9453 0.0
C3506 C 0.07491 0.37537 0.93018 0.0
C3507 C 0.065 0.38858 0.92691 0.0
C3508 C 0.053 0.39196 0.93872 0.0
C3509 C 0.04535 0.45735 0.01106 0.0
C3510 C 0.03071 0.46531 0.00912 0.0
C3511 C 0.04416 0.4386 0.00452 0.0
C3512 C 0.02833 0.42734 0.99582 0.0
C3513 C 0.01365 0.43524 0.99394 0.0
C3514 C 0.01481 0.45398 1.00065 0.0
C3515 C 0.0274 0.40763 0.98779 0.0
C3516 C 0.03876 0.40354 0.97531 0.0
C3517 C 0.01517 0.39302 0.9918 0.0
C3518 C 1.00371 0.39615 0.006 0.0
C3519 C 0.98583 0.39013 1.00091 0.0
C3520 C 0.97503 0.39316 0.01428 0.0
C3521 C 0.98198 0.40214 0.03282 0.0
C3522 C 0.99974 0.40805 0.03805 0.0
C3523 C 0.01059 0.40503 0.02475 0.0
H3524 H 0.9736 0.40449 0.04314 0.0
H3525 H 0.08417 0.37276 0.92101 0.0
H3526 H 0.02381 0.77338 0.20324 0.0
H3527 H 0.99622 0.77303 0.21383 0.0
H3528 H 0.97724 0.79295 0.16283 0.0
H3529 H 0.00518 0.79371 0.1522 0.0
H3530 H 0.96678 0.8098 0.1932 0.0
H3531 H 0.96531 0.74743 0.16745 0.0
H3532 H 0.97573 0.71833 0.16258 0.0
H3533 H 0.97594 0.71377 0.22178 0.0
H3534 H 0.96575 0.743 0.22708 0.0
H3535 H 0.88002 0.78708 0.21063 0.0
H3536 H 0.90577 0.78745 0.19579 0.0
H3537 H 0.93242 0.77357 0.24663 0.0
H3538 H 0.90699 0.77376 0.26186 0.0
H3539 H 0.93732 0.75289 0.21317 0.0
H3540 H 0.94007 0.81677 0.23851 0.0
H3541 H 0.92898 0.84553 0.24239 0.0
H3542 H 0.92527 0.84645 0.18213 0.0
H3543 H 0.93611 0.81753 0.17786 0.0
C3544 C 0.01383 0.77773 0.1942 0.0
C3545 C 0.01674 0.78344 0.17675 0.0
C3546 C 0.99797 0.77743 0.20027 0.0
C3547 C 0.98447 0.78259 0.18897 0.0
C3548 C 0.98741 0.78878 0.17176 0.0
C3549 C 1.00339 0.78919 0.16568 0.0
C3550 C 0.96739 0.78142 0.19531 0.0
C3551 C 0.96019 0.79725 0.19723 0.0
C3552 C 0.95881 0.76512 0.20081 0.0
C3553 C 0.96489 0.74749 0.19769 0.0
C3554 C 0.9677 0.74029 0.17947 0.0
C3555 C 0.97355 0.72376 0.17662 0.0
C3556 C 0.97653 0.71422 0.19187 0.0
C3557 C 0.97363 0.72118 0.20998 0.0
C3558 C 0.9678 0.73772 0.21291 0.0
C3559 C 0.89138 0.78427 0.21878 0.0
C3560 C 0.89134 0.78048 0.23756 0.0
C3561 C 0.90609 0.78441 0.2102 0.0
C3562 C 0.92108 0.78068 0.22014 0.0
C3563 C 0.92099 0.77645 0.23866 0.0
C3564 C 0.90635 0.77645 0.24732 0.0
C3565 C 0.93694 0.78133 0.21137 0.0
C3566 C 0.94386 0.76538 0.20898 0.0
C3567 C 0.94514 0.79744 0.20526 0.0
C3568 C 0.93872 0.81488 0.20784 0.0
C3569 C 0.93675 0.82302 0.22606 0.0
C3570 C 0.93053 0.83937 0.22834 0.0
C3571 C 0.92637 0.84779 0.21251 0.0
C3572 C 0.92847 0.8399 0.19437 0.0
C3573 C 0.93466 0.82354 0.19202 0.0
H3574 H 0.92156 0.86044 0.21429 0.0
H3575 H 0.98106 0.70142 0.18964 0.0
H3576 H 0.52078 0.31373 0.16393 0.0
H3577 H 0.51612 0.33746 0.14447 0.0
H3578 H 0.50866 0.29738 0.09327 0.0
H3579 H 0.51358 0.27366 0.11259 0.0
H3580 H 0.53266 0.32679 0.09228 0.0
H3581 H 0.47547 0.31624 0.10679 0.0
H3582 H 0.45338 0.3129 0.12759 0.0
H3583 H 0.4727 0.36857 0.15599 0.0
H3584 H 0.49508 0.37216 0.13552 0.0
H3585 H 0.51093 0.38588 0.02737 0.0
H3586 H 0.50777 0.36072 0.04605 0.0
H3587 H 0.5221 0.39995 0.0982 0.0
H3588 H 0.52599 0.42519 0.07974 0.0
H3589 H 0.49329 0.37072 0.09804 0.0
H3590 H 0.55132 0.38064 0.08571 0.0
H3591 H 0.57405 0.38444 0.06574 0.0
H3592 H 0.55361 0.33015 0.03419 0.0
H3593 H 0.53057 0.32614 0.0538 0.0
C3594 C 0.51779 0.30989 0.14854 0.0
C3595 C 0.5177 0.29189 0.13976 0.0
C3596 C 0.51507 0.32345 0.13745 0.0
C3597 C 0.51204 0.31915 0.11744 0.0
C3598 C 0.51104 0.30097 0.1087 0.0
C3599 C 0.51382 0.28744 0.11976 0.0
C3600 C 0.51169 0.33393 0.10563 0.0
C3601 C 0.5238 0.33615 0.09326 0.0
C3602 C 0.50052 0.34651 0.10743 0.0
C3603 C 0.48705 0.34441 0.11972 0.0
C3604 C 0.4751 0.32772 0.11757 0.0
C3605 C 0.46251 0.32579 0.12928 0.0
C3606 C 0.46166 0.3405 0.14314 0.0
C3607 C 0.47338 0.35718 0.14527 0.0
C3608 C 0.48601 0.35918 0.1336 0.0
C3609 C 0.51352 0.38918 0.04281 0.0
C3610 C 0.51883 0.40756 0.05204 0.0
C3611 C 0.51156 0.3748 0.05343 0.0
C3612 C 0.51474 0.37856 0.07344 0.0
C3613 C 0.51947 0.39685 0.08274 0.0
C3614 C 0.52163 0.41124 0.07214 0.0
C3615 C 0.5141 0.36333 0.08465 0.0
C3616 C 0.50195 0.36116 0.09695 0.0
C3617 C 0.52528 0.35081 0.08291 0.0
C3618 C 0.53909 0.35318 0.07106 0.0
C3619 C 0.55156 0.36959 0.07438 0.0
C3620 C 0.56452 0.37177 0.06316 0.0
C3621 C 0.56524 0.35757 0.04866 0.0
C3622 C 0.55302 0.34115 0.0454 0.0
C3623 C 0.54001 0.33891 0.05656 0.0
H3624 H 0.57529 0.35928 0.04 0.0
H3625 H 0.4519 0.33898 0.15219 0.0
H3626 H 0.97422 0.30323 0.31472 0.0
H3627 H 0.94305 0.29514 0.3052 0.0
H3628 H 0.93924 0.26143 0.34954 0.0
H3629 H 0.97037 0.26919 0.35902 0.0
H3630 H 0.91728 0.24526 0.31621 0.0
H3631 H 0.93252 0.30379 0.35818 0.0
H3632 H 0.94835 0.33581 0.36878 0.0
H3633 H 0.92687 0.35099 0.3163 0.0
H3634 H 0.91108 0.31898 0.30528 0.0
H3635 H 0.83127 0.28092 0.32348 0.0
H3636 H 0.86154 0.28126 0.33438 0.0
H3637 H 0.8646 0.25025 0.28003 0.0
H3638 H 0.83424 0.24924 0.26933 0.0
H3639 H 0.88697 0.29767 0.32031 0.0
H3640 H 0.89725 0.22708 0.28443 0.0
H3641 H 0.88111 0.19502 0.27512 0.0
H3642 H 0.85055 0.20339 0.31908 0.0
H3643 H 0.86667 0.23538 0.32887 0.0
C3644 C 0.96678 0.29399 0.32236 0.0
C3645 C 0.97473 0.28704 0.33777 0.0
C3646 C 0.949 0.28936 0.31688 0.0
C3647 C 0.93892 0.27785 0.32682 0.0
C3648 C 0.94685 0.27032 0.34171 0.0
C3649 C 0.96462 0.2749 0.34718 0.0
C3650 C 0.92004 0.27474 0.32262 0.0
C3651 C 0.91058 0.25666 0.31708 0.0
C3652 C 0.91143 0.28966 0.32415 0.0
C3653 C 0.92074 0.30897 0.33084 0.0
C3654 C 0.93125 0.31394 0.34885 0.0
C3655 C 0.94021 0.33208 0.35494 0.0
C3656 C 0.93865 0.34542 0.3432 0.0
C3657 C 0.92808 0.34065 0.32537 0.0
C3658 C 0.91912 0.32251 0.3192 0.0
C3659 C 0.83834 0.2739 0.314 0.0
C3660 C 0.83047 0.26514 0.29555 0.0
C3661 C 0.8556 0.27412 0.32022 0.0
C3662 C 0.86529 0.26574 0.30803 0.0
C3663 C 0.8573 0.2565 0.2898 0.0
C3664 C 0.83997 0.25602 0.28368 0.0
C3665 C 0.88403 0.26814 0.31376 0.0
C3666 C 0.89355 0.28617 0.31951 0.0
C3667 C 0.89259 0.25312 0.3127 0.0
C3668 C 0.88311 0.23371 0.30729 0.0
C3669 C 0.88717 0.22205 0.2922 0.0
C3670 C 0.878 0.2039 0.28682 0.0
C3671 C 0.8648 0.1972 0.29648 0.0
C3672 C 0.86076 0.20862 0.31158 0.0
C3673 C 0.8699 0.22677 0.31704 0.0
H3674 H 0.85773 0.18314 0.29232 0.0
H3675 H 0.94559 0.35946 0.34793 0.0
H3676 H 0.06424 0.68555 0.65506 0.0
H3677 H 0.06381 0.66272 0.6273 0.0
H3678 H 0.03082 0.68955 0.59264 0.0
H3679 H 0.03097 0.71245 0.6205 0.0
H3680 H 0.01893 0.65308 0.58753 0.0
H3681 H 0.07215 0.69173 0.58469 0.0
H3682 H 0.10097 0.71085 0.59657 0.0
H3683 H 0.11871 0.66404 0.61479 0.0
H3684 H 0.08998 0.64459 0.60291 0.0
H3685 H 0.0269 0.58551 0.50929 0.0
H3686 H 0.03221 0.61705 0.52697 0.0
H3687 H 0.05313 0.5982 0.57781 0.0
H3688 H 0.04691 0.56674 0.56075 0.0
H3689 H 0.07157 0.63481 0.56862 0.0
H3690 H 0.01667 0.59874 0.57719 0.0
H3691 H 0.988 0.57936 0.56501 0.0
H3692 H 0.97365 0.62222 0.53561 0.0
H3693 H 1.00238 0.64176 0.54749 0.0
C3694 C 0.05693 0.68668 0.64155 0.0
C3695 C 0.04758 0.70079 0.64003 0.0
C3696 C 0.05684 0.67371 0.62563 0.0
C3697 C 0.04751 0.67464 0.60785 0.0
C3698 C 0.0382 0.68871 0.60622 0.0
C3699 C 0.03828 0.70173 0.62217 0.0
C3700 C 0.0466 0.66006 0.59143 0.0
C3701 C 0.03043 0.64943 0.58301 0.0
C3702 C 0.0616 0.65514 0.5857 0.0
C3703 C 0.07889 0.66674 0.593 0.0
C3704 C 0.08217 0.68554 0.59133 0.0
C3705 C 0.0985 0.69642 0.59803 0.0
C3706 C 0.11165 0.68869 0.60652 0.0
C3707 C 0.10851 0.67002 0.60822 0.0
C3708 C 0.09223 0.65903 0.60143 0.0
C3709 C 0.03291 0.5882 0.52414 0.0
C3710 C 0.03668 0.57374 0.53362 0.0
C3711 C 0.03597 0.60616 0.53415 0.0
C3712 C 0.04318 0.60982 0.55357 0.0
C3713 C 0.04781 0.5956 0.56274 0.0
C3714 C 0.04431 0.57764 0.55293 0.0
C3715 C 0.04401 0.62784 0.56515 0.0
C3716 C 0.06012 0.63894 0.57272 0.0
C3717 C 0.02898 0.63325 0.57007 0.0
C3718 C 0.01172 0.62158 0.56299 0.0
C3719 C 0.00746 0.60394 0.56797 0.0
C3720 C 0.99119 0.59295 0.56116 0.0
C3721 C 0.97903 0.59952 0.54947 0.0
C3722 C 0.9831 0.61713 0.54463 0.0
C3723 C 0.99937 0.62817 0.5514 0.0
H3724 H 0.96643 0.591 0.54421 0.0
H3725 H 0.12428 0.69716 0.61174 0.0
H3726 H 0.55103 0.78563 0.82558 0.0
H3727 H 0.57671 0.78453 0.81098 0.0
H3728 H 0.60642 0.78646 0.86643 0.0
H3729 H 0.58083 0.78776 0.88122 0.0
H3730 H 0.62333 0.80915 0.84505 0.0
H3731 H 0.59267 0.74623 0.83731 0.0
H3732 H 0.56759 0.72068 0.82719 0.0
H3733 H 0.56626 0.72938 0.76894 0.0
H3734 H 0.59121 0.75516 0.77877 0.0
H3735 H 0.69077 0.76315 0.82002 0.0
H3736 H 0.66591 0.77166 0.83247 0.0
H3737 H 0.6455 0.78201 0.77693 0.0
H3738 H 0.67047 0.77349 0.76427 0.0
H3739 H 0.62379 0.75543 0.79639 0.0
H3740 H 0.64512 0.82791 0.81212 0.0
H3741 H 0.66918 0.8544 0.82401 0.0
H3742 H 0.68893 0.82546 0.86728 0.0
H3743 H 0.66474 0.79902 0.85587 0.0
C3744 C 0.56304 0.78588 0.83468 0.0
C3745 C 0.56393 0.78666 0.85452 0.0
C3746 C 0.57767 0.78523 0.82631 0.0
C3747 C 0.59336 0.78524 0.83764 0.0
C3748 C 0.59439 0.78645 0.85749 0.0
C3749 C 0.57976 0.78711 0.86588 0.0
C3750 C 0.60864 0.78349 0.82876 0.0
C3751 C 0.62344 0.79735 0.83448 0.0
C3752 C 0.60866 0.76826 0.81474 0.0
C3753 C 0.59368 0.75275 0.8088 0.0
C3754 C 0.58694 0.7428 0.82237 0.0
C3755 C 0.57276 0.72825 0.81668 0.0
C3756 C 0.5653 0.72345 0.79745 0.0
C3757 C 0.57203 0.73314 0.78385 0.0
C3758 C 0.58619 0.74771 0.78946 0.0
C3759 C 0.68114 0.76757 0.81054 0.0
C3760 C 0.68252 0.76774 0.79121 0.0
C3761 C 0.66704 0.77254 0.8177 0.0
C3762 C 0.65419 0.77791 0.8057 0.0
C3763 C 0.65551 0.77818 0.78641 0.0
C3764 C 0.66963 0.77317 0.7792 0.0
C3765 C 0.63845 0.78094 0.81288 0.0
C3766 C 0.62355 0.76731 0.80679 0.0
C3767 C 0.63836 0.79621 0.82671 0.0
C3768 C 0.65339 0.81145 0.83294 0.0
C3769 C 0.65467 0.82721 0.8241 0.0
C3770 C 0.66821 0.84227 0.83087 0.0
C3771 C 0.68057 0.84162 0.8464 0.0
C3772 C 0.67938 0.82593 0.85523 0.0
C3773 C 0.66575 0.81092 0.84864 0.0
H3774 H 0.69111 0.85323 0.85154 0.0
H3775 H 0.55433 0.71218 0.79307 0.0
H3776 H 0.42503 0.48601 0.67684 0.0
H3777 H 0.43632 0.48923 0.64696 0.0
H3778 H 0.4822 0.52548 0.67867 0.0
H3779 H 0.47131 0.52187 0.70862 0.0
H3780 H 0.45839 0.5361 0.64258 0.0
H3781 H 0.49262 0.49334 0.66678 0.0
H3782 H 0.49668 0.46441 0.67809 0.0
H3783 H 0.46598 0.43314 0.62632 0.0
H3784 H 0.46148 0.46192 0.61485 0.0
H3785 H 0.51845 0.55357 0.58088 0.0
H3786 H 0.50194 0.54798 0.6064 0.0
H3787 H 0.47696 0.49443 0.57479 0.0
H3788 H 0.49425 0.49964 0.54961 0.0
H3789 H 0.48695 0.49073 0.60907 0.0
H3790 H 0.45558 0.5321 0.5823 0.0
H3791 H 0.45132 0.56027 0.56944 0.0
H3792 H 0.47434 0.5932 0.62366 0.0
H3793 H 0.479 0.56526 0.63678 0.0
C3794 C 0.43757 0.49457 0.67743 0.0
C3795 C 0.44732 0.50368 0.69503 0.0
C3796 C 0.44399 0.49635 0.6604 0.0
C3797 C 0.46008 0.50752 0.66073 0.0
C3798 C 0.46978 0.51672 0.67823 0.0
C3799 C 0.46356 0.51462 0.69528 0.0
C3800 C 0.46655 0.51022 0.64275 0.0
C3801 C 0.46474 0.52629 0.63524 0.0
C3802 C 0.47422 0.49704 0.63295 0.0
C3803 C 0.47641 0.47977 0.64015 0.0
C3804 C 0.48646 0.4803 0.65797 0.0
C3805 C 0.48892 0.46392 0.66437 0.0
C3806 C 0.48151 0.44694 0.65298 0.0
C3807 C 0.47163 0.4463 0.63517 0.0
C3808 C 0.46911 0.46263 0.62873 0.0
C3809 C 0.50922 0.54073 0.57921 0.0
C3810 C 0.50762 0.52703 0.56327 0.0
C3811 C 0.49969 0.53758 0.59378 0.0
C3812 C 0.488 0.52086 0.59247 0.0
C3813 C 0.48588 0.50745 0.57614 0.0
C3814 C 0.49566 0.51047 0.56169 0.0
C3815 C 0.47911 0.51689 0.60883 0.0
C3816 C 0.4804 0.50053 0.61611 0.0
C3817 C 0.47072 0.52972 0.61825 0.0
C3818 C 0.46774 0.54656 0.61049 0.0
C3819 C 0.45983 0.54535 0.59146 0.0
C3820 C 0.45734 0.56128 0.58412 0.0
C3821 C 0.46258 0.57851 0.59571 0.0
C3822 C 0.47029 0.57984 0.61469 0.0
C3823 C 0.47284 0.56395 0.6221 0.0
H3824 H 0.46065 0.59083 0.59 0.0
H3825 H 0.48348 0.43429 0.65793 0.0
H3826 H 0.80343 0.16235 0.98187 0.0
H3827 H 0.78651 0.17257 0.95579 0.0
H3828 H 0.78725 0.22354 0.99242 0.0
H3829 H 0.80402 0.21334 0.01867 0.0
H3830 H 0.75546 0.20919 0.97188 0.0
H3831 H 0.81378 0.22176 0.96027 0.0
H3832 H 0.84183 0.21516 0.95446 0.0
H3833 H 0.81724 0.1766 0.90421 0.0
H3834 H 0.78898 0.1827 0.90994 0.0
H3835 H 0.75161 0.27457 0.90907 0.0
H3836 H 0.75278 0.25433 0.9331 0.0
H3837 H 0.74752 0.20764 0.88875 0.0
H3838 H 0.74697 0.22781 0.86477 0.0
H3839 H 0.77802 0.21495 0.91136 0.0
H3840 H 0.71989 0.20677 0.92066 0.0
H3841 H 0.69261 0.21582 0.9259 0.0
H3842 H 0.71724 0.24837 0.97979 0.0
H3843 H 0.74475 0.23975 0.97476 0.0
C3844 C 0.80004 0.17576 0.98436 0.0
C3845 C 0.80513 0.18711 1.00228 0.0
C3846 C 0.79035 0.18155 0.96946 0.0
C3847 C 0.78569 0.19881 0.97219 0.0
C3848 C 0.79067 0.21012 0.99008 0.0
C3849 C 0.80035 0.20434 0.005 0.0
C3850 C 0.77604 0.20535 0.95626 0.0
C3851 C 0.76038 0.21055 0.95864 0.0
C3852 C 0.78228 0.20658 0.93883 0.0
C3853 C 0.79922 0.20246 0.93573 0.0
C3854 C 0.81432 0.21167 0.94815 0.0
C3855 C 0.83027 0.20806 0.94484 0.0
C3856 C 0.83131 0.19541 0.92903 0.0
C3857 C 0.81641 0.18633 0.9165 0.0
C3858 C 0.80042 0.18984 0.91979 0.0
C3859 C 0.75008 0.25989 0.9044 0.0
C3860 C 0.74968 0.25288 0.8851 0.0
C3861 C 0.75057 0.24829 0.91814 0.0
C3862 C 0.75048 0.22952 0.91269 0.0
C3863 C 0.74768 0.22211 0.89322 0.0
C3864 C 0.74728 0.2337 0.8795 0.0
C3865 C 0.75745 0.21902 0.92695 0.0
C3866 C 0.77277 0.21316 0.92434 0.0
C3867 C 0.75096 0.2174 0.94416 0.0
C3868 C 0.73444 0.22268 0.94726 0.0
C3869 C 0.71954 0.21598 0.93356 0.0
C3870 C 0.70402 0.22101 0.93651 0.0
C3871 C 0.7032 0.23268 0.95315 0.0
C3872 C 0.7179 0.23932 0.9669 0.0
C3873 C 0.73346 0.23434 0.96402 0.0
H3874 H 0.69116 0.23655 0.95541 0.0
H3875 H 0.84368 0.19268 0.92645 0.0
H3876 H 0.10902 0.48659 0.22998 0.0
H3877 H 0.09314 0.48898 0.19881 0.0
H3878 H 0.13981 0.51687 0.18333 0.0
H3879 H 0.1558 0.51412 0.21428 0.0
H3880 H 0.11174 0.53411 0.1732 0.0
H3881 H 0.12354 0.47287 0.16376 0.0
H3882 H 0.12335 0.4415 0.17109 0.0
H3883 H 0.06828 0.43074 0.16423 0.0
H3884 H 0.06816 0.46214 0.1571 0.0
H3885 H 0.076 0.53208 0.07455 0.0
H3886 H 0.09393 0.53 0.1046 0.0
H3887 H 0.05343 0.48872 0.11624 0.0
H3888 H 0.03609 0.49009 0.08595 0.0
H3889 H 0.07961 0.47855 0.12846 0.0
H3890 H 0.06636 0.53855 0.13986 0.0
H3891 H 0.0648 0.57011 0.13423 0.0
H3892 H 0.11972 0.58372 0.13928 0.0
H3893 H 0.12159 0.55215 0.14477 0.0
C3894 C 0.11598 0.49318 0.21996 0.0
C3895 C 0.13386 0.50005 0.22492 0.0
C3896 C 0.10682 0.49454 0.20198 0.0
C3897 C 0.11509 0.50311 0.1883 0.0
C3898 C 0.13291 0.51021 0.19335 0.0
C3899 C 0.14213 0.50853 0.21118 0.0
C3900 C 0.10528 0.5045 0.16884 0.0
C3901 C 0.10491 0.5219 0.16334 0.0
C3902 C 0.0958 0.4888 0.15585 0.0
C3903 C 0.09585 0.46991 0.16009 0.0
C3904 C 0.1114 0.46386 0.16397 0.0
C3905 C 0.11135 0.44607 0.16805 0.0
C3906 C 0.09582 0.43415 0.16818 0.0
C3907 C 0.0803 0.43999 0.16416 0.0
C3908 C 0.08028 0.45778 0.16008 0.0
C3909 C 0.07095 0.52248 0.08344 0.0
C3910 C 0.05443 0.51128 0.07752 0.0
C3911 C 0.08121 0.52141 0.10094 0.0
C3912 C 0.07521 0.50939 0.11345 0.0
C3913 C 0.05874 0.49814 0.10731 0.0
C3914 C 0.04867 0.49901 0.08978 0.0
C3915 C 0.0858 0.50825 0.1327 0.0
C3916 C 0.08637 0.49084 0.13821 0.0
C3917 C 0.09515 0.524 0.14587 0.0
C3918 C 0.0941 0.54294 0.1425 0.0
C3919 C 0.0781 0.54823 0.13963 0.0
C3920 C 0.07716 0.56613 0.13649 0.0
C3921 C 0.09215 0.57889 0.13633 0.0
C3922 C 0.10812 0.5738 0.13937 0.0
C3923 C 0.10913 0.55592 0.14251 0.0
H3924 H 0.09141 0.59275 0.13391 0.0
H3925 H 0.09581 0.42038 0.17134 0.0
H3926 H 0.78652 0.8914 0.47032 0.0
H3927 H 0.78445 0.87293 0.4391 0.0
H3928 H 0.80081 0.82924 0.46602 0.0
H3929 H 0.80266 0.8476 0.49752 0.0
H3930 H 0.80813 0.86083 0.42188 0.0
H3931 H 0.78262 0.78778 0.43705 0.0
H3932 H 0.765 0.77271 0.45847 0.0
H3933 H 0.73871 0.81794 0.46364 0.0
H3934 H 0.75602 0.83316 0.44208 0.0
H3935 H 0.81435 0.7974 0.34237 0.0
H3936 H 0.81611 0.81117 0.37562 0.0
H3937 H 0.76096 0.80446 0.36782 0.0
H3938 H 0.75901 0.79029 0.33461 0.0
H3939 H 0.77312 0.79754 0.40252 0.0
H3940 H 0.78608 0.84544 0.36473 0.0
H3941 H 0.80165 0.86088 0.34194 0.0
H3942 H 0.8492 0.86787 0.38031 0.0
H3943 H 0.83394 0.85222 0.40322 0.0
C3944 C 0.78962 0.87783 0.46969 0.0
C3945 C 0.79476 0.87101 0.4865 0.0
C3946 C 0.78848 0.8673 0.45177 0.0
C3947 C 0.79241 0.84966 0.45015 0.0
C3948 C 0.7975 0.84272 0.46688 0.0
C3949 C 0.79859 0.85326 0.48489 0.0
C3950 C 0.7914 0.83881 0.43088 0.0
C3951 C 0.80052 0.84696 0.41771 0.0
C3952 C 0.78135 0.82077 0.42529 0.0
C3953 C 0.77076 0.81169 0.43813 0.0
C3954 C 0.77305 0.79448 0.44273 0.0
C3955 C 0.76312 0.78592 0.45489 0.0
C3956 C 0.75079 0.7944 0.46247 0.0
C3957 C 0.74832 0.81143 0.45783 0.0
C3958 C 0.7582 0.82004 0.44566 0.0
C3959 C 0.80255 0.79866 0.34772 0.0
C3960 C 0.78654 0.79292 0.33569 0.0
C3961 C 0.8036 0.80658 0.36677 0.0
C3962 C 0.78869 0.80914 0.37414 0.0
C3963 C 0.77264 0.80267 0.36244 0.0
C3964 C 0.77156 0.79463 0.3434 0.0
C3965 C 0.78989 0.81956 0.39363 0.0
C3966 C 0.78084 0.81134 0.4068 0.0
C3967 C 0.79975 0.83769 0.39914 0.0
C3968 C 0.80889 0.84752 0.38561 0.0
C3969 C 0.79987 0.8502 0.36827 0.0
C3970 C 0.80864 0.85898 0.35533 0.0
C3971 C 0.82641 0.86531 0.35965 0.0
C3972 C 0.83544 0.86294 0.37697 0.0
C3973 C 0.82674 0.85413 0.38994 0.0
H3974 H 0.83317 0.87208 0.34961 0.0
H3975 H 0.74313 0.78775 0.47189 0.0
H3976 H 0.45101 0.52456 0.81375 0.0
H3977 H 0.46236 0.53111 0.84804 0.0
H3978 H 0.49194 0.48856 0.841 0.0
H3979 H 0.48077 0.48194 0.80685 0.0
H3980 H 0.47321 0.48638 0.87106 0.0
H3981 H 0.51137 0.53258 0.84653 0.0
H3982 H 0.51777 0.55888 0.82937 0.0
H3983 H 0.49396 0.59149 0.86773 0.0
H3984 H 0.48722 0.56528 0.88497 0.0
H3985 H 0.52946 0.49851 0.95643 0.0
H3986 H 0.51809 0.49704 0.92278 0.0
H3987 H 0.49745 0.54577 0.93668 0.0
H3988 H 0.50953 0.54776 0.97044 0.0
H3989 H 0.50899 0.54638 0.90389 0.0
H3990 H 0.47271 0.50267 0.93018 0.0
H3991 H 0.46632 0.47754 0.94871 0.0
H3992 H 0.48352 0.44073 0.90761 0.0
H3993 H 0.49074 0.46593 0.88922 0.0
C3994 C 0.45998 0.51664 0.81949 0.0
C3995 C 0.46499 0.50273 0.80755 0.0
C3996 C 0.46648 0.52044 0.83907 0.0
C3997 C 0.47802 0.51035 0.84701 0.0
C3998 C 0.48303 0.49649 0.83513 0.0
C3999 C 0.47667 0.49278 0.81559 0.0
C4000 C 0.48471 0.51387 0.86776 0.0
C4001 C 0.48116 0.49943 0.87822 0.0
C4002 C 0.49449 0.53114 0.87721 0.0
C4003 C 0.49863 0.54691 0.8669 0.0
C4004 C 0.50737 0.5453 0.85121 0.0
C4005 C 0.51109 0.5602 0.84148 0.0
C4006 C 0.50623 0.57682 0.84742 0.0
C4007 C 0.49769 0.5786 0.86312 0.0
C4008 C 0.49394 0.56373 0.87288 0.0
C4009 C 0.52258 0.50898 0.95232 0.0
C4010 C 0.52017 0.5231 0.96607 0.0
C4011 C 0.51607 0.50812 0.93308 0.0
C4012 C 0.50653 0.52103 0.92725 0.0
C4013 C 0.50467 0.53559 0.94086 0.0
C4014 C 0.51152 0.53668 0.96013 0.0
C4015 C 0.49792 0.51869 0.90711 0.0
C4016 C 0.50096 0.53335 0.8968 0.0
C4017 C 0.48738 0.5017 0.89783 0.0
C4018 C 0.4824 0.48626 0.90839 0.0
C4019 C 0.47522 0.48925 0.92513 0.0
C4020 C 0.47147 0.47498 0.93563 0.0
C4021 C 0.47446 0.45751 0.92932 0.0
C4022 C 0.48122 0.45428 0.91248 0.0
C4023 C 0.48519 0.46857 0.90203 0.0
H4024 H 0.47154 0.44647 0.93748 0.0
H4025 H 0.50911 0.58834 0.83987 0.0
H4026 H 0.84653 0.2233 0.09294 0.0
H4027 H 0.84237 0.24589 0.11912 0.0
H4028 H 0.84782 0.20725 0.15811 0.0
H4029 H 0.85224 0.18473 0.13231 0.0
H4030 H 0.81306 0.22169 0.14739 0.0
H4031 H 0.87518 0.23773 0.17047 0.0
H4032 H 0.90495 0.24963 0.16635 0.0
H4033 H 0.89142 0.30062 0.15482 0.0
H4034 H 0.86148 0.28888 0.1586 0.0
H4035 H 0.82879 0.27915 0.24863 0.0
H4036 H 0.83996 0.26669 0.2206 0.0
H4037 H 0.7938 0.27135 0.18428 0.0
H4038 H 0.78203 0.28207 0.21257 0.0
H4039 H 0.84879 0.27662 0.19038 0.0
H4040 H 0.786 0.24092 0.14366 0.0
H4041 H 0.75558 0.22854 0.14483 0.0
H4042 H 0.76953 0.2161 0.2009 0.0
H4043 H 0.80018 0.22865 0.20021 0.0
C4044 C 0.84742 0.21982 0.1072 0.0
C4045 C 0.84944 0.20209 0.11047 0.0
C4046 C 0.84507 0.23276 0.12212 0.0
C4047 C 0.84475 0.22812 0.14041 0.0
C4048 C 0.84811 0.21103 0.14403 0.0
C4049 C 0.8506 0.19818 0.12923 0.0
C4050 C 0.83798 0.23946 0.15487 0.0
C4051 C 0.82081 0.23376 0.15681 0.0
C4052 C 0.84808 0.25531 0.16673 0.0
C4053 C 0.86606 0.26234 0.16457 0.0
C4054 C 0.87851 0.25139 0.16684 0.0
C4055 C 0.89542 0.25813 0.16463 0.0
C4056 C 0.90006 0.27585 0.16026 0.0
C4057 C 0.8878 0.28689 0.15816 0.0
C4058 C 0.87087 0.2802 0.16035 0.0
C4059 C 0.82113 0.27755 0.2346 0.0
C4060 C 0.80457 0.28135 0.23259 0.0
C4061 C 0.8275 0.27049 0.21858 0.0
C4062 C 0.81758 0.26761 0.20026 0.0
C4063 C 0.80147 0.27273 0.19824 0.0
C4064 C 0.79481 0.27904 0.21435 0.0
C4065 C 0.82387 0.25841 0.18364 0.0
C4066 C 0.84092 0.26461 0.18101 0.0
C4067 C 0.81356 0.24301 0.17093 0.0
C4068 C 0.79531 0.23584 0.17195 0.0
C4069 C 0.78257 0.23559 0.15629 0.0
C4070 C 0.76532 0.22861 0.15689 0.0
C4071 C 0.76066 0.22166 0.17303 0.0
C4072 C 0.77325 0.22168 0.18857 0.0
C4073 C 0.79054 0.22875 0.18809 0.0
H4074 H 0.74731 0.21619 0.17346 0.0
H4075 H 0.91316 0.28104 0.15856 0.0
H4076 H 0.15066 0.50419 0.35744 0.0
H4077 H 0.13851 0.50604 0.3874 0.0
H4078 H 0.09073 0.51312 0.35663 0.0
H4079 H 0.10284 0.51189 0.32735 0.0
H4080 H 0.0945 0.53484 0.38636 0.0
H4081 H 0.0997 0.4714 0.37802 0.0
H4082 H 0.11436 0.44513 0.37413 0.0
H4083 H 0.14742 0.46651 0.4278 0.0
H4084 H 0.13307 0.49303 0.43189 0.0
H4085 H 0.03833 0.51663 0.4546 0.0
H4086 H 0.05384 0.51394 0.42748 0.0
H4087 H 0.10144 0.52152 0.46616 0.0
H4088 H 0.08594 0.5244 0.49351 0.0
H4089 H 0.09973 0.49348 0.43459 0.0
H4090 H 0.0925 0.55615 0.44291 0.0
H4091 H 0.07635 0.58121 0.44651 0.0
H4092 H 0.04536 0.55951 0.39169 0.0
H4093 H 0.06117 0.53415 0.38788 0.0
C4094 C 0.1375 0.5059 0.35699 0.0
C4095 C 0.12793 0.50787 0.33953 0.0
C4096 C 0.13042 0.50695 0.37433 0.0
C4097 C 0.11338 0.50973 0.37489 0.0
C4098 C 0.10386 0.51122 0.35729 0.0
C4099 C 0.11091 0.51038 0.34022 0.0
C4100 C 0.10535 0.5117 0.39336 0.0
C4101 C 0.09557 0.52549 0.39662 0.0
C4102 C 0.10673 0.50012 0.40762 0.0
C4103 C 0.11547 0.48432 0.40513 0.0
C4104 C 0.11019 0.47058 0.3889 0.0
C4105 C 0.11842 0.45563 0.38668 0.0
C4106 C 0.13185 0.45419 0.40067 0.0
C4107 C 0.13704 0.46767 0.41694 0.0
C4108 C 0.12887 0.48266 0.41923 0.0
C4109 C 0.05212 0.51782 0.45752 0.0
C4110 C 0.06067 0.5209 0.47665 0.0
C4111 C 0.06109 0.51627 0.44179 0.0
C4112 C 0.07907 0.51756 0.44432 0.0
C4113 C 0.08766 0.52042 0.46341 0.0
C4114 C 0.07869 0.52219 0.47921 0.0
C4115 C 0.08869 0.51628 0.42713 0.0
C4116 C 0.09873 0.50273 0.4242 0.0
C4117 C 0.0874 0.5279 0.413 0.0
C4118 C 0.07792 0.54316 0.41519 0.0
C4119 C 0.08215 0.55664 0.43169 0.0
C4120 C 0.07308 0.57091 0.43376 0.0
C4121 C 0.05981 0.57192 0.41936 0.0
C4122 C 0.05563 0.55869 0.40284 0.0
C4123 C 0.06465 0.54438 0.40071 0.0
H4124 H 0.0528 0.58298 0.42099 0.0
H4125 H 0.1382 0.44259 0.39893 0.0
H4126 H 0.79786 0.83312 0.58256 0.0
H4127 H 0.7973 0.81562 0.60911 0.0
H4128 H 0.81561 0.86607 0.64917 0.0
H4129 H 0.81653 0.88361 0.62266 0.0
H4130 H 0.83082 0.83966 0.66076 0.0
H4131 H 0.77283 0.84503 0.63972 0.0
H4132 H 0.74639 0.84228 0.61661 0.0
H4133 H 0.74231 0.78367 0.60448 0.0
H4134 H 0.76887 0.78611 0.62735 0.0
H4135 H 0.8018 0.80913 0.74353 0.0
H4136 H 0.80736 0.82461 0.71629 0.0
H4137 H 0.79201 0.77243 0.67858 0.0
H4138 H 0.78646 0.75685 0.70583 0.0
H4139 H 0.77606 0.79872 0.6654 0.0
H4140 H 0.8336 0.79383 0.689 0.0
H4141 H 0.85903 0.79742 0.7138 0.0
H4142 H 0.86328 0.85614 0.72248 0.0
H4143 H 0.83766 0.85288 0.698 0.0
C4144 C 0.8019 0.84049 0.59701 0.0
C4145 C 0.80715 0.8598 0.60046 0.0
C4146 C 0.8015 0.83046 0.61221 0.0
C4147 C 0.80616 0.83952 0.63122 0.0
C4148 C 0.81193 0.85873 0.63467 0.0
C4149 C 0.8124 0.86876 0.61947 0.0
C4150 C 0.8045 0.82907 0.6475 0.0
C4151 C 0.8188 0.83084 0.66185 0.0
C4152 C 0.7889 0.8173 0.64886 0.0
C4153 C 0.77295 0.81579 0.63508 0.0
C4154 C 0.76638 0.83158 0.63201 0.0
C4155 C 0.75135 0.83007 0.61897 0.0
C4156 C 0.7427 0.81282 0.60904 0.0
C4157 C 0.74904 0.79703 0.61216 0.0
C4158 C 0.76407 0.79847 0.62516 0.0
C4159 C 0.79991 0.8009 0.72949 0.0
C4160 C 0.79372 0.78176 0.72683 0.0
C4161 C 0.80308 0.80978 0.71391 0.0
C4162 C 0.80016 0.79969 0.69536 0.0
C4163 C 0.79434 0.7805 0.69275 0.0
C4164 C 0.79124 0.77161 0.70834 0.0
C4165 C 0.80237 0.80928 0.67861 0.0
C4166 C 0.78813 0.8074 0.66421 0.0
C4167 C 0.81796 0.82105 0.67732 0.0
C4168 C 0.83361 0.82309 0.69176 0.0
C4169 C 0.83988 0.8075 0.69628 0.0
C4170 C 0.85434 0.80948 0.71028 0.0
C4171 C 0.86274 0.82699 0.71973 0.0
C4172 C 0.85674 0.84258 0.71516 0.0
C4173 C 0.84226 0.84067 0.70121 0.0
H4174 H 0.87392 0.82849 0.73057 0.0
H4175 H 0.73107 0.81168 0.59896 0.0
H4176 H 0.70125 0.42331 0.52222 0.0
H4177 H 0.68263 0.43333 0.54385 0.0
H4178 H 0.65404 0.37759 0.53737 0.0
H4179 H 0.67304 0.36722 0.51574 0.0
H4180 H 0.63444 0.40594 0.53097 0.0
H4181 H 0.67458 0.39262 0.57915 0.0
H4182 H 0.70331 0.39163 0.59579 0.0
H4183 H 0.71603 0.45076 0.6069 0.0
H4184 H 0.68749 0.45215 0.59008 0.0
H4185 H 0.58951 0.46392 0.57707 0.0
H4186 H 0.60321 0.43718 0.57725 0.0
H4187 H 0.65249 0.47274 0.57967 0.0
H4188 H 0.63881 0.49944 0.58019 0.0
H4189 H 0.65683 0.44322 0.59506 0.0
H4190 H 0.62377 0.45605 0.53756 0.0
H4191 H 0.5977 0.45907 0.51658 0.0
H4192 H 0.57447 0.40318 0.51887 0.0
H4193 H 0.60026 0.39998 0.54026 0.0
C4194 C 0.69104 0.41311 0.52536 0.0
C4195 C 0.68854 0.39448 0.51722 0.0
C4196 C 0.68055 0.41884 0.53792 0.0
C4197 C 0.66724 0.40611 0.54247 0.0
C4198 C 0.66446 0.38751 0.53421 0.0
C4199 C 0.67521 0.38167 0.52181 0.0
C4200 C 0.65545 0.41308 0.55442 0.0
C4201 C 0.63901 0.41352 0.54531 0.0
C4202 C 0.66167 0.42316 0.57295 0.0
C4203 C 0.67884 0.42247 0.58334 0.0
C4204 C 0.68352 0.40542 0.58507 0.0
C4205 C 0.69979 0.40479 0.59454 0.0
C4206 C 0.71149 0.42112 0.6024 0.0
C4207 C 0.70694 0.43812 0.60084 0.0
C4208 C 0.69069 0.43884 0.59137 0.0
C4209 C 0.60335 0.46604 0.57861 0.0
C4210 C 0.61315 0.48357 0.57842 0.0
C4211 C 0.61116 0.45078 0.57862 0.0
C4212 C 0.62879 0.45291 0.5779 0.0
C4213 C 0.63884 0.47076 0.58012 0.0
C4214 C 0.63105 0.48604 0.58043 0.0
C4215 C 0.63625 0.43698 0.57108 0.0
C4216 C 0.65185 0.43487 0.58116 0.0
C4217 C 0.62948 0.42572 0.55313 0.0
C4218 C 0.61374 0.42792 0.54091 0.0
C4219 C 0.61297 0.44451 0.53388 0.0
C4220 C 0.59825 0.44626 0.52192 0.0
C4221 C 0.58432 0.43143 0.51668 0.0
C4222 C 0.58515 0.41476 0.52323 0.0
C4223 C 0.59978 0.41298 0.53532 0.0
H4224 H 0.57295 0.43279 0.50738 0.0
H4225 H 0.72407 0.4206 0.60972 0.0
H4226 H 0.21299 0.09707 0.48005 0.0
H4227 H 0.1843 0.08034 0.48239 0.0
H4228 H 0.17434 0.12919 0.51455 0.0
H4229 H 0.20285 0.1461 0.51197 0.0
H4230 H 0.16662 0.09588 0.53105 0.0
H4231 H 0.15515 0.11832 0.47148 0.0
H4232 H 0.15987 0.12298 0.43899 0.0
H4233 H 0.14957 0.0644 0.42084 0.0
H4234 H 0.14502 0.05939 0.45331 0.0
H4235 H 0.07905 0.05834 0.53306 0.0
H4236 H 0.10565 0.07864 0.52958 0.0
H4237 H 0.11287 0.03826 0.48394 0.0
H4238 H 0.08578 0.01863 0.48655 0.0
H4239 H 0.12184 0.06927 0.47453 0.0
H4240 H 0.13515 0.04563 0.53284 0.0
H4241 H 0.13161 0.0393 0.56518 0.0
H4242 H 0.14003 0.09737 0.58576 0.0
H4243 H 0.14339 0.10403 0.55346 0.0
C4244 C 0.20464 0.10429 0.48748 0.0
C4245 C 0.21018 0.12292 0.49577 0.0
C4246 C 0.18826 0.09471 0.4888 0.0
C4247 C 0.17719 0.10353 0.49864 0.0
C4248 C 0.18268 0.12213 0.50692 0.0
C4249 C 0.19894 0.13179 0.50533 0.0
C4250 C 0.16 0.09323 0.50054 0.0
C4251 C 0.15671 0.09026 0.51875 0.0
C4252 C 0.14728 0.0855 0.48443 0.0
C4253 C 0.1499 0.08849 0.46487 0.0
C4254 C 0.15403 0.10644 0.4606 0.0
C4255 C 0.15665 0.10914 0.44218 0.0
C4256 C 0.15506 0.094 0.42787 0.0
C4257 C 0.15081 0.07612 0.43194 0.0
C4258 C 0.14819 0.07334 0.45035 0.0
C4259 C 0.08624 0.05394 0.52215 0.0
C4260 C 0.08032 0.03693 0.51005 0.0
C4261 C 0.10157 0.06546 0.5203 0.0
C4262 C 0.11157 0.05991 0.50671 0.0
C4263 C 0.10549 0.04296 0.49453 0.0
C4264 C 0.09 0.03167 0.49608 0.0
C4265 C 0.12838 0.07158 0.50512 0.0
C4266 C 0.13166 0.07487 0.48693 0.0
C4267 C 0.14123 0.07929 0.52124 0.0
C4268 C 0.13934 0.07532 0.5407 0.0
C4269 C 0.13614 0.05704 0.54424 0.0
C4270 C 0.13417 0.0534 0.56256 0.0
C4271 C 0.13554 0.06792 0.5775 0.0
C4272 C 0.13894 0.08613 0.57416 0.0
C4273 C 0.14088 0.08985 0.55586 0.0
H4274 H 0.13401 0.06507 0.59167 0.0
H4275 H 0.15709 0.09612 0.41361 0.0
H4276 H 0.13918 0.97622 0.80672 0.0
H4277 H 0.15095 0.94812 0.80565 0.0
H4278 H 0.19862 0.97782 0.79382 0.0
H4279 H 0.18697 1.00596 0.79483 0.0
H4280 H 0.18568 0.94468 0.76906 0.0
H4281 H 0.1962 0.96701 0.83737 0.0
H4282 H 0.18723 0.97722 0.86799 0.0
H4283 H 0.15276 0.9251 0.86294 0.0
H4284 H 0.16137 0.91468 0.83216 0.0
H4285 H 0.24289 0.88544 0.78145 0.0
H4286 H 0.22757 0.91081 0.78294 0.0
H4287 H 0.18738 0.87818 0.8057 0.0
H4288 H 0.20339 0.85307 0.80532 0.0
H4289 H 0.19325 0.91087 0.82378 0.0
H4290 H 0.1829 0.88701 0.7574 0.0
H4291 H 0.18996 0.87586 0.72602 0.0
H4292 H 0.22098 0.92895 0.72571 0.0
H4293 H 0.21431 0.94036 0.75721 0.0
C4294 C 0.15222 0.9768 0.80404 0.0
C4295 C 0.16216 0.9933 0.80086 0.0
C4296 C 0.15892 0.96075 0.80346 0.0
C4297 C 0.17565 0.96094 0.7997 0.0
C4298 C 0.18566 0.97741 0.79671 0.0
C4299 C 0.17901 0.99348 0.79738 0.0
C4300 C 0.18266 0.94387 0.79836 0.0
C4301 C 0.18752 0.93735 0.78105 0.0
C4302 C 0.1843 0.93393 0.81378 0.0
C4303 C 0.1793 0.94014 0.83239 0.0
C4304 C 0.18662 0.95778 0.84273 0.0
C4305 C 0.18162 0.96359 0.86012 0.0
C4306 C 0.1694 0.95183 0.86738 0.0
C4307 C 0.1622 0.93421 0.85729 0.0
C4308 C 0.16715 0.92833 0.83989 0.0
C4309 C 0.2307 0.88364 0.7866 0.0
C4310 C 0.22415 0.86723 0.79297 0.0
C4311 C 0.22189 0.89811 0.78736 0.0
C4312 C 0.20604 0.89628 0.79391 0.0
C4313 C 0.19951 0.87989 0.80043 0.0
C4314 C 0.20859 0.86553 0.80014 0.0
C4315 C 0.1967 0.91178 0.79453 0.0
C4316 C 0.19132 0.91802 0.81167 0.0
C4317 C 0.19425 0.92127 0.7788 0.0
C4318 C 0.19818 0.9145 0.75975 0.0
C4319 C 0.1913 0.89628 0.75069 0.0
C4320 C 0.19523 0.88992 0.73288 0.0
C4321 C 0.20593 0.90168 0.72389 0.0
C4322 C 0.2127 0.91985 0.73269 0.0
C4323 C 0.20883 0.92629 0.75052 0.0
H4324 H 0.20897 0.89672 0.7101 0.0
H4325 H 0.16553 0.95637 0.88084 0.0
H4326 H 0.27966 0.92143 0.97029 0.0
H4327 H 0.3096 0.93708 0.9721 0.0
H4328 H 0.31955 0.93263 0.03196 0.0
H4329 H 0.29007 0.91609 0.02987 0.0
H4330 H 0.32972 0.96692 0.99031 0.0
H4331 H 0.3591 0.92596 0.04491 0.0
H4332 H 0.35214 0.89585 0.0557 0.0
H4333 H 0.32239 0.87239 1.00063 0.0
H4334 H 0.32934 0.90227 0.98944 0.0
H4335 H 0.41726 0.00807 0.02037 0.0
H4336 H 0.3876 0.99387 0.02177 0.0
H4337 H 0.39372 0.9436 0.98856 0.0
H4338 H 0.42352 0.95746 0.98766 0.0
H4339 H 0.37575 0.93634 0.0165 0.0
H4340 H 0.37487 0.97387 0.96709 0.0
H4341 H 0.38154 1.00248 0.95352 0.0
H4342 H 0.35415 0.02949 0.99248 0.0
H4343 H 0.34752 1.00108 0.00648 0.0
C4344 C 0.28827 0.92395 0.98382 0.0
C4345 C 0.28276 0.91738 0.99986 0.0
C4346 C 0.30532 0.93288 0.98487 0.0
C4347 C 0.31692 0.93559 1.00206 0.0
C4348 C 0.311 0.93015 0.01841 0.0
C4349 C 0.29415 0.92081 0.01723 0.0
C4350 C 0.33532 0.94349 1.00277 0.0
C4351 C 0.33977 0.96023 0.99606 0.0
C4352 C 0.34845 0.93463 0.01004 0.0
C4353 C 0.34462 0.91641 0.01641 0.0
C4354 C 0.35116 0.91434 0.03507 0.0
C4355 C 0.3472 0.89733 0.04127 0.0
C4356 C 0.33678 0.88224 0.02888 0.0
C4357 C 0.33041 0.8841 0.01023 0.0
C4358 C 0.33435 0.90108 0.00396 0.0
C4359 C 0.41237 0.99389 0.01364 0.0
C4360 C 0.42263 0.98393 0.00371 0.0
C4361 C 0.39541 0.98586 0.01433 0.0
C4362 C 0.38844 0.9678 0.00502 0.0
C4363 C 0.39886 0.95759 0.99576 0.0
C4364 C 0.41581 0.96559 0.99509 0.0
C4365 C 0.37008 0.95976 0.00415 0.0
C4366 C 0.36567 0.94302 0.01085 0.0
C4367 C 0.35698 0.96836 0.99641 0.0
C4368 C 0.36085 0.98542 0.98796 0.0
C4369 C 0.37038 0.98595 0.97286 0.0
C4370 C 0.37414 1.00212 0.96508 0.0
C4371 C 0.36831 0.01781 0.97217 0.0
C4372 C 0.35867 0.01733 0.98703 0.0
C4373 C 0.3549 1.0012 0.99488 0.0
H4374 H 0.37123 0.03031 0.96613 0.0
H4375 H 0.33367 0.86911 0.03373 0.0
H4376 H 0.85794 0.58308 0.74301 0.0
H4377 H 0.84445 0.61019 0.74382 0.0
H4378 H 0.88591 0.64069 0.78719 0.0
H4379 H 0.8996 0.61367 0.78616 0.0
H4380 H 0.85552 0.64843 0.79635 0.0
H4381 H 0.8818 0.64999 0.74045 0.0
H4382 H 0.88845 0.63793 0.70914 0.0
H4383 H 0.83501 0.62797 0.68488 0.0
H4384 H 0.82803 0.63979 0.71613 0.0
H4385 H 0.836 0.73949 0.7887 0.0
H4386 H 0.85026 0.71284 0.78762 0.0
H4387 H 0.80631 0.67965 0.7495 0.0
H4388 H 0.79176 0.706 0.75113 0.0
H4389 H 0.83826 0.67362 0.73765 0.0
H4390 H 0.81169 0.67168 0.79269 0.0
H4391 H 0.80404 0.68164 0.82406 0.0
H4392 H 0.85704 0.6913 0.84988 0.0
H4393 H 0.86507 0.68167 0.81853 0.0
C4394 C 0.8643 0.59551 0.75276 0.0
C4395 C 0.88008 0.59575 0.7645 0.0
C4396 C 0.85651 0.61126 0.75317 0.0
C4397 C 0.86394 0.62806 0.76553 0.0
C4398 C 0.87959 0.62823 0.77746 0.0
C4399 C 0.88754 0.61257 0.77681 0.0
C4400 C 0.85546 0.64518 0.76604 0.0
C4401 C 0.85206 0.654 0.78346 0.0
C4402 C 0.85027 0.65276 0.74942 0.0
C4403 C 0.85437 0.64557 0.73066 0.0
C4404 C 0.87145 0.64507 0.72848 0.0
C4405 C 0.87529 0.63832 0.71074 0.0
C4406 C 0.86215 0.63213 0.69505 0.0
C4407 C 0.84517 0.63274 0.69706 0.0
C4408 C 0.84127 0.63948 0.71477 0.0
C4409 C 0.82928 0.72657 0.78004 0.0
C4410 C 0.81249 0.7253 0.77004 0.0
C4411 C 0.83753 0.71112 0.77946 0.0
C4412 C 0.8296 0.69373 0.76848 0.0
C4413 C 0.81302 0.6926 0.75812 0.0
C4414 C 0.80459 0.70788 0.75911 0.0
C4415 C 0.83837 0.67686 0.76796 0.0
C4416 C 0.8418 0.66809 0.75055 0.0
C4417 C 0.84354 0.66931 0.78458 0.0
C4418 C 0.839 0.67616 0.80322 0.0
C4419 C 0.82176 0.67623 0.80498 0.0
C4420 C 0.81734 0.68173 0.82277 0.0
C4421 C 0.83004 0.68706 0.83894 0.0
C4422 C 0.84723 0.68715 0.83732 0.0
C4423 C 0.85172 0.68168 0.81955 0.0
H4424 H 0.82653 0.69094 0.85273 0.0
H4425 H 0.86514 0.62691 0.68132 0.0
H4426 H 0.82232 0.64135 1.00026 0.0
H4427 H 0.8505 0.63247 1.00174 0.0
H4428 H 0.82924 0.58099 0.01862 0.0
H4429 H 0.80145 0.58973 0.01744 0.0
H4430 H 0.85839 0.59669 0.04139 0.0
H4431 H 0.83849 0.58422 0.97299 0.0
H4432 H 0.82845 0.59247 0.94175 0.0
H4433 H 0.87508 0.63263 0.94697 0.0
H4434 H 0.88529 0.62477 0.97838 0.0
H4435 H 0.91334 0.53579 0.02678 0.0
H4436 H 0.88935 0.55157 0.0227 0.0
H4437 H 0.92316 0.59953 0.01206 0.0
H4438 H 0.94752 0.58387 0.0165 0.0
H4439 H 0.89102 0.59108 0.9875 0.0
H4440 H 0.91211 0.60095 0.0544 0.0
H4441 H 0.92218 0.59214 0.08533 0.0
H4442 H 0.87315 0.55685 0.08294 0.0
H4443 H 0.86286 0.56524 0.05184 0.0
C4444 C 0.82366 0.6281 0.00415 0.0
C4445 C 0.80958 0.61633 0.00883 0.0
C4446 C 0.83977 0.62302 0.00496 0.0
C4447 C 0.84204 0.60604 0.01032 0.0
C4448 C 0.82791 0.59421 0.0146 0.0
C4449 C 0.81194 0.59926 0.01386 0.0
C4450 C 0.85908 0.60049 0.01217 0.0
C4451 C 0.86544 0.59539 0.02954 0.0
C4452 C 0.86869 0.59937 0.99698 0.0
C4453 C 0.86255 0.60408 0.97813 0.0
C4454 C 0.84653 0.59492 0.96755 0.0
C4455 C 0.84083 0.5995 0.9498 0.0
C4456 C 0.8511 0.61311 0.94241 0.0
C4457 C 0.86712 0.62212 0.95273 0.0
C4458 C 0.87288 0.61761 0.9705 0.0
C4459 C 0.91579 0.54975 0.02373 0.0
C4460 C 0.9325 0.55865 0.02236 0.0
C4461 C 0.902 0.55872 0.02128 0.0
C4462 C 0.90448 0.57685 0.01739 0.0
C4463 C 0.92096 0.58556 0.01514 0.0
C4464 C 0.93486 0.57657 0.01765 0.0
C4465 C 0.88986 0.58667 0.01646 0.0
C4466 C 0.88405 0.59264 0.99939 0.0
C4467 C 0.88068 0.58861 0.03192 0.0
C4468 C 0.88676 0.58364 0.05072 0.0
C4469 C 0.90351 0.59122 0.0604 0.0
C4470 C 0.90925 0.58631 0.07797 0.0
C4471 C 0.89832 0.57392 0.08608 0.0
C4472 C 0.88161 0.56644 0.07664 0.0
C4473 C 0.87581 0.57129 0.05905 0.0
H4474 H 0.90279 0.57013 0.09968 0.0
H4475 H 0.84666 0.61663 0.92866 0.0
H4476 H 0.1877 0.08585 0.78808 0.0
H4477 H 0.21005 0.11199 0.78589 0.0
H4478 H 0.1802 0.14941 0.80955 0.0
H4479 H 0.15728 0.12323 0.8104 0.0
H4480 H 0.19159 0.16269 0.78286 0.0
H4481 H 0.21927 0.13918 0.83486 0.0
H4482 H 0.23004 0.11604 0.85216 0.0
H4483 H 0.26274 0.10667 0.81061 0.0
H4484 H 0.252 0.1296 0.79292 0.0
H4485 H 0.25917 0.24148 0.80326 0.0
H4486 H 0.23814 0.21467 0.80694 0.0
H4487 H 0.26126 0.17963 0.76974 0.0
H4488 H 0.2823 0.20666 0.76586 0.0
H4489 H 0.25376 0.16551 0.80313 0.0
H4490 H 0.22564 0.19277 0.75313 0.0
H4491 H 0.21555 0.2185 0.73991 0.0
H4492 H 0.1835 0.2233 0.78296 0.0
H4493 H 0.19383 0.19802 0.79687 0.0
C4494 C 0.18603 0.09966 0.79302 0.0
C4495 C 0.17081 0.10254 0.79948 0.0
C4496 C 0.19887 0.11464 0.79187 0.0
C4497 C 0.19705 0.1328 0.79784 0.0
C4498 C 0.18197 0.1356 0.80477 0.0
C4499 C 0.1689 0.12064 0.80537 0.0
C4500 C 0.21041 0.14887 0.79601 0.0
C4501 C 0.20515 0.16336 0.78761 0.0
C4502 C 0.2282 0.14979 0.80187 0.0
C4503 C 0.2347 0.13598 0.81247 0.0
C4504 C 0.22866 0.13209 0.82934 0.0
C4505 C 0.23478 0.11902 0.83923 0.0
C4506 C 0.24703 0.10986 0.83246 0.0
C4507 C 0.25323 0.11377 0.81582 0.0
C4508 C 0.24714 0.12681 0.80587 0.0
C4509 C 0.25961 0.22808 0.7957 0.0
C4510 C 0.27207 0.22613 0.78398 0.0
C4511 C 0.24768 0.21278 0.79789 0.0
C4512 C 0.248 0.19522 0.78841 0.0
C4513 C 0.26077 0.19311 0.77711 0.0
C4514 C 0.27272 0.2085 0.77487 0.0
C4515 C 0.23484 0.17913 0.79015 0.0
C4516 C 0.24016 0.1647 0.79847 0.0
C4517 C 0.21709 0.17854 0.78477 0.0
C4518 C 0.21063 0.19356 0.77615 0.0
C4519 C 0.21656 0.19941 0.7599 0.0
C4520 C 0.2108 0.21394 0.75229 0.0
C4521 C 0.19892 0.22256 0.76062 0.0
C4522 C 0.19272 0.21663 0.77654 0.0
C4523 C 0.19856 0.20223 0.78432 0.0
H4524 H 0.1945 0.23383 0.75473 0.0
H4525 H 0.25175 0.09975 0.84014 0.0
H4526 H 0.36667 0.98756 0.28238 0.0
H4527 H 0.34968 0.9569 0.28392 0.0
H4528 H 0.37242 0.93271 0.23821 0.0
H4529 H 0.38957 0.96297 0.23697 0.0
H4530 H 0.33732 0.91775 0.23358 0.0
H4531 H 0.38645 0.9288 0.28354 0.0
H4532 H 0.4057 0.94597 0.31263 0.0
H4533 H 0.36363 0.94049 0.3441 0.0
H4534 H 0.34407 0.9235 0.31509 0.0
H4535 H 0.31446 0.82167 0.24021 0.0
H4536 H 0.32868 0.85301 0.23809 0.0
H4537 H 0.31642 0.87257 0.29298 0.0
H4538 H 0.30297 0.84111 0.29552 0.0
H4539 H 0.34523 0.89095 0.29311 0.0
H4540 H 0.29593 0.87892 0.24459 0.0
H4541 H 0.27562 0.86303 0.21574 0.0
H4542 H 0.31553 0.872 0.18167 0.0
H4543 H 0.33624 0.88742 0.21041 0.0
C4544 C 0.36785 0.97578 0.27243 0.0
C4545 C 0.37955 0.97803 0.25945 0.0
C4546 C 0.35819 0.9581 0.27342 0.0
C4547 C 0.35966 0.94209 0.26125 0.0
C4548 C 0.37084 0.94454 0.24782 0.0
C4549 C 0.38071 0.96203 0.24712 0.0
C4550 C 0.35014 0.9228 0.26268 0.0
C4551 C 0.33918 0.91185 0.24658 0.0
C4552 C 0.35202 0.91491 0.27967 0.0
C4553 C 0.36376 0.92508 0.2971 0.0
C4554 C 0.38127 0.9314 0.29662 0.0
C4555 C 0.39225 0.94107 0.3131 0.0
C4556 C 0.38589 0.94437 0.33019 0.0
C4557 C 0.36854 0.93796 0.33084 0.0
C4558 C 0.3575 0.9283 0.31439 0.0
C4559 C 0.3147 0.83261 0.25185 0.0
C4560 C 0.30735 0.82851 0.26803 0.0
C4561 C 0.32282 0.8508 0.25057 0.0
C4562 C 0.32359 0.86582 0.26519 0.0
C4563 C 0.31624 0.86165 0.28135 0.0
C4564 C 0.30838 0.84344 0.28278 0.0
C4565 C 0.33221 0.88564 0.26393 0.0
C4566 C 0.34313 0.89673 0.28007 0.0
C4567 C 0.33006 0.89375 0.24701 0.0
C4568 C 0.3177 0.88415 0.22973 0.0
C4569 C 0.30044 0.87732 0.23099 0.0
C4570 C 0.28885 0.86839 0.21465 0.0
C4571 C 0.29429 0.86647 0.19689 0.0
C4572 C 0.31134 0.87347 0.19545 0.0
C4573 C 0.32303 0.88224 0.21177 0.0
H4574 H 0.2853 0.85955 0.18425 0.0
H4575 H 0.3944 0.95186 0.34294 0.0
H4576 H 0.54686 0.32552 0.5822 0.0
H4577 H 0.54275 0.35237 0.56718 0.0
H4578 H 0.56275 0.38799 0.62107 0.0
H4579 H 0.5662 0.36117 0.63624 0.0
H4580 H 0.53738 0.3998 0.6058 0.0
H4581 H 0.58648 0.38399 0.58214 0.0
H4582 H 0.60398 0.36438 0.56662 0.0
H4583 H 0.56785 0.35428 0.51448 0.0
H4584 H 0.55001 0.37364 0.52978 0.0
H4585 H 0.55656 0.48338 0.56601 0.0
H4586 H 0.55974 0.45603 0.58064 0.0
H4587 H 0.52501 0.42157 0.53298 0.0
H4588 H 0.52104 0.449 0.51872 0.0
H4589 H 0.55749 0.40955 0.54475 0.0
H4590 H 0.50972 0.42856 0.57056 0.0
H4591 H 0.49514 0.45061 0.58742 0.0
H4592 H 0.53302 0.45749 0.63767 0.0
H4593 H 0.54801 0.43573 0.62101 0.0
C4594 C 0.5504 0.33908 0.59083 0.0
C4595 C 0.55688 0.34115 0.61043 0.0
C4596 C 0.54815 0.35449 0.5822 0.0
C4597 C 0.55266 0.37241 0.59285 0.0
C4598 C 0.55911 0.37443 0.61245 0.0
C4599 C 0.56114 0.35903 0.62112 0.0
C4600 C 0.55043 0.38899 0.58375 0.0
C4601 C 0.54203 0.40199 0.59258 0.0
C4602 C 0.55627 0.39197 0.56635 0.0
C4603 C 0.5668 0.38008 0.55718 0.0
C4604 C 0.58217 0.37742 0.56743 0.0
C4605 C 0.59217 0.36637 0.55866 0.0
C4606 C 0.58699 0.35802 0.5396 0.0
C4607 C 0.57182 0.36071 0.52926 0.0
C4608 C 0.56175 0.37171 0.53798 0.0
C4609 C 0.54965 0.46998 0.55859 0.0
C4610 C 0.53853 0.46835 0.5412 0.0
C4611 C 0.55148 0.45437 0.56698 0.0
C4612 C 0.54265 0.43676 0.5579 0.0
C4613 C 0.53193 0.43503 0.54025 0.0
C4614 C 0.52967 0.4507 0.53214 0.0
C4615 C 0.54462 0.42018 0.56683 0.0
C4616 C 0.55295 0.40725 0.55797 0.0
C4617 C 0.53913 0.41754 0.58442 0.0
C4618 C 0.53011 0.43065 0.59445 0.0
C4619 C 0.51505 0.43492 0.58513 0.0
C4620 C 0.50669 0.44734 0.59467 0.0
C4621 C 0.51318 0.4555 0.61358 0.0
C4622 C 0.52802 0.4512 0.62301 0.0
C4623 C 0.53645 0.43881 0.61353 0.0
H4624 H 0.50671 0.46512 0.62093 0.0
H4625 H 0.59478 0.34952 0.53282 0.0
H4626 H 0.44826 0.74562 0.39746 0.0
H4627 H 0.41824 0.74647 0.38529 0.0
H4628 H 0.43482 0.77369 0.33956 0.0
H4629 H 0.46446 0.77301 0.35149 0.0
H4630 H 0.41351 0.79141 0.35726 0.0
H4631 H 0.41516 0.7279 0.33243 0.0
H4632 H 0.41897 0.69633 0.33552 0.0
H4633 H 0.37912 0.69046 0.37002 0.0
H4634 H 0.37522 0.7221 0.36733 0.0
H4635 H 0.34738 0.78362 0.28177 0.0
H4636 H 0.37253 0.78116 0.30367 0.0
H4637 H 0.33989 0.75447 0.33928 0.0
H4638 H 0.31436 0.75658 0.31688 0.0
H4639 H 0.36646 0.7369 0.33403 0.0
H4640 H 0.36158 0.79855 0.35434 0.0
H4641 H 0.35733 0.82985 0.35066 0.0
H4642 H 0.40304 0.83953 0.32538 0.0
H4643 H 0.40743 0.80819 0.32863 0.0
C4644 C 0.44546 0.75162 0.38471 0.0
C4645 C 0.45885 0.75933 0.37555 0.0
C4646 C 0.42829 0.7521 0.37777 0.0
C4647 C 0.42425 0.76024 0.36153 0.0
C4648 C 0.43758 0.7675 0.35219 0.0
C4649 C 0.45459 0.76703 0.35906 0.0
C4650 C 0.40634 0.76187 0.35423 0.0
C4651 C 0.40324 0.77947 0.35215 0.0
C4652 C 0.39268 0.74641 0.34827 0.0
C4653 C 0.39506 0.72743 0.34989 0.0
C4654 C 0.40732 0.71993 0.34082 0.0
C4655 C 0.40947 0.70202 0.34247 0.0
C4656 C 0.39934 0.69142 0.35302 0.0
C4657 C 0.38699 0.6987 0.3619 0.0
C4658 C 0.3848 0.71661 0.36031 0.0
C4659 C 0.34549 0.77734 0.29433 0.0
C4660 C 0.32888 0.77036 0.29764 0.0
C4661 C 0.35992 0.776 0.30691 0.0
C4662 C 0.35818 0.76785 0.32331 0.0
C4663 C 0.34158 0.76089 0.32677 0.0
C4664 C 0.32701 0.76221 0.31406 0.0
C4665 C 0.37391 0.76638 0.3363 0.0
C4666 C 0.3766 0.74888 0.33951 0.0
C4667 C 0.38723 0.78196 0.34341 0.0
C4668 C 0.3848 0.80096 0.34168 0.0
C4669 C 0.37069 0.80732 0.34791 0.0
C4670 C 0.36825 0.82507 0.3459 0.0
C4671 C 0.3799 0.83666 0.33778 0.0
C4672 C 0.39403 0.83054 0.33168 0.0
C4673 C 0.39652 0.81278 0.33364 0.0
H4674 H 0.37798 0.8504 0.33622 0.0
H4675 H 0.40102 0.67755 0.35427 0.0
H4676 H 0.07507 0.73689 0.09653 0.0
H4677 H 0.07146 0.70571 0.07866 0.0
H4678 H 0.02606 0.6885 0.10318 0.0
H4679 H 0.03032 0.7194 0.12178 0.0
H4680 H 0.04474 0.66483 0.10651 0.0
H4681 H 0.02625 0.69393 0.05339 0.0
H4682 H 0.02868 0.71704 0.03176 0.0
H4683 H 0.07412 0.70057 0.01596 0.0
H4684 H 0.07208 0.67751 0.03767 0.0
H4685 H 0.01486 0.57736 0.0498 0.0
H4686 H 0.01739 0.61005 0.06164 0.0
H4687 H 0.06818 0.62166 0.04702 0.0
H4688 H 0.06586 0.58884 0.0352 0.0
H4689 H 0.04756 0.64795 0.03779 0.0
H4690 H 0.06588 0.61909 0.09081 0.0
H4691 H 0.06319 0.59553 0.11186 0.0
H4692 H 0.01761 0.6117 0.1276 0.0
H4693 H 0.01983 0.63514 0.10631 0.0
C4694 C 0.06411 0.7265 0.09767 0.0
C4695 C 0.0528 0.73049 0.11024 0.0
C4696 C 0.06201 0.70868 0.08744 0.0
C4697 C 0.04836 0.69465 0.08934 0.0
C4698 C 0.03671 0.69897 0.10143 0.0
C4699 C 0.03903 0.71666 0.11192 0.0
C4700 C 0.04689 0.67518 0.08001 0.0
C4701 C 0.04505 0.66121 0.0914 0.0
C4702 C 0.0479 0.67031 0.06041 0.0
C4703 C 0.0491 0.68412 0.04729 0.0
C4704 C 0.03683 0.69533 0.0454 0.0
C4705 C 0.03813 0.7084 0.03311 0.0
C4706 C 0.05157 0.7103 0.02253 0.0
C4707 C 0.06372 0.6991 0.02418 0.0
C4708 C 0.06249 0.68601 0.03646 0.0
C4709 C 0.02654 0.58682 0.04891 0.0
C4710 C 0.04022 0.58038 0.04166 0.0
C4711 C 0.02796 0.60554 0.05572 0.0
C4712 C 0.04303 0.61827 0.05536 0.0
C4713 C 0.05644 0.61206 0.04743 0.0
C4714 C 0.05511 0.59327 0.04076 0.0
C4715 C 0.04505 0.63784 0.06425 0.0
C4716 C 0.04713 0.65173 0.05285 0.0
C4717 C 0.0442 0.64269 0.08383 0.0
C4718 C 0.04293 0.62875 0.09681 0.0
C4719 C 0.0552 0.61753 0.09864 0.0
C4720 C 0.05377 0.60421 0.11064 0.0
C4721 C 0.04023 0.6021 0.12106 0.0
C4722 C 0.02809 0.61333 0.11951 0.0
C4723 C 0.02942 0.62664 0.10748 0.0
H4724 H 0.03915 0.59178 0.13035 0.0
H4725 H 0.05255 0.72043 0.01302 0.0
H4726 H 0.04787 0.25163 0.86116 0.0
H4727 H 0.07419 0.25244 0.84744 0.0
H4728 H 0.10329 0.25629 0.90364 0.0
H4729 H 0.077 0.25623 0.91753 0.0
H4730 H 0.12074 0.2783 0.88512 0.0
H4731 H 0.09257 0.21509 0.86998 0.0
H4732 H 0.06866 0.18869 0.85752 0.0
H4733 H 0.06684 0.20328 0.80135 0.0
H4734 H 0.0906 0.22991 0.81352 0.0
H4735 H 0.19502 0.26153 0.84561 0.0
H4736 H 0.17045 0.25799 0.8627 0.0
H4737 H 0.13643 0.25785 0.81053 0.0
H4738 H 0.16073 0.2606 0.79328 0.0
H4739 H 0.12278 0.23216 0.82933 0.0
H4740 H 0.15028 0.29693 0.84613 0.0
H4741 H 0.17485 0.32247 0.85925 0.0
H4742 H 0.17875 0.3034 0.91339 0.0
H4743 H 0.15429 0.27763 0.90052 0.0
C4744 C 0.05986 0.25261 0.87061 0.0
C4745 C 0.06032 0.25376 0.89043 0.0
C4746 C 0.07493 0.25297 0.86272 0.0
C4747 C 0.09076 0.25404 0.87442 0.0
C4748 C 0.09127 0.25539 0.89427 0.0
C4749 C 0.07622 0.2553 0.9022 0.0
C4750 C 0.10675 0.25396 0.8659 0.0
C4751 C 0.12124 0.26801 0.87312 0.0
C4752 C 0.1075 0.24066 0.85011 0.0
C4753 C 0.09328 0.22458 0.84271 0.0
C4754 C 0.087 0.21273 0.855 0.0
C4755 C 0.07348 0.19772 0.84798 0.0
C4756 C 0.06621 0.19433 0.82866 0.0
C4757 C 0.07248 0.20593 0.81631 0.0
C4758 C 0.08598 0.22097 0.82325 0.0
C4759 C 0.18229 0.26054 0.83774 0.0
C4760 C 0.17991 0.26156 0.81809 0.0
C4761 C 0.16825 0.2587 0.84758 0.0
C4762 C 0.15158 0.25795 0.83799 0.0
C4763 C 0.14916 0.25851 0.8183 0.0
C4764 C 0.16312 0.26028 0.80848 0.0
C4765 C 0.13656 0.2567 0.84828 0.0
C4766 C 0.12227 0.24235 0.84142 0.0
C4767 C 0.13608 0.2696 0.8645 0.0
C4768 C 0.15057 0.28527 0.87231 0.0
C4769 C 0.15644 0.29814 0.86081 0.0
C4770 C 0.17033 0.31266 0.8682 0.0
C4771 C 0.17839 0.31453 0.88713 0.0
C4772 C 0.17251 0.30192 0.89873 0.0
C4773 C 0.15861 0.28738 0.8914 0.0
H4774 H 0.18916 0.32576 0.89282 0.0
H4775 H 0.05574 0.1827 0.82326 0.0
H4776 H 0.51021 0.71807 0.88451 0.0
H4777 H 0.50529 0.69225 0.90215 0.0
H4778 H 0.49167 0.72781 0.94784 0.0
H4779 H 0.4975 0.7538 0.93069 0.0
H4780 H 0.51372 0.71113 0.962 0.0
H4781 H 0.46182 0.69075 0.91723 0.0
H4782 H 0.44343 0.68241 0.88562 0.0
H4783 H 0.47028 0.63919 0.87051 0.0
H4784 H 0.48901 0.64744 0.90192 0.0
H4785 H 0.49976 0.63853 0.01522 0.0
H4786 H 0.49096 0.66042 0.99507 0.0
H4787 H 0.51449 0.63627 0.9499 0.0
H4788 H 0.52317 0.61429 0.96986 0.0
H4789 H 0.48322 0.64688 0.93665 0.0
H4790 H 0.53755 0.67122 0.97925 0.0
H4791 H 0.55595 0.67942 0.01088 0.0
H4792 H 0.52338 0.7155 0.0298 0.0
H4793 H 0.50465 0.70729 0.99833 0.0
C4794 C 0.50596 0.72026 0.89821 0.0
C4795 C 0.50441 0.73789 0.90638 0.0
C4796 C 0.50298 0.70548 0.90821 0.0
C4797 C 0.49793 0.70802 0.92627 0.0
C4798 C 0.4956 0.72551 0.93397 0.0
C4799 C 0.49896 0.74035 0.9242 0.0
C4800 C 0.49702 0.69312 0.93807 0.0
C4801 C 0.50664 0.69721 0.95655 0.0
C4802 C 0.48815 0.67481 0.93087 0.0
C4803 C 0.47691 0.66981 0.91192 0.0
C4804 C 0.4639 0.67956 0.90712 0.0
C4805 C 0.45339 0.67483 0.88924 0.0
C4806 C 0.4557 0.66029 0.87605 0.0
C4807 C 0.46851 0.65045 0.88074 0.0
C4808 C 0.47906 0.65513 0.89859 0.0
C4809 C 0.50272 0.63768 1.00085 0.0
C4810 C 0.51236 0.62497 0.99414 0.0
C4811 C 0.4977 0.65014 0.98939 0.0
C4812 C 0.50221 0.64997 0.9711 0.0
C4813 C 0.51089 0.63655 0.96397 0.0
C4814 C 0.516 0.62419 0.97544 0.0
C4815 C 0.49986 0.66508 0.96032 0.0
C4816 C 0.48984 0.66097 0.94208 0.0
C4817 C 0.50826 0.68343 0.9677 0.0
C4818 C 0.5196 0.68847 0.98654 0.0
C4819 C 0.53425 0.68079 0.99021 0.0
C4820 C 0.54474 0.68545 0.00809 0.0
C4821 C 0.54081 0.69793 0.02236 0.0
C4822 C 0.52639 0.70581 0.01875 0.0
C4823 C 0.51583 0.70116 1.00089 0.0
H4824 H 0.54895 0.70153 0.0362 0.0
H4825 H 0.44754 0.65664 0.86222 0.0
H4826 H 0.1001 0.78436 0.67451 0.0
H4827 H 0.13099 0.78564 0.68175 0.0
H4828 H 0.12385 0.75972 0.73127 0.0
H4829 H 0.09296 0.75876 0.7244 0.0
H4830 H 0.15278 0.78566 0.73821 0.0
H4831 H 0.12619 0.73396 0.68964 0.0
H4832 H 0.10781 0.71905 0.6591 0.0
H4833 H 0.14094 0.75162 0.62856 0.0
H4834 H 0.1594 0.76692 0.65894 0.0
H4835 H 0.22653 0.73809 0.72865 0.0
H4836 H 0.19692 0.73861 0.71531 0.0
H4837 H 0.20966 0.79791 0.72168 0.0
H4838 H 0.23915 0.7976 0.73515 0.0
H4839 H 0.17783 0.75371 0.68675 0.0
H4840 H 0.18242 0.81344 0.74782 0.0
H4841 H 0.20044 0.8265 0.77903 0.0
H4842 H 0.21005 0.77294 0.78638 0.0
H4843 H 0.19197 0.75955 0.75527 0.0
C4844 C 0.10517 0.77919 0.68717 0.0
C4845 C 0.09417 0.77124 0.69881 0.0
C4846 C 0.12277 0.77989 0.69118 0.0
C4847 C 0.12959 0.77238 0.70676 0.0
C4848 C 0.11878 0.76548 0.71911 0.0
C4849 C 0.10115 0.76494 0.7152 0.0
C4850 C 0.14779 0.77074 0.70947 0.0
C4851 C 0.15824 0.77872 0.72695 0.0
C4852 C 0.15481 0.76133 0.69488 0.0
C4853 C 0.14408 0.7517 0.67657 0.0
C4854 C 0.12952 0.73798 0.67641 0.0
C4855 C 0.11909 0.72947 0.65914 0.0
C4856 C 0.12318 0.73446 0.64193 0.0
C4857 C 0.13779 0.74782 0.64192 0.0
C4858 C 0.14824 0.7564 0.65916 0.0
C4859 C 0.22318 0.75119 0.72661 0.0
C4860 C 0.235 0.76784 0.73339 0.0
C4861 C 0.20628 0.75144 0.71895 0.0
C4862 C 0.20115 0.76832 0.71796 0.0
C4863 C 0.21341 0.78478 0.72262 0.0
C4864 C 0.23023 0.78456 0.73036 0.0
C4865 C 0.18277 0.769 0.71526 0.0
C4866 C 0.17232 0.76075 0.6979 0.0
C4867 C 0.17561 0.77773 0.73011 0.0
C4868 C 0.18596 0.78555 0.74918 0.0
C4869 C 0.18831 0.80445 0.75616 0.0
C4870 C 0.19859 0.81192 0.77381 0.0
C4871 C 0.2065 0.8006 0.78466 0.0
C4872 C 0.20404 0.78174 0.77793 0.0
C4873 C 0.19378 0.7742 0.76028 0.0
H4874 H 0.21448 0.80642 0.79831 0.0
H4875 H 0.11501 0.728 0.62861 0.0
H4876 H 0.03482 0.33158 0.43049 0.0
H4877 H 0.03415 0.35684 0.45551 0.0
H4878 H 0.03384 0.39389 0.41409 0.0
H4879 H 0.03492 0.36872 0.38897 0.0
H4880 H 0.05457 0.41009 0.446 0.0
H4881 H 0.99687 0.37526 0.42969 0.0
H4882 H 0.97395 0.34744 0.4243 0.0
H4883 H 0.98619 0.34062 0.48288 0.0
H4884 H 0.00937 0.36829 0.48856 0.0
H4885 H 0.01909 0.47988 0.48789 0.0
H4886 H 0.01828 0.4504 0.46843 0.0
H4887 H 0.03678 0.42899 0.51861 0.0
H4888 H 0.03777 0.45884 0.53844 0.0
H4889 H 0.00795 0.40395 0.48527 0.0
H4890 H 0.06606 0.44046 0.50059 0.0
H4891 H 0.08747 0.4694 0.5045 0.0
H4892 H 0.07224 0.47405 0.44576 0.0
H4893 H 0.05056 0.44523 0.44158 0.0
C4894 C 0.0347 0.34512 0.42669 0.0
C4895 C 0.0348 0.34814 0.40771 0.0
C4896 C 0.03424 0.35952 0.44101 0.0
C4897 C 0.03363 0.37714 0.43659 0.0
C4898 C 0.03425 0.38035 0.41778 0.0
C4899 C 0.03486 0.36597 0.40344 0.0
C4900 C 0.03215 0.3922 0.45153 0.0
C4901 C 0.04433 0.40872 0.4545 0.0
C4902 C 0.01893 0.39034 0.46285 0.0
C4903 C 0.00499 0.37372 0.45949 0.0
C4904 C 0.99478 0.36774 0.44138 0.0
C4905 C 0.98172 0.35201 0.43828 0.0
C4906 C 0.97865 0.34223 0.45322 0.0
C4907 C 0.98861 0.34819 0.47131 0.0
C4908 C 1.0017 0.3639 0.47449 0.0
C4909 C 0.02253 0.46879 0.49494 0.0
C4910 C 0.02866 0.47167 0.51465 0.0
C4911 C 0.02207 0.45197 0.48377 0.0
C4912 C 0.02764 0.43773 0.49213 0.0
C4913 C 0.03244 0.43995 0.51201 0.0
C4914 C 0.03301 0.45693 0.52327 0.0
C4915 C 0.03034 0.42161 0.47959 0.0
C4916 C 0.01834 0.40504 0.47697 0.0
C4917 C 0.04358 0.42346 0.46839 0.0
C4918 C 0.05662 0.44076 0.47081 0.0
C4919 C 0.06717 0.44774 0.48855 0.0
C4920 C 0.07938 0.46409 0.49081 0.0
C4921 C 0.08123 0.47353 0.47539 0.0
C4922 C 0.07082 0.46669 0.45769 0.0
C4923 C 0.05858 0.45033 0.45536 0.0
H4924 H 0.09081 0.48607 0.47714 0.0
H4925 H 0.96853 0.33006 0.4508 0.0
H4926 H 0.48586 0.24006 0.18996 0.0
H4927 H 0.46089 0.24159 0.20555 0.0
H4928 H 0.48509 0.22181 0.25407 0.0
H4929 H 0.51039 0.22028 0.23861 0.0
H4930 H 0.44351 0.21006 0.23866 0.0
H4931 H 0.49318 0.26144 0.26304 0.0
H4932 H 0.51693 0.28483 0.2571 0.0
H4933 H 0.48112 0.30742 0.22162 0.0
H4934 H 0.4572 0.28396 0.22713 0.0
H4935 H 0.39601 0.25686 0.30392 0.0
H4936 H 0.41764 0.24206 0.29032 0.0
H4937 H 0.41328 0.27208 0.24299 0.0
H4938 H 0.3915 0.28635 0.25597 0.0
H4939 H 0.44627 0.27642 0.26125 0.0
H4940 H 0.39711 0.22962 0.23633 0.0
H4941 H 0.37168 0.20525 0.23497 0.0
H4942 H 0.40297 0.17318 0.26398 0.0
H4943 H 0.42854 0.1977 0.26626 0.0
C4944 C 0.48578 0.2356 0.20375 0.0
C4945 C 0.50027 0.23042 0.21324 0.0
C4946 C 0.47143 0.23635 0.21255 0.0
C4947 C 0.47128 0.2319 0.23092 0.0
C4948 C 0.48502 0.22518 0.2398 0.0
C4949 C 0.49948 0.22445 0.231 0.0
C4950 C 0.45833 0.23758 0.24189 0.0
C4951 C 0.4442 0.22447 0.24412 0.0
C4952 C 0.45912 0.25647 0.24822 0.0
C4953 C 0.47345 0.27089 0.24539 0.0
C4954 C 0.4904 0.27133 0.25389 0.0
C4955 C 0.50388 0.28461 0.25061 0.0
C4956 C 0.50054 0.29759 0.23896 0.0
C4957 C 0.48369 0.29736 0.23063 0.0
C4958 C 0.47017 0.2841 0.23385 0.0
C4959 C 0.39958 0.26014 0.29053 0.0
C4960 C 0.39234 0.27311 0.28125 0.0
C4961 C 0.41187 0.25166 0.28279 0.0
C4962 C 0.41706 0.2561 0.26574 0.0
C4963 C 0.40953 0.26864 0.25627 0.0
C4964 C 0.39724 0.27696 0.26386 0.0
C4965 C 0.43121 0.24892 0.2582 0.0
C4966 C 0.44565 0.26187 0.25646 0.0
C4967 C 0.43036 0.22993 0.25193 0.0
C4968 C 0.41477 0.21572 0.25179 0.0
C4969 C 0.39855 0.21761 0.24288 0.0
C4970 C 0.3841 0.20371 0.24185 0.0
C4971 C 0.38571 0.18766 0.24935 0.0
C4972 C 0.40174 0.1856 0.25815 0.0
C4973 C 0.41621 0.19956 0.25943 0.0
H4974 H 0.37456 0.1768 0.24822 0.0
H4975 H 0.51099 0.30784 0.23642 0.0
H4976 H 0.60707 0.56784 0.35788 0.0
H4977 H 0.59784 0.55986 0.38751 0.0
H4978 H 0.61495 0.5084 0.37799 0.0
H4979 H 0.62466 0.51648 0.34857 0.0
H4980 H 0.57829 0.50788 0.38532 0.0
H4981 H 0.63773 0.53501 0.41078 0.0
H4982 H 0.66368 0.55956 0.41594 0.0
H4983 H 0.63688 0.59765 0.44338 0.0
H4984 H 0.61068 0.57339 0.43812 0.0
H4985 H 0.55412 0.48232 0.47066 0.0
H4986 H 0.57151 0.48732 0.44547 0.0
H4987 H 0.57633 0.54613 0.46059 0.0
H4988 H 0.55988 0.54119 0.48635 0.0
H4989 H 0.60424 0.54078 0.45044 0.0
H4990 H 0.54505 0.51812 0.42282 0.0
H4991 H 0.51706 0.49652 0.41628 0.0
H4992 H 0.54036 0.4537 0.39138 0.0
H4993 H 0.56855 0.47501 0.398 0.0
C4994 C 0.60902 0.55491 0.36219 0.0
C4995 C 0.61659 0.54278 0.35091 0.0
C4996 C 0.60379 0.5504 0.37911 0.0
C4997 C 0.60576 0.53357 0.38488 0.0
C4998 C 0.61338 0.52147 0.37375 0.0
C4999 C 0.61896 0.52614 0.35702 0.0
C5000 C 0.59909 0.52834 0.40209 0.0
C5001 C 0.58412 0.51476 0.39963 0.0
C5002 C 0.60642 0.53786 0.42059 0.0
C5003 C 0.6222 0.55242 0.4239 0.0
C5004 C 0.63732 0.54866 0.41776 0.0
C5005 C 0.65209 0.56252 0.42074 0.0
C5006 C 0.65192 0.58016 0.42994 0.0
C5007 C 0.63699 0.58398 0.43624 0.0
C5008 C 0.62219 0.57017 0.43328 0.0
C5009 C 0.55919 0.4963 0.46877 0.0
C5010 C 0.55553 0.51135 0.48028 0.0
C5011 C 0.569 0.49916 0.45429 0.0
C5012 C 0.57487 0.5171 0.45074 0.0
C5013 C 0.57193 0.53215 0.46293 0.0
C5014 C 0.56247 0.52931 0.47765 0.0
C5015 C 0.58322 0.52031 0.43378 0.0
C5016 C 0.59848 0.53361 0.43622 0.0
C5017 C 0.57586 0.51091 0.41514 0.0
C5018 C 0.55894 0.49808 0.41112 0.0
C5019 C 0.54423 0.50406 0.41608 0.0
C5020 C 0.52833 0.49188 0.41234 0.0
C5021 C 0.52695 0.47373 0.40348 0.0
C5022 C 0.54146 0.46775 0.39828 0.0
C5023 C 0.5574 0.47987 0.40202 0.0
H5024 H 0.51463 0.46432 0.40059 0.0
H5025 H 0.66336 0.59087 0.43223 0.0
H5026 H 0.29757 0.87509 0.06137 0.0
H5027 H 0.31724 0.86555 0.08577 0.0
H5028 H 0.27907 0.81701 0.08614 0.0
H5029 H 0.25952 0.8262 0.06159 0.0
H5030 H 0.29555 0.8391 0.12375 0.0
H5031 H 0.30825 0.81056 0.06199 0.0
H5032 H 0.31752 0.81377 0.03089 0.0
H5033 H 0.36456 0.84969 0.05939 0.0
H5034 H 0.35547 0.84678 0.09065 0.0
H5035 H 0.30974 0.76039 0.14339 0.0
H5036 H 0.31335 0.78022 0.11956 0.0
H5037 H 0.35285 0.81887 0.15918 0.0
H5038 H 0.34994 0.79857 0.1832 0.0
H5039 H 0.3441 0.81117 0.10597 0.0
H5040 H 0.33138 0.84006 0.16894 0.0
H5041 H 0.3214 0.83532 0.19942 0.0
H5042 H 0.27487 0.80001 0.16877 0.0
H5043 H 0.28475 0.80431 0.13813 0.0
C5044 C 0.29337 0.86242 0.06675 0.0
C5045 C 0.27703 0.85135 0.05966 0.0
C5046 C 0.30461 0.85703 0.08061 0.0
C5047 C 0.2995 0.84067 0.08771 0.0
C5048 C 0.28313 0.82975 0.08083 0.0
C5049 C 0.27204 0.83495 0.06678 0.0
C5050 C 0.31113 0.8344 0.10203 0.0
C5051 C 0.30648 0.83349 0.12009 0.0
C5052 C 0.3255 0.82733 0.09729 0.0
C5053 C 0.33115 0.82856 0.07859 0.0
C5054 C 0.32054 0.81918 0.06159 0.0
C5055 C 0.32577 0.82093 0.04395 0.0
C5056 C 0.34161 0.83194 0.04317 0.0
C5057 C 0.3523 0.84116 0.06002 0.0
C5058 C 0.34713 0.83944 0.0777 0.0
C5059 C 0.31999 0.77246 0.14684 0.0
C5060 C 0.32908 0.77823 0.16553 0.0
C5061 C 0.32206 0.78383 0.13306 0.0
C5062 C 0.33306 0.80114 0.13783 0.0
C5063 C 0.3442 0.80557 0.15534 0.0
C5064 C 0.3423 0.79407 0.16913 0.0
C5065 C 0.32841 0.81582 0.12759 0.0
C5066 C 0.33398 0.81794 0.11014 0.0
C5067 C 0.31511 0.82447 0.13302 0.0
C5068 C 0.30881 0.82247 0.15132 0.0
C5069 C 0.31903 0.83129 0.16874 0.0
C5070 C 0.31342 0.82864 0.18602 0.0
C5071 C 0.2975 0.81739 0.18603 0.0
C5072 C 0.28718 0.80875 0.16874 0.0
C5073 C 0.29277 0.81128 0.15142 0.0
H5074 H 0.29319 0.81536 0.19943 0.0
H5075 H 0.34561 0.83334 0.0295 0.0
H5076 H 0.97078 0.54538 0.81994 0.0
H5077 H 0.98363 0.54439 0.85251 0.0
H5078 H 0.93342 0.53523 0.86883 0.0
H5079 H 0.92043 0.53701 0.83593 0.0
H5080 H 0.95517 0.55431 0.89917 0.0
H5081 H 0.95674 0.49898 0.85901 0.0
H5082 H 0.96234 0.47931 0.83102 0.0
H5083 H 0.01629 0.50249 0.8458 0.0
H5084 H 0.01098 0.52249 0.87375 0.0
H5085 H 0.99478 0.52302 0.98505 0.0
H5086 H 0.97617 0.52524 0.95524 0.0
H5087 H 0.02102 0.53875 0.92888 0.0
H5088 H 0.03929 0.53657 0.95817 0.0
H5089 H 0.99836 0.5146 0.90442 0.0
H5090 H 0.99518 0.57112 0.94475 0.0
H5091 H 0.98834 0.58884 0.97332 0.0
H5092 H 0.93571 0.56037 0.95909 0.0
H5093 H 0.94228 0.54233 0.93052 0.0
C5094 C 0.96237 0.54348 0.83046 0.0
C5095 C 0.94445 0.54135 0.82498 0.0
C5096 C 0.96981 0.54267 0.84926 0.0
C5097 C 0.95968 0.53909 0.86351 0.0
C5098 C 0.94176 0.53784 0.85839 0.0
C5099 C 0.93427 0.53897 0.83945 0.0
C5100 C 0.96796 0.53602 0.88315 0.0
C5101 C 0.96442 0.5454 0.9002 0.0
C5102 C 0.98015 0.52439 0.88514 0.0
C5103 C 0.98344 0.51234 0.86839 0.0
C5104 C 0.96978 0.49996 0.85623 0.0
C5105 C 0.97291 0.48875 0.84037 0.0
C5106 C 0.98966 0.48968 0.83661 0.0
C5107 C 1.00332 0.50179 0.84872 0.0
C5108 C 1.00027 0.51306 0.86458 0.0
C5109 C 1.00065 0.52661 0.97295 0.0
C5110 C 0.01869 0.52968 0.97431 0.0
C5111 C 0.98996 0.52793 0.95578 0.0
C5112 C 0.99697 0.5323 0.93938 0.0
C5113 C 0.01498 0.53531 0.94094 0.0
C5114 C 0.02554 0.53409 0.95794 0.0
C5115 C 0.98607 0.53336 0.9204 0.0
C5116 C 0.98908 0.52349 0.90341 0.0
C5117 C 0.97325 0.54426 0.9186 0.0
C5118 C 0.96926 0.55526 0.9356 0.0
C5119 C 0.98217 0.56857 0.94777 0.0
C5120 C 0.97833 0.57868 0.96395 0.0
C5121 C 0.9616 0.57572 0.96802 0.0
C5122 C 0.94866 0.56265 0.95591 0.0
C5123 C 0.95243 0.55249 0.93971 0.0
H5124 H 0.95865 0.58356 0.98055 0.0
H5125 H 0.99205 0.48098 0.82433 0.0
H5126 H 0.24999 0.15466 0.57816 0.0
H5127 H 0.25388 0.17392 0.60927 0.0
H5128 H 0.2907 0.21492 0.59135 0.0
H5129 H 0.28673 0.19566 0.55978 0.0
H5130 H 0.30119 0.2053 0.62852 0.0
H5131 H 0.25392 0.22483 0.5943 0.0
H5132 H 0.22578 0.22053 0.57375 0.0
H5133 H 0.2013 0.19316 0.61489 0.0
H5134 H 0.22934 0.19705 0.63557 0.0
H5135 H 0.30502 0.26722 0.71421 0.0
H5136 H 0.30257 0.25375 0.68071 0.0
H5137 H 0.25679 0.21534 0.68532 0.0
H5138 H 0.25876 0.22938 0.71861 0.0
H5139 H 0.25202 0.22668 0.65315 0.0
H5140 H 0.29858 0.20397 0.68582 0.0
H5141 H 0.3264 0.20682 0.70659 0.0
H5142 H 0.35191 0.23825 0.66889 0.0
H5143 H 0.32418 0.23579 0.64801 0.0
C5144 C 0.25893 0.16777 0.58073 0.0
C5145 C 0.26806 0.1736 0.56643 0.0
C5146 C 0.26108 0.1788 0.59854 0.0
C5147 C 0.2725 0.19589 0.60259 0.0
C5148 C 0.2818 0.20178 0.58847 0.0
C5149 C 0.27947 0.1908 0.57045 0.0
C5150 C 0.2747 0.20729 0.62173 0.0
C5151 C 0.29056 0.21032 0.63383 0.0
C5152 C 0.26068 0.21339 0.62877 0.0
C5153 C 0.24377 0.21111 0.61642 0.0
C5154 C 0.24256 0.21777 0.5989 0.0
C5155 C 0.22662 0.21543 0.58724 0.0
C5156 C 0.21176 0.20655 0.59299 0.0
C5157 C 0.21282 0.20003 0.61045 0.0
C5158 C 0.22873 0.20232 0.62215 0.0
C5159 C 0.29445 0.25587 0.70808 0.0
C5160 C 0.28214 0.24927 0.71908 0.0
C5161 C 0.2931 0.24812 0.68892 0.0
C5162 C 0.27968 0.23325 0.68047 0.0
C5163 C 0.26728 0.22678 0.69144 0.0
C5164 C 0.26844 0.23477 0.7105 0.0
C5165 C 0.27847 0.22443 0.66024 0.0
C5166 C 0.26275 0.22186 0.64788 0.0
C5167 C 0.29258 0.21856 0.65305 0.0
C5168 C 0.30928 0.21986 0.66546 0.0
C5169 C 0.31011 0.21158 0.68202 0.0
C5170 C 0.32586 0.21312 0.6938 0.0
C5171 C 0.34091 0.22275 0.68909 0.0
C5172 C 0.34024 0.23082 0.67254 0.0
C5173 C 0.32451 0.22934 0.66072 0.0
H5174 H 0.35309 0.22394 0.69824 0.0
H5175 H 0.19943 0.20475 0.58395 0.0
H5176 H 0.59299 0.51706 0.2441 0.0
H5177 H 0.57762 0.5126 0.21115 0.0
H5178 H 0.62117 0.54623 0.19496 0.0
H5179 H 0.63675 0.55029 0.22754 0.0
H5180 H 0.58538 0.55449 0.18415 0.0
H5181 H 0.61909 0.50601 0.18197 0.0
H5182 H 0.62798 0.4786 0.1927 0.0
H5183 H 0.57572 0.44889 0.1792 0.0
H5184 H 0.56649 0.47625 0.16866 0.0
H5185 H 0.57455 0.5458 0.085 0.0
H5186 H 0.58522 0.54703 0.11876 0.0
H5187 H 0.54896 0.49692 0.1193 0.0
H5188 H 0.53883 0.49515 0.08508 0.0
H5189 H 0.57729 0.49559 0.13969 0.0
H5190 H 0.54306 0.5412 0.13871 0.0
H5191 H 0.53233 0.56799 0.12878 0.0
H5192 H 0.58199 0.60252 0.14949 0.0
H5193 H 0.59311 0.57589 0.15931 0.0
C5194 C 0.59925 0.52348 0.23348 0.0
C5195 C 0.61606 0.53398 0.23832 0.0
C5196 C 0.59049 0.5209 0.21473 0.0
C5197 C 0.59832 0.5291 0.20074 0.0
C5198 C 0.61496 0.53982 0.20562 0.0
C5199 C 0.62384 0.54207 0.2242 0.0
C5200 C 0.58928 0.5266 0.18091 0.0
C5201 C 0.58365 0.54168 0.17433 0.0
C5202 C 0.5865 0.50965 0.16847 0.0
C5203 C 0.59207 0.49324 0.17479 0.0
C5204 C 0.60947 0.4937 0.1815 0.0
C5205 C 0.61458 0.47816 0.18749 0.0
C5206 C 0.60242 0.46204 0.1867 0.0
C5207 C 0.58512 0.4614 0.17985 0.0
C5208 C 0.57995 0.47692 0.17386 0.0
C5209 C 0.56885 0.53504 0.09232 0.0
C5210 C 0.55577 0.52046 0.08249 0.0
C5211 C 0.57487 0.53582 0.11167 0.0
C5212 C 0.56758 0.52235 0.12177 0.0
C5213 C 0.55472 0.50755 0.11187 0.0
C5214 C 0.54893 0.50655 0.09234 0.0
C5215 C 0.57366 0.52371 0.14257 0.0
C5216 C 0.57872 0.5084 0.14943 0.0
C5217 C 0.57559 0.54039 0.15542 0.0
C5218 C 0.56895 0.5565 0.14963 0.0
C5219 C 0.55173 0.55448 0.14104 0.0
C5220 C 0.54557 0.56964 0.13544 0.0
C5221 C 0.55648 0.58694 0.13847 0.0
C5222 C 0.57356 0.58911 0.14715 0.0
C5223 C 0.57979 0.57399 0.15276 0.0
H5224 H 0.55169 0.59866 0.13412 0.0
H5225 H 0.6064 0.45002 0.19134 0.0
H5226 H 0.21367 0.84635 0.93228 0.0
H5227 H 0.21678 0.82625 0.90368 0.0
H5228 H 0.25144 0.80081 0.93785 0.0
H5229 H 0.24849 0.82085 0.96652 0.0
H5230 H 0.26472 0.81241 0.90743 0.0
H5231 H 0.21235 0.77679 0.91858 0.0
H5232 H 0.18251 0.77093 0.92474 0.0
H5233 H 0.16533 0.78791 0.87164 0.0
H5234 H 0.19512 0.79414 0.86529 0.0
H5235 H 0.272 0.74508 0.83135 0.0
H5236 H 0.26361 0.75743 0.86139 0.0
H5237 H 0.23256 0.78931 0.83101 0.0
H5238 H 0.241 0.77708 0.80102 0.0
H5239 H 0.21725 0.77235 0.8602 0.0
H5240 H 0.26972 0.80986 0.85017 0.0
H5241 H 0.29925 0.81438 0.84301 0.0
H5242 H 0.31616 0.79359 0.89391 0.0
H5243 H 0.2866 0.7885 0.90113 0.0
C5244 C 0.22176 0.8363 0.93377 0.0
C5245 C 0.2309 0.83529 0.95168 0.0
C5246 C 0.22348 0.82478 0.91742 0.0
C5247 C 0.23433 0.81205 0.91868 0.0
C5248 C 0.24303 0.81058 0.93659 0.0
C5249 C 0.24126 0.82202 0.95296 0.0
C5250 C 0.23749 0.80116 0.90117 0.0
C5251 C 0.25438 0.80339 0.89728 0.0
C5252 C 0.22393 0.78974 0.88774 0.0
C5253 C 0.206 0.7861 0.89155 0.0
C5254 C 0.20223 0.77945 0.9083 0.0
C5255 C 0.18532 0.77602 0.91181 0.0
C5256 C 0.17204 0.77909 0.89862 0.0
C5257 C 0.17564 0.78556 0.88186 0.0
C5258 C 0.19253 0.78903 0.87829 0.0
C5259 C 0.26318 0.75449 0.8311 0.0
C5260 C 0.25724 0.76033 0.81405 0.0
C5261 C 0.25842 0.76151 0.84819 0.0
C5262 C 0.24757 0.77432 0.84834 0.0
C5263 C 0.2409 0.77939 0.83113 0.0
C5264 C 0.24579 0.77251 0.81409 0.0
C5265 C 0.24439 0.78365 0.86659 0.0
C5266 C 0.22756 0.78122 0.87051 0.0
C5267 C 0.25798 0.79494 0.88004 0.0
C5268 C 0.27589 0.7986 0.87609 0.0
C5269 C 0.2797 0.80612 0.85977 0.0
C5270 C 0.29645 0.80879 0.8557 0.0
C5271 C 0.30957 0.80423 0.86797 0.0
C5272 C 0.30597 0.79708 0.88439 0.0
C5273 C 0.28922 0.79429 0.88848 0.0
H5274 H 0.32252 0.80628 0.86478 0.0
H5275 H 0.15895 0.77642 0.90135 0.0
H5276 H 0.90967 0.53168 0.68749 0.0
H5277 H 0.92384 0.52863 0.65928 0.0
H5278 H 0.97325 0.54499 0.69541 0.0
H5279 H 0.95906 0.54831 0.72365 0.0
H5280 H 0.97601 0.56038 0.66512 0.0
H5281 H 0.95376 0.49781 0.67138 0.0
H5282 H 0.93159 0.47118 0.67402 0.0
H5283 H 0.90351 0.47522 0.61975 0.0
H5284 H 0.92541 0.50204 0.6169 0.0
H5285 H 0.02655 0.53317 0.59534 0.0
H5286 H 0.01143 0.53626 0.62264 0.0
H5287 H 0.96292 0.51995 0.5848 0.0
H5288 H 0.97812 0.51661 0.55728 0.0
H5289 H 0.95919 0.50471 0.61542 0.0
H5290 H 0.98053 0.56707 0.60899 0.0
H5291 H 1.00197 0.59421 0.60605 0.0
H5292 H 0.03118 0.59082 0.65989 0.0
H5293 H 0.00986 0.56365 0.66319 0.0
C5294 C 0.92357 0.53464 0.68955 0.0
C5295 C 0.93303 0.54023 0.70824 0.0
C5296 C 0.93179 0.53274 0.6732 0.0
C5297 C 0.94991 0.53622 0.67468 0.0
C5298 C 0.95935 0.54209 0.69336 0.0
C5299 C 0.95113 0.54396 0.70972 0.0
C5300 C 0.95895 0.53393 0.65702 0.0
C5301 C 0.97239 0.54802 0.65449 0.0
C5302 C 0.9543 0.51816 0.64236 0.0
C5303 C 0.94113 0.50205 0.64402 0.0
C5304 C 0.94279 0.4931 0.66007 0.0
C5305 C 0.93028 0.47796 0.6616 0.0
C5306 C 0.91612 0.47155 0.64709 0.0
C5307 C 0.91447 0.48023 0.631 0.0
C5308 C 0.92693 0.49539 0.62941 0.0
C5309 C 0.01264 0.53019 0.59263 0.0
C5310 C 1.00379 0.52462 0.57366 0.0
C5311 C 1.00388 0.53214 0.60849 0.0
C5312 C 0.98574 0.52871 0.6063 0.0
C5313 C 0.97683 0.52283 0.58736 0.0
C5314 C 0.98563 0.52093 0.57142 0.0
C5315 C 0.97629 0.53112 0.62361 0.0
C5316 C 0.9628 0.51707 0.62606 0.0
C5317 C 0.98082 0.54696 0.63816 0.0
C5318 C 0.99369 0.56322 0.63624 0.0
C5319 C 0.99159 0.57204 0.62014 0.0
C5320 C 1.00371 0.58744 0.61842 0.0
C5321 C 0.01799 0.59416 0.6327 0.0
C5322 C 0.02013 0.58557 0.64881 0.0
C5323 C 0.008 0.5702 0.65065 0.0
H5324 H 0.02737 0.60608 0.63132 0.0
H5325 H 0.90645 0.45982 0.6483 0.0
H5326 H 0.26314 0.20838 0.46748 0.0
H5327 H 0.265 0.22542 0.44057 0.0
H5328 H 0.2777 0.17884 0.4072 0.0
H5329 H 0.2758 0.16171 0.43396 0.0
H5330 H 0.29876 0.21171 0.40476 0.0
H5331 H 0.23809 0.18754 0.39886 0.0
H5332 H 0.21013 0.18242 0.41005 0.0
H5333 H 0.2123 0.2408 0.42009 0.0
H5334 H 0.24041 0.24628 0.4092 0.0
H5335 H 0.28442 0.23439 0.31142 0.0
H5336 H 0.28087 0.21871 0.33903 0.0
H5337 H 0.27271 0.26862 0.37093 0.0
H5338 H 0.27672 0.28457 0.34346 0.0
H5339 H 0.24936 0.23541 0.37488 0.0
H5340 H 0.30888 0.26035 0.38128 0.0
H5341 H 0.33776 0.26712 0.37256 0.0
H5342 H 0.3387 0.20936 0.36382 0.0
H5343 H 0.30962 0.2022 0.37208 0.0
C5344 C 0.26636 0.20177 0.45443 0.0
C5345 C 0.2693 0.18366 0.45289 0.0
C5346 C 0.26734 0.2115 0.43901 0.0
C5347 C 0.27135 0.20337 0.42177 0.0
C5348 C 0.27456 0.1854 0.42032 0.0
C5349 C 0.27343 0.17561 0.43565 0.0
C5350 C 0.27236 0.21357 0.40526 0.0
C5351 C 0.28787 0.21664 0.39805 0.0
C5352 C 0.25834 0.22059 0.3969 0.0
C5353 C 0.24144 0.21732 0.40341 0.0
C5354 C 0.23267 0.19929 0.40361 0.0
C5355 C 0.21679 0.19633 0.40987 0.0
C5356 C 0.20947 0.21128 0.41583 0.0
C5357 C 0.218 0.22923 0.4155 0.0
C5358 C 0.2339 0.23228 0.40927 0.0
C5359 C 0.28167 0.24198 0.32423 0.0
C5360 C 0.28088 0.26073 0.32531 0.0
C5361 C 0.27972 0.23302 0.34003 0.0
C5362 C 0.27664 0.24252 0.3571 0.0
C5363 C 0.27509 0.26103 0.35792 0.0
C5364 C 0.27738 0.27011 0.34224 0.0
C5365 C 0.27568 0.23326 0.37423 0.0
C5366 C 0.26022 0.23042 0.38156 0.0
C5367 C 0.28979 0.2266 0.38287 0.0
C5368 C 0.30696 0.23072 0.37706 0.0
C5369 C 0.31511 0.24906 0.37718 0.0
C5370 C 0.33155 0.25298 0.3724 0.0
C5371 C 0.34006 0.23869 0.36764 0.0
C5372 C 0.33209 0.22042 0.3675 0.0
C5373 C 0.31561 0.21642 0.37221 0.0
H5374 H 0.35286 0.2418 0.36414 0.0
H5375 H 0.19716 0.20896 0.42067 0.0
H5376 H 0.37036 0.65822 0.52057 0.0
H5377 H 0.38881 0.64862 0.49813 0.0
H5378 H 0.41015 0.61734 0.53854 0.0
H5379 H 0.39226 0.62717 0.56103 0.0
H5380 H 0.43412 0.63182 0.52027 0.0
H5381 H 0.37395 0.59823 0.50311 0.0
H5382 H 0.34298 0.59668 0.49303 0.0
H5383 H 0.35366 0.62082 0.44363 0.0
H5384 H 0.38472 0.62266 0.45357 0.0
H5385 H 0.41891 0.53495 0.4703 0.0
H5386 H 0.40747 0.56282 0.47545 0.0
H5387 H 0.45587 0.5954 0.46897 0.0
H5388 H 0.46782 0.56761 0.46534 0.0
H5389 H 0.40086 0.59065 0.46207 0.0
H5390 H 0.46418 0.63581 0.49956 0.0
H5391 H 0.4933 0.63459 0.51501 0.0
H5392 H 0.47418 0.58163 0.52958 0.0
H5393 H 0.44488 0.58273 0.51449 0.0
C5394 C 0.37925 0.6496 0.5248 0.0
C5395 C 0.37966 0.6432 0.54246 0.0
C5396 C 0.38976 0.64413 0.51195 0.0
C5397 C 0.40068 0.63208 0.51656 0.0
C5398 C 0.40186 0.62669 0.53467 0.0
C5399 C 0.3915 0.63222 0.5475 0.0
C5400 C 0.40949 0.62314 0.50217 0.0
C5401 C 0.42698 0.62311 0.50728 0.0
C5402 C 0.40021 0.61192 0.48515 0.0
C5403 C 0.3816 0.61081 0.47919 0.0
C5404 C 0.36967 0.6033 0.49016 0.0
C5405 C 0.35212 0.60236 0.48447 0.0
C5406 C 0.34636 0.60871 0.46773 0.0
C5407 C 0.35815 0.61596 0.45662 0.0
C5408 C 0.37572 0.61696 0.46227 0.0
C5409 C 0.42712 0.54801 0.46981 0.0
C5410 C 0.44452 0.5491 0.4682 0.0
C5411 C 0.42048 0.56399 0.47248 0.0
C5412 C 0.43099 0.58135 0.47319 0.0
C5413 C 0.44766 0.58223 0.46897 0.0
C5414 C 0.45443 0.56626 0.46673 0.0
C5415 C 0.42513 0.5981 0.48112 0.0
C5416 C 0.40829 0.5999 0.47457 0.0
C5417 C 0.43483 0.61046 0.49729 0.0
C5418 C 0.45244 0.60926 0.5057 0.0
C5419 C 0.46622 0.6239 0.50602 0.0
C5420 C 0.48273 0.62326 0.51477 0.0
C5421 C 0.48558 0.60806 0.5233 0.0
C5422 C 0.47194 0.59342 0.52301 0.0
C5423 C 0.45538 0.59404 0.51436 0.0
H5424 H 0.49838 0.60759 0.53005 0.0
H5425 H 0.33277 0.60797 0.46334 0.0
H5426 H 0.86339 0.90461 0.54342 0.0
H5427 H 0.89365 0.91599 0.5414 0.0
H5428 H 0.88679 0.97196 0.55521 0.0
H5429 H 0.85651 0.96064 0.55614 0.0
H5430 H 0.9022 0.97078 0.52711 0.0
H5431 H 0.91076 0.94717 0.5866 0.0
H5432 H 0.90864 0.92381 0.60796 0.0
H5433 H 0.93471 0.89096 0.5726 0.0
H5434 H 0.93679 0.91402 0.55089 0.0
H5435 H 0.98851 0.01881 0.56127 0.0
H5436 H 0.96069 0.99996 0.56308 0.0
H5437 H 0.96675 0.95995 0.51661 0.0
H5438 H 0.99447 0.97916 0.51423 0.0
H5439 H 0.95287 0.95004 0.55823 0.0
H5440 H 0.94299 0.97483 0.49825 0.0
H5441 H 0.94665 1.00035 0.47959 0.0
H5442 H 0.92372 0.03269 0.51916 0.0
H5443 H 0.92024 0.00746 0.53826 0.0
C5444 C 0.86848 0.91932 0.54633 0.0
C5445 C 0.8576 0.93175 0.5499 0.0
C5446 C 0.8858 0.92584 0.54521 0.0
C5447 C 0.89266 0.9449 0.54818 0.0
C5448 C 0.88189 0.95721 0.55264 0.0
C5449 C 0.86456 0.95073 0.55329 0.0
C5450 C 0.91063 0.95231 0.5455 0.0
C5451 C 0.91318 0.96619 0.53405 0.0
C5452 C 0.92517 0.94617 0.55406 0.0
C5453 C 0.92372 0.93221 0.56699 0.0
C5454 C 0.91588 0.93488 0.58327 0.0
C5455 C 0.91472 0.9217 0.59546 0.0
C5456 C 0.92146 0.90587 0.59159 0.0
C5457 C 0.92942 0.90319 0.57554 0.0
C5458 C 0.93061 0.91631 0.5633 0.0
C5459 C 0.98401 1.00594 0.5515 0.0
C5460 C 0.99364 1.00049 0.53754 0.0
C5461 C 0.96815 0.99516 0.55262 0.0
C5462 C 0.96172 0.97859 0.54001 0.0
C5463 C 0.97157 0.97269 0.52652 0.0
C5464 C 0.98736 0.98366 0.52516 0.0
C5465 C 0.9441 0.96842 0.54018 0.0
C5466 C 0.9417 0.95423 0.55115 0.0
C5467 C 0.92967 0.97431 0.53137 0.0
C5468 C 0.93154 0.98936 0.51978 0.0
C5469 C 0.93889 0.98746 0.50307 0.0
C5470 C 0.9409 1.00185 0.49239 0.0
C5471 C 0.93546 0.01815 0.49821 0.0
C5472 C 0.92796 0.02007 0.51469 0.0
C5473 C 0.92596 1.00573 0.52544 0.0
H5474 H 0.93702 0.02927 0.48993 0.0
H5475 H 0.92059 0.89571 0.60107 0.0
H5476 H 0.92182 0.07452 0.25508 0.0
H5477 H 0.90772 0.10095 0.25677 0.0
H5478 H 0.86143 0.0664 0.26633 0.0
H5479 H 0.87525 0.03977 0.26371 0.0
H5480 H 0.85298 0.08586 0.24175 0.0
H5481 H 0.88936 0.10032 0.30239 0.0
H5482 H 0.91637 0.10569 0.32521 0.0
H5483 H 0.93761 0.15085 0.29859 0.0
H5484 H 0.9108 0.14559 0.27543 0.0
H5485 H 0.81234 0.1595 0.27222 0.0
H5486 H 0.82956 0.13579 0.27596 0.0
H5487 H 0.86471 0.16122 0.2421 0.0
H5488 H 0.84722 0.18473 0.23788 0.0
H5489 H 0.87884 0.14735 0.28002 0.0
H5490 H 0.84125 0.13 0.21808 0.0
H5491 H 0.81295 0.12456 0.19758 0.0
H5492 H 0.79276 0.0841 0.2304 0.0
H5493 H 0.8209 0.08955 0.25131 0.0
C5494 C 0.90868 0.07261 0.25771 0.0
C5495 C 0.89962 0.05509 0.25925 0.0
C5496 C 0.90065 0.08777 0.25879 0.0
C5497 C 0.88354 0.08579 0.26194 0.0
C5498 C 0.87461 0.06832 0.26386 0.0
C5499 C 0.88253 0.0531 0.26241 0.0
C5500 C 0.87463 0.10165 0.26214 0.0
C5501 C 0.85861 0.09918 0.25037 0.0
C5502 C 0.88197 0.11922 0.27314 0.0
C5503 C 0.89812 0.12243 0.28704 0.0
C5504 C 0.89984 0.1113 0.3013 0.0
C5505 C 0.9151 0.11434 0.31431 0.0
C5506 C 0.92871 0.12857 0.31332 0.0
C5507 C 0.92706 0.13981 0.29933 0.0
C5508 C 0.91183 0.13682 0.28626 0.0
C5509 C 0.82387 0.16014 0.26581 0.0
C5510 C 0.82846 0.1738 0.25468 0.0
C5511 C 0.83367 0.14665 0.26796 0.0
C5512 C 0.84834 0.14682 0.25929 0.0
C5513 C 0.85342 0.16095 0.24892 0.0
C5514 C 0.84342 0.17425 0.24642 0.0
C5515 C 0.85745 0.13133 0.2597 0.0
C5516 C 0.87338 0.13392 0.27152 0.0
C5517 C 0.84994 0.11377 0.24906 0.0
C5518 C 0.8331 0.11034 0.23638 0.0
C5519 C 0.83073 0.12008 0.22104 0.0
C5520 C 0.81473 0.11697 0.20932 0.0
C5521 C 0.80105 0.10403 0.21272 0.0
C5522 C 0.80336 0.09414 0.22781 0.0
C5523 C 0.81933 0.09723 0.23959 0.0
H5524 H 0.78867 0.10164 0.20363 0.0
H5525 H 0.94052 0.1309 0.32341 0.0
H5526 H 0.77427 0.15188 0.0691 0.0
H5527 H 0.74635 0.13226 0.06796 0.0
H5528 H 0.76643 0.08429 0.04926 0.0
H5529 H 0.79457 0.10402 0.04999 0.0
H5530 H 0.73508 0.08402 0.0285 0.0
H5531 H 0.75919 0.09235 0.09468 0.0
H5532 H 0.77395 0.11006 0.12588 0.0
H5533 H 0.73327 0.14022 0.12823 0.0
H5534 H 0.71838 0.12287 0.09693 0.0
H5535 H 0.65632 0.02778 0.04423 0.0
H5536 H 0.68649 0.04109 0.04354 0.0
H5537 H 0.67784 0.09511 0.06401 0.0
H5538 H 0.64791 0.0819 0.06487 0.0
H5539 H 0.70525 0.08787 0.08481 0.0
H5540 H 0.68276 0.08227 0.01764 0.0
H5541 H 0.66797 0.06551 0.98606 0.0
H5542 H 0.70526 0.03085 0.98535 0.0
H5543 H 0.72016 0.04727 0.01708 0.0
C5544 C 0.77284 0.13715 0.06487 0.0
C5545 C 0.78665 0.12947 0.05975 0.0
C5546 C 0.75686 0.12594 0.06426 0.0
C5547 C 0.7544 0.10681 0.05878 0.0
C5548 C 0.76812 0.09904 0.0536 0.0
C5549 C 0.78417 0.1103 0.05412 0.0
C5550 C 0.73732 0.09515 0.05829 0.0
C5551 C 0.72864 0.08453 0.0409 0.0
C5552 C 0.7289 0.09607 0.07441 0.0
C5553 C 0.73771 0.10635 0.0934 0.0
C5554 C 0.75344 0.10282 0.10181 0.0
C5555 C 0.76182 0.11279 0.11952 0.0
C5556 C 0.75456 0.12627 0.12902 0.0
C5557 C 0.73888 0.12977 0.12086 0.0
C5558 C 0.73044 0.11985 0.10314 0.0
C5559 C 0.66087 0.04251 0.04831 0.0
C5560 C 0.6499 0.05381 0.0548 0.0
C5561 C 0.67805 0.05009 0.04792 0.0
C5562 C 0.68438 0.06907 0.05378 0.0
C5563 C 0.67324 0.0804 0.05961 0.0
C5564 C 0.65618 0.07285 0.06012 0.0
C5565 C 0.70277 0.07723 0.05487 0.0
C5566 C 0.71174 0.08713 0.07246 0.0
C5567 C 0.71137 0.07568 0.03892 0.0
C5568 C 0.70245 0.06585 0.01983 0.0
C5569 C 0.68772 0.07097 0.01083 0.0
C5570 C 0.67933 0.06155 0.99289 0.0
C5571 C 0.68564 0.04708 0.98373 0.0
C5572 C 0.70037 0.04204 0.99248 0.0
C5573 C 0.7088 0.0514 0.01043 0.0
H5574 H 0.67913 0.03981 0.96984 0.0
H5575 H 0.76108 0.13399 0.14272 0.0
H5576 H 0.21769 0.46582 0.29116 0.0
H5577 H 0.23231 0.43968 0.29089 0.0
H5578 H 0.18346 0.40206 0.2753 0.0
H5579 H 0.16881 0.42828 0.27624 0.0
H5580 H 0.20093 0.38572 0.29665 0.0
H5581 H 0.21709 0.41321 0.24344 0.0
H5582 H 0.22899 0.43789 0.22638 0.0
H5583 H 0.27792 0.44566 0.26241 0.0
H5584 H 0.26625 0.42117 0.27984 0.0
H5585 H 0.23645 0.30533 0.27155 0.0
H5586 H 0.22195 0.3315 0.27146 0.0
H5587 H 0.27057 0.36897 0.29026 0.0
H5588 H 0.28516 0.34275 0.28964 0.0
H5589 H 0.25324 0.38519 0.26705 0.0
H5590 H 0.23555 0.3589 0.32176 0.0
H5591 H 0.22374 0.33241 0.33661 0.0
H5592 H 0.17797 0.32095 0.29471 0.0
H5593 H 0.18931 0.34752 0.27995 0.0
C5594 C 0.20995 0.45202 0.28763 0.0
C5595 C 0.19182 0.44962 0.28365 0.0
C5596 C 0.21846 0.43679 0.28728 0.0
C5597 C 0.20937 0.41821 0.28264 0.0
C5598 C 0.19122 0.41585 0.27891 0.0
C5599 C 0.18271 0.43109 0.27938 0.0
C5600 C 0.21857 0.40148 0.28187 0.0
C5601 C 0.21226 0.38578 0.28992 0.0
C5602 C 0.23369 0.40076 0.27346 0.0
C5603 C 0.24074 0.4155 0.26307 0.0
C5604 C 0.23035 0.42028 0.24781 0.0
C5605 C 0.23706 0.43421 0.23806 0.0
C5606 C 0.25419 0.44338 0.24335 0.0
C5607 C 0.26465 0.43858 0.25836 0.0
C5608 C 0.258 0.42466 0.26817 0.0
C5609 C 0.24418 0.31907 0.27571 0.0
C5610 C 0.26222 0.32142 0.28066 0.0
C5611 C 0.23572 0.33434 0.27587 0.0
C5612 C 0.24478 0.35288 0.28128 0.0
C5613 C 0.26285 0.3552 0.28605 0.0
C5614 C 0.27131 0.33994 0.28578 0.0
C5615 C 0.23564 0.36962 0.2819 0.0
C5616 C 0.24196 0.38528 0.27384 0.0
C5617 C 0.2205 0.37031 0.29017 0.0
C5618 C 0.21323 0.35515 0.29981 0.0
C5619 C 0.22287 0.3508 0.31588 0.0
C5620 C 0.21625 0.33579 0.32429 0.0
C5621 C 0.20003 0.32503 0.31669 0.0
C5622 C 0.19038 0.32937 0.30077 0.0
C5623 C 0.19684 0.34447 0.29244 0.0
H5624 H 0.19497 0.3133 0.32309 0.0
H5625 H 0.25936 0.45416 0.23578 0.0
H5626 H 0.23842 0.3919 0.04811 0.0
H5627 H 0.21265 0.40535 0.04566 0.0
H5628 H 0.24439 0.45989 0.05919 0.0
H5629 H 0.27016 0.44658 0.06148 0.0
H5630 H 0.19918 0.42787 0.0699 0.0
H5631 H 0.2266 0.48782 0.03208 0.0
H5632 H 0.24794 0.49475 0.01091 0.0
H5633 H 0.24161 0.43703 0.9897 0.0
H5634 H 0.22006 0.42978 0.01052 0.0
H5635 H 0.14473 0.49418 0.06835 0.0
H5636 H 0.16857 0.47789 0.07277 0.0
H5637 H 0.16074 0.459 0.01202 0.0
H5638 H 0.13712 0.47539 0.00754 0.0
H5639 H 0.19324 0.47157 0.02408 0.0
H5640 H 0.14932 0.42986 0.04449 0.0
H5641 H 0.12662 0.42065 0.06337 0.0
H5642 H 0.1632 0.4376 0.11515 0.0
H5643 H 0.18609 0.44714 0.09659 0.0
C5644 C 0.23991 0.40675 0.05068 0.0
C5645 C 0.25636 0.41816 0.05484 0.0
C5646 C 0.22516 0.41442 0.04934 0.0
C5647 C 0.22657 0.43364 0.05202 0.0
C5648 C 0.24297 0.44503 0.0568 0.0
C5649 C 0.2577 0.43739 0.05815 0.0
C5650 C 0.21097 0.4418 0.04909 0.0
C5651 C 0.19788 0.43746 0.05992 0.0
C5652 C 0.20908 0.45403 0.03579 0.0
C5653 C 0.22186 0.45826 0.02302 0.0
C5654 C 0.22972 0.47662 0.02284 0.0
C5655 C 0.24186 0.4806 0.01091 0.0
C5656 C 0.24617 0.46634 0.99901 0.0
C5657 C 0.23831 0.44806 0.99897 0.0
C5658 C 0.22615 0.44401 0.01085 0.0
C5659 C 0.14796 0.48634 0.05598 0.0
C5660 C 0.13909 0.48617 0.03759 0.0
C5661 C 0.1616 0.47702 0.05852 0.0
C5662 C 0.16647 0.46712 0.04273 0.0
C5663 C 0.15735 0.46662 0.02442 0.0
C5664 C 0.14384 0.47602 0.02188 0.0
C5665 C 0.18147 0.45788 0.04508 0.0
C5666 C 0.1945 0.46204 0.03413 0.0
C5667 C 0.1831 0.4452 0.05797 0.0
C5668 C 0.16939 0.43937 0.06916 0.0
C5669 C 0.1525 0.43175 0.05991 0.0
C5670 C 0.1396 0.42644 0.07055 0.0
C5671 C 0.14346 0.42858 0.09045 0.0
C5672 C 0.16023 0.43597 0.09974 0.0
C5673 C 0.17318 0.44131 0.08917 0.0
H5674 H 0.13345 0.42447 0.09866 0.0
H5675 H 0.25558 0.46945 0.9898 0.0
H5676 H 0.89987 0.92705 0.22326 0.0
H5677 H 0.87777 0.90039 0.22534 0.0
H5678 H 0.85932 0.93319 0.26919 0.0
H5679 H 0.88103 0.96006 0.26685 0.0
H5680 H 0.86942 0.89539 0.2757 0.0
H5681 H 0.83455 0.92607 0.23413 0.0
H5682 H 0.82836 0.94011 0.20532 0.0
H5683 H 0.82926 0.88939 0.16978 0.0
H5684 H 0.83573 0.87513 0.19842 0.0
H5685 H 0.79846 0.83282 0.29095 0.0
H5686 H 0.8182 0.86016 0.28633 0.0
H5687 H 0.81548 0.83652 0.22726 0.0
H5688 H 0.79428 0.80993 0.23159 0.0
H5689 H 0.81698 0.86984 0.22769 0.0
H5690 H 0.85245 0.83863 0.26593 0.0
H5691 H 0.86069 0.82287 0.29296 0.0
H5692 H 0.8616 0.87169 0.33247 0.0
H5693 H 0.85334 0.88769 0.30566 0.0
C5694 C 0.891 0.92863 0.2332 0.0
C5695 C 0.89216 0.94563 0.24489 0.0
C5696 C 0.8784 0.91342 0.23435 0.0
C5697 C 0.867 0.91492 0.24741 0.0
C5698 C 0.86804 0.93186 0.259 0.0
C5699 C 0.88038 0.94718 0.25759 0.0
C5700 C 0.85445 0.89857 0.24952 0.0
C5701 C 0.85783 0.88986 0.26537 0.0
C5702 C 0.83977 0.89107 0.2356 0.0
C5703 C 0.83583 0.89961 0.21841 0.0
C5704 C 0.83362 0.91798 0.22018 0.0
C5705 C 0.83001 0.92596 0.20388 0.0
C5706 C 0.82847 0.91567 0.18573 0.0
C5707 C 0.83049 0.89735 0.18385 0.0
C5708 C 0.83411 0.88931 0.2001 0.0
C5709 C 0.80202 0.83362 0.27697 0.0
C5710 C 0.79495 0.81946 0.26159 0.0
C5711 C 0.8135 0.84912 0.27437 0.0
C5712 C 0.81887 0.85027 0.25658 0.0
C5713 C 0.81164 0.83603 0.24114 0.0
C5714 C 0.79956 0.82085 0.24358 0.0
C5715 C 0.83177 0.86644 0.25408 0.0
C5716 C 0.82855 0.87517 0.2381 0.0
C5717 C 0.8469 0.87369 0.26765 0.0
C5718 C 0.85211 0.86425 0.28381 0.0
C5719 C 0.85431 0.84592 0.28039 0.0
C5720 C 0.859 0.83697 0.29566 0.0
C5721 C 0.86156 0.84623 0.31441 0.0
C5722 C 0.85957 0.86452 0.31793 0.0
C5723 C 0.85495 0.87355 0.30271 0.0
H5724 H 0.86514 0.83927 0.32622 0.0
H5725 H 0.82567 0.92187 0.17313 0.0
H5726 H 0.67192 0.08232 0.80334 0.0
H5727 H 0.68831 0.11295 0.80293 0.0
H5728 H 0.72616 0.08894 0.77674 0.0
H5729 H 0.70989 0.05782 0.7779 0.0
H5730 H 0.74273 0.1194 0.79834 0.0
H5731 H 0.69295 0.10847 0.75106 0.0
H5732 H 0.66217 0.0997 0.73733 0.0
H5733 H 0.65159 0.14373 0.77601 0.0
H5734 H 0.68228 0.15263 0.79015 0.0
H5735 H 0.76976 0.2036 0.75834 0.0
H5736 H 0.75616 0.17212 0.76121 0.0
H5737 H 0.73317 0.19357 0.80803 0.0
H5738 H 0.7473 0.22514 0.80571 0.0
H5739 H 0.7098 0.16444 0.77481 0.0
H5740 H 0.76159 0.17478 0.82134 0.0
H5741 H 0.79293 0.18338 0.83187 0.0
H5742 H 0.80017 0.13987 0.79007 0.0
H5743 H 0.76886 0.13119 0.77909 0.0
C5744 C 0.68385 0.0834 0.79765 0.0
C5745 C 0.68939 0.06727 0.79063 0.0
C5746 C 0.69322 0.10116 0.79721 0.0
C5747 C 0.70842 0.10379 0.78919 0.0
C5748 C 0.71447 0.08769 0.78288 0.0
C5749 C 0.70515 0.06974 0.78361 0.0
C5750 C 0.71749 0.1232 0.7872 0.0
C5751 C 0.73542 0.12905 0.79296 0.0
C5752 C 0.70836 0.13636 0.78025 0.0
C5753 C 0.68989 0.13111 0.77179 0.0
C5754 C 0.68404 0.11621 0.75673 0.0
C5755 C 0.66661 0.11122 0.74886 0.0
C5756 C 0.65493 0.12112 0.75583 0.0
C5757 C 0.66065 0.13606 0.77065 0.0
C5758 C 0.67806 0.14109 0.77858 0.0
C5759 C 0.76184 0.20172 0.76931 0.0
C5760 C 0.75972 0.21722 0.78174 0.0
C5761 C 0.75405 0.18356 0.77097 0.0
C5762 C 0.74349 0.18014 0.78484 0.0
C5763 C 0.74117 0.19558 0.79715 0.0
C5764 C 0.74934 0.21375 0.79583 0.0
C5765 C 0.73482 0.16058 0.78628 0.0
C5766 C 0.717 0.15472 0.78026 0.0
C5767 C 0.7441 0.14737 0.79258 0.0
C5768 C 0.76289 0.15247 0.79925 0.0
C5769 C 0.76987 0.16717 0.81426 0.0
C5770 C 0.78763 0.17203 0.82035 0.0
C5771 C 0.79854 0.16222 0.81161 0.0
C5772 C 0.7917 0.14748 0.79681 0.0
C5773 C 0.77395 0.14257 0.79066 0.0
H5774 H 0.81228 0.166 0.81634 0.0
H5775 H 0.64144 0.11724 0.74973 0.0
loop_
_geom_bond_atom_site_label_1
_geom_bond_atom_site_label_2
_geom_bond_distance
_geom_bond_site_symmetry_2
_ccdc_geom_bond_type
C0 O1 1.306 . S
C0 O3 1.160 . S
O1 C0 1.306 . S
O1 Cd2 2.228 1_655 S
Cd2 O1 2.228 1_455 S
Cd2 O6 2.273 . S
Cd2 O10 2.277 . S
O3 C0 1.160 . S
O3 Cd4 2.203 1_655 S
Cd4 O3 2.203 1_455 S
Cd4 O6 2.411 . S
Cd4 O7 2.333 . S
Cd4 O8 2.352 1_455 S
Cd4 O12 2.277 . S
Cd4 O13 2.356 . S
C5 O10 1.209 . S
C5 O12 1.226 . S
O6 Cd2 2.273 . S
O6 Cd4 2.411 . S
O6 C9 1.320 . S
O7 Cd4 2.333 . S
O7 C9 1.214 . S
O8 Cd4 2.352 1_655 S
O8 C11 1.258 1_655 S
C9 O6 1.320 . S
C9 O7 1.214 . S
O10 Cd2 2.277 . S
O10 C5 1.209 . S
C11 O8 1.258 1_455 S
C11 O13 1.282 . S
O12 Cd4 2.277 . S
O12 C5 1.226 . S
O13 Cd4 2.356 . S
O13 C11 1.282 . S
C14 O15 1.306 . S
C14 O17 1.160 . S
O15 C14 1.306 . S
O15 Cd16 2.228 . S
Cd16 O15 2.228 . S
Cd16 O20 2.273 . S
Cd16 O24 2.277 . S
O17 C14 1.160 . S
O17 Cd18 2.203 . S
Cd18 O17 2.203 . S
Cd18 O20 2.411 . S
Cd18 O21 2.333 . S
Cd18 O22 2.352 . S
Cd18 O26 2.277 . S
Cd18 O27 2.356 . S
C19 O24 1.209 . S
C19 O26 1.226 . S
O20 Cd16 2.273 . S
O20 Cd18 2.411 . S
O20 C23 1.320 . S
O21 Cd18 2.333 . S
O21 C23 1.214 . S
O22 Cd18 2.352 . S
O22 C25 1.258 . S
C23 O20 1.320 . S
C23 O21 1.214 . S
O24 Cd16 2.277 . S
O24 C19 1.209 . S
C25 O22 1.258 . S
C25 O27 1.282 . S
O26 Cd18 2.277 . S
O26 C19 1.226 . S
O27 Cd18 2.356 . S
O27 C25 1.282 . S
C28 O29 1.306 . S
C28 O31 1.160 . S
O29 C28 1.306 . S
O29 Cd30 2.228 . S
Cd30 O29 2.228 . S
Cd30 O34 2.273 . S
Cd30 O38 2.277 . S
O31 C28 1.160 . S
O31 Cd32 2.203 . S
Cd32 O31 2.203 . S
Cd32 O34 2.411 . S
Cd32 O35 2.333 . S
Cd32 O36 2.352 . S
Cd32 O40 2.277 . S
Cd32 O41 2.356 . S
C33 O38 1.209 . S
C33 O40 1.226 . S
O34 Cd30 2.273 . S
O34 Cd32 2.411 . S
O34 C37 1.320 . S
O35 Cd32 2.333 . S
O35 C37 1.214 . S
O36 Cd32 2.352 . S
O36 C39 1.258 . S
C37 O34 1.320 . S
C37 O35 1.214 . S
O38 Cd30 2.277 . S
O38 C33 1.209 . S
C39 O36 1.258 . S
C39 O41 1.282 . S
O40 Cd32 2.277 . S
O40 C33 1.226 . S
O41 Cd32 2.356 . S
O41 C39 1.282 . S
C42 O43 1.306 . S
C42 O45 1.160 . S
O43 C42 1.306 . S
O43 Cd44 2.228 . S
Cd44 O43 2.228 . S
Cd44 O48 2.273 . S
Cd44 O52 2.277 . S
O45 C42 1.160 . S
O45 Cd46 2.203 . S
Cd46 O45 2.203 . S
Cd46 O48 2.411 . S
Cd46 O49 2.333 . S
Cd46 O50 2.352 . S
Cd46 O54 2.277 . S
Cd46 O55 2.356 . S
C47 O52 1.209 . S
C47 O54 1.226 . S
O48 Cd44 2.273 . S
O48 Cd46 2.411 . S
O48 C51 1.320 . S
O49 Cd46 2.333 . S
O49 C51 1.214 . S
O50 Cd46 2.352 . S
O50 C53 1.258 . S
C51 O48 1.320 . S
C51 O49 1.214 . S
O52 Cd44 2.277 . S
O52 C47 1.209 . S
C53 O50 1.258 . S
C53 O55 1.282 . S
O54 Cd46 2.277 . S
O54 C47 1.226 . S
O55 Cd46 2.356 . S
O55 C53 1.282 . S
C56 O57 1.306 . S
C56 O59 1.160 . S
O57 C56 1.306 . S
O57 Cd58 2.228 . S
Cd58 O57 2.228 . S
Cd58 O62 2.273 . S
Cd58 O66 2.277 . S
O59 C56 1.160 . S
O59 Cd60 2.203 . S
Cd60 O59 2.203 . S
Cd60 O62 2.411 . S
Cd60 O63 2.333 . S
Cd60 O64 2.352 . S
Cd60 O68 2.277 . S
Cd60 O69 2.356 . S
C61 O66 1.209 . S
C61 O68 1.226 . S
O62 Cd58 2.273 . S
O62 Cd60 2.411 . S
O62 C65 1.320 . S
O63 Cd60 2.333 . S
O63 C65 1.214 . S
O64 Cd60 2.352 . S
O64 C67 1.258 . S
C65 O62 1.320 . S
C65 O63 1.214 . S
O66 Cd58 2.277 . S
O66 C61 1.209 . S
C67 O64 1.258 . S
C67 O69 1.282 . S
O68 Cd60 2.277 . S
O68 C61 1.226 . S
O69 Cd60 2.356 . S
O69 C67 1.282 . S
C70 O71 1.306 . S
C70 O73 1.160 . S
O71 C70 1.306 . S
O71 Cd72 2.228 . S
Cd72 O71 2.228 . S
Cd72 O76 2.273 . S
Cd72 O80 2.277 . S
O73 C70 1.160 . S
O73 Cd74 2.203 . S
Cd74 O73 2.203 . S
Cd74 O76 2.411 . S
Cd74 O77 2.333 . S
Cd74 O78 2.352 . S
Cd74 O82 2.277 . S
Cd74 O83 2.356 . S
C75 O80 1.209 . S
C75 O82 1.226 . S
O76 Cd72 2.273 . S
O76 Cd74 2.411 . S
O76 C79 1.320 . S
O77 Cd74 2.333 . S
O77 C79 1.214 . S
O78 Cd74 2.352 . S
O78 C81 1.258 . S
C79 O76 1.320 . S
C79 O77 1.214 . S
O80 Cd72 2.277 . S
O80 C75 1.209 . S
C81 O78 1.258 . S
C81 O83 1.282 . S
O82 Cd74 2.277 . S
O82 C75 1.226 . S
O83 Cd74 2.356 . S
O83 C81 1.282 . S
C84 O85 1.306 . S
C84 O87 1.160 . S
O85 C84 1.306 . S
O85 Cd86 2.228 . S
Cd86 O85 2.228 . S
Cd86 O90 2.273 . S
Cd86 O94 2.277 . S
O87 C84 1.160 . S
O87 Cd88 2.203 . S
Cd88 O87 2.203 . S
Cd88 O90 2.411 . S
Cd88 O91 2.333 . S
Cd88 O92 2.352 . S
Cd88 O96 2.277 . S
Cd88 O97 2.356 . S
C89 O94 1.209 . S
C89 O96 1.226 . S
O90 Cd86 2.273 . S
O90 Cd88 2.411 . S
O90 C93 1.320 . S
O91 Cd88 2.333 . S
O91 C93 1.214 . S
O92 Cd88 2.352 . S
O92 C95 1.258 . S
C93 O90 1.320 . S
C93 O91 1.214 . S
O94 Cd86 2.277 . S
O94 C89 1.209 . S
C95 O92 1.258 . S
C95 O97 1.282 . S
O96 Cd88 2.277 . S
O96 C89 1.226 . S
O97 Cd88 2.356 . S
O97 C95 1.282 . S
C98 O99 1.306 . S
C98 O101 1.160 . S
O99 C98 1.306 . S
O99 Cd100 2.228 1_655 S
Cd100 O99 2.228 1_455 S
Cd100 O104 2.273 . S
Cd100 O108 2.277 . S
O101 C98 1.160 . S
O101 Cd102 2.203 1_655 S
Cd102 O101 2.203 1_455 S
Cd102 O104 2.411 . S
Cd102 O105 2.333 . S
Cd102 O106 2.352 . S
Cd102 O110 2.277 . S
Cd102 O111 2.356 . S
C103 O108 1.209 . S
C103 O110 1.226 . S
O104 Cd100 2.273 . S
O104 Cd102 2.411 . S
O104 C107 1.320 . S
O105 Cd102 2.333 . S
O105 C107 1.214 . S
O106 Cd102 2.352 . S
O106 C109 1.258 . S
C107 O104 1.320 . S
C107 O105 1.214 . S
O108 Cd100 2.277 . S
O108 C103 1.209 . S
C109 O106 1.258 . S
C109 O111 1.282 . S
O110 Cd102 2.277 . S
O110 C103 1.226 . S
O111 Cd102 2.356 . S
O111 C109 1.282 . S
C112 O113 1.306 . S
C112 O115 1.160 . S
O113 C112 1.306 . S
O113 Cd114 2.228 1_545 S
Cd114 O113 2.228 1_565 S
Cd114 O118 2.273 1_565 S
Cd114 O122 2.277 . S
O115 C112 1.160 . S
O115 Cd116 2.203 . S
Cd116 O115 2.203 . S
Cd116 O118 2.411 . S
Cd116 O119 2.333 . S
Cd116 O120 2.352 . S
Cd116 O124 2.277 1_545 S
Cd116 O125 2.356 . S
C117 O122 1.209 . S
C117 O124 1.226 . S
O118 Cd114 2.273 1_545 S
O118 Cd116 2.411 . S
O118 C121 1.320 . S
O119 Cd116 2.333 . S
O119 C121 1.214 . S
O120 Cd116 2.352 . S
O120 C123 1.258 . S
C121 O118 1.320 . S
C121 O119 1.214 . S
O122 Cd114 2.277 . S
O122 C117 1.209 . S
C123 O120 1.258 . S
C123 O125 1.282 . S
O124 Cd116 2.277 1_565 S
O124 C117 1.226 . S
O125 Cd116 2.356 . S
O125 C123 1.282 . S
C126 O127 1.306 . S
C126 O129 1.160 . S
O127 C126 1.306 . S
O127 Cd128 2.228 . S
Cd128 O127 2.228 . S
Cd128 O132 2.273 . S
Cd128 O136 2.277 . S
O129 C126 1.160 . S
O129 Cd130 2.203 . S
Cd130 O129 2.203 . S
Cd130 O132 2.411 . S
Cd130 O133 2.333 . S
Cd130 O134 2.352 . S
Cd130 O138 2.277 . S
Cd130 O139 2.356 . S
C131 O136 1.209 . S
C131 O138 1.226 . S
O132 Cd128 2.273 . S
O132 Cd130 2.411 . S
O132 C135 1.320 . S
O133 Cd130 2.333 . S
O133 C135 1.214 . S
O134 Cd130 2.352 . S
O134 C137 1.258 . S
C135 O132 1.320 . S
C135 O133 1.214 . S
O136 Cd128 2.277 . S
O136 C131 1.209 . S
C137 O134 1.258 . S
C137 O139 1.282 . S
O138 Cd130 2.277 . S
O138 C131 1.226 . S
O139 Cd130 2.356 . S
O139 C137 1.282 . S
C140 O141 1.306 . S
C140 O143 1.160 . S
O141 C140 1.306 . S
O141 Cd142 2.228 . S
Cd142 O141 2.228 . S
Cd142 O146 2.273 . S
Cd142 O150 2.277 . S
O143 C140 1.160 . S
O143 Cd144 2.203 . S
Cd144 O143 2.203 . S
Cd144 O146 2.411 . S
Cd144 O147 2.333 . S
Cd144 O148 2.352 1_545 S
Cd144 O152 2.277 . S
Cd144 O153 2.356 . S
C145 O150 1.209 . S
C145 O152 1.226 . S
O146 Cd142 2.273 . S
O146 Cd144 2.411 . S
O146 C149 1.320 . S
O147 Cd144 2.333 . S
O147 C149 1.214 . S
O148 Cd144 2.352 1_565 S
O148 C151 1.258 . S
C149 O146 1.320 . S
C149 O147 1.214 . S
O150 Cd142 2.277 . S
O150 C145 1.209 . S
C151 O148 1.258 . S
C151 O153 1.282 1_565 S
O152 Cd144 2.277 . S
O152 C145 1.226 . S
O153 Cd144 2.356 . S
O153 C151 1.282 1_545 S
C154 O155 1.306 1_554 S
C154 O157 1.160 . S
O155 C154 1.306 1_556 S
O155 Cd156 2.228 . S
Cd156 O155 2.228 . S
Cd156 O160 2.271 . S
Cd156 O164 2.277 . S
O157 C154 1.160 . S
O157 Cd158 2.203 . S
Cd158 O157 2.203 . S
Cd158 O160 2.411 1_554 S
Cd158 O161 2.333 . S
Cd158 O162 2.352 . S
Cd158 O166 2.277 1_554 S
Cd158 O167 2.356 . S
C159 O164 1.209 . S
C159 O166 1.226 . S
O160 Cd156 2.271 . S
O160 Cd158 2.411 1_556 S
O160 C163 1.329 . S
O161 Cd158 2.333 . S
O161 C163 1.206 1_554 S
O162 Cd158 2.352 . S
O162 C165 1.258 . S
C163 O160 1.329 . S
C163 O161 1.206 1_556 S
O164 Cd156 2.277 . S
O164 C159 1.209 . S
C165 O162 1.258 . S
C165 O167 1.282 . S
O166 Cd158 2.277 1_556 S
O166 C159 1.226 . S
O167 Cd158 2.356 . S
O167 C165 1.282 . S
C168 O169 1.306 . S
C168 O171 1.160 . S
O169 C168 1.306 . S
O169 Cd170 2.250 . S
Cd170 O169 2.250 . S
Cd170 O174 2.312 . S
Cd170 O178 2.271 1_554 S
O171 C168 1.160 . S
O171 Cd172 2.203 . S
Cd172 O171 2.203 . S
Cd172 O174 2.411 . S
Cd172 O175 2.333 . S
Cd172 O176 2.352 . S
Cd172 O180 2.310 . S
Cd172 O181 2.356 . S
C173 O178 1.209 . S
C173 O180 1.191 1_556 S
O174 Cd170 2.312 . S
O174 Cd172 2.411 . S
O174 C177 1.320 . S
O175 Cd172 2.333 . S
O175 C177 1.214 . S
O176 Cd172 2.352 . S
O176 C179 1.258 . S
C177 O174 1.320 . S
C177 O175 1.214 . S
O178 Cd170 2.271 1_556 S
O178 C173 1.209 . S
C179 O176 1.258 . S
C179 O181 1.282 . S
O180 Cd172 2.310 . S
O180 C173 1.191 1_554 S
O181 Cd172 2.356 . S
O181 C179 1.282 . S
C182 O183 1.306 . S
C182 O185 1.160 . S
O183 C182 1.306 . S
O183 Cd184 2.228 . S
Cd184 O183 2.228 . S
Cd184 O188 2.273 . S
Cd184 O192 2.277 . S
O185 C182 1.160 . S
O185 Cd186 2.203 . S
Cd186 O185 2.203 . S
Cd186 O188 2.411 . S
Cd186 O189 2.333 . S
Cd186 O190 2.352 . S
Cd186 O194 2.277 . S
Cd186 O195 2.356 . S
C187 O192 1.209 . S
C187 O194 1.226 . S
O188 Cd184 2.273 . S
O188 Cd186 2.411 . S
O188 C191 1.320 . S
O189 Cd186 2.333 . S
O189 C191 1.214 . S
O190 Cd186 2.352 . S
O190 C193 1.258 . S
C191 O188 1.320 . S
C191 O189 1.214 . S
O192 Cd184 2.277 . S
O192 C187 1.209 . S
C193 O190 1.258 . S
C193 O195 1.282 . S
O194 Cd186 2.277 . S
O194 C187 1.226 . S
O195 Cd186 2.356 . S
O195 C193 1.282 . S
C196 O197 1.306 . S
C196 O199 1.160 . S
O197 C196 1.306 . S
O197 Cd198 2.228 . S
Cd198 O197 2.228 . S
Cd198 O202 2.273 . S
Cd198 O206 2.277 . S
O199 C196 1.160 . S
O199 Cd200 2.203 . S
Cd200 O199 2.203 . S
Cd200 O202 2.411 . S
Cd200 O203 2.333 . S
Cd200 O204 2.352 . S
Cd200 O208 2.277 . S
Cd200 O209 2.356 . S
C201 O206 1.209 . S
C201 O208 1.226 . S
O202 Cd198 2.273 . S
O202 Cd200 2.411 . S
O202 C205 1.320 . S
O203 Cd200 2.333 . S
O203 C205 1.214 . S
O204 Cd200 2.352 . S
O204 C207 1.258 . S
C205 O202 1.320 . S
C205 O203 1.214 . S
O206 Cd198 2.277 . S
O206 C201 1.209 . S
C207 O204 1.258 . S
C207 O209 1.282 . S
O208 Cd200 2.277 . S
O208 C201 1.226 . S
O209 Cd200 2.356 . S
O209 C207 1.282 . S
C210 O211 1.306 . S
C210 O213 1.160 . S
O211 C210 1.306 . S
O211 Cd212 2.228 . S
Cd212 O211 2.228 . S
Cd212 O216 2.273 . S
Cd212 O220 2.277 . S
O213 C210 1.160 . S
O213 Cd214 2.203 . S
Cd214 O213 2.203 . S
Cd214 O216 2.411 . S
Cd214 O217 2.333 . S
Cd214 O218 2.352 . S
Cd214 O222 2.277 . S
Cd214 O223 2.356 . S
C215 O220 1.209 . S
C215 O222 1.226 . S
O216 Cd212 2.273 . S
O216 Cd214 2.411 . S
O216 C219 1.320 . S
O217 Cd214 2.333 . S
O217 C219 1.214 . S
O218 Cd214 2.352 . S
O218 C221 1.258 . S
C219 O216 1.320 . S
C219 O217 1.214 . S
O220 Cd212 2.277 . S
O220 C215 1.209 . S
C221 O218 1.258 . S
C221 O223 1.282 . S
O222 Cd214 2.277 . S
O222 C215 1.226 . S
O223 Cd214 2.356 . S
O223 C221 1.282 . S
C224 O225 1.314 . S
C224 O227 1.160 . S
O225 C224 1.314 . S
O225 Cd226 2.219 1_545 S
Cd226 O225 2.219 1_565 S
Cd226 O230 2.273 1_565 S
Cd226 O234 2.277 . S
O227 C224 1.160 . S
O227 Cd228 2.203 . S
Cd228 O227 2.203 . S
Cd228 O230 2.411 . S
Cd228 O231 2.333 . S
Cd228 O232 2.352 . S
Cd228 O236 2.277 1_545 S
Cd228 O237 2.356 . S
C229 O234 1.209 . S
C229 O236 1.226 . S
O230 Cd226 2.273 1_545 S
O230 Cd228 2.411 . S
O230 C233 1.320 . S
O231 Cd228 2.333 . S
O231 C233 1.214 . S
O232 Cd228 2.352 . S
O232 C235 1.258 . S
C233 O230 1.320 . S
C233 O231 1.214 . S
O234 Cd226 2.277 . S
O234 C229 1.209 . S
C235 O232 1.258 . S
C235 O237 1.282 . S
O236 Cd228 2.277 1_565 S
O236 C229 1.226 . S
O237 Cd228 2.356 . S
O237 C235 1.282 . S
C238 O239 1.306 . S
C238 O241 1.160 . S
O239 C238 1.306 . S
O239 Cd240 2.228 . S
Cd240 O239 2.228 . S
Cd240 O244 2.273 . S
Cd240 O248 2.277 . S
O241 C238 1.160 . S
O241 Cd242 2.203 . S
Cd242 O241 2.203 . S
Cd242 O244 2.411 . S
Cd242 O245 2.333 . S
Cd242 O246 2.352 . S
Cd242 O250 2.277 . S
Cd242 O251 2.356 . S
C243 O248 1.209 . S
C243 O250 1.226 . S
O244 Cd240 2.273 . S
O244 Cd242 2.411 . S
O244 C247 1.320 . S
O245 Cd242 2.333 . S
O245 C247 1.214 . S
O246 Cd242 2.352 . S
O246 C249 1.258 . S
C247 O244 1.320 . S
C247 O245 1.214 . S
O248 Cd240 2.277 . S
O248 C243 1.209 . S
C249 O246 1.258 . S
C249 O251 1.282 . S
O250 Cd242 2.277 . S
O250 C243 1.226 . S
O251 Cd242 2.356 . S
O251 C249 1.282 . S
C252 O253 1.306 . S
C252 O255 1.160 . S
O253 C252 1.306 . S
O253 Cd254 2.228 . S
Cd254 O253 2.228 . S
Cd254 O258 2.273 . S
Cd254 O262 2.277 . S
O255 C252 1.160 . S
O255 Cd256 2.203 . S
Cd256 O255 2.203 . S
Cd256 O258 2.411 . S
Cd256 O259 2.333 . S
Cd256 O260 2.352 . S
Cd256 O264 2.277 . S
Cd256 O265 2.356 . S
C257 O262 1.209 . S
C257 O264 1.226 . S
O258 Cd254 2.273 . S
O258 Cd256 2.411 . S
O258 C261 1.320 . S
O259 Cd256 2.333 . S
O259 C261 1.214 . S
O260 Cd256 2.352 . S
O260 C263 1.258 . S
C261 O258 1.320 . S
C261 O259 1.214 . S
O262 Cd254 2.277 . S
O262 C257 1.209 . S
C263 O260 1.258 . S
C263 O265 1.282 . S
O264 Cd256 2.277 . S
O264 C257 1.226 . S
O265 Cd256 2.356 . S
O265 C263 1.282 . S
C266 O267 1.306 . S
C266 O269 1.160 . S
O267 C266 1.306 . S
O267 Cd268 2.228 . S
Cd268 O267 2.228 . S
Cd268 O272 2.273 . S
Cd268 O276 2.277 . S
O269 C266 1.160 . S
O269 Cd270 2.203 . S
Cd270 O269 2.203 . S
Cd270 O272 2.411 . S
Cd270 O273 2.333 . S
Cd270 O274 2.352 1_545 S
Cd270 O278 2.277 . S
Cd270 O279 2.356 1_545 S
C271 O276 1.209 . S
C271 O278 1.226 . S
O272 Cd268 2.273 . S
O272 Cd270 2.411 . S
O272 C275 1.320 . S
O273 Cd270 2.333 . S
O273 C275 1.214 . S
O274 Cd270 2.352 1_565 S
O274 C277 1.258 . S
C275 O272 1.320 . S
C275 O273 1.214 . S
O276 Cd268 2.277 . S
O276 C271 1.209 . S
C277 O274 1.258 . S
C277 O279 1.282 . S
O278 Cd270 2.277 . S
O278 C271 1.226 . S
O279 Cd270 2.356 1_565 S
O279 C277 1.282 . S
C280 O281 1.306 . S
C280 O283 1.160 . S
O281 C280 1.306 . S
O281 Cd282 2.228 . S
Cd282 O281 2.228 . S
Cd282 O286 2.273 . S
Cd282 O290 2.277 . S
O283 C280 1.160 . S
O283 Cd284 2.203 . S
Cd284 O283 2.203 . S
Cd284 O286 2.411 . S
Cd284 O287 2.333 . S
Cd284 O288 2.352 1_554 S
Cd284 O292 2.277 . S
Cd284 O293 2.356 1_554 S
C285 O290 1.209 . S
C285 O292 1.226 . S
O286 Cd282 2.273 . S
O286 Cd284 2.411 . S
O286 C289 1.320 . S
O287 Cd284 2.333 . S
O287 C289 1.214 . S
O288 Cd284 2.352 1_556 S
O288 C291 1.258 . S
C289 O286 1.320 . S
C289 O287 1.214 . S
O290 Cd282 2.277 . S
O290 C285 1.209 . S
C291 O288 1.258 . S
C291 O293 1.282 . S
O292 Cd284 2.277 . S
O292 C285 1.226 . S
O293 Cd284 2.356 1_556 S
O293 C291 1.282 . S
C294 O295 1.306 . S
C294 O297 1.160 . S
O295 C294 1.306 . S
O295 Cd296 2.228 . S
Cd296 O295 2.228 . S
Cd296 O300 2.273 . S
Cd296 O304 2.277 . S
O297 C294 1.160 . S
O297 Cd298 2.203 . S
Cd298 O297 2.203 . S
Cd298 O300 2.411 . S
Cd298 O301 2.333 . S
Cd298 O302 2.352 . S
Cd298 O306 2.277 . S
Cd298 O307 2.356 . S
C299 O304 1.209 . S
C299 O306 1.226 . S
O300 Cd296 2.273 . S
O300 Cd298 2.411 . S
O300 C303 1.320 . S
O301 Cd298 2.333 . S
O301 C303 1.214 . S
O302 Cd298 2.352 . S
O302 C305 1.258 . S
C303 O300 1.320 . S
C303 O301 1.214 . S
O304 Cd296 2.277 . S
O304 C299 1.209 . S
C305 O302 1.258 . S
C305 O307 1.282 . S
O306 Cd298 2.277 . S
O306 C299 1.226 . S
O307 Cd298 2.356 . S
O307 C305 1.282 . S
C308 O309 1.306 . S
C308 O311 1.160 . S
O309 C308 1.306 . S
O309 Cd310 2.228 . S
Cd310 O309 2.228 . S
Cd310 O314 2.273 . S
Cd310 O318 2.277 . S
O311 C308 1.160 . S
O311 Cd312 2.203 . S
Cd312 O311 2.203 . S
Cd312 O314 2.411 . S
Cd312 O315 2.333 . S
Cd312 O316 2.352 . S
Cd312 O320 2.277 . S
Cd312 O321 2.356 . S
C313 O318 1.209 . S
C313 O320 1.226 . S
O314 Cd310 2.273 . S
O314 Cd312 2.411 . S
O314 C317 1.320 . S
O315 Cd312 2.333 . S
O315 C317 1.214 . S
O316 Cd312 2.352 . S
O316 C319 1.258 . S
C317 O314 1.320 . S
C317 O315 1.214 . S
O318 Cd310 2.277 . S
O318 C313 1.209 . S
C319 O316 1.258 . S
C319 O321 1.282 . S
O320 Cd312 2.277 . S
O320 C313 1.226 . S
O321 Cd312 2.356 . S
O321 C319 1.282 . S
C322 O323 1.306 . S
C322 O325 1.160 . S
O323 C322 1.306 . S
O323 Cd324 2.228 . S
Cd324 O323 2.228 . S
Cd324 O328 2.273 . S
Cd324 O332 2.277 . S
O325 C322 1.160 . S
O325 Cd326 2.203 . S
Cd326 O325 2.203 . S
Cd326 O328 2.411 . S
Cd326 O329 2.333 . S
Cd326 O330 2.352 . S
Cd326 O334 2.277 . S
Cd326 O335 2.356 . S
C327 O332 1.209 . S
C327 O334 1.226 . S
O328 Cd324 2.273 . S
O328 Cd326 2.411 . S
O328 C331 1.320 . S
O329 Cd326 2.333 . S
O329 C331 1.214 . S
O330 Cd326 2.352 . S
O330 C333 1.258 . S
C331 O328 1.320 . S
C331 O329 1.214 . S
O332 Cd324 2.277 . S
O332 C327 1.209 . S
C333 O330 1.258 . S
C333 O335 1.282 . S
O334 Cd326 2.277 . S
O334 C327 1.226 . S
O335 Cd326 2.356 . S
O335 C333 1.282 . S
Tb336 C338 2.809 1_455 S
Tb336 O356 2.484 1_455 S
Tb336 O357 2.440 1_454 S
Tb336 O358 2.658 . S
Tb336 O359 2.409 1_554 S
Tb336 O360 2.378 . S
Tb336 O364 2.325 . S
Tb336 O367 2.341 1_545 S
Tb337 C347 2.809 . S
Tb337 O358 2.325 . S
Tb337 O361 2.341 . S
Tb337 O362 2.514 . S
Tb337 O363 2.440 . S
Tb337 O364 2.658 . S
Tb337 O365 2.409 . S
Tb337 O366 2.378 1_545 S
C338 Tb336 2.809 1_655 S
C338 C339 1.514 . S
C338 O356 1.248 . S
C338 O357 1.266 1_554 S
C339 C338 1.514 . S
C339 C340 1.359 . S
C339 C344 1.348 1_554 S
C340 C339 1.359 . S
C340 C341 1.380 . S
C340 H368 0.929 . S
C341 C340 1.380 . S
C341 C342 1.319 1_554 S
C341 H369 0.931 . S
C342 C341 1.319 1_556 S
C342 C343 1.393 . S
C343 C342 1.393 . S
C343 C344 1.408 . S
C343 H370 0.930 . S
C344 C339 1.348 1_556 S
C344 C343 1.408 . S
C344 H371 0.930 . S
C345 O358 1.281 1_556 S
C345 O359 1.254 . S
C346 O360 1.236 . S
C346 O361 1.266 . S
C347 Tb337 2.809 . S
C347 C348 1.514 1_545 S
C347 O362 1.242 . S
C347 O363 1.266 . S
C348 C347 1.514 1_565 S
C348 C349 1.359 . S
C348 C353 1.348 . S
C349 C348 1.359 . S
C349 C350 1.380 . S
C349 H372 0.929 . S
C350 C349 1.380 . S
C350 C351 1.347 . S
C350 H373 0.931 . S
C351 C350 1.347 . S
C351 C352 1.369 . S
C352 C351 1.369 . S
C352 C353 1.408 . S
C352 H374 0.930 . S
C353 C348 1.348 . S
C353 C352 1.408 . S
C353 H375 0.930 . S
C354 O364 1.281 . S
C354 O365 1.254 . S
C355 O366 1.236 . S
C355 O367 1.266 . S
O356 Tb336 2.484 1_655 S
O356 C338 1.248 . S
O357 Tb336 2.440 1_656 S
O357 C338 1.266 1_556 S
O358 Tb336 2.658 . S
O358 Tb337 2.325 . S
O358 C345 1.281 1_554 S
O359 Tb336 2.409 1_556 S
O359 C345 1.254 . S
O360 Tb336 2.378 . S
O360 C346 1.236 . S
O361 Tb337 2.341 . S
O361 C346 1.266 . S
O362 Tb337 2.514 . S
O362 C347 1.242 . S
O363 Tb337 2.440 . S
O363 C347 1.266 . S
O364 Tb336 2.325 . S
O364 Tb337 2.658 . S
O364 C354 1.281 . S
O365 Tb337 2.409 . S
O365 C354 1.254 . S
O366 Tb337 2.378 1_565 S
O366 C355 1.236 . S
O367 Tb336 2.341 1_565 S
O367 C355 1.266 . S
H368 C340 0.929 . S
H369 C341 0.931 . S
H370 C343 0.930 . S
H371 C344 0.930 . S
H372 C349 0.929 . S
H373 C350 0.931 . S
H374 C352 0.930 . S
H375 C353 0.930 . S
Tb376 C378 2.809 . S
Tb376 O396 2.484 . S
Tb376 O397 2.440 . S
Tb376 O398 2.658 . S
Tb376 O399 2.409 . S
Tb376 O400 2.378 . S
Tb376 O404 2.325 . S
Tb376 O407 2.341 . S
Tb377 C387 2.809 . S
Tb377 O398 2.325 . S
Tb377 O401 2.341 . S
Tb377 O402 2.484 . S
Tb377 O403 2.440 . S
Tb377 O404 2.658 . S
Tb377 O405 2.409 . S
Tb377 O406 2.378 . S
C378 Tb376 2.809 . S
C378 C379 1.514 . S
C378 O396 1.248 . S
C378 O397 1.266 . S
C379 C378 1.514 . S
C379 C380 1.359 . S
C379 C384 1.348 . S
C380 C379 1.359 . S
C380 C381 1.380 . S
C380 H408 0.929 . S
C381 C380 1.380 . S
C381 C382 1.347 . S
C381 H409 0.931 . S
C382 C381 1.347 . S
C382 C383 1.369 . S
C383 C382 1.369 . S
C383 C384 1.408 . S
C383 H410 0.930 . S
C384 C379 1.348 . S
C384 C383 1.408 . S
C384 H411 0.930 . S
C385 O398 1.281 . S
C385 O399 1.254 . S
C386 O400 1.236 . S
C386 O401 1.266 . S
C387 Tb377 2.809 . S
C387 C388 1.514 . S
C387 O402 1.248 . S
C387 O403 1.266 . S
C388 C387 1.514 . S
C388 C389 1.359 . S
C388 C393 1.348 . S
C389 C388 1.359 . S
C389 C390 1.380 . S
C389 H412 0.929 . S
C390 C389 1.380 . S
C390 C391 1.347 . S
C390 H413 0.931 . S
C391 C390 1.347 . S
C391 C392 1.369 . S
C392 C391 1.369 . S
C392 C393 1.408 . S
C392 H414 0.930 . S
C393 C388 1.348 . S
C393 C392 1.408 . S
C393 H415 0.930 . S
C394 O404 1.281 . S
C394 O405 1.254 . S
C395 O406 1.236 . S
C395 O407 1.266 . S
O396 Tb376 2.484 . S
O396 C378 1.248 . S
O397 Tb376 2.440 . S
O397 C378 1.266 . S
O398 Tb376 2.658 . S
O398 Tb377 2.325 . S
O398 C385 1.281 . S
O399 Tb376 2.409 . S
O399 C385 1.254 . S
O400 Tb376 2.378 . S
O400 C386 1.236 . S
O401 Tb377 2.341 . S
O401 C386 1.266 . S
O402 Tb377 2.484 . S
O402 C387 1.248 . S
O403 Tb377 2.440 . S
O403 C387 1.266 . S
O404 Tb376 2.325 . S
O404 Tb377 2.658 . S
O404 C394 1.281 . S
O405 Tb377 2.409 . S
O405 C394 1.254 . S
O406 Tb377 2.378 . S
O406 C395 1.236 . S
O407 Tb376 2.341 . S
O407 C395 1.266 . S
H408 C380 0.929 . S
H409 C381 0.931 . S
H410 C383 0.930 . S
H411 C384 0.930 . S
H412 C389 0.929 . S
H413 C390 0.931 . S
H414 C392 0.930 . S
H415 C393 0.930 . S
Tb416 C418 2.809 1_545 S
Tb416 O436 2.484 1_545 S
Tb416 O437 2.440 . S
Tb416 O438 2.658 . S
Tb416 O439 2.409 . S
Tb416 O440 2.378 1_545 S
Tb416 O444 2.325 . S
Tb416 O447 2.341 . S
Tb417 C427 2.809 . S
Tb417 O438 2.325 . S
Tb417 O441 2.341 1_545 S
Tb417 O442 2.484 . S
Tb417 O443 2.440 . S
Tb417 O444 2.658 . S
Tb417 O445 2.409 . S
Tb417 O446 2.378 . S
C418 Tb416 2.809 1_565 S
C418 C419 1.514 . S
C418 O436 1.248 . S
C418 O437 1.266 1_565 S
C419 C418 1.514 . S
C419 C420 1.359 . S
C419 C424 1.348 . S
C420 C419 1.359 . S
C420 C421 1.380 . S
C420 H448 0.929 . S
C421 C420 1.380 . S
C421 C422 1.347 . S
C421 H449 0.931 . S
C422 C421 1.347 . S
C422 C423 1.369 . S
C423 C422 1.369 . S
C423 C424 1.408 . S
C423 H450 0.930 . S
C424 C419 1.348 . S
C424 C423 1.408 . S
C424 H451 0.930 . S
C425 O438 1.281 . S
C425 O439 1.254 . S
C426 O440 1.236 . S
C426 O441 1.266 . S
C427 Tb417 2.809 . S
C427 C428 1.514 . S
C427 O442 1.248 . S
C427 O443 1.266 . S
C428 C427 1.514 . S
C428 C429 1.359 . S
C428 C433 1.348 . S
C429 C428 1.359 . S
C429 C430 1.380 . S
C429 H452 0.929 . S
C430 C429 1.380 . S
C430 C431 1.347 . S
C430 H453 0.931 . S
C431 C430 1.347 . S
C431 C432 1.369 . S
C432 C431 1.369 . S
C432 C433 1.408 . S
C432 H454 0.930 . S
C433 C428 1.348 . S
C433 C432 1.408 . S
C433 H455 0.930 . S
C434 O444 1.281 . S
C434 O445 1.254 . S
C435 O446 1.236 . S
C435 O447 1.266 . S
O436 Tb416 2.484 1_565 S
O436 C418 1.248 . S
O437 Tb416 2.440 . S
O437 C418 1.266 1_545 S
O438 Tb416 2.658 . S
O438 Tb417 2.325 . S
O438 C425 1.281 . S
O439 Tb416 2.409 . S
O439 C425 1.254 . S
O440 Tb416 2.378 1_565 S
O440 C426 1.236 . S
O441 Tb417 2.341 1_565 S
O441 C426 1.266 . S
O442 Tb417 2.484 . S
O442 C427 1.248 . S
O443 Tb417 2.440 . S
O443 C427 1.266 . S
O444 Tb416 2.325 . S
O444 Tb417 2.658 . S
O444 C434 1.281 . S
O445 Tb417 2.409 . S
O445 C434 1.254 . S
O446 Tb417 2.378 . S
O446 C435 1.236 . S
O447 Tb416 2.341 . S
O447 C435 1.266 . S
H448 C420 0.929 . S
H449 C421 0.931 . S
H450 C423 0.930 . S
H451 C424 0.930 . S
H452 C429 0.929 . S
H453 C430 0.931 . S
H454 C432 0.930 . S
H455 C433 0.930 . S
Tb456 C458 2.809 . S
Tb456 O476 2.484 . S
Tb456 O477 2.440 . S
Tb456 O478 2.658 . S
Tb456 O479 2.409 . S
Tb456 O480 2.378 . S
Tb456 O484 2.325 . S
Tb456 O487 2.341 . S
Tb457 C467 2.809 . S
Tb457 O478 2.325 . S
Tb457 O481 2.341 . S
Tb457 O482 2.484 . S
Tb457 O483 2.440 . S
Tb457 O484 2.658 . S
Tb457 O485 2.409 . S
Tb457 O486 2.378 . S
C458 Tb456 2.809 . S
C458 C459 1.514 . S
C458 O476 1.248 . S
C458 O477 1.266 . S
C459 C458 1.514 . S
C459 C460 1.359 . S
C459 C464 1.348 . S
C460 C459 1.359 . S
C460 C461 1.380 . S
C460 H488 0.929 . S
C461 C460 1.380 . S
C461 C462 1.347 . S
C461 H489 0.931 . S
C462 C461 1.347 . S
C462 C463 1.369 . S
C463 C462 1.369 . S
C463 C464 1.408 . S
C463 H490 0.930 . S
C464 C459 1.348 . S
C464 C463 1.408 . S
C464 H491 0.930 . S
C465 O478 1.281 . S
C465 O479 1.254 . S
C466 O480 1.236 . S
C466 O481 1.266 . S
C467 Tb457 2.809 . S
C467 C468 1.514 . S
C467 O482 1.248 . S
C467 O483 1.266 . S
C468 C467 1.514 . S
C468 C469 1.359 . S
C468 C473 1.348 . S
C469 C468 1.359 . S
C469 C470 1.380 . S
C469 H492 0.929 . S
C470 C469 1.380 . S
C470 C471 1.347 . S
C470 H493 0.931 . S
C471 C470 1.347 . S
C471 C472 1.369 . S
C472 C471 1.369 . S
C472 C473 1.408 . S
C472 H494 0.930 . S
C473 C468 1.348 . S
C473 C472 1.408 . S
C473 H495 0.930 . S
C474 O484 1.281 . S
C474 O485 1.254 . S
C475 O486 1.236 . S
C475 O487 1.266 . S
O476 Tb456 2.484 . S
O476 C458 1.248 . S
O477 Tb456 2.440 . S
O477 C458 1.266 . S
O478 Tb456 2.658 . S
O478 Tb457 2.325 . S
O478 C465 1.281 . S
O479 Tb456 2.409 . S
O479 C465 1.254 . S
O480 Tb456 2.378 . S
O480 C466 1.236 . S
O481 Tb457 2.341 . S
O481 C466 1.266 . S
O482 Tb457 2.484 . S
O482 C467 1.248 . S
O483 Tb457 2.440 . S
O483 C467 1.266 . S
O484 Tb456 2.325 . S
O484 Tb457 2.658 . S
O484 C474 1.281 . S
O485 Tb457 2.409 . S
O485 C474 1.254 . S
O486 Tb457 2.378 . S
O486 C475 1.236 . S
O487 Tb456 2.341 . S
O487 C475 1.266 . S
H488 C460 0.929 . S
H489 C461 0.931 . S
H490 C463 0.930 . S
H491 C464 0.930 . S
H492 C469 0.929 . S
H493 C470 0.931 . S
H494 C472 0.930 . S
H495 C473 0.930 . S
Tb496 C498 2.809 . S
Tb496 O516 2.484 . S
Tb496 O517 2.440 . S
Tb496 O518 2.658 . S
Tb496 O519 2.409 1_455 S
Tb496 O520 2.378 . S
Tb496 O524 2.325 . S
Tb496 O527 2.341 . S
Tb497 C507 2.809 . S
Tb497 O518 2.325 1_565 S
Tb497 O521 2.371 . S
Tb497 O522 2.484 . S
Tb497 O523 2.440 . S
Tb497 O524 2.658 1_565 S
Tb497 O525 2.409 1_565 S
Tb497 O526 2.378 1_565 S
C498 Tb496 2.809 . S
C498 C499 1.514 . S
C498 O516 1.248 . S
C498 O517 1.266 . S
C499 C498 1.514 . S
C499 C500 1.359 . S
C499 C504 1.348 1_455 S
C500 C499 1.359 . S
C500 C501 1.380 . S
C500 H528 0.929 . S
C501 C500 1.380 . S
C501 C502 1.347 . S
C501 H529 0.931 . S
C502 C501 1.347 . S
C502 C503 1.369 1_455 S
C503 C502 1.369 1_655 S
C503 C504 1.408 . S
C503 H530 0.930 . S
C504 C499 1.348 1_655 S
C504 C503 1.408 . S
C504 H531 0.930 . S
C505 O518 1.281 . S
C505 O519 1.254 1_455 S
C506 O520 1.236 . S
C506 O521 1.214 1_545 S
C507 Tb497 2.809 . S
C507 C508 1.514 . S
C507 O522 1.248 . S
C507 O523 1.266 . S
C508 C507 1.514 . S
C508 C509 1.359 . S
C508 C513 1.348 . S
C509 C508 1.359 . S
C509 C510 1.380 . S
C509 H532 0.929 . S
C510 C509 1.380 . S
C510 C511 1.347 . S
C510 H533 0.931 . S
C511 C510 1.347 . S
C511 C512 1.369 . S
C512 C511 1.369 . S
C512 C513 1.408 . S
C512 H534 0.930 . S
C513 C508 1.348 . S
C513 C512 1.408 . S
C513 H535 0.930 . S
C514 O524 1.281 . S
C514 O525 1.254 . S
C515 O526 1.236 . S
C515 O527 1.266 . S
O516 Tb496 2.484 . S
O516 C498 1.248 . S
O517 Tb496 2.440 . S
O517 C498 1.266 . S
O518 Tb496 2.658 . S
O518 Tb497 2.325 1_545 S
O518 C505 1.281 . S
O519 Tb496 2.409 1_655 S
O519 C505 1.254 1_655 S
O520 Tb496 2.378 . S
O520 C506 1.236 . S
O521 Tb497 2.371 . S
O521 C506 1.214 1_565 S
O522 Tb497 2.484 . S
O522 C507 1.248 . S
O523 Tb497 2.440 . S
O523 C507 1.266 . S
O524 Tb496 2.325 . S
O524 Tb497 2.658 1_545 S
O524 C514 1.281 . S
O525 Tb497 2.409 1_545 S
O525 C514 1.254 . S
O526 Tb497 2.378 1_545 S
O526 C515 1.236 . S
O527 Tb496 2.341 . S
O527 C515 1.266 . S
H528 C500 0.929 . S
H529 C501 0.931 . S
H530 C503 0.930 . S
H531 C504 0.930 . S
H532 C509 0.929 . S
H533 C510 0.931 . S
H534 C512 0.930 . S
H535 C513 0.930 . S
Tb536 C538 2.809 . S
Tb536 O556 2.484 . S
Tb536 O557 2.440 . S
Tb536 O558 2.658 . S
Tb536 O559 2.409 . S
Tb536 O560 2.378 . S
Tb536 O564 2.325 . S
Tb536 O567 2.341 . S
Tb537 C547 2.809 . S
Tb537 O558 2.325 . S
Tb537 O561 2.341 . S
Tb537 O562 2.484 . S
Tb537 O563 2.440 . S
Tb537 O564 2.658 . S
Tb537 O565 2.409 . S
Tb537 O566 2.378 . S
C538 Tb536 2.809 . S
C538 C539 1.514 . S
C538 O556 1.248 . S
C538 O557 1.266 . S
C539 C538 1.514 . S
C539 C540 1.359 . S
C539 C544 1.348 . S
C540 C539 1.359 . S
C540 C541 1.380 . S
C540 H568 0.929 . S
C541 C540 1.380 . S
C541 C542 1.347 . S
C541 H569 0.931 . S
C542 C541 1.347 . S
C542 C543 1.369 . S
C543 C542 1.369 . S
C543 C544 1.408 . S
C543 H570 0.930 . S
C544 C539 1.348 . S
C544 C543 1.408 . S
C544 H571 0.930 . S
C545 O558 1.281 . S
C545 O559 1.254 . S
C546 O560 1.236 . S
C546 O561 1.266 . S
C547 Tb537 2.809 . S
C547 C548 1.514 . S
C547 O562 1.248 . S
C547 O563 1.266 . S
C548 C547 1.514 . S
C548 C549 1.359 . S
C548 C553 1.348 . S
C549 C548 1.359 . S
C549 C550 1.380 . S
C549 H572 0.929 . S
C550 C549 1.380 . S
C550 C551 1.347 . S
C550 H573 0.931 . S
C551 C550 1.347 . S
C551 C552 1.369 . S
C552 C551 1.369 . S
C552 C553 1.408 . S
C552 H574 0.930 . S
C553 C548 1.348 . S
C553 C552 1.408 . S
C553 H575 0.930 . S
C554 O564 1.281 . S
C554 O565 1.254 . S
C555 O566 1.236 . S
C555 O567 1.266 . S
O556 Tb536 2.484 . S
O556 C538 1.248 . S
O557 Tb536 2.440 . S
O557 C538 1.266 . S
O558 Tb536 2.658 . S
O558 Tb537 2.325 . S
O558 C545 1.281 . S
O559 Tb536 2.409 . S
O559 C545 1.254 . S
O560 Tb536 2.378 . S
O560 C546 1.236 . S
O561 Tb537 2.341 . S
O561 C546 1.266 . S
O562 Tb537 2.484 . S
O562 C547 1.248 . S
O563 Tb537 2.440 . S
O563 C547 1.266 . S
O564 Tb536 2.325 . S
O564 Tb537 2.658 . S
O564 C554 1.281 . S
O565 Tb537 2.409 . S
O565 C554 1.254 . S
O566 Tb537 2.378 . S
O566 C555 1.236 . S
O567 Tb536 2.341 . S
O567 C555 1.266 . S
H568 C540 0.929 . S
H569 C541 0.931 . S
H570 C543 0.930 . S
H571 C544 0.930 . S
H572 C549 0.929 . S
H573 C550 0.931 . S
H574 C552 0.930 . S
H575 C553 0.930 . S
Tb576 C578 2.817 . S
Tb576 O596 2.484 1_545 S
Tb576 O597 2.440 . S
Tb576 O598 2.658 . S
Tb576 O599 2.409 . S
Tb576 O600 2.378 . S
Tb576 O604 2.325 1_545 S
Tb576 O607 2.341 1_554 S
Tb577 C587 2.809 . S
Tb577 O598 2.325 . S
Tb577 O601 2.341 . S
Tb577 O602 2.484 . S
Tb577 O603 2.440 . S
Tb577 O604 2.658 1_545 S
Tb577 O605 2.409 1_545 S
Tb577 O606 2.378 . S
C578 Tb576 2.817 . S
C578 C579 1.507 1_545 S
C578 O596 1.221 1_545 S
C578 O597 1.301 . S
C579 C578 1.507 1_565 S
C579 C580 1.359 . S
C579 C584 1.348 1_565 S
C580 C579 1.359 . S
C580 C581 1.380 . S
C580 H608 0.929 . S
C581 C580 1.380 . S
C581 C582 1.347 . S
C581 H609 0.931 . S
C582 C581 1.347 . S
C582 C583 1.369 . S
C583 C582 1.369 . S
C583 C584 1.408 1_565 S
C583 H610 0.930 1_565 S
C584 C579 1.348 1_545 S
C584 C583 1.408 1_545 S
C584 H611 0.930 . S
C585 O598 1.281 . S
C585 O599 1.254 . S
C586 O600 1.236 . S
C586 O601 1.266 . S
C587 Tb577 2.809 . S
C587 C588 1.514 . S
C587 O602 1.248 . S
C587 O603 1.266 . S
C588 C587 1.514 . S
C588 C589 1.359 . S
C588 C593 1.348 . S
C589 C588 1.359 . S
C589 C590 1.380 . S
C589 H612 0.929 . S
C590 C589 1.380 . S
C590 C591 1.347 . S
C590 H613 0.931 . S
C591 C590 1.347 . S
C591 C592 1.369 . S
C592 C591 1.369 . S
C592 C593 1.408 . S
C592 H614 0.930 . S
C593 C588 1.348 . S
C593 C592 1.408 . S
C593 H615 0.930 . S
C594 O604 1.281 . S
C594 O605 1.254 . S
C595 O606 1.236 1_556 S
C595 O607 1.266 . S
O596 Tb576 2.484 1_565 S
O596 C578 1.221 1_565 S
O597 Tb576 2.440 . S
O597 C578 1.301 . S
O598 Tb576 2.658 . S
O598 Tb577 2.325 . S
O598 C585 1.281 . S
O599 Tb576 2.409 . S
O599 C585 1.254 . S
O600 Tb576 2.378 . S
O600 C586 1.236 . S
O601 Tb577 2.341 . S
O601 C586 1.266 . S
O602 Tb577 2.484 . S
O602 C587 1.248 . S
O603 Tb577 2.440 . S
O603 C587 1.266 . S
O604 Tb576 2.325 1_565 S
O604 Tb577 2.658 1_565 S
O604 C594 1.281 . S
O605 Tb577 2.409 1_565 S
O605 C594 1.254 . S
O606 Tb577 2.378 . S
O606 C595 1.236 1_554 S
O607 Tb576 2.341 1_556 S
O607 C595 1.266 . S
H608 C580 0.929 . S
H609 C581 0.931 . S
H610 C583 0.930 1_545 S
H611 C584 0.930 . S
H612 C589 0.929 . S
H613 C590 0.931 . S
H614 C592 0.930 . S
H615 C593 0.930 . S
Tb616 C618 2.809 . S
Tb616 O636 2.484 . S
Tb616 O637 2.440 . S
Tb616 O638 2.658 . S
Tb616 O639 2.409 . S
Tb616 O640 2.378 . S
Tb616 O644 2.325 . S
Tb616 O647 2.341 . S
Tb617 C627 2.809 . S
Tb617 O638 2.325 . S
Tb617 O641 2.341 . S
Tb617 O642 2.484 . S
Tb617 O643 2.440 . S
Tb617 O644 2.658 . S
Tb617 O645 2.409 . S
Tb617 O646 2.378 . S
C618 Tb616 2.809 . S
C618 C619 1.514 . S
C618 O636 1.248 . S
C618 O637 1.266 . S
C619 C618 1.514 . S
C619 C620 1.359 . S
C619 C624 1.348 . S
C620 C619 1.359 . S
C620 C621 1.380 . S
C620 H648 0.929 . S
C621 C620 1.380 . S
C621 C622 1.347 . S
C621 H649 0.931 . S
C622 C621 1.347 . S
C622 C623 1.369 . S
C623 C622 1.369 . S
C623 C624 1.408 . S
C623 H650 0.930 . S
C624 C619 1.348 . S
C624 C623 1.408 . S
C624 H651 0.930 . S
C625 O638 1.281 . S
C625 O639 1.254 . S
C626 O640 1.236 . S
C626 O641 1.266 . S
C627 Tb617 2.809 . S
C627 C628 1.514 . S
C627 O642 1.248 . S
C627 O643 1.266 . S
C628 C627 1.514 . S
C628 C629 1.359 . S
C628 C633 1.348 . S
C629 C628 1.359 . S
C629 C630 1.380 . S
C629 H652 0.929 . S
C630 C629 1.380 . S
C630 C631 1.347 . S
C630 H653 0.931 . S
C631 C630 1.347 . S
C631 C632 1.369 . S
C632 C631 1.369 . S
C632 C633 1.408 . S
C632 H654 0.930 . S
C633 C628 1.348 . S
C633 C632 1.408 . S
C633 H655 0.930 . S
C634 O644 1.281 . S
C634 O645 1.254 . S
C635 O646 1.236 . S
C635 O647 1.266 . S
O636 Tb616 2.484 . S
O636 C618 1.248 . S
O637 Tb616 2.440 . S
O637 C618 1.266 . S
O638 Tb616 2.658 . S
O638 Tb617 2.325 . S
O638 C625 1.281 . S
O639 Tb616 2.409 . S
O639 C625 1.254 . S
O640 Tb616 2.378 . S
O640 C626 1.236 . S
O641 Tb617 2.341 . S
O641 C626 1.266 . S
O642 Tb617 2.484 . S
O642 C627 1.248 . S
O643 Tb617 2.440 . S
O643 C627 1.266 . S
O644 Tb616 2.325 . S
O644 Tb617 2.658 . S
O644 C634 1.281 . S
O645 Tb617 2.409 . S
O645 C634 1.254 . S
O646 Tb617 2.378 . S
O646 C635 1.236 . S
O647 Tb616 2.341 . S
O647 C635 1.266 . S
H648 C620 0.929 . S
H649 C621 0.931 . S
H650 C623 0.930 . S
H651 C624 0.930 . S
H652 C629 0.929 . S
H653 C630 0.931 . S
H654 C632 0.930 . S
H655 C633 0.930 . S
Tb656 C658 2.809 . S
Tb656 O676 2.484 . S
Tb656 O677 2.440 . S
Tb656 O678 2.658 . S
Tb656 O679 2.409 . S
Tb656 O680 2.378 1_554 S
Tb656 O684 2.325 . S
Tb656 O687 2.341 . S
Tb657 C667 2.809 . S
Tb657 O678 2.325 . S
Tb657 O681 2.341 1_554 S
Tb657 O682 2.484 . S
Tb657 O683 2.440 . S
Tb657 O684 2.658 . S
Tb657 O685 2.409 . S
Tb657 O686 2.378 . S
C658 Tb656 2.809 . S
C658 C659 1.514 1_554 S
C658 O676 1.248 . S
C658 O677 1.266 . S
C659 C658 1.514 1_556 S
C659 C660 1.359 . S
C659 C664 1.348 . S
C660 C659 1.359 . S
C660 C661 1.380 . S
C660 H688 0.929 . S
C661 C660 1.380 . S
C661 C662 1.347 . S
C661 H689 0.931 . S
C662 C661 1.347 . S
C662 C663 1.369 . S
C663 C662 1.369 . S
C663 C664 1.408 . S
C663 H690 0.930 . S
C664 C659 1.348 . S
C664 C663 1.408 . S
C664 H691 0.930 . S
C665 O678 1.281 . S
C665 O679 1.254 . S
C666 O680 1.236 . S
C666 O681 1.266 . S
C667 Tb657 2.809 . S
C667 C668 1.514 . S
C667 O682 1.248 . S
C667 O683 1.266 . S
C668 C667 1.514 . S
C668 C669 1.359 . S
C668 C673 1.348 . S
C669 C668 1.359 . S
C669 C670 1.380 . S
C669 H692 0.929 . S
C670 C669 1.380 . S
C670 C671 1.347 . S
C670 H693 0.931 . S
C671 C670 1.347 . S
C671 C672 1.369 . S
C672 C671 1.369 . S
C672 C673 1.408 . S
C672 H694 0.930 . S
C673 C668 1.348 . S
C673 C672 1.408 . S
C673 H695 0.930 . S
C674 O684 1.281 . S
C674 O685 1.254 . S
C675 O686 1.236 . S
C675 O687 1.266 . S
O676 Tb656 2.484 . S
O676 C658 1.248 . S
O677 Tb656 2.440 . S
O677 C658 1.266 . S
O678 Tb656 2.658 . S
O678 Tb657 2.325 . S
O678 C665 1.281 . S
O679 Tb656 2.409 . S
O679 C665 1.254 . S
O680 Tb656 2.378 1_556 S
O680 C666 1.236 . S
O681 Tb657 2.341 1_556 S
O681 C666 1.266 . S
O682 Tb657 2.484 . S
O682 C667 1.248 . S
O683 Tb657 2.440 . S
O683 C667 1.266 . S
O684 Tb656 2.325 . S
O684 Tb657 2.658 . S
O684 C674 1.281 . S
O685 Tb657 2.409 . S
O685 C674 1.254 . S
O686 Tb657 2.378 . S
O686 C675 1.236 . S
O687 Tb656 2.341 . S
O687 C675 1.266 . S
H688 C660 0.929 . S
H689 C661 0.931 . S
H690 C663 0.930 . S
H691 C664 0.930 . S
H692 C669 0.929 . S
H693 C670 0.931 . S
H694 C672 0.930 . S
H695 C673 0.930 . S
Tb696 C698 2.809 . S
Tb696 O716 2.484 . S
Tb696 O717 2.440 . S
Tb696 O718 2.658 . S
Tb696 O719 2.409 . S
Tb696 O720 2.378 . S
Tb696 O724 2.325 . S
Tb696 O727 2.341 . S
Tb697 C707 2.809 . S
Tb697 O718 2.325 . S
Tb697 O721 2.341 . S
Tb697 O722 2.484 . S
Tb697 O723 2.440 . S
Tb697 O724 2.658 . S
Tb697 O725 2.409 . S
Tb697 O726 2.378 . S
C698 Tb696 2.809 . S
C698 C699 1.514 . S
C698 O716 1.248 . S
C698 O717 1.266 . S
C699 C698 1.514 . S
C699 C700 1.359 . S
C699 C704 1.348 . S
C700 C699 1.359 . S
C700 C701 1.380 . S
C700 H728 0.929 . S
C701 C700 1.380 . S
C701 C702 1.347 . S
C701 H729 0.931 . S
C702 C701 1.347 . S
C702 C703 1.369 . S
C703 C702 1.369 . S
C703 C704 1.408 . S
C703 H730 0.930 . S
C704 C699 1.348 . S
C704 C703 1.408 . S
C704 H731 0.930 . S
C705 O718 1.281 . S
C705 O719 1.254 . S
C706 O720 1.236 . S
C706 O721 1.266 . S
C707 Tb697 2.809 . S
C707 C708 1.514 . S
C707 O722 1.248 . S
C707 O723 1.266 . S
C708 C707 1.514 . S
C708 C709 1.359 . S
C708 C713 1.348 . S
C709 C708 1.359 . S
C709 C710 1.380 . S
C709 H732 0.929 . S
C710 C709 1.380 . S
C710 C711 1.347 . S
C710 H733 0.931 . S
C711 C710 1.347 . S
C711 C712 1.369 . S
C712 C711 1.369 . S
C712 C713 1.408 . S
C712 H734 0.930 . S
C713 C708 1.348 . S
C713 C712 1.408 . S
C713 H735 0.930 . S
C714 O724 1.281 . S
C714 O725 1.254 . S
C715 O726 1.236 . S
C715 O727 1.266 . S
O716 Tb696 2.484 . S
O716 C698 1.248 . S
O717 Tb696 2.440 . S
O717 C698 1.266 . S
O718 Tb696 2.658 . S
O718 Tb697 2.325 . S
O718 C705 1.281 . S
O719 Tb696 2.409 . S
O719 C705 1.254 . S
O720 Tb696 2.378 . S
O720 C706 1.236 . S
O721 Tb697 2.341 . S
O721 C706 1.266 . S
O722 Tb697 2.484 . S
O722 C707 1.248 . S
O723 Tb697 2.440 . S
O723 C707 1.266 . S
O724 Tb696 2.325 . S
O724 Tb697 2.658 . S
O724 C714 1.281 . S
O725 Tb697 2.409 . S
O725 C714 1.254 . S
O726 Tb697 2.378 . S
O726 C715 1.236 . S
O727 Tb696 2.341 . S
O727 C715 1.266 . S
H728 C700 0.929 . S
H729 C701 0.931 . S
H730 C703 0.930 . S
H731 C704 0.930 . S
H732 C709 0.929 . S
H733 C710 0.931 . S
H734 C712 0.930 . S
H735 C713 0.930 . S
Tb736 C738 2.809 1_455 S
Tb736 O756 2.484 1_455 S
Tb736 O757 2.440 1_455 S
Tb736 O758 2.658 . S
Tb736 O759 2.409 . S
Tb736 O760 2.378 . S
Tb736 O764 2.325 . S
Tb736 O767 2.341 . S
Tb737 C747 2.809 . S
Tb737 O758 2.325 . S
Tb737 O761 2.341 . S
Tb737 O762 2.484 . S
Tb737 O763 2.440 . S
Tb737 O764 2.658 . S
Tb737 O765 2.409 . S
Tb737 O766 2.378 . S
C738 Tb736 2.809 1_655 S
C738 C739 1.514 . S
C738 O756 1.248 . S
C738 O757 1.266 . S
C739 C738 1.514 . S
C739 C740 1.359 . S
C739 C744 1.348 . S
C740 C739 1.359 . S
C740 C741 1.380 . S
C740 H768 0.929 . S
C741 C740 1.380 . S
C741 C742 1.347 . S
C741 H769 0.931 . S
C742 C741 1.347 . S
C742 C743 1.369 . S
C743 C742 1.369 . S
C743 C744 1.408 . S
C743 H770 0.930 . S
C744 C739 1.348 . S
C744 C743 1.408 . S
C744 H771 0.930 . S
C745 O758 1.281 . S
C745 O759 1.254 . S
C746 O760 1.236 . S
C746 O761 1.266 . S
C747 Tb737 2.809 . S
C747 C748 1.514 . S
C747 O762 1.248 . S
C747 O763 1.266 . S
C748 C747 1.514 . S
C748 C749 1.359 . S
C748 C753 1.348 . S
C749 C748 1.359 . S
C749 C750 1.380 . S
C749 H772 0.929 . S
C750 C749 1.380 . S
C750 C751 1.347 . S
C750 H773 0.931 . S
C751 C750 1.347 . S
C751 C752 1.369 . S
C752 C751 1.369 . S
C752 C753 1.408 . S
C752 H774 0.930 . S
C753 C748 1.348 . S
C753 C752 1.408 . S
C753 H775 0.930 . S
C754 O764 1.281 . S
C754 O765 1.254 . S
C755 O766 1.236 . S
C755 O767 1.266 . S
O756 Tb736 2.484 1_655 S
O756 C738 1.248 . S
O757 Tb736 2.440 1_655 S
O757 C738 1.266 . S
O758 Tb736 2.658 . S
O758 Tb737 2.325 . S
O758 C745 1.281 . S
O759 Tb736 2.409 . S
O759 C745 1.254 . S
O760 Tb736 2.378 . S
O760 C746 1.236 . S
O761 Tb737 2.341 . S
O761 C746 1.266 . S
O762 Tb737 2.484 . S
O762 C747 1.248 . S
O763 Tb737 2.440 . S
O763 C747 1.266 . S
O764 Tb736 2.325 . S
O764 Tb737 2.658 . S
O764 C754 1.281 . S
O765 Tb737 2.409 . S
O765 C754 1.254 . S
O766 Tb737 2.378 . S
O766 C755 1.236 . S
O767 Tb736 2.341 . S
O767 C755 1.266 . S
H768 C740 0.929 . S
H769 C741 0.931 . S
H770 C743 0.930 . S
H771 C744 0.930 . S
H772 C749 0.929 . S
H773 C750 0.931 . S
H774 C752 0.930 . S
H775 C753 0.930 . S
Tb776 C778 2.809 . S
Tb776 O796 2.484 . S
Tb776 O797 2.440 . S
Tb776 O798 2.658 . S
Tb776 O799 2.409 . S
Tb776 O800 2.378 . S
Tb776 O804 2.325 . S
Tb776 O807 2.341 . S
Tb777 C787 2.809 . S
Tb777 O798 2.325 . S
Tb777 O801 2.341 . S
Tb777 O802 2.484 . S
Tb777 O803 2.440 . S
Tb777 O804 2.658 . S
Tb777 O805 2.409 . S
Tb777 O806 2.378 . S
C778 Tb776 2.809 . S
C778 C779 1.514 . S
C778 O796 1.248 . S
C778 O797 1.266 . S
C779 C778 1.514 . S
C779 C780 1.359 . S
C779 C784 1.348 . S
C780 C779 1.359 . S
C780 C781 1.380 . S
C780 H808 0.929 . S
C781 C780 1.380 . S
C781 C782 1.347 . S
C781 H809 0.931 . S
C782 C781 1.347 . S
C782 C783 1.369 . S
C783 C782 1.369 . S
C783 C784 1.408 . S
C783 H810 0.930 . S
C784 C779 1.348 . S
C784 C783 1.408 . S
C784 H811 0.930 . S
C785 O798 1.281 . S
C785 O799 1.254 . S
C786 O800 1.236 . S
C786 O801 1.266 . S
C787 Tb777 2.809 . S
C787 C788 1.514 . S
C787 O802 1.248 . S
C787 O803 1.266 . S
C788 C787 1.514 . S
C788 C789 1.359 . S
C788 C793 1.348 . S
C789 C788 1.359 . S
C789 C790 1.380 . S
C789 H812 0.929 . S
C790 C789 1.380 . S
C790 C791 1.347 . S
C790 H813 0.931 . S
C791 C790 1.347 . S
C791 C792 1.369 . S
C792 C791 1.369 . S
C792 C793 1.408 . S
C792 H814 0.930 . S
C793 C788 1.348 . S
C793 C792 1.408 . S
C793 H815 0.930 . S
C794 O804 1.281 . S
C794 O805 1.254 . S
C795 O806 1.236 . S
C795 O807 1.266 . S
O796 Tb776 2.484 . S
O796 C778 1.248 . S
O797 Tb776 2.440 . S
O797 C778 1.266 . S
O798 Tb776 2.658 . S
O798 Tb777 2.325 . S
O798 C785 1.281 . S
O799 Tb776 2.409 . S
O799 C785 1.254 . S
O800 Tb776 2.378 . S
O800 C786 1.236 . S
O801 Tb777 2.341 . S
O801 C786 1.266 . S
O802 Tb777 2.484 . S
O802 C787 1.248 . S
O803 Tb777 2.440 . S
O803 C787 1.266 . S
O804 Tb776 2.325 . S
O804 Tb777 2.658 . S
O804 C794 1.281 . S
O805 Tb777 2.409 . S
O805 C794 1.254 . S
O806 Tb777 2.378 . S
O806 C795 1.236 . S
O807 Tb776 2.341 . S
O807 C795 1.266 . S
H808 C780 0.929 . S
H809 C781 0.931 . S
H810 C783 0.930 . S
H811 C784 0.930 . S
H812 C789 0.929 . S
H813 C790 0.931 . S
H814 C792 0.930 . S
H815 C793 0.930 . S
Tb816 C818 2.809 . S
Tb816 O836 2.484 . S
Tb816 O837 2.440 . S
Tb816 O838 2.658 . S
Tb816 O839 2.409 . S
Tb816 O840 2.378 . S
Tb816 O844 2.325 . S
Tb816 O847 2.341 . S
Tb817 C827 2.809 . S
Tb817 O838 2.325 . S
Tb817 O841 2.341 . S
Tb817 O842 2.484 . S
Tb817 O843 2.440 . S
Tb817 O844 2.658 . S
Tb817 O845 2.409 . S
Tb817 O846 2.378 . S
C818 Tb816 2.809 . S
C818 C819 1.514 . S
C818 O836 1.248 . S
C818 O837 1.266 . S
C819 C818 1.514 . S
C819 C820 1.359 . S
C819 C824 1.348 . S
C820 C819 1.359 . S
C820 C821 1.380 . S
C820 H848 0.929 . S
C821 C820 1.380 . S
C821 C822 1.347 . S
C821 H849 0.931 . S
C822 C821 1.347 . S
C822 C823 1.369 . S
C823 C822 1.369 . S
C823 C824 1.408 . S
C823 H850 0.930 . S
C824 C819 1.348 . S
C824 C823 1.408 . S
C824 H851 0.930 . S
C825 O838 1.281 . S
C825 O839 1.254 . S
C826 O840 1.236 . S
C826 O841 1.266 . S
C827 Tb817 2.809 . S
C827 C828 1.514 . S
C827 O842 1.248 . S
C827 O843 1.266 . S
C828 C827 1.514 . S
C828 C829 1.359 . S
C828 C833 1.348 . S
C829 C828 1.359 . S
C829 C830 1.380 . S
C829 H852 0.929 . S
C830 C829 1.380 . S
C830 C831 1.347 . S
C830 H853 0.931 . S
C831 C830 1.347 . S
C831 C832 1.369 . S
C832 C831 1.369 . S
C832 C833 1.408 . S
C832 H854 0.930 . S
C833 C828 1.348 . S
C833 C832 1.408 . S
C833 H855 0.930 . S
C834 O844 1.281 . S
C834 O845 1.254 . S
C835 O846 1.236 . S
C835 O847 1.266 . S
O836 Tb816 2.484 . S
O836 C818 1.248 . S
O837 Tb816 2.440 . S
O837 C818 1.266 . S
O838 Tb816 2.658 . S
O838 Tb817 2.325 . S
O838 C825 1.281 . S
O839 Tb816 2.409 . S
O839 C825 1.254 . S
O840 Tb816 2.378 . S
O840 C826 1.236 . S
O841 Tb817 2.341 . S
O841 C826 1.266 . S
O842 Tb817 2.484 . S
O842 C827 1.248 . S
O843 Tb817 2.440 . S
O843 C827 1.266 . S
O844 Tb816 2.325 . S
O844 Tb817 2.658 . S
O844 C834 1.281 . S
O845 Tb817 2.409 . S
O845 C834 1.254 . S
O846 Tb817 2.378 . S
O846 C835 1.236 . S
O847 Tb816 2.341 . S
O847 C835 1.266 . S
H848 C820 0.929 . S
H849 C821 0.931 . S
H850 C823 0.930 . S
H851 C824 0.930 . S
H852 C829 0.929 . S
H853 C830 0.931 . S
H854 C832 0.930 . S
H855 C833 0.930 . S
Tb856 C858 2.809 . S
Tb856 O876 2.484 . S
Tb856 O877 2.440 . S
Tb856 O878 2.658 . S
Tb856 O879 2.409 . S
Tb856 O880 2.378 . S
Tb856 O884 2.325 . S
Tb856 O887 2.341 . S
Tb857 C867 2.809 . S
Tb857 O878 2.325 . S
Tb857 O881 2.341 . S
Tb857 O882 2.484 . S
Tb857 O883 2.440 . S
Tb857 O884 2.658 . S
Tb857 O885 2.409 . S
Tb857 O886 2.378 . S
C858 Tb856 2.809 . S
C858 C859 1.514 . S
C858 O876 1.248 . S
C858 O877 1.266 . S
C859 C858 1.514 . S
C859 C860 1.359 . S
C859 C864 1.348 . S
C860 C859 1.359 . S
C860 C861 1.380 . S
C860 H888 0.929 . S
C861 C860 1.380 . S
C861 C862 1.347 . S
C861 H889 0.931 . S
C862 C861 1.347 . S
C862 C863 1.369 . S
C863 C862 1.369 . S
C863 C864 1.408 . S
C863 H890 0.930 . S
C864 C859 1.348 . S
C864 C863 1.408 . S
C864 H891 0.930 . S
C865 O878 1.281 . S
C865 O879 1.254 . S
C866 O880 1.236 . S
C866 O881 1.266 . S
C867 Tb857 2.809 . S
C867 C868 1.514 . S
C867 O882 1.248 . S
C867 O883 1.266 . S
C868 C867 1.514 . S
C868 C869 1.359 . S
C868 C873 1.348 . S
C869 C868 1.359 . S
C869 C870 1.380 . S
C869 H892 0.929 . S
C870 C869 1.380 . S
C870 C871 1.347 . S
C870 H893 0.931 . S
C871 C870 1.347 . S
C871 C872 1.369 . S
C872 C871 1.369 . S
C872 C873 1.408 . S
C872 H894 0.930 . S
C873 C868 1.348 . S
C873 C872 1.408 . S
C873 H895 0.930 . S
C874 O884 1.281 . S
C874 O885 1.254 . S
C875 O886 1.236 . S
C875 O887 1.266 . S
O876 Tb856 2.484 . S
O876 C858 1.248 . S
O877 Tb856 2.440 . S
O877 C858 1.266 . S
O878 Tb856 2.658 . S
O878 Tb857 2.325 . S
O878 C865 1.281 . S
O879 Tb856 2.409 . S
O879 C865 1.254 . S
O880 Tb856 2.378 . S
O880 C866 1.236 . S
O881 Tb857 2.341 . S
O881 C866 1.266 . S
O882 Tb857 2.484 . S
O882 C867 1.248 . S
O883 Tb857 2.440 . S
O883 C867 1.266 . S
O884 Tb856 2.325 . S
O884 Tb857 2.658 . S
O884 C874 1.281 . S
O885 Tb857 2.409 . S
O885 C874 1.254 . S
O886 Tb857 2.378 . S
O886 C875 1.236 . S
O887 Tb856 2.341 . S
O887 C875 1.266 . S
H888 C860 0.929 . S
H889 C861 0.931 . S
H890 C863 0.930 . S
H891 C864 0.930 . S
H892 C869 0.929 . S
H893 C870 0.931 . S
H894 C872 0.930 . S
H895 C873 0.930 . S
Tb896 C898 2.809 . S
Tb896 O916 2.484 . S
Tb896 O917 2.440 . S
Tb896 O918 2.658 . S
Tb896 O919 2.409 . S
Tb896 O920 2.378 . S
Tb896 O924 2.325 . S
Tb896 O927 2.341 . S
Tb897 C907 2.809 . S
Tb897 O918 2.325 . S
Tb897 O921 2.341 . S
Tb897 O922 2.484 . S
Tb897 O923 2.440 . S
Tb897 O924 2.658 . S
Tb897 O925 2.409 . S
Tb897 O926 2.378 . S
C898 Tb896 2.809 . S
C898 C899 1.514 . S
C898 O916 1.248 . S
C898 O917 1.266 . S
C899 C898 1.514 . S
C899 C900 1.359 . S
C899 C904 1.348 . S
C900 C899 1.359 . S
C900 C901 1.380 . S
C900 H928 0.929 . S
C901 C900 1.380 . S
C901 C902 1.347 . S
C901 H929 0.931 . S
C902 C901 1.347 . S
C902 C903 1.369 . S
C903 C902 1.369 . S
C903 C904 1.408 . S
C903 H930 0.930 . S
C904 C899 1.348 . S
C904 C903 1.408 . S
C904 H931 0.930 . S
C905 O918 1.281 . S
C905 O919 1.254 . S
C906 O920 1.236 . S
C906 O921 1.266 . S
C907 Tb897 2.809 . S
C907 C908 1.514 . S
C907 O922 1.248 . S
C907 O923 1.266 . S
C908 C907 1.514 . S
C908 C909 1.359 . S
C908 C913 1.348 . S
C909 C908 1.359 . S
C909 C910 1.380 . S
C909 H932 0.929 . S
C910 C909 1.380 . S
C910 C911 1.347 . S
C910 H933 0.931 . S
C911 C910 1.347 . S
C911 C912 1.369 . S
C912 C911 1.369 . S
C912 C913 1.408 . S
C912 H934 0.930 . S
C913 C908 1.348 . S
C913 C912 1.408 . S
C913 H935 0.930 . S
C914 O924 1.281 . S
C914 O925 1.254 . S
C915 O926 1.236 . S
C915 O927 1.266 . S
O916 Tb896 2.484 . S
O916 C898 1.248 . S
O917 Tb896 2.440 . S
O917 C898 1.266 . S
O918 Tb896 2.658 . S
O918 Tb897 2.325 . S
O918 C905 1.281 . S
O919 Tb896 2.409 . S
O919 C905 1.254 . S
O920 Tb896 2.378 . S
O920 C906 1.236 . S
O921 Tb897 2.341 . S
O921 C906 1.266 . S
O922 Tb897 2.484 . S
O922 C907 1.248 . S
O923 Tb897 2.440 . S
O923 C907 1.266 . S
O924 Tb896 2.325 . S
O924 Tb897 2.658 . S
O924 C914 1.281 . S
O925 Tb897 2.409 . S
O925 C914 1.254 . S
O926 Tb897 2.378 . S
O926 C915 1.236 . S
O927 Tb896 2.341 . S
O927 C915 1.266 . S
H928 C900 0.929 . S
H929 C901 0.931 . S
H930 C903 0.930 . S
H931 C904 0.930 . S
H932 C909 0.929 . S
H933 C910 0.931 . S
H934 C912 0.930 . S
H935 C913 0.930 . S
Tb936 C938 2.809 . S
Tb936 O956 2.484 . S
Tb936 O957 2.440 1_554 S
Tb936 O958 2.658 . S
Tb936 O959 2.409 1_554 S
Tb936 O960 2.378 . S
Tb936 O964 2.325 . S
Tb936 O967 2.341 . S
Tb937 C947 2.809 1_455 S
Tb937 O958 2.325 . S
Tb937 O961 2.341 . S
Tb937 O962 2.484 1_455 S
Tb937 O963 2.440 1_455 S
Tb937 O964 2.658 . S
Tb937 O965 2.409 . S
Tb937 O966 2.378 . S
C938 Tb936 2.809 . S
C938 C939 1.514 . S
C938 O956 1.248 . S
C938 O957 1.266 1_554 S
C939 C938 1.514 . S
C939 C940 1.359 . S
C939 C944 1.348 1_554 S
C940 C939 1.359 . S
C940 C941 1.380 . S
C940 H968 0.929 . S
C941 C940 1.380 . S
C941 C942 1.347 . S
C941 H969 0.931 . S
C942 C941 1.347 . S
C942 C943 1.369 1_554 S
C943 C942 1.369 1_556 S
C943 C944 1.408 . S
C943 H970 0.930 . S
C944 C939 1.348 1_556 S
C944 C943 1.408 . S
C944 H971 0.930 . S
C945 O958 1.281 1_556 S
C945 O959 1.254 . S
C946 O960 1.236 . S
C946 O961 1.266 . S
C947 Tb937 2.809 1_655 S
C947 C948 1.514 . S
C947 O962 1.248 . S
C947 O963 1.266 . S
C948 C947 1.514 . S
C948 C949 1.359 . S
C948 C953 1.348 . S
C949 C948 1.359 . S
C949 C950 1.380 . S
C949 H972 0.929 . S
C950 C949 1.380 . S
C950 C951 1.347 . S
C950 H973 0.931 . S
C951 C950 1.347 . S
C951 C952 1.369 . S
C952 C951 1.369 . S
C952 C953 1.408 . S
C952 H974 0.930 . S
C953 C948 1.348 . S
C953 C952 1.408 . S
C953 H975 0.930 . S
C954 O964 1.281 . S
C954 O965 1.254 . S
C955 O966 1.236 . S
C955 O967 1.266 . S
O956 Tb936 2.484 . S
O956 C938 1.248 . S
O957 Tb936 2.440 1_556 S
O957 C938 1.266 1_556 S
O958 Tb936 2.658 . S
O958 Tb937 2.325 . S
O958 C945 1.281 1_554 S
O959 Tb936 2.409 1_556 S
O959 C945 1.254 . S
O960 Tb936 2.378 . S
O960 C946 1.236 . S
O961 Tb937 2.341 . S
O961 C946 1.266 . S
O962 Tb937 2.484 1_655 S
O962 C947 1.248 . S
O963 Tb937 2.440 1_655 S
O963 C947 1.266 . S
O964 Tb936 2.325 . S
O964 Tb937 2.658 . S
O964 C954 1.281 . S
O965 Tb937 2.409 . S
O965 C954 1.254 . S
O966 Tb937 2.378 . S
O966 C955 1.236 . S
O967 Tb936 2.341 . S
O967 C955 1.266 . S
H968 C940 0.929 . S
H969 C941 0.931 . S
H970 C943 0.930 . S
H971 C944 0.930 . S
H972 C949 0.929 . S
H973 C950 0.931 . S
H974 C952 0.930 . S
H975 C953 0.930 . S
H976 C994 0.898 1_655 S
H977 C996 0.951 1_655 S
H978 C998 0.950 . S
H979 C999 0.950 . S
H980 C1001 0.950 . S
H981 C1004 0.950 . S
H982 C1005 0.950 . S
H983 C1007 0.933 1_655 S
H984 C1008 0.950 1_655 S
H985 C1009 0.951 . S
H986 C1011 0.951 . S
H987 C1013 0.950 . S
H988 C1014 0.950 . S
H989 C1016 1.009 . S
H990 C1019 0.950 . S
H991 C1020 0.950 . S
H992 C1022 0.950 . S
H993 C1023 0.950 . S
C994 H976 0.898 1_455 S
C994 C995 1.407 . S
C994 C996 1.402 . S
C995 C994 1.407 . S
C995 C999 1.385 . S
C996 H977 0.951 1_455 S
C996 C994 1.402 . S
C996 C997 1.366 . S
C997 C996 1.366 . S
C997 C998 1.414 . S
C997 C1000 1.499 . S
C998 H978 0.950 . S
C998 C997 1.414 . S
C998 C999 1.374 . S
C999 H979 0.950 . S
C999 C995 1.385 . S
C999 C998 1.374 . S
C1000 C997 1.499 . S
C1000 C1001 1.373 . S
C1000 C1002 1.389 . S
C1001 H980 0.950 . S
C1001 C1000 1.373 . S
C1001 C1017 1.377 . S
C1002 C1000 1.389 . S
C1002 C1003 1.524 1_556 S
C1002 C1016 1.349 1_556 S
C1003 C1002 1.524 1_554 S
C1003 C1004 1.397 . S
C1003 C1008 1.363 . S
C1004 H981 0.950 . S
C1004 C1003 1.397 . S
C1004 C1005 1.334 . S
C1005 H982 0.950 . S
C1005 C1004 1.334 . S
C1005 C1006 1.287 . S
C1006 C1005 1.287 . S
C1006 C1007 1.536 . S
C1006 H1025 0.913 . S
C1007 H983 0.933 1_455 S
C1007 C1006 1.536 . S
C1007 C1008 1.422 . S
C1008 H984 0.950 1_455 S
C1008 C1003 1.363 . S
C1008 C1007 1.422 . S
C1009 H985 0.951 . S
C1009 C1010 1.366 . S
C1009 C1011 1.388 1_554 S
C1010 C1009 1.366 . S
C1010 C1014 1.385 . S
C1011 H986 0.951 . S
C1011 C1009 1.388 1_556 S
C1011 C1012 1.366 . S
C1012 C1011 1.366 . S
C1012 C1013 1.414 1_556 S
C1012 C1015 1.499 . S
C1013 H987 0.950 . S
C1013 C1012 1.414 1_554 S
C1013 C1014 1.374 . S
C1014 H988 0.950 . S
C1014 C1010 1.385 . S
C1014 C1013 1.374 . S
C1015 C1012 1.499 . S
C1015 C1016 1.344 1_556 S
C1015 C1017 1.389 . S
C1016 H989 1.009 . S
C1016 C1002 1.349 1_554 S
C1016 C1015 1.344 1_554 S
C1017 C1001 1.377 . S
C1017 C1015 1.389 . S
C1017 C1018 1.524 . S
C1018 C1017 1.524 . S
C1018 C1019 1.397 . S
C1018 C1023 1.363 . S
C1019 H990 0.950 . S
C1019 C1018 1.397 . S
C1019 C1020 1.334 . S
C1020 H991 0.950 . S
C1020 C1019 1.334 . S
C1020 C1021 1.287 . S
C1021 C1020 1.287 . S
C1021 C1022 1.524 . S
C1021 H1024 0.999 . S
C1022 H992 0.950 . S
C1022 C1021 1.524 . S
C1022 C1023 1.415 . S
C1023 H993 0.950 . S
C1023 C1018 1.363 . S
C1023 C1022 1.415 . S
H1024 C1021 0.999 . S
H1025 C1006 0.913 . S
H1026 C1044 0.951 . S
H1027 C1046 0.951 . S
H1028 C1048 0.950 . S
H1029 C1049 0.950 . S
H1030 C1051 0.950 . S
H1031 C1054 0.950 . S
H1032 C1055 0.950 . S
H1033 C1057 0.950 . S
H1034 C1058 0.950 . S
H1035 C1059 0.951 . S
H1036 C1061 0.951 . S
H1037 C1063 0.950 . S
H1038 C1064 0.950 . S
H1039 C1066 0.950 . S
H1040 C1069 0.950 . S
H1041 C1070 0.950 . S
H1042 C1072 0.950 . S
H1043 C1073 0.950 . S
C1044 H1026 0.951 . S
C1044 C1045 1.366 . S
C1044 C1046 1.388 . S
C1045 C1044 1.366 . S
C1045 C1049 1.385 . S
C1046 H1027 0.951 . S
C1046 C1044 1.388 . S
C1046 C1047 1.366 . S
C1047 C1046 1.366 . S
C1047 C1048 1.414 . S
C1047 C1050 1.499 . S
C1048 H1028 0.950 . S
C1048 C1047 1.414 . S
C1048 C1049 1.374 . S
C1049 H1029 0.950 . S
C1049 C1045 1.385 . S
C1049 C1048 1.374 . S
C1050 C1047 1.499 . S
C1050 C1051 1.373 . S
C1050 C1052 1.389 . S
C1051 H1030 0.950 . S
C1051 C1050 1.373 . S
C1051 C1067 1.377 . S
C1052 C1050 1.389 . S
C1052 C1053 1.524 . S
C1052 C1066 1.377 . S
C1053 C1052 1.524 . S
C1053 C1054 1.397 . S
C1053 C1058 1.363 . S
C1054 H1031 0.950 . S
C1054 C1053 1.397 . S
C1054 C1055 1.334 . S
C1055 H1032 0.950 . S
C1055 C1054 1.334 . S
C1055 C1056 1.287 . S
C1056 C1055 1.287 . S
C1056 C1057 1.524 . S
C1056 H1075 0.913 . S
C1057 H1033 0.950 . S
C1057 C1056 1.524 . S
C1057 C1058 1.415 . S
C1058 H1034 0.950 . S
C1058 C1053 1.363 . S
C1058 C1057 1.415 . S
C1059 H1035 0.951 . S
C1059 C1060 1.366 . S
C1059 C1061 1.388 . S
C1060 C1059 1.366 . S
C1060 C1064 1.385 . S
C1061 H1036 0.951 . S
C1061 C1059 1.388 . S
C1061 C1062 1.366 . S
C1062 C1061 1.366 . S
C1062 C1063 1.414 . S
C1062 C1065 1.499 . S
C1063 H1037 0.950 . S
C1063 C1062 1.414 . S
C1063 C1064 1.374 . S
C1064 H1038 0.950 . S
C1064 C1060 1.385 . S
C1064 C1063 1.374 . S
C1065 C1062 1.499 . S
C1065 C1066 1.373 . S
C1065 C1067 1.389 . S
C1066 H1039 0.950 . S
C1066 C1052 1.377 . S
C1066 C1065 1.373 . S
C1067 C1051 1.377 . S
C1067 C1065 1.389 . S
C1067 C1068 1.524 . S
C1068 C1067 1.524 . S
C1068 C1069 1.397 . S
C1068 C1073 1.363 . S
C1069 H1040 0.950 . S
C1069 C1068 1.397 . S
C1069 C1070 1.334 . S
C1070 H1041 0.950 . S
C1070 C1069 1.334 . S
C1070 C1071 1.287 . S
C1071 C1070 1.287 . S
C1071 C1072 1.524 . S
C1071 H1074 0.999 . S
C1072 H1042 0.950 . S
C1072 C1071 1.524 . S
C1072 C1073 1.415 . S
C1073 H1043 0.950 . S
C1073 C1068 1.363 . S
C1073 C1072 1.415 . S
H1074 C1071 0.999 . S
H1075 C1056 0.913 . S
H1076 C1094 0.951 . S
H1077 C1096 0.951 . S
H1078 C1098 0.950 . S
H1079 C1099 0.950 . S
H1080 C1101 0.950 . S
H1081 C1104 0.950 . S
H1082 C1105 0.950 . S
H1083 C1107 0.950 . S
H1084 C1108 0.950 . S
H1085 C1109 0.951 . S
H1086 C1111 0.951 . S
H1087 C1113 0.950 . S
H1088 C1114 0.950 . S
H1089 C1116 0.950 . S
H1090 C1119 0.950 . S
H1091 C1120 0.950 . S
H1092 C1122 0.950 . S
H1093 C1123 0.950 . S
C1094 H1076 0.951 . S
C1094 C1095 1.366 . S
C1094 C1096 1.388 . S
C1095 C1094 1.366 . S
C1095 C1099 1.385 . S
C1096 H1077 0.951 . S
C1096 C1094 1.388 . S
C1096 C1097 1.366 . S
C1097 C1096 1.366 . S
C1097 C1098 1.414 . S
C1097 C1100 1.499 . S
C1098 H1078 0.950 . S
C1098 C1097 1.414 . S
C1098 C1099 1.374 . S
C1099 H1079 0.950 . S
C1099 C1095 1.385 . S
C1099 C1098 1.374 . S
C1100 C1097 1.499 . S
C1100 C1101 1.373 . S
C1100 C1102 1.389 . S
C1101 H1080 0.950 . S
C1101 C1100 1.373 . S
C1101 C1117 1.377 . S
C1102 C1100 1.389 . S
C1102 C1103 1.524 . S
C1102 C1116 1.377 . S
C1103 C1102 1.524 . S
C1103 C1104 1.397 . S
C1103 C1108 1.363 . S
C1104 H1081 0.950 . S
C1104 C1103 1.397 . S
C1104 C1105 1.334 . S
C1105 H1082 0.950 . S
C1105 C1104 1.334 . S
C1105 C1106 1.287 . S
C1106 C1105 1.287 . S
C1106 C1107 1.524 . S
C1106 H1125 0.913 . S
C1107 H1083 0.950 . S
C1107 C1106 1.524 . S
C1107 C1108 1.415 . S
C1108 H1084 0.950 . S
C1108 C1103 1.363 . S
C1108 C1107 1.415 . S
C1109 H1085 0.951 . S
C1109 C1110 1.366 . S
C1109 C1111 1.388 . S
C1110 C1109 1.366 . S
C1110 C1114 1.385 . S
C1111 H1086 0.951 . S
C1111 C1109 1.388 . S
C1111 C1112 1.366 . S
C1112 C1111 1.366 . S
C1112 C1113 1.414 . S
C1112 C1115 1.499 . S
C1113 H1087 0.950 . S
C1113 C1112 1.414 . S
C1113 C1114 1.374 . S
C1114 H1088 0.950 . S
C1114 C1110 1.385 . S
C1114 C1113 1.374 . S
C1115 C1112 1.499 . S
C1115 C1116 1.373 . S
C1115 C1117 1.389 . S
C1116 H1089 0.950 . S
C1116 C1102 1.377 . S
C1116 C1115 1.373 . S
C1117 C1101 1.377 . S
C1117 C1115 1.389 . S
C1117 C1118 1.524 . S
C1118 C1117 1.524 . S
C1118 C1119 1.397 . S
C1118 C1123 1.363 . S
C1119 H1090 0.950 . S
C1119 C1118 1.397 . S
C1119 C1120 1.334 . S
C1120 H1091 0.950 . S
C1120 C1119 1.334 . S
C1120 C1121 1.287 . S
C1121 C1120 1.287 . S
C1121 C1122 1.524 . S
C1121 H1124 0.999 . S
C1122 H1092 0.950 . S
C1122 C1121 1.524 . S
C1122 C1123 1.415 . S
C1123 H1093 0.950 . S
C1123 C1118 1.363 . S
C1123 C1122 1.415 . S
H1124 C1121 0.999 . S
H1125 C1106 0.913 . S
H1126 C1144 0.951 . S
H1127 C1146 0.951 . S
H1128 C1148 0.950 . S
H1129 C1149 0.950 . S
H1130 C1151 0.950 . S
H1131 C1154 0.950 . S
H1132 C1155 0.950 . S
H1133 C1157 0.950 . S
H1134 C1158 0.950 . S
H1135 C1159 0.951 . S
H1136 C1161 0.951 . S
H1137 C1163 0.950 . S
H1138 C1164 0.950 . S
H1139 C1166 0.950 . S
H1140 C1169 0.950 . S
H1141 C1170 0.950 . S
H1142 C1172 0.950 . S
H1143 C1173 0.950 . S
C1144 H1126 0.951 . S
C1144 C1145 1.366 . S
C1144 C1146 1.388 . S
C1145 C1144 1.366 . S
C1145 C1149 1.385 . S
C1146 H1127 0.951 . S
C1146 C1144 1.388 . S
C1146 C1147 1.366 . S
C1147 C1146 1.366 . S
C1147 C1148 1.414 . S
C1147 C1150 1.499 . S
C1148 H1128 0.950 . S
C1148 C1147 1.414 . S
C1148 C1149 1.374 . S
C1149 H1129 0.950 . S
C1149 C1145 1.385 . S
C1149 C1148 1.374 . S
C1150 C1147 1.499 . S
C1150 C1151 1.373 . S
C1150 C1152 1.389 . S
C1151 H1130 0.950 . S
C1151 C1150 1.373 . S
C1151 C1167 1.377 . S
C1152 C1150 1.389 . S
C1152 C1153 1.524 . S
C1152 C1166 1.377 . S
C1153 C1152 1.524 . S
C1153 C1154 1.397 . S
C1153 C1158 1.363 . S
C1154 H1131 0.950 . S
C1154 C1153 1.397 . S
C1154 C1155 1.334 . S
C1155 H1132 0.950 . S
C1155 C1154 1.334 . S
C1155 C1156 1.287 . S
C1156 C1155 1.287 . S
C1156 C1157 1.524 . S
C1156 H1175 0.913 . S
C1157 H1133 0.950 . S
C1157 C1156 1.524 . S
C1157 C1158 1.415 . S
C1158 H1134 0.950 . S
C1158 C1153 1.363 . S
C1158 C1157 1.415 . S
C1159 H1135 0.951 . S
C1159 C1160 1.366 . S
C1159 C1161 1.388 . S
C1160 C1159 1.366 . S
C1160 C1164 1.385 . S
C1161 H1136 0.951 . S
C1161 C1159 1.388 . S
C1161 C1162 1.366 . S
C1162 C1161 1.366 . S
C1162 C1163 1.414 . S
C1162 C1165 1.499 . S
C1163 H1137 0.950 . S
C1163 C1162 1.414 . S
C1163 C1164 1.374 . S
C1164 H1138 0.950 . S
C1164 C1160 1.385 . S
C1164 C1163 1.374 . S
C1165 C1162 1.499 . S
C1165 C1166 1.373 . S
C1165 C1167 1.389 . S
C1166 H1139 0.950 . S
C1166 C1152 1.377 . S
C1166 C1165 1.373 . S
C1167 C1151 1.377 . S
C1167 C1165 1.389 . S
C1167 C1168 1.524 . S
C1168 C1167 1.524 . S
C1168 C1169 1.397 . S
C1168 C1173 1.363 . S
C1169 H1140 0.950 . S
C1169 C1168 1.397 . S
C1169 C1170 1.334 . S
C1170 H1141 0.950 . S
C1170 C1169 1.334 . S
C1170 C1171 1.287 . S
C1171 C1170 1.287 . S
C1171 C1172 1.524 . S
C1171 H1174 0.999 . S
C1172 H1142 0.950 . S
C1172 C1171 1.524 . S
C1172 C1173 1.415 . S
C1173 H1143 0.950 . S
C1173 C1168 1.363 . S
C1173 C1172 1.415 . S
H1174 C1171 0.999 . S
H1175 C1156 0.913 . S
H1176 C1194 0.951 . S
H1177 C1196 0.951 . S
H1178 C1198 0.950 . S
H1179 C1199 0.950 . S
H1180 C1201 0.950 . S
H1181 C1204 0.950 . S
H1182 C1205 0.950 . S
H1183 C1207 0.950 . S
H1184 C1208 0.950 . S
H1185 C1209 0.951 . S
H1186 C1211 0.951 . S
H1187 C1213 0.950 . S
H1188 C1214 0.950 . S
H1189 C1216 0.950 . S
H1190 C1219 0.950 . S
H1191 C1220 0.950 . S
H1192 C1222 0.950 . S
H1193 C1223 0.950 . S
C1194 H1176 0.951 . S
C1194 C1195 1.366 . S
C1194 C1196 1.388 . S
C1195 C1194 1.366 . S
C1195 C1199 1.385 . S
C1196 H1177 0.951 . S
C1196 C1194 1.388 . S
C1196 C1197 1.366 . S
C1197 C1196 1.366 . S
C1197 C1198 1.414 . S
C1197 C1200 1.499 . S
C1198 H1178 0.950 . S
C1198 C1197 1.414 . S
C1198 C1199 1.374 . S
C1199 H1179 0.950 . S
C1199 C1195 1.385 . S
C1199 C1198 1.374 . S
C1200 C1197 1.499 . S
C1200 C1201 1.373 . S
C1200 C1202 1.389 . S
C1201 H1180 0.950 . S
C1201 C1200 1.373 . S
C1201 C1217 1.377 . S
C1202 C1200 1.389 . S
C1202 C1203 1.524 . S
C1202 C1216 1.377 . S
C1203 C1202 1.524 . S
C1203 C1204 1.397 . S
C1203 C1208 1.363 . S
C1204 H1181 0.950 . S
C1204 C1203 1.397 . S
C1204 C1205 1.334 . S
C1205 H1182 0.950 . S
C1205 C1204 1.334 . S
C1205 C1206 1.287 . S
C1206 C1205 1.287 . S
C1206 C1207 1.524 . S
C1206 H1225 0.913 . S
C1207 H1183 0.950 . S
C1207 C1206 1.524 . S
C1207 C1208 1.415 . S
C1208 H1184 0.950 . S
C1208 C1203 1.363 . S
C1208 C1207 1.415 . S
C1209 H1185 0.951 . S
C1209 C1210 1.366 . S
C1209 C1211 1.388 . S
C1210 C1209 1.366 . S
C1210 C1214 1.385 . S
C1211 H1186 0.951 . S
C1211 C1209 1.388 . S
C1211 C1212 1.366 . S
C1212 C1211 1.366 . S
C1212 C1213 1.414 . S
C1212 C1215 1.499 . S
C1213 H1187 0.950 . S
C1213 C1212 1.414 . S
C1213 C1214 1.374 . S
C1214 H1188 0.950 . S
C1214 C1210 1.385 . S
C1214 C1213 1.374 . S
C1215 C1212 1.499 . S
C1215 C1216 1.373 . S
C1215 C1217 1.389 . S
C1216 H1189 0.950 . S
C1216 C1202 1.377 . S
C1216 C1215 1.373 . S
C1217 C1201 1.377 . S
C1217 C1215 1.389 . S
C1217 C1218 1.524 . S
C1218 C1217 1.524 . S
C1218 C1219 1.397 . S
C1218 C1223 1.363 . S
C1219 H1190 0.950 . S
C1219 C1218 1.397 . S
C1219 C1220 1.334 . S
C1220 H1191 0.950 . S
C1220 C1219 1.334 . S
C1220 C1221 1.287 . S
C1221 C1220 1.287 . S
C1221 C1222 1.524 1_455 S
C1221 H1224 0.999 1_455 S
C1222 H1192 0.950 . S
C1222 C1221 1.524 1_655 S
C1222 C1223 1.415 1_655 S
C1223 H1193 0.950 . S
C1223 C1218 1.363 . S
C1223 C1222 1.415 1_455 S
H1224 C1221 0.999 1_655 S
H1225 C1206 0.913 . S
H1226 C1244 0.951 . S
H1227 C1246 0.951 . S
H1228 C1248 0.950 . S
H1229 C1249 0.950 . S
H1230 C1251 0.950 . S
H1231 C1254 0.950 . S
H1232 C1255 0.950 . S
H1233 C1257 0.950 . S
H1234 C1258 0.950 . S
H1235 C1259 0.951 . S
H1236 C1261 0.951 . S
H1237 C1263 0.950 . S
H1238 C1264 0.950 . S
H1239 C1266 0.950 . S
H1240 C1269 0.950 . S
H1241 C1270 0.950 . S
H1242 C1272 0.950 . S
H1243 C1273 0.950 . S
C1244 H1226 0.951 . S
C1244 C1245 1.366 . S
C1244 C1246 1.388 . S
C1245 C1244 1.366 . S
C1245 C1249 1.385 . S
C1246 H1227 0.951 . S
C1246 C1244 1.388 . S
C1246 C1247 1.366 . S
C1247 C1246 1.366 . S
C1247 C1248 1.414 . S
C1247 C1250 1.499 . S
C1248 H1228 0.950 . S
C1248 C1247 1.414 . S
C1248 C1249 1.374 . S
C1249 H1229 0.950 . S
C1249 C1245 1.385 . S
C1249 C1248 1.374 . S
C1250 C1247 1.499 . S
C1250 C1251 1.373 . S
C1250 C1252 1.389 . S
C1251 H1230 0.950 . S
C1251 C1250 1.373 . S
C1251 C1267 1.377 . S
C1252 C1250 1.389 . S
C1252 C1253 1.524 . S
C1252 C1266 1.377 . S
C1253 C1252 1.524 . S
C1253 C1254 1.397 . S
C1253 C1258 1.363 . S
C1254 H1231 0.950 . S
C1254 C1253 1.397 . S
C1254 C1255 1.334 . S
C1255 H1232 0.950 . S
C1255 C1254 1.334 . S
C1255 C1256 1.287 . S
C1256 C1255 1.287 . S
C1256 C1257 1.524 . S
C1256 H1275 0.913 . S
C1257 H1233 0.950 . S
C1257 C1256 1.524 . S
C1257 C1258 1.415 . S
C1258 H1234 0.950 . S
C1258 C1253 1.363 . S
C1258 C1257 1.415 . S
C1259 H1235 0.951 . S
C1259 C1260 1.366 . S
C1259 C1261 1.388 . S
C1260 C1259 1.366 . S
C1260 C1264 1.385 . S
C1261 H1236 0.951 . S
C1261 C1259 1.388 . S
C1261 C1262 1.366 . S
C1262 C1261 1.366 . S
C1262 C1263 1.414 . S
C1262 C1265 1.499 . S
C1263 H1237 0.950 . S
C1263 C1262 1.414 . S
C1263 C1264 1.374 . S
C1264 H1238 0.950 . S
C1264 C1260 1.385 . S
C1264 C1263 1.374 . S
C1265 C1262 1.499 . S
C1265 C1266 1.373 . S
C1265 C1267 1.389 . S
C1266 H1239 0.950 . S
C1266 C1252 1.377 . S
C1266 C1265 1.373 . S
C1267 C1251 1.377 . S
C1267 C1265 1.389 . S
C1267 C1268 1.524 . S
C1268 C1267 1.524 . S
C1268 C1269 1.397 . S
C1268 C1273 1.363 . S
C1269 H1240 0.950 . S
C1269 C1268 1.397 . S
C1269 C1270 1.334 . S
C1270 H1241 0.950 . S
C1270 C1269 1.334 . S
C1270 C1271 1.287 . S
C1271 C1270 1.287 . S
C1271 C1272 1.524 . S
C1271 H1274 0.999 . S
C1272 H1242 0.950 . S
C1272 C1271 1.524 . S
C1272 C1273 1.415 . S
C1273 H1243 0.950 . S
C1273 C1268 1.363 . S
C1273 C1272 1.415 . S
H1274 C1271 0.999 . S
H1275 C1256 0.913 . S
H1276 C1294 0.951 . S
H1277 C1296 0.951 . S
H1278 C1298 0.950 . S
H1279 C1299 0.950 . S
H1280 C1301 0.950 . S
H1281 C1304 0.950 . S
H1282 C1305 0.950 . S
H1283 C1307 0.950 . S
H1284 C1308 0.950 . S
H1285 C1309 0.951 . S
H1286 C1311 0.951 . S
H1287 C1313 0.950 . S
H1288 C1314 0.950 . S
H1289 C1316 0.950 . S
H1290 C1319 0.950 . S
H1291 C1320 0.950 . S
H1292 C1322 0.950 . S
H1293 C1323 0.950 . S
C1294 H1276 0.951 . S
C1294 C1295 1.366 . S
C1294 C1296 1.388 . S
C1295 C1294 1.366 . S
C1295 C1299 1.385 . S
C1296 H1277 0.951 . S
C1296 C1294 1.388 . S
C1296 C1297 1.366 . S
C1297 C1296 1.366 . S
C1297 C1298 1.414 . S
C1297 C1300 1.499 . S
C1298 H1278 0.950 . S
C1298 C1297 1.414 . S
C1298 C1299 1.374 . S
C1299 H1279 0.950 . S
C1299 C1295 1.385 . S
C1299 C1298 1.374 . S
C1300 C1297 1.499 . S
C1300 C1301 1.373 . S
C1300 C1302 1.389 . S
C1301 H1280 0.950 . S
C1301 C1300 1.373 . S
C1301 C1317 1.377 . S
C1302 C1300 1.389 . S
C1302 C1303 1.524 . S
C1302 C1316 1.377 . S
C1303 C1302 1.524 . S
C1303 C1304 1.397 . S
C1303 C1308 1.363 . S
C1304 H1281 0.950 . S
C1304 C1303 1.397 . S
C1304 C1305 1.334 . S
C1305 H1282 0.950 . S
C1305 C1304 1.334 . S
C1305 C1306 1.287 . S
C1306 C1305 1.287 . S
C1306 C1307 1.524 . S
C1306 H1325 0.913 . S
C1307 H1283 0.950 . S
C1307 C1306 1.524 . S
C1307 C1308 1.415 . S
C1308 H1284 0.950 . S
C1308 C1303 1.363 . S
C1308 C1307 1.415 . S
C1309 H1285 0.951 . S
C1309 C1310 1.366 . S
C1309 C1311 1.388 . S
C1310 C1309 1.366 . S
C1310 C1314 1.385 . S
C1311 H1286 0.951 . S
C1311 C1309 1.388 . S
C1311 C1312 1.366 . S
C1312 C1311 1.366 . S
C1312 C1313 1.414 . S
C1312 C1315 1.499 . S
C1313 H1287 0.950 . S
C1313 C1312 1.414 . S
C1313 C1314 1.374 . S
C1314 H1288 0.950 . S
C1314 C1310 1.385 . S
C1314 C1313 1.374 . S
C1315 C1312 1.499 . S
C1315 C1316 1.373 . S
C1315 C1317 1.389 . S
C1316 H1289 0.950 . S
C1316 C1302 1.377 . S
C1316 C1315 1.373 . S
C1317 C1301 1.377 . S
C1317 C1315 1.389 . S
C1317 C1318 1.524 . S
C1318 C1317 1.524 . S
C1318 C1319 1.397 . S
C1318 C1323 1.363 . S
C1319 H1290 0.950 . S
C1319 C1318 1.397 . S
C1319 C1320 1.334 . S
C1320 H1291 0.950 . S
C1320 C1319 1.334 . S
C1320 C1321 1.287 . S
C1321 C1320 1.287 . S
C1321 C1322 1.524 . S
C1321 H1324 0.999 . S
C1322 H1292 0.950 . S
C1322 C1321 1.524 . S
C1322 C1323 1.415 . S
C1323 H1293 0.950 . S
C1323 C1318 1.363 . S
C1323 C1322 1.415 . S
H1324 C1321 0.999 . S
H1325 C1306 0.913 . S
H1326 C1344 0.951 . S
H1327 C1346 0.951 . S
H1328 C1348 0.950 . S
H1329 C1349 0.950 . S
H1330 C1351 0.950 . S
H1331 C1354 0.950 . S
H1332 C1355 0.950 . S
H1333 C1357 0.950 . S
H1334 C1358 0.950 . S
H1335 C1359 0.951 . S
H1336 C1361 0.951 . S
H1337 C1363 0.950 . S
H1338 C1364 0.950 . S
H1339 C1366 0.950 . S
H1340 C1369 0.950 . S
H1341 C1370 0.950 . S
H1342 C1372 0.950 . S
H1343 C1373 0.950 . S
C1344 H1326 0.951 . S
C1344 C1345 1.366 . S
C1344 C1346 1.388 . S
C1345 C1344 1.366 . S
C1345 C1349 1.385 . S
C1346 H1327 0.951 . S
C1346 C1344 1.388 . S
C1346 C1347 1.366 . S
C1347 C1346 1.366 . S
C1347 C1348 1.414 . S
C1347 C1350 1.499 . S
C1348 H1328 0.950 . S
C1348 C1347 1.414 . S
C1348 C1349 1.374 . S
C1349 H1329 0.950 . S
C1349 C1345 1.385 . S
C1349 C1348 1.374 . S
C1350 C1347 1.499 . S
C1350 C1351 1.373 . S
C1350 C1352 1.389 . S
C1351 H1330 0.950 . S
C1351 C1350 1.373 . S
C1351 C1367 1.377 . S
C1352 C1350 1.389 . S
C1352 C1353 1.524 . S
C1352 C1366 1.377 . S
C1353 C1352 1.524 . S
C1353 C1354 1.397 . S
C1353 C1358 1.363 . S
C1354 H1331 0.950 . S
C1354 C1353 1.397 . S
C1354 C1355 1.334 . S
C1355 H1332 0.950 . S
C1355 C1354 1.334 . S
C1355 C1356 1.287 . S
C1356 C1355 1.287 . S
C1356 C1357 1.524 . S
C1356 H1375 0.913 . S
C1357 H1333 0.950 . S
C1357 C1356 1.524 . S
C1357 C1358 1.415 . S
C1358 H1334 0.950 . S
C1358 C1353 1.363 . S
C1358 C1357 1.415 . S
C1359 H1335 0.951 . S
C1359 C1360 1.366 . S
C1359 C1361 1.388 . S
C1360 C1359 1.366 . S
C1360 C1364 1.385 . S
C1361 H1336 0.951 . S
C1361 C1359 1.388 . S
C1361 C1362 1.366 . S
C1362 C1361 1.366 . S
C1362 C1363 1.414 . S
C1362 C1365 1.499 . S
C1363 H1337 0.950 . S
C1363 C1362 1.414 . S
C1363 C1364 1.374 . S
C1364 H1338 0.950 . S
C1364 C1360 1.385 . S
C1364 C1363 1.374 . S
C1365 C1362 1.499 . S
C1365 C1366 1.373 . S
C1365 C1367 1.389 . S
C1366 H1339 0.950 . S
C1366 C1352 1.377 . S
C1366 C1365 1.373 . S
C1367 C1351 1.377 . S
C1367 C1365 1.389 . S
C1367 C1368 1.524 . S
C1368 C1367 1.524 . S
C1368 C1369 1.397 . S
C1368 C1373 1.363 . S
C1369 H1340 0.950 . S
C1369 C1368 1.397 . S
C1369 C1370 1.334 . S
C1370 H1341 0.950 . S
C1370 C1369 1.334 . S
C1370 C1371 1.287 . S
C1371 C1370 1.287 . S
C1371 C1372 1.524 . S
C1371 H1374 0.999 . S
C1372 H1342 0.950 . S
C1372 C1371 1.524 . S
C1372 C1373 1.415 . S
C1373 H1343 0.950 . S
C1373 C1368 1.363 . S
C1373 C1372 1.415 . S
H1374 C1371 0.999 . S
H1375 C1356 0.913 . S
H1376 C1394 0.951 . S
H1377 C1396 0.951 . S
H1378 C1398 0.950 . S
H1379 C1399 0.950 . S
H1380 C1401 0.951 . S
H1381 C1404 0.950 . S
H1382 C1405 0.950 . S
H1383 C1407 0.950 . S
H1384 C1408 0.950 . S
H1385 C1409 0.951 1_565 S
H1386 C1411 0.951 1_665 S
H1387 C1413 0.950 . S
H1388 C1414 0.950 . S
H1389 C1416 0.950 . S
H1390 C1419 1.011 . S
H1391 C1420 0.976 . S
H1392 C1422 0.950 . S
H1393 C1423 0.950 1_655 S
C1394 H1376 0.951 . S
C1394 C1395 1.366 . S
C1394 C1396 1.388 . S
C1395 C1394 1.366 . S
C1395 C1399 1.385 1_545 S
C1396 H1377 0.951 . S
C1396 C1394 1.388 . S
C1396 C1397 1.366 . S
C1397 C1396 1.366 . S
C1397 C1398 1.414 1_545 S
C1397 C1400 1.499 . S
C1398 H1378 0.950 . S
C1398 C1397 1.414 1_565 S
C1398 C1399 1.374 . S
C1399 H1379 0.950 . S
C1399 C1395 1.385 1_565 S
C1399 C1398 1.374 . S
C1400 C1397 1.499 . S
C1400 C1401 1.373 1_545 S
C1400 C1402 1.389 . S
C1401 H1380 0.951 . S
C1401 C1400 1.373 1_565 S
C1401 C1417 1.376 1_565 S
C1402 C1400 1.389 . S
C1402 C1403 1.524 . S
C1402 C1416 1.377 . S
C1403 C1402 1.524 . S
C1403 C1404 1.397 . S
C1403 C1408 1.363 . S
C1404 H1381 0.950 . S
C1404 C1403 1.397 . S
C1404 C1405 1.334 . S
C1405 H1382 0.950 . S
C1405 C1404 1.334 . S
C1405 C1406 1.287 . S
C1406 C1405 1.287 . S
C1406 C1407 1.524 . S
C1406 H1425 0.913 . S
C1407 H1383 0.950 . S
C1407 C1406 1.524 . S
C1407 C1408 1.415 . S
C1408 H1384 0.950 . S
C1408 C1403 1.363 . S
C1408 C1407 1.415 . S
C1409 H1385 0.951 1_545 S
C1409 C1410 1.366 . S
C1409 C1411 1.388 . S
C1410 C1409 1.366 . S
C1410 C1414 1.385 . S
C1411 H1386 0.951 1_445 S
C1411 C1409 1.388 . S
C1411 C1412 1.366 . S
C1412 C1411 1.366 . S
C1412 C1413 1.414 . S
C1412 C1415 1.499 1_455 S
C1413 H1387 0.950 . S
C1413 C1412 1.414 . S
C1413 C1414 1.374 . S
C1414 H1388 0.950 . S
C1414 C1410 1.385 . S
C1414 C1413 1.374 . S
C1415 C1412 1.499 1_655 S
C1415 C1416 1.373 . S
C1415 C1417 1.389 . S
C1416 H1389 0.950 . S
C1416 C1402 1.377 . S
C1416 C1415 1.373 . S
C1417 C1401 1.376 1_545 S
C1417 C1415 1.389 . S
C1417 C1418 1.524 1_645 S
C1418 C1417 1.524 1_465 S
C1418 C1419 1.376 1_565 S
C1418 C1423 1.363 . S
C1419 H1390 1.011 . S
C1419 C1418 1.376 1_545 S
C1419 C1420 1.297 1_545 S
C1420 H1391 0.976 . S
C1420 C1419 1.297 1_565 S
C1420 C1421 1.287 . S
C1421 C1420 1.287 . S
C1421 C1422 1.524 . S
C1421 H1424 0.999 . S
C1422 H1392 0.950 . S
C1422 C1421 1.524 . S
C1422 C1423 1.415 . S
C1423 H1393 0.950 1_455 S
C1423 C1418 1.363 . S
C1423 C1422 1.415 . S
H1424 C1421 0.999 . S
H1425 C1406 0.913 . S
H1426 C1444 0.951 . S
H1427 C1446 0.951 . S
H1428 C1448 0.950 . S
H1429 C1449 0.950 . S
H1430 C1451 0.950 . S
H1431 C1454 0.950 . S
H1432 C1455 0.950 . S
H1433 C1457 0.950 . S
H1434 C1458 0.950 . S
H1435 C1459 0.951 . S
H1436 C1461 0.951 . S
H1437 C1463 0.950 . S
H1438 C1464 0.950 . S
H1439 C1466 0.950 . S
H1440 C1469 0.950 . S
H1441 C1470 0.950 . S
H1442 C1472 0.950 . S
H1443 C1473 0.950 . S
C1444 H1426 0.951 . S
C1444 C1445 1.366 . S
C1444 C1446 1.388 . S
C1445 C1444 1.366 . S
C1445 C1449 1.385 . S
C1446 H1427 0.951 . S
C1446 C1444 1.388 . S
C1446 C1447 1.366 . S
C1447 C1446 1.366 . S
C1447 C1448 1.414 . S
C1447 C1450 1.499 . S
C1448 H1428 0.950 . S
C1448 C1447 1.414 . S
C1448 C1449 1.374 . S
C1449 H1429 0.950 . S
C1449 C1445 1.385 . S
C1449 C1448 1.374 . S
C1450 C1447 1.499 . S
C1450 C1451 1.373 . S
C1450 C1452 1.389 . S
C1451 H1430 0.950 . S
C1451 C1450 1.373 . S
C1451 C1467 1.377 . S
C1452 C1450 1.389 . S
C1452 C1453 1.524 . S
C1452 C1466 1.377 . S
C1453 C1452 1.524 . S
C1453 C1454 1.397 . S
C1453 C1458 1.363 . S
C1454 H1431 0.950 . S
C1454 C1453 1.397 . S
C1454 C1455 1.334 . S
C1455 H1432 0.950 . S
C1455 C1454 1.334 . S
C1455 C1456 1.287 . S
C1456 C1455 1.287 . S
C1456 C1457 1.524 . S
C1456 H1475 0.913 . S
C1457 H1433 0.950 . S
C1457 C1456 1.524 . S
C1457 C1458 1.415 . S
C1458 H1434 0.950 . S
C1458 C1453 1.363 . S
C1458 C1457 1.415 . S
C1459 H1435 0.951 . S
C1459 C1460 1.366 . S
C1459 C1461 1.388 . S
C1460 C1459 1.366 . S
C1460 C1464 1.385 . S
C1461 H1436 0.951 . S
C1461 C1459 1.388 . S
C1461 C1462 1.366 . S
C1462 C1461 1.366 . S
C1462 C1463 1.414 . S
C1462 C1465 1.499 . S
C1463 H1437 0.950 . S
C1463 C1462 1.414 . S
C1463 C1464 1.374 . S
C1464 H1438 0.950 . S
C1464 C1460 1.385 . S
C1464 C1463 1.374 . S
C1465 C1462 1.499 . S
C1465 C1466 1.373 . S
C1465 C1467 1.389 . S
C1466 H1439 0.950 . S
C1466 C1452 1.377 . S
C1466 C1465 1.373 . S
C1467 C1451 1.377 . S
C1467 C1465 1.389 . S
C1467 C1468 1.524 . S
C1468 C1467 1.524 . S
C1468 C1469 1.397 . S
C1468 C1473 1.363 . S
C1469 H1440 0.950 . S
C1469 C1468 1.397 . S
C1469 C1470 1.334 . S
C1470 H1441 0.950 . S
C1470 C1469 1.334 . S
C1470 C1471 1.287 . S
C1471 C1470 1.287 . S
C1471 C1472 1.524 . S
C1471 H1474 0.999 . S
C1472 H1442 0.950 . S
C1472 C1471 1.524 . S
C1472 C1473 1.415 . S
C1473 H1443 0.950 . S
C1473 C1468 1.363 . S
C1473 C1472 1.415 . S
H1474 C1471 0.999 . S
H1475 C1456 0.913 . S
H1476 C1494 0.951 . S
H1477 C1496 0.951 . S
H1478 C1498 0.950 . S
H1479 C1499 0.950 . S
H1480 C1501 0.950 . S
H1481 C1504 0.950 . S
H1482 C1505 0.950 . S
H1483 C1507 0.950 . S
H1484 C1508 0.950 . S
H1485 C1509 0.951 . S
H1486 C1511 0.951 . S
H1487 C1513 0.950 . S
H1488 C1514 0.950 . S
H1489 C1516 0.950 . S
H1490 C1519 0.950 . S
H1491 C1520 0.950 . S
H1492 C1522 0.950 . S
H1493 C1523 0.950 . S
C1494 H1476 0.951 . S
C1494 C1495 1.366 1_565 S
C1494 C1496 1.388 . S
C1495 C1494 1.366 1_545 S
C1495 C1499 1.385 . S
C1496 H1477 0.951 . S
C1496 C1494 1.388 . S
C1496 C1497 1.366 1_565 S
C1497 C1496 1.366 1_545 S
C1497 C1498 1.414 . S
C1497 C1500 1.499 . S
C1498 H1478 0.950 . S
C1498 C1497 1.414 . S
C1498 C1499 1.374 . S
C1499 H1479 0.950 . S
C1499 C1495 1.385 . S
C1499 C1498 1.374 . S
C1500 C1497 1.499 . S
C1500 C1501 1.373 . S
C1500 C1502 1.389 . S
C1501 H1480 0.950 . S
C1501 C1500 1.373 . S
C1501 C1517 1.377 . S
C1502 C1500 1.389 . S
C1502 C1503 1.524 . S
C1502 C1516 1.377 . S
C1503 C1502 1.524 . S
C1503 C1504 1.397 . S
C1503 C1508 1.363 1_545 S
C1504 H1481 0.950 . S
C1504 C1503 1.397 . S
C1504 C1505 1.334 . S
C1505 H1482 0.950 . S
C1505 C1504 1.334 . S
C1505 C1506 1.287 . S
C1506 C1505 1.287 . S
C1506 C1507 1.524 1_545 S
C1506 H1525 0.913 . S
C1507 H1483 0.950 . S
C1507 C1506 1.524 1_565 S
C1507 C1508 1.415 . S
C1508 H1484 0.950 . S
C1508 C1503 1.363 1_565 S
C1508 C1507 1.415 . S
C1509 H1485 0.951 . S
C1509 C1510 1.366 . S
C1509 C1511 1.388 . S
C1510 C1509 1.366 . S
C1510 C1514 1.385 1_545 S
C1511 H1486 0.951 . S
C1511 C1509 1.388 . S
C1511 C1512 1.366 . S
C1512 C1511 1.366 . S
C1512 C1513 1.414 1_545 S
C1512 C1515 1.499 . S
C1513 H1487 0.950 . S
C1513 C1512 1.414 1_565 S
C1513 C1514 1.374 . S
C1514 H1488 0.950 . S
C1514 C1510 1.385 1_565 S
C1514 C1513 1.374 . S
C1515 C1512 1.499 . S
C1515 C1516 1.373 . S
C1515 C1517 1.389 . S
C1516 H1489 0.950 . S
C1516 C1502 1.377 . S
C1516 C1515 1.373 . S
C1517 C1501 1.377 . S
C1517 C1515 1.389 . S
C1517 C1518 1.524 . S
C1518 C1517 1.524 . S
C1518 C1519 1.397 1_545 S
C1518 C1523 1.363 . S
C1519 H1490 0.950 . S
C1519 C1518 1.397 1_565 S
C1519 C1520 1.334 . S
C1520 H1491 0.950 . S
C1520 C1519 1.334 . S
C1520 C1521 1.287 1_565 S
C1521 C1520 1.287 1_545 S
C1521 C1522 1.524 . S
C1521 H1524 0.999 . S
C1522 H1492 0.950 . S
C1522 C1521 1.524 . S
C1522 C1523 1.415 . S
C1523 H1493 0.950 . S
C1523 C1518 1.363 . S
C1523 C1522 1.415 . S
H1524 C1521 0.999 . S
H1525 C1506 0.913 . S
H1526 C1544 0.951 . S
H1527 C1546 0.951 . S
H1528 C1548 0.950 . S
H1529 C1549 0.950 . S
H1530 C1551 0.950 . S
H1531 C1554 0.950 . S
H1532 C1555 0.950 . S
H1533 C1557 0.950 . S
H1534 C1558 0.950 . S
H1535 C1559 0.951 . S
H1536 C1561 0.951 . S
H1537 C1563 0.950 . S
H1538 C1564 0.950 . S
H1539 C1566 0.950 . S
H1540 C1569 0.950 . S
H1541 C1570 0.950 . S
H1542 C1572 0.950 . S
H1543 C1573 0.950 . S
C1544 H1526 0.951 . S
C1544 C1545 1.366 . S
C1544 C1546 1.388 . S
C1545 C1544 1.366 . S
C1545 C1549 1.385 . S
C1546 H1527 0.951 . S
C1546 C1544 1.388 . S
C1546 C1547 1.366 . S
C1547 C1546 1.366 . S
C1547 C1548 1.414 . S
C1547 C1550 1.499 . S
C1548 H1528 0.950 . S
C1548 C1547 1.414 . S
C1548 C1549 1.374 . S
C1549 H1529 0.950 . S
C1549 C1545 1.385 . S
C1549 C1548 1.374 . S
C1550 C1547 1.499 . S
C1550 C1551 1.373 . S
C1550 C1552 1.389 . S
C1551 H1530 0.950 . S
C1551 C1550 1.373 . S
C1551 C1567 1.377 . S
C1552 C1550 1.389 . S
C1552 C1553 1.524 . S
C1552 C1566 1.377 . S
C1553 C1552 1.524 . S
C1553 C1554 1.397 . S
C1553 C1558 1.363 . S
C1554 H1531 0.950 . S
C1554 C1553 1.397 . S
C1554 C1555 1.334 . S
C1555 H1532 0.950 . S
C1555 C1554 1.334 . S
C1555 C1556 1.287 . S
C1556 C1555 1.287 . S
C1556 C1557 1.524 . S
C1556 H1575 0.913 . S
C1557 H1533 0.950 . S
C1557 C1556 1.524 . S
C1557 C1558 1.415 . S
C1558 H1534 0.950 . S
C1558 C1553 1.363 . S
C1558 C1557 1.415 . S
C1559 H1535 0.951 . S
C1559 C1560 1.366 . S
C1559 C1561 1.388 . S
C1560 C1559 1.366 . S
C1560 C1564 1.385 . S
C1561 H1536 0.951 . S
C1561 C1559 1.388 . S
C1561 C1562 1.366 . S
C1562 C1561 1.366 . S
C1562 C1563 1.414 . S
C1562 C1565 1.499 . S
C1563 H1537 0.950 . S
C1563 C1562 1.414 . S
C1563 C1564 1.374 . S
C1564 H1538 0.950 . S
C1564 C1560 1.385 . S
C1564 C1563 1.374 . S
C1565 C1562 1.499 . S
C1565 C1566 1.373 . S
C1565 C1567 1.389 . S
C1566 H1539 0.950 . S
C1566 C1552 1.377 . S
C1566 C1565 1.373 . S
C1567 C1551 1.377 . S
C1567 C1565 1.389 . S
C1567 C1568 1.524 . S
C1568 C1567 1.524 . S
C1568 C1569 1.397 . S
C1568 C1573 1.363 . S
C1569 H1540 0.950 . S
C1569 C1568 1.397 . S
C1569 C1570 1.334 . S
C1570 H1541 0.950 . S
C1570 C1569 1.334 . S
C1570 C1571 1.287 . S
C1571 C1570 1.287 . S
C1571 C1572 1.524 . S
C1571 H1574 0.999 . S
C1572 H1542 0.950 . S
C1572 C1571 1.524 . S
C1572 C1573 1.415 . S
C1573 H1543 0.950 . S
C1573 C1568 1.363 . S
C1573 C1572 1.415 . S
H1574 C1571 0.999 . S
H1575 C1556 0.913 . S
H1576 C1594 0.951 . S
H1577 C1596 0.951 . S
H1578 C1598 0.950 . S
H1579 C1599 0.950 . S
H1580 C1601 0.950 . S
H1581 C1604 0.954 . S
H1582 C1605 0.950 . S
H1583 C1607 0.950 . S
H1584 C1608 0.950 . S
H1585 C1609 0.922 1_565 S
H1586 C1611 0.954 . S
H1587 C1613 0.950 . S
H1588 C1614 0.950 . S
H1589 C1616 0.949 1_455 S
H1590 C1619 0.950 . S
H1591 C1620 0.950 . S
H1592 C1622 0.950 . S
H1593 C1623 0.950 . S
C1594 H1576 0.951 . S
C1594 C1595 1.366 . S
C1594 C1596 1.388 . S
C1595 C1594 1.366 . S
C1595 C1599 1.385 1_545 S
C1596 H1577 0.951 . S
C1596 C1594 1.388 . S
C1596 C1597 1.366 . S
C1597 C1596 1.366 . S
C1597 C1598 1.414 1_545 S
C1597 C1600 1.499 . S
C1598 H1578 0.950 . S
C1598 C1597 1.414 1_565 S
C1598 C1599 1.374 . S
C1599 H1579 0.950 . S
C1599 C1595 1.385 1_565 S
C1599 C1598 1.374 . S
C1600 C1597 1.499 . S
C1600 C1601 1.373 1_545 S
C1600 C1602 1.389 . S
C1601 H1580 0.950 . S
C1601 C1600 1.373 1_565 S
C1601 C1617 1.377 . S
C1602 C1600 1.389 . S
C1602 C1603 1.524 . S
C1602 C1616 1.377 . S
C1603 C1602 1.524 . S
C1603 C1604 1.390 1_655 S
C1603 C1608 1.363 . S
C1604 H1581 0.954 . S
C1604 C1603 1.390 1_455 S
C1604 C1605 1.337 . S
C1605 H1582 0.950 . S
C1605 C1604 1.337 . S
C1605 C1606 1.287 . S
C1606 C1605 1.287 . S
C1606 C1607 1.524 1_455 S
C1606 H1625 0.913 . S
C1607 H1583 0.950 . S
C1607 C1606 1.524 1_655 S
C1607 C1608 1.415 . S
C1608 H1584 0.950 . S
C1608 C1603 1.363 . S
C1608 C1607 1.415 . S
C1609 H1585 0.922 1_545 S
C1609 C1610 1.388 . S
C1609 C1611 1.396 1_545 S
C1610 C1609 1.388 . S
C1610 C1614 1.385 . S
C1611 H1586 0.954 . S
C1611 C1609 1.396 1_565 S
C1611 C1612 1.350 1_465 S
C1612 C1611 1.350 1_645 S
C1612 C1613 1.419 . S
C1612 C1615 1.504 . S
C1613 H1587 0.950 . S
C1613 C1612 1.419 . S
C1613 C1614 1.374 1_655 S
C1614 H1588 0.950 . S
C1614 C1610 1.385 . S
C1614 C1613 1.374 1_455 S
C1615 C1612 1.504 . S
C1615 C1616 1.373 . S
C1615 C1617 1.389 1_545 S
C1616 H1589 0.949 1_655 S
C1616 C1602 1.377 . S
C1616 C1615 1.373 . S
C1617 C1601 1.377 . S
C1617 C1615 1.389 1_565 S
C1617 C1618 1.524 . S
C1618 C1617 1.524 . S
C1618 C1619 1.397 . S
C1618 C1623 1.363 . S
C1619 H1590 0.950 . S
C1619 C1618 1.397 . S
C1619 C1620 1.334 . S
C1620 H1591 0.950 . S
C1620 C1619 1.334 . S
C1620 C1621 1.287 . S
C1621 C1620 1.287 . S
C1621 C1622 1.524 . S
C1621 H1624 0.999 . S
C1622 H1592 0.950 . S
C1622 C1621 1.524 . S
C1622 C1623 1.415 . S
C1623 H1593 0.950 . S
C1623 C1618 1.363 . S
C1623 C1622 1.415 . S
H1624 C1621 0.999 . S
H1625 C1606 0.913 . S
H1626 C1644 0.951 . S
H1627 C1646 0.951 . S
H1628 C1648 0.950 . S
H1629 C1649 0.950 . S
H1630 C1651 0.950 . S
H1631 C1654 0.950 . S
H1632 C1655 0.950 . S
H1633 C1657 0.950 . S
H1634 C1658 0.950 . S
H1635 C1659 0.951 . S
H1636 C1661 0.951 . S
H1637 C1663 0.950 . S
H1638 C1664 0.950 . S
H1639 C1666 0.950 . S
H1640 C1669 0.950 . S
H1641 C1670 0.950 . S
H1642 C1672 0.950 . S
H1643 C1673 0.950 . S
C1644 H1626 0.951 . S
C1644 C1645 1.366 . S
C1644 C1646 1.388 . S
C1645 C1644 1.366 . S
C1645 C1649 1.385 . S
C1646 H1627 0.951 . S
C1646 C1644 1.388 . S
C1646 C1647 1.366 . S
C1647 C1646 1.366 . S
C1647 C1648 1.414 . S
C1647 C1650 1.499 . S
C1648 H1628 0.950 . S
C1648 C1647 1.414 . S
C1648 C1649 1.374 . S
C1649 H1629 0.950 . S
C1649 C1645 1.385 . S
C1649 C1648 1.374 . S
C1650 C1647 1.499 . S
C1650 C1651 1.373 . S
C1650 C1652 1.389 . S
C1651 H1630 0.950 . S
C1651 C1650 1.373 . S
C1651 C1667 1.377 . S
C1652 C1650 1.389 . S
C1652 C1653 1.524 . S
C1652 C1666 1.377 . S
C1653 C1652 1.524 . S
C1653 C1654 1.397 . S
C1653 C1658 1.363 . S
C1654 H1631 0.950 . S
C1654 C1653 1.397 . S
C1654 C1655 1.334 . S
C1655 H1632 0.950 . S
C1655 C1654 1.334 . S
C1655 C1656 1.287 . S
C1656 C1655 1.287 . S
C1656 C1657 1.524 . S
C1656 H1675 0.913 . S
C1657 H1633 0.950 . S
C1657 C1656 1.524 . S
C1657 C1658 1.415 . S
C1658 H1634 0.950 . S
C1658 C1653 1.363 . S
C1658 C1657 1.415 . S
C1659 H1635 0.951 . S
C1659 C1660 1.366 . S
C1659 C1661 1.388 . S
C1660 C1659 1.366 . S
C1660 C1664 1.385 . S
C1661 H1636 0.951 . S
C1661 C1659 1.388 . S
C1661 C1662 1.366 . S
C1662 C1661 1.366 . S
C1662 C1663 1.414 . S
C1662 C1665 1.499 . S
C1663 H1637 0.950 . S
C1663 C1662 1.414 . S
C1663 C1664 1.374 . S
C1664 H1638 0.950 . S
C1664 C1660 1.385 . S
C1664 C1663 1.374 . S
C1665 C1662 1.499 . S
C1665 C1666 1.373 . S
C1665 C1667 1.389 . S
C1666 H1639 0.950 . S
C1666 C1652 1.377 . S
C1666 C1665 1.373 . S
C1667 C1651 1.377 . S
C1667 C1665 1.389 . S
C1667 C1668 1.524 . S
C1668 C1667 1.524 . S
C1668 C1669 1.397 . S
C1668 C1673 1.363 . S
C1669 H1640 0.950 . S
C1669 C1668 1.397 . S
C1669 C1670 1.334 . S
C1670 H1641 0.950 . S
C1670 C1669 1.334 . S
C1670 C1671 1.287 . S
C1671 C1670 1.287 . S
C1671 C1672 1.524 . S
C1671 H1674 0.999 . S
C1672 H1642 0.950 . S
C1672 C1671 1.524 . S
C1672 C1673 1.415 . S
C1673 H1643 0.950 . S
C1673 C1668 1.363 . S
C1673 C1672 1.415 . S
H1674 C1671 0.999 . S
H1675 C1656 0.913 . S
H1676 C1694 0.951 . S
H1677 C1696 0.951 . S
H1678 C1698 0.950 . S
H1679 C1699 0.950 . S
H1680 C1701 0.950 1_565 S
H1681 C1704 0.950 . S
H1682 C1705 0.950 . S
H1683 C1707 0.950 . S
H1684 C1708 0.950 . S
H1685 C1709 0.951 . S
H1686 C1711 0.951 . S
H1687 C1713 0.950 . S
H1688 C1714 0.950 . S
H1689 C1716 0.950 . S
H1690 C1719 0.950 . S
H1691 C1720 0.950 . S
H1692 C1722 0.950 . S
H1693 C1723 0.950 . S
C1694 H1676 0.951 . S
C1694 C1695 1.366 . S
C1694 C1696 1.388 . S
C1695 C1694 1.366 . S
C1695 C1699 1.385 . S
C1696 H1677 0.951 . S
C1696 C1694 1.388 . S
C1696 C1697 1.366 . S
C1697 C1696 1.366 . S
C1697 C1698 1.414 . S
C1697 C1700 1.499 . S
C1698 H1678 0.950 . S
C1698 C1697 1.414 . S
C1698 C1699 1.374 . S
C1699 H1679 0.950 . S
C1699 C1695 1.385 . S
C1699 C1698 1.374 . S
C1700 C1697 1.499 . S
C1700 C1701 1.373 . S
C1700 C1702 1.389 . S
C1701 H1680 0.950 1_545 S
C1701 C1700 1.373 . S
C1701 C1717 1.377 . S
C1702 C1700 1.389 . S
C1702 C1703 1.524 . S
C1702 C1716 1.377 . S
C1703 C1702 1.524 . S
C1703 C1704 1.397 . S
C1703 C1708 1.363 . S
C1704 H1681 0.950 . S
C1704 C1703 1.397 . S
C1704 C1705 1.334 . S
C1705 H1682 0.950 . S
C1705 C1704 1.334 . S
C1705 C1706 1.287 . S
C1706 C1705 1.287 . S
C1706 C1707 1.524 . S
C1706 H1725 0.913 . S
C1707 H1683 0.950 . S
C1707 C1706 1.524 . S
C1707 C1708 1.415 . S
C1708 H1684 0.950 . S
C1708 C1703 1.363 . S
C1708 C1707 1.415 . S
C1709 H1685 0.951 . S
C1709 C1710 1.366 . S
C1709 C1711 1.388 . S
C1710 C1709 1.366 . S
C1710 C1714 1.385 . S
C1711 H1686 0.951 . S
C1711 C1709 1.388 . S
C1711 C1712 1.366 . S
C1712 C1711 1.366 . S
C1712 C1713 1.414 . S
C1712 C1715 1.499 . S
C1713 H1687 0.950 . S
C1713 C1712 1.414 . S
C1713 C1714 1.374 . S
C1714 H1688 0.950 . S
C1714 C1710 1.385 . S
C1714 C1713 1.374 . S
C1715 C1712 1.499 . S
C1715 C1716 1.373 . S
C1715 C1717 1.389 . S
C1716 H1689 0.950 . S
C1716 C1702 1.377 . S
C1716 C1715 1.373 . S
C1717 C1701 1.377 . S
C1717 C1715 1.389 . S
C1717 C1718 1.524 1_545 S
C1718 C1717 1.524 1_565 S
C1718 C1719 1.397 . S
C1718 C1723 1.363 . S
C1719 H1690 0.950 . S
C1719 C1718 1.397 . S
C1719 C1720 1.334 . S
C1720 H1691 0.950 . S
C1720 C1719 1.334 . S
C1720 C1721 1.287 . S
C1721 C1720 1.287 . S
C1721 C1722 1.524 . S
C1721 H1724 0.999 . S
C1722 H1692 0.950 . S
C1722 C1721 1.524 . S
C1722 C1723 1.415 . S
C1723 H1693 0.950 . S
C1723 C1718 1.363 . S
C1723 C1722 1.415 . S
H1724 C1721 0.999 . S
H1725 C1706 0.913 . S
H1726 C1744 0.951 . S
H1727 C1746 0.951 . S
H1728 C1748 0.950 . S
H1729 C1749 0.950 . S
H1730 C1751 0.950 . S
H1731 C1754 0.950 . S
H1732 C1755 0.950 . S
H1733 C1757 0.950 . S
H1734 C1758 0.950 . S
H1735 C1759 0.951 . S
H1736 C1761 0.951 . S
H1737 C1763 0.950 . S
H1738 C1764 0.950 . S
H1739 C1766 0.950 . S
H1740 C1769 0.950 . S
H1741 C1770 0.950 . S
H1742 C1772 0.950 . S
H1743 C1773 0.950 . S
C1744 H1726 0.951 . S
C1744 C1745 1.366 . S
C1744 C1746 1.388 . S
C1745 C1744 1.366 . S
C1745 C1749 1.385 . S
C1746 H1727 0.951 . S
C1746 C1744 1.388 . S
C1746 C1747 1.366 . S
C1747 C1746 1.366 . S
C1747 C1748 1.414 . S
C1747 C1750 1.499 . S
C1748 H1728 0.950 . S
C1748 C1747 1.414 . S
C1748 C1749 1.374 . S
C1749 H1729 0.950 . S
C1749 C1745 1.385 . S
C1749 C1748 1.374 . S
C1750 C1747 1.499 . S
C1750 C1751 1.373 . S
C1750 C1752 1.389 . S
C1751 H1730 0.950 . S
C1751 C1750 1.373 . S
C1751 C1767 1.377 . S
C1752 C1750 1.389 . S
C1752 C1753 1.524 . S
C1752 C1766 1.377 . S
C1753 C1752 1.524 . S
C1753 C1754 1.397 . S
C1753 C1758 1.363 . S
C1754 H1731 0.950 . S
C1754 C1753 1.397 . S
C1754 C1755 1.334 . S
C1755 H1732 0.950 . S
C1755 C1754 1.334 . S
C1755 C1756 1.287 . S
C1756 C1755 1.287 . S
C1756 C1757 1.524 . S
C1756 H1775 0.913 . S
C1757 H1733 0.950 . S
C1757 C1756 1.524 . S
C1757 C1758 1.415 . S
C1758 H1734 0.950 . S
C1758 C1753 1.363 . S
C1758 C1757 1.415 . S
C1759 H1735 0.951 . S
C1759 C1760 1.366 . S
C1759 C1761 1.388 . S
C1760 C1759 1.366 . S
C1760 C1764 1.385 . S
C1761 H1736 0.951 . S
C1761 C1759 1.388 . S
C1761 C1762 1.366 . S
C1762 C1761 1.366 . S
C1762 C1763 1.414 . S
C1762 C1765 1.499 . S
C1763 H1737 0.950 . S
C1763 C1762 1.414 . S
C1763 C1764 1.374 . S
C1764 H1738 0.950 . S
C1764 C1760 1.385 . S
C1764 C1763 1.374 . S
C1765 C1762 1.499 . S
C1765 C1766 1.373 . S
C1765 C1767 1.389 . S
C1766 H1739 0.950 . S
C1766 C1752 1.377 . S
C1766 C1765 1.373 . S
C1767 C1751 1.377 . S
C1767 C1765 1.389 . S
C1767 C1768 1.524 . S
C1768 C1767 1.524 . S
C1768 C1769 1.397 . S
C1768 C1773 1.363 . S
C1769 H1740 0.950 . S
C1769 C1768 1.397 . S
C1769 C1770 1.334 . S
C1770 H1741 0.950 . S
C1770 C1769 1.334 . S
C1770 C1771 1.287 . S
C1771 C1770 1.287 . S
C1771 C1772 1.524 . S
C1771 H1774 0.999 . S
C1772 H1742 0.950 . S
C1772 C1771 1.524 . S
C1772 C1773 1.415 . S
C1773 H1743 0.950 . S
C1773 C1768 1.363 . S
C1773 C1772 1.415 . S
H1774 C1771 0.999 . S
H1775 C1756 0.913 . S
H1776 C1794 0.951 1_556 S
H1777 C1796 0.951 . S
H1778 C1798 0.950 . S
H1779 C1799 0.950 . S
H1780 C1801 0.950 . S
H1781 C1804 0.950 . S
H1782 C1805 0.950 . S
H1783 C1807 0.950 . S
H1784 C1808 0.950 . S
H1785 C1809 0.951 . S
H1786 C1811 0.951 . S
H1787 C1813 0.950 . S
H1788 C1814 0.950 . S
H1789 C1816 0.950 . S
H1790 C1819 0.950 . S
H1791 C1820 0.950 . S
H1792 C1822 0.950 . S
H1793 C1823 0.950 . S
C1794 H1776 0.951 1_554 S
C1794 C1795 1.365 1_554 S
C1794 C1796 1.388 . S
C1795 C1794 1.365 1_556 S
C1795 C1799 1.384 1_556 S
C1796 H1777 0.951 . S
C1796 C1794 1.388 . S
C1796 C1797 1.366 . S
C1797 C1796 1.366 . S
C1797 C1798 1.414 . S
C1797 C1800 1.499 . S
C1798 H1778 0.950 . S
C1798 C1797 1.414 . S
C1798 C1799 1.374 . S
C1799 H1779 0.950 . S
C1799 C1795 1.384 1_554 S
C1799 C1798 1.374 . S
C1800 C1797 1.499 . S
C1800 C1801 1.373 . S
C1800 C1802 1.389 . S
C1801 H1780 0.950 . S
C1801 C1800 1.373 . S
C1801 C1817 1.377 . S
C1802 C1800 1.389 . S
C1802 C1803 1.524 1_554 S
C1802 C1816 1.377 . S
C1803 C1802 1.524 1_556 S
C1803 C1804 1.397 . S
C1803 C1808 1.363 . S
C1804 H1781 0.950 . S
C1804 C1803 1.397 . S
C1804 C1805 1.334 . S
C1805 H1782 0.950 . S
C1805 C1804 1.334 . S
C1805 C1806 1.287 . S
C1806 C1805 1.287 . S
C1806 C1807 1.524 . S
C1806 H1825 0.913 . S
C1807 H1783 0.950 . S
C1807 C1806 1.524 . S
C1807 C1808 1.415 . S
C1808 H1784 0.950 . S
C1808 C1803 1.363 . S
C1808 C1807 1.415 . S
C1809 H1785 0.951 . S
C1809 C1810 1.366 . S
C1809 C1811 1.388 . S
C1810 C1809 1.366 . S
C1810 C1814 1.385 . S
C1811 H1786 0.951 . S
C1811 C1809 1.388 . S
C1811 C1812 1.366 . S
C1812 C1811 1.366 . S
C1812 C1813 1.414 . S
C1812 C1815 1.499 . S
C1813 H1787 0.950 . S
C1813 C1812 1.414 . S
C1813 C1814 1.374 . S
C1814 H1788 0.950 . S
C1814 C1810 1.385 . S
C1814 C1813 1.374 . S
C1815 C1812 1.499 . S
C1815 C1816 1.373 . S
C1815 C1817 1.389 . S
C1816 H1789 0.950 . S
C1816 C1802 1.377 . S
C1816 C1815 1.373 . S
C1817 C1801 1.377 . S
C1817 C1815 1.389 . S
C1817 C1818 1.524 . S
C1818 C1817 1.524 . S
C1818 C1819 1.397 . S
C1818 C1823 1.363 . S
C1819 H1790 0.950 . S
C1819 C1818 1.397 . S
C1819 C1820 1.334 . S
C1820 H1791 0.950 . S
C1820 C1819 1.334 . S
C1820 C1821 1.287 . S
C1821 C1820 1.287 . S
C1821 C1822 1.524 . S
C1821 H1824 0.999 . S
C1822 H1792 0.950 . S
C1822 C1821 1.524 . S
C1822 C1823 1.415 . S
C1823 H1793 0.950 . S
C1823 C1818 1.363 . S
C1823 C1822 1.415 . S
H1824 C1821 0.999 . S
H1825 C1806 0.913 . S
H1826 C1844 0.951 1_556 S
H1827 C1846 0.951 1_556 S
H1828 C1848 0.950 . S
H1829 C1849 0.950 . S
H1830 C1851 0.950 . S
H1831 C1854 0.950 . S
H1832 C1855 0.950 . S
H1833 C1857 0.950 . S
H1834 C1858 0.950 . S
H1835 C1859 0.951 . S
H1836 C1861 0.951 . S
H1837 C1863 0.950 1_556 S
H1838 C1864 0.950 1_556 S
H1839 C1866 0.950 . S
H1840 C1869 0.950 1_556 S
H1841 C1870 0.950 1_556 S
H1842 C1872 0.950 . S
H1843 C1873 0.950 . S
C1844 H1826 0.951 1_554 S
C1844 C1845 1.366 . S
C1844 C1846 1.388 . S
C1845 C1844 1.366 . S
C1845 C1849 1.385 . S
C1846 H1827 0.951 1_554 S
C1846 C1844 1.388 . S
C1846 C1847 1.366 . S
C1847 C1846 1.366 . S
C1847 C1848 1.414 . S
C1847 C1850 1.499 . S
C1848 H1828 0.950 . S
C1848 C1847 1.414 . S
C1848 C1849 1.374 . S
C1849 H1829 0.950 . S
C1849 C1845 1.385 . S
C1849 C1848 1.374 . S
C1850 C1847 1.499 . S
C1850 C1851 1.373 . S
C1850 C1852 1.389 . S
C1851 H1830 0.950 . S
C1851 C1850 1.373 . S
C1851 C1867 1.377 . S
C1852 C1850 1.389 . S
C1852 C1853 1.524 . S
C1852 C1866 1.377 . S
C1853 C1852 1.524 . S
C1853 C1854 1.397 . S
C1853 C1858 1.363 1_554 S
C1854 H1831 0.950 . S
C1854 C1853 1.397 . S
C1854 C1855 1.334 . S
C1855 H1832 0.950 . S
C1855 C1854 1.334 . S
C1855 C1856 1.287 . S
C1856 C1855 1.287 . S
C1856 C1857 1.524 1_554 S
C1856 H1875 0.913 . S
C1857 H1833 0.950 . S
C1857 C1856 1.524 1_556 S
C1857 C1858 1.415 . S
C1858 H1834 0.950 . S
C1858 C1853 1.363 1_556 S
C1858 C1857 1.415 . S
C1859 H1835 0.951 . S
C1859 C1860 1.366 . S
C1859 C1861 1.388 . S
C1860 C1859 1.366 . S
C1860 C1864 1.385 . S
C1861 H1836 0.951 . S
C1861 C1859 1.388 . S
C1861 C1862 1.366 . S
C1862 C1861 1.366 . S
C1862 C1863 1.414 . S
C1862 C1865 1.499 . S
C1863 H1837 0.950 1_554 S
C1863 C1862 1.414 . S
C1863 C1864 1.374 . S
C1864 H1838 0.950 1_554 S
C1864 C1860 1.385 . S
C1864 C1863 1.374 . S
C1865 C1862 1.499 . S
C1865 C1866 1.373 . S
C1865 C1867 1.389 . S
C1866 H1839 0.950 . S
C1866 C1852 1.377 . S
C1866 C1865 1.373 . S
C1867 C1851 1.377 . S
C1867 C1865 1.389 . S
C1867 C1868 1.524 . S
C1868 C1867 1.524 . S
C1868 C1869 1.397 . S
C1868 C1873 1.363 . S
C1869 H1840 0.950 1_554 S
C1869 C1868 1.397 . S
C1869 C1870 1.334 . S
C1870 H1841 0.950 1_554 S
C1870 C1869 1.334 . S
C1870 C1871 1.287 . S
C1871 C1870 1.287 . S
C1871 C1872 1.524 . S
C1871 H1874 0.999 . S
C1872 H1842 0.950 . S
C1872 C1871 1.524 . S
C1872 C1873 1.415 . S
C1873 H1843 0.950 . S
C1873 C1868 1.363 . S
C1873 C1872 1.415 . S
H1874 C1871 0.999 . S
H1875 C1856 0.913 . S
H1876 C1894 0.951 . S
H1877 C1896 0.951 . S
H1878 C1898 0.950 . S
H1879 C1899 0.950 . S
H1880 C1901 0.950 . S
H1881 C1904 0.950 . S
H1882 C1905 0.950 . S
H1883 C1907 0.950 . S
H1884 C1908 0.950 . S
H1885 C1909 0.951 . S
H1886 C1911 0.951 . S
H1887 C1913 0.950 . S
H1888 C1914 0.950 . S
H1889 C1916 0.950 . S
H1890 C1919 0.950 . S
H1891 C1920 0.950 . S
H1892 C1922 0.950 . S
H1893 C1923 0.950 . S
C1894 H1876 0.951 . S
C1894 C1895 1.366 . S
C1894 C1896 1.388 . S
C1895 C1894 1.366 . S
C1895 C1899 1.385 . S
C1896 H1877 0.951 . S
C1896 C1894 1.388 . S
C1896 C1897 1.366 . S
C1897 C1896 1.366 . S
C1897 C1898 1.414 . S
C1897 C1900 1.499 . S
C1898 H1878 0.950 . S
C1898 C1897 1.414 . S
C1898 C1899 1.374 . S
C1899 H1879 0.950 . S
C1899 C1895 1.385 . S
C1899 C1898 1.374 . S
C1900 C1897 1.499 . S
C1900 C1901 1.373 . S
C1900 C1902 1.389 . S
C1901 H1880 0.950 . S
C1901 C1900 1.373 . S
C1901 C1917 1.377 . S
C1902 C1900 1.389 . S
C1902 C1903 1.524 . S
C1902 C1916 1.377 . S
C1903 C1902 1.524 . S
C1903 C1904 1.397 . S
C1903 C1908 1.363 . S
C1904 H1881 0.950 . S
C1904 C1903 1.397 . S
C1904 C1905 1.334 . S
C1905 H1882 0.950 . S
C1905 C1904 1.334 . S
C1905 C1906 1.287 . S
C1906 C1905 1.287 . S
C1906 C1907 1.524 . S
C1906 H1925 0.913 . S
C1907 H1883 0.950 . S
C1907 C1906 1.524 . S
C1907 C1908 1.415 . S
C1908 H1884 0.950 . S
C1908 C1903 1.363 . S
C1908 C1907 1.415 . S
C1909 H1885 0.951 . S
C1909 C1910 1.366 . S
C1909 C1911 1.388 . S
C1910 C1909 1.366 . S
C1910 C1914 1.385 . S
C1911 H1886 0.951 . S
C1911 C1909 1.388 . S
C1911 C1912 1.366 . S
C1912 C1911 1.366 . S
C1912 C1913 1.414 . S
C1912 C1915 1.499 . S
C1913 H1887 0.950 . S
C1913 C1912 1.414 . S
C1913 C1914 1.374 . S
C1914 H1888 0.950 . S
C1914 C1910 1.385 . S
C1914 C1913 1.374 . S
C1915 C1912 1.499 . S
C1915 C1916 1.373 . S
C1915 C1917 1.389 . S
C1916 H1889 0.950 . S
C1916 C1902 1.377 . S
C1916 C1915 1.373 . S
C1917 C1901 1.377 . S
C1917 C1915 1.389 . S
C1917 C1918 1.524 . S
C1918 C1917 1.524 . S
C1918 C1919 1.397 . S
C1918 C1923 1.363 . S
C1919 H1890 0.950 . S
C1919 C1918 1.397 . S
C1919 C1920 1.334 . S
C1920 H1891 0.950 . S
C1920 C1919 1.334 . S
C1920 C1921 1.287 . S
C1921 C1920 1.287 . S
C1921 C1922 1.524 . S
C1921 H1924 0.999 . S
C1922 H1892 0.950 . S
C1922 C1921 1.524 . S
C1922 C1923 1.415 . S
C1923 H1893 0.950 . S
C1923 C1918 1.363 . S
C1923 C1922 1.415 . S
H1924 C1921 0.999 . S
H1925 C1906 0.913 . S
H1926 C1944 0.951 . S
H1927 C1946 0.951 . S
H1928 C1948 0.950 . S
H1929 C1949 0.950 . S
H1930 C1951 0.950 . S
H1931 C1954 0.950 . S
H1932 C1955 0.950 . S
H1933 C1957 0.950 . S
H1934 C1958 0.950 . S
H1935 C1959 0.951 . S
H1936 C1961 0.951 . S
H1937 C1963 0.950 . S
H1938 C1964 0.950 . S
H1939 C1966 0.950 . S
H1940 C1969 0.950 . S
H1941 C1970 0.950 . S
H1942 C1972 0.950 . S
H1943 C1973 0.950 . S
C1944 H1926 0.951 . S
C1944 C1945 1.366 . S
C1944 C1946 1.388 . S
C1945 C1944 1.366 . S
C1945 C1949 1.385 . S
C1946 H1927 0.951 . S
C1946 C1944 1.388 . S
C1946 C1947 1.366 . S
C1947 C1946 1.366 . S
C1947 C1948 1.414 . S
C1947 C1950 1.499 . S
C1948 H1928 0.950 . S
C1948 C1947 1.414 . S
C1948 C1949 1.374 . S
C1949 H1929 0.950 . S
C1949 C1945 1.385 . S
C1949 C1948 1.374 . S
C1950 C1947 1.499 . S
C1950 C1951 1.373 . S
C1950 C1952 1.389 . S
C1951 H1930 0.950 . S
C1951 C1950 1.373 . S
C1951 C1967 1.377 . S
C1952 C1950 1.389 . S
C1952 C1953 1.524 . S
C1952 C1966 1.377 . S
C1953 C1952 1.524 . S
C1953 C1954 1.397 . S
C1953 C1958 1.363 . S
C1954 H1931 0.950 . S
C1954 C1953 1.397 . S
C1954 C1955 1.334 . S
C1955 H1932 0.950 . S
C1955 C1954 1.334 . S
C1955 C1956 1.287 . S
C1956 C1955 1.287 . S
C1956 C1957 1.524 . S
C1956 H1975 0.913 . S
C1957 H1933 0.950 . S
C1957 C1956 1.524 . S
C1957 C1958 1.415 . S
C1958 H1934 0.950 . S
C1958 C1953 1.363 . S
C1958 C1957 1.415 . S
C1959 H1935 0.951 . S
C1959 C1960 1.366 . S
C1959 C1961 1.388 . S
C1960 C1959 1.366 . S
C1960 C1964 1.385 . S
C1961 H1936 0.951 . S
C1961 C1959 1.388 . S
C1961 C1962 1.366 . S
C1962 C1961 1.366 . S
C1962 C1963 1.414 . S
C1962 C1965 1.499 . S
C1963 H1937 0.950 . S
C1963 C1962 1.414 . S
C1963 C1964 1.374 . S
C1964 H1938 0.950 . S
C1964 C1960 1.385 . S
C1964 C1963 1.374 . S
C1965 C1962 1.499 . S
C1965 C1966 1.373 . S
C1965 C1967 1.389 . S
C1966 H1939 0.950 . S
C1966 C1952 1.377 . S
C1966 C1965 1.373 . S
C1967 C1951 1.377 . S
C1967 C1965 1.389 . S
C1967 C1968 1.524 . S
C1968 C1967 1.524 . S
C1968 C1969 1.397 . S
C1968 C1973 1.363 . S
C1969 H1940 0.950 . S
C1969 C1968 1.397 . S
C1969 C1970 1.334 . S
C1970 H1941 0.950 . S
C1970 C1969 1.334 . S
C1970 C1971 1.287 . S
C1971 C1970 1.287 . S
C1971 C1972 1.524 . S
C1971 H1974 0.999 . S
C1972 H1942 0.950 . S
C1972 C1971 1.524 . S
C1972 C1973 1.415 . S
C1973 H1943 0.950 . S
C1973 C1968 1.363 . S
C1973 C1972 1.415 . S
H1974 C1971 0.999 . S
H1975 C1956 0.913 . S
H1976 C1994 0.951 . S
H1977 C1996 0.951 . S
H1978 C1998 0.950 . S
H1979 C1999 0.950 . S
H1980 C2001 0.950 . S
H1981 C2004 0.950 . S
H1982 C2005 0.950 . S
H1983 C2007 0.950 . S
H1984 C2008 0.950 . S
H1985 C2009 0.951 . S
H1986 C2011 0.951 . S
H1987 C2013 0.950 . S
H1988 C2014 0.950 . S
H1989 C2016 0.950 . S
H1990 C2019 0.950 . S
H1991 C2020 0.950 . S
H1992 C2022 0.950 . S
H1993 C2023 0.950 . S
C1994 H1976 0.951 . S
C1994 C1995 1.366 . S
C1994 C1996 1.388 . S
C1995 C1994 1.366 . S
C1995 C1999 1.385 . S
C1996 H1977 0.951 . S
C1996 C1994 1.388 . S
C1996 C1997 1.366 . S
C1997 C1996 1.366 . S
C1997 C1998 1.414 . S
C1997 C2000 1.499 . S
C1998 H1978 0.950 . S
C1998 C1997 1.414 . S
C1998 C1999 1.374 . S
C1999 H1979 0.950 . S
C1999 C1995 1.385 . S
C1999 C1998 1.374 . S
C2000 C1997 1.499 . S
C2000 C2001 1.373 . S
C2000 C2002 1.389 . S
C2001 H1980 0.950 . S
C2001 C2000 1.373 . S
C2001 C2017 1.377 . S
C2002 C2000 1.389 . S
C2002 C2003 1.524 . S
C2002 C2016 1.377 . S
C2003 C2002 1.524 . S
C2003 C2004 1.397 . S
C2003 C2008 1.363 . S
C2004 H1981 0.950 . S
C2004 C2003 1.397 . S
C2004 C2005 1.334 . S
C2005 H1982 0.950 . S
C2005 C2004 1.334 . S
C2005 C2006 1.287 . S
C2006 C2005 1.287 . S
C2006 C2007 1.524 . S
C2006 H2025 0.913 . S
C2007 H1983 0.950 . S
C2007 C2006 1.524 . S
C2007 C2008 1.415 . S
C2008 H1984 0.950 . S
C2008 C2003 1.363 . S
C2008 C2007 1.415 . S
C2009 H1985 0.951 . S
C2009 C2010 1.366 . S
C2009 C2011 1.388 . S
C2010 C2009 1.366 . S
C2010 C2014 1.385 . S
C2011 H1986 0.951 . S
C2011 C2009 1.388 . S
C2011 C2012 1.366 . S
C2012 C2011 1.366 . S
C2012 C2013 1.414 . S
C2012 C2015 1.499 . S
C2013 H1987 0.950 . S
C2013 C2012 1.414 . S
C2013 C2014 1.374 . S
C2014 H1988 0.950 . S
C2014 C2010 1.385 . S
C2014 C2013 1.374 . S
C2015 C2012 1.499 . S
C2015 C2016 1.373 . S
C2015 C2017 1.389 . S
C2016 H1989 0.950 . S
C2016 C2002 1.377 . S
C2016 C2015 1.373 . S
C2017 C2001 1.377 . S
C2017 C2015 1.389 . S
C2017 C2018 1.524 . S
C2018 C2017 1.524 . S
C2018 C2019 1.397 . S
C2018 C2023 1.363 . S
C2019 H1990 0.950 . S
C2019 C2018 1.397 . S
C2019 C2020 1.334 . S
C2020 H1991 0.950 . S
C2020 C2019 1.334 . S
C2020 C2021 1.287 . S
C2021 C2020 1.287 . S
C2021 C2022 1.524 . S
C2021 H2024 0.999 . S
C2022 H1992 0.950 . S
C2022 C2021 1.524 . S
C2022 C2023 1.415 . S
C2023 H1993 0.950 . S
C2023 C2018 1.363 . S
C2023 C2022 1.415 . S
H2024 C2021 0.999 . S
H2025 C2006 0.913 . S
H2026 C2044 0.951 . S
H2027 C2046 0.951 . S
H2028 C2048 0.950 . S
H2029 C2049 0.950 . S
H2030 C2051 0.950 . S
H2031 C2054 0.950 . S
H2032 C2055 0.950 . S
H2033 C2057 0.950 . S
H2034 C2058 0.950 . S
H2035 C2059 0.951 . S
H2036 C2061 0.951 . S
H2037 C2063 0.950 . S
H2038 C2064 0.950 . S
H2039 C2066 0.950 . S
H2040 C2069 0.950 . S
H2041 C2070 0.950 . S
H2042 C2072 0.950 . S
H2043 C2073 0.950 . S
C2044 H2026 0.951 . S
C2044 C2045 1.366 . S
C2044 C2046 1.388 . S
C2045 C2044 1.366 . S
C2045 C2049 1.385 . S
C2046 H2027 0.951 . S
C2046 C2044 1.388 . S
C2046 C2047 1.366 . S
C2047 C2046 1.366 . S
C2047 C2048 1.414 . S
C2047 C2050 1.499 . S
C2048 H2028 0.950 . S
C2048 C2047 1.414 . S
C2048 C2049 1.374 . S
C2049 H2029 0.950 . S
C2049 C2045 1.385 . S
C2049 C2048 1.374 . S
C2050 C2047 1.499 . S
C2050 C2051 1.373 . S
C2050 C2052 1.389 . S
C2051 H2030 0.950 . S
C2051 C2050 1.373 . S
C2051 C2067 1.377 . S
C2052 C2050 1.389 . S
C2052 C2053 1.524 . S
C2052 C2066 1.377 . S
C2053 C2052 1.524 . S
C2053 C2054 1.397 . S
C2053 C2058 1.363 . S
C2054 H2031 0.950 . S
C2054 C2053 1.397 . S
C2054 C2055 1.334 . S
C2055 H2032 0.950 . S
C2055 C2054 1.334 . S
C2055 C2056 1.287 . S
C2056 C2055 1.287 . S
C2056 C2057 1.524 . S
C2056 H2075 0.913 . S
C2057 H2033 0.950 . S
C2057 C2056 1.524 . S
C2057 C2058 1.415 . S
C2058 H2034 0.950 . S
C2058 C2053 1.363 . S
C2058 C2057 1.415 . S
C2059 H2035 0.951 . S
C2059 C2060 1.366 . S
C2059 C2061 1.388 . S
C2060 C2059 1.366 . S
C2060 C2064 1.385 . S
C2061 H2036 0.951 . S
C2061 C2059 1.388 . S
C2061 C2062 1.366 . S
C2062 C2061 1.366 . S
C2062 C2063 1.414 . S
C2062 C2065 1.499 . S
C2063 H2037 0.950 . S
C2063 C2062 1.414 . S
C2063 C2064 1.374 . S
C2064 H2038 0.950 . S
C2064 C2060 1.385 . S
C2064 C2063 1.374 . S
C2065 C2062 1.499 . S
C2065 C2066 1.373 . S
C2065 C2067 1.389 . S
C2066 H2039 0.950 . S
C2066 C2052 1.377 . S
C2066 C2065 1.373 . S
C2067 C2051 1.377 . S
C2067 C2065 1.389 . S
C2067 C2068 1.524 . S
C2068 C2067 1.524 . S
C2068 C2069 1.397 . S
C2068 C2073 1.363 . S
C2069 H2040 0.950 . S
C2069 C2068 1.397 . S
C2069 C2070 1.334 . S
C2070 H2041 0.950 . S
C2070 C2069 1.334 . S
C2070 C2071 1.287 . S
C2071 C2070 1.287 . S
C2071 C2072 1.524 . S
C2071 H2074 0.999 . S
C2072 H2042 0.950 . S
C2072 C2071 1.524 . S
C2072 C2073 1.415 . S
C2073 H2043 0.950 . S
C2073 C2068 1.363 . S
C2073 C2072 1.415 . S
H2074 C2071 0.999 . S
H2075 C2056 0.913 . S
H2076 C2094 0.951 . S
H2077 C2096 0.951 . S
H2078 C2098 0.950 . S
H2079 C2099 0.950 . S
H2080 C2101 0.950 . S
H2081 C2104 0.950 . S
H2082 C2105 0.950 . S
H2083 C2107 0.950 . S
H2084 C2108 0.950 . S
H2085 C2109 0.951 . S
H2086 C2111 0.951 . S
H2087 C2113 0.950 . S
H2088 C2114 0.950 . S
H2089 C2116 0.950 . S
H2090 C2119 0.950 . S
H2091 C2120 0.950 . S
H2092 C2122 0.950 . S
H2093 C2123 0.950 . S
C2094 H2076 0.951 . S
C2094 C2095 1.366 . S
C2094 C2096 1.388 . S
C2095 C2094 1.366 . S
C2095 C2099 1.385 . S
C2096 H2077 0.951 . S
C2096 C2094 1.388 . S
C2096 C2097 1.366 . S
C2097 C2096 1.366 . S
C2097 C2098 1.414 . S
C2097 C2100 1.499 . S
C2098 H2078 0.950 . S
C2098 C2097 1.414 . S
C2098 C2099 1.374 . S
C2099 H2079 0.950 . S
C2099 C2095 1.385 . S
C2099 C2098 1.374 . S
C2100 C2097 1.499 . S
C2100 C2101 1.373 . S
C2100 C2102 1.389 . S
C2101 H2080 0.950 . S
C2101 C2100 1.373 . S
C2101 C2117 1.377 . S
C2102 C2100 1.389 . S
C2102 C2103 1.524 . S
C2102 C2116 1.377 . S
C2103 C2102 1.524 . S
C2103 C2104 1.397 . S
C2103 C2108 1.363 . S
C2104 H2081 0.950 . S
C2104 C2103 1.397 . S
C2104 C2105 1.334 . S
C2105 H2082 0.950 . S
C2105 C2104 1.334 . S
C2105 C2106 1.287 . S
C2106 C2105 1.287 . S
C2106 C2107 1.524 . S
C2106 H2125 0.913 . S
C2107 H2083 0.950 . S
C2107 C2106 1.524 . S
C2107 C2108 1.415 . S
C2108 H2084 0.950 . S
C2108 C2103 1.363 . S
C2108 C2107 1.415 . S
C2109 H2085 0.951 . S
C2109 C2110 1.366 . S
C2109 C2111 1.388 . S
C2110 C2109 1.366 . S
C2110 C2114 1.385 . S
C2111 H2086 0.951 . S
C2111 C2109 1.388 . S
C2111 C2112 1.366 . S
C2112 C2111 1.366 . S
C2112 C2113 1.414 . S
C2112 C2115 1.499 . S
C2113 H2087 0.950 . S
C2113 C2112 1.414 . S
C2113 C2114 1.374 . S
C2114 H2088 0.950 . S
C2114 C2110 1.385 . S
C2114 C2113 1.374 . S
C2115 C2112 1.499 . S
C2115 C2116 1.373 . S
C2115 C2117 1.389 . S
C2116 H2089 0.950 . S
C2116 C2102 1.377 . S
C2116 C2115 1.373 . S
C2117 C2101 1.377 . S
C2117 C2115 1.389 . S
C2117 C2118 1.524 . S
C2118 C2117 1.524 . S
C2118 C2119 1.397 . S
C2118 C2123 1.363 . S
C2119 H2090 0.950 . S
C2119 C2118 1.397 . S
C2119 C2120 1.334 . S
C2120 H2091 0.950 . S
C2120 C2119 1.334 . S
C2120 C2121 1.287 . S
C2121 C2120 1.287 . S
C2121 C2122 1.524 . S
C2121 H2124 0.999 . S
C2122 H2092 0.950 . S
C2122 C2121 1.524 . S
C2122 C2123 1.415 . S
C2123 H2093 0.950 . S
C2123 C2118 1.363 . S
C2123 C2122 1.415 . S
H2124 C2121 0.999 . S
H2125 C2106 0.913 . S
H2126 C2144 0.951 . S
H2127 C2146 0.951 . S
H2128 C2148 0.950 . S
H2129 C2149 0.950 . S
H2130 C2151 0.950 . S
H2131 C2154 0.950 . S
H2132 C2155 0.950 . S
H2133 C2157 0.950 . S
H2134 C2158 0.950 . S
H2135 C2159 0.951 . S
H2136 C2161 0.951 . S
H2137 C2163 0.950 . S
H2138 C2164 0.950 . S
H2139 C2166 0.950 . S
H2140 C2169 0.950 . S
H2141 C2170 0.950 . S
H2142 C2172 0.950 . S
H2143 C2173 0.950 . S
C2144 H2126 0.951 . S
C2144 C2145 1.366 . S
C2144 C2146 1.388 . S
C2145 C2144 1.366 . S
C2145 C2149 1.385 . S
C2146 H2127 0.951 . S
C2146 C2144 1.388 . S
C2146 C2147 1.366 . S
C2147 C2146 1.366 . S
C2147 C2148 1.414 . S
C2147 C2150 1.499 . S
C2148 H2128 0.950 . S
C2148 C2147 1.414 . S
C2148 C2149 1.374 . S
C2149 H2129 0.950 . S
C2149 C2145 1.385 . S
C2149 C2148 1.374 . S
C2150 C2147 1.499 . S
C2150 C2151 1.373 . S
C2150 C2152 1.389 . S
C2151 H2130 0.950 . S
C2151 C2150 1.373 . S
C2151 C2167 1.377 . S
C2152 C2150 1.389 . S
C2152 C2153 1.524 . S
C2152 C2166 1.377 . S
C2153 C2152 1.524 . S
C2153 C2154 1.397 . S
C2153 C2158 1.363 . S
C2154 H2131 0.950 . S
C2154 C2153 1.397 . S
C2154 C2155 1.334 . S
C2155 H2132 0.950 . S
C2155 C2154 1.334 . S
C2155 C2156 1.287 . S
C2156 C2155 1.287 . S
C2156 C2157 1.524 . S
C2156 H2175 0.913 . S
C2157 H2133 0.950 . S
C2157 C2156 1.524 . S
C2157 C2158 1.415 . S
C2158 H2134 0.950 . S
C2158 C2153 1.363 . S
C2158 C2157 1.415 . S
C2159 H2135 0.951 . S
C2159 C2160 1.366 . S
C2159 C2161 1.388 . S
C2160 C2159 1.366 . S
C2160 C2164 1.385 . S
C2161 H2136 0.951 . S
C2161 C2159 1.388 . S
C2161 C2162 1.366 . S
C2162 C2161 1.366 . S
C2162 C2163 1.414 . S
C2162 C2165 1.499 . S
C2163 H2137 0.950 . S
C2163 C2162 1.414 . S
C2163 C2164 1.374 . S
C2164 H2138 0.950 . S
C2164 C2160 1.385 . S
C2164 C2163 1.374 . S
C2165 C2162 1.499 . S
C2165 C2166 1.373 . S
C2165 C2167 1.389 . S
C2166 H2139 0.950 . S
C2166 C2152 1.377 . S
C2166 C2165 1.373 . S
C2167 C2151 1.377 . S
C2167 C2165 1.389 . S
C2167 C2168 1.524 . S
C2168 C2167 1.524 . S
C2168 C2169 1.397 . S
C2168 C2173 1.363 . S
C2169 H2140 0.950 . S
C2169 C2168 1.397 . S
C2169 C2170 1.334 . S
C2170 H2141 0.950 . S
C2170 C2169 1.334 . S
C2170 C2171 1.287 . S
C2171 C2170 1.287 . S
C2171 C2172 1.524 . S
C2171 H2174 0.999 . S
C2172 H2142 0.950 . S
C2172 C2171 1.524 . S
C2172 C2173 1.415 . S
C2173 H2143 0.950 . S
C2173 C2168 1.363 . S
C2173 C2172 1.415 . S
H2174 C2171 0.999 . S
H2175 C2156 0.913 . S
H2176 C2194 0.951 . S
H2177 C2196 0.951 . S
H2178 C2198 0.950 . S
H2179 C2199 0.950 . S
H2180 C2201 0.950 . S
H2181 C2204 0.950 . S
H2182 C2205 0.950 . S
H2183 C2207 0.950 . S
H2184 C2208 0.950 . S
H2185 C2209 0.951 . S
H2186 C2211 0.951 . S
H2187 C2213 0.950 . S
H2188 C2214 0.950 . S
H2189 C2216 0.950 . S
H2190 C2219 0.950 . S
H2191 C2220 0.950 . S
H2192 C2222 0.950 . S
H2193 C2223 0.950 . S
C2194 H2176 0.951 . S
C2194 C2195 1.366 . S
C2194 C2196 1.388 . S
C2195 C2194 1.366 . S
C2195 C2199 1.385 . S
C2196 H2177 0.951 . S
C2196 C2194 1.388 . S
C2196 C2197 1.366 . S
C2197 C2196 1.366 . S
C2197 C2198 1.414 . S
C2197 C2200 1.499 . S
C2198 H2178 0.950 . S
C2198 C2197 1.414 . S
C2198 C2199 1.374 . S
C2199 H2179 0.950 . S
C2199 C2195 1.385 . S
C2199 C2198 1.374 . S
C2200 C2197 1.499 . S
C2200 C2201 1.373 . S
C2200 C2202 1.389 . S
C2201 H2180 0.950 . S
C2201 C2200 1.373 . S
C2201 C2217 1.377 . S
C2202 C2200 1.389 . S
C2202 C2203 1.524 . S
C2202 C2216 1.377 . S
C2203 C2202 1.524 . S
C2203 C2204 1.397 . S
C2203 C2208 1.363 1_455 S
C2204 H2181 0.950 . S
C2204 C2203 1.397 . S
C2204 C2205 1.334 1_455 S
C2205 H2182 0.950 . S
C2205 C2204 1.334 1_655 S
C2205 C2206 1.287 . S
C2206 C2205 1.287 . S
C2206 C2207 1.524 . S
C2206 H2225 0.913 . S
C2207 H2183 0.950 . S
C2207 C2206 1.524 . S
C2207 C2208 1.415 . S
C2208 H2184 0.950 . S
C2208 C2203 1.363 1_655 S
C2208 C2207 1.415 . S
C2209 H2185 0.951 . S
C2209 C2210 1.366 . S
C2209 C2211 1.388 . S
C2210 C2209 1.366 . S
C2210 C2214 1.385 . S
C2211 H2186 0.951 . S
C2211 C2209 1.388 . S
C2211 C2212 1.366 . S
C2212 C2211 1.366 . S
C2212 C2213 1.414 . S
C2212 C2215 1.499 . S
C2213 H2187 0.950 . S
C2213 C2212 1.414 . S
C2213 C2214 1.374 . S
C2214 H2188 0.950 . S
C2214 C2210 1.385 . S
C2214 C2213 1.374 . S
C2215 C2212 1.499 . S
C2215 C2216 1.373 . S
C2215 C2217 1.389 . S
C2216 H2189 0.950 . S
C2216 C2202 1.377 . S
C2216 C2215 1.373 . S
C2217 C2201 1.377 . S
C2217 C2215 1.389 . S
C2217 C2218 1.524 . S
C2218 C2217 1.524 . S
C2218 C2219 1.397 . S
C2218 C2223 1.363 . S
C2219 H2190 0.950 . S
C2219 C2218 1.397 . S
C2219 C2220 1.334 . S
C2220 H2191 0.950 . S
C2220 C2219 1.334 . S
C2220 C2221 1.287 . S
C2221 C2220 1.287 . S
C2221 C2222 1.524 . S
C2221 H2224 0.999 . S
C2222 H2192 0.950 . S
C2222 C2221 1.524 . S
C2222 C2223 1.415 . S
C2223 H2193 0.950 . S
C2223 C2218 1.363 . S
C2223 C2222 1.415 . S
H2224 C2221 0.999 . S
H2225 C2206 0.913 . S
H2226 C2244 0.951 . S
H2227 C2246 0.951 . S
H2228 C2248 0.950 . S
H2229 C2249 0.950 . S
H2230 C2251 0.950 . S
H2231 C2254 0.950 . S
H2232 C2255 0.950 . S
H2233 C2257 0.950 . S
H2234 C2258 0.950 . S
H2235 C2259 0.951 . S
H2236 C2261 0.951 . S
H2237 C2263 0.950 . S
H2238 C2264 0.950 . S
H2239 C2266 0.950 . S
H2240 C2269 0.950 . S
H2241 C2270 0.950 . S
H2242 C2272 0.950 . S
H2243 C2273 0.950 . S
C2244 H2226 0.951 . S
C2244 C2245 1.366 . S
C2244 C2246 1.388 . S
C2245 C2244 1.366 . S
C2245 C2249 1.385 . S
C2246 H2227 0.951 . S
C2246 C2244 1.388 . S
C2246 C2247 1.366 . S
C2247 C2246 1.366 . S
C2247 C2248 1.414 . S
C2247 C2250 1.499 . S
C2248 H2228 0.950 . S
C2248 C2247 1.414 . S
C2248 C2249 1.374 . S
C2249 H2229 0.950 . S
C2249 C2245 1.385 . S
C2249 C2248 1.374 . S
C2250 C2247 1.499 . S
C2250 C2251 1.373 . S
C2250 C2252 1.389 . S
C2251 H2230 0.950 . S
C2251 C2250 1.373 . S
C2251 C2267 1.377 . S
C2252 C2250 1.389 . S
C2252 C2253 1.524 . S
C2252 C2266 1.377 . S
C2253 C2252 1.524 . S
C2253 C2254 1.397 . S
C2253 C2258 1.363 . S
C2254 H2231 0.950 . S
C2254 C2253 1.397 . S
C2254 C2255 1.334 . S
C2255 H2232 0.950 . S
C2255 C2254 1.334 . S
C2255 C2256 1.287 . S
C2256 C2255 1.287 . S
C2256 C2257 1.524 . S
C2256 H2275 0.913 . S
C2257 H2233 0.950 . S
C2257 C2256 1.524 . S
C2257 C2258 1.415 . S
C2258 H2234 0.950 . S
C2258 C2253 1.363 . S
C2258 C2257 1.415 . S
C2259 H2235 0.951 . S
C2259 C2260 1.366 . S
C2259 C2261 1.388 . S
C2260 C2259 1.366 . S
C2260 C2264 1.385 . S
C2261 H2236 0.951 . S
C2261 C2259 1.388 . S
C2261 C2262 1.366 . S
C2262 C2261 1.366 . S
C2262 C2263 1.414 . S
C2262 C2265 1.499 . S
C2263 H2237 0.950 . S
C2263 C2262 1.414 . S
C2263 C2264 1.374 . S
C2264 H2238 0.950 . S
C2264 C2260 1.385 . S
C2264 C2263 1.374 . S
C2265 C2262 1.499 . S
C2265 C2266 1.373 . S
C2265 C2267 1.389 . S
C2266 H2239 0.950 . S
C2266 C2252 1.377 . S
C2266 C2265 1.373 . S
C2267 C2251 1.377 . S
C2267 C2265 1.389 . S
C2267 C2268 1.524 . S
C2268 C2267 1.524 . S
C2268 C2269 1.397 . S
C2268 C2273 1.363 . S
C2269 H2240 0.950 . S
C2269 C2268 1.397 . S
C2269 C2270 1.334 . S
C2270 H2241 0.950 . S
C2270 C2269 1.334 . S
C2270 C2271 1.287 . S
C2271 C2270 1.287 . S
C2271 C2272 1.524 . S
C2271 H2274 0.999 . S
C2272 H2242 0.950 . S
C2272 C2271 1.524 . S
C2272 C2273 1.415 . S
C2273 H2243 0.950 . S
C2273 C2268 1.363 . S
C2273 C2272 1.415 . S
H2274 C2271 0.999 . S
H2275 C2256 0.913 . S
H2276 C2294 0.951 . S
H2277 C2296 0.951 . S
H2278 C2298 0.950 . S
H2279 C2299 0.950 . S
H2280 C2301 0.950 . S
H2281 C2304 0.950 . S
H2282 C2305 0.950 . S
H2283 C2307 0.950 . S
H2284 C2308 0.950 . S
H2285 C2309 0.951 . S
H2286 C2311 0.951 . S
H2287 C2313 0.950 . S
H2288 C2314 0.950 . S
H2289 C2316 0.950 . S
H2290 C2319 0.950 . S
H2291 C2320 0.950 . S
H2292 C2322 0.950 . S
H2293 C2323 0.950 . S
C2294 H2276 0.951 . S
C2294 C2295 1.366 . S
C2294 C2296 1.388 . S
C2295 C2294 1.366 . S
C2295 C2299 1.385 . S
C2296 H2277 0.951 . S
C2296 C2294 1.388 . S
C2296 C2297 1.366 . S
C2297 C2296 1.366 . S
C2297 C2298 1.414 . S
C2297 C2300 1.499 . S
C2298 H2278 0.950 . S
C2298 C2297 1.414 . S
C2298 C2299 1.374 . S
C2299 H2279 0.950 . S
C2299 C2295 1.385 . S
C2299 C2298 1.374 . S
C2300 C2297 1.499 . S
C2300 C2301 1.373 . S
C2300 C2302 1.389 . S
C2301 H2280 0.950 . S
C2301 C2300 1.373 . S
C2301 C2317 1.377 . S
C2302 C2300 1.389 . S
C2302 C2303 1.524 . S
C2302 C2316 1.377 . S
C2303 C2302 1.524 . S
C2303 C2304 1.397 . S
C2303 C2308 1.363 . S
C2304 H2281 0.950 . S
C2304 C2303 1.397 . S
C2304 C2305 1.334 . S
C2305 H2282 0.950 . S
C2305 C2304 1.334 . S
C2305 C2306 1.287 . S
C2306 C2305 1.287 . S
C2306 C2307 1.524 . S
C2306 H2325 0.913 . S
C2307 H2283 0.950 . S
C2307 C2306 1.524 . S
C2307 C2308 1.415 . S
C2308 H2284 0.950 . S
C2308 C2303 1.363 . S
C2308 C2307 1.415 . S
C2309 H2285 0.951 . S
C2309 C2310 1.366 . S
C2309 C2311 1.388 . S
C2310 C2309 1.366 . S
C2310 C2314 1.385 . S
C2311 H2286 0.951 . S
C2311 C2309 1.388 . S
C2311 C2312 1.366 . S
C2312 C2311 1.366 . S
C2312 C2313 1.414 . S
C2312 C2315 1.499 . S
C2313 H2287 0.950 . S
C2313 C2312 1.414 . S
C2313 C2314 1.374 . S
C2314 H2288 0.950 . S
C2314 C2310 1.385 . S
C2314 C2313 1.374 . S
C2315 C2312 1.499 . S
C2315 C2316 1.373 . S
C2315 C2317 1.389 . S
C2316 H2289 0.950 . S
C2316 C2302 1.377 . S
C2316 C2315 1.373 . S
C2317 C2301 1.377 . S
C2317 C2315 1.389 . S
C2317 C2318 1.524 . S
C2318 C2317 1.524 . S
C2318 C2319 1.397 . S
C2318 C2323 1.363 . S
C2319 H2290 0.950 . S
C2319 C2318 1.397 . S
C2319 C2320 1.334 . S
C2320 H2291 0.950 . S
C2320 C2319 1.334 . S
C2320 C2321 1.287 . S
C2321 C2320 1.287 . S
C2321 C2322 1.524 . S
C2321 H2324 0.999 . S
C2322 H2292 0.950 . S
C2322 C2321 1.524 . S
C2322 C2323 1.415 . S
C2323 H2293 0.950 . S
C2323 C2318 1.363 . S
C2323 C2322 1.415 . S
H2324 C2321 0.999 . S
H2325 C2306 0.913 . S
H2326 C2344 0.951 . S
H2327 C2346 0.951 . S
H2328 C2348 0.950 . S
H2329 C2349 0.950 . S
H2330 C2351 0.950 . S
H2331 C2354 0.950 . S
H2332 C2355 0.950 . S
H2333 C2357 0.950 . S
H2334 C2358 0.950 . S
H2335 C2359 0.951 . S
H2336 C2361 0.951 . S
H2337 C2363 0.950 . S
H2338 C2364 0.950 . S
H2339 C2366 0.950 . S
H2340 C2369 0.950 . S
H2341 C2370 0.950 . S
H2342 C2372 0.950 . S
H2343 C2373 0.950 . S
C2344 H2326 0.951 . S
C2344 C2345 1.366 . S
C2344 C2346 1.388 . S
C2345 C2344 1.366 . S
C2345 C2349 1.385 . S
C2346 H2327 0.951 . S
C2346 C2344 1.388 . S
C2346 C2347 1.366 . S
C2347 C2346 1.366 . S
C2347 C2348 1.414 . S
C2347 C2350 1.499 . S
C2348 H2328 0.950 . S
C2348 C2347 1.414 . S
C2348 C2349 1.374 . S
C2349 H2329 0.950 . S
C2349 C2345 1.385 . S
C2349 C2348 1.374 . S
C2350 C2347 1.499 . S
C2350 C2351 1.373 . S
C2350 C2352 1.389 . S
C2351 H2330 0.950 . S
C2351 C2350 1.373 . S
C2351 C2367 1.377 . S
C2352 C2350 1.389 . S
C2352 C2353 1.524 . S
C2352 C2366 1.377 . S
C2353 C2352 1.524 . S
C2353 C2354 1.397 . S
C2353 C2358 1.363 . S
C2354 H2331 0.950 . S
C2354 C2353 1.397 . S
C2354 C2355 1.334 . S
C2355 H2332 0.950 . S
C2355 C2354 1.334 . S
C2355 C2356 1.287 . S
C2356 C2355 1.287 . S
C2356 C2357 1.524 . S
C2356 H2375 0.913 . S
C2357 H2333 0.950 . S
C2357 C2356 1.524 . S
C2357 C2358 1.415 . S
C2358 H2334 0.950 . S
C2358 C2353 1.363 . S
C2358 C2357 1.415 . S
C2359 H2335 0.951 . S
C2359 C2360 1.366 . S
C2359 C2361 1.388 . S
C2360 C2359 1.366 . S
C2360 C2364 1.385 . S
C2361 H2336 0.951 . S
C2361 C2359 1.388 . S
C2361 C2362 1.366 . S
C2362 C2361 1.366 . S
C2362 C2363 1.414 . S
C2362 C2365 1.499 . S
C2363 H2337 0.950 . S
C2363 C2362 1.414 . S
C2363 C2364 1.374 . S
C2364 H2338 0.950 . S
C2364 C2360 1.385 . S
C2364 C2363 1.374 . S
C2365 C2362 1.499 . S
C2365 C2366 1.373 . S
C2365 C2367 1.389 . S
C2366 H2339 0.950 . S
C2366 C2352 1.377 . S
C2366 C2365 1.373 . S
C2367 C2351 1.377 . S
C2367 C2365 1.389 . S
C2367 C2368 1.524 . S
C2368 C2367 1.524 . S
C2368 C2369 1.397 . S
C2368 C2373 1.363 . S
C2369 H2340 0.950 . S
C2369 C2368 1.397 . S
C2369 C2370 1.334 . S
C2370 H2341 0.950 . S
C2370 C2369 1.334 . S
C2370 C2371 1.287 . S
C2371 C2370 1.287 . S
C2371 C2372 1.524 . S
C2371 H2374 0.999 . S
C2372 H2342 0.950 . S
C2372 C2371 1.524 . S
C2372 C2373 1.415 . S
C2373 H2343 0.950 . S
C2373 C2368 1.363 . S
C2373 C2372 1.415 . S
H2374 C2371 0.999 . S
H2375 C2356 0.913 . S
H2376 C2394 0.951 . S
H2377 C2396 0.951 . S
H2378 C2398 0.950 . S
H2379 C2399 0.950 . S
H2380 C2401 0.950 . S
H2381 C2404 0.950 . S
H2382 C2405 0.950 . S
H2383 C2407 0.950 . S
H2384 C2408 0.950 . S
H2385 C2409 0.951 . S
H2386 C2411 0.951 . S
H2387 C2413 0.950 . S
H2388 C2414 0.950 . S
H2389 C2416 0.950 . S
H2390 C2419 0.950 . S
H2391 C2420 0.950 . S
H2392 C2422 0.950 . S
H2393 C2423 0.950 . S
C2394 H2376 0.951 . S
C2394 C2395 1.354 1_655 S
C2394 C2396 1.388 . S
C2395 C2394 1.354 1_455 S
C2395 C2399 1.403 . S
C2396 H2377 0.951 . S
C2396 C2394 1.388 . S
C2396 C2397 1.350 1_655 S
C2397 C2396 1.350 1_455 S
C2397 C2398 1.428 . S
C2397 C2400 1.506 . S
C2398 H2378 0.950 . S
C2398 C2397 1.428 . S
C2398 C2399 1.374 . S
C2399 H2379 0.950 . S
C2399 C2395 1.403 . S
C2399 C2398 1.374 . S
C2400 C2397 1.506 . S
C2400 C2401 1.373 . S
C2400 C2402 1.389 1_455 S
C2401 H2380 0.950 . S
C2401 C2400 1.373 . S
C2401 C2417 1.377 . S
C2402 C2400 1.389 1_655 S
C2402 C2403 1.524 . S
C2402 C2416 1.377 . S
C2403 C2402 1.524 . S
C2403 C2404 1.397 . S
C2403 C2408 1.363 . S
C2404 H2381 0.950 . S
C2404 C2403 1.397 . S
C2404 C2405 1.334 . S
C2405 H2382 0.950 . S
C2405 C2404 1.334 . S
C2405 C2406 1.287 . S
C2406 C2405 1.287 . S
C2406 C2407 1.524 . S
C2406 H2425 0.913 . S
C2407 H2383 0.950 . S
C2407 C2406 1.524 . S
C2407 C2408 1.415 . S
C2408 H2384 0.950 . S
C2408 C2403 1.363 . S
C2408 C2407 1.415 . S
C2409 H2385 0.951 . S
C2409 C2410 1.366 . S
C2409 C2411 1.388 . S
C2410 C2409 1.366 . S
C2410 C2414 1.385 1_455 S
C2411 H2386 0.951 . S
C2411 C2409 1.388 . S
C2411 C2412 1.366 . S
C2412 C2411 1.366 . S
C2412 C2413 1.414 1_455 S
C2412 C2415 1.499 . S
C2413 H2387 0.950 . S
C2413 C2412 1.414 1_655 S
C2413 C2414 1.374 . S
C2414 H2388 0.950 . S
C2414 C2410 1.385 1_655 S
C2414 C2413 1.374 . S
C2415 C2412 1.499 . S
C2415 C2416 1.373 1_455 S
C2415 C2417 1.389 . S
C2416 H2389 0.950 . S
C2416 C2402 1.377 . S
C2416 C2415 1.373 1_655 S
C2417 C2401 1.377 . S
C2417 C2415 1.389 . S
C2417 C2418 1.524 . S
C2418 C2417 1.524 . S
C2418 C2419 1.397 . S
C2418 C2423 1.363 . S
C2419 H2390 0.950 . S
C2419 C2418 1.397 . S
C2419 C2420 1.334 . S
C2420 H2391 0.950 . S
C2420 C2419 1.334 . S
C2420 C2421 1.287 . S
C2421 C2420 1.287 . S
C2421 C2422 1.524 . S
C2421 H2424 0.999 . S
C2422 H2392 0.950 . S
C2422 C2421 1.524 . S
C2422 C2423 1.415 . S
C2423 H2393 0.950 . S
C2423 C2418 1.363 . S
C2423 C2422 1.415 . S
H2424 C2421 0.999 . S
H2425 C2406 0.913 . S
H2426 C2444 0.951 . S
H2427 C2446 0.951 . S
H2428 C2448 0.950 . S
H2429 C2449 0.950 . S
H2430 C2451 0.950 . S
H2431 C2454 0.950 . S
H2432 C2455 0.950 . S
H2433 C2457 0.950 . S
H2434 C2458 0.950 . S
H2435 C2459 0.951 . S
H2436 C2461 0.951 . S
H2437 C2463 0.950 . S
H2438 C2464 0.950 . S
H2439 C2466 0.950 . S
H2440 C2469 0.950 . S
H2441 C2470 0.950 . S
H2442 C2472 0.950 . S
H2443 C2473 0.950 . S
C2444 H2426 0.951 . S
C2444 C2445 1.366 . S
C2444 C2446 1.388 . S
C2445 C2444 1.366 . S
C2445 C2449 1.385 . S
C2446 H2427 0.951 . S
C2446 C2444 1.388 . S
C2446 C2447 1.366 . S
C2447 C2446 1.366 . S
C2447 C2448 1.414 . S
C2447 C2450 1.499 . S
C2448 H2428 0.950 . S
C2448 C2447 1.414 . S
C2448 C2449 1.374 . S
C2449 H2429 0.950 . S
C2449 C2445 1.385 . S
C2449 C2448 1.374 . S
C2450 C2447 1.499 . S
C2450 C2451 1.373 . S
C2450 C2452 1.389 . S
C2451 H2430 0.950 . S
C2451 C2450 1.373 . S
C2451 C2467 1.377 . S
C2452 C2450 1.389 . S
C2452 C2453 1.524 . S
C2452 C2466 1.377 . S
C2453 C2452 1.524 . S
C2453 C2454 1.397 . S
C2453 C2458 1.363 . S
C2454 H2431 0.950 . S
C2454 C2453 1.397 . S
C2454 C2455 1.334 . S
C2455 H2432 0.950 . S
C2455 C2454 1.334 . S
C2455 C2456 1.287 . S
C2456 C2455 1.287 . S
C2456 C2457 1.524 . S
C2456 H2475 0.913 . S
C2457 H2433 0.950 . S
C2457 C2456 1.524 . S
C2457 C2458 1.415 . S
C2458 H2434 0.950 . S
C2458 C2453 1.363 . S
C2458 C2457 1.415 . S
C2459 H2435 0.951 . S
C2459 C2460 1.366 . S
C2459 C2461 1.388 . S
C2460 C2459 1.366 . S
C2460 C2464 1.385 . S
C2461 H2436 0.951 . S
C2461 C2459 1.388 . S
C2461 C2462 1.366 . S
C2462 C2461 1.366 . S
C2462 C2463 1.414 . S
C2462 C2465 1.499 . S
C2463 H2437 0.950 . S
C2463 C2462 1.414 . S
C2463 C2464 1.374 . S
C2464 H2438 0.950 . S
C2464 C2460 1.385 . S
C2464 C2463 1.374 . S
C2465 C2462 1.499 . S
C2465 C2466 1.373 . S
C2465 C2467 1.389 . S
C2466 H2439 0.950 . S
C2466 C2452 1.377 . S
C2466 C2465 1.373 . S
C2467 C2451 1.377 . S
C2467 C2465 1.389 . S
C2467 C2468 1.524 . S
C2468 C2467 1.524 . S
C2468 C2469 1.397 . S
C2468 C2473 1.363 . S
C2469 H2440 0.950 . S
C2469 C2468 1.397 . S
C2469 C2470 1.334 . S
C2470 H2441 0.950 . S
C2470 C2469 1.334 . S
C2470 C2471 1.287 . S
C2471 C2470 1.287 . S
C2471 C2472 1.524 . S
C2471 H2474 0.999 . S
C2472 H2442 0.950 . S
C2472 C2471 1.524 . S
C2472 C2473 1.415 . S
C2473 H2443 0.950 . S
C2473 C2468 1.363 . S
C2473 C2472 1.415 . S
H2474 C2471 0.999 . S
H2475 C2456 0.913 . S
H2476 C2494 0.951 . S
H2477 C2496 0.951 . S
H2478 C2498 0.950 . S
H2479 C2499 0.950 . S
H2480 C2501 0.950 . S
H2481 C2504 0.950 . S
H2482 C2505 0.950 . S
H2483 C2507 0.950 . S
H2484 C2508 0.950 . S
H2485 C2509 0.937 1_554 S
H2486 C2511 0.951 . S
H2487 C2513 0.950 . S
H2488 C2514 0.950 . S
H2489 C2516 0.950 . S
H2490 C2519 0.950 . S
H2491 C2520 0.950 . S
H2492 C2522 0.950 . S
H2493 C2523 0.950 . S
C2494 H2476 0.951 . S
C2494 C2495 1.366 . S
C2494 C2496 1.388 . S
C2495 C2494 1.366 . S
C2495 C2499 1.385 . S
C2496 H2477 0.951 . S
C2496 C2494 1.388 . S
C2496 C2497 1.366 . S
C2497 C2496 1.366 . S
C2497 C2498 1.414 . S
C2497 C2500 1.499 . S
C2498 H2478 0.950 . S
C2498 C2497 1.414 . S
C2498 C2499 1.374 . S
C2499 H2479 0.950 . S
C2499 C2495 1.385 . S
C2499 C2498 1.374 . S
C2500 C2497 1.499 . S
C2500 C2501 1.373 . S
C2500 C2502 1.389 . S
C2501 H2480 0.950 . S
C2501 C2500 1.373 . S
C2501 C2517 1.377 . S
C2502 C2500 1.389 . S
C2502 C2503 1.524 . S
C2502 C2516 1.377 . S
C2503 C2502 1.524 . S
C2503 C2504 1.397 . S
C2503 C2508 1.363 . S
C2504 H2481 0.950 . S
C2504 C2503 1.397 . S
C2504 C2505 1.334 . S
C2505 H2482 0.950 . S
C2505 C2504 1.334 . S
C2505 C2506 1.287 . S
C2506 C2505 1.287 . S
C2506 C2507 1.524 . S
C2506 H2525 0.913 . S
C2507 H2483 0.950 . S
C2507 C2506 1.524 . S
C2507 C2508 1.415 . S
C2508 H2484 0.950 . S
C2508 C2503 1.363 . S
C2508 C2507 1.415 . S
C2509 H2485 0.937 1_556 S
C2509 C2510 1.366 1_556 S
C2509 C2511 1.388 . S
C2510 C2509 1.366 1_554 S
C2510 C2514 1.385 1_554 S
C2511 H2486 0.951 . S
C2511 C2509 1.388 . S
C2511 C2512 1.366 . S
C2512 C2511 1.366 . S
C2512 C2513 1.414 . S
C2512 C2515 1.499 . S
C2513 H2487 0.950 . S
C2513 C2512 1.414 . S
C2513 C2514 1.374 . S
C2514 H2488 0.950 . S
C2514 C2510 1.385 1_556 S
C2514 C2513 1.374 . S
C2515 C2512 1.499 . S
C2515 C2516 1.373 . S
C2515 C2517 1.389 . S
C2516 H2489 0.950 . S
C2516 C2502 1.377 . S
C2516 C2515 1.373 . S
C2517 C2501 1.377 . S
C2517 C2515 1.389 . S
C2517 C2518 1.524 . S
C2518 C2517 1.524 . S
C2518 C2519 1.397 . S
C2518 C2523 1.363 . S
C2519 H2490 0.950 . S
C2519 C2518 1.397 . S
C2519 C2520 1.334 . S
C2520 H2491 0.950 . S
C2520 C2519 1.334 . S
C2520 C2521 1.287 . S
C2521 C2520 1.287 . S
C2521 C2522 1.524 . S
C2521 H2524 0.999 . S
C2522 H2492 0.950 . S
C2522 C2521 1.524 . S
C2522 C2523 1.415 . S
C2523 H2493 0.950 . S
C2523 C2518 1.363 . S
C2523 C2522 1.415 . S
H2524 C2521 0.999 . S
H2525 C2506 0.913 . S
H2526 C2544 0.951 . S
H2527 C2546 0.951 . S
H2528 C2548 0.950 . S
H2529 C2549 0.950 . S
H2530 C2551 0.950 . S
H2531 C2554 0.950 . S
H2532 C2555 0.950 . S
H2533 C2557 0.950 . S
H2534 C2558 0.950 . S
H2535 C2559 0.951 . S
H2536 C2561 0.951 . S
H2537 C2563 0.950 . S
H2538 C2564 0.950 . S
H2539 C2566 0.950 . S
H2540 C2569 0.950 . S
H2541 C2570 0.950 . S
H2542 C2572 0.950 . S
H2543 C2573 0.950 . S
C2544 H2526 0.951 . S
C2544 C2545 1.366 . S
C2544 C2546 1.388 1_455 S
C2545 C2544 1.366 . S
C2545 C2549 1.385 . S
C2546 H2527 0.951 . S
C2546 C2544 1.388 1_655 S
C2546 C2547 1.366 . S
C2547 C2546 1.366 . S
C2547 C2548 1.414 . S
C2547 C2550 1.499 . S
C2548 H2528 0.950 . S
C2548 C2547 1.414 . S
C2548 C2549 1.374 1_655 S
C2549 H2529 0.950 . S
C2549 C2545 1.385 . S
C2549 C2548 1.374 1_455 S
C2550 C2547 1.499 . S
C2550 C2551 1.373 . S
C2550 C2552 1.389 . S
C2551 H2530 0.950 . S
C2551 C2550 1.373 . S
C2551 C2567 1.377 . S
C2552 C2550 1.389 . S
C2552 C2553 1.524 . S
C2552 C2566 1.377 . S
C2553 C2552 1.524 . S
C2553 C2554 1.397 . S
C2553 C2558 1.363 . S
C2554 H2531 0.950 . S
C2554 C2553 1.397 . S
C2554 C2555 1.334 1_655 S
C2555 H2532 0.950 . S
C2555 C2554 1.334 1_455 S
C2555 C2556 1.279 1_455 S
C2556 C2555 1.279 1_655 S
C2556 C2557 1.540 . S
C2556 H2575 0.903 1_655 S
C2557 H2533 0.950 . S
C2557 C2556 1.540 . S
C2557 C2558 1.415 . S
C2558 H2534 0.950 . S
C2558 C2553 1.363 . S
C2558 C2557 1.415 . S
C2559 H2535 0.951 . S
C2559 C2560 1.366 . S
C2559 C2561 1.388 . S
C2560 C2559 1.366 . S
C2560 C2564 1.385 . S
C2561 H2536 0.951 . S
C2561 C2559 1.388 . S
C2561 C2562 1.366 . S
C2562 C2561 1.366 . S
C2562 C2563 1.414 . S
C2562 C2565 1.499 . S
C2563 H2537 0.950 . S
C2563 C2562 1.414 . S
C2563 C2564 1.374 . S
C2564 H2538 0.950 . S
C2564 C2560 1.385 . S
C2564 C2563 1.374 . S
C2565 C2562 1.499 . S
C2565 C2566 1.373 . S
C2565 C2567 1.389 . S
C2566 H2539 0.950 . S
C2566 C2552 1.377 . S
C2566 C2565 1.373 . S
C2567 C2551 1.377 . S
C2567 C2565 1.389 . S
C2567 C2568 1.524 . S
C2568 C2567 1.524 . S
C2568 C2569 1.397 . S
C2568 C2573 1.363 . S
C2569 H2540 0.950 . S
C2569 C2568 1.397 . S
C2569 C2570 1.334 . S
C2570 H2541 0.950 . S
C2570 C2569 1.334 . S
C2570 C2571 1.287 . S
C2571 C2570 1.287 . S
C2571 C2572 1.524 . S
C2571 H2574 0.999 . S
C2572 H2542 0.950 . S
C2572 C2571 1.524 . S
C2572 C2573 1.415 . S
C2573 H2543 0.950 . S
C2573 C2568 1.363 . S
C2573 C2572 1.415 . S
H2574 C2571 0.999 . S
H2575 C2556 0.903 1_455 S
H2576 C2594 0.951 . S
H2577 C2596 0.951 . S
H2578 C2598 0.950 . S
H2579 C2599 0.950 . S
H2580 C2601 0.950 . S
H2581 C2604 0.950 . S
H2582 C2605 0.950 . S
H2583 C2607 0.950 . S
H2584 C2608 0.950 . S
H2585 C2609 0.951 . S
H2586 C2611 0.951 . S
H2587 C2613 0.950 . S
H2588 C2614 0.950 . S
H2589 C2616 0.950 1_565 S
H2590 C2619 0.950 . S
H2591 C2620 0.950 . S
H2592 C2622 0.950 . S
H2593 C2623 0.950 . S
C2594 H2576 0.951 . S
C2594 C2595 1.366 . S
C2594 C2596 1.388 . S
C2595 C2594 1.366 . S
C2595 C2599 1.385 . S
C2596 H2577 0.951 . S
C2596 C2594 1.388 . S
C2596 C2597 1.366 . S
C2597 C2596 1.366 . S
C2597 C2598 1.414 . S
C2597 C2600 1.499 . S
C2598 H2578 0.950 . S
C2598 C2597 1.414 . S
C2598 C2599 1.374 . S
C2599 H2579 0.950 . S
C2599 C2595 1.385 . S
C2599 C2598 1.374 . S
C2600 C2597 1.499 . S
C2600 C2601 1.373 . S
C2600 C2602 1.389 . S
C2601 H2580 0.950 . S
C2601 C2600 1.373 . S
C2601 C2617 1.377 . S
C2602 C2600 1.389 . S
C2602 C2603 1.524 1_545 S
C2602 C2616 1.377 . S
C2603 C2602 1.524 1_565 S
C2603 C2604 1.397 . S
C2603 C2608 1.363 . S
C2604 H2581 0.950 . S
C2604 C2603 1.397 . S
C2604 C2605 1.334 . S
C2605 H2582 0.950 . S
C2605 C2604 1.334 . S
C2605 C2606 1.287 . S
C2606 C2605 1.287 . S
C2606 C2607 1.524 . S
C2606 H2625 0.913 . S
C2607 H2583 0.950 . S
C2607 C2606 1.524 . S
C2607 C2608 1.415 . S
C2608 H2584 0.950 . S
C2608 C2603 1.363 . S
C2608 C2607 1.415 . S
C2609 H2585 0.951 . S
C2609 C2610 1.366 . S
C2609 C2611 1.388 . S
C2610 C2609 1.366 . S
C2610 C2614 1.385 . S
C2611 H2586 0.951 . S
C2611 C2609 1.388 . S
C2611 C2612 1.366 . S
C2612 C2611 1.366 . S
C2612 C2613 1.414 . S
C2612 C2615 1.499 . S
C2613 H2587 0.950 . S
C2613 C2612 1.414 . S
C2613 C2614 1.374 . S
C2614 H2588 0.950 . S
C2614 C2610 1.385 . S
C2614 C2613 1.374 . S
C2615 C2612 1.499 . S
C2615 C2616 1.373 . S
C2615 C2617 1.389 . S
C2616 H2589 0.950 1_545 S
C2616 C2602 1.377 . S
C2616 C2615 1.373 . S
C2617 C2601 1.377 . S
C2617 C2615 1.389 . S
C2617 C2618 1.524 . S
C2618 C2617 1.524 . S
C2618 C2619 1.397 . S
C2618 C2623 1.363 . S
C2619 H2590 0.950 . S
C2619 C2618 1.397 . S
C2619 C2620 1.334 . S
C2620 H2591 0.950 . S
C2620 C2619 1.334 . S
C2620 C2621 1.287 . S
C2621 C2620 1.287 . S
C2621 C2622 1.524 . S
C2621 H2624 0.999 . S
C2622 H2592 0.950 . S
C2622 C2621 1.524 . S
C2622 C2623 1.415 . S
C2623 H2593 0.950 . S
C2623 C2618 1.363 . S
C2623 C2622 1.415 . S
H2624 C2621 0.999 . S
H2625 C2606 0.913 . S
H2626 C2644 0.951 . S
H2627 C2646 0.951 . S
H2628 C2648 0.950 . S
H2629 C2649 0.950 . S
H2630 C2651 0.950 . S
H2631 C2654 0.950 . S
H2632 C2655 0.950 . S
H2633 C2657 0.950 . S
H2634 C2658 0.950 . S
H2635 C2659 0.951 . S
H2636 C2661 0.951 . S
H2637 C2663 0.950 . S
H2638 C2664 0.950 . S
H2639 C2666 0.950 . S
H2640 C2669 0.950 . S
H2641 C2670 0.950 . S
H2642 C2672 0.950 . S
H2643 C2673 0.950 . S
C2644 H2626 0.951 . S
C2644 C2645 1.366 . S
C2644 C2646 1.388 . S
C2645 C2644 1.366 . S
C2645 C2649 1.385 . S
C2646 H2627 0.951 . S
C2646 C2644 1.388 . S
C2646 C2647 1.366 . S
C2647 C2646 1.366 . S
C2647 C2648 1.414 . S
C2647 C2650 1.499 . S
C2648 H2628 0.950 . S
C2648 C2647 1.414 . S
C2648 C2649 1.374 . S
C2649 H2629 0.950 . S
C2649 C2645 1.385 . S
C2649 C2648 1.374 . S
C2650 C2647 1.499 . S
C2650 C2651 1.373 . S
C2650 C2652 1.389 . S
C2651 H2630 0.950 . S
C2651 C2650 1.373 . S
C2651 C2667 1.377 . S
C2652 C2650 1.389 . S
C2652 C2653 1.524 . S
C2652 C2666 1.377 . S
C2653 C2652 1.524 . S
C2653 C2654 1.397 . S
C2653 C2658 1.363 . S
C2654 H2631 0.950 . S
C2654 C2653 1.397 . S
C2654 C2655 1.334 . S
C2655 H2632 0.950 . S
C2655 C2654 1.334 . S
C2655 C2656 1.287 . S
C2656 C2655 1.287 . S
C2656 C2657 1.524 . S
C2656 H2675 0.913 . S
C2657 H2633 0.950 . S
C2657 C2656 1.524 . S
C2657 C2658 1.415 . S
C2658 H2634 0.950 . S
C2658 C2653 1.363 . S
C2658 C2657 1.415 . S
C2659 H2635 0.951 . S
C2659 C2660 1.366 . S
C2659 C2661 1.388 . S
C2660 C2659 1.366 . S
C2660 C2664 1.385 . S
C2661 H2636 0.951 . S
C2661 C2659 1.388 . S
C2661 C2662 1.366 . S
C2662 C2661 1.366 . S
C2662 C2663 1.414 . S
C2662 C2665 1.499 . S
C2663 H2637 0.950 . S
C2663 C2662 1.414 . S
C2663 C2664 1.374 . S
C2664 H2638 0.950 . S
C2664 C2660 1.385 . S
C2664 C2663 1.374 . S
C2665 C2662 1.499 . S
C2665 C2666 1.373 . S
C2665 C2667 1.389 . S
C2666 H2639 0.950 . S
C2666 C2652 1.377 . S
C2666 C2665 1.373 . S
C2667 C2651 1.377 . S
C2667 C2665 1.389 . S
C2667 C2668 1.524 . S
C2668 C2667 1.524 . S
C2668 C2669 1.397 . S
C2668 C2673 1.363 . S
C2669 H2640 0.950 . S
C2669 C2668 1.397 . S
C2669 C2670 1.334 . S
C2670 H2641 0.950 . S
C2670 C2669 1.334 . S
C2670 C2671 1.287 . S
C2671 C2670 1.287 . S
C2671 C2672 1.524 . S
C2671 H2674 0.999 . S
C2672 H2642 0.950 . S
C2672 C2671 1.524 . S
C2672 C2673 1.415 . S
C2673 H2643 0.950 . S
C2673 C2668 1.363 . S
C2673 C2672 1.415 . S
H2674 C2671 0.999 . S
H2675 C2656 0.913 . S
H2676 C2694 0.951 . S
H2677 C2696 0.951 . S
H2678 C2698 0.950 . S
H2679 C2699 0.950 . S
H2680 C2701 0.950 . S
H2681 C2704 0.950 . S
H2682 C2705 0.950 . S
H2683 C2707 0.950 . S
H2684 C2708 0.950 . S
H2685 C2709 0.951 . S
H2686 C2711 0.951 . S
H2687 C2713 0.950 . S
H2688 C2714 0.950 . S
H2689 C2716 0.950 1_565 S
H2690 C2719 0.950 . S
H2691 C2720 0.950 . S
H2692 C2722 0.950 . S
H2693 C2723 0.950 . S
C2694 H2676 0.951 . S
C2694 C2695 1.366 . S
C2694 C2696 1.388 . S
C2695 C2694 1.366 . S
C2695 C2699 1.385 . S
C2696 H2677 0.951 . S
C2696 C2694 1.388 . S
C2696 C2697 1.366 . S
C2697 C2696 1.366 . S
C2697 C2698 1.414 . S
C2697 C2700 1.499 . S
C2698 H2678 0.950 . S
C2698 C2697 1.414 . S
C2698 C2699 1.374 . S
C2699 H2679 0.950 . S
C2699 C2695 1.385 . S
C2699 C2698 1.374 . S
C2700 C2697 1.499 . S
C2700 C2701 1.373 . S
C2700 C2702 1.389 . S
C2701 H2680 0.950 . S
C2701 C2700 1.373 . S
C2701 C2717 1.377 . S
C2702 C2700 1.389 . S
C2702 C2703 1.524 1_545 S
C2702 C2716 1.377 . S
C2703 C2702 1.524 1_565 S
C2703 C2704 1.397 . S
C2703 C2708 1.363 . S
C2704 H2681 0.950 . S
C2704 C2703 1.397 . S
C2704 C2705 1.334 . S
C2705 H2682 0.950 . S
C2705 C2704 1.334 . S
C2705 C2706 1.287 . S
C2706 C2705 1.287 . S
C2706 C2707 1.524 . S
C2706 H2725 0.913 . S
C2707 H2683 0.950 . S
C2707 C2706 1.524 . S
C2707 C2708 1.415 . S
C2708 H2684 0.950 . S
C2708 C2703 1.363 . S
C2708 C2707 1.415 . S
C2709 H2685 0.951 . S
C2709 C2710 1.366 . S
C2709 C2711 1.388 . S
C2710 C2709 1.366 . S
C2710 C2714 1.385 . S
C2711 H2686 0.951 . S
C2711 C2709 1.388 . S
C2711 C2712 1.366 . S
C2712 C2711 1.366 . S
C2712 C2713 1.414 . S
C2712 C2715 1.499 . S
C2713 H2687 0.950 . S
C2713 C2712 1.414 . S
C2713 C2714 1.374 . S
C2714 H2688 0.950 . S
C2714 C2710 1.385 . S
C2714 C2713 1.374 . S
C2715 C2712 1.499 . S
C2715 C2716 1.373 . S
C2715 C2717 1.389 . S
C2716 H2689 0.950 1_545 S
C2716 C2702 1.377 . S
C2716 C2715 1.373 . S
C2717 C2701 1.377 . S
C2717 C2715 1.389 . S
C2717 C2718 1.524 . S
C2718 C2717 1.524 . S
C2718 C2719 1.397 . S
C2718 C2723 1.363 . S
C2719 H2690 0.950 . S
C2719 C2718 1.397 . S
C2719 C2720 1.334 . S
C2720 H2691 0.950 . S
C2720 C2719 1.334 . S
C2720 C2721 1.287 . S
C2721 C2720 1.287 . S
C2721 C2722 1.524 . S
C2721 H2724 0.999 . S
C2722 H2692 0.950 . S
C2722 C2721 1.524 . S
C2722 C2723 1.415 . S
C2723 H2693 0.950 . S
C2723 C2718 1.363 . S
C2723 C2722 1.415 . S
H2724 C2721 0.999 . S
H2725 C2706 0.913 . S
H2726 C2744 0.951 . S
H2727 C2746 0.951 . S
H2728 C2748 0.950 . S
H2729 C2749 0.950 . S
H2730 C2751 0.950 . S
H2731 C2754 0.950 . S
H2732 C2755 0.950 . S
H2733 C2757 0.950 . S
H2734 C2758 0.950 . S
H2735 C2759 0.951 . S
H2736 C2761 0.951 . S
H2737 C2763 0.950 . S
H2738 C2764 0.950 . S
H2739 C2766 0.950 . S
H2740 C2769 0.950 . S
H2741 C2770 0.950 . S
H2742 C2772 0.950 . S
H2743 C2773 0.950 . S
C2744 H2726 0.951 . S
C2744 C2745 1.366 . S
C2744 C2746 1.388 . S
C2745 C2744 1.366 . S
C2745 C2749 1.385 . S
C2746 H2727 0.951 . S
C2746 C2744 1.388 . S
C2746 C2747 1.366 . S
C2747 C2746 1.366 . S
C2747 C2748 1.414 . S
C2747 C2750 1.499 . S
C2748 H2728 0.950 . S
C2748 C2747 1.414 . S
C2748 C2749 1.374 . S
C2749 H2729 0.950 . S
C2749 C2745 1.385 . S
C2749 C2748 1.374 . S
C2750 C2747 1.499 . S
C2750 C2751 1.373 . S
C2750 C2752 1.389 . S
C2751 H2730 0.950 . S
C2751 C2750 1.373 . S
C2751 C2767 1.377 . S
C2752 C2750 1.389 . S
C2752 C2753 1.524 . S
C2752 C2766 1.377 . S
C2753 C2752 1.524 . S
C2753 C2754 1.397 . S
C2753 C2758 1.363 . S
C2754 H2731 0.950 . S
C2754 C2753 1.397 . S
C2754 C2755 1.334 . S
C2755 H2732 0.950 . S
C2755 C2754 1.334 . S
C2755 C2756 1.287 . S
C2756 C2755 1.287 . S
C2756 C2757 1.524 . S
C2756 H2775 0.913 . S
C2757 H2733 0.950 . S
C2757 C2756 1.524 . S
C2757 C2758 1.415 . S
C2758 H2734 0.950 . S
C2758 C2753 1.363 . S
C2758 C2757 1.415 . S
C2759 H2735 0.951 . S
C2759 C2760 1.366 . S
C2759 C2761 1.388 . S
C2760 C2759 1.366 . S
C2760 C2764 1.385 . S
C2761 H2736 0.951 . S
C2761 C2759 1.388 . S
C2761 C2762 1.366 . S
C2762 C2761 1.366 . S
C2762 C2763 1.414 . S
C2762 C2765 1.499 . S
C2763 H2737 0.950 . S
C2763 C2762 1.414 . S
C2763 C2764 1.374 . S
C2764 H2738 0.950 . S
C2764 C2760 1.385 . S
C2764 C2763 1.374 . S
C2765 C2762 1.499 . S
C2765 C2766 1.373 . S
C2765 C2767 1.389 . S
C2766 H2739 0.950 . S
C2766 C2752 1.377 . S
C2766 C2765 1.373 . S
C2767 C2751 1.377 . S
C2767 C2765 1.389 . S
C2767 C2768 1.524 . S
C2768 C2767 1.524 . S
C2768 C2769 1.397 . S
C2768 C2773 1.363 . S
C2769 H2740 0.950 . S
C2769 C2768 1.397 . S
C2769 C2770 1.334 . S
C2770 H2741 0.950 . S
C2770 C2769 1.334 . S
C2770 C2771 1.287 . S
C2771 C2770 1.287 . S
C2771 C2772 1.524 . S
C2771 H2774 0.999 . S
C2772 H2742 0.950 . S
C2772 C2771 1.524 . S
C2772 C2773 1.415 . S
C2773 H2743 0.950 . S
C2773 C2768 1.363 . S
C2773 C2772 1.415 . S
H2774 C2771 0.999 . S
H2775 C2756 0.913 . S
H2776 C2794 0.951 . S
H2777 C2796 0.951 . S
H2778 C2798 0.950 1_565 S
H2779 C2799 0.950 1_565 S
H2780 C2801 0.950 1_565 S
H2781 C2804 0.950 . S
H2782 C2805 0.950 . S
H2783 C2807 0.950 . S
H2784 C2808 0.950 . S
H2785 C2809 0.951 . S
H2786 C2811 0.951 . S
H2787 C2813 0.950 . S
H2788 C2814 0.950 . S
H2789 C2816 0.950 . S
H2790 C2819 0.959 . S
H2791 C2820 0.950 . S
H2792 C2822 0.950 . S
H2793 C2823 0.950 . S
C2794 H2776 0.951 . S
C2794 C2795 1.366 . S
C2794 C2796 1.388 . S
C2795 C2794 1.366 . S
C2795 C2799 1.385 . S
C2796 H2777 0.951 . S
C2796 C2794 1.388 . S
C2796 C2797 1.366 . S
C2797 C2796 1.366 . S
C2797 C2798 1.414 . S
C2797 C2800 1.499 . S
C2798 H2778 0.950 1_545 S
C2798 C2797 1.414 . S
C2798 C2799 1.374 . S
C2799 H2779 0.950 1_545 S
C2799 C2795 1.385 . S
C2799 C2798 1.374 . S
C2800 C2797 1.499 . S
C2800 C2801 1.373 . S
C2800 C2802 1.389 . S
C2801 H2780 0.950 1_545 S
C2801 C2800 1.373 . S
C2801 C2817 1.377 . S
C2802 C2800 1.389 . S
C2802 C2803 1.524 . S
C2802 C2816 1.377 . S
C2803 C2802 1.524 . S
C2803 C2804 1.397 . S
C2803 C2808 1.363 . S
C2804 H2781 0.950 . S
C2804 C2803 1.397 . S
C2804 C2805 1.334 . S
C2805 H2782 0.950 . S
C2805 C2804 1.334 . S
C2805 C2806 1.287 . S
C2806 C2805 1.287 . S
C2806 C2807 1.524 . S
C2806 H2825 0.913 . S
C2807 H2783 0.950 . S
C2807 C2806 1.524 . S
C2807 C2808 1.415 . S
C2808 H2784 0.950 . S
C2808 C2803 1.363 . S
C2808 C2807 1.415 . S
C2809 H2785 0.951 . S
C2809 C2810 1.366 1_565 S
C2809 C2811 1.388 . S
C2810 C2809 1.366 1_545 S
C2810 C2814 1.385 . S
C2811 H2786 0.951 . S
C2811 C2809 1.388 . S
C2811 C2812 1.366 1_565 S
C2812 C2811 1.366 1_545 S
C2812 C2813 1.414 . S
C2812 C2815 1.499 . S
C2813 H2787 0.950 . S
C2813 C2812 1.414 . S
C2813 C2814 1.374 . S
C2814 H2788 0.950 . S
C2814 C2810 1.385 . S
C2814 C2813 1.374 . S
C2815 C2812 1.499 . S
C2815 C2816 1.373 . S
C2815 C2817 1.389 . S
C2816 H2789 0.950 . S
C2816 C2802 1.377 . S
C2816 C2815 1.373 . S
C2817 C2801 1.377 . S
C2817 C2815 1.389 . S
C2817 C2818 1.524 1_545 S
C2818 C2817 1.524 1_565 S
C2818 C2819 1.392 1_565 S
C2818 C2823 1.363 . S
C2819 H2790 0.959 . S
C2819 C2818 1.392 1_545 S
C2819 C2820 1.329 1_545 S
C2820 H2791 0.950 . S
C2820 C2819 1.329 1_565 S
C2820 C2821 1.287 . S
C2821 C2820 1.287 . S
C2821 C2822 1.524 . S
C2821 H2824 0.999 . S
C2822 H2792 0.950 . S
C2822 C2821 1.524 . S
C2822 C2823 1.415 . S
C2823 H2793 0.950 . S
C2823 C2818 1.363 . S
C2823 C2822 1.415 . S
H2824 C2821 0.999 . S
H2825 C2806 0.913 . S
H2826 C2844 0.951 . S
H2827 C2846 0.951 . S
H2828 C2848 0.950 . S
H2829 C2849 0.950 . S
H2830 C2851 0.950 . S
H2831 C2854 0.950 . S
H2832 C2855 0.950 . S
H2833 C2857 0.950 . S
H2834 C2858 0.950 . S
H2835 C2859 0.951 . S
H2836 C2861 0.951 . S
H2837 C2863 0.950 . S
H2838 C2864 0.950 . S
H2839 C2866 0.950 . S
H2840 C2869 0.950 . S
H2841 C2870 0.950 . S
H2842 C2872 0.950 . S
H2843 C2873 0.950 . S
C2844 H2826 0.951 . S
C2844 C2845 1.366 . S
C2844 C2846 1.388 . S
C2845 C2844 1.366 . S
C2845 C2849 1.385 . S
C2846 H2827 0.951 . S
C2846 C2844 1.388 . S
C2846 C2847 1.366 . S
C2847 C2846 1.366 . S
C2847 C2848 1.414 . S
C2847 C2850 1.499 . S
C2848 H2828 0.950 . S
C2848 C2847 1.414 . S
C2848 C2849 1.374 . S
C2849 H2829 0.950 . S
C2849 C2845 1.385 . S
C2849 C2848 1.374 . S
C2850 C2847 1.499 . S
C2850 C2851 1.373 . S
C2850 C2852 1.389 . S
C2851 H2830 0.950 . S
C2851 C2850 1.373 . S
C2851 C2867 1.377 . S
C2852 C2850 1.389 . S
C2852 C2853 1.524 . S
C2852 C2866 1.377 . S
C2853 C2852 1.524 . S
C2853 C2854 1.397 . S
C2853 C2858 1.363 . S
C2854 H2831 0.950 . S
C2854 C2853 1.397 . S
C2854 C2855 1.334 . S
C2855 H2832 0.950 . S
C2855 C2854 1.334 . S
C2855 C2856 1.287 . S
C2856 C2855 1.287 . S
C2856 C2857 1.524 . S
C2856 H2875 0.913 . S
C2857 H2833 0.950 . S
C2857 C2856 1.524 . S
C2857 C2858 1.415 . S
C2858 H2834 0.950 . S
C2858 C2853 1.363 . S
C2858 C2857 1.415 . S
C2859 H2835 0.951 . S
C2859 C2860 1.366 . S
C2859 C2861 1.388 . S
C2860 C2859 1.366 . S
C2860 C2864 1.385 . S
C2861 H2836 0.951 . S
C2861 C2859 1.388 . S
C2861 C2862 1.366 . S
C2862 C2861 1.366 . S
C2862 C2863 1.414 . S
C2862 C2865 1.499 . S
C2863 H2837 0.950 . S
C2863 C2862 1.414 . S
C2863 C2864 1.374 . S
C2864 H2838 0.950 . S
C2864 C2860 1.385 . S
C2864 C2863 1.374 . S
C2865 C2862 1.499 . S
C2865 C2866 1.373 . S
C2865 C2867 1.389 . S
C2866 H2839 0.950 . S
C2866 C2852 1.377 . S
C2866 C2865 1.373 . S
C2867 C2851 1.377 . S
C2867 C2865 1.389 . S
C2867 C2868 1.524 . S
C2868 C2867 1.524 . S
C2868 C2869 1.397 . S
C2868 C2873 1.363 . S
C2869 H2840 0.950 . S
C2869 C2868 1.397 . S
C2869 C2870 1.334 . S
C2870 H2841 0.950 . S
C2870 C2869 1.334 . S
C2870 C2871 1.287 . S
C2871 C2870 1.287 . S
C2871 C2872 1.524 . S
C2871 H2874 0.999 . S
C2872 H2842 0.950 . S
C2872 C2871 1.524 . S
C2872 C2873 1.415 . S
C2873 H2843 0.950 . S
C2873 C2868 1.363 . S
C2873 C2872 1.415 . S
H2874 C2871 0.999 . S
H2875 C2856 0.913 . S
H2876 C2894 0.951 . S
H2877 C2896 0.951 . S
H2878 C2898 0.950 . S
H2879 C2899 0.950 . S
H2880 C2901 0.950 . S
H2881 C2904 0.950 . S
H2882 C2905 0.950 . S
H2883 C2907 0.950 . S
H2884 C2908 0.950 . S
H2885 C2909 0.951 . S
H2886 C2911 0.951 . S
H2887 C2913 0.950 . S
H2888 C2914 0.950 . S
H2889 C2916 0.950 . S
H2890 C2919 0.950 . S
H2891 C2920 0.950 . S
H2892 C2922 0.950 . S
H2893 C2923 0.950 . S
C2894 H2876 0.951 . S
C2894 C2895 1.366 . S
C2894 C2896 1.388 . S
C2895 C2894 1.366 . S
C2895 C2899 1.385 . S
C2896 H2877 0.951 . S
C2896 C2894 1.388 . S
C2896 C2897 1.366 . S
C2897 C2896 1.366 . S
C2897 C2898 1.414 . S
C2897 C2900 1.499 . S
C2898 H2878 0.950 . S
C2898 C2897 1.414 . S
C2898 C2899 1.374 . S
C2899 H2879 0.950 . S
C2899 C2895 1.385 . S
C2899 C2898 1.374 . S
C2900 C2897 1.499 . S
C2900 C2901 1.373 1_545 S
C2900 C2902 1.389 . S
C2901 H2880 0.950 . S
C2901 C2900 1.373 1_565 S
C2901 C2917 1.377 . S
C2902 C2900 1.389 . S
C2902 C2903 1.524 . S
C2902 C2916 1.377 . S
C2903 C2902 1.524 . S
C2903 C2904 1.397 . S
C2903 C2908 1.363 . S
C2904 H2881 0.950 . S
C2904 C2903 1.397 . S
C2904 C2905 1.334 . S
C2905 H2882 0.950 . S
C2905 C2904 1.334 . S
C2905 C2906 1.287 . S
C2906 C2905 1.287 . S
C2906 C2907 1.524 . S
C2906 H2925 0.913 . S
C2907 H2883 0.950 . S
C2907 C2906 1.524 . S
C2907 C2908 1.415 . S
C2908 H2884 0.950 . S
C2908 C2903 1.363 . S
C2908 C2907 1.415 . S
C2909 H2885 0.951 . S
C2909 C2910 1.366 . S
C2909 C2911 1.388 . S
C2910 C2909 1.366 . S
C2910 C2914 1.385 . S
C2911 H2886 0.951 . S
C2911 C2909 1.388 . S
C2911 C2912 1.366 . S
C2912 C2911 1.366 . S
C2912 C2913 1.414 . S
C2912 C2915 1.499 . S
C2913 H2887 0.950 . S
C2913 C2912 1.414 . S
C2913 C2914 1.374 . S
C2914 H2888 0.950 . S
C2914 C2910 1.385 . S
C2914 C2913 1.374 . S
C2915 C2912 1.499 . S
C2915 C2916 1.373 . S
C2915 C2917 1.389 1_545 S
C2916 H2889 0.950 . S
C2916 C2902 1.377 . S
C2916 C2915 1.373 . S
C2917 C2901 1.377 . S
C2917 C2915 1.389 1_565 S
C2917 C2918 1.524 . S
C2918 C2917 1.524 . S
C2918 C2919 1.397 . S
C2918 C2923 1.363 . S
C2919 H2890 0.950 . S
C2919 C2918 1.397 . S
C2919 C2920 1.334 . S
C2920 H2891 0.950 . S
C2920 C2919 1.334 . S
C2920 C2921 1.287 . S
C2921 C2920 1.287 . S
C2921 C2922 1.524 . S
C2921 H2924 0.999 . S
C2922 H2892 0.950 . S
C2922 C2921 1.524 . S
C2922 C2923 1.415 . S
C2923 H2893 0.950 . S
C2923 C2918 1.363 . S
C2923 C2922 1.415 . S
H2924 C2921 0.999 . S
H2925 C2906 0.913 . S
H2926 C2944 0.951 . S
H2927 C2946 0.951 . S
H2928 C2948 0.950 . S
H2929 C2949 0.950 . S
H2930 C2951 0.950 . S
H2931 C2954 0.950 . S
H2932 C2955 0.950 . S
H2933 C2957 0.950 . S
H2934 C2958 0.950 . S
H2935 C2959 0.951 . S
H2936 C2961 0.951 . S
H2937 C2963 0.950 . S
H2938 C2964 0.950 . S
H2939 C2966 0.950 . S
H2940 C2969 0.950 . S
H2941 C2970 0.950 . S
H2942 C2972 0.950 . S
H2943 C2973 0.950 . S
C2944 H2926 0.951 . S
C2944 C2945 1.366 . S
C2944 C2946 1.388 . S
C2945 C2944 1.366 . S
C2945 C2949 1.385 . S
C2946 H2927 0.951 . S
C2946 C2944 1.388 . S
C2946 C2947 1.366 . S
C2947 C2946 1.366 . S
C2947 C2948 1.414 . S
C2947 C2950 1.499 . S
C2948 H2928 0.950 . S
C2948 C2947 1.414 . S
C2948 C2949 1.374 . S
C2949 H2929 0.950 . S
C2949 C2945 1.385 . S
C2949 C2948 1.374 . S
C2950 C2947 1.499 . S
C2950 C2951 1.373 . S
C2950 C2952 1.389 . S
C2951 H2930 0.950 . S
C2951 C2950 1.373 . S
C2951 C2967 1.377 . S
C2952 C2950 1.389 . S
C2952 C2953 1.524 . S
C2952 C2966 1.377 . S
C2953 C2952 1.524 . S
C2953 C2954 1.397 . S
C2953 C2958 1.363 . S
C2954 H2931 0.950 . S
C2954 C2953 1.397 . S
C2954 C2955 1.334 . S
C2955 H2932 0.950 . S
C2955 C2954 1.334 . S
C2955 C2956 1.287 . S
C2956 C2955 1.287 . S
C2956 C2957 1.524 . S
C2956 H2975 0.913 . S
C2957 H2933 0.950 . S
C2957 C2956 1.524 . S
C2957 C2958 1.415 . S
C2958 H2934 0.950 . S
C2958 C2953 1.363 . S
C2958 C2957 1.415 . S
C2959 H2935 0.951 . S
C2959 C2960 1.366 . S
C2959 C2961 1.388 . S
C2960 C2959 1.366 . S
C2960 C2964 1.385 . S
C2961 H2936 0.951 . S
C2961 C2959 1.388 . S
C2961 C2962 1.366 . S
C2962 C2961 1.366 . S
C2962 C2963 1.414 . S
C2962 C2965 1.499 . S
C2963 H2937 0.950 . S
C2963 C2962 1.414 . S
C2963 C2964 1.374 . S
C2964 H2938 0.950 . S
C2964 C2960 1.385 . S
C2964 C2963 1.374 . S
C2965 C2962 1.499 . S
C2965 C2966 1.373 . S
C2965 C2967 1.389 . S
C2966 H2939 0.950 . S
C2966 C2952 1.377 . S
C2966 C2965 1.373 . S
C2967 C2951 1.377 . S
C2967 C2965 1.389 . S
C2967 C2968 1.524 . S
C2968 C2967 1.524 . S
C2968 C2969 1.397 . S
C2968 C2973 1.363 . S
C2969 H2940 0.950 . S
C2969 C2968 1.397 . S
C2969 C2970 1.334 . S
C2970 H2941 0.950 . S
C2970 C2969 1.334 . S
C2970 C2971 1.287 . S
C2971 C2970 1.287 . S
C2971 C2972 1.524 . S
C2971 H2974 0.999 . S
C2972 H2942 0.950 . S
C2972 C2971 1.524 . S
C2972 C2973 1.415 . S
C2973 H2943 0.950 . S
C2973 C2968 1.363 . S
C2973 C2972 1.415 . S
H2974 C2971 0.999 . S
H2975 C2956 0.913 . S
H2976 C2994 0.951 . S
H2977 C2996 0.951 . S
H2978 C2998 0.950 . S
H2979 C2999 0.950 . S
H2980 C3001 0.950 . S
H2981 C3004 0.950 . S
H2982 C3005 0.950 . S
H2983 C3007 0.950 . S
H2984 C3008 0.950 . S
H2985 C3009 0.951 . S
H2986 C3011 0.951 . S
H2987 C3013 0.950 . S
H2988 C3014 0.950 . S
H2989 C3016 0.950 . S
H2990 C3019 0.950 . S
H2991 C3020 0.950 . S
H2992 C3022 0.950 . S
H2993 C3023 0.950 . S
C2994 H2976 0.951 . S
C2994 C2995 1.366 . S
C2994 C2996 1.388 . S
C2995 C2994 1.366 . S
C2995 C2999 1.385 . S
C2996 H2977 0.951 . S
C2996 C2994 1.388 . S
C2996 C2997 1.366 . S
C2997 C2996 1.366 . S
C2997 C2998 1.414 . S
C2997 C3000 1.499 . S
C2998 H2978 0.950 . S
C2998 C2997 1.414 . S
C2998 C2999 1.374 . S
C2999 H2979 0.950 . S
C2999 C2995 1.385 . S
C2999 C2998 1.374 . S
C3000 C2997 1.499 . S
C3000 C3001 1.373 . S
C3000 C3002 1.389 . S
C3001 H2980 0.950 . S
C3001 C3000 1.373 . S
C3001 C3017 1.377 . S
C3002 C3000 1.389 . S
C3002 C3003 1.524 . S
C3002 C3016 1.377 . S
C3003 C3002 1.524 . S
C3003 C3004 1.397 . S
C3003 C3008 1.363 . S
C3004 H2981 0.950 . S
C3004 C3003 1.397 . S
C3004 C3005 1.334 . S
C3005 H2982 0.950 . S
C3005 C3004 1.334 . S
C3005 C3006 1.287 . S
C3006 C3005 1.287 . S
C3006 C3007 1.524 . S
C3006 H3025 0.913 . S
C3007 H2983 0.950 . S
C3007 C3006 1.524 . S
C3007 C3008 1.415 . S
C3008 H2984 0.950 . S
C3008 C3003 1.363 . S
C3008 C3007 1.415 . S
C3009 H2985 0.951 . S
C3009 C3010 1.329 1_554 S
C3009 C3011 1.388 . S
C3010 C3009 1.329 1_556 S
C3010 C3014 1.405 . S
C3011 H2986 0.951 . S
C3011 C3009 1.388 . S
C3011 C3012 1.366 . S
C3012 C3011 1.366 . S
C3012 C3013 1.414 1_554 S
C3012 C3015 1.499 . S
C3013 H2987 0.950 . S
C3013 C3012 1.414 1_556 S
C3013 C3014 1.374 . S
C3014 H2988 0.950 . S
C3014 C3010 1.405 . S
C3014 C3013 1.374 . S
C3015 C3012 1.499 . S
C3015 C3016 1.373 . S
C3015 C3017 1.389 . S
C3016 H2989 0.950 . S
C3016 C3002 1.377 . S
C3016 C3015 1.373 . S
C3017 C3001 1.377 . S
C3017 C3015 1.389 . S
C3017 C3018 1.524 . S
C3018 C3017 1.524 . S
C3018 C3019 1.397 1_554 S
C3018 C3023 1.363 . S
C3019 H2990 0.950 . S
C3019 C3018 1.397 1_556 S
C3019 C3020 1.334 . S
C3020 H2991 0.950 . S
C3020 C3019 1.334 . S
C3020 C3021 1.285 . S
C3021 C3020 1.285 . S
C3021 C3022 1.529 1_556 S
C3021 H3024 0.997 . S
C3022 H2992 0.950 . S
C3022 C3021 1.529 1_554 S
C3022 C3023 1.415 . S
C3023 H2993 0.950 . S
C3023 C3018 1.363 . S
C3023 C3022 1.415 . S
H3024 C3021 0.997 . S
H3025 C3006 0.913 . S
H3026 C3044 0.951 . S
H3027 C3046 0.951 . S
H3028 C3048 0.950 . S
H3029 C3049 0.950 . S
H3030 C3051 0.950 . S
H3031 C3054 0.950 . S
H3032 C3055 0.950 . S
H3033 C3057 0.950 . S
H3034 C3058 0.950 . S
H3035 C3059 0.951 . S
H3036 C3061 0.951 . S
H3037 C3063 0.950 . S
H3038 C3064 0.950 . S
H3039 C3066 0.950 . S
H3040 C3069 0.950 . S
H3041 C3070 0.950 . S
H3042 C3072 0.950 . S
H3043 C3073 0.950 . S
C3044 H3026 0.951 . S
C3044 C3045 1.366 . S
C3044 C3046 1.388 . S
C3045 C3044 1.366 . S
C3045 C3049 1.385 . S
C3046 H3027 0.951 . S
C3046 C3044 1.388 . S
C3046 C3047 1.366 . S
C3047 C3046 1.366 . S
C3047 C3048 1.414 . S
C3047 C3050 1.499 . S
C3048 H3028 0.950 . S
C3048 C3047 1.414 . S
C3048 C3049 1.374 . S
C3049 H3029 0.950 . S
C3049 C3045 1.385 . S
C3049 C3048 1.374 . S
C3050 C3047 1.499 . S
C3050 C3051 1.373 . S
C3050 C3052 1.389 . S
C3051 H3030 0.950 . S
C3051 C3050 1.373 . S
C3051 C3067 1.377 . S
C3052 C3050 1.389 . S
C3052 C3053 1.524 . S
C3052 C3066 1.377 . S
C3053 C3052 1.524 . S
C3053 C3054 1.397 . S
C3053 C3058 1.363 . S
C3054 H3031 0.950 . S
C3054 C3053 1.397 . S
C3054 C3055 1.334 . S
C3055 H3032 0.950 . S
C3055 C3054 1.334 . S
C3055 C3056 1.287 . S
C3056 C3055 1.287 . S
C3056 C3057 1.524 . S
C3056 H3075 0.913 . S
C3057 H3033 0.950 . S
C3057 C3056 1.524 . S
C3057 C3058 1.415 . S
C3058 H3034 0.950 . S
C3058 C3053 1.363 . S
C3058 C3057 1.415 . S
C3059 H3035 0.951 . S
C3059 C3060 1.366 . S
C3059 C3061 1.388 . S
C3060 C3059 1.366 . S
C3060 C3064 1.385 . S
C3061 H3036 0.951 . S
C3061 C3059 1.388 . S
C3061 C3062 1.366 . S
C3062 C3061 1.366 . S
C3062 C3063 1.414 . S
C3062 C3065 1.499 . S
C3063 H3037 0.950 . S
C3063 C3062 1.414 . S
C3063 C3064 1.374 . S
C3064 H3038 0.950 . S
C3064 C3060 1.385 . S
C3064 C3063 1.374 . S
C3065 C3062 1.499 . S
C3065 C3066 1.373 . S
C3065 C3067 1.389 . S
C3066 H3039 0.950 . S
C3066 C3052 1.377 . S
C3066 C3065 1.373 . S
C3067 C3051 1.377 . S
C3067 C3065 1.389 . S
C3067 C3068 1.524 1_554 S
C3068 C3067 1.524 1_556 S
C3068 C3069 1.397 . S
C3068 C3073 1.363 . S
C3069 H3040 0.950 . S
C3069 C3068 1.397 . S
C3069 C3070 1.334 . S
C3070 H3041 0.950 . S
C3070 C3069 1.334 . S
C3070 C3071 1.287 . S
C3071 C3070 1.287 . S
C3071 C3072 1.524 . S
C3071 H3074 0.999 . S
C3072 H3042 0.950 . S
C3072 C3071 1.524 . S
C3072 C3073 1.415 . S
C3073 H3043 0.950 . S
C3073 C3068 1.363 . S
C3073 C3072 1.415 . S
H3074 C3071 0.999 . S
H3075 C3056 0.913 . S
H3076 C3094 0.951 . S
H3077 C3096 0.951 . S
H3078 C3098 0.950 . S
H3079 C3099 0.950 . S
H3080 C3101 0.950 . S
H3081 C3104 0.950 . S
H3082 C3105 0.950 . S
H3083 C3107 0.950 . S
H3084 C3108 0.950 . S
H3085 C3109 0.951 . S
H3086 C3111 0.951 . S
H3087 C3113 0.950 . S
H3088 C3114 0.950 . S
H3089 C3116 0.950 . S
H3090 C3119 0.950 . S
H3091 C3120 0.950 . S
H3092 C3122 0.950 . S
H3093 C3123 0.950 . S
C3094 H3076 0.951 . S
C3094 C3095 1.366 . S
C3094 C3096 1.388 . S
C3095 C3094 1.366 . S
C3095 C3099 1.385 . S
C3096 H3077 0.951 . S
C3096 C3094 1.388 . S
C3096 C3097 1.366 . S
C3097 C3096 1.366 . S
C3097 C3098 1.414 . S
C3097 C3100 1.499 . S
C3098 H3078 0.950 . S
C3098 C3097 1.414 . S
C3098 C3099 1.374 . S
C3099 H3079 0.950 . S
C3099 C3095 1.385 . S
C3099 C3098 1.374 . S
C3100 C3097 1.499 . S
C3100 C3101 1.373 . S
C3100 C3102 1.389 . S
C3101 H3080 0.950 . S
C3101 C3100 1.373 . S
C3101 C3117 1.377 . S
C3102 C3100 1.389 . S
C3102 C3103 1.524 . S
C3102 C3116 1.377 . S
C3103 C3102 1.524 . S
C3103 C3104 1.397 . S
C3103 C3108 1.363 . S
C3104 H3081 0.950 . S
C3104 C3103 1.397 . S
C3104 C3105 1.334 . S
C3105 H3082 0.950 . S
C3105 C3104 1.334 . S
C3105 C3106 1.287 . S
C3106 C3105 1.287 . S
C3106 C3107 1.524 . S
C3106 H3125 0.913 . S
C3107 H3083 0.950 . S
C3107 C3106 1.524 . S
C3107 C3108 1.415 . S
C3108 H3084 0.950 . S
C3108 C3103 1.363 . S
C3108 C3107 1.415 . S
C3109 H3085 0.951 . S
C3109 C3110 1.366 . S
C3109 C3111 1.388 . S
C3110 C3109 1.366 . S
C3110 C3114 1.385 . S
C3111 H3086 0.951 . S
C3111 C3109 1.388 . S
C3111 C3112 1.366 . S
C3112 C3111 1.366 . S
C3112 C3113 1.414 . S
C3112 C3115 1.499 . S
C3113 H3087 0.950 . S
C3113 C3112 1.414 . S
C3113 C3114 1.374 . S
C3114 H3088 0.950 . S
C3114 C3110 1.385 . S
C3114 C3113 1.374 . S
C3115 C3112 1.499 . S
C3115 C3116 1.373 . S
C3115 C3117 1.389 . S
C3116 H3089 0.950 . S
C3116 C3102 1.377 . S
C3116 C3115 1.373 . S
C3117 C3101 1.377 . S
C3117 C3115 1.389 . S
C3117 C3118 1.524 . S
C3118 C3117 1.524 . S
C3118 C3119 1.397 . S
C3118 C3123 1.363 . S
C3119 H3090 0.950 . S
C3119 C3118 1.397 . S
C3119 C3120 1.334 . S
C3120 H3091 0.950 . S
C3120 C3119 1.334 . S
C3120 C3121 1.287 . S
C3121 C3120 1.287 . S
C3121 C3122 1.524 . S
C3121 H3124 0.999 . S
C3122 H3092 0.950 . S
C3122 C3121 1.524 . S
C3122 C3123 1.415 . S
C3123 H3093 0.950 . S
C3123 C3118 1.363 . S
C3123 C3122 1.415 . S
H3124 C3121 0.999 . S
H3125 C3106 0.913 . S
H3126 C3144 0.951 . S
H3127 C3146 0.951 . S
H3128 C3148 0.950 . S
H3129 C3149 0.950 . S
H3130 C3151 0.950 . S
H3131 C3154 0.950 . S
H3132 C3155 0.950 . S
H3133 C3157 0.950 . S
H3134 C3158 0.950 . S
H3135 C3159 0.951 . S
H3136 C3161 0.951 . S
H3137 C3163 0.950 . S
H3138 C3164 0.950 . S
H3139 C3166 0.950 . S
H3140 C3169 0.950 . S
H3141 C3170 0.950 . S
H3142 C3172 0.950 . S
H3143 C3173 0.950 . S
C3144 H3126 0.951 . S
C3144 C3145 1.366 . S
C3144 C3146 1.388 . S
C3145 C3144 1.366 . S
C3145 C3149 1.385 . S
C3146 H3127 0.951 . S
C3146 C3144 1.388 . S
C3146 C3147 1.366 . S
C3147 C3146 1.366 . S
C3147 C3148 1.414 . S
C3147 C3150 1.499 . S
C3148 H3128 0.950 . S
C3148 C3147 1.414 . S
C3148 C3149 1.374 . S
C3149 H3129 0.950 . S
C3149 C3145 1.385 . S
C3149 C3148 1.374 . S
C3150 C3147 1.499 . S
C3150 C3151 1.373 . S
C3150 C3152 1.389 . S
C3151 H3130 0.950 . S
C3151 C3150 1.373 . S
C3151 C3167 1.377 . S
C3152 C3150 1.389 . S
C3152 C3153 1.524 . S
C3152 C3166 1.377 . S
C3153 C3152 1.524 . S
C3153 C3154 1.397 . S
C3153 C3158 1.363 . S
C3154 H3131 0.950 . S
C3154 C3153 1.397 . S
C3154 C3155 1.334 . S
C3155 H3132 0.950 . S
C3155 C3154 1.334 . S
C3155 C3156 1.287 . S
C3156 C3155 1.287 . S
C3156 C3157 1.524 . S
C3156 H3175 0.913 . S
C3157 H3133 0.950 . S
C3157 C3156 1.524 . S
C3157 C3158 1.415 . S
C3158 H3134 0.950 . S
C3158 C3153 1.363 . S
C3158 C3157 1.415 . S
C3159 H3135 0.951 . S
C3159 C3160 1.366 . S
C3159 C3161 1.388 . S
C3160 C3159 1.366 . S
C3160 C3164 1.385 . S
C3161 H3136 0.951 . S
C3161 C3159 1.388 . S
C3161 C3162 1.366 . S
C3162 C3161 1.366 . S
C3162 C3163 1.414 . S
C3162 C3165 1.499 . S
C3163 H3137 0.950 . S
C3163 C3162 1.414 . S
C3163 C3164 1.374 . S
C3164 H3138 0.950 . S
C3164 C3160 1.385 . S
C3164 C3163 1.374 . S
C3165 C3162 1.499 . S
C3165 C3166 1.373 . S
C3165 C3167 1.389 . S
C3166 H3139 0.950 . S
C3166 C3152 1.377 . S
C3166 C3165 1.373 . S
C3167 C3151 1.377 . S
C3167 C3165 1.389 . S
C3167 C3168 1.524 . S
C3168 C3167 1.524 . S
C3168 C3169 1.397 . S
C3168 C3173 1.363 . S
C3169 H3140 0.950 . S
C3169 C3168 1.397 . S
C3169 C3170 1.334 . S
C3170 H3141 0.950 . S
C3170 C3169 1.334 . S
C3170 C3171 1.287 . S
C3171 C3170 1.287 . S
C3171 C3172 1.524 . S
C3171 H3174 0.999 . S
C3172 H3142 0.950 . S
C3172 C3171 1.524 . S
C3172 C3173 1.415 . S
C3173 H3143 0.950 . S
C3173 C3168 1.363 . S
C3173 C3172 1.415 . S
H3174 C3171 0.999 . S
H3175 C3156 0.913 . S
H3176 C3194 0.951 . S
H3177 C3196 0.951 . S
H3178 C3198 0.950 . S
H3179 C3199 0.950 . S
H3180 C3201 0.950 . S
H3181 C3204 0.950 . S
H3182 C3205 0.950 . S
H3183 C3207 0.950 . S
H3184 C3208 0.950 . S
H3185 C3209 0.951 . S
H3186 C3211 0.951 . S
H3187 C3213 0.950 . S
H3188 C3214 0.950 . S
H3189 C3216 0.950 . S
H3190 C3219 0.950 . S
H3191 C3220 0.950 . S
H3192 C3222 0.950 . S
H3193 C3223 0.950 . S
C3194 H3176 0.951 . S
C3194 C3195 1.366 . S
C3194 C3196 1.388 . S
C3195 C3194 1.366 . S
C3195 C3199 1.385 . S
C3196 H3177 0.951 . S
C3196 C3194 1.388 . S
C3196 C3197 1.366 . S
C3197 C3196 1.366 . S
C3197 C3198 1.414 . S
C3197 C3200 1.499 . S
C3198 H3178 0.950 . S
C3198 C3197 1.414 . S
C3198 C3199 1.374 . S
C3199 H3179 0.950 . S
C3199 C3195 1.385 . S
C3199 C3198 1.374 . S
C3200 C3197 1.499 . S
C3200 C3201 1.373 . S
C3200 C3202 1.389 . S
C3201 H3180 0.950 . S
C3201 C3200 1.373 . S
C3201 C3217 1.377 . S
C3202 C3200 1.389 . S
C3202 C3203 1.524 . S
C3202 C3216 1.377 . S
C3203 C3202 1.524 . S
C3203 C3204 1.397 . S
C3203 C3208 1.363 . S
C3204 H3181 0.950 . S
C3204 C3203 1.397 . S
C3204 C3205 1.334 . S
C3205 H3182 0.950 . S
C3205 C3204 1.334 . S
C3205 C3206 1.287 . S
C3206 C3205 1.287 . S
C3206 C3207 1.524 . S
C3206 H3225 0.913 . S
C3207 H3183 0.950 . S
C3207 C3206 1.524 . S
C3207 C3208 1.415 . S
C3208 H3184 0.950 . S
C3208 C3203 1.363 . S
C3208 C3207 1.415 . S
C3209 H3185 0.951 . S
C3209 C3210 1.366 . S
C3209 C3211 1.388 . S
C3210 C3209 1.366 . S
C3210 C3214 1.385 . S
C3211 H3186 0.951 . S
C3211 C3209 1.388 . S
C3211 C3212 1.366 . S
C3212 C3211 1.366 . S
C3212 C3213 1.414 . S
C3212 C3215 1.499 . S
C3213 H3187 0.950 . S
C3213 C3212 1.414 . S
C3213 C3214 1.374 . S
C3214 H3188 0.950 . S
C3214 C3210 1.385 . S
C3214 C3213 1.374 . S
C3215 C3212 1.499 . S
C3215 C3216 1.373 . S
C3215 C3217 1.389 . S
C3216 H3189 0.950 . S
C3216 C3202 1.377 . S
C3216 C3215 1.373 . S
C3217 C3201 1.377 . S
C3217 C3215 1.389 . S
C3217 C3218 1.524 . S
C3218 C3217 1.524 . S
C3218 C3219 1.397 . S
C3218 C3223 1.363 . S
C3219 H3190 0.950 . S
C3219 C3218 1.397 . S
C3219 C3220 1.334 . S
C3220 H3191 0.950 . S
C3220 C3219 1.334 . S
C3220 C3221 1.287 . S
C3221 C3220 1.287 . S
C3221 C3222 1.524 . S
C3221 H3224 0.999 . S
C3222 H3192 0.950 . S
C3222 C3221 1.524 . S
C3222 C3223 1.415 . S
C3223 H3193 0.950 . S
C3223 C3218 1.363 . S
C3223 C3222 1.415 . S
H3224 C3221 0.999 . S
H3225 C3206 0.913 . S
H3226 C3244 0.951 . S
H3227 C3246 0.951 . S
H3228 C3248 0.950 . S
H3229 C3249 0.950 . S
H3230 C3251 0.950 . S
H3231 C3254 0.950 . S
H3232 C3255 0.950 . S
H3233 C3257 0.950 . S
H3234 C3258 0.950 . S
H3235 C3259 0.951 . S
H3236 C3261 0.951 . S
H3237 C3263 0.950 . S
H3238 C3264 0.950 . S
H3239 C3266 0.950 . S
H3240 C3269 0.950 . S
H3241 C3270 0.950 . S
H3242 C3272 0.950 . S
H3243 C3273 0.950 . S
C3244 H3226 0.951 . S
C3244 C3245 1.366 . S
C3244 C3246 1.388 . S
C3245 C3244 1.366 . S
C3245 C3249 1.385 . S
C3246 H3227 0.951 . S
C3246 C3244 1.388 . S
C3246 C3247 1.366 . S
C3247 C3246 1.366 . S
C3247 C3248 1.414 . S
C3247 C3250 1.499 . S
C3248 H3228 0.950 . S
C3248 C3247 1.414 . S
C3248 C3249 1.374 . S
C3249 H3229 0.950 . S
C3249 C3245 1.385 . S
C3249 C3248 1.374 . S
C3250 C3247 1.499 . S
C3250 C3251 1.373 . S
C3250 C3252 1.389 . S
C3251 H3230 0.950 . S
C3251 C3250 1.373 . S
C3251 C3267 1.377 . S
C3252 C3250 1.389 . S
C3252 C3253 1.524 . S
C3252 C3266 1.377 . S
C3253 C3252 1.524 . S
C3253 C3254 1.397 . S
C3253 C3258 1.363 . S
C3254 H3231 0.950 . S
C3254 C3253 1.397 . S
C3254 C3255 1.334 . S
C3255 H3232 0.950 . S
C3255 C3254 1.334 . S
C3255 C3256 1.287 . S
C3256 C3255 1.287 . S
C3256 C3257 1.524 . S
C3256 H3275 0.913 . S
C3257 H3233 0.950 . S
C3257 C3256 1.524 . S
C3257 C3258 1.415 . S
C3258 H3234 0.950 . S
C3258 C3253 1.363 . S
C3258 C3257 1.415 . S
C3259 H3235 0.951 . S
C3259 C3260 1.366 . S
C3259 C3261 1.388 . S
C3260 C3259 1.366 . S
C3260 C3264 1.385 . S
C3261 H3236 0.951 . S
C3261 C3259 1.388 . S
C3261 C3262 1.366 . S
C3262 C3261 1.366 . S
C3262 C3263 1.414 . S
C3262 C3265 1.499 . S
C3263 H3237 0.950 . S
C3263 C3262 1.414 . S
C3263 C3264 1.374 . S
C3264 H3238 0.950 . S
C3264 C3260 1.385 . S
C3264 C3263 1.374 . S
C3265 C3262 1.499 . S
C3265 C3266 1.373 . S
C3265 C3267 1.389 . S
C3266 H3239 0.950 . S
C3266 C3252 1.377 . S
C3266 C3265 1.373 . S
C3267 C3251 1.377 . S
C3267 C3265 1.389 . S
C3267 C3268 1.524 . S
C3268 C3267 1.524 . S
C3268 C3269 1.397 . S
C3268 C3273 1.363 . S
C3269 H3240 0.950 . S
C3269 C3268 1.397 . S
C3269 C3270 1.334 . S
C3270 H3241 0.950 . S
C3270 C3269 1.334 . S
C3270 C3271 1.287 . S
C3271 C3270 1.287 . S
C3271 C3272 1.524 . S
C3271 H3274 0.999 . S
C3272 H3242 0.950 . S
C3272 C3271 1.524 . S
C3272 C3273 1.415 . S
C3273 H3243 0.950 . S
C3273 C3268 1.363 . S
C3273 C3272 1.415 . S
H3274 C3271 0.999 . S
H3275 C3256 0.913 . S
H3276 C3294 0.951 . S
H3277 C3296 0.951 . S
H3278 C3298 0.950 . S
H3279 C3299 0.950 . S
H3280 C3301 0.950 . S
H3281 C3304 0.950 . S
H3282 C3305 0.950 . S
H3283 C3307 0.950 . S
H3284 C3308 0.950 . S
H3285 C3309 0.951 . S
H3286 C3311 0.951 . S
H3287 C3313 0.950 . S
H3288 C3314 0.950 . S
H3289 C3316 0.950 . S
H3290 C3319 0.950 . S
H3291 C3320 0.950 . S
H3292 C3322 0.950 . S
H3293 C3323 0.950 . S
C3294 H3276 0.951 . S
C3294 C3295 1.366 . S
C3294 C3296 1.388 . S
C3295 C3294 1.366 . S
C3295 C3299 1.385 . S
C3296 H3277 0.951 . S
C3296 C3294 1.388 . S
C3296 C3297 1.366 . S
C3297 C3296 1.366 . S
C3297 C3298 1.414 . S
C3297 C3300 1.499 . S
C3298 H3278 0.950 . S
C3298 C3297 1.414 . S
C3298 C3299 1.374 . S
C3299 H3279 0.950 . S
C3299 C3295 1.385 . S
C3299 C3298 1.374 . S
C3300 C3297 1.499 . S
C3300 C3301 1.373 . S
C3300 C3302 1.389 . S
C3301 H3280 0.950 . S
C3301 C3300 1.373 . S
C3301 C3317 1.377 . S
C3302 C3300 1.389 . S
C3302 C3303 1.524 . S
C3302 C3316 1.377 . S
C3303 C3302 1.524 . S
C3303 C3304 1.397 . S
C3303 C3308 1.363 . S
C3304 H3281 0.950 . S
C3304 C3303 1.397 . S
C3304 C3305 1.334 . S
C3305 H3282 0.950 . S
C3305 C3304 1.334 . S
C3305 C3306 1.287 . S
C3306 C3305 1.287 . S
C3306 C3307 1.524 . S
C3306 H3325 0.913 . S
C3307 H3283 0.950 . S
C3307 C3306 1.524 . S
C3307 C3308 1.415 . S
C3308 H3284 0.950 . S
C3308 C3303 1.363 . S
C3308 C3307 1.415 . S
C3309 H3285 0.951 . S
C3309 C3310 1.366 . S
C3309 C3311 1.388 . S
C3310 C3309 1.366 . S
C3310 C3314 1.385 . S
C3311 H3286 0.951 . S
C3311 C3309 1.388 . S
C3311 C3312 1.366 . S
C3312 C3311 1.366 . S
C3312 C3313 1.414 . S
C3312 C3315 1.499 . S
C3313 H3287 0.950 . S
C3313 C3312 1.414 . S
C3313 C3314 1.374 . S
C3314 H3288 0.950 . S
C3314 C3310 1.385 . S
C3314 C3313 1.374 . S
C3315 C3312 1.499 . S
C3315 C3316 1.373 . S
C3315 C3317 1.389 . S
C3316 H3289 0.950 . S
C3316 C3302 1.377 . S
C3316 C3315 1.373 . S
C3317 C3301 1.377 . S
C3317 C3315 1.389 . S
C3317 C3318 1.524 . S
C3318 C3317 1.524 . S
C3318 C3319 1.397 . S
C3318 C3323 1.363 . S
C3319 H3290 0.950 . S
C3319 C3318 1.397 . S
C3319 C3320 1.334 . S
C3320 H3291 0.950 . S
C3320 C3319 1.334 . S
C3320 C3321 1.287 . S
C3321 C3320 1.287 . S
C3321 C3322 1.524 . S
C3321 H3324 0.999 . S
C3322 H3292 0.950 . S
C3322 C3321 1.524 . S
C3322 C3323 1.415 . S
C3323 H3293 0.950 . S
C3323 C3318 1.363 . S
C3323 C3322 1.415 . S
H3324 C3321 0.999 . S
H3325 C3306 0.913 . S
H3326 C3344 0.951 . S
H3327 C3346 0.951 . S
H3328 C3348 0.950 . S
H3329 C3349 0.950 . S
H3330 C3351 0.950 . S
H3331 C3354 0.950 . S
H3332 C3355 0.950 . S
H3333 C3357 0.950 . S
H3334 C3358 0.950 . S
H3335 C3359 0.951 . S
H3336 C3361 0.951 . S
H3337 C3363 0.950 . S
H3338 C3364 0.950 . S
H3339 C3366 0.950 . S
H3340 C3369 0.950 . S
H3341 C3370 0.950 . S
H3342 C3372 0.950 . S
H3343 C3373 0.950 . S
C3344 H3326 0.951 . S
C3344 C3345 1.366 . S
C3344 C3346 1.388 . S
C3345 C3344 1.366 . S
C3345 C3349 1.385 . S
C3346 H3327 0.951 . S
C3346 C3344 1.388 . S
C3346 C3347 1.366 . S
C3347 C3346 1.366 . S
C3347 C3348 1.414 . S
C3347 C3350 1.499 . S
C3348 H3328 0.950 . S
C3348 C3347 1.414 . S
C3348 C3349 1.374 . S
C3349 H3329 0.950 . S
C3349 C3345 1.385 . S
C3349 C3348 1.374 . S
C3350 C3347 1.499 . S
C3350 C3351 1.373 . S
C3350 C3352 1.389 . S
C3351 H3330 0.950 . S
C3351 C3350 1.373 . S
C3351 C3367 1.377 . S
C3352 C3350 1.389 . S
C3352 C3353 1.524 . S
C3352 C3366 1.377 . S
C3353 C3352 1.524 . S
C3353 C3354 1.397 . S
C3353 C3358 1.363 . S
C3354 H3331 0.950 . S
C3354 C3353 1.397 . S
C3354 C3355 1.334 . S
C3355 H3332 0.950 . S
C3355 C3354 1.334 . S
C3355 C3356 1.287 . S
C3356 C3355 1.287 . S
C3356 C3357 1.524 . S
C3356 H3375 0.913 . S
C3357 H3333 0.950 . S
C3357 C3356 1.524 . S
C3357 C3358 1.415 . S
C3358 H3334 0.950 . S
C3358 C3353 1.363 . S
C3358 C3357 1.415 . S
C3359 H3335 0.951 . S
C3359 C3360 1.366 . S
C3359 C3361 1.388 . S
C3360 C3359 1.366 . S
C3360 C3364 1.385 . S
C3361 H3336 0.951 . S
C3361 C3359 1.388 . S
C3361 C3362 1.366 . S
C3362 C3361 1.366 . S
C3362 C3363 1.414 . S
C3362 C3365 1.499 . S
C3363 H3337 0.950 . S
C3363 C3362 1.414 . S
C3363 C3364 1.374 . S
C3364 H3338 0.950 . S
C3364 C3360 1.385 . S
C3364 C3363 1.374 . S
C3365 C3362 1.499 . S
C3365 C3366 1.373 . S
C3365 C3367 1.389 . S
C3366 H3339 0.950 . S
C3366 C3352 1.377 . S
C3366 C3365 1.373 . S
C3367 C3351 1.377 . S
C3367 C3365 1.389 . S
C3367 C3368 1.524 . S
C3368 C3367 1.524 . S
C3368 C3369 1.397 . S
C3368 C3373 1.363 . S
C3369 H3340 0.950 . S
C3369 C3368 1.397 . S
C3369 C3370 1.334 . S
C3370 H3341 0.950 . S
C3370 C3369 1.334 . S
C3370 C3371 1.287 . S
C3371 C3370 1.287 . S
C3371 C3372 1.524 . S
C3371 H3374 0.999 . S
C3372 H3342 0.950 . S
C3372 C3371 1.524 . S
C3372 C3373 1.415 . S
C3373 H3343 0.950 . S
C3373 C3368 1.363 . S
C3373 C3372 1.415 . S
H3374 C3371 0.999 . S
H3375 C3356 0.913 . S
H3376 C3394 0.951 . S
H3377 C3396 0.951 . S
H3378 C3398 0.950 . S
H3379 C3399 0.950 . S
H3380 C3401 0.950 . S
H3381 C3404 0.950 . S
H3382 C3405 0.950 . S
H3383 C3407 0.950 . S
H3384 C3408 0.950 . S
H3385 C3409 0.951 . S
H3386 C3411 0.951 . S
H3387 C3413 0.950 . S
H3388 C3414 0.950 . S
H3389 C3416 0.950 . S
H3390 C3419 0.950 . S
H3391 C3420 0.950 . S
H3392 C3422 0.950 . S
H3393 C3423 0.950 . S
C3394 H3376 0.951 . S
C3394 C3395 1.366 . S
C3394 C3396 1.388 . S
C3395 C3394 1.366 . S
C3395 C3399 1.385 . S
C3396 H3377 0.951 . S
C3396 C3394 1.388 . S
C3396 C3397 1.366 . S
C3397 C3396 1.366 . S
C3397 C3398 1.414 . S
C3397 C3400 1.499 . S
C3398 H3378 0.950 . S
C3398 C3397 1.414 . S
C3398 C3399 1.374 . S
C3399 H3379 0.950 . S
C3399 C3395 1.385 . S
C3399 C3398 1.374 . S
C3400 C3397 1.499 . S
C3400 C3401 1.373 . S
C3400 C3402 1.389 . S
C3401 H3380 0.950 . S
C3401 C3400 1.373 . S
C3401 C3417 1.377 . S
C3402 C3400 1.389 . S
C3402 C3403 1.524 . S
C3402 C3416 1.377 . S
C3403 C3402 1.524 . S
C3403 C3404 1.397 . S
C3403 C3408 1.363 . S
C3404 H3381 0.950 . S
C3404 C3403 1.397 . S
C3404 C3405 1.334 . S
C3405 H3382 0.950 . S
C3405 C3404 1.334 . S
C3405 C3406 1.287 . S
C3406 C3405 1.287 . S
C3406 C3407 1.524 . S
C3406 H3425 0.913 . S
C3407 H3383 0.950 . S
C3407 C3406 1.524 . S
C3407 C3408 1.415 . S
C3408 H3384 0.950 . S
C3408 C3403 1.363 . S
C3408 C3407 1.415 . S
C3409 H3385 0.951 . S
C3409 C3410 1.366 . S
C3409 C3411 1.388 . S
C3410 C3409 1.366 . S
C3410 C3414 1.385 . S
C3411 H3386 0.951 . S
C3411 C3409 1.388 . S
C3411 C3412 1.366 . S
C3412 C3411 1.366 . S
C3412 C3413 1.414 . S
C3412 C3415 1.499 . S
C3413 H3387 0.950 . S
C3413 C3412 1.414 . S
C3413 C3414 1.374 . S
C3414 H3388 0.950 . S
C3414 C3410 1.385 . S
C3414 C3413 1.374 . S
C3415 C3412 1.499 . S
C3415 C3416 1.373 . S
C3415 C3417 1.389 . S
C3416 H3389 0.950 . S
C3416 C3402 1.377 . S
C3416 C3415 1.373 . S
C3417 C3401 1.377 . S
C3417 C3415 1.389 . S
C3417 C3418 1.524 . S
C3418 C3417 1.524 . S
C3418 C3419 1.397 . S
C3418 C3423 1.363 . S
C3419 H3390 0.950 . S
C3419 C3418 1.397 . S
C3419 C3420 1.334 . S
C3420 H3391 0.950 . S
C3420 C3419 1.334 . S
C3420 C3421 1.287 . S
C3421 C3420 1.287 . S
C3421 C3422 1.524 . S
C3421 H3424 0.999 . S
C3422 H3392 0.950 . S
C3422 C3421 1.524 . S
C3422 C3423 1.415 . S
C3423 H3393 0.950 . S
C3423 C3418 1.363 . S
C3423 C3422 1.415 . S
H3424 C3421 0.999 . S
H3425 C3406 0.913 . S
H3426 C3444 0.951 . S
H3427 C3446 0.951 . S
H3428 C3448 0.950 . S
H3429 C3449 0.950 . S
H3430 C3451 0.950 . S
H3431 C3454 0.950 . S
H3432 C3455 0.950 . S
H3433 C3457 0.950 . S
H3434 C3458 0.950 . S
H3435 C3459 0.951 . S
H3436 C3461 0.951 . S
H3437 C3463 0.950 . S
H3438 C3464 0.950 . S
H3439 C3466 0.950 . S
H3440 C3469 0.950 . S
H3441 C3470 0.950 . S
H3442 C3472 0.950 . S
H3443 C3473 0.950 . S
C3444 H3426 0.951 . S
C3444 C3445 1.366 . S
C3444 C3446 1.388 . S
C3445 C3444 1.366 . S
C3445 C3449 1.385 . S
C3446 H3427 0.951 . S
C3446 C3444 1.388 . S
C3446 C3447 1.366 . S
C3447 C3446 1.366 . S
C3447 C3448 1.414 . S
C3447 C3450 1.499 . S
C3448 H3428 0.950 . S
C3448 C3447 1.414 . S
C3448 C3449 1.374 . S
C3449 H3429 0.950 . S
C3449 C3445 1.385 . S
C3449 C3448 1.374 . S
C3450 C3447 1.499 . S
C3450 C3451 1.373 . S
C3450 C3452 1.389 . S
C3451 H3430 0.950 . S
C3451 C3450 1.373 . S
C3451 C3467 1.377 . S
C3452 C3450 1.389 . S
C3452 C3453 1.524 . S
C3452 C3466 1.377 . S
C3453 C3452 1.524 . S
C3453 C3454 1.397 . S
C3453 C3458 1.363 . S
C3454 H3431 0.950 . S
C3454 C3453 1.397 . S
C3454 C3455 1.334 . S
C3455 H3432 0.950 . S
C3455 C3454 1.334 . S
C3455 C3456 1.287 . S
C3456 C3455 1.287 . S
C3456 C3457 1.524 . S
C3456 H3475 0.913 . S
C3457 H3433 0.950 . S
C3457 C3456 1.524 . S
C3457 C3458 1.415 . S
C3458 H3434 0.950 . S
C3458 C3453 1.363 . S
C3458 C3457 1.415 . S
C3459 H3435 0.951 . S
C3459 C3460 1.366 . S
C3459 C3461 1.388 . S
C3460 C3459 1.366 . S
C3460 C3464 1.385 . S
C3461 H3436 0.951 . S
C3461 C3459 1.388 . S
C3461 C3462 1.366 . S
C3462 C3461 1.366 . S
C3462 C3463 1.414 . S
C3462 C3465 1.499 . S
C3463 H3437 0.950 . S
C3463 C3462 1.414 . S
C3463 C3464 1.374 . S
C3464 H3438 0.950 . S
C3464 C3460 1.385 . S
C3464 C3463 1.374 . S
C3465 C3462 1.499 . S
C3465 C3466 1.373 . S
C3465 C3467 1.389 . S
C3466 H3439 0.950 . S
C3466 C3452 1.377 . S
C3466 C3465 1.373 . S
C3467 C3451 1.377 . S
C3467 C3465 1.389 . S
C3467 C3468 1.524 . S
C3468 C3467 1.524 . S
C3468 C3469 1.397 . S
C3468 C3473 1.363 . S
C3469 H3440 0.950 . S
C3469 C3468 1.397 . S
C3469 C3470 1.334 . S
C3470 H3441 0.950 . S
C3470 C3469 1.334 . S
C3470 C3471 1.287 . S
C3471 C3470 1.287 . S
C3471 C3472 1.524 . S
C3471 H3474 0.999 . S
C3472 H3442 0.950 . S
C3472 C3471 1.524 . S
C3472 C3473 1.415 . S
C3473 H3443 0.950 . S
C3473 C3468 1.363 . S
C3473 C3472 1.415 . S
H3474 C3471 0.999 . S
H3475 C3456 0.913 . S
H3476 C3494 0.951 . S
H3477 C3496 0.951 . S
H3478 C3498 0.950 . S
H3479 C3499 0.950 . S
H3480 C3501 0.950 . S
H3481 C3504 0.950 . S
H3482 C3505 0.950 . S
H3483 C3507 0.950 . S
H3484 C3508 0.950 . S
H3485 C3509 0.951 . S
H3486 C3511 0.951 . S
H3487 C3513 0.950 . S
H3488 C3514 0.950 . S
H3489 C3516 0.950 . S
H3490 C3519 0.950 . S
H3491 C3520 0.950 . S
H3492 C3522 0.950 . S
H3493 C3523 0.950 . S
C3494 H3476 0.951 . S
C3494 C3495 1.366 . S
C3494 C3496 1.388 . S
C3495 C3494 1.366 . S
C3495 C3499 1.385 . S
C3496 H3477 0.951 . S
C3496 C3494 1.388 . S
C3496 C3497 1.366 . S
C3497 C3496 1.366 . S
C3497 C3498 1.414 . S
C3497 C3500 1.499 . S
C3498 H3478 0.950 . S
C3498 C3497 1.414 . S
C3498 C3499 1.374 . S
C3499 H3479 0.950 . S
C3499 C3495 1.385 . S
C3499 C3498 1.374 . S
C3500 C3497 1.499 . S
C3500 C3501 1.373 . S
C3500 C3502 1.389 . S
C3501 H3480 0.950 . S
C3501 C3500 1.373 . S
C3501 C3517 1.377 . S
C3502 C3500 1.389 . S
C3502 C3503 1.524 . S
C3502 C3516 1.377 . S
C3503 C3502 1.524 . S
C3503 C3504 1.397 . S
C3503 C3508 1.363 . S
C3504 H3481 0.950 . S
C3504 C3503 1.397 . S
C3504 C3505 1.334 . S
C3505 H3482 0.950 . S
C3505 C3504 1.334 . S
C3505 C3506 1.287 . S
C3506 C3505 1.287 . S
C3506 C3507 1.524 . S
C3506 H3525 0.913 . S
C3507 H3483 0.950 . S
C3507 C3506 1.524 . S
C3507 C3508 1.415 . S
C3508 H3484 0.950 . S
C3508 C3503 1.363 . S
C3508 C3507 1.415 . S
C3509 H3485 0.951 . S
C3509 C3510 1.366 . S
C3509 C3511 1.388 . S
C3510 C3509 1.366 . S
C3510 C3514 1.385 1_554 S
C3511 H3486 0.951 . S
C3511 C3509 1.388 . S
C3511 C3512 1.366 1_554 S
C3512 C3511 1.366 1_556 S
C3512 C3513 1.414 . S
C3512 C3515 1.499 . S
C3513 H3487 0.950 . S
C3513 C3512 1.414 . S
C3513 C3514 1.374 . S
C3514 H3488 0.950 . S
C3514 C3510 1.385 1_556 S
C3514 C3513 1.374 . S
C3515 C3512 1.499 . S
C3515 C3516 1.373 . S
C3515 C3517 1.389 . S
C3516 H3489 0.950 . S
C3516 C3502 1.377 . S
C3516 C3515 1.373 . S
C3517 C3501 1.377 . S
C3517 C3515 1.389 . S
C3517 C3518 1.524 1_556 S
C3518 C3517 1.524 1_554 S
C3518 C3519 1.397 1_455 S
C3518 C3523 1.363 . S
C3519 H3490 0.950 . S
C3519 C3518 1.397 1_655 S
C3519 C3520 1.334 . S
C3520 H3491 0.950 . S
C3520 C3519 1.334 . S
C3520 C3521 1.287 . S
C3521 C3520 1.287 . S
C3521 C3522 1.524 1_655 S
C3521 H3524 0.999 . S
C3522 H3492 0.950 . S
C3522 C3521 1.524 1_455 S
C3522 C3523 1.415 . S
C3523 H3493 0.950 . S
C3523 C3518 1.363 . S
C3523 C3522 1.415 . S
H3524 C3521 0.999 . S
H3525 C3506 0.913 . S
H3526 C3544 0.988 . S
H3527 C3546 0.951 . S
H3528 C3548 0.950 . S
H3529 C3549 0.950 . S
H3530 C3551 0.950 . S
H3531 C3554 0.950 . S
H3532 C3555 0.950 . S
H3533 C3557 0.950 . S
H3534 C3558 0.950 . S
H3535 C3559 0.951 . S
H3536 C3561 0.951 . S
H3537 C3563 0.950 . S
H3538 C3564 0.950 . S
H3539 C3566 0.950 . S
H3540 C3569 0.950 . S
H3541 C3570 0.950 . S
H3542 C3572 0.950 . S
H3543 C3573 0.950 . S
C3544 H3526 0.988 . S
C3544 C3545 1.372 1_455 S
C3544 C3546 1.349 1_455 S
C3545 C3544 1.372 1_655 S
C3545 C3549 1.411 . S
C3546 H3527 0.951 . S
C3546 C3544 1.349 1_655 S
C3546 C3547 1.366 . S
C3547 C3546 1.366 . S
C3547 C3548 1.414 . S
C3547 C3550 1.499 . S
C3548 H3528 0.950 . S
C3548 C3547 1.414 . S
C3548 C3549 1.374 . S
C3549 H3529 0.950 . S
C3549 C3545 1.411 . S
C3549 C3548 1.374 . S
C3550 C3547 1.499 . S
C3550 C3551 1.373 . S
C3550 C3552 1.389 . S
C3551 H3530 0.950 . S
C3551 C3550 1.373 . S
C3551 C3567 1.377 . S
C3552 C3550 1.389 . S
C3552 C3553 1.524 . S
C3552 C3566 1.377 . S
C3553 C3552 1.524 . S
C3553 C3554 1.397 . S
C3553 C3558 1.363 . S
C3554 H3531 0.950 . S
C3554 C3553 1.397 . S
C3554 C3555 1.334 . S
C3555 H3532 0.950 . S
C3555 C3554 1.334 . S
C3555 C3556 1.287 . S
C3556 C3555 1.287 . S
C3556 C3557 1.524 . S
C3556 H3575 0.913 . S
C3557 H3533 0.950 . S
C3557 C3556 1.524 . S
C3557 C3558 1.415 . S
C3558 H3534 0.950 . S
C3558 C3553 1.363 . S
C3558 C3557 1.415 . S
C3559 H3535 0.951 . S
C3559 C3560 1.366 . S
C3559 C3561 1.388 . S
C3560 C3559 1.366 . S
C3560 C3564 1.385 . S
C3561 H3536 0.951 . S
C3561 C3559 1.388 . S
C3561 C3562 1.366 . S
C3562 C3561 1.366 . S
C3562 C3563 1.414 . S
C3562 C3565 1.499 . S
C3563 H3537 0.950 . S
C3563 C3562 1.414 . S
C3563 C3564 1.374 . S
C3564 H3538 0.950 . S
C3564 C3560 1.385 . S
C3564 C3563 1.374 . S
C3565 C3562 1.499 . S
C3565 C3566 1.373 . S
C3565 C3567 1.389 . S
C3566 H3539 0.950 . S
C3566 C3552 1.377 . S
C3566 C3565 1.373 . S
C3567 C3551 1.377 . S
C3567 C3565 1.389 . S
C3567 C3568 1.524 . S
C3568 C3567 1.524 . S
C3568 C3569 1.397 . S
C3568 C3573 1.363 . S
C3569 H3540 0.950 . S
C3569 C3568 1.397 . S
C3569 C3570 1.334 . S
C3570 H3541 0.950 . S
C3570 C3569 1.334 . S
C3570 C3571 1.287 . S
C3571 C3570 1.287 . S
C3571 C3572 1.524 . S
C3571 H3574 0.999 . S
C3572 H3542 0.950 . S
C3572 C3571 1.524 . S
C3572 C3573 1.415 . S
C3573 H3543 0.950 . S
C3573 C3568 1.363 . S
C3573 C3572 1.415 . S
H3574 C3571 0.999 . S
H3575 C3556 0.913 . S
H3576 C3594 0.951 . S
H3577 C3596 0.951 . S
H3578 C3598 0.950 . S
H3579 C3599 0.950 . S
H3580 C3601 0.950 . S
H3581 C3604 0.950 . S
H3582 C3605 0.950 . S
H3583 C3607 0.950 . S
H3584 C3608 0.950 . S
H3585 C3609 0.951 . S
H3586 C3611 0.951 . S
H3587 C3613 0.950 . S
H3588 C3614 0.950 . S
H3589 C3616 0.950 . S
H3590 C3619 0.950 . S
H3591 C3620 0.950 . S
H3592 C3622 0.950 . S
H3593 C3623 0.950 . S
C3594 H3576 0.951 . S
C3594 C3595 1.366 . S
C3594 C3596 1.388 . S
C3595 C3594 1.366 . S
C3595 C3599 1.385 . S
C3596 H3577 0.951 . S
C3596 C3594 1.388 . S
C3596 C3597 1.366 . S
C3597 C3596 1.366 . S
C3597 C3598 1.414 . S
C3597 C3600 1.499 . S
C3598 H3578 0.950 . S
C3598 C3597 1.414 . S
C3598 C3599 1.374 . S
C3599 H3579 0.950 . S
C3599 C3595 1.385 . S
C3599 C3598 1.374 . S
C3600 C3597 1.499 . S
C3600 C3601 1.373 . S
C3600 C3602 1.389 . S
C3601 H3580 0.950 . S
C3601 C3600 1.373 . S
C3601 C3617 1.377 . S
C3602 C3600 1.389 . S
C3602 C3603 1.524 . S
C3602 C3616 1.377 . S
C3603 C3602 1.524 . S
C3603 C3604 1.397 . S
C3603 C3608 1.363 . S
C3604 H3581 0.950 . S
C3604 C3603 1.397 . S
C3604 C3605 1.334 . S
C3605 H3582 0.950 . S
C3605 C3604 1.334 . S
C3605 C3606 1.287 . S
C3606 C3605 1.287 . S
C3606 C3607 1.524 . S
C3606 H3625 0.913 . S
C3607 H3583 0.950 . S
C3607 C3606 1.524 . S
C3607 C3608 1.415 . S
C3608 H3584 0.950 . S
C3608 C3603 1.363 . S
C3608 C3607 1.415 . S
C3609 H3585 0.951 . S
C3609 C3610 1.366 . S
C3609 C3611 1.388 . S
C3610 C3609 1.366 . S
C3610 C3614 1.385 . S
C3611 H3586 0.951 . S
C3611 C3609 1.388 . S
C3611 C3612 1.366 . S
C3612 C3611 1.366 . S
C3612 C3613 1.414 . S
C3612 C3615 1.499 . S
C3613 H3587 0.950 . S
C3613 C3612 1.414 . S
C3613 C3614 1.374 . S
C3614 H3588 0.950 . S
C3614 C3610 1.385 . S
C3614 C3613 1.374 . S
C3615 C3612 1.499 . S
C3615 C3616 1.373 . S
C3615 C3617 1.389 . S
C3616 H3589 0.950 . S
C3616 C3602 1.377 . S
C3616 C3615 1.373 . S
C3617 C3601 1.377 . S
C3617 C3615 1.389 . S
C3617 C3618 1.524 . S
C3618 C3617 1.524 . S
C3618 C3619 1.397 . S
C3618 C3623 1.363 . S
C3619 H3590 0.950 . S
C3619 C3618 1.397 . S
C3619 C3620 1.334 . S
C3620 H3591 0.950 . S
C3620 C3619 1.334 . S
C3620 C3621 1.287 . S
C3621 C3620 1.287 . S
C3621 C3622 1.524 . S
C3621 H3624 0.999 . S
C3622 H3592 0.950 . S
C3622 C3621 1.524 . S
C3622 C3623 1.415 . S
C3623 H3593 0.950 . S
C3623 C3618 1.363 . S
C3623 C3622 1.415 . S
H3624 C3621 0.999 . S
H3625 C3606 0.913 . S
H3626 C3644 0.951 . S
H3627 C3646 0.951 . S
H3628 C3648 0.950 . S
H3629 C3649 0.950 . S
H3630 C3651 0.950 . S
H3631 C3654 0.950 . S
H3632 C3655 0.950 . S
H3633 C3657 0.950 . S
H3634 C3658 0.950 . S
H3635 C3659 0.951 . S
H3636 C3661 0.951 . S
H3637 C3663 0.950 . S
H3638 C3664 0.950 . S
H3639 C3666 0.950 . S
H3640 C3669 0.950 . S
H3641 C3670 0.950 . S
H3642 C3672 0.950 . S
H3643 C3673 0.950 . S
C3644 H3626 0.951 . S
C3644 C3645 1.366 . S
C3644 C3646 1.388 . S
C3645 C3644 1.366 . S
C3645 C3649 1.385 . S
C3646 H3627 0.951 . S
C3646 C3644 1.388 . S
C3646 C3647 1.366 . S
C3647 C3646 1.366 . S
C3647 C3648 1.414 . S
C3647 C3650 1.499 . S
C3648 H3628 0.950 . S
C3648 C3647 1.414 . S
C3648 C3649 1.374 . S
C3649 H3629 0.950 . S
C3649 C3645 1.385 . S
C3649 C3648 1.374 . S
C3650 C3647 1.499 . S
C3650 C3651 1.373 . S
C3650 C3652 1.389 . S
C3651 H3630 0.950 . S
C3651 C3650 1.373 . S
C3651 C3667 1.377 . S
C3652 C3650 1.389 . S
C3652 C3653 1.524 . S
C3652 C3666 1.377 . S
C3653 C3652 1.524 . S
C3653 C3654 1.397 . S
C3653 C3658 1.363 . S
C3654 H3631 0.950 . S
C3654 C3653 1.397 . S
C3654 C3655 1.334 . S
C3655 H3632 0.950 . S
C3655 C3654 1.334 . S
C3655 C3656 1.287 . S
C3656 C3655 1.287 . S
C3656 C3657 1.524 . S
C3656 H3675 0.913 . S
C3657 H3633 0.950 . S
C3657 C3656 1.524 . S
C3657 C3658 1.415 . S
C3658 H3634 0.950 . S
C3658 C3653 1.363 . S
C3658 C3657 1.415 . S
C3659 H3635 0.951 . S
C3659 C3660 1.366 . S
C3659 C3661 1.388 . S
C3660 C3659 1.366 . S
C3660 C3664 1.385 . S
C3661 H3636 0.951 . S
C3661 C3659 1.388 . S
C3661 C3662 1.366 . S
C3662 C3661 1.366 . S
C3662 C3663 1.414 . S
C3662 C3665 1.499 . S
C3663 H3637 0.950 . S
C3663 C3662 1.414 . S
C3663 C3664 1.374 . S
C3664 H3638 0.950 . S
C3664 C3660 1.385 . S
C3664 C3663 1.374 . S
C3665 C3662 1.499 . S
C3665 C3666 1.373 . S
C3665 C3667 1.389 . S
C3666 H3639 0.950 . S
C3666 C3652 1.377 . S
C3666 C3665 1.373 . S
C3667 C3651 1.377 . S
C3667 C3665 1.389 . S
C3667 C3668 1.524 . S
C3668 C3667 1.524 . S
C3668 C3669 1.397 . S
C3668 C3673 1.363 . S
C3669 H3640 0.950 . S
C3669 C3668 1.397 . S
C3669 C3670 1.334 . S
C3670 H3641 0.950 . S
C3670 C3669 1.334 . S
C3670 C3671 1.287 . S
C3671 C3670 1.287 . S
C3671 C3672 1.524 . S
C3671 H3674 0.999 . S
C3672 H3642 0.950 . S
C3672 C3671 1.524 . S
C3672 C3673 1.415 . S
C3673 H3643 0.950 . S
C3673 C3668 1.363 . S
C3673 C3672 1.415 . S
H3674 C3671 0.999 . S
H3675 C3656 0.913 . S
H3676 C3694 0.951 . S
H3677 C3696 0.951 . S
H3678 C3698 0.950 . S
H3679 C3699 0.950 . S
H3680 C3701 0.950 . S
H3681 C3704 0.950 . S
H3682 C3705 0.950 . S
H3683 C3707 0.950 . S
H3684 C3708 0.950 . S
H3685 C3709 0.951 . S
H3686 C3711 0.951 . S
H3687 C3713 0.950 . S
H3688 C3714 0.950 . S
H3689 C3716 0.950 . S
H3690 C3719 0.950 . S
H3691 C3720 0.950 . S
H3692 C3722 0.950 . S
H3693 C3723 0.950 . S
C3694 H3676 0.951 . S
C3694 C3695 1.366 . S
C3694 C3696 1.388 . S
C3695 C3694 1.366 . S
C3695 C3699 1.385 . S
C3696 H3677 0.951 . S
C3696 C3694 1.388 . S
C3696 C3697 1.366 . S
C3697 C3696 1.366 . S
C3697 C3698 1.414 . S
C3697 C3700 1.499 . S
C3698 H3678 0.950 . S
C3698 C3697 1.414 . S
C3698 C3699 1.374 . S
C3699 H3679 0.950 . S
C3699 C3695 1.385 . S
C3699 C3698 1.374 . S
C3700 C3697 1.499 . S
C3700 C3701 1.373 . S
C3700 C3702 1.389 . S
C3701 H3680 0.950 . S
C3701 C3700 1.373 . S
C3701 C3717 1.377 . S
C3702 C3700 1.389 . S
C3702 C3703 1.524 . S
C3702 C3716 1.377 . S
C3703 C3702 1.524 . S
C3703 C3704 1.397 . S
C3703 C3708 1.363 . S
C3704 H3681 0.950 . S
C3704 C3703 1.397 . S
C3704 C3705 1.334 . S
C3705 H3682 0.950 . S
C3705 C3704 1.334 . S
C3705 C3706 1.287 . S
C3706 C3705 1.287 . S
C3706 C3707 1.524 . S
C3706 H3725 0.913 . S
C3707 H3683 0.950 . S
C3707 C3706 1.524 . S
C3707 C3708 1.415 . S
C3708 H3684 0.950 . S
C3708 C3703 1.363 . S
C3708 C3707 1.415 . S
C3709 H3685 0.951 . S
C3709 C3710 1.366 . S
C3709 C3711 1.388 . S
C3710 C3709 1.366 . S
C3710 C3714 1.385 . S
C3711 H3686 0.951 . S
C3711 C3709 1.388 . S
C3711 C3712 1.366 . S
C3712 C3711 1.366 . S
C3712 C3713 1.414 . S
C3712 C3715 1.499 . S
C3713 H3687 0.950 . S
C3713 C3712 1.414 . S
C3713 C3714 1.374 . S
C3714 H3688 0.950 . S
C3714 C3710 1.385 . S
C3714 C3713 1.374 . S
C3715 C3712 1.499 . S
C3715 C3716 1.373 . S
C3715 C3717 1.389 . S
C3716 H3689 0.950 . S
C3716 C3702 1.377 . S
C3716 C3715 1.373 . S
C3717 C3701 1.377 . S
C3717 C3715 1.389 . S
C3717 C3718 1.524 . S
C3718 C3717 1.524 . S
C3718 C3719 1.397 . S
C3718 C3723 1.363 1_455 S
C3719 H3690 0.950 . S
C3719 C3718 1.397 . S
C3719 C3720 1.334 1_455 S
C3720 H3691 0.950 . S
C3720 C3719 1.334 1_655 S
C3720 C3721 1.287 . S
C3721 C3720 1.287 . S
C3721 C3722 1.524 . S
C3721 H3724 0.999 . S
C3722 H3692 0.950 . S
C3722 C3721 1.524 . S
C3722 C3723 1.415 . S
C3723 H3693 0.950 . S
C3723 C3718 1.363 1_655 S
C3723 C3722 1.415 . S
H3724 C3721 0.999 . S
H3725 C3706 0.913 . S
H3726 C3744 0.951 . S
H3727 C3746 0.951 . S
H3728 C3748 0.950 . S
H3729 C3749 0.950 . S
H3730 C3751 0.950 . S
H3731 C3754 0.950 . S
H3732 C3755 0.950 . S
H3733 C3757 0.950 . S
H3734 C3758 0.950 . S
H3735 C3759 0.951 . S
H3736 C3761 0.951 . S
H3737 C3763 0.950 . S
H3738 C3764 0.950 . S
H3739 C3766 0.950 . S
H3740 C3769 0.950 . S
H3741 C3770 0.950 . S
H3742 C3772 0.950 . S
H3743 C3773 0.950 . S
C3744 H3726 0.951 . S
C3744 C3745 1.366 . S
C3744 C3746 1.388 . S
C3745 C3744 1.366 . S
C3745 C3749 1.385 . S
C3746 H3727 0.951 . S
C3746 C3744 1.388 . S
C3746 C3747 1.366 . S
C3747 C3746 1.366 . S
C3747 C3748 1.414 . S
C3747 C3750 1.499 . S
C3748 H3728 0.950 . S
C3748 C3747 1.414 . S
C3748 C3749 1.374 . S
C3749 H3729 0.950 . S
C3749 C3745 1.385 . S
C3749 C3748 1.374 . S
C3750 C3747 1.499 . S
C3750 C3751 1.373 . S
C3750 C3752 1.389 . S
C3751 H3730 0.950 . S
C3751 C3750 1.373 . S
C3751 C3767 1.377 . S
C3752 C3750 1.389 . S
C3752 C3753 1.524 . S
C3752 C3766 1.377 . S
C3753 C3752 1.524 . S
C3753 C3754 1.397 . S
C3753 C3758 1.363 . S
C3754 H3731 0.950 . S
C3754 C3753 1.397 . S
C3754 C3755 1.334 . S
C3755 H3732 0.950 . S
C3755 C3754 1.334 . S
C3755 C3756 1.287 . S
C3756 C3755 1.287 . S
C3756 C3757 1.524 . S
C3756 H3775 0.913 . S
C3757 H3733 0.950 . S
C3757 C3756 1.524 . S
C3757 C3758 1.415 . S
C3758 H3734 0.950 . S
C3758 C3753 1.363 . S
C3758 C3757 1.415 . S
C3759 H3735 0.951 . S
C3759 C3760 1.366 . S
C3759 C3761 1.388 . S
C3760 C3759 1.366 . S
C3760 C3764 1.385 . S
C3761 H3736 0.951 . S
C3761 C3759 1.388 . S
C3761 C3762 1.366 . S
C3762 C3761 1.366 . S
C3762 C3763 1.414 . S
C3762 C3765 1.499 . S
C3763 H3737 0.950 . S
C3763 C3762 1.414 . S
C3763 C3764 1.374 . S
C3764 H3738 0.950 . S
C3764 C3760 1.385 . S
C3764 C3763 1.374 . S
C3765 C3762 1.499 . S
C3765 C3766 1.373 . S
C3765 C3767 1.389 . S
C3766 H3739 0.950 . S
C3766 C3752 1.377 . S
C3766 C3765 1.373 . S
C3767 C3751 1.377 . S
C3767 C3765 1.389 . S
C3767 C3768 1.524 . S
C3768 C3767 1.524 . S
C3768 C3769 1.397 . S
C3768 C3773 1.363 . S
C3769 H3740 0.950 . S
C3769 C3768 1.397 . S
C3769 C3770 1.334 . S
C3770 H3741 0.950 . S
C3770 C3769 1.334 . S
C3770 C3771 1.287 . S
C3771 C3770 1.287 . S
C3771 C3772 1.524 . S
C3771 H3774 0.999 . S
C3772 H3742 0.950 . S
C3772 C3771 1.524 . S
C3772 C3773 1.415 . S
C3773 H3743 0.950 . S
C3773 C3768 1.363 . S
C3773 C3772 1.415 . S
H3774 C3771 0.999 . S
H3775 C3756 0.913 . S
H3776 C3794 0.951 . S
H3777 C3796 0.951 . S
H3778 C3798 0.950 . S
H3779 C3799 0.950 . S
H3780 C3801 0.950 . S
H3781 C3804 0.950 . S
H3782 C3805 0.950 . S
H3783 C3807 0.950 . S
H3784 C3808 0.950 . S
H3785 C3809 0.951 . S
H3786 C3811 0.951 . S
H3787 C3813 0.950 . S
H3788 C3814 0.950 . S
H3789 C3816 0.950 . S
H3790 C3819 0.950 . S
H3791 C3820 0.950 . S
H3792 C3822 0.950 . S
H3793 C3823 0.950 . S
C3794 H3776 0.951 . S
C3794 C3795 1.366 . S
C3794 C3796 1.388 . S
C3795 C3794 1.366 . S
C3795 C3799 1.385 . S
C3796 H3777 0.951 . S
C3796 C3794 1.388 . S
C3796 C3797 1.366 . S
C3797 C3796 1.366 . S
C3797 C3798 1.414 . S
C3797 C3800 1.499 . S
C3798 H3778 0.950 . S
C3798 C3797 1.414 . S
C3798 C3799 1.374 . S
C3799 H3779 0.950 . S
C3799 C3795 1.385 . S
C3799 C3798 1.374 . S
C3800 C3797 1.499 . S
C3800 C3801 1.373 . S
C3800 C3802 1.389 . S
C3801 H3780 0.950 . S
C3801 C3800 1.373 . S
C3801 C3817 1.377 . S
C3802 C3800 1.389 . S
C3802 C3803 1.524 . S
C3802 C3816 1.377 . S
C3803 C3802 1.524 . S
C3803 C3804 1.397 . S
C3803 C3808 1.363 . S
C3804 H3781 0.950 . S
C3804 C3803 1.397 . S
C3804 C3805 1.334 . S
C3805 H3782 0.950 . S
C3805 C3804 1.334 . S
C3805 C3806 1.287 . S
C3806 C3805 1.287 . S
C3806 C3807 1.524 . S
C3806 H3825 0.913 . S
C3807 H3783 0.950 . S
C3807 C3806 1.524 . S
C3807 C3808 1.415 . S
C3808 H3784 0.950 . S
C3808 C3803 1.363 . S
C3808 C3807 1.415 . S
C3809 H3785 0.951 . S
C3809 C3810 1.366 . S
C3809 C3811 1.388 . S
C3810 C3809 1.366 . S
C3810 C3814 1.385 . S
C3811 H3786 0.951 . S
C3811 C3809 1.388 . S
C3811 C3812 1.366 . S
C3812 C3811 1.366 . S
C3812 C3813 1.414 . S
C3812 C3815 1.499 . S
C3813 H3787 0.950 . S
C3813 C3812 1.414 . S
C3813 C3814 1.374 . S
C3814 H3788 0.950 . S
C3814 C3810 1.385 . S
C3814 C3813 1.374 . S
C3815 C3812 1.499 . S
C3815 C3816 1.373 . S
C3815 C3817 1.389 . S
C3816 H3789 0.950 . S
C3816 C3802 1.377 . S
C3816 C3815 1.373 . S
C3817 C3801 1.377 . S
C3817 C3815 1.389 . S
C3817 C3818 1.524 . S
C3818 C3817 1.524 . S
C3818 C3819 1.397 . S
C3818 C3823 1.363 . S
C3819 H3790 0.950 . S
C3819 C3818 1.397 . S
C3819 C3820 1.334 . S
C3820 H3791 0.950 . S
C3820 C3819 1.334 . S
C3820 C3821 1.287 . S
C3821 C3820 1.287 . S
C3821 C3822 1.524 . S
C3821 H3824 0.999 . S
C3822 H3792 0.950 . S
C3822 C3821 1.524 . S
C3822 C3823 1.415 . S
C3823 H3793 0.950 . S
C3823 C3818 1.363 . S
C3823 C3822 1.415 . S
H3824 C3821 0.999 . S
H3825 C3806 0.913 . S
H3826 C3844 0.951 . S
H3827 C3846 0.951 . S
H3828 C3848 0.950 . S
H3829 C3849 0.950 . S
H3830 C3851 0.950 . S
H3831 C3854 0.950 . S
H3832 C3855 0.950 . S
H3833 C3857 0.950 . S
H3834 C3858 0.950 . S
H3835 C3859 0.951 . S
H3836 C3861 0.951 . S
H3837 C3863 0.950 . S
H3838 C3864 0.950 . S
H3839 C3866 0.950 . S
H3840 C3869 0.950 . S
H3841 C3870 0.950 . S
H3842 C3872 0.950 . S
H3843 C3873 0.950 . S
C3844 H3826 0.951 . S
C3844 C3845 1.366 1_556 S
C3844 C3846 1.388 . S
C3845 C3844 1.366 1_554 S
C3845 C3849 1.385 . S
C3846 H3827 0.951 . S
C3846 C3844 1.388 . S
C3846 C3847 1.366 . S
C3847 C3846 1.366 . S
C3847 C3848 1.414 . S
C3847 C3850 1.499 . S
C3848 H3828 0.950 . S
C3848 C3847 1.414 . S
C3848 C3849 1.374 1_556 S
C3849 H3829 0.950 . S
C3849 C3845 1.385 . S
C3849 C3848 1.374 1_554 S
C3850 C3847 1.499 . S
C3850 C3851 1.373 . S
C3850 C3852 1.389 . S
C3851 H3830 0.950 . S
C3851 C3850 1.373 . S
C3851 C3867 1.377 . S
C3852 C3850 1.389 . S
C3852 C3853 1.524 . S
C3852 C3866 1.377 . S
C3853 C3852 1.524 . S
C3853 C3854 1.397 . S
C3853 C3858 1.363 . S
C3854 H3831 0.950 . S
C3854 C3853 1.397 . S
C3854 C3855 1.334 . S
C3855 H3832 0.950 . S
C3855 C3854 1.334 . S
C3855 C3856 1.287 . S
C3856 C3855 1.287 . S
C3856 C3857 1.524 . S
C3856 H3875 0.913 . S
C3857 H3833 0.950 . S
C3857 C3856 1.524 . S
C3857 C3858 1.415 . S
C3858 H3834 0.950 . S
C3858 C3853 1.363 . S
C3858 C3857 1.415 . S
C3859 H3835 0.951 . S
C3859 C3860 1.366 . S
C3859 C3861 1.388 . S
C3860 C3859 1.366 . S
C3860 C3864 1.385 . S
C3861 H3836 0.951 . S
C3861 C3859 1.388 . S
C3861 C3862 1.366 . S
C3862 C3861 1.366 . S
C3862 C3863 1.414 . S
C3862 C3865 1.499 . S
C3863 H3837 0.950 . S
C3863 C3862 1.414 . S
C3863 C3864 1.374 . S
C3864 H3838 0.950 . S
C3864 C3860 1.385 . S
C3864 C3863 1.374 . S
C3865 C3862 1.499 . S
C3865 C3866 1.373 . S
C3865 C3867 1.389 . S
C3866 H3839 0.950 . S
C3866 C3852 1.377 . S
C3866 C3865 1.373 . S
C3867 C3851 1.377 . S
C3867 C3865 1.389 . S
C3867 C3868 1.524 . S
C3868 C3867 1.524 . S
C3868 C3869 1.397 . S
C3868 C3873 1.363 . S
C3869 H3840 0.950 . S
C3869 C3868 1.397 . S
C3869 C3870 1.334 . S
C3870 H3841 0.950 . S
C3870 C3869 1.334 . S
C3870 C3871 1.287 . S
C3871 C3870 1.287 . S
C3871 C3872 1.524 . S
C3871 H3874 0.999 . S
C3872 H3842 0.950 . S
C3872 C3871 1.524 . S
C3872 C3873 1.415 . S
C3873 H3843 0.950 . S
C3873 C3868 1.363 . S
C3873 C3872 1.415 . S
H3874 C3871 0.999 . S
H3875 C3856 0.913 . S
H3876 C3894 0.951 . S
H3877 C3896 0.951 . S
H3878 C3898 0.950 . S
H3879 C3899 0.950 . S
H3880 C3901 0.950 . S
H3881 C3904 0.950 . S
H3882 C3905 0.950 . S
H3883 C3907 0.950 . S
H3884 C3908 0.950 . S
H3885 C3909 0.951 . S
H3886 C3911 0.951 . S
H3887 C3913 0.950 . S
H3888 C3914 0.950 . S
H3889 C3916 0.950 . S
H3890 C3919 0.950 . S
H3891 C3920 0.950 . S
H3892 C3922 0.950 . S
H3893 C3923 0.950 . S
C3894 H3876 0.951 . S
C3894 C3895 1.366 . S
C3894 C3896 1.388 . S
C3895 C3894 1.366 . S
C3895 C3899 1.385 . S
C3896 H3877 0.951 . S
C3896 C3894 1.388 . S
C3896 C3897 1.366 . S
C3897 C3896 1.366 . S
C3897 C3898 1.414 . S
C3897 C3900 1.499 . S
C3898 H3878 0.950 . S
C3898 C3897 1.414 . S
C3898 C3899 1.374 . S
C3899 H3879 0.950 . S
C3899 C3895 1.385 . S
C3899 C3898 1.374 . S
C3900 C3897 1.499 . S
C3900 C3901 1.373 . S
C3900 C3902 1.389 . S
C3901 H3880 0.950 . S
C3901 C3900 1.373 . S
C3901 C3917 1.377 . S
C3902 C3900 1.389 . S
C3902 C3903 1.524 . S
C3902 C3916 1.377 . S
C3903 C3902 1.524 . S
C3903 C3904 1.397 . S
C3903 C3908 1.363 . S
C3904 H3881 0.950 . S
C3904 C3903 1.397 . S
C3904 C3905 1.334 . S
C3905 H3882 0.950 . S
C3905 C3904 1.334 . S
C3905 C3906 1.287 . S
C3906 C3905 1.287 . S
C3906 C3907 1.524 . S
C3906 H3925 0.913 . S
C3907 H3883 0.950 . S
C3907 C3906 1.524 . S
C3907 C3908 1.415 . S
C3908 H3884 0.950 . S
C3908 C3903 1.363 . S
C3908 C3907 1.415 . S
C3909 H3885 0.951 . S
C3909 C3910 1.366 . S
C3909 C3911 1.388 . S
C3910 C3909 1.366 . S
C3910 C3914 1.385 . S
C3911 H3886 0.951 . S
C3911 C3909 1.388 . S
C3911 C3912 1.366 . S
C3912 C3911 1.366 . S
C3912 C3913 1.414 . S
C3912 C3915 1.499 . S
C3913 H3887 0.950 . S
C3913 C3912 1.414 . S
C3913 C3914 1.374 . S
C3914 H3888 0.950 . S
C3914 C3910 1.385 . S
C3914 C3913 1.374 . S
C3915 C3912 1.499 . S
C3915 C3916 1.373 . S
C3915 C3917 1.389 . S
C3916 H3889 0.950 . S
C3916 C3902 1.377 . S
C3916 C3915 1.373 . S
C3917 C3901 1.377 . S
C3917 C3915 1.389 . S
C3917 C3918 1.524 . S
C3918 C3917 1.524 . S
C3918 C3919 1.397 . S
C3918 C3923 1.363 . S
C3919 H3890 0.950 . S
C3919 C3918 1.397 . S
C3919 C3920 1.334 . S
C3920 H3891 0.950 . S
C3920 C3919 1.334 . S
C3920 C3921 1.287 . S
C3921 C3920 1.287 . S
C3921 C3922 1.524 . S
C3921 H3924 0.999 . S
C3922 H3892 0.950 . S
C3922 C3921 1.524 . S
C3922 C3923 1.415 . S
C3923 H3893 0.950 . S
C3923 C3918 1.363 . S
C3923 C3922 1.415 . S
H3924 C3921 0.999 . S
H3925 C3906 0.913 . S
H3926 C3944 0.951 . S
H3927 C3946 0.951 . S
H3928 C3948 0.950 . S
H3929 C3949 0.950 . S
H3930 C3951 0.950 . S
H3931 C3954 0.950 . S
H3932 C3955 0.950 . S
H3933 C3957 0.950 . S
H3934 C3958 0.950 . S
H3935 C3959 0.951 . S
H3936 C3961 0.951 . S
H3937 C3963 0.950 . S
H3938 C3964 0.950 . S
H3939 C3966 0.950 . S
H3940 C3969 0.950 . S
H3941 C3970 0.950 . S
H3942 C3972 0.950 . S
H3943 C3973 0.950 . S
C3944 H3926 0.951 . S
C3944 C3945 1.366 . S
C3944 C3946 1.388 . S
C3945 C3944 1.366 . S
C3945 C3949 1.385 . S
C3946 H3927 0.951 . S
C3946 C3944 1.388 . S
C3946 C3947 1.366 . S
C3947 C3946 1.366 . S
C3947 C3948 1.414 . S
C3947 C3950 1.499 . S
C3948 H3928 0.950 . S
C3948 C3947 1.414 . S
C3948 C3949 1.374 . S
C3949 H3929 0.950 . S
C3949 C3945 1.385 . S
C3949 C3948 1.374 . S
C3950 C3947 1.499 . S
C3950 C3951 1.373 . S
C3950 C3952 1.389 . S
C3951 H3930 0.950 . S
C3951 C3950 1.373 . S
C3951 C3967 1.377 . S
C3952 C3950 1.389 . S
C3952 C3953 1.524 . S
C3952 C3966 1.377 . S
C3953 C3952 1.524 . S
C3953 C3954 1.397 . S
C3953 C3958 1.363 . S
C3954 H3931 0.950 . S
C3954 C3953 1.397 . S
C3954 C3955 1.334 . S
C3955 H3932 0.950 . S
C3955 C3954 1.334 . S
C3955 C3956 1.287 . S
C3956 C3955 1.287 . S
C3956 C3957 1.524 . S
C3956 H3975 0.913 . S
C3957 H3933 0.950 . S
C3957 C3956 1.524 . S
C3957 C3958 1.415 . S
C3958 H3934 0.950 . S
C3958 C3953 1.363 . S
C3958 C3957 1.415 . S
C3959 H3935 0.951 . S
C3959 C3960 1.366 . S
C3959 C3961 1.388 . S
C3960 C3959 1.366 . S
C3960 C3964 1.385 . S
C3961 H3936 0.951 . S
C3961 C3959 1.388 . S
C3961 C3962 1.366 . S
C3962 C3961 1.366 . S
C3962 C3963 1.414 . S
C3962 C3965 1.499 . S
C3963 H3937 0.950 . S
C3963 C3962 1.414 . S
C3963 C3964 1.374 . S
C3964 H3938 0.950 . S
C3964 C3960 1.385 . S
C3964 C3963 1.374 . S
C3965 C3962 1.499 . S
C3965 C3966 1.373 . S
C3965 C3967 1.389 . S
C3966 H3939 0.950 . S
C3966 C3952 1.377 . S
C3966 C3965 1.373 . S
C3967 C3951 1.377 . S
C3967 C3965 1.389 . S
C3967 C3968 1.524 . S
C3968 C3967 1.524 . S
C3968 C3969 1.397 . S
C3968 C3973 1.363 . S
C3969 H3940 0.950 . S
C3969 C3968 1.397 . S
C3969 C3970 1.334 . S
C3970 H3941 0.950 . S
C3970 C3969 1.334 . S
C3970 C3971 1.287 . S
C3971 C3970 1.287 . S
C3971 C3972 1.524 . S
C3971 H3974 0.999 . S
C3972 H3942 0.950 . S
C3972 C3971 1.524 . S
C3972 C3973 1.415 . S
C3973 H3943 0.950 . S
C3973 C3968 1.363 . S
C3973 C3972 1.415 . S
H3974 C3971 0.999 . S
H3975 C3956 0.913 . S
H3976 C3994 0.951 . S
H3977 C3996 0.951 . S
H3978 C3998 0.950 . S
H3979 C3999 0.950 . S
H3980 C4001 0.950 . S
H3981 C4004 0.950 . S
H3982 C4005 0.950 . S
H3983 C4007 0.950 . S
H3984 C4008 0.950 . S
H3985 C4009 0.951 . S
H3986 C4011 0.951 . S
H3987 C4013 0.950 . S
H3988 C4014 0.950 . S
H3989 C4016 0.950 . S
H3990 C4019 0.950 . S
H3991 C4020 0.950 . S
H3992 C4022 0.950 . S
H3993 C4023 0.950 . S
C3994 H3976 0.951 . S
C3994 C3995 1.366 . S
C3994 C3996 1.388 . S
C3995 C3994 1.366 . S
C3995 C3999 1.385 . S
C3996 H3977 0.951 . S
C3996 C3994 1.388 . S
C3996 C3997 1.366 . S
C3997 C3996 1.366 . S
C3997 C3998 1.414 . S
C3997 C4000 1.499 . S
C3998 H3978 0.950 . S
C3998 C3997 1.414 . S
C3998 C3999 1.374 . S
C3999 H3979 0.950 . S
C3999 C3995 1.385 . S
C3999 C3998 1.374 . S
C4000 C3997 1.499 . S
C4000 C4001 1.373 . S
C4000 C4002 1.389 . S
C4001 H3980 0.950 . S
C4001 C4000 1.373 . S
C4001 C4017 1.377 . S
C4002 C4000 1.389 . S
C4002 C4003 1.524 . S
C4002 C4016 1.377 . S
C4003 C4002 1.524 . S
C4003 C4004 1.397 . S
C4003 C4008 1.363 . S
C4004 H3981 0.950 . S
C4004 C4003 1.397 . S
C4004 C4005 1.334 . S
C4005 H3982 0.950 . S
C4005 C4004 1.334 . S
C4005 C4006 1.287 . S
C4006 C4005 1.287 . S
C4006 C4007 1.524 . S
C4006 H4025 0.913 . S
C4007 H3983 0.950 . S
C4007 C4006 1.524 . S
C4007 C4008 1.415 . S
C4008 H3984 0.950 . S
C4008 C4003 1.363 . S
C4008 C4007 1.415 . S
C4009 H3985 0.951 . S
C4009 C4010 1.366 . S
C4009 C4011 1.388 . S
C4010 C4009 1.366 . S
C4010 C4014 1.385 . S
C4011 H3986 0.951 . S
C4011 C4009 1.388 . S
C4011 C4012 1.366 . S
C4012 C4011 1.366 . S
C4012 C4013 1.414 . S
C4012 C4015 1.499 . S
C4013 H3987 0.950 . S
C4013 C4012 1.414 . S
C4013 C4014 1.374 . S
C4014 H3988 0.950 . S
C4014 C4010 1.385 . S
C4014 C4013 1.374 . S
C4015 C4012 1.499 . S
C4015 C4016 1.373 . S
C4015 C4017 1.389 . S
C4016 H3989 0.950 . S
C4016 C4002 1.377 . S
C4016 C4015 1.373 . S
C4017 C4001 1.377 . S
C4017 C4015 1.389 . S
C4017 C4018 1.524 . S
C4018 C4017 1.524 . S
C4018 C4019 1.397 . S
C4018 C4023 1.363 . S
C4019 H3990 0.950 . S
C4019 C4018 1.397 . S
C4019 C4020 1.334 . S
C4020 H3991 0.950 . S
C4020 C4019 1.334 . S
C4020 C4021 1.287 . S
C4021 C4020 1.287 . S
C4021 C4022 1.524 . S
C4021 H4024 0.999 . S
C4022 H3992 0.950 . S
C4022 C4021 1.524 . S
C4022 C4023 1.415 . S
C4023 H3993 0.950 . S
C4023 C4018 1.363 . S
C4023 C4022 1.415 . S
H4024 C4021 0.999 . S
H4025 C4006 0.913 . S
H4026 C4044 0.951 . S
H4027 C4046 0.951 . S
H4028 C4048 0.950 . S
H4029 C4049 0.950 . S
H4030 C4051 0.950 . S
H4031 C4054 0.950 . S
H4032 C4055 0.950 . S
H4033 C4057 0.950 . S
H4034 C4058 0.950 . S
H4035 C4059 0.951 . S
H4036 C4061 0.951 . S
H4037 C4063 0.950 . S
H4038 C4064 0.950 . S
H4039 C4066 0.950 . S
H4040 C4069 0.950 . S
H4041 C4070 0.950 . S
H4042 C4072 0.950 . S
H4043 C4073 0.950 . S
C4044 H4026 0.951 . S
C4044 C4045 1.366 . S
C4044 C4046 1.388 . S
C4045 C4044 1.366 . S
C4045 C4049 1.385 . S
C4046 H4027 0.951 . S
C4046 C4044 1.388 . S
C4046 C4047 1.366 . S
C4047 C4046 1.366 . S
C4047 C4048 1.414 . S
C4047 C4050 1.499 . S
C4048 H4028 0.950 . S
C4048 C4047 1.414 . S
C4048 C4049 1.374 . S
C4049 H4029 0.950 . S
C4049 C4045 1.385 . S
C4049 C4048 1.374 . S
C4050 C4047 1.499 . S
C4050 C4051 1.373 . S
C4050 C4052 1.389 . S
C4051 H4030 0.950 . S
C4051 C4050 1.373 . S
C4051 C4067 1.377 . S
C4052 C4050 1.389 . S
C4052 C4053 1.524 . S
C4052 C4066 1.377 . S
C4053 C4052 1.524 . S
C4053 C4054 1.397 . S
C4053 C4058 1.363 . S
C4054 H4031 0.950 . S
C4054 C4053 1.397 . S
C4054 C4055 1.334 . S
C4055 H4032 0.950 . S
C4055 C4054 1.334 . S
C4055 C4056 1.287 . S
C4056 C4055 1.287 . S
C4056 C4057 1.524 . S
C4056 H4075 0.913 . S
C4057 H4033 0.950 . S
C4057 C4056 1.524 . S
C4057 C4058 1.415 . S
C4058 H4034 0.950 . S
C4058 C4053 1.363 . S
C4058 C4057 1.415 . S
C4059 H4035 0.951 . S
C4059 C4060 1.366 . S
C4059 C4061 1.388 . S
C4060 C4059 1.366 . S
C4060 C4064 1.385 . S
C4061 H4036 0.951 . S
C4061 C4059 1.388 . S
C4061 C4062 1.366 . S
C4062 C4061 1.366 . S
C4062 C4063 1.414 . S
C4062 C4065 1.499 . S
C4063 H4037 0.950 . S
C4063 C4062 1.414 . S
C4063 C4064 1.374 . S
C4064 H4038 0.950 . S
C4064 C4060 1.385 . S
C4064 C4063 1.374 . S
C4065 C4062 1.499 . S
C4065 C4066 1.373 . S
C4065 C4067 1.389 . S
C4066 H4039 0.950 . S
C4066 C4052 1.377 . S
C4066 C4065 1.373 . S
C4067 C4051 1.377 . S
C4067 C4065 1.389 . S
C4067 C4068 1.524 . S
C4068 C4067 1.524 . S
C4068 C4069 1.397 . S
C4068 C4073 1.363 . S
C4069 H4040 0.950 . S
C4069 C4068 1.397 . S
C4069 C4070 1.334 . S
C4070 H4041 0.950 . S
C4070 C4069 1.334 . S
C4070 C4071 1.287 . S
C4071 C4070 1.287 . S
C4071 C4072 1.524 . S
C4071 H4074 0.999 . S
C4072 H4042 0.950 . S
C4072 C4071 1.524 . S
C4072 C4073 1.415 . S
C4073 H4043 0.950 . S
C4073 C4068 1.363 . S
C4073 C4072 1.415 . S
H4074 C4071 0.999 . S
H4075 C4056 0.913 . S
H4076 C4094 0.951 . S
H4077 C4096 0.951 . S
H4078 C4098 0.950 . S
H4079 C4099 0.950 . S
H4080 C4101 0.950 . S
H4081 C4104 0.950 . S
H4082 C4105 0.950 . S
H4083 C4107 0.950 . S
H4084 C4108 0.950 . S
H4085 C4109 0.951 . S
H4086 C4111 0.951 . S
H4087 C4113 0.950 . S
H4088 C4114 0.950 . S
H4089 C4116 0.950 . S
H4090 C4119 0.950 . S
H4091 C4120 0.950 . S
H4092 C4122 0.950 . S
H4093 C4123 0.950 . S
C4094 H4076 0.951 . S
C4094 C4095 1.366 . S
C4094 C4096 1.388 . S
C4095 C4094 1.366 . S
C4095 C4099 1.385 . S
C4096 H4077 0.951 . S
C4096 C4094 1.388 . S
C4096 C4097 1.366 . S
C4097 C4096 1.366 . S
C4097 C4098 1.414 . S
C4097 C4100 1.499 . S
C4098 H4078 0.950 . S
C4098 C4097 1.414 . S
C4098 C4099 1.374 . S
C4099 H4079 0.950 . S
C4099 C4095 1.385 . S
C4099 C4098 1.374 . S
C4100 C4097 1.499 . S
C4100 C4101 1.373 . S
C4100 C4102 1.389 . S
C4101 H4080 0.950 . S
C4101 C4100 1.373 . S
C4101 C4117 1.377 . S
C4102 C4100 1.389 . S
C4102 C4103 1.524 . S
C4102 C4116 1.377 . S
C4103 C4102 1.524 . S
C4103 C4104 1.397 . S
C4103 C4108 1.363 . S
C4104 H4081 0.950 . S
C4104 C4103 1.397 . S
C4104 C4105 1.334 . S
C4105 H4082 0.950 . S
C4105 C4104 1.334 . S
C4105 C4106 1.287 . S
C4106 C4105 1.287 . S
C4106 C4107 1.524 . S
C4106 H4125 0.913 . S
C4107 H4083 0.950 . S
C4107 C4106 1.524 . S
C4107 C4108 1.415 . S
C4108 H4084 0.950 . S
C4108 C4103 1.363 . S
C4108 C4107 1.415 . S
C4109 H4085 0.951 . S
C4109 C4110 1.366 . S
C4109 C4111 1.388 . S
C4110 C4109 1.366 . S
C4110 C4114 1.385 . S
C4111 H4086 0.951 . S
C4111 C4109 1.388 . S
C4111 C4112 1.366 . S
C4112 C4111 1.366 . S
C4112 C4113 1.414 . S
C4112 C4115 1.499 . S
C4113 H4087 0.950 . S
C4113 C4112 1.414 . S
C4113 C4114 1.374 . S
C4114 H4088 0.950 . S
C4114 C4110 1.385 . S
C4114 C4113 1.374 . S
C4115 C4112 1.499 . S
C4115 C4116 1.373 . S
C4115 C4117 1.389 . S
C4116 H4089 0.950 . S
C4116 C4102 1.377 . S
C4116 C4115 1.373 . S
C4117 C4101 1.377 . S
C4117 C4115 1.389 . S
C4117 C4118 1.524 . S
C4118 C4117 1.524 . S
C4118 C4119 1.397 . S
C4118 C4123 1.363 . S
C4119 H4090 0.950 . S
C4119 C4118 1.397 . S
C4119 C4120 1.334 . S
C4120 H4091 0.950 . S
C4120 C4119 1.334 . S
C4120 C4121 1.287 . S
C4121 C4120 1.287 . S
C4121 C4122 1.524 . S
C4121 H4124 0.999 . S
C4122 H4092 0.950 . S
C4122 C4121 1.524 . S
C4122 C4123 1.415 . S
C4123 H4093 0.950 . S
C4123 C4118 1.363 . S
C4123 C4122 1.415 . S
H4124 C4121 0.999 . S
H4125 C4106 0.913 . S
H4126 C4144 0.951 . S
H4127 C4146 0.951 . S
H4128 C4148 0.950 . S
H4129 C4149 0.950 . S
H4130 C4151 0.950 . S
H4131 C4154 0.950 . S
H4132 C4155 0.950 . S
H4133 C4157 0.950 . S
H4134 C4158 0.950 . S
H4135 C4159 0.951 . S
H4136 C4161 0.951 . S
H4137 C4163 0.950 . S
H4138 C4164 0.950 . S
H4139 C4166 0.950 . S
H4140 C4169 0.950 . S
H4141 C4170 0.950 . S
H4142 C4172 0.950 . S
H4143 C4173 0.950 . S
C4144 H4126 0.951 . S
C4144 C4145 1.366 . S
C4144 C4146 1.388 . S
C4145 C4144 1.366 . S
C4145 C4149 1.385 . S
C4146 H4127 0.951 . S
C4146 C4144 1.388 . S
C4146 C4147 1.366 . S
C4147 C4146 1.366 . S
C4147 C4148 1.414 . S
C4147 C4150 1.499 . S
C4148 H4128 0.950 . S
C4148 C4147 1.414 . S
C4148 C4149 1.374 . S
C4149 H4129 0.950 . S
C4149 C4145 1.385 . S
C4149 C4148 1.374 . S
C4150 C4147 1.499 . S
C4150 C4151 1.373 . S
C4150 C4152 1.389 . S
C4151 H4130 0.950 . S
C4151 C4150 1.373 . S
C4151 C4167 1.377 . S
C4152 C4150 1.389 . S
C4152 C4153 1.524 . S
C4152 C4166 1.377 . S
C4153 C4152 1.524 . S
C4153 C4154 1.397 . S
C4153 C4158 1.363 . S
C4154 H4131 0.950 . S
C4154 C4153 1.397 . S
C4154 C4155 1.334 . S
C4155 H4132 0.950 . S
C4155 C4154 1.334 . S
C4155 C4156 1.287 . S
C4156 C4155 1.287 . S
C4156 C4157 1.524 . S
C4156 H4175 0.913 . S
C4157 H4133 0.950 . S
C4157 C4156 1.524 . S
C4157 C4158 1.415 . S
C4158 H4134 0.950 . S
C4158 C4153 1.363 . S
C4158 C4157 1.415 . S
C4159 H4135 0.951 . S
C4159 C4160 1.366 . S
C4159 C4161 1.388 . S
C4160 C4159 1.366 . S
C4160 C4164 1.385 . S
C4161 H4136 0.951 . S
C4161 C4159 1.388 . S
C4161 C4162 1.366 . S
C4162 C4161 1.366 . S
C4162 C4163 1.414 . S
C4162 C4165 1.499 . S
C4163 H4137 0.950 . S
C4163 C4162 1.414 . S
C4163 C4164 1.374 . S
C4164 H4138 0.950 . S
C4164 C4160 1.385 . S
C4164 C4163 1.374 . S
C4165 C4162 1.499 . S
C4165 C4166 1.373 . S
C4165 C4167 1.389 . S
C4166 H4139 0.950 . S
C4166 C4152 1.377 . S
C4166 C4165 1.373 . S
C4167 C4151 1.377 . S
C4167 C4165 1.389 . S
C4167 C4168 1.524 . S
C4168 C4167 1.524 . S
C4168 C4169 1.397 . S
C4168 C4173 1.363 . S
C4169 H4140 0.950 . S
C4169 C4168 1.397 . S
C4169 C4170 1.334 . S
C4170 H4141 0.950 . S
C4170 C4169 1.334 . S
C4170 C4171 1.287 . S
C4171 C4170 1.287 . S
C4171 C4172 1.524 . S
C4171 H4174 0.999 . S
C4172 H4142 0.950 . S
C4172 C4171 1.524 . S
C4172 C4173 1.415 . S
C4173 H4143 0.950 . S
C4173 C4168 1.363 . S
C4173 C4172 1.415 . S
H4174 C4171 0.999 . S
H4175 C4156 0.913 . S
H4176 C4194 0.951 . S
H4177 C4196 0.951 . S
H4178 C4198 0.950 . S
H4179 C4199 0.950 . S
H4180 C4201 0.950 . S
H4181 C4204 0.950 . S
H4182 C4205 0.950 . S
H4183 C4207 0.950 . S
H4184 C4208 0.950 . S
H4185 C4209 0.951 . S
H4186 C4211 0.951 . S
H4187 C4213 0.950 . S
H4188 C4214 0.950 . S
H4189 C4216 0.950 . S
H4190 C4219 0.950 . S
H4191 C4220 0.950 . S
H4192 C4222 0.950 . S
H4193 C4223 0.950 . S
C4194 H4176 0.951 . S
C4194 C4195 1.366 . S
C4194 C4196 1.388 . S
C4195 C4194 1.366 . S
C4195 C4199 1.385 . S
C4196 H4177 0.951 . S
C4196 C4194 1.388 . S
C4196 C4197 1.366 . S
C4197 C4196 1.366 . S
C4197 C4198 1.414 . S
C4197 C4200 1.499 . S
C4198 H4178 0.950 . S
C4198 C4197 1.414 . S
C4198 C4199 1.374 . S
C4199 H4179 0.950 . S
C4199 C4195 1.385 . S
C4199 C4198 1.374 . S
C4200 C4197 1.499 . S
C4200 C4201 1.373 . S
C4200 C4202 1.389 . S
C4201 H4180 0.950 . S
C4201 C4200 1.373 . S
C4201 C4217 1.377 . S
C4202 C4200 1.389 . S
C4202 C4203 1.524 . S
C4202 C4216 1.377 . S
C4203 C4202 1.524 . S
C4203 C4204 1.397 . S
C4203 C4208 1.363 . S
C4204 H4181 0.950 . S
C4204 C4203 1.397 . S
C4204 C4205 1.334 . S
C4205 H4182 0.950 . S
C4205 C4204 1.334 . S
C4205 C4206 1.287 . S
C4206 C4205 1.287 . S
C4206 C4207 1.524 . S
C4206 H4225 0.913 . S
C4207 H4183 0.950 . S
C4207 C4206 1.524 . S
C4207 C4208 1.415 . S
C4208 H4184 0.950 . S
C4208 C4203 1.363 . S
C4208 C4207 1.415 . S
C4209 H4185 0.951 . S
C4209 C4210 1.366 . S
C4209 C4211 1.388 . S
C4210 C4209 1.366 . S
C4210 C4214 1.385 . S
C4211 H4186 0.951 . S
C4211 C4209 1.388 . S
C4211 C4212 1.366 . S
C4212 C4211 1.366 . S
C4212 C4213 1.414 . S
C4212 C4215 1.499 . S
C4213 H4187 0.950 . S
C4213 C4212 1.414 . S
C4213 C4214 1.374 . S
C4214 H4188 0.950 . S
C4214 C4210 1.385 . S
C4214 C4213 1.374 . S
C4215 C4212 1.499 . S
C4215 C4216 1.373 . S
C4215 C4217 1.389 . S
C4216 H4189 0.950 . S
C4216 C4202 1.377 . S
C4216 C4215 1.373 . S
C4217 C4201 1.377 . S
C4217 C4215 1.389 . S
C4217 C4218 1.524 . S
C4218 C4217 1.524 . S
C4218 C4219 1.397 . S
C4218 C4223 1.363 . S
C4219 H4190 0.950 . S
C4219 C4218 1.397 . S
C4219 C4220 1.334 . S
C4220 H4191 0.950 . S
C4220 C4219 1.334 . S
C4220 C4221 1.287 . S
C4221 C4220 1.287 . S
C4221 C4222 1.524 . S
C4221 H4224 0.999 . S
C4222 H4192 0.950 . S
C4222 C4221 1.524 . S
C4222 C4223 1.415 . S
C4223 H4193 0.950 . S
C4223 C4218 1.363 . S
C4223 C4222 1.415 . S
H4224 C4221 0.999 . S
H4225 C4206 0.913 . S
H4226 C4244 0.951 . S
H4227 C4246 0.951 . S
H4228 C4248 0.950 . S
H4229 C4249 0.950 . S
H4230 C4251 0.950 . S
H4231 C4254 0.950 . S
H4232 C4255 0.950 . S
H4233 C4257 0.950 . S
H4234 C4258 0.950 . S
H4235 C4259 0.951 . S
H4236 C4261 0.951 . S
H4237 C4263 0.950 . S
H4238 C4264 0.950 . S
H4239 C4266 0.950 . S
H4240 C4269 0.950 . S
H4241 C4270 0.950 . S
H4242 C4272 0.950 . S
H4243 C4273 0.950 . S
C4244 H4226 0.951 . S
C4244 C4245 1.366 . S
C4244 C4246 1.388 . S
C4245 C4244 1.366 . S
C4245 C4249 1.385 . S
C4246 H4227 0.951 . S
C4246 C4244 1.388 . S
C4246 C4247 1.366 . S
C4247 C4246 1.366 . S
C4247 C4248 1.414 . S
C4247 C4250 1.499 . S
C4248 H4228 0.950 . S
C4248 C4247 1.414 . S
C4248 C4249 1.374 . S
C4249 H4229 0.950 . S
C4249 C4245 1.385 . S
C4249 C4248 1.374 . S
C4250 C4247 1.499 . S
C4250 C4251 1.373 . S
C4250 C4252 1.389 . S
C4251 H4230 0.950 . S
C4251 C4250 1.373 . S
C4251 C4267 1.377 . S
C4252 C4250 1.389 . S
C4252 C4253 1.524 . S
C4252 C4266 1.377 . S
C4253 C4252 1.524 . S
C4253 C4254 1.397 . S
C4253 C4258 1.363 . S
C4254 H4231 0.950 . S
C4254 C4253 1.397 . S
C4254 C4255 1.334 . S
C4255 H4232 0.950 . S
C4255 C4254 1.334 . S
C4255 C4256 1.287 . S
C4256 C4255 1.287 . S
C4256 C4257 1.524 . S
C4256 H4275 0.913 . S
C4257 H4233 0.950 . S
C4257 C4256 1.524 . S
C4257 C4258 1.415 . S
C4258 H4234 0.950 . S
C4258 C4253 1.363 . S
C4258 C4257 1.415 . S
C4259 H4235 0.951 . S
C4259 C4260 1.366 . S
C4259 C4261 1.388 . S
C4260 C4259 1.366 . S
C4260 C4264 1.385 . S
C4261 H4236 0.951 . S
C4261 C4259 1.388 . S
C4261 C4262 1.366 . S
C4262 C4261 1.366 . S
C4262 C4263 1.414 . S
C4262 C4265 1.499 . S
C4263 H4237 0.950 . S
C4263 C4262 1.414 . S
C4263 C4264 1.374 . S
C4264 H4238 0.950 . S
C4264 C4260 1.385 . S
C4264 C4263 1.374 . S
C4265 C4262 1.499 . S
C4265 C4266 1.373 . S
C4265 C4267 1.389 . S
C4266 H4239 0.950 . S
C4266 C4252 1.377 . S
C4266 C4265 1.373 . S
C4267 C4251 1.377 . S
C4267 C4265 1.389 . S
C4267 C4268 1.524 . S
C4268 C4267 1.524 . S
C4268 C4269 1.397 . S
C4268 C4273 1.363 . S
C4269 H4240 0.950 . S
C4269 C4268 1.397 . S
C4269 C4270 1.334 . S
C4270 H4241 0.950 . S
C4270 C4269 1.334 . S
C4270 C4271 1.287 . S
C4271 C4270 1.287 . S
C4271 C4272 1.524 . S
C4271 H4274 0.999 . S
C4272 H4242 0.950 . S
C4272 C4271 1.524 . S
C4272 C4273 1.415 . S
C4273 H4243 0.950 . S
C4273 C4268 1.363 . S
C4273 C4272 1.415 . S
H4274 C4271 0.999 . S
H4275 C4256 0.913 . S
H4276 C4294 0.951 . S
H4277 C4296 0.951 . S
H4278 C4298 0.950 . S
H4279 C4299 0.950 . S
H4280 C4301 0.950 . S
H4281 C4304 0.950 . S
H4282 C4305 0.950 . S
H4283 C4307 0.950 . S
H4284 C4308 0.950 . S
H4285 C4309 0.951 . S
H4286 C4311 0.951 . S
H4287 C4313 0.950 . S
H4288 C4314 0.950 . S
H4289 C4316 0.950 . S
H4290 C4319 0.950 . S
H4291 C4320 0.950 . S
H4292 C4322 0.950 . S
H4293 C4323 0.950 . S
C4294 H4276 0.951 . S
C4294 C4295 1.366 . S
C4294 C4296 1.388 . S
C4295 C4294 1.366 . S
C4295 C4299 1.385 . S
C4296 H4277 0.951 . S
C4296 C4294 1.388 . S
C4296 C4297 1.366 . S
C4297 C4296 1.366 . S
C4297 C4298 1.414 . S
C4297 C4300 1.499 . S
C4298 H4278 0.950 . S
C4298 C4297 1.414 . S
C4298 C4299 1.374 . S
C4299 H4279 0.950 . S
C4299 C4295 1.385 . S
C4299 C4298 1.374 . S
C4300 C4297 1.499 . S
C4300 C4301 1.373 . S
C4300 C4302 1.389 . S
C4301 H4280 0.950 . S
C4301 C4300 1.373 . S
C4301 C4317 1.377 . S
C4302 C4300 1.389 . S
C4302 C4303 1.524 . S
C4302 C4316 1.377 . S
C4303 C4302 1.524 . S
C4303 C4304 1.397 . S
C4303 C4308 1.363 . S
C4304 H4281 0.950 . S
C4304 C4303 1.397 . S
C4304 C4305 1.334 . S
C4305 H4282 0.950 . S
C4305 C4304 1.334 . S
C4305 C4306 1.287 . S
C4306 C4305 1.287 . S
C4306 C4307 1.524 . S
C4306 H4325 0.913 . S
C4307 H4283 0.950 . S
C4307 C4306 1.524 . S
C4307 C4308 1.415 . S
C4308 H4284 0.950 . S
C4308 C4303 1.363 . S
C4308 C4307 1.415 . S
C4309 H4285 0.951 . S
C4309 C4310 1.366 . S
C4309 C4311 1.388 . S
C4310 C4309 1.366 . S
C4310 C4314 1.385 . S
C4311 H4286 0.951 . S
C4311 C4309 1.388 . S
C4311 C4312 1.366 . S
C4312 C4311 1.366 . S
C4312 C4313 1.414 . S
C4312 C4315 1.499 . S
C4313 H4287 0.950 . S
C4313 C4312 1.414 . S
C4313 C4314 1.374 . S
C4314 H4288 0.950 . S
C4314 C4310 1.385 . S
C4314 C4313 1.374 . S
C4315 C4312 1.499 . S
C4315 C4316 1.373 . S
C4315 C4317 1.389 . S
C4316 H4289 0.950 . S
C4316 C4302 1.377 . S
C4316 C4315 1.373 . S
C4317 C4301 1.377 . S
C4317 C4315 1.389 . S
C4317 C4318 1.524 . S
C4318 C4317 1.524 . S
C4318 C4319 1.397 . S
C4318 C4323 1.363 . S
C4319 H4290 0.950 . S
C4319 C4318 1.397 . S
C4319 C4320 1.334 . S
C4320 H4291 0.950 . S
C4320 C4319 1.334 . S
C4320 C4321 1.287 . S
C4321 C4320 1.287 . S
C4321 C4322 1.524 . S
C4321 H4324 0.999 . S
C4322 H4292 0.950 . S
C4322 C4321 1.524 . S
C4322 C4323 1.415 . S
C4323 H4293 0.950 . S
C4323 C4318 1.363 . S
C4323 C4322 1.415 . S
H4324 C4321 0.999 . S
H4325 C4306 0.913 . S
H4326 C4344 0.951 . S
H4327 C4346 0.951 . S
H4328 C4348 0.950 . S
H4329 C4349 0.950 . S
H4330 C4351 0.950 . S
H4331 C4354 0.950 . S
H4332 C4355 0.950 . S
H4333 C4357 0.950 . S
H4334 C4358 0.950 . S
H4335 C4359 0.951 . S
H4336 C4361 0.951 . S
H4337 C4363 0.950 . S
H4338 C4364 0.950 . S
H4339 C4366 0.950 . S
H4340 C4369 0.950 . S
H4341 C4370 0.950 . S
H4342 C4372 0.950 . S
H4343 C4373 0.950 . S
C4344 H4326 0.951 . S
C4344 C4345 1.366 . S
C4344 C4346 1.388 . S
C4345 C4344 1.366 . S
C4345 C4349 1.385 . S
C4346 H4327 0.951 . S
C4346 C4344 1.388 . S
C4346 C4347 1.366 . S
C4347 C4346 1.366 . S
C4347 C4348 1.414 . S
C4347 C4350 1.499 . S
C4348 H4328 0.950 . S
C4348 C4347 1.414 . S
C4348 C4349 1.374 . S
C4349 H4329 0.950 . S
C4349 C4345 1.385 . S
C4349 C4348 1.374 . S
C4350 C4347 1.499 . S
C4350 C4351 1.373 1_554 S
C4350 C4352 1.389 . S
C4351 H4330 0.950 . S
C4351 C4350 1.373 1_556 S
C4351 C4367 1.377 . S
C4352 C4350 1.389 . S
C4352 C4353 1.524 . S
C4352 C4366 1.377 . S
C4353 C4352 1.524 . S
C4353 C4354 1.397 . S
C4353 C4358 1.363 . S
C4354 H4331 0.950 . S
C4354 C4353 1.397 . S
C4354 C4355 1.334 . S
C4355 H4332 0.950 . S
C4355 C4354 1.334 . S
C4355 C4356 1.287 . S
C4356 C4355 1.287 . S
C4356 C4357 1.524 . S
C4356 H4375 0.913 . S
C4357 H4333 0.950 . S
C4357 C4356 1.524 . S
C4357 C4358 1.415 . S
C4358 H4334 0.950 . S
C4358 C4353 1.363 . S
C4358 C4357 1.415 . S
C4359 H4335 0.951 . S
C4359 C4360 1.366 . S
C4359 C4361 1.388 . S
C4360 C4359 1.366 . S
C4360 C4364 1.385 . S
C4361 H4336 0.951 . S
C4361 C4359 1.388 . S
C4361 C4362 1.366 . S
C4362 C4361 1.366 . S
C4362 C4363 1.414 . S
C4362 C4365 1.499 . S
C4363 H4337 0.950 . S
C4363 C4362 1.414 . S
C4363 C4364 1.374 . S
C4364 H4338 0.950 . S
C4364 C4360 1.385 . S
C4364 C4363 1.374 . S
C4365 C4362 1.499 . S
C4365 C4366 1.373 . S
C4365 C4367 1.389 1_554 S
C4366 H4339 0.950 . S
C4366 C4352 1.377 . S
C4366 C4365 1.373 . S
C4367 C4351 1.377 . S
C4367 C4365 1.389 1_556 S
C4367 C4368 1.524 . S
C4368 C4367 1.524 . S
C4368 C4369 1.397 . S
C4368 C4373 1.363 . S
C4369 H4340 0.950 . S
C4369 C4368 1.397 . S
C4369 C4370 1.334 . S
C4370 H4341 0.950 . S
C4370 C4369 1.334 . S
C4370 C4371 1.287 . S
C4371 C4370 1.287 . S
C4371 C4372 1.524 . S
C4371 H4374 0.999 . S
C4372 H4342 0.950 . S
C4372 C4371 1.524 . S
C4372 C4373 1.415 . S
C4373 H4343 0.950 . S
C4373 C4368 1.363 . S
C4373 C4372 1.415 . S
H4374 C4371 0.999 . S
H4375 C4356 0.913 . S
H4376 C4394 0.951 . S
H4377 C4396 0.951 . S
H4378 C4398 0.950 . S
H4379 C4399 0.950 . S
H4380 C4401 0.950 . S
H4381 C4404 0.950 . S
H4382 C4405 0.950 . S
H4383 C4407 0.950 . S
H4384 C4408 0.950 . S
H4385 C4409 0.951 . S
H4386 C4411 0.951 . S
H4387 C4413 0.950 . S
H4388 C4414 0.950 . S
H4389 C4416 0.950 . S
H4390 C4419 0.950 . S
H4391 C4420 0.950 . S
H4392 C4422 0.950 . S
H4393 C4423 0.950 . S
C4394 H4376 0.951 . S
C4394 C4395 1.366 . S
C4394 C4396 1.388 . S
C4395 C4394 1.366 . S
C4395 C4399 1.385 . S
C4396 H4377 0.951 . S
C4396 C4394 1.388 . S
C4396 C4397 1.366 . S
C4397 C4396 1.366 . S
C4397 C4398 1.414 . S
C4397 C4400 1.499 . S
C4398 H4378 0.950 . S
C4398 C4397 1.414 . S
C4398 C4399 1.374 . S
C4399 H4379 0.950 . S
C4399 C4395 1.385 . S
C4399 C4398 1.374 . S
C4400 C4397 1.499 . S
C4400 C4401 1.373 . S
C4400 C4402 1.389 . S
C4401 H4380 0.950 . S
C4401 C4400 1.373 . S
C4401 C4417 1.377 . S
C4402 C4400 1.389 . S
C4402 C4403 1.524 . S
C4402 C4416 1.377 . S
C4403 C4402 1.524 . S
C4403 C4404 1.397 . S
C4403 C4408 1.363 . S
C4404 H4381 0.950 . S
C4404 C4403 1.397 . S
C4404 C4405 1.334 . S
C4405 H4382 0.950 . S
C4405 C4404 1.334 . S
C4405 C4406 1.287 . S
C4406 C4405 1.287 . S
C4406 C4407 1.524 . S
C4406 H4425 0.913 . S
C4407 H4383 0.950 . S
C4407 C4406 1.524 . S
C4407 C4408 1.415 . S
C4408 H4384 0.950 . S
C4408 C4403 1.363 . S
C4408 C4407 1.415 . S
C4409 H4385 0.951 . S
C4409 C4410 1.366 . S
C4409 C4411 1.388 . S
C4410 C4409 1.366 . S
C4410 C4414 1.385 . S
C4411 H4386 0.951 . S
C4411 C4409 1.388 . S
C4411 C4412 1.366 . S
C4412 C4411 1.366 . S
C4412 C4413 1.414 . S
C4412 C4415 1.499 . S
C4413 H4387 0.950 . S
C4413 C4412 1.414 . S
C4413 C4414 1.374 . S
C4414 H4388 0.950 . S
C4414 C4410 1.385 . S
C4414 C4413 1.374 . S
C4415 C4412 1.499 . S
C4415 C4416 1.373 . S
C4415 C4417 1.389 . S
C4416 H4389 0.950 . S
C4416 C4402 1.377 . S
C4416 C4415 1.373 . S
C4417 C4401 1.377 . S
C4417 C4415 1.389 . S
C4417 C4418 1.524 . S
C4418 C4417 1.524 . S
C4418 C4419 1.397 . S
C4418 C4423 1.363 . S
C4419 H4390 0.950 . S
C4419 C4418 1.397 . S
C4419 C4420 1.334 . S
C4420 H4391 0.950 . S
C4420 C4419 1.334 . S
C4420 C4421 1.287 . S
C4421 C4420 1.287 . S
C4421 C4422 1.524 . S
C4421 H4424 0.999 . S
C4422 H4392 0.950 . S
C4422 C4421 1.524 . S
C4422 C4423 1.415 . S
C4423 H4393 0.950 . S
C4423 C4418 1.363 . S
C4423 C4422 1.415 . S
H4424 C4421 0.999 . S
H4425 C4406 0.913 . S
H4426 C4444 0.951 . S
H4427 C4446 0.951 . S
H4428 C4448 0.950 . S
H4429 C4449 0.950 . S
H4430 C4451 0.950 . S
H4431 C4454 0.950 . S
H4432 C4455 0.950 . S
H4433 C4457 0.950 . S
H4434 C4458 0.950 . S
H4435 C4459 0.951 . S
H4436 C4461 0.951 . S
H4437 C4463 0.950 . S
H4438 C4464 0.950 . S
H4439 C4466 0.950 . S
H4440 C4469 0.950 . S
H4441 C4470 0.950 . S
H4442 C4472 0.950 . S
H4443 C4473 0.950 . S
C4444 H4426 0.951 . S
C4444 C4445 1.366 . S
C4444 C4446 1.388 . S
C4445 C4444 1.366 . S
C4445 C4449 1.385 . S
C4446 H4427 0.951 . S
C4446 C4444 1.388 . S
C4446 C4447 1.366 . S
C4447 C4446 1.366 . S
C4447 C4448 1.414 . S
C4447 C4450 1.499 . S
C4448 H4428 0.950 . S
C4448 C4447 1.414 . S
C4448 C4449 1.374 . S
C4449 H4429 0.950 . S
C4449 C4445 1.385 . S
C4449 C4448 1.374 . S
C4450 C4447 1.499 . S
C4450 C4451 1.373 . S
C4450 C4452 1.389 . S
C4451 H4430 0.950 . S
C4451 C4450 1.373 . S
C4451 C4467 1.377 . S
C4452 C4450 1.389 . S
C4452 C4453 1.524 . S
C4452 C4466 1.377 . S
C4453 C4452 1.524 . S
C4453 C4454 1.397 1_554 S
C4453 C4458 1.363 . S
C4454 H4431 0.950 . S
C4454 C4453 1.397 1_556 S
C4454 C4455 1.334 . S
C4455 H4432 0.950 . S
C4455 C4454 1.334 . S
C4455 C4456 1.287 . S
C4456 C4455 1.287 . S
C4456 C4457 1.524 . S
C4456 H4475 0.913 . S
C4457 H4433 0.950 . S
C4457 C4456 1.524 . S
C4457 C4458 1.415 1_556 S
C4458 H4434 0.950 . S
C4458 C4453 1.363 . S
C4458 C4457 1.415 1_554 S
C4459 H4435 0.951 . S
C4459 C4460 1.366 . S
C4459 C4461 1.388 . S
C4460 C4459 1.366 . S
C4460 C4464 1.385 . S
C4461 H4436 0.951 . S
C4461 C4459 1.388 . S
C4461 C4462 1.366 . S
C4462 C4461 1.366 . S
C4462 C4463 1.414 . S
C4462 C4465 1.499 . S
C4463 H4437 0.950 . S
C4463 C4462 1.414 . S
C4463 C4464 1.374 . S
C4464 H4438 0.950 . S
C4464 C4460 1.385 . S
C4464 C4463 1.374 . S
C4465 C4462 1.499 . S
C4465 C4466 1.373 . S
C4465 C4467 1.389 . S
C4466 H4439 0.950 . S
C4466 C4452 1.377 . S
C4466 C4465 1.373 . S
C4467 C4451 1.377 . S
C4467 C4465 1.389 . S
C4467 C4468 1.524 . S
C4468 C4467 1.524 . S
C4468 C4469 1.397 . S
C4468 C4473 1.363 . S
C4469 H4440 0.950 . S
C4469 C4468 1.397 . S
C4469 C4470 1.334 . S
C4470 H4441 0.950 . S
C4470 C4469 1.334 . S
C4470 C4471 1.287 . S
C4471 C4470 1.287 . S
C4471 C4472 1.524 . S
C4471 H4474 0.999 . S
C4472 H4442 0.950 . S
C4472 C4471 1.524 . S
C4472 C4473 1.415 . S
C4473 H4443 0.950 . S
C4473 C4468 1.363 . S
C4473 C4472 1.415 . S
H4474 C4471 0.999 . S
H4475 C4456 0.913 . S
H4476 C4494 0.951 . S
H4477 C4496 0.951 . S
H4478 C4498 0.950 . S
H4479 C4499 0.950 . S
H4480 C4501 0.950 . S
H4481 C4504 0.950 . S
H4482 C4505 0.950 . S
H4483 C4507 0.950 . S
H4484 C4508 0.950 . S
H4485 C4509 0.951 . S
H4486 C4511 0.951 . S
H4487 C4513 0.950 . S
H4488 C4514 0.950 . S
H4489 C4516 0.950 . S
H4490 C4519 0.950 . S
H4491 C4520 0.950 . S
H4492 C4522 0.950 . S
H4493 C4523 0.950 . S
C4494 H4476 0.951 . S
C4494 C4495 1.366 . S
C4494 C4496 1.388 . S
C4495 C4494 1.366 . S
C4495 C4499 1.385 . S
C4496 H4477 0.951 . S
C4496 C4494 1.388 . S
C4496 C4497 1.366 . S
C4497 C4496 1.366 . S
C4497 C4498 1.414 . S
C4497 C4500 1.499 . S
C4498 H4478 0.950 . S
C4498 C4497 1.414 . S
C4498 C4499 1.374 . S
C4499 H4479 0.950 . S
C4499 C4495 1.385 . S
C4499 C4498 1.374 . S
C4500 C4497 1.499 . S
C4500 C4501 1.373 . S
C4500 C4502 1.389 . S
C4501 H4480 0.950 . S
C4501 C4500 1.373 . S
C4501 C4517 1.377 . S
C4502 C4500 1.389 . S
C4502 C4503 1.524 . S
C4502 C4516 1.377 . S
C4503 C4502 1.524 . S
C4503 C4504 1.397 . S
C4503 C4508 1.363 . S
C4504 H4481 0.950 . S
C4504 C4503 1.397 . S
C4504 C4505 1.334 . S
C4505 H4482 0.950 . S
C4505 C4504 1.334 . S
C4505 C4506 1.287 . S
C4506 C4505 1.287 . S
C4506 C4507 1.524 . S
C4506 H4525 0.913 . S
C4507 H4483 0.950 . S
C4507 C4506 1.524 . S
C4507 C4508 1.415 . S
C4508 H4484 0.950 . S
C4508 C4503 1.363 . S
C4508 C4507 1.415 . S
C4509 H4485 0.951 . S
C4509 C4510 1.366 . S
C4509 C4511 1.388 . S
C4510 C4509 1.366 . S
C4510 C4514 1.385 . S
C4511 H4486 0.951 . S
C4511 C4509 1.388 . S
C4511 C4512 1.366 . S
C4512 C4511 1.366 . S
C4512 C4513 1.414 . S
C4512 C4515 1.499 . S
C4513 H4487 0.950 . S
C4513 C4512 1.414 . S
C4513 C4514 1.374 . S
C4514 H4488 0.950 . S
C4514 C4510 1.385 . S
C4514 C4513 1.374 . S
C4515 C4512 1.499 . S
C4515 C4516 1.373 . S
C4515 C4517 1.389 . S
C4516 H4489 0.950 . S
C4516 C4502 1.377 . S
C4516 C4515 1.373 . S
C4517 C4501 1.377 . S
C4517 C4515 1.389 . S
C4517 C4518 1.524 . S
C4518 C4517 1.524 . S
C4518 C4519 1.397 . S
C4518 C4523 1.363 . S
C4519 H4490 0.950 . S
C4519 C4518 1.397 . S
C4519 C4520 1.334 . S
C4520 H4491 0.950 . S
C4520 C4519 1.334 . S
C4520 C4521 1.287 . S
C4521 C4520 1.287 . S
C4521 C4522 1.524 . S
C4521 H4524 0.999 . S
C4522 H4492 0.950 . S
C4522 C4521 1.524 . S
C4522 C4523 1.415 . S
C4523 H4493 0.950 . S
C4523 C4518 1.363 . S
C4523 C4522 1.415 . S
H4524 C4521 0.999 . S
H4525 C4506 0.913 . S
H4526 C4544 0.951 . S
H4527 C4546 0.951 . S
H4528 C4548 0.950 . S
H4529 C4549 0.950 . S
H4530 C4551 0.950 . S
H4531 C4554 0.950 . S
H4532 C4555 0.950 . S
H4533 C4557 0.950 . S
H4534 C4558 0.950 . S
H4535 C4559 0.951 . S
H4536 C4561 0.951 . S
H4537 C4563 0.950 . S
H4538 C4564 0.950 . S
H4539 C4566 0.950 . S
H4540 C4569 0.950 . S
H4541 C4570 0.950 . S
H4542 C4572 0.950 . S
H4543 C4573 0.950 . S
C4544 H4526 0.951 . S
C4544 C4545 1.366 . S
C4544 C4546 1.388 . S
C4545 C4544 1.366 . S
C4545 C4549 1.385 . S
C4546 H4527 0.951 . S
C4546 C4544 1.388 . S
C4546 C4547 1.366 . S
C4547 C4546 1.366 . S
C4547 C4548 1.414 . S
C4547 C4550 1.499 . S
C4548 H4528 0.950 . S
C4548 C4547 1.414 . S
C4548 C4549 1.374 . S
C4549 H4529 0.950 . S
C4549 C4545 1.385 . S
C4549 C4548 1.374 . S
C4550 C4547 1.499 . S
C4550 C4551 1.373 . S
C4550 C4552 1.389 . S
C4551 H4530 0.950 . S
C4551 C4550 1.373 . S
C4551 C4567 1.377 . S
C4552 C4550 1.389 . S
C4552 C4553 1.524 . S
C4552 C4566 1.377 . S
C4553 C4552 1.524 . S
C4553 C4554 1.397 . S
C4553 C4558 1.363 . S
C4554 H4531 0.950 . S
C4554 C4553 1.397 . S
C4554 C4555 1.334 . S
C4555 H4532 0.950 . S
C4555 C4554 1.334 . S
C4555 C4556 1.287 . S
C4556 C4555 1.287 . S
C4556 C4557 1.524 . S
C4556 H4575 0.913 . S
C4557 H4533 0.950 . S
C4557 C4556 1.524 . S
C4557 C4558 1.415 . S
C4558 H4534 0.950 . S
C4558 C4553 1.363 . S
C4558 C4557 1.415 . S
C4559 H4535 0.951 . S
C4559 C4560 1.366 . S
C4559 C4561 1.388 . S
C4560 C4559 1.366 . S
C4560 C4564 1.385 . S
C4561 H4536 0.951 . S
C4561 C4559 1.388 . S
C4561 C4562 1.366 . S
C4562 C4561 1.366 . S
C4562 C4563 1.414 . S
C4562 C4565 1.499 . S
C4563 H4537 0.950 . S
C4563 C4562 1.414 . S
C4563 C4564 1.374 . S
C4564 H4538 0.950 . S
C4564 C4560 1.385 . S
C4564 C4563 1.374 . S
C4565 C4562 1.499 . S
C4565 C4566 1.373 . S
C4565 C4567 1.389 . S
C4566 H4539 0.950 . S
C4566 C4552 1.377 . S
C4566 C4565 1.373 . S
C4567 C4551 1.377 . S
C4567 C4565 1.389 . S
C4567 C4568 1.524 . S
C4568 C4567 1.524 . S
C4568 C4569 1.397 . S
C4568 C4573 1.363 . S
C4569 H4540 0.950 . S
C4569 C4568 1.397 . S
C4569 C4570 1.334 . S
C4570 H4541 0.950 . S
C4570 C4569 1.334 . S
C4570 C4571 1.287 . S
C4571 C4570 1.287 . S
C4571 C4572 1.524 . S
C4571 H4574 0.999 . S
C4572 H4542 0.950 . S
C4572 C4571 1.524 . S
C4572 C4573 1.415 . S
C4573 H4543 0.950 . S
C4573 C4568 1.363 . S
C4573 C4572 1.415 . S
H4574 C4571 0.999 . S
H4575 C4556 0.913 . S
H4576 C4594 0.951 . S
H4577 C4596 0.951 . S
H4578 C4598 0.950 . S
H4579 C4599 0.950 . S
H4580 C4601 0.950 . S
H4581 C4604 0.950 . S
H4582 C4605 0.950 . S
H4583 C4607 0.950 . S
H4584 C4608 0.950 . S
H4585 C4609 0.951 . S
H4586 C4611 0.951 . S
H4587 C4613 0.950 . S
H4588 C4614 0.950 . S
H4589 C4616 0.950 . S
H4590 C4619 0.950 . S
H4591 C4620 0.950 . S
H4592 C4622 0.950 . S
H4593 C4623 0.950 . S
C4594 H4576 0.951 . S
C4594 C4595 1.366 . S
C4594 C4596 1.388 . S
C4595 C4594 1.366 . S
C4595 C4599 1.385 . S
C4596 H4577 0.951 . S
C4596 C4594 1.388 . S
C4596 C4597 1.366 . S
C4597 C4596 1.366 . S
C4597 C4598 1.414 . S
C4597 C4600 1.499 . S
C4598 H4578 0.950 . S
C4598 C4597 1.414 . S
C4598 C4599 1.374 . S
C4599 H4579 0.950 . S
C4599 C4595 1.385 . S
C4599 C4598 1.374 . S
C4600 C4597 1.499 . S
C4600 C4601 1.373 . S
C4600 C4602 1.389 . S
C4601 H4580 0.950 . S
C4601 C4600 1.373 . S
C4601 C4617 1.377 . S
C4602 C4600 1.389 . S
C4602 C4603 1.524 . S
C4602 C4616 1.377 . S
C4603 C4602 1.524 . S
C4603 C4604 1.397 . S
C4603 C4608 1.363 . S
C4604 H4581 0.950 . S
C4604 C4603 1.397 . S
C4604 C4605 1.334 . S
C4605 H4582 0.950 . S
C4605 C4604 1.334 . S
C4605 C4606 1.287 . S
C4606 C4605 1.287 . S
C4606 C4607 1.524 . S
C4606 H4625 0.913 . S
C4607 H4583 0.950 . S
C4607 C4606 1.524 . S
C4607 C4608 1.415 . S
C4608 H4584 0.950 . S
C4608 C4603 1.363 . S
C4608 C4607 1.415 . S
C4609 H4585 0.951 . S
C4609 C4610 1.366 . S
C4609 C4611 1.388 . S
C4610 C4609 1.366 . S
C4610 C4614 1.385 . S
C4611 H4586 0.951 . S
C4611 C4609 1.388 . S
C4611 C4612 1.366 . S
C4612 C4611 1.366 . S
C4612 C4613 1.414 . S
C4612 C4615 1.499 . S
C4613 H4587 0.950 . S
C4613 C4612 1.414 . S
C4613 C4614 1.374 . S
C4614 H4588 0.950 . S
C4614 C4610 1.385 . S
C4614 C4613 1.374 . S
C4615 C4612 1.499 . S
C4615 C4616 1.373 . S
C4615 C4617 1.389 . S
C4616 H4589 0.950 . S
C4616 C4602 1.377 . S
C4616 C4615 1.373 . S
C4617 C4601 1.377 . S
C4617 C4615 1.389 . S
C4617 C4618 1.524 . S
C4618 C4617 1.524 . S
C4618 C4619 1.397 . S
C4618 C4623 1.363 . S
C4619 H4590 0.950 . S
C4619 C4618 1.397 . S
C4619 C4620 1.334 . S
C4620 H4591 0.950 . S
C4620 C4619 1.334 . S
C4620 C4621 1.287 . S
C4621 C4620 1.287 . S
C4621 C4622 1.524 . S
C4621 H4624 0.999 . S
C4622 H4592 0.950 . S
C4622 C4621 1.524 . S
C4622 C4623 1.415 . S
C4623 H4593 0.950 . S
C4623 C4618 1.363 . S
C4623 C4622 1.415 . S
H4624 C4621 0.999 . S
H4625 C4606 0.913 . S
H4626 C4644 0.951 . S
H4627 C4646 0.951 . S
H4628 C4648 0.950 . S
H4629 C4649 0.950 . S
H4630 C4651 0.950 . S
H4631 C4654 0.950 . S
H4632 C4655 0.950 . S
H4633 C4657 0.950 . S
H4634 C4658 0.950 . S
H4635 C4659 0.951 . S
H4636 C4661 0.951 . S
H4637 C4663 0.950 . S
H4638 C4664 0.950 . S
H4639 C4666 0.950 . S
H4640 C4669 0.950 . S
H4641 C4670 0.950 . S
H4642 C4672 0.950 . S
H4643 C4673 0.950 . S
C4644 H4626 0.951 . S
C4644 C4645 1.366 . S
C4644 C4646 1.388 . S
C4645 C4644 1.366 . S
C4645 C4649 1.385 . S
C4646 H4627 0.951 . S
C4646 C4644 1.388 . S
C4646 C4647 1.366 . S
C4647 C4646 1.366 . S
C4647 C4648 1.414 . S
C4647 C4650 1.499 . S
C4648 H4628 0.950 . S
C4648 C4647 1.414 . S
C4648 C4649 1.374 . S
C4649 H4629 0.950 . S
C4649 C4645 1.385 . S
C4649 C4648 1.374 . S
C4650 C4647 1.499 . S
C4650 C4651 1.373 . S
C4650 C4652 1.389 . S
C4651 H4630 0.950 . S
C4651 C4650 1.373 . S
C4651 C4667 1.377 . S
C4652 C4650 1.389 . S
C4652 C4653 1.524 . S
C4652 C4666 1.377 . S
C4653 C4652 1.524 . S
C4653 C4654 1.397 . S
C4653 C4658 1.363 . S
C4654 H4631 0.950 . S
C4654 C4653 1.397 . S
C4654 C4655 1.334 . S
C4655 H4632 0.950 . S
C4655 C4654 1.334 . S
C4655 C4656 1.287 . S
C4656 C4655 1.287 . S
C4656 C4657 1.524 . S
C4656 H4675 0.913 . S
C4657 H4633 0.950 . S
C4657 C4656 1.524 . S
C4657 C4658 1.415 . S
C4658 H4634 0.950 . S
C4658 C4653 1.363 . S
C4658 C4657 1.415 . S
C4659 H4635 0.951 . S
C4659 C4660 1.366 . S
C4659 C4661 1.388 . S
C4660 C4659 1.366 . S
C4660 C4664 1.385 . S
C4661 H4636 0.951 . S
C4661 C4659 1.388 . S
C4661 C4662 1.366 . S
C4662 C4661 1.366 . S
C4662 C4663 1.414 . S
C4662 C4665 1.499 . S
C4663 H4637 0.950 . S
C4663 C4662 1.414 . S
C4663 C4664 1.374 . S
C4664 H4638 0.950 . S
C4664 C4660 1.385 . S
C4664 C4663 1.374 . S
C4665 C4662 1.499 . S
C4665 C4666 1.373 . S
C4665 C4667 1.389 . S
C4666 H4639 0.950 . S
C4666 C4652 1.377 . S
C4666 C4665 1.373 . S
C4667 C4651 1.377 . S
C4667 C4665 1.389 . S
C4667 C4668 1.524 . S
C4668 C4667 1.524 . S
C4668 C4669 1.397 . S
C4668 C4673 1.363 . S
C4669 H4640 0.950 . S
C4669 C4668 1.397 . S
C4669 C4670 1.334 . S
C4670 H4641 0.950 . S
C4670 C4669 1.334 . S
C4670 C4671 1.287 . S
C4671 C4670 1.287 . S
C4671 C4672 1.524 . S
C4671 H4674 0.999 . S
C4672 H4642 0.950 . S
C4672 C4671 1.524 . S
C4672 C4673 1.415 . S
C4673 H4643 0.950 . S
C4673 C4668 1.363 . S
C4673 C4672 1.415 . S
H4674 C4671 0.999 . S
H4675 C4656 0.913 . S
H4676 C4694 0.951 . S
H4677 C4696 0.951 . S
H4678 C4698 0.950 . S
H4679 C4699 0.950 . S
H4680 C4701 0.950 . S
H4681 C4704 0.950 . S
H4682 C4705 0.950 . S
H4683 C4707 0.950 . S
H4684 C4708 0.950 . S
H4685 C4709 0.951 . S
H4686 C4711 0.951 . S
H4687 C4713 0.950 . S
H4688 C4714 0.950 . S
H4689 C4716 0.950 . S
H4690 C4719 0.950 . S
H4691 C4720 0.950 . S
H4692 C4722 0.950 1_655 S
H4693 C4723 0.950 . S
C4694 H4676 0.951 . S
C4694 C4695 1.366 . S
C4694 C4696 1.388 . S
C4695 C4694 1.366 . S
C4695 C4699 1.385 . S
C4696 H4677 0.951 . S
C4696 C4694 1.388 . S
C4696 C4697 1.366 . S
C4697 C4696 1.366 . S
C4697 C4698 1.414 . S
C4697 C4700 1.499 . S
C4698 H4678 0.950 . S
C4698 C4697 1.414 . S
C4698 C4699 1.374 . S
C4699 H4679 0.950 . S
C4699 C4695 1.385 . S
C4699 C4698 1.374 . S
C4700 C4697 1.499 . S
C4700 C4701 1.373 . S
C4700 C4702 1.389 . S
C4701 H4680 0.950 . S
C4701 C4700 1.373 . S
C4701 C4717 1.377 . S
C4702 C4700 1.389 . S
C4702 C4703 1.524 . S
C4702 C4716 1.377 . S
C4703 C4702 1.524 . S
C4703 C4704 1.397 . S
C4703 C4708 1.363 . S
C4704 H4681 0.950 . S
C4704 C4703 1.397 . S
C4704 C4705 1.334 . S
C4705 H4682 0.950 . S
C4705 C4704 1.334 . S
C4705 C4706 1.287 . S
C4706 C4705 1.287 . S
C4706 C4707 1.524 . S
C4706 H4725 0.913 . S
C4707 H4683 0.950 . S
C4707 C4706 1.524 . S
C4707 C4708 1.415 . S
C4708 H4684 0.950 . S
C4708 C4703 1.363 . S
C4708 C4707 1.415 . S
C4709 H4685 0.951 . S
C4709 C4710 1.366 . S
C4709 C4711 1.388 . S
C4710 C4709 1.366 . S
C4710 C4714 1.385 . S
C4711 H4686 0.951 . S
C4711 C4709 1.388 . S
C4711 C4712 1.366 . S
C4712 C4711 1.366 . S
C4712 C4713 1.414 . S
C4712 C4715 1.499 . S
C4713 H4687 0.950 . S
C4713 C4712 1.414 . S
C4713 C4714 1.374 . S
C4714 H4688 0.950 . S
C4714 C4710 1.385 . S
C4714 C4713 1.374 . S
C4715 C4712 1.499 . S
C4715 C4716 1.373 . S
C4715 C4717 1.389 . S
C4716 H4689 0.950 . S
C4716 C4702 1.377 . S
C4716 C4715 1.373 . S
C4717 C4701 1.377 . S
C4717 C4715 1.389 . S
C4717 C4718 1.524 . S
C4718 C4717 1.524 . S
C4718 C4719 1.397 . S
C4718 C4723 1.363 . S
C4719 H4690 0.950 . S
C4719 C4718 1.397 . S
C4719 C4720 1.334 . S
C4720 H4691 0.950 . S
C4720 C4719 1.334 . S
C4720 C4721 1.287 . S
C4721 C4720 1.287 . S
C4721 C4722 1.524 . S
C4721 H4724 0.999 . S
C4722 H4692 0.950 1_455 S
C4722 C4721 1.524 . S
C4722 C4723 1.415 . S
C4723 H4693 0.950 . S
C4723 C4718 1.363 . S
C4723 C4722 1.415 . S
H4724 C4721 0.999 . S
H4725 C4706 0.913 . S
H4726 C4744 0.951 . S
H4727 C4746 0.951 . S
H4728 C4748 0.950 . S
H4729 C4749 0.950 . S
H4730 C4751 0.950 . S
H4731 C4754 0.950 . S
H4732 C4755 0.950 . S
H4733 C4757 0.950 . S
H4734 C4758 0.950 . S
H4735 C4759 0.951 . S
H4736 C4761 0.951 . S
H4737 C4763 0.950 . S
H4738 C4764 0.950 . S
H4739 C4766 0.950 . S
H4740 C4769 0.950 . S
H4741 C4770 0.950 . S
H4742 C4772 0.950 . S
H4743 C4773 0.950 . S
C4744 H4726 0.951 . S
C4744 C4745 1.366 . S
C4744 C4746 1.388 . S
C4745 C4744 1.366 . S
C4745 C4749 1.385 . S
C4746 H4727 0.951 . S
C4746 C4744 1.388 . S
C4746 C4747 1.366 . S
C4747 C4746 1.366 . S
C4747 C4748 1.414 . S
C4747 C4750 1.499 . S
C4748 H4728 0.950 . S
C4748 C4747 1.414 . S
C4748 C4749 1.374 . S
C4749 H4729 0.950 . S
C4749 C4745 1.385 . S
C4749 C4748 1.374 . S
C4750 C4747 1.499 . S
C4750 C4751 1.373 . S
C4750 C4752 1.389 . S
C4751 H4730 0.950 . S
C4751 C4750 1.373 . S
C4751 C4767 1.377 . S
C4752 C4750 1.389 . S
C4752 C4753 1.524 . S
C4752 C4766 1.377 . S
C4753 C4752 1.524 . S
C4753 C4754 1.397 . S
C4753 C4758 1.363 . S
C4754 H4731 0.950 . S
C4754 C4753 1.397 . S
C4754 C4755 1.334 . S
C4755 H4732 0.950 . S
C4755 C4754 1.334 . S
C4755 C4756 1.287 . S
C4756 C4755 1.287 . S
C4756 C4757 1.524 . S
C4756 H4775 0.913 . S
C4757 H4733 0.950 . S
C4757 C4756 1.524 . S
C4757 C4758 1.415 . S
C4758 H4734 0.950 . S
C4758 C4753 1.363 . S
C4758 C4757 1.415 . S
C4759 H4735 0.951 . S
C4759 C4760 1.366 . S
C4759 C4761 1.388 . S
C4760 C4759 1.366 . S
C4760 C4764 1.385 . S
C4761 H4736 0.951 . S
C4761 C4759 1.388 . S
C4761 C4762 1.366 . S
C4762 C4761 1.366 . S
C4762 C4763 1.414 . S
C4762 C4765 1.499 . S
C4763 H4737 0.950 . S
C4763 C4762 1.414 . S
C4763 C4764 1.374 . S
C4764 H4738 0.950 . S
C4764 C4760 1.385 . S
C4764 C4763 1.374 . S
C4765 C4762 1.499 . S
C4765 C4766 1.373 . S
C4765 C4767 1.389 . S
C4766 H4739 0.950 . S
C4766 C4752 1.377 . S
C4766 C4765 1.373 . S
C4767 C4751 1.377 . S
C4767 C4765 1.389 . S
C4767 C4768 1.524 . S
C4768 C4767 1.524 . S
C4768 C4769 1.397 . S
C4768 C4773 1.363 . S
C4769 H4740 0.950 . S
C4769 C4768 1.397 . S
C4769 C4770 1.334 . S
C4770 H4741 0.950 . S
C4770 C4769 1.334 . S
C4770 C4771 1.287 . S
C4771 C4770 1.287 . S
C4771 C4772 1.524 . S
C4771 H4774 0.999 . S
C4772 H4742 0.950 . S
C4772 C4771 1.524 . S
C4772 C4773 1.415 . S
C4773 H4743 0.950 . S
C4773 C4768 1.363 . S
C4773 C4772 1.415 . S
H4774 C4771 0.999 . S
H4775 C4756 0.913 . S
H4776 C4794 0.951 . S
H4777 C4796 0.951 . S
H4778 C4798 0.950 . S
H4779 C4799 0.950 . S
H4780 C4801 0.950 . S
H4781 C4804 0.950 . S
H4782 C4805 0.950 . S
H4783 C4807 0.950 . S
H4784 C4808 0.950 . S
H4785 C4809 0.951 . S
H4786 C4811 0.951 . S
H4787 C4813 0.950 . S
H4788 C4814 0.950 . S
H4789 C4816 0.950 . S
H4790 C4819 0.950 . S
H4791 C4820 0.976 . S
H4792 C4822 0.950 . S
H4793 C4823 0.950 . S
C4794 H4776 0.951 . S
C4794 C4795 1.366 . S
C4794 C4796 1.388 . S
C4795 C4794 1.366 . S
C4795 C4799 1.385 . S
C4796 H4777 0.951 . S
C4796 C4794 1.388 . S
C4796 C4797 1.366 . S
C4797 C4796 1.366 . S
C4797 C4798 1.414 . S
C4797 C4800 1.499 . S
C4798 H4778 0.950 . S
C4798 C4797 1.414 . S
C4798 C4799 1.374 . S
C4799 H4779 0.950 . S
C4799 C4795 1.385 . S
C4799 C4798 1.374 . S
C4800 C4797 1.499 . S
C4800 C4801 1.373 . S
C4800 C4802 1.389 . S
C4801 H4780 0.950 . S
C4801 C4800 1.373 . S
C4801 C4817 1.377 . S
C4802 C4800 1.389 . S
C4802 C4803 1.524 . S
C4802 C4816 1.377 . S
C4803 C4802 1.524 . S
C4803 C4804 1.397 . S
C4803 C4808 1.363 . S
C4804 H4781 0.950 . S
C4804 C4803 1.397 . S
C4804 C4805 1.334 . S
C4805 H4782 0.950 . S
C4805 C4804 1.334 . S
C4805 C4806 1.287 . S
C4806 C4805 1.287 . S
C4806 C4807 1.524 . S
C4806 H4825 0.913 . S
C4807 H4783 0.950 . S
C4807 C4806 1.524 . S
C4807 C4808 1.415 . S
C4808 H4784 0.950 . S
C4808 C4803 1.363 . S
C4808 C4807 1.415 . S
C4809 H4785 0.951 . S
C4809 C4810 1.366 . S
C4809 C4811 1.388 . S
C4810 C4809 1.366 . S
C4810 C4814 1.385 . S
C4811 H4786 0.951 . S
C4811 C4809 1.388 . S
C4811 C4812 1.366 . S
C4812 C4811 1.366 . S
C4812 C4813 1.414 . S
C4812 C4815 1.499 . S
C4813 H4787 0.950 . S
C4813 C4812 1.414 . S
C4813 C4814 1.374 . S
C4814 H4788 0.950 . S
C4814 C4810 1.385 . S
C4814 C4813 1.374 . S
C4815 C4812 1.499 . S
C4815 C4816 1.373 . S
C4815 C4817 1.389 . S
C4816 H4789 0.950 . S
C4816 C4802 1.377 . S
C4816 C4815 1.373 . S
C4817 C4801 1.377 . S
C4817 C4815 1.389 . S
C4817 C4818 1.524 . S
C4818 C4817 1.524 . S
C4818 C4819 1.397 . S
C4818 C4823 1.363 . S
C4819 H4790 0.950 . S
C4819 C4818 1.397 . S
C4819 C4820 1.280 1_556 S
C4820 H4791 0.976 . S
C4820 C4819 1.280 1_554 S
C4820 C4821 1.317 . S
C4821 C4820 1.317 . S
C4821 C4822 1.524 . S
C4821 H4824 0.999 . S
C4822 H4792 0.950 . S
C4822 C4821 1.524 . S
C4822 C4823 1.415 1_554 S
C4823 H4793 0.950 . S
C4823 C4818 1.363 . S
C4823 C4822 1.415 1_556 S
H4824 C4821 0.999 . S
H4825 C4806 0.913 . S
H4826 C4844 0.951 . S
H4827 C4846 0.951 . S
H4828 C4848 0.950 . S
H4829 C4849 0.950 . S
H4830 C4851 0.950 . S
H4831 C4854 0.950 . S
H4832 C4855 0.950 . S
H4833 C4857 0.950 . S
H4834 C4858 0.950 . S
H4835 C4859 0.951 . S
H4836 C4861 0.951 . S
H4837 C4863 0.950 . S
H4838 C4864 0.950 . S
H4839 C4866 0.950 . S
H4840 C4869 0.950 . S
H4841 C4870 0.950 . S
H4842 C4872 0.950 . S
H4843 C4873 0.950 . S
C4844 H4826 0.951 . S
C4844 C4845 1.366 . S
C4844 C4846 1.388 . S
C4845 C4844 1.366 . S
C4845 C4849 1.385 . S
C4846 H4827 0.951 . S
C4846 C4844 1.388 . S
C4846 C4847 1.366 . S
C4847 C4846 1.366 . S
C4847 C4848 1.414 . S
C4847 C4850 1.499 . S
C4848 H4828 0.950 . S
C4848 C4847 1.414 . S
C4848 C4849 1.374 . S
C4849 H4829 0.950 . S
C4849 C4845 1.385 . S
C4849 C4848 1.374 . S
C4850 C4847 1.499 . S
C4850 C4851 1.373 . S
C4850 C4852 1.389 . S
C4851 H4830 0.950 . S
C4851 C4850 1.373 . S
C4851 C4867 1.377 . S
C4852 C4850 1.389 . S
C4852 C4853 1.524 . S
C4852 C4866 1.377 . S
C4853 C4852 1.524 . S
C4853 C4854 1.397 . S
C4853 C4858 1.363 . S
C4854 H4831 0.950 . S
C4854 C4853 1.397 . S
C4854 C4855 1.334 . S
C4855 H4832 0.950 . S
C4855 C4854 1.334 . S
C4855 C4856 1.287 . S
C4856 C4855 1.287 . S
C4856 C4857 1.524 . S
C4856 H4875 0.913 . S
C4857 H4833 0.950 . S
C4857 C4856 1.524 . S
C4857 C4858 1.415 . S
C4858 H4834 0.950 . S
C4858 C4853 1.363 . S
C4858 C4857 1.415 . S
C4859 H4835 0.951 . S
C4859 C4860 1.366 . S
C4859 C4861 1.388 . S
C4860 C4859 1.366 . S
C4860 C4864 1.385 . S
C4861 H4836 0.951 . S
C4861 C4859 1.388 . S
C4861 C4862 1.366 . S
C4862 C4861 1.366 . S
C4862 C4863 1.414 . S
C4862 C4865 1.499 . S
C4863 H4837 0.950 . S
C4863 C4862 1.414 . S
C4863 C4864 1.374 . S
C4864 H4838 0.950 . S
C4864 C4860 1.385 . S
C4864 C4863 1.374 . S
C4865 C4862 1.499 . S
C4865 C4866 1.373 . S
C4865 C4867 1.389 . S
C4866 H4839 0.950 . S
C4866 C4852 1.377 . S
C4866 C4865 1.373 . S
C4867 C4851 1.377 . S
C4867 C4865 1.389 . S
C4867 C4868 1.524 . S
C4868 C4867 1.524 . S
C4868 C4869 1.397 . S
C4868 C4873 1.363 . S
C4869 H4840 0.950 . S
C4869 C4868 1.397 . S
C4869 C4870 1.334 . S
C4870 H4841 0.950 . S
C4870 C4869 1.334 . S
C4870 C4871 1.287 . S
C4871 C4870 1.287 . S
C4871 C4872 1.524 . S
C4871 H4874 0.999 . S
C4872 H4842 0.950 . S
C4872 C4871 1.524 . S
C4872 C4873 1.415 . S
C4873 H4843 0.950 . S
C4873 C4868 1.363 . S
C4873 C4872 1.415 . S
H4874 C4871 0.999 . S
H4875 C4856 0.913 . S
H4876 C4894 0.951 . S
H4877 C4896 0.951 . S
H4878 C4898 0.950 . S
H4879 C4899 0.950 . S
H4880 C4901 0.950 . S
H4881 C4904 0.950 . S
H4882 C4905 0.950 . S
H4883 C4907 0.950 . S
H4884 C4908 0.950 . S
H4885 C4909 0.951 . S
H4886 C4911 0.951 . S
H4887 C4913 0.950 . S
H4888 C4914 0.950 . S
H4889 C4916 0.946 . S
H4890 C4919 0.950 . S
H4891 C4920 0.950 . S
H4892 C4922 0.950 . S
H4893 C4923 0.950 . S
C4894 H4876 0.951 . S
C4894 C4895 1.366 . S
C4894 C4896 1.388 . S
C4895 C4894 1.366 . S
C4895 C4899 1.385 . S
C4896 H4877 0.951 . S
C4896 C4894 1.388 . S
C4896 C4897 1.366 . S
C4897 C4896 1.366 . S
C4897 C4898 1.414 . S
C4897 C4900 1.499 . S
C4898 H4878 0.950 . S
C4898 C4897 1.414 . S
C4898 C4899 1.374 . S
C4899 H4879 0.950 . S
C4899 C4895 1.385 . S
C4899 C4898 1.374 . S
C4900 C4897 1.499 . S
C4900 C4901 1.373 . S
C4900 C4902 1.389 . S
C4901 H4880 0.950 . S
C4901 C4900 1.373 . S
C4901 C4917 1.377 . S
C4902 C4900 1.389 . S
C4902 C4903 1.524 1_455 S
C4902 C4916 1.377 . S
C4903 C4902 1.524 1_655 S
C4903 C4904 1.397 . S
C4903 C4908 1.363 . S
C4904 H4881 0.950 . S
C4904 C4903 1.397 . S
C4904 C4905 1.334 . S
C4905 H4882 0.950 . S
C4905 C4904 1.334 . S
C4905 C4906 1.287 . S
C4906 C4905 1.287 . S
C4906 C4907 1.524 . S
C4906 H4925 0.913 . S
C4907 H4883 0.950 . S
C4907 C4906 1.524 . S
C4907 C4908 1.415 . S
C4908 H4884 0.950 . S
C4908 C4903 1.363 . S
C4908 C4907 1.415 . S
C4909 H4885 0.951 . S
C4909 C4910 1.366 . S
C4909 C4911 1.388 . S
C4910 C4909 1.366 . S
C4910 C4914 1.385 . S
C4911 H4886 0.951 . S
C4911 C4909 1.388 . S
C4911 C4912 1.366 . S
C4912 C4911 1.366 . S
C4912 C4913 1.414 . S
C4912 C4915 1.499 . S
C4913 H4887 0.950 . S
C4913 C4912 1.414 . S
C4913 C4914 1.374 . S
C4914 H4888 0.950 . S
C4914 C4910 1.385 . S
C4914 C4913 1.374 . S
C4915 C4912 1.499 . S
C4915 C4916 1.373 . S
C4915 C4917 1.389 . S
C4916 H4889 0.946 . S
C4916 C4902 1.377 . S
C4916 C4915 1.373 . S
C4917 C4901 1.377 . S
C4917 C4915 1.389 . S
C4917 C4918 1.524 . S
C4918 C4917 1.524 . S
C4918 C4919 1.397 . S
C4918 C4923 1.363 . S
C4919 H4890 0.950 . S
C4919 C4918 1.397 . S
C4919 C4920 1.334 . S
C4920 H4891 0.950 . S
C4920 C4919 1.334 . S
C4920 C4921 1.287 . S
C4921 C4920 1.287 . S
C4921 C4922 1.524 . S
C4921 H4924 0.999 . S
C4922 H4892 0.950 . S
C4922 C4921 1.524 . S
C4922 C4923 1.415 . S
C4923 H4893 0.950 . S
C4923 C4918 1.363 . S
C4923 C4922 1.415 . S
H4924 C4921 0.999 . S
H4925 C4906 0.913 . S
H4926 C4944 0.951 . S
H4927 C4946 0.951 . S
H4928 C4948 0.950 . S
H4929 C4949 0.950 . S
H4930 C4951 0.950 . S
H4931 C4954 0.950 . S
H4932 C4955 0.950 . S
H4933 C4957 0.950 . S
H4934 C4958 0.950 . S
H4935 C4959 0.951 . S
H4936 C4961 0.951 . S
H4937 C4963 0.950 . S
H4938 C4964 0.950 . S
H4939 C4966 0.950 . S
H4940 C4969 0.950 . S
H4941 C4970 0.950 . S
H4942 C4972 0.950 . S
H4943 C4973 0.950 . S
C4944 H4926 0.951 . S
C4944 C4945 1.366 . S
C4944 C4946 1.388 . S
C4945 C4944 1.366 . S
C4945 C4949 1.385 . S
C4946 H4927 0.951 . S
C4946 C4944 1.388 . S
C4946 C4947 1.366 . S
C4947 C4946 1.366 . S
C4947 C4948 1.414 . S
C4947 C4950 1.499 . S
C4948 H4928 0.950 . S
C4948 C4947 1.414 . S
C4948 C4949 1.374 . S
C4949 H4929 0.950 . S
C4949 C4945 1.385 . S
C4949 C4948 1.374 . S
C4950 C4947 1.499 . S
C4950 C4951 1.373 . S
C4950 C4952 1.389 . S
C4951 H4930 0.950 . S
C4951 C4950 1.373 . S
C4951 C4967 1.377 . S
C4952 C4950 1.389 . S
C4952 C4953 1.524 . S
C4952 C4966 1.377 . S
C4953 C4952 1.524 . S
C4953 C4954 1.397 . S
C4953 C4958 1.363 . S
C4954 H4931 0.950 . S
C4954 C4953 1.397 . S
C4954 C4955 1.334 . S
C4955 H4932 0.950 . S
C4955 C4954 1.334 . S
C4955 C4956 1.287 . S
C4956 C4955 1.287 . S
C4956 C4957 1.524 . S
C4956 H4975 0.913 . S
C4957 H4933 0.950 . S
C4957 C4956 1.524 . S
C4957 C4958 1.415 . S
C4958 H4934 0.950 . S
C4958 C4953 1.363 . S
C4958 C4957 1.415 . S
C4959 H4935 0.951 . S
C4959 C4960 1.366 . S
C4959 C4961 1.388 . S
C4960 C4959 1.366 . S
C4960 C4964 1.385 . S
C4961 H4936 0.951 . S
C4961 C4959 1.388 . S
C4961 C4962 1.366 . S
C4962 C4961 1.366 . S
C4962 C4963 1.414 . S
C4962 C4965 1.499 . S
C4963 H4937 0.950 . S
C4963 C4962 1.414 . S
C4963 C4964 1.374 . S
C4964 H4938 0.950 . S
C4964 C4960 1.385 . S
C4964 C4963 1.374 . S
C4965 C4962 1.499 . S
C4965 C4966 1.373 . S
C4965 C4967 1.389 . S
C4966 H4939 0.950 . S
C4966 C4952 1.377 . S
C4966 C4965 1.373 . S
C4967 C4951 1.377 . S
C4967 C4965 1.389 . S
C4967 C4968 1.524 . S
C4968 C4967 1.524 . S
C4968 C4969 1.397 . S
C4968 C4973 1.363 . S
C4969 H4940 0.950 . S
C4969 C4968 1.397 . S
C4969 C4970 1.334 . S
C4970 H4941 0.950 . S
C4970 C4969 1.334 . S
C4970 C4971 1.287 . S
C4971 C4970 1.287 . S
C4971 C4972 1.524 . S
C4971 H4974 0.999 . S
C4972 H4942 0.950 . S
C4972 C4971 1.524 . S
C4972 C4973 1.415 . S
C4973 H4943 0.950 . S
C4973 C4968 1.363 . S
C4973 C4972 1.415 . S
H4974 C4971 0.999 . S
H4975 C4956 0.913 . S
H4976 C4994 0.951 . S
H4977 C4996 0.951 . S
H4978 C4998 0.950 . S
H4979 C4999 0.950 . S
H4980 C5001 0.950 . S
H4981 C5004 0.950 . S
H4982 C5005 0.950 . S
H4983 C5007 0.950 . S
H4984 C5008 0.950 . S
H4985 C5009 0.951 . S
H4986 C5011 0.951 . S
H4987 C5013 0.950 . S
H4988 C5014 0.950 . S
H4989 C5016 0.950 . S
H4990 C5019 0.950 . S
H4991 C5020 0.950 . S
H4992 C5022 0.950 . S
H4993 C5023 0.950 . S
C4994 H4976 0.951 . S
C4994 C4995 1.366 . S
C4994 C4996 1.388 . S
C4995 C4994 1.366 . S
C4995 C4999 1.385 . S
C4996 H4977 0.951 . S
C4996 C4994 1.388 . S
C4996 C4997 1.366 . S
C4997 C4996 1.366 . S
C4997 C4998 1.414 . S
C4997 C5000 1.499 . S
C4998 H4978 0.950 . S
C4998 C4997 1.414 . S
C4998 C4999 1.374 . S
C4999 H4979 0.950 . S
C4999 C4995 1.385 . S
C4999 C4998 1.374 . S
C5000 C4997 1.499 . S
C5000 C5001 1.373 . S
C5000 C5002 1.389 . S
C5001 H4980 0.950 . S
C5001 C5000 1.373 . S
C5001 C5017 1.377 . S
C5002 C5000 1.389 . S
C5002 C5003 1.524 . S
C5002 C5016 1.377 . S
C5003 C5002 1.524 . S
C5003 C5004 1.397 . S
C5003 C5008 1.363 . S
C5004 H4981 0.950 . S
C5004 C5003 1.397 . S
C5004 C5005 1.334 . S
C5005 H4982 0.950 . S
C5005 C5004 1.334 . S
C5005 C5006 1.287 . S
C5006 C5005 1.287 . S
C5006 C5007 1.524 . S
C5006 H5025 0.913 . S
C5007 H4983 0.950 . S
C5007 C5006 1.524 . S
C5007 C5008 1.415 . S
C5008 H4984 0.950 . S
C5008 C5003 1.363 . S
C5008 C5007 1.415 . S
C5009 H4985 0.951 . S
C5009 C5010 1.366 . S
C5009 C5011 1.388 . S
C5010 C5009 1.366 . S
C5010 C5014 1.385 . S
C5011 H4986 0.951 . S
C5011 C5009 1.388 . S
C5011 C5012 1.366 . S
C5012 C5011 1.366 . S
C5012 C5013 1.414 . S
C5012 C5015 1.499 . S
C5013 H4987 0.950 . S
C5013 C5012 1.414 . S
C5013 C5014 1.374 . S
C5014 H4988 0.950 . S
C5014 C5010 1.385 . S
C5014 C5013 1.374 . S
C5015 C5012 1.499 . S
C5015 C5016 1.373 . S
C5015 C5017 1.389 . S
C5016 H4989 0.950 . S
C5016 C5002 1.377 . S
C5016 C5015 1.373 . S
C5017 C5001 1.377 . S
C5017 C5015 1.389 . S
C5017 C5018 1.524 . S
C5018 C5017 1.524 . S
C5018 C5019 1.397 . S
C5018 C5023 1.363 . S
C5019 H4990 0.950 . S
C5019 C5018 1.397 . S
C5019 C5020 1.334 . S
C5020 H4991 0.950 . S
C5020 C5019 1.334 . S
C5020 C5021 1.287 . S
C5021 C5020 1.287 . S
C5021 C5022 1.524 . S
C5021 H5024 0.999 . S
C5022 H4992 0.950 . S
C5022 C5021 1.524 . S
C5022 C5023 1.415 . S
C5023 H4993 0.950 . S
C5023 C5018 1.363 . S
C5023 C5022 1.415 . S
H5024 C5021 0.999 . S
H5025 C5006 0.913 . S
H5026 C5044 0.951 . S
H5027 C5046 0.951 . S
H5028 C5048 0.950 . S
H5029 C5049 0.950 . S
H5030 C5051 0.950 . S
H5031 C5054 0.950 . S
H5032 C5055 0.950 . S
H5033 C5057 0.950 . S
H5034 C5058 0.950 . S
H5035 C5059 0.951 . S
H5036 C5061 0.951 . S
H5037 C5063 0.950 . S
H5038 C5064 0.950 . S
H5039 C5066 0.950 . S
H5040 C5069 0.950 . S
H5041 C5070 0.950 . S
H5042 C5072 0.950 . S
H5043 C5073 0.950 . S
C5044 H5026 0.951 . S
C5044 C5045 1.366 . S
C5044 C5046 1.388 . S
C5045 C5044 1.366 . S
C5045 C5049 1.385 . S
C5046 H5027 0.951 . S
C5046 C5044 1.388 . S
C5046 C5047 1.366 . S
C5047 C5046 1.366 . S
C5047 C5048 1.414 . S
C5047 C5050 1.499 . S
C5048 H5028 0.950 . S
C5048 C5047 1.414 . S
C5048 C5049 1.374 . S
C5049 H5029 0.950 . S
C5049 C5045 1.385 . S
C5049 C5048 1.374 . S
C5050 C5047 1.499 . S
C5050 C5051 1.373 . S
C5050 C5052 1.389 . S
C5051 H5030 0.950 . S
C5051 C5050 1.373 . S
C5051 C5067 1.377 . S
C5052 C5050 1.389 . S
C5052 C5053 1.524 . S
C5052 C5066 1.377 . S
C5053 C5052 1.524 . S
C5053 C5054 1.397 . S
C5053 C5058 1.363 . S
C5054 H5031 0.950 . S
C5054 C5053 1.397 . S
C5054 C5055 1.334 . S
C5055 H5032 0.950 . S
C5055 C5054 1.334 . S
C5055 C5056 1.287 . S
C5056 C5055 1.287 . S
C5056 C5057 1.524 . S
C5056 H5075 0.913 . S
C5057 H5033 0.950 . S
C5057 C5056 1.524 . S
C5057 C5058 1.415 . S
C5058 H5034 0.950 . S
C5058 C5053 1.363 . S
C5058 C5057 1.415 . S
C5059 H5035 0.951 . S
C5059 C5060 1.366 . S
C5059 C5061 1.388 . S
C5060 C5059 1.366 . S
C5060 C5064 1.385 . S
C5061 H5036 0.951 . S
C5061 C5059 1.388 . S
C5061 C5062 1.366 . S
C5062 C5061 1.366 . S
C5062 C5063 1.414 . S
C5062 C5065 1.499 . S
C5063 H5037 0.950 . S
C5063 C5062 1.414 . S
C5063 C5064 1.374 . S
C5064 H5038 0.950 . S
C5064 C5060 1.385 . S
C5064 C5063 1.374 . S
C5065 C5062 1.499 . S
C5065 C5066 1.373 . S
C5065 C5067 1.389 . S
C5066 H5039 0.950 . S
C5066 C5052 1.377 . S
C5066 C5065 1.373 . S
C5067 C5051 1.377 . S
C5067 C5065 1.389 . S
C5067 C5068 1.524 . S
C5068 C5067 1.524 . S
C5068 C5069 1.397 . S
C5068 C5073 1.363 . S
C5069 H5040 0.950 . S
C5069 C5068 1.397 . S
C5069 C5070 1.334 . S
C5070 H5041 0.950 . S
C5070 C5069 1.334 . S
C5070 C5071 1.287 . S
C5071 C5070 1.287 . S
C5071 C5072 1.524 . S
C5071 H5074 0.999 . S
C5072 H5042 0.950 . S
C5072 C5071 1.524 . S
C5072 C5073 1.415 . S
C5073 H5043 0.950 . S
C5073 C5068 1.363 . S
C5073 C5072 1.415 . S
H5074 C5071 0.999 . S
H5075 C5056 0.913 . S
H5076 C5094 0.951 . S
H5077 C5096 0.951 . S
H5078 C5098 0.950 . S
H5079 C5099 0.950 . S
H5080 C5101 0.950 . S
H5081 C5104 0.950 . S
H5082 C5105 0.950 . S
H5083 C5107 0.951 1_455 S
H5084 C5108 0.950 . S
H5085 C5109 0.951 . S
H5086 C5111 0.951 . S
H5087 C5113 0.950 . S
H5088 C5114 0.950 . S
H5089 C5116 0.950 . S
H5090 C5119 0.950 . S
H5091 C5120 0.950 . S
H5092 C5122 0.950 . S
H5093 C5123 0.950 . S
C5094 H5076 0.951 . S
C5094 C5095 1.366 . S
C5094 C5096 1.388 . S
C5095 C5094 1.366 . S
C5095 C5099 1.385 . S
C5096 H5077 0.951 . S
C5096 C5094 1.388 . S
C5096 C5097 1.366 . S
C5097 C5096 1.366 . S
C5097 C5098 1.414 . S
C5097 C5100 1.499 . S
C5098 H5078 0.950 . S
C5098 C5097 1.414 . S
C5098 C5099 1.374 . S
C5099 H5079 0.950 . S
C5099 C5095 1.385 . S
C5099 C5098 1.374 . S
C5100 C5097 1.499 . S
C5100 C5101 1.373 . S
C5100 C5102 1.389 . S
C5101 H5080 0.950 . S
C5101 C5100 1.373 . S
C5101 C5117 1.377 . S
C5102 C5100 1.389 . S
C5102 C5103 1.524 . S
C5102 C5116 1.377 . S
C5103 C5102 1.524 . S
C5103 C5104 1.397 . S
C5103 C5108 1.363 . S
C5104 H5081 0.950 . S
C5104 C5103 1.397 . S
C5104 C5105 1.334 . S
C5105 H5082 0.950 . S
C5105 C5104 1.334 . S
C5105 C5106 1.287 . S
C5106 C5105 1.287 . S
C5106 C5107 1.524 . S
C5106 H5125 0.913 . S
C5107 H5083 0.951 1_655 S
C5107 C5106 1.524 . S
C5107 C5108 1.415 . S
C5108 H5084 0.950 . S
C5108 C5103 1.363 . S
C5108 C5107 1.415 . S
C5109 H5085 0.951 . S
C5109 C5110 1.366 1_655 S
C5109 C5111 1.388 . S
C5110 C5109 1.366 1_455 S
C5110 C5114 1.385 . S
C5111 H5086 0.951 . S
C5111 C5109 1.388 . S
C5111 C5112 1.366 . S
C5112 C5111 1.366 . S
C5112 C5113 1.414 1_655 S
C5112 C5115 1.499 . S
C5113 H5087 0.950 . S
C5113 C5112 1.414 1_455 S
C5113 C5114 1.374 . S
C5114 H5088 0.950 . S
C5114 C5110 1.385 . S
C5114 C5113 1.374 . S
C5115 C5112 1.499 . S
C5115 C5116 1.373 . S
C5115 C5117 1.389 . S
C5116 H5089 0.950 . S
C5116 C5102 1.377 . S
C5116 C5115 1.373 . S
C5117 C5101 1.377 . S
C5117 C5115 1.389 . S
C5117 C5118 1.524 . S
C5118 C5117 1.524 . S
C5118 C5119 1.397 . S
C5118 C5123 1.363 . S
C5119 H5090 0.950 . S
C5119 C5118 1.397 . S
C5119 C5120 1.334 . S
C5120 H5091 0.950 . S
C5120 C5119 1.334 . S
C5120 C5121 1.287 . S
C5121 C5120 1.287 . S
C5121 C5122 1.524 . S
C5121 H5124 0.999 . S
C5122 H5092 0.950 . S
C5122 C5121 1.524 . S
C5122 C5123 1.415 . S
C5123 H5093 0.950 . S
C5123 C5118 1.363 . S
C5123 C5122 1.415 . S
H5124 C5121 0.999 . S
H5125 C5106 0.913 . S
H5126 C5144 0.951 . S
H5127 C5146 0.951 . S
H5128 C5148 0.950 . S
H5129 C5149 0.950 . S
H5130 C5151 0.950 . S
H5131 C5154 0.950 . S
H5132 C5155 0.950 . S
H5133 C5157 0.950 . S
H5134 C5158 0.950 . S
H5135 C5159 0.951 . S
H5136 C5161 0.951 . S
H5137 C5163 0.950 . S
H5138 C5164 0.950 . S
H5139 C5166 0.950 . S
H5140 C5169 0.950 . S
H5141 C5170 0.950 . S
H5142 C5172 0.950 . S
H5143 C5173 0.950 . S
C5144 H5126 0.951 . S
C5144 C5145 1.366 . S
C5144 C5146 1.388 . S
C5145 C5144 1.366 . S
C5145 C5149 1.385 . S
C5146 H5127 0.951 . S
C5146 C5144 1.388 . S
C5146 C5147 1.366 . S
C5147 C5146 1.366 . S
C5147 C5148 1.414 . S
C5147 C5150 1.499 . S
C5148 H5128 0.950 . S
C5148 C5147 1.414 . S
C5148 C5149 1.374 . S
C5149 H5129 0.950 . S
C5149 C5145 1.385 . S
C5149 C5148 1.374 . S
C5150 C5147 1.499 . S
C5150 C5151 1.373 . S
C5150 C5152 1.389 . S
C5151 H5130 0.950 . S
C5151 C5150 1.373 . S
C5151 C5167 1.377 . S
C5152 C5150 1.389 . S
C5152 C5153 1.524 . S
C5152 C5166 1.377 . S
C5153 C5152 1.524 . S
C5153 C5154 1.397 . S
C5153 C5158 1.363 . S
C5154 H5131 0.950 . S
C5154 C5153 1.397 . S
C5154 C5155 1.334 . S
C5155 H5132 0.950 . S
C5155 C5154 1.334 . S
C5155 C5156 1.287 . S
C5156 C5155 1.287 . S
C5156 C5157 1.524 . S
C5156 H5175 0.913 . S
C5157 H5133 0.950 . S
C5157 C5156 1.524 . S
C5157 C5158 1.415 . S
C5158 H5134 0.950 . S
C5158 C5153 1.363 . S
C5158 C5157 1.415 . S
C5159 H5135 0.951 . S
C5159 C5160 1.366 . S
C5159 C5161 1.388 . S
C5160 C5159 1.366 . S
C5160 C5164 1.385 . S
C5161 H5136 0.951 . S
C5161 C5159 1.388 . S
C5161 C5162 1.366 . S
C5162 C5161 1.366 . S
C5162 C5163 1.414 . S
C5162 C5165 1.499 . S
C5163 H5137 0.950 . S
C5163 C5162 1.414 . S
C5163 C5164 1.374 . S
C5164 H5138 0.950 . S
C5164 C5160 1.385 . S
C5164 C5163 1.374 . S
C5165 C5162 1.499 . S
C5165 C5166 1.373 . S
C5165 C5167 1.389 . S
C5166 H5139 0.950 . S
C5166 C5152 1.377 . S
C5166 C5165 1.373 . S
C5167 C5151 1.377 . S
C5167 C5165 1.389 . S
C5167 C5168 1.524 . S
C5168 C5167 1.524 . S
C5168 C5169 1.397 . S
C5168 C5173 1.363 . S
C5169 H5140 0.950 . S
C5169 C5168 1.397 . S
C5169 C5170 1.334 . S
C5170 H5141 0.950 . S
C5170 C5169 1.334 . S
C5170 C5171 1.287 . S
C5171 C5170 1.287 . S
C5171 C5172 1.524 . S
C5171 H5174 0.999 . S
C5172 H5142 0.950 . S
C5172 C5171 1.524 . S
C5172 C5173 1.415 . S
C5173 H5143 0.950 . S
C5173 C5168 1.363 . S
C5173 C5172 1.415 . S
H5174 C5171 0.999 . S
H5175 C5156 0.913 . S
H5176 C5194 0.951 . S
H5177 C5196 0.951 . S
H5178 C5198 0.950 . S
H5179 C5199 0.950 . S
H5180 C5201 0.950 . S
H5181 C5204 0.950 . S
H5182 C5205 0.950 . S
H5183 C5207 0.950 . S
H5184 C5208 0.950 . S
H5185 C5209 0.951 . S
H5186 C5211 0.951 . S
H5187 C5213 0.950 . S
H5188 C5214 0.950 . S
H5189 C5216 0.950 . S
H5190 C5219 0.950 . S
H5191 C5220 0.950 . S
H5192 C5222 0.950 . S
H5193 C5223 0.950 . S
C5194 H5176 0.951 . S
C5194 C5195 1.366 . S
C5194 C5196 1.388 . S
C5195 C5194 1.366 . S
C5195 C5199 1.385 . S
C5196 H5177 0.951 . S
C5196 C5194 1.388 . S
C5196 C5197 1.366 . S
C5197 C5196 1.366 . S
C5197 C5198 1.414 . S
C5197 C5200 1.499 . S
C5198 H5178 0.950 . S
C5198 C5197 1.414 . S
C5198 C5199 1.374 . S
C5199 H5179 0.950 . S
C5199 C5195 1.385 . S
C5199 C5198 1.374 . S
C5200 C5197 1.499 . S
C5200 C5201 1.373 . S
C5200 C5202 1.389 . S
C5201 H5180 0.950 . S
C5201 C5200 1.373 . S
C5201 C5217 1.377 . S
C5202 C5200 1.389 . S
C5202 C5203 1.524 . S
C5202 C5216 1.377 . S
C5203 C5202 1.524 . S
C5203 C5204 1.397 . S
C5203 C5208 1.363 . S
C5204 H5181 0.950 . S
C5204 C5203 1.397 . S
C5204 C5205 1.334 . S
C5205 H5182 0.950 . S
C5205 C5204 1.334 . S
C5205 C5206 1.287 . S
C5206 C5205 1.287 . S
C5206 C5207 1.524 . S
C5206 H5225 0.913 . S
C5207 H5183 0.950 . S
C5207 C5206 1.524 . S
C5207 C5208 1.415 . S
C5208 H5184 0.950 . S
C5208 C5203 1.363 . S
C5208 C5207 1.415 . S
C5209 H5185 0.951 . S
C5209 C5210 1.366 . S
C5209 C5211 1.388 . S
C5210 C5209 1.366 . S
C5210 C5214 1.385 . S
C5211 H5186 0.951 . S
C5211 C5209 1.388 . S
C5211 C5212 1.366 . S
C5212 C5211 1.366 . S
C5212 C5213 1.414 . S
C5212 C5215 1.499 . S
C5213 H5187 0.950 . S
C5213 C5212 1.414 . S
C5213 C5214 1.374 . S
C5214 H5188 0.950 . S
C5214 C5210 1.385 . S
C5214 C5213 1.374 . S
C5215 C5212 1.499 . S
C5215 C5216 1.373 . S
C5215 C5217 1.389 . S
C5216 H5189 0.950 . S
C5216 C5202 1.377 . S
C5216 C5215 1.373 . S
C5217 C5201 1.377 . S
C5217 C5215 1.389 . S
C5217 C5218 1.524 . S
C5218 C5217 1.524 . S
C5218 C5219 1.397 . S
C5218 C5223 1.363 . S
C5219 H5190 0.950 . S
C5219 C5218 1.397 . S
C5219 C5220 1.334 . S
C5220 H5191 0.950 . S
C5220 C5219 1.334 . S
C5220 C5221 1.287 . S
C5221 C5220 1.287 . S
C5221 C5222 1.524 . S
C5221 H5224 0.999 . S
C5222 H5192 0.950 . S
C5222 C5221 1.524 . S
C5222 C5223 1.415 . S
C5223 H5193 0.950 . S
C5223 C5218 1.363 . S
C5223 C5222 1.415 . S
H5224 C5221 0.999 . S
H5225 C5206 0.913 . S
H5226 C5244 0.951 . S
H5227 C5246 0.951 . S
H5228 C5248 0.950 . S
H5229 C5249 0.950 . S
H5230 C5251 0.950 . S
H5231 C5254 0.950 . S
H5232 C5255 0.950 . S
H5233 C5257 0.950 . S
H5234 C5258 0.950 . S
H5235 C5259 0.951 . S
H5236 C5261 0.951 . S
H5237 C5263 0.950 . S
H5238 C5264 0.950 . S
H5239 C5266 0.950 . S
H5240 C5269 0.950 . S
H5241 C5270 0.950 . S
H5242 C5272 0.950 . S
H5243 C5273 0.950 . S
C5244 H5226 0.951 . S
C5244 C5245 1.366 . S
C5244 C5246 1.388 . S
C5245 C5244 1.366 . S
C5245 C5249 1.385 . S
C5246 H5227 0.951 . S
C5246 C5244 1.388 . S
C5246 C5247 1.366 . S
C5247 C5246 1.366 . S
C5247 C5248 1.414 . S
C5247 C5250 1.499 . S
C5248 H5228 0.950 . S
C5248 C5247 1.414 . S
C5248 C5249 1.374 . S
C5249 H5229 0.950 . S
C5249 C5245 1.385 . S
C5249 C5248 1.374 . S
C5250 C5247 1.499 . S
C5250 C5251 1.373 . S
C5250 C5252 1.389 . S
C5251 H5230 0.950 . S
C5251 C5250 1.373 . S
C5251 C5267 1.377 . S
C5252 C5250 1.389 . S
C5252 C5253 1.524 . S
C5252 C5266 1.377 . S
C5253 C5252 1.524 . S
C5253 C5254 1.397 . S
C5253 C5258 1.363 . S
C5254 H5231 0.950 . S
C5254 C5253 1.397 . S
C5254 C5255 1.334 . S
C5255 H5232 0.950 . S
C5255 C5254 1.334 . S
C5255 C5256 1.287 . S
C5256 C5255 1.287 . S
C5256 C5257 1.524 . S
C5256 H5275 0.913 . S
C5257 H5233 0.950 . S
C5257 C5256 1.524 . S
C5257 C5258 1.415 . S
C5258 H5234 0.950 . S
C5258 C5253 1.363 . S
C5258 C5257 1.415 . S
C5259 H5235 0.951 . S
C5259 C5260 1.366 . S
C5259 C5261 1.388 . S
C5260 C5259 1.366 . S
C5260 C5264 1.385 . S
C5261 H5236 0.951 . S
C5261 C5259 1.388 . S
C5261 C5262 1.366 . S
C5262 C5261 1.366 . S
C5262 C5263 1.414 . S
C5262 C5265 1.499 . S
C5263 H5237 0.950 . S
C5263 C5262 1.414 . S
C5263 C5264 1.374 . S
C5264 H5238 0.950 . S
C5264 C5260 1.385 . S
C5264 C5263 1.374 . S
C5265 C5262 1.499 . S
C5265 C5266 1.373 . S
C5265 C5267 1.389 . S
C5266 H5239 0.950 . S
C5266 C5252 1.377 . S
C5266 C5265 1.373 . S
C5267 C5251 1.377 . S
C5267 C5265 1.389 . S
C5267 C5268 1.524 . S
C5268 C5267 1.524 . S
C5268 C5269 1.397 . S
C5268 C5273 1.363 . S
C5269 H5240 0.950 . S
C5269 C5268 1.397 . S
C5269 C5270 1.334 . S
C5270 H5241 0.950 . S
C5270 C5269 1.334 . S
C5270 C5271 1.287 . S
C5271 C5270 1.287 . S
C5271 C5272 1.524 . S
C5271 H5274 0.999 . S
C5272 H5242 0.950 . S
C5272 C5271 1.524 . S
C5272 C5273 1.415 . S
C5273 H5243 0.950 . S
C5273 C5268 1.363 . S
C5273 C5272 1.415 . S
H5274 C5271 0.999 . S
H5275 C5256 0.913 . S
H5276 C5294 0.951 . S
H5277 C5296 0.951 . S
H5278 C5298 0.950 . S
H5279 C5299 0.950 . S
H5280 C5301 0.950 . S
H5281 C5304 0.950 . S
H5282 C5305 0.950 . S
H5283 C5307 0.950 . S
H5284 C5308 0.950 . S
H5285 C5309 0.951 . S
H5286 C5311 0.945 1_455 S
H5287 C5313 0.950 . S
H5288 C5314 0.950 . S
H5289 C5316 0.950 . S
H5290 C5319 0.950 . S
H5291 C5320 0.950 . S
H5292 C5322 0.950 . S
H5293 C5323 0.950 . S
C5294 H5276 0.951 . S
C5294 C5295 1.366 . S
C5294 C5296 1.388 . S
C5295 C5294 1.366 . S
C5295 C5299 1.385 . S
C5296 H5277 0.951 . S
C5296 C5294 1.388 . S
C5296 C5297 1.366 . S
C5297 C5296 1.366 . S
C5297 C5298 1.414 . S
C5297 C5300 1.499 . S
C5298 H5278 0.950 . S
C5298 C5297 1.414 . S
C5298 C5299 1.374 . S
C5299 H5279 0.950 . S
C5299 C5295 1.385 . S
C5299 C5298 1.374 . S
C5300 C5297 1.499 . S
C5300 C5301 1.373 . S
C5300 C5302 1.389 . S
C5301 H5280 0.950 . S
C5301 C5300 1.373 . S
C5301 C5317 1.377 . S
C5302 C5300 1.389 . S
C5302 C5303 1.524 . S
C5302 C5316 1.377 . S
C5303 C5302 1.524 . S
C5303 C5304 1.397 . S
C5303 C5308 1.363 . S
C5304 H5281 0.950 . S
C5304 C5303 1.397 . S
C5304 C5305 1.334 . S
C5305 H5282 0.950 . S
C5305 C5304 1.334 . S
C5305 C5306 1.287 . S
C5306 C5305 1.287 . S
C5306 C5307 1.524 . S
C5306 H5325 0.913 . S
C5307 H5283 0.950 . S
C5307 C5306 1.524 . S
C5307 C5308 1.415 . S
C5308 H5284 0.950 . S
C5308 C5303 1.363 . S
C5308 C5307 1.415 . S
C5309 H5285 0.951 . S
C5309 C5310 1.366 1_455 S
C5309 C5311 1.388 1_455 S
C5310 C5309 1.366 1_655 S
C5310 C5314 1.385 . S
C5311 H5286 0.945 1_655 S
C5311 C5309 1.388 1_655 S
C5311 C5312 1.366 . S
C5312 C5311 1.366 . S
C5312 C5313 1.414 . S
C5312 C5315 1.499 . S
C5313 H5287 0.950 . S
C5313 C5312 1.414 . S
C5313 C5314 1.374 . S
C5314 H5288 0.950 . S
C5314 C5310 1.385 . S
C5314 C5313 1.374 . S
C5315 C5312 1.499 . S
C5315 C5316 1.373 . S
C5315 C5317 1.389 . S
C5316 H5289 0.950 . S
C5316 C5302 1.377 . S
C5316 C5315 1.373 . S
C5317 C5301 1.377 . S
C5317 C5315 1.389 . S
C5317 C5318 1.524 . S
C5318 C5317 1.524 . S
C5318 C5319 1.397 . S
C5318 C5323 1.363 . S
C5319 H5290 0.950 . S
C5319 C5318 1.397 . S
C5319 C5320 1.334 . S
C5320 H5291 0.950 . S
C5320 C5319 1.334 . S
C5320 C5321 1.287 . S
C5321 C5320 1.287 . S
C5321 C5322 1.524 . S
C5321 H5324 0.999 . S
C5322 H5292 0.950 . S
C5322 C5321 1.524 . S
C5322 C5323 1.415 . S
C5323 H5293 0.950 . S
C5323 C5318 1.363 . S
C5323 C5322 1.415 . S
H5324 C5321 0.999 . S
H5325 C5306 0.913 . S
H5326 C5344 0.951 . S
H5327 C5346 0.951 . S
H5328 C5348 0.950 . S
H5329 C5349 0.950 . S
H5330 C5351 0.950 . S
H5331 C5354 0.950 . S
H5332 C5355 0.950 . S
H5333 C5357 0.950 . S
H5334 C5358 0.950 . S
H5335 C5359 0.951 . S
H5336 C5361 0.951 . S
H5337 C5363 0.950 . S
H5338 C5364 0.950 . S
H5339 C5366 0.950 . S
H5340 C5369 0.950 . S
H5341 C5370 0.950 . S
H5342 C5372 0.950 . S
H5343 C5373 0.950 . S
C5344 H5326 0.951 . S
C5344 C5345 1.366 . S
C5344 C5346 1.388 . S
C5345 C5344 1.366 . S
C5345 C5349 1.385 . S
C5346 H5327 0.951 . S
C5346 C5344 1.388 . S
C5346 C5347 1.366 . S
C5347 C5346 1.366 . S
C5347 C5348 1.414 . S
C5347 C5350 1.499 . S
C5348 H5328 0.950 . S
C5348 C5347 1.414 . S
C5348 C5349 1.374 . S
C5349 H5329 0.950 . S
C5349 C5345 1.385 . S
C5349 C5348 1.374 . S
C5350 C5347 1.499 . S
C5350 C5351 1.373 . S
C5350 C5352 1.389 . S
C5351 H5330 0.950 . S
C5351 C5350 1.373 . S
C5351 C5367 1.377 . S
C5352 C5350 1.389 . S
C5352 C5353 1.524 . S
C5352 C5366 1.377 . S
C5353 C5352 1.524 . S
C5353 C5354 1.397 . S
C5353 C5358 1.363 . S
C5354 H5331 0.950 . S
C5354 C5353 1.397 . S
C5354 C5355 1.334 . S
C5355 H5332 0.950 . S
C5355 C5354 1.334 . S
C5355 C5356 1.287 . S
C5356 C5355 1.287 . S
C5356 C5357 1.524 . S
C5356 H5375 0.913 . S
C5357 H5333 0.950 . S
C5357 C5356 1.524 . S
C5357 C5358 1.415 . S
C5358 H5334 0.950 . S
C5358 C5353 1.363 . S
C5358 C5357 1.415 . S
C5359 H5335 0.951 . S
C5359 C5360 1.366 . S
C5359 C5361 1.388 . S
C5360 C5359 1.366 . S
C5360 C5364 1.385 . S
C5361 H5336 0.951 . S
C5361 C5359 1.388 . S
C5361 C5362 1.366 . S
C5362 C5361 1.366 . S
C5362 C5363 1.414 . S
C5362 C5365 1.499 . S
C5363 H5337 0.950 . S
C5363 C5362 1.414 . S
C5363 C5364 1.374 . S
C5364 H5338 0.950 . S
C5364 C5360 1.385 . S
C5364 C5363 1.374 . S
C5365 C5362 1.499 . S
C5365 C5366 1.373 . S
C5365 C5367 1.389 . S
C5366 H5339 0.950 . S
C5366 C5352 1.377 . S
C5366 C5365 1.373 . S
C5367 C5351 1.377 . S
C5367 C5365 1.389 . S
C5367 C5368 1.524 . S
C5368 C5367 1.524 . S
C5368 C5369 1.397 . S
C5368 C5373 1.363 . S
C5369 H5340 0.950 . S
C5369 C5368 1.397 . S
C5369 C5370 1.334 . S
C5370 H5341 0.950 . S
C5370 C5369 1.334 . S
C5370 C5371 1.287 . S
C5371 C5370 1.287 . S
C5371 C5372 1.524 . S
C5371 H5374 0.999 . S
C5372 H5342 0.950 . S
C5372 C5371 1.524 . S
C5372 C5373 1.415 . S
C5373 H5343 0.950 . S
C5373 C5368 1.363 . S
C5373 C5372 1.415 . S
H5374 C5371 0.999 . S
H5375 C5356 0.913 . S
H5376 C5394 0.951 . S
H5377 C5396 0.951 . S
H5378 C5398 0.950 . S
H5379 C5399 0.950 . S
H5380 C5401 0.950 . S
H5381 C5404 0.950 . S
H5382 C5405 0.950 . S
H5383 C5407 0.950 . S
H5384 C5408 0.950 . S
H5385 C5409 0.951 . S
H5386 C5411 0.951 . S
H5387 C5413 0.950 . S
H5388 C5414 0.950 . S
H5389 C5416 0.950 . S
H5390 C5419 0.950 . S
H5391 C5420 0.950 . S
H5392 C5422 0.950 . S
H5393 C5423 0.950 . S
C5394 H5376 0.951 . S
C5394 C5395 1.366 . S
C5394 C5396 1.388 . S
C5395 C5394 1.366 . S
C5395 C5399 1.385 . S
C5396 H5377 0.951 . S
C5396 C5394 1.388 . S
C5396 C5397 1.366 . S
C5397 C5396 1.366 . S
C5397 C5398 1.414 . S
C5397 C5400 1.499 . S
C5398 H5378 0.950 . S
C5398 C5397 1.414 . S
C5398 C5399 1.374 . S
C5399 H5379 0.950 . S
C5399 C5395 1.385 . S
C5399 C5398 1.374 . S
C5400 C5397 1.499 . S
C5400 C5401 1.373 . S
C5400 C5402 1.389 . S
C5401 H5380 0.950 . S
C5401 C5400 1.373 . S
C5401 C5417 1.377 . S
C5402 C5400 1.389 . S
C5402 C5403 1.524 . S
C5402 C5416 1.377 . S
C5403 C5402 1.524 . S
C5403 C5404 1.397 . S
C5403 C5408 1.363 . S
C5404 H5381 0.950 . S
C5404 C5403 1.397 . S
C5404 C5405 1.334 . S
C5405 H5382 0.950 . S
C5405 C5404 1.334 . S
C5405 C5406 1.287 . S
C5406 C5405 1.287 . S
C5406 C5407 1.524 . S
C5406 H5425 0.913 . S
C5407 H5383 0.950 . S
C5407 C5406 1.524 . S
C5407 C5408 1.415 . S
C5408 H5384 0.950 . S
C5408 C5403 1.363 . S
C5408 C5407 1.415 . S
C5409 H5385 0.951 . S
C5409 C5410 1.366 . S
C5409 C5411 1.388 . S
C5410 C5409 1.366 . S
C5410 C5414 1.385 . S
C5411 H5386 0.951 . S
C5411 C5409 1.388 . S
C5411 C5412 1.366 . S
C5412 C5411 1.366 . S
C5412 C5413 1.414 . S
C5412 C5415 1.499 . S
C5413 H5387 0.950 . S
C5413 C5412 1.414 . S
C5413 C5414 1.374 . S
C5414 H5388 0.950 . S
C5414 C5410 1.385 . S
C5414 C5413 1.374 . S
C5415 C5412 1.499 . S
C5415 C5416 1.373 . S
C5415 C5417 1.389 . S
C5416 H5389 0.950 . S
C5416 C5402 1.377 . S
C5416 C5415 1.373 . S
C5417 C5401 1.377 . S
C5417 C5415 1.389 . S
C5417 C5418 1.524 . S
C5418 C5417 1.524 . S
C5418 C5419 1.397 . S
C5418 C5423 1.363 . S
C5419 H5390 0.950 . S
C5419 C5418 1.397 . S
C5419 C5420 1.334 . S
C5420 H5391 0.950 . S
C5420 C5419 1.334 . S
C5420 C5421 1.287 . S
C5421 C5420 1.287 . S
C5421 C5422 1.524 . S
C5421 H5424 0.999 . S
C5422 H5392 0.950 . S
C5422 C5421 1.524 . S
C5422 C5423 1.415 . S
C5423 H5393 0.950 . S
C5423 C5418 1.363 . S
C5423 C5422 1.415 . S
H5424 C5421 0.999 . S
H5425 C5406 0.913 . S
H5426 C5444 0.951 . S
H5427 C5446 0.951 . S
H5428 C5448 0.950 . S
H5429 C5449 0.950 . S
H5430 C5451 0.950 . S
H5431 C5454 0.950 . S
H5432 C5455 0.950 . S
H5433 C5457 0.950 . S
H5434 C5458 0.950 . S
H5435 C5459 0.951 1_545 S
H5436 C5461 0.951 . S
H5437 C5463 0.950 . S
H5438 C5464 0.950 . S
H5439 C5466 0.950 . S
H5440 C5469 0.950 . S
H5441 C5470 0.950 . S
H5442 C5472 0.950 . S
H5443 C5473 0.950 . S
C5444 H5426 0.951 . S
C5444 C5445 1.366 . S
C5444 C5446 1.388 . S
C5445 C5444 1.366 . S
C5445 C5449 1.385 . S
C5446 H5427 0.951 . S
C5446 C5444 1.388 . S
C5446 C5447 1.366 . S
C5447 C5446 1.366 . S
C5447 C5448 1.414 . S
C5447 C5450 1.499 . S
C5448 H5428 0.950 . S
C5448 C5447 1.414 . S
C5448 C5449 1.374 . S
C5449 H5429 0.950 . S
C5449 C5445 1.385 . S
C5449 C5448 1.374 . S
C5450 C5447 1.499 . S
C5450 C5451 1.373 . S
C5450 C5452 1.389 . S
C5451 H5430 0.950 . S
C5451 C5450 1.373 . S
C5451 C5467 1.377 . S
C5452 C5450 1.389 . S
C5452 C5453 1.524 . S
C5452 C5466 1.377 . S
C5453 C5452 1.524 . S
C5453 C5454 1.397 . S
C5453 C5458 1.363 . S
C5454 H5431 0.950 . S
C5454 C5453 1.397 . S
C5454 C5455 1.334 . S
C5455 H5432 0.950 . S
C5455 C5454 1.334 . S
C5455 C5456 1.287 . S
C5456 C5455 1.287 . S
C5456 C5457 1.524 . S
C5456 H5475 0.913 . S
C5457 H5433 0.950 . S
C5457 C5456 1.524 . S
C5457 C5458 1.415 . S
C5458 H5434 0.950 . S
C5458 C5453 1.363 . S
C5458 C5457 1.415 . S
C5459 H5435 0.951 1_565 S
C5459 C5460 1.366 . S
C5459 C5461 1.388 . S
C5460 C5459 1.366 . S
C5460 C5464 1.385 . S
C5461 H5436 0.951 . S
C5461 C5459 1.388 . S
C5461 C5462 1.366 . S
C5462 C5461 1.366 . S
C5462 C5463 1.414 . S
C5462 C5465 1.499 . S
C5463 H5437 0.950 . S
C5463 C5462 1.414 . S
C5463 C5464 1.374 . S
C5464 H5438 0.950 . S
C5464 C5460 1.385 . S
C5464 C5463 1.374 . S
C5465 C5462 1.499 . S
C5465 C5466 1.373 . S
C5465 C5467 1.389 . S
C5466 H5439 0.950 . S
C5466 C5452 1.377 . S
C5466 C5465 1.373 . S
C5467 C5451 1.377 . S
C5467 C5465 1.389 . S
C5467 C5468 1.524 . S
C5468 C5467 1.524 . S
C5468 C5469 1.397 . S
C5468 C5473 1.363 . S
C5469 H5440 0.950 . S
C5469 C5468 1.397 . S
C5469 C5470 1.334 1_565 S
C5470 H5441 0.950 . S
C5470 C5469 1.334 1_545 S
C5470 C5471 1.287 . S
C5471 C5470 1.287 . S
C5471 C5472 1.524 . S
C5471 H5474 0.999 . S
C5472 H5442 0.950 . S
C5472 C5471 1.524 . S
C5472 C5473 1.415 1_545 S
C5473 H5443 0.950 . S
C5473 C5468 1.363 . S
C5473 C5472 1.415 1_565 S
H5474 C5471 0.999 . S
H5475 C5456 0.913 . S
H5476 C5494 0.951 . S
H5477 C5496 0.951 . S
H5478 C5498 0.950 . S
H5479 C5499 0.950 . S
H5480 C5501 0.950 . S
H5481 C5504 0.950 . S
H5482 C5505 0.950 . S
H5483 C5507 0.950 . S
H5484 C5508 0.950 . S
H5485 C5509 0.951 . S
H5486 C5511 0.951 . S
H5487 C5513 0.950 . S
H5488 C5514 0.950 . S
H5489 C5516 0.950 . S
H5490 C5519 0.950 . S
H5491 C5520 0.950 . S
H5492 C5522 0.950 . S
H5493 C5523 0.950 . S
C5494 H5476 0.951 . S
C5494 C5495 1.366 . S
C5494 C5496 1.388 . S
C5495 C5494 1.366 . S
C5495 C5499 1.385 . S
C5496 H5477 0.951 . S
C5496 C5494 1.388 . S
C5496 C5497 1.366 . S
C5497 C5496 1.366 . S
C5497 C5498 1.414 . S
C5497 C5500 1.499 . S
C5498 H5478 0.950 . S
C5498 C5497 1.414 . S
C5498 C5499 1.374 . S
C5499 H5479 0.950 . S
C5499 C5495 1.385 . S
C5499 C5498 1.374 . S
C5500 C5497 1.499 . S
C5500 C5501 1.373 . S
C5500 C5502 1.389 . S
C5501 H5480 0.950 . S
C5501 C5500 1.373 . S
C5501 C5517 1.377 . S
C5502 C5500 1.389 . S
C5502 C5503 1.524 . S
C5502 C5516 1.377 . S
C5503 C5502 1.524 . S
C5503 C5504 1.397 . S
C5503 C5508 1.363 . S
C5504 H5481 0.950 . S
C5504 C5503 1.397 . S
C5504 C5505 1.334 . S
C5505 H5482 0.950 . S
C5505 C5504 1.334 . S
C5505 C5506 1.287 . S
C5506 C5505 1.287 . S
C5506 C5507 1.524 . S
C5506 H5525 0.913 . S
C5507 H5483 0.950 . S
C5507 C5506 1.524 . S
C5507 C5508 1.415 . S
C5508 H5484 0.950 . S
C5508 C5503 1.363 . S
C5508 C5507 1.415 . S
C5509 H5485 0.951 . S
C5509 C5510 1.366 . S
C5509 C5511 1.388 . S
C5510 C5509 1.366 . S
C5510 C5514 1.385 . S
C5511 H5486 0.951 . S
C5511 C5509 1.388 . S
C5511 C5512 1.366 . S
C5512 C5511 1.366 . S
C5512 C5513 1.414 . S
C5512 C5515 1.499 . S
C5513 H5487 0.950 . S
C5513 C5512 1.414 . S
C5513 C5514 1.374 . S
C5514 H5488 0.950 . S
C5514 C5510 1.385 . S
C5514 C5513 1.374 . S
C5515 C5512 1.499 . S
C5515 C5516 1.373 . S
C5515 C5517 1.389 . S
C5516 H5489 0.950 . S
C5516 C5502 1.377 . S
C5516 C5515 1.373 . S
C5517 C5501 1.377 . S
C5517 C5515 1.389 . S
C5517 C5518 1.524 . S
C5518 C5517 1.524 . S
C5518 C5519 1.397 . S
C5518 C5523 1.363 . S
C5519 H5490 0.950 . S
C5519 C5518 1.397 . S
C5519 C5520 1.334 . S
C5520 H5491 0.950 . S
C5520 C5519 1.334 . S
C5520 C5521 1.287 . S
C5521 C5520 1.287 . S
C5521 C5522 1.524 . S
C5521 H5524 0.999 . S
C5522 H5492 0.950 . S
C5522 C5521 1.524 . S
C5522 C5523 1.415 . S
C5523 H5493 0.950 . S
C5523 C5518 1.363 . S
C5523 C5522 1.415 . S
H5524 C5521 0.999 . S
H5525 C5506 0.913 . S
H5526 C5544 0.951 . S
H5527 C5546 0.951 . S
H5528 C5548 0.950 . S
H5529 C5549 0.950 . S
H5530 C5551 0.950 . S
H5531 C5554 0.950 . S
H5532 C5555 0.950 . S
H5533 C5557 0.950 . S
H5534 C5558 0.950 . S
H5535 C5559 0.951 . S
H5536 C5561 0.951 . S
H5537 C5563 0.950 . S
H5538 C5564 0.950 . S
H5539 C5566 0.950 . S
H5540 C5569 0.950 . S
H5541 C5570 0.950 . S
H5542 C5572 0.950 . S
H5543 C5573 0.977 . S
C5544 H5526 0.951 . S
C5544 C5545 1.366 . S
C5544 C5546 1.388 . S
C5545 C5544 1.366 . S
C5545 C5549 1.385 . S
C5546 H5527 0.951 . S
C5546 C5544 1.388 . S
C5546 C5547 1.366 . S
C5547 C5546 1.366 . S
C5547 C5548 1.414 . S
C5547 C5550 1.499 . S
C5548 H5528 0.950 . S
C5548 C5547 1.414 . S
C5548 C5549 1.374 . S
C5549 H5529 0.950 . S
C5549 C5545 1.385 . S
C5549 C5548 1.374 . S
C5550 C5547 1.499 . S
C5550 C5551 1.373 . S
C5550 C5552 1.389 . S
C5551 H5530 0.950 . S
C5551 C5550 1.373 . S
C5551 C5567 1.377 . S
C5552 C5550 1.389 . S
C5552 C5553 1.524 . S
C5552 C5566 1.377 . S
C5553 C5552 1.524 . S
C5553 C5554 1.397 . S
C5553 C5558 1.363 . S
C5554 H5531 0.950 . S
C5554 C5553 1.397 . S
C5554 C5555 1.334 . S
C5555 H5532 0.950 . S
C5555 C5554 1.334 . S
C5555 C5556 1.287 . S
C5556 C5555 1.287 . S
C5556 C5557 1.524 . S
C5556 H5575 0.913 . S
C5557 H5533 0.950 . S
C5557 C5556 1.524 . S
C5557 C5558 1.415 . S
C5558 H5534 0.950 . S
C5558 C5553 1.363 . S
C5558 C5557 1.415 . S
C5559 H5535 0.951 . S
C5559 C5560 1.366 . S
C5559 C5561 1.388 . S
C5560 C5559 1.366 . S
C5560 C5564 1.385 . S
C5561 H5536 0.951 . S
C5561 C5559 1.388 . S
C5561 C5562 1.366 . S
C5562 C5561 1.366 . S
C5562 C5563 1.414 . S
C5562 C5565 1.499 . S
C5563 H5537 0.950 . S
C5563 C5562 1.414 . S
C5563 C5564 1.374 . S
C5564 H5538 0.950 . S
C5564 C5560 1.385 . S
C5564 C5563 1.374 . S
C5565 C5562 1.499 . S
C5565 C5566 1.373 . S
C5565 C5567 1.389 . S
C5566 H5539 0.950 . S
C5566 C5552 1.377 . S
C5566 C5565 1.373 . S
C5567 C5551 1.377 . S
C5567 C5565 1.389 . S
C5567 C5568 1.524 . S
C5568 C5567 1.524 . S
C5568 C5569 1.397 1_554 S
C5568 C5573 1.371 . S
C5569 H5540 0.950 . S
C5569 C5568 1.397 1_556 S
C5569 C5570 1.334 . S
C5570 H5541 0.950 . S
C5570 C5569 1.334 . S
C5570 C5571 1.287 . S
C5571 C5570 1.287 . S
C5571 C5572 1.524 . S
C5571 H5574 0.999 . S
C5572 H5542 0.950 . S
C5572 C5571 1.524 . S
C5572 C5573 1.382 1_556 S
C5573 H5543 0.977 . S
C5573 C5568 1.371 . S
C5573 C5572 1.382 1_554 S
H5574 C5571 0.999 . S
H5575 C5556 0.913 . S
H5576 C5594 0.951 . S
H5577 C5596 0.951 . S
H5578 C5598 0.950 . S
H5579 C5599 0.950 . S
H5580 C5601 0.950 . S
H5581 C5604 0.950 . S
H5582 C5605 0.950 . S
H5583 C5607 0.950 . S
H5584 C5608 0.950 . S
H5585 C5609 0.951 . S
H5586 C5611 0.951 . S
H5587 C5613 0.950 . S
H5588 C5614 0.950 . S
H5589 C5616 0.950 . S
H5590 C5619 0.950 . S
H5591 C5620 0.950 . S
H5592 C5622 0.950 . S
H5593 C5623 0.950 . S
C5594 H5576 0.951 . S
C5594 C5595 1.366 . S
C5594 C5596 1.388 . S
C5595 C5594 1.366 . S
C5595 C5599 1.385 . S
C5596 H5577 0.951 . S
C5596 C5594 1.388 . S
C5596 C5597 1.366 . S
C5597 C5596 1.366 . S
C5597 C5598 1.414 . S
C5597 C5600 1.499 . S
C5598 H5578 0.950 . S
C5598 C5597 1.414 . S
C5598 C5599 1.374 . S
C5599 H5579 0.950 . S
C5599 C5595 1.385 . S
C5599 C5598 1.374 . S
C5600 C5597 1.499 . S
C5600 C5601 1.373 . S
C5600 C5602 1.389 . S
C5601 H5580 0.950 . S
C5601 C5600 1.373 . S
C5601 C5617 1.377 . S
C5602 C5600 1.389 . S
C5602 C5603 1.524 . S
C5602 C5616 1.377 . S
C5603 C5602 1.524 . S
C5603 C5604 1.397 . S
C5603 C5608 1.363 . S
C5604 H5581 0.950 . S
C5604 C5603 1.397 . S
C5604 C5605 1.334 . S
C5605 H5582 0.950 . S
C5605 C5604 1.334 . S
C5605 C5606 1.287 . S
C5606 C5605 1.287 . S
C5606 C5607 1.524 . S
C5606 H5625 0.913 . S
C5607 H5583 0.950 . S
C5607 C5606 1.524 . S
C5607 C5608 1.415 . S
C5608 H5584 0.950 . S
C5608 C5603 1.363 . S
C5608 C5607 1.415 . S
C5609 H5585 0.951 . S
C5609 C5610 1.366 . S
C5609 C5611 1.388 . S
C5610 C5609 1.366 . S
C5610 C5614 1.385 . S
C5611 H5586 0.951 . S
C5611 C5609 1.388 . S
C5611 C5612 1.366 . S
C5612 C5611 1.366 . S
C5612 C5613 1.414 . S
C5612 C5615 1.499 . S
C5613 H5587 0.950 . S
C5613 C5612 1.414 . S
C5613 C5614 1.374 . S
C5614 H5588 0.950 . S
C5614 C5610 1.385 . S
C5614 C5613 1.374 . S
C5615 C5612 1.499 . S
C5615 C5616 1.373 . S
C5615 C5617 1.389 . S
C5616 H5589 0.950 . S
C5616 C5602 1.377 . S
C5616 C5615 1.373 . S
C5617 C5601 1.377 . S
C5617 C5615 1.389 . S
C5617 C5618 1.524 . S
C5618 C5617 1.524 . S
C5618 C5619 1.397 . S
C5618 C5623 1.363 . S
C5619 H5590 0.950 . S
C5619 C5618 1.397 . S
C5619 C5620 1.334 . S
C5620 H5591 0.950 . S
C5620 C5619 1.334 . S
C5620 C5621 1.287 . S
C5621 C5620 1.287 . S
C5621 C5622 1.524 . S
C5621 H5624 0.999 . S
C5622 H5592 0.950 . S
C5622 C5621 1.524 . S
C5622 C5623 1.415 . S
C5623 H5593 0.950 . S
C5623 C5618 1.363 . S
C5623 C5622 1.415 . S
H5624 C5621 0.999 . S
H5625 C5606 0.913 . S
H5626 C5644 0.951 1_556 S
H5627 C5646 0.951 1_556 S
H5628 C5648 0.950 . S
H5629 C5649 0.950 . S
H5630 C5651 0.950 . S
H5631 C5654 0.950 1_554 S
H5632 C5655 0.950 . S
H5633 C5657 0.950 . S
H5634 C5658 0.950 . S
H5635 C5659 0.951 . S
H5636 C5661 0.951 . S
H5637 C5663 0.950 . S
H5638 C5664 0.950 . S
H5639 C5666 0.950 . S
H5640 C5669 0.950 . S
H5641 C5670 0.950 . S
H5642 C5672 0.950 . S
H5643 C5673 0.950 . S
C5644 H5626 0.951 1_554 S
C5644 C5645 1.366 . S
C5644 C5646 1.388 . S
C5645 C5644 1.366 . S
C5645 C5649 1.385 . S
C5646 H5627 0.951 1_554 S
C5646 C5644 1.388 . S
C5646 C5647 1.366 . S
C5647 C5646 1.366 . S
C5647 C5648 1.414 . S
C5647 C5650 1.499 . S
C5648 H5628 0.950 . S
C5648 C5647 1.414 . S
C5648 C5649 1.374 . S
C5649 H5629 0.950 . S
C5649 C5645 1.385 . S
C5649 C5648 1.374 . S
C5650 C5647 1.499 . S
C5650 C5651 1.373 . S
C5650 C5652 1.358 1_554 S
C5651 H5630 0.950 . S
C5651 C5650 1.373 . S
C5651 C5667 1.377 . S
C5652 C5650 1.358 1_556 S
C5652 C5653 1.554 . S
C5652 C5666 1.380 . S
C5653 C5652 1.554 . S
C5653 C5654 1.397 . S
C5653 C5658 1.363 . S
C5654 H5631 0.950 1_556 S
C5654 C5653 1.397 . S
C5654 C5655 1.334 . S
C5655 H5632 0.950 . S
C5655 C5654 1.334 . S
C5655 C5656 1.287 . S
C5656 C5655 1.287 . S
C5656 C5657 1.524 . S
C5656 H5675 0.913 . S
C5657 H5633 0.950 . S
C5657 C5656 1.524 . S
C5657 C5658 1.415 . S
C5658 H5634 0.950 . S
C5658 C5653 1.363 . S
C5658 C5657 1.415 . S
C5659 H5635 0.951 . S
C5659 C5660 1.415 . S
C5659 C5661 1.388 . S
C5660 C5659 1.415 . S
C5660 C5664 1.342 1_554 S
C5661 H5636 0.951 . S
C5661 C5659 1.388 . S
C5661 C5662 1.366 . S
C5662 C5661 1.366 . S
C5662 C5663 1.414 1_554 S
C5662 C5665 1.499 . S
C5663 H5637 0.950 . S
C5663 C5662 1.414 1_556 S
C5663 C5664 1.374 . S
C5664 H5638 0.950 . S
C5664 C5660 1.342 1_556 S
C5664 C5663 1.374 . S
C5665 C5662 1.499 . S
C5665 C5666 1.373 1_554 S
C5665 C5667 1.389 . S
C5666 H5639 0.950 . S
C5666 C5652 1.380 . S
C5666 C5665 1.373 1_556 S
C5667 C5651 1.377 . S
C5667 C5665 1.389 . S
C5667 C5668 1.524 . S
C5668 C5667 1.524 . S
C5668 C5669 1.397 . S
C5668 C5673 1.363 . S
C5669 H5640 0.950 . S
C5669 C5668 1.397 . S
C5669 C5670 1.334 . S
C5670 H5641 0.950 . S
C5670 C5669 1.334 . S
C5670 C5671 1.287 . S
C5671 C5670 1.287 . S
C5671 C5672 1.524 . S
C5671 H5674 0.999 . S
C5672 H5642 0.950 . S
C5672 C5671 1.524 . S
C5672 C5673 1.415 . S
C5673 H5643 0.950 . S
C5673 C5668 1.363 . S
C5673 C5672 1.415 . S
H5674 C5671 0.999 . S
H5675 C5656 0.913 . S
H5676 C5694 0.951 . S
H5677 C5696 0.951 . S
H5678 C5698 0.950 . S
H5679 C5699 0.950 . S
H5680 C5701 0.950 . S
H5681 C5704 0.950 . S
H5682 C5705 0.950 . S
H5683 C5707 0.950 . S
H5684 C5708 0.950 . S
H5685 C5709 0.951 . S
H5686 C5711 0.951 . S
H5687 C5713 0.950 . S
H5688 C5714 0.950 . S
H5689 C5716 0.950 . S
H5690 C5719 0.950 . S
H5691 C5720 0.950 . S
H5692 C5722 0.950 . S
H5693 C5723 0.950 . S
C5694 H5676 0.951 . S
C5694 C5695 1.366 . S
C5694 C5696 1.388 . S
C5695 C5694 1.366 . S
C5695 C5699 1.385 . S
C5696 H5677 0.951 . S
C5696 C5694 1.388 . S
C5696 C5697 1.366 . S
C5697 C5696 1.366 . S
C5697 C5698 1.414 . S
C5697 C5700 1.499 . S
C5698 H5678 0.950 . S
C5698 C5697 1.414 . S
C5698 C5699 1.374 . S
C5699 H5679 0.950 . S
C5699 C5695 1.385 . S
C5699 C5698 1.374 . S
C5700 C5697 1.499 . S
C5700 C5701 1.373 . S
C5700 C5702 1.389 . S
C5701 H5680 0.950 . S
C5701 C5700 1.373 . S
C5701 C5717 1.377 . S
C5702 C5700 1.389 . S
C5702 C5703 1.524 . S
C5702 C5716 1.377 . S
C5703 C5702 1.524 . S
C5703 C5704 1.397 . S
C5703 C5708 1.363 . S
C5704 H5681 0.950 . S
C5704 C5703 1.397 . S
C5704 C5705 1.334 . S
C5705 H5682 0.950 . S
C5705 C5704 1.334 . S
C5705 C5706 1.287 . S
C5706 C5705 1.287 . S
C5706 C5707 1.524 . S
C5706 H5725 0.913 . S
C5707 H5683 0.950 . S
C5707 C5706 1.524 . S
C5707 C5708 1.415 . S
C5708 H5684 0.950 . S
C5708 C5703 1.363 . S
C5708 C5707 1.415 . S
C5709 H5685 0.951 . S
C5709 C5710 1.366 . S
C5709 C5711 1.388 . S
C5710 C5709 1.366 . S
C5710 C5714 1.385 . S
C5711 H5686 0.951 . S
C5711 C5709 1.388 . S
C5711 C5712 1.366 . S
C5712 C5711 1.366 . S
C5712 C5713 1.414 . S
C5712 C5715 1.499 . S
C5713 H5687 0.950 . S
C5713 C5712 1.414 . S
C5713 C5714 1.374 . S
C5714 H5688 0.950 . S
C5714 C5710 1.385 . S
C5714 C5713 1.374 . S
C5715 C5712 1.499 . S
C5715 C5716 1.373 . S
C5715 C5717 1.389 . S
C5716 H5689 0.950 . S
C5716 C5702 1.377 . S
C5716 C5715 1.373 . S
C5717 C5701 1.377 . S
C5717 C5715 1.389 . S
C5717 C5718 1.524 . S
C5718 C5717 1.524 . S
C5718 C5719 1.397 . S
C5718 C5723 1.363 . S
C5719 H5690 0.950 . S
C5719 C5718 1.397 . S
C5719 C5720 1.334 . S
C5720 H5691 0.950 . S
C5720 C5719 1.334 . S
C5720 C5721 1.287 . S
C5721 C5720 1.287 . S
C5721 C5722 1.524 . S
C5721 H5724 0.999 . S
C5722 H5692 0.950 . S
C5722 C5721 1.524 . S
C5722 C5723 1.415 . S
C5723 H5693 0.950 . S
C5723 C5718 1.363 . S
C5723 C5722 1.415 . S
H5724 C5721 0.999 . S
H5725 C5706 0.913 . S
H5726 C5744 0.951 . S
H5727 C5746 0.951 . S
H5728 C5748 0.950 . S
H5729 C5749 0.950 . S
H5730 C5751 0.950 . S
H5731 C5754 0.950 . S
H5732 C5755 0.950 . S
H5733 C5757 0.950 . S
H5734 C5758 0.950 . S
H5735 C5759 0.951 . S
H5736 C5761 0.951 . S
H5737 C5763 0.950 . S
H5738 C5764 0.950 . S
H5739 C5766 0.950 . S
H5740 C5769 0.950 . S
H5741 C5770 0.950 . S
H5742 C5772 0.950 . S
H5743 C5773 0.950 . S
C5744 H5726 0.951 . S
C5744 C5745 1.366 . S
C5744 C5746 1.388 . S
C5745 C5744 1.366 . S
C5745 C5749 1.385 . S
C5746 H5727 0.951 . S
C5746 C5744 1.388 . S
C5746 C5747 1.366 . S
C5747 C5746 1.366 . S
C5747 C5748 1.414 . S
C5747 C5750 1.499 . S
C5748 H5728 0.950 . S
C5748 C5747 1.414 . S
C5748 C5749 1.374 . S
C5749 H5729 0.950 . S
C5749 C5745 1.385 . S
C5749 C5748 1.374 . S
C5750 C5747 1.499 . S
C5750 C5751 1.373 . S
C5750 C5752 1.389 . S
C5751 H5730 0.950 . S
C5751 C5750 1.373 . S
C5751 C5767 1.377 . S
C5752 C5750 1.389 . S
C5752 C5753 1.524 . S
C5752 C5766 1.377 . S
C5753 C5752 1.524 . S
C5753 C5754 1.397 . S
C5753 C5758 1.363 . S
C5754 H5731 0.950 . S
C5754 C5753 1.397 . S
C5754 C5755 1.334 . S
C5755 H5732 0.950 . S
C5755 C5754 1.334 . S
C5755 C5756 1.287 . S
C5756 C5755 1.287 . S
C5756 C5757 1.524 . S
C5756 H5775 0.913 . S
C5757 H5733 0.950 . S
C5757 C5756 1.524 . S
C5757 C5758 1.415 . S
C5758 H5734 0.950 . S
C5758 C5753 1.363 . S
C5758 C5757 1.415 . S
C5759 H5735 0.951 . S
C5759 C5760 1.366 . S
C5759 C5761 1.388 . S
C5760 C5759 1.366 . S
C5760 C5764 1.385 . S
C5761 H5736 0.951 . S
C5761 C5759 1.388 . S
C5761 C5762 1.366 . S
C5762 C5761 1.366 . S
C5762 C5763 1.414 . S
C5762 C5765 1.499 . S
C5763 H5737 0.950 . S
C5763 C5762 1.414 . S
C5763 C5764 1.374 . S
C5764 H5738 0.950 . S
C5764 C5760 1.385 . S
C5764 C5763 1.374 . S
C5765 C5762 1.499 . S
C5765 C5766 1.373 . S
C5765 C5767 1.389 . S
C5766 H5739 0.950 . S
C5766 C5752 1.377 . S
C5766 C5765 1.373 . S
C5767 C5751 1.377 . S
C5767 C5765 1.389 . S
C5767 C5768 1.524 . S
C5768 C5767 1.524 . S
C5768 C5769 1.397 . S
C5768 C5773 1.363 . S
C5769 H5740 0.950 . S
C5769 C5768 1.397 . S
C5769 C5770 1.334 . S
C5770 H5741 0.950 . S
C5770 C5769 1.334 . S
C5770 C5771 1.287 . S
C5771 C5770 1.287 . S
C5771 C5772 1.524 . S
C5771 H5774 0.999 . S
C5772 H5742 0.950 . S
C5772 C5771 1.524 . S
C5772 C5773 1.415 . S
C5773 H5743 0.950 . S
C5773 C5768 1.363 . S
C5773 C5772 1.415 . S
H5774 C5771 0.999 . S
H5775 C5756 0.913 . S
C995 C109 2.227 . S
C1010 C346 2.166 . S
C1045 C65 2.038 . S
C1060 C394 2.024 . S
C1095 C75 1.147 . S
C1110 C426 1.133 . S
C1160 C471 1.593 . S
C1145 C84 1.606 . S
C1195 C25 0.860 . S
C1210 C511 0.860 . S
C1260 C546 0.769 . S
C1245 C28 0.769 . S
C1310 C585 1.197 . S
C1295 C47 1.206 . S
C1345 C9 1.231 . S
C1360 C622 1.231 . S
C1410 C354 2.059 . S
C1395 C233 2.063 . S
C1445 C249 0.421 . S
C1460 C391 0.527 . S
C1510 C434 2.470 . S
C1495 C275 2.496 . S
C1560 C466 0.961 . S
C1545 C173 0.972 . S
C1595 C224 1.152 . S
C1610 C506 1.141 . S
C1660 C554 0.469 . S
C1645 C243 0.459 . S
C1710 C595 1.822 . S
C1695 C266 1.870 . S
C1760 C625 1.856 . S
C1745 C179 1.872 . S
C1810 C351 1.124 . S
C1795 C163 1.131 . S
C1845 C289 2.196 . S
C1860 C674 2.167 . S
C1910 C711 1.118 . S
C1895 C333 1.116 . S
C1960 C742 0.325 . S
C1945 C308 0.304 . S
C1995 C123 2.818 . S
C2010 C635 2.772 . S
C2045 C126 1.458 . S
C2060 C431 1.456 . S
C2095 C327 1.802 . S
C2110 C794 1.804 . S
C2160 C826 1.808 . S
C2145 C299 1.831 . S
C2210 C355 2.174 . S
C2195 C67 2.240 . S
C2260 C825 2.074 . S
C2245 C98 2.062 . S
C2295 C89 1.181 . S
C2310 C435 1.168 . S
C2345 C79 1.666 . S
C2360 C782 1.640 . S
C2410 C502 0.892 . S
C2395 C11 0.891 . S
C2445 C51 0.824 . S
C2460 C715 0.822 . S
C2510 C594 1.225 . S
C2495 C33 1.237 . S
C2560 C871 1.232 . S
C2545 C14 1.241 . S
C2610 C345 2.045 . S
C2595 C140 2.059 . S
C2660 C822 0.505 . S
C2645 C319 0.339 . S
C2695 C112 2.498 . S
C2710 C425 2.494 . S
C2745 C285 1.004 . S
C2760 C795 0.994 . S
C2795 C149 1.210 . S
C2810 C515 1.198 . S
C2860 C705 0.539 . S
C2845 C313 0.530 . S
C2895 C121 1.986 . S
C2910 C586 1.912 . S
C2945 C291 1.897 . S
C2960 C874 1.876 . S
C2995 C182 1.102 . S
C3010 C342 1.088 . S
C3045 C168 2.216 . S
C3060 C665 2.207 . S
C3095 C263 1.149 . S
C3110 C542 1.149 . S
C3145 C247 0.211 . S
C3160 C751 0.324 . S
C3210 C866 2.784 . S
C3195 C277 2.830 . S
C3245 C219 1.508 . S
C3260 C422 1.490 . S
C3310 C465 1.856 . S
C3295 C257 1.856 . S
C3360 C395 1.821 . S
C3345 C201 1.839 . S
C3395 C81 2.227 . S
C3410 C906 2.166 . S
C3460 C834 2.024 . S
C3445 C93 2.039 . S
C3495 C103 1.147 . S
C3510 C946 1.132 . S
C3545 C56 1.577 1_655 S
C3560 C791 1.594 . S
C3595 C53 0.860 . S
C3610 C671 0.859 . S
C3660 C706 0.769 . S
C3645 C0 0.770 . S
C3710 C745 1.197 . S
C3695 C19 1.206 . S
C3760 C862 1.231 . S
C3745 C37 1.231 . S
C3810 C914 2.059 . S
C3795 C261 2.063 . S
C3845 C193 0.421 . S
C3860 C831 0.527 . S
C3910 C954 2.470 . S
C3895 C205 2.496 . S
C3960 C786 0.961 . S
C3945 C215 0.971 . S
C4010 C666 1.141 . S
C3995 C252 1.153 . S
C4045 C187 0.459 . S
C4060 C714 0.469 . S
C4110 C755 1.821 . S
C4095 C196 1.869 . S
C4145 C221 1.872 . S
C4160 C865 1.856 . S
C4210 C911 1.125 . S
C4195 C317 1.134 . S
C4245 C135 2.195 . S
C4260 C514 2.166 . S
C4310 C551 1.118 . S
C4295 C151 1.115 . S
C4360 C582 0.325 . S
C4345 C154 0.302 . S
C4410 C875 2.772 . S
C4395 C305 2.818 . S
C4445 C280 1.458 . S
C4460 C951 1.456 . S
C4510 C474 1.804 . S
C4495 C145 1.802 . S
C4560 C386 1.808 . S
C4545 C117 1.831 . S
C4595 C95 2.239 . S
C4610 C915 2.174 . S
C4660 C385 2.074 . S
C4645 C70 2.062 . S
C4695 C61 1.181 . S
C4710 C955 1.168 . S
C4745 C107 1.667 . S
C4760 C462 1.640 . S
C4795 C39 0.891 . S
C4810 C662 0.892 . S
C4860 C555 0.821 . S
C4845 C23 0.824 . S
C4895 C5 1.237 . S
C4910 C754 1.225 . S
C4945 C42 1.241 . S
C4960 C631 1.232 . S
C5010 C905 2.045 . S
C4995 C322 2.059 . S
C5045 C165 0.341 . S
C5060 C382 0.508 . S
C5110 C945 2.494 . S
C5095 C294 2.498 . S
C5145 C131 1.004 . S
C5160 C475 0.994 . S
C5195 C331 1.210 . S
C5210 C675 1.198 . S
C5260 C545 0.540 . S
C5245 C159 0.536 . S
C5295 C303 1.986 . S
C5310 C746 1.913 1_655 S
C5360 C634 1.876 . S
C5345 C137 1.897 . S
C5410 C902 1.089 . S
C5395 C238 1.103 . S
C5460 C505 2.207 1_665 S
C5445 C210 2.216 . S
C5495 C235 1.149 . S
C5510 C702 1.149 . S
C5560 C591 0.322 . S
C5545 C191 0.209 . S
C5595 C207 2.830 . S
C5610 C626 2.784 . S
C5645 C177 1.508 . S
C5660 C942 1.496 . S
C5710 C785 1.856 . S
C5695 C229 1.857 . S
C5760 C835 1.821 . S
C5745 C271 1.839 . S
