# Generated by pormake.
# Topology pts, (4,4)-cn, num edge types: 1
# Building blocks:
#     Node 0, Type 0, BuildingBlock: ESEHIV_clean_sbu_0, # of connection points: 4
#     Node 1, Type 0, BuildingBlock: ESEHIV_clean_sbu_0, # of connection points: 4
#     Node 2, Type 1, BuildingBlock: UXUYUI_clean_sbu_0, # of connection points: 4
#     Node 3, Type 1, BuildingBlock: UXUYUI_clean_sbu_0, # of connection points: 4
#     Edge 4, Type (0, 1), BuildingBlock: OJICUG_clean_linker_0, # of connection points: 2
#     Edge 5, Type (0, 1), BuildingBlock: OJICUG_clean_linker_0, # of connection points: 2
#     Edge 6, Type (0, 1), BuildingBlock: OJICUG_clean_linker_0, # of connection points: 2
#     Edge 7, Type (0, 1), BuildingBlock: OJICUG_clean_linker_0, # of connection points: 2
#     Edge 8, Type (0, 1), BuildingBlock: OJICUG_clean_linker_0, # of connection points: 2
#     Edge 9, Type (0, 1), BuildingBlock: OJICUG_clean_linker_0, # of connection points: 2
#     Edge 10, Type (0, 1), BuildingBlock: OJICUG_clean_linker_0, # of connection points: 2
#     Edge 11, Type (0, 1), BuildingBlock: OJICUG_clean_linker_0, # of connection points: 2
# Relax obj value: 0.002
# Max RMSD: 0.096
# Mean RMSD: 0.064
data_MOF--net-pts--node1-ESEHIV_clean_sbu_0--node2-UXUYUI_clean_sbu_0--edge1-OJICUG_clean_linker_0
_symmetry_space_group_name_H-M    P1
_symmetry_Int_Tables_number       1
_symmetry_cell_setting            triclinic
loop_
_symmetry_equiv_pos_as_xyz
'x, y, z'
_cell_length_a     24.076584
_cell_length_b     24.030499
_cell_length_c     35.774093
_cell_angle_alpha  93.674057
_cell_angle_beta   93.780191
_cell_angle_gamma 90.093901
loop_
_atom_site_label
_atom_site_type_symbol
_atom_site_fract_x
_atom_site_fract_y
_atom_site_fract_z
_atom_type_partial_charge
Cu0 Cu 0.55715 0.03889 1.01764 0.0
N1 N 0.59524 0.99763 0.9815 0.0
N2 N 0.65769 0.98533 0.93824 0.0
C3 C 0.63089 0.02239 0.96036 0.0
C4 C 0.63794 0.93486 0.94574 0.0
C5 C 0.59908 0.9426 0.97242 0.0
O6 O 0.61504 0.07727 0.0503 0.0
C7 C 0.46634 0.04904 0.97205 0.0
O8 O 0.47444 0.99507 0.97293 0.0
H9 H 0.63877 0.06688 0.96254 0.0
H10 H 0.57644 0.91041 0.98483 0.0
N11 N 0.51475 0.99853 0.04859 0.0
N12 N 0.44516 0.9878 0.08601 0.0
C13 C 0.47362 0.02354 0.06679 0.0
C14 C 0.51311 0.94469 0.05675 0.0
C15 C 0.47013 0.93796 0.08001 0.0
C16 C 0.64949 0.04222 0.06373 0.0
O17 O 0.63998 0.98882 0.05561 0.0
H18 H 0.46487 0.06756 0.06567 0.0
H19 H 0.54046 0.91255 0.04627 0.0
O20 O 0.50185 0.08213 0.98986 0.0
H21 H 0.65102 0.89525 0.9332 0.0
H22 H 0.45755 0.89919 0.09085 0.0
Cu23 Cu 0.10085 0.58975 0.52622 0.0
N24 N 0.14013 0.55067 0.56283 0.0
N25 N 0.15142 0.48549 0.60454 0.0
C26 C 0.11542 0.51097 0.58083 0.0
C27 C 0.20113 0.51033 0.60128 0.0
C28 C 0.194 0.55077 0.57552 0.0
O29 O 0.06748 0.53251 0.49062 0.0
C30 C 0.08106 0.67716 0.57339 0.0
O31 O 0.13555 0.67326 0.57538 0.0
H32 H 0.07194 0.49979 0.57547 0.0
H33 H 0.22584 0.57758 0.56638 0.0
N34 N 0.14278 0.63614 0.49884 0.0
N35 N 0.15499 0.70737 0.46293 0.0
C36 C 0.11866 0.67865 0.48144 0.0
C37 C 0.1967 0.63751 0.49107 0.0
C38 C 0.20432 0.68149 0.46867 0.0
C39 C 0.10488 0.50096 0.47721 0.0
O40 O 0.15725 0.5126 0.48739 0.0
H41 H 0.07467 0.68762 0.48196 0.0
H42 H 0.22806 0.60864 0.50073 0.0
O43 O 0.05229 0.64109 0.5527 0.0
H44 H 0.23985 0.50002 0.61631 0.0
H45 H 0.24311 0.69367 0.45778 0.0
Li46 Li 0.06066 0.14141 0.29721 0.0
Li47 Li 0.05727 0.03889 0.29599 0.0
Li48 Li 0.10743 0.08611 0.24718 0.0
Li49 Li 1.00538 0.08607 0.24553 0.0
C50 C 0.16826 0.11014 0.32406 0.0
N51 N 0.25872 0.15416 0.36778 0.0
C52 C 0.17953 0.0935 0.36051 0.0
C53 C 0.20367 0.14834 0.30962 0.0
C54 C 0.22525 0.11648 0.38225 0.0
C55 C 0.24901 0.17033 0.33221 0.0
C56 C 0.96032 0.07159 0.3253 0.0
C57 C 0.88857 1.00751 0.33943 0.0
N58 N 0.89238 0.02838 0.37576 0.0
C59 C 0.96302 0.09289 0.36266 0.0
C60 C 0.92239 0.02898 0.31347 0.0
C61 C 0.92853 0.0703 0.38779 0.0
C62 C 0.04164 0.25638 0.31766 0.0
N63 N 0.06128 0.20731 0.33009 0.0
C64 C 0.08267 0.25022 0.39142 0.0
C65 C 0.08023 0.20324 0.36641 0.0
C66 C 0.06478 0.30196 0.3791 0.0
C67 C 0.04302 0.3046 0.34187 0.0
H68 H 0.02557 0.25823 0.28881 0.0
H69 H 0.09331 0.16339 0.37606 0.0
C70 C 0.08047 0.92712 0.31048 0.0
N71 N 0.06521 0.97694 0.3268 0.0
C72 C 0.09474 0.88265 0.33248 0.0
C73 C 0.07725 0.94144 0.38774 0.0
C74 C 0.06333 0.98477 0.36466 0.0
C75 C 0.09389 0.88964 0.37174 0.0
H76 H 0.08336 0.92239 0.28043 0.0
H77 H 0.05349 0.02536 0.37714 0.0
C78 C 0.07997 0.18982 0.22159 0.0
N79 N 0.12798 0.26841 0.18045 0.0
C80 C 0.06459 0.19249 0.18339 0.0
C81 C 0.11899 0.22785 0.239 0.0
C82 C 0.08957 0.23228 0.16302 0.0
C83 C 0.14299 0.26708 0.2177 0.0
C84 C 0.03074 0.98214 0.21611 0.0
C85 C 0.04608 0.9767 0.17905 0.0
C86 C 0.98943 0.94731 0.22755 0.0
C87 C 0.01882 0.93735 0.15379 0.0
C88 C 0.96318 0.90843 0.20147 0.0
N89 N 0.97823 0.90436 0.16541 0.0
C90 C 0.21699 0.05368 0.23409 0.0
C91 C 0.16628 0.08401 0.18024 0.0
C92 C 0.26229 0.03942 0.21303 0.0
N93 N 0.17035 0.07585 0.21756 0.0
C94 C 0.21044 0.06993 0.15802 0.0
C95 C 0.25932 0.04698 0.17432 0.0
H96 H 0.2186 0.04578 0.26353 0.0
H97 H 0.12798 0.09936 0.16736 0.0
C98 C 0.88913 0.09695 0.22507 0.0
N99 N 0.94022 0.08699 0.212 0.0
C100 C 0.84178 0.09687 0.20014 0.0
C101 C 0.90087 0.07828 0.1488 0.0
C102 C 0.9469 0.07904 0.17462 0.0
C103 C 0.84731 0.08642 0.16147 0.0
H104 H 0.88503 0.10449 0.25488 0.0
H105 H 0.98807 0.07295 0.16483 0.0
O106 O 0.12355 0.08809 0.30241 0.0
O107 O 0.994 0.09299 0.30034 0.0
O108 O 0.05585 0.15111 0.24196 0.0
O109 O 0.05656 0.02086 0.24115 0.0
H110 H 0.15299 0.06353 0.37203 0.0
H111 H 0.19676 0.16026 0.2811 0.0
H112 H 0.23414 0.10433 0.41061 0.0
H113 H 0.27665 0.20004 0.32139 0.0
H114 H 0.85917 0.97437 0.33066 0.0
H115 H 0.99172 0.12621 0.37224 0.0
H116 H 0.91874 1.01296 0.28449 0.0
H117 H 0.9305 0.08611 0.41685 0.0
H118 H 0.09878 0.24621 0.42011 0.0
H119 H 0.02896 0.34376 0.33129 0.0
H120 H 0.1068 0.84338 0.31887 0.0
H121 H 0.07697 0.94914 0.41789 0.0
H122 H 0.03397 0.16391 0.16952 0.0
H123 H 0.13032 0.22749 0.26871 0.0
H124 H 0.07837 0.23448 0.13337 0.0
H125 H 0.1734 0.29661 0.23083 0.0
H126 H 0.07828 1.00297 0.16978 0.0
H127 H 0.97811 0.94992 0.25633 0.0
H128 H 0.02994 0.93305 0.12494 0.0
H129 H 0.93098 0.88136 0.20992 0.0
H130 H 0.29914 0.02242 0.22699 0.0
H131 H 0.20555 0.07541 0.12819 0.0
H132 H 0.8012 0.10303 0.21107 0.0
H133 H 0.90707 0.07087 0.11918 0.0
Li134 Li 1.00384 0.0825 0.79424 0.0
Li135 Li 0.10475 0.08521 0.80048 0.0
Li136 Li 0.0597 0.13723 0.75099 0.0
Li137 Li 0.0604 0.0353 0.74694 0.0
C138 C 0.06869 0.1759 0.84002 0.0
N139 N 0.1041 0.22904 0.90826 0.0
C140 C 0.04742 0.15984 0.87315 0.0
C141 C 0.10776 0.2192 0.8416 0.0
C142 C 0.06586 0.18718 0.90737 0.0
C143 C 0.12524 0.24545 0.87637 0.0
C144 C 0.07678 0.99087 0.82922 0.0
C145 C 0.14953 0.93494 0.85712 0.0
N146 N 0.1219 0.93498 0.88908 0.0
C147 C 0.04899 0.99019 0.86229 0.0
C148 C 0.12732 0.96281 0.82651 0.0
C149 C 0.07251 0.96171 0.89225 0.0
C150 C 0.91491 1.01939 0.81174 0.0
N151 N 0.93567 0.07212 0.81717 0.0
C152 C 0.8622 0.09855 0.85635 0.0
C153 C 0.90987 0.11198 0.83834 0.0
C154 C 0.84077 0.04373 0.85225 0.0
C155 C 0.86741 1.00422 0.82905 0.0
H156 H 0.9361 0.98873 0.79445 0.0
H157 H 0.92692 0.15379 0.8419 0.0
C158 C 0.21947 0.09996 0.82261 0.0
N159 N 0.16894 0.09003 0.83587 0.0
C160 C 0.26756 0.10244 0.84689 0.0
C161 C 0.21049 0.08672 0.89827 0.0
C162 C 0.16371 0.08444 0.87306 0.0
C163 C 0.26351 0.09468 0.8852 0.0
H164 H 0.22262 0.10501 0.793 0.0
H165 H 0.12334 0.07722 0.88325 0.0
C166 C 0.9482 0.11269 0.72713 0.0
N167 N 0.85204 0.16847 0.70608 0.0
C168 C 0.91501 0.09326 0.69545 0.0
C169 C 0.93239 0.16039 0.74821 0.0
C170 C 0.86658 0.12209 0.68523 0.0
C171 C 0.88365 0.18801 0.73708 0.0
C172 C 0.15066 0.06376 0.71858 0.0
C173 C 0.13887 0.08168 0.68252 0.0
C174 C 0.1879 0.02002 0.72397 0.0
C175 C 0.16438 0.05516 0.65231 0.0
C176 C 0.21251 0.99455 0.69302 0.0
N177 N 0.20031 1.01248 0.65814 0.0
C178 C 0.11947 0.22865 0.73276 0.0
C179 C 0.03284 0.22125 0.69736 0.0
C180 C 0.13385 0.27569 0.71446 0.0
N181 N 0.06955 0.20278 0.7243 0.0
C182 C 0.04554 0.26827 0.67831 0.0
C183 C 0.09672 0.29621 0.68676 0.0
H184 H 0.1486 0.21213 0.75347 0.0
H185 H 0.9942 0.19914 0.69004 0.0
C186 C 0.06922 0.91995 0.72567 0.0
N187 N 0.05769 0.97084 0.71266 0.0
C188 C 0.06396 0.87196 0.7015 0.0
C189 C 0.03436 0.92948 0.65098 0.0
C190 C 0.04009 0.97639 0.67619 0.0
C191 C 0.04633 0.87626 0.66354 0.0
H192 H 0.08212 0.91647 0.75489 0.0
H193 H 0.03009 1.01728 0.66676 0.0
O194 O 0.05116 0.14954 0.80626 0.0
O195 O 0.05454 1.01871 0.79963 0.0
O196 O 0.99535 0.08441 0.73761 0.0
O197 O 0.1249 0.08806 0.74834 0.0
H198 H 1.01801 0.12574 0.87261 0.0
H199 H 0.12454 0.23237 0.8163 0.0
H200 H 0.05005 0.17485 0.93324 0.0
H201 H 0.15559 0.2789 0.878 0.0
H202 H 0.1888 0.91341 0.8555 0.0
H203 H 1.01 1.01186 0.86501 0.0
H204 H 0.14953 0.96316 0.80122 0.0
H205 H 0.05161 0.96106 0.91807 0.0
H206 H 0.84335 0.13036 0.87414 0.0
H207 H 0.85189 0.96186 0.82439 0.0
H208 H 0.30763 0.10811 0.83552 0.0
H209 H 0.20528 0.08119 0.92764 0.0
H210 H 0.92656 0.05624 0.67896 0.0
H211 H 0.95746 0.17612 0.7728 0.0
H212 H 0.84052 0.10756 0.66075 0.0
H213 H 0.87096 0.22501 0.75309 0.0
H214 H 0.10981 0.11521 0.67783 0.0
H215 H 0.19745 1.00572 0.75172 0.0
H216 H 0.15542 0.06836 0.62421 0.0
H217 H 0.24124 0.96048 0.69674 0.0
H218 H 0.17359 0.29588 0.72211 0.0
H219 H 1.01609 0.2818 0.65659 0.0
H220 H 0.07457 0.83201 0.71233 0.0
H221 H 0.02027 0.93478 0.62206 0.0
C222 C 0.36496 0.04822 0.10003 0.0
C223 C 0.39753 1.00107 0.10745 0.0
H224 H 0.29727 0.10024 0.1155 0.0
C225 C 0.38335 0.96821 0.13655 0.0
H226 H 0.37364 0.07402 0.07741 0.0
C227 C 0.33841 0.98277 0.15808 0.0
C228 C 0.30658 0.03061 0.15107 0.0
H229 H 0.40748 0.93176 0.14314 0.0
H230 H 0.32846 0.95628 0.18011 0.0
C231 C 0.32038 0.06291 0.12162 0.0
C232 C 0.17961 0.4002 0.63629 0.0
C233 C 0.1388 0.43953 0.62676 0.0
H234 H 0.19824 0.32368 0.6619 0.0
C235 C 0.08452 0.43206 0.63803 0.0
H236 H 0.2216 0.40428 0.6277 0.0
C237 C 0.07107 0.38594 0.65763 0.0
C238 C 0.11153 0.34599 0.66656 0.0
H239 H 0.05228 0.46205 0.63184 0.0
H240 H 0.02894 0.38185 0.66605 0.0
C241 C 0.16612 0.35393 0.6559 0.0
C242 C 0.70423 0.10602 0.11162 0.0
C243 C 0.70109 0.05868 0.08641 0.0
H244 H 0.75323 0.15186 0.15584 0.0
C245 C 0.74712 0.02296 0.08479 0.0
H246 H 0.66916 0.134 0.11353 0.0
C247 C 0.79473 0.03318 0.10846 0.0
C248 C 0.79755 0.07917 0.13473 0.0
H249 H 0.74604 0.98623 0.06552 0.0
H250 H 0.82873 1.00379 0.10704 0.0
C251 C 0.75201 0.11589 0.13594 0.0
C252 C 0.07204 0.77933 0.5789 0.0
C253 C 0.05689 0.72743 0.59109 0.0
H254 H 0.08057 0.86701 0.59216 0.0
C255 C 0.03183 0.7252 0.62521 0.0
H256 H 0.0926 0.78169 0.55297 0.0
C257 C 0.02533 0.77412 0.648 0.0
C258 C 0.04397 0.82588 0.63696 0.0
H259 H 0.02103 0.6854 0.63547 0.0
H260 H 1.00798 0.77109 0.67497 0.0
C261 C 0.06532 0.82813 0.60145 0.0
C262 C 0.41066 0.11332 0.93112 0.0
C263 C 0.41352 0.06786 0.95391 0.0
H264 H 0.36045 0.1576 0.89094 0.0
C265 C 0.36585 0.03488 0.95621 0.0
H266 H 0.44706 0.13908 0.92873 0.0
C267 C 0.31691 0.04528 0.93501 0.0
C268 C 0.31429 0.08883 0.91063 0.0
H269 H 0.36689 0.99964 0.9737 0.0
H270 H 0.28187 1.01734 0.93645 0.0
C271 C 0.3614 0.12346 0.90931 0.0
C272 C 0.1338 0.40993 0.44821 0.0
C273 C 0.09199 0.45018 0.45249 0.0
H274 H 0.15787 0.33236 0.42183 0.0
C275 C 0.04009 0.44129 0.43258 0.0
H276 H 0.17426 0.4152 0.46318 0.0
C277 C 0.03081 0.39325 0.40839 0.0
C278 C 0.07295 0.35312 0.4044 0.0
H279 H 1.00719 0.47167 0.43527 0.0
H280 H 0.99068 0.3872 0.39311 0.0
C281 C 0.12436 0.36208 0.42465 0.0
C282 C 0.70276 0.04972 0.89818 0.0
C283 C 0.70152 0.998 0.91445 0.0
H284 H 0.74677 0.1043 0.86535 0.0
C285 C 0.7453 0.9605 0.90883 0.0
H286 H 0.66919 0.07916 0.90147 0.0
C287 C 0.7901 0.97508 0.88835 0.0
C288 C 0.79197 0.02738 0.87275 0.0
H289 H 0.74595 0.92069 0.92138 0.0
H290 H 0.82406 0.94592 0.8857 0.0
C291 C 0.74735 0.06421 0.87756 0.0
C292 C 0.17202 0.76547 0.40996 0.0
C293 C 0.14204 0.75474 0.44113 0.0
H294 H 0.18055 0.81648 0.36367 0.0
C295 C 0.09729 0.78975 0.44989 0.0
H296 H 0.20651 0.73919 0.40239 0.0
C297 C 0.08199 0.83352 0.42757 0.0
C298 C 0.11108 0.84359 0.39588 0.0
H299 H 0.07384 0.78329 0.47405 0.0
H300 H 0.0466 0.85883 0.43478 0.0
C301 C 0.15662 0.80932 0.38752 0.0
loop_
_geom_bond_atom_site_label_1
_geom_bond_atom_site_label_2
_geom_bond_distance
_geom_bond_site_symmetry_2
_ccdc_geom_bond_type
Cu0 N1 1.999 1_554 S
Cu0 O6 1.974 . S
Cu0 N11 1.985 . S
Cu0 O20 1.959 1_554 S
N1 Cu0 1.999 1_556 S
N1 C3 1.263 . S
N1 C5 1.389 . S
N2 C3 1.358 . S
N2 C4 1.400 . S
C3 N1 1.263 . S
C3 N2 1.358 . S
C3 H9 0.930 . S
C4 N2 1.400 . S
C4 C5 1.351 . S
C4 H21 0.930 . S
C5 N1 1.389 . S
C5 C4 1.351 . S
C5 H10 0.930 . S
O6 Cu0 1.974 . S
O6 C16 1.282 . S
C7 O8 1.261 1_545 S
C7 O20 1.251 . S
O8 C7 1.261 1_565 S
H9 C3 0.930 . S
H10 C5 0.930 . S
N11 Cu0 1.985 . S
N11 C13 1.335 . S
N11 C14 1.390 . S
N12 C13 1.345 . S
N12 C15 1.336 . S
C13 N11 1.335 . S
C13 N12 1.345 . S
C13 H18 0.930 . S
C14 N11 1.390 . S
C14 C15 1.346 . S
C14 H19 0.930 . S
C15 N12 1.336 . S
C15 C14 1.346 . S
C15 H22 0.929 . S
C16 O6 1.282 . S
C16 O17 1.216 1_545 S
O17 C16 1.216 1_565 S
H18 C13 0.930 . S
H19 C14 0.930 . S
O20 Cu0 1.959 1_556 S
O20 C7 1.251 . S
H21 C4 0.930 . S
H22 C15 0.929 . S
Cu23 N24 1.999 . S
Cu23 O29 1.974 . S
Cu23 N34 1.985 . S
Cu23 O43 1.959 . S
N24 Cu23 1.999 . S
N24 C26 1.263 . S
N24 C28 1.389 1_455 S
N25 C26 1.358 . S
N25 C27 1.400 . S
C26 N24 1.263 . S
C26 N25 1.358 . S
C26 H32 0.930 . S
C27 N25 1.400 . S
C27 C28 1.351 1_455 S
C27 H44 0.930 1_455 S
C28 N24 1.389 1_655 S
C28 C27 1.351 1_655 S
C28 H33 0.930 . S
O29 Cu23 1.974 . S
O29 C39 1.282 . S
C30 O31 1.261 . S
C30 O43 1.251 . S
O31 C30 1.261 . S
H32 C26 0.930 . S
H33 C28 0.930 . S
N34 Cu23 1.985 . S
N34 C36 1.335 . S
N34 C37 1.390 . S
N35 C36 1.345 . S
N35 C38 1.336 . S
C36 N34 1.335 . S
C36 N35 1.345 . S
C36 H41 0.930 . S
C37 N34 1.390 . S
C37 C38 1.346 . S
C37 H42 0.930 . S
C38 N35 1.336 . S
C38 C37 1.346 . S
C38 H45 0.929 . S
C39 O29 1.282 . S
C39 O40 1.216 . S
O40 C39 1.216 . S
H41 C36 0.930 . S
H42 C37 0.930 . S
O43 Cu23 1.959 . S
O43 C30 1.251 . S
H44 C27 0.930 1_655 S
H45 C38 0.929 . S
Li46 N63 1.990 . S
Li46 O106 1.956 . S
Li46 O107 1.970 1_455 S
Li46 O108 1.961 . S
Li47 N71 1.990 1_545 S
Li47 O106 1.970 . S
Li47 O107 1.956 1_455 S
Li47 O109 1.961 . S
Li48 N93 1.990 . S
Li48 O106 1.961 . S
Li48 O108 1.956 . S
Li48 O109 1.970 . S
Li49 N99 1.990 . S
Li49 O107 1.961 . S
Li49 O108 1.970 1_655 S
Li49 O109 1.956 1_655 S
C50 C52 1.348 . S
C50 C53 1.356 . S
C50 O106 1.325 . S
N51 C54 1.314 . S
N51 C55 1.279 . S
C52 C50 1.348 . S
C52 C54 1.353 . S
C52 H110 0.929 . S
C53 C50 1.356 . S
C53 C55 1.358 . S
C53 H111 0.930 . S
C54 N51 1.314 . S
C54 C52 1.353 . S
C54 H112 0.930 . S
C55 N51 1.279 . S
C55 C53 1.358 . S
C55 H113 0.930 . S
C56 C59 1.348 . S
C56 C60 1.356 . S
C56 O107 1.325 . S
C57 N58 1.279 . S
C57 C60 1.358 . S
C57 H114 0.930 . S
N58 C57 1.279 . S
N58 C61 1.314 . S
C59 C56 1.348 . S
C59 C61 1.353 . S
C59 H115 0.929 . S
C60 C56 1.356 . S
C60 C57 1.358 . S
C60 H116 0.930 . S
C61 N58 1.314 . S
C61 C59 1.353 . S
C61 H117 0.930 . S
C62 N63 1.314 . S
C62 C67 1.353 . S
C62 H68 0.930 1_455 S
N63 Li46 1.990 . S
N63 C62 1.314 . S
N63 C65 1.279 . S
C64 C65 1.358 . S
C64 C66 1.356 . S
C64 H118 0.930 . S
C65 N63 1.279 . S
C65 C64 1.358 . S
C65 H69 0.930 . S
C66 C64 1.356 . S
C66 C67 1.348 . S
C67 C62 1.353 . S
C67 C66 1.348 . S
C67 H119 0.929 1_455 S
H68 C62 0.930 1_655 S
H69 C65 0.930 . S
C70 N71 1.314 . S
C70 C72 1.353 . S
C70 H76 0.930 . S
N71 Li47 1.990 1_565 S
N71 C70 1.314 . S
N71 C74 1.279 . S
C72 C70 1.353 . S
C72 C75 1.348 . S
C72 H120 0.929 . S
C73 C74 1.358 . S
C73 C75 1.356 . S
C73 H121 0.930 1_455 S
C74 N71 1.279 . S
C74 C73 1.358 . S
C74 H77 0.930 1_455 S
C75 C72 1.348 . S
C75 C73 1.356 . S
H76 C70 0.930 . S
H77 C74 0.930 1_655 S
C78 C80 1.348 . S
C78 C81 1.356 . S
C78 O108 1.325 . S
N79 C82 1.314 . S
N79 C83 1.279 . S
C80 C78 1.348 . S
C80 C82 1.353 . S
C80 H122 0.929 1_455 S
C81 C78 1.356 . S
C81 C83 1.358 . S
C81 H123 0.930 . S
C82 N79 1.314 . S
C82 C80 1.353 . S
C82 H124 0.930 1_455 S
C83 N79 1.279 . S
C83 C81 1.358 . S
C83 H125 0.930 . S
C84 C85 1.348 . S
C84 C86 1.356 . S
C84 O109 1.325 1_565 S
C85 C84 1.348 . S
C85 C87 1.353 . S
C85 H126 0.929 . S
C86 C84 1.356 . S
C86 C88 1.358 . S
C86 H127 0.930 1_455 S
C87 C85 1.353 . S
C87 N89 1.314 . S
C87 H128 0.930 . S
C88 C86 1.358 . S
C88 N89 1.279 . S
C88 H129 0.930 1_455 S
N89 C87 1.314 . S
N89 C88 1.279 . S
C90 C92 1.353 . S
C90 N93 1.314 . S
C90 H96 0.930 . S
C91 N93 1.279 . S
C91 C94 1.358 . S
C91 H97 0.930 . S
C92 C90 1.353 . S
C92 C95 1.348 . S
C92 H130 0.929 . S
N93 Li48 1.990 . S
N93 C90 1.314 . S
N93 C91 1.279 . S
C94 C91 1.358 . S
C94 C95 1.356 . S
C94 H131 0.930 . S
C95 C92 1.348 . S
C95 C94 1.356 . S
H96 C90 0.930 . S
H97 C91 0.930 . S
C98 N99 1.314 . S
C98 C100 1.353 . S
C98 H104 0.930 . S
N99 Li49 1.990 . S
N99 C98 1.314 . S
N99 C102 1.279 . S
C100 C98 1.353 . S
C100 C103 1.348 . S
C100 H132 0.929 . S
C101 C102 1.358 . S
C101 C103 1.356 . S
C101 H133 0.930 . S
C102 N99 1.279 . S
C102 C101 1.358 . S
C102 H105 0.930 . S
C103 C100 1.348 . S
C103 C101 1.356 . S
H104 C98 0.930 . S
H105 C102 0.930 . S
O106 Li46 1.956 . S
O106 Li47 1.970 . S
O106 Li48 1.961 . S
O106 C50 1.325 . S
O107 Li46 1.970 1_655 S
O107 Li47 1.956 1_655 S
O107 Li49 1.961 . S
O107 C56 1.325 . S
O108 Li46 1.961 . S
O108 Li48 1.956 . S
O108 Li49 1.970 1_455 S
O108 C78 1.325 . S
O109 Li47 1.961 . S
O109 Li48 1.970 . S
O109 Li49 1.956 1_455 S
O109 C84 1.325 1_545 S
H110 C52 0.929 . S
H111 C53 0.930 . S
H112 C54 0.930 . S
H113 C55 0.930 . S
H114 C57 0.930 . S
H115 C59 0.929 . S
H116 C60 0.930 . S
H117 C61 0.930 . S
H118 C64 0.930 . S
H119 C67 0.929 1_655 S
H120 C72 0.929 . S
H121 C73 0.930 1_655 S
H122 C80 0.929 1_655 S
H123 C81 0.930 . S
H124 C82 0.930 1_655 S
H125 C83 0.930 . S
H126 C85 0.929 . S
H127 C86 0.930 1_655 S
H128 C87 0.930 . S
H129 C88 0.930 1_655 S
H130 C92 0.929 . S
H131 C94 0.930 . S
H132 C100 0.929 . S
H133 C101 0.930 . S
Li134 N151 1.990 1_455 S
Li134 O194 1.956 . S
Li134 O195 1.970 1_545 S
Li134 O196 1.961 . S
Li135 N159 1.990 . S
Li135 O194 1.970 . S
Li135 O195 1.956 1_545 S
Li135 O197 1.961 . S
Li136 N181 1.990 . S
Li136 O194 1.961 . S
Li136 O196 1.956 . S
Li136 O197 1.970 . S
Li137 N187 1.990 . S
Li137 O195 1.961 . S
Li137 O196 1.970 1_565 S
Li137 O197 1.956 1_565 S
C138 C140 1.348 . S
C138 C141 1.356 . S
C138 O194 1.325 . S
N139 C142 1.314 . S
N139 C143 1.279 . S
C140 C138 1.348 . S
C140 C142 1.353 . S
C140 H198 0.929 . S
C141 C138 1.356 . S
C141 C143 1.358 . S
C141 H199 0.930 . S
C142 N139 1.314 . S
C142 C140 1.353 . S
C142 H200 0.930 . S
C143 N139 1.279 . S
C143 C141 1.358 . S
C143 H201 0.930 . S
C144 C147 1.348 . S
C144 C148 1.356 . S
C144 O195 1.325 . S
C145 N146 1.279 . S
C145 C148 1.358 . S
C145 H202 0.930 . S
N146 C145 1.279 . S
N146 C149 1.314 . S
C147 C144 1.348 . S
C147 C149 1.353 . S
C147 H203 0.929 . S
C148 C144 1.356 . S
C148 C145 1.358 . S
C148 H204 0.930 . S
C149 N146 1.314 . S
C149 C147 1.353 . S
C149 H205 0.930 . S
C150 N151 1.314 . S
C150 C155 1.353 . S
C150 H156 0.930 1_545 S
N151 Li134 1.990 1_655 S
N151 C150 1.314 . S
N151 C153 1.279 . S
C152 C153 1.358 . S
C152 C154 1.356 . S
C152 H206 0.930 . S
C153 N151 1.279 . S
C153 C152 1.358 . S
C153 H157 0.930 . S
C154 C152 1.356 . S
C154 C155 1.348 . S
C155 C150 1.353 . S
C155 C154 1.348 . S
C155 H207 0.929 1_545 S
H156 C150 0.930 1_565 S
H157 C153 0.930 . S
C158 N159 1.314 . S
C158 C160 1.353 . S
C158 H164 0.930 . S
N159 Li135 1.990 . S
N159 C158 1.314 . S
N159 C162 1.279 . S
C160 C158 1.353 . S
C160 C163 1.348 . S
C160 H208 0.929 . S
C161 C162 1.358 . S
C161 C163 1.356 . S
C161 H209 0.930 1_545 S
C162 N159 1.279 . S
C162 C161 1.358 . S
C162 H165 0.930 1_545 S
C163 C160 1.348 . S
C163 C161 1.356 . S
H164 C158 0.930 . S
H165 C162 0.930 1_565 S
C166 C168 1.348 . S
C166 C169 1.356 . S
C166 O196 1.325 1_655 S
N167 C170 1.314 . S
N167 C171 1.279 . S
C168 C166 1.348 . S
C168 C170 1.353 . S
C168 H210 0.929 1_545 S
C169 C166 1.356 . S
C169 C171 1.358 . S
C169 H211 0.930 . S
C170 N167 1.314 . S
C170 C168 1.353 . S
C170 H212 0.930 1_545 S
C171 N167 1.279 . S
C171 C169 1.358 . S
C171 H213 0.930 . S
C172 C173 1.348 . S
C172 C174 1.356 . S
C172 O197 1.325 . S
C173 C172 1.348 . S
C173 C175 1.353 . S
C173 H214 0.929 . S
C174 C172 1.356 . S
C174 C176 1.358 . S
C174 H215 0.930 1_545 S
C175 C173 1.353 . S
C175 N177 1.314 . S
C175 H216 0.930 . S
C176 C174 1.358 . S
C176 N177 1.279 . S
C176 H217 0.930 1_545 S
N177 C175 1.314 . S
N177 C176 1.279 . S
C178 C180 1.353 . S
C178 N181 1.314 . S
C178 H184 0.930 . S
C179 N181 1.279 . S
C179 C182 1.358 . S
C179 H185 0.930 . S
C180 C178 1.353 . S
C180 C183 1.348 . S
C180 H218 0.929 . S
N181 Li136 1.990 . S
N181 C178 1.314 . S
N181 C179 1.279 . S
C182 C179 1.358 . S
C182 C183 1.356 . S
C182 H219 0.930 . S
C183 C180 1.348 . S
C183 C182 1.356 . S
H184 C178 0.930 . S
H185 C179 0.930 . S
C186 N187 1.314 . S
C186 C188 1.353 . S
C186 H192 0.930 . S
N187 Li137 1.990 . S
N187 C186 1.314 . S
N187 C190 1.279 . S
C188 C186 1.353 . S
C188 C191 1.348 . S
C188 H220 0.929 . S
C189 C190 1.358 . S
C189 C191 1.356 . S
C189 H221 0.930 . S
C190 N187 1.279 . S
C190 C189 1.358 . S
C190 H193 0.930 . S
C191 C188 1.348 . S
C191 C189 1.356 . S
H192 C186 0.930 . S
H193 C190 0.930 . S
O194 Li134 1.956 . S
O194 Li135 1.970 . S
O194 Li136 1.961 . S
O194 C138 1.325 . S
O195 Li134 1.970 1_565 S
O195 Li135 1.956 1_565 S
O195 Li137 1.961 . S
O195 C144 1.325 . S
O196 Li134 1.961 . S
O196 Li136 1.956 . S
O196 Li137 1.970 1_545 S
O196 C166 1.325 1_455 S
O197 Li135 1.961 . S
O197 Li136 1.970 . S
O197 Li137 1.956 1_545 S
O197 C172 1.325 . S
H198 C140 0.929 . S
H199 C141 0.930 . S
H200 C142 0.930 . S
H201 C143 0.930 . S
H202 C145 0.930 . S
H203 C147 0.929 . S
H204 C148 0.930 . S
H205 C149 0.930 . S
H206 C152 0.930 . S
H207 C155 0.929 1_565 S
H208 C160 0.929 . S
H209 C161 0.930 1_565 S
H210 C168 0.929 1_565 S
H211 C169 0.930 . S
H212 C170 0.930 1_565 S
H213 C171 0.930 . S
H214 C173 0.929 . S
H215 C174 0.930 1_565 S
H216 C175 0.930 . S
H217 C176 0.930 1_565 S
H218 C180 0.929 . S
H219 C182 0.930 . S
H220 C188 0.929 . S
H221 C189 0.930 . S
C222 C223 1.387 . S
C222 H226 0.950 . S
C222 C231 1.390 . S
C223 C222 1.387 . S
C223 C225 1.387 . S
H224 C231 0.950 . S
C225 C223 1.387 . S
C225 C227 1.390 . S
C225 H229 0.950 1_545 S
H226 C222 0.950 . S
C227 C225 1.390 . S
C227 C228 1.387 . S
C227 H230 0.950 1_545 S
C228 C227 1.387 . S
C228 C231 1.387 . S
H229 C225 0.950 1_565 S
H230 C227 0.950 1_565 S
C231 C222 1.390 . S
C231 H224 0.950 . S
C231 C228 1.387 . S
C232 C233 1.387 . S
C232 H236 0.950 . S
C232 C241 1.390 . S
C233 C232 1.387 . S
C233 C235 1.387 . S
H234 C241 0.950 . S
C235 C233 1.387 . S
C235 C237 1.390 . S
C235 H239 0.950 1_455 S
H236 C232 0.950 . S
C237 C235 1.390 . S
C237 C238 1.387 . S
C237 H240 0.950 1_455 S
C238 C237 1.387 . S
C238 C241 1.387 . S
H239 C235 0.950 1_655 S
H240 C237 0.950 1_655 S
C241 C232 1.390 . S
C241 H234 0.950 . S
C241 C238 1.387 . S
C242 C243 1.387 . S
C242 H246 0.950 . S
C242 C251 1.390 . S
C243 C242 1.387 . S
C243 C245 1.387 . S
H244 C251 0.950 . S
C245 C243 1.387 . S
C245 C247 1.390 . S
C245 H249 0.950 1_545 S
H246 C242 0.950 . S
C247 C245 1.390 . S
C247 C248 1.387 . S
C247 H250 0.950 1_545 S
C248 C247 1.387 . S
C248 C251 1.387 . S
H249 C245 0.950 1_565 S
H250 C247 0.950 1_565 S
C251 C242 1.390 . S
C251 H244 0.950 . S
C251 C248 1.387 . S
C252 C253 1.387 . S
C252 H256 0.950 . S
C252 C261 1.390 . S
C253 C252 1.387 . S
C253 C255 1.387 . S
H254 C261 0.950 . S
C255 C253 1.387 . S
C255 C257 1.390 . S
C255 H259 0.950 1_455 S
H256 C252 0.950 . S
C257 C255 1.390 . S
C257 C258 1.387 . S
C257 H260 0.950 1_455 S
C258 C257 1.387 . S
C258 C261 1.387 . S
H259 C255 0.950 1_655 S
H260 C257 0.950 1_655 S
C261 C252 1.390 . S
C261 H254 0.950 . S
C261 C258 1.387 . S
C262 C263 1.387 . S
C262 H266 0.950 . S
C262 C271 1.390 . S
C263 C262 1.387 . S
C263 C265 1.387 1_545 S
H264 C271 0.950 . S
C265 C263 1.387 1_565 S
C265 C267 1.390 . S
C265 H269 0.950 . S
H266 C262 0.950 . S
C267 C265 1.390 . S
C267 C268 1.387 1_565 S
C267 H270 0.950 . S
C268 C267 1.387 1_545 S
C268 C271 1.387 . S
H269 C265 0.950 . S
H270 C267 0.950 . S
C271 C262 1.390 . S
C271 H264 0.950 . S
C271 C268 1.387 . S
C272 C273 1.387 . S
C272 H276 0.950 . S
C272 C281 1.390 . S
C273 C272 1.387 . S
C273 C275 1.387 . S
H274 C281 0.950 . S
C275 C273 1.387 . S
C275 C277 1.390 . S
C275 H279 0.950 1_455 S
H276 C272 0.950 . S
C277 C275 1.390 . S
C277 C278 1.387 . S
C277 H280 0.950 1_455 S
C278 C277 1.387 . S
C278 C281 1.387 . S
H279 C275 0.950 1_655 S
H280 C277 0.950 1_655 S
C281 C272 1.390 . S
C281 H274 0.950 . S
C281 C278 1.387 . S
C282 C283 1.387 . S
C282 H286 0.950 . S
C282 C291 1.390 . S
C283 C282 1.387 . S
C283 C285 1.387 . S
H284 C291 0.950 . S
C285 C283 1.387 . S
C285 C287 1.390 . S
C285 H289 0.950 1_545 S
H286 C282 0.950 . S
C287 C285 1.390 . S
C287 C288 1.387 . S
C287 H290 0.950 1_545 S
C288 C287 1.387 . S
C288 C291 1.387 . S
H289 C285 0.950 1_565 S
H290 C287 0.950 1_565 S
C291 C282 1.390 . S
C291 H284 0.950 . S
C291 C288 1.387 . S
C292 C293 1.387 . S
C292 H296 0.950 . S
C292 C301 1.390 . S
C293 C292 1.387 . S
C293 C295 1.387 1_455 S
H294 C301 0.950 . S
C295 C293 1.387 1_655 S
C295 C297 1.390 . S
C295 H299 0.950 . S
H296 C292 0.950 . S
C297 C295 1.390 . S
C297 C298 1.387 1_655 S
C297 H300 0.950 . S
C298 C297 1.387 1_455 S
C298 C301 1.387 . S
H299 C295 0.950 . S
H300 C297 0.950 . S
C301 C292 1.390 . S
C301 H294 0.950 . S
C301 C298 1.387 . S
C228 C95 1.474 . S
C223 N12 1.433 . S
C238 C183 1.510 . S
C233 N25 1.487 . S
C248 C103 1.463 . S
C243 C16 1.463 . S
C258 C191 1.504 . S
C253 C30 1.504 . S
C268 C163 1.504 . S
C263 C7 1.504 . S
C278 C66 1.462 . S
C273 C39 1.463 . S
C288 C154 1.510 . S
C283 N2 1.486 . S
C293 N35 1.436 . S
C298 C75 1.474 . S
