# Generated by pormake.
# Topology ssa, (4,4)-cn, num edge types: 1
# Building blocks:
#     Node 0, Type 0, BuildingBlock: KOZSID_clean_sbu_0, # of connection points: 4
#     Node 1, Type 0, BuildingBlock: KOZSID_clean_sbu_0, # of connection points: 4
#     Node 2, Type 0, BuildingBlock: KOZSID_clean_sbu_0, # of connection points: 4
#     Node 3, Type 0, BuildingBlock: KOZSID_clean_sbu_0, # of connection points: 4
#     Node 4, Type 0, BuildingBlock: KOZSID_clean_sbu_0, # of connection points: 4
#     Node 5, Type 0, BuildingBlock: KOZSID_clean_sbu_0, # of connection points: 4
#     Node 6, Type 1, BuildingBlock: ESEHIV_clean_sbu_0, # of connection points: 4
#     Node 7, Type 1, BuildingBlock: ESEHIV_clean_sbu_0, # of connection points: 4
#     Node 8, Type 1, BuildingBlock: ESEHIV_clean_sbu_0, # of connection points: 4
#     Node 9, Type 1, BuildingBlock: ESEHIV_clean_sbu_0, # of connection points: 4
#     Node 10, Type 1, BuildingBlock: ESEHIV_clean_sbu_0, # of connection points: 4
#     Node 11, Type 1, BuildingBlock: ESEHIV_clean_sbu_0, # of connection points: 4
#     Edge 12, Type (0, 1), BuildingBlock: OJICUG_clean_linker_0, # of connection points: 2
#     Edge 13, Type (0, 1), BuildingBlock: OJICUG_clean_linker_0, # of connection points: 2
#     Edge 14, Type (0, 1), BuildingBlock: OJICUG_clean_linker_0, # of connection points: 2
#     Edge 15, Type (0, 1), BuildingBlock: OJICUG_clean_linker_0, # of connection points: 2
#     Edge 16, Type (0, 1), BuildingBlock: OJICUG_clean_linker_0, # of connection points: 2
#     Edge 17, Type (0, 1), BuildingBlock: OJICUG_clean_linker_0, # of connection points: 2
#     Edge 18, Type (0, 1), BuildingBlock: OJICUG_clean_linker_0, # of connection points: 2
#     Edge 19, Type (0, 1), BuildingBlock: OJICUG_clean_linker_0, # of connection points: 2
#     Edge 20, Type (0, 1), BuildingBlock: OJICUG_clean_linker_0, # of connection points: 2
#     Edge 21, Type (0, 1), BuildingBlock: OJICUG_clean_linker_0, # of connection points: 2
#     Edge 22, Type (0, 1), BuildingBlock: OJICUG_clean_linker_0, # of connection points: 2
#     Edge 23, Type (0, 1), BuildingBlock: OJICUG_clean_linker_0, # of connection points: 2
#     Edge 24, Type (0, 1), BuildingBlock: OJICUG_clean_linker_0, # of connection points: 2
#     Edge 25, Type (0, 1), BuildingBlock: OJICUG_clean_linker_0, # of connection points: 2
#     Edge 26, Type (0, 1), BuildingBlock: OJICUG_clean_linker_0, # of connection points: 2
#     Edge 27, Type (0, 1), BuildingBlock: OJICUG_clean_linker_0, # of connection points: 2
#     Edge 28, Type (0, 1), BuildingBlock: OJICUG_clean_linker_0, # of connection points: 2
#     Edge 29, Type (0, 1), BuildingBlock: OJICUG_clean_linker_0, # of connection points: 2
#     Edge 30, Type (0, 1), BuildingBlock: OJICUG_clean_linker_0, # of connection points: 2
#     Edge 31, Type (0, 1), BuildingBlock: OJICUG_clean_linker_0, # of connection points: 2
#     Edge 32, Type (0, 1), BuildingBlock: OJICUG_clean_linker_0, # of connection points: 2
#     Edge 33, Type (0, 1), BuildingBlock: OJICUG_clean_linker_0, # of connection points: 2
#     Edge 34, Type (0, 1), BuildingBlock: OJICUG_clean_linker_0, # of connection points: 2
#     Edge 35, Type (0, 1), BuildingBlock: OJICUG_clean_linker_0, # of connection points: 2
# Relax obj value: 0.030
# Max RMSD: 0.097
# Mean RMSD: 0.055
data_MOF--net-ssa--node1-KOZSID_clean_sbu_0--node2-ESEHIV_clean_sbu_0--edge1-OJICUG_clean_linker_0
_symmetry_space_group_name_H-M    P1
_symmetry_Int_Tables_number       1
_symmetry_cell_setting            triclinic
loop_
_symmetry_equiv_pos_as_xyz
'x, y, z'
_cell_length_a     40.978109
_cell_length_b     42.282148
_cell_length_c     30.833698
_cell_angle_alpha  86.555226
_cell_angle_beta   90.116267
_cell_angle_gamma 123.18531
loop_
_atom_site_label
_atom_site_type_symbol
_atom_site_fract_x
_atom_site_fract_y
_atom_site_fract_z
_atom_type_partial_charge
C0 C 0.93907 0.50176 0.99985 0.0
C1 C 0.90281 0.48658 0.02024 0.0
C2 C 0.90494 0.47445 0.06156 0.0
C3 C 0.94214 0.48258 0.06423 0.0
N4 N 0.96421 0.49961 0.02725 0.0
Co5 Co 0.01929 0.51337 0.01715 0.0
N6 N 0.02149 0.4931 0.07725 0.0
C7 C 0.99247 0.47722 0.10819 0.0
C8 C 1.00208 0.46678 0.14662 0.0
C9 C 0.03965 0.47684 0.14011 0.0
C10 C 0.05103 0.49305 0.09792 0.0
N11 N 0.0742 0.52678 1.00681 0.0
C12 C 0.09875 0.52306 0.03355 0.0
C13 C 0.13464 0.53719 0.01279 0.0
C14 C 0.1329 0.5503 0.97185 0.0
C15 C 0.09623 0.5436 0.96975 0.0
N16 N 0.01728 0.53396 0.9572 0.0
C17 C 0.0468 0.55112 0.92681 0.0
C18 C 0.0374 0.56207 0.8886 0.0
C19 C 0.99944 0.55089 0.89461 0.0
C20 C 0.98753 0.53337 0.93623 0.0
N21 N 0.04044 0.56382 0.04006 0.0
C22 C 0.07934 0.63257 0.08086 0.0
C23 C 0.09231 0.63004 0.04018 0.0
C24 C 0.07236 0.5958 0.02033 0.0
C25 C 0.04467 0.60104 0.09904 0.0
C26 C 0.02572 0.56725 0.07811 0.0
N27 N 0.99821 0.463 0.99432 0.0
C28 C 0.99294 0.426 0.93475 0.0
C29 C 0.96024 0.39353 0.95489 0.0
C30 C 0.94868 0.39588 0.99656 0.0
C31 C 0.96807 0.43057 0.01563 0.0
C32 C 1.01148 0.46003 0.95502 0.0
H33 H 0.95745 0.43066 0.04707 0.0
H34 H 0.03565 0.48383 0.93752 0.0
H35 H 0.08414 0.59568 0.98974 0.0
H36 H 1.00004 0.54396 0.09418 0.0
C37 C 0.95671 0.47306 0.10027 0.0
C38 C 0.94749 0.51639 0.9539 0.0
C39 C 0.09018 0.50759 0.07914 0.0
C40 C 0.08222 0.55439 0.93424 0.0
H41 H 0.87711 0.48374 1.00647 0.0
H42 H 0.88176 0.46045 0.08639 0.0
H43 H 0.984 0.45365 0.17603 0.0
H44 H 0.05679 0.47283 0.16384 0.0
H45 H 0.15977 0.53852 0.02614 0.0
H46 H 0.15595 0.56384 0.94687 0.0
H47 H 0.05575 0.57585 0.85947 0.0
H48 H 0.98232 0.55484 0.87078 0.0
H49 H 0.11844 0.65412 0.02421 0.0
H50 H 0.03327 0.60172 0.13039 0.0
H51 H 1.00319 0.42583 0.90248 0.0
H52 H 0.92419 0.37127 0.01409 0.0
C53 C 0.57581 0.0196 0.58985 0.0
C54 C 0.57776 1.00296 0.62908 0.0
C55 C 0.5409 0.9725 0.63931 0.0
C56 C 0.51874 0.9724 0.60588 0.0
N57 N 0.53934 1.00036 0.57435 0.0
Co58 Co 0.51825 0.01299 0.52209 0.0
N59 N 0.46335 0.97064 0.53922 0.0
C60 C 0.45162 0.94568 0.57439 0.0
C61 C 0.41266 0.91772 0.57559 0.0
C62 C 0.39879 0.9246 0.53841 0.0
C63 C 0.43021 0.95668 0.51671 0.0
N64 N 0.49712 0.02642 0.4707 0.0
C65 C 0.46052 1.00792 0.45564 0.0
C66 C 0.4582 0.02655 0.41834 0.0
C67 C 0.49499 0.05738 0.40878 0.0
C68 C 0.51748 0.05592 0.44082 0.0
N69 N 0.57315 0.05447 0.50418 0.0
C70 C 0.58517 0.07789 0.46766 0.0
C71 C 0.62463 0.10428 0.46494 0.0
C72 C 0.63854 0.09772 0.50235 0.0
C73 C 0.60658 0.06767 0.52578 0.0
N74 N 0.5232 0.97683 0.48697 0.0
C75 C 0.5272 0.92396 0.4368 0.0
C76 C 0.53508 0.95862 0.41792 0.0
C77 C 0.53325 0.98442 0.44328 0.0
C78 C 0.51715 0.91653 0.48141 0.0
C79 C 0.51516 0.94279 0.50542 0.0
N80 N 0.51324 0.0491 0.55723 0.0
C81 C 0.52749 0.11224 0.5683 0.0
C82 C 0.50705 0.10011 0.60867 0.0
C83 C 0.49038 0.06191 0.62271 0.0
C84 C 0.49379 0.03737 0.59702 0.0
C85 C 0.53005 0.08659 0.54335 0.0
H86 H 0.48044 1.00889 0.61022 0.0
H87 H 0.54573 0.09777 0.51277 0.0
H88 H 0.54016 0.01044 0.42677 0.0
H89 H 0.5068 0.93472 0.53899 0.0
C90 C 0.47832 0.94782 0.60421 0.0
C91 C 0.60878 0.05492 0.56995 0.0
C92 C 0.42802 0.97118 0.47337 0.0
C93 C 0.55819 0.0781 0.44013 0.0
H94 H 0.60301 0.01257 0.64878 0.0
H95 H 0.53117 0.95349 0.66837 0.0
H96 H 0.39659 0.89423 0.59974 0.0
H97 H 0.36918 0.90713 0.5279 0.0
H98 H 0.43284 0.01776 0.39908 0.0
H99 H 0.50458 0.07725 0.38051 0.0
H100 H 0.641 0.12696 0.43996 0.0
H101 H 0.66849 0.1142 0.5122 0.0
H102 H 0.54357 0.96637 0.38377 0.0
H103 H 0.51034 0.89016 0.49796 0.0
H104 H 0.54076 0.14126 0.55534 0.0
H105 H 0.47475 0.05073 0.65386 0.0
C106 C 0.59248 0.57604 0.96132 0.0
C107 C 0.60247 0.60171 0.92571 0.0
C108 C 0.56896 0.59894 0.91375 0.0
C109 C 0.54063 0.57195 0.94275 0.0
N110 N 0.55419 0.55794 0.97309 0.0
Co111 Co 0.52305 0.51711 0.02013 0.0
N112 N 0.47286 0.50876 0.99861 0.0
C113 C 0.46835 0.52641 0.96331 0.0
C114 C 0.43061 0.51613 0.95802 0.0
C115 C 0.40988 0.49101 0.99253 0.0
C116 C 0.43632 0.4874 0.01691 0.0
N117 N 0.49189 0.47651 0.06748 0.0
C118 C 0.45364 0.45871 0.07942 0.0
C119 C 0.44379 0.43381 0.11578 0.0
C120 C 0.47731 0.4367 0.128 0.0
C121 C 0.50553 0.46305 0.09844 0.0
N122 N 0.57325 0.52521 0.04137 0.0
C123 C 0.57772 0.5071 0.07625 0.0
C124 C 0.61529 0.51669 0.08085 0.0
C125 C 0.63593 0.54174 0.04626 0.0
C126 C 0.60965 0.5461 0.02256 0.0
N127 N 0.52776 0.55596 0.05937 0.0
C128 C 0.53374 0.61004 0.11628 0.0
C129 C 0.54186 0.58286 0.12998 0.0
C130 C 0.53868 0.55654 0.10158 0.0
C131 C 0.52179 0.60895 0.07338 0.0
C132 C 0.51919 0.58215 0.04578 0.0
N133 N 0.51847 0.47829 0.98095 0.0
C134 C 0.52377 0.4247 0.96887 0.0
C135 C 0.5159 0.42531 0.92458 0.0
C136 C 0.50923 0.45328 0.90942 0.0
C137 C 0.51063 0.47906 0.93769 0.0
C138 C 0.52479 0.45089 0.996 0.0
H139 H 0.50537 0.49954 0.92373 0.0
H140 H 0.53115 0.44857 0.02911 0.0
H141 H 0.54518 0.53679 0.11469 0.0
H142 H 0.51029 0.58325 0.01345 0.0
C143 C 0.50066 0.55589 0.93912 0.0
C144 C 0.61958 0.56755 0.98048 0.0
C145 C 0.4263 0.4664 0.05923 0.0
C146 C 0.54547 0.47839 0.10132 0.0
H147 H 0.63076 0.61939 0.90912 0.0
H148 H 0.56531 0.61343 0.88589 0.0
H149 H 0.41983 0.52715 0.93337 0.0
H150 H 0.37914 0.47815 0.99986 0.0
H151 H 0.41555 0.41641 0.13253 0.0
H152 H 0.48101 0.42256 0.15618 0.0
H153 H 0.626 0.50535 0.10519 0.0
H154 H 0.66651 0.5541 0.03853 0.0
H155 H 0.55057 0.58161 0.16289 0.0
H156 H 0.51537 0.62931 0.06063 0.0
H157 H 0.52975 0.40436 0.98285 0.0
H158 H 0.50227 0.45511 0.87587 0.0
C159 C 0.93789 0.44652 0.54432 0.0
C160 C 0.89998 0.42754 0.53002 0.0
C161 C 0.90141 0.44375 0.48984 0.0
C162 C 0.93987 0.47193 0.4818 0.0
N163 N 0.96337 0.47464 0.51424 0.0
Co164 Co 0.02096 0.51465 0.51628 0.0
N165 N 0.02238 0.54017 0.45828 0.0
C166 C 0.99178 0.52866 0.43224 0.0
C167 C 1.00112 0.55014 0.39367 0.0
C168 C 0.04011 0.577 0.39489 0.0
C169 C 0.05251 0.57061 0.43446 0.0
N170 N 0.07846 0.55489 0.51858 0.0
C171 C 0.10353 0.58431 0.48957 0.0
C172 C 0.14097 0.60497 0.50503 0.0
C173 C 0.13982 0.58798 0.5446 0.0
C174 C 0.10186 0.55806 0.55134 0.0
N175 N 0.01964 0.48895 0.57411 0.0
C176 C 0.05069 0.49928 0.59906 0.0
C177 C 0.04175 0.47667 0.63664 0.0
C178 C 1.00253 0.45051 0.63608 0.0
C179 C 0.98942 0.45884 0.59825 0.0
N180 N 0.0337 0.48226 0.48604 0.0
C181 C 0.05984 0.44635 0.43559 0.0
C182 C 0.07717 0.46129 0.47462 0.0
C183 C 0.06366 0.47883 0.49919 0.0
C184 C 0.02738 0.44722 0.42389 0.0
C185 C 1.01467 0.46484 0.44962 0.0
N186 N 1.00819 0.54693 0.54646 0.0
C187 C 1.01112 0.57815 0.61083 0.0
C188 C 0.98001 0.58069 0.5974 0.0
C189 C 0.96554 0.56906 0.55633 0.0
C190 C 0.98008 0.55253 0.53148 0.0
C191 C 0.0249 0.56163 0.58486 0.0
H192 H 0.96709 0.54321 0.50104 0.0
H193 H 0.04814 0.55987 0.59727 0.0
H194 H 0.07885 0.49047 0.5279 0.0
H195 H 0.99006 0.46488 0.43868 0.0
C196 C 0.95461 0.49736 0.44493 0.0
C197 C 0.94785 0.43747 0.58731 0.0
C198 C 0.09343 0.5941 0.44722 0.0
C199 C 0.08755 0.53152 0.58723 0.0
H200 H 0.87371 0.40481 0.5471 0.0
H201 H 0.87709 0.43645 0.46935 0.0
H202 H 0.98191 0.54649 0.36754 0.0
H203 H 0.05754 0.59863 0.36928 0.0
H204 H 0.16657 0.62969 0.48925 0.0
H205 H 0.16395 0.59621 0.56574 0.0
H206 H 0.06135 0.47923 0.66182 0.0
H207 H 0.9855 0.42803 0.66102 0.0
H208 H 0.1024 0.46129 0.48517 0.0
H209 H 1.01237 0.43515 0.39443 0.0
H210 H 0.02401 0.58777 0.64194 0.0
H211 H 0.94158 0.57067 0.54436 0.0
C212 C 0.4758 0.9874 0.10554 0.0
C213 C 0.47582 0.9999 0.14616 0.0
C214 C 0.50589 0.03707 0.14517 0.0
C215 C 0.52274 0.04531 0.10424 0.0
N216 N 0.50534 0.01565 0.07889 0.0
Co217 Co 0.52187 0.01625 0.01714 0.0
N218 N 0.56727 0.07077 0.01631 0.0
C219 C 0.57823 0.09295 0.0502 0.0
C220 C 0.61044 0.12879 0.04103 0.0
C221 C 0.6208 0.12973 0.99868 0.0
C222 C 0.5941 0.09433 0.98412 0.0
N223 N 0.5377 0.01719 0.95495 0.0
C224 C 0.56662 0.04575 0.92797 0.0
C225 C 0.56517 0.03394 0.88657 0.0
C226 C 0.53478 0.99691 0.88733 0.0
C227 C 0.51909 0.9881 0.92889 0.0
N228 N 0.47715 0.96139 0.01838 0.0
C229 C 0.4676 0.93854 0.98532 0.0
C230 C 0.43649 0.90221 0.99514 0.0
C231 C 0.42554 0.90158 0.03716 0.0
C232 C 0.45072 0.93769 0.05083 0.0
N233 N 0.48748 0.03286 0.99587 0.0
C234 C 0.44885 0.06389 0.95474 0.0
C235 C 0.44224 0.0295 0.9431 0.0
C236 C 0.46146 0.01445 0.96417 0.0
C237 C 0.47235 0.08071 0.98995 0.0
C238 C 0.49107 0.06467 1.0101 0.0
N239 N 0.55618 0.99947 0.03831 0.0
C240 C 0.57557 0.95493 0.03645 0.0
C241 C 0.59243 0.96494 0.07686 0.0
C242 C 0.59417 0.99508 0.0956 0.0
C243 C 0.57627 0.01205 0.07568 0.0
C244 C 0.55793 0.97255 0.01781 0.0
H245 H 0.57777 0.03424 0.09204 0.0
H246 H 0.54469 0.96286 0.9876 0.0
H247 H 0.45578 0.9886 0.95317 0.0
H248 H 0.50944 0.07932 0.03598 0.0
C249 C 0.55636 0.07986 0.08949 0.0
C250 C 0.44757 0.94809 0.09463 0.0
C251 C 0.59592 0.08458 0.93953 0.0
C252 C 0.48753 0.95254 0.94485 0.0
H253 H 0.45646 0.98367 0.17395 0.0
H254 H 0.51492 0.05567 0.1715 0.0
H255 H 0.62446 0.15171 0.06246 0.0
H256 H 0.64521 0.15385 0.98055 0.0
H257 H 0.58403 0.05047 0.85855 0.0
H258 H 0.52522 0.97858 0.8607 0.0
H259 H 0.42309 0.87899 0.9741 0.0
H260 H 0.40153 0.87728 0.05553 0.0
H261 H 0.42336 0.01489 0.91677 0.0
H262 H 0.47816 0.1073 1.00037 0.0
H263 H 0.57463 0.93254 0.01997 0.0
H264 H 0.60723 1.00415 0.12674 0.0
C265 C 0.55316 0.59905 0.51983 0.0
C266 C 0.55044 0.62508 0.54216 0.0
C267 C 0.52346 0.60495 0.57532 0.0
C268 C 0.51144 0.56799 0.57136 0.0
N269 N 0.52981 0.56341 0.53831 0.0
Co270 Co 0.52014 0.51463 0.51924 0.0
N271 N 0.47676 0.48451 0.56401 0.0
C272 C 0.46273 0.49786 0.59232 0.0
C273 C 0.4337 0.47021 0.62018 0.0
C274 C 0.42951 0.43731 0.6096 0.0
C275 C 0.45639 0.44698 0.57587 0.0
N276 N 0.51044 0.46576 0.50021 0.0
C277 C 0.48687 0.43006 0.51855 0.0
C278 C 0.4902 0.40416 0.49668 0.0
C279 C 0.51744 0.42438 0.46376 0.0
C280 C 0.52917 0.46128 0.4675 0.0
N281 N 0.56351 0.54487 0.47434 0.0
C282 C 0.57748 0.53146 0.44603 0.0
C283 C 0.60583 0.55893 0.41747 0.0
C284 C 0.60963 0.59177 0.42751 0.0
C285 C 0.58333 0.58234 0.46186 0.0
N286 N 0.55859 0.51682 0.56248 0.0
C287 C 0.61258 0.51947 0.62444 0.0
C288 C 0.61301 0.51061 0.58135 0.0
C289 C 0.58624 0.50951 0.55136 0.0
C290 C 0.58375 0.52621 0.63566 0.0
C291 C 0.55755 0.52476 0.60481 0.0
N292 N 0.48167 0.51234 0.47605 0.0
C293 C 0.45593 0.50169 0.40319 0.0
C294 C 0.42691 0.50821 0.4143 0.0
C295 C 0.42684 0.51786 0.45711 0.0
C296 C 0.45405 0.51973 0.487 0.0
C297 C 0.48247 0.50383 0.43394 0.0
H298 H 0.45202 0.52704 0.51899 0.0
H299 H 0.50349 0.49845 0.4228 0.0
H300 H 0.58863 0.50279 0.5192 0.0
H301 H 0.53653 0.53013 0.61606 0.0
C302 C 0.48018 0.53674 0.5949 0.0
C303 C 0.57553 0.60901 0.47906 0.0
C304 C 0.46395 0.42016 0.55889 0.0
C305 C 0.56027 0.49257 0.44383 0.0
H306 H 0.56526 0.65525 0.53406 0.0
H307 H 0.51249 0.61573 0.59822 0.0
H308 H 0.41867 0.47377 0.64636 0.0
H309 H 0.41005 0.40955 0.62589 0.0
H310 H 0.47559 0.37403 0.50471 0.0
H311 H 0.52871 0.41369 0.44114 0.0
H312 H 0.62054 0.55523 0.39105 0.0
H313 H 0.62851 0.61919 0.41034 0.0
H314 H 0.63459 0.50539 0.57022 0.0
H315 H 0.58105 0.53248 0.66849 0.0
H316 H 0.45848 0.495 0.37054 0.0
H317 H 0.40523 0.52308 0.46808 0.0
Cu318 Cu 0.2434 0.47225 0.24003 0.0
N319 N 0.25561 0.44735 0.20141 0.0
N320 N 0.29252 0.43798 0.1575 0.0
C321 C 0.29047 0.46308 0.18052 0.0
C322 C 0.2573 0.40516 0.16401 0.0
C323 C 0.23465 0.41098 0.19128 0.0
O324 O 0.29012 0.49827 0.2784 0.0
C325 C 0.19359 0.4771 0.18042 0.0
O326 O 0.18191 0.4413 0.18095 0.0
H327 H 0.31403 0.49234 0.1828 0.0
H328 H 0.20535 0.38997 0.20364 0.0
N329 N 0.20116 0.43781 0.27719 0.0
N330 N 0.15042 0.41806 0.32297 0.0
C331 C 0.17643 0.44574 0.29403 0.0
C332 C 0.19037 0.40368 0.29592 0.0
C333 C 0.1591 0.3915 0.32453 0.0
C334 C 0.3013 0.47685 0.29418 0.0
O335 O 0.28138 0.44138 0.28424 0.0
H336 H 0.17878 0.47229 0.2867 0.0
H337 H 0.2048 0.38915 0.29021 0.0
O338 O 0.22252 0.49872 0.20415 0.0
H339 H 0.24888 0.37851 0.15122 0.0
H340 H 0.1444 0.36556 0.34535 0.0
Cu341 Cu 0.78518 0.24085 0.75493 0.0
N342 N 0.77336 0.20373 0.71647 0.0
N343 N 0.73775 0.15859 0.67089 0.0
C344 C 0.73719 0.17749 0.70441 0.0
C345 C 0.77593 0.17359 0.66166 0.0
C346 C 0.79778 0.20163 0.68954 0.0
O347 O 0.7372 0.21716 0.79515 0.0
C348 C 0.83728 0.32147 0.72115 0.0
O349 O 0.85053 0.32831 0.76053 0.0
H350 H 0.71108 0.17347 0.71899 0.0
H351 H 0.8292 0.22066 0.68839 0.0
N352 N 0.82549 0.24858 0.79071 0.0
N353 N 0.86872 0.27393 0.84298 0.0
C354 C 0.83598 0.26893 0.82589 0.0
C355 C 0.85185 0.23935 0.78589 0.0
C356 C 0.87868 0.2551 0.818 0.0
C357 C 0.72916 0.18633 0.81647 0.0
O358 O 0.7528 0.17504 0.80985 0.0
H359 H 0.82131 0.28208 0.83673 0.0
H360 H 0.85244 0.22346 0.76011 0.0
O361 O 0.80727 0.28838 0.71458 0.0
H362 H 0.78738 0.16652 0.63498 0.0
H363 H 0.90418 0.25377 0.82174 0.0
Cu364 Cu 0.56865 0.7846 0.28075 0.0
N365 N 0.60326 0.8257 0.24279 0.0
N366 N 0.62094 0.8713 0.19024 0.0
C367 C 0.59101 0.841 0.21297 0.0
C368 C 0.65357 0.87544 0.20642 0.0
C369 C 0.64252 0.8469 0.23874 0.0
O370 O 0.53905 0.80222 0.31229 0.0
C371 C 0.56625 0.73168 0.22846 0.0
O372 O 0.6033 0.75353 0.23735 0.0
H373 H 0.56056 0.83064 0.20896 0.0
H374 H 0.66178 0.84218 0.25785 0.0
N375 N 0.59455 0.77353 0.32294 0.0
N376 N 0.60378 0.73836 0.37221 0.0
C377 C 0.57983 0.73877 0.34236 0.0
C378 C 0.62915 0.7961 0.34105 0.0
C379 C 0.63495 0.77447 0.37141 0.0
C380 C 0.55979 0.83126 0.33461 0.0
O381 O 0.59756 0.84642 0.33504 0.0
H382 H 0.55211 0.71422 0.33423 0.0
H383 H 0.64861 0.82622 0.33337 0.0
O384 O 0.54273 0.7397 0.24415 0.0
H385 H 0.6831 0.89734 0.19559 0.0
H386 H 0.65981 0.7848 0.39188 0.0
Cu387 Cu 0.79578 0.55396 0.79772 0.0
N388 N 0.8376 0.58668 0.75885 0.0
N389 N 0.8867 0.60515 0.711 0.0
C390 C 0.85887 0.57665 0.73772 0.0
C391 C 0.88261 0.63442 0.71479 0.0
C392 C 0.85231 0.62297 0.74462 0.0
O393 O 0.81666 0.53129 0.8401 0.0
C394 C 0.73875 0.54858 0.74215 0.0
O395 O 0.76136 0.58496 0.7477 0.0
H396 H 0.85333 0.54857 0.74068 0.0
H397 H 0.84157 0.6398 0.75481 0.0
N398 N 0.78485 0.58151 0.83331 0.0
N399 N 0.74996 0.59329 0.87736 0.0
C400 C 0.74957 0.5682 0.85189 0.0
C401 C 0.80872 0.61617 0.84769 0.0
C402 C 0.78724 0.62357 0.87484 0.0
C403 C 0.83194 0.51211 0.83462 0.0
O404 O 0.82746 0.49665 0.79758 0.0
H405 H 0.72435 0.54016 0.84745 0.0
H406 H 0.83958 0.63455 0.83945 0.0
O407 O 0.74799 0.52661 0.76116 0.0
H408 H 0.90032 0.66201 0.69751 0.0
H409 H 0.7983 0.64929 0.89128 0.0
Cu410 Cu 0.25692 0.7927 0.27815 0.0
N411 N 0.21753 0.78394 0.24031 0.0
N412 N 0.17323 0.75361 0.19043 0.0
C413 C 0.20176 0.75526 0.21402 0.0
C414 C 0.17079 0.78246 0.20229 0.0
C415 C 0.19849 0.80141 0.23292 0.0
O416 O 0.23265 0.74336 0.31566 0.0
C417 C 0.31428 0.84753 0.2181 0.0
O418 O 0.29144 0.85964 0.22528 0.0
H419 H 0.2106 0.73542 0.21297 0.0
H420 H 0.2043 0.82618 0.24834 0.0
N421 N 0.2683 0.83004 0.31638 0.0
N422 N 0.30303 0.87444 0.36314 0.0
C423 C 0.30237 0.84991 0.33642 0.0
C424 C 0.24638 0.84222 0.33097 0.0
C425 C 0.26772 0.86962 0.35972 0.0
C426 C 0.20033 0.73334 0.33558 0.0
O427 O 0.18771 0.75581 0.32921 0.0
H428 H 0.32585 0.84564 0.33202 0.0
H429 H 0.21677 0.83162 0.32208 0.0
O430 O 0.30541 0.81621 0.23885 0.0
H431 H 0.15081 0.78956 0.18941 0.0
H432 H 0.25784 0.88476 0.37664 0.0
Cu433 Cu 0.4757 0.2494 0.75907 0.0
N434 N 0.44811 0.26022 0.71956 0.0
N435 N 0.43675 0.29418 0.67114 0.0
C436 C 0.46357 0.29316 0.69551 0.0
C437 C 0.40305 0.26029 0.68003 0.0
C438 C 0.41014 0.2394 0.71012 0.0
O439 O 0.50612 0.29538 0.79345 0.0
C440 C 0.47633 0.19683 0.70824 0.0
O441 O 0.43903 0.18349 0.71342 0.0
H442 H 0.49399 0.31598 0.6962 0.0
H443 H 0.38903 0.21134 0.7246 0.0
N444 N 0.4416 0.21023 0.79948 0.0
N445 N 0.42111 0.16097 0.84764 0.0
C446 C 0.44795 0.18414 0.81636 0.0
C447 C 0.40947 0.2034 0.82084 0.0
C448 C 0.39686 0.17302 0.85098 0.0
C449 C 0.48727 0.30897 0.80853 0.0
O450 O 0.45039 0.29294 0.79951 0.0
H451 H 0.47289 0.18322 0.80714 0.0
H452 H 0.39666 0.21983 0.8157 0.0
O453 O 0.50072 0.22813 0.72528 0.0
H454 H 0.3751 0.25161 0.66672 0.0
H455 H 0.37224 0.16106 0.87383 0.0
C456 C 0.12618 0.47497 0.09293 0.0
C457 C 0.11919 0.50247 0.10423 0.0
H458 H 0.15507 0.44623 0.10721 0.0
C459 C 0.13945 0.52416 0.13959 0.0
H460 H 0.11129 0.45782 0.06599 0.0
C461 C 0.16538 0.51788 0.16337 0.0
C462 C 0.17137 0.48939 0.15267 0.0
H463 H 0.1348 0.54566 0.14919 0.0
H464 H 0.1795 0.53426 0.19103 0.0
C465 C 0.15153 0.46846 0.11672 0.0
C466 C 0.67607 0.08089 0.59688 0.0
C467 C 0.64178 0.08071 0.59683 0.0
H468 H 0.73349 0.10555 0.62117 0.0
C469 C 0.63887 0.10557 0.62205 0.0
H470 H 0.67864 0.0617 0.57762 0.0
C471 C 0.67009 0.13074 0.64674 0.0
C472 C 0.7049 0.1315 0.64671 0.0
H473 H 0.61254 0.10579 0.62219 0.0
H474 H 0.66714 0.15015 0.66497 0.0
C475 C 0.70739 0.10608 0.62162 0.0
C476 C 0.51481 0.65344 0.14732 0.0
C477 C 0.53984 0.6401 0.14596 0.0
H478 H 0.50238 0.69189 0.17481 0.0
C479 C 0.57177 0.6562 0.17338 0.0
H480 H 0.48973 0.64173 0.127 0.0
C481 C 0.57891 0.68469 0.20043 0.0
C482 C 0.55439 0.69843 0.20173 0.0
H483 H 0.59217 0.64748 0.17325 0.0
H484 H 0.60434 0.69636 0.22025 0.0
C485 C 0.52179 0.682 0.17511 0.0
C486 C 0.95137 0.57554 0.67086 0.0
C487 C 0.96007 0.59135 0.62777 0.0
H488 H 0.92141 0.56792 0.73113 0.0
C489 C 0.94674 0.61448 0.61348 0.0
H490 H 0.96077 0.55723 0.68276 0.0
C491 C 0.9241 0.62063 0.64144 0.0
C492 C 0.91395 0.60322 0.68381 0.0
H493 H 0.95318 0.62717 0.58049 0.0
H494 H 0.9131 0.63752 0.62938 0.0
C495 C 0.92849 0.58131 0.69846 0.0
C496 C 0.4086 0.88756 0.14621 0.0
C497 C 0.41333 0.9208 0.12581 0.0
H498 H 0.37426 0.83819 0.19115 0.0
C499 C 0.38525 0.92872 0.13582 0.0
H500 H 0.42975 0.88055 0.13935 0.0
C501 C 0.35382 0.90475 0.16524 0.0
C502 C 0.34879 0.87155 0.1862 0.0
H503 H 0.3877 0.95381 0.12084 0.0
H504 H 0.33331 0.91265 0.17157 0.0
C505 C 0.37678 0.86324 0.17601 0.0
C506 C 0.47963 0.39342 0.62341 0.0
C507 C 0.45632 0.38731 0.58758 0.0
H508 H 0.49129 0.36862 0.67856 0.0
C509 C 0.42595 0.35037 0.57972 0.0
H510 H 0.50303 0.42189 0.63005 0.0
C511 C 0.41927 0.31969 0.60728 0.0
C512 C 0.44292 0.32563 0.64304 0.0
H513 H 0.40758 0.34531 0.55224 0.0
H514 H 0.39604 0.29136 0.60022 0.0
C515 C 0.47303 0.3629 0.65089 0.0
C516 C 0.51932 0.88971 0.36762 0.0
C517 C 0.53114 0.89663 0.41107 0.0
H518 H 0.51753 0.8625 0.30964 0.0
C519 C 0.54817 0.87795 0.42961 0.0
H520 H 0.5059 0.90326 0.35206 0.0
C521 C 0.55474 0.85471 0.40531 0.0
C522 C 0.54377 0.84841 0.36178 0.0
H523 H 0.5582 0.88263 0.46254 0.0
H524 H 0.56987 0.84263 0.42024 0.0
C525 C 0.52535 0.86576 0.3434 0.0
C526 C 0.69186 0.6023 0.96461 0.0
C527 C 0.65356 0.57505 0.9538 0.0
H528 H 0.75275 0.62917 0.94914 0.0
C529 C 0.64727 0.55491 0.91688 0.0
H530 H 0.69723 0.61844 0.99276 0.0
C531 C 0.67881 0.5613 0.89154 0.0
C532 C 0.71743 0.58794 0.90268 0.0
H533 H 0.61784 0.53403 0.90778 0.0
H534 H 0.67281 0.54542 0.8631 0.0
C535 C 0.72355 0.60862 0.93938 0.0
C536 C 0.15564 0.6346 0.39777 0.0
C537 C 0.12288 0.63007 0.4198 0.0
H538 H 0.20599 0.67016 0.35408 0.0
C539 C 0.11737 0.66 0.4148 0.0
H540 H 0.16083 0.61208 0.40083 0.0
C541 C 0.14295 0.69293 0.3883 0.0
C542 C 0.17544 0.69769 0.36539 0.0
H543 H 0.09278 0.65777 0.43124 0.0
H544 H 0.13676 0.71479 0.38561 0.0
C545 C 0.1816 0.66796 0.37093 0.0
C546 C 0.42136 0.10447 0.94567 0.0
C547 C 0.43541 0.0843 0.92721 0.0
H548 H 0.40511 0.14461 0.93426 0.0
C549 C 0.44042 0.08679 0.88179 0.0
H550 H 0.417 0.10288 0.98057 0.0
C551 C 0.43375 0.11056 0.85561 0.0
C552 C 0.42165 0.13217 0.87415 0.0
H553 H 0.45161 0.07197 0.86655 0.0
H554 H 0.43934 0.11311 0.82085 0.0
C555 C 0.41425 0.12804 0.91926 0.0
C556 C 0.37957 0.52486 0.38096 0.0
C557 C 0.39624 0.50295 0.38213 0.0
H558 H 0.33749 0.53503 0.35218 0.0
C559 C 0.38259 0.47473 0.35228 0.0
H560 H 0.38923 0.54712 0.40299 0.0
C561 C 0.35333 0.46808 0.32332 0.0
C562 C 0.33606 0.48925 0.32244 0.0
H563 H 0.39362 0.4566 0.35199 0.0
H564 H 0.34366 0.44543 0.30181 0.0
C565 C 0.3501 0.51828 0.35138 0.0
C566 C 0.89566 0.33844 0.93345 0.0
C567 C 0.93664 0.35873 0.93092 0.0
H568 H 0.84193 0.29496 0.90821 0.0
C569 C 0.95462 0.34757 0.90227 0.0
H570 H 0.88075 0.34633 0.95488 0.0
C571 C 0.93227 0.31839 0.87493 0.0
C572 C 0.8914 0.29969 0.87563 0.0
H573 H 0.98609 0.36216 0.90001 0.0
H574 H 0.94722 0.31188 0.8518 0.0
C575 C 0.87335 0.30924 0.90623 0.0
C576 C 0.89819 0.53366 0.9328 0.0
C577 C 0.91589 0.51367 0.92506 0.0
H578 H 0.85797 0.54871 0.91136 0.0
C579 C 0.90416 0.49185 0.88861 0.0
H580 H 0.9066 0.55098 0.96033 0.0
C581 C 0.87628 0.49051 0.86046 0.0
C582 C 0.85888 0.51093 0.86762 0.0
H583 H 0.91703 0.47608 0.88153 0.0
H584 H 0.86886 0.47384 0.83246 0.0
C585 C 0.87015 0.53228 0.90463 0.0
C586 C 0.40299 0.93268 0.40869 0.0
C587 C 0.39559 0.94667 0.44488 0.0
H588 H 0.37976 0.8995 0.35385 0.0
C589 C 0.35772 0.93769 0.45328 0.0
H590 H 0.43219 0.93967 0.40143 0.0
C591 C 0.32738 0.91418 0.42644 0.0
C592 C 0.33445 0.89952 0.39036 0.0
H593 H 0.35158 0.94862 0.48082 0.0
H594 H 0.29835 0.90711 0.43449 0.0
C595 C 0.37282 0.90944 0.38167 0.0
C596 C 0.52346 0.4055 0.85007 0.0
C597 C 0.51365 0.39659 0.89506 0.0
H598 H 0.52396 0.38523 0.78766 0.0
C599 C 0.50019 0.35925 0.91126 0.0
H600 H 0.53441 0.43376 0.83591 0.0
C601 C 0.49519 0.33171 0.88348 0.0
C602 C 0.50382 0.34042 0.83854 0.0
H603 H 0.49152 0.35051 0.94522 0.0
H604 H 0.48244 0.30287 0.89689 0.0
C605 C 0.51832 0.37781 0.82229 0.0
C606 C 0.08323 0.44547 0.3611 0.0
C607 C 0.07798 0.43358 0.40551 0.0
H608 H 0.11018 0.44939 0.29991 0.0
C609 C 0.09359 0.4128 0.42129 0.0
H610 H 0.0719 0.4618 0.34794 0.0
C611 C 0.11563 0.40575 0.39364 0.0
C612 C 0.1228 0.41973 0.34986 0.0
H613 H 0.08972 0.40297 0.45529 0.0
H614 H 0.12876 0.39116 0.40701 0.0
C615 C 0.10547 0.43871 0.33365 0.0
C616 C 0.65709 0.10331 0.89624 0.0
C617 C 0.62989 0.11188 0.90806 0.0
H618 H 0.70839 0.11919 0.8592 0.0
C619 C 0.63537 0.14598 0.88943 0.0
H620 H 0.65403 0.07754 0.90981 0.0
C621 C 0.66713 0.17054 0.85966 0.0
C622 C 0.69438 0.16171 0.84785 0.0
H623 H 0.61492 0.15351 0.89772 0.0
H624 H 0.67031 0.19632 0.84602 0.0
C625 C 0.68852 0.12758 0.86693 0.0
C626 C 0.55213 0.64273 0.43331 0.0
C627 C 0.58338 0.64258 0.45153 0.0
H628 H 0.53391 0.67342 0.39453 0.0
C629 C 0.62145 0.67444 0.44416 0.0
H630 H 0.52249 0.61843 0.43905 0.0
C631 C 0.62824 0.70591 0.41817 0.0
C632 C 0.59698 0.70613 0.39941 0.0
H633 H 0.64587 0.67487 0.4584 0.0
H634 H 0.65799 0.72981 0.41241 0.0
C635 C 0.55881 0.67416 0.40757 0.0
C636 C 0.46509 0.11149 0.65705 0.0
C637 C 0.50112 0.12592 0.63507 0.0
H638 H 0.42972 0.1218 0.69677 0.0
C639 C 0.53041 0.16471 0.63865 0.0
H640 H 0.44143 0.08221 0.65494 0.0
C641 C 0.52363 0.18802 0.66339 0.0
C642 C 0.48712 0.1733 0.6846 0.0
H643 H 0.5587 0.17705 0.62254 0.0
H644 H 0.54657 0.21762 0.665 0.0
C645 C 0.45826 0.13458 0.68106 0.0
C646 C 0.39642 0.48037 0.11936 0.0
C647 C 0.39155 0.45833 0.08474 0.0
H648 H 0.36885 0.49093 0.17003 0.0
C649 C 0.35387 0.429 0.07468 0.0
H650 H 0.42537 0.50298 0.12773 0.0
C651 C 0.32135 0.42219 0.0986 0.0
C652 C 0.326 0.44458 0.13305 0.0
H653 H 0.34966 0.41161 0.04814 0.0
H654 H 0.29258 0.3998 0.08966 0.0
C655 C 0.36401 0.47361 0.14326 0.0
C656 C 0.91251 0.41736 0.66172 0.0
C657 C 0.91647 0.40766 0.62002 0.0
H658 H 0.88485 0.39843 0.72548 0.0
C659 C 0.89139 0.3693 0.61072 0.0
H660 H 0.93096 0.44645 0.67022 0.0
C661 C 0.86393 0.34159 0.64231 0.0
C662 C 0.86113 0.3512 0.68458 0.0
H663 H 0.8937 0.3605 0.57922 0.0
H664 H 0.84618 0.31234 0.63422 0.0
C665 C 0.88574 0.38968 0.69344 0.0
C666 C 0.63666 0.95751 0.12739 0.0
C667 C 0.60365 0.94127 0.10155 0.0
H668 H 0.66838 0.94759 0.17588 0.0
C669 C 0.57886 0.9016 0.10251 0.0
H670 H 0.65644 0.98799 0.12708 0.0
C671 C 0.58572 0.87876 0.1302 0.0
C672 C 0.61755 0.89494 0.15753 0.0
H673 H 0.55292 0.88811 0.08348 0.0
H674 H 0.56541 0.84833 0.1312 0.0
C675 C 0.64369 0.93447 0.15499 0.0
C676 C 0.65679 0.55147 0.68717 0.0
C677 C 0.64278 0.52367 0.65673 0.0
H678 H 0.69647 0.58008 0.73746 0.0
C679 C 0.65889 0.50127 0.65717 0.0
H680 H 0.64613 0.56987 0.68806 0.0
C681 C 0.68838 0.50717 0.68637 0.0
C682 C 0.703 0.53598 0.71564 0.0
H683 H 0.64892 0.47928 0.63471 0.0
H684 H 0.70076 0.49026 0.68476 0.0
C685 C 0.68616 0.5575 0.7157 0.0
C686 C 0.144 0.682 0.10811 0.0
C687 C 0.10374 0.66638 0.1059 0.0
H688 H 0.19761 0.72222 0.13659 0.0
C689 C 0.08706 0.68165 0.13 0.0
H690 H 0.15768 0.67062 0.09036 0.0
C691 C 0.11013 0.7114 0.15653 0.0
C692 C 0.15007 0.72589 0.15992 0.0
H693 H 0.05614 0.67025 0.12876 0.0
H694 H 0.0965 0.72207 0.17565 0.0
C695 C 0.16682 0.71129 0.13492 0.0
loop_
_geom_bond_atom_site_label_1
_geom_bond_atom_site_label_2
_geom_bond_distance
_geom_bond_site_symmetry_2
_ccdc_geom_bond_type
C0 C1 1.440 1_556 S
C0 N4 1.376 1_556 S
C0 C38 1.389 . S
C1 C0 1.440 1_554 S
C1 C2 1.352 . S
C1 H41 0.945 1_554 S
C2 C1 1.352 . S
C2 C3 1.439 . S
C2 H42 0.950 . S
C3 C2 1.439 . S
C3 N4 1.374 . S
C3 C37 1.395 . S
N4 C0 1.376 1_554 S
N4 C3 1.374 . S
N4 Co5 2.008 1_655 S
Co5 N4 2.008 1_455 S
Co5 N6 2.001 1_455 S
Co5 N11 2.008 1_554 S
Co5 N16 1.995 1_554 S
Co5 N21 2.282 . S
Co5 N27 2.282 1_454 S
N6 Co5 2.001 1_655 S
N6 C7 1.397 . S
N6 C10 1.354 1_655 S
C7 N6 1.397 . S
C7 C8 1.446 . S
C7 C37 1.391 . S
C8 C7 1.446 . S
C8 C9 1.339 1_655 S
C8 H43 0.949 . S
C9 C8 1.339 1_455 S
C9 C10 1.439 . S
C9 H44 0.950 . S
C10 N6 1.354 1_455 S
C10 C9 1.439 . S
C10 C39 1.392 . S
N11 Co5 2.008 1_556 S
N11 C12 1.376 1_556 S
N11 C15 1.374 . S
C12 N11 1.376 1_554 S
C12 C13 1.443 . S
C12 C39 1.389 . S
C13 C12 1.443 . S
C13 C14 1.340 1_554 S
C13 H45 0.951 . S
C14 C13 1.340 1_556 S
C14 C15 1.439 . S
C14 H46 0.950 . S
C15 N11 1.374 . S
C15 C14 1.439 . S
C15 C40 1.395 . S
N16 Co5 1.995 1_556 S
N16 C17 1.376 . S
N16 C20 1.383 1_455 S
C17 N16 1.376 . S
C17 C18 1.446 . S
C17 C40 1.391 . S
C18 C17 1.446 . S
C18 C19 1.339 . S
C18 H47 0.949 . S
C19 C18 1.339 . S
C19 C20 1.439 1_455 S
C19 H48 0.950 1_455 S
C20 N16 1.383 1_655 S
C20 C19 1.439 1_655 S
C20 C38 1.392 . S
N21 Co5 2.282 . S
N21 C24 1.332 . S
N21 C26 1.332 . S
C22 C23 1.386 . S
C22 C25 1.388 . S
C23 C22 1.386 . S
C23 C24 1.382 . S
C23 H49 0.950 . S
C24 N21 1.332 . S
C24 C23 1.382 . S
C24 H35 0.952 . S
C25 C22 1.388 . S
C25 C26 1.382 . S
C25 H50 0.950 . S
C26 N21 1.332 . S
C26 C25 1.382 . S
C26 H36 0.948 . S
N27 Co5 2.282 1_656 S
N27 C31 1.332 . S
N27 C32 1.332 . S
C28 C29 1.388 . S
C28 C32 1.382 . S
C28 H51 0.950 . S
C29 C28 1.388 . S
C29 C30 1.386 . S
C30 C29 1.386 . S
C30 C31 1.382 . S
C30 H52 0.950 . S
C31 N27 1.332 . S
C31 C30 1.382 . S
C31 H33 0.952 1_556 S
C32 N27 1.332 . S
C32 C28 1.382 . S
C32 H34 0.948 1_655 S
H33 C31 0.952 1_554 S
H34 C32 0.948 1_455 S
H35 C24 0.952 . S
H36 C26 0.948 . S
C37 C3 1.395 . S
C37 C7 1.391 . S
C38 C0 1.389 . S
C38 C20 1.392 . S
C39 C10 1.392 . S
C39 C12 1.389 . S
C40 C15 1.395 . S
C40 C17 1.391 . S
H41 C1 0.945 1_556 S
H42 C2 0.950 . S
H43 C8 0.949 . S
H44 C9 0.950 . S
H45 C13 0.951 . S
H46 C14 0.950 . S
H47 C18 0.949 . S
H48 C19 0.950 1_655 S
H49 C23 0.950 . S
H50 C25 0.950 . S
H51 C28 0.950 . S
H52 C30 0.950 . S
C53 C54 1.443 . S
C53 N57 1.376 . S
C53 C91 1.389 . S
C54 C53 1.443 . S
C54 C55 1.340 1_545 S
C54 H94 0.951 . S
C55 C54 1.340 1_565 S
C55 C56 1.439 . S
C55 H95 0.950 . S
C56 C55 1.439 . S
C56 N57 1.374 1_565 S
C56 C90 1.395 . S
N57 C53 1.376 . S
N57 C56 1.374 1_545 S
N57 Co58 2.008 . S
Co58 N57 2.008 . S
Co58 N59 1.995 1_545 S
Co58 N64 2.008 . S
Co58 N69 1.995 . S
Co58 N74 2.282 1_545 S
Co58 N80 2.282 . S
N59 Co58 1.995 1_565 S
N59 C60 1.376 . S
N59 C63 1.383 . S
C60 N59 1.376 . S
C60 C61 1.446 . S
C60 C90 1.391 . S
C61 C60 1.446 . S
C61 C62 1.339 . S
C61 H96 0.949 . S
C62 C61 1.339 . S
C62 C63 1.439 . S
C62 H97 0.950 . S
C63 N59 1.383 . S
C63 C62 1.439 . S
C63 C92 1.392 . S
N64 Co58 2.008 . S
N64 C65 1.376 1_545 S
N64 C68 1.374 . S
C65 N64 1.376 1_565 S
C65 C66 1.443 1_565 S
C65 C92 1.389 . S
C66 C65 1.443 1_545 S
C66 C67 1.340 . S
C66 H98 0.951 1_545 S
C67 C66 1.340 . S
C67 C68 1.439 . S
C67 H99 0.950 . S
C68 N64 1.374 . S
C68 C67 1.439 . S
C68 C93 1.395 . S
N69 Co58 1.995 . S
N69 C70 1.376 . S
N69 C73 1.383 . S
C70 N69 1.376 . S
C70 C71 1.446 . S
C70 C93 1.391 . S
C71 C70 1.446 . S
C71 C72 1.339 . S
C71 H100 0.949 . S
C72 C71 1.339 . S
C72 C73 1.439 . S
C72 H101 0.950 . S
C73 N69 1.383 . S
C73 C72 1.439 . S
C73 C91 1.392 . S
N74 Co58 2.282 1_565 S
N74 C77 1.332 . S
N74 C79 1.332 . S
C75 C76 1.386 . S
C75 C78 1.388 . S
C76 C75 1.386 . S
C76 C77 1.382 . S
C76 H102 0.950 . S
C77 N74 1.332 . S
C77 C76 1.382 . S
C77 H88 0.952 1_565 S
C78 C75 1.388 . S
C78 C79 1.382 . S
C78 H103 0.950 . S
C79 N74 1.332 . S
C79 C78 1.382 . S
C79 H89 0.948 . S
N80 Co58 2.282 . S
N80 C84 1.332 . S
N80 C85 1.332 . S
C81 C82 1.388 . S
C81 C85 1.382 . S
C81 H104 0.950 . S
C82 C81 1.388 . S
C82 C83 1.386 . S
C83 C82 1.386 . S
C83 C84 1.382 . S
C83 H105 0.950 . S
C84 N80 1.332 . S
C84 C83 1.382 . S
C84 H86 0.954 1_545 S
C85 N80 1.332 . S
C85 C81 1.382 . S
C85 H87 0.948 . S
H86 C84 0.954 1_565 S
H87 C85 0.948 . S
H88 C77 0.952 1_545 S
H89 C79 0.948 . S
C90 C56 1.395 . S
C90 C60 1.391 . S
C91 C53 1.389 . S
C91 C73 1.392 . S
C92 C63 1.392 . S
C92 C65 1.389 . S
C93 C68 1.395 . S
C93 C70 1.391 . S
H94 C54 0.951 . S
H95 C55 0.950 . S
H96 C61 0.949 . S
H97 C62 0.950 . S
H98 C66 0.951 1_565 S
H99 C67 0.950 . S
H100 C71 0.949 . S
H101 C72 0.950 . S
H102 C76 0.950 . S
H103 C78 0.950 . S
H104 C81 0.950 . S
H105 C83 0.950 . S
C106 C107 1.443 . S
C106 N110 1.376 . S
C106 C144 1.389 . S
C107 C106 1.443 . S
C107 C108 1.340 . S
C107 H147 0.951 . S
C108 C107 1.340 . S
C108 C109 1.439 . S
C108 H148 0.950 . S
C109 C108 1.439 . S
C109 N110 1.374 . S
C109 C143 1.395 . S
N110 C106 1.376 . S
N110 C109 1.374 . S
N110 Co111 2.008 1_556 S
Co111 N110 2.008 1_554 S
Co111 N112 1.995 1_554 S
Co111 N117 2.008 . S
Co111 N122 1.995 . S
Co111 N127 2.282 . S
Co111 N133 2.282 1_554 S
N112 Co111 1.995 1_556 S
N112 C113 1.376 . S
N112 C116 1.383 1_556 S
C113 N112 1.376 . S
C113 C114 1.446 . S
C113 C143 1.391 . S
C114 C113 1.446 . S
C114 C115 1.339 1_556 S
C114 H149 0.949 . S
C115 C114 1.339 1_554 S
C115 C116 1.439 . S
C115 H150 0.950 . S
C116 N112 1.383 1_554 S
C116 C115 1.439 . S
C116 C145 1.392 . S
N117 Co111 2.008 . S
N117 C118 1.376 . S
N117 C121 1.374 . S
C118 N117 1.376 . S
C118 C119 1.443 . S
C118 C145 1.389 . S
C119 C118 1.443 . S
C119 C120 1.340 . S
C119 H151 0.951 . S
C120 C119 1.340 . S
C120 C121 1.439 . S
C120 H152 0.950 . S
C121 N117 1.374 . S
C121 C120 1.439 . S
C121 C146 1.395 . S
N122 Co111 1.995 . S
N122 C123 1.376 . S
N122 C126 1.383 1_554 S
C123 N122 1.376 . S
C123 C124 1.446 . S
C123 C146 1.391 . S
C124 C123 1.446 . S
C124 C125 1.339 . S
C124 H153 0.949 . S
C125 C124 1.339 . S
C125 C126 1.439 1_554 S
C125 H154 0.950 1_554 S
C126 N122 1.383 1_556 S
C126 C125 1.439 1_556 S
C126 C144 1.392 . S
N127 Co111 2.282 . S
N127 C130 1.332 . S
N127 C132 1.332 . S
C128 C129 1.386 . S
C128 C131 1.388 . S
C129 C128 1.386 . S
C129 C130 1.382 . S
C129 H155 0.950 . S
C130 N127 1.332 . S
C130 C129 1.382 . S
C130 H141 0.952 . S
C131 C128 1.388 . S
C131 C132 1.382 . S
C131 H156 0.950 . S
C132 N127 1.332 . S
C132 C131 1.382 . S
C132 H142 0.948 . S
N133 Co111 2.282 1_556 S
N133 C137 1.332 . S
N133 C138 1.332 . S
C134 C135 1.388 . S
C134 C138 1.382 . S
C134 H157 0.950 . S
C135 C134 1.388 . S
C135 C136 1.386 . S
C136 C135 1.386 . S
C136 C137 1.382 . S
C136 H158 0.950 . S
C137 N133 1.332 . S
C137 C136 1.382 . S
C137 H139 0.952 . S
C138 N133 1.332 . S
C138 C134 1.382 . S
C138 H140 0.948 1_556 S
H139 C137 0.952 . S
H140 C138 0.948 1_554 S
H141 C130 0.952 . S
H142 C132 0.948 . S
C143 C109 1.395 . S
C143 C113 1.391 . S
C144 C106 1.389 . S
C144 C126 1.392 . S
C145 C116 1.392 . S
C145 C118 1.389 . S
C146 C121 1.395 . S
C146 C123 1.391 . S
H147 C107 0.951 . S
H148 C108 0.950 . S
H149 C114 0.949 . S
H150 C115 0.950 . S
H151 C119 0.951 . S
H152 C120 0.950 . S
H153 C124 0.949 . S
H154 C125 0.950 1_556 S
H155 C129 0.950 . S
H156 C131 0.950 . S
H157 C134 0.950 . S
H158 C136 0.950 . S
C159 C160 1.443 . S
C159 N163 1.376 . S
C159 C197 1.389 . S
C160 C159 1.443 . S
C160 C161 1.340 . S
C160 H200 0.951 . S
C161 C160 1.340 . S
C161 C162 1.439 . S
C161 H201 0.950 . S
C162 C161 1.439 . S
C162 N163 1.374 . S
C162 C196 1.395 . S
N163 C159 1.376 . S
N163 C162 1.374 . S
N163 Co164 2.008 1_655 S
Co164 N163 2.008 1_455 S
Co164 N165 1.995 1_455 S
Co164 N170 2.008 . S
Co164 N175 1.995 . S
Co164 N180 2.282 . S
Co164 N186 2.282 1_455 S
N165 Co164 1.995 1_655 S
N165 C166 1.376 . S
N165 C169 1.383 1_655 S
C166 N165 1.376 . S
C166 C167 1.446 . S
C166 C196 1.391 . S
C167 C166 1.446 . S
C167 C168 1.339 1_655 S
C167 H202 0.949 . S
C168 C167 1.339 1_455 S
C168 C169 1.439 . S
C168 H203 0.950 . S
C169 N165 1.383 1_455 S
C169 C168 1.439 . S
C169 C198 1.392 . S
N170 Co164 2.008 . S
N170 C171 1.376 . S
N170 C174 1.374 . S
C171 N170 1.376 . S
C171 C172 1.443 . S
C171 C198 1.389 . S
C172 C171 1.443 . S
C172 C173 1.340 . S
C172 H204 0.951 . S
C173 C172 1.340 . S
C173 C174 1.439 . S
C173 H205 0.950 . S
C174 N170 1.374 . S
C174 C173 1.439 . S
C174 C199 1.395 . S
N175 Co164 1.995 . S
N175 C176 1.376 . S
N175 C179 1.383 1_455 S
C176 N175 1.376 . S
C176 C177 1.446 . S
C176 C199 1.391 . S
C177 C176 1.446 . S
C177 C178 1.339 1_455 S
C177 H206 0.949 . S
C178 C177 1.339 1_655 S
C178 C179 1.439 . S
C178 H207 0.950 . S
C179 N175 1.383 1_655 S
C179 C178 1.439 . S
C179 C197 1.392 . S
N180 Co164 2.282 . S
N180 C183 1.332 . S
N180 C185 1.332 . S
C181 C182 1.386 . S
C181 C184 1.388 . S
C182 C181 1.386 . S
C182 C183 1.382 . S
C182 H208 0.950 . S
C183 N180 1.332 . S
C183 C182 1.382 . S
C183 H194 0.952 . S
C184 C181 1.388 . S
C184 C185 1.382 . S
C184 H209 0.950 . S
C185 N180 1.332 . S
C185 C184 1.382 . S
C185 H195 0.948 . S
N186 Co164 2.282 1_655 S
N186 C190 1.332 . S
N186 C191 1.332 . S
C187 C188 1.388 . S
C187 C191 1.382 . S
C187 H210 0.950 . S
C188 C187 1.388 . S
C188 C189 1.386 . S
C189 C188 1.386 . S
C189 C190 1.382 . S
C189 H211 0.950 . S
C190 N186 1.332 . S
C190 C189 1.382 . S
C190 H192 0.952 . S
C191 N186 1.332 . S
C191 C187 1.382 . S
C191 H193 0.948 1_655 S
H192 C190 0.952 . S
H193 C191 0.948 1_455 S
H194 C183 0.952 . S
H195 C185 0.948 . S
C196 C162 1.395 . S
C196 C166 1.391 . S
C197 C159 1.389 . S
C197 C179 1.392 . S
C198 C169 1.392 . S
C198 C171 1.389 . S
C199 C174 1.395 . S
C199 C176 1.391 . S
H200 C160 0.951 . S
H201 C161 0.950 . S
H202 C167 0.949 . S
H203 C168 0.950 . S
H204 C172 0.951 . S
H205 C173 0.950 . S
H206 C177 0.949 . S
H207 C178 0.950 . S
H208 C182 0.950 . S
H209 C184 0.950 . S
H210 C187 0.950 . S
H211 C189 0.950 . S
C212 C213 1.443 . S
C212 N216 1.376 1_565 S
C212 C250 1.389 . S
C213 C212 1.443 . S
C213 C214 1.340 1_565 S
C213 H253 0.951 . S
C214 C213 1.340 1_545 S
C214 C215 1.439 . S
C214 H254 0.950 . S
C215 C214 1.439 . S
C215 N216 1.374 . S
C215 C249 1.395 . S
N216 C212 1.376 1_545 S
N216 C215 1.374 . S
N216 Co217 2.008 . S
Co217 N216 2.008 . S
Co217 N218 1.995 . S
Co217 N223 2.008 1_544 S
Co217 N228 1.995 1_545 S
Co217 N233 2.282 1_554 S
Co217 N239 2.282 1_545 S
N218 Co217 1.995 . S
N218 C219 1.376 . S
N218 C222 1.383 1_554 S
C219 N218 1.376 . S
C219 C220 1.446 . S
C219 C249 1.391 . S
C220 C219 1.446 . S
C220 C221 1.339 1_554 S
C220 H255 0.949 . S
C221 C220 1.339 1_556 S
C221 C222 1.439 . S
C221 H256 0.950 . S
C222 N218 1.383 1_556 S
C222 C221 1.439 . S
C222 C251 1.392 . S
N223 Co217 2.008 1_566 S
N223 C224 1.376 1_565 S
N223 C227 1.374 . S
C224 N223 1.376 1_545 S
C224 C225 1.443 . S
C224 C251 1.389 . S
C225 C224 1.443 . S
C225 C226 1.340 1_545 S
C225 H257 0.951 . S
C226 C225 1.340 1_565 S
C226 C227 1.439 . S
C226 H258 0.950 . S
C227 N223 1.374 . S
C227 C226 1.439 . S
C227 C252 1.395 . S
N228 Co217 1.995 1_565 S
N228 C229 1.376 1_554 S
N228 C232 1.383 . S
C229 N228 1.376 1_556 S
C229 C230 1.446 . S
C229 C252 1.391 . S
C230 C229 1.446 . S
C230 C231 1.339 1_556 S
C230 H259 0.949 . S
C231 C230 1.339 1_554 S
C231 C232 1.439 . S
C231 H260 0.950 . S
C232 N228 1.383 . S
C232 C231 1.439 . S
C232 C250 1.392 . S
N233 Co217 2.282 1_556 S
N233 C236 1.332 . S
N233 C238 1.332 . S
C234 C235 1.386 . S
C234 C237 1.388 . S
C235 C234 1.386 . S
C235 C236 1.382 . S
C235 H261 0.950 . S
C236 N233 1.332 . S
C236 C235 1.382 . S
C236 H247 0.952 1_545 S
C237 C234 1.388 . S
C237 C238 1.382 . S
C237 H262 0.950 . S
C238 N233 1.332 . S
C238 C237 1.382 . S
C238 H248 0.948 . S
N239 Co217 2.282 1_565 S
N239 C243 1.332 . S
N239 C244 1.332 . S
C240 C241 1.388 . S
C240 C244 1.382 . S
C240 H263 0.950 . S
C241 C240 1.388 . S
C241 C242 1.386 . S
C242 C241 1.386 . S
C242 C243 1.382 . S
C242 H264 0.950 . S
C243 N239 1.332 . S
C243 C242 1.382 . S
C243 H245 0.952 1_565 S
C244 N239 1.332 . S
C244 C240 1.382 . S
C244 H246 0.948 . S
H245 C243 0.952 1_545 S
H246 C244 0.948 . S
H247 C236 0.952 1_565 S
H248 C238 0.948 . S
C249 C215 1.395 . S
C249 C219 1.391 . S
C250 C212 1.389 . S
C250 C232 1.392 . S
C251 C222 1.392 . S
C251 C224 1.389 . S
C252 C227 1.395 . S
C252 C229 1.391 . S
H253 C213 0.951 . S
H254 C214 0.950 . S
H255 C220 0.949 . S
H256 C221 0.950 . S
H257 C225 0.951 . S
H258 C226 0.950 . S
H259 C230 0.949 . S
H260 C231 0.950 . S
H261 C235 0.950 . S
H262 C237 0.950 . S
H263 C240 0.950 . S
H264 C242 0.950 . S
C265 C266 1.443 . S
C265 N269 1.376 . S
C265 C303 1.389 . S
C266 C265 1.443 . S
C266 C267 1.340 . S
C266 H306 0.951 . S
C267 C266 1.340 . S
C267 C268 1.439 . S
C267 H307 0.950 . S
C268 C267 1.439 . S
C268 N269 1.374 . S
C268 C302 1.395 . S
N269 C265 1.376 . S
N269 C268 1.374 . S
N269 Co270 2.008 . S
Co270 N269 2.008 . S
Co270 N271 1.995 . S
Co270 N276 2.008 . S
Co270 N281 1.995 . S
Co270 N286 2.282 . S
Co270 N292 2.282 . S
N271 Co270 1.995 . S
N271 C272 1.376 . S
N271 C275 1.383 . S
C272 N271 1.376 . S
C272 C273 1.446 . S
C272 C302 1.391 . S
C273 C272 1.446 . S
C273 C274 1.339 . S
C273 H308 0.949 . S
C274 C273 1.339 . S
C274 C275 1.439 . S
C274 H309 0.950 . S
C275 N271 1.383 . S
C275 C274 1.439 . S
C275 C304 1.392 . S
N276 Co270 2.008 . S
N276 C277 1.376 . S
N276 C280 1.374 . S
C277 N276 1.376 . S
C277 C278 1.443 . S
C277 C304 1.389 . S
C278 C277 1.443 . S
C278 C279 1.340 . S
C278 H310 0.951 . S
C279 C278 1.340 . S
C279 C280 1.439 . S
C279 H311 0.950 . S
C280 N276 1.374 . S
C280 C279 1.439 . S
C280 C305 1.395 . S
N281 Co270 1.995 . S
N281 C282 1.376 . S
N281 C285 1.383 . S
C282 N281 1.376 . S
C282 C283 1.446 . S
C282 C305 1.391 . S
C283 C282 1.446 . S
C283 C284 1.339 . S
C283 H312 0.949 . S
C284 C283 1.339 . S
C284 C285 1.439 . S
C284 H313 0.950 . S
C285 N281 1.383 . S
C285 C284 1.439 . S
C285 C303 1.392 . S
N286 Co270 2.282 . S
N286 C289 1.332 . S
N286 C291 1.332 . S
C287 C288 1.386 . S
C287 C290 1.388 . S
C288 C287 1.386 . S
C288 C289 1.382 . S
C288 H314 0.950 . S
C289 N286 1.332 . S
C289 C288 1.382 . S
C289 H300 0.952 . S
C290 C287 1.388 . S
C290 C291 1.382 . S
C290 H315 0.950 . S
C291 N286 1.332 . S
C291 C290 1.382 . S
C291 H301 0.948 . S
N292 Co270 2.282 . S
N292 C296 1.332 . S
N292 C297 1.332 . S
C293 C294 1.388 . S
C293 C297 1.382 . S
C293 H316 0.950 . S
C294 C293 1.388 . S
C294 C295 1.386 . S
C295 C294 1.386 . S
C295 C296 1.382 . S
C295 H317 0.950 . S
C296 N292 1.332 . S
C296 C295 1.382 . S
C296 H298 0.952 . S
C297 N292 1.332 . S
C297 C293 1.382 . S
C297 H299 0.948 . S
H298 C296 0.952 . S
H299 C297 0.948 . S
H300 C289 0.952 . S
H301 C291 0.948 . S
C302 C268 1.395 . S
C302 C272 1.391 . S
C303 C265 1.389 . S
C303 C285 1.392 . S
C304 C275 1.392 . S
C304 C277 1.389 . S
C305 C280 1.395 . S
C305 C282 1.391 . S
H306 C266 0.951 . S
H307 C267 0.950 . S
H308 C273 0.949 . S
H309 C274 0.950 . S
H310 C278 0.951 . S
H311 C279 0.950 . S
H312 C283 0.949 . S
H313 C284 0.950 . S
H314 C288 0.950 . S
H315 C290 0.950 . S
H316 C293 0.950 . S
H317 C295 0.950 . S
Cu318 N319 1.999 . S
Cu318 O324 1.974 . S
Cu318 N329 1.985 . S
Cu318 O338 1.959 . S
N319 Cu318 1.999 . S
N319 C321 1.263 . S
N319 C323 1.389 . S
N320 C321 1.358 . S
N320 C322 1.400 . S
C321 N319 1.263 . S
C321 N320 1.358 . S
C321 H327 0.930 . S
C322 N320 1.400 . S
C322 C323 1.351 . S
C322 H339 0.930 . S
C323 N319 1.389 . S
C323 C322 1.351 . S
C323 H328 0.930 . S
O324 Cu318 1.974 . S
O324 C334 1.282 . S
C325 O326 1.261 . S
C325 O338 1.251 . S
O326 C325 1.261 . S
H327 C321 0.930 . S
H328 C323 0.930 . S
N329 Cu318 1.985 . S
N329 C331 1.335 . S
N329 C332 1.390 . S
N330 C331 1.345 . S
N330 C333 1.336 . S
C331 N329 1.335 . S
C331 N330 1.345 . S
C331 H336 0.930 . S
C332 N329 1.390 . S
C332 C333 1.346 . S
C332 H337 0.930 . S
C333 N330 1.336 . S
C333 C332 1.346 . S
C333 H340 0.929 . S
C334 O324 1.282 . S
C334 O335 1.216 . S
O335 C334 1.216 . S
H336 C331 0.930 . S
H337 C332 0.930 . S
O338 Cu318 1.959 . S
O338 C325 1.251 . S
H339 C322 0.930 . S
H340 C333 0.929 . S
Cu341 N342 1.999 . S
Cu341 O347 1.974 . S
Cu341 N352 1.985 . S
Cu341 O361 1.959 . S
N342 Cu341 1.999 . S
N342 C344 1.263 . S
N342 C346 1.389 . S
N343 C344 1.358 . S
N343 C345 1.400 . S
C344 N342 1.263 . S
C344 N343 1.358 . S
C344 H350 0.930 . S
C345 N343 1.400 . S
C345 C346 1.351 . S
C345 H362 0.930 . S
C346 N342 1.389 . S
C346 C345 1.351 . S
C346 H351 0.930 . S
O347 Cu341 1.974 . S
O347 C357 1.282 . S
C348 O349 1.261 . S
C348 O361 1.251 . S
O349 C348 1.261 . S
H350 C344 0.930 . S
H351 C346 0.930 . S
N352 Cu341 1.985 . S
N352 C354 1.335 . S
N352 C355 1.390 . S
N353 C354 1.345 . S
N353 C356 1.336 . S
C354 N352 1.335 . S
C354 N353 1.345 . S
C354 H359 0.930 . S
C355 N352 1.390 . S
C355 C356 1.346 . S
C355 H360 0.930 . S
C356 N353 1.336 . S
C356 C355 1.346 . S
C356 H363 0.929 . S
C357 O347 1.282 . S
C357 O358 1.216 . S
O358 C357 1.216 . S
H359 C354 0.930 . S
H360 C355 0.930 . S
O361 Cu341 1.959 . S
O361 C348 1.251 . S
H362 C345 0.930 . S
H363 C356 0.929 . S
Cu364 N365 1.999 . S
Cu364 O370 1.974 . S
Cu364 N375 1.985 . S
Cu364 O384 1.959 . S
N365 Cu364 1.999 . S
N365 C367 1.263 . S
N365 C369 1.389 . S
N366 C367 1.358 . S
N366 C368 1.400 . S
C367 N365 1.263 . S
C367 N366 1.358 . S
C367 H373 0.930 . S
C368 N366 1.400 . S
C368 C369 1.351 . S
C368 H385 0.930 . S
C369 N365 1.389 . S
C369 C368 1.351 . S
C369 H374 0.930 . S
O370 Cu364 1.974 . S
O370 C380 1.282 . S
C371 O372 1.261 . S
C371 O384 1.251 . S
O372 C371 1.261 . S
H373 C367 0.930 . S
H374 C369 0.930 . S
N375 Cu364 1.985 . S
N375 C377 1.335 . S
N375 C378 1.390 . S
N376 C377 1.345 . S
N376 C379 1.336 . S
C377 N375 1.335 . S
C377 N376 1.345 . S
C377 H382 0.930 . S
C378 N375 1.390 . S
C378 C379 1.346 . S
C378 H383 0.930 . S
C379 N376 1.336 . S
C379 C378 1.346 . S
C379 H386 0.929 . S
C380 O370 1.282 . S
C380 O381 1.216 . S
O381 C380 1.216 . S
H382 C377 0.930 . S
H383 C378 0.930 . S
O384 Cu364 1.959 . S
O384 C371 1.251 . S
H385 C368 0.930 . S
H386 C379 0.929 . S
Cu387 N388 1.999 . S
Cu387 O393 1.974 . S
Cu387 N398 1.985 . S
Cu387 O407 1.959 . S
N388 Cu387 1.999 . S
N388 C390 1.263 . S
N388 C392 1.389 . S
N389 C390 1.358 . S
N389 C391 1.400 . S
C390 N388 1.263 . S
C390 N389 1.358 . S
C390 H396 0.930 . S
C391 N389 1.400 . S
C391 C392 1.351 . S
C391 H408 0.930 . S
C392 N388 1.389 . S
C392 C391 1.351 . S
C392 H397 0.930 . S
O393 Cu387 1.974 . S
O393 C403 1.282 . S
C394 O395 1.261 . S
C394 O407 1.251 . S
O395 C394 1.261 . S
H396 C390 0.930 . S
H397 C392 0.930 . S
N398 Cu387 1.985 . S
N398 C400 1.335 . S
N398 C401 1.390 . S
N399 C400 1.345 . S
N399 C402 1.336 . S
C400 N398 1.335 . S
C400 N399 1.345 . S
C400 H405 0.930 . S
C401 N398 1.390 . S
C401 C402 1.346 . S
C401 H406 0.930 . S
C402 N399 1.336 . S
C402 C401 1.346 . S
C402 H409 0.929 . S
C403 O393 1.282 . S
C403 O404 1.216 . S
O404 C403 1.216 . S
H405 C400 0.930 . S
H406 C401 0.930 . S
O407 Cu387 1.959 . S
O407 C394 1.251 . S
H408 C391 0.930 . S
H409 C402 0.929 . S
Cu410 N411 1.999 . S
Cu410 O416 1.974 . S
Cu410 N421 1.985 . S
Cu410 O430 1.959 . S
N411 Cu410 1.999 . S
N411 C413 1.263 . S
N411 C415 1.389 . S
N412 C413 1.358 . S
N412 C414 1.400 . S
C413 N411 1.263 . S
C413 N412 1.358 . S
C413 H419 0.930 . S
C414 N412 1.400 . S
C414 C415 1.351 . S
C414 H431 0.930 . S
C415 N411 1.389 . S
C415 C414 1.351 . S
C415 H420 0.930 . S
O416 Cu410 1.974 . S
O416 C426 1.282 . S
C417 O418 1.261 . S
C417 O430 1.251 . S
O418 C417 1.261 . S
H419 C413 0.930 . S
H420 C415 0.930 . S
N421 Cu410 1.985 . S
N421 C423 1.335 . S
N421 C424 1.390 . S
N422 C423 1.345 . S
N422 C425 1.336 . S
C423 N421 1.335 . S
C423 N422 1.345 . S
C423 H428 0.930 . S
C424 N421 1.390 . S
C424 C425 1.346 . S
C424 H429 0.930 . S
C425 N422 1.336 . S
C425 C424 1.346 . S
C425 H432 0.929 . S
C426 O416 1.282 . S
C426 O427 1.216 . S
O427 C426 1.216 . S
H428 C423 0.930 . S
H429 C424 0.930 . S
O430 Cu410 1.959 . S
O430 C417 1.251 . S
H431 C414 0.930 . S
H432 C425 0.929 . S
Cu433 N434 1.999 . S
Cu433 O439 1.974 . S
Cu433 N444 1.985 . S
Cu433 O453 1.959 . S
N434 Cu433 1.999 . S
N434 C436 1.263 . S
N434 C438 1.389 . S
N435 C436 1.358 . S
N435 C437 1.400 . S
C436 N434 1.263 . S
C436 N435 1.358 . S
C436 H442 0.930 . S
C437 N435 1.400 . S
C437 C438 1.351 . S
C437 H454 0.930 . S
C438 N434 1.389 . S
C438 C437 1.351 . S
C438 H443 0.930 . S
O439 Cu433 1.974 . S
O439 C449 1.282 . S
C440 O441 1.261 . S
C440 O453 1.251 . S
O441 C440 1.261 . S
H442 C436 0.930 . S
H443 C438 0.930 . S
N444 Cu433 1.985 . S
N444 C446 1.335 . S
N444 C447 1.390 . S
N445 C446 1.345 . S
N445 C448 1.336 . S
C446 N444 1.335 . S
C446 N445 1.345 . S
C446 H451 0.930 . S
C447 N444 1.390 . S
C447 C448 1.346 . S
C447 H452 0.930 . S
C448 N445 1.336 . S
C448 C447 1.346 . S
C448 H455 0.929 . S
C449 O439 1.282 . S
C449 O450 1.216 . S
O450 C449 1.216 . S
H451 C446 0.930 . S
H452 C447 0.930 . S
O453 Cu433 1.959 . S
O453 C440 1.251 . S
H454 C437 0.930 . S
H455 C448 0.929 . S
C456 C457 1.387 . S
C456 H460 0.950 . S
C456 C465 1.390 . S
C457 C456 1.387 . S
C457 C459 1.387 . S
H458 C465 0.950 . S
C459 C457 1.387 . S
C459 C461 1.390 . S
C459 H463 0.950 . S
H460 C456 0.950 . S
C461 C459 1.390 . S
C461 C462 1.387 . S
C461 H464 0.950 . S
C462 C461 1.387 . S
C462 C465 1.387 . S
H463 C459 0.950 . S
H464 C461 0.950 . S
C465 C456 1.390 . S
C465 H458 0.950 . S
C465 C462 1.387 . S
C466 C467 1.387 . S
C466 H470 0.950 . S
C466 C475 1.390 . S
C467 C466 1.387 . S
C467 C469 1.387 . S
H468 C475 0.950 . S
C469 C467 1.387 . S
C469 C471 1.390 . S
C469 H473 0.950 . S
H470 C466 0.950 . S
C471 C469 1.390 . S
C471 C472 1.387 . S
C471 H474 0.950 . S
C472 C471 1.387 . S
C472 C475 1.387 . S
H473 C469 0.950 . S
H474 C471 0.950 . S
C475 C466 1.390 . S
C475 H468 0.950 . S
C475 C472 1.387 . S
C476 C477 1.387 . S
C476 H480 0.950 . S
C476 C485 1.390 . S
C477 C476 1.387 . S
C477 C479 1.387 . S
H478 C485 0.950 . S
C479 C477 1.387 . S
C479 C481 1.390 . S
C479 H483 0.950 . S
H480 C476 0.950 . S
C481 C479 1.390 . S
C481 C482 1.387 . S
C481 H484 0.950 . S
C482 C481 1.387 . S
C482 C485 1.387 . S
H483 C479 0.950 . S
H484 C481 0.950 . S
C485 C476 1.390 . S
C485 H478 0.950 . S
C485 C482 1.387 . S
C486 C487 1.387 . S
C486 H490 0.950 . S
C486 C495 1.390 . S
C487 C486 1.387 . S
C487 C489 1.387 . S
H488 C495 0.950 . S
C489 C487 1.387 . S
C489 C491 1.390 . S
C489 H493 0.950 . S
H490 C486 0.950 . S
C491 C489 1.390 . S
C491 C492 1.387 . S
C491 H494 0.950 . S
C492 C491 1.387 . S
C492 C495 1.387 . S
H493 C489 0.950 . S
H494 C491 0.950 . S
C495 C486 1.390 . S
C495 H488 0.950 . S
C495 C492 1.387 . S
C496 C497 1.387 . S
C496 H500 0.950 . S
C496 C505 1.390 . S
C497 C496 1.387 . S
C497 C499 1.387 . S
H498 C505 0.950 . S
C499 C497 1.387 . S
C499 C501 1.390 . S
C499 H503 0.950 . S
H500 C496 0.950 . S
C501 C499 1.390 . S
C501 C502 1.387 . S
C501 H504 0.950 . S
C502 C501 1.387 . S
C502 C505 1.387 . S
H503 C499 0.950 . S
H504 C501 0.950 . S
C505 C496 1.390 . S
C505 H498 0.950 . S
C505 C502 1.387 . S
C506 C507 1.387 . S
C506 H510 0.950 . S
C506 C515 1.390 . S
C507 C506 1.387 . S
C507 C509 1.387 . S
H508 C515 0.950 . S
C509 C507 1.387 . S
C509 C511 1.390 . S
C509 H513 0.950 . S
H510 C506 0.950 . S
C511 C509 1.390 . S
C511 C512 1.387 . S
C511 H514 0.950 . S
C512 C511 1.387 . S
C512 C515 1.387 . S
H513 C509 0.950 . S
H514 C511 0.950 . S
C515 C506 1.390 . S
C515 H508 0.950 . S
C515 C512 1.387 . S
C516 C517 1.387 . S
C516 H520 0.950 . S
C516 C525 1.390 . S
C517 C516 1.387 . S
C517 C519 1.387 . S
H518 C525 0.950 . S
C519 C517 1.387 . S
C519 C521 1.390 . S
C519 H523 0.950 . S
H520 C516 0.950 . S
C521 C519 1.390 . S
C521 C522 1.387 . S
C521 H524 0.950 . S
C522 C521 1.387 . S
C522 C525 1.387 . S
H523 C519 0.950 . S
H524 C521 0.950 . S
C525 C516 1.390 . S
C525 H518 0.950 . S
C525 C522 1.387 . S
C526 C527 1.387 . S
C526 H530 0.950 . S
C526 C535 1.390 . S
C527 C526 1.387 . S
C527 C529 1.387 . S
H528 C535 0.950 . S
C529 C527 1.387 . S
C529 C531 1.390 . S
C529 H533 0.950 . S
H530 C526 0.950 . S
C531 C529 1.390 . S
C531 C532 1.387 . S
C531 H534 0.950 . S
C532 C531 1.387 . S
C532 C535 1.387 . S
H533 C529 0.950 . S
H534 C531 0.950 . S
C535 C526 1.390 . S
C535 H528 0.950 . S
C535 C532 1.387 . S
C536 C537 1.387 . S
C536 H540 0.950 . S
C536 C545 1.390 . S
C537 C536 1.387 . S
C537 C539 1.387 . S
H538 C545 0.950 . S
C539 C537 1.387 . S
C539 C541 1.390 . S
C539 H543 0.950 . S
H540 C536 0.950 . S
C541 C539 1.390 . S
C541 C542 1.387 . S
C541 H544 0.950 . S
C542 C541 1.387 . S
C542 C545 1.387 . S
H543 C539 0.950 . S
H544 C541 0.950 . S
C545 C536 1.390 . S
C545 H538 0.950 . S
C545 C542 1.387 . S
C546 C547 1.387 . S
C546 H550 0.950 . S
C546 C555 1.390 . S
C547 C546 1.387 . S
C547 C549 1.387 . S
H548 C555 0.950 . S
C549 C547 1.387 . S
C549 C551 1.390 . S
C549 H553 0.950 . S
H550 C546 0.950 . S
C551 C549 1.390 . S
C551 C552 1.387 . S
C551 H554 0.950 . S
C552 C551 1.387 . S
C552 C555 1.387 . S
H553 C549 0.950 . S
H554 C551 0.950 . S
C555 C546 1.390 . S
C555 H548 0.950 . S
C555 C552 1.387 . S
C556 C557 1.387 . S
C556 H560 0.950 . S
C556 C565 1.390 . S
C557 C556 1.387 . S
C557 C559 1.387 . S
H558 C565 0.950 . S
C559 C557 1.387 . S
C559 C561 1.390 . S
C559 H563 0.950 . S
H560 C556 0.950 . S
C561 C559 1.390 . S
C561 C562 1.387 . S
C561 H564 0.950 . S
C562 C561 1.387 . S
C562 C565 1.387 . S
H563 C559 0.950 . S
H564 C561 0.950 . S
C565 C556 1.390 . S
C565 H558 0.950 . S
C565 C562 1.387 . S
C566 C567 1.387 . S
C566 H570 0.950 . S
C566 C575 1.390 . S
C567 C566 1.387 . S
C567 C569 1.387 . S
H568 C575 0.950 . S
C569 C567 1.387 . S
C569 C571 1.390 . S
C569 H573 0.950 . S
H570 C566 0.950 . S
C571 C569 1.390 . S
C571 C572 1.387 . S
C571 H574 0.950 . S
C572 C571 1.387 . S
C572 C575 1.387 . S
H573 C569 0.950 . S
H574 C571 0.950 . S
C575 C566 1.390 . S
C575 H568 0.950 . S
C575 C572 1.387 . S
C576 C577 1.387 . S
C576 H580 0.950 . S
C576 C585 1.390 . S
C577 C576 1.387 . S
C577 C579 1.387 . S
H578 C585 0.950 . S
C579 C577 1.387 . S
C579 C581 1.390 . S
C579 H583 0.950 . S
H580 C576 0.950 . S
C581 C579 1.390 . S
C581 C582 1.387 . S
C581 H584 0.950 . S
C582 C581 1.387 . S
C582 C585 1.387 . S
H583 C579 0.950 . S
H584 C581 0.950 . S
C585 C576 1.390 . S
C585 H578 0.950 . S
C585 C582 1.387 . S
C586 C587 1.387 . S
C586 H590 0.950 . S
C586 C595 1.390 . S
C587 C586 1.387 . S
C587 C589 1.387 . S
H588 C595 0.950 . S
C589 C587 1.387 . S
C589 C591 1.390 . S
C589 H593 0.950 . S
H590 C586 0.950 . S
C591 C589 1.390 . S
C591 C592 1.387 . S
C591 H594 0.950 . S
C592 C591 1.387 . S
C592 C595 1.387 . S
H593 C589 0.950 . S
H594 C591 0.950 . S
C595 C586 1.390 . S
C595 H588 0.950 . S
C595 C592 1.387 . S
C596 C597 1.387 . S
C596 H600 0.950 . S
C596 C605 1.390 . S
C597 C596 1.387 . S
C597 C599 1.387 . S
H598 C605 0.950 . S
C599 C597 1.387 . S
C599 C601 1.390 . S
C599 H603 0.950 . S
H600 C596 0.950 . S
C601 C599 1.390 . S
C601 C602 1.387 . S
C601 H604 0.950 . S
C602 C601 1.387 . S
C602 C605 1.387 . S
H603 C599 0.950 . S
H604 C601 0.950 . S
C605 C596 1.390 . S
C605 H598 0.950 . S
C605 C602 1.387 . S
C606 C607 1.387 . S
C606 H610 0.950 . S
C606 C615 1.390 . S
C607 C606 1.387 . S
C607 C609 1.387 . S
H608 C615 0.950 . S
C609 C607 1.387 . S
C609 C611 1.390 . S
C609 H613 0.950 . S
H610 C606 0.950 . S
C611 C609 1.390 . S
C611 C612 1.387 . S
C611 H614 0.950 . S
C612 C611 1.387 . S
C612 C615 1.387 . S
H613 C609 0.950 . S
H614 C611 0.950 . S
C615 C606 1.390 . S
C615 H608 0.950 . S
C615 C612 1.387 . S
C616 C617 1.387 . S
C616 H620 0.950 . S
C616 C625 1.390 . S
C617 C616 1.387 . S
C617 C619 1.387 . S
H618 C625 0.950 . S
C619 C617 1.387 . S
C619 C621 1.390 . S
C619 H623 0.950 . S
H620 C616 0.950 . S
C621 C619 1.390 . S
C621 C622 1.387 . S
C621 H624 0.950 . S
C622 C621 1.387 . S
C622 C625 1.387 . S
H623 C619 0.950 . S
H624 C621 0.950 . S
C625 C616 1.390 . S
C625 H618 0.950 . S
C625 C622 1.387 . S
C626 C627 1.387 . S
C626 H630 0.950 . S
C626 C635 1.390 . S
C627 C626 1.387 . S
C627 C629 1.387 . S
H628 C635 0.950 . S
C629 C627 1.387 . S
C629 C631 1.390 . S
C629 H633 0.950 . S
H630 C626 0.950 . S
C631 C629 1.390 . S
C631 C632 1.387 . S
C631 H634 0.950 . S
C632 C631 1.387 . S
C632 C635 1.387 . S
H633 C629 0.950 . S
H634 C631 0.950 . S
C635 C626 1.390 . S
C635 H628 0.950 . S
C635 C632 1.387 . S
C636 C637 1.387 . S
C636 H640 0.950 . S
C636 C645 1.390 . S
C637 C636 1.387 . S
C637 C639 1.387 . S
H638 C645 0.950 . S
C639 C637 1.387 . S
C639 C641 1.390 . S
C639 H643 0.950 . S
H640 C636 0.950 . S
C641 C639 1.390 . S
C641 C642 1.387 . S
C641 H644 0.950 . S
C642 C641 1.387 . S
C642 C645 1.387 . S
H643 C639 0.950 . S
H644 C641 0.950 . S
C645 C636 1.390 . S
C645 H638 0.950 . S
C645 C642 1.387 . S
C646 C647 1.387 . S
C646 H650 0.950 . S
C646 C655 1.390 . S
C647 C646 1.387 . S
C647 C649 1.387 . S
H648 C655 0.950 . S
C649 C647 1.387 . S
C649 C651 1.390 . S
C649 H653 0.950 . S
H650 C646 0.950 . S
C651 C649 1.390 . S
C651 C652 1.387 . S
C651 H654 0.950 . S
C652 C651 1.387 . S
C652 C655 1.387 . S
H653 C649 0.950 . S
H654 C651 0.950 . S
C655 C646 1.390 . S
C655 H648 0.950 . S
C655 C652 1.387 . S
C656 C657 1.387 . S
C656 H660 0.950 . S
C656 C665 1.390 . S
C657 C656 1.387 . S
C657 C659 1.387 . S
H658 C665 0.950 . S
C659 C657 1.387 . S
C659 C661 1.390 . S
C659 H663 0.950 . S
H660 C656 0.950 . S
C661 C659 1.390 . S
C661 C662 1.387 . S
C661 H664 0.950 . S
C662 C661 1.387 . S
C662 C665 1.387 . S
H663 C659 0.950 . S
H664 C661 0.950 . S
C665 C656 1.390 . S
C665 H658 0.950 . S
C665 C662 1.387 . S
C666 C667 1.387 . S
C666 H670 0.950 . S
C666 C675 1.390 . S
C667 C666 1.387 . S
C667 C669 1.387 . S
H668 C675 0.950 . S
C669 C667 1.387 . S
C669 C671 1.390 . S
C669 H673 0.950 . S
H670 C666 0.950 . S
C671 C669 1.390 . S
C671 C672 1.387 . S
C671 H674 0.950 . S
C672 C671 1.387 . S
C672 C675 1.387 . S
H673 C669 0.950 . S
H674 C671 0.950 . S
C675 C666 1.390 . S
C675 H668 0.950 . S
C675 C672 1.387 . S
C676 C677 1.387 . S
C676 H680 0.950 . S
C676 C685 1.390 . S
C677 C676 1.387 . S
C677 C679 1.387 . S
H678 C685 0.950 . S
C679 C677 1.387 . S
C679 C681 1.390 . S
C679 H683 0.950 . S
H680 C676 0.950 . S
C681 C679 1.390 . S
C681 C682 1.387 . S
C681 H684 0.950 . S
C682 C681 1.387 . S
C682 C685 1.387 . S
H683 C679 0.950 . S
H684 C681 0.950 . S
C685 C676 1.390 . S
C685 H678 0.950 . S
C685 C682 1.387 . S
C686 C687 1.387 . S
C686 H690 0.950 . S
C686 C695 1.390 . S
C687 C686 1.387 . S
C687 C689 1.387 . S
H688 C695 0.950 . S
C689 C687 1.387 . S
C689 C691 1.390 . S
C689 H693 0.950 . S
H690 C686 0.950 . S
C691 C689 1.390 . S
C691 C692 1.387 . S
C691 H694 0.950 . S
C692 C691 1.387 . S
C692 C695 1.387 . S
H693 C689 0.950 . S
H694 C691 0.950 . S
C695 C686 1.390 . S
C695 H688 0.950 . S
C695 C692 1.387 . S
C457 C39 2.156 . S
C462 C325 2.125 . S
C467 C91 1.449 . S
C472 N343 1.448 . S
C482 C371 1.918 . S
C477 C128 1.957 . S
C492 N389 1.294 . S
C487 C188 1.304 . S
C502 C417 2.023 . S
C497 C250 2.057 . S
C512 N435 1.477 . S
C507 C304 1.475 . S
C517 C75 1.995 . S
C522 C380 1.992 . S
C527 C144 1.464 . S
C532 N399 1.395 . S
C542 C426 2.090 . S
C537 C198 2.088 . S
C552 N445 1.229 . S
C547 C234 1.313 . S
C557 C294 1.894 . S
C562 C334 1.887 . S
C572 N353 1.231 . S
C567 C29 1.303 . S
C582 C403 1.979 . S
C577 C38 2.026 . S
C587 C92 1.309 . S
C592 N422 1.284 . S
C602 C449 1.773 . S
C597 C135 1.826 . S
C607 C181 1.155 . S
C612 N330 1.120 . S
C617 C251 1.937 . S
C622 C357 1.884 . S
C627 C303 1.296 . S
C632 N376 1.272 . S
C637 C82 1.881 . S
C642 C440 1.864 . S
C652 N320 1.240 . S
C647 C145 1.321 . S
C657 C197 1.988 . S
C662 C348 1.974 . S
C667 C241 1.156 . S
C672 N366 1.075 . S
C677 C287 1.796 . S
C682 C394 1.777 . S
C687 C22 1.173 . S
C692 N412 1.103 . S
