# Generated by pormake.
# Topology pyr, (3,6)-cn, num edge types: 1
# Building blocks:
#     Node 0, Type 0, BuildingBlock: WUSLED_clean_sbu_0, # of connection points: 3
#     Node 1, Type 0, BuildingBlock: WUSLED_clean_sbu_0, # of connection points: 3
#     Node 2, Type 0, BuildingBlock: WUSLED_clean_sbu_0, # of connection points: 3
#     Node 3, Type 0, BuildingBlock: WUSLED_clean_sbu_0, # of connection points: 3
#     Node 4, Type 0, BuildingBlock: WUSLED_clean_sbu_0, # of connection points: 3
#     Node 5, Type 0, BuildingBlock: WUSLED_clean_sbu_0, # of connection points: 3
#     Node 6, Type 0, BuildingBlock: WUSLED_clean_sbu_0, # of connection points: 3
#     Node 7, Type 0, BuildingBlock: WUSLED_clean_sbu_0, # of connection points: 3
#     Node 8, Type 1, BuildingBlock: VOLQOD_clean_sbu_1, # of connection points: 6
#     Node 9, Type 1, BuildingBlock: VOLQOD_clean_sbu_1, # of connection points: 6
#     Node 10, Type 1, BuildingBlock: VOLQOD_clean_sbu_1, # of connection points: 6
#     Node 11, Type 1, BuildingBlock: VOLQOD_clean_sbu_1, # of connection points: 6
#     Edge 12, Type (0, 1), BuildingBlock: UVAHIK_clean_linker_0, # of connection points: 2
#     Edge 13, Type (0, 1), BuildingBlock: UVAHIK_clean_linker_0, # of connection points: 2
#     Edge 14, Type (0, 1), BuildingBlock: UVAHIK_clean_linker_0, # of connection points: 2
#     Edge 15, Type (0, 1), BuildingBlock: UVAHIK_clean_linker_0, # of connection points: 2
#     Edge 16, Type (0, 1), BuildingBlock: UVAHIK_clean_linker_0, # of connection points: 2
#     Edge 17, Type (0, 1), BuildingBlock: UVAHIK_clean_linker_0, # of connection points: 2
#     Edge 18, Type (0, 1), BuildingBlock: UVAHIK_clean_linker_0, # of connection points: 2
#     Edge 19, Type (0, 1), BuildingBlock: UVAHIK_clean_linker_0, # of connection points: 2
#     Edge 20, Type (0, 1), BuildingBlock: UVAHIK_clean_linker_0, # of connection points: 2
#     Edge 21, Type (0, 1), BuildingBlock: UVAHIK_clean_linker_0, # of connection points: 2
#     Edge 22, Type (0, 1), BuildingBlock: UVAHIK_clean_linker_0, # of connection points: 2
#     Edge 23, Type (0, 1), BuildingBlock: UVAHIK_clean_linker_0, # of connection points: 2
#     Edge 24, Type (0, 1), BuildingBlock: UVAHIK_clean_linker_0, # of connection points: 2
#     Edge 25, Type (0, 1), BuildingBlock: UVAHIK_clean_linker_0, # of connection points: 2
#     Edge 26, Type (0, 1), BuildingBlock: UVAHIK_clean_linker_0, # of connection points: 2
#     Edge 27, Type (0, 1), BuildingBlock: UVAHIK_clean_linker_0, # of connection points: 2
#     Edge 28, Type (0, 1), BuildingBlock: UVAHIK_clean_linker_0, # of connection points: 2
#     Edge 29, Type (0, 1), BuildingBlock: UVAHIK_clean_linker_0, # of connection points: 2
#     Edge 30, Type (0, 1), BuildingBlock: UVAHIK_clean_linker_0, # of connection points: 2
#     Edge 31, Type (0, 1), BuildingBlock: UVAHIK_clean_linker_0, # of connection points: 2
#     Edge 32, Type (0, 1), BuildingBlock: UVAHIK_clean_linker_0, # of connection points: 2
#     Edge 33, Type (0, 1), BuildingBlock: UVAHIK_clean_linker_0, # of connection points: 2
#     Edge 34, Type (0, 1), BuildingBlock: UVAHIK_clean_linker_0, # of connection points: 2
#     Edge 35, Type (0, 1), BuildingBlock: UVAHIK_clean_linker_0, # of connection points: 2
# Relax obj value: 0.035
# Max RMSD: 0.121
# Mean RMSD: 0.046
data_MOF--net-pry--node1-WUSLED_clean_sbu_0--node2-VOLQOD_clean_sbu_1--edge1-UVAHIK_clean_linker_0
_symmetry_space_group_name_H-M    P1
_symmetry_Int_Tables_number       1
_symmetry_cell_setting            triclinic
loop_
_symmetry_equiv_pos_as_xyz
'x, y, z'
_cell_length_a     58.908409
_cell_length_b     59.046959
_cell_length_c     59.251857
_cell_angle_alpha  89.820168
_cell_angle_beta   90.290051
_cell_angle_gamma 90.646402
loop_
_atom_site_label
_atom_site_type_symbol
_atom_site_fract_x
_atom_site_fract_y
_atom_site_fract_z
_atom_type_partial_charge
C0 C 0.14116 0.21065 0.11794 0.0
C1 C 0.12665 0.22195 0.13273 0.0
C2 C 0.11816 0.24982 0.10353 0.0
C3 C 0.11526 0.2414 0.1256 0.0
C4 C 0.1323 0.238 0.08864 0.0
C5 C 0.14371 0.21863 0.09581 0.0
U6 U 0.15231 0.16287 0.15986 0.0
O7 O 0.16281 0.12775 0.15424 0.0
O8 O 0.18467 0.15078 0.17392 0.0
C9 C 0.18258 0.13088 0.16422 0.0
C10 C 0.15422 0.19094 0.12549 0.0
C11 C 0.20256 0.12333 0.15161 0.0
C12 C 0.22357 0.11949 0.11665 0.0
C13 C 0.20449 0.12707 0.12829 0.0
C14 C 0.23913 0.10481 0.15161 0.0
C15 C 0.2411 0.10818 0.12816 0.0
C16 C 0.22002 0.11228 0.16318 0.0
C17 C 0.1144 0.15471 0.21107 0.0
C18 C 0.12427 0.12925 0.24179 0.0
C19 C 0.08669 0.14543 0.23992 0.0
C20 C 0.09264 0.15694 0.22012 0.0
C21 C 0.10246 0.1315 0.25106 0.0
C22 C 0.13017 0.1407 0.22193 0.0
C23 C 0.12036 0.16688 0.19022 0.0
O24 O 0.16597 0.19386 0.1442 0.0
O25 O 0.14344 0.17135 0.12469 0.0
O26 O 0.11763 0.15524 0.17152 0.0
O27 O 0.13955 0.17846 0.19087 0.0
H28 H 0.12445 0.21596 0.14989 0.0
H29 H 0.1047 0.25018 0.13757 0.0
H30 H 0.1346 0.24376 0.07143 0.0
H31 H 0.15475 0.21001 0.08414 0.0
H32 H 0.22439 0.12219 0.09859 0.0
H33 H 0.19121 0.13571 0.11907 0.0
H34 H 0.25247 0.09659 0.16111 0.0
H35 H 0.2189 0.10942 0.18122 0.0
H36 H 0.13692 0.1189 0.25003 0.0
H37 H 0.06963 0.14726 0.24633 0.0
H38 H 0.08021 0.16756 0.21184 0.0
H39 H 0.14705 0.13871 0.21509 0.0
C40 C 0.32143 0.86406 0.61868 0.0
C41 C 0.31628 0.88586 0.62636 0.0
C42 C 0.28175 0.88579 0.60352 0.0
C43 C 0.29663 0.89669 0.61876 0.0
C44 C 0.28711 0.86397 0.59585 0.0
C45 C 0.30678 0.85323 0.60337 0.0
U46 U 0.37032 0.85745 0.66056 0.0
O47 O 0.38373 0.8266 0.67649 0.0
O48 O 0.40576 0.84767 0.65506 0.0
C49 C 0.40338 0.82852 0.66623 0.0
C50 C 0.34165 0.85216 0.62689 0.0
C51 C 0.41087 0.80812 0.65432 0.0
C52 C 0.4103 0.78378 0.62132 0.0
C53 C 0.40312 0.80331 0.6324 0.0
C54 C 0.43285 0.77359 0.65403 0.0
C55 C 0.42525 0.76864 0.632 0.0
C56 C 0.42573 0.79316 0.66505 0.0
C57 C 0.37704 0.90006 0.70895 0.0
C58 C 0.39712 0.89403 0.74438 0.0
C59 C 0.38768 0.93209 0.73253 0.0
C60 C 0.37756 0.92344 0.71294 0.0
C61 C 0.39739 0.91749 0.74864 0.0
C62 C 0.38711 0.8854 0.72468 0.0
C63 C 0.36552 0.8914 0.68856 0.0
O64 O 0.36101 0.8633 0.62504 0.0
O65 O 0.33928 0.84189 0.64645 0.0
O66 O 0.35468 0.87193 0.69075 0.0
O67 O 0.37708 0.89306 0.6697 0.0
H68 H 0.32734 0.89441 0.63835 0.0
H69 H 0.29286 0.91338 0.62516 0.0
H70 H 0.27616 0.85524 0.5839 0.0
H71 H 0.31051 0.8364 0.59729 0.0
H72 H 0.4043 0.78068 0.60429 0.0
H73 H 0.39157 0.81467 0.62387 0.0
H74 H 0.44405 0.76216 0.66293 0.0
H75 H 0.43175 0.79655 0.68204 0.0
H76 H 0.40421 0.88225 0.75648 0.0
H77 H 0.38794 0.95025 0.735 0.0
H78 H 0.37001 0.93503 0.70092 0.0
H79 H 0.38699 0.86728 0.7219 0.0
C80 C 0.60463 0.38218 0.82761 0.0
C81 C 0.62009 0.39569 0.81548 0.0
C82 C 0.591 0.40371 0.78729 0.0
C83 C 0.61336 0.40632 0.79545 0.0
C84 C 0.57548 0.39053 0.79985 0.0
C85 C 0.58227 0.37984 0.8198 0.0
U86 U 0.64554 0.37446 0.87684 0.0
O87 O 0.63911 0.36571 0.91234 0.0
O88 O 0.6597 0.34332 0.8914 0.0
C89 C 0.64927 0.34606 0.91073 0.0
C90 C 0.61166 0.37024 0.84823 0.0
C91 C 0.63624 0.32624 0.91865 0.0
C92 C 0.60119 0.30421 0.92045 0.0
C93 C 0.61313 0.32352 0.91329 0.0
C94 C 0.6354 0.29004 0.93814 0.0
C95 C 0.6122 0.28718 0.93293 0.0
C96 C 0.64726 0.30941 0.9311 0.0
C97 C 0.69681 0.4139 0.88301 0.0
C98 C 0.71966 0.4167 0.91717 0.0
C99 C 0.73392 0.43211 0.88198 0.0
C100 C 0.71401 0.42512 0.87101 0.0
C101 C 0.73697 0.4281 0.90523 0.0
C102 C 0.69979 0.40958 0.90614 0.0
C103 C 0.67605 0.40662 0.87109 0.0
O104 O 0.63057 0.35876 0.84661 0.0
O105 O 0.61031 0.38196 0.86699 0.0
O106 O 0.65692 0.40963 0.88198 0.0
O107 O 0.67714 0.38682 0.86112 0.0
H108 H 0.63744 0.39776 0.82135 0.0
H109 H 0.62581 0.41613 0.78612 0.0
H110 H 0.55803 0.3885 0.7943 0.0
H111 H 0.57008 0.3696 0.82907 0.0
H112 H 0.58331 0.30271 0.91634 0.0
H113 H 0.60436 0.33629 0.90352 0.0
H114 H 0.64456 0.27712 0.94733 0.0
H115 H 0.66515 0.31113 0.93518 0.0
H116 H 0.72131 0.41353 0.93511 0.0
H117 H 0.74704 0.44044 0.87214 0.0
H118 H 0.71206 0.42841 0.85311 0.0
H119 H 0.68673 0.4008 0.91567 0.0
C120 C 0.82131 0.60245 0.38357 0.0
C121 C 0.81089 0.61738 0.39859 0.0
C122 C 0.78205 0.58883 0.40725 0.0
C123 C 0.79137 0.61066 0.41027 0.0
C124 C 0.79281 0.57383 0.39242 0.0
C125 C 0.81226 0.58062 0.38066 0.0
U126 U 0.87069 0.64321 0.37403 0.0
O127 O 0.90591 0.63678 0.3637 0.0
O128 O 0.88401 0.65829 0.34281 0.0
C129 C 0.90351 0.6478 0.34455 0.0
C130 C 0.84145 0.60954 0.37072 0.0
C131 C 0.91083 0.63573 0.32423 0.0
C132 C 0.90267 0.61149 0.29204 0.0
C133 C 0.89565 0.62198 0.31193 0.0
C134 C 0.94028 0.62784 0.29697 0.0
C135 C 0.92503 0.61447 0.28419 0.0
C136 C 0.9332 0.63839 0.31676 0.0
C137 C 0.87901 0.6934 0.41349 0.0
C138 C 0.90722 0.72276 0.40607 0.0
C139 C 0.88419 0.72446 0.43979 0.0
C140 C 0.87318 0.70433 0.43354 0.0
C141 C 0.90122 0.73403 0.42604 0.0
C142 C 0.8962 0.7026 0.39985 0.0
C143 C 0.86672 0.67272 0.40675 0.0
O144 O 0.83943 0.62865 0.3595 0.0
O145 O 0.8609 0.60789 0.38154 0.0
O146 O 0.87807 0.65379 0.40892 0.0
O147 O 0.85555 0.67414 0.38756 0.0
H148 H 0.81778 0.63428 0.40116 0.0
H149 H 0.78363 0.62249 0.42176 0.0
H150 H 0.78591 0.55699 0.38955 0.0
H151 H 0.82011 0.56888 0.36913 0.0
H152 H 0.89043 0.6015 0.28255 0.0
H153 H 0.87829 0.61966 0.31751 0.0
H154 H 0.95772 0.63016 0.29168 0.0
H155 H 0.94518 0.64881 0.32614 0.0
H156 H 0.92007 0.72978 0.39498 0.0
H157 H 0.8794 0.73249 0.45544 0.0
H158 H 0.86 0.69737 0.44429 0.0
H159 H 0.90089 0.69434 0.38427 0.0
C160 C 0.88993 0.84158 0.92831 0.0
C161 C 0.90426 0.83162 0.91241 0.0
C162 C 0.91239 0.80093 0.93865 0.0
C163 C 0.91533 0.81142 0.91751 0.0
C164 C 0.89842 0.81129 0.95472 0.0
C165 C 0.88723 0.83144 0.94954 0.0
U166 U 0.88058 0.89221 0.89009 0.0
O167 O 0.84924 0.90595 0.87562 0.0
O168 O 0.87043 0.92713 0.89786 0.0
C169 C 0.85102 0.92497 0.88699 0.0
C170 C 0.87732 0.86215 0.92262 0.0
C171 C 0.83071 0.9311 0.89979 0.0
C172 C 0.80032 0.92093 0.92557 0.0
C173 C 0.82039 0.91544 0.91446 0.0
C174 C 0.80112 0.95807 0.90804 0.0
C175 C 0.79034 0.94223 0.92231 0.0
C176 C 0.82112 0.9525 0.89682 0.0
C177 C 0.91975 0.9001 0.83933 0.0
C178 C 0.91086 0.9239 0.80703 0.0
C179 C 0.94744 0.90567 0.80961 0.0
C180 C 0.94124 0.89611 0.83031 0.0
C181 C 0.93217 0.91933 0.79751 0.0
C182 C 0.90471 0.91436 0.8278 0.0
C183 C 0.9129 0.8883 0.8601 0.0
O184 O 0.88872 0.8813 0.92477 0.0
O185 O 0.86544 0.86099 0.90382 0.0
O186 O 0.89344 0.87727 0.85888 0.0
O187 O 0.91551 0.89974 0.87895 0.0
H188 H 0.90666 0.83934 0.89597 0.0
H189 H 0.92621 0.804 0.9049 0.0
H190 H 0.89567 0.80351 0.97107 0.0
H191 H 0.87622 0.83892 0.962 0.0
H192 H 0.79258 0.90849 0.93668 0.0
H193 H 0.82768 0.89886 0.91706 0.0
H194 H 0.79374 0.97453 0.90504 0.0
H195 H 0.82889 0.96478 0.88554 0.0
H196 H 0.89863 0.93418 0.79809 0.0
H197 H 0.96413 0.90215 0.80298 0.0
H198 H 0.9531 0.88522 0.83907 0.0
H199 H 0.88802 0.91764 0.83457 0.0
C200 C 0.59808 0.11866 0.34312 0.0
C201 C 0.6137 0.10428 0.3328 0.0
C202 C 0.58692 0.097 0.30215 0.0
C203 C 0.60819 0.09359 0.31244 0.0
C204 C 0.57109 0.11091 0.31296 0.0
C205 C 0.57667 0.12169 0.33325 0.0
U206 U 0.63699 0.12878 0.39366 0.0
O207 O 0.65151 0.1605 0.40687 0.0
O208 O 0.62904 0.13979 0.42821 0.0
C209 C 0.63995 0.15918 0.42575 0.0
C210 C 0.60427 0.13131 0.36359 0.0
C211 C 0.62698 0.17952 0.43131 0.0
C212 C 0.60105 0.20932 0.42029 0.0
C213 C 0.61238 0.18929 0.41532 0.0
C214 C 0.61823 0.20964 0.45754 0.0
C215 C 0.60401 0.21983 0.44139 0.0
C216 C 0.62967 0.18967 0.4525 0.0
C217 C 0.68805 0.09045 0.40277 0.0
C218 C 0.71949 0.10015 0.42776 0.0
C219 C 0.71868 0.06392 0.40865 0.0
C220 C 0.69797 0.06946 0.39858 0.0
C221 C 0.7299 0.07936 0.42306 0.0
C222 C 0.69872 0.10565 0.4177 0.0
C223 C 0.66724 0.09666 0.3906 0.0
O224 O 0.60214 0.12019 0.38273 0.0
O225 O 0.6233 0.14306 0.36226 0.0
O226 O 0.66848 0.11577 0.37922 0.0
O227 O 0.64818 0.09421 0.40186 0.0
H228 H 0.63029 0.10166 0.34028 0.0
H229 H 0.62063 0.08276 0.30467 0.0
H230 H 0.55466 0.11405 0.30536 0.0
H231 H 0.56443 0.13276 0.34101 0.0
H232 H 0.58999 0.21661 0.40761 0.0
H233 H 0.61 0.18157 0.3989 0.0
H234 H 0.621 0.21743 0.47387 0.0
H235 H 0.64089 0.18233 0.46502 0.0
H236 H 0.72774 0.1125 0.4386 0.0
H237 H 0.72602 0.04761 0.40498 0.0
H238 H 0.68989 0.0575 0.38717 0.0
H239 H 0.69125 0.12196 0.42112 0.0
C240 C 0.33684 0.59611 0.12715 0.0
C241 C 0.32838 0.61188 0.11158 0.0
C242 C 0.29601 0.58713 0.10376 0.0
C243 C 0.30809 0.60746 0.10002 0.0
C244 C 0.30497 0.57105 0.11886 0.0
C245 C 0.32522 0.57557 0.13053 0.0
U246 U 0.3872 0.63454 0.13883 0.0
O247 O 0.39954 0.64922 0.17072 0.0
O248 O 0.42185 0.62754 0.15076 0.0
C249 C 0.41883 0.63831 0.16991 0.0
C250 C 0.35707 0.60159 0.14071 0.0
C251 C 0.42482 0.62599 0.19068 0.0
C252 C 0.42697 0.59125 0.2127 0.0
C253 C 0.4221 0.60237 0.19238 0.0
C254 C 0.43714 0.62721 0.22981 0.0
C255 C 0.43432 0.60361 0.23167 0.0
C256 C 0.43249 0.63827 0.20947 0.0
C257 C 0.39705 0.68569 0.10091 0.0
C258 C 0.42191 0.71687 0.1119 0.0
C259 C 0.40571 0.71576 0.07422 0.0
C260 C 0.39466 0.69535 0.07943 0.0
C261 C 0.41924 0.72688 0.09048 0.0
C262 C 0.41097 0.69639 0.11704 0.0
C263 C 0.38447 0.66485 0.10652 0.0
O264 O 0.37662 0.59967 0.13031 0.0
O265 O 0.35555 0.62031 0.1525 0.0
O266 O 0.37254 0.66574 0.12517 0.0
O267 O 0.39585 0.64595 0.10447 0.0
H268 H 0.33723 0.62781 0.10872 0.0
H269 H 0.30175 0.62002 0.08829 0.0
H270 H 0.29595 0.55533 0.12221 0.0
H271 H 0.33153 0.56325 0.14253 0.0
H272 H 0.42446 0.57308 0.21373 0.0
H273 H 0.41594 0.59258 0.17814 0.0
H274 H 0.44301 0.63712 0.24409 0.0
H275 H 0.43463 0.6565 0.20849 0.0
H276 H 0.43244 0.7249 0.12467 0.0
H277 H 0.40316 0.72316 0.05766 0.0
H278 H 0.38397 0.68729 0.0668 0.0
H279 H 0.41311 0.68905 0.13369 0.0
C280 C 0.09034 0.33237 0.63251 0.0
C281 C 0.10703 0.31815 0.62371 0.0
C282 C 0.07807 0.29024 0.6133 0.0
C283 C 0.10098 0.29725 0.61432 0.0
C284 C 0.06137 0.3049 0.62158 0.0
C285 C 0.06748 0.32572 0.63117 0.0
U286 U 0.12932 0.38384 0.63849 0.0
O287 O 0.12162 0.41919 0.64729 0.0
O288 O 0.14464 0.39931 0.66861 0.0
C289 C 0.13311 0.41812 0.66634 0.0
C290 C 0.0966 0.35383 0.64361 0.0
C291 C 0.12105 0.42551 0.68666 0.0
C292 C 0.10054 0.41674 0.72112 0.0
C293 C 0.11036 0.4097 0.70094 0.0
C294 C 0.11098 0.45562 0.71247 0.0
C295 C 0.10101 0.43973 0.72723 0.0
C296 C 0.121 0.44852 0.69238 0.0
C297 C 0.18013 0.39058 0.59939 0.0
C298 C 0.21466 0.41142 0.60883 0.0
C299 C 0.20736 0.40018 0.57014 0.0
C300 C 0.18678 0.39018 0.57672 0.0
C301 C 0.22168 0.41055 0.58621 0.0
C302 C 0.19399 0.40165 0.61535 0.0
C303 C 0.15921 0.37867 0.60632 0.0
O304 O 0.11561 0.35355 0.65532 0.0
O305 O 0.09432 0.37222 0.63127 0.0
O306 O 0.14021 0.3898 0.60337 0.0
O307 O 0.16033 0.36816 0.62588 0.0
H308 H 0.12481 0.32301 0.62445 0.0
H309 H 0.11434 0.28636 0.6084 0.0
H310 H 0.04354 0.30029 0.6207 0.0
H311 H 0.05435 0.33656 0.63772 0.0
H312 H 0.09273 0.40418 0.73205 0.0
H313 H 0.11001 0.39186 0.69672 0.0
H314 H 0.11172 0.47341 0.71682 0.0
H315 H 0.12915 0.46095 0.68153 0.0
H316 H 0.22523 0.41957 0.62151 0.0
H317 H 0.21242 0.39915 0.55263 0.0
H318 H 0.17627 0.38175 0.56418 0.0
H319 H 0.18905 0.40236 0.63292 0.0
O320 O 0.00813 0.05456 0.54114 0.0
Zn321 Zn 0.99348 0.02431 0.5343 0.0
O322 O 0.01346 0.00598 0.51537 0.0
Zn323 Zn 0.99866 1.00013 0.48632 0.0
Zn324 Zn 0.0424 0.02206 0.51039 0.0
Zn325 Zn 0.01919 0.97711 0.53041 0.0
O326 O 0.99407 0.96665 0.48094 0.0
O327 O 0.0068 0.95074 0.51245 0.0
O328 O 0.96333 0.03006 0.51881 0.0
O329 O 0.96766 0.01398 0.48533 0.0
O330 O 0.0167 0.01343 0.46059 0.0
O331 O 0.04739 0.02803 0.47715 0.0
O332 O 0.06908 0.00407 0.52238 0.0
O333 O 0.98714 0.0089 0.56416 0.0
O334 O 0.05266 0.97244 0.53488 0.0
O335 O 0.0048 0.97606 0.56113 0.0
C336 C 0.02747 0.06336 0.53679 0.0
C337 C 0.99764 0.94914 0.49299 0.0
C338 C 0.03568 0.02391 0.45946 0.0
C339 C 0.95573 0.02504 0.49926 0.0
C340 C 0.07039 0.98445 0.53133 0.0
C341 C 0.99274 0.98977 0.57234 0.0
O342 O 0.04226 0.05267 0.52552 0.0
O343 O 0.50394 0.0615 0.99369 0.0
Zn344 Zn 0.48893 0.03102 0.99978 0.0
O345 O 0.50853 0.01184 0.01865 0.0
Zn346 Zn 0.5173 0.98497 0.00166 0.0
Zn347 Zn 0.5359 0.02874 0.02741 0.0
Zn348 Zn 0.49225 0.00245 0.04593 0.0
O349 O 0.50703 0.95639 0.01737 0.0
O350 O 0.48909 0.96846 0.04783 0.0
O351 O 0.48199 0.01595 0.96975 0.0
O352 O 0.50271 0.98478 0.97089 0.0
O353 O 0.55124 0.98352 0.99761 0.0
O354 O 0.56414 0.01404 0.01553 0.0
O355 O 0.53897 0.03116 0.06121 0.0
O356 O 0.459 0.03686 0.01538 0.0
O357 O 0.50841 0.01316 0.07413 0.0
O358 O 0.46098 0.01576 0.04641 0.0
C359 C 0.52202 0.07081 0.00135 0.0
C360 C 0.49592 0.9524 0.03536 0.0
C361 C 0.56764 0.99624 0.00402 0.0
C362 C 0.48895 0.99778 0.96063 0.0
C363 C 0.52675 0.02428 0.07758 0.0
C364 C 0.45023 0.02933 0.03359 0.0
O365 O 0.53523 0.06029 0.01473 0.0
O366 O 0.53258 0.50424 0.559 0.0
Zn367 Zn 0.52648 0.51936 0.52876 0.0
O368 O 0.50619 0.50052 0.50985 0.0
Zn369 Zn 0.52172 0.49168 0.48218 0.0
Zn370 Zn 0.49733 0.47318 0.52638 0.0
Zn371 Zn 0.47893 0.51752 0.50189 0.0
O372 O 0.50516 0.5027 0.45446 0.0
O373 O 0.4766 0.52247 0.46828 0.0
O374 O 0.55666 0.52496 0.5132 0.0
O375 O 0.55302 0.50552 0.48133 0.0
O376 O 0.52506 0.45775 0.47996 0.0
O377 O 0.50806 0.44496 0.51086 0.0
O378 O 0.46342 0.47085 0.52998 0.0
O379 O 0.51214 0.54969 0.53534 0.0
O380 O 0.45046 0.50106 0.51187 0.0
O381 O 0.47916 0.54799 0.51708 0.0
C382 C 0.52494 0.48603 0.56792 0.0
C383 C 0.48787 0.51516 0.45157 0.0
C384 C 0.51885 0.4414 0.49268 0.0
C385 C 0.56464 0.51824 0.49444 0.0
C386 C 0.44699 0.48296 0.52315 0.0
C387 C 0.49328 0.55852 0.52972 0.0
O388 O 0.51121 0.47309 0.55728 0.0
O389 O 0.98679 0.51533 0.05731 0.0
Zn390 Zn 0.99262 0.50042 0.02704 0.0
O391 O 0.01174 0.52013 0.00781 0.0
Zn392 Zn 0.99527 0.52889 0.98039 0.0
Zn393 Zn 0.02057 0.54753 0.02426 0.0
Zn394 Zn 0.03902 0.50389 0.99928 0.0
O395 O 0.01116 0.51827 0.9522 0.0
O396 O 0.04088 0.49974 0.96568 0.0
O397 O 0.96225 0.4942 0.01187 0.0
O398 O 0.96406 0.51482 0.98045 0.0
O399 O 0.99154 0.56278 0.97819 0.0
O400 O 0.00909 0.57564 0.00886 0.0
O401 O 0.05459 0.5505 0.02745 0.0
O402 O 0.00783 0.47026 0.03336 0.0
O403 O 0.06732 0.5202 0.00968 0.0
O404 O 0.03967 0.4732 0.01368 0.0
C405 C 0.99403 0.53374 0.06611 0.0
C406 C 0.0289 0.50656 0.94911 0.0
C407 C 0.99785 0.57914 0.9908 0.0
C408 C 0.95331 0.50141 0.99359 0.0
C409 C 0.07094 0.53833 0.02076 0.0
C410 C 0.02658 0.46205 0.02675 0.0
O411 O 0.00719 0.54713 0.05533 0.0
C412 C 0.08264 0.13011 0.28855 0.0
C413 C 0.09616 0.11947 0.27229 0.0
C414 C 0.0765 0.11878 0.30837 0.0
C415 C 0.09297 0.07189 0.34592 0.0
H416 H 0.03108 0.07643 0.36732 0.0
C417 C 0.06485 0.04362 0.43535 0.0
C418 C 0.04372 0.03245 0.43728 0.0
C419 C 0.07175 0.0529 0.41472 0.0
C420 C 0.04838 0.07484 0.36148 0.0
H421 H 0.11367 0.08841 0.26421 0.0
H422 H 0.10314 0.06876 0.29897 0.0
H423 H 0.04201 0.09524 0.33225 0.0
H424 H 0.01355 0.02183 0.41876 0.0
H425 H 0.02565 0.03799 0.38284 0.0
H426 H 0.0993 0.05142 0.37517 0.0
C427 C 0.09747 0.08596 0.29639 0.0
C428 C 0.0547 0.08582 0.34152 0.0
C429 C 0.10353 0.09725 0.27649 0.0
C430 C 0.0299 0.03037 0.41795 0.0
C431 C 0.03676 0.03975 0.39736 0.0
C432 C 0.08668 0.06102 0.36598 0.0
C433 C 0.0838 0.09657 0.31251 0.0
C434 C 0.07708 0.08454 0.33354 0.0
C435 C 0.05764 0.05133 0.39557 0.0
C436 C 0.06432 0.0624 0.374 0.0
H437 H 0.07702 0.14735 0.28611 0.0
H438 H 0.06626 0.12755 0.32063 0.0
H439 H 0.11038 0.07072 0.34029 0.0
H440 H 0.07594 0.04554 0.44987 0.0
H441 H 0.08786 0.06188 0.41392 0.0
C442 C 0.39708 0.94483 0.78114 0.0
C443 C 0.40739 0.92669 0.76993 0.0
C444 C 0.40629 0.9534 0.80119 0.0
C445 C 0.45922 0.95467 0.83555 0.0
H446 H 0.4186 0.97248 0.88347 0.0
C447 C 0.48982 0.97255 0.92666 0.0
C448 C 0.48048 0.99119 0.93791 0.0
C449 C 0.48137 0.96571 0.90565 0.0
C450 C 0.43016 0.96783 0.87015 0.0
H451 H 0.43573 0.90356 0.77107 0.0
H452 H 0.45137 0.91802 0.80639 0.0
H453 H 0.40292 0.95822 0.84806 0.0
H454 H 0.45503 0.0174 0.93566 0.0
H455 H 0.44025 0.00537 0.89896 0.0
H456 H 0.48645 0.96393 0.8579 0.0
C457 C 0.43633 0.92588 0.79947 0.0
C458 C 0.42118 0.95967 0.84982 0.0
C459 C 0.42717 0.91736 0.77934 0.0
C460 C 0.46263 0.00297 0.92749 0.0
C461 C 0.45406 0.99601 0.90653 0.0
C462 C 0.46819 0.96271 0.85594 0.0
C463 C 0.426 0.944 0.81067 0.0
C464 C 0.43559 0.95293 0.83225 0.0
C465 C 0.46327 0.97724 0.89543 0.0
C466 C 0.45376 0.96933 0.8735 0.0
H467 H 0.38166 0.95226 0.77459 0.0
H468 H 0.39801 0.96754 0.80917 0.0
H469 H 0.47083 0.95003 0.82228 0.0
H470 H 0.50359 0.96308 0.93415 0.0
H471 H 0.48868 0.95105 0.89765 0.0
C472 C 0.56965 0.4023 0.75053 0.0
C473 C 0.584 0.4142 0.7655 0.0
C474 C 0.56312 0.41195 0.73 0.0
C475 C 0.57988 0.45476 0.68798 0.0
H476 H 0.51755 0.44754 0.66767 0.0
C477 C 0.5464 0.49361 0.60406 0.0
C478 C 0.53196 0.47958 0.59113 0.0
C479 C 0.5527 0.48732 0.62602 0.0
C480 C 0.53507 0.44955 0.673 0.0
H481 H 0.6026 0.44572 0.77056 0.0
H482 H 0.59136 0.46246 0.73449 0.0
H483 H 0.52861 0.43343 0.70474 0.0
H484 H 0.51303 0.44779 0.59115 0.0
H485 H 0.52419 0.4368 0.62903 0.0
H486 H 0.5864 0.47054 0.65601 0.0
C487 C 0.5853 0.44559 0.73869 0.0
C488 C 0.54139 0.44148 0.69425 0.0
C489 C 0.59176 0.43597 0.75933 0.0
C490 C 0.52407 0.45912 0.60061 0.0
C491 C 0.53035 0.45286 0.62245 0.0
C492 C 0.57356 0.46279 0.66663 0.0
C493 C 0.57085 0.43369 0.72384 0.0
C494 C 0.56393 0.44368 0.70185 0.0
C495 C 0.54464 0.46689 0.63548 0.0
C496 C 0.55114 0.45995 0.65876 0.0
H497 H 0.56374 0.38533 0.75448 0.0
H498 H 0.55231 0.40217 0.71874 0.0
H499 H 0.59742 0.45655 0.6933 0.0
H500 H 0.55277 0.5095 0.5973 0.0
H501 H 0.56362 0.49858 0.63568 0.0
C502 C 0.94658 0.61646 0.24777 0.0
C503 C 0.93232 0.60425 0.2625 0.0
C504 C 0.95345 0.60705 0.22736 0.0
C505 C 0.93794 0.56399 0.18514 0.0
H506 H 1.00027 0.57265 0.16591 0.0
C507 C 0.97282 0.52572 0.10215 0.0
C508 C 0.98704 0.54 0.08929 0.0
C509 C 0.96632 0.53193 0.12397 0.0
C510 C 0.98276 0.57023 0.17093 0.0
H511 H 0.91422 0.57239 0.26724 0.0
H512 H 0.92608 0.55604 0.2314 0.0
H513 H 0.98856 0.58652 0.20267 0.0
H514 H 0.00543 0.57209 0.08935 0.0
H515 H 0.99392 0.58292 0.12701 0.0
H516 H 0.93207 0.54803 0.15318 0.0
C517 C 0.9318 0.57299 0.23568 0.0
C518 C 0.97606 0.57817 0.19202 0.0
C519 C 0.92499 0.58239 0.25619 0.0
C520 C 0.99457 0.56058 0.09875 0.0
C521 C 0.98808 0.56676 0.12047 0.0
C522 C 0.94464 0.55609 0.16396 0.0
C523 C 0.94618 0.58521 0.22108 0.0
C524 C 0.95351 0.57544 0.19924 0.0
C525 C 0.97393 0.55252 0.13339 0.0
C526 C 0.96706 0.55942 0.15648 0.0
H527 H 0.95217 0.63352 0.2518 0.0
H528 H 0.96418 0.61708 0.21629 0.0
H529 H 0.9204 0.56179 0.19015 0.0
H530 H 0.96673 0.50973 0.09541 0.0
H531 H 0.95554 0.52049 0.13354 0.0
C532 C 0.27107 0.07895 0.12174 0.0
C533 C 0.26133 0.0998 0.11586 0.0
C534 C 0.29038 0.07127 0.11068 0.0
C535 C 0.33893 0.09143 0.07629 0.0
H536 H 0.34652 0.02723 0.06541 0.0
C537 C 0.41688 0.05529 0.02966 0.0
C538 C 0.42732 0.03682 0.04038 0.0
C539 C 0.39572 0.06291 0.03691 0.0
C540 C 0.34467 0.0452 0.06841 0.0
H541 H 0.26433 0.12885 0.09351 0.0
H542 H 0.29763 0.11511 0.07374 0.0
H543 H 0.3111 0.04071 0.08137 0.0
H544 H 0.4234 0.01156 0.06683 0.0
H545 H 0.38653 0.02475 0.07929 0.0
H546 H 0.37258 0.09582 0.06327 0.0
C547 C 0.29052 0.10487 0.0872 0.0
C548 C 0.3244 0.05294 0.07763 0.0
C549 C 0.27123 0.11262 0.09836 0.0
C550 C 0.4159 0.02587 0.0582 0.0
C551 C 0.39468 0.03333 0.06527 0.0
C552 C 0.35915 0.08369 0.0669 0.0
C553 C 0.30042 0.08414 0.0933 0.0
C554 C 0.32139 0.07611 0.08203 0.0
C555 C 0.38444 0.05204 0.05484 0.0
C556 C 0.36236 0.06045 0.06318 0.0
H557 H 0.26373 0.06846 0.1349 0.0
H558 H 0.29767 0.05538 0.11608 0.0
H559 H 0.33737 0.10934 0.0797 0.0
H560 H 0.42521 0.06413 0.0159 0.0
H561 H 0.38815 0.07728 0.02845 0.0
C562 C 0.26053 0.91996 0.58971 0.0
C563 C 0.26054 0.89693 0.59582 0.0
C564 C 0.24059 0.93021 0.58206 0.0
C565 C 0.1839 0.91618 0.55798 0.0
H566 H 0.1688 0.97708 0.57655 0.0
C567 C 0.09462 0.95277 0.54549 0.0
C568 C 0.09286 0.97526 0.53785 0.0
C569 C 0.11562 0.94393 0.55174 0.0
C570 C 0.17292 0.96017 0.571 0.0
H571 H 0.23946 0.86681 0.59935 0.0
H572 H 0.20473 0.88465 0.58628 0.0
H573 H 0.20438 0.96032 0.5893 0.0
H574 H 0.11195 0.00612 0.53088 0.0
H575 H 0.14872 0.99061 0.54187 0.0
H576 H 0.15231 0.91589 0.53998 0.0
C577 C 0.22021 0.89471 0.58684 0.0
C578 C 0.19332 0.95055 0.57829 0.0
C579 C 0.24012 0.88447 0.59438 0.0
C580 C 0.11268 0.98873 0.53667 0.0
C581 C 0.13373 0.97989 0.54308 0.0
C582 C 0.16351 0.92574 0.5508 0.0
C583 C 0.22019 0.91767 0.58043 0.0
C584 C 0.19895 0.92834 0.57204 0.0
C585 C 0.13543 0.95736 0.55061 0.0
C586 C 0.15767 0.94775 0.55739 0.0
H587 H 0.27604 0.92996 0.59042 0.0
H588 H 0.24126 0.94785 0.57703 0.0
H589 H 0.18789 0.89924 0.55241 0.0
H590 H 0.07975 0.94188 0.54667 0.0
H591 H 0.1163 0.92661 0.55776 0.0
C592 C 0.76841 0.45662 0.91116 0.0
C593 C 0.75813 0.4358 0.91689 0.0
C594 C 0.78856 0.46366 0.92164 0.0
C595 C 0.83784 0.44172 0.95363 0.0
H596 H 0.84867 0.50546 0.9657 0.0
C597 C 0.91933 0.47566 0.99816 0.0
C598 C 0.93001 0.49407 0.98725 0.0
C599 C 0.89758 0.46846 0.99153 0.0
C600 C 0.8459 0.48761 0.96237 0.0
H601 H 0.76104 0.40611 0.93835 0.0
H602 H 0.79579 0.41874 0.95716 0.0
H603 H 0.81194 0.49305 0.95086 0.0
H604 H 0.92597 0.51959 0.96112 0.0
H605 H 0.88809 0.50714 0.94977 0.0
H606 H 0.87189 0.43639 0.96524 0.0
C607 C 0.78846 0.42946 0.94424 0.0
C608 C 0.82489 0.48049 0.95378 0.0
C609 C 0.76835 0.42235 0.93365 0.0
C610 C 0.9183 0.50532 0.96985 0.0
C611 C 0.89652 0.49829 0.96343 0.0
C612 C 0.85881 0.44884 0.96241 0.0
C613 C 0.79889 0.45016 0.93829 0.0
C614 C 0.8207 0.4575 0.94894 0.0
C615 C 0.88598 0.47972 0.97409 0.0
C616 C 0.86316 0.4719 0.96652 0.0
H617 H 0.76087 0.46759 0.89858 0.0
H618 H 0.79623 0.47956 0.91637 0.0
H619 H 0.83536 0.42393 0.94985 0.0
H620 H 0.92789 0.46661 0.0116 0.0
H621 H 0.88979 0.45416 1.00012 0.0
C622 C 0.75876 0.56015 0.42866 0.0
C623 C 0.7609 0.58186 0.41907 0.0
C624 C 0.73851 0.55329 0.43896 0.0
C625 C 0.68446 0.57498 0.46231 0.0
H626 H 0.66286 0.51391 0.45037 0.0
C627 C 0.60179 0.53849 0.50175 0.0
C628 C 0.58781 0.52536 0.48746 0.0
C629 C 0.6236 0.54515 0.49491 0.0
C630 C 0.66858 0.53106 0.45378 0.0
H631 H 0.74347 0.61343 0.41285 0.0
H632 H 0.70806 0.60141 0.43056 0.0
H633 H 0.69942 0.5263 0.43566 0.0
H634 H 0.58586 0.50907 0.45468 0.0
H635 H 0.62352 0.52092 0.44273 0.0
H636 H 0.65317 0.57996 0.47974 0.0
C637 C 0.72217 0.5898 0.43054 0.0
C638 C 0.68971 0.53808 0.44559 0.0
C639 C 0.74245 0.59669 0.42033 0.0
C640 C 0.59616 0.51907 0.46621 0.0
C641 C 0.61787 0.52575 0.45938 0.0
C642 C 0.66327 0.56797 0.47047 0.0
C643 C 0.71986 0.56794 0.43981 0.0
C644 C 0.69785 0.5602 0.44957 0.0
C645 C 0.6319 0.53883 0.47364 0.0
C646 C 0.65496 0.54599 0.46609 0.0
H647 H 0.77279 0.54846 0.42827 0.0
H648 H 0.73748 0.53648 0.44628 0.0
H649 H 0.69033 0.59204 0.46593 0.0
H650 H 0.59595 0.54359 0.51825 0.0
H651 H 0.63405 0.55503 0.5064 0.0
C652 C 0.11923 0.28702 0.08295 0.0
C653 C 0.10721 0.27127 0.09628 0.0
C654 C 0.10929 0.30738 0.07641 0.0
C655 C 0.05406 0.33579 0.06935 0.0
H656 H 0.09192 0.38995 0.06893 0.0
C657 C 0.02029 0.42626 0.04935 0.0
C658 C 0.03397 0.4395 0.03492 0.0
C659 C 0.02803 0.40546 0.05766 0.0
C660 C 0.08115 0.37495 0.0688 0.0
H661 H 0.07512 0.26455 0.11295 0.0
H662 H 0.05791 0.3004 0.10189 0.0
H663 H 0.10764 0.35433 0.08213 0.0
H664 H 0.06638 0.44089 0.01757 0.0
H665 H 0.07969 0.40487 0.03196 0.0
H666 H 0.02756 0.35664 0.05596 0.0
C667 C 0.07498 0.29683 0.09631 0.0
C668 C 0.09018 0.35451 0.07634 0.0
C669 C 0.08494 0.27639 0.10285 0.0
C670 C 0.05538 0.43128 0.02873 0.0
C671 C 0.06311 0.41064 0.0371 0.0
C672 C 0.04498 0.35634 0.06187 0.0
C673 C 0.08711 0.31263 0.08311 0.0
C674 C 0.07688 0.33459 0.07636 0.0
C675 C 0.04967 0.3976 0.05183 0.0
C676 C 0.05857 0.37605 0.06117 0.0
H677 H 0.1365 0.28381 0.07781 0.0
H678 H 0.11902 0.31899 0.06596 0.0
H679 H 0.0434 0.32074 0.069 0.0
H680 H 0.00371 0.43207 0.05444 0.0
H681 H 0.01732 0.39579 0.06905 0.0
C682 C 0.58357 0.25593 0.926 0.0
C683 C 0.59971 0.26638 0.94025 0.0
C684 C 0.57246 0.23595 0.93261 0.0
C685 C 0.56034 0.1999 0.98294 0.0
H686 H 0.5516 0.15252 0.93846 0.0
C687 C 0.54485 0.10641 0.00655 0.0
C688 C 0.52807 0.09427 0.99455 0.0
C689 C 0.55111 0.12832 0.99998 0.0
C690 C 0.55365 0.16571 0.95099 0.0
H691 H 0.61629 0.26421 0.97296 0.0
H692 H 0.59764 0.22906 0.9841 0.0
H693 H 0.56725 0.18914 0.92687 0.0
H694 H 0.50461 0.09573 0.96625 0.0
H695 H 0.51585 0.13404 0.95457 0.0
H696 H 0.54745 0.17609 0.00717 0.0
C697 C 0.59323 0.23646 0.96794 0.0
C698 C 0.56258 0.18673 0.94437 0.0
C699 C 0.60422 0.25649 0.96139 0.0
C700 C 0.51757 0.10463 0.97587 0.0
C701 C 0.52406 0.1265 0.96912 0.0
C702 C 0.55162 0.17883 0.98958 0.0
C703 C 0.57729 0.22585 0.9536 0.0
C704 C 0.56632 0.20401 0.96033 0.0
C705 C 0.54091 0.13854 0.98111 0.0
C706 C 0.54846 0.16143 0.97373 0.0
H707 H 0.57981 0.26293 0.9095 0.0
H708 H 0.56008 0.22842 0.92124 0.0
H709 H 0.5625 0.21295 0.99561 0.0
H710 H 0.55325 0.09898 0.02105 0.0
H711 H 0.56432 0.13709 0.0094 0.0
C712 C 0.89938 0.77362 0.44123 0.0
C713 C 0.91229 0.75591 0.43229 0.0
C714 C 0.90963 0.79427 0.44694 0.0
C715 C 0.9651 0.82073 0.4607 0.0
H716 H 0.93323 0.87641 0.44769 0.0
C717 C 0.99228 0.90721 0.4983 0.0
C718 C 0.99017 0.92659 0.48461 0.0
C719 C 0.98404 0.88619 0.49093 0.0
C720 C 0.94249 0.86106 0.45124 0.0
H721 H 0.9462 0.74604 0.42256 0.0
H722 H 0.96404 0.78229 0.43214 0.0
H723 H 0.91647 0.84029 0.43643 0.0
H724 H 0.97829 0.93883 0.4521 0.0
H725 H 0.96422 0.90214 0.43917 0.0
H726 H 0.99127 0.84158 0.47525 0.0
C727 C 0.946 0.78008 0.43494 0.0
C728 C 0.93273 0.84031 0.44504 0.0
C729 C 0.93573 0.75939 0.42921 0.0
C730 C 0.98009 0.92432 0.46316 0.0
C731 C 0.97189 0.90329 0.45578 0.0
C732 C 0.97487 0.84151 0.46691 0.0
C733 C 0.93305 0.79779 0.44381 0.0
C734 C 0.94383 0.81988 0.44983 0.0
C735 C 0.97353 0.88402 0.46968 0.0
C736 C 0.96362 0.86192 0.46236 0.0
H737 H 0.88124 0.77163 0.44357 0.0
H738 H 0.89919 0.80744 0.454 0.0
H739 H 0.97403 0.80531 0.46481 0.0
H740 H 0.99991 0.90831 0.51494 0.0
H741 H 0.98536 0.87176 0.50217 0.0
C742 C 0.45513 0.74001 0.6227 0.0
C743 C 0.43272 0.74769 0.62035 0.0
C744 C 0.46201 0.7201 0.61214 0.0
C745 C 0.43901 0.66704 0.58729 0.0
H746 H 0.49907 0.66269 0.56125 0.0
C747 C 0.46562 0.59019 0.53422 0.0
C748 C 0.48717 0.58111 0.53866 0.0
C749 C 0.45936 0.61093 0.54347 0.0
C750 C 0.48232 0.66359 0.56862 0.0
H751 H 0.39998 0.74028 0.60496 0.0
H752 H 0.41213 0.70597 0.58607 0.0
H753 H 0.48733 0.69812 0.57856 0.0
H754 H 0.5192 0.58708 0.55602 0.0
H755 H 0.50822 0.62331 0.57217 0.0
H756 H 0.43397 0.63255 0.57726 0.0
C757 C 0.42433 0.71516 0.59636 0.0
C758 C 0.47558 0.68388 0.57857 0.0
C759 C 0.41743 0.73504 0.60697 0.0
C760 C 0.50247 0.59354 0.55224 0.0
C761 C 0.49622 0.61436 0.56141 0.0
C762 C 0.44571 0.6468 0.57726 0.0
C763 C 0.44668 0.70736 0.5989 0.0
C764 C 0.45384 0.68586 0.58807 0.0
C765 C 0.4745 0.62318 0.55732 0.0
C766 C 0.46744 0.64482 0.56782 0.0
H767 H 0.46746 0.74946 0.63262 0.0
H768 H 0.47929 0.7145 0.61467 0.0
H769 H 0.42232 0.66777 0.5948 0.0
H770 H 0.4534 0.58116 0.52378 0.0
H771 H 0.44262 0.6174 0.53972 0.0
C772 C 0.94925 0.91367 0.75929 0.0
C773 C 0.93805 0.92781 0.77458 0.0
C774 C 0.95427 0.92119 0.73751 0.0
C775 C 0.96139 0.97273 0.70271 0.0
H776 H 0.95349 0.93048 0.65323 0.0
C777 C 0.97321 0.99856 0.60888 0.0
C778 C 0.98531 0.98334 0.59539 0.0
C779 C 0.9665 0.99245 0.63071 0.0
C780 C 0.95597 0.94243 0.66688 0.0
H781 H 0.92362 0.96113 0.77898 0.0
H782 H 0.93206 0.97415 0.74071 0.0
H783 H 0.94358 0.91877 0.6914 0.0
H784 H 0.99982 0.94971 0.59437 0.0
H785 H 0.98823 0.93918 0.63234 0.0
H786 H 0.97386 0.99637 0.67808 0.0
C787 C 0.93713 0.95729 0.74571 0.0
C788 C 0.95031 0.93571 0.68877 0.0
C789 C 0.9321 0.94975 0.76756 0.0
C790 C 0.99047 0.96186 0.60422 0.0
C791 C 0.98371 0.95575 0.62597 0.0
C792 C 0.96703 0.97947 0.68076 0.0
C793 C 0.94815 0.94302 0.73039 0.0
C794 C 0.9532 0.95068 0.707 0.0
C795 C 0.97165 0.97095 0.63948 0.0
C796 C 0.96462 0.9643 0.66264 0.0
H797 H 0.95382 0.89658 0.76401 0.0
H798 H 0.96305 0.90987 0.72626 0.0
H799 H 0.96403 0.9846 0.7164 0.0
H800 H 0.96894 0.01524 0.60262 0.0
H801 H 0.95705 0.00446 0.64063 0.0
C802 C 0.59779 0.08778 0.26239 0.0
C803 C 0.58161 0.08699 0.27974 0.0
C804 C 0.59246 0.07961 0.24089 0.0
C805 C 0.55292 0.0423 0.20955 0.0
H806 H 0.56944 0.08018 0.15851 0.0
C807 C 0.51906 0.02548 0.11922 0.0
C808 C 0.53377 0.02975 0.10104 0.0
C809 C 0.52538 0.03142 0.14122 0.0
C810 C 0.56499 0.0692 0.17251 0.0
H811 H 0.54737 0.07635 0.2883 0.0
H812 H 0.53801 0.06212 0.25064 0.0
H813 H 0.57976 0.09206 0.19653 0.0
H814 H 0.56695 0.04311 0.09188 0.0
H815 H 0.57812 0.05301 0.13022 0.0
H816 H 0.53824 0.01936 0.18552 0.0
C817 C 0.55484 0.06905 0.25373 0.0
C818 C 0.57088 0.07605 0.19433 0.0
C819 C 0.56013 0.07737 0.27523 0.0
C820 C 0.55511 0.03973 0.10544 0.0
C821 C 0.56147 0.04554 0.12744 0.0
C822 C 0.54714 0.03535 0.18769 0.0
C823 C 0.57086 0.07034 0.23626 0.0
C824 C 0.56488 0.06271 0.21309 0.0
C825 C 0.54661 0.04167 0.14559 0.0
C826 C 0.55306 0.04875 0.16889 0.0
H827 H 0.61442 0.09528 0.26527 0.0
H828 H 0.60524 0.08063 0.22783 0.0
H829 H 0.54827 0.03154 0.22367 0.0
H830 H 0.50246 0.01789 0.11644 0.0
H831 H 0.51337 0.02845 0.15472 0.0
C832 C 0.43005 0.60116 0.27362 0.0
C833 C 0.43861 0.59209 0.25353 0.0
C834 C 0.43435 0.59065 0.29431 0.0
C835 C 0.47498 0.55402 0.32294 0.0
H836 H 0.42721 0.54687 0.36728 0.0
C837 C 0.4913 0.51174 0.4095 0.0
C838 C 0.48104 0.5217 0.42835 0.0
C839 C 0.48529 0.5184 0.38763 0.0
C840 C 0.44081 0.54895 0.35519 0.0
H841 H 0.45832 0.5649 0.23931 0.0
H842 H 0.46601 0.54654 0.27565 0.0
H843 H 0.41826 0.56211 0.33003 0.0
H844 H 0.45632 0.54643 0.43893 0.0
H845 H 0.44626 0.55839 0.40092 0.0
H846 H 0.49769 0.54153 0.34822 0.0
C847 C 0.45596 0.56179 0.27531 0.0
C848 C 0.43564 0.5576 0.33383 0.0
C849 C 0.45143 0.57218 0.25454 0.0
C850 C 0.46449 0.53831 0.42481 0.0
C851 C 0.45861 0.54508 0.40296 0.0
C852 C 0.4802 0.54553 0.34438 0.0
C853 C 0.44747 0.57095 0.2954 0.0
C854 C 0.45271 0.56044 0.31756 0.0
C855 C 0.46899 0.53528 0.38408 0.0
C856 C 0.46322 0.54311 0.36086 0.0
H857 H 0.41993 0.61636 0.27331 0.0
H858 H 0.42777 0.59821 0.30954 0.0
H859 H 0.48853 0.55625 0.31081 0.0
H860 H 0.50401 0.49878 0.41161 0.0
H861 H 0.49339 0.51023 0.37349 0.0
C862 C 0.09815 0.43492 0.76909 0.0
C863 C 0.09222 0.44694 0.74947 0.0
C864 C 0.09083 0.44214 0.79023 0.0
C865 C 0.04735 0.47498 0.81889 0.0
H866 H 0.0919 0.47868 0.86718 0.0
C867 C 0.02579 0.51109 0.907 0.0
C868 C 0.03573 0.50053 0.92586 0.0
C869 C 0.03246 0.50539 0.88512 0.0
C870 C 0.07914 0.47746 0.85401 0.0
H871 H 0.07359 0.47567 0.73653 0.0
H872 H 0.06053 0.4882 0.77362 0.0
H873 H 0.10355 0.46678 0.82973 0.0
H874 H 0.06017 0.47536 0.93645 0.0
H875 H 0.07129 0.465 0.8985 0.0
H876 H 0.02279 0.4851 0.84325 0.0
C877 C 0.07092 0.47323 0.77256 0.0
C878 C 0.08587 0.47072 0.83252 0.0
C879 C 0.0785 0.46616 0.75139 0.0
C880 C 0.05231 0.48401 0.92233 0.0
C881 C 0.05881 0.47816 0.90051 0.0
C882 C 0.04054 0.4815 0.84049 0.0
C883 C 0.07723 0.46141 0.7922 0.0
C884 C 0.07004 0.46926 0.81478 0.0
C885 C 0.04909 0.48885 0.8816 0.0
C886 C 0.05633 0.48267 0.85838 0.0
H887 H 0.10889 0.42018 0.76815 0.0
H888 H 0.09578 0.43259 0.80506 0.0
H889 H 0.03477 0.47384 0.80554 0.0
H890 H 0.01302 0.52396 0.90913 0.0
H891 H 0.02481 0.51419 0.871 0.0
C892 C 0.75051 0.93161 0.93306 0.0
C893 C 0.76835 0.94761 0.93309 0.0
C894 C 0.72948 0.93689 0.94237 0.0
C895 C 0.69413 0.9858 0.95794 0.0
H896 H 0.65866 0.94003 0.98948 0.0
C897 C 0.60921 0.00574 0.00175 0.0
C898 C 0.59119 0.99044 0.99767 0.0
C899 C 0.63131 1.00055 0.99518 0.0
C900 C 0.66832 0.95294 0.98059 0.0
H901 H 0.77833 0.98146 0.94345 0.0
H902 H 0.74172 0.9906 0.96002 0.0
H903 H 0.69657 0.93099 0.97608 0.0
H904 H 0.58239 0.9575 0.98378 0.0
H905 H 0.62096 0.94847 0.9724 0.0
H906 H 0.66585 0.00775 0.96256 0.0
C907 C 0.74381 0.97413 0.95237 0.0
C908 C 0.69003 0.94777 0.97286 0.0
C909 C 0.76481 0.96889 0.94293 0.0
C910 C 0.59585 0.96969 0.98716 0.0
C911 C 0.61797 0.96444 0.98076 0.0
C912 C 0.67249 0.99101 0.9658 0.0
C913 C 0.72581 0.95825 0.95205 0.0
C914 C 0.70314 0.96406 0.96124 0.0
C915 C 0.63592 0.97987 0.98456 0.0
C916 C 0.65927 0.97458 0.97703 0.0
H917 H 0.7526 0.91519 0.9253 0.0
H918 H 0.71593 0.92438 0.94144 0.0
H919 H 0.70356 0.99866 0.94876 0.0
H920 H 0.60626 0.02187 0.00982 0.0
H921 H 0.64483 0.01268 0.99853 0.0
C922 C 0.75891 0.07998 0.45449 0.0
C923 C 0.75284 0.0742 0.43223 0.0
C924 C 0.78076 0.07563 0.46272 0.0
C925 C 0.8392 0.06513 0.44309 0.0
H926 H 0.8486 0.04065 0.50317 0.0
C927 C 0.92438 0.02721 0.47063 0.0
C928 C 0.93252 0.03196 0.49248 0.0
C929 C 0.90253 0.03347 0.4641 0.0
C930 C 0.84627 0.04776 0.48646 0.0
H931 H 0.7651 0.05943 0.40117 0.0
H932 H 0.80286 0.05142 0.41562 0.0
H933 H 0.81017 0.04935 0.49034 0.0
H934 H 0.92391 0.04705 0.52463 0.0
H935 H 0.88568 0.05808 0.51312 0.0
H936 H 0.87519 0.06336 0.43908 0.0
C937 C 0.79086 0.05954 0.42667 0.0
C938 C 0.82426 0.05274 0.47911 0.0
C939 C 0.76907 0.06386 0.41848 0.0
C940 C 0.9182 0.04313 0.50767 0.0
C941 C 0.89625 0.04934 0.50113 0.0
C942 C 0.86115 0.06013 0.45041 0.0
C943 C 0.79704 0.0655 0.44883 0.0
C944 C 0.82045 0.06122 0.45722 0.0
C945 C 0.8882 0.04463 0.47924 0.0
C946 C 0.86493 0.05113 0.47207 0.0
H947 H 0.74675 0.0878 0.46559 0.0
H948 H 0.78502 0.08055 0.47983 0.0
H949 H 0.83693 0.07211 0.42631 0.0
H950 H 0.93485 0.01857 0.45848 0.0
H951 H 0.89673 0.02926 0.44723 0.0
C952 C 0.26799 0.562 0.08343 0.0
C953 C 0.27363 0.58319 0.09279 0.0
C954 C 0.24652 0.55816 0.07391 0.0
C955 C 0.18794 0.57799 0.07688 0.0
H956 H 0.18002 0.54643 0.02005 0.0
C957 C 0.09944 0.56603 0.03654 0.0
C958 C 0.09458 0.54489 0.0267 0.0
C959 C 0.1216 0.57172 0.0431 0.0
C960 C 0.18191 0.55506 0.03606 0.0
H961 H 0.26122 0.61693 0.09952 0.0
H962 H 0.22378 0.61022 0.08287 0.0
H963 H 0.21823 0.55413 0.03443 0.0
H964 H 0.10932 0.51325 0.01578 0.0
H965 H 0.14776 0.52294 0.02768 0.0
H966 H 0.15175 0.57849 0.07892 0.0
C967 C 0.23595 0.5966 0.08291 0.0
C968 C 0.20381 0.5595 0.04425 0.0
C969 C 0.25745 0.60049 0.09224 0.0
C970 C 0.11245 0.52973 0.02323 0.0
C971 C 0.13457 0.53535 0.02995 0.0
C972 C 0.16606 0.57341 0.0688 0.0
C973 C 0.2302 0.57536 0.07378 0.0
C974 C 0.20704 0.57098 0.06477 0.0
C975 C 0.1394 0.55634 0.04015 0.0
C976 C 0.16275 0.56183 0.04831 0.0
H977 H 0.28017 0.5484 0.08349 0.0
H978 H 0.24251 0.54157 0.06713 0.0
H979 H 0.1899 0.58658 0.09291 0.0
H980 H 0.08611 0.57818 0.0393 0.0
H981 H 0.12476 0.5882 0.05052 0.0
C982 C 0.26357 0.41417 0.59254 0.0
C983 C 0.24431 0.41955 0.57963 0.0
C984 C 0.28505 0.42201 0.58614 0.0
C985 C 0.31687 0.44505 0.53705 0.0
H986 H 0.36123 0.46078 0.58315 0.0
C987 C 0.40481 0.4861 0.51793 0.0
C988 C 0.42344 0.47611 0.52889 0.0
C989 C 0.3826 0.47983 0.52368 0.0
C990 C 0.34904 0.45633 0.57011 0.0
H991 H 0.23232 0.43764 0.55012 0.0
H992 H 0.26979 0.4519 0.5392 0.0
H993 H 0.32295 0.44948 0.59417 0.0
H994 H 0.43332 0.45171 0.55449 0.0
H995 H 0.39458 0.44103 0.56467 0.0
H996 H 0.34306 0.45236 0.51301 0.0
C997 C 0.26841 0.44116 0.55398 0.0
C998 C 0.32711 0.44976 0.57639 0.0
C999 C 0.24693 0.43309 0.56027 0.0
C1000 C 0.41937 0.45972 0.54569 0.0
C1001 C 0.39719 0.45369 0.55163 0.0
C1002 C 0.33875 0.45189 0.53076 0.0
C1003 C 0.28778 0.43565 0.5668 0.0
C1004 C 0.3108 0.44375 0.55997 0.0
C1005 C 0.3786 0.4637 0.54071 0.0
C1006 C 0.35511 0.45734 0.54724 0.0
H1007 H 0.26211 0.40345 0.60734 0.0
H1008 H 0.29956 0.41697 0.59617 0.0
H1009 H 0.30491 0.44025 0.52393 0.0
H1010 H 0.40736 0.49875 0.50488 0.0
H1011 H 0.36856 0.48788 0.51508 0.0
C1012 C 0.92296 0.76149 0.92759 0.0
C1013 C 0.92329 0.77892 0.94368 0.0
C1014 C 0.93252 0.74049 0.9325 0.0
C1015 C 0.94963 0.70432 0.98068 0.0
H1016 H 0.98086 0.67054 0.93443 0.0
C1017 C 0.99552 0.62052 0.99988 0.0
C1018 C 0.99139 0.60261 0.98475 0.0
C1019 C 0.98852 0.64247 0.99468 0.0
C1020 C 0.97205 0.67972 0.94747 0.0
H1021 H 0.93445 0.78819 0.97734 0.0
H1022 H 0.95147 0.75164 0.98586 0.0
H1023 H 0.96655 0.70822 0.92582 0.0
H1024 H 0.97706 0.5939 0.95205 0.0
H1025 H 0.96491 0.63224 0.943 0.0
H1026 H 0.95523 0.67581 0.00233 0.0
C1027 C 0.94338 0.75401 0.96959 0.0
C1028 C 0.9638 0.7013 0.94254 0.0
C1029 C 0.93367 0.77498 0.96471 0.0
C1030 C 0.9805 0.60727 0.96411 0.0
C1031 C 0.97364 0.62927 0.95885 0.0
C1032 C 0.958 0.68281 0.98563 0.0
C1033 C 0.94278 0.73644 0.9536 0.0
C1034 C 0.95234 0.71382 0.95904 0.0
C1035 C 0.97738 0.64706 0.97418 0.0
C1036 C 0.96917 0.67021 0.96905 0.0
H1037 H 0.91478 0.76389 0.91135 0.0
H1038 H 0.93138 0.72725 0.91992 0.0
H1039 H 0.94055 0.71327 0.99369 0.0
H1040 H 0.00389 0.61758 0.01592 0.0
H1041 H 0.99187 0.65589 0.00671 0.0
C1042 C 0.42882 0.76692 0.10109 0.0
C1043 C 0.42985 0.74921 0.08537 0.0
C1044 C 0.43781 0.7883 0.09591 0.0
C1045 C 0.4537 0.82428 0.04722 0.0
H1046 H 0.48329 0.86109 0.09305 0.0
C1047 C 0.49539 0.91081 0.02682 0.0
C1048 C 0.49042 0.92865 0.04162 0.0
C1049 C 0.48949 0.8885 0.03234 0.0
C1050 C 0.47493 0.85105 0.08012 0.0
H1051 H 0.44175 0.73977 0.05219 0.0
H1052 H 0.45775 0.77701 0.04323 0.0
H1053 H 0.4707 0.82268 0.10232 0.0
H1054 H 0.47569 0.93688 0.07404 0.0
H1055 H 0.46542 0.89792 0.08363 0.0
H1056 H 0.45797 0.85267 0.02504 0.0
C1057 C 0.44956 0.77454 0.05938 0.0
C1058 C 0.46769 0.82905 0.08542 0.0
C1059 C 0.44044 0.7532 0.06452 0.0
C1060 C 0.47976 0.92358 0.06223 0.0
C1061 C 0.47398 0.90123 0.06781 0.0
C1062 C 0.46106 0.84621 0.0419 0.0
C1063 C 0.44815 0.79242 0.07493 0.0
C1064 C 0.45681 0.81546 0.06908 0.0
C1065 C 0.47862 0.88348 0.05283 0.0
C1066 C 0.4716 0.85989 0.05833 0.0
H1067 H 0.42048 0.76445 0.11717 0.0
H1068 H 0.43609 0.80175 0.10815 0.0
H1069 H 0.44504 0.81445 0.03432 0.0
H1070 H 0.50363 0.91408 0.01082 0.0
H1071 H 0.4935 0.87514 0.02057 0.0
C1072 C 0.05436 0.25455 0.61442 0.0
C1073 C 0.07176 0.26748 0.6043 0.0
C1074 C 0.04906 0.2328 0.60663 0.0
C1075 C 0.05703 0.19407 0.55794 0.0
H1076 H 0.04185 0.14776 0.60209 0.0
C1077 C 0.05172 0.0986 0.53642 0.0
C1078 C 0.03268 0.08666 0.54467 0.0
C1079 C 0.05629 0.12078 0.54345 0.0
C1080 C 0.04588 0.16056 0.58955 0.0
H1081 H 0.09681 0.26771 0.57756 0.0
H1082 H 0.08819 0.22953 0.56458 0.0
H1083 H 0.05008 0.18627 0.61458 0.0
H1084 H 0.00366 0.08866 0.56697 0.0
H1085 H 0.01182 0.12727 0.57938 0.0
H1086 H 0.05326 0.16808 0.53299 0.0
C1087 C 0.07835 0.23633 0.57833 0.0
C1088 C 0.05052 0.18268 0.59668 0.0
C1089 C 0.08353 0.25816 0.58599 0.0
C1090 C 0.01846 0.09735 0.56027 0.0
C1091 C 0.02318 0.11943 0.56747 0.0
C1092 C 0.05261 0.17189 0.55085 0.0
C1093 C 0.06115 0.22329 0.58864 0.0
C1094 C 0.0561 0.19975 0.58097 0.0
C1095 C 0.04208 0.13141 0.55907 0.0
C1096 C 0.04694 0.15492 0.56658 0.0
H1097 H 0.04509 0.261 0.62872 0.0
H1098 H 0.03545 0.22344 0.61477 0.0
H1099 H 0.0609 0.20682 0.54532 0.0
H1100 H 0.06301 0.0909 0.52436 0.0
H1101 H 0.0711 0.12954 0.53685 0.0
C1102 C 0.58269 0.24556 0.46728 0.0
C1103 C 0.59288 0.24172 0.44627 0.0
C1104 C 0.57288 0.26646 0.47206 0.0
C1105 C 0.5519 0.31916 0.44482 0.0
H1106 H 0.56114 0.34457 0.50447 0.0
C1107 C 0.53552 0.4132 0.46596 0.0
C1108 C 0.525 0.41789 0.48666 0.0
C1109 C 0.54221 0.39117 0.46077 0.0
C1110 C 0.55818 0.33759 0.48781 0.0
H1111 H 0.6009 0.25684 0.41385 0.0
H1112 H 0.58411 0.29334 0.42224 0.0
H1113 H 0.57577 0.30715 0.49598 0.0
H1114 H 0.51293 0.40292 0.51796 0.0
H1115 H 0.52465 0.36457 0.50887 0.0
H1116 H 0.53471 0.34992 0.43658 0.0
C1117 C 0.58321 0.28009 0.43489 0.0
C1118 C 0.56652 0.3161 0.48294 0.0
C1119 C 0.59288 0.25916 0.43007 0.0
C1120 C 0.52103 0.39996 0.50188 0.0
C1121 C 0.52785 0.37799 0.49675 0.0
C1122 C 0.54368 0.34073 0.44966 0.0
C1123 C 0.57317 0.28406 0.45598 0.0
C1124 C 0.56359 0.30664 0.46135 0.0
C1125 C 0.53867 0.37337 0.47621 0.0
C1126 C 0.5468 0.35021 0.47119 0.0
H1127 H 0.58217 0.23235 0.47999 0.0
H1128 H 0.56496 0.26876 0.48833 0.0
H1129 H 0.54898 0.31226 0.42813 0.0
H1130 H 0.53883 0.42657 0.45383 0.0
H1131 H 0.55069 0.38819 0.44489 0.0
loop_
_geom_bond_atom_site_label_1
_geom_bond_atom_site_label_2
_geom_bond_distance
_geom_bond_site_symmetry_2
_ccdc_geom_bond_type
C0 C1 1.264 . S
C0 C5 1.479 . S
C0 C10 1.465 . S
C1 C0 1.264 . S
C1 C3 1.339 . S
C1 H28 0.931 . S
C2 C3 1.395 . S
C2 C4 1.320 . S
C3 C1 1.339 . S
C3 C2 1.395 . S
C3 H29 0.929 . S
C4 C2 1.320 . S
C4 C5 1.405 . S
C4 H30 0.930 . S
C5 C0 1.479 . S
C5 C4 1.405 . S
C5 H31 0.931 . S
U6 O7 2.454 . S
U6 O8 2.458 . S
U6 C9 2.984 . S
U6 C10 2.847 . S
U6 C23 2.882 . S
U6 O24 2.441 . S
U6 O25 2.420 . S
U6 O26 2.455 . S
U6 O27 2.449 . S
O7 U6 2.454 . S
O7 C9 1.353 . S
O8 U6 2.458 . S
O8 C9 1.286 . S
C9 U6 2.984 . S
C9 O7 1.353 . S
C9 O8 1.286 . S
C9 C11 1.363 . S
C10 C0 1.465 . S
C10 U6 2.847 . S
C10 O24 1.249 . S
C10 O25 1.202 . S
C11 C9 1.363 . S
C11 C13 1.408 . S
C11 C16 1.342 . S
C12 C13 1.310 . S
C12 C15 1.461 . S
C12 H32 0.932 . S
C13 C11 1.408 . S
C13 C12 1.310 . S
C13 H33 0.930 . S
C14 C15 1.474 . S
C14 C16 1.285 . S
C14 H34 0.929 . S
C15 C12 1.461 . S
C15 C14 1.474 . S
C16 C11 1.342 . S
C16 C14 1.285 . S
C16 H35 0.930 . S
C17 C20 1.424 . S
C17 C22 1.245 . S
C17 C23 1.428 . S
C18 C21 1.260 . S
C18 C22 1.477 . S
C18 H36 0.932 . S
C19 C20 1.384 . S
C19 C21 1.479 . S
C19 H37 0.929 . S
C20 C17 1.424 . S
C20 C19 1.384 . S
C20 H38 0.928 . S
C21 C18 1.260 . S
C21 C19 1.479 . S
C22 C17 1.245 . S
C22 C18 1.477 . S
C22 H39 0.932 . S
C23 U6 2.882 . S
C23 C17 1.428 . S
C23 O26 1.301 . S
C23 O27 1.282 . S
O24 U6 2.441 . S
O24 C10 1.249 . S
O25 U6 2.420 . S
O25 C10 1.202 . S
O26 U6 2.455 . S
O26 C23 1.301 . S
O27 U6 2.449 . S
O27 C23 1.282 . S
H28 C1 0.931 . S
H29 C3 0.929 . S
H30 C4 0.930 . S
H31 C5 0.931 . S
H32 C12 0.932 . S
H33 C13 0.930 . S
H34 C14 0.929 . S
H35 C16 0.930 . S
H36 C18 0.932 . S
H37 C19 0.929 . S
H38 C20 0.928 . S
H39 C22 0.932 . S
C40 C41 1.264 . S
C40 C45 1.479 . S
C40 C50 1.465 . S
C41 C40 1.264 . S
C41 C43 1.339 . S
C41 H68 0.931 . S
C42 C43 1.395 . S
C42 C44 1.320 . S
C43 C41 1.339 . S
C43 C42 1.395 . S
C43 H69 0.929 . S
C44 C42 1.320 . S
C44 C45 1.405 . S
C44 H70 0.930 . S
C45 C40 1.479 . S
C45 C44 1.405 . S
C45 H71 0.931 . S
U46 O47 2.454 . S
U46 O48 2.458 . S
U46 C49 2.984 . S
U46 C50 2.847 . S
U46 C63 2.882 . S
U46 O64 2.441 . S
U46 O65 2.420 . S
U46 O66 2.455 . S
U46 O67 2.449 . S
O47 U46 2.454 . S
O47 C49 1.353 . S
O48 U46 2.458 . S
O48 C49 1.286 . S
C49 U46 2.984 . S
C49 O47 1.353 . S
C49 O48 1.286 . S
C49 C51 1.363 . S
C50 C40 1.465 . S
C50 U46 2.847 . S
C50 O64 1.249 . S
C50 O65 1.202 . S
C51 C49 1.363 . S
C51 C53 1.408 . S
C51 C56 1.342 . S
C52 C53 1.310 . S
C52 C55 1.461 . S
C52 H72 0.932 . S
C53 C51 1.408 . S
C53 C52 1.310 . S
C53 H73 0.930 . S
C54 C55 1.474 . S
C54 C56 1.285 . S
C54 H74 0.929 . S
C55 C52 1.461 . S
C55 C54 1.474 . S
C56 C51 1.342 . S
C56 C54 1.285 . S
C56 H75 0.930 . S
C57 C60 1.424 . S
C57 C62 1.245 . S
C57 C63 1.428 . S
C58 C61 1.260 . S
C58 C62 1.477 . S
C58 H76 0.932 . S
C59 C60 1.384 . S
C59 C61 1.479 . S
C59 H77 0.929 . S
C60 C57 1.424 . S
C60 C59 1.384 . S
C60 H78 0.928 . S
C61 C58 1.260 . S
C61 C59 1.479 . S
C62 C57 1.245 . S
C62 C58 1.477 . S
C62 H79 0.932 . S
C63 U46 2.882 . S
C63 C57 1.428 . S
C63 O66 1.301 . S
C63 O67 1.282 . S
O64 U46 2.441 . S
O64 C50 1.249 . S
O65 U46 2.420 . S
O65 C50 1.202 . S
O66 U46 2.455 . S
O66 C63 1.301 . S
O67 U46 2.449 . S
O67 C63 1.282 . S
H68 C41 0.931 . S
H69 C43 0.929 . S
H70 C44 0.930 . S
H71 C45 0.931 . S
H72 C52 0.932 . S
H73 C53 0.930 . S
H74 C54 0.929 . S
H75 C56 0.930 . S
H76 C58 0.932 . S
H77 C59 0.929 . S
H78 C60 0.928 . S
H79 C62 0.932 . S
C80 C81 1.264 . S
C80 C85 1.479 . S
C80 C90 1.465 . S
C81 C80 1.264 . S
C81 C83 1.339 . S
C81 H108 0.931 . S
C82 C83 1.395 . S
C82 C84 1.320 . S
C83 C81 1.339 . S
C83 C82 1.395 . S
C83 H109 0.929 . S
C84 C82 1.320 . S
C84 C85 1.405 . S
C84 H110 0.930 . S
C85 C80 1.479 . S
C85 C84 1.405 . S
C85 H111 0.931 . S
U86 O87 2.454 . S
U86 O88 2.458 . S
U86 C89 2.984 . S
U86 C90 2.847 . S
U86 C103 2.882 . S
U86 O104 2.441 . S
U86 O105 2.420 . S
U86 O106 2.455 . S
U86 O107 2.449 . S
O87 U86 2.454 . S
O87 C89 1.353 . S
O88 U86 2.458 . S
O88 C89 1.286 . S
C89 U86 2.984 . S
C89 O87 1.353 . S
C89 O88 1.286 . S
C89 C91 1.363 . S
C90 C80 1.465 . S
C90 U86 2.847 . S
C90 O104 1.249 . S
C90 O105 1.202 . S
C91 C89 1.363 . S
C91 C93 1.408 . S
C91 C96 1.342 . S
C92 C93 1.310 . S
C92 C95 1.461 . S
C92 H112 0.932 . S
C93 C91 1.408 . S
C93 C92 1.310 . S
C93 H113 0.930 . S
C94 C95 1.474 . S
C94 C96 1.285 . S
C94 H114 0.929 . S
C95 C92 1.461 . S
C95 C94 1.474 . S
C96 C91 1.342 . S
C96 C94 1.285 . S
C96 H115 0.930 . S
C97 C100 1.424 . S
C97 C102 1.245 . S
C97 C103 1.428 . S
C98 C101 1.260 . S
C98 C102 1.477 . S
C98 H116 0.932 . S
C99 C100 1.384 . S
C99 C101 1.479 . S
C99 H117 0.929 . S
C100 C97 1.424 . S
C100 C99 1.384 . S
C100 H118 0.928 . S
C101 C98 1.260 . S
C101 C99 1.479 . S
C102 C97 1.245 . S
C102 C98 1.477 . S
C102 H119 0.932 . S
C103 U86 2.882 . S
C103 C97 1.428 . S
C103 O106 1.301 . S
C103 O107 1.282 . S
O104 U86 2.441 . S
O104 C90 1.249 . S
O105 U86 2.420 . S
O105 C90 1.202 . S
O106 U86 2.455 . S
O106 C103 1.301 . S
O107 U86 2.449 . S
O107 C103 1.282 . S
H108 C81 0.931 . S
H109 C83 0.929 . S
H110 C84 0.930 . S
H111 C85 0.931 . S
H112 C92 0.932 . S
H113 C93 0.930 . S
H114 C94 0.929 . S
H115 C96 0.930 . S
H116 C98 0.932 . S
H117 C99 0.929 . S
H118 C100 0.928 . S
H119 C102 0.932 . S
C120 C121 1.264 . S
C120 C125 1.479 . S
C120 C130 1.465 . S
C121 C120 1.264 . S
C121 C123 1.339 . S
C121 H148 0.931 . S
C122 C123 1.395 . S
C122 C124 1.320 . S
C123 C121 1.339 . S
C123 C122 1.395 . S
C123 H149 0.929 . S
C124 C122 1.320 . S
C124 C125 1.405 . S
C124 H150 0.930 . S
C125 C120 1.479 . S
C125 C124 1.405 . S
C125 H151 0.931 . S
U126 O127 2.454 . S
U126 O128 2.458 . S
U126 C129 2.984 . S
U126 C130 2.847 . S
U126 C143 2.882 . S
U126 O144 2.441 . S
U126 O145 2.420 . S
U126 O146 2.455 . S
U126 O147 2.449 . S
O127 U126 2.454 . S
O127 C129 1.353 . S
O128 U126 2.458 . S
O128 C129 1.286 . S
C129 U126 2.984 . S
C129 O127 1.353 . S
C129 O128 1.286 . S
C129 C131 1.363 . S
C130 C120 1.465 . S
C130 U126 2.847 . S
C130 O144 1.249 . S
C130 O145 1.202 . S
C131 C129 1.363 . S
C131 C133 1.408 . S
C131 C136 1.342 . S
C132 C133 1.310 . S
C132 C135 1.461 . S
C132 H152 0.932 . S
C133 C131 1.408 . S
C133 C132 1.310 . S
C133 H153 0.930 . S
C134 C135 1.474 . S
C134 C136 1.285 . S
C134 H154 0.929 . S
C135 C132 1.461 . S
C135 C134 1.474 . S
C136 C131 1.342 . S
C136 C134 1.285 . S
C136 H155 0.930 . S
C137 C140 1.424 . S
C137 C142 1.245 . S
C137 C143 1.428 . S
C138 C141 1.260 . S
C138 C142 1.477 . S
C138 H156 0.932 . S
C139 C140 1.384 . S
C139 C141 1.479 . S
C139 H157 0.929 . S
C140 C137 1.424 . S
C140 C139 1.384 . S
C140 H158 0.928 . S
C141 C138 1.260 . S
C141 C139 1.479 . S
C142 C137 1.245 . S
C142 C138 1.477 . S
C142 H159 0.932 . S
C143 U126 2.882 . S
C143 C137 1.428 . S
C143 O146 1.301 . S
C143 O147 1.282 . S
O144 U126 2.441 . S
O144 C130 1.249 . S
O145 U126 2.420 . S
O145 C130 1.202 . S
O146 U126 2.455 . S
O146 C143 1.301 . S
O147 U126 2.449 . S
O147 C143 1.282 . S
H148 C121 0.931 . S
H149 C123 0.929 . S
H150 C124 0.930 . S
H151 C125 0.931 . S
H152 C132 0.932 . S
H153 C133 0.930 . S
H154 C134 0.929 . S
H155 C136 0.930 . S
H156 C138 0.932 . S
H157 C139 0.929 . S
H158 C140 0.928 . S
H159 C142 0.932 . S
C160 C161 1.264 . S
C160 C165 1.479 . S
C160 C170 1.465 . S
C161 C160 1.264 . S
C161 C163 1.339 . S
C161 H188 0.931 . S
C162 C163 1.395 . S
C162 C164 1.320 . S
C163 C161 1.339 . S
C163 C162 1.395 . S
C163 H189 0.929 . S
C164 C162 1.320 . S
C164 C165 1.405 . S
C164 H190 0.930 . S
C165 C160 1.479 . S
C165 C164 1.405 . S
C165 H191 0.931 . S
U166 O167 2.454 . S
U166 O168 2.458 . S
U166 C169 2.984 . S
U166 C170 2.847 . S
U166 C183 2.882 . S
U166 O184 2.441 . S
U166 O185 2.420 . S
U166 O186 2.455 . S
U166 O187 2.449 . S
O167 U166 2.454 . S
O167 C169 1.353 . S
O168 U166 2.458 . S
O168 C169 1.286 . S
C169 U166 2.984 . S
C169 O167 1.353 . S
C169 O168 1.286 . S
C169 C171 1.363 . S
C170 C160 1.465 . S
C170 U166 2.847 . S
C170 O184 1.249 . S
C170 O185 1.202 . S
C171 C169 1.363 . S
C171 C173 1.408 . S
C171 C176 1.342 . S
C172 C173 1.310 . S
C172 C175 1.461 . S
C172 H192 0.932 . S
C173 C171 1.408 . S
C173 C172 1.310 . S
C173 H193 0.930 . S
C174 C175 1.474 . S
C174 C176 1.285 . S
C174 H194 0.962 . S
C175 C172 1.461 . S
C175 C174 1.474 . S
C176 C171 1.342 . S
C176 C174 1.285 . S
C176 H195 0.930 . S
C177 C180 1.424 . S
C177 C182 1.245 . S
C177 C183 1.428 . S
C178 C181 1.260 . S
C178 C182 1.477 . S
C178 H196 0.932 . S
C179 C180 1.384 . S
C179 C181 1.479 . S
C179 H197 0.929 . S
C180 C177 1.424 . S
C180 C179 1.384 . S
C180 H198 0.928 . S
C181 C178 1.260 . S
C181 C179 1.479 . S
C182 C177 1.245 . S
C182 C178 1.477 . S
C182 H199 0.932 . S
C183 U166 2.882 . S
C183 C177 1.428 . S
C183 O186 1.301 . S
C183 O187 1.282 . S
O184 U166 2.441 . S
O184 C170 1.249 . S
O185 U166 2.420 . S
O185 C170 1.202 . S
O186 U166 2.455 . S
O186 C183 1.301 . S
O187 U166 2.449 . S
O187 C183 1.282 . S
H188 C161 0.931 . S
H189 C163 0.929 . S
H190 C164 0.930 . S
H191 C165 0.931 . S
H192 C172 0.932 . S
H193 C173 0.930 . S
H194 C174 0.962 . S
H195 C176 0.930 . S
H196 C178 0.932 . S
H197 C179 0.929 . S
H198 C180 0.928 . S
H199 C182 0.932 . S
C200 C201 1.264 . S
C200 C205 1.479 . S
C200 C210 1.465 . S
C201 C200 1.264 . S
C201 C203 1.339 . S
C201 H228 0.931 . S
C202 C203 1.395 . S
C202 C204 1.320 . S
C203 C201 1.339 . S
C203 C202 1.395 . S
C203 H229 0.929 . S
C204 C202 1.320 . S
C204 C205 1.405 . S
C204 H230 0.930 . S
C205 C200 1.479 . S
C205 C204 1.405 . S
C205 H231 0.931 . S
U206 O207 2.454 . S
U206 O208 2.458 . S
U206 C209 2.984 . S
U206 C210 2.847 . S
U206 C223 2.882 . S
U206 O224 2.441 . S
U206 O225 2.420 . S
U206 O226 2.455 . S
U206 O227 2.449 . S
O207 U206 2.454 . S
O207 C209 1.353 . S
O208 U206 2.458 . S
O208 C209 1.286 . S
C209 U206 2.984 . S
C209 O207 1.353 . S
C209 O208 1.286 . S
C209 C211 1.363 . S
C210 C200 1.465 . S
C210 U206 2.847 . S
C210 O224 1.249 . S
C210 O225 1.202 . S
C211 C209 1.363 . S
C211 C213 1.408 . S
C211 C216 1.342 . S
C212 C213 1.310 . S
C212 C215 1.461 . S
C212 H232 0.932 . S
C213 C211 1.408 . S
C213 C212 1.310 . S
C213 H233 0.930 . S
C214 C215 1.474 . S
C214 C216 1.285 . S
C214 H234 0.929 . S
C215 C212 1.461 . S
C215 C214 1.474 . S
C216 C211 1.342 . S
C216 C214 1.285 . S
C216 H235 0.930 . S
C217 C220 1.424 . S
C217 C222 1.245 . S
C217 C223 1.428 . S
C218 C221 1.260 . S
C218 C222 1.477 . S
C218 H236 0.932 . S
C219 C220 1.384 . S
C219 C221 1.479 . S
C219 H237 0.929 . S
C220 C217 1.424 . S
C220 C219 1.384 . S
C220 H238 0.928 . S
C221 C218 1.260 . S
C221 C219 1.479 . S
C222 C217 1.245 . S
C222 C218 1.477 . S
C222 H239 0.932 . S
C223 U206 2.882 . S
C223 C217 1.428 . S
C223 O226 1.301 . S
C223 O227 1.282 . S
O224 U206 2.441 . S
O224 C210 1.249 . S
O225 U206 2.420 . S
O225 C210 1.202 . S
O226 U206 2.455 . S
O226 C223 1.301 . S
O227 U206 2.449 . S
O227 C223 1.282 . S
H228 C201 0.931 . S
H229 C203 0.929 . S
H230 C204 0.930 . S
H231 C205 0.931 . S
H232 C212 0.932 . S
H233 C213 0.930 . S
H234 C214 0.929 . S
H235 C216 0.930 . S
H236 C218 0.932 . S
H237 C219 0.929 . S
H238 C220 0.928 . S
H239 C222 0.932 . S
C240 C241 1.264 . S
C240 C245 1.479 . S
C240 C250 1.465 . S
C241 C240 1.264 . S
C241 C243 1.339 . S
C241 H268 0.931 . S
C242 C243 1.395 . S
C242 C244 1.320 . S
C243 C241 1.339 . S
C243 C242 1.395 . S
C243 H269 0.929 . S
C244 C242 1.320 . S
C244 C245 1.405 . S
C244 H270 0.930 . S
C245 C240 1.479 . S
C245 C244 1.405 . S
C245 H271 0.931 . S
U246 O247 2.454 . S
U246 O248 2.458 . S
U246 C249 2.984 . S
U246 C250 2.847 . S
U246 C263 2.882 . S
U246 O264 2.441 . S
U246 O265 2.420 . S
U246 O266 2.455 . S
U246 O267 2.449 . S
O247 U246 2.454 . S
O247 C249 1.353 . S
O248 U246 2.458 . S
O248 C249 1.286 . S
C249 U246 2.984 . S
C249 O247 1.353 . S
C249 O248 1.286 . S
C249 C251 1.363 . S
C250 C240 1.465 . S
C250 U246 2.847 . S
C250 O264 1.249 . S
C250 O265 1.202 . S
C251 C249 1.363 . S
C251 C253 1.408 . S
C251 C256 1.342 . S
C252 C253 1.310 . S
C252 C255 1.461 . S
C252 H272 0.932 . S
C253 C251 1.408 . S
C253 C252 1.310 . S
C253 H273 0.930 . S
C254 C255 1.474 . S
C254 C256 1.285 . S
C254 H274 0.929 . S
C255 C252 1.461 . S
C255 C254 1.474 . S
C256 C251 1.342 . S
C256 C254 1.285 . S
C256 H275 0.930 . S
C257 C260 1.424 . S
C257 C262 1.245 . S
C257 C263 1.428 . S
C258 C261 1.260 . S
C258 C262 1.477 . S
C258 H276 0.932 . S
C259 C260 1.384 . S
C259 C261 1.479 . S
C259 H277 0.929 . S
C260 C257 1.424 . S
C260 C259 1.384 . S
C260 H278 0.928 . S
C261 C258 1.260 . S
C261 C259 1.479 . S
C262 C257 1.245 . S
C262 C258 1.477 . S
C262 H279 0.932 . S
C263 U246 2.882 . S
C263 C257 1.428 . S
C263 O266 1.301 . S
C263 O267 1.282 . S
O264 U246 2.441 . S
O264 C250 1.249 . S
O265 U246 2.420 . S
O265 C250 1.202 . S
O266 U246 2.455 . S
O266 C263 1.301 . S
O267 U246 2.449 . S
O267 C263 1.282 . S
H268 C241 0.931 . S
H269 C243 0.929 . S
H270 C244 0.930 . S
H271 C245 0.931 . S
H272 C252 0.932 . S
H273 C253 0.930 . S
H274 C254 0.929 . S
H275 C256 0.930 . S
H276 C258 0.932 . S
H277 C259 0.929 . S
H278 C260 0.928 . S
H279 C262 0.932 . S
C280 C281 1.264 . S
C280 C285 1.479 . S
C280 C290 1.465 . S
C281 C280 1.264 . S
C281 C283 1.339 . S
C281 H308 0.931 . S
C282 C283 1.395 . S
C282 C284 1.320 . S
C283 C281 1.339 . S
C283 C282 1.395 . S
C283 H309 0.929 . S
C284 C282 1.320 . S
C284 C285 1.405 . S
C284 H310 0.930 . S
C285 C280 1.479 . S
C285 C284 1.405 . S
C285 H311 0.931 . S
U286 O287 2.454 . S
U286 O288 2.458 . S
U286 C289 2.984 . S
U286 C290 2.847 . S
U286 C303 2.882 . S
U286 O304 2.441 . S
U286 O305 2.420 . S
U286 O306 2.455 . S
U286 O307 2.449 . S
O287 U286 2.454 . S
O287 C289 1.353 . S
O288 U286 2.458 . S
O288 C289 1.286 . S
C289 U286 2.984 . S
C289 O287 1.353 . S
C289 O288 1.286 . S
C289 C291 1.363 . S
C290 C280 1.465 . S
C290 U286 2.847 . S
C290 O304 1.249 . S
C290 O305 1.202 . S
C291 C289 1.363 . S
C291 C293 1.408 . S
C291 C296 1.342 . S
C292 C293 1.310 . S
C292 C295 1.461 . S
C292 H312 0.932 . S
C293 C291 1.408 . S
C293 C292 1.310 . S
C293 H313 0.930 . S
C294 C295 1.474 . S
C294 C296 1.285 . S
C294 H314 0.929 . S
C295 C292 1.461 . S
C295 C294 1.474 . S
C296 C291 1.342 . S
C296 C294 1.285 . S
C296 H315 0.930 . S
C297 C300 1.424 . S
C297 C302 1.245 . S
C297 C303 1.428 . S
C298 C301 1.260 . S
C298 C302 1.477 . S
C298 H316 0.932 . S
C299 C300 1.384 . S
C299 C301 1.479 . S
C299 H317 0.929 . S
C300 C297 1.424 . S
C300 C299 1.384 . S
C300 H318 0.928 . S
C301 C298 1.260 . S
C301 C299 1.479 . S
C302 C297 1.245 . S
C302 C298 1.477 . S
C302 H319 0.932 . S
C303 U286 2.882 . S
C303 C297 1.428 . S
C303 O306 1.301 . S
C303 O307 1.282 . S
O304 U286 2.441 . S
O304 C290 1.249 . S
O305 U286 2.420 . S
O305 C290 1.202 . S
O306 U286 2.455 . S
O306 C303 1.301 . S
O307 U286 2.449 . S
O307 C303 1.282 . S
H308 C281 0.931 . S
H309 C283 0.929 . S
H310 C284 0.930 . S
H311 C285 0.931 . S
H312 C292 0.932 . S
H313 C293 0.930 . S
H314 C294 0.929 . S
H315 C296 0.930 . S
H316 C298 0.932 . S
H317 C299 0.929 . S
H318 C300 0.928 . S
H319 C302 0.932 . S
O320 Zn321 1.940 1_455 S
O320 C336 1.256 . S
Zn321 O320 1.940 1_655 S
Zn321 O322 1.949 1_655 S
Zn321 O328 1.919 . S
Zn321 O333 1.924 . S
O322 Zn321 1.949 1_455 S
O322 Zn323 1.920 1_445 S
O322 Zn324 1.950 . S
O322 Zn325 1.945 1_545 S
Zn323 O322 1.920 1_665 S
Zn323 O326 1.944 . S
Zn323 O329 1.937 1_565 S
Zn323 O330 1.962 1_665 S
Zn324 O322 1.950 . S
Zn324 O331 1.938 . S
Zn324 O332 1.906 . S
Zn324 O342 1.953 . S
Zn325 O322 1.945 1_565 S
Zn325 O327 1.928 1_455 S
Zn325 O334 1.977 . S
Zn325 O335 1.910 1_455 S
O326 Zn323 1.944 . S
O326 C337 1.226 . S
O327 Zn325 1.928 1_655 S
O327 C337 1.312 . S
O328 Zn321 1.919 . S
O328 C339 1.253 . S
O329 Zn323 1.937 1_545 S
O329 C339 1.283 . S
O330 Zn323 1.962 1_445 S
O330 C338 1.303 . S
O331 Zn324 1.938 . S
O331 C338 1.247 . S
O332 Zn324 1.906 . S
O332 C340 1.304 1_545 S
O333 Zn321 1.924 . S
O333 C341 1.311 . S
O334 Zn325 1.977 . S
O334 C340 1.272 . S
O335 Zn325 1.910 1_655 S
O335 C341 1.231 1_565 S
C336 O320 1.256 . S
C336 O342 1.298 . S
C337 O326 1.226 . S
C337 O327 1.312 . S
C338 O330 1.303 . S
C338 O331 1.247 . S
C339 O328 1.253 . S
C339 O329 1.283 . S
C340 O332 1.304 1_565 S
C340 O334 1.272 . S
C341 O333 1.311 . S
C341 O335 1.231 1_545 S
O342 Zn324 1.953 . S
O342 C336 1.298 . S
O343 Zn344 1.953 . S
O343 C359 1.202 1_556 S
Zn344 O343 1.953 . S
Zn344 O345 1.949 1_556 S
Zn344 O351 1.919 . S
Zn344 O356 1.924 1_556 S
O345 Zn344 1.949 1_554 S
O345 Zn346 1.923 1_545 S
O345 Zn347 1.950 . S
O345 Zn348 1.935 1_545 S
Zn346 O345 1.923 1_565 S
Zn346 O349 1.933 . S
Zn346 O352 1.941 1_554 S
Zn346 O353 1.965 . S
Zn347 O345 1.950 . S
Zn347 O354 1.938 . S
Zn347 O355 1.906 . S
Zn347 O365 1.953 . S
Zn348 O345 1.935 1_565 S
Zn348 O350 1.979 . S
Zn348 O357 1.964 1_565 S
Zn348 O358 1.885 1_565 S
O349 Zn346 1.933 . S
O349 C360 1.226 . S
O350 Zn348 1.979 . S
O350 C360 1.307 . S
O351 Zn344 1.919 . S
O351 C362 1.253 1_545 S
O352 Zn346 1.941 1_556 S
O352 C362 1.283 . S
O353 Zn346 1.965 . S
O353 C361 1.303 . S
O354 Zn347 1.938 . S
O354 C361 1.247 1_545 S
O355 Zn347 1.906 . S
O355 C363 1.304 . S
O356 Zn344 1.924 1_554 S
O356 C364 1.311 . S
O357 Zn348 1.964 1_545 S
O357 C363 1.272 . S
O358 Zn348 1.885 1_545 S
O358 C364 1.231 . S
C359 O343 1.202 1_554 S
C359 O365 1.336 . S
C360 O349 1.226 . S
C360 O350 1.307 . S
C361 O353 1.303 . S
C361 O354 1.247 1_565 S
C362 O351 1.253 1_565 S
C362 O352 1.283 . S
C363 O355 1.304 . S
C363 O357 1.272 . S
C364 O356 1.311 . S
C364 O358 1.231 . S
O365 Zn347 1.953 . S
O365 C359 1.336 . S
O366 Zn367 1.953 . S
O366 C382 1.225 . S
Zn367 O366 1.953 . S
Zn367 O368 1.949 . S
Zn367 O374 1.919 . S
Zn367 O379 1.924 . S
O368 Zn367 1.949 . S
O368 Zn369 1.923 . S
O368 Zn370 1.950 . S
O368 Zn371 1.945 . S
Zn369 O368 1.923 . S
Zn369 O372 1.933 . S
Zn369 O375 1.941 . S
Zn369 O376 1.965 . S
Zn370 O368 1.950 . S
Zn370 O377 1.938 . S
Zn370 O378 1.906 . S
Zn370 O388 1.953 . S
Zn371 O368 1.945 . S
Zn371 O373 1.932 . S
Zn371 O380 1.977 . S
Zn371 O381 1.910 . S
O372 Zn369 1.933 . S
O372 C383 1.226 . S
O373 Zn371 1.932 . S
O373 C383 1.307 . S
O374 Zn367 1.919 . S
O374 C385 1.253 . S
O375 Zn369 1.941 . S
O375 C385 1.283 . S
O376 Zn369 1.965 . S
O376 C384 1.303 . S
O377 Zn370 1.938 . S
O377 C384 1.247 . S
O378 Zn370 1.906 . S
O378 C386 1.304 . S
O379 Zn367 1.924 . S
O379 C387 1.311 . S
O380 Zn371 1.977 . S
O380 C386 1.272 . S
O381 Zn371 1.910 . S
O381 C387 1.231 . S
C382 O366 1.225 . S
C382 O388 1.298 . S
C383 O372 1.226 . S
C383 O373 1.307 . S
C384 O376 1.303 . S
C384 O377 1.247 . S
C385 O374 1.253 . S
C385 O375 1.283 . S
C386 O378 1.304 . S
C386 O380 1.272 . S
C387 O379 1.311 . S
C387 O381 1.231 . S
O388 Zn370 1.953 . S
O388 C382 1.298 . S
O389 Zn390 1.953 . S
O389 C405 1.225 . S
Zn390 O389 1.953 . S
Zn390 O391 1.949 1_655 S
Zn390 O397 1.919 . S
Zn390 O402 1.919 1_655 S
O391 Zn390 1.949 1_455 S
O391 Zn392 1.923 1_454 S
O391 Zn393 1.950 . S
O391 Zn394 1.945 1_554 S
Zn392 O391 1.923 1_656 S
Zn392 O395 1.933 1_655 S
Zn392 O398 1.941 . S
Zn392 O399 1.965 . S
Zn393 O391 1.950 . S
Zn393 O400 1.938 . S
Zn393 O401 1.906 . S
Zn393 O411 1.953 . S
Zn394 O391 1.945 1_556 S
Zn394 O396 1.932 . S
Zn394 O403 1.977 1_556 S
Zn394 O404 1.910 1_556 S
O395 Zn392 1.933 1_455 S
O395 C406 1.226 . S
O396 Zn394 1.932 . S
O396 C406 1.307 . S
O397 Zn390 1.919 . S
O397 C408 1.253 1_554 S
O398 Zn392 1.941 . S
O398 C408 1.283 . S
O399 Zn392 1.965 . S
O399 C407 1.303 . S
O400 Zn393 1.938 . S
O400 C407 1.247 1_454 S
O401 Zn393 1.906 . S
O401 C409 1.304 . S
O402 Zn390 1.919 1_455 S
O402 C410 1.324 . S
O403 Zn394 1.977 1_554 S
O403 C409 1.272 . S
O404 Zn394 1.910 1_554 S
O404 C410 1.231 . S
C405 O389 1.225 . S
C405 O411 1.298 1_655 S
C406 O395 1.226 . S
C406 O396 1.307 . S
C407 O399 1.303 . S
C407 O400 1.247 1_656 S
C408 O397 1.253 1_556 S
C408 O398 1.283 . S
C409 O401 1.304 . S
C409 O403 1.272 . S
C410 O402 1.324 . S
C410 O404 1.231 . S
O411 Zn393 1.953 . S
O411 C405 1.298 1_455 S
C412 C413 1.349 . S
C412 C414 1.327 . S
C412 H437 0.950 . S
C413 C412 1.349 . S
C413 C429 1.349 . S
C414 C412 1.327 . S
C414 C433 1.429 . S
C414 H438 0.950 . S
C415 C432 1.574 . S
C415 C434 1.368 . S
C415 H439 0.949 . S
H416 C420 0.949 . S
C417 C418 1.349 . S
C417 C419 1.327 . S
C417 H440 0.950 . S
C418 C417 1.349 . S
C418 C430 1.349 . S
C419 C417 1.327 . S
C419 C435 1.429 . S
C419 H441 0.950 . S
C420 H416 0.949 . S
C420 C428 1.574 . S
C420 C436 1.368 . S
H421 C429 0.950 . S
H422 C427 0.950 . S
H423 C428 0.949 . S
H424 C430 0.950 . S
H425 C431 0.950 . S
H426 C432 0.949 . S
C427 H422 0.950 . S
C427 C429 1.327 . S
C427 C433 1.429 . S
C428 C420 1.574 . S
C428 H423 0.949 . S
C428 C434 1.368 . S
C429 C413 1.349 . S
C429 H421 0.950 . S
C429 C427 1.327 . S
C430 C418 1.349 . S
C430 H424 0.950 . S
C430 C431 1.327 . S
C431 H425 0.950 . S
C431 C430 1.327 . S
C431 C435 1.429 . S
C432 C415 1.574 . S
C432 H426 0.949 . S
C432 C436 1.368 . S
C433 C414 1.429 . S
C433 C427 1.429 . S
C433 C434 1.523 . S
C434 C415 1.368 . S
C434 C428 1.368 . S
C434 C433 1.523 . S
C435 C419 1.429 . S
C435 C431 1.429 . S
C435 C436 1.523 . S
C436 C420 1.368 . S
C436 C432 1.368 . S
C436 C435 1.523 . S
H437 C412 0.950 . S
H438 C414 0.950 . S
H439 C415 0.949 . S
H440 C417 0.950 . S
H441 C419 0.950 . S
C442 C443 1.349 . S
C442 C444 1.327 . S
C442 H467 0.950 . S
C443 C442 1.349 . S
C443 C459 1.349 . S
C444 C442 1.327 . S
C444 C463 1.429 . S
C444 H468 0.950 . S
C445 C462 1.574 . S
C445 C464 1.368 . S
C445 H469 0.949 . S
H446 C450 0.949 . S
C447 C448 1.349 . S
C447 C449 1.327 . S
C447 H470 0.950 . S
C448 C447 1.349 . S
C448 C460 1.349 . S
C449 C447 1.327 . S
C449 C465 1.429 . S
C449 H471 0.950 . S
C450 H446 0.949 . S
C450 C458 1.574 . S
C450 C466 1.368 . S
H451 C459 0.950 . S
H452 C457 0.950 . S
H453 C458 0.949 . S
H454 C460 0.950 . S
H455 C461 0.950 . S
H456 C462 0.949 . S
C457 H452 0.950 . S
C457 C459 1.327 . S
C457 C463 1.429 . S
C458 C450 1.574 . S
C458 H453 0.949 . S
C458 C464 1.368 . S
C459 C443 1.349 . S
C459 H451 0.950 . S
C459 C457 1.327 . S
C460 C448 1.349 . S
C460 H454 0.950 . S
C460 C461 1.327 . S
C461 H455 0.950 . S
C461 C460 1.327 . S
C461 C465 1.429 . S
C462 C445 1.574 . S
C462 H456 0.949 . S
C462 C466 1.368 . S
C463 C444 1.429 . S
C463 C457 1.429 . S
C463 C464 1.523 . S
C464 C445 1.368 . S
C464 C458 1.368 . S
C464 C463 1.523 . S
C465 C449 1.429 . S
C465 C461 1.429 . S
C465 C466 1.523 . S
C466 C450 1.368 . S
C466 C462 1.368 . S
C466 C465 1.523 . S
H467 C442 0.950 . S
H468 C444 0.950 . S
H469 C445 0.949 . S
H470 C447 0.950 . S
H471 C449 0.950 . S
C472 C473 1.349 . S
C472 C474 1.327 . S
C472 H497 0.950 . S
C473 C472 1.349 . S
C473 C489 1.349 . S
C474 C472 1.327 . S
C474 C493 1.429 . S
C474 H498 0.950 . S
C475 C492 1.574 . S
C475 C494 1.368 . S
C475 H499 0.949 . S
H476 C480 0.949 . S
C477 C478 1.349 . S
C477 C479 1.327 . S
C477 H500 0.950 . S
C478 C477 1.349 . S
C478 C490 1.349 . S
C479 C477 1.327 . S
C479 C495 1.429 . S
C479 H501 0.950 . S
C480 H476 0.949 . S
C480 C488 1.574 . S
C480 C496 1.368 . S
H481 C489 0.950 . S
H482 C487 0.950 . S
H483 C488 0.949 . S
H484 C490 0.950 . S
H485 C491 0.950 . S
H486 C492 0.949 . S
C487 H482 0.950 . S
C487 C489 1.327 . S
C487 C493 1.429 . S
C488 C480 1.574 . S
C488 H483 0.949 . S
C488 C494 1.368 . S
C489 C473 1.349 . S
C489 H481 0.950 . S
C489 C487 1.327 . S
C490 C478 1.349 . S
C490 H484 0.950 . S
C490 C491 1.327 . S
C491 H485 0.950 . S
C491 C490 1.327 . S
C491 C495 1.429 . S
C492 C475 1.574 . S
C492 H486 0.949 . S
C492 C496 1.368 . S
C493 C474 1.429 . S
C493 C487 1.429 . S
C493 C494 1.523 . S
C494 C475 1.368 . S
C494 C488 1.368 . S
C494 C493 1.523 . S
C495 C479 1.429 . S
C495 C491 1.429 . S
C495 C496 1.523 . S
C496 C480 1.368 . S
C496 C492 1.368 . S
C496 C495 1.523 . S
H497 C472 0.950 . S
H498 C474 0.950 . S
H499 C475 0.949 . S
H500 C477 0.950 . S
H501 C479 0.950 . S
C502 C503 1.349 . S
C502 C504 1.327 . S
C502 H527 0.950 . S
C503 C502 1.349 . S
C503 C519 1.349 . S
C504 C502 1.327 . S
C504 C523 1.429 . S
C504 H528 0.950 . S
C505 C522 1.574 . S
C505 C524 1.368 . S
C505 H529 0.949 . S
H506 C510 0.949 . S
C507 C508 1.349 . S
C507 C509 1.327 . S
C507 H530 0.950 . S
C508 C507 1.349 . S
C508 C520 1.349 . S
C509 C507 1.327 . S
C509 C525 1.429 . S
C509 H531 0.950 . S
C510 H506 0.949 . S
C510 C518 1.574 . S
C510 C526 1.368 . S
H511 C519 0.950 . S
H512 C517 0.950 . S
H513 C518 0.949 . S
H514 C520 0.950 1_455 S
H515 C521 0.950 . S
H516 C522 0.949 . S
C517 H512 0.950 . S
C517 C519 1.327 . S
C517 C523 1.429 . S
C518 C510 1.574 . S
C518 H513 0.949 . S
C518 C524 1.368 . S
C519 C503 1.349 . S
C519 H511 0.950 . S
C519 C517 1.327 . S
C520 C508 1.349 . S
C520 H514 0.950 1_655 S
C520 C521 1.327 . S
C521 H515 0.950 . S
C521 C520 1.327 . S
C521 C525 1.429 . S
C522 C505 1.574 . S
C522 H516 0.949 . S
C522 C526 1.368 . S
C523 C504 1.429 . S
C523 C517 1.429 . S
C523 C524 1.523 . S
C524 C505 1.368 . S
C524 C518 1.368 . S
C524 C523 1.523 . S
C525 C509 1.429 . S
C525 C521 1.429 . S
C525 C526 1.523 . S
C526 C510 1.368 . S
C526 C522 1.368 . S
C526 C525 1.523 . S
H527 C502 0.950 . S
H528 C504 0.950 . S
H529 C505 0.949 . S
H530 C507 0.950 . S
H531 C509 0.950 . S
C532 C533 1.349 . S
C532 C534 1.327 . S
C532 H557 0.950 . S
C533 C532 1.349 . S
C533 C549 1.349 . S
C534 C532 1.327 . S
C534 C553 1.429 . S
C534 H558 0.950 . S
C535 C552 1.574 . S
C535 C554 1.368 . S
C535 H559 0.949 . S
H536 C540 0.949 . S
C537 C538 1.349 . S
C537 C539 1.327 . S
C537 H560 0.950 . S
C538 C537 1.349 . S
C538 C550 1.349 . S
C539 C537 1.327 . S
C539 C555 1.429 . S
C539 H561 0.950 . S
C540 H536 0.949 . S
C540 C548 1.574 . S
C540 C556 1.368 . S
H541 C549 0.950 . S
H542 C547 0.950 . S
H543 C548 0.949 . S
H544 C550 0.950 . S
H545 C551 0.950 . S
H546 C552 0.949 . S
C547 H542 0.950 . S
C547 C549 1.327 . S
C547 C553 1.429 . S
C548 C540 1.574 . S
C548 H543 0.949 . S
C548 C554 1.368 . S
C549 C533 1.349 . S
C549 H541 0.950 . S
C549 C547 1.327 . S
C550 C538 1.349 . S
C550 H544 0.950 . S
C550 C551 1.327 . S
C551 H545 0.950 . S
C551 C550 1.327 . S
C551 C555 1.429 . S
C552 C535 1.574 . S
C552 H546 0.949 . S
C552 C556 1.368 . S
C553 C534 1.429 . S
C553 C547 1.429 . S
C553 C554 1.523 . S
C554 C535 1.368 . S
C554 C548 1.368 . S
C554 C553 1.523 . S
C555 C539 1.429 . S
C555 C551 1.429 . S
C555 C556 1.523 . S
C556 C540 1.368 . S
C556 C552 1.368 . S
C556 C555 1.523 . S
H557 C532 0.950 . S
H558 C534 0.950 . S
H559 C535 0.949 . S
H560 C537 0.950 . S
H561 C539 0.950 . S
C562 C563 1.349 . S
C562 C564 1.327 . S
C562 H587 0.950 . S
C563 C562 1.349 . S
C563 C579 1.349 . S
C564 C562 1.327 . S
C564 C583 1.429 . S
C564 H588 0.950 . S
C565 C582 1.574 . S
C565 C584 1.368 . S
C565 H589 0.949 . S
H566 C570 0.949 . S
C567 C568 1.349 . S
C567 C569 1.327 . S
C567 H590 0.950 . S
C568 C567 1.349 . S
C568 C580 1.349 . S
C569 C567 1.327 . S
C569 C585 1.429 . S
C569 H591 0.950 . S
C570 H566 0.949 . S
C570 C578 1.574 . S
C570 C586 1.368 . S
H571 C579 0.950 . S
H572 C577 0.950 . S
H573 C578 0.949 . S
H574 C580 0.963 . S
H575 C581 0.950 . S
H576 C582 0.949 . S
C577 H572 0.950 . S
C577 C579 1.327 . S
C577 C583 1.429 . S
C578 C570 1.574 . S
C578 H573 0.949 . S
C578 C584 1.368 . S
C579 C563 1.349 . S
C579 H571 0.950 . S
C579 C577 1.327 . S
C580 C568 1.349 . S
C580 H574 0.963 . S
C580 C581 1.327 . S
C581 H575 0.950 . S
C581 C580 1.327 . S
C581 C585 1.429 . S
C582 C565 1.574 . S
C582 H576 0.949 . S
C582 C586 1.368 . S
C583 C564 1.429 . S
C583 C577 1.429 . S
C583 C584 1.523 . S
C584 C565 1.368 . S
C584 C578 1.368 . S
C584 C583 1.523 . S
C585 C569 1.429 . S
C585 C581 1.429 . S
C585 C586 1.523 . S
C586 C570 1.368 . S
C586 C582 1.368 . S
C586 C585 1.523 . S
H587 C562 0.950 . S
H588 C564 0.950 . S
H589 C565 0.949 . S
H590 C567 0.950 . S
H591 C569 0.950 . S
C592 C593 1.349 . S
C592 C594 1.327 . S
C592 H617 0.950 . S
C593 C592 1.349 . S
C593 C609 1.349 . S
C594 C592 1.327 . S
C594 C613 1.429 . S
C594 H618 0.950 . S
C595 C612 1.574 . S
C595 C614 1.368 . S
C595 H619 0.949 . S
H596 C600 0.949 . S
C597 C598 1.349 . S
C597 C599 1.327 . S
C597 H620 0.950 . S
C598 C597 1.349 . S
C598 C610 1.349 . S
C599 C597 1.327 . S
C599 C615 1.429 . S
C599 H621 0.950 . S
C600 H596 0.949 . S
C600 C608 1.574 . S
C600 C616 1.368 . S
H601 C609 0.950 . S
H602 C607 0.950 . S
H603 C608 0.949 . S
H604 C610 0.950 . S
H605 C611 0.950 . S
H606 C612 0.949 . S
C607 H602 0.950 . S
C607 C609 1.327 . S
C607 C613 1.429 . S
C608 C600 1.574 . S
C608 H603 0.949 . S
C608 C614 1.368 . S
C609 C593 1.349 . S
C609 H601 0.950 . S
C609 C607 1.327 . S
C610 C598 1.349 . S
C610 H604 0.950 . S
C610 C611 1.327 . S
C611 H605 0.950 . S
C611 C610 1.327 . S
C611 C615 1.429 . S
C612 C595 1.574 . S
C612 H606 0.949 . S
C612 C616 1.368 . S
C613 C594 1.429 . S
C613 C607 1.429 . S
C613 C614 1.523 . S
C614 C595 1.368 . S
C614 C608 1.368 . S
C614 C613 1.523 . S
C615 C599 1.429 . S
C615 C611 1.429 . S
C615 C616 1.523 . S
C616 C600 1.368 . S
C616 C612 1.368 . S
C616 C615 1.523 . S
H617 C592 0.950 . S
H618 C594 0.950 . S
H619 C595 0.949 . S
H620 C597 0.950 . S
H621 C599 0.950 . S
C622 C623 1.349 . S
C622 C624 1.327 . S
C622 H647 0.950 . S
C623 C622 1.349 . S
C623 C639 1.349 . S
C624 C622 1.327 . S
C624 C643 1.429 . S
C624 H648 0.950 . S
C625 C642 1.574 . S
C625 C644 1.368 . S
C625 H649 0.949 . S
H626 C630 0.949 . S
C627 C628 1.349 . S
C627 C629 1.327 . S
C627 H650 0.950 . S
C628 C627 1.349 . S
C628 C640 1.349 . S
C629 C627 1.327 . S
C629 C645 1.429 . S
C629 H651 0.950 . S
C630 H626 0.949 . S
C630 C638 1.574 . S
C630 C646 1.368 . S
H631 C639 0.950 . S
H632 C637 0.950 . S
H633 C638 0.949 . S
H634 C640 0.950 . S
H635 C641 0.950 . S
H636 C642 0.949 . S
C637 H632 0.950 . S
C637 C639 1.327 . S
C637 C643 1.429 . S
C638 C630 1.574 . S
C638 H633 0.949 . S
C638 C644 1.368 . S
C639 C623 1.349 . S
C639 H631 0.950 . S
C639 C637 1.327 . S
C640 C628 1.349 . S
C640 H634 0.950 . S
C640 C641 1.327 . S
C641 H635 0.950 . S
C641 C640 1.327 . S
C641 C645 1.429 . S
C642 C625 1.574 . S
C642 H636 0.949 . S
C642 C646 1.368 . S
C643 C624 1.429 . S
C643 C637 1.429 . S
C643 C644 1.523 . S
C644 C625 1.368 . S
C644 C638 1.368 . S
C644 C643 1.523 . S
C645 C629 1.429 . S
C645 C641 1.429 . S
C645 C646 1.523 . S
C646 C630 1.368 . S
C646 C642 1.368 . S
C646 C645 1.523 . S
H647 C622 0.950 . S
H648 C624 0.950 . S
H649 C625 0.949 . S
H650 C627 0.950 . S
H651 C629 0.950 . S
C652 C653 1.349 . S
C652 C654 1.327 . S
C652 H677 0.950 . S
C653 C652 1.349 . S
C653 C669 1.349 . S
C654 C652 1.327 . S
C654 C673 1.429 . S
C654 H678 0.950 . S
C655 C672 1.574 . S
C655 C674 1.368 . S
C655 H679 0.949 . S
H656 C660 0.949 . S
C657 C658 1.349 . S
C657 C659 1.327 . S
C657 H680 0.950 1_455 S
C658 C657 1.349 . S
C658 C670 1.349 . S
C659 C657 1.327 . S
C659 C675 1.429 . S
C659 H681 0.950 . S
C660 H656 0.949 . S
C660 C668 1.574 . S
C660 C676 1.368 . S
H661 C669 0.950 . S
H662 C667 0.950 . S
H663 C668 0.949 . S
H664 C670 0.950 . S
H665 C671 0.950 . S
H666 C672 0.949 . S
C667 H662 0.950 . S
C667 C669 1.327 . S
C667 C673 1.429 . S
C668 C660 1.574 . S
C668 H663 0.949 . S
C668 C674 1.368 . S
C669 C653 1.349 . S
C669 H661 0.950 . S
C669 C667 1.327 . S
C670 C658 1.349 . S
C670 H664 0.950 . S
C670 C671 1.327 . S
C671 H665 0.950 . S
C671 C670 1.327 . S
C671 C675 1.429 . S
C672 C655 1.574 . S
C672 H666 0.949 . S
C672 C676 1.368 . S
C673 C654 1.429 . S
C673 C667 1.429 . S
C673 C674 1.523 . S
C674 C655 1.368 . S
C674 C668 1.368 . S
C674 C673 1.523 . S
C675 C659 1.429 . S
C675 C671 1.429 . S
C675 C676 1.523 . S
C676 C660 1.368 . S
C676 C672 1.368 . S
C676 C675 1.523 . S
H677 C652 0.950 . S
H678 C654 0.950 . S
H679 C655 0.949 . S
H680 C657 0.950 1_655 S
H681 C659 0.950 . S
C682 C683 1.349 . S
C682 C684 1.327 . S
C682 H707 0.950 . S
C683 C682 1.349 . S
C683 C699 1.349 . S
C684 C682 1.327 . S
C684 C703 1.429 . S
C684 H708 0.950 . S
C685 C702 1.574 . S
C685 C704 1.368 . S
C685 H709 0.949 . S
H686 C690 0.949 . S
C687 C688 1.349 1_554 S
C687 C689 1.327 1_554 S
C687 H710 0.950 . S
C688 C687 1.349 1_556 S
C688 C700 1.349 . S
C689 C687 1.327 1_556 S
C689 C705 1.429 . S
C689 H711 0.950 1_556 S
C690 H686 0.949 . S
C690 C698 1.574 . S
C690 C706 1.368 . S
H691 C699 0.950 . S
H692 C697 0.950 . S
H693 C698 0.949 . S
H694 C700 0.950 . S
H695 C701 0.950 . S
H696 C702 0.949 . S
C697 H692 0.950 . S
C697 C699 1.327 . S
C697 C703 1.429 . S
C698 C690 1.574 . S
C698 H693 0.949 . S
C698 C704 1.368 . S
C699 C683 1.349 . S
C699 H691 0.950 . S
C699 C697 1.327 . S
C700 C688 1.349 . S
C700 H694 0.950 . S
C700 C701 1.327 . S
C701 H695 0.950 . S
C701 C700 1.327 . S
C701 C705 1.429 . S
C702 C685 1.574 . S
C702 H696 0.949 . S
C702 C706 1.368 . S
C703 C684 1.429 . S
C703 C697 1.429 . S
C703 C704 1.523 . S
C704 C685 1.368 . S
C704 C698 1.368 . S
C704 C703 1.523 . S
C705 C689 1.429 . S
C705 C701 1.429 . S
C705 C706 1.523 . S
C706 C690 1.368 . S
C706 C702 1.368 . S
C706 C705 1.523 . S
H707 C682 0.950 . S
H708 C684 0.950 . S
H709 C685 0.949 . S
H710 C687 0.950 . S
H711 C689 0.950 1_554 S
C712 C713 1.349 . S
C712 C714 1.327 . S
C712 H737 0.950 . S
C713 C712 1.349 . S
C713 C729 1.349 . S
C714 C712 1.327 . S
C714 C733 1.429 . S
C714 H738 0.950 . S
C715 C732 1.574 . S
C715 C734 1.368 . S
C715 H739 0.949 . S
H716 C720 0.949 . S
C717 C718 1.357 . S
C717 C719 1.330 . S
C717 H740 0.939 1_655 S
C718 C717 1.357 . S
C718 C730 1.349 . S
C719 C717 1.330 . S
C719 C735 1.429 . S
C719 H741 0.950 1_655 S
C720 H716 0.949 . S
C720 C728 1.574 . S
C720 C736 1.368 . S
H721 C729 0.950 . S
H722 C727 0.950 . S
H723 C728 0.949 . S
H724 C730 0.950 . S
H725 C731 0.950 . S
H726 C732 0.949 . S
C727 H722 0.950 . S
C727 C729 1.327 . S
C727 C733 1.429 . S
C728 C720 1.574 . S
C728 H723 0.949 . S
C728 C734 1.368 . S
C729 C713 1.349 . S
C729 H721 0.950 . S
C729 C727 1.327 . S
C730 C718 1.349 . S
C730 H724 0.950 . S
C730 C731 1.327 . S
C731 H725 0.950 . S
C731 C730 1.327 . S
C731 C735 1.429 . S
C732 C715 1.574 . S
C732 H726 0.949 . S
C732 C736 1.368 . S
C733 C714 1.429 . S
C733 C727 1.429 . S
C733 C734 1.523 . S
C734 C715 1.368 . S
C734 C728 1.368 . S
C734 C733 1.523 . S
C735 C719 1.429 . S
C735 C731 1.429 . S
C735 C736 1.523 . S
C736 C720 1.368 . S
C736 C732 1.368 . S
C736 C735 1.523 . S
H737 C712 0.950 . S
H738 C714 0.950 . S
H739 C715 0.949 . S
H740 C717 0.939 1_455 S
H741 C719 0.950 1_455 S
C742 C743 1.349 . S
C742 C744 1.327 . S
C742 H767 0.950 . S
C743 C742 1.349 . S
C743 C759 1.349 . S
C744 C742 1.327 . S
C744 C763 1.429 . S
C744 H768 0.950 . S
C745 C762 1.574 . S
C745 C764 1.368 . S
C745 H769 0.949 . S
H746 C750 0.949 . S
C747 C748 1.349 . S
C747 C749 1.327 . S
C747 H770 0.950 . S
C748 C747 1.349 . S
C748 C760 1.349 . S
C749 C747 1.327 . S
C749 C765 1.429 . S
C749 H771 0.950 . S
C750 H746 0.949 . S
C750 C758 1.574 . S
C750 C766 1.368 . S
H751 C759 0.950 . S
H752 C757 0.950 . S
H753 C758 0.949 . S
H754 C760 0.950 . S
H755 C761 0.950 . S
H756 C762 0.949 . S
C757 H752 0.950 . S
C757 C759 1.327 . S
C757 C763 1.429 . S
C758 C750 1.574 . S
C758 H753 0.949 . S
C758 C764 1.368 . S
C759 C743 1.349 . S
C759 H751 0.950 . S
C759 C757 1.327 . S
C760 C748 1.349 . S
C760 H754 0.950 . S
C760 C761 1.327 . S
C761 H755 0.950 . S
C761 C760 1.327 . S
C761 C765 1.429 . S
C762 C745 1.574 . S
C762 H756 0.949 . S
C762 C766 1.368 . S
C763 C744 1.429 . S
C763 C757 1.429 . S
C763 C764 1.523 . S
C764 C745 1.368 . S
C764 C758 1.368 . S
C764 C763 1.523 . S
C765 C749 1.429 . S
C765 C761 1.429 . S
C765 C766 1.523 . S
C766 C750 1.368 . S
C766 C762 1.368 . S
C766 C765 1.523 . S
H767 C742 0.950 . S
H768 C744 0.950 . S
H769 C745 0.949 . S
H770 C747 0.950 . S
H771 C749 0.950 . S
C772 C773 1.349 . S
C772 C774 1.327 . S
C772 H797 0.950 . S
C773 C772 1.349 . S
C773 C789 1.347 1_565 S
C774 C772 1.327 . S
C774 C793 1.429 . S
C774 H798 0.950 . S
C775 C792 1.574 . S
C775 C794 1.368 1_545 S
C775 H799 0.949 . S
H776 C780 0.949 . S
C777 C778 1.349 . S
C777 C779 1.327 . S
C777 H800 0.950 1_655 S
C778 C777 1.349 . S
C778 C790 1.349 1_545 S
C779 C777 1.327 . S
C779 C795 1.429 1_545 S
C779 H801 0.951 . S
C780 H776 0.949 . S
C780 C788 1.574 . S
C780 C796 1.368 . S
H781 C789 0.951 . S
H782 C787 0.950 . S
H783 C788 0.949 . S
H784 C790 0.950 . S
H785 C791 0.950 . S
H786 C792 0.949 . S
C787 H782 0.950 . S
C787 C789 1.327 . S
C787 C793 1.429 1_545 S
C788 C780 1.574 . S
C788 H783 0.949 . S
C788 C794 1.368 . S
C789 C773 1.347 1_545 S
C789 H781 0.951 . S
C789 C787 1.327 . S
C790 C778 1.349 1_565 S
C790 H784 0.950 . S
C790 C791 1.327 . S
C791 H785 0.950 . S
C791 C790 1.327 . S
C791 C795 1.429 . S
C792 C775 1.574 . S
C792 H786 0.949 . S
C792 C796 1.368 1_545 S
C793 C774 1.429 . S
C793 C787 1.429 1_565 S
C793 C794 1.523 . S
C794 C775 1.368 1_565 S
C794 C788 1.368 . S
C794 C793 1.523 . S
C795 C779 1.429 1_565 S
C795 C791 1.429 . S
C795 C796 1.523 . S
C796 C780 1.368 . S
C796 C792 1.368 1_565 S
C796 C795 1.523 . S
H797 C772 0.950 . S
H798 C774 0.950 . S
H799 C775 0.949 . S
H800 C777 0.950 1_455 S
H801 C779 0.951 . S
C802 C803 1.349 . S
C802 C804 1.327 . S
C802 H827 0.950 . S
C803 C802 1.349 . S
C803 C819 1.349 . S
C804 C802 1.327 . S
C804 C823 1.429 . S
C804 H828 0.950 . S
C805 C822 1.574 . S
C805 C824 1.368 . S
C805 H829 0.949 1_545 S
H806 C810 0.949 . S
C807 C808 1.349 1_565 S
C807 C809 1.328 . S
C807 H830 0.950 . S
C808 C807 1.349 1_545 S
C808 C820 1.349 . S
C809 C807 1.328 . S
C809 C825 1.417 1_565 S
C809 H831 0.960 . S
C810 H806 0.949 . S
C810 C818 1.574 . S
C810 C826 1.368 . S
H811 C819 0.950 . S
H812 C817 0.939 1_565 S
H813 C818 0.949 . S
H814 C820 0.950 . S
H815 C821 0.950 . S
H816 C822 0.949 1_565 S
C817 H812 0.939 1_545 S
C817 C819 1.327 . S
C817 C823 1.429 . S
C818 C810 1.574 . S
C818 H813 0.949 . S
C818 C824 1.368 . S
C819 C803 1.349 . S
C819 H811 0.950 . S
C819 C817 1.327 . S
C820 C808 1.349 . S
C820 H814 0.950 . S
C820 C821 1.327 . S
C821 H815 0.950 . S
C821 C820 1.327 . S
C821 C825 1.429 . S
C822 C805 1.574 . S
C822 H816 0.949 1_545 S
C822 C826 1.368 . S
C823 C804 1.429 . S
C823 C817 1.429 . S
C823 C824 1.523 . S
C824 C805 1.368 . S
C824 C818 1.368 . S
C824 C823 1.523 . S
C825 C809 1.417 1_545 S
C825 C821 1.429 . S
C825 C826 1.523 . S
C826 C810 1.368 . S
C826 C822 1.368 . S
C826 C825 1.523 . S
H827 C802 0.950 . S
H828 C804 0.950 . S
H829 C805 0.949 1_565 S
H830 C807 0.950 . S
H831 C809 0.960 . S
C832 C833 1.349 . S
C832 C834 1.327 . S
C832 H857 0.950 . S
C833 C832 1.349 . S
C833 C849 1.349 . S
C834 C832 1.327 . S
C834 C853 1.429 . S
C834 H858 0.950 . S
C835 C852 1.574 . S
C835 C854 1.368 . S
C835 H859 0.949 . S
H836 C840 0.949 . S
C837 C838 1.349 . S
C837 C839 1.327 . S
C837 H860 0.950 . S
C838 C837 1.349 . S
C838 C850 1.349 . S
C839 C837 1.327 . S
C839 C855 1.429 . S
C839 H861 0.950 . S
C840 H836 0.949 . S
C840 C848 1.574 . S
C840 C856 1.368 . S
H841 C849 0.950 . S
H842 C847 0.950 . S
H843 C848 0.949 . S
H844 C850 0.950 . S
H845 C851 0.950 . S
H846 C852 0.949 . S
C847 H842 0.950 . S
C847 C849 1.327 . S
C847 C853 1.429 . S
C848 C840 1.574 . S
C848 H843 0.949 . S
C848 C854 1.368 . S
C849 C833 1.349 . S
C849 H841 0.950 . S
C849 C847 1.327 . S
C850 C838 1.349 . S
C850 H844 0.950 . S
C850 C851 1.327 . S
C851 H845 0.950 . S
C851 C850 1.327 . S
C851 C855 1.429 . S
C852 C835 1.574 . S
C852 H846 0.949 . S
C852 C856 1.368 . S
C853 C834 1.429 . S
C853 C847 1.429 . S
C853 C854 1.523 . S
C854 C835 1.368 . S
C854 C848 1.368 . S
C854 C853 1.523 . S
C855 C839 1.429 . S
C855 C851 1.429 . S
C855 C856 1.523 . S
C856 C840 1.368 . S
C856 C852 1.368 . S
C856 C855 1.523 . S
H857 C832 0.950 . S
H858 C834 0.950 . S
H859 C835 0.949 . S
H860 C837 0.950 . S
H861 C839 0.950 . S
C862 C863 1.349 . S
C862 C864 1.327 . S
C862 H887 0.950 . S
C863 C862 1.349 . S
C863 C879 1.349 . S
C864 C862 1.327 . S
C864 C883 1.429 . S
C864 H888 0.950 . S
C865 C882 1.574 . S
C865 C884 1.368 . S
C865 H889 0.949 . S
H866 C870 0.949 . S
C867 C868 1.349 . S
C867 C869 1.327 . S
C867 H890 0.950 . S
C868 C867 1.349 . S
C868 C880 1.349 . S
C869 C867 1.327 . S
C869 C885 1.429 . S
C869 H891 0.950 . S
C870 H866 0.949 . S
C870 C878 1.574 . S
C870 C886 1.368 . S
H871 C879 0.950 . S
H872 C877 0.950 . S
H873 C878 0.949 . S
H874 C880 0.950 . S
H875 C881 0.950 . S
H876 C882 0.949 . S
C877 H872 0.950 . S
C877 C879 1.327 . S
C877 C883 1.429 . S
C878 C870 1.574 . S
C878 H873 0.949 . S
C878 C884 1.368 . S
C879 C863 1.349 . S
C879 H871 0.950 . S
C879 C877 1.327 . S
C880 C868 1.349 . S
C880 H874 0.950 . S
C880 C881 1.327 . S
C881 H875 0.950 . S
C881 C880 1.327 . S
C881 C885 1.429 . S
C882 C865 1.574 . S
C882 H876 0.949 . S
C882 C886 1.368 . S
C883 C864 1.429 . S
C883 C877 1.429 . S
C883 C884 1.523 . S
C884 C865 1.368 . S
C884 C878 1.368 . S
C884 C883 1.523 . S
C885 C869 1.429 . S
C885 C881 1.429 . S
C885 C886 1.523 . S
C886 C870 1.368 . S
C886 C882 1.368 . S
C886 C885 1.523 . S
H887 C862 0.950 . S
H888 C864 0.950 . S
H889 C865 0.949 . S
H890 C867 0.950 . S
H891 C869 0.950 . S
C892 C893 1.349 . S
C892 C894 1.327 . S
C892 H917 0.950 . S
C893 C892 1.349 . S
C893 C909 1.349 1_565 S
C894 C892 1.327 . S
C894 C913 1.429 . S
C894 H918 0.950 . S
C895 C912 1.574 . S
C895 C914 1.368 1_545 S
C895 H919 0.949 . S
H896 C900 0.949 1_554 S
C897 C898 1.349 1_545 S
C897 C899 1.327 . S
C897 H920 0.950 . S
C898 C897 1.349 1_565 S
C898 C910 1.349 1_556 S
C899 C897 1.327 . S
C899 C915 1.429 1_545 S
C899 H921 0.950 . S
C900 H896 0.949 1_556 S
C900 C908 1.574 . S
C900 C916 1.368 . S
H901 C909 0.950 . S
H902 C907 0.950 . S
H903 C908 0.949 . S
H904 C910 0.950 . S
H905 C911 0.958 . S
H906 C912 0.949 . S
C907 H902 0.950 . S
C907 C909 1.327 . S
C907 C913 1.429 1_545 S
C908 C900 1.574 . S
C908 H903 0.949 . S
C908 C914 1.368 . S
C909 C893 1.349 1_545 S
C909 H901 0.950 . S
C909 C907 1.327 . S
C910 C898 1.349 1_554 S
C910 H904 0.950 . S
C910 C911 1.331 . S
C911 H905 0.958 . S
C911 C910 1.331 . S
C911 C915 1.418 1_554 S
C912 C895 1.574 . S
C912 H906 0.949 . S
C912 C916 1.368 1_545 S
C913 C894 1.429 . S
C913 C907 1.429 1_565 S
C913 C914 1.523 . S
C914 C895 1.368 1_565 S
C914 C908 1.368 . S
C914 C913 1.523 . S
C915 C899 1.429 1_565 S
C915 C911 1.418 1_556 S
C915 C916 1.523 . S
C916 C900 1.368 . S
C916 C912 1.368 1_565 S
C916 C915 1.523 . S
H917 C892 0.950 . S
H918 C894 0.950 . S
H919 C895 0.949 . S
H920 C897 0.950 . S
H921 C899 0.950 . S
C922 C923 1.349 . S
C922 C924 1.327 . S
C922 H947 0.950 . S
C923 C922 1.349 . S
C923 C939 1.349 . S
C924 C922 1.327 . S
C924 C943 1.429 . S
C924 H948 0.950 . S
C925 C942 1.574 . S
C925 C944 1.368 . S
C925 H949 0.949 . S
H926 C930 0.949 . S
C927 C928 1.349 . S
C927 C929 1.327 . S
C927 H950 0.950 . S
C928 C927 1.349 . S
C928 C940 1.349 . S
C929 C927 1.327 . S
C929 C945 1.429 . S
C929 H951 0.950 . S
C930 H926 0.949 . S
C930 C938 1.574 . S
C930 C946 1.368 . S
H931 C939 0.950 . S
H932 C937 0.950 . S
H933 C938 0.949 . S
H934 C940 0.950 . S
H935 C941 0.950 . S
H936 C942 0.949 . S
C937 H932 0.950 . S
C937 C939 1.327 . S
C937 C943 1.429 . S
C938 C930 1.574 . S
C938 H933 0.949 . S
C938 C944 1.368 . S
C939 C923 1.349 . S
C939 H931 0.950 . S
C939 C937 1.327 . S
C940 C928 1.349 . S
C940 H934 0.950 . S
C940 C941 1.327 . S
C941 H935 0.950 . S
C941 C940 1.327 . S
C941 C945 1.429 . S
C942 C925 1.574 . S
C942 H936 0.949 . S
C942 C946 1.368 . S
C943 C924 1.429 . S
C943 C937 1.429 . S
C943 C944 1.523 . S
C944 C925 1.368 . S
C944 C938 1.368 . S
C944 C943 1.523 . S
C945 C929 1.429 . S
C945 C941 1.429 . S
C945 C946 1.523 . S
C946 C930 1.368 . S
C946 C942 1.368 . S
C946 C945 1.523 . S
H947 C922 0.950 . S
H948 C924 0.950 . S
H949 C925 0.949 . S
H950 C927 0.950 . S
H951 C929 0.950 . S
C952 C953 1.349 . S
C952 C954 1.327 . S
C952 H977 0.950 . S
C953 C952 1.349 . S
C953 C969 1.349 . S
C954 C952 1.327 . S
C954 C973 1.429 . S
C954 H978 0.950 . S
C955 C972 1.574 . S
C955 C974 1.368 . S
C955 H979 0.949 . S
H956 C960 0.949 1_556 S
C957 C958 1.349 . S
C957 C959 1.327 . S
C957 H980 0.950 . S
C958 C957 1.349 . S
C958 C970 1.349 1_554 S
C959 C957 1.327 . S
C959 C975 1.429 . S
C959 H981 0.950 . S
C960 H956 0.949 1_554 S
C960 C968 1.574 . S
C960 C976 1.368 . S
H961 C969 0.950 . S
H962 C967 0.950 . S
H963 C968 0.949 . S
H964 C970 0.950 . S
H965 C971 0.980 . S
H966 C972 0.949 . S
C967 H962 0.950 . S
C967 C969 1.327 . S
C967 C973 1.429 . S
C968 C960 1.574 . S
C968 H963 0.949 . S
C968 C974 1.368 . S
C969 C953 1.349 . S
C969 H961 0.950 . S
C969 C967 1.327 . S
C970 C958 1.349 1_556 S
C970 H964 0.950 . S
C970 C971 1.336 . S
C971 H965 0.980 . S
C971 C970 1.336 . S
C971 C975 1.392 1_556 S
C972 C955 1.574 . S
C972 H966 0.949 . S
C972 C976 1.368 . S
C973 C954 1.429 . S
C973 C967 1.429 . S
C973 C974 1.523 . S
C974 C955 1.368 . S
C974 C968 1.368 . S
C974 C973 1.523 . S
C975 C959 1.429 . S
C975 C971 1.392 1_554 S
C975 C976 1.523 . S
C976 C960 1.368 . S
C976 C972 1.368 . S
C976 C975 1.523 . S
H977 C952 0.950 . S
H978 C954 0.950 . S
H979 C955 0.949 . S
H980 C957 0.950 . S
H981 C959 0.950 . S
C982 C983 1.349 . S
C982 C984 1.327 . S
C982 H1007 0.950 . S
C983 C982 1.349 . S
C983 C999 1.349 . S
C984 C982 1.327 . S
C984 C1003 1.429 . S
C984 H1008 0.950 . S
C985 C1002 1.574 . S
C985 C1004 1.368 . S
C985 H1009 0.949 . S
H986 C990 0.949 . S
C987 C988 1.349 . S
C987 C989 1.327 . S
C987 H1010 0.950 . S
C988 C987 1.349 . S
C988 C1000 1.349 . S
C989 C987 1.327 . S
C989 C1005 1.429 . S
C989 H1011 0.950 . S
C990 H986 0.949 . S
C990 C998 1.574 . S
C990 C1006 1.368 . S
H991 C999 0.950 . S
H992 C997 0.950 . S
H993 C998 0.949 . S
H994 C1000 0.950 . S
H995 C1001 0.950 . S
H996 C1002 0.949 . S
C997 H992 0.950 . S
C997 C999 1.327 . S
C997 C1003 1.429 . S
C998 C990 1.574 . S
C998 H993 0.949 . S
C998 C1004 1.368 . S
C999 C983 1.349 . S
C999 H991 0.950 . S
C999 C997 1.327 . S
C1000 C988 1.349 . S
C1000 H994 0.950 . S
C1000 C1001 1.327 . S
C1001 H995 0.950 . S
C1001 C1000 1.327 . S
C1001 C1005 1.429 . S
C1002 C985 1.574 . S
C1002 H996 0.949 . S
C1002 C1006 1.368 . S
C1003 C984 1.429 . S
C1003 C997 1.429 . S
C1003 C1004 1.523 . S
C1004 C985 1.368 . S
C1004 C998 1.368 . S
C1004 C1003 1.523 . S
C1005 C989 1.429 . S
C1005 C1001 1.429 . S
C1005 C1006 1.523 . S
C1006 C990 1.368 . S
C1006 C1002 1.368 . S
C1006 C1005 1.523 . S
H1007 C982 0.950 . S
H1008 C984 0.950 . S
H1009 C985 0.949 . S
H1010 C987 0.950 . S
H1011 C989 0.950 . S
C1012 C1013 1.349 . S
C1012 C1014 1.327 . S
C1012 H1037 0.950 . S
C1013 C1012 1.349 . S
C1013 C1029 1.349 . S
C1014 C1012 1.327 . S
C1014 C1033 1.429 . S
C1014 H1038 0.950 . S
C1015 C1032 1.574 . S
C1015 C1034 1.368 . S
C1015 H1039 0.949 1_556 S
H1016 C1020 0.949 . S
C1017 C1018 1.349 1_554 S
C1017 C1019 1.327 . S
C1017 H1040 0.950 . S
C1018 C1017 1.349 1_556 S
C1018 C1030 1.349 . S
C1019 C1017 1.327 . S
C1019 C1035 1.429 1_554 S
C1019 H1041 0.950 . S
C1020 H1016 0.949 . S
C1020 C1028 1.574 . S
C1020 C1036 1.368 . S
H1021 C1029 0.950 . S
H1022 C1027 0.923 1_554 S
H1023 C1028 0.949 . S
H1024 C1030 0.950 1_455 S
H1025 C1031 0.948 . S
H1026 C1032 0.949 1_554 S
C1027 H1022 0.923 1_556 S
C1027 C1029 1.327 . S
C1027 C1033 1.429 . S
C1028 C1020 1.574 . S
C1028 H1023 0.949 . S
C1028 C1034 1.368 . S
C1029 C1013 1.349 . S
C1029 H1021 0.950 . S
C1029 C1027 1.327 . S
C1030 C1018 1.349 . S
C1030 H1024 0.950 1_655 S
C1030 C1031 1.327 . S
C1031 H1025 0.948 . S
C1031 C1030 1.327 . S
C1031 C1035 1.429 . S
C1032 C1015 1.574 . S
C1032 H1026 0.949 1_556 S
C1032 C1036 1.368 . S
C1033 C1014 1.429 . S
C1033 C1027 1.429 . S
C1033 C1034 1.523 . S
C1034 C1015 1.368 . S
C1034 C1028 1.368 . S
C1034 C1033 1.523 . S
C1035 C1019 1.429 1_556 S
C1035 C1031 1.429 . S
C1035 C1036 1.523 . S
C1036 C1020 1.368 . S
C1036 C1032 1.368 . S
C1036 C1035 1.523 . S
H1037 C1012 0.950 . S
H1038 C1014 0.950 . S
H1039 C1015 0.949 1_554 S
H1040 C1017 0.950 . S
H1041 C1019 0.950 . S
C1042 C1043 1.349 . S
C1042 C1044 1.327 . S
C1042 H1067 0.950 . S
C1043 C1042 1.349 . S
C1043 C1059 1.349 . S
C1044 C1042 1.327 . S
C1044 C1063 1.429 . S
C1044 H1068 0.950 . S
C1045 C1062 1.574 . S
C1045 C1064 1.368 . S
C1045 H1069 0.949 . S
H1046 C1050 0.949 . S
C1047 C1048 1.349 . S
C1047 C1049 1.327 . S
C1047 H1070 0.950 . S
C1048 C1047 1.349 . S
C1048 C1060 1.349 . S
C1049 C1047 1.327 . S
C1049 C1065 1.429 . S
C1049 H1071 0.950 . S
C1050 H1046 0.949 . S
C1050 C1058 1.574 . S
C1050 C1066 1.368 . S
H1051 C1059 0.950 . S
H1052 C1057 0.950 . S
H1053 C1058 0.949 . S
H1054 C1060 0.950 . S
H1055 C1061 0.950 . S
H1056 C1062 0.949 . S
C1057 H1052 0.950 . S
C1057 C1059 1.327 . S
C1057 C1063 1.429 . S
C1058 C1050 1.574 . S
C1058 H1053 0.949 . S
C1058 C1064 1.368 . S
C1059 C1043 1.349 . S
C1059 H1051 0.950 . S
C1059 C1057 1.327 . S
C1060 C1048 1.349 . S
C1060 H1054 0.950 . S
C1060 C1061 1.327 . S
C1061 H1055 0.950 . S
C1061 C1060 1.327 . S
C1061 C1065 1.429 . S
C1062 C1045 1.574 . S
C1062 H1056 0.949 . S
C1062 C1066 1.368 . S
C1063 C1044 1.429 . S
C1063 C1057 1.429 . S
C1063 C1064 1.523 . S
C1064 C1045 1.368 . S
C1064 C1058 1.368 . S
C1064 C1063 1.523 . S
C1065 C1049 1.429 . S
C1065 C1061 1.429 . S
C1065 C1066 1.523 . S
C1066 C1050 1.368 . S
C1066 C1062 1.368 . S
C1066 C1065 1.523 . S
H1067 C1042 0.950 . S
H1068 C1044 0.950 . S
H1069 C1045 0.949 . S
H1070 C1047 0.950 . S
H1071 C1049 0.950 . S
C1072 C1073 1.349 . S
C1072 C1074 1.327 . S
C1072 H1097 0.950 . S
C1073 C1072 1.349 . S
C1073 C1089 1.349 . S
C1074 C1072 1.327 . S
C1074 C1093 1.429 . S
C1074 H1098 0.950 . S
C1075 C1092 1.574 . S
C1075 C1094 1.368 . S
C1075 H1099 0.949 . S
H1076 C1080 0.949 . S
C1077 C1078 1.349 . S
C1077 C1079 1.327 . S
C1077 H1100 0.950 . S
C1078 C1077 1.349 . S
C1078 C1090 1.349 . S
C1079 C1077 1.327 . S
C1079 C1095 1.429 . S
C1079 H1101 0.950 . S
C1080 H1076 0.949 . S
C1080 C1088 1.574 . S
C1080 C1096 1.368 . S
H1081 C1089 0.950 . S
H1082 C1087 0.950 . S
H1083 C1088 0.949 . S
H1084 C1090 0.950 . S
H1085 C1091 0.950 . S
H1086 C1092 0.949 . S
C1087 H1082 0.950 . S
C1087 C1089 1.327 . S
C1087 C1093 1.429 . S
C1088 C1080 1.574 . S
C1088 H1083 0.949 . S
C1088 C1094 1.368 . S
C1089 C1073 1.349 . S
C1089 H1081 0.950 . S
C1089 C1087 1.327 . S
C1090 C1078 1.349 . S
C1090 H1084 0.950 . S
C1090 C1091 1.327 . S
C1091 H1085 0.950 . S
C1091 C1090 1.327 . S
C1091 C1095 1.429 . S
C1092 C1075 1.574 . S
C1092 H1086 0.949 . S
C1092 C1096 1.368 . S
C1093 C1074 1.429 . S
C1093 C1087 1.429 . S
C1093 C1094 1.523 . S
C1094 C1075 1.368 . S
C1094 C1088 1.368 . S
C1094 C1093 1.523 . S
C1095 C1079 1.429 . S
C1095 C1091 1.429 . S
C1095 C1096 1.523 . S
C1096 C1080 1.368 . S
C1096 C1092 1.368 . S
C1096 C1095 1.523 . S
H1097 C1072 0.950 . S
H1098 C1074 0.950 . S
H1099 C1075 0.949 . S
H1100 C1077 0.950 . S
H1101 C1079 0.950 . S
C1102 C1103 1.349 . S
C1102 C1104 1.327 . S
C1102 H1127 0.950 . S
C1103 C1102 1.349 . S
C1103 C1119 1.349 . S
C1104 C1102 1.327 . S
C1104 C1123 1.429 . S
C1104 H1128 0.950 . S
C1105 C1122 1.574 . S
C1105 C1124 1.368 . S
C1105 H1129 0.949 . S
H1106 C1110 0.949 . S
C1107 C1108 1.349 . S
C1107 C1109 1.327 . S
C1107 H1130 0.950 . S
C1108 C1107 1.349 . S
C1108 C1120 1.349 . S
C1109 C1107 1.327 . S
C1109 C1125 1.429 . S
C1109 H1131 0.950 . S
C1110 H1106 0.949 . S
C1110 C1118 1.574 . S
C1110 C1126 1.368 . S
H1111 C1119 0.950 . S
H1112 C1117 0.950 . S
H1113 C1118 0.949 . S
H1114 C1120 0.950 . S
H1115 C1121 0.950 . S
H1116 C1122 0.949 . S
C1117 H1112 0.950 . S
C1117 C1119 1.327 . S
C1117 C1123 1.429 . S
C1118 C1110 1.574 . S
C1118 H1113 0.949 . S
C1118 C1124 1.368 . S
C1119 C1103 1.349 . S
C1119 H1111 0.950 . S
C1119 C1117 1.327 . S
C1120 C1108 1.349 . S
C1120 H1114 0.950 . S
C1120 C1121 1.327 . S
C1121 H1115 0.950 . S
C1121 C1120 1.327 . S
C1121 C1125 1.429 . S
C1122 C1105 1.574 . S
C1122 H1116 0.949 . S
C1122 C1126 1.368 . S
C1123 C1104 1.429 . S
C1123 C1117 1.429 . S
C1123 C1124 1.523 . S
C1124 C1105 1.368 . S
C1124 C1118 1.368 . S
C1124 C1123 1.523 . S
C1125 C1109 1.429 . S
C1125 C1121 1.429 . S
C1125 C1126 1.523 . S
C1126 C1110 1.368 . S
C1126 C1122 1.368 . S
C1126 C1125 1.523 . S
H1127 C1102 0.950 . S
H1128 C1104 0.950 . S
H1129 C1105 0.949 . S
H1130 C1107 0.950 . S
H1131 C1109 0.950 . S
C413 C21 1.665 . S
C418 C338 1.639 . S
C443 C61 1.611 . S
C448 C362 1.613 . S
C478 C382 1.362 . S
C473 C82 1.358 . S
C503 C135 1.439 . S
C508 C405 1.450 . S
C538 C364 1.714 . S
C533 C15 1.752 . S
C568 C340 1.729 . S
C563 C42 1.735 . S
C598 C408 1.616 . S
C593 C101 1.675 . S
C628 C385 1.557 . S
C623 C122 1.608 . S
C653 C2 1.390 . S
C658 C410 1.359 . S
C688 C359 1.637 1_556 S
C683 C95 1.636 . S
C713 C141 1.713 . S
C718 C337 1.713 . S
C743 C55 1.326 . S
C748 C387 1.297 . S
C778 C341 1.790 . S
C773 C181 1.705 . S
C803 C202 1.631 . S
C808 C363 1.702 . S
C833 C255 1.843 . S
C838 C383 1.874 . S
C863 C295 1.862 . S
C868 C406 1.887 . S
C893 C175 1.622 . S
C898 C361 1.618 1_556 S
C928 C339 1.681 . S
C923 C221 1.593 . S
C958 C409 1.464 . S
C953 C242 1.438 . S
C988 C386 1.588 . S
C983 C301 1.628 . S
C1013 C162 1.955 . S
C1018 C407 1.999 . S
C1048 C360 1.605 . S
C1043 C261 1.528 . S
C1078 C336 1.633 . S
C1073 C282 1.631 . S
C1103 C215 2.026 . S
C1108 C384 2.013 . S
