# Generated by pormake.
# Topology gar, (4,6)-cn, num edge types: 1
# Building blocks:
#     Node 0, Type 0, BuildingBlock: KUFVIS_clean_sbu_0, # of connection points: 4
#     Node 1, Type 0, BuildingBlock: KUFVIS_clean_sbu_0, # of connection points: 4
#     Node 2, Type 0, BuildingBlock: KUFVIS_clean_sbu_0, # of connection points: 4
#     Node 3, Type 0, BuildingBlock: KUFVIS_clean_sbu_0, # of connection points: 4
#     Node 4, Type 0, BuildingBlock: KUFVIS_clean_sbu_0, # of connection points: 4
#     Node 5, Type 0, BuildingBlock: KUFVIS_clean_sbu_0, # of connection points: 4
#     Node 6, Type 0, BuildingBlock: KUFVIS_clean_sbu_0, # of connection points: 4
#     Node 7, Type 0, BuildingBlock: KUFVIS_clean_sbu_0, # of connection points: 4
#     Node 8, Type 0, BuildingBlock: KUFVIS_clean_sbu_0, # of connection points: 4
#     Node 9, Type 0, BuildingBlock: KUFVIS_clean_sbu_0, # of connection points: 4
#     Node 10, Type 0, BuildingBlock: KUFVIS_clean_sbu_0, # of connection points: 4
#     Node 11, Type 0, BuildingBlock: KUFVIS_clean_sbu_0, # of connection points: 4
#     Node 12, Type 0, BuildingBlock: KUFVIS_clean_sbu_0, # of connection points: 4
#     Node 13, Type 0, BuildingBlock: KUFVIS_clean_sbu_0, # of connection points: 4
#     Node 14, Type 0, BuildingBlock: KUFVIS_clean_sbu_0, # of connection points: 4
#     Node 15, Type 0, BuildingBlock: KUFVIS_clean_sbu_0, # of connection points: 4
#     Node 16, Type 0, BuildingBlock: KUFVIS_clean_sbu_0, # of connection points: 4
#     Node 17, Type 0, BuildingBlock: KUFVIS_clean_sbu_0, # of connection points: 4
#     Node 18, Type 0, BuildingBlock: KUFVIS_clean_sbu_0, # of connection points: 4
#     Node 19, Type 0, BuildingBlock: KUFVIS_clean_sbu_0, # of connection points: 4
#     Node 20, Type 0, BuildingBlock: KUFVIS_clean_sbu_0, # of connection points: 4
#     Node 21, Type 0, BuildingBlock: KUFVIS_clean_sbu_0, # of connection points: 4
#     Node 22, Type 0, BuildingBlock: KUFVIS_clean_sbu_0, # of connection points: 4
#     Node 23, Type 0, BuildingBlock: KUFVIS_clean_sbu_0, # of connection points: 4
#     Node 24, Type 1, BuildingBlock: BETDIP_clean_sbu_0, # of connection points: 6
#     Node 25, Type 1, BuildingBlock: BETDIP_clean_sbu_0, # of connection points: 6
#     Node 26, Type 1, BuildingBlock: BETDIP_clean_sbu_0, # of connection points: 6
#     Node 27, Type 1, BuildingBlock: BETDIP_clean_sbu_0, # of connection points: 6
#     Node 28, Type 1, BuildingBlock: BETDIP_clean_sbu_0, # of connection points: 6
#     Node 29, Type 1, BuildingBlock: BETDIP_clean_sbu_0, # of connection points: 6
#     Node 30, Type 1, BuildingBlock: BETDIP_clean_sbu_0, # of connection points: 6
#     Node 31, Type 1, BuildingBlock: BETDIP_clean_sbu_0, # of connection points: 6
#     Node 32, Type 1, BuildingBlock: BETDIP_clean_sbu_0, # of connection points: 6
#     Node 33, Type 1, BuildingBlock: BETDIP_clean_sbu_0, # of connection points: 6
#     Node 34, Type 1, BuildingBlock: BETDIP_clean_sbu_0, # of connection points: 6
#     Node 35, Type 1, BuildingBlock: BETDIP_clean_sbu_0, # of connection points: 6
#     Node 36, Type 1, BuildingBlock: BETDIP_clean_sbu_0, # of connection points: 6
#     Node 37, Type 1, BuildingBlock: BETDIP_clean_sbu_0, # of connection points: 6
#     Node 38, Type 1, BuildingBlock: BETDIP_clean_sbu_0, # of connection points: 6
#     Node 39, Type 1, BuildingBlock: BETDIP_clean_sbu_0, # of connection points: 6
#     Edge 40, Type (0, 1), BuildingBlock: KIFKEQ_clean_linker_1, # of connection points: 2
#     Edge 41, Type (0, 1), BuildingBlock: KIFKEQ_clean_linker_1, # of connection points: 2
#     Edge 42, Type (0, 1), BuildingBlock: KIFKEQ_clean_linker_1, # of connection points: 2
#     Edge 43, Type (0, 1), BuildingBlock: KIFKEQ_clean_linker_1, # of connection points: 2
#     Edge 44, Type (0, 1), BuildingBlock: KIFKEQ_clean_linker_1, # of connection points: 2
#     Edge 45, Type (0, 1), BuildingBlock: KIFKEQ_clean_linker_1, # of connection points: 2
#     Edge 46, Type (0, 1), BuildingBlock: KIFKEQ_clean_linker_1, # of connection points: 2
#     Edge 47, Type (0, 1), BuildingBlock: KIFKEQ_clean_linker_1, # of connection points: 2
#     Edge 48, Type (0, 1), BuildingBlock: KIFKEQ_clean_linker_1, # of connection points: 2
#     Edge 49, Type (0, 1), BuildingBlock: KIFKEQ_clean_linker_1, # of connection points: 2
#     Edge 50, Type (0, 1), BuildingBlock: KIFKEQ_clean_linker_1, # of connection points: 2
#     Edge 51, Type (0, 1), BuildingBlock: KIFKEQ_clean_linker_1, # of connection points: 2
#     Edge 52, Type (0, 1), BuildingBlock: KIFKEQ_clean_linker_1, # of connection points: 2
#     Edge 53, Type (0, 1), BuildingBlock: KIFKEQ_clean_linker_1, # of connection points: 2
#     Edge 54, Type (0, 1), BuildingBlock: KIFKEQ_clean_linker_1, # of connection points: 2
#     Edge 55, Type (0, 1), BuildingBlock: KIFKEQ_clean_linker_1, # of connection points: 2
#     Edge 56, Type (0, 1), BuildingBlock: KIFKEQ_clean_linker_1, # of connection points: 2
#     Edge 57, Type (0, 1), BuildingBlock: KIFKEQ_clean_linker_1, # of connection points: 2
#     Edge 58, Type (0, 1), BuildingBlock: KIFKEQ_clean_linker_1, # of connection points: 2
#     Edge 59, Type (0, 1), BuildingBlock: KIFKEQ_clean_linker_1, # of connection points: 2
#     Edge 60, Type (0, 1), BuildingBlock: KIFKEQ_clean_linker_1, # of connection points: 2
#     Edge 61, Type (0, 1), BuildingBlock: KIFKEQ_clean_linker_1, # of connection points: 2
#     Edge 62, Type (0, 1), BuildingBlock: KIFKEQ_clean_linker_1, # of connection points: 2
#     Edge 63, Type (0, 1), BuildingBlock: KIFKEQ_clean_linker_1, # of connection points: 2
#     Edge 64, Type (0, 1), BuildingBlock: KIFKEQ_clean_linker_1, # of connection points: 2
#     Edge 65, Type (0, 1), BuildingBlock: KIFKEQ_clean_linker_1, # of connection points: 2
#     Edge 66, Type (0, 1), BuildingBlock: KIFKEQ_clean_linker_1, # of connection points: 2
#     Edge 67, Type (0, 1), BuildingBlock: KIFKEQ_clean_linker_1, # of connection points: 2
#     Edge 68, Type (0, 1), BuildingBlock: KIFKEQ_clean_linker_1, # of connection points: 2
#     Edge 69, Type (0, 1), BuildingBlock: KIFKEQ_clean_linker_1, # of connection points: 2
#     Edge 70, Type (0, 1), BuildingBlock: KIFKEQ_clean_linker_1, # of connection points: 2
#     Edge 71, Type (0, 1), BuildingBlock: KIFKEQ_clean_linker_1, # of connection points: 2
#     Edge 72, Type (0, 1), BuildingBlock: KIFKEQ_clean_linker_1, # of connection points: 2
#     Edge 73, Type (0, 1), BuildingBlock: KIFKEQ_clean_linker_1, # of connection points: 2
#     Edge 74, Type (0, 1), BuildingBlock: KIFKEQ_clean_linker_1, # of connection points: 2
#     Edge 75, Type (0, 1), BuildingBlock: KIFKEQ_clean_linker_1, # of connection points: 2
#     Edge 76, Type (0, 1), BuildingBlock: KIFKEQ_clean_linker_1, # of connection points: 2
#     Edge 77, Type (0, 1), BuildingBlock: KIFKEQ_clean_linker_1, # of connection points: 2
#     Edge 78, Type (0, 1), BuildingBlock: KIFKEQ_clean_linker_1, # of connection points: 2
#     Edge 79, Type (0, 1), BuildingBlock: KIFKEQ_clean_linker_1, # of connection points: 2
#     Edge 80, Type (0, 1), BuildingBlock: KIFKEQ_clean_linker_1, # of connection points: 2
#     Edge 81, Type (0, 1), BuildingBlock: KIFKEQ_clean_linker_1, # of connection points: 2
#     Edge 82, Type (0, 1), BuildingBlock: KIFKEQ_clean_linker_1, # of connection points: 2
#     Edge 83, Type (0, 1), BuildingBlock: KIFKEQ_clean_linker_1, # of connection points: 2
#     Edge 84, Type (0, 1), BuildingBlock: KIFKEQ_clean_linker_1, # of connection points: 2
#     Edge 85, Type (0, 1), BuildingBlock: KIFKEQ_clean_linker_1, # of connection points: 2
#     Edge 86, Type (0, 1), BuildingBlock: KIFKEQ_clean_linker_1, # of connection points: 2
#     Edge 87, Type (0, 1), BuildingBlock: KIFKEQ_clean_linker_1, # of connection points: 2
#     Edge 88, Type (0, 1), BuildingBlock: KIFKEQ_clean_linker_1, # of connection points: 2
#     Edge 89, Type (0, 1), BuildingBlock: KIFKEQ_clean_linker_1, # of connection points: 2
#     Edge 90, Type (0, 1), BuildingBlock: KIFKEQ_clean_linker_1, # of connection points: 2
#     Edge 91, Type (0, 1), BuildingBlock: KIFKEQ_clean_linker_1, # of connection points: 2
#     Edge 92, Type (0, 1), BuildingBlock: KIFKEQ_clean_linker_1, # of connection points: 2
#     Edge 93, Type (0, 1), BuildingBlock: KIFKEQ_clean_linker_1, # of connection points: 2
#     Edge 94, Type (0, 1), BuildingBlock: KIFKEQ_clean_linker_1, # of connection points: 2
#     Edge 95, Type (0, 1), BuildingBlock: KIFKEQ_clean_linker_1, # of connection points: 2
#     Edge 96, Type (0, 1), BuildingBlock: KIFKEQ_clean_linker_1, # of connection points: 2
#     Edge 97, Type (0, 1), BuildingBlock: KIFKEQ_clean_linker_1, # of connection points: 2
#     Edge 98, Type (0, 1), BuildingBlock: KIFKEQ_clean_linker_1, # of connection points: 2
#     Edge 99, Type (0, 1), BuildingBlock: KIFKEQ_clean_linker_1, # of connection points: 2
#     Edge 100, Type (0, 1), BuildingBlock: KIFKEQ_clean_linker_1, # of connection points: 2
#     Edge 101, Type (0, 1), BuildingBlock: KIFKEQ_clean_linker_1, # of connection points: 2
#     Edge 102, Type (0, 1), BuildingBlock: KIFKEQ_clean_linker_1, # of connection points: 2
#     Edge 103, Type (0, 1), BuildingBlock: KIFKEQ_clean_linker_1, # of connection points: 2
#     Edge 104, Type (0, 1), BuildingBlock: KIFKEQ_clean_linker_1, # of connection points: 2
#     Edge 105, Type (0, 1), BuildingBlock: KIFKEQ_clean_linker_1, # of connection points: 2
#     Edge 106, Type (0, 1), BuildingBlock: KIFKEQ_clean_linker_1, # of connection points: 2
#     Edge 107, Type (0, 1), BuildingBlock: KIFKEQ_clean_linker_1, # of connection points: 2
#     Edge 108, Type (0, 1), BuildingBlock: KIFKEQ_clean_linker_1, # of connection points: 2
#     Edge 109, Type (0, 1), BuildingBlock: KIFKEQ_clean_linker_1, # of connection points: 2
#     Edge 110, Type (0, 1), BuildingBlock: KIFKEQ_clean_linker_1, # of connection points: 2
#     Edge 111, Type (0, 1), BuildingBlock: KIFKEQ_clean_linker_1, # of connection points: 2
#     Edge 112, Type (0, 1), BuildingBlock: KIFKEQ_clean_linker_1, # of connection points: 2
#     Edge 113, Type (0, 1), BuildingBlock: KIFKEQ_clean_linker_1, # of connection points: 2
#     Edge 114, Type (0, 1), BuildingBlock: KIFKEQ_clean_linker_1, # of connection points: 2
#     Edge 115, Type (0, 1), BuildingBlock: KIFKEQ_clean_linker_1, # of connection points: 2
#     Edge 116, Type (0, 1), BuildingBlock: KIFKEQ_clean_linker_1, # of connection points: 2
#     Edge 117, Type (0, 1), BuildingBlock: KIFKEQ_clean_linker_1, # of connection points: 2
#     Edge 118, Type (0, 1), BuildingBlock: KIFKEQ_clean_linker_1, # of connection points: 2
#     Edge 119, Type (0, 1), BuildingBlock: KIFKEQ_clean_linker_1, # of connection points: 2
#     Edge 120, Type (0, 1), BuildingBlock: KIFKEQ_clean_linker_1, # of connection points: 2
#     Edge 121, Type (0, 1), BuildingBlock: KIFKEQ_clean_linker_1, # of connection points: 2
#     Edge 122, Type (0, 1), BuildingBlock: KIFKEQ_clean_linker_1, # of connection points: 2
#     Edge 123, Type (0, 1), BuildingBlock: KIFKEQ_clean_linker_1, # of connection points: 2
#     Edge 124, Type (0, 1), BuildingBlock: KIFKEQ_clean_linker_1, # of connection points: 2
#     Edge 125, Type (0, 1), BuildingBlock: KIFKEQ_clean_linker_1, # of connection points: 2
#     Edge 126, Type (0, 1), BuildingBlock: KIFKEQ_clean_linker_1, # of connection points: 2
#     Edge 127, Type (0, 1), BuildingBlock: KIFKEQ_clean_linker_1, # of connection points: 2
#     Edge 128, Type (0, 1), BuildingBlock: KIFKEQ_clean_linker_1, # of connection points: 2
#     Edge 129, Type (0, 1), BuildingBlock: KIFKEQ_clean_linker_1, # of connection points: 2
#     Edge 130, Type (0, 1), BuildingBlock: KIFKEQ_clean_linker_1, # of connection points: 2
#     Edge 131, Type (0, 1), BuildingBlock: KIFKEQ_clean_linker_1, # of connection points: 2
#     Edge 132, Type (0, 1), BuildingBlock: KIFKEQ_clean_linker_1, # of connection points: 2
#     Edge 133, Type (0, 1), BuildingBlock: KIFKEQ_clean_linker_1, # of connection points: 2
#     Edge 134, Type (0, 1), BuildingBlock: KIFKEQ_clean_linker_1, # of connection points: 2
#     Edge 135, Type (0, 1), BuildingBlock: KIFKEQ_clean_linker_1, # of connection points: 2
# Relax obj value: 0.174
# Max RMSD: 0.299
# Mean RMSD: 0.146
data_MOF--net-gar--node1-KUFVIS_clean_sbu_0--node2-BETDIP_clean_sbu_0--edge1-KIFKEQ_clean_linker_1
_symmetry_space_group_name_H-M    P1
_symmetry_Int_Tables_number       1
_symmetry_cell_setting            triclinic
loop_
_symmetry_equiv_pos_as_xyz
'x, y, z'
_cell_length_a     63.576666
_cell_length_b     57.213047
_cell_length_c     56.147555
_cell_angle_alpha  96.506887
_cell_angle_beta   98.324
_cell_angle_gamma 100.94839
loop_
_atom_site_label
_atom_site_type_symbol
_atom_site_fract_x
_atom_site_fract_y
_atom_site_fract_z
_atom_type_partial_charge
Mn0 Mn 0.03845 0.31573 0.40523 0.0
Mn1 Mn 0.02454 0.34557 0.35898 0.0
C2 C 1.00284 0.31493 0.39219 0.0
C3 C 0.04871 0.28296 0.41918 0.0
C4 C 0.04032 0.36964 0.41086 0.0
O5 O 0.06563 0.32258 0.39114 0.0
O6 O 0.05524 0.34183 0.36029 0.0
C7 C 0.02633 0.30733 0.31953 0.0
N8 N 1.01508 0.32242 0.3302 0.0
C9 C 0.98338 0.30715 0.29945 0.0
C10 C 0.99468 0.29161 0.28801 0.0
C11 C 1.01622 0.29164 0.29816 0.0
C12 C 0.99424 0.32224 0.32082 0.0
H13 H 0.04286 0.3072 0.32727 0.0
C14 C 0.06935 0.33296 0.37296 0.0
O15 O 0.0544 0.30404 0.43233 0.0
O16 O 0.03669 0.28076 0.39794 0.0
N17 N 0.99532 0.35045 0.35451 0.0
C18 C 0.98667 0.36659 0.36766 0.0
C19 C 0.96531 0.36903 0.35978 0.0
C20 C 0.9531 0.35503 0.33832 0.0
C21 C 0.96246 0.33887 0.32481 0.0
C22 C 0.9839 0.33738 0.33346 0.0
H23 H 0.99585 0.37724 0.38423 0.0
O24 O 1.00901 0.30973 0.41366 0.0
O25 O 1.01759 0.31954 0.37852 0.0
O26 O 0.04324 0.35064 0.41935 0.0
O27 O 0.03333 0.37021 0.38842 0.0
C28 C 0.95135 0.32419 0.30309 0.0
C29 C 0.96173 0.30818 0.29054 0.0
H30 H 0.98696 0.27953 0.27149 0.0
H31 H 0.02501 0.2796 0.28953 0.0
H32 H 0.95822 0.38156 0.37032 0.0
H33 H 0.93656 0.35679 0.33241 0.0
H34 H 0.93476 0.32495 0.29597 0.0
H35 H 0.95294 0.29679 0.27401 0.0
Mn36 Mn 0.07207 0.75512 0.7161 0.0
Mn37 Mn 0.09778 0.79752 0.76335 0.0
C38 C 0.10915 0.76686 0.72291 0.0
C39 C 0.05873 0.71632 0.69695 0.0
C40 C 0.07588 0.80911 0.71651 0.0
O41 O 0.04868 0.75564 0.73689 0.0
O42 O 0.06722 0.78509 0.76686 0.0
C43 C 0.09773 0.76555 0.80122 0.0
N44 N 0.10885 0.7816 0.78897 0.0
C45 C 0.14299 0.77994 0.81283 0.0
C46 C 0.1319 0.76347 0.82579 0.0
C47 C 0.10917 0.75622 0.81993 0.0
C48 C 0.13073 0.78864 0.7944 0.0
H49 H 0.08026 0.75988 0.79674 0.0
C50 C 0.05001 0.76963 0.75667 0.0
O51 O 0.0516 0.73421 0.68882 0.0
O52 O 0.07187 0.72077 0.7177 0.0
N53 N 0.12755 0.81102 0.76246 0.0
C54 C 0.13581 0.82687 0.74808 0.0
C55 C 0.15834 0.83596 0.75166 0.0
C56 C 0.17211 0.82885 0.77011 0.0
C57 C 0.16321 0.81269 0.78482 0.0
C58 C 0.14062 0.80442 0.78055 0.0
H59 H 0.12529 0.83249 0.73395 0.0
O60 O 0.09878 0.7574 0.70135 0.0
O61 O 0.09758 0.7692 0.73999 0.0
O62 O 0.06859 0.78735 0.70696 0.0
O63 O 0.0874 0.8155 0.73764 0.0
C64 C 0.17587 0.80433 0.80344 0.0
C65 C 0.16574 0.78788 0.81735 0.0
H66 H 0.14068 0.75621 0.84022 0.0
H67 H 0.10049 0.74347 0.8298 0.0
H68 H 0.16508 0.84844 0.74024 0.0
H69 H 0.18946 0.83594 0.77286 0.0
H70 H 0.19341 0.81027 0.80706 0.0
H71 H 0.17553 0.7813 0.83144 0.0
Mn72 Mn 0.53901 0.81282 0.90543 0.0
Mn73 Mn 0.52199 0.84212 0.85995 0.0
C74 C 0.50293 0.81108 0.89469 0.0
C75 C 0.55087 0.78051 0.91864 0.0
C76 C 0.53898 0.8664 0.91157 0.0
O77 O 0.56518 0.82052 0.88978 0.0
O78 O 0.55288 0.83965 0.8597 0.0
C79 C 0.52346 0.80444 0.81982 0.0
N80 N 0.5122 0.81904 0.83118 0.0
C81 C 0.4799 0.80317 0.8014 0.0
C82 C 0.49123 0.78816 0.78925 0.0
C83 C 0.51308 0.78872 0.79857 0.0
C84 C 0.49108 0.81838 0.82256 0.0
H85 H 0.54023 0.8047 0.82696 0.0
C86 C 0.5678 0.83125 0.87158 0.0
O87 O 0.55661 0.80164 0.93167 0.0
O88 O 0.53799 0.77802 0.89791 0.0
N89 N 0.49247 0.84596 0.85686 0.0
C90 C 0.48369 0.86121 0.87097 0.0
C91 C 0.46193 0.86281 0.86415 0.0
C92 C 0.44947 0.84892 0.84277 0.0
C93 C 0.45892 0.83362 0.82833 0.0
C94 C 0.48075 0.83296 0.83592 0.0
H95 H 0.49307 0.87174 0.88751 0.0
O96 O 0.51046 0.80593 0.91575 0.0
O97 O 0.51662 0.81597 0.87981 0.0
O98 O 0.54329 0.84772 0.91979 0.0
O99 O 0.53103 0.86667 0.88935 0.0
C100 C 0.44744 0.81875 0.80688 0.0
C101 C 0.45789 0.80345 0.79349 0.0
H102 H 0.48327 0.77601 0.77285 0.0
H103 H 0.52189 0.77707 0.7894 0.0
H104 H 0.45474 0.87462 0.87544 0.0
H105 H 0.43263 0.85004 0.83768 0.0
H106 H 0.4305 0.81877 0.80065 0.0
H107 H 0.44883 0.79191 0.77716 0.0
Mn108 Mn 0.56395 0.24707 0.21307 0.0
Mn109 Mn 0.52065 0.23385 0.16813 0.0
C110 C 0.5546 0.20998 0.18952 0.0
C111 C 0.60091 0.2611 0.22541 0.0
C112 C 0.51724 0.23817 0.22168 0.0
O113 O 0.55877 0.27992 0.20725 0.0
O114 O 0.53115 0.26924 0.17521 0.0
C115 C 0.54174 0.24991 0.12739 0.0
N116 N 0.53021 0.23206 0.13733 0.0
C117 C 0.5286 0.20308 0.10218 0.0
C118 C 0.54038 0.22118 0.09151 0.0
C119 C 0.547 0.24468 0.1042 0.0
C120 C 0.52374 0.20939 0.12528 0.0
H121 H 0.54695 0.26798 0.13713 0.0
C122 C 0.5451 0.285 0.19067 0.0
O123 O 0.58768 0.2609 0.24107 0.0
O124 O 0.5925 0.25415 0.20271 0.0
N125 N 0.50973 0.1999 0.15986 0.0
C126 C 0.49975 0.18426 0.17336 0.0
C127 C 0.4928 0.15981 0.16366 0.0
C128 C 0.49617 0.15172 0.14022 0.0
C129 C 0.50646 0.16818 0.12667 0.0
C130 C 0.51291 0.19235 0.13722 0.0
H131 H 0.49723 0.19039 0.19143 0.0
O132 O 0.56583 0.21241 0.21121 0.0
O133 O 0.54855 0.22903 0.1832 0.0
O134 O 0.53752 0.2418 0.22993 0.0
O135 O 0.50936 0.235 0.19901 0.0
C136 C 0.51089 0.16149 0.10327 0.0
C137 C 0.52189 0.17894 0.091 0.0
H138 H 0.54459 0.21718 0.0737 0.0
H139 H 0.55619 0.25872 0.09614 0.0
H140 H 0.48493 0.14721 0.17427 0.0
H141 H 0.49092 0.13282 0.13287 0.0
H142 H 0.50612 0.14292 0.09465 0.0
H143 H 0.52537 0.17353 0.07312 0.0
Mn144 Mn 0.09025 0.80283 0.16783 0.0
Mn145 Mn 0.0507 0.78664 0.11797 0.0
C146 C 0.07944 0.76273 0.14921 0.0
C147 C 0.12702 0.81301 0.18832 0.0
C148 C 0.04077 0.79628 0.16886 0.0
O149 O 0.08938 0.83573 0.15544 0.0
O150 O 0.06197 0.82207 0.12363 0.0
C151 C 0.07805 0.79902 0.08093 0.0
N152 N 0.06395 0.78252 0.08977 0.0
C153 C 0.06385 0.75191 0.05658 0.0
C154 C 0.07832 0.7686 0.04708 0.0
C155 C 0.08547 0.79224 0.05934 0.0
C156 C 0.05699 0.75971 0.07814 0.0
H157 H 0.08359 0.8172 0.09029 0.0
C158 C 0.07599 0.83922 0.1373 0.0
O159 O 0.11101 0.81744 0.1988 0.0
O160 O 0.12199 0.80486 0.16525 0.0
N161 N 0.03816 0.75297 0.11013 0.0
C162 C 0.02433 0.73903 0.1218 0.0
C163 C 1.01578 0.71482 0.11198 0.0
C164 C 0.02131 0.70529 0.09013 0.0
C165 C 0.03524 0.72011 0.07821 0.0
C166 C 0.04315 0.74414 0.08879 0.0
H167 H 1.01997 0.74626 0.13857 0.0
O168 O 0.08824 0.76812 0.17196 0.0
O169 O 0.0768 0.78088 0.13792 0.0
O170 O 0.06061 0.80241 0.17958 0.0
O171 O 0.03542 0.7898 0.14593 0.0
C172 C 0.04178 0.71192 0.0564 0.0
C173 C 0.05611 0.72779 0.04562 0.0
H174 H 0.08412 0.76343 0.03045 0.0
H175 H 0.09667 0.80521 0.05214 0.0
H176 H 1.00498 0.70352 0.12125 0.0
H177 H 1.0148 0.68656 0.08269 0.0
H178 H 0.03603 0.69339 0.04787 0.0
H179 H 0.06116 0.72123 0.02894 0.0
Mn180 Mn 0.51595 0.76783 0.44974 0.0
Mn181 Mn 0.50966 0.7977 0.40109 0.0
C182 C 0.48083 0.76999 0.43054 0.0
C183 C 0.52087 0.73287 0.46746 0.0
C184 C 0.52309 0.82303 0.45317 0.0
O185 O 0.54622 0.7717 0.43874 0.0
O186 O 0.53818 0.78856 0.40529 0.0
C187 C 0.50869 0.75745 0.36262 0.0
N188 N 0.49941 0.77517 0.37206 0.0
C189 C 0.47083 0.7672 0.33729 0.0
C190 C 0.48011 0.7489 0.3271 0.0
C191 C 0.49904 0.7439 0.33991 0.0
C192 C 0.48093 0.77975 0.36018 0.0
H193 H 0.52338 0.75376 0.3723 0.0
C194 C 0.5512 0.77968 0.41937 0.0
O195 O 0.52699 0.75439 0.47955 0.0
O196 O 0.51202 0.73152 0.44484 0.0
N197 N 0.48285 0.80807 0.39408 0.0
C198 C 0.47614 0.82653 0.40629 0.0
C199 C 0.45746 0.83389 0.39591 0.0
C200 C 0.44622 0.82266 0.37282 0.0
C201 C 0.45378 0.80418 0.36031 0.0
C202 C 0.47236 0.79745 0.37166 0.0
H203 H 0.48498 0.83562 0.42379 0.0
O204 O 0.48407 0.76475 0.4525 0.0
O205 O 0.49794 0.77301 0.42016 0.0
O206 O 0.52193 0.80408 0.46343 0.0
O207 O 0.51978 0.82246 0.43011 0.0
C208 C 0.44373 0.7923 0.33693 0.0
C209 C 0.45207 0.77361 0.32555 0.0
H210 H 0.47285 0.73859 0.30947 0.0
H211 H 0.50628 0.72979 0.3322 0.0
H212 H 0.45185 0.84832 0.4056 0.0
H213 H 0.43185 0.82842 0.36484 0.0
H214 H 0.42943 0.79725 0.32761 0.0
H215 H 0.44399 0.76438 0.30772 0.0
Mn216 Mn 0.59072 0.30462 0.66697 0.0
Mn217 Mn 0.55094 0.2886 0.61734 0.0
C218 C 0.57936 0.26442 0.64869 0.0
C219 C 0.62765 0.31438 0.68701 0.0
C220 C 0.54133 0.29874 0.66831 0.0
O221 O 0.59024 0.33746 0.65429 0.0
O222 O 0.5625 0.324 0.62281 0.0
C223 C 0.57825 0.30043 0.58012 0.0
N224 N 0.56405 0.28414 0.58907 0.0
C225 C 0.56362 0.25329 0.55598 0.0
C226 C 0.57819 0.26977 0.54637 0.0
C227 C 0.58555 0.29343 0.55851 0.0
C228 C 0.55687 0.26132 0.57754 0.0
H229 H 0.58395 0.31863 0.5894 0.0
C230 C 0.57679 0.34104 0.63626 0.0
O231 O 0.61193 0.31937 0.6977 0.0
O232 O 0.62224 0.30588 0.66404 0.0
N233 N 0.53811 0.25498 0.60965 0.0
C234 C 0.52427 0.24124 0.62147 0.0
C235 C 0.51555 0.21702 0.6118 0.0
C236 C 0.52094 0.20728 0.58995 0.0
C237 C 0.53488 0.2219 0.57787 0.0
C238 C 0.54297 0.24595 0.58831 0.0
H239 H 0.52002 0.24863 0.63825 0.0
O240 O 0.58828 0.26991 0.6714 0.0
O241 O 0.57692 0.28254 0.63726 0.0
O242 O 0.56121 0.30484 0.67893 0.0
O243 O 0.53586 0.29209 0.6454 0.0
C244 C 0.5413 0.21349 0.55606 0.0
C245 C 0.55569 0.22916 0.54515 0.0
H246 H 0.5839 0.26442 0.52973 0.0
H247 H 0.59682 0.30623 0.55123 0.0
H248 H 0.50475 0.20587 0.62119 0.0
H249 H 0.51434 0.18854 0.58265 0.0
H250 H 0.53542 0.19494 0.54764 0.0
H251 H 0.56064 0.22243 0.52847 0.0
Mn252 Mn 1.01697 0.26707 0.95041 0.0
Mn253 Mn 1.01075 0.29676 0.9015 0.0
C254 C 0.9819 0.26842 0.93064 0.0
C255 C 0.02222 0.23233 0.96851 0.0
C256 C 0.02164 0.32246 0.95337 0.0
O257 O 0.04728 0.27121 0.94024 0.0
O258 O 0.04067 0.29109 0.90862 0.0
C259 C 1.01508 0.25698 0.86518 0.0
N260 N 1.00378 0.27358 0.87274 0.0
C261 C 0.97666 0.26169 0.83658 0.0
C262 C 0.98808 0.24457 0.82831 0.0
C263 C 1.00732 0.24213 0.84273 0.0
C264 C 0.98508 0.2758 0.85921 0.0
H265 H 0.0299 0.2551 0.87619 0.0
C266 C 0.05333 0.28178 0.92273 0.0
O267 O 0.02794 0.2539 0.98054 0.0
O268 O 1.01345 0.23081 0.94584 0.0
N269 N 0.983 0.30416 0.89147 0.0
C270 C 0.97392 0.32151 0.90209 0.0
C271 C 0.95477 0.32652 0.88986 0.0
C272 C 0.94532 0.31392 0.86668 0.0
C273 C 0.95515 0.29644 0.85591 0.0
C274 C 0.97434 0.2924 0.86888 0.0
H275 H 0.98115 0.33135 0.91984 0.0
O276 O 0.98513 0.26363 0.95276 0.0
O277 O 0.9991 0.27161 0.9203 0.0
O278 O 0.0227 0.30367 0.96362 0.0
O279 O 1.01728 0.32171 0.93032 0.0
C280 C 0.94654 0.28271 0.83292 0.0
C281 C 0.95721 0.26522 0.82334 0.0
H282 H 0.98219 0.23314 0.81096 0.0
H283 H 1.01617 0.22889 0.83652 0.0
H284 H 0.94729 0.34005 0.89829 0.0
H285 H 0.93047 0.31772 0.85736 0.0
H286 H 0.93162 0.2853 0.82256 0.0
H287 H 0.95032 0.25461 0.80576 0.0
Mn288 Mn 0.42916 0.05611 0.28727 0.0
Mn289 Mn 0.39007 0.04945 0.32377 0.0
C290 C 0.40976 1.01559 0.29282 0.0
C291 C 0.44509 0.05787 0.24775 0.0
C292 C 0.43898 0.06131 0.34569 0.0
O293 O 0.41843 0.09118 0.2896 0.0
O294 O 0.39322 0.08255 0.31332 0.0
C295 C 0.35226 0.05046 0.28644 0.0
N296 N 0.36198 0.03931 0.30381 0.0
C297 C 0.33068 1.00675 0.29753 0.0
C298 C 0.32024 1.01808 0.27985 0.0
C299 C 0.33113 0.03997 0.2742 0.0
C300 C 0.35178 1.01804 0.3091 0.0
H301 H 0.36058 0.06717 0.28183 0.0
C302 C 0.4029 0.0973 0.30069 0.0
O303 O 0.4558 0.06608 0.26942 0.0
O304 O 0.42456 0.05036 0.24849 0.0
N305 N 0.38396 1.01901 0.3353 0.0
C306 C 0.39636 1.01012 0.35255 0.0
C307 C 0.38786 0.98823 0.36011 0.0
C308 C 0.36663 0.97579 0.35008 0.0
C309 C 0.35402 0.98546 0.3327 0.0
C310 C 0.36329 1.00747 0.32602 0.0
H311 H 0.41267 1.01953 0.36047 0.0
O312 O 0.42873 1.01952 0.28627 0.0
O313 O 0.40258 0.03548 0.29618 0.0
O314 O 0.44542 0.06188 0.32481 0.0
O315 O 0.41868 0.05872 0.34693 0.0
C316 C 0.3327 0.97398 0.32157 0.0
C317 C 0.32107 0.98456 0.30392 0.0
H318 H 0.30394 1.01004 0.27035 0.0
H319 H 0.32325 0.04873 0.26042 0.0
H320 H 0.39768 0.98092 0.37358 0.0
H321 H 0.36019 0.95879 0.35579 0.0
H322 H 0.32517 0.95687 0.32626 0.0
H323 H 0.30477 0.97543 0.29529 0.0
Mn324 Mn 0.26951 0.1785 0.53935 0.0
Mn325 Mn 0.25542 0.13174 0.49379 0.0
C326 C 0.23284 0.15832 0.52747 0.0
C327 C 0.27925 0.195 0.58099 0.0
C328 C 0.26926 0.18366 0.48498 0.0
O329 O 0.29848 0.1672 0.53809 0.0
O330 O 0.28651 0.13513 0.50859 0.0
C331 C 0.25931 0.09108 0.52119 0.0
N332 N 0.24701 0.10218 0.50606 0.0
C333 C 0.21563 0.07024 0.50287 0.0
C334 C 0.22798 0.05842 0.51834 0.0
C335 C 0.24991 0.0689 0.52755 0.0
C336 C 0.22595 0.09216 0.49693 0.0
H337 H 0.27615 0.0991 0.52839 0.0
C338 C 0.30154 0.14872 0.5248 0.0
O339 O 0.28376 0.20761 0.56388 0.0
O340 O 0.27 0.17254 0.574 0.0
N341 N 0.22563 0.12671 0.47877 0.0
C342 C 0.21557 0.1414 0.46577 0.0
C343 C 0.19329 0.13415 0.45626 0.0
C344 C 0.18162 0.1119 0.46022 0.0
C345 C 0.19233 0.09712 0.47369 0.0
C346 C 0.21459 0.10522 0.48258 0.0
H347 H 0.22442 0.15861 0.46286 0.0
O348 O 0.23786 0.18063 0.53768 0.0
O349 O 0.24941 0.14913 0.52341 0.0
O350 O 0.27167 0.1931 0.50724 0.0
O351 O 0.26344 0.16097 0.47835 0.0
C352 C 0.18169 0.07492 0.47913 0.0
C353 C 0.19335 0.06146 0.49365 0.0
H354 H 0.22074 0.04142 0.52349 0.0
H355 H 0.25953 0.05993 0.53958 0.0
H356 H 0.18511 0.14573 0.44601 0.0
H357 H 0.16439 0.10647 0.45304 0.0
H358 H 0.16448 0.06821 0.47254 0.0
H359 H 0.18491 0.04459 0.49799 0.0
Mn360 Mn 0.15438 0.0705 0.82654 0.0
Mn361 Mn 0.19704 0.08101 0.87284 0.0
C362 C 0.1768 0.10894 0.83795 0.0
C363 C 0.13892 0.0606 0.78479 0.0
C364 C 0.15006 0.07148 0.88074 0.0
O365 O 0.16061 0.03684 0.82879 0.0
O366 O 0.19024 0.04661 0.85863 0.0
C367 C 0.23252 0.07155 0.84677 0.0
N368 N 0.22416 0.08675 0.8614 0.0
C369 C 0.25698 0.11721 0.86738 0.0
C370 C 0.26596 0.10191 0.85234 0.0
C371 C 0.25364 0.07901 0.84193 0.0
C372 C 0.23586 0.10882 0.8715 0.0
H373 H 0.22316 0.05386 0.83892 0.0
C374 C 0.17636 0.03142 0.84259 0.0
O375 O 0.12724 0.058 0.80182 0.0
O376 O 0.15968 0.06832 0.79195 0.0
N377 N 0.20501 0.11396 0.88749 0.0
C378 C 0.19321 0.12726 0.89966 0.0
C379 C 0.20271 0.1511 0.91007 0.0
C380 C 0.22428 0.16089 0.90807 0.0
C381 C 0.23606 0.14682 0.89543 0.0
C382 C 0.22567 0.12328 0.88523 0.0
H383 H 0.17666 0.11975 0.90131 0.0
O384 O 0.15677 0.10642 0.82733 0.0
O385 O 0.18251 0.08918 0.84267 0.0
O386 O 0.14131 0.06994 0.85846 0.0
O387 O 0.17057 0.0756 0.88756 0.0
C388 C 0.25761 0.15533 0.89228 0.0
C389 C 0.26804 0.14058 0.87817 0.0
H390 H 0.28222 0.1076 0.84854 0.0
H391 H 0.26045 0.0671 0.83029 0.0
H392 H 0.19346 0.16187 0.91969 0.0
H393 H 0.23156 0.17929 0.91614 0.0
H394 H 0.26618 0.17336 0.90027 0.0
H395 H 0.28446 0.14754 0.87544 0.0
Mn396 Mn 0.261 0.88815 0.9975 0.0
Mn397 Mn 0.25116 0.93377 0.96809 0.0
C398 C 0.28759 0.90943 0.98036 0.0
C399 C 0.27268 0.87323 0.03195 0.0
C400 C 0.23442 0.88168 0.94652 0.0
O401 O 0.23504 0.89606 1.01064 0.0
O402 O 0.22895 0.92604 0.9894 0.0
C403 C 0.26051 0.97163 1.01105 0.0
N404 N 0.26479 0.96318 0.98896 0.0
C405 C 0.2942 0.99722 0.99133 0.0
C406 C 0.28996 1.00636 1.01398 0.0
C407 C 0.27304 0.9935 0.02387 0.0
C408 C 0.28097 0.97548 0.97921 0.0
H409 H 0.24773 0.96171 0.01893 0.0
C410 C 0.22454 0.91209 1.00521 0.0
O411 O 0.25947 0.85937 1.0138 0.0
O412 O 0.27861 0.89587 0.03028 0.0
N413 N 0.27216 0.94317 0.9478 0.0
C414 C 0.27558 0.9308 0.92699 0.0
C415 C 0.2925 0.94079 0.91529 0.0
C416 C 0.30582 0.9633 0.92515 0.0
C417 C 0.30213 0.97561 0.94668 0.0
C418 C 0.28483 0.96493 0.95738 0.0
H419 H 0.2658 0.91322 0.91968 0.0
O420 O 0.288 0.8874 0.98359 0.0
O421 O 0.27118 0.91772 0.98642 0.0
O422 O 0.24216 0.87341 0.96517 0.0
O423 O 0.23719 0.90415 0.94504 0.0
C424 C 0.31541 0.99768 0.95837 0.0
C425 C 0.31143 1.00849 0.98066 0.0
H426 H 0.29977 0.02308 0.02408 0.0
H427 H 0.26978 1.00034 0.04144 0.0
H428 H 0.29554 0.93099 0.89894 0.0
H429 H 0.31909 0.97074 0.9163 0.0
H430 H 0.32898 1.00628 0.9506 0.0
H431 H 0.32199 0.02525 0.98967 0.0
Mn432 Mn 0.33569 0.40184 0.08237 0.0
Mn433 Mn 0.34331 0.44876 0.05026 0.0
C434 C 0.37123 0.42165 0.07944 0.0
C435 C 0.32969 0.38469 0.11828 0.0
C436 C 0.33027 0.39675 0.02617 0.0
O437 O 0.30568 0.41177 0.07865 0.0
O438 O 0.31362 0.44323 0.05844 0.0
C439 C 0.34189 0.48716 0.08964 0.0
N440 N 0.35236 0.47807 0.07239 0.0
C441 C 0.3813 0.51322 0.08103 0.0
C442 C 0.37081 0.52305 0.09882 0.0
C443 C 0.35108 0.50989 0.10323 0.0
C444 C 0.37153 0.49036 0.06831 0.0
H445 H 0.32665 0.47716 0.09293 0.0
C446 C 0.30047 0.42932 0.06847 0.0
O447 O 0.32384 0.37246 0.09667 0.0
O448 O 0.33888 0.40719 0.11921 0.0
N449 N 0.37108 0.45677 0.04053 0.0
C450 C 0.37913 0.44468 0.0228 0.0
C451 C 0.39883 0.45532 0.0162 0.0
C452 C 0.40977 0.47848 0.02748 0.0
C453 C 0.40088 0.4908 0.04524 0.0
C454 C 0.38127 0.47924 0.05116 0.0
H455 H 0.37061 0.42704 1.01377 0.0
O456 O 0.36746 0.40004 0.08511 0.0
O457 O 0.35426 0.43133 0.07622 0.0
O458 O 0.33023 0.3874 0.04583 0.0
O459 O 0.33447 0.41943 0.0259 0.0
C460 C 0.41069 0.51413 0.05728 0.0
C461 C 0.40105 0.52522 0.07536 0.0
H462 H 0.37776 0.54065 0.10922 0.0
H463 H 0.3429 0.51732 0.11697 0.0
H464 H 0.40551 0.44574 1.00237 0.0
H465 H 0.42498 0.48662 0.02237 0.0
H466 H 0.42577 0.52361 0.05293 0.0
H467 H 0.40893 0.54301 0.08475 0.0
Mn468 Mn 0.84723 0.19928 0.09973 0.0
Mn469 Mn 0.82177 0.1539 0.05495 0.0
C470 C 0.81335 0.17793 0.10167 0.0
C471 C 0.86938 0.21535 0.13653 0.0
C472 C 0.82152 0.2057 0.0513 0.0
O473 O 0.87204 0.19318 0.08294 0.0
O474 O 0.85278 0.16479 0.05256 0.0
C475 C 0.84583 0.11795 0.07265 0.0
N476 N 0.82663 0.12451 0.0656 0.0
C477 C 0.8062 0.08617 0.07122 0.0
C478 C 0.82575 0.07896 0.07843 0.0
C479 C 0.84565 0.09497 0.07925 0.0
C480 C 0.8074 0.1094 0.06515 0.0
H481 H 0.86116 0.13016 0.07323 0.0
C482 C 0.87045 0.17901 0.06333 0.0
O483 O 0.86568 0.22856 0.11969 0.0
O484 O 0.86166 0.19233 0.1311 0.0
N485 N 0.79158 0.14092 0.05406 0.0
C486 C 0.77419 0.15035 0.04592 0.0
C487 C 0.75308 0.13636 0.04325 0.0
C488 C 0.75006 0.11268 0.04857 0.0
C489 C 0.76819 0.10318 0.05645 0.0
C490 C 0.78885 0.1179 0.05851 0.0
H491 H 0.77639 0.1684 0.04138 0.0
O492 O 0.82041 0.19938 0.1137 0.0
O493 O 0.82646 0.16903 0.08915 0.0
O494 O 0.83453 0.21416 0.07117 0.0
O495 O 0.81543 0.18329 0.04332 0.0
C496 C 0.76658 0.07966 0.06225 0.0
C497 C 0.78557 0.07122 0.06982 0.0
H498 H 0.82568 0.0612 0.0834 0.0
H499 H 0.86081 0.08956 0.08485 0.0
H500 H 0.73917 0.14377 0.03699 0.0
H501 H 0.73376 0.1019 0.04644 0.0
H502 H 0.75081 0.06794 0.06102 0.0
H503 H 0.78412 0.05315 0.07436 0.0
Mn504 Mn 0.17576 0.52686 0.31266 0.0
Mn505 Mn 0.21848 0.54035 0.35922 0.0
C506 C 0.19622 0.56857 0.32474 0.0
C507 C 0.1568 0.52011 0.26912 0.0
C508 C 0.17095 0.52927 0.36931 0.0
O509 O 0.18724 0.49262 0.31341 0.0
O510 O 0.21503 0.50502 0.34483 0.0
C511 C 0.25446 0.5347 0.33224 0.0
N512 N 0.24522 0.54864 0.34722 0.0
C513 C 0.27492 0.5825 0.34996 0.0
C514 C 0.28479 0.56841 0.33476 0.0
C515 C 0.2745 0.54442 0.32584 0.0
C516 C 0.25503 0.57177 0.35594 0.0
H517 H 0.24661 0.51631 0.32511 0.0
C518 C 0.20414 0.48837 0.32753 0.0
O519 O 0.14748 0.51394 0.28715 0.0
O520 O 0.17765 0.52787 0.27574 0.0
N521 N 0.22448 0.57337 0.37396 0.0
C522 C 0.21209 0.58517 0.3869 0.0
C523 C 0.21971 0.60962 0.39626 0.0
C524 C 0.23996 0.62174 0.39224 0.0
C525 C 0.25242 0.60928 0.37886 0.0
C526 C 0.24406 0.58484 0.37011 0.0
H527 H 0.19641 0.57613 0.38991 0.0
O528 O 0.17587 0.56325 0.31485 0.0
O529 O 0.20365 0.54927 0.32879 0.0
O530 O 0.1625 0.52558 0.34637 0.0
O531 O 0.19173 0.53335 0.37541 0.0
C532 C 0.27255 0.62031 0.37337 0.0
C533 C 0.2838 0.60693 0.35896 0.0
H534 H 0.30017 0.5759 0.3296 0.0
H535 H 0.28195 0.53348 0.31396 0.0
H536 H 0.20993 0.61915 0.40643 0.0
H537 H 0.24568 0.64067 0.39927 0.0
H538 H 0.27937 0.63919 0.37983 0.0
H539 H 0.29913 0.61571 0.35459 0.0
Mn540 Mn 0.83472 0.902 0.58244 0.0
Mn541 Mn 0.84246 0.94903 0.5505 0.0
C542 C 0.8703 0.92174 0.57954 0.0
C543 C 0.82865 0.88462 0.61817 0.0
C544 C 0.8294 0.89709 0.52628 0.0
O545 O 0.80474 0.91201 0.57877 0.0
O546 O 0.81273 0.94347 0.55855 0.0
C547 C 0.84094 0.9873 0.58995 0.0
N548 N 0.85146 0.97827 0.57273 0.0
C549 C 0.88041 1.01343 0.58155 0.0
C550 C 0.86985 0.02319 0.59932 0.0
C551 C 0.85009 1.01 0.60363 0.0
C552 C 0.87066 0.99059 0.56876 0.0
H553 H 0.82567 0.97728 0.59316 0.0
C554 C 0.79955 0.92957 0.56857 0.0
O555 O 0.82277 0.87253 0.59651 0.0
O556 O 0.83789 0.90713 0.61928 0.0
N557 N 0.87026 0.9571 0.54085 0.0
C558 C 0.87832 0.94512 0.52306 0.0
C559 C 0.89803 0.95582 0.51652 0.0
C560 C 0.90897 0.97893 0.52793 0.0
C561 C 0.90007 0.99116 0.54574 0.0
C562 C 0.88045 0.97954 0.5516 0.0
H563 H 0.8698 0.92752 0.51393 0.0
O564 O 0.86646 0.90011 0.58513 0.0
O565 O 0.85336 0.9315 0.5764 0.0
O566 O 0.82926 0.88771 0.5459 0.0
O567 O 0.83368 0.91978 0.52605 0.0
C568 C 0.90985 1.01445 0.55789 0.0
C569 C 0.90017 0.02547 0.57598 0.0
H570 H 0.87678 0.04077 0.60978 0.0
H571 H 0.84187 1.01738 0.61735 0.0
H572 H 0.90471 0.94632 0.50264 0.0
H573 H 0.92418 0.98712 0.52287 0.0
H574 H 0.92495 0.02397 0.55361 0.0
H575 H 0.90803 0.04324 0.58543 0.0
Mn576 Mn 0.95479 1.00282 0.27773 0.0
Mn577 Mn 0.91208 1.00126 0.30806 0.0
C578 C 0.93229 0.96593 0.28021 0.0
C579 C 0.97034 1.0083 0.24219 0.0
C580 C 0.95911 1.01104 0.33358 0.0
O581 O 0.95023 0.03749 0.28066 0.0
O582 O 0.91954 0.03291 0.29709 0.0
C583 C 0.87766 1.00418 0.26763 0.0
N584 N 0.88506 0.99275 0.2861 0.0
C585 C 0.85107 0.96412 0.28011 0.0
C586 C 0.84303 0.97562 0.26106 0.0
C587 C 0.85643 0.99566 0.25472 0.0
C588 C 0.8724 0.97333 0.2922 0.0
H589 H 0.88789 1.0197 0.26287 0.0
C590 C 0.93443 0.04539 0.28799 0.0
O591 O 0.98191 1.01264 0.26383 0.0
O592 O 0.94962 1.00022 0.24097 0.0
N593 N 0.90281 0.97166 0.31999 0.0
C594 C 0.91344 0.96195 0.33798 0.0
C595 C 0.90247 0.94151 0.3462 0.0
C596 C 0.88062 0.93152 0.33614 0.0
C597 C 0.86998 0.94193 0.31777 0.0
C598 C 0.88174 0.9623 0.31035 0.0
H599 H 0.93012 0.96978 0.34605 0.0
O600 O 0.95176 0.96678 0.27528 0.0
O601 O 0.92651 0.98649 0.28327 0.0
O602 O 0.96767 1.00752 0.31456 0.0
O603 O 0.93877 1.00993 0.33268 0.0
C604 C 0.84829 0.93268 0.30627 0.0
C605 C 0.83888 0.9437 0.28737 0.0
H606 H 0.82665 0.96914 0.25108 0.0
H607 H 0.85036 1.00459 0.24 0.0
H608 H 0.91079 0.93357 0.36037 0.0
H609 H 0.87221 0.91578 0.34255 0.0
H610 H 0.83883 0.91686 0.31153 0.0
H611 H 0.82231 0.93619 0.2784 0.0
Mn612 Mn 0.3493 0.70061 0.59832 0.0
Mn613 Mn 0.32943 0.65432 0.55292 0.0
C614 C 0.31607 0.67631 0.59738 0.0
C615 C 0.36752 0.71929 0.63616 0.0
C616 C 0.32508 0.7047 0.54834 0.0
O617 O 0.37647 0.69688 0.58504 0.0
O618 O 0.36025 0.66917 0.55271 0.0
C619 C 0.35709 0.6224 0.57288 0.0
N620 N 0.33704 0.6263 0.56443 0.0
C621 C 0.31984 0.58639 0.56971 0.0
C622 C 0.34031 0.58194 0.57837 0.0
C623 C 0.359 0.60006 0.58005 0.0
C624 C 0.31893 0.60912 0.56315 0.0
H625 H 0.37152 0.63621 0.57415 0.0
C626 C 0.37683 0.68406 0.56515 0.0
O627 O 0.3643 0.73133 0.61824 0.0
O628 O 0.36196 0.69594 0.63144 0.0
N629 N 0.29991 0.63755 0.54998 0.0
C630 C 0.28152 0.64423 0.53993 0.0
C631 C 0.26152 0.62776 0.5359 0.0
C632 C 0.26065 0.60445 0.54184 0.0
C633 C 0.27981 0.5978 0.55166 0.0
C634 C 0.29933 0.61489 0.55497 0.0
H635 H 0.28209 0.66197 0.5349 0.0
O636 O 0.32069 0.69809 0.60885 0.0
O637 O 0.33106 0.66889 0.58687 0.0
O638 O 0.33769 0.71384 0.56825 0.0
O639 O 0.32025 0.68222 0.54051 0.0
C640 C 0.28034 0.57477 0.55802 0.0
C641 C 0.30033 0.56914 0.56724 0.0
H642 H 0.34187 0.56467 0.58377 0.0
H643 H 0.37485 0.59678 0.58676 0.0
H644 H 0.24682 0.63297 0.52809 0.0
H645 H 0.24521 0.59173 0.5386 0.0
H646 H 0.26548 0.56126 0.55586 0.0
H647 H 0.30054 0.5514 0.57213 0.0
Mn648 Mn 0.45444 0.50314 0.77961 0.0
Mn649 Mn 0.41286 0.50113 0.81162 0.0
C650 C 0.43147 0.46628 0.78111 0.0
C651 C 0.46842 0.50949 0.7434 0.0
C652 C 0.46028 0.50932 0.83546 0.0
O653 O 0.4509 0.53812 0.78475 0.0
O654 O 0.42066 0.53331 0.80199 0.0
C655 C 0.37784 0.50626 0.77292 0.0
N656 N 0.38541 0.49388 0.79046 0.0
C657 C 0.35112 0.46575 0.78444 0.0
C658 C 0.34291 0.47823 0.76634 0.0
C659 C 0.35636 0.4985 0.76048 0.0
C660 C 0.37269 0.47423 0.79608 0.0
H661 H 0.38812 0.52196 0.76855 0.0
C662 C 0.43558 0.5461 0.79318 0.0
O663 O 0.48097 0.51242 0.76437 0.0
O664 O 0.44775 0.5025 0.74331 0.0
N665 N 0.40344 0.47099 0.82248 0.0
C666 C 0.41421 0.46036 0.83953 0.0
C667 C 0.40319 0.43964 0.84722 0.0
C668 C 0.38114 0.43028 0.83758 0.0
C669 C 0.37036 0.44162 0.82016 0.0
C670 C 0.38218 0.46226 0.81326 0.0
H671 H 0.43105 0.46771 0.8473 0.0
O672 O 0.45059 0.46695 0.77524 0.0
O673 O 0.42628 0.48701 0.78561 0.0
O674 O 0.46832 0.50605 0.81601 0.0
O675 O 0.44007 0.50851 0.83532 0.0
C676 C 0.34846 0.43306 0.8091 0.0
C677 C 0.33888 0.44505 0.79117 0.0
H678 H 0.32634 0.47232 0.75674 0.0
H679 H 0.35015 0.50818 0.7465 0.0
H680 H 0.41162 0.43098 0.86067 0.0
H681 H 0.37269 0.41432 0.84359 0.0
H682 H 0.33894 0.41705 0.81397 0.0
H683 H 0.32214 0.43807 0.78252 0.0
Mn684 Mn 0.67522 0.02578 0.81138 0.0
Mn685 Mn 0.7178 0.03913 0.85815 0.0
C686 C 0.69561 0.06745 0.82378 0.0
C687 C 0.65644 1.01932 0.76779 0.0
C688 C 0.6702 0.02785 0.86793 0.0
O689 O 0.68673 0.99155 0.81204 0.0
O690 O 0.71439 1.00388 0.84362 0.0
C691 C 0.7539 0.03367 0.8313 0.0
N692 N 0.7446 0.04753 0.84629 0.0
C693 C 0.7743 0.08143 0.8493 0.0
C694 C 0.78425 0.06743 0.83409 0.0
C695 C 0.77398 0.04346 0.82503 0.0
C696 C 0.75438 0.07064 0.85514 0.0
H697 H 0.74607 1.0153 0.82407 0.0
C698 C 0.70357 0.98728 0.82624 0.0
O699 O 0.64703 1.01297 0.78571 0.0
O700 O 0.67727 0.02706 0.77453 0.0
N701 N 0.72374 0.0721 0.87303 0.0
C702 C 0.71131 0.08381 0.88599 0.0
C703 C 0.71891 0.10823 0.8955 0.0
C704 C 0.73918 0.1204 0.8916 0.0
C705 C 0.75168 0.10803 0.87821 0.0
C706 C 0.74335 0.08363 0.86931 0.0
H707 H 0.69561 0.07472 0.88891 0.0
O708 O 0.67528 0.06216 0.81378 0.0
O709 O 0.70304 0.04814 0.82774 0.0
O710 O 0.66183 0.02424 0.84498 0.0
O711 O 0.69098 0.032 0.87415 0.0
C712 C 0.77185 0.11913 0.87285 0.0
C713 C 0.78317 0.10584 0.85844 0.0
H714 H 0.79965 0.07497 0.82904 0.0
H715 H 0.78149 0.03258 0.81315 0.0
H716 H 0.70909 0.11769 0.90569 0.0
H717 H 0.74488 0.13931 0.89875 0.0
H718 H 0.77866 0.13799 0.87943 0.0
H719 H 0.79852 0.11466 0.85417 0.0
Mn720 Mn 0.77037 0.67995 0.03981 0.0
Mn721 Mn 0.75698 0.63291 0.9946 0.0
C722 C 0.73396 0.65908 0.02809 0.0
C723 C 0.77993 0.69677 0.08129 0.0
C724 C 0.7698 0.68478 0.98534 0.0
O725 O 0.79968 0.6694 0.03864 0.0
O726 O 0.78822 0.63711 1.00925 0.0
C727 C 0.76181 0.59278 0.02249 0.0
N728 N 0.74919 0.60341 1.0072 0.0
C729 C 0.7184 0.57077 1.0041 0.0
C730 C 0.73108 0.55942 0.01974 0.0
C731 C 0.75287 0.5705 0.02899 0.0
C732 C 0.72823 0.59286 0.9981 0.0
H733 H 0.77855 0.60125 0.02967 0.0
C734 C 0.80308 0.65111 0.02535 0.0
O735 O 0.78385 0.70943 0.06406 0.0
O736 O 0.77138 0.6741 0.07454 0.0
N737 N 0.72711 0.62712 0.97964 0.0
C738 C 0.71665 0.64139 0.96646 0.0
C739 C 0.69443 0.63352 0.9569 0.0
C740 C 0.68322 0.61108 0.96095 0.0
C741 C 0.69434 0.59673 0.97459 0.0
C742 C 0.71651 0.60548 0.98359 0.0
H743 H 0.72516 0.65871 0.96343 0.0
O744 O 0.7386 0.68141 0.03818 0.0
O745 O 0.75073 0.65022 0.02412 0.0
O746 O 0.77208 0.69436 1.00753 0.0
O747 O 0.76436 0.66205 0.97889 0.0
C748 C 0.68421 0.57432 0.98002 0.0
C749 C 0.69625 0.56131 0.99469 0.0
H750 H 0.72421 0.54232 0.02495 0.0
H751 H 0.76274 0.56189 0.04115 0.0
H752 H 0.68594 0.64476 0.94651 0.0
H753 H 0.66604 0.60515 0.9537 0.0
H754 H 0.66709 0.56708 0.97331 0.0
H755 H 0.6882 0.54425 0.99901 0.0
Mn756 Mn 0.92908 0.5558 0.78836 0.0
Mn757 Mn 0.89026 0.54937 0.82519 0.0
C758 C 0.90954 0.5153 0.79369 0.0
C759 C 0.94522 0.55764 0.74905 0.0
C760 C 0.93922 0.56077 0.8467 0.0
O761 O 0.91844 0.59088 0.79066 0.0
O762 O 0.89354 0.58248 0.81478 0.0
C763 C 0.85204 0.551 0.78872 0.0
N764 N 0.86177 0.5399 0.80612 0.0
C765 C 0.82932 0.50933 0.80264 0.0
C766 C 0.81884 0.52068 0.78499 0.0
C767 C 0.8303 0.54151 0.77789 0.0
C768 C 0.851 0.51964 0.81283 0.0
H769 H 0.86079 0.56694 0.78309 0.0
C770 C 0.90304 0.5971 0.80191 0.0
O771 O 0.95582 0.56581 0.77076 0.0
O772 O 0.92465 0.55014 0.7496 0.0
N773 N 0.88397 0.51896 0.83667 0.0
C774 C 0.89701 0.50886 0.85209 0.0
C775 C 0.88835 0.48719 0.85996 0.0
C776 C 0.86631 0.47628 0.85218 0.0
C777 C 0.85316 0.48707 0.83646 0.0
C778 C 0.86269 0.50868 0.82921 0.0
H779 H 0.91394 0.51714 0.85825 0.0
O780 O 0.92857 0.51929 0.78729 0.0
O781 O 0.90231 0.53519 0.79717 0.0
O782 O 0.94555 0.56148 0.82579 0.0
O783 O 0.91897 0.55814 0.84802 0.0
C784 C 0.83113 0.47686 0.82712 0.0
C785 C 0.81925 0.48791 0.81013 0.0
H786 H 0.8021 0.51336 0.77653 0.0
H787 H 0.8224 0.55023 0.76409 0.0
H788 H 0.89863 0.47891 0.872 0.0
H789 H 0.85973 0.45946 0.85814 0.0
H790 H 0.82328 0.46024 0.83249 0.0
H791 H 0.80247 0.4796 0.80267 0.0
Mn792 Mn 0.75885 0.38711 0.50179 0.0
Mn793 Mn 0.754 0.43372 0.47149 0.0
C794 C 0.78893 0.40973 0.49144 0.0
C795 C 0.76377 0.37132 0.53732 0.0
C796 C 0.74009 0.38178 0.44808 0.0
O797 O 0.72992 0.39351 0.50764 0.0
O798 O 0.72863 0.42595 0.48843 0.0
C799 C 0.75851 0.47167 0.5135 0.0
N800 N 0.76548 0.46322 0.49302 0.0
C801 C 0.79455 0.49809 0.49817 0.0
C802 C 0.78755 0.50725 0.51919 0.0
C803 C 0.76947 0.49396 0.52689 0.0
C804 C 0.78283 0.47589 0.48539 0.0
H805 H 0.74475 0.46143 0.51965 0.0
C806 C 0.72094 0.41048 0.50153 0.0
O807 O 0.75421 0.35772 0.51707 0.0
O808 O 0.77012 0.3942 0.53692 0.0
N809 N 0.77804 0.44305 0.45514 0.0
C810 C 0.78416 0.43051 0.43614 0.0
C811 C 0.80264 0.44073 0.42696 0.0
C812 C 0.81472 0.46368 0.43748 0.0
C813 C 0.80821 0.47619 0.45712 0.0
C814 C 0.78948 0.46521 0.46532 0.0
H815 H 0.77525 0.41267 0.42832 0.0
O816 O 0.78891 0.38778 0.49531 0.0
O817 O 0.77119 0.41739 0.49326 0.0
O818 O 0.74607 0.37294 0.46704 0.0
O819 O 0.74226 0.40434 0.4475 0.0
C820 C 0.81997 0.49877 0.46939 0.0
C821 C 0.81313 0.50973 0.48988 0.0
H822 H 0.79612 0.52431 0.52974 0.0
H823 H 0.76408 0.50082 0.54321 0.0
H824 H 0.80771 0.43083 0.41199 0.0
H825 H 0.82917 0.47134 0.43061 0.0
H826 H 0.83456 0.50764 0.46354 0.0
H827 H 0.82256 0.52686 0.49945 0.0
Mn828 Mn 0.65322 0.57192 0.32882 0.0
Mn829 Mn 0.6959 0.58254 0.37507 0.0
C830 C 0.67572 0.61035 0.33999 0.0
C831 C 0.63806 0.5617 0.28699 0.0
C832 C 0.64891 0.57322 0.38304 0.0
O833 O 0.65929 0.53824 0.3314 0.0
O834 O 0.68911 0.54813 0.36093 0.0
C835 C 0.7314 0.57295 0.34909 0.0
N836 N 0.72302 0.58822 0.36364 0.0
C837 C 0.75585 0.61866 0.36954 0.0
C838 C 0.76484 0.6033 0.35458 0.0
C839 C 0.75252 0.58037 0.34426 0.0
C840 C 0.73472 0.6103 0.37367 0.0
H841 H 0.72205 0.55525 0.34129 0.0
C842 C 0.67513 0.53285 0.34507 0.0
O843 O 0.6262 0.55932 0.30388 0.0
O844 O 0.65878 0.56943 0.29435 0.0
N845 N 0.70387 0.61552 0.38961 0.0
C846 C 0.69206 0.62887 0.4017 0.0
C847 C 0.70154 0.65275 0.412 0.0
C848 C 0.7231 0.66253 0.40996 0.0
C849 C 0.7349 0.6484 0.3974 0.0
C850 C 0.72452 0.62482 0.38732 0.0
H851 H 0.67551 0.62139 0.40336 0.0
O852 O 0.65572 0.60782 0.32929 0.0
O853 O 0.68135 0.59061 0.34489 0.0
O854 O 0.64009 0.57168 0.36077 0.0
O855 O 0.66942 0.5772 0.38977 0.0
C856 C 0.75644 0.65689 0.39422 0.0
C857 C 0.7669 0.64207 0.38023 0.0
H858 H 0.78111 0.60897 0.35078 0.0
H859 H 0.75934 0.56842 0.33268 0.0
H860 H 0.69228 0.66356 0.42155 0.0
H861 H 0.73038 0.68095 0.41794 0.0
H862 H 0.76499 0.67497 0.40208 0.0
H863 H 0.78332 0.649 0.37749 0.0
Tb864 Tb 0.03365 0.02564 0.04197 0.0
Tb865 Tb 0.07829 0.05306 0.07006 0.0
C866 C 0.99385 1.01539 0.02659 0.0
C867 C 0.97975 0.03297 0.02641 0.0
C868 C 0.98164 0.04977 0.04731 0.0
C869 C 0.9728 0.07006 0.04603 0.0
C870 C 0.96193 0.07409 0.02383 0.0
C871 C 0.95907 0.0568 1.00309 0.0
C872 C 0.96801 0.03637 1.00437 0.0
C873 C 0.06601 0.02888 0.01688 0.0
C874 C 0.04711 0.08395 0.04633 0.0
C875 C 0.11871 0.06631 0.07849 0.0
C876 C 0.135 0.05521 0.09137 0.0
C877 C 0.15505 0.05673 0.08349 0.0
C878 C 0.16686 0.03884 0.08708 0.0
C879 C 0.15854 1.0192 0.09837 0.0
C880 C 0.14001 1.01954 0.10914 0.0
C881 C 0.12829 0.03752 0.1057 0.0
C882 C 0.05063 0.04585 0.1013 0.0
C883 C 0.06291 0.99559 0.0697 0.0
O884 O 1.00232 1.01148 0.04813 0.0
O885 O 1.00822 1.01856 1.01213 0.0
O886 O 0.06283 0.0446 0.03286 0.0
O887 O 0.05015 1.01018 1.01423 0.0
O888 O 0.0317 0.0639 0.04123 0.0
O889 O 0.06709 0.08398 0.05722 0.0
O890 O 0.10789 0.05256 0.05852 0.0
O891 O 0.10604 0.07585 0.09148 0.0
O892 O 0.04706 0.03998 0.07844 0.0
O893 O 0.0707 0.05742 0.10707 0.0
O894 O 0.07905 1.01495 0.07354 0.0
O895 O 0.04315 0.99581 0.05846 0.0
H896 H 0.99095 0.04804 0.06447 0.0
H897 H 0.97478 0.08281 0.06242 0.0
H898 H 0.95063 0.05952 0.98577 0.0
H899 H 0.96674 0.0239 0.98794 0.0
H900 H 0.16033 0.07011 0.07221 0.0
H901 H 0.18107 0.03893 0.07849 0.0
H902 H 0.13353 1.00469 0.11815 0.0
H903 H 0.11278 0.03606 0.11189 0.0
Tb904 Tb 0.30945 0.78126 0.28436 0.0
Tb905 Tb 0.29996 0.80231 0.33427 0.0
C906 C 0.3067 0.76565 0.24047 0.0
C907 C 0.30688 0.77679 0.2186 0.0
C908 C 0.29877 0.79774 0.2168 0.0
C909 C 0.30133 0.80977 0.19694 0.0
C910 C 0.31237 0.80121 0.17894 0.0
C911 C 0.32075 0.7804 0.18112 0.0
C912 C 0.3179 0.76819 0.20081 0.0
C913 C 0.34173 0.77936 0.32007 0.0
C914 C 0.32699 0.8384 0.30305 0.0
C915 C 0.30299 0.81688 0.37842 0.0
C916 C 0.28868 0.81346 0.39639 0.0
C917 C 0.27544 0.79089 0.39636 0.0
C918 C 0.26645 0.78596 0.41684 0.0
C919 C 0.2705 0.80364 0.4375 0.0
C920 C 0.28062 0.82733 0.43564 0.0
C921 C 0.29003 0.83211 0.4153 0.0
C922 C 0.26744 0.80412 0.29877 0.0
C923 C 0.28218 0.74471 0.31548 0.0
O924 O 0.28964 0.76558 0.25114 0.0
O925 O 0.32507 0.77221 0.25566 0.0
O926 O 0.32471 0.78741 0.3214 0.0
O927 O 0.34052 0.77158 0.29734 0.0
O928 O 0.32085 0.821 0.28372 0.0
O929 O 0.32281 0.83353 0.32486 0.0
O930 O 0.30973 0.79771 0.37012 0.0
O931 O 0.29721 0.82936 0.3614 0.0
O932 O 0.2846 0.79633 0.29723 0.0
O933 O 0.26813 0.81077 0.32173 0.0
O934 O 0.28379 0.76339 0.33298 0.0
O935 O 0.29097 0.74798 0.2955 0.0
H936 H 0.29069 0.80489 0.23081 0.0
H937 H 0.29434 0.82551 0.19551 0.0
H938 H 0.32956 0.77361 0.16767 0.0
H939 H 0.32473 0.75235 0.20246 0.0
H940 H 0.27368 0.77644 0.38149 0.0
H941 H 0.25863 0.76753 0.41737 0.0
H942 H 0.28336 0.84151 0.45096 0.0
H943 H 0.29972 0.84984 0.41519 0.0
Tb944 Tb 0.57508 0.04566 0.54678 0.0
Tb945 Tb 0.52915 0.03879 0.56284 0.0
C946 C 0.61461 0.04451 0.54567 0.0
C947 C 0.63086 0.02884 0.5496 0.0
C948 C 0.63884 0.02367 0.57276 0.0
C949 C 0.65558 1.01067 0.57589 0.0
C950 C 0.66502 1.00282 0.55602 0.0
C951 C 0.65663 1.00759 0.53285 0.0
C952 C 0.63989 0.02037 0.52973 0.0
C953 C 0.54392 0.05165 0.50929 0.0
C954 C 0.54447 0.99315 0.54041 0.0
C955 C 0.48965 0.0398 0.5637 0.0
C956 C 0.47339 0.05501 0.5579 0.0
C957 C 0.4567 0.04756 0.53756 0.0
C958 C 0.4398 0.06009 0.5336 0.0
C959 C 0.43899 0.08039 0.54996 0.0
C960 C 0.45601 0.08817 0.56999 0.0
C961 C 0.47292 0.07568 0.57391 0.0
C962 C 0.5599 0.03264 0.60037 0.0
C963 C 0.55981 0.09139 0.56905 0.0
O964 O 0.60783 0.05458 0.56449 0.0
O965 O 0.59893 0.03726 0.52695 0.0
O966 O 0.54215 0.04689 0.53079 0.0
O967 O 0.56471 0.05424 0.50946 0.0
O968 O 0.56423 1.00667 0.54257 0.0
O969 O 0.52765 1.00199 0.54595 0.0
O970 O 0.4963 0.02821 0.54565 0.0
O971 O 0.50547 0.04841 0.58207 0.0
O972 O 0.56204 0.03748 0.57896 0.0
O973 O 0.53911 0.03008 0.59999 0.0
O974 O 0.54001 0.07788 0.56682 0.0
O975 O 0.57663 0.08246 0.56363 0.0
H976 H 0.63257 0.03009 0.58857 0.0
H977 H 0.66164 1.00754 0.59403 0.0
H978 H 0.66314 1.00157 0.51701 0.0
H979 H 0.63429 0.0241 0.51167 0.0
H980 H 0.45633 0.03158 0.52503 0.0
H981 H 0.42695 0.05329 0.51812 0.0
H982 H 0.45624 0.10389 0.5828 0.0
H983 H 0.48537 0.08198 0.58987 0.0
Tb984 Tb 0.2805 0.29377 0.8028 0.0
Tb985 Tb 0.32588 0.28211 0.81078 0.0
C986 C 0.24154 0.29611 0.80524 0.0
C987 C 0.22586 0.29502 0.82262 0.0
C988 C 0.21981 0.27446 0.83379 0.0
C989 C 0.20282 0.27274 0.84743 0.0
C990 C 0.19138 0.29144 0.85012 0.0
C991 C 0.19815 0.31233 0.83977 0.0
C992 C 0.21507 0.31404 0.82618 0.0
C993 C 0.31239 0.32624 0.79305 0.0
C994 C 0.30935 0.30345 0.85654 0.0
C995 C 0.3651 0.28102 0.80843 0.0
C996 C 0.38095 0.28334 0.79118 0.0
C997 C 0.3919 0.30608 0.78737 0.0
C998 C 0.40868 0.30816 0.7735 0.0
C999 C 0.41509 0.2876 0.7631 0.0
C1000 C 0.40374 0.26486 0.76646 0.0
C1001 C 0.38698 0.26278 0.78034 0.0
C1002 C 0.29412 0.24921 0.8203 0.0
C1003 C 0.29683 0.27213 0.75717 0.0
O1004 O 0.24781 0.2763 0.79838 0.0
O1005 O 0.25744 0.31505 0.80844 0.0
O1006 O 0.3132 0.31378 0.81007 0.0
O1007 O 0.29252 0.32199 0.78144 0.0
O1008 O 0.28982 0.29914 0.84273 0.0
O1009 O 0.3268 0.29984 0.84751 0.0
O1010 O 0.35843 0.30039 0.81606 0.0
O1011 O 0.34943 0.26177 0.80449 0.0
O1012 O 0.29315 0.26201 0.80354 0.0
O1013 O 0.31416 0.25317 0.83137 0.0
O1014 O 0.31653 0.27716 0.77074 0.0
O1015 O 0.27934 0.27498 0.76652 0.0
H1016 H 0.22773 0.25939 0.83139 0.0
H1017 H 0.19807 0.25634 0.85502 0.0
H1018 H 0.1901 0.32732 0.84183 0.0
H1019 H 0.21929 0.33006 0.8178 0.0
H1020 H 0.38787 0.32238 0.79553 0.0
H1021 H 0.4167 0.32597 0.77104 0.0
H1022 H 0.40827 0.24858 0.75907 0.0
H1023 H 0.37916 0.24501 0.78317 0.0
Tb1024 Tb 0.049 0.06249 0.56259 0.0
Tb1025 Tb 0.0597 1.01203 0.55163 0.0
C1026 C 0.0525 0.107 0.56896 0.0
C1027 C 0.05847 0.12506 0.55362 0.0
C1028 C 0.06657 0.11852 0.53253 0.0
C1029 C 0.07062 0.13492 0.51647 0.0
C1030 C 0.06622 0.15795 0.52117 0.0
C1031 C 0.05828 0.16451 0.54256 0.0
C1032 C 0.05449 0.14812 0.55877 0.0
C1033 C 1.01695 0.02844 0.57178 0.0
C1034 C 0.03736 0.03477 0.50792 0.0
C1035 C 0.05536 0.96729 0.54539 0.0
C1036 C 0.0506 0.9509 0.56294 0.0
C1037 C 0.04621 0.96007 0.58555 0.0
C1038 C 0.04496 0.94584 0.60398 0.0
C1039 C 0.04761 0.9221 0.5998 0.0
C1040 C 0.05081 0.91245 0.57677 0.0
C1041 C 0.05249 0.92691 0.55842 0.0
C1042 C 0.09158 0.04811 0.54739 0.0
C1043 C 0.07169 0.03991 0.60587 0.0
O1044 O 0.06816 0.0964 0.57705 0.0
O1045 O 0.03407 0.09182 0.56012 0.0
O1046 O 0.03479 0.02635 0.5652 0.0
O1047 O 1.01724 0.05125 0.57386 0.0
O1048 O 0.03933 0.05529 0.52273 0.0
O1049 O 0.04379 1.01571 0.51551 0.0
O1050 O 0.03974 0.97816 0.53817 0.0
O1051 O 0.07429 0.98215 0.55147 0.0
O1052 O 0.07136 0.04758 0.54333 0.0
O1053 O 0.09392 0.02652 0.55019 0.0
O1054 O 0.06834 1.01904 0.59149 0.0
O1055 O 0.06698 0.05943 0.59781 0.0
H1056 H 0.0692 0.10051 0.52825 0.0
H1057 H 0.07686 0.12945 0.50023 0.0
H1058 H 0.05431 0.182 0.54636 0.0
H1059 H 0.04787 0.15316 0.57487 0.0
H1060 H 0.0444 0.97847 0.58922 0.0
H1061 H 0.04238 0.95347 0.62162 0.0
H1062 H 0.05303 0.89413 0.57338 0.0
H1063 H 0.05597 0.91965 0.5411 0.0
Tb1064 Tb 0.3019 0.75903 0.8061 0.0
Tb1065 Tb 0.30589 0.81447 0.81578 0.0
C1066 C 0.30838 0.71797 0.79396 0.0
C1067 C 0.32732 0.70657 0.79304 0.0
C1068 C 0.33361 0.70045 0.77056 0.0
C1069 C 0.35037 0.68799 0.76913 0.0
C1070 C 0.36112 0.68125 0.79013 0.0
C1071 C 0.35525 0.68802 0.81272 0.0
C1072 C 0.33852 0.70052 0.81416 0.0
C1073 C 0.27781 0.77432 0.83586 0.0
C1074 C 0.34387 0.7922 0.84064 0.0
C1075 C 0.30507 0.8562 0.83445 0.0
C1076 C 0.28905 0.87171 0.83215 0.0
C1077 C 0.28418 0.88339 0.85334 0.0
C1078 C 0.26808 0.89695 0.85195 0.0
C1079 C 0.25655 0.89922 0.82928 0.0
C1080 C 0.26147 0.88752 0.808 0.0
C1081 C 0.27748 0.87373 0.80942 0.0
C1082 C 0.31979 0.79711 0.77698 0.0
C1083 C 0.26643 0.78254 0.77969 0.0
O1084 O 0.30563 0.73318 0.77847 0.0
O1085 O 0.30439 0.72527 0.81561 0.0
O1086 O 0.29666 0.78426 0.83375 0.0
O1087 O 0.27184 0.75389 0.82165 0.0
O1088 O 0.33305 0.77031 0.83053 0.0
O1089 O 0.33656 0.81199 0.83714 0.0
O1090 O 0.29896 0.83695 0.84429 0.0
O1091 O 0.31464 0.85179 0.81574 0.0
O1092 O 0.32092 0.79005 0.79721 0.0
O1093 O 0.31158 0.81628 0.77795 0.0
O1094 O 0.27308 0.80199 0.79618 0.0
O1095 O 0.27744 0.76516 0.77757 0.0
H1096 H 0.32529 0.7049 0.75398 0.0
H1097 H 0.3547 0.68333 0.7515 0.0
H1098 H 0.363 0.68284 0.8292 0.0
H1099 H 0.33407 0.7049 0.83178 0.0
H1100 H 0.29269 0.8818 0.87107 0.0
H1101 H 0.26476 0.90582 0.86865 0.0
H1102 H 0.25269 0.8887 0.7903 0.0
H1103 H 0.28062 0.86445 0.79281 0.0
Tb1104 Tb 0.53562 0.04848 0.03706 0.0
Tb1105 Tb 0.56956 0.03242 0.07044 0.0
C1106 C 0.50188 0.04994 1.00829 0.0
C1107 C 0.47843 0.04044 1.00476 0.0
C1108 C 0.46784 0.02967 0.98135 0.0
C1109 C 0.44626 1.01741 0.97756 0.0
C1110 C 0.43489 1.01606 0.99711 0.0
C1111 C 0.44515 0.02768 0.02043 0.0
C1112 C 0.46695 0.03965 0.02432 0.0
C1113 C 0.56695 0.08362 0.06128 0.0
C1114 C 0.52688 0.04 0.09293 0.0
C1115 C 0.60455 0.03137 0.09693 0.0
C1116 C 0.62625 0.04612 0.09833 0.0
C1117 C 0.62846 0.06888 0.09082 0.0
C1118 C 0.64894 0.0834 0.09258 0.0
C1119 C 0.66766 0.07522 0.10138 0.0
C1120 C 0.66539 0.05215 0.10844 0.0
C1121 C 0.64476 0.03772 0.10701 0.0
C1122 C 0.53912 0.99729 0.04429 0.0
C1123 C 0.57889 0.04218 0.0152 0.0
O1124 O 0.5133 0.03343 1.00565 0.0
O1125 O 0.51077 0.06679 0.02672 0.0
O1126 O 0.55836 0.0647 0.06848 0.0
O1127 O 0.55691 0.08373 0.03943 0.0
O1128 O 0.51854 0.04238 0.06998 0.0
O1129 O 0.5472 0.03648 0.09734 0.0
O1130 O 0.59032 0.04322 0.10388 0.0
O1131 O 0.59683 1.01673 0.07663 0.0
O1132 O 0.54767 1.01697 0.03872 0.0
O1133 O 0.54893 0.99607 0.06597 0.0
O1134 O 0.5871 0.04042 0.03834 0.0
O1135 O 0.55827 0.04462 1.01033 0.0
H1136 H 0.47654 0.02996 0.96611 0.0
H1137 H 0.43855 1.00859 0.95945 0.0
H1138 H 0.4366 0.0266 0.03575 0.0
H1139 H 0.47495 0.04759 0.04259 0.0
H1140 H 0.61429 0.07555 0.0838 0.0
H1141 H 0.65004 0.10119 0.08735 0.0
H1142 H 0.67953 0.04517 0.1149 0.0
H1143 H 0.64326 0.02006 0.11264 0.0
Tb1144 Tb 0.28338 0.2761 0.29512 0.0
Tb1145 Tb 0.32469 0.31003 0.319 0.0
C1146 C 0.24494 0.25275 0.28579 0.0
C1147 C 0.2245 0.25998 0.28926 0.0
C1148 C 0.2127 0.2496 0.306 0.0
C1149 C 0.19535 0.25883 0.31275 0.0
C1150 C 0.18925 0.27842 0.30258 0.0
C1151 C 0.20051 0.28814 0.285 0.0
C1152 C 0.21806 0.27909 0.27847 0.0
C1153 C 0.30633 0.29717 0.26486 0.0
C1154 C 0.28144 0.3335 0.31368 0.0
C1155 C 0.36147 0.33592 0.32079 0.0
C1156 C 0.38316 0.33045 0.32412 0.0
C1157 C 0.39925 0.34376 0.31359 0.0
C1158 C 0.41712 0.33432 0.30881 0.0
C1159 C 0.419 0.31137 0.31436 0.0
C1160 C 0.40403 0.29921 0.32721 0.0
C1161 C 0.38615 0.3087 0.33203 0.0
C1162 C 0.30895 0.28605 0.35292 0.0
C1163 C 0.3259 0.25218 0.30306 0.0
O1164 O 0.25815 0.25288 0.30597 0.0
O1165 O 0.25508 0.26223 0.26939 0.0
O1166 O 0.3032 0.30659 0.2852 0.0
O1167 O 0.29645 0.27467 0.26109 0.0
O1168 O 0.27082 0.31081 0.30412 0.0
O1169 O 0.30308 0.33732 0.32099 0.0
O1170 O 0.34914 0.32435 0.30058 0.0
O1171 O 0.35122 0.33556 0.33947 0.0
O1172 O 0.30111 0.28425 0.33061 0.0
O1173 O 0.32626 0.30306 0.35701 0.0
O1174 O 0.33684 0.27522 0.30952 0.0
O1175 O 0.30414 0.24816 0.29785 0.0
H1176 H 0.21753 0.23503 0.31472 0.0
H1177 H 0.18731 0.2512 0.32668 0.0
H1178 H 0.196 0.30301 0.27659 0.0
H1179 H 0.22697 0.28759 0.2656 0.0
H1180 H 0.39707 0.36045 0.30718 0.0
H1181 H 0.42865 0.34418 0.29919 0.0
H1182 H 0.40506 0.28147 0.33161 0.0
H1183 H 0.37376 0.29809 0.34003 0.0
Tb1184 Tb 0.5504 0.56199 0.06362 0.0
Tb1185 Tb 0.56168 0.51092 0.05298 0.0
C1186 C 0.55342 0.60636 0.06853 0.0
C1187 C 0.56038 0.62398 0.05312 0.0
C1188 C 0.56822 0.61675 0.03202 0.0
C1189 C 0.57318 0.63299 0.01604 0.0
C1190 C 0.56982 0.6565 0.02073 0.0
C1191 C 0.56214 0.66369 0.04211 0.0
C1192 C 0.55754 0.64749 0.05829 0.0
C1193 C 0.51797 0.52773 0.07126 0.0
C1194 C 0.54004 0.53329 1.00925 0.0
C1195 C 0.55985 0.46688 0.05049 0.0
C1196 C 0.55974 0.45194 0.07005 0.0
C1197 C 0.54091 0.43507 0.07115 0.0
C1198 C 0.54009 0.42231 0.09082 0.0
C1199 C 0.55815 0.42619 0.10955 0.0
C1200 C 0.57698 0.443 0.10842 0.0
C1201 C 0.57778 0.45581 0.08888 0.0
C1202 C 0.59366 0.54567 0.04488 0.0
C1203 C 0.57294 0.53952 0.1073 0.0
O1204 O 0.5687 0.59621 0.07845 0.0
O1205 O 0.53541 0.59089 0.0588 0.0
O1206 O 0.53584 0.52548 0.06473 0.0
O1207 O 0.51854 0.5506 0.07422 0.0
O1208 O 0.54315 0.55429 0.02358 0.0
O1209 O 0.54451 0.51363 0.01738 0.0
O1210 O 0.54254 0.47597 0.04555 0.0
O1211 O 0.57795 0.48257 0.05133 0.0
O1212 O 0.57591 0.54749 0.05184 0.0
O1213 O 0.59329 0.52284 0.04158 0.0
O1214 O 0.57128 0.51897 0.09276 0.0
O1215 O 0.56674 0.55858 0.09952 0.0
H1216 H 0.57004 0.59839 0.02763 0.0
H1217 H 0.57922 0.62703 0.99983 0.0
H1218 H 0.55891 0.68153 0.04592 0.0
H1219 H 0.55112 0.65306 0.07438 0.0
H1220 H 0.52678 0.43197 0.05694 0.0
H1221 H 0.5255 0.40912 0.09119 0.0
H1222 H 0.59104 0.44632 0.12274 0.0
H1223 H 0.59247 0.46894 0.08879 0.0
Tb1224 Tb 0.80155 0.2617 0.29354 0.0
Tb1225 Tb 0.80684 0.31663 0.30528 0.0
C1226 C 0.80674 0.21982 0.28144 0.0
C1227 C 0.82518 0.20758 0.28131 0.0
C1228 C 0.82653 0.19267 0.26021 0.0
C1229 C 0.84266 0.17911 0.26032 0.0
C1230 C 0.85768 0.18012 0.28162 0.0
C1231 C 0.85685 0.19584 0.30245 0.0
C1232 C 0.84081 0.20951 0.30229 0.0
C1233 C 0.7853 0.27687 0.33128 0.0
C1234 C 0.84571 0.29514 0.32319 0.0
C1235 C 0.80206 0.35877 0.31678 0.0
C1236 C 0.78377 0.37099 0.31861 0.0
C1237 C 0.78328 0.38507 0.34058 0.0
C1238 C 0.76701 0.39819 0.34233 0.0
C1239 C 0.7509 0.39749 0.32211 0.0
C1240 C 0.7511 0.38295 0.30026 0.0
C1241 C 0.76733 0.36973 0.29854 0.0
C1242 C 0.82356 0.30124 0.26797 0.0
C1243 C 0.7618 0.28319 0.27786 0.0
O1244 O 0.80502 0.2352 0.26607 0.0
O1245 O 0.80263 0.22753 0.3028 0.0
O1246 O 0.80248 0.28676 0.32472 0.0
O1247 O 0.77704 0.2567 0.31716 0.0
O1248 O 0.83619 0.27531 0.30794 0.0
O1249 O 0.83593 0.31304 0.32814 0.0
O1250 O 0.8054 0.34424 0.33267 0.0
O1251 O 0.80434 0.35011 0.29491 0.0
O1252 O 0.80606 0.29152 0.27405 0.0
O1253 O 0.83189 0.32123 0.28235 0.0
O1254 O 0.77213 0.30321 0.29236 0.0
O1255 O 0.77134 0.26511 0.27242 0.0
H1256 H 0.8147 0.19099 0.24381 0.0
H1257 H 0.8428 0.16708 0.24402 0.0
H1258 H 0.86842 0.19731 0.31901 0.0
H1259 H 0.84037 0.22113 0.31876 0.0
H1260 H 0.79575 0.38629 0.35629 0.0
H1261 H 0.76737 0.40938 0.35936 0.0
H1262 H 0.73878 0.38193 0.28447 0.0
H1263 H 0.76716 0.35885 0.28139 0.0
Tb1264 Tb 0.03673 0.54966 0.5393 0.0
Tb1265 Tb 0.07165 0.53515 0.57329 0.0
C1266 C 1.00123 0.54693 0.51195 0.0
C1267 C 0.97825 0.54146 0.51414 0.0
C1268 C 0.97147 0.52845 0.53236 0.0
C1269 C 0.94951 0.51883 0.53144 0.0
C1270 C 0.93396 0.52215 0.51231 0.0
C1271 C 0.94074 0.53666 0.49506 0.0
C1272 C 0.96279 0.54615 0.49591 0.0
C1273 C 0.06466 0.58564 0.56677 0.0
C1274 C 0.02837 0.54045 0.59559 0.0
C1275 C 0.1073 0.53696 0.59976 0.0
C1276 C 0.12955 0.54627 0.59643 0.0
C1277 C 0.13363 0.565 0.58256 0.0
C1278 C 0.15483 0.57585 0.58138 0.0
C1279 C 0.17242 0.5679 0.59368 0.0
C1280 C 0.16822 0.54825 0.60657 0.0
C1281 C 0.14686 0.5376 0.60805 0.0
C1282 C 0.0434 0.49969 0.54563 0.0
C1283 C 0.08034 0.54481 0.51731 0.0
O1284 O 1.01092 0.52886 0.51408 0.0
O1285 O 1.01306 0.56731 0.52383 0.0
O1286 O 0.05721 0.56529 0.57201 0.0
O1287 O 0.05555 0.58665 0.54465 0.0
O1288 O 0.02039 0.5441 0.57293 0.0
O1289 O 0.0486 0.53654 0.59989 0.0
O1290 O 0.09569 0.5534 0.60205 0.0
O1291 O 0.09669 0.51761 0.58501 0.0
O1292 O 0.05135 0.51992 0.54066 0.0
O1293 O 0.05244 0.49813 0.56762 0.0
O1294 O 0.08847 0.54226 0.5403 0.0
O1295 O 0.05976 0.5476 0.51262 0.0
H1296 H 0.9832 0.52436 0.5464 0.0
H1297 H 0.94495 0.50749 0.54483 0.0
H1298 H 0.9291 0.53988 0.48035 0.0
H1299 H 0.96783 0.55611 0.48168 0.0
H1300 H 0.12044 0.57197 0.57343 0.0
H1301 H 0.15731 0.5912 0.5717 0.0
H1302 H 0.1814 0.54142 0.61587 0.0
H1303 H 0.14389 0.52302 0.61869 0.0
Tb1304 Tb 0.78075 0.79439 0.30306 0.0
Tb1305 Tb 0.82579 0.78183 0.31167 0.0
C1306 C 0.74196 0.79723 0.30596 0.0
C1307 C 0.72646 0.79482 0.32363 0.0
C1308 C 0.71461 0.77213 0.32647 0.0
C1309 C 0.69805 0.77021 0.34069 0.0
C1310 C 0.69277 0.79091 0.35239 0.0
C1311 C 0.70527 0.81352 0.3503 0.0
C1312 C 0.72175 0.81543 0.33605 0.0
C1313 C 0.81313 0.82624 0.29335 0.0
C1314 C 0.8092 0.80364 0.35702 0.0
C1315 C 0.86504 0.78075 0.30956 0.0
C1316 C 0.88077 0.78256 0.29216 0.0
C1317 C 0.89148 0.80511 0.28759 0.0
C1318 C 0.90814 0.80686 0.27359 0.0
C1319 C 0.9147 0.78615 0.26381 0.0
C1320 C 0.90358 0.76358 0.26789 0.0
C1321 C 0.88692 0.76183 0.28192 0.0
C1322 C 0.79363 0.74967 0.32141 0.0
C1323 C 0.797 0.77183 0.25772 0.0
O1324 O 0.74771 0.7777 0.29711 0.0
O1325 O 0.75826 0.81588 0.31039 0.0
O1326 O 0.81364 0.81382 0.31043 0.0
O1327 O 0.79325 0.82252 0.28186 0.0
O1328 O 0.78979 0.79956 0.343 0.0
O1329 O 0.82667 0.79971 0.34826 0.0
O1330 O 0.85824 0.80023 0.31648 0.0
O1331 O 0.8495 0.76141 0.30629 0.0
O1332 O 0.79284 0.76229 0.30446 0.0
O1333 O 0.81367 0.75332 0.33248 0.0
O1334 O 0.81638 0.77521 0.27171 0.0
O1335 O 0.7797 0.7765 0.26642 0.0
H1336 H 0.71759 0.7558 0.31705 0.0
H1337 H 0.68877 0.75248 0.34159 0.0
H1338 H 0.70209 0.8299 0.35935 0.0
H1339 H 0.73042 0.83319 0.33423 0.0
H1340 H 0.88735 0.82154 0.29527 0.0
H1341 H 0.91598 0.82454 0.27056 0.0
H1342 H 0.90823 0.7472 0.26097 0.0
H1343 H 0.87927 0.74421 0.28533 0.0
Tb1344 Tb 0.81213 0.28021 0.78907 0.0
Tb1345 Tb 0.7999 0.30094 0.83224 0.0
C1346 C 0.81951 0.26693 0.74757 0.0
C1347 C 0.81986 0.27753 0.72529 0.0
C1348 C 0.82524 0.30257 0.72613 0.0
C1349 C 0.82108 0.31274 0.70507 0.0
C1350 C 0.81149 0.29792 0.68306 0.0
C1351 C 0.80736 0.27282 0.68201 0.0
C1352 C 0.81153 0.26267 0.70309 0.0
C1353 C 0.8374 0.27524 0.82921 0.0
C1354 C 0.82682 0.3385 0.80378 0.0
C1355 C 0.80148 0.31587 0.87613 0.0
C1356 C 0.78753 0.3129 0.89448 0.0
C1357 C 0.77467 0.29038 0.8955 0.0
C1358 C 0.76646 0.28609 0.91661 0.0
C1359 C 0.77098 0.30435 0.93682 0.0
C1360 C 0.78085 0.32783 0.93408 0.0
C1361 C 0.78936 0.33201 0.91307 0.0
C1362 C 0.76648 0.30055 0.79764 0.0
C1363 C 0.78182 0.24343 0.81524 0.0
O1364 O 0.80029 0.26237 0.7538 0.0
O1365 O 0.83483 0.27703 0.76595 0.0
O1366 O 0.83047 0.29393 0.82477 0.0
O1367 O 0.82969 0.25863 0.81085 0.0
O1368 O 0.82511 0.31945 0.78696 0.0
O1369 O 0.81853 0.33512 0.82376 0.0
O1370 O 0.8087 0.29683 0.86847 0.0
O1371 O 0.79531 0.3276 0.85863 0.0
O1372 O 0.78353 0.29293 0.79437 0.0
O1373 O 0.76765 0.30729 0.82057 0.0
O1374 O 0.78488 0.26196 0.83306 0.0
O1375 O 0.78991 0.24715 0.79513 0.0
H1376 H 0.83164 0.31433 0.74314 0.0
H1377 H 0.82422 0.33216 0.70628 0.0
H1378 H 0.80018 0.26111 0.66509 0.0
H1379 H 0.8072 0.2433 0.70229 0.0
H1380 H 0.77268 0.27555 0.88096 0.0
H1381 H 0.75887 0.26778 0.91797 0.0
H1382 H 0.78409 0.34235 0.94915 0.0
H1383 H 0.79889 0.34965 0.91222 0.0
Tb1384 Tb 0.78254 0.77504 0.79462 0.0
Tb1385 Tb 0.82415 0.80918 0.81765 0.0
C1386 C 0.74383 0.75254 0.78647 0.0
C1387 C 0.72407 0.76094 0.79114 0.0
C1388 C 0.71587 0.7565 0.81249 0.0
C1389 C 0.69985 0.76796 0.81958 0.0
C1390 C 0.69149 0.7837 0.80523 0.0
C1391 C 0.69864 0.78708 0.78316 0.0
C1392 C 0.7149 0.77586 0.77619 0.0
C1393 C 0.80496 0.79587 0.76383 0.0
C1394 C 0.78099 0.83267 0.81286 0.0
C1395 C 0.86079 0.83468 0.818 0.0
C1396 C 0.88255 0.82949 0.82167 0.0
C1397 C 0.89911 0.84377 0.81263 0.0
C1398 C 0.9182 0.83581 0.81016 0.0
C1399 C 0.92085 0.81333 0.8165 0.0
C1400 C 0.90469 0.79967 0.82683 0.0
C1401 C 0.88569 0.80777 0.8295 0.0
C1402 C 0.80886 0.78576 0.85212 0.0
C1403 C 0.82511 0.75113 0.8024 0.0
O1404 O 0.7576 0.75181 0.80594 0.0
O1405 O 0.75361 0.76178 0.76968 0.0
O1406 O 0.80214 0.80535 0.78427 0.0
O1407 O 0.79496 0.7734 0.76015 0.0
O1408 O 0.77026 0.8099 0.8038 0.0
O1409 O 0.80269 0.83658 0.81965 0.0
O1410 O 0.84834 0.82214 0.7983 0.0
O1411 O 0.85079 0.83533 0.83688 0.0
O1412 O 0.8008 0.78372 0.82985 0.0
O1413 O 0.82623 0.80269 0.85586 0.0
O1414 O 0.83606 0.77418 0.80863 0.0
O1415 O 0.80332 0.74708 0.79725 0.0
H1416 H 0.7225 0.74496 0.82427 0.0
H1417 H 0.69422 0.76481 0.83648 0.0
H1418 H 0.69228 0.79913 0.77184 0.0
H1419 H 0.72084 0.77963 0.7596 0.0
H1420 H 0.89674 0.86036 0.80611 0.0
H1421 H 0.93031 0.8466 0.80194 0.0
H1422 H 0.90647 0.78242 0.83211 0.0
H1423 H 0.87299 0.79648 0.83645 0.0
Tb1424 Tb 0.53185 0.52684 0.54256 0.0
Tb1425 Tb 0.57095 0.55431 0.57415 0.0
C1426 C 0.49264 0.51505 0.52411 0.0
C1427 C 0.47794 0.53212 0.52391 0.0
C1428 C 0.47598 0.54509 0.54605 0.0
C1429 C 0.46818 0.56619 0.54629 0.0
C1430 C 0.46193 0.57466 0.52446 0.0
C1431 C 0.46207 0.56076 0.50222 0.0
C1432 C 0.47015 0.53964 0.50195 0.0
C1433 C 0.56608 0.53105 0.52031 0.0
C1434 C 0.54296 0.58492 0.54719 0.0
C1435 C 0.6098 0.56747 0.59406 0.0
C1436 C 0.62611 0.55255 0.5918 0.0
C1437 C 0.63015 0.54488 0.5685 0.0
C1438 C 0.63881 0.52459 0.56441 0.0
C1439 C 0.64394 0.51181 0.58352 0.0
C1440 C 0.64225 0.5208 0.60728 0.0
C1441 C 0.63326 0.54109 0.61141 0.0
C1442 C 0.53608 0.54926 0.59572 0.0
C1443 C 0.56092 0.49624 0.56784 0.0
O1444 O 0.50016 0.51029 0.54558 0.0
O1445 O 0.50799 0.51952 0.51105 0.0
O1446 O 0.5617 0.54688 0.53536 0.0
O1447 O 0.55051 0.51205 0.51706 0.0
O1448 O 0.52796 0.56464 0.54222 0.0
O1449 O 0.56248 0.58521 0.55906 0.0
O1450 O 0.60199 0.57472 0.57398 0.0
O1451 O 0.59438 0.55893 0.60576 0.0
O1452 O 0.54138 0.53386 0.58116 0.0
O1453 O 0.55112 0.5687 0.59887 0.0
O1454 O 0.57581 0.51666 0.5727 0.0
O1455 O 0.54105 0.49588 0.5568 0.0
H1456 H 0.48185 0.53996 0.56338 0.0
H1457 H 0.46767 0.57631 0.56364 0.0
H1458 H 0.45712 0.56692 0.48515 0.0
H1459 H 0.47169 0.53013 0.48469 0.0
H1460 H 0.625 0.55325 0.55292 0.0
H1461 H 0.64054 0.51819 0.54601 0.0
H1462 H 0.64646 0.51124 0.62227 0.0
H1463 H 0.63028 0.54662 0.6295 0.0
Tb1464 Tb 0.07466 0.54346 0.04764 0.0
Tb1465 Tb 0.02899 0.53842 0.06407 0.0
C1466 C 0.11401 0.54185 0.04592 0.0
C1467 C 0.13054 0.52658 0.05 0.0
C1468 C 0.13812 0.52091 0.07305 0.0
C1469 C 0.15511 0.50826 0.07628 0.0
C1470 C 0.16516 0.50126 0.0566 0.0
C1471 C 0.15713 0.5065 0.03352 0.0
C1472 C 0.14016 0.51893 0.03031 0.0
C1473 C 0.04367 0.54977 1.01007 0.0
C1474 C 0.04315 0.49184 0.04216 0.0
C1475 C 0.9897 0.53964 0.06601 0.0
C1476 C 0.97231 0.55288 0.05881 0.0
C1477 C 0.97657 0.57801 0.05927 0.0
C1478 C 0.9594 0.59019 0.05503 0.0
C1479 C 0.93751 0.57757 0.05029 0.0
C1480 C 0.9335 0.55235 0.04951 0.0
C1481 C 0.95062 0.54025 0.05363 0.0
C1482 C 0.0597 0.53214 0.10173 0.0
C1483 C 0.06014 0.59016 0.06884 0.0
O1484 O 0.10761 0.55259 0.06467 0.0
O1485 O 0.09799 0.53387 0.02765 0.0
O1486 O 0.04185 0.54547 0.03168 0.0
O1487 O 0.06435 0.55159 1.01012 0.0
O1488 O 0.06332 0.5045 0.04494 0.0
O1489 O 0.02659 0.50173 0.04653 0.0
O1490 O 0.99572 0.526 0.04897 0.0
O1491 O 1.00617 0.55116 0.08258 0.0
O1492 O 0.06173 0.53639 0.08014 0.0
O1493 O 0.03901 0.53028 0.10151 0.0
O1494 O 0.0401 0.57717 0.06595 0.0
O1495 O 0.07687 0.58058 0.06432 0.0
H1496 H 0.1313 0.52663 0.08871 0.0
H1497 H 0.16086 0.50471 0.09435 0.0
H1498 H 0.1641 0.50111 0.01781 0.0
H1499 H 0.13483 0.52305 1.01233 0.0
H1500 H 0.99315 0.58828 0.06328 0.0
H1501 H 0.96332 0.6095 0.05547 0.0
H1502 H 0.91704 0.54185 0.04641 0.0
H1503 H 0.94683 0.52095 0.05347 0.0
H1504 H 0.04371 0.23105 1.01429 0.0
H1505 H 1.00837 0.18427 0.94947 0.0
H1506 H 0.04896 0.19608 0.03378 0.0
H1507 H 1.0138 0.14915 0.96885 0.0
H1508 H 1.0098 0.0902 0.01815 0.0
H1509 H 1.00354 0.12559 0.99994 0.0
H1510 H 0.0681 0.16391 0.03372 0.0
H1511 H 0.07417 0.12873 0.0523 0.0
C1512 C 0.03706 0.21329 1.00412 0.0
C1513 C 0.02557 0.21064 0.98023 0.0
C1514 C 0.04019 0.19311 0.0153 0.0
C1515 C 0.03183 0.16951 1.00306 0.0
C1516 C 0.02028 0.16689 0.97913 0.0
C1517 C 1.01727 0.18711 0.96788 0.0
C1518 C 0.02259 0.10625 0.02202 0.0
C1519 C 0.04248 0.10642 0.03697 0.0
C1520 C 1.01908 0.12658 1.01126 0.0
C1521 C 0.03531 0.14785 0.0151 0.0
C1522 C 0.05503 0.14813 0.03044 0.0
C1523 C 0.05856 0.1278 0.04113 0.0
H1524 H 0.1398 0.82349 0.23764 0.0
H1525 H 0.16413 0.80335 0.1722 0.0
H1526 H 0.17374 0.82087 0.26201 0.0
H1527 H 0.19892 0.80169 0.1967 0.0
H1528 H 0.25198 0.77862 0.25162 0.0
H1529 H 0.21906 0.78146 0.22393 0.0
H1530 H 0.20935 0.83901 0.27526 0.0
H1531 H 0.24111 0.83534 0.30273 0.0
C1532 C 0.1526 0.819 0.22834 0.0
C1533 C 0.1491 0.81395 0.20281 0.0
C1534 C 0.17234 0.81757 0.24243 0.0
C1535 C 0.18963 0.81132 0.23161 0.0
C1536 C 0.18617 0.80639 0.20595 0.0
C1537 C 0.16622 0.80763 0.1918 0.0
C1538 C 0.24289 0.79199 0.25677 0.0
C1539 C 0.24925 0.80664 0.27956 0.0
C1540 C 0.2239 0.79367 0.24087 0.0
C1541 C 0.2109 0.81018 0.2473 0.0
C1542 C 0.21812 0.82545 0.26968 0.0
C1543 C 0.23668 0.82353 0.28549 0.0
H1544 H 0.51442 0.83472 0.49929 0.0
H1545 H 0.54113 0.8661 0.4409 0.0
H1546 H 0.51907 0.87521 0.5221 0.0
H1547 H 0.54587 0.90612 0.46358 0.0
H1548 H 0.57378 0.97109 0.52087 0.0
H1549 H 0.56896 0.92975 0.50196 0.0
H1550 H 0.50371 0.91424 0.51766 0.0
H1551 H 0.50842 0.95617 0.53677 0.0
C1552 C 0.52154 0.85018 0.49147 0.0
C1553 C 0.52753 0.84713 0.46831 0.0
C1554 C 0.52397 0.87336 0.50441 0.0
C1555 C 0.53286 0.8939 0.49467 0.0
C1556 C 0.53915 0.89071 0.47172 0.0
C1557 C 0.53639 0.86772 0.45869 0.0
C1558 C 0.55838 0.95899 0.52058 0.0
C1559 C 0.54146 0.96718 0.53039 0.0
C1560 C 0.55562 0.93521 0.50957 0.0
C1561 C 0.53593 0.9187 0.50815 0.0
C1562 C 0.51914 0.92651 0.51858 0.0
C1563 C 0.52181 0.95056 0.52943 0.0
H1564 H 0.54392 0.31004 0.71815 0.0
H1565 H 0.4975 0.28652 0.65153 0.0
H1566 H 0.51393 0.3075 0.74128 0.0
H1567 H 0.46786 0.28457 0.67437 0.0
H1568 H 0.41948 0.25856 0.72229 0.0
H1569 H 0.45024 0.26136 0.70081 0.0
H1570 H 0.48393 0.32504 0.75051 0.0
H1571 H 0.45352 0.32155 0.77278 0.0
C1572 C 0.5274 0.3045 0.70838 0.0
C1573 C 0.52332 0.29845 0.68288 0.0
C1574 C 0.51013 0.30314 0.72166 0.0
C1575 C 0.48831 0.29563 0.70981 0.0
C1576 C 0.48434 0.28994 0.68431 0.0
C1577 C 0.50149 0.29129 0.67111 0.0
C1578 C 0.4335 0.27305 0.72887 0.0
C1579 C 0.43383 0.28981 0.74938 0.0
C1580 C 0.45113 0.27485 0.7163 0.0
C1581 C 0.4697 0.29353 0.72373 0.0
C1582 C 0.47008 0.31028 0.74429 0.0
C1583 C 0.45243 0.30845 0.7569 0.0
H1584 H 0.06506 0.80279 0.6676 0.0
H1585 H 0.07655 0.85673 0.73127 0.0
H1586 H 0.05635 0.83186 0.64196 0.0
H1587 H 0.06706 0.8861 0.70519 0.0
H1588 H 0.0754 0.9339 0.64268 0.0
H1589 H 0.08112 0.90781 0.67356 0.0
H1590 H 0.02758 0.85293 0.63295 0.0
H1591 H 0.02264 0.87867 0.60167 0.0
C1592 C 0.06544 0.82085 0.67618 0.0
C1593 C 0.07117 0.82745 0.70149 0.0
C1594 C 0.06028 0.83747 0.66145 0.0
C1595 C 0.0605 0.86105 0.67165 0.0
C1596 C 0.06668 0.86795 0.69693 0.0
C1597 C 0.07208 0.85122 0.71179 0.0
C1598 C 0.06469 0.91638 0.64072 0.0
C1599 C 0.04876 0.90796 0.61989 0.0
C1600 C 0.06786 0.90156 0.65838 0.0
C1601 C 0.05498 0.87828 0.65543 0.0
C1602 C 0.03806 0.87062 0.63535 0.0
C1603 C 0.03514 0.88526 0.61755 0.0
H1604 H 0.47676 0.78299 0.85567 0.0
H1605 H 0.47699 0.83227 0.91987 0.0
H1606 H 0.43725 0.77783 0.84525 0.0
H1607 H 0.43743 0.82712 0.90966 0.0
H1608 H 0.3657 0.75631 0.84795 0.0
H1609 H 0.40428 0.76068 0.86278 0.0
H1610 H 0.41174 0.83791 0.87555 0.0
H1611 H 0.37303 0.83375 0.86082 0.0
C1612 C 0.46824 0.79281 0.86735 0.0
C1613 C 0.47961 0.80865 0.88797 0.0
C1614 C 0.44575 0.78965 0.86165 0.0
C1615 C 0.43446 0.80219 0.87666 0.0
C1616 C 0.44588 0.81753 0.8977 0.0
C1617 C 0.46834 0.82046 0.90351 0.0
C1618 C 0.37543 0.77424 0.85427 0.0
C1619 C 0.36633 0.79472 0.85311 0.0
C1620 C 0.39753 0.77669 0.86258 0.0
C1621 C 0.41086 0.7996 0.87001 0.0
C1622 C 0.40167 0.82004 0.86999 0.0
C1623 C 0.37955 0.81763 0.86155 0.0
H1624 H 0.57357 0.21948 0.15127 0.0
H1625 H 0.54511 0.16104 0.18656 0.0
H1626 H 0.58174 0.19104 0.12016 0.0
H1627 H 0.55285 0.13214 0.15491 0.0
H1628 H 0.58504 0.0873 0.10846 0.0
H1629 H 0.58418 0.11926 0.14051 0.0
H1630 H 0.56213 0.16113 0.08626 0.0
H1631 H 0.56322 0.12921 0.05418 0.0
C1632 C 0.56881 0.2004 0.15207 0.0
C1633 C 0.55826 0.19217 0.17075 0.0
C1634 C 0.57355 0.18419 0.13435 0.0
C1635 C 0.56798 0.15945 0.13514 0.0
C1636 C 0.55763 0.1512 0.15411 0.0
C1637 C 0.55301 0.16755 0.17202 0.0
C1638 C 0.5808 0.1037 0.10337 0.0
C1639 C 0.57398 0.10569 0.0789 0.0
C1640 C 0.57994 0.12179 0.12172 0.0
C1641 C 0.57239 0.14225 0.11585 0.0
C1642 C 0.5678 0.1454 0.0913 0.0
C1643 C 0.56863 0.12723 0.0729 0.0
H1644 H 0.0832 0.34828 0.33213 0.0
H1645 H 0.10225 0.31416 0.39453 0.0
H1646 H 0.11386 0.33799 0.31439 0.0
H1647 H 0.13224 0.30368 0.37645 0.0
H1648 H 0.15134 0.25502 0.31406 0.0
H1649 H 0.12457 0.27283 0.33243 0.0
H1650 H 0.16022 0.34388 0.32808 0.0
H1651 H 0.18787 0.32627 0.31075 0.0
C1652 C 0.09413 0.33914 0.3423 0.0
C1653 C 0.09005 0.3317 0.36452 0.0
C1654 C 0.11159 0.33329 0.33214 0.0
C1655 C 0.12496 0.31982 0.34404 0.0
C1656 C 0.12188 0.3139 0.36696 0.0
C1657 C 0.1047 0.31996 0.37724 0.0
C1658 C 0.15363 0.27444 0.31714 0.0
C1659 C 0.17185 0.28921 0.3112 0.0
C1660 C 0.13827 0.28456 0.32751 0.0
C1661 C 0.14064 0.30961 0.3317 0.0
C1662 C 0.15822 0.32449 0.32487 0.0
C1663 C 0.17386 0.31437 0.31484 0.0
H1664 H 1.00893 0.03803 0.24124 0.0
H1665 H 0.95462 0.99063 0.19352 0.0
H1666 H 0.02611 0.04706 0.20673 0.0
H1667 H 0.97261 0.99826 0.15851 0.0
H1668 H 1.00547 0.03041 0.09691 0.0
H1669 H 0.98487 0.02174 0.12988 0.0
H1670 H 0.04549 0.03343 0.18015 0.0
H1671 H 0.0653 0.04373 0.14809 0.0
C1672 C 1.00078 0.02918 0.2233 0.0
C1673 C 0.98048 1.01336 0.22032 0.0
C1674 C 1.0108 0.03417 0.20326 0.0
C1675 C 1.00127 0.02298 0.17938 0.0
C1676 C 0.98065 1.0074 0.17636 0.0
C1677 C 0.97033 1.00284 0.19652 0.0
C1678 C 1.01421 0.0313 0.11509 0.0
C1679 C 0.03703 0.0383 0.11985 0.0
C1680 C 1.00244 0.02615 0.13411 0.0
C1681 C 1.01326 0.02739 0.15829 0.0
C1682 C 0.03616 0.03324 0.16239 0.0
C1683 C 0.04771 0.03891 0.14372 0.0
H1684 H 0.32435 0.75115 0.56456 0.0
H1685 H 0.29918 0.69454 0.50347 0.0
H1686 H 0.30417 0.77745 0.54454 0.0
H1687 H 0.27951 0.72135 0.48309 0.0
H1688 H 0.30106 0.82017 0.47804 0.0
H1689 H 0.30998 0.79703 0.50961 0.0
H1690 H 0.25019 0.74457 0.48349 0.0
H1691 H 0.24082 0.76827 0.4515 0.0
C1692 C 0.31465 0.74433 0.54675 0.0
C1693 C 0.31369 0.72086 0.53536 0.0
C1694 C 0.30293 0.75938 0.53544 0.0
C1695 C 0.29019 0.75141 0.51238 0.0
C1696 C 0.28884 0.7278 0.50114 0.0
C1697 C 0.30043 0.71261 0.51258 0.0
C1698 C 0.28906 0.8045 0.47963 0.0
C1699 C 0.27047 0.79572 0.46169 0.0
C1700 C 0.29433 0.79105 0.49782 0.0
C1701 C 0.28108 0.76863 0.4985 0.0
C1702 C 0.26095 0.76153 0.48286 0.0
C1703 C 0.25556 0.77514 0.46467 0.0
H1704 H 0.67045 0.03837 0.72695 0.0
H1705 H 0.61239 1.00223 0.74907 0.0
H1706 H 0.64926 0.04161 0.68773 0.0
H1707 H 0.59134 1.00448 0.71011 0.0
H1708 H 0.54999 0.02114 0.64388 0.0
H1709 H 0.57228 1.01823 0.68146 0.0
H1710 H 0.62976 0.03559 0.64899 0.0
H1711 H 0.60663 0.03965 0.61101 0.0
C1712 C 0.65317 0.03078 0.72353 0.0
C1713 C 0.64359 0.0199 0.74201 0.0
C1714 C 0.6407 0.03263 0.70055 0.0
C1715 C 0.61778 0.02368 0.69444 0.0
C1716 C 0.60848 1.01242 0.713 0.0
C1717 C 0.62087 1.01076 0.7359 0.0
C1718 C 0.5674 0.0243 0.64438 0.0
C1719 C 0.57596 0.03036 0.62339 0.0
C1720 C 0.58061 0.02238 0.66654 0.0
C1721 C 0.60364 0.02614 0.66961 0.0
C1722 C 0.61238 0.03238 0.64849 0.0
C1723 C 0.59895 0.03452 0.62611 0.0
H1724 H 0.33752 0.3509 0.01575 0.0
H1725 H 0.31341 0.40701 0.98209 0.0
H1726 H 0.33245 0.32664 0.97548 0.0
H1727 H 0.30811 0.3828 0.94225 0.0
H1728 H 0.27973 0.32305 0.87844 0.0
H1729 H 0.28418 0.34373 0.91979 0.0
H1730 H 0.34864 0.32957 0.93538 0.0
H1731 H 0.34436 0.30894 0.89364 0.0
C1732 C 0.3309 0.35793 0.99985 0.0
C1733 C 0.32581 0.3809 1.00221 0.0
C1734 C 0.32818 0.34413 0.97677 0.0
C1735 C 0.31983 0.35275 0.95562 0.0
C1736 C 0.31439 0.3755 0.95813 0.0
C1737 C 0.3175 0.38943 0.98101 0.0
C1738 C 0.29482 0.32406 0.89065 0.0
C1739 C 0.3117 0.31428 0.88255 0.0
C1740 C 0.29739 0.33608 0.91438 0.0
C1741 C 0.31679 0.33841 0.93091 0.0
C1742 C 0.33345 0.32797 0.92316 0.0
C1743 C 0.33101 0.31623 0.89919 0.0
H1744 H 0.94912 0.03199 0.37534 0.0
H1745 H 1.00009 1.00231 0.34811 0.0
H1746 H 0.96969 0.0389 0.41631 0.0
H1747 H 0.02094 1.00944 0.38959 0.0
H1748 H 0.03543 0.99804 0.47129 0.0
H1749 H 1.01858 0.99386 0.42879 0.0
H1750 H 1.0024 0.0636 0.44206 0.0
H1751 H 1.01913 0.06776 0.48473 0.0
C1752 C 0.96483 0.02705 0.37803 0.0
C1753 C 0.97287 1.01651 0.35827 0.0
C1754 C 0.97673 0.03122 0.40162 0.0
C1755 C 0.99704 0.02484 0.40636 0.0
C1756 C 1.00529 1.01448 0.38663 0.0
C1757 C 0.99341 1.01053 0.36282 0.0
C1758 C 0.02839 1.01259 0.46519 0.0
C1759 C 0.02841 0.03313 0.48162 0.0
C1760 C 1.01886 1.01024 0.44069 0.0
C1761 C 1.00899 0.02831 0.43194 0.0
C1762 C 1.00958 0.04917 0.44822 0.0
C1763 C 1.01925 0.0516 0.47271 0.0
H1764 H 0.36121 0.69955 0.67713 0.0
H1765 H 0.38051 0.76746 0.65131 0.0
H1766 H 0.35287 0.7206 0.71347 0.0
H1767 H 0.37247 0.7886 0.68795 0.0
H1768 H 0.31845 0.80754 0.73036 0.0
H1769 H 0.33654 0.79018 0.69908 0.0
H1770 H 0.36445 0.74888 0.75043 0.0
H1771 H 0.34618 0.76565 0.78113 0.0
C1772 C 0.36461 0.71904 0.67971 0.0
C1773 C 0.3711 0.73184 0.6612 0.0
C1774 C 0.3597 0.73113 0.7005 0.0
C1775 C 0.36144 0.7562 0.70315 0.0
C1776 C 0.3704 0.76921 0.68599 0.0
C1777 C 0.37529 0.75711 0.6652 0.0
C1778 C 0.32855 0.79485 0.73483 0.0
C1779 C 0.33077 0.78773 0.75793 0.0
C1780 C 0.33906 0.78509 0.71711 0.0
C1781 C 0.35199 0.76824 0.72241 0.0
C1782 C 0.35448 0.76163 0.74575 0.0
C1783 C 0.34396 0.77124 0.76329 0.0
H1784 H 0.68317 0.03499 0.9187 0.0
H1785 H 0.62424 0.02365 0.86676 0.0
H1786 H 0.66286 0.03861 0.95196 0.0
H1787 H 0.60351 0.02689 0.90019 0.0
H1788 H 0.56678 0.04258 0.96483 0.0
H1789 H 0.58695 0.03899 0.9312 0.0
H1790 H 0.64304 0.03336 0.98165 0.0
H1791 H 0.62274 0.03732 0.01521 0.0
C1792 C 0.66573 0.03296 0.91402 0.0
C1793 C 0.656 0.0287 0.88896 0.0
C1794 C 0.65367 0.03506 0.93371 0.0
C1795 C 0.63068 0.03314 0.93021 0.0
C1796 C 0.62089 0.02882 0.90501 0.0
C1797 C 0.63304 0.02671 0.88522 0.0
C1798 C 0.58349 0.04072 0.96907 0.0
C1799 C 0.59255 0.0405 0.99379 0.0
C1800 C 0.59539 0.03843 0.94919 0.0
C1801 C 0.61746 0.0357 0.95226 0.0
C1802 C 0.6265 0.03556 0.97715 0.0
C1803 C 0.61455 0.03783 0.99704 0.0
H1804 H 0.34493 0.40318 0.1668 0.0
H1805 H 0.30677 0.33959 0.12034 0.0
H1806 H 0.34069 0.38292 0.20248 0.0
H1807 H 0.30173 0.31972 0.15569 0.0
H1808 H 0.31153 0.27933 0.21935 0.0
H1809 H 0.31783 0.30083 0.18518 0.0
H1810 H 0.31874 0.36788 0.22976 0.0
H1811 H 0.31334 0.34619 0.26427 0.0
C1812 C 0.33546 0.38495 0.16417 0.0
C1813 C 0.32634 0.37305 0.14053 0.0
C1814 C 0.3329 0.37327 0.18474 0.0
C1815 C 0.32102 0.34934 0.18235 0.0
C1816 C 0.31152 0.33779 0.15862 0.0
C1817 C 0.31424 0.34935 0.13815 0.0
C1818 C 0.31329 0.2987 0.22194 0.0
C1819 C 0.31191 0.31094 0.24464 0.0
C1820 C 0.31667 0.31113 0.20215 0.0
C1821 C 0.31853 0.33631 0.20419 0.0
C1822 C 0.31762 0.34862 0.2272 0.0
C1823 C 0.31444 0.33614 0.2471 0.0
H1824 H 0.18827 0.93001 0.99317 0.0
H1825 H 0.22713 0.90847 0.05322 0.0
H1826 H 0.16895 0.94928 0.02173 0.0
H1827 H 0.20826 0.92842 0.08172 0.0
H1828 H 0.20011 1.01188 0.10523 0.0
H1829 H 0.21229 0.97754 0.08576 0.0
H1830 H 0.14558 0.94181 0.05861 0.0
H1831 H 0.13334 0.97582 0.07843 0.0
C1832 C 0.19217 0.92875 1.01236 0.0
C1833 C 0.20919 0.9179 0.02101 0.0
C1834 C 0.18111 0.93966 0.02866 0.0
C1835 C 0.18729 0.94031 0.05382 0.0
C1836 C 0.20323 0.928 0.06237 0.0
C1837 C 0.21391 0.91655 0.04603 0.0
C1838 C 0.1881 0.99624 0.096 0.0
C1839 C 0.16586 0.99644 0.09333 0.0
C1840 C 0.19501 0.97662 0.08493 0.0
C1841 C 0.17978 0.95722 0.07072 0.0
C1842 C 0.15753 0.95659 0.0696 0.0
C1843 C 0.1506 0.97597 0.08106 0.0
H1844 H 0.72703 0.61702 0.04665 0.0
H1845 H 0.69251 0.66675 0.0146 0.0
H1846 H 0.69271 0.59141 0.05036 0.0
H1847 H 0.65771 0.64111 0.0186 0.0
H1848 H 0.60204 0.59622 0.05513 0.0
H1849 H 0.63487 0.62472 0.04992 0.0
H1850 H 0.66169 0.56504 0.02327 0.0
H1851 H 0.62917 0.53721 0.02752 0.0
C1852 C 0.71202 0.62226 0.03994 0.0
C1853 C 0.71253 0.64341 0.02934 0.0
C1854 C 0.69225 0.60764 0.04225 0.0
C1855 C 0.67221 0.61391 0.03453 0.0
C1856 C 0.67272 0.63563 0.02474 0.0
C1857 C 0.69265 0.65024 0.02227 0.0
C1858 C 0.61471 0.58932 0.0476 0.0
C1859 C 0.61263 0.56434 0.04145 0.0
C1860 C 0.63365 0.60564 0.04473 0.0
C1861 C 0.65117 0.59728 0.03624 0.0
C1862 C 0.64883 0.57232 0.03004 0.0
C1863 C 0.62997 0.55626 0.03246 0.0
H1864 H 0.69565 0.51077 0.37875 0.0
H1865 H 0.66502 0.49987 0.30335 0.0
H1866 H 0.71006 0.47485 0.37177 0.0
H1867 H 0.67909 0.46308 0.29638 0.0
H1868 H 0.73835 0.42623 0.28949 0.0
H1869 H 0.71503 0.45511 0.29418 0.0
H1870 H 0.70333 0.43219 0.36272 0.0
H1871 H 0.72707 0.40369 0.35819 0.0
C1872 C 0.69151 0.50029 0.36076 0.0
C1873 C 0.6793 0.50824 0.34156 0.0
C1874 C 0.69968 0.47953 0.35678 0.0
C1875 C 0.69585 0.46607 0.33348 0.0
C1876 C 0.68255 0.47321 0.3145 0.0
C1877 C 0.67426 0.49409 0.31853 0.0
C1878 C 0.73044 0.42705 0.30532 0.0
C1879 C 0.73468 0.41288 0.3236 0.0
C1880 C 0.71699 0.44355 0.30797 0.0
C1881 C 0.70738 0.4461 0.3289 0.0
C1882 C 0.71077 0.43099 0.34657 0.0
C1883 C 0.72435 0.41467 0.34401 0.0
H1884 H 0.82222 0.40567 0.46684 0.0
H1885 H 0.80268 0.45052 0.52302 0.0
H1886 H 0.85723 0.43405 0.47216 0.0
H1887 H 0.8369 0.47944 0.52766 0.0
H1888 H 0.90916 0.51241 0.54741 0.0
H1889 H 0.8743 0.4846 0.5424 0.0
H1890 H 0.87213 0.47365 0.46453 0.0
H1891 H 0.90777 0.49999 0.46971 0.0
C1892 C 0.82541 0.4218 0.48005 0.0
C1893 C 0.80968 0.42663 0.49382 0.0
C1894 C 0.84528 0.43809 0.48304 0.0
C1895 C 0.8497 0.4592 0.50008 0.0
C1896 C 0.83409 0.46336 0.51446 0.0
C1897 C 0.81438 0.44705 0.51154 0.0
C1898 C 0.90127 0.50402 0.52923 0.0
C1899 C 0.91132 0.50832 0.509 0.0
C1900 C 0.88118 0.48826 0.52632 0.0
C1901 C 0.87056 0.47673 0.50307 0.0
C1902 C 0.88014 0.48185 0.48273 0.0
C1903 C 0.90037 0.49735 0.48567 0.0
H1904 H 0.41895 0.14479 0.28645 0.0
H1905 H 0.36369 0.10639 0.31201 0.0
H1906 H 0.40206 0.18049 0.28675 0.0
H1907 H 0.34712 0.14112 0.31208 0.0
H1908 H 0.30948 0.20176 0.29775 0.0
H1909 H 0.32758 0.16766 0.29616 0.0
H1910 H 0.38947 0.21622 0.30353 0.0
H1911 H 0.37111 0.25055 0.30527 0.0
C1912 C 0.40322 0.14343 0.29203 0.0
C1913 C 0.39332 0.12127 0.29916 0.0
C1914 C 0.39326 0.1645 0.29235 0.0
C1915 C 0.37243 0.16505 0.29935 0.0
C1916 C 0.36271 0.14278 0.30615 0.0
C1917 C 0.37268 0.12216 0.30621 0.0
C1918 C 0.32699 0.20561 0.2991 0.0
C1919 C 0.33816 0.23013 0.30178 0.0
C1920 C 0.33776 0.18545 0.2983 0.0
C1921 C 0.36078 0.18777 0.2998 0.0
C1922 C 0.37197 0.21236 0.30214 0.0
C1923 C 0.36116 0.23263 0.30328 0.0
H1924 H 0.33763 0.16669 0.56106 0.0
H1925 H 0.31446 0.11348 0.49697 0.0
H1926 H 0.3717 0.15222 0.56733 0.0
H1927 H 0.3478 0.0989 0.5035 0.0
H1928 H 0.41677 0.08938 0.50723 0.0
H1929 H 0.3853 0.10789 0.50145 0.0
H1930 H 0.38669 0.11837 0.57908 0.0
H1931 H 0.41829 0.09989 0.58488 0.0
C1932 C 0.33978 0.15207 0.54823 0.0
C1933 C 0.32313 0.14142 0.52845 0.0
C1934 C 0.35928 0.1436 0.55193 0.0
C1935 C 0.36272 0.12436 0.53588 0.0
C1936 C 0.34613 0.114 0.51605 0.0
C1937 C 0.32677 0.12236 0.5124 0.0
C1938 C 0.41037 0.09551 0.52312 0.0
C1939 C 0.42018 0.09289 0.54653 0.0
C1940 C 0.39222 0.1062 0.5198 0.0
C1941 C 0.38315 0.11458 0.53976 0.0
C1942 C 0.39325 0.11247 0.56324 0.0
C1943 C 0.41146 0.1018 0.56657 0.0
H1944 H 0.71369 0.611 0.32356 0.0
H1945 H 0.67453 0.65832 0.35077 0.0
H1946 H 0.74196 0.64567 0.32101 0.0
H1947 H 0.70257 0.69339 0.34683 0.0
H1948 H 0.7523 0.73567 0.29507 0.0
H1949 H 0.72268 0.70404 0.30155 0.0
H1950 H 0.76554 0.68613 0.36014 0.0
H1951 H 0.79462 0.71893 0.35509 0.0
C1952 C 0.71129 0.62887 0.32938 0.0
C1953 C 0.69236 0.63195 0.33845 0.0
C1954 C 0.72738 0.64868 0.32766 0.0
C1955 C 0.72454 0.67213 0.33401 0.0
C1956 C 0.7052 0.67541 0.34207 0.0
C1957 C 0.68921 0.65543 0.34431 0.0
C1958 C 0.75515 0.72567 0.30999 0.0
C1959 C 0.77562 0.7304 0.32508 0.0
C1960 C 0.73824 0.7074 0.31352 0.0
C1961 C 0.74172 0.69291 0.33166 0.0
C1962 C 0.7623 0.69727 0.34637 0.0
C1963 C 0.77898 0.716 0.34335 0.0
H1964 H 0.86559 0.49291 0.77677 0.0
H1965 H 0.92508 0.47662 0.81059 0.0
H1966 H 0.846 0.45194 0.77931 0.0
H1967 H 0.90584 0.43517 0.81168 0.0
H1968 H 0.86198 0.3536 0.77977 0.0
H1969 H 0.88159 0.39469 0.77747 0.0
H1970 H 0.83789 0.42416 0.81797 0.0
H1971 H 0.81907 0.38324 0.82144 0.0
C1972 C 0.87458 0.48088 0.7852 0.0
C1973 C 0.89703 0.48928 0.79469 0.0
C1974 C 0.86326 0.45694 0.78636 0.0
C1975 C 0.87393 0.43955 0.79601 0.0
C1976 C 0.89663 0.44755 0.80427 0.0
C1977 C 0.9078 0.47167 0.80367 0.0
C1978 C 0.8564 0.36872 0.78823 0.0
C1979 C 0.83853 0.36428 0.8008 0.0
C1980 C 0.86785 0.39261 0.78698 0.0
C1981 C 0.86163 0.41352 0.79743 0.0
C1982 C 0.84347 0.40906 0.80949 0.0
C1983 C 0.83254 0.38523 0.81151 0.0
H1984 H 0.04051 0.85559 0.11949 0.0
H1985 H 0.11003 0.87881 0.14016 0.0
H1986 H 0.03835 0.89308 0.10426 0.0
H1987 H 0.10814 0.91653 0.12368 0.0
H1988 H 0.09446 0.99052 0.10678 0.0
H1989 H 0.09864 0.95432 0.12471 0.0
H1990 H 0.04392 0.9132 0.07218 0.0
H1991 H 0.03946 0.94946 0.05513 0.0
C1992 C 0.05546 0.86879 0.12077 0.0
C1993 C 0.07548 0.86396 0.13102 0.0
C1994 C 0.05426 0.89039 0.11166 0.0
C1995 C 0.0731 0.90803 0.11193 0.0
C1996 C 0.09316 0.90361 0.12304 0.0
C1997 C 0.09432 0.88193 0.13258 0.0
C1998 C 0.08354 0.97366 0.09889 0.0
C1999 C 0.06669 0.97306 0.0794 0.0
C2000 C 0.08589 0.95275 0.10924 0.0
C2001 C 0.0715 0.93046 0.10033 0.0
C2002 C 0.05504 0.92989 0.08029 0.0
C2003 C 0.05257 0.95079 0.0702 0.0
H2004 H 0.95209 0.29315 0.94555 0.0
H2005 H 0.96087 0.24194 0.88741 0.0
H2006 H 0.91623 0.2944 0.92319 0.0
H2007 H 0.92536 0.24319 0.86485 0.0
H2008 H 0.85418 0.23592 0.8362 0.0
H2009 H 0.88741 0.23312 0.86211 0.0
H2010 H 0.89931 0.30923 0.88808 0.0
H2011 H 0.86544 0.31187 0.86213 0.0
C2012 C 0.94626 0.28207 0.928 0.0
C2013 C 0.95957 0.26807 0.91783 0.0
C2014 C 0.92576 0.28289 0.91507 0.0
C2015 C 0.91777 0.26919 0.8919 0.0
C2016 C 0.93067 0.25398 0.88259 0.0
C2017 C 0.95122 0.25341 0.89539 0.0
C2018 C 0.86375 0.2521 0.84756 0.0
C2019 C 0.85706 0.27415 0.84697 0.0
C2020 C 0.88302 0.25051 0.86236 0.0
C2021 C 0.89641 0.27094 0.87721 0.0
C2022 C 0.88943 0.29299 0.87715 0.0
C2023 C 0.87002 0.29458 0.8622 0.0
H2024 H 0.59456 0.24947 0.60782 0.0
H2025 H 0.55913 0.22307 0.66254 0.0
H2026 H 0.59038 0.20812 0.58758 0.0
H2027 H 0.55497 0.18173 0.64256 0.0
H2028 H 0.53002 0.11464 0.58632 0.0
H2029 H 0.53516 0.15628 0.60474 0.0
H2030 H 0.60179 0.16945 0.59319 0.0
H2031 H 0.59667 0.12747 0.5745 0.0
C2032 C 0.5857 0.23477 0.61536 0.0
C2033 C 0.57647 0.23946 0.63622 0.0
C2034 C 0.58353 0.21108 0.60396 0.0
C2035 C 0.57211 0.19153 0.61324 0.0
C2036 C 0.56348 0.19632 0.6346 0.0
C2037 C 0.5659 0.21997 0.64612 0.0
C2038 C 0.5458 0.12632 0.5875 0.0
C2039 C 0.56296 0.11746 0.5789 0.0
C2040 C 0.54877 0.15027 0.59828 0.0
C2041 C 0.56895 0.16625 0.60073 0.0
C2042 C 0.58599 0.15768 0.59155 0.0
C2043 C 0.58308 0.13355 0.58089 0.0
H2044 H 0.58914 0.76951 0.44455 0.0
H2045 H 0.56227 0.7882 0.37576 0.0
H2046 H 0.62447 0.77177 0.43055 0.0
H2047 H 0.59664 0.79024 0.36225 0.0
H2048 H 0.66389 0.82087 0.35302 0.0
H2049 H 0.63166 0.81758 0.37177 0.0
H2050 H 0.64409 0.75297 0.39875 0.0
H2051 H 0.67727 0.75678 0.38063 0.0
C2052 C 0.59062 0.77396 0.42654 0.0
C2053 C 0.57274 0.77906 0.41159 0.0
C2054 C 0.61085 0.77522 0.41849 0.0
C2055 C 0.61359 0.78173 0.39541 0.0
C2056 C 0.59547 0.78588 0.38036 0.0
C2057 C 0.57554 0.78458 0.38823 0.0
C2058 C 0.66019 0.80619 0.36334 0.0
C2059 C 0.67343 0.78914 0.36521 0.0
C2060 C 0.64142 0.80412 0.37392 0.0
C2061 C 0.63503 0.78484 0.38662 0.0
C2062 C 0.64852 0.76809 0.3892 0.0
C2063 C 0.66743 0.77016 0.37854 0.0
H2064 H 0.02597 0.23686 0.41122 0.0
H2065 H 0.0864 0.28308 0.44812 0.0
H2066 H 0.03435 0.2044 0.43305 0.0
H2067 H 0.09559 0.2503 0.46882 0.0
H2068 H 0.08253 0.20613 0.53017 0.0
H2069 H 0.08152 0.23452 0.50142 0.0
H2070 H 0.05574 0.17578 0.44253 0.0
H2071 H 0.05518 0.14741 0.47175 0.0
C2072 C 0.04136 0.23972 0.42344 0.0
C2073 C 0.0554 0.26235 0.42853 0.0
C2074 C 0.04627 0.22114 0.4358 0.0
C2075 C 0.0655 0.22497 0.45295 0.0
C2076 C 0.08039 0.24707 0.45621 0.0
C2077 C 0.07521 0.26575 0.44436 0.0
C2078 C 0.07669 0.1993 0.51108 0.0
C2079 C 0.06867 0.17466 0.50323 0.0
C2080 C 0.07646 0.21551 0.4945 0.0
C2081 C 0.06858 0.20736 0.46966 0.0
C2082 C 0.06169 0.18257 0.4616 0.0
C2083 C 0.06162 0.16634 0.47829 0.0
H2084 H 0.62401 0.27634 0.27132 0.0
H2085 H 0.63129 0.25777 0.19654 0.0
H2086 H 0.66328 0.28161 0.2839 0.0
H2087 H 0.67035 0.26317 0.20913 0.0
H2088 H 0.73437 0.24659 0.24592 0.0
H2089 H 0.6952 0.24199 0.23344 0.0
H2090 H 0.69728 0.30912 0.27844 0.0
H2091 H 0.73616 0.3137 0.29114 0.0
C2092 C 0.634 0.27366 0.25759 0.0
C2093 C 0.62463 0.26668 0.23299 0.0
C2094 C 0.65641 0.27667 0.26476 0.0
C2095 C 0.66972 0.27261 0.24746 0.0
C2096 C 0.66038 0.26606 0.22284 0.0
C2097 C 0.63805 0.26322 0.21566 0.0
C2098 C 0.72647 0.2604 0.25305 0.0
C2099 C 0.73837 0.28056 0.26934 0.0
C2100 C 0.70411 0.25779 0.24587 0.0
C2101 C 0.69332 0.27523 0.25501 0.0
C2102 C 0.7052 0.29533 0.27132 0.0
C2103 C 0.72751 0.29801 0.27838 0.0
H2104 H 0.51957 0.90464 0.90625 0.0
H2105 H 0.56095 0.87572 0.95822 0.0
H2106 H 0.51414 0.93336 0.93861 0.0
H2107 H 0.55714 0.90596 0.99038 0.0
H2108 H 0.5342 0.94913 0.04855 0.0
H2109 H 0.53284 0.91684 0.01538 0.0
H2110 H 0.53069 0.96771 0.96404 0.0
H2111 H 0.53054 0.99868 0.99624 0.0
C2112 C 0.52785 0.90469 0.92451 0.0
C2113 C 0.54023 0.88751 0.92973 0.0
C2114 C 0.52483 0.92129 0.94315 0.0
C2115 C 0.53486 0.92171 0.9673 0.0
C2116 C 0.54849 0.90558 0.9722 0.0
C2117 C 0.55102 0.88854 0.95365 0.0
C2118 C 0.53253 0.95298 0.03001 0.0
C2119 C 0.53239 0.97642 0.02502 0.0
C2120 C 0.53217 0.93468 1.01106 0.0
C2121 C 0.53201 0.93974 0.98702 0.0
C2122 C 0.53043 0.96286 0.9821 0.0
C2123 C 0.53029 0.9808 1.00077 0.0
H2124 H 1.00747 0.75381 0.73479 0.0
H2125 H 0.04831 0.78616 0.80347 0.0
H2126 H 0.97555 0.76139 0.75141 0.0
H2127 H 1.0165 0.79328 0.82009 0.0
H2128 H 0.96319 0.83684 0.82429 0.0
H2129 H 0.99374 0.82221 0.81108 0.0
H2130 H 0.9517 0.75308 0.78233 0.0
H2131 H 0.92085 0.76804 0.79499 0.0
C2132 C 1.00956 0.76193 0.7536 0.0
C2133 C 0.03039 0.76972 0.76773 0.0
C2134 C 0.99129 0.76625 0.76311 0.0
C2135 C 0.99364 0.77828 0.78691 0.0
C2136 C 1.0143 0.78445 0.80152 0.0
C2137 C 0.03249 0.78028 0.79202 0.0
C2138 C 0.96051 0.81849 0.81527 0.0
C2139 C 0.93971 0.80358 0.8107 0.0
C2140 C 0.97801 0.81002 0.8079 0.0
C2141 C 0.9751 0.78644 0.79582 0.0
C2142 C 0.95436 0.77134 0.79156 0.0
C2143 C 0.93681 0.77982 0.79903 0.0
H2144 H 0.10689 0.04815 0.87586 0.0
H2145 H 0.16236 0.0846 0.9298 0.0
H2146 H 0.08644 0.03798 0.90848 0.0
H2147 H 0.14228 0.07421 0.96203 0.0
H2148 H 0.09432 0.07092 0.01522 0.0
H2149 H 0.11312 0.08224 0.98201 0.0
H2150 H 0.08518 1.01217 0.94046 0.0
H2151 H 0.06619 1.00095 0.97376 0.0
C2152 C 0.11466 0.05426 0.89459 0.0
C2153 C 0.13633 0.06725 0.90004 0.0
C2154 C 0.10301 0.04818 0.91335 0.0
C2155 C 0.11265 0.05515 0.93806 0.0
C2156 C 0.13411 0.06869 0.94336 0.0
C2157 C 0.14573 0.07458 0.92473 0.0
C2158 C 0.09236 0.05781 0.99913 0.0
C2159 C 0.07887 0.03492 0.99733 0.0
C2160 C 0.10316 0.06431 0.97999 0.0
C2161 C 0.10074 0.04819 0.95835 0.0
C2162 C 0.08727 0.02523 0.95661 0.0
C2163 C 0.07656 1.01867 0.97586 0.0
H2164 H 0.75578 0.32403 0.54249 0.0
H2165 H 0.78264 0.39534 0.5822 0.0
H2166 H 0.76692 0.30655 0.57853 0.0
H2167 H 0.79336 0.37777 0.61845 0.0
H2168 H 0.83394 0.33512 0.66472 0.0
H2169 H 0.82079 0.35371 0.63001 0.0
H2170 H 0.75875 0.30394 0.61977 0.0
H2171 H 0.77195 0.28531 0.65427 0.0
C2172 C 0.76376 0.33595 0.55902 0.0
C2173 C 0.76847 0.36098 0.55961 0.0
C2174 C 0.77006 0.32596 0.57963 0.0
C2175 C 0.78105 0.34087 0.60111 0.0
C2176 C 0.78516 0.36594 0.60193 0.0
C2177 C 0.77892 0.37595 0.58129 0.0
C2178 C 0.81752 0.32825 0.65498 0.0
C2179 C 0.80401 0.30868 0.6618 0.0
C2180 C 0.80997 0.33891 0.63531 0.0
C2181 C 0.78879 0.33018 0.62235 0.0
C2182 C 0.77524 0.31073 0.62932 0.0
C2183 C 0.78281 0.30004 0.64891 0.0
H2184 H 0.48386 0.05967 0.35435 0.0
H2185 H 0.43091 0.06292 0.39347 0.0
H2186 H 0.50726 0.05702 0.39209 0.0
H2187 H 0.45419 0.06093 0.43128 0.0
H2188 H 0.49715 0.04491 0.50009 0.0
H2189 H 0.47313 0.04741 0.46237 0.0
H2190 H 0.52925 0.0661 0.428 0.0
H2191 H 0.55262 0.06294 0.46505 0.0
C2192 C 0.47708 0.06023 0.37097 0.0
C2193 C 0.45498 0.06183 0.3699 0.0
C2194 C 0.49079 0.05871 0.39325 0.0
C2195 C 0.48342 0.05872 0.41617 0.0
C2196 C 0.46129 0.0605 0.41492 0.0
C2197 C 0.44763 0.06193 0.39269 0.0
C2198 C 0.50444 0.04955 0.48454 0.0
C2199 C 0.52738 0.05366 0.48649 0.0
C2200 C 0.49044 0.05114 0.46237 0.0
C2201 C 0.49845 0.05696 0.44071 0.0
C2202 C 0.52146 0.06117 0.4431 0.0
C2203 C 0.53527 0.05952 0.46503 0.0
H2204 H 0.78359 0.67472 0.12215 0.0
H2205 H 0.78369 0.74419 0.09912 0.0
H2206 H 0.78775 0.69308 0.16467 0.0
H2207 H 0.78725 0.76237 0.14156 0.0
H2208 H 0.76668 0.77592 0.21899 0.0
H2209 H 0.76296 0.75806 0.17631 0.0
H2210 H 0.81777 0.72543 0.19512 0.0
H2211 H 0.8219 0.74371 0.23752 0.0
C2212 C 0.78456 0.6939 0.12615 0.0
C2213 C 0.78347 0.708 0.10723 0.0
C2214 C 0.78694 0.70441 0.1505 0.0
C2215 C 0.78775 0.72917 0.15647 0.0
C2216 C 0.78653 0.74323 0.13754 0.0
C2217 C 0.78467 0.73283 0.11325 0.0
C2218 C 0.77798 0.76502 0.21399 0.0
C2219 C 0.79466 0.76137 0.23168 0.0
C2220 C 0.77589 0.75485 0.18955 0.0
C2221 C 0.79006 0.7403 0.18236 0.0
C2222 C 0.80655 0.73645 0.2001 0.0
C2223 C 0.80898 0.74707 0.22437 0.0
H2224 H 0.09626 0.05699 0.76512 0.0
H2225 H 0.15882 0.05434 0.74493 0.0
H2226 H 0.0799 0.05148 0.72211 0.0
H2227 H 0.14231 0.04833 0.70181 0.0
H2228 H 0.09735 1.012 0.62769 0.0
H2229 H 0.11373 1.01639 0.67074 0.0
H2230 H 0.08319 0.07617 0.68673 0.0
H2231 H 0.06721 0.07216 0.64378 0.0
C2232 C 0.1065 0.05501 0.75151 0.0
C2233 C 0.12887 0.05608 0.75853 0.0
C2234 C 0.09714 0.05199 0.72684 0.0
C2235 C 0.10978 0.04944 0.70848 0.0
C2236 C 0.13208 0.05005 0.71548 0.0
C2237 C 0.14155 0.05357 0.74019 0.0
C2238 C 0.09408 0.02603 0.6404 0.0
C2239 C 0.08099 0.04174 0.63219 0.0
C2240 C 0.10358 0.02864 0.66504 0.0
C2241 C 0.09978 0.04663 0.6822 0.0
C2242 C 0.08636 0.06204 0.67405 0.0
C2243 C 0.07727 0.05978 0.64937 0.0
H2244 H 0.74114 0.39221 0.40184 0.0
H2245 H 0.72535 0.33326 0.4425 0.0
H2246 H 0.74566 0.36378 0.36809 0.0
H2247 H 0.72973 0.30512 0.40858 0.0
H2248 H 0.80167 0.31582 0.36512 0.0
H2249 H 0.78128 0.34085 0.38663 0.0
H2250 H 0.72128 0.29102 0.35468 0.0
H2251 H 0.74167 0.26656 0.33177 0.0
C2252 C 0.73767 0.37318 0.40319 0.0
C2253 C 0.73385 0.36501 0.42515 0.0
C2254 C 0.7402 0.35699 0.38386 0.0
C2255 C 0.73843 0.33259 0.38621 0.0
C2256 C 0.73115 0.32394 0.40653 0.0
C2257 C 0.72883 0.3401 0.42596 0.0
C2258 C 0.78411 0.31047 0.36237 0.0
C2259 C 0.77313 0.28974 0.34648 0.0
C2260 C 0.7725 0.32473 0.37454 0.0
C2261 C 0.74978 0.31802 0.37156 0.0
C2262 C 0.73877 0.29664 0.35666 0.0
C2263 C 0.75042 0.28261 0.34394 0.0
H2264 H 0.42715 0.04254 0.19735 0.0
H2265 H 0.48937 0.06792 0.24334 0.0
H2266 H 0.44523 0.03832 0.16165 0.0
H2267 H 0.50747 0.06386 0.20802 0.0
H2268 H 0.54068 0.04122 0.14307 0.0
H2269 H 0.52186 0.04532 0.17772 0.0
H2270 H 0.46368 0.0484 0.12937 0.0
H2271 H 0.48279 0.04417 0.09448 0.0
C2272 C 0.44472 0.04743 0.20016 0.0
C2273 C 0.45626 0.0558 0.22428 0.0
C2274 C 0.4554 0.045 0.17918 0.0
C2275 C 0.47851 0.05049 0.18063 0.0
C2276 C 0.48992 0.05888 0.20486 0.0
C2277 C 0.47926 0.06148 0.22571 0.0
C2278 C 0.52383 0.04269 0.13943 0.0
C2279 C 0.51385 0.04214 0.11489 0.0
C2280 C 0.51273 0.04531 0.1599 0.0
C2281 C 0.49055 0.04747 0.1577 0.0
C2282 C 0.48046 0.04673 0.13303 0.0
C2283 C 0.49169 0.04431 0.11248 0.0
H2284 H 0.76498 0.67071 0.93603 0.0
H2285 H 0.78434 0.73424 0.99 0.0
H2286 H 0.77327 0.69493 0.90442 0.0
H2287 H 0.79206 0.75873 0.95812 0.0
H2288 H 0.77452 0.74643 0.8479 0.0
H2289 H 0.76378 0.7232 0.87979 0.0
H2290 H 0.81656 0.76879 0.93162 0.0
H2291 H 0.82657 0.79229 0.9 0.0
C2292 C 0.77084 0.68993 0.94124 0.0
C2293 C 0.77399 0.70034 0.96585 0.0
C2294 C 0.77547 0.70396 0.92289 0.0
C2295 C 0.78341 0.72903 0.92835 0.0
C2296 C 0.7863 0.73951 0.95297 0.0
C2297 C 0.78169 0.72543 0.97138 0.0
C2298 C 0.7836 0.75168 0.86613 0.0
C2299 C 0.80129 0.77145 0.87125 0.0
C2300 C 0.77761 0.73815 0.88453 0.0
C2301 C 0.7892 0.74392 0.90865 0.0
C2302 C 0.80684 0.76383 0.91362 0.0
C2303 C 0.81273 0.77731 0.8953 0.0
H2304 H 0.91015 0.1797 0.08919 0.0
H2305 H 0.87469 0.17098 0.01602 0.0
H2306 H 0.93774 0.16072 0.07402 0.0
H2307 H 0.90267 0.15277 1.00063 0.0
H2308 H 0.98228 0.12007 0.04355 0.0
H2309 H 0.96536 0.15487 0.04863 0.0
H2310 H 0.90491 0.11195 1.00747 0.0
H2311 H 0.92178 0.0775 1.00238 0.0
C2312 C 0.90888 0.17484 0.06973 0.0
C2313 C 0.89018 0.17618 0.05377 0.0
C2314 C 0.9247 0.16402 0.06099 0.0
C2315 C 0.922 0.15472 0.03618 0.0
C2316 C 0.90483 0.15928 0.01989 0.0
C2317 C 0.8889 0.16974 0.02866 0.0
C2318 C 0.96549 0.11834 0.03519 0.0
C2319 C 0.95317 0.09609 0.02285 0.0
C2320 C 0.95588 0.13823 0.03804 0.0
C2321 C 0.93385 0.13613 0.02851 0.0
C2322 C 0.92205 0.11432 0.01464 0.0
C2323 C 0.93166 0.09449 1.01179 0.0
H2324 H 0.39199 0.46404 0.10734 0.0
H2325 H 0.40232 0.40889 0.05422 0.0
H2326 H 0.42859 0.48677 0.10836 0.0
H2327 H 0.43865 0.43242 0.05351 0.0
H2328 H 0.509 0.47675 0.06393 0.0
H2329 H 0.4751 0.44969 0.06785 0.0
H2330 H 0.44852 0.51163 0.08868 0.0
H2331 H 0.48168 0.53777 0.08505 0.0
C2332 C 0.4021 0.45695 0.09558 0.0
C2333 C 0.39397 0.43508 0.0801 0.0
C2334 C 0.42321 0.47011 0.09594 0.0
C2335 C 0.43689 0.46214 0.0804 0.0
C2336 C 0.42899 0.43946 0.06581 0.0
C2337 C 0.40798 0.42597 0.06599 0.0
C2338 C 0.49589 0.48445 0.06932 0.0
C2339 C 0.4983 0.5096 0.07401 0.0
C2340 C 0.47623 0.4689 0.07151 0.0
C2341 C 0.45849 0.4781 0.07859 0.0
C2342 C 0.46136 0.50329 0.08349 0.0
C2343 C 0.4807 0.51856 0.08125 0.0
H2344 H 0.43224 0.57777 0.83085 0.0
H2345 H 0.43325 0.56989 0.75376 0.0
H2346 H 0.41862 0.61455 0.82856 0.0
H2347 H 0.41956 0.60705 0.75127 0.0
H2348 H 0.35886 0.64259 0.75582 0.0
H2349 H 0.383 0.61433 0.75541 0.0
H2350 H 0.42387 0.65612 0.82028 0.0
H2351 H 0.39967 0.68455 0.82067 0.0
C2352 C 0.43031 0.58453 0.81356 0.0
C2353 C 0.43387 0.57123 0.79251 0.0
C2354 C 0.42252 0.6056 0.81222 0.0
C2355 C 0.41786 0.61364 0.78969 0.0
C2356 C 0.42286 0.60117 0.76884 0.0
C2357 C 0.43094 0.58013 0.77027 0.0
C2358 C 0.3733 0.64614 0.76964 0.0
C2359 C 0.37728 0.66576 0.78836 0.0
C2360 C 0.38719 0.62995 0.76936 0.0
C2361 C 0.40537 0.63299 0.78781 0.0
C2362 C 0.40988 0.65319 0.80594 0.0
C2363 C 0.39599 0.6694 0.80621 0.0
H2364 H 0.27598 0.68567 0.58747 0.0
H2365 H 0.31057 0.63241 0.61185 0.0
H2366 H 0.24132 0.65847 0.58799 0.0
H2367 H 0.27593 0.60518 0.6126 0.0
H2368 H 0.20649 0.57745 0.63186 0.0
H2369 H 0.242 0.60379 0.63448 0.0
H2370 H 0.22368 0.61738 0.56109 0.0
H2371 H 0.18915 0.58946 0.55744 0.0
C2372 C 0.27604 0.66817 0.59307 0.0
C2373 C 0.29558 0.66053 0.59878 0.0
C2374 C 0.25636 0.65269 0.59334 0.0
C2375 C 0.25613 0.62973 0.60001 0.0
C2376 C 0.27581 0.62281 0.60736 0.0
C2377 C 0.29548 0.63817 0.6067 0.0
C2378 C 0.21029 0.58535 0.61596 0.0
C2379 C 0.19486 0.58143 0.59447 0.0
C2380 C 0.2305 0.60063 0.61762 0.0
C2381 C 0.23537 0.61263 0.59806 0.0
C2382 C 0.22023 0.60837 0.57646 0.0
C2383 C 0.20037 0.59253 0.57448 0.0
H2384 H 0.68877 0.94093 0.79426 0.0
H2385 H 0.74146 0.97701 0.8511 0.0
H2386 H 0.70579 0.90549 0.79106 0.0
H2387 H 0.75819 0.94236 0.84801 0.0
H2388 H 0.79636 0.88189 0.83316 0.0
H2389 H 0.77828 0.91594 0.83535 0.0
H2390 H 0.71826 0.86956 0.79851 0.0
H2391 H 0.73664 0.83534 0.79636 0.0
C2392 C 0.7039 0.94172 0.80629 0.0
C2393 C 0.71303 0.96317 0.82314 0.0
C2394 C 0.71398 0.92081 0.80446 0.0
C2395 C 0.73421 0.91963 0.81908 0.0
C2396 C 0.74313 0.94116 0.83578 0.0
C2397 C 0.73305 0.96173 0.83773 0.0
C2398 C 0.77925 0.87851 0.82549 0.0
C2399 C 0.76863 0.85462 0.81462 0.0
C2400 C 0.76846 0.89865 0.82685 0.0
C2401 C 0.74597 0.89698 0.81729 0.0
C2402 C 0.73534 0.873 0.80625 0.0
C2403 C 0.74615 0.85274 0.80507 0.0
H2404 H 0.77423 0.93282 0.60475 0.0
H2405 H 0.77487 0.9392 0.52912 0.0
H2406 H 0.74123 0.94963 0.60285 0.0
H2407 H 0.74185 0.95483 0.52677 0.0
H2408 H 0.70137 1.01046 0.53476 0.0
H2409 H 0.73199 0.99079 0.53864 0.0
H2410 H 0.70319 0.94765 0.58862 0.0
H2411 H 0.67246 0.96801 0.58504 0.0
C2412 C 0.76699 0.93715 0.58757 0.0
C2413 C 0.77726 0.93474 0.56711 0.0
C2414 C 0.74807 0.9469 0.58644 0.0
C2415 C 0.73893 0.9543 0.56477 0.0
C2416 C 0.74861 0.95029 0.54405 0.0
C2417 C 0.76749 0.94096 0.54528 0.0
C2418 C 0.70136 0.99663 0.54644 0.0
C2419 C 0.68411 0.99069 0.55927 0.0
C2420 C 0.71903 0.98517 0.54864 0.0
C2421 C 0.72013 0.96707 0.56359 0.0
C2422 C 0.70312 0.96146 0.57695 0.0
C2423 C 0.6854 0.97315 0.57486 0.0
H2424 H 0.39075 0.45384 0.75485 0.0
H2425 H 0.43714 0.4263 0.80158 0.0
H2426 H 0.36295 0.41834 0.75523 0.0
H2427 H 0.40977 0.38984 0.80114 0.0
H2428 H 0.35026 0.34581 0.8241 0.0
H2429 H 0.38003 0.37691 0.81828 0.0
H2430 H 0.34617 0.37895 0.74614 0.0
H2431 H 0.31597 0.3484 0.7527 0.0
C2432 C 0.39498 0.43992 0.76504 0.0
C2433 C 0.4157 0.44322 0.77911 0.0
C2434 C 0.37911 0.41926 0.76499 0.0
C2435 C 0.38368 0.40113 0.77877 0.0
C2436 C 0.40519 0.40366 0.79108 0.0
C2437 C 0.42102 0.42445 0.79118 0.0
C2438 C 0.34928 0.35281 0.80693 0.0
C2439 C 0.33078 0.34465 0.78885 0.0
C2440 C 0.3665 0.37064 0.80345 0.0
C2441 C 0.36583 0.38077 0.78166 0.0
C2442 C 0.34734 0.37214 0.76338 0.0
C2443 C 0.32998 0.35447 0.76703 0.0
H2444 H 0.18762 0.6133 0.34066 0.0
H2445 H 0.23602 0.58341 0.30902 0.0
H2446 H 0.20776 0.65406 0.33926 0.0
H2447 H 0.25643 0.62409 0.30772 0.0
H2448 H 0.28029 0.70052 0.28713 0.0
H2449 H 0.26117 0.65992 0.29019 0.0
H2450 H 0.23663 0.68805 0.35257 0.0
H2451 H 0.25588 0.72878 0.34943 0.0
C2452 C 0.20277 0.61526 0.33367 0.0
C2453 C 0.21013 0.5943 0.32567 0.0
C2454 C 0.21459 0.63905 0.33288 0.0
C2455 C 0.2343 0.6435 0.32337 0.0
C2456 C 0.24149 0.62239 0.31507 0.0
C2457 C 0.22977 0.5986 0.31615 0.0
C2458 C 0.2709 0.6983 0.30164 0.0
C2459 C 0.27007 0.71887 0.31796 0.0
C2460 C 0.2598 0.67451 0.30353 0.0
C2461 C 0.24682 0.66958 0.3217 0.0
C2462 C 0.24596 0.69021 0.33801 0.0
C2463 C 0.2573 0.71402 0.33629 0.0
H2464 H 0.5408 0.73143 0.51379 0.0
H2465 H 0.50734 0.68483 0.44804 0.0
H2466 H 0.54507 0.69647 0.53359 0.0
H2467 H 0.51196 0.64964 0.46772 0.0
H2468 H 0.50671 0.59031 0.5166 0.0
H2469 H 0.50082 0.62559 0.49788 0.0
H2470 H 0.56412 0.66481 0.53496 0.0
H2471 H 0.56959 0.62987 0.55419 0.0
C2472 C 0.5344 0.7137 0.50346 0.0
C2473 C 0.52371 0.71111 0.47922 0.0
C2474 C 0.53697 0.69351 0.51484 0.0
C2475 C 0.52892 0.66994 0.50242 0.0
C2476 C 0.51817 0.66736 0.47813 0.0
C2477 C 0.51565 0.68761 0.46671 0.0
C2478 C 0.51921 0.60658 0.52109 0.0
C2479 C 0.53852 0.60712 0.53721 0.0
C2480 C 0.51597 0.62683 0.51004 0.0
C2481 C 0.532 0.64832 0.51467 0.0
C2482 C 0.55119 0.64889 0.53107 0.0
C2483 C 0.55439 0.62868 0.54212 0.0
H2484 H 0.66012 0.29286 0.67299 0.0
H2485 H 0.64523 0.33648 0.73351 0.0
H2486 H 0.69372 0.28892 0.69806 0.0
H2487 H 0.67914 0.3337 0.75821 0.0
H2488 H 0.72677 0.30454 0.80701 0.0
H2489 H 0.69492 0.30835 0.77981 0.0
H2490 H 0.72949 0.30334 0.7192 0.0
H2491 H 0.76154 0.29831 0.74695 0.0
C2492 C 0.66423 0.30209 0.69152 0.0
C2493 C 0.64978 0.31497 0.70115 0.0
C2494 C 0.68365 0.29985 0.706 0.0
C2495 C 0.6894 0.31057 0.7306 0.0
C2496 C 0.6753 0.32439 0.73974 0.0
C2497 C 0.6558 0.32633 0.72539 0.0
C2498 C 0.72768 0.30411 0.78785 0.0
C2499 C 0.74691 0.30117 0.77932 0.0
C2500 C 0.70929 0.30663 0.7721 0.0
C2501 C 0.70933 0.3068 0.74703 0.0
C2502 C 0.72851 0.30329 0.73827 0.0
C2503 C 0.74702 0.30042 0.75419 0.0
H2504 H 0.03898 0.33642 1.00233 0.0
H2505 H 1.01138 0.36346 0.93876 0.0
H2506 H 0.04362 0.37641 0.02625 0.0
H2507 H 1.01544 0.4026 0.96263 0.0
H2508 H 1.00509 0.46256 0.01782 0.0
H2509 H 0.99952 0.42083 0.99842 0.0
H2510 H 0.06638 0.42004 0.02552 0.0
H2511 H 0.07212 0.46192 0.04461 0.0
C2512 C 0.03378 0.35071 0.99347 0.0
C2513 C 0.02472 0.3465 0.96855 0.0
C2514 C 0.03647 0.37361 1.00716 0.0
C2515 C 0.02968 0.39261 0.99637 0.0
C2516 C 0.02053 0.3883 0.97159 0.0
C2517 C 1.01829 0.36574 0.95787 0.0
C2518 C 1.01853 0.45341 0.01997 0.0
C2519 C 0.03907 0.46567 0.03273 0.0
C2520 C 1.01536 0.42953 1.00874 0.0
C2521 C 0.03253 0.41713 1.01039 0.0
C2522 C 0.05281 0.42902 0.02405 0.0
C2523 C 0.0561 0.45307 0.03487 0.0
H2524 H 0.99695 0.7831 0.1521 0.0
H2525 H 0.0433 0.80828 0.21857 0.0
H2526 H 0.96729 0.78129 0.17494 0.0
H2527 H 1.01332 0.8059 0.24167 0.0
H2528 H 0.9529 0.82037 0.27266 0.0
H2529 H 0.9832 0.82349 0.25027 0.0
H2530 H 0.94986 0.75868 0.20205 0.0
H2531 H 0.91918 0.75621 0.22367 0.0
C2532 C 1.00091 0.78825 0.17165 0.0
C2533 C 0.02273 0.79586 0.18338 0.0
C2534 C 0.98376 0.78699 0.18484 0.0
C2535 C 0.98773 0.79324 0.21029 0.0
C2536 C 1.00952 0.80112 0.22209 0.0
C2537 C 0.02678 0.80238 0.20883 0.0
C2538 C 0.95186 0.80694 0.25708 0.0
C2539 C 0.93338 0.78808 0.25001 0.0
C2540 C 0.96946 0.80855 0.24441 0.0
C2541 C 0.96914 0.79137 0.22423 0.0
C2542 C 0.95069 0.77248 0.21724 0.0
C2543 C 0.93311 0.77088 0.22988 0.0
H2544 H 0.57938 0.32292 0.20713 0.0
H2545 H 0.51357 0.30422 0.16726 0.0
H2546 H 0.58336 0.36311 0.19534 0.0
H2547 H 0.5177 0.34392 0.15517 0.0
H2548 H 0.52648 0.41673 0.1371 0.0
H2549 H 0.52373 0.38752 0.16569 0.0
H2550 H 0.58626 0.37334 0.15442 0.0
H2551 H 0.58908 0.40263 0.12633 0.0
C2552 C 0.56561 0.32758 0.19639 0.0
C2553 C 0.54629 0.31037 0.18773 0.0
C2554 C 0.56792 0.35051 0.1896 0.0
C2555 C 0.5509 0.35652 0.17423 0.0
C2556 C 0.53102 0.33992 0.16726 0.0
C2557 C 0.52874 0.31705 0.17394 0.0
C2558 C 0.53975 0.40762 0.14118 0.0
C2559 C 0.55784 0.41157 0.12941 0.0
C2560 C 0.53824 0.39107 0.15755 0.0
C2561 C 0.55472 0.37811 0.16213 0.0
C2562 C 0.57347 0.38333 0.15157 0.0
C2563 C 0.57503 0.39997 0.13536 0.0
H2564 H 0.9799 0.28298 0.35432 0.0
H2565 H 0.97433 0.33793 0.41081 0.0
H2566 H 0.94111 0.27598 0.33941 0.0
H2567 H 0.93596 0.33329 0.39454 0.0
H2568 H 0.86388 0.31029 0.37035 0.0
H2569 H 0.90151 0.31295 0.38864 0.0
H2570 H 0.91598 0.29068 0.31738 0.0
H2571 H 0.87801 0.28572 0.3001 0.0
C2572 C 0.97023 0.29386 0.36314 0.0
C2573 C 0.9798 0.3115 0.38301 0.0
C2574 C 0.94805 0.29008 0.35456 0.0
C2575 C 0.93524 0.30444 0.3653 0.0
C2576 C 0.94501 0.32157 0.38588 0.0
C2577 C 0.96704 0.32459 0.39504 0.0
C2578 C 0.87529 0.30587 0.35885 0.0
C2579 C 0.86835 0.29769 0.33402 0.0
C2580 C 0.8969 0.3076 0.36919 0.0
C2581 C 0.91206 0.30206 0.3546 0.0
C2582 C 0.9049 0.29448 0.32948 0.0
C2583 C 0.88316 0.29186 0.31941 0.0
H2584 H 0.08232 0.6819 0.70278 0.0
H2585 H 0.03199 0.70116 0.65312 0.0
H2586 H 0.08709 0.65193 0.67105 0.0
H2587 H 0.03605 0.67023 0.62149 0.0
H2588 H 0.06391 0.63283 0.56237 0.0
H2589 H 0.0619 0.66384 0.59529 0.0
H2590 H 0.07142 0.6149 0.64726 0.0
H2591 H 0.07437 0.58485 0.61498 0.0
C2592 C 0.07171 0.67913 0.68532 0.0
C2593 C 0.05684 0.69393 0.6804 0.0
C2594 C 0.07455 0.66203 0.66703 0.0
C2595 C 0.06227 0.65904 0.64356 0.0
C2596 C 0.04624 0.67263 0.63916 0.0
C2597 C 0.04361 0.69 0.65741 0.0
C2598 C 0.06635 0.62913 0.58095 0.0
C2599 C 0.06938 0.60645 0.58609 0.0
C2600 C 0.06478 0.64666 0.59974 0.0
C2601 C 0.0661 0.64166 0.62385 0.0
C2602 C 0.07053 0.61951 0.62901 0.0
C2603 C 0.07235 0.60224 0.6104 0.0
H2604 H 0.57852 0.84381 0.82842 0.0
H2605 H 0.60402 0.81928 0.89465 0.0
H2606 H 0.61095 0.83818 0.81174 0.0
H2607 H 0.63557 0.81282 0.87776 0.0
H2608 H 0.69577 0.81162 0.84866 0.0
H2609 H 0.66816 0.83009 0.86466 0.0
H2610 H 0.62369 0.80291 0.79703 0.0
H2611 H 0.65173 0.78529 0.78084 0.0
C2612 C 0.59116 0.83763 0.83955 0.0
C2613 C 0.58859 0.83179 0.86274 0.0
C2614 C 0.60961 0.83422 0.82993 0.0
C2615 C 0.62574 0.82492 0.84336 0.0
C2616 C 0.62365 0.82035 0.86703 0.0
C2617 C 0.60537 0.82386 0.87665 0.0
C2618 C 0.68015 0.80995 0.83719 0.0
C2619 C 0.67561 0.79686 0.81372 0.0
C2620 C 0.66437 0.82046 0.8463 0.0
C2621 C 0.64367 0.81773 0.8322 0.0
C2622 C 0.63956 0.80561 0.80823 0.0
C2623 C 0.65549 0.79537 0.799 0.0
H2624 H 0.44788 0.52262 0.70209 0.0
H2625 H 0.50919 0.50803 0.73372 0.0
H2626 H 0.46305 0.53227 0.66566 0.0
H2627 H 0.52402 0.51681 0.69696 0.0
H2628 H 0.52967 0.50637 0.61344 0.0
H2629 H 0.51295 0.49658 0.64873 0.0
H2630 H 0.49772 0.56698 0.65808 0.0
H2631 H 0.5153 0.5772 0.62323 0.0
C2632 C 0.46451 0.52125 0.70119 0.0
C2633 C 0.4773 0.51451 0.72084 0.0
C2634 C 0.47321 0.52689 0.68037 0.0
C2635 C 0.49472 0.52527 0.67841 0.0
C2636 C 0.50738 0.51814 0.69788 0.0
C2637 C 0.49889 0.51316 0.71895 0.0
C2638 C 0.52257 0.51971 0.62284 0.0
C2639 C 0.52375 0.54257 0.61546 0.0
C2640 C 0.51312 0.51413 0.64316 0.0
C2641 C 0.50403 0.531 0.65623 0.0
C2642 C 0.50451 0.55358 0.64834 0.0
C2643 C 0.51455 0.55942 0.62841 0.0
H2644 H 0.79508 0.19592 1.00696 0.0
H2645 H 0.82444 0.25354 0.06601 0.0
H2646 H 0.77735 0.22352 0.98579 0.0
H2647 H 0.80618 0.28096 0.045 0.0
H2648 H 0.80306 0.32064 0.97589 0.0
H2649 H 0.81167 0.29854 1.00862 0.0
H2650 H 0.74985 0.24866 0.98613 0.0
H2651 H 0.741 0.27111 0.95286 0.0
C2652 C 0.79766 0.21442 0.01549 0.0
C2653 C 0.81142 0.2226 0.038 0.0
C2654 C 0.78717 0.23014 1.00357 0.0
C2655 C 0.79015 0.25431 1.01394 0.0
C2656 C 0.80361 0.26241 0.03661 0.0
C2657 C 0.8142 0.24673 0.04851 0.0
C2658 C 0.79066 0.30579 0.97854 0.0
C2659 C 0.7715 0.29729 0.96138 0.0
C2660 C 0.79573 0.29298 0.99739 0.0
C2661 C 0.78169 0.27151 0.99947 0.0
C2662 C 0.76119 0.26487 0.98446 0.0
C2663 C 0.75607 0.27777 0.96555 0.0
H2664 H 0.17067 0.53857 0.22794 0.0
H2665 H 0.1127 0.50308 0.25073 0.0
H2666 H 0.14932 0.54145 0.18867 0.0
H2667 H 0.09149 0.50498 0.21172 0.0
H2668 H 0.05002 0.522 0.14574 0.0
H2669 H 0.07249 0.51937 0.18334 0.0
H2670 H 0.1296 0.53426 0.1498 0.0
H2671 H 0.10634 0.53804 0.11179 0.0
C2672 C 0.15337 0.53105 0.22466 0.0
C2673 C 0.14386 0.52046 0.24334 0.0
C2674 C 0.14082 0.53269 0.20166 0.0
C2675 C 0.11789 0.52381 0.19574 0.0
C2676 C 0.10865 0.51284 0.21449 0.0
C2677 C 0.12113 0.51139 0.23741 0.0
C2678 C 0.06738 0.52467 0.14601 0.0
C2679 C 0.07581 0.52996 0.12473 0.0
C2680 C 0.08068 0.52291 0.16816 0.0
C2681 C 0.10366 0.52607 0.17092 0.0
C2682 C 0.11226 0.53155 0.14952 0.0
C2683 C 0.09875 0.53352 0.12714 0.0
H2684 H 0.81309 0.90753 0.48206 0.0
H2685 H 0.83625 0.85108 0.51609 0.0
H2686 H 0.8079 0.88323 0.44229 0.0
H2687 H 0.83128 0.82673 0.4759 0.0
H2688 H 0.84385 0.80876 0.39442 0.0
H2689 H 0.84792 0.82945 0.4361 0.0
H2690 H 0.78376 0.84428 0.41977 0.0
H2691 H 0.77953 0.82356 0.37847 0.0
C2692 C 0.81699 0.88985 0.48108 0.0
C2693 C 0.82501 0.88125 0.50235 0.0
C2694 C 0.81395 0.87588 0.45824 0.0
C2695 C 0.81916 0.85301 0.45588 0.0
C2696 C 0.8272 0.84431 0.4771 0.0
C2697 C 0.82986 0.85817 0.50012 0.0
C2698 C 0.83052 0.81621 0.3998 0.0
C2699 C 0.81137 0.81446 0.38297 0.0
C2700 C 0.83283 0.82798 0.42372 0.0
C2701 C 0.8162 0.83862 0.43123 0.0
C2702 C 0.79695 0.83647 0.41453 0.0
C2703 C 0.7945 0.82443 0.39084 0.0
H2704 H 0.45209 0.5324 0.87702 0.0
H2705 H 0.50051 0.49832 0.84943 0.0
H2706 H 0.47314 0.53927 0.9177 0.0
H2707 H 0.5219 0.5054 0.89072 0.0
H2708 H 0.5357 0.49515 0.9732 0.0
H2709 H 0.51881 0.49089 0.93067 0.0
H2710 H 0.50692 0.56276 0.94255 0.0
H2711 H 0.52369 0.56704 0.98522 0.0
C2712 C 0.46735 0.52646 0.87959 0.0
C2713 C 0.47452 0.51467 0.85984 0.0
C2714 C 0.47955 0.53062 0.90301 0.0
C2715 C 0.49929 0.52299 0.9076 0.0
C2716 C 0.5067 0.51142 0.88785 0.0
C2717 C 0.49453 0.50749 0.86417 0.0
C2718 C 0.52963 0.51016 0.96679 0.0
C2719 C 0.53095 0.53141 0.98286 0.0
C2720 C 0.52007 0.50775 0.94226 0.0
C2721 C 0.5114 0.52642 0.93311 0.0
C2722 C 0.51319 0.54788 0.94902 0.0
C2723 C 0.5229 0.55038 0.97352 0.0
H2724 H 0.88805 0.26234 0.1534 0.0
H2725 H 0.86434 0.19439 0.17711 0.0
H2726 H 0.88239 0.28361 0.19125 0.0
H2727 H 0.85857 0.21579 0.21486 0.0
H2728 H 0.80695 0.26278 0.23325 0.0
H2729 H 0.82691 0.24029 0.20837 0.0
H2730 H 0.88668 0.29091 0.23969 0.0
H2731 H 0.86672 0.31282 0.26564 0.0
C2732 C 0.8827 0.25193 0.16719 0.0
C2733 C 0.87598 0.22677 0.16203 0.0
C2734 C 0.87946 0.26413 0.18886 0.0
C2735 C 0.8695 0.25124 0.20548 0.0
C2736 C 0.86599 0.22603 0.20202 0.0
C2737 C 0.86943 0.21382 0.18046 0.0
C2738 C 0.82442 0.26869 0.23527 0.0
C2739 C 0.83543 0.28902 0.25173 0.0
C2740 C 0.83584 0.25585 0.22114 0.0
C2741 C 0.8584 0.26357 0.22273 0.0
C2742 C 0.86936 0.28442 0.23859 0.0
C2743 C 0.85794 0.29702 0.25314 0.0
H2744 H 0.12502 0.5254 0.3684 0.0
H2745 H 0.18407 0.53648 0.42009 0.0
H2746 H 0.10445 0.52891 0.40195 0.0
H2747 H 0.16392 0.54035 0.45348 0.0
H2748 H 0.1241 0.53968 0.51705 0.0
H2749 H 0.14421 0.53543 0.48335 0.0
H2750 H 0.08804 0.54118 0.4331 0.0
H2751 H 0.06806 0.54509 0.46688 0.0
C2752 C 0.13388 0.52845 0.38683 0.0
C2753 C 0.15683 0.53029 0.39045 0.0
C2754 C 0.12183 0.53072 0.4067 0.0
C2755 C 0.13169 0.53506 0.43188 0.0
C2756 C 0.15466 0.53681 0.43526 0.0
C2757 C 0.16663 0.53457 0.41549 0.0
C2758 C 0.11585 0.54016 0.49889 0.0
C2759 C 0.09389 0.543 0.49577 0.0
C2760 C 0.12769 0.53772 0.47892 0.0
C2761 C 0.11858 0.53781 0.45404 0.0
C2762 C 0.09654 0.54067 0.45109 0.0
C2763 C 0.08475 0.54316 0.47105 0.0
H2764 H 0.80532 0.83964 0.61985 0.0
H2765 H 0.8442 0.90255 0.66675 0.0
H2766 H 0.80023 0.8194 0.65497 0.0
H2767 H 0.83994 0.88191 0.70219 0.0
H2768 H 0.81259 0.84491 0.76371 0.0
H2769 H 0.81808 0.86687 0.72943 0.0
H2770 H 0.81607 0.79993 0.68405 0.0
H2771 H 0.80963 0.77815 0.71802 0.0
C2772 C 0.81294 0.84917 0.63772 0.0
C2773 C 0.82525 0.87279 0.64029 0.0
C2774 C 0.81019 0.83739 0.65804 0.0
C2775 C 0.81989 0.84864 0.68181 0.0
C2776 C 0.832 0.87249 0.68441 0.0
C2777 C 0.83457 0.88439 0.66399 0.0
C2778 C 0.81345 0.83493 0.74641 0.0
C2779 C 0.81056 0.80969 0.74366 0.0
C2780 C 0.8167 0.84758 0.72664 0.0
C2781 C 0.81734 0.8354 0.70349 0.0
C2782 C 0.81512 0.81016 0.70115 0.0
C2783 C 0.81167 0.79755 0.72081 0.0
H2784 H 0.68791 0.43138 0.48441 0.0
H2785 H 0.71402 0.40089 0.54633 0.0
H2786 H 0.66388 0.44808 0.50851 0.0
H2787 H 0.69023 0.41807 0.57056 0.0
H2788 H 0.6199 0.47322 0.55278 0.0
H2789 H 0.63333 0.43933 0.53446 0.0
H2790 H 0.695 0.46474 0.58257 0.0
H2791 H 0.68151 0.49868 0.60082 0.0
C2792 C 0.68798 0.42763 0.50291 0.0
C2793 C 0.70284 0.41505 0.51356 0.0
C2794 C 0.67418 0.43704 0.51667 0.0
C2795 C 0.67536 0.43435 0.54137 0.0
C2796 C 0.68907 0.42027 0.55153 0.0
C2797 C 0.70256 0.41041 0.53761 0.0
C2798 C 0.63608 0.47102 0.5599 0.0
C2799 C 0.64994 0.48856 0.57778 0.0
C2800 C 0.64368 0.45169 0.54951 0.0
C2801 C 0.66518 0.44969 0.55698 0.0
C2802 C 0.67826 0.46584 0.57668 0.0
C2803 C 0.67064 0.48525 0.58706 0.0
H2804 H 0.19165 0.16704 0.51493 0.0
H2805 H 0.22531 0.11573 0.54503 0.0
H2806 H 0.15684 0.14265 0.5201 0.0
H2807 H 0.19101 0.09054 0.54858 0.0
H2808 H 0.13104 0.05795 0.57471 0.0
H2809 H 0.16383 0.08524 0.57027 0.0
H2810 H 0.12847 0.10837 0.50864 0.0
H2811 H 0.09512 0.08106 0.51393 0.0
C2812 C 0.19156 0.15029 0.52222 0.0
C2813 C 0.21125 0.14295 0.52877 0.0
C2814 C 0.17154 0.13614 0.52509 0.0
C2815 C 0.17062 0.11432 0.53487 0.0
C2816 C 0.19056 0.10727 0.54147 0.0
C2817 C 0.21043 0.12152 0.5389 0.0
C2818 C 0.13013 0.0692 0.56047 0.0
C2819 C 0.11026 0.06765 0.54516 0.0
C2820 C 0.14917 0.08474 0.55758 0.0
C2821 C 0.14937 0.09909 0.53874 0.0
C2822 C 0.12923 0.09798 0.52358 0.0
C2823 C 0.10992 0.08244 0.52672 0.0
H2824 H 0.19193 1.00728 0.87749 0.0
H2825 H 0.17162 1.00101 0.79987 0.0
H2826 H 0.20747 0.97185 0.87188 0.0
H2827 H 0.1871 0.965 0.79412 0.0
H2828 H 0.24984 0.93146 0.7979 0.0
H2829 H 0.22516 0.95931 0.79909 0.0
H2830 H 0.20082 0.92871 0.85917 0.0
H2831 H 0.22544 0.9009 0.85792 0.0
C2832 C 0.19023 0.99783 0.85923 0.0
C2833 C 0.18057 1.00687 0.83912 0.0
C2834 C 0.19909 0.97746 0.856 0.0
C2835 C 0.19863 0.96564 0.83253 0.0
C2836 C 0.18786 0.97385 0.81242 0.0
C2837 C 0.17875 0.99424 0.8157 0.0
C2838 C 0.23889 0.93034 0.81101 0.0
C2839 C 0.23982 0.91421 0.82806 0.0
C2840 C 0.22469 0.94626 0.81165 0.0
C2841 C 0.21112 0.94634 0.82933 0.0
C2842 C 0.21131 0.92936 0.84557 0.0
C2843 C 0.22547 0.91349 0.84493 0.0
H2844 H 0.31594 0.90661 0.94857 0.0
H2845 H 0.30591 0.94812 1.01342 0.0
H2846 H 0.35117 0.93377 0.9506 0.0
H2847 H 0.34122 0.97444 0.01638 0.0
H2848 H 0.39788 0.03002 1.00612 0.0
H2849 H 0.36122 1.00502 0.99927 0.0
H2850 H 0.38638 0.94328 0.97385 0.0
H2851 H 0.42261 0.9687 0.97948 0.0
C2852 C 0.32134 0.92165 0.96314 0.0
C2853 C 0.30816 0.92593 0.98036 0.0
C2854 C 0.34149 0.93705 0.96449 0.0
C2855 C 0.34898 0.95643 0.98358 0.0
C2856 C 0.33579 0.96019 1.00106 0.0
C2857 C 0.31559 0.94509 0.99944 0.0
C2858 C 0.39538 1.01111 0.99897 0.0
C2859 C 0.41283 1.00115 0.99328 0.0
C2860 C 0.37449 0.99676 0.99512 0.0
C2861 C 0.37084 0.97209 0.98604 0.0
C2862 C 0.38847 0.96226 0.98037 0.0
C2863 C 0.40923 0.97672 0.98378 0.0
H2864 H 0.8639 0.60616 0.81344 0.0
H2865 H 0.9187 0.6443 0.78691 0.0
H2866 H 0.84708 0.6407 0.81304 0.0
H2867 H 0.90158 0.67982 0.78679 0.0
H2868 H 0.87035 0.74976 0.80483 0.0
H2869 H 0.88892 0.71561 0.8035 0.0
H2870 H 0.82722 0.66674 0.79639 0.0
H2871 H 0.80889 0.70068 0.79752 0.0
C2872 C 0.87273 0.62184 0.80734 0.0
C2873 C 0.89333 0.62095 0.80017 0.0
C2874 C 0.86262 0.64234 0.807 0.0
C2875 C 0.87215 0.66446 0.7998 0.0
C2876 C 0.89294 0.66392 0.79269 0.0
C2877 C 0.90303 0.64297 0.79263 0.0
C2878 C 0.86048 0.73181 0.80295 0.0
C2879 C 0.83745 0.72917 0.80136 0.0
C2880 C 0.87141 0.71165 0.80207 0.0
C2881 C 0.86034 0.68704 0.79994 0.0
C2882 C 0.83731 0.68457 0.79838 0.0
C2883 C 0.8264 0.70463 0.7989 0.0
H2884 H 0.83499 0.66062 0.06655 0.0
H2885 H 0.82051 0.62596 0.992 0.0
H2886 H 0.86803 0.64425 0.0728 0.0
H2887 H 0.85356 0.61058 0.99776 0.0
H2888 H 0.89794 0.56167 0.02004 0.0
H2889 H 0.8671 0.58079 0.01527 0.0
H2890 H 0.90376 0.64274 0.06559 0.0
H2891 H 0.93436 0.62267 0.07174 0.0
C2892 C 0.83906 0.64994 0.05136 0.0
C2893 C 0.82489 0.64446 0.02883 0.0
C2894 C 0.85806 0.64051 0.05491 0.0
C2895 C 0.86349 0.62553 0.03595 0.0
C2896 C 0.84979 0.62125 1.01314 0.0
C2897 C 0.8308 0.63034 1.00972 0.0
C2898 C 0.8995 0.57923 0.03043 0.0
C2899 C 0.91888 0.59038 0.04642 0.0
C2900 C 0.88176 0.59051 0.02734 0.0
C2901 C 0.88273 0.61362 0.0398 0.0
C2902 C 0.90215 0.62492 0.05574 0.0
C2903 C 0.91992 0.61348 0.05901 0.0
H2904 H 0.21481 0.10992 0.8215 0.0
H2905 H 0.17547 0.15681 0.84914 0.0
H2906 H 0.24298 0.14477 0.81918 0.0
H2907 H 0.20343 0.19206 0.84547 0.0
H2908 H 0.25324 0.23426 0.79314 0.0
H2909 H 0.22375 0.20233 0.79938 0.0
H2910 H 0.26611 0.18586 0.85933 0.0
H2911 H 0.29504 0.21892 0.85445 0.0
C2912 C 0.21235 0.12773 0.82746 0.0
C2913 C 0.19338 0.13063 0.83656 0.0
C2914 C 0.22838 0.14764 0.82587 0.0
C2915 C 0.22546 0.17103 0.83243 0.0
C2916 C 0.20611 0.17414 0.84056 0.0
C2917 C 0.19017 0.15406 0.84263 0.0
C2918 C 0.25599 0.2245 0.80828 0.0
C2919 C 0.27626 0.22971 0.82381 0.0
C2920 C 0.23917 0.20606 0.81168 0.0
C2921 C 0.24254 0.19192 0.83015 0.0
C2922 C 0.26294 0.19674 0.84529 0.0
C2923 C 0.27954 0.21561 0.84238 0.0
H2924 H 0.42259 0.98046 0.31899 0.0
H2925 H 0.36847 0.99029 0.26853 0.0
H2926 H 0.40314 0.93947 0.32119 0.0
H2927 H 0.34925 0.94887 0.26992 0.0
H2928 H 0.35149 0.87507 0.33926 0.0
H2929 H 0.37061 0.9159 0.33643 0.0
H2930 H 0.34909 0.90343 0.25898 0.0
H2931 H 0.33046 0.86212 0.2617 0.0
C2932 C 0.40651 0.97402 0.30827 0.0
C2933 C 0.3972 0.9897 0.29414 0.0
C2934 C 0.39516 0.95016 0.30955 0.0
C2935 C 0.37414 0.93998 0.29588 0.0
C2936 C 0.36522 0.95534 0.28088 0.0
C2937 C 0.37632 0.97951 0.28019 0.0
C2938 C 0.35079 0.88072 0.32146 0.0
C2939 C 0.33911 0.86431 0.30076 0.0
C2940 C 0.362 0.90454 0.31981 0.0
C2941 C 0.36185 0.91387 0.29743 0.0
C2942 C 0.34987 0.89763 0.27672 0.0
C2943 C 0.3391 0.87352 0.27828 0.0
H2944 H 0.54126 0.35869 0.62172 0.0
H2945 H 0.6112 0.37928 0.63564 0.0
H2946 H 0.5389 0.39592 0.60598 0.0
H2947 H 0.60905 0.41667 0.61855 0.0
H2948 H 0.59585 0.49103 0.60101 0.0
H2949 H 0.6009 0.45517 0.61924 0.0
H2950 H 0.54233 0.41435 0.57251 0.0
H2951 H 0.53693 0.45021 0.55537 0.0
C2952 C 0.55625 0.37129 0.62143 0.0
C2953 C 0.57643 0.3658 0.62995 0.0
C2954 C 0.55492 0.3927 0.61199 0.0
C2955 C 0.57376 0.40946 0.6101 0.0
C2956 C 0.59407 0.40444 0.61956 0.0
C2957 C 0.59537 0.38296 0.62946 0.0
C2958 C 0.58415 0.47433 0.59452 0.0
C2959 C 0.56586 0.47374 0.57677 0.0
C2960 C 0.58706 0.4536 0.60501 0.0
C2961 C 0.57182 0.43156 0.59797 0.0
C2962 C 0.55413 0.43091 0.57932 0.0
C2963 C 0.55112 0.45158 0.56912 0.0
H2964 H 0.45145 0.7971 0.44241 0.0
H2965 H 0.45952 0.74028 0.38965 0.0
H2966 H 0.41672 0.79864 0.41799 0.0
H2967 H 0.42416 0.73968 0.36646 0.0
H2968 H 0.37617 0.76111 0.31197 0.0
H2969 H 0.40704 0.75709 0.33955 0.0
H2970 H 0.38123 0.78872 0.39975 0.0
H2971 H 0.34989 0.79348 0.37094 0.0
C2972 C 0.44551 0.78459 0.42575 0.0
C2973 C 0.45855 0.76922 0.41741 0.0
C2974 C 0.42539 0.78526 0.41172 0.0
C2975 C 0.41738 0.76988 0.38939 0.0
C2976 C 0.4298 0.75291 0.38257 0.0
C2977 C 0.45015 0.75291 0.3961 0.0
C2978 C 0.37687 0.76724 0.3311 0.0
C2979 C 0.36025 0.77752 0.33906 0.0
C2980 C 0.39483 0.7647 0.3473 0.0
C2981 C 0.3972 0.7723 0.37248 0.0
C2982 C 0.38048 0.78274 0.38062 0.0
C2983 C 0.36226 0.78536 0.3641 0.0
H2984 H 0.05936 0.72115 0.16267 0.0
H2985 H 0.09503 0.74828 0.10843 0.0
H2986 H 0.05553 0.67996 0.14246 0.0
H2987 H 0.09122 0.70704 0.088 0.0
H2988 H 0.03039 0.61387 0.08525 0.0
H2989 H 0.03569 0.65538 0.10384 0.0
H2990 H 0.10275 0.66789 0.09395 0.0
H2991 H 0.09749 0.62586 0.07509 0.0
C2992 C 0.06628 0.71824 0.14632 0.0
C2993 C 0.0768 0.73788 0.1366 0.0
C2994 C 0.06406 0.69468 0.13468 0.0
C2995 C 0.07285 0.69015 0.1134 0.0
C2996 C 0.08426 0.70983 0.10432 0.0
C2997 C 0.08621 0.73345 0.11582 0.0
C2998 C 0.0463 0.62535 0.08677 0.0
C2999 C 0.06353 0.61628 0.0786 0.0
C3000 C 0.04935 0.64924 0.09767 0.0
C3001 C 0.06969 0.66498 0.10066 0.0
C3002 C 0.08684 0.65626 0.09188 0.0
C3003 C 0.08384 0.63214 0.08112 0.0
H3004 H 0.08019 0.24889 0.92633 0.0
H3005 H 0.07718 0.3189 0.90626 0.0
H3006 H 0.11427 0.25029 0.91001 0.0
H3007 H 0.11105 0.3207 0.89084 0.0
H3008 H 0.15316 0.30522 0.83604 0.0
H3009 H 0.12154 0.30242 0.85587 0.0
H3010 H 0.15285 0.26869 0.91204 0.0
H3011 H 0.18477 0.27134 0.89181 0.0
C3012 C 0.08705 0.26478 0.919 0.0
C3013 C 0.07584 0.28366 0.91737 0.0
C3014 C 0.10656 0.2656 0.90958 0.0
C3015 C 0.11526 0.28538 0.89849 0.0
C3016 C 0.10461 0.30481 0.89842 0.0
C3017 C 0.08521 0.30388 0.90752 0.0
C3018 C 0.15352 0.29744 0.85277 0.0
C3019 C 0.17181 0.28892 0.86247 0.0
C3020 C 0.13528 0.29582 0.86423 0.0
C3021 C 0.13464 0.28574 0.88594 0.0
C3022 C 0.15267 0.27655 0.89537 0.0
C3023 C 0.17101 0.2781 0.88377 0.0
H3024 H 0.58917 0.78123 0.94686 0.0
H3025 H 0.52882 0.73418 0.91095 0.0
H3026 H 0.59917 0.74871 0.96745 0.0
H3027 H 0.538 0.70201 0.93266 0.0
H3028 H 0.58709 0.70455 0.02931 0.0
H3029 H 0.5861 0.73275 1.00038 0.0
H3030 H 0.55955 0.67376 0.94191 0.0
H3031 H 0.55886 0.64565 0.97131 0.0
C3032 C 0.57818 0.76377 0.94326 0.0
C3033 C 0.55816 0.76007 0.92774 0.0
C3034 C 0.58383 0.74523 0.95507 0.0
C3035 C 0.5692 0.72296 0.95206 0.0
C3036 C 0.54975 0.71886 0.9352 0.0
C3037 C 0.54438 0.73728 0.92289 0.0
C3038 C 0.58111 0.69762 1.01028 0.0
C3039 C 0.57276 0.673 1.00263 0.0
C3040 C 0.58089 0.71373 0.99358 0.0
C3041 C 0.5727 0.70547 0.96881 0.0
C3042 C 0.5657 0.68066 0.96092 0.0
C3043 C 0.56557 0.66455 0.97773 0.0
H3044 H 0.1398 0.78933 0.69954 0.0
H3045 H 0.13038 0.7466 0.7572 0.0
H3046 H 0.17916 0.79146 0.70865 0.0
H3047 H 0.1695 0.74862 0.76634 0.0
H3048 H 0.23793 0.74013 0.76325 0.0
H3049 H 0.19953 0.73483 0.74572 0.0
H3050 H 0.20771 0.81161 0.74651 0.0
H3051 H 0.24593 0.81701 0.76454 0.0
C3052 C 0.14627 0.78045 0.71413 0.0
C3053 C 0.13252 0.76855 0.72832 0.0
C3054 C 0.1686 0.7816 0.71927 0.0
C3055 C 0.17718 0.77017 0.73812 0.0
C3056 C 0.16319 0.75736 0.75155 0.0
C3057 C 0.14097 0.75651 0.74662 0.0
C3058 C 0.2316 0.75578 0.75912 0.0
C3059 C 0.24472 0.77897 0.76522 0.0
C3060 C 0.20968 0.75276 0.7493 0.0
C3061 C 0.20079 0.77286 0.74504 0.0
C3062 C 0.21426 0.79588 0.74967 0.0
C3063 C 0.23605 0.79896 0.75997 0.0
H3064 H 0.02162 0.40853 0.40611 0.0
H3065 H 0.06358 0.37889 0.45672 0.0
H3066 H 1.01739 0.43757 0.439 0.0
H3067 H 0.06091 0.40926 0.48932 0.0
H3068 H 0.03863 0.45138 0.54877 0.0
H3069 H 0.03681 0.41964 0.51491 0.0
H3070 H 0.03473 0.47171 0.46483 0.0
H3071 H 0.03507 0.50226 0.49776 0.0
C3072 C 0.03027 0.4085 0.42415 0.0
C3073 C 0.04241 0.39101 0.42892 0.0
C3074 C 0.02794 0.42524 0.44308 0.0
C3075 C 0.0384 0.4254 0.46701 0.0
C3076 C 0.05191 0.40905 0.47136 0.0
C3077 C 0.05378 0.39193 0.45255 0.0
C3078 C 0.03695 0.45564 0.53037 0.0
C3079 C 0.03695 0.47925 0.52593 0.0
C3080 C 0.03631 0.43766 0.51103 0.0
C3081 C 0.03599 0.44322 0.48715 0.0
C3082 C 0.03462 0.46654 0.48278 0.0
C3083 C 0.03481 0.4842 0.50186 0.0
H3084 H 0.52767 0.25771 0.26979 0.0
H3085 H 0.47292 0.22663 0.21255 0.0
H3086 H 0.50321 0.27255 0.29466 0.0
H3087 H 0.44865 0.24147 0.23751 0.0
H3088 H 0.42511 0.30843 0.26756 0.0
H3089 H 0.4481 0.28583 0.24783 0.0
H3090 H 0.46936 0.26179 0.31572 0.0
H3091 H 0.4462 0.2848 0.33577 0.0
C3092 C 0.51038 0.25334 0.26281 0.0
C3093 C 0.50228 0.24137 0.239 0.0
C3094 C 0.49641 0.26186 0.27708 0.0
C3095 C 0.47418 0.25849 0.26775 0.0
C3096 C 0.46582 0.24463 0.2449 0.0
C3097 C 0.47973 0.23609 0.23067 0.0
C3098 C 0.43489 0.29861 0.2784 0.0
C3099 C 0.43415 0.29863 0.30328 0.0
C3100 C 0.44777 0.28536 0.26701 0.0
C3101 C 0.46025 0.27186 0.28023 0.0
C3102 C 0.45979 0.27204 0.30519 0.0
C3103 C 0.44662 0.28516 0.3166 0.0
H3104 H 0.60581 0.54972 0.3787 0.0
H3105 H 0.66145 0.58705 0.43197 0.0
H3106 H 0.58572 0.53982 0.4117 0.0
H3107 H 0.64174 0.57694 0.46455 0.0
H3108 H 0.59437 0.57322 0.51862 0.0
H3109 H 0.61282 0.58465 0.48509 0.0
H3110 H 0.58506 0.51438 0.44386 0.0
H3111 H 0.56647 0.50312 0.47735 0.0
C3112 C 0.61368 0.55609 0.39736 0.0
C3113 C 0.63531 0.56924 0.40251 0.0
C3114 C 0.60225 0.55018 0.41635 0.0
C3115 C 0.61206 0.55747 0.44099 0.0
C3116 C 0.63345 0.57118 0.44597 0.0
C3117 C 0.64485 0.5769 0.42712 0.0
C3118 C 0.59236 0.56014 0.50249 0.0
C3119 C 0.579 0.53722 0.50081 0.0
C3120 C 0.60295 0.56668 0.48318 0.0
C3121 C 0.60044 0.55052 0.46151 0.0
C3122 C 0.58719 0.52749 0.45998 0.0
C3123 C 0.5767 0.52091 0.47936 0.0
H3124 H 0.30813 0.89404 0.06605 0.0
H3125 H 0.25675 0.8304 0.04552 0.0
H3126 H 0.32332 0.87686 0.10081 0.0
H3127 H 0.27133 0.81369 0.0806 0.0
H3128 H 0.3069 0.77918 0.13234 0.0
H3129 H 0.30205 0.79756 0.09569 0.0
H3130 H 0.31344 0.86756 0.13924 0.0
H3131 H 0.32 0.84934 0.176 0.0
C3132 C 0.30004 0.87647 0.06912 0.0
C3133 C 0.28133 0.86344 0.05325 0.0
C3134 C 0.30873 0.86667 0.08891 0.0
C3135 C 0.29866 0.84386 0.09315 0.0
C3136 C 0.2798 0.83103 0.07735 0.0
C3137 C 0.2713 0.84067 0.05745 0.0
C3138 C 0.30922 0.79859 0.13411 0.0
C3139 C 0.31343 0.81283 0.157 0.0
C3140 C 0.30614 0.80906 0.11313 0.0
C3141 C 0.30679 0.83383 0.11474 0.0
C3142 C 0.31278 0.84837 0.13751 0.0
C3143 C 0.31623 0.83793 0.15853 0.0
H3144 H 0.98411 0.55907 0.85529 0.0
H3145 H 0.9311 0.56205 0.89438 0.0
H3146 H 1.00744 0.55616 0.89299 0.0
H3147 H 0.95428 0.55983 0.93212 0.0
H3148 H 0.99703 0.54399 1.00103 0.0
H3149 H 0.97314 0.54679 0.96332 0.0
H3150 H 0.02935 0.56422 0.92879 0.0
H3151 H 0.05256 0.56074 0.9658 0.0
C3152 C 0.97731 0.55952 0.8719 0.0
C3153 C 0.95522 0.56113 0.87084 0.0
C3154 C 0.99097 0.55784 0.89416 0.0
C3155 C 0.98356 0.5577 0.91704 0.0
C3156 C 0.96143 0.55951 0.9158 0.0
C3157 C 0.94783 0.56107 0.89359 0.0
C3158 C 1.00435 0.54843 0.98543 0.0
C3159 C 0.02726 0.55207 0.98731 0.0
C3160 C 0.99043 0.55019 0.96327 0.0
C3161 C 0.9985 0.55576 0.94157 0.0
C3162 C 0.02149 0.55952 0.94391 0.0
C3163 C 0.03522 0.55767 0.96581 0.0
H3164 H 0.26259 0.17622 0.61875 0.0
H3165 H 0.30382 0.23925 0.60213 0.0
H3166 H 0.26669 0.19539 0.66084 0.0
H3167 H 0.30806 0.25836 0.64431 0.0
H3168 H 0.32852 0.27235 0.72872 0.0
H3169 H 0.32468 0.2539 0.68643 0.0
H3170 H 0.25571 0.22998 0.68395 0.0
H3171 H 0.25948 0.24852 0.72619 0.0
C3172 C 0.2727 0.19409 0.62411 0.0
C3173 C 0.28295 0.20613 0.60701 0.0
C3174 C 0.27489 0.20517 0.64822 0.0
C3175 C 0.28766 0.22848 0.65602 0.0
C3176 C 0.29823 0.24035 0.63902 0.0
C3177 C 0.29576 0.2294 0.6148 0.0
C3178 C 0.3125 0.26328 0.71915 0.0
C3179 C 0.29431 0.26199 0.73096 0.0
C3180 C 0.31029 0.25276 0.69483 0.0
C3181 C 0.2899 0.24034 0.68174 0.0
C3182 C 0.2717 0.23917 0.69352 0.0
C3183 C 0.27384 0.24999 0.71772 0.0
H3184 H 0.65858 0.55522 0.24769 0.0
H3185 H 0.59549 0.55761 0.26649 0.0
H3186 H 0.64268 0.54878 0.20439 0.0
H3187 H 0.57972 0.55162 0.22327 0.0
H3188 H 0.56779 0.57167 0.14488 0.0
H3189 H 0.58327 0.57594 0.18792 0.0
H3190 H 0.61485 0.51681 0.17289 0.0
H3191 H 0.59901 0.51219 0.12966 0.0
C3192 C 0.64132 0.55429 0.2426 0.0
C3193 C 0.62832 0.55687 0.26062 0.0
C3194 C 0.6322 0.55051 0.21778 0.0
C3195 C 0.60992 0.5497 0.21032 0.0
C3196 C 0.59695 0.55229 0.22836 0.0
C3197 C 0.60598 0.55559 0.25315 0.0
C3198 C 0.57797 0.55948 0.15067 0.0
C3199 C 0.58211 0.54155 0.13369 0.0
C3200 C 0.58678 0.56188 0.17543 0.0
C3201 C 0.60031 0.54673 0.18391 0.0
C3202 C 0.60458 0.52887 0.16695 0.0
C3203 C 0.5954 0.52613 0.14219 0.0
H3204 H 0.21736 0.83394 0.94432 0.0
H3205 H 0.23205 0.889 0.89894 0.0
H3206 H 0.21945 0.80337 0.91142 0.0
H3207 H 0.2343 0.85816 0.86614 0.0
H3208 H 0.2911 0.80559 0.87698 0.0
H3209 H 0.26952 0.82959 0.8978 0.0
H3210 H 0.21195 0.79383 0.84685 0.0
H3211 H 0.23373 0.76976 0.82537 0.0
C3212 C 0.21991 0.83942 0.92692 0.0
C3213 C 0.22554 0.86394 0.92449 0.0
C3214 C 0.22089 0.82185 0.90806 0.0
C3215 C 0.22729 0.82866 0.88661 0.0
C3216 C 0.22926 0.85268 0.88265 0.0
C3217 C 0.22814 0.87031 0.9015 0.0
C3218 C 0.27381 0.80278 0.87027 0.0
C3219 C 0.26399 0.78613 0.8496 0.0
C3220 C 0.26156 0.81647 0.88207 0.0
C3221 C 0.23926 0.81351 0.87354 0.0
C3222 C 0.22915 0.79629 0.8534 0.0
C3223 C 0.24151 0.78252 0.84141 0.0
H3224 H 0.92766 0.5423 0.69859 0.0
H3225 H 0.98956 0.56778 0.7452 0.0
H3226 H 0.94611 0.53812 0.66318 0.0
H3227 H 1.00803 0.56378 0.71017 0.0
H3228 H 0.04182 0.54119 0.64573 0.0
H3229 H 0.02265 0.5451 0.68013 0.0
H3230 H 0.96488 0.54857 0.63129 0.0
H3231 H 0.98432 0.54454 0.59669 0.0
C3232 C 0.94524 0.54722 0.70159 0.0
C3233 C 0.95658 0.55561 0.72577 0.0
C3234 C 0.95612 0.54483 0.68079 0.0
C3235 C 0.97926 0.55036 0.68253 0.0
C3236 C 0.99047 0.55876 0.70682 0.0
C3237 C 0.9796 0.56133 0.72749 0.0
C3238 C 0.02498 0.54268 0.64195 0.0
C3239 C 1.0152 0.54233 0.61738 0.0
C3240 C 1.01369 0.5452 0.66226 0.0
C3241 C 0.99152 0.54742 0.65981 0.0
C3242 C 0.98163 0.54684 0.63512 0.0
C3243 C 0.99305 0.54454 0.61474 0.0
H3244 H 0.26466 0.16994 0.43562 0.0
H3245 H 0.28394 0.23312 0.49001 0.0
H3246 H 0.27303 0.19444 0.40423 0.0
H3247 H 0.29173 0.25789 0.45838 0.0
H3248 H 0.27462 0.24653 0.34813 0.0
H3249 H 0.26375 0.2229 0.37973 0.0
H3250 H 0.31622 0.2683 0.43211 0.0
H3251 H 0.32634 0.29217 0.40083 0.0
C3252 C 0.27053 0.18913 0.44097 0.0
C3253 C 0.27364 0.19936 0.46564 0.0
C3254 C 0.2752 0.20333 0.42275 0.0
C3255 C 0.28315 0.22839 0.4284 0.0
C3256 C 0.28599 0.23868 0.45307 0.0
C3257 C 0.28135 0.22444 0.47135 0.0
C3258 C 0.2836 0.25164 0.36643 0.0
C3259 C 0.30124 0.27147 0.37181 0.0
C3260 C 0.27754 0.23789 0.38466 0.0
C3261 C 0.289 0.24348 0.40885 0.0
C3262 C 0.30658 0.26346 0.41406 0.0
C3263 C 0.31254 0.27715 0.39592 0.0
H3264 H 0.41398 0.68099 0.59379 0.0
H3265 H 0.38589 0.68258 0.51945 0.0
H3266 H 0.44151 0.66131 0.57972 0.0
H3267 H 0.41405 0.66385 0.50519 0.0
H3268 H 0.42585 0.58506 0.49944 0.0
H3269 H 0.41219 0.62167 0.50639 0.0
H3270 H 0.47052 0.65418 0.55826 0.0
H3271 H 0.48389 0.61706 0.55158 0.0
C3272 C 0.41454 0.67844 0.57448 0.0
C3273 C 0.39771 0.68274 0.55762 0.0
C3274 C 0.43032 0.66713 0.56635 0.0
C3275 C 0.4295 0.66035 0.54127 0.0
C3276 C 0.41467 0.66825 0.52459 0.0
C3277 C 0.39869 0.67913 0.53272 0.0
C3278 C 0.43597 0.60027 0.51179 0.0
C3279 C 0.45564 0.59819 0.5253 0.0
C3280 C 0.42828 0.62138 0.51568 0.0
C3281 C 0.44027 0.64086 0.533 0.0
C3282 C 0.46082 0.63939 0.54505 0.0
C3283 C 0.46841 0.61818 0.54128 0.0
H3284 H 0.89122 0.96391 0.60771 0.0
H3285 H 0.9013 0.90907 0.55409 0.0
H3286 H 0.92781 0.98659 0.60876 0.0
H3287 H 0.93761 0.93262 0.55332 0.0
H3288 H 1.00777 0.9775 0.56269 0.0
H3289 H 0.97403 0.95012 0.56677 0.0
H3290 H 0.94765 1.0117 0.58948 0.0
H3291 H 0.98073 0.03806 0.58604 0.0
C3292 C 0.90127 0.95689 0.59583 0.0
C3293 C 0.89306 0.93512 0.58021 0.0
C3294 C 0.92239 0.97003 0.59619 0.0
C3295 C 0.93599 0.96221 0.58045 0.0
C3296 C 0.92803 0.9396 0.56575 0.0
C3297 C 0.90702 0.92609 0.56597 0.0
C3298 C 0.99477 0.98502 0.56871 0.0
C3299 C 0.99724 1.01014 0.57411 0.0
C3300 C 0.97518 0.9693 0.57091 0.0
C3301 C 0.95754 0.97829 0.57857 0.0
C3302 C 0.96043 1.00346 0.58394 0.0
C3303 C 0.97971 1.01889 0.58177 0.0
H3304 H 0.91875 0.06128 0.2469 0.0
H3305 H 0.94222 0.08329 0.3236 0.0
H3306 H 0.90304 0.09698 0.24511 0.0
H3307 H 0.92739 0.11957 0.3219 0.0
H3308 H 0.8676 0.15391 0.31766 0.0
H3309 H 0.89093 0.12488 0.31839 0.0
H3310 H 0.90617 0.1398 0.24834 0.0
H3311 H 0.88238 0.16874 0.2475 0.0
C3312 C 0.92146 0.07447 0.26308 0.0
C3313 C 0.93194 0.06992 0.28528 0.0
C3314 C 0.91238 0.09486 0.26215 0.0
C3315 C 0.91366 0.11102 0.28345 0.0
C3316 C 0.9257 0.10727 0.30526 0.0
C3317 C 0.93454 0.08677 0.3062 0.0
C3318 C 0.87624 0.15135 0.30261 0.0
C3319 C 0.87321 0.1637 0.28256 0.0
C3320 C 0.88971 0.13472 0.30304 0.0
C3321 C 0.90064 0.1301 0.28351 0.0
C3322 C 0.89788 0.14276 0.2636 0.0
C3323 C 0.88427 0.15935 0.26312 0.0
H3324 H 0.80513 0.1336 0.11495 0.0
H3325 H 0.77512 0.19221 0.09654 0.0
H3326 H 0.76958 0.10962 0.1178 0.0
H3327 H 0.73952 0.16849 0.09961 0.0
H3328 H 0.68147 0.1051 0.06958 0.0
H3329 H 0.71653 0.13212 0.07341 0.0
H3330 H 0.73857 0.10722 0.14056 0.0
H3331 H 0.70297 0.08086 0.13744 0.0
C3332 C 0.79083 0.14126 0.11161 0.0
C3333 C 0.79239 0.16413 0.10456 0.0
C3334 C 0.77062 0.12777 0.11357 0.0
C3335 C 0.75183 0.13714 0.10858 0.0
C3336 C 0.75373 0.16072 0.10307 0.0
C3337 C 0.77397 0.17425 0.10134 0.0
C3338 C 0.69362 0.10563 0.0854 0.0
C3339 C 0.68938 0.09088 0.10326 0.0
C3340 C 0.71373 0.12108 0.08754 0.0
C3341 C 0.7302 0.12173 0.10729 0.0
C3342 C 0.72614 0.10688 0.12506 0.0
C3343 C 0.70584 0.09169 0.12315 0.0
H3344 H 0.24199 0.47794 0.35238 0.0
H3345 H 0.1893 0.44204 0.29547 0.0
H3346 H 0.25865 0.44324 0.34921 0.0
H3347 H 0.20626 0.40657 0.29216 0.0
H3348 H 0.2372 0.3364 0.29663 0.0
H3349 H 0.21884 0.37063 0.29895 0.0
H3350 H 0.27862 0.41662 0.33698 0.0
H3351 H 0.29666 0.38256 0.33466 0.0
C3352 C 0.23356 0.46269 0.33898 0.0
C3353 C 0.21356 0.46421 0.32441 0.0
C3354 C 0.2436 0.44208 0.33697 0.0
C3355 C 0.23468 0.42058 0.32021 0.0
C3356 C 0.21447 0.42185 0.30561 0.0
C3357 C 0.20441 0.44278 0.3075 0.0
C3358 C 0.24666 0.35372 0.30565 0.0
C3359 C 0.26907 0.35546 0.31549 0.0
C3360 C 0.23586 0.37399 0.30692 0.0
C3361 C 0.24642 0.39788 0.31834 0.0
C3362 C 0.26883 0.39943 0.32818 0.0
C3363 C 0.27961 0.37927 0.32675 0.0
H3364 H 0.27612 0.44016 0.02943 0.0
H3365 H 0.27474 0.4313 0.10442 0.0
H3366 H 0.24302 0.45556 0.02736 0.0
H3367 H 0.2416 0.44786 0.10281 0.0
H3368 H 0.1725 0.46569 0.08466 0.0
H3369 H 0.20352 0.44573 0.08812 0.0
H3370 H 0.23294 0.49117 0.04029 0.0
H3371 H 0.20207 0.51046 0.03653 0.0
C3372 C 0.26857 0.44134 0.04551 0.0
C3373 C 0.27817 0.4345 0.06709 0.0
C3374 C 0.24963 0.45054 0.04444 0.0
C3375 C 0.2397 0.45376 0.06509 0.0
C3376 C 0.24866 0.44575 0.08647 0.0
C3377 C 0.26765 0.43615 0.08744 0.0
C3378 C 0.18565 0.47143 0.07495 0.0
C3379 C 0.18447 0.48948 0.05995 0.0
C3380 C 0.20352 0.45997 0.07696 0.0
C3381 C 0.22078 0.46634 0.06413 0.0
C3382 C 0.21979 0.48499 0.04985 0.0
C3383 C 0.20199 0.49622 0.04772 0.0
H3384 H 0.9379 0.92699 0.30273 0.0
H3385 H 0.89214 0.95209 0.25281 0.0
H3386 H 0.9107 0.89052 0.30284 0.0
H3387 H 0.86448 0.91669 0.2537 0.0
H3388 H 0.81747 0.84733 0.25255 0.0
H3389 H 0.84784 0.87753 0.24589 0.0
H3390 H 0.88058 0.87736 0.31903 0.0
H3391 H 0.85069 0.84638 0.32488 0.0
C3392 C 0.92197 0.9246 0.29174 0.0
C3393 C 0.91676 0.94272 0.27857 0.0
C3394 C 0.9062 0.90381 0.29195 0.0
C3395 C 0.88488 0.90062 0.27887 0.0
C3396 C 0.88049 0.91807 0.26407 0.0
C3397 C 0.89629 0.9387 0.2638 0.0
C3398 C 0.83129 0.85371 0.26707 0.0
C3399 C 0.83172 0.84444 0.28918 0.0
C3400 C 0.84875 0.87122 0.26338 0.0
C3401 C 0.86698 0.88032 0.2819 0.0
C3402 C 0.86729 0.87073 0.30399 0.0
C3403 C 0.84999 0.85297 0.3075 0.0
H3404 H 0.6871 0.11211 0.84013 0.0
H3405 H 0.73536 0.08232 0.80808 0.0
H3406 H 0.70733 0.15291 0.839 0.0
H3407 H 0.75581 0.12304 0.80699 0.0
H3408 H 0.77903 0.19952 0.78619 0.0
H3409 H 0.75988 0.15892 0.78918 0.0
H3410 H 0.7368 0.18669 0.85279 0.0
H3411 H 0.75617 0.22746 0.84976 0.0
C3412 C 0.70222 0.11411 0.83309 0.0
C3413 C 0.70953 0.09317 0.82488 0.0
C3414 C 0.71408 0.13791 0.83247 0.0
C3415 C 0.73375 0.14237 0.82289 0.0
C3416 C 0.74089 0.12129 0.81439 0.0
C3417 C 0.72915 0.0975 0.81534 0.0
C3418 C 0.76993 0.19723 0.80093 0.0
C3419 C 0.76952 0.21768 0.81763 0.0
C3420 C 0.75884 0.17344 0.80279 0.0
C3421 C 0.74627 0.16843 0.82129 0.0
C3422 C 0.74581 0.18896 0.83798 0.0
C3423 C 0.7572 0.21276 0.83632 0.0
loop_
_geom_bond_atom_site_label_1
_geom_bond_atom_site_label_2
_geom_bond_distance
_geom_bond_site_symmetry_2
_ccdc_geom_bond_type
Mn0 O5 2.095 . S
Mn0 O15 2.162 . S
Mn0 O16 2.297 1_455 S
Mn0 O24 2.385 1_455 S
Mn0 O25 2.209 1_455 S
Mn0 O26 2.094 . S
Mn1 O6 2.082 1_655 S
Mn1 N8 2.265 . S
Mn1 N17 2.322 . S
Mn1 O25 2.230 . S
Mn1 O27 2.121 1_655 S
C2 O24 1.234 . S
C2 O25 1.283 . S
C3 O15 1.283 1_655 S
C3 O16 1.236 . S
C4 O26 1.240 . S
C4 O27 1.264 . S
O5 Mn0 2.095 . S
O5 C14 1.250 . S
O6 Mn1 2.082 1_455 S
O6 C14 1.258 . S
C7 N8 1.326 . S
C7 C11 1.460 . S
C7 H13 0.929 1_655 S
N8 Mn1 2.265 . S
N8 C7 1.326 . S
N8 C12 1.362 . S
C9 C10 1.258 . S
C9 C12 1.431 . S
C9 C29 1.449 . S
C10 C9 1.258 . S
C10 C11 1.477 . S
C10 H30 0.931 . S
C11 C7 1.460 . S
C11 C10 1.477 . S
C11 H31 0.930 . S
C12 N8 1.362 . S
C12 C9 1.431 . S
C12 C22 1.476 . S
H13 C7 0.929 1_455 S
C14 O5 1.250 . S
C14 O6 1.258 . S
O15 Mn0 2.162 . S
O15 C3 1.283 1_455 S
O16 Mn0 2.297 1_655 S
O16 C3 1.236 . S
N17 Mn1 2.322 . S
N17 C18 1.328 . S
N17 C22 1.318 . S
C18 N17 1.328 . S
C18 C19 1.457 . S
C18 H23 0.929 . S
C19 C18 1.457 . S
C19 C20 1.291 . S
C19 H32 0.931 . S
C20 C19 1.291 . S
C20 C21 1.373 . S
C20 H33 0.929 . S
C21 C20 1.373 . S
C21 C22 1.396 . S
C21 C28 1.403 . S
C22 C12 1.476 . S
C22 N17 1.318 . S
C22 C21 1.396 . S
H23 C18 0.929 . S
O24 Mn0 2.385 1_655 S
O24 C2 1.234 . S
O25 Mn0 2.209 1_655 S
O25 Mn1 2.230 . S
O25 C2 1.283 . S
O26 Mn0 2.094 . S
O26 C4 1.240 . S
O27 Mn1 2.121 1_455 S
O27 C4 1.264 . S
C28 C21 1.403 . S
C28 C29 1.399 . S
C28 H34 0.929 . S
C29 C9 1.449 . S
C29 C28 1.399 . S
C29 H35 0.930 . S
H30 C10 0.931 . S
H31 C11 0.930 . S
H32 C19 0.931 . S
H33 C20 0.929 . S
H34 C28 0.929 . S
H35 C29 0.930 . S
Mn36 O41 2.095 . S
Mn36 O51 2.162 . S
Mn36 O52 2.297 . S
Mn36 O60 2.385 . S
Mn36 O61 2.209 . S
Mn36 O62 2.094 . S
Mn37 O42 2.121 . S
Mn37 N44 2.257 . S
Mn37 N53 2.282 . S
Mn37 O61 2.215 . S
Mn37 O63 2.117 . S
C38 O60 1.234 . S
C38 O61 1.283 . S
C39 O51 1.281 . S
C39 O52 1.236 . S
C40 O62 1.240 . S
C40 O63 1.264 . S
O41 Mn36 2.095 . S
O41 C50 1.250 . S
O42 Mn37 2.121 . S
O42 C50 1.258 . S
C43 N44 1.326 . S
C43 C47 1.460 . S
C43 H49 0.929 . S
N44 Mn37 2.257 . S
N44 C43 1.326 . S
N44 C48 1.362 . S
C45 C46 1.258 . S
C45 C48 1.431 . S
C45 C65 1.449 . S
C46 C45 1.258 . S
C46 C47 1.477 . S
C46 H66 0.931 . S
C47 C43 1.460 . S
C47 C46 1.477 . S
C47 H67 0.930 . S
C48 N44 1.362 . S
C48 C45 1.431 . S
C48 C58 1.476 . S
H49 C43 0.929 . S
C50 O41 1.250 . S
C50 O42 1.258 . S
O51 Mn36 2.162 . S
O51 C39 1.281 . S
O52 Mn36 2.297 . S
O52 C39 1.236 . S
N53 Mn37 2.282 . S
N53 C54 1.328 . S
N53 C58 1.318 . S
C54 N53 1.328 . S
C54 C55 1.457 . S
C54 H59 0.929 . S
C55 C54 1.457 . S
C55 C56 1.291 . S
C55 H68 0.931 . S
C56 C55 1.291 . S
C56 C57 1.373 . S
C56 H69 0.929 . S
C57 C56 1.373 . S
C57 C58 1.396 . S
C57 C64 1.403 . S
C58 C48 1.476 . S
C58 N53 1.318 . S
C58 C57 1.396 . S
H59 C54 0.929 . S
O60 Mn36 2.385 . S
O60 C38 1.234 . S
O61 Mn36 2.209 . S
O61 Mn37 2.215 . S
O61 C38 1.283 . S
O62 Mn36 2.094 . S
O62 C40 1.240 . S
O63 Mn37 2.117 . S
O63 C40 1.264 . S
C64 C57 1.403 . S
C64 C65 1.399 . S
C64 H70 0.929 . S
C65 C45 1.449 . S
C65 C64 1.399 . S
C65 H71 0.930 . S
H66 C46 0.931 . S
H67 C47 0.930 . S
H68 C55 0.931 . S
H69 C56 0.929 . S
H70 C64 0.929 . S
H71 C65 0.930 . S
Mn72 O77 2.095 . S
Mn72 O87 2.162 . S
Mn72 O88 2.297 . S
Mn72 O96 2.385 . S
Mn72 O97 2.209 . S
Mn72 O98 2.094 . S
Mn73 O78 2.121 . S
Mn73 N80 2.257 . S
Mn73 N89 2.282 . S
Mn73 O97 2.215 . S
Mn73 O99 2.117 . S
C74 O96 1.234 . S
C74 O97 1.283 . S
C75 O87 1.281 . S
C75 O88 1.236 . S
C76 O98 1.240 . S
C76 O99 1.264 . S
O77 Mn72 2.095 . S
O77 C86 1.250 . S
O78 Mn73 2.121 . S
O78 C86 1.258 . S
C79 N80 1.326 . S
C79 C83 1.460 . S
C79 H85 0.929 . S
N80 Mn73 2.257 . S
N80 C79 1.326 . S
N80 C84 1.362 . S
C81 C82 1.258 . S
C81 C84 1.431 . S
C81 C101 1.449 . S
C82 C81 1.258 . S
C82 C83 1.477 . S
C82 H102 0.931 . S
C83 C79 1.460 . S
C83 C82 1.477 . S
C83 H103 0.930 . S
C84 N80 1.362 . S
C84 C81 1.431 . S
C84 C94 1.476 . S
H85 C79 0.929 . S
C86 O77 1.250 . S
C86 O78 1.258 . S
O87 Mn72 2.162 . S
O87 C75 1.281 . S
O88 Mn72 2.297 . S
O88 C75 1.236 . S
N89 Mn73 2.282 . S
N89 C90 1.328 . S
N89 C94 1.318 . S
C90 N89 1.328 . S
C90 C91 1.457 . S
C90 H95 0.929 . S
C91 C90 1.457 . S
C91 C92 1.291 . S
C91 H104 0.931 . S
C92 C91 1.291 . S
C92 C93 1.373 . S
C92 H105 0.929 . S
C93 C92 1.373 . S
C93 C94 1.396 . S
C93 C100 1.403 . S
C94 C84 1.476 . S
C94 N89 1.318 . S
C94 C93 1.396 . S
H95 C90 0.929 . S
O96 Mn72 2.385 . S
O96 C74 1.234 . S
O97 Mn72 2.209 . S
O97 Mn73 2.215 . S
O97 C74 1.283 . S
O98 Mn72 2.094 . S
O98 C76 1.240 . S
O99 Mn73 2.117 . S
O99 C76 1.264 . S
C100 C93 1.403 . S
C100 C101 1.399 . S
C100 H106 0.929 . S
C101 C81 1.449 . S
C101 C100 1.399 . S
C101 H107 0.930 . S
H102 C82 0.931 . S
H103 C83 0.930 . S
H104 C91 0.931 . S
H105 C92 0.929 . S
H106 C100 0.929 . S
H107 C101 0.930 . S
Mn108 O113 2.095 . S
Mn108 O123 2.162 . S
Mn108 O124 2.297 . S
Mn108 O132 2.385 . S
Mn108 O133 2.209 . S
Mn108 O134 2.094 . S
Mn109 O114 2.121 . S
Mn109 N116 2.257 . S
Mn109 N125 2.282 . S
Mn109 O133 2.215 . S
Mn109 O135 2.117 . S
C110 O132 1.234 . S
C110 O133 1.283 . S
C111 O123 1.281 . S
C111 O124 1.236 . S
C112 O134 1.240 . S
C112 O135 1.264 . S
O113 Mn108 2.095 . S
O113 C122 1.250 . S
O114 Mn109 2.121 . S
O114 C122 1.258 . S
C115 N116 1.326 . S
C115 C119 1.460 . S
C115 H121 0.929 . S
N116 Mn109 2.257 . S
N116 C115 1.326 . S
N116 C120 1.362 . S
C117 C118 1.258 . S
C117 C120 1.431 . S
C117 C137 1.449 . S
C118 C117 1.258 . S
C118 C119 1.477 . S
C118 H138 0.931 . S
C119 C115 1.460 . S
C119 C118 1.477 . S
C119 H139 0.930 . S
C120 N116 1.362 . S
C120 C117 1.431 . S
C120 C130 1.476 . S
H121 C115 0.929 . S
C122 O113 1.250 . S
C122 O114 1.258 . S
O123 Mn108 2.162 . S
O123 C111 1.281 . S
O124 Mn108 2.297 . S
O124 C111 1.236 . S
N125 Mn109 2.282 . S
N125 C126 1.328 . S
N125 C130 1.318 . S
C126 N125 1.328 . S
C126 C127 1.457 . S
C126 H131 0.929 . S
C127 C126 1.457 . S
C127 C128 1.291 . S
C127 H140 0.931 . S
C128 C127 1.291 . S
C128 C129 1.373 . S
C128 H141 0.929 . S
C129 C128 1.373 . S
C129 C130 1.396 . S
C129 C136 1.403 . S
C130 C120 1.476 . S
C130 N125 1.318 . S
C130 C129 1.396 . S
H131 C126 0.929 . S
O132 Mn108 2.385 . S
O132 C110 1.234 . S
O133 Mn108 2.209 . S
O133 Mn109 2.215 . S
O133 C110 1.283 . S
O134 Mn108 2.094 . S
O134 C112 1.240 . S
O135 Mn109 2.117 . S
O135 C112 1.264 . S
C136 C129 1.403 . S
C136 C137 1.399 . S
C136 H142 0.929 . S
C137 C117 1.449 . S
C137 C136 1.399 . S
C137 H143 0.930 . S
H138 C118 0.931 . S
H139 C119 0.930 . S
H140 C127 0.931 . S
H141 C128 0.929 . S
H142 C136 0.929 . S
H143 C137 0.930 . S
Mn144 O149 2.095 . S
Mn144 O159 2.162 . S
Mn144 O160 2.297 . S
Mn144 O168 2.385 . S
Mn144 O169 2.209 . S
Mn144 O170 2.094 . S
Mn145 O150 2.121 . S
Mn145 N152 2.257 . S
Mn145 N161 2.282 1_455 S
Mn145 O169 2.215 . S
Mn145 O171 2.117 . S
C146 O168 1.234 . S
C146 O169 1.283 . S
C147 O159 1.281 . S
C147 O160 1.236 . S
C148 O170 1.240 . S
C148 O171 1.264 . S
O149 Mn144 2.095 . S
O149 C158 1.250 . S
O150 Mn145 2.121 . S
O150 C158 1.258 . S
C151 N152 1.326 . S
C151 C155 1.460 . S
C151 H157 0.929 . S
N152 Mn145 2.257 . S
N152 C151 1.326 . S
N152 C156 1.362 . S
C153 C154 1.258 . S
C153 C156 1.431 . S
C153 C173 1.449 1_455 S
C154 C153 1.258 . S
C154 C155 1.477 . S
C154 H174 0.899 1_554 S
C155 C151 1.460 . S
C155 C154 1.477 . S
C155 H175 0.930 . S
C156 N152 1.362 . S
C156 C153 1.431 . S
C156 C166 1.476 1_455 S
H157 C151 0.929 . S
C158 O149 1.250 . S
C158 O150 1.258 . S
O159 Mn144 2.162 . S
O159 C147 1.281 . S
O160 Mn144 2.297 . S
O160 C147 1.236 . S
N161 Mn145 2.282 1_655 S
N161 C162 1.328 . S
N161 C166 1.318 . S
C162 N161 1.328 . S
C162 C163 1.457 . S
C162 H167 0.929 . S
C163 C162 1.457 . S
C163 C164 1.291 . S
C163 H176 0.931 . S
C164 C163 1.291 . S
C164 C165 1.373 . S
C164 H177 0.929 . S
C165 C164 1.373 . S
C165 C166 1.396 . S
C165 C172 1.403 . S
C166 C156 1.476 1_655 S
C166 N161 1.318 . S
C166 C165 1.396 . S
H167 C162 0.929 . S
O168 Mn144 2.385 . S
O168 C146 1.234 . S
O169 Mn144 2.209 . S
O169 Mn145 2.215 . S
O169 C146 1.283 . S
O170 Mn144 2.094 . S
O170 C148 1.240 . S
O171 Mn145 2.117 . S
O171 C148 1.264 . S
C172 C165 1.403 . S
C172 C173 1.399 . S
C172 H178 0.929 . S
C173 C153 1.449 1_655 S
C173 C172 1.399 . S
C173 H179 0.930 . S
H174 C154 0.899 1_556 S
H175 C155 0.930 . S
H176 C163 0.931 . S
H177 C164 0.929 . S
H178 C172 0.929 . S
H179 C173 0.930 . S
Mn180 O185 2.095 . S
Mn180 O195 2.162 . S
Mn180 O196 2.297 . S
Mn180 O204 2.385 . S
Mn180 O205 2.209 . S
Mn180 O206 2.094 . S
Mn181 O186 2.121 . S
Mn181 N188 2.257 . S
Mn181 N197 2.282 . S
Mn181 O205 2.215 . S
Mn181 O207 2.117 . S
C182 O204 1.234 . S
C182 O205 1.283 . S
C183 O195 1.281 . S
C183 O196 1.236 . S
C184 O206 1.240 . S
C184 O207 1.264 . S
O185 Mn180 2.095 . S
O185 C194 1.250 . S
O186 Mn181 2.121 . S
O186 C194 1.258 . S
C187 N188 1.326 . S
C187 C191 1.460 . S
C187 H193 0.929 . S
N188 Mn181 2.257 . S
N188 C187 1.326 . S
N188 C192 1.362 . S
C189 C190 1.258 . S
C189 C192 1.431 . S
C189 C209 1.449 . S
C190 C189 1.258 . S
C190 C191 1.477 . S
C190 H210 0.931 . S
C191 C187 1.460 . S
C191 C190 1.477 . S
C191 H211 0.930 . S
C192 N188 1.362 . S
C192 C189 1.431 . S
C192 C202 1.476 . S
H193 C187 0.929 . S
C194 O185 1.250 . S
C194 O186 1.258 . S
O195 Mn180 2.162 . S
O195 C183 1.281 . S
O196 Mn180 2.297 . S
O196 C183 1.236 . S
N197 Mn181 2.282 . S
N197 C198 1.328 . S
N197 C202 1.318 . S
C198 N197 1.328 . S
C198 C199 1.457 . S
C198 H203 0.929 . S
C199 C198 1.457 . S
C199 C200 1.291 . S
C199 H212 0.931 . S
C200 C199 1.291 . S
C200 C201 1.373 . S
C200 H213 0.929 . S
C201 C200 1.373 . S
C201 C202 1.396 . S
C201 C208 1.403 . S
C202 C192 1.476 . S
C202 N197 1.318 . S
C202 C201 1.396 . S
H203 C198 0.929 . S
O204 Mn180 2.385 . S
O204 C182 1.234 . S
O205 Mn180 2.209 . S
O205 Mn181 2.215 . S
O205 C182 1.283 . S
O206 Mn180 2.094 . S
O206 C184 1.240 . S
O207 Mn181 2.117 . S
O207 C184 1.264 . S
C208 C201 1.403 . S
C208 C209 1.399 . S
C208 H214 0.929 . S
C209 C189 1.449 . S
C209 C208 1.399 . S
C209 H215 0.930 . S
H210 C190 0.931 . S
H211 C191 0.930 . S
H212 C199 0.931 . S
H213 C200 0.929 . S
H214 C208 0.929 . S
H215 C209 0.930 . S
Mn216 O221 2.095 . S
Mn216 O231 2.162 . S
Mn216 O232 2.297 . S
Mn216 O240 2.385 . S
Mn216 O241 2.209 . S
Mn216 O242 2.094 . S
Mn217 O222 2.121 . S
Mn217 N224 2.257 . S
Mn217 N233 2.282 . S
Mn217 O241 2.215 . S
Mn217 O243 2.117 . S
C218 O240 1.234 . S
C218 O241 1.283 . S
C219 O231 1.281 . S
C219 O232 1.236 . S
C220 O242 1.240 . S
C220 O243 1.264 . S
O221 Mn216 2.095 . S
O221 C230 1.250 . S
O222 Mn217 2.121 . S
O222 C230 1.258 . S
C223 N224 1.326 . S
C223 C227 1.460 . S
C223 H229 0.929 . S
N224 Mn217 2.257 . S
N224 C223 1.326 . S
N224 C228 1.362 . S
C225 C226 1.258 . S
C225 C228 1.431 . S
C225 C245 1.449 . S
C226 C225 1.258 . S
C226 C227 1.477 . S
C226 H246 0.931 . S
C227 C223 1.460 . S
C227 C226 1.477 . S
C227 H247 0.930 . S
C228 N224 1.362 . S
C228 C225 1.431 . S
C228 C238 1.476 . S
H229 C223 0.929 . S
C230 O221 1.250 . S
C230 O222 1.258 . S
O231 Mn216 2.162 . S
O231 C219 1.281 . S
O232 Mn216 2.297 . S
O232 C219 1.236 . S
N233 Mn217 2.282 . S
N233 C234 1.328 . S
N233 C238 1.318 . S
C234 N233 1.328 . S
C234 C235 1.457 . S
C234 H239 0.929 . S
C235 C234 1.457 . S
C235 C236 1.291 . S
C235 H248 0.931 . S
C236 C235 1.291 . S
C236 C237 1.373 . S
C236 H249 0.929 . S
C237 C236 1.373 . S
C237 C238 1.396 . S
C237 C244 1.403 . S
C238 C228 1.476 . S
C238 N233 1.318 . S
C238 C237 1.396 . S
H239 C234 0.929 . S
O240 Mn216 2.385 . S
O240 C218 1.234 . S
O241 Mn216 2.209 . S
O241 Mn217 2.215 . S
O241 C218 1.283 . S
O242 Mn216 2.094 . S
O242 C220 1.240 . S
O243 Mn217 2.117 . S
O243 C220 1.264 . S
C244 C237 1.403 . S
C244 C245 1.399 . S
C244 H250 0.929 . S
C245 C225 1.449 . S
C245 C244 1.399 . S
C245 H251 0.930 . S
H246 C226 0.931 . S
H247 C227 0.930 . S
H248 C235 0.931 . S
H249 C236 0.929 . S
H250 C244 0.929 . S
H251 C245 0.930 . S
Mn252 O257 2.095 . S
Mn252 O267 2.162 . S
Mn252 O268 2.297 . S
Mn252 O276 2.385 1_455 S
Mn252 O277 2.209 1_455 S
Mn252 O278 2.094 . S
Mn253 O258 2.121 . S
Mn253 N260 2.257 1_455 S
Mn253 N269 2.282 1_455 S
Mn253 O277 2.215 1_455 S
Mn253 O279 2.117 . S
C254 O276 1.234 . S
C254 O277 1.283 . S
C255 O267 1.281 . S
C255 O268 1.236 . S
C256 O278 1.240 . S
C256 O279 1.264 . S
O257 Mn252 2.095 . S
O257 C266 1.250 . S
O258 Mn253 2.121 . S
O258 C266 1.258 . S
C259 N260 1.326 1_455 S
C259 C263 1.460 1_455 S
C259 H265 0.929 . S
N260 Mn253 2.257 1_655 S
N260 C259 1.326 1_655 S
N260 C264 1.362 . S
C261 C262 1.258 . S
C261 C264 1.431 . S
C261 C281 1.449 . S
C262 C261 1.258 . S
C262 C263 1.477 . S
C262 H282 0.931 . S
C263 C259 1.460 1_655 S
C263 C262 1.477 . S
C263 H283 0.930 1_655 S
C264 N260 1.362 . S
C264 C261 1.431 . S
C264 C274 1.476 . S
H265 C259 0.929 . S
C266 O257 1.250 . S
C266 O258 1.258 . S
O267 Mn252 2.162 . S
O267 C255 1.281 . S
O268 Mn252 2.297 . S
O268 C255 1.236 . S
N269 Mn253 2.282 1_655 S
N269 C270 1.328 . S
N269 C274 1.318 . S
C270 N269 1.328 . S
C270 C271 1.457 . S
C270 H275 0.929 . S
C271 C270 1.457 . S
C271 C272 1.291 . S
C271 H284 0.931 . S
C272 C271 1.291 . S
C272 C273 1.373 . S
C272 H285 0.929 . S
C273 C272 1.373 . S
C273 C274 1.396 . S
C273 C280 1.403 . S
C274 C264 1.476 . S
C274 N269 1.318 . S
C274 C273 1.396 . S
H275 C270 0.929 . S
O276 Mn252 2.385 1_655 S
O276 C254 1.234 . S
O277 Mn252 2.209 1_655 S
O277 Mn253 2.215 1_655 S
O277 C254 1.283 . S
O278 Mn252 2.094 . S
O278 C256 1.240 . S
O279 Mn253 2.117 . S
O279 C256 1.264 . S
C280 C273 1.403 . S
C280 C281 1.399 . S
C280 H286 0.929 . S
C281 C261 1.449 . S
C281 C280 1.399 . S
C281 H287 0.930 . S
H282 C262 0.931 . S
H283 C263 0.930 1_455 S
H284 C271 0.931 . S
H285 C272 0.929 . S
H286 C280 0.929 . S
H287 C281 0.930 . S
Mn288 O293 2.095 . S
Mn288 O303 2.162 . S
Mn288 O304 2.297 . S
Mn288 O312 2.385 1_545 S
Mn288 O313 2.209 . S
Mn288 O314 2.094 . S
Mn289 O294 2.121 . S
Mn289 N296 2.257 . S
Mn289 N305 2.282 1_545 S
Mn289 O313 2.215 . S
Mn289 O315 2.117 . S
C290 O312 1.234 . S
C290 O313 1.283 1_565 S
C291 O303 1.281 . S
C291 O304 1.236 . S
C292 O314 1.240 . S
C292 O315 1.264 . S
O293 Mn288 2.095 . S
O293 C302 1.250 . S
O294 Mn289 2.121 . S
O294 C302 1.258 . S
C295 N296 1.326 . S
C295 C299 1.460 . S
C295 H301 0.929 . S
N296 Mn289 2.257 . S
N296 C295 1.326 . S
N296 C300 1.362 1_545 S
C297 C298 1.258 . S
C297 C300 1.431 . S
C297 C317 1.449 . S
C298 C297 1.258 . S
C298 C299 1.477 1_565 S
C298 H318 0.931 . S
C299 C295 1.460 . S
C299 C298 1.477 1_545 S
C299 H319 0.930 . S
C300 N296 1.362 1_565 S
C300 C297 1.431 . S
C300 C310 1.476 . S
H301 C295 0.929 . S
C302 O293 1.250 . S
C302 O294 1.258 . S
O303 Mn288 2.162 . S
O303 C291 1.281 . S
O304 Mn288 2.297 . S
O304 C291 1.236 . S
N305 Mn289 2.282 1_565 S
N305 C306 1.328 . S
N305 C310 1.318 . S
C306 N305 1.328 . S
C306 C307 1.457 . S
C306 H311 0.929 . S
C307 C306 1.457 . S
C307 C308 1.291 . S
C307 H320 0.931 . S
C308 C307 1.291 . S
C308 C309 1.373 . S
C308 H321 0.929 . S
C309 C308 1.373 . S
C309 C310 1.396 . S
C309 C316 1.403 . S
C310 C300 1.476 . S
C310 N305 1.318 . S
C310 C309 1.396 . S
H311 C306 0.929 . S
O312 Mn288 2.385 1_565 S
O312 C290 1.234 . S
O313 Mn288 2.209 . S
O313 Mn289 2.215 . S
O313 C290 1.283 1_545 S
O314 Mn288 2.094 . S
O314 C292 1.240 . S
O315 Mn289 2.117 . S
O315 C292 1.264 . S
C316 C309 1.403 . S
C316 C317 1.399 . S
C316 H322 0.929 . S
C317 C297 1.449 . S
C317 C316 1.399 . S
C317 H323 0.930 . S
H318 C298 0.931 . S
H319 C299 0.930 . S
H320 C307 0.931 . S
H321 C308 0.929 . S
H322 C316 0.929 . S
H323 C317 0.930 . S
Mn324 O329 2.095 . S
Mn324 O339 2.162 . S
Mn324 O340 2.297 . S
Mn324 O348 2.385 . S
Mn324 O349 2.209 . S
Mn324 O350 2.094 . S
Mn325 O330 2.121 . S
Mn325 N332 2.257 . S
Mn325 N341 2.282 . S
Mn325 O349 2.215 . S
Mn325 O351 2.117 . S
C326 O348 1.234 . S
C326 O349 1.283 . S
C327 O339 1.281 . S
C327 O340 1.236 . S
C328 O350 1.240 . S
C328 O351 1.264 . S
O329 Mn324 2.095 . S
O329 C338 1.250 . S
O330 Mn325 2.121 . S
O330 C338 1.258 . S
C331 N332 1.326 . S
C331 C335 1.460 . S
C331 H337 0.929 . S
N332 Mn325 2.257 . S
N332 C331 1.326 . S
N332 C336 1.362 . S
C333 C334 1.258 . S
C333 C336 1.431 . S
C333 C353 1.449 . S
C334 C333 1.258 . S
C334 C335 1.477 . S
C334 H354 0.931 . S
C335 C331 1.460 . S
C335 C334 1.477 . S
C335 H355 0.930 . S
C336 N332 1.362 . S
C336 C333 1.431 . S
C336 C346 1.476 . S
H337 C331 0.929 . S
C338 O329 1.250 . S
C338 O330 1.258 . S
O339 Mn324 2.162 . S
O339 C327 1.281 . S
O340 Mn324 2.297 . S
O340 C327 1.236 . S
N341 Mn325 2.282 . S
N341 C342 1.328 . S
N341 C346 1.318 . S
C342 N341 1.328 . S
C342 C343 1.457 . S
C342 H347 0.929 . S
C343 C342 1.457 . S
C343 C344 1.291 . S
C343 H356 0.931 . S
C344 C343 1.291 . S
C344 C345 1.373 . S
C344 H357 0.929 . S
C345 C344 1.373 . S
C345 C346 1.396 . S
C345 C352 1.403 . S
C346 C336 1.476 . S
C346 N341 1.318 . S
C346 C345 1.396 . S
H347 C342 0.929 . S
O348 Mn324 2.385 . S
O348 C326 1.234 . S
O349 Mn324 2.209 . S
O349 Mn325 2.215 . S
O349 C326 1.283 . S
O350 Mn324 2.094 . S
O350 C328 1.240 . S
O351 Mn325 2.117 . S
O351 C328 1.264 . S
C352 C345 1.403 . S
C352 C353 1.399 . S
C352 H358 0.929 . S
C353 C333 1.449 . S
C353 C352 1.399 . S
C353 H359 0.930 . S
H354 C334 0.931 . S
H355 C335 0.930 . S
H356 C343 0.931 . S
H357 C344 0.929 . S
H358 C352 0.929 . S
H359 C353 0.930 . S
Mn360 O365 2.095 . S
Mn360 O375 2.162 . S
Mn360 O376 2.297 . S
Mn360 O384 2.385 . S
Mn360 O385 2.209 . S
Mn360 O386 2.094 . S
Mn361 O366 2.121 . S
Mn361 N368 2.257 . S
Mn361 N377 2.282 . S
Mn361 O385 2.215 . S
Mn361 O387 2.117 . S
C362 O384 1.234 . S
C362 O385 1.283 . S
C363 O375 1.281 . S
C363 O376 1.236 . S
C364 O386 1.240 . S
C364 O387 1.264 . S
O365 Mn360 2.095 . S
O365 C374 1.250 . S
O366 Mn361 2.121 . S
O366 C374 1.258 . S
C367 N368 1.326 . S
C367 C371 1.460 . S
C367 H373 0.929 . S
N368 Mn361 2.257 . S
N368 C367 1.326 . S
N368 C372 1.362 . S
C369 C370 1.258 . S
C369 C372 1.431 . S
C369 C389 1.449 . S
C370 C369 1.258 . S
C370 C371 1.477 . S
C370 H390 0.931 . S
C371 C367 1.460 . S
C371 C370 1.477 . S
C371 H391 0.930 . S
C372 N368 1.362 . S
C372 C369 1.431 . S
C372 C382 1.476 . S
H373 C367 0.929 . S
C374 O365 1.250 . S
C374 O366 1.258 . S
O375 Mn360 2.162 . S
O375 C363 1.281 . S
O376 Mn360 2.297 . S
O376 C363 1.236 . S
N377 Mn361 2.282 . S
N377 C378 1.328 . S
N377 C382 1.318 . S
C378 N377 1.328 . S
C378 C379 1.457 . S
C378 H383 0.929 . S
C379 C378 1.457 . S
C379 C380 1.291 . S
C379 H392 0.931 . S
C380 C379 1.291 . S
C380 C381 1.373 . S
C380 H393 0.929 . S
C381 C380 1.373 . S
C381 C382 1.396 . S
C381 C388 1.403 . S
C382 C372 1.476 . S
C382 N377 1.318 . S
C382 C381 1.396 . S
H383 C378 0.929 . S
O384 Mn360 2.385 . S
O384 C362 1.234 . S
O385 Mn360 2.209 . S
O385 Mn361 2.215 . S
O385 C362 1.283 . S
O386 Mn360 2.094 . S
O386 C364 1.240 . S
O387 Mn361 2.117 . S
O387 C364 1.264 . S
C388 C381 1.403 . S
C388 C389 1.399 . S
C388 H394 0.929 . S
C389 C369 1.449 . S
C389 C388 1.399 . S
C389 H395 0.930 . S
H390 C370 0.931 . S
H391 C371 0.930 . S
H392 C379 0.931 . S
H393 C380 0.929 . S
H394 C388 0.929 . S
H395 C389 0.930 . S
Mn396 O401 2.095 1_554 S
Mn396 O411 2.162 . S
Mn396 O412 2.297 . S
Mn396 O420 2.385 . S
Mn396 O421 2.222 . S
Mn396 O422 2.094 1_554 S
Mn397 O402 2.121 . S
Mn397 N404 2.257 . S
Mn397 N413 2.282 . S
Mn397 O421 2.174 1_556 S
Mn397 O423 2.117 . S
C398 O420 1.234 . S
C398 O421 1.290 . S
C399 O411 1.281 . S
C399 O412 1.236 . S
C400 O422 1.240 . S
C400 O423 1.264 . S
O401 Mn396 2.095 1_556 S
O401 C410 1.250 . S
O402 Mn397 2.121 . S
O402 C410 1.258 . S
C403 N404 1.326 . S
C403 C407 1.460 . S
C403 H409 0.929 . S
N404 Mn397 2.257 . S
N404 C403 1.326 . S
N404 C408 1.362 . S
C405 C406 1.258 . S
C405 C408 1.431 . S
C405 C425 1.449 . S
C406 C405 1.258 . S
C406 C407 1.477 . S
C406 H426 0.931 . S
C407 C403 1.460 . S
C407 C406 1.477 . S
C407 H427 0.908 1_556 S
C408 N404 1.362 . S
C408 C405 1.431 . S
C408 C418 1.476 . S
H409 C403 0.929 . S
C410 O401 1.250 . S
C410 O402 1.258 . S
O411 Mn396 2.162 . S
O411 C399 1.281 . S
O412 Mn396 2.297 . S
O412 C399 1.236 . S
N413 Mn397 2.282 . S
N413 C414 1.328 . S
N413 C418 1.318 . S
C414 N413 1.328 . S
C414 C415 1.457 . S
C414 H419 0.929 . S
C415 C414 1.457 . S
C415 C416 1.291 . S
C415 H428 0.931 . S
C416 C415 1.291 . S
C416 C417 1.373 . S
C416 H429 0.929 . S
C417 C416 1.373 . S
C417 C418 1.396 . S
C417 C424 1.403 . S
C418 C408 1.476 . S
C418 N413 1.318 . S
C418 C417 1.396 . S
H419 C414 0.929 . S
O420 Mn396 2.385 . S
O420 C398 1.234 . S
O421 Mn396 2.222 . S
O421 Mn397 2.174 1_554 S
O421 C398 1.290 . S
O422 Mn396 2.094 1_556 S
O422 C400 1.240 . S
O423 Mn397 2.117 . S
O423 C400 1.264 . S
C424 C417 1.403 . S
C424 C425 1.399 . S
C424 H430 0.929 . S
C425 C405 1.449 . S
C425 C424 1.399 . S
C425 H431 0.930 . S
H426 C406 0.931 . S
H427 C407 0.908 1_554 S
H428 C415 0.931 . S
H429 C416 0.929 . S
H430 C424 0.929 . S
H431 C425 0.930 . S
Mn432 O437 2.095 . S
Mn432 O447 2.162 . S
Mn432 O448 2.297 . S
Mn432 O456 2.385 . S
Mn432 O457 2.209 . S
Mn432 O458 2.094 . S
Mn433 O438 2.121 . S
Mn433 N440 2.257 . S
Mn433 N449 2.282 1_554 S
Mn433 O457 2.215 . S
Mn433 O459 2.117 1_554 S
C434 O456 1.234 . S
C434 O457 1.283 . S
C435 O447 1.281 . S
C435 O448 1.236 . S
C436 O458 1.240 1_556 S
C436 O459 1.264 . S
O437 Mn432 2.095 . S
O437 C446 1.250 . S
O438 Mn433 2.121 . S
O438 C446 1.258 . S
C439 N440 1.326 . S
C439 C443 1.460 . S
C439 H445 0.929 . S
N440 Mn433 2.257 . S
N440 C439 1.326 . S
N440 C444 1.362 . S
C441 C442 1.258 . S
C441 C444 1.431 . S
C441 C461 1.449 . S
C442 C441 1.258 . S
C442 C443 1.477 . S
C442 H462 0.931 . S
C443 C439 1.460 . S
C443 C442 1.477 . S
C443 H463 0.930 . S
C444 N440 1.362 . S
C444 C441 1.431 . S
C444 C454 1.476 . S
H445 C439 0.929 . S
C446 O437 1.250 . S
C446 O438 1.258 . S
O447 Mn432 2.162 . S
O447 C435 1.281 . S
O448 Mn432 2.297 . S
O448 C435 1.236 . S
N449 Mn433 2.282 1_556 S
N449 C450 1.328 . S
N449 C454 1.318 1_556 S
C450 N449 1.328 . S
C450 C451 1.457 . S
C450 H455 0.929 . S
C451 C450 1.457 . S
C451 C452 1.291 . S
C451 H464 0.931 . S
C452 C451 1.291 . S
C452 C453 1.373 . S
C452 H465 0.929 . S
C453 C452 1.373 . S
C453 C454 1.396 1_556 S
C453 C460 1.404 1_556 S
C454 C444 1.476 . S
C454 N449 1.318 1_554 S
C454 C453 1.396 1_554 S
H455 C450 0.929 . S
O456 Mn432 2.385 . S
O456 C434 1.234 . S
O457 Mn432 2.209 . S
O457 Mn433 2.215 . S
O457 C434 1.283 . S
O458 Mn432 2.094 . S
O458 C436 1.240 1_554 S
O459 Mn433 2.117 1_556 S
O459 C436 1.264 . S
C460 C453 1.404 1_554 S
C460 C461 1.415 . S
C460 H466 0.914 1_554 S
C461 C441 1.449 . S
C461 C460 1.415 . S
C461 H467 0.930 . S
H462 C442 0.931 . S
H463 C443 0.930 . S
H464 C451 0.931 . S
H465 C452 0.929 . S
H466 C460 0.914 1_556 S
H467 C461 0.930 . S
Mn468 O473 2.095 . S
Mn468 O483 2.162 . S
Mn468 O484 2.297 . S
Mn468 O492 2.385 . S
Mn468 O493 2.209 . S
Mn468 O494 2.094 . S
Mn469 O474 2.121 . S
Mn469 N476 2.257 . S
Mn469 N485 2.282 . S
Mn469 O493 2.215 . S
Mn469 O495 2.117 . S
C470 O492 1.234 . S
C470 O493 1.283 . S
C471 O483 1.281 . S
C471 O484 1.236 . S
C472 O494 1.240 . S
C472 O495 1.264 . S
O473 Mn468 2.095 . S
O473 C482 1.250 . S
O474 Mn469 2.121 . S
O474 C482 1.258 . S
C475 N476 1.326 . S
C475 C479 1.460 . S
C475 H481 0.929 . S
N476 Mn469 2.257 . S
N476 C475 1.326 . S
N476 C480 1.362 . S
C477 C478 1.258 . S
C477 C480 1.431 . S
C477 C497 1.449 . S
C478 C477 1.258 . S
C478 C479 1.477 . S
C478 H498 0.931 . S
C479 C475 1.460 . S
C479 C478 1.477 . S
C479 H499 0.930 . S
C480 N476 1.362 . S
C480 C477 1.431 . S
C480 C490 1.476 . S
H481 C475 0.929 . S
C482 O473 1.250 . S
C482 O474 1.258 . S
O483 Mn468 2.162 . S
O483 C471 1.281 . S
O484 Mn468 2.297 . S
O484 C471 1.236 . S
N485 Mn469 2.282 . S
N485 C486 1.328 . S
N485 C490 1.318 . S
C486 N485 1.328 . S
C486 C487 1.457 . S
C486 H491 0.929 . S
C487 C486 1.457 . S
C487 C488 1.293 1_554 S
C487 H500 0.931 1_554 S
C488 C487 1.293 1_556 S
C488 C489 1.365 1_556 S
C488 H501 0.935 . S
C489 C488 1.365 1_554 S
C489 C490 1.396 . S
C489 C496 1.403 . S
C490 C480 1.476 . S
C490 N485 1.318 . S
C490 C489 1.396 . S
H491 C486 0.929 . S
O492 Mn468 2.385 . S
O492 C470 1.234 . S
O493 Mn468 2.209 . S
O493 Mn469 2.215 . S
O493 C470 1.283 . S
O494 Mn468 2.094 . S
O494 C472 1.240 . S
O495 Mn469 2.117 . S
O495 C472 1.264 . S
C496 C489 1.403 . S
C496 C497 1.399 . S
C496 H502 0.929 1_554 S
C497 C477 1.449 . S
C497 C496 1.399 . S
C497 H503 0.930 . S
H498 C478 0.931 . S
H499 C479 0.930 . S
H500 C487 0.931 1_556 S
H501 C488 0.935 . S
H502 C496 0.929 1_556 S
H503 C497 0.930 . S
Mn504 O509 2.095 . S
Mn504 O519 2.162 . S
Mn504 O520 2.297 . S
Mn504 O528 2.385 . S
Mn504 O529 2.209 . S
Mn504 O530 2.094 . S
Mn505 O510 2.121 . S
Mn505 N512 2.257 . S
Mn505 N521 2.282 . S
Mn505 O529 2.215 . S
Mn505 O531 2.117 . S
C506 O528 1.234 . S
C506 O529 1.283 . S
C507 O519 1.281 . S
C507 O520 1.236 . S
C508 O530 1.240 . S
C508 O531 1.264 . S
O509 Mn504 2.095 . S
O509 C518 1.250 . S
O510 Mn505 2.121 . S
O510 C518 1.258 . S
C511 N512 1.326 . S
C511 C515 1.460 . S
C511 H517 0.929 . S
N512 Mn505 2.257 . S
N512 C511 1.326 . S
N512 C516 1.362 . S
C513 C514 1.258 . S
C513 C516 1.431 . S
C513 C533 1.449 . S
C514 C513 1.258 . S
C514 C515 1.477 . S
C514 H534 0.931 . S
C515 C511 1.460 . S
C515 C514 1.477 . S
C515 H535 0.930 . S
C516 N512 1.362 . S
C516 C513 1.431 . S
C516 C526 1.476 . S
H517 C511 0.929 . S
C518 O509 1.250 . S
C518 O510 1.258 . S
O519 Mn504 2.162 . S
O519 C507 1.281 . S
O520 Mn504 2.297 . S
O520 C507 1.236 . S
N521 Mn505 2.282 . S
N521 C522 1.328 . S
N521 C526 1.318 . S
C522 N521 1.328 . S
C522 C523 1.457 . S
C522 H527 0.929 . S
C523 C522 1.457 . S
C523 C524 1.291 . S
C523 H536 0.931 . S
C524 C523 1.291 . S
C524 C525 1.373 . S
C524 H537 0.929 . S
C525 C524 1.373 . S
C525 C526 1.396 . S
C525 C532 1.403 . S
C526 C516 1.476 . S
C526 N521 1.318 . S
C526 C525 1.396 . S
H527 C522 0.929 . S
O528 Mn504 2.385 . S
O528 C506 1.234 . S
O529 Mn504 2.209 . S
O529 Mn505 2.215 . S
O529 C506 1.283 . S
O530 Mn504 2.094 . S
O530 C508 1.240 . S
O531 Mn505 2.117 . S
O531 C508 1.264 . S
C532 C525 1.403 . S
C532 C533 1.399 . S
C532 H538 0.929 . S
C533 C513 1.449 . S
C533 C532 1.399 . S
C533 H539 0.930 . S
H534 C514 0.931 . S
H535 C515 0.930 . S
H536 C523 0.931 . S
H537 C524 0.929 . S
H538 C532 0.929 . S
H539 C533 0.930 . S
Mn540 O545 2.095 . S
Mn540 O555 2.162 . S
Mn540 O556 2.297 . S
Mn540 O564 2.385 . S
Mn540 O565 2.209 . S
Mn540 O566 2.094 . S
Mn541 O546 2.121 . S
Mn541 N548 2.257 . S
Mn541 N557 2.282 . S
Mn541 O565 2.215 . S
Mn541 O567 2.117 . S
C542 O564 1.234 . S
C542 O565 1.283 . S
C543 O555 1.281 . S
C543 O556 1.236 . S
C544 O566 1.240 . S
C544 O567 1.264 . S
O545 Mn540 2.095 . S
O545 C554 1.250 . S
O546 Mn541 2.121 . S
O546 C554 1.258 . S
C547 N548 1.326 . S
C547 C551 1.460 . S
C547 H553 0.929 . S
N548 Mn541 2.257 . S
N548 C547 1.326 . S
N548 C552 1.362 . S
C549 C550 1.258 . S
C549 C552 1.431 . S
C549 C569 1.449 . S
C550 C549 1.258 . S
C550 C551 1.477 . S
C550 H570 0.931 1_565 S
C551 C547 1.460 . S
C551 C550 1.477 . S
C551 H571 0.930 . S
C552 N548 1.362 . S
C552 C549 1.431 . S
C552 C562 1.476 . S
H553 C547 0.929 . S
C554 O545 1.250 . S
C554 O546 1.258 . S
O555 Mn540 2.162 . S
O555 C543 1.281 . S
O556 Mn540 2.297 . S
O556 C543 1.236 . S
N557 Mn541 2.282 . S
N557 C558 1.328 . S
N557 C562 1.318 . S
C558 N557 1.328 . S
C558 C559 1.457 . S
C558 H563 0.929 . S
C559 C558 1.457 . S
C559 C560 1.291 . S
C559 H572 0.931 . S
C560 C559 1.291 . S
C560 C561 1.373 . S
C560 H573 0.929 . S
C561 C560 1.373 . S
C561 C562 1.396 . S
C561 C568 1.403 . S
C562 C552 1.476 . S
C562 N557 1.318 . S
C562 C561 1.396 . S
H563 C558 0.929 . S
O564 Mn540 2.385 . S
O564 C542 1.234 . S
O565 Mn540 2.209 . S
O565 Mn541 2.215 . S
O565 C542 1.283 . S
O566 Mn540 2.094 . S
O566 C544 1.240 . S
O567 Mn541 2.117 . S
O567 C544 1.264 . S
C568 C561 1.403 . S
C568 C569 1.399 . S
C568 H574 0.929 . S
C569 C549 1.449 . S
C569 C568 1.399 . S
C569 H575 0.930 . S
H570 C550 0.931 1_545 S
H571 C551 0.930 . S
H572 C559 0.931 . S
H573 C560 0.929 . S
H574 C568 0.929 . S
H575 C569 0.930 . S
Mn576 O581 2.087 1_565 S
Mn576 O591 2.161 1_565 S
Mn576 O592 2.296 . S
Mn576 O600 2.393 . S
Mn576 O601 2.212 . S
Mn576 O602 2.095 1_565 S
Mn577 O582 2.121 1_565 S
Mn577 N584 2.257 . S
Mn577 N593 2.282 . S
Mn577 O601 2.215 . S
Mn577 O603 2.117 1_565 S
C578 O600 1.234 . S
C578 O601 1.283 . S
C579 O591 1.281 1_565 S
C579 O592 1.236 . S
C580 O602 1.240 . S
C580 O603 1.264 . S
O581 Mn576 2.087 1_545 S
O581 C590 1.250 . S
O582 Mn577 2.121 1_545 S
O582 C590 1.258 . S
C583 N584 1.326 . S
C583 C587 1.460 . S
C583 H589 0.929 1_565 S
N584 Mn577 2.257 . S
N584 C583 1.326 . S
N584 C588 1.362 . S
C585 C586 1.258 . S
C585 C588 1.431 . S
C585 C605 1.449 . S
C586 C585 1.258 . S
C586 C587 1.477 . S
C586 H606 0.931 . S
C587 C583 1.460 . S
C587 C586 1.477 . S
C587 H607 0.930 . S
C588 N584 1.362 . S
C588 C585 1.431 . S
C588 C598 1.476 . S
H589 C583 0.929 1_545 S
C590 O581 1.250 . S
C590 O582 1.258 . S
O591 Mn576 2.161 1_545 S
O591 C579 1.281 1_545 S
O592 Mn576 2.296 . S
O592 C579 1.236 . S
N593 Mn577 2.282 . S
N593 C594 1.328 . S
N593 C598 1.318 . S
C594 N593 1.328 . S
C594 C595 1.457 . S
C594 H599 0.929 . S
C595 C594 1.457 . S
C595 C596 1.291 . S
C595 H608 0.931 . S
C596 C595 1.291 . S
C596 C597 1.373 . S
C596 H609 0.929 . S
C597 C596 1.373 . S
C597 C598 1.396 . S
C597 C604 1.403 . S
C598 C588 1.476 . S
C598 N593 1.318 . S
C598 C597 1.396 . S
H599 C594 0.929 . S
O600 Mn576 2.393 . S
O600 C578 1.234 . S
O601 Mn576 2.212 . S
O601 Mn577 2.215 . S
O601 C578 1.283 . S
O602 Mn576 2.095 1_545 S
O602 C580 1.240 . S
O603 Mn577 2.117 1_545 S
O603 C580 1.264 . S
C604 C597 1.403 . S
C604 C605 1.399 . S
C604 H610 0.929 . S
C605 C585 1.449 . S
C605 C604 1.399 . S
C605 H611 0.930 . S
H606 C586 0.931 . S
H607 C587 0.930 . S
H608 C595 0.931 . S
H609 C596 0.929 . S
H610 C604 0.929 . S
H611 C605 0.930 . S
Mn612 O617 2.095 . S
Mn612 O627 2.162 . S
Mn612 O628 2.297 . S
Mn612 O636 2.385 . S
Mn612 O637 2.209 . S
Mn612 O638 2.094 . S
Mn613 O618 2.121 . S
Mn613 N620 2.257 . S
Mn613 N629 2.282 . S
Mn613 O637 2.215 . S
Mn613 O639 2.117 . S
C614 O636 1.234 . S
C614 O637 1.283 . S
C615 O627 1.281 . S
C615 O628 1.236 . S
C616 O638 1.240 . S
C616 O639 1.264 . S
O617 Mn612 2.095 . S
O617 C626 1.250 . S
O618 Mn613 2.121 . S
O618 C626 1.258 . S
C619 N620 1.326 . S
C619 C623 1.460 . S
C619 H625 0.929 . S
N620 Mn613 2.257 . S
N620 C619 1.326 . S
N620 C624 1.362 . S
C621 C622 1.258 . S
C621 C624 1.431 . S
C621 C641 1.449 . S
C622 C621 1.258 . S
C622 C623 1.477 . S
C622 H642 0.931 . S
C623 C619 1.460 . S
C623 C622 1.477 . S
C623 H643 0.930 . S
C624 N620 1.362 . S
C624 C621 1.431 . S
C624 C634 1.476 . S
H625 C619 0.929 . S
C626 O617 1.250 . S
C626 O618 1.258 . S
O627 Mn612 2.162 . S
O627 C615 1.281 . S
O628 Mn612 2.297 . S
O628 C615 1.236 . S
N629 Mn613 2.282 . S
N629 C630 1.328 . S
N629 C634 1.318 . S
C630 N629 1.328 . S
C630 C631 1.457 . S
C630 H635 0.929 . S
C631 C630 1.457 . S
C631 C632 1.291 . S
C631 H644 0.931 . S
C632 C631 1.291 . S
C632 C633 1.373 . S
C632 H645 0.929 . S
C633 C632 1.373 . S
C633 C634 1.396 . S
C633 C640 1.403 . S
C634 C624 1.476 . S
C634 N629 1.318 . S
C634 C633 1.396 . S
H635 C630 0.929 . S
O636 Mn612 2.385 . S
O636 C614 1.234 . S
O637 Mn612 2.209 . S
O637 Mn613 2.215 . S
O637 C614 1.283 . S
O638 Mn612 2.094 . S
O638 C616 1.240 . S
O639 Mn613 2.117 . S
O639 C616 1.264 . S
C640 C633 1.403 . S
C640 C641 1.399 . S
C640 H646 0.929 . S
C641 C621 1.449 . S
C641 C640 1.399 . S
C641 H647 0.930 . S
H642 C622 0.931 . S
H643 C623 0.930 . S
H644 C631 0.931 . S
H645 C632 0.929 . S
H646 C640 0.929 . S
H647 C641 0.930 . S
Mn648 O653 2.095 . S
Mn648 O663 2.162 . S
Mn648 O664 2.297 . S
Mn648 O672 2.385 . S
Mn648 O673 2.209 . S
Mn648 O674 2.094 . S
Mn649 O654 2.121 . S
Mn649 N656 2.257 . S
Mn649 N665 2.282 . S
Mn649 O673 2.215 . S
Mn649 O675 2.117 . S
C650 O672 1.234 . S
C650 O673 1.283 . S
C651 O663 1.281 . S
C651 O664 1.236 . S
C652 O674 1.240 . S
C652 O675 1.264 . S
O653 Mn648 2.095 . S
O653 C662 1.250 . S
O654 Mn649 2.121 . S
O654 C662 1.258 . S
C655 N656 1.326 . S
C655 C659 1.460 . S
C655 H661 0.929 . S
N656 Mn649 2.257 . S
N656 C655 1.326 . S
N656 C660 1.362 . S
C657 C658 1.258 . S
C657 C660 1.431 . S
C657 C677 1.449 . S
C658 C657 1.258 . S
C658 C659 1.477 . S
C658 H678 0.931 . S
C659 C655 1.460 . S
C659 C658 1.477 . S
C659 H679 0.930 . S
C660 N656 1.362 . S
C660 C657 1.431 . S
C660 C670 1.476 . S
H661 C655 0.929 . S
C662 O653 1.250 . S
C662 O654 1.258 . S
O663 Mn648 2.162 . S
O663 C651 1.281 . S
O664 Mn648 2.297 . S
O664 C651 1.236 . S
N665 Mn649 2.282 . S
N665 C666 1.328 . S
N665 C670 1.318 . S
C666 N665 1.328 . S
C666 C667 1.457 . S
C666 H671 0.929 . S
C667 C666 1.457 . S
C667 C668 1.291 . S
C667 H680 0.931 . S
C668 C667 1.291 . S
C668 C669 1.373 . S
C668 H681 0.929 . S
C669 C668 1.373 . S
C669 C670 1.396 . S
C669 C676 1.403 . S
C670 C660 1.476 . S
C670 N665 1.318 . S
C670 C669 1.396 . S
H671 C666 0.929 . S
O672 Mn648 2.385 . S
O672 C650 1.234 . S
O673 Mn648 2.209 . S
O673 Mn649 2.215 . S
O673 C650 1.283 . S
O674 Mn648 2.094 . S
O674 C652 1.240 . S
O675 Mn649 2.117 . S
O675 C652 1.264 . S
C676 C669 1.403 . S
C676 C677 1.399 . S
C676 H682 0.929 . S
C677 C657 1.449 . S
C677 C676 1.399 . S
C677 H683 0.930 . S
H678 C658 0.931 . S
H679 C659 0.930 . S
H680 C667 0.931 . S
H681 C668 0.929 . S
H682 C676 0.929 . S
H683 C677 0.930 . S
Mn684 O689 2.095 1_545 S
Mn684 O699 2.162 . S
Mn684 O700 2.297 . S
Mn684 O708 2.385 . S
Mn684 O709 2.209 . S
Mn684 O710 2.094 . S
Mn685 O690 2.121 1_545 S
Mn685 N692 2.257 . S
Mn685 N701 2.282 . S
Mn685 O709 2.215 . S
Mn685 O711 2.117 . S
C686 O708 1.234 . S
C686 O709 1.283 . S
C687 O699 1.281 . S
C687 O700 1.236 . S
C688 O710 1.240 . S
C688 O711 1.264 . S
O689 Mn684 2.095 1_565 S
O689 C698 1.250 . S
O690 Mn685 2.121 1_565 S
O690 C698 1.258 . S
C691 N692 1.326 . S
C691 C695 1.460 . S
C691 H697 0.929 . S
N692 Mn685 2.257 . S
N692 C691 1.326 . S
N692 C696 1.362 . S
C693 C694 1.258 . S
C693 C696 1.431 . S
C693 C713 1.449 . S
C694 C693 1.258 . S
C694 C695 1.477 . S
C694 H714 0.931 . S
C695 C691 1.460 . S
C695 C694 1.477 . S
C695 H715 0.930 . S
C696 N692 1.362 . S
C696 C693 1.431 . S
C696 C706 1.476 . S
H697 C691 0.929 . S
C698 O689 1.250 . S
C698 O690 1.258 . S
O699 Mn684 2.162 . S
O699 C687 1.281 . S
O700 Mn684 2.297 . S
O700 C687 1.236 . S
N701 Mn685 2.282 . S
N701 C702 1.328 . S
N701 C706 1.318 . S
C702 N701 1.328 . S
C702 C703 1.457 . S
C702 H707 0.929 . S
C703 C702 1.457 . S
C703 C704 1.291 . S
C703 H716 0.931 . S
C704 C703 1.291 . S
C704 C705 1.373 . S
C704 H717 0.929 . S
C705 C704 1.373 . S
C705 C706 1.396 . S
C705 C712 1.403 . S
C706 C696 1.476 . S
C706 N701 1.318 . S
C706 C705 1.396 . S
H707 C702 0.929 . S
O708 Mn684 2.385 . S
O708 C686 1.234 . S
O709 Mn684 2.209 . S
O709 Mn685 2.215 . S
O709 C686 1.283 . S
O710 Mn684 2.094 . S
O710 C688 1.240 . S
O711 Mn685 2.117 . S
O711 C688 1.264 . S
C712 C705 1.403 . S
C712 C713 1.399 . S
C712 H718 0.929 . S
C713 C693 1.449 . S
C713 C712 1.399 . S
C713 H719 0.930 . S
H714 C694 0.931 . S
H715 C695 0.930 . S
H716 C703 0.931 . S
H717 C704 0.929 . S
H718 C712 0.929 . S
H719 C713 0.930 . S
Mn720 O725 2.095 . S
Mn720 O735 2.162 . S
Mn720 O736 2.297 . S
Mn720 O744 2.385 . S
Mn720 O745 2.209 . S
Mn720 O746 2.094 . S
Mn721 O726 2.121 1_556 S
Mn721 N728 2.257 . S
Mn721 N737 2.282 . S
Mn721 O745 2.215 1_556 S
Mn721 O747 2.117 . S
C722 O744 1.234 . S
C722 O745 1.283 . S
C723 O735 1.281 . S
C723 O736 1.236 . S
C724 O746 1.240 1_556 S
C724 O747 1.264 . S
O725 Mn720 2.095 . S
O725 C734 1.250 . S
O726 Mn721 2.121 1_554 S
O726 C734 1.258 . S
C727 N728 1.326 1_554 S
C727 C731 1.460 . S
C727 H733 0.929 . S
N728 Mn721 2.257 . S
N728 C727 1.326 1_556 S
N728 C732 1.362 . S
C729 C730 1.258 . S
C729 C732 1.431 . S
C729 C749 1.449 . S
C730 C729 1.258 . S
C730 C731 1.477 1_556 S
C730 H750 0.931 . S
C731 C727 1.460 . S
C731 C730 1.477 1_554 S
C731 H751 0.930 . S
C732 N728 1.362 . S
C732 C729 1.431 . S
C732 C742 1.476 . S
H733 C727 0.929 . S
C734 O725 1.250 . S
C734 O726 1.258 . S
O735 Mn720 2.162 . S
O735 C723 1.281 . S
O736 Mn720 2.297 . S
O736 C723 1.236 . S
N737 Mn721 2.282 . S
N737 C738 1.328 . S
N737 C742 1.318 . S
C738 N737 1.328 . S
C738 C739 1.457 . S
C738 H743 0.929 . S
C739 C738 1.457 . S
C739 C740 1.291 . S
C739 H752 0.931 . S
C740 C739 1.291 . S
C740 C741 1.373 . S
C740 H753 0.929 . S
C741 C740 1.373 . S
C741 C742 1.396 . S
C741 C748 1.403 . S
C742 C732 1.476 . S
C742 N737 1.318 . S
C742 C741 1.396 . S
H743 C738 0.929 . S
O744 Mn720 2.385 . S
O744 C722 1.234 . S
O745 Mn720 2.209 . S
O745 Mn721 2.215 1_554 S
O745 C722 1.283 . S
O746 Mn720 2.094 . S
O746 C724 1.240 1_554 S
O747 Mn721 2.117 . S
O747 C724 1.264 . S
C748 C741 1.403 . S
C748 C749 1.399 . S
C748 H754 0.929 . S
C749 C729 1.449 . S
C749 C748 1.399 . S
C749 H755 0.930 . S
H750 C730 0.931 . S
H751 C731 0.930 . S
H752 C739 0.931 . S
H753 C740 0.929 . S
H754 C748 0.929 . S
H755 C749 0.930 . S
Mn756 O761 2.095 . S
Mn756 O771 2.162 . S
Mn756 O772 2.297 . S
Mn756 O780 2.385 . S
Mn756 O781 2.209 . S
Mn756 O782 2.094 . S
Mn757 O762 2.121 . S
Mn757 N764 2.257 . S
Mn757 N773 2.282 . S
Mn757 O781 2.215 . S
Mn757 O783 2.117 . S
C758 O780 1.234 . S
C758 O781 1.283 . S
C759 O771 1.281 . S
C759 O772 1.236 . S
C760 O782 1.240 . S
C760 O783 1.264 . S
O761 Mn756 2.095 . S
O761 C770 1.250 . S
O762 Mn757 2.121 . S
O762 C770 1.258 . S
C763 N764 1.326 . S
C763 C767 1.460 . S
C763 H769 0.929 . S
N764 Mn757 2.257 . S
N764 C763 1.326 . S
N764 C768 1.362 . S
C765 C766 1.258 . S
C765 C768 1.431 . S
C765 C785 1.449 . S
C766 C765 1.258 . S
C766 C767 1.477 . S
C766 H786 0.931 . S
C767 C763 1.460 . S
C767 C766 1.477 . S
C767 H787 0.930 . S
C768 N764 1.362 . S
C768 C765 1.431 . S
C768 C778 1.476 . S
H769 C763 0.929 . S
C770 O761 1.250 . S
C770 O762 1.258 . S
O771 Mn756 2.162 . S
O771 C759 1.281 . S
O772 Mn756 2.297 . S
O772 C759 1.236 . S
N773 Mn757 2.282 . S
N773 C774 1.328 . S
N773 C778 1.318 . S
C774 N773 1.328 . S
C774 C775 1.457 . S
C774 H779 0.929 . S
C775 C774 1.457 . S
C775 C776 1.291 . S
C775 H788 0.931 . S
C776 C775 1.291 . S
C776 C777 1.373 . S
C776 H789 0.929 . S
C777 C776 1.373 . S
C777 C778 1.396 . S
C777 C784 1.403 . S
C778 C768 1.476 . S
C778 N773 1.318 . S
C778 C777 1.396 . S
H779 C774 0.929 . S
O780 Mn756 2.385 . S
O780 C758 1.234 . S
O781 Mn756 2.209 . S
O781 Mn757 2.215 . S
O781 C758 1.283 . S
O782 Mn756 2.094 . S
O782 C760 1.240 . S
O783 Mn757 2.117 . S
O783 C760 1.264 . S
C784 C777 1.403 . S
C784 C785 1.399 . S
C784 H790 0.929 . S
C785 C765 1.449 . S
C785 C784 1.399 . S
C785 H791 0.930 . S
H786 C766 0.931 . S
H787 C767 0.930 . S
H788 C775 0.931 . S
H789 C776 0.929 . S
H790 C784 0.929 . S
H791 C785 0.930 . S
Mn792 O797 2.095 . S
Mn792 O807 2.162 . S
Mn792 O808 2.297 . S
Mn792 O816 2.385 . S
Mn792 O817 2.209 . S
Mn792 O818 2.094 . S
Mn793 O798 2.121 . S
Mn793 N800 2.257 . S
Mn793 N809 2.282 . S
Mn793 O817 2.215 . S
Mn793 O819 2.117 . S
C794 O816 1.234 . S
C794 O817 1.283 . S
C795 O807 1.281 . S
C795 O808 1.236 . S
C796 O818 1.240 . S
C796 O819 1.264 . S
O797 Mn792 2.095 . S
O797 C806 1.250 . S
O798 Mn793 2.121 . S
O798 C806 1.258 . S
C799 N800 1.326 . S
C799 C803 1.460 . S
C799 H805 0.929 . S
N800 Mn793 2.257 . S
N800 C799 1.326 . S
N800 C804 1.362 . S
C801 C802 1.258 . S
C801 C804 1.431 . S
C801 C821 1.449 . S
C802 C801 1.258 . S
C802 C803 1.477 . S
C802 H822 0.931 . S
C803 C799 1.460 . S
C803 C802 1.477 . S
C803 H823 0.930 . S
C804 N800 1.362 . S
C804 C801 1.431 . S
C804 C814 1.476 . S
H805 C799 0.929 . S
C806 O797 1.250 . S
C806 O798 1.258 . S
O807 Mn792 2.162 . S
O807 C795 1.281 . S
O808 Mn792 2.297 . S
O808 C795 1.236 . S
N809 Mn793 2.282 . S
N809 C810 1.328 . S
N809 C814 1.318 . S
C810 N809 1.328 . S
C810 C811 1.457 . S
C810 H815 0.929 . S
C811 C810 1.457 . S
C811 C812 1.291 . S
C811 H824 0.931 . S
C812 C811 1.291 . S
C812 C813 1.373 . S
C812 H825 0.929 . S
C813 C812 1.373 . S
C813 C814 1.396 . S
C813 C820 1.403 . S
C814 C804 1.476 . S
C814 N809 1.318 . S
C814 C813 1.396 . S
H815 C810 0.929 . S
O816 Mn792 2.385 . S
O816 C794 1.234 . S
O817 Mn792 2.209 . S
O817 Mn793 2.215 . S
O817 C794 1.283 . S
O818 Mn792 2.094 . S
O818 C796 1.240 . S
O819 Mn793 2.117 . S
O819 C796 1.264 . S
C820 C813 1.403 . S
C820 C821 1.399 . S
C820 H826 0.929 . S
C821 C801 1.449 . S
C821 C820 1.399 . S
C821 H827 0.930 . S
H822 C802 0.931 . S
H823 C803 0.930 . S
H824 C811 0.931 . S
H825 C812 0.929 . S
H826 C820 0.929 . S
H827 C821 0.930 . S
Mn828 O833 2.095 . S
Mn828 O843 2.162 . S
Mn828 O844 2.297 . S
Mn828 O852 2.385 . S
Mn828 O853 2.209 . S
Mn828 O854 2.094 . S
Mn829 O834 2.121 . S
Mn829 N836 2.257 . S
Mn829 N845 2.282 . S
Mn829 O853 2.215 . S
Mn829 O855 2.117 . S
C830 O852 1.234 . S
C830 O853 1.283 . S
C831 O843 1.281 . S
C831 O844 1.236 . S
C832 O854 1.240 . S
C832 O855 1.264 . S
O833 Mn828 2.095 . S
O833 C842 1.250 . S
O834 Mn829 2.121 . S
O834 C842 1.258 . S
C835 N836 1.326 . S
C835 C839 1.460 . S
C835 H841 0.929 . S
N836 Mn829 2.257 . S
N836 C835 1.326 . S
N836 C840 1.362 . S
C837 C838 1.258 . S
C837 C840 1.431 . S
C837 C857 1.449 . S
C838 C837 1.258 . S
C838 C839 1.477 . S
C838 H858 0.931 . S
C839 C835 1.460 . S
C839 C838 1.477 . S
C839 H859 0.930 . S
C840 N836 1.362 . S
C840 C837 1.431 . S
C840 C850 1.476 . S
H841 C835 0.929 . S
C842 O833 1.250 . S
C842 O834 1.258 . S
O843 Mn828 2.162 . S
O843 C831 1.281 . S
O844 Mn828 2.297 . S
O844 C831 1.236 . S
N845 Mn829 2.282 . S
N845 C846 1.328 . S
N845 C850 1.318 . S
C846 N845 1.328 . S
C846 C847 1.457 . S
C846 H851 0.929 . S
C847 C846 1.457 . S
C847 C848 1.291 . S
C847 H860 0.931 . S
C848 C847 1.291 . S
C848 C849 1.373 . S
C848 H861 0.929 . S
C849 C848 1.373 . S
C849 C850 1.396 . S
C849 C856 1.403 . S
C850 C840 1.476 . S
C850 N845 1.318 . S
C850 C849 1.396 . S
H851 C846 0.929 . S
O852 Mn828 2.385 . S
O852 C830 1.234 . S
O853 Mn828 2.209 . S
O853 Mn829 2.215 . S
O853 C830 1.283 . S
O854 Mn828 2.094 . S
O854 C832 1.240 . S
O855 Mn829 2.117 . S
O855 C832 1.264 . S
C856 C849 1.403 . S
C856 C857 1.399 . S
C856 H862 0.929 . S
C857 C837 1.449 . S
C857 C856 1.399 . S
C857 H863 0.930 . S
H858 C838 0.931 . S
H859 C839 0.930 . S
H860 C847 0.931 . S
H861 C848 0.929 . S
H862 C856 0.929 . S
H863 C857 0.930 . S
Tb864 C866 2.809 . S
Tb864 O884 2.484 . S
Tb864 O885 2.443 . S
Tb864 O886 2.658 1_655 S
Tb864 O887 2.409 1_654 S
Tb864 O888 2.378 1_655 S
Tb864 O892 2.325 1_655 S
Tb864 O895 2.341 1_645 S
Tb865 C875 2.809 1_545 S
Tb865 O886 2.325 . S
Tb865 O889 2.341 . S
Tb865 O890 2.484 1_545 S
Tb865 O891 2.440 . S
Tb865 O892 2.658 . S
Tb865 O893 2.409 . S
Tb865 O894 2.378 1_545 S
C866 Tb864 2.809 . S
C866 C867 1.514 . S
C866 O884 1.248 . S
C866 O885 1.270 . S
C867 C866 1.514 . S
C867 C868 1.359 . S
C867 C872 1.348 1_554 S
C868 C867 1.359 . S
C868 C869 1.380 . S
C868 H896 0.929 . S
C869 C868 1.380 . S
C869 C870 1.347 . S
C869 H897 0.931 . S
C870 C869 1.347 . S
C870 C871 1.369 1_554 S
C871 C870 1.369 1_556 S
C871 C872 1.408 . S
C871 H898 0.930 . S
C872 C867 1.348 1_556 S
C872 C871 1.408 . S
C872 H899 0.930 . S
C873 O886 1.281 1_556 S
C873 O887 1.254 . S
C874 O888 1.236 . S
C874 O889 1.266 . S
C875 Tb865 2.809 1_565 S
C875 C876 1.514 . S
C875 O890 1.248 . S
C875 O891 1.266 1_565 S
C876 C875 1.514 . S
C876 C877 1.359 . S
C876 C881 1.348 . S
C877 C876 1.359 . S
C877 C878 1.380 . S
C877 H900 0.929 . S
C878 C877 1.380 . S
C878 C879 1.347 . S
C878 H901 0.931 . S
C879 C878 1.347 . S
C879 C880 1.369 . S
C880 C879 1.369 . S
C880 C881 1.408 . S
C880 H902 0.930 . S
C881 C876 1.348 . S
C881 C880 1.408 . S
C881 H903 0.930 . S
C882 O892 1.281 . S
C882 O893 1.254 . S
C883 O894 1.236 . S
C883 O895 1.266 . S
O884 Tb864 2.484 . S
O884 C866 1.248 . S
O885 Tb864 2.443 . S
O885 C866 1.270 . S
O886 Tb864 2.658 1_455 S
O886 Tb865 2.325 . S
O886 C873 1.281 1_554 S
O887 Tb864 2.409 1_456 S
O887 C873 1.254 . S
O888 Tb864 2.378 1_455 S
O888 C874 1.236 . S
O889 Tb865 2.341 . S
O889 C874 1.266 . S
O890 Tb865 2.484 1_565 S
O890 C875 1.248 . S
O891 Tb865 2.440 . S
O891 C875 1.266 1_545 S
O892 Tb864 2.325 1_455 S
O892 Tb865 2.658 . S
O892 C882 1.281 . S
O893 Tb865 2.409 . S
O893 C882 1.254 . S
O894 Tb865 2.378 1_565 S
O894 C883 1.236 . S
O895 Tb864 2.341 1_465 S
O895 C883 1.266 . S
H896 C868 0.929 . S
H897 C869 0.931 . S
H898 C871 0.930 . S
H899 C872 0.930 . S
H900 C877 0.929 . S
H901 C878 0.931 . S
H902 C880 0.930 . S
H903 C881 0.930 . S
Tb904 C906 2.809 . S
Tb904 O924 2.484 . S
Tb904 O925 2.440 . S
Tb904 O926 2.658 . S
Tb904 O927 2.409 . S
Tb904 O928 2.378 . S
Tb904 O932 2.325 . S
Tb904 O935 2.341 . S
Tb905 C915 2.809 . S
Tb905 O926 2.325 . S
Tb905 O929 2.341 . S
Tb905 O930 2.484 . S
Tb905 O931 2.440 . S
Tb905 O932 2.658 . S
Tb905 O933 2.409 . S
Tb905 O934 2.378 . S
C906 Tb904 2.809 . S
C906 C907 1.514 . S
C906 O924 1.248 . S
C906 O925 1.266 . S
C907 C906 1.514 . S
C907 C908 1.359 . S
C907 C912 1.348 . S
C908 C907 1.359 . S
C908 C909 1.380 . S
C908 H936 0.929 . S
C909 C908 1.380 . S
C909 C910 1.347 . S
C909 H937 0.931 . S
C910 C909 1.347 . S
C910 C911 1.369 . S
C911 C910 1.369 . S
C911 C912 1.408 . S
C911 H938 0.930 . S
C912 C907 1.348 . S
C912 C911 1.408 . S
C912 H939 0.930 . S
C913 O926 1.281 . S
C913 O927 1.254 . S
C914 O928 1.236 . S
C914 O929 1.266 . S
C915 Tb905 2.809 . S
C915 C916 1.514 . S
C915 O930 1.248 . S
C915 O931 1.266 . S
C916 C915 1.514 . S
C916 C917 1.359 . S
C916 C921 1.348 . S
C917 C916 1.359 . S
C917 C918 1.380 . S
C917 H940 0.929 . S
C918 C917 1.380 . S
C918 C919 1.347 . S
C918 H941 0.931 . S
C919 C918 1.347 . S
C919 C920 1.369 . S
C920 C919 1.369 . S
C920 C921 1.408 . S
C920 H942 0.930 . S
C921 C916 1.348 . S
C921 C920 1.408 . S
C921 H943 0.930 . S
C922 O932 1.281 . S
C922 O933 1.254 . S
C923 O934 1.236 . S
C923 O935 1.266 . S
O924 Tb904 2.484 . S
O924 C906 1.248 . S
O925 Tb904 2.440 . S
O925 C906 1.266 . S
O926 Tb904 2.658 . S
O926 Tb905 2.325 . S
O926 C913 1.281 . S
O927 Tb904 2.409 . S
O927 C913 1.254 . S
O928 Tb904 2.378 . S
O928 C914 1.236 . S
O929 Tb905 2.341 . S
O929 C914 1.266 . S
O930 Tb905 2.484 . S
O930 C915 1.248 . S
O931 Tb905 2.440 . S
O931 C915 1.266 . S
O932 Tb904 2.325 . S
O932 Tb905 2.658 . S
O932 C922 1.281 . S
O933 Tb905 2.409 . S
O933 C922 1.254 . S
O934 Tb905 2.378 . S
O934 C923 1.236 . S
O935 Tb904 2.341 . S
O935 C923 1.266 . S
H936 C908 0.929 . S
H937 C909 0.931 . S
H938 C911 0.930 . S
H939 C912 0.930 . S
H940 C917 0.929 . S
H941 C918 0.931 . S
H942 C920 0.930 . S
H943 C921 0.930 . S
Tb944 C946 2.809 . S
Tb944 O964 2.484 . S
Tb944 O965 2.440 . S
Tb944 O966 2.658 . S
Tb944 O967 2.409 . S
Tb944 O968 2.378 1_545 S
Tb944 O972 2.325 . S
Tb944 O975 2.341 . S
Tb945 C955 2.809 . S
Tb945 O966 2.325 . S
Tb945 O969 2.341 1_545 S
Tb945 O970 2.484 . S
Tb945 O971 2.440 . S
Tb945 O972 2.658 . S
Tb945 O973 2.409 . S
Tb945 O974 2.378 . S
C946 Tb944 2.809 . S
C946 C947 1.514 1_545 S
C946 O964 1.248 . S
C946 O965 1.266 . S
C947 C946 1.514 1_565 S
C947 C948 1.359 . S
C947 C952 1.348 . S
C948 C947 1.359 . S
C948 C949 1.380 . S
C948 H976 0.929 . S
C949 C948 1.380 . S
C949 C950 1.347 . S
C949 H977 0.931 . S
C950 C949 1.347 . S
C950 C951 1.369 . S
C951 C950 1.369 . S
C951 C952 1.408 . S
C951 H978 0.930 . S
C952 C947 1.348 . S
C952 C951 1.408 . S
C952 H979 0.930 . S
C953 O966 1.281 . S
C953 O967 1.254 . S
C954 O968 1.236 . S
C954 O969 1.266 . S
C955 Tb945 2.809 . S
C955 C956 1.514 . S
C955 O970 1.248 . S
C955 O971 1.266 . S
C956 C955 1.514 . S
C956 C957 1.359 . S
C956 C961 1.348 . S
C957 C956 1.359 . S
C957 C958 1.380 . S
C957 H980 0.929 . S
C958 C957 1.380 . S
C958 C959 1.347 . S
C958 H981 0.931 . S
C959 C958 1.347 . S
C959 C960 1.369 . S
C960 C959 1.369 . S
C960 C961 1.408 . S
C960 H982 0.930 . S
C961 C956 1.348 . S
C961 C960 1.408 . S
C961 H983 0.930 . S
C962 O972 1.281 . S
C962 O973 1.254 . S
C963 O974 1.236 . S
C963 O975 1.266 . S
O964 Tb944 2.484 . S
O964 C946 1.248 . S
O965 Tb944 2.440 . S
O965 C946 1.266 . S
O966 Tb944 2.658 . S
O966 Tb945 2.325 . S
O966 C953 1.281 . S
O967 Tb944 2.409 . S
O967 C953 1.254 . S
O968 Tb944 2.378 1_565 S
O968 C954 1.236 . S
O969 Tb945 2.341 1_565 S
O969 C954 1.266 . S
O970 Tb945 2.484 . S
O970 C955 1.248 . S
O971 Tb945 2.440 . S
O971 C955 1.266 . S
O972 Tb944 2.325 . S
O972 Tb945 2.658 . S
O972 C962 1.281 . S
O973 Tb945 2.409 . S
O973 C962 1.254 . S
O974 Tb945 2.378 . S
O974 C963 1.236 . S
O975 Tb944 2.341 . S
O975 C963 1.266 . S
H976 C948 0.929 . S
H977 C949 0.931 . S
H978 C951 0.930 . S
H979 C952 0.930 . S
H980 C957 0.929 . S
H981 C958 0.931 . S
H982 C960 0.930 . S
H983 C961 0.930 . S
Tb984 C986 2.809 . S
Tb984 O1004 2.484 . S
Tb984 O1005 2.440 . S
Tb984 O1006 2.658 . S
Tb984 O1007 2.409 . S
Tb984 O1008 2.378 . S
Tb984 O1012 2.325 . S
Tb984 O1015 2.341 . S
Tb985 C995 2.809 . S
Tb985 O1006 2.325 . S
Tb985 O1009 2.341 . S
Tb985 O1010 2.484 . S
Tb985 O1011 2.440 . S
Tb985 O1012 2.658 . S
Tb985 O1013 2.409 . S
Tb985 O1014 2.378 . S
C986 Tb984 2.809 . S
C986 C987 1.514 . S
C986 O1004 1.248 . S
C986 O1005 1.266 . S
C987 C986 1.514 . S
C987 C988 1.359 . S
C987 C992 1.348 . S
C988 C987 1.359 . S
C988 C989 1.380 . S
C988 H1016 0.929 . S
C989 C988 1.380 . S
C989 C990 1.347 . S
C989 H1017 0.931 . S
C990 C989 1.347 . S
C990 C991 1.369 . S
C991 C990 1.369 . S
C991 C992 1.408 . S
C991 H1018 0.930 . S
C992 C987 1.348 . S
C992 C991 1.408 . S
C992 H1019 0.930 . S
C993 O1006 1.281 . S
C993 O1007 1.254 . S
C994 O1008 1.236 . S
C994 O1009 1.266 . S
C995 Tb985 2.809 . S
C995 C996 1.514 . S
C995 O1010 1.248 . S
C995 O1011 1.266 . S
C996 C995 1.514 . S
C996 C997 1.359 . S
C996 C1001 1.348 . S
C997 C996 1.359 . S
C997 C998 1.380 . S
C997 H1020 0.929 . S
C998 C997 1.380 . S
C998 C999 1.347 . S
C998 H1021 0.931 . S
C999 C998 1.347 . S
C999 C1000 1.369 . S
C1000 C999 1.369 . S
C1000 C1001 1.408 . S
C1000 H1022 0.930 . S
C1001 C996 1.348 . S
C1001 C1000 1.408 . S
C1001 H1023 0.930 . S
C1002 O1012 1.281 . S
C1002 O1013 1.254 . S
C1003 O1014 1.236 . S
C1003 O1015 1.266 . S
O1004 Tb984 2.484 . S
O1004 C986 1.248 . S
O1005 Tb984 2.440 . S
O1005 C986 1.266 . S
O1006 Tb984 2.658 . S
O1006 Tb985 2.325 . S
O1006 C993 1.281 . S
O1007 Tb984 2.409 . S
O1007 C993 1.254 . S
O1008 Tb984 2.378 . S
O1008 C994 1.236 . S
O1009 Tb985 2.341 . S
O1009 C994 1.266 . S
O1010 Tb985 2.484 . S
O1010 C995 1.248 . S
O1011 Tb985 2.440 . S
O1011 C995 1.266 . S
O1012 Tb984 2.325 . S
O1012 Tb985 2.658 . S
O1012 C1002 1.281 . S
O1013 Tb985 2.409 . S
O1013 C1002 1.254 . S
O1014 Tb985 2.378 . S
O1014 C1003 1.236 . S
O1015 Tb984 2.341 . S
O1015 C1003 1.266 . S
H1016 C988 0.929 . S
H1017 C989 0.931 . S
H1018 C991 0.930 . S
H1019 C992 0.930 . S
H1020 C997 0.929 . S
H1021 C998 0.931 . S
H1022 C1000 0.930 . S
H1023 C1001 0.930 . S
Tb1024 C1026 2.809 . S
Tb1024 O1044 2.484 . S
Tb1024 O1045 2.470 . S
Tb1024 O1046 2.658 . S
Tb1024 O1047 2.409 1_455 S
Tb1024 O1048 2.378 . S
Tb1024 O1052 2.325 . S
Tb1024 O1055 2.341 . S
Tb1025 C1035 2.809 . S
Tb1025 O1046 2.325 1_565 S
Tb1025 O1049 2.324 1_565 S
Tb1025 O1050 2.484 . S
Tb1025 O1051 2.440 . S
Tb1025 O1052 2.658 1_565 S
Tb1025 O1053 2.409 1_565 S
Tb1025 O1054 2.378 1_565 S
C1026 Tb1024 2.809 . S
C1026 C1027 1.514 . S
C1026 O1044 1.248 . S
C1026 O1045 1.298 . S
C1027 C1026 1.514 . S
C1027 C1028 1.359 . S
C1027 C1032 1.348 1_455 S
C1028 C1027 1.359 . S
C1028 C1029 1.380 . S
C1028 H1056 0.929 . S
C1029 C1028 1.380 . S
C1029 C1030 1.345 1_455 S
C1029 H1057 0.931 . S
C1030 C1029 1.345 1_655 S
C1030 C1031 1.370 . S
C1031 C1030 1.370 . S
C1031 C1032 1.408 . S
C1031 H1058 0.930 . S
C1032 C1027 1.348 1_655 S
C1032 C1031 1.408 . S
C1032 H1059 0.930 . S
C1033 O1046 1.281 1_655 S
C1033 O1047 1.254 . S
C1034 O1048 1.236 . S
C1034 O1049 1.298 . S
C1035 Tb1025 2.809 . S
C1035 C1036 1.514 . S
C1035 O1050 1.248 . S
C1035 O1051 1.266 . S
C1036 C1035 1.514 . S
C1036 C1037 1.359 . S
C1036 C1041 1.348 . S
C1037 C1036 1.359 . S
C1037 C1038 1.380 . S
C1037 H1060 0.929 . S
C1038 C1037 1.380 . S
C1038 C1039 1.347 . S
C1038 H1061 0.931 . S
C1039 C1038 1.347 . S
C1039 C1040 1.369 . S
C1040 C1039 1.369 . S
C1040 C1041 1.408 . S
C1040 H1062 0.930 . S
C1041 C1036 1.348 . S
C1041 C1040 1.408 . S
C1041 H1063 0.930 . S
C1042 O1052 1.281 . S
C1042 O1053 1.254 . S
C1043 O1054 1.236 . S
C1043 O1055 1.266 . S
O1044 Tb1024 2.484 . S
O1044 C1026 1.248 . S
O1045 Tb1024 2.470 . S
O1045 C1026 1.298 . S
O1046 Tb1024 2.658 . S
O1046 Tb1025 2.325 1_545 S
O1046 C1033 1.281 1_455 S
O1047 Tb1024 2.409 1_655 S
O1047 C1033 1.254 . S
O1048 Tb1024 2.378 . S
O1048 C1034 1.236 . S
O1049 Tb1025 2.324 1_545 S
O1049 C1034 1.298 . S
O1050 Tb1025 2.484 . S
O1050 C1035 1.248 . S
O1051 Tb1025 2.440 . S
O1051 C1035 1.266 . S
O1052 Tb1024 2.325 . S
O1052 Tb1025 2.658 1_545 S
O1052 C1042 1.281 . S
O1053 Tb1025 2.409 1_545 S
O1053 C1042 1.254 . S
O1054 Tb1025 2.378 1_545 S
O1054 C1043 1.236 . S
O1055 Tb1024 2.341 . S
O1055 C1043 1.266 . S
H1056 C1028 0.929 . S
H1057 C1029 0.931 . S
H1058 C1031 0.930 . S
H1059 C1032 0.930 . S
H1060 C1037 0.929 . S
H1061 C1038 0.931 . S
H1062 C1040 0.930 . S
H1063 C1041 0.930 . S
Tb1064 C1066 2.809 . S
Tb1064 O1084 2.484 . S
Tb1064 O1085 2.440 . S
Tb1064 O1086 2.658 . S
Tb1064 O1087 2.409 . S
Tb1064 O1088 2.378 . S
Tb1064 O1092 2.325 . S
Tb1064 O1095 2.341 . S
Tb1065 C1075 2.809 . S
Tb1065 O1086 2.325 . S
Tb1065 O1089 2.341 . S
Tb1065 O1090 2.484 . S
Tb1065 O1091 2.440 . S
Tb1065 O1092 2.658 . S
Tb1065 O1093 2.409 . S
Tb1065 O1094 2.378 . S
C1066 Tb1064 2.809 . S
C1066 C1067 1.514 . S
C1066 O1084 1.248 . S
C1066 O1085 1.266 . S
C1067 C1066 1.514 . S
C1067 C1068 1.359 . S
C1067 C1072 1.348 . S
C1068 C1067 1.359 . S
C1068 C1069 1.380 . S
C1068 H1096 0.929 . S
C1069 C1068 1.380 . S
C1069 C1070 1.347 . S
C1069 H1097 0.931 . S
C1070 C1069 1.347 . S
C1070 C1071 1.369 . S
C1071 C1070 1.369 . S
C1071 C1072 1.408 . S
C1071 H1098 0.930 . S
C1072 C1067 1.348 . S
C1072 C1071 1.408 . S
C1072 H1099 0.930 . S
C1073 O1086 1.281 . S
C1073 O1087 1.254 . S
C1074 O1088 1.236 . S
C1074 O1089 1.266 . S
C1075 Tb1065 2.809 . S
C1075 C1076 1.514 . S
C1075 O1090 1.248 . S
C1075 O1091 1.266 . S
C1076 C1075 1.514 . S
C1076 C1077 1.359 . S
C1076 C1081 1.348 . S
C1077 C1076 1.359 . S
C1077 C1078 1.380 . S
C1077 H1100 0.929 . S
C1078 C1077 1.380 . S
C1078 C1079 1.347 . S
C1078 H1101 0.931 . S
C1079 C1078 1.347 . S
C1079 C1080 1.369 . S
C1080 C1079 1.369 . S
C1080 C1081 1.408 . S
C1080 H1102 0.930 . S
C1081 C1076 1.348 . S
C1081 C1080 1.408 . S
C1081 H1103 0.930 . S
C1082 O1092 1.281 . S
C1082 O1093 1.254 . S
C1083 O1094 1.236 . S
C1083 O1095 1.266 . S
O1084 Tb1064 2.484 . S
O1084 C1066 1.248 . S
O1085 Tb1064 2.440 . S
O1085 C1066 1.266 . S
O1086 Tb1064 2.658 . S
O1086 Tb1065 2.325 . S
O1086 C1073 1.281 . S
O1087 Tb1064 2.409 . S
O1087 C1073 1.254 . S
O1088 Tb1064 2.378 . S
O1088 C1074 1.236 . S
O1089 Tb1065 2.341 . S
O1089 C1074 1.266 . S
O1090 Tb1065 2.484 . S
O1090 C1075 1.248 . S
O1091 Tb1065 2.440 . S
O1091 C1075 1.266 . S
O1092 Tb1064 2.325 . S
O1092 Tb1065 2.658 . S
O1092 C1082 1.281 . S
O1093 Tb1065 2.409 . S
O1093 C1082 1.254 . S
O1094 Tb1065 2.378 . S
O1094 C1083 1.236 . S
O1095 Tb1064 2.341 . S
O1095 C1083 1.266 . S
H1096 C1068 0.929 . S
H1097 C1069 0.931 . S
H1098 C1071 0.930 . S
H1099 C1072 0.930 . S
H1100 C1077 0.929 . S
H1101 C1078 0.931 . S
H1102 C1080 0.930 . S
H1103 C1081 0.930 . S
Tb1104 C1106 2.809 . S
Tb1104 O1124 2.484 1_545 S
Tb1104 O1125 2.440 . S
Tb1104 O1126 2.658 . S
Tb1104 O1127 2.409 . S
Tb1104 O1128 2.378 . S
Tb1104 O1132 2.346 . S
Tb1104 O1135 2.341 . S
Tb1105 C1115 2.809 . S
Tb1105 O1126 2.325 . S
Tb1105 O1129 2.341 . S
Tb1105 O1130 2.484 . S
Tb1105 O1131 2.440 . S
Tb1105 O1132 2.667 . S
Tb1105 O1133 2.409 1_545 S
Tb1105 O1134 2.378 . S
C1106 Tb1104 2.809 . S
C1106 C1107 1.514 1_545 S
C1106 O1124 1.248 1_545 S
C1106 O1125 1.266 . S
C1107 C1106 1.514 1_565 S
C1107 C1108 1.359 . S
C1107 C1112 1.348 1_565 S
C1108 C1107 1.359 . S
C1108 C1109 1.380 . S
C1108 H1136 0.929 . S
C1109 C1108 1.380 . S
C1109 C1110 1.347 . S
C1109 H1137 0.931 . S
C1110 C1109 1.347 . S
C1110 C1111 1.369 1_565 S
C1111 C1110 1.369 1_545 S
C1111 C1112 1.408 . S
C1111 H1138 0.930 . S
C1112 C1107 1.348 1_545 S
C1112 C1111 1.408 . S
C1112 H1139 0.930 . S
C1113 O1126 1.281 . S
C1113 O1127 1.254 . S
C1114 O1128 1.236 . S
C1114 O1129 1.266 . S
C1115 Tb1105 2.809 . S
C1115 C1116 1.514 . S
C1115 O1130 1.248 . S
C1115 O1131 1.266 . S
C1116 C1115 1.514 . S
C1116 C1117 1.359 . S
C1116 C1121 1.348 . S
C1117 C1116 1.359 . S
C1117 C1118 1.380 . S
C1117 H1140 0.929 . S
C1118 C1117 1.380 . S
C1118 C1119 1.347 . S
C1118 H1141 0.931 . S
C1119 C1118 1.347 . S
C1119 C1120 1.369 . S
C1120 C1119 1.369 . S
C1120 C1121 1.408 . S
C1120 H1142 0.930 . S
C1121 C1116 1.348 . S
C1121 C1120 1.408 . S
C1121 H1143 0.930 . S
C1122 O1132 1.259 1_565 S
C1122 O1133 1.254 . S
C1123 O1134 1.236 . S
C1123 O1135 1.266 . S
O1124 Tb1104 2.484 1_565 S
O1124 C1106 1.248 1_565 S
O1125 Tb1104 2.440 . S
O1125 C1106 1.266 . S
O1126 Tb1104 2.658 . S
O1126 Tb1105 2.325 . S
O1126 C1113 1.281 . S
O1127 Tb1104 2.409 . S
O1127 C1113 1.254 . S
O1128 Tb1104 2.378 . S
O1128 C1114 1.236 . S
O1129 Tb1105 2.341 . S
O1129 C1114 1.266 . S
O1130 Tb1105 2.484 . S
O1130 C1115 1.248 . S
O1131 Tb1105 2.440 . S
O1131 C1115 1.266 . S
O1132 Tb1104 2.346 . S
O1132 Tb1105 2.667 . S
O1132 C1122 1.259 1_545 S
O1133 Tb1105 2.409 1_565 S
O1133 C1122 1.254 . S
O1134 Tb1105 2.378 . S
O1134 C1123 1.236 . S
O1135 Tb1104 2.341 . S
O1135 C1123 1.266 . S
H1136 C1108 0.929 . S
H1137 C1109 0.931 . S
H1138 C1111 0.930 . S
H1139 C1112 0.930 . S
H1140 C1117 0.929 . S
H1141 C1118 0.931 . S
H1142 C1120 0.930 . S
H1143 C1121 0.930 . S
Tb1144 C1146 2.809 . S
Tb1144 O1164 2.484 . S
Tb1144 O1165 2.440 . S
Tb1144 O1166 2.658 . S
Tb1144 O1167 2.409 . S
Tb1144 O1168 2.378 . S
Tb1144 O1172 2.325 . S
Tb1144 O1175 2.341 . S
Tb1145 C1155 2.809 . S
Tb1145 O1166 2.325 . S
Tb1145 O1169 2.341 . S
Tb1145 O1170 2.484 . S
Tb1145 O1171 2.440 . S
Tb1145 O1172 2.658 . S
Tb1145 O1173 2.409 . S
Tb1145 O1174 2.378 . S
C1146 Tb1144 2.809 . S
C1146 C1147 1.514 . S
C1146 O1164 1.248 . S
C1146 O1165 1.266 . S
C1147 C1146 1.514 . S
C1147 C1148 1.359 . S
C1147 C1152 1.348 . S
C1148 C1147 1.359 . S
C1148 C1149 1.380 . S
C1148 H1176 0.929 . S
C1149 C1148 1.380 . S
C1149 C1150 1.347 . S
C1149 H1177 0.931 . S
C1150 C1149 1.347 . S
C1150 C1151 1.369 . S
C1151 C1150 1.369 . S
C1151 C1152 1.408 . S
C1151 H1178 0.930 . S
C1152 C1147 1.348 . S
C1152 C1151 1.408 . S
C1152 H1179 0.930 . S
C1153 O1166 1.281 . S
C1153 O1167 1.254 . S
C1154 O1168 1.236 . S
C1154 O1169 1.266 . S
C1155 Tb1145 2.809 . S
C1155 C1156 1.514 . S
C1155 O1170 1.248 . S
C1155 O1171 1.266 . S
C1156 C1155 1.514 . S
C1156 C1157 1.359 . S
C1156 C1161 1.348 . S
C1157 C1156 1.359 . S
C1157 C1158 1.380 . S
C1157 H1180 0.929 . S
C1158 C1157 1.380 . S
C1158 C1159 1.347 . S
C1158 H1181 0.931 . S
C1159 C1158 1.347 . S
C1159 C1160 1.369 . S
C1160 C1159 1.369 . S
C1160 C1161 1.408 . S
C1160 H1182 0.930 . S
C1161 C1156 1.348 . S
C1161 C1160 1.408 . S
C1161 H1183 0.930 . S
C1162 O1172 1.281 . S
C1162 O1173 1.254 . S
C1163 O1174 1.236 . S
C1163 O1175 1.266 . S
O1164 Tb1144 2.484 . S
O1164 C1146 1.248 . S
O1165 Tb1144 2.440 . S
O1165 C1146 1.266 . S
O1166 Tb1144 2.658 . S
O1166 Tb1145 2.325 . S
O1166 C1153 1.281 . S
O1167 Tb1144 2.409 . S
O1167 C1153 1.254 . S
O1168 Tb1144 2.378 . S
O1168 C1154 1.236 . S
O1169 Tb1145 2.341 . S
O1169 C1154 1.266 . S
O1170 Tb1145 2.484 . S
O1170 C1155 1.248 . S
O1171 Tb1145 2.440 . S
O1171 C1155 1.266 . S
O1172 Tb1144 2.325 . S
O1172 Tb1145 2.658 . S
O1172 C1162 1.281 . S
O1173 Tb1145 2.409 . S
O1173 C1162 1.254 . S
O1174 Tb1145 2.378 . S
O1174 C1163 1.236 . S
O1175 Tb1144 2.341 . S
O1175 C1163 1.266 . S
H1176 C1148 0.929 . S
H1177 C1149 0.931 . S
H1178 C1151 0.930 . S
H1179 C1152 0.930 . S
H1180 C1157 0.929 . S
H1181 C1158 0.931 . S
H1182 C1160 0.930 . S
H1183 C1161 0.930 . S
Tb1184 C1186 2.809 . S
Tb1184 O1204 2.484 . S
Tb1184 O1205 2.440 . S
Tb1184 O1206 2.658 . S
Tb1184 O1207 2.409 . S
Tb1184 O1208 2.378 . S
Tb1184 O1212 2.325 . S
Tb1184 O1215 2.341 . S
Tb1185 C1195 2.809 . S
Tb1185 O1206 2.325 . S
Tb1185 O1209 2.311 1_554 S
Tb1185 O1210 2.484 . S
Tb1185 O1211 2.440 . S
Tb1185 O1212 2.658 . S
Tb1185 O1213 2.409 . S
Tb1185 O1214 2.378 . S
C1186 Tb1184 2.809 . S
C1186 C1187 1.514 . S
C1186 O1204 1.248 . S
C1186 O1205 1.266 . S
C1187 C1186 1.514 . S
C1187 C1188 1.359 1_554 S
C1187 C1192 1.348 . S
C1188 C1187 1.359 1_556 S
C1188 C1189 1.380 . S
C1188 H1216 0.929 . S
C1189 C1188 1.380 . S
C1189 C1190 1.347 . S
C1189 H1217 0.931 . S
C1190 C1189 1.347 . S
C1190 C1191 1.369 . S
C1191 C1190 1.369 . S
C1191 C1192 1.408 1_556 S
C1191 H1218 0.930 . S
C1192 C1187 1.348 . S
C1192 C1191 1.408 1_554 S
C1192 H1219 0.930 . S
C1193 O1206 1.281 . S
C1193 O1207 1.254 . S
C1194 O1208 1.236 1_556 S
C1194 O1209 1.276 . S
C1195 Tb1185 2.809 . S
C1195 C1196 1.514 . S
C1195 O1210 1.248 . S
C1195 O1211 1.266 . S
C1196 C1195 1.514 . S
C1196 C1197 1.359 . S
C1196 C1201 1.348 . S
C1197 C1196 1.359 . S
C1197 C1198 1.380 . S
C1197 H1220 0.929 . S
C1198 C1197 1.380 . S
C1198 C1199 1.347 . S
C1198 H1221 0.931 . S
C1199 C1198 1.347 . S
C1199 C1200 1.369 . S
C1200 C1199 1.369 . S
C1200 C1201 1.408 . S
C1200 H1222 0.930 . S
C1201 C1196 1.348 . S
C1201 C1200 1.408 . S
C1201 H1223 0.930 . S
C1202 O1212 1.281 . S
C1202 O1213 1.254 . S
C1203 O1214 1.236 . S
C1203 O1215 1.266 . S
O1204 Tb1184 2.484 . S
O1204 C1186 1.248 . S
O1205 Tb1184 2.440 . S
O1205 C1186 1.266 . S
O1206 Tb1184 2.658 . S
O1206 Tb1185 2.325 . S
O1206 C1193 1.281 . S
O1207 Tb1184 2.409 . S
O1207 C1193 1.254 . S
O1208 Tb1184 2.378 . S
O1208 C1194 1.236 1_554 S
O1209 Tb1185 2.311 1_556 S
O1209 C1194 1.276 . S
O1210 Tb1185 2.484 . S
O1210 C1195 1.248 . S
O1211 Tb1185 2.440 . S
O1211 C1195 1.266 . S
O1212 Tb1184 2.325 . S
O1212 Tb1185 2.658 . S
O1212 C1202 1.281 . S
O1213 Tb1185 2.409 . S
O1213 C1202 1.254 . S
O1214 Tb1185 2.378 . S
O1214 C1203 1.236 . S
O1215 Tb1184 2.341 . S
O1215 C1203 1.266 . S
H1216 C1188 0.929 . S
H1217 C1189 0.931 . S
H1218 C1191 0.930 . S
H1219 C1192 0.930 . S
H1220 C1197 0.929 . S
H1221 C1198 0.931 . S
H1222 C1200 0.930 . S
H1223 C1201 0.930 . S
Tb1224 C1226 2.809 . S
Tb1224 O1244 2.484 . S
Tb1224 O1245 2.440 . S
Tb1224 O1246 2.658 . S
Tb1224 O1247 2.409 . S
Tb1224 O1248 2.378 . S
Tb1224 O1252 2.325 . S
Tb1224 O1255 2.341 . S
Tb1225 C1235 2.809 . S
Tb1225 O1246 2.325 . S
Tb1225 O1249 2.341 . S
Tb1225 O1250 2.484 . S
Tb1225 O1251 2.440 . S
Tb1225 O1252 2.658 . S
Tb1225 O1253 2.409 . S
Tb1225 O1254 2.378 . S
C1226 Tb1224 2.809 . S
C1226 C1227 1.514 . S
C1226 O1244 1.248 . S
C1226 O1245 1.266 . S
C1227 C1226 1.514 . S
C1227 C1228 1.359 . S
C1227 C1232 1.348 . S
C1228 C1227 1.359 . S
C1228 C1229 1.380 . S
C1228 H1256 0.929 . S
C1229 C1228 1.380 . S
C1229 C1230 1.347 . S
C1229 H1257 0.931 . S
C1230 C1229 1.347 . S
C1230 C1231 1.369 . S
C1231 C1230 1.369 . S
C1231 C1232 1.408 . S
C1231 H1258 0.930 . S
C1232 C1227 1.348 . S
C1232 C1231 1.408 . S
C1232 H1259 0.930 . S
C1233 O1246 1.281 . S
C1233 O1247 1.254 . S
C1234 O1248 1.236 . S
C1234 O1249 1.266 . S
C1235 Tb1225 2.809 . S
C1235 C1236 1.514 . S
C1235 O1250 1.248 . S
C1235 O1251 1.266 . S
C1236 C1235 1.514 . S
C1236 C1237 1.359 . S
C1236 C1241 1.348 . S
C1237 C1236 1.359 . S
C1237 C1238 1.380 . S
C1237 H1260 0.929 . S
C1238 C1237 1.380 . S
C1238 C1239 1.347 . S
C1238 H1261 0.931 . S
C1239 C1238 1.347 . S
C1239 C1240 1.369 . S
C1240 C1239 1.369 . S
C1240 C1241 1.408 . S
C1240 H1262 0.930 . S
C1241 C1236 1.348 . S
C1241 C1240 1.408 . S
C1241 H1263 0.930 . S
C1242 O1252 1.281 . S
C1242 O1253 1.254 . S
C1243 O1254 1.236 . S
C1243 O1255 1.266 . S
O1244 Tb1224 2.484 . S
O1244 C1226 1.248 . S
O1245 Tb1224 2.440 . S
O1245 C1226 1.266 . S
O1246 Tb1224 2.658 . S
O1246 Tb1225 2.325 . S
O1246 C1233 1.281 . S
O1247 Tb1224 2.409 . S
O1247 C1233 1.254 . S
O1248 Tb1224 2.378 . S
O1248 C1234 1.236 . S
O1249 Tb1225 2.341 . S
O1249 C1234 1.266 . S
O1250 Tb1225 2.484 . S
O1250 C1235 1.248 . S
O1251 Tb1225 2.440 . S
O1251 C1235 1.266 . S
O1252 Tb1224 2.325 . S
O1252 Tb1225 2.658 . S
O1252 C1242 1.281 . S
O1253 Tb1225 2.409 . S
O1253 C1242 1.254 . S
O1254 Tb1225 2.378 . S
O1254 C1243 1.236 . S
O1255 Tb1224 2.341 . S
O1255 C1243 1.266 . S
H1256 C1228 0.929 . S
H1257 C1229 0.931 . S
H1258 C1231 0.930 . S
H1259 C1232 0.930 . S
H1260 C1237 0.929 . S
H1261 C1238 0.931 . S
H1262 C1240 0.930 . S
H1263 C1241 0.930 . S
Tb1264 C1266 2.809 1_455 S
Tb1264 O1284 2.484 1_455 S
Tb1264 O1285 2.440 1_455 S
Tb1264 O1286 2.658 . S
Tb1264 O1287 2.409 . S
Tb1264 O1288 2.378 . S
Tb1264 O1292 2.325 . S
Tb1264 O1295 2.341 . S
Tb1265 C1275 2.809 . S
Tb1265 O1286 2.325 . S
Tb1265 O1289 2.341 . S
Tb1265 O1290 2.484 . S
Tb1265 O1291 2.440 . S
Tb1265 O1292 2.658 . S
Tb1265 O1293 2.409 . S
Tb1265 O1294 2.378 . S
C1266 Tb1264 2.809 1_655 S
C1266 C1267 1.514 . S
C1266 O1284 1.248 . S
C1266 O1285 1.266 . S
C1267 C1266 1.514 . S
C1267 C1268 1.359 . S
C1267 C1272 1.348 . S
C1268 C1267 1.359 . S
C1268 C1269 1.380 . S
C1268 H1296 0.929 . S
C1269 C1268 1.380 . S
C1269 C1270 1.347 . S
C1269 H1297 0.931 . S
C1270 C1269 1.347 . S
C1270 C1271 1.369 . S
C1271 C1270 1.369 . S
C1271 C1272 1.408 . S
C1271 H1298 0.930 . S
C1272 C1267 1.348 . S
C1272 C1271 1.408 . S
C1272 H1299 0.930 . S
C1273 O1286 1.281 . S
C1273 O1287 1.254 . S
C1274 O1288 1.236 . S
C1274 O1289 1.266 . S
C1275 Tb1265 2.809 . S
C1275 C1276 1.514 . S
C1275 O1290 1.248 . S
C1275 O1291 1.266 . S
C1276 C1275 1.514 . S
C1276 C1277 1.359 . S
C1276 C1281 1.348 . S
C1277 C1276 1.359 . S
C1277 C1278 1.380 . S
C1277 H1300 0.929 . S
C1278 C1277 1.380 . S
C1278 C1279 1.347 . S
C1278 H1301 0.931 . S
C1279 C1278 1.347 . S
C1279 C1280 1.369 . S
C1280 C1279 1.369 . S
C1280 C1281 1.408 . S
C1280 H1302 0.930 . S
C1281 C1276 1.348 . S
C1281 C1280 1.408 . S
C1281 H1303 0.930 . S
C1282 O1292 1.281 . S
C1282 O1293 1.254 . S
C1283 O1294 1.236 . S
C1283 O1295 1.266 . S
O1284 Tb1264 2.484 1_655 S
O1284 C1266 1.248 . S
O1285 Tb1264 2.440 1_655 S
O1285 C1266 1.266 . S
O1286 Tb1264 2.658 . S
O1286 Tb1265 2.325 . S
O1286 C1273 1.281 . S
O1287 Tb1264 2.409 . S
O1287 C1273 1.254 . S
O1288 Tb1264 2.378 . S
O1288 C1274 1.236 . S
O1289 Tb1265 2.341 . S
O1289 C1274 1.266 . S
O1290 Tb1265 2.484 . S
O1290 C1275 1.248 . S
O1291 Tb1265 2.440 . S
O1291 C1275 1.266 . S
O1292 Tb1264 2.325 . S
O1292 Tb1265 2.658 . S
O1292 C1282 1.281 . S
O1293 Tb1265 2.409 . S
O1293 C1282 1.254 . S
O1294 Tb1265 2.378 . S
O1294 C1283 1.236 . S
O1295 Tb1264 2.341 . S
O1295 C1283 1.266 . S
H1296 C1268 0.929 . S
H1297 C1269 0.931 . S
H1298 C1271 0.930 . S
H1299 C1272 0.930 . S
H1300 C1277 0.929 . S
H1301 C1278 0.931 . S
H1302 C1280 0.930 . S
H1303 C1281 0.930 . S
Tb1304 C1306 2.809 . S
Tb1304 O1324 2.484 . S
Tb1304 O1325 2.440 . S
Tb1304 O1326 2.658 . S
Tb1304 O1327 2.409 . S
Tb1304 O1328 2.378 . S
Tb1304 O1332 2.325 . S
Tb1304 O1335 2.341 . S
Tb1305 C1315 2.809 . S
Tb1305 O1326 2.325 . S
Tb1305 O1329 2.341 . S
Tb1305 O1330 2.484 . S
Tb1305 O1331 2.440 . S
Tb1305 O1332 2.658 . S
Tb1305 O1333 2.409 . S
Tb1305 O1334 2.378 . S
C1306 Tb1304 2.809 . S
C1306 C1307 1.514 . S
C1306 O1324 1.248 . S
C1306 O1325 1.266 . S
C1307 C1306 1.514 . S
C1307 C1308 1.359 . S
C1307 C1312 1.348 . S
C1308 C1307 1.359 . S
C1308 C1309 1.380 . S
C1308 H1336 0.929 . S
C1309 C1308 1.380 . S
C1309 C1310 1.347 . S
C1309 H1337 0.931 . S
C1310 C1309 1.347 . S
C1310 C1311 1.369 . S
C1311 C1310 1.369 . S
C1311 C1312 1.408 . S
C1311 H1338 0.930 . S
C1312 C1307 1.348 . S
C1312 C1311 1.408 . S
C1312 H1339 0.930 . S
C1313 O1326 1.281 . S
C1313 O1327 1.254 . S
C1314 O1328 1.236 . S
C1314 O1329 1.266 . S
C1315 Tb1305 2.809 . S
C1315 C1316 1.514 . S
C1315 O1330 1.248 . S
C1315 O1331 1.266 . S
C1316 C1315 1.514 . S
C1316 C1317 1.359 . S
C1316 C1321 1.348 . S
C1317 C1316 1.359 . S
C1317 C1318 1.380 . S
C1317 H1340 0.929 . S
C1318 C1317 1.380 . S
C1318 C1319 1.347 . S
C1318 H1341 0.931 . S
C1319 C1318 1.347 . S
C1319 C1320 1.369 . S
C1320 C1319 1.369 . S
C1320 C1321 1.408 . S
C1320 H1342 0.930 . S
C1321 C1316 1.348 . S
C1321 C1320 1.408 . S
C1321 H1343 0.930 . S
C1322 O1332 1.281 . S
C1322 O1333 1.254 . S
C1323 O1334 1.236 . S
C1323 O1335 1.266 . S
O1324 Tb1304 2.484 . S
O1324 C1306 1.248 . S
O1325 Tb1304 2.440 . S
O1325 C1306 1.266 . S
O1326 Tb1304 2.658 . S
O1326 Tb1305 2.325 . S
O1326 C1313 1.281 . S
O1327 Tb1304 2.409 . S
O1327 C1313 1.254 . S
O1328 Tb1304 2.378 . S
O1328 C1314 1.236 . S
O1329 Tb1305 2.341 . S
O1329 C1314 1.266 . S
O1330 Tb1305 2.484 . S
O1330 C1315 1.248 . S
O1331 Tb1305 2.440 . S
O1331 C1315 1.266 . S
O1332 Tb1304 2.325 . S
O1332 Tb1305 2.658 . S
O1332 C1322 1.281 . S
O1333 Tb1305 2.409 . S
O1333 C1322 1.254 . S
O1334 Tb1305 2.378 . S
O1334 C1323 1.236 . S
O1335 Tb1304 2.341 . S
O1335 C1323 1.266 . S
H1336 C1308 0.929 . S
H1337 C1309 0.931 . S
H1338 C1311 0.930 . S
H1339 C1312 0.930 . S
H1340 C1317 0.929 . S
H1341 C1318 0.931 . S
H1342 C1320 0.930 . S
H1343 C1321 0.930 . S
Tb1344 C1346 2.809 . S
Tb1344 O1364 2.484 . S
Tb1344 O1365 2.440 . S
Tb1344 O1366 2.658 . S
Tb1344 O1367 2.409 . S
Tb1344 O1368 2.378 . S
Tb1344 O1372 2.325 . S
Tb1344 O1375 2.341 . S
Tb1345 C1355 2.809 . S
Tb1345 O1366 2.325 . S
Tb1345 O1369 2.341 . S
Tb1345 O1370 2.484 . S
Tb1345 O1371 2.440 . S
Tb1345 O1372 2.658 . S
Tb1345 O1373 2.409 . S
Tb1345 O1374 2.378 . S
C1346 Tb1344 2.809 . S
C1346 C1347 1.514 . S
C1346 O1364 1.248 . S
C1346 O1365 1.266 . S
C1347 C1346 1.514 . S
C1347 C1348 1.359 . S
C1347 C1352 1.348 . S
C1348 C1347 1.359 . S
C1348 C1349 1.380 . S
C1348 H1376 0.929 . S
C1349 C1348 1.380 . S
C1349 C1350 1.347 . S
C1349 H1377 0.931 . S
C1350 C1349 1.347 . S
C1350 C1351 1.369 . S
C1351 C1350 1.369 . S
C1351 C1352 1.408 . S
C1351 H1378 0.930 . S
C1352 C1347 1.348 . S
C1352 C1351 1.408 . S
C1352 H1379 0.930 . S
C1353 O1366 1.281 . S
C1353 O1367 1.254 . S
C1354 O1368 1.236 . S
C1354 O1369 1.266 . S
C1355 Tb1345 2.809 . S
C1355 C1356 1.514 . S
C1355 O1370 1.248 . S
C1355 O1371 1.266 . S
C1356 C1355 1.514 . S
C1356 C1357 1.359 . S
C1356 C1361 1.348 . S
C1357 C1356 1.359 . S
C1357 C1358 1.380 . S
C1357 H1380 0.929 . S
C1358 C1357 1.380 . S
C1358 C1359 1.347 . S
C1358 H1381 0.931 . S
C1359 C1358 1.347 . S
C1359 C1360 1.369 . S
C1360 C1359 1.369 . S
C1360 C1361 1.408 . S
C1360 H1382 0.930 . S
C1361 C1356 1.348 . S
C1361 C1360 1.408 . S
C1361 H1383 0.930 . S
C1362 O1372 1.281 . S
C1362 O1373 1.254 . S
C1363 O1374 1.236 . S
C1363 O1375 1.266 . S
O1364 Tb1344 2.484 . S
O1364 C1346 1.248 . S
O1365 Tb1344 2.440 . S
O1365 C1346 1.266 . S
O1366 Tb1344 2.658 . S
O1366 Tb1345 2.325 . S
O1366 C1353 1.281 . S
O1367 Tb1344 2.409 . S
O1367 C1353 1.254 . S
O1368 Tb1344 2.378 . S
O1368 C1354 1.236 . S
O1369 Tb1345 2.341 . S
O1369 C1354 1.266 . S
O1370 Tb1345 2.484 . S
O1370 C1355 1.248 . S
O1371 Tb1345 2.440 . S
O1371 C1355 1.266 . S
O1372 Tb1344 2.325 . S
O1372 Tb1345 2.658 . S
O1372 C1362 1.281 . S
O1373 Tb1345 2.409 . S
O1373 C1362 1.254 . S
O1374 Tb1345 2.378 . S
O1374 C1363 1.236 . S
O1375 Tb1344 2.341 . S
O1375 C1363 1.266 . S
H1376 C1348 0.929 . S
H1377 C1349 0.931 . S
H1378 C1351 0.930 . S
H1379 C1352 0.930 . S
H1380 C1357 0.929 . S
H1381 C1358 0.931 . S
H1382 C1360 0.930 . S
H1383 C1361 0.930 . S
Tb1384 C1386 2.809 . S
Tb1384 O1404 2.484 . S
Tb1384 O1405 2.440 . S
Tb1384 O1406 2.658 . S
Tb1384 O1407 2.409 . S
Tb1384 O1408 2.378 . S
Tb1384 O1412 2.325 . S
Tb1384 O1415 2.341 . S
Tb1385 C1395 2.809 . S
Tb1385 O1406 2.325 . S
Tb1385 O1409 2.341 . S
Tb1385 O1410 2.484 . S
Tb1385 O1411 2.440 . S
Tb1385 O1412 2.658 . S
Tb1385 O1413 2.409 . S
Tb1385 O1414 2.378 . S
C1386 Tb1384 2.809 . S
C1386 C1387 1.514 . S
C1386 O1404 1.248 . S
C1386 O1405 1.266 . S
C1387 C1386 1.514 . S
C1387 C1388 1.359 . S
C1387 C1392 1.348 . S
C1388 C1387 1.359 . S
C1388 C1389 1.380 . S
C1388 H1416 0.929 . S
C1389 C1388 1.380 . S
C1389 C1390 1.347 . S
C1389 H1417 0.931 . S
C1390 C1389 1.347 . S
C1390 C1391 1.369 . S
C1391 C1390 1.369 . S
C1391 C1392 1.408 . S
C1391 H1418 0.930 . S
C1392 C1387 1.348 . S
C1392 C1391 1.408 . S
C1392 H1419 0.930 . S
C1393 O1406 1.281 . S
C1393 O1407 1.254 . S
C1394 O1408 1.236 . S
C1394 O1409 1.266 . S
C1395 Tb1385 2.809 . S
C1395 C1396 1.514 . S
C1395 O1410 1.248 . S
C1395 O1411 1.266 . S
C1396 C1395 1.514 . S
C1396 C1397 1.359 . S
C1396 C1401 1.348 . S
C1397 C1396 1.359 . S
C1397 C1398 1.380 . S
C1397 H1420 0.929 . S
C1398 C1397 1.380 . S
C1398 C1399 1.347 . S
C1398 H1421 0.931 . S
C1399 C1398 1.347 . S
C1399 C1400 1.369 . S
C1400 C1399 1.369 . S
C1400 C1401 1.408 . S
C1400 H1422 0.930 . S
C1401 C1396 1.348 . S
C1401 C1400 1.408 . S
C1401 H1423 0.930 . S
C1402 O1412 1.281 . S
C1402 O1413 1.254 . S
C1403 O1414 1.236 . S
C1403 O1415 1.266 . S
O1404 Tb1384 2.484 . S
O1404 C1386 1.248 . S
O1405 Tb1384 2.440 . S
O1405 C1386 1.266 . S
O1406 Tb1384 2.658 . S
O1406 Tb1385 2.325 . S
O1406 C1393 1.281 . S
O1407 Tb1384 2.409 . S
O1407 C1393 1.254 . S
O1408 Tb1384 2.378 . S
O1408 C1394 1.236 . S
O1409 Tb1385 2.341 . S
O1409 C1394 1.266 . S
O1410 Tb1385 2.484 . S
O1410 C1395 1.248 . S
O1411 Tb1385 2.440 . S
O1411 C1395 1.266 . S
O1412 Tb1384 2.325 . S
O1412 Tb1385 2.658 . S
O1412 C1402 1.281 . S
O1413 Tb1385 2.409 . S
O1413 C1402 1.254 . S
O1414 Tb1385 2.378 . S
O1414 C1403 1.236 . S
O1415 Tb1384 2.341 . S
O1415 C1403 1.266 . S
H1416 C1388 0.929 . S
H1417 C1389 0.931 . S
H1418 C1391 0.930 . S
H1419 C1392 0.930 . S
H1420 C1397 0.929 . S
H1421 C1398 0.931 . S
H1422 C1400 0.930 . S
H1423 C1401 0.930 . S
Tb1424 C1426 2.809 . S
Tb1424 O1444 2.484 . S
Tb1424 O1445 2.440 . S
Tb1424 O1446 2.658 . S
Tb1424 O1447 2.409 . S
Tb1424 O1448 2.378 . S
Tb1424 O1452 2.325 . S
Tb1424 O1455 2.341 . S
Tb1425 C1435 2.809 . S
Tb1425 O1446 2.325 . S
Tb1425 O1449 2.341 . S
Tb1425 O1450 2.484 . S
Tb1425 O1451 2.440 . S
Tb1425 O1452 2.658 . S
Tb1425 O1453 2.409 . S
Tb1425 O1454 2.378 . S
C1426 Tb1424 2.809 . S
C1426 C1427 1.514 . S
C1426 O1444 1.248 . S
C1426 O1445 1.266 . S
C1427 C1426 1.514 . S
C1427 C1428 1.359 . S
C1427 C1432 1.348 . S
C1428 C1427 1.359 . S
C1428 C1429 1.380 . S
C1428 H1456 0.929 . S
C1429 C1428 1.380 . S
C1429 C1430 1.347 . S
C1429 H1457 0.931 . S
C1430 C1429 1.347 . S
C1430 C1431 1.369 . S
C1431 C1430 1.369 . S
C1431 C1432 1.408 . S
C1431 H1458 0.930 . S
C1432 C1427 1.348 . S
C1432 C1431 1.408 . S
C1432 H1459 0.930 . S
C1433 O1446 1.281 . S
C1433 O1447 1.254 . S
C1434 O1448 1.236 . S
C1434 O1449 1.266 . S
C1435 Tb1425 2.809 . S
C1435 C1436 1.514 . S
C1435 O1450 1.248 . S
C1435 O1451 1.266 . S
C1436 C1435 1.514 . S
C1436 C1437 1.359 . S
C1436 C1441 1.348 . S
C1437 C1436 1.359 . S
C1437 C1438 1.380 . S
C1437 H1460 0.929 . S
C1438 C1437 1.380 . S
C1438 C1439 1.347 . S
C1438 H1461 0.931 . S
C1439 C1438 1.347 . S
C1439 C1440 1.369 . S
C1440 C1439 1.369 . S
C1440 C1441 1.408 . S
C1440 H1462 0.930 . S
C1441 C1436 1.348 . S
C1441 C1440 1.408 . S
C1441 H1463 0.930 . S
C1442 O1452 1.281 . S
C1442 O1453 1.254 . S
C1443 O1454 1.236 . S
C1443 O1455 1.266 . S
O1444 Tb1424 2.484 . S
O1444 C1426 1.248 . S
O1445 Tb1424 2.440 . S
O1445 C1426 1.266 . S
O1446 Tb1424 2.658 . S
O1446 Tb1425 2.325 . S
O1446 C1433 1.281 . S
O1447 Tb1424 2.409 . S
O1447 C1433 1.254 . S
O1448 Tb1424 2.378 . S
O1448 C1434 1.236 . S
O1449 Tb1425 2.341 . S
O1449 C1434 1.266 . S
O1450 Tb1425 2.484 . S
O1450 C1435 1.248 . S
O1451 Tb1425 2.440 . S
O1451 C1435 1.266 . S
O1452 Tb1424 2.325 . S
O1452 Tb1425 2.658 . S
O1452 C1442 1.281 . S
O1453 Tb1425 2.409 . S
O1453 C1442 1.254 . S
O1454 Tb1425 2.378 . S
O1454 C1443 1.236 . S
O1455 Tb1424 2.341 . S
O1455 C1443 1.266 . S
H1456 C1428 0.929 . S
H1457 C1429 0.931 . S
H1458 C1431 0.930 . S
H1459 C1432 0.930 . S
H1460 C1437 0.929 . S
H1461 C1438 0.931 . S
H1462 C1440 0.930 . S
H1463 C1441 0.930 . S
Tb1464 C1466 2.809 . S
Tb1464 O1484 2.484 . S
Tb1464 O1485 2.440 . S
Tb1464 O1486 2.658 . S
Tb1464 O1487 2.409 1_554 S
Tb1464 O1488 2.378 . S
Tb1464 O1492 2.325 . S
Tb1464 O1495 2.341 . S
Tb1465 C1475 2.809 1_455 S
Tb1465 O1486 2.325 . S
Tb1465 O1489 2.341 . S
Tb1465 O1490 2.484 1_455 S
Tb1465 O1491 2.440 1_455 S
Tb1465 O1492 2.658 . S
Tb1465 O1493 2.409 . S
Tb1465 O1494 2.378 . S
C1466 Tb1464 2.809 . S
C1466 C1467 1.514 . S
C1466 O1484 1.248 . S
C1466 O1485 1.266 . S
C1467 C1466 1.514 . S
C1467 C1468 1.359 . S
C1467 C1472 1.367 . S
C1468 C1467 1.359 . S
C1468 C1469 1.380 . S
C1468 H1496 0.929 . S
C1469 C1468 1.380 . S
C1469 C1470 1.347 . S
C1469 H1497 0.931 . S
C1470 C1469 1.347 . S
C1470 C1471 1.369 1_554 S
C1471 C1470 1.369 1_556 S
C1471 C1472 1.405 1_556 S
C1471 H1498 0.930 . S
C1472 C1467 1.367 . S
C1472 C1471 1.405 1_554 S
C1472 H1499 0.915 1_554 S
C1473 O1486 1.281 1_556 S
C1473 O1487 1.254 . S
C1474 O1488 1.236 . S
C1474 O1489 1.266 . S
C1475 Tb1465 2.809 1_655 S
C1475 C1476 1.514 . S
C1475 O1490 1.248 . S
C1475 O1491 1.266 . S
C1476 C1475 1.514 . S
C1476 C1477 1.359 . S
C1476 C1481 1.348 . S
C1477 C1476 1.359 . S
C1477 C1478 1.380 . S
C1477 H1500 0.929 . S
C1478 C1477 1.380 . S
C1478 C1479 1.347 . S
C1478 H1501 0.931 . S
C1479 C1478 1.347 . S
C1479 C1480 1.369 . S
C1480 C1479 1.369 . S
C1480 C1481 1.408 . S
C1480 H1502 0.930 . S
C1481 C1476 1.348 . S
C1481 C1480 1.408 . S
C1481 H1503 0.930 . S
C1482 O1492 1.281 . S
C1482 O1493 1.254 . S
C1483 O1494 1.236 . S
C1483 O1495 1.266 . S
O1484 Tb1464 2.484 . S
O1484 C1466 1.248 . S
O1485 Tb1464 2.440 . S
O1485 C1466 1.266 . S
O1486 Tb1464 2.658 . S
O1486 Tb1465 2.325 . S
O1486 C1473 1.281 1_554 S
O1487 Tb1464 2.409 1_556 S
O1487 C1473 1.254 . S
O1488 Tb1464 2.378 . S
O1488 C1474 1.236 . S
O1489 Tb1465 2.341 . S
O1489 C1474 1.266 . S
O1490 Tb1465 2.484 1_655 S
O1490 C1475 1.248 . S
O1491 Tb1465 2.440 1_655 S
O1491 C1475 1.266 . S
O1492 Tb1464 2.325 . S
O1492 Tb1465 2.658 . S
O1492 C1482 1.281 . S
O1493 Tb1465 2.409 . S
O1493 C1482 1.254 . S
O1494 Tb1465 2.378 . S
O1494 C1483 1.236 . S
O1495 Tb1464 2.341 . S
O1495 C1483 1.266 . S
H1496 C1468 0.929 . S
H1497 C1469 0.931 . S
H1498 C1471 0.930 . S
H1499 C1472 0.915 1_556 S
H1500 C1477 0.929 . S
H1501 C1478 0.931 . S
H1502 C1480 0.930 . S
H1503 C1481 0.930 . S
H1504 C1512 0.950 . S
H1505 C1517 0.950 . S
H1506 C1514 0.950 . S
H1507 C1516 0.950 . S
H1508 C1518 0.950 1_655 S
H1509 C1520 0.950 1_655 S
H1510 C1522 0.950 . S
H1511 C1523 0.950 . S
C1512 H1504 0.950 . S
C1512 C1513 1.386 . S
C1512 C1514 1.391 . S
C1513 C1512 1.386 . S
C1513 C1517 1.393 1_455 S
C1514 H1506 0.950 . S
C1514 C1512 1.391 . S
C1514 C1515 1.400 . S
C1515 C1514 1.400 . S
C1515 C1516 1.398 1_455 S
C1515 C1521 1.491 1_556 S
C1516 H1507 0.950 . S
C1516 C1515 1.398 1_655 S
C1516 C1517 1.391 . S
C1517 H1505 0.950 . S
C1517 C1513 1.393 1_655 S
C1517 C1516 1.391 . S
C1518 H1508 0.950 1_455 S
C1518 C1519 1.386 . S
C1518 C1520 1.391 . S
C1519 C1518 1.386 . S
C1519 C1523 1.393 . S
C1520 H1509 0.950 1_455 S
C1520 C1518 1.391 . S
C1520 C1521 1.400 . S
C1521 C1515 1.491 1_554 S
C1521 C1520 1.400 . S
C1521 C1522 1.398 . S
C1522 H1510 0.950 . S
C1522 C1521 1.398 . S
C1522 C1523 1.391 . S
C1523 H1511 0.950 . S
C1523 C1519 1.393 . S
C1523 C1522 1.391 . S
H1524 C1532 0.950 . S
H1525 C1537 0.950 . S
H1526 C1534 0.950 . S
H1527 C1536 0.950 . S
H1528 C1538 0.950 . S
H1529 C1540 0.950 . S
H1530 C1542 0.950 . S
H1531 C1543 0.950 . S
C1532 H1524 0.950 . S
C1532 C1533 1.386 . S
C1532 C1534 1.391 . S
C1533 C1532 1.386 . S
C1533 C1537 1.393 . S
C1534 H1526 0.950 . S
C1534 C1532 1.391 . S
C1534 C1535 1.400 . S
C1535 C1534 1.400 . S
C1535 C1536 1.398 . S
C1535 C1541 1.491 . S
C1536 H1527 0.950 . S
C1536 C1535 1.398 . S
C1536 C1537 1.391 . S
C1537 H1525 0.950 . S
C1537 C1533 1.393 . S
C1537 C1536 1.391 . S
C1538 H1528 0.950 . S
C1538 C1539 1.386 . S
C1538 C1540 1.391 . S
C1539 C1538 1.386 . S
C1539 C1543 1.393 . S
C1540 H1529 0.950 . S
C1540 C1538 1.391 . S
C1540 C1541 1.400 . S
C1541 C1535 1.491 . S
C1541 C1540 1.400 . S
C1541 C1542 1.398 . S
C1542 H1530 0.950 . S
C1542 C1541 1.398 . S
C1542 C1543 1.391 . S
C1543 H1531 0.950 . S
C1543 C1539 1.393 . S
C1543 C1542 1.391 . S
H1544 C1552 0.950 . S
H1545 C1557 0.950 . S
H1546 C1554 0.950 . S
H1547 C1556 0.950 . S
H1548 C1558 0.950 . S
H1549 C1560 0.950 . S
H1550 C1562 0.950 . S
H1551 C1563 0.950 . S
C1552 H1544 0.950 . S
C1552 C1553 1.386 . S
C1552 C1554 1.391 . S
C1553 C1552 1.386 . S
C1553 C1557 1.393 . S
C1554 H1546 0.950 . S
C1554 C1552 1.391 . S
C1554 C1555 1.400 . S
C1555 C1554 1.400 . S
C1555 C1556 1.398 . S
C1555 C1561 1.491 . S
C1556 H1547 0.950 . S
C1556 C1555 1.398 . S
C1556 C1557 1.391 . S
C1557 H1545 0.950 . S
C1557 C1553 1.393 . S
C1557 C1556 1.391 . S
C1558 H1548 0.950 . S
C1558 C1559 1.386 . S
C1558 C1560 1.391 . S
C1559 C1558 1.386 . S
C1559 C1563 1.393 . S
C1560 H1549 0.950 . S
C1560 C1558 1.391 . S
C1560 C1561 1.400 . S
C1561 C1555 1.491 . S
C1561 C1560 1.400 . S
C1561 C1562 1.398 . S
C1562 H1550 0.950 . S
C1562 C1561 1.398 . S
C1562 C1563 1.391 . S
C1563 H1551 0.950 . S
C1563 C1559 1.393 . S
C1563 C1562 1.391 . S
H1564 C1572 0.950 . S
H1565 C1577 0.950 . S
H1566 C1574 0.950 . S
H1567 C1576 0.950 . S
H1568 C1578 0.950 . S
H1569 C1580 0.950 . S
H1570 C1582 0.950 . S
H1571 C1583 0.950 . S
C1572 H1564 0.950 . S
C1572 C1573 1.386 . S
C1572 C1574 1.391 . S
C1573 C1572 1.386 . S
C1573 C1577 1.393 . S
C1574 H1566 0.950 . S
C1574 C1572 1.391 . S
C1574 C1575 1.400 . S
C1575 C1574 1.400 . S
C1575 C1576 1.398 . S
C1575 C1581 1.491 . S
C1576 H1567 0.950 . S
C1576 C1575 1.398 . S
C1576 C1577 1.391 . S
C1577 H1565 0.950 . S
C1577 C1573 1.393 . S
C1577 C1576 1.391 . S
C1578 H1568 0.950 . S
C1578 C1579 1.386 . S
C1578 C1580 1.391 . S
C1579 C1578 1.386 . S
C1579 C1583 1.393 . S
C1580 H1569 0.950 . S
C1580 C1578 1.391 . S
C1580 C1581 1.400 . S
C1581 C1575 1.491 . S
C1581 C1580 1.400 . S
C1581 C1582 1.398 . S
C1582 H1570 0.950 . S
C1582 C1581 1.398 . S
C1582 C1583 1.391 . S
C1583 H1571 0.950 . S
C1583 C1579 1.393 . S
C1583 C1582 1.391 . S
H1584 C1592 0.950 . S
H1585 C1597 0.950 . S
H1586 C1594 0.950 . S
H1587 C1596 0.950 . S
H1588 C1598 0.950 . S
H1589 C1600 0.950 . S
H1590 C1602 0.950 . S
H1591 C1603 0.950 . S
C1592 H1584 0.950 . S
C1592 C1593 1.386 . S
C1592 C1594 1.391 . S
C1593 C1592 1.386 . S
C1593 C1597 1.393 . S
C1594 H1586 0.950 . S
C1594 C1592 1.391 . S
C1594 C1595 1.400 . S
C1595 C1594 1.400 . S
C1595 C1596 1.398 . S
C1595 C1601 1.491 . S
C1596 H1587 0.950 . S
C1596 C1595 1.398 . S
C1596 C1597 1.391 . S
C1597 H1585 0.950 . S
C1597 C1593 1.393 . S
C1597 C1596 1.391 . S
C1598 H1588 0.950 . S
C1598 C1599 1.386 . S
C1598 C1600 1.391 . S
C1599 C1598 1.386 . S
C1599 C1603 1.393 . S
C1600 H1589 0.950 . S
C1600 C1598 1.391 . S
C1600 C1601 1.400 . S
C1601 C1595 1.491 . S
C1601 C1600 1.400 . S
C1601 C1602 1.398 . S
C1602 H1590 0.950 . S
C1602 C1601 1.398 . S
C1602 C1603 1.391 . S
C1603 H1591 0.950 . S
C1603 C1599 1.393 . S
C1603 C1602 1.391 . S
H1604 C1612 0.950 . S
H1605 C1617 0.950 . S
H1606 C1614 0.950 . S
H1607 C1616 0.950 . S
H1608 C1618 0.950 . S
H1609 C1620 0.950 . S
H1610 C1622 0.950 . S
H1611 C1623 0.950 . S
C1612 H1604 0.950 . S
C1612 C1613 1.386 . S
C1612 C1614 1.391 . S
C1613 C1612 1.386 . S
C1613 C1617 1.393 . S
C1614 H1606 0.950 . S
C1614 C1612 1.391 . S
C1614 C1615 1.400 . S
C1615 C1614 1.400 . S
C1615 C1616 1.398 . S
C1615 C1621 1.491 . S
C1616 H1607 0.950 . S
C1616 C1615 1.398 . S
C1616 C1617 1.391 . S
C1617 H1605 0.950 . S
C1617 C1613 1.393 . S
C1617 C1616 1.391 . S
C1618 H1608 0.950 . S
C1618 C1619 1.386 . S
C1618 C1620 1.391 . S
C1619 C1618 1.386 . S
C1619 C1623 1.393 . S
C1620 H1609 0.950 . S
C1620 C1618 1.391 . S
C1620 C1621 1.400 . S
C1621 C1615 1.491 . S
C1621 C1620 1.400 . S
C1621 C1622 1.398 . S
C1622 H1610 0.950 . S
C1622 C1621 1.398 . S
C1622 C1623 1.391 . S
C1623 H1611 0.950 . S
C1623 C1619 1.393 . S
C1623 C1622 1.391 . S
H1624 C1632 0.950 . S
H1625 C1637 0.950 . S
H1626 C1634 0.950 . S
H1627 C1636 0.950 . S
H1628 C1638 0.950 . S
H1629 C1640 0.950 . S
H1630 C1642 0.950 . S
H1631 C1643 0.950 . S
C1632 H1624 0.950 . S
C1632 C1633 1.386 . S
C1632 C1634 1.391 . S
C1633 C1632 1.386 . S
C1633 C1637 1.393 . S
C1634 H1626 0.950 . S
C1634 C1632 1.391 . S
C1634 C1635 1.400 . S
C1635 C1634 1.400 . S
C1635 C1636 1.398 . S
C1635 C1641 1.491 . S
C1636 H1627 0.950 . S
C1636 C1635 1.398 . S
C1636 C1637 1.391 . S
C1637 H1625 0.950 . S
C1637 C1633 1.393 . S
C1637 C1636 1.391 . S
C1638 H1628 0.950 . S
C1638 C1639 1.386 . S
C1638 C1640 1.391 . S
C1639 C1638 1.386 . S
C1639 C1643 1.393 . S
C1640 H1629 0.950 . S
C1640 C1638 1.391 . S
C1640 C1641 1.400 . S
C1641 C1635 1.491 . S
C1641 C1640 1.400 . S
C1641 C1642 1.398 . S
C1642 H1630 0.950 . S
C1642 C1641 1.398 . S
C1642 C1643 1.391 . S
C1643 H1631 0.950 . S
C1643 C1639 1.393 . S
C1643 C1642 1.391 . S
H1644 C1652 0.950 . S
H1645 C1657 0.950 . S
H1646 C1654 0.950 . S
H1647 C1656 0.950 . S
H1648 C1658 0.950 . S
H1649 C1660 0.950 . S
H1650 C1662 0.950 . S
H1651 C1663 0.950 . S
C1652 H1644 0.950 . S
C1652 C1653 1.386 . S
C1652 C1654 1.391 . S
C1653 C1652 1.386 . S
C1653 C1657 1.393 . S
C1654 H1646 0.950 . S
C1654 C1652 1.391 . S
C1654 C1655 1.400 . S
C1655 C1654 1.400 . S
C1655 C1656 1.398 . S
C1655 C1661 1.491 . S
C1656 H1647 0.950 . S
C1656 C1655 1.398 . S
C1656 C1657 1.391 . S
C1657 H1645 0.950 . S
C1657 C1653 1.393 . S
C1657 C1656 1.391 . S
C1658 H1648 0.950 . S
C1658 C1659 1.386 . S
C1658 C1660 1.391 . S
C1659 C1658 1.386 . S
C1659 C1663 1.393 . S
C1660 H1649 0.950 . S
C1660 C1658 1.391 . S
C1660 C1661 1.400 . S
C1661 C1655 1.491 . S
C1661 C1660 1.400 . S
C1661 C1662 1.398 . S
C1662 H1650 0.950 . S
C1662 C1661 1.398 . S
C1662 C1663 1.391 . S
C1663 H1651 0.950 . S
C1663 C1659 1.393 . S
C1663 C1662 1.391 . S
H1664 C1672 0.950 . S
H1665 C1677 0.950 . S
H1666 C1674 0.950 1_455 S
H1667 C1676 0.950 . S
H1668 C1678 0.950 . S
H1669 C1680 0.950 . S
H1670 C1682 0.950 1_565 S
H1671 C1683 0.950 . S
C1672 H1664 0.950 . S
C1672 C1673 1.399 . S
C1672 C1674 1.391 . S
C1673 C1672 1.399 . S
C1673 C1677 1.376 1_565 S
C1674 H1666 0.950 1_655 S
C1674 C1672 1.391 . S
C1674 C1675 1.400 1_565 S
C1675 C1674 1.400 1_545 S
C1675 C1676 1.398 . S
C1675 C1681 1.491 . S
C1676 H1667 0.950 . S
C1676 C1675 1.398 . S
C1676 C1677 1.391 . S
C1677 H1665 0.950 . S
C1677 C1673 1.376 1_545 S
C1677 C1676 1.391 . S
C1678 H1668 0.950 . S
C1678 C1679 1.386 1_655 S
C1678 C1680 1.391 . S
C1679 C1678 1.386 1_455 S
C1679 C1683 1.393 . S
C1680 H1669 0.950 . S
C1680 C1678 1.391 . S
C1680 C1681 1.400 . S
C1681 C1675 1.491 . S
C1681 C1680 1.400 . S
C1681 C1682 1.398 1_655 S
C1682 H1670 0.950 1_545 S
C1682 C1681 1.398 1_455 S
C1682 C1683 1.391 . S
C1683 H1671 0.950 . S
C1683 C1679 1.393 . S
C1683 C1682 1.391 . S
H1684 C1692 0.950 . S
H1685 C1697 0.950 . S
H1686 C1694 0.950 . S
H1687 C1696 0.950 . S
H1688 C1698 0.950 . S
H1689 C1700 0.950 . S
H1690 C1702 0.950 . S
H1691 C1703 0.950 . S
C1692 H1684 0.950 . S
C1692 C1693 1.386 . S
C1692 C1694 1.391 . S
C1693 C1692 1.386 . S
C1693 C1697 1.393 . S
C1694 H1686 0.950 . S
C1694 C1692 1.391 . S
C1694 C1695 1.400 . S
C1695 C1694 1.400 . S
C1695 C1696 1.398 . S
C1695 C1701 1.491 . S
C1696 H1687 0.950 . S
C1696 C1695 1.398 . S
C1696 C1697 1.391 . S
C1697 H1685 0.950 . S
C1697 C1693 1.393 . S
C1697 C1696 1.391 . S
C1698 H1688 0.950 . S
C1698 C1699 1.386 . S
C1698 C1700 1.391 . S
C1699 C1698 1.386 . S
C1699 C1703 1.393 . S
C1700 H1689 0.950 . S
C1700 C1698 1.391 . S
C1700 C1701 1.400 . S
C1701 C1695 1.491 . S
C1701 C1700 1.400 . S
C1701 C1702 1.398 . S
C1702 H1690 0.950 . S
C1702 C1701 1.398 . S
C1702 C1703 1.391 . S
C1703 H1691 0.950 . S
C1703 C1699 1.393 . S
C1703 C1702 1.391 . S
H1704 C1712 0.950 . S
H1705 C1717 0.950 . S
H1706 C1714 0.950 . S
H1707 C1716 0.950 . S
H1708 C1718 0.950 . S
H1709 C1720 0.950 . S
H1710 C1722 0.950 . S
H1711 C1723 0.950 . S
C1712 H1704 0.950 . S
C1712 C1713 1.386 . S
C1712 C1714 1.391 . S
C1713 C1712 1.386 . S
C1713 C1717 1.393 . S
C1714 H1706 0.950 . S
C1714 C1712 1.391 . S
C1714 C1715 1.400 . S
C1715 C1714 1.400 . S
C1715 C1716 1.398 . S
C1715 C1721 1.491 . S
C1716 H1707 0.950 . S
C1716 C1715 1.398 . S
C1716 C1717 1.391 . S
C1717 H1705 0.950 . S
C1717 C1713 1.393 . S
C1717 C1716 1.391 . S
C1718 H1708 0.950 . S
C1718 C1719 1.386 . S
C1718 C1720 1.391 . S
C1719 C1718 1.386 . S
C1719 C1723 1.393 . S
C1720 H1709 0.950 . S
C1720 C1718 1.391 . S
C1720 C1721 1.400 . S
C1721 C1715 1.491 . S
C1721 C1720 1.400 . S
C1721 C1722 1.398 . S
C1722 H1710 0.950 . S
C1722 C1721 1.398 . S
C1722 C1723 1.391 . S
C1723 H1711 0.950 . S
C1723 C1719 1.393 . S
C1723 C1722 1.391 . S
H1724 C1732 0.950 . S
H1725 C1737 0.950 . S
H1726 C1734 0.950 . S
H1727 C1736 0.950 . S
H1728 C1738 0.950 . S
H1729 C1740 0.950 . S
H1730 C1742 0.950 . S
H1731 C1743 0.950 . S
C1732 H1724 0.950 . S
C1732 C1733 1.386 . S
C1732 C1734 1.391 . S
C1733 C1732 1.386 . S
C1733 C1737 1.393 . S
C1734 H1726 0.950 . S
C1734 C1732 1.391 . S
C1734 C1735 1.400 . S
C1735 C1734 1.400 . S
C1735 C1736 1.398 . S
C1735 C1741 1.491 . S
C1736 H1727 0.950 . S
C1736 C1735 1.398 . S
C1736 C1737 1.391 . S
C1737 H1725 0.950 . S
C1737 C1733 1.393 . S
C1737 C1736 1.391 . S
C1738 H1728 0.950 . S
C1738 C1739 1.386 . S
C1738 C1740 1.391 . S
C1739 C1738 1.386 . S
C1739 C1743 1.393 . S
C1740 H1729 0.950 . S
C1740 C1738 1.391 . S
C1740 C1741 1.400 . S
C1741 C1735 1.491 . S
C1741 C1740 1.400 . S
C1741 C1742 1.398 . S
C1742 H1730 0.950 . S
C1742 C1741 1.398 . S
C1742 C1743 1.391 . S
C1743 H1731 0.950 . S
C1743 C1739 1.393 . S
C1743 C1742 1.391 . S
H1744 C1752 0.950 . S
H1745 C1757 0.950 . S
H1746 C1754 0.950 . S
H1747 C1756 0.950 . S
H1748 C1758 0.950 . S
H1749 C1760 0.950 . S
H1750 C1762 0.950 . S
H1751 C1763 0.950 . S
C1752 H1744 0.950 . S
C1752 C1753 1.386 . S
C1752 C1754 1.391 . S
C1753 C1752 1.386 . S
C1753 C1757 1.393 1_545 S
C1754 H1746 0.950 . S
C1754 C1752 1.391 . S
C1754 C1755 1.400 . S
C1755 C1754 1.400 . S
C1755 C1756 1.398 1_545 S
C1755 C1761 1.491 . S
C1756 H1747 0.950 . S
C1756 C1755 1.398 1_565 S
C1756 C1757 1.391 . S
C1757 H1745 0.950 . S
C1757 C1753 1.393 1_565 S
C1757 C1756 1.391 . S
C1758 H1748 0.950 . S
C1758 C1759 1.386 1_665 S
C1758 C1760 1.391 . S
C1759 C1758 1.386 1_445 S
C1759 C1763 1.393 . S
C1760 H1749 0.950 . S
C1760 C1758 1.391 . S
C1760 C1761 1.400 1_565 S
C1761 C1755 1.491 . S
C1761 C1760 1.400 1_545 S
C1761 C1762 1.398 1_655 S
C1762 H1750 0.950 . S
C1762 C1761 1.398 1_455 S
C1762 C1763 1.391 . S
C1763 H1751 0.950 . S
C1763 C1759 1.393 . S
C1763 C1762 1.391 . S
H1764 C1772 0.950 . S
H1765 C1777 0.950 . S
H1766 C1774 0.950 . S
H1767 C1776 0.950 . S
H1768 C1778 0.950 . S
H1769 C1780 0.950 . S
H1770 C1782 0.950 . S
H1771 C1783 0.950 . S
C1772 H1764 0.950 . S
C1772 C1773 1.386 . S
C1772 C1774 1.391 . S
C1773 C1772 1.386 . S
C1773 C1777 1.393 . S
C1774 H1766 0.950 . S
C1774 C1772 1.391 . S
C1774 C1775 1.400 . S
C1775 C1774 1.400 . S
C1775 C1776 1.398 . S
C1775 C1781 1.491 . S
C1776 H1767 0.950 . S
C1776 C1775 1.398 . S
C1776 C1777 1.391 . S
C1777 H1765 0.950 . S
C1777 C1773 1.393 . S
C1777 C1776 1.391 . S
C1778 H1768 0.950 . S
C1778 C1779 1.386 . S
C1778 C1780 1.391 . S
C1779 C1778 1.386 . S
C1779 C1783 1.393 . S
C1780 H1769 0.950 . S
C1780 C1778 1.391 . S
C1780 C1781 1.400 . S
C1781 C1775 1.491 . S
C1781 C1780 1.400 . S
C1781 C1782 1.398 . S
C1782 H1770 0.950 . S
C1782 C1781 1.398 . S
C1782 C1783 1.391 . S
C1783 H1771 0.950 . S
C1783 C1779 1.393 . S
C1783 C1782 1.391 . S
H1784 C1792 0.950 . S
H1785 C1797 0.950 1_565 S
H1786 C1794 0.950 . S
H1787 C1796 0.950 . S
H1788 C1798 0.950 . S
H1789 C1800 0.950 . S
H1790 C1802 0.950 . S
H1791 C1803 0.950 . S
C1792 H1784 0.950 . S
C1792 C1793 1.386 . S
C1792 C1794 1.391 . S
C1793 C1792 1.386 . S
C1793 C1797 1.393 . S
C1794 H1786 0.950 . S
C1794 C1792 1.391 . S
C1794 C1795 1.400 . S
C1795 C1794 1.400 . S
C1795 C1796 1.398 . S
C1795 C1801 1.491 . S
C1796 H1787 0.950 . S
C1796 C1795 1.398 . S
C1796 C1797 1.391 . S
C1797 H1785 0.950 1_545 S
C1797 C1793 1.393 . S
C1797 C1796 1.391 . S
C1798 H1788 0.950 . S
C1798 C1799 1.386 . S
C1798 C1800 1.391 . S
C1799 C1798 1.386 . S
C1799 C1803 1.393 . S
C1800 H1789 0.950 . S
C1800 C1798 1.391 . S
C1800 C1801 1.400 . S
C1801 C1795 1.491 . S
C1801 C1800 1.400 . S
C1801 C1802 1.398 . S
C1802 H1790 0.950 . S
C1802 C1801 1.398 . S
C1802 C1803 1.391 . S
C1803 H1791 0.950 . S
C1803 C1799 1.393 . S
C1803 C1802 1.391 . S
H1804 C1812 0.950 . S
H1805 C1817 0.950 . S
H1806 C1814 0.950 . S
H1807 C1816 0.950 . S
H1808 C1818 0.950 . S
H1809 C1820 0.950 . S
H1810 C1822 0.950 . S
H1811 C1823 0.950 . S
C1812 H1804 0.950 . S
C1812 C1813 1.386 . S
C1812 C1814 1.391 . S
C1813 C1812 1.386 . S
C1813 C1817 1.393 . S
C1814 H1806 0.950 . S
C1814 C1812 1.391 . S
C1814 C1815 1.400 . S
C1815 C1814 1.400 . S
C1815 C1816 1.398 . S
C1815 C1821 1.491 . S
C1816 H1807 0.950 . S
C1816 C1815 1.398 . S
C1816 C1817 1.391 . S
C1817 H1805 0.950 . S
C1817 C1813 1.393 . S
C1817 C1816 1.391 . S
C1818 H1808 0.950 . S
C1818 C1819 1.386 . S
C1818 C1820 1.391 . S
C1819 C1818 1.386 . S
C1819 C1823 1.393 . S
C1820 H1809 0.950 . S
C1820 C1818 1.391 . S
C1820 C1821 1.400 . S
C1821 C1815 1.491 . S
C1821 C1820 1.400 . S
C1821 C1822 1.398 . S
C1822 H1810 0.950 . S
C1822 C1821 1.398 . S
C1822 C1823 1.391 . S
C1823 H1811 0.950 . S
C1823 C1819 1.393 . S
C1823 C1822 1.391 . S
H1824 C1832 0.950 . S
H1825 C1837 0.950 . S
H1826 C1834 0.950 . S
H1827 C1836 0.950 . S
H1828 C1838 0.950 . S
H1829 C1840 0.950 . S
H1830 C1842 0.950 . S
H1831 C1843 0.950 . S
C1832 H1824 0.950 . S
C1832 C1833 1.386 1_556 S
C1832 C1834 1.391 1_556 S
C1833 C1832 1.386 1_554 S
C1833 C1837 1.393 . S
C1834 H1826 0.950 . S
C1834 C1832 1.391 1_554 S
C1834 C1835 1.400 . S
C1835 C1834 1.400 . S
C1835 C1836 1.398 . S
C1835 C1841 1.491 . S
C1836 H1827 0.950 . S
C1836 C1835 1.398 . S
C1836 C1837 1.391 . S
C1837 H1825 0.950 . S
C1837 C1833 1.393 . S
C1837 C1836 1.391 . S
C1838 H1828 0.950 . S
C1838 C1839 1.386 . S
C1838 C1840 1.391 . S
C1839 C1838 1.386 . S
C1839 C1843 1.393 . S
C1840 H1829 0.950 . S
C1840 C1838 1.391 . S
C1840 C1841 1.400 . S
C1841 C1835 1.491 . S
C1841 C1840 1.400 . S
C1841 C1842 1.398 . S
C1842 H1830 0.950 . S
C1842 C1841 1.398 . S
C1842 C1843 1.391 . S
C1843 H1831 0.950 . S
C1843 C1839 1.393 . S
C1843 C1842 1.391 . S
H1844 C1852 0.950 . S
H1845 C1857 0.950 . S
H1846 C1854 0.950 . S
H1847 C1856 0.950 . S
H1848 C1858 0.950 . S
H1849 C1860 0.950 . S
H1850 C1862 0.950 . S
H1851 C1863 0.950 . S
C1852 H1844 0.950 . S
C1852 C1853 1.386 . S
C1852 C1854 1.391 . S
C1853 C1852 1.386 . S
C1853 C1857 1.393 . S
C1854 H1846 0.950 . S
C1854 C1852 1.391 . S
C1854 C1855 1.400 . S
C1855 C1854 1.400 . S
C1855 C1856 1.398 . S
C1855 C1861 1.491 . S
C1856 H1847 0.950 . S
C1856 C1855 1.398 . S
C1856 C1857 1.391 . S
C1857 H1845 0.950 . S
C1857 C1853 1.393 . S
C1857 C1856 1.391 . S
C1858 H1848 0.950 . S
C1858 C1859 1.386 . S
C1858 C1860 1.391 . S
C1859 C1858 1.386 . S
C1859 C1863 1.393 . S
C1860 H1849 0.950 . S
C1860 C1858 1.391 . S
C1860 C1861 1.400 . S
C1861 C1855 1.491 . S
C1861 C1860 1.400 . S
C1861 C1862 1.398 . S
C1862 H1850 0.950 . S
C1862 C1861 1.398 . S
C1862 C1863 1.391 . S
C1863 H1851 0.950 . S
C1863 C1859 1.393 . S
C1863 C1862 1.391 . S
H1864 C1872 0.950 . S
H1865 C1877 0.950 . S
H1866 C1874 0.950 . S
H1867 C1876 0.950 . S
H1868 C1878 0.950 . S
H1869 C1880 0.950 . S
H1870 C1882 0.950 . S
H1871 C1883 0.950 . S
C1872 H1864 0.950 . S
C1872 C1873 1.386 . S
C1872 C1874 1.391 . S
C1873 C1872 1.386 . S
C1873 C1877 1.393 . S
C1874 H1866 0.950 . S
C1874 C1872 1.391 . S
C1874 C1875 1.400 . S
C1875 C1874 1.400 . S
C1875 C1876 1.398 . S
C1875 C1881 1.491 . S
C1876 H1867 0.950 . S
C1876 C1875 1.398 . S
C1876 C1877 1.391 . S
C1877 H1865 0.950 . S
C1877 C1873 1.393 . S
C1877 C1876 1.391 . S
C1878 H1868 0.950 . S
C1878 C1879 1.386 . S
C1878 C1880 1.391 . S
C1879 C1878 1.386 . S
C1879 C1883 1.393 . S
C1880 H1869 0.950 . S
C1880 C1878 1.391 . S
C1880 C1881 1.400 . S
C1881 C1875 1.491 . S
C1881 C1880 1.400 . S
C1881 C1882 1.398 . S
C1882 H1870 0.950 . S
C1882 C1881 1.398 . S
C1882 C1883 1.391 . S
C1883 H1871 0.950 . S
C1883 C1879 1.393 . S
C1883 C1882 1.391 . S
H1884 C1892 0.950 . S
H1885 C1897 0.950 . S
H1886 C1894 0.950 . S
H1887 C1896 0.950 . S
H1888 C1898 0.950 . S
H1889 C1900 0.950 . S
H1890 C1902 0.950 . S
H1891 C1903 0.950 . S
C1892 H1884 0.950 . S
C1892 C1893 1.386 . S
C1892 C1894 1.391 . S
C1893 C1892 1.386 . S
C1893 C1897 1.393 . S
C1894 H1886 0.950 . S
C1894 C1892 1.391 . S
C1894 C1895 1.400 . S
C1895 C1894 1.400 . S
C1895 C1896 1.398 . S
C1895 C1901 1.491 . S
C1896 H1887 0.950 . S
C1896 C1895 1.398 . S
C1896 C1897 1.391 . S
C1897 H1885 0.950 . S
C1897 C1893 1.393 . S
C1897 C1896 1.391 . S
C1898 H1888 0.950 . S
C1898 C1899 1.386 . S
C1898 C1900 1.391 . S
C1899 C1898 1.386 . S
C1899 C1903 1.393 . S
C1900 H1889 0.950 . S
C1900 C1898 1.391 . S
C1900 C1901 1.400 . S
C1901 C1895 1.491 . S
C1901 C1900 1.400 . S
C1901 C1902 1.398 . S
C1902 H1890 0.950 . S
C1902 C1901 1.398 . S
C1902 C1903 1.391 . S
C1903 H1891 0.950 . S
C1903 C1899 1.393 . S
C1903 C1902 1.391 . S
H1904 C1912 0.950 . S
H1905 C1917 0.950 . S
H1906 C1914 0.950 . S
H1907 C1916 0.950 . S
H1908 C1918 0.950 . S
H1909 C1920 0.950 . S
H1910 C1922 0.950 . S
H1911 C1923 0.950 . S
C1912 H1904 0.950 . S
C1912 C1913 1.386 . S
C1912 C1914 1.391 . S
C1913 C1912 1.386 . S
C1913 C1917 1.393 . S
C1914 H1906 0.950 . S
C1914 C1912 1.391 . S
C1914 C1915 1.400 . S
C1915 C1914 1.400 . S
C1915 C1916 1.398 . S
C1915 C1921 1.491 . S
C1916 H1907 0.950 . S
C1916 C1915 1.398 . S
C1916 C1917 1.391 . S
C1917 H1905 0.950 . S
C1917 C1913 1.393 . S
C1917 C1916 1.391 . S
C1918 H1908 0.950 . S
C1918 C1919 1.386 . S
C1918 C1920 1.391 . S
C1919 C1918 1.386 . S
C1919 C1923 1.393 . S
C1920 H1909 0.950 . S
C1920 C1918 1.391 . S
C1920 C1921 1.400 . S
C1921 C1915 1.491 . S
C1921 C1920 1.400 . S
C1921 C1922 1.398 . S
C1922 H1910 0.950 . S
C1922 C1921 1.398 . S
C1922 C1923 1.391 . S
C1923 H1911 0.950 . S
C1923 C1919 1.393 . S
C1923 C1922 1.391 . S
H1924 C1932 0.950 . S
H1925 C1937 0.950 . S
H1926 C1934 0.950 . S
H1927 C1936 0.950 . S
H1928 C1938 0.950 . S
H1929 C1940 0.950 . S
H1930 C1942 0.950 . S
H1931 C1943 0.950 . S
C1932 H1924 0.950 . S
C1932 C1933 1.386 . S
C1932 C1934 1.391 . S
C1933 C1932 1.386 . S
C1933 C1937 1.393 . S
C1934 H1926 0.950 . S
C1934 C1932 1.391 . S
C1934 C1935 1.400 . S
C1935 C1934 1.400 . S
C1935 C1936 1.398 . S
C1935 C1941 1.491 . S
C1936 H1927 0.950 . S
C1936 C1935 1.398 . S
C1936 C1937 1.391 . S
C1937 H1925 0.950 . S
C1937 C1933 1.393 . S
C1937 C1936 1.391 . S
C1938 H1928 0.950 . S
C1938 C1939 1.386 . S
C1938 C1940 1.391 . S
C1939 C1938 1.386 . S
C1939 C1943 1.393 . S
C1940 H1929 0.950 . S
C1940 C1938 1.391 . S
C1940 C1941 1.400 . S
C1941 C1935 1.491 . S
C1941 C1940 1.400 . S
C1941 C1942 1.398 . S
C1942 H1930 0.950 . S
C1942 C1941 1.398 . S
C1942 C1943 1.391 . S
C1943 H1931 0.950 . S
C1943 C1939 1.393 . S
C1943 C1942 1.391 . S
H1944 C1952 0.950 . S
H1945 C1957 0.950 . S
H1946 C1954 0.950 . S
H1947 C1956 0.950 . S
H1948 C1958 0.950 . S
H1949 C1960 0.950 . S
H1950 C1962 0.950 . S
H1951 C1963 0.950 . S
C1952 H1944 0.950 . S
C1952 C1953 1.386 . S
C1952 C1954 1.391 . S
C1953 C1952 1.386 . S
C1953 C1957 1.393 . S
C1954 H1946 0.950 . S
C1954 C1952 1.391 . S
C1954 C1955 1.400 . S
C1955 C1954 1.400 . S
C1955 C1956 1.398 . S
C1955 C1961 1.491 . S
C1956 H1947 0.950 . S
C1956 C1955 1.398 . S
C1956 C1957 1.391 . S
C1957 H1945 0.950 . S
C1957 C1953 1.393 . S
C1957 C1956 1.391 . S
C1958 H1948 0.950 . S
C1958 C1959 1.386 . S
C1958 C1960 1.391 . S
C1959 C1958 1.386 . S
C1959 C1963 1.393 . S
C1960 H1949 0.950 . S
C1960 C1958 1.391 . S
C1960 C1961 1.400 . S
C1961 C1955 1.491 . S
C1961 C1960 1.400 . S
C1961 C1962 1.398 . S
C1962 H1950 0.950 . S
C1962 C1961 1.398 . S
C1962 C1963 1.391 . S
C1963 H1951 0.950 . S
C1963 C1959 1.393 . S
C1963 C1962 1.391 . S
H1964 C1972 0.950 . S
H1965 C1977 0.950 . S
H1966 C1974 0.950 . S
H1967 C1976 0.950 . S
H1968 C1978 0.950 . S
H1969 C1980 0.950 . S
H1970 C1982 0.950 . S
H1971 C1983 0.950 . S
C1972 H1964 0.950 . S
C1972 C1973 1.386 . S
C1972 C1974 1.391 . S
C1973 C1972 1.386 . S
C1973 C1977 1.393 . S
C1974 H1966 0.950 . S
C1974 C1972 1.391 . S
C1974 C1975 1.400 . S
C1975 C1974 1.400 . S
C1975 C1976 1.398 . S
C1975 C1981 1.491 . S
C1976 H1967 0.950 . S
C1976 C1975 1.398 . S
C1976 C1977 1.391 . S
C1977 H1965 0.950 . S
C1977 C1973 1.393 . S
C1977 C1976 1.391 . S
C1978 H1968 0.950 . S
C1978 C1979 1.386 . S
C1978 C1980 1.391 . S
C1979 C1978 1.386 . S
C1979 C1983 1.393 . S
C1980 H1969 0.950 . S
C1980 C1978 1.391 . S
C1980 C1981 1.400 . S
C1981 C1975 1.491 . S
C1981 C1980 1.400 . S
C1981 C1982 1.398 . S
C1982 H1970 0.950 . S
C1982 C1981 1.398 . S
C1982 C1983 1.391 . S
C1983 H1971 0.950 . S
C1983 C1979 1.393 . S
C1983 C1982 1.391 . S
H1984 C1992 0.950 . S
H1985 C1997 0.950 . S
H1986 C1994 0.950 . S
H1987 C1996 0.950 . S
H1988 C1998 0.950 . S
H1989 C2000 0.950 . S
H1990 C2002 0.950 . S
H1991 C2003 0.950 . S
C1992 H1984 0.950 . S
C1992 C1993 1.386 . S
C1992 C1994 1.391 . S
C1993 C1992 1.386 . S
C1993 C1997 1.393 . S
C1994 H1986 0.950 . S
C1994 C1992 1.391 . S
C1994 C1995 1.400 . S
C1995 C1994 1.400 . S
C1995 C1996 1.398 . S
C1995 C2001 1.491 . S
C1996 H1987 0.950 . S
C1996 C1995 1.398 . S
C1996 C1997 1.391 . S
C1997 H1985 0.950 . S
C1997 C1993 1.393 . S
C1997 C1996 1.391 . S
C1998 H1988 0.950 . S
C1998 C1999 1.386 . S
C1998 C2000 1.391 . S
C1999 C1998 1.386 . S
C1999 C2003 1.393 . S
C2000 H1989 0.950 . S
C2000 C1998 1.391 . S
C2000 C2001 1.400 . S
C2001 C1995 1.491 . S
C2001 C2000 1.400 . S
C2001 C2002 1.398 . S
C2002 H1990 0.950 . S
C2002 C2001 1.398 . S
C2002 C2003 1.391 . S
C2003 H1991 0.950 . S
C2003 C1999 1.393 . S
C2003 C2002 1.391 . S
H2004 C2012 0.950 . S
H2005 C2017 0.950 . S
H2006 C2014 0.950 . S
H2007 C2016 0.950 . S
H2008 C2018 0.950 . S
H2009 C2020 0.950 . S
H2010 C2022 0.950 . S
H2011 C2023 0.950 . S
C2012 H2004 0.950 . S
C2012 C2013 1.386 . S
C2012 C2014 1.391 . S
C2013 C2012 1.386 . S
C2013 C2017 1.393 . S
C2014 H2006 0.950 . S
C2014 C2012 1.391 . S
C2014 C2015 1.400 . S
C2015 C2014 1.400 . S
C2015 C2016 1.398 . S
C2015 C2021 1.491 . S
C2016 H2007 0.950 . S
C2016 C2015 1.398 . S
C2016 C2017 1.391 . S
C2017 H2005 0.950 . S
C2017 C2013 1.393 . S
C2017 C2016 1.391 . S
C2018 H2008 0.950 . S
C2018 C2019 1.386 . S
C2018 C2020 1.391 . S
C2019 C2018 1.386 . S
C2019 C2023 1.393 . S
C2020 H2009 0.950 . S
C2020 C2018 1.391 . S
C2020 C2021 1.400 . S
C2021 C2015 1.491 . S
C2021 C2020 1.400 . S
C2021 C2022 1.398 . S
C2022 H2010 0.950 . S
C2022 C2021 1.398 . S
C2022 C2023 1.391 . S
C2023 H2011 0.950 . S
C2023 C2019 1.393 . S
C2023 C2022 1.391 . S
H2024 C2032 0.950 . S
H2025 C2037 0.950 . S
H2026 C2034 0.950 . S
H2027 C2036 0.950 . S
H2028 C2038 0.950 . S
H2029 C2040 0.950 . S
H2030 C2042 0.950 . S
H2031 C2043 0.950 . S
C2032 H2024 0.950 . S
C2032 C2033 1.386 . S
C2032 C2034 1.391 . S
C2033 C2032 1.386 . S
C2033 C2037 1.393 . S
C2034 H2026 0.950 . S
C2034 C2032 1.391 . S
C2034 C2035 1.400 . S
C2035 C2034 1.400 . S
C2035 C2036 1.398 . S
C2035 C2041 1.491 . S
C2036 H2027 0.950 . S
C2036 C2035 1.398 . S
C2036 C2037 1.391 . S
C2037 H2025 0.950 . S
C2037 C2033 1.393 . S
C2037 C2036 1.391 . S
C2038 H2028 0.950 . S
C2038 C2039 1.386 . S
C2038 C2040 1.391 . S
C2039 C2038 1.386 . S
C2039 C2043 1.393 . S
C2040 H2029 0.950 . S
C2040 C2038 1.391 . S
C2040 C2041 1.400 . S
C2041 C2035 1.491 . S
C2041 C2040 1.400 . S
C2041 C2042 1.398 . S
C2042 H2030 0.950 . S
C2042 C2041 1.398 . S
C2042 C2043 1.391 . S
C2043 H2031 0.950 . S
C2043 C2039 1.393 . S
C2043 C2042 1.391 . S
H2044 C2052 0.950 . S
H2045 C2057 0.950 . S
H2046 C2054 0.950 . S
H2047 C2056 0.950 . S
H2048 C2058 0.950 . S
H2049 C2060 0.950 . S
H2050 C2062 0.950 . S
H2051 C2063 0.950 . S
C2052 H2044 0.950 . S
C2052 C2053 1.386 . S
C2052 C2054 1.391 . S
C2053 C2052 1.386 . S
C2053 C2057 1.393 . S
C2054 H2046 0.950 . S
C2054 C2052 1.391 . S
C2054 C2055 1.400 . S
C2055 C2054 1.400 . S
C2055 C2056 1.398 . S
C2055 C2061 1.491 . S
C2056 H2047 0.950 . S
C2056 C2055 1.398 . S
C2056 C2057 1.391 . S
C2057 H2045 0.950 . S
C2057 C2053 1.393 . S
C2057 C2056 1.391 . S
C2058 H2048 0.950 . S
C2058 C2059 1.386 . S
C2058 C2060 1.391 . S
C2059 C2058 1.386 . S
C2059 C2063 1.393 . S
C2060 H2049 0.950 . S
C2060 C2058 1.391 . S
C2060 C2061 1.400 . S
C2061 C2055 1.491 . S
C2061 C2060 1.400 . S
C2061 C2062 1.398 . S
C2062 H2050 0.950 . S
C2062 C2061 1.398 . S
C2062 C2063 1.391 . S
C2063 H2051 0.950 . S
C2063 C2059 1.393 . S
C2063 C2062 1.391 . S
H2064 C2072 0.950 . S
H2065 C2077 0.950 . S
H2066 C2074 0.969 . S
H2067 C2076 0.950 . S
H2068 C2078 0.950 . S
H2069 C2080 0.950 . S
H2070 C2082 0.950 1_455 S
H2071 C2083 0.934 1_455 S
C2072 H2064 0.950 . S
C2072 C2073 1.386 1_455 S
C2072 C2074 1.388 . S
C2073 C2072 1.386 1_655 S
C2073 C2077 1.393 . S
C2074 H2066 0.969 . S
C2074 C2072 1.388 . S
C2074 C2075 1.387 1_455 S
C2075 C2074 1.387 1_655 S
C2075 C2076 1.398 . S
C2075 C2081 1.491 . S
C2076 H2067 0.950 . S
C2076 C2075 1.398 . S
C2076 C2077 1.391 . S
C2077 H2065 0.950 . S
C2077 C2073 1.393 . S
C2077 C2076 1.391 . S
C2078 H2068 0.950 . S
C2078 C2079 1.386 . S
C2078 C2080 1.391 . S
C2079 C2078 1.386 . S
C2079 C2083 1.393 . S
C2080 H2069 0.950 . S
C2080 C2078 1.391 . S
C2080 C2081 1.400 . S
C2081 C2075 1.491 . S
C2081 C2080 1.400 . S
C2081 C2082 1.398 . S
C2082 H2070 0.950 1_655 S
C2082 C2081 1.398 . S
C2082 C2083 1.391 . S
C2083 H2071 0.934 1_655 S
C2083 C2079 1.393 . S
C2083 C2082 1.391 . S
H2084 C2092 0.950 . S
H2085 C2097 0.950 . S
H2086 C2094 0.950 . S
H2087 C2096 0.950 . S
H2088 C2098 0.950 . S
H2089 C2100 0.950 . S
H2090 C2102 0.950 . S
H2091 C2103 0.950 . S
C2092 H2084 0.950 . S
C2092 C2093 1.386 . S
C2092 C2094 1.391 . S
C2093 C2092 1.386 . S
C2093 C2097 1.393 . S
C2094 H2086 0.950 . S
C2094 C2092 1.391 . S
C2094 C2095 1.400 . S
C2095 C2094 1.400 . S
C2095 C2096 1.398 . S
C2095 C2101 1.491 . S
C2096 H2087 0.950 . S
C2096 C2095 1.398 . S
C2096 C2097 1.391 . S
C2097 H2085 0.950 . S
C2097 C2093 1.393 . S
C2097 C2096 1.391 . S
C2098 H2088 0.950 . S
C2098 C2099 1.386 . S
C2098 C2100 1.391 . S
C2099 C2098 1.386 . S
C2099 C2103 1.393 . S
C2100 H2089 0.950 . S
C2100 C2098 1.391 . S
C2100 C2101 1.400 . S
C2101 C2095 1.491 . S
C2101 C2100 1.400 . S
C2101 C2102 1.398 . S
C2102 H2090 0.950 . S
C2102 C2101 1.398 . S
C2102 C2103 1.391 . S
C2103 H2091 0.950 . S
C2103 C2099 1.393 . S
C2103 C2102 1.391 . S
H2104 C2112 0.950 . S
H2105 C2117 0.950 . S
H2106 C2114 0.950 . S
H2107 C2116 0.950 . S
H2108 C2118 0.950 . S
H2109 C2120 0.950 1_554 S
H2110 C2122 0.950 . S
H2111 C2123 0.950 . S
C2112 H2104 0.950 . S
C2112 C2113 1.386 . S
C2112 C2114 1.391 . S
C2113 C2112 1.386 . S
C2113 C2117 1.393 . S
C2114 H2106 0.950 . S
C2114 C2112 1.391 . S
C2114 C2115 1.400 . S
C2115 C2114 1.400 . S
C2115 C2116 1.398 . S
C2115 C2121 1.491 . S
C2116 H2107 0.950 . S
C2116 C2115 1.398 . S
C2116 C2117 1.391 . S
C2117 H2105 0.950 . S
C2117 C2113 1.393 . S
C2117 C2116 1.391 . S
C2118 H2108 0.950 . S
C2118 C2119 1.386 . S
C2118 C2120 1.394 1_554 S
C2119 C2118 1.386 . S
C2119 C2123 1.393 1_554 S
C2120 H2109 0.950 1_556 S
C2120 C2118 1.394 1_556 S
C2120 C2121 1.397 . S
C2121 C2115 1.491 . S
C2121 C2120 1.397 . S
C2121 C2122 1.398 . S
C2122 H2110 0.950 . S
C2122 C2121 1.398 . S
C2122 C2123 1.391 . S
C2123 H2111 0.950 . S
C2123 C2119 1.393 1_556 S
C2123 C2122 1.391 . S
H2124 C2132 0.950 . S
H2125 C2137 0.950 . S
H2126 C2134 0.950 . S
H2127 C2136 0.950 . S
H2128 C2138 0.950 . S
H2129 C2140 0.950 . S
H2130 C2142 0.950 . S
H2131 C2143 0.950 . S
C2132 H2124 0.950 . S
C2132 C2133 1.386 1_655 S
C2132 C2134 1.391 . S
C2133 C2132 1.386 1_455 S
C2133 C2137 1.393 . S
C2134 H2126 0.950 . S
C2134 C2132 1.391 . S
C2134 C2135 1.400 . S
C2135 C2134 1.400 . S
C2135 C2136 1.398 1_655 S
C2135 C2141 1.491 . S
C2136 H2127 0.950 . S
C2136 C2135 1.398 1_455 S
C2136 C2137 1.391 . S
C2137 H2125 0.950 . S
C2137 C2133 1.393 . S
C2137 C2136 1.391 . S
C2138 H2128 0.950 . S
C2138 C2139 1.386 . S
C2138 C2140 1.391 . S
C2139 C2138 1.386 . S
C2139 C2143 1.393 . S
C2140 H2129 0.950 . S
C2140 C2138 1.391 . S
C2140 C2141 1.400 . S
C2141 C2135 1.491 . S
C2141 C2140 1.400 . S
C2141 C2142 1.398 . S
C2142 H2130 0.950 . S
C2142 C2141 1.398 . S
C2142 C2143 1.391 . S
C2143 H2131 0.950 . S
C2143 C2139 1.393 . S
C2143 C2142 1.391 . S
H2144 C2152 0.950 . S
H2145 C2157 0.950 . S
H2146 C2154 0.950 . S
H2147 C2156 0.950 . S
H2148 C2158 0.950 . S
H2149 C2160 0.950 . S
H2150 C2162 0.950 1_565 S
H2151 C2163 0.950 1_565 S
C2152 H2144 0.950 . S
C2152 C2153 1.386 . S
C2152 C2154 1.391 . S
C2153 C2152 1.386 . S
C2153 C2157 1.393 . S
C2154 H2146 0.950 . S
C2154 C2152 1.391 . S
C2154 C2155 1.400 . S
C2155 C2154 1.400 . S
C2155 C2156 1.398 . S
C2155 C2161 1.491 . S
C2156 H2147 0.950 . S
C2156 C2155 1.398 . S
C2156 C2157 1.391 . S
C2157 H2145 0.950 . S
C2157 C2153 1.393 . S
C2157 C2156 1.391 . S
C2158 H2148 0.950 . S
C2158 C2159 1.386 . S
C2158 C2160 1.391 . S
C2159 C2158 1.386 . S
C2159 C2163 1.393 . S
C2160 H2149 0.950 . S
C2160 C2158 1.391 . S
C2160 C2161 1.400 . S
C2161 C2155 1.491 . S
C2161 C2160 1.400 . S
C2161 C2162 1.398 . S
C2162 H2150 0.950 1_545 S
C2162 C2161 1.398 . S
C2162 C2163 1.391 . S
C2163 H2151 0.950 1_545 S
C2163 C2159 1.393 . S
C2163 C2162 1.391 . S
H2164 C2172 0.950 . S
H2165 C2177 0.950 . S
H2166 C2174 0.950 . S
H2167 C2176 0.950 . S
H2168 C2178 0.950 . S
H2169 C2180 0.950 . S
H2170 C2182 0.950 . S
H2171 C2183 0.950 . S
C2172 H2164 0.950 . S
C2172 C2173 1.386 . S
C2172 C2174 1.391 . S
C2173 C2172 1.386 . S
C2173 C2177 1.393 . S
C2174 H2166 0.950 . S
C2174 C2172 1.391 . S
C2174 C2175 1.400 . S
C2175 C2174 1.400 . S
C2175 C2176 1.398 . S
C2175 C2181 1.491 . S
C2176 H2167 0.950 . S
C2176 C2175 1.398 . S
C2176 C2177 1.391 . S
C2177 H2165 0.950 . S
C2177 C2173 1.393 . S
C2177 C2176 1.391 . S
C2178 H2168 0.950 . S
C2178 C2179 1.386 . S
C2178 C2180 1.391 . S
C2179 C2178 1.386 . S
C2179 C2183 1.393 . S
C2180 H2169 0.950 . S
C2180 C2178 1.391 . S
C2180 C2181 1.400 . S
C2181 C2175 1.491 . S
C2181 C2180 1.400 . S
C2181 C2182 1.398 . S
C2182 H2170 0.950 . S
C2182 C2181 1.398 . S
C2182 C2183 1.391 . S
C2183 H2171 0.950 . S
C2183 C2179 1.393 . S
C2183 C2182 1.391 . S
H2184 C2192 0.950 . S
H2185 C2197 0.950 . S
H2186 C2194 0.950 . S
H2187 C2196 0.950 . S
H2188 C2198 0.950 . S
H2189 C2200 0.950 . S
H2190 C2202 0.950 . S
H2191 C2203 0.950 . S
C2192 H2184 0.950 . S
C2192 C2193 1.386 . S
C2192 C2194 1.391 . S
C2193 C2192 1.386 . S
C2193 C2197 1.393 . S
C2194 H2186 0.950 . S
C2194 C2192 1.391 . S
C2194 C2195 1.400 . S
C2195 C2194 1.400 . S
C2195 C2196 1.398 . S
C2195 C2201 1.491 . S
C2196 H2187 0.950 . S
C2196 C2195 1.398 . S
C2196 C2197 1.391 . S
C2197 H2185 0.950 . S
C2197 C2193 1.393 . S
C2197 C2196 1.391 . S
C2198 H2188 0.950 . S
C2198 C2199 1.386 . S
C2198 C2200 1.391 . S
C2199 C2198 1.386 . S
C2199 C2203 1.393 . S
C2200 H2189 0.950 . S
C2200 C2198 1.391 . S
C2200 C2201 1.400 . S
C2201 C2195 1.491 . S
C2201 C2200 1.400 . S
C2201 C2202 1.398 . S
C2202 H2190 0.950 . S
C2202 C2201 1.398 . S
C2202 C2203 1.391 . S
C2203 H2191 0.950 . S
C2203 C2199 1.393 . S
C2203 C2202 1.391 . S
H2204 C2212 0.950 . S
H2205 C2217 0.950 . S
H2206 C2214 0.950 . S
H2207 C2216 0.950 . S
H2208 C2218 0.950 . S
H2209 C2220 0.950 . S
H2210 C2222 0.950 . S
H2211 C2223 0.950 . S
C2212 H2204 0.950 . S
C2212 C2213 1.386 . S
C2212 C2214 1.391 . S
C2213 C2212 1.386 . S
C2213 C2217 1.393 . S
C2214 H2206 0.950 . S
C2214 C2212 1.391 . S
C2214 C2215 1.400 . S
C2215 C2214 1.400 . S
C2215 C2216 1.398 . S
C2215 C2221 1.491 . S
C2216 H2207 0.950 . S
C2216 C2215 1.398 . S
C2216 C2217 1.391 . S
C2217 H2205 0.950 . S
C2217 C2213 1.393 . S
C2217 C2216 1.391 . S
C2218 H2208 0.950 . S
C2218 C2219 1.386 . S
C2218 C2220 1.391 . S
C2219 C2218 1.386 . S
C2219 C2223 1.393 . S
C2220 H2209 0.950 . S
C2220 C2218 1.391 . S
C2220 C2221 1.400 . S
C2221 C2215 1.491 . S
C2221 C2220 1.400 . S
C2221 C2222 1.398 . S
C2222 H2210 0.950 . S
C2222 C2221 1.398 . S
C2222 C2223 1.391 . S
C2223 H2211 0.950 . S
C2223 C2219 1.393 . S
C2223 C2222 1.391 . S
H2224 C2232 0.950 . S
H2225 C2237 0.950 1_565 S
H2226 C2234 0.950 . S
H2227 C2236 0.950 1_565 S
H2228 C2238 0.950 1_565 S
H2229 C2240 0.950 1_565 S
H2230 C2242 0.950 . S
H2231 C2243 0.950 . S
C2232 H2224 0.950 . S
C2232 C2233 1.386 . S
C2232 C2234 1.391 . S
C2233 C2232 1.386 . S
C2233 C2237 1.393 . S
C2234 H2226 0.950 . S
C2234 C2232 1.391 . S
C2234 C2235 1.400 . S
C2235 C2234 1.400 . S
C2235 C2236 1.398 . S
C2235 C2241 1.491 . S
C2236 H2227 0.950 1_545 S
C2236 C2235 1.398 . S
C2236 C2237 1.391 . S
C2237 H2225 0.950 1_545 S
C2237 C2233 1.393 . S
C2237 C2236 1.391 . S
C2238 H2228 0.950 1_545 S
C2238 C2239 1.386 . S
C2238 C2240 1.391 . S
C2239 C2238 1.386 . S
C2239 C2243 1.393 . S
C2240 H2229 0.950 1_545 S
C2240 C2238 1.391 . S
C2240 C2241 1.400 . S
C2241 C2235 1.491 . S
C2241 C2240 1.400 . S
C2241 C2242 1.398 . S
C2242 H2230 0.950 . S
C2242 C2241 1.398 . S
C2242 C2243 1.391 . S
C2243 H2231 0.950 . S
C2243 C2239 1.393 . S
C2243 C2242 1.391 . S
H2244 C2252 0.950 . S
H2245 C2257 0.950 . S
H2246 C2254 0.950 . S
H2247 C2256 0.950 . S
H2248 C2258 0.950 . S
H2249 C2260 0.950 . S
H2250 C2262 0.950 . S
H2251 C2263 0.950 . S
C2252 H2244 0.950 . S
C2252 C2253 1.386 . S
C2252 C2254 1.391 . S
C2253 C2252 1.386 . S
C2253 C2257 1.393 . S
C2254 H2246 0.950 . S
C2254 C2252 1.391 . S
C2254 C2255 1.400 . S
C2255 C2254 1.400 . S
C2255 C2256 1.398 . S
C2255 C2261 1.491 . S
C2256 H2247 0.950 . S
C2256 C2255 1.398 . S
C2256 C2257 1.391 . S
C2257 H2245 0.950 . S
C2257 C2253 1.393 . S
C2257 C2256 1.391 . S
C2258 H2248 0.950 . S
C2258 C2259 1.386 . S
C2258 C2260 1.391 . S
C2259 C2258 1.386 . S
C2259 C2263 1.393 . S
C2260 H2249 0.950 . S
C2260 C2258 1.391 . S
C2260 C2261 1.400 . S
C2261 C2255 1.491 . S
C2261 C2260 1.400 . S
C2261 C2262 1.398 . S
C2262 H2250 0.950 . S
C2262 C2261 1.398 . S
C2262 C2263 1.391 . S
C2263 H2251 0.950 . S
C2263 C2259 1.393 . S
C2263 C2262 1.391 . S
H2264 C2272 0.950 . S
H2265 C2277 0.950 . S
H2266 C2274 0.950 . S
H2267 C2276 0.950 . S
H2268 C2278 0.950 . S
H2269 C2280 0.950 . S
H2270 C2282 0.950 . S
H2271 C2283 0.950 . S
C2272 H2264 0.950 . S
C2272 C2273 1.386 . S
C2272 C2274 1.391 . S
C2273 C2272 1.386 . S
C2273 C2277 1.393 . S
C2274 H2266 0.950 . S
C2274 C2272 1.391 . S
C2274 C2275 1.400 . S
C2275 C2274 1.400 . S
C2275 C2276 1.398 . S
C2275 C2281 1.491 . S
C2276 H2267 0.950 . S
C2276 C2275 1.398 . S
C2276 C2277 1.391 . S
C2277 H2265 0.950 . S
C2277 C2273 1.393 . S
C2277 C2276 1.391 . S
C2278 H2268 0.950 . S
C2278 C2279 1.386 . S
C2278 C2280 1.391 . S
C2279 C2278 1.386 . S
C2279 C2283 1.393 . S
C2280 H2269 0.950 . S
C2280 C2278 1.391 . S
C2280 C2281 1.400 . S
C2281 C2275 1.491 . S
C2281 C2280 1.400 . S
C2281 C2282 1.398 . S
C2282 H2270 0.950 . S
C2282 C2281 1.398 . S
C2282 C2283 1.391 . S
C2283 H2271 0.950 . S
C2283 C2279 1.393 . S
C2283 C2282 1.391 . S
H2284 C2292 0.950 . S
H2285 C2297 0.950 . S
H2286 C2294 0.950 . S
H2287 C2296 0.950 . S
H2288 C2298 0.950 . S
H2289 C2300 0.950 . S
H2290 C2302 0.950 . S
H2291 C2303 0.950 . S
C2292 H2284 0.950 . S
C2292 C2293 1.386 . S
C2292 C2294 1.391 . S
C2293 C2292 1.386 . S
C2293 C2297 1.393 . S
C2294 H2286 0.950 . S
C2294 C2292 1.391 . S
C2294 C2295 1.400 . S
C2295 C2294 1.400 . S
C2295 C2296 1.398 . S
C2295 C2301 1.491 . S
C2296 H2287 0.950 . S
C2296 C2295 1.398 . S
C2296 C2297 1.391 . S
C2297 H2285 0.950 . S
C2297 C2293 1.393 . S
C2297 C2296 1.391 . S
C2298 H2288 0.950 . S
C2298 C2299 1.386 . S
C2298 C2300 1.391 . S
C2299 C2298 1.386 . S
C2299 C2303 1.393 . S
C2300 H2289 0.950 . S
C2300 C2298 1.391 . S
C2300 C2301 1.400 . S
C2301 C2295 1.491 . S
C2301 C2300 1.400 . S
C2301 C2302 1.398 . S
C2302 H2290 0.950 . S
C2302 C2301 1.398 . S
C2302 C2303 1.391 . S
C2303 H2291 0.950 . S
C2303 C2299 1.393 . S
C2303 C2302 1.391 . S
H2304 C2312 0.950 . S
H2305 C2317 0.950 . S
H2306 C2314 0.950 . S
H2307 C2316 0.950 . S
H2308 C2318 0.950 . S
H2309 C2320 0.950 . S
H2310 C2322 0.950 . S
H2311 C2323 0.945 1_556 S
C2312 H2304 0.950 . S
C2312 C2313 1.386 . S
C2312 C2314 1.391 . S
C2313 C2312 1.386 . S
C2313 C2317 1.393 . S
C2314 H2306 0.950 . S
C2314 C2312 1.391 . S
C2314 C2315 1.400 . S
C2315 C2314 1.400 . S
C2315 C2316 1.398 . S
C2315 C2321 1.491 . S
C2316 H2307 0.950 . S
C2316 C2315 1.398 . S
C2316 C2317 1.391 . S
C2317 H2305 0.950 . S
C2317 C2313 1.393 . S
C2317 C2316 1.391 . S
C2318 H2308 0.950 . S
C2318 C2319 1.386 . S
C2318 C2320 1.391 . S
C2319 C2318 1.386 . S
C2319 C2323 1.393 . S
C2320 H2309 0.950 . S
C2320 C2318 1.391 . S
C2320 C2321 1.400 . S
C2321 C2315 1.491 . S
C2321 C2320 1.400 . S
C2321 C2322 1.398 . S
C2322 H2310 0.950 . S
C2322 C2321 1.398 . S
C2322 C2323 1.391 . S
C2323 H2311 0.945 1_554 S
C2323 C2319 1.393 . S
C2323 C2322 1.391 . S
H2324 C2332 0.950 . S
H2325 C2337 0.950 . S
H2326 C2334 0.950 . S
H2327 C2336 0.950 . S
H2328 C2338 0.950 . S
H2329 C2340 0.950 . S
H2330 C2342 0.950 . S
H2331 C2343 0.950 . S
C2332 H2324 0.950 . S
C2332 C2333 1.386 . S
C2332 C2334 1.391 . S
C2333 C2332 1.386 . S
C2333 C2337 1.393 . S
C2334 H2326 0.950 . S
C2334 C2332 1.391 . S
C2334 C2335 1.400 . S
C2335 C2334 1.400 . S
C2335 C2336 1.398 . S
C2335 C2341 1.491 . S
C2336 H2327 0.950 . S
C2336 C2335 1.398 . S
C2336 C2337 1.391 . S
C2337 H2325 0.950 . S
C2337 C2333 1.393 . S
C2337 C2336 1.391 . S
C2338 H2328 0.950 . S
C2338 C2339 1.386 . S
C2338 C2340 1.391 . S
C2339 C2338 1.386 . S
C2339 C2343 1.393 . S
C2340 H2329 0.950 . S
C2340 C2338 1.391 . S
C2340 C2341 1.400 . S
C2341 C2335 1.491 . S
C2341 C2340 1.400 . S
C2341 C2342 1.398 . S
C2342 H2330 0.950 . S
C2342 C2341 1.398 . S
C2342 C2343 1.391 . S
C2343 H2331 0.950 . S
C2343 C2339 1.393 . S
C2343 C2342 1.391 . S
H2344 C2352 0.950 . S
H2345 C2357 0.950 . S
H2346 C2354 0.950 . S
H2347 C2356 0.950 . S
H2348 C2358 0.950 . S
H2349 C2360 0.950 . S
H2350 C2362 0.950 . S
H2351 C2363 0.950 . S
C2352 H2344 0.950 . S
C2352 C2353 1.386 . S
C2352 C2354 1.391 . S
C2353 C2352 1.386 . S
C2353 C2357 1.393 . S
C2354 H2346 0.950 . S
C2354 C2352 1.391 . S
C2354 C2355 1.400 . S
C2355 C2354 1.400 . S
C2355 C2356 1.398 . S
C2355 C2361 1.491 . S
C2356 H2347 0.950 . S
C2356 C2355 1.398 . S
C2356 C2357 1.391 . S
C2357 H2345 0.950 . S
C2357 C2353 1.393 . S
C2357 C2356 1.391 . S
C2358 H2348 0.950 . S
C2358 C2359 1.386 . S
C2358 C2360 1.391 . S
C2359 C2358 1.386 . S
C2359 C2363 1.393 . S
C2360 H2349 0.950 . S
C2360 C2358 1.391 . S
C2360 C2361 1.400 . S
C2361 C2355 1.491 . S
C2361 C2360 1.400 . S
C2361 C2362 1.398 . S
C2362 H2350 0.950 . S
C2362 C2361 1.398 . S
C2362 C2363 1.391 . S
C2363 H2351 0.950 . S
C2363 C2359 1.393 . S
C2363 C2362 1.391 . S
H2364 C2372 0.950 . S
H2365 C2377 0.950 . S
H2366 C2374 0.950 . S
H2367 C2376 0.950 . S
H2368 C2378 0.950 . S
H2369 C2380 0.950 . S
H2370 C2382 0.950 . S
H2371 C2383 0.950 . S
C2372 H2364 0.950 . S
C2372 C2373 1.386 . S
C2372 C2374 1.391 . S
C2373 C2372 1.386 . S
C2373 C2377 1.393 . S
C2374 H2366 0.950 . S
C2374 C2372 1.391 . S
C2374 C2375 1.400 . S
C2375 C2374 1.400 . S
C2375 C2376 1.398 . S
C2375 C2381 1.491 . S
C2376 H2367 0.950 . S
C2376 C2375 1.398 . S
C2376 C2377 1.391 . S
C2377 H2365 0.950 . S
C2377 C2373 1.393 . S
C2377 C2376 1.391 . S
C2378 H2368 0.950 . S
C2378 C2379 1.386 . S
C2378 C2380 1.391 . S
C2379 C2378 1.386 . S
C2379 C2383 1.393 . S
C2380 H2369 0.950 . S
C2380 C2378 1.391 . S
C2380 C2381 1.400 . S
C2381 C2375 1.491 . S
C2381 C2380 1.400 . S
C2381 C2382 1.398 . S
C2382 H2370 0.950 . S
C2382 C2381 1.398 . S
C2382 C2383 1.391 . S
C2383 H2371 0.950 . S
C2383 C2379 1.393 . S
C2383 C2382 1.391 . S
H2384 C2392 0.950 . S
H2385 C2397 0.950 . S
H2386 C2394 0.950 . S
H2387 C2396 0.950 . S
H2388 C2398 0.950 . S
H2389 C2400 0.950 . S
H2390 C2402 0.950 . S
H2391 C2403 0.950 . S
C2392 H2384 0.950 . S
C2392 C2393 1.386 . S
C2392 C2394 1.391 . S
C2393 C2392 1.386 . S
C2393 C2397 1.393 . S
C2394 H2386 0.950 . S
C2394 C2392 1.391 . S
C2394 C2395 1.400 . S
C2395 C2394 1.400 . S
C2395 C2396 1.398 . S
C2395 C2401 1.491 . S
C2396 H2387 0.950 . S
C2396 C2395 1.398 . S
C2396 C2397 1.391 . S
C2397 H2385 0.950 . S
C2397 C2393 1.393 . S
C2397 C2396 1.391 . S
C2398 H2388 0.950 . S
C2398 C2399 1.386 . S
C2398 C2400 1.391 . S
C2399 C2398 1.386 . S
C2399 C2403 1.393 . S
C2400 H2389 0.950 . S
C2400 C2398 1.391 . S
C2400 C2401 1.400 . S
C2401 C2395 1.491 . S
C2401 C2400 1.400 . S
C2401 C2402 1.398 . S
C2402 H2390 0.950 . S
C2402 C2401 1.398 . S
C2402 C2403 1.391 . S
C2403 H2391 0.950 . S
C2403 C2399 1.393 . S
C2403 C2402 1.391 . S
H2404 C2412 0.950 . S
H2405 C2417 0.950 . S
H2406 C2414 0.950 . S
H2407 C2416 0.950 . S
H2408 C2418 0.950 . S
H2409 C2420 0.950 . S
H2410 C2422 0.950 . S
H2411 C2423 0.950 . S
C2412 H2404 0.950 . S
C2412 C2413 1.386 . S
C2412 C2414 1.391 . S
C2413 C2412 1.386 . S
C2413 C2417 1.393 . S
C2414 H2406 0.950 . S
C2414 C2412 1.391 . S
C2414 C2415 1.400 . S
C2415 C2414 1.400 . S
C2415 C2416 1.398 . S
C2415 C2421 1.491 . S
C2416 H2407 0.950 . S
C2416 C2415 1.398 . S
C2416 C2417 1.391 . S
C2417 H2405 0.950 . S
C2417 C2413 1.393 . S
C2417 C2416 1.391 . S
C2418 H2408 0.950 . S
C2418 C2419 1.386 . S
C2418 C2420 1.391 . S
C2419 C2418 1.386 . S
C2419 C2423 1.393 . S
C2420 H2409 0.950 . S
C2420 C2418 1.391 . S
C2420 C2421 1.400 . S
C2421 C2415 1.491 . S
C2421 C2420 1.400 . S
C2421 C2422 1.398 . S
C2422 H2410 0.950 . S
C2422 C2421 1.398 . S
C2422 C2423 1.391 . S
C2423 H2411 0.950 . S
C2423 C2419 1.393 . S
C2423 C2422 1.391 . S
H2424 C2432 0.950 . S
H2425 C2437 0.950 . S
H2426 C2434 0.950 . S
H2427 C2436 0.950 . S
H2428 C2438 0.950 . S
H2429 C2440 0.950 . S
H2430 C2442 0.950 . S
H2431 C2443 0.950 . S
C2432 H2424 0.950 . S
C2432 C2433 1.386 . S
C2432 C2434 1.391 . S
C2433 C2432 1.386 . S
C2433 C2437 1.393 . S
C2434 H2426 0.950 . S
C2434 C2432 1.391 . S
C2434 C2435 1.400 . S
C2435 C2434 1.400 . S
C2435 C2436 1.398 . S
C2435 C2441 1.491 . S
C2436 H2427 0.950 . S
C2436 C2435 1.398 . S
C2436 C2437 1.391 . S
C2437 H2425 0.950 . S
C2437 C2433 1.393 . S
C2437 C2436 1.391 . S
C2438 H2428 0.950 . S
C2438 C2439 1.386 . S
C2438 C2440 1.391 . S
C2439 C2438 1.386 . S
C2439 C2443 1.393 . S
C2440 H2429 0.950 . S
C2440 C2438 1.391 . S
C2440 C2441 1.400 . S
C2441 C2435 1.491 . S
C2441 C2440 1.400 . S
C2441 C2442 1.398 . S
C2442 H2430 0.950 . S
C2442 C2441 1.398 . S
C2442 C2443 1.391 . S
C2443 H2431 0.950 . S
C2443 C2439 1.393 . S
C2443 C2442 1.391 . S
H2444 C2452 0.950 . S
H2445 C2457 0.950 . S
H2446 C2454 0.950 . S
H2447 C2456 0.950 . S
H2448 C2458 0.950 . S
H2449 C2460 0.950 . S
H2450 C2462 0.950 . S
H2451 C2463 0.950 . S
C2452 H2444 0.950 . S
C2452 C2453 1.386 . S
C2452 C2454 1.391 . S
C2453 C2452 1.386 . S
C2453 C2457 1.393 . S
C2454 H2446 0.950 . S
C2454 C2452 1.391 . S
C2454 C2455 1.400 . S
C2455 C2454 1.400 . S
C2455 C2456 1.398 . S
C2455 C2461 1.491 . S
C2456 H2447 0.950 . S
C2456 C2455 1.398 . S
C2456 C2457 1.391 . S
C2457 H2445 0.950 . S
C2457 C2453 1.393 . S
C2457 C2456 1.391 . S
C2458 H2448 0.950 . S
C2458 C2459 1.386 . S
C2458 C2460 1.391 . S
C2459 C2458 1.386 . S
C2459 C2463 1.393 . S
C2460 H2449 0.950 . S
C2460 C2458 1.391 . S
C2460 C2461 1.400 . S
C2461 C2455 1.491 . S
C2461 C2460 1.400 . S
C2461 C2462 1.398 . S
C2462 H2450 0.950 . S
C2462 C2461 1.398 . S
C2462 C2463 1.391 . S
C2463 H2451 0.950 . S
C2463 C2459 1.393 . S
C2463 C2462 1.391 . S
H2464 C2472 0.950 . S
H2465 C2477 0.950 . S
H2466 C2474 0.950 . S
H2467 C2476 0.950 . S
H2468 C2478 0.950 . S
H2469 C2480 0.950 . S
H2470 C2482 0.950 . S
H2471 C2483 0.950 . S
C2472 H2464 0.950 . S
C2472 C2473 1.386 . S
C2472 C2474 1.391 . S
C2473 C2472 1.386 . S
C2473 C2477 1.393 . S
C2474 H2466 0.950 . S
C2474 C2472 1.391 . S
C2474 C2475 1.400 . S
C2475 C2474 1.400 . S
C2475 C2476 1.398 . S
C2475 C2481 1.491 . S
C2476 H2467 0.950 . S
C2476 C2475 1.398 . S
C2476 C2477 1.391 . S
C2477 H2465 0.950 . S
C2477 C2473 1.393 . S
C2477 C2476 1.391 . S
C2478 H2468 0.950 . S
C2478 C2479 1.386 . S
C2478 C2480 1.391 . S
C2479 C2478 1.386 . S
C2479 C2483 1.393 . S
C2480 H2469 0.950 . S
C2480 C2478 1.391 . S
C2480 C2481 1.400 . S
C2481 C2475 1.491 . S
C2481 C2480 1.400 . S
C2481 C2482 1.398 . S
C2482 H2470 0.950 . S
C2482 C2481 1.398 . S
C2482 C2483 1.391 . S
C2483 H2471 0.950 . S
C2483 C2479 1.393 . S
C2483 C2482 1.391 . S
H2484 C2492 0.950 . S
H2485 C2497 0.950 . S
H2486 C2494 0.950 . S
H2487 C2496 0.950 . S
H2488 C2498 0.950 . S
H2489 C2500 0.950 . S
H2490 C2502 0.950 . S
H2491 C2503 0.950 . S
C2492 H2484 0.950 . S
C2492 C2493 1.386 . S
C2492 C2494 1.391 . S
C2493 C2492 1.386 . S
C2493 C2497 1.393 . S
C2494 H2486 0.950 . S
C2494 C2492 1.391 . S
C2494 C2495 1.400 . S
C2495 C2494 1.400 . S
C2495 C2496 1.398 . S
C2495 C2501 1.491 . S
C2496 H2487 0.950 . S
C2496 C2495 1.398 . S
C2496 C2497 1.391 . S
C2497 H2485 0.950 . S
C2497 C2493 1.393 . S
C2497 C2496 1.391 . S
C2498 H2488 0.950 . S
C2498 C2499 1.386 . S
C2498 C2500 1.391 . S
C2499 C2498 1.386 . S
C2499 C2503 1.393 . S
C2500 H2489 0.950 . S
C2500 C2498 1.391 . S
C2500 C2501 1.400 . S
C2501 C2495 1.491 . S
C2501 C2500 1.400 . S
C2501 C2502 1.398 . S
C2502 H2490 0.950 . S
C2502 C2501 1.398 . S
C2502 C2503 1.391 . S
C2503 H2491 0.950 . S
C2503 C2499 1.393 . S
C2503 C2502 1.391 . S
H2504 C2512 0.950 . S
H2505 C2517 0.950 1_554 S
H2506 C2514 0.950 . S
H2507 C2516 0.950 . S
H2508 C2518 0.950 . S
H2509 C2520 0.950 . S
H2510 C2522 0.950 . S
H2511 C2523 0.950 1_556 S
C2512 H2504 0.950 . S
C2512 C2513 1.386 . S
C2512 C2514 1.391 . S
C2513 C2512 1.386 . S
C2513 C2517 1.393 . S
C2514 H2506 0.950 . S
C2514 C2512 1.391 . S
C2514 C2515 1.400 . S
C2515 C2514 1.400 . S
C2515 C2516 1.398 1_556 S
C2515 C2521 1.491 1_556 S
C2516 H2507 0.950 . S
C2516 C2515 1.398 1_554 S
C2516 C2517 1.391 1_554 S
C2517 H2505 0.950 1_556 S
C2517 C2513 1.393 . S
C2517 C2516 1.391 1_556 S
C2518 H2508 0.950 . S
C2518 C2519 1.386 . S
C2518 C2520 1.391 . S
C2519 C2518 1.386 . S
C2519 C2523 1.393 . S
C2520 H2509 0.950 . S
C2520 C2518 1.391 . S
C2520 C2521 1.400 . S
C2521 C2515 1.491 1_554 S
C2521 C2520 1.400 . S
C2521 C2522 1.398 1_554 S
C2522 H2510 0.950 . S
C2522 C2521 1.398 1_556 S
C2522 C2523 1.391 1_556 S
C2523 H2511 0.950 1_554 S
C2523 C2519 1.393 . S
C2523 C2522 1.391 1_554 S
H2524 C2532 0.950 . S
H2525 C2537 0.950 1_455 S
H2526 C2534 0.950 . S
H2527 C2536 0.950 . S
H2528 C2538 0.950 . S
H2529 C2540 0.950 . S
H2530 C2542 0.950 . S
H2531 C2543 0.950 . S
C2532 H2524 0.950 . S
C2532 C2533 1.386 . S
C2532 C2534 1.391 . S
C2533 C2532 1.386 . S
C2533 C2537 1.393 . S
C2534 H2526 0.950 . S
C2534 C2532 1.391 . S
C2534 C2535 1.400 . S
C2535 C2534 1.400 . S
C2535 C2536 1.398 . S
C2535 C2541 1.491 . S
C2536 H2527 0.950 . S
C2536 C2535 1.398 . S
C2536 C2537 1.391 . S
C2537 H2525 0.950 1_655 S
C2537 C2533 1.393 . S
C2537 C2536 1.391 . S
C2538 H2528 0.950 . S
C2538 C2539 1.386 . S
C2538 C2540 1.391 . S
C2539 C2538 1.386 . S
C2539 C2543 1.393 . S
C2540 H2529 0.950 . S
C2540 C2538 1.391 . S
C2540 C2541 1.400 . S
C2541 C2535 1.491 . S
C2541 C2540 1.400 . S
C2541 C2542 1.398 . S
C2542 H2530 0.950 . S
C2542 C2541 1.398 . S
C2542 C2543 1.391 . S
C2543 H2531 0.950 . S
C2543 C2539 1.393 . S
C2543 C2542 1.391 . S
H2544 C2552 0.950 . S
H2545 C2557 0.950 . S
H2546 C2554 0.950 . S
H2547 C2556 0.950 . S
H2548 C2558 0.950 . S
H2549 C2560 0.950 . S
H2550 C2562 0.950 . S
H2551 C2563 0.950 . S
C2552 H2544 0.950 . S
C2552 C2553 1.386 . S
C2552 C2554 1.391 . S
C2553 C2552 1.386 . S
C2553 C2557 1.393 . S
C2554 H2546 0.950 . S
C2554 C2552 1.391 . S
C2554 C2555 1.400 . S
C2555 C2554 1.400 . S
C2555 C2556 1.398 . S
C2555 C2561 1.491 . S
C2556 H2547 0.950 . S
C2556 C2555 1.398 . S
C2556 C2557 1.391 . S
C2557 H2545 0.950 . S
C2557 C2553 1.393 . S
C2557 C2556 1.391 . S
C2558 H2548 0.950 . S
C2558 C2559 1.386 . S
C2558 C2560 1.391 . S
C2559 C2558 1.386 . S
C2559 C2563 1.393 . S
C2560 H2549 0.950 . S
C2560 C2558 1.391 . S
C2560 C2561 1.400 . S
C2561 C2555 1.491 . S
C2561 C2560 1.400 . S
C2561 C2562 1.398 . S
C2562 H2550 0.950 . S
C2562 C2561 1.398 . S
C2562 C2563 1.391 . S
C2563 H2551 0.950 . S
C2563 C2559 1.393 . S
C2563 C2562 1.391 . S
H2564 C2572 0.950 . S
H2565 C2577 0.950 . S
H2566 C2574 0.950 . S
H2567 C2576 0.950 . S
H2568 C2578 0.950 . S
H2569 C2580 0.950 . S
H2570 C2582 0.950 . S
H2571 C2583 0.950 . S
C2572 H2564 0.950 . S
C2572 C2573 1.386 . S
C2572 C2574 1.391 . S
C2573 C2572 1.386 . S
C2573 C2577 1.393 . S
C2574 H2566 0.950 . S
C2574 C2572 1.391 . S
C2574 C2575 1.400 . S
C2575 C2574 1.400 . S
C2575 C2576 1.398 . S
C2575 C2581 1.491 . S
C2576 H2567 0.950 . S
C2576 C2575 1.398 . S
C2576 C2577 1.391 . S
C2577 H2565 0.950 . S
C2577 C2573 1.393 . S
C2577 C2576 1.391 . S
C2578 H2568 0.950 . S
C2578 C2579 1.386 . S
C2578 C2580 1.391 . S
C2579 C2578 1.386 . S
C2579 C2583 1.393 . S
C2580 H2569 0.950 . S
C2580 C2578 1.391 . S
C2580 C2581 1.400 . S
C2581 C2575 1.491 . S
C2581 C2580 1.400 . S
C2581 C2582 1.398 . S
C2582 H2570 0.950 . S
C2582 C2581 1.398 . S
C2582 C2583 1.391 . S
C2583 H2571 0.950 . S
C2583 C2579 1.393 . S
C2583 C2582 1.391 . S
H2584 C2592 0.950 . S
H2585 C2597 0.950 . S
H2586 C2594 0.950 . S
H2587 C2596 0.950 . S
H2588 C2598 0.950 . S
H2589 C2600 0.950 . S
H2590 C2602 0.950 . S
H2591 C2603 0.950 . S
C2592 H2584 0.950 . S
C2592 C2593 1.386 . S
C2592 C2594 1.391 . S
C2593 C2592 1.386 . S
C2593 C2597 1.393 . S
C2594 H2586 0.950 . S
C2594 C2592 1.391 . S
C2594 C2595 1.400 . S
C2595 C2594 1.400 . S
C2595 C2596 1.398 . S
C2595 C2601 1.491 . S
C2596 H2587 0.950 . S
C2596 C2595 1.398 . S
C2596 C2597 1.391 . S
C2597 H2585 0.950 . S
C2597 C2593 1.393 . S
C2597 C2596 1.391 . S
C2598 H2588 0.950 . S
C2598 C2599 1.386 . S
C2598 C2600 1.391 . S
C2599 C2598 1.386 . S
C2599 C2603 1.393 . S
C2600 H2589 0.950 . S
C2600 C2598 1.391 . S
C2600 C2601 1.400 . S
C2601 C2595 1.491 . S
C2601 C2600 1.400 . S
C2601 C2602 1.398 . S
C2602 H2590 0.950 . S
C2602 C2601 1.398 . S
C2602 C2603 1.391 . S
C2603 H2591 0.950 . S
C2603 C2599 1.393 . S
C2603 C2602 1.391 . S
H2604 C2612 0.950 . S
H2605 C2617 0.950 . S
H2606 C2614 0.950 . S
H2607 C2616 0.950 . S
H2608 C2618 0.950 . S
H2609 C2620 0.950 . S
H2610 C2622 0.950 . S
H2611 C2623 0.950 . S
C2612 H2604 0.950 . S
C2612 C2613 1.386 . S
C2612 C2614 1.391 . S
C2613 C2612 1.386 . S
C2613 C2617 1.393 . S
C2614 H2606 0.950 . S
C2614 C2612 1.391 . S
C2614 C2615 1.400 . S
C2615 C2614 1.400 . S
C2615 C2616 1.398 . S
C2615 C2621 1.491 . S
C2616 H2607 0.950 . S
C2616 C2615 1.398 . S
C2616 C2617 1.391 . S
C2617 H2605 0.950 . S
C2617 C2613 1.393 . S
C2617 C2616 1.391 . S
C2618 H2608 0.950 . S
C2618 C2619 1.386 . S
C2618 C2620 1.391 . S
C2619 C2618 1.386 . S
C2619 C2623 1.393 . S
C2620 H2609 0.950 . S
C2620 C2618 1.391 . S
C2620 C2621 1.400 . S
C2621 C2615 1.491 . S
C2621 C2620 1.400 . S
C2621 C2622 1.398 . S
C2622 H2610 0.950 . S
C2622 C2621 1.398 . S
C2622 C2623 1.391 . S
C2623 H2611 0.950 . S
C2623 C2619 1.393 . S
C2623 C2622 1.391 . S
H2624 C2632 0.950 . S
H2625 C2637 0.950 . S
H2626 C2634 0.950 . S
H2627 C2636 0.950 . S
H2628 C2638 0.950 . S
H2629 C2640 0.950 . S
H2630 C2642 0.950 . S
H2631 C2643 0.950 . S
C2632 H2624 0.950 . S
C2632 C2633 1.386 . S
C2632 C2634 1.391 . S
C2633 C2632 1.386 . S
C2633 C2637 1.393 . S
C2634 H2626 0.950 . S
C2634 C2632 1.391 . S
C2634 C2635 1.400 . S
C2635 C2634 1.400 . S
C2635 C2636 1.398 . S
C2635 C2641 1.491 . S
C2636 H2627 0.950 . S
C2636 C2635 1.398 . S
C2636 C2637 1.391 . S
C2637 H2625 0.950 . S
C2637 C2633 1.393 . S
C2637 C2636 1.391 . S
C2638 H2628 0.950 . S
C2638 C2639 1.386 . S
C2638 C2640 1.391 . S
C2639 C2638 1.386 . S
C2639 C2643 1.393 . S
C2640 H2629 0.950 . S
C2640 C2638 1.391 . S
C2640 C2641 1.400 . S
C2641 C2635 1.491 . S
C2641 C2640 1.400 . S
C2641 C2642 1.398 . S
C2642 H2630 0.950 . S
C2642 C2641 1.398 . S
C2642 C2643 1.391 . S
C2643 H2631 0.950 . S
C2643 C2639 1.393 . S
C2643 C2642 1.391 . S
H2644 C2652 0.950 . S
H2645 C2657 0.950 . S
H2646 C2654 0.950 . S
H2647 C2656 0.950 . S
H2648 C2658 0.950 . S
H2649 C2660 0.950 . S
H2650 C2662 0.950 . S
H2651 C2663 0.950 . S
C2652 H2644 0.950 . S
C2652 C2653 1.386 . S
C2652 C2654 1.391 1_554 S
C2653 C2652 1.386 . S
C2653 C2657 1.393 . S
C2654 H2646 0.950 . S
C2654 C2652 1.391 1_556 S
C2654 C2655 1.400 . S
C2655 C2654 1.400 . S
C2655 C2656 1.398 1_556 S
C2655 C2661 1.491 . S
C2656 H2647 0.950 . S
C2656 C2655 1.398 1_554 S
C2656 C2657 1.391 . S
C2657 H2645 0.950 . S
C2657 C2653 1.393 . S
C2657 C2656 1.391 . S
C2658 H2648 0.950 . S
C2658 C2659 1.386 . S
C2658 C2660 1.391 . S
C2659 C2658 1.386 . S
C2659 C2663 1.393 . S
C2660 H2649 0.950 . S
C2660 C2658 1.391 . S
C2660 C2661 1.400 . S
C2661 C2655 1.491 . S
C2661 C2660 1.400 . S
C2661 C2662 1.398 . S
C2662 H2650 0.950 . S
C2662 C2661 1.398 . S
C2662 C2663 1.391 . S
C2663 H2651 0.950 . S
C2663 C2659 1.393 . S
C2663 C2662 1.391 . S
H2664 C2672 0.950 . S
H2665 C2677 0.950 . S
H2666 C2674 0.950 . S
H2667 C2676 0.950 . S
H2668 C2678 0.950 . S
H2669 C2680 0.950 . S
H2670 C2682 0.950 . S
H2671 C2683 0.950 . S
C2672 H2664 0.950 . S
C2672 C2673 1.386 . S
C2672 C2674 1.391 . S
C2673 C2672 1.386 . S
C2673 C2677 1.393 . S
C2674 H2666 0.950 . S
C2674 C2672 1.391 . S
C2674 C2675 1.400 . S
C2675 C2674 1.400 . S
C2675 C2676 1.398 . S
C2675 C2681 1.491 . S
C2676 H2667 0.950 . S
C2676 C2675 1.398 . S
C2676 C2677 1.391 . S
C2677 H2665 0.950 . S
C2677 C2673 1.393 . S
C2677 C2676 1.391 . S
C2678 H2668 0.950 . S
C2678 C2679 1.386 . S
C2678 C2680 1.391 . S
C2679 C2678 1.386 . S
C2679 C2683 1.393 . S
C2680 H2669 0.950 . S
C2680 C2678 1.391 . S
C2680 C2681 1.400 . S
C2681 C2675 1.491 . S
C2681 C2680 1.400 . S
C2681 C2682 1.398 . S
C2682 H2670 0.950 . S
C2682 C2681 1.398 . S
C2682 C2683 1.391 . S
C2683 H2671 0.950 . S
C2683 C2679 1.393 . S
C2683 C2682 1.391 . S
H2684 C2692 0.950 . S
H2685 C2697 0.950 . S
H2686 C2694 0.950 . S
H2687 C2696 0.950 . S
H2688 C2698 0.950 . S
H2689 C2700 0.950 . S
H2690 C2702 0.950 . S
H2691 C2703 0.950 . S
C2692 H2684 0.950 . S
C2692 C2693 1.386 . S
C2692 C2694 1.391 . S
C2693 C2692 1.386 . S
C2693 C2697 1.393 . S
C2694 H2686 0.950 . S
C2694 C2692 1.391 . S
C2694 C2695 1.400 . S
C2695 C2694 1.400 . S
C2695 C2696 1.398 . S
C2695 C2701 1.491 . S
C2696 H2687 0.950 . S
C2696 C2695 1.398 . S
C2696 C2697 1.391 . S
C2697 H2685 0.950 . S
C2697 C2693 1.393 . S
C2697 C2696 1.391 . S
C2698 H2688 0.950 . S
C2698 C2699 1.386 . S
C2698 C2700 1.391 . S
C2699 C2698 1.386 . S
C2699 C2703 1.393 . S
C2700 H2689 0.950 . S
C2700 C2698 1.391 . S
C2700 C2701 1.400 . S
C2701 C2695 1.491 . S
C2701 C2700 1.400 . S
C2701 C2702 1.398 . S
C2702 H2690 0.950 . S
C2702 C2701 1.398 . S
C2702 C2703 1.391 . S
C2703 H2691 0.950 . S
C2703 C2699 1.393 . S
C2703 C2702 1.391 . S
H2704 C2712 0.950 . S
H2705 C2717 0.950 . S
H2706 C2714 0.950 . S
H2707 C2716 0.950 . S
H2708 C2718 0.950 . S
H2709 C2720 0.950 . S
H2710 C2722 0.950 . S
H2711 C2723 0.950 . S
C2712 H2704 0.950 . S
C2712 C2713 1.386 . S
C2712 C2714 1.391 . S
C2713 C2712 1.386 . S
C2713 C2717 1.393 . S
C2714 H2706 0.950 . S
C2714 C2712 1.391 . S
C2714 C2715 1.400 . S
C2715 C2714 1.400 . S
C2715 C2716 1.398 . S
C2715 C2721 1.491 . S
C2716 H2707 0.950 . S
C2716 C2715 1.398 . S
C2716 C2717 1.391 . S
C2717 H2705 0.950 . S
C2717 C2713 1.393 . S
C2717 C2716 1.391 . S
C2718 H2708 0.950 . S
C2718 C2719 1.386 . S
C2718 C2720 1.391 . S
C2719 C2718 1.386 . S
C2719 C2723 1.393 . S
C2720 H2709 0.950 . S
C2720 C2718 1.391 . S
C2720 C2721 1.400 . S
C2721 C2715 1.491 . S
C2721 C2720 1.400 . S
C2721 C2722 1.398 . S
C2722 H2710 0.950 . S
C2722 C2721 1.398 . S
C2722 C2723 1.391 . S
C2723 H2711 0.950 . S
C2723 C2719 1.393 . S
C2723 C2722 1.391 . S
H2724 C2732 0.950 . S
H2725 C2737 0.950 . S
H2726 C2734 0.950 . S
H2727 C2736 0.950 . S
H2728 C2738 0.950 . S
H2729 C2740 0.950 . S
H2730 C2742 0.950 . S
H2731 C2743 0.950 . S
C2732 H2724 0.950 . S
C2732 C2733 1.386 . S
C2732 C2734 1.391 . S
C2733 C2732 1.386 . S
C2733 C2737 1.393 . S
C2734 H2726 0.950 . S
C2734 C2732 1.391 . S
C2734 C2735 1.400 . S
C2735 C2734 1.400 . S
C2735 C2736 1.398 . S
C2735 C2741 1.491 . S
C2736 H2727 0.950 . S
C2736 C2735 1.398 . S
C2736 C2737 1.391 . S
C2737 H2725 0.950 . S
C2737 C2733 1.393 . S
C2737 C2736 1.391 . S
C2738 H2728 0.950 . S
C2738 C2739 1.386 . S
C2738 C2740 1.391 . S
C2739 C2738 1.386 . S
C2739 C2743 1.393 . S
C2740 H2729 0.950 . S
C2740 C2738 1.391 . S
C2740 C2741 1.400 . S
C2741 C2735 1.491 . S
C2741 C2740 1.400 . S
C2741 C2742 1.398 . S
C2742 H2730 0.950 . S
C2742 C2741 1.398 . S
C2742 C2743 1.391 . S
C2743 H2731 0.950 . S
C2743 C2739 1.393 . S
C2743 C2742 1.391 . S
H2744 C2752 0.950 . S
H2745 C2757 0.950 . S
H2746 C2754 0.950 . S
H2747 C2756 0.950 . S
H2748 C2758 0.950 . S
H2749 C2760 0.950 . S
H2750 C2762 0.950 . S
H2751 C2763 0.950 . S
C2752 H2744 0.950 . S
C2752 C2753 1.386 . S
C2752 C2754 1.391 . S
C2753 C2752 1.386 . S
C2753 C2757 1.393 . S
C2754 H2746 0.950 . S
C2754 C2752 1.391 . S
C2754 C2755 1.400 . S
C2755 C2754 1.400 . S
C2755 C2756 1.398 . S
C2755 C2761 1.491 . S
C2756 H2747 0.950 . S
C2756 C2755 1.398 . S
C2756 C2757 1.391 . S
C2757 H2745 0.950 . S
C2757 C2753 1.393 . S
C2757 C2756 1.391 . S
C2758 H2748 0.950 . S
C2758 C2759 1.386 . S
C2758 C2760 1.391 . S
C2759 C2758 1.386 . S
C2759 C2763 1.393 . S
C2760 H2749 0.950 . S
C2760 C2758 1.391 . S
C2760 C2761 1.400 . S
C2761 C2755 1.491 . S
C2761 C2760 1.400 . S
C2761 C2762 1.398 . S
C2762 H2750 0.950 . S
C2762 C2761 1.398 . S
C2762 C2763 1.391 . S
C2763 H2751 0.950 . S
C2763 C2759 1.393 . S
C2763 C2762 1.391 . S
H2764 C2772 0.950 . S
H2765 C2777 0.950 . S
H2766 C2774 0.950 . S
H2767 C2776 0.950 . S
H2768 C2778 0.950 . S
H2769 C2780 0.950 . S
H2770 C2782 0.950 . S
H2771 C2783 0.950 . S
C2772 H2764 0.950 . S
C2772 C2773 1.386 . S
C2772 C2774 1.391 . S
C2773 C2772 1.386 . S
C2773 C2777 1.393 . S
C2774 H2766 0.950 . S
C2774 C2772 1.391 . S
C2774 C2775 1.400 . S
C2775 C2774 1.400 . S
C2775 C2776 1.398 . S
C2775 C2781 1.491 . S
C2776 H2767 0.950 . S
C2776 C2775 1.398 . S
C2776 C2777 1.391 . S
C2777 H2765 0.950 . S
C2777 C2773 1.393 . S
C2777 C2776 1.391 . S
C2778 H2768 0.950 . S
C2778 C2779 1.386 . S
C2778 C2780 1.391 . S
C2779 C2778 1.386 . S
C2779 C2783 1.393 . S
C2780 H2769 0.950 . S
C2780 C2778 1.391 . S
C2780 C2781 1.400 . S
C2781 C2775 1.491 . S
C2781 C2780 1.400 . S
C2781 C2782 1.398 . S
C2782 H2770 0.950 . S
C2782 C2781 1.398 . S
C2782 C2783 1.391 . S
C2783 H2771 0.950 . S
C2783 C2779 1.393 . S
C2783 C2782 1.391 . S
H2784 C2792 0.950 . S
H2785 C2797 0.950 . S
H2786 C2794 0.950 . S
H2787 C2796 0.950 . S
H2788 C2798 0.950 . S
H2789 C2800 0.950 . S
H2790 C2802 0.950 . S
H2791 C2803 0.950 . S
C2792 H2784 0.950 . S
C2792 C2793 1.386 . S
C2792 C2794 1.391 . S
C2793 C2792 1.386 . S
C2793 C2797 1.393 . S
C2794 H2786 0.950 . S
C2794 C2792 1.391 . S
C2794 C2795 1.400 . S
C2795 C2794 1.400 . S
C2795 C2796 1.398 . S
C2795 C2801 1.491 . S
C2796 H2787 0.950 . S
C2796 C2795 1.398 . S
C2796 C2797 1.391 . S
C2797 H2785 0.950 . S
C2797 C2793 1.393 . S
C2797 C2796 1.391 . S
C2798 H2788 0.950 . S
C2798 C2799 1.386 . S
C2798 C2800 1.391 . S
C2799 C2798 1.386 . S
C2799 C2803 1.393 . S
C2800 H2789 0.950 . S
C2800 C2798 1.391 . S
C2800 C2801 1.400 . S
C2801 C2795 1.491 . S
C2801 C2800 1.400 . S
C2801 C2802 1.398 . S
C2802 H2790 0.950 . S
C2802 C2801 1.398 . S
C2802 C2803 1.391 . S
C2803 H2791 0.950 . S
C2803 C2799 1.393 . S
C2803 C2802 1.391 . S
H2804 C2812 0.950 . S
H2805 C2817 0.950 . S
H2806 C2814 0.950 . S
H2807 C2816 0.950 . S
H2808 C2818 0.950 . S
H2809 C2820 0.950 . S
H2810 C2822 0.950 . S
H2811 C2823 0.950 . S
C2812 H2804 0.950 . S
C2812 C2813 1.386 . S
C2812 C2814 1.391 . S
C2813 C2812 1.386 . S
C2813 C2817 1.393 . S
C2814 H2806 0.950 . S
C2814 C2812 1.391 . S
C2814 C2815 1.400 . S
C2815 C2814 1.400 . S
C2815 C2816 1.398 . S
C2815 C2821 1.491 . S
C2816 H2807 0.950 . S
C2816 C2815 1.398 . S
C2816 C2817 1.391 . S
C2817 H2805 0.950 . S
C2817 C2813 1.393 . S
C2817 C2816 1.391 . S
C2818 H2808 0.950 . S
C2818 C2819 1.386 . S
C2818 C2820 1.391 . S
C2819 C2818 1.386 . S
C2819 C2823 1.393 . S
C2820 H2809 0.950 . S
C2820 C2818 1.391 . S
C2820 C2821 1.400 . S
C2821 C2815 1.491 . S
C2821 C2820 1.400 . S
C2821 C2822 1.398 . S
C2822 H2810 0.950 . S
C2822 C2821 1.398 . S
C2822 C2823 1.391 . S
C2823 H2811 0.950 . S
C2823 C2819 1.393 . S
C2823 C2822 1.391 . S
H2824 C2832 0.950 . S
H2825 C2837 0.950 1_545 S
H2826 C2834 0.950 . S
H2827 C2836 0.950 . S
H2828 C2838 0.950 . S
H2829 C2840 0.950 . S
H2830 C2842 0.950 . S
H2831 C2843 0.950 . S
C2832 H2824 0.950 . S
C2832 C2833 1.386 . S
C2832 C2834 1.391 . S
C2833 C2832 1.386 . S
C2833 C2837 1.393 . S
C2834 H2826 0.950 . S
C2834 C2832 1.391 . S
C2834 C2835 1.400 . S
C2835 C2834 1.400 . S
C2835 C2836 1.398 . S
C2835 C2841 1.491 . S
C2836 H2827 0.950 . S
C2836 C2835 1.398 . S
C2836 C2837 1.391 . S
C2837 H2825 0.950 1_565 S
C2837 C2833 1.393 . S
C2837 C2836 1.391 . S
C2838 H2828 0.950 . S
C2838 C2839 1.386 . S
C2838 C2840 1.391 . S
C2839 C2838 1.386 . S
C2839 C2843 1.393 . S
C2840 H2829 0.950 . S
C2840 C2838 1.391 . S
C2840 C2841 1.400 . S
C2841 C2835 1.491 . S
C2841 C2840 1.400 . S
C2841 C2842 1.398 . S
C2842 H2830 0.950 . S
C2842 C2841 1.398 . S
C2842 C2843 1.391 . S
C2843 H2831 0.950 . S
C2843 C2839 1.393 . S
C2843 C2842 1.391 . S
H2844 C2852 0.950 . S
H2845 C2857 0.950 . S
H2846 C2854 0.950 . S
H2847 C2856 0.950 . S
H2848 C2858 0.950 1_556 S
H2849 C2860 0.950 1_556 S
H2850 C2862 0.950 . S
H2851 C2863 0.950 . S
C2852 H2844 0.950 . S
C2852 C2853 1.386 . S
C2852 C2854 1.391 . S
C2853 C2852 1.386 . S
C2853 C2857 1.393 1_554 S
C2854 H2846 0.950 . S
C2854 C2852 1.391 . S
C2854 C2855 1.400 . S
C2855 C2854 1.400 . S
C2855 C2856 1.398 1_554 S
C2855 C2861 1.491 . S
C2856 H2847 0.950 . S
C2856 C2855 1.398 1_556 S
C2856 C2857 1.391 . S
C2857 H2845 0.950 . S
C2857 C2853 1.393 1_556 S
C2857 C2856 1.391 . S
C2858 H2848 0.950 1_554 S
C2858 C2859 1.386 . S
C2858 C2860 1.391 . S
C2859 C2858 1.386 . S
C2859 C2863 1.393 . S
C2860 H2849 0.950 1_554 S
C2860 C2858 1.391 . S
C2860 C2861 1.400 . S
C2861 C2855 1.491 . S
C2861 C2860 1.400 . S
C2861 C2862 1.398 . S
C2862 H2850 0.950 . S
C2862 C2861 1.398 . S
C2862 C2863 1.391 . S
C2863 H2851 0.950 . S
C2863 C2859 1.393 . S
C2863 C2862 1.391 . S
H2864 C2872 0.950 . S
H2865 C2877 0.950 . S
H2866 C2874 0.950 . S
H2867 C2876 0.950 . S
H2868 C2878 0.950 . S
H2869 C2880 0.950 . S
H2870 C2882 0.950 . S
H2871 C2883 0.950 . S
C2872 H2864 0.950 . S
C2872 C2873 1.386 . S
C2872 C2874 1.391 . S
C2873 C2872 1.386 . S
C2873 C2877 1.393 . S
C2874 H2866 0.950 . S
C2874 C2872 1.391 . S
C2874 C2875 1.400 . S
C2875 C2874 1.400 . S
C2875 C2876 1.398 . S
C2875 C2881 1.491 . S
C2876 H2867 0.950 . S
C2876 C2875 1.398 . S
C2876 C2877 1.391 . S
C2877 H2865 0.950 . S
C2877 C2873 1.393 . S
C2877 C2876 1.391 . S
C2878 H2868 0.950 . S
C2878 C2879 1.386 . S
C2878 C2880 1.391 . S
C2879 C2878 1.386 . S
C2879 C2883 1.393 . S
C2880 H2869 0.950 . S
C2880 C2878 1.391 . S
C2880 C2881 1.400 . S
C2881 C2875 1.491 . S
C2881 C2880 1.400 . S
C2881 C2882 1.398 . S
C2882 H2870 0.950 . S
C2882 C2881 1.398 . S
C2882 C2883 1.391 . S
C2883 H2871 0.950 . S
C2883 C2879 1.393 . S
C2883 C2882 1.391 . S
H2884 C2892 0.950 . S
H2885 C2897 0.950 . S
H2886 C2894 0.950 . S
H2887 C2896 0.950 . S
H2888 C2898 0.950 . S
H2889 C2900 0.950 . S
H2890 C2902 0.950 . S
H2891 C2903 0.950 . S
C2892 H2884 0.950 . S
C2892 C2893 1.386 . S
C2892 C2894 1.391 . S
C2893 C2892 1.386 . S
C2893 C2897 1.393 . S
C2894 H2886 0.950 . S
C2894 C2892 1.391 . S
C2894 C2895 1.400 . S
C2895 C2894 1.400 . S
C2895 C2896 1.398 . S
C2895 C2901 1.491 . S
C2896 H2887 0.950 . S
C2896 C2895 1.398 . S
C2896 C2897 1.391 . S
C2897 H2885 0.950 . S
C2897 C2893 1.393 . S
C2897 C2896 1.391 . S
C2898 H2888 0.950 . S
C2898 C2899 1.386 . S
C2898 C2900 1.391 . S
C2899 C2898 1.386 . S
C2899 C2903 1.393 . S
C2900 H2889 0.950 . S
C2900 C2898 1.391 . S
C2900 C2901 1.400 . S
C2901 C2895 1.491 . S
C2901 C2900 1.400 . S
C2901 C2902 1.398 . S
C2902 H2890 0.950 . S
C2902 C2901 1.398 . S
C2902 C2903 1.391 . S
C2903 H2891 0.950 . S
C2903 C2899 1.393 . S
C2903 C2902 1.391 . S
H2904 C2912 0.950 . S
H2905 C2917 0.950 . S
H2906 C2914 0.950 . S
H2907 C2916 0.950 . S
H2908 C2918 0.950 . S
H2909 C2920 0.950 . S
H2910 C2922 0.950 . S
H2911 C2923 0.950 . S
C2912 H2904 0.950 . S
C2912 C2913 1.386 . S
C2912 C2914 1.391 . S
C2913 C2912 1.386 . S
C2913 C2917 1.393 . S
C2914 H2906 0.950 . S
C2914 C2912 1.391 . S
C2914 C2915 1.400 . S
C2915 C2914 1.400 . S
C2915 C2916 1.398 . S
C2915 C2921 1.491 . S
C2916 H2907 0.950 . S
C2916 C2915 1.398 . S
C2916 C2917 1.391 . S
C2917 H2905 0.950 . S
C2917 C2913 1.393 . S
C2917 C2916 1.391 . S
C2918 H2908 0.950 . S
C2918 C2919 1.386 . S
C2918 C2920 1.391 . S
C2919 C2918 1.386 . S
C2919 C2923 1.393 . S
C2920 H2909 0.950 . S
C2920 C2918 1.391 . S
C2920 C2921 1.400 . S
C2921 C2915 1.491 . S
C2921 C2920 1.400 . S
C2921 C2922 1.398 . S
C2922 H2910 0.950 . S
C2922 C2921 1.398 . S
C2922 C2923 1.391 . S
C2923 H2911 0.950 . S
C2923 C2919 1.393 . S
C2923 C2922 1.391 . S
H2924 C2932 0.950 . S
H2925 C2937 0.950 . S
H2926 C2934 0.950 . S
H2927 C2936 0.950 . S
H2928 C2938 0.950 . S
H2929 C2940 0.950 . S
H2930 C2942 0.950 . S
H2931 C2943 0.950 . S
C2932 H2924 0.950 . S
C2932 C2933 1.386 . S
C2932 C2934 1.391 . S
C2933 C2932 1.386 . S
C2933 C2937 1.393 . S
C2934 H2926 0.950 . S
C2934 C2932 1.391 . S
C2934 C2935 1.400 . S
C2935 C2934 1.400 . S
C2935 C2936 1.398 . S
C2935 C2941 1.491 . S
C2936 H2927 0.950 . S
C2936 C2935 1.398 . S
C2936 C2937 1.391 . S
C2937 H2925 0.950 . S
C2937 C2933 1.393 . S
C2937 C2936 1.391 . S
C2938 H2928 0.950 . S
C2938 C2939 1.386 . S
C2938 C2940 1.391 . S
C2939 C2938 1.386 . S
C2939 C2943 1.393 . S
C2940 H2929 0.950 . S
C2940 C2938 1.391 . S
C2940 C2941 1.400 . S
C2941 C2935 1.491 . S
C2941 C2940 1.400 . S
C2941 C2942 1.398 . S
C2942 H2930 0.950 . S
C2942 C2941 1.398 . S
C2942 C2943 1.391 . S
C2943 H2931 0.950 . S
C2943 C2939 1.393 . S
C2943 C2942 1.391 . S
H2944 C2952 0.950 . S
H2945 C2957 0.950 . S
H2946 C2954 0.950 . S
H2947 C2956 0.950 . S
H2948 C2958 0.950 . S
H2949 C2960 0.950 . S
H2950 C2962 0.950 . S
H2951 C2963 0.950 . S
C2952 H2944 0.950 . S
C2952 C2953 1.386 . S
C2952 C2954 1.391 . S
C2953 C2952 1.386 . S
C2953 C2957 1.393 . S
C2954 H2946 0.950 . S
C2954 C2952 1.391 . S
C2954 C2955 1.400 . S
C2955 C2954 1.400 . S
C2955 C2956 1.398 . S
C2955 C2961 1.491 . S
C2956 H2947 0.950 . S
C2956 C2955 1.398 . S
C2956 C2957 1.391 . S
C2957 H2945 0.950 . S
C2957 C2953 1.393 . S
C2957 C2956 1.391 . S
C2958 H2948 0.950 . S
C2958 C2959 1.386 . S
C2958 C2960 1.391 . S
C2959 C2958 1.386 . S
C2959 C2963 1.393 . S
C2960 H2949 0.950 . S
C2960 C2958 1.391 . S
C2960 C2961 1.400 . S
C2961 C2955 1.491 . S
C2961 C2960 1.400 . S
C2961 C2962 1.398 . S
C2962 H2950 0.950 . S
C2962 C2961 1.398 . S
C2962 C2963 1.391 . S
C2963 H2951 0.950 . S
C2963 C2959 1.393 . S
C2963 C2962 1.391 . S
H2964 C2972 0.950 . S
H2965 C2977 0.950 . S
H2966 C2974 0.950 . S
H2967 C2976 0.950 . S
H2968 C2978 0.950 . S
H2969 C2980 0.950 . S
H2970 C2982 0.950 . S
H2971 C2983 0.950 . S
C2972 H2964 0.950 . S
C2972 C2973 1.386 . S
C2972 C2974 1.391 . S
C2973 C2972 1.386 . S
C2973 C2977 1.393 . S
C2974 H2966 0.950 . S
C2974 C2972 1.391 . S
C2974 C2975 1.400 . S
C2975 C2974 1.400 . S
C2975 C2976 1.398 . S
C2975 C2981 1.491 . S
C2976 H2967 0.950 . S
C2976 C2975 1.398 . S
C2976 C2977 1.391 . S
C2977 H2965 0.950 . S
C2977 C2973 1.393 . S
C2977 C2976 1.391 . S
C2978 H2968 0.950 . S
C2978 C2979 1.386 . S
C2978 C2980 1.391 . S
C2979 C2978 1.386 . S
C2979 C2983 1.393 . S
C2980 H2969 0.950 . S
C2980 C2978 1.391 . S
C2980 C2981 1.400 . S
C2981 C2975 1.491 . S
C2981 C2980 1.400 . S
C2981 C2982 1.398 . S
C2982 H2970 0.950 . S
C2982 C2981 1.398 . S
C2982 C2983 1.391 . S
C2983 H2971 0.950 . S
C2983 C2979 1.393 . S
C2983 C2982 1.391 . S
H2984 C2992 0.950 . S
H2985 C2997 0.950 . S
H2986 C2994 0.950 . S
H2987 C2996 0.950 . S
H2988 C2998 0.950 . S
H2989 C3000 0.950 . S
H2990 C3002 0.950 . S
H2991 C3003 0.950 . S
C2992 H2984 0.950 . S
C2992 C2993 1.386 . S
C2992 C2994 1.391 . S
C2993 C2992 1.386 . S
C2993 C2997 1.393 . S
C2994 H2986 0.950 . S
C2994 C2992 1.391 . S
C2994 C2995 1.400 . S
C2995 C2994 1.400 . S
C2995 C2996 1.398 . S
C2995 C3001 1.491 . S
C2996 H2987 0.950 . S
C2996 C2995 1.398 . S
C2996 C2997 1.391 . S
C2997 H2985 0.950 . S
C2997 C2993 1.393 . S
C2997 C2996 1.391 . S
C2998 H2988 0.950 . S
C2998 C2999 1.386 . S
C2998 C3000 1.391 . S
C2999 C2998 1.386 . S
C2999 C3003 1.393 . S
C3000 H2989 0.950 . S
C3000 C2998 1.391 . S
C3000 C3001 1.400 . S
C3001 C2995 1.491 . S
C3001 C3000 1.400 . S
C3001 C3002 1.398 . S
C3002 H2990 0.950 . S
C3002 C3001 1.398 . S
C3002 C3003 1.391 . S
C3003 H2991 0.950 . S
C3003 C2999 1.393 . S
C3003 C3002 1.391 . S
H3004 C3012 0.950 . S
H3005 C3017 0.950 . S
H3006 C3014 0.950 . S
H3007 C3016 0.950 . S
H3008 C3018 0.950 . S
H3009 C3020 0.950 . S
H3010 C3022 0.950 . S
H3011 C3023 0.950 . S
C3012 H3004 0.950 . S
C3012 C3013 1.386 . S
C3012 C3014 1.391 . S
C3013 C3012 1.386 . S
C3013 C3017 1.393 . S
C3014 H3006 0.950 . S
C3014 C3012 1.391 . S
C3014 C3015 1.400 . S
C3015 C3014 1.400 . S
C3015 C3016 1.398 . S
C3015 C3021 1.491 . S
C3016 H3007 0.950 . S
C3016 C3015 1.398 . S
C3016 C3017 1.391 . S
C3017 H3005 0.950 . S
C3017 C3013 1.393 . S
C3017 C3016 1.391 . S
C3018 H3008 0.950 . S
C3018 C3019 1.386 . S
C3018 C3020 1.391 . S
C3019 C3018 1.386 . S
C3019 C3023 1.393 . S
C3020 H3009 0.950 . S
C3020 C3018 1.391 . S
C3020 C3021 1.400 . S
C3021 C3015 1.491 . S
C3021 C3020 1.400 . S
C3021 C3022 1.398 . S
C3022 H3010 0.950 . S
C3022 C3021 1.398 . S
C3022 C3023 1.391 . S
C3023 H3011 0.950 . S
C3023 C3019 1.393 . S
C3023 C3022 1.391 . S
H3024 C3032 0.950 . S
H3025 C3037 0.950 . S
H3026 C3034 0.950 . S
H3027 C3036 0.950 . S
H3028 C3038 0.950 . S
H3029 C3040 0.950 . S
H3030 C3042 0.950 . S
H3031 C3043 0.950 . S
C3032 H3024 0.950 . S
C3032 C3033 1.386 . S
C3032 C3034 1.391 . S
C3033 C3032 1.386 . S
C3033 C3037 1.393 . S
C3034 H3026 0.950 . S
C3034 C3032 1.391 . S
C3034 C3035 1.400 . S
C3035 C3034 1.400 . S
C3035 C3036 1.398 . S
C3035 C3041 1.491 . S
C3036 H3027 0.950 . S
C3036 C3035 1.398 . S
C3036 C3037 1.391 . S
C3037 H3025 0.950 . S
C3037 C3033 1.393 . S
C3037 C3036 1.391 . S
C3038 H3028 0.950 . S
C3038 C3039 1.386 . S
C3038 C3040 1.391 . S
C3039 C3038 1.386 . S
C3039 C3043 1.393 . S
C3040 H3029 0.950 . S
C3040 C3038 1.391 . S
C3040 C3041 1.400 . S
C3041 C3035 1.491 . S
C3041 C3040 1.400 . S
C3041 C3042 1.398 . S
C3042 H3030 0.950 . S
C3042 C3041 1.398 . S
C3042 C3043 1.391 . S
C3043 H3031 0.950 . S
C3043 C3039 1.393 . S
C3043 C3042 1.391 . S
H3044 C3052 0.950 . S
H3045 C3057 0.950 . S
H3046 C3054 0.950 . S
H3047 C3056 0.950 . S
H3048 C3058 0.950 . S
H3049 C3060 0.950 . S
H3050 C3062 0.950 . S
H3051 C3063 0.950 . S
C3052 H3044 0.950 . S
C3052 C3053 1.386 . S
C3052 C3054 1.391 . S
C3053 C3052 1.386 . S
C3053 C3057 1.393 . S
C3054 H3046 0.950 . S
C3054 C3052 1.391 . S
C3054 C3055 1.400 . S
C3055 C3054 1.400 . S
C3055 C3056 1.398 . S
C3055 C3061 1.491 . S
C3056 H3047 0.950 . S
C3056 C3055 1.398 . S
C3056 C3057 1.391 . S
C3057 H3045 0.950 . S
C3057 C3053 1.393 . S
C3057 C3056 1.391 . S
C3058 H3048 0.950 . S
C3058 C3059 1.386 . S
C3058 C3060 1.391 . S
C3059 C3058 1.386 . S
C3059 C3063 1.393 . S
C3060 H3049 0.950 . S
C3060 C3058 1.391 . S
C3060 C3061 1.400 . S
C3061 C3055 1.491 . S
C3061 C3060 1.400 . S
C3061 C3062 1.398 . S
C3062 H3050 0.950 . S
C3062 C3061 1.398 . S
C3062 C3063 1.391 . S
C3063 H3051 0.950 . S
C3063 C3059 1.393 . S
C3063 C3062 1.391 . S
H3064 C3072 0.950 . S
H3065 C3077 0.950 . S
H3066 C3074 0.950 1_655 S
H3067 C3076 0.950 . S
H3068 C3078 0.950 . S
H3069 C3080 0.950 . S
H3070 C3082 0.950 1_655 S
H3071 C3083 0.950 . S
C3072 H3064 0.950 . S
C3072 C3073 1.386 1_655 S
C3072 C3074 1.391 1_655 S
C3073 C3072 1.386 1_455 S
C3073 C3077 1.393 . S
C3074 H3066 0.950 1_455 S
C3074 C3072 1.391 1_455 S
C3074 C3075 1.400 . S
C3075 C3074 1.400 . S
C3075 C3076 1.398 . S
C3075 C3081 1.491 . S
C3076 H3067 0.950 . S
C3076 C3075 1.398 . S
C3076 C3077 1.391 . S
C3077 H3065 0.950 . S
C3077 C3073 1.393 . S
C3077 C3076 1.391 . S
C3078 H3068 0.950 . S
C3078 C3079 1.386 . S
C3078 C3080 1.391 . S
C3079 C3078 1.386 . S
C3079 C3083 1.393 . S
C3080 H3069 0.950 . S
C3080 C3078 1.391 . S
C3080 C3081 1.400 . S
C3081 C3075 1.491 . S
C3081 C3080 1.400 . S
C3081 C3082 1.398 . S
C3082 H3070 0.950 1_455 S
C3082 C3081 1.398 . S
C3082 C3083 1.391 . S
C3083 H3071 0.950 . S
C3083 C3079 1.393 . S
C3083 C3082 1.391 . S
H3084 C3092 0.950 . S
H3085 C3097 0.950 . S
H3086 C3094 0.950 . S
H3087 C3096 0.950 . S
H3088 C3098 0.950 . S
H3089 C3100 0.950 . S
H3090 C3102 0.950 . S
H3091 C3103 0.950 . S
C3092 H3084 0.950 . S
C3092 C3093 1.386 . S
C3092 C3094 1.391 . S
C3093 C3092 1.386 . S
C3093 C3097 1.393 . S
C3094 H3086 0.950 . S
C3094 C3092 1.391 . S
C3094 C3095 1.400 . S
C3095 C3094 1.400 . S
C3095 C3096 1.398 . S
C3095 C3101 1.491 . S
C3096 H3087 0.950 . S
C3096 C3095 1.398 . S
C3096 C3097 1.391 . S
C3097 H3085 0.950 . S
C3097 C3093 1.393 . S
C3097 C3096 1.391 . S
C3098 H3088 0.950 . S
C3098 C3099 1.386 . S
C3098 C3100 1.391 . S
C3099 C3098 1.386 . S
C3099 C3103 1.393 . S
C3100 H3089 0.950 . S
C3100 C3098 1.391 . S
C3100 C3101 1.400 . S
C3101 C3095 1.491 . S
C3101 C3100 1.400 . S
C3101 C3102 1.398 . S
C3102 H3090 0.950 . S
C3102 C3101 1.398 . S
C3102 C3103 1.391 . S
C3103 H3091 0.950 . S
C3103 C3099 1.393 . S
C3103 C3102 1.391 . S
H3104 C3112 0.950 . S
H3105 C3117 0.950 . S
H3106 C3114 0.950 . S
H3107 C3116 0.950 . S
H3108 C3118 0.950 . S
H3109 C3120 0.950 . S
H3110 C3122 0.950 . S
H3111 C3123 0.950 . S
C3112 H3104 0.950 . S
C3112 C3113 1.386 . S
C3112 C3114 1.391 . S
C3113 C3112 1.386 . S
C3113 C3117 1.393 . S
C3114 H3106 0.950 . S
C3114 C3112 1.391 . S
C3114 C3115 1.400 . S
C3115 C3114 1.400 . S
C3115 C3116 1.398 . S
C3115 C3121 1.491 . S
C3116 H3107 0.950 . S
C3116 C3115 1.398 . S
C3116 C3117 1.391 . S
C3117 H3105 0.950 . S
C3117 C3113 1.393 . S
C3117 C3116 1.391 . S
C3118 H3108 0.950 . S
C3118 C3119 1.386 . S
C3118 C3120 1.391 . S
C3119 C3118 1.386 . S
C3119 C3123 1.393 . S
C3120 H3109 0.950 . S
C3120 C3118 1.391 . S
C3120 C3121 1.400 . S
C3121 C3115 1.491 . S
C3121 C3120 1.400 . S
C3121 C3122 1.398 . S
C3122 H3110 0.950 . S
C3122 C3121 1.398 . S
C3122 C3123 1.391 . S
C3123 H3111 0.950 . S
C3123 C3119 1.393 . S
C3123 C3122 1.391 . S
H3124 C3132 0.950 . S
H3125 C3137 0.950 . S
H3126 C3134 0.950 . S
H3127 C3136 0.950 . S
H3128 C3138 0.950 . S
H3129 C3140 0.950 . S
H3130 C3142 0.950 . S
H3131 C3143 0.950 . S
C3132 H3124 0.950 . S
C3132 C3133 1.386 . S
C3132 C3134 1.391 . S
C3133 C3132 1.386 . S
C3133 C3137 1.393 . S
C3134 H3126 0.950 . S
C3134 C3132 1.391 . S
C3134 C3135 1.400 . S
C3135 C3134 1.400 . S
C3135 C3136 1.398 . S
C3135 C3141 1.491 . S
C3136 H3127 0.950 . S
C3136 C3135 1.398 . S
C3136 C3137 1.391 . S
C3137 H3125 0.950 . S
C3137 C3133 1.393 . S
C3137 C3136 1.391 . S
C3138 H3128 0.950 . S
C3138 C3139 1.386 . S
C3138 C3140 1.391 . S
C3139 C3138 1.386 . S
C3139 C3143 1.393 . S
C3140 H3129 0.950 . S
C3140 C3138 1.391 . S
C3140 C3141 1.400 . S
C3141 C3135 1.491 . S
C3141 C3140 1.400 . S
C3141 C3142 1.398 . S
C3142 H3130 0.950 . S
C3142 C3141 1.398 . S
C3142 C3143 1.391 . S
C3143 H3131 0.950 . S
C3143 C3139 1.393 . S
C3143 C3142 1.391 . S
H3144 C3152 0.950 . S
H3145 C3157 0.950 . S
H3146 C3154 0.950 . S
H3147 C3156 0.950 . S
H3148 C3158 0.950 . S
H3149 C3160 0.950 . S
H3150 C3162 0.950 . S
H3151 C3163 0.950 . S
C3152 H3144 0.950 . S
C3152 C3153 1.386 . S
C3152 C3154 1.391 . S
C3153 C3152 1.386 . S
C3153 C3157 1.393 . S
C3154 H3146 0.950 . S
C3154 C3152 1.391 . S
C3154 C3155 1.400 . S
C3155 C3154 1.400 . S
C3155 C3156 1.398 . S
C3155 C3161 1.491 . S
C3156 H3147 0.950 . S
C3156 C3155 1.398 . S
C3156 C3157 1.391 . S
C3157 H3145 0.950 . S
C3157 C3153 1.393 . S
C3157 C3156 1.391 . S
C3158 H3148 0.950 . S
C3158 C3159 1.386 1_655 S
C3158 C3160 1.391 . S
C3159 C3158 1.386 1_455 S
C3159 C3163 1.393 . S
C3160 H3149 0.950 . S
C3160 C3158 1.391 . S
C3160 C3161 1.400 . S
C3161 C3155 1.491 . S
C3161 C3160 1.400 . S
C3161 C3162 1.398 1_655 S
C3162 H3150 0.950 . S
C3162 C3161 1.398 1_455 S
C3162 C3163 1.391 . S
C3163 H3151 0.950 . S
C3163 C3159 1.393 . S
C3163 C3162 1.391 . S
H3164 C3172 0.950 . S
H3165 C3177 0.950 . S
H3166 C3174 0.950 . S
H3167 C3176 0.950 . S
H3168 C3178 0.950 . S
H3169 C3180 0.950 . S
H3170 C3182 0.950 . S
H3171 C3183 0.950 . S
C3172 H3164 0.950 . S
C3172 C3173 1.386 . S
C3172 C3174 1.391 . S
C3173 C3172 1.386 . S
C3173 C3177 1.393 . S
C3174 H3166 0.950 . S
C3174 C3172 1.391 . S
C3174 C3175 1.400 . S
C3175 C3174 1.400 . S
C3175 C3176 1.398 . S
C3175 C3181 1.491 . S
C3176 H3167 0.950 . S
C3176 C3175 1.398 . S
C3176 C3177 1.391 . S
C3177 H3165 0.950 . S
C3177 C3173 1.393 . S
C3177 C3176 1.391 . S
C3178 H3168 0.950 . S
C3178 C3179 1.386 . S
C3178 C3180 1.391 . S
C3179 C3178 1.386 . S
C3179 C3183 1.393 . S
C3180 H3169 0.950 . S
C3180 C3178 1.391 . S
C3180 C3181 1.400 . S
C3181 C3175 1.491 . S
C3181 C3180 1.400 . S
C3181 C3182 1.398 . S
C3182 H3170 0.950 . S
C3182 C3181 1.398 . S
C3182 C3183 1.391 . S
C3183 H3171 0.950 . S
C3183 C3179 1.393 . S
C3183 C3182 1.391 . S
H3184 C3192 0.950 . S
H3185 C3197 0.950 . S
H3186 C3194 0.950 . S
H3187 C3196 0.950 . S
H3188 C3198 0.950 . S
H3189 C3200 0.950 . S
H3190 C3202 0.950 . S
H3191 C3203 0.950 . S
C3192 H3184 0.950 . S
C3192 C3193 1.386 . S
C3192 C3194 1.391 . S
C3193 C3192 1.386 . S
C3193 C3197 1.393 . S
C3194 H3186 0.950 . S
C3194 C3192 1.391 . S
C3194 C3195 1.400 . S
C3195 C3194 1.400 . S
C3195 C3196 1.398 . S
C3195 C3201 1.491 . S
C3196 H3187 0.950 . S
C3196 C3195 1.398 . S
C3196 C3197 1.391 . S
C3197 H3185 0.950 . S
C3197 C3193 1.393 . S
C3197 C3196 1.391 . S
C3198 H3188 0.950 . S
C3198 C3199 1.386 . S
C3198 C3200 1.391 . S
C3199 C3198 1.386 . S
C3199 C3203 1.393 . S
C3200 H3189 0.950 . S
C3200 C3198 1.391 . S
C3200 C3201 1.400 . S
C3201 C3195 1.491 . S
C3201 C3200 1.400 . S
C3201 C3202 1.398 . S
C3202 H3190 0.950 . S
C3202 C3201 1.398 . S
C3202 C3203 1.391 . S
C3203 H3191 0.950 . S
C3203 C3199 1.393 . S
C3203 C3202 1.391 . S
H3204 C3212 0.950 . S
H3205 C3217 0.950 . S
H3206 C3214 0.950 . S
H3207 C3216 0.950 . S
H3208 C3218 0.950 . S
H3209 C3220 0.950 . S
H3210 C3222 0.950 . S
H3211 C3223 0.950 . S
C3212 H3204 0.950 . S
C3212 C3213 1.386 . S
C3212 C3214 1.391 . S
C3213 C3212 1.386 . S
C3213 C3217 1.393 . S
C3214 H3206 0.950 . S
C3214 C3212 1.391 . S
C3214 C3215 1.400 . S
C3215 C3214 1.400 . S
C3215 C3216 1.398 . S
C3215 C3221 1.491 . S
C3216 H3207 0.950 . S
C3216 C3215 1.398 . S
C3216 C3217 1.391 . S
C3217 H3205 0.950 . S
C3217 C3213 1.393 . S
C3217 C3216 1.391 . S
C3218 H3208 0.950 . S
C3218 C3219 1.386 . S
C3218 C3220 1.391 . S
C3219 C3218 1.386 . S
C3219 C3223 1.393 . S
C3220 H3209 0.950 . S
C3220 C3218 1.391 . S
C3220 C3221 1.400 . S
C3221 C3215 1.491 . S
C3221 C3220 1.400 . S
C3221 C3222 1.398 . S
C3222 H3210 0.950 . S
C3222 C3221 1.398 . S
C3222 C3223 1.391 . S
C3223 H3211 0.950 . S
C3223 C3219 1.393 . S
C3223 C3222 1.391 . S
H3224 C3232 0.950 . S
H3225 C3237 0.950 . S
H3226 C3234 0.950 . S
H3227 C3236 0.950 . S
H3228 C3238 0.950 1_455 S
H3229 C3240 0.950 . S
H3230 C3242 0.950 . S
H3231 C3243 0.950 . S
C3232 H3224 0.950 . S
C3232 C3233 1.386 . S
C3232 C3234 1.391 . S
C3233 C3232 1.386 . S
C3233 C3237 1.393 . S
C3234 H3226 0.950 . S
C3234 C3232 1.391 . S
C3234 C3235 1.400 . S
C3235 C3234 1.400 . S
C3235 C3236 1.398 . S
C3235 C3241 1.491 . S
C3236 H3227 0.950 . S
C3236 C3235 1.398 . S
C3236 C3237 1.391 . S
C3237 H3225 0.950 . S
C3237 C3233 1.393 . S
C3237 C3236 1.391 . S
C3238 H3228 0.950 1_655 S
C3238 C3239 1.386 . S
C3238 C3240 1.391 . S
C3239 C3238 1.386 . S
C3239 C3243 1.393 . S
C3240 H3229 0.950 . S
C3240 C3238 1.391 . S
C3240 C3241 1.400 . S
C3241 C3235 1.491 . S
C3241 C3240 1.400 . S
C3241 C3242 1.398 . S
C3242 H3230 0.950 . S
C3242 C3241 1.398 . S
C3242 C3243 1.391 . S
C3243 H3231 0.950 . S
C3243 C3239 1.393 . S
C3243 C3242 1.391 . S
H3244 C3252 0.950 . S
H3245 C3257 0.950 . S
H3246 C3254 0.950 . S
H3247 C3256 0.950 . S
H3248 C3258 0.950 . S
H3249 C3260 0.950 . S
H3250 C3262 0.950 . S
H3251 C3263 0.950 . S
C3252 H3244 0.950 . S
C3252 C3253 1.386 . S
C3252 C3254 1.391 . S
C3253 C3252 1.386 . S
C3253 C3257 1.393 . S
C3254 H3246 0.950 . S
C3254 C3252 1.391 . S
C3254 C3255 1.400 . S
C3255 C3254 1.400 . S
C3255 C3256 1.398 . S
C3255 C3261 1.491 . S
C3256 H3247 0.950 . S
C3256 C3255 1.398 . S
C3256 C3257 1.391 . S
C3257 H3245 0.950 . S
C3257 C3253 1.393 . S
C3257 C3256 1.391 . S
C3258 H3248 0.950 . S
C3258 C3259 1.386 . S
C3258 C3260 1.391 . S
C3259 C3258 1.386 . S
C3259 C3263 1.393 . S
C3260 H3249 0.950 . S
C3260 C3258 1.391 . S
C3260 C3261 1.400 . S
C3261 C3255 1.491 . S
C3261 C3260 1.400 . S
C3261 C3262 1.398 . S
C3262 H3250 0.950 . S
C3262 C3261 1.398 . S
C3262 C3263 1.391 . S
C3263 H3251 0.950 . S
C3263 C3259 1.393 . S
C3263 C3262 1.391 . S
H3264 C3272 0.950 . S
H3265 C3277 0.950 . S
H3266 C3274 0.950 . S
H3267 C3276 0.950 . S
H3268 C3278 0.950 . S
H3269 C3280 0.950 . S
H3270 C3282 0.950 . S
H3271 C3283 0.950 . S
C3272 H3264 0.950 . S
C3272 C3273 1.386 . S
C3272 C3274 1.391 . S
C3273 C3272 1.386 . S
C3273 C3277 1.393 . S
C3274 H3266 0.950 . S
C3274 C3272 1.391 . S
C3274 C3275 1.400 . S
C3275 C3274 1.400 . S
C3275 C3276 1.398 . S
C3275 C3281 1.491 . S
C3276 H3267 0.950 . S
C3276 C3275 1.398 . S
C3276 C3277 1.391 . S
C3277 H3265 0.950 . S
C3277 C3273 1.393 . S
C3277 C3276 1.391 . S
C3278 H3268 0.950 . S
C3278 C3279 1.386 . S
C3278 C3280 1.391 . S
C3279 C3278 1.386 . S
C3279 C3283 1.393 . S
C3280 H3269 0.950 . S
C3280 C3278 1.391 . S
C3280 C3281 1.400 . S
C3281 C3275 1.491 . S
C3281 C3280 1.400 . S
C3281 C3282 1.398 . S
C3282 H3270 0.950 . S
C3282 C3281 1.398 . S
C3282 C3283 1.391 . S
C3283 H3271 0.950 . S
C3283 C3279 1.393 . S
C3283 C3282 1.391 . S
H3284 C3292 0.950 . S
H3285 C3297 0.950 . S
H3286 C3294 0.950 . S
H3287 C3296 0.950 . S
H3288 C3298 0.950 . S
H3289 C3300 0.950 . S
H3290 C3302 0.950 . S
H3291 C3303 0.950 1_545 S
C3292 H3284 0.950 . S
C3292 C3293 1.386 . S
C3292 C3294 1.391 . S
C3293 C3292 1.386 . S
C3293 C3297 1.393 . S
C3294 H3286 0.950 . S
C3294 C3292 1.391 . S
C3294 C3295 1.400 . S
C3295 C3294 1.400 . S
C3295 C3296 1.398 . S
C3295 C3301 1.491 . S
C3296 H3287 0.950 . S
C3296 C3295 1.398 . S
C3296 C3297 1.391 . S
C3297 H3285 0.950 . S
C3297 C3293 1.393 . S
C3297 C3296 1.391 . S
C3298 H3288 0.950 . S
C3298 C3299 1.386 . S
C3298 C3300 1.391 . S
C3299 C3298 1.386 . S
C3299 C3303 1.393 . S
C3300 H3289 0.950 . S
C3300 C3298 1.391 . S
C3300 C3301 1.400 . S
C3301 C3295 1.491 . S
C3301 C3300 1.400 . S
C3301 C3302 1.398 . S
C3302 H3290 0.950 . S
C3302 C3301 1.398 . S
C3302 C3303 1.391 . S
C3303 H3291 0.950 1_565 S
C3303 C3299 1.393 . S
C3303 C3302 1.391 . S
H3304 C3312 0.950 . S
H3305 C3317 0.950 . S
H3306 C3314 0.950 . S
H3307 C3316 0.950 . S
H3308 C3318 0.950 . S
H3309 C3320 0.950 . S
H3310 C3322 0.950 . S
H3311 C3323 0.950 . S
C3312 H3304 0.950 . S
C3312 C3313 1.386 . S
C3312 C3314 1.391 . S
C3313 C3312 1.386 . S
C3313 C3317 1.393 . S
C3314 H3306 0.950 . S
C3314 C3312 1.391 . S
C3314 C3315 1.400 . S
C3315 C3314 1.400 . S
C3315 C3316 1.398 . S
C3315 C3321 1.491 . S
C3316 H3307 0.950 . S
C3316 C3315 1.398 . S
C3316 C3317 1.391 . S
C3317 H3305 0.950 . S
C3317 C3313 1.393 . S
C3317 C3316 1.391 . S
C3318 H3308 0.950 . S
C3318 C3319 1.386 . S
C3318 C3320 1.391 . S
C3319 C3318 1.386 . S
C3319 C3323 1.393 . S
C3320 H3309 0.950 . S
C3320 C3318 1.391 . S
C3320 C3321 1.400 . S
C3321 C3315 1.491 . S
C3321 C3320 1.400 . S
C3321 C3322 1.398 . S
C3322 H3310 0.950 . S
C3322 C3321 1.398 . S
C3322 C3323 1.391 . S
C3323 H3311 0.950 . S
C3323 C3319 1.393 . S
C3323 C3322 1.391 . S
H3324 C3332 0.950 . S
H3325 C3337 0.950 . S
H3326 C3334 0.950 . S
H3327 C3336 0.950 . S
H3328 C3338 0.950 . S
H3329 C3340 0.950 . S
H3330 C3342 0.950 . S
H3331 C3343 0.950 . S
C3332 H3324 0.950 . S
C3332 C3333 1.386 . S
C3332 C3334 1.391 . S
C3333 C3332 1.386 . S
C3333 C3337 1.393 . S
C3334 H3326 0.950 . S
C3334 C3332 1.391 . S
C3334 C3335 1.400 . S
C3335 C3334 1.400 . S
C3335 C3336 1.398 . S
C3335 C3341 1.491 . S
C3336 H3327 0.950 . S
C3336 C3335 1.398 . S
C3336 C3337 1.391 . S
C3337 H3325 0.950 . S
C3337 C3333 1.393 . S
C3337 C3336 1.391 . S
C3338 H3328 0.950 . S
C3338 C3339 1.386 . S
C3338 C3340 1.391 . S
C3339 C3338 1.386 . S
C3339 C3343 1.393 . S
C3340 H3329 0.950 . S
C3340 C3338 1.391 . S
C3340 C3341 1.400 . S
C3341 C3335 1.491 . S
C3341 C3340 1.400 . S
C3341 C3342 1.398 . S
C3342 H3330 0.950 . S
C3342 C3341 1.398 . S
C3342 C3343 1.391 . S
C3343 H3331 0.950 . S
C3343 C3339 1.393 . S
C3343 C3342 1.391 . S
H3344 C3352 0.950 . S
H3345 C3357 0.950 . S
H3346 C3354 0.950 . S
H3347 C3356 0.950 . S
H3348 C3358 0.950 . S
H3349 C3360 0.950 . S
H3350 C3362 0.950 . S
H3351 C3363 0.950 . S
C3352 H3344 0.950 . S
C3352 C3353 1.386 . S
C3352 C3354 1.391 . S
C3353 C3352 1.386 . S
C3353 C3357 1.393 . S
C3354 H3346 0.950 . S
C3354 C3352 1.391 . S
C3354 C3355 1.400 . S
C3355 C3354 1.400 . S
C3355 C3356 1.398 . S
C3355 C3361 1.491 . S
C3356 H3347 0.950 . S
C3356 C3355 1.398 . S
C3356 C3357 1.391 . S
C3357 H3345 0.950 . S
C3357 C3353 1.393 . S
C3357 C3356 1.391 . S
C3358 H3348 0.950 . S
C3358 C3359 1.386 . S
C3358 C3360 1.391 . S
C3359 C3358 1.386 . S
C3359 C3363 1.393 . S
C3360 H3349 0.950 . S
C3360 C3358 1.391 . S
C3360 C3361 1.400 . S
C3361 C3355 1.491 . S
C3361 C3360 1.400 . S
C3361 C3362 1.398 . S
C3362 H3350 0.950 . S
C3362 C3361 1.398 . S
C3362 C3363 1.391 . S
C3363 H3351 0.950 . S
C3363 C3359 1.393 . S
C3363 C3362 1.391 . S
H3364 C3372 0.950 . S
H3365 C3377 0.950 . S
H3366 C3374 0.950 . S
H3367 C3376 0.950 . S
H3368 C3378 0.950 . S
H3369 C3380 0.950 . S
H3370 C3382 0.950 1_556 S
H3371 C3383 0.925 1_556 S
C3372 H3364 0.950 . S
C3372 C3373 1.386 . S
C3372 C3374 1.391 . S
C3373 C3372 1.386 . S
C3373 C3377 1.393 . S
C3374 H3366 0.950 . S
C3374 C3372 1.391 . S
C3374 C3375 1.400 . S
C3375 C3374 1.400 . S
C3375 C3376 1.398 . S
C3375 C3381 1.491 . S
C3376 H3367 0.950 . S
C3376 C3375 1.398 . S
C3376 C3377 1.391 . S
C3377 H3365 0.950 . S
C3377 C3373 1.393 . S
C3377 C3376 1.391 . S
C3378 H3368 0.950 . S
C3378 C3379 1.386 . S
C3378 C3380 1.391 . S
C3379 C3378 1.386 . S
C3379 C3383 1.414 . S
C3380 H3369 0.950 . S
C3380 C3378 1.391 . S
C3380 C3381 1.400 . S
C3381 C3375 1.491 . S
C3381 C3380 1.400 . S
C3381 C3382 1.398 . S
C3382 H3370 0.950 1_554 S
C3382 C3381 1.398 . S
C3382 C3383 1.395 . S
C3383 H3371 0.925 1_554 S
C3383 C3379 1.414 . S
C3383 C3382 1.395 . S
H3384 C3392 0.950 . S
H3385 C3397 0.950 . S
H3386 C3394 0.950 . S
H3387 C3396 0.950 . S
H3388 C3398 0.950 . S
H3389 C3400 0.950 . S
H3390 C3402 0.950 . S
H3391 C3403 0.950 . S
C3392 H3384 0.950 . S
C3392 C3393 1.386 . S
C3392 C3394 1.391 . S
C3393 C3392 1.386 . S
C3393 C3397 1.393 . S
C3394 H3386 0.950 . S
C3394 C3392 1.391 . S
C3394 C3395 1.400 . S
C3395 C3394 1.400 . S
C3395 C3396 1.398 . S
C3395 C3401 1.491 . S
C3396 H3387 0.950 . S
C3396 C3395 1.398 . S
C3396 C3397 1.391 . S
C3397 H3385 0.950 . S
C3397 C3393 1.393 . S
C3397 C3396 1.391 . S
C3398 H3388 0.950 . S
C3398 C3399 1.386 . S
C3398 C3400 1.391 . S
C3399 C3398 1.386 . S
C3399 C3403 1.393 . S
C3400 H3389 0.950 . S
C3400 C3398 1.391 . S
C3400 C3401 1.400 . S
C3401 C3395 1.491 . S
C3401 C3400 1.400 . S
C3401 C3402 1.398 . S
C3402 H3390 0.950 . S
C3402 C3401 1.398 . S
C3402 C3403 1.391 . S
C3403 H3391 0.950 . S
C3403 C3399 1.393 . S
C3403 C3402 1.391 . S
H3404 C3412 0.950 . S
H3405 C3417 0.950 . S
H3406 C3414 0.950 . S
H3407 C3416 0.950 . S
H3408 C3418 0.950 . S
H3409 C3420 0.950 . S
H3410 C3422 0.950 . S
H3411 C3423 0.950 . S
C3412 H3404 0.950 . S
C3412 C3413 1.386 . S
C3412 C3414 1.391 . S
C3413 C3412 1.386 . S
C3413 C3417 1.393 . S
C3414 H3406 0.950 . S
C3414 C3412 1.391 . S
C3414 C3415 1.400 . S
C3415 C3414 1.400 . S
C3415 C3416 1.398 . S
C3415 C3421 1.491 . S
C3416 H3407 0.950 . S
C3416 C3415 1.398 . S
C3416 C3417 1.391 . S
C3417 H3405 0.950 . S
C3417 C3413 1.393 . S
C3417 C3416 1.391 . S
C3418 H3408 0.950 . S
C3418 C3419 1.386 . S
C3418 C3420 1.391 . S
C3419 C3418 1.386 . S
C3419 C3423 1.393 . S
C3420 H3409 0.950 . S
C3420 C3418 1.391 . S
C3420 C3421 1.400 . S
C3421 C3415 1.491 . S
C3421 C3420 1.400 . S
C3421 C3422 1.398 . S
C3422 H3410 0.950 . S
C3422 C3421 1.398 . S
C3422 C3423 1.391 . S
C3423 H3411 0.950 . S
C3423 C3419 1.393 . S
C3423 C3422 1.391 . S
C1513 C255 2.237 . S
C1519 C874 2.167 . S
C1533 C147 2.030 . S
C1539 C922 2.026 . S
C1553 C184 1.272 . S
C1559 C954 1.255 . S
C1579 C999 1.562 . S
C1573 C220 1.584 . S
C1593 C40 0.872 . S
C1599 C1039 0.874 . S
C1619 C1074 1.034 . S
C1613 C74 1.022 . S
C1639 C1113 1.183 . S
C1633 C110 1.205 . S
C1653 C14 1.199 . S
C1659 C1150 1.205 . S
C1679 C882 2.062 . S
C1673 C579 2.069 . S
C1693 C616 0.509 . S
C1699 C919 0.490 . S
C1719 C962 2.427 . S
C1713 C687 2.446 . S
C1739 C994 1.153 . S
C1733 C436 1.172 . S
C1753 C580 1.278 . S
C1759 C1034 1.288 . S
C1779 C1082 0.486 . S
C1773 C615 0.445 . S
C1799 C1123 2.019 1_556 S
C1793 C688 2.117 . S
C1819 C1153 1.997 . S
C1813 C435 1.998 . S
C1839 C879 1.265 . S
C1833 C410 1.318 1_554 S
C1853 C722 2.225 . S
C1859 C1202 2.205 . S
C1879 C1239 1.236 . S
C1873 C842 1.247 . S
C1899 C1270 0.608 . S
C1893 C794 0.606 . S
C1913 C302 2.749 . S
C1919 C1163 2.769 . S
C1933 C338 1.429 . S
C1939 C959 1.438 . S
C1953 C830 1.822 . S
C1959 C1322 1.812 . S
C1979 C1354 1.875 . S
C1973 C758 1.872 . S
C1999 C883 2.178 . S
C1993 C158 2.142 . S
C2019 C1353 2.015 . S
C2013 C254 2.017 . S
C2033 C218 1.236 . S
C2039 C963 1.260 . S
C2053 C194 1.502 . S
C2059 C1310 1.548 . S
C2079 C1030 0.867 . S
C2073 C3 0.851 . S
C2093 C111 0.857 . S
C2099 C1243 0.862 . S
C2119 C1122 1.179 . S
C2113 C76 1.193 . S
C2139 C1399 1.239 . S
C2133 C50 1.196 . S
C2159 C873 2.030 . S
C2153 C364 2.040 . S
C2179 C1350 0.483 . S
C2173 C795 0.336 . S
C2193 C292 2.381 . S
C2199 C953 2.374 . S
C2213 C723 1.095 . S
C2219 C1323 1.071 . S
C2233 C363 1.248 . S
C2239 C1043 1.241 . S
C2259 C1233 0.369 . S
C2253 C796 0.417 . S
C2273 C291 2.070 . S
C2279 C1114 2.007 . S
C2293 C724 2.012 . S
C2299 C1402 1.999 . S
C2313 C482 1.227 . S
C2319 C870 1.351 . S
C2333 C434 2.190 . S
C2339 C1193 2.170 . S
C2353 C662 1.163 . S
C2359 C1070 1.218 . S
C2373 C614 0.589 . S
C2379 C1279 0.598 . S
C2399 C1394 2.776 . S
C2393 C698 2.762 . S
C2413 C554 1.357 . S
C2419 C950 1.417 . S
C2439 C993 1.771 . S
C2433 C650 1.773 . S
C2459 C923 1.829 . S
C2453 C506 1.851 . S
C2473 C183 2.239 . S
C2479 C1434 2.169 . S
C2499 C1362 2.029 . S
C2493 C219 2.031 . S
C2513 C256 1.252 . S
C2519 C1474 1.266 . S
C2533 C148 1.577 1_655 S
C2539 C1319 1.545 . S
C2553 C122 0.874 . S
C2559 C1199 0.919 . S
C2579 C1234 0.915 . S
C2573 C2 0.921 . S
C2599 C1273 1.101 . S
C2593 C39 1.082 . S
C2619 C1390 1.254 . S
C2613 C86 1.247 . S
C2639 C1442 2.083 . S
C2633 C651 2.075 . S
C2653 C472 0.443 . S
C2659 C1359 0.431 . S
C2679 C1482 2.417 . S
C2673 C507 2.434 . S
C2699 C1314 1.175 . S
C2693 C544 1.162 . S
C2719 C1194 1.286 . S
C2713 C652 1.275 . S
C2733 C471 0.383 . S
C2739 C1242 0.441 . S
C2759 C1283 2.023 . S
C2753 C508 2.109 . S
C2773 C543 2.025 . S
C2779 C1393 2.004 . S
C2799 C1439 1.327 . S
C2793 C806 1.359 . S
C2813 C326 2.211 . S
C2819 C1042 2.193 . S
C2839 C1079 1.212 . S
C2833 C374 1.225 1_565 S
C2859 C1110 0.706 . S
C2853 C398 0.671 . S
C2879 C1403 2.781 . S
C2873 C770 2.752 . S
C2893 C734 1.432 . S
C2899 C1479 1.414 . S
C2919 C1002 1.805 . S
C2913 C362 1.810 . S
C2939 C914 1.898 . S
C2933 C290 1.884 . S
C2953 C230 2.163 . S
C2959 C1443 2.182 . S
C2979 C913 2.018 . S
C2973 C182 2.021 . S
C2993 C146 1.242 . S
C2999 C1483 1.251 . S
C3013 C266 1.492 . S
C3019 C990 1.544 . S
C3033 C75 0.901 . S
C3039 C1190 0.913 . S
C3059 C1083 0.967 . S
C3053 C38 0.977 . S
C3073 C4 1.114 . S
C3079 C1282 1.104 . S
C3093 C112 1.173 . S
C3099 C1159 1.179 . S
C3119 C1433 2.031 . S
C3113 C832 2.042 . S
C3133 C399 0.389 . S
C3139 C910 0.541 . S
C3159 C1473 2.367 . S
C3153 C760 2.377 . S
C3173 C327 1.089 . S
C3179 C1003 1.069 . S
C3193 C831 1.274 . S
C3199 C1203 1.244 . S
C3219 C1073 0.406 . S
C3213 C400 0.467 . S
C3233 C759 2.070 . S
C3239 C1274 1.996 1_655 S
C3259 C1162 1.998 . S
C3253 C328 2.013 . S
C3279 C1430 1.365 . S
C3273 C626 1.238 . S
C3299 C1033 2.174 1_565 S
C3293 C542 2.192 . S
C3313 C590 1.133 . S
C3319 C1230 1.196 . S
C3339 C1119 0.621 . S
C3333 C470 0.565 . S
C3353 C518 2.741 . S
C3359 C1154 2.755 . S
C3373 C446 1.349 . S
C3379 C1470 1.400 . S
C3399 C1313 1.789 . S
C3393 C578 1.787 . S
C3419 C1363 1.807 . S
C3413 C686 1.820 . S
