# Generated by pormake.
# Topology tsx, (6,3)-cn, num edge types: 1
# Building blocks:
#     Node 0, Type 0, BuildingBlock: JUFBIX_clean_sbu_0, # of connection points: 6
#     Node 1, Type 0, BuildingBlock: JUFBIX_clean_sbu_0, # of connection points: 6
#     Node 2, Type 1, BuildingBlock: WUSLED_clean_sbu_0, # of connection points: 3
#     Node 3, Type 1, BuildingBlock: WUSLED_clean_sbu_0, # of connection points: 3
#     Node 4, Type 1, BuildingBlock: WUSLED_clean_sbu_0, # of connection points: 3
#     Node 5, Type 1, BuildingBlock: WUSLED_clean_sbu_0, # of connection points: 3
#     Edge 6, Type (0, 1), BuildingBlock: XUDNAN_clean_linker_2, # of connection points: 2
#     Edge 7, Type (0, 1), BuildingBlock: XUDNAN_clean_linker_2, # of connection points: 2
#     Edge 8, Type (0, 1), BuildingBlock: XUDNAN_clean_linker_2, # of connection points: 2
#     Edge 9, Type (0, 1), BuildingBlock: XUDNAN_clean_linker_2, # of connection points: 2
#     Edge 10, Type (0, 1), BuildingBlock: XUDNAN_clean_linker_2, # of connection points: 2
#     Edge 11, Type (0, 1), BuildingBlock: XUDNAN_clean_linker_2, # of connection points: 2
#     Edge 12, Type (0, 1), BuildingBlock: XUDNAN_clean_linker_2, # of connection points: 2
#     Edge 13, Type (0, 1), BuildingBlock: XUDNAN_clean_linker_2, # of connection points: 2
#     Edge 14, Type (0, 1), BuildingBlock: XUDNAN_clean_linker_2, # of connection points: 2
#     Edge 15, Type (0, 1), BuildingBlock: XUDNAN_clean_linker_2, # of connection points: 2
#     Edge 16, Type (0, 1), BuildingBlock: XUDNAN_clean_linker_2, # of connection points: 2
#     Edge 17, Type (0, 1), BuildingBlock: XUDNAN_clean_linker_2, # of connection points: 2
# Relax obj value: 0.150
# Max RMSD: 0.162
# Mean RMSD: 0.128
data_MOF--net-tsx--node1-JUFBIX_clean_sbu_0--node2-WUSLED_clean_sbu_0--edge1-XUDNAN_clean_linker_2
_symmetry_space_group_name_H-M    P1
_symmetry_Int_Tables_number       1
_symmetry_cell_setting            triclinic
loop_
_symmetry_equiv_pos_as_xyz
'x, y, z'
_cell_length_a     25.522829
_cell_length_b     30.196496
_cell_length_c     46.114935
_cell_angle_alpha  92.551929
_cell_angle_beta   89.903768
_cell_angle_gamma 97.820073
loop_
_atom_site_label
_atom_site_type_symbol
_atom_site_fract_x
_atom_site_fract_y
_atom_site_fract_z
_atom_type_partial_charge
Co0 Co 0.04581 0.9861 0.02059 0.0
C1 C 0.02174 0.01237 0.96607 0.0
Co2 Co 1.00026 0.04411 0.02225 0.0
C3 C 0.12718 0.92554 0.00896 0.0
C4 C 0.06056 0.89758 0.03346 0.0
N5 N 0.08049 0.93498 0.02013 0.0
N6 N 0.13675 0.88359 0.01486 0.0
C7 C 0.0943 0.86624 0.03011 0.0
H8 H 0.15379 0.94924 0.99717 0.0
H9 H 0.02371 0.89327 0.04526 0.0
C10 C 0.024 0.01465 0.07664 0.0
N11 N 0.96523 0.09488 0.02399 0.0
C12 C 0.92264 0.1048 0.00931 0.0
C13 C 0.97925 0.13094 0.04197 0.0
N14 N 0.9097 0.14573 0.01749 0.0
C15 C 0.94551 0.16194 0.03811 0.0
C16 C 0.93563 0.96442 0.02241 0.0
O17 O 0.0444 0.98588 0.06114 0.0
O18 O 1.00361 0.0453 0.0644 0.0
O19 O 0.93528 1.00645 0.02395 0.0
O20 O 0.97914 0.94881 0.0192 0.0
O21 O 0.99775 0.04112 0.98002 0.0
H22 H 0.01196 0.13439 0.05715 0.0
H23 H 0.90191 0.08243 0.99285 0.0
O24 O 0.04635 0.98619 0.98007 0.0
O25 O 0.11144 0.0248 0.0225 0.0
O26 O 0.06556 0.08127 0.02129 0.0
C27 C 0.10992 0.06681 0.02252 0.0
H28 H 0.08728 0.83297 0.03828 0.0
H29 H 0.94693 0.19367 0.05012 0.0
Co30 Co 0.55182 0.4977 0.51924 0.0
C31 C 0.51285 0.51543 0.46408 0.0
Co32 Co 0.49254 0.5449 0.51914 0.0
C33 C 0.61438 0.42269 0.5254 0.0
C34 C 0.64324 0.47029 0.49409 0.0
N35 N 0.60543 0.46187 0.51441 0.0
N36 N 0.65579 0.40657 0.51223 0.0
C37 C 0.67392 0.43654 0.49266 0.0
H38 H 0.58989 0.40549 0.54173 0.0
H39 H 0.64722 0.49861 0.48033 0.0
C40 C 0.5312 0.52646 0.57407 0.0
N41 N 0.43954 0.58119 0.52208 0.0
C42 C 0.43159 0.61602 0.506 0.0
C43 C 0.39898 0.57688 0.54087 0.0
N44 N 0.38733 0.63369 0.51392 0.0
C45 C 0.36697 0.60884 0.53595 0.0
C46 C 0.45143 0.45295 0.52256 0.0
O47 O 0.56024 0.50175 0.56023 0.0
O48 O 0.49942 0.54705 0.56032 0.0
O49 O 0.44 0.49247 0.52045 0.0
O50 O 0.49969 0.44661 0.52272 0.0
O51 O 0.48674 0.54259 0.4777 0.0
H52 H 0.39272 0.55167 0.55692 0.0
H53 H 0.4579 0.62774 0.48874 0.0
O54 O 0.54219 0.49341 0.4783 0.0
O55 O 0.60381 0.54995 0.51618 0.0
O56 O 0.54507 0.59656 0.51816 0.0
C57 C 0.59314 0.58993 0.51685 0.0
H58 H 0.70685 0.43392 0.47814 0.0
H59 H 0.33103 0.6126 0.54765 0.0
C60 C 0.93105 0.09351 0.48382 0.0
C61 C 0.92932 0.12979 0.46596 0.0
C62 C 0.86313 0.15795 0.49751 0.0
C63 C 0.89573 0.16179 0.47279 0.0
C64 C 0.86415 0.12077 0.51475 0.0
C65 C 0.89785 0.08906 0.50802 0.0
U66 U 0.01483 0.02447 0.43438 0.0
O67 O 0.02723 0.95385 0.43768 0.0
O68 O 0.09522 0.00845 0.44285 0.0
C69 C 0.07805 0.96538 0.4427 0.0
C70 C 0.96814 0.06068 0.4785 0.0
C71 C 0.11366 0.93207 0.44734 0.0
C72 C 0.16464 0.89296 0.47973 0.0
C73 C 0.13036 0.92456 0.47543 0.0
C74 C 0.16578 0.87632 0.42785 0.0
C75 C 0.18305 0.86867 0.45594 0.0
C76 C 0.13129 0.90769 0.42362 0.0
C77 C 1.00769 0.04082 0.35094 0.0
C78 C 0.03892 0.99645 0.31087 0.0
C79 C 0.99707 0.06165 0.30123 0.0
C80 C 0.99086 0.0696 0.331 0.0
C81 C 0.02063 0.02469 0.29065 0.0
C82 C 0.03233 1.00436 0.3408 0.0
C83 C 0.99582 0.04877 0.38182 0.0
O84 O 0.94848 0.02272 0.46517 0.0
O85 O 0.0155 0.0765 0.4693 0.0
O86 O 0.03447 0.06924 0.3983 0.0
O87 O 0.96672 0.01597 0.39455 0.0
H88 H 0.95453 0.13379 0.44707 0.0
H89 H 0.89639 0.1901 0.45911 0.0
H90 H 0.83886 0.11606 0.53355 0.0
H91 H 0.8984 0.06116 0.52196 0.0
H92 H 0.17749 0.88818 0.50161 0.0
H93 H 0.11697 0.94316 0.494 0.0
H94 H 0.17858 0.85779 0.4091 0.0
H95 H 0.11859 0.91309 0.4018 0.0
H96 H 0.05795 0.96802 0.3036 0.0
H97 H 0.9816 0.0837 0.28653 0.0
H98 H 0.97148 0.09778 0.33846 0.0
H99 H 0.04565 0.98174 0.35591 0.0
C100 C 0.92464 0.94239 0.55695 0.0
C101 C 0.89638 0.91907 0.57907 0.0
C102 C 0.85563 0.86207 0.54356 0.0
C103 C 0.86202 0.87938 0.57243 0.0
C104 C 0.88341 0.88619 0.52155 0.0
C105 C 0.91743 0.92577 0.52818 0.0
U106 U 1.00193 0.02785 0.61055 0.0
O107 O 0.08517 0.05916 0.61035 0.0
O108 O 0.02148 0.10142 0.61009 0.0
C109 C 0.07275 0.10003 0.61047 0.0
C110 C 0.96275 0.98329 0.56331 0.0
C111 C 0.10757 0.13425 0.59478 0.0
C112 C 0.16163 0.16014 0.55358 0.0
C113 C 0.12569 0.12711 0.56638 0.0
C114 C 0.16166 0.20737 0.59737 0.0
C115 C 0.18046 0.20058 0.56908 0.0
C116 C 0.12567 0.17472 0.60995 0.0
C117 C 0.97343 1.00498 0.69229 0.0
C118 C 0.02032 0.03867 0.73553 0.0
C119 C 0.94592 0.98034 0.74001 0.0
C120 C 0.93907 0.97798 0.70997 0.0
C121 C 0.98708 0.01005 0.75304 0.0
C122 C 0.01365 0.03604 0.70519 0.0
C123 C 0.9677 0.99722 0.66063 0.0
O124 O 0.94309 0.01791 0.57505 0.0
O125 O 1.00759 0.9769 0.57537 0.0
O126 O 1.00816 0.98386 0.64677 0.0
O127 O 0.94478 0.02624 0.64652 0.0
H128 H 0.90143 0.93123 0.60149 0.0
H129 H 0.84165 0.8616 0.58995 0.0
H130 H 0.87895 0.8744 0.49905 0.0
H131 H 0.93862 0.94323 0.51076 0.0
H132 H 0.17547 0.15367 0.5318 0.0
H133 H 0.11261 0.09601 0.55429 0.0
H134 H 0.17441 0.23822 0.60981 0.0
H135 H 0.11238 0.18091 0.63191 0.0
H136 H 0.05278 0.06138 0.74515 0.0
H137 H 0.92014 0.95774 0.75307 0.0
H138 H 0.90789 0.95381 0.70041 0.0
H139 H 0.04069 0.05708 0.69183 0.0
C140 C 0.45443 0.59991 0.97703 0.0
C141 C 0.44249 0.62171 0.95208 0.0
C142 C 0.39521 0.67297 0.9812 0.0
C143 C 0.41324 0.65777 0.95413 0.0
C144 C 0.40717 0.65082 0.00614 0.0
C145 C 0.4365 0.61471 1.00405 0.0
U146 U 0.52075 0.51938 0.92942 0.0
O147 O 0.59715 0.49335 0.93252 0.0
O148 O 0.52272 0.44643 0.92963 0.0
C149 C 0.57469 0.45144 0.93066 0.0
C150 C 0.48526 0.56177 0.97479 0.0
C151 C 0.60184 0.41609 0.94275 0.0
C152 C 0.65585 0.3861 0.97876 0.0
C153 C 0.62793 0.42037 0.96976 0.0
C154 C 0.63239 0.34396 0.93371 0.0
C155 C 0.65827 0.34727 0.96079 0.0
C156 C 0.60438 0.37764 0.92499 0.0
C157 C 0.50318 0.54199 0.84717 0.0
C158 C 0.54486 0.51363 0.80393 0.0
C159 C 0.48107 0.5656 0.79972 0.0
C160 C 0.47407 0.56648 0.82966 0.0
C161 C 0.51735 0.54006 0.78658 0.0
C162 C 0.53804 0.51478 0.83422 0.0
C163 C 0.49773 0.54833 0.87875 0.0
O164 O 0.46001 0.52446 0.96301 0.0
O165 O 0.53362 0.57118 0.96482 0.0
O166 O 0.54074 0.56408 0.8935 0.0
O167 O 0.46676 0.51733 0.89202 0.0
H168 H 0.45569 0.61072 0.93094 0.0
H169 H 0.40413 0.6733 0.93437 0.0
H170 H 0.39453 0.66175 0.02739 0.0
H171 H 0.4453 0.5984 0.02357 0.0
H172 H 0.6751 0.38987 0.9998 0.0
H173 H 0.62694 0.45003 0.98374 0.0
H174 H 0.63444 0.31556 0.91877 0.0
H175 H 0.58539 0.37398 0.90385 0.0
H176 H 0.57314 0.49376 0.79425 0.0
H177 H 0.45899 0.5859 0.78683 0.0
H178 H 0.44687 0.58749 0.83929 0.0
H179 H 0.56079 0.49556 0.84749 0.0
C180 C 0.42005 0.41914 0.08261 0.0
C181 C 0.42141 0.38659 0.10324 0.0
C182 C 0.35904 0.33451 0.07395 0.0
C183 C 0.39078 0.34461 0.09902 0.0
C184 C 0.3571 0.36794 0.05386 0.0
C185 C 0.38706 0.40979 0.05827 0.0
U186 U 0.51641 0.53099 0.106 0.0
O187 O 0.52092 0.58818 0.07796 0.0
O188 O 0.58825 0.55033 0.08046 0.0
C189 C 0.57015 0.58546 0.07053 0.0
C190 C 0.45684 0.46089 0.08322 0.0
C191 C 0.607 0.62751 0.0717 0.0
C192 C 0.68981 0.66892 0.05618 0.0
C193 C 0.6557 0.6288 0.05745 0.0
C194 C 0.62698 0.70721 0.08354 0.0
C195 C 0.67557 0.70881 0.06885 0.0
C196 C 0.59317 0.66695 0.0851 0.0
C197 C 0.5125 0.53971 0.1919 0.0
C198 C 0.52029 0.56299 0.24298 0.0
C199 C 0.48235 0.48721 0.22879 0.0
C200 C 0.48953 0.49694 0.19944 0.0
C201 C 0.49846 0.52 0.25098 0.0
C202 C 0.52703 0.57267 0.21382 0.0
C203 C 0.52613 0.55099 0.16189 0.0
O204 O 0.43886 0.49909 0.08904 0.0
O205 O 0.50603 0.46013 0.09144 0.0
O206 O 0.55659 0.52587 0.14758 0.0
O207 O 0.48948 0.56446 0.14572 0.0
H208 H 0.44699 0.39319 0.1221 0.0
H209 H 0.39257 0.31992 0.11518 0.0
H210 H 0.33414 0.36137 0.03404 0.0
H211 H 0.3862 0.43435 0.04189 0.0
H212 H 0.72728 0.66857 0.04519 0.0
H213 H 0.66709 0.59878 0.04691 0.0
H214 H 0.61421 0.73725 0.0932 0.0
H215 H 0.55578 0.66701 0.09623 0.0
H216 H 0.5342 0.58889 0.25923 0.0
H217 H 0.46476 0.4539 0.2341 0.0
H218 H 0.47817 0.47102 0.18277 0.0
H219 H 0.54529 0.60578 0.20837 0.0
H220 H 0.12077 0.15629 0.0141 0.0
H221 H 0.20654 0.05144 0.04281 0.0
H222 H 0.28148 0.10863 0.05799 0.0
H223 H 0.23766 0.2292 0.98763 0.0
H224 H 0.21108 0.27933 0.99933 0.0
H225 H 0.16712 0.22966 0.98815 0.0
H226 H 0.11867 0.23274 0.03756 0.0
H227 H 0.1628 0.28199 0.04905 0.0
H228 H 0.15607 0.23335 0.07075 0.0
H229 H 0.34349 0.17804 0.07377 0.0
H230 H 0.39056 0.25352 0.08572 0.0
H231 H 0.26152 0.31196 0.04789 0.0
C232 C 0.15575 0.14518 0.02302 0.0
C233 C 0.15803 0.09941 0.02719 0.0
C234 C 0.2043 0.0863 0.03911 0.0
C235 C 0.24687 0.11854 0.04793 0.0
C236 C 0.24259 0.16353 0.04432 0.0
C237 C 0.19849 0.17674 0.03174 0.0
C238 C 0.20272 0.22711 0.03114 0.0
C239 C 0.20477 0.24222 0.9997 0.0
C240 C 0.15737 0.24481 0.04815 0.0
C241 C 0.25526 0.24034 0.04635 0.0
C242 C 0.27796 0.20328 0.05352 0.0
C243 C 0.32622 0.20732 0.06811 0.0
C244 C 0.35233 0.2504 0.07514 0.0
C245 C 0.32988 0.28893 0.06785 0.0
C246 C 0.2804 0.28344 0.05343 0.0
H247 H 0.16349 0.80713 0.03725 0.0
H248 H 0.21392 0.90778 0.97481 0.0
H249 H 0.28809 0.86666 0.96067 0.0
H250 H 0.29169 0.78557 0.05914 0.0
H251 H 0.27119 0.72639 0.06192 0.0
H252 H 0.22414 0.76517 0.06801 0.0
H253 H 0.16258 0.72251 0.02839 0.0
H254 H 0.20928 0.6835 0.02219 0.0
H255 H 0.18812 0.71363 0.99244 0.0
H256 H 0.3554 0.81193 0.95225 0.0
H257 H 0.409 0.7497 0.95027 0.0
H258 H 0.31026 0.68398 0.01678 0.0
C259 C 0.18945 0.82088 0.02043 0.0
C260 C 0.18189 0.86101 0.00709 0.0
C261 C 0.21846 0.87747 0.9856 0.0
C262 C 0.26076 0.85417 0.97732 0.0
C263 C 0.26609 0.81439 0.99067 0.0
C264 C 0.23129 0.798 0.01177 0.0
C265 C 0.24426 0.75392 0.02231 0.0
C266 C 0.25869 0.75803 0.05477 0.0
C267 C 0.19833 0.71616 0.01594 0.0
C268 C 0.29189 0.74772 1.00375 0.0
C269 C 0.30406 0.78299 0.9857 0.0
C270 C 0.34606 0.78418 0.96628 0.0
C271 C 0.37608 0.7484 0.96518 0.0
C272 C 0.36398 0.71155 0.98326 0.0
C273 C 0.3213 0.71169 1.0029 0.0
H274 H 0.8916 0.88562 0.99517 0.0
H275 H 0.87704 0.9749 0.07011 0.0
H276 H 0.80781 0.91944 0.09014 0.0
H277 H 0.74672 0.84458 0.99063 0.0
H278 H 0.75789 0.78919 0.97826 0.0
H279 H 0.80437 0.83704 0.96932 0.0
H280 H 0.8799 0.80062 0.99211 0.0
H281 H 0.83363 0.75309 1.0016 0.0
H282 H 0.87457 0.78451 0.0293 0.0
H283 H 0.74851 0.8514 0.10446 0.0
H284 H 0.69302 0.77883 0.10939 0.0
H285 H 0.73848 0.73673 0.02262 0.0
C286 C 0.87272 0.89372 0.01541 0.0
C287 C 0.88872 0.93447 0.03102 0.0
C288 C 0.86413 0.94409 0.05763 0.0
C289 C 0.82523 0.91273 0.06926 0.0
C290 C 0.81064 0.8725 0.05359 0.0
C291 C 0.83251 0.86336 0.02689 0.0
C292 C 0.80897 0.81781 0.01439 0.0
C293 C 0.77762 0.82244 0.9865 0.0
C294 C 0.85184 0.78721 0.00906 0.0
C295 C 0.77249 0.80199 0.03887 0.0
C296 C 0.77411 0.83404 0.06126 0.0
C297 C 0.74582 0.82639 0.08678 0.0
C298 C 0.71419 0.78507 0.0893 0.0
C299 C 0.71062 0.75202 0.0663 0.0
C300 C 0.74042 0.76088 0.04078 0.0
H301 H 0.8996 0.23499 0.02329 0.0
H302 H 0.82086 0.10726 0.98816 0.0
H303 H 0.74704 0.14477 0.97161 0.0
H304 H 0.78035 0.277 0.04922 0.0
H305 H 0.80361 0.33384 0.04039 0.0
H306 H 0.85021 0.29696 0.04982 0.0
H307 H 0.89951 0.31191 1.00129 0.0
H308 H 0.85323 0.34892 0.99176 0.0
H309 H 0.86323 0.30227 0.96757 0.0
H310 H 0.68114 0.19588 0.95943 0.0
H311 H 0.63017 0.25707 0.94978 0.0
H312 H 0.75245 0.35239 0.99193 0.0
C313 C 0.86679 0.2145 0.01243 0.0
C314 C 0.86653 0.16773 0.00723 0.0
C315 C 0.82274 0.14296 0.99231 0.0
C316 C 0.78026 0.16398 0.98299 0.0
C317 C 0.78182 0.20988 0.98876 0.0
C318 C 0.824 0.23487 1.00307 0.0
C319 C 0.81632 0.28387 0.00615 0.0
C320 C 0.8124 0.2988 0.03831 0.0
C321 C 0.86071 0.31349 0.99077 0.0
C322 C 0.76365 0.28275 0.99075 0.0
C323 C 0.74423 0.23958 0.98125 0.0
C324 C 0.69621 0.22984 0.96658 0.0
C325 C 0.6677 0.26509 0.961 0.0
C326 C 0.68739 0.31005 0.96958 0.0
C327 C 0.73585 0.31863 0.98513 0.0
H328 H 0.60133 0.67137 0.5474 0.0
H329 H 0.68438 0.59314 0.48615 0.0
H330 H 0.75935 0.6543 0.48607 0.0
H331 H 0.64542 0.78094 0.52073 0.0
H332 H 0.65399 0.80823 0.55631 0.0
H333 H 0.60567 0.75926 0.55062 0.0
H334 H 0.64927 0.72032 0.59137 0.0
H335 H 0.69782 0.76913 0.59713 0.0
H336 H 0.71875 0.71524 0.58927 0.0
H337 H 0.82476 0.72377 0.49207 0.0
H338 H 0.87894 0.79555 0.50551 0.0
H339 H 0.75679 0.82871 0.56511 0.0
C340 C 0.63509 0.6675 0.53372 0.0
C341 C 0.63677 0.6278 0.51637 0.0
C342 C 0.68218 0.62336 0.49941 0.0
C343 C 0.72492 0.65793 0.49923 0.0
C344 C 0.7223 0.6965 0.51665 0.0
C345 C 0.67889 0.70137 0.53386 0.0
C346 C 0.68765 0.7454 0.55166 0.0
C347 C 0.64568 0.77523 0.54438 0.0
C348 C 0.68841 0.73702 0.58429 0.0
C349 C 0.74213 0.76496 0.54122 0.0
C350 C 0.76119 0.73608 0.52099 0.0
C351 C 0.81023 0.74663 0.5079 0.0
C352 C 0.84064 0.78774 0.51558 0.0
C353 C 0.82226 0.8182 0.53625 0.0
C354 C 0.77229 0.80623 0.54937 0.0
H355 H 0.68451 0.3497 0.47045 0.0
H356 H 0.6766 0.37236 0.56361 0.0
H357 H 0.72659 0.30843 0.57045 0.0
H358 H 0.6714 0.22608 0.4712 0.0
H359 H 0.71556 0.22271 0.44088 0.0
H360 H 0.67545 0.26741 0.44396 0.0
H361 H 0.75983 0.32536 0.44083 0.0
H362 H 0.80026 0.28098 0.43817 0.0
H363 H 0.81295 0.32434 0.46642 0.0
H364 H 0.78546 0.2474 0.56633 0.0
H365 H 0.84207 0.19013 0.55239 0.0
H366 H 0.80759 0.20571 0.46148 0.0
C367 C 0.69254 0.34058 0.49228 0.0
C368 C 0.67687 0.36563 0.51658 0.0
C369 C 0.68784 0.35302 0.54484 0.0
C370 C 0.71642 0.31707 0.54884 0.0
C371 C 0.7327 0.29385 0.5243 0.0
C372 C 0.72028 0.30465 0.49658 0.0
C373 C 0.74312 0.27521 0.47377 0.0
C374 C 0.69874 0.24612 0.45643 0.0
C375 C 0.78131 0.30316 0.45363 0.0
C376 C 0.77216 0.24715 0.49291 0.0
C377 C 0.76544 0.25821 0.52197 0.0
C378 C 0.79013 0.2379 0.54367 0.0
C379 C 0.82207 0.20519 0.53548 0.0
C380 C 0.82903 0.19283 0.5058 0.0
C381 C 0.80352 0.21434 0.48434 0.0
H382 H 0.42614 0.39809 0.5678 0.0
H383 H 0.38004 0.42269 0.48026 0.0
H384 H 0.30798 0.35879 0.48164 0.0
H385 H 0.3977 0.27735 0.56377 0.0
H386 H 0.37088 0.27362 0.5999 0.0
H387 H 0.42034 0.31965 0.59146 0.0
H388 H 0.35782 0.37581 0.60936 0.0
H389 H 0.30821 0.32996 0.6179 0.0
H390 H 0.29239 0.37184 0.59394 0.0
H391 H 0.24151 0.29123 0.49257 0.0
H392 H 0.18092 0.22999 0.51348 0.0
H393 H 0.26708 0.25193 0.59504 0.0
C394 C 0.401 0.38963 0.54891 0.0
C395 C 0.40876 0.41471 0.52374 0.0
C396 C 0.37465 0.40355 0.49962 0.0
C397 C 0.33379 0.36732 0.50023 0.0
C398 C 0.32695 0.34311 0.52536 0.0
C399 C 0.35916 0.35418 0.54942 0.0
C400 C 0.34145 0.3244 0.57427 0.0
C401 C 0.38521 0.29714 0.58285 0.0
C402 C 0.32393 0.35217 0.60041 0.0
C403 C 0.29475 0.29453 0.56035 0.0
C404 C 0.28731 0.3056 0.53205 0.0
C405 C 0.24691 0.2824 0.51475 0.0
C406 C 0.21285 0.24741 0.52676 0.0
C407 C 0.2189 0.23602 0.55595 0.0
C408 C 0.26083 0.25997 0.57277 0.0
H409 H 0.30143 0.67257 0.53277 0.0
H410 H 0.42229 0.67935 0.46581 0.0
H411 H 0.38385 0.74058 0.44431 0.0
H412 H 0.19558 0.69153 0.48633 0.0
H413 H 0.16521 0.72418 0.5136 0.0
H414 H 0.20313 0.6814 0.52422 0.0
H415 H 0.26239 0.73973 0.55695 0.0
H416 H 0.22475 0.78277 0.54645 0.0
H417 H 0.29541 0.78974 0.54142 0.0
H418 H 0.33141 0.80079 0.4295 0.0
H419 H 0.26941 0.85555 0.42291 0.0
H420 H 0.18197 0.8078 0.4988 0.0
C421 C 0.32024 0.6864 0.51358 0.0
C422 C 0.36538 0.67033 0.50125 0.0
C423 C 0.38808 0.69054 0.47609 0.0
C424 C 0.36639 0.72551 0.46354 0.0
C425 C 0.32187 0.74004 0.47626 0.0
C426 C 0.29907 0.72109 0.50071 0.0
C427 C 0.25095 0.74238 0.51 0.0
C428 C 0.20075 0.70781 0.50844 0.0
C429 C 0.25887 0.76501 0.54052 0.0
C430 C 0.25038 0.77654 0.48701 0.0
C431 C 0.29156 0.77457 0.46771 0.0
C432 C 0.29896 0.80257 0.44444 0.0
C433 C 0.26331 0.83337 0.44079 0.0
C434 C 0.22067 0.83596 0.46026 0.0
C435 C 0.21443 0.80708 0.48371 0.0
H436 H 0.03308 0.07963 0.12148 0.0
H437 H 1.00825 0.93614 0.10299 0.0
H438 H 1.00624 0.92322 0.15535 0.0
H439 H 0.12093 0.07482 0.18266 0.0
H440 H 0.09689 0.11986 0.20338 0.0
H441 H 0.09455 0.11846 0.16429 0.0
H442 H 0.99369 0.12214 0.16587 0.0
H443 H 0.99575 0.12379 0.20495 0.0
H444 H 0.9513 0.08119 0.18551 0.0
H445 H 1.00582 0.9252 0.20932 0.0
H446 H 1.00714 0.94216 0.26203 0.0
H447 H 0.0384 0.08424 0.24652 0.0
C448 C 0.02672 0.04562 0.12858 0.0
C449 C 0.02061 0.00886 0.10826 0.0
C450 C 0.01322 0.96476 0.11825 0.0
C451 C 0.01196 0.95703 0.14794 0.0
C452 C 0.01888 0.99376 0.16748 0.0
C453 C 0.02638 0.03719 0.15834 0.0
C454 C 0.03449 0.07041 0.18412 0.0
C455 C 0.09002 0.09749 0.18357 0.0
C456 C 0.99121 0.1012 0.18517 0.0
C457 C 0.02915 0.03887 0.20903 0.0
C458 C 0.02032 0.99482 0.19887 0.0
C459 C 0.01318 0.95958 0.2176 0.0
C460 C 0.01451 0.9696 0.24759 0.0
C461 C 0.02319 0.01455 0.25871 0.0
C462 C 0.03114 0.0495 0.23893 0.0
H463 H 0.99606 0.07147 0.92503 0.0
H464 H 0.04293 0.93967 0.9342 0.0
H465 H 0.04145 0.92714 0.88138 0.0
H466 H 0.908 0.0414 0.86393 0.0
H467 H 0.92675 0.09266 0.84564 0.0
H468 H 0.93133 0.09232 0.88462 0.0
H469 H 0.03034 0.12531 0.88222 0.0
H470 H 0.02612 0.12555 0.8432 0.0
H471 H 0.07466 0.09678 0.86004 0.0
H472 H 0.03305 0.9264 0.82857 0.0
H473 H 0.01874 0.93853 0.77682 0.0
H474 H 0.98042 0.07139 0.79909 0.0
C475 C 1.00593 0.04004 0.91584 0.0
C476 C 0.01975 1.00662 0.93392 0.0
C477 C 0.0326 0.966 0.92099 0.0
C478 C 0.03183 0.95841 0.89091 0.0
C479 C 0.01857 0.99186 0.87373 0.0
C480 C 1.00602 0.03197 0.88549 0.0
C481 C 0.99356 0.06204 0.86151 0.0
C482 C 0.93651 0.07273 0.86409 0.0
C483 C 0.03356 0.10498 0.86177 0.0
C484 C 1.00038 0.03214 0.8347 0.0
C485 C 0.01486 0.99185 0.8425 0.0
C486 C 0.02213 0.95792 0.82209 0.0
C487 C 0.01397 0.96508 0.7928 0.0
C488 C 0.99902 1.00589 0.78411 0.0
C489 C 0.99259 0.04013 0.80527 0.0
H490 H 0.52462 0.46576 0.6173 0.0
H491 H 0.54972 0.60749 0.60138 0.0
H492 H 0.55623 0.62529 0.65411 0.0
H493 H 0.44011 0.47688 0.67825 0.0
H494 H 0.46329 0.43342 0.6983 0.0
H495 H 0.46599 0.43115 0.65924 0.0
H496 H 0.56655 0.42658 0.66146 0.0
H497 H 0.56414 0.42888 0.70057 0.0
H498 H 0.60933 0.46913 0.68197 0.0
H499 H 0.55604 0.62851 0.70742 0.0
H500 H 0.5443 0.61751 0.75974 0.0
H501 H 0.51553 0.47372 0.74295 0.0
C502 C 0.53247 0.50039 0.6251 0.0
C503 C 0.53748 0.53542 0.60553 0.0
C504 C 0.54612 0.5804 0.61622 0.0
C505 C 0.55004 0.59077 0.64605 0.0
C506 C 0.54443 0.55572 0.6649 0.0
C507 C 0.53536 0.51144 0.65503 0.0
C508 C 0.52648 0.48065 0.68028 0.0
C509 C 0.47065 0.45395 0.67893 0.0
C510 C 0.56919 0.44946 0.68111 0.0
C511 C 0.53212 0.51462 0.70577 0.0
C512 C 0.54282 0.55764 0.69621 0.0
C513 C 0.54788 0.59502 0.71524 0.0
C514 C 0.541 0.58845 0.74487 0.0
C515 C 0.52901 0.54485 0.7553 0.0
C516 C 0.52533 0.50736 0.73553 0.0
H517 H 0.48623 0.57241 0.42286 0.0
H518 H 0.53039 0.44021 0.43341 0.0
H519 H 0.52587 0.42551 0.38046 0.0
H520 H 0.39617 0.54337 0.36163 0.0
H521 H 0.41747 0.59433 0.34347 0.0
H522 H 0.42084 0.5938 0.38249 0.0
H523 H 0.52079 0.62413 0.381 0.0
H524 H 0.51776 0.62475 0.342 0.0
H525 H 0.56436 0.59433 0.35914 0.0
H526 H 0.51972 0.42553 0.32659 0.0
H527 H 0.51658 0.44176 0.27483 0.0
H528 H 0.47647 0.57399 0.29834 0.0
C529 C 0.49429 0.54023 0.41398 0.0
C530 C 0.50834 0.50734 0.43225 0.0
C531 C 0.51961 0.46593 0.41982 0.0
C532 C 0.51696 0.45715 0.38976 0.0
C533 C 0.50343 0.49026 0.37229 0.0
C534 C 0.49263 0.53109 0.38383 0.0
C535 C 0.48218 0.56169 0.35991 0.0
C536 C 0.42579 0.57402 0.36201 0.0
C537 C 0.52374 0.60371 0.36056 0.0
C538 C 0.48854 0.53156 0.33327 0.0
C539 C 0.50057 0.49047 0.34096 0.0
C540 C 0.50985 0.45747 0.32024 0.0
C541 C 0.5075 0.46691 0.29081 0.0
C542 C 0.49594 0.50906 0.28225 0.0
C543 C 0.48574 0.5415 0.30397 0.0
loop_
_geom_bond_atom_site_label_1
_geom_bond_atom_site_label_2
_geom_bond_distance
_geom_bond_site_symmetry_2
_ccdc_geom_bond_type
Co0 N5 2.057 . S
Co0 O17 2.021 . S
Co0 O20 2.062 1_455 S
Co0 O24 2.117 1_554 S
Co0 O25 2.020 1_565 S
C1 O21 1.259 1_455 S
C1 O24 1.258 1_545 S
Co2 N11 2.057 . S
Co2 O18 2.117 . S
Co2 O19 2.020 1_545 S
Co2 O21 2.021 1_554 S
Co2 O26 2.062 1_655 S
C3 N5 1.316 . S
C3 N6 1.347 . S
C3 H8 0.931 . S
C4 N5 1.375 1_556 S
C4 C7 1.350 . S
C4 H9 0.930 . S
N5 Co0 2.057 . S
N5 C3 1.316 . S
N5 C4 1.375 1_554 S
N6 C3 1.347 . S
N6 C7 1.373 1_554 S
C7 C4 1.350 . S
C7 N6 1.373 1_556 S
C7 H28 0.931 . S
H8 C3 0.931 . S
H9 C4 0.930 . S
C10 O17 1.259 1_545 S
C10 O18 1.258 1_455 S
N11 Co2 2.057 . S
N11 C12 1.316 . S
N11 C13 1.375 . S
C12 N11 1.316 . S
C12 N14 1.347 . S
C12 H23 0.931 1_554 S
C13 N11 1.375 . S
C13 C15 1.350 . S
C13 H22 0.930 . S
N14 C12 1.347 . S
N14 C15 1.373 . S
C15 C13 1.350 . S
C15 N14 1.373 . S
C15 H29 0.931 . S
C16 O19 1.256 . S
C16 O20 1.255 . S
O17 Co0 2.021 . S
O17 C10 1.259 1_565 S
O18 Co2 2.117 . S
O18 C10 1.258 1_655 S
O19 Co2 2.020 1_565 S
O19 C16 1.256 . S
O20 Co0 2.062 1_655 S
O20 C16 1.255 . S
O21 C1 1.259 1_655 S
O21 Co2 2.021 1_556 S
H22 C13 0.930 . S
H23 C12 0.931 1_556 S
O24 Co0 2.117 1_556 S
O24 C1 1.258 1_565 S
O25 Co0 2.020 1_545 S
O25 C27 1.256 . S
O26 Co2 2.062 1_455 S
O26 C27 1.255 . S
C27 O25 1.256 . S
C27 O26 1.255 . S
H28 C7 0.931 . S
H29 C15 0.931 . S
Co30 N35 2.057 . S
Co30 O47 2.021 . S
Co30 O50 2.062 . S
Co30 O54 2.117 . S
Co30 O55 2.020 . S
C31 O51 1.259 . S
C31 O54 1.258 . S
Co32 N41 2.057 . S
Co32 O48 2.117 . S
Co32 O49 2.020 . S
Co32 O51 2.021 . S
Co32 O56 2.062 . S
C33 N35 1.316 . S
C33 N36 1.347 . S
C33 H38 0.931 . S
C34 N35 1.375 . S
C34 C37 1.350 . S
C34 H39 0.930 . S
N35 Co30 2.057 . S
N35 C33 1.316 . S
N35 C34 1.375 . S
N36 C33 1.347 . S
N36 C37 1.373 . S
C37 C34 1.350 . S
C37 N36 1.373 . S
C37 H58 0.931 . S
H38 C33 0.931 . S
H39 C34 0.930 . S
C40 O47 1.259 . S
C40 O48 1.258 . S
N41 Co32 2.057 . S
N41 C42 1.316 . S
N41 C43 1.375 . S
C42 N41 1.316 . S
C42 N44 1.347 . S
C42 H53 0.931 . S
C43 N41 1.375 . S
C43 C45 1.350 . S
C43 H52 0.930 . S
N44 C42 1.347 . S
N44 C45 1.373 . S
C45 C43 1.350 . S
C45 N44 1.373 . S
C45 H59 0.931 . S
C46 O49 1.256 . S
C46 O50 1.255 . S
O47 Co30 2.021 . S
O47 C40 1.259 . S
O48 Co32 2.117 . S
O48 C40 1.258 . S
O49 Co32 2.020 . S
O49 C46 1.256 . S
O50 Co30 2.062 . S
O50 C46 1.255 . S
O51 C31 1.259 . S
O51 Co32 2.021 . S
H52 C43 0.930 . S
H53 C42 0.931 . S
O54 Co30 2.117 . S
O54 C31 1.258 . S
O55 Co30 2.020 . S
O55 C57 1.256 . S
O56 Co32 2.062 . S
O56 C57 1.255 . S
C57 O55 1.256 . S
C57 O56 1.255 . S
H58 C37 0.931 . S
H59 C45 0.931 . S
C60 C61 1.264 . S
C60 C65 1.479 . S
C60 C70 1.465 . S
C61 C60 1.264 . S
C61 C63 1.339 . S
C61 H88 0.931 . S
C62 C63 1.395 . S
C62 C64 1.320 . S
C63 C61 1.339 . S
C63 C62 1.395 . S
C63 H89 0.929 . S
C64 C62 1.320 . S
C64 C65 1.405 . S
C64 H90 0.930 . S
C65 C60 1.479 . S
C65 C64 1.405 . S
C65 H91 0.931 . S
U66 O67 2.454 1_545 S
U66 O68 2.458 1_545 S
U66 C69 2.984 1_545 S
U66 C70 2.847 1_455 S
U66 C83 2.882 . S
U66 O84 2.441 1_455 S
U66 O85 2.420 1_455 S
U66 O86 2.455 1_545 S
U66 O87 2.449 . S
O67 U66 2.454 1_565 S
O67 C69 1.353 . S
O68 U66 2.458 1_565 S
O68 C69 1.286 . S
C69 U66 2.984 1_565 S
C69 O67 1.353 . S
C69 O68 1.286 . S
C69 C71 1.363 . S
C70 C60 1.465 . S
C70 U66 2.847 1_655 S
C70 O84 1.249 . S
C70 O85 1.202 . S
C71 C69 1.363 . S
C71 C73 1.408 . S
C71 C76 1.342 . S
C72 C73 1.310 . S
C72 C75 1.461 . S
C72 H92 0.932 . S
C73 C71 1.408 . S
C73 C72 1.310 . S
C73 H93 0.930 . S
C74 C75 1.474 . S
C74 C76 1.285 . S
C74 H94 0.929 . S
C75 C72 1.461 . S
C75 C74 1.474 . S
C76 C71 1.342 . S
C76 C74 1.285 . S
C76 H95 0.930 . S
C77 C80 1.424 1_455 S
C77 C82 1.245 1_545 S
C77 C83 1.428 . S
C78 C81 1.260 1_565 S
C78 C82 1.477 . S
C78 H96 0.932 . S
C79 C80 1.384 . S
C79 C81 1.479 1_655 S
C79 H97 0.929 . S
C80 C77 1.424 1_655 S
C80 C79 1.384 . S
C80 H98 0.928 . S
C81 C78 1.260 1_545 S
C81 C79 1.479 1_455 S
C82 C77 1.245 1_565 S
C82 C78 1.477 . S
C82 H99 0.932 . S
C83 U66 2.882 . S
C83 C77 1.428 . S
C83 O86 1.301 1_545 S
C83 O87 1.282 . S
O84 U66 2.441 1_655 S
O84 C70 1.249 . S
O85 U66 2.420 1_655 S
O85 C70 1.202 . S
O86 U66 2.455 1_565 S
O86 C83 1.301 1_565 S
O87 U66 2.449 . S
O87 C83 1.282 . S
H88 C61 0.931 . S
H89 C63 0.929 . S
H90 C64 0.930 . S
H91 C65 0.931 . S
H92 C72 0.932 . S
H93 C73 0.930 . S
H94 C74 0.929 . S
H95 C76 0.930 . S
H96 C78 0.932 . S
H97 C79 0.929 . S
H98 C80 0.928 . S
H99 C82 0.932 . S
C100 C101 1.264 . S
C100 C105 1.479 . S
C100 C110 1.465 . S
C101 C100 1.264 . S
C101 C103 1.339 . S
C101 H128 0.931 . S
C102 C103 1.395 . S
C102 C104 1.320 . S
C103 C101 1.339 . S
C103 C102 1.395 . S
C103 H129 0.929 . S
C104 C102 1.320 . S
C104 C105 1.405 . S
C104 H130 0.930 . S
C105 C100 1.479 . S
C105 C104 1.405 . S
C105 H131 0.931 . S
U106 O107 2.454 . S
U106 O108 2.458 . S
U106 C109 2.984 . S
U106 C110 2.847 1_445 S
U106 C123 2.882 . S
U106 O124 2.441 1_445 S
U106 O125 2.420 1_445 S
U106 O126 2.455 . S
U106 O127 2.449 1_545 S
O107 U106 2.454 . S
O107 C109 1.353 . S
O108 U106 2.458 . S
O108 C109 1.286 . S
C109 U106 2.984 . S
C109 O107 1.353 . S
C109 O108 1.286 . S
C109 C111 1.363 . S
C110 C100 1.465 . S
C110 U106 2.847 1_665 S
C110 O124 1.249 . S
C110 O125 1.202 . S
C111 C109 1.363 . S
C111 C113 1.408 . S
C111 C116 1.342 . S
C112 C113 1.310 . S
C112 C115 1.461 . S
C112 H132 0.932 . S
C113 C111 1.408 . S
C113 C112 1.310 . S
C113 H133 0.930 . S
C114 C115 1.474 . S
C114 C116 1.285 . S
C114 H134 0.929 . S
C115 C112 1.461 . S
C115 C114 1.474 . S
C116 C111 1.342 . S
C116 C114 1.285 . S
C116 H135 0.930 . S
C117 C120 1.424 1_445 S
C117 C122 1.245 . S
C117 C123 1.428 . S
C118 C121 1.260 . S
C118 C122 1.477 . S
C118 H136 0.932 . S
C119 C120 1.384 . S
C119 C121 1.479 1_665 S
C119 H137 0.929 . S
C120 C117 1.424 1_665 S
C120 C119 1.384 . S
C120 H138 0.928 . S
C121 C118 1.260 . S
C121 C119 1.479 1_445 S
C122 C117 1.245 . S
C122 C118 1.477 . S
C122 H139 0.932 . S
C123 U106 2.882 . S
C123 C117 1.428 . S
C123 O126 1.301 . S
C123 O127 1.282 1_545 S
O124 U106 2.441 1_665 S
O124 C110 1.249 . S
O125 U106 2.420 1_665 S
O125 C110 1.202 . S
O126 U106 2.455 . S
O126 C123 1.301 . S
O127 U106 2.449 1_565 S
O127 C123 1.282 1_565 S
H128 C101 0.931 . S
H129 C103 0.929 . S
H130 C104 0.930 . S
H131 C105 0.931 . S
H132 C112 0.932 . S
H133 C113 0.930 . S
H134 C114 0.929 . S
H135 C116 0.930 . S
H136 C118 0.932 . S
H137 C119 0.929 . S
H138 C120 0.928 . S
H139 C122 0.932 . S
C140 C141 1.264 . S
C140 C145 1.479 1_556 S
C140 C150 1.465 . S
C141 C140 1.264 . S
C141 C143 1.339 . S
C141 H168 0.931 . S
C142 C143 1.395 1_554 S
C142 C144 1.320 . S
C143 C141 1.339 . S
C143 C142 1.395 1_556 S
C143 H169 0.929 . S
C144 C142 1.320 . S
C144 C145 1.405 . S
C144 H170 0.930 . S
C145 C140 1.479 1_554 S
C145 C144 1.405 . S
C145 H171 0.931 . S
U146 O147 2.454 . S
U146 O148 2.458 . S
U146 C149 2.984 . S
U146 C150 2.847 . S
U146 C163 2.882 . S
U146 O164 2.441 . S
U146 O165 2.420 . S
U146 O166 2.455 . S
U146 O167 2.449 . S
O147 U146 2.454 . S
O147 C149 1.353 . S
O148 U146 2.458 . S
O148 C149 1.286 . S
C149 U146 2.984 . S
C149 O147 1.353 . S
C149 O148 1.286 . S
C149 C151 1.363 . S
C150 C140 1.465 . S
C150 U146 2.847 . S
C150 O164 1.249 . S
C150 O165 1.202 . S
C151 C149 1.363 . S
C151 C153 1.408 1_556 S
C151 C156 1.342 . S
C152 C153 1.310 . S
C152 C155 1.479 . S
C152 H172 0.932 . S
C153 C151 1.408 1_554 S
C153 C152 1.310 . S
C153 H173 0.930 . S
C154 C155 1.438 1_556 S
C154 C156 1.285 . S
C154 H174 0.929 . S
C155 C152 1.479 . S
C155 C154 1.438 1_554 S
C156 C151 1.342 . S
C156 C154 1.285 . S
C156 H175 0.930 . S
C157 C160 1.424 . S
C157 C162 1.245 . S
C157 C163 1.428 . S
C158 C161 1.260 . S
C158 C162 1.477 . S
C158 H176 0.932 . S
C159 C160 1.384 . S
C159 C161 1.479 . S
C159 H177 0.929 . S
C160 C157 1.424 . S
C160 C159 1.384 . S
C160 H178 0.928 . S
C161 C158 1.260 . S
C161 C159 1.479 . S
C162 C157 1.245 . S
C162 C158 1.477 . S
C162 H179 0.932 . S
C163 U146 2.882 . S
C163 C157 1.428 . S
C163 O166 1.301 . S
C163 O167 1.282 . S
O164 U146 2.441 . S
O164 C150 1.249 . S
O165 U146 2.420 . S
O165 C150 1.202 . S
O166 U146 2.455 . S
O166 C163 1.301 . S
O167 U146 2.449 . S
O167 C163 1.282 . S
H168 C141 0.931 . S
H169 C143 0.929 . S
H170 C144 0.930 . S
H171 C145 0.931 . S
H172 C152 0.932 . S
H173 C153 0.930 . S
H174 C154 0.929 . S
H175 C156 0.930 . S
H176 C158 0.932 . S
H177 C159 0.929 . S
H178 C160 0.928 . S
H179 C162 0.932 . S
C180 C181 1.264 . S
C180 C185 1.479 . S
C180 C190 1.465 . S
C181 C180 1.264 . S
C181 C183 1.339 . S
C181 H208 0.931 . S
C182 C183 1.395 . S
C182 C184 1.320 . S
C183 C181 1.339 . S
C183 C182 1.395 . S
C183 H209 0.929 . S
C184 C182 1.320 . S
C184 C185 1.405 . S
C184 H210 0.930 1_554 S
C185 C180 1.479 . S
C185 C184 1.405 . S
C185 H211 0.931 . S
U186 O187 2.454 . S
U186 O188 2.458 . S
U186 C189 2.984 . S
U186 C190 2.847 . S
U186 C203 2.882 . S
U186 O204 2.441 . S
U186 O205 2.420 . S
U186 O206 2.455 . S
U186 O207 2.449 . S
O187 U186 2.454 . S
O187 C189 1.353 . S
O188 U186 2.458 . S
O188 C189 1.286 . S
C189 U186 2.984 . S
C189 O187 1.353 . S
C189 O188 1.286 . S
C189 C191 1.363 . S
C190 C180 1.465 . S
C190 U186 2.847 . S
C190 O204 1.249 . S
C190 O205 1.202 . S
C191 C189 1.363 . S
C191 C193 1.408 . S
C191 C196 1.342 . S
C192 C193 1.310 . S
C192 C195 1.461 . S
C192 H212 0.932 1_554 S
C193 C191 1.408 . S
C193 C192 1.310 . S
C193 H213 0.930 . S
C194 C195 1.474 . S
C194 C196 1.285 . S
C194 H214 0.929 . S
C195 C192 1.461 . S
C195 C194 1.474 . S
C196 C191 1.342 . S
C196 C194 1.285 . S
C196 H215 0.930 . S
C197 C200 1.424 . S
C197 C202 1.245 . S
C197 C203 1.428 . S
C198 C201 1.260 . S
C198 C202 1.477 . S
C198 H216 0.932 . S
C199 C200 1.384 . S
C199 C201 1.479 . S
C199 H217 0.929 . S
C200 C197 1.424 . S
C200 C199 1.384 . S
C200 H218 0.928 . S
C201 C198 1.260 . S
C201 C199 1.479 . S
C202 C197 1.245 . S
C202 C198 1.477 . S
C202 H219 0.932 . S
C203 U186 2.882 . S
C203 C197 1.428 . S
C203 O206 1.301 . S
C203 O207 1.282 . S
O204 U186 2.441 . S
O204 C190 1.249 . S
O205 U186 2.420 . S
O205 C190 1.202 . S
O206 U186 2.455 . S
O206 C203 1.301 . S
O207 U186 2.449 . S
O207 C203 1.282 . S
H208 C181 0.931 . S
H209 C183 0.929 . S
H210 C184 0.930 1_556 S
H211 C185 0.931 . S
H212 C192 0.932 1_556 S
H213 C193 0.930 . S
H214 C194 0.929 . S
H215 C196 0.930 . S
H216 C198 0.932 . S
H217 C199 0.929 . S
H218 C200 0.928 . S
H219 C202 0.932 . S
H220 C232 0.930 1_556 S
H221 C234 0.930 . S
H222 C235 0.930 . S
H223 C239 0.959 . S
H224 C239 0.959 . S
H225 C239 0.961 . S
H226 C240 0.960 . S
H227 C240 0.961 . S
H228 C240 0.959 1_554 S
H229 C243 0.929 . S
H230 C244 0.931 . S
H231 C246 0.930 1_556 S
C232 H220 0.930 1_554 S
C232 C233 1.399 . S
C232 C237 1.399 . S
C233 C232 1.399 . S
C233 C234 1.376 . S
C234 H221 0.930 . S
C234 C233 1.376 . S
C234 C235 1.388 . S
C235 H222 0.930 . S
C235 C234 1.388 . S
C235 C236 1.390 . S
C236 C235 1.390 . S
C236 C237 1.394 . S
C236 C242 1.465 . S
C237 C232 1.399 . S
C237 C236 1.394 . S
C237 C238 1.516 1_554 S
C238 C237 1.516 1_556 S
C238 C239 1.502 . S
C238 C240 1.561 . S
C238 C241 1.526 1_556 S
C239 H223 0.959 . S
C239 H224 0.959 . S
C239 H225 0.961 . S
C239 C238 1.502 . S
C240 H226 0.960 . S
C240 H227 0.961 . S
C240 H228 0.959 1_556 S
C240 C238 1.561 . S
C241 C238 1.526 1_554 S
C241 C242 1.396 . S
C241 C246 1.390 . S
C242 C236 1.465 . S
C242 C241 1.396 . S
C242 C243 1.399 . S
C243 H229 0.929 . S
C243 C242 1.399 . S
C243 C244 1.385 . S
C244 H230 0.931 . S
C244 C243 1.385 . S
C244 C245 1.389 . S
C245 C244 1.389 . S
C245 C246 1.387 . S
C246 H231 0.930 1_554 S
C246 C241 1.390 . S
C246 C245 1.387 . S
H247 C259 0.930 . S
H248 C261 0.930 . S
H249 C262 0.930 . S
H250 C266 0.959 . S
H251 C266 0.959 . S
H252 C266 0.961 . S
H253 C267 0.960 . S
H254 C267 0.961 . S
H255 C267 0.959 . S
H256 C270 0.929 . S
H257 C271 0.931 . S
H258 C273 0.930 . S
C259 H247 0.930 . S
C259 C260 1.399 . S
C259 C264 1.399 . S
C260 C259 1.399 . S
C260 C261 1.376 1_554 S
C261 H248 0.930 . S
C261 C260 1.376 1_556 S
C261 C262 1.388 . S
C262 H249 0.930 . S
C262 C261 1.388 . S
C262 C263 1.418 . S
C263 C262 1.418 . S
C263 C264 1.358 1_556 S
C263 C269 1.466 . S
C264 C259 1.399 . S
C264 C263 1.358 1_554 S
C264 C265 1.516 . S
C265 C264 1.516 . S
C265 C266 1.502 . S
C265 C267 1.561 . S
C265 C268 1.526 . S
C266 H250 0.959 . S
C266 H251 0.959 . S
C266 H252 0.961 . S
C266 C265 1.502 . S
C267 H253 0.960 . S
C267 H254 0.961 . S
C267 H255 0.959 . S
C267 C265 1.561 . S
C268 C265 1.526 . S
C268 C269 1.396 1_554 S
C268 C273 1.390 . S
C269 C263 1.466 . S
C269 C268 1.396 1_556 S
C269 C270 1.399 . S
C270 H256 0.929 . S
C270 C269 1.399 . S
C270 C271 1.385 . S
C271 H257 0.931 . S
C271 C270 1.385 . S
C271 C272 1.389 1_556 S
C272 C271 1.389 1_554 S
C272 C273 1.387 . S
C273 H258 0.930 . S
C273 C268 1.390 . S
C273 C272 1.387 . S
H274 C286 0.930 . S
H275 C288 0.930 . S
H276 C289 0.930 . S
H277 C293 0.959 . S
H278 C293 0.959 . S
H279 C293 0.961 . S
H280 C294 0.960 . S
H281 C294 0.961 . S
H282 C294 0.959 . S
H283 C297 0.929 . S
H284 C298 0.931 . S
H285 C300 0.930 . S
C286 H274 0.930 . S
C286 C287 1.399 1_556 S
C286 C291 1.399 1_556 S
C287 C286 1.399 1_554 S
C287 C288 1.376 . S
C288 H275 0.930 . S
C288 C287 1.376 . S
C288 C289 1.388 . S
C289 H276 0.930 . S
C289 C288 1.388 . S
C289 C290 1.390 . S
C290 C289 1.390 . S
C290 C291 1.394 . S
C290 C296 1.465 . S
C291 C286 1.399 1_554 S
C291 C290 1.394 . S
C291 C292 1.516 1_554 S
C292 C291 1.516 1_556 S
C292 C293 1.502 . S
C292 C294 1.561 . S
C292 C295 1.526 1_556 S
C293 H277 0.959 . S
C293 H278 0.959 . S
C293 H279 0.961 . S
C293 C292 1.502 . S
C294 H280 0.960 . S
C294 H281 0.961 . S
C294 H282 0.959 . S
C294 C292 1.561 . S
C295 C292 1.526 1_554 S
C295 C296 1.396 . S
C295 C300 1.390 1_554 S
C296 C290 1.465 . S
C296 C295 1.396 . S
C296 C297 1.399 . S
C297 H283 0.929 . S
C297 C296 1.399 . S
C297 C298 1.385 . S
C298 H284 0.931 . S
C298 C297 1.385 . S
C298 C299 1.389 . S
C299 C298 1.389 . S
C299 C300 1.387 1_554 S
C300 H285 0.930 . S
C300 C295 1.390 1_556 S
C300 C299 1.387 1_556 S
H301 C313 0.930 . S
H302 C315 0.942 . S
H303 C316 0.930 . S
H304 C320 0.959 . S
H305 C320 0.959 . S
H306 C320 0.961 . S
H307 C321 0.960 . S
H308 C321 0.961 . S
H309 C321 0.959 1_556 S
H310 C324 0.929 . S
H311 C325 0.931 . S
H312 C327 0.930 . S
C313 H301 0.930 . S
C313 C314 1.399 . S
C313 C318 1.399 . S
C314 C313 1.399 . S
C314 C315 1.360 1_554 S
C315 H302 0.942 . S
C315 C314 1.360 1_556 S
C315 C316 1.396 . S
C316 H303 0.930 . S
C316 C315 1.396 . S
C316 C317 1.390 1_556 S
C317 C316 1.390 1_554 S
C317 C318 1.394 . S
C317 C323 1.465 . S
C318 C313 1.399 . S
C318 C317 1.394 . S
C318 C319 1.516 . S
C319 C318 1.516 . S
C319 C320 1.502 . S
C319 C321 1.561 . S
C319 C322 1.526 . S
C320 H304 0.959 . S
C320 H305 0.959 . S
C320 H306 0.961 . S
C320 C319 1.502 . S
C321 H307 0.960 . S
C321 H308 0.961 . S
C321 H309 0.959 1_554 S
C321 C319 1.561 . S
C322 C319 1.526 . S
C322 C323 1.396 . S
C322 C327 1.390 . S
C323 C317 1.465 . S
C323 C322 1.396 . S
C323 C324 1.399 1_554 S
C324 H310 0.929 . S
C324 C323 1.399 1_556 S
C324 C325 1.385 . S
C325 H311 0.931 . S
C325 C324 1.385 . S
C325 C326 1.389 1_556 S
C326 C325 1.389 1_554 S
C326 C327 1.387 . S
C327 H312 0.930 . S
C327 C322 1.390 . S
C327 C326 1.387 . S
H328 C340 0.930 . S
H329 C342 0.930 . S
H330 C343 0.930 . S
H331 C347 0.959 . S
H332 C347 0.959 . S
H333 C347 0.961 . S
H334 C348 0.960 . S
H335 C348 0.961 . S
H336 C348 0.959 . S
H337 C351 0.929 . S
H338 C352 0.931 . S
H339 C354 0.930 . S
C340 H328 0.930 . S
C340 C341 1.399 . S
C340 C345 1.399 . S
C341 C340 1.399 . S
C341 C342 1.376 . S
C342 H329 0.930 . S
C342 C341 1.376 . S
C342 C343 1.388 . S
C343 H330 0.930 . S
C343 C342 1.388 . S
C343 C344 1.390 . S
C344 C343 1.390 . S
C344 C345 1.394 . S
C344 C350 1.465 . S
C345 C340 1.399 . S
C345 C344 1.394 . S
C345 C346 1.516 . S
C346 C345 1.516 . S
C346 C347 1.502 . S
C346 C348 1.561 . S
C346 C349 1.526 . S
C347 H331 0.959 . S
C347 H332 0.959 . S
C347 H333 0.961 . S
C347 C346 1.502 . S
C348 H334 0.960 . S
C348 H335 0.961 . S
C348 H336 0.959 . S
C348 C346 1.561 . S
C349 C346 1.526 . S
C349 C350 1.396 . S
C349 C354 1.390 . S
C350 C344 1.465 . S
C350 C349 1.396 . S
C350 C351 1.399 . S
C351 H337 0.929 . S
C351 C350 1.399 . S
C351 C352 1.385 . S
C352 H338 0.931 . S
C352 C351 1.385 . S
C352 C353 1.389 . S
C353 C352 1.389 . S
C353 C354 1.387 . S
C354 H339 0.930 . S
C354 C349 1.390 . S
C354 C353 1.387 . S
H355 C367 0.930 . S
H356 C369 0.930 . S
H357 C370 0.930 . S
H358 C374 0.959 . S
H359 C374 0.959 . S
H360 C374 0.961 . S
H361 C375 0.960 . S
H362 C375 0.961 . S
H363 C375 0.959 . S
H364 C378 0.929 . S
H365 C379 0.931 . S
H366 C381 0.930 . S
C367 H355 0.930 . S
C367 C368 1.399 . S
C367 C372 1.399 . S
C368 C367 1.399 . S
C368 C369 1.376 . S
C369 H356 0.930 . S
C369 C368 1.376 . S
C369 C370 1.388 . S
C370 H357 0.930 . S
C370 C369 1.388 . S
C370 C371 1.390 . S
C371 C370 1.390 . S
C371 C372 1.394 . S
C371 C377 1.465 . S
C372 C367 1.399 . S
C372 C371 1.394 . S
C372 C373 1.516 . S
C373 C372 1.516 . S
C373 C374 1.502 . S
C373 C375 1.561 . S
C373 C376 1.526 . S
C374 H358 0.959 . S
C374 H359 0.959 . S
C374 H360 0.961 . S
C374 C373 1.502 . S
C375 H361 0.960 . S
C375 H362 0.961 . S
C375 H363 0.959 . S
C375 C373 1.561 . S
C376 C373 1.526 . S
C376 C377 1.396 . S
C376 C381 1.390 . S
C377 C371 1.465 . S
C377 C376 1.396 . S
C377 C378 1.399 . S
C378 H364 0.929 . S
C378 C377 1.399 . S
C378 C379 1.385 . S
C379 H365 0.931 . S
C379 C378 1.385 . S
C379 C380 1.389 . S
C380 C379 1.389 . S
C380 C381 1.387 . S
C381 H366 0.930 . S
C381 C376 1.390 . S
C381 C380 1.387 . S
H382 C394 0.930 . S
H383 C396 0.930 . S
H384 C397 0.930 . S
H385 C401 0.959 . S
H386 C401 0.959 . S
H387 C401 0.961 . S
H388 C402 0.960 . S
H389 C402 0.961 . S
H390 C402 0.959 . S
H391 C405 0.929 . S
H392 C406 0.931 . S
H393 C408 0.930 . S
C394 H382 0.930 . S
C394 C395 1.399 . S
C394 C399 1.399 . S
C395 C394 1.399 . S
C395 C396 1.376 . S
C396 H383 0.930 . S
C396 C395 1.376 . S
C396 C397 1.388 . S
C397 H384 0.930 . S
C397 C396 1.388 . S
C397 C398 1.390 . S
C398 C397 1.390 . S
C398 C399 1.394 . S
C398 C404 1.465 . S
C399 C394 1.399 . S
C399 C398 1.394 . S
C399 C400 1.516 . S
C400 C399 1.516 . S
C400 C401 1.502 . S
C400 C402 1.561 . S
C400 C403 1.526 . S
C401 H385 0.959 . S
C401 H386 0.959 . S
C401 H387 0.961 . S
C401 C400 1.502 . S
C402 H388 0.960 . S
C402 H389 0.961 . S
C402 H390 0.959 . S
C402 C400 1.561 . S
C403 C400 1.526 . S
C403 C404 1.396 . S
C403 C408 1.390 . S
C404 C398 1.465 . S
C404 C403 1.396 . S
C404 C405 1.399 . S
C405 H391 0.929 . S
C405 C404 1.399 . S
C405 C406 1.385 . S
C406 H392 0.931 . S
C406 C405 1.385 . S
C406 C407 1.389 . S
C407 C406 1.389 . S
C407 C408 1.387 . S
C408 H393 0.930 . S
C408 C403 1.390 . S
C408 C407 1.387 . S
H409 C421 0.930 . S
H410 C423 0.930 . S
H411 C424 0.930 . S
H412 C428 0.959 . S
H413 C428 0.959 . S
H414 C428 0.961 . S
H415 C429 0.960 . S
H416 C429 0.961 . S
H417 C429 0.959 . S
H418 C432 0.929 . S
H419 C433 0.931 . S
H420 C435 0.930 . S
C421 H409 0.930 . S
C421 C422 1.399 . S
C421 C426 1.399 . S
C422 C421 1.399 . S
C422 C423 1.376 . S
C423 H410 0.930 . S
C423 C422 1.376 . S
C423 C424 1.388 . S
C424 H411 0.930 . S
C424 C423 1.388 . S
C424 C425 1.390 . S
C425 C424 1.390 . S
C425 C426 1.394 . S
C425 C431 1.465 . S
C426 C421 1.399 . S
C426 C425 1.394 . S
C426 C427 1.516 . S
C427 C426 1.516 . S
C427 C428 1.502 . S
C427 C429 1.561 . S
C427 C430 1.526 . S
C428 H412 0.959 . S
C428 H413 0.959 . S
C428 H414 0.961 . S
C428 C427 1.502 . S
C429 H415 0.960 . S
C429 H416 0.961 . S
C429 H417 0.959 . S
C429 C427 1.561 . S
C430 C427 1.526 . S
C430 C431 1.396 . S
C430 C435 1.390 . S
C431 C425 1.465 . S
C431 C430 1.396 . S
C431 C432 1.399 . S
C432 H418 0.929 . S
C432 C431 1.399 . S
C432 C433 1.385 . S
C433 H419 0.931 . S
C433 C432 1.385 . S
C433 C434 1.389 . S
C434 C433 1.389 . S
C434 C435 1.387 . S
C435 H420 0.930 . S
C435 C430 1.390 . S
C435 C434 1.387 . S
H436 C448 0.930 . S
H437 C450 0.930 . S
H438 C451 0.930 . S
H439 C455 0.959 . S
H440 C455 0.959 . S
H441 C455 0.961 . S
H442 C456 0.960 . S
H443 C456 0.961 . S
H444 C456 0.959 1_655 S
H445 C459 0.929 . S
H446 C460 0.931 . S
H447 C462 0.930 . S
C448 H436 0.930 . S
C448 C449 1.404 . S
C448 C453 1.399 . S
C449 C448 1.404 . S
C449 C450 1.370 1_445 S
C450 H437 0.930 . S
C450 C449 1.370 1_665 S
C450 C451 1.388 . S
C451 H438 0.930 . S
C451 C450 1.388 . S
C451 C452 1.390 . S
C452 C451 1.390 . S
C452 C453 1.394 1_665 S
C452 C458 1.465 . S
C453 C448 1.399 . S
C453 C452 1.394 1_445 S
C453 C454 1.516 . S
C454 C453 1.516 . S
C454 C455 1.502 . S
C454 C456 1.561 . S
C454 C457 1.526 . S
C455 H439 0.959 . S
C455 H440 0.959 . S
C455 H441 0.961 . S
C455 C454 1.502 . S
C456 H442 0.960 . S
C456 H443 0.961 . S
C456 H444 0.959 1_455 S
C456 C454 1.561 . S
C457 C454 1.526 . S
C457 C458 1.396 1_445 S
C457 C462 1.390 . S
C458 C452 1.465 . S
C458 C457 1.396 1_665 S
C458 C459 1.399 . S
C459 H445 0.929 . S
C459 C458 1.399 . S
C459 C460 1.385 . S
C460 H446 0.931 . S
C460 C459 1.385 . S
C460 C461 1.395 . S
C461 C460 1.395 . S
C461 C462 1.381 1_665 S
C462 H447 0.930 . S
C462 C457 1.390 . S
C462 C461 1.381 1_445 S
H463 C475 0.933 . S
H464 C477 0.930 . S
H465 C478 0.930 . S
H466 C482 0.959 . S
H467 C482 0.959 . S
H468 C482 0.961 . S
H469 C483 0.960 . S
H470 C483 0.961 . S
H471 C483 0.959 . S
H472 C486 0.929 . S
H473 C487 0.931 . S
H474 C489 0.930 . S
C475 H463 0.933 . S
C475 C476 1.397 1_655 S
C475 C480 1.398 1_655 S
C476 C475 1.397 1_455 S
C476 C477 1.376 1_545 S
C477 H464 0.930 . S
C477 C476 1.376 1_565 S
C477 C478 1.388 . S
C478 H465 0.930 . S
C478 C477 1.388 . S
C478 C479 1.390 . S
C479 C478 1.390 . S
C479 C480 1.394 1_565 S
C479 C485 1.465 . S
C480 C475 1.398 1_455 S
C480 C479 1.394 1_545 S
C480 C481 1.516 1_455 S
C481 C480 1.516 1_655 S
C481 C482 1.502 . S
C481 C483 1.561 1_655 S
C481 C484 1.526 1_655 S
C482 H466 0.959 . S
C482 H467 0.959 . S
C482 H468 0.961 . S
C482 C481 1.502 . S
C483 H469 0.960 . S
C483 H470 0.961 . S
C483 H471 0.959 . S
C483 C481 1.561 1_455 S
C484 C481 1.526 1_455 S
C484 C485 1.396 1_545 S
C484 C489 1.390 1_455 S
C485 C479 1.465 . S
C485 C484 1.396 1_565 S
C485 C486 1.399 . S
C486 H472 0.929 . S
C486 C485 1.399 . S
C486 C487 1.385 . S
C487 H473 0.931 . S
C487 C486 1.385 . S
C487 C488 1.389 1_565 S
C488 C487 1.389 1_545 S
C488 C489 1.387 1_455 S
C489 H474 0.930 . S
C489 C484 1.390 1_655 S
C489 C488 1.387 1_655 S
H490 C502 0.930 . S
H491 C504 0.930 . S
H492 C505 0.930 . S
H493 C509 0.959 . S
H494 C509 0.959 . S
H495 C509 0.961 . S
H496 C510 0.960 . S
H497 C510 0.961 . S
H498 C510 0.959 . S
H499 C513 0.929 . S
H500 C514 0.931 . S
H501 C516 0.930 . S
C502 H490 0.930 . S
C502 C503 1.399 . S
C502 C507 1.399 . S
C503 C502 1.399 . S
C503 C504 1.376 . S
C504 H491 0.930 . S
C504 C503 1.376 . S
C504 C505 1.388 . S
C505 H492 0.930 . S
C505 C504 1.388 . S
C505 C506 1.390 . S
C506 C505 1.390 . S
C506 C507 1.394 . S
C506 C512 1.465 . S
C507 C502 1.399 . S
C507 C506 1.394 . S
C507 C508 1.516 . S
C508 C507 1.516 . S
C508 C509 1.502 . S
C508 C510 1.561 . S
C508 C511 1.526 . S
C509 H493 0.959 . S
C509 H494 0.959 . S
C509 H495 0.961 . S
C509 C508 1.502 . S
C510 H496 0.960 . S
C510 H497 0.961 . S
C510 H498 0.959 . S
C510 C508 1.561 . S
C511 C508 1.526 . S
C511 C512 1.396 . S
C511 C516 1.390 . S
C512 C506 1.465 . S
C512 C511 1.396 . S
C512 C513 1.399 . S
C513 H499 0.929 . S
C513 C512 1.399 . S
C513 C514 1.385 . S
C514 H500 0.931 . S
C514 C513 1.385 . S
C514 C515 1.389 . S
C515 C514 1.389 . S
C515 C516 1.387 . S
C516 H501 0.930 . S
C516 C511 1.390 . S
C516 C515 1.387 . S
H517 C529 0.930 . S
H518 C531 0.930 . S
H519 C532 0.930 . S
H520 C536 0.959 . S
H521 C536 0.959 . S
H522 C536 0.961 . S
H523 C537 0.960 . S
H524 C537 0.961 . S
H525 C537 0.959 . S
H526 C540 0.929 . S
H527 C541 0.931 . S
H528 C543 0.930 . S
C529 H517 0.930 . S
C529 C530 1.399 . S
C529 C534 1.399 . S
C530 C529 1.399 . S
C530 C531 1.376 . S
C531 H518 0.930 . S
C531 C530 1.376 . S
C531 C532 1.388 . S
C532 H519 0.930 . S
C532 C531 1.388 . S
C532 C533 1.390 . S
C533 C532 1.390 . S
C533 C534 1.394 . S
C533 C539 1.465 . S
C534 C529 1.399 . S
C534 C533 1.394 . S
C534 C535 1.516 . S
C535 C534 1.516 . S
C535 C536 1.502 . S
C535 C537 1.561 . S
C535 C538 1.526 . S
C536 H520 0.959 . S
C536 H521 0.959 . S
C536 H522 0.961 . S
C536 C535 1.502 . S
C537 H523 0.960 . S
C537 H524 0.961 . S
C537 H525 0.959 . S
C537 C535 1.561 . S
C538 C535 1.526 . S
C538 C539 1.396 . S
C538 C543 1.390 . S
C539 C533 1.465 . S
C539 C538 1.396 . S
C539 C540 1.399 . S
C540 H526 0.929 . S
C540 C539 1.399 . S
C540 C541 1.385 . S
C541 H527 0.931 . S
C541 C540 1.385 . S
C541 C542 1.389 . S
C542 C541 1.389 . S
C542 C543 1.387 . S
C543 H528 0.930 . S
C543 C538 1.390 . S
C543 C542 1.387 . S
C245 C182 1.469 . S
C233 C27 1.540 . S
C260 N6 1.416 . S
C272 C142 1.421 . S
C287 C16 1.517 . S
C299 C195 1.440 . S
C314 N14 1.444 . S
C326 C155 1.425 . S
C341 C57 1.539 . S
C353 C102 1.510 . S
C368 N36 1.454 . S
C380 C62 1.459 . S
C407 C115 1.508 . S
C395 C46 1.519 . S
C434 C75 1.406 . S
C422 N44 1.462 . S
C449 C10 1.394 . S
C461 C81 1.397 1_665 S
C476 C1 1.531 . S
C488 C121 1.493 . S
C515 C161 1.356 . S
C503 C40 1.382 . S
C530 C31 1.531 . S
C542 C201 1.494 . S
