# Generated by pormake.
# Topology ocu, (6,8)-cn, num edge types: 1
# Building blocks:
#     Node 0, Type 0, BuildingBlock: VOLQOD_clean_sbu_1, # of connection points: 6
#     Node 1, Type 0, BuildingBlock: VOLQOD_clean_sbu_1, # of connection points: 6
#     Node 2, Type 0, BuildingBlock: VOLQOD_clean_sbu_1, # of connection points: 6
#     Node 3, Type 0, BuildingBlock: VOLQOD_clean_sbu_1, # of connection points: 6
#     Node 4, Type 0, BuildingBlock: VOLQOD_clean_sbu_1, # of connection points: 6
#     Node 5, Type 0, BuildingBlock: VOLQOD_clean_sbu_1, # of connection points: 6
#     Node 6, Type 0, BuildingBlock: VOLQOD_clean_sbu_1, # of connection points: 6
#     Node 7, Type 0, BuildingBlock: VOLQOD_clean_sbu_1, # of connection points: 6
#     Node 8, Type 1, BuildingBlock: AJUNOK_clean_sbu_0, # of connection points: 8
#     Node 9, Type 1, BuildingBlock: AJUNOK_clean_sbu_0, # of connection points: 8
#     Node 10, Type 1, BuildingBlock: AJUNOK_clean_sbu_0, # of connection points: 8
#     Node 11, Type 1, BuildingBlock: AJUNOK_clean_sbu_0, # of connection points: 8
#     Node 12, Type 1, BuildingBlock: AJUNOK_clean_sbu_0, # of connection points: 8
#     Node 13, Type 1, BuildingBlock: AJUNOK_clean_sbu_0, # of connection points: 8
#     Edge 14, Type (0, 1), BuildingBlock: ZUJKAS_clean_linker_0, # of connection points: 2
#     Edge 15, Type (0, 1), BuildingBlock: ZUJKAS_clean_linker_0, # of connection points: 2
#     Edge 16, Type (0, 1), BuildingBlock: ZUJKAS_clean_linker_0, # of connection points: 2
#     Edge 17, Type (0, 1), BuildingBlock: ZUJKAS_clean_linker_0, # of connection points: 2
#     Edge 18, Type (0, 1), BuildingBlock: ZUJKAS_clean_linker_0, # of connection points: 2
#     Edge 19, Type (0, 1), BuildingBlock: ZUJKAS_clean_linker_0, # of connection points: 2
#     Edge 20, Type (0, 1), BuildingBlock: ZUJKAS_clean_linker_0, # of connection points: 2
#     Edge 21, Type (0, 1), BuildingBlock: ZUJKAS_clean_linker_0, # of connection points: 2
#     Edge 22, Type (0, 1), BuildingBlock: ZUJKAS_clean_linker_0, # of connection points: 2
#     Edge 23, Type (0, 1), BuildingBlock: ZUJKAS_clean_linker_0, # of connection points: 2
#     Edge 24, Type (0, 1), BuildingBlock: ZUJKAS_clean_linker_0, # of connection points: 2
#     Edge 25, Type (0, 1), BuildingBlock: ZUJKAS_clean_linker_0, # of connection points: 2
#     Edge 26, Type (0, 1), BuildingBlock: ZUJKAS_clean_linker_0, # of connection points: 2
#     Edge 27, Type (0, 1), BuildingBlock: ZUJKAS_clean_linker_0, # of connection points: 2
#     Edge 28, Type (0, 1), BuildingBlock: ZUJKAS_clean_linker_0, # of connection points: 2
#     Edge 29, Type (0, 1), BuildingBlock: ZUJKAS_clean_linker_0, # of connection points: 2
#     Edge 30, Type (0, 1), BuildingBlock: ZUJKAS_clean_linker_0, # of connection points: 2
#     Edge 31, Type (0, 1), BuildingBlock: ZUJKAS_clean_linker_0, # of connection points: 2
#     Edge 32, Type (0, 1), BuildingBlock: ZUJKAS_clean_linker_0, # of connection points: 2
#     Edge 33, Type (0, 1), BuildingBlock: ZUJKAS_clean_linker_0, # of connection points: 2
#     Edge 34, Type (0, 1), BuildingBlock: ZUJKAS_clean_linker_0, # of connection points: 2
#     Edge 35, Type (0, 1), BuildingBlock: ZUJKAS_clean_linker_0, # of connection points: 2
#     Edge 36, Type (0, 1), BuildingBlock: ZUJKAS_clean_linker_0, # of connection points: 2
#     Edge 37, Type (0, 1), BuildingBlock: ZUJKAS_clean_linker_0, # of connection points: 2
#     Edge 38, Type (0, 1), BuildingBlock: ZUJKAS_clean_linker_0, # of connection points: 2
#     Edge 39, Type (0, 1), BuildingBlock: ZUJKAS_clean_linker_0, # of connection points: 2
#     Edge 40, Type (0, 1), BuildingBlock: ZUJKAS_clean_linker_0, # of connection points: 2
#     Edge 41, Type (0, 1), BuildingBlock: ZUJKAS_clean_linker_0, # of connection points: 2
#     Edge 42, Type (0, 1), BuildingBlock: ZUJKAS_clean_linker_0, # of connection points: 2
#     Edge 43, Type (0, 1), BuildingBlock: ZUJKAS_clean_linker_0, # of connection points: 2
#     Edge 44, Type (0, 1), BuildingBlock: ZUJKAS_clean_linker_0, # of connection points: 2
#     Edge 45, Type (0, 1), BuildingBlock: ZUJKAS_clean_linker_0, # of connection points: 2
#     Edge 46, Type (0, 1), BuildingBlock: ZUJKAS_clean_linker_0, # of connection points: 2
#     Edge 47, Type (0, 1), BuildingBlock: ZUJKAS_clean_linker_0, # of connection points: 2
#     Edge 48, Type (0, 1), BuildingBlock: ZUJKAS_clean_linker_0, # of connection points: 2
#     Edge 49, Type (0, 1), BuildingBlock: ZUJKAS_clean_linker_0, # of connection points: 2
#     Edge 50, Type (0, 1), BuildingBlock: ZUJKAS_clean_linker_0, # of connection points: 2
#     Edge 51, Type (0, 1), BuildingBlock: ZUJKAS_clean_linker_0, # of connection points: 2
#     Edge 52, Type (0, 1), BuildingBlock: ZUJKAS_clean_linker_0, # of connection points: 2
#     Edge 53, Type (0, 1), BuildingBlock: ZUJKAS_clean_linker_0, # of connection points: 2
#     Edge 54, Type (0, 1), BuildingBlock: ZUJKAS_clean_linker_0, # of connection points: 2
#     Edge 55, Type (0, 1), BuildingBlock: ZUJKAS_clean_linker_0, # of connection points: 2
#     Edge 56, Type (0, 1), BuildingBlock: ZUJKAS_clean_linker_0, # of connection points: 2
#     Edge 57, Type (0, 1), BuildingBlock: ZUJKAS_clean_linker_0, # of connection points: 2
#     Edge 58, Type (0, 1), BuildingBlock: ZUJKAS_clean_linker_0, # of connection points: 2
#     Edge 59, Type (0, 1), BuildingBlock: ZUJKAS_clean_linker_0, # of connection points: 2
#     Edge 60, Type (0, 1), BuildingBlock: ZUJKAS_clean_linker_0, # of connection points: 2
#     Edge 61, Type (0, 1), BuildingBlock: ZUJKAS_clean_linker_0, # of connection points: 2
# Relax obj value: 0.279
# Max RMSD: 0.356
# Mean RMSD: 0.271
data_MOF--net-ocu--node1-VOLQOD_clean_sbu_1--node2-AJUNOK_clean_sbu_0--edge1-ZUJKAS_clean_linker_0
_symmetry_space_group_name_H-M    P1
_symmetry_Int_Tables_number       1
_symmetry_cell_setting            triclinic
loop_
_symmetry_equiv_pos_as_xyz
'x, y, z'
_cell_length_a     52.296777
_cell_length_b     52.311268
_cell_length_c     44.242514
_cell_angle_alpha  96.016728
_cell_angle_beta   95.992909
_cell_angle_gamma 100.5871
loop_
_atom_site_label
_atom_site_type_symbol
_atom_site_fract_x
_atom_site_fract_y
_atom_site_fract_z
_atom_type_partial_charge
O0 O 0.30532 0.30453 0.28584 0.0
Zn1 Zn 0.27642 0.27514 0.29381 0.0
O2 O 0.2567 0.2558 0.25505 0.0
Zn3 Zn 0.21997 0.2591 0.25235 0.0
Zn4 Zn 0.27131 0.27007 0.22011 0.0
Zn5 Zn 0.25875 0.21873 0.25319 0.0
O6 O 0.19598 0.22383 0.24797 0.0
O7 O 0.2228 0.19554 0.24923 0.0
O8 O 0.25206 0.29113 0.3196 0.0
O9 O 0.21338 0.27962 0.29076 0.0
O10 O 0.20928 0.27714 0.21635 0.0
O11 O 0.24448 0.28219 0.19203 0.0
O12 O 0.28637 0.24348 0.19487 0.0
O13 O 0.29291 0.25094 0.31921 0.0
O14 O 0.27755 0.20773 0.21796 0.0
O15 O 0.27904 0.21192 0.29166 0.0
C16 C 0.31151 0.31274 0.26093 0.0
C17 C 0.19973 0.20043 0.2473 0.0
C18 C 0.22088 0.28447 0.19391 0.0
C19 C 0.22754 0.29102 0.31537 0.0
C20 C 0.28736 0.21956 0.19684 0.0
C21 C 0.29169 0.22623 0.31556 0.0
O22 O 0.29981 0.30147 0.23494 0.0
O23 O 0.75403 0.21008 0.19997 0.0
Zn24 Zn 0.77076 0.23599 0.2378 0.0
O25 O 0.74626 0.25784 0.25176 0.0
Zn26 Zn 0.75933 0.29493 0.24963 0.0
Zn27 Zn 0.71274 0.24722 0.22604 0.0
Zn28 Zn 0.74113 0.2536 0.29392 0.0
O29 O 0.76489 0.31658 0.2911 0.0
O30 O 0.75588 0.28654 0.32226 0.0
O31 O 0.80365 0.25896 0.22759 0.0
O32 O 0.79456 0.29886 0.23505 0.0
O33 O 0.73612 0.31003 0.21961 0.0
O34 O 0.70634 0.27471 0.1996 0.0
O35 O 0.68227 0.23989 0.25057 0.0
O36 O 0.78154 0.21514 0.27142 0.0
O37 O 0.703 0.24563 0.29797 0.0
O38 O 0.75893 0.22544 0.30918 0.0
C39 C 0.73027 0.20401 0.18741 0.0
C40 C 0.76365 0.31022 0.318 0.0
C41 C 0.71653 0.29878 0.20023 0.0
C42 C 0.80994 0.2837 0.22753 0.0
C43 C 0.68194 0.24088 0.2794 0.0
C44 C 0.775 0.21257 0.2981 0.0
O45 O 0.7129 0.21589 0.19682 0.0
O46 O 0.72882 0.70465 0.27109 0.0
Zn47 Zn 0.75096 0.73988 0.28972 0.0
O48 O 0.76592 0.75893 0.25702 0.0
Zn49 Zn 0.80399 0.76204 0.26179 0.0
Zn50 Zn 0.75193 0.74138 0.21625 0.0
Zn51 Zn 0.75683 0.79317 0.25926 0.0
O52 O 0.82149 0.79976 0.27369 0.0
O53 O 0.78861 0.82117 0.27021 0.0
O54 O 0.77988 0.73101 0.31865 0.0
O55 O 0.81561 0.74286 0.29644 0.0
O56 O 0.81689 0.74674 0.2236 0.0
O57 O 0.78027 0.73391 0.19133 0.0
O58 O 0.72848 0.76097 0.19163 0.0
O59 O 0.72964 0.7613 0.31493 0.0
O60 O 0.73623 0.7993 0.22082 0.0
O61 O 0.73518 0.79793 0.29319 0.0
C62 C 0.72481 0.69414 0.24328 0.0
C63 C 0.81288 0.82105 0.27627 0.0
C64 C 0.80499 0.73633 0.19736 0.0
C65 C 0.80436 0.7324 0.31758 0.0
C66 C 0.72541 0.78461 0.19638 0.0
C67 C 0.72586 0.78457 0.31335 0.0
O68 O 0.73246 0.70642 0.2215 0.0
O69 O 0.29155 0.75165 0.29661 0.0
Zn70 Zn 0.26554 0.73628 0.25883 0.0
O71 O 0.2425 0.76037 0.24666 0.0
Zn72 Zn 0.20582 0.74487 0.24822 0.0
Zn73 Zn 0.25188 0.79266 0.27478 0.0
Zn74 Zn 0.24645 0.76816 0.20496 0.0
O75 O 0.18354 0.74381 0.20799 0.0
O76 O 0.21221 0.75829 0.17714 0.0
O77 O 0.2441 0.70204 0.2672 0.0
O78 O 0.20315 0.70742 0.25543 0.0
O79 O 0.19049 0.76381 0.2823 0.0
O80 O 0.2222 0.79858 0.29784 0.0
O81 O 0.26441 0.82399 0.25338 0.0
O82 O 0.2856 0.72696 0.2242 0.0
O83 O 0.26081 0.8065 0.20479 0.0
O84 O 0.27101 0.74732 0.18627 0.0
C85 C 0.2947 0.77368 0.31324 0.0
C86 C 0.18884 0.74904 0.18159 0.0
C87 C 0.19955 0.78533 0.29961 0.0
C88 C 0.21946 0.69324 0.26317 0.0
C89 C 0.2669 0.82627 0.2254 0.0
C90 C 0.28531 0.73215 0.19667 0.0
O91 O 0.28088 0.79047 0.30685 0.0
O92 O 0.25139 0.7126 0.72601 0.0
Zn93 Zn 0.26909 0.74185 0.75952 0.0
O94 O 0.24589 0.76568 0.7714 0.0
Zn95 Zn 0.26092 0.80168 0.76528 0.0
Zn96 Zn 0.21246 0.75458 0.74593 0.0
Zn97 Zn 0.24007 0.76415 0.81418 0.0
O98 O 0.2653 0.82613 0.80477 0.0
O99 O 0.25051 0.80001 0.83825 0.0
O100 O 0.30054 0.76135 0.74364 0.0
O101 O 0.29643 0.80303 0.75086 0.0
O102 O 0.23845 0.81499 0.73234 0.0
O103 O 0.20608 0.78065 0.71785 0.0
O104 O 0.1824 0.74815 0.7704 0.0
O105 O 0.28205 0.72588 0.79607 0.0
O106 O 0.20191 0.75073 0.81789 0.0
O107 O 0.26208 0.74093 0.83412 0.0
C108 C 0.22782 0.70704 0.71302 0.0
C109 C 0.26019 0.82265 0.83178 0.0
C110 C 0.21756 0.80371 0.71497 0.0
C111 C 0.30917 0.78554 0.74237 0.0
C112 C 0.1812 0.74628 0.79865 0.0
C113 C 0.27784 0.72717 0.82399 0.0
O114 O 0.21137 0.72125 0.71941 0.0
O115 O 0.21841 0.20713 0.77592 0.0
Zn116 Zn 0.2451 0.24058 0.7884 0.0
O117 O 0.25652 0.2549 0.75149 0.0
Zn118 Zn 0.29359 0.25484 0.75131 0.0
Zn119 Zn 0.23736 0.23482 0.71399 0.0
Zn120 Zn 0.25081 0.29042 0.75211 0.0
O121 O 0.31474 0.29106 0.76403 0.0
O122 O 0.28452 0.31573 0.76522 0.0
O123 O 0.27495 0.22995 0.81415 0.0
O124 O 0.30581 0.23334 0.78312 0.0
O125 O 0.30149 0.23932 0.71054 0.0
O126 O 0.26186 0.21903 0.68825 0.0
O127 O 0.21903 0.25712 0.68739 0.0
O128 O 0.22779 0.26591 0.81353 0.0
O129 O 0.23387 0.29733 0.71157 0.0
O130 O 0.22782 0.29786 0.78417 0.0
C131 C 0.20637 0.19641 0.74993 0.0
C132 C 0.30832 0.31326 0.7695 0.0
C133 C 0.28671 0.224 0.68876 0.0
C134 C 0.29728 0.2263 0.80753 0.0
C135 C 0.22086 0.28187 0.6887 0.0
C136 C 0.22136 0.28744 0.80773 0.0
O137 O 0.21124 0.20547 0.72508 0.0
O138 O 0.79502 0.23767 0.81807 0.0
Zn139 Zn 0.76789 0.22701 0.77995 0.0
O140 O 0.74855 0.25513 0.772 0.0
Zn141 Zn 0.71189 0.24497 0.77885 0.0
Zn142 Zn 0.7645 0.28681 0.79923 0.0
Zn143 Zn 0.74991 0.26249 0.72984 0.0
O144 O 0.68747 0.24274 0.7397 0.0
O145 O 0.71429 0.25288 0.70523 0.0
O146 O 0.74253 0.19406 0.78518 0.0
O147 O 0.70528 0.20812 0.7894 0.0
O148 O 0.70193 0.26947 0.8125 0.0
O149 O 0.73882 0.29906 0.82488 0.0
O150 O 0.77966 0.3163 0.77645 0.0
O151 O 0.78655 0.2177 0.74381 0.0
O152 O 0.76545 0.30022 0.72795 0.0
O153 O 0.77276 0.24117 0.70873 0.0
C154 C 0.8025 0.25987 0.83446 0.0
C155 C 0.69129 0.24551 0.71214 0.0
C156 C 0.71513 0.29033 0.82849 0.0
C157 C 0.71845 0.18991 0.78937 0.0
C158 C 0.77746 0.31895 0.74806 0.0
C159 C 0.78617 0.22452 0.71696 0.0
O160 O 0.79279 0.27968 0.82886 0.0
O161 O 0.80452 0.80517 0.7817 0.0
Zn162 Zn 0.77655 0.77619 0.79277 0.0
O163 O 0.75633 0.75449 0.75566 0.0
Zn164 Zn 0.7197 0.75785 0.75353 0.0
Zn165 Zn 0.77033 0.76604 0.71907 0.0
Zn166 Zn 0.7582 0.71761 0.75655 0.0
O167 O 0.69533 0.72277 0.74978 0.0
O168 O 0.72227 0.6949 0.75484 0.0
O169 O 0.75256 0.79252 0.81891 0.0
O170 O 0.7133 0.77851 0.79194 0.0
O171 O 0.70938 0.77608 0.71784 0.0
O172 O 0.7439 0.78005 0.69221 0.0
O173 O 0.7818 0.73702 0.69367 0.0
O174 O 0.79433 0.75357 0.81941 0.0
O175 O 0.77549 0.70381 0.72119 0.0
O176 O 0.77931 0.71322 0.7955 0.0
C177 C 0.81261 0.8092 0.75606 0.0
C178 C 0.69916 0.6996 0.75151 0.0
C179 C 0.72068 0.78323 0.69512 0.0
C180 C 0.72781 0.79116 0.8157 0.0
C181 C 0.78326 0.71359 0.69776 0.0
C182 C 0.7928 0.72884 0.81793 0.0
O183 O 0.8017 0.79515 0.73118 0.0
Cd184 Cd 0.98734 0.00718 0.55796 0.0
Cd185 Cd 0.01727 0.02452 0.46598 0.0
C186 C 0.04043 0.98659 0.57637 0.0
N187 N 0.01631 0.97811 0.56004 0.0
C188 C 0.02619 0.9358 0.54672 0.0
C189 C 0.05144 0.94426 0.5629 0.0
C190 C 0.05843 0.97004 0.57788 0.0
C191 C 0.00879 0.95311 0.54576 0.0
H192 H 0.0457 0.00613 0.58865 0.0
H193 H 0.98919 0.9465 0.53394 0.0
C194 C 0.98034 0.9776 0.48211 0.0
C195 C 0.95462 0.02829 0.46044 0.0
C196 C 0.93322 0.04066 0.45696 0.0
C197 C 0.93734 0.06813 0.45967 0.0
C198 C 0.96306 0.08253 0.46781 0.0
C199 C 0.98389 0.06934 0.47158 0.0
N200 N 0.97943 0.04271 0.4674 0.0
H201 H 0.95121 0.00724 0.45598 0.0
H202 H 0.00381 0.08034 0.4765 0.0
C203 C 0.04804 0.98437 0.43619 0.0
N204 N 0.04272 0.99267 0.46453 0.0
C205 C 0.06588 0.96243 0.48676 0.0
C206 C 0.07155 0.95347 0.45765 0.0
C207 C 0.06251 0.96476 0.43222 0.0
C208 C 0.0514 0.98237 0.48974 0.0
H209 H 0.04071 0.9928 0.41657 0.0
H210 H 0.04692 0.9895 0.51197 0.0
C211 C 0.03984 0.04831 0.54871 0.0
C212 C 0.95999 0.98647 0.60476 0.0
N213 N 0.96131 0.03712 0.54518 0.0
C214 C 0.97269 0.06232 0.54314 0.0
C215 C 0.95757 0.08164 0.54231 0.0
C216 C 0.93051 0.07497 0.54375 0.0
C217 C 0.91903 0.04847 0.54359 0.0
C218 C 0.93492 0.02978 0.54453 0.0
C219 C 0.03843 0.05186 0.41907 0.0
O220 O 0.9886 -0.00502 0.50479 0.0
O221 O 0.9884 0.98186 0.45675 0.0
O222 O 0.03209 0.04017 0.52057 0.0
O223 O 0.02548 0.0418 0.56928 0.0
O224 O 0.95276 0.97739 0.57667 0.0
O225 O 0.97967 0.00533 0.61073 0.0
O226 O 0.04935 0.05678 0.44665 0.0
O227 O 0.01767 0.03437 0.41352 0.0
H228 H 0.99365 0.0678 0.54369 0.0
H229 H 0.92639 0.00974 0.54678 0.0
H230 H 0.01994 0.91603 0.53501 0.0
H231 H 0.07738 0.97716 0.59143 0.0
H232 H 0.91373 0.02876 0.45085 0.0
H233 H 0.96724 0.10373 0.46969 0.0
H234 H 0.07273 0.95425 0.50683 0.0
H235 H 0.06611 0.95808 0.40931 0.0
H236 H 0.96714 0.1018 0.542 0.0
H237 H 0.89831 0.04249 0.54518 0.0
Cd238 Cd 0.49371 0.9934 0.04473 0.0
Cd239 Cd 0.52037 0.00163 0.95153 0.0
C240 C 0.55081 0.97522 0.05603 0.0
N241 N 0.52464 0.96578 0.04819 0.0
C242 C 0.53178 0.92166 0.04531 0.0
C243 C 0.55885 0.93093 0.05371 0.0
C244 C 0.56827 0.95815 0.05846 0.0
C245 C 0.51499 0.93952 0.04253 0.0
H246 H 0.55842 -0.00405 0.06101 0.0
H247 H 0.49413 0.93243 0.03636 0.0
C248 C 0.47096 0.96831 0.96711 0.0
C249 C 0.46899 0.02413 0.92888 0.0
C250 C 0.45172 0.04136 0.92588 0.0
C251 C 0.45845 0.06683 0.94176 0.0
C252 C 0.48274 0.0743 0.96037 0.0
C253 C 0.49934 0.05624 0.96304 0.0
N254 N 0.49211 0.03161 0.94759 0.0
H255 H 0.46396 0.00484 0.91591 0.0
H256 H 0.51801 0.0619 0.97741 0.0
C257 C 0.53124 0.94456 0.96834 0.0
N258 N 0.54286 0.97015 0.96899 0.0
C259 C 0.58531 0.95992 0.97972 0.0
C260 C 0.57407 0.93312 0.97711 0.0
C261 C 0.54657 0.92565 0.97255 0.0
C262 C 0.56928 0.97812 0.9754 0.0
H263 H 0.51025 0.93849 0.96288 0.0
H264 H 0.57808 -0.0016 0.97505 0.0
C265 C 0.54273 0.03356 0.03122 0.0
C266 C 0.45881 0.97052 0.0838 0.0
N267 N 0.47499 0.03032 0.04334 0.0
C268 C 0.47617 0.04464 0.07102 0.0
C269 C 0.46259 0.06509 0.07415 0.0
C270 C 0.44765 0.07109 0.04847 0.0
C271 C 0.44747 0.05641 0.01989 0.0
C272 C 0.46132 0.03594 0.01784 0.0
C273 C 0.55253 0.01626 0.90582 0.0
O274 O 0.48609 0.98123 0.99004 0.0
O275 O 0.47927 0.96883 0.94121 0.0
O276 O 0.53175 0.02076 0.00569 0.0
O277 O 0.53163 0.0293 0.05498 0.0
O278 O 0.45469 0.96461 0.0549 0.0
O279 O 0.48002 0.98634 0.09479 0.0
O280 O 0.55484 0.02965 0.93191 0.0
O281 O 0.5344 -0.00404 0.9003 0.0
H282 H 0.48689 0.03946 0.09097 0.0
H283 H 0.46044 0.02402 0.99616 0.0
H284 H 0.52351 0.90087 0.04168 0.0
H285 H 0.58899 0.96631 0.06438 0.0
H286 H 0.43353 0.03498 0.91065 0.0
H287 H 0.48869 0.09375 0.97301 0.0
H288 H 0.60637 0.96666 0.98265 0.0
H289 H 0.53703 0.90525 0.9708 0.0
H290 H 0.46287 0.07521 0.09685 0.0
H291 H 0.43632 0.06029 -0.00054 0.0
Cd292 Cd -0.00321 0.48384 0.04379 0.0
Cd293 Cd 0.00903 0.51707 0.95513 0.0
C294 C 0.05775 0.47852 0.0457 0.0
N295 N 0.03315 0.46625 0.0332 0.0
C296 C 0.04817 0.42664 0.01946 0.0
C297 C 0.07339 0.43824 0.03426 0.0
C298 C 0.07831 0.46494 0.04604 0.0
C299 C 0.02821 0.44112 0.01924 0.0
H300 H 0.06129 0.49832 0.05712 0.0
H301 H 0.00834 0.43172 0.00996 0.0
C302 C 0.97203 0.46695 0.9642 0.0
C303 C 0.95234 0.53307 0.94773 0.0
C304 C 0.9348 0.55022 0.94886 0.0
C305 C 0.94148 0.57384 0.96889 0.0
C306 C 0.96505 0.57863 0.98883 0.0
C307 C 0.98209 0.56112 0.98666 0.0
N308 N 0.9757 0.53912 0.96601 0.0
H309 H 0.94811 0.5159 0.9308 0.0
H310 H 0.00112 0.566 9e-05 0.0
C311 C 0.02912 0.46599 0.92817 0.0
N312 N 0.03648 0.48664 0.95066 0.0
C313 C 0.07471 0.47056 0.96801 0.0
C314 C 0.06698 0.44849 0.94573 0.0
C315 C 0.04395 0.44649 0.92552 0.0
C316 C 0.05894 0.48943 0.97025 0.0
H317 H 0.01168 0.46459 0.9122 0.0
H318 H 0.06452 0.50622 0.98772 0.0
C319 C 0.03132 0.53629 0.03647 0.0
C320 C 0.97775 0.44494 0.08027 0.0
N321 N 0.96926 0.51357 0.05266 0.0
C322 C 0.97345 0.5283 0.08053 0.0
C323 C 0.95844 0.54715 0.08703 0.0
C324 C 0.93863 0.55074 0.06476 0.0
C325 C 0.93455 0.53503 0.03621 0.0
C326 C 0.95018 0.51643 0.03063 0.0
C327 C 0.02918 0.55387 0.91686 0.0
O328 O 0.98421 0.47994 0.98892 0.0
O329 O 0.97512 0.47707 0.93965 0.0
O330 O 0.02097 0.52323 0.01091 0.0
O331 O 0.02718 0.52567 0.06049 0.0
O332 O 0.9664 0.4457 0.05366 0.0
O333 O -0.00251 0.46298 0.09041 0.0
O334 O 0.03944 0.55438 0.94427 0.0
O335 O 0.01033 0.53495 0.90641 0.0
H336 H 0.98873 0.52557 0.09765 0.0
H337 H 0.94711 0.50437 0.00869 0.0
H338 H 0.04335 0.4061 0.01024 0.0
H339 H 0.09756 0.47489 0.05699 0.0
H340 H 0.9171 0.54583 0.93266 0.0
H341 H 0.97088 0.59631 0.00499 0.0
H342 H 0.09248 0.47297 0.98383 0.0
H343 H 0.03767 0.43023 0.9074 0.0
H344 H 0.96259 0.55905 0.10917 0.0
H345 H 0.91934 0.5369 0.01848 0.0
Cd346 Cd 0.48521 0.49829 0.06339 0.0
Cd347 Cd 0.51403 0.52514 0.97153 0.0
C348 C 0.54121 0.48177 0.06495 0.0
N349 N 0.51548 0.47171 0.05509 0.0
C350 C 0.52494 0.42926 0.04192 0.0
C351 C 0.55156 0.43898 0.05267 0.0
C352 C 0.55969 0.46568 0.06387 0.0
C353 C 0.5071 0.44607 0.04347 0.0
H354 H 0.54729 0.50209 0.07464 0.0
H355 H 0.48643 0.43849 0.03644 0.0
C356 C 0.47508 0.47769 0.98447 0.0
C357 C 0.45425 0.53613 0.96828 0.0
C358 C 0.43491 0.55126 0.96644 0.0
C359 C 0.44214 0.57877 0.97049 0.0
C360 C 0.46882 0.59031 0.97816 0.0
C361 C 0.48748 0.57443 0.98012 0.0
N362 N 0.47998 0.54793 0.9746 0.0
H363 H 0.44862 0.51507 0.9637 0.0
H364 H 0.50811 0.58323 0.98477 0.0
C365 C 0.536 0.47395 0.95229 0.0
N366 N 0.54082 0.49445 0.97502 0.0
C367 C 0.57853 0.48008 0.9971 0.0
C368 C 0.57362 0.45838 0.97427 0.0
C369 C 0.55196 0.45541 0.95174 0.0
C370 C 0.56151 0.49777 0.99731 0.0
H371 H 0.52002 0.47226 0.93415 0.0
H372 H 0.56504 0.51429 0.01498 0.0
C373 C 0.52913 0.54868 0.05481 0.0
C374 C 0.46881 0.4735 0.11379 0.0
N375 N 0.44965 0.5181 0.05269 0.0
C376 C 0.45496 0.54308 0.04586 0.0
C377 C 0.43549 0.55802 0.04501 0.0
C378 C 0.41029 0.54716 0.05135 0.0
C379 C 0.40499 0.52078 0.05668 0.0
C380 C 0.42515 0.50654 0.05738 0.0
C381 C 0.53717 0.55131 0.92513 0.0
O382 O 0.48426 0.49274 0.00892 0.0
O383 O 0.4819 0.48478 0.95951 0.0
O384 O 0.52205 0.5389 0.02702 0.0
O385 O 0.51751 0.53844 0.07581 0.0
O386 O 0.46025 0.46322 0.08635 0.0
O387 O 0.4846 0.49553 0.1175 0.0
O388 O 0.54718 0.55686 0.95306 0.0
O389 O 0.51652 0.53367 0.91909 0.0
H390 H 0.47467 0.55188 0.04262 0.0
H391 H 0.42153 0.48669 0.06304 0.0
H392 H 0.51793 0.40876 0.03318 0.0
H393 H 0.57994 0.47385 0.07286 0.0
H394 H 0.41456 0.54147 0.96114 0.0
H395 H 0.47541 0.61139 0.9811 0.0
H396 H 0.59526 0.48339 0.01461 0.0
H397 H 0.54793 0.43944 0.93316 0.0
H398 H 0.44064 0.57836 0.04129 0.0
H399 H 0.38578 0.5116 0.06147 0.0
Cd400 Cd 0.99275 0.48931 0.55015 0.0
Cd401 Cd 0.02596 0.51524 0.46482 0.0
C402 C 0.0447 0.46663 0.56735 0.0
N403 N 0.02319 0.46191 0.546 0.0
C404 C 0.03623 0.42385 0.52242 0.0
C405 C 0.05869 0.42828 0.54419 0.0
C406 C 0.06279 0.45013 0.56679 0.0
C407 C 0.01866 0.44102 0.52375 0.0
H408 H 0.04753 0.48288 0.58537 0.0
H409 H 0.00121 0.43745 0.50727 0.0
C410 C 0.97678 0.47406 0.46854 0.0
C411 C 0.97572 0.53918 0.44535 0.0
C412 C 0.9578 0.55584 0.44416 0.0
C413 C 0.96207 0.57884 0.46498 0.0
C414 C 0.98453 0.58434 0.48686 0.0
C415 C 0.00188 0.56683 0.48748 0.0
N416 N -0.00284 0.54476 0.46685 0.0
H417 H 0.97269 0.52192 0.4287 0.0
H418 H 0.01921 0.57097 0.50421 0.0
C419 C 0.04207 0.45893 0.45525 0.0
N420 N 0.04889 0.48203 0.47401 0.0
C421 C 0.0876 0.46945 0.49637 0.0
C422 C 0.08158 0.44584 0.47646 0.0
C423 C 0.05814 0.44043 0.45618 0.0
C424 C 0.07096 0.48742 0.49461 0.0
H425 H 0.02489 0.45542 0.43841 0.0
H426 H 0.07639 0.50618 0.50861 0.0
C427 C 0.04256 0.53111 0.54795 0.0
C428 C 0.96061 0.46207 0.58896 0.0
N429 N 0.9709 0.52406 0.54739 0.0
C430 C 0.97262 0.53974 0.57426 0.0
C431 C 0.95779 0.55925 0.5767 0.0
C432 C 0.94091 0.56273 0.5512 0.0
C433 C 0.93995 0.5465 0.52352 0.0
C434 C 0.95522 0.52721 0.52208 0.0
C435 C 0.05887 0.5362 0.42283 0.0
O436 O 0.98868 0.48424 0.49465 0.0
O437 O 0.98723 0.48103 0.44534 0.0
O438 O 0.03132 0.52247 0.52101 0.0
O439 O 0.03105 0.52325 0.57015 0.0
O440 O 0.9559 0.45676 0.56001 0.0
O441 O 0.98076 0.47942 0.59968 0.0
O442 O 0.06378 0.54441 0.4513 0.0
O443 O 0.03817 0.51903 0.41405 0.0
H444 H 0.98485 0.53641 0.59415 0.0
H445 H 0.95396 0.51441 0.50098 0.0
H446 H 0.03228 0.40738 0.50448 0.0
H447 H 0.07933 0.45399 0.58463 0.0
H448 H 0.94111 0.55112 0.42647 0.0
H449 H 0.98852 0.60186 0.50333 0.0
H450 H 0.10541 0.47435 0.51241 0.0
H451 H 0.05299 0.42276 0.43994 0.0
H452 H 0.95874 0.57065 0.59881 0.0
H453 H 0.92731 0.5484 0.50326 0.0
Cd454 Cd 0.48573 0.97877 0.53783 0.0
Cd455 Cd 0.51758 0.01921 0.45879 0.0
C456 C 0.53431 0.95921 0.56909 0.0
N457 N 0.5229 0.96065 0.54051 0.0
C458 C 0.55187 0.93604 0.51807 0.0
C459 C 0.56399 0.93402 0.54737 0.0
C460 C 0.555 0.94601 0.57308 0.0
C461 C 0.53136 0.94969 0.51514 0.0
H462 H 0.52679 0.96771 0.58884 0.0
H463 H 0.52182 0.95096 0.49264 0.0
C464 C 0.47662 0.96857 0.45584 0.0
C465 C 0.4641 0.03639 0.43607 0.0
C466 C 0.44482 0.05159 0.43464 0.0
C467 C 0.44345 0.06971 0.45994 0.0
C468 C 0.46095 0.07116 0.48666 0.0
C469 C 0.47972 0.05535 0.4872 0.0
N470 N 0.48125 0.03877 0.46193 0.0
H471 H 0.46624 0.02363 0.41601 0.0
H472 H 0.49356 0.057 0.50749 0.0
C473 C 0.53897 0.97008 0.42794 0.0
N474 N 0.54515 0.9887 0.45278 0.0
C475 C 0.58311 0.9716 0.46906 0.0
C476 C 0.57674 0.95169 0.44395 0.0
C477 C 0.55419 0.95113 0.42339 0.0
C478 C 0.56687 0.98993 0.47314 0.0
H479 H 0.52217 0.96985 0.41144 0.0
H480 H 0.57156 0.00513 0.49255 0.0
C481 C 0.5295 0.02899 0.54276 0.0
C482 C 0.45591 0.93884 0.56543 0.0
N483 N 0.45961 0.01026 0.54336 0.0
C484 C 0.46318 0.02523 0.57102 0.0
C485 C 0.44762 0.04369 0.57681 0.0
C486 C 0.42795 0.04665 0.55403 0.0
C487 C 0.42473 0.03101 0.52554 0.0
C488 C 0.44084 0.0127 0.5207 0.0
C489 C 0.54411 0.06017 0.43003 0.0
O490 O 0.48419 0.97966 0.48298 0.0
O491 O 0.48413 0.98112 0.43429 0.0
O492 O 0.52166 0.02029 0.51477 0.0
O493 O 0.51988 0.01573 0.56279 0.0
O494 O 0.4544 0.93775 0.53649 0.0
O495 O 0.47035 0.95899 0.58122 0.0
O496 O 0.54957 0.05887 0.45838 0.0
O497 O 0.52742 0.04137 0.41461 0.0
H498 H 0.47795 0.0226 0.58879 0.0
H499 H 0.43827 0.00034 0.49898 0.0
H500 H 0.55792 0.92698 0.49762 0.0
H501 H 0.56312 0.94439 0.59617 0.0
H502 H 0.4321 0.0502 0.41334 0.0
H503 H 0.46044 0.08469 0.50677 0.0
H504 H 0.60043 0.97308 0.48534 0.0
H505 H 0.54812 0.93606 0.40394 0.0
H506 H 0.45095 0.05554 0.59897 0.0
H507 H 0.40971 0.03263 0.50744 0.0
H508 H 0.14758 0.20015 0.23178 0.0
H509 H 0.11066 0.16996 0.24637 0.0
H510 H 0.16388 0.12322 0.28196 0.0
H511 H 0.20064 0.15262 0.26645 0.0
H512 H 0.11489 0.09329 0.25972 0.0
H513 H 0.10753 0.18168 0.33788 0.0
H514 H 0.10205 0.18401 0.29763 0.0
H515 H 0.13399 0.1814 0.31494 0.0
C516 C 0.15131 0.18303 0.24195 0.0
C517 C 0.1771 0.17915 0.24875 0.0
C518 C 0.13019 0.16583 0.25032 0.0
C519 C 0.13467 0.14489 0.2662 0.0
C520 C 0.16001 0.13942 0.26999 0.0
H521 H 0.08467 0.08676 0.42335 0.0
H522 H 0.10376 0.10833 0.38231 0.0
C523 C 0.18106 0.15633 0.26118 0.0
C524 C 0.1144 0.13133 0.28323 0.0
H525 H 0.08288 0.14169 0.34588 0.0
C526 C 0.10746 0.10384 0.27822 0.0
C527 C 0.10498 0.1452 0.30759 0.0
C528 C 0.11259 0.17466 0.31511 0.0
C529 C 0.09241 0.08979 0.29785 0.0
C530 C 0.08384 0.10371 0.32277 0.0
C531 C 0.08954 0.13117 0.32672 0.0
C532 C 0.07169 0.09036 0.34713 0.0
C533 C 0.08719 0.06022 0.29296 0.0
C534 C 0.04722 0.07329 0.34097 0.0
C535 C 0.0363 0.06082 0.36442 0.0
C536 C 0.04962 0.06542 0.3944 0.0
C537 C 0.07393 0.08283 0.40052 0.0
C538 C 0.08485 0.09516 0.3771 0.0
H539 H 0.09877 0.05254 0.27568 0.0
H540 H 0.09189 0.05239 0.31481 0.0
H541 H 0.06608 0.05267 0.28483 0.0
H542 H 0.03653 0.0697 0.31813 0.0
H543 H 0.01745 0.0476 0.35906 0.0
H544 H 0.81177 0.18382 0.28344 0.0
H545 H 0.83505 0.15877 0.31658 0.0
H546 H 0.79078 0.17813 0.38968 0.0
H547 H 0.76715 0.20311 0.35665 0.0
H548 H 0.86586 0.1799 0.37308 0.0
H549 H 0.78525 0.09793 0.38667 0.0
H550 H 0.78296 0.11833 0.35638 0.0
H551 H 0.77897 0.13046 0.39474 0.0
C552 C 0.8067 0.18253 0.30643 0.0
C553 C 0.78757 0.19555 0.31734 0.0
C554 C 0.82008 0.16823 0.32536 0.0
C555 C 0.81452 0.16647 0.35551 0.0
C556 C 0.7951 0.17893 0.36635 0.0
H557 H 0.92677 0.11428 0.48656 0.0
H558 H 0.89475 0.139 0.46606 0.0
C559 C 0.78169 0.1933 0.34743 0.0
C560 C 0.83017 0.15274 0.37591 0.0
H561 H 0.82668 0.09907 0.41426 0.0
C562 C 0.85729 0.16233 0.3823 0.0
C563 C 0.81889 0.12982 0.38782 0.0
C564 C 0.78995 0.11831 0.38096 0.0
C565 C 0.87359 0.14931 0.39969 0.0
C566 C 0.86236 0.12625 0.41141 0.0
C567 C 0.83515 0.11692 0.40554 0.0
C568 C 0.87897 0.11008 0.42673 0.0
C569 C 0.90282 0.15968 0.40419 0.0
C570 C 0.87981 0.08516 0.41224 0.0
C571 C 0.89793 0.07104 0.42387 0.0
C572 C 0.9156 0.08152 0.45035 0.0
C573 C 0.91371 0.10588 0.46586 0.0
C574 C 0.89545 0.12 0.4542 0.0
H575 H 0.90865 0.17481 0.38903 0.0
H576 H 0.90904 0.16871 0.42829 0.0
H577 H 0.91357 0.14353 0.39964 0.0
H578 H 0.86728 0.07717 0.39101 0.0
H579 H 0.89901 0.05252 0.4111 0.0
H580 H 0.86488 0.82792 0.29831 0.0
H581 H 0.88544 0.85638 0.34502 0.0
H582 H 0.81922 0.8948 0.34413 0.0
H583 H 0.79863 0.86689 0.29707 0.0
H584 H 0.86792 0.92759 0.36772 0.0
H585 H 0.8506 0.83654 0.42206 0.0
H586 H 0.86886 0.83356 0.39012 0.0
H587 H 0.83575 0.83882 0.38393 0.0
C588 C 0.85508 0.84305 0.30733 0.0
C589 C 0.82963 0.84439 0.29475 0.0
C590 C 0.86671 0.85906 0.33422 0.0
C591 C 0.85305 0.87654 0.34864 0.0
C592 C 0.82958 0.88078 0.33367 0.0
H593 H 0.9357 0.97792 0.50799 0.0
H594 H 0.8942 0.94785 0.48848 0.0
C595 C 0.81799 0.8649 0.30663 0.0
C596 C 0.86239 0.8886 0.38035 0.0
H597 H 0.88315 0.87262 0.45025 0.0
C598 C 0.87061 0.9158 0.38613 0.0
C599 C 0.86497 0.87304 0.40437 0.0
C600 C 0.85428 0.84389 0.39993 0.0
C601 C 0.88436 0.92763 0.41447 0.0
C602 C 0.88974 0.91163 0.43741 0.0
C603 C 0.87896 0.88476 0.43264 0.0
C604 C 0.91229 0.92111 0.46119 0.0
C605 C 0.89546 0.95675 0.41842 0.0
C606 C 0.93608 0.91421 0.45502 0.0
C607 C 0.95956 0.93149 0.46568 0.0
C608 C 0.95929 0.95529 0.48318 0.0
C609 C 0.93611 0.95963 0.49435 0.0
C610 C 0.91244 0.94248 0.48324 0.0
H611 H 0.88985 0.96608 0.39795 0.0
H612 H 0.88824 0.96652 0.4384 0.0
H613 H 0.9172 0.96037 0.42282 0.0
H614 H 0.9363 0.89757 0.43831 0.0
H615 H 0.97744 0.92771 0.45731 0.0
H616 H 0.2151 0.82794 0.34292 0.0
H617 H 0.18967 0.84567 0.37983 0.0
H618 H 0.1236 0.78294 0.34702 0.0
H619 H 0.14901 0.76502 0.30928 0.0
H620 H 0.1104 0.83021 0.34858 0.0
H621 H 0.1666 0.8261 0.45982 0.0
H622 H 0.18813 0.84056 0.4346 0.0
H623 H 0.17101 0.80699 0.42496 0.0
C624 C 0.19525 0.81765 0.34361 0.0
C625 C 0.18405 0.79513 0.3229 0.0
C626 C 0.18084 0.82765 0.36514 0.0
C627 C 0.15494 0.81531 0.36674 0.0
C628 C 0.14371 0.79256 0.34647 0.0
H629 H 0.06318 0.90595 0.47968 0.0
H630 H 0.08162 0.86753 0.46295 0.0
C631 C 0.1582 0.78244 0.32482 0.0
C632 C 0.13894 0.82846 0.38676 0.0
H633 H 0.14275 0.86245 0.45794 0.0
C634 C 0.11697 0.83652 0.37273 0.0
C635 C 0.14728 0.83653 0.41839 0.0
C636 C 0.16939 0.8268 0.43534 0.0
C637 C 0.10475 0.85443 0.38872 0.0
C638 C 0.11492 0.86462 0.41933 0.0
C639 C 0.1353 0.85482 0.43428 0.0
C640 C 0.10704 0.88808 0.43404 0.0
C641 C 0.08217 0.86377 0.37216 0.0
C642 C 0.11616 0.91234 0.42425 0.0
C643 C 0.10576 0.93407 0.43362 0.0
C644 C 0.08605 0.93192 0.45299 0.0
C645 C 0.07835 0.90808 0.46471 0.0
C646 C 0.08877 0.88617 0.45516 0.0
H647 H 0.07294 0.85003 0.3514 0.0
H648 H 0.06701 0.86608 0.3875 0.0
H649 H 0.08947 0.8832 0.36492 0.0
H650 H 0.13043 0.91412 0.40812 0.0
H651 H 0.11232 0.95233 0.42466 0.0
H652 H 0.22678 0.8565 0.71039 0.0
H653 H 0.20228 0.87911 0.67491 0.0
H654 H 0.15716 0.80476 0.63087 0.0
H655 H 0.18122 0.78202 0.6661 0.0
H656 H 0.17836 0.85326 0.59194 0.0
H657 H 0.11708 0.86732 0.686 0.0
H658 H 0.15225 0.87332 0.6952 0.0
H659 H 0.13448 0.84057 0.68283 0.0
C660 C 0.212 0.84496 0.69278 0.0
C661 C 0.20563 0.81752 0.69138 0.0
C662 C 0.19814 0.85788 0.67249 0.0
C663 C 0.17803 0.8435 0.65038 0.0
C664 C 0.17274 0.8161 0.64771 0.0
H665 H 0.04022 0.89298 0.57298 0.0
H666 H 0.07146 0.86568 0.58767 0.0
C667 C 0.18637 0.80321 0.66807 0.0
C668 C 0.15998 0.8569 0.63309 0.0
H669 H 0.10606 0.88387 0.64029 0.0
C670 C 0.16258 0.86009 0.60239 0.0
C671 C 0.13922 0.86521 0.64679 0.0
C672 C 0.13532 0.86144 0.67948 0.0
C673 C 0.14491 0.87185 0.58506 0.0
C674 C 0.1244 0.8806 0.59903 0.0
C675 C 0.12176 0.87705 0.62962 0.0
C676 C 0.10582 0.89447 0.58317 0.0
C677 C 0.14804 0.87452 0.55197 0.0
C678 C 0.1148 0.91933 0.57472 0.0
C679 C 0.09698 0.93495 0.56616 0.0
C680 C 0.0699 0.92603 0.56618 0.0
C681 C 0.06091 0.90039 0.57257 0.0
C682 C 0.07874 0.88479 0.58107 0.0
H683 H 0.16004 0.86086 0.54254 0.0
H684 H 0.12866 0.87073 0.53765 0.0
H685 H 0.15809 0.89482 0.5502 0.0
H686 H 0.13561 0.92732 0.57658 0.0
H687 H 0.10446 0.95446 0.56084 0.0
H688 H 0.15413 0.18539 0.73279 0.0
H689 H 0.12993 0.14301 0.70727 0.0
H690 H 0.19646 0.10793 0.7317 0.0
H691 H 0.22041 0.15039 0.75829 0.0
H692 H 0.18583 0.11452 0.66873 0.0
H693 H 0.09607 0.0655 0.71078 0.0
H694 H 0.09972 0.10051 0.71673 0.0
H695 H 0.12366 0.08515 0.73624 0.0
C696 C 0.16286 0.16825 0.73443 0.0
C697 C 0.18895 0.17087 0.74726 0.0
C698 C 0.14905 0.14399 0.71995 0.0
C699 C 0.16151 0.12238 0.71753 0.0
C700 C 0.18649 0.12433 0.73362 0.0
H701 H 0.08192 0.02562 0.54884 0.0
H702 H 0.12038 0.03894 0.58778 0.0
C703 C 0.2001 0.14854 0.74876 0.0
C704 C 0.15188 0.10193 0.69128 0.0
H705 H 0.09364 0.06655 0.65517 0.0
C706 C 0.16605 0.10301 0.66595 0.0
C707 C 0.1262 0.08697 0.6878 0.0
C708 C 0.11064 0.08424 0.71449 0.0
C709 C 0.15382 0.09256 0.6364 0.0
C710 C 0.12716 0.0805 0.6326 0.0
C711 C 0.1141 0.07631 0.65835 0.0
C712 C 0.11091 0.07638 0.60273 0.0
C713 C 0.16848 0.09681 0.60922 0.0
C714 C 0.09408 0.09387 0.59717 0.0
C715 C 0.07195 0.08612 0.5755 0.0
C716 C 0.06695 0.06111 0.55887 0.0
C717 C 0.08579 0.0452 0.56128 0.0
C718 C 0.10763 0.05267 0.58356 0.0
H719 H 0.18989 0.10378 0.61618 0.0
H720 H 0.16524 0.07833 0.59328 0.0
H721 H 0.16084 0.11165 0.59658 0.0
H722 H 0.09645 0.11226 0.61193 0.0
H723 H 0.05741 0.09842 0.57415 0.0
H724 H 0.78804 0.2323 0.65684 0.0
H725 H 0.80983 0.20967 0.61899 0.0
H726 H 0.83917 0.16628 0.68801 0.0
H727 H 0.81723 0.18846 0.72594 0.0
H728 H 0.86238 0.20705 0.6177 0.0
H729 H 0.80192 0.10865 0.61958 0.0
H730 H 0.79301 0.13835 0.63602 0.0
H731 H 0.81688 0.12396 0.65704 0.0
C732 C 0.79915 0.21797 0.66404 0.0
C733 C 0.80067 0.21203 0.69442 0.0
C734 C 0.81159 0.20507 0.64234 0.0
C735 C 0.82564 0.18594 0.65056 0.0
C736 C 0.82788 0.18054 0.68103 0.0
H737 H 0.94607 0.11972 0.58361 0.0
H738 H 0.91891 0.14926 0.60255 0.0
C739 C 0.81545 0.19338 0.70273 0.0
C740 C 0.83816 0.17164 0.62745 0.0
H741 H 0.84186 0.10994 0.59723 0.0
C742 C 0.85767 0.18584 0.61286 0.0
C743 C 0.83153 0.14404 0.62057 0.0
C744 C 0.80949 0.12786 0.63387 0.0
C745 C 0.87185 0.17299 0.59295 0.0
C746 C 0.8666 0.14526 0.58799 0.0
C747 C 0.84602 0.1312 0.60117 0.0
C748 C 0.88388 0.13028 0.57218 0.0
C749 C 0.89255 0.18925 0.57782 0.0
C750 C 0.87333 0.10979 0.54853 0.0
C751 C 0.88889 0.09263 0.53769 0.0
C752 C 0.91522 0.09567 0.55042 0.0
C753 C 0.92603 0.11709 0.57286 0.0
C754 C 0.91049 0.1341 0.58373 0.0
H755 H 0.88767 0.20866 0.57458 0.0
H756 H 0.91159 0.1928 0.59276 0.0
H757 H 0.89492 0.17917 0.55521 0.0
H758 H 0.85279 0.10644 0.53937 0.0
H759 H 0.8801 0.07644 0.5202 0.0
H760 H 0.84738 0.81165 0.71465 0.0
H761 H 0.87905 0.84972 0.70602 0.0
H762 H 0.8585 0.89509 0.7837 0.0
H763 H 0.82675 0.85655 0.79284 0.0
H764 H 0.85306 0.91637 0.72677 0.0
H765 H 0.95082 0.89144 0.74939 0.0
H766 H 0.92751 0.86454 0.72783 0.0
H767 H 0.92272 0.87616 0.7662 0.0
C768 C 0.84998 0.82954 0.73035 0.0
C769 C 0.83446 0.83119 0.75428 0.0
C770 C 0.86828 0.85124 0.72555 0.0
C771 C 0.87133 0.87517 0.74438 0.0
C772 C 0.85662 0.8767 0.76911 0.0
H773 H 0.97593 -0.00362 0.66642 0.0
H774 H 0.95536 0.9752 0.70713 0.0
C775 C 0.83854 0.85472 0.77429 0.0
C776 C 0.887 0.89893 0.73494 0.0
H777 H 0.94586 0.91988 0.70982 0.0
C778 C 0.87358 0.91763 0.72387 0.0
C779 C 0.91384 0.90084 0.73155 0.0
C780 C 0.92964 0.88231 0.74468 0.0
C781 C 0.88558 0.9365 0.70674 0.0
C782 C 0.91151 0.93646 0.70043 0.0
C783 C 0.92579 0.91957 0.71421 0.0
C784 C 0.92288 0.95115 0.67655 0.0
C785 C 0.86998 0.95543 0.69419 0.0
C786 C 0.91146 0.94454 0.6459 0.0
C787 C 0.92326 0.95635 0.62261 0.0
C788 C 0.94669 0.97507 0.62955 0.0
C789 C 0.95782 0.98207 0.66036 0.0
C790 C 0.94612 0.97003 0.68365 0.0
H791 H 0.85432 0.95864 0.70848 0.0
H792 H 0.88281 0.97463 0.69292 0.0
H793 H 0.86045 0.9472 0.67072 0.0
H794 H 0.89379 0.92964 0.63989 0.0
H795 H 0.91423 0.95052 0.59913 0.0
H796 H 0.30899 0.1768 0.20463 0.0
H797 H 0.33333 0.15474 0.1695 0.0
H798 H 0.31963 0.20735 0.10336 0.0
H799 H 0.2963 0.23041 0.13919 0.0
H800 H 0.31985 0.12849 0.11496 0.0
H801 H 0.39708 0.21502 0.10677 0.0
H802 H 0.37377 0.21566 0.13396 0.0
H803 H 0.36438 0.21885 0.09443 0.0
C804 C 0.31117 0.18371 0.18262 0.0
C805 C 0.30093 0.20547 0.17477 0.0
C806 C 0.32508 0.17106 0.16251 0.0
C807 C 0.32876 0.17964 0.13395 0.0
C808 C 0.31777 0.20084 0.1256 0.0
H809 H 0.39877 0.07075 0.018 0.0
H810 H 0.36871 0.09959 0.03092 0.0
C811 C 0.30427 0.21388 0.14601 0.0
C812 C 0.34416 0.16614 0.11331 0.0
H813 H 0.39966 0.17531 0.07812 0.0
C814 C 0.33723 0.13874 0.10674 0.0
C815 C 0.36684 0.17956 0.10258 0.0
C816 C 0.37615 0.20885 0.10998 0.0
C817 C 0.35304 0.12421 0.09129 0.0
C818 C 0.3759 0.13759 0.08083 0.0
C819 C 0.38207 0.16511 0.08597 0.0
C820 C 0.39539 0.12337 0.06837 0.0
C821 C 0.3459 0.09465 0.08821 0.0
C822 C 0.42118 0.12859 0.08324 0.0
C823 C 0.43877 0.11277 0.07517 0.0
C824 C 0.43082 0.09102 0.05242 0.0
C825 C 0.40563 0.08715 0.0358 0.0
C826 C 0.3882 0.1034 0.04349 0.0
H827 H 0.33132 0.08775 0.10361 0.0
H828 H 0.33712 0.08696 0.06433 0.0
H829 H 0.3635 0.08609 0.09357 0.0
H830 H 0.4274 0.14416 0.10218 0.0
H831 H 0.4583 0.11702 0.0877 0.0
H832 H 0.82548 0.33388 0.21623 0.0
H833 H 0.86589 0.35334 0.19819 0.0
H834 H 0.89323 0.28048 0.1999 0.0
H835 H 0.852 0.26033 0.21739 0.0
H836 H 0.91754 0.36069 0.22263 0.0
H837 H 0.89793 0.29477 0.11173 0.0
H838 H 0.87305 0.29583 0.13689 0.0
H839 H 0.90007 0.28022 0.14675 0.0
C840 C 0.84002 0.32187 0.21294 0.0
C841 C 0.83534 0.29543 0.21796 0.0
C842 C 0.86325 0.33312 0.20275 0.0
C843 C 0.88251 0.31833 0.19746 0.0
C844 C 0.87843 0.29212 0.20337 0.0
H845 H 0.00509 0.4291 0.12854 0.0
H846 H 0.98945 0.3938 0.15844 0.0
C847 C 0.85491 0.28068 0.21339 0.0
C848 C 0.90578 0.33069 0.18402 0.0
H849 H 0.92891 0.3335 0.11493 0.0
C850 C 0.9206 0.35451 0.19932 0.0
C851 C 0.90979 0.32235 0.15373 0.0
C852 C 0.89438 0.29697 0.13611 0.0
C853 C 0.93703 0.37168 0.18404 0.0
C854 C 0.93934 0.36429 0.15288 0.0
C855 C 0.92684 0.33917 0.13871 0.0
C856 C 0.95044 0.38372 0.13326 0.0
C857 C 0.94966 0.3985 0.20053 0.0
C858 C 0.9341 0.38904 0.10838 0.0
C859 C 0.94312 0.40873 0.09096 0.0
C860 C 0.96857 0.42376 0.09835 0.0
C861 C 0.98519 0.4181 0.12277 0.0
C862 C 0.97629 0.39798 0.13987 0.0
H863 H 0.94234 0.40251 0.2229 0.0
H864 H 0.97117 0.39989 0.20499 0.0
H865 H 0.94593 0.41402 0.18631 0.0
H866 H 0.91405 0.37833 0.10287 0.0
H867 H 0.92995 0.41256 0.07213 0.0
H868 H 0.71681 0.83458 0.19896 0.0
H869 H 0.68902 0.85278 0.16286 0.0
H870 H 0.66867 0.77824 0.10565 0.0
H871 H 0.69648 0.75952 0.14211 0.0
H872 H 0.69193 0.8559 0.09932 0.0
H873 H 0.59688 0.79684 0.12076 0.0
H874 H 0.62666 0.79969 0.14658 0.0
H875 H 0.62208 0.77966 0.11022 0.0
C876 C 0.70649 0.82191 0.17876 0.0
C877 C 0.70884 0.79548 0.17359 0.0
C878 C 0.69064 0.83243 0.15805 0.0
C879 C 0.67662 0.81684 0.1317 0.0
C880 C 0.67908 0.79053 0.12607 0.0
H881 H 0.55817 0.88226 0.02225 0.0
H882 H 0.5873 0.85175 0.03386 0.0
C883 C 0.69506 0.7799 0.14687 0.0
C884 C 0.65933 0.82862 0.1108 0.0
H885 H 0.59501 0.83144 0.09151 0.0
C886 C 0.67073 0.85022 0.09709 0.0
C887 C 0.63168 0.82106 0.10766 0.0
C888 C 0.61842 0.79814 0.12213 0.0
C889 C 0.65525 0.86538 0.08192 0.0
C890 C 0.62768 0.85901 0.08083 0.0
C891 C 0.61618 0.8363 0.09249 0.0
C892 C 0.61091 0.87766 0.07199 0.0
C893 C 0.66859 0.88873 0.06825 0.0
C894 C 0.61441 0.90216 0.08972 0.0
C895 C 0.59772 0.91939 0.08347 0.0
C896 C 0.57706 0.9126 0.05924 0.0
C897 C 0.57367 0.88803 0.04129 0.0
C898 C 0.59041 0.87066 0.04771 0.0
H899 H 0.68788 0.8859 0.06159 0.0
H900 H 0.65625 0.89246 0.04783 0.0
H901 H 0.6721 0.90637 0.08556 0.0
H902 H 0.6297 0.9077 0.10904 0.0
H903 H 0.60061 0.93776 0.09833 0.0
H904 H 0.13785 0.7249 0.18167 0.0
H905 H 0.10856 0.69971 0.13806 0.0
H906 H 0.16349 0.72767 0.07702 0.0
H907 H 0.1934 0.75268 0.12078 0.0
H908 H 0.0842 0.70559 0.07899 0.0
H909 H 0.16489 0.64928 0.07261 0.0
H910 H 0.16544 0.67403 0.10437 0.0
H911 H 0.17173 0.68339 0.06752 0.0
C912 C 0.14351 0.72633 0.15895 0.0
C913 C 0.16836 0.74018 0.15486 0.0
C914 C 0.12662 0.71197 0.13395 0.0
C915 C 0.13417 0.71126 0.10441 0.0
C916 C 0.15757 0.72751 0.09974 0.0
H917 H 0.06393 0.55872 0.99798 0.0
H918 H 0.08672 0.60481 0.00272 0.0
C919 C 0.1746 0.74183 0.12482 0.0
C920 C 0.1197 0.69016 0.08043 0.0
H921 H 0.12311 0.62822 0.05049 0.0
C922 C 0.09283 0.68894 0.07196 0.0
C923 C 0.13105 0.66854 0.07085 0.0
C924 C 0.15981 0.66863 0.07929 0.0
C925 C 0.07662 0.66581 0.05668 0.0
C926 C 0.08751 0.64329 0.05036 0.0
C927 C 0.11477 0.64544 0.05568 0.0
C928 C 0.07101 0.61658 0.04422 0.0
C929 C 0.04774 0.66525 0.04895 0.0
C930 C 0.05489 0.60787 0.06605 0.0
C931 C 0.04207 0.58176 0.06338 0.0
C932 C 0.04505 0.56379 0.03878 0.0
C933 C 0.06089 0.57243 0.01668 0.0
C934 C 0.07392 0.59866 0.01945 0.0
H935 H 0.0443 0.68475 0.0437 0.0
H936 H 0.03893 0.65034 0.02907 0.0
H937 H 0.03754 0.66044 0.06901 0.0
H938 H 0.05297 0.62108 0.08587 0.0
H939 H 0.02986 0.57558 0.08066 0.0
H940 H 0.24971 0.82387 0.89131 0.0
H941 H 0.27206 0.85567 0.93474 0.0
H942 H 0.31256 0.90208 0.87273 0.0
H943 H 0.28997 0.87096 0.82947 0.0
H944 H 0.32185 0.85999 0.94827 0.0
H945 H 0.30718 0.95944 0.93654 0.0
H946 H 0.28437 0.93106 0.91642 0.0
H947 H 0.31274 0.94565 0.89965 0.0
C948 C 0.26275 0.84132 0.88686 0.0
C949 C 0.26853 0.84458 0.85696 0.0
C950 C 0.2754 0.85956 0.91175 0.0
C951 C 0.294 0.88136 0.90715 0.0
C952 C 0.2979 0.88582 0.87702 0.0
H953 H 0.44523 0.9227 0.93382 0.0
H954 H 0.39934 0.90183 0.93312 0.0
C955 C 0.28516 0.86772 0.85217 0.0
C956 C 0.31357 0.89581 0.93284 0.0
H957 H 0.3542 0.95553 0.95128 0.0
C958 C 0.32832 0.88106 0.94986 0.0
C959 C 0.32179 0.92337 0.93603 0.0
C960 C 0.30539 0.94071 0.92137 0.0
C961 C 0.35298 0.89257 0.96586 0.0
C962 C 0.36314 0.91927 0.96437 0.0
C963 C 0.34671 0.93481 0.95158 0.0
C964 C 0.39172 0.92969 0.96923 0.0
C965 C 0.36891 0.8756 0.98197 0.0
C966 C 0.40268 0.95222 0.98982 0.0
C967 C 0.42902 0.96407 0.9903 0.0
C968 C 0.44456 0.95379 0.96992 0.0
C969 C 0.43371 0.9309 0.94991 0.0
C970 C 0.40757 0.91887 0.9497 0.0
H971 H 0.35597 0.85949 0.9908 0.0
H972 H 0.38025 0.86654 0.96546 0.0
H973 H 0.38287 0.88724 0.00132 0.0
H974 H 0.39067 0.96109 0.00473 0.0
H975 H 0.43679 0.98199 0.00551 0.0
H976 H 0.20198 0.27151 0.85982 0.0
H977 H 0.17478 0.2934 0.89203 0.0
H978 H 0.17885 0.35536 0.83466 0.0
H979 H 0.20571 0.33389 0.80251 0.0
H980 H 0.18487 0.34784 0.92417 0.0
H981 H 0.09899 0.32537 0.83433 0.0
H982 H 0.12583 0.30803 0.83381 0.0
H983 H 0.12886 0.33973 0.82072 0.0
C984 C 0.19714 0.28984 0.85413 0.0
C985 C 0.20584 0.30077 0.82835 0.0
C986 C 0.18167 0.30232 0.8726 0.0
C987 C 0.17457 0.32578 0.86543 0.0
C988 C 0.18382 0.33705 0.8403 0.0
H989 H 0.12033 0.45528 0.94802 0.0
H990 H 0.14588 0.42194 0.93499 0.0
C991 C 0.19923 0.32471 0.82195 0.0
C992 C 0.15691 0.33851 0.88335 0.0
H993 H 0.09924 0.35997 0.87425 0.0
C994 C 0.16592 0.35016 0.91355 0.0
C995 C 0.13201 0.34105 0.86966 0.0
C996 C 0.12069 0.32767 0.83795 0.0
C997 C 0.15128 0.3657 0.92973 0.0
C998 C 0.12733 0.36999 0.91502 0.0
C999 C 0.11768 0.35694 0.88552 0.0
C1000 C 0.11277 0.38937 0.92837 0.0
C1001 C 0.16179 0.37759 0.9622 0.0
C1002 C 0.08564 0.38226 0.92917 0.0
C1003 C 0.07094 0.40136 0.9361 0.0
C1004 C 0.08309 0.42799 0.94253 0.0
C1005 C 0.11045 0.43492 0.94345 0.0
C1006 C 0.12512 0.41581 0.93619 0.0
H1007 H 0.17377 0.36504 0.97365 0.0
H1008 H 0.17467 0.39692 0.96189 0.0
H1009 H 0.14575 0.38049 0.97597 0.0
H1010 H 0.07566 0.362 0.92327 0.0
H1011 H 0.04995 0.39536 0.93579 0.0
H1012 H 0.67177 0.1759 0.81097 0.0
H1013 H 0.64782 0.13193 0.8139 0.0
H1014 H 0.70907 0.09884 0.77605 0.0
H1015 H 0.7337 0.1432 0.77368 0.0
H1016 H 0.62892 0.08955 0.76706 0.0
H1017 H 0.70217 0.06567 0.8554 0.0
H1018 H 0.70391 0.0989 0.84696 0.0
H1019 H 0.71217 0.07482 0.81968 0.0
C1020 C 0.68027 0.15934 0.80335 0.0
C1021 C 0.70475 0.16308 0.79235 0.0
C1022 C 0.66645 0.13418 0.8048 0.0
C1023 C 0.67662 0.11211 0.79513 0.0
C1024 C 0.70098 0.11561 0.78389 0.0
H1025 H 0.55605 0.98976 0.84972 0.0
H1026 H 0.5878 0.00289 0.8141 0.0
C1027 C 0.71504 0.14095 0.78268 0.0
C1028 C 0.66174 0.08592 0.79888 0.0
H1029 H 0.65886 0.04329 0.85214 0.0
C1030 C 0.63564 0.07868 0.78487 0.0
C1031 C 0.67077 0.07148 0.82164 0.0
C1032 C 0.69875 0.07797 0.83693 0.0
C1033 C 0.61742 0.06007 0.7962 0.0
C1034 C 0.62576 0.04838 0.82185 0.0
C1035 C 0.65259 0.05264 0.83267 0.0
C1036 C 0.60704 0.03873 0.84284 0.0
C1037 C 0.58888 0.05546 0.78321 0.0
C1038 C 0.60746 0.0545 0.8706 0.0
C1039 C 0.58959 0.04716 0.89075 0.0
C1040 C 0.57078 0.02385 0.88357 0.0
C1041 C 0.57027 0.00793 0.85572 0.0
C1042 C 0.58837 0.01533 0.83543 0.0
H1043 H 0.58575 0.06559 0.76268 0.0
H1044 H 0.58118 0.03415 0.77674 0.0
H1045 H 0.57734 0.0626 0.80086 0.0
H1046 H 0.62155 0.07279 0.87657 0.0
H1047 H 0.59055 0.05987 0.91198 0.0
H1048 H 0.83157 0.75485 0.86328 0.0
H1049 H 0.85726 0.7354 0.90111 0.0
H1050 H 0.81202 0.65865 0.86593 0.0
H1051 H 0.78642 0.67766 0.82809 0.0
H1052 H 0.82558 0.67575 0.9379 0.0
H1053 H 0.90766 0.68456 0.8661 0.0
H1054 H 0.89207 0.71211 0.87401 0.0
H1055 H 0.87436 0.68349 0.84958 0.0
C1056 C 0.82689 0.73387 0.86383 0.0
C1057 C 0.80715 0.71777 0.84243 0.0
C1058 C 0.84153 0.72285 0.88548 0.0
C1059 C 0.83643 0.69566 0.8862 0.0
C1060 C 0.8161 0.6797 0.86575 0.0
H1061 H 0.88786 0.56787 0.95755 0.0
H1062 H 0.86307 0.60118 0.94421 0.0
C1063 C 0.80165 0.69062 0.844 0.0
C1064 C 0.85369 0.68324 0.90606 0.0
H1065 H 0.91054 0.66018 0.90721 0.0
C1066 C 0.84439 0.67266 0.93162 0.0
C1067 C 0.8782 0.67946 0.89779 0.0
C1068 C 0.88883 0.69038 0.87036 0.0
C1069 C 0.85875 0.65761 0.94867 0.0
C1070 C 0.88253 0.65245 0.93922 0.0
C1071 C 0.8923 0.66411 0.91447 0.0
C1072 C 0.89663 0.63332 0.9526 0.0
C1073 C 0.84822 0.64725 0.97641 0.0
C1074 C 0.92372 0.64022 0.96189 0.0
C1075 C 0.93807 0.62108 0.96865 0.0
C1076 C 0.92559 0.59457 0.96639 0.0
C1077 C 0.89817 0.58798 0.95897 0.0
C1078 C 0.88387 0.60713 0.95188 0.0
H1079 H 0.83608 0.66025 0.98691 0.0
H1080 H 0.8355 0.62764 0.96935 0.0
H1081 H 0.86429 0.64533 0.99401 0.0
H1082 H 0.934 0.66027 0.96244 0.0
H1083 H 0.95916 0.62695 0.97389 0.0
H1084 H 0.23598 0.2955 0.13843 0.0
H1085 H 0.21381 0.31734 0.10023 0.0
H1086 H 0.15263 0.3231 0.15737 0.0
H1087 H 0.17419 0.30069 0.19523 0.0
H1088 H 0.13324 0.30874 0.09686 0.0
H1089 H 0.21502 0.39545 0.11064 0.0
H1090 H 0.22347 0.3644 0.09932 0.0
H1091 H 0.21346 0.37096 0.13654 0.0
C1092 C 0.21774 0.30133 0.14282 0.0
C1093 C 0.20697 0.29656 0.17004 0.0
C1094 C 0.20517 0.3139 0.121 0.0
C1095 C 0.18183 0.32225 0.1262 0.0
C1096 C 0.17067 0.31686 0.15292 0.0
H1097 H 0.10656 0.44266 0.08713 0.0
H1098 H 0.13508 0.41329 0.10203 0.0
C1099 C 0.18306 0.30409 0.17459 0.0
C1100 C 0.16922 0.33742 0.10459 0.0
H1101 H 0.17727 0.3969 0.07784 0.0
C1102 C 0.14294 0.32786 0.09228 0.0
C1103 C 0.182 0.36236 0.09872 0.0
C1104 C 0.20997 0.37408 0.11213 0.0
C1105 C 0.12862 0.34315 0.07565 0.0
C1106 C 0.14115 0.36846 0.07072 0.0
C1107 C 0.16784 0.3774 0.08152 0.0
C1108 C 0.12602 0.3875 0.05919 0.0
C1109 C 0.09979 0.33282 0.0653 0.0
C1110 C 0.11192 0.38316 0.02972 0.0
C1111 C 0.09554 0.40019 0.02092 0.0
C1112 C 0.09317 0.42189 0.04138 0.0
C1113 C 0.10824 0.4266 0.07039 0.0
C1114 C 0.12449 0.40966 0.07911 0.0
H1115 H 0.09234 0.31445 0.07483 0.0
H1116 H 0.08813 0.34766 0.07232 0.0
H1117 H 0.09649 0.32867 0.03994 0.0
H1118 H 0.11309 0.36631 0.01385 0.0
H1119 H 0.08434 0.39604 0.99842 0.0
H1120 H 0.17151 0.73294 0.85504 0.0
H1121 H 0.13133 0.70692 0.86764 0.0
H1122 H 0.09234 0.71014 0.77769 0.0
H1123 H 0.13271 0.73591 0.76456 0.0
H1124 H 0.07673 0.70929 0.86606 0.0
H1125 H 0.09561 0.63218 0.77861 0.0
H1126 H 0.11969 0.66171 0.79161 0.0
H1127 H 0.09071 0.6629 0.76661 0.0
C1128 C 0.15429 0.72866 0.8381 0.0
C1129 C 0.15555 0.73585 0.8085 0.0
C1130 C 0.13125 0.71388 0.84541 0.0
C1131 C 0.1091 0.70613 0.82333 0.0
C1132 C 0.10943 0.71551 0.79481 0.0
H1133 H 0.00813 0.56093 0.85966 0.0
H1134 H 0.01981 0.59931 0.83269 0.0
C1135 C 0.13253 0.73022 0.78739 0.0
C1136 C 0.08774 0.68514 0.82905 0.0
H1137 H 0.06831 0.61864 0.8146 0.0
C1138 C 0.07428 0.68956 0.8543 0.0
C1139 C 0.08432 0.65946 0.8134 0.0
C1140 C 0.09835 0.65356 0.7861 0.0
C1141 C 0.05933 0.66861 0.86595 0.0
C1142 C 0.05834 0.64272 0.85229 0.0
C1143 C 0.06943 0.63855 0.82516 0.0
C1144 C 0.05015 0.6199 0.86854 0.0
C1145 C 0.04596 0.67424 0.89381 0.0
C1146 C 0.06396 0.61847 0.89704 0.0
C1147 C 0.0576 0.59663 0.91225 0.0
C1148 C 0.03735 0.57566 0.89916 0.0
C1149 C 0.02388 0.57679 0.87025 0.0
C1150 C 0.03034 0.59874 0.85495 0.0
H1151 H 0.04035 0.69375 0.89456 0.0
H1152 H 0.02815 0.65905 0.89422 0.0
H1153 H 0.05973 0.67448 0.91476 0.0
H1154 H 0.0799 0.63423 0.90744 0.0
H1155 H 0.0684 0.59635 0.93445 0.0
H1156 H 0.34377 0.21193 0.79804 0.0
H1157 H 0.36829 0.18619 0.82872 0.0
H1158 H 0.31179 0.18323 0.89316 0.0
H1159 H 0.28683 0.20901 0.86247 0.0
H1160 H 0.37086 0.1953 0.91807 0.0
H1161 H 0.33622 0.10559 0.83424 0.0
H1162 H 0.34813 0.13503 0.81815 0.0
H1163 H 0.31899 0.13253 0.8367 0.0
C1164 C 0.33656 0.20604 0.81884 0.0
C1165 C 0.31316 0.21242 0.82763 0.0
C1166 C 0.35063 0.19129 0.83633 0.0
C1167 C 0.34172 0.18267 0.86302 0.0
C1168 C 0.31893 0.1897 0.87256 0.0
H1169 H 0.40513 0.05724 0.94087 0.0
H1170 H 0.37501 0.08612 0.92732 0.0
C1171 C 0.30469 0.20438 0.85495 0.0
C1172 C 0.3558 0.16537 0.87994 0.0
H1173 H 0.3717 0.10485 0.87198 0.0
C1174 C 0.37087 0.17542 0.90825 0.0
C1175 C 0.35541 0.13934 0.86726 0.0
C1176 C 0.33867 0.12729 0.83753 0.0
C1177 C 0.38655 0.16039 0.92355 0.0
C1178 C 0.38732 0.13486 0.90994 0.0
C1179 C 0.37126 0.12448 0.88233 0.0
C1180 C 0.4056 0.11895 0.92277 0.0
C1181 C 0.40222 0.17198 0.95404 0.0
C1182 C 0.43284 0.12796 0.92526 0.0
C1183 C 0.45011 0.11144 0.93287 0.0
C1184 C 0.44043 0.08551 0.93781 0.0
C1185 C 0.41318 0.07696 0.93666 0.0
C1186 C 0.39595 0.09348 0.92912 0.0
H1187 H 0.39364 0.18775 0.9655 0.0
H1188 H 0.40331 0.15672 0.96955 0.0
H1189 H 0.42248 0.18069 0.95036 0.0
H1190 H 0.44076 0.14733 0.91984 0.0
H1191 H 0.47096 0.11854 0.9333 0.0
H1192 H 0.79611 0.26014 0.89433 0.0
H1193 H 0.8279 0.28509 0.93665 0.0
H1194 H 0.88628 0.29692 0.87477 0.0
H1195 H 0.85474 0.27143 0.83281 0.0
H1196 H 0.90803 0.29805 0.93752 0.0
H1197 H 0.83449 0.3623 0.9231 0.0
H1198 H 0.82347 0.33071 0.93483 0.0
H1199 H 0.83284 0.33297 0.89712 0.0
C1200 C 0.8162 0.26679 0.8903 0.0
C1201 C 0.82316 0.2639 0.86052 0.0
C1202 C 0.83426 0.28124 0.91438 0.0
C1203 C 0.85921 0.29345 0.90863 0.0
C1204 C 0.86711 0.28773 0.8797 0.0
H1205 H 0.97225 0.42484 0.92336 0.0
H1206 H 0.94629 0.38054 0.92064 0.0
C1207 C 0.84914 0.27307 0.85573 0.0
C1208 C 0.87469 0.31636 0.92951 0.0
H1209 H 0.87567 0.38154 0.94861 0.0
C1210 C 0.90078 0.31616 0.94067 0.0
C1211 C 0.86518 0.34003 0.93372 0.0
C1212 C 0.83755 0.34176 0.92149 0.0
C1213 C 0.91807 0.3394 0.95398 0.0
C1214 C 0.90908 0.36334 0.9557 0.0
C1215 C 0.88248 0.36312 0.94715 0.0
C1216 C 0.92738 0.38906 0.96075 0.0
C1217 C 0.94612 0.3384 0.96481 0.0
C1218 C 0.9251 0.40871 0.98397 0.0
C1219 C 0.93993 0.43411 0.98546 0.0
C1220 C 0.95685 0.44023 0.96349 0.0
C1221 C 0.95923 0.42055 0.94048 0.0
C1222 C 0.94473 0.39518 0.93921 0.0
H1223 H 0.94778 0.31888 0.97171 0.0
H1224 H 0.95812 0.34183 0.94583 0.0
H1225 H 0.95437 0.35373 0.98447 0.0
H1226 H 0.91142 0.40454 0.00041 0.0
H1227 H 0.93747 0.4492 0.00301 0.0
H1228 H 0.75173 0.8232 0.8682 0.0
H1229 H 0.73047 0.84402 0.90829 0.0
H1230 H 0.65462 0.80885 0.85872 0.0
H1231 H 0.67546 0.78796 0.81886 0.0
H1232 H 0.69688 0.8792 0.90064 0.0
H1233 H 0.64616 0.79159 0.94566 0.0
H1234 H 0.67279 0.79068 0.92286 0.0
H1235 H 0.63997 0.78901 0.90469 0.0
C1236 C 0.73052 0.81975 0.86595 0.0
C1237 C 0.71533 0.80388 0.84026 0.0
C1238 C 0.71842 0.83161 0.88892 0.0
C1239 C 0.69096 0.82751 0.88681 0.0
C1240 C 0.67582 0.81172 0.86124 0.0
H1241 H 0.56433 0.88769 0.9377 0.0
H1242 H 0.59553 0.8606 0.92419 0.0
C1243 C 0.68783 0.8 0.83827 0.0
C1244 C 0.67785 0.84125 0.90986 0.0
H1245 H 0.62836 0.83085 0.95446 0.0
C1246 C 0.68235 0.86872 0.91305 0.0
C1247 C 0.65899 0.82749 0.92608 0.0
C1248 C 0.65437 0.79806 0.92492 0.0
C1249 C 0.66705 0.88271 0.93011 0.0
C1250 C 0.64705 0.86881 0.9448 0.0
C1251 C 0.64367 0.84145 0.94317 0.0
C1252 C 0.62719 0.88198 0.95795 0.0
C1253 C 0.67115 0.91209 0.93043 0.0
C1254 C 0.63421 0.9021 0.98264 0.0
C1255 C 0.61622 0.91761 0.99071 0.0
C1256 C 0.59099 0.91326 0.9741 0.0
C1257 C 0.58345 0.8916 0.95118 0.0
C1258 C 0.60136 0.87611 0.94326 0.0
H1259 H 0.68481 0.91928 0.91417 0.0
H1260 H 0.65218 0.91815 0.92446 0.0
H1261 H 0.67951 0.92181 0.95378 0.0
H1262 H 0.65393 0.90661 0.99466 0.0
H1263 H 0.62244 0.93373 0.009 0.0
H1264 H 0.78634 0.71321 0.13877 0.0
H1265 H 0.8073 0.68515 0.10569 0.0
H1266 H 0.87664 0.7017 0.17194 0.0
H1267 H 0.85608 0.73013 0.205 0.0
H1268 H 0.8872 0.69802 0.10998 0.0
H1269 H 0.81317 0.61318 0.13207 0.0
H1270 H 0.80051 0.63884 0.11523 0.0
H1271 H 0.81735 0.64524 0.15358 0.0
C1272 C 0.80626 0.71133 0.14609 0.0
C1273 C 0.81937 0.72362 0.17483 0.0
C1274 C 0.81815 0.69518 0.12716 0.0
C1275 C 0.84327 0.6909 0.1367 0.0
C1276 C 0.85715 0.70464 0.16425 0.0
H1277 H 0.91908 0.56273 0.11826 0.0
H1278 H 0.89481 0.5972 0.13063 0.0
C1279 C 0.84534 0.72089 0.18315 0.0
C1280 C 0.85423 0.67032 0.11973 0.0
H1281 H 0.8465 0.60385 0.10381 0.0
C1282 C 0.87819 0.67743 0.10822 0.0
C1283 C 0.8424 0.64347 0.11765 0.0
C1284 C 0.81704 0.63457 0.13044 0.0
C1285 C 0.89113 0.65834 0.09562 0.0
C1286 C 0.87965 0.63149 0.09439 0.0
C1287 C 0.85519 0.62446 0.10476 0.0
C1288 C 0.89393 0.61036 0.08583 0.0
C1289 C 0.91757 0.66698 0.08517 0.0
C1290 C 0.90118 0.60604 0.05634 0.0
C1291 C 0.91536 0.58643 0.04931 0.0
C1292 C 0.92246 0.57076 0.07154 0.0
C1293 C 0.91447 0.57476 0.10076 0.0
C1294 C 0.9004 0.59433 0.1078 0.0
H1295 H 0.92566 0.68815 0.09249 0.0
H1296 H 0.9318 0.65546 0.09431 0.0
H1297 H 0.91562 0.66351 0.05978 0.0
H1298 H 0.89599 0.61786 0.03885 0.0
H1299 H 0.92123 0.58388 0.02669 0.0
H1300 H 0.26541 0.84234 0.1687 0.0
H1301 H 0.29637 0.87776 0.15274 0.0
H1302 H 0.33038 0.90215 0.24666 0.0
H1303 H 0.29924 0.86689 0.26302 0.0
H1304 H 0.32137 0.94086 0.18167 0.0
H1305 H 0.38041 0.86231 0.1876 0.0
H1306 H 0.34511 0.85411 0.18027 0.0
H1307 H 0.36075 0.86898 0.21754 0.0
C1308 C 0.27889 0.85576 0.1861 0.0
C1309 C 0.28032 0.85147 0.21702 0.0
C1310 C 0.29641 0.87611 0.17695 0.0
C1311 C 0.31569 0.89232 0.19854 0.0
C1312 C 0.3155 0.88983 0.22976 0.0
H1313 H 0.46018 0.98271 0.14572 0.0
H1314 H 0.4262 0.96717 0.17756 0.0
C1315 C 0.29775 0.86961 0.239 0.0
C1316 C 0.33893 0.9073 0.18768 0.0
H1317 H 0.39752 0.89908 0.16474 0.0
C1318 C 0.33828 0.93205 0.17849 0.0
C1319 C 0.36079 0.89554 0.18344 0.0
C1320 C 0.36204 0.86876 0.19264 0.0
C1321 C 0.35882 0.94499 0.16416 0.0
C1322 C 0.38009 0.93266 0.15886 0.0
C1323 C 0.38114 0.90841 0.16907 0.0
C1324 C 0.40009 0.94317 0.13991 0.0
C1325 C 0.35738 0.97123 0.15361 0.0
C1326 C 0.39658 0.93444 0.10845 0.0
C1327 C 0.41587 0.94308 0.09031 0.0
C1328 C 0.43907 0.96052 0.10341 0.0
C1329 C 0.44257 0.96915 0.13505 0.0
C1330 C 0.42318 0.96048 0.1532 0.0
H1331 H 0.34031 0.97897 0.16102 0.0
H1332 H 0.37565 0.98559 0.16279 0.0
H1333 H 0.35586 0.96934 0.12822 0.0
H1334 H 0.37891 0.92084 0.09798 0.0
H1335 H 0.41254 0.93614 0.066 0.0
H1336 H 0.68183 0.18932 0.15523 0.0
H1337 H 0.66721 0.15654 0.1113 0.0
H1338 H 0.74495 0.13953 0.11284 0.0
H1339 H 0.76014 0.17288 0.15796 0.0
H1340 H 0.68586 0.1514 0.05185 0.0
H1341 H 0.69576 0.06797 0.11794 0.0
H1342 H 0.69747 0.09995 0.13863 0.0
H1343 H 0.72327 0.09412 0.11668 0.0
C1344 C 0.69607 0.17881 0.14645 0.0
C1345 C 0.72219 0.18368 0.16041 0.0
C1346 C 0.68765 0.16016 0.121 0.0
C1347 C 0.70498 0.14572 0.10863 0.0
C1348 C 0.73126 0.15052 0.12205 0.0
H1349 H 0.57566 0.04222 0.98714 0.0
H1350 H 0.62191 0.06448 0.99518 0.0
C1351 C 0.73985 0.16947 0.14783 0.0
C1352 C 0.69373 0.1244 0.08347 0.0
H1353 H 0.65953 0.06196 0.07981 0.0
C1354 C 0.68084 0.13139 0.05699 0.0
C1355 C 0.68774 0.09824 0.08987 0.0
C1356 C 0.70177 0.08938 0.11723 0.0
C1357 C 0.6588 0.11443 0.04026 0.0
C1358 C 0.65008 0.08982 0.05007 0.0
C1359 C 0.66596 0.08115 0.07289 0.0
C1360 C 0.6222 0.07642 0.04357 0.0
C1361 C 0.64311 0.1242 0.01492 0.0
C1362 C 0.60695 0.07606 0.06787 0.0
C1363 C 0.58085 0.06311 0.06341 0.0
C1364 C 0.56926 0.05024 0.03444 0.0
C1365 C 0.58416 0.05161 0.00974 0.0
C1366 C 0.61056 0.06441 0.01429 0.0
H1367 H 0.65259 0.14397 0.01028 0.0
H1368 H 0.64079 0.1104 0.99354 0.0
H1369 H 0.62322 0.1251 0.02108 0.0
H1370 H 0.61542 0.08562 0.09057 0.0
H1371 H 0.56997 0.06269 0.08294 0.0
H1372 H 0.64678 0.69962 0.73768 0.0
H1373 H 0.61023 0.66975 0.75345 0.0
H1374 H 0.66383 0.62289 0.78783 0.0
H1375 H 0.70023 0.65201 0.77129 0.0
H1376 H 0.61458 0.59304 0.76601 0.0
H1377 H 0.60829 0.6811 0.84537 0.0
H1378 H 0.60238 0.68365 0.8052 0.0
H1379 H 0.63444 0.68088 0.82194 0.0
C1380 C 0.65069 0.68257 0.7479 0.0
C1381 C 0.67653 0.6786 0.75404 0.0
C1382 C 0.62977 0.66556 0.75693 0.0
C1383 C 0.63447 0.64463 0.77272 0.0
C1384 C 0.6598 0.63909 0.77595 0.0
H1385 H 0.58382 0.58579 0.93013 0.0
H1386 H 0.60358 0.60739 0.88944 0.0
C1387 C 0.68064 0.65585 0.76656 0.0
C1388 C 0.61445 0.63098 0.79002 0.0
H1389 H 0.5836 0.64106 0.85329 0.0
C1390 C 0.60739 0.60351 0.78478 0.0
C1391 C 0.60535 0.64474 0.81472 0.0
C1392 C 0.61308 0.67418 0.82242 0.0
C1393 C 0.5925 0.58935 0.80445 0.0
C1394 C 0.58419 0.60315 0.82968 0.0
C1395 C 0.59007 0.63061 0.83392 0.0
C1396 C 0.57181 0.58963 0.8538 0.0
C1397 C 0.58709 0.55978 0.79918 0.0
C1398 C 0.54731 0.57262 0.84727 0.0
C1399 C 0.53605 0.56011 0.87049 0.0
C1400 C 0.549 0.56463 0.90065 0.0
C1401 C 0.57337 0.58192 0.90715 0.0
C1402 C 0.58466 0.59427 0.88393 0.0
H1403 H 0.59883 0.5522 0.78203 0.0
H1404 H 0.59144 0.55167 0.82094 0.0
H1405 H 0.56603 0.55242 0.79065 0.0
H1406 H 0.53684 0.56917 0.82433 0.0
H1407 H 0.51714 0.54701 0.86483 0.0
H1408 H 0.31168 0.6951 0.80976 0.0
H1409 H 0.33709 0.67322 0.84444 0.0
H1410 H 0.30306 0.70542 0.92082 0.0
H1411 H 0.27719 0.72741 0.88613 0.0
H1412 H 0.37382 0.69864 0.89624 0.0
H1413 H 0.29254 0.62523 0.92746 0.0
H1414 H 0.28861 0.64211 0.89421 0.0
H1415 H 0.28956 0.65913 0.9318 0.0
C1416 C 0.30939 0.69748 0.83388 0.0
C1417 C 0.29233 0.71303 0.84512 0.0
C1418 C 0.32399 0.68498 0.85368 0.0
C1419 C 0.32184 0.68762 0.88511 0.0
C1420 C 0.30474 0.70291 0.89655 0.0
H1421 H 0.43952 0.62696 0.00036 0.0
H1422 H 0.40925 0.65556 0.98602 0.0
C1423 C 0.29004 0.71549 0.87669 0.0
C1424 C 0.33817 0.67468 0.90558 0.0
H1425 H 0.33556 0.62238 0.94605 0.0
C1426 C 0.36552 0.68224 0.90761 0.0
C1427 C 0.32715 0.6533 0.92026 0.0
C1428 C 0.29786 0.64423 0.91833 0.0
C1429 C 0.38221 0.66819 0.92269 0.0
C1430 C 0.37118 0.64621 0.93644 0.0
C1431 C 0.34386 0.63936 0.93563 0.0
C1432 C 0.38751 0.62818 0.94794 0.0
C1433 C 0.41142 0.67597 0.9222 0.0
C1434 C 0.3847 0.60308 0.93187 0.0
C1435 C 0.40196 0.5868 0.93982 0.0
C1436 C 0.42234 0.59524 0.96417 0.0
C1437 C 0.42442 0.62007 0.98106 0.0
C1438 C 0.40706 0.63636 0.97307 0.0
H1439 H 0.41642 0.69113 0.90681 0.0
H1440 H 0.42107 0.68399 0.94567 0.0
H1441 H 0.41966 0.65862 0.91457 0.0
H1442 H 0.3698 0.59648 0.9123 0.0
H1443 H 0.39996 0.56805 0.92595 0.0
H1444 H 0.36012 0.31433 0.78846 0.0
H1445 H 0.38547 0.34113 0.83407 0.0
H1446 H 0.32479 0.38646 0.84074 0.0
H1447 H 0.29957 0.36033 0.79483 0.0
H1448 H 0.37379 0.41569 0.85801 0.0
H1449 H 0.36015 0.32626 0.91624 0.0
H1450 H 0.37629 0.32284 0.88259 0.0
H1451 H 0.34297 0.32766 0.87906 0.0
C1452 C 0.35251 0.33052 0.79902 0.0
C1453 C 0.32741 0.33462 0.78863 0.0
C1454 C 0.36685 0.34555 0.82532 0.0
C1455 C 0.35625 0.36475 0.84149 0.0
C1456 C 0.33289 0.37117 0.82895 0.0
H1457 H 0.42634 0.47217 0.00145 0.0
H1458 H 0.38993 0.43746 0.97675 0.0
C1459 C 0.31861 0.3563 0.80254 0.0
C1460 C 0.36878 0.37722 0.87219 0.0
H1461 H 0.39061 0.36376 0.94316 0.0
C1462 C 0.37709 0.40446 0.87681 0.0
C1463 C 0.37254 0.36239 0.89672 0.0
C1464 C 0.36227 0.33319 0.89357 0.0
C1465 C 0.3907 0.41721 0.9048 0.0
C1466 C 0.39575 0.40223 0.92887 0.0
C1467 C 0.38639 0.3751 0.92474 0.0
C1468 C 0.41495 0.41413 0.95559 0.0
C1469 C 0.40105 0.44644 0.90773 0.0
C1470 C 0.44081 0.41071 0.95456 0.0
C1471 C 0.46147 0.4305 0.96844 0.0
C1472 C 0.45623 0.45337 0.98386 0.0
C1473 C 0.43063 0.4545 0.98975 0.0
C1474 C 0.40986 0.43472 0.97562 0.0
H1475 H 0.39757 0.45454 0.88577 0.0
H1476 H 0.3912 0.45662 0.92501 0.0
H1477 H 0.42245 0.45103 0.91557 0.0
H1478 H 0.44504 0.3948 0.93938 0.0
H1479 H 0.48124 0.42938 0.96392 0.0
H1480 H 0.66348 0.28256 0.83884 0.0
H1481 H 0.64366 0.30961 0.87482 0.0
H1482 H 0.71962 0.35801 0.90683 0.0
H1483 H 0.73958 0.33145 0.87103 0.0
H1484 H 0.65698 0.32675 0.94346 0.0
H1485 H 0.67267 0.40702 0.86987 0.0
H1486 H 0.67376 0.37356 0.85613 0.0
H1487 H 0.70075 0.39342 0.88155 0.0
C1488 C 0.676 0.2988 0.85374 0.0
C1489 C 0.70304 0.30508 0.85168 0.0
C1490 C 0.66467 0.31412 0.87437 0.0
C1491 C 0.68021 0.33586 0.89323 0.0
C1492 C 0.70732 0.34142 0.89226 0.0
H1493 H 0.62726 0.46931 0.98194 0.0
H1494 H 0.6564 0.43889 0.97077 0.0
C1495 C 0.71863 0.32624 0.87165 0.0
C1496 C 0.66784 0.35419 0.91176 0.0
H1497 H 0.65285 0.41498 0.91401 0.0
C1498 C 0.65614 0.34612 0.93723 0.0
C1499 C 0.66712 0.3795 0.90368 0.0
C1500 C 0.67906 0.38897 0.87623 0.0
C1501 C 0.64336 0.36273 0.95466 0.0
C1502 C 0.64178 0.38767 0.9458 0.0
C1503 C 0.65419 0.39592 0.92088 0.0
C1504 C 0.62521 0.40464 0.95966 0.0
C1505 C 0.63175 0.35349 0.98238 0.0
C1506 C 0.59812 0.39533 0.95813 0.0
C1507 C 0.58149 0.41263 0.96467 0.0
C1508 C 0.59161 0.4396 0.97249 0.0
C1509 C 0.6189 0.44864 0.97598 0.0
C1510 C 0.63556 0.43128 0.96958 0.0
H1511 H 0.64234 0.33914 0.99232 0.0
H1512 H 0.63226 0.37012 0.00038 0.0
H1513 H 0.61101 0.34353 0.97544 0.0
H1514 H 0.5896 0.37499 0.94999 0.0
H1515 H 0.56056 0.40506 0.96235 0.0
H1516 H 0.70433 0.28409 0.13913 0.0
H1517 H 0.6835 0.30748 0.10151 0.0
H1518 H 0.68017 0.36868 0.17376 0.0
H1519 H 0.70306 0.34635 0.21069 0.0
H1520 H 0.63906 0.31637 0.0939 0.0
H1521 H 0.70224 0.414 0.1131 0.0
H1522 H 0.7121 0.38676 0.12976 0.0
H1523 H 0.69262 0.40677 0.14936 0.0
C1524 C 0.69962 0.30287 0.14668 0.0
C1525 C 0.70537 0.31364 0.1776 0.0
C1526 C 0.68768 0.31619 0.12524 0.0
C1527 C 0.68064 0.34021 0.13451 0.0
C1528 C 0.68634 0.35082 0.16561 0.0
H1529 H 0.54457 0.39212 0.07515 0.0
H1530 H 0.57752 0.36612 0.08686 0.0
C1531 C 0.69913 0.33794 0.18684 0.0
C1532 C 0.66517 0.35291 0.11247 0.0
H1533 H 0.65579 0.41291 0.09606 0.0
C1534 C 0.64314 0.33745 0.09386 0.0
C1535 C 0.6708 0.38025 0.11108 0.0
C1536 C 0.69595 0.39774 0.12664 0.0
C1537 C 0.62555 0.34882 0.07607 0.0
C1538 C 0.62919 0.37646 0.07838 0.0
C1539 C 0.65238 0.39173 0.09483 0.0
C1540 C 0.60821 0.39006 0.06694 0.0
C1541 C 0.60322 0.33097 0.05529 0.0
C1542 C 0.61437 0.41262 0.05239 0.0
C1543 C 0.59581 0.42822 0.04708 0.0
C1544 C 0.57039 0.42108 0.05501 0.0
C1545 C 0.56381 0.39781 0.06808 0.0
C1546 C 0.58265 0.38274 0.07449 0.0
H1547 H 0.60961 0.31313 0.04537 0.0
H1548 H 0.58708 0.32441 0.06883 0.0
H1549 H 0.5956 0.34083 0.03622 0.0
H1550 H 0.63391 0.41882 0.04637 0.0
H1551 H 0.60162 0.44626 0.03757 0.0
H1552 H 0.7444 0.6552 0.21577 0.0
H1553 H 0.71778 0.62052 0.1781 0.0
H1554 H 0.64774 0.63836 0.21159 0.0
H1555 H 0.67436 0.67334 0.24913 0.0
H1556 H 0.65723 0.57754 0.17266 0.0
H1557 H 0.67188 0.67279 0.12453 0.0
H1558 H 0.69661 0.66435 0.15116 0.0
H1559 H 0.66796 0.67351 0.16456 0.0
C1560 C 0.7234 0.65051 0.21638 0.0
C1561 C 0.71119 0.667 0.23473 0.0
C1562 C 0.70827 0.63072 0.19487 0.0
C1563 C 0.68096 0.62745 0.19186 0.0
C1564 C 0.66891 0.64082 0.21377 0.0
H1565 H 0.53891 0.58459 0.10515 0.0
H1566 H 0.58239 0.60661 0.12959 0.0
C1567 C 0.68407 0.6607 0.23527 0.0
C1568 C 0.66576 0.61712 0.16192 0.0
H1569 H 0.63669 0.63946 0.10003 0.0
C1570 C 0.65332 0.59076 0.15621 0.0
C1571 C 0.66126 0.63451 0.14036 0.0
C1572 C 0.67519 0.66287 0.14519 0.0
C1573 C 0.63446 0.58187 0.13058 0.0
C1574 C 0.6278 0.60002 0.11103 0.0
C1575 C 0.642 0.62574 0.11518 0.0
C1576 C 0.60233 0.59415 0.09191 0.0
C1577 C 0.61999 0.55373 0.12597 0.0
C1578 C 0.59933 0.58199 0.06167 0.0
C1579 C 0.57429 0.56994 0.04729 0.0
C1580 C 0.5526 0.56927 0.06369 0.0
C1581 C 0.55547 0.58438 0.09237 0.0
C1582 C 0.58024 0.59691 0.10632 0.0
H1583 H 0.63043 0.54119 0.13954 0.0
H1584 H 0.60018 0.55281 0.13321 0.0
H1585 H 0.61742 0.54565 0.10137 0.0
H1586 H 0.61632 0.58006 0.05022 0.0
H1587 H 0.57236 0.5591 0.0247 0.0
H1588 H 0.32471 0.70623 0.21189 0.0
H1589 H 0.34462 0.67834 0.17734 0.0
H1590 H 0.29852 0.6978 0.09961 0.0
H1591 H 0.27858 0.72601 0.13396 0.0
H1592 H 0.29473 0.64136 0.10625 0.0
H1593 H 0.39698 0.69658 0.11269 0.0
H1594 H 0.3845 0.69457 0.14892 0.0
H1595 H 0.37003 0.71223 0.12124 0.0
C1596 C 0.31912 0.70498 0.18742 0.0
C1597 C 0.29998 0.71826 0.17568 0.0
C1598 C 0.3306 0.68912 0.16773 0.0
C1599 C 0.32308 0.68616 0.136 0.0
C1600 C 0.30463 0.7 0.12406 0.0
H1601 H 0.39922 0.58583 0.018 0.0
H1602 H 0.37479 0.61997 0.03267 0.0
C1603 C 0.29334 0.71614 0.14373 0.0
C1604 C 0.3328 0.66674 0.11583 0.0
H1605 H 0.389 0.65105 0.09338 0.0
C1606 C 0.31525 0.64362 0.10292 0.0
C1607 C 0.3595 0.6699 0.11144 0.0
C1608 C 0.37888 0.69474 0.12406 0.0
C1609 C 0.32406 0.62288 0.08714 0.0
C1610 C 0.35103 0.62546 0.08432 0.0
C1611 C 0.36831 0.64916 0.09569 0.0
C1612 C 0.36223 0.60303 0.07251 0.0
C1613 C 0.30466 0.59809 0.07435 0.0
C1614 C 0.36275 0.58203 0.08968 0.0
C1615 C 0.37702 0.56284 0.08162 0.0
C1616 C 0.39104 0.56435 0.0562 0.0
C1617 C 0.38906 0.58453 0.03797 0.0
C1618 C 0.375 0.60389 0.04621 0.0
H1619 H 0.28425 0.60151 0.07154 0.0
H1620 H 0.30936 0.58993 0.05186 0.0
H1621 H 0.30571 0.58322 0.09035 0.0
H1622 H 0.35331 0.58127 0.11033 0.0
H1623 H 0.3784 0.54781 0.09645 0.0
H1624 H 0.35683 0.32847 0.30125 0.0
H1625 H 0.39409 0.3638 0.29681 0.0
H1626 H 0.35043 0.38421 0.21774 0.0
H1627 H 0.31383 0.349 0.22161 0.0
H1628 H 0.41923 0.36398 0.24157 0.0
H1629 H 0.38466 0.45629 0.26766 0.0
H1630 H 0.37141 0.42639 0.28256 0.0
H1631 H 0.35949 0.432 0.24461 0.0
C1632 C 0.3551 0.34092 0.28337 0.0
C1633 C 0.3326 0.33591 0.26158 0.0
C1634 C 0.37632 0.36105 0.2809 0.0
C1635 C 0.37484 0.37683 0.25721 0.0
C1636 C 0.35181 0.37261 0.23654 0.0
H1637 H 0.43941 0.42462 0.11284 0.0
H1638 H 0.42477 0.40357 0.15636 0.0
C1639 C 0.33099 0.3523 0.23858 0.0
C1640 C 0.3981 0.3951 0.25046 0.0
H1641 H 0.41281 0.45537 0.22664 0.0
C1642 C 0.41844 0.38428 0.23931 0.0
C1643 C 0.39745 0.42172 0.2481 0.0
C1644 C 0.3772 0.43485 0.26171 0.0
C1645 C 0.436 0.39836 0.22224 0.0
C1646 C 0.43285 0.42366 0.21609 0.0
C1647 C 0.41483 0.43571 0.23077 0.0
C1648 C 0.44437 0.43579 0.19058 0.0
C1649 C 0.45657 0.38536 0.20913 0.0
C1650 C 0.4599 0.46109 0.19533 0.0
C1651 C 0.46824 0.47325 0.17037 0.0
C1652 C 0.46081 0.46042 0.14028 0.0
C1653 C 0.44545 0.43501 0.1357 0.0
C1654 C 0.43731 0.42285 0.1606 0.0
H1655 H 0.46286 0.37135 0.2242 0.0
H1656 H 0.44818 0.3741 0.18649 0.0
H1657 H 0.47403 0.40002 0.20597 0.0
H1658 H 0.46526 0.47153 0.21825 0.0
H1659 H 0.48009 0.49285 0.17462 0.0
H1660 H 0.78978 0.72152 0.63865 0.0
H1661 H 0.8108 0.69624 0.60239 0.0
H1662 H 0.82574 0.64578 0.67061 0.0
H1663 H 0.80379 0.67018 0.70636 0.0
H1664 H 0.85878 0.6902 0.60424 0.0
H1665 H 0.7977 0.59184 0.59935 0.0
H1666 H 0.78811 0.62081 0.61673 0.0
H1667 H 0.80986 0.60439 0.63844 0.0
C1668 C 0.79724 0.7048 0.64575 0.0
C1669 C 0.79498 0.69774 0.67532 0.0
C1670 C 0.80925 0.69037 0.625 0.0
C1671 C 0.8194 0.66873 0.63347 0.0
C1672 C 0.81727 0.66179 0.66307 0.0
H1673 H 0.95122 0.61087 0.58602 0.0
H1674 H 0.91988 0.63782 0.59922 0.0
C1675 C 0.80489 0.67591 0.68363 0.0
C1676 C 0.83388 0.65451 0.61237 0.0
H1677 H 0.84211 0.59308 0.58709 0.0
C1678 C 0.85479 0.66896 0.59999 0.0
C1679 C 0.82831 0.62684 0.60587 0.0
C1680 C 0.80456 0.61016 0.61552 0.0
C1681 C 0.87136 0.65643 0.58323 0.0
C1682 C 0.8675 0.62873 0.57973 0.0
C1683 C 0.84547 0.61433 0.59018 0.0
C1684 C 0.88724 0.61432 0.5682 0.0
C1685 C 0.89295 0.67313 0.56981 0.0
C1686 C 0.87948 0.59192 0.54642 0.0
C1687 C 0.89724 0.5758 0.53965 0.0
C1688 C 0.92319 0.58185 0.55444 0.0
C1689 C 0.93128 0.60522 0.5747 0.0
C1690 C 0.91343 0.62103 0.58185 0.0
H1691 H 0.88662 0.69097 0.56263 0.0
H1692 H 0.91021 0.67973 0.58755 0.0
H1693 H 0.89898 0.66226 0.54972 0.0
H1694 H 0.85936 0.58628 0.53561 0.0
H1695 H 0.89015 0.55791 0.52409 0.0
H1696 H 0.33041 0.75495 0.70201 0.0
H1697 H 0.36408 0.77001 0.66981 0.0
H1698 H 0.3752 0.84837 0.71708 0.0
H1699 H 0.34125 0.8337 0.74887 0.0
H1700 H 0.35333 0.81257 0.634 0.0
H1701 H 0.4512 0.83573 0.70301 0.0
H1702 H 0.42445 0.81138 0.71147 0.0
H1703 H 0.42562 0.84563 0.72285 0.0
C1704 C 0.34056 0.77524 0.70613 0.0
C1705 C 0.33297 0.79328 0.72765 0.0
C1706 C 0.3598 0.78374 0.68776 0.0
C1707 C 0.37215 0.8102 0.69128 0.0
C1708 C 0.36609 0.82778 0.71437 0.0
H1709 H 0.44512 0.94058 0.62413 0.0
H1710 H 0.42641 0.90403 0.65014 0.0
C1711 C 0.34655 0.81943 0.73232 0.0
C1712 C 0.3875 0.8208 0.66771 0.0
H1713 H 0.44543 0.86022 0.66043 0.0
C1714 C 0.37371 0.82243 0.63926 0.0
C1715 C 0.414 0.83343 0.67481 0.0
C1716 C 0.42981 0.8313 0.70461 0.0
C1717 C 0.38494 0.83875 0.61897 0.0
C1718 C 0.41086 0.85313 0.62719 0.0
C1719 C 0.42543 0.84942 0.65436 0.0
C1720 C 0.4219 0.8748 0.61048 0.0
C1721 C 0.36818 0.84215 0.5903 0.0
C1722 C 0.42522 0.87053 0.5794 0.0
C1723 C 0.4354 0.89158 0.56428 0.0
C1724 C 0.44289 0.91702 0.58026 0.0
C1725 C 0.43952 0.92117 0.6113 0.0
C1726 C 0.429 0.90029 0.62621 0.0
H1727 H 0.3472 0.83314 0.59023 0.0
H1728 H 0.36964 0.86325 0.58783 0.0
H1729 H 0.37518 0.83262 0.57 0.0
H1730 H 0.42029 0.85096 0.56698 0.0
H1731 H 0.43814 0.88783 0.5404 0.0
H1732 H 0.18164 0.25606 0.64394 0.0
H1733 H 0.15579 0.27544 0.60634 0.0
H1734 H 0.20251 0.35196 0.63958 0.0
H1735 H 0.22825 0.33291 0.67737 0.0
H1736 H 0.12825 0.31648 0.62754 0.0
H1737 H 0.19532 0.34771 0.5432 0.0
H1738 H 0.19964 0.32199 0.56644 0.0
H1739 H 0.20924 0.35576 0.58276 0.0
C1740 C 0.18671 0.27695 0.64292 0.0
C1741 C 0.20689 0.29296 0.66384 0.0
C1742 C 0.17197 0.28796 0.62136 0.0
C1743 C 0.17748 0.31506 0.61993 0.0
C1744 C 0.19825 0.33093 0.63994 0.0
H1745 H 0.11223 0.43936 0.55858 0.0
H1746 H 0.14046 0.40855 0.57061 0.0
C1747 C 0.21278 0.32002 0.66173 0.0
C1748 C 0.15951 0.32735 0.60065 0.0
H1749 H 0.15711 0.36665 0.54386 0.0
C1750 C 0.13431 0.32706 0.60884 0.0
C1751 C 0.16768 0.34128 0.57652 0.0
C1752 C 0.19438 0.34162 0.56644 0.0
C1753 C 0.1175 0.34155 0.59475 0.0
C1754 C 0.1258 0.35604 0.57096 0.0
C1755 C 0.15069 0.35547 0.56193 0.0
C1756 C 0.10994 0.37393 0.55769 0.0
C1757 C 0.09171 0.34251 0.60696 0.0
C1758 C 0.08377 0.36469 0.5447 0.0
C1759 C 0.06734 0.38232 0.53868 0.0
C1760 C 0.07696 0.40954 0.54493 0.0
C1761 C 0.10391 0.41858 0.55468 0.0
C1762 C 0.1202 0.40095 0.56116 0.0
H1763 H 0.09118 0.33538 0.62972 0.0
H1764 H 0.08792 0.36278 0.60915 0.0
H1765 H 0.07555 0.32977 0.59091 0.0
H1766 H 0.07565 0.34386 0.54087 0.0
H1767 H 0.04678 0.37456 0.5309 0.0
H1768 H 0.64176 0.21932 0.71684 0.0
H1769 H 0.61209 0.19053 0.67591 0.0
H1770 H 0.66161 0.21862 0.60955 0.0
H1771 H 0.69175 0.24732 0.65044 0.0
H1772 H 0.58439 0.19158 0.6161 0.0
H1773 H 0.66975 0.14163 0.61295 0.0
H1774 H 0.66866 0.1674 0.64294 0.0
H1775 H 0.6748 0.17519 0.60545 0.0
C1776 C 0.64599 0.22008 0.69347 0.0
C1777 C 0.66958 0.23504 0.68707 0.0
C1778 C 0.62893 0.2036 0.67004 0.0
C1779 C 0.63508 0.20192 0.63987 0.0
C1780 C 0.65683 0.21925 0.63282 0.0
H1781 H 0.53887 0.07064 0.5101 0.0
H1782 H 0.56575 0.1142 0.52774 0.0
C1783 C 0.67401 0.23568 0.65627 0.0
C1784 C 0.62144 0.17912 0.61761 0.0
H1785 H 0.62969 0.11909 0.58631 0.0
C1786 C 0.59434 0.17594 0.60895 0.0
C1787 C 0.63451 0.15865 0.60864 0.0
C1788 C 0.66349 0.16064 0.61803 0.0
C1789 C 0.57977 0.15235 0.59264 0.0
C1790 C 0.5927 0.13154 0.58492 0.0
C1791 C 0.61994 0.13518 0.59226 0.0
C1792 C 0.57795 0.10487 0.57283 0.0
C1793 C 0.55044 0.14917 0.58536 0.0
C1794 C 0.57652 0.08506 0.59201 0.0
C1795 C 0.56133 0.06017 0.58187 0.0
C1796 C 0.54754 0.05454 0.5522 0.0
C1797 C 0.54969 0.0742 0.53273 0.0
C1798 C 0.56476 0.0992 0.54294 0.0
H1799 H 0.5431 0.16641 0.59532 0.0
H1800 H 0.54502 0.14651 0.56014 0.0
H1801 H 0.5404 0.13139 0.59421 0.0
H1802 H 0.58663 0.08909 0.61516 0.0
H1803 H 0.56009 0.04545 0.59743 0.0
H1804 H 0.79025 0.36032 0.31809 0.0
H1805 H 0.81714 0.38847 0.36152 0.0
H1806 H 0.78859 0.33364 0.4224 0.0
H1807 H 0.76192 0.30486 0.3788 0.0
H1808 H 0.81287 0.41276 0.42028 0.0
H1809 H 0.86618 0.32978 0.42505 0.0
H1810 H 0.84109 0.33004 0.39396 0.0
H1811 H 0.83225 0.32389 0.43106 0.0
C1812 C 0.78913 0.35446 0.34076 0.0
C1813 C 0.77456 0.32997 0.34485 0.0
C1814 C 0.80445 0.37068 0.36564 0.0
C1815 C 0.80535 0.36279 0.39503 0.0
C1816 C 0.78859 0.33977 0.39977 0.0
H1817 H 0.94075 0.4687 0.50901 0.0
H1818 H 0.89734 0.43982 0.50126 0.0
C1819 C 0.77338 0.32337 0.3748 0.0
C1820 C 0.82694 0.37656 0.41875 0.0
H1821 H 0.88834 0.37097 0.44822 0.0
C1822 C 0.82911 0.40355 0.4273 0.0
C1823 C 0.84806 0.36437 0.42782 0.0
C1824 C 0.84702 0.33547 0.41899 0.0
C1825 C 0.85274 0.41911 0.4422 0.0
C1826 C 0.87451 0.40721 0.44879 0.0
C1827 C 0.87153 0.37991 0.44296 0.0
C1828 C 0.90142 0.42293 0.45567 0.0
C1829 C 0.85502 0.44842 0.44829 0.0
C1830 C 0.91824 0.42245 0.43298 0.0
C1831 C 0.943 0.43864 0.43751 0.0
C1832 C 0.95148 0.45548 0.46496 0.0
C1833 C 0.93491 0.45545 0.48801 0.0
C1834 C 0.91002 0.43923 0.48345 0.0
H1835 H 0.8366 0.4547 0.44017 0.0
H1836 H 0.85986 0.45488 0.47327 0.0
H1837 H 0.87115 0.45852 0.43678 0.0
H1838 H 0.91188 0.41001 0.41133 0.0
H1839 H 0.95536 0.43825 0.41935 0.0
H1840 H 0.72311 0.83611 0.32241 0.0
H1841 H 0.69889 0.85771 0.35763 0.0
H1842 H 0.67103 0.78423 0.39061 0.0
H1843 H 0.69551 0.76203 0.35488 0.0
H1844 H 0.63136 0.81222 0.37503 0.0
H1845 H 0.71343 0.87729 0.45057 0.0
H1846 H 0.71751 0.8789 0.41103 0.0
H1847 H 0.71765 0.8485 0.42672 0.0
C1848 C 0.71201 0.82438 0.33719 0.0
C1849 C 0.71125 0.79724 0.33569 0.0
C1850 C 0.69837 0.83691 0.35762 0.0
C1851 C 0.68361 0.82274 0.37724 0.0
C1852 C 0.68262 0.7956 0.37594 0.0
H1853 H 0.60371 0.92827 0.48686 0.0
H1854 H 0.6283 0.89319 0.47723 0.0
C1855 C 0.69655 0.78295 0.35549 0.0
C1856 C 0.66775 0.83647 0.39693 0.0
H1857 H 0.67252 0.89351 0.4443 0.0
C1858 C 0.64033 0.82958 0.39087 0.0
C1859 C 0.67937 0.85885 0.41807 0.0
C1860 C 0.70862 0.86614 0.42724 0.0
C1861 C 0.6244 0.84592 0.40302 0.0
C1862 C 0.63625 0.86986 0.42127 0.0
C1863 C 0.66347 0.87539 0.42984 0.0
C1864 C 0.62126 0.89082 0.42786 0.0
C1865 C 0.59505 0.83805 0.395 0.0
C1866 C 0.60994 0.90167 0.40339 0.0
C1867 C 0.59615 0.92176 0.40875 0.0
C1868 C 0.59318 0.9315 0.4388 0.0
C1869 C 0.60534 0.92117 0.46342 0.0
C1870 C 0.61931 0.90101 0.45799 0.0
H1871 H 0.58875 0.81641 0.39 0.0
H1872 H 0.58473 0.84527 0.41387 0.0
H1873 H 0.58897 0.84666 0.37417 0.0
H1874 H 0.61198 0.89472 0.37998 0.0
H1875 H 0.58796 0.92976 0.38919 0.0
H1876 H 0.23534 0.66858 0.31081 0.0
H1877 H 0.21044 0.6295 0.32762 0.0
H1878 H 0.15547 0.61821 0.2452 0.0
H1879 H 0.17957 0.65816 0.2293 0.0
H1880 H 0.13183 0.62478 0.29262 0.0
H1881 H 0.19254 0.55147 0.31484 0.0
H1882 H 0.20935 0.58325 0.33278 0.0
H1883 H 0.20207 0.57718 0.29161 0.0
C1884 C 0.21845 0.6572 0.29587 0.0
C1885 C 0.20899 0.66647 0.26913 0.0
C1886 C 0.20434 0.63469 0.30532 0.0
C1887 C 0.18103 0.62083 0.28767 0.0
C1888 C 0.17331 0.62863 0.25925 0.0
H1889 H 0.05191 0.52358 0.36073 0.0
H1890 H 0.08141 0.53956 0.32435 0.0
C1891 C 0.18699 0.65146 0.25023 0.0
C1892 C 0.16205 0.60253 0.30177 0.0
H1893 H 0.15691 0.55289 0.34651 0.0
C1894 C 0.13712 0.60858 0.30363 0.0
C1895 C 0.16892 0.58148 0.31633 0.0
C1896 C 0.19461 0.57283 0.31348 0.0
C1897 C 0.11956 0.59532 0.32116 0.0
C1898 C 0.12708 0.57544 0.33722 0.0
C1899 C 0.1514 0.56837 0.33427 0.0
C1900 C 0.11064 0.56354 0.3591 0.0
C1901 C 0.09365 0.60365 0.32389 0.0
C1902 C 0.11754 0.57174 0.39055 0.0
C1903 C 0.10067 0.5629 0.41136 0.0
C1904 C 0.07672 0.54562 0.40094 0.0
C1905 C 0.07017 0.537 0.36941 0.0
C1906 C 0.08702 0.54594 0.34863 0.0
H1907 H 0.09181 0.62107 0.31207 0.0
H1908 H 0.07738 0.5873 0.31368 0.0
H1909 H 0.09128 0.60829 0.3484 0.0
H1910 H 0.13565 0.58553 0.3989 0.0
H1911 H 0.10632 0.56973 0.43553 0.0
H1912 H 0.32596 0.25018 0.36625 0.0
H1913 H 0.35059 0.22903 0.40319 0.0
H1914 H 0.31341 0.15313 0.35525 0.0
H1915 H 0.28874 0.17388 0.31839 0.0
H1916 H 0.31764 0.15861 0.42332 0.0
H1917 H 0.41134 0.19257 0.3766 0.0
H1918 H 0.39243 0.21663 0.38781 0.0
H1919 H 0.37986 0.19233 0.35542 0.0
C1920 C 0.32287 0.22898 0.3637 0.0
C1921 C 0.30556 0.21375 0.33914 0.0
C1922 C 0.33696 0.21696 0.38482 0.0
C1923 C 0.33389 0.18956 0.38177 0.0
C1924 C 0.316 0.17432 0.35798 0.0
H1925 H 0.39256 0.05965 0.43281 0.0
H1926 H 0.36548 0.09161 0.42133 0.0
C1927 C 0.30203 0.18625 0.33683 0.0
C1928 C 0.35038 0.17651 0.40192 0.0
H1929 H 0.41175 0.16291 0.41256 0.0
C1930 C 0.33833 0.15982 0.4214 0.0
C1931 C 0.37737 0.17835 0.39952 0.0
C1932 C 0.39115 0.1958 0.37865 0.0
C1933 C 0.35242 0.14412 0.4377 0.0
C1934 C 0.37898 0.14468 0.43369 0.0
C1935 C 0.39135 0.16246 0.41554 0.0
C1936 C 0.3936 0.12516 0.44512 0.0
C1937 C 0.33865 0.12682 0.45868 0.0
C1938 C 0.41841 0.13333 0.46236 0.0
C1939 C 0.43413 0.11511 0.46849 0.0
C1940 C 0.42536 0.0884 0.45731 0.0
C1941 C 0.39998 0.08013 0.44139 0.0
C1942 C 0.38432 0.09835 0.43522 0.0
H1943 H 0.32249 0.13521 0.46767 0.0
H1944 H 0.32989 0.10734 0.44562 0.0
H1945 H 0.35246 0.12399 0.47832 0.0
H1946 H 0.42603 0.15395 0.47 0.0
H1947 H 0.45366 0.12217 0.4806 0.0
H1948 H 0.73314 0.79253 0.63796 0.0
H1949 H 0.70979 0.81439 0.60066 0.0
H1950 H 0.65387 0.82537 0.6636 0.0
H1951 H 0.67641 0.80291 0.70034 0.0
H1952 H 0.63011 0.80851 0.60644 0.0
H1953 H 0.7125 0.89234 0.60492 0.0
H1954 H 0.71902 0.86032 0.59416 0.0
H1955 H 0.71325 0.86957 0.63275 0.0
C1956 C 0.71584 0.7996 0.64379 0.0
C1957 C 0.70667 0.79606 0.67216 0.0
C1958 C 0.70262 0.8122 0.62252 0.0
C1959 C 0.68032 0.82185 0.62953 0.0
C1960 C 0.67104 0.81806 0.65769 0.0
H1961 H 0.60725 0.9446 0.5905 0.0
H1962 H 0.63698 0.91548 0.60302 0.0
C1963 C 0.68398 0.80523 0.67871 0.0
C1964 C 0.66636 0.8361 0.60805 0.0
H1965 H 0.67229 0.89348 0.57673 0.0
C1966 C 0.63935 0.82695 0.59957 0.0
C1967 C 0.67856 0.8601 0.59913 0.0
C1968 C 0.70737 0.87136 0.60833 0.0
C1969 C 0.62381 0.84195 0.5843 0.0
C1970 C 0.63585 0.8664 0.57622 0.0
C1971 C 0.66316 0.87471 0.58287 0.0
C1972 C 0.62012 0.88525 0.5653 0.0
C1973 C 0.59444 0.83229 0.57908 0.0
C1974 C 0.60139 0.87845 0.53919 0.0
C1975 C 0.58367 0.89473 0.53257 0.0
C1976 C 0.58486 0.91841 0.55152 0.0
C1977 C 0.60518 0.92614 0.57601 0.0
C1978 C 0.62247 0.90965 0.58295 0.0
H1979 H 0.5881 0.81579 0.59225 0.0
H1980 H 0.58407 0.84831 0.58575 0.0
H1981 H 0.58821 0.8252 0.55442 0.0
H1982 H 0.59974 0.86008 0.52468 0.0
H1983 H 0.56838 0.88815 0.51342 0.0
H1984 H 0.63805 0.20525 0.25409 0.0
H1985 H 0.60367 0.18502 0.28244 0.0
H1986 H 0.63526 0.24178 0.36156 0.0
H1987 H 0.67001 0.2616 0.33359 0.0
H1988 H 0.64161 0.19203 0.36837 0.0
H1989 H 0.53818 0.19035 0.32467 0.0
H1990 H 0.5575 0.18341 0.29471 0.0
H1991 H 0.56499 0.21514 0.31727 0.0
C1992 C 0.63693 0.21409 0.27706 0.0
C1993 C 0.65699 0.23442 0.29206 0.0
C1994 C 0.61712 0.20267 0.29318 0.0
C1995 C 0.61706 0.2118 0.32419 0.0
C1996 C 0.63502 0.23443 0.33768 0.0
H1997 H 0.5687 0.10791 0.4598 0.0
H1998 H 0.58408 0.14762 0.43701 0.0
C1999 C 0.65498 0.24557 0.32178 0.0
C2000 C 0.60417 0.19385 0.34413 0.0
H2001 H 0.54632 0.15447 0.3523 0.0
C2002 C 0.62067 0.18426 0.3654 0.0
C2003 C 0.57696 0.18356 0.33986 0.0
C2004 C 0.55834 0.19383 0.31808 0.0
C2005 C 0.611 0.16353 0.3812 0.0
C2006 C 0.5839 0.15255 0.3762 0.0
C2007 C 0.56712 0.16292 0.35597 0.0
C2008 C 0.57306 0.12915 0.39017 0.0
C2009 C 0.63021 0.15255 0.40159 0.0
C2010 C 0.56126 0.10581 0.37135 0.0
C2011 C 0.55222 0.08317 0.38428 0.0
C2012 C 0.55501 0.08352 0.41624 0.0
C2013 C 0.56673 0.10696 0.43506 0.0
C2014 C 0.57544 0.12967 0.42211 0.0
H2015 H 0.65076 0.15915 0.39717 0.0
H2016 H 0.62898 0.15936 0.4259 0.0
H2017 H 0.6256 0.13079 0.39827 0.0
H2018 H 0.55935 0.10504 0.34663 0.0
H2019 H 0.5431 0.0654 0.36928 0.0
H2020 H 0.85603 0.72863 0.3199 0.0
H2021 H 0.88032 0.70506 0.35392 0.0
H2022 H 0.81254 0.68512 0.40069 0.0
H2023 H 0.78783 0.70862 0.36663 0.0
H2024 H 0.86949 0.70382 0.43878 0.0
H2025 H 0.85477 0.62037 0.34557 0.0
H2026 H 0.86535 0.65266 0.33519 0.0
H2027 H 0.83343 0.64387 0.34695 0.0
C2028 C 0.84628 0.71954 0.33761 0.0
C2029 C 0.81983 0.72035 0.34027 0.0
C2030 C 0.86025 0.70612 0.35708 0.0
C2031 C 0.84817 0.69333 0.3797 0.0
C2032 C 0.82219 0.69496 0.38339 0.0
H2033 H 0.90848 0.567 0.45671 0.0
H2034 H 0.87864 0.59578 0.44214 0.0
C2035 C 0.8081 0.70831 0.36381 0.0
C2036 C 0.86209 0.67644 0.39751 0.0
H2037 H 0.88396 0.61889 0.38946 0.0
C2038 C 0.87254 0.68515 0.42819 0.0
C2039 C 0.86567 0.65198 0.38369 0.0
C2040 C 0.85411 0.64144 0.3511 0.0
C2041 C 0.8873 0.67025 0.4451 0.0
C2042 C 0.89181 0.64628 0.43078 0.0
C2043 C 0.88056 0.63729 0.40043 0.0
C2044 C 0.90906 0.63052 0.44594 0.0
C2045 C 0.89788 0.68019 0.47808 0.0
C2046 C 0.936 0.64068 0.45398 0.0
C2047 C 0.95315 0.62421 0.4623 0.0
C2048 C 0.94365 0.59727 0.4624 0.0
C2049 C 0.91645 0.58758 0.45639 0.0
C2050 C 0.89935 0.60403 0.44819 0.0
H2051 H 0.88674 0.69443 0.4881 0.0
H2052 H 0.89716 0.66375 0.49214 0.0
H2053 H 0.91864 0.69028 0.47938 0.0
H2054 H 0.94401 0.66095 0.45193 0.0
H2055 H 0.974 0.63223 0.46662 0.0
H2056 H 0.33778 0.75144 0.32653 0.0
H2057 H 0.37548 0.76936 0.3657 0.0
H2058 H 0.336 0.83053 0.39803 0.0
H2059 H 0.29863 0.81264 0.35998 0.0
H2060 H 0.40466 0.81476 0.36407 0.0
H2061 H 0.37245 0.82028 0.47761 0.0
H2062 H 0.35347 0.79808 0.44568 0.0
H2063 H 0.34838 0.83131 0.45319 0.0
C2064 C 0.33691 0.76822 0.34267 0.0
C2065 C 0.31545 0.78093 0.3398 0.0
C2066 C 0.35841 0.77839 0.36509 0.0
C2067 C 0.35856 0.80116 0.38515 0.0
C2068 C 0.33626 0.81258 0.38355 0.0
H2069 H 0.44315 0.94658 0.40477 0.0
H2070 H 0.42026 0.90093 0.39239 0.0
C2071 C 0.31496 0.80254 0.36128 0.0
C2072 C 0.38319 0.81648 0.4031 0.0
H2073 H 0.40177 0.86162 0.46672 0.0
C2074 C 0.40446 0.82429 0.387 0.0
C2075 C 0.38373 0.82843 0.43346 0.0
C2076 C 0.36333 0.81875 0.45349 0.0
C2077 C 0.42398 0.84629 0.39856 0.0
C2078 C 0.42174 0.86106 0.42646 0.0
C2079 C 0.40285 0.85092 0.44466 0.0
C2080 C 0.43597 0.88857 0.43452 0.0
C2081 C 0.44585 0.85448 0.37979 0.0
C2082 C 0.4516 0.897 0.46278 0.0
C2083 C 0.46447 0.92321 0.46996 0.0
C2084 C 0.46158 0.94142 0.44927 0.0
C2085 C 0.44567 0.93298 0.42118 0.0
C2086 C 0.43282 0.90686 0.414 0.0
H2087 H 0.45079 0.83711 0.36671 0.0
H2088 H 0.43938 0.86704 0.36297 0.0
H2089 H 0.46378 0.86567 0.39443 0.0
H2090 H 0.4542 0.88327 0.47901 0.0
H2091 H 0.47732 0.92901 0.49126 0.0
H2092 H 0.2512 0.32112 0.36926 0.0
H2093 H 0.23031 0.34573 0.40653 0.0
H2094 H 0.15502 0.31623 0.35279 0.0
H2095 H 0.17552 0.29184 0.31547 0.0
H2096 H 0.1696 0.37179 0.36619 0.0
H2097 H 0.18004 0.3218 0.47065 0.0
H2098 H 0.20886 0.33044 0.45203 0.0
H2099 H 0.18186 0.30594 0.43282 0.0
C2100 C 0.23015 0.31963 0.36555 0.0
C2101 C 0.21508 0.30466 0.3392 0.0
C2102 C 0.21825 0.33355 0.387 0.0
C2103 C 0.19111 0.33257 0.38252 0.0
C2104 C 0.17598 0.31712 0.35671 0.0
H2105 H 0.0722 0.39207 0.46888 0.0
H2106 H 0.10239 0.36432 0.45222 0.0
C2107 C 0.1878 0.30328 0.33533 0.0
C2108 C 0.17857 0.34954 0.40276 0.0
H2109 H 0.16005 0.35891 0.47434 0.0
C2110 C 0.16765 0.36908 0.38989 0.0
C2111 C 0.17608 0.34585 0.43363 0.0
C2112 C 0.18715 0.32479 0.44823 0.0
C2113 C 0.1539 0.38481 0.40684 0.0
C2114 C 0.15124 0.38108 0.43763 0.0
C2115 C 0.16237 0.36175 0.45077 0.0
C2116 C 0.13556 0.39642 0.45542 0.0
C2117 C 0.14168 0.40489 0.39143 0.0
C2118 C 0.14468 0.42336 0.46413 0.0
C2119 C 0.12748 0.43926 0.47336 0.0
C2120 C 0.10087 0.4284 0.47397 0.0
C2121 C 0.09246 0.40103 0.46801 0.0
C2122 C 0.10972 0.38513 0.45881 0.0
H2123 H 0.14228 0.40261 0.36628 0.0
H2124 H 0.12095 0.40336 0.39576 0.0
H2125 H 0.15246 0.42486 0.40111 0.0
H2126 H 0.1646 0.43235 0.46161 0.0
H2127 H 0.13459 0.46026 0.47765 0.0
H2128 H 0.33395 0.24044 0.66892 0.0
H2129 H 0.35664 0.21521 0.6347 0.0
H2130 H 0.29068 0.15034 0.62283 0.0
H2131 H 0.26741 0.17606 0.65562 0.0
H2132 H 0.37324 0.17467 0.64663 0.0
H2133 H 0.3078 0.14531 0.5378 0.0
H2134 H 0.30255 0.17035 0.56649 0.0
H2135 H 0.29021 0.13616 0.56888 0.0
C2136 C 0.32405 0.22103 0.65836 0.0
C2137 C 0.29894 0.21019 0.66499 0.0
C2138 C 0.33702 0.20661 0.63877 0.0
C2139 C 0.32536 0.18087 0.62581 0.0
C2140 C 0.29988 0.17037 0.63165 0.0
H2141 H 0.40411 0.05395 0.60512 0.0
H2142 H 0.37951 0.0879 0.61871 0.0
C2143 C 0.28665 0.18503 0.65069 0.0
C2144 C 0.34114 0.16389 0.60999 0.0
H2145 H 0.33846 0.11665 0.54947 0.0
C2146 C 0.36573 0.16242 0.62507 0.0
C2147 C 0.33179 0.14809 0.58154 0.0
C2148 C 0.30677 0.15031 0.56263 0.0
C2149 C 0.38047 0.14469 0.6135 0.0
C2150 C 0.36996 0.12719 0.58668 0.0
C2151 C 0.34619 0.12966 0.57046 0.0
C2152 C 0.38273 0.10523 0.5766 0.0
C2153 C 0.40707 0.14469 0.63045 0.0
C2154 C 0.39147 0.10281 0.54767 0.0
C2155 C 0.4054 0.08314 0.53972 0.0
C2156 C 0.41084 0.06575 0.56062 0.0
C2157 C 0.40083 0.06748 0.58886 0.0
C2158 C 0.38679 0.08689 0.59666 0.0
H2159 H 0.41578 0.16417 0.64361 0.0
H2160 H 0.40494 0.13015 0.64703 0.0
H2161 H 0.42085 0.1394 0.6145 0.0
H2162 H 0.38827 0.11658 0.53169 0.0
H2163 H 0.4127 0.08213 0.51775 0.0
H2164 H 0.81493 0.35811 0.78166 0.0
H2165 H 0.84484 0.39199 0.76148 0.0
H2166 H 0.80264 0.36744 0.67094 0.0
H2167 H 0.77264 0.33383 0.6908 0.0
H2168 H 0.87523 0.37578 0.71873 0.0
H2169 H 0.81996 0.44681 0.67292 0.0
H2170 H 0.80822 0.42613 0.70083 0.0
H2171 H 0.80348 0.41353 0.66077 0.0
C2172 C 0.81152 0.36045 0.75762 0.0
C2173 C 0.7917 0.34296 0.7377 0.0
C2174 C 0.82863 0.37984 0.74616 0.0
C2175 C 0.82592 0.38225 0.71475 0.0
C2176 C 0.80486 0.36622 0.69533 0.0
H2177 H 0.91398 0.42777 0.57222 0.0
H2178 H 0.8826 0.41032 0.60588 0.0
C2179 C 0.78786 0.3468 0.7067 0.0
C2180 C 0.84733 0.3979 0.70121 0.0
H2181 H 0.85932 0.44208 0.65039 0.0
C2182 C 0.87197 0.39073 0.70435 0.0
C2183 C 0.84292 0.41722 0.6823 0.0
C2184 C 0.81727 0.42657 0.67923 0.0
C2185 C 0.89185 0.40125 0.68767 0.0
C2186 C 0.88701 0.41968 0.66772 0.0
C2187 C 0.86281 0.42775 0.66558 0.0
C2188 C 0.9064 0.42984 0.64777 0.0
C2189 C 0.91736 0.39156 0.69019 0.0
C2190 C 0.9302 0.44635 0.66033 0.0
C2191 C 0.94819 0.45629 0.64121 0.0
C2192 C 0.94259 0.44989 0.60923 0.0
C2193 C 0.91888 0.43299 0.59677 0.0
C2194 C 0.90088 0.42313 0.61591 0.0
H2195 H 0.91632 0.37416 0.70274 0.0
H2196 H 0.92283 0.38638 0.66706 0.0
H2197 H 0.9332 0.40738 0.70264 0.0
H2198 H 0.93467 0.45186 0.68487 0.0
H2199 H 0.96627 0.46932 0.65145 0.0
H2200 H 0.25701 0.68489 0.67302 0.0
H2201 H 0.23969 0.65215 0.62772 0.0
H2202 H 0.16183 0.64643 0.65376 0.0
H2203 H 0.17867 0.67878 0.69827 0.0
H2204 H 0.20272 0.59691 0.62354 0.0
H2205 H 0.16104 0.67006 0.56355 0.0
H2206 H 0.18943 0.6788 0.59243 0.0
H2207 H 0.15687 0.67337 0.60346 0.0
C2208 C 0.23629 0.67621 0.66923 0.0
C2209 C 0.21907 0.68456 0.68885 0.0
C2210 C 0.22647 0.65771 0.64336 0.0
C2211 C 0.19946 0.64747 0.6372 0.0
C2212 C 0.18268 0.65459 0.65788 0.0
H2213 H 0.0761 0.53874 0.60055 0.0
H2214 H 0.12061 0.5639 0.6105 0.0
C2215 C 0.19233 0.67301 0.68333 0.0
C2216 C 0.18753 0.62984 0.60906 0.0
H2217 H 0.13402 0.62568 0.5567 0.0
C2218 C 0.18838 0.60316 0.60791 0.0
C2219 C 0.16955 0.63806 0.58789 0.0
C2220 C 0.16935 0.66671 0.58663 0.0
C2221 C 0.16889 0.58428 0.58941 0.0
C2222 C 0.14783 0.59249 0.57282 0.0
C2223 C 0.14965 0.61923 0.57012 0.0
C2224 C 0.12171 0.57501 0.56472 0.0
C2225 C 0.16992 0.5557 0.58974 0.0
C2226 C 0.10684 0.57378 0.53606 0.0
C2227 C 0.08088 0.55983 0.53058 0.0
C2228 C 0.06944 0.54697 0.55363 0.0
C2229 C 0.08432 0.54841 0.58226 0.0
C2230 C 0.11006 0.56235 0.58777 0.0
H2231 H 0.19049 0.55284 0.5903 0.0
H2232 H 0.16258 0.54902 0.6108 0.0
H2233 H 0.1579 0.54333 0.56941 0.0
H2234 H 0.11516 0.58392 0.51816 0.0
H2235 H 0.06965 0.55934 0.50853 0.0
loop_
_geom_bond_atom_site_label_1
_geom_bond_atom_site_label_2
_geom_bond_distance
_geom_bond_site_symmetry_2
_ccdc_geom_bond_type
O0 Zn1 1.953 . S
O0 C16 1.225 . S
Zn1 O0 1.953 . S
Zn1 O2 1.949 . S
Zn1 O8 1.919 . S
Zn1 O13 1.924 . S
O2 Zn1 1.949 . S
O2 Zn3 1.923 . S
O2 Zn4 1.950 . S
O2 Zn5 1.945 . S
Zn3 O2 1.923 . S
Zn3 O6 1.933 . S
Zn3 O9 1.941 . S
Zn3 O10 1.965 . S
Zn4 O2 1.950 . S
Zn4 O11 1.938 . S
Zn4 O12 1.906 . S
Zn4 O22 1.953 . S
Zn5 O2 1.945 . S
Zn5 O7 1.932 . S
Zn5 O14 1.977 . S
Zn5 O15 1.910 . S
O6 Zn3 1.933 . S
O6 C17 1.226 . S
O7 Zn5 1.932 . S
O7 C17 1.307 . S
O8 Zn1 1.919 . S
O8 C19 1.253 . S
O9 Zn3 1.941 . S
O9 C19 1.283 . S
O10 Zn3 1.965 . S
O10 C18 1.303 . S
O11 Zn4 1.938 . S
O11 C18 1.247 . S
O12 Zn4 1.906 . S
O12 C20 1.304 . S
O13 Zn1 1.924 . S
O13 C21 1.311 . S
O14 Zn5 1.977 . S
O14 C20 1.272 . S
O15 Zn5 1.910 . S
O15 C21 1.231 . S
C16 O0 1.225 . S
C16 O22 1.298 . S
C17 O6 1.226 . S
C17 O7 1.307 . S
C18 O10 1.303 . S
C18 O11 1.247 . S
C19 O8 1.253 . S
C19 O9 1.283 . S
C20 O12 1.304 . S
C20 O14 1.272 . S
C21 O13 1.311 . S
C21 O15 1.231 . S
O22 Zn4 1.953 . S
O22 C16 1.298 . S
O23 Zn24 1.953 . S
O23 C39 1.225 . S
Zn24 O23 1.953 . S
Zn24 O25 1.949 . S
Zn24 O31 1.919 . S
Zn24 O36 1.924 . S
O25 Zn24 1.949 . S
O25 Zn26 1.923 . S
O25 Zn27 1.950 . S
O25 Zn28 1.945 . S
Zn26 O25 1.923 . S
Zn26 O29 1.933 . S
Zn26 O32 1.941 . S
Zn26 O33 1.965 . S
Zn27 O25 1.950 . S
Zn27 O34 1.938 . S
Zn27 O35 1.906 . S
Zn27 O45 1.953 . S
Zn28 O25 1.945 . S
Zn28 O30 1.932 . S
Zn28 O37 1.977 . S
Zn28 O38 1.910 . S
O29 Zn26 1.933 . S
O29 C40 1.226 . S
O30 Zn28 1.932 . S
O30 C40 1.307 . S
O31 Zn24 1.919 . S
O31 C42 1.253 . S
O32 Zn26 1.941 . S
O32 C42 1.283 . S
O33 Zn26 1.965 . S
O33 C41 1.303 . S
O34 Zn27 1.938 . S
O34 C41 1.247 . S
O35 Zn27 1.906 . S
O35 C43 1.304 . S
O36 Zn24 1.924 . S
O36 C44 1.311 . S
O37 Zn28 1.977 . S
O37 C43 1.272 . S
O38 Zn28 1.910 . S
O38 C44 1.231 . S
C39 O23 1.225 . S
C39 O45 1.298 . S
C40 O29 1.226 . S
C40 O30 1.307 . S
C41 O33 1.303 . S
C41 O34 1.247 . S
C42 O31 1.253 . S
C42 O32 1.283 . S
C43 O35 1.304 . S
C43 O37 1.272 . S
C44 O36 1.311 . S
C44 O38 1.231 . S
O45 Zn27 1.953 . S
O45 C39 1.298 . S
O46 Zn47 1.953 . S
O46 C62 1.225 . S
Zn47 O46 1.953 . S
Zn47 O48 1.949 . S
Zn47 O54 1.919 . S
Zn47 O59 1.924 . S
O48 Zn47 1.949 . S
O48 Zn49 1.923 . S
O48 Zn50 1.950 . S
O48 Zn51 1.945 . S
Zn49 O48 1.923 . S
Zn49 O52 1.933 . S
Zn49 O55 1.941 . S
Zn49 O56 1.965 . S
Zn50 O48 1.950 . S
Zn50 O57 1.938 . S
Zn50 O58 1.906 . S
Zn50 O68 1.953 . S
Zn51 O48 1.945 . S
Zn51 O53 1.932 . S
Zn51 O60 1.977 . S
Zn51 O61 1.910 . S
O52 Zn49 1.933 . S
O52 C63 1.226 . S
O53 Zn51 1.932 . S
O53 C63 1.307 . S
O54 Zn47 1.919 . S
O54 C65 1.253 . S
O55 Zn49 1.941 . S
O55 C65 1.283 . S
O56 Zn49 1.965 . S
O56 C64 1.303 . S
O57 Zn50 1.938 . S
O57 C64 1.247 . S
O58 Zn50 1.906 . S
O58 C66 1.304 . S
O59 Zn47 1.924 . S
O59 C67 1.311 . S
O60 Zn51 1.977 . S
O60 C66 1.272 . S
O61 Zn51 1.910 . S
O61 C67 1.231 . S
C62 O46 1.225 . S
C62 O68 1.298 . S
C63 O52 1.226 . S
C63 O53 1.307 . S
C64 O56 1.303 . S
C64 O57 1.247 . S
C65 O54 1.253 . S
C65 O55 1.283 . S
C66 O58 1.304 . S
C66 O60 1.272 . S
C67 O59 1.311 . S
C67 O61 1.231 . S
O68 Zn50 1.953 . S
O68 C62 1.298 . S
O69 Zn70 1.953 . S
O69 C85 1.225 . S
Zn70 O69 1.953 . S
Zn70 O71 1.949 . S
Zn70 O77 1.919 . S
Zn70 O82 1.924 . S
O71 Zn70 1.949 . S
O71 Zn72 1.923 . S
O71 Zn73 1.950 . S
O71 Zn74 1.945 . S
Zn72 O71 1.923 . S
Zn72 O75 1.933 . S
Zn72 O78 1.941 . S
Zn72 O79 1.965 . S
Zn73 O71 1.950 . S
Zn73 O80 1.938 . S
Zn73 O81 1.906 . S
Zn73 O91 1.953 . S
Zn74 O71 1.945 . S
Zn74 O76 1.932 . S
Zn74 O83 1.977 . S
Zn74 O84 1.910 . S
O75 Zn72 1.933 . S
O75 C86 1.226 . S
O76 Zn74 1.932 . S
O76 C86 1.307 . S
O77 Zn70 1.919 . S
O77 C88 1.253 . S
O78 Zn72 1.941 . S
O78 C88 1.283 . S
O79 Zn72 1.965 . S
O79 C87 1.303 . S
O80 Zn73 1.938 . S
O80 C87 1.247 . S
O81 Zn73 1.906 . S
O81 C89 1.304 . S
O82 Zn70 1.924 . S
O82 C90 1.311 . S
O83 Zn74 1.977 . S
O83 C89 1.272 . S
O84 Zn74 1.910 . S
O84 C90 1.231 . S
C85 O69 1.225 . S
C85 O91 1.298 . S
C86 O75 1.226 . S
C86 O76 1.307 . S
C87 O79 1.303 . S
C87 O80 1.247 . S
C88 O77 1.253 . S
C88 O78 1.283 . S
C89 O81 1.304 . S
C89 O83 1.272 . S
C90 O82 1.311 . S
C90 O84 1.231 . S
O91 Zn73 1.953 . S
O91 C85 1.298 . S
O92 Zn93 1.953 . S
O92 C108 1.225 . S
Zn93 O92 1.953 . S
Zn93 O94 1.949 . S
Zn93 O100 1.919 . S
Zn93 O105 1.924 . S
O94 Zn93 1.949 . S
O94 Zn95 1.923 . S
O94 Zn96 1.950 . S
O94 Zn97 1.945 . S
Zn95 O94 1.923 . S
Zn95 O98 1.933 . S
Zn95 O101 1.941 . S
Zn95 O102 1.965 . S
Zn96 O94 1.950 . S
Zn96 O103 1.938 . S
Zn96 O104 1.906 . S
Zn96 O114 1.953 . S
Zn97 O94 1.945 . S
Zn97 O99 1.932 . S
Zn97 O106 1.977 . S
Zn97 O107 1.910 . S
O98 Zn95 1.933 . S
O98 C109 1.226 . S
O99 Zn97 1.932 . S
O99 C109 1.307 . S
O100 Zn93 1.919 . S
O100 C111 1.253 . S
O101 Zn95 1.941 . S
O101 C111 1.283 . S
O102 Zn95 1.965 . S
O102 C110 1.303 . S
O103 Zn96 1.938 . S
O103 C110 1.247 . S
O104 Zn96 1.906 . S
O104 C112 1.304 . S
O105 Zn93 1.924 . S
O105 C113 1.311 . S
O106 Zn97 1.977 . S
O106 C112 1.272 . S
O107 Zn97 1.910 . S
O107 C113 1.231 . S
C108 O92 1.225 . S
C108 O114 1.298 . S
C109 O98 1.226 . S
C109 O99 1.307 . S
C110 O102 1.303 . S
C110 O103 1.247 . S
C111 O100 1.253 . S
C111 O101 1.283 . S
C112 O104 1.304 . S
C112 O106 1.272 . S
C113 O105 1.311 . S
C113 O107 1.231 . S
O114 Zn96 1.953 . S
O114 C108 1.298 . S
O115 Zn116 1.953 . S
O115 C131 1.225 . S
Zn116 O115 1.953 . S
Zn116 O117 1.949 . S
Zn116 O123 1.919 . S
Zn116 O128 1.924 . S
O117 Zn116 1.949 . S
O117 Zn118 1.923 . S
O117 Zn119 1.950 . S
O117 Zn120 1.945 . S
Zn118 O117 1.923 . S
Zn118 O121 1.933 . S
Zn118 O124 1.941 . S
Zn118 O125 1.965 . S
Zn119 O117 1.950 . S
Zn119 O126 1.938 . S
Zn119 O127 1.906 . S
Zn119 O137 1.953 . S
Zn120 O117 1.945 . S
Zn120 O122 1.932 . S
Zn120 O129 1.977 . S
Zn120 O130 1.910 . S
O121 Zn118 1.933 . S
O121 C132 1.226 . S
O122 Zn120 1.932 . S
O122 C132 1.307 . S
O123 Zn116 1.919 . S
O123 C134 1.253 . S
O124 Zn118 1.941 . S
O124 C134 1.283 . S
O125 Zn118 1.965 . S
O125 C133 1.303 . S
O126 Zn119 1.938 . S
O126 C133 1.247 . S
O127 Zn119 1.906 . S
O127 C135 1.304 . S
O128 Zn116 1.924 . S
O128 C136 1.311 . S
O129 Zn120 1.977 . S
O129 C135 1.272 . S
O130 Zn120 1.910 . S
O130 C136 1.231 . S
C131 O115 1.225 . S
C131 O137 1.298 . S
C132 O121 1.226 . S
C132 O122 1.307 . S
C133 O125 1.303 . S
C133 O126 1.247 . S
C134 O123 1.253 . S
C134 O124 1.283 . S
C135 O127 1.304 . S
C135 O129 1.272 . S
C136 O128 1.311 . S
C136 O130 1.231 . S
O137 Zn119 1.953 . S
O137 C131 1.298 . S
O138 Zn139 1.953 . S
O138 C154 1.225 . S
Zn139 O138 1.953 . S
Zn139 O140 1.949 . S
Zn139 O146 1.919 . S
Zn139 O151 1.924 . S
O140 Zn139 1.949 . S
O140 Zn141 1.923 . S
O140 Zn142 1.950 . S
O140 Zn143 1.945 . S
Zn141 O140 1.923 . S
Zn141 O144 1.933 . S
Zn141 O147 1.941 . S
Zn141 O148 1.965 . S
Zn142 O140 1.950 . S
Zn142 O149 1.938 . S
Zn142 O150 1.906 . S
Zn142 O160 1.953 . S
Zn143 O140 1.945 . S
Zn143 O145 1.932 . S
Zn143 O152 1.977 . S
Zn143 O153 1.910 . S
O144 Zn141 1.933 . S
O144 C155 1.226 . S
O145 Zn143 1.932 . S
O145 C155 1.307 . S
O146 Zn139 1.919 . S
O146 C157 1.253 . S
O147 Zn141 1.941 . S
O147 C157 1.283 . S
O148 Zn141 1.965 . S
O148 C156 1.303 . S
O149 Zn142 1.938 . S
O149 C156 1.247 . S
O150 Zn142 1.906 . S
O150 C158 1.304 . S
O151 Zn139 1.924 . S
O151 C159 1.311 . S
O152 Zn143 1.977 . S
O152 C158 1.272 . S
O153 Zn143 1.910 . S
O153 C159 1.231 . S
C154 O138 1.225 . S
C154 O160 1.298 . S
C155 O144 1.226 . S
C155 O145 1.307 . S
C156 O148 1.303 . S
C156 O149 1.247 . S
C157 O146 1.253 . S
C157 O147 1.283 . S
C158 O150 1.304 . S
C158 O152 1.272 . S
C159 O151 1.311 . S
C159 O153 1.231 . S
O160 Zn142 1.953 . S
O160 C154 1.298 . S
O161 Zn162 1.953 . S
O161 C177 1.225 . S
Zn162 O161 1.953 . S
Zn162 O163 1.949 . S
Zn162 O169 1.919 . S
Zn162 O174 1.924 . S
O163 Zn162 1.949 . S
O163 Zn164 1.923 . S
O163 Zn165 1.950 . S
O163 Zn166 1.945 . S
Zn164 O163 1.923 . S
Zn164 O167 1.933 . S
Zn164 O170 1.941 . S
Zn164 O171 1.965 . S
Zn165 O163 1.950 . S
Zn165 O172 1.938 . S
Zn165 O173 1.906 . S
Zn165 O183 1.953 . S
Zn166 O163 1.945 . S
Zn166 O168 1.932 . S
Zn166 O175 1.977 . S
Zn166 O176 1.910 . S
O167 Zn164 1.933 . S
O167 C178 1.226 . S
O168 Zn166 1.932 . S
O168 C178 1.307 . S
O169 Zn162 1.919 . S
O169 C180 1.253 . S
O170 Zn164 1.941 . S
O170 C180 1.283 . S
O171 Zn164 1.965 . S
O171 C179 1.303 . S
O172 Zn165 1.938 . S
O172 C179 1.247 . S
O173 Zn165 1.906 . S
O173 C181 1.304 . S
O174 Zn162 1.924 . S
O174 C182 1.311 . S
O175 Zn166 1.977 . S
O175 C181 1.272 . S
O176 Zn166 1.910 . S
O176 C182 1.231 . S
C177 O161 1.225 . S
C177 O183 1.298 . S
C178 O167 1.226 . S
C178 O168 1.307 . S
C179 O171 1.303 . S
C179 O172 1.247 . S
C180 O169 1.253 . S
C180 O170 1.283 . S
C181 O173 1.304 . S
C181 O175 1.272 . S
C182 O174 1.311 . S
C182 O176 1.231 . S
O183 Zn165 1.953 . S
O183 C177 1.298 . S
Cd184 N187 2.334 1_655 S
Cd184 N213 2.304 1_565 S
Cd184 O220 2.268 . S
Cd184 O223 2.273 1_665 S
Cd184 O224 2.417 . S
Cd184 O225 2.330 . S
Cd185 N200 2.304 1_455 S
Cd185 N204 2.334 1_545 S
Cd185 O221 2.273 1_445 S
Cd185 O222 2.268 . S
Cd185 O226 2.417 . S
Cd185 O227 2.330 . S
C186 N187 1.332 . S
C186 C190 1.381 . S
C186 H192 0.931 . S
N187 Cd184 2.334 1_455 S
N187 C186 1.332 . S
N187 C191 1.328 . S
C188 C189 1.396 . S
C188 C191 1.378 . S
C188 H230 0.931 . S
C189 C188 1.396 . S
C189 C190 1.382 . S
C190 C186 1.381 . S
C190 C189 1.382 . S
C190 H231 0.930 . S
C191 N187 1.328 . S
C191 C188 1.378 . S
C191 H193 0.930 . S
H192 C186 0.931 . S
H193 C191 0.930 . S
C194 O220 1.238 . S
C194 O221 1.253 . S
C195 C196 1.379 . S
C195 N200 1.337 . S
C195 H201 0.929 . S
C196 C195 1.379 . S
C196 C197 1.380 . S
C196 H232 0.929 . S
C197 C196 1.380 . S
C197 C198 1.399 . S
C198 C197 1.399 . S
C198 C199 1.376 . S
C198 H233 0.931 . S
C199 C198 1.376 . S
C199 N200 1.338 . S
C199 H202 0.930 1_655 S
N200 Cd185 2.304 1_655 S
N200 C195 1.337 . S
N200 C199 1.338 . S
H201 C195 0.929 . S
H202 C199 0.930 1_455 S
C203 N204 1.332 . S
C203 C207 1.381 . S
C203 H209 0.931 . S
N204 Cd185 2.334 1_565 S
N204 C203 1.332 . S
N204 C208 1.328 . S
C205 C206 1.396 . S
C205 C208 1.378 . S
C205 H234 0.931 . S
C206 C205 1.396 . S
C206 C207 1.382 . S
C207 C203 1.381 . S
C207 C206 1.382 . S
C207 H235 0.930 . S
C208 N204 1.328 . S
C208 C205 1.378 . S
C208 H210 0.930 1_565 S
H209 C203 0.931 . S
H210 C208 0.930 1_545 S
C211 O222 1.238 . S
C211 O223 1.253 . S
C212 O224 1.239 . S
C212 O225 1.230 . S
N213 Cd184 2.304 1_545 S
N213 C214 1.337 . S
N213 C218 1.338 . S
C214 N213 1.337 . S
C214 C215 1.379 . S
C214 H228 0.929 . S
C215 C214 1.379 . S
C215 C216 1.380 . S
C215 H236 0.929 . S
C216 C215 1.380 . S
C216 C217 1.399 . S
C217 C216 1.399 . S
C217 C218 1.376 . S
C217 H237 0.931 . S
C218 N213 1.338 . S
C218 C217 1.376 . S
C218 H229 0.930 . S
C219 O226 1.239 . S
C219 O227 1.230 . S
O220 Cd184 2.268 . S
O220 C194 1.238 . S
O221 Cd185 2.273 1_665 S
O221 C194 1.253 . S
O222 Cd185 2.268 . S
O222 C211 1.238 . S
O223 Cd184 2.273 1_445 S
O223 C211 1.253 . S
O224 Cd184 2.417 . S
O224 C212 1.239 . S
O225 Cd184 2.330 . S
O225 C212 1.230 . S
O226 Cd185 2.417 . S
O226 C219 1.239 . S
O227 Cd185 2.330 . S
O227 C219 1.230 . S
H228 C214 0.929 . S
H229 C218 0.930 . S
H230 C188 0.931 . S
H231 C190 0.930 . S
H232 C196 0.929 . S
H233 C198 0.931 . S
H234 C205 0.931 . S
H235 C207 0.930 . S
H236 C215 0.929 . S
H237 C217 0.931 . S
Cd238 N241 2.334 . S
Cd238 N267 2.304 1_565 S
Cd238 O274 2.268 1_554 S
Cd238 O277 2.273 1_565 S
Cd238 O278 2.417 . S
Cd238 O279 2.330 . S
Cd239 N254 2.304 . S
Cd239 N258 2.334 1_545 S
Cd239 O275 2.273 1_545 S
Cd239 O276 2.268 1_556 S
Cd239 O280 2.417 . S
Cd239 O281 2.330 . S
C240 N241 1.332 . S
C240 C244 1.381 . S
C240 H246 0.931 . S
N241 Cd238 2.334 . S
N241 C240 1.332 . S
N241 C245 1.328 . S
C242 C243 1.396 . S
C242 C245 1.378 . S
C242 H284 0.931 . S
C243 C242 1.396 . S
C243 C244 1.382 . S
C244 C240 1.381 . S
C244 C243 1.382 . S
C244 H285 0.930 . S
C245 N241 1.328 . S
C245 C242 1.378 . S
C245 H247 0.930 . S
H246 C240 0.931 . S
H247 C245 0.930 . S
C248 O274 1.238 . S
C248 O275 1.253 . S
C249 C250 1.379 . S
C249 N254 1.337 . S
C249 H255 0.929 . S
C250 C249 1.379 . S
C250 C251 1.380 . S
C250 H286 0.929 . S
C251 C250 1.380 . S
C251 C252 1.399 1_556 S
C252 C251 1.399 1_554 S
C252 C253 1.376 . S
C252 H287 0.931 . S
C253 C252 1.376 . S
C253 N254 1.338 1_554 S
C253 H256 0.930 . S
N254 Cd239 2.304 . S
N254 C249 1.337 . S
N254 C253 1.338 1_556 S
H255 C249 0.929 . S
H256 C253 0.930 . S
C257 N258 1.332 . S
C257 C261 1.381 . S
C257 H263 0.931 . S
N258 Cd239 2.334 1_565 S
N258 C257 1.332 . S
N258 C262 1.328 . S
C259 C260 1.383 1_554 S
C259 C262 1.378 1_554 S
C259 H288 0.946 . S
C260 C259 1.383 1_556 S
C260 C261 1.382 . S
C261 C257 1.381 . S
C261 C260 1.382 . S
C261 H289 0.930 . S
C262 N258 1.328 . S
C262 C259 1.378 1_556 S
C262 H264 0.929 1_566 S
H263 C257 0.931 . S
H264 C262 0.929 1_544 S
C265 O276 1.238 . S
C265 O277 1.253 . S
C266 O278 1.239 . S
C266 O279 1.230 . S
N267 Cd238 2.304 1_545 S
N267 C268 1.337 . S
N267 C272 1.338 . S
C268 N267 1.337 . S
C268 C269 1.379 . S
C268 H282 0.929 . S
C269 C268 1.379 . S
C269 C270 1.380 . S
C269 H290 0.929 . S
C270 C269 1.380 . S
C270 C271 1.399 . S
C271 C270 1.399 . S
C271 C272 1.376 . S
C271 H291 0.931 . S
C272 N267 1.338 . S
C272 C271 1.376 . S
C272 H283 0.930 . S
C273 O280 1.239 . S
C273 O281 1.230 . S
O274 Cd238 2.268 1_556 S
O274 C248 1.238 . S
O275 Cd239 2.273 1_565 S
O275 C248 1.253 . S
O276 Cd239 2.268 1_554 S
O276 C265 1.238 . S
O277 Cd238 2.273 1_545 S
O277 C265 1.253 . S
O278 Cd238 2.417 . S
O278 C266 1.239 . S
O279 Cd238 2.330 . S
O279 C266 1.230 . S
O280 Cd239 2.417 . S
O280 C273 1.239 . S
O281 Cd239 2.330 . S
O281 C273 1.230 . S
H282 C268 0.929 . S
H283 C272 0.930 . S
H284 C242 0.931 . S
H285 C244 0.930 . S
H286 C250 0.929 . S
H287 C252 0.931 . S
H288 C259 0.946 . S
H289 C261 0.930 . S
H290 C269 0.929 . S
H291 C271 0.931 . S
Cd292 N295 2.334 1_655 S
Cd292 N321 2.304 . S
Cd292 O328 2.268 1_554 S
Cd292 O331 2.273 1_655 S
Cd292 O332 2.417 . S
Cd292 O333 2.330 . S
Cd293 N308 2.304 1_455 S
Cd293 N312 2.334 . S
Cd293 O329 2.273 1_455 S
Cd293 O330 2.268 1_556 S
Cd293 O334 2.417 . S
Cd293 O335 2.330 . S
C294 N295 1.332 . S
C294 C298 1.381 . S
C294 H300 0.931 . S
N295 Cd292 2.334 1_455 S
N295 C294 1.332 . S
N295 C299 1.328 . S
C296 C297 1.396 . S
C296 C299 1.378 . S
C296 H338 0.914 1_554 S
C297 C296 1.396 . S
C297 C298 1.382 . S
C298 C294 1.381 . S
C298 C297 1.382 . S
C298 H339 0.930 . S
C299 N295 1.328 . S
C299 C296 1.378 . S
C299 H301 0.929 . S
H300 C294 0.931 . S
H301 C299 0.929 . S
C302 O328 1.238 . S
C302 O329 1.253 . S
C303 C304 1.379 . S
C303 N308 1.337 . S
C303 H309 0.929 . S
C304 C303 1.379 . S
C304 C305 1.380 . S
C304 H340 0.929 . S
C305 C304 1.380 . S
C305 C306 1.399 . S
C306 C305 1.399 . S
C306 C307 1.351 1_655 S
C306 H341 0.931 1_556 S
C307 C306 1.351 1_455 S
C307 N308 1.343 1_455 S
C307 H310 0.952 1_556 S
N308 Cd293 2.304 1_655 S
N308 C303 1.337 . S
N308 C307 1.343 1_655 S
H309 C303 0.929 . S
H310 C307 0.952 1_554 S
C311 N312 1.332 . S
C311 C315 1.381 . S
C311 H317 0.931 . S
N312 Cd293 2.334 . S
N312 C311 1.332 . S
N312 C316 1.328 . S
C313 C314 1.396 . S
C313 C316 1.378 . S
C313 H342 0.931 1_556 S
C314 C313 1.396 . S
C314 C315 1.382 . S
C315 C311 1.381 . S
C315 C314 1.382 . S
C315 H343 0.930 . S
C316 N312 1.328 . S
C316 C313 1.378 . S
C316 H318 0.930 1_556 S
H317 C311 0.931 . S
H318 C316 0.930 1_554 S
C319 O330 1.238 . S
C319 O331 1.253 . S
C320 O332 1.239 . S
C320 O333 1.230 . S
N321 Cd292 2.304 . S
N321 C322 1.337 . S
N321 C326 1.338 . S
C322 N321 1.337 . S
C322 C323 1.379 . S
C322 H336 0.929 . S
C323 C322 1.379 . S
C323 C324 1.380 . S
C323 H344 0.929 . S
C324 C323 1.380 . S
C324 C325 1.399 . S
C325 C324 1.399 . S
C325 C326 1.376 . S
C325 H345 0.931 1_554 S
C326 N321 1.338 . S
C326 C325 1.376 . S
C326 H337 0.930 1_554 S
C327 O334 1.239 . S
C327 O335 1.230 . S
O328 Cd292 2.268 1_556 S
O328 C302 1.238 . S
O329 Cd293 2.273 1_655 S
O329 C302 1.253 . S
O330 Cd293 2.268 1_554 S
O330 C319 1.238 . S
O331 Cd292 2.273 1_455 S
O331 C319 1.253 . S
O332 Cd292 2.417 . S
O332 C320 1.239 . S
O333 Cd292 2.330 . S
O333 C320 1.230 . S
O334 Cd293 2.417 . S
O334 C327 1.239 . S
O335 Cd293 2.330 . S
O335 C327 1.230 . S
H336 C322 0.929 . S
H337 C326 0.930 1_556 S
H338 C296 0.914 1_556 S
H339 C298 0.930 . S
H340 C304 0.929 . S
H341 C306 0.931 1_554 S
H342 C313 0.931 1_554 S
H343 C315 0.930 . S
H344 C323 0.929 . S
H345 C325 0.931 1_556 S
Cd346 N349 2.334 . S
Cd346 N375 2.304 . S
Cd346 O382 2.268 1_554 S
Cd346 O385 2.273 . S
Cd346 O386 2.417 . S
Cd346 O387 2.330 . S
Cd347 N362 2.304 . S
Cd347 N366 2.334 . S
Cd347 O383 2.273 . S
Cd347 O384 2.268 1_556 S
Cd347 O388 2.417 . S
Cd347 O389 2.330 . S
C348 N349 1.332 . S
C348 C352 1.381 . S
C348 H354 0.931 . S
N349 Cd346 2.334 . S
N349 C348 1.332 . S
N349 C353 1.328 . S
C350 C351 1.396 . S
C350 C353 1.378 . S
C350 H392 0.931 . S
C351 C350 1.396 . S
C351 C352 1.382 . S
C352 C348 1.381 . S
C352 C351 1.382 . S
C352 H393 0.930 . S
C353 N349 1.328 . S
C353 C350 1.378 . S
C353 H355 0.930 . S
H354 C348 0.931 . S
H355 C353 0.930 . S
C356 O382 1.238 . S
C356 O383 1.253 . S
C357 C358 1.379 . S
C357 N362 1.337 . S
C357 H363 0.929 . S
C358 C357 1.379 . S
C358 C359 1.380 . S
C358 H394 0.929 . S
C359 C358 1.380 . S
C359 C360 1.402 . S
C360 C359 1.402 . S
C360 C361 1.376 . S
C360 H395 0.928 1_556 S
C361 C360 1.376 . S
C361 N362 1.356 . S
C361 H364 0.912 1_556 S
N362 Cd347 2.304 . S
N362 C357 1.337 . S
N362 C361 1.356 . S
H363 C357 0.929 . S
H364 C361 0.912 1_554 S
C365 N366 1.332 . S
C365 C369 1.381 . S
C365 H371 0.931 . S
N366 Cd347 2.334 . S
N366 C365 1.332 . S
N366 C370 1.328 . S
C367 C368 1.396 . S
C367 C370 1.378 . S
C367 H396 0.931 1_556 S
C368 C367 1.396 . S
C368 C369 1.382 . S
C369 C365 1.381 . S
C369 C368 1.382 . S
C369 H397 0.930 . S
C370 N366 1.328 . S
C370 C367 1.378 . S
C370 H372 0.930 1_556 S
H371 C365 0.931 . S
H372 C370 0.930 1_554 S
C373 O384 1.238 . S
C373 O385 1.253 . S
C374 O386 1.239 . S
C374 O387 1.230 . S
N375 Cd346 2.304 . S
N375 C376 1.337 . S
N375 C380 1.338 . S
C376 N375 1.337 . S
C376 C377 1.379 . S
C376 H390 0.929 . S
C377 C376 1.379 . S
C377 C378 1.380 . S
C377 H398 0.929 . S
C378 C377 1.380 . S
C378 C379 1.399 . S
C379 C378 1.399 . S
C379 C380 1.376 . S
C379 H399 0.931 . S
C380 N375 1.338 . S
C380 C379 1.376 . S
C380 H391 0.930 . S
C381 O388 1.239 . S
C381 O389 1.230 . S
O382 Cd346 2.268 1_556 S
O382 C356 1.238 . S
O383 Cd347 2.273 . S
O383 C356 1.253 . S
O384 Cd347 2.268 1_554 S
O384 C373 1.238 . S
O385 Cd346 2.273 . S
O385 C373 1.253 . S
O386 Cd346 2.417 . S
O386 C374 1.239 . S
O387 Cd346 2.330 . S
O387 C374 1.230 . S
O388 Cd347 2.417 . S
O388 C381 1.239 . S
O389 Cd347 2.330 . S
O389 C381 1.230 . S
H390 C376 0.929 . S
H391 C380 0.930 . S
H392 C350 0.931 . S
H393 C352 0.930 . S
H394 C358 0.929 . S
H395 C360 0.928 1_554 S
H396 C367 0.931 1_554 S
H397 C369 0.930 . S
H398 C377 0.929 . S
H399 C379 0.931 . S
Cd400 N403 2.334 1_655 S
Cd400 N429 2.304 . S
Cd400 O436 2.268 . S
Cd400 O439 2.273 1_655 S
Cd400 O440 2.417 . S
Cd400 O441 2.330 . S
Cd401 N416 2.304 1_455 S
Cd401 N420 2.334 . S
Cd401 O437 2.273 1_455 S
Cd401 O438 2.268 . S
Cd401 O442 2.417 . S
Cd401 O443 2.330 . S
C402 N403 1.332 . S
C402 C406 1.381 . S
C402 H408 0.931 . S
N403 Cd400 2.334 1_455 S
N403 C402 1.332 . S
N403 C407 1.328 . S
C404 C405 1.396 . S
C404 C407 1.378 . S
C404 H446 0.931 . S
C405 C404 1.396 . S
C405 C406 1.382 . S
C406 C402 1.381 . S
C406 C405 1.382 . S
C406 H447 0.930 . S
C407 N403 1.328 . S
C407 C404 1.378 . S
C407 H409 0.930 . S
H408 C402 0.931 . S
H409 C407 0.930 . S
C410 O436 1.238 . S
C410 O437 1.253 . S
C411 C412 1.379 . S
C411 N416 1.337 . S
C411 H417 0.929 . S
C412 C411 1.379 . S
C412 C413 1.380 . S
C412 H448 0.929 . S
C413 C412 1.380 . S
C413 C414 1.399 . S
C414 C413 1.399 . S
C414 C415 1.376 . S
C414 H449 0.931 . S
C415 C414 1.376 . S
C415 N416 1.338 . S
C415 H418 0.930 1_655 S
N416 Cd401 2.304 1_655 S
N416 C411 1.337 . S
N416 C415 1.338 . S
H417 C411 0.929 . S
H418 C415 0.930 1_455 S
C419 N420 1.332 . S
C419 C423 1.381 . S
C419 H425 0.931 . S
N420 Cd401 2.334 . S
N420 C419 1.332 . S
N420 C424 1.328 . S
C421 C422 1.396 . S
C421 C424 1.378 . S
C421 H450 0.931 . S
C422 C421 1.396 . S
C422 C423 1.382 . S
C423 C419 1.381 . S
C423 C422 1.382 . S
C423 H451 0.930 . S
C424 N420 1.328 . S
C424 C421 1.378 . S
C424 H426 0.930 . S
H425 C419 0.931 . S
H426 C424 0.930 . S
C427 O438 1.238 . S
C427 O439 1.253 . S
C428 O440 1.239 . S
C428 O441 1.230 . S
N429 Cd400 2.304 . S
N429 C430 1.337 . S
N429 C434 1.338 . S
C430 N429 1.337 . S
C430 C431 1.379 . S
C430 H444 0.929 . S
C431 C430 1.379 . S
C431 C432 1.380 . S
C431 H452 0.929 . S
C432 C431 1.380 . S
C432 C433 1.399 . S
C433 C432 1.399 . S
C433 C434 1.376 . S
C433 H453 0.931 . S
C434 N429 1.338 . S
C434 C433 1.376 . S
C434 H445 0.930 . S
C435 O442 1.239 . S
C435 O443 1.230 . S
O436 Cd400 2.268 . S
O436 C410 1.238 . S
O437 Cd401 2.273 1_655 S
O437 C410 1.253 . S
O438 Cd401 2.268 . S
O438 C427 1.238 . S
O439 Cd400 2.273 1_455 S
O439 C427 1.253 . S
O440 Cd400 2.417 . S
O440 C428 1.239 . S
O441 Cd400 2.330 . S
O441 C428 1.230 . S
O442 Cd401 2.417 . S
O442 C435 1.239 . S
O443 Cd401 2.330 . S
O443 C435 1.230 . S
H444 C430 0.929 . S
H445 C434 0.930 . S
H446 C404 0.931 . S
H447 C406 0.930 . S
H448 C412 0.929 . S
H449 C414 0.931 . S
H450 C421 0.931 . S
H451 C423 0.930 . S
H452 C431 0.929 . S
H453 C433 0.931 . S
Cd454 N457 2.334 . S
Cd454 N483 2.304 1_565 S
Cd454 O490 2.268 . S
Cd454 O493 2.273 1_565 S
Cd454 O494 2.417 . S
Cd454 O495 2.330 . S
Cd455 N470 2.304 . S
Cd455 N474 2.334 1_545 S
Cd455 O491 2.273 1_545 S
Cd455 O492 2.268 . S
Cd455 O496 2.417 . S
Cd455 O497 2.330 . S
C456 N457 1.332 . S
C456 C460 1.381 . S
C456 H462 0.931 . S
N457 Cd454 2.334 . S
N457 C456 1.332 . S
N457 C461 1.328 . S
C458 C459 1.396 . S
C458 C461 1.378 . S
C458 H500 0.931 . S
C459 C458 1.396 . S
C459 C460 1.382 . S
C460 C456 1.381 . S
C460 C459 1.382 . S
C460 H501 0.930 . S
C461 N457 1.328 . S
C461 C458 1.378 . S
C461 H463 0.930 . S
H462 C456 0.931 . S
H463 C461 0.930 . S
C464 O490 1.238 . S
C464 O491 1.253 . S
C465 C466 1.379 . S
C465 N470 1.337 . S
C465 H471 0.929 . S
C466 C465 1.379 . S
C466 C467 1.380 . S
C466 H502 0.929 . S
C467 C466 1.380 . S
C467 C468 1.399 . S
C468 C467 1.399 . S
C468 C469 1.376 . S
C468 H503 0.931 . S
C469 C468 1.376 . S
C469 N470 1.338 . S
C469 H472 0.930 . S
N470 Cd455 2.304 . S
N470 C465 1.337 . S
N470 C469 1.338 . S
H471 C465 0.929 . S
H472 C469 0.930 . S
C473 N474 1.332 . S
C473 C477 1.381 . S
C473 H479 0.931 . S
N474 Cd455 2.334 1_565 S
N474 C473 1.332 . S
N474 C478 1.334 1_565 S
C475 C476 1.396 . S
C475 C478 1.343 1_565 S
C475 H504 0.931 . S
C476 C475 1.396 . S
C476 C477 1.382 . S
C477 C473 1.381 . S
C477 C476 1.382 . S
C477 H505 0.930 . S
C478 N474 1.334 1_545 S
C478 C475 1.343 1_545 S
C478 H480 0.961 . S
H479 C473 0.931 . S
H480 C478 0.961 . S
C481 O492 1.238 . S
C481 O493 1.253 . S
C482 O494 1.239 . S
C482 O495 1.230 . S
N483 Cd454 2.304 1_545 S
N483 C484 1.337 . S
N483 C488 1.338 . S
C484 N483 1.337 . S
C484 C485 1.379 . S
C484 H498 0.929 . S
C485 C484 1.379 . S
C485 C486 1.380 . S
C485 H506 0.929 . S
C486 C485 1.380 . S
C486 C487 1.399 . S
C487 C486 1.399 . S
C487 C488 1.376 . S
C487 H507 0.931 . S
C488 N483 1.338 . S
C488 C487 1.376 . S
C488 H499 0.930 . S
C489 O496 1.239 . S
C489 O497 1.230 . S
O490 Cd454 2.268 . S
O490 C464 1.238 . S
O491 Cd455 2.273 1_565 S
O491 C464 1.253 . S
O492 Cd455 2.268 . S
O492 C481 1.238 . S
O493 Cd454 2.273 1_545 S
O493 C481 1.253 . S
O494 Cd454 2.417 . S
O494 C482 1.239 . S
O495 Cd454 2.330 . S
O495 C482 1.230 . S
O496 Cd455 2.417 . S
O496 C489 1.239 . S
O497 Cd455 2.330 . S
O497 C489 1.230 . S
H498 C484 0.929 . S
H499 C488 0.930 . S
H500 C458 0.931 . S
H501 C460 0.930 . S
H502 C466 0.929 . S
H503 C468 0.931 . S
H504 C475 0.931 . S
H505 C477 0.930 . S
H506 C485 0.929 . S
H507 C487 0.931 . S
H508 C516 0.929 . S
H509 C518 0.930 . S
H510 C520 0.930 . S
H511 C523 0.929 . S
H512 C526 0.930 . S
H513 C528 0.960 . S
H514 C528 0.960 . S
H515 C528 0.960 . S
C516 H508 0.929 . S
C516 C517 1.377 . S
C516 C518 1.384 . S
C517 C516 1.377 . S
C517 C523 1.390 . S
C518 H509 0.930 . S
C518 C516 1.384 . S
C518 C519 1.372 . S
C519 C518 1.372 . S
C519 C520 1.400 . S
C519 C524 1.490 . S
C520 H510 0.930 . S
C520 C519 1.400 . S
C520 C523 1.386 . S
H521 C537 0.930 . S
H522 C538 0.931 . S
C523 H511 0.929 . S
C523 C517 1.390 . S
C523 C520 1.386 . S
C524 C519 1.490 . S
C524 C526 1.395 . S
C524 C527 1.403 . S
H525 C531 0.930 . S
C526 H512 0.930 . S
C526 C524 1.395 . S
C526 C529 1.403 . S
C527 C524 1.403 . S
C527 C528 1.524 . S
C527 C531 1.400 . S
C528 H513 0.960 . S
C528 H514 0.960 . S
C528 H515 0.960 . S
C528 C527 1.524 . S
C529 C526 1.403 . S
C529 C530 1.392 . S
C529 C533 1.495 . S
C530 C529 1.392 . S
C530 C531 1.385 . S
C530 C532 1.478 . S
C531 H525 0.930 . S
C531 C527 1.400 . S
C531 C530 1.385 . S
C532 C530 1.478 . S
C532 C534 1.381 . S
C532 C538 1.383 . S
C533 C529 1.495 . S
C533 H539 0.959 . S
C533 H540 0.961 . S
C533 H541 0.960 . S
C534 C532 1.381 . S
C534 C535 1.394 . S
C534 H542 0.930 . S
C535 C534 1.394 . S
C535 C536 1.383 . S
C535 H543 0.929 . S
C536 C535 1.383 . S
C536 C537 1.377 . S
C537 H521 0.930 . S
C537 C536 1.377 . S
C537 C538 1.379 . S
C538 H522 0.931 . S
C538 C532 1.383 . S
C538 C537 1.379 . S
H539 C533 0.959 . S
H540 C533 0.961 . S
H541 C533 0.960 . S
H542 C534 0.930 . S
H543 C535 0.929 . S
H544 C552 0.929 . S
H545 C554 0.930 . S
H546 C556 0.930 . S
H547 C559 0.929 . S
H548 C562 0.930 . S
H549 C564 0.960 . S
H550 C564 0.960 . S
H551 C564 0.960 . S
C552 H544 0.929 . S
C552 C553 1.377 . S
C552 C554 1.384 . S
C553 C552 1.377 . S
C553 C559 1.390 . S
C554 H545 0.930 . S
C554 C552 1.384 . S
C554 C555 1.372 . S
C555 C554 1.372 . S
C555 C556 1.400 . S
C555 C560 1.490 . S
C556 H546 0.930 . S
C556 C555 1.400 . S
C556 C559 1.386 . S
H557 C573 0.930 . S
H558 C574 0.931 . S
C559 H547 0.929 . S
C559 C553 1.390 . S
C559 C556 1.386 . S
C560 C555 1.490 . S
C560 C562 1.395 . S
C560 C563 1.403 . S
H561 C567 0.930 . S
C562 H548 0.930 . S
C562 C560 1.395 . S
C562 C565 1.403 . S
C563 C560 1.403 . S
C563 C564 1.524 . S
C563 C567 1.400 . S
C564 H549 0.960 . S
C564 H550 0.960 . S
C564 H551 0.960 . S
C564 C563 1.524 . S
C565 C562 1.403 . S
C565 C566 1.392 . S
C565 C569 1.495 . S
C566 C565 1.392 . S
C566 C567 1.385 . S
C566 C568 1.478 . S
C567 H561 0.930 . S
C567 C563 1.400 . S
C567 C566 1.385 . S
C568 C566 1.478 . S
C568 C570 1.381 . S
C568 C574 1.383 . S
C569 C565 1.495 . S
C569 H575 0.959 . S
C569 H576 0.961 . S
C569 H577 0.960 . S
C570 C568 1.381 . S
C570 C571 1.394 . S
C570 H578 0.930 . S
C571 C570 1.394 . S
C571 C572 1.383 . S
C571 H579 0.929 . S
C572 C571 1.383 . S
C572 C573 1.377 . S
C573 H557 0.930 . S
C573 C572 1.377 . S
C573 C574 1.379 . S
C574 H558 0.931 . S
C574 C568 1.383 . S
C574 C573 1.379 . S
H575 C569 0.959 . S
H576 C569 0.961 . S
H577 C569 0.960 . S
H578 C570 0.930 . S
H579 C571 0.929 . S
H580 C588 0.929 . S
H581 C590 0.930 . S
H582 C592 0.930 . S
H583 C595 0.929 . S
H584 C598 0.930 . S
H585 C600 0.960 . S
H586 C600 0.960 . S
H587 C600 0.960 . S
C588 H580 0.929 . S
C588 C589 1.377 . S
C588 C590 1.384 . S
C589 C588 1.377 . S
C589 C595 1.390 . S
C590 H581 0.930 . S
C590 C588 1.384 . S
C590 C591 1.372 . S
C591 C590 1.372 . S
C591 C592 1.400 . S
C591 C596 1.490 . S
C592 H582 0.930 . S
C592 C591 1.400 . S
C592 C595 1.386 . S
H593 C609 0.930 . S
H594 C610 0.931 . S
C595 H583 0.929 . S
C595 C589 1.390 . S
C595 C592 1.386 . S
C596 C591 1.490 . S
C596 C598 1.395 . S
C596 C599 1.403 . S
H597 C603 0.930 . S
C598 H584 0.930 . S
C598 C596 1.395 . S
C598 C601 1.403 . S
C599 C596 1.403 . S
C599 C600 1.524 . S
C599 C603 1.400 . S
C600 H585 0.960 . S
C600 H586 0.960 . S
C600 H587 0.960 . S
C600 C599 1.524 . S
C601 C598 1.403 . S
C601 C602 1.392 . S
C601 C605 1.495 . S
C602 C601 1.392 . S
C602 C603 1.385 . S
C602 C604 1.478 . S
C603 H597 0.930 . S
C603 C599 1.400 . S
C603 C602 1.385 . S
C604 C602 1.478 . S
C604 C606 1.381 . S
C604 C610 1.383 . S
C605 C601 1.495 . S
C605 H611 0.959 . S
C605 H612 0.961 . S
C605 H613 0.960 . S
C606 C604 1.381 . S
C606 C607 1.394 . S
C606 H614 0.930 . S
C607 C606 1.394 . S
C607 C608 1.383 . S
C607 H615 0.929 . S
C608 C607 1.383 . S
C608 C609 1.377 . S
C609 H593 0.930 . S
C609 C608 1.377 . S
C609 C610 1.379 . S
C610 H594 0.931 . S
C610 C604 1.383 . S
C610 C609 1.379 . S
H611 C605 0.959 . S
H612 C605 0.961 . S
H613 C605 0.960 . S
H614 C606 0.930 . S
H615 C607 0.929 . S
H616 C624 0.929 . S
H617 C626 0.930 . S
H618 C628 0.930 . S
H619 C631 0.929 . S
H620 C634 0.930 . S
H621 C636 0.960 . S
H622 C636 0.960 . S
H623 C636 0.960 . S
C624 H616 0.929 . S
C624 C625 1.377 . S
C624 C626 1.384 . S
C625 C624 1.377 . S
C625 C631 1.390 . S
C626 H617 0.930 . S
C626 C624 1.384 . S
C626 C627 1.372 . S
C627 C626 1.372 . S
C627 C628 1.400 . S
C627 C632 1.490 . S
C628 H618 0.930 . S
C628 C627 1.400 . S
C628 C631 1.386 . S
H629 C645 0.930 . S
H630 C646 0.931 . S
C631 H619 0.929 . S
C631 C625 1.390 . S
C631 C628 1.386 . S
C632 C627 1.490 . S
C632 C634 1.395 . S
C632 C635 1.403 . S
H633 C639 0.930 . S
C634 H620 0.930 . S
C634 C632 1.395 . S
C634 C637 1.403 . S
C635 C632 1.403 . S
C635 C636 1.524 . S
C635 C639 1.400 . S
C636 H621 0.960 . S
C636 H622 0.960 . S
C636 H623 0.960 . S
C636 C635 1.524 . S
C637 C634 1.403 . S
C637 C638 1.392 . S
C637 C641 1.495 . S
C638 C637 1.392 . S
C638 C639 1.385 . S
C638 C640 1.478 . S
C639 H633 0.930 . S
C639 C635 1.400 . S
C639 C638 1.385 . S
C640 C638 1.478 . S
C640 C642 1.381 . S
C640 C646 1.383 . S
C641 C637 1.495 . S
C641 H647 0.959 . S
C641 H648 0.961 . S
C641 H649 0.960 . S
C642 C640 1.381 . S
C642 C643 1.394 . S
C642 H650 0.930 . S
C643 C642 1.394 . S
C643 C644 1.383 . S
C643 H651 0.929 . S
C644 C643 1.383 . S
C644 C645 1.377 . S
C645 H629 0.930 . S
C645 C644 1.377 . S
C645 C646 1.379 . S
C646 H630 0.931 . S
C646 C640 1.383 . S
C646 C645 1.379 . S
H647 C641 0.959 . S
H648 C641 0.961 . S
H649 C641 0.960 . S
H650 C642 0.930 . S
H651 C643 0.929 . S
H652 C660 0.929 . S
H653 C662 0.930 . S
H654 C664 0.930 . S
H655 C667 0.929 . S
H656 C670 0.930 . S
H657 C672 0.960 . S
H658 C672 0.960 . S
H659 C672 0.960 . S
C660 H652 0.929 . S
C660 C661 1.377 . S
C660 C662 1.384 . S
C661 C660 1.377 . S
C661 C667 1.390 . S
C662 H653 0.930 . S
C662 C660 1.384 . S
C662 C663 1.372 . S
C663 C662 1.372 . S
C663 C664 1.400 . S
C663 C668 1.490 . S
C664 H654 0.930 . S
C664 C663 1.400 . S
C664 C667 1.386 . S
H665 C681 0.930 . S
H666 C682 0.931 . S
C667 H655 0.929 . S
C667 C661 1.390 . S
C667 C664 1.386 . S
C668 C663 1.490 . S
C668 C670 1.395 . S
C668 C671 1.403 . S
H669 C675 0.930 . S
C670 H656 0.930 . S
C670 C668 1.395 . S
C670 C673 1.403 . S
C671 C668 1.403 . S
C671 C672 1.524 . S
C671 C675 1.400 . S
C672 H657 0.960 . S
C672 H658 0.960 . S
C672 H659 0.960 . S
C672 C671 1.524 . S
C673 C670 1.403 . S
C673 C674 1.392 . S
C673 C677 1.495 . S
C674 C673 1.392 . S
C674 C675 1.385 . S
C674 C676 1.478 . S
C675 H669 0.930 . S
C675 C671 1.400 . S
C675 C674 1.385 . S
C676 C674 1.478 . S
C676 C678 1.381 . S
C676 C682 1.383 . S
C677 C673 1.495 . S
C677 H683 0.959 . S
C677 H684 0.961 . S
C677 H685 0.960 . S
C678 C676 1.381 . S
C678 C679 1.394 . S
C678 H686 0.930 . S
C679 C678 1.394 . S
C679 C680 1.383 . S
C679 H687 0.929 . S
C680 C679 1.383 . S
C680 C681 1.377 . S
C681 H665 0.930 . S
C681 C680 1.377 . S
C681 C682 1.379 . S
C682 H666 0.931 . S
C682 C676 1.383 . S
C682 C681 1.379 . S
H683 C677 0.959 . S
H684 C677 0.961 . S
H685 C677 0.960 . S
H686 C678 0.930 . S
H687 C679 0.929 . S
H688 C696 0.929 . S
H689 C698 0.930 . S
H690 C700 0.930 . S
H691 C703 0.929 . S
H692 C706 0.930 . S
H693 C708 0.960 . S
H694 C708 0.960 . S
H695 C708 0.960 . S
C696 H688 0.929 . S
C696 C697 1.377 . S
C696 C698 1.384 . S
C697 C696 1.377 . S
C697 C703 1.390 . S
C698 H689 0.930 . S
C698 C696 1.384 . S
C698 C699 1.372 . S
C699 C698 1.372 . S
C699 C700 1.400 . S
C699 C704 1.490 . S
C700 H690 0.930 . S
C700 C699 1.400 . S
C700 C703 1.386 . S
H701 C717 0.930 . S
H702 C718 0.931 . S
C703 H691 0.929 . S
C703 C697 1.390 . S
C703 C700 1.386 . S
C704 C699 1.490 . S
C704 C706 1.395 . S
C704 C707 1.403 . S
H705 C711 0.930 . S
C706 H692 0.930 . S
C706 C704 1.395 . S
C706 C709 1.403 . S
C707 C704 1.403 . S
C707 C708 1.524 . S
C707 C711 1.400 . S
C708 H693 0.960 . S
C708 H694 0.960 . S
C708 H695 0.960 . S
C708 C707 1.524 . S
C709 C706 1.403 . S
C709 C710 1.392 . S
C709 C713 1.495 . S
C710 C709 1.392 . S
C710 C711 1.385 . S
C710 C712 1.478 . S
C711 H705 0.930 . S
C711 C707 1.400 . S
C711 C710 1.385 . S
C712 C710 1.478 . S
C712 C714 1.381 . S
C712 C718 1.383 . S
C713 C709 1.495 . S
C713 H719 0.959 . S
C713 H720 0.961 . S
C713 H721 0.960 . S
C714 C712 1.381 . S
C714 C715 1.394 . S
C714 H722 0.930 . S
C715 C714 1.394 . S
C715 C716 1.383 . S
C715 H723 0.929 . S
C716 C715 1.383 . S
C716 C717 1.377 . S
C717 H701 0.930 . S
C717 C716 1.377 . S
C717 C718 1.379 . S
C718 H702 0.931 . S
C718 C712 1.383 . S
C718 C717 1.379 . S
H719 C713 0.959 . S
H720 C713 0.961 . S
H721 C713 0.960 . S
H722 C714 0.930 . S
H723 C715 0.929 . S
H724 C732 0.929 . S
H725 C734 0.930 . S
H726 C736 0.930 . S
H727 C739 0.929 . S
H728 C742 0.930 . S
H729 C744 0.960 . S
H730 C744 0.960 . S
H731 C744 0.960 . S
C732 H724 0.929 . S
C732 C733 1.377 . S
C732 C734 1.384 . S
C733 C732 1.377 . S
C733 C739 1.390 . S
C734 H725 0.930 . S
C734 C732 1.384 . S
C734 C735 1.372 . S
C735 C734 1.372 . S
C735 C736 1.400 . S
C735 C740 1.490 . S
C736 H726 0.930 . S
C736 C735 1.400 . S
C736 C739 1.386 . S
H737 C753 0.930 . S
H738 C754 0.931 . S
C739 H727 0.929 . S
C739 C733 1.390 . S
C739 C736 1.386 . S
C740 C735 1.490 . S
C740 C742 1.395 . S
C740 C743 1.403 . S
H741 C747 0.930 . S
C742 H728 0.930 . S
C742 C740 1.395 . S
C742 C745 1.403 . S
C743 C740 1.403 . S
C743 C744 1.524 . S
C743 C747 1.400 . S
C744 H729 0.960 . S
C744 H730 0.960 . S
C744 H731 0.960 . S
C744 C743 1.524 . S
C745 C742 1.403 . S
C745 C746 1.392 . S
C745 C749 1.495 . S
C746 C745 1.392 . S
C746 C747 1.385 . S
C746 C748 1.478 . S
C747 H741 0.930 . S
C747 C743 1.400 . S
C747 C746 1.385 . S
C748 C746 1.478 . S
C748 C750 1.381 . S
C748 C754 1.383 . S
C749 C745 1.495 . S
C749 H755 0.959 . S
C749 H756 0.961 . S
C749 H757 0.960 . S
C750 C748 1.381 . S
C750 C751 1.394 . S
C750 H758 0.930 . S
C751 C750 1.394 . S
C751 C752 1.383 . S
C751 H759 0.929 . S
C752 C751 1.383 . S
C752 C753 1.377 . S
C753 H737 0.930 . S
C753 C752 1.377 . S
C753 C754 1.379 . S
C754 H738 0.931 . S
C754 C748 1.383 . S
C754 C753 1.379 . S
H755 C749 0.959 . S
H756 C749 0.961 . S
H757 C749 0.960 . S
H758 C750 0.930 . S
H759 C751 0.929 . S
H760 C768 0.929 . S
H761 C770 0.930 . S
H762 C772 0.930 . S
H763 C775 0.929 . S
H764 C778 0.930 . S
H765 C780 0.960 . S
H766 C780 0.960 . S
H767 C780 0.960 . S
C768 H760 0.929 . S
C768 C769 1.377 . S
C768 C770 1.384 . S
C769 C768 1.377 . S
C769 C775 1.390 . S
C770 H761 0.930 . S
C770 C768 1.384 . S
C770 C771 1.372 . S
C771 C770 1.372 . S
C771 C772 1.400 . S
C771 C776 1.490 . S
C772 H762 0.930 . S
C772 C771 1.400 . S
C772 C775 1.386 . S
H773 C789 0.930 . S
H774 C790 0.931 . S
C775 H763 0.929 . S
C775 C769 1.390 . S
C775 C772 1.386 . S
C776 C771 1.490 . S
C776 C778 1.395 . S
C776 C779 1.403 . S
H777 C783 0.930 . S
C778 H764 0.930 . S
C778 C776 1.395 . S
C778 C781 1.403 . S
C779 C776 1.403 . S
C779 C780 1.524 . S
C779 C783 1.400 . S
C780 H765 0.960 . S
C780 H766 0.960 . S
C780 H767 0.960 . S
C780 C779 1.524 . S
C781 C778 1.403 . S
C781 C782 1.392 . S
C781 C785 1.495 . S
C782 C781 1.392 . S
C782 C783 1.385 . S
C782 C784 1.478 . S
C783 H777 0.930 . S
C783 C779 1.400 . S
C783 C782 1.385 . S
C784 C782 1.478 . S
C784 C786 1.381 . S
C784 C790 1.383 . S
C785 C781 1.495 . S
C785 H791 0.959 . S
C785 H792 0.961 . S
C785 H793 0.960 . S
C786 C784 1.381 . S
C786 C787 1.394 . S
C786 H794 0.930 . S
C787 C786 1.394 . S
C787 C788 1.383 . S
C787 H795 0.929 . S
C788 C787 1.383 . S
C788 C789 1.377 . S
C789 H773 0.930 . S
C789 C788 1.377 . S
C789 C790 1.379 . S
C790 H774 0.931 . S
C790 C784 1.383 . S
C790 C789 1.379 . S
H791 C785 0.959 . S
H792 C785 0.961 . S
H793 C785 0.960 . S
H794 C786 0.930 . S
H795 C787 0.929 . S
H796 C804 0.929 . S
H797 C806 0.930 . S
H798 C808 0.930 . S
H799 C811 0.929 . S
H800 C814 0.930 . S
H801 C816 0.960 . S
H802 C816 0.960 . S
H803 C816 0.960 . S
C804 H796 0.929 . S
C804 C805 1.377 . S
C804 C806 1.384 . S
C805 C804 1.377 . S
C805 C811 1.390 . S
C806 H797 0.930 . S
C806 C804 1.384 . S
C806 C807 1.372 . S
C807 C806 1.372 . S
C807 C808 1.400 . S
C807 C812 1.490 . S
C808 H798 0.930 . S
C808 C807 1.400 . S
C808 C811 1.386 . S
H809 C825 0.930 . S
H810 C826 0.931 . S
C811 H799 0.929 . S
C811 C805 1.390 . S
C811 C808 1.386 . S
C812 C807 1.490 . S
C812 C814 1.395 . S
C812 C815 1.403 . S
H813 C819 0.930 . S
C814 H800 0.930 . S
C814 C812 1.395 . S
C814 C817 1.403 . S
C815 C812 1.403 . S
C815 C816 1.524 . S
C815 C819 1.400 . S
C816 H801 0.960 . S
C816 H802 0.960 . S
C816 H803 0.960 . S
C816 C815 1.524 . S
C817 C814 1.403 . S
C817 C818 1.392 . S
C817 C821 1.495 . S
C818 C817 1.392 . S
C818 C819 1.385 . S
C818 C820 1.478 . S
C819 H813 0.930 . S
C819 C815 1.400 . S
C819 C818 1.385 . S
C820 C818 1.478 . S
C820 C822 1.381 . S
C820 C826 1.383 . S
C821 C817 1.495 . S
C821 H827 0.959 . S
C821 H828 0.961 . S
C821 H829 0.960 . S
C822 C820 1.381 . S
C822 C823 1.394 . S
C822 H830 0.930 . S
C823 C822 1.394 . S
C823 C824 1.383 . S
C823 H831 0.929 . S
C824 C823 1.383 . S
C824 C825 1.377 . S
C825 H809 0.930 . S
C825 C824 1.377 . S
C825 C826 1.379 . S
C826 H810 0.931 . S
C826 C820 1.383 . S
C826 C825 1.379 . S
H827 C821 0.959 . S
H828 C821 0.961 . S
H829 C821 0.960 . S
H830 C822 0.930 . S
H831 C823 0.929 . S
H832 C840 0.929 . S
H833 C842 0.930 . S
H834 C844 0.930 . S
H835 C847 0.929 . S
H836 C850 0.930 . S
H837 C852 0.960 . S
H838 C852 0.960 . S
H839 C852 0.960 . S
C840 H832 0.929 . S
C840 C841 1.377 . S
C840 C842 1.384 . S
C841 C840 1.377 . S
C841 C847 1.390 . S
C842 H833 0.930 . S
C842 C840 1.384 . S
C842 C843 1.372 . S
C843 C842 1.372 . S
C843 C844 1.400 . S
C843 C848 1.490 . S
C844 H834 0.930 . S
C844 C843 1.400 . S
C844 C847 1.386 . S
H845 C861 0.930 . S
H846 C862 0.931 . S
C847 H835 0.929 . S
C847 C841 1.390 . S
C847 C844 1.386 . S
C848 C843 1.490 . S
C848 C850 1.395 . S
C848 C851 1.403 . S
H849 C855 0.930 . S
C850 H836 0.930 . S
C850 C848 1.395 . S
C850 C853 1.403 . S
C851 C848 1.403 . S
C851 C852 1.524 . S
C851 C855 1.400 . S
C852 H837 0.960 . S
C852 H838 0.960 . S
C852 H839 0.960 . S
C852 C851 1.524 . S
C853 C850 1.403 . S
C853 C854 1.392 . S
C853 C857 1.495 . S
C854 C853 1.392 . S
C854 C855 1.385 . S
C854 C856 1.478 . S
C855 H849 0.930 . S
C855 C851 1.400 . S
C855 C854 1.385 . S
C856 C854 1.478 . S
C856 C858 1.381 . S
C856 C862 1.383 . S
C857 C853 1.495 . S
C857 H863 0.959 . S
C857 H864 0.961 . S
C857 H865 0.960 . S
C858 C856 1.381 . S
C858 C859 1.394 . S
C858 H866 0.930 . S
C859 C858 1.394 . S
C859 C860 1.383 . S
C859 H867 0.929 . S
C860 C859 1.383 . S
C860 C861 1.377 . S
C861 H845 0.930 . S
C861 C860 1.377 . S
C861 C862 1.379 . S
C862 H846 0.931 . S
C862 C856 1.383 . S
C862 C861 1.379 . S
H863 C857 0.959 . S
H864 C857 0.961 . S
H865 C857 0.960 . S
H866 C858 0.930 . S
H867 C859 0.929 . S
H868 C876 0.929 . S
H869 C878 0.930 . S
H870 C880 0.930 . S
H871 C883 0.929 . S
H872 C886 0.930 . S
H873 C888 0.960 . S
H874 C888 0.960 . S
H875 C888 0.960 . S
C876 H868 0.929 . S
C876 C877 1.377 . S
C876 C878 1.384 . S
C877 C876 1.377 . S
C877 C883 1.390 . S
C878 H869 0.930 . S
C878 C876 1.384 . S
C878 C879 1.372 . S
C879 C878 1.372 . S
C879 C880 1.400 . S
C879 C884 1.490 . S
C880 H870 0.930 . S
C880 C879 1.400 . S
C880 C883 1.386 . S
H881 C897 0.930 . S
H882 C898 0.931 . S
C883 H871 0.929 . S
C883 C877 1.390 . S
C883 C880 1.386 . S
C884 C879 1.490 . S
C884 C886 1.395 . S
C884 C887 1.403 . S
H885 C891 0.930 . S
C886 H872 0.930 . S
C886 C884 1.395 . S
C886 C889 1.403 . S
C887 C884 1.403 . S
C887 C888 1.524 . S
C887 C891 1.400 . S
C888 H873 0.960 . S
C888 H874 0.960 . S
C888 H875 0.960 . S
C888 C887 1.524 . S
C889 C886 1.403 . S
C889 C890 1.392 . S
C889 C893 1.495 . S
C890 C889 1.392 . S
C890 C891 1.385 . S
C890 C892 1.478 . S
C891 H885 0.930 . S
C891 C887 1.400 . S
C891 C890 1.385 . S
C892 C890 1.478 . S
C892 C894 1.381 . S
C892 C898 1.383 . S
C893 C889 1.495 . S
C893 H899 0.959 . S
C893 H900 0.961 . S
C893 H901 0.960 . S
C894 C892 1.381 . S
C894 C895 1.394 . S
C894 H902 0.930 . S
C895 C894 1.394 . S
C895 C896 1.383 . S
C895 H903 0.929 . S
C896 C895 1.383 . S
C896 C897 1.377 . S
C897 H881 0.930 . S
C897 C896 1.377 . S
C897 C898 1.379 . S
C898 H882 0.931 . S
C898 C892 1.383 . S
C898 C897 1.379 . S
H899 C893 0.959 . S
H900 C893 0.961 . S
H901 C893 0.960 . S
H902 C894 0.930 . S
H903 C895 0.929 . S
H904 C912 0.929 . S
H905 C914 0.930 . S
H906 C916 0.930 . S
H907 C919 0.929 . S
H908 C922 0.930 . S
H909 C924 0.960 . S
H910 C924 0.960 . S
H911 C924 0.960 . S
C912 H904 0.929 . S
C912 C913 1.377 . S
C912 C914 1.384 . S
C913 C912 1.377 . S
C913 C919 1.390 . S
C914 H905 0.930 . S
C914 C912 1.384 . S
C914 C915 1.372 . S
C915 C914 1.372 . S
C915 C916 1.400 . S
C915 C920 1.490 . S
C916 H906 0.930 . S
C916 C915 1.400 . S
C916 C919 1.386 . S
H917 C933 0.930 . S
H918 C934 0.931 . S
C919 H907 0.929 . S
C919 C913 1.390 . S
C919 C916 1.386 . S
C920 C915 1.490 . S
C920 C922 1.395 . S
C920 C923 1.403 . S
H921 C927 0.930 . S
C922 H908 0.930 . S
C922 C920 1.395 . S
C922 C925 1.403 . S
C923 C920 1.403 . S
C923 C924 1.524 . S
C923 C927 1.400 . S
C924 H909 0.960 . S
C924 H910 0.960 . S
C924 H911 0.960 . S
C924 C923 1.524 . S
C925 C922 1.403 . S
C925 C926 1.392 . S
C925 C929 1.495 . S
C926 C925 1.392 . S
C926 C927 1.385 . S
C926 C928 1.478 . S
C927 H921 0.930 . S
C927 C923 1.400 . S
C927 C926 1.385 . S
C928 C926 1.478 . S
C928 C930 1.381 . S
C928 C934 1.383 . S
C929 C925 1.495 . S
C929 H935 0.959 . S
C929 H936 0.961 . S
C929 H937 0.960 . S
C930 C928 1.381 . S
C930 C931 1.394 . S
C930 H938 0.930 . S
C931 C930 1.394 . S
C931 C932 1.383 . S
C931 H939 0.929 . S
C932 C931 1.383 . S
C932 C933 1.377 . S
C933 H917 0.930 . S
C933 C932 1.377 . S
C933 C934 1.379 . S
C934 H918 0.931 . S
C934 C928 1.383 . S
C934 C933 1.379 . S
H935 C929 0.959 . S
H936 C929 0.961 . S
H937 C929 0.960 . S
H938 C930 0.930 . S
H939 C931 0.929 . S
H940 C948 0.929 . S
H941 C950 0.930 . S
H942 C952 0.930 . S
H943 C955 0.929 . S
H944 C958 0.930 . S
H945 C960 0.960 . S
H946 C960 0.960 . S
H947 C960 0.960 . S
C948 H940 0.929 . S
C948 C949 1.377 . S
C948 C950 1.384 . S
C949 C948 1.377 . S
C949 C955 1.390 . S
C950 H941 0.930 . S
C950 C948 1.384 . S
C950 C951 1.372 . S
C951 C950 1.372 . S
C951 C952 1.400 . S
C951 C956 1.490 . S
C952 H942 0.930 . S
C952 C951 1.400 . S
C952 C955 1.386 . S
H953 C969 0.930 . S
H954 C970 0.931 . S
C955 H943 0.929 . S
C955 C949 1.390 . S
C955 C952 1.386 . S
C956 C951 1.490 . S
C956 C958 1.395 . S
C956 C959 1.403 . S
H957 C963 0.930 . S
C958 H944 0.930 . S
C958 C956 1.395 . S
C958 C961 1.403 . S
C959 C956 1.403 . S
C959 C960 1.524 . S
C959 C963 1.400 . S
C960 H945 0.960 . S
C960 H946 0.960 . S
C960 H947 0.960 . S
C960 C959 1.524 . S
C961 C958 1.403 . S
C961 C962 1.392 . S
C961 C965 1.495 . S
C962 C961 1.392 . S
C962 C963 1.385 . S
C962 C964 1.478 . S
C963 H957 0.930 . S
C963 C959 1.400 . S
C963 C962 1.385 . S
C964 C962 1.478 . S
C964 C966 1.381 . S
C964 C970 1.383 . S
C965 C961 1.495 . S
C965 H971 0.959 . S
C965 H972 0.961 . S
C965 H973 0.960 . S
C966 C964 1.381 . S
C966 C967 1.394 . S
C966 H974 0.930 . S
C967 C966 1.394 . S
C967 C968 1.383 . S
C967 H975 0.896 1_556 S
C968 C967 1.383 . S
C968 C969 1.377 . S
C969 H953 0.930 . S
C969 C968 1.377 . S
C969 C970 1.379 . S
C970 H954 0.931 . S
C970 C964 1.383 . S
C970 C969 1.379 . S
H971 C965 0.959 . S
H972 C965 0.961 . S
H973 C965 0.960 . S
H974 C966 0.930 . S
H975 C967 0.896 1_554 S
H976 C984 0.929 . S
H977 C986 0.930 . S
H978 C988 0.930 . S
H979 C991 0.929 . S
H980 C994 0.930 . S
H981 C996 0.960 . S
H982 C996 0.960 . S
H983 C996 0.960 . S
C984 H976 0.929 . S
C984 C985 1.377 . S
C984 C986 1.384 . S
C985 C984 1.377 . S
C985 C991 1.390 . S
C986 H977 0.930 . S
C986 C984 1.384 . S
C986 C987 1.372 . S
C987 C986 1.372 . S
C987 C988 1.400 . S
C987 C992 1.490 . S
C988 H978 0.930 . S
C988 C987 1.400 . S
C988 C991 1.386 . S
H989 C1005 0.930 . S
H990 C1006 0.931 . S
C991 H979 0.929 . S
C991 C985 1.390 . S
C991 C988 1.386 . S
C992 C987 1.490 . S
C992 C994 1.395 . S
C992 C995 1.403 . S
H993 C999 0.930 . S
C994 H980 0.930 . S
C994 C992 1.395 . S
C994 C997 1.403 . S
C995 C992 1.403 . S
C995 C996 1.524 . S
C995 C999 1.400 . S
C996 H981 0.960 . S
C996 H982 0.960 . S
C996 H983 0.960 . S
C996 C995 1.524 . S
C997 C994 1.403 . S
C997 C998 1.392 . S
C997 C1001 1.495 . S
C998 C997 1.392 . S
C998 C999 1.385 . S
C998 C1000 1.478 . S
C999 H993 0.930 . S
C999 C995 1.400 . S
C999 C998 1.385 . S
C1000 C998 1.478 . S
C1000 C1002 1.381 . S
C1000 C1006 1.383 . S
C1001 C997 1.495 . S
C1001 H1007 0.959 . S
C1001 H1008 0.961 . S
C1001 H1009 0.960 . S
C1002 C1000 1.381 . S
C1002 C1003 1.394 . S
C1002 H1010 0.930 . S
C1003 C1002 1.394 . S
C1003 C1004 1.383 . S
C1003 H1011 0.929 . S
C1004 C1003 1.383 . S
C1004 C1005 1.377 . S
C1005 H989 0.930 . S
C1005 C1004 1.377 . S
C1005 C1006 1.379 . S
C1006 H990 0.931 . S
C1006 C1000 1.383 . S
C1006 C1005 1.379 . S
H1007 C1001 0.959 . S
H1008 C1001 0.961 . S
H1009 C1001 0.960 . S
H1010 C1002 0.930 . S
H1011 C1003 0.929 . S
H1012 C1020 0.929 . S
H1013 C1022 0.930 . S
H1014 C1024 0.930 . S
H1015 C1027 0.929 . S
H1016 C1030 0.930 . S
H1017 C1032 0.960 . S
H1018 C1032 0.960 . S
H1019 C1032 0.960 . S
C1020 H1012 0.929 . S
C1020 C1021 1.377 . S
C1020 C1022 1.384 . S
C1021 C1020 1.377 . S
C1021 C1027 1.390 . S
C1022 H1013 0.930 . S
C1022 C1020 1.384 . S
C1022 C1023 1.372 . S
C1023 C1022 1.372 . S
C1023 C1024 1.400 . S
C1023 C1028 1.490 . S
C1024 H1014 0.930 . S
C1024 C1023 1.400 . S
C1024 C1027 1.386 . S
H1025 C1041 0.930 . S
H1026 C1042 0.931 . S
C1027 H1015 0.929 . S
C1027 C1021 1.390 . S
C1027 C1024 1.386 . S
C1028 C1023 1.490 . S
C1028 C1030 1.395 . S
C1028 C1031 1.403 . S
H1029 C1035 0.930 . S
C1030 H1016 0.930 . S
C1030 C1028 1.395 . S
C1030 C1033 1.403 . S
C1031 C1028 1.403 . S
C1031 C1032 1.524 . S
C1031 C1035 1.400 . S
C1032 H1017 0.960 . S
C1032 H1018 0.960 . S
C1032 H1019 0.960 . S
C1032 C1031 1.524 . S
C1033 C1030 1.403 . S
C1033 C1034 1.392 . S
C1033 C1037 1.495 . S
C1034 C1033 1.392 . S
C1034 C1035 1.385 . S
C1034 C1036 1.478 . S
C1035 H1029 0.930 . S
C1035 C1031 1.400 . S
C1035 C1034 1.385 . S
C1036 C1034 1.478 . S
C1036 C1038 1.381 . S
C1036 C1042 1.383 . S
C1037 C1033 1.495 . S
C1037 H1043 0.959 . S
C1037 H1044 0.961 . S
C1037 H1045 0.960 . S
C1038 C1036 1.381 . S
C1038 C1039 1.394 . S
C1038 H1046 0.930 . S
C1039 C1038 1.394 . S
C1039 C1040 1.383 . S
C1039 H1047 0.929 . S
C1040 C1039 1.383 . S
C1040 C1041 1.377 . S
C1041 H1025 0.930 . S
C1041 C1040 1.377 . S
C1041 C1042 1.379 . S
C1042 H1026 0.931 . S
C1042 C1036 1.383 . S
C1042 C1041 1.379 . S
H1043 C1037 0.959 . S
H1044 C1037 0.961 . S
H1045 C1037 0.960 . S
H1046 C1038 0.930 . S
H1047 C1039 0.929 . S
H1048 C1056 0.929 . S
H1049 C1058 0.930 . S
H1050 C1060 0.930 . S
H1051 C1063 0.929 . S
H1052 C1066 0.930 . S
H1053 C1068 0.960 . S
H1054 C1068 0.960 . S
H1055 C1068 0.960 . S
C1056 H1048 0.929 . S
C1056 C1057 1.377 . S
C1056 C1058 1.384 . S
C1057 C1056 1.377 . S
C1057 C1063 1.390 . S
C1058 H1049 0.930 . S
C1058 C1056 1.384 . S
C1058 C1059 1.372 . S
C1059 C1058 1.372 . S
C1059 C1060 1.400 . S
C1059 C1064 1.490 . S
C1060 H1050 0.930 . S
C1060 C1059 1.400 . S
C1060 C1063 1.386 . S
H1061 C1077 0.930 . S
H1062 C1078 0.931 . S
C1063 H1051 0.929 . S
C1063 C1057 1.390 . S
C1063 C1060 1.386 . S
C1064 C1059 1.490 . S
C1064 C1066 1.395 . S
C1064 C1067 1.403 . S
H1065 C1071 0.930 . S
C1066 H1052 0.930 . S
C1066 C1064 1.395 . S
C1066 C1069 1.403 . S
C1067 C1064 1.403 . S
C1067 C1068 1.524 . S
C1067 C1071 1.400 . S
C1068 H1053 0.960 . S
C1068 H1054 0.960 . S
C1068 H1055 0.960 . S
C1068 C1067 1.524 . S
C1069 C1066 1.403 . S
C1069 C1070 1.392 . S
C1069 C1073 1.495 . S
C1070 C1069 1.392 . S
C1070 C1071 1.385 . S
C1070 C1072 1.478 . S
C1071 H1065 0.930 . S
C1071 C1067 1.400 . S
C1071 C1070 1.385 . S
C1072 C1070 1.478 . S
C1072 C1074 1.381 . S
C1072 C1078 1.383 . S
C1073 C1069 1.495 . S
C1073 H1079 0.959 . S
C1073 H1080 0.961 . S
C1073 H1081 0.960 . S
C1074 C1072 1.381 . S
C1074 C1075 1.394 . S
C1074 H1082 0.930 . S
C1075 C1074 1.394 . S
C1075 C1076 1.383 . S
C1075 H1083 0.929 . S
C1076 C1075 1.383 . S
C1076 C1077 1.377 . S
C1077 H1061 0.930 . S
C1077 C1076 1.377 . S
C1077 C1078 1.379 . S
C1078 H1062 0.931 . S
C1078 C1072 1.383 . S
C1078 C1077 1.379 . S
H1079 C1073 0.959 . S
H1080 C1073 0.961 . S
H1081 C1073 0.960 . S
H1082 C1074 0.930 . S
H1083 C1075 0.929 . S
H1084 C1092 0.929 . S
H1085 C1094 0.930 . S
H1086 C1096 0.930 . S
H1087 C1099 0.929 . S
H1088 C1102 0.930 . S
H1089 C1104 0.960 . S
H1090 C1104 0.960 . S
H1091 C1104 0.960 . S
C1092 H1084 0.929 . S
C1092 C1093 1.377 . S
C1092 C1094 1.384 . S
C1093 C1092 1.377 . S
C1093 C1099 1.390 . S
C1094 H1085 0.930 . S
C1094 C1092 1.384 . S
C1094 C1095 1.372 . S
C1095 C1094 1.372 . S
C1095 C1096 1.400 . S
C1095 C1100 1.490 . S
C1096 H1086 0.930 . S
C1096 C1095 1.400 . S
C1096 C1099 1.386 . S
H1097 C1113 0.930 . S
H1098 C1114 0.931 . S
C1099 H1087 0.929 . S
C1099 C1093 1.390 . S
C1099 C1096 1.386 . S
C1100 C1095 1.490 . S
C1100 C1102 1.395 . S
C1100 C1103 1.403 . S
H1101 C1107 0.930 . S
C1102 H1088 0.930 . S
C1102 C1100 1.395 . S
C1102 C1105 1.403 . S
C1103 C1100 1.403 . S
C1103 C1104 1.524 . S
C1103 C1107 1.400 . S
C1104 H1089 0.960 . S
C1104 H1090 0.960 . S
C1104 H1091 0.960 . S
C1104 C1103 1.524 . S
C1105 C1102 1.403 . S
C1105 C1106 1.392 . S
C1105 C1109 1.495 . S
C1106 C1105 1.392 . S
C1106 C1107 1.385 . S
C1106 C1108 1.478 . S
C1107 H1101 0.930 . S
C1107 C1103 1.400 . S
C1107 C1106 1.385 . S
C1108 C1106 1.478 . S
C1108 C1110 1.381 . S
C1108 C1114 1.383 . S
C1109 C1105 1.495 . S
C1109 H1115 0.959 . S
C1109 H1116 0.961 . S
C1109 H1117 0.960 . S
C1110 C1108 1.381 . S
C1110 C1111 1.394 . S
C1110 H1118 0.930 . S
C1111 C1110 1.394 . S
C1111 C1112 1.383 . S
C1111 H1119 0.929 . S
C1112 C1111 1.383 . S
C1112 C1113 1.377 . S
C1113 H1097 0.930 . S
C1113 C1112 1.377 . S
C1113 C1114 1.379 . S
C1114 H1098 0.931 . S
C1114 C1108 1.383 . S
C1114 C1113 1.379 . S
H1115 C1109 0.959 . S
H1116 C1109 0.961 . S
H1117 C1109 0.960 . S
H1118 C1110 0.930 . S
H1119 C1111 0.929 . S
H1120 C1128 0.929 . S
H1121 C1130 0.930 . S
H1122 C1132 0.930 . S
H1123 C1135 0.929 . S
H1124 C1138 0.930 . S
H1125 C1140 0.960 . S
H1126 C1140 0.960 . S
H1127 C1140 0.960 . S
C1128 H1120 0.929 . S
C1128 C1129 1.377 . S
C1128 C1130 1.384 . S
C1129 C1128 1.377 . S
C1129 C1135 1.390 . S
C1130 H1121 0.930 . S
C1130 C1128 1.384 . S
C1130 C1131 1.372 . S
C1131 C1130 1.372 . S
C1131 C1132 1.400 . S
C1131 C1136 1.490 . S
C1132 H1122 0.930 . S
C1132 C1131 1.400 . S
C1132 C1135 1.386 . S
H1133 C1149 0.930 . S
H1134 C1150 0.931 . S
C1135 H1123 0.929 . S
C1135 C1129 1.390 . S
C1135 C1132 1.386 . S
C1136 C1131 1.490 . S
C1136 C1138 1.395 . S
C1136 C1139 1.403 . S
H1137 C1143 0.930 . S
C1138 H1124 0.930 . S
C1138 C1136 1.395 . S
C1138 C1141 1.403 . S
C1139 C1136 1.403 . S
C1139 C1140 1.524 . S
C1139 C1143 1.400 . S
C1140 H1125 0.960 . S
C1140 H1126 0.960 . S
C1140 H1127 0.960 . S
C1140 C1139 1.524 . S
C1141 C1138 1.403 . S
C1141 C1142 1.392 . S
C1141 C1145 1.495 . S
C1142 C1141 1.392 . S
C1142 C1143 1.385 . S
C1142 C1144 1.478 . S
C1143 H1137 0.930 . S
C1143 C1139 1.400 . S
C1143 C1142 1.385 . S
C1144 C1142 1.478 . S
C1144 C1146 1.381 . S
C1144 C1150 1.383 . S
C1145 C1141 1.495 . S
C1145 H1151 0.959 . S
C1145 H1152 0.961 . S
C1145 H1153 0.960 . S
C1146 C1144 1.381 . S
C1146 C1147 1.394 . S
C1146 H1154 0.930 . S
C1147 C1146 1.394 . S
C1147 C1148 1.383 . S
C1147 H1155 0.929 . S
C1148 C1147 1.383 . S
C1148 C1149 1.377 . S
C1149 H1133 0.930 . S
C1149 C1148 1.377 . S
C1149 C1150 1.379 . S
C1150 H1134 0.931 . S
C1150 C1144 1.383 . S
C1150 C1149 1.379 . S
H1151 C1145 0.959 . S
H1152 C1145 0.961 . S
H1153 C1145 0.960 . S
H1154 C1146 0.930 . S
H1155 C1147 0.929 . S
H1156 C1164 0.929 . S
H1157 C1166 0.930 . S
H1158 C1168 0.930 . S
H1159 C1171 0.929 . S
H1160 C1174 0.930 . S
H1161 C1176 0.960 . S
H1162 C1176 0.960 . S
H1163 C1176 0.960 . S
C1164 H1156 0.929 . S
C1164 C1165 1.377 . S
C1164 C1166 1.384 . S
C1165 C1164 1.377 . S
C1165 C1171 1.390 . S
C1166 H1157 0.930 . S
C1166 C1164 1.384 . S
C1166 C1167 1.372 . S
C1167 C1166 1.372 . S
C1167 C1168 1.400 . S
C1167 C1172 1.490 . S
C1168 H1158 0.930 . S
C1168 C1167 1.400 . S
C1168 C1171 1.386 . S
H1169 C1185 0.930 . S
H1170 C1186 0.931 . S
C1171 H1159 0.929 . S
C1171 C1165 1.390 . S
C1171 C1168 1.386 . S
C1172 C1167 1.490 . S
C1172 C1174 1.395 . S
C1172 C1175 1.403 . S
H1173 C1179 0.930 . S
C1174 H1160 0.930 . S
C1174 C1172 1.395 . S
C1174 C1177 1.403 . S
C1175 C1172 1.403 . S
C1175 C1176 1.524 . S
C1175 C1179 1.400 . S
C1176 H1161 0.960 . S
C1176 H1162 0.960 . S
C1176 H1163 0.960 . S
C1176 C1175 1.524 . S
C1177 C1174 1.403 . S
C1177 C1178 1.392 . S
C1177 C1181 1.495 . S
C1178 C1177 1.392 . S
C1178 C1179 1.385 . S
C1178 C1180 1.478 . S
C1179 H1173 0.930 . S
C1179 C1175 1.400 . S
C1179 C1178 1.385 . S
C1180 C1178 1.478 . S
C1180 C1182 1.381 . S
C1180 C1186 1.383 . S
C1181 C1177 1.495 . S
C1181 H1187 0.959 . S
C1181 H1188 0.961 . S
C1181 H1189 0.960 . S
C1182 C1180 1.381 . S
C1182 C1183 1.394 . S
C1182 H1190 0.930 . S
C1183 C1182 1.394 . S
C1183 C1184 1.383 . S
C1183 H1191 0.929 . S
C1184 C1183 1.383 . S
C1184 C1185 1.377 . S
C1185 H1169 0.930 . S
C1185 C1184 1.377 . S
C1185 C1186 1.379 . S
C1186 H1170 0.931 . S
C1186 C1180 1.383 . S
C1186 C1185 1.379 . S
H1187 C1181 0.959 . S
H1188 C1181 0.961 . S
H1189 C1181 0.960 . S
H1190 C1182 0.930 . S
H1191 C1183 0.929 . S
H1192 C1200 0.929 . S
H1193 C1202 0.930 . S
H1194 C1204 0.930 . S
H1195 C1207 0.929 . S
H1196 C1210 0.930 . S
H1197 C1212 0.960 . S
H1198 C1212 0.960 . S
H1199 C1212 0.960 . S
C1200 H1192 0.929 . S
C1200 C1201 1.377 . S
C1200 C1202 1.384 . S
C1201 C1200 1.377 . S
C1201 C1207 1.390 . S
C1202 H1193 0.930 . S
C1202 C1200 1.384 . S
C1202 C1203 1.372 . S
C1203 C1202 1.372 . S
C1203 C1204 1.400 . S
C1203 C1208 1.490 . S
C1204 H1194 0.930 . S
C1204 C1203 1.400 . S
C1204 C1207 1.386 . S
H1205 C1221 0.930 . S
H1206 C1222 0.931 . S
C1207 H1195 0.929 . S
C1207 C1201 1.390 . S
C1207 C1204 1.386 . S
C1208 C1203 1.490 . S
C1208 C1210 1.395 . S
C1208 C1211 1.403 . S
H1209 C1215 0.930 . S
C1210 H1196 0.930 . S
C1210 C1208 1.395 . S
C1210 C1213 1.403 . S
C1211 C1208 1.403 . S
C1211 C1212 1.524 . S
C1211 C1215 1.400 . S
C1212 H1197 0.960 . S
C1212 H1198 0.960 . S
C1212 H1199 0.960 . S
C1212 C1211 1.524 . S
C1213 C1210 1.403 . S
C1213 C1214 1.392 . S
C1213 C1217 1.495 . S
C1214 C1213 1.392 . S
C1214 C1215 1.385 . S
C1214 C1216 1.478 . S
C1215 H1209 0.930 . S
C1215 C1211 1.400 . S
C1215 C1214 1.385 . S
C1216 C1214 1.478 . S
C1216 C1218 1.381 . S
C1216 C1222 1.383 . S
C1217 C1213 1.495 . S
C1217 H1223 0.959 . S
C1217 H1224 0.961 . S
C1217 H1225 0.960 . S
C1218 C1216 1.381 . S
C1218 C1219 1.394 . S
C1218 H1226 0.930 . S
C1219 C1218 1.394 . S
C1219 C1220 1.383 . S
C1219 H1227 0.929 . S
C1220 C1219 1.383 . S
C1220 C1221 1.377 . S
C1221 H1205 0.930 . S
C1221 C1220 1.377 . S
C1221 C1222 1.379 . S
C1222 H1206 0.931 . S
C1222 C1216 1.383 . S
C1222 C1221 1.379 . S
H1223 C1217 0.959 . S
H1224 C1217 0.961 . S
H1225 C1217 0.960 . S
H1226 C1218 0.930 . S
H1227 C1219 0.929 . S
H1228 C1236 0.929 . S
H1229 C1238 0.930 . S
H1230 C1240 0.930 . S
H1231 C1243 0.929 . S
H1232 C1246 0.930 . S
H1233 C1248 0.960 . S
H1234 C1248 0.960 . S
H1235 C1248 0.960 . S
C1236 H1228 0.929 . S
C1236 C1237 1.377 . S
C1236 C1238 1.384 . S
C1237 C1236 1.377 . S
C1237 C1243 1.390 . S
C1238 H1229 0.930 . S
C1238 C1236 1.384 . S
C1238 C1239 1.372 . S
C1239 C1238 1.372 . S
C1239 C1240 1.400 . S
C1239 C1244 1.490 . S
C1240 H1230 0.930 . S
C1240 C1239 1.400 . S
C1240 C1243 1.386 . S
H1241 C1257 0.930 . S
H1242 C1258 0.931 . S
C1243 H1231 0.929 . S
C1243 C1237 1.390 . S
C1243 C1240 1.386 . S
C1244 C1239 1.490 . S
C1244 C1246 1.395 . S
C1244 C1247 1.403 . S
H1245 C1251 0.930 . S
C1246 H1232 0.930 . S
C1246 C1244 1.395 . S
C1246 C1249 1.403 . S
C1247 C1244 1.403 . S
C1247 C1248 1.524 . S
C1247 C1251 1.400 . S
C1248 H1233 0.960 . S
C1248 H1234 0.960 . S
C1248 H1235 0.960 . S
C1248 C1247 1.524 . S
C1249 C1246 1.403 . S
C1249 C1250 1.392 . S
C1249 C1253 1.495 . S
C1250 C1249 1.392 . S
C1250 C1251 1.385 . S
C1250 C1252 1.478 . S
C1251 H1245 0.930 . S
C1251 C1247 1.400 . S
C1251 C1250 1.385 . S
C1252 C1250 1.478 . S
C1252 C1254 1.381 . S
C1252 C1258 1.383 . S
C1253 C1249 1.495 . S
C1253 H1259 0.959 . S
C1253 H1260 0.961 . S
C1253 H1261 0.960 . S
C1254 C1252 1.381 . S
C1254 C1255 1.394 . S
C1254 H1262 0.930 . S
C1255 C1254 1.394 . S
C1255 C1256 1.383 . S
C1255 H1263 0.929 1_556 S
C1256 C1255 1.383 . S
C1256 C1257 1.377 . S
C1257 H1241 0.930 . S
C1257 C1256 1.377 . S
C1257 C1258 1.379 . S
C1258 H1242 0.931 . S
C1258 C1252 1.383 . S
C1258 C1257 1.379 . S
H1259 C1253 0.959 . S
H1260 C1253 0.961 . S
H1261 C1253 0.960 . S
H1262 C1254 0.930 . S
H1263 C1255 0.929 1_554 S
H1264 C1272 0.929 . S
H1265 C1274 0.930 . S
H1266 C1276 0.930 . S
H1267 C1279 0.929 . S
H1268 C1282 0.930 . S
H1269 C1284 0.960 . S
H1270 C1284 0.960 . S
H1271 C1284 0.960 . S
C1272 H1264 0.929 . S
C1272 C1273 1.377 . S
C1272 C1274 1.384 . S
C1273 C1272 1.377 . S
C1273 C1279 1.390 . S
C1274 H1265 0.930 . S
C1274 C1272 1.384 . S
C1274 C1275 1.372 . S
C1275 C1274 1.372 . S
C1275 C1276 1.400 . S
C1275 C1280 1.490 . S
C1276 H1266 0.930 . S
C1276 C1275 1.400 . S
C1276 C1279 1.386 . S
H1277 C1293 0.930 . S
H1278 C1294 0.931 . S
C1279 H1267 0.929 . S
C1279 C1273 1.390 . S
C1279 C1276 1.386 . S
C1280 C1275 1.490 . S
C1280 C1282 1.395 . S
C1280 C1283 1.403 . S
H1281 C1287 0.930 . S
C1282 H1268 0.930 . S
C1282 C1280 1.395 . S
C1282 C1285 1.403 . S
C1283 C1280 1.403 . S
C1283 C1284 1.524 . S
C1283 C1287 1.400 . S
C1284 H1269 0.960 . S
C1284 H1270 0.960 . S
C1284 H1271 0.960 . S
C1284 C1283 1.524 . S
C1285 C1282 1.403 . S
C1285 C1286 1.392 . S
C1285 C1289 1.495 . S
C1286 C1285 1.392 . S
C1286 C1287 1.385 . S
C1286 C1288 1.478 . S
C1287 H1281 0.930 . S
C1287 C1283 1.400 . S
C1287 C1286 1.385 . S
C1288 C1286 1.478 . S
C1288 C1290 1.381 . S
C1288 C1294 1.383 . S
C1289 C1285 1.495 . S
C1289 H1295 0.959 . S
C1289 H1296 0.961 . S
C1289 H1297 0.960 . S
C1290 C1288 1.381 . S
C1290 C1291 1.394 . S
C1290 H1298 0.930 . S
C1291 C1290 1.394 . S
C1291 C1292 1.383 . S
C1291 H1299 0.929 . S
C1292 C1291 1.383 . S
C1292 C1293 1.377 . S
C1293 H1277 0.930 . S
C1293 C1292 1.377 . S
C1293 C1294 1.379 . S
C1294 H1278 0.931 . S
C1294 C1288 1.383 . S
C1294 C1293 1.379 . S
H1295 C1289 0.959 . S
H1296 C1289 0.961 . S
H1297 C1289 0.960 . S
H1298 C1290 0.930 . S
H1299 C1291 0.929 . S
H1300 C1308 0.929 . S
H1301 C1310 0.930 . S
H1302 C1312 0.930 . S
H1303 C1315 0.929 . S
H1304 C1318 0.930 . S
H1305 C1320 0.960 . S
H1306 C1320 0.960 . S
H1307 C1320 0.960 . S
C1308 H1300 0.929 . S
C1308 C1309 1.377 . S
C1308 C1310 1.384 . S
C1309 C1308 1.377 . S
C1309 C1315 1.390 . S
C1310 H1301 0.930 . S
C1310 C1308 1.384 . S
C1310 C1311 1.372 . S
C1311 C1310 1.372 . S
C1311 C1312 1.400 . S
C1311 C1316 1.490 . S
C1312 H1302 0.930 . S
C1312 C1311 1.400 . S
C1312 C1315 1.386 . S
H1313 C1329 0.930 . S
H1314 C1330 0.931 . S
C1315 H1303 0.929 . S
C1315 C1309 1.390 . S
C1315 C1312 1.386 . S
C1316 C1311 1.490 . S
C1316 C1318 1.395 . S
C1316 C1319 1.403 . S
H1317 C1323 0.930 . S
C1318 H1304 0.930 . S
C1318 C1316 1.395 . S
C1318 C1321 1.403 . S
C1319 C1316 1.403 . S
C1319 C1320 1.524 . S
C1319 C1323 1.400 . S
C1320 H1305 0.960 . S
C1320 H1306 0.960 . S
C1320 H1307 0.960 . S
C1320 C1319 1.524 . S
C1321 C1318 1.403 . S
C1321 C1322 1.392 . S
C1321 C1325 1.495 . S
C1322 C1321 1.392 . S
C1322 C1323 1.385 . S
C1322 C1324 1.478 . S
C1323 H1317 0.930 . S
C1323 C1319 1.400 . S
C1323 C1322 1.385 . S
C1324 C1322 1.478 . S
C1324 C1326 1.381 . S
C1324 C1330 1.383 . S
C1325 C1321 1.495 . S
C1325 H1331 0.959 . S
C1325 H1332 0.961 . S
C1325 H1333 0.960 . S
C1326 C1324 1.381 . S
C1326 C1327 1.394 . S
C1326 H1334 0.930 . S
C1327 C1326 1.394 . S
C1327 C1328 1.383 . S
C1327 H1335 0.929 . S
C1328 C1327 1.383 . S
C1328 C1329 1.377 . S
C1329 H1313 0.930 . S
C1329 C1328 1.377 . S
C1329 C1330 1.379 . S
C1330 H1314 0.931 . S
C1330 C1324 1.383 . S
C1330 C1329 1.379 . S
H1331 C1325 0.959 . S
H1332 C1325 0.961 . S
H1333 C1325 0.960 . S
H1334 C1326 0.930 . S
H1335 C1327 0.929 . S
H1336 C1344 0.929 . S
H1337 C1346 0.930 . S
H1338 C1348 0.930 . S
H1339 C1351 0.929 . S
H1340 C1354 0.930 . S
H1341 C1356 0.960 . S
H1342 C1356 0.960 . S
H1343 C1356 0.960 . S
C1344 H1336 0.929 . S
C1344 C1345 1.377 . S
C1344 C1346 1.384 . S
C1345 C1344 1.377 . S
C1345 C1351 1.390 . S
C1346 H1337 0.930 . S
C1346 C1344 1.384 . S
C1346 C1347 1.372 . S
C1347 C1346 1.372 . S
C1347 C1348 1.400 . S
C1347 C1352 1.490 . S
C1348 H1338 0.930 . S
C1348 C1347 1.400 . S
C1348 C1351 1.386 . S
H1349 C1365 0.930 . S
H1350 C1366 0.931 . S
C1351 H1339 0.929 . S
C1351 C1345 1.390 . S
C1351 C1348 1.386 . S
C1352 C1347 1.490 . S
C1352 C1354 1.395 . S
C1352 C1355 1.403 . S
H1353 C1359 0.930 . S
C1354 H1340 0.930 . S
C1354 C1352 1.395 . S
C1354 C1357 1.403 . S
C1355 C1352 1.403 . S
C1355 C1356 1.524 . S
C1355 C1359 1.400 . S
C1356 H1341 0.960 . S
C1356 H1342 0.960 . S
C1356 H1343 0.960 . S
C1356 C1355 1.524 . S
C1357 C1354 1.403 . S
C1357 C1358 1.392 . S
C1357 C1361 1.495 . S
C1358 C1357 1.392 . S
C1358 C1359 1.385 . S
C1358 C1360 1.478 . S
C1359 H1353 0.930 . S
C1359 C1355 1.400 . S
C1359 C1358 1.385 . S
C1360 C1358 1.478 . S
C1360 C1362 1.381 . S
C1360 C1366 1.383 . S
C1361 C1357 1.495 . S
C1361 H1367 0.959 . S
C1361 H1368 0.961 . S
C1361 H1369 0.960 . S
C1362 C1360 1.381 . S
C1362 C1363 1.394 . S
C1362 H1370 0.930 . S
C1363 C1362 1.394 . S
C1363 C1364 1.383 . S
C1363 H1371 0.929 . S
C1364 C1363 1.383 . S
C1364 C1365 1.377 . S
C1365 H1349 0.930 . S
C1365 C1364 1.377 . S
C1365 C1366 1.379 . S
C1366 H1350 0.931 . S
C1366 C1360 1.383 . S
C1366 C1365 1.379 . S
H1367 C1361 0.959 . S
H1368 C1361 0.961 . S
H1369 C1361 0.960 . S
H1370 C1362 0.930 . S
H1371 C1363 0.929 . S
H1372 C1380 0.929 . S
H1373 C1382 0.930 . S
H1374 C1384 0.930 . S
H1375 C1387 0.929 . S
H1376 C1390 0.930 . S
H1377 C1392 0.960 . S
H1378 C1392 0.960 . S
H1379 C1392 0.960 . S
C1380 H1372 0.929 . S
C1380 C1381 1.377 . S
C1380 C1382 1.384 . S
C1381 C1380 1.377 . S
C1381 C1387 1.390 . S
C1382 H1373 0.930 . S
C1382 C1380 1.384 . S
C1382 C1383 1.372 . S
C1383 C1382 1.372 . S
C1383 C1384 1.400 . S
C1383 C1388 1.490 . S
C1384 H1374 0.930 . S
C1384 C1383 1.400 . S
C1384 C1387 1.386 . S
H1385 C1401 0.930 . S
H1386 C1402 0.931 . S
C1387 H1375 0.929 . S
C1387 C1381 1.390 . S
C1387 C1384 1.386 . S
C1388 C1383 1.490 . S
C1388 C1390 1.395 . S
C1388 C1391 1.403 . S
H1389 C1395 0.930 . S
C1390 H1376 0.930 . S
C1390 C1388 1.395 . S
C1390 C1393 1.403 . S
C1391 C1388 1.403 . S
C1391 C1392 1.524 . S
C1391 C1395 1.400 . S
C1392 H1377 0.960 . S
C1392 H1378 0.960 . S
C1392 H1379 0.960 . S
C1392 C1391 1.524 . S
C1393 C1390 1.403 . S
C1393 C1394 1.392 . S
C1393 C1397 1.495 . S
C1394 C1393 1.392 . S
C1394 C1395 1.385 . S
C1394 C1396 1.478 . S
C1395 H1389 0.930 . S
C1395 C1391 1.400 . S
C1395 C1394 1.385 . S
C1396 C1394 1.478 . S
C1396 C1398 1.381 . S
C1396 C1402 1.383 . S
C1397 C1393 1.495 . S
C1397 H1403 0.959 . S
C1397 H1404 0.961 . S
C1397 H1405 0.960 . S
C1398 C1396 1.381 . S
C1398 C1399 1.394 . S
C1398 H1406 0.930 . S
C1399 C1398 1.394 . S
C1399 C1400 1.383 . S
C1399 H1407 0.929 . S
C1400 C1399 1.383 . S
C1400 C1401 1.377 . S
C1401 H1385 0.930 . S
C1401 C1400 1.377 . S
C1401 C1402 1.379 . S
C1402 H1386 0.931 . S
C1402 C1396 1.383 . S
C1402 C1401 1.379 . S
H1403 C1397 0.959 . S
H1404 C1397 0.961 . S
H1405 C1397 0.960 . S
H1406 C1398 0.930 . S
H1407 C1399 0.929 . S
H1408 C1416 0.929 . S
H1409 C1418 0.930 . S
H1410 C1420 0.930 . S
H1411 C1423 0.929 . S
H1412 C1426 0.930 . S
H1413 C1428 0.960 . S
H1414 C1428 0.960 . S
H1415 C1428 0.960 . S
C1416 H1408 0.929 . S
C1416 C1417 1.377 . S
C1416 C1418 1.384 . S
C1417 C1416 1.377 . S
C1417 C1423 1.390 . S
C1418 H1409 0.930 . S
C1418 C1416 1.384 . S
C1418 C1419 1.372 . S
C1419 C1418 1.372 . S
C1419 C1420 1.400 . S
C1419 C1424 1.490 . S
C1420 H1410 0.930 . S
C1420 C1419 1.400 . S
C1420 C1423 1.386 . S
H1421 C1437 0.930 . S
H1422 C1438 0.931 . S
C1423 H1411 0.929 . S
C1423 C1417 1.390 . S
C1423 C1420 1.386 . S
C1424 C1419 1.490 . S
C1424 C1426 1.395 . S
C1424 C1427 1.403 . S
H1425 C1431 0.930 . S
C1426 H1412 0.930 . S
C1426 C1424 1.395 . S
C1426 C1429 1.403 . S
C1427 C1424 1.403 . S
C1427 C1428 1.524 . S
C1427 C1431 1.400 . S
C1428 H1413 0.960 . S
C1428 H1414 0.960 . S
C1428 H1415 0.960 . S
C1428 C1427 1.524 . S
C1429 C1426 1.403 . S
C1429 C1430 1.392 . S
C1429 C1433 1.495 . S
C1430 C1429 1.392 . S
C1430 C1431 1.385 . S
C1430 C1432 1.478 . S
C1431 H1425 0.930 . S
C1431 C1427 1.400 . S
C1431 C1430 1.385 . S
C1432 C1430 1.478 . S
C1432 C1434 1.381 . S
C1432 C1438 1.383 . S
C1433 C1429 1.495 . S
C1433 H1439 0.959 . S
C1433 H1440 0.961 . S
C1433 H1441 0.960 . S
C1434 C1432 1.381 . S
C1434 C1435 1.394 . S
C1434 H1442 0.930 . S
C1435 C1434 1.394 . S
C1435 C1436 1.383 . S
C1435 H1443 0.929 . S
C1436 C1435 1.383 . S
C1436 C1437 1.377 . S
C1437 H1421 0.930 . S
C1437 C1436 1.377 . S
C1437 C1438 1.379 . S
C1438 H1422 0.931 . S
C1438 C1432 1.383 . S
C1438 C1437 1.379 . S
H1439 C1433 0.959 . S
H1440 C1433 0.961 . S
H1441 C1433 0.960 . S
H1442 C1434 0.930 . S
H1443 C1435 0.929 . S
H1444 C1452 0.929 . S
H1445 C1454 0.930 . S
H1446 C1456 0.930 . S
H1447 C1459 0.929 . S
H1448 C1462 0.930 . S
H1449 C1464 0.960 . S
H1450 C1464 0.960 . S
H1451 C1464 0.960 . S
C1452 H1444 0.929 . S
C1452 C1453 1.377 . S
C1452 C1454 1.384 . S
C1453 C1452 1.377 . S
C1453 C1459 1.390 . S
C1454 H1445 0.930 . S
C1454 C1452 1.384 . S
C1454 C1455 1.372 . S
C1455 C1454 1.372 . S
C1455 C1456 1.400 . S
C1455 C1460 1.490 . S
C1456 H1446 0.930 . S
C1456 C1455 1.400 . S
C1456 C1459 1.386 . S
H1457 C1473 0.930 . S
H1458 C1474 0.931 . S
C1459 H1447 0.929 . S
C1459 C1453 1.390 . S
C1459 C1456 1.386 . S
C1460 C1455 1.490 . S
C1460 C1462 1.395 . S
C1460 C1463 1.403 . S
H1461 C1467 0.930 . S
C1462 H1448 0.930 . S
C1462 C1460 1.395 . S
C1462 C1465 1.403 . S
C1463 C1460 1.403 . S
C1463 C1464 1.524 . S
C1463 C1467 1.400 . S
C1464 H1449 0.960 . S
C1464 H1450 0.960 . S
C1464 H1451 0.960 . S
C1464 C1463 1.524 . S
C1465 C1462 1.403 . S
C1465 C1466 1.392 . S
C1465 C1469 1.495 . S
C1466 C1465 1.392 . S
C1466 C1467 1.385 . S
C1466 C1468 1.478 . S
C1467 H1461 0.930 . S
C1467 C1463 1.400 . S
C1467 C1466 1.385 . S
C1468 C1466 1.478 . S
C1468 C1470 1.381 . S
C1468 C1474 1.383 . S
C1469 C1465 1.495 . S
C1469 H1475 0.959 . S
C1469 H1476 0.961 . S
C1469 H1477 0.960 . S
C1470 C1468 1.381 . S
C1470 C1471 1.394 . S
C1470 H1478 0.930 . S
C1471 C1470 1.394 . S
C1471 C1472 1.383 . S
C1471 H1479 0.929 . S
C1472 C1471 1.383 . S
C1472 C1473 1.377 . S
C1473 H1457 0.930 . S
C1473 C1472 1.377 . S
C1473 C1474 1.379 . S
C1474 H1458 0.931 . S
C1474 C1468 1.383 . S
C1474 C1473 1.379 . S
H1475 C1469 0.959 . S
H1476 C1469 0.961 . S
H1477 C1469 0.960 . S
H1478 C1470 0.930 . S
H1479 C1471 0.929 . S
H1480 C1488 0.929 . S
H1481 C1490 0.930 . S
H1482 C1492 0.930 . S
H1483 C1495 0.929 . S
H1484 C1498 0.930 . S
H1485 C1500 0.960 . S
H1486 C1500 0.960 . S
H1487 C1500 0.960 . S
C1488 H1480 0.929 . S
C1488 C1489 1.377 . S
C1488 C1490 1.384 . S
C1489 C1488 1.377 . S
C1489 C1495 1.390 . S
C1490 H1481 0.930 . S
C1490 C1488 1.384 . S
C1490 C1491 1.372 . S
C1491 C1490 1.372 . S
C1491 C1492 1.400 . S
C1491 C1496 1.490 . S
C1492 H1482 0.930 . S
C1492 C1491 1.400 . S
C1492 C1495 1.386 . S
H1493 C1509 0.930 . S
H1494 C1510 0.931 . S
C1495 H1483 0.929 . S
C1495 C1489 1.390 . S
C1495 C1492 1.386 . S
C1496 C1491 1.490 . S
C1496 C1498 1.395 . S
C1496 C1499 1.403 . S
H1497 C1503 0.930 . S
C1498 H1484 0.930 . S
C1498 C1496 1.395 . S
C1498 C1501 1.403 . S
C1499 C1496 1.403 . S
C1499 C1500 1.524 . S
C1499 C1503 1.400 . S
C1500 H1485 0.960 . S
C1500 H1486 0.960 . S
C1500 H1487 0.960 . S
C1500 C1499 1.524 . S
C1501 C1498 1.403 . S
C1501 C1502 1.392 . S
C1501 C1505 1.495 . S
C1502 C1501 1.392 . S
C1502 C1503 1.385 . S
C1502 C1504 1.478 . S
C1503 H1497 0.930 . S
C1503 C1499 1.400 . S
C1503 C1502 1.385 . S
C1504 C1502 1.478 . S
C1504 C1506 1.381 . S
C1504 C1510 1.383 . S
C1505 C1501 1.495 . S
C1505 H1511 0.959 . S
C1505 H1512 0.961 . S
C1505 H1513 0.960 . S
C1506 C1504 1.381 . S
C1506 C1507 1.394 . S
C1506 H1514 0.930 . S
C1507 C1506 1.394 . S
C1507 C1508 1.383 . S
C1507 H1515 0.929 . S
C1508 C1507 1.383 . S
C1508 C1509 1.377 . S
C1509 H1493 0.930 . S
C1509 C1508 1.377 . S
C1509 C1510 1.379 . S
C1510 H1494 0.931 . S
C1510 C1504 1.383 . S
C1510 C1509 1.379 . S
H1511 C1505 0.959 . S
H1512 C1505 0.961 . S
H1513 C1505 0.960 . S
H1514 C1506 0.930 . S
H1515 C1507 0.929 . S
H1516 C1524 0.929 . S
H1517 C1526 0.930 . S
H1518 C1528 0.930 . S
H1519 C1531 0.929 . S
H1520 C1534 0.930 . S
H1521 C1536 0.960 . S
H1522 C1536 0.960 . S
H1523 C1536 0.960 . S
C1524 H1516 0.929 . S
C1524 C1525 1.377 . S
C1524 C1526 1.384 . S
C1525 C1524 1.377 . S
C1525 C1531 1.390 . S
C1526 H1517 0.930 . S
C1526 C1524 1.384 . S
C1526 C1527 1.372 . S
C1527 C1526 1.372 . S
C1527 C1528 1.400 . S
C1527 C1532 1.490 . S
C1528 H1518 0.930 . S
C1528 C1527 1.400 . S
C1528 C1531 1.386 . S
H1529 C1545 0.930 . S
H1530 C1546 0.931 . S
C1531 H1519 0.929 . S
C1531 C1525 1.390 . S
C1531 C1528 1.386 . S
C1532 C1527 1.490 . S
C1532 C1534 1.395 . S
C1532 C1535 1.403 . S
H1533 C1539 0.930 . S
C1534 H1520 0.930 . S
C1534 C1532 1.395 . S
C1534 C1537 1.403 . S
C1535 C1532 1.403 . S
C1535 C1536 1.524 . S
C1535 C1539 1.400 . S
C1536 H1521 0.960 . S
C1536 H1522 0.960 . S
C1536 H1523 0.960 . S
C1536 C1535 1.524 . S
C1537 C1534 1.403 . S
C1537 C1538 1.392 . S
C1537 C1541 1.495 . S
C1538 C1537 1.392 . S
C1538 C1539 1.385 . S
C1538 C1540 1.478 . S
C1539 H1533 0.930 . S
C1539 C1535 1.400 . S
C1539 C1538 1.385 . S
C1540 C1538 1.478 . S
C1540 C1542 1.381 . S
C1540 C1546 1.383 . S
C1541 C1537 1.495 . S
C1541 H1547 0.959 . S
C1541 H1548 0.961 . S
C1541 H1549 0.960 . S
C1542 C1540 1.381 . S
C1542 C1543 1.394 . S
C1542 H1550 0.930 . S
C1543 C1542 1.394 . S
C1543 C1544 1.383 . S
C1543 H1551 0.929 . S
C1544 C1543 1.383 . S
C1544 C1545 1.377 . S
C1545 H1529 0.930 . S
C1545 C1544 1.377 . S
C1545 C1546 1.379 . S
C1546 H1530 0.931 . S
C1546 C1540 1.383 . S
C1546 C1545 1.379 . S
H1547 C1541 0.959 . S
H1548 C1541 0.961 . S
H1549 C1541 0.960 . S
H1550 C1542 0.930 . S
H1551 C1543 0.929 . S
H1552 C1560 0.929 . S
H1553 C1562 0.930 . S
H1554 C1564 0.930 . S
H1555 C1567 0.929 . S
H1556 C1570 0.930 . S
H1557 C1572 0.960 . S
H1558 C1572 0.960 . S
H1559 C1572 0.960 . S
C1560 H1552 0.929 . S
C1560 C1561 1.377 . S
C1560 C1562 1.384 . S
C1561 C1560 1.377 . S
C1561 C1567 1.390 . S
C1562 H1553 0.930 . S
C1562 C1560 1.384 . S
C1562 C1563 1.372 . S
C1563 C1562 1.372 . S
C1563 C1564 1.400 . S
C1563 C1568 1.490 . S
C1564 H1554 0.930 . S
C1564 C1563 1.400 . S
C1564 C1567 1.386 . S
H1565 C1581 0.930 . S
H1566 C1582 0.931 . S
C1567 H1555 0.929 . S
C1567 C1561 1.390 . S
C1567 C1564 1.386 . S
C1568 C1563 1.490 . S
C1568 C1570 1.395 . S
C1568 C1571 1.403 . S
H1569 C1575 0.930 . S
C1570 H1556 0.930 . S
C1570 C1568 1.395 . S
C1570 C1573 1.403 . S
C1571 C1568 1.403 . S
C1571 C1572 1.524 . S
C1571 C1575 1.400 . S
C1572 H1557 0.960 . S
C1572 H1558 0.960 . S
C1572 H1559 0.960 . S
C1572 C1571 1.524 . S
C1573 C1570 1.403 . S
C1573 C1574 1.392 . S
C1573 C1577 1.495 . S
C1574 C1573 1.392 . S
C1574 C1575 1.385 . S
C1574 C1576 1.478 . S
C1575 H1569 0.930 . S
C1575 C1571 1.400 . S
C1575 C1574 1.385 . S
C1576 C1574 1.478 . S
C1576 C1578 1.381 . S
C1576 C1582 1.383 . S
C1577 C1573 1.495 . S
C1577 H1583 0.959 . S
C1577 H1584 0.961 . S
C1577 H1585 0.960 . S
C1578 C1576 1.381 . S
C1578 C1579 1.394 . S
C1578 H1586 0.930 . S
C1579 C1578 1.394 . S
C1579 C1580 1.383 . S
C1579 H1587 0.929 . S
C1580 C1579 1.383 . S
C1580 C1581 1.377 . S
C1581 H1565 0.930 . S
C1581 C1580 1.377 . S
C1581 C1582 1.379 . S
C1582 H1566 0.931 . S
C1582 C1576 1.383 . S
C1582 C1581 1.379 . S
H1583 C1577 0.959 . S
H1584 C1577 0.961 . S
H1585 C1577 0.960 . S
H1586 C1578 0.930 . S
H1587 C1579 0.929 . S
H1588 C1596 0.929 . S
H1589 C1598 0.930 . S
H1590 C1600 0.930 . S
H1591 C1603 0.929 . S
H1592 C1606 0.930 . S
H1593 C1608 0.960 . S
H1594 C1608 0.960 . S
H1595 C1608 0.960 . S
C1596 H1588 0.929 . S
C1596 C1597 1.377 . S
C1596 C1598 1.384 . S
C1597 C1596 1.377 . S
C1597 C1603 1.390 . S
C1598 H1589 0.930 . S
C1598 C1596 1.384 . S
C1598 C1599 1.372 . S
C1599 C1598 1.372 . S
C1599 C1600 1.400 . S
C1599 C1604 1.490 . S
C1600 H1590 0.930 . S
C1600 C1599 1.400 . S
C1600 C1603 1.386 . S
H1601 C1617 0.930 . S
H1602 C1618 0.931 . S
C1603 H1591 0.929 . S
C1603 C1597 1.390 . S
C1603 C1600 1.386 . S
C1604 C1599 1.490 . S
C1604 C1606 1.395 . S
C1604 C1607 1.403 . S
H1605 C1611 0.930 . S
C1606 H1592 0.930 . S
C1606 C1604 1.395 . S
C1606 C1609 1.403 . S
C1607 C1604 1.403 . S
C1607 C1608 1.524 . S
C1607 C1611 1.400 . S
C1608 H1593 0.960 . S
C1608 H1594 0.960 . S
C1608 H1595 0.960 . S
C1608 C1607 1.524 . S
C1609 C1606 1.403 . S
C1609 C1610 1.392 . S
C1609 C1613 1.495 . S
C1610 C1609 1.392 . S
C1610 C1611 1.385 . S
C1610 C1612 1.478 . S
C1611 H1605 0.930 . S
C1611 C1607 1.400 . S
C1611 C1610 1.385 . S
C1612 C1610 1.478 . S
C1612 C1614 1.381 . S
C1612 C1618 1.383 . S
C1613 C1609 1.495 . S
C1613 H1619 0.959 . S
C1613 H1620 0.961 . S
C1613 H1621 0.960 . S
C1614 C1612 1.381 . S
C1614 C1615 1.394 . S
C1614 H1622 0.930 . S
C1615 C1614 1.394 . S
C1615 C1616 1.383 . S
C1615 H1623 0.929 . S
C1616 C1615 1.383 . S
C1616 C1617 1.377 . S
C1617 H1601 0.930 . S
C1617 C1616 1.377 . S
C1617 C1618 1.379 . S
C1618 H1602 0.931 . S
C1618 C1612 1.383 . S
C1618 C1617 1.379 . S
H1619 C1613 0.959 . S
H1620 C1613 0.961 . S
H1621 C1613 0.960 . S
H1622 C1614 0.930 . S
H1623 C1615 0.929 . S
H1624 C1632 0.929 . S
H1625 C1634 0.930 . S
H1626 C1636 0.930 . S
H1627 C1639 0.929 . S
H1628 C1642 0.930 . S
H1629 C1644 0.960 . S
H1630 C1644 0.960 . S
H1631 C1644 0.960 . S
C1632 H1624 0.929 . S
C1632 C1633 1.377 . S
C1632 C1634 1.384 . S
C1633 C1632 1.377 . S
C1633 C1639 1.390 . S
C1634 H1625 0.930 . S
C1634 C1632 1.384 . S
C1634 C1635 1.372 . S
C1635 C1634 1.372 . S
C1635 C1636 1.400 . S
C1635 C1640 1.490 . S
C1636 H1626 0.930 . S
C1636 C1635 1.400 . S
C1636 C1639 1.386 . S
H1637 C1653 0.930 . S
H1638 C1654 0.931 . S
C1639 H1627 0.929 . S
C1639 C1633 1.390 . S
C1639 C1636 1.386 . S
C1640 C1635 1.490 . S
C1640 C1642 1.395 . S
C1640 C1643 1.403 . S
H1641 C1647 0.930 . S
C1642 H1628 0.930 . S
C1642 C1640 1.395 . S
C1642 C1645 1.403 . S
C1643 C1640 1.403 . S
C1643 C1644 1.524 . S
C1643 C1647 1.400 . S
C1644 H1629 0.960 . S
C1644 H1630 0.960 . S
C1644 H1631 0.960 . S
C1644 C1643 1.524 . S
C1645 C1642 1.403 . S
C1645 C1646 1.392 . S
C1645 C1649 1.495 . S
C1646 C1645 1.392 . S
C1646 C1647 1.385 . S
C1646 C1648 1.478 . S
C1647 H1641 0.930 . S
C1647 C1643 1.400 . S
C1647 C1646 1.385 . S
C1648 C1646 1.478 . S
C1648 C1650 1.381 . S
C1648 C1654 1.383 . S
C1649 C1645 1.495 . S
C1649 H1655 0.959 . S
C1649 H1656 0.961 . S
C1649 H1657 0.960 . S
C1650 C1648 1.381 . S
C1650 C1651 1.394 . S
C1650 H1658 0.930 . S
C1651 C1650 1.394 . S
C1651 C1652 1.383 . S
C1651 H1659 0.929 . S
C1652 C1651 1.383 . S
C1652 C1653 1.377 . S
C1653 H1637 0.930 . S
C1653 C1652 1.377 . S
C1653 C1654 1.379 . S
C1654 H1638 0.931 . S
C1654 C1648 1.383 . S
C1654 C1653 1.379 . S
H1655 C1649 0.959 . S
H1656 C1649 0.961 . S
H1657 C1649 0.960 . S
H1658 C1650 0.930 . S
H1659 C1651 0.929 . S
H1660 C1668 0.929 . S
H1661 C1670 0.930 . S
H1662 C1672 0.930 . S
H1663 C1675 0.929 . S
H1664 C1678 0.930 . S
H1665 C1680 0.960 . S
H1666 C1680 0.960 . S
H1667 C1680 0.960 . S
C1668 H1660 0.929 . S
C1668 C1669 1.377 . S
C1668 C1670 1.384 . S
C1669 C1668 1.377 . S
C1669 C1675 1.390 . S
C1670 H1661 0.930 . S
C1670 C1668 1.384 . S
C1670 C1671 1.372 . S
C1671 C1670 1.372 . S
C1671 C1672 1.400 . S
C1671 C1676 1.490 . S
C1672 H1662 0.930 . S
C1672 C1671 1.400 . S
C1672 C1675 1.386 . S
H1673 C1689 0.930 . S
H1674 C1690 0.931 . S
C1675 H1663 0.929 . S
C1675 C1669 1.390 . S
C1675 C1672 1.386 . S
C1676 C1671 1.490 . S
C1676 C1678 1.395 . S
C1676 C1679 1.403 . S
H1677 C1683 0.930 . S
C1678 H1664 0.930 . S
C1678 C1676 1.395 . S
C1678 C1681 1.403 . S
C1679 C1676 1.403 . S
C1679 C1680 1.524 . S
C1679 C1683 1.400 . S
C1680 H1665 0.960 . S
C1680 H1666 0.960 . S
C1680 H1667 0.960 . S
C1680 C1679 1.524 . S
C1681 C1678 1.403 . S
C1681 C1682 1.392 . S
C1681 C1685 1.495 . S
C1682 C1681 1.392 . S
C1682 C1683 1.385 . S
C1682 C1684 1.478 . S
C1683 H1677 0.930 . S
C1683 C1679 1.400 . S
C1683 C1682 1.385 . S
C1684 C1682 1.478 . S
C1684 C1686 1.381 . S
C1684 C1690 1.383 . S
C1685 C1681 1.495 . S
C1685 H1691 0.959 . S
C1685 H1692 0.961 . S
C1685 H1693 0.960 . S
C1686 C1684 1.381 . S
C1686 C1687 1.394 . S
C1686 H1694 0.930 . S
C1687 C1686 1.394 . S
C1687 C1688 1.383 . S
C1687 H1695 0.929 . S
C1688 C1687 1.383 . S
C1688 C1689 1.377 . S
C1689 H1673 0.930 . S
C1689 C1688 1.377 . S
C1689 C1690 1.379 . S
C1690 H1674 0.931 . S
C1690 C1684 1.383 . S
C1690 C1689 1.379 . S
H1691 C1685 0.959 . S
H1692 C1685 0.961 . S
H1693 C1685 0.960 . S
H1694 C1686 0.930 . S
H1695 C1687 0.929 . S
H1696 C1704 0.929 . S
H1697 C1706 0.930 . S
H1698 C1708 0.930 . S
H1699 C1711 0.929 . S
H1700 C1714 0.930 . S
H1701 C1716 0.960 . S
H1702 C1716 0.960 . S
H1703 C1716 0.960 . S
C1704 H1696 0.929 . S
C1704 C1705 1.377 . S
C1704 C1706 1.384 . S
C1705 C1704 1.377 . S
C1705 C1711 1.390 . S
C1706 H1697 0.930 . S
C1706 C1704 1.384 . S
C1706 C1707 1.372 . S
C1707 C1706 1.372 . S
C1707 C1708 1.400 . S
C1707 C1712 1.490 . S
C1708 H1698 0.930 . S
C1708 C1707 1.400 . S
C1708 C1711 1.386 . S
H1709 C1725 0.930 . S
H1710 C1726 0.931 . S
C1711 H1699 0.929 . S
C1711 C1705 1.390 . S
C1711 C1708 1.386 . S
C1712 C1707 1.490 . S
C1712 C1714 1.395 . S
C1712 C1715 1.403 . S
H1713 C1719 0.930 . S
C1714 H1700 0.930 . S
C1714 C1712 1.395 . S
C1714 C1717 1.403 . S
C1715 C1712 1.403 . S
C1715 C1716 1.524 . S
C1715 C1719 1.400 . S
C1716 H1701 0.960 . S
C1716 H1702 0.960 . S
C1716 H1703 0.960 . S
C1716 C1715 1.524 . S
C1717 C1714 1.403 . S
C1717 C1718 1.392 . S
C1717 C1721 1.495 . S
C1718 C1717 1.392 . S
C1718 C1719 1.385 . S
C1718 C1720 1.478 . S
C1719 H1713 0.930 . S
C1719 C1715 1.400 . S
C1719 C1718 1.385 . S
C1720 C1718 1.478 . S
C1720 C1722 1.381 . S
C1720 C1726 1.383 . S
C1721 C1717 1.495 . S
C1721 H1727 0.959 . S
C1721 H1728 0.961 . S
C1721 H1729 0.960 . S
C1722 C1720 1.381 . S
C1722 C1723 1.394 . S
C1722 H1730 0.930 . S
C1723 C1722 1.394 . S
C1723 C1724 1.383 . S
C1723 H1731 0.929 . S
C1724 C1723 1.383 . S
C1724 C1725 1.377 . S
C1725 H1709 0.930 . S
C1725 C1724 1.377 . S
C1725 C1726 1.379 . S
C1726 H1710 0.931 . S
C1726 C1720 1.383 . S
C1726 C1725 1.379 . S
H1727 C1721 0.959 . S
H1728 C1721 0.961 . S
H1729 C1721 0.960 . S
H1730 C1722 0.930 . S
H1731 C1723 0.929 . S
H1732 C1740 0.929 . S
H1733 C1742 0.930 . S
H1734 C1744 0.930 . S
H1735 C1747 0.929 . S
H1736 C1750 0.930 . S
H1737 C1752 0.960 . S
H1738 C1752 0.960 . S
H1739 C1752 0.960 . S
C1740 H1732 0.929 . S
C1740 C1741 1.377 . S
C1740 C1742 1.384 . S
C1741 C1740 1.377 . S
C1741 C1747 1.390 . S
C1742 H1733 0.930 . S
C1742 C1740 1.384 . S
C1742 C1743 1.372 . S
C1743 C1742 1.372 . S
C1743 C1744 1.400 . S
C1743 C1748 1.490 . S
C1744 H1734 0.930 . S
C1744 C1743 1.400 . S
C1744 C1747 1.386 . S
H1745 C1761 0.930 . S
H1746 C1762 0.931 . S
C1747 H1735 0.929 . S
C1747 C1741 1.390 . S
C1747 C1744 1.386 . S
C1748 C1743 1.490 . S
C1748 C1750 1.395 . S
C1748 C1751 1.403 . S
H1749 C1755 0.930 . S
C1750 H1736 0.930 . S
C1750 C1748 1.395 . S
C1750 C1753 1.403 . S
C1751 C1748 1.403 . S
C1751 C1752 1.524 . S
C1751 C1755 1.400 . S
C1752 H1737 0.960 . S
C1752 H1738 0.960 . S
C1752 H1739 0.960 . S
C1752 C1751 1.524 . S
C1753 C1750 1.403 . S
C1753 C1754 1.392 . S
C1753 C1757 1.495 . S
C1754 C1753 1.392 . S
C1754 C1755 1.385 . S
C1754 C1756 1.478 . S
C1755 H1749 0.930 . S
C1755 C1751 1.400 . S
C1755 C1754 1.385 . S
C1756 C1754 1.478 . S
C1756 C1758 1.381 . S
C1756 C1762 1.383 . S
C1757 C1753 1.495 . S
C1757 H1763 0.959 . S
C1757 H1764 0.961 . S
C1757 H1765 0.960 . S
C1758 C1756 1.381 . S
C1758 C1759 1.394 . S
C1758 H1766 0.930 . S
C1759 C1758 1.394 . S
C1759 C1760 1.383 . S
C1759 H1767 0.929 . S
C1760 C1759 1.383 . S
C1760 C1761 1.377 . S
C1761 H1745 0.930 . S
C1761 C1760 1.377 . S
C1761 C1762 1.379 . S
C1762 H1746 0.931 . S
C1762 C1756 1.383 . S
C1762 C1761 1.379 . S
H1763 C1757 0.959 . S
H1764 C1757 0.961 . S
H1765 C1757 0.960 . S
H1766 C1758 0.930 . S
H1767 C1759 0.929 . S
H1768 C1776 0.929 . S
H1769 C1778 0.930 . S
H1770 C1780 0.930 . S
H1771 C1783 0.929 . S
H1772 C1786 0.930 . S
H1773 C1788 0.960 . S
H1774 C1788 0.960 . S
H1775 C1788 0.960 . S
C1776 H1768 0.929 . S
C1776 C1777 1.377 . S
C1776 C1778 1.384 . S
C1777 C1776 1.377 . S
C1777 C1783 1.390 . S
C1778 H1769 0.930 . S
C1778 C1776 1.384 . S
C1778 C1779 1.372 . S
C1779 C1778 1.372 . S
C1779 C1780 1.400 . S
C1779 C1784 1.490 . S
C1780 H1770 0.930 . S
C1780 C1779 1.400 . S
C1780 C1783 1.386 . S
H1781 C1797 0.930 . S
H1782 C1798 0.931 . S
C1783 H1771 0.929 . S
C1783 C1777 1.390 . S
C1783 C1780 1.386 . S
C1784 C1779 1.490 . S
C1784 C1786 1.395 . S
C1784 C1787 1.403 . S
H1785 C1791 0.930 . S
C1786 H1772 0.930 . S
C1786 C1784 1.395 . S
C1786 C1789 1.403 . S
C1787 C1784 1.403 . S
C1787 C1788 1.524 . S
C1787 C1791 1.400 . S
C1788 H1773 0.960 . S
C1788 H1774 0.960 . S
C1788 H1775 0.960 . S
C1788 C1787 1.524 . S
C1789 C1786 1.403 . S
C1789 C1790 1.392 . S
C1789 C1793 1.495 . S
C1790 C1789 1.392 . S
C1790 C1791 1.385 . S
C1790 C1792 1.478 . S
C1791 H1785 0.930 . S
C1791 C1787 1.400 . S
C1791 C1790 1.385 . S
C1792 C1790 1.478 . S
C1792 C1794 1.381 . S
C1792 C1798 1.383 . S
C1793 C1789 1.495 . S
C1793 H1799 0.959 . S
C1793 H1800 0.961 . S
C1793 H1801 0.960 . S
C1794 C1792 1.381 . S
C1794 C1795 1.394 . S
C1794 H1802 0.930 . S
C1795 C1794 1.394 . S
C1795 C1796 1.383 . S
C1795 H1803 0.929 . S
C1796 C1795 1.383 . S
C1796 C1797 1.377 . S
C1797 H1781 0.930 . S
C1797 C1796 1.377 . S
C1797 C1798 1.379 . S
C1798 H1782 0.931 . S
C1798 C1792 1.383 . S
C1798 C1797 1.379 . S
H1799 C1793 0.959 . S
H1800 C1793 0.961 . S
H1801 C1793 0.960 . S
H1802 C1794 0.930 . S
H1803 C1795 0.929 . S
H1804 C1812 0.929 . S
H1805 C1814 0.930 . S
H1806 C1816 0.930 . S
H1807 C1819 0.929 . S
H1808 C1822 0.930 . S
H1809 C1824 0.960 . S
H1810 C1824 0.960 . S
H1811 C1824 0.960 . S
C1812 H1804 0.929 . S
C1812 C1813 1.377 . S
C1812 C1814 1.384 . S
C1813 C1812 1.377 . S
C1813 C1819 1.390 . S
C1814 H1805 0.930 . S
C1814 C1812 1.384 . S
C1814 C1815 1.372 . S
C1815 C1814 1.372 . S
C1815 C1816 1.400 . S
C1815 C1820 1.490 . S
C1816 H1806 0.930 . S
C1816 C1815 1.400 . S
C1816 C1819 1.386 . S
H1817 C1833 0.930 . S
H1818 C1834 0.931 . S
C1819 H1807 0.929 . S
C1819 C1813 1.390 . S
C1819 C1816 1.386 . S
C1820 C1815 1.490 . S
C1820 C1822 1.395 . S
C1820 C1823 1.403 . S
H1821 C1827 0.930 . S
C1822 H1808 0.930 . S
C1822 C1820 1.395 . S
C1822 C1825 1.403 . S
C1823 C1820 1.403 . S
C1823 C1824 1.524 . S
C1823 C1827 1.400 . S
C1824 H1809 0.960 . S
C1824 H1810 0.960 . S
C1824 H1811 0.960 . S
C1824 C1823 1.524 . S
C1825 C1822 1.403 . S
C1825 C1826 1.392 . S
C1825 C1829 1.495 . S
C1826 C1825 1.392 . S
C1826 C1827 1.385 . S
C1826 C1828 1.478 . S
C1827 H1821 0.930 . S
C1827 C1823 1.400 . S
C1827 C1826 1.385 . S
C1828 C1826 1.478 . S
C1828 C1830 1.381 . S
C1828 C1834 1.383 . S
C1829 C1825 1.495 . S
C1829 H1835 0.959 . S
C1829 H1836 0.961 . S
C1829 H1837 0.960 . S
C1830 C1828 1.381 . S
C1830 C1831 1.394 . S
C1830 H1838 0.930 . S
C1831 C1830 1.394 . S
C1831 C1832 1.383 . S
C1831 H1839 0.929 . S
C1832 C1831 1.383 . S
C1832 C1833 1.377 . S
C1833 H1817 0.930 . S
C1833 C1832 1.377 . S
C1833 C1834 1.379 . S
C1834 H1818 0.931 . S
C1834 C1828 1.383 . S
C1834 C1833 1.379 . S
H1835 C1829 0.959 . S
H1836 C1829 0.961 . S
H1837 C1829 0.960 . S
H1838 C1830 0.930 . S
H1839 C1831 0.929 . S
H1840 C1848 0.929 . S
H1841 C1850 0.930 . S
H1842 C1852 0.930 . S
H1843 C1855 0.929 . S
H1844 C1858 0.930 . S
H1845 C1860 0.960 . S
H1846 C1860 0.960 . S
H1847 C1860 0.960 . S
C1848 H1840 0.929 . S
C1848 C1849 1.377 . S
C1848 C1850 1.384 . S
C1849 C1848 1.377 . S
C1849 C1855 1.390 . S
C1850 H1841 0.930 . S
C1850 C1848 1.384 . S
C1850 C1851 1.372 . S
C1851 C1850 1.372 . S
C1851 C1852 1.400 . S
C1851 C1856 1.490 . S
C1852 H1842 0.930 . S
C1852 C1851 1.400 . S
C1852 C1855 1.386 . S
H1853 C1869 0.930 . S
H1854 C1870 0.931 . S
C1855 H1843 0.929 . S
C1855 C1849 1.390 . S
C1855 C1852 1.386 . S
C1856 C1851 1.490 . S
C1856 C1858 1.395 . S
C1856 C1859 1.403 . S
H1857 C1863 0.930 . S
C1858 H1844 0.930 . S
C1858 C1856 1.395 . S
C1858 C1861 1.403 . S
C1859 C1856 1.403 . S
C1859 C1860 1.524 . S
C1859 C1863 1.400 . S
C1860 H1845 0.960 . S
C1860 H1846 0.960 . S
C1860 H1847 0.960 . S
C1860 C1859 1.524 . S
C1861 C1858 1.403 . S
C1861 C1862 1.392 . S
C1861 C1865 1.495 . S
C1862 C1861 1.392 . S
C1862 C1863 1.385 . S
C1862 C1864 1.478 . S
C1863 H1857 0.930 . S
C1863 C1859 1.400 . S
C1863 C1862 1.385 . S
C1864 C1862 1.478 . S
C1864 C1866 1.381 . S
C1864 C1870 1.383 . S
C1865 C1861 1.495 . S
C1865 H1871 0.959 . S
C1865 H1872 0.961 . S
C1865 H1873 0.960 . S
C1866 C1864 1.381 . S
C1866 C1867 1.394 . S
C1866 H1874 0.930 . S
C1867 C1866 1.394 . S
C1867 C1868 1.383 . S
C1867 H1875 0.929 . S
C1868 C1867 1.383 . S
C1868 C1869 1.377 . S
C1869 H1853 0.930 . S
C1869 C1868 1.377 . S
C1869 C1870 1.379 . S
C1870 H1854 0.931 . S
C1870 C1864 1.383 . S
C1870 C1869 1.379 . S
H1871 C1865 0.959 . S
H1872 C1865 0.961 . S
H1873 C1865 0.960 . S
H1874 C1866 0.930 . S
H1875 C1867 0.929 . S
H1876 C1884 0.929 . S
H1877 C1886 0.930 . S
H1878 C1888 0.930 . S
H1879 C1891 0.929 . S
H1880 C1894 0.930 . S
H1881 C1896 0.960 . S
H1882 C1896 0.960 . S
H1883 C1896 0.960 . S
C1884 H1876 0.929 . S
C1884 C1885 1.377 . S
C1884 C1886 1.384 . S
C1885 C1884 1.377 . S
C1885 C1891 1.390 . S
C1886 H1877 0.930 . S
C1886 C1884 1.384 . S
C1886 C1887 1.372 . S
C1887 C1886 1.372 . S
C1887 C1888 1.400 . S
C1887 C1892 1.490 . S
C1888 H1878 0.930 . S
C1888 C1887 1.400 . S
C1888 C1891 1.386 . S
H1889 C1905 0.930 . S
H1890 C1906 0.931 . S
C1891 H1879 0.929 . S
C1891 C1885 1.390 . S
C1891 C1888 1.386 . S
C1892 C1887 1.490 . S
C1892 C1894 1.395 . S
C1892 C1895 1.403 . S
H1893 C1899 0.930 . S
C1894 H1880 0.930 . S
C1894 C1892 1.395 . S
C1894 C1897 1.403 . S
C1895 C1892 1.403 . S
C1895 C1896 1.524 . S
C1895 C1899 1.400 . S
C1896 H1881 0.960 . S
C1896 H1882 0.960 . S
C1896 H1883 0.960 . S
C1896 C1895 1.524 . S
C1897 C1894 1.403 . S
C1897 C1898 1.392 . S
C1897 C1901 1.495 . S
C1898 C1897 1.392 . S
C1898 C1899 1.385 . S
C1898 C1900 1.478 . S
C1899 H1893 0.930 . S
C1899 C1895 1.400 . S
C1899 C1898 1.385 . S
C1900 C1898 1.478 . S
C1900 C1902 1.381 . S
C1900 C1906 1.383 . S
C1901 C1897 1.495 . S
C1901 H1907 0.959 . S
C1901 H1908 0.961 . S
C1901 H1909 0.960 . S
C1902 C1900 1.381 . S
C1902 C1903 1.394 . S
C1902 H1910 0.930 . S
C1903 C1902 1.394 . S
C1903 C1904 1.383 . S
C1903 H1911 0.929 . S
C1904 C1903 1.383 . S
C1904 C1905 1.377 . S
C1905 H1889 0.930 . S
C1905 C1904 1.377 . S
C1905 C1906 1.379 . S
C1906 H1890 0.931 . S
C1906 C1900 1.383 . S
C1906 C1905 1.379 . S
H1907 C1901 0.959 . S
H1908 C1901 0.961 . S
H1909 C1901 0.960 . S
H1910 C1902 0.930 . S
H1911 C1903 0.929 . S
H1912 C1920 0.929 . S
H1913 C1922 0.930 . S
H1914 C1924 0.930 . S
H1915 C1927 0.929 . S
H1916 C1930 0.930 . S
H1917 C1932 0.960 . S
H1918 C1932 0.960 . S
H1919 C1932 0.960 . S
C1920 H1912 0.929 . S
C1920 C1921 1.377 . S
C1920 C1922 1.384 . S
C1921 C1920 1.377 . S
C1921 C1927 1.390 . S
C1922 H1913 0.930 . S
C1922 C1920 1.384 . S
C1922 C1923 1.372 . S
C1923 C1922 1.372 . S
C1923 C1924 1.400 . S
C1923 C1928 1.490 . S
C1924 H1914 0.930 . S
C1924 C1923 1.400 . S
C1924 C1927 1.386 . S
H1925 C1941 0.930 . S
H1926 C1942 0.931 . S
C1927 H1915 0.929 . S
C1927 C1921 1.390 . S
C1927 C1924 1.386 . S
C1928 C1923 1.490 . S
C1928 C1930 1.395 . S
C1928 C1931 1.403 . S
H1929 C1935 0.930 . S
C1930 H1916 0.930 . S
C1930 C1928 1.395 . S
C1930 C1933 1.403 . S
C1931 C1928 1.403 . S
C1931 C1932 1.524 . S
C1931 C1935 1.400 . S
C1932 H1917 0.960 . S
C1932 H1918 0.960 . S
C1932 H1919 0.960 . S
C1932 C1931 1.524 . S
C1933 C1930 1.403 . S
C1933 C1934 1.392 . S
C1933 C1937 1.495 . S
C1934 C1933 1.392 . S
C1934 C1935 1.385 . S
C1934 C1936 1.478 . S
C1935 H1929 0.930 . S
C1935 C1931 1.400 . S
C1935 C1934 1.385 . S
C1936 C1934 1.478 . S
C1936 C1938 1.381 . S
C1936 C1942 1.383 . S
C1937 C1933 1.495 . S
C1937 H1943 0.959 . S
C1937 H1944 0.961 . S
C1937 H1945 0.960 . S
C1938 C1936 1.381 . S
C1938 C1939 1.394 . S
C1938 H1946 0.930 . S
C1939 C1938 1.394 . S
C1939 C1940 1.383 . S
C1939 H1947 0.929 . S
C1940 C1939 1.383 . S
C1940 C1941 1.377 . S
C1941 H1925 0.930 . S
C1941 C1940 1.377 . S
C1941 C1942 1.379 . S
C1942 H1926 0.931 . S
C1942 C1936 1.383 . S
C1942 C1941 1.379 . S
H1943 C1937 0.959 . S
H1944 C1937 0.961 . S
H1945 C1937 0.960 . S
H1946 C1938 0.930 . S
H1947 C1939 0.929 . S
H1948 C1956 0.929 . S
H1949 C1958 0.930 . S
H1950 C1960 0.930 . S
H1951 C1963 0.929 . S
H1952 C1966 0.930 . S
H1953 C1968 0.960 . S
H1954 C1968 0.960 . S
H1955 C1968 0.960 . S
C1956 H1948 0.929 . S
C1956 C1957 1.377 . S
C1956 C1958 1.384 . S
C1957 C1956 1.377 . S
C1957 C1963 1.390 . S
C1958 H1949 0.930 . S
C1958 C1956 1.384 . S
C1958 C1959 1.372 . S
C1959 C1958 1.372 . S
C1959 C1960 1.400 . S
C1959 C1964 1.490 . S
C1960 H1950 0.930 . S
C1960 C1959 1.400 . S
C1960 C1963 1.386 . S
H1961 C1977 0.930 . S
H1962 C1978 0.931 . S
C1963 H1951 0.929 . S
C1963 C1957 1.390 . S
C1963 C1960 1.386 . S
C1964 C1959 1.490 . S
C1964 C1966 1.395 . S
C1964 C1967 1.403 . S
H1965 C1971 0.930 . S
C1966 H1952 0.930 . S
C1966 C1964 1.395 . S
C1966 C1969 1.403 . S
C1967 C1964 1.403 . S
C1967 C1968 1.524 . S
C1967 C1971 1.400 . S
C1968 H1953 0.960 . S
C1968 H1954 0.960 . S
C1968 H1955 0.960 . S
C1968 C1967 1.524 . S
C1969 C1966 1.403 . S
C1969 C1970 1.392 . S
C1969 C1973 1.495 . S
C1970 C1969 1.392 . S
C1970 C1971 1.385 . S
C1970 C1972 1.478 . S
C1971 H1965 0.930 . S
C1971 C1967 1.400 . S
C1971 C1970 1.385 . S
C1972 C1970 1.478 . S
C1972 C1974 1.381 . S
C1972 C1978 1.383 . S
C1973 C1969 1.495 . S
C1973 H1979 0.959 . S
C1973 H1980 0.961 . S
C1973 H1981 0.960 . S
C1974 C1972 1.381 . S
C1974 C1975 1.394 . S
C1974 H1982 0.930 . S
C1975 C1974 1.394 . S
C1975 C1976 1.383 . S
C1975 H1983 0.929 . S
C1976 C1975 1.383 . S
C1976 C1977 1.377 . S
C1977 H1961 0.930 . S
C1977 C1976 1.377 . S
C1977 C1978 1.379 . S
C1978 H1962 0.931 . S
C1978 C1972 1.383 . S
C1978 C1977 1.379 . S
H1979 C1973 0.959 . S
H1980 C1973 0.961 . S
H1981 C1973 0.960 . S
H1982 C1974 0.930 . S
H1983 C1975 0.929 . S
H1984 C1992 0.929 . S
H1985 C1994 0.930 . S
H1986 C1996 0.930 . S
H1987 C1999 0.929 . S
H1988 C2002 0.930 . S
H1989 C2004 0.960 . S
H1990 C2004 0.960 . S
H1991 C2004 0.960 . S
C1992 H1984 0.929 . S
C1992 C1993 1.377 . S
C1992 C1994 1.384 . S
C1993 C1992 1.377 . S
C1993 C1999 1.390 . S
C1994 H1985 0.930 . S
C1994 C1992 1.384 . S
C1994 C1995 1.372 . S
C1995 C1994 1.372 . S
C1995 C1996 1.400 . S
C1995 C2000 1.490 . S
C1996 H1986 0.930 . S
C1996 C1995 1.400 . S
C1996 C1999 1.386 . S
H1997 C2013 0.930 . S
H1998 C2014 0.931 . S
C1999 H1987 0.929 . S
C1999 C1993 1.390 . S
C1999 C1996 1.386 . S
C2000 C1995 1.490 . S
C2000 C2002 1.395 . S
C2000 C2003 1.403 . S
H2001 C2007 0.930 . S
C2002 H1988 0.930 . S
C2002 C2000 1.395 . S
C2002 C2005 1.403 . S
C2003 C2000 1.403 . S
C2003 C2004 1.524 . S
C2003 C2007 1.400 . S
C2004 H1989 0.960 . S
C2004 H1990 0.960 . S
C2004 H1991 0.960 . S
C2004 C2003 1.524 . S
C2005 C2002 1.403 . S
C2005 C2006 1.392 . S
C2005 C2009 1.495 . S
C2006 C2005 1.392 . S
C2006 C2007 1.385 . S
C2006 C2008 1.478 . S
C2007 H2001 0.930 . S
C2007 C2003 1.400 . S
C2007 C2006 1.385 . S
C2008 C2006 1.478 . S
C2008 C2010 1.381 . S
C2008 C2014 1.383 . S
C2009 C2005 1.495 . S
C2009 H2015 0.959 . S
C2009 H2016 0.961 . S
C2009 H2017 0.960 . S
C2010 C2008 1.381 . S
C2010 C2011 1.394 . S
C2010 H2018 0.930 . S
C2011 C2010 1.394 . S
C2011 C2012 1.383 . S
C2011 H2019 0.929 . S
C2012 C2011 1.383 . S
C2012 C2013 1.377 . S
C2013 H1997 0.930 . S
C2013 C2012 1.377 . S
C2013 C2014 1.379 . S
C2014 H1998 0.931 . S
C2014 C2008 1.383 . S
C2014 C2013 1.379 . S
H2015 C2009 0.959 . S
H2016 C2009 0.961 . S
H2017 C2009 0.960 . S
H2018 C2010 0.930 . S
H2019 C2011 0.929 . S
H2020 C2028 0.929 . S
H2021 C2030 0.930 . S
H2022 C2032 0.930 . S
H2023 C2035 0.929 . S
H2024 C2038 0.930 . S
H2025 C2040 0.960 . S
H2026 C2040 0.960 . S
H2027 C2040 0.960 . S
C2028 H2020 0.929 . S
C2028 C2029 1.377 . S
C2028 C2030 1.384 . S
C2029 C2028 1.377 . S
C2029 C2035 1.390 . S
C2030 H2021 0.930 . S
C2030 C2028 1.384 . S
C2030 C2031 1.372 . S
C2031 C2030 1.372 . S
C2031 C2032 1.400 . S
C2031 C2036 1.490 . S
C2032 H2022 0.930 . S
C2032 C2031 1.400 . S
C2032 C2035 1.386 . S
H2033 C2049 0.930 . S
H2034 C2050 0.931 . S
C2035 H2023 0.929 . S
C2035 C2029 1.390 . S
C2035 C2032 1.386 . S
C2036 C2031 1.490 . S
C2036 C2038 1.395 . S
C2036 C2039 1.403 . S
H2037 C2043 0.930 . S
C2038 H2024 0.930 . S
C2038 C2036 1.395 . S
C2038 C2041 1.403 . S
C2039 C2036 1.403 . S
C2039 C2040 1.524 . S
C2039 C2043 1.400 . S
C2040 H2025 0.960 . S
C2040 H2026 0.960 . S
C2040 H2027 0.960 . S
C2040 C2039 1.524 . S
C2041 C2038 1.403 . S
C2041 C2042 1.392 . S
C2041 C2045 1.495 . S
C2042 C2041 1.392 . S
C2042 C2043 1.385 . S
C2042 C2044 1.478 . S
C2043 H2037 0.930 . S
C2043 C2039 1.400 . S
C2043 C2042 1.385 . S
C2044 C2042 1.478 . S
C2044 C2046 1.381 . S
C2044 C2050 1.383 . S
C2045 C2041 1.495 . S
C2045 H2051 0.959 . S
C2045 H2052 0.961 . S
C2045 H2053 0.960 . S
C2046 C2044 1.381 . S
C2046 C2047 1.394 . S
C2046 H2054 0.930 . S
C2047 C2046 1.394 . S
C2047 C2048 1.383 . S
C2047 H2055 0.929 . S
C2048 C2047 1.383 . S
C2048 C2049 1.377 . S
C2049 H2033 0.930 . S
C2049 C2048 1.377 . S
C2049 C2050 1.379 . S
C2050 H2034 0.931 . S
C2050 C2044 1.383 . S
C2050 C2049 1.379 . S
H2051 C2045 0.959 . S
H2052 C2045 0.961 . S
H2053 C2045 0.960 . S
H2054 C2046 0.930 . S
H2055 C2047 0.929 . S
H2056 C2064 0.929 . S
H2057 C2066 0.930 . S
H2058 C2068 0.930 . S
H2059 C2071 0.929 . S
H2060 C2074 0.930 . S
H2061 C2076 0.960 . S
H2062 C2076 0.960 . S
H2063 C2076 0.960 . S
C2064 H2056 0.929 . S
C2064 C2065 1.377 . S
C2064 C2066 1.384 . S
C2065 C2064 1.377 . S
C2065 C2071 1.390 . S
C2066 H2057 0.930 . S
C2066 C2064 1.384 . S
C2066 C2067 1.372 . S
C2067 C2066 1.372 . S
C2067 C2068 1.400 . S
C2067 C2072 1.490 . S
C2068 H2058 0.930 . S
C2068 C2067 1.400 . S
C2068 C2071 1.386 . S
H2069 C2085 0.930 . S
H2070 C2086 0.931 . S
C2071 H2059 0.929 . S
C2071 C2065 1.390 . S
C2071 C2068 1.386 . S
C2072 C2067 1.490 . S
C2072 C2074 1.395 . S
C2072 C2075 1.403 . S
H2073 C2079 0.930 . S
C2074 H2060 0.930 . S
C2074 C2072 1.395 . S
C2074 C2077 1.403 . S
C2075 C2072 1.403 . S
C2075 C2076 1.524 . S
C2075 C2079 1.400 . S
C2076 H2061 0.960 . S
C2076 H2062 0.960 . S
C2076 H2063 0.960 . S
C2076 C2075 1.524 . S
C2077 C2074 1.403 . S
C2077 C2078 1.392 . S
C2077 C2081 1.495 . S
C2078 C2077 1.392 . S
C2078 C2079 1.385 . S
C2078 C2080 1.478 . S
C2079 H2073 0.930 . S
C2079 C2075 1.400 . S
C2079 C2078 1.385 . S
C2080 C2078 1.478 . S
C2080 C2082 1.381 . S
C2080 C2086 1.383 . S
C2081 C2077 1.495 . S
C2081 H2087 0.959 . S
C2081 H2088 0.961 . S
C2081 H2089 0.960 . S
C2082 C2080 1.381 . S
C2082 C2083 1.394 . S
C2082 H2090 0.930 . S
C2083 C2082 1.394 . S
C2083 C2084 1.383 . S
C2083 H2091 0.929 . S
C2084 C2083 1.383 . S
C2084 C2085 1.377 . S
C2085 H2069 0.930 . S
C2085 C2084 1.377 . S
C2085 C2086 1.379 . S
C2086 H2070 0.931 . S
C2086 C2080 1.383 . S
C2086 C2085 1.379 . S
H2087 C2081 0.959 . S
H2088 C2081 0.961 . S
H2089 C2081 0.960 . S
H2090 C2082 0.930 . S
H2091 C2083 0.929 . S
H2092 C2100 0.929 . S
H2093 C2102 0.930 . S
H2094 C2104 0.930 . S
H2095 C2107 0.929 . S
H2096 C2110 0.930 . S
H2097 C2112 0.960 . S
H2098 C2112 0.960 . S
H2099 C2112 0.960 . S
C2100 H2092 0.929 . S
C2100 C2101 1.377 . S
C2100 C2102 1.384 . S
C2101 C2100 1.377 . S
C2101 C2107 1.390 . S
C2102 H2093 0.930 . S
C2102 C2100 1.384 . S
C2102 C2103 1.372 . S
C2103 C2102 1.372 . S
C2103 C2104 1.400 . S
C2103 C2108 1.490 . S
C2104 H2094 0.930 . S
C2104 C2103 1.400 . S
C2104 C2107 1.386 . S
H2105 C2121 0.930 . S
H2106 C2122 0.931 . S
C2107 H2095 0.929 . S
C2107 C2101 1.390 . S
C2107 C2104 1.386 . S
C2108 C2103 1.490 . S
C2108 C2110 1.395 . S
C2108 C2111 1.403 . S
H2109 C2115 0.930 . S
C2110 H2096 0.930 . S
C2110 C2108 1.395 . S
C2110 C2113 1.403 . S
C2111 C2108 1.403 . S
C2111 C2112 1.524 . S
C2111 C2115 1.400 . S
C2112 H2097 0.960 . S
C2112 H2098 0.960 . S
C2112 H2099 0.960 . S
C2112 C2111 1.524 . S
C2113 C2110 1.403 . S
C2113 C2114 1.392 . S
C2113 C2117 1.495 . S
C2114 C2113 1.392 . S
C2114 C2115 1.385 . S
C2114 C2116 1.478 . S
C2115 H2109 0.930 . S
C2115 C2111 1.400 . S
C2115 C2114 1.385 . S
C2116 C2114 1.478 . S
C2116 C2118 1.381 . S
C2116 C2122 1.383 . S
C2117 C2113 1.495 . S
C2117 H2123 0.959 . S
C2117 H2124 0.961 . S
C2117 H2125 0.960 . S
C2118 C2116 1.381 . S
C2118 C2119 1.394 . S
C2118 H2126 0.930 . S
C2119 C2118 1.394 . S
C2119 C2120 1.383 . S
C2119 H2127 0.929 . S
C2120 C2119 1.383 . S
C2120 C2121 1.377 . S
C2121 H2105 0.930 . S
C2121 C2120 1.377 . S
C2121 C2122 1.379 . S
C2122 H2106 0.931 . S
C2122 C2116 1.383 . S
C2122 C2121 1.379 . S
H2123 C2117 0.959 . S
H2124 C2117 0.961 . S
H2125 C2117 0.960 . S
H2126 C2118 0.930 . S
H2127 C2119 0.929 . S
H2128 C2136 0.929 . S
H2129 C2138 0.930 . S
H2130 C2140 0.930 . S
H2131 C2143 0.929 . S
H2132 C2146 0.930 . S
H2133 C2148 0.960 . S
H2134 C2148 0.960 . S
H2135 C2148 0.960 . S
C2136 H2128 0.929 . S
C2136 C2137 1.377 . S
C2136 C2138 1.384 . S
C2137 C2136 1.377 . S
C2137 C2143 1.390 . S
C2138 H2129 0.930 . S
C2138 C2136 1.384 . S
C2138 C2139 1.372 . S
C2139 C2138 1.372 . S
C2139 C2140 1.400 . S
C2139 C2144 1.490 . S
C2140 H2130 0.930 . S
C2140 C2139 1.400 . S
C2140 C2143 1.386 . S
H2141 C2157 0.930 . S
H2142 C2158 0.931 . S
C2143 H2131 0.929 . S
C2143 C2137 1.390 . S
C2143 C2140 1.386 . S
C2144 C2139 1.490 . S
C2144 C2146 1.395 . S
C2144 C2147 1.403 . S
H2145 C2151 0.930 . S
C2146 H2132 0.930 . S
C2146 C2144 1.395 . S
C2146 C2149 1.403 . S
C2147 C2144 1.403 . S
C2147 C2148 1.524 . S
C2147 C2151 1.400 . S
C2148 H2133 0.960 . S
C2148 H2134 0.960 . S
C2148 H2135 0.960 . S
C2148 C2147 1.524 . S
C2149 C2146 1.403 . S
C2149 C2150 1.392 . S
C2149 C2153 1.495 . S
C2150 C2149 1.392 . S
C2150 C2151 1.385 . S
C2150 C2152 1.478 . S
C2151 H2145 0.930 . S
C2151 C2147 1.400 . S
C2151 C2150 1.385 . S
C2152 C2150 1.478 . S
C2152 C2154 1.381 . S
C2152 C2158 1.383 . S
C2153 C2149 1.495 . S
C2153 H2159 0.959 . S
C2153 H2160 0.961 . S
C2153 H2161 0.960 . S
C2154 C2152 1.381 . S
C2154 C2155 1.394 . S
C2154 H2162 0.930 . S
C2155 C2154 1.394 . S
C2155 C2156 1.383 . S
C2155 H2163 0.929 . S
C2156 C2155 1.383 . S
C2156 C2157 1.377 . S
C2157 H2141 0.930 . S
C2157 C2156 1.377 . S
C2157 C2158 1.379 . S
C2158 H2142 0.931 . S
C2158 C2152 1.383 . S
C2158 C2157 1.379 . S
H2159 C2153 0.959 . S
H2160 C2153 0.961 . S
H2161 C2153 0.960 . S
H2162 C2154 0.930 . S
H2163 C2155 0.929 . S
H2164 C2172 0.929 . S
H2165 C2174 0.930 . S
H2166 C2176 0.930 . S
H2167 C2179 0.929 . S
H2168 C2182 0.930 . S
H2169 C2184 0.960 . S
H2170 C2184 0.960 . S
H2171 C2184 0.960 . S
C2172 H2164 0.929 . S
C2172 C2173 1.377 . S
C2172 C2174 1.384 . S
C2173 C2172 1.377 . S
C2173 C2179 1.390 . S
C2174 H2165 0.930 . S
C2174 C2172 1.384 . S
C2174 C2175 1.372 . S
C2175 C2174 1.372 . S
C2175 C2176 1.400 . S
C2175 C2180 1.490 . S
C2176 H2166 0.930 . S
C2176 C2175 1.400 . S
C2176 C2179 1.386 . S
H2177 C2193 0.930 . S
H2178 C2194 0.931 . S
C2179 H2167 0.929 . S
C2179 C2173 1.390 . S
C2179 C2176 1.386 . S
C2180 C2175 1.490 . S
C2180 C2182 1.395 . S
C2180 C2183 1.403 . S
H2181 C2187 0.930 . S
C2182 H2168 0.930 . S
C2182 C2180 1.395 . S
C2182 C2185 1.403 . S
C2183 C2180 1.403 . S
C2183 C2184 1.524 . S
C2183 C2187 1.400 . S
C2184 H2169 0.960 . S
C2184 H2170 0.960 . S
C2184 H2171 0.960 . S
C2184 C2183 1.524 . S
C2185 C2182 1.403 . S
C2185 C2186 1.392 . S
C2185 C2189 1.495 . S
C2186 C2185 1.392 . S
C2186 C2187 1.385 . S
C2186 C2188 1.478 . S
C2187 H2181 0.930 . S
C2187 C2183 1.400 . S
C2187 C2186 1.385 . S
C2188 C2186 1.478 . S
C2188 C2190 1.381 . S
C2188 C2194 1.383 . S
C2189 C2185 1.495 . S
C2189 H2195 0.959 . S
C2189 H2196 0.961 . S
C2189 H2197 0.960 . S
C2190 C2188 1.381 . S
C2190 C2191 1.394 . S
C2190 H2198 0.930 . S
C2191 C2190 1.394 . S
C2191 C2192 1.383 . S
C2191 H2199 0.929 . S
C2192 C2191 1.383 . S
C2192 C2193 1.377 . S
C2193 H2177 0.930 . S
C2193 C2192 1.377 . S
C2193 C2194 1.379 . S
C2194 H2178 0.931 . S
C2194 C2188 1.383 . S
C2194 C2193 1.379 . S
H2195 C2189 0.959 . S
H2196 C2189 0.961 . S
H2197 C2189 0.960 . S
H2198 C2190 0.930 . S
H2199 C2191 0.929 . S
H2200 C2208 0.929 . S
H2201 C2210 0.930 . S
H2202 C2212 0.930 . S
H2203 C2215 0.929 . S
H2204 C2218 0.930 . S
H2205 C2220 0.960 . S
H2206 C2220 0.960 . S
H2207 C2220 0.960 . S
C2208 H2200 0.929 . S
C2208 C2209 1.377 . S
C2208 C2210 1.384 . S
C2209 C2208 1.377 . S
C2209 C2215 1.390 . S
C2210 H2201 0.930 . S
C2210 C2208 1.384 . S
C2210 C2211 1.372 . S
C2211 C2210 1.372 . S
C2211 C2212 1.400 . S
C2211 C2216 1.490 . S
C2212 H2202 0.930 . S
C2212 C2211 1.400 . S
C2212 C2215 1.386 . S
H2213 C2229 0.930 . S
H2214 C2230 0.931 . S
C2215 H2203 0.929 . S
C2215 C2209 1.390 . S
C2215 C2212 1.386 . S
C2216 C2211 1.490 . S
C2216 C2218 1.395 . S
C2216 C2219 1.403 . S
H2217 C2223 0.930 . S
C2218 H2204 0.930 . S
C2218 C2216 1.395 . S
C2218 C2221 1.403 . S
C2219 C2216 1.403 . S
C2219 C2220 1.524 . S
C2219 C2223 1.400 . S
C2220 H2205 0.960 . S
C2220 H2206 0.960 . S
C2220 H2207 0.960 . S
C2220 C2219 1.524 . S
C2221 C2218 1.403 . S
C2221 C2222 1.392 . S
C2221 C2225 1.495 . S
C2222 C2221 1.392 . S
C2222 C2223 1.385 . S
C2222 C2224 1.478 . S
C2223 H2217 0.930 . S
C2223 C2219 1.400 . S
C2223 C2222 1.385 . S
C2224 C2222 1.478 . S
C2224 C2226 1.381 . S
C2224 C2230 1.383 . S
C2225 C2221 1.495 . S
C2225 H2231 0.959 . S
C2225 H2232 0.961 . S
C2225 H2233 0.960 . S
C2226 C2224 1.381 . S
C2226 C2227 1.394 . S
C2226 H2234 0.930 . S
C2227 C2226 1.394 . S
C2227 C2228 1.383 . S
C2227 H2235 0.929 . S
C2228 C2227 1.383 . S
C2228 C2229 1.377 . S
C2229 H2213 0.930 . S
C2229 C2228 1.377 . S
C2229 C2230 1.379 . S
C2230 H2214 0.931 . S
C2230 C2224 1.383 . S
C2230 C2229 1.379 . S
H2231 C2225 0.959 . S
H2232 C2225 0.961 . S
H2233 C2225 0.960 . S
H2234 C2226 0.930 . S
H2235 C2227 0.929 . S
C536 C219 0.935 . S
C517 C17 0.921 . S
C572 C197 1.692 . S
C553 C44 1.691 . S
C608 C194 0.429 . S
C589 C63 0.448 . S
C625 C87 1.594 . S
C644 C206 1.481 . S
C661 C110 1.559 . S
C680 C189 1.513 . S
C716 C211 0.504 . S
C697 C131 0.461 . S
C733 C159 1.646 . S
C752 C216 1.685 . S
C769 C177 0.939 . S
C788 C212 0.931 . S
C824 C270 1.587 . S
C805 C20 1.537 . S
C841 C42 1.109 . S
C860 C320 1.137 . S
C896 C243 1.644 . S
C877 C66 1.571 . S
C932 C319 0.412 . S
C913 C86 0.421 . S
C949 C109 0.424 . S
C968 C248 0.433 . S
C1004 C314 1.692 . S
C985 C136 1.620 . S
C1021 C157 1.098 . S
C1040 C273 1.119 . S
C1057 C182 1.588 . S
C1076 C305 1.643 . S
C1093 C18 1.652 . S
C1112 C297 1.594 . S
C1129 C112 0.989 . S
C1148 C327 1.047 . S
C1184 C251 1.591 . S
C1165 C134 1.588 . S
C1220 C302 0.628 . S
C1201 C154 0.614 . S
C1237 C180 1.602 . S
C1256 C260 1.575 . S
C1273 C64 1.648 . S
C1292 C324 1.594 . S
C1328 C266 1.069 . S
C1309 C89 1.009 . S
C1345 C39 0.627 . S
C1364 C265 0.643 . S
C1381 C178 0.920 . S
C1400 C381 0.935 . S
C1417 C113 1.690 . S
C1436 C359 1.681 . S
C1472 C356 0.432 . S
C1453 C132 0.449 . S
C1508 C368 1.525 . S
C1489 C156 1.592 . S
C1525 C41 1.560 . S
C1544 C351 1.504 . S
C1580 C373 0.448 . S
C1561 C62 0.456 . S
C1597 C90 1.658 . S
C1616 C378 1.674 . S
C1633 C16 0.944 . S
C1652 C374 0.931 . S
C1669 C181 1.550 . S
C1688 C432 1.635 . S
C1724 C482 1.104 . S
C1705 C111 1.119 . S
C1741 C135 1.578 . S
C1760 C405 1.650 . S
C1777 C155 0.423 . S
C1796 C481 0.398 . S
C1832 C410 0.377 . S
C1813 C40 0.412 . S
C1849 C67 1.609 . S
C1868 C476 1.655 . S
C1904 C435 1.108 . S
C1885 C88 1.101 . S
C1940 C467 1.641 . S
C1921 C21 1.587 . S
C1976 C459 1.580 . S
C1957 C179 1.651 . S
C1993 C43 0.996 . S
C2012 C489 1.080 . S
C2029 C65 1.592 . S
C2048 C413 1.601 . S
C2084 C464 0.602 . S
C2065 C85 0.631 . S
C2101 C19 1.598 . S
C2120 C422 1.553 . S
C2137 C133 1.648 . S
C2156 C486 1.584 . S
C2192 C428 1.089 . S
C2173 C158 1.004 . S
C2228 C427 0.620 . S
C2209 C108 0.639 . S
