# Generated by pormake.
# Topology pth, (4,4)-cn, num edge types: 1
# Building blocks:
#     Node 0, Type 0, BuildingBlock: QUQFOY_clean_sbu_3, # of connection points: 4
#     Node 1, Type 0, BuildingBlock: QUQFOY_clean_sbu_3, # of connection points: 4
#     Node 2, Type 0, BuildingBlock: QUQFOY_clean_sbu_3, # of connection points: 4
#     Node 3, Type 1, BuildingBlock: KOZSID_clean_sbu_0, # of connection points: 4
#     Node 4, Type 1, BuildingBlock: KOZSID_clean_sbu_0, # of connection points: 4
#     Node 5, Type 1, BuildingBlock: KOZSID_clean_sbu_0, # of connection points: 4
#     Edge 6, Type (0, 1), BuildingBlock: EZIPEK_clean_linker_0, # of connection points: 2
#     Edge 7, Type (0, 1), BuildingBlock: EZIPEK_clean_linker_0, # of connection points: 2
#     Edge 8, Type (0, 1), BuildingBlock: EZIPEK_clean_linker_0, # of connection points: 2
#     Edge 9, Type (0, 1), BuildingBlock: EZIPEK_clean_linker_0, # of connection points: 2
#     Edge 10, Type (0, 1), BuildingBlock: EZIPEK_clean_linker_0, # of connection points: 2
#     Edge 11, Type (0, 1), BuildingBlock: EZIPEK_clean_linker_0, # of connection points: 2
#     Edge 12, Type (0, 1), BuildingBlock: EZIPEK_clean_linker_0, # of connection points: 2
#     Edge 13, Type (0, 1), BuildingBlock: EZIPEK_clean_linker_0, # of connection points: 2
#     Edge 14, Type (0, 1), BuildingBlock: EZIPEK_clean_linker_0, # of connection points: 2
#     Edge 15, Type (0, 1), BuildingBlock: EZIPEK_clean_linker_0, # of connection points: 2
#     Edge 16, Type (0, 1), BuildingBlock: EZIPEK_clean_linker_0, # of connection points: 2
#     Edge 17, Type (0, 1), BuildingBlock: EZIPEK_clean_linker_0, # of connection points: 2
# Relax obj value: 0.008
# Max RMSD: 0.073
# Mean RMSD: 0.045
data_MOF--net-pth--node1-QUQFOY_clean_sbu_3--node2-KOZSID_clean_sbu_0--edge1-EZIPEK_clean_linker_0
_symmetry_space_group_name_H-M    P1
_symmetry_Int_Tables_number       1
_symmetry_cell_setting            triclinic
loop_
_symmetry_equiv_pos_as_xyz
'x, y, z'
_cell_length_a     20.341087
_cell_length_b     20.194688
_cell_length_c     47.374718
_cell_angle_alpha  86.318715
_cell_angle_beta   87.367031
_cell_angle_gamma 120.7929
loop_
_atom_site_label
_atom_site_type_symbol
_atom_site_fract_x
_atom_site_fract_y
_atom_site_fract_z
_atom_type_partial_charge
C0 C 0.02681 0.18733 0.07038 0.0
O1 O 0.99809 0.1885 0.04732 0.0
Cd2 Cd 0.02299 0.13526 0.00744 0.0
O3 O 0.06024 0.14912 0.07388 0.0
Cd4 Cd 0.08241 0.0601 0.04701 0.0
C5 C 0.21799 0.21459 0.0066 0.0
O6 O 0.98086 0.00027 0.0144 0.0
O7 O 0.08981 0.00925 0.00297 0.0
O8 O 0.0135 0.95513 0.08483 0.0
C9 C 0.0198 0.98129 -0.0013 0.0
O10 O 0.16108 0.21038 0.99487 0.0
C11 C 0.06921 0.945 0.08852 0.0
O12 O 0.20826 0.16903 0.02836 0.0
O13 O 0.13245 0.9901 0.07365 0.0
C14 C 0.22976 0.13118 0.40139 0.0
O15 O 0.26527 0.1756 0.37883 0.0
Cd16 Cd 0.20141 0.20422 0.34306 0.0
O17 O 0.15774 0.10204 0.4067 0.0
Cd18 Cd 0.04908 0.09931 0.38434 0.0
C19 C 0.08209 0.01455 0.33125 0.0
O20 O 0.11391 0.23579 0.36521 0.0
O21 O 0.00711 0.15637 0.3484 0.0
O22 O 0.00302 0.08464 0.43456 0.0
C23 C 0.06036 0.22556 0.34996 0.0
O24 O 0.13718 0.08196 0.32192 0.0
C25 C 0.93296 0.05619 0.43029 0.0
O26 O 0.0424 0.0021 0.35471 0.0
O27 O 0.9169 0.04339 0.4049 0.0
C28 C 0.97372 0.13362 0.68854 0.0
O29 O 0.96111 0.1489 0.71305 0.0
Cd30 Cd 0.03137 0.15334 0.75275 0.0
O31 O 0.02658 0.11848 0.68366 0.0
Cd32 Cd 0.11598 0.10083 0.71336 0.0
C33 C 0.97341 0.9628 0.75961 0.0
O34 O 0.16669 0.21567 0.73914 0.0
O35 O 0.18384 0.12378 0.75599 0.0
O36 O 0.18225 0.04136 0.69137 0.0
C37 C 0.20017 0.19333 0.75578 0.0
O38 O 0.97412 0.01859 0.77089 0.0
C39 C 0.22906 0.10178 0.6751 0.0
O40 O 0.01554 0.97453 0.73692 0.0
O41 O 0.22135 0.16014 0.67584 0.0
C42 C 0.11521 0.69527 0.16606 0.0
C43 C 0.18399 0.748 0.15029 0.0
C44 C 0.24001 0.74094 0.16235 0.0
C45 C 0.20226 0.68432 0.18458 0.0
N46 N 0.12533 0.65398 0.1872 0.0
Co47 Co 0.04809 0.57008 0.21632 0.0
N48 N 0.13155 0.56848 0.23673 0.0
C49 C 0.20832 0.61503 0.2303 0.0
C50 C 0.25123 0.60115 0.24857 0.0
C51 C 0.19879 0.5419 0.26775 0.0
C52 C 0.12672 0.52294 0.25992 0.0
N53 N 0.97079 0.48402 0.24483 0.0
C54 C 0.98141 0.44452 0.26657 0.0
C55 C 0.91209 0.38627 0.28052 0.0
C56 C 0.85545 0.3886 0.26694 0.0
C57 C 0.89331 0.4477 0.24553 0.0
N58 N 0.96505 0.57463 0.1966 0.0
C59 C 0.88836 0.53076 0.20375 0.0
C60 C 0.84631 0.55184 0.18774 0.0
C61 C 0.89937 0.61396 0.16966 0.0
C62 C 0.97089 0.62681 0.17564 0.0
N63 N 0.04289 0.49143 0.19192 0.0
C64 C 0.03603 0.38512 0.15501 0.0
C65 C 0.96934 0.38231 0.16521 0.0
C66 C 0.97399 0.43543 0.18363 0.0
C67 C 0.10594 0.43991 0.16412 0.0
C68 C 0.10806 0.49215 0.1825 0.0
N69 N 0.05284 0.64851 0.24047 0.0
C70 C 0.98856 0.69402 0.27073 0.0
C71 C 0.05685 0.76442 0.27116 0.0
C72 C 0.12358 0.77563 0.2567 0.0
C73 C 0.12047 0.71691 0.24179 0.0
C74 C 0.98775 0.63729 0.25523 0.0
H75 H 0.1732 0.7285 0.23117 0.0
H76 H 0.93361 0.58526 0.25528 0.0
H77 H 0.92109 0.43042 0.19055 0.0
H78 H 0.1632 0.53302 0.18849 0.0
C79 C 0.23815 0.66613 0.20553 0.0
C80 C 0.04293 0.69098 0.16164 0.0
C81 C 0.05567 0.45818 0.27412 0.0
C82 C 0.85797 0.47214 0.22632 0.0
H83 H 0.19301 0.78933 0.1326 0.0
H84 H 0.30132 0.77565 0.15649 0.0
H85 H 0.31319 0.62912 0.24754 0.0
H86 H 0.21197 0.51438 0.28511 0.0
H87 H 0.90347 0.34591 0.2985 0.0
H88 H 0.79402 0.35151 0.27203 0.0
H89 H 0.78459 0.52643 0.18953 0.0
H90 H 0.887 0.647 0.1542 0.0
H91 H 0.91407 0.34017 0.15857 0.0
H92 H 0.15882 0.44332 0.15661 0.0
H93 H 0.93597 0.6833 0.28205 0.0
H94 H 0.1778 0.82949 0.25695 0.0
C95 C 0.44364 0.01881 0.59788 0.0
C96 C 0.38225 0.95407 0.61342 0.0
C97 C 0.37554 0.8906 0.60203 0.0
C98 C 0.43276 0.91982 0.58022 0.0
N99 N 0.47636 0.99783 0.57741 0.0
Co100 Co 0.5617 0.06263 0.54711 0.0
N101 N 0.56659 0.97158 0.53629 0.0
C102 C 0.51379 0.89651 0.54406 0.0
C103 C 0.53601 0.8469 0.53522 0.0
C104 C 0.60716 0.89358 0.5209 0.0
C105 C 0.62385 0.96925 0.52148 0.0
N106 N 0.64605 0.12716 0.5167 0.0
C107 C 0.69361 0.11053 0.5021 0.0
C108 C 0.74198 0.17076 0.48154 0.0
C109 C 0.7242 0.22722 0.48355 0.0
C110 C 0.66597 0.19824 0.505 0.0
N111 N 0.55747 0.15434 0.55794 0.0
C112 C 0.59116 0.22436 0.54277 0.0
C113 C 0.57969 0.277 0.55564 0.0
C114 C 0.53463 0.23747 0.58025 0.0
C115 C 0.5204 0.1624 0.58079 0.0
N116 N 0.63759 0.08168 0.5743 0.0
C117 C 0.75227 0.10572 0.60992 0.0
C118 C 0.76178 0.16569 0.59042 0.0
C119 C 0.70312 0.15297 0.57329 0.0
C120 C 0.68366 0.03395 0.61161 0.0
C121 C 0.62766 0.0228 0.59336 0.0
N122 N 0.48676 0.04411 0.51951 0.0
C123 C 0.37739 0.05157 0.50721 0.0
C124 C 0.3975 0.05364 0.47855 0.0
C125 C 0.45834 0.04305 0.47072 0.0
C126 C 0.50192 0.03744 0.49171 0.0
C127 C 0.42219 0.04566 0.52732 0.0
H128 H 0.54991 0.03142 0.48523 0.0
H129 H 0.40608 0.04542 0.54904 0.0
H130 H 0.71166 0.2006 0.55883 0.0
H131 H 0.57702 0.96604 0.59441 0.0
C132 C 0.45169 0.87597 0.56378 0.0
C133 C 0.4612 0.09822 0.60055 0.0
C134 C 0.69146 0.0369 0.50598 0.0
C135 C 0.63804 0.24041 0.51777 0.0
H136 H 0.34441 0.95275 0.63055 0.0
H137 H 0.33397 0.83034 0.60888 0.0
H138 H 0.50581 0.78452 0.5398 0.0
H139 H 0.64238 0.87404 0.51102 0.0
H140 H 0.78539 0.17358 0.46658 0.0
H141 H 0.7523 0.28369 0.47152 0.0
H142 H 0.60145 0.33695 0.54806 0.0
H143 H 0.51144 0.26004 0.59533 0.0
H144 H 0.81409 0.22203 0.58855 0.0
H145 H 0.67425 0.98625 0.6265 0.0
H146 H 0.32917 0.05752 0.51391 0.0
H147 H 0.47397 0.04259 0.4486 0.0
C148 C 0.74002 0.61373 0.83373 0.0
C149 C 0.78977 0.59369 0.82144 0.0
C150 C 0.7791 0.53019 0.83778 0.0
C151 C 0.7237 0.51533 0.85899 0.0
N152 N 0.69723 0.5646 0.85688 0.0
Co153 Co 0.61936 0.56682 0.88376 0.0
N154 N 0.60931 0.47848 0.90939 0.0
C155 C 0.64763 0.44063 0.90603 0.0
C156 C 0.62726 0.3816 0.92695 0.0
C157 C 0.5716 0.38075 0.94446 0.0
C158 C 0.56134 0.43951 0.9331 0.0
N159 N 0.54165 0.56912 0.91072 0.0
C160 C 0.49893 0.52 0.9339 0.0
C161 C 0.44877 0.53988 0.946 0.0
C162 C 0.45959 0.60345 0.9297 0.0
C163 C 0.51528 0.61852 0.90862 0.0
N164 N 0.62954 0.65523 0.85815 0.0
C165 C 0.59101 0.6929 0.86148 0.0
C166 C 0.61298 0.75339 0.84105 0.0
C167 C 0.66993 0.75545 0.82394 0.0
C168 C 0.67928 0.69572 0.83497 0.0
N169 N 0.53536 0.4924 0.86234 0.0
C170 C 0.42081 0.39227 0.8294 0.0
C171 C 0.42001 0.45555 0.83895 0.0
C172 C 0.47727 0.50436 0.8554 0.0
C173 C 0.47819 0.37819 0.83706 0.0
C174 C 0.53457 0.42866 0.85352 0.0
N175 N 0.70374 0.64198 0.90475 0.0
C176 C 0.77187 0.76796 0.92187 0.0
C177 C 0.83744 0.76273 0.92516 0.0
C178 C 0.82875 0.68995 0.92192 0.0
C179 C 0.76289 0.63176 0.91135 0.0
C180 C 0.70709 0.70833 0.91151 0.0
H181 H 0.76172 0.57941 0.90829 0.0
H182 H 0.66096 0.71791 0.90874 0.0
H183 H 0.47357 0.55171 0.86199 0.0
H184 H 0.57701 0.41516 0.85872 0.0
C185 C 0.69948 0.45938 0.88224 0.0
C186 C 0.74003 0.68356 0.82409 0.0
C187 C 0.50013 0.45093 0.94392 0.0
C188 C 0.53934 0.67435 0.88532 0.0
H189 H 0.83117 0.62355 0.80312 0.0
H190 H 0.81005 0.50021 0.83512 0.0
H191 H 0.64861 0.34234 0.92876 0.0
H192 H 0.54012 0.33994 0.96295 0.0
H193 H 0.40707 0.51026 0.96423 0.0
H194 H 0.42849 0.63331 0.93228 0.0
H195 H 0.59226 0.79319 0.83946 0.0
H196 H 0.70261 0.79776 0.80596 0.0
H197 H 0.37587 0.46773 0.83343 0.0
H198 H 0.47997 0.32906 0.83006 0.0
H199 H 0.76968 0.81816 0.92716 0.0
H200 H 0.87071 0.67528 0.92732 0.0
C201 C 0.99524 0.20428 0.12036 0.0
C202 C 0.02837 0.23713 0.09224 0.0
C203 C 0.0597 0.36516 0.10486 0.0
C204 C 0.0332 0.33375 0.13353 0.0
N205 N 0.98684 0.2265 0.16978 0.0
N206 N 0.10806 0.35141 0.05944 0.0
C207 C 0.00407 0.25407 0.14166 0.0
C208 C 0.06493 0.31832 0.08491 0.0
N209 N 0.95301 0.12555 0.12646 0.0
N210 N 0.07798 0.43917 0.09649 0.0
H211 H 0.1159 0.31976 0.04449 0.0
H212 H 0.14258 0.41111 0.05433 0.0
H213 H 0.07492 0.4756 0.11045 0.0
H214 H 0.08941 0.46198 0.07528 0.0
H215 H 0.92085 0.09811 0.14581 0.0
H216 H 0.94459 0.08729 0.11131 0.0
H217 H 0.97321 0.1709 0.17727 0.0
H218 H 0.99237 0.26133 0.18593 0.0
C219 C 0.88928 0.08968 0.47598 0.0
C220 C 0.87261 0.04192 0.45317 0.0
C221 C 0.73535 0.98824 0.46552 0.0
C222 C 0.75192 0.02973 0.48979 0.0
N223 N 0.84407 0.10253 0.52239 0.0
N224 N 0.77754 0.92472 0.43444 0.0
C225 C 0.82878 0.07372 0.49662 0.0
C226 C 0.7949 0.98432 0.45056 0.0
N227 N 0.96003 0.15439 0.4769 0.0
N228 N 0.66429 0.95585 0.45573 0.0
H229 H 0.81946 0.91571 0.42518 0.0
H230 H 0.72139 0.87899 0.43359 0.0
H231 H 0.61971 0.96047 0.4652 0.0
H232 H 0.65245 0.93107 0.43657 0.0
H233 H 0.97122 0.19359 0.4919 0.0
H234 H 0.00482 0.17526 0.461 0.0
H235 H 0.89901 0.12956 0.52933 0.0
H236 H 0.80066 0.09222 0.53782 0.0
C237 C 0.93428 0.86573 0.80157 0.0
C238 C 0.92214 0.8835 0.77358 0.0
C239 C 0.8014 0.75848 0.77647 0.0
C240 C 0.8072 0.74757 0.80588 0.0
N241 N 0.87775 0.78977 0.84711 0.0
N242 N 0.84347 0.84933 0.73418 0.0
C243 C 0.8738 0.8004 0.81858 0.0
C244 C 0.85618 0.82994 0.76071 0.0
N245 N 0.00409 0.9112 0.81163 0.0
N246 N 0.74319 0.70059 0.7638 0.0
H247 H 0.88248 0.90079 0.72184 0.0
H248 H 0.79215 0.81684 0.72506 0.0
H249 H 0.70177 0.64803 0.77501 0.0
H250 H 0.73969 0.7018 0.74193 0.0
H251 H 0.01939 0.89775 0.83088 0.0
H252 H 0.04967 0.95904 0.79941 0.0
H253 H 0.92111 0.83017 0.85823 0.0
H254 H 0.83504 0.74196 0.86016 0.0
C255 C 0.08093 0.89095 0.13584 0.0
C256 C 0.05885 0.87936 0.1078 0.0
C257 C 0.02607 0.74428 0.11492 0.0
C258 C 0.04396 0.75454 0.14345 0.0
N259 N 0.07572 0.83212 0.18286 0.0
N260 N 0.99632 0.7925 0.07225 0.0
C261 C 0.06761 0.82637 0.15447 0.0
C262 C 0.027 0.80514 0.09783 0.0
N263 N 0.11563 0.96381 0.14444 0.0
N264 N 0.01074 0.67735 0.10391 0.0
H265 H 0.99608 0.83581 0.05912 0.0
H266 H 0.96525 0.73786 0.06513 0.0
H267 H 0.00829 0.63091 0.11595 0.0
H268 H 0.00605 0.66992 0.0824 0.0
H269 H 0.14075 0.97775 0.1635 0.0
H270 H 0.12377 0.01186 0.13161 0.0
H271 H 0.08583 0.88057 0.1928 0.0
H272 H 0.06604 0.78571 0.19706 0.0
C273 C 0.3384 0.17041 0.43211 0.0
C274 C 0.27231 0.11059 0.42121 0.0
C275 C 0.28825 0.01237 0.4481 0.0
C276 C 0.35741 0.07231 0.45707 0.0
N277 N 0.45544 0.20765 0.45462 0.0
N278 N 0.1903 0.97446 0.4153 0.0
C279 C 0.38482 0.15116 0.44804 0.0
C280 C 0.24862 0.03141 0.42829 0.0
N281 N 0.35435 0.24514 0.42863 0.0
N282 N 0.25951 0.93734 0.45904 0.0
H283 H 0.15822 0.98489 0.40116 0.0
H284 H 0.17719 0.91723 0.41685 0.0
H285 H 0.28879 0.92083 0.47259 0.0
H286 H 0.20457 0.89219 0.45623 0.0
H287 H 0.39691 0.28996 0.43863 0.0
H288 H 0.32018 0.26128 0.41797 0.0
H289 H 0.48232 0.26518 0.44599 0.0
H290 H 0.4903 0.19609 0.46695 0.0
C291 C 0.33192 0.29988 0.76314 0.0
C292 C 0.25547 0.2458 0.77449 0.0
C293 C 0.28774 0.2855 0.82212 0.0
C294 C 0.36318 0.34247 0.8105 0.0
N295 N 0.45409 0.41385 0.76969 0.0
N296 N 0.15635 0.1927 0.81339 0.0
C297 C 0.38448 0.35252 0.7809 0.0
C298 C 0.2321 0.2401 0.80363 0.0
N299 N 0.35491 0.2991 0.73563 0.0
N300 N 0.27005 0.27367 0.85089 0.0
H301 H 0.11434 0.15782 0.80045 0.0
H302 H 0.13382 0.19176 0.83368 0.0
H303 H 0.30857 0.30787 0.86492 0.0
H304 H 0.21922 0.22735 0.86107 0.0
H305 H 0.41195 0.3307 0.72705 0.0
H306 H 0.31765 0.26226 0.72178 0.0
H307 H 0.4696 0.42939 0.74798 0.0
H308 H 0.49442 0.45345 0.78206 0.0
C309 C 0.89132 0.06813 0.64885 0.0
C310 C 0.92385 0.13084 0.66599 0.0
C311 C 0.84063 0.175 0.64749 0.0
C312 C 0.81417 0.11722 0.62831 0.0
N313 N 0.83272 0.0239 0.6053 0.0
N314 N 0.94509 0.2567 0.67471 0.0
C315 C 0.84546 0.06862 0.62722 0.0
C316 C 0.90337 0.18832 0.66317 0.0
N317 N 0.89933 0.00543 0.6542 0.0
N318 N 0.80389 0.21473 0.65188 0.0
H319 H 0.99422 0.27061 0.68496 0.0
H320 H 0.93622 0.30291 0.67112 0.0
H321 H 0.75537 0.20442 0.64189 0.0
H322 H 0.8168 0.25204 0.6677 0.0
H323 H 0.87018 0.95549 0.64385 0.0
H324 H 0.92748 0.99905 0.67102 0.0
H325 H 0.86014 0.99286 0.60228 0.0
H326 H 0.80159 0.02463 0.5885 0.0
C327 C 0.99156 0.86523 0.97333 0.0
C328 C 0.9872 0.93294 0.97507 0.0
C329 C 0.91968 0.90597 0.93186 0.0
C330 C 0.90895 0.83069 0.93471 0.0
N331 N 0.99308 0.78088 0.94016 0.0
N332 N 0.96058 0.02644 0.95251 0.0
C333 C 0.96123 0.82069 0.95034 0.0
C334 C 0.95597 0.95651 0.95306 0.0
N335 N 0.02282 0.84188 0.9937 0.0
N336 N 0.90122 0.93054 0.90761 0.0
H337 H 0.99378 0.06815 0.96574 0.0
H338 H 0.93052 0.04259 0.93932 0.0
H339 H 0.88083 0.89562 0.89099 0.0
H340 H 0.91301 0.98676 0.90271 0.0
H341 H 0.01996 0.78873 0.99419 0.0
H342 H 0.04638 0.87239 0.01105 0.0
H343 H 0.03599 0.77677 0.94989 0.0
H344 H 0.98675 0.7652 0.91944 0.0
C345 C 0.02464 0.92418 0.29381 0.0
C346 C 0.07209 0.94848 0.31648 0.0
C347 C 0.09968 0.84503 0.3119 0.0
C348 C 0.05919 0.8259 0.28729 0.0
N349 N 0.99184 0.85359 0.25216 0.0
N350 N 0.16751 0.94328 0.34342 0.0
C351 C 0.0236 0.86694 0.27753 0.0
C352 C 0.11318 0.91202 0.32454 0.0
N353 N 0.98037 0.95545 0.28801 0.0
N354 N 0.1235 0.79808 0.32363 0.0
H355 H 0.18076 0.99386 0.3525 0.0
H356 H 0.20466 0.92361 0.3479 0.0
H357 H 0.11368 0.74766 0.31517 0.0
H358 H 0.14628 0.80499 0.34321 0.0
H359 H 0.9386 0.93453 0.27367 0.0
H360 H 0.9814 0.99886 0.29916 0.0
H361 H 0.97262 0.8875 0.24243 0.0
H362 H 0.9901 0.81228 0.23959 0.0
C363 C 0.28963 0.11582 0.62619 0.0
C364 C 0.29039 0.10457 0.65599 0.0
C365 C 0.41165 0.10575 0.64916 0.0
C366 C 0.40726 0.11 0.61938 0.0
N367 N 0.34377 0.12118 0.57902 0.0
N368 N 0.35012 0.08796 0.69651 0.0
C369 C 0.34718 0.11651 0.60775 0.0
C370 C 0.35094 0.09932 0.66768 0.0
N371 N 0.23394 0.12649 0.61547 0.0
N372 N 0.47521 0.10993 0.65954 0.0
H373 H 0.31003 0.08867 0.71082 0.0
H374 H 0.38696 0.07455 0.70648 0.0
H375 H 0.52064 0.11523 0.64641 0.0
H376 H 0.48631 0.1141 0.68076 0.0
H377 H 0.23571 0.14586 0.59441 0.0
H378 H 0.18662 0.1192 0.62789 0.0
H379 H 0.29534 0.11169 0.56924 0.0
H380 H 0.38972 0.13439 0.5646 0.0
C381 C 0.3134 0.25908 0.96462 0.0
C382 C 0.29585 0.26904 0.99274 0.0
C383 C 0.42045 0.38968 0.9908 0.0
C384 C 0.43177 0.38588 0.96132 0.0
N385 N 0.3863 0.32054 0.91922 0.0
N386 N 0.32925 0.34551 0.03252 0.0
C387 C 0.3778 0.32122 0.94798 0.0
C388 C 0.34886 0.33435 0.00602 0.0
N389 N 0.269 0.18953 0.95406 0.0
N390 N 0.47827 0.44596 0.00415 0.0
H391 H 0.27758 0.30582 0.04437 0.0
H392 H 0.36173 0.39639 0.04197 0.0
H393 H 0.53101 0.48774 0.99342 0.0
H394 H 0.47639 0.44745 0.02609 0.0
H395 H 0.28319 0.17589 0.93476 0.0
H396 H 0.22186 0.14235 0.96592 0.0
H397 H 0.34509 0.27805 0.90805 0.0
H398 H 0.43189 0.36554 0.90608 0.0
C399 C 0.07344 0.28703 0.30103 0.0
C400 C 0.0659 0.28921 0.33083 0.0
C401 C 0.05999 0.4072 0.32342 0.0
C402 C 0.05926 0.39995 0.29384 0.0
N403 N 0.0569 0.32953 0.25428 0.0
N404 N 0.04472 0.34581 0.37096 0.0
C405 C 0.06369 0.33888 0.28256 0.0
C406 C 0.05782 0.3482 0.34223 0.0
N407 N 0.0928 0.23723 0.29041 0.0
N408 N 0.06382 0.47104 0.33337 0.0
H409 H 0.04386 0.3041 0.3854 0.0
H410 H 0.02958 0.3818 0.38045 0.0
H411 H 0.06324 0.51418 0.32021 0.0
H412 H 0.07296 0.48418 0.35425 0.0
H413 H 0.10687 0.23825 0.26892 0.0
H414 H 0.10195 0.19942 0.30332 0.0
H415 H 0.05067 0.28105 0.24537 0.0
H416 H 0.05173 0.36758 0.23988 0.0
loop_
_geom_bond_atom_site_label_1
_geom_bond_atom_site_label_2
_geom_bond_distance
_geom_bond_site_symmetry_2
_ccdc_geom_bond_type
C0 O1 1.306 . S
C0 O3 1.160 . S
O1 C0 1.306 . S
O1 Cd2 2.228 . S
Cd2 O1 2.228 . S
Cd2 O6 2.273 . S
Cd2 O10 2.277 . S
O3 C0 1.160 . S
O3 Cd4 2.203 . S
Cd4 O3 2.203 . S
Cd4 O6 2.411 . S
Cd4 O7 2.333 1_545 S
Cd4 O8 2.352 1_545 S
Cd4 O12 2.277 . S
Cd4 O13 2.356 1_545 S
C5 O10 1.209 . S
C5 O12 1.226 . S
O6 Cd2 2.273 . S
O6 Cd4 2.411 . S
O6 C9 1.320 1_545 S
O7 Cd4 2.333 1_565 S
O7 C9 1.214 . S
O8 Cd4 2.352 1_565 S
O8 C11 1.258 . S
C9 O6 1.320 1_565 S
C9 O7 1.214 . S
O10 Cd2 2.277 . S
O10 C5 1.209 . S
C11 O8 1.258 . S
C11 O13 1.282 . S
O12 Cd4 2.277 . S
O12 C5 1.226 . S
O13 Cd4 2.356 1_565 S
O13 C11 1.282 . S
C14 O15 1.306 . S
C14 O17 1.160 . S
O15 C14 1.306 . S
O15 Cd16 2.228 . S
Cd16 O15 2.228 . S
Cd16 O20 2.273 . S
Cd16 O24 2.277 . S
O17 C14 1.160 . S
O17 Cd18 2.203 . S
Cd18 O17 2.203 . S
Cd18 O20 2.411 . S
Cd18 O21 2.324 1_455 S
Cd18 O22 2.352 . S
Cd18 O26 2.277 1_545 S
Cd18 O27 2.356 1_455 S
C19 O24 1.209 1_565 S
C19 O26 1.226 . S
O20 Cd16 2.273 . S
O20 Cd18 2.411 . S
O20 C23 1.320 . S
O21 Cd18 2.324 1_655 S
O21 C23 1.205 1_655 S
O22 Cd18 2.352 . S
O22 C25 1.258 1_455 S
C23 O20 1.320 . S
C23 O21 1.205 1_455 S
O24 Cd16 2.277 . S
O24 C19 1.209 1_545 S
C25 O22 1.258 1_655 S
C25 O27 1.282 . S
O26 Cd18 2.277 1_565 S
O26 C19 1.226 . S
O27 Cd18 2.356 1_655 S
O27 C25 1.282 . S
C28 O29 1.306 . S
C28 O31 1.160 1_655 S
O29 C28 1.306 . S
O29 Cd30 2.228 1_655 S
Cd30 O29 2.228 1_455 S
Cd30 O34 2.273 . S
Cd30 O38 2.277 1_455 S
O31 C28 1.160 1_455 S
O31 Cd32 2.203 . S
Cd32 O31 2.203 . S
Cd32 O34 2.411 . S
Cd32 O35 2.333 . S
Cd32 O36 2.352 . S
Cd32 O40 2.277 1_545 S
Cd32 O41 2.356 . S
C33 O38 1.209 1_565 S
C33 O40 1.226 1_655 S
O34 Cd30 2.273 . S
O34 Cd32 2.411 . S
O34 C37 1.320 . S
O35 Cd32 2.333 . S
O35 C37 1.214 . S
O36 Cd32 2.352 . S
O36 C39 1.258 . S
C37 O34 1.320 . S
C37 O35 1.214 . S
O38 Cd30 2.277 1_655 S
O38 C33 1.209 1_545 S
C39 O36 1.258 . S
C39 O41 1.282 . S
O40 Cd32 2.277 1_565 S
O40 C33 1.226 1_455 S
O41 Cd32 2.356 . S
O41 C39 1.282 . S
C42 C43 1.443 . S
C42 N46 1.376 . S
C42 C80 1.389 . S
C43 C42 1.443 . S
C43 C44 1.340 . S
C43 H83 0.951 . S
C44 C43 1.340 . S
C44 C45 1.439 . S
C44 H84 0.950 . S
C45 C44 1.439 . S
C45 N46 1.374 . S
C45 C79 1.395 . S
N46 C42 1.376 . S
N46 C45 1.374 . S
N46 Co47 2.008 . S
Co47 N46 2.008 . S
Co47 N48 1.995 . S
Co47 N53 2.008 1_455 S
Co47 N58 1.996 1_455 S
Co47 N63 2.282 . S
Co47 N69 2.282 . S
N48 Co47 1.995 . S
N48 C49 1.376 . S
N48 C52 1.383 . S
C49 N48 1.376 . S
C49 C50 1.446 . S
C49 C79 1.391 . S
C50 C49 1.446 . S
C50 C51 1.339 . S
C50 H85 0.949 . S
C51 C50 1.339 . S
C51 C52 1.439 . S
C51 H86 0.950 . S
C52 N48 1.383 . S
C52 C51 1.439 . S
C52 C81 1.392 . S
N53 Co47 2.008 1_655 S
N53 C54 1.376 1_655 S
N53 C57 1.374 . S
C54 N53 1.376 1_455 S
C54 C55 1.443 1_455 S
C54 C81 1.389 . S
C55 C54 1.443 1_655 S
C55 C56 1.340 . S
C55 H87 0.951 . S
C56 C55 1.340 . S
C56 C57 1.439 . S
C56 H88 0.950 . S
C57 N53 1.374 . S
C57 C56 1.439 . S
C57 C82 1.395 . S
N58 Co47 1.996 1_655 S
N58 C59 1.375 . S
N58 C62 1.383 1_655 S
C59 N58 1.375 . S
C59 C60 1.446 . S
C59 C82 1.391 . S
C60 C59 1.446 . S
C60 C61 1.339 . S
C60 H89 0.949 . S
C61 C60 1.339 . S
C61 C62 1.439 1_655 S
C61 H90 0.950 . S
C62 N58 1.383 1_455 S
C62 C61 1.439 1_455 S
C62 C80 1.392 . S
N63 Co47 2.282 . S
N63 C66 1.332 . S
N63 C68 1.332 . S
C64 C65 1.386 . S
C64 C67 1.388 . S
C65 C64 1.386 . S
C65 C66 1.382 . S
C65 H91 0.950 1_455 S
C66 N63 1.332 . S
C66 C65 1.382 . S
C66 H77 0.952 1_455 S
C67 C64 1.388 . S
C67 C68 1.382 . S
C67 H92 0.950 . S
C68 N63 1.332 . S
C68 C67 1.382 . S
C68 H78 0.948 . S
N69 Co47 2.282 . S
N69 C73 1.332 . S
N69 C74 1.332 . S
C70 C71 1.388 . S
C70 C74 1.382 . S
C70 H93 0.950 1_455 S
C71 C70 1.388 . S
C71 C72 1.386 . S
C72 C71 1.386 . S
C72 C73 1.382 . S
C72 H94 0.950 . S
C73 N69 1.332 . S
C73 C72 1.382 . S
C73 H75 0.952 . S
C74 N69 1.332 . S
C74 C70 1.382 . S
C74 H76 0.948 1_455 S
H75 C73 0.952 . S
H76 C74 0.948 1_655 S
H77 C66 0.952 1_655 S
H78 C68 0.948 . S
C79 C45 1.395 . S
C79 C49 1.391 . S
C80 C42 1.389 . S
C80 C62 1.392 . S
C81 C52 1.392 . S
C81 C54 1.389 . S
C82 C57 1.395 . S
C82 C59 1.391 . S
H83 C43 0.951 . S
H84 C44 0.950 . S
H85 C50 0.949 . S
H86 C51 0.950 . S
H87 C55 0.951 . S
H88 C56 0.950 . S
H89 C60 0.949 . S
H90 C61 0.950 . S
H91 C65 0.950 1_655 S
H92 C67 0.950 . S
H93 C70 0.950 1_655 S
H94 C72 0.950 . S
C95 C96 1.443 1_545 S
C95 N99 1.376 . S
C95 C133 1.389 . S
C96 C95 1.443 1_565 S
C96 C97 1.340 . S
C96 H136 0.951 . S
C97 C96 1.340 . S
C97 C98 1.439 . S
C97 H137 0.950 . S
C98 C97 1.439 . S
C98 N99 1.374 1_565 S
C98 C132 1.395 . S
N99 C95 1.376 . S
N99 C98 1.374 1_545 S
N99 Co100 2.008 . S
Co100 N99 2.008 . S
Co100 N101 1.995 . S
Co100 N106 2.008 . S
Co100 N111 1.995 . S
Co100 N116 2.282 . S
Co100 N122 2.282 . S
N101 Co100 1.995 . S
N101 C102 1.376 1_545 S
N101 C105 1.383 . S
C102 N101 1.376 1_565 S
C102 C103 1.446 . S
C102 C132 1.391 . S
C103 C102 1.446 . S
C103 C104 1.339 . S
C103 H138 0.949 . S
C104 C103 1.339 . S
C104 C105 1.439 1_565 S
C104 H139 0.950 . S
C105 N101 1.383 . S
C105 C104 1.439 1_545 S
C105 C134 1.392 . S
N106 Co100 2.008 . S
N106 C107 1.376 . S
N106 C110 1.374 . S
C107 N106 1.376 . S
C107 C108 1.443 . S
C107 C134 1.389 . S
C108 C107 1.443 . S
C108 C109 1.340 . S
C108 H140 0.951 . S
C109 C108 1.340 . S
C109 C110 1.439 . S
C109 H141 0.950 . S
C110 N106 1.374 . S
C110 C109 1.439 . S
C110 C135 1.395 . S
N111 Co100 1.995 . S
N111 C112 1.376 . S
N111 C115 1.383 . S
C112 N111 1.376 . S
C112 C113 1.446 . S
C112 C135 1.391 . S
C113 C112 1.446 . S
C113 C114 1.339 . S
C113 H142 0.949 . S
C114 C113 1.339 . S
C114 C115 1.439 . S
C114 H143 0.950 . S
C115 N111 1.383 . S
C115 C114 1.439 . S
C115 C133 1.392 . S
N116 Co100 2.282 . S
N116 C119 1.332 . S
N116 C121 1.332 . S
C117 C118 1.386 . S
C117 C120 1.388 . S
C118 C117 1.386 . S
C118 C119 1.382 . S
C118 H144 0.950 . S
C119 N116 1.332 . S
C119 C118 1.382 . S
C119 H130 0.952 . S
C120 C117 1.388 . S
C120 C121 1.382 . S
C120 H145 0.950 1_545 S
C121 N116 1.332 . S
C121 C120 1.382 . S
C121 H131 0.948 1_545 S
N122 Co100 2.282 . S
N122 C126 1.332 . S
N122 C127 1.332 . S
C123 C124 1.388 . S
C123 C127 1.382 . S
C123 H146 0.950 . S
C124 C123 1.388 . S
C124 C125 1.386 . S
C125 C124 1.386 . S
C125 C126 1.382 . S
C125 H147 0.950 1_545 S
C126 N122 1.332 . S
C126 C125 1.382 . S
C126 H128 0.952 1_545 S
C127 N122 1.332 . S
C127 C123 1.382 . S
C127 H129 0.948 . S
H128 C126 0.952 1_565 S
H129 C127 0.948 . S
H130 C119 0.952 . S
H131 C121 0.948 1_565 S
C132 C98 1.395 . S
C132 C102 1.391 . S
C133 C95 1.389 . S
C133 C115 1.392 . S
C134 C105 1.392 . S
C134 C107 1.389 . S
C135 C110 1.395 . S
C135 C112 1.391 . S
H136 C96 0.951 . S
H137 C97 0.950 . S
H138 C103 0.949 . S
H139 C104 0.950 . S
H140 C108 0.951 . S
H141 C109 0.950 . S
H142 C113 0.949 . S
H143 C114 0.950 . S
H144 C118 0.950 . S
H145 C120 0.950 1_565 S
H146 C123 0.950 . S
H147 C125 0.950 1_565 S
C148 C149 1.443 . S
C148 N152 1.376 . S
C148 C186 1.389 . S
C149 C148 1.443 . S
C149 C150 1.340 . S
C149 H189 0.951 . S
C150 C149 1.340 . S
C150 C151 1.439 . S
C150 H190 0.950 . S
C151 C150 1.439 . S
C151 N152 1.374 . S
C151 C185 1.395 . S
N152 C148 1.376 . S
N152 C151 1.374 . S
N152 Co153 2.008 . S
Co153 N152 2.008 . S
Co153 N154 1.995 . S
Co153 N159 2.008 . S
Co153 N164 1.995 . S
Co153 N169 2.282 . S
Co153 N175 2.282 . S
N154 Co153 1.995 . S
N154 C155 1.376 . S
N154 C158 1.383 . S
C155 N154 1.376 . S
C155 C156 1.446 . S
C155 C185 1.391 . S
C156 C155 1.446 . S
C156 C157 1.339 . S
C156 H191 0.949 . S
C157 C156 1.339 . S
C157 C158 1.439 . S
C157 H192 0.950 . S
C158 N154 1.383 . S
C158 C157 1.439 . S
C158 C187 1.392 . S
N159 Co153 2.008 . S
N159 C160 1.376 . S
N159 C163 1.374 . S
C160 N159 1.376 . S
C160 C161 1.443 . S
C160 C187 1.389 . S
C161 C160 1.443 . S
C161 C162 1.340 . S
C161 H193 0.951 . S
C162 C161 1.340 . S
C162 C163 1.439 . S
C162 H194 0.950 . S
C163 N159 1.374 . S
C163 C162 1.439 . S
C163 C188 1.395 . S
N164 Co153 1.995 . S
N164 C165 1.376 . S
N164 C168 1.383 . S
C165 N164 1.376 . S
C165 C166 1.446 . S
C165 C188 1.391 . S
C166 C165 1.446 . S
C166 C167 1.339 . S
C166 H195 0.949 . S
C167 C166 1.339 . S
C167 C168 1.439 . S
C167 H196 0.950 . S
C168 N164 1.383 . S
C168 C167 1.439 . S
C168 C186 1.392 . S
N169 Co153 2.282 . S
N169 C172 1.332 . S
N169 C174 1.332 . S
C170 C171 1.386 . S
C170 C173 1.388 . S
C171 C170 1.386 . S
C171 C172 1.382 . S
C171 H197 0.950 . S
C172 N169 1.332 . S
C172 C171 1.382 . S
C172 H183 0.952 . S
C173 C170 1.388 . S
C173 C174 1.382 . S
C173 H198 0.950 . S
C174 N169 1.332 . S
C174 C173 1.382 . S
C174 H184 0.948 . S
N175 Co153 2.282 . S
N175 C179 1.332 . S
N175 C180 1.332 . S
C176 C177 1.388 . S
C176 C180 1.382 . S
C176 H199 0.950 . S
C177 C176 1.388 . S
C177 C178 1.386 . S
C178 C177 1.386 . S
C178 C179 1.382 . S
C178 H200 0.950 . S
C179 N175 1.332 . S
C179 C178 1.382 . S
C179 H181 0.952 . S
C180 N175 1.332 . S
C180 C176 1.382 . S
C180 H182 0.948 . S
H181 C179 0.952 . S
H182 C180 0.948 . S
H183 C172 0.952 . S
H184 C174 0.948 . S
C185 C151 1.395 . S
C185 C155 1.391 . S
C186 C148 1.389 . S
C186 C168 1.392 . S
C187 C158 1.392 . S
C187 C160 1.389 . S
C188 C163 1.395 . S
C188 C165 1.391 . S
H189 C149 0.951 . S
H190 C150 0.950 . S
H191 C156 0.949 . S
H192 C157 0.950 . S
H193 C161 0.951 . S
H194 C162 0.950 . S
H195 C166 0.949 . S
H196 C167 0.950 . S
H197 C171 0.950 . S
H198 C173 0.950 . S
H199 C176 0.950 . S
H200 C178 0.950 . S
C201 C202 1.363 . S
C201 C207 1.379 . S
C201 N209 1.356 . S
C202 C201 1.363 . S
C202 C208 1.363 . S
C203 C204 1.363 . S
C203 C208 1.379 . S
C203 N210 1.356 . S
C204 C203 1.363 . S
C204 C207 1.363 . S
N205 C207 1.356 . S
N205 H217 0.984 . S
N205 H218 0.985 . S
N206 C208 1.356 . S
N206 H211 0.984 . S
N206 H212 0.985 . S
C207 C201 1.379 . S
C207 C204 1.363 . S
C207 N205 1.356 . S
C208 C202 1.363 . S
C208 C203 1.379 . S
C208 N206 1.356 . S
N209 C201 1.356 . S
N209 H215 0.984 . S
N209 H216 0.984 . S
N210 C203 1.356 . S
N210 H213 0.984 . S
N210 H214 0.985 . S
H211 N206 0.984 . S
H212 N206 0.985 . S
H213 N210 0.984 . S
H214 N210 0.985 . S
H215 N209 0.984 . S
H216 N209 0.984 . S
H217 N205 0.984 . S
H218 N205 0.985 . S
C219 C220 1.363 . S
C219 C225 1.379 . S
C219 N227 1.356 . S
C220 C219 1.363 . S
C220 C226 1.363 . S
C221 C222 1.363 . S
C221 C226 1.379 . S
C221 N228 1.356 1_545 S
C222 C221 1.363 . S
C222 C225 1.363 . S
N223 C225 1.356 . S
N223 H235 0.984 . S
N223 H236 0.985 . S
N224 C226 1.356 1_565 S
N224 H229 0.984 . S
N224 H230 0.985 . S
C225 C219 1.379 . S
C225 C222 1.363 . S
C225 N223 1.356 . S
C226 C220 1.363 . S
C226 C221 1.379 . S
C226 N224 1.356 1_545 S
N227 C219 1.356 . S
N227 H233 0.984 1_655 S
N227 H234 0.984 . S
N228 C221 1.356 1_565 S
N228 H231 0.984 1_565 S
N228 H232 0.985 . S
H229 N224 0.984 . S
H230 N224 0.985 . S
H231 N228 0.984 1_545 S
H232 N228 0.985 . S
H233 N227 0.984 1_455 S
H234 N227 0.984 . S
H235 N223 0.984 . S
H236 N223 0.985 . S
C237 C238 1.363 . S
C237 C243 1.379 . S
C237 N245 1.356 1_655 S
C238 C237 1.363 . S
C238 C244 1.363 . S
C239 C240 1.363 . S
C239 C244 1.379 . S
C239 N246 1.356 . S
C240 C239 1.363 . S
C240 C243 1.363 . S
N241 C243 1.356 . S
N241 H253 0.984 . S
N241 H254 0.985 . S
N242 C244 1.356 . S
N242 H247 0.984 . S
N242 H248 0.985 . S
C243 C237 1.379 . S
C243 C240 1.363 . S
C243 N241 1.356 . S
C244 C238 1.363 . S
C244 C239 1.379 . S
C244 N242 1.356 . S
N245 C237 1.356 1_455 S
N245 H251 0.984 . S
N245 H252 0.984 . S
N246 C239 1.356 . S
N246 H249 0.984 . S
N246 H250 0.985 . S
H247 N242 0.984 . S
H248 N242 0.985 . S
H249 N246 0.984 . S
H250 N246 0.985 . S
H251 N245 0.984 . S
H252 N245 0.984 . S
H253 N241 0.984 . S
H254 N241 0.985 . S
C255 C256 1.363 . S
C255 C261 1.379 . S
C255 N263 1.356 . S
C256 C255 1.363 . S
C256 C262 1.363 . S
C257 C258 1.363 . S
C257 C262 1.379 . S
C257 N264 1.356 1_455 S
C258 C257 1.363 . S
C258 C261 1.363 . S
N259 C261 1.356 . S
N259 H271 0.984 . S
N259 H272 0.985 . S
N260 C262 1.356 1_655 S
N260 H265 0.984 1_655 S
N260 H266 0.985 . S
C261 C255 1.379 . S
C261 C258 1.363 . S
C261 N259 1.356 . S
C262 C256 1.363 . S
C262 C257 1.379 . S
C262 N260 1.356 1_455 S
N263 C255 1.356 . S
N263 H269 0.984 1_565 S
N263 H270 0.984 1_565 S
N264 C257 1.356 1_655 S
N264 H267 0.984 . S
N264 H268 0.985 . S
H265 N260 0.984 1_455 S
H266 N260 0.985 . S
H267 N264 0.984 . S
H268 N264 0.985 . S
H269 N263 0.984 1_545 S
H270 N263 0.984 1_545 S
H271 N259 0.984 . S
H272 N259 0.985 . S
C273 C274 1.363 . S
C273 C279 1.379 . S
C273 N281 1.356 . S
C274 C273 1.363 . S
C274 C280 1.363 . S
C275 C276 1.363 . S
C275 C280 1.379 . S
C275 N282 1.356 . S
C276 C275 1.363 . S
C276 C279 1.363 . S
N277 C279 1.356 . S
N277 H289 0.984 . S
N277 H290 0.985 . S
N278 C280 1.356 . S
N278 H283 0.984 . S
N278 H284 0.985 1_545 S
C279 C273 1.379 . S
C279 C276 1.363 . S
C279 N277 1.356 . S
C280 C274 1.363 . S
C280 C275 1.379 . S
C280 N278 1.356 . S
N281 C273 1.356 . S
N281 H287 0.984 . S
N281 H288 0.984 . S
N282 C275 1.356 . S
N282 H285 0.984 . S
N282 H286 0.985 1_545 S
H283 N278 0.984 . S
H284 N278 0.985 1_565 S
H285 N282 0.984 . S
H286 N282 0.985 1_565 S
H287 N281 0.984 . S
H288 N281 0.984 . S
H289 N277 0.984 . S
H290 N277 0.985 . S
C291 C292 1.363 . S
C291 C297 1.379 . S
C291 N299 1.356 . S
C292 C291 1.363 . S
C292 C298 1.363 . S
C293 C294 1.363 . S
C293 C298 1.379 . S
C293 N300 1.356 . S
C294 C293 1.363 . S
C294 C297 1.363 . S
N295 C297 1.356 . S
N295 H307 0.984 . S
N295 H308 0.985 . S
N296 C298 1.356 . S
N296 H301 0.984 . S
N296 H302 0.985 . S
C297 C291 1.379 . S
C297 C294 1.363 . S
C297 N295 1.356 . S
C298 C292 1.363 . S
C298 C293 1.379 . S
C298 N296 1.356 . S
N299 C291 1.356 . S
N299 H305 0.984 . S
N299 H306 0.984 . S
N300 C293 1.356 . S
N300 H303 0.984 . S
N300 H304 0.985 . S
H301 N296 0.984 . S
H302 N296 0.985 . S
H303 N300 0.984 . S
H304 N300 0.985 . S
H305 N299 0.984 . S
H306 N299 0.984 . S
H307 N295 0.984 . S
H308 N295 0.985 . S
C309 C310 1.363 . S
C309 C315 1.379 . S
C309 N317 1.356 1_545 S
C310 C309 1.363 . S
C310 C316 1.363 . S
C311 C312 1.363 . S
C311 C316 1.379 . S
C311 N318 1.356 . S
C312 C311 1.363 . S
C312 C315 1.363 . S
N313 C315 1.356 1_565 S
N313 H325 0.984 . S
N313 H326 0.985 1_565 S
N314 C316 1.356 . S
N314 H319 0.984 1_655 S
N314 H320 0.985 . S
C315 C309 1.379 . S
C315 C312 1.363 . S
C315 N313 1.356 1_545 S
C316 C310 1.363 . S
C316 C311 1.379 . S
C316 N314 1.356 . S
N317 C309 1.356 1_565 S
N317 H323 0.984 . S
N317 H324 0.984 . S
N318 C311 1.356 . S
N318 H321 0.984 . S
N318 H322 0.985 . S
H319 N314 0.984 1_455 S
H320 N314 0.985 . S
H321 N318 0.984 . S
H322 N318 0.985 . S
H323 N317 0.984 . S
H324 N317 0.984 . S
H325 N313 0.984 . S
H326 N313 0.985 1_545 S
C327 C328 1.363 . S
C327 C333 1.379 . S
C327 N335 1.356 1_556 S
C328 C327 1.363 . S
C328 C334 1.363 . S
C329 C330 1.363 . S
C329 C334 1.379 . S
C329 N336 1.356 . S
C330 C329 1.363 . S
C330 C333 1.363 . S
N331 C333 1.356 . S
N331 H343 0.984 . S
N331 H344 0.985 . S
N332 C334 1.356 1_545 S
N332 H337 0.984 1_556 S
N332 H338 0.985 . S
C333 C327 1.379 . S
C333 C330 1.363 . S
C333 N331 1.356 . S
C334 C328 1.363 . S
C334 C329 1.379 . S
C334 N332 1.356 1_565 S
N335 C327 1.356 1_554 S
N335 H341 0.984 1_655 S
N335 H342 0.984 1_655 S
N336 C329 1.356 . S
N336 H339 0.984 . S
N336 H340 0.985 . S
H337 N332 0.984 1_554 S
H338 N332 0.985 . S
H339 N336 0.984 . S
H340 N336 0.985 . S
H341 N335 0.984 1_455 S
H342 N335 0.984 1_455 S
H343 N331 0.984 . S
H344 N331 0.985 . S
C345 C346 1.363 . S
C345 C351 1.379 . S
C345 N353 1.356 1_565 S
C346 C345 1.363 . S
C346 C352 1.363 . S
C347 C348 1.363 . S
C347 C352 1.379 . S
C347 N354 1.356 . S
C348 C347 1.363 . S
C348 C351 1.363 . S
N349 C351 1.356 . S
N349 H361 0.984 . S
N349 H362 0.985 . S
N350 C352 1.356 . S
N350 H355 0.984 . S
N350 H356 0.985 1_455 S
C351 C345 1.379 . S
C351 C348 1.363 . S
C351 N349 1.356 . S
C352 C346 1.363 . S
C352 C347 1.379 . S
C352 N350 1.356 . S
N353 C345 1.356 1_545 S
N353 H359 0.984 . S
N353 H360 0.984 . S
N354 C347 1.356 . S
N354 H357 0.984 . S
N354 H358 0.985 1_455 S
H355 N350 0.984 . S
H356 N350 0.985 1_655 S
H357 N354 0.984 . S
H358 N354 0.985 1_655 S
H359 N353 0.984 . S
H360 N353 0.984 . S
H361 N349 0.984 . S
H362 N349 0.985 . S
C363 C364 1.363 . S
C363 C369 1.379 . S
C363 N371 1.356 . S
C364 C363 1.363 . S
C364 C370 1.363 . S
C365 C366 1.363 . S
C365 C370 1.379 . S
C365 N372 1.356 1_545 S
C366 C365 1.363 . S
C366 C369 1.363 . S
N367 C369 1.356 . S
N367 H379 0.984 . S
N367 H380 0.985 . S
N368 C370 1.356 1_565 S
N368 H373 0.984 . S
N368 H374 0.985 . S
C369 C363 1.379 . S
C369 C366 1.363 . S
C369 N367 1.356 . S
C370 C364 1.363 . S
C370 C365 1.379 . S
C370 N368 1.356 1_545 S
N371 C363 1.356 . S
N371 H377 0.984 . S
N371 H378 0.984 . S
N372 C365 1.356 1_565 S
N372 H375 0.985 1_565 S
N372 H376 0.985 . S
H373 N368 0.984 . S
H374 N368 0.985 . S
H375 N372 0.985 1_545 S
H376 N372 0.985 . S
H377 N371 0.984 . S
H378 N371 0.984 . S
H379 N367 0.984 . S
H380 N367 0.985 . S
C381 C382 1.363 . S
C381 C387 1.379 . S
C381 N389 1.356 . S
C382 C381 1.363 . S
C382 C388 1.363 . S
C383 C384 1.363 . S
C383 C388 1.379 . S
C383 N390 1.356 . S
C384 C383 1.363 . S
C384 C387 1.363 . S
N385 C387 1.356 . S
N385 H397 0.984 . S
N385 H398 0.985 . S
N386 C388 1.356 1_554 S
N386 H391 0.984 . S
N386 H392 0.985 . S
C387 C381 1.379 . S
C387 C384 1.363 . S
C387 N385 1.356 . S
C388 C382 1.363 . S
C388 C383 1.379 . S
C388 N386 1.356 1_556 S
N389 C381 1.356 . S
N389 H395 0.984 . S
N389 H396 0.984 . S
N390 C383 1.356 . S
N390 H393 0.984 . S
N390 H394 0.985 . S
H391 N386 0.984 . S
H392 N386 0.985 . S
H393 N390 0.984 . S
H394 N390 0.985 . S
H395 N389 0.984 . S
H396 N389 0.984 . S
H397 N385 0.984 . S
H398 N385 0.985 . S
C399 C400 1.363 . S
C399 C405 1.379 . S
C399 N407 1.356 . S
C400 C399 1.363 . S
C400 C406 1.363 . S
C401 C402 1.363 . S
C401 C406 1.379 . S
C401 N408 1.356 . S
C402 C401 1.363 . S
C402 C405 1.363 . S
N403 C405 1.356 . S
N403 H415 0.984 . S
N403 H416 0.985 . S
N404 C406 1.356 . S
N404 H409 0.984 . S
N404 H410 0.985 . S
C405 C399 1.379 . S
C405 C402 1.363 . S
C405 N403 1.356 . S
C406 C400 1.363 . S
C406 C401 1.379 . S
C406 N404 1.356 . S
N407 C399 1.356 . S
N407 H413 0.984 . S
N407 H414 0.984 . S
N408 C401 1.356 . S
N408 H411 0.984 . S
N408 H412 0.985 . S
H409 N404 0.984 . S
H410 N404 0.985 . S
H411 N408 0.984 . S
H412 N408 0.985 . S
H413 N407 0.984 . S
H414 N407 0.984 . S
H415 N403 0.984 . S
H416 N403 0.985 . S
C204 C64 1.465 . S
C202 C0 1.463 . S
C220 C25 1.497 . S
C222 C134 1.498 . S
C238 C33 1.509 . S
C240 C186 1.510 . S
C256 C11 1.453 . S
C258 C80 1.451 . S
C276 C124 1.489 . S
C274 C14 1.486 . S
C292 C37 1.499 . S
C294 C170 1.504 . S
C312 C117 1.488 . S
C310 C28 1.484 . S
C328 C9 1.499 1_656 S
C330 C177 1.504 . S
C348 C71 1.526 . S
C346 C19 1.525 . S
C366 C133 1.494 . S
C364 C39 1.496 . S
C384 C187 1.509 . S
C382 C5 1.508 1_556 S
C400 C23 1.536 . S
C402 C81 1.548 . S
