# Generated by pormake.
# Topology soc, (4,6)-cn, num edge types: 1
# Building blocks:
#     Node 0, Type 0, BuildingBlock: ESEHIV_clean_sbu_0, # of connection points: 4
#     Node 1, Type 0, BuildingBlock: ESEHIV_clean_sbu_0, # of connection points: 4
#     Node 2, Type 0, BuildingBlock: ESEHIV_clean_sbu_0, # of connection points: 4
#     Node 3, Type 0, BuildingBlock: ESEHIV_clean_sbu_0, # of connection points: 4
#     Node 4, Type 0, BuildingBlock: ESEHIV_clean_sbu_0, # of connection points: 4
#     Node 5, Type 0, BuildingBlock: ESEHIV_clean_sbu_0, # of connection points: 4
#     Node 6, Type 0, BuildingBlock: ESEHIV_clean_sbu_0, # of connection points: 4
#     Node 7, Type 0, BuildingBlock: ESEHIV_clean_sbu_0, # of connection points: 4
#     Node 8, Type 0, BuildingBlock: ESEHIV_clean_sbu_0, # of connection points: 4
#     Node 9, Type 0, BuildingBlock: ESEHIV_clean_sbu_0, # of connection points: 4
#     Node 10, Type 0, BuildingBlock: ESEHIV_clean_sbu_0, # of connection points: 4
#     Node 11, Type 0, BuildingBlock: ESEHIV_clean_sbu_0, # of connection points: 4
#     Node 12, Type 1, BuildingBlock: BETDIP_clean_sbu_0, # of connection points: 6
#     Node 13, Type 1, BuildingBlock: BETDIP_clean_sbu_0, # of connection points: 6
#     Node 14, Type 1, BuildingBlock: BETDIP_clean_sbu_0, # of connection points: 6
#     Node 15, Type 1, BuildingBlock: BETDIP_clean_sbu_0, # of connection points: 6
#     Node 16, Type 1, BuildingBlock: BETDIP_clean_sbu_0, # of connection points: 6
#     Node 17, Type 1, BuildingBlock: BETDIP_clean_sbu_0, # of connection points: 6
#     Node 18, Type 1, BuildingBlock: BETDIP_clean_sbu_0, # of connection points: 6
#     Node 19, Type 1, BuildingBlock: BETDIP_clean_sbu_0, # of connection points: 6
#     Edge 20, Type (0, 1), BuildingBlock: XIVTED_clean_linker_0, # of connection points: 2
#     Edge 21, Type (0, 1), BuildingBlock: XIVTED_clean_linker_0, # of connection points: 2
#     Edge 22, Type (0, 1), BuildingBlock: XIVTED_clean_linker_0, # of connection points: 2
#     Edge 23, Type (0, 1), BuildingBlock: XIVTED_clean_linker_0, # of connection points: 2
#     Edge 24, Type (0, 1), BuildingBlock: XIVTED_clean_linker_0, # of connection points: 2
#     Edge 25, Type (0, 1), BuildingBlock: XIVTED_clean_linker_0, # of connection points: 2
#     Edge 26, Type (0, 1), BuildingBlock: XIVTED_clean_linker_0, # of connection points: 2
#     Edge 27, Type (0, 1), BuildingBlock: XIVTED_clean_linker_0, # of connection points: 2
#     Edge 28, Type (0, 1), BuildingBlock: XIVTED_clean_linker_0, # of connection points: 2
#     Edge 29, Type (0, 1), BuildingBlock: XIVTED_clean_linker_0, # of connection points: 2
#     Edge 30, Type (0, 1), BuildingBlock: XIVTED_clean_linker_0, # of connection points: 2
#     Edge 31, Type (0, 1), BuildingBlock: XIVTED_clean_linker_0, # of connection points: 2
#     Edge 32, Type (0, 1), BuildingBlock: XIVTED_clean_linker_0, # of connection points: 2
#     Edge 33, Type (0, 1), BuildingBlock: XIVTED_clean_linker_0, # of connection points: 2
#     Edge 34, Type (0, 1), BuildingBlock: XIVTED_clean_linker_0, # of connection points: 2
#     Edge 35, Type (0, 1), BuildingBlock: XIVTED_clean_linker_0, # of connection points: 2
#     Edge 36, Type (0, 1), BuildingBlock: XIVTED_clean_linker_0, # of connection points: 2
#     Edge 37, Type (0, 1), BuildingBlock: XIVTED_clean_linker_0, # of connection points: 2
#     Edge 38, Type (0, 1), BuildingBlock: XIVTED_clean_linker_0, # of connection points: 2
#     Edge 39, Type (0, 1), BuildingBlock: XIVTED_clean_linker_0, # of connection points: 2
#     Edge 40, Type (0, 1), BuildingBlock: XIVTED_clean_linker_0, # of connection points: 2
#     Edge 41, Type (0, 1), BuildingBlock: XIVTED_clean_linker_0, # of connection points: 2
#     Edge 42, Type (0, 1), BuildingBlock: XIVTED_clean_linker_0, # of connection points: 2
#     Edge 43, Type (0, 1), BuildingBlock: XIVTED_clean_linker_0, # of connection points: 2
#     Edge 44, Type (0, 1), BuildingBlock: XIVTED_clean_linker_0, # of connection points: 2
#     Edge 45, Type (0, 1), BuildingBlock: XIVTED_clean_linker_0, # of connection points: 2
#     Edge 46, Type (0, 1), BuildingBlock: XIVTED_clean_linker_0, # of connection points: 2
#     Edge 47, Type (0, 1), BuildingBlock: XIVTED_clean_linker_0, # of connection points: 2
#     Edge 48, Type (0, 1), BuildingBlock: XIVTED_clean_linker_0, # of connection points: 2
#     Edge 49, Type (0, 1), BuildingBlock: XIVTED_clean_linker_0, # of connection points: 2
#     Edge 50, Type (0, 1), BuildingBlock: XIVTED_clean_linker_0, # of connection points: 2
#     Edge 51, Type (0, 1), BuildingBlock: XIVTED_clean_linker_0, # of connection points: 2
#     Edge 52, Type (0, 1), BuildingBlock: XIVTED_clean_linker_0, # of connection points: 2
#     Edge 53, Type (0, 1), BuildingBlock: XIVTED_clean_linker_0, # of connection points: 2
#     Edge 54, Type (0, 1), BuildingBlock: XIVTED_clean_linker_0, # of connection points: 2
#     Edge 55, Type (0, 1), BuildingBlock: XIVTED_clean_linker_0, # of connection points: 2
#     Edge 56, Type (0, 1), BuildingBlock: XIVTED_clean_linker_0, # of connection points: 2
#     Edge 57, Type (0, 1), BuildingBlock: XIVTED_clean_linker_0, # of connection points: 2
#     Edge 58, Type (0, 1), BuildingBlock: XIVTED_clean_linker_0, # of connection points: 2
#     Edge 59, Type (0, 1), BuildingBlock: XIVTED_clean_linker_0, # of connection points: 2
#     Edge 60, Type (0, 1), BuildingBlock: XIVTED_clean_linker_0, # of connection points: 2
#     Edge 61, Type (0, 1), BuildingBlock: XIVTED_clean_linker_0, # of connection points: 2
#     Edge 62, Type (0, 1), BuildingBlock: XIVTED_clean_linker_0, # of connection points: 2
#     Edge 63, Type (0, 1), BuildingBlock: XIVTED_clean_linker_0, # of connection points: 2
#     Edge 64, Type (0, 1), BuildingBlock: XIVTED_clean_linker_0, # of connection points: 2
#     Edge 65, Type (0, 1), BuildingBlock: XIVTED_clean_linker_0, # of connection points: 2
#     Edge 66, Type (0, 1), BuildingBlock: XIVTED_clean_linker_0, # of connection points: 2
#     Edge 67, Type (0, 1), BuildingBlock: XIVTED_clean_linker_0, # of connection points: 2
# Relax obj value: 0.222
# Max RMSD: 0.298
# Mean RMSD: 0.198
data_MOF--net-soc--node1-ESEHIV_clean_sbu_0--node2-BETDIP_clean_sbu_0--edge1-XIVTED_clean_linker_0
_symmetry_space_group_name_H-M    P1
_symmetry_Int_Tables_number       1
_symmetry_cell_setting            triclinic
loop_
_symmetry_equiv_pos_as_xyz
'x, y, z'
_cell_length_a     45.073071
_cell_length_b     56.473548
_cell_length_c     42.539382
_cell_angle_alpha  91.775585
_cell_angle_beta   91.987681
_cell_angle_gamma 69.20932
loop_
_atom_site_label
_atom_site_type_symbol
_atom_site_fract_x
_atom_site_fract_y
_atom_site_fract_z
_atom_type_partial_charge
Cu0 Cu 0.05316 0.05429 0.32061 0.0
N1 N 0.07105 0.0743 0.34464 0.0
N2 N 0.09569 0.10157 0.35684 0.0
C3 C 0.08971 0.08634 0.33432 0.0
C4 C 0.08003 0.099 0.38227 0.0
C5 C 0.06471 0.08233 0.37459 0.0
O6 O 0.08411 0.0303 0.29308 0.0
C7 C 1.01467 0.09609 0.28384 0.0
O8 O 1.04173 0.09697 0.27453 0.0
H9 H 0.09828 0.0842 0.31057 0.0
H10 H 0.04897 0.07727 0.38941 0.0
N11 N 1.04063 0.03368 0.34632 0.0
N12 N 1.0218 0.00348 0.35812 0.0
C13 C 1.02204 0.0206 0.33677 0.0
C14 C 0.05267 0.02455 0.37467 0.0
C15 C 1.04095 0.00601 0.38211 0.0
C16 C 0.11291 0.02055 0.30283 0.0
O17 O 0.12186 0.02963 0.32876 0.0
H18 H 1.01084 0.02233 0.3136 0.0
H19 H 0.07022 0.02986 0.38811 0.0
O20 O 1.01489 0.07776 0.30067 0.0
H21 H 0.0785 0.10929 0.4044 0.0
H22 H 0.04706 0.99463 0.40299 0.0
Cu23 Cu 1.03991 0.05911 0.73076 0.0
N24 N 1.02124 0.03934 0.70722 0.0
N25 N 0.99596 0.0119 0.6995 0.0
C26 C 1.00404 0.02724 0.72032 0.0
C27 C 1.00849 0.01459 0.67205 0.0
C28 C 1.02432 0.0314 0.67694 0.0
O29 O 1.00613 0.08563 0.75295 0.0
C30 C 0.09709 0.02116 0.73774 0.0
O31 O 0.09588 0.0267 0.70784 0.0
H32 H 0.99828 0.02926 0.74497 0.0
H33 H 1.03823 0.03648 0.65999 0.0
N34 N 0.05812 0.07735 0.7068 0.0
N35 N 0.08269 0.10471 0.69865 0.0
C36 C 0.07587 0.09007 0.71967 0.0
C37 C 0.05339 0.08412 0.67647 0.0
C38 C 0.06863 0.10093 0.67134 0.0
C39 C 0.98359 0.09813 0.73423 0.0
O40 O 0.98465 0.09051 0.70466 0.0
H41 H 0.08199 0.08969 0.74452 0.0
H42 H 1.03864 0.07832 0.65966 0.0
O43 O 0.07415 0.03434 0.75498 0.0
H44 H 1.00767 0.00422 0.65041 0.0
H45 H 0.06856 0.11016 0.64941 0.0
Cu46 Cu 0.28269 0.11612 0.02433 0.0
N47 N 0.24743 0.10944 1.00847 0.0
N48 N 0.22099 0.08511 0.98957 0.0
C49 C 0.2457 0.08619 1.00753 0.0
C50 C 0.20643 0.10877 0.97874 0.0
C51 C 0.22283 0.12381 0.99054 0.0
O52 O 0.30796 0.08572 0.04686 0.0
C53 C 0.32332 0.13492 0.99072 0.0
O54 O 0.33525 0.13799 1.0185 0.0
H55 H 0.26398 0.06981 1.01744 0.0
H56 H 0.21843 0.1433 0.98474 0.0
N57 N 0.27061 0.14353 0.05262 0.0
N58 N 0.2726 0.1675 0.0947 0.0
C59 C 0.28922 0.14827 0.07552 0.0
C60 C 0.24127 0.16042 0.05731 0.0
C61 C 0.24241 0.17524 0.08337 0.0
C62 C 0.29617 0.08253 0.07252 0.0
O63 O 0.27029 0.10035 0.08244 0.0
H64 H 0.31406 0.13693 0.0791 0.0
H65 H 0.22033 0.16125 0.04351 0.0
O66 O 0.30265 0.12435 0.98864 0.0
H67 H 0.18652 0.11445 0.96216 0.0
H68 H 0.22252 0.19022 0.09352 0.0
Cu69 Cu 0.05172 0.3358 0.03281 0.0
N70 N 0.06986 0.35542 1.01111 0.0
N71 N 0.10222 0.36382 0.97798 0.0
C72 C 0.08994 0.34661 0.98721 0.0
C73 C 0.08926 0.3843 0.99696 0.0
C74 C 0.06939 0.37904 1.01741 0.0
O75 O 0.08358 0.31871 0.06594 0.0
C76 C 1.01787 0.3306 0.98 0.0
O77 O 1.01431 0.35472 0.98057 0.0
H78 H 0.09651 0.32746 0.97783 0.0
H79 H 0.05653 0.39122 0.03627 0.0
N80 N 1.01474 0.35468 0.05352 0.0
N81 N 0.97211 0.36037 0.08216 0.0
C82 C 0.99906 0.34355 0.0706 0.0
C83 C 0.99707 0.37955 0.054 0.0
C84 C 0.97078 0.38316 0.07201 0.0
C85 C 0.0857 0.33333 0.08892 0.0
O86 O 0.06647 0.35708 0.0887 0.0
H87 H 1.00745 0.32336 0.07448 0.0
H88 H 1.00246 0.39394 0.04173 0.0
O89 O 1.03584 0.31642 1.0012 0.0
H90 H 0.09417 0.4017 0.99656 0.0
H91 H 0.95184 0.401 0.07662 0.0
Cu92 Cu 0.81592 0.99795 1.01463 0.0
N93 N 0.85043 0.00309 0.99724 0.0
N94 N 0.87645 0.0254 0.97582 0.0
C95 C 0.85307 0.02595 0.99505 0.0
C96 C 0.88918 0.00113 0.96551 0.0
C97 C 0.87305 0.98737 0.97883 0.0
O98 O 0.7937 0.02924 0.03773 0.0
C99 C 0.77297 0.97804 0.98155 0.0
O100 O 0.76484 0.97347 1.00944 0.0
H101 H 0.83621 0.04312 1.00502 0.0
H102 H 0.87609 0.96777 0.97371 0.0
N103 N 0.82953 0.97115 0.04264 0.0
N104 N 0.83034 0.94766 0.08414 0.0
C105 C 0.81266 0.96712 0.0661 0.0
C106 C 0.85881 0.9536 0.04587 0.0
C107 C 0.8594 0.93909 0.07151 0.0
C108 C 0.80813 0.03291 0.06267 0.0
O109 O 0.83454 0.01498 0.07168 0.0
H110 H 0.78833 0.97892 0.07063 0.0
H111 H 0.87857 0.95193 0.03117 0.0
O112 O 0.79227 0.98974 0.97951 0.0
H113 H 0.90754 0.99414 0.94826 0.0
H114 H 0.87967 0.92356 0.08031 0.0
Cu115 Cu 0.05031 0.7806 0.03177 0.0
N116 N 1.03344 0.76096 1.00551 0.0
N117 N 0.99973 0.75384 0.96981 0.0
C118 C 1.00505 0.7706 0.9905 0.0
C119 C 1.02584 0.73269 0.97197 0.0
C120 C 0.04658 0.73711 0.99405 0.0
O121 O 1.01763 0.79658 0.06353 0.0
C122 C 0.08447 0.78779 0.98366 0.0
O123 O 0.09277 0.76308 0.98478 0.0
H124 H 0.98928 0.79004 0.99363 0.0
H125 H 0.07013 0.72422 1.00008 0.0
N126 N 0.08753 0.76204 0.05383 0.0
N127 N 0.13161 0.75592 0.08334 0.0
C128 C 0.10642 0.77296 0.06859 0.0
C129 C 0.10116 0.73712 0.05933 0.0
C130 C 0.12835 0.73329 0.07756 0.0
C131 C 1.01413 0.781 0.08309 0.0
O132 O 1.03228 0.75704 0.08037 0.0
H133 H 0.10115 0.79321 0.06906 0.0
H134 H 0.09177 0.72279 0.05128 0.0
O135 O 0.06425 0.80147 1.00336 0.0
H136 H 1.0299 0.71543 0.95821 0.0
H137 H 0.14434 0.71522 0.08593 0.0
Cu138 Cu 0.54071 0.55855 0.85246 0.0
N139 N 0.55836 0.57994 0.8741 0.0
N140 N 0.58239 0.60846 0.87855 0.0
C141 C 0.57552 0.59139 0.85961 0.0
C142 C 0.56914 0.60758 0.90627 0.0
C143 C 0.55409 0.59011 0.90338 0.0
O144 O 0.57537 0.5326 0.83051 0.0
C145 C 0.48184 0.59458 0.8453 0.0
O146 O 0.4839 0.5897 0.87546 0.0
H147 H 0.58196 0.58772 0.83519 0.0
H148 H 0.5397 0.58621 0.92085 0.0
N149 N 0.52474 0.53958 0.87787 0.0
N150 N 0.50513 0.50942 0.88794 0.0
C151 C 0.51248 0.52271 0.8656 0.0
C152 C 0.52527 0.53693 0.90926 0.0
C153 C 0.51292 0.51843 0.91555 0.0
C154 C 0.59799 0.52087 0.84961 0.0
O155 O 0.59583 0.52859 0.87919 0.0
H156 H 0.50963 0.51997 0.84054 0.0
H157 H 0.53501 0.5469 0.92633 0.0
O158 O 0.50497 0.58173 0.82805 0.0
H159 H 0.56881 0.61968 0.92659 0.0
H160 H 0.51115 0.5114 0.93854 0.0
Cu161 Cu 0.55369 0.55708 0.24558 0.0
N162 N 0.53749 0.53592 0.22167 0.0
N163 N 0.51389 0.50777 0.21074 0.0
C164 C 0.5185 0.52429 0.23228 0.0
C165 C 0.53071 0.50912 0.18563 0.0
C166 C 0.54538 0.52637 0.19251 0.0
O167 O 0.5196 0.5818 0.26931 0.0
C168 C 0.61434 0.52276 0.25348 0.0
O169 O 0.61477 0.52992 0.22446 0.0
H170 H 0.50958 0.52702 0.25592 0.0
H171 H 0.5617 0.53079 0.17779 0.0
N172 N 0.5679 0.57698 0.22002 0.0
N173 N 0.58872 0.60579 0.2072 0.0
C174 C 0.58538 0.59087 0.23001 0.0
C175 C 0.55966 0.5834 0.18991 0.0
C176 C 0.57262 0.60105 0.18188 0.0
C177 C 0.4942 0.59248 0.25313 0.0
O178 O 0.49225 0.58416 0.22424 0.0
H179 H 0.59409 0.59088 0.25403 0.0
H180 H 0.54421 0.5766 0.17522 0.0
O181 O 0.58953 0.53372 0.26942 0.0
H182 H 0.53288 0.49807 0.16403 0.0
H183 H 0.56979 0.61004 0.15932 0.0
Cu184 Cu 0.78766 0.61068 0.53749 0.0
N185 N 0.77627 0.62867 0.50025 0.0
N186 N 0.77899 0.64862 0.45645 0.0
C187 C 0.79359 0.639 0.48395 0.0
C188 C 0.75125 0.64445 0.45582 0.0
C189 C 0.74969 0.63215 0.4828 0.0
O190 O 0.80623 0.62821 0.5679 0.0
C191 C 0.82962 0.56766 0.50353 0.0
O192 O 0.83323 0.58393 0.48403 0.0
H193 H 0.81698 0.63846 0.49155 0.0
H194 H 0.7308 0.62569 0.48901 0.0
N195 N 0.75158 0.60822 0.555 0.0
N196 N 0.72387 0.58854 0.57906 0.0
C197 C 0.74775 0.58605 0.55953 0.0
C198 C 0.72899 0.62559 0.57184 0.0
C199 C 0.71188 0.61344 0.58689 0.0
C200 C 0.80749 0.62315 0.59699 0.0
O201 O 0.79946 0.60412 0.60552 0.0
H202 H 0.76423 0.56804 0.55125 0.0
H203 H 0.72682 0.64521 0.57501 0.0
O204 O 0.81419 0.57571 0.52852 0.0
H205 H 0.73333 0.6498 0.43716 0.0
H206 H 0.69349 0.62195 0.60378 0.0
Cu207 Cu 0.55595 0.81458 0.54066 0.0
N208 N 0.58721 0.7957 0.51224 0.0
N209 N 0.62254 0.78874 0.47376 0.0
C210 C 0.60462 0.80556 0.49514 0.0
C211 C 0.61616 0.76739 0.47772 0.0
C212 C 0.59444 0.77173 0.50142 0.0
O213 O 0.57457 0.83657 0.56344 0.0
C214 C 0.50501 0.81616 0.50386 0.0
O215 O 0.51788 0.79199 0.51035 0.0
H216 H 0.60312 0.82508 0.49751 0.0
H217 H 0.58398 0.75856 0.50953 0.0
N218 N 0.54485 0.79529 0.57068 0.0
N219 N 0.51563 0.78641 0.60721 0.0
C220 C 0.51544 0.80048 0.58199 0.0
C221 C 0.56429 0.77723 0.58941 0.0
C222 C 0.54639 0.77176 0.61195 0.0
C223 C 0.56986 0.84278 0.5924 0.0
O224 O 0.54652 0.83891 0.6064 0.0
H225 H 0.49457 0.81544 0.57313 0.0
H226 H 0.58986 0.76953 0.5878 0.0
O227 O 0.51805 0.83137 0.51505 0.0
H228 H 0.62628 0.7499 0.46434 0.0
H229 H 0.55542 0.75849 0.63085 0.0
Cu230 Cu 0.31741 0.49604 0.52048 0.0
N231 N 0.35127 0.50219 0.503 0.0
N232 N 0.37524 0.52545 0.4802 0.0
C233 C 0.35236 0.52548 0.49982 0.0
C234 C 0.38922 0.50107 0.4707 0.0
C235 C 0.37432 0.48675 0.48479 0.0
O236 O 0.29635 0.52551 0.54668 0.0
C237 C 0.27138 0.48081 0.48528 0.0
O238 O 0.26294 0.47487 0.51232 0.0
H239 H 0.33474 0.54245 0.50934 0.0
H240 H 0.3784 0.46692 0.48018 0.0
N241 N 0.33131 0.46734 0.54553 0.0
N242 N 0.33255 0.44098 0.58403 0.0
C243 C 0.31458 0.46146 0.56774 0.0
C244 C 0.3608 0.44995 0.54783 0.0
C245 C 0.36165 0.43368 0.57161 0.0
C246 C 0.31329 0.52854 0.56994 0.0
O247 O 0.34121 0.51094 0.57519 0.0
H248 H 0.29018 0.47269 0.57285 0.0
H249 H 0.38059 0.44961 0.53397 0.0
O250 O 0.29219 0.49116 0.48488 0.0
H251 H 0.40764 0.49432 0.45347 0.0
H252 H 0.38218 0.41793 0.57948 0.0
Cu253 Cu 0.55505 0.27993 0.53972 0.0
N254 N 0.59066 0.26319 0.51577 0.0
N255 N 0.63056 0.25828 0.48355 0.0
C256 C 0.60442 0.27481 0.497 0.0
C257 C 0.63337 0.23534 0.49435 0.0
C258 C 0.60882 0.23846 0.51444 0.0
O259 O 0.57081 0.29862 0.57232 0.0
C260 C 0.51621 0.28572 0.48577 0.0
O261 O 0.53737 0.26302 0.48095 0.0
H262 H 0.59529 0.29503 0.49326 0.0
H263 H 0.60494 0.22379 0.52759 0.0
N264 N 0.54129 0.25703 0.56026 0.0
N265 N 0.51468 0.24306 0.59409 0.0
C266 C 0.52547 0.26173 0.5874 0.0
C267 C 0.5405 0.23462 0.54942 0.0
C268 C 0.5241 0.22595 0.57024 0.0
C269 C 0.59105 0.284 0.5916 0.0
O270 O 0.5977 0.25946 0.5884 0.0
H271 H 0.52014 0.27929 0.60082 0.0
H272 H 0.54969 0.22583 0.52713 0.0
O273 O 0.51947 0.29822 0.51053 0.0
H274 H 0.65223 0.21768 0.48876 0.0
H275 H 0.51839 0.20893 0.56738 0.0
Tb276 Tb 0.27238 0.30789 0.31566 0.0
Tb277 Tb 0.31588 0.31812 0.27303 0.0
C278 C 0.23328 0.29298 0.3422 0.0
C279 C 0.2229 0.27085 0.34072 0.0
C280 C 0.19859 0.26995 0.31962 0.0
C281 C 0.18736 0.24983 0.32012 0.0
C282 C 0.20008 0.23025 0.34182 0.0
C283 C 0.22484 0.23094 0.36243 0.0
C284 C 0.23599 0.25104 0.36199 0.0
C285 C 0.32397 0.31164 0.34404 0.0
C286 C 0.31701 0.26332 0.27262 0.0
C287 C 0.35635 0.33114 0.24605 0.0
C288 C 0.36981 0.3513 0.24511 0.0
C289 C 0.37551 0.36389 0.27236 0.0
C290 C 0.39003 0.382 0.2702 0.0
C291 C 0.39906 0.38767 0.24079 0.0
C292 C 0.39235 0.37547 0.21363 0.0
C293 C 0.37796 0.35747 0.21581 0.0
C294 C 0.26531 0.31342 0.24391 0.0
C295 C 0.26856 0.36295 0.31437 0.0
O296 O 0.2258 0.3082 0.31825 0.0
O297 O 0.26215 0.28894 0.35293 0.0
O298 O 0.32286 0.30071 0.31782 0.0
O299 O 0.29588 0.31993 0.35559 0.0
O300 O 0.29066 0.27252 0.28863 0.0
O301 O 0.33452 0.27717 0.26761 0.0
O302 O 0.36289 0.31677 0.27081 0.0
O303 O 0.32691 0.33705 0.23612 0.0
O304 O 0.26551 0.32469 0.27016 0.0
O305 O 0.29348 0.30595 0.23269 0.0
O306 O 0.29601 0.35398 0.29988 0.0
O307 O 0.2517 0.34856 0.31878 0.0
H308 H 0.18774 0.28503 0.30316 0.0
H309 H 0.168 0.25007 0.30418 0.0
H310 H 0.2355 0.216 0.37912 0.0
H311 H 0.25458 0.25123 0.37872 0.0
H312 H 0.36921 0.35947 0.29523 0.0
H313 H 0.39496 0.39102 0.29156 0.0
H314 H 0.39832 0.37978 0.19057 0.0
H315 H 0.37353 0.34808 0.19451 0.0
Tb316 Tb 0.81804 0.31654 0.30558 0.0
Tb317 Tb 0.7877 0.29509 0.25627 0.0
C318 C 0.84324 0.34371 0.33625 0.0
C319 C 0.84109 0.36237 0.36181 0.0
C320 C 0.81267 0.38238 0.36837 0.0
C321 C 0.81297 0.40231 0.38874 0.0
C322 C 0.84173 0.4026 0.40246 0.0
C323 C 0.86974 0.38187 0.39702 0.0
C324 C 0.86938 0.36195 0.37696 0.0
C325 C 0.84519 0.2668 0.29667 0.0
C326 C 0.76682 0.29803 0.32826 0.0
C327 C 0.76465 0.26665 0.2252 0.0
C328 C 0.77178 0.24584 0.20168 0.0
C329 C 0.80159 0.22632 0.20094 0.0
C330 C 0.80584 0.2045 0.1824 0.0
C331 C 0.78037 0.2018 0.16435 0.0
C332 C 0.75111 0.22206 0.16386 0.0
C333 C 0.74689 0.24383 0.1824 0.0
C334 C 0.76089 0.34472 0.26391 0.0
C335 C 0.83789 0.31486 0.23376 0.0
O336 O 0.82445 0.3513 0.31162 0.0
O337 O 0.8475 0.3204 0.34353 0.0
O338 O 0.83461 0.28305 0.2757 0.0
O339 O 0.84242 0.27836 0.32369 0.0
O340 O 0.78005 0.31515 0.33444 0.0
O341 O 0.76973 0.28648 0.30037 0.0
O342 O 0.77904 0.26116 0.25266 0.0
O343 O 0.76254 0.28904 0.21589 0.0
O344 O 0.77113 0.32896 0.28552 0.0
O345 O 0.76305 0.3327 0.23729 0.0
O346 O 0.826 0.29687 0.22792 0.0
O347 O 0.83443 0.3265 0.26155 0.0
H348 H 0.79057 0.38315 0.35676 0.0
H349 H 0.79104 0.4181 0.39243 0.0
H350 H 0.89215 0.38142 0.40757 0.0
H351 H 0.89157 0.34674 0.37208 0.0
H352 H 0.82117 0.22749 0.21562 0.0
H353 H 0.82885 0.18943 0.18289 0.0
H354 H 0.73093 0.22059 0.1505 0.0
H355 H 0.72364 0.25862 0.18284 0.0
Tb356 Tb 0.83387 0.80588 0.29914 0.0
Tb357 Tb 0.78356 0.80025 0.2556 0.0
C358 C 0.88021 0.81434 0.32514 0.0
C359 C 0.89658 0.83261 0.32437 0.0
C360 C 0.89434 0.8477 0.29816 0.0
C361 C 0.90883 0.86596 0.29916 0.0
C362 C 0.92579 0.8693 0.32637 0.0
C363 C 0.92802 0.85391 0.35236 0.0
C364 C 0.91358 0.83577 0.35132 0.0
C365 C 0.78191 0.80775 0.32766 0.0
C366 C 0.7917 0.85218 0.25683 0.0
C367 C 0.7379 0.79084 0.22959 0.0
C368 C 0.72232 0.77207 0.23229 0.0
C369 C 0.68929 0.77972 0.22819 0.0
C370 C 0.67428 0.7619 0.22814 0.0
C371 C 0.69206 0.73603 0.23221 0.0
C372 C 0.7251 0.72854 0.23728 0.0
C373 C 0.74009 0.74638 0.23724 0.0
C374 C 0.83559 0.79877 0.22741 0.0
C375 C 0.82519 0.75421 0.29871 0.0
O376 O 0.8828 0.79915 0.30064 0.0
O377 O 0.85136 0.8233 0.33568 0.0
O378 O 0.78273 0.81726 0.30122 0.0
O379 O 0.81023 0.7993 0.33995 0.0
O380 O 0.81837 0.84115 0.27308 0.0
O381 O 0.77097 0.8408 0.25119 0.0
O382 O 0.7345 0.80712 0.25301 0.0
O383 O 0.76687 0.78224 0.21921 0.0
O384 O 0.8346 0.78877 0.25348 0.0
O385 O 0.80712 0.80821 0.21557 0.0
O386 O 0.79871 0.76518 0.28215 0.0
O387 O 0.84595 0.76552 0.30445 0.0
H388 H 0.88125 0.8455 0.27712 0.0
H389 H 0.90686 0.87737 0.27866 0.0
H390 H 0.94031 0.85626 0.37389 0.0
H391 H 0.91527 0.82443 0.37187 0.0
H392 H 0.67516 0.79946 0.2244 0.0
H393 H 0.64874 0.76836 0.22467 0.0
H394 H 0.73957 0.70877 0.24017 0.0
H395 H 0.76565 0.73998 0.2402 0.0
Tb396 Tb 0.29908 0.79573 0.30674 0.0
Tb397 Tb 0.32897 0.82279 0.26077 0.0
C398 C 0.29069 0.7604 0.33508 0.0
C399 C 0.30906 0.73722 0.3523 0.0
C400 C 0.33341 0.71726 0.3379 0.0
C401 C 0.34825 0.69445 0.35345 0.0
C402 C 0.33868 0.6909 0.38355 0.0
C403 C 0.31483 0.71119 0.39819 0.0
C404 C 0.30025 0.73408 0.38274 0.0
C405 C 0.25966 0.84286 0.29507 0.0
C406 C 0.34743 0.82041 0.3348 0.0
C407 C 0.34821 0.85362 0.23404 0.0
C408 C 0.34025 0.87394 0.21085 0.0
C409 C 0.36438 0.87524 0.1918 0.0
C410 C 0.35953 0.89642 0.17337 0.0
C411 C 0.33042 0.91681 0.17377 0.0
C412 C 0.30567 0.91485 0.19162 0.0
C413 C 0.31052 0.89359 0.21 0.0
C414 C 0.35745 0.77333 0.26624 0.0
C415 C 0.27992 0.8001 0.23416 0.0
O416 O 0.29511 0.76004 0.30471 0.0
O417 O 0.288 0.78226 0.34866 0.0
O418 O 0.28691 0.83108 0.28532 0.0
O419 O 0.25294 0.82736 0.31294 0.0
O420 O 0.33047 0.806 0.33984 0.0
O421 O 0.35008 0.82858 0.30644 0.0
O422 O 0.33258 0.85865 0.26025 0.0
O423 O 0.3537 0.83045 0.22358 0.0
O424 O 0.34478 0.78892 0.28786 0.0
O425 O 0.35654 0.78552 0.24072 0.0
O426 O 0.28958 0.81961 0.23172 0.0
O427 O 0.28644 0.78589 0.25949 0.0
H428 H 0.34039 0.71893 0.31425 0.0
H429 H 0.36681 0.67944 0.34158 0.0
H430 H 0.30639 0.70909 0.42109 0.0
H431 H 0.28127 0.74906 0.39418 0.0
H432 H 0.38755 0.86035 0.19228 0.0
H433 H 0.37917 0.89737 0.16015 0.0
H434 H 0.28278 0.93004 0.19201 0.0
H435 H 0.29145 0.89299 0.22436 0.0
Tb436 Tb 0.29862 0.81665 0.81336 0.0
Tb437 Tb 0.27073 0.79461 0.76334 0.0
C438 C 0.31777 0.84667 0.84555 0.0
C439 C 0.30139 0.86935 0.86464 0.0
C440 C 0.26861 0.8822 0.86045 0.0
C441 C 0.2534 0.90477 0.87702 0.0
C442 C 0.27069 0.91464 0.89841 0.0
C443 C 0.30337 0.90125 0.90326 0.0
C444 C 0.31862 0.87881 0.88639 0.0
C445 C 0.31917 0.76642 0.81409 0.0
C446 C 0.23737 0.80768 0.83051 0.0
C447 C 0.24741 0.76685 0.73147 0.0
C448 C 0.25741 0.74344 0.71205 0.0
C449 C 0.281 0.72117 0.72275 0.0
C450 C 0.28716 0.6984 0.70586 0.0
C451 C 0.27011 0.69746 0.67776 0.0
C452 C 0.24743 0.72006 0.66652 0.0
C453 C 0.24106 0.74279 0.68359 0.0
C454 C 0.25016 0.8449 0.76356 0.0
C455 C 0.33345 0.80197 0.74691 0.0
O456 O 0.31125 0.84888 0.81533 0.0
O457 O 0.31765 0.82521 0.85616 0.0
O458 O 0.314 0.77993 0.79014 0.0
O459 O 0.31503 0.78105 0.83881 0.0
O460 O 0.25437 0.82211 0.83689 0.0
O461 O 0.2421 0.79372 0.80426 0.0
O462 O 0.25445 0.76431 0.76155 0.0
O463 O 0.25146 0.78671 0.72016 0.0
O464 O 0.25519 0.83096 0.78699 0.0
O465 O 0.2545 0.83067 0.73854 0.0
O466 O 0.31529 0.78849 0.73998 0.0
O467 O 0.32945 0.81564 0.77343 0.0
H468 H 0.25495 0.87496 0.84394 0.0
H469 H 0.22817 0.91457 0.87303 0.0
H470 H 0.31735 0.90856 0.91936 0.0
H471 H 0.34394 0.8691 0.88989 0.0
H472 H 0.294 0.72115 0.74467 0.0
H473 H 0.30454 0.68139 0.71549 0.0
H474 H 0.2343 0.72017 0.64468 0.0
H475 H 0.22277 0.75977 0.67494 0.0
Tb476 Tb 0.34096 0.30166 0.80714 0.0
Tb477 Tb 0.28322 0.29305 0.77077 0.0
C478 C 0.39425 0.30486 0.81961 0.0
C479 C 0.40565 0.3254 0.82944 0.0
C480 C 0.43797 0.32162 0.82757 0.0
C481 C 0.449 0.34136 0.83526 0.0
C482 C 0.42785 0.36526 0.845 0.0
C483 C 0.39546 0.36884 0.84728 0.0
C484 C 0.38442 0.3491 0.83942 0.0
C485 C 0.28604 0.32474 0.83582 0.0
C486 C 0.29837 0.34171 0.75716 0.0
C487 C 0.23427 0.28466 0.75221 0.0
C488 C 0.21678 0.26755 0.75739 0.0
C489 C 0.18427 0.27579 0.74971 0.0
C490 C 0.16837 0.25855 0.74779 0.0
C491 C 0.18475 0.23266 0.75336 0.0
C492 C 0.21691 0.22478 0.76311 0.0
C493 C 0.23279 0.24207 0.7651 0.0
C494 C 0.33687 0.28006 0.74072 0.0
C495 C 0.32374 0.25417 0.82313 0.0
O496 O 0.38167 0.30669 0.79112 0.0
O497 O 0.37774 0.29826 0.8402 0.0
O498 O 0.29175 0.31243 0.81049 0.0
O499 O 0.31304 0.32558 0.84618 0.0
O500 O 0.32557 0.33196 0.77321 0.0
O501 O 0.27591 0.33153 0.75639 0.0
O502 O 0.23382 0.30169 0.77407 0.0
O503 O 0.26225 0.27402 0.73988 0.0
O504 O 0.33442 0.27737 0.76982 0.0
O505 O 0.30886 0.28871 0.72761 0.0
O506 O 0.2971 0.26322 0.80591 0.0
O507 O 0.34611 0.26437 0.82374 0.0
H508 H 0.45466 0.30347 0.81983 0.0
H509 H 0.47412 0.33789 0.83359 0.0
H510 H 0.37852 0.38709 0.85434 0.0
H511 H 0.35929 0.35242 0.84069 0.0
H512 H 0.17151 0.29535 0.74363 0.0
H513 H 0.14344 0.26538 0.74091 0.0
H514 H 0.23033 0.20501 0.76745 0.0
H515 H 0.25796 0.23525 0.77093 0.0
Tb516 Tb 0.7885 0.29717 0.81295 0.0
Tb517 Tb 0.808 0.32734 0.76723 0.0
C518 C 0.77762 0.26111 0.83699 0.0
C519 C 0.79616 0.23687 0.85166 0.0
C520 C 0.81988 0.23487 0.87482 0.0
C521 C 0.83706 0.21135 0.88798 0.0
C522 C 0.83107 0.18949 0.87782 0.0
C523 C 0.80763 0.19161 0.85432 0.0
C524 C 0.79031 0.21506 0.84147 0.0
C525 C 0.75931 0.34681 0.81892 0.0
C526 C 0.84657 0.31237 0.83368 0.0
C527 C 0.81881 0.36337 0.74302 0.0
C528 C 0.80085 0.38671 0.72622 0.0
C529 C 0.8074 0.40871 0.7337 0.0
C530 C 0.79072 0.43133 0.7186 0.0
C531 C 0.76721 0.43238 0.69554 0.0
C532 C 0.76049 0.41031 0.68816 0.0
C533 C 0.77704 0.38766 0.70356 0.0
C534 C 0.83626 0.27769 0.76093 0.0
C535 C 0.75103 0.31116 0.74584 0.0
O536 O 0.78241 0.26227 0.80702 0.0
O537 O 0.7755 0.28206 0.85247 0.0
O538 O 0.76674 0.33414 0.79382 0.0
O539 O 0.76539 0.33123 0.84202 0.0
O540 O 0.83235 0.29586 0.8378 0.0
O541 O 0.83893 0.32743 0.80898 0.0
O542 O 0.81159 0.36319 0.77252 0.0
O543 O 0.82302 0.3417 0.72835 0.0
O544 O 0.82946 0.29034 0.78608 0.0
O545 O 0.83017 0.29325 0.73778 0.0
O546 O 0.76473 0.32802 0.7418 0.0
O547 O 0.75862 0.2963 0.7707 0.0
H548 H 0.82513 0.2514 0.88277 0.0
H549 H 0.8551 0.21022 0.90596 0.0
H550 H 0.80212 0.1752 0.84635 0.0
H551 H 0.7722 0.2162 0.82354 0.0
H552 H 0.82558 0.40836 0.75122 0.0
H553 H 0.79679 0.44788 0.72447 0.0
H554 H 0.74236 0.41062 0.67062 0.0
H555 H 0.77129 0.37095 0.69773 0.0
Tb556 Tb 0.75557 0.80775 0.79176 0.0
Tb557 Tb 0.81185 0.81484 0.76306 0.0
C558 C 0.70503 0.79981 0.80099 0.0
C559 C 0.69575 0.77778 0.80643 0.0
C560 C 0.66506 0.77884 0.79769 0.0
C561 C 0.65503 0.75883 0.80443 0.0
C562 C 0.67549 0.73742 0.82023 0.0
C563 C 0.70651 0.73621 0.82842 0.0
C564 C 0.71661 0.75617 0.82144 0.0
C565 C 0.80764 0.79329 0.82725 0.0
C566 C 0.8009 0.76459 0.74626 0.0
C567 C 0.86252 0.82256 0.75376 0.0
C568 C 0.8729 0.84436 0.75106 0.0
C569 C 0.90421 0.84164 0.75966 0.0
C570 C 0.91534 0.86145 0.75536 0.0
C571 C 0.89537 0.88434 0.74218 0.0
C572 C 0.86376 0.88719 0.73414 0.0
C573 C 0.85256 0.86741 0.73869 0.0
C574 C 0.75917 0.82978 0.72808 0.0
C575 C 0.76706 0.85772 0.80892 0.0
O576 O 0.71511 0.80147 0.77296 0.0
O577 O 0.72224 0.80539 0.82334 0.0
O578 O 0.80627 0.79052 0.7978 0.0
O579 O 0.77921 0.80186 0.83791 0.0
O580 O 0.7731 0.77453 0.75997 0.0
O581 O 0.82244 0.77551 0.7486 0.0
O582 O 0.8539 0.8186 0.78159 0.0
O583 O 0.84358 0.81956 0.73127 0.0
O584 O 0.76122 0.83219 0.75747 0.0
O585 O 0.78744 0.82096 0.71699 0.0
O586 O 0.79504 0.84749 0.79565 0.0
O587 O 0.74506 0.84727 0.80565 0.0
H588 H 0.64863 0.79537 0.78613 0.0
H589 H 0.63092 0.76045 0.79805 0.0
H590 H 0.72295 0.71983 0.84023 0.0
H591 H 0.74052 0.75489 0.82819 0.0
H592 H 0.92026 0.82399 0.76918 0.0
H593 H 0.93988 0.85856 0.76152 0.0
H594 H 0.84769 0.90471 0.72433 0.0
H595 H 0.8282 0.86997 0.73209 0.0
H596 H 0.10726 0.12143 0.30303 0.0
H597 H 0.18897 0.2088 0.39496 0.0
H598 H 0.12358 0.12077 0.40366 0.0
H599 H 0.18029 0.20522 0.29368 0.0
H600 H 0.16582 0.17602 0.39834 0.0
H601 H 0.13472 0.1514 0.29886 0.0
C602 C 0.11684 0.12735 0.32425 0.0
C603 C 0.11294 0.11853 0.3538 0.0
C604 C 0.16908 0.1823 0.37535 0.0
C605 C 0.1441 0.15324 0.34916 0.0
C606 C 0.18252 0.20094 0.37337 0.0
C607 C 0.18669 0.2098 0.34396 0.0
C608 C 0.15955 0.17242 0.34773 0.0
C609 C 0.17718 0.19922 0.31687 0.0
C610 C 0.13239 0.14462 0.32184 0.0
C611 C 0.12553 0.12729 0.38046 0.0
N612 N 0.16401 0.18113 0.31941 0.0
N613 N 0.14043 0.14418 0.37751 0.0
H614 H 0.9603 0.10835 0.31746 0.0
H615 H 0.87389 0.24453 0.24203 0.0
H616 H 1.00212 0.13581 0.24357 0.0
H617 H 0.86379 0.22858 0.33873 0.0
H618 H 0.91218 0.20114 0.23518 0.0
H619 H 0.91566 0.14871 0.31782 0.0
C620 C 0.95984 0.12264 0.30085 0.0
C621 C 0.98518 0.11869 0.28055 0.0
C622 C 0.90134 0.20714 0.25779 0.0
C623 C 0.934 0.16496 0.28091 0.0
C624 C 0.87946 0.2318 0.26169 0.0
C625 C 0.86595 0.24016 0.2911 0.0
C626 C 0.90917 0.19062 0.28328 0.0
C627 C 0.87391 0.22292 0.31577 0.0
C628 C 0.93443 0.14574 0.30127 0.0
C629 C 0.98323 0.13806 0.25973 0.0
N630 N 0.89497 0.19897 0.31132 0.0
N631 N 0.95814 0.16039 0.26048 0.0
H632 H 1.04254 0.95654 0.38313 0.0
H633 H 0.90196 0.91791 0.30418 0.0
H634 H 0.96911 0.00632 0.32317 0.0
H635 H 0.98332 0.86582 0.35318 0.0
H636 H 0.92531 0.95086 0.31122 0.0
H637 H 1.01957 0.92374 0.37407 0.0
C638 C 1.02139 0.96069 0.36829 0.0
C639 C 1.0077 0.98429 0.35395 0.0
C640 C 0.93808 0.93218 0.32033 0.0
C641 C 0.98142 0.94657 0.34308 0.0
C642 C 0.92487 0.9133 0.31612 0.0
C643 C 0.94057 0.88906 0.3283 0.0
C644 C 0.96716 0.92682 0.33692 0.0
C645 C 0.97003 0.88433 0.34391 0.0
C646 C 1.00843 0.94183 0.36287 0.0
C647 C 0.9806 0.98834 0.33447 0.0
N648 N 0.98225 0.90304 0.34789 0.0
N649 N 0.96831 0.96969 0.32965 0.0
H650 H 0.09704 0.98163 0.27636 0.0
H651 H 0.27616 0.88301 0.27847 0.0
H652 H 0.17756 0.00302 0.3022 0.0
H653 H 0.19529 0.8622 0.29641 0.0
H654 H 0.24047 0.92713 0.27172 0.0
H655 H 0.13328 0.93787 0.26754 0.0
C656 C 0.12239 0.9773 0.27921 0.0
C657 C 0.13434 0.99595 0.2901 0.0
C658 C 0.23055 0.91281 0.27669 0.0
C659 C 0.17578 0.94603 0.28026 0.0
C660 C 0.25088 0.88764 0.2803 0.0
C661 C 0.23863 0.86902 0.28795 0.0
C662 C 0.19771 0.91922 0.2803 0.0
C663 C 0.20567 0.87608 0.29069 0.0
C664 C 0.143 0.95229 0.27451 0.0
C665 C 0.16739 0.98917 0.29393 0.0
N666 N 0.18634 0.90061 0.28688 0.0
N667 N 0.18695 0.96476 0.28918 0.0
H668 H 0.09935 0.99094 0.78874 0.0
H669 H 0.24625 0.87838 0.71793 0.0
H670 H 0.15409 0.99845 0.71096 0.0
H671 H 0.21039 0.8735 0.80916 0.0
H672 H 0.21222 0.92298 0.71612 0.0
H673 H 0.13971 0.94882 0.79884 0.0
C674 C 0.1201 0.98401 0.77425 0.0
C675 C 0.12316 0.99813 0.74875 0.0
C676 C 0.21193 0.91233 0.73676 0.0
C677 C 0.16892 0.95002 0.75975 0.0
C678 C 0.23135 0.88683 0.73771 0.0
C679 C 0.23123 0.87233 0.76375 0.0
C680 C 0.19168 0.92342 0.76181 0.0
C681 C 0.21141 0.88417 0.78879 0.0
C682 C 0.14301 0.95993 0.77988 0.0
C683 C 0.15044 0.98813 0.7306 0.0
N684 N 0.19214 0.90899 0.78708 0.0
N685 N 0.17193 0.96471 0.73622 0.0
H686 H 0.07619 0.14737 0.66662 0.0
H687 H 0.19032 0.18989 0.78622 0.0
H688 H 0.12533 0.10324 0.74609 0.0
H689 H 0.14403 0.23197 0.70428 0.0
H690 H 0.16644 0.1581 0.77236 0.0
H691 H 0.10107 0.17844 0.68005 0.0
C692 C 0.09241 0.14404 0.68672 0.0
C693 C 0.09851 0.1226 0.70528 0.0
C694 C 0.16144 0.17434 0.75748 0.0
C695 C 0.12683 0.15845 0.72114 0.0
C696 C 0.17514 0.19248 0.76535 0.0
C697 C 0.16911 0.21376 0.74651 0.0
C698 C 0.14162 0.17741 0.73051 0.0
C699 C 0.14895 0.21618 0.71989 0.0
C700 C 0.10646 0.16193 0.69454 0.0
C701 C 0.11948 0.11961 0.73135 0.0
N702 N 0.13602 0.19825 0.71269 0.0
N703 N 0.1328 0.13733 0.73853 0.0
H704 H 0.97852 0.12763 0.78883 0.0
H705 H 0.85015 0.24762 0.70829 0.0
H706 H 0.93162 0.12474 0.69934 0.0
H707 H 0.8658 0.24557 0.8089 0.0
H708 H 0.88343 0.20281 0.70463 0.0
H709 H 0.94015 0.17093 0.79762 0.0
C710 C 0.95999 0.13587 0.77131 0.0
C711 C 0.95858 0.12256 0.74316 0.0
C712 C 0.8795 0.21208 0.72758 0.0
C713 C 0.91522 0.172 0.75275 0.0
C714 C 0.86057 0.23768 0.72962 0.0
C715 C 0.85535 0.25031 0.75886 0.0
C716 C 0.89379 0.19899 0.75495 0.0
C717 C 0.86935 0.23649 0.78584 0.0
C718 C 0.93819 0.16057 0.77627 0.0
C719 C 0.93405 0.13426 0.72123 0.0
N720 N 0.88823 0.2116 0.78323 0.0
N721 N 0.91372 0.15827 0.72632 0.0
H722 H 0.99521 0.99001 0.75528 0.0
H723 H 0.88593 0.91349 0.68971 0.0
H724 H 0.96057 0.99382 0.65904 0.0
H725 H 0.93353 0.9017 0.78076 0.0
H726 H 0.90896 0.94569 0.67932 0.0
H727 H 0.9688 0.96039 0.76616 0.0
C728 C 0.9818 0.98483 0.73645 0.0
C729 C 0.98005 0.99455 0.70618 0.0
C730 C 0.9143 0.93609 0.70159 0.0
C731 C 0.94991 0.96023 0.71847 0.0
C732 C 0.90099 0.91784 0.70764 0.0
C733 C 0.90788 0.90482 0.73613 0.0
C734 C 0.9345 0.94151 0.72429 0.0
C735 C 0.92787 0.91103 0.75833 0.0
C736 C 0.96689 0.96772 0.74265 0.0
C737 C 0.96278 0.98665 0.68263 0.0
N738 N 0.94044 0.9289 0.75194 0.0
N739 N 0.94834 0.96998 0.68928 0.0
H740 H 0.33017 0.17186 0.1044 0.0
H741 H 0.28703 0.22934 0.27786 0.0
H742 H 0.24169 0.18313 0.14911 0.0
H743 H 0.35574 0.24528 0.2221 0.0
H744 H 0.28093 0.20061 0.23632 0.0
H745 H 0.34876 0.18855 0.15221 0.0
C746 C 0.31483 0.17764 0.1244 0.0
C747 C 0.28424 0.17646 0.12279 0.0
C748 C 0.2978 0.21002 0.23346 0.0
C749 C 0.30541 0.19501 0.17738 0.0
C750 C 0.30154 0.22628 0.25728 0.0
C751 C 0.32145 0.24019 0.25319 0.0
C752 C 0.31418 0.20752 0.2054 0.0
C753 C 0.33989 0.23516 0.22614 0.0
C754 C 0.32541 0.18714 0.15156 0.0
C755 C 0.26519 0.18419 0.14924 0.0
N756 N 0.33539 0.21954 0.20295 0.0
N757 N 0.27609 0.19315 0.17544 0.0
H758 H 0.95829 0.31738 0.08068 0.0
H759 H 0.85483 0.35657 0.23476 0.0
H760 H 0.93524 0.39029 0.12748 0.0
H761 H 0.86138 0.29025 0.17804 0.0
H762 H 0.88503 0.36866 0.19605 0.0
H763 H 0.92364 0.30666 0.11613 0.0
C764 C 0.94591 0.33115 0.09844 0.0
C765 C 0.94989 0.3547 0.10136 0.0
C766 C 0.8798 0.35152 0.19193 0.0
C767 C 0.91009 0.34256 0.14196 0.0
C768 C 0.86266 0.34449 0.21413 0.0
C769 C 0.85573 0.32224 0.20974 0.0
C770 C 0.89045 0.3361 0.16514 0.0
C771 C 0.86624 0.30753 0.18238 0.0
C772 C 0.92598 0.32507 0.11854 0.0
C773 C 0.93277 0.372 0.12435 0.0
N774 N 0.8833 0.31464 0.16118 0.0
N775 N 0.91384 0.36549 0.14396 0.0
H776 H 0.77232 0.94588 0.09539 0.0
H777 H 0.82949 0.88085 0.26193 0.0
H778 H 0.86624 0.9291 0.13623 0.0
H779 H 0.74962 0.874 0.20847 0.0
H780 H 0.83556 0.90879 0.22213 0.0
H781 H 0.75718 0.92866 0.14207 0.0
C782 C 0.78961 0.9388 0.11433 0.0
C783 C 0.82066 0.93864 0.11187 0.0
C784 C 0.81638 0.9015 0.21937 0.0
C785 C 0.8035 0.91927 0.16526 0.0
C786 C 0.81274 0.88564 0.24221 0.0
C787 C 0.78939 0.87459 0.23828 0.0
C788 C 0.79644 0.90651 0.19244 0.0
C789 C 0.76814 0.88187 0.21238 0.0
C790 C 0.78101 0.92895 0.14086 0.0
C791 C 0.84224 0.92916 0.13697 0.0
N792 N 0.77246 0.8971 0.19017 0.0
N793 N 0.83327 0.91985 0.16258 0.0
H794 H 0.16884 0.72682 0.12956 0.0
H795 H 0.24908 0.82824 0.1828 0.0
H796 H 0.14955 0.79722 0.08164 0.0
H797 H 0.26732 0.75656 0.22728 0.0
H798 H 0.21472 0.8169 0.14352 0.0
H799 H 0.20738 0.73693 0.16354 0.0
C800 C 0.17285 0.74431 0.12591 0.0
C801 C 0.15563 0.7612 0.10269 0.0
C802 C 0.22644 0.80366 0.16184 0.0
C803 C 0.19974 0.77319 0.14209 0.0
C804 C 0.2461 0.8101 0.18418 0.0
C805 C 0.2609 0.79346 0.20856 0.0
C806 C 0.22173 0.78042 0.16394 0.0
C807 C 0.25616 0.77019 0.2092 0.0
C808 C 0.19482 0.75018 0.14553 0.0
C809 C 0.16177 0.78378 0.09953 0.0
N810 N 0.23698 0.76447 0.1874 0.0
N811 N 0.18319 0.78916 0.11908 0.0
H812 H 0.19936 0.07491 0.93211 0.0
H813 H 0.27617 0.92707 0.96043 0.0
H814 H 0.23371 0.0424 1.02261 0.0
H815 H 0.23028 0.9586 0.8728 0.0
H816 H 0.25527 0.96917 0.98509 0.0
H817 H 0.20366 0.03292 0.91154 0.0
C818 C 0.20704 0.05906 0.94786 0.0
C819 C 0.21674 0.06204 0.97897 0.0
C820 C 0.24939 0.96689 0.96056 0.0
C821 C 0.22238 0.0139 0.95548 0.0
C822 C 0.26147 0.94287 0.94647 0.0
C823 C 0.25523 0.93943 0.91448 0.0
C824 C 0.23127 0.98772 0.94243 0.0
C825 C 0.23563 0.96045 0.89756 0.0
C826 C 0.20974 0.03503 0.93606 0.0
C827 C 0.22669 0.04079 0.99828 0.0
N828 N 0.22471 0.98378 0.91162 0.0
N829 N 0.22972 0.01758 0.98612 0.0
H830 H 0.11498 0.33103 0.92778 0.0
H831 H 0.26795 0.36176 0.88083 0.0
H832 H 0.14483 0.38785 0.97503 0.0
H833 H 0.23808 0.30549 0.83277 0.0
H834 H 0.22117 0.37323 0.91365 0.0
H835 H 0.15798 0.323 0.89087 0.0
C836 C 0.13054 0.34183 0.93045 0.0
C837 C 0.12629 0.36004 0.95481 0.0
C838 C 0.22453 0.35861 0.89563 0.0
C839 C 0.1756 0.35104 0.91232 0.0
C840 C 0.2512 0.3521 0.87688 0.0
C841 C 0.25641 0.33307 0.85358 0.0
C842 C 0.20309 0.34573 0.89135 0.0
C843 C 0.23428 0.3209 0.84965 0.0
C844 C 0.15502 0.33732 0.90922 0.0
C845 C 0.14692 0.37377 0.9566 0.0
N846 N 0.20865 0.32733 0.86845 0.0
N847 N 0.17073 0.36888 0.93581 0.0
H848 H 0.87009 0.06912 1.00739 0.0
H849 H 0.85699 0.14308 0.84867 0.0
H850 H 0.89222 0.03211 0.91655 0.0
H851 H 0.84282 0.17936 0.94048 0.0
H852 H 0.87712 0.10179 0.87364 0.0
H853 H 0.86752 0.10892 0.9843 0.0
C854 C 0.87489 0.06934 0.98265 0.0
C855 C 0.88097 0.04739 0.96377 0.0
C856 C 0.87005 0.11876 0.88837 0.0
C857 C 0.87775 0.09288 0.93703 0.0
C858 C 0.85844 0.14233 0.87412 0.0
C859 C 0.8478 0.16465 0.89255 0.0
C860 C 0.8707 0.11747 0.92132 0.0
C861 C 0.85075 0.16262 0.92539 0.0
C862 C 0.87346 0.09203 0.96947 0.0
C863 C 0.88747 0.04857 0.93196 0.0
N864 N 0.86148 0.13943 0.93873 0.0
N865 N 0.88517 0.07105 0.91947 0.0
H866 H 0.99803 0.73296 0.91147 0.0
H867 H 0.81088 0.80544 0.88887 0.0
H868 H 0.93948 0.78545 0.97961 0.0
H869 H 0.87005 0.76749 0.81169 0.0
H870 H 0.85786 0.79545 0.92323 0.0
H871 H 0.95164 0.74229 0.87553 0.0
C872 C 0.9754 0.7463 0.91896 0.0
C873 C 0.97264 0.75846 0.94862 0.0
C874 C 0.86074 0.78929 0.8988 0.0
C875 C 0.9196 0.76928 0.90762 0.0
C876 C 0.83387 0.79494 0.87916 0.0
C877 C 0.83661 0.78724 0.84742 0.0
C878 C 0.89075 0.77559 0.88679 0.0
C879 C 0.86699 0.77378 0.83606 0.0
C880 C 0.94902 0.75176 0.89835 0.0
C881 C 0.94282 0.77583 0.9569 0.0
N882 N 0.89296 0.76826 0.8558 0.0
N883 N 0.91753 0.78064 0.9366 0.0
H884 H 0.08231 0.35473 0.14736 0.0
H885 H 0.26587 0.28424 0.19198 0.0
H886 H 0.14502 0.29477 0.08998 0.0
H887 H 0.20114 0.34053 0.25203 0.0
H888 H 0.22145 0.28533 0.15671 0.0
H889 H 0.12426 0.34721 0.18761 0.0
C890 C 0.10487 0.33971 0.14333 0.0
C891 C 0.11007 0.32545 0.11499 0.0
C892 C 0.21679 0.29734 0.17766 0.0
C893 C 0.15884 0.31692 0.16135 0.0
C894 C 0.24219 0.29678 0.19787 0.0
C895 C 0.23731 0.31257 0.22488 0.0
C896 C 0.18602 0.31399 0.1842 0.0
C897 C 0.20605 0.32814 0.23144 0.0
C898 C 0.1289 0.33546 0.16644 0.0
C899 C 0.13981 0.30617 0.1114 0.0
N900 N 0.18168 0.32865 0.21108 0.0
N901 N 0.16316 0.30269 0.13411 0.0
H902 H 0.11163 0.8249 0.98934 0.0
H903 H 0.19556 0.78258 0.8226 0.0
H904 H 0.09316 0.77219 0.92318 0.0
H905 H 0.22005 0.83358 0.88718 0.0
H906 H 0.15429 0.78227 0.85785 0.0
H907 H 0.14684 0.83273 0.95087 0.0
C908 C 0.1142 0.8156 0.96642 0.0
C909 C 0.09931 0.79798 0.95935 0.0
C910 C 0.16854 0.79364 0.86441 0.0
C911 C 0.13995 0.8063 0.91564 0.0
C912 C 0.19227 0.79379 0.8442 0.0
C913 C 0.2116 0.808 0.85187 0.0
C914 C 0.16387 0.80773 0.89285 0.0
C915 C 0.20587 0.82223 0.88028 0.0
C916 C 0.1346 0.8198 0.94462 0.0
C917 C 0.10411 0.78596 0.9296 0.0
N918 N 0.18268 0.82164 0.89979 0.0
N919 N 0.12402 0.79021 0.90908 0.0
H920 H 0.3652 0.15996 0.98601 0.0
H921 H 0.28738 0.22419 0.82462 0.0
H922 H 0.29509 0.13902 0.93202 0.0
H923 H 0.36947 0.23475 0.86918 0.0
H924 H 0.29161 0.1914 0.86238 0.0
H925 H 0.36929 0.18562 0.94224 0.0
C926 C 0.35097 0.16047 0.96482 0.0
C927 C 0.32956 0.14746 0.96287 0.0
C928 C 0.30892 0.20069 0.8637 0.0
C929 C 0.33383 0.1771 0.91277 0.0
C930 C 0.30649 0.21948 0.84212 0.0
C931 C 0.32798 0.23243 0.84376 0.0
C932 C 0.33276 0.19496 0.88741 0.0
C933 C 0.3523 0.22536 0.86698 0.0
C934 C 0.35329 0.17516 0.93982 0.0
C935 C 0.31181 0.1488 0.93472 0.0
N936 N 0.35382 0.20732 0.88808 0.0
N937 N 0.31406 0.1636 0.91098 0.0
H938 H 1.00251 0.3476 0.92089 0.0
H939 H 0.87048 0.28421 0.887 0.0
H940 H 0.98804 0.29534 0.98503 0.0
H941 H 0.8847 0.34066 0.82942 0.0
H942 H 0.91528 0.28488 0.92129 0.0
H943 H 0.96282 0.34118 0.88488 0.0
C944 C 0.99131 0.33436 0.92717 0.0
C945 C 0.99876 0.32197 0.95607 0.0
C946 C 0.9086 0.29705 0.90111 0.0
C947 C 0.95213 0.31491 0.91486 0.0
C948 C 0.88294 0.29675 0.8815 0.0
C949 C 0.87353 0.3125 0.85518 0.0
C950 C 0.92517 0.31314 0.89435 0.0
C951 C 0.89079 0.32823 0.84935 0.0
C952 C 0.96838 0.33082 0.90661 0.0
C953 C 0.98333 0.30508 0.96286 0.0
N954 N 0.91557 0.32813 0.86867 0.0
N955 N 0.96047 0.30225 0.94257 0.0
H956 H 0.73309 0.95081 0.97639 0.0
H957 H 0.79927 0.89067 0.8105 0.0
H958 H 0.79382 0.97697 0.92157 0.0
H959 H 0.72245 0.87647 0.85436 0.0
H960 H 0.795 0.92429 0.84945 0.0
H961 H 0.72598 0.92558 0.93087 0.0
C962 C 0.74457 0.95156 0.95468 0.0
C963 C 0.76437 0.96586 0.95298 0.0
C964 C 0.77875 0.91409 0.85035 0.0
C965 C 0.75662 0.93675 0.90087 0.0
C966 C 0.78119 0.89485 0.82808 0.0
C967 C 0.76131 0.88061 0.82927 0.0
C968 C 0.75662 0.91891 0.87438 0.0
C969 C 0.73824 0.88698 0.85253 0.0
C970 C 0.7405 0.93713 0.92868 0.0
C971 C 0.7785 0.96613 0.92413 0.0
N972 N 0.73684 0.90541 0.87446 0.0
N973 N 0.7747 0.95154 0.89941 0.0
H974 H 0.9571 0.82187 0.08564 0.0
H975 H 0.89921 0.77045 0.23851 0.0
H976 H 1.01495 0.75607 0.13693 0.0
H977 H 0.83654 0.82764 0.17795 0.0
H978 H 0.94413 0.76924 0.20626 0.0
H979 H 0.91485 0.82875 0.12392 0.0
C980 C 0.96115 0.80914 0.10517 0.0
C981 C 0.98959 0.78826 0.10785 0.0
C982 C 0.92055 0.78218 0.20016 0.0
C983 C 0.94134 0.79589 0.15172 0.0
C984 C 0.89496 0.78289 0.21866 0.0
C985 C 0.86404 0.7989 0.21069 0.0
C986 C 0.91522 0.79773 0.17366 0.0
C987 C 0.85993 0.81471 0.18471 0.0
C988 C 0.93696 0.81295 0.12693 0.0
C989 C 0.99334 0.77229 0.13363 0.0
N990 N 0.88507 0.81366 0.16713 0.0
N991 N 0.9696 0.77635 0.15434 0.0
H992 H 0.28601 0.07435 0.13292 0.0
H993 H 0.35153 0.92305 0.11556 0.0
H994 H 0.33085 0.03499 0.04894 0.0
H995 H 0.30198 0.96528 0.196 0.0
H996 H 0.34756 0.96305 0.09154 0.0
H997 H 0.29624 0.03386 0.1576 0.0
C998 C 0.29841 0.05711 0.11978 0.0
C999 C 0.30748 0.05804 0.08878 0.0
C1000 C 0.33754 0.96351 0.11442 0.0
C1001 C 0.31884 0.01134 0.11681 0.0
C1002 C 0.3398 0.94071 0.12816 0.0
C1003 C 0.32686 0.94078 0.15778 0.0
C1004 C 0.32241 0.98654 0.13051 0.0
C1005 C 0.31178 0.96424 0.17291 0.0
C1006 C 0.30413 0.03394 0.13386 0.0
C1007 C 0.32361 0.0351 0.07296 0.0
N1008 N 0.31003 0.98608 0.15914 0.0
N1009 N 0.32851 0.01261 0.08705 0.0
H1010 H 0.82548 0.04272 0.12188 0.0
H1011 H 0.75605 0.1936 0.10628 0.0
H1012 H 0.77064 0.07983 0.04067 0.0
H1013 H 0.8109 0.15398 0.18618 0.0
H1014 H 0.75906 0.15281 0.08223 0.0
H1015 H 0.81734 0.08388 0.14656 0.0
C1016 C 0.81138 0.0596 0.10935 0.0
C1017 C 0.79881 0.05784 0.07911 0.0
C1018 C 0.77045 0.15309 0.105 0.0
C1019 C 0.78976 0.10531 0.10717 0.0
C1020 C 0.76874 0.17636 0.11876 0.0
C1021 C 0.78342 0.17727 0.14826 0.0
C1022 C 0.78685 0.13056 0.12089 0.0
C1023 C 0.79973 0.15428 0.16319 0.0
C1024 C 0.80683 0.08316 0.12344 0.0
C1025 C 0.78062 0.08035 0.06409 0.0
N1026 N 0.80095 0.13197 0.14938 0.0
N1027 N 0.77687 0.10323 0.07817 0.0
H1028 H 0.58389 0.62626 0.82024 0.0
H1029 H 0.6848 0.71226 0.87599 0.0
H1030 H 0.6151 0.63081 0.91653 0.0
H1031 H 0.64011 0.71571 0.78405 0.0
H1032 H 0.66378 0.67967 0.89029 0.0
H1033 H 0.60858 0.65619 0.80573 0.0
C1034 C 0.59621 0.63333 0.83834 0.0
C1035 C 0.59748 0.62587 0.8697 0.0
C1036 C 0.65864 0.68753 0.86697 0.0
C1037 C 0.62561 0.66061 0.85319 0.0
C1038 C 0.67081 0.706 0.85871 0.0
C1039 C 0.66413 0.7168 0.82879 0.0
C1040 C 0.63981 0.67964 0.84508 0.0
C1041 C 0.64553 0.70816 0.8075 0.0
C1042 C 0.61013 0.65063 0.83004 0.0
C1043 C 0.6133 0.63618 0.89216 0.0
N1044 N 0.63406 0.69012 0.81605 0.0
N1045 N 0.62679 0.653 0.88347 0.0
H1046 H 0.47594 0.62347 0.79206 0.0
H1047 H 0.32786 0.73448 0.86262 0.0
H1048 H 0.42525 0.61624 0.87324 0.0
H1049 H 0.35592 0.73649 0.76718 0.0
H1050 H 0.36429 0.69071 0.86599 0.0
H1051 H 0.43299 0.66411 0.78067 0.0
C1052 C 0.45558 0.63012 0.80707 0.0
C1053 C 0.45441 0.61654 0.83385 0.0
C1054 C 0.36238 0.70053 0.84413 0.0
C1055 C 0.40567 0.66298 0.82133 0.0
C1056 C 0.34156 0.72557 0.84226 0.0
C1057 C 0.33895 0.73913 0.81468 0.0
C1058 C 0.38131 0.68893 0.81839 0.0
C1059 C 0.35724 0.72664 0.78892 0.0
C1060 C 0.43116 0.65335 0.80067 0.0
C1061 C 0.4275 0.62616 0.8526 0.0
N1062 N 0.37801 0.70231 0.79152 0.0
N1063 N 0.40455 0.64878 0.84621 0.0
H1064 H 0.46916 0.49392 0.92681 0.0
H1065 H 0.47018 0.37854 0.81168 0.0
H1066 H 0.51557 0.47714 0.83756 0.0
H1067 H 0.41194 0.40053 0.89356 0.0
H1068 H 0.48927 0.41336 0.82284 0.0
H1069 H 0.45013 0.45858 0.91714 0.0
C1070 C 0.47542 0.48279 0.90526 0.0
C1071 C 0.49382 0.48865 0.88288 0.0
C1072 C 0.47231 0.41062 0.83842 0.0
C1073 C 0.47216 0.44825 0.87165 0.0
C1074 C 0.46156 0.3906 0.83216 0.0
C1075 C 0.43951 0.38651 0.85177 0.0
C1076 C 0.46111 0.42673 0.86461 0.0
C1077 C 0.42875 0.4031 0.87767 0.0
C1078 C 0.46442 0.46272 0.89967 0.0
C1079 C 0.50102 0.47368 0.85524 0.0
N1080 N 0.43973 0.42243 0.8834 0.0
N1081 N 0.49025 0.45421 0.85047 0.0
H1082 H 0.6508 0.49722 0.88505 0.0
H1083 H 0.72814 0.37785 0.77052 0.0
H1084 H 0.60674 0.4908 0.79503 0.0
H1085 H 0.74206 0.37691 0.87134 0.0
H1086 H 0.69046 0.42173 0.77493 0.0
H1087 H 0.6917 0.45623 0.87559 0.0
C1088 C 0.64979 0.4873 0.86306 0.0
C1089 C 0.6249 0.49747 0.84096 0.0
C1090 C 0.70186 0.41189 0.796 0.0
C1091 C 0.67221 0.45002 0.83002 0.0
C1092 C 0.72341 0.38693 0.79354 0.0
C1093 C 0.73807 0.3737 0.82069 0.0
C1094 C 0.69544 0.42379 0.82576 0.0
C1095 C 0.73119 0.38635 0.84986 0.0
C1096 C 0.67323 0.46376 0.85776 0.0
C1097 C 0.62537 0.48368 0.81276 0.0
N1098 N 0.71047 0.41064 0.8516 0.0
N1099 N 0.64859 0.46052 0.80814 0.0
H1100 H 0.61415 0.48966 0.30025 0.0
H1101 H 0.75478 0.3804 0.22114 0.0
H1102 H 0.67343 0.50249 0.23016 0.0
H1103 H 0.72805 0.37145 0.3151 0.0
H1104 H 0.72316 0.42542 0.2245 0.0
H1105 H 0.65394 0.44693 0.30797 0.0
C1106 C 0.63581 0.48378 0.28709 0.0
C1107 C 0.64026 0.49955 0.26419 0.0
C1108 C 0.72436 0.41377 0.24461 0.0
C1109 C 0.6853 0.4508 0.27246 0.0
C1110 C 0.74234 0.38804 0.24261 0.0
C1111 C 0.74387 0.37226 0.2678 0.0
C1112 C 0.70704 0.42387 0.27175 0.0
C1113 C 0.72742 0.38311 0.29518 0.0
C1114 C 0.65841 0.45938 0.29141 0.0
C1115 C 0.66869 0.49088 0.2477 0.0
N1116 N 0.70916 0.40827 0.29628 0.0
N1117 N 0.68978 0.46706 0.2518 0.0
H1118 H 0.57639 0.64813 0.17263 0.0
H1119 H 0.70355 0.6938 0.268 0.0
H1120 H 0.63569 0.60629 0.24887 0.0
H1121 H 0.64523 0.73428 0.1904 0.0
H1122 H 0.67881 0.66168 0.26183 0.0
H1123 H 0.60146 0.67981 0.17895 0.0
C1124 C 0.59485 0.64544 0.19055 0.0
C1125 C 0.6039 0.6244 0.21023 0.0
C1126 C 0.67138 0.67763 0.2462 0.0
C1127 C 0.63252 0.66097 0.2179 0.0
C1128 C 0.68558 0.69593 0.24964 0.0
C1129 C 0.67645 0.71682 0.22972 0.0
C1130 C 0.64792 0.68017 0.2226 0.0
C1131 C 0.65272 0.71873 0.20661 0.0
C1132 C 0.60903 0.66369 0.1943 0.0
C1133 C 0.62764 0.6223 0.23341 0.0
N1134 N 0.63937 0.70064 0.20366 0.0
N1135 N 0.64111 0.64034 0.2366 0.0
H1136 H 0.43462 0.61345 0.22842 0.0
H1137 H 0.38991 0.7476 0.31795 0.0
H1138 H 0.49725 0.62666 0.30027 0.0
H1139 H 0.36245 0.73678 0.22208 0.0
H1140 H 0.42048 0.70168 0.32065 0.0
H1141 H 0.39792 0.65666 0.2362 0.0
C1142 C 0.44045 0.62531 0.24627 0.0
C1143 C 0.46936 0.6165 0.26336 0.0
C1144 C 0.40754 0.70943 0.29918 0.0
C1145 C 0.42729 0.66629 0.27219 0.0
C1146 C 0.39008 0.73549 0.29765 0.0
C1147 C 0.37384 0.74582 0.26967 0.0
C1148 C 0.40795 0.69374 0.27278 0.0
C1149 C 0.37479 0.72951 0.24399 0.0
C1150 C 0.41949 0.65005 0.25058 0.0
C1151 C 0.4753 0.63271 0.28648 0.0
N1152 N 0.39142 0.7043 0.24621 0.0
N1153 N 0.45459 0.65702 0.28998 0.0
H1154 H 0.52387 0.46247 0.18085 0.0
H1155 H 0.38806 0.43351 0.27171 0.0
H1156 H 0.46545 0.51368 0.2503 0.0
H1157 H 0.44938 0.38268 0.20381 0.0
H1158 H 0.41595 0.46317 0.26496 0.0
H1159 H 0.49598 0.43342 0.18886 0.0
C1160 C 0.505 0.46776 0.19762 0.0
C1161 C 0.49702 0.49066 0.21487 0.0
C1162 C 0.42326 0.44551 0.25157 0.0
C1163 C 0.46509 0.45712 0.22454 0.0
C1164 C 0.40748 0.42852 0.25555 0.0
C1165 C 0.4162 0.40565 0.23811 0.0
C1166 C 0.44799 0.43953 0.23007 0.0
C1167 C 0.44139 0.40027 0.21731 0.0
C1168 C 0.48919 0.45102 0.20238 0.0
C1169 C 0.47266 0.49614 0.23672 0.0
N1170 N 0.45629 0.41707 0.21385 0.0
N1171 N 0.45754 0.47951 0.24092 0.0
H1172 H 0.79563 0.62534 0.65978 0.0
H1173 H 0.84331 0.74675 0.69887 0.0
H1174 H 0.83082 0.66148 0.58947 0.0
H1175 H 0.77297 0.72894 0.74975 0.0
H1176 H 0.84958 0.70998 0.66393 0.0
H1177 H 0.79826 0.65758 0.69829 0.0
C1178 C 0.80436 0.63983 0.6525 0.0
C1179 C 0.81281 0.64079 0.62122 0.0
C1180 C 0.83301 0.71404 0.68294 0.0
C1181 C 0.81592 0.67774 0.66537 0.0
C1182 C 0.82955 0.7349 0.70301 0.0
C1183 C 0.80749 0.74097 0.7272 0.0
C1184 C 0.81469 0.69891 0.68746 0.0
C1185 C 0.79011 0.72506 0.73129 0.0
C1186 C 0.80567 0.65831 0.6745 0.0
C1187 C 0.82388 0.6601 0.61325 0.0
N1188 N 0.7941 0.70476 0.71164 0.0
N1189 N 0.82505 0.67787 0.63517 0.0
H1190 H 0.45449 0.79519 0.58835 0.0
H1191 H 0.38771 0.81181 0.76222 0.0
H1192 H 0.51595 0.78261 0.67078 0.0
H1193 H 0.34062 0.78778 0.68435 0.0
H1194 H 0.43211 0.80778 0.7281 0.0
H1195 H 0.40966 0.79896 0.62209 0.0
C1196 C 0.45851 0.79328 0.61354 0.0
C1197 C 0.48907 0.78846 0.62673 0.0
C1198 C 0.41205 0.8034 0.71849 0.0
C1199 C 0.43781 0.79315 0.66553 0.0
C1200 C 0.38659 0.80581 0.73791 0.0
C1201 C 0.36032 0.80009 0.72621 0.0
C1202 C 0.41107 0.79574 0.68684 0.0
C1203 C 0.36039 0.79228 0.69447 0.0
C1204 C 0.43299 0.79532 0.63275 0.0
C1205 C 0.49294 0.78605 0.65956 0.0
N1206 N 0.38519 0.79053 0.67586 0.0
N1207 N 0.46763 0.78864 0.67781 0.0
H1208 H 0.27587 0.43575 0.59313 0.0
H1209 H 0.33275 0.37283 0.76083 0.0
H1210 H 0.3684 0.42205 0.63586 0.0
H1211 H 0.25879 0.35842 0.70514 0.0
H1212 H 0.33735 0.40067 0.72027 0.0
H1213 H 0.26185 0.41596 0.63842 0.0
C1214 C 0.29308 0.42876 0.61216 0.0
C1215 C 0.32343 0.43028 0.61071 0.0
C1216 C 0.31984 0.39167 0.71705 0.0
C1217 C 0.30751 0.40815 0.66245 0.0
C1218 C 0.31704 0.37583 0.74029 0.0
C1219 C 0.29567 0.3629 0.7362 0.0
C1220 C 0.30113 0.39475 0.68939 0.0
C1221 C 0.27567 0.36791 0.70923 0.0
C1222 C 0.28513 0.41745 0.63785 0.0
C1223 C 0.34496 0.42089 0.63585 0.0
N1224 N 0.27915 0.38324 0.68658 0.0
N1225 N 0.33656 0.4103 0.66066 0.0
H1226 H 0.60973 0.26342 0.64861 0.0
H1227 H 0.72627 0.33946 0.69278 0.0
H1228 H 0.61358 0.324 0.59165 0.0
H1229 H 0.71643 0.27998 0.74801 0.0
H1230 H 0.68391 0.33629 0.65672 0.0
H1231 H 0.64626 0.27201 0.68672 0.0
C1232 C 0.61796 0.27886 0.64434 0.0
C1233 C 0.60848 0.29301 0.61684 0.0
C1234 C 0.69097 0.32403 0.67681 0.0
C1235 C 0.65143 0.3027 0.66049 0.0
C1236 C 0.71525 0.32577 0.69742 0.0
C1237 C 0.72519 0.30989 0.72357 0.0
C1238 C 0.67645 0.30628 0.68232 0.0
C1239 C 0.70983 0.2926 0.72826 0.0
C1240 C 0.63904 0.2837 0.66613 0.0
C1241 C 0.62001 0.31277 0.61266 0.0
N1242 N 0.68647 0.29126 0.70792 0.0
N1243 N 0.64119 0.31686 0.63407 0.0
H1244 H 0.81046 0.53181 0.52965 0.0
H1245 H 0.88376 0.42679 0.39572 0.0
H1246 H 0.86534 0.5425 0.45374 0.0
H1247 H 0.8028 0.43008 0.44925 0.0
H1248 H 0.88496 0.46503 0.42349 0.0
H1249 H 0.81577 0.49013 0.50738 0.0
C1250 C 0.82407 0.52528 0.50859 0.0
C1251 C 0.83725 0.54084 0.49338 0.0
C1252 C 0.86705 0.45731 0.42929 0.0
C1253 C 0.84334 0.49309 0.46784 0.0
C1254 C 0.86645 0.43542 0.4136 0.0
C1255 C 0.84315 0.42523 0.42024 0.0
C1256 C 0.84441 0.46901 0.45207 0.0
C1257 C 0.82101 0.43741 0.4433 0.0
C1258 C 0.82688 0.50153 0.4958 0.0
C1259 C 0.85462 0.53125 0.46616 0.0
N1260 N 0.82222 0.45865 0.45846 0.0
N1261 N 0.85707 0.50803 0.45419 0.0
H1262 H 0.63792 0.76589 0.41605 0.0
H1263 H 0.76831 0.82775 0.38624 0.0
H1264 H 0.65457 0.82152 0.47886 0.0
H1265 H 0.73285 0.79084 0.31181 0.0
H1266 H 0.72743 0.82484 0.42068 0.0
H1267 H 0.6735 0.77321 0.37818 0.0
C1268 C 0.64908 0.7796 0.42197 0.0
C1269 C 0.64319 0.79305 0.45089 0.0
C1270 C 0.72811 0.81775 0.39667 0.0
C1271 C 0.68406 0.80157 0.40741 0.0
C1272 C 0.75135 0.81955 0.37693 0.0
C1273 C 0.75347 0.81012 0.34587 0.0
C1274 C 0.70718 0.80572 0.38569 0.0
C1275 C 0.73143 0.79906 0.33527 0.0
C1276 C 0.66922 0.78392 0.40018 0.0
C1277 C 0.65811 0.81083 0.4569 0.0
N1278 N 0.70942 0.7969 0.35524 0.0
N1279 N 0.67794 0.81439 0.43556 0.0
H1280 H 0.3915 0.53133 0.4208 0.0
H1281 H 0.35202 0.68033 0.44639 0.0
H1282 H 0.36593 0.57043 0.51005 0.0
H1283 H 0.35476 0.64374 0.35529 0.0
H1284 H 0.36738 0.63898 0.47092 0.0
H1285 H 0.38925 0.57106 0.3976 0.0
C1286 C 0.38605 0.54815 0.43567 0.0
C1287 C 0.37862 0.54764 0.46736 0.0
C1288 C 0.3649 0.64002 0.44553 0.0
C1289 C 0.37563 0.59321 0.44089 0.0
C1290 C 0.35597 0.66365 0.43149 0.0
C1291 C 0.35168 0.66569 0.39867 0.0
C1292 C 0.36975 0.61819 0.42668 0.0
C1293 C 0.35797 0.64323 0.38061 0.0
C1294 C 0.38449 0.57088 0.42236 0.0
C1295 C 0.37136 0.57011 0.48543 0.0
N1296 N 0.36644 0.62049 0.39486 0.0
N1297 N 0.36983 0.59202 0.47191 0.0
H1298 H 0.45606 0.32183 0.49476 0.0
H1299 H 0.3868 0.2872 0.32909 0.0
H1300 H 0.51257 0.26924 0.42551 0.0
H1301 H 0.32756 0.33415 0.40108 0.0
H1302 H 0.43385 0.28423 0.36197 0.0
H1303 H 0.40949 0.33069 0.45874 0.0
C1304 C 0.45884 0.31248 0.47187 0.0
C1305 C 0.48835 0.29466 0.46334 0.0
C1306 C 0.41057 0.29529 0.37056 0.0
C1307 C 0.43509 0.30451 0.42202 0.0
C1308 C 0.38369 0.29701 0.3517 0.0
C1309 C 0.35315 0.31076 0.3624 0.0
C1310 C 0.407 0.30746 0.40039 0.0
C1311 C 0.35063 0.32315 0.39196 0.0
C1312 C 0.43219 0.31739 0.45136 0.0
C1313 C 0.49034 0.28297 0.43335 0.0
N1314 N 0.37707 0.32113 0.40991 0.0
N1315 N 0.46424 0.28799 0.414 0.0
H1316 H 0.62611 0.84505 0.57276 0.0
H1317 H 0.69739 0.84877 0.74749 0.0
H1318 H 0.57126 0.85228 0.65607 0.0
H1319 H 0.75379 0.82607 0.66452 0.0
H1320 H 0.64917 0.85703 0.71428 0.0
H1321 H 0.67096 0.84602 0.6059 0.0
C1322 C 0.62325 0.84729 0.59798 0.0
C1323 C 0.59488 0.84831 0.61161 0.0
C1324 C 0.67211 0.85038 0.70337 0.0
C1325 C 0.64649 0.84911 0.64983 0.0
C1326 C 0.69959 0.84561 0.72231 0.0
C1327 C 0.72958 0.83641 0.70874 0.0
C1328 C 0.67473 0.84619 0.67064 0.0
C1329 C 0.73113 0.83297 0.67596 0.0
C1330 C 0.649 0.84767 0.61694 0.0
C1331 C 0.5927 0.85126 0.6445 0.0
N1332 N 0.70415 0.83778 0.65808 0.0
N1333 N 0.61825 0.8513 0.6625 0.0
H1334 H 0.64334 0.30171 0.48167 0.0
H1335 H 0.74568 0.25839 0.32697 0.0
H1336 H 0.66491 0.22809 0.43707 0.0
H1337 H 0.74422 0.32353 0.38366 0.0
H1338 H 0.7134 0.24845 0.36556 0.0
H1339 H 0.67744 0.3115 0.44452 0.0
C1340 C 0.65517 0.28764 0.46399 0.0
C1341 C 0.65119 0.26406 0.46237 0.0
C1342 C 0.72019 0.26488 0.36966 0.0
C1343 C 0.69029 0.27511 0.41989 0.0
C1344 C 0.73855 0.27066 0.34755 0.0
C1345 C 0.74762 0.29189 0.35204 0.0
C1346 C 0.71048 0.28056 0.39642 0.0
C1347 C 0.7378 0.30696 0.37929 0.0
C1348 C 0.6748 0.29318 0.44295 0.0
C1349 C 0.6675 0.24639 0.43932 0.0
N1350 N 0.71959 0.30108 0.4004 0.0
N1351 N 0.68617 0.25233 0.41887 0.0
H1352 H 0.82292 0.67152 0.46296 0.0
H1353 H 0.79403 0.72109 0.28721 0.0
H1354 H 0.76274 0.65148 0.39414 0.0
H1355 H 0.86029 0.73679 0.35268 0.0
H1356 H 0.78734 0.69139 0.32416 0.0
H1357 H 0.8411 0.69197 0.42173 0.0
C1358 C 0.81371 0.67119 0.43919 0.0
C1359 C 0.79092 0.65997 0.43221 0.0
C1360 C 0.80377 0.70098 0.3303 0.0
C1361 C 0.81156 0.68351 0.38483 0.0
C1362 C 0.80773 0.71789 0.30907 0.0
C1363 C 0.82753 0.73166 0.3169 0.0
C1364 C 0.81942 0.69801 0.35985 0.0
C1365 C 0.84478 0.72659 0.34559 0.0
C1366 C 0.82408 0.68293 0.41563 0.0
C1367 C 0.77973 0.66035 0.40091 0.0
N1368 N 0.83991 0.7105 0.36627 0.0
N1369 N 0.79 0.67204 0.37851 0.0
H1370 H 0.45493 0.80109 0.5072 0.0
H1371 H 0.39027 0.8452 0.3346 0.0
H1372 H 0.49028 0.84887 0.45428 0.0
H1373 H 0.34755 0.80776 0.39632 0.0
H1374 H 0.42416 0.8502 0.37871 0.0
H1375 H 0.41211 0.80727 0.46828 0.0
C1376 C 0.45323 0.8133 0.48753 0.0
C1377 C 0.47607 0.82445 0.48378 0.0
C1378 C 0.40709 0.84116 0.38261 0.0
C1379 C 0.42762 0.83107 0.43845 0.0
C1380 C 0.38778 0.83822 0.35742 0.0
C1381 C 0.36629 0.82569 0.36157 0.0
C1382 C 0.40496 0.83141 0.41209 0.0
C1383 C 0.36399 0.81724 0.39176 0.0
C1384 C 0.42883 0.81679 0.46524 0.0
C1385 C 0.47291 0.8401 0.45799 0.0
N1386 N 0.38325 0.82006 0.41568 0.0
N1387 N 0.44939 0.8426 0.43588 0.0
H1388 H 0.29104 0.48436 0.426 0.0
H1389 H 0.2181 0.38463 0.35281 0.0
H1390 H 0.23013 0.45509 0.47605 0.0
H1391 H 0.29926 0.39721 0.31594 0.0
H1392 H 0.21121 0.41967 0.39025 0.0
H1393 H 0.28289 0.46177 0.37859 0.0
C1394 C 0.27548 0.47356 0.42694 0.0
C1395 C 0.2617 0.47125 0.45529 0.0
C1396 C 0.23017 0.41503 0.37359 0.0
C1397 C 0.25235 0.44533 0.40094 0.0
C1398 C 0.23409 0.39508 0.35205 0.0
C1399 C 0.25971 0.38761 0.33152 0.0
C1400 C 0.2519 0.4277 0.37454 0.0
C1401 C 0.27942 0.40207 0.33156 0.0
C1402 C 0.27093 0.46061 0.39982 0.0
C1403 C 0.24155 0.45716 0.45487 0.0
N1404 N 0.27536 0.42121 0.35306 0.0
N1405 N 0.23778 0.44448 0.42822 0.0
H1406 H 0.46549 0.2263 0.58903 0.0
H1407 H 0.39998 0.26313 0.7615 0.0
H1408 H 0.5132 0.262 0.65375 0.0
H1409 H 0.34012 0.27719 0.67763 0.0
H1410 H 0.44697 0.25132 0.72788 0.0
H1411 H 0.42466 0.23206 0.62787 0.0
C1412 C 0.46772 0.23488 0.61167 0.0
C1413 C 0.49263 0.24383 0.61816 0.0
C1414 C 0.42341 0.257 0.71712 0.0
C1415 C 0.44608 0.25038 0.66266 0.0
C1416 C 0.39672 0.26383 0.73619 0.0
C1417 C 0.36613 0.27163 0.72232 0.0
C1418 C 0.41921 0.25712 0.68422 0.0
C1419 C 0.36321 0.27154 0.68938 0.0
C1420 C 0.44434 0.2383 0.6337 0.0
C1421 C 0.49411 0.25513 0.64781 0.0
N1422 N 0.38934 0.26426 0.67152 0.0
N1423 N 0.47104 0.25816 0.66907 0.0
H1424 H 0.72877 0.54323 0.5527 0.0
H1425 H 0.74286 0.48068 0.71996 0.0
H1426 H 0.70851 0.58628 0.63981 0.0
H1427 H 0.75518 0.43841 0.63216 0.0
H1428 H 0.7233 0.52009 0.69078 0.0
H1429 H 0.73109 0.50542 0.58068 0.0
C1430 C 0.72426 0.54477 0.57766 0.0
C1431 C 0.71879 0.56782 0.59402 0.0
C1432 C 0.72985 0.50222 0.67787 0.0
C1433 C 0.7218 0.52462 0.62636 0.0
C1434 C 0.74115 0.47972 0.69452 0.0
C1435 C 0.75106 0.45624 0.67843 0.0
C1436 C 0.72875 0.50128 0.64483 0.0
C1437 C 0.7478 0.45609 0.64551 0.0
C1438 C 0.72559 0.52321 0.59364 0.0
C1439 C 0.71274 0.56891 0.62627 0.0
N1440 N 0.73735 0.47826 0.62977 0.0
N1441 N 0.71494 0.54751 0.64149 0.0
H1442 H 0.3481 0.54137 0.6164 0.0
H1443 H 0.22577 0.68123 0.64703 0.0
H1444 H 0.25907 0.57099 0.56434 0.0
H1445 H 0.32604 0.65733 0.6703 0.0
H1446 H 0.23465 0.64002 0.62132 0.0
H1447 H 0.33677 0.58243 0.64249 0.0
C1448 C 0.32599 0.55646 0.61059 0.0
C1449 C 0.30457 0.55275 0.58796 0.0
C1450 C 0.25464 0.6439 0.63202 0.0
C1451 C 0.29155 0.6 0.61784 0.0
C1452 C 0.2497 0.66748 0.64652 0.0
C1453 C 0.27521 0.67287 0.66097 0.0
C1454 C 0.28523 0.62545 0.63229 0.0
C1455 C 0.30552 0.654 0.66005 0.0
C1456 C 0.31965 0.57997 0.62542 0.0
C1457 C 0.27627 0.57305 0.58157 0.0
N1458 N 0.30963 0.63115 0.64611 0.0
N1459 N 0.27057 0.59589 0.59643 0.0
loop_
_geom_bond_atom_site_label_1
_geom_bond_atom_site_label_2
_geom_bond_distance
_geom_bond_site_symmetry_2
_ccdc_geom_bond_type
Cu0 N1 1.999 . S
Cu0 O6 1.974 . S
Cu0 N11 1.985 1_455 S
Cu0 O20 1.959 1_455 S
N1 Cu0 1.999 . S
N1 C3 1.263 . S
N1 C5 1.389 . S
N2 C3 1.358 . S
N2 C4 1.400 . S
C3 N1 1.263 . S
C3 N2 1.358 . S
C3 H9 0.930 . S
C4 N2 1.400 . S
C4 C5 1.351 . S
C4 H21 0.930 . S
C5 N1 1.389 . S
C5 C4 1.351 . S
C5 H10 0.930 . S
O6 Cu0 1.974 . S
O6 C16 1.282 . S
C7 O8 1.261 . S
C7 O20 1.251 . S
O8 C7 1.261 . S
H9 C3 0.930 . S
H10 C5 0.930 . S
N11 Cu0 1.985 1_655 S
N11 C13 1.335 . S
N11 C14 1.391 . S
N12 C13 1.345 . S
N12 C15 1.347 . S
C13 N11 1.335 . S
C13 N12 1.345 . S
C13 H18 0.930 . S
C14 N11 1.391 . S
C14 C15 1.375 . S
C14 H19 0.919 1_655 S
C15 N12 1.347 . S
C15 C14 1.375 . S
C15 H22 0.907 1_545 S
C16 O6 1.282 . S
C16 O17 1.216 . S
O17 C16 1.216 . S
H18 C13 0.930 . S
H19 C14 0.919 1_455 S
O20 Cu0 1.959 1_655 S
O20 C7 1.251 . S
H21 C4 0.930 . S
H22 C15 0.907 1_565 S
Cu23 N24 1.999 1_455 S
Cu23 O29 1.974 1_455 S
Cu23 N34 1.985 . S
Cu23 O43 1.959 . S
N24 Cu23 1.999 1_655 S
N24 C26 1.263 . S
N24 C28 1.389 . S
N25 C26 1.358 . S
N25 C27 1.400 1_545 S
C26 N24 1.263 . S
C26 N25 1.358 . S
C26 H32 0.930 . S
C27 N25 1.400 1_565 S
C27 C28 1.351 1_565 S
C27 H44 0.930 . S
C28 N24 1.389 . S
C28 C27 1.351 1_545 S
C28 H33 0.930 1_645 S
O29 Cu23 1.974 1_655 S
O29 C39 1.282 . S
C30 O31 1.261 . S
C30 O43 1.251 . S
O31 C30 1.261 . S
H32 C26 0.930 . S
H33 C28 0.930 1_465 S
N34 Cu23 1.985 . S
N34 C36 1.335 . S
N34 C37 1.390 . S
N35 C36 1.345 . S
N35 C38 1.336 . S
C36 N34 1.335 . S
C36 N35 1.345 . S
C36 H41 0.930 . S
C37 N34 1.390 . S
C37 C38 1.346 . S
C37 H42 0.907 1_455 S
C38 N35 1.336 . S
C38 C37 1.346 . S
C38 H45 0.929 . S
C39 O29 1.282 . S
C39 O40 1.216 . S
O40 C39 1.216 . S
H41 C36 0.930 . S
H42 C37 0.907 1_655 S
O43 Cu23 1.959 . S
O43 C30 1.251 . S
H44 C27 0.930 . S
H45 C38 0.929 . S
Cu46 N47 1.999 1_554 S
Cu46 O52 1.974 . S
Cu46 N57 1.985 . S
Cu46 O66 1.959 1_554 S
N47 Cu46 1.999 1_556 S
N47 C49 1.263 . S
N47 C51 1.389 . S
N48 C49 1.358 . S
N48 C50 1.400 . S
C49 N47 1.263 . S
C49 N48 1.358 . S
C49 H55 0.920 1_556 S
C50 N48 1.400 . S
C50 C51 1.351 . S
C50 H67 0.930 . S
C51 N47 1.389 . S
C51 C50 1.351 . S
C51 H56 0.930 . S
O52 Cu46 1.974 . S
O52 C62 1.282 . S
C53 O54 1.261 . S
C53 O66 1.251 . S
O54 C53 1.261 . S
H55 C49 0.920 1_554 S
H56 C51 0.930 . S
N57 Cu46 1.985 . S
N57 C59 1.335 . S
N57 C60 1.390 . S
N58 C59 1.345 . S
N58 C61 1.336 . S
C59 N57 1.335 . S
C59 N58 1.345 . S
C59 H64 0.930 . S
C60 N57 1.390 . S
C60 C61 1.346 . S
C60 H65 0.930 . S
C61 N58 1.336 . S
C61 C60 1.346 . S
C61 H68 0.929 . S
C62 O52 1.282 . S
C62 O63 1.216 . S
O63 C62 1.216 . S
H64 C59 0.930 . S
H65 C60 0.930 . S
O66 Cu46 1.959 1_556 S
O66 C53 1.251 . S
H67 C50 0.930 . S
H68 C61 0.929 . S
Cu69 N70 1.999 1_554 S
Cu69 O75 1.974 . S
Cu69 N80 1.985 1_455 S
Cu69 O89 1.959 1_454 S
N70 Cu69 1.999 1_556 S
N70 C72 1.263 . S
N70 C74 1.389 . S
N71 C72 1.358 . S
N71 C73 1.400 . S
C72 N70 1.263 . S
C72 N71 1.358 . S
C72 H78 0.930 . S
C73 N71 1.400 . S
C73 C74 1.351 . S
C73 H90 0.930 . S
C74 N70 1.389 . S
C74 C73 1.351 . S
C74 H79 0.930 . S
O75 Cu69 1.974 . S
O75 C85 1.282 . S
C76 O77 1.261 . S
C76 O89 1.251 . S
O77 C76 1.261 . S
H78 C72 0.930 . S
H79 C74 0.930 . S
N80 Cu69 1.985 1_655 S
N80 C82 1.335 . S
N80 C83 1.390 . S
N81 C82 1.345 . S
N81 C84 1.336 . S
C82 N80 1.335 . S
C82 N81 1.345 . S
C82 H87 0.930 . S
C83 N80 1.390 . S
C83 C84 1.346 . S
C83 H88 0.930 1_655 S
C84 N81 1.336 . S
C84 C83 1.346 . S
C84 H91 0.929 . S
C85 O75 1.282 . S
C85 O86 1.216 . S
O86 C85 1.216 . S
H87 C82 0.930 . S
H88 C83 0.930 1_455 S
O89 Cu69 1.959 1_656 S
O89 C76 1.251 . S
H90 C73 0.930 . S
H91 C84 0.929 . S
Cu92 N93 1.999 1_554 S
Cu92 O98 1.974 . S
Cu92 N103 1.985 1_545 S
Cu92 O112 1.959 1_544 S
N93 Cu92 1.999 1_556 S
N93 C95 1.263 . S
N93 C97 1.389 . S
N94 C95 1.358 . S
N94 C96 1.400 . S
C95 N93 1.263 . S
C95 N94 1.358 . S
C95 H101 0.930 . S
C96 N94 1.400 . S
C96 C97 1.351 . S
C96 H113 0.930 . S
C97 N93 1.389 . S
C97 C96 1.351 . S
C97 H102 0.930 . S
O98 Cu92 1.974 . S
O98 C108 1.282 . S
C99 O100 1.261 . S
C99 O112 1.251 . S
O100 C99 1.261 . S
H101 C95 0.930 . S
H102 C97 0.930 . S
N103 Cu92 1.985 1_565 S
N103 C105 1.335 . S
N103 C106 1.390 . S
N104 C105 1.345 . S
N104 C107 1.336 . S
C105 N103 1.335 . S
C105 N104 1.345 . S
C105 H110 0.930 . S
C106 N103 1.390 . S
C106 C107 1.346 . S
C106 H111 0.930 . S
C107 N104 1.336 . S
C107 C106 1.346 . S
C107 H114 0.929 . S
C108 O98 1.282 . S
C108 O109 1.216 . S
O109 C108 1.216 . S
H110 C105 0.930 . S
H111 C106 0.930 . S
O112 Cu92 1.959 1_566 S
O112 C99 1.251 . S
H113 C96 0.930 . S
H114 C107 0.929 . S
Cu115 N116 1.999 1_454 S
Cu115 O121 1.974 1_455 S
Cu115 N126 1.985 . S
Cu115 O135 1.959 1_554 S
N116 Cu115 1.999 1_656 S
N116 C118 1.263 . S
N116 C120 1.389 . S
N117 C118 1.358 . S
N117 C119 1.400 . S
C118 N116 1.263 . S
C118 N117 1.358 . S
C118 H124 0.930 . S
C119 N117 1.400 . S
C119 C120 1.351 . S
C119 H136 0.930 . S
C120 N116 1.389 . S
C120 C119 1.351 . S
C120 H125 0.930 1_655 S
O121 Cu115 1.974 1_655 S
O121 C131 1.282 . S
C122 O123 1.261 . S
C122 O135 1.251 . S
O123 C122 1.261 . S
H124 C118 0.930 . S
H125 C120 0.930 1_455 S
N126 Cu115 1.985 . S
N126 C128 1.335 . S
N126 C129 1.390 . S
N127 C128 1.345 . S
N127 C130 1.336 . S
C128 N126 1.335 . S
C128 N127 1.345 . S
C128 H133 0.930 . S
C129 N126 1.390 . S
C129 C130 1.346 . S
C129 H134 0.930 . S
C130 N127 1.336 . S
C130 C129 1.346 . S
C130 H137 0.929 . S
C131 O121 1.282 . S
C131 O132 1.216 . S
O132 C131 1.216 . S
H133 C128 0.930 . S
H134 C129 0.930 . S
O135 Cu115 1.959 1_556 S
O135 C122 1.251 . S
H136 C119 0.930 . S
H137 C130 0.929 . S
Cu138 N139 1.999 . S
Cu138 O144 1.974 . S
Cu138 N149 1.985 . S
Cu138 O158 1.959 . S
N139 Cu138 1.999 . S
N139 C141 1.263 . S
N139 C143 1.389 . S
N140 C141 1.358 . S
N140 C142 1.400 . S
C141 N139 1.263 . S
C141 N140 1.358 . S
C141 H147 0.930 . S
C142 N140 1.400 . S
C142 C143 1.351 . S
C142 H159 0.930 . S
C143 N139 1.389 . S
C143 C142 1.351 . S
C143 H148 0.930 . S
O144 Cu138 1.974 . S
O144 C154 1.282 . S
C145 O146 1.261 . S
C145 O158 1.251 . S
O146 C145 1.261 . S
H147 C141 0.930 . S
H148 C143 0.930 . S
N149 Cu138 1.985 . S
N149 C151 1.335 . S
N149 C152 1.390 . S
N150 C151 1.345 . S
N150 C153 1.336 . S
C151 N149 1.335 . S
C151 N150 1.345 . S
C151 H156 0.930 . S
C152 N149 1.390 . S
C152 C153 1.346 . S
C152 H157 0.930 . S
C153 N150 1.336 . S
C153 C152 1.346 . S
C153 H160 0.929 . S
C154 O144 1.282 . S
C154 O155 1.216 . S
O155 C154 1.216 . S
H156 C151 0.930 . S
H157 C152 0.930 . S
O158 Cu138 1.959 . S
O158 C145 1.251 . S
H159 C142 0.930 . S
H160 C153 0.929 . S
Cu161 N162 1.999 . S
Cu161 O167 1.974 . S
Cu161 N172 1.985 . S
Cu161 O181 1.959 . S
N162 Cu161 1.999 . S
N162 C164 1.263 . S
N162 C166 1.389 . S
N163 C164 1.358 . S
N163 C165 1.400 . S
C164 N162 1.263 . S
C164 N163 1.358 . S
C164 H170 0.930 . S
C165 N163 1.400 . S
C165 C166 1.351 . S
C165 H182 0.930 . S
C166 N162 1.389 . S
C166 C165 1.351 . S
C166 H171 0.930 . S
O167 Cu161 1.974 . S
O167 C177 1.282 . S
C168 O169 1.261 . S
C168 O181 1.251 . S
O169 C168 1.261 . S
H170 C164 0.930 . S
H171 C166 0.930 . S
N172 Cu161 1.985 . S
N172 C174 1.335 . S
N172 C175 1.390 . S
N173 C174 1.345 . S
N173 C176 1.336 . S
C174 N172 1.335 . S
C174 N173 1.345 . S
C174 H179 0.930 . S
C175 N172 1.390 . S
C175 C176 1.346 . S
C175 H180 0.930 . S
C176 N173 1.336 . S
C176 C175 1.346 . S
C176 H183 0.929 . S
C177 O167 1.282 . S
C177 O178 1.216 . S
O178 C177 1.216 . S
H179 C174 0.930 . S
H180 C175 0.930 . S
O181 Cu161 1.959 . S
O181 C168 1.251 . S
H182 C165 0.930 . S
H183 C176 0.929 . S
Cu184 N185 1.999 . S
Cu184 O190 1.974 . S
Cu184 N195 1.985 . S
Cu184 O204 1.959 . S
N185 Cu184 1.999 . S
N185 C187 1.263 . S
N185 C189 1.389 . S
N186 C187 1.358 . S
N186 C188 1.400 . S
C187 N185 1.263 . S
C187 N186 1.358 . S
C187 H193 0.930 . S
C188 N186 1.400 . S
C188 C189 1.351 . S
C188 H205 0.930 . S
C189 N185 1.389 . S
C189 C188 1.351 . S
C189 H194 0.930 . S
O190 Cu184 1.974 . S
O190 C200 1.282 . S
C191 O192 1.261 . S
C191 O204 1.251 . S
O192 C191 1.261 . S
H193 C187 0.930 . S
H194 C189 0.930 . S
N195 Cu184 1.985 . S
N195 C197 1.335 . S
N195 C198 1.390 . S
N196 C197 1.345 . S
N196 C199 1.336 . S
C197 N195 1.335 . S
C197 N196 1.345 . S
C197 H202 0.930 . S
C198 N195 1.390 . S
C198 C199 1.346 . S
C198 H203 0.930 . S
C199 N196 1.336 . S
C199 C198 1.346 . S
C199 H206 0.929 . S
C200 O190 1.282 . S
C200 O201 1.216 . S
O201 C200 1.216 . S
H202 C197 0.930 . S
H203 C198 0.930 . S
O204 Cu184 1.959 . S
O204 C191 1.251 . S
H205 C188 0.930 . S
H206 C199 0.929 . S
Cu207 N208 1.999 . S
Cu207 O213 1.974 . S
Cu207 N218 1.985 . S
Cu207 O227 1.959 . S
N208 Cu207 1.999 . S
N208 C210 1.263 . S
N208 C212 1.389 . S
N209 C210 1.358 . S
N209 C211 1.400 . S
C210 N208 1.263 . S
C210 N209 1.358 . S
C210 H216 0.930 . S
C211 N209 1.400 . S
C211 C212 1.351 . S
C211 H228 0.930 . S
C212 N208 1.389 . S
C212 C211 1.351 . S
C212 H217 0.930 . S
O213 Cu207 1.974 . S
O213 C223 1.282 . S
C214 O215 1.261 . S
C214 O227 1.251 . S
O215 C214 1.261 . S
H216 C210 0.930 . S
H217 C212 0.930 . S
N218 Cu207 1.985 . S
N218 C220 1.335 . S
N218 C221 1.390 . S
N219 C220 1.345 . S
N219 C222 1.336 . S
C220 N218 1.335 . S
C220 N219 1.345 . S
C220 H225 0.930 . S
C221 N218 1.390 . S
C221 C222 1.346 . S
C221 H226 0.930 . S
C222 N219 1.336 . S
C222 C221 1.346 . S
C222 H229 0.929 . S
C223 O213 1.282 . S
C223 O224 1.216 . S
O224 C223 1.216 . S
H225 C220 0.930 . S
H226 C221 0.930 . S
O227 Cu207 1.959 . S
O227 C214 1.251 . S
H228 C211 0.930 . S
H229 C222 0.929 . S
Cu230 N231 1.999 . S
Cu230 O236 1.974 . S
Cu230 N241 1.985 . S
Cu230 O250 1.959 . S
N231 Cu230 1.999 . S
N231 C233 1.263 . S
N231 C235 1.389 . S
N232 C233 1.358 . S
N232 C234 1.400 . S
C233 N231 1.263 . S
C233 N232 1.358 . S
C233 H239 0.930 . S
C234 N232 1.400 . S
C234 C235 1.351 . S
C234 H251 0.930 . S
C235 N231 1.389 . S
C235 C234 1.351 . S
C235 H240 0.930 . S
O236 Cu230 1.974 . S
O236 C246 1.282 . S
C237 O238 1.261 . S
C237 O250 1.251 . S
O238 C237 1.261 . S
H239 C233 0.930 . S
H240 C235 0.930 . S
N241 Cu230 1.985 . S
N241 C243 1.335 . S
N241 C244 1.390 . S
N242 C243 1.345 . S
N242 C245 1.336 . S
C243 N241 1.335 . S
C243 N242 1.345 . S
C243 H248 0.930 . S
C244 N241 1.390 . S
C244 C245 1.346 . S
C244 H249 0.930 . S
C245 N242 1.336 . S
C245 C244 1.346 . S
C245 H252 0.929 . S
C246 O236 1.282 . S
C246 O247 1.216 . S
O247 C246 1.216 . S
H248 C243 0.930 . S
H249 C244 0.930 . S
O250 Cu230 1.959 . S
O250 C237 1.251 . S
H251 C234 0.930 . S
H252 C245 0.929 . S
Cu253 N254 1.999 . S
Cu253 O259 1.974 . S
Cu253 N264 1.985 . S
Cu253 O273 1.959 . S
N254 Cu253 1.999 . S
N254 C256 1.263 . S
N254 C258 1.389 . S
N255 C256 1.358 . S
N255 C257 1.400 . S
C256 N254 1.263 . S
C256 N255 1.358 . S
C256 H262 0.930 . S
C257 N255 1.400 . S
C257 C258 1.351 . S
C257 H274 0.930 . S
C258 N254 1.389 . S
C258 C257 1.351 . S
C258 H263 0.930 . S
O259 Cu253 1.974 . S
O259 C269 1.282 . S
C260 O261 1.261 . S
C260 O273 1.251 . S
O261 C260 1.261 . S
H262 C256 0.930 . S
H263 C258 0.930 . S
N264 Cu253 1.985 . S
N264 C266 1.335 . S
N264 C267 1.390 . S
N265 C266 1.345 . S
N265 C268 1.336 . S
C266 N264 1.335 . S
C266 N265 1.345 . S
C266 H271 0.930 . S
C267 N264 1.390 . S
C267 C268 1.346 . S
C267 H272 0.930 . S
C268 N265 1.336 . S
C268 C267 1.346 . S
C268 H275 0.929 . S
C269 O259 1.282 . S
C269 O270 1.216 . S
O270 C269 1.216 . S
H271 C266 0.930 . S
H272 C267 0.930 . S
O273 Cu253 1.959 . S
O273 C260 1.251 . S
H274 C257 0.930 . S
H275 C268 0.929 . S
Tb276 C278 2.809 . S
Tb276 O296 2.484 . S
Tb276 O297 2.440 . S
Tb276 O298 2.658 . S
Tb276 O299 2.409 . S
Tb276 O300 2.378 . S
Tb276 O304 2.325 . S
Tb276 O307 2.341 . S
Tb277 C287 2.809 . S
Tb277 O298 2.325 . S
Tb277 O301 2.341 . S
Tb277 O302 2.484 . S
Tb277 O303 2.440 . S
Tb277 O304 2.658 . S
Tb277 O305 2.409 . S
Tb277 O306 2.378 . S
C278 Tb276 2.809 . S
C278 C279 1.514 . S
C278 O296 1.248 . S
C278 O297 1.266 . S
C279 C278 1.514 . S
C279 C280 1.359 . S
C279 C284 1.348 . S
C280 C279 1.359 . S
C280 C281 1.380 . S
C280 H308 0.929 . S
C281 C280 1.380 . S
C281 C282 1.347 . S
C281 H309 0.931 . S
C282 C281 1.347 . S
C282 C283 1.369 . S
C283 C282 1.369 . S
C283 C284 1.408 . S
C283 H310 0.930 . S
C284 C279 1.348 . S
C284 C283 1.408 . S
C284 H311 0.930 . S
C285 O298 1.281 . S
C285 O299 1.254 . S
C286 O300 1.236 . S
C286 O301 1.266 . S
C287 Tb277 2.809 . S
C287 C288 1.514 . S
C287 O302 1.248 . S
C287 O303 1.266 . S
C288 C287 1.514 . S
C288 C289 1.359 . S
C288 C293 1.348 . S
C289 C288 1.359 . S
C289 C290 1.380 . S
C289 H312 0.929 . S
C290 C289 1.380 . S
C290 C291 1.347 . S
C290 H313 0.931 . S
C291 C290 1.347 . S
C291 C292 1.369 . S
C292 C291 1.369 . S
C292 C293 1.408 . S
C292 H314 0.930 . S
C293 C288 1.348 . S
C293 C292 1.408 . S
C293 H315 0.930 . S
C294 O304 1.281 . S
C294 O305 1.254 . S
C295 O306 1.236 . S
C295 O307 1.266 . S
O296 Tb276 2.484 . S
O296 C278 1.248 . S
O297 Tb276 2.440 . S
O297 C278 1.266 . S
O298 Tb276 2.658 . S
O298 Tb277 2.325 . S
O298 C285 1.281 . S
O299 Tb276 2.409 . S
O299 C285 1.254 . S
O300 Tb276 2.378 . S
O300 C286 1.236 . S
O301 Tb277 2.341 . S
O301 C286 1.266 . S
O302 Tb277 2.484 . S
O302 C287 1.248 . S
O303 Tb277 2.440 . S
O303 C287 1.266 . S
O304 Tb276 2.325 . S
O304 Tb277 2.658 . S
O304 C294 1.281 . S
O305 Tb277 2.409 . S
O305 C294 1.254 . S
O306 Tb277 2.378 . S
O306 C295 1.236 . S
O307 Tb276 2.341 . S
O307 C295 1.266 . S
H308 C280 0.929 . S
H309 C281 0.931 . S
H310 C283 0.930 . S
H311 C284 0.930 . S
H312 C289 0.929 . S
H313 C290 0.931 . S
H314 C292 0.930 . S
H315 C293 0.930 . S
Tb316 C318 2.809 . S
Tb316 O336 2.484 . S
Tb316 O337 2.440 . S
Tb316 O338 2.658 . S
Tb316 O339 2.409 . S
Tb316 O340 2.378 . S
Tb316 O344 2.325 . S
Tb316 O347 2.341 . S
Tb317 C327 2.809 . S
Tb317 O338 2.325 . S
Tb317 O341 2.341 . S
Tb317 O342 2.484 . S
Tb317 O343 2.440 . S
Tb317 O344 2.658 . S
Tb317 O345 2.409 . S
Tb317 O346 2.378 . S
C318 Tb316 2.809 . S
C318 C319 1.514 . S
C318 O336 1.248 . S
C318 O337 1.266 . S
C319 C318 1.514 . S
C319 C320 1.359 . S
C319 C324 1.348 . S
C320 C319 1.359 . S
C320 C321 1.380 . S
C320 H348 0.929 . S
C321 C320 1.380 . S
C321 C322 1.347 . S
C321 H349 0.931 . S
C322 C321 1.347 . S
C322 C323 1.369 . S
C323 C322 1.369 . S
C323 C324 1.408 . S
C323 H350 0.930 . S
C324 C319 1.348 . S
C324 C323 1.408 . S
C324 H351 0.930 . S
C325 O338 1.281 . S
C325 O339 1.254 . S
C326 O340 1.236 . S
C326 O341 1.266 . S
C327 Tb317 2.809 . S
C327 C328 1.514 . S
C327 O342 1.248 . S
C327 O343 1.266 . S
C328 C327 1.514 . S
C328 C329 1.359 . S
C328 C333 1.348 . S
C329 C328 1.359 . S
C329 C330 1.380 . S
C329 H352 0.929 . S
C330 C329 1.380 . S
C330 C331 1.347 . S
C330 H353 0.931 . S
C331 C330 1.347 . S
C331 C332 1.369 . S
C332 C331 1.369 . S
C332 C333 1.408 . S
C332 H354 0.930 . S
C333 C328 1.348 . S
C333 C332 1.408 . S
C333 H355 0.930 . S
C334 O344 1.281 . S
C334 O345 1.254 . S
C335 O346 1.236 . S
C335 O347 1.266 . S
O336 Tb316 2.484 . S
O336 C318 1.248 . S
O337 Tb316 2.440 . S
O337 C318 1.266 . S
O338 Tb316 2.658 . S
O338 Tb317 2.325 . S
O338 C325 1.281 . S
O339 Tb316 2.409 . S
O339 C325 1.254 . S
O340 Tb316 2.378 . S
O340 C326 1.236 . S
O341 Tb317 2.341 . S
O341 C326 1.266 . S
O342 Tb317 2.484 . S
O342 C327 1.248 . S
O343 Tb317 2.440 . S
O343 C327 1.266 . S
O344 Tb316 2.325 . S
O344 Tb317 2.658 . S
O344 C334 1.281 . S
O345 Tb317 2.409 . S
O345 C334 1.254 . S
O346 Tb317 2.378 . S
O346 C335 1.236 . S
O347 Tb316 2.341 . S
O347 C335 1.266 . S
H348 C320 0.929 . S
H349 C321 0.931 . S
H350 C323 0.930 . S
H351 C324 0.930 . S
H352 C329 0.929 . S
H353 C330 0.931 . S
H354 C332 0.930 . S
H355 C333 0.930 . S
Tb356 C358 2.809 . S
Tb356 O376 2.484 . S
Tb356 O377 2.440 . S
Tb356 O378 2.658 . S
Tb356 O379 2.409 . S
Tb356 O380 2.378 . S
Tb356 O384 2.325 . S
Tb356 O387 2.341 . S
Tb357 C367 2.809 . S
Tb357 O378 2.325 . S
Tb357 O381 2.341 . S
Tb357 O382 2.484 . S
Tb357 O383 2.440 . S
Tb357 O384 2.658 . S
Tb357 O385 2.409 . S
Tb357 O386 2.378 . S
C358 Tb356 2.809 . S
C358 C359 1.514 . S
C358 O376 1.248 . S
C358 O377 1.266 . S
C359 C358 1.514 . S
C359 C360 1.359 . S
C359 C364 1.348 . S
C360 C359 1.359 . S
C360 C361 1.380 . S
C360 H388 0.929 . S
C361 C360 1.380 . S
C361 C362 1.347 . S
C361 H389 0.931 . S
C362 C361 1.347 . S
C362 C363 1.369 . S
C363 C362 1.369 . S
C363 C364 1.408 . S
C363 H390 0.930 . S
C364 C359 1.348 . S
C364 C363 1.408 . S
C364 H391 0.930 . S
C365 O378 1.281 . S
C365 O379 1.254 . S
C366 O380 1.236 . S
C366 O381 1.266 . S
C367 Tb357 2.809 . S
C367 C368 1.514 . S
C367 O382 1.248 . S
C367 O383 1.266 . S
C368 C367 1.514 . S
C368 C369 1.359 . S
C368 C373 1.348 . S
C369 C368 1.359 . S
C369 C370 1.380 . S
C369 H392 0.929 . S
C370 C369 1.380 . S
C370 C371 1.347 . S
C370 H393 0.931 . S
C371 C370 1.347 . S
C371 C372 1.369 . S
C372 C371 1.369 . S
C372 C373 1.408 . S
C372 H394 0.930 . S
C373 C368 1.348 . S
C373 C372 1.408 . S
C373 H395 0.930 . S
C374 O384 1.281 . S
C374 O385 1.254 . S
C375 O386 1.236 . S
C375 O387 1.266 . S
O376 Tb356 2.484 . S
O376 C358 1.248 . S
O377 Tb356 2.440 . S
O377 C358 1.266 . S
O378 Tb356 2.658 . S
O378 Tb357 2.325 . S
O378 C365 1.281 . S
O379 Tb356 2.409 . S
O379 C365 1.254 . S
O380 Tb356 2.378 . S
O380 C366 1.236 . S
O381 Tb357 2.341 . S
O381 C366 1.266 . S
O382 Tb357 2.484 . S
O382 C367 1.248 . S
O383 Tb357 2.440 . S
O383 C367 1.266 . S
O384 Tb356 2.325 . S
O384 Tb357 2.658 . S
O384 C374 1.281 . S
O385 Tb357 2.409 . S
O385 C374 1.254 . S
O386 Tb357 2.378 . S
O386 C375 1.236 . S
O387 Tb356 2.341 . S
O387 C375 1.266 . S
H388 C360 0.929 . S
H389 C361 0.931 . S
H390 C363 0.930 . S
H391 C364 0.930 . S
H392 C369 0.929 . S
H393 C370 0.931 . S
H394 C372 0.930 . S
H395 C373 0.930 . S
Tb396 C398 2.809 . S
Tb396 O416 2.484 . S
Tb396 O417 2.440 . S
Tb396 O418 2.658 . S
Tb396 O419 2.409 . S
Tb396 O420 2.378 . S
Tb396 O424 2.325 . S
Tb396 O427 2.341 . S
Tb397 C407 2.809 . S
Tb397 O418 2.325 . S
Tb397 O421 2.341 . S
Tb397 O422 2.484 . S
Tb397 O423 2.440 . S
Tb397 O424 2.658 . S
Tb397 O425 2.409 . S
Tb397 O426 2.378 . S
C398 Tb396 2.809 . S
C398 C399 1.514 . S
C398 O416 1.248 . S
C398 O417 1.266 . S
C399 C398 1.514 . S
C399 C400 1.359 . S
C399 C404 1.348 . S
C400 C399 1.359 . S
C400 C401 1.380 . S
C400 H428 0.929 . S
C401 C400 1.380 . S
C401 C402 1.347 . S
C401 H429 0.931 . S
C402 C401 1.347 . S
C402 C403 1.369 . S
C403 C402 1.369 . S
C403 C404 1.408 . S
C403 H430 0.930 . S
C404 C399 1.348 . S
C404 C403 1.408 . S
C404 H431 0.930 . S
C405 O418 1.281 . S
C405 O419 1.254 . S
C406 O420 1.236 . S
C406 O421 1.266 . S
C407 Tb397 2.809 . S
C407 C408 1.514 . S
C407 O422 1.248 . S
C407 O423 1.266 . S
C408 C407 1.514 . S
C408 C409 1.359 . S
C408 C413 1.348 . S
C409 C408 1.359 . S
C409 C410 1.380 . S
C409 H432 0.929 . S
C410 C409 1.380 . S
C410 C411 1.347 . S
C410 H433 0.931 . S
C411 C410 1.347 . S
C411 C412 1.369 . S
C412 C411 1.369 . S
C412 C413 1.408 . S
C412 H434 0.930 . S
C413 C408 1.348 . S
C413 C412 1.408 . S
C413 H435 0.930 . S
C414 O424 1.281 . S
C414 O425 1.254 . S
C415 O426 1.236 . S
C415 O427 1.266 . S
O416 Tb396 2.484 . S
O416 C398 1.248 . S
O417 Tb396 2.440 . S
O417 C398 1.266 . S
O418 Tb396 2.658 . S
O418 Tb397 2.325 . S
O418 C405 1.281 . S
O419 Tb396 2.409 . S
O419 C405 1.254 . S
O420 Tb396 2.378 . S
O420 C406 1.236 . S
O421 Tb397 2.341 . S
O421 C406 1.266 . S
O422 Tb397 2.484 . S
O422 C407 1.248 . S
O423 Tb397 2.440 . S
O423 C407 1.266 . S
O424 Tb396 2.325 . S
O424 Tb397 2.658 . S
O424 C414 1.281 . S
O425 Tb397 2.409 . S
O425 C414 1.254 . S
O426 Tb397 2.378 . S
O426 C415 1.236 . S
O427 Tb396 2.341 . S
O427 C415 1.266 . S
H428 C400 0.929 . S
H429 C401 0.931 . S
H430 C403 0.930 . S
H431 C404 0.930 . S
H432 C409 0.929 . S
H433 C410 0.931 . S
H434 C412 0.930 . S
H435 C413 0.930 . S
Tb436 C438 2.809 . S
Tb436 O456 2.484 . S
Tb436 O457 2.440 . S
Tb436 O458 2.658 . S
Tb436 O459 2.409 . S
Tb436 O460 2.378 . S
Tb436 O464 2.325 . S
Tb436 O467 2.341 . S
Tb437 C447 2.809 . S
Tb437 O458 2.325 . S
Tb437 O461 2.341 . S
Tb437 O462 2.484 . S
Tb437 O463 2.440 . S
Tb437 O464 2.658 . S
Tb437 O465 2.409 . S
Tb437 O466 2.378 . S
C438 Tb436 2.809 . S
C438 C439 1.514 . S
C438 O456 1.248 . S
C438 O457 1.266 . S
C439 C438 1.514 . S
C439 C440 1.359 . S
C439 C444 1.348 . S
C440 C439 1.359 . S
C440 C441 1.380 . S
C440 H468 0.929 . S
C441 C440 1.380 . S
C441 C442 1.347 . S
C441 H469 0.931 . S
C442 C441 1.347 . S
C442 C443 1.369 . S
C443 C442 1.369 . S
C443 C444 1.408 . S
C443 H470 0.930 . S
C444 C439 1.348 . S
C444 C443 1.408 . S
C444 H471 0.930 . S
C445 O458 1.281 . S
C445 O459 1.254 . S
C446 O460 1.236 . S
C446 O461 1.266 . S
C447 Tb437 2.809 . S
C447 C448 1.514 . S
C447 O462 1.248 . S
C447 O463 1.266 . S
C448 C447 1.514 . S
C448 C449 1.359 . S
C448 C453 1.348 . S
C449 C448 1.359 . S
C449 C450 1.380 . S
C449 H472 0.929 . S
C450 C449 1.380 . S
C450 C451 1.347 . S
C450 H473 0.931 . S
C451 C450 1.347 . S
C451 C452 1.369 . S
C452 C451 1.369 . S
C452 C453 1.408 . S
C452 H474 0.930 . S
C453 C448 1.348 . S
C453 C452 1.408 . S
C453 H475 0.930 . S
C454 O464 1.281 . S
C454 O465 1.254 . S
C455 O466 1.236 . S
C455 O467 1.266 . S
O456 Tb436 2.484 . S
O456 C438 1.248 . S
O457 Tb436 2.440 . S
O457 C438 1.266 . S
O458 Tb436 2.658 . S
O458 Tb437 2.325 . S
O458 C445 1.281 . S
O459 Tb436 2.409 . S
O459 C445 1.254 . S
O460 Tb436 2.378 . S
O460 C446 1.236 . S
O461 Tb437 2.341 . S
O461 C446 1.266 . S
O462 Tb437 2.484 . S
O462 C447 1.248 . S
O463 Tb437 2.440 . S
O463 C447 1.266 . S
O464 Tb436 2.325 . S
O464 Tb437 2.658 . S
O464 C454 1.281 . S
O465 Tb437 2.409 . S
O465 C454 1.254 . S
O466 Tb437 2.378 . S
O466 C455 1.236 . S
O467 Tb436 2.341 . S
O467 C455 1.266 . S
H468 C440 0.929 . S
H469 C441 0.931 . S
H470 C443 0.930 . S
H471 C444 0.930 . S
H472 C449 0.929 . S
H473 C450 0.931 . S
H474 C452 0.930 . S
H475 C453 0.930 . S
Tb476 C478 2.809 . S
Tb476 O496 2.484 . S
Tb476 O497 2.440 . S
Tb476 O498 2.658 . S
Tb476 O499 2.409 . S
Tb476 O500 2.378 . S
Tb476 O504 2.325 . S
Tb476 O507 2.341 . S
Tb477 C487 2.809 . S
Tb477 O498 2.325 . S
Tb477 O501 2.341 . S
Tb477 O502 2.484 . S
Tb477 O503 2.440 . S
Tb477 O504 2.658 . S
Tb477 O505 2.409 . S
Tb477 O506 2.378 . S
C478 Tb476 2.809 . S
C478 C479 1.514 . S
C478 O496 1.248 . S
C478 O497 1.266 . S
C479 C478 1.514 . S
C479 C480 1.359 . S
C479 C484 1.348 . S
C480 C479 1.359 . S
C480 C481 1.380 . S
C480 H508 0.929 . S
C481 C480 1.380 . S
C481 C482 1.347 . S
C481 H509 0.931 . S
C482 C481 1.347 . S
C482 C483 1.369 . S
C483 C482 1.369 . S
C483 C484 1.408 . S
C483 H510 0.930 . S
C484 C479 1.348 . S
C484 C483 1.408 . S
C484 H511 0.930 . S
C485 O498 1.281 . S
C485 O499 1.254 . S
C486 O500 1.236 . S
C486 O501 1.266 . S
C487 Tb477 2.809 . S
C487 C488 1.514 . S
C487 O502 1.248 . S
C487 O503 1.266 . S
C488 C487 1.514 . S
C488 C489 1.359 . S
C488 C493 1.348 . S
C489 C488 1.359 . S
C489 C490 1.380 . S
C489 H512 0.929 . S
C490 C489 1.380 . S
C490 C491 1.347 . S
C490 H513 0.931 . S
C491 C490 1.347 . S
C491 C492 1.369 . S
C492 C491 1.369 . S
C492 C493 1.408 . S
C492 H514 0.930 . S
C493 C488 1.348 . S
C493 C492 1.408 . S
C493 H515 0.930 . S
C494 O504 1.281 . S
C494 O505 1.254 . S
C495 O506 1.236 . S
C495 O507 1.266 . S
O496 Tb476 2.484 . S
O496 C478 1.248 . S
O497 Tb476 2.440 . S
O497 C478 1.266 . S
O498 Tb476 2.658 . S
O498 Tb477 2.325 . S
O498 C485 1.281 . S
O499 Tb476 2.409 . S
O499 C485 1.254 . S
O500 Tb476 2.378 . S
O500 C486 1.236 . S
O501 Tb477 2.341 . S
O501 C486 1.266 . S
O502 Tb477 2.484 . S
O502 C487 1.248 . S
O503 Tb477 2.440 . S
O503 C487 1.266 . S
O504 Tb476 2.325 . S
O504 Tb477 2.658 . S
O504 C494 1.281 . S
O505 Tb477 2.409 . S
O505 C494 1.254 . S
O506 Tb477 2.378 . S
O506 C495 1.236 . S
O507 Tb476 2.341 . S
O507 C495 1.266 . S
H508 C480 0.929 . S
H509 C481 0.931 . S
H510 C483 0.930 . S
H511 C484 0.930 . S
H512 C489 0.929 . S
H513 C490 0.931 . S
H514 C492 0.930 . S
H515 C493 0.930 . S
Tb516 C518 2.809 . S
Tb516 O536 2.484 . S
Tb516 O537 2.440 . S
Tb516 O538 2.658 . S
Tb516 O539 2.409 . S
Tb516 O540 2.378 . S
Tb516 O544 2.325 . S
Tb516 O547 2.341 . S
Tb517 C527 2.809 . S
Tb517 O538 2.325 . S
Tb517 O541 2.341 . S
Tb517 O542 2.484 . S
Tb517 O543 2.440 . S
Tb517 O544 2.658 . S
Tb517 O545 2.409 . S
Tb517 O546 2.378 . S
C518 Tb516 2.809 . S
C518 C519 1.514 . S
C518 O536 1.248 . S
C518 O537 1.266 . S
C519 C518 1.514 . S
C519 C520 1.359 . S
C519 C524 1.348 . S
C520 C519 1.359 . S
C520 C521 1.380 . S
C520 H548 0.929 . S
C521 C520 1.380 . S
C521 C522 1.347 . S
C521 H549 0.931 . S
C522 C521 1.347 . S
C522 C523 1.369 . S
C523 C522 1.369 . S
C523 C524 1.408 . S
C523 H550 0.930 . S
C524 C519 1.348 . S
C524 C523 1.408 . S
C524 H551 0.930 . S
C525 O538 1.281 . S
C525 O539 1.254 . S
C526 O540 1.236 . S
C526 O541 1.266 . S
C527 Tb517 2.809 . S
C527 C528 1.514 . S
C527 O542 1.248 . S
C527 O543 1.266 . S
C528 C527 1.514 . S
C528 C529 1.359 . S
C528 C533 1.348 . S
C529 C528 1.359 . S
C529 C530 1.380 . S
C529 H552 0.929 . S
C530 C529 1.380 . S
C530 C531 1.347 . S
C530 H553 0.931 . S
C531 C530 1.347 . S
C531 C532 1.369 . S
C532 C531 1.369 . S
C532 C533 1.408 . S
C532 H554 0.930 . S
C533 C528 1.348 . S
C533 C532 1.408 . S
C533 H555 0.930 . S
C534 O544 1.281 . S
C534 O545 1.254 . S
C535 O546 1.236 . S
C535 O547 1.266 . S
O536 Tb516 2.484 . S
O536 C518 1.248 . S
O537 Tb516 2.440 . S
O537 C518 1.266 . S
O538 Tb516 2.658 . S
O538 Tb517 2.325 . S
O538 C525 1.281 . S
O539 Tb516 2.409 . S
O539 C525 1.254 . S
O540 Tb516 2.378 . S
O540 C526 1.236 . S
O541 Tb517 2.341 . S
O541 C526 1.266 . S
O542 Tb517 2.484 . S
O542 C527 1.248 . S
O543 Tb517 2.440 . S
O543 C527 1.266 . S
O544 Tb516 2.325 . S
O544 Tb517 2.658 . S
O544 C534 1.281 . S
O545 Tb517 2.409 . S
O545 C534 1.254 . S
O546 Tb517 2.378 . S
O546 C535 1.236 . S
O547 Tb516 2.341 . S
O547 C535 1.266 . S
H548 C520 0.929 . S
H549 C521 0.931 . S
H550 C523 0.930 . S
H551 C524 0.930 . S
H552 C529 0.929 . S
H553 C530 0.931 . S
H554 C532 0.930 . S
H555 C533 0.930 . S
Tb556 C558 2.809 . S
Tb556 O576 2.484 . S
Tb556 O577 2.440 . S
Tb556 O578 2.658 . S
Tb556 O579 2.409 . S
Tb556 O580 2.378 . S
Tb556 O584 2.325 . S
Tb556 O587 2.341 . S
Tb557 C567 2.809 . S
Tb557 O578 2.325 . S
Tb557 O581 2.341 . S
Tb557 O582 2.484 . S
Tb557 O583 2.440 . S
Tb557 O584 2.658 . S
Tb557 O585 2.409 . S
Tb557 O586 2.378 . S
C558 Tb556 2.809 . S
C558 C559 1.514 . S
C558 O576 1.248 . S
C558 O577 1.266 . S
C559 C558 1.514 . S
C559 C560 1.359 . S
C559 C564 1.348 . S
C560 C559 1.359 . S
C560 C561 1.380 . S
C560 H588 0.929 . S
C561 C560 1.380 . S
C561 C562 1.347 . S
C561 H589 0.931 . S
C562 C561 1.347 . S
C562 C563 1.369 . S
C563 C562 1.369 . S
C563 C564 1.408 . S
C563 H590 0.930 . S
C564 C559 1.348 . S
C564 C563 1.408 . S
C564 H591 0.930 . S
C565 O578 1.281 . S
C565 O579 1.254 . S
C566 O580 1.236 . S
C566 O581 1.266 . S
C567 Tb557 2.809 . S
C567 C568 1.514 . S
C567 O582 1.248 . S
C567 O583 1.266 . S
C568 C567 1.514 . S
C568 C569 1.359 . S
C568 C573 1.348 . S
C569 C568 1.359 . S
C569 C570 1.380 . S
C569 H592 0.929 . S
C570 C569 1.380 . S
C570 C571 1.347 . S
C570 H593 0.931 . S
C571 C570 1.347 . S
C571 C572 1.369 . S
C572 C571 1.369 . S
C572 C573 1.408 . S
C572 H594 0.930 . S
C573 C568 1.348 . S
C573 C572 1.408 . S
C573 H595 0.930 . S
C574 O584 1.281 . S
C574 O585 1.254 . S
C575 O586 1.236 . S
C575 O587 1.266 . S
O576 Tb556 2.484 . S
O576 C558 1.248 . S
O577 Tb556 2.440 . S
O577 C558 1.266 . S
O578 Tb556 2.658 . S
O578 Tb557 2.325 . S
O578 C565 1.281 . S
O579 Tb556 2.409 . S
O579 C565 1.254 . S
O580 Tb556 2.378 . S
O580 C566 1.236 . S
O581 Tb557 2.341 . S
O581 C566 1.266 . S
O582 Tb557 2.484 . S
O582 C567 1.248 . S
O583 Tb557 2.440 . S
O583 C567 1.266 . S
O584 Tb556 2.325 . S
O584 Tb557 2.658 . S
O584 C574 1.281 . S
O585 Tb557 2.409 . S
O585 C574 1.254 . S
O586 Tb557 2.378 . S
O586 C575 1.236 . S
O587 Tb556 2.341 . S
O587 C575 1.266 . S
H588 C560 0.929 . S
H589 C561 0.931 . S
H590 C563 0.930 . S
H591 C564 0.930 . S
H592 C569 0.929 . S
H593 C570 0.931 . S
H594 C572 0.930 . S
H595 C573 0.930 . S
H596 C602 0.930 . S
H597 C606 0.930 . S
H598 C611 0.929 . S
H599 C609 0.929 . S
H600 C604 0.929 . S
H601 C610 0.929 . S
C602 H596 0.930 . S
C602 C603 1.367 . S
C602 C610 1.378 . S
C603 C602 1.367 . S
C603 C611 1.433 . S
C604 H600 0.929 . S
C604 C606 1.378 . S
C604 C608 1.350 . S
C605 C608 1.463 . S
C605 C610 1.350 . S
C605 N613 1.427 . S
C606 H597 0.930 . S
C606 C604 1.378 . S
C606 C607 1.367 . S
C607 C606 1.367 . S
C607 C609 1.433 . S
C608 C604 1.350 . S
C608 C605 1.463 . S
C608 N612 1.427 . S
C609 H599 0.929 . S
C609 C607 1.433 . S
C609 N612 1.384 . S
C610 H601 0.929 . S
C610 C602 1.378 . S
C610 C605 1.350 . S
C611 H598 0.929 . S
C611 C603 1.433 . S
C611 N613 1.384 . S
N612 C608 1.427 . S
N612 C609 1.384 . S
N613 C605 1.427 . S
N613 C611 1.384 . S
H614 C620 0.930 . S
H615 C624 0.930 . S
H616 C629 0.929 . S
H617 C627 0.929 . S
H618 C622 0.929 . S
H619 C628 0.929 . S
C620 H614 0.930 . S
C620 C621 1.367 . S
C620 C628 1.378 . S
C621 C620 1.367 . S
C621 C629 1.433 . S
C622 H618 0.929 . S
C622 C624 1.378 . S
C622 C626 1.350 . S
C623 C626 1.463 . S
C623 C628 1.350 . S
C623 N631 1.427 . S
C624 H615 0.930 . S
C624 C622 1.378 . S
C624 C625 1.367 . S
C625 C624 1.367 . S
C625 C627 1.433 . S
C626 C622 1.350 . S
C626 C623 1.463 . S
C626 N630 1.427 . S
C627 H617 0.929 . S
C627 C625 1.433 . S
C627 N630 1.384 . S
C628 H619 0.929 . S
C628 C620 1.378 . S
C628 C623 1.350 . S
C629 H616 0.929 . S
C629 C621 1.433 . S
C629 N631 1.384 . S
N630 C626 1.427 . S
N630 C627 1.384 . S
N631 C623 1.427 . S
N631 C629 1.384 . S
H632 C638 0.930 . S
H633 C642 0.930 . S
H634 C647 0.929 . S
H635 C645 0.929 . S
H636 C640 0.929 . S
H637 C646 0.929 . S
C638 H632 0.930 . S
C638 C639 1.367 1_565 S
C638 C646 1.378 . S
C639 C638 1.367 1_545 S
C639 C647 1.433 . S
C640 H636 0.929 . S
C640 C642 1.378 . S
C640 C644 1.350 . S
C641 C644 1.463 . S
C641 C646 1.350 . S
C641 N649 1.427 . S
C642 H633 0.930 . S
C642 C640 1.378 . S
C642 C643 1.367 . S
C643 C642 1.367 . S
C643 C645 1.433 . S
C644 C640 1.350 . S
C644 C641 1.463 . S
C644 N648 1.427 . S
C645 H635 0.929 . S
C645 C643 1.433 . S
C645 N648 1.384 . S
C646 H637 0.929 . S
C646 C638 1.378 . S
C646 C641 1.350 . S
C647 H634 0.929 . S
C647 C639 1.433 . S
C647 N649 1.384 1_545 S
N648 C644 1.427 . S
N648 C645 1.384 . S
N649 C641 1.427 . S
N649 C647 1.384 1_565 S
H650 C656 0.930 . S
H651 C660 0.930 . S
H652 C665 0.929 1_545 S
H653 C663 0.929 . S
H654 C658 0.929 . S
H655 C664 0.929 . S
C656 H650 0.930 . S
C656 C657 1.367 . S
C656 C664 1.378 . S
C657 C656 1.367 . S
C657 C665 1.433 . S
C658 H654 0.929 . S
C658 C660 1.378 . S
C658 C662 1.350 . S
C659 C662 1.463 . S
C659 C664 1.350 . S
C659 N667 1.427 . S
C660 H651 0.930 . S
C660 C658 1.378 . S
C660 C661 1.367 . S
C661 C660 1.367 . S
C661 C663 1.433 . S
C662 C658 1.350 . S
C662 C659 1.463 . S
C662 N666 1.427 . S
C663 H653 0.929 . S
C663 C661 1.433 . S
C663 N666 1.384 . S
C664 H655 0.929 . S
C664 C656 1.378 . S
C664 C659 1.350 . S
C665 H652 0.929 1_565 S
C665 C657 1.433 . S
C665 N667 1.384 . S
N666 C662 1.427 . S
N666 C663 1.384 . S
N667 C659 1.427 . S
N667 C665 1.384 . S
H668 C674 0.930 . S
H669 C678 0.930 . S
H670 C683 0.929 . S
H671 C681 0.929 . S
H672 C676 0.929 . S
H673 C682 0.929 . S
C674 H668 0.930 . S
C674 C675 1.367 . S
C674 C682 1.378 . S
C675 C674 1.367 . S
C675 C683 1.433 . S
C676 H672 0.929 . S
C676 C678 1.378 . S
C676 C680 1.350 . S
C677 C680 1.463 . S
C677 C682 1.350 . S
C677 N685 1.427 . S
C678 H669 0.930 . S
C678 C676 1.378 . S
C678 C679 1.367 . S
C679 C678 1.367 . S
C679 C681 1.433 . S
C680 C676 1.350 . S
C680 C677 1.463 . S
C680 N684 1.427 . S
C681 H671 0.929 . S
C681 C679 1.433 . S
C681 N684 1.384 . S
C682 H673 0.929 . S
C682 C674 1.378 . S
C682 C677 1.350 . S
C683 H670 0.929 . S
C683 C675 1.433 . S
C683 N685 1.384 . S
N684 C680 1.427 . S
N684 C681 1.384 . S
N685 C677 1.427 . S
N685 C683 1.384 . S
H686 C692 0.930 . S
H687 C696 0.930 . S
H688 C701 0.929 . S
H689 C699 0.929 . S
H690 C694 0.929 . S
H691 C700 0.929 . S
C692 H686 0.930 . S
C692 C693 1.367 . S
C692 C700 1.378 . S
C693 C692 1.367 . S
C693 C701 1.433 . S
C694 H690 0.929 . S
C694 C696 1.378 . S
C694 C698 1.350 . S
C695 C698 1.463 . S
C695 C700 1.350 . S
C695 N703 1.427 . S
C696 H687 0.930 . S
C696 C694 1.378 . S
C696 C697 1.367 . S
C697 C696 1.367 . S
C697 C699 1.433 . S
C698 C694 1.350 . S
C698 C695 1.463 . S
C698 N702 1.427 . S
C699 H689 0.929 . S
C699 C697 1.433 . S
C699 N702 1.384 . S
C700 H691 0.929 . S
C700 C692 1.378 . S
C700 C695 1.350 . S
C701 H688 0.929 . S
C701 C693 1.433 . S
C701 N703 1.384 . S
N702 C698 1.427 . S
N702 C699 1.384 . S
N703 C695 1.427 . S
N703 C701 1.384 . S
H704 C710 0.930 . S
H705 C714 0.930 . S
H706 C719 0.929 . S
H707 C717 0.929 . S
H708 C712 0.929 . S
H709 C718 0.929 . S
C710 H704 0.930 . S
C710 C711 1.367 . S
C710 C718 1.378 . S
C711 C710 1.367 . S
C711 C719 1.433 . S
C712 H708 0.929 . S
C712 C714 1.378 . S
C712 C716 1.350 . S
C713 C716 1.463 . S
C713 C718 1.350 . S
C713 N721 1.427 . S
C714 H705 0.930 . S
C714 C712 1.378 . S
C714 C715 1.367 . S
C715 C714 1.367 . S
C715 C717 1.433 . S
C716 C712 1.350 . S
C716 C713 1.463 . S
C716 N720 1.427 . S
C717 H707 0.929 . S
C717 C715 1.433 . S
C717 N720 1.384 . S
C718 H709 0.929 . S
C718 C710 1.378 . S
C718 C713 1.350 . S
C719 H706 0.929 . S
C719 C711 1.433 . S
C719 N721 1.384 . S
N720 C716 1.427 . S
N720 C717 1.384 . S
N721 C713 1.427 . S
N721 C719 1.384 . S
H722 C728 0.930 . S
H723 C732 0.930 . S
H724 C737 0.929 . S
H725 C735 0.929 . S
H726 C730 0.929 . S
H727 C736 0.929 . S
C728 H722 0.930 . S
C728 C729 1.367 1_565 S
C728 C736 1.378 . S
C729 C728 1.367 1_545 S
C729 C737 1.433 . S
C730 H726 0.929 . S
C730 C732 1.378 . S
C730 C734 1.350 . S
C731 C734 1.463 . S
C731 C736 1.350 . S
C731 N739 1.427 . S
C732 H723 0.930 . S
C732 C730 1.378 . S
C732 C733 1.367 . S
C733 C732 1.367 . S
C733 C735 1.433 . S
C734 C730 1.350 . S
C734 C731 1.463 . S
C734 N738 1.427 . S
C735 H725 0.929 . S
C735 C733 1.433 . S
C735 N738 1.384 . S
C736 H727 0.929 . S
C736 C728 1.378 . S
C736 C731 1.350 . S
C737 H724 0.929 . S
C737 C729 1.433 . S
C737 N739 1.384 1_545 S
N738 C734 1.427 . S
N738 C735 1.384 . S
N739 C731 1.427 . S
N739 C737 1.384 1_565 S
H740 C746 0.930 . S
H741 C750 0.930 . S
H742 C755 0.929 . S
H743 C753 0.929 . S
H744 C748 0.929 . S
H745 C754 0.929 . S
C746 H740 0.930 . S
C746 C747 1.367 . S
C746 C754 1.378 . S
C747 C746 1.367 . S
C747 C755 1.433 . S
C748 H744 0.929 . S
C748 C750 1.378 . S
C748 C752 1.350 . S
C749 C752 1.463 . S
C749 C754 1.350 . S
C749 N757 1.427 . S
C750 H741 0.930 . S
C750 C748 1.378 . S
C750 C751 1.367 . S
C751 C750 1.367 . S
C751 C753 1.433 . S
C752 C748 1.350 . S
C752 C749 1.463 . S
C752 N756 1.427 . S
C753 H743 0.929 . S
C753 C751 1.433 . S
C753 N756 1.384 . S
C754 H745 0.929 . S
C754 C746 1.378 . S
C754 C749 1.350 . S
C755 H742 0.929 . S
C755 C747 1.433 . S
C755 N757 1.384 . S
N756 C752 1.427 . S
N756 C753 1.384 . S
N757 C749 1.427 . S
N757 C755 1.384 . S
H758 C764 0.930 . S
H759 C768 0.930 . S
H760 C773 0.929 . S
H761 C771 0.929 . S
H762 C766 0.929 . S
H763 C772 0.929 . S
C764 H758 0.930 . S
C764 C765 1.367 . S
C764 C772 1.378 . S
C765 C764 1.367 . S
C765 C773 1.433 . S
C766 H762 0.929 . S
C766 C768 1.378 . S
C766 C770 1.350 . S
C767 C770 1.463 . S
C767 C772 1.350 . S
C767 N775 1.427 . S
C768 H759 0.930 . S
C768 C766 1.378 . S
C768 C769 1.367 . S
C769 C768 1.367 . S
C769 C771 1.433 . S
C770 C766 1.350 . S
C770 C767 1.463 . S
C770 N774 1.427 . S
C771 H761 0.929 . S
C771 C769 1.433 . S
C771 N774 1.384 . S
C772 H763 0.929 . S
C772 C764 1.378 . S
C772 C767 1.350 . S
C773 H760 0.929 . S
C773 C765 1.433 . S
C773 N775 1.384 . S
N774 C770 1.427 . S
N774 C771 1.384 . S
N775 C767 1.427 . S
N775 C773 1.384 . S
H776 C782 0.930 . S
H777 C786 0.930 . S
H778 C791 0.929 . S
H779 C789 0.929 . S
H780 C784 0.929 . S
H781 C790 0.929 . S
C782 H776 0.930 . S
C782 C783 1.367 . S
C782 C790 1.378 . S
C783 C782 1.367 . S
C783 C791 1.433 . S
C784 H780 0.929 . S
C784 C786 1.378 . S
C784 C788 1.350 . S
C785 C788 1.463 . S
C785 C790 1.350 . S
C785 N793 1.427 . S
C786 H777 0.930 . S
C786 C784 1.378 . S
C786 C787 1.367 . S
C787 C786 1.367 . S
C787 C789 1.433 . S
C788 C784 1.350 . S
C788 C785 1.463 . S
C788 N792 1.427 . S
C789 H779 0.929 . S
C789 C787 1.433 . S
C789 N792 1.384 . S
C790 H781 0.929 . S
C790 C782 1.378 . S
C790 C785 1.350 . S
C791 H778 0.929 . S
C791 C783 1.433 . S
C791 N793 1.384 . S
N792 C788 1.427 . S
N792 C789 1.384 . S
N793 C785 1.427 . S
N793 C791 1.384 . S
H794 C800 0.930 . S
H795 C804 0.930 . S
H796 C809 0.929 . S
H797 C807 0.929 . S
H798 C802 0.929 . S
H799 C808 0.929 . S
C800 H794 0.930 . S
C800 C801 1.367 . S
C800 C808 1.378 . S
C801 C800 1.367 . S
C801 C809 1.433 . S
C802 H798 0.929 . S
C802 C804 1.378 . S
C802 C806 1.350 . S
C803 C806 1.463 . S
C803 C808 1.350 . S
C803 N811 1.427 . S
C804 H795 0.930 . S
C804 C802 1.378 . S
C804 C805 1.367 . S
C805 C804 1.367 . S
C805 C807 1.433 . S
C806 C802 1.350 . S
C806 C803 1.463 . S
C806 N810 1.427 . S
C807 H797 0.929 . S
C807 C805 1.433 . S
C807 N810 1.384 . S
C808 H799 0.929 . S
C808 C800 1.378 . S
C808 C803 1.350 . S
C809 H796 0.929 . S
C809 C801 1.433 . S
C809 N811 1.384 . S
N810 C806 1.427 . S
N810 C807 1.384 . S
N811 C803 1.427 . S
N811 C809 1.384 . S
H812 C818 0.930 . S
H813 C822 0.930 . S
H814 C827 0.929 . S
H815 C825 0.929 . S
H816 C820 0.929 . S
H817 C826 0.935 . S
C818 H812 0.930 . S
C818 C819 1.367 . S
C818 C826 1.378 . S
C819 C818 1.367 . S
C819 C827 1.433 . S
C820 H816 0.929 . S
C820 C822 1.378 . S
C820 C824 1.350 . S
C821 C824 1.463 . S
C821 C826 1.350 1_565 S
C821 N829 1.439 . S
C822 H813 0.930 . S
C822 C820 1.378 . S
C822 C823 1.367 . S
C823 C822 1.367 . S
C823 C825 1.433 . S
C824 C820 1.350 . S
C824 C821 1.463 . S
C824 N828 1.427 . S
C825 H815 0.929 . S
C825 C823 1.433 . S
C825 N828 1.384 . S
C826 H817 0.935 . S
C826 C818 1.378 . S
C826 C821 1.350 1_545 S
C827 H814 0.929 . S
C827 C819 1.433 . S
C827 N829 1.342 1_545 S
N828 C824 1.427 . S
N828 C825 1.384 . S
N829 C821 1.439 . S
N829 C827 1.342 1_565 S
H830 C836 0.930 . S
H831 C840 0.930 . S
H832 C845 0.929 . S
H833 C843 0.929 . S
H834 C838 0.929 . S
H835 C844 0.929 . S
C836 H830 0.930 . S
C836 C837 1.367 . S
C836 C844 1.378 . S
C837 C836 1.367 . S
C837 C845 1.433 . S
C838 H834 0.929 . S
C838 C840 1.378 . S
C838 C842 1.350 . S
C839 C842 1.463 . S
C839 C844 1.350 . S
C839 N847 1.427 . S
C840 H831 0.930 . S
C840 C838 1.378 . S
C840 C841 1.367 . S
C841 C840 1.367 . S
C841 C843 1.433 . S
C842 C838 1.350 . S
C842 C839 1.463 . S
C842 N846 1.427 . S
C843 H833 0.929 . S
C843 C841 1.433 . S
C843 N846 1.384 . S
C844 H835 0.929 . S
C844 C836 1.378 . S
C844 C839 1.350 . S
C845 H832 0.929 . S
C845 C837 1.433 . S
C845 N847 1.384 . S
N846 C842 1.427 . S
N846 C843 1.384 . S
N847 C839 1.427 . S
N847 C845 1.384 . S
H848 C854 0.930 . S
H849 C858 0.930 . S
H850 C863 0.929 . S
H851 C861 0.929 . S
H852 C856 0.929 . S
H853 C862 0.929 . S
C854 H848 0.930 . S
C854 C855 1.367 . S
C854 C862 1.378 . S
C855 C854 1.367 . S
C855 C863 1.433 . S
C856 H852 0.929 . S
C856 C858 1.378 . S
C856 C860 1.350 . S
C857 C860 1.463 . S
C857 C862 1.350 . S
C857 N865 1.427 . S
C858 H849 0.930 . S
C858 C856 1.378 . S
C858 C859 1.367 . S
C859 C858 1.367 . S
C859 C861 1.433 . S
C860 C856 1.350 . S
C860 C857 1.463 . S
C860 N864 1.427 . S
C861 H851 0.929 . S
C861 C859 1.433 . S
C861 N864 1.384 . S
C862 H853 0.929 . S
C862 C854 1.378 . S
C862 C857 1.350 . S
C863 H850 0.929 . S
C863 C855 1.433 . S
C863 N865 1.384 . S
N864 C860 1.427 . S
N864 C861 1.384 . S
N865 C857 1.427 . S
N865 C863 1.384 . S
H866 C872 0.930 . S
H867 C876 0.930 . S
H868 C881 0.929 . S
H869 C879 0.929 . S
H870 C874 0.929 . S
H871 C880 0.929 . S
C872 H866 0.930 . S
C872 C873 1.367 . S
C872 C880 1.378 . S
C873 C872 1.367 . S
C873 C881 1.433 . S
C874 H870 0.929 . S
C874 C876 1.378 . S
C874 C878 1.350 . S
C875 C878 1.463 . S
C875 C880 1.350 . S
C875 N883 1.427 . S
C876 H867 0.930 . S
C876 C874 1.378 . S
C876 C877 1.367 . S
C877 C876 1.367 . S
C877 C879 1.433 . S
C878 C874 1.350 . S
C878 C875 1.463 . S
C878 N882 1.427 . S
C879 H869 0.929 . S
C879 C877 1.433 . S
C879 N882 1.384 . S
C880 H871 0.929 . S
C880 C872 1.378 . S
C880 C875 1.350 . S
C881 H868 0.929 . S
C881 C873 1.433 . S
C881 N883 1.384 . S
N882 C878 1.427 . S
N882 C879 1.384 . S
N883 C875 1.427 . S
N883 C881 1.384 . S
H884 C890 0.930 . S
H885 C894 0.930 . S
H886 C899 0.929 . S
H887 C897 0.929 . S
H888 C892 0.929 . S
H889 C898 0.929 . S
C890 H884 0.930 . S
C890 C891 1.367 . S
C890 C898 1.378 . S
C891 C890 1.367 . S
C891 C899 1.433 . S
C892 H888 0.929 . S
C892 C894 1.378 . S
C892 C896 1.350 . S
C893 C896 1.463 . S
C893 C898 1.350 . S
C893 N901 1.427 . S
C894 H885 0.930 . S
C894 C892 1.378 . S
C894 C895 1.367 . S
C895 C894 1.367 . S
C895 C897 1.433 . S
C896 C892 1.350 . S
C896 C893 1.463 . S
C896 N900 1.427 . S
C897 H887 0.929 . S
C897 C895 1.433 . S
C897 N900 1.384 . S
C898 H889 0.929 . S
C898 C890 1.378 . S
C898 C893 1.350 . S
C899 H886 0.929 . S
C899 C891 1.433 . S
C899 N901 1.384 . S
N900 C896 1.427 . S
N900 C897 1.384 . S
N901 C893 1.427 . S
N901 C899 1.384 . S
H902 C908 0.930 . S
H903 C912 0.930 . S
H904 C917 0.929 . S
H905 C915 0.929 . S
H906 C910 0.929 . S
H907 C916 0.929 . S
C908 H902 0.930 . S
C908 C909 1.367 . S
C908 C916 1.378 . S
C909 C908 1.367 . S
C909 C917 1.433 . S
C910 H906 0.929 . S
C910 C912 1.378 . S
C910 C914 1.350 . S
C911 C914 1.463 . S
C911 C916 1.350 . S
C911 N919 1.427 . S
C912 H903 0.930 . S
C912 C910 1.378 . S
C912 C913 1.367 . S
C913 C912 1.367 . S
C913 C915 1.433 . S
C914 C910 1.350 . S
C914 C911 1.463 . S
C914 N918 1.427 . S
C915 H905 0.929 . S
C915 C913 1.433 . S
C915 N918 1.384 . S
C916 H907 0.929 . S
C916 C908 1.378 . S
C916 C911 1.350 . S
C917 H904 0.929 . S
C917 C909 1.433 . S
C917 N919 1.384 . S
N918 C914 1.427 . S
N918 C915 1.384 . S
N919 C911 1.427 . S
N919 C917 1.384 . S
H920 C926 0.930 . S
H921 C930 0.930 . S
H922 C935 0.929 . S
H923 C933 0.929 . S
H924 C928 0.929 . S
H925 C934 0.929 . S
C926 H920 0.930 . S
C926 C927 1.367 . S
C926 C934 1.378 . S
C927 C926 1.367 . S
C927 C935 1.433 . S
C928 H924 0.929 . S
C928 C930 1.378 . S
C928 C932 1.350 . S
C929 C932 1.463 . S
C929 C934 1.350 . S
C929 N937 1.427 . S
C930 H921 0.930 . S
C930 C928 1.378 . S
C930 C931 1.367 . S
C931 C930 1.367 . S
C931 C933 1.433 . S
C932 C928 1.350 . S
C932 C929 1.463 . S
C932 N936 1.427 . S
C933 H923 0.929 . S
C933 C931 1.433 . S
C933 N936 1.384 . S
C934 H925 0.929 . S
C934 C926 1.378 . S
C934 C929 1.350 . S
C935 H922 0.929 . S
C935 C927 1.433 . S
C935 N937 1.384 . S
N936 C932 1.427 . S
N936 C933 1.384 . S
N937 C929 1.427 . S
N937 C935 1.384 . S
H938 C944 0.930 . S
H939 C948 0.930 . S
H940 C953 0.929 . S
H941 C951 0.929 . S
H942 C946 0.929 . S
H943 C952 0.929 . S
C944 H938 0.930 . S
C944 C945 1.367 . S
C944 C952 1.378 . S
C945 C944 1.367 . S
C945 C953 1.433 . S
C946 H942 0.929 . S
C946 C948 1.378 . S
C946 C950 1.350 . S
C947 C950 1.463 . S
C947 C952 1.350 . S
C947 N955 1.427 . S
C948 H939 0.930 . S
C948 C946 1.378 . S
C948 C949 1.367 . S
C949 C948 1.367 . S
C949 C951 1.433 . S
C950 C946 1.350 . S
C950 C947 1.463 . S
C950 N954 1.427 . S
C951 H941 0.929 . S
C951 C949 1.433 . S
C951 N954 1.384 . S
C952 H943 0.929 . S
C952 C944 1.378 . S
C952 C947 1.350 . S
C953 H940 0.929 . S
C953 C945 1.433 . S
C953 N955 1.384 . S
N954 C950 1.427 . S
N954 C951 1.384 . S
N955 C947 1.427 . S
N955 C953 1.384 . S
H956 C962 0.930 . S
H957 C966 0.930 . S
H958 C971 0.929 . S
H959 C969 0.929 . S
H960 C964 0.929 . S
H961 C970 0.929 . S
C962 H956 0.930 . S
C962 C963 1.367 . S
C962 C970 1.378 . S
C963 C962 1.367 . S
C963 C971 1.433 . S
C964 H960 0.929 . S
C964 C966 1.378 . S
C964 C968 1.350 . S
C965 C968 1.463 . S
C965 C970 1.350 . S
C965 N973 1.427 . S
C966 H957 0.930 . S
C966 C964 1.378 . S
C966 C967 1.367 . S
C967 C966 1.367 . S
C967 C969 1.433 . S
C968 C964 1.350 . S
C968 C965 1.463 . S
C968 N972 1.427 . S
C969 H959 0.929 . S
C969 C967 1.433 . S
C969 N972 1.384 . S
C970 H961 0.929 . S
C970 C962 1.378 . S
C970 C965 1.350 . S
C971 H958 0.929 . S
C971 C963 1.433 . S
C971 N973 1.384 . S
N972 C968 1.427 . S
N972 C969 1.384 . S
N973 C965 1.427 . S
N973 C971 1.384 . S
H974 C980 0.930 . S
H975 C984 0.930 . S
H976 C989 0.929 . S
H977 C987 0.929 . S
H978 C982 0.929 . S
H979 C988 0.929 . S
C980 H974 0.930 . S
C980 C981 1.367 . S
C980 C988 1.378 . S
C981 C980 1.367 . S
C981 C989 1.433 . S
C982 H978 0.929 . S
C982 C984 1.378 . S
C982 C986 1.350 . S
C983 C986 1.463 . S
C983 C988 1.350 . S
C983 N991 1.427 . S
C984 H975 0.930 . S
C984 C982 1.378 . S
C984 C985 1.367 . S
C985 C984 1.367 . S
C985 C987 1.433 . S
C986 C982 1.350 . S
C986 C983 1.463 . S
C986 N990 1.427 . S
C987 H977 0.929 . S
C987 C985 1.433 . S
C987 N990 1.384 . S
C988 H979 0.929 . S
C988 C980 1.378 . S
C988 C983 1.350 . S
C989 H976 0.929 . S
C989 C981 1.433 . S
C989 N991 1.384 . S
N990 C986 1.427 . S
N990 C987 1.384 . S
N991 C983 1.427 . S
N991 C989 1.384 . S
H992 C998 0.930 . S
H993 C1002 0.930 . S
H994 C1007 0.929 . S
H995 C1005 0.929 . S
H996 C1000 0.929 . S
H997 C1006 0.929 . S
C998 H992 0.930 . S
C998 C999 1.367 . S
C998 C1006 1.378 . S
C999 C998 1.367 . S
C999 C1007 1.433 . S
C1000 H996 0.929 . S
C1000 C1002 1.378 . S
C1000 C1004 1.350 . S
C1001 C1004 1.463 1_545 S
C1001 C1006 1.350 . S
C1001 N1009 1.427 . S
C1002 H993 0.930 . S
C1002 C1000 1.378 . S
C1002 C1003 1.367 . S
C1003 C1002 1.367 . S
C1003 C1005 1.433 . S
C1004 C1000 1.350 . S
C1004 C1001 1.463 1_565 S
C1004 N1008 1.427 . S
C1005 H995 0.929 . S
C1005 C1003 1.433 . S
C1005 N1008 1.384 . S
C1006 H997 0.929 . S
C1006 C998 1.378 . S
C1006 C1001 1.350 . S
C1007 H994 0.929 . S
C1007 C999 1.433 . S
C1007 N1009 1.384 . S
N1008 C1004 1.427 . S
N1008 C1005 1.384 . S
N1009 C1001 1.427 . S
N1009 C1007 1.384 . S
H1010 C1016 0.930 . S
H1011 C1020 0.930 . S
H1012 C1025 0.929 . S
H1013 C1023 0.929 . S
H1014 C1018 0.929 . S
H1015 C1024 0.929 . S
C1016 H1010 0.930 . S
C1016 C1017 1.367 . S
C1016 C1024 1.378 . S
C1017 C1016 1.367 . S
C1017 C1025 1.433 . S
C1018 H1014 0.929 . S
C1018 C1020 1.378 . S
C1018 C1022 1.350 . S
C1019 C1022 1.463 . S
C1019 C1024 1.350 . S
C1019 N1027 1.427 . S
C1020 H1011 0.930 . S
C1020 C1018 1.378 . S
C1020 C1021 1.367 . S
C1021 C1020 1.367 . S
C1021 C1023 1.433 . S
C1022 C1018 1.350 . S
C1022 C1019 1.463 . S
C1022 N1026 1.427 . S
C1023 H1013 0.929 . S
C1023 C1021 1.433 . S
C1023 N1026 1.384 . S
C1024 H1015 0.929 . S
C1024 C1016 1.378 . S
C1024 C1019 1.350 . S
C1025 H1012 0.929 . S
C1025 C1017 1.433 . S
C1025 N1027 1.384 . S
N1026 C1022 1.427 . S
N1026 C1023 1.384 . S
N1027 C1019 1.427 . S
N1027 C1025 1.384 . S
H1028 C1034 0.930 . S
H1029 C1038 0.930 . S
H1030 C1043 0.929 . S
H1031 C1041 0.929 . S
H1032 C1036 0.929 . S
H1033 C1042 0.929 . S
C1034 H1028 0.930 . S
C1034 C1035 1.367 . S
C1034 C1042 1.378 . S
C1035 C1034 1.367 . S
C1035 C1043 1.433 . S
C1036 H1032 0.929 . S
C1036 C1038 1.378 . S
C1036 C1040 1.350 . S
C1037 C1040 1.463 . S
C1037 C1042 1.350 . S
C1037 N1045 1.427 . S
C1038 H1029 0.930 . S
C1038 C1036 1.378 . S
C1038 C1039 1.367 . S
C1039 C1038 1.367 . S
C1039 C1041 1.433 . S
C1040 C1036 1.350 . S
C1040 C1037 1.463 . S
C1040 N1044 1.427 . S
C1041 H1031 0.929 . S
C1041 C1039 1.433 . S
C1041 N1044 1.384 . S
C1042 H1033 0.929 . S
C1042 C1034 1.378 . S
C1042 C1037 1.350 . S
C1043 H1030 0.929 . S
C1043 C1035 1.433 . S
C1043 N1045 1.384 . S
N1044 C1040 1.427 . S
N1044 C1041 1.384 . S
N1045 C1037 1.427 . S
N1045 C1043 1.384 . S
H1046 C1052 0.930 . S
H1047 C1056 0.930 . S
H1048 C1061 0.929 . S
H1049 C1059 0.929 . S
H1050 C1054 0.929 . S
H1051 C1060 0.929 . S
C1052 H1046 0.930 . S
C1052 C1053 1.367 . S
C1052 C1060 1.378 . S
C1053 C1052 1.367 . S
C1053 C1061 1.433 . S
C1054 H1050 0.929 . S
C1054 C1056 1.378 . S
C1054 C1058 1.350 . S
C1055 C1058 1.463 . S
C1055 C1060 1.350 . S
C1055 N1063 1.427 . S
C1056 H1047 0.930 . S
C1056 C1054 1.378 . S
C1056 C1057 1.367 . S
C1057 C1056 1.367 . S
C1057 C1059 1.433 . S
C1058 C1054 1.350 . S
C1058 C1055 1.463 . S
C1058 N1062 1.427 . S
C1059 H1049 0.929 . S
C1059 C1057 1.433 . S
C1059 N1062 1.384 . S
C1060 H1051 0.929 . S
C1060 C1052 1.378 . S
C1060 C1055 1.350 . S
C1061 H1048 0.929 . S
C1061 C1053 1.433 . S
C1061 N1063 1.384 . S
N1062 C1058 1.427 . S
N1062 C1059 1.384 . S
N1063 C1055 1.427 . S
N1063 C1061 1.384 . S
H1064 C1070 0.930 . S
H1065 C1074 0.930 . S
H1066 C1079 0.929 . S
H1067 C1077 0.929 . S
H1068 C1072 0.929 . S
H1069 C1078 0.929 . S
C1070 H1064 0.930 . S
C1070 C1071 1.367 . S
C1070 C1078 1.378 . S
C1071 C1070 1.367 . S
C1071 C1079 1.433 . S
C1072 H1068 0.929 . S
C1072 C1074 1.378 . S
C1072 C1076 1.350 . S
C1073 C1076 1.463 . S
C1073 C1078 1.350 . S
C1073 N1081 1.427 . S
C1074 H1065 0.930 . S
C1074 C1072 1.378 . S
C1074 C1075 1.367 . S
C1075 C1074 1.367 . S
C1075 C1077 1.433 . S
C1076 C1072 1.350 . S
C1076 C1073 1.463 . S
C1076 N1080 1.427 . S
C1077 H1067 0.929 . S
C1077 C1075 1.433 . S
C1077 N1080 1.384 . S
C1078 H1069 0.929 . S
C1078 C1070 1.378 . S
C1078 C1073 1.350 . S
C1079 H1066 0.929 . S
C1079 C1071 1.433 . S
C1079 N1081 1.384 . S
N1080 C1076 1.427 . S
N1080 C1077 1.384 . S
N1081 C1073 1.427 . S
N1081 C1079 1.384 . S
H1082 C1088 0.930 . S
H1083 C1092 0.930 . S
H1084 C1097 0.929 . S
H1085 C1095 0.929 . S
H1086 C1090 0.929 . S
H1087 C1096 0.929 . S
C1088 H1082 0.930 . S
C1088 C1089 1.367 . S
C1088 C1096 1.378 . S
C1089 C1088 1.367 . S
C1089 C1097 1.433 . S
C1090 H1086 0.929 . S
C1090 C1092 1.378 . S
C1090 C1094 1.350 . S
C1091 C1094 1.463 . S
C1091 C1096 1.350 . S
C1091 N1099 1.427 . S
C1092 H1083 0.930 . S
C1092 C1090 1.378 . S
C1092 C1093 1.367 . S
C1093 C1092 1.367 . S
C1093 C1095 1.433 . S
C1094 C1090 1.350 . S
C1094 C1091 1.463 . S
C1094 N1098 1.427 . S
C1095 H1085 0.929 . S
C1095 C1093 1.433 . S
C1095 N1098 1.384 . S
C1096 H1087 0.929 . S
C1096 C1088 1.378 . S
C1096 C1091 1.350 . S
C1097 H1084 0.929 . S
C1097 C1089 1.433 . S
C1097 N1099 1.384 . S
N1098 C1094 1.427 . S
N1098 C1095 1.384 . S
N1099 C1091 1.427 . S
N1099 C1097 1.384 . S
H1100 C1106 0.930 . S
H1101 C1110 0.930 . S
H1102 C1115 0.929 . S
H1103 C1113 0.929 . S
H1104 C1108 0.929 . S
H1105 C1114 0.929 . S
C1106 H1100 0.930 . S
C1106 C1107 1.367 . S
C1106 C1114 1.378 . S
C1107 C1106 1.367 . S
C1107 C1115 1.433 . S
C1108 H1104 0.929 . S
C1108 C1110 1.378 . S
C1108 C1112 1.350 . S
C1109 C1112 1.463 . S
C1109 C1114 1.350 . S
C1109 N1117 1.427 . S
C1110 H1101 0.930 . S
C1110 C1108 1.378 . S
C1110 C1111 1.367 . S
C1111 C1110 1.367 . S
C1111 C1113 1.433 . S
C1112 C1108 1.350 . S
C1112 C1109 1.463 . S
C1112 N1116 1.427 . S
C1113 H1103 0.929 . S
C1113 C1111 1.433 . S
C1113 N1116 1.384 . S
C1114 H1105 0.929 . S
C1114 C1106 1.378 . S
C1114 C1109 1.350 . S
C1115 H1102 0.929 . S
C1115 C1107 1.433 . S
C1115 N1117 1.384 . S
N1116 C1112 1.427 . S
N1116 C1113 1.384 . S
N1117 C1109 1.427 . S
N1117 C1115 1.384 . S
H1118 C1124 0.930 . S
H1119 C1128 0.930 . S
H1120 C1133 0.929 . S
H1121 C1131 0.929 . S
H1122 C1126 0.929 . S
H1123 C1132 0.929 . S
C1124 H1118 0.930 . S
C1124 C1125 1.367 . S
C1124 C1132 1.378 . S
C1125 C1124 1.367 . S
C1125 C1133 1.433 . S
C1126 H1122 0.929 . S
C1126 C1128 1.378 . S
C1126 C1130 1.350 . S
C1127 C1130 1.463 . S
C1127 C1132 1.350 . S
C1127 N1135 1.427 . S
C1128 H1119 0.930 . S
C1128 C1126 1.378 . S
C1128 C1129 1.367 . S
C1129 C1128 1.367 . S
C1129 C1131 1.433 . S
C1130 C1126 1.350 . S
C1130 C1127 1.463 . S
C1130 N1134 1.427 . S
C1131 H1121 0.929 . S
C1131 C1129 1.433 . S
C1131 N1134 1.384 . S
C1132 H1123 0.929 . S
C1132 C1124 1.378 . S
C1132 C1127 1.350 . S
C1133 H1120 0.929 . S
C1133 C1125 1.433 . S
C1133 N1135 1.384 . S
N1134 C1130 1.427 . S
N1134 C1131 1.384 . S
N1135 C1127 1.427 . S
N1135 C1133 1.384 . S
H1136 C1142 0.930 . S
H1137 C1146 0.930 . S
H1138 C1151 0.929 . S
H1139 C1149 0.929 . S
H1140 C1144 0.929 . S
H1141 C1150 0.929 . S
C1142 H1136 0.930 . S
C1142 C1143 1.367 . S
C1142 C1150 1.378 . S
C1143 C1142 1.367 . S
C1143 C1151 1.433 . S
C1144 H1140 0.929 . S
C1144 C1146 1.378 . S
C1144 C1148 1.350 . S
C1145 C1148 1.463 . S
C1145 C1150 1.350 . S
C1145 N1153 1.427 . S
C1146 H1137 0.930 . S
C1146 C1144 1.378 . S
C1146 C1147 1.367 . S
C1147 C1146 1.367 . S
C1147 C1149 1.433 . S
C1148 C1144 1.350 . S
C1148 C1145 1.463 . S
C1148 N1152 1.427 . S
C1149 H1139 0.929 . S
C1149 C1147 1.433 . S
C1149 N1152 1.384 . S
C1150 H1141 0.929 . S
C1150 C1142 1.378 . S
C1150 C1145 1.350 . S
C1151 H1138 0.929 . S
C1151 C1143 1.433 . S
C1151 N1153 1.384 . S
N1152 C1148 1.427 . S
N1152 C1149 1.384 . S
N1153 C1145 1.427 . S
N1153 C1151 1.384 . S
H1154 C1160 0.930 . S
H1155 C1164 0.930 . S
H1156 C1169 0.929 . S
H1157 C1167 0.929 . S
H1158 C1162 0.929 . S
H1159 C1168 0.929 . S
C1160 H1154 0.930 . S
C1160 C1161 1.367 . S
C1160 C1168 1.378 . S
C1161 C1160 1.367 . S
C1161 C1169 1.433 . S
C1162 H1158 0.929 . S
C1162 C1164 1.378 . S
C1162 C1166 1.350 . S
C1163 C1166 1.463 . S
C1163 C1168 1.350 . S
C1163 N1171 1.427 . S
C1164 H1155 0.930 . S
C1164 C1162 1.378 . S
C1164 C1165 1.367 . S
C1165 C1164 1.367 . S
C1165 C1167 1.433 . S
C1166 C1162 1.350 . S
C1166 C1163 1.463 . S
C1166 N1170 1.427 . S
C1167 H1157 0.929 . S
C1167 C1165 1.433 . S
C1167 N1170 1.384 . S
C1168 H1159 0.929 . S
C1168 C1160 1.378 . S
C1168 C1163 1.350 . S
C1169 H1156 0.929 . S
C1169 C1161 1.433 . S
C1169 N1171 1.384 . S
N1170 C1166 1.427 . S
N1170 C1167 1.384 . S
N1171 C1163 1.427 . S
N1171 C1169 1.384 . S
H1172 C1178 0.930 . S
H1173 C1182 0.930 . S
H1174 C1187 0.929 . S
H1175 C1185 0.929 . S
H1176 C1180 0.929 . S
H1177 C1186 0.929 . S
C1178 H1172 0.930 . S
C1178 C1179 1.367 . S
C1178 C1186 1.378 . S
C1179 C1178 1.367 . S
C1179 C1187 1.433 . S
C1180 H1176 0.929 . S
C1180 C1182 1.378 . S
C1180 C1184 1.350 . S
C1181 C1184 1.463 . S
C1181 C1186 1.350 . S
C1181 N1189 1.427 . S
C1182 H1173 0.930 . S
C1182 C1180 1.378 . S
C1182 C1183 1.367 . S
C1183 C1182 1.367 . S
C1183 C1185 1.433 . S
C1184 C1180 1.350 . S
C1184 C1181 1.463 . S
C1184 N1188 1.427 . S
C1185 H1175 0.929 . S
C1185 C1183 1.433 . S
C1185 N1188 1.384 . S
C1186 H1177 0.929 . S
C1186 C1178 1.378 . S
C1186 C1181 1.350 . S
C1187 H1174 0.929 . S
C1187 C1179 1.433 . S
C1187 N1189 1.384 . S
N1188 C1184 1.427 . S
N1188 C1185 1.384 . S
N1189 C1181 1.427 . S
N1189 C1187 1.384 . S
H1190 C1196 0.930 . S
H1191 C1200 0.930 . S
H1192 C1205 0.929 . S
H1193 C1203 0.929 . S
H1194 C1198 0.929 . S
H1195 C1204 0.929 . S
C1196 H1190 0.930 . S
C1196 C1197 1.367 . S
C1196 C1204 1.378 . S
C1197 C1196 1.367 . S
C1197 C1205 1.433 . S
C1198 H1194 0.929 . S
C1198 C1200 1.378 . S
C1198 C1202 1.350 . S
C1199 C1202 1.463 . S
C1199 C1204 1.350 . S
C1199 N1207 1.427 . S
C1200 H1191 0.930 . S
C1200 C1198 1.378 . S
C1200 C1201 1.367 . S
C1201 C1200 1.367 . S
C1201 C1203 1.433 . S
C1202 C1198 1.350 . S
C1202 C1199 1.463 . S
C1202 N1206 1.427 . S
C1203 H1193 0.929 . S
C1203 C1201 1.433 . S
C1203 N1206 1.384 . S
C1204 H1195 0.929 . S
C1204 C1196 1.378 . S
C1204 C1199 1.350 . S
C1205 H1192 0.929 . S
C1205 C1197 1.433 . S
C1205 N1207 1.384 . S
N1206 C1202 1.427 . S
N1206 C1203 1.384 . S
N1207 C1199 1.427 . S
N1207 C1205 1.384 . S
H1208 C1214 0.930 . S
H1209 C1218 0.930 . S
H1210 C1223 0.929 . S
H1211 C1221 0.929 . S
H1212 C1216 0.929 . S
H1213 C1222 0.929 . S
C1214 H1208 0.930 . S
C1214 C1215 1.367 . S
C1214 C1222 1.378 . S
C1215 C1214 1.367 . S
C1215 C1223 1.433 . S
C1216 H1212 0.929 . S
C1216 C1218 1.378 . S
C1216 C1220 1.350 . S
C1217 C1220 1.463 . S
C1217 C1222 1.350 . S
C1217 N1225 1.427 . S
C1218 H1209 0.930 . S
C1218 C1216 1.378 . S
C1218 C1219 1.367 . S
C1219 C1218 1.367 . S
C1219 C1221 1.433 . S
C1220 C1216 1.350 . S
C1220 C1217 1.463 . S
C1220 N1224 1.427 . S
C1221 H1211 0.929 . S
C1221 C1219 1.433 . S
C1221 N1224 1.384 . S
C1222 H1213 0.929 . S
C1222 C1214 1.378 . S
C1222 C1217 1.350 . S
C1223 H1210 0.929 . S
C1223 C1215 1.433 . S
C1223 N1225 1.384 . S
N1224 C1220 1.427 . S
N1224 C1221 1.384 . S
N1225 C1217 1.427 . S
N1225 C1223 1.384 . S
H1226 C1232 0.930 . S
H1227 C1236 0.930 . S
H1228 C1241 0.929 . S
H1229 C1239 0.929 . S
H1230 C1234 0.929 . S
H1231 C1240 0.929 . S
C1232 H1226 0.930 . S
C1232 C1233 1.367 . S
C1232 C1240 1.378 . S
C1233 C1232 1.367 . S
C1233 C1241 1.433 . S
C1234 H1230 0.929 . S
C1234 C1236 1.378 . S
C1234 C1238 1.350 . S
C1235 C1238 1.463 . S
C1235 C1240 1.350 . S
C1235 N1243 1.427 . S
C1236 H1227 0.930 . S
C1236 C1234 1.378 . S
C1236 C1237 1.367 . S
C1237 C1236 1.367 . S
C1237 C1239 1.433 . S
C1238 C1234 1.350 . S
C1238 C1235 1.463 . S
C1238 N1242 1.427 . S
C1239 H1229 0.929 . S
C1239 C1237 1.433 . S
C1239 N1242 1.384 . S
C1240 H1231 0.929 . S
C1240 C1232 1.378 . S
C1240 C1235 1.350 . S
C1241 H1228 0.929 . S
C1241 C1233 1.433 . S
C1241 N1243 1.384 . S
N1242 C1238 1.427 . S
N1242 C1239 1.384 . S
N1243 C1235 1.427 . S
N1243 C1241 1.384 . S
H1244 C1250 0.930 . S
H1245 C1254 0.930 . S
H1246 C1259 0.929 . S
H1247 C1257 0.929 . S
H1248 C1252 0.929 . S
H1249 C1258 0.929 . S
C1250 H1244 0.930 . S
C1250 C1251 1.367 . S
C1250 C1258 1.378 . S
C1251 C1250 1.367 . S
C1251 C1259 1.433 . S
C1252 H1248 0.929 . S
C1252 C1254 1.378 . S
C1252 C1256 1.350 . S
C1253 C1256 1.463 . S
C1253 C1258 1.350 . S
C1253 N1261 1.427 . S
C1254 H1245 0.930 . S
C1254 C1252 1.378 . S
C1254 C1255 1.367 . S
C1255 C1254 1.367 . S
C1255 C1257 1.433 . S
C1256 C1252 1.350 . S
C1256 C1253 1.463 . S
C1256 N1260 1.427 . S
C1257 H1247 0.929 . S
C1257 C1255 1.433 . S
C1257 N1260 1.384 . S
C1258 H1249 0.929 . S
C1258 C1250 1.378 . S
C1258 C1253 1.350 . S
C1259 H1246 0.929 . S
C1259 C1251 1.433 . S
C1259 N1261 1.384 . S
N1260 C1256 1.427 . S
N1260 C1257 1.384 . S
N1261 C1253 1.427 . S
N1261 C1259 1.384 . S
H1262 C1268 0.930 . S
H1263 C1272 0.930 . S
H1264 C1277 0.929 . S
H1265 C1275 0.929 . S
H1266 C1270 0.929 . S
H1267 C1276 0.929 . S
C1268 H1262 0.930 . S
C1268 C1269 1.367 . S
C1268 C1276 1.378 . S
C1269 C1268 1.367 . S
C1269 C1277 1.433 . S
C1270 H1266 0.929 . S
C1270 C1272 1.378 . S
C1270 C1274 1.350 . S
C1271 C1274 1.463 . S
C1271 C1276 1.350 . S
C1271 N1279 1.427 . S
C1272 H1263 0.930 . S
C1272 C1270 1.378 . S
C1272 C1273 1.367 . S
C1273 C1272 1.367 . S
C1273 C1275 1.433 . S
C1274 C1270 1.350 . S
C1274 C1271 1.463 . S
C1274 N1278 1.427 . S
C1275 H1265 0.929 . S
C1275 C1273 1.433 . S
C1275 N1278 1.384 . S
C1276 H1267 0.929 . S
C1276 C1268 1.378 . S
C1276 C1271 1.350 . S
C1277 H1264 0.929 . S
C1277 C1269 1.433 . S
C1277 N1279 1.384 . S
N1278 C1274 1.427 . S
N1278 C1275 1.384 . S
N1279 C1271 1.427 . S
N1279 C1277 1.384 . S
H1280 C1286 0.930 . S
H1281 C1290 0.930 . S
H1282 C1295 0.929 . S
H1283 C1293 0.929 . S
H1284 C1288 0.929 . S
H1285 C1294 0.929 . S
C1286 H1280 0.930 . S
C1286 C1287 1.367 . S
C1286 C1294 1.378 . S
C1287 C1286 1.367 . S
C1287 C1295 1.433 . S
C1288 H1284 0.929 . S
C1288 C1290 1.378 . S
C1288 C1292 1.350 . S
C1289 C1292 1.463 . S
C1289 C1294 1.350 . S
C1289 N1297 1.427 . S
C1290 H1281 0.930 . S
C1290 C1288 1.378 . S
C1290 C1291 1.367 . S
C1291 C1290 1.367 . S
C1291 C1293 1.433 . S
C1292 C1288 1.350 . S
C1292 C1289 1.463 . S
C1292 N1296 1.427 . S
C1293 H1283 0.929 . S
C1293 C1291 1.433 . S
C1293 N1296 1.384 . S
C1294 H1285 0.929 . S
C1294 C1286 1.378 . S
C1294 C1289 1.350 . S
C1295 H1282 0.929 . S
C1295 C1287 1.433 . S
C1295 N1297 1.384 . S
N1296 C1292 1.427 . S
N1296 C1293 1.384 . S
N1297 C1289 1.427 . S
N1297 C1295 1.384 . S
H1298 C1304 0.930 . S
H1299 C1308 0.930 . S
H1300 C1313 0.929 . S
H1301 C1311 0.929 . S
H1302 C1306 0.929 . S
H1303 C1312 0.929 . S
C1304 H1298 0.930 . S
C1304 C1305 1.367 . S
C1304 C1312 1.378 . S
C1305 C1304 1.367 . S
C1305 C1313 1.433 . S
C1306 H1302 0.929 . S
C1306 C1308 1.378 . S
C1306 C1310 1.350 . S
C1307 C1310 1.463 . S
C1307 C1312 1.350 . S
C1307 N1315 1.427 . S
C1308 H1299 0.930 . S
C1308 C1306 1.378 . S
C1308 C1309 1.367 . S
C1309 C1308 1.367 . S
C1309 C1311 1.433 . S
C1310 C1306 1.350 . S
C1310 C1307 1.463 . S
C1310 N1314 1.427 . S
C1311 H1301 0.929 . S
C1311 C1309 1.433 . S
C1311 N1314 1.384 . S
C1312 H1303 0.929 . S
C1312 C1304 1.378 . S
C1312 C1307 1.350 . S
C1313 H1300 0.929 . S
C1313 C1305 1.433 . S
C1313 N1315 1.384 . S
N1314 C1310 1.427 . S
N1314 C1311 1.384 . S
N1315 C1307 1.427 . S
N1315 C1313 1.384 . S
H1316 C1322 0.930 . S
H1317 C1326 0.930 . S
H1318 C1331 0.929 . S
H1319 C1329 0.929 . S
H1320 C1324 0.929 . S
H1321 C1330 0.929 . S
C1322 H1316 0.930 . S
C1322 C1323 1.367 . S
C1322 C1330 1.378 . S
C1323 C1322 1.367 . S
C1323 C1331 1.433 . S
C1324 H1320 0.929 . S
C1324 C1326 1.378 . S
C1324 C1328 1.350 . S
C1325 C1328 1.463 . S
C1325 C1330 1.350 . S
C1325 N1333 1.427 . S
C1326 H1317 0.930 . S
C1326 C1324 1.378 . S
C1326 C1327 1.367 . S
C1327 C1326 1.367 . S
C1327 C1329 1.433 . S
C1328 C1324 1.350 . S
C1328 C1325 1.463 . S
C1328 N1332 1.427 . S
C1329 H1319 0.929 . S
C1329 C1327 1.433 . S
C1329 N1332 1.384 . S
C1330 H1321 0.929 . S
C1330 C1322 1.378 . S
C1330 C1325 1.350 . S
C1331 H1318 0.929 . S
C1331 C1323 1.433 . S
C1331 N1333 1.384 . S
N1332 C1328 1.427 . S
N1332 C1329 1.384 . S
N1333 C1325 1.427 . S
N1333 C1331 1.384 . S
H1334 C1340 0.930 . S
H1335 C1344 0.930 . S
H1336 C1349 0.929 . S
H1337 C1347 0.929 . S
H1338 C1342 0.929 . S
H1339 C1348 0.929 . S
C1340 H1334 0.930 . S
C1340 C1341 1.367 . S
C1340 C1348 1.378 . S
C1341 C1340 1.367 . S
C1341 C1349 1.433 . S
C1342 H1338 0.929 . S
C1342 C1344 1.378 . S
C1342 C1346 1.350 . S
C1343 C1346 1.463 . S
C1343 C1348 1.350 . S
C1343 N1351 1.427 . S
C1344 H1335 0.930 . S
C1344 C1342 1.378 . S
C1344 C1345 1.367 . S
C1345 C1344 1.367 . S
C1345 C1347 1.433 . S
C1346 C1342 1.350 . S
C1346 C1343 1.463 . S
C1346 N1350 1.427 . S
C1347 H1337 0.929 . S
C1347 C1345 1.433 . S
C1347 N1350 1.384 . S
C1348 H1339 0.929 . S
C1348 C1340 1.378 . S
C1348 C1343 1.350 . S
C1349 H1336 0.929 . S
C1349 C1341 1.433 . S
C1349 N1351 1.384 . S
N1350 C1346 1.427 . S
N1350 C1347 1.384 . S
N1351 C1343 1.427 . S
N1351 C1349 1.384 . S
H1352 C1358 0.930 . S
H1353 C1362 0.930 . S
H1354 C1367 0.929 . S
H1355 C1365 0.929 . S
H1356 C1360 0.929 . S
H1357 C1366 0.929 . S
C1358 H1352 0.930 . S
C1358 C1359 1.367 . S
C1358 C1366 1.378 . S
C1359 C1358 1.367 . S
C1359 C1367 1.433 . S
C1360 H1356 0.929 . S
C1360 C1362 1.378 . S
C1360 C1364 1.350 . S
C1361 C1364 1.463 . S
C1361 C1366 1.350 . S
C1361 N1369 1.427 . S
C1362 H1353 0.930 . S
C1362 C1360 1.378 . S
C1362 C1363 1.367 . S
C1363 C1362 1.367 . S
C1363 C1365 1.433 . S
C1364 C1360 1.350 . S
C1364 C1361 1.463 . S
C1364 N1368 1.427 . S
C1365 H1355 0.929 . S
C1365 C1363 1.433 . S
C1365 N1368 1.384 . S
C1366 H1357 0.929 . S
C1366 C1358 1.378 . S
C1366 C1361 1.350 . S
C1367 H1354 0.929 . S
C1367 C1359 1.433 . S
C1367 N1369 1.384 . S
N1368 C1364 1.427 . S
N1368 C1365 1.384 . S
N1369 C1361 1.427 . S
N1369 C1367 1.384 . S
H1370 C1376 0.930 . S
H1371 C1380 0.930 . S
H1372 C1385 0.929 . S
H1373 C1383 0.929 . S
H1374 C1378 0.929 . S
H1375 C1384 0.929 . S
C1376 H1370 0.930 . S
C1376 C1377 1.367 . S
C1376 C1384 1.378 . S
C1377 C1376 1.367 . S
C1377 C1385 1.433 . S
C1378 H1374 0.929 . S
C1378 C1380 1.378 . S
C1378 C1382 1.350 . S
C1379 C1382 1.463 . S
C1379 C1384 1.350 . S
C1379 N1387 1.427 . S
C1380 H1371 0.930 . S
C1380 C1378 1.378 . S
C1380 C1381 1.367 . S
C1381 C1380 1.367 . S
C1381 C1383 1.433 . S
C1382 C1378 1.350 . S
C1382 C1379 1.463 . S
C1382 N1386 1.427 . S
C1383 H1373 0.929 . S
C1383 C1381 1.433 . S
C1383 N1386 1.384 . S
C1384 H1375 0.929 . S
C1384 C1376 1.378 . S
C1384 C1379 1.350 . S
C1385 H1372 0.929 . S
C1385 C1377 1.433 . S
C1385 N1387 1.384 . S
N1386 C1382 1.427 . S
N1386 C1383 1.384 . S
N1387 C1379 1.427 . S
N1387 C1385 1.384 . S
H1388 C1394 0.930 . S
H1389 C1398 0.930 . S
H1390 C1403 0.929 . S
H1391 C1401 0.929 . S
H1392 C1396 0.929 . S
H1393 C1402 0.929 . S
C1394 H1388 0.930 . S
C1394 C1395 1.367 . S
C1394 C1402 1.378 . S
C1395 C1394 1.367 . S
C1395 C1403 1.433 . S
C1396 H1392 0.929 . S
C1396 C1398 1.378 . S
C1396 C1400 1.350 . S
C1397 C1400 1.463 . S
C1397 C1402 1.350 . S
C1397 N1405 1.427 . S
C1398 H1389 0.930 . S
C1398 C1396 1.378 . S
C1398 C1399 1.367 . S
C1399 C1398 1.367 . S
C1399 C1401 1.433 . S
C1400 C1396 1.350 . S
C1400 C1397 1.463 . S
C1400 N1404 1.427 . S
C1401 H1391 0.929 . S
C1401 C1399 1.433 . S
C1401 N1404 1.384 . S
C1402 H1393 0.929 . S
C1402 C1394 1.378 . S
C1402 C1397 1.350 . S
C1403 H1390 0.929 . S
C1403 C1395 1.433 . S
C1403 N1405 1.384 . S
N1404 C1400 1.427 . S
N1404 C1401 1.384 . S
N1405 C1397 1.427 . S
N1405 C1403 1.384 . S
H1406 C1412 0.930 . S
H1407 C1416 0.930 . S
H1408 C1421 0.929 . S
H1409 C1419 0.929 . S
H1410 C1414 0.929 . S
H1411 C1420 0.929 . S
C1412 H1406 0.930 . S
C1412 C1413 1.367 . S
C1412 C1420 1.378 . S
C1413 C1412 1.367 . S
C1413 C1421 1.433 . S
C1414 H1410 0.929 . S
C1414 C1416 1.378 . S
C1414 C1418 1.350 . S
C1415 C1418 1.463 . S
C1415 C1420 1.350 . S
C1415 N1423 1.427 . S
C1416 H1407 0.930 . S
C1416 C1414 1.378 . S
C1416 C1417 1.367 . S
C1417 C1416 1.367 . S
C1417 C1419 1.433 . S
C1418 C1414 1.350 . S
C1418 C1415 1.463 . S
C1418 N1422 1.427 . S
C1419 H1409 0.929 . S
C1419 C1417 1.433 . S
C1419 N1422 1.384 . S
C1420 H1411 0.929 . S
C1420 C1412 1.378 . S
C1420 C1415 1.350 . S
C1421 H1408 0.929 . S
C1421 C1413 1.433 . S
C1421 N1423 1.384 . S
N1422 C1418 1.427 . S
N1422 C1419 1.384 . S
N1423 C1415 1.427 . S
N1423 C1421 1.384 . S
H1424 C1430 0.930 . S
H1425 C1434 0.930 . S
H1426 C1439 0.929 . S
H1427 C1437 0.929 . S
H1428 C1432 0.929 . S
H1429 C1438 0.929 . S
C1430 H1424 0.930 . S
C1430 C1431 1.367 . S
C1430 C1438 1.378 . S
C1431 C1430 1.367 . S
C1431 C1439 1.433 . S
C1432 H1428 0.929 . S
C1432 C1434 1.378 . S
C1432 C1436 1.350 . S
C1433 C1436 1.463 . S
C1433 C1438 1.350 . S
C1433 N1441 1.427 . S
C1434 H1425 0.930 . S
C1434 C1432 1.378 . S
C1434 C1435 1.367 . S
C1435 C1434 1.367 . S
C1435 C1437 1.433 . S
C1436 C1432 1.350 . S
C1436 C1433 1.463 . S
C1436 N1440 1.427 . S
C1437 H1427 0.929 . S
C1437 C1435 1.433 . S
C1437 N1440 1.384 . S
C1438 H1429 0.929 . S
C1438 C1430 1.378 . S
C1438 C1433 1.350 . S
C1439 H1426 0.929 . S
C1439 C1431 1.433 . S
C1439 N1441 1.384 . S
N1440 C1436 1.427 . S
N1440 C1437 1.384 . S
N1441 C1433 1.427 . S
N1441 C1439 1.384 . S
H1442 C1448 0.930 . S
H1443 C1452 0.930 . S
H1444 C1457 0.929 . S
H1445 C1455 0.929 . S
H1446 C1450 0.929 . S
H1447 C1456 0.929 . S
C1448 H1442 0.930 . S
C1448 C1449 1.367 . S
C1448 C1456 1.378 . S
C1449 C1448 1.367 . S
C1449 C1457 1.433 . S
C1450 H1446 0.929 . S
C1450 C1452 1.378 . S
C1450 C1454 1.350 . S
C1451 C1454 1.463 . S
C1451 C1456 1.350 . S
C1451 N1459 1.427 . S
C1452 H1443 0.930 . S
C1452 C1450 1.378 . S
C1452 C1453 1.367 . S
C1453 C1452 1.367 . S
C1453 C1455 1.433 . S
C1454 C1450 1.350 . S
C1454 C1451 1.463 . S
C1454 N1458 1.427 . S
C1455 H1445 0.929 . S
C1455 C1453 1.433 . S
C1455 N1458 1.384 . S
C1456 H1447 0.929 . S
C1456 C1448 1.378 . S
C1456 C1451 1.350 . S
C1457 H1444 0.929 . S
C1457 C1449 1.433 . S
C1457 N1459 1.384 . S
N1458 C1454 1.427 . S
N1458 C1455 1.384 . S
N1459 C1451 1.427 . S
N1459 C1457 1.384 . S
C607 C282 1.550 . S
C603 N2 1.517 . S
C625 C325 2.353 . S
C621 C7 2.325 . S
C643 C362 1.587 . S
C639 N12 1.447 . S
C657 C16 2.243 1_565 S
C661 C405 2.329 . S
C679 C454 2.525 . S
C675 C30 2.467 1_565 S
C697 C491 1.390 . S
C693 N35 1.328 . S
C711 C39 2.489 . S
C715 C534 2.509 . S
C733 C571 1.363 . S
C729 N25 1.227 . S
C751 C286 1.368 . S
C747 N58 1.313 . S
C765 N81 1.954 . S
C769 C335 1.961 . S
C787 C366 1.354 . S
C783 N104 1.296 . S
C801 N127 2.008 . S
C805 C415 2.017 . S
C823 C442 0.870 . S
C819 N48 0.884 . S
C841 C485 1.527 . S
C837 N71 1.564 . S
C855 N94 0.860 . S
C859 C522 0.818 . S
C877 C565 1.534 . S
C873 N117 1.576 . S
C891 C85 2.129 . S
C895 C294 1.996 . S
C909 C122 2.389 . S
C913 C446 2.348 . S
C927 C53 2.045 . S
C931 C495 2.055 . S
C949 C526 2.406 . S
C945 C76 2.445 . S
C967 C575 2.056 . S
C963 C99 2.047 . S
C985 C374 1.979 . S
C981 C131 2.102 . S
C1003 C411 1.092 . S
C999 C62 1.142 . S
C1017 C108 1.163 . S
C1021 C331 1.124 . S
C1039 C562 1.670 . S
C1035 N140 1.649 . S
C1053 C145 2.311 . S
C1057 C445 2.344 . S
C1075 C482 1.492 . S
C1071 N150 1.357 . S
C1089 C154 2.257 . S
C1093 C525 2.334 . S
C1111 C334 2.498 . S
C1107 C168 2.444 . S
C1125 N173 1.202 . S
C1129 C371 1.269 . S
C1147 C414 2.504 . S
C1143 C177 2.485 . S
C1165 C291 1.465 . S
C1161 N163 1.330 . S
C1183 C566 1.858 . S
C1179 C200 1.828 . S
C1201 C455 2.250 . S
C1197 N219 2.243 . S
C1215 N242 1.565 . S
C1219 C486 1.636 . S
C1237 C535 2.355 . S
C1233 C269 2.417 . S
C1255 C322 1.125 . S
C1251 C191 1.189 . S
C1269 N209 1.834 . S
C1273 C365 1.790 . S
C1287 N232 1.101 . S
C1291 C402 1.057 . S
C1305 C260 2.065 . S
C1309 C285 1.981 . S
C1323 C223 1.833 . S
C1327 C574 1.725 . S
C1341 N255 1.951 . S
C1345 C326 1.976 . S
C1359 N186 1.538 . S
C1363 C375 1.565 . S
C1381 C406 2.085 . S
C1377 C214 2.124 . S
C1399 C295 1.765 . S
C1395 C237 1.755 . S
C1417 C494 1.559 . S
C1413 N265 1.612 . S
C1435 C531 0.793 . S
C1431 N196 0.806 . S
C1453 C451 0.895 . S
C1449 C246 0.921 . S
