# Generated by pormake.
# Topology gar, (4,6)-cn, num edge types: 1
# Building blocks:
#     Node 0, Type 0, BuildingBlock: QUQFOY_clean_sbu_1, # of connection points: 4
#     Node 1, Type 0, BuildingBlock: QUQFOY_clean_sbu_1, # of connection points: 4
#     Node 2, Type 0, BuildingBlock: QUQFOY_clean_sbu_1, # of connection points: 4
#     Node 3, Type 0, BuildingBlock: QUQFOY_clean_sbu_1, # of connection points: 4
#     Node 4, Type 0, BuildingBlock: QUQFOY_clean_sbu_1, # of connection points: 4
#     Node 5, Type 0, BuildingBlock: QUQFOY_clean_sbu_1, # of connection points: 4
#     Node 6, Type 0, BuildingBlock: QUQFOY_clean_sbu_1, # of connection points: 4
#     Node 7, Type 0, BuildingBlock: QUQFOY_clean_sbu_1, # of connection points: 4
#     Node 8, Type 0, BuildingBlock: QUQFOY_clean_sbu_1, # of connection points: 4
#     Node 9, Type 0, BuildingBlock: QUQFOY_clean_sbu_1, # of connection points: 4
#     Node 10, Type 0, BuildingBlock: QUQFOY_clean_sbu_1, # of connection points: 4
#     Node 11, Type 0, BuildingBlock: QUQFOY_clean_sbu_1, # of connection points: 4
#     Node 12, Type 0, BuildingBlock: QUQFOY_clean_sbu_1, # of connection points: 4
#     Node 13, Type 0, BuildingBlock: QUQFOY_clean_sbu_1, # of connection points: 4
#     Node 14, Type 0, BuildingBlock: QUQFOY_clean_sbu_1, # of connection points: 4
#     Node 15, Type 0, BuildingBlock: QUQFOY_clean_sbu_1, # of connection points: 4
#     Node 16, Type 0, BuildingBlock: QUQFOY_clean_sbu_1, # of connection points: 4
#     Node 17, Type 0, BuildingBlock: QUQFOY_clean_sbu_1, # of connection points: 4
#     Node 18, Type 0, BuildingBlock: QUQFOY_clean_sbu_1, # of connection points: 4
#     Node 19, Type 0, BuildingBlock: QUQFOY_clean_sbu_1, # of connection points: 4
#     Node 20, Type 0, BuildingBlock: QUQFOY_clean_sbu_1, # of connection points: 4
#     Node 21, Type 0, BuildingBlock: QUQFOY_clean_sbu_1, # of connection points: 4
#     Node 22, Type 0, BuildingBlock: QUQFOY_clean_sbu_1, # of connection points: 4
#     Node 23, Type 0, BuildingBlock: QUQFOY_clean_sbu_1, # of connection points: 4
#     Node 24, Type 1, BuildingBlock: MIFKUJ_clean_sbu_0, # of connection points: 6
#     Node 25, Type 1, BuildingBlock: MIFKUJ_clean_sbu_0, # of connection points: 6
#     Node 26, Type 1, BuildingBlock: MIFKUJ_clean_sbu_0, # of connection points: 6
#     Node 27, Type 1, BuildingBlock: MIFKUJ_clean_sbu_0, # of connection points: 6
#     Node 28, Type 1, BuildingBlock: MIFKUJ_clean_sbu_0, # of connection points: 6
#     Node 29, Type 1, BuildingBlock: MIFKUJ_clean_sbu_0, # of connection points: 6
#     Node 30, Type 1, BuildingBlock: MIFKUJ_clean_sbu_0, # of connection points: 6
#     Node 31, Type 1, BuildingBlock: MIFKUJ_clean_sbu_0, # of connection points: 6
#     Node 32, Type 1, BuildingBlock: MIFKUJ_clean_sbu_0, # of connection points: 6
#     Node 33, Type 1, BuildingBlock: MIFKUJ_clean_sbu_0, # of connection points: 6
#     Node 34, Type 1, BuildingBlock: MIFKUJ_clean_sbu_0, # of connection points: 6
#     Node 35, Type 1, BuildingBlock: MIFKUJ_clean_sbu_0, # of connection points: 6
#     Node 36, Type 1, BuildingBlock: MIFKUJ_clean_sbu_0, # of connection points: 6
#     Node 37, Type 1, BuildingBlock: MIFKUJ_clean_sbu_0, # of connection points: 6
#     Node 38, Type 1, BuildingBlock: MIFKUJ_clean_sbu_0, # of connection points: 6
#     Node 39, Type 1, BuildingBlock: MIFKUJ_clean_sbu_0, # of connection points: 6
#     Edge 40, Type (0, 1), BuildingBlock: XIVTED_clean_linker_0, # of connection points: 2
#     Edge 41, Type (0, 1), BuildingBlock: XIVTED_clean_linker_0, # of connection points: 2
#     Edge 42, Type (0, 1), BuildingBlock: XIVTED_clean_linker_0, # of connection points: 2
#     Edge 43, Type (0, 1), BuildingBlock: XIVTED_clean_linker_0, # of connection points: 2
#     Edge 44, Type (0, 1), BuildingBlock: XIVTED_clean_linker_0, # of connection points: 2
#     Edge 45, Type (0, 1), BuildingBlock: XIVTED_clean_linker_0, # of connection points: 2
#     Edge 46, Type (0, 1), BuildingBlock: XIVTED_clean_linker_0, # of connection points: 2
#     Edge 47, Type (0, 1), BuildingBlock: XIVTED_clean_linker_0, # of connection points: 2
#     Edge 48, Type (0, 1), BuildingBlock: XIVTED_clean_linker_0, # of connection points: 2
#     Edge 49, Type (0, 1), BuildingBlock: XIVTED_clean_linker_0, # of connection points: 2
#     Edge 50, Type (0, 1), BuildingBlock: XIVTED_clean_linker_0, # of connection points: 2
#     Edge 51, Type (0, 1), BuildingBlock: XIVTED_clean_linker_0, # of connection points: 2
#     Edge 52, Type (0, 1), BuildingBlock: XIVTED_clean_linker_0, # of connection points: 2
#     Edge 53, Type (0, 1), BuildingBlock: XIVTED_clean_linker_0, # of connection points: 2
#     Edge 54, Type (0, 1), BuildingBlock: XIVTED_clean_linker_0, # of connection points: 2
#     Edge 55, Type (0, 1), BuildingBlock: XIVTED_clean_linker_0, # of connection points: 2
#     Edge 56, Type (0, 1), BuildingBlock: XIVTED_clean_linker_0, # of connection points: 2
#     Edge 57, Type (0, 1), BuildingBlock: XIVTED_clean_linker_0, # of connection points: 2
#     Edge 58, Type (0, 1), BuildingBlock: XIVTED_clean_linker_0, # of connection points: 2
#     Edge 59, Type (0, 1), BuildingBlock: XIVTED_clean_linker_0, # of connection points: 2
#     Edge 60, Type (0, 1), BuildingBlock: XIVTED_clean_linker_0, # of connection points: 2
#     Edge 61, Type (0, 1), BuildingBlock: XIVTED_clean_linker_0, # of connection points: 2
#     Edge 62, Type (0, 1), BuildingBlock: XIVTED_clean_linker_0, # of connection points: 2
#     Edge 63, Type (0, 1), BuildingBlock: XIVTED_clean_linker_0, # of connection points: 2
#     Edge 64, Type (0, 1), BuildingBlock: XIVTED_clean_linker_0, # of connection points: 2
#     Edge 65, Type (0, 1), BuildingBlock: XIVTED_clean_linker_0, # of connection points: 2
#     Edge 66, Type (0, 1), BuildingBlock: XIVTED_clean_linker_0, # of connection points: 2
#     Edge 67, Type (0, 1), BuildingBlock: XIVTED_clean_linker_0, # of connection points: 2
#     Edge 68, Type (0, 1), BuildingBlock: XIVTED_clean_linker_0, # of connection points: 2
#     Edge 69, Type (0, 1), BuildingBlock: XIVTED_clean_linker_0, # of connection points: 2
#     Edge 70, Type (0, 1), BuildingBlock: XIVTED_clean_linker_0, # of connection points: 2
#     Edge 71, Type (0, 1), BuildingBlock: XIVTED_clean_linker_0, # of connection points: 2
#     Edge 72, Type (0, 1), BuildingBlock: XIVTED_clean_linker_0, # of connection points: 2
#     Edge 73, Type (0, 1), BuildingBlock: XIVTED_clean_linker_0, # of connection points: 2
#     Edge 74, Type (0, 1), BuildingBlock: XIVTED_clean_linker_0, # of connection points: 2
#     Edge 75, Type (0, 1), BuildingBlock: XIVTED_clean_linker_0, # of connection points: 2
#     Edge 76, Type (0, 1), BuildingBlock: XIVTED_clean_linker_0, # of connection points: 2
#     Edge 77, Type (0, 1), BuildingBlock: XIVTED_clean_linker_0, # of connection points: 2
#     Edge 78, Type (0, 1), BuildingBlock: XIVTED_clean_linker_0, # of connection points: 2
#     Edge 79, Type (0, 1), BuildingBlock: XIVTED_clean_linker_0, # of connection points: 2
#     Edge 80, Type (0, 1), BuildingBlock: XIVTED_clean_linker_0, # of connection points: 2
#     Edge 81, Type (0, 1), BuildingBlock: XIVTED_clean_linker_0, # of connection points: 2
#     Edge 82, Type (0, 1), BuildingBlock: XIVTED_clean_linker_0, # of connection points: 2
#     Edge 83, Type (0, 1), BuildingBlock: XIVTED_clean_linker_0, # of connection points: 2
#     Edge 84, Type (0, 1), BuildingBlock: XIVTED_clean_linker_0, # of connection points: 2
#     Edge 85, Type (0, 1), BuildingBlock: XIVTED_clean_linker_0, # of connection points: 2
#     Edge 86, Type (0, 1), BuildingBlock: XIVTED_clean_linker_0, # of connection points: 2
#     Edge 87, Type (0, 1), BuildingBlock: XIVTED_clean_linker_0, # of connection points: 2
#     Edge 88, Type (0, 1), BuildingBlock: XIVTED_clean_linker_0, # of connection points: 2
#     Edge 89, Type (0, 1), BuildingBlock: XIVTED_clean_linker_0, # of connection points: 2
#     Edge 90, Type (0, 1), BuildingBlock: XIVTED_clean_linker_0, # of connection points: 2
#     Edge 91, Type (0, 1), BuildingBlock: XIVTED_clean_linker_0, # of connection points: 2
#     Edge 92, Type (0, 1), BuildingBlock: XIVTED_clean_linker_0, # of connection points: 2
#     Edge 93, Type (0, 1), BuildingBlock: XIVTED_clean_linker_0, # of connection points: 2
#     Edge 94, Type (0, 1), BuildingBlock: XIVTED_clean_linker_0, # of connection points: 2
#     Edge 95, Type (0, 1), BuildingBlock: XIVTED_clean_linker_0, # of connection points: 2
#     Edge 96, Type (0, 1), BuildingBlock: XIVTED_clean_linker_0, # of connection points: 2
#     Edge 97, Type (0, 1), BuildingBlock: XIVTED_clean_linker_0, # of connection points: 2
#     Edge 98, Type (0, 1), BuildingBlock: XIVTED_clean_linker_0, # of connection points: 2
#     Edge 99, Type (0, 1), BuildingBlock: XIVTED_clean_linker_0, # of connection points: 2
#     Edge 100, Type (0, 1), BuildingBlock: XIVTED_clean_linker_0, # of connection points: 2
#     Edge 101, Type (0, 1), BuildingBlock: XIVTED_clean_linker_0, # of connection points: 2
#     Edge 102, Type (0, 1), BuildingBlock: XIVTED_clean_linker_0, # of connection points: 2
#     Edge 103, Type (0, 1), BuildingBlock: XIVTED_clean_linker_0, # of connection points: 2
#     Edge 104, Type (0, 1), BuildingBlock: XIVTED_clean_linker_0, # of connection points: 2
#     Edge 105, Type (0, 1), BuildingBlock: XIVTED_clean_linker_0, # of connection points: 2
#     Edge 106, Type (0, 1), BuildingBlock: XIVTED_clean_linker_0, # of connection points: 2
#     Edge 107, Type (0, 1), BuildingBlock: XIVTED_clean_linker_0, # of connection points: 2
#     Edge 108, Type (0, 1), BuildingBlock: XIVTED_clean_linker_0, # of connection points: 2
#     Edge 109, Type (0, 1), BuildingBlock: XIVTED_clean_linker_0, # of connection points: 2
#     Edge 110, Type (0, 1), BuildingBlock: XIVTED_clean_linker_0, # of connection points: 2
#     Edge 111, Type (0, 1), BuildingBlock: XIVTED_clean_linker_0, # of connection points: 2
#     Edge 112, Type (0, 1), BuildingBlock: XIVTED_clean_linker_0, # of connection points: 2
#     Edge 113, Type (0, 1), BuildingBlock: XIVTED_clean_linker_0, # of connection points: 2
#     Edge 114, Type (0, 1), BuildingBlock: XIVTED_clean_linker_0, # of connection points: 2
#     Edge 115, Type (0, 1), BuildingBlock: XIVTED_clean_linker_0, # of connection points: 2
#     Edge 116, Type (0, 1), BuildingBlock: XIVTED_clean_linker_0, # of connection points: 2
#     Edge 117, Type (0, 1), BuildingBlock: XIVTED_clean_linker_0, # of connection points: 2
#     Edge 118, Type (0, 1), BuildingBlock: XIVTED_clean_linker_0, # of connection points: 2
#     Edge 119, Type (0, 1), BuildingBlock: XIVTED_clean_linker_0, # of connection points: 2
#     Edge 120, Type (0, 1), BuildingBlock: XIVTED_clean_linker_0, # of connection points: 2
#     Edge 121, Type (0, 1), BuildingBlock: XIVTED_clean_linker_0, # of connection points: 2
#     Edge 122, Type (0, 1), BuildingBlock: XIVTED_clean_linker_0, # of connection points: 2
#     Edge 123, Type (0, 1), BuildingBlock: XIVTED_clean_linker_0, # of connection points: 2
#     Edge 124, Type (0, 1), BuildingBlock: XIVTED_clean_linker_0, # of connection points: 2
#     Edge 125, Type (0, 1), BuildingBlock: XIVTED_clean_linker_0, # of connection points: 2
#     Edge 126, Type (0, 1), BuildingBlock: XIVTED_clean_linker_0, # of connection points: 2
#     Edge 127, Type (0, 1), BuildingBlock: XIVTED_clean_linker_0, # of connection points: 2
#     Edge 128, Type (0, 1), BuildingBlock: XIVTED_clean_linker_0, # of connection points: 2
#     Edge 129, Type (0, 1), BuildingBlock: XIVTED_clean_linker_0, # of connection points: 2
#     Edge 130, Type (0, 1), BuildingBlock: XIVTED_clean_linker_0, # of connection points: 2
#     Edge 131, Type (0, 1), BuildingBlock: XIVTED_clean_linker_0, # of connection points: 2
#     Edge 132, Type (0, 1), BuildingBlock: XIVTED_clean_linker_0, # of connection points: 2
#     Edge 133, Type (0, 1), BuildingBlock: XIVTED_clean_linker_0, # of connection points: 2
#     Edge 134, Type (0, 1), BuildingBlock: XIVTED_clean_linker_0, # of connection points: 2
#     Edge 135, Type (0, 1), BuildingBlock: XIVTED_clean_linker_0, # of connection points: 2
# Relax obj value: 0.116
# Max RMSD: 0.292
# Mean RMSD: 0.169
data_MOF--net-gar--node1-QUQFOY_clean_sbu_1--node2-MIFKUJ_clean_sbu_0--edge1-XIVTED_clean_linker_0
_symmetry_space_group_name_H-M    P1
_symmetry_Int_Tables_number       1
_symmetry_cell_setting            triclinic
loop_
_symmetry_equiv_pos_as_xyz
'x, y, z'
_cell_length_a     57.806784
_cell_length_b     57.787726
_cell_length_c     55.504096
_cell_angle_alpha  95.148785
_cell_angle_beta   95.109871
_cell_angle_gamma 101.80759
loop_
_atom_site_label
_atom_site_type_symbol
_atom_site_fract_x
_atom_site_fract_y
_atom_site_fract_z
_atom_type_partial_charge
O0 O 0.02194 0.22639 0.39909 0.0
Cd1 Cd 0.02355 0.254 0.37786 0.0
Cd2 Cd 0.01595 0.2764 0.42205 0.0
O3 O 0.01876 0.24484 0.43478 0.0
O4 O 0.03568 0.24105 0.3482 0.0
O5 O 0.05553 0.27284 0.37227 0.0
C6 C 0.05459 0.25758 0.35351 0.0
C7 C 0.03548 0.31157 0.44505 0.0
C8 C 0.02054 0.22623 0.42178 0.0
C9 C 0.97919 0.27321 0.37919 0.0
O10 O 0.98493 0.27837 0.40196 0.0
O11 O 0.99262 0.26406 0.36602 0.0
O12 O 0.01728 0.29809 0.45208 0.0
O13 O 0.0432 0.30468 0.42505 0.0
O14 O 0.98619 0.70102 0.62973 0.0
Cd15 Cd 0.99615 0.73213 0.6531 0.0
Cd16 Cd 0.01322 0.75007 0.61389 0.0
O17 O 0.99788 0.71675 0.59693 0.0
O18 O 0.97604 0.72963 0.68047 0.0
O19 O 0.97506 0.75574 0.6537 0.0
C20 C 0.96726 0.74675 0.67269 0.0
C21 C 0.00726 0.78253 0.59415 0.0
C22 C 0.9884 0.69889 0.60708 0.0
C23 C 0.04865 0.74907 0.65681 0.0
O24 O 0.04517 0.75379 0.63504 0.0
O25 O 0.03116 0.7409 0.66816 0.0
O26 O 0.02138 0.76945 0.5868 0.0
O27 O 0.9963 0.77704 0.61281 0.0
O28 O 0.56744 0.75325 0.8947 0.0
Cd29 Cd 0.54245 0.76205 0.91614 0.0
Cd30 Cd 0.52687 0.7772 0.87441 0.0
O31 O 0.55212 0.76157 0.85949 0.0
O32 O 0.54464 0.74446 0.94515 0.0
O33 O 0.51305 0.73723 0.91772 0.0
C34 C 0.52364 0.73217 0.93742 0.0
C35 C 0.48674 0.76678 0.86004 0.0
C36 C 0.56772 0.75353 0.87184 0.0
C37 C 0.54336 0.8139 0.91736 0.0
O38 O 0.53763 0.80995 0.89449 0.0
O39 O 0.54518 0.79686 0.92982 0.0
O40 O 0.50171 0.78019 0.84856 0.0
O41 O 0.49486 0.75841 0.87909 0.0
O42 O 0.48419 0.19766 0.11889 0.0
Cd43 Cd 0.49404 0.22736 0.14407 0.0
Cd44 Cd 0.51091 0.24842 0.10627 0.0
O45 O 0.49698 0.21551 0.08761 0.0
O46 O 0.47391 0.22307 0.17128 0.0
O47 O 0.47306 0.25089 0.14637 0.0
C48 C 0.46524 0.24072 0.16475 0.0
C49 C 0.50444 0.28172 0.08843 0.0
C50 C 0.48717 0.1969 0.09643 0.0
C51 C 0.54627 0.24623 0.14864 0.0
O52 O 0.54269 0.25264 0.12759 0.0
O53 O 0.52896 0.23598 0.15911 0.0
O54 O 0.51897 0.26943 0.08049 0.0
O55 O 0.49313 0.27481 0.10645 0.0
O56 O 0.02323 0.72601 0.15405 0.0
Cd57 Cd 0.02653 0.75773 0.17557 0.0
Cd58 Cd 0.04479 0.77583 0.13676 0.0
O59 O 0.03666 0.74081 0.12148 0.0
O60 O 0.00593 0.74988 0.20184 0.0
O61 O -0.0002 0.77499 0.1753 0.0
C62 C 0.99336 0.76414 0.19377 0.0
C63 C 0.03023 0.80436 0.11641 0.0
C64 C 0.02834 0.723 0.13236 0.0
C65 C 0.07738 0.78368 0.18336 0.0
O66 O 0.0754 0.78642 0.16083 0.0
O67 O 0.0596 0.77327 0.19306 0.0
O68 O 0.04778 0.79587 0.10932 0.0
O69 O 0.02082 0.79654 0.13517 0.0
O70 O 0.54997 0.75956 0.38933 0.0
Cd71 Cd 0.52019 0.75322 0.40744 0.0
Cd72 Cd 0.49906 0.76202 0.36497 0.0
O73 O 0.53163 0.76124 0.35318 0.0
O74 O 0.52771 0.73397 0.43393 0.0
O75 O 0.50065 0.72003 0.40232 0.0
C76 C 0.51246 0.7163 0.42198 0.0
C77 C 0.46475 0.74191 0.34077 0.0
C78 C 0.55051 0.76118 0.3667 0.0
C79 C 0.49877 0.79582 0.4095 0.0
O80 O 0.49511 0.79162 0.38646 0.0
O81 O 0.50774 0.7818 0.42201 0.0
O82 O 0.47766 0.761 0.33474 0.0
O83 O 0.47181 0.73363 0.36034 0.0
O84 O 0.52006 0.24091 0.66366 0.0
Cd85 Cd 0.52495 0.27221 0.68624 0.0
Cd86 Cd 0.544 0.2909 0.64797 0.0
O87 O 0.53496 0.25627 0.632 0.0
O88 O 0.50431 0.2641 0.71242 0.0
O89 O 0.49906 0.29054 0.68711 0.0
C90 C 0.49222 0.27904 0.70503 0.0
C91 C 0.53061 0.31976 0.62715 0.0
C92 C 0.52549 0.23833 0.64205 0.0
C93 C 0.57654 0.29608 0.69425 0.0
O94 O 0.57466 0.29999 0.67204 0.0
O95 O 0.5585 0.28582 0.70369 0.0
O96 O 0.54815 0.31091 0.62062 0.0
O97 O 0.52078 0.31239 0.64588 0.0
O98 O 0.01538 0.20346 0.89576 0.0
Cd99 Cd 0.00703 0.22533 0.87018 0.0
Cd100 Cd 0.99314 0.24714 0.91021 0.0
O101 O 0.00698 0.22293 0.92874 0.0
O102 O 0.02172 0.21488 0.84132 0.0
O103 O 0.03285 0.25105 0.86099 0.0
C104 C 0.03539 0.23574 0.84352 0.0
C105 C 0.00383 0.28774 0.92265 0.0
C106 C 0.01462 0.20579 0.91867 0.0
C107 C 0.95559 0.22723 0.8687 0.0
O108 O 0.96017 0.23586 0.89088 0.0
O109 O 0.97208 0.2227 0.85662 0.0
O110 O 0.98986 0.27352 0.93432 0.0
O111 O 0.01261 0.27865 0.90433 0.0
O112 O 0.39127 0.01187 0.21693 0.0
Cd113 Cd 0.3689 0.01339 0.24372 0.0
Cd114 Cd 0.40957 0.01485 0.27512 0.0
O115 O 0.4238 0.01983 0.24285 0.0
O116 O 0.34336 0.02998 0.23319 0.0
O117 O 0.37158 0.0444 0.26376 0.0
C118 C 0.35299 0.04683 0.25022 0.0
C119 C 0.43665 0.03116 0.30927 0.0
C120 C 0.4138 0.01642 0.22117 0.0
C121 C 0.36749 0.9723 0.27201 0.0
O122 O 0.38896 0.98209 0.27966 0.0
O123 O 0.35524 0.98238 0.2578 0.0
O124 O 0.43933 0.01334 0.29506 0.0
O125 O 0.41836 0.04013 0.30419 0.0
O126 O 0.27186 0.13462 0.54883 0.0
Cd127 Cd 0.26797 0.11338 0.51605 0.0
Cd128 Cd 0.25191 0.15114 0.49932 0.0
O129 O 0.26139 0.16604 0.53505 0.0
O130 O 0.28697 0.08888 0.52198 0.0
O131 O 0.29544 0.11534 0.4959 0.0
C132 C 0.30057 0.09767 0.5064 0.0
C133 C 0.26289 0.17416 0.46786 0.0
C134 C 0.2685 0.15566 0.55263 0.0
C135 C 0.21716 0.10358 0.49461 0.0
O136 O 0.22061 0.12568 0.4922 0.0
O137 O 0.23414 0.09466 0.50297 0.0
O138 O 0.24642 0.178 0.48091 0.0
O139 O 0.27355 0.1573 0.47289 0.0
O140 O 0.13841 0.00103 0.73386 0.0
Cd141 Cd 0.16018 0.00521 0.76627 0.0
Cd142 Cd 0.12012 0.01914 0.78349 0.0
O143 O 0.10598 0.00923 0.74761 0.0
O144 O 0.18615 0.98855 0.75837 0.0
O145 O 0.16108 0.97696 0.78491 0.0
C146 C 0.17875 0.97359 0.77333 0.0
C147 C 0.09569 0.00791 0.81405 0.0
C148 C 0.11697 0.0032 0.73004 0.0
C149 C 0.16676 0.05595 0.78783 0.0
O150 O 0.14465 0.05122 0.79032 0.0
O151 O 0.17686 0.03971 0.77975 0.0
O152 O 0.09232 0.02433 0.80074 0.0
O153 O 0.11305 0.99764 0.81004 0.0
O154 O 0.25458 0.88999 0.06082 0.0
Cd155 Cd 0.25224 0.90706 0.03004 0.0
Cd156 Cd 0.25387 0.86438 0.0065 0.0
O157 O 0.25185 0.85465 0.04086 0.0
O158 O 0.23577 0.93342 0.03694 0.0
O159 O 0.22102 0.90195 0.00989 0.0
C160 C 0.21871 0.92186 0.02103 0.0
C161 C 0.23518 0.83535 0.97501 0.0
C162 C 0.25349 0.86781 0.06075 0.0
C163 C 0.2943 0.90636 0.00371 0.0
O164 O 0.28576 0.88418 -0.00099 0.0
O165 O 0.28315 0.91958 0.01546 0.0
O166 O 0.25362 0.83308 0.98856 0.0
O167 O 0.22681 0.85415 0.97958 0.0
O168 O 0.24798 0.37539 0.08631 0.0
Cd169 Cd 0.25284 0.3988 0.05994 0.0
Cd170 Cd 0.26479 0.3603 0.03573 0.0
O171 O 0.25404 0.34325 0.06539 0.0
O172 O 0.23553 0.42429 0.06907 0.0
O173 O 0.22626 0.40068 0.03445 0.0
C174 C 0.22226 0.41809 0.04864 0.0
C175 C 0.25286 0.34289 0.99572 0.0
C176 C 0.2489 0.35347 0.08485 0.0
C177 C 0.3029 0.40548 0.04788 0.0
O178 O 0.29751 0.3835 0.03997 0.0
O179 O 0.2873 0.41571 0.05614 0.0
O180 O 0.26789 0.33521 0.0098 0.0
O181 O 0.24356 0.35978 0.00481 0.0
O182 O 0.79788 0.14312 0.09773 0.0
Cd183 Cd 0.78431 0.12079 0.06611 0.0
Cd184 Cd 0.77494 0.16067 0.05014 0.0
O185 O 0.794 0.17628 0.08256 0.0
O186 O 0.8003 0.09341 0.06313 0.0
O187 O 0.80338 0.12114 0.03776 0.0
C188 C 0.80866 0.1017 0.04407 0.0
C189 C 0.78064 0.1785 0.01457 0.0
C190 C 0.80071 0.16567 0.10012 0.0
C191 C 0.73329 0.12062 0.05434 0.0
O192 O 0.74064 0.14215 0.05072 0.0
O193 O 0.74804 0.10794 0.06005 0.0
O194 O 0.77028 0.18755 0.03154 0.0
O195 O 0.78888 0.15984 0.01834 0.0
O196 O 0.11532 0.4674 0.19861 0.0
Cd197 Cd 0.13926 0.48285 0.22846 0.0
Cd198 Cd 0.1004 0.49396 0.24485 0.0
O199 O 0.08306 0.47426 0.21363 0.0
O200 O 0.16813 0.46987 0.22491 0.0
O201 O 0.14682 0.46406 0.25588 0.0
C202 C 0.16498 0.46081 0.24507 0.0
C203 C 0.08506 0.48771 0.28135 0.0
C204 C 0.09291 0.46557 0.1965 0.0
C205 C 0.13953 0.53461 0.23744 0.0
O206 O 0.11842 0.52815 0.24268 0.0
O207 O 0.15148 0.51918 0.23179 0.0
O208 O 0.07498 0.49832 0.26531 0.0
O209 O 0.10368 0.4799 0.27626 0.0
O210 O 0.7552 0.87422 0.59021 0.0
Cd211 Cd 0.76141 0.89754 0.56404 0.0
Cd212 Cd 0.77374 0.85856 0.54107 0.0
O213 O 0.76123 0.84169 0.57008 0.0
O214 O 0.74448 0.92315 0.57344 0.0
O215 O 0.7352 0.89995 0.53851 0.0
C216 C 0.7312 0.91713 0.55301 0.0
C217 C 0.76324 0.84162 0.50085 0.0
C218 C 0.75545 0.85218 0.58903 0.0
C219 C 0.81184 0.90351 0.55343 0.0
O220 O 0.80658 0.88134 0.54641 0.0
O221 O 0.79603 0.9141 0.56053 0.0
O222 O 0.77738 0.83344 0.51552 0.0
O223 O 0.7539 0.85867 0.50948 0.0
O224 O 0.89268 0.01867 0.19198 0.0
Cd225 Cd 0.87101 0.01372 0.21974 0.0
Cd226 Cd 0.91007 0.00195 0.24224 0.0
O227 O 0.92565 0.01341 0.21197 0.0
O228 O 0.84625 0.03306 0.21567 0.0
O229 O 0.87413 0.03976 0.24704 0.0
C230 C 0.85578 0.04541 0.23598 0.0
C231 C 0.92824 0.01317 0.2821 0.0
C232 C 0.91469 0.01832 0.1928 0.0
C233 C 0.86484 0.9638 0.23166 0.0
O234 O 0.88708 0.9692 0.23828 0.0
O235 O 0.85415 0.9794 0.22424 0.0
O236 O 0.93587 -0.00137 0.26736 0.0
O237 O 0.91117 0.02257 0.27369 0.0
O238 O 0.3076 0.65251 0.58672 0.0
Cd239 Cd 0.2947 0.62976 0.55506 0.0
Cd240 Cd 0.2787 0.66741 0.54297 0.0
O241 O 0.30032 0.68513 0.57279 0.0
O242 O 0.31129 0.60279 0.55443 0.0
O243 O 0.31458 0.62886 0.52734 0.0
C244 C 0.31987 0.60995 0.53507 0.0
C245 C 0.2812 0.681 0.50519 0.0
C246 C 0.30908 0.67491 0.58956 0.0
C247 C 0.2421 0.62493 0.5486 0.0
O248 O 0.24624 0.64731 0.54823 0.0
O249 O 0.25903 0.61399 0.54932 0.0
O250 O 0.27146 0.69147 0.5218 0.0
O251 O 0.2903 0.66319 0.51046 0.0
O252 O 0.39688 0.52202 0.69589 0.0
Cd253 Cd 0.37241 0.51537 0.72115 0.0
Cd254 Cd 0.4104 0.50291 0.74561 0.0
O255 O 0.42843 0.51525 0.71719 0.0
O256 O 0.34704 0.53286 0.71223 0.0
O257 O 0.36995 0.5411 0.74732 0.0
C258 C 0.35287 0.54555 0.73304 0.0
C259 C 0.42602 0.51364 0.78621 0.0
C260 C 0.41887 0.52143 0.69796 0.0
C261 C 0.36569 0.46476 0.73191 0.0
O262 O 0.3876 0.47006 0.73997 0.0
O263 O 0.35553 0.48054 0.72395 0.0
O264 O 0.43464 0.49939 0.77209 0.0
O265 O 0.4093 0.52298 0.77683 0.0
O266 O 0.62634 0.97274 0.6902 0.0
Cd267 Cd 0.64779 0.98388 0.72279 0.0
Cd268 Cd 0.60741 0.99215 0.73854 0.0
O269 O 0.59263 0.97519 0.70497 0.0
O270 O 0.67469 0.96713 0.72563 0.0
O271 O 0.64554 0.96267 0.74936 0.0
C272 C 0.66512 0.9574 0.74345 0.0
C273 C 0.58803 0.98433 0.77285 0.0
C274 C 0.60381 0.96997 0.68727 0.0
C275 C 0.64786 0.03439 0.73741 0.0
O276 O 0.62618 0.02671 0.74026 0.0
O277 O 0.66072 0.01996 0.73126 0.0
O278 O 0.57987 0.99593 0.7565 0.0
O279 O 0.60671 0.97611 0.76913 0.0
O280 O 0.76815 0.63283 0.04963 0.0
Cd281 Cd 0.76421 0.6115 0.017 0.0
Cd282 Cd 0.74984 0.65122 0.00027 0.0
O283 O 0.75927 0.66513 0.03625 0.0
O284 O 0.78105 0.58559 0.02463 0.0
O285 O 0.79269 0.61115 0.99855 0.0
C286 C 0.79612 0.59337 0.00992 0.0
C287 C 0.76263 0.67532 0.97007 0.0
C288 C 0.76559 0.65413 0.05367 0.0
C289 C 0.71348 0.60443 0.99494 0.0
O290 O 0.71787 0.62659 0.99263 0.0
O291 O 0.72988 0.59463 0.0032 0.0
O292 O 0.74587 0.67915 0.98271 0.0
O293 O 0.77227 0.65764 0.97454 0.0
O294 O 0.88051 0.50858 0.72384 0.0
Cd295 Cd 0.86123 0.51351 0.75253 0.0
Cd296 Cd 0.9031 0.51771 0.7805 0.0
O297 O 0.91452 0.52198 0.74693 0.0
O298 O 0.83602 0.53079 0.74329 0.0
O299 O 0.86741 0.54587 0.77037 0.0
C300 C 0.84805 0.54843 0.7583 0.0
C301 C 0.93068 0.53764 0.81276 0.0
C302 C 0.90297 0.51537 0.72611 0.0
C303 C 0.86268 0.47517 0.78323 0.0
O304 O 0.88467 0.48479 0.7878 0.0
O305 O 0.8489 0.48481 0.77031 0.0
O306 O 0.93436 0.51974 0.79935 0.0
O307 O 0.91114 0.54464 0.80779 0.0
O308 O 0.76041 0.3875 0.56698 0.0
Cd309 Cd 0.75838 0.40599 0.53708 0.0
Cd310 Cd 0.76259 0.36349 0.51272 0.0
O311 O 0.76047 0.35283 0.54689 0.0
O312 O 0.74306 0.43278 0.54668 0.0
O313 O 0.72672 0.40325 0.51805 0.0
C314 C 0.72534 0.42267 0.53085 0.0
C315 C 0.74477 0.33496 0.48032 0.0
C316 C 0.76061 0.36554 0.56678 0.0
C317 C 0.80159 0.40728 0.51141 0.0
O318 O 0.79396 0.385 0.50616 0.0
O319 O 0.78957 0.41961 0.52316 0.0
O320 O 0.76346 0.33299 0.49368 0.0
O321 O 0.73571 0.3532 0.48551 0.0
O322 O 0.63872 0.5022 0.23601 0.0
Cd323 Cd 0.65992 0.50537 0.26865 0.0
Cd324 Cd 0.62138 0.5201 0.28587 0.0
O325 O 0.60672 0.51116 0.25001 0.0
O326 O 0.68506 0.4874 0.26152 0.0
O327 O 0.65893 0.47705 0.28748 0.0
C328 C 0.6767 0.47287 0.2765 0.0
C329 C 0.59891 0.50706 0.31711 0.0
C330 C 0.6175 0.50506 0.23229 0.0
C331 C 0.66837 0.55586 0.29123 0.0
O332 O 0.64623 0.55188 0.29351 0.0
O333 O 0.67776 0.53925 0.28272 0.0
O334 O 0.59415 0.52364 0.3047 0.0
O335 O 0.6164 0.49753 0.3116 0.0
Zn336 Zn 0.02168 0.98525 0.01378 0.0
Zn337 Zn 0.97465 0.014 0.98988 0.0
C338 C 0.00624 0.95004 0.04522 0.0
O339 O 0.0128 0.96885 0.06135 0.0
C340 C 0.01283 0.05594 0.98932 0.0
O341 O 0.02462 0.04068 0.98027 0.0
O342 O 0.05667 0.9861 0.01933 0.0
O343 O 0.016 0.98662 0.97734 0.0
O344 O 0.98578 -0.0006 0.95985 0.0
C345 C 0.06164 0.96894 0.00623 0.0
O346 O 0.04437 0.95424 0.99212 0.0
O347 O 0.00689 0.95265 0.02274 0.0
C348 C 0.93466 0.03325 0.97312 0.0
O349 O 0.95085 0.04746 0.96301 0.0
O350 O 0.94048 0.01632 0.98367 0.0
O351 O 0.97583 0.99749 0.02015 0.0
O352 O 0.01236 0.00991 0.03721 0.0
O353 O 0.99259 0.04825 0.99633 0.0
C354 C 0.0041 0.99057 0.95832 0.0
C355 C 0.99023 0.00839 0.03811 0.0
Zn356 Zn 0.25714 0.7436 0.29333 0.0
Zn357 Zn 0.27499 0.76179 0.24824 0.0
C358 C 0.21836 0.70572 0.27578 0.0
O359 O 0.20746 0.71974 0.28838 0.0
C360 C 0.30908 0.80034 0.27458 0.0
O361 O 0.32342 0.78918 0.2634 0.0
O362 O 0.25357 0.73888 0.32819 0.0
O363 O 0.29261 0.74682 0.29257 0.0
O364 O 0.29389 0.73713 0.25359 0.0
C365 C 0.26139 0.72089 0.33403 0.0
O366 O 0.26891 0.70773 0.31714 0.0
O367 O 0.2405 0.71245 0.27442 0.0
C368 C 0.27255 0.79374 0.21502 0.0
O369 O 0.26361 0.80264 0.23378 0.0
O370 O 0.28002 0.77461 0.21637 0.0
O371 O 0.23984 0.75188 0.24598 0.0
O372 O 0.23939 0.76864 0.2828 0.0
O373 O 0.28711 0.79065 0.27291 0.0
C374 C 0.30241 0.73776 0.27554 0.0
C375 C 0.23041 0.76419 0.26071 0.0
Zn376 Zn 0.49877 0.03812 0.51685 0.0
Zn377 Zn 0.54872 0.00215 0.49713 0.0
C378 C 0.50294 0.07481 0.55395 0.0
O379 O 0.48806 0.05739 0.56169 0.0
C380 C 0.51046 0.96172 0.47554 0.0
O381 O 0.50363 0.97663 0.46135 0.0
O382 O 0.46353 0.03626 0.50854 0.0
O383 O 0.51513 0.03359 0.48599 0.0
O384 O 0.54203 0.01863 0.46762 0.0
C385 C 0.45844 0.05442 0.49971 0.0
O386 O 0.47586 0.0717 0.49579 0.0
O387 O 0.51153 0.0709 0.53407 0.0
C388 C 0.5855 0.98005 0.5141 0.0
O389 O 0.56675 0.96636 0.52098 0.0
O390 O 0.58288 0.99789 0.50302 0.0
O391 O 0.53861 0.02111 0.52447 0.0
O392 O 0.50562 0.01534 0.54102 0.0
O393 O 0.52788 0.96918 0.4919 0.0
C394 C 0.52566 0.03049 0.46708 0.0
C395 C 0.5261 0.01094 0.53964 0.0
Zn396 Zn 0.28597 0.26046 0.76791 0.0
Zn397 Zn 0.23512 0.26948 0.77003 0.0
C398 C 0.28165 0.23023 0.72544 0.0
O399 O 0.29132 0.21938 0.74221 0.0
C400 C 0.23726 0.29711 0.81522 0.0
O401 O 0.22671 0.30927 0.80044 0.0
O402 O 0.32131 0.26191 0.77087 0.0
O403 O 0.28396 0.29441 0.7776 0.0
O404 O 0.25336 0.29455 0.7515 0.0
C405 C 0.33143 0.27653 0.75723 0.0
O406 O 0.31838 0.28811 0.74434 0.0
O407 O 0.27612 0.24993 0.73187 0.0
C408 C 0.18745 0.25433 0.77555 0.0
O409 O 0.1974 0.23901 0.78643 0.0
O410 O 0.20037 0.27053 0.76567 0.0
O411 O 0.23636 0.2348 0.76196 0.0
O412 O 0.26867 0.23459 0.78605 0.0
O413 O 0.24408 0.27891 0.80627 0.0
C414 C 0.27346 0.3051 0.7625 0.0
C415 C 0.24822 0.22395 0.7758 0.0
Zn416 Zn 0.01572 0.98009 0.51352 0.0
Zn417 Zn 0.00514 0.02917 0.50622 0.0
C418 C 0.04692 0.98795 0.55561 0.0
O419 O 0.05797 0.97803 0.53919 0.0
C420 C 0.97617 0.02213 0.46172 0.0
O421 O 0.96424 0.0331 0.47639 0.0
O422 O 0.01492 0.94509 0.51353 0.0
O423 O 0.98141 0.98111 0.50408 0.0
O424 O 0.9805 0.01389 0.52673 0.0
C425 C 0.00079 0.93623 0.52826 0.0
O426 O 0.98907 0.95007 0.53992 0.0
O427 O 0.02675 0.99237 0.549 0.0
C428 C 0.01909 0.07208 0.4901 0.0
O429 O 0.03025 0.05765 0.47846 0.0
O430 O 0.00557 0.06399 0.50566 0.0
O431 O 0.03942 0.02883 0.51598 0.0
O432 O 0.04103 0.99597 0.49371 0.0
O433 O 0.99493 0.01626 0.47065 0.0
C434 C 0.97052 0.9928 0.51796 0.0
C435 C 0.05077 0.0171 0.5027 0.0
Zn436 Zn 0.25362 0.78082 0.7684 0.0
Zn437 Zn 0.26874 0.72903 0.78487 0.0
C438 C 0.21724 0.76802 0.72949 0.0
O439 O 0.23405 0.78106 0.71904 0.0
C440 C 0.31065 0.74136 0.8162 0.0
O441 O 0.29644 0.72723 0.82844 0.0
O442 O 0.25231 0.81574 0.76754 0.0
O443 O 0.2531 0.77593 0.80382 0.0
O444 O 0.24786 0.73768 0.80974 0.0
C445 C 0.23388 0.82009 0.77648 0.0
O446 O 0.21918 0.80251 0.78415 0.0
O447 O 0.22188 0.76364 0.75119 0.0
C448 C 0.28797 0.69042 0.77033 0.0
O449 O 0.3009 0.70835 0.76136 0.0
O450 O 0.27135 0.6942 0.78277 0.0
O451 O 0.25862 0.73521 0.75103 0.0
O452 O 0.27919 0.77117 0.74954 0.0
O453 O 0.30222 0.74691 0.7961 0.0
C454 C 0.24668 0.759 0.81661 0.0
C455 C 0.274 0.74929 0.74135 0.0
Zn456 Zn 0.52112 0.0142 0.98187 0.0
Zn457 Zn 0.5098 -0.0012 0.03079 0.0
C458 C 0.56285 0.04757 -0.00035 0.0
O459 O 0.55101 0.06036 0.98693 0.0
C460 C 0.46724 0.96534 0.01344 0.0
O461 O 0.47952 0.95104 0.02312 0.0
O462 O 0.52611 0.01623 0.94669 0.0
O463 O 0.51009 0.97934 0.98252 0.0
O464 O 0.53118 0.9784 0.017 0.0
C465 C 0.5419 0.00498 0.94081 0.0
O466 O 0.55345 0.99605 0.95788 0.0
O467 O 0.5534 0.0259 0.00084 0.0
C468 C 0.51257 0.00876 0.08311 0.0
O469 O 0.52776 0.02822 0.07994 0.0
O470 O 0.50488 0.99298 0.06516 0.0
O471 O 0.51716 0.03422 0.03057 0.0
O472 O 0.49987 0.03517 0.99374 0.0
O473 O 0.47689 0.98717 0.01373 0.0
C474 C 0.52336 0.96921 0.99542 0.0
C475 C 0.50497 0.04392 0.01588 0.0
Zn476 Zn 0.2802 0.24032 0.26164 0.0
Zn477 Zn 0.25608 0.29038 0.28658 0.0
C478 C 0.31653 0.25744 0.23253 0.0
O479 O 0.29845 0.25003 0.21563 0.0
C480 C 0.20879 0.25914 0.28737 0.0
O481 O 0.22 0.24352 0.29597 0.0
O482 O 0.28056 0.20546 0.25395 0.0
O483 O 0.27789 0.24414 0.29803 0.0
O484 O 0.26807 0.27617 0.31567 0.0
C485 C 0.29747 0.20033 0.26733 0.0
O486 O 0.3108 0.21717 0.2831 0.0
O487 O 0.31304 0.25645 0.25476 0.0
C488 C 0.24771 0.33343 0.277 0.0
O489 O 0.23893 0.31894 0.25727 0.0
O490 O 0.25763 0.32544 0.29488 0.0
O491 O 0.27218 0.28748 0.25586 0.0
O492 O 0.2566 0.25155 0.23831 0.0
O493 O 0.22067 0.27799 0.28061 0.0
C494 C 0.27456 0.25655 0.31701 0.0
C495 C 0.26075 0.27393 0.2375 0.0
Zn496 Zn 0.51227 0.48435 0.01791 0.0
Zn497 Zn 0.49827 0.53184 0.01076 0.0
C498 C 0.54405 0.49427 0.05954 0.0
O499 O 0.55555 0.48528 0.04292 0.0
C500 C 0.4676 0.5216 0.9666 0.0
O501 O 0.45438 0.53106 0.98104 0.0
O502 O 0.51332 0.44978 0.01824 0.0
O503 O 0.47753 0.48282 0.00848 0.0
O504 O 0.47557 0.51446 0.03224 0.0
C505 C 0.49973 0.44045 0.03321 0.0
O506 O 0.48777 0.45376 0.04527 0.0
O507 O 0.5233 0.49743 0.05318 0.0
C508 C 0.50207 0.57518 0.99291 0.0
O509 O 0.51301 0.56338 0.97792 0.0
O510 O 0.49404 0.56558 0.01105 0.0
O511 O 0.53382 0.53508 0.01709 0.0
O512 O 0.53631 0.50097 0.99746 0.0
O513 O 0.48745 0.51808 0.97563 0.0
C514 C 0.46612 0.4935 0.02266 0.0
C515 C 0.54536 0.52273 0.00465 0.0
Zn516 Zn 0.74596 0.27812 0.27123 0.0
Zn517 Zn 0.77118 0.22622 0.29017 0.0
C518 C 0.71219 0.27062 0.22977 0.0
O519 O 0.72917 0.28609 0.22211 0.0
C520 C 0.81134 0.26023 0.31741 0.0
O521 O 0.79614 0.26301 0.33307 0.0
O522 O 0.74603 0.31335 0.27531 0.0
O523 O 0.74226 0.26537 0.30401 0.0
O524 O 0.75217 0.23319 0.31733 0.0
C525 C 0.72735 0.31773 0.28357 0.0
O526 O 0.71133 0.2999 0.289 0.0
O527 O 0.71573 0.26347 0.25046 0.0
C528 C 0.79242 0.18627 0.29752 0.0
O529 O 0.80594 0.20186 0.31434 0.0
O530 O 0.77491 0.19205 0.2858 0.0
O531 O 0.757 0.23439 0.25912 0.0
O532 O 0.77239 0.27058 0.25251 0.0
O533 O 0.8043 0.2464 0.29784 0.0
C534 C 0.74292 0.25131 0.32038 0.0
C535 C 0.77174 0.24848 0.24877 0.0
Zn536 Zn 0.02767 0.51645 0.49447 0.0
Zn537 Zn 0.01603 0.50334 0.54308 0.0
C538 C 0.07274 0.54805 0.50094 0.0
O539 O 0.0631 0.55582 0.4818 0.0
C540 C 0.97406 0.4704 0.52293 0.0
O541 O 0.98549 0.45627 0.5341 0.0
O542 O 0.02914 0.51663 0.45848 0.0
O543 O 0.02081 0.48116 0.49708 0.0
O544 O 0.03802 0.48214 0.53409 0.0
C545 C 0.04501 0.50584 0.45184 0.0
O546 O 0.05824 0.49815 0.46851 0.0
O547 O 0.06085 0.53087 0.51039 0.0
C548 C 0.9929 0.51251 0.58221 0.0
O549 O 0.98515 0.52492 0.56581 0.0
O550 O 0.00777 0.49992 0.57703 0.0
O551 O 0.02766 0.53827 0.54216 0.0
O552 O 0.00656 0.53772 0.50725 0.0
O553 O 0.98414 0.49212 0.52302 0.0
C554 C 0.03288 0.47211 0.51246 0.0
C555 C 0.01468 0.54804 0.52843 0.0
Zn556 Zn 0.7931 0.75627 0.27006 0.0
Zn557 Zn 0.7445 0.76731 0.27679 0.0
C558 C 0.78453 0.72467 0.22819 0.0
O559 O 0.79438 0.71351 0.24454 0.0
C560 C 0.75339 0.79716 0.32068 0.0
O561 O 0.74305 0.80946 0.30589 0.0
O562 O 0.82797 0.75626 0.27022 0.0
O563 O 0.7928 0.79084 0.2788 0.0
O564 O 0.76011 0.79158 0.25593 0.0
C565 C 0.83741 0.77003 0.25547 0.0
O566 O 0.82415 0.7821 0.2435 0.0
O567 O 0.78057 0.74505 0.23478 0.0
C568 C 0.70197 0.75578 0.29464 0.0
O569 O 0.71584 0.74373 0.30576 0.0
O570 O 0.71007 0.7684 0.27837 0.0
O571 O 0.7438 0.73257 0.26795 0.0
O572 O 0.77686 0.73151 0.29021 0.0
O573 O 0.75818 0.77776 0.31199 0.0
C574 C 0.78111 0.80169 0.2649 0.0
C575 C 0.75573 0.72154 0.28143 0.0
Zn576 Zn 0.75352 0.24728 0.80597 0.0
Zn577 Zn 0.77136 0.26387 0.75972 0.0
C578 C 0.71891 0.20667 0.78661 0.0
O579 O 0.70621 0.2187 0.79926 0.0
C580 C 0.8052 0.30404 0.78319 0.0
O581 O 0.81942 0.29244 0.77238 0.0
O582 O 0.75027 0.24073 0.84059 0.0
O583 O 0.78881 0.25611 0.80636 0.0
O584 O 0.79118 0.24046 0.76944 0.0
C585 C 0.7603 0.22383 0.84567 0.0
O586 O 0.76906 0.21256 0.82823 0.0
O587 O 0.74072 0.21577 0.78575 0.0
C588 C 0.76792 0.29182 0.723 0.0
O589 O 0.75775 0.30109 0.74061 0.0
O590 O 0.77656 0.27363 0.72635 0.0
O591 O 0.73583 0.25467 0.75825 0.0
O592 O 0.73396 0.27047 0.79528 0.0
O593 O 0.78319 0.29457 0.78173 0.0
C594 C 0.79928 0.2447 0.7918 0.0
C595 C 0.72568 0.26633 0.77296 0.0
Zn596 Zn 0.78238 0.74545 0.76757 0.0
Zn597 Zn 0.75921 0.78882 0.79494 0.0
C598 C 0.81766 0.76425 0.73791 0.0
O599 O 0.79969 0.75555 0.72118 0.0
C600 C 0.72253 0.76012 0.81532 0.0
O601 O 0.73664 0.77104 0.83461 0.0
O602 O 0.7842 0.71143 0.75823 0.0
O603 O 0.78142 0.74611 0.80397 0.0
O604 O 0.78234 0.78218 0.82162 0.0
C605 C 0.80231 0.70684 0.77007 0.0
O606 O 0.81631 0.72391 0.78508 0.0
O607 O 0.81431 0.76368 0.76021 0.0
C608 C 0.72897 0.82231 0.79762 0.0
O609 O 0.71311 0.80304 0.78888 0.0
O610 O 0.75046 0.82081 0.803 0.0
O611 O 0.7695 0.79182 0.76155 0.0
O612 O 0.75668 0.75479 0.74554 0.0
O613 O 0.72881 0.76379 0.79436 0.0
C614 C 0.78452 0.76085 0.82299 0.0
C615 C 0.75937 0.77691 0.74364 0.0
Zn616 Zn 0.53404 0.49915 0.52289 0.0
Zn617 Zn 0.48829 0.51442 0.4943 0.0
C618 C 0.51438 0.46331 0.55035 0.0
O619 O 0.52385 0.48104 0.56712 0.0
C620 C 0.50381 0.55102 0.46701 0.0
O621 O 0.49117 0.53396 0.45102 0.0
O622 O 0.5677 0.49554 0.53225 0.0
O623 O 0.53518 0.50404 0.4873 0.0
O624 O 0.49816 0.48999 0.47137 0.0
C625 C 0.57159 0.47796 0.51883 0.0
O626 O 0.55427 0.46574 0.50287 0.0
O627 O 0.51483 0.46677 0.52805 0.0
C628 C 0.45118 0.53745 0.49339 0.0
O629 O 0.46845 0.55199 0.50763 0.0
O630 O 0.45462 0.51759 0.48422 0.0
O631 O 0.48698 0.51039 0.52982 0.0
O632 O 0.52404 0.52367 0.54611 0.0
O633 O 0.50781 0.5465 0.48883 0.0
C634 C 0.5203 0.49409 0.46925 0.0
C635 C 0.50182 0.52069 0.54776 0.0
Zn636 Zn 0.98932 0.51894 0.01574 0.0
Zn637 Zn 0.0404 0.50542 -0.00055 0.0
C638 C 0.00383 0.55555 0.05376 0.0
O639 O 0.99088 0.53877 0.06431 0.0
C640 C 0.02856 0.46381 0.96706 0.0
O641 O 0.04345 0.47789 0.95542 0.0
O642 O 0.9547 0.52124 0.01683 0.0
O643 O 0.99318 0.51551 0.98005 0.0
O644 O 0.03144 0.52809 0.97652 0.0
C645 C 0.95058 0.53989 0.00819 0.0
O646 O 0.96829 0.55457 0.00067 0.0
O647 O 0.00754 0.551 0.03178 0.0
C648 C 0.07893 0.48585 0.01284 0.0
O649 O 0.06104 0.47295 0.02188 0.0
O650 O 0.0752 0.5027 0.00071 0.0
O651 O 0.03488 0.51345 0.03409 0.0
O652 O 0.99841 0.49377 0.03537 0.0
O653 O 0.0224 0.47226 0.98685 0.0
C654 C 0.00967 0.52677 0.96914 0.0
C655 C 0.02027 0.49838 0.04361 0.0
H656 H 0.03918 0.17166 0.90575 0.0
H657 H 0.99452 0.09299 0.00802 0.0
H658 H 0.00418 0.19768 0.96479 0.0
H659 H 0.04684 0.07678 0.96207 0.0
H660 H 0.00045 0.13283 0.99495 0.0
H661 H 0.0447 0.1382 0.9279 0.0
C662 C 0.03289 0.17049 0.92351 0.0
C663 C 0.02091 0.18733 0.93328 0.0
C664 C 0.01097 0.12072 0.98808 0.0
C665 C 0.02696 0.14891 0.95865 0.0
C666 C 0.0076 0.09796 0.99556 0.0
C667 C 0.01995 0.0814 0.98586 0.0
C668 C 0.0265 0.12683 0.97047 0.0
C669 C 0.03679 0.08889 0.96988 0.0
C670 C 0.03613 0.15141 0.93619 0.0
C671 C 0.01337 0.18503 0.95648 0.0
N672 N 0.03924 0.1109 0.96233 0.0
N673 N 0.01616 0.16595 0.96819 0.0
H674 H 0.08812 0.78218 0.23227 0.0
H675 H 0.21901 0.77234 0.21429 0.0
H676 H 0.12073 0.79847 0.16704 0.0
H677 H 0.19534 0.77758 0.28577 0.0
H678 H 0.18379 0.78475 0.1977 0.0
H679 H 0.12745 0.78392 0.25348 0.0
C680 C 0.10357 0.78657 0.22251 0.0
C681 C 0.10107 0.78969 0.19766 0.0
C682 C 0.18633 0.78351 0.21707 0.0
C683 C 0.14603 0.79143 0.22179 0.0
C684 C 0.20642 0.77628 0.22656 0.0
C685 C 0.20995 0.77369 0.25142 0.0
C686 C 0.16923 0.78764 0.23238 0.0
C687 C 0.19318 0.77927 0.26647 0.0
C688 C 0.12602 0.78758 0.23467 0.0
C689 C 0.12174 0.79561 0.18608 0.0
N690 N 0.17324 0.78559 0.25663 0.0
N691 N 0.1433 0.79585 0.19812 0.0
H692 H 0.47603 0.82762 0.38908 0.0
H693 H 0.51915 0.92622 0.50217 0.0
H694 H 0.51043 0.81455 0.45729 0.0
H695 H 0.48131 0.93817 0.43537 0.0
H696 H 0.51046 0.88373 0.48852 0.0
H697 H 0.47247 0.86634 0.40786 0.0
C698 C 0.48264 0.83279 0.40809 0.0
C699 C 0.49392 0.81796 0.42152 0.0
C700 C 0.50375 0.89557 0.47699 0.0
C701 C 0.48998 0.8624 0.44312 0.0
C702 C 0.50868 0.91986 0.48479 0.0
C703 C 0.50133 0.93582 0.46968 0.0
C704 C 0.49157 0.8872 0.45381 0.0
C705 C 0.48757 0.92654 0.44749 0.0
C706 C 0.48054 0.85491 0.41882 0.0
C707 C 0.50184 0.82549 0.44616 0.0
N708 N 0.48347 0.90288 0.44005 0.0
N709 N 0.5 0.84733 0.45608 0.0
H710 H 0.46323 0.30968 0.6947 0.0
H711 H 0.36317 0.25071 0.77457 0.0
H712 H 0.47171 0.25472 0.74045 0.0
H713 H 0.35768 0.30899 0.73238 0.0
H714 H 0.40422 0.2538 0.76502 0.0
H715 H 0.42566 0.31161 0.71086 0.0
C716 C 0.45728 0.29815 0.70828 0.0
C717 C 0.47052 0.28189 0.71609 0.0
C718 C 0.39406 0.26603 0.75804 0.0
C719 C 0.42745 0.28385 0.73458 0.0
C720 C 0.37066 0.26429 0.76353 0.0
C721 C 0.35691 0.27941 0.75402 0.0
C722 C 0.40366 0.28297 0.74292 0.0
C723 C 0.36752 0.29674 0.73986 0.0
C724 C 0.43582 0.29925 0.71752 0.0
C725 C 0.462 0.26744 0.73381 0.0
N726 N 0.39016 0.29791 0.73459 0.0
N727 N 0.4409 0.26862 0.74231 0.0
H728 H 0.02996 0.79971 0.55625 0.0
H729 H 0.96956 0.91227 0.55595 0.0
H730 H 0.97788 0.81303 0.60388 0.0
H731 H 0.02777 0.90422 0.51456 0.0
H732 H 0.96907 0.87339 0.5697 0.0
H733 H 0.02628 0.83547 0.53723 0.0
C734 C 0.01765 0.81009 0.56263 0.0
C735 C 0.0043 0.80347 0.58179 0.0
C736 C 0.98188 0.88002 0.55751 0.0
C737 C 2e-05 0.84438 0.56006 0.0
C738 C 0.98217 0.90224 0.5496 0.0
C739 C -0.00107 0.91162 0.53429 0.0
C740 C 0.9985 0.86702 0.55011 0.0
C741 C 0.01463 0.89769 0.52645 0.0
C742 C 0.01558 0.83051 0.55176 0.0
C743 C 0.9886 0.81754 0.58925 0.0
N744 N 0.01416 0.87612 0.53462 0.0
N745 N 0.98696 0.83739 0.57842 0.0
H746 H 0.46405 0.78187 0.82086 0.0
H747 H 0.33396 0.73075 0.85734 0.0
H748 H 0.4505 0.74227 0.88234 0.0
H749 H 0.34635 0.76515 0.79234 0.0
H750 H 0.37677 0.73682 0.86776 0.0
H751 H 0.42119 0.77705 0.81058 0.0
C752 C 0.45207 0.77202 0.83211 0.0
C753 C 0.46089 0.76244 0.85249 0.0
C754 C 0.37017 0.74314 0.85126 0.0
C755 C 0.41182 0.7571 0.84098 0.0
C756 C 0.34568 0.73979 0.84534 0.0
C757 C 0.33652 0.7474 0.82388 0.0
C758 C 0.3857 0.75421 0.83564 0.0
C759 C 0.35262 0.75901 0.80907 0.0
C760 C 0.4276 0.76935 0.82627 0.0
C761 C 0.44452 0.74992 0.86644 0.0
N762 N 0.37645 0.76197 0.81518 0.0
N763 N 0.4208 0.74768 0.86046 0.0
H764 H 0.49362 0.18823 0.04837 0.0
H765 H 0.49153 0.05283 0.06055 0.0
H766 H 0.46947 0.15277 0.10969 0.0
H767 H 0.49908 0.08249 0.99237 0.0
H768 H 0.48053 0.08885 0.07758 0.0
H769 H 0.49239 0.14956 0.02602 0.0
C770 C 0.48763 0.17231 0.057 0.0
C771 C 0.48205 0.17378 0.08114 0.0
C772 C 0.48435 0.08749 0.05882 0.0
C773 C 0.48084 0.12953 0.0557 0.0
C774 C 0.49079 0.067 0.04916 0.0
C775 C 0.49651 0.06494 0.02518 0.0
C776 C 0.48412 0.10633 0.04457 0.0
C777 C 0.49486 0.08354 0.011 0.0
C778 C 0.48695 0.15023 0.04419 0.0
C779 C 0.47425 0.15255 0.09127 0.0
N780 N 0.48919 0.10372 0.02106 0.0
N781 N 0.47423 0.13133 0.07863 0.0
H782 H 0.0642 0.2208 0.32462 0.0
H783 H 0.18459 0.29506 0.28656 0.0
H784 H 0.09178 0.29484 0.35064 0.0
H785 H 0.17561 0.22071 0.297 0.0
H786 H 0.14519 0.29471 0.29933 0.0
H787 H 0.10002 0.22044 0.3042 0.0
C788 C 0.07764 0.23707 0.32575 0.0
C789 C 0.07512 0.25789 0.33943 0.0
C790 C 0.15177 0.27843 0.29851 0.0
C791 C 0.11581 0.25757 0.31592 0.0
C792 C 0.17417 0.27851 0.29106 0.0
C793 C 0.18352 0.25787 0.2909 0.0
C794 C 0.1384 0.2575 0.30543 0.0
C795 C 0.16916 0.23703 0.29702 0.0
C796 C 0.09806 0.23678 0.3142 0.0
C797 C 0.09312 0.2784 0.34041 0.0
N798 N 0.14729 0.23737 0.30411 0.0
N799 N 0.11273 0.27775 0.32875 0.0
H800 H 0.89601 0.02544 0.14758 0.0
H801 H 0.01424 0.01884 0.08429 0.0
H802 H 0.96166 0.01891 0.18728 0.0
H803 H 0.94489 0.01195 0.04494 0.0
H804 H 0.99703 0.02509 0.12256 0.0
H805 H 0.91551 0.02689 0.11036 0.0
C806 C 0.9146 0.02455 0.14857 0.0
C807 C 0.92711 0.02182 0.17065 0.0
C808 C 0.98565 0.02236 0.10552 0.0
C809 C 0.9496 0.02338 0.12787 0.0
C810 C 0.99547 0.01888 0.08366 0.0
C811 C 0.98093 0.01457 0.06136 0.0
C812 C 0.96117 0.02177 0.10507 0.0
C813 C 0.95673 0.01489 0.06169 0.0
C814 C 0.92572 0.0253 0.12724 0.0
C815 C 0.95123 0.02085 0.17068 0.0
N816 N 0.94762 0.01831 0.08315 0.0
N817 N 0.96163 0.02148 0.14962 0.0
H818 H 0.29762 0.66105 0.46539 0.0
H819 H 0.24919 0.74477 0.37442 0.0
H820 H 0.26295 0.71739 0.48857 0.0
H821 H 0.27961 0.68515 0.35166 0.0
H822 H 0.25539 0.73624 0.41666 0.0
H823 H 0.29318 0.67134 0.42379 0.0
C824 C 0.28925 0.67571 0.46176 0.0
C825 C 0.28056 0.68833 0.48043 0.0
C826 C 0.26066 0.72503 0.40238 0.0
C827 C 0.27523 0.70007 0.43286 0.0
C828 C 0.25707 0.72985 0.37829 0.0
C829 C 0.26386 0.71563 0.35951 0.0
C830 C 0.27116 0.7059 0.40764 0.0
C831 C 0.27406 0.69657 0.36553 0.0
C832 C 0.28662 0.68152 0.43799 0.0
C833 C 0.26985 0.70715 0.4747 0.0
N834 N 0.27742 0.6923 0.38906 0.0
N835 N 0.26739 0.7124 0.45138 0.0
H836 H 0.55562 0.95892 0.67445 0.0
H837 H 0.57288 0.01243 0.55158 0.0
H838 H 0.62249 0.97008 0.64362 0.0
H839 H 0.50327 0.97965 0.56894 0.0
H840 H 0.59079 0.99376 0.58369 0.0
H841 H 0.53531 0.96174 0.63466 0.0
C842 C 0.56598 0.96139 0.65919 0.0
C843 C 0.59089 0.96487 0.66252 0.0
C844 C 0.57159 0.9901 0.58019 0.0
C845 C 0.56777 0.9685 0.61709 0.0
C846 C 0.56132 0.00075 0.56176 0.0
C847 C 0.53653 0.99725 0.55728 0.0
C848 C 0.55703 0.97632 0.59483 0.0
C849 C 0.52247 0.98264 0.57169 0.0
C850 C 0.55435 0.963 0.63647 0.0
C851 C 0.60332 0.96766 0.64202 0.0
N852 N 0.53294 0.97291 0.59007 0.0
N853 N 0.59169 0.96996 0.6203 0.0
H854 H 0.26829 0.30624 0.97205 0.0
H855 H 0.2215 0.33308 0.83955 0.0
H856 H 0.22708 0.35929 0.95956 0.0
H857 H 0.25745 0.27594 0.85173 0.0
H858 H 0.22353 0.34287 0.88344 0.0
H859 H 0.26399 0.29439 0.92824 0.0
C860 C 0.25813 0.31526 0.96012 0.0
C861 C 0.24808 0.33385 0.96952 0.0
C862 C 0.23098 0.32818 0.87656 0.0
C863 C 0.24333 0.32052 0.91922 0.0
C864 C 0.22992 0.32261 0.85145 0.0
C865 C 0.23938 0.30366 0.84188 0.0
C866 C 0.24165 0.31478 0.89237 0.0
C867 C 0.24998 0.29072 0.85827 0.0
C868 C 0.25574 0.30851 0.93507 0.0
C869 C 0.23512 0.34486 0.95315 0.0
N870 N 0.25085 0.29654 0.8827 0.0
N871 N 0.23326 0.33814 0.9288 0.0
H872 H 0.91237 0.03844 0.319 0.0
H873 H 0.99794 0.00292 0.42498 0.0
H874 H 0.96432 0.99625 0.30507 0.0
H875 H 0.93922 0.03643 0.43762 0.0
H876 H 0.98767 0.00211 0.38101 0.0
H877 H 0.92444 0.04066 0.36262 0.0
C878 C 0.92651 0.02987 0.32508 0.0
C879 C 0.93729 0.01709 0.30832 0.0
C880 C 0.97701 0.00957 0.39345 0.0
C881 C 0.95105 0.01932 0.35835 0.0
C882 C 0.98281 0.00994 0.41854 0.0
C883 C 0.96941 0.0197 0.43506 0.0
C884 C 0.95776 0.01915 0.38482 0.0
C885 C 0.95006 0.02868 0.42564 0.0
C886 C 0.9333 0.03101 0.35003 0.0
C887 C 0.95547 0.00627 0.31732 0.0
N888 N 0.9449 0.02826 0.40123 0.0
N889 N 0.96171 0.00756 0.3417 0.0
H890 H 0.31856 0.72325 0.60144 0.0
H891 H 0.26585 0.70342 0.72122 0.0
H892 H 0.31537 0.6573 0.63321 0.0
H893 H 0.30726 0.77329 0.71434 0.0
H894 H 0.28377 0.68711 0.68765 0.0
H895 H 0.31697 0.74347 0.64174 0.0
C896 C 0.31826 0.71315 0.61698 0.0
C897 C 0.31634 0.68839 0.61387 0.0
C898 C 0.2893 0.70596 0.69372 0.0
C899 C 0.31413 0.71132 0.65966 0.0
C900 C 0.2789 0.71538 0.71278 0.0
C901 C 0.28522 0.73978 0.72082 0.0
C902 C 0.30569 0.72103 0.68194 0.0
C903 C 0.30199 0.75435 0.70881 0.0
C904 C 0.31737 0.72474 0.63995 0.0
C905 C 0.31639 0.6763 0.63466 0.0
N906 N 0.31146 0.74479 0.68964 0.0
N907 N 0.31455 0.68777 0.6566 0.0
H908 H 0.60168 0.96231 0.81171 0.0
H909 H 0.52185 0.02039 0.90006 0.0
H910 H 0.55107 0.00306 0.78719 0.0
H911 H 0.57191 0.97855 0.92336 0.0
H912 H 0.53001 0.01194 0.85797 0.0
H913 H 0.58811 0.96501 0.85207 0.0
C914 C 0.5875 0.97156 0.81473 0.0
C915 C 0.57766 0.98269 0.79615 0.0
C916 C 0.53914 0.00457 0.87232 0.0
C917 C 0.56227 0.98616 0.84236 0.0
C918 C 0.53455 0.00948 0.89633 0.0
C919 C 0.54642 0.0004 0.91526 0.0
C920 C 0.55569 0.99052 0.86729 0.0
C921 C 0.56253 0.98616 0.90939 0.0
C922 C 0.57981 0.97318 0.83781 0.0
C923 C 0.55927 0.99436 0.80105 0.0
N924 N 0.56675 0.98175 0.88597 0.0
N925 N 0.55233 0.99601 0.82377 0.0
H926 H 0.24689 0.37193 0.13155 0.0
H927 H 0.23946 0.2509 0.19263 0.0
H928 H 0.24519 0.30553 0.08831 0.0
H929 H 0.27327 0.32039 0.22898 0.0
H930 H 0.2336 0.26915 0.15471 0.0
H931 H 0.2474 0.35155 0.16816 0.0
C932 C 0.24632 0.353 0.12967 0.0
C933 C 0.24623 0.34051 0.10675 0.0
C934 C 0.24213 0.28029 0.17112 0.0
C935 C 0.24683 0.31703 0.14881 0.0
C936 C 0.24546 0.26994 0.19275 0.0
C937 C 0.25657 0.28413 0.21422 0.0
C938 C 0.24961 0.30502 0.17113 0.0
C939 C 0.26418 0.3087 0.21315 0.0
C940 C 0.24675 0.3414 0.15064 0.0
C941 C 0.24546 0.31593 0.1056 0.0
N942 N 0.26041 0.31832 0.19211 0.0
N943 N 0.24586 0.30497 0.12635 0.0
H944 H 0.18028 0.90289 0.98766 0.0
H945 H 0.10163 0.99255 0.03617 0.0
H946 H 0.20704 0.96104 0.04419 0.0
H947 H 0.07708 0.93555 0.978 0.0
H948 H 0.14116 0.98303 0.03809 0.0
H949 H 0.14301 0.91635 0.98241 0.0
C950 C 0.17836 0.91857 -0.00112 0.0
C951 C 0.19672 0.93077 0.01648 0.0
C952 C 0.12711 0.97272 0.02483 0.0
C953 C 0.15403 0.94623 0.0107 0.0
C954 C 0.10458 0.97815 0.02373 0.0
C955 C 0.086 0.9647 0.00705 0.0
C956 C 0.13098 0.95372 0.00914 0.0
C957 C 0.0908 0.94628 0.99131 0.0
C958 C 0.15707 0.92627 0.99588 0.0
C959 C 0.19329 0.95105 0.03044 0.0
N960 N 0.11275 0.94128 0.99283 0.0
N961 N 0.17228 0.95806 0.02737 0.0
H962 H 0.69694 0.55638 0.99599 0.0
H963 H 0.56397 0.56991 0.00442 0.0
H964 H 0.67301 0.621 0.98454 0.0
H965 H 0.58176 0.50109 0.99285 0.0
H966 H 0.60427 0.5887 0.99769 0.0
H967 H 0.65542 0.53535 0.99473 0.0
C968 C 0.68299 0.5661 0.99289 0.0
C969 C 0.68856 0.59059 0.9906 0.0
C970 C 0.59938 0.56947 0.99643 0.0
C971 C 0.64104 0.56666 0.9895 0.0
C972 C 0.57638 0.55872 0.0004 0.0
C973 C 0.56953 0.53389 -0.00066 0.0
C974 C 0.61591 0.55537 0.99173 0.0
C975 C 0.58631 0.5203 0.99383 0.0
C976 C 0.65929 0.55406 0.99218 0.0
C977 C 0.66967 0.60218 0.98653 0.0
N978 N 0.60885 0.53123 0.9905 0.0
N979 N 0.64684 0.5902 0.98643 0.0
H980 H 0.71473 0.46019 0.25682 0.0
H981 H 0.69286 0.33302 0.3069 0.0
H982 H 0.66133 0.43695 0.30419 0.0
H983 H 0.75044 0.35758 0.26472 0.0
H984 H 0.68241 0.37177 0.30746 0.0
H985 H 0.72928 0.42371 0.26076 0.0
C986 C 0.70614 0.44749 0.26819 0.0
C987 C 0.68667 0.4516 0.2801 0.0
C988 C 0.69744 0.36881 0.2982 0.0
C989 C 0.70323 0.4097 0.2846 0.0
C990 C 0.70343 0.34663 0.29785 0.0
C991 C 0.72249 0.34197 0.2856 0.0
C992 C 0.71045 0.38655 0.28606 0.0
C993 C 0.73561 0.3604 0.27436 0.0
C994 C 0.71449 0.42665 0.27043 0.0
C995 C 0.67633 0.43452 0.29462 0.0
N996 N 0.72922 0.38183 0.27468 0.0
N997 N 0.68463 0.41429 0.29633 0.0
H998 H 0.82427 0.45445 0.51902 0.0
H999 H 0.95041 0.42457 0.50985 0.0
H1000 H 0.83398 0.38521 0.49131 0.0
H1001 H 0.94022 0.49669 0.51528 0.0
H1002 H 0.90754 0.41013 0.50058 0.0
H1003 H 0.86614 0.47093 0.51536 0.0
C1004 C 0.83508 0.44277 0.51184 0.0
C1005 C 0.82567 0.41833 0.50585 0.0
C1006 C 0.91466 0.42913 0.5034 0.0
C1007 C 0.87358 0.43703 0.50184 0.0
C1008 C 0.93914 0.43737 0.50875 0.0
C1009 C 0.9488 0.46182 0.51356 0.0
C1010 C 0.89969 0.44546 0.50337 0.0
C1011 C 0.93344 0.47766 0.51173 0.0
C1012 C 0.85897 0.45221 0.50972 0.0
C1013 C 0.84049 0.4041 0.49645 0.0
N1014 N 0.90955 0.46919 0.5072 0.0
N1015 N 0.86377 0.41359 0.4951 0.0
H1016 H 0.3681 0.08453 0.28533 0.0
H1017 H 0.27816 0.16167 0.23334 0.0
H1018 H 0.31591 0.05867 0.2231 0.0
H1019 H 0.32989 0.18459 0.29643 0.0
H1020 H 0.29026 0.12321 0.22966 0.0
H1021 H 0.35297 0.12086 0.29009 0.0
C1022 C 0.35339 0.08646 0.2727 0.0
C1023 C 0.34332 0.06855 0.25376 0.0
C1024 C 0.29884 0.13668 0.24435 0.0
C1025 C 0.32586 0.11027 0.25903 0.0
C1026 C 0.29192 0.15858 0.24647 0.0
C1027 C 0.30312 0.17643 0.26512 0.0
C1028 C 0.31704 0.13269 0.26103 0.0
C1029 C 0.32084 0.17148 0.28164 0.0
C1030 C 0.34473 0.10724 0.27542 0.0
C1031 C 0.32424 0.07205 0.23796 0.0
N1032 N 0.32727 0.15019 0.27914 0.0
N1033 N 0.31618 0.09255 0.24089 0.0
H1034 H 0.31412 0.05901 0.5236 0.0
H1035 H 0.44189 0.08793 0.47574 0.0
H1036 H 0.33581 0.11502 0.47861 0.0
H1037 H 0.41854 0.02833 0.51577 0.0
H1038 H 0.40209 0.09612 0.47394 0.0
H1039 H 0.351 0.04568 0.51847 0.0
C1040 C 0.32656 0.06842 0.51248 0.0
C1041 C 0.32194 0.08831 0.50167 0.0
C1042 C 0.40555 0.08111 0.48294 0.0
C1043 C 0.36433 0.07316 0.49583 0.0
C1044 C 0.42832 0.07642 0.48399 0.0
C1045 C 0.43363 0.05755 0.49614 0.0
C1046 C 0.38793 0.06698 0.49431 0.0
C1047 C 0.41526 0.04311 0.50629 0.0
C1048 C 0.34763 0.06076 0.50954 0.0
C1049 C 0.33867 0.09968 0.48736 0.0
N1050 N 0.39328 0.04829 0.50538 0.0
N1051 N 0.3592 0.09207 0.48503 0.0
H1052 H 0.65271 0.59672 0.3021 0.0
H1053 H 0.77714 0.68661 0.29826 0.0
H1054 H 0.71666 0.57141 0.29089 0.0
H1055 H 0.70854 0.70141 0.27645 0.0
H1056 H 0.75707 0.6462 0.30524 0.0
H1057 H 0.67526 0.6375 0.30363 0.0
C1058 C 0.67156 0.59969 0.30032 0.0
C1059 C 0.6827 0.58054 0.296 0.0
C1060 C 0.74654 0.65847 0.2991 0.0
C1061 C 0.70861 0.62731 0.2977 0.0
C1062 C 0.75792 0.68146 0.29516 0.0
C1063 C 0.7445 0.69738 0.2867 0.0
C1064 C 0.72162 0.65168 0.29504 0.0
C1065 C 0.71966 0.68978 0.2829 0.0
C1066 C 0.68439 0.623 0.30108 0.0
C1067 C 0.70728 0.58562 0.29397 0.0
N1068 N 0.70906 0.66757 0.28717 0.0
N1069 N 0.71941 0.60855 0.29467 0.0
H1070 H 0.81629 0.45165 0.78195 0.0
H1071 H 0.85121 0.32829 0.79437 0.0
H1072 H 0.88824 0.44505 0.80272 0.0
H1073 H 0.77884 0.33741 0.79278 0.0
H1074 H 0.86518 0.37138 0.80185 0.0
H1075 H 0.802 0.41058 0.78987 0.0
C1076 C 0.82906 0.44166 0.78846 0.0
C1077 C 0.85353 0.45166 0.79127 0.0
C1078 C 0.84625 0.36396 0.80032 0.0
C1079 C 0.83732 0.4046 0.80017 0.0
C1080 C 0.83828 0.33935 0.79603 0.0
C1081 C 0.81384 0.32932 0.79257 0.0
C1082 C 0.82964 0.37861 0.80072 0.0
C1083 C 0.79786 0.34443 0.79515 0.0
C1084 C 0.82089 0.41823 0.79307 0.0
C1085 C 0.86924 0.43799 0.80005 0.0
N1086 N 0.80603 0.36839 0.7986 0.0
N1087 N 0.8609 0.41501 0.80379 0.0
H1088 H 0.03895 0.81694 0.0713 0.0
H1089 H 0.99557 0.93767 0.0899 0.0
H1090 H 0.00247 0.83441 0.13271 0.0
H1091 H 0.00952 0.90811 0.01984 0.0
H1092 H 0.99679 0.89974 0.10573 0.0
H1093 H 0.02772 0.84994 0.05193 0.0
C1094 C 0.02844 0.82764 0.08065 0.0
C1095 C 0.02181 0.82305 0.10375 0.0
C1096 C -0.00081 0.90141 0.08679 0.0
C1097 C 0.00905 0.86101 0.08174 0.0
C1098 C 0.99851 0.92306 0.07774 0.0
C1099 C 0.00264 0.9261 0.05357 0.0
C1100 C 0.0045 0.88281 0.07169 0.0
C1101 C 0.00626 0.90655 0.03859 0.0
C1102 C 0.02193 0.84641 0.06951 0.0
C1103 C 0.00801 0.83737 0.11492 0.0
N1104 N 0.0075 0.88586 0.04801 0.0
N1105 N 0.00236 0.85593 0.10396 0.0
H1106 H 0.9151 0.22712 0.8903 0.0
H1107 H 0.83358 0.22947 0.76657 0.0
H1108 H 0.94045 0.22021 0.8197 0.0
H1109 H 0.81454 0.24354 0.83911 0.0
H1110 H 0.87077 0.22033 0.78448 0.0
H1111 H 0.87577 0.22674 0.87057 0.0
C1112 C 0.91235 0.22536 0.8706 0.0
C1113 C 0.93116 0.22405 0.85664 0.0
C1114 C 0.85827 0.22524 0.79636 0.0
C1115 C 0.88609 0.2239 0.83382 0.0
C1116 C 0.83711 0.23042 0.78617 0.0
C1117 C 0.82109 0.23752 0.80137 0.0
C1118 C 0.86317 0.227 0.82183 0.0
C1119 C 0.82644 0.23842 0.82664 0.0
C1120 C 0.88985 0.22515 0.8593 0.0
C1121 C 0.92644 0.22143 0.83115 0.0
N1122 N 0.84699 0.23332 0.836 0.0
N1123 N 0.90438 0.22175 0.82051 0.0
H1124 H 0.50418 0.19614 0.65718 0.0
H1125 H 0.5282 0.11628 0.54039 0.0
H1126 H 0.53832 0.22544 0.59721 0.0
H1127 H 0.48862 0.08825 0.59761 0.0
H1128 H 0.53384 0.15629 0.56175 0.0
H1129 H 0.49957 0.15633 0.63612 0.0
C1130 C 0.51064 0.19423 0.63954 0.0
C1131 C 0.52165 0.21419 0.62895 0.0
C1132 C 0.52397 0.14136 0.56963 0.0
C1133 C 0.51654 0.16856 0.60477 0.0
C1134 C 0.52083 0.11852 0.55751 0.0
C1135 C 0.50788 0.09891 0.56721 0.0
C1136 C 0.51414 0.14458 0.59163 0.0
C1137 C 0.49867 0.10285 0.58941 0.0
C1138 C 0.50803 0.17146 0.62752 0.0
C1139 C 0.52968 0.21058 0.60605 0.0
N1140 N 0.50195 0.12522 0.60084 0.0
N1141 N 0.52702 0.18819 0.59474 0.0
H1142 H 0.59205 0.7535 0.38839 0.0
H1143 H 0.66701 0.77745 0.276 0.0
H1144 H 0.56035 0.77054 0.32059 0.0
H1145 H 0.68412 0.73578 0.33325 0.0
H1146 H 0.62965 0.77982 0.29321 0.0
H1147 H 0.62856 0.75266 0.36996 0.0
C1148 C 0.59279 0.7572 0.36965 0.0
C1149 C 0.57307 0.76196 0.35597 0.0
C1150 C 0.64164 0.7701 0.30182 0.0
C1151 C 0.61487 0.76097 0.33473 0.0
C1152 C 0.66287 0.76873 0.29205 0.0
C1153 C 0.67869 0.75644 0.30324 0.0
C1154 C 0.63654 0.7594 0.32305 0.0
C1155 C 0.67252 0.74547 0.32399 0.0
C1156 C 0.61362 0.75659 0.3591 0.0
C1157 C 0.57512 0.76663 0.33174 0.0
N1158 N 0.65204 0.74736 0.33329 0.0
N1159 N 0.59571 0.76604 0.32184 0.0
H1160 H 0.03391 0.18675 0.40221 0.0
H1161 H 0.9969 0.10702 0.50771 0.0
H1162 H 0.00848 0.2155 0.46684 0.0
H1163 H 0.04528 0.09222 0.45628 0.0
H1164 H 0.99807 0.14583 0.49239 0.0
H1165 H 0.03466 0.15024 0.42066 0.0
C1166 C 0.02847 0.18538 0.4203 0.0
C1167 C 0.02114 0.20418 0.43302 0.0
C1168 C 0.00853 0.13407 0.48469 0.0
C1169 C 0.02192 0.16238 0.45425 0.0
C1170 C 0.00787 0.11199 0.49339 0.0
C1171 C 0.02083 0.09631 0.4831 0.0
C1172 C 0.02201 0.14019 0.46546 0.0
C1173 C 0.03482 0.10361 0.46464 0.0
C1174 C 0.02901 0.16457 0.43088 0.0
C1175 C 0.01435 0.20143 0.45646 0.0
N1176 N 0.03485 0.1249 0.45629 0.0
N1177 N 0.01476 0.18079 0.46632 0.0
H1178 H 0.58694 0.27032 0.13294 0.0
H1179 H 0.67257 0.24137 0.24211 0.0
H1180 H 0.56171 0.23005 0.19085 0.0
H1181 H 0.69716 0.28564 0.18689 0.0
H1182 H 0.63214 0.23465 0.22196 0.0
H1183 H 0.62763 0.27449 0.15141 0.0
C1184 C 0.58994 0.26239 0.14959 0.0
C1185 C 0.57086 0.24982 0.16038 0.0
C1186 C 0.6464 0.24574 0.21418 0.0
C1187 C 0.61749 0.25441 0.18152 0.0
C1188 C 0.66951 0.24951 0.22561 0.0
C1189 C 0.68824 0.26424 0.21625 0.0
C1190 C 0.64198 0.25678 0.19325 0.0
C1191 C 0.68324 0.27424 0.1948 0.0
C1192 C 0.6132 0.26475 0.16009 0.0
C1193 C 0.57586 0.23996 0.18195 0.0
N1194 N 0.66054 0.27044 0.18409 0.0
N1195 N 0.59871 0.24243 0.19179 0.0
H1196 H 0.55181 0.82879 0.9664 0.0
H1197 H 0.51729 0.95232 0.94765 0.0
H1198 H 0.54062 0.85435 0.89642 0.0
H1199 H 0.54411 0.93674 0.01816 0.0
H1200 H 0.52668 0.91635 0.92913 0.0
H1201 H 0.55066 0.86808 0.98625 0.0
C1202 C 0.54942 0.84271 0.9552 0.0
C1203 C 0.54595 0.83817 0.92968 0.0
C1204 C 0.5307 0.92076 0.94864 0.0
C1205 C 0.54448 0.88294 0.95227 0.0
C1206 C 0.52522 0.9413 0.9593 0.0
C1207 C 0.52981 0.94749 0.98455 0.0
C1208 C 0.54052 0.90589 0.96329 0.0
C1209 C 0.54025 0.93256 0.99862 0.0
C1210 C 0.54877 0.86511 0.96656 0.0
C1211 C 0.54307 0.8569 0.91612 0.0
N1212 N 0.54506 0.91222 0.9878 0.0
N1213 N 0.54216 0.87835 0.92758 0.0
H1214 H 0.95428 0.73895 0.71786 0.0
H1215 H 0.83094 0.77559 0.69374 0.0
H1216 H 0.93663 0.77324 0.65489 0.0
H1217 H 0.8596 0.76443 0.7652 0.0
H1218 H 0.86996 0.77668 0.67955 0.0
H1219 H 0.92028 0.74936 0.73598 0.0
C1220 C 0.94335 0.74885 0.70793 0.0
C1221 C 0.94814 0.75503 0.68473 0.0
C1222 C 0.86784 0.77443 0.69845 0.0
C1223 C 0.90904 0.76683 0.70528 0.0
C1224 C 0.84557 0.77381 0.70656 0.0
C1225 C 0.84199 0.76971 0.73062 0.0
C1226 C 0.88653 0.77044 0.71439 0.0
C1227 C 0.86157 0.76761 0.74649 0.0
C1228 C 0.924 0.75489 0.71834 0.0
C1229 C 0.93351 0.76803 0.67278 0.0
N1230 N 0.8829 0.76756 0.73797 0.0
N1231 N 0.91438 0.7732 0.68303 0.0
H1232 H 0.10109 0.97856 0.84962 0.0
H1233 H 0.98943 0.0054 0.91488 0.0
H1234 H 0.05509 0.02297 0.82294 0.0
H1235 H 0.04164 0.97051 0.9476 0.0
H1236 H 0.00981 0.00656 0.8781 0.0
H1237 H 0.07637 0.97053 0.88287 0.0
C1238 C 0.08572 0.98649 0.85064 0.0
C1239 C 0.08029 0.00162 0.83355 0.0
C1240 C 0.01666 0.99843 0.89325 0.0
C1241 C 0.05186 0.99243 0.87151 0.0
C1242 C 0.00492 0.99761 0.91424 0.0
C1243 C 0.01386 0.98798 0.93454 0.0
C1244 C 0.0375 0.98951 0.89245 0.0
C1245 C 0.03411 0.97825 0.93254 0.0
C1246 C 0.07163 0.98192 0.86965 0.0
C1247 C 0.0601 0.01135 0.83578 0.0
N1248 N 0.04531 0.97942 0.912 0.0
N1249 N 0.0467 0.00666 0.85441 0.0
H1250 H 0.75713 0.38577 0.61246 0.0
H1251 H 0.78003 0.27401 0.67927 0.0
H1252 H 0.767 0.32085 0.57377 0.0
H1253 H 0.75689 0.3339 0.71405 0.0
H1254 H 0.77873 0.29197 0.64085 0.0
H1255 H 0.7601 0.36794 0.65049 0.0
C1256 C 0.75989 0.36775 0.61195 0.0
C1257 C 0.76176 0.35478 0.58989 0.0
C1258 C 0.77398 0.30113 0.65695 0.0
C1259 C 0.76531 0.33427 0.6334 0.0
C1260 C 0.77482 0.29095 0.67885 0.0
C1261 C 0.76849 0.30244 0.69982 0.0
C1262 C 0.76695 0.32298 0.6562 0.0
C1263 C 0.7618 0.32433 0.6983 0.0
C1264 C 0.76157 0.35756 0.63368 0.0
C1265 C 0.76535 0.33148 0.59035 0.0
N1266 N 0.76122 0.33386 0.6769 0.0
N1267 N 0.76706 0.32198 0.61179 0.0
H1268 H 0.43006 0.05736 0.35094 0.0
H1269 H 0.54441 0.02822 0.42344 0.0
H1270 H 0.48141 0.02382 0.3179 0.0
H1271 H 0.48737 0.05058 0.45783 0.0
H1272 H 0.52643 0.03587 0.38424 0.0
H1273 H 0.45581 0.06446 0.38965 0.0
C1274 C 0.44694 0.05194 0.35172 0.0
C1275 C 0.45344 0.03959 0.33139 0.0
C1276 C 0.51805 0.03947 0.40045 0.0
C1277 C 0.4828 0.04751 0.37537 0.0
C1278 C 0.52832 0.03512 0.42285 0.0
C1279 C 0.51724 0.03854 0.44397 0.0
C1280 C 0.49647 0.04717 0.39915 0.0
C1281 C 0.49651 0.04768 0.44208 0.0
C1282 C 0.46158 0.05589 0.3738 0.0
C1283 C 0.47553 0.033 0.3333 0.0
N1284 N 0.48663 0.05139 0.42004 0.0
N1285 N 0.48928 0.0368 0.35497 0.0
H1286 H 0.75959 0.69865 0.07022 0.0
H1287 H 0.78833 0.68043 0.21018 0.0
H1288 H 0.7788 0.63574 0.09517 0.0
H1289 H 0.77081 0.7449 0.18757 0.0
H1290 H 0.78381 0.6638 0.16783 0.0
H1291 H 0.76318 0.71612 0.11263 0.0
C1292 C 0.76467 0.68855 0.08456 0.0
C1293 C 0.76889 0.66565 0.07907 0.0
C1294 C 0.78088 0.68157 0.17203 0.0
C1295 C 0.77285 0.6855 0.12761 0.0
C1296 C 0.78342 0.6911 0.19629 0.0
C1297 C 0.78002 0.71415 0.20247 0.0
C1298 C 0.77492 0.69515 0.15362 0.0
C1299 C 0.77357 0.72704 0.18361 0.0
C1300 C 0.76664 0.69852 0.10877 0.0
C1301 C 0.77536 0.65341 0.09844 0.0
N1302 N 0.77132 0.71739 0.15999 0.0
N1303 N 0.77709 0.66346 0.12177 0.0
H1304 H 0.07232 0.00913 0.71385 0.0
H1305 H 0.09104 0.9838 0.57347 0.0
H1306 H 0.13523 0.9905 0.68826 0.0
H1307 H 0.02649 0.00073 0.59651 0.0
H1308 H 0.1074 0.98718 0.61579 0.0
H1309 H 0.0549 0.00636 0.67151 0.0
C1310 C 0.08242 0.00432 0.69938 0.0
C1311 C 0.10533 7e-05 0.70469 0.0
C1312 C 0.08967 0.99023 0.6117 0.0
C1313 C 0.08554 0.99708 0.65622 0.0
C1314 C 0.08029 0.98835 0.58746 0.0
C1315 C 0.05729 0.99192 0.58139 0.0
C1316 C 0.07601 0.99568 0.63023 0.0
C1317 C 0.04432 0.99787 0.60037 0.0
C1318 C 0.07248 0.00283 0.67521 0.0
C1319 C 0.11756 0.99396 0.68515 0.0
N1320 N 0.05382 -0.00051 0.62399 0.0
N1321 N 0.10755 0.99272 0.66187 0.0
H1322 H 0.7144 0.33951 0.44092 0.0
H1323 H 0.74881 0.23133 0.36296 0.0
H1324 H 0.75452 0.29121 0.47032 0.0
H1325 H 0.71824 0.28569 0.33202 0.0
H1326 H 0.74137 0.2469 0.40327 0.0
H1327 H 0.70612 0.31387 0.40216 0.0
C1328 C 0.72104 0.32327 0.43938 0.0
C1329 C 0.73559 0.31771 0.45864 0.0
C1330 C 0.73595 0.25518 0.38759 0.0
C1331 C 0.72635 0.28848 0.4145 0.0
C1332 C 0.74014 0.24626 0.36454 0.0
C1333 C 0.73463 0.25754 0.34409 0.0
C1334 C 0.72624 0.27555 0.39019 0.0
C1335 C 0.72324 0.2767 0.34728 0.0
C1336 C 0.71639 0.3087 0.41725 0.0
C1337 C 0.74363 0.29641 0.45574 0.0
N1338 N 0.71974 0.28531 0.36992 0.0
N1339 N 0.73917 0.28273 0.43398 0.0
H1340 H 0.46077 0.03725 0.22228 0.0
H1341 H 0.47338 0.97615 0.09119 0.0
H1342 H 0.40116 0.99508 0.17445 0.0
H1343 H 0.5233 0.03911 0.12541 0.0
H1344 H 0.44959 0.97817 0.12515 0.0
H1345 H 0.48629 0.03432 0.18975 0.0
C1346 C 0.45303 0.02747 0.20488 0.0
C1347 C 0.4288 0.01641 0.20101 0.0
C1348 C 0.46583 0.99145 0.12527 0.0
C1349 C 0.45797 0.01264 0.16401 0.0
C1350 C 0.47957 0.99021 0.10601 0.0
C1351 C 0.50033 0.0076 0.10537 0.0
C1352 C 0.473 0.01003 0.14418 0.0
C1353 C 0.50739 0.02539 0.12511 0.0
C1354 C 0.46761 0.02581 0.18638 0.0
C1355 C 0.4197 0.004 0.17814 0.0
N1356 N 0.49369 0.0262 0.14373 0.0
N1357 N 0.43436 0.00227 0.16054 0.0
H1358 H 0.75096 0.71767 0.96173 0.0
H1359 H 0.79884 0.72008 0.8323 0.0
H1360 H 0.79094 0.66759 0.93425 0.0
H1361 H 0.77697 0.78016 0.86821 0.0
H1362 H 0.79735 0.70133 0.8699 0.0
H1363 H 0.7609 0.74121 0.92817 0.0
C1364 C 0.76195 0.71168 0.94871 0.0
C1365 C 0.76997 0.69049 0.95071 0.0
C1366 C 0.79316 0.71874 0.8697 0.0
C1367 C 0.78133 0.71738 0.91211 0.0
C1368 C 0.79401 0.72951 0.8482 0.0
C1369 C 0.7877 0.75165 0.84694 0.0
C1370 C 0.78558 0.72994 0.89013 0.0
C1371 C 0.78181 0.76304 0.86825 0.0
C1372 C 0.76771 0.72521 0.9296 0.0
C1373 C 0.7843 0.68374 0.93339 0.0
N1374 N 0.78049 0.75187 0.88885 0.0
N1375 N 0.78929 0.69698 0.91467 0.0
H1376 H 0.81897 0.05833 0.0499 0.0
H1377 H 0.91832 0.07162 0.95835 0.0
H1378 H 0.83316 0.11674 0.00623 0.0
H1379 H 0.89917 0.01056 0.99764 0.0
H1380 H 0.88447 0.08642 0.97206 0.0
H1381 H 0.84585 0.03894 0.02804 0.0
C1382 C 0.82769 0.06706 0.03565 0.0
C1383 C 0.82402 0.08932 0.03008 0.0
C1384 C 0.88748 0.06962 0.9774 0.0
C1385 C 0.85491 0.06719 0.00493 0.0
C1386 C 0.90677 0.0611 0.9695 0.0
C1387 C 0.91182 0.03998 0.97714 0.0
C1388 C 0.87324 0.057 0.99318 0.0
C1389 C 0.89614 0.02706 0.99149 0.0
C1390 C 0.84298 0.05592 0.02309 0.0
C1391 C 0.83562 0.09966 0.01124 0.0
N1392 N 0.87777 0.03594 -0.0007 0.0
N1393 N 0.85072 0.08861 -0.00051 0.0
H1394 H 0.3216 0.45322 0.06166 0.0
H1395 H 0.44481 0.44714 0.00904 0.0
H1396 H 0.34002 0.38894 0.03089 0.0
H1397 H 0.43311 0.51119 0.04784 0.0
H1398 H 0.40587 0.42621 0.01683 0.0
H1399 H 0.36173 0.4753 0.057 0.0
C1400 C 0.33407 0.44372 0.05405 0.0
C1401 C 0.32734 0.41917 0.04654 0.0
C1402 C 0.41171 0.44483 0.02373 0.0
C1403 C 0.37313 0.44433 0.0411 0.0
C1404 C 0.43402 0.45688 0.01921 0.0
C1405 C 0.44228 0.48105 0.02774 0.0
C1406 C 0.39724 0.45694 0.03676 0.0
C1407 C 0.42744 0.49257 0.04093 0.0
C1408 C 0.35695 0.45635 0.05141 0.0
C1409 C 0.34426 0.40782 0.03685 0.0
N1410 N 0.40554 0.48043 0.04496 0.0
N1411 N 0.36624 0.42049 0.03434 0.0
H1412 H 0.35355 0.56989 0.77821 0.0
H1413 H 0.29731 0.6711 0.72724 0.0
H1414 H 0.32419 0.5654 0.70325 0.0
H1415 H 0.29073 0.65611 0.80127 0.0
H1416 H 0.31036 0.63395 0.71868 0.0
H1417 H 0.33405 0.60309 0.78806 0.0
C1418 C 0.34296 0.57581 0.76387 0.0
C1419 C 0.34061 0.56494 0.73983 0.0
C1420 C 0.30579 0.63857 0.73673 0.0
C1421 C 0.31854 0.60286 0.75094 0.0
C1422 C 0.29833 0.65976 0.74162 0.0
C1423 C 0.29279 0.66652 0.76491 0.0
C1424 C 0.30845 0.62428 0.75549 0.0
C1425 C 0.2946 0.6513 0.78299 0.0
C1426 C 0.33174 0.59461 0.76954 0.0
C1427 C 0.32656 0.57324 0.722 0.0
N1428 N 0.30269 0.63098 0.77802 0.0
N1429 N 0.31632 0.59185 0.72786 0.0
H1430 H 0.20374 0.63815 0.5667 0.0
H1431 H 0.10926 0.55739 0.47362 0.0
H1432 H 0.22441 0.58144 0.52351 0.0
H1433 H 0.09282 0.56041 0.54797 0.0
H1434 H 0.15129 0.57381 0.4882 0.0
H1435 H 0.16188 0.61698 0.55758 0.0
C1436 C 0.19944 0.62115 0.55555 0.0
C1437 C 0.21738 0.61143 0.5458 0.0
C1438 C 0.13842 0.57076 0.50125 0.0
C1439 C 0.17009 0.58782 0.53494 0.0
C1440 C 0.11457 0.56161 0.49301 0.0
C1441 C 0.09782 0.55766 0.50972 0.0
C1442 C 0.14527 0.57668 0.52625 0.0
C1443 C 0.10542 0.5632 0.53465 0.0
C1444 C 0.17573 0.60913 0.55049 0.0
C1445 C 0.21104 0.58939 0.53145 0.0
N1446 N 0.1287 0.57289 0.54225 0.0
N1447 N 0.18778 0.57852 0.52598 0.0
H1448 H 0.64557 0.92761 0.77538 0.0
H1449 H 0.7569 0.86541 0.79146 0.0
H1450 H 0.70961 0.94842 0.74104 0.0
H1451 H 0.68526 0.83164 0.80182 0.0
H1452 H 0.74281 0.9014 0.78257 0.0
H1453 H 0.663 0.89756 0.79432 0.0
C1454 C 0.66337 0.92601 0.77199 0.0
C1455 C 0.67604 0.94032 0.75636 0.0
C1456 C 0.73029 0.88621 0.78719 0.0
C1457 C 0.69613 0.90616 0.77814 0.0
C1458 C 0.73835 0.86579 0.79247 0.0
C1459 C 0.72215 0.84552 0.79719 0.0
C1460 C 0.70599 0.88634 0.78697 0.0
C1461 C 0.69827 0.84685 0.79805 0.0
C1462 C 0.67329 0.90885 0.78279 0.0
C1463 C 0.6991 0.93754 0.75273 0.0
N1464 N 0.69087 0.86684 0.79283 0.0
N1465 N 0.70838 0.92072 0.76346 0.0
H1466 H 0.70878 0.94121 0.58458 0.0
H1467 H 0.62372 0.98609 0.48732 0.0
H1468 H 0.70881 0.92034 0.50796 0.0
H1469 H 0.60037 0.96075 0.55374 0.0
H1470 H 0.66113 0.97255 0.49625 0.0
H1471 H 0.67487 0.9594 0.57502 0.0
C1472 C 0.7018 0.94067 0.56572 0.0
C1473 C 0.71148 0.92911 0.54703 0.0
C1474 C 0.6478 0.97024 0.50888 0.0
C1475 C 0.67305 0.95026 0.53603 0.0
C1476 C 0.62665 0.97808 0.50392 0.0
C1477 C 0.60904 0.97452 0.51986 0.0
C1478 C 0.65146 0.95952 0.53022 0.0
C1479 C 0.61351 0.96382 0.541 0.0
C1480 C 0.68246 0.95099 0.56032 0.0
C1481 C 0.70169 0.9289 0.5229 0.0
N1482 N 0.63433 0.95684 0.54565 0.0
N1483 N 0.683 0.93942 0.51803 0.0
H1484 H 0.38208 0.42773 0.74923 0.0
H1485 H 0.25688 0.33506 0.73226 0.0
H1486 H 0.31781 0.44618 0.71857 0.0
H1487 H 0.31814 0.32934 0.78005 0.0
H1488 H 0.27894 0.37371 0.72274 0.0
H1489 H 0.35911 0.38897 0.75537 0.0
C1490 C 0.36312 0.42362 0.74362 0.0
C1491 C 0.35187 0.44041 0.73352 0.0
C1492 C 0.28742 0.36392 0.73533 0.0
C1493 C 0.32529 0.39577 0.7407 0.0
C1494 C 0.27487 0.34191 0.74078 0.0
C1495 C 0.28565 0.32889 0.75697 0.0
C1496 C 0.31095 0.37274 0.74594 0.0
C1497 C 0.30902 0.33865 0.76747 0.0
C1498 C 0.34997 0.40144 0.74725 0.0
C1499 C 0.32722 0.43384 0.72652 0.0
N1500 N 0.32085 0.35983 0.76169 0.0
N1501 N 0.3147 0.41203 0.73032 0.0
H1502 H 0.18474 0.5553 0.2289 0.0
H1503 H 0.17095 0.68639 0.27447 0.0
H1504 H 0.11927 0.57235 0.24925 0.0
H1505 H 0.23659 0.67003 0.25388 0.0
H1506 H 0.15081 0.64524 0.26138 0.0
H1507 H 0.20315 0.5977 0.23421 0.0
C1508 C 0.17418 0.56795 0.23432 0.0
C1509 C 0.15048 0.56023 0.23886 0.0
C1510 C 0.16958 0.65067 0.25954 0.0
C1511 C 0.17147 0.60876 0.24502 0.0
C1512 C 0.1811 0.67419 0.26701 0.0
C1513 C 0.20555 0.68159 0.26552 0.0
C1514 C 0.18262 0.63437 0.25063 0.0
C1515 C 0.21775 0.66505 0.25551 0.0
C1516 C 0.18471 0.59216 0.23734 0.0
C1517 C 0.13764 0.57745 0.24573 0.0
N1518 N 0.20619 0.64214 0.24865 0.0
N1519 N 0.14835 0.60087 0.24875 0.0
H1520 H 0.48745 0.67434 0.3972 0.0
H1521 H 0.52322 0.59245 0.49687 0.0
H1522 H 0.53241 0.70318 0.46388 0.0
H1523 H 0.49428 0.56598 0.42278 0.0
H1524 H 0.52519 0.63317 0.48658 0.0
H1525 H 0.48689 0.63429 0.40824 0.0
C1526 C 0.49702 0.67226 0.41428 0.0
C1527 C 0.51003 0.69214 0.42962 0.0
C1528 C 0.5186 0.61841 0.47257 0.0
C1529 C 0.50965 0.6463 0.44229 0.0
C1530 C 0.5176 0.59518 0.47839 0.0
C1531 C 0.5085 0.57575 0.46069 0.0
C1532 C 0.51025 0.62214 0.44897 0.0
C1533 C 0.50134 0.58036 0.43707 0.0
C1534 C 0.49685 0.64938 0.4205 0.0
C1535 C 0.52218 0.68834 0.4515 0.0
N1536 N 0.50218 0.60302 0.43198 0.0
N1537 N 0.52171 0.66586 0.45719 0.0
H1538 H 0.62002 0.30783 0.67736 0.0
H1539 H 0.6925 0.28286 0.79845 0.0
H1540 H 0.58725 0.29317 0.74288 0.0
H1541 H 0.71213 0.27109 0.72582 0.0
H1542 H 0.65769 0.29673 0.78125 0.0
H1543 H 0.65832 0.30582 0.69853 0.0
C1544 C 0.62093 0.30469 0.69634 0.0
C1545 C 0.6003 0.30019 0.70822 0.0
C1546 C 0.66982 0.29128 0.76921 0.0
C1547 C 0.64404 0.2977 0.73243 0.0
C1548 C 0.6896 0.28336 0.77898 0.0
C1549 C 0.70505 0.27557 0.76352 0.0
C1550 C 0.66583 0.29177 0.74394 0.0
C1551 C 0.70056 0.27667 0.73842 0.0
C1552 C 0.64278 0.3034 0.70835 0.0
C1553 C 0.60265 0.29636 0.73289 0.0
N1554 N 0.68138 0.28459 0.72944 0.0
N1555 N 0.62409 0.2949 0.74413 0.0
H1556 H 0.02951 0.32308 0.89988 0.0
H1557 H 0.00229 0.42859 0.98953 0.0
H1558 H 0.98809 0.31169 0.96041 0.0
H1559 H 0.04139 0.43998 0.92734 0.0
H1560 H 0.99629 0.38566 0.97874 0.0
H1561 H 0.03433 0.36603 0.90982 0.0
C1562 C 0.02157 0.3296 0.91535 0.0
C1563 C 0.00839 0.31376 0.92933 0.0
C1564 C 0.00607 0.39756 0.96737 0.0
C1565 C 0.01363 0.36287 0.94069 0.0
C1566 C 0.00939 0.42208 0.97346 0.0
C1567 C 0.0224 0.43792 0.95935 0.0
C1568 C 0.01588 0.3888 0.94707 0.0
C1569 C 0.03127 0.42845 0.93878 0.0
C1570 C 0.02422 0.35413 0.92095 0.0
C1571 C 0.99841 0.32323 0.94912 0.0
N1572 N 0.02795 0.40453 0.93334 0.0
N1573 N 0.00121 0.34714 0.95418 0.0
H1574 H 0.96383 0.79398 0.18236 0.0
H1575 H 0.86891 0.74345 0.27157 0.0
H1576 H 0.97396 0.7416 0.2308 0.0
H1577 H 0.86214 0.79945 0.22662 0.0
H1578 H 0.90846 0.74385 0.25872 0.0
H1579 H 0.92731 0.79748 0.19997 0.0
C1580 C 0.95843 0.78329 0.19677 0.0
C1581 C 0.97188 0.76738 0.20502 0.0
C1582 C 0.89835 0.75616 0.25183 0.0
C1583 C 0.93005 0.77121 0.22523 0.0
C1584 C 0.87581 0.75596 0.2592 0.0
C1585 C 0.86213 0.77127 0.24998 0.0
C1586 C 0.90715 0.77174 0.2351 0.0
C1587 C 0.87195 0.78715 0.23402 0.0
C1588 C 0.93758 0.78531 0.20686 0.0
C1589 C 0.96408 0.75403 0.22382 0.0
N1590 N 0.89376 0.78685 0.22697 0.0
N1591 N 0.94359 0.75614 0.2332 0.0
H1592 H 0.52758 0.30151 0.05202 0.0
H1593 H 0.46937 0.41553 0.06106 0.0
H1594 H 0.47511 0.31168 0.10038 0.0
H1595 H 0.52628 0.40884 0.0173 0.0
H1596 H 0.46851 0.37569 0.07237 0.0
H1597 H 0.52465 0.33891 0.03605 0.0
C1598 C 0.51531 0.31154 0.05918 0.0
C1599 C 0.50164 0.30354 0.07766 0.0
C1600 C 0.48113 0.38285 0.06021 0.0
C1601 C 0.49826 0.34637 0.05945 0.0
C1602 C 0.48165 0.40563 0.05373 0.0
C1603 C 0.4981 0.41562 0.03839 0.0
C1604 C 0.4972 0.36989 0.05135 0.0
C1605 C 0.51338 0.40185 0.02925 0.0
C1606 C 0.51369 0.3329 0.05005 0.0
C1607 C 0.48604 0.31723 0.0862 0.0
N1608 N 0.51267 0.37969 0.03601 0.0
N1609 N 0.48485 0.33804 0.07708 0.0
H1610 H 0.96054 0.26418 0.33127 0.0
H1611 H 0.83335 0.28479 0.36062 0.0
H1612 H 0.94541 0.29088 0.40206 0.0
H1613 H 0.84791 0.25634 0.29028 0.0
H1614 H 0.87582 0.29344 0.37426 0.0
H1615 H 0.92093 0.26711 0.31432 0.0
C1616 C 0.94898 0.27083 0.34322 0.0
C1617 C 0.95619 0.27694 0.3682 0.0
C1618 C 0.86977 0.2856 0.35574 0.0
C1619 C 0.91081 0.28029 0.34892 0.0
C1620 C 0.8455 0.28071 0.3479 0.0
C1621 C 0.83704 0.26943 0.3244 0.0
C1622 C 0.88564 0.27909 0.33999 0.0
C1623 C 0.85363 0.26474 0.30867 0.0
C1624 C 0.92637 0.27254 0.33352 0.0
C1625 C 0.94052 0.28569 0.38275 0.0
N1626 N 0.87712 0.26931 0.31685 0.0
N1627 N 0.91849 0.28687 0.37294 0.0
H1628 H 0.98643 0.68765 0.55774 0.0
H1629 H 0.02095 0.5668 0.57579 0.0
H1630 H 0.97992 0.65575 0.62494 0.0
H1631 H 0.991 0.57793 0.50472 0.0
H1632 H 0.00765 0.60101 0.59344 0.0
H1633 H 0.98803 0.64891 0.53686 0.0
C1634 C 0.98481 0.67242 0.568 0.0
C1635 C 0.98351 0.67503 0.59324 0.0
C1636 C 0.00378 0.59591 0.57401 0.0
C1637 C 0.98574 0.631 0.56955 0.0
C1638 C 0.01157 0.57646 0.56381 0.0
C1639 C 0.00705 0.56942 0.53867 0.0
C1640 C 0.99196 0.60901 0.55897 0.0
C1641 C 0.99482 0.58275 0.52419 0.0
C1642 C 0.9857 0.65035 0.55604 0.0
C1643 C 0.98122 0.65466 0.60555 0.0
N1644 N 0.98792 0.60219 0.53452 0.0
N1645 N 0.98294 0.63361 0.59368 0.0
H1646 H 0.6016 0.73198 0.89176 0.0
H1647 H 0.68215 0.755 0.78349 0.0
H1648 H 0.57865 0.75786 0.82502 0.0
H1649 H 0.70698 0.73995 0.85483 0.0
H1650 H 0.64123 0.74578 0.79406 0.0
H1651 H 0.63697 0.72483 0.87417 0.0
C1652 C 0.60385 0.73593 0.87329 0.0
C1653 C 0.58735 0.74601 0.86003 0.0
C1654 C 0.6556 0.744 0.80719 0.0
C1655 C 0.62799 0.73796 0.83981 0.0
C1656 C 0.67893 0.74908 0.8011 0.0
C1657 C 0.69794 0.74863 0.8185 0.0
C1658 C 0.65141 0.73834 0.83075 0.0
C1659 C 0.69281 0.74088 0.84103 0.0
C1660 C 0.62407 0.73181 0.86324 0.0
C1661 C 0.59106 0.75037 0.83603 0.0
N1662 N 0.67008 0.73636 0.84663 0.0
N1663 N 0.61119 0.74666 0.8268 0.0
H1664 H 0.40409 0.53421 0.65373 0.0
H1665 H 0.52441 0.5262 0.59471 0.0
H1666 H 0.46583 0.51995 0.69452 0.0
H1667 H 0.45768 0.5278 0.55403 0.0
H1668 H 0.50585 0.53036 0.63265 0.0
H1669 H 0.42614 0.5385 0.61838 0.0
C1670 C 0.42236 0.53216 0.65536 0.0
C1671 C 0.43298 0.52644 0.67715 0.0
C1672 C 0.4954 0.53001 0.61539 0.0
C1673 C 0.45844 0.53125 0.63645 0.0
C1674 C 0.50601 0.52776 0.59376 0.0
C1675 C 0.4925 0.52634 0.57115 0.0
C1676 C 0.47123 0.53115 0.61432 0.0
C1677 C 0.46871 0.52847 0.57101 0.0
C1678 C 0.43496 0.53458 0.63509 0.0
C1679 C 0.45682 0.52419 0.67808 0.0
N1680 N 0.45887 0.53065 0.59217 0.0
N1681 N 0.46869 0.52642 0.65798 0.0
H1682 H 0.76349 0.21666 0.001 0.0
H1683 H 0.78296 0.19018 0.86136 0.0
H1684 H 0.79813 0.16173 0.97382 0.0
H1685 H 0.74658 0.24416 0.88733 0.0
H1686 H 0.79042 0.18109 0.90288 0.0
H1687 H 0.75964 0.229 0.96017 0.0
C1688 C 0.77054 0.20736 0.9865 0.0
C1689 C 0.78102 0.18802 0.99078 0.0
C1690 C 0.78079 0.19492 0.89957 0.0
C1691 C 0.77643 0.20192 0.94397 0.0
C1692 C 0.77643 0.20009 0.8758 0.0
C1693 C 0.76398 0.21789 0.87083 0.0
C1694 C 0.77265 0.20761 0.91862 0.0
C1695 C 0.75613 0.23022 0.89034 0.0
C1696 C 0.76824 0.21437 0.96317 0.0
C1697 C 0.78986 0.17667 0.97133 0.0
N1698 N 0.76057 0.22481 0.91341 0.0
N1699 N 0.78721 0.18369 0.94873 0.0
H1700 H 0.04459 0.45844 0.18527 0.0
H1701 H 0.06608 0.50419 0.0631 0.0
H1702 H 0.10928 0.45539 0.1529 0.0
H1703 H 0.99486 0.46737 0.07182 0.0
H1704 H 0.08135 0.48609 0.097 0.0
H1705 H 0.0243 0.45888 0.14477 0.0
C1706 C 0.05436 0.45713 0.16961 0.0
C1707 C 0.0789 0.45773 0.17253 0.0
C1708 C 0.06241 0.48158 0.09128 0.0
C1709 C 0.05588 0.45855 0.12649 0.0
C1710 C 0.05359 0.49207 0.07199 0.0
C1711 C 0.02912 0.48712 0.06439 0.0
C1712 C 0.04667 0.4666 0.1038 0.0
C1713 C 0.01387 0.47158 0.07703 0.0
C1714 C 0.04272 0.45735 0.14652 0.0
C1715 C 0.09051 0.45556 0.15159 0.0
N1716 N 0.02287 0.46212 0.09648 0.0
N1717 N 0.07907 0.45677 0.12948 0.0
H1718 H 0.77839 0.80437 0.47797 0.0
H1719 H 0.74169 0.83585 0.34444 0.0
H1720 H 0.74058 0.8597 0.46373 0.0
H1721 H 0.77059 0.77434 0.35757 0.0
H1722 H 0.74275 0.84564 0.38819 0.0
H1723 H 0.77635 0.79332 0.43417 0.0
C1724 C 0.76944 0.81406 0.46564 0.0
C1725 C 0.75966 0.83303 0.47456 0.0
C1726 C 0.74891 0.83002 0.38155 0.0
C1727 C 0.75757 0.82065 0.42433 0.0
C1728 C 0.74844 0.82447 0.35652 0.0
C1729 C 0.75608 0.80422 0.34726 0.0
C1730 C 0.75715 0.81529 0.39759 0.0
C1731 C 0.76459 0.79014 0.36388 0.0
C1732 C 0.76835 0.80776 0.44062 0.0
C1733 C 0.74832 0.84493 0.45771 0.0
N1734 N 0.76487 0.79594 0.38825 0.0
N1735 N 0.74773 0.83865 0.43342 0.0
H1736 H 0.40701 0.53694 0.82219 0.0
H1737 H 0.49145 0.50425 0.93079 0.0
H1738 H 0.46218 0.49816 0.81063 0.0
H1739 H 0.42976 0.53367 0.94151 0.0
H1740 H 0.48242 0.50364 0.88677 0.0
H1741 H 0.41719 0.53869 0.86615 0.0
C1742 C 0.42145 0.52904 0.82888 0.0
C1743 C 0.43372 0.51733 0.81269 0.0
C1744 C 0.47081 0.51013 0.89877 0.0
C1745 C 0.44529 0.51904 0.863 0.0
C1746 C 0.4759 0.51038 0.9239 0.0
C1747 C 0.46131 0.51897 0.93989 0.0
C1748 C 0.45108 0.51866 0.88956 0.0
C1749 C 0.44147 0.52682 0.92991 0.0
C1750 C 0.42714 0.5299 0.85399 0.0
C1751 C 0.45219 0.50732 0.82242 0.0
N1752 N 0.43701 0.52657 0.90543 0.0
N1753 N 0.45737 0.50834 0.84692 0.0
H1754 H 0.80709 0.14865 0.14428 0.0
H1755 H 0.79717 0.27168 0.21521 0.0
H1756 H 0.81108 0.21406 0.11133 0.0
H1757 H 0.77845 0.2031 0.24171 0.0
H1758 H 0.8142 0.2532 0.1815 0.0
H1759 H 0.80927 0.17097 0.18423 0.0
C1760 C 0.809 0.16777 0.14545 0.0
C1761 C 0.80824 0.1794 0.12435 0.0
C1762 C 0.80678 0.24232 0.19502 0.0
C1763 C 0.81046 0.20498 0.16998 0.0
C1764 C 0.7971 0.25287 0.21427 0.0
C1765 C 0.786 0.23883 0.23108 0.0
C1766 C 0.8054 0.21764 0.19268 0.0
C1767 C 0.78655 0.21457 0.22905 0.0
C1768 C 0.81013 0.1805 0.16828 0.0
C1769 C 0.81105 0.20427 0.12707 0.0
N1770 N 0.79578 0.2047 0.21004 0.0
N1771 N 0.81159 0.21617 0.14942 0.0
H1772 H 0.10302 0.46815 0.32007 0.0
H1773 H 0.02198 0.51962 0.41185 0.0
H1774 H 0.04762 0.50423 0.29756 0.0
H1775 H 0.07619 0.48164 0.43316 0.0
H1776 H 0.02924 0.51207 0.36934 0.0
H1777 H 0.09118 0.47025 0.36121 0.0
C1778 C 0.08821 0.47628 0.32372 0.0
C1779 C 0.07644 0.48623 0.30546 0.0
C1780 C 0.03946 0.50533 0.38335 0.0
C1781 C 0.06295 0.48893 0.35247 0.0
C1782 C 0.03536 0.5097 0.40759 0.0
C1783 C 0.04865 0.50144 0.42605 0.0
C1784 C 0.05695 0.49265 0.37766 0.0
C1785 C 0.06566 0.48853 0.41954 0.0
C1786 C 0.08148 0.47754 0.34722 0.0
C1787 C 0.05731 0.49648 0.31116 0.0
N1788 N 0.06938 0.48463 0.39591 0.0
N1789 N 0.05129 0.49776 0.33424 0.0
H1790 H 0.74382 0.86942 0.63284 0.0
H1791 H 0.75151 0.75233 0.69764 0.0
H1792 H 0.75644 0.80549 0.59464 0.0
H1793 H 0.75459 0.82154 0.73577 0.0
H1794 H 0.74639 0.76905 0.65883 0.0
H1795 H 0.74047 0.84947 0.66962 0.0
C1796 C 0.74568 0.8511 0.63208 0.0
C1797 C 0.75072 0.83925 0.61061 0.0
C1798 C 0.74802 0.78048 0.67573 0.0
C1799 C 0.74699 0.81625 0.6529 0.0
C1800 C 0.75086 0.77095 0.69786 0.0
C1801 C 0.75383 0.78565 0.71997 0.0
C1802 C 0.74782 0.80478 0.67578 0.0
C1803 C 0.75274 0.80962 0.71918 0.0
C1804 C 0.74382 0.83972 0.65316 0.0
C1805 C 0.75274 0.81542 0.6108 0.0
N1806 N 0.74992 0.81842 0.6975 0.0
N1807 N 0.75105 0.80475 0.63167 0.0
H1808 H 0.71622 0.46183 0.55681 0.0
H1809 H 0.58409 0.44271 0.49051 0.0
H1810 H 0.68513 0.40604 0.49909 0.0
H1811 H 0.61222 0.4973 0.55024 0.0
H1812 H 0.62188 0.43056 0.49258 0.0
H1813 H 0.6794 0.47656 0.55369 0.0
C1814 C 0.70171 0.45275 0.54338 0.0
C1815 C 0.70373 0.43261 0.52821 0.0
C1816 C 0.6199 0.44521 0.50527 0.0
C1817 C 0.66156 0.44936 0.52464 0.0
C1818 C 0.59824 0.45219 0.50414 0.0
C1819 C 0.5949 0.47103 0.52033 0.0
C1820 C 0.63855 0.45707 0.52276 0.0
C1821 C 0.61401 0.48265 0.53745 0.0
C1822 C 0.68068 0.46116 0.54166 0.0
C1823 C 0.68437 0.42158 0.51118 0.0
N1824 N 0.63506 0.47544 0.53827 0.0
N1825 N 0.6641 0.43007 0.50991 0.0
H1826 H 0.20256 0.0552 0.49545 0.0
H1827 H 0.07064 0.06431 0.50927 0.0
H1828 H 0.17585 0.11826 0.48356 0.0
H1829 H 0.0863 0.99642 0.48585 0.0
H1830 H 0.11042 0.0839 0.50253 0.0
H1831 H 0.16144 0.03258 0.49358 0.0
C1832 C 0.18811 0.06423 0.49212 0.0
C1833 C 0.19271 0.08878 0.48998 0.0
C1834 C 0.10516 0.06474 0.49862 0.0
C1835 C 0.14585 0.06309 0.48816 0.0
C1836 C 0.08241 0.05346 0.50256 0.0
C1837 C 0.07502 0.02863 0.498 0.0
C1838 C 0.12107 0.05116 0.49062 0.0
C1839 C 0.09125 0.01561 0.48948 0.0
C1840 C 0.16468 0.05128 0.49102 0.0
C1841 C 0.17326 0.09947 0.48554 0.0
N1842 N 0.11371 0.02703 0.48633 0.0
N1843 N 0.15074 0.08665 0.48516 0.0
H1844 H 0.21616 0.962 0.7514 0.0
H1845 H 0.20057 0.83503 0.80182 0.0
H1846 H 0.16579 0.93725 0.80127 0.0
H1847 H 0.25412 0.85971 0.7551 0.0
H1848 H 0.18914 0.87327 0.80303 0.0
H1849 H 0.23173 0.92586 0.75379 0.0
C1850 C 0.20847 0.94906 0.763 0.0
C1851 C 0.18953 0.95265 0.77608 0.0
C1852 C 0.20346 0.87047 0.79257 0.0
C1853 C 0.20725 0.91113 0.77878 0.0
C1854 C 0.21001 0.84855 0.79181 0.0
C1855 C 0.22825 0.84404 0.77816 0.0
C1856 C 0.21508 0.88818 0.77945 0.0
C1857 C 0.23994 0.86239 0.76581 0.0
C1858 C 0.21739 0.92841 0.76433 0.0
C1859 C 0.18034 0.93526 0.79082 0.0
N1860 N 0.23303 0.88363 0.7666 0.0
N1861 N 0.18919 0.91524 0.79165 0.0
H1862 H 0.31787 0.95311 0.00848 0.0
H1863 H 0.44275 0.9193 0.00359 0.0
H1864 H 0.32591 0.88204 0.98547 0.0
H1865 H 0.43387 0.99172 0.00414 0.0
H1866 H 0.39978 0.90538 0.99466 0.0
H1867 H 0.35992 0.96805 0.00453 0.0
C1868 C 0.32837 0.9407 0.00226 0.0
C1869 C 0.31845 0.91624 0.99769 0.0
C1870 C 0.40725 0.92431 0.99636 0.0
C1871 C 0.36654 0.93316 0.9934 0.0
C1872 C 0.43177 0.93225 0.00154 0.0
C1873 C 0.44181 0.95668 0.00489 0.0
C1874 C 0.39267 0.94094 0.99493 0.0
C1875 C 0.42681 0.97271 0.00183 0.0
C1876 C 0.35236 0.94924 -3e-05 0.0
C1877 C 0.33285 0.90101 0.98947 0.0
N1878 N 0.4029 0.96456 0.99741 0.0
N1879 N 0.35626 0.90967 0.98797 0.0
H1880 H 0.86908 0.58851 0.78857 0.0
H1881 H 0.77818 0.66644 0.74085 0.0
H1882 H 0.80946 0.56033 0.73407 0.0
H1883 H 0.83896 0.69278 0.79446 0.0
H1884 H 0.78834 0.62711 0.73836 0.0
H1885 H 0.85715 0.62661 0.79154 0.0
C1886 C 0.85341 0.59031 0.77729 0.0
C1887 C 0.84028 0.57123 0.76102 0.0
C1888 C 0.79939 0.64155 0.75066 0.0
C1889 C 0.82652 0.61493 0.76422 0.0
C1890 C 0.79362 0.66396 0.75206 0.0
C1891 C 0.80776 0.68292 0.76784 0.0
C1892 C 0.8194 0.63818 0.76517 0.0
C1893 C 0.82754 0.67874 0.78198 0.0
C1894 C 0.8466 0.6121 0.77896 0.0
C1895 C 0.8201 0.5746 0.74685 0.0
N1896 N 0.83275 0.65688 0.7803 0.0
N1897 N 0.81386 0.59608 0.74872 0.0
H1898 H 0.80767 0.5556 0.03116 0.0
H1899 H 0.93616 0.57419 0.98395 0.0
H1900 H 0.83302 0.60747 0.98297 0.0
H1901 H 0.91051 0.51883 0.02834 0.0
H1902 H 0.89777 0.58533 0.98235 0.0
H1903 H 0.84417 0.54064 0.02918 0.0
C1904 C 0.82082 0.56375 0.02 0.0
C1905 C 0.81729 0.58293 0.00728 0.0
C1906 C 0.90041 0.57068 0.99238 0.0
C1907 C 0.85923 0.56591 0.00507 0.0
C1908 C 0.92242 0.56431 0.99337 0.0
C1909 C 0.92668 0.54563 0.00647 0.0
C1910 C 0.88237 0.55843 0.00471 0.0
C1911 C 0.90804 0.53337 0.01808 0.0
C1912 C 0.84168 0.55518 0.01891 0.0
C1913 C 0.83496 0.59271 0.99311 0.0
N1914 N 0.88672 0.5401 0.01706 0.0
N1915 N 0.85518 0.58419 0.99252 0.0
H1916 H 0.14859 0.09589 0.79385 0.0
H1917 H 0.2698 0.19174 0.79809 0.0
H1918 H 0.21507 0.07346 0.78957 0.0
H1919 H 0.2027 0.19926 0.76233 0.0
H1920 H 0.25107 0.15078 0.80457 0.0
H1921 H 0.16952 0.137 0.79339 0.0
C1922 C 0.16766 0.09959 0.79323 0.0
C1923 C 0.18003 0.08109 0.79148 0.0
C1924 C 0.24056 0.16159 0.79544 0.0
C1925 C 0.20407 0.12827 0.79097 0.0
C1926 C 0.25118 0.18491 0.79175 0.0
C1927 C 0.23778 0.1991 0.77983 0.0
C1928 C 0.21632 0.15272 0.78764 0.0
C1929 C 0.21374 0.18921 0.77185 0.0
C1930 C 0.17955 0.12308 0.79281 0.0
C1931 C 0.20479 0.08713 0.79073 0.0
N1932 N 0.20378 0.16679 0.77608 0.0
N1933 N 0.21603 0.11024 0.79039 0.0
H1934 H 0.32118 0.94723 0.26359 0.0
H1935 H 0.35466 0.82524 0.28734 0.0
H1936 H 0.39083 0.94263 0.29538 0.0
H1937 H 0.28199 0.83374 0.28035 0.0
H1938 H 0.36817 0.86849 0.29256 0.0
H1939 H 0.30606 0.90606 0.27106 0.0
C1940 C 0.33324 0.93767 0.27234 0.0
C1941 C 0.35738 0.94833 0.27858 0.0
C1942 C 0.34926 0.86091 0.29035 0.0
C1943 C 0.34022 0.90121 0.28704 0.0
C1944 C 0.34155 0.83622 0.2874 0.0
C1945 C 0.3172 0.8259 0.28316 0.0
C1946 C 0.3325 0.87534 0.28852 0.0
C1947 C 0.30095 0.84095 0.28349 0.0
C1948 C 0.32457 0.9142 0.27671 0.0
C1949 C 0.37213 0.93511 0.29007 0.0
N1950 N 0.3089 0.86494 0.2856 0.0
N1951 N 0.3634 0.91215 0.2936 0.0
H1952 H 0.50164 0.34941 0.64131 0.0
H1953 H 0.51605 0.42105 0.52459 0.0
H1954 H 0.54089 0.33169 0.58221 0.0
H1955 H 0.4996 0.45084 0.59345 0.0
H1956 H 0.51472 0.38294 0.54124 0.0
H1957 H 0.49108 0.38169 0.61978 0.0
C1958 C 0.50783 0.35215 0.62371 0.0
C1959 C 0.52245 0.33808 0.61369 0.0
C1960 C 0.51097 0.39772 0.55252 0.0
C1961 C 0.51023 0.3747 0.58892 0.0
C1962 C 0.5115 0.41937 0.54297 0.0
C1963 C 0.50816 0.43913 0.55778 0.0
C1964 C 0.50684 0.39584 0.57692 0.0
C1965 C 0.50253 0.43607 0.58153 0.0
C1966 C 0.5018 0.37055 0.61146 0.0
C1967 C 0.52986 0.34233 0.59077 0.0
N1968 N 0.50225 0.4149 0.59045 0.0
N1969 N 0.52376 0.36032 0.57921 0.0
H1970 H 0.42667 0.7128 0.35615 0.0
H1971 H 0.33742 0.73411 0.24601 0.0
H1972 H 0.44932 0.74843 0.2945 0.0
H1973 H 0.31886 0.72486 0.31869 0.0
H1974 H 0.37694 0.72694 0.25842 0.0
H1975 H 0.38562 0.70416 0.33677 0.0
C1976 C 0.4231 0.71825 0.33827 0.0
C1977 C 0.44128 0.73175 0.32709 0.0
C1978 C 0.36402 0.72611 0.27148 0.0
C1979 C 0.39459 0.72202 0.30498 0.0
C1980 C 0.34151 0.73016 0.26442 0.0
C1981 C 0.32505 0.73047 0.28149 0.0
C1982 C 0.36986 0.72204 0.29562 0.0
C1983 C 0.33119 0.72517 0.30508 0.0
C1984 C 0.39969 0.71344 0.3273 0.0
C1985 C 0.43571 0.73834 0.30391 0.0
N1986 N 0.35318 0.72134 0.31151 0.0
N1987 N 0.41278 0.73367 0.29372 0.0
H1988 H 0.03795 0.70908 0.08627 0.0
H1989 H 0.00018 0.57027 0.10105 0.0
H1990 H 0.01256 0.68107 0.15091 0.0
H1991 H 0.02287 0.59668 0.03475 0.0
H1992 H 0.00722 0.61103 0.12024 0.0
H1993 H 0.03431 0.66834 0.06744 0.0
C1994 C 0.03155 0.6944 0.09649 0.0
C1995 C 0.0255 0.69854 0.12021 0.0
C1996 C 0.0108 0.60797 0.10153 0.0
C1997 C 0.02148 0.65192 0.09882 0.0
C1998 C 0.00686 0.58465 0.09057 0.0
C1999 C 0.01082 0.58005 0.06621 0.0
C2000 C 0.0187 0.62693 0.08805 0.0
C2001 C 0.01957 0.59942 0.05358 0.0
C2002 C 0.02955 0.67115 0.08574 0.0
C2003 C 0.01738 0.6788 0.13258 0.0
N2004 N 0.02307 0.62205 0.06461 0.0
N2005 N 0.01563 0.65641 0.12175 0.0
H2006 H 0.04441 0.20661 0.80578 0.0
H2007 H 0.1661 0.29205 0.78359 0.0
H2008 H 0.06928 0.27698 0.84418 0.0
H2009 H 0.15193 0.21542 0.77295 0.0
H2010 H 0.12555 0.28987 0.795 0.0
H2011 H 0.07859 0.21327 0.78264 0.0
C2012 C 0.05691 0.2236 0.80917 0.0
C2013 C 0.05424 0.24111 0.8273 0.0
C2014 C 0.13124 0.27361 0.78967 0.0
C2015 C 0.0934 0.24878 0.80076 0.0
C2016 C 0.1542 0.27484 0.783 0.0
C2017 C 0.16221 0.25385 0.77751 0.0
C2018 C 0.11629 0.25126 0.79032 0.0
C2019 C 0.14637 0.23197 0.77726 0.0
C2020 C 0.07641 0.22736 0.79592 0.0
C2021 C 0.07085 0.26289 0.8306 0.0
N2022 N 0.12418 0.23123 0.78369 0.0
N2023 N 0.08995 0.26604 0.81763 0.0
H2024 H 0.53645 0.72218 0.98327 0.0
H2025 H 0.48899 0.58707 0.94869 0.0
H2026 H 0.48739 0.6949 0.91896 0.0
H2027 H 0.50587 0.61564 0.02413 0.0
H2028 H 0.48706 0.62669 0.93789 0.0
H2029 H 0.52429 0.68427 -0.00017 0.0
C2030 C 0.5228 0.70836 0.97284 0.0
C2031 C 0.51319 0.71147 0.94954 0.0
C2032 C 0.49076 0.6243 0.95687 0.0
C2033 C 0.49953 0.66813 0.96818 0.0
C2034 C 0.49202 0.60176 0.96299 0.0
C2035 C 0.49786 0.59835 0.98725 0.0
C2036 C 0.49608 0.64367 0.97507 0.0
C2037 C 0.50139 0.61774 0.00521 0.0
C2038 C 0.5158 0.68679 0.98235 0.0
C2039 C 0.4954 0.69313 0.9369 0.0
N2040 N 0.50099 0.63982 -0.00131 0.0
N2041 N 0.48951 0.67201 0.94616 0.0
H2042 H 0.0636 0.73874 0.70227 0.0
H2043 H 0.20154 0.77403 0.68312 0.0
H2044 H 0.08997 0.76518 0.63735 0.0
H2045 H 0.1766 0.74899 0.74914 0.0
H2046 H 0.16044 0.76879 0.66546 0.0
H2047 H 0.1046 0.74126 0.71959 0.0
C2048 C 0.07798 0.74519 0.6917 0.0
C2049 C 0.0733 0.75179 0.66831 0.0
C2050 C 0.16391 0.7643 0.68377 0.0
C2051 C 0.12021 0.75448 0.68793 0.0
C2052 C 0.18741 0.7672 0.69383 0.0
C2053 C 0.19253 0.76205 0.71768 0.0
C2054 C 0.14532 0.75627 0.69766 0.0
C2055 C 0.17347 0.75319 0.73068 0.0
C2056 C 0.10138 0.74652 0.70157 0.0
C2057 C 0.09266 0.75992 0.65544 0.0
N2058 N 0.15068 0.75073 0.72055 0.0
N2059 N 0.11521 0.761 0.66541 0.0
H2060 H 0.05936 0.35097 0.42708 0.0
H2061 H 0.04623 0.43982 0.54142 0.0
H2062 H 0.03265 0.32637 0.49252 0.0
H2063 H 0.03538 0.45319 0.46639 0.0
H2064 H 0.05504 0.4012 0.52752 0.0
H2065 H 0.0658 0.39204 0.44611 0.0
C2066 C 0.05553 0.35418 0.44569 0.0
C2067 C 0.04505 0.33538 0.45813 0.0
C2068 C 0.05112 0.4129 0.51425 0.0
C2069 C 0.05234 0.38201 0.47983 0.0
C2070 C 0.04606 0.43482 0.52212 0.0
C2071 C 0.0399 0.44962 0.50502 0.0
C2072 C 0.05051 0.40615 0.48922 0.0
C2073 C 0.03994 0.44233 0.48021 0.0
C2074 C 0.05906 0.37756 0.45645 0.0
C2075 C 0.04039 0.34048 0.4822 0.0
N2076 N 0.04513 0.42112 0.47307 0.0
N2077 N 0.0438 0.36339 0.49222 0.0
H2078 H 0.45162 0.22957 0.2089 0.0
H2079 H 0.33028 0.27091 0.18927 0.0
H2080 H 0.43557 0.26919 0.14957 0.0
H2081 H 0.35793 0.25457 0.25904 0.0
H2082 H 0.36914 0.27185 0.1748 0.0
H2083 H 0.41788 0.23939 0.22803 0.0
C2084 C 0.4411 0.2405 0.19998 0.0
C2085 C 0.44625 0.24838 0.17749 0.0
C2086 C 0.36684 0.26847 0.19341 0.0
C2087 C 0.40751 0.25953 0.1992 0.0
C2088 C 0.34467 0.26793 0.20167 0.0
C2089 C 0.34086 0.26246 0.22531 0.0
C2090 C 0.38519 0.26304 0.20874 0.0
C2091 C 0.36012 0.25884 0.24067 0.0
C2092 C 0.42191 0.2462 0.21098 0.0
C2093 C 0.43215 0.26266 0.16687 0.0
N2094 N 0.38136 0.25876 0.23197 0.0
N2095 N 0.41319 0.26749 0.17765 0.0
H2096 H 0.61136 0.48293 0.35489 0.0
H2097 H 0.49659 0.49177 0.42344 0.0
H2098 H 0.5555 0.51555 0.32625 0.0
H2099 H 0.56447 0.48833 0.46049 0.0
H2100 H 0.51403 0.49099 0.38463 0.0
H2101 H 0.59021 0.47529 0.39074 0.0
C2102 C 0.59451 0.4882 0.35598 0.0
C2103 C 0.58529 0.5001 0.33767 0.0
C2104 C 0.52496 0.49014 0.40128 0.0
C2105 C 0.56097 0.49126 0.37848 0.0
C2106 C 0.51501 0.49047 0.42338 0.0
C2107 C 0.52917 0.49037 0.44526 0.0
C2108 C 0.54907 0.48923 0.40106 0.0
C2109 C 0.55296 0.48868 0.4441 0.0
C2110 C 0.58251 0.48391 0.37647 0.0
C2111 C 0.56338 0.50654 0.34006 0.0
N2112 N 0.56216 0.48822 0.42242 0.0
N2113 N 0.55198 0.50209 0.36011 0.0
H2114 H 0.25526 0.88931 0.10718 0.0
H2115 H 0.27994 0.7759 0.16956 0.0
H2116 H 0.25715 0.82233 0.06684 0.0
H2117 H 0.26352 0.83732 0.20902 0.0
H2118 H 0.27552 0.79424 0.13181 0.0
H2119 H 0.26135 0.87174 0.14507 0.0
C2120 C 0.25684 0.8709 0.10628 0.0
C2121 C 0.25568 0.85727 0.08383 0.0
C2122 C 0.27295 0.8037 0.14877 0.0
C2123 C 0.26289 0.83718 0.12698 0.0
C2124 C 0.27561 0.79331 0.17029 0.0
C2125 C 0.27197 0.80508 0.19236 0.0
C2126 C 0.26677 0.82602 0.14946 0.0
C2127 C 0.26632 0.82756 0.19234 0.0
C2128 C 0.26035 0.8609 0.12789 0.0
C2129 C 0.25788 0.8335 0.08373 0.0
N2130 N 0.26386 0.8373 0.1712 0.0
N2131 N 0.26147 0.82424 0.10499 0.0
H2132 H 0.922 0.5632 0.85363 0.0
H2133 H 0.03606 0.5393 0.93138 0.0
H2134 H 0.97699 0.53456 0.82166 0.0
H2135 H 0.96711 0.53751 0.95625 0.0
H2136 H 0.02131 0.55218 0.89285 0.0
H2137 H 0.94626 0.56994 0.8931 0.0
C2138 C 0.93945 0.55899 0.85477 0.0
C2139 C 0.94727 0.54771 0.83461 0.0
C2140 C 0.00972 0.54946 0.9071 0.0
C2141 C 0.97489 0.55521 0.87945 0.0
C2142 C 0.01807 0.54208 0.92898 0.0
C2143 C 0.00271 0.53708 0.94693 0.0
C2144 C 0.9861 0.55224 0.90357 0.0
C2145 C 0.97958 0.54103 0.94295 0.0
C2146 C 0.95323 0.56273 0.87728 0.0
C2147 C 0.9701 0.54276 0.837 0.0
N2148 N 0.97197 0.54825 0.9217 0.0
N2149 N 0.98299 0.54614 0.85917 0.0
H2150 H 0.28428 0.13909 0.59433 0.0
H2151 H 0.26644 0.24912 0.68442 0.0
H2152 H 0.25972 0.19919 0.56871 0.0
H2153 H 0.29047 0.18785 0.70763 0.0
H2154 H 0.26378 0.23175 0.64193 0.0
H2155 H 0.28718 0.15756 0.63597 0.0
C2156 C 0.27959 0.15625 0.59742 0.0
C2157 C 0.27169 0.16755 0.57791 0.0
C2158 C 0.2696 0.22214 0.65637 0.0
C2159 C 0.27484 0.18886 0.62584 0.0
C2160 C 0.27104 0.23201 0.68061 0.0
C2161 C 0.2787 0.21995 0.69963 0.0
C2162 C 0.27586 0.20008 0.6512 0.0
C2163 C 0.28452 0.19787 0.69363 0.0
C2164 C 0.2812 0.16679 0.62128 0.0
C2165 C 0.26589 0.18981 0.58316 0.0
N2166 N 0.283 0.18871 0.67003 0.0
N2167 N 0.26751 0.1997 0.60663 0.0
H2168 H 0.63568 0.49306 0.19025 0.0
H2169 H 0.5232 0.50549 0.10067 0.0
H2170 H 0.57308 0.51187 0.21643 0.0
H2171 H 0.58863 0.4913 0.07718 0.0
H2172 H 0.5405 0.50804 0.14316 0.0
H2173 H 0.61775 0.49159 0.14865 0.0
C2174 C 0.61809 0.49677 0.18729 0.0
C2175 C 0.60592 0.50263 0.20696 0.0
C2176 C 0.55105 0.50448 0.12865 0.0
C2177 C 0.58521 0.50112 0.15906 0.0
C2178 C 0.54123 0.50313 0.10442 0.0
C2179 C 0.55445 0.4981 0.08532 0.0
C2180 C 0.5742 0.50073 0.13374 0.0
C2181 C 0.5777 0.4951 0.09125 0.0
C2182 C 0.60786 0.49601 0.16345 0.0
C2183 C 0.58313 0.50726 0.20185 0.0
N2184 N 0.58674 0.49637 0.11484 0.0
N2185 N 0.57352 0.50645 0.17839 0.0
H2186 H 0.20701 0.84121 0.93468 0.0
H2187 H 0.24205 0.73342 0.85624 0.0
H2188 H 0.24308 0.79066 0.96585 0.0
H2189 H 0.22952 0.79816 0.82947 0.0
H2190 H 0.22985 0.74664 0.89564 0.0
H2191 H 0.20137 0.81695 0.89529 0.0
C2192 C 0.21315 0.82469 0.93339 0.0
C2193 C 0.22608 0.81822 0.95331 0.0
C2194 C 0.22941 0.75765 0.88088 0.0
C2195 C 0.21993 0.79064 0.90849 0.0
C2196 C 0.2364 0.75016 0.85849 0.0
C2197 C 0.2372 0.76489 0.83969 0.0
C2198 C 0.22291 0.77978 0.88418 0.0
C2199 C 0.22952 0.78634 0.84349 0.0
C2200 C 0.21005 0.81092 0.91091 0.0
C2201 C 0.23351 0.79654 0.95072 0.0
N2202 N 0.22288 0.79318 0.8653 0.0
N2203 N 0.23071 0.7837 0.92856 0.0
H2204 H 0.89264 0.48376 0.68502 0.0
H2205 H 0.98872 0.55122 0.61098 0.0
H2206 H 0.94364 0.54582 0.71931 0.0
H2207 H 0.9744 0.47461 0.60559 0.0
H2208 H 0.96748 0.55174 0.64728 0.0
H2209 H 0.91713 0.4821 0.65109 0.0
C2210 C 0.90884 0.49713 0.68523 0.0
C2211 C 0.91621 0.51499 0.7048 0.0
C2212 C 0.96927 0.53487 0.6383 0.0
C2213 C 0.94387 0.51324 0.66646 0.0
C2214 C 0.98135 0.53456 0.61775 0.0
C2215 C 0.98336 0.51285 0.60569 0.0
C2216 C 0.95849 0.51329 0.64617 0.0
C2217 C 0.97339 0.49166 0.61477 0.0
C2218 C 0.92284 0.49601 0.66612 0.0
C2219 C 0.93743 0.53177 0.70449 0.0
N2220 N 0.96093 0.49235 0.63437 0.0
N2221 N 0.95045 0.53065 0.68545 0.0
H2222 H 0.29002 0.16562 0.43115 0.0
H2223 H 0.26286 0.27416 0.36086 0.0
H2224 H 0.2484 0.21462 0.45753 0.0
H2225 H 0.29116 0.21696 0.32768 0.0
H2226 H 0.26316 0.25594 0.39893 0.0
H2227 H 0.29615 0.18757 0.39559 0.0
C2228 C 0.28237 0.18111 0.4296 0.0
C2229 C 0.26852 0.18818 0.44725 0.0
C2230 C 0.26946 0.24747 0.38336 0.0
C2231 C 0.27549 0.21337 0.40669 0.0
C2232 C 0.26939 0.25793 0.36161 0.0
C2233 C 0.27686 0.24704 0.34091 0.0
C2234 C 0.27715 0.22601 0.38453 0.0
C2235 C 0.28511 0.22597 0.34307 0.0
C2236 C 0.28581 0.19358 0.40927 0.0
C2237 C 0.25903 0.20839 0.44429 0.0
N2238 N 0.28493 0.2161 0.36442 0.0
N2239 N 0.26263 0.22021 0.42439 0.0
H2240 H 0.34888 0.62507 0.50064 0.0
H2241 H 0.4069 0.51052 0.49631 0.0
H2242 H 0.32639 0.56515 0.54054 0.0
H2243 H 0.44373 0.58032 0.48351 0.0
H2244 H 0.37066 0.52605 0.50045 0.0
H2245 H 0.37734 0.6044 0.48271 0.0
C2246 C 0.34974 0.60748 0.50541 0.0
C2247 C 0.3356 0.59698 0.52243 0.0
C2248 C 0.38656 0.53777 0.49616 0.0
C2249 C 0.36776 0.5732 0.5018 0.0
C2250 C 0.40707 0.52888 0.49358 0.0
C2251 C 0.42816 0.54429 0.48975 0.0
C2252 C 0.38729 0.56206 0.49454 0.0
C2253 C 0.42774 0.568 0.48666 0.0
C2254 C 0.36594 0.5957 0.49517 0.0
C2255 C 0.33728 0.57406 0.52782 0.0
N2256 N 0.40766 0.57624 0.48931 0.0
N2257 N 0.35321 0.56298 0.51765 0.0
H2258 H 0.8495 0.886 0.53941 0.0
H2259 H 0.94011 0.0117 0.54582 0.0
H2260 H 0.82973 0.95188 0.56296 0.0
H2261 H 0.94732 0.94689 0.50482 0.0
H2262 H 0.9018 0.99044 0.55695 0.0
H2263 H 0.88825 0.90836 0.53243 0.0
C2264 C 0.85333 0.90519 0.54328 0.0
C2265 C 0.83618 0.91707 0.55157 0.0
C2266 C 0.91186 0.981 0.5455 0.0
C2267 C 0.88073 0.94291 0.54338 0.0
C2268 C 0.93366 0.99309 0.53913 0.0
C2269 C 0.94697 0.98108 0.52437 0.0
C2270 C 0.90357 0.95674 0.53725 0.0
C2271 C 0.93776 0.95696 0.51623 0.0
C2272 C 0.87549 0.91798 0.53917 0.0
C2273 C 0.84236 0.942 0.55642 0.0
N2274 N 0.91677 0.94563 0.52286 0.0
N2275 N 0.86414 0.95415 0.55214 0.0
H2276 H 0.87273 0.07622 0.27722 0.0
H2277 H 0.77163 0.15181 0.26015 0.0
H2278 H 0.81619 0.06017 0.21805 0.0
H2279 H 0.82992 0.16953 0.31754 0.0
H2280 H 0.78624 0.11672 0.24592 0.0
H2281 H 0.85616 0.10932 0.29345 0.0
C2282 C 0.85681 0.07962 0.26766 0.0
C2283 C 0.84588 0.06541 0.2462 0.0
C2284 C 0.79575 0.12821 0.26172 0.0
C2285 C 0.82674 0.10327 0.26473 0.0
C2286 C 0.78735 0.1482 0.26993 0.0
C2287 C 0.79956 0.16368 0.29009 0.0
C2288 C 0.81655 0.12364 0.27371 0.0
C2289 C 0.81991 0.15813 0.30194 0.0
C2290 C 0.84734 0.09852 0.27694 0.0
C2291 C 0.82526 0.07067 0.2346 0.0
N2292 N 0.8278 0.13866 0.29351 0.0
N2293 N 0.81639 0.08917 0.24399 0.0
H2294 H 0.6973 0.14357 0.04457 0.0
H2295 H 0.59497 0.02512 0.0221 0.0
H2296 H 0.71039 0.07403 0.05515 0.0
H2297 H 0.58598 0.09404 0.00383 0.0
H2298 H 0.63605 0.04301 0.03897 0.0
H2299 H 0.6552 0.12599 0.03459 0.0
C2300 C 0.69131 0.12459 0.04495 0.0
C2301 C 0.70748 0.11022 0.05048 0.0
C2302 C 0.625 0.0542 0.03138 0.0
C2303 C 0.6591 0.0899 0.03889 0.0
C2304 C 0.60157 0.04402 0.0218 0.0
C2305 C 0.58711 0.05809 0.01137 0.0
C2306 C 0.63392 0.0786 0.0306 0.0
C2307 C 0.59653 0.08248 0.0115 0.0
C2308 C 0.66722 0.11455 0.03921 0.0
C2309 C 0.69858 0.08576 0.05087 0.0
N2310 N 0.61934 0.09191 0.02086 0.0
N2311 N 0.67497 0.07632 0.04495 0.0
H2312 H 0.16208 0.43579 0.28507 0.0
H2313 H 0.25696 0.36426 0.24379 0.0
H2314 H 0.20564 0.45361 0.22734 0.0
H2315 H 0.22785 0.35665 0.31216 0.0
H2316 H 0.24131 0.40003 0.24022 0.0
H2317 H 0.18796 0.40935 0.29793 0.0
C2318 C 0.1772 0.43435 0.27527 0.0
C2319 C 0.18146 0.44659 0.25483 0.0
C2320 C 0.23871 0.39094 0.25632 0.0
C2321 C 0.21106 0.41652 0.26943 0.0
C2322 C 0.24777 0.3706 0.25838 0.0
C2323 C 0.24372 0.35773 0.27832 0.0
C2324 C 0.2248 0.39801 0.27396 0.0
C2325 C 0.2315 0.36637 0.29664 0.0
C2326 C 0.19201 0.41934 0.28268 0.0
C2327 C 0.20142 0.44424 0.24295 0.0
N2328 N 0.22198 0.38578 0.29379 0.0
N2329 N 0.21527 0.42931 0.25025 0.0
H2330 H 0.19698 0.41681 0.00387 0.0
H2331 H 0.0992 0.47805 0.05612 0.0
H2332 H 0.20344 0.44766 0.07855 0.0
H2333 H 0.11203 0.48087 0.98105 0.0
H2334 H 0.13587 0.46403 0.06429 0.0
H2335 H 0.16419 0.43693 0.99433 0.0
C2336 C 0.19156 0.42782 0.01822 0.0
C2337 C 0.20288 0.43045 0.04208 0.0
C2338 C 0.13091 0.468 0.04608 0.0
C2339 C 0.16545 0.45327 0.03132 0.0
C2340 C 0.11 0.47603 0.04143 0.0
C2341 C 0.10276 0.48079 0.01796 0.0
C2342 C 0.14441 0.46399 0.02695 0.0
C2343 C 0.11725 0.47766 -0.00053 0.0
C2344 C 0.17299 0.4394 0.01272 0.0
C2345 C 0.19523 0.44507 0.05992 0.0
N2346 N 0.13728 0.46905 0.00426 0.0
N2347 N 0.17686 0.45568 0.05424 0.0
H2348 H 0.81668 0.94495 0.22107 0.0
H2349 H 0.82691 0.825 0.27822 0.0
H2350 H 0.88258 0.92705 0.24771 0.0
H2351 H 0.76175 0.83296 0.23859 0.0
H2352 H 0.84652 0.86369 0.26852 0.0
H2353 H 0.79532 0.90515 0.22801 0.0
C2354 C 0.82667 0.93266 0.22821 0.0
C2355 C 0.85148 0.93945 0.23394 0.0
C2356 C 0.82794 0.85707 0.26185 0.0
C2357 C 0.82718 0.89413 0.24205 0.0
C2358 C 0.81664 0.83492 0.26748 0.0
C2359 C 0.79258 0.82563 0.2592 0.0
C2360 C 0.81518 0.87038 0.24794 0.0
C2361 C 0.78033 0.83943 0.24532 0.0
C2362 C 0.81447 0.90998 0.23216 0.0
C2363 C 0.86348 0.92276 0.24311 0.0
N2364 N 0.79176 0.86121 0.24016 0.0
N2365 N 0.85122 0.90103 0.24698 0.0
H2366 H 0.62468 0.06982 0.74917 0.0
H2367 H 0.74143 0.17411 0.76509 0.0
H2368 H 0.69401 0.05803 0.73557 0.0
H2369 H 0.67251 0.18327 0.78318 0.0
H2370 H 0.72399 0.13241 0.75037 0.0
H2371 H 0.64158 0.11219 0.75801 0.0
C2372 C 0.64348 0.07613 0.74796 0.0
C2373 C 0.65798 0.06026 0.74177 0.0
C2374 C 0.71268 0.14361 0.75742 0.0
C2375 C 0.67751 0.10899 0.75196 0.0
C2376 C 0.7226 0.16743 0.76575 0.0
C2377 C 0.70843 0.18214 0.77555 0.0
C2378 C 0.68844 0.13452 0.75886 0.0
C2379 C 0.68415 0.17255 0.77595 0.0
C2380 C 0.65313 0.10039 0.75302 0.0
C2381 C 0.68219 0.06959 0.74038 0.0
N2382 N 0.67497 0.14934 0.76786 0.0
N2383 N 0.69123 0.09335 0.74556 0.0
loop_
_geom_bond_atom_site_label_1
_geom_bond_atom_site_label_2
_geom_bond_distance
_geom_bond_site_symmetry_2
_ccdc_geom_bond_type
O0 Cd1 2.223 . S
O0 C8 1.315 . S
Cd1 O0 2.223 . S
Cd1 O4 2.297 . S
Cd1 O5 2.439 . S
Cd1 O11 2.240 1_455 S
Cd2 O3 2.240 . S
Cd2 O10 2.223 1_455 S
Cd2 O12 2.297 . S
Cd2 O13 2.439 . S
O3 Cd2 2.240 . S
O3 C8 1.279 . S
O4 Cd1 2.297 . S
O4 C6 1.247 . S
O5 Cd1 2.439 . S
O5 C6 1.208 . S
C6 O4 1.247 . S
C6 O5 1.208 . S
C7 O12 1.247 . S
C7 O13 1.208 . S
C8 O0 1.315 . S
C8 O3 1.279 . S
C9 O10 1.315 . S
C9 O11 1.279 . S
O10 Cd2 2.223 1_655 S
O10 C9 1.315 . S
O11 Cd1 2.240 1_655 S
O11 C9 1.279 . S
O12 Cd2 2.297 . S
O12 C7 1.247 . S
O13 Cd2 2.439 . S
O13 C7 1.208 . S
O14 Cd15 2.223 1_455 S
O14 C22 1.315 1_455 S
Cd15 O14 2.223 1_655 S
Cd15 O18 2.297 . S
Cd15 O19 2.439 . S
Cd15 O25 2.240 1_655 S
Cd16 O17 2.240 1_455 S
Cd16 O24 2.223 . S
Cd16 O26 2.297 . S
Cd16 O27 2.439 . S
O17 Cd16 2.240 1_655 S
O17 C22 1.279 . S
O18 Cd15 2.297 . S
O18 C20 1.247 . S
O19 Cd15 2.439 . S
O19 C20 1.208 . S
C20 O18 1.247 . S
C20 O19 1.208 . S
C21 O26 1.247 . S
C21 O27 1.208 . S
C22 O14 1.315 1_655 S
C22 O17 1.279 . S
C23 O24 1.315 . S
C23 O25 1.279 . S
O24 Cd16 2.223 . S
O24 C23 1.315 . S
O25 Cd15 2.240 1_455 S
O25 C23 1.279 . S
O26 Cd16 2.297 . S
O26 C21 1.247 . S
O27 Cd16 2.439 . S
O27 C21 1.208 . S
O28 Cd29 2.223 . S
O28 C36 1.315 . S
Cd29 O28 2.223 . S
Cd29 O32 2.297 . S
Cd29 O33 2.439 . S
Cd29 O39 2.240 . S
Cd30 O31 2.240 . S
Cd30 O38 2.223 . S
Cd30 O40 2.297 . S
Cd30 O41 2.439 . S
O31 Cd30 2.240 . S
O31 C36 1.279 . S
O32 Cd29 2.297 . S
O32 C34 1.247 . S
O33 Cd29 2.439 . S
O33 C34 1.208 . S
C34 O32 1.247 . S
C34 O33 1.208 . S
C35 O40 1.247 . S
C35 O41 1.208 . S
C36 O28 1.315 . S
C36 O31 1.279 . S
C37 O38 1.315 . S
C37 O39 1.279 . S
O38 Cd30 2.223 . S
O38 C37 1.315 . S
O39 Cd29 2.240 . S
O39 C37 1.279 . S
O40 Cd30 2.297 . S
O40 C35 1.247 . S
O41 Cd30 2.439 . S
O41 C35 1.208 . S
O42 Cd43 2.223 . S
O42 C50 1.315 . S
Cd43 O42 2.223 . S
Cd43 O46 2.297 . S
Cd43 O47 2.439 . S
Cd43 O53 2.240 . S
Cd44 O45 2.240 . S
Cd44 O52 2.223 . S
Cd44 O54 2.297 . S
Cd44 O55 2.439 . S
O45 Cd44 2.240 . S
O45 C50 1.279 . S
O46 Cd43 2.297 . S
O46 C48 1.247 . S
O47 Cd43 2.439 . S
O47 C48 1.208 . S
C48 O46 1.247 . S
C48 O47 1.208 . S
C49 O54 1.247 . S
C49 O55 1.208 . S
C50 O42 1.315 . S
C50 O45 1.279 . S
C51 O52 1.315 . S
C51 O53 1.279 . S
O52 Cd44 2.223 . S
O52 C51 1.315 . S
O53 Cd43 2.240 . S
O53 C51 1.279 . S
O54 Cd44 2.297 . S
O54 C49 1.247 . S
O55 Cd44 2.439 . S
O55 C49 1.208 . S
O56 Cd57 2.223 . S
O56 C64 1.315 . S
Cd57 O56 2.223 . S
Cd57 O60 2.297 1_455 S
Cd57 O61 2.439 1_455 S
Cd57 O67 2.240 . S
Cd58 O59 2.240 . S
Cd58 O66 2.223 . S
Cd58 O68 2.297 . S
Cd58 O69 2.439 . S
O59 Cd58 2.240 . S
O59 C64 1.279 . S
O60 Cd57 2.297 1_655 S
O60 C62 1.247 . S
O61 Cd57 2.439 1_655 S
O61 C62 1.208 . S
C62 O60 1.247 . S
C62 O61 1.208 . S
C63 O68 1.247 . S
C63 O69 1.208 . S
C64 O56 1.315 . S
C64 O59 1.279 . S
C65 O66 1.315 . S
C65 O67 1.279 . S
O66 Cd58 2.223 . S
O66 C65 1.315 . S
O67 Cd57 2.240 . S
O67 C65 1.279 . S
O68 Cd58 2.297 . S
O68 C63 1.247 . S
O69 Cd58 2.439 . S
O69 C63 1.208 . S
O70 Cd71 2.223 . S
O70 C78 1.315 . S
Cd71 O70 2.223 . S
Cd71 O74 2.297 . S
Cd71 O75 2.439 . S
Cd71 O81 2.240 . S
Cd72 O73 2.240 . S
Cd72 O80 2.223 . S
Cd72 O82 2.297 . S
Cd72 O83 2.439 . S
O73 Cd72 2.240 . S
O73 C78 1.279 . S
O74 Cd71 2.297 . S
O74 C76 1.247 . S
O75 Cd71 2.439 . S
O75 C76 1.208 . S
C76 O74 1.247 . S
C76 O75 1.208 . S
C77 O82 1.247 . S
C77 O83 1.208 . S
C78 O70 1.315 . S
C78 O73 1.279 . S
C79 O80 1.315 . S
C79 O81 1.279 . S
O80 Cd72 2.223 . S
O80 C79 1.315 . S
O81 Cd71 2.240 . S
O81 C79 1.279 . S
O82 Cd72 2.297 . S
O82 C77 1.247 . S
O83 Cd72 2.439 . S
O83 C77 1.208 . S
O84 Cd85 2.223 . S
O84 C92 1.315 . S
Cd85 O84 2.223 . S
Cd85 O88 2.297 . S
Cd85 O89 2.439 . S
Cd85 O95 2.240 . S
Cd86 O87 2.240 . S
Cd86 O94 2.223 . S
Cd86 O96 2.297 . S
Cd86 O97 2.439 . S
O87 Cd86 2.240 . S
O87 C92 1.279 . S
O88 Cd85 2.297 . S
O88 C90 1.247 . S
O89 Cd85 2.439 . S
O89 C90 1.208 . S
C90 O88 1.247 . S
C90 O89 1.208 . S
C91 O96 1.247 . S
C91 O97 1.208 . S
C92 O84 1.315 . S
C92 O87 1.279 . S
C93 O94 1.315 . S
C93 O95 1.279 . S
O94 Cd86 2.223 . S
O94 C93 1.315 . S
O95 Cd85 2.240 . S
O95 C93 1.279 . S
O96 Cd86 2.297 . S
O96 C91 1.247 . S
O97 Cd86 2.439 . S
O97 C91 1.208 . S
O98 Cd99 2.223 1_655 S
O98 C106 1.315 . S
Cd99 O98 2.223 1_455 S
Cd99 O102 2.297 . S
Cd99 O103 2.439 . S
Cd99 O109 2.240 1_455 S
Cd100 O101 2.240 1_655 S
Cd100 O108 2.223 . S
Cd100 O110 2.297 . S
Cd100 O111 2.439 1_655 S
O101 Cd100 2.240 1_455 S
O101 C106 1.279 1_455 S
O102 Cd99 2.297 . S
O102 C104 1.247 . S
O103 Cd99 2.439 . S
O103 C104 1.208 . S
C104 O102 1.247 . S
C104 O103 1.208 . S
C105 O110 1.242 1_455 S
C105 O111 1.214 . S
C106 O98 1.315 . S
C106 O101 1.279 1_655 S
C107 O108 1.315 . S
C107 O109 1.279 . S
O108 Cd100 2.223 . S
O108 C107 1.315 . S
O109 Cd99 2.240 1_655 S
O109 C107 1.279 . S
O110 Cd100 2.297 . S
O110 C105 1.242 1_655 S
O111 Cd100 2.439 1_455 S
O111 C105 1.214 . S
O112 Cd113 2.223 . S
O112 C120 1.315 . S
Cd113 O112 2.223 . S
Cd113 O116 2.297 . S
Cd113 O117 2.439 . S
Cd113 O123 2.240 1_545 S
Cd114 O115 2.240 . S
Cd114 O122 2.223 1_545 S
Cd114 O124 2.297 . S
Cd114 O125 2.439 . S
O115 Cd114 2.240 . S
O115 C120 1.279 . S
O116 Cd113 2.297 . S
O116 C118 1.247 . S
O117 Cd113 2.439 . S
O117 C118 1.208 . S
C118 O116 1.247 . S
C118 O117 1.208 . S
C119 O124 1.247 . S
C119 O125 1.208 . S
C120 O112 1.315 . S
C120 O115 1.279 . S
C121 O122 1.315 . S
C121 O123 1.279 . S
O122 Cd114 2.223 1_565 S
O122 C121 1.315 . S
O123 Cd113 2.240 1_565 S
O123 C121 1.279 . S
O124 Cd114 2.297 . S
O124 C119 1.247 . S
O125 Cd114 2.439 . S
O125 C119 1.208 . S
O126 Cd127 2.223 . S
O126 C134 1.315 . S
Cd127 O126 2.223 . S
Cd127 O130 2.297 . S
Cd127 O131 2.439 . S
Cd127 O137 2.240 . S
Cd128 O129 2.240 . S
Cd128 O136 2.223 . S
Cd128 O138 2.297 . S
Cd128 O139 2.439 . S
O129 Cd128 2.240 . S
O129 C134 1.279 . S
O130 Cd127 2.297 . S
O130 C132 1.247 . S
O131 Cd127 2.439 . S
O131 C132 1.208 . S
C132 O130 1.247 . S
C132 O131 1.208 . S
C133 O138 1.247 . S
C133 O139 1.208 . S
C134 O126 1.315 . S
C134 O129 1.279 . S
C135 O136 1.315 . S
C135 O137 1.279 . S
O136 Cd128 2.223 . S
O136 C135 1.315 . S
O137 Cd127 2.240 . S
O137 C135 1.279 . S
O138 Cd128 2.297 . S
O138 C133 1.247 . S
O139 Cd128 2.439 . S
O139 C133 1.208 . S
O140 Cd141 2.223 . S
O140 C148 1.315 . S
Cd141 O140 2.223 . S
Cd141 O144 2.297 1_545 S
Cd141 O145 2.439 1_545 S
Cd141 O151 2.240 . S
Cd142 O143 2.240 1_545 S
Cd142 O150 2.223 . S
Cd142 O152 2.297 . S
Cd142 O153 2.439 . S
O143 Cd142 2.240 1_565 S
O143 C148 1.279 1_565 S
O144 Cd141 2.297 1_565 S
O144 C146 1.247 . S
O145 Cd141 2.439 1_565 S
O145 C146 1.208 . S
C146 O144 1.247 . S
C146 O145 1.208 . S
C147 O152 1.247 . S
C147 O153 1.208 . S
C148 O140 1.315 . S
C148 O143 1.279 1_545 S
C149 O150 1.315 . S
C149 O151 1.279 . S
O150 Cd142 2.223 . S
O150 C149 1.315 . S
O151 Cd141 2.240 . S
O151 C149 1.279 . S
O152 Cd142 2.297 . S
O152 C147 1.247 . S
O153 Cd142 2.439 . S
O153 C147 1.208 . S
O154 Cd155 2.223 . S
O154 C162 1.315 . S
Cd155 O154 2.223 . S
Cd155 O158 2.297 . S
Cd155 O159 2.439 1_554 S
Cd155 O165 2.252 . S
Cd156 O157 2.240 1_556 S
Cd156 O164 2.223 1_556 S
Cd156 O166 2.297 . S
Cd156 O167 2.439 . S
O157 Cd156 2.240 1_554 S
O157 C162 1.279 . S
O158 Cd155 2.297 . S
O158 C160 1.247 . S
O159 Cd155 2.439 1_556 S
O159 C160 1.208 1_556 S
C160 O158 1.247 . S
C160 O159 1.208 1_554 S
C161 O166 1.247 . S
C161 O167 1.208 . S
C162 O154 1.315 . S
C162 O157 1.279 . S
C163 O164 1.315 . S
C163 O165 1.286 . S
O164 Cd156 2.223 1_554 S
O164 C163 1.315 . S
O165 Cd155 2.252 . S
O165 C163 1.286 . S
O166 Cd156 2.297 . S
O166 C161 1.247 . S
O167 Cd156 2.439 . S
O167 C161 1.208 . S
O168 Cd169 2.223 . S
O168 C176 1.315 . S
Cd169 O168 2.223 . S
Cd169 O172 2.297 . S
Cd169 O173 2.439 . S
Cd169 O179 2.240 . S
Cd170 O171 2.240 . S
Cd170 O178 2.223 . S
Cd170 O180 2.297 1_554 S
Cd170 O181 2.439 1_554 S
O171 Cd170 2.240 . S
O171 C176 1.279 . S
O172 Cd169 2.297 . S
O172 C174 1.247 . S
O173 Cd169 2.439 . S
O173 C174 1.208 . S
C174 O172 1.247 . S
C174 O173 1.208 . S
C175 O180 1.247 . S
C175 O181 1.208 . S
C176 O168 1.315 . S
C176 O171 1.279 . S
C177 O178 1.315 . S
C177 O179 1.279 . S
O178 Cd170 2.223 . S
O178 C177 1.315 . S
O179 Cd169 2.240 . S
O179 C177 1.279 . S
O180 Cd170 2.297 1_556 S
O180 C175 1.247 . S
O181 Cd170 2.439 1_556 S
O181 C175 1.208 . S
O182 Cd183 2.223 . S
O182 C190 1.315 . S
Cd183 O182 2.223 . S
Cd183 O186 2.297 . S
Cd183 O187 2.439 . S
Cd183 O193 2.240 . S
Cd184 O185 2.240 . S
Cd184 O192 2.223 . S
Cd184 O194 2.297 1_554 S
Cd184 O195 2.439 1_554 S
O185 Cd184 2.240 . S
O185 C190 1.279 . S
O186 Cd183 2.297 . S
O186 C188 1.247 . S
O187 Cd183 2.439 . S
O187 C188 1.208 . S
C188 O186 1.247 . S
C188 O187 1.208 . S
C189 O194 1.247 . S
C189 O195 1.208 . S
C190 O182 1.315 . S
C190 O185 1.279 . S
C191 O192 1.315 . S
C191 O193 1.279 . S
O192 Cd184 2.223 . S
O192 C191 1.315 . S
O193 Cd183 2.240 . S
O193 C191 1.279 . S
O194 Cd184 2.297 1_556 S
O194 C189 1.247 . S
O195 Cd184 2.439 1_556 S
O195 C189 1.208 . S
O196 Cd197 2.223 . S
O196 C204 1.315 . S
Cd197 O196 2.223 . S
Cd197 O200 2.297 . S
Cd197 O201 2.439 . S
Cd197 O207 2.240 . S
Cd198 O199 2.240 . S
Cd198 O206 2.223 . S
Cd198 O208 2.297 . S
Cd198 O209 2.439 . S
O199 Cd198 2.240 . S
O199 C204 1.279 . S
O200 Cd197 2.297 . S
O200 C202 1.247 . S
O201 Cd197 2.439 . S
O201 C202 1.208 . S
C202 O200 1.247 . S
C202 O201 1.208 . S
C203 O208 1.247 . S
C203 O209 1.208 . S
C204 O196 1.315 . S
C204 O199 1.279 . S
C205 O206 1.315 . S
C205 O207 1.279 . S
O206 Cd198 2.223 . S
O206 C205 1.315 . S
O207 Cd197 2.240 . S
O207 C205 1.279 . S
O208 Cd198 2.297 . S
O208 C203 1.247 . S
O209 Cd198 2.439 . S
O209 C203 1.208 . S
O210 Cd211 2.223 . S
O210 C218 1.315 . S
Cd211 O210 2.223 . S
Cd211 O214 2.297 . S
Cd211 O215 2.439 . S
Cd211 O221 2.240 . S
Cd212 O213 2.240 . S
Cd212 O220 2.223 . S
Cd212 O222 2.297 . S
Cd212 O223 2.439 . S
O213 Cd212 2.240 . S
O213 C218 1.279 . S
O214 Cd211 2.297 . S
O214 C216 1.247 . S
O215 Cd211 2.439 . S
O215 C216 1.208 . S
C216 O214 1.247 . S
C216 O215 1.208 . S
C217 O222 1.247 . S
C217 O223 1.208 . S
C218 O210 1.315 . S
C218 O213 1.279 . S
C219 O220 1.315 . S
C219 O221 1.279 . S
O220 Cd212 2.223 . S
O220 C219 1.315 . S
O221 Cd211 2.240 . S
O221 C219 1.279 . S
O222 Cd212 2.297 . S
O222 C217 1.247 . S
O223 Cd212 2.439 . S
O223 C217 1.208 . S
O224 Cd225 2.215 1_565 S
O224 C232 1.315 1_565 S
Cd225 O224 2.215 1_545 S
Cd225 O228 2.297 . S
Cd225 O229 2.439 . S
Cd225 O235 2.240 1_545 S
Cd226 O227 2.223 1_565 S
Cd226 O234 2.247 . S
Cd226 O236 2.309 . S
Cd226 O237 2.427 1_565 S
O227 Cd226 2.223 1_545 S
O227 C232 1.279 . S
O228 Cd225 2.297 . S
O228 C230 1.247 . S
O229 Cd225 2.439 . S
O229 C230 1.208 . S
C230 O228 1.247 . S
C230 O229 1.208 . S
C231 O236 1.247 1_545 S
C231 O237 1.208 . S
C232 O224 1.315 1_545 S
C232 O227 1.279 . S
C233 O234 1.315 . S
C233 O235 1.279 . S
O234 Cd226 2.247 . S
O234 C233 1.315 . S
O235 Cd225 2.240 1_565 S
O235 C233 1.279 . S
O236 Cd226 2.309 . S
O236 C231 1.247 1_565 S
O237 Cd226 2.427 1_545 S
O237 C231 1.208 . S
O238 Cd239 2.223 . S
O238 C246 1.315 . S
Cd239 O238 2.223 . S
Cd239 O242 2.297 . S
Cd239 O243 2.439 . S
Cd239 O249 2.240 . S
Cd240 O241 2.240 . S
Cd240 O248 2.223 . S
Cd240 O250 2.297 . S
Cd240 O251 2.439 . S
O241 Cd240 2.240 . S
O241 C246 1.279 . S
O242 Cd239 2.297 . S
O242 C244 1.247 . S
O243 Cd239 2.439 . S
O243 C244 1.208 . S
C244 O242 1.247 . S
C244 O243 1.208 . S
C245 O250 1.247 . S
C245 O251 1.208 . S
C246 O238 1.315 . S
C246 O241 1.279 . S
C247 O248 1.315 . S
C247 O249 1.279 . S
O248 Cd240 2.223 . S
O248 C247 1.315 . S
O249 Cd239 2.240 . S
O249 C247 1.279 . S
O250 Cd240 2.297 . S
O250 C245 1.247 . S
O251 Cd240 2.439 . S
O251 C245 1.208 . S
O252 Cd253 2.223 . S
O252 C260 1.315 . S
Cd253 O252 2.223 . S
Cd253 O256 2.297 . S
Cd253 O257 2.439 . S
Cd253 O263 2.240 . S
Cd254 O255 2.240 . S
Cd254 O262 2.223 . S
Cd254 O264 2.297 . S
Cd254 O265 2.439 . S
O255 Cd254 2.240 . S
O255 C260 1.279 . S
O256 Cd253 2.297 . S
O256 C258 1.247 . S
O257 Cd253 2.439 . S
O257 C258 1.208 . S
C258 O256 1.247 . S
C258 O257 1.208 . S
C259 O264 1.247 . S
C259 O265 1.208 . S
C260 O252 1.315 . S
C260 O255 1.279 . S
C261 O262 1.315 . S
C261 O263 1.279 . S
O262 Cd254 2.223 . S
O262 C261 1.315 . S
O263 Cd253 2.240 . S
O263 C261 1.279 . S
O264 Cd254 2.297 . S
O264 C259 1.247 . S
O265 Cd254 2.439 . S
O265 C259 1.208 . S
O266 Cd267 2.223 1_545 S
O266 C274 1.315 1_545 S
Cd267 O266 2.223 1_565 S
Cd267 O270 2.297 . S
Cd267 O271 2.439 . S
Cd267 O277 2.240 1_565 S
Cd268 O269 2.240 1_545 S
Cd268 O276 2.223 . S
Cd268 O278 2.297 . S
Cd268 O279 2.439 1_545 S
O269 Cd268 2.240 1_565 S
O269 C274 1.279 . S
O270 Cd267 2.297 . S
O270 C272 1.247 . S
O271 Cd267 2.439 . S
O271 C272 1.208 . S
C272 O270 1.247 . S
C272 O271 1.208 . S
C273 O278 1.247 . S
C273 O279 1.208 1_545 S
C274 O266 1.315 1_565 S
C274 O269 1.279 . S
C275 O276 1.315 . S
C275 O277 1.279 . S
O276 Cd268 2.223 . S
O276 C275 1.315 . S
O277 Cd267 2.240 1_545 S
O277 C275 1.279 . S
O278 Cd268 2.297 . S
O278 C273 1.247 . S
O279 Cd268 2.439 1_565 S
O279 C273 1.208 1_565 S
O280 Cd281 2.223 . S
O280 C288 1.315 . S
Cd281 O280 2.223 . S
Cd281 O284 2.297 . S
Cd281 O285 2.439 1_554 S
Cd281 O291 2.240 1_554 S
Cd282 O283 2.240 1_556 S
Cd282 O290 2.223 1_556 S
Cd282 O292 2.297 . S
Cd282 O293 2.439 . S
O283 Cd282 2.240 1_554 S
O283 C288 1.279 . S
O284 Cd281 2.297 . S
O284 C286 1.247 . S
O285 Cd281 2.439 1_556 S
O285 C286 1.208 1_556 S
C286 O284 1.247 . S
C286 O285 1.208 1_554 S
C287 O292 1.247 . S
C287 O293 1.208 . S
C288 O280 1.315 . S
C288 O283 1.279 . S
C289 O290 1.315 1_556 S
C289 O291 1.279 . S
O290 Cd282 2.223 1_554 S
O290 C289 1.315 1_554 S
O291 Cd281 2.240 1_556 S
O291 C289 1.279 . S
O292 Cd282 2.297 . S
O292 C287 1.247 . S
O293 Cd282 2.439 . S
O293 C287 1.208 . S
O294 Cd295 2.223 . S
O294 C302 1.315 . S
Cd295 O294 2.223 . S
Cd295 O298 2.297 . S
Cd295 O299 2.439 . S
Cd295 O305 2.240 . S
Cd296 O297 2.240 . S
Cd296 O304 2.223 . S
Cd296 O306 2.297 . S
Cd296 O307 2.439 . S
O297 Cd296 2.240 . S
O297 C302 1.279 . S
O298 Cd295 2.297 . S
O298 C300 1.247 . S
O299 Cd295 2.439 . S
O299 C300 1.208 . S
C300 O298 1.247 . S
C300 O299 1.208 . S
C301 O306 1.247 . S
C301 O307 1.208 . S
C302 O294 1.315 . S
C302 O297 1.279 . S
C303 O304 1.315 . S
C303 O305 1.279 . S
O304 Cd296 2.223 . S
O304 C303 1.315 . S
O305 Cd295 2.240 . S
O305 C303 1.279 . S
O306 Cd296 2.297 . S
O306 C301 1.247 . S
O307 Cd296 2.439 . S
O307 C301 1.208 . S
O308 Cd309 2.223 . S
O308 C316 1.315 . S
Cd309 O308 2.223 . S
Cd309 O312 2.297 . S
Cd309 O313 2.439 . S
Cd309 O319 2.240 . S
Cd310 O311 2.240 . S
Cd310 O318 2.223 . S
Cd310 O320 2.297 . S
Cd310 O321 2.439 . S
O311 Cd310 2.240 . S
O311 C316 1.279 . S
O312 Cd309 2.297 . S
O312 C314 1.247 . S
O313 Cd309 2.439 . S
O313 C314 1.208 . S
C314 O312 1.247 . S
C314 O313 1.208 . S
C315 O320 1.247 . S
C315 O321 1.208 . S
C316 O308 1.315 . S
C316 O311 1.279 . S
C317 O318 1.315 . S
C317 O319 1.279 . S
O318 Cd310 2.223 . S
O318 C317 1.315 . S
O319 Cd309 2.240 . S
O319 C317 1.279 . S
O320 Cd310 2.297 . S
O320 C315 1.247 . S
O321 Cd310 2.439 . S
O321 C315 1.208 . S
O322 Cd323 2.223 . S
O322 C330 1.315 . S
Cd323 O322 2.223 . S
Cd323 O326 2.297 . S
Cd323 O327 2.439 . S
Cd323 O333 2.240 . S
Cd324 O325 2.240 . S
Cd324 O332 2.223 . S
Cd324 O334 2.297 . S
Cd324 O335 2.439 . S
O325 Cd324 2.240 . S
O325 C330 1.279 . S
O326 Cd323 2.297 . S
O326 C328 1.247 . S
O327 Cd323 2.439 . S
O327 C328 1.208 . S
C328 O326 1.247 . S
C328 O327 1.208 . S
C329 O334 1.247 . S
C329 O335 1.208 . S
C330 O322 1.315 . S
C330 O325 1.279 . S
C331 O332 1.315 . S
C331 O333 1.279 . S
O332 Cd324 2.223 . S
O332 C331 1.315 . S
O333 Cd323 2.240 . S
O333 C331 1.279 . S
O334 Cd324 2.297 . S
O334 C329 1.247 . S
O335 Cd324 2.439 . S
O335 C329 1.208 . S
Zn336 O342 1.969 1_565 S
Zn336 O343 1.965 1_565 S
Zn336 O347 2.024 . S
Zn336 O352 1.969 1_565 S
Zn337 O344 1.969 1_654 S
Zn337 O350 1.969 1_554 S
Zn337 O351 1.965 . S
Zn337 O353 2.024 1_655 S
C338 O339 1.229 . S
C338 O347 1.058 . S
O339 C338 1.229 . S
C340 O341 1.247 1_554 S
C340 O353 1.058 . S
O341 C340 1.247 1_556 S
O342 Zn336 1.969 1_545 S
O342 C345 1.267 1_545 S
O343 Zn336 1.965 1_545 S
O343 C354 1.260 1_554 S
O344 Zn337 1.969 1_456 S
O344 C354 1.258 . S
C345 O342 1.267 1_565 S
C345 O346 1.228 . S
O346 C345 1.228 . S
O347 Zn336 2.024 . S
O347 C338 1.058 . S
C348 O349 1.228 . S
C348 O350 1.267 1_554 S
O349 C348 1.228 . S
O350 Zn337 1.969 1_556 S
O350 C348 1.267 1_556 S
O351 Zn337 1.965 . S
O351 C355 1.260 1_655 S
O352 Zn336 1.969 1_545 S
O352 C355 1.258 . S
O353 Zn337 2.024 1_455 S
O353 C340 1.058 . S
C354 O343 1.260 1_556 S
C354 O344 1.258 . S
C355 O351 1.260 1_455 S
C355 O352 1.258 . S
Zn356 O362 1.969 . S
Zn356 O363 1.965 . S
Zn356 O367 2.024 . S
Zn356 O372 1.969 . S
Zn357 O364 1.969 . S
Zn357 O370 1.969 . S
Zn357 O371 1.965 . S
Zn357 O373 2.024 . S
C358 O359 1.229 . S
C358 O367 1.058 . S
O359 C358 1.229 . S
C360 O361 1.229 . S
C360 O373 1.058 . S
O361 C360 1.229 . S
O362 Zn356 1.969 . S
O362 C365 1.267 . S
O363 Zn356 1.965 . S
O363 C374 1.260 . S
O364 Zn357 1.969 . S
O364 C374 1.258 . S
C365 O362 1.267 . S
C365 O366 1.228 . S
O366 C365 1.228 . S
O367 Zn356 2.024 . S
O367 C358 1.058 . S
C368 O369 1.228 . S
C368 O370 1.267 . S
O369 C368 1.228 . S
O370 Zn357 1.969 . S
O370 C368 1.267 . S
O371 Zn357 1.965 . S
O371 C375 1.260 . S
O372 Zn356 1.969 . S
O372 C375 1.258 . S
O373 Zn357 2.024 . S
O373 C360 1.058 . S
C374 O363 1.260 . S
C374 O364 1.258 . S
C375 O371 1.260 . S
C375 O372 1.258 . S
Zn376 O382 1.969 . S
Zn376 O383 1.965 . S
Zn376 O387 2.024 . S
Zn376 O392 1.969 . S
Zn377 O384 1.969 . S
Zn377 O390 1.969 . S
Zn377 O391 1.965 1_565 S
Zn377 O393 2.024 . S
C378 O379 1.229 . S
C378 O387 1.058 . S
O379 C378 1.229 . S
C380 O381 1.229 . S
C380 O393 1.058 . S
O381 C380 1.229 . S
O382 Zn376 1.969 . S
O382 C385 1.267 . S
O383 Zn376 1.965 . S
O383 C394 1.260 . S
O384 Zn377 1.969 . S
O384 C394 1.258 1_565 S
C385 O382 1.267 . S
C385 O386 1.228 . S
O386 C385 1.228 . S
O387 Zn376 2.024 . S
O387 C378 1.058 . S
C388 O389 1.228 . S
C388 O390 1.267 . S
O389 C388 1.228 . S
O390 Zn377 1.969 . S
O390 C388 1.267 . S
O391 Zn377 1.965 1_545 S
O391 C395 1.260 . S
O392 Zn376 1.969 . S
O392 C395 1.258 . S
O393 Zn377 2.024 . S
O393 C380 1.058 . S
C394 O383 1.260 . S
C394 O384 1.258 1_545 S
C395 O391 1.260 . S
C395 O392 1.258 . S
Zn396 O402 1.969 . S
Zn396 O403 1.965 . S
Zn396 O407 2.024 . S
Zn396 O412 1.969 . S
Zn397 O404 1.969 . S
Zn397 O410 1.969 . S
Zn397 O411 1.965 . S
Zn397 O413 2.024 . S
C398 O399 1.229 . S
C398 O407 1.058 . S
O399 C398 1.229 . S
C400 O401 1.229 . S
C400 O413 1.058 . S
O401 C400 1.229 . S
O402 Zn396 1.969 . S
O402 C405 1.267 . S
O403 Zn396 1.965 . S
O403 C414 1.260 . S
O404 Zn397 1.969 . S
O404 C414 1.258 . S
C405 O402 1.267 . S
C405 O406 1.228 . S
O406 C405 1.228 . S
O407 Zn396 2.024 . S
O407 C398 1.058 . S
C408 O409 1.228 . S
C408 O410 1.267 . S
O409 C408 1.228 . S
O410 Zn397 1.969 . S
O410 C408 1.267 . S
O411 Zn397 1.965 . S
O411 C415 1.260 . S
O412 Zn396 1.969 . S
O412 C415 1.258 . S
O413 Zn397 2.024 . S
O413 C400 1.058 . S
C414 O403 1.260 . S
C414 O404 1.258 . S
C415 O411 1.260 . S
C415 O412 1.258 . S
Zn416 O422 1.969 . S
Zn416 O423 1.965 . S
Zn416 O427 2.024 1_565 S
Zn416 O432 1.969 1_565 S
Zn417 O424 1.969 1_455 S
Zn417 O430 1.969 . S
Zn417 O431 1.965 . S
Zn417 O433 2.024 . S
C418 O419 1.229 1_545 S
C418 O427 1.058 . S
O419 C418 1.229 1_565 S
C420 O421 1.229 . S
C420 O433 1.058 1_655 S
O421 C420 1.229 . S
O422 Zn416 1.969 . S
O422 C425 1.267 . S
O423 Zn416 1.965 . S
O423 C434 1.260 1_455 S
O424 Zn417 1.969 1_655 S
O424 C434 1.258 1_545 S
C425 O422 1.267 . S
C425 O426 1.228 . S
O426 C425 1.228 . S
O427 Zn416 2.024 1_545 S
O427 C418 1.058 . S
C428 O429 1.228 . S
C428 O430 1.267 . S
O429 C428 1.228 . S
O430 Zn417 1.969 . S
O430 C428 1.267 . S
O431 Zn417 1.965 . S
O431 C435 1.260 . S
O432 Zn416 1.969 1_545 S
O432 C435 1.258 . S
O433 Zn417 2.024 . S
O433 C420 1.058 1_455 S
C434 O423 1.260 1_655 S
C434 O424 1.258 1_565 S
C435 O431 1.260 . S
C435 O432 1.258 . S
Zn436 O442 1.969 . S
Zn436 O443 1.965 . S
Zn436 O447 2.024 . S
Zn436 O452 1.969 . S
Zn437 O444 1.969 . S
Zn437 O450 1.969 . S
Zn437 O451 1.965 . S
Zn437 O453 2.024 . S
C438 O439 1.229 . S
C438 O447 1.058 . S
O439 C438 1.229 . S
C440 O441 1.229 . S
C440 O453 1.058 . S
O441 C440 1.229 . S
O442 Zn436 1.969 . S
O442 C445 1.267 . S
O443 Zn436 1.965 . S
O443 C454 1.260 . S
O444 Zn437 1.969 . S
O444 C454 1.258 . S
C445 O442 1.267 . S
C445 O446 1.228 . S
O446 C445 1.228 . S
O447 Zn436 2.024 . S
O447 C438 1.058 . S
C448 O449 1.228 . S
C448 O450 1.267 . S
O449 C448 1.228 . S
O450 Zn437 1.969 . S
O450 C448 1.267 . S
O451 Zn437 1.965 . S
O451 C455 1.260 . S
O452 Zn436 1.969 . S
O452 C455 1.258 . S
O453 Zn437 2.024 . S
O453 C440 1.058 . S
C454 O443 1.260 . S
C454 O444 1.258 . S
C455 O451 1.260 . S
C455 O452 1.258 . S
Zn456 O462 1.969 1_554 S
Zn456 O463 1.965 1_545 S
Zn456 O467 2.024 . S
Zn456 O472 1.969 . S
Zn457 O464 1.969 . S
Zn457 O470 1.969 . S
Zn457 O471 1.965 1_565 S
Zn457 O473 2.024 . S
C458 O459 1.229 . S
C458 O467 1.058 . S
O459 C458 1.229 . S
C460 O461 1.229 . S
C460 O473 1.058 . S
O461 C460 1.229 . S
O462 Zn456 1.969 1_556 S
O462 C465 1.267 . S
O463 Zn456 1.965 1_565 S
O463 C474 1.260 . S
O464 Zn457 1.969 . S
O464 C474 1.258 . S
C465 O462 1.267 . S
C465 O466 1.228 . S
O466 C465 1.228 . S
O467 Zn456 2.024 . S
O467 C458 1.058 . S
C468 O469 1.228 1_565 S
C468 O470 1.267 . S
O469 C468 1.228 1_545 S
O470 Zn457 1.969 . S
O470 C468 1.267 . S
O471 Zn457 1.965 1_545 S
O471 C475 1.260 . S
O472 Zn456 1.969 . S
O472 C475 1.258 . S
O473 Zn457 2.024 . S
O473 C460 1.058 . S
C474 O463 1.260 . S
C474 O464 1.258 . S
C475 O471 1.260 . S
C475 O472 1.258 . S
Zn476 O482 1.969 . S
Zn476 O483 1.965 . S
Zn476 O487 2.024 . S
Zn476 O492 1.969 . S
Zn477 O484 1.969 . S
Zn477 O490 1.969 . S
Zn477 O491 1.965 . S
Zn477 O493 2.024 . S
C478 O479 1.229 . S
C478 O487 1.058 . S
O479 C478 1.229 . S
C480 O481 1.229 . S
C480 O493 1.058 . S
O481 C480 1.229 . S
O482 Zn476 1.969 . S
O482 C485 1.267 . S
O483 Zn476 1.965 . S
O483 C494 1.260 . S
O484 Zn477 1.969 . S
O484 C494 1.258 . S
C485 O482 1.267 . S
C485 O486 1.228 . S
O486 C485 1.228 . S
O487 Zn476 2.024 . S
O487 C478 1.058 . S
C488 O489 1.228 . S
C488 O490 1.267 . S
O489 C488 1.228 . S
O490 Zn477 1.969 . S
O490 C488 1.267 . S
O491 Zn477 1.965 . S
O491 C495 1.260 . S
O492 Zn476 1.969 . S
O492 C495 1.258 . S
O493 Zn477 2.024 . S
O493 C480 1.058 . S
C494 O483 1.260 . S
C494 O484 1.258 . S
C495 O491 1.260 . S
C495 O492 1.258 . S
Zn496 O502 1.969 . S
Zn496 O503 1.965 . S
Zn496 O507 2.024 . S
Zn496 O512 1.969 . S
Zn497 O504 1.969 1_556 S
Zn497 O510 1.969 1_556 S
Zn497 O511 1.965 1_556 S
Zn497 O513 2.024 . S
C498 O499 1.229 . S
C498 O507 1.058 . S
O499 C498 1.229 . S
C500 O501 1.229 . S
C500 O513 1.058 . S
O501 C500 1.229 . S
O502 Zn496 1.969 . S
O502 C505 1.267 . S
O503 Zn496 1.965 . S
O503 C514 1.260 . S
O504 Zn497 1.969 1_554 S
O504 C514 1.258 . S
C505 O502 1.267 . S
C505 O506 1.228 . S
O506 C505 1.228 . S
O507 Zn496 2.024 . S
O507 C498 1.058 . S
C508 O509 1.228 . S
C508 O510 1.267 1_556 S
O509 C508 1.228 . S
O510 Zn497 1.969 1_554 S
O510 C508 1.267 1_554 S
O511 Zn497 1.965 1_554 S
O511 C515 1.260 . S
O512 Zn496 1.969 . S
O512 C515 1.258 . S
O513 Zn497 2.024 . S
O513 C500 1.058 . S
C514 O503 1.260 . S
C514 O504 1.258 . S
C515 O511 1.260 . S
C515 O512 1.258 . S
Zn516 O522 1.969 . S
Zn516 O523 1.965 . S
Zn516 O527 2.024 . S
Zn516 O532 1.969 . S
Zn517 O524 1.969 . S
Zn517 O530 1.969 . S
Zn517 O531 1.965 . S
Zn517 O533 2.024 . S
C518 O519 1.229 . S
C518 O527 1.058 . S
O519 C518 1.229 . S
C520 O521 1.229 . S
C520 O533 1.058 . S
O521 C520 1.229 . S
O522 Zn516 1.969 . S
O522 C525 1.267 . S
O523 Zn516 1.965 . S
O523 C534 1.260 . S
O524 Zn517 1.969 . S
O524 C534 1.258 . S
C525 O522 1.267 . S
C525 O526 1.228 . S
O526 C525 1.228 . S
O527 Zn516 2.024 . S
O527 C518 1.058 . S
C528 O529 1.228 . S
C528 O530 1.267 . S
O529 C528 1.228 . S
O530 Zn517 1.969 . S
O530 C528 1.267 . S
O531 Zn517 1.965 . S
O531 C535 1.260 . S
O532 Zn516 1.969 . S
O532 C535 1.258 . S
O533 Zn517 2.024 . S
O533 C520 1.058 . S
C534 O523 1.260 . S
C534 O524 1.258 . S
C535 O531 1.260 . S
C535 O532 1.258 . S
Zn536 O542 1.969 . S
Zn536 O543 1.965 . S
Zn536 O547 2.024 . S
Zn536 O552 1.969 . S
Zn537 O544 1.969 . S
Zn537 O550 1.969 . S
Zn537 O551 1.965 1_655 S
Zn537 O553 2.024 . S
C538 O539 1.229 . S
C538 O547 1.058 . S
O539 C538 1.229 . S
C540 O541 1.229 . S
C540 O553 1.058 . S
O541 C540 1.229 . S
O542 Zn536 1.969 . S
O542 C545 1.267 . S
O543 Zn536 1.965 . S
O543 C554 1.260 . S
O544 Zn537 1.969 . S
O544 C554 1.258 1_655 S
C545 O542 1.267 . S
C545 O546 1.228 . S
O546 C545 1.228 . S
O547 Zn536 2.024 . S
O547 C538 1.058 . S
C548 O549 1.228 . S
C548 O550 1.267 . S
O549 C548 1.228 . S
O550 Zn537 1.969 . S
O550 C548 1.267 . S
O551 Zn537 1.965 1_455 S
O551 C555 1.260 . S
O552 Zn536 1.969 . S
O552 C555 1.258 . S
O553 Zn537 2.024 . S
O553 C540 1.058 . S
C554 O543 1.260 . S
C554 O544 1.258 1_455 S
C555 O551 1.260 . S
C555 O552 1.258 . S
Zn556 O562 1.969 . S
Zn556 O563 1.965 . S
Zn556 O567 2.024 . S
Zn556 O572 1.969 . S
Zn557 O564 1.969 . S
Zn557 O570 1.969 . S
Zn557 O571 1.965 . S
Zn557 O573 2.024 . S
C558 O559 1.229 . S
C558 O567 1.058 . S
O559 C558 1.229 . S
C560 O561 1.229 . S
C560 O573 1.058 . S
O561 C560 1.229 . S
O562 Zn556 1.969 . S
O562 C565 1.267 . S
O563 Zn556 1.965 . S
O563 C574 1.260 . S
O564 Zn557 1.969 . S
O564 C574 1.258 . S
C565 O562 1.267 . S
C565 O566 1.228 . S
O566 C565 1.228 . S
O567 Zn556 2.024 . S
O567 C558 1.058 . S
C568 O569 1.228 . S
C568 O570 1.267 . S
O569 C568 1.228 . S
O570 Zn557 1.969 . S
O570 C568 1.267 . S
O571 Zn557 1.965 . S
O571 C575 1.260 . S
O572 Zn556 1.969 . S
O572 C575 1.258 . S
O573 Zn557 2.024 . S
O573 C560 1.058 . S
C574 O563 1.260 . S
C574 O564 1.258 . S
C575 O571 1.260 . S
C575 O572 1.258 . S
Zn576 O582 1.969 . S
Zn576 O583 1.965 . S
Zn576 O587 2.024 . S
Zn576 O592 1.969 . S
Zn577 O584 1.969 . S
Zn577 O590 1.969 . S
Zn577 O591 1.965 . S
Zn577 O593 2.024 . S
C578 O579 1.229 . S
C578 O587 1.058 . S
O579 C578 1.229 . S
C580 O581 1.229 . S
C580 O593 1.058 . S
O581 C580 1.229 . S
O582 Zn576 1.969 . S
O582 C585 1.267 . S
O583 Zn576 1.965 . S
O583 C594 1.260 . S
O584 Zn577 1.969 . S
O584 C594 1.258 . S
C585 O582 1.267 . S
C585 O586 1.228 . S
O586 C585 1.228 . S
O587 Zn576 2.024 . S
O587 C578 1.058 . S
C588 O589 1.228 . S
C588 O590 1.267 . S
O589 C588 1.228 . S
O590 Zn577 1.969 . S
O590 C588 1.267 . S
O591 Zn577 1.965 . S
O591 C595 1.260 . S
O592 Zn576 1.969 . S
O592 C595 1.258 . S
O593 Zn577 2.024 . S
O593 C580 1.058 . S
C594 O583 1.260 . S
C594 O584 1.258 . S
C595 O591 1.260 . S
C595 O592 1.258 . S
Zn596 O602 1.969 . S
Zn596 O603 1.965 . S
Zn596 O607 2.024 . S
Zn596 O612 1.969 . S
Zn597 O604 1.969 . S
Zn597 O610 1.969 . S
Zn597 O611 1.965 . S
Zn597 O613 2.024 . S
C598 O599 1.229 . S
C598 O607 1.058 . S
O599 C598 1.229 . S
C600 O601 1.229 . S
C600 O613 1.058 . S
O601 C600 1.229 . S
O602 Zn596 1.969 . S
O602 C605 1.267 . S
O603 Zn596 1.965 . S
O603 C614 1.260 . S
O604 Zn597 1.969 . S
O604 C614 1.258 . S
C605 O602 1.267 . S
C605 O606 1.228 . S
O606 C605 1.228 . S
O607 Zn596 2.024 . S
O607 C598 1.058 . S
C608 O609 1.228 . S
C608 O610 1.267 . S
O609 C608 1.228 . S
O610 Zn597 1.969 . S
O610 C608 1.267 . S
O611 Zn597 1.965 . S
O611 C615 1.260 . S
O612 Zn596 1.969 . S
O612 C615 1.258 . S
O613 Zn597 2.024 . S
O613 C600 1.058 . S
C614 O603 1.260 . S
C614 O604 1.258 . S
C615 O611 1.260 . S
C615 O612 1.258 . S
Zn616 O622 1.969 . S
Zn616 O623 1.965 . S
Zn616 O627 2.024 . S
Zn616 O632 1.969 . S
Zn617 O624 1.969 . S
Zn617 O630 1.969 . S
Zn617 O631 1.965 . S
Zn617 O633 2.024 . S
C618 O619 1.229 . S
C618 O627 1.058 . S
O619 C618 1.229 . S
C620 O621 1.229 . S
C620 O633 1.058 . S
O621 C620 1.229 . S
O622 Zn616 1.969 . S
O622 C625 1.267 . S
O623 Zn616 1.965 . S
O623 C634 1.260 . S
O624 Zn617 1.969 . S
O624 C634 1.258 . S
C625 O622 1.267 . S
C625 O626 1.228 . S
O626 C625 1.228 . S
O627 Zn616 2.024 . S
O627 C618 1.058 . S
C628 O629 1.228 . S
C628 O630 1.267 . S
O629 C628 1.228 . S
O630 Zn617 1.969 . S
O630 C628 1.267 . S
O631 Zn617 1.965 . S
O631 C635 1.260 . S
O632 Zn616 1.969 . S
O632 C635 1.258 . S
O633 Zn617 2.024 . S
O633 C620 1.058 . S
C634 O623 1.260 . S
C634 O624 1.258 . S
C635 O631 1.260 . S
C635 O632 1.258 . S
Zn636 O642 1.969 . S
Zn636 O643 1.965 . S
Zn636 O647 2.024 1_655 S
Zn636 O652 1.969 1_655 S
Zn637 O644 1.974 . S
Zn637 O650 1.969 . S
Zn637 O651 1.965 . S
Zn637 O653 2.024 . S
C638 O639 1.229 . S
C638 O647 1.058 . S
O639 C638 1.229 . S
C640 O641 1.229 1_554 S
C640 O653 1.058 . S
O641 C640 1.229 1_556 S
O642 Zn636 1.969 . S
O642 C645 1.267 . S
O643 Zn636 1.965 . S
O643 C654 1.260 1_655 S
O644 Zn637 1.974 . S
O644 C654 1.258 . S
C645 O642 1.267 . S
C645 O646 1.228 . S
O646 C645 1.228 . S
O647 Zn636 2.024 1_455 S
O647 C638 1.058 . S
C648 O649 1.228 . S
C648 O650 1.267 . S
O649 C648 1.228 . S
O650 Zn637 1.969 . S
O650 C648 1.267 . S
O651 Zn637 1.965 . S
O651 C655 1.260 . S
O652 Zn636 1.969 1_455 S
O652 C655 1.258 . S
O653 Zn637 2.024 . S
O653 C640 1.058 . S
C654 O643 1.260 1_455 S
C654 O644 1.258 . S
C655 O651 1.260 . S
C655 O652 1.258 . S
H656 C662 0.930 . S
H657 C666 0.930 . S
H658 C671 0.929 . S
H659 C669 0.929 . S
H660 C664 0.929 . S
H661 C670 0.929 . S
C662 H656 0.930 . S
C662 C663 1.367 1_455 S
C662 C670 1.378 . S
C663 C662 1.367 1_655 S
C663 C671 1.433 . S
C664 H660 0.929 . S
C664 C666 1.378 1_556 S
C664 C668 1.350 . S
C665 C668 1.463 . S
C665 C670 1.350 . S
C665 N673 1.427 1_455 S
C666 H657 0.930 . S
C666 C664 1.378 1_554 S
C666 C667 1.356 1_554 S
C667 C666 1.356 1_556 S
C667 C669 1.471 . S
C668 C664 1.350 . S
C668 C665 1.463 . S
C668 N672 1.427 . S
C669 H659 0.929 . S
C669 C667 1.471 . S
C669 N672 1.384 . S
C670 H661 0.929 . S
C670 C662 1.378 . S
C670 C665 1.350 . S
C671 H658 0.929 . S
C671 C663 1.433 . S
C671 N673 1.384 . S
N672 C668 1.427 . S
N672 C669 1.384 . S
N673 C665 1.427 1_655 S
N673 C671 1.384 . S
H674 C680 0.930 . S
H675 C684 0.930 . S
H676 C689 0.929 . S
H677 C687 0.929 . S
H678 C682 0.929 . S
H679 C688 0.929 . S
C680 H674 0.930 . S
C680 C681 1.367 . S
C680 C688 1.378 . S
C681 C680 1.367 . S
C681 C689 1.433 . S
C682 H678 0.929 . S
C682 C684 1.378 . S
C682 C686 1.350 . S
C683 C686 1.463 . S
C683 C688 1.350 . S
C683 N691 1.427 . S
C684 H675 0.930 . S
C684 C682 1.378 . S
C684 C685 1.367 . S
C685 C684 1.367 . S
C685 C687 1.433 . S
C686 C682 1.350 . S
C686 C683 1.463 . S
C686 N690 1.427 . S
C687 H677 0.929 . S
C687 C685 1.433 . S
C687 N690 1.384 . S
C688 H679 0.929 . S
C688 C680 1.378 . S
C688 C683 1.350 . S
C689 H676 0.929 . S
C689 C681 1.433 . S
C689 N691 1.384 . S
N690 C686 1.427 . S
N690 C687 1.384 . S
N691 C683 1.427 . S
N691 C689 1.384 . S
H692 C698 0.930 . S
H693 C702 0.930 . S
H694 C707 0.929 . S
H695 C705 0.929 . S
H696 C700 0.929 . S
H697 C706 0.929 . S
C698 H692 0.930 . S
C698 C699 1.367 . S
C698 C706 1.378 . S
C699 C698 1.367 . S
C699 C707 1.433 . S
C700 H696 0.929 . S
C700 C702 1.378 . S
C700 C704 1.350 . S
C701 C704 1.463 . S
C701 C706 1.350 . S
C701 N709 1.427 . S
C702 H693 0.930 . S
C702 C700 1.378 . S
C702 C703 1.367 . S
C703 C702 1.367 . S
C703 C705 1.433 . S
C704 C700 1.350 . S
C704 C701 1.463 . S
C704 N708 1.427 . S
C705 H695 0.929 . S
C705 C703 1.433 . S
C705 N708 1.384 . S
C706 H697 0.929 . S
C706 C698 1.378 . S
C706 C701 1.350 . S
C707 H694 0.929 . S
C707 C699 1.433 . S
C707 N709 1.384 . S
N708 C704 1.427 . S
N708 C705 1.384 . S
N709 C701 1.427 . S
N709 C707 1.384 . S
H710 C716 0.930 . S
H711 C720 0.930 . S
H712 C725 0.929 . S
H713 C723 0.929 . S
H714 C718 0.929 . S
H715 C724 0.929 . S
C716 H710 0.930 . S
C716 C717 1.367 . S
C716 C724 1.378 . S
C717 C716 1.367 . S
C717 C725 1.433 . S
C718 H714 0.929 . S
C718 C720 1.378 . S
C718 C722 1.350 . S
C719 C722 1.463 . S
C719 C724 1.350 . S
C719 N727 1.427 . S
C720 H711 0.930 . S
C720 C718 1.378 . S
C720 C721 1.367 . S
C721 C720 1.367 . S
C721 C723 1.433 . S
C722 C718 1.350 . S
C722 C719 1.463 . S
C722 N726 1.427 . S
C723 H713 0.929 . S
C723 C721 1.433 . S
C723 N726 1.384 . S
C724 H715 0.929 . S
C724 C716 1.378 . S
C724 C719 1.350 . S
C725 H712 0.929 . S
C725 C717 1.433 . S
C725 N727 1.384 . S
N726 C722 1.427 . S
N726 C723 1.384 . S
N727 C719 1.427 . S
N727 C725 1.384 . S
H728 C734 0.930 1_655 S
H729 C738 0.930 . S
H730 C743 0.929 . S
H731 C741 0.929 . S
H732 C736 0.929 . S
H733 C742 0.929 . S
C734 H728 0.930 1_455 S
C734 C735 1.367 . S
C734 C742 1.378 . S
C735 C734 1.367 . S
C735 C743 1.433 . S
C736 H732 0.929 . S
C736 C738 1.378 . S
C736 C740 1.350 . S
C737 C740 1.463 . S
C737 C742 1.350 . S
C737 N745 1.427 . S
C738 H729 0.930 . S
C738 C736 1.378 . S
C738 C739 1.367 . S
C739 C738 1.367 . S
C739 C741 1.433 . S
C740 C736 1.350 . S
C740 C737 1.463 . S
C740 N744 1.427 . S
C741 H731 0.929 . S
C741 C739 1.433 . S
C741 N744 1.384 . S
C742 H733 0.929 . S
C742 C734 1.378 . S
C742 C737 1.350 . S
C743 H730 0.929 . S
C743 C735 1.433 . S
C743 N745 1.384 . S
N744 C740 1.427 . S
N744 C741 1.384 . S
N745 C737 1.427 . S
N745 C743 1.384 . S
H746 C752 0.930 . S
H747 C756 0.930 . S
H748 C761 0.929 . S
H749 C759 0.929 . S
H750 C754 0.929 . S
H751 C760 0.929 . S
C752 H746 0.930 . S
C752 C753 1.367 . S
C752 C760 1.378 . S
C753 C752 1.367 . S
C753 C761 1.433 . S
C754 H750 0.929 . S
C754 C756 1.378 . S
C754 C758 1.350 . S
C755 C758 1.463 . S
C755 C760 1.350 . S
C755 N763 1.427 . S
C756 H747 0.930 . S
C756 C754 1.378 . S
C756 C757 1.367 . S
C757 C756 1.367 . S
C757 C759 1.433 . S
C758 C754 1.350 . S
C758 C755 1.463 . S
C758 N762 1.427 . S
C759 H749 0.929 . S
C759 C757 1.433 . S
C759 N762 1.384 . S
C760 H751 0.929 . S
C760 C752 1.378 . S
C760 C755 1.350 . S
C761 H748 0.929 . S
C761 C753 1.433 . S
C761 N763 1.384 . S
N762 C758 1.427 . S
N762 C759 1.384 . S
N763 C755 1.427 . S
N763 C761 1.384 . S
H764 C770 0.930 . S
H765 C774 0.930 . S
H766 C779 0.929 . S
H767 C777 0.929 . S
H768 C772 0.929 . S
H769 C778 0.929 . S
C770 H764 0.930 . S
C770 C771 1.367 . S
C770 C778 1.378 . S
C771 C770 1.367 . S
C771 C779 1.433 . S
C772 H768 0.929 . S
C772 C774 1.378 . S
C772 C776 1.350 . S
C773 C776 1.463 . S
C773 C778 1.350 . S
C773 N781 1.427 . S
C774 H765 0.930 . S
C774 C772 1.378 . S
C774 C775 1.367 . S
C775 C774 1.367 . S
C775 C777 1.433 . S
C776 C772 1.350 . S
C776 C773 1.463 . S
C776 N780 1.427 . S
C777 H767 0.929 . S
C777 C775 1.433 . S
C777 N780 1.384 . S
C778 H769 0.929 . S
C778 C770 1.378 . S
C778 C773 1.350 . S
C779 H766 0.929 . S
C779 C771 1.433 . S
C779 N781 1.384 . S
N780 C776 1.427 . S
N780 C777 1.384 . S
N781 C773 1.427 . S
N781 C779 1.384 . S
H782 C788 0.930 . S
H783 C792 0.930 . S
H784 C797 0.929 . S
H785 C795 0.929 . S
H786 C790 0.929 . S
H787 C796 0.929 . S
C788 H782 0.930 . S
C788 C789 1.367 . S
C788 C796 1.378 . S
C789 C788 1.367 . S
C789 C797 1.433 . S
C790 H786 0.929 . S
C790 C792 1.378 . S
C790 C794 1.350 . S
C791 C794 1.463 . S
C791 C796 1.350 . S
C791 N799 1.427 . S
C792 H783 0.930 . S
C792 C790 1.378 . S
C792 C793 1.367 . S
C793 C792 1.367 . S
C793 C795 1.433 . S
C794 C790 1.350 . S
C794 C791 1.463 . S
C794 N798 1.427 . S
C795 H785 0.929 . S
C795 C793 1.433 . S
C795 N798 1.384 . S
C796 H787 0.929 . S
C796 C788 1.378 . S
C796 C791 1.350 . S
C797 H784 0.929 . S
C797 C789 1.433 . S
C797 N799 1.384 . S
N798 C794 1.427 . S
N798 C795 1.384 . S
N799 C791 1.427 . S
N799 C797 1.384 . S
H800 C806 0.930 . S
H801 C810 0.930 1_455 S
H802 C815 0.929 . S
H803 C813 0.929 1_565 S
H804 C808 0.929 . S
H805 C814 0.929 . S
C806 H800 0.930 . S
C806 C807 1.367 1_565 S
C806 C814 1.378 . S
C807 C806 1.367 1_545 S
C807 C815 1.433 . S
C808 H804 0.929 . S
C808 C810 1.378 . S
C808 C812 1.350 . S
C809 C812 1.463 . S
C809 C814 1.350 1_545 S
C809 N817 1.427 . S
C810 H801 0.930 1_655 S
C810 C808 1.378 . S
C810 C811 1.367 . S
C811 C810 1.367 . S
C811 C813 1.433 . S
C812 C808 1.350 . S
C812 C809 1.463 . S
C812 N816 1.427 . S
C813 H803 0.929 1_545 S
C813 C811 1.433 . S
C813 N816 1.384 . S
C814 H805 0.929 . S
C814 C806 1.378 . S
C814 C809 1.350 1_565 S
C815 H802 0.929 . S
C815 C807 1.433 . S
C815 N817 1.384 . S
N816 C812 1.427 . S
N816 C813 1.384 . S
N817 C809 1.427 . S
N817 C815 1.384 . S
H818 C824 0.930 . S
H819 C828 0.930 . S
H820 C833 0.929 . S
H821 C831 0.929 . S
H822 C826 0.929 . S
H823 C832 0.929 . S
C824 H818 0.930 . S
C824 C825 1.367 . S
C824 C832 1.378 . S
C825 C824 1.367 . S
C825 C833 1.433 . S
C826 H822 0.929 . S
C826 C828 1.378 . S
C826 C830 1.350 . S
C827 C830 1.463 . S
C827 C832 1.350 . S
C827 N835 1.427 . S
C828 H819 0.930 . S
C828 C826 1.378 . S
C828 C829 1.367 . S
C829 C828 1.367 . S
C829 C831 1.433 . S
C830 C826 1.350 . S
C830 C827 1.463 . S
C830 N834 1.427 . S
C831 H821 0.929 . S
C831 C829 1.433 . S
C831 N834 1.384 . S
C832 H823 0.929 . S
C832 C824 1.378 . S
C832 C827 1.350 . S
C833 H820 0.929 . S
C833 C825 1.433 . S
C833 N835 1.384 . S
N834 C830 1.427 . S
N834 C831 1.384 . S
N835 C827 1.427 . S
N835 C833 1.384 . S
H836 C842 0.930 . S
H837 C846 0.930 . S
H838 C851 0.929 . S
H839 C849 0.929 . S
H840 C844 0.929 . S
H841 C850 0.929 . S
C842 H836 0.930 . S
C842 C843 1.396 . S
C842 C850 1.378 . S
C843 C842 1.396 . S
C843 C851 1.395 1_565 S
C844 H840 0.929 . S
C844 C846 1.378 . S
C844 C848 1.350 . S
C845 C848 1.462 1_565 S
C845 C850 1.351 . S
C845 N853 1.426 1_565 S
C846 H837 0.930 . S
C846 C844 1.378 . S
C846 C847 1.367 . S
C847 C846 1.367 . S
C847 C849 1.433 1_545 S
C848 C844 1.350 . S
C848 C845 1.462 1_545 S
C848 N852 1.427 1_545 S
C849 H839 0.929 . S
C849 C847 1.433 1_565 S
C849 N852 1.384 . S
C850 H841 0.929 . S
C850 C842 1.378 . S
C850 C845 1.351 . S
C851 H838 0.929 . S
C851 C843 1.395 1_545 S
C851 N853 1.384 . S
N852 C848 1.427 1_565 S
N852 C849 1.384 . S
N853 C845 1.426 1_545 S
N853 C851 1.384 . S
H854 C860 0.930 . S
H855 C864 0.930 . S
H856 C869 0.929 . S
H857 C867 0.929 . S
H858 C862 0.929 . S
H859 C868 0.929 . S
C860 H854 0.930 . S
C860 C861 1.367 . S
C860 C868 1.378 . S
C861 C860 1.367 . S
C861 C869 1.433 . S
C862 H858 0.929 . S
C862 C864 1.378 . S
C862 C866 1.350 . S
C863 C866 1.463 . S
C863 C868 1.350 . S
C863 N871 1.427 . S
C864 H855 0.930 . S
C864 C862 1.378 . S
C864 C865 1.367 . S
C865 C864 1.367 . S
C865 C867 1.433 . S
C866 C862 1.350 . S
C866 C863 1.463 . S
C866 N870 1.427 . S
C867 H857 0.929 . S
C867 C865 1.433 . S
C867 N870 1.384 . S
C868 H859 0.929 . S
C868 C860 1.378 . S
C868 C863 1.350 . S
C869 H856 0.929 . S
C869 C861 1.433 . S
C869 N871 1.384 . S
N870 C866 1.427 . S
N870 C867 1.384 . S
N871 C863 1.427 . S
N871 C869 1.384 . S
H872 C878 0.930 . S
H873 C882 0.930 1_455 S
H874 C887 0.929 . S
H875 C885 0.929 . S
H876 C880 0.929 . S
H877 C886 0.929 . S
C878 H872 0.930 . S
C878 C879 1.367 . S
C878 C886 1.378 . S
C879 C878 1.367 . S
C879 C887 1.433 1_545 S
C880 H876 0.929 . S
C880 C882 1.378 . S
C880 C884 1.350 1_565 S
C881 C884 1.463 . S
C881 C886 1.350 . S
C881 N889 1.427 1_545 S
C882 H873 0.930 1_655 S
C882 C880 1.378 . S
C882 C883 1.367 1_565 S
C883 C882 1.367 1_545 S
C883 C885 1.433 . S
C884 C880 1.350 1_545 S
C884 C881 1.463 . S
C884 N888 1.427 . S
C885 H875 0.929 . S
C885 C883 1.433 . S
C885 N888 1.384 . S
C886 H877 0.929 . S
C886 C878 1.378 . S
C886 C881 1.350 . S
C887 H874 0.929 . S
C887 C879 1.433 1_565 S
C887 N889 1.384 . S
N888 C884 1.427 . S
N888 C885 1.384 . S
N889 C881 1.427 1_565 S
N889 C887 1.384 . S
H890 C896 0.930 . S
H891 C900 0.930 . S
H892 C905 0.929 . S
H893 C903 0.929 . S
H894 C898 0.929 . S
H895 C904 0.929 . S
C896 H890 0.930 . S
C896 C897 1.367 . S
C896 C904 1.378 . S
C897 C896 1.367 . S
C897 C905 1.433 . S
C898 H894 0.929 . S
C898 C900 1.378 . S
C898 C902 1.350 . S
C899 C902 1.463 . S
C899 C904 1.350 . S
C899 N907 1.427 . S
C900 H891 0.930 . S
C900 C898 1.378 . S
C900 C901 1.367 . S
C901 C900 1.367 . S
C901 C903 1.433 . S
C902 C898 1.350 . S
C902 C899 1.463 . S
C902 N906 1.427 . S
C903 H893 0.929 . S
C903 C901 1.433 . S
C903 N906 1.384 . S
C904 H895 0.929 . S
C904 C896 1.378 . S
C904 C899 1.350 . S
C905 H892 0.929 . S
C905 C897 1.433 . S
C905 N907 1.384 . S
N906 C902 1.427 . S
N906 C903 1.384 . S
N907 C899 1.427 . S
N907 C905 1.384 . S
H908 C914 0.930 1_565 S
H909 C918 0.930 . S
H910 C923 0.929 . S
H911 C921 0.929 . S
H912 C916 0.929 . S
H913 C922 0.920 1_565 S
C914 H908 0.930 1_545 S
C914 C915 1.367 . S
C914 C922 1.378 . S
C915 C914 1.367 . S
C915 C923 1.433 . S
C916 H912 0.929 . S
C916 C918 1.378 . S
C916 C920 1.350 . S
C917 C920 1.463 . S
C917 C922 1.350 . S
C917 N925 1.427 . S
C918 H909 0.930 . S
C918 C916 1.378 . S
C918 C919 1.367 . S
C919 C918 1.367 . S
C919 C921 1.433 . S
C920 C916 1.350 . S
C920 C917 1.463 . S
C920 N924 1.427 . S
C921 H911 0.929 . S
C921 C919 1.433 . S
C921 N924 1.384 . S
C922 H913 0.920 1_545 S
C922 C914 1.378 . S
C922 C917 1.350 . S
C923 H910 0.929 . S
C923 C915 1.433 . S
C923 N925 1.384 . S
N924 C920 1.427 . S
N924 C921 1.384 . S
N925 C917 1.427 . S
N925 C923 1.384 . S
H926 C932 0.930 . S
H927 C936 0.930 . S
H928 C941 0.929 . S
H929 C939 0.929 . S
H930 C934 0.929 . S
H931 C940 0.929 . S
C932 H926 0.930 . S
C932 C933 1.367 . S
C932 C940 1.378 . S
C933 C932 1.367 . S
C933 C941 1.433 . S
C934 H930 0.929 . S
C934 C936 1.378 . S
C934 C938 1.350 . S
C935 C938 1.463 . S
C935 C940 1.350 . S
C935 N943 1.427 . S
C936 H927 0.930 . S
C936 C934 1.378 . S
C936 C937 1.367 . S
C937 C936 1.367 . S
C937 C939 1.433 . S
C938 C934 1.350 . S
C938 C935 1.463 . S
C938 N942 1.427 . S
C939 H929 0.929 . S
C939 C937 1.433 . S
C939 N942 1.384 . S
C940 H931 0.929 . S
C940 C932 1.378 . S
C940 C935 1.350 . S
C941 H928 0.929 . S
C941 C933 1.433 . S
C941 N943 1.384 . S
N942 C938 1.427 . S
N942 C939 1.384 . S
N943 C935 1.427 . S
N943 C941 1.384 . S
H944 C950 0.930 . S
H945 C954 0.930 . S
H946 C959 0.929 . S
H947 C957 0.929 . S
H948 C952 0.929 . S
H949 C958 0.929 1_556 S
C950 H944 0.930 . S
C950 C951 1.367 1_556 S
C950 C958 1.378 1_556 S
C951 C950 1.367 1_554 S
C951 C959 1.433 . S
C952 H948 0.929 . S
C952 C954 1.378 . S
C952 C956 1.350 . S
C953 C956 1.463 . S
C953 C958 1.350 . S
C953 N961 1.427 . S
C954 H945 0.930 . S
C954 C952 1.378 . S
C954 C955 1.367 . S
C955 C954 1.367 . S
C955 C957 1.433 . S
C956 C952 1.350 . S
C956 C953 1.463 . S
C956 N960 1.427 . S
C957 H947 0.929 . S
C957 C955 1.433 . S
C957 N960 1.384 . S
C958 H949 0.929 1_554 S
C958 C950 1.378 1_554 S
C958 C953 1.350 . S
C959 H946 0.929 . S
C959 C951 1.433 . S
C959 N961 1.384 . S
N960 C956 1.427 . S
N960 C957 1.384 . S
N961 C953 1.427 . S
N961 C959 1.384 . S
H962 C968 0.930 . S
H963 C972 0.930 . S
H964 C977 0.929 . S
H965 C975 0.929 . S
H966 C970 0.929 . S
H967 C976 0.931 . S
C968 H962 0.930 . S
C968 C969 1.367 1_556 S
C968 C976 1.383 . S
C969 C968 1.367 1_554 S
C969 C977 1.433 . S
C970 H966 0.929 . S
C970 C972 1.378 . S
C970 C974 1.350 . S
C971 C974 1.463 . S
C971 C976 1.343 1_554 S
C971 N979 1.427 . S
C972 H963 0.930 . S
C972 C970 1.378 . S
C972 C973 1.367 . S
C973 C972 1.367 . S
C973 C975 1.433 . S
C974 C970 1.350 . S
C974 C971 1.463 . S
C974 N978 1.427 . S
C975 H965 0.929 . S
C975 C973 1.433 . S
C975 N978 1.384 . S
C976 H967 0.931 . S
C976 C968 1.383 . S
C976 C971 1.343 1_556 S
C977 H964 0.929 . S
C977 C969 1.433 . S
C977 N979 1.384 . S
N978 C974 1.427 . S
N978 C975 1.384 . S
N979 C971 1.427 . S
N979 C977 1.384 . S
H980 C986 0.930 . S
H981 C990 0.930 . S
H982 C995 0.929 . S
H983 C993 0.929 . S
H984 C988 0.929 . S
H985 C994 0.929 . S
C986 H980 0.930 . S
C986 C987 1.367 . S
C986 C994 1.378 . S
C987 C986 1.367 . S
C987 C995 1.433 . S
C988 H984 0.929 . S
C988 C990 1.378 . S
C988 C992 1.350 . S
C989 C992 1.463 . S
C989 C994 1.350 . S
C989 N997 1.427 . S
C990 H981 0.930 . S
C990 C988 1.378 . S
C990 C991 1.367 . S
C991 C990 1.367 . S
C991 C993 1.433 . S
C992 C988 1.350 . S
C992 C989 1.463 . S
C992 N996 1.427 . S
C993 H983 0.929 . S
C993 C991 1.433 . S
C993 N996 1.384 . S
C994 H985 0.929 . S
C994 C986 1.378 . S
C994 C989 1.350 . S
C995 H982 0.929 . S
C995 C987 1.433 . S
C995 N997 1.384 . S
N996 C992 1.427 . S
N996 C993 1.384 . S
N997 C989 1.427 . S
N997 C995 1.384 . S
H998 C1004 0.930 . S
H999 C1008 0.930 . S
H1000 C1013 0.929 . S
H1001 C1011 0.929 . S
H1002 C1006 0.929 . S
H1003 C1012 0.929 . S
C1004 H998 0.930 . S
C1004 C1005 1.367 . S
C1004 C1012 1.378 . S
C1005 C1004 1.367 . S
C1005 C1013 1.433 . S
C1006 H1002 0.929 . S
C1006 C1008 1.378 . S
C1006 C1010 1.350 . S
C1007 C1010 1.463 . S
C1007 C1012 1.350 . S
C1007 N1015 1.427 . S
C1008 H999 0.930 . S
C1008 C1006 1.378 . S
C1008 C1009 1.367 . S
C1009 C1008 1.367 . S
C1009 C1011 1.433 . S
C1010 C1006 1.350 . S
C1010 C1007 1.463 . S
C1010 N1014 1.427 . S
C1011 H1001 0.929 . S
C1011 C1009 1.433 . S
C1011 N1014 1.384 . S
C1012 H1003 0.929 . S
C1012 C1004 1.378 . S
C1012 C1007 1.350 . S
C1013 H1000 0.929 . S
C1013 C1005 1.433 . S
C1013 N1015 1.384 . S
N1014 C1010 1.427 . S
N1014 C1011 1.384 . S
N1015 C1007 1.427 . S
N1015 C1013 1.384 . S
H1016 C1022 0.930 . S
H1017 C1026 0.930 . S
H1018 C1031 0.929 . S
H1019 C1029 0.929 . S
H1020 C1024 0.929 . S
H1021 C1030 0.929 . S
C1022 H1016 0.930 . S
C1022 C1023 1.367 . S
C1022 C1030 1.378 . S
C1023 C1022 1.367 . S
C1023 C1031 1.433 . S
C1024 H1020 0.929 . S
C1024 C1026 1.378 . S
C1024 C1028 1.350 . S
C1025 C1028 1.463 . S
C1025 C1030 1.350 . S
C1025 N1033 1.427 . S
C1026 H1017 0.930 . S
C1026 C1024 1.378 . S
C1026 C1027 1.367 . S
C1027 C1026 1.367 . S
C1027 C1029 1.433 . S
C1028 C1024 1.350 . S
C1028 C1025 1.463 . S
C1028 N1032 1.427 . S
C1029 H1019 0.929 . S
C1029 C1027 1.433 . S
C1029 N1032 1.384 . S
C1030 H1021 0.929 . S
C1030 C1022 1.378 . S
C1030 C1025 1.350 . S
C1031 H1018 0.929 . S
C1031 C1023 1.433 . S
C1031 N1033 1.384 . S
N1032 C1028 1.427 . S
N1032 C1029 1.384 . S
N1033 C1025 1.427 . S
N1033 C1031 1.384 . S
H1034 C1040 0.930 . S
H1035 C1044 0.930 . S
H1036 C1049 0.929 . S
H1037 C1047 0.929 . S
H1038 C1042 0.929 . S
H1039 C1048 0.929 . S
C1040 H1034 0.930 . S
C1040 C1041 1.367 . S
C1040 C1048 1.378 . S
C1041 C1040 1.367 . S
C1041 C1049 1.433 . S
C1042 H1038 0.929 . S
C1042 C1044 1.378 . S
C1042 C1046 1.350 . S
C1043 C1046 1.463 . S
C1043 C1048 1.350 . S
C1043 N1051 1.427 . S
C1044 H1035 0.930 . S
C1044 C1042 1.378 . S
C1044 C1045 1.367 . S
C1045 C1044 1.367 . S
C1045 C1047 1.433 . S
C1046 C1042 1.350 . S
C1046 C1043 1.463 . S
C1046 N1050 1.427 . S
C1047 H1037 0.929 . S
C1047 C1045 1.433 . S
C1047 N1050 1.384 . S
C1048 H1039 0.929 . S
C1048 C1040 1.378 . S
C1048 C1043 1.350 . S
C1049 H1036 0.929 . S
C1049 C1041 1.433 . S
C1049 N1051 1.384 . S
N1050 C1046 1.427 . S
N1050 C1047 1.384 . S
N1051 C1043 1.427 . S
N1051 C1049 1.384 . S
H1052 C1058 0.930 . S
H1053 C1062 0.930 . S
H1054 C1067 0.929 . S
H1055 C1065 0.929 . S
H1056 C1060 0.929 . S
H1057 C1066 0.929 . S
C1058 H1052 0.930 . S
C1058 C1059 1.367 . S
C1058 C1066 1.378 . S
C1059 C1058 1.367 . S
C1059 C1067 1.433 . S
C1060 H1056 0.929 . S
C1060 C1062 1.378 . S
C1060 C1064 1.350 . S
C1061 C1064 1.463 . S
C1061 C1066 1.350 . S
C1061 N1069 1.427 . S
C1062 H1053 0.930 . S
C1062 C1060 1.378 . S
C1062 C1063 1.367 . S
C1063 C1062 1.367 . S
C1063 C1065 1.433 . S
C1064 C1060 1.350 . S
C1064 C1061 1.463 . S
C1064 N1068 1.427 . S
C1065 H1055 0.929 . S
C1065 C1063 1.433 . S
C1065 N1068 1.384 . S
C1066 H1057 0.929 . S
C1066 C1058 1.378 . S
C1066 C1061 1.350 . S
C1067 H1054 0.929 . S
C1067 C1059 1.433 . S
C1067 N1069 1.384 . S
N1068 C1064 1.427 . S
N1068 C1065 1.384 . S
N1069 C1061 1.427 . S
N1069 C1067 1.384 . S
H1070 C1076 0.930 . S
H1071 C1080 0.930 . S
H1072 C1085 0.929 . S
H1073 C1083 0.929 . S
H1074 C1078 0.929 . S
H1075 C1084 0.929 . S
C1076 H1070 0.930 . S
C1076 C1077 1.367 . S
C1076 C1084 1.378 . S
C1077 C1076 1.367 . S
C1077 C1085 1.433 . S
C1078 H1074 0.929 . S
C1078 C1080 1.378 . S
C1078 C1082 1.350 . S
C1079 C1082 1.463 . S
C1079 C1084 1.350 . S
C1079 N1087 1.427 . S
C1080 H1071 0.930 . S
C1080 C1078 1.378 . S
C1080 C1081 1.367 . S
C1081 C1080 1.367 . S
C1081 C1083 1.433 . S
C1082 C1078 1.350 . S
C1082 C1079 1.463 . S
C1082 N1086 1.427 . S
C1083 H1073 0.929 . S
C1083 C1081 1.433 . S
C1083 N1086 1.384 . S
C1084 H1075 0.929 . S
C1084 C1076 1.378 . S
C1084 C1079 1.350 . S
C1085 H1072 0.929 . S
C1085 C1077 1.433 . S
C1085 N1087 1.384 . S
N1086 C1082 1.427 . S
N1086 C1083 1.384 . S
N1087 C1079 1.427 . S
N1087 C1085 1.384 . S
H1088 C1094 0.930 . S
H1089 C1098 0.930 . S
H1090 C1103 0.929 . S
H1091 C1101 0.929 . S
H1092 C1096 0.929 . S
H1093 C1102 0.929 . S
C1094 H1088 0.930 . S
C1094 C1095 1.367 . S
C1094 C1102 1.378 . S
C1095 C1094 1.367 . S
C1095 C1103 1.433 . S
C1096 H1092 0.929 . S
C1096 C1098 1.378 . S
C1096 C1100 1.350 . S
C1097 C1100 1.463 . S
C1097 C1102 1.350 . S
C1097 N1105 1.427 . S
C1098 H1089 0.930 . S
C1098 C1096 1.378 . S
C1098 C1099 1.367 . S
C1099 C1098 1.367 . S
C1099 C1101 1.433 . S
C1100 C1096 1.350 . S
C1100 C1097 1.463 . S
C1100 N1104 1.427 . S
C1101 H1091 0.929 . S
C1101 C1099 1.433 . S
C1101 N1104 1.384 . S
C1102 H1093 0.929 . S
C1102 C1094 1.378 . S
C1102 C1097 1.350 . S
C1103 H1090 0.929 . S
C1103 C1095 1.433 . S
C1103 N1105 1.384 . S
N1104 C1100 1.427 . S
N1104 C1101 1.384 . S
N1105 C1097 1.427 . S
N1105 C1103 1.384 . S
H1106 C1112 0.930 . S
H1107 C1116 0.930 . S
H1108 C1121 0.929 . S
H1109 C1119 0.929 . S
H1110 C1114 0.929 . S
H1111 C1120 0.929 . S
C1112 H1106 0.930 . S
C1112 C1113 1.367 . S
C1112 C1120 1.378 . S
C1113 C1112 1.367 . S
C1113 C1121 1.433 . S
C1114 H1110 0.929 . S
C1114 C1116 1.378 . S
C1114 C1118 1.350 . S
C1115 C1118 1.463 . S
C1115 C1120 1.350 . S
C1115 N1123 1.427 . S
C1116 H1107 0.930 . S
C1116 C1114 1.378 . S
C1116 C1117 1.367 . S
C1117 C1116 1.367 . S
C1117 C1119 1.433 . S
C1118 C1114 1.350 . S
C1118 C1115 1.463 . S
C1118 N1122 1.427 . S
C1119 H1109 0.929 . S
C1119 C1117 1.433 . S
C1119 N1122 1.384 . S
C1120 H1111 0.929 . S
C1120 C1112 1.378 . S
C1120 C1115 1.350 . S
C1121 H1108 0.929 . S
C1121 C1113 1.433 . S
C1121 N1123 1.384 . S
N1122 C1118 1.427 . S
N1122 C1119 1.384 . S
N1123 C1115 1.427 . S
N1123 C1121 1.384 . S
H1124 C1130 0.930 . S
H1125 C1134 0.930 . S
H1126 C1139 0.929 . S
H1127 C1137 0.929 . S
H1128 C1132 0.929 . S
H1129 C1138 0.929 . S
C1130 H1124 0.930 . S
C1130 C1131 1.367 . S
C1130 C1138 1.378 . S
C1131 C1130 1.367 . S
C1131 C1139 1.433 . S
C1132 H1128 0.929 . S
C1132 C1134 1.378 . S
C1132 C1136 1.350 . S
C1133 C1136 1.463 . S
C1133 C1138 1.350 . S
C1133 N1141 1.427 . S
C1134 H1125 0.930 . S
C1134 C1132 1.378 . S
C1134 C1135 1.367 . S
C1135 C1134 1.367 . S
C1135 C1137 1.433 . S
C1136 C1132 1.350 . S
C1136 C1133 1.463 . S
C1136 N1140 1.427 . S
C1137 H1127 0.929 . S
C1137 C1135 1.433 . S
C1137 N1140 1.384 . S
C1138 H1129 0.929 . S
C1138 C1130 1.378 . S
C1138 C1133 1.350 . S
C1139 H1126 0.929 . S
C1139 C1131 1.433 . S
C1139 N1141 1.384 . S
N1140 C1136 1.427 . S
N1140 C1137 1.384 . S
N1141 C1133 1.427 . S
N1141 C1139 1.384 . S
H1142 C1148 0.930 . S
H1143 C1152 0.930 . S
H1144 C1157 0.929 . S
H1145 C1155 0.929 . S
H1146 C1150 0.929 . S
H1147 C1156 0.929 . S
C1148 H1142 0.930 . S
C1148 C1149 1.367 . S
C1148 C1156 1.378 . S
C1149 C1148 1.367 . S
C1149 C1157 1.433 . S
C1150 H1146 0.929 . S
C1150 C1152 1.378 . S
C1150 C1154 1.350 . S
C1151 C1154 1.463 . S
C1151 C1156 1.350 . S
C1151 N1159 1.427 . S
C1152 H1143 0.930 . S
C1152 C1150 1.378 . S
C1152 C1153 1.367 . S
C1153 C1152 1.367 . S
C1153 C1155 1.433 . S
C1154 C1150 1.350 . S
C1154 C1151 1.463 . S
C1154 N1158 1.427 . S
C1155 H1145 0.929 . S
C1155 C1153 1.433 . S
C1155 N1158 1.384 . S
C1156 H1147 0.929 . S
C1156 C1148 1.378 . S
C1156 C1151 1.350 . S
C1157 H1144 0.929 . S
C1157 C1149 1.433 . S
C1157 N1159 1.384 . S
N1158 C1154 1.427 . S
N1158 C1155 1.384 . S
N1159 C1151 1.427 . S
N1159 C1157 1.384 . S
H1160 C1166 0.930 . S
H1161 C1170 0.930 . S
H1162 C1175 0.929 . S
H1163 C1173 0.929 . S
H1164 C1168 0.929 . S
H1165 C1174 0.929 . S
C1166 H1160 0.930 . S
C1166 C1167 1.367 . S
C1166 C1174 1.378 . S
C1167 C1166 1.367 . S
C1167 C1175 1.433 . S
C1168 H1164 0.929 . S
C1168 C1170 1.378 . S
C1168 C1172 1.350 . S
C1169 C1172 1.463 . S
C1169 C1174 1.350 . S
C1169 N1177 1.427 . S
C1170 H1161 0.930 . S
C1170 C1168 1.378 . S
C1170 C1171 1.367 . S
C1171 C1170 1.367 . S
C1171 C1173 1.433 . S
C1172 C1168 1.350 . S
C1172 C1169 1.463 . S
C1172 N1176 1.427 . S
C1173 H1163 0.929 . S
C1173 C1171 1.433 . S
C1173 N1176 1.384 . S
C1174 H1165 0.929 . S
C1174 C1166 1.378 . S
C1174 C1169 1.350 . S
C1175 H1162 0.929 . S
C1175 C1167 1.433 . S
C1175 N1177 1.384 . S
N1176 C1172 1.427 . S
N1176 C1173 1.384 . S
N1177 C1169 1.427 . S
N1177 C1175 1.384 . S
H1178 C1184 0.930 . S
H1179 C1188 0.930 . S
H1180 C1193 0.929 . S
H1181 C1191 0.929 . S
H1182 C1186 0.929 . S
H1183 C1192 0.929 . S
C1184 H1178 0.930 . S
C1184 C1185 1.367 . S
C1184 C1192 1.378 . S
C1185 C1184 1.367 . S
C1185 C1193 1.433 . S
C1186 H1182 0.929 . S
C1186 C1188 1.378 . S
C1186 C1190 1.350 . S
C1187 C1190 1.463 . S
C1187 C1192 1.350 . S
C1187 N1195 1.427 . S
C1188 H1179 0.930 . S
C1188 C1186 1.378 . S
C1188 C1189 1.367 . S
C1189 C1188 1.367 . S
C1189 C1191 1.433 . S
C1190 C1186 1.350 . S
C1190 C1187 1.463 . S
C1190 N1194 1.427 . S
C1191 H1181 0.929 . S
C1191 C1189 1.433 . S
C1191 N1194 1.384 . S
C1192 H1183 0.929 . S
C1192 C1184 1.378 . S
C1192 C1187 1.350 . S
C1193 H1180 0.929 . S
C1193 C1185 1.433 . S
C1193 N1195 1.384 . S
N1194 C1190 1.427 . S
N1194 C1191 1.384 . S
N1195 C1187 1.427 . S
N1195 C1193 1.384 . S
H1196 C1202 0.930 . S
H1197 C1206 0.930 . S
H1198 C1211 0.929 . S
H1199 C1209 0.929 . S
H1200 C1204 0.929 . S
H1201 C1210 0.929 . S
C1202 H1196 0.930 . S
C1202 C1203 1.367 . S
C1202 C1210 1.378 . S
C1203 C1202 1.367 . S
C1203 C1211 1.433 . S
C1204 H1200 0.929 . S
C1204 C1206 1.378 . S
C1204 C1208 1.350 . S
C1205 C1208 1.463 . S
C1205 C1210 1.350 . S
C1205 N1213 1.427 . S
C1206 H1197 0.930 . S
C1206 C1204 1.378 . S
C1206 C1207 1.367 . S
C1207 C1206 1.367 . S
C1207 C1209 1.433 1_556 S
C1208 C1204 1.350 . S
C1208 C1205 1.463 . S
C1208 N1212 1.427 . S
C1209 H1199 0.929 . S
C1209 C1207 1.433 1_554 S
C1209 N1212 1.384 1_554 S
C1210 H1201 0.929 . S
C1210 C1202 1.378 . S
C1210 C1205 1.350 . S
C1211 H1198 0.929 . S
C1211 C1203 1.433 . S
C1211 N1213 1.384 . S
N1212 C1208 1.427 . S
N1212 C1209 1.384 1_556 S
N1213 C1205 1.427 . S
N1213 C1211 1.384 . S
H1214 C1220 0.930 . S
H1215 C1224 0.930 . S
H1216 C1229 0.929 . S
H1217 C1227 0.929 . S
H1218 C1222 0.929 . S
H1219 C1228 0.929 . S
C1220 H1214 0.930 . S
C1220 C1221 1.367 . S
C1220 C1228 1.378 . S
C1221 C1220 1.367 . S
C1221 C1229 1.433 . S
C1222 H1218 0.929 . S
C1222 C1224 1.378 . S
C1222 C1226 1.350 . S
C1223 C1226 1.463 . S
C1223 C1228 1.350 . S
C1223 N1231 1.427 . S
C1224 H1215 0.930 . S
C1224 C1222 1.378 . S
C1224 C1225 1.367 . S
C1225 C1224 1.367 . S
C1225 C1227 1.433 . S
C1226 C1222 1.350 . S
C1226 C1223 1.463 . S
C1226 N1230 1.427 . S
C1227 H1217 0.929 . S
C1227 C1225 1.433 . S
C1227 N1230 1.384 . S
C1228 H1219 0.929 . S
C1228 C1220 1.378 . S
C1228 C1223 1.350 . S
C1229 H1216 0.929 . S
C1229 C1221 1.433 . S
C1229 N1231 1.384 . S
N1230 C1226 1.427 . S
N1230 C1227 1.384 . S
N1231 C1223 1.427 . S
N1231 C1229 1.384 . S
H1232 C1238 0.944 . S
H1233 C1242 0.930 . S
H1234 C1247 0.929 . S
H1235 C1245 0.929 . S
H1236 C1240 0.929 . S
H1237 C1246 0.929 . S
C1238 H1232 0.944 . S
C1238 C1239 1.353 1_565 S
C1238 C1246 1.378 . S
C1239 C1238 1.353 1_545 S
C1239 C1247 1.433 . S
C1240 H1236 0.929 . S
C1240 C1242 1.378 . S
C1240 C1244 1.350 . S
C1241 C1244 1.463 . S
C1241 C1246 1.350 1_545 S
C1241 N1249 1.427 . S
C1242 H1233 0.930 . S
C1242 C1240 1.378 . S
C1242 C1243 1.367 . S
C1243 C1242 1.367 . S
C1243 C1245 1.433 1_545 S
C1244 C1240 1.350 . S
C1244 C1241 1.463 . S
C1244 N1248 1.427 1_545 S
C1245 H1235 0.929 . S
C1245 C1243 1.433 1_565 S
C1245 N1248 1.384 . S
C1246 H1237 0.929 . S
C1246 C1238 1.378 . S
C1246 C1241 1.350 1_565 S
C1247 H1234 0.929 . S
C1247 C1239 1.433 . S
C1247 N1249 1.384 . S
N1248 C1244 1.427 1_565 S
N1248 C1245 1.384 . S
N1249 C1241 1.427 . S
N1249 C1247 1.384 . S
H1250 C1256 0.930 . S
H1251 C1260 0.930 . S
H1252 C1265 0.929 . S
H1253 C1263 0.929 . S
H1254 C1258 0.929 . S
H1255 C1264 0.929 . S
C1256 H1250 0.930 . S
C1256 C1257 1.367 . S
C1256 C1264 1.378 . S
C1257 C1256 1.367 . S
C1257 C1265 1.433 . S
C1258 H1254 0.929 . S
C1258 C1260 1.378 . S
C1258 C1262 1.350 . S
C1259 C1262 1.463 . S
C1259 C1264 1.350 . S
C1259 N1267 1.427 . S
C1260 H1251 0.930 . S
C1260 C1258 1.378 . S
C1260 C1261 1.367 . S
C1261 C1260 1.367 . S
C1261 C1263 1.433 . S
C1262 C1258 1.350 . S
C1262 C1259 1.463 . S
C1262 N1266 1.427 . S
C1263 H1253 0.929 . S
C1263 C1261 1.433 . S
C1263 N1266 1.384 . S
C1264 H1255 0.929 . S
C1264 C1256 1.378 . S
C1264 C1259 1.350 . S
C1265 H1252 0.929 . S
C1265 C1257 1.433 . S
C1265 N1267 1.384 . S
N1266 C1262 1.427 . S
N1266 C1263 1.384 . S
N1267 C1259 1.427 . S
N1267 C1265 1.384 . S
H1268 C1274 0.930 . S
H1269 C1278 0.930 1_565 S
H1270 C1283 0.929 1_565 S
H1271 C1281 0.929 . S
H1272 C1276 0.929 1_565 S
H1273 C1282 0.929 . S
C1274 H1268 0.930 . S
C1274 C1275 1.367 . S
C1274 C1282 1.378 . S
C1275 C1274 1.367 . S
C1275 C1283 1.433 . S
C1276 H1272 0.929 1_545 S
C1276 C1278 1.378 . S
C1276 C1280 1.350 . S
C1277 C1280 1.463 . S
C1277 C1282 1.350 . S
C1277 N1285 1.427 . S
C1278 H1269 0.930 1_545 S
C1278 C1276 1.378 . S
C1278 C1279 1.367 . S
C1279 C1278 1.367 . S
C1279 C1281 1.433 . S
C1280 C1276 1.350 . S
C1280 C1277 1.463 . S
C1280 N1284 1.427 . S
C1281 H1271 0.929 . S
C1281 C1279 1.433 . S
C1281 N1284 1.384 . S
C1282 H1273 0.929 . S
C1282 C1274 1.378 . S
C1282 C1277 1.350 . S
C1283 H1270 0.929 1_545 S
C1283 C1275 1.433 . S
C1283 N1285 1.384 . S
N1284 C1280 1.427 . S
N1284 C1281 1.384 . S
N1285 C1277 1.427 . S
N1285 C1283 1.384 . S
H1286 C1292 0.930 . S
H1287 C1296 0.930 . S
H1288 C1301 0.929 . S
H1289 C1299 0.929 . S
H1290 C1294 0.929 . S
H1291 C1300 0.929 . S
C1292 H1286 0.930 . S
C1292 C1293 1.367 . S
C1292 C1300 1.378 . S
C1293 C1292 1.367 . S
C1293 C1301 1.433 . S
C1294 H1290 0.929 . S
C1294 C1296 1.378 . S
C1294 C1298 1.350 . S
C1295 C1298 1.463 . S
C1295 C1300 1.350 . S
C1295 N1303 1.427 . S
C1296 H1287 0.930 . S
C1296 C1294 1.378 . S
C1296 C1297 1.367 . S
C1297 C1296 1.367 . S
C1297 C1299 1.433 . S
C1298 C1294 1.350 . S
C1298 C1295 1.463 . S
C1298 N1302 1.427 . S
C1299 H1289 0.929 . S
C1299 C1297 1.433 . S
C1299 N1302 1.384 . S
C1300 H1291 0.929 . S
C1300 C1292 1.378 . S
C1300 C1295 1.350 . S
C1301 H1288 0.929 . S
C1301 C1293 1.433 . S
C1301 N1303 1.384 . S
N1302 C1298 1.427 . S
N1302 C1299 1.384 . S
N1303 C1295 1.427 . S
N1303 C1301 1.384 . S
H1304 C1310 0.930 . S
H1305 C1314 0.930 . S
H1306 C1319 0.929 . S
H1307 C1317 0.929 . S
H1308 C1312 0.929 . S
H1309 C1318 0.929 . S
C1310 H1304 0.930 . S
C1310 C1311 1.367 1_565 S
C1310 C1318 1.378 . S
C1311 C1310 1.367 1_545 S
C1311 C1319 1.433 . S
C1312 H1308 0.929 . S
C1312 C1314 1.378 . S
C1312 C1316 1.350 . S
C1313 C1316 1.463 . S
C1313 C1318 1.350 1_545 S
C1313 N1321 1.427 . S
C1314 H1305 0.930 . S
C1314 C1312 1.378 . S
C1314 C1315 1.367 . S
C1315 C1314 1.367 . S
C1315 C1317 1.433 1_545 S
C1316 C1312 1.350 . S
C1316 C1313 1.463 . S
C1316 N1320 1.427 1_545 S
C1317 H1307 0.929 . S
C1317 C1315 1.433 1_565 S
C1317 N1320 1.384 . S
C1318 H1309 0.929 . S
C1318 C1310 1.378 . S
C1318 C1313 1.350 1_565 S
C1319 H1306 0.929 . S
C1319 C1311 1.433 . S
C1319 N1321 1.384 . S
N1320 C1316 1.427 1_565 S
N1320 C1317 1.384 . S
N1321 C1313 1.427 . S
N1321 C1319 1.384 . S
H1322 C1328 0.930 . S
H1323 C1332 0.930 . S
H1324 C1337 0.929 . S
H1325 C1335 0.929 . S
H1326 C1330 0.929 . S
H1327 C1336 0.929 . S
C1328 H1322 0.930 . S
C1328 C1329 1.367 . S
C1328 C1336 1.378 . S
C1329 C1328 1.367 . S
C1329 C1337 1.433 . S
C1330 H1326 0.929 . S
C1330 C1332 1.378 . S
C1330 C1334 1.350 . S
C1331 C1334 1.463 . S
C1331 C1336 1.350 . S
C1331 N1339 1.427 . S
C1332 H1323 0.930 . S
C1332 C1330 1.378 . S
C1332 C1333 1.367 . S
C1333 C1332 1.367 . S
C1333 C1335 1.433 . S
C1334 C1330 1.350 . S
C1334 C1331 1.463 . S
C1334 N1338 1.427 . S
C1335 H1325 0.929 . S
C1335 C1333 1.433 . S
C1335 N1338 1.384 . S
C1336 H1327 0.929 . S
C1336 C1328 1.378 . S
C1336 C1331 1.350 . S
C1337 H1324 0.929 . S
C1337 C1329 1.433 . S
C1337 N1339 1.384 . S
N1338 C1334 1.427 . S
N1338 C1335 1.384 . S
N1339 C1331 1.427 . S
N1339 C1337 1.384 . S
H1340 C1346 0.930 . S
H1341 C1350 0.930 . S
H1342 C1355 0.929 . S
H1343 C1353 0.929 . S
H1344 C1348 0.929 . S
H1345 C1354 0.929 . S
C1346 H1340 0.930 . S
C1346 C1347 1.367 . S
C1346 C1354 1.378 . S
C1347 C1346 1.367 . S
C1347 C1355 1.433 1_545 S
C1348 H1344 0.929 . S
C1348 C1350 1.378 . S
C1348 C1352 1.350 1_565 S
C1349 C1352 1.463 . S
C1349 C1354 1.350 . S
C1349 N1357 1.427 1_545 S
C1350 H1341 0.930 . S
C1350 C1348 1.378 . S
C1350 C1351 1.367 . S
C1351 C1350 1.367 . S
C1351 C1353 1.433 1_565 S
C1352 C1348 1.350 1_545 S
C1352 C1349 1.463 . S
C1352 N1356 1.427 . S
C1353 H1343 0.929 . S
C1353 C1351 1.433 1_545 S
C1353 N1356 1.384 . S
C1354 H1345 0.929 . S
C1354 C1346 1.378 . S
C1354 C1349 1.350 . S
C1355 H1342 0.929 . S
C1355 C1347 1.433 1_565 S
C1355 N1357 1.384 . S
N1356 C1352 1.427 . S
N1356 C1353 1.384 . S
N1357 C1349 1.427 1_565 S
N1357 C1355 1.384 . S
H1358 C1364 0.930 . S
H1359 C1368 0.930 . S
H1360 C1373 0.929 . S
H1361 C1371 0.929 . S
H1362 C1366 0.929 . S
H1363 C1372 0.929 . S
C1364 H1358 0.930 . S
C1364 C1365 1.367 . S
C1364 C1372 1.378 . S
C1365 C1364 1.367 . S
C1365 C1373 1.433 . S
C1366 H1362 0.929 . S
C1366 C1368 1.378 . S
C1366 C1370 1.350 . S
C1367 C1370 1.463 . S
C1367 C1372 1.350 . S
C1367 N1375 1.427 . S
C1368 H1359 0.930 . S
C1368 C1366 1.378 . S
C1368 C1369 1.367 . S
C1369 C1368 1.367 . S
C1369 C1371 1.433 . S
C1370 C1366 1.350 . S
C1370 C1367 1.463 . S
C1370 N1374 1.427 . S
C1371 H1361 0.929 . S
C1371 C1369 1.433 . S
C1371 N1374 1.384 . S
C1372 H1363 0.929 . S
C1372 C1364 1.378 . S
C1372 C1367 1.350 . S
C1373 H1360 0.929 . S
C1373 C1365 1.433 . S
C1373 N1375 1.384 . S
N1374 C1370 1.427 . S
N1374 C1371 1.384 . S
N1375 C1367 1.427 . S
N1375 C1373 1.384 . S
H1376 C1382 0.930 . S
H1377 C1386 0.930 . S
H1378 C1391 0.929 . S
H1379 C1389 0.929 . S
H1380 C1384 0.929 1_556 S
H1381 C1390 0.929 . S
C1382 H1376 0.930 . S
C1382 C1383 1.367 . S
C1382 C1390 1.378 . S
C1383 C1382 1.367 . S
C1383 C1391 1.433 . S
C1384 H1380 0.929 1_554 S
C1384 C1386 1.378 1_554 S
C1384 C1388 1.350 . S
C1385 C1388 1.463 . S
C1385 C1390 1.350 . S
C1385 N1393 1.427 . S
C1386 H1377 0.930 . S
C1386 C1384 1.378 1_556 S
C1386 C1387 1.367 1_556 S
C1387 C1386 1.367 1_554 S
C1387 C1389 1.433 . S
C1388 C1384 1.350 . S
C1388 C1385 1.463 . S
C1388 N1392 1.427 . S
C1389 H1379 0.929 . S
C1389 C1387 1.433 . S
C1389 N1392 1.384 . S
C1390 H1381 0.929 . S
C1390 C1382 1.378 . S
C1390 C1385 1.350 . S
C1391 H1378 0.929 . S
C1391 C1383 1.433 . S
C1391 N1393 1.384 . S
N1392 C1388 1.427 . S
N1392 C1389 1.384 . S
N1393 C1385 1.427 . S
N1393 C1391 1.384 . S
H1394 C1400 0.930 . S
H1395 C1404 0.907 1_556 S
H1396 C1409 0.929 . S
H1397 C1407 0.929 . S
H1398 C1402 0.929 . S
H1399 C1408 0.929 . S
C1400 H1394 0.930 . S
C1400 C1401 1.367 . S
C1400 C1408 1.378 . S
C1401 C1400 1.367 . S
C1401 C1409 1.433 . S
C1402 H1398 0.929 . S
C1402 C1404 1.378 . S
C1402 C1406 1.350 . S
C1403 C1406 1.463 . S
C1403 C1408 1.350 . S
C1403 N1411 1.427 . S
C1404 H1395 0.907 1_554 S
C1404 C1402 1.378 . S
C1404 C1405 1.367 . S
C1405 C1404 1.367 . S
C1405 C1407 1.433 . S
C1406 C1402 1.350 . S
C1406 C1403 1.463 . S
C1406 N1410 1.427 . S
C1407 H1397 0.929 . S
C1407 C1405 1.433 . S
C1407 N1410 1.384 . S
C1408 H1399 0.929 . S
C1408 C1400 1.378 . S
C1408 C1403 1.350 . S
C1409 H1396 0.929 . S
C1409 C1401 1.433 . S
C1409 N1411 1.384 . S
N1410 C1406 1.427 . S
N1410 C1407 1.384 . S
N1411 C1403 1.427 . S
N1411 C1409 1.384 . S
H1412 C1418 0.930 . S
H1413 C1422 0.930 . S
H1414 C1427 0.929 . S
H1415 C1425 0.929 . S
H1416 C1420 0.929 . S
H1417 C1426 0.929 . S
C1418 H1412 0.930 . S
C1418 C1419 1.367 . S
C1418 C1426 1.378 . S
C1419 C1418 1.367 . S
C1419 C1427 1.433 . S
C1420 H1416 0.929 . S
C1420 C1422 1.378 . S
C1420 C1424 1.350 . S
C1421 C1424 1.463 . S
C1421 C1426 1.350 . S
C1421 N1429 1.427 . S
C1422 H1413 0.930 . S
C1422 C1420 1.378 . S
C1422 C1423 1.367 . S
C1423 C1422 1.367 . S
C1423 C1425 1.433 . S
C1424 C1420 1.350 . S
C1424 C1421 1.463 . S
C1424 N1428 1.427 . S
C1425 H1415 0.929 . S
C1425 C1423 1.433 . S
C1425 N1428 1.384 . S
C1426 H1417 0.929 . S
C1426 C1418 1.378 . S
C1426 C1421 1.350 . S
C1427 H1414 0.929 . S
C1427 C1419 1.433 . S
C1427 N1429 1.384 . S
N1428 C1424 1.427 . S
N1428 C1425 1.384 . S
N1429 C1421 1.427 . S
N1429 C1427 1.384 . S
H1430 C1436 0.930 . S
H1431 C1440 0.930 . S
H1432 C1445 0.929 . S
H1433 C1443 0.929 . S
H1434 C1438 0.929 . S
H1435 C1444 0.929 . S
C1436 H1430 0.930 . S
C1436 C1437 1.367 . S
C1436 C1444 1.378 . S
C1437 C1436 1.367 . S
C1437 C1445 1.433 . S
C1438 H1434 0.929 . S
C1438 C1440 1.378 . S
C1438 C1442 1.350 . S
C1439 C1442 1.463 . S
C1439 C1444 1.350 . S
C1439 N1447 1.427 . S
C1440 H1431 0.930 . S
C1440 C1438 1.378 . S
C1440 C1441 1.367 . S
C1441 C1440 1.367 . S
C1441 C1443 1.433 . S
C1442 C1438 1.350 . S
C1442 C1439 1.463 . S
C1442 N1446 1.427 . S
C1443 H1433 0.929 . S
C1443 C1441 1.433 . S
C1443 N1446 1.384 . S
C1444 H1435 0.929 . S
C1444 C1436 1.378 . S
C1444 C1439 1.350 . S
C1445 H1432 0.929 . S
C1445 C1437 1.433 . S
C1445 N1447 1.384 . S
N1446 C1442 1.427 . S
N1446 C1443 1.384 . S
N1447 C1439 1.427 . S
N1447 C1445 1.384 . S
H1448 C1454 0.930 . S
H1449 C1458 0.930 . S
H1450 C1463 0.929 . S
H1451 C1461 0.929 . S
H1452 C1456 0.929 . S
H1453 C1462 0.929 . S
C1454 H1448 0.930 . S
C1454 C1455 1.367 . S
C1454 C1462 1.378 . S
C1455 C1454 1.367 . S
C1455 C1463 1.433 . S
C1456 H1452 0.929 . S
C1456 C1458 1.378 . S
C1456 C1460 1.350 . S
C1457 C1460 1.463 . S
C1457 C1462 1.350 . S
C1457 N1465 1.427 . S
C1458 H1449 0.930 . S
C1458 C1456 1.378 . S
C1458 C1459 1.367 . S
C1459 C1458 1.367 . S
C1459 C1461 1.433 . S
C1460 C1456 1.350 . S
C1460 C1457 1.463 . S
C1460 N1464 1.427 . S
C1461 H1451 0.929 . S
C1461 C1459 1.433 . S
C1461 N1464 1.384 . S
C1462 H1453 0.929 . S
C1462 C1454 1.378 . S
C1462 C1457 1.350 . S
C1463 H1450 0.929 . S
C1463 C1455 1.433 . S
C1463 N1465 1.384 . S
N1464 C1460 1.427 . S
N1464 C1461 1.384 . S
N1465 C1457 1.427 . S
N1465 C1463 1.384 . S
H1466 C1472 0.930 . S
H1467 C1476 0.930 . S
H1468 C1481 0.929 . S
H1469 C1479 0.929 . S
H1470 C1474 0.929 . S
H1471 C1480 0.929 . S
C1472 H1466 0.930 . S
C1472 C1473 1.367 . S
C1472 C1480 1.378 . S
C1473 C1472 1.367 . S
C1473 C1481 1.433 . S
C1474 H1470 0.929 . S
C1474 C1476 1.378 . S
C1474 C1478 1.350 . S
C1475 C1478 1.463 . S
C1475 C1480 1.350 . S
C1475 N1483 1.427 . S
C1476 H1467 0.930 . S
C1476 C1474 1.378 . S
C1476 C1477 1.367 . S
C1477 C1476 1.367 . S
C1477 C1479 1.433 . S
C1478 C1474 1.350 . S
C1478 C1475 1.463 . S
C1478 N1482 1.427 . S
C1479 H1469 0.929 . S
C1479 C1477 1.433 . S
C1479 N1482 1.384 . S
C1480 H1471 0.929 . S
C1480 C1472 1.378 . S
C1480 C1475 1.350 . S
C1481 H1468 0.929 . S
C1481 C1473 1.433 . S
C1481 N1483 1.384 . S
N1482 C1478 1.427 . S
N1482 C1479 1.384 . S
N1483 C1475 1.427 . S
N1483 C1481 1.384 . S
H1484 C1490 0.930 . S
H1485 C1494 0.930 . S
H1486 C1499 0.929 . S
H1487 C1497 0.929 . S
H1488 C1492 0.929 . S
H1489 C1498 0.929 . S
C1490 H1484 0.930 . S
C1490 C1491 1.367 . S
C1490 C1498 1.378 . S
C1491 C1490 1.367 . S
C1491 C1499 1.433 . S
C1492 H1488 0.929 . S
C1492 C1494 1.378 . S
C1492 C1496 1.350 . S
C1493 C1496 1.463 . S
C1493 C1498 1.350 . S
C1493 N1501 1.427 . S
C1494 H1485 0.930 . S
C1494 C1492 1.378 . S
C1494 C1495 1.367 . S
C1495 C1494 1.367 . S
C1495 C1497 1.433 . S
C1496 C1492 1.350 . S
C1496 C1493 1.463 . S
C1496 N1500 1.427 . S
C1497 H1487 0.929 . S
C1497 C1495 1.433 . S
C1497 N1500 1.384 . S
C1498 H1489 0.929 . S
C1498 C1490 1.378 . S
C1498 C1493 1.350 . S
C1499 H1486 0.929 . S
C1499 C1491 1.433 . S
C1499 N1501 1.384 . S
N1500 C1496 1.427 . S
N1500 C1497 1.384 . S
N1501 C1493 1.427 . S
N1501 C1499 1.384 . S
H1502 C1508 0.930 . S
H1503 C1512 0.930 . S
H1504 C1517 0.929 . S
H1505 C1515 0.929 . S
H1506 C1510 0.929 . S
H1507 C1516 0.929 . S
C1508 H1502 0.930 . S
C1508 C1509 1.367 . S
C1508 C1516 1.378 . S
C1509 C1508 1.367 . S
C1509 C1517 1.433 . S
C1510 H1506 0.929 . S
C1510 C1512 1.378 . S
C1510 C1514 1.350 . S
C1511 C1514 1.463 . S
C1511 C1516 1.350 . S
C1511 N1519 1.427 . S
C1512 H1503 0.930 . S
C1512 C1510 1.378 . S
C1512 C1513 1.367 . S
C1513 C1512 1.367 . S
C1513 C1515 1.433 . S
C1514 C1510 1.350 . S
C1514 C1511 1.463 . S
C1514 N1518 1.427 . S
C1515 H1505 0.929 . S
C1515 C1513 1.433 . S
C1515 N1518 1.384 . S
C1516 H1507 0.929 . S
C1516 C1508 1.378 . S
C1516 C1511 1.350 . S
C1517 H1504 0.929 . S
C1517 C1509 1.433 . S
C1517 N1519 1.384 . S
N1518 C1514 1.427 . S
N1518 C1515 1.384 . S
N1519 C1511 1.427 . S
N1519 C1517 1.384 . S
H1520 C1526 0.930 . S
H1521 C1530 0.930 . S
H1522 C1535 0.929 . S
H1523 C1533 0.929 . S
H1524 C1528 0.929 . S
H1525 C1534 0.929 . S
C1526 H1520 0.930 . S
C1526 C1527 1.367 . S
C1526 C1534 1.378 . S
C1527 C1526 1.367 . S
C1527 C1535 1.433 . S
C1528 H1524 0.929 . S
C1528 C1530 1.378 . S
C1528 C1532 1.350 . S
C1529 C1532 1.463 . S
C1529 C1534 1.350 . S
C1529 N1537 1.427 . S
C1530 H1521 0.930 . S
C1530 C1528 1.378 . S
C1530 C1531 1.367 . S
C1531 C1530 1.367 . S
C1531 C1533 1.433 . S
C1532 C1528 1.350 . S
C1532 C1529 1.463 . S
C1532 N1536 1.427 . S
C1533 H1523 0.929 . S
C1533 C1531 1.433 . S
C1533 N1536 1.384 . S
C1534 H1525 0.929 . S
C1534 C1526 1.378 . S
C1534 C1529 1.350 . S
C1535 H1522 0.929 . S
C1535 C1527 1.433 . S
C1535 N1537 1.384 . S
N1536 C1532 1.427 . S
N1536 C1533 1.384 . S
N1537 C1529 1.427 . S
N1537 C1535 1.384 . S
H1538 C1544 0.930 . S
H1539 C1548 0.930 . S
H1540 C1553 0.929 . S
H1541 C1551 0.929 . S
H1542 C1546 0.929 . S
H1543 C1552 0.929 . S
C1544 H1538 0.930 . S
C1544 C1545 1.367 . S
C1544 C1552 1.378 . S
C1545 C1544 1.367 . S
C1545 C1553 1.433 . S
C1546 H1542 0.929 . S
C1546 C1548 1.378 . S
C1546 C1550 1.350 . S
C1547 C1550 1.463 . S
C1547 C1552 1.350 . S
C1547 N1555 1.427 . S
C1548 H1539 0.930 . S
C1548 C1546 1.378 . S
C1548 C1549 1.367 . S
C1549 C1548 1.367 . S
C1549 C1551 1.433 . S
C1550 C1546 1.350 . S
C1550 C1547 1.463 . S
C1550 N1554 1.427 . S
C1551 H1541 0.929 . S
C1551 C1549 1.433 . S
C1551 N1554 1.384 . S
C1552 H1543 0.929 . S
C1552 C1544 1.378 . S
C1552 C1547 1.350 . S
C1553 H1540 0.929 . S
C1553 C1545 1.433 . S
C1553 N1555 1.384 . S
N1554 C1550 1.427 . S
N1554 C1551 1.384 . S
N1555 C1547 1.427 . S
N1555 C1553 1.384 . S
H1556 C1562 0.930 . S
H1557 C1566 0.930 . S
H1558 C1571 0.929 . S
H1559 C1569 0.929 . S
H1560 C1564 0.929 1_554 S
H1561 C1570 0.929 . S
C1562 H1556 0.930 . S
C1562 C1563 1.367 1_655 S
C1562 C1570 1.378 . S
C1563 C1562 1.367 1_455 S
C1563 C1571 1.433 . S
C1564 H1560 0.929 1_556 S
C1564 C1566 1.378 1_556 S
C1564 C1568 1.350 . S
C1565 C1568 1.463 . S
C1565 C1570 1.350 1_455 S
C1565 N1573 1.427 . S
C1566 H1557 0.930 . S
C1566 C1564 1.378 1_554 S
C1566 C1567 1.367 . S
C1567 C1566 1.367 . S
C1567 C1569 1.433 1_454 S
C1568 C1564 1.350 . S
C1568 C1565 1.463 . S
C1568 N1572 1.427 1_455 S
C1569 H1559 0.929 . S
C1569 C1567 1.433 1_656 S
C1569 N1572 1.384 . S
C1570 H1561 0.929 . S
C1570 C1562 1.378 . S
C1570 C1565 1.350 1_655 S
C1571 H1558 0.929 . S
C1571 C1563 1.433 . S
C1571 N1573 1.384 . S
N1572 C1568 1.427 1_655 S
N1572 C1569 1.384 . S
N1573 C1565 1.427 . S
N1573 C1571 1.384 . S
H1574 C1580 0.930 . S
H1575 C1584 0.930 . S
H1576 C1589 0.929 . S
H1577 C1587 0.929 . S
H1578 C1582 0.929 . S
H1579 C1588 0.929 . S
C1580 H1574 0.930 . S
C1580 C1581 1.367 . S
C1580 C1588 1.378 . S
C1581 C1580 1.367 . S
C1581 C1589 1.433 . S
C1582 H1578 0.929 . S
C1582 C1584 1.378 . S
C1582 C1586 1.350 . S
C1583 C1586 1.463 . S
C1583 C1588 1.350 . S
C1583 N1591 1.427 . S
C1584 H1575 0.930 . S
C1584 C1582 1.378 . S
C1584 C1585 1.367 . S
C1585 C1584 1.367 . S
C1585 C1587 1.433 . S
C1586 C1582 1.350 . S
C1586 C1583 1.463 . S
C1586 N1590 1.427 . S
C1587 H1577 0.929 . S
C1587 C1585 1.433 . S
C1587 N1590 1.384 . S
C1588 H1579 0.929 . S
C1588 C1580 1.378 . S
C1588 C1583 1.350 . S
C1589 H1576 0.929 . S
C1589 C1581 1.433 . S
C1589 N1591 1.384 . S
N1590 C1586 1.427 . S
N1590 C1587 1.384 . S
N1591 C1583 1.427 . S
N1591 C1589 1.384 . S
H1592 C1598 0.930 . S
H1593 C1602 0.930 . S
H1594 C1607 0.929 . S
H1595 C1605 0.929 . S
H1596 C1600 0.929 . S
H1597 C1606 0.929 . S
C1598 H1592 0.930 . S
C1598 C1599 1.367 . S
C1598 C1606 1.378 . S
C1599 C1598 1.367 . S
C1599 C1607 1.433 . S
C1600 H1596 0.929 . S
C1600 C1602 1.378 . S
C1600 C1604 1.350 . S
C1601 C1604 1.463 . S
C1601 C1606 1.350 . S
C1601 N1609 1.427 . S
C1602 H1593 0.930 . S
C1602 C1600 1.378 . S
C1602 C1603 1.367 . S
C1603 C1602 1.367 . S
C1603 C1605 1.433 . S
C1604 C1600 1.350 . S
C1604 C1601 1.463 . S
C1604 N1608 1.427 . S
C1605 H1595 0.929 . S
C1605 C1603 1.433 . S
C1605 N1608 1.384 . S
C1606 H1597 0.929 . S
C1606 C1598 1.378 . S
C1606 C1601 1.350 . S
C1607 H1594 0.929 . S
C1607 C1599 1.433 . S
C1607 N1609 1.384 . S
N1608 C1604 1.427 . S
N1608 C1605 1.384 . S
N1609 C1601 1.427 . S
N1609 C1607 1.384 . S
H1610 C1616 0.930 . S
H1611 C1620 0.930 . S
H1612 C1625 0.929 . S
H1613 C1623 0.929 . S
H1614 C1618 0.929 . S
H1615 C1624 0.929 . S
C1616 H1610 0.930 . S
C1616 C1617 1.367 . S
C1616 C1624 1.378 . S
C1617 C1616 1.367 . S
C1617 C1625 1.433 . S
C1618 H1614 0.929 . S
C1618 C1620 1.378 . S
C1618 C1622 1.350 . S
C1619 C1622 1.463 . S
C1619 C1624 1.350 . S
C1619 N1627 1.427 . S
C1620 H1611 0.930 . S
C1620 C1618 1.378 . S
C1620 C1621 1.367 . S
C1621 C1620 1.367 . S
C1621 C1623 1.433 . S
C1622 C1618 1.350 . S
C1622 C1619 1.463 . S
C1622 N1626 1.427 . S
C1623 H1613 0.929 . S
C1623 C1621 1.433 . S
C1623 N1626 1.384 . S
C1624 H1615 0.929 . S
C1624 C1616 1.378 . S
C1624 C1619 1.350 . S
C1625 H1612 0.929 . S
C1625 C1617 1.433 . S
C1625 N1627 1.384 . S
N1626 C1622 1.427 . S
N1626 C1623 1.384 . S
N1627 C1619 1.427 . S
N1627 C1625 1.384 . S
H1628 C1634 0.930 . S
H1629 C1638 0.930 . S
H1630 C1643 0.929 . S
H1631 C1641 0.929 . S
H1632 C1636 0.929 . S
H1633 C1642 0.929 . S
C1634 H1628 0.930 . S
C1634 C1635 1.367 . S
C1634 C1642 1.378 . S
C1635 C1634 1.367 . S
C1635 C1643 1.433 1_655 S
C1636 H1632 0.929 . S
C1636 C1638 1.378 . S
C1636 C1640 1.350 . S
C1637 C1640 1.467 . S
C1637 C1642 1.342 1_455 S
C1637 N1645 1.432 . S
C1638 H1629 0.930 . S
C1638 C1636 1.378 . S
C1638 C1639 1.367 . S
C1639 C1638 1.367 . S
C1639 C1641 1.433 1_455 S
C1640 C1636 1.350 . S
C1640 C1637 1.467 . S
C1640 N1644 1.427 1_455 S
C1641 H1631 0.929 . S
C1641 C1639 1.433 1_655 S
C1641 N1644 1.384 . S
C1642 H1633 0.929 . S
C1642 C1634 1.378 . S
C1642 C1637 1.342 1_655 S
C1643 H1630 0.929 . S
C1643 C1635 1.433 1_455 S
C1643 N1645 1.384 . S
N1644 C1640 1.427 1_655 S
N1644 C1641 1.384 . S
N1645 C1637 1.432 . S
N1645 C1643 1.384 . S
H1646 C1652 0.930 . S
H1647 C1656 0.930 . S
H1648 C1661 0.929 . S
H1649 C1659 0.929 . S
H1650 C1654 0.929 . S
H1651 C1660 0.929 . S
C1652 H1646 0.930 . S
C1652 C1653 1.367 . S
C1652 C1660 1.378 . S
C1653 C1652 1.367 . S
C1653 C1661 1.433 . S
C1654 H1650 0.929 . S
C1654 C1656 1.378 . S
C1654 C1658 1.350 . S
C1655 C1658 1.463 . S
C1655 C1660 1.350 . S
C1655 N1663 1.427 . S
C1656 H1647 0.930 . S
C1656 C1654 1.378 . S
C1656 C1657 1.367 . S
C1657 C1656 1.367 . S
C1657 C1659 1.433 . S
C1658 C1654 1.350 . S
C1658 C1655 1.463 . S
C1658 N1662 1.427 . S
C1659 H1649 0.929 . S
C1659 C1657 1.433 . S
C1659 N1662 1.384 . S
C1660 H1651 0.929 . S
C1660 C1652 1.378 . S
C1660 C1655 1.350 . S
C1661 H1648 0.929 . S
C1661 C1653 1.433 . S
C1661 N1663 1.384 . S
N1662 C1658 1.427 . S
N1662 C1659 1.384 . S
N1663 C1655 1.427 . S
N1663 C1661 1.384 . S
H1664 C1670 0.930 . S
H1665 C1674 0.930 . S
H1666 C1679 0.929 . S
H1667 C1677 0.929 . S
H1668 C1672 0.929 . S
H1669 C1678 0.929 . S
C1670 H1664 0.930 . S
C1670 C1671 1.367 . S
C1670 C1678 1.378 . S
C1671 C1670 1.367 . S
C1671 C1679 1.433 . S
C1672 H1668 0.929 . S
C1672 C1674 1.378 . S
C1672 C1676 1.350 . S
C1673 C1676 1.463 . S
C1673 C1678 1.350 . S
C1673 N1681 1.427 . S
C1674 H1665 0.930 . S
C1674 C1672 1.378 . S
C1674 C1675 1.367 . S
C1675 C1674 1.367 . S
C1675 C1677 1.433 . S
C1676 C1672 1.350 . S
C1676 C1673 1.463 . S
C1676 N1680 1.427 . S
C1677 H1667 0.929 . S
C1677 C1675 1.433 . S
C1677 N1680 1.384 . S
C1678 H1669 0.929 . S
C1678 C1670 1.378 . S
C1678 C1673 1.350 . S
C1679 H1666 0.929 . S
C1679 C1671 1.433 . S
C1679 N1681 1.384 . S
N1680 C1676 1.427 . S
N1680 C1677 1.384 . S
N1681 C1673 1.427 . S
N1681 C1679 1.384 . S
H1682 C1688 0.930 . S
H1683 C1692 0.930 . S
H1684 C1697 0.929 . S
H1685 C1695 0.929 . S
H1686 C1690 0.929 . S
H1687 C1696 0.929 . S
C1688 H1682 0.930 . S
C1688 C1689 1.367 . S
C1688 C1696 1.378 . S
C1689 C1688 1.367 . S
C1689 C1697 1.433 . S
C1690 H1686 0.929 . S
C1690 C1692 1.378 . S
C1690 C1694 1.350 . S
C1691 C1694 1.463 . S
C1691 C1696 1.350 . S
C1691 N1699 1.427 . S
C1692 H1683 0.930 . S
C1692 C1690 1.378 . S
C1692 C1693 1.367 . S
C1693 C1692 1.367 . S
C1693 C1695 1.433 . S
C1694 C1690 1.350 . S
C1694 C1691 1.463 . S
C1694 N1698 1.427 . S
C1695 H1685 0.929 . S
C1695 C1693 1.433 . S
C1695 N1698 1.384 . S
C1696 H1687 0.929 . S
C1696 C1688 1.378 . S
C1696 C1691 1.350 . S
C1697 H1684 0.929 . S
C1697 C1689 1.433 . S
C1697 N1699 1.384 . S
N1698 C1694 1.427 . S
N1698 C1695 1.384 . S
N1699 C1691 1.427 . S
N1699 C1697 1.384 . S
H1700 C1706 0.930 . S
H1701 C1710 0.930 . S
H1702 C1715 0.929 . S
H1703 C1713 0.929 . S
H1704 C1708 0.929 . S
H1705 C1714 0.929 . S
C1706 H1700 0.930 . S
C1706 C1707 1.367 . S
C1706 C1714 1.378 . S
C1707 C1706 1.367 . S
C1707 C1715 1.433 . S
C1708 H1704 0.929 . S
C1708 C1710 1.378 . S
C1708 C1712 1.350 . S
C1709 C1712 1.463 . S
C1709 C1714 1.350 . S
C1709 N1717 1.427 . S
C1710 H1701 0.930 . S
C1710 C1708 1.378 . S
C1710 C1711 1.367 . S
C1711 C1710 1.367 . S
C1711 C1713 1.433 . S
C1712 C1708 1.350 . S
C1712 C1709 1.463 . S
C1712 N1716 1.427 . S
C1713 H1703 0.929 . S
C1713 C1711 1.433 . S
C1713 N1716 1.384 . S
C1714 H1705 0.929 . S
C1714 C1706 1.378 . S
C1714 C1709 1.350 . S
C1715 H1702 0.929 . S
C1715 C1707 1.433 . S
C1715 N1717 1.384 . S
N1716 C1712 1.427 . S
N1716 C1713 1.384 . S
N1717 C1709 1.427 . S
N1717 C1715 1.384 . S
H1718 C1724 0.930 . S
H1719 C1728 0.930 . S
H1720 C1733 0.929 . S
H1721 C1731 0.929 . S
H1722 C1726 0.929 . S
H1723 C1732 0.929 . S
C1724 H1718 0.930 . S
C1724 C1725 1.367 . S
C1724 C1732 1.378 . S
C1725 C1724 1.367 . S
C1725 C1733 1.433 . S
C1726 H1722 0.929 . S
C1726 C1728 1.378 . S
C1726 C1730 1.350 . S
C1727 C1730 1.463 . S
C1727 C1732 1.350 . S
C1727 N1735 1.427 . S
C1728 H1719 0.930 . S
C1728 C1726 1.378 . S
C1728 C1729 1.367 . S
C1729 C1728 1.367 . S
C1729 C1731 1.433 . S
C1730 C1726 1.350 . S
C1730 C1727 1.463 . S
C1730 N1734 1.427 . S
C1731 H1721 0.929 . S
C1731 C1729 1.433 . S
C1731 N1734 1.384 . S
C1732 H1723 0.929 . S
C1732 C1724 1.378 . S
C1732 C1727 1.350 . S
C1733 H1720 0.929 . S
C1733 C1725 1.433 . S
C1733 N1735 1.384 . S
N1734 C1730 1.427 . S
N1734 C1731 1.384 . S
N1735 C1727 1.427 . S
N1735 C1733 1.384 . S
H1736 C1742 0.930 . S
H1737 C1746 0.930 . S
H1738 C1751 0.929 . S
H1739 C1749 0.929 . S
H1740 C1744 0.929 . S
H1741 C1750 0.929 . S
C1742 H1736 0.930 . S
C1742 C1743 1.367 . S
C1742 C1750 1.378 . S
C1743 C1742 1.367 . S
C1743 C1751 1.433 . S
C1744 H1740 0.929 . S
C1744 C1746 1.378 . S
C1744 C1748 1.350 . S
C1745 C1748 1.463 . S
C1745 C1750 1.350 . S
C1745 N1753 1.427 . S
C1746 H1737 0.930 . S
C1746 C1744 1.378 . S
C1746 C1747 1.367 . S
C1747 C1746 1.367 . S
C1747 C1749 1.433 . S
C1748 C1744 1.350 . S
C1748 C1745 1.463 . S
C1748 N1752 1.427 . S
C1749 H1739 0.929 . S
C1749 C1747 1.433 . S
C1749 N1752 1.384 . S
C1750 H1741 0.929 . S
C1750 C1742 1.378 . S
C1750 C1745 1.350 . S
C1751 H1738 0.929 . S
C1751 C1743 1.433 . S
C1751 N1753 1.384 . S
N1752 C1748 1.427 . S
N1752 C1749 1.384 . S
N1753 C1745 1.427 . S
N1753 C1751 1.384 . S
H1754 C1760 0.930 . S
H1755 C1764 0.930 . S
H1756 C1769 0.929 . S
H1757 C1767 0.929 . S
H1758 C1762 0.929 . S
H1759 C1768 0.929 . S
C1760 H1754 0.930 . S
C1760 C1761 1.367 . S
C1760 C1768 1.378 . S
C1761 C1760 1.367 . S
C1761 C1769 1.433 . S
C1762 H1758 0.929 . S
C1762 C1764 1.378 . S
C1762 C1766 1.350 . S
C1763 C1766 1.463 . S
C1763 C1768 1.350 . S
C1763 N1771 1.427 . S
C1764 H1755 0.930 . S
C1764 C1762 1.378 . S
C1764 C1765 1.367 . S
C1765 C1764 1.367 . S
C1765 C1767 1.433 . S
C1766 C1762 1.350 . S
C1766 C1763 1.463 . S
C1766 N1770 1.427 . S
C1767 H1757 0.929 . S
C1767 C1765 1.433 . S
C1767 N1770 1.384 . S
C1768 H1759 0.929 . S
C1768 C1760 1.378 . S
C1768 C1763 1.350 . S
C1769 H1756 0.929 . S
C1769 C1761 1.433 . S
C1769 N1771 1.384 . S
N1770 C1766 1.427 . S
N1770 C1767 1.384 . S
N1771 C1763 1.427 . S
N1771 C1769 1.384 . S
H1772 C1778 0.930 . S
H1773 C1782 0.930 . S
H1774 C1787 0.929 . S
H1775 C1785 0.929 . S
H1776 C1780 0.929 . S
H1777 C1786 0.929 . S
C1778 H1772 0.930 . S
C1778 C1779 1.367 . S
C1778 C1786 1.378 . S
C1779 C1778 1.367 . S
C1779 C1787 1.433 . S
C1780 H1776 0.929 . S
C1780 C1782 1.378 . S
C1780 C1784 1.350 . S
C1781 C1784 1.463 . S
C1781 C1786 1.350 . S
C1781 N1789 1.427 . S
C1782 H1773 0.930 . S
C1782 C1780 1.378 . S
C1782 C1783 1.367 . S
C1783 C1782 1.367 . S
C1783 C1785 1.433 . S
C1784 C1780 1.350 . S
C1784 C1781 1.463 . S
C1784 N1788 1.427 . S
C1785 H1775 0.929 . S
C1785 C1783 1.433 . S
C1785 N1788 1.384 . S
C1786 H1777 0.929 . S
C1786 C1778 1.378 . S
C1786 C1781 1.350 . S
C1787 H1774 0.929 . S
C1787 C1779 1.433 . S
C1787 N1789 1.384 . S
N1788 C1784 1.427 . S
N1788 C1785 1.384 . S
N1789 C1781 1.427 . S
N1789 C1787 1.384 . S
H1790 C1796 0.930 . S
H1791 C1800 0.930 . S
H1792 C1805 0.929 . S
H1793 C1803 0.929 . S
H1794 C1798 0.929 . S
H1795 C1804 0.929 . S
C1796 H1790 0.930 . S
C1796 C1797 1.367 . S
C1796 C1804 1.378 . S
C1797 C1796 1.367 . S
C1797 C1805 1.433 . S
C1798 H1794 0.929 . S
C1798 C1800 1.378 . S
C1798 C1802 1.350 . S
C1799 C1802 1.463 . S
C1799 C1804 1.350 . S
C1799 N1807 1.427 . S
C1800 H1791 0.930 . S
C1800 C1798 1.378 . S
C1800 C1801 1.367 . S
C1801 C1800 1.367 . S
C1801 C1803 1.433 . S
C1802 C1798 1.350 . S
C1802 C1799 1.463 . S
C1802 N1806 1.427 . S
C1803 H1793 0.929 . S
C1803 C1801 1.433 . S
C1803 N1806 1.384 . S
C1804 H1795 0.929 . S
C1804 C1796 1.378 . S
C1804 C1799 1.350 . S
C1805 H1792 0.929 . S
C1805 C1797 1.433 . S
C1805 N1807 1.384 . S
N1806 C1802 1.427 . S
N1806 C1803 1.384 . S
N1807 C1799 1.427 . S
N1807 C1805 1.384 . S
H1808 C1814 0.930 . S
H1809 C1818 0.930 . S
H1810 C1823 0.929 . S
H1811 C1821 0.929 . S
H1812 C1816 0.929 . S
H1813 C1822 0.929 . S
C1814 H1808 0.930 . S
C1814 C1815 1.367 . S
C1814 C1822 1.378 . S
C1815 C1814 1.367 . S
C1815 C1823 1.433 . S
C1816 H1812 0.929 . S
C1816 C1818 1.378 . S
C1816 C1820 1.350 . S
C1817 C1820 1.463 . S
C1817 C1822 1.350 . S
C1817 N1825 1.427 . S
C1818 H1809 0.930 . S
C1818 C1816 1.378 . S
C1818 C1819 1.367 . S
C1819 C1818 1.367 . S
C1819 C1821 1.433 . S
C1820 C1816 1.350 . S
C1820 C1817 1.463 . S
C1820 N1824 1.427 . S
C1821 H1811 0.929 . S
C1821 C1819 1.433 . S
C1821 N1824 1.384 . S
C1822 H1813 0.929 . S
C1822 C1814 1.378 . S
C1822 C1817 1.350 . S
C1823 H1810 0.929 . S
C1823 C1815 1.433 . S
C1823 N1825 1.384 . S
N1824 C1820 1.427 . S
N1824 C1821 1.384 . S
N1825 C1817 1.427 . S
N1825 C1823 1.384 . S
H1826 C1832 0.930 . S
H1827 C1836 0.930 . S
H1828 C1841 0.929 . S
H1829 C1839 0.929 . S
H1830 C1834 0.929 . S
H1831 C1840 0.929 . S
C1832 H1826 0.930 . S
C1832 C1833 1.367 . S
C1832 C1840 1.378 . S
C1833 C1832 1.367 . S
C1833 C1841 1.433 . S
C1834 H1830 0.929 . S
C1834 C1836 1.378 . S
C1834 C1838 1.350 . S
C1835 C1838 1.463 . S
C1835 C1840 1.350 . S
C1835 N1843 1.427 . S
C1836 H1827 0.930 . S
C1836 C1834 1.378 . S
C1836 C1837 1.367 . S
C1837 C1836 1.367 . S
C1837 C1839 1.433 . S
C1838 C1834 1.350 . S
C1838 C1835 1.463 . S
C1838 N1842 1.427 . S
C1839 H1829 0.929 . S
C1839 C1837 1.433 . S
C1839 N1842 1.384 . S
C1840 H1831 0.929 . S
C1840 C1832 1.378 . S
C1840 C1835 1.350 . S
C1841 H1828 0.929 . S
C1841 C1833 1.433 . S
C1841 N1843 1.384 . S
N1842 C1838 1.427 . S
N1842 C1839 1.384 . S
N1843 C1835 1.427 . S
N1843 C1841 1.384 . S
H1844 C1850 0.930 . S
H1845 C1854 0.930 . S
H1846 C1859 0.929 . S
H1847 C1857 0.929 . S
H1848 C1852 0.929 . S
H1849 C1858 0.929 . S
C1850 H1844 0.930 . S
C1850 C1851 1.367 . S
C1850 C1858 1.378 . S
C1851 C1850 1.367 . S
C1851 C1859 1.433 . S
C1852 H1848 0.929 . S
C1852 C1854 1.378 . S
C1852 C1856 1.350 . S
C1853 C1856 1.463 . S
C1853 C1858 1.350 . S
C1853 N1861 1.427 . S
C1854 H1845 0.930 . S
C1854 C1852 1.378 . S
C1854 C1855 1.367 . S
C1855 C1854 1.367 . S
C1855 C1857 1.433 . S
C1856 C1852 1.350 . S
C1856 C1853 1.463 . S
C1856 N1860 1.427 . S
C1857 H1847 0.929 . S
C1857 C1855 1.433 . S
C1857 N1860 1.384 . S
C1858 H1849 0.929 . S
C1858 C1850 1.378 . S
C1858 C1853 1.350 . S
C1859 H1846 0.929 . S
C1859 C1851 1.433 . S
C1859 N1861 1.384 . S
N1860 C1856 1.427 . S
N1860 C1857 1.384 . S
N1861 C1853 1.427 . S
N1861 C1859 1.384 . S
H1862 C1868 0.930 1_556 S
H1863 C1872 0.930 . S
H1864 C1877 0.929 . S
H1865 C1875 0.943 . S
H1866 C1870 0.929 . S
H1867 C1876 0.929 1_556 S
C1868 H1862 0.930 1_554 S
C1868 C1869 1.367 . S
C1868 C1876 1.378 . S
C1869 C1868 1.367 . S
C1869 C1877 1.433 . S
C1870 H1866 0.929 . S
C1870 C1872 1.378 . S
C1870 C1874 1.350 . S
C1871 C1874 1.463 . S
C1871 C1876 1.350 . S
C1871 N1879 1.427 . S
C1872 H1863 0.930 . S
C1872 C1870 1.378 . S
C1872 C1873 1.367 . S
C1873 C1872 1.367 . S
C1873 C1875 1.433 . S
C1874 C1870 1.350 . S
C1874 C1871 1.463 . S
C1874 N1878 1.427 . S
C1875 H1865 0.943 . S
C1875 C1873 1.433 . S
C1875 N1878 1.384 . S
C1876 H1867 0.929 1_554 S
C1876 C1868 1.378 . S
C1876 C1871 1.350 . S
C1877 H1864 0.929 . S
C1877 C1869 1.433 . S
C1877 N1879 1.384 . S
N1878 C1874 1.427 . S
N1878 C1875 1.384 . S
N1879 C1871 1.427 . S
N1879 C1877 1.384 . S
H1880 C1886 0.930 . S
H1881 C1890 0.930 . S
H1882 C1895 0.929 . S
H1883 C1893 0.929 . S
H1884 C1888 0.929 . S
H1885 C1894 0.929 . S
C1886 H1880 0.930 . S
C1886 C1887 1.367 . S
C1886 C1894 1.378 . S
C1887 C1886 1.367 . S
C1887 C1895 1.433 . S
C1888 H1884 0.929 . S
C1888 C1890 1.378 . S
C1888 C1892 1.350 . S
C1889 C1892 1.463 . S
C1889 C1894 1.350 . S
C1889 N1897 1.427 . S
C1890 H1881 0.930 . S
C1890 C1888 1.378 . S
C1890 C1891 1.367 . S
C1891 C1890 1.367 . S
C1891 C1893 1.433 . S
C1892 C1888 1.350 . S
C1892 C1889 1.463 . S
C1892 N1896 1.427 . S
C1893 H1883 0.929 . S
C1893 C1891 1.433 . S
C1893 N1896 1.384 . S
C1894 H1885 0.929 . S
C1894 C1886 1.378 . S
C1894 C1889 1.350 . S
C1895 H1882 0.929 . S
C1895 C1887 1.433 . S
C1895 N1897 1.384 . S
N1896 C1892 1.427 . S
N1896 C1893 1.384 . S
N1897 C1889 1.427 . S
N1897 C1895 1.384 . S
H1898 C1904 0.930 . S
H1899 C1908 0.930 . S
H1900 C1913 0.929 . S
H1901 C1911 0.929 . S
H1902 C1906 0.929 1_556 S
H1903 C1912 0.929 . S
C1904 H1898 0.930 . S
C1904 C1905 1.367 . S
C1904 C1912 1.378 . S
C1905 C1904 1.367 . S
C1905 C1913 1.433 1_554 S
C1906 H1902 0.929 1_554 S
C1906 C1908 1.378 . S
C1906 C1910 1.350 . S
C1907 C1910 1.463 . S
C1907 C1912 1.350 . S
C1907 N1915 1.427 . S
C1908 H1899 0.930 . S
C1908 C1906 1.378 . S
C1908 C1909 1.367 . S
C1909 C1908 1.367 . S
C1909 C1911 1.433 . S
C1910 C1906 1.350 . S
C1910 C1907 1.463 . S
C1910 N1914 1.427 . S
C1911 H1901 0.929 . S
C1911 C1909 1.433 . S
C1911 N1914 1.384 . S
C1912 H1903 0.929 . S
C1912 C1904 1.378 . S
C1912 C1907 1.350 . S
C1913 H1900 0.929 . S
C1913 C1905 1.433 1_556 S
C1913 N1915 1.384 1_556 S
N1914 C1910 1.427 . S
N1914 C1911 1.384 . S
N1915 C1907 1.427 . S
N1915 C1913 1.384 1_554 S
H1916 C1922 0.930 . S
H1917 C1926 0.930 . S
H1918 C1931 0.929 . S
H1919 C1929 0.929 . S
H1920 C1924 0.929 . S
H1921 C1930 0.929 . S
C1922 H1916 0.930 . S
C1922 C1923 1.367 . S
C1922 C1930 1.378 . S
C1923 C1922 1.367 . S
C1923 C1931 1.433 . S
C1924 H1920 0.929 . S
C1924 C1926 1.378 . S
C1924 C1928 1.350 . S
C1925 C1928 1.463 . S
C1925 C1930 1.350 . S
C1925 N1933 1.427 . S
C1926 H1917 0.930 . S
C1926 C1924 1.378 . S
C1926 C1927 1.367 . S
C1927 C1926 1.367 . S
C1927 C1929 1.433 . S
C1928 C1924 1.350 . S
C1928 C1925 1.463 . S
C1928 N1932 1.427 . S
C1929 H1919 0.929 . S
C1929 C1927 1.433 . S
C1929 N1932 1.384 . S
C1930 H1921 0.929 . S
C1930 C1922 1.378 . S
C1930 C1925 1.350 . S
C1931 H1918 0.929 . S
C1931 C1923 1.433 . S
C1931 N1933 1.384 . S
N1932 C1928 1.427 . S
N1932 C1929 1.384 . S
N1933 C1925 1.427 . S
N1933 C1931 1.384 . S
H1934 C1940 0.930 . S
H1935 C1944 0.930 . S
H1936 C1949 0.929 . S
H1937 C1947 0.929 . S
H1938 C1942 0.929 . S
H1939 C1948 0.929 . S
C1940 H1934 0.930 . S
C1940 C1941 1.367 . S
C1940 C1948 1.378 . S
C1941 C1940 1.367 . S
C1941 C1949 1.433 . S
C1942 H1938 0.929 . S
C1942 C1944 1.378 . S
C1942 C1946 1.350 . S
C1943 C1946 1.463 . S
C1943 C1948 1.350 . S
C1943 N1951 1.427 . S
C1944 H1935 0.930 . S
C1944 C1942 1.378 . S
C1944 C1945 1.367 . S
C1945 C1944 1.367 . S
C1945 C1947 1.433 . S
C1946 C1942 1.350 . S
C1946 C1943 1.463 . S
C1946 N1950 1.427 . S
C1947 H1937 0.929 . S
C1947 C1945 1.433 . S
C1947 N1950 1.384 . S
C1948 H1939 0.929 . S
C1948 C1940 1.378 . S
C1948 C1943 1.350 . S
C1949 H1936 0.929 . S
C1949 C1941 1.433 . S
C1949 N1951 1.384 . S
N1950 C1946 1.427 . S
N1950 C1947 1.384 . S
N1951 C1943 1.427 . S
N1951 C1949 1.384 . S
H1952 C1958 0.930 . S
H1953 C1962 0.930 . S
H1954 C1967 0.929 . S
H1955 C1965 0.929 . S
H1956 C1960 0.929 . S
H1957 C1966 0.929 . S
C1958 H1952 0.930 . S
C1958 C1959 1.367 . S
C1958 C1966 1.378 . S
C1959 C1958 1.367 . S
C1959 C1967 1.433 . S
C1960 H1956 0.929 . S
C1960 C1962 1.378 . S
C1960 C1964 1.350 . S
C1961 C1964 1.463 . S
C1961 C1966 1.350 . S
C1961 N1969 1.427 . S
C1962 H1953 0.930 . S
C1962 C1960 1.378 . S
C1962 C1963 1.367 . S
C1963 C1962 1.367 . S
C1963 C1965 1.433 . S
C1964 C1960 1.350 . S
C1964 C1961 1.463 . S
C1964 N1968 1.427 . S
C1965 H1955 0.929 . S
C1965 C1963 1.433 . S
C1965 N1968 1.384 . S
C1966 H1957 0.929 . S
C1966 C1958 1.378 . S
C1966 C1961 1.350 . S
C1967 H1954 0.929 . S
C1967 C1959 1.433 . S
C1967 N1969 1.384 . S
N1968 C1964 1.427 . S
N1968 C1965 1.384 . S
N1969 C1961 1.427 . S
N1969 C1967 1.384 . S
H1970 C1976 0.930 . S
H1971 C1980 0.930 . S
H1972 C1985 0.929 . S
H1973 C1983 0.929 . S
H1974 C1978 0.929 . S
H1975 C1984 0.929 . S
C1976 H1970 0.930 . S
C1976 C1977 1.367 . S
C1976 C1984 1.378 . S
C1977 C1976 1.367 . S
C1977 C1985 1.433 . S
C1978 H1974 0.929 . S
C1978 C1980 1.378 . S
C1978 C1982 1.350 . S
C1979 C1982 1.463 . S
C1979 C1984 1.350 . S
C1979 N1987 1.427 . S
C1980 H1971 0.930 . S
C1980 C1978 1.378 . S
C1980 C1981 1.367 . S
C1981 C1980 1.367 . S
C1981 C1983 1.433 . S
C1982 C1978 1.350 . S
C1982 C1979 1.463 . S
C1982 N1986 1.427 . S
C1983 H1973 0.929 . S
C1983 C1981 1.433 . S
C1983 N1986 1.384 . S
C1984 H1975 0.929 . S
C1984 C1976 1.378 . S
C1984 C1979 1.350 . S
C1985 H1972 0.929 . S
C1985 C1977 1.433 . S
C1985 N1987 1.384 . S
N1986 C1982 1.427 . S
N1986 C1983 1.384 . S
N1987 C1979 1.427 . S
N1987 C1985 1.384 . S
H1988 C1994 0.930 . S
H1989 C1998 0.930 . S
H1990 C2003 0.929 . S
H1991 C2001 0.929 . S
H1992 C1996 0.929 . S
H1993 C2002 0.929 . S
C1994 H1988 0.930 . S
C1994 C1995 1.367 . S
C1994 C2002 1.378 . S
C1995 C1994 1.367 . S
C1995 C2003 1.433 . S
C1996 H1992 0.929 . S
C1996 C1998 1.378 . S
C1996 C2000 1.350 . S
C1997 C2000 1.463 . S
C1997 C2002 1.350 . S
C1997 N2005 1.427 . S
C1998 H1989 0.930 . S
C1998 C1996 1.378 . S
C1998 C1999 1.367 . S
C1999 C1998 1.367 . S
C1999 C2001 1.433 . S
C2000 C1996 1.350 . S
C2000 C1997 1.463 . S
C2000 N2004 1.427 . S
C2001 H1991 0.929 . S
C2001 C1999 1.433 . S
C2001 N2004 1.384 . S
C2002 H1993 0.929 . S
C2002 C1994 1.378 . S
C2002 C1997 1.350 . S
C2003 H1990 0.929 . S
C2003 C1995 1.433 . S
C2003 N2005 1.384 . S
N2004 C2000 1.427 . S
N2004 C2001 1.384 . S
N2005 C1997 1.427 . S
N2005 C2003 1.384 . S
H2006 C2012 0.930 . S
H2007 C2016 0.930 . S
H2008 C2021 0.929 . S
H2009 C2019 0.929 . S
H2010 C2014 0.929 . S
H2011 C2020 0.929 . S
C2012 H2006 0.930 . S
C2012 C2013 1.367 . S
C2012 C2020 1.378 . S
C2013 C2012 1.367 . S
C2013 C2021 1.433 . S
C2014 H2010 0.929 . S
C2014 C2016 1.378 . S
C2014 C2018 1.350 . S
C2015 C2018 1.463 . S
C2015 C2020 1.350 . S
C2015 N2023 1.427 . S
C2016 H2007 0.930 . S
C2016 C2014 1.378 . S
C2016 C2017 1.367 . S
C2017 C2016 1.367 . S
C2017 C2019 1.433 . S
C2018 C2014 1.350 . S
C2018 C2015 1.463 . S
C2018 N2022 1.427 . S
C2019 H2009 0.929 . S
C2019 C2017 1.433 . S
C2019 N2022 1.384 . S
C2020 H2011 0.929 . S
C2020 C2012 1.378 . S
C2020 C2015 1.350 . S
C2021 H2008 0.929 . S
C2021 C2013 1.433 . S
C2021 N2023 1.384 . S
N2022 C2018 1.427 . S
N2022 C2019 1.384 . S
N2023 C2015 1.427 . S
N2023 C2021 1.384 . S
H2024 C2030 0.930 . S
H2025 C2034 0.930 . S
H2026 C2039 0.929 . S
H2027 C2037 0.929 . S
H2028 C2032 0.929 . S
H2029 C2038 0.929 . S
C2030 H2024 0.930 . S
C2030 C2031 1.367 . S
C2030 C2038 1.378 . S
C2031 C2030 1.367 . S
C2031 C2039 1.433 . S
C2032 H2028 0.929 . S
C2032 C2034 1.378 . S
C2032 C2036 1.350 . S
C2033 C2036 1.463 . S
C2033 C2038 1.350 . S
C2033 N2041 1.427 . S
C2034 H2025 0.930 . S
C2034 C2032 1.378 . S
C2034 C2035 1.367 . S
C2035 C2034 1.367 . S
C2035 C2037 1.433 1_556 S
C2036 C2032 1.350 . S
C2036 C2033 1.463 . S
C2036 N2040 1.427 . S
C2037 H2027 0.929 . S
C2037 C2035 1.433 1_554 S
C2037 N2040 1.384 1_554 S
C2038 H2029 0.929 . S
C2038 C2030 1.378 . S
C2038 C2033 1.350 . S
C2039 H2026 0.929 . S
C2039 C2031 1.433 . S
C2039 N2041 1.384 . S
N2040 C2036 1.427 . S
N2040 C2037 1.384 1_556 S
N2041 C2033 1.427 . S
N2041 C2039 1.384 . S
H2042 C2048 0.930 . S
H2043 C2052 0.930 . S
H2044 C2057 0.929 . S
H2045 C2055 0.929 . S
H2046 C2050 0.929 . S
H2047 C2056 0.929 . S
C2048 H2042 0.930 . S
C2048 C2049 1.367 . S
C2048 C2056 1.378 . S
C2049 C2048 1.367 . S
C2049 C2057 1.433 . S
C2050 H2046 0.929 . S
C2050 C2052 1.378 . S
C2050 C2054 1.350 . S
C2051 C2054 1.463 . S
C2051 C2056 1.350 . S
C2051 N2059 1.427 . S
C2052 H2043 0.930 . S
C2052 C2050 1.378 . S
C2052 C2053 1.367 . S
C2053 C2052 1.367 . S
C2053 C2055 1.433 . S
C2054 C2050 1.350 . S
C2054 C2051 1.463 . S
C2054 N2058 1.427 . S
C2055 H2045 0.929 . S
C2055 C2053 1.433 . S
C2055 N2058 1.384 . S
C2056 H2047 0.929 . S
C2056 C2048 1.378 . S
C2056 C2051 1.350 . S
C2057 H2044 0.929 . S
C2057 C2049 1.433 . S
C2057 N2059 1.384 . S
N2058 C2054 1.427 . S
N2058 C2055 1.384 . S
N2059 C2051 1.427 . S
N2059 C2057 1.384 . S
H2060 C2066 0.930 . S
H2061 C2070 0.930 1_655 S
H2062 C2075 0.929 . S
H2063 C2073 0.929 . S
H2064 C2068 0.915 1_655 S
H2065 C2074 0.929 . S
C2066 H2060 0.930 . S
C2066 C2067 1.367 . S
C2066 C2074 1.378 . S
C2067 C2066 1.367 . S
C2067 C2075 1.433 . S
C2068 H2064 0.915 1_455 S
C2068 C2070 1.378 . S
C2068 C2072 1.350 . S
C2069 C2072 1.463 . S
C2069 C2074 1.350 . S
C2069 N2077 1.427 . S
C2070 H2061 0.930 1_455 S
C2070 C2068 1.378 . S
C2070 C2071 1.367 . S
C2071 C2070 1.367 . S
C2071 C2073 1.433 . S
C2072 C2068 1.350 . S
C2072 C2069 1.463 . S
C2072 N2076 1.427 . S
C2073 H2063 0.929 . S
C2073 C2071 1.433 . S
C2073 N2076 1.384 . S
C2074 H2065 0.929 . S
C2074 C2066 1.378 . S
C2074 C2069 1.350 . S
C2075 H2062 0.929 . S
C2075 C2067 1.433 . S
C2075 N2077 1.384 . S
N2076 C2072 1.427 . S
N2076 C2073 1.384 . S
N2077 C2069 1.427 . S
N2077 C2075 1.384 . S
H2078 C2084 0.930 . S
H2079 C2088 0.930 . S
H2080 C2093 0.929 . S
H2081 C2091 0.929 . S
H2082 C2086 0.929 . S
H2083 C2092 0.929 . S
C2084 H2078 0.930 . S
C2084 C2085 1.367 . S
C2084 C2092 1.378 . S
C2085 C2084 1.367 . S
C2085 C2093 1.433 . S
C2086 H2082 0.929 . S
C2086 C2088 1.378 . S
C2086 C2090 1.350 . S
C2087 C2090 1.463 . S
C2087 C2092 1.350 . S
C2087 N2095 1.427 . S
C2088 H2079 0.930 . S
C2088 C2086 1.378 . S
C2088 C2089 1.367 . S
C2089 C2088 1.367 . S
C2089 C2091 1.433 . S
C2090 C2086 1.350 . S
C2090 C2087 1.463 . S
C2090 N2094 1.427 . S
C2091 H2081 0.929 . S
C2091 C2089 1.433 . S
C2091 N2094 1.384 . S
C2092 H2083 0.929 . S
C2092 C2084 1.378 . S
C2092 C2087 1.350 . S
C2093 H2080 0.929 . S
C2093 C2085 1.433 . S
C2093 N2095 1.384 . S
N2094 C2090 1.427 . S
N2094 C2091 1.384 . S
N2095 C2087 1.427 . S
N2095 C2093 1.384 . S
H2096 C2102 0.930 . S
H2097 C2106 0.930 . S
H2098 C2111 0.929 . S
H2099 C2109 0.929 . S
H2100 C2104 0.929 . S
H2101 C2110 0.929 . S
C2102 H2096 0.930 . S
C2102 C2103 1.367 . S
C2102 C2110 1.378 . S
C2103 C2102 1.367 . S
C2103 C2111 1.433 . S
C2104 H2100 0.929 . S
C2104 C2106 1.378 . S
C2104 C2108 1.350 . S
C2105 C2108 1.463 . S
C2105 C2110 1.350 . S
C2105 N2113 1.427 . S
C2106 H2097 0.930 . S
C2106 C2104 1.378 . S
C2106 C2107 1.367 . S
C2107 C2106 1.367 . S
C2107 C2109 1.433 . S
C2108 C2104 1.350 . S
C2108 C2105 1.463 . S
C2108 N2112 1.427 . S
C2109 H2099 0.929 . S
C2109 C2107 1.433 . S
C2109 N2112 1.384 . S
C2110 H2101 0.929 . S
C2110 C2102 1.378 . S
C2110 C2105 1.350 . S
C2111 H2098 0.929 . S
C2111 C2103 1.433 . S
C2111 N2113 1.384 . S
N2112 C2108 1.427 . S
N2112 C2109 1.384 . S
N2113 C2105 1.427 . S
N2113 C2111 1.384 . S
H2114 C2120 0.930 . S
H2115 C2124 0.930 . S
H2116 C2129 0.929 . S
H2117 C2127 0.929 . S
H2118 C2122 0.929 . S
H2119 C2128 0.929 . S
C2120 H2114 0.930 . S
C2120 C2121 1.367 . S
C2120 C2128 1.378 . S
C2121 C2120 1.367 . S
C2121 C2129 1.433 . S
C2122 H2118 0.929 . S
C2122 C2124 1.378 . S
C2122 C2126 1.350 . S
C2123 C2126 1.463 . S
C2123 C2128 1.350 . S
C2123 N2131 1.427 . S
C2124 H2115 0.930 . S
C2124 C2122 1.378 . S
C2124 C2125 1.367 . S
C2125 C2124 1.367 . S
C2125 C2127 1.433 . S
C2126 C2122 1.350 . S
C2126 C2123 1.463 . S
C2126 N2130 1.427 . S
C2127 H2117 0.929 . S
C2127 C2125 1.433 . S
C2127 N2130 1.384 . S
C2128 H2119 0.929 . S
C2128 C2120 1.378 . S
C2128 C2123 1.350 . S
C2129 H2116 0.929 . S
C2129 C2121 1.433 . S
C2129 N2131 1.384 . S
N2130 C2126 1.427 . S
N2130 C2127 1.384 . S
N2131 C2123 1.427 . S
N2131 C2129 1.384 . S
H2132 C2138 0.930 . S
H2133 C2142 0.930 . S
H2134 C2147 0.929 . S
H2135 C2145 0.929 . S
H2136 C2140 0.929 . S
H2137 C2146 0.929 . S
C2138 H2132 0.930 . S
C2138 C2139 1.367 . S
C2138 C2146 1.378 . S
C2139 C2138 1.367 . S
C2139 C2147 1.433 . S
C2140 H2136 0.929 . S
C2140 C2142 1.378 1_655 S
C2140 C2144 1.350 . S
C2141 C2144 1.463 . S
C2141 C2146 1.350 . S
C2141 N2149 1.427 . S
C2142 H2133 0.930 . S
C2142 C2140 1.378 1_455 S
C2142 C2143 1.367 1_455 S
C2143 C2142 1.367 1_655 S
C2143 C2145 1.433 . S
C2144 C2140 1.350 . S
C2144 C2141 1.463 . S
C2144 N2148 1.427 . S
C2145 H2135 0.929 . S
C2145 C2143 1.433 . S
C2145 N2148 1.384 . S
C2146 H2137 0.929 . S
C2146 C2138 1.378 . S
C2146 C2141 1.350 . S
C2147 H2134 0.929 . S
C2147 C2139 1.433 . S
C2147 N2149 1.384 . S
N2148 C2144 1.427 . S
N2148 C2145 1.384 . S
N2149 C2141 1.427 . S
N2149 C2147 1.384 . S
H2150 C2156 0.930 . S
H2151 C2160 0.930 . S
H2152 C2165 0.929 . S
H2153 C2163 0.929 . S
H2154 C2158 0.929 . S
H2155 C2164 0.929 . S
C2156 H2150 0.930 . S
C2156 C2157 1.367 . S
C2156 C2164 1.378 . S
C2157 C2156 1.367 . S
C2157 C2165 1.433 . S
C2158 H2154 0.929 . S
C2158 C2160 1.378 . S
C2158 C2162 1.350 . S
C2159 C2162 1.463 . S
C2159 C2164 1.350 . S
C2159 N2167 1.427 . S
C2160 H2151 0.930 . S
C2160 C2158 1.378 . S
C2160 C2161 1.367 . S
C2161 C2160 1.367 . S
C2161 C2163 1.433 . S
C2162 C2158 1.350 . S
C2162 C2159 1.463 . S
C2162 N2166 1.427 . S
C2163 H2153 0.929 . S
C2163 C2161 1.433 . S
C2163 N2166 1.384 . S
C2164 H2155 0.929 . S
C2164 C2156 1.378 . S
C2164 C2159 1.350 . S
C2165 H2152 0.929 . S
C2165 C2157 1.433 . S
C2165 N2167 1.384 . S
N2166 C2162 1.427 . S
N2166 C2163 1.384 . S
N2167 C2159 1.427 . S
N2167 C2165 1.384 . S
H2168 C2174 0.930 . S
H2169 C2178 0.930 . S
H2170 C2183 0.929 . S
H2171 C2181 0.929 . S
H2172 C2176 0.929 . S
H2173 C2182 0.929 . S
C2174 H2168 0.930 . S
C2174 C2175 1.367 . S
C2174 C2182 1.378 . S
C2175 C2174 1.367 . S
C2175 C2183 1.433 . S
C2176 H2172 0.929 . S
C2176 C2178 1.378 . S
C2176 C2180 1.350 . S
C2177 C2180 1.463 . S
C2177 C2182 1.350 . S
C2177 N2185 1.427 . S
C2178 H2169 0.930 . S
C2178 C2176 1.378 . S
C2178 C2179 1.367 . S
C2179 C2178 1.367 . S
C2179 C2181 1.433 . S
C2180 C2176 1.350 . S
C2180 C2177 1.463 . S
C2180 N2184 1.427 . S
C2181 H2171 0.929 . S
C2181 C2179 1.433 . S
C2181 N2184 1.384 . S
C2182 H2173 0.929 . S
C2182 C2174 1.378 . S
C2182 C2177 1.350 . S
C2183 H2170 0.929 . S
C2183 C2175 1.433 . S
C2183 N2185 1.384 . S
N2184 C2180 1.427 . S
N2184 C2181 1.384 . S
N2185 C2177 1.427 . S
N2185 C2183 1.384 . S
H2186 C2192 0.930 . S
H2187 C2196 0.930 . S
H2188 C2201 0.929 . S
H2189 C2199 0.929 . S
H2190 C2194 0.929 . S
H2191 C2200 0.929 . S
C2192 H2186 0.930 . S
C2192 C2193 1.367 . S
C2192 C2200 1.378 . S
C2193 C2192 1.367 . S
C2193 C2201 1.433 . S
C2194 H2190 0.929 . S
C2194 C2196 1.378 . S
C2194 C2198 1.350 . S
C2195 C2198 1.463 . S
C2195 C2200 1.350 . S
C2195 N2203 1.427 . S
C2196 H2187 0.930 . S
C2196 C2194 1.378 . S
C2196 C2197 1.367 . S
C2197 C2196 1.367 . S
C2197 C2199 1.433 . S
C2198 C2194 1.350 . S
C2198 C2195 1.463 . S
C2198 N2202 1.427 . S
C2199 H2189 0.929 . S
C2199 C2197 1.433 . S
C2199 N2202 1.384 . S
C2200 H2191 0.929 . S
C2200 C2192 1.378 . S
C2200 C2195 1.350 . S
C2201 H2188 0.929 . S
C2201 C2193 1.433 . S
C2201 N2203 1.384 . S
N2202 C2198 1.427 . S
N2202 C2199 1.384 . S
N2203 C2195 1.427 . S
N2203 C2201 1.384 . S
H2204 C2210 0.930 . S
H2205 C2214 0.930 . S
H2206 C2219 0.929 . S
H2207 C2217 0.929 . S
H2208 C2212 0.929 . S
H2209 C2218 0.929 . S
C2210 H2204 0.930 . S
C2210 C2211 1.367 . S
C2210 C2218 1.378 . S
C2211 C2210 1.367 . S
C2211 C2219 1.433 . S
C2212 H2208 0.929 . S
C2212 C2214 1.378 . S
C2212 C2216 1.350 . S
C2213 C2216 1.463 . S
C2213 C2218 1.350 . S
C2213 N2221 1.427 . S
C2214 H2205 0.930 . S
C2214 C2212 1.378 . S
C2214 C2215 1.367 . S
C2215 C2214 1.367 . S
C2215 C2217 1.433 . S
C2216 C2212 1.350 . S
C2216 C2213 1.463 . S
C2216 N2220 1.427 . S
C2217 H2207 0.929 . S
C2217 C2215 1.433 . S
C2217 N2220 1.384 . S
C2218 H2209 0.929 . S
C2218 C2210 1.378 . S
C2218 C2213 1.350 . S
C2219 H2206 0.929 . S
C2219 C2211 1.433 . S
C2219 N2221 1.384 . S
N2220 C2216 1.427 . S
N2220 C2217 1.384 . S
N2221 C2213 1.427 . S
N2221 C2219 1.384 . S
H2222 C2228 0.930 . S
H2223 C2232 0.930 . S
H2224 C2237 0.929 . S
H2225 C2235 0.929 . S
H2226 C2230 0.929 . S
H2227 C2236 0.929 . S
C2228 H2222 0.930 . S
C2228 C2229 1.367 . S
C2228 C2236 1.378 . S
C2229 C2228 1.367 . S
C2229 C2237 1.433 . S
C2230 H2226 0.929 . S
C2230 C2232 1.378 . S
C2230 C2234 1.350 . S
C2231 C2234 1.463 . S
C2231 C2236 1.350 . S
C2231 N2239 1.427 . S
C2232 H2223 0.930 . S
C2232 C2230 1.378 . S
C2232 C2233 1.367 . S
C2233 C2232 1.367 . S
C2233 C2235 1.433 . S
C2234 C2230 1.350 . S
C2234 C2231 1.463 . S
C2234 N2238 1.427 . S
C2235 H2225 0.929 . S
C2235 C2233 1.433 . S
C2235 N2238 1.384 . S
C2236 H2227 0.929 . S
C2236 C2228 1.378 . S
C2236 C2231 1.350 . S
C2237 H2224 0.929 . S
C2237 C2229 1.433 . S
C2237 N2239 1.384 . S
N2238 C2234 1.427 . S
N2238 C2235 1.384 . S
N2239 C2231 1.427 . S
N2239 C2237 1.384 . S
H2240 C2246 0.930 . S
H2241 C2250 0.930 . S
H2242 C2255 0.929 . S
H2243 C2253 0.929 . S
H2244 C2248 0.929 . S
H2245 C2254 0.929 . S
C2246 H2240 0.930 . S
C2246 C2247 1.367 . S
C2246 C2254 1.378 . S
C2247 C2246 1.367 . S
C2247 C2255 1.433 . S
C2248 H2244 0.929 . S
C2248 C2250 1.378 . S
C2248 C2252 1.350 . S
C2249 C2252 1.463 . S
C2249 C2254 1.350 . S
C2249 N2257 1.427 . S
C2250 H2241 0.930 . S
C2250 C2248 1.378 . S
C2250 C2251 1.367 . S
C2251 C2250 1.367 . S
C2251 C2253 1.433 . S
C2252 C2248 1.350 . S
C2252 C2249 1.463 . S
C2252 N2256 1.427 . S
C2253 H2243 0.929 . S
C2253 C2251 1.433 . S
C2253 N2256 1.384 . S
C2254 H2245 0.929 . S
C2254 C2246 1.378 . S
C2254 C2249 1.350 . S
C2255 H2242 0.929 . S
C2255 C2247 1.433 . S
C2255 N2257 1.384 . S
N2256 C2252 1.427 . S
N2256 C2253 1.384 . S
N2257 C2249 1.427 . S
N2257 C2255 1.384 . S
H2258 C2264 0.930 . S
H2259 C2268 0.930 1_545 S
H2260 C2273 0.929 . S
H2261 C2271 0.929 . S
H2262 C2266 0.929 . S
H2263 C2272 0.929 . S
C2264 H2258 0.930 . S
C2264 C2265 1.367 . S
C2264 C2272 1.378 . S
C2265 C2264 1.367 . S
C2265 C2273 1.433 . S
C2266 H2262 0.929 . S
C2266 C2268 1.378 . S
C2266 C2270 1.350 . S
C2267 C2270 1.463 . S
C2267 C2272 1.350 . S
C2267 N2275 1.427 . S
C2268 H2259 0.930 1_565 S
C2268 C2266 1.378 . S
C2268 C2269 1.367 . S
C2269 C2268 1.367 . S
C2269 C2271 1.433 . S
C2270 C2266 1.350 . S
C2270 C2267 1.463 . S
C2270 N2274 1.427 . S
C2271 H2261 0.929 . S
C2271 C2269 1.433 . S
C2271 N2274 1.384 . S
C2272 H2263 0.929 . S
C2272 C2264 1.378 . S
C2272 C2267 1.350 . S
C2273 H2260 0.929 . S
C2273 C2265 1.433 . S
C2273 N2275 1.384 . S
N2274 C2270 1.427 . S
N2274 C2271 1.384 . S
N2275 C2267 1.427 . S
N2275 C2273 1.384 . S
H2276 C2282 0.930 . S
H2277 C2286 0.930 . S
H2278 C2291 0.929 . S
H2279 C2289 0.929 . S
H2280 C2284 0.929 . S
H2281 C2290 0.929 . S
C2282 H2276 0.930 . S
C2282 C2283 1.367 . S
C2282 C2290 1.378 . S
C2283 C2282 1.367 . S
C2283 C2291 1.433 . S
C2284 H2280 0.929 . S
C2284 C2286 1.378 . S
C2284 C2288 1.350 . S
C2285 C2288 1.463 . S
C2285 C2290 1.350 . S
C2285 N2293 1.427 . S
C2286 H2277 0.930 . S
C2286 C2284 1.378 . S
C2286 C2287 1.367 . S
C2287 C2286 1.367 . S
C2287 C2289 1.433 . S
C2288 C2284 1.350 . S
C2288 C2285 1.463 . S
C2288 N2292 1.427 . S
C2289 H2279 0.929 . S
C2289 C2287 1.433 . S
C2289 N2292 1.384 . S
C2290 H2281 0.929 . S
C2290 C2282 1.378 . S
C2290 C2285 1.350 . S
C2291 H2278 0.929 . S
C2291 C2283 1.433 . S
C2291 N2293 1.384 . S
N2292 C2288 1.427 . S
N2292 C2289 1.384 . S
N2293 C2285 1.427 . S
N2293 C2291 1.384 . S
H2294 C2300 0.930 . S
H2295 C2304 0.930 . S
H2296 C2309 0.929 . S
H2297 C2307 0.929 . S
H2298 C2302 0.929 . S
H2299 C2308 0.929 . S
C2300 H2294 0.930 . S
C2300 C2301 1.367 . S
C2300 C2308 1.378 . S
C2301 C2300 1.367 . S
C2301 C2309 1.433 . S
C2302 H2298 0.929 . S
C2302 C2304 1.378 . S
C2302 C2306 1.350 . S
C2303 C2306 1.463 . S
C2303 C2308 1.350 . S
C2303 N2311 1.427 . S
C2304 H2295 0.930 . S
C2304 C2302 1.378 . S
C2304 C2305 1.367 . S
C2305 C2304 1.367 . S
C2305 C2307 1.433 . S
C2306 C2302 1.350 . S
C2306 C2303 1.463 . S
C2306 N2310 1.427 . S
C2307 H2297 0.929 . S
C2307 C2305 1.433 . S
C2307 N2310 1.384 . S
C2308 H2299 0.929 . S
C2308 C2300 1.378 . S
C2308 C2303 1.350 . S
C2309 H2296 0.929 . S
C2309 C2301 1.433 . S
C2309 N2311 1.384 . S
N2310 C2306 1.427 . S
N2310 C2307 1.384 . S
N2311 C2303 1.427 . S
N2311 C2309 1.384 . S
H2312 C2318 0.930 . S
H2313 C2322 0.930 . S
H2314 C2327 0.929 . S
H2315 C2325 0.929 . S
H2316 C2320 0.929 . S
H2317 C2326 0.929 . S
C2318 H2312 0.930 . S
C2318 C2319 1.367 . S
C2318 C2326 1.378 . S
C2319 C2318 1.367 . S
C2319 C2327 1.433 . S
C2320 H2316 0.929 . S
C2320 C2322 1.378 . S
C2320 C2324 1.350 . S
C2321 C2324 1.463 . S
C2321 C2326 1.350 . S
C2321 N2329 1.427 . S
C2322 H2313 0.930 . S
C2322 C2320 1.378 . S
C2322 C2323 1.367 . S
C2323 C2322 1.367 . S
C2323 C2325 1.433 . S
C2324 C2320 1.350 . S
C2324 C2321 1.463 . S
C2324 N2328 1.427 . S
C2325 H2315 0.929 . S
C2325 C2323 1.433 . S
C2325 N2328 1.384 . S
C2326 H2317 0.929 . S
C2326 C2318 1.378 . S
C2326 C2321 1.350 . S
C2327 H2314 0.929 . S
C2327 C2319 1.433 . S
C2327 N2329 1.384 . S
N2328 C2324 1.427 . S
N2328 C2325 1.384 . S
N2329 C2321 1.427 . S
N2329 C2327 1.384 . S
H2330 C2336 0.930 . S
H2331 C2340 0.930 . S
H2332 C2345 0.929 . S
H2333 C2343 0.929 1_556 S
H2334 C2338 0.929 . S
H2335 C2344 0.929 . S
C2336 H2330 0.930 . S
C2336 C2337 1.367 . S
C2336 C2344 1.378 . S
C2337 C2336 1.367 . S
C2337 C2345 1.433 . S
C2338 H2334 0.929 . S
C2338 C2340 1.378 . S
C2338 C2342 1.350 . S
C2339 C2342 1.463 . S
C2339 C2344 1.350 . S
C2339 N2347 1.427 . S
C2340 H2331 0.930 . S
C2340 C2338 1.378 . S
C2340 C2341 1.367 . S
C2341 C2340 1.367 . S
C2341 C2343 1.433 . S
C2342 C2338 1.350 . S
C2342 C2339 1.463 . S
C2342 N2346 1.427 . S
C2343 H2333 0.929 1_554 S
C2343 C2341 1.433 . S
C2343 N2346 1.384 . S
C2344 H2335 0.929 . S
C2344 C2336 1.378 . S
C2344 C2339 1.350 . S
C2345 H2332 0.929 . S
C2345 C2337 1.433 . S
C2345 N2347 1.384 . S
N2346 C2342 1.427 . S
N2346 C2343 1.384 . S
N2347 C2339 1.427 . S
N2347 C2345 1.384 . S
H2348 C2354 0.930 . S
H2349 C2358 0.930 . S
H2350 C2363 0.929 . S
H2351 C2361 0.929 . S
H2352 C2356 0.929 . S
H2353 C2362 0.929 . S
C2354 H2348 0.930 . S
C2354 C2355 1.367 . S
C2354 C2362 1.378 . S
C2355 C2354 1.367 . S
C2355 C2363 1.433 . S
C2356 H2352 0.929 . S
C2356 C2358 1.378 . S
C2356 C2360 1.350 . S
C2357 C2360 1.463 . S
C2357 C2362 1.350 . S
C2357 N2365 1.427 . S
C2358 H2349 0.930 . S
C2358 C2356 1.378 . S
C2358 C2359 1.367 . S
C2359 C2358 1.367 . S
C2359 C2361 1.433 . S
C2360 C2356 1.350 . S
C2360 C2357 1.463 . S
C2360 N2364 1.427 . S
C2361 H2351 0.929 . S
C2361 C2359 1.433 . S
C2361 N2364 1.384 . S
C2362 H2353 0.929 . S
C2362 C2354 1.378 . S
C2362 C2357 1.350 . S
C2363 H2350 0.929 . S
C2363 C2355 1.433 . S
C2363 N2365 1.384 . S
N2364 C2360 1.427 . S
N2364 C2361 1.384 . S
N2365 C2357 1.427 . S
N2365 C2363 1.384 . S
H2366 C2372 0.930 . S
H2367 C2376 0.930 . S
H2368 C2381 0.929 . S
H2369 C2379 0.929 . S
H2370 C2374 0.929 . S
H2371 C2380 0.929 . S
C2372 H2366 0.930 . S
C2372 C2373 1.367 . S
C2372 C2380 1.378 . S
C2373 C2372 1.367 . S
C2373 C2381 1.433 . S
C2374 H2370 0.929 . S
C2374 C2376 1.378 . S
C2374 C2378 1.350 . S
C2375 C2378 1.463 . S
C2375 C2380 1.350 . S
C2375 N2383 1.427 . S
C2376 H2367 0.930 . S
C2376 C2374 1.378 . S
C2376 C2377 1.367 . S
C2377 C2376 1.367 . S
C2377 C2379 1.433 . S
C2378 C2374 1.350 . S
C2378 C2375 1.463 . S
C2378 N2382 1.427 . S
C2379 H2369 0.929 . S
C2379 C2377 1.433 . S
C2379 N2382 1.384 . S
C2380 H2371 0.929 . S
C2380 C2372 1.378 . S
C2380 C2375 1.350 . S
C2381 H2368 0.929 . S
C2381 C2373 1.433 . S
C2381 N2383 1.384 . S
N2382 C2378 1.427 . S
N2382 C2379 1.384 . S
N2383 C2375 1.427 . S
N2383 C2381 1.384 . S
C663 C106 1.791 . S
C667 C340 1.539 1_556 S
C681 C65 1.479 . S
C685 C375 1.443 . S
C699 C79 1.480 . S
C703 C380 1.335 . S
C721 C405 1.176 . S
C717 C90 1.213 . S
C735 C21 1.235 . S
C739 C425 1.188 . S
C757 C440 1.020 . S
C753 C35 1.096 . S
C775 C475 1.511 . S
C771 C50 1.545 . S
C789 C6 1.407 . S
C793 C480 1.256 . S
C811 C355 1.758 1_655 S
C807 C232 1.857 . S
C825 C245 1.024 . S
C829 C365 0.997 . S
C847 C395 1.447 . S
C843 C274 1.509 . S
C865 C400 1.119 . S
C861 C175 1.191 . S
C879 C231 1.058 . S
C883 C420 1.018 . S
C901 C455 1.365 . S
C897 C246 1.418 . S
C919 C465 0.888 . S
C915 C273 0.901 . S
C937 C495 1.680 . S
C933 C176 1.787 . S
C955 C345 1.347 . S
C951 C160 1.445 . S
C969 C289 1.741 1_554 S
C973 C515 1.695 . S
C991 C525 1.439 . S
C987 C328 1.500 . S
C1009 C540 1.133 . S
C1005 C317 1.239 . S
C1023 C118 1.414 . S
C1027 C485 1.312 . S
C1041 C132 1.500 . S
C1045 C385 1.438 . S
C1059 C331 1.813 . S
C1063 C575 1.783 . S
C1081 C580 1.174 . S
C1077 C303 1.275 . S
C1099 C338 1.183 . S
C1095 C63 1.334 . S
C1117 C594 1.820 . S
C1113 C107 1.817 . S
C1131 C92 1.241 . S
C1135 C378 1.149 . S
C1149 C78 1.742 . S
C1153 C568 1.676 . S
C1171 C428 1.676 . S
C1167 C8 1.744 . S
C1185 C51 1.242 . S
C1189 C518 1.150 . S
C1207 C474 1.811 1_556 S
C1203 C37 1.825 . S
C1225 C598 1.203 . S
C1221 C20 1.345 . S
C1243 C354 1.525 . S
C1239 C147 1.553 . S
C1261 C588 1.151 . S
C1257 C316 1.217 . S
C1275 C119 1.401 . S
C1279 C394 1.396 . S
C1293 C288 1.347 . S
C1297 C558 1.231 . S
C1311 C148 1.346 . S
C1315 C418 1.240 . S
C1333 C534 1.401 . S
C1329 C315 1.401 . S
C1347 C120 1.220 . S
C1351 C468 1.139 . S
C1365 C287 1.542 . S
C1369 C614 1.529 . S
C1383 C188 1.299 . S
C1387 C348 1.219 . S
C1401 C177 2.019 . S
C1405 C514 2.016 . S
C1419 C258 1.603 . S
C1423 C448 1.522 . S
C1437 C247 1.276 . S
C1441 C538 1.140 . S
C1459 C608 1.220 . S
C1455 C272 1.312 . S
C1473 C216 1.404 . S
C1477 C388 1.334 . S
C1495 C414 2.024 . S
C1491 C261 2.012 . S
C1513 C358 1.149 . S
C1509 C205 1.277 . S
C1527 C76 1.416 . S
C1531 C620 1.272 . S
C1549 C595 1.512 . S
C1545 C93 1.545 . S
C1563 C105 1.107 . S
C1567 C640 1.034 . S
C1581 C62 1.247 . S
C1585 C565 1.206 . S
C1599 C49 1.203 . S
C1603 C505 1.160 . S
C1621 C520 1.323 . S
C1617 C9 1.479 . S
C1639 C555 1.437 . S
C1635 C22 1.479 . S
C1657 C600 1.541 . S
C1653 C36 1.787 . S
C1675 C635 1.692 . S
C1671 C260 1.791 . S
C1689 C189 0.882 . S
C1693 C585 0.864 . S
C1711 C655 1.365 . S
C1707 C204 1.417 . S
C1729 C560 0.990 . S
C1725 C217 1.041 . S
C1747 C500 1.147 . S
C1743 C259 1.207 . S
C1761 C190 1.497 . S
C1765 C535 1.454 . S
C1783 C545 1.004 . S
C1779 C203 1.029 . S
C1797 C218 1.852 . S
C1801 C615 1.749 . S
C1819 C625 1.299 . S
C1815 C314 1.406 . S
C1833 C135 1.816 . S
C1837 C435 1.782 . S
C1855 C445 1.377 . S
C1851 C146 1.441 . S
C1873 C460 1.174 . S
C1869 C163 1.276 . S
C1891 C605 1.353 . S
C1887 C300 1.450 . S
C1905 C286 1.447 . S
C1909 C645 1.384 . S
C1927 C415 1.706 . S
C1923 C149 1.740 . S
C1945 C360 1.134 . S
C1941 C121 1.238 . S
C1959 C91 1.299 . S
C1963 C618 1.150 . S
C1981 C374 1.442 . S
C1977 C77 1.425 . S
C1995 C64 1.212 . S
C1999 C638 1.100 . S
C2013 C104 1.412 . S
C2017 C408 1.364 . S
C2031 C34 1.408 . S
C2035 C508 1.351 . S
C2053 C438 1.115 . S
C2049 C23 1.210 . S
C2067 C7 1.433 . S
C2071 C554 1.435 . S
C2085 C48 1.303 . S
C2089 C478 1.174 . S
C2107 C634 1.516 . S
C2103 C329 1.542 . S
C2121 C162 1.216 . S
C2125 C368 1.158 . S
C2143 C654 1.403 1_656 S
C2139 C301 1.409 . S
C2157 C134 1.343 . S
C2161 C398 1.251 . S
C2175 C330 1.345 . S
C2179 C498 1.234 . S
C2197 C454 1.411 . S
C2193 C161 1.402 . S
C2211 C302 1.219 . S
C2215 C548 1.138 . S
C2233 C494 1.524 . S
C2229 C133 1.541 . S
C2251 C628 1.408 . S
C2247 C244 1.495 . S
C2269 C434 1.996 . S
C2265 C219 1.985 . S
C2283 C230 1.415 . S
C2287 C528 1.345 . S
C2305 C458 1.145 . S
C2301 C191 1.264 . S
C2319 C202 1.490 . S
C2323 C488 1.398 . S
C2337 C174 1.607 . S
C2341 C648 1.528 . S
C2359 C574 1.997 . S
C2355 C233 1.983 . S
C2377 C578 1.135 . S
C2373 C275 1.261 . S
