# Generated by pormake.
# Topology pth, (4,4)-cn, num edge types: 1
# Building blocks:
#     Node 0, Type 0, BuildingBlock: NAHDIM_clean_sbu_0, # of connection points: 4
#     Node 1, Type 0, BuildingBlock: NAHDIM_clean_sbu_0, # of connection points: 4
#     Node 2, Type 0, BuildingBlock: NAHDIM_clean_sbu_0, # of connection points: 4
#     Node 3, Type 1, BuildingBlock: KOZSID_clean_sbu_0, # of connection points: 4
#     Node 4, Type 1, BuildingBlock: KOZSID_clean_sbu_0, # of connection points: 4
#     Node 5, Type 1, BuildingBlock: KOZSID_clean_sbu_0, # of connection points: 4
#     Edge 6, Type (0, 1), BuildingBlock: XUDNAN_clean_linker_2, # of connection points: 2
#     Edge 7, Type (0, 1), BuildingBlock: XUDNAN_clean_linker_2, # of connection points: 2
#     Edge 8, Type (0, 1), BuildingBlock: XUDNAN_clean_linker_2, # of connection points: 2
#     Edge 9, Type (0, 1), BuildingBlock: XUDNAN_clean_linker_2, # of connection points: 2
#     Edge 10, Type (0, 1), BuildingBlock: XUDNAN_clean_linker_2, # of connection points: 2
#     Edge 11, Type (0, 1), BuildingBlock: XUDNAN_clean_linker_2, # of connection points: 2
#     Edge 12, Type (0, 1), BuildingBlock: XUDNAN_clean_linker_2, # of connection points: 2
#     Edge 13, Type (0, 1), BuildingBlock: XUDNAN_clean_linker_2, # of connection points: 2
#     Edge 14, Type (0, 1), BuildingBlock: XUDNAN_clean_linker_2, # of connection points: 2
#     Edge 15, Type (0, 1), BuildingBlock: XUDNAN_clean_linker_2, # of connection points: 2
#     Edge 16, Type (0, 1), BuildingBlock: XUDNAN_clean_linker_2, # of connection points: 2
#     Edge 17, Type (0, 1), BuildingBlock: XUDNAN_clean_linker_2, # of connection points: 2
# Relax obj value: 0.042
# Max RMSD: 0.170
# Mean RMSD: 0.086
data_MOF--net-pth--node1-NAHDIM_clean_sbu_0--node2-KOZSID_clean_sbu_0--edge1-XUDNAN_clean_linker_2
_symmetry_space_group_name_H-M    P1
_symmetry_Int_Tables_number       1
_symmetry_cell_setting            triclinic
loop_
_symmetry_equiv_pos_as_xyz
'x, y, z'
_cell_length_a     26.615703
_cell_length_b     26.753071
_cell_length_c     59.643711
_cell_angle_alpha  89.316706
_cell_angle_beta   87.32326
_cell_angle_gamma 120.66144
loop_
_atom_site_label
_atom_site_type_symbol
_atom_site_fract_x
_atom_site_fract_y
_atom_site_fract_z
_atom_type_partial_charge
C0 C 0.03578 0.97851 0.0688 0.0
O1 O 0.00012 0.99262 0.07891 0.0
O2 O 0.05177 0.12529 0.05462 0.0
Zn3 Zn 0.0531 0.06576 0.03472 0.0
O4 O 0.97988 0.02207 0.01814 0.0
C5 C 0.12072 0.14234 0.99664 0.0
O6 O 0.06969 0.13301 0.99087 0.0
O7 O 0.06441 0.00587 0.05074 0.0
C8 C 0.97935 0.9868 0.00393 0.0
O9 O 0.02685 0.98395 0.00014 0.0
C10 C 0.01442 0.12623 0.0684 0.0
O11 O 0.96339 0.07887 0.07288 0.0
O12 O 0.12309 0.11474 0.01366 0.0
C13 C 0.07371 0.20056 0.3287 0.0
O14 O 0.04154 0.14976 0.31995 0.0
O15 O 0.0745 0.07038 0.34965 0.0
Zn16 Zn 0.07149 0.13207 0.36735 0.0
O17 O 0.99095 0.10388 0.38162 0.0
C18 C 0.13108 0.11418 0.40232 0.0
O19 O 0.08686 0.06064 0.40151 0.0
O20 O 0.09262 0.20286 0.34806 0.0
C21 C 0.98314 0.11559 0.4016 0.0
O22 O 0.02841 0.14332 0.41391 0.0
C23 C 0.03414 0.02962 0.33925 0.0
O24 O 0.98309 0.02589 0.3385 0.0
O25 O 0.13232 0.15389 0.38997 0.0
C26 C 0.10652 0.04473 0.64898 0.0
O27 O 0.07757 0.07101 0.64462 0.0
O28 O 0.98205 0.03017 0.68092 0.0
Zn29 Zn 0.05056 0.02952 0.69321 0.0
O30 O 0.10133 0.10265 0.7092 0.0
C31 C 0.98433 0.9603 0.73158 0.0
O32 O 0.98814 0.00967 0.73677 0.0
O33 O 0.10052 0.02212 0.66852 0.0
C34 C 0.13563 0.10386 0.7236 0.0
O35 O 0.13547 0.05588 0.72873 0.0
C36 C 0.97881 0.07279 0.67321 0.0
O37 O 0.02537 0.12524 0.67197 0.0
O38 O 0.01268 0.95901 0.71407 0.0
C39 C 0.09448 0.68328 0.16036 0.0
C40 C 0.14455 0.73299 0.15144 0.0
C41 C 0.18822 0.74458 0.16539 0.0
C42 C 0.16268 0.70169 0.18202 0.0
N43 N 0.10576 0.66329 0.1793 0.0
Co44 Co 0.05248 0.59676 0.20022 0.0
N45 N 0.11947 0.59969 0.2148 0.0
C46 C 0.17506 0.64461 0.21356 0.0
C47 C 0.21222 0.63322 0.22474 0.0
C48 C 0.17779 0.57786 0.23376 0.0
C49 C 0.12113 0.55878 0.22776 0.0
N50 N 0.99952 0.53051 0.22127 0.0
C51 C 0.01114 0.49593 0.23408 0.0
C52 C 0.96139 0.45513 0.24677 0.0
C53 C 0.91728 0.46478 0.24166 0.0
C54 C 0.94244 0.51082 0.22626 0.0
N55 N 0.98544 0.59398 0.18571 0.0
C56 C 0.92957 0.56663 0.19422 0.0
C57 C 0.89264 0.57218 0.18048 0.0
C58 C 0.92755 0.60581 0.16232 0.0
C59 C 0.98416 0.61931 0.16611 0.0
N60 N 0.05305 0.54249 0.1788 0.0
C61 C 0.05457 0.46198 0.14959 0.0
C62 C 0.00169 0.45313 0.15949 0.0
C63 C 0.00191 0.49373 0.17405 0.0
C64 C 0.1066 0.51246 0.15454 0.0
C65 C 0.10483 0.55219 0.169 0.0
N66 N 0.05183 0.65093 0.22174 0.0
C67 C 0.04587 0.73575 0.22968 0.0
C68 C 0.05408 0.73019 0.25237 0.0
C69 C 0.06025 0.68367 0.2595 0.0
C70 C 0.05871 0.64442 0.24396 0.0
C71 C 0.04513 0.69588 0.21466 0.0
H72 H 0.06357 0.60903 0.24995 0.0
H73 H 0.03977 0.70198 0.19725 0.0
H74 H 0.96065 0.4854 0.18159 0.0
H75 H 0.14555 0.59043 0.17249 0.0
C76 C 0.19233 0.69184 0.1986 0.0
C77 C 0.03602 0.6613 0.15205 0.0
C78 C 0.06948 0.50388 0.23612 0.0
C79 C 0.91235 0.53012 0.21352 0.0
H80 H 0.14894 0.75926 0.13672 0.0
H81 H 0.2334 0.77952 0.16342 0.0
H82 H 0.25915 0.66079 0.22542 0.0
H83 H 0.19282 0.55447 0.24368 0.0
H84 H 0.95747 0.4222 0.25862 0.0
H85 H 0.87189 0.43989 0.24786 0.0
H86 H 0.84575 0.55299 0.18307 0.0
H87 H 0.91317 0.61981 0.14813 0.0
H88 H 0.96026 0.41536 0.15594 0.0
H89 H 0.1487 0.52096 0.14762 0.0
H90 H 0.04155 0.77149 0.22344 0.0
H91 H 0.06609 0.67753 0.27696 0.0
C92 C 0.43021 0.99776 0.55725 0.0
C93 C 0.38397 0.94227 0.56312 0.0
C94 C 0.39985 0.90423 0.55487 0.0
C95 C 0.45455 0.93858 0.54443 0.0
N96 N 0.47381 0.99561 0.54566 0.0
Co97 Co 0.54865 0.06071 0.53231 0.0
N98 N 0.55715 0.00888 0.51101 0.0
C99 C 0.52904 0.95037 0.51316 0.0
C100 C 0.54523 0.92597 0.49634 0.0
C101 C 0.58664 0.97196 0.48297 0.0
C102 C 0.59345 0.02222 0.4924 0.0
N103 N 0.62362 0.1262 0.51911 0.0
C104 C 0.65395 0.13007 0.49967 0.0
C105 C 0.70469 0.18434 0.49689 0.0
C106 C 0.70682 0.21447 0.5156 0.0
C107 C 0.65724 0.17742 0.52866 0.0
N108 N 0.53991 0.11185 0.55381 0.0
C109 C 0.58258 0.16359 0.5603 0.0
C110 C 0.56194 0.18888 0.57515 0.0
C111 C 0.50268 0.15048 0.57806 0.0
C112 C 0.49069 0.10402 0.56472 0.0
N113 N 0.59143 0.04427 0.55408 0.0
C114 C 0.65929 0.03334 0.58588 0.0
C115 C 0.60536 0.02765 0.59241 0.0
C116 C 0.57217 0.03347 0.57625 0.0
C117 C 0.67737 0.04211 0.56306 0.0
C118 C 0.64265 0.04697 0.54744 0.0
N119 N 0.50605 0.07781 0.51074 0.0
C120 C 0.48444 0.1467 0.49436 0.0
C121 C 0.43779 0.10231 0.48347 0.0
C122 C 0.42725 0.04546 0.48606 0.0
C123 C 0.46179 0.03414 0.49978 0.0
C124 C 0.51819 0.13366 0.50768 0.0
H125 H 0.45193 0.98989 0.50192 0.0
H126 H 0.55311 0.16872 0.51606 0.0
H127 H 0.53171 0.03088 0.58178 0.0
H128 H 0.65818 0.05443 0.53004 0.0
C129 C 0.48294 0.91977 0.52945 0.0
C130 C 0.43307 0.05195 0.56327 0.0
C131 C 0.64 0.0813 0.48502 0.0
C132 C 0.63717 0.19183 0.54832 0.0
H133 H 0.34295 0.93046 0.57214 0.0
H134 H 0.37321 0.85725 0.55531 0.0
H135 H 0.52838 0.88022 0.49388 0.0
H136 H 0.61027 0.96874 0.46834 0.0
H137 H 0.73754 0.20002 0.48306 0.0
H138 H 0.73996 0.25853 0.51902 0.0
H139 H 0.58631 0.23153 0.58201 0.0
H140 H 0.47181 0.15617 0.58855 0.0
H141 H 0.58992 0.02084 0.60993 0.0
H142 H 0.71834 0.04566 0.55732 0.0
H143 H 0.494 0.19116 0.49322 0.0
H144 H 0.39247 0.00981 0.47765 0.0
C145 C 0.6563 0.60363 0.83265 0.0
C146 C 0.70284 0.59498 0.82771 0.0
C147 C 0.69248 0.5476 0.84033 0.0
C148 C 0.64091 0.53047 0.85241 0.0
N149 N 0.61744 0.56395 0.84831 0.0
Co150 Co 0.54526 0.55704 0.86363 0.0
N151 N 0.53115 0.48801 0.88254 0.0
C152 C 0.56314 0.4617 0.88181 0.0
C153 C 0.54108 0.41329 0.8958 0.0
C154 C 0.49195 0.40818 0.90617 0.0
C155 C 0.48724 0.45447 0.89803 0.0
N156 N 0.47346 0.55054 0.87926 0.0
C157 C 0.43612 0.51228 0.89567 0.0
C158 C 0.39251 0.52396 0.90221 0.0
C159 C 0.40223 0.5709 0.88933 0.0
C160 C 0.45118 0.58539 0.87581 0.0
N161 N 0.55905 0.62564 0.84443 0.0
C162 C 0.52544 0.65024 0.84436 0.0
C163 C 0.54531 0.69596 0.82906 0.0
C164 C 0.59464 0.70107 0.81874 0.0
C165 C 0.60229 0.65821 0.82851 0.0
N166 N 0.49653 0.504 0.84044 0.0
C167 C 0.42457 0.42802 0.80826 0.0
C168 C 0.41683 0.47278 0.81598 0.0
C169 C 0.45292 0.50985 0.83183 0.0
C170 C 0.4692 0.42192 0.81688 0.0
C171 C 0.5046 0.46029 0.83279 0.0
N172 N 0.5938 0.61028 0.88679 0.0
C173 C 0.62267 0.69618 0.90805 0.0
C174 C 0.66461 0.68915 0.91847 0.0
C175 C 0.67026 0.64153 0.91292 0.0
C176 C 0.63442 0.6027 0.89722 0.0
C177 C 0.58812 0.65669 0.89248 0.0
H178 H 0.64043 0.56704 0.89373 0.0
H179 H 0.55752 0.66514 0.88514 0.0
H180 H 0.44418 0.54265 0.83691 0.0
H181 H 0.5381 0.45374 0.83868 0.0
C182 C 0.61379 0.48341 0.86783 0.0
C183 C 0.65126 0.65022 0.82207 0.0
C184 C 0.44035 0.46457 0.90561 0.0
C185 C 0.47641 0.6305 0.85933 0.0
H186 H 0.74075 0.62042 0.81628 0.0
H187 H 0.7196 0.52826 0.84081 0.0
H188 H 0.55848 0.38491 0.89809 0.0
H189 H 0.46282 0.37394 0.91829 0.0
H190 H 0.35725 0.50089 0.91495 0.0
H191 H 0.37651 0.59182 0.88971 0.0
H192 H 0.52638 0.72264 0.82588 0.0
H193 H 0.62198 0.7329 0.80557 0.0
H194 H 0.38222 0.47876 0.81015 0.0
H195 H 0.4772 0.38811 0.81125 0.0
H196 H 0.61717 0.73284 0.9115 0.0
H197 H 0.70184 0.63396 0.92074 0.0
H198 H 0.96007 0.14581 0.10502 0.0
H199 H 0.09987 0.23408 0.05287 0.0
H200 H 0.12332 0.32863 0.06751 0.0
H201 H 0.91322 0.25095 0.10605 0.0
H202 H 0.89989 0.24566 0.13613 0.0
H203 H 0.89258 0.1841 0.1214 0.0
H204 H 0.96681 0.1795 0.1467 0.0
H205 H 0.97414 0.24087 0.16156 0.0
H206 H 0.03807 0.24331 0.14873 0.0
H207 H 0.131 0.41355 0.08693 0.0
H208 H 0.12602 0.48427 0.11155 0.0
H209 H 0.98541 0.34215 0.15271 0.0
C210 C 0.99546 0.18506 0.09668 0.0
C211 C 0.028 0.18245 0.07777 0.0
C212 C 0.07439 0.23483 0.06743 0.0
C213 C 0.08799 0.28887 0.07555 0.0
C214 C 0.0552 0.29001 0.09417 0.0
C215 C 0.01023 0.23965 0.10476 0.0
C216 C 0.98323 0.25351 0.12492 0.0
C217 C 0.91838 0.23229 0.12194 0.0
C218 C 0.99105 0.22778 0.14677 0.0
C219 C 0.01995 0.3194 0.12385 0.0
C220 C 0.0609 0.33942 0.10588 0.0
C221 C 0.09949 0.39848 0.10121 0.0
C222 C 0.09657 0.43833 0.11542 0.0
C223 C 0.05573 0.41903 0.13426 0.0
C224 C 0.01678 0.35858 0.13837 0.0
H225 H 0.94683 0.11806 0.44504 0.0
H226 H 0.88807 0.08737 0.37722 0.0
H227 H 0.79365 0.0761 0.39096 0.0
H228 H 0.80578 0.0136 0.4729 0.0
H229 H 0.81664 0.05829 0.49667 0.0
H230 H 0.8787 0.06231 0.48141 0.0
H231 H 0.92433 0.17359 0.47503 0.0
H232 H 0.86206 0.16975 0.49001 0.0
H233 H 0.88301 0.20082 0.46175 0.0
H234 H 0.70727 0.07343 0.41202 0.0
H235 H 0.63314 0.07174 0.43947 0.0
H236 H 0.74772 0.10029 0.49322 0.0
C237 C 0.91396 0.10853 0.43309 0.0
C238 C 0.92484 0.10376 0.41006 0.0
C239 C 0.88059 0.09099 0.39498 0.0
C240 C 0.82692 0.08476 0.4026 0.0
C241 C 0.81802 0.09077 0.42537 0.0
C242 C 0.86002 0.10154 0.44044 0.0
C243 C 0.83956 0.10563 0.46407 0.0
C244 C 0.83488 0.05705 0.47968 0.0
C245 C 0.87964 0.16605 0.47324 0.0
C246 C 0.77988 0.0964 0.45989 0.0
C247 C 0.76819 0.08814 0.43747 0.0
C248 C 0.7159 0.07968 0.42963 0.0
C249 C 0.67431 0.07909 0.4452 0.0
C250 C 0.68556 0.08684 0.4682 0.0
C251 C 0.7388 0.0953 0.47559 0.0
H252 H 0.92841 0.94671 0.77291 0.0
H253 H 0.93625 0.85045 0.71609 0.0
H254 H 0.85031 0.76115 0.73275 0.0
H255 H 0.8846 0.82848 0.81524 0.0
H256 H 0.838 0.84727 0.83133 0.0
H257 H 0.90162 0.90291 0.81527 0.0
H258 H 0.83591 0.93199 0.79479 0.0
H259 H 0.77195 0.87568 0.81047 0.0
H260 H 0.77503 0.87779 0.7802 0.0
H261 H 0.7583 0.68481 0.75368 0.0
H262 H 0.67493 0.62228 0.78074 0.0
H263 H 0.73036 0.76617 0.82498 0.0
C264 C 0.91259 0.90663 0.76416 0.0
C265 C 0.93891 0.90552 0.74319 0.0
C266 C 0.91701 0.85226 0.73224 0.0
C267 C 0.86795 0.80139 0.74148 0.0
C268 C 0.84194 0.80437 0.76183 0.0
C269 C 0.86421 0.85525 0.77331 0.0
C270 C 0.82834 0.84645 0.79504 0.0
C271 C 0.86535 0.85688 0.81542 0.0
C272 C 0.80121 0.88529 0.79511 0.0
C273 C 0.78193 0.78293 0.7938 0.0
C274 C 0.79021 0.75966 0.77437 0.0
C275 C 0.75181 0.70228 0.7691 0.0
C276 C 0.70458 0.66729 0.78441 0.0
C277 C 0.69694 0.68967 0.80481 0.0
C278 C 0.73559 0.74833 0.80943 0.0
H279 H 0.00166 0.92524 0.1108 0.0
H280 H 0.07592 0.91701 0.04557 0.0
H281 H 0.07647 0.82952 0.05885 0.0
H282 H 0.08674 0.88468 0.14283 0.0
H283 H 0.02867 0.84349 0.16403 0.0
H284 H 0.03169 0.90367 0.1489 0.0
H285 H 0.926 0.83546 0.13701 0.0
H286 H 0.92308 0.77489 0.15186 0.0
H287 H 0.90917 0.77053 0.12245 0.0
H288 H 0.06948 0.74297 0.07938 0.0
H289 H 0.06432 0.66998 0.10697 0.0
H290 H 0.99846 0.73749 0.15881 0.0
C291 C 0.01786 0.90492 0.0993 0.0
C292 C 0.03854 0.92777 0.07714 0.0
C293 C 0.06005 0.90035 0.06266 0.0
C294 C 0.06016 0.8504 0.06999 0.0
C295 C 0.03902 0.82868 0.09188 0.0
C296 C 0.01897 0.85549 0.10642 0.0
C297 C 0.00163 0.82535 0.12948 0.0
C298 C 0.03945 0.86676 0.14736 0.0
C299 C 0.93607 0.80006 0.13554 0.0
C300 C 0.01529 0.77761 0.12567 0.0
C301 C 0.03608 0.77969 0.1038 0.0
C302 C 0.05289 0.74067 0.09651 0.0
C303 C 0.04955 0.69928 0.11215 0.0
C304 C 0.02996 0.69778 0.13471 0.0
C305 C 0.01217 0.73704 0.14146 0.0
H306 H 0.1397 0.04202 0.43297 0.0
H307 H 0.23882 0.21359 0.39993 0.0
H308 H 0.32758 0.2298 0.41765 0.0
H309 H 0.21544 0.08323 0.48569 0.0
H310 H 0.2124 0.01472 0.48921 0.0
H311 H 0.15593 0.01823 0.475 0.0
H312 H 0.17578 0.97149 0.44046 0.0
H313 H 0.23281 0.96857 0.45442 0.0
H314 H 0.24862 0.00532 0.42724 0.0
H315 H 0.40717 0.22374 0.436 0.0
H316 H 0.47063 0.19979 0.45668 0.0
H317 H 0.31869 0.03444 0.47962 0.0
C318 C 0.17986 0.08335 0.42972 0.0
C319 C 0.18232 0.1265 0.41503 0.0
C320 C 0.23577 0.17996 0.41119 0.0
C321 C 0.2865 0.18953 0.42111 0.0
C322 C 0.28288 0.14552 0.43505 0.0
C323 C 0.23077 0.09387 0.43967 0.0
C324 C 0.23899 0.0534 0.45502 0.0
C325 C 0.2036 0.04173 0.47757 0.0
C326 C 0.22311 0.99633 0.44359 0.0
C327 C 0.30412 0.08986 0.45788 0.0
C328 C 0.32858 0.14277 0.4462 0.0
C329 C 0.38837 0.18288 0.44556 0.0
C330 C 0.42403 0.16891 0.45747 0.0
C331 C 0.39982 0.11541 0.47004 0.0
C332 C 0.33892 0.07546 0.47008 0.0
H333 H 0.20455 0.12 0.75882 0.0
H334 H 0.16184 0.21324 0.71046 0.0
H335 H 0.23454 0.30631 0.72578 0.0
H336 H 0.22236 0.21249 0.80473 0.0
H337 H 0.28193 0.20783 0.81564 0.0
H338 H 0.22751 0.1486 0.80048 0.0
H339 H 0.30913 0.15512 0.77295 0.0
H340 H 0.36377 0.21474 0.78792 0.0
H341 H 0.35931 0.22325 0.75819 0.0
H342 H 0.31212 0.38897 0.74592 0.0
H343 H 0.38481 0.45601 0.77144 0.0
H344 H 0.3749 0.30918 0.80766 0.0
C345 C 0.21053 0.15999 0.75143 0.0
C346 C 0.17766 0.15937 0.73339 0.0
C347 C 0.18644 0.21262 0.72431 0.0
C348 C 0.22782 0.26573 0.73283 0.0
C349 C 0.25979 0.26482 0.75049 0.0
C350 C 0.25132 0.2134 0.75985 0.0
C351 C 0.29017 0.22456 0.77921 0.0
C352 C 0.25328 0.19673 0.80132 0.0
C353 C 0.33314 0.20314 0.77426 0.0
C354 C 0.32175 0.29031 0.77927 0.0
C355 C 0.30384 0.3126 0.76245 0.0
C356 C 0.3263 0.37205 0.75923 0.0
C357 C 0.36738 0.40973 0.77388 0.0
C358 C 0.38528 0.38786 0.79166 0.0
C359 C 0.36264 0.32732 0.79411 0.0
H360 H 0.96253 0.13583 0.6408 0.0
H361 H 0.86962 0.9836 0.68605 0.0
H362 H 0.7764 0.96003 0.67014 0.0
H363 H 0.8477 0.17352 0.64036 0.0
H364 H 0.86177 0.19438 0.61086 0.0
H365 H 0.92031 0.20261 0.6274 0.0
H366 H 0.94094 0.14046 0.59962 0.0
H367 H 0.8823 0.13175 0.58311 0.0
H368 H 0.88253 0.06859 0.59382 0.0
H369 H 0.694 0.95055 0.6483 0.0
H370 H 0.62878 0.95398 0.62083 0.0
H371 H 0.77598 0.10984 0.58888 0.0
C372 C 0.92238 0.09824 0.64764 0.0
C373 C 0.92305 0.06178 0.66475 0.0
C374 C 0.86991 0.01213 0.67294 0.0
C375 C 0.81677 0.99849 0.66408 0.0
C376 C 0.81763 0.03471 0.64693 0.0
C377 C 0.86902 0.08347 0.63874 0.0
C378 C 0.85843 0.11276 0.61916 0.0
C379 C 0.87291 0.17447 0.62479 0.0
C380 C 0.8931 0.11339 0.59766 0.0
C381 C 0.79331 0.07242 0.61748 0.0
C382 C 0.77043 0.02812 0.63383 0.0
C383 C 0.71132 0.98518 0.63547 0.0
C384 C 0.67465 0.98749 0.61987 0.0
C385 C 0.69754 0.03196 0.60276 0.0
C386 C 0.75753 0.07503 0.60169 0.0
H387 H 0.96643 0.91215 0.97066 0.0
H388 H 0.86949 0.96945 0.01286 0.0
H389 H 0.77799 0.89753 0.99628 0.0
H390 H 0.88378 0.88898 0.92152 0.0
H391 H 0.88748 0.82602 0.91369 0.0
H392 H 0.94516 0.88234 0.92881 0.0
H393 H 0.93016 0.80584 0.95955 0.0
H394 H 0.87201 0.74937 0.94465 0.0
H395 H 0.85874 0.76081 0.97352 0.0
H396 H 0.69695 0.81788 0.97584 0.0
H397 H 0.63258 0.7401 0.95125 0.0
H398 H 0.78287 0.73635 0.92182 0.0
C399 C 0.92603 0.9098 0.97638 0.0
C400 C 0.92507 0.94635 0.99309 0.0
C401 C 0.8713 0.94199 4e-05 0.0
C402 C 0.81908 0.90114 0.99079 0.0
C403 C 0.8215 0.86525 0.97456 0.0
C404 C 0.87362 0.86953 0.96726 0.0
C405 C 0.86435 0.82631 0.94941 0.0
C406 C 0.89713 0.8578 0.92703 0.0
C407 C 0.88238 0.78302 0.95726 0.0
C408 C 0.79876 0.79679 0.9479 0.0
C409 C 0.77489 0.81979 0.96259 0.0
C410 C 0.71518 0.79976 0.96418 0.0
C411 C 0.67904 0.75571 0.95009 0.0
C412 C 0.70271 0.7323 0.93454 0.0
C413 C 0.76334 0.75282 0.9337 0.0
H414 H 0.97078 0.95121 0.30766 0.0
H415 H 0.12199 0.00913 0.3475 0.0
H416 H 0.14114 0.93654 0.33054 0.0
H417 H 0.92379 0.79788 0.30968 0.0
H418 H 0.90279 0.7874 0.28104 0.0
H419 H 0.89925 0.84251 0.29692 0.0
H420 H 0.96588 0.92051 0.26605 0.0
H421 H 0.96959 0.86565 0.25008 0.0
H422 H 0.03598 0.92918 0.25772 0.0
H423 H 0.14458 0.85855 0.3094 0.0
H424 H 0.13482 0.78278 0.28371 0.0
H425 H 0.98309 0.7766 0.25682 0.0
C426 C 0.00767 0.94833 0.31289 0.0
C427 C 0.0448 0.98571 0.32893 0.0
C428 C 0.09304 0.98107 0.33518 0.0
C429 C 0.1042 0.93983 0.32572 0.0
C430 C 0.06696 0.90378 0.30992 0.0
C431 C 0.01988 0.90774 0.30342 0.0
C432 C 0.98803 0.86505 0.28547 0.0
C433 C 0.92471 0.82057 0.29378 0.0
C434 C 0.99002 0.89703 0.26353 0.0
C435 C 0.02475 0.83677 0.28289 0.0
C436 C 0.06971 0.85941 0.29731 0.0
C437 C 0.10949 0.84032 0.29804 0.0
C438 C 0.10343 0.79712 0.2835 0.0
C439 C 0.05821 0.77388 0.26834 0.0
C440 C 0.01831 0.79393 0.26814 0.0
H441 H 0.18242 0.00509 0.65394 0.0
H442 H 0.12739 0.08719 0.60545 0.0
H443 H 0.20274 0.09455 0.57763 0.0
H444 H 0.334 0.09223 0.64005 0.0
H445 H 0.34901 0.03424 0.64382 0.0
H446 H 0.28818 0.03175 0.65942 0.0
H447 H 0.2178 0.93076 0.64391 0.0
H448 H 0.27852 0.93288 0.6283 0.0
H449 H 0.21582 0.92215 0.61397 0.0
H450 H 0.2876 0.09777 0.55575 0.0
H451 H 0.37498 0.09459 0.54137 0.0
H452 H 0.37443 0.01135 0.60417 0.0
C453 C 0.18564 0.02393 0.63739 0.0
C454 C 0.14889 0.04542 0.63186 0.0
C455 C 0.15497 0.07031 0.61007 0.0
C456 C 0.19761 0.07467 0.59414 0.0
C457 C 0.23368 0.05383 0.60025 0.0
C458 C 0.22799 0.02874 0.62132 0.0
C459 C 0.27359 0.01162 0.62395 0.0
C460 C 0.31355 0.04443 0.64293 0.0
C461 C 0.24469 0.94542 0.62775 0.0
C462 C 0.3063 0.03171 0.60118 0.0
C463 C 0.28247 0.0557 0.58768 0.0
C464 C 0.30628 0.07861 0.56608 0.0
C465 C 0.35568 0.07675 0.55807 0.0
C466 C 0.38018 0.05209 0.57167 0.0
C467 C 0.35547 0.02957 0.59346 0.0
H468 H 0.13792 0.19352 0.95459 0.0
H469 H 0.22625 0.20282 0.01514 0.0
H470 H 0.31502 0.29078 -0.00066 0.0
H471 H 0.26441 0.23689 0.91643 0.0
H472 H 0.24627 0.27746 0.89744 0.0
H473 H 0.18905 0.2162 0.91386 0.0
H474 H 0.15195 0.28215 0.92981 0.0
H475 H 0.20973 0.34384 0.9137 0.0
H476 H 0.20157 0.34714 0.94372 0.0
H477 H 0.39271 0.37947 0.97784 0.0
H478 H 0.46007 0.45508 0.94932 0.0
H479 H 0.32443 0.38511 0.90177 0.0
C480 C 0.17607 0.21401 0.96445 0.0
C481 C 0.1752 0.1915 0.9861 0.0
C482 C 0.22606 0.21912 -0.00155 0.0
C483 C 0.27653 0.2694 0.98972 0.0
C484 C 0.27568 0.29106 0.9685 0.0
C485 C 0.22729 0.2637 0.9558 0.0
C486 C 0.23917 0.29435 0.93296 0.0
C487 C 0.23446 0.25381 0.91406 0.0
C488 C 0.19816 0.31828 0.92988 0.0
C489 C 0.30175 0.34313 0.93485 0.0
C490 C 0.32155 0.34098 0.95565 0.0
C491 C 0.37786 0.38149 0.96145 0.0
C492 C 0.41561 0.42429 0.94528 0.0
C493 C 0.39704 0.42542 0.92355 0.0
C494 C 0.33918 0.38508 0.91839 0.0
H495 H 0.04554 0.21353 0.28607 0.0
H496 H 0.12173 0.30877 0.34571 0.0
H497 H 0.12993 0.39661 0.32814 0.0
H498 H 0.13583 0.33429 0.24567 0.0
H499 H 0.07715 0.31433 0.22729 0.0
H500 H 0.07905 0.25915 0.24421 0.0
H501 H 0.97471 0.22538 0.26125 0.0
H502 H 0.97271 0.28074 0.24451 0.0
H503 H 0.96036 0.27734 0.27461 0.0
H504 H 0.12296 0.47151 0.30569 0.0
H505 H 0.10956 0.53235 0.27784 0.0
H506 H 0.04251 0.39117 0.23194 0.0
C507 C 0.06449 0.25301 0.29535 0.0
C508 C 0.0829 0.25421 0.31729 0.0
C509 C 0.10744 0.30676 0.32887 0.0
C510 C 0.11216 0.35689 0.31906 0.0
C511 C 0.0927 0.35396 0.2976 0.0
C512 C 0.07003 0.3037 0.28572 0.0
C513 C 0.05206 0.31241 0.26292 0.0
C514 C 0.0882 0.30459 0.2439 0.0
C515 C 0.98604 0.27154 0.26071 0.0
C516 C 0.06759 0.3752 0.26399 0.0
C517 C 0.09066 0.39814 0.28422 0.0
C518 C 0.10599 0.45447 0.28962 0.0
C519 C 0.09833 0.48862 0.27378 0.0
C520 C 0.0766 0.46661 0.25269 0.0
C521 C 0.06036 0.40905 0.24783 0.0
loop_
_geom_bond_atom_site_label_1
_geom_bond_atom_site_label_2
_geom_bond_distance
_geom_bond_site_symmetry_2
_ccdc_geom_bond_type
C0 O1 1.160 . S
C0 O7 1.185 1_565 S
O1 C0 1.160 . S
O2 Zn3 1.899 . S
O2 C10 1.284 . S
Zn3 O2 1.899 . S
Zn3 O4 2.032 . S
Zn3 O7 2.086 . S
Zn3 O12 1.977 . S
O4 Zn3 2.032 . S
O4 C8 1.278 1_455 S
C5 O6 1.203 . S
C5 O12 1.267 . S
O6 C5 1.203 . S
O7 C0 1.185 1_545 S
O7 Zn3 2.086 . S
C8 O4 1.278 1_655 S
C8 O9 1.211 1_654 S
O9 C8 1.211 1_456 S
C10 O2 1.284 . S
C10 O11 1.273 . S
O11 C10 1.273 . S
O12 Zn3 1.977 . S
O12 C5 1.267 . S
C13 O14 1.160 . S
C13 O20 1.185 . S
O14 C13 1.160 . S
O15 Zn16 1.899 . S
O15 C23 1.284 . S
Zn16 O15 1.899 . S
Zn16 O17 2.032 1_455 S
Zn16 O20 2.086 . S
Zn16 O25 1.977 . S
O17 Zn16 2.032 1_655 S
O17 C21 1.278 . S
C18 O19 1.203 . S
C18 O25 1.267 . S
O19 C18 1.203 . S
O20 C13 1.185 . S
O20 Zn16 2.086 . S
C21 O17 1.278 . S
C21 O22 1.211 . S
O22 C21 1.211 . S
C23 O15 1.284 . S
C23 O24 1.273 1_445 S
O24 C23 1.273 1_665 S
O25 Zn16 1.977 . S
O25 C18 1.267 . S
C26 O27 1.160 . S
C26 O33 1.185 1_545 S
O27 C26 1.160 . S
O28 Zn29 1.899 . S
O28 C36 1.284 1_455 S
Zn29 O28 1.899 . S
Zn29 O30 2.032 . S
Zn29 O33 2.086 1_545 S
Zn29 O38 1.977 1_545 S
O30 Zn29 2.032 . S
O30 C34 1.278 . S
C31 O32 1.203 . S
C31 O38 1.267 1_655 S
O32 C31 1.203 . S
O33 C26 1.185 1_565 S
O33 Zn29 2.086 1_565 S
C34 O30 1.278 . S
C34 O35 1.211 . S
O35 C34 1.211 . S
C36 O28 1.284 1_655 S
C36 O37 1.273 1_655 S
O37 C36 1.273 1_455 S
O38 Zn29 1.977 1_565 S
O38 C31 1.267 1_455 S
C39 C40 1.443 . S
C39 N43 1.376 . S
C39 C77 1.389 . S
C40 C39 1.443 . S
C40 C41 1.340 . S
C40 H80 0.951 . S
C41 C40 1.340 . S
C41 C42 1.439 . S
C41 H81 0.950 . S
C42 C41 1.439 . S
C42 N43 1.374 . S
C42 C76 1.395 . S
N43 C39 1.376 . S
N43 C42 1.374 . S
N43 Co44 2.008 . S
Co44 N43 2.008 . S
Co44 N45 1.995 . S
Co44 N50 2.008 1_455 S
Co44 N55 1.995 1_455 S
Co44 N60 2.282 . S
Co44 N66 2.282 . S
N45 Co44 1.995 . S
N45 C46 1.376 . S
N45 C49 1.383 . S
C46 N45 1.376 . S
C46 C47 1.446 . S
C46 C76 1.391 . S
C47 C46 1.446 . S
C47 C48 1.339 . S
C47 H82 0.949 . S
C48 C47 1.339 . S
C48 C49 1.439 . S
C48 H83 0.950 . S
C49 N45 1.383 . S
C49 C48 1.439 . S
C49 C78 1.392 . S
N50 Co44 2.008 1_655 S
N50 C51 1.376 . S
N50 C54 1.374 . S
C51 N50 1.376 . S
C51 C52 1.443 . S
C51 C78 1.389 1_655 S
C52 C51 1.443 . S
C52 C53 1.340 . S
C52 H84 0.951 . S
C53 C52 1.340 . S
C53 C54 1.439 . S
C53 H85 0.950 . S
C54 N50 1.374 . S
C54 C53 1.439 . S
C54 C79 1.395 . S
N55 Co44 1.995 1_655 S
N55 C56 1.376 . S
N55 C59 1.383 . S
C56 N55 1.376 . S
C56 C57 1.446 . S
C56 C79 1.391 . S
C57 C56 1.446 . S
C57 C58 1.339 . S
C57 H86 0.949 . S
C58 C57 1.339 . S
C58 C59 1.439 . S
C58 H87 0.950 . S
C59 N55 1.383 . S
C59 C58 1.439 . S
C59 C77 1.392 1_655 S
N60 Co44 2.282 . S
N60 C63 1.332 1_455 S
N60 C65 1.332 . S
C61 C62 1.386 1_455 S
C61 C64 1.388 . S
C62 C61 1.386 1_655 S
C62 C63 1.382 . S
C62 H88 0.950 . S
C63 N60 1.332 1_655 S
C63 C62 1.382 . S
C63 H74 0.952 . S
C64 C61 1.388 . S
C64 C65 1.382 . S
C64 H89 0.950 . S
C65 N60 1.332 . S
C65 C64 1.382 . S
C65 H75 0.948 . S
N66 Co44 2.282 . S
N66 C70 1.332 . S
N66 C71 1.332 1_455 S
C67 C68 1.388 1_655 S
C67 C71 1.382 . S
C67 H90 0.950 . S
C68 C67 1.388 1_455 S
C68 C69 1.386 . S
C69 C68 1.386 . S
C69 C70 1.382 . S
C69 H91 0.950 . S
C70 N66 1.332 . S
C70 C69 1.382 . S
C70 H72 0.952 . S
C71 N66 1.332 1_655 S
C71 C67 1.382 . S
C71 H73 0.948 . S
H72 C70 0.952 . S
H73 C71 0.948 . S
H74 C63 0.952 . S
H75 C65 0.948 . S
C76 C42 1.395 . S
C76 C46 1.391 . S
C77 C39 1.389 . S
C77 C59 1.392 1_455 S
C78 C49 1.392 . S
C78 C51 1.389 1_455 S
C79 C54 1.395 . S
C79 C56 1.391 . S
H80 C40 0.951 . S
H81 C41 0.950 . S
H82 C47 0.949 . S
H83 C48 0.950 . S
H84 C52 0.951 . S
H85 C53 0.950 . S
H86 C57 0.949 . S
H87 C58 0.950 . S
H88 C62 0.950 . S
H89 C64 0.950 . S
H90 C67 0.950 . S
H91 C69 0.950 . S
C92 C93 1.443 1_545 S
C92 N96 1.376 . S
C92 C130 1.389 . S
C93 C92 1.443 1_565 S
C93 C94 1.340 . S
C93 H133 0.951 . S
C94 C93 1.340 . S
C94 C95 1.439 . S
C94 H134 0.950 . S
C95 C94 1.439 . S
C95 N96 1.374 1_565 S
C95 C129 1.395 . S
N96 C92 1.376 . S
N96 C95 1.374 1_545 S
N96 Co97 2.008 . S
Co97 N96 2.008 . S
Co97 N98 1.995 . S
Co97 N103 2.008 . S
Co97 N108 1.995 . S
Co97 N113 2.282 . S
Co97 N119 2.282 . S
N98 Co97 1.995 . S
N98 C99 1.376 1_545 S
N98 C102 1.383 . S
C99 N98 1.376 1_565 S
C99 C100 1.446 . S
C99 C129 1.391 . S
C100 C99 1.446 . S
C100 C101 1.339 . S
C100 H135 0.949 . S
C101 C100 1.339 . S
C101 C102 1.439 1_565 S
C101 H136 0.950 . S
C102 N98 1.383 . S
C102 C101 1.439 1_545 S
C102 C131 1.392 . S
N103 Co97 2.008 . S
N103 C104 1.376 . S
N103 C107 1.374 . S
C104 N103 1.376 . S
C104 C105 1.443 . S
C104 C131 1.389 . S
C105 C104 1.443 . S
C105 C106 1.340 . S
C105 H137 0.951 . S
C106 C105 1.340 . S
C106 C107 1.439 . S
C106 H138 0.950 . S
C107 N103 1.374 . S
C107 C106 1.439 . S
C107 C132 1.395 . S
N108 Co97 1.995 . S
N108 C109 1.376 . S
N108 C112 1.383 . S
C109 N108 1.376 . S
C109 C110 1.446 . S
C109 C132 1.391 . S
C110 C109 1.446 . S
C110 C111 1.339 . S
C110 H139 0.949 . S
C111 C110 1.339 . S
C111 C112 1.439 . S
C111 H140 0.950 . S
C112 N108 1.383 . S
C112 C111 1.439 . S
C112 C130 1.392 . S
N113 Co97 2.282 . S
N113 C116 1.332 . S
N113 C118 1.332 . S
C114 C115 1.386 . S
C114 C117 1.388 . S
C115 C114 1.386 . S
C115 C116 1.382 . S
C115 H141 0.950 . S
C116 N113 1.332 . S
C116 C115 1.382 . S
C116 H127 0.952 . S
C117 C114 1.388 . S
C117 C118 1.382 . S
C117 H142 0.950 1_545 S
C118 N113 1.332 . S
C118 C117 1.382 . S
C118 H128 0.948 1_545 S
N119 Co97 2.282 . S
N119 C123 1.332 . S
N119 C124 1.332 . S
C120 C121 1.388 . S
C120 C124 1.382 . S
C120 H143 0.950 . S
C121 C120 1.388 . S
C121 C122 1.386 . S
C122 C121 1.386 . S
C122 C123 1.382 . S
C122 H144 0.950 . S
C123 N119 1.332 . S
C123 C122 1.382 . S
C123 H125 0.952 . S
C124 N119 1.332 . S
C124 C120 1.382 . S
C124 H126 0.948 . S
H125 C123 0.952 . S
H126 C124 0.948 . S
H127 C116 0.952 . S
H128 C118 0.948 1_565 S
C129 C95 1.395 . S
C129 C99 1.391 . S
C130 C92 1.389 . S
C130 C112 1.392 . S
C131 C102 1.392 . S
C131 C104 1.389 . S
C132 C107 1.395 . S
C132 C109 1.391 . S
H133 C93 0.951 . S
H134 C94 0.950 . S
H135 C100 0.949 . S
H136 C101 0.950 . S
H137 C105 0.951 . S
H138 C106 0.950 . S
H139 C110 0.949 . S
H140 C111 0.950 . S
H141 C115 0.950 . S
H142 C117 0.950 1_565 S
H143 C120 0.950 . S
H144 C122 0.950 . S
C145 C146 1.443 . S
C145 N149 1.376 . S
C145 C183 1.389 . S
C146 C145 1.443 . S
C146 C147 1.340 . S
C146 H186 0.951 . S
C147 C146 1.340 . S
C147 C148 1.439 . S
C147 H187 0.950 . S
C148 C147 1.439 . S
C148 N149 1.374 . S
C148 C182 1.395 . S
N149 C145 1.376 . S
N149 C148 1.374 . S
N149 Co150 2.008 . S
Co150 N149 2.008 . S
Co150 N151 1.995 . S
Co150 N156 2.008 . S
Co150 N161 1.995 . S
Co150 N166 2.282 . S
Co150 N172 2.282 . S
N151 Co150 1.995 . S
N151 C152 1.376 . S
N151 C155 1.383 . S
C152 N151 1.376 . S
C152 C153 1.446 . S
C152 C182 1.391 . S
C153 C152 1.446 . S
C153 C154 1.339 . S
C153 H188 0.949 . S
C154 C153 1.339 . S
C154 C155 1.439 . S
C154 H189 0.950 . S
C155 N151 1.383 . S
C155 C154 1.439 . S
C155 C184 1.392 . S
N156 Co150 2.008 . S
N156 C157 1.376 . S
N156 C160 1.374 . S
C157 N156 1.376 . S
C157 C158 1.443 . S
C157 C184 1.389 . S
C158 C157 1.443 . S
C158 C159 1.340 . S
C158 H190 0.951 . S
C159 C158 1.340 . S
C159 C160 1.439 . S
C159 H191 0.950 . S
C160 N156 1.374 . S
C160 C159 1.439 . S
C160 C185 1.395 . S
N161 Co150 1.995 . S
N161 C162 1.376 . S
N161 C165 1.383 . S
C162 N161 1.376 . S
C162 C163 1.446 . S
C162 C185 1.391 . S
C163 C162 1.446 . S
C163 C164 1.339 . S
C163 H192 0.949 . S
C164 C163 1.339 . S
C164 C165 1.439 . S
C164 H193 0.950 . S
C165 N161 1.383 . S
C165 C164 1.439 . S
C165 C183 1.392 . S
N166 Co150 2.282 . S
N166 C169 1.332 . S
N166 C171 1.332 . S
C167 C168 1.386 . S
C167 C170 1.388 . S
C168 C167 1.386 . S
C168 C169 1.382 . S
C168 H194 0.950 . S
C169 N166 1.332 . S
C169 C168 1.382 . S
C169 H180 0.952 . S
C170 C167 1.388 . S
C170 C171 1.382 . S
C170 H195 0.950 . S
C171 N166 1.332 . S
C171 C170 1.382 . S
C171 H181 0.948 . S
N172 Co150 2.282 . S
N172 C176 1.332 . S
N172 C177 1.332 . S
C173 C174 1.388 . S
C173 C177 1.382 . S
C173 H196 0.950 . S
C174 C173 1.388 . S
C174 C175 1.386 . S
C175 C174 1.386 . S
C175 C176 1.382 . S
C175 H197 0.950 . S
C176 N172 1.332 . S
C176 C175 1.382 . S
C176 H178 0.952 . S
C177 N172 1.332 . S
C177 C173 1.382 . S
C177 H179 0.948 . S
H178 C176 0.952 . S
H179 C177 0.948 . S
H180 C169 0.952 . S
H181 C171 0.948 . S
C182 C148 1.395 . S
C182 C152 1.391 . S
C183 C145 1.389 . S
C183 C165 1.392 . S
C184 C155 1.392 . S
C184 C157 1.389 . S
C185 C160 1.395 . S
C185 C162 1.391 . S
H186 C146 0.951 . S
H187 C147 0.950 . S
H188 C153 0.949 . S
H189 C154 0.950 . S
H190 C158 0.951 . S
H191 C159 0.950 . S
H192 C163 0.949 . S
H193 C164 0.950 . S
H194 C168 0.950 . S
H195 C170 0.950 . S
H196 C173 0.950 . S
H197 C175 0.950 . S
H198 C210 0.930 1_655 S
H199 C212 0.930 . S
H200 C213 0.930 . S
H201 C217 0.959 . S
H202 C217 0.959 . S
H203 C217 0.961 . S
H204 C218 0.960 1_655 S
H205 C218 0.961 1_655 S
H206 C218 0.959 . S
H207 C221 0.929 . S
H208 C222 0.931 . S
H209 C224 0.930 . S
C210 H198 0.930 1_455 S
C210 C211 1.399 . S
C210 C215 1.399 . S
C211 C210 1.399 . S
C211 C212 1.376 . S
C212 H199 0.930 . S
C212 C211 1.376 . S
C212 C213 1.388 . S
C213 H200 0.930 . S
C213 C212 1.388 . S
C213 C214 1.390 . S
C214 C213 1.390 . S
C214 C215 1.394 . S
C214 C220 1.465 . S
C215 C210 1.399 . S
C215 C214 1.394 . S
C215 C216 1.516 1_455 S
C216 C215 1.516 1_655 S
C216 C217 1.502 . S
C216 C218 1.561 1_655 S
C216 C219 1.526 1_655 S
C217 H201 0.959 . S
C217 H202 0.959 . S
C217 H203 0.961 . S
C217 C216 1.502 . S
C218 H204 0.960 1_455 S
C218 H205 0.961 1_455 S
C218 H206 0.959 . S
C218 C216 1.561 1_455 S
C219 C216 1.526 1_455 S
C219 C220 1.396 . S
C219 C224 1.390 1_455 S
C220 C214 1.465 . S
C220 C219 1.396 . S
C220 C221 1.399 . S
C221 H207 0.929 . S
C221 C220 1.399 . S
C221 C222 1.385 . S
C222 H208 0.931 . S
C222 C221 1.385 . S
C222 C223 1.389 . S
C223 C222 1.389 . S
C223 C224 1.387 1_455 S
C224 H209 0.930 . S
C224 C219 1.390 1_655 S
C224 C223 1.387 1_655 S
H225 C237 0.930 . S
H226 C239 0.930 . S
H227 C240 0.930 . S
H228 C244 0.959 1_545 S
H229 C244 0.959 . S
H230 C244 0.961 . S
H231 C245 0.960 . S
H232 C245 0.961 . S
H233 C245 0.959 . S
H234 C248 0.929 . S
H235 C249 0.931 . S
H236 C251 0.930 . S
C237 H225 0.930 . S
C237 C238 1.399 . S
C237 C242 1.399 . S
C238 C237 1.399 . S
C238 C239 1.376 . S
C239 H226 0.930 . S
C239 C238 1.376 . S
C239 C240 1.388 . S
C240 H227 0.930 . S
C240 C239 1.388 . S
C240 C241 1.390 . S
C241 C240 1.390 . S
C241 C242 1.394 . S
C241 C247 1.465 . S
C242 C237 1.399 . S
C242 C241 1.394 . S
C242 C243 1.516 . S
C243 C242 1.516 . S
C243 C244 1.502 1_545 S
C243 C245 1.561 1_545 S
C243 C246 1.526 . S
C244 H228 0.959 1_565 S
C244 H229 0.959 . S
C244 H230 0.961 . S
C244 C243 1.502 1_565 S
C245 H231 0.960 . S
C245 H232 0.961 . S
C245 H233 0.959 . S
C245 C243 1.561 1_565 S
C246 C243 1.526 . S
C246 C247 1.396 . S
C246 C251 1.390 . S
C247 C241 1.465 . S
C247 C246 1.396 . S
C247 C248 1.399 . S
C248 H234 0.929 . S
C248 C247 1.399 . S
C248 C249 1.385 . S
C249 H235 0.931 . S
C249 C248 1.385 . S
C249 C250 1.389 . S
C250 C249 1.389 . S
C250 C251 1.387 . S
C251 H236 0.930 . S
C251 C246 1.390 . S
C251 C250 1.387 . S
H252 C264 0.930 . S
H253 C266 0.930 . S
H254 C267 0.930 . S
H255 C271 0.959 . S
H256 C271 0.959 . S
H257 C271 0.961 . S
H258 C272 0.960 . S
H259 C272 0.961 . S
H260 C272 0.959 . S
H261 C275 0.929 . S
H262 C276 0.931 . S
H263 C278 0.930 . S
C264 H252 0.930 . S
C264 C265 1.399 . S
C264 C269 1.399 . S
C265 C264 1.399 . S
C265 C266 1.376 . S
C266 H253 0.930 . S
C266 C265 1.376 . S
C266 C267 1.388 . S
C267 H254 0.930 . S
C267 C266 1.388 . S
C267 C268 1.390 . S
C268 C267 1.390 . S
C268 C269 1.394 . S
C268 C274 1.465 . S
C269 C264 1.399 . S
C269 C268 1.394 . S
C269 C270 1.516 . S
C270 C269 1.516 . S
C270 C271 1.502 . S
C270 C272 1.561 . S
C270 C273 1.526 . S
C271 H255 0.959 . S
C271 H256 0.959 . S
C271 H257 0.961 . S
C271 C270 1.502 . S
C272 H258 0.960 . S
C272 H259 0.961 . S
C272 H260 0.959 . S
C272 C270 1.561 . S
C273 C270 1.526 . S
C273 C274 1.396 . S
C273 C278 1.390 . S
C274 C268 1.465 . S
C274 C273 1.396 . S
C274 C275 1.399 . S
C275 H261 0.929 . S
C275 C274 1.399 . S
C275 C276 1.385 . S
C276 H262 0.931 . S
C276 C275 1.385 . S
C276 C277 1.389 . S
C277 C276 1.389 . S
C277 C278 1.387 . S
C278 H263 0.930 . S
C278 C273 1.390 . S
C278 C277 1.387 . S
H279 C291 0.930 . S
H280 C293 0.930 . S
H281 C294 0.930 1_655 S
H282 C298 0.959 . S
H283 C298 0.959 . S
H284 C298 0.961 . S
H285 C299 0.960 . S
H286 C299 0.961 . S
H287 C299 0.959 . S
H288 C302 0.929 . S
H289 C303 0.931 . S
H290 C305 0.930 . S
C291 H279 0.930 . S
C291 C292 1.399 . S
C291 C296 1.399 . S
C292 C291 1.399 . S
C292 C293 1.376 . S
C293 H280 0.930 . S
C293 C292 1.376 . S
C293 C294 1.388 . S
C294 H281 0.930 1_455 S
C294 C293 1.388 . S
C294 C295 1.390 . S
C295 C294 1.390 . S
C295 C296 1.394 . S
C295 C301 1.465 . S
C296 C291 1.399 . S
C296 C295 1.394 . S
C296 C297 1.516 . S
C297 C296 1.516 . S
C297 C298 1.502 . S
C297 C299 1.561 . S
C297 C300 1.526 . S
C298 H282 0.959 . S
C298 H283 0.959 . S
C298 H284 0.961 . S
C298 C297 1.502 . S
C299 H285 0.960 . S
C299 H286 0.961 . S
C299 H287 0.959 . S
C299 C297 1.561 . S
C300 C297 1.526 . S
C300 C301 1.396 . S
C300 C305 1.390 . S
C301 C295 1.465 . S
C301 C300 1.396 . S
C301 C302 1.399 1_455 S
C302 H288 0.929 . S
C302 C301 1.399 1_655 S
C302 C303 1.385 . S
C303 H289 0.931 . S
C303 C302 1.385 . S
C303 C304 1.389 1_655 S
C304 C303 1.389 1_455 S
C304 C305 1.387 . S
C305 H290 0.930 . S
C305 C300 1.390 . S
C305 C304 1.387 . S
H306 C318 0.930 . S
H307 C320 0.930 . S
H308 C321 0.930 . S
H309 C325 0.959 . S
H310 C325 0.959 . S
H311 C325 0.961 . S
H312 C326 0.960 . S
H313 C326 0.961 . S
H314 C326 0.959 . S
H315 C329 0.929 . S
H316 C330 0.931 . S
H317 C332 0.930 . S
C318 H306 0.930 . S
C318 C319 1.399 . S
C318 C323 1.399 . S
C319 C318 1.399 . S
C319 C320 1.376 . S
C320 H307 0.930 . S
C320 C319 1.376 . S
C320 C321 1.388 . S
C321 H308 0.930 . S
C321 C320 1.388 . S
C321 C322 1.390 . S
C322 C321 1.390 . S
C322 C323 1.394 . S
C322 C328 1.465 . S
C323 C318 1.399 . S
C323 C322 1.394 . S
C323 C324 1.516 . S
C324 C323 1.516 . S
C324 C325 1.502 . S
C324 C326 1.561 1_545 S
C324 C327 1.526 . S
C325 H309 0.959 . S
C325 H310 0.959 . S
C325 H311 0.961 . S
C325 C324 1.502 . S
C326 H312 0.960 . S
C326 H313 0.961 . S
C326 H314 0.959 . S
C326 C324 1.561 1_565 S
C327 C324 1.526 . S
C327 C328 1.396 . S
C327 C332 1.390 . S
C328 C322 1.465 . S
C328 C327 1.396 . S
C328 C329 1.399 . S
C329 H315 0.929 . S
C329 C328 1.399 . S
C329 C330 1.385 . S
C330 H316 0.931 . S
C330 C329 1.385 . S
C330 C331 1.389 . S
C331 C330 1.389 . S
C331 C332 1.387 . S
C332 H317 0.930 . S
C332 C327 1.390 . S
C332 C331 1.387 . S
H333 C345 0.930 . S
H334 C347 0.930 . S
H335 C348 0.930 . S
H336 C352 0.959 . S
H337 C352 0.959 . S
H338 C352 0.961 . S
H339 C353 0.960 . S
H340 C353 0.961 . S
H341 C353 0.959 . S
H342 C356 0.929 . S
H343 C357 0.931 . S
H344 C359 0.930 . S
C345 H333 0.930 . S
C345 C346 1.399 . S
C345 C350 1.399 . S
C346 C345 1.399 . S
C346 C347 1.376 . S
C347 H334 0.930 . S
C347 C346 1.376 . S
C347 C348 1.388 . S
C348 H335 0.930 . S
C348 C347 1.388 . S
C348 C349 1.390 . S
C349 C348 1.390 . S
C349 C350 1.394 . S
C349 C355 1.465 . S
C350 C345 1.399 . S
C350 C349 1.394 . S
C350 C351 1.516 . S
C351 C350 1.516 . S
C351 C352 1.502 . S
C351 C353 1.561 . S
C351 C354 1.526 . S
C352 H336 0.959 . S
C352 H337 0.959 . S
C352 H338 0.961 . S
C352 C351 1.502 . S
C353 H339 0.960 . S
C353 H340 0.961 . S
C353 H341 0.959 . S
C353 C351 1.561 . S
C354 C351 1.526 . S
C354 C355 1.396 . S
C354 C359 1.390 . S
C355 C349 1.465 . S
C355 C354 1.396 . S
C355 C356 1.399 . S
C356 H342 0.929 . S
C356 C355 1.399 . S
C356 C357 1.385 . S
C357 H343 0.931 . S
C357 C356 1.385 . S
C357 C358 1.389 . S
C358 C357 1.389 . S
C358 C359 1.387 . S
C359 H344 0.930 . S
C359 C354 1.390 . S
C359 C358 1.387 . S
H360 C372 0.930 . S
H361 C374 0.930 1_565 S
H362 C375 0.930 . S
H363 C379 0.959 . S
H364 C379 0.959 . S
H365 C379 0.961 . S
H366 C380 0.960 . S
H367 C380 0.961 . S
H368 C380 0.959 . S
H369 C383 0.929 . S
H370 C384 0.931 1_565 S
H371 C386 0.930 . S
C372 H360 0.930 . S
C372 C373 1.399 . S
C372 C377 1.399 . S
C373 C372 1.399 . S
C373 C374 1.376 . S
C374 H361 0.930 1_545 S
C374 C373 1.376 . S
C374 C375 1.388 1_545 S
C375 H362 0.930 . S
C375 C374 1.388 1_565 S
C375 C376 1.390 1_565 S
C376 C375 1.390 1_545 S
C376 C377 1.394 . S
C376 C382 1.465 . S
C377 C372 1.399 . S
C377 C376 1.394 . S
C377 C378 1.516 . S
C378 C377 1.516 . S
C378 C379 1.502 . S
C378 C380 1.561 . S
C378 C381 1.526 . S
C379 H363 0.959 . S
C379 H364 0.959 . S
C379 H365 0.961 . S
C379 C378 1.502 . S
C380 H366 0.960 . S
C380 H367 0.961 . S
C380 H368 0.959 . S
C380 C378 1.561 . S
C381 C378 1.526 . S
C381 C382 1.396 . S
C381 C386 1.390 . S
C382 C376 1.465 . S
C382 C381 1.396 . S
C382 C383 1.399 1_545 S
C383 H369 0.929 . S
C383 C382 1.399 1_565 S
C383 C384 1.385 1_565 S
C384 H370 0.931 1_545 S
C384 C383 1.385 1_545 S
C384 C385 1.389 . S
C385 C384 1.389 . S
C385 C386 1.387 . S
C386 H371 0.930 . S
C386 C381 1.390 . S
C386 C385 1.387 . S
H387 C399 0.930 . S
H388 C401 0.930 . S
H389 C402 0.946 . S
H390 C406 0.959 . S
H391 C406 0.959 . S
H392 C406 0.961 . S
H393 C407 0.960 . S
H394 C407 0.961 . S
H395 C407 0.959 . S
H396 C410 0.929 . S
H397 C411 0.931 . S
H398 C413 0.930 . S
C399 H387 0.930 . S
C399 C400 1.399 . S
C399 C404 1.399 . S
C400 C399 1.399 . S
C400 C401 1.376 1_556 S
C401 H388 0.930 . S
C401 C400 1.376 1_554 S
C401 C402 1.403 . S
C402 H389 0.946 . S
C402 C401 1.403 . S
C402 C403 1.359 1_554 S
C403 C402 1.359 1_556 S
C403 C404 1.394 . S
C403 C409 1.465 . S
C404 C399 1.399 . S
C404 C403 1.394 . S
C404 C405 1.516 . S
C405 C404 1.516 . S
C405 C406 1.502 . S
C405 C407 1.561 . S
C405 C408 1.526 . S
C406 H390 0.959 . S
C406 H391 0.959 . S
C406 H392 0.961 . S
C406 C405 1.502 . S
C407 H393 0.960 . S
C407 H394 0.961 . S
C407 H395 0.959 . S
C407 C405 1.561 . S
C408 C405 1.526 . S
C408 C409 1.396 . S
C408 C413 1.390 . S
C409 C403 1.465 . S
C409 C408 1.396 . S
C409 C410 1.399 . S
C410 H396 0.929 . S
C410 C409 1.399 . S
C410 C411 1.385 . S
C411 H397 0.931 . S
C411 C410 1.385 . S
C411 C412 1.389 . S
C412 C411 1.389 . S
C412 C413 1.387 . S
C413 H398 0.930 . S
C413 C408 1.390 . S
C413 C412 1.387 . S
H414 C426 0.930 . S
H415 C428 0.930 1_545 S
H416 C429 0.930 . S
H417 C433 0.959 . S
H418 C433 0.959 . S
H419 C433 0.961 . S
H420 C434 0.960 . S
H421 C434 0.961 . S
H422 C434 0.959 . S
H423 C437 0.929 . S
H424 C438 0.931 . S
H425 C440 0.930 . S
C426 H414 0.930 . S
C426 C427 1.399 1_655 S
C426 C431 1.399 . S
C427 C426 1.399 1_455 S
C427 C428 1.376 . S
C428 H415 0.930 1_565 S
C428 C427 1.376 . S
C428 C429 1.388 . S
C429 H416 0.930 . S
C429 C428 1.388 . S
C429 C430 1.390 . S
C430 C429 1.390 . S
C430 C431 1.394 1_455 S
C430 C436 1.465 . S
C431 C426 1.399 . S
C431 C430 1.394 1_655 S
C431 C432 1.516 . S
C432 C431 1.516 . S
C432 C433 1.502 . S
C432 C434 1.561 . S
C432 C435 1.526 . S
C433 H417 0.959 . S
C433 H418 0.959 . S
C433 H419 0.961 . S
C433 C432 1.502 . S
C434 H420 0.960 . S
C434 H421 0.961 . S
C434 H422 0.959 . S
C434 C432 1.561 . S
C435 C432 1.526 . S
C435 C436 1.396 1_655 S
C435 C440 1.390 . S
C436 C430 1.465 . S
C436 C435 1.396 1_455 S
C436 C437 1.399 . S
C437 H423 0.929 . S
C437 C436 1.399 . S
C437 C438 1.385 . S
C438 H424 0.931 . S
C438 C437 1.385 . S
C438 C439 1.389 . S
C439 C438 1.389 . S
C439 C440 1.387 1_455 S
C440 H425 0.930 . S
C440 C435 1.390 . S
C440 C439 1.387 1_655 S
H441 C453 0.930 . S
H442 C455 0.930 . S
H443 C456 0.930 . S
H444 C460 0.959 . S
H445 C460 0.959 . S
H446 C460 0.961 . S
H447 C461 0.960 . S
H448 C461 0.961 . S
H449 C461 0.959 . S
H450 C464 0.929 . S
H451 C465 0.931 . S
H452 C467 0.930 1_565 S
C453 H441 0.930 . S
C453 C454 1.399 1_565 S
C453 C458 1.399 1_565 S
C454 C453 1.399 1_545 S
C454 C455 1.376 . S
C455 H442 0.930 . S
C455 C454 1.376 . S
C455 C456 1.388 . S
C456 H443 0.930 . S
C456 C455 1.388 . S
C456 C457 1.390 . S
C457 C456 1.390 . S
C457 C458 1.394 . S
C457 C463 1.465 . S
C458 C453 1.399 1_545 S
C458 C457 1.394 . S
C458 C459 1.516 1_545 S
C459 C458 1.516 1_565 S
C459 C460 1.502 . S
C459 C461 1.561 . S
C459 C462 1.526 1_565 S
C460 H444 0.959 . S
C460 H445 0.959 . S
C460 H446 0.961 . S
C460 C459 1.502 . S
C461 H447 0.960 . S
C461 H448 0.961 . S
C461 H449 0.959 . S
C461 C459 1.561 . S
C462 C459 1.526 1_545 S
C462 C463 1.396 . S
C462 C467 1.390 . S
C463 C457 1.465 . S
C463 C462 1.396 . S
C463 C464 1.399 . S
C464 H450 0.929 . S
C464 C463 1.399 . S
C464 C465 1.385 . S
C465 H451 0.931 . S
C465 C464 1.385 . S
C465 C466 1.389 . S
C466 C465 1.389 . S
C466 C467 1.387 . S
C467 H452 0.930 1_545 S
C467 C462 1.390 . S
C467 C466 1.387 . S
H468 C480 0.930 . S
H469 C482 0.930 . S
H470 C483 0.930 . S
H471 C487 0.959 . S
H472 C487 0.959 . S
H473 C487 0.961 . S
H474 C488 0.960 . S
H475 C488 0.961 . S
H476 C488 0.959 . S
H477 C491 0.929 . S
H478 C492 0.931 . S
H479 C494 0.930 . S
C480 H468 0.930 . S
C480 C481 1.399 . S
C480 C485 1.399 . S
C481 C480 1.399 . S
C481 C482 1.376 . S
C482 H469 0.930 . S
C482 C481 1.376 . S
C482 C483 1.388 . S
C483 H470 0.930 . S
C483 C482 1.388 . S
C483 C484 1.390 . S
C484 C483 1.390 . S
C484 C485 1.394 . S
C484 C490 1.465 . S
C485 C480 1.399 . S
C485 C484 1.394 . S
C485 C486 1.516 . S
C486 C485 1.516 . S
C486 C487 1.502 . S
C486 C488 1.561 . S
C486 C489 1.526 . S
C487 H471 0.959 . S
C487 H472 0.959 . S
C487 H473 0.961 . S
C487 C486 1.502 . S
C488 H474 0.960 . S
C488 H475 0.961 . S
C488 H476 0.959 . S
C488 C486 1.561 . S
C489 C486 1.526 . S
C489 C490 1.396 . S
C489 C494 1.390 . S
C490 C484 1.465 . S
C490 C489 1.396 . S
C490 C491 1.399 . S
C491 H477 0.929 . S
C491 C490 1.399 . S
C491 C492 1.385 . S
C492 H478 0.931 . S
C492 C491 1.385 . S
C492 C493 1.389 . S
C493 C492 1.389 . S
C493 C494 1.387 . S
C494 H479 0.930 . S
C494 C489 1.390 . S
C494 C493 1.387 . S
H495 C507 0.930 1_655 S
H496 C509 0.930 . S
H497 C510 0.930 . S
H498 C514 0.959 . S
H499 C514 0.959 . S
H500 C514 0.961 . S
H501 C515 0.960 . S
H502 C515 0.961 . S
H503 C515 0.959 . S
H504 C518 0.929 . S
H505 C519 0.931 . S
H506 C521 0.930 . S
C507 H495 0.930 1_455 S
C507 C508 1.399 . S
C507 C512 1.399 . S
C508 C507 1.399 . S
C508 C509 1.376 . S
C509 H496 0.930 . S
C509 C508 1.376 . S
C509 C510 1.388 . S
C510 H497 0.930 . S
C510 C509 1.388 . S
C510 C511 1.390 . S
C511 C510 1.390 . S
C511 C512 1.394 . S
C511 C517 1.465 . S
C512 C507 1.399 . S
C512 C511 1.394 . S
C512 C513 1.516 1_455 S
C513 C512 1.516 1_655 S
C513 C514 1.502 . S
C513 C515 1.561 . S
C513 C516 1.526 1_655 S
C514 H498 0.959 . S
C514 H499 0.959 . S
C514 H500 0.961 . S
C514 C513 1.502 . S
C515 H501 0.960 . S
C515 H502 0.961 . S
C515 H503 0.959 . S
C515 C513 1.561 . S
C516 C513 1.526 1_455 S
C516 C517 1.396 . S
C516 C521 1.390 1_455 S
C517 C511 1.465 . S
C517 C516 1.396 . S
C517 C518 1.399 . S
C518 H504 0.929 . S
C518 C517 1.399 . S
C518 C519 1.385 . S
C519 H505 0.931 . S
C519 C518 1.385 . S
C519 C520 1.389 . S
C520 C519 1.389 . S
C520 C521 1.387 1_455 S
C521 H506 0.930 . S
C521 C516 1.390 1_655 S
C521 C520 1.387 1_655 S
C223 C61 1.408 . S
C211 C10 1.416 . S
C238 C21 1.397 . S
C250 C131 1.464 . S
C265 C31 1.342 . S
C277 C183 1.446 . S
C292 C0 1.378 . S
C304 C77 1.443 . S
C331 C121 1.432 . S
C319 C18 1.393 . S
C346 C34 1.427 . S
C358 C167 1.422 . S
C385 C114 1.399 . S
C373 C36 1.403 . S
C400 C8 1.418 1_566 S
C412 C174 1.421 . S
C439 C68 1.415 . S
C427 C23 1.421 1_565 S
C466 C130 1.390 . S
C454 C26 1.294 . S
C493 C184 1.436 . S
C481 C5 1.413 1_556 S
C508 C13 1.428 . S
C520 C78 1.422 . S
