# Generated by pormake.
# Topology pts, (4,4)-cn, num edge types: 1
# Building blocks:
#     Node 0, Type 0, BuildingBlock: ESEHIV_clean_sbu_0, # of connection points: 4
#     Node 1, Type 0, BuildingBlock: ESEHIV_clean_sbu_0, # of connection points: 4
#     Node 2, Type 1, BuildingBlock: UXUYUI_clean_sbu_0, # of connection points: 4
#     Node 3, Type 1, BuildingBlock: UXUYUI_clean_sbu_0, # of connection points: 4
#     Edge 4, Type (0, 1), BuildingBlock: UVAHIK_clean_linker_0, # of connection points: 2
#     Edge 5, Type (0, 1), BuildingBlock: UVAHIK_clean_linker_0, # of connection points: 2
#     Edge 6, Type (0, 1), BuildingBlock: UVAHIK_clean_linker_0, # of connection points: 2
#     Edge 7, Type (0, 1), BuildingBlock: UVAHIK_clean_linker_0, # of connection points: 2
#     Edge 8, Type (0, 1), BuildingBlock: UVAHIK_clean_linker_0, # of connection points: 2
#     Edge 9, Type (0, 1), BuildingBlock: UVAHIK_clean_linker_0, # of connection points: 2
#     Edge 10, Type (0, 1), BuildingBlock: UVAHIK_clean_linker_0, # of connection points: 2
#     Edge 11, Type (0, 1), BuildingBlock: UVAHIK_clean_linker_0, # of connection points: 2
# Relax obj value: 0.002
# Max RMSD: 0.096
# Mean RMSD: 0.062
data_MOF--net-pts--node1-ESEHIV_clean_sbu_0--node2-UXUYUI_clean_sbu_0--edge1-UVAHIK_clean_linker_0
_symmetry_space_group_name_H-M    P1
_symmetry_Int_Tables_number       1
_symmetry_cell_setting            triclinic
loop_
_symmetry_equiv_pos_as_xyz
'x, y, z'
_cell_length_a     37.698379
_cell_length_b     37.780083
_cell_length_c     56.300767
_cell_angle_alpha  92.377218
_cell_angle_beta   92.387821
_cell_angle_gamma 90.002346
loop_
_atom_site_label
_atom_site_type_symbol
_atom_site_fract_x
_atom_site_fract_y
_atom_site_fract_z
_atom_type_partial_charge
Cu0 Cu 0.53887 0.02121 0.01722 0.0
N1 N 0.56187 0.99411 0.994 0.0
N2 N 0.60185 0.98177 0.96659 0.0
C3 C 0.58878 1.00657 0.98179 0.0
C4 C 0.58223 0.95241 0.96939 0.0
C5 C 0.55746 0.96016 0.98629 0.0
O6 O 0.57616 0.0463 0.03619 0.0
C7 C 0.47792 0.03223 0.99127 0.0
O8 O 0.4781 0.99768 0.99311 0.0
H9 H 0.59916 0.03319 0.98458 0.0
H10 H 0.53787 0.94228 0.99259 0.0
N11 N 0.51356 0.99418 0.03793 0.0
N12 N 0.47115 0.98182 0.06295 0.0
C13 C 0.48493 1.0063 0.04919 0.0
C14 C 0.51834 0.96079 0.04486 0.0
C15 C 0.49222 0.95311 0.06041 0.0
C16 C 0.60003 0.0255 0.04422 0.0
O17 O 0.59622 0.99131 0.03963 0.0
H18 H 0.47459 0.03282 0.04737 0.0
H19 H 0.53919 0.94324 0.039 0.0
O20 O 0.50392 0.05026 1.00058 0.0
H21 H 0.58538 0.92721 0.95986 0.0
H22 H 0.48867 0.92819 0.06883 0.0
Cu23 Cu 0.06842 0.55254 0.51687 0.0
N24 N 0.09731 0.52594 0.53721 0.0
N25 N 0.11118 0.48523 0.56376 0.0
C26 C 0.08483 0.50193 0.55176 0.0
C27 C 0.14154 0.49952 0.55652 0.0
C28 C 0.13289 0.52475 0.54017 0.0
O29 O 0.0352 0.52001 0.49977 0.0
C30 C 0.07078 0.61149 0.54586 0.0
O31 O 0.10421 0.60618 0.54101 0.0
H32 H 0.05686 0.49604 0.55283 0.0
H33 H 0.15121 0.5408 0.53097 0.0
N34 N 0.09357 0.57508 0.49391 0.0
N35 N 0.10507 0.61561 0.46737 0.0
C36 C 0.08318 0.60555 0.48425 0.0
C37 C 0.12299 0.56512 0.4827 0.0
C38 C 0.1302 0.59013 0.46631 0.0
C39 C 0.04868 0.49086 0.49231 0.0
O40 O 0.08261 0.48493 0.49659 0.0
H41 H 0.05937 0.61952 0.48918 0.0
H42 H 0.13784 0.5412 0.48596 0.0
O43 O 0.04758 0.58979 0.5368 0.0
H44 H 0.16809 0.49231 0.56257 0.0
H45 H 0.15223 0.58954 0.45458 0.0
Li46 Li 0.03814 0.09076 0.28622 0.0
Li47 Li 0.03837 0.02619 0.28402 0.0
Li48 Li 0.07083 0.05992 0.2552 0.0
Li49 Li 1.00593 0.05833 0.25271 0.0
C50 C 0.10443 0.07288 0.30572 0.0
N51 N 0.15426 0.10305 0.3378 0.0
C52 C 0.11252 0.05689 0.32724 0.0
C53 C 0.12188 0.10405 0.30046 0.0
C54 C 0.13774 0.0726 0.34324 0.0
C55 C 0.14694 0.11893 0.31692 0.0
C56 C 0.98399 0.05855 0.30995 0.0
C57 C 0.93562 0.06347 0.3366 0.0
N58 N 0.95903 0.06035 0.35544 0.0
C59 C 1.00754 0.05533 0.32956 0.0
C60 C 0.94772 0.06261 0.31346 0.0
C61 C 0.99443 0.05633 0.35242 0.0
C62 C 0.01371 0.15882 0.29769 0.0
N63 N 0.03421 0.13248 0.30659 0.0
C64 C 0.04369 0.16587 0.34336 0.0
C65 C 0.04893 0.13536 0.32906 0.0
C66 C 0.02243 0.19355 0.33473 0.0
C67 C 1.00737 0.18961 0.31148 0.0
H68 H 1.00174 0.15561 0.27993 0.0
H69 H 0.06436 0.11387 0.33612 0.0
C70 C 0.07371 0.96853 0.30319 0.0
N71 N 0.04112 0.98377 0.30133 0.0
C72 C 0.07867 0.93761 0.31566 0.0
C73 C 0.01627 0.93834 0.32393 0.0
C74 C 0.01248 0.96922 0.31117 0.0
C75 C 0.04976 0.92215 0.32635 0.0
H76 H 0.09597 0.98063 0.29508 0.0
H77 H 0.98671 0.98154 0.30914 0.0
C78 C 0.05157 0.12254 0.23659 0.0
N79 N 0.08124 0.1674 0.20533 0.0
C80 C 0.0446 0.11754 0.21212 0.0
C81 C 0.07305 0.15077 0.24521 0.0
C82 C 0.06003 0.14037 0.19658 0.0
C83 C 0.08795 0.17306 0.22911 0.0
C84 C 0.02127 0.98759 0.24203 0.0
C85 C 0.03607 0.96284 0.22621 0.0
C86 C 0.98805 0.98099 0.25109 0.0
C87 C 0.01736 0.93176 0.21972 0.0
C88 C 0.97019 0.9496 0.24417 0.0
N89 N 0.98509 0.92585 0.22876 0.0
C90 C 0.14496 0.0574 0.24659 0.0
C91 C 0.10671 0.05295 0.21215 0.0
C92 C 0.17467 0.0524 0.23281 0.0
N93 N 0.1118 0.05776 0.23613 0.0
C94 C 0.13569 0.04802 0.19766 0.0
C95 C 0.17026 0.04735 0.20799 0.0
H96 H 0.14844 0.05993 0.26569 0.0
H97 H 0.08003 0.05188 0.20433 0.0
C98 C 0.93501 0.07467 0.23903 0.0
N99 N 0.96545 0.05962 0.23139 0.0
C100 C 0.90526 0.07707 0.2235 0.0
C101 C 0.93892 0.04867 0.19248 0.0
C102 C 0.96793 0.04667 0.20864 0.0
C103 C 0.90695 0.06404 0.19981 0.0
H104 H 0.93393 0.08504 0.25718 0.0
H105 H 0.99263 0.03519 0.20298 0.0
O106 O 0.07953 0.05804 0.28996 0.0
O107 O 0.99624 0.05785 0.28739 0.0
O108 O 0.03685 0.10035 0.25205 0.0
O109 O 0.03938 0.01808 0.24853 0.0
H110 H 0.09936 0.03269 0.33159 0.0
H111 H 0.11624 0.11649 0.28379 0.0
H112 H 0.14416 0.06059 0.35999 0.0
H113 H 0.16059 0.14309 0.31308 0.0
H114 H 0.90761 0.06661 0.33958 0.0
H115 H 0.03561 0.052 0.32717 0.0
H116 H 0.92909 0.06503 0.29847 0.0
H117 H 0.0124 0.05388 0.36775 0.0
H118 H 0.05631 0.16767 0.36099 0.0
H119 H 0.99022 0.20973 0.30411 0.0
H120 H 0.105 0.92629 0.31727 0.0
H121 H 0.99318 0.92707 0.33161 0.0
H122 H 0.0277 0.09607 0.20517 0.0
H123 H 0.07793 0.1556 0.26413 0.0
H124 H 0.05512 0.13661 0.17758 0.0
H125 H 0.10474 0.19492 0.23553 0.0
H126 H 0.06177 0.96762 0.21904 0.0
H127 H 0.97611 0.99985 0.26331 0.0
H128 H 0.0285 0.91235 0.20749 0.0
H129 H 0.94448 0.94414 0.25105 0.0
H130 H 0.20082 0.05218 0.24154 0.0
H131 H 0.13096 0.04351 0.17868 0.0
H132 H 0.88114 0.08873 0.23007 0.0
H133 H 0.94178 0.0388 0.17433 0.0
Li134 Li 0.0095 0.05173 0.78301 0.0
Li135 Li 0.07475 0.05244 0.78491 0.0
Li136 Li 0.04313 0.08561 0.75325 0.0
Li137 Li 0.04408 0.02154 0.75239 0.0
C138 C 0.02495 0.12437 0.79423 0.0
N139 N 0.99082 0.18751 0.80449 0.0
C140 C 0.04008 0.14881 0.81099 0.0
C141 C 0.99253 0.13205 0.78261 0.0
C142 C 0.02238 0.18058 0.81596 0.0
C143 C 0.97568 0.16412 0.78807 0.0
C144 C 0.05671 0.99434 0.80519 0.0
C145 C 0.10053 0.95486 0.82176 0.0
N146 N 0.0877 0.96149 0.84373 0.0
C147 C 0.04379 1.0006 0.82788 0.0
C148 C 0.08514 0.97113 0.80203 0.0
C149 C 0.05987 0.98378 0.84716 0.0
C150 C 0.94762 0.01869 0.7964 0.0
N151 N 0.96807 0.0479 0.8014 0.0
C152 C 0.93039 0.06635 0.83278 0.0
C153 C 0.96031 0.07139 0.81941 0.0
C154 C 0.90849 0.03659 0.82781 0.0
C155 C 0.91753 0.01258 0.80932 0.0
H156 H 0.95505 0.99977 0.78258 0.0
H157 H 0.97761 0.0937 0.82379 0.0
C158 C 0.14839 0.05239 0.79758 0.0
N159 N 0.11545 0.05538 0.80638 0.0
C160 C 0.17859 0.05651 0.81267 0.0
C161 C 0.1405 0.06679 0.84571 0.0
C162 C 0.11102 0.06267 0.82992 0.0
C163 C 0.17496 0.06388 0.83714 0.0
H164 H 0.1513 0.04757 0.77873 0.0
H165 H 0.08453 0.06566 0.83641 0.0
C166 C 0.98741 0.04092 0.72619 0.0
N167 N 0.95945 0.01419 0.68294 0.0
C168 C 1.00024 0.05268 0.70494 0.0
C169 C 0.9603 0.01561 0.72542 0.0
C170 C 0.98574 0.03888 0.68326 0.0
C171 C 0.94656 1.00238 0.70339 0.0
C172 C 0.10536 0.04041 0.73345 0.0
C173 C 0.10691 0.05678 0.71169 0.0
C174 C 0.12481 0.0095 0.73721 0.0
C175 C 0.12768 0.04171 0.69396 0.0
C176 C 0.14521 0.99523 0.71901 0.0
N177 N 0.1462 0.01149 0.69794 0.0
C178 C 0.07849 0.14372 0.73681 0.0
C179 C 0.01787 0.14183 0.72387 0.0
C180 C 0.08403 0.17389 0.72397 0.0
N181 N 0.04602 0.12805 0.73622 0.0
C182 C 0.02223 0.17204 0.71071 0.0
C183 C 0.05582 0.18824 0.7104 0.0
H184 H 0.10028 0.13235 0.74703 0.0
H185 H 0.99222 0.129 0.72388 0.0
C186 C 0.03315 0.9485 0.74151 0.0
N187 N 0.04289 0.97929 0.73187 0.0
C188 C 0.03097 0.91702 0.72753 0.0
C189 C 0.04867 0.94947 0.6939 0.0
C190 C 0.05013 0.9803 0.70843 0.0
C191 C 0.03912 0.91725 0.70342 0.0
H192 H 0.02699 0.94839 0.76009 0.0
H193 H 0.05688 1.00504 0.70086 0.0
O194 O 0.04223 0.0934 0.78896 0.0
O195 O 0.04179 0.01105 0.78616 0.0
O196 O 1.00164 0.0538 0.74759 0.0
O197 O 0.08521 0.0548 0.75103 0.0
H198 H 0.06525 0.14327 0.82004 0.0
H199 H 0.98044 0.11345 0.76958 0.0
H200 H 0.03375 0.19975 0.82891 0.0
H201 H 0.95057 0.17041 0.77924 0.0
H202 H 0.12266 0.93695 0.81961 0.0
H203 H 0.02184 0.01855 0.83063 0.0
H204 H 0.09525 0.96581 0.78454 0.0
H205 H 0.05031 0.98853 0.86485 0.0
H206 H 0.92494 0.08515 0.84721 0.0
H207 H 0.90145 0.98933 0.80477 0.0
H208 H 0.2045 0.05475 0.80511 0.0
H209 H 0.13629 0.07208 0.86443 0.0
H210 H 0.0217 0.07165 0.70514 0.0
H211 H 0.95004 1.00614 0.74162 0.0
H212 H 0.99559 0.04759 0.6667 0.0
H213 H 0.92566 0.98269 0.70254 0.0
H214 H 0.09198 0.08065 0.70842 0.0
H215 H 0.12395 0.99653 0.75394 0.0
H216 H 0.12898 0.05399 0.67699 0.0
H217 H 0.16023 0.9712 0.72164 0.0
H218 H 0.11018 0.18584 0.72469 0.0
H219 H 0.99976 0.18203 0.70043 0.0
H220 H 0.02364 0.89268 0.73558 0.0
H221 H 0.05462 0.95091 0.6753 0.0
C222 C 0.41282 0.00912 0.07031 0.0
C223 C 0.44022 0.98588 0.07708 0.0
C224 C 0.38335 0.01413 0.08431 0.0
C225 C 0.35431 1.00657 0.14554 0.0
H226 H 0.25995 0.01402 0.11604 0.0
C227 C 0.22851 0.01714 0.20084 0.0
C228 C 0.20138 0.04004 0.19311 0.0
C229 C 0.25746 0.00969 0.18672 0.0
C230 C 0.28615 0.01244 0.12457 0.0
H231 H 0.45788 0.94943 0.10381 0.0
H232 H 0.40618 0.95799 0.12826 0.0
H233 H 0.31044 1.00179 0.09132 0.0
H234 H 0.18376 0.07349 0.16458 0.0
H235 H 0.23442 0.06081 0.14003 0.0
H236 H 0.33014 0.01763 0.17877 0.0
C237 C 0.40772 0.97255 0.11216 0.0
C238 C 0.31511 1.00533 0.11039 0.0
C239 C 0.43717 0.96736 0.09805 0.0
C240 C 0.20398 0.0554 0.17093 0.0
C241 C 0.23301 0.04805 0.15683 0.0
C242 C 0.32537 0.0138 0.15973 0.0
C243 C 0.38052 0.99611 0.10549 0.0
C244 C 0.34956 1.00245 0.12068 0.0
C245 C 0.26009 0.02502 0.16451 0.0
C246 C 0.29091 0.01697 0.14943 0.0
H247 H 0.41406 0.02341 0.0541 0.0
H248 H 0.36306 0.03269 0.07873 0.0
H249 H 0.38056 1.00502 0.15402 0.0
H250 H 0.22704 1.00436 0.21764 0.0
H251 H 0.27747 0.99138 0.19305 0.0
C252 C 0.13394 0.43123 0.58275 0.0
C253 C 0.10726 0.45691 0.57992 0.0
C254 C 0.12919 0.4028 0.59747 0.0
C255 C 0.07615 0.37309 0.64693 0.0
H256 H 0.10313 0.27912 0.62402 0.0
C257 C 0.03624 0.24642 0.69387 0.0
C258 C 0.06175 0.2194 0.69568 0.0
C259 C 0.04208 0.27567 0.68005 0.0
C260 C 0.09583 0.30522 0.63084 0.0
H261 H 0.05519 0.47336 0.59104 0.0
H262 H 0.04674 0.42367 0.61642 0.0
H263 H 0.11364 0.32987 0.59991 0.0
H264 H 0.11319 0.20179 0.68394 0.0
H265 H 0.12369 0.25302 0.66038 0.0
H266 H 0.05834 0.34843 0.67787 0.0
C267 C 0.07139 0.42554 0.60733 0.0
C268 C 0.10189 0.33434 0.617 0.0
C269 C 0.07608 0.45385 0.59256 0.0
C270 C 0.09316 0.22231 0.68324 0.0
C271 C 0.09899 0.25151 0.66946 0.0
C272 C 0.07015 0.34396 0.6608 0.0
C273 C 0.09775 0.39948 0.60982 0.0
C274 C 0.09206 0.36863 0.62485 0.0
C275 C 0.07355 0.27858 0.66767 0.0
C276 C 0.07987 0.30964 0.65292 0.0
H277 H 0.15815 0.43262 0.57317 0.0
H278 H 0.15019 0.3834 0.5992 0.0
H279 H 0.06869 0.39919 0.65365 0.0
H280 H 0.01189 0.2452 0.70335 0.0
H281 H 0.02174 0.29583 0.67888 0.0
C282 C 0.66169 0.01548 0.05967 0.0
C283 C 0.63235 0.03828 0.0578 0.0
C284 C 0.69194 0.02547 0.0733 0.0
C285 C 0.7224 0.08065 0.12465 0.0
H286 H 0.81503 0.05337 0.10259 0.0
C287 C 0.8532 0.09617 0.18328 0.0
C288 C 0.87567 0.06636 0.18282 0.0
C289 C 0.82399 0.09823 0.16718 0.0
C290 C 0.78936 0.06109 0.10905 0.0
H291 H 0.61197 0.08985 0.06855 0.0
H292 H 0.66538 0.10739 0.09294 0.0
H293 H 0.76325 0.04891 0.07525 0.0
H294 H 0.88423 0.015 0.16531 0.0
H295 H 0.8338 0.01882 0.13718 0.0
H296 H 0.74861 0.09192 0.1587 0.0
C297 C 0.66465 0.0817 0.08365 0.0
C298 C 0.75972 0.05864 0.09337 0.0
C299 C 0.63423 0.07178 0.06964 0.0
C300 C 0.86807 0.03869 0.1659 0.0
C301 C 0.83908 0.04086 0.14976 0.0
C302 C 0.7522 0.08318 0.14039 0.0
C303 C 0.6938 0.05852 0.08562 0.0
C304 C 0.72572 0.06729 0.10117 0.0
C305 C 0.81675 0.07067 0.15014 0.0
C306 C 0.78583 0.07237 0.13292 0.0
H307 H 0.66127 0.98954 0.05071 0.0
H308 H 0.71361 1.00673 0.07471 0.0
H309 H 0.69654 0.08731 0.13123 0.0
H310 H 0.85848 0.11821 0.19584 0.0
H311 H 0.80741 0.12163 0.16782 0.0
C312 C 0.08736 0.66868 0.56672 0.0
C313 C 0.06172 0.64212 0.56174 0.0
C314 C 0.08116 0.69656 0.58293 0.0
C315 C 0.01249 0.74668 0.61449 0.0
H316 H 0.09354 0.77475 0.65576 0.0
C317 C 0.01022 0.85988 0.68869 0.0
C318 C 0.0386 0.88402 0.68836 0.0
C319 C 0.01006 0.82866 0.67433 0.0
C320 C 0.07069 0.76731 0.64433 0.0
H321 H 1.00876 0.62472 0.56933 0.0
H322 H 0.99788 0.67384 0.59818 0.0
H323 H 0.09782 0.72308 0.62881 0.0
H324 H 0.08915 0.8942 0.67295 0.0
H325 H 0.089 0.83981 0.6481 0.0
H326 H 0.98552 0.79137 0.63022 0.0
C327 C 0.02283 0.67288 0.58931 0.0
C328 C 0.07313 0.73774 0.62884 0.0
C329 C 0.02904 0.64478 0.57284 0.0
C330 C 0.0668 0.87627 0.67347 0.0
C331 C 0.06684 0.84498 0.65939 0.0
C332 C 0.00997 0.77631 0.63021 0.0
C333 C 0.04921 0.69867 0.59487 0.0
C334 C 0.04446 0.72762 0.61322 0.0
C335 C 0.03855 0.82079 0.65969 0.0
C336 C 0.03941 0.78741 0.64482 0.0
H337 H 0.11262 0.66787 0.55821 0.0
H338 H 0.10164 0.71648 0.58621 0.0
H339 H 0.98996 0.73962 0.60268 0.0
H340 H 0.98801 0.86532 0.69988 0.0
H341 H 0.98797 0.81043 0.67495 0.0
C342 C 0.45061 0.07651 0.96377 0.0
C343 C 0.44694 0.04862 0.97922 0.0
C344 C 0.42138 0.08733 0.94958 0.0
C345 C 0.32314 0.08171 0.94245 0.0
H346 H 0.33814 0.07847 0.87468 0.0
C347 C 0.20725 0.09435 0.87245 0.0
C348 C 0.20692 0.06883 0.85349 0.0
C349 C 0.23716 0.09869 0.88788 0.0
C350 C 0.33355 0.07961 0.89356 0.0
H351 H 0.40982 0.01178 0.99317 0.0
H352 H 0.35906 0.03103 0.969 0.0
H353 H 0.38912 0.07599 0.90286 0.0
H354 H 0.23805 0.02776 0.83612 0.0
H355 H 0.29015 0.03558 0.86284 0.0
H356 H 0.26754 0.08384 0.9332 0.0
C357 C 0.38422 0.04446 0.96757 0.0
C358 C 0.36277 0.07863 0.9097 0.0
C359 C 0.41337 0.03327 0.98131 0.0
C360 C 0.23746 0.04808 0.85024 0.0
C361 C 0.26741 0.05258 0.86557 0.0
C362 C 0.29396 0.08297 0.92634 0.0
C363 C 0.38802 0.07094 0.95109 0.0
C364 C 0.3578 0.07864 0.93429 0.0
C365 C 0.26757 0.0778 0.88465 0.0
C366 C 0.29877 0.08093 0.90169 0.0
H367 H 0.47631 0.08857 0.96176 0.0
H368 H 0.425 0.10791 0.93706 0.0
H369 H 0.31851 0.08197 0.96132 0.0
H370 H 0.1845 0.11128 0.87527 0.0
H371 H 0.23656 0.11857 0.90228 0.0
C372 C 0.01213 0.47231 0.45591 0.0
C373 C 0.02813 0.46404 0.47794 0.0
C374 C 1.00126 0.44509 0.43951 0.0
C375 C 0.98235 0.3492 0.43183 0.0
H376 H 0.0328 0.354 0.37345 0.0
C377 C 0.01296 0.22393 0.37469 0.0
C378 C 0.01574 0.22603 0.34994 0.0
C379 C 1.00773 0.25439 0.38907 0.0
C380 C 0.01776 0.35234 0.38932 0.0
H381 H 0.04345 0.42157 0.50084 0.0
H382 H 0.02316 0.37418 0.47273 0.0
H383 H 0.03191 0.4054 0.40091 0.0
H384 H 0.0146 0.26235 0.32102 0.0
H385 H 1.00381 0.31504 0.34587 0.0
H386 H 0.96825 0.29618 0.42045 0.0
C387 C 0.01915 0.40142 0.46795 0.0
C388 C 0.0173 0.38192 0.40509 0.0
C389 C 0.03074 0.42849 0.48404 0.0
C390 C 0.01228 0.25946 0.33994 0.0
C391 C 1.00657 0.2899 0.3543 0.0
C392 C 0.98232 0.31978 0.4159 0.0
C393 C 1.00558 0.40936 0.44518 0.0
C394 C 1.0004 0.38034 0.42678 0.0
C395 C 1.0046 0.28788 0.37912 0.0
C396 C 1.00093 0.32055 0.39473 0.0
H397 H 0.0105 0.49957 0.45071 0.0
H398 H 0.99086 0.45188 0.42206 0.0
H399 H 0.96895 0.34737 0.44839 0.0
H400 H 0.01477 0.19869 0.38309 0.0
H401 H 1.00695 0.25162 0.4081 0.0
C402 C 0.6403 0.01973 0.94374 0.0
C403 C 0.63134 0.98601 0.95135 0.0
C404 C 0.66986 0.0244 0.93003 0.0
C405 C 0.73244 0.97683 0.89112 0.0
H406 H 0.79217 0.05896 0.90623 0.0
C407 C 0.86806 0.99601 0.84861 0.0
C408 C 0.87672 0.03036 0.84198 0.0
C409 C 0.83816 0.99012 0.86182 0.0
C410 C 0.77558 0.03611 0.90157 0.0
H411 H 0.64642 0.93062 0.95013 0.0
H412 H 0.6981 0.93874 0.92615 0.0
H413 H 0.73994 0.04928 0.92917 0.0
H414 H 0.86027 0.08537 0.84385 0.0
H415 H 0.80816 0.07512 0.86688 0.0
H416 H 0.76815 0.9637 0.86349 0.0
C417 C 0.68198 0.96156 0.93066 0.0
C418 C 0.74559 0.03054 0.91475 0.0
C419 C 0.65232 0.95689 0.94441 0.0
C420 C 0.85472 0.05867 0.84894 0.0
C421 C 0.82482 0.05277 0.86216 0.0
C422 C 0.76246 0.98242 0.87792 0.0
C423 C 0.69132 0.99547 0.92352 0.0
C424 C 0.72354 1.00092 0.90964 0.0
C425 C 0.81614 0.01842 0.86878 0.0
C426 C 0.78435 0.0122 0.88293 0.0
H427 H 0.62435 0.04265 0.94828 0.0
H428 H 0.67578 0.05075 0.92441 0.0
H429 H 0.71582 0.95398 0.88652 0.0
H430 H 0.88472 0.97367 0.8439 0.0
H431 H 0.83262 0.96342 0.86693 0.0
C432 C 0.08174 0.67599 0.4613 0.0
C433 C 0.10127 0.64649 0.45314 0.0
C434 C 0.07656 0.70527 0.44721 0.0
C435 C 0.112 0.75117 0.39669 0.0
H436 H 0.01817 0.79317 0.3929 0.0
C437 C 0.07641 0.86184 0.33182 0.0
C438 C 0.05473 0.8896 0.34013 0.0
C439 C 0.08188 0.83167 0.34507 0.0
C440 C 0.04464 0.78208 0.39396 0.0
H441 H 0.13108 0.62517 0.42369 0.0
H442 H 0.1223 0.6765 0.39917 0.0
H443 H 0.02877 0.74195 0.41711 0.0
H444 H 0.02202 0.90745 0.36902 0.0
H445 H 0.03175 0.85504 0.39225 0.0
H446 H 0.128 0.79152 0.37376 0.0
C447 C 0.11111 0.6769 0.41659 0.0
C448 C 0.05071 0.75265 0.40783 0.0
C449 C 0.11619 0.64746 0.43068 0.0
C450 C 0.03845 0.88634 0.36194 0.0
C451 C 0.04404 0.85623 0.37525 0.0
C452 C 0.10598 0.78073 0.38289 0.0
C453 C 0.09092 0.70599 0.4246 0.0
C454 C 0.08448 0.73692 0.40945 0.0
C455 C 0.06591 0.82852 0.36704 0.0
C456 C 0.07223 0.79666 0.38141 0.0
H457 H 0.07053 0.67665 0.47869 0.0
H458 H 0.0615 0.72754 0.45412 0.0
H459 H 0.13842 0.73993 0.39778 0.0
H460 H 0.08893 0.86328 0.31491 0.0
H461 H 0.09836 0.81062 0.33797 0.0
loop_
_geom_bond_atom_site_label_1
_geom_bond_atom_site_label_2
_geom_bond_distance
_geom_bond_site_symmetry_2
_ccdc_geom_bond_type
Cu0 N1 1.999 1_554 S
Cu0 O6 1.974 . S
Cu0 N11 1.985 . S
Cu0 O20 1.959 1_554 S
N1 Cu0 1.999 1_556 S
N1 C3 1.263 . S
N1 C5 1.389 . S
N2 C3 1.358 . S
N2 C4 1.400 . S
C3 N1 1.263 . S
C3 N2 1.358 . S
C3 H9 0.930 . S
C4 N2 1.400 . S
C4 C5 1.351 . S
C4 H21 0.930 . S
C5 N1 1.389 . S
C5 C4 1.351 . S
C5 H10 0.930 . S
O6 Cu0 1.974 . S
O6 C16 1.282 . S
C7 O8 1.236 1_545 S
C7 O20 1.251 . S
O8 C7 1.236 1_565 S
H9 C3 0.930 . S
H10 C5 0.930 . S
N11 Cu0 1.985 . S
N11 C13 1.335 . S
N11 C14 1.390 . S
N12 C13 1.345 . S
N12 C15 1.336 . S
C13 N11 1.335 . S
C13 N12 1.345 . S
C13 H18 0.930 . S
C14 N11 1.390 . S
C14 C15 1.346 . S
C14 H19 0.930 . S
C15 N12 1.336 . S
C15 C14 1.346 . S
C15 H22 0.929 . S
C16 O6 1.282 . S
C16 O17 1.216 1_545 S
O17 C16 1.216 1_565 S
H18 C13 0.930 . S
H19 C14 0.930 . S
O20 Cu0 1.959 1_556 S
O20 C7 1.251 . S
H21 C4 0.930 . S
H22 C15 0.929 . S
Cu23 N24 1.999 . S
Cu23 O29 1.974 . S
Cu23 N34 1.985 . S
Cu23 O43 1.959 . S
N24 Cu23 1.999 . S
N24 C26 1.263 . S
N24 C28 1.405 . S
N25 C26 1.358 . S
N25 C27 1.400 . S
C26 N24 1.263 . S
C26 N25 1.358 . S
C26 H32 0.930 . S
C27 N25 1.400 . S
C27 C28 1.353 . S
C27 H44 0.930 1_455 S
C28 N24 1.405 . S
C28 C27 1.353 . S
C28 H33 0.915 1_455 S
O29 Cu23 1.974 . S
O29 C39 1.282 . S
C30 O31 1.261 . S
C30 O43 1.251 . S
O31 C30 1.261 . S
H32 C26 0.930 . S
H33 C28 0.915 1_655 S
N34 Cu23 1.985 . S
N34 C36 1.335 . S
N34 C37 1.390 . S
N35 C36 1.345 . S
N35 C38 1.336 . S
C36 N34 1.335 . S
C36 N35 1.345 . S
C36 H41 0.930 . S
C37 N34 1.390 . S
C37 C38 1.346 . S
C37 H42 0.930 . S
C38 N35 1.336 . S
C38 C37 1.346 . S
C38 H45 0.929 . S
C39 O29 1.282 . S
C39 O40 1.216 . S
O40 C39 1.216 . S
H41 C36 0.930 . S
H42 C37 0.930 . S
O43 Cu23 1.959 . S
O43 C30 1.251 . S
H44 C27 0.930 1_655 S
H45 C38 0.929 . S
Li46 N63 1.990 . S
Li46 O106 1.956 . S
Li46 O107 1.970 1_455 S
Li46 O108 1.961 . S
Li47 N71 1.990 1_545 S
Li47 O106 1.970 . S
Li47 O107 1.956 1_455 S
Li47 O109 1.961 . S
Li48 N93 1.990 . S
Li48 O106 1.961 . S
Li48 O108 1.956 . S
Li48 O109 1.970 . S
Li49 N99 1.990 . S
Li49 O107 1.961 . S
Li49 O108 1.970 1_655 S
Li49 O109 1.956 1_655 S
C50 C52 1.348 . S
C50 C53 1.356 . S
C50 O106 1.325 . S
N51 C54 1.314 . S
N51 C55 1.279 . S
C52 C50 1.348 . S
C52 C54 1.353 . S
C52 H110 0.929 . S
C53 C50 1.356 . S
C53 C55 1.358 . S
C53 H111 0.930 . S
C54 N51 1.314 . S
C54 C52 1.353 . S
C54 H112 0.930 . S
C55 N51 1.279 . S
C55 C53 1.358 . S
C55 H113 0.930 . S
C56 C59 1.348 . S
C56 C60 1.356 . S
C56 O107 1.325 . S
C57 N58 1.279 . S
C57 C60 1.358 . S
C57 H114 0.930 . S
N58 C57 1.279 . S
N58 C61 1.314 . S
C59 C56 1.348 . S
C59 C61 1.353 . S
C59 H115 0.929 . S
C60 C56 1.356 . S
C60 C57 1.358 . S
C60 H116 0.930 . S
C61 N58 1.314 . S
C61 C59 1.353 . S
C61 H117 0.930 . S
C62 N63 1.314 . S
C62 C67 1.353 . S
C62 H68 0.930 . S
N63 Li46 1.990 . S
N63 C62 1.314 . S
N63 C65 1.279 . S
C64 C65 1.358 . S
C64 C66 1.356 . S
C64 H118 0.930 . S
C65 N63 1.279 . S
C65 C64 1.358 . S
C65 H69 0.930 . S
C66 C64 1.356 . S
C66 C67 1.348 . S
C67 C62 1.353 . S
C67 C66 1.348 . S
C67 H119 0.929 1_455 S
H68 C62 0.930 . S
H69 C65 0.930 . S
C70 N71 1.314 . S
C70 C72 1.353 . S
C70 H76 0.930 . S
N71 Li47 1.990 1_565 S
N71 C70 1.314 . S
N71 C74 1.279 . S
C72 C70 1.353 . S
C72 C75 1.348 . S
C72 H120 0.929 . S
C73 C74 1.358 . S
C73 C75 1.356 . S
C73 H121 0.930 1_455 S
C74 N71 1.279 . S
C74 C73 1.358 . S
C74 H77 0.930 1_455 S
C75 C72 1.348 . S
C75 C73 1.356 . S
H76 C70 0.930 . S
H77 C74 0.930 1_655 S
C78 C80 1.348 . S
C78 C81 1.356 . S
C78 O108 1.325 . S
N79 C82 1.314 . S
N79 C83 1.279 . S
C80 C78 1.348 . S
C80 C82 1.353 . S
C80 H122 0.929 1_455 S
C81 C78 1.356 . S
C81 C83 1.358 . S
C81 H123 0.930 . S
C82 N79 1.314 . S
C82 C80 1.353 . S
C82 H124 0.930 1_455 S
C83 N79 1.279 . S
C83 C81 1.358 . S
C83 H125 0.930 . S
C84 C85 1.348 . S
C84 C86 1.356 . S
C84 O109 1.325 1_565 S
C85 C84 1.348 . S
C85 C87 1.353 . S
C85 H126 0.929 . S
C86 C84 1.356 . S
C86 C88 1.358 . S
C86 H127 0.930 1_455 S
C87 C85 1.353 . S
C87 N89 1.314 . S
C87 H128 0.930 . S
C88 C86 1.358 . S
C88 N89 1.279 . S
C88 H129 0.930 1_455 S
N89 C87 1.314 . S
N89 C88 1.279 . S
C90 C92 1.353 . S
C90 N93 1.314 . S
C90 H96 0.930 . S
C91 N93 1.279 . S
C91 C94 1.358 . S
C91 H97 0.930 . S
C92 C90 1.353 . S
C92 C95 1.348 . S
C92 H130 0.929 . S
N93 Li48 1.990 . S
N93 C90 1.314 . S
N93 C91 1.279 . S
C94 C91 1.358 . S
C94 C95 1.356 . S
C94 H131 0.930 . S
C95 C92 1.348 . S
C95 C94 1.356 . S
H96 C90 0.930 . S
H97 C91 0.930 . S
C98 N99 1.314 . S
C98 C100 1.353 . S
C98 H104 0.930 . S
N99 Li49 1.990 . S
N99 C98 1.314 . S
N99 C102 1.279 . S
C100 C98 1.353 . S
C100 C103 1.348 . S
C100 H132 0.929 . S
C101 C102 1.358 . S
C101 C103 1.356 . S
C101 H133 0.930 . S
C102 N99 1.279 . S
C102 C101 1.358 . S
C102 H105 0.930 . S
C103 C100 1.348 . S
C103 C101 1.356 . S
H104 C98 0.930 . S
H105 C102 0.930 . S
O106 Li46 1.956 . S
O106 Li47 1.970 . S
O106 Li48 1.961 . S
O106 C50 1.325 . S
O107 Li46 1.970 1_655 S
O107 Li47 1.956 1_655 S
O107 Li49 1.961 . S
O107 C56 1.325 . S
O108 Li46 1.961 . S
O108 Li48 1.956 . S
O108 Li49 1.970 1_455 S
O108 C78 1.325 . S
O109 Li47 1.961 . S
O109 Li48 1.970 . S
O109 Li49 1.956 1_455 S
O109 C84 1.325 1_545 S
H110 C52 0.929 . S
H111 C53 0.930 . S
H112 C54 0.930 . S
H113 C55 0.930 . S
H114 C57 0.930 . S
H115 C59 0.929 . S
H116 C60 0.930 . S
H117 C61 0.930 . S
H118 C64 0.930 . S
H119 C67 0.929 1_655 S
H120 C72 0.929 . S
H121 C73 0.930 1_655 S
H122 C80 0.929 1_655 S
H123 C81 0.930 . S
H124 C82 0.930 1_655 S
H125 C83 0.930 . S
H126 C85 0.929 . S
H127 C86 0.930 1_655 S
H128 C87 0.930 . S
H129 C88 0.930 1_655 S
H130 C92 0.929 . S
H131 C94 0.930 . S
H132 C100 0.929 . S
H133 C101 0.930 . S
Li134 N151 1.990 1_455 S
Li134 O194 1.956 . S
Li134 O195 1.970 1_545 S
Li134 O196 1.961 . S
Li135 N159 1.990 . S
Li135 O194 1.970 . S
Li135 O195 1.956 1_545 S
Li135 O197 1.961 . S
Li136 N181 1.990 . S
Li136 O194 1.961 . S
Li136 O196 1.956 . S
Li136 O197 1.970 . S
Li137 N187 1.990 . S
Li137 O195 1.961 . S
Li137 O196 1.970 1_565 S
Li137 O197 1.956 1_565 S
C138 C140 1.348 . S
C138 C141 1.356 . S
C138 O194 1.325 . S
N139 C142 1.314 . S
N139 C143 1.279 . S
C140 C138 1.348 . S
C140 C142 1.353 . S
C140 H198 0.929 . S
C141 C138 1.356 . S
C141 C143 1.358 . S
C141 H199 0.930 . S
C142 N139 1.314 . S
C142 C140 1.353 . S
C142 H200 0.930 . S
C143 N139 1.279 . S
C143 C141 1.358 . S
C143 H201 0.930 . S
C144 C147 1.348 . S
C144 C148 1.356 . S
C144 O195 1.325 . S
C145 N146 1.279 . S
C145 C148 1.358 . S
C145 H202 0.930 . S
N146 C145 1.279 . S
N146 C149 1.314 . S
C147 C144 1.348 . S
C147 C149 1.353 . S
C147 H203 0.929 . S
C148 C144 1.356 . S
C148 C145 1.358 . S
C148 H204 0.930 . S
C149 N146 1.314 . S
C149 C147 1.353 . S
C149 H205 0.930 . S
C150 N151 1.314 . S
C150 C155 1.353 . S
C150 H156 0.925 1_545 S
N151 Li134 1.990 1_655 S
N151 C150 1.314 . S
N151 C153 1.279 . S
C152 C153 1.358 . S
C152 C154 1.356 . S
C152 H206 0.930 . S
C153 N151 1.279 . S
C153 C152 1.358 . S
C153 H157 0.930 . S
C154 C152 1.356 . S
C154 C155 1.348 . S
C155 C150 1.353 . S
C155 C154 1.348 . S
C155 H207 0.929 1_545 S
H156 C150 0.925 1_565 S
H157 C153 0.930 . S
C158 N159 1.314 . S
C158 C160 1.353 . S
C158 H164 0.930 . S
N159 Li135 1.990 . S
N159 C158 1.314 . S
N159 C162 1.279 . S
C160 C158 1.353 . S
C160 C163 1.348 . S
C160 H208 0.929 . S
C161 C162 1.358 . S
C161 C163 1.356 . S
C161 H209 0.930 1_545 S
C162 N159 1.279 . S
C162 C161 1.358 . S
C162 H165 0.930 1_545 S
C163 C160 1.348 . S
C163 C161 1.356 . S
H164 C158 0.930 . S
H165 C162 0.930 1_565 S
C166 C168 1.348 . S
C166 C169 1.356 . S
C166 O196 1.325 1_655 S
N167 C170 1.314 . S
N167 C171 1.279 . S
C168 C166 1.348 . S
C168 C170 1.353 . S
C168 H210 0.929 1_545 S
C169 C166 1.356 . S
C169 C171 1.358 . S
C169 H211 0.930 . S
C170 N167 1.314 . S
C170 C168 1.353 . S
C170 H212 0.930 1_545 S
C171 N167 1.279 . S
C171 C169 1.358 . S
C171 H213 0.930 . S
C172 C173 1.348 . S
C172 C174 1.356 . S
C172 O197 1.325 . S
C173 C172 1.348 . S
C173 C175 1.353 . S
C173 H214 0.929 . S
C174 C172 1.356 . S
C174 C176 1.358 . S
C174 H215 0.930 1_545 S
C175 C173 1.353 . S
C175 N177 1.314 . S
C175 H216 0.930 . S
C176 C174 1.358 . S
C176 N177 1.279 . S
C176 H217 0.930 1_545 S
N177 C175 1.314 . S
N177 C176 1.279 . S
C178 C180 1.353 . S
C178 N181 1.314 . S
C178 H184 0.930 . S
C179 N181 1.279 . S
C179 C182 1.358 . S
C179 H185 0.930 . S
C180 C178 1.353 . S
C180 C183 1.348 . S
C180 H218 0.929 . S
N181 Li136 1.990 . S
N181 C178 1.314 . S
N181 C179 1.279 . S
C182 C179 1.358 . S
C182 C183 1.356 . S
C182 H219 0.930 . S
C183 C180 1.348 . S
C183 C182 1.356 . S
H184 C178 0.930 . S
H185 C179 0.930 . S
C186 N187 1.314 . S
C186 C188 1.353 . S
C186 H192 0.930 . S
N187 Li137 1.990 . S
N187 C186 1.314 . S
N187 C190 1.279 . S
C188 C186 1.353 . S
C188 C191 1.348 . S
C188 H220 0.929 . S
C189 C190 1.358 . S
C189 C191 1.356 . S
C189 H221 0.930 . S
C190 N187 1.279 . S
C190 C189 1.358 . S
C190 H193 0.930 . S
C191 C188 1.348 . S
C191 C189 1.356 . S
H192 C186 0.930 . S
H193 C190 0.930 . S
O194 Li134 1.956 . S
O194 Li135 1.970 . S
O194 Li136 1.961 . S
O194 C138 1.325 . S
O195 Li134 1.970 1_565 S
O195 Li135 1.956 1_565 S
O195 Li137 1.961 . S
O195 C144 1.325 . S
O196 Li134 1.961 . S
O196 Li136 1.956 . S
O196 Li137 1.970 1_545 S
O196 C166 1.325 1_455 S
O197 Li135 1.961 . S
O197 Li136 1.970 . S
O197 Li137 1.956 1_545 S
O197 C172 1.325 . S
H198 C140 0.929 . S
H199 C141 0.930 . S
H200 C142 0.930 . S
H201 C143 0.930 . S
H202 C145 0.930 . S
H203 C147 0.929 . S
H204 C148 0.930 . S
H205 C149 0.930 . S
H206 C152 0.930 . S
H207 C155 0.929 1_565 S
H208 C160 0.929 . S
H209 C161 0.930 1_565 S
H210 C168 0.929 1_565 S
H211 C169 0.930 . S
H212 C170 0.930 1_565 S
H213 C171 0.930 . S
H214 C173 0.929 . S
H215 C174 0.930 1_565 S
H216 C175 0.930 . S
H217 C176 0.930 1_565 S
H218 C180 0.929 . S
H219 C182 0.930 . S
H220 C188 0.929 . S
H221 C189 0.930 . S
C222 C223 1.349 . S
C222 C224 1.327 . S
C222 H247 0.950 . S
C223 C222 1.349 . S
C223 C239 1.349 . S
C224 C222 1.327 . S
C224 C243 1.429 . S
C224 H248 0.950 . S
C225 C242 1.574 . S
C225 C244 1.368 . S
C225 H249 0.949 . S
H226 C230 0.949 . S
C227 C228 1.349 . S
C227 C229 1.327 . S
C227 H250 0.950 . S
C228 C227 1.349 . S
C228 C240 1.349 . S
C229 C227 1.327 . S
C229 C245 1.429 . S
C229 H251 0.950 . S
C230 H226 0.949 . S
C230 C238 1.574 . S
C230 C246 1.368 . S
H231 C239 0.950 . S
H232 C237 0.950 . S
H233 C238 0.949 . S
H234 C240 0.950 . S
H235 C241 0.950 . S
H236 C242 0.949 . S
C237 H232 0.950 . S
C237 C239 1.327 . S
C237 C243 1.429 . S
C238 C230 1.574 . S
C238 H233 0.949 . S
C238 C244 1.368 . S
C239 C223 1.349 . S
C239 H231 0.950 . S
C239 C237 1.327 . S
C240 C228 1.349 . S
C240 H234 0.950 . S
C240 C241 1.327 . S
C241 H235 0.950 . S
C241 C240 1.327 . S
C241 C245 1.429 . S
C242 C225 1.574 . S
C242 H236 0.949 . S
C242 C246 1.368 . S
C243 C224 1.429 . S
C243 C237 1.429 . S
C243 C244 1.523 . S
C244 C225 1.368 . S
C244 C238 1.368 . S
C244 C243 1.523 . S
C245 C229 1.429 . S
C245 C241 1.429 . S
C245 C246 1.523 . S
C246 C230 1.368 . S
C246 C242 1.368 . S
C246 C245 1.523 . S
H247 C222 0.950 . S
H248 C224 0.950 . S
H249 C225 0.949 . S
H250 C227 0.950 . S
H251 C229 0.950 . S
C252 C253 1.349 . S
C252 C254 1.327 . S
C252 H277 0.950 . S
C253 C252 1.349 . S
C253 C269 1.349 . S
C254 C252 1.327 . S
C254 C273 1.429 . S
C254 H278 0.950 . S
C255 C272 1.574 . S
C255 C274 1.368 . S
C255 H279 0.949 1_455 S
H256 C260 0.949 . S
C257 C258 1.349 . S
C257 C259 1.327 . S
C257 H280 0.950 . S
C258 C257 1.349 . S
C258 C270 1.349 . S
C259 C257 1.327 . S
C259 C275 1.429 . S
C259 H281 0.950 1_455 S
C260 H256 0.949 . S
C260 C268 1.574 . S
C260 C276 1.368 . S
H261 C269 0.950 1_655 S
H262 C267 0.950 1_655 S
H263 C268 0.949 . S
H264 C270 0.950 . S
H265 C271 0.950 . S
H266 C272 0.949 1_655 S
C267 H262 0.950 1_455 S
C267 C269 1.327 . S
C267 C273 1.429 . S
C268 C260 1.574 . S
C268 H263 0.949 . S
C268 C274 1.368 . S
C269 C253 1.349 . S
C269 H261 0.950 1_455 S
C269 C267 1.327 . S
C270 C258 1.349 . S
C270 H264 0.950 . S
C270 C271 1.327 . S
C271 H265 0.950 . S
C271 C270 1.327 . S
C271 C275 1.429 . S
C272 C255 1.574 . S
C272 H266 0.949 1_455 S
C272 C276 1.368 . S
C273 C254 1.429 . S
C273 C267 1.429 . S
C273 C274 1.523 . S
C274 C255 1.368 . S
C274 C268 1.368 . S
C274 C273 1.523 . S
C275 C259 1.429 . S
C275 C271 1.429 . S
C275 C276 1.523 . S
C276 C260 1.368 . S
C276 C272 1.368 . S
C276 C275 1.523 . S
H277 C252 0.950 . S
H278 C254 0.950 . S
H279 C255 0.949 1_655 S
H280 C257 0.950 . S
H281 C259 0.950 1_655 S
C282 C283 1.349 . S
C282 C284 1.327 . S
C282 H307 0.950 1_545 S
C283 C282 1.349 . S
C283 C299 1.349 . S
C284 C282 1.327 . S
C284 C303 1.429 . S
C284 H308 0.950 1_545 S
C285 C302 1.574 . S
C285 C304 1.368 . S
C285 H309 0.949 . S
H286 C290 0.949 1_565 S
C287 C288 1.349 . S
C287 C289 1.327 . S
C287 H310 0.950 . S
C288 C287 1.349 . S
C288 C300 1.349 . S
C289 C287 1.327 . S
C289 C305 1.429 . S
C289 H311 0.950 . S
C290 H286 0.949 1_545 S
C290 C298 1.574 . S
C290 C306 1.368 . S
H291 C299 0.950 . S
H292 C297 0.950 . S
H293 C298 0.949 1_565 S
H294 C300 0.950 1_565 S
H295 C301 0.950 1_565 S
H296 C302 0.949 . S
C297 H292 0.950 . S
C297 C299 1.327 . S
C297 C303 1.429 . S
C298 C290 1.574 . S
C298 H293 0.949 1_545 S
C298 C304 1.368 . S
C299 C283 1.349 . S
C299 H291 0.950 . S
C299 C297 1.327 . S
C300 C288 1.349 . S
C300 H294 0.950 1_545 S
C300 C301 1.327 . S
C301 H295 0.950 1_545 S
C301 C300 1.327 . S
C301 C305 1.429 . S
C302 C285 1.574 . S
C302 H296 0.949 . S
C302 C306 1.368 . S
C303 C284 1.429 . S
C303 C297 1.429 . S
C303 C304 1.523 . S
C304 C285 1.368 . S
C304 C298 1.368 . S
C304 C303 1.523 . S
C305 C289 1.429 . S
C305 C301 1.429 . S
C305 C306 1.523 . S
C306 C290 1.368 . S
C306 C302 1.368 . S
C306 C305 1.523 . S
H307 C282 0.950 1_565 S
H308 C284 0.950 1_565 S
H309 C285 0.949 . S
H310 C287 0.950 . S
H311 C289 0.950 . S
C312 C313 1.349 . S
C312 C314 1.327 . S
C312 H337 0.950 . S
C313 C312 1.349 . S
C313 C329 1.349 . S
C314 C312 1.327 . S
C314 C333 1.429 . S
C314 H338 0.950 . S
C315 C332 1.574 . S
C315 C334 1.368 . S
C315 H339 0.949 . S
H316 C320 0.949 . S
C317 C318 1.349 . S
C317 C319 1.327 . S
C317 H340 0.954 . S
C318 C317 1.349 . S
C318 C330 1.349 . S
C319 C317 1.327 . S
C319 C335 1.429 . S
C319 H341 0.949 . S
C320 H316 0.949 . S
C320 C328 1.574 . S
C320 C336 1.368 . S
H321 C329 0.950 . S
H322 C327 0.950 . S
H323 C328 0.949 . S
H324 C330 0.950 . S
H325 C331 0.950 . S
H326 C332 0.963 . S
C327 H322 0.950 . S
C327 C329 1.327 . S
C327 C333 1.429 . S
C328 C320 1.574 . S
C328 H323 0.949 . S
C328 C334 1.368 . S
C329 C313 1.349 . S
C329 H321 0.950 . S
C329 C327 1.327 . S
C330 C318 1.349 . S
C330 H324 0.950 . S
C330 C331 1.327 . S
C331 H325 0.950 . S
C331 C330 1.327 . S
C331 C335 1.429 . S
C332 C315 1.574 . S
C332 H326 0.963 . S
C332 C336 1.368 . S
C333 C314 1.429 . S
C333 C327 1.429 . S
C333 C334 1.523 . S
C334 C315 1.368 . S
C334 C328 1.368 . S
C334 C333 1.523 . S
C335 C319 1.429 . S
C335 C331 1.429 . S
C335 C336 1.523 . S
C336 C320 1.368 . S
C336 C332 1.368 . S
C336 C335 1.523 . S
H337 C312 0.950 . S
H338 C314 0.950 . S
H339 C315 0.949 . S
H340 C317 0.954 . S
H341 C319 0.949 . S
C342 C343 1.349 . S
C342 C344 1.327 . S
C342 H367 0.950 . S
C343 C342 1.349 . S
C343 C359 1.349 . S
C344 C342 1.327 . S
C344 C363 1.429 . S
C344 H368 0.950 . S
C345 C362 1.574 . S
C345 C364 1.368 . S
C345 H369 0.948 1_545 S
H346 C350 0.949 . S
C347 C348 1.349 . S
C347 C349 1.327 . S
C347 H370 0.950 . S
C348 C347 1.349 . S
C348 C360 1.349 . S
C349 C347 1.327 . S
C349 C365 1.429 . S
C349 H371 0.950 . S
C350 H346 0.949 . S
C350 C358 1.574 . S
C350 C366 1.368 . S
H351 C359 0.950 1_565 S
H352 C357 0.937 1_565 S
H353 C358 0.949 . S
H354 C360 0.950 . S
H355 C361 0.950 . S
H356 C362 0.949 . S
C357 H352 0.937 1_545 S
C357 C359 1.327 . S
C357 C363 1.429 . S
C358 C350 1.574 . S
C358 H353 0.949 . S
C358 C364 1.368 . S
C359 C343 1.349 . S
C359 H351 0.950 1_545 S
C359 C357 1.327 . S
C360 C348 1.349 . S
C360 H354 0.950 . S
C360 C361 1.327 . S
C361 H355 0.950 . S
C361 C360 1.327 . S
C361 C365 1.429 . S
C362 C345 1.574 . S
C362 H356 0.949 . S
C362 C366 1.368 . S
C363 C344 1.429 . S
C363 C357 1.429 . S
C363 C364 1.523 . S
C364 C345 1.368 . S
C364 C358 1.368 . S
C364 C363 1.523 . S
C365 C349 1.429 . S
C365 C361 1.429 . S
C365 C366 1.523 . S
C366 C350 1.368 . S
C366 C362 1.368 . S
C366 C365 1.523 . S
H367 C342 0.950 . S
H368 C344 0.950 . S
H369 C345 0.948 1_565 S
H370 C347 0.950 . S
H371 C349 0.950 . S
C372 C373 1.349 . S
C372 C374 1.327 . S
C372 H397 0.950 . S
C373 C372 1.349 . S
C373 C389 1.349 . S
C374 C372 1.327 . S
C374 C393 1.429 . S
C374 H398 0.950 . S
C375 C392 1.574 . S
C375 C394 1.368 . S
C375 H399 0.949 . S
H376 C380 0.949 . S
C377 C378 1.349 . S
C377 C379 1.327 . S
C377 H400 0.950 . S
C378 C377 1.349 . S
C378 C390 1.349 . S
C379 C377 1.327 . S
C379 C395 1.429 . S
C379 H401 0.950 . S
C380 H376 0.949 . S
C380 C388 1.574 . S
C380 C396 1.368 . S
H381 C389 0.950 . S
H382 C387 0.950 . S
H383 C388 0.949 . S
H384 C390 0.950 . S
H385 C391 0.950 . S
H386 C392 0.949 . S
C387 H382 0.950 . S
C387 C389 1.327 . S
C387 C393 1.429 . S
C388 C380 1.574 . S
C388 H383 0.949 . S
C388 C394 1.368 . S
C389 C373 1.349 . S
C389 H381 0.950 . S
C389 C387 1.327 . S
C390 C378 1.349 . S
C390 H384 0.950 . S
C390 C391 1.327 . S
C391 H385 0.950 . S
C391 C390 1.327 . S
C391 C395 1.429 . S
C392 C375 1.574 . S
C392 H386 0.949 . S
C392 C396 1.368 . S
C393 C374 1.429 . S
C393 C387 1.429 . S
C393 C394 1.523 . S
C394 C375 1.368 . S
C394 C388 1.368 . S
C394 C393 1.523 . S
C395 C379 1.429 . S
C395 C391 1.429 . S
C395 C396 1.523 . S
C396 C380 1.368 . S
C396 C392 1.368 . S
C396 C395 1.523 . S
H397 C372 0.950 . S
H398 C374 0.950 . S
H399 C375 0.949 . S
H400 C377 0.950 . S
H401 C379 0.950 . S
C402 C403 1.349 . S
C402 C404 1.327 . S
C402 H427 0.950 . S
C403 C402 1.349 . S
C403 C419 1.349 . S
C404 C402 1.327 . S
C404 C423 1.429 . S
C404 H428 0.950 . S
C405 C422 1.574 . S
C405 C424 1.368 . S
C405 H429 0.949 1_545 S
H406 C410 0.949 . S
C407 C408 1.349 . S
C407 C409 1.327 . S
C407 H430 0.950 1_545 S
C408 C407 1.349 . S
C408 C420 1.349 . S
C409 C407 1.327 . S
C409 C425 1.429 . S
C409 H431 0.950 1_545 S
C410 H406 0.949 . S
C410 C418 1.574 . S
C410 C426 1.368 . S
H411 C419 0.947 1_565 S
H412 C417 0.950 1_565 S
H413 C418 0.949 . S
H414 C420 0.950 . S
H415 C421 0.950 . S
H416 C422 0.949 1_565 S
C417 H412 0.950 1_545 S
C417 C419 1.327 . S
C417 C423 1.429 . S
C418 C410 1.574 . S
C418 H413 0.949 . S
C418 C424 1.368 . S
C419 C403 1.349 . S
C419 H411 0.947 1_545 S
C419 C417 1.327 . S
C420 C408 1.349 . S
C420 H414 0.950 . S
C420 C421 1.327 . S
C421 H415 0.950 . S
C421 C420 1.327 . S
C421 C425 1.429 . S
C422 C405 1.574 . S
C422 H416 0.949 1_545 S
C422 C426 1.368 . S
C423 C404 1.429 . S
C423 C417 1.429 . S
C423 C424 1.523 . S
C424 C405 1.368 . S
C424 C418 1.368 . S
C424 C423 1.523 . S
C425 C409 1.429 . S
C425 C421 1.429 . S
C425 C426 1.523 . S
C426 C410 1.368 . S
C426 C422 1.368 . S
C426 C425 1.523 . S
H427 C402 0.950 . S
H428 C404 0.950 . S
H429 C405 0.949 1_565 S
H430 C407 0.950 1_565 S
H431 C409 0.950 1_565 S
C432 C433 1.349 . S
C432 C434 1.327 . S
C432 H457 0.950 . S
C433 C432 1.349 . S
C433 C449 1.349 . S
C434 C432 1.327 . S
C434 C453 1.429 . S
C434 H458 0.950 . S
C435 C452 1.574 . S
C435 C454 1.368 . S
C435 H459 0.949 . S
H436 C440 0.949 . S
C437 C438 1.349 . S
C437 C439 1.327 . S
C437 H460 0.950 . S
C438 C437 1.349 . S
C438 C450 1.349 . S
C439 C437 1.327 . S
C439 C455 1.429 . S
C439 H461 0.950 . S
C440 H436 0.949 . S
C440 C448 1.574 . S
C440 C456 1.368 . S
H441 C449 0.950 . S
H442 C447 0.950 . S
H443 C448 0.949 . S
H444 C450 0.950 . S
H445 C451 0.950 . S
H446 C452 0.949 . S
C447 H442 0.950 . S
C447 C449 1.327 . S
C447 C453 1.429 . S
C448 C440 1.574 . S
C448 H443 0.949 . S
C448 C454 1.368 . S
C449 C433 1.349 . S
C449 H441 0.950 . S
C449 C447 1.327 . S
C450 C438 1.349 . S
C450 H444 0.950 . S
C450 C451 1.327 . S
C451 H445 0.950 . S
C451 C450 1.327 . S
C451 C455 1.429 . S
C452 C435 1.574 . S
C452 H446 0.949 . S
C452 C456 1.368 . S
C453 C434 1.429 . S
C453 C447 1.429 . S
C453 C454 1.523 . S
C454 C435 1.368 . S
C454 C448 1.368 . S
C454 C453 1.523 . S
C455 C439 1.429 . S
C455 C451 1.429 . S
C455 C456 1.523 . S
C456 C440 1.368 . S
C456 C452 1.368 . S
C456 C455 1.523 . S
H457 C432 0.950 . S
H458 C434 0.950 . S
H459 C435 0.949 . S
H460 C437 0.950 . S
H461 C439 0.950 . S
C228 C95 1.452 . S
C223 N12 1.419 . S
C258 C183 1.497 . S
C253 N25 1.466 . S
C288 C103 1.435 . S
C283 C16 1.430 . S
C318 C191 1.486 . S
C313 C30 1.486 . S
C348 C163 1.487 . S
C343 C7 1.486 . S
C378 C66 1.435 . S
C373 C39 1.430 . S
C408 C154 1.497 . S
C403 N2 1.466 . S
C433 N35 1.419 . S
C438 C75 1.452 . S
