# Generated by pormake.
# Topology tbo, (3,4)-cn, num edge types: 1
# Building blocks:
#     Node 0, Type 0, BuildingBlock: WUSLED_clean_sbu_0, # of connection points: 3
#     Node 1, Type 0, BuildingBlock: WUSLED_clean_sbu_0, # of connection points: 3
#     Node 2, Type 0, BuildingBlock: WUSLED_clean_sbu_0, # of connection points: 3
#     Node 3, Type 0, BuildingBlock: WUSLED_clean_sbu_0, # of connection points: 3
#     Node 4, Type 0, BuildingBlock: WUSLED_clean_sbu_0, # of connection points: 3
#     Node 5, Type 0, BuildingBlock: WUSLED_clean_sbu_0, # of connection points: 3
#     Node 6, Type 0, BuildingBlock: WUSLED_clean_sbu_0, # of connection points: 3
#     Node 7, Type 0, BuildingBlock: WUSLED_clean_sbu_0, # of connection points: 3
#     Node 8, Type 0, BuildingBlock: WUSLED_clean_sbu_0, # of connection points: 3
#     Node 9, Type 0, BuildingBlock: WUSLED_clean_sbu_0, # of connection points: 3
#     Node 10, Type 0, BuildingBlock: WUSLED_clean_sbu_0, # of connection points: 3
#     Node 11, Type 0, BuildingBlock: WUSLED_clean_sbu_0, # of connection points: 3
#     Node 12, Type 0, BuildingBlock: WUSLED_clean_sbu_0, # of connection points: 3
#     Node 13, Type 0, BuildingBlock: WUSLED_clean_sbu_0, # of connection points: 3
#     Node 14, Type 0, BuildingBlock: WUSLED_clean_sbu_0, # of connection points: 3
#     Node 15, Type 0, BuildingBlock: WUSLED_clean_sbu_0, # of connection points: 3
#     Node 16, Type 0, BuildingBlock: WUSLED_clean_sbu_0, # of connection points: 3
#     Node 17, Type 0, BuildingBlock: WUSLED_clean_sbu_0, # of connection points: 3
#     Node 18, Type 0, BuildingBlock: WUSLED_clean_sbu_0, # of connection points: 3
#     Node 19, Type 0, BuildingBlock: WUSLED_clean_sbu_0, # of connection points: 3
#     Node 20, Type 0, BuildingBlock: WUSLED_clean_sbu_0, # of connection points: 3
#     Node 21, Type 0, BuildingBlock: WUSLED_clean_sbu_0, # of connection points: 3
#     Node 22, Type 0, BuildingBlock: WUSLED_clean_sbu_0, # of connection points: 3
#     Node 23, Type 0, BuildingBlock: WUSLED_clean_sbu_0, # of connection points: 3
#     Node 24, Type 0, BuildingBlock: WUSLED_clean_sbu_0, # of connection points: 3
#     Node 25, Type 0, BuildingBlock: WUSLED_clean_sbu_0, # of connection points: 3
#     Node 26, Type 0, BuildingBlock: WUSLED_clean_sbu_0, # of connection points: 3
#     Node 27, Type 0, BuildingBlock: WUSLED_clean_sbu_0, # of connection points: 3
#     Node 28, Type 0, BuildingBlock: WUSLED_clean_sbu_0, # of connection points: 3
#     Node 29, Type 0, BuildingBlock: WUSLED_clean_sbu_0, # of connection points: 3
#     Node 30, Type 0, BuildingBlock: WUSLED_clean_sbu_0, # of connection points: 3
#     Node 31, Type 0, BuildingBlock: WUSLED_clean_sbu_0, # of connection points: 3
#     Node 32, Type 1, BuildingBlock: ESEHIV_clean_sbu_0, # of connection points: 4
#     Node 33, Type 1, BuildingBlock: ESEHIV_clean_sbu_0, # of connection points: 4
#     Node 34, Type 1, BuildingBlock: ESEHIV_clean_sbu_0, # of connection points: 4
#     Node 35, Type 1, BuildingBlock: ESEHIV_clean_sbu_0, # of connection points: 4
#     Node 36, Type 1, BuildingBlock: ESEHIV_clean_sbu_0, # of connection points: 4
#     Node 37, Type 1, BuildingBlock: ESEHIV_clean_sbu_0, # of connection points: 4
#     Node 38, Type 1, BuildingBlock: ESEHIV_clean_sbu_0, # of connection points: 4
#     Node 39, Type 1, BuildingBlock: ESEHIV_clean_sbu_0, # of connection points: 4
#     Node 40, Type 1, BuildingBlock: ESEHIV_clean_sbu_0, # of connection points: 4
#     Node 41, Type 1, BuildingBlock: ESEHIV_clean_sbu_0, # of connection points: 4
#     Node 42, Type 1, BuildingBlock: ESEHIV_clean_sbu_0, # of connection points: 4
#     Node 43, Type 1, BuildingBlock: ESEHIV_clean_sbu_0, # of connection points: 4
#     Node 44, Type 1, BuildingBlock: ESEHIV_clean_sbu_0, # of connection points: 4
#     Node 45, Type 1, BuildingBlock: ESEHIV_clean_sbu_0, # of connection points: 4
#     Node 46, Type 1, BuildingBlock: ESEHIV_clean_sbu_0, # of connection points: 4
#     Node 47, Type 1, BuildingBlock: ESEHIV_clean_sbu_0, # of connection points: 4
#     Node 48, Type 1, BuildingBlock: ESEHIV_clean_sbu_0, # of connection points: 4
#     Node 49, Type 1, BuildingBlock: ESEHIV_clean_sbu_0, # of connection points: 4
#     Node 50, Type 1, BuildingBlock: ESEHIV_clean_sbu_0, # of connection points: 4
#     Node 51, Type 1, BuildingBlock: ESEHIV_clean_sbu_0, # of connection points: 4
#     Node 52, Type 1, BuildingBlock: ESEHIV_clean_sbu_0, # of connection points: 4
#     Node 53, Type 1, BuildingBlock: ESEHIV_clean_sbu_0, # of connection points: 4
#     Node 54, Type 1, BuildingBlock: ESEHIV_clean_sbu_0, # of connection points: 4
#     Node 55, Type 1, BuildingBlock: ESEHIV_clean_sbu_0, # of connection points: 4
#     Edge 56, Type (0, 1), BuildingBlock: EZIPEK_clean_linker_0, # of connection points: 2
#     Edge 57, Type (0, 1), BuildingBlock: EZIPEK_clean_linker_0, # of connection points: 2
#     Edge 58, Type (0, 1), BuildingBlock: EZIPEK_clean_linker_0, # of connection points: 2
#     Edge 59, Type (0, 1), BuildingBlock: EZIPEK_clean_linker_0, # of connection points: 2
#     Edge 60, Type (0, 1), BuildingBlock: EZIPEK_clean_linker_0, # of connection points: 2
#     Edge 61, Type (0, 1), BuildingBlock: EZIPEK_clean_linker_0, # of connection points: 2
#     Edge 62, Type (0, 1), BuildingBlock: EZIPEK_clean_linker_0, # of connection points: 2
#     Edge 63, Type (0, 1), BuildingBlock: EZIPEK_clean_linker_0, # of connection points: 2
#     Edge 64, Type (0, 1), BuildingBlock: EZIPEK_clean_linker_0, # of connection points: 2
#     Edge 65, Type (0, 1), BuildingBlock: EZIPEK_clean_linker_0, # of connection points: 2
#     Edge 66, Type (0, 1), BuildingBlock: EZIPEK_clean_linker_0, # of connection points: 2
#     Edge 67, Type (0, 1), BuildingBlock: EZIPEK_clean_linker_0, # of connection points: 2
#     Edge 68, Type (0, 1), BuildingBlock: EZIPEK_clean_linker_0, # of connection points: 2
#     Edge 69, Type (0, 1), BuildingBlock: EZIPEK_clean_linker_0, # of connection points: 2
#     Edge 70, Type (0, 1), BuildingBlock: EZIPEK_clean_linker_0, # of connection points: 2
#     Edge 71, Type (0, 1), BuildingBlock: EZIPEK_clean_linker_0, # of connection points: 2
#     Edge 72, Type (0, 1), BuildingBlock: EZIPEK_clean_linker_0, # of connection points: 2
#     Edge 73, Type (0, 1), BuildingBlock: EZIPEK_clean_linker_0, # of connection points: 2
#     Edge 74, Type (0, 1), BuildingBlock: EZIPEK_clean_linker_0, # of connection points: 2
#     Edge 75, Type (0, 1), BuildingBlock: EZIPEK_clean_linker_0, # of connection points: 2
#     Edge 76, Type (0, 1), BuildingBlock: EZIPEK_clean_linker_0, # of connection points: 2
#     Edge 77, Type (0, 1), BuildingBlock: EZIPEK_clean_linker_0, # of connection points: 2
#     Edge 78, Type (0, 1), BuildingBlock: EZIPEK_clean_linker_0, # of connection points: 2
#     Edge 79, Type (0, 1), BuildingBlock: EZIPEK_clean_linker_0, # of connection points: 2
#     Edge 80, Type (0, 1), BuildingBlock: EZIPEK_clean_linker_0, # of connection points: 2
#     Edge 81, Type (0, 1), BuildingBlock: EZIPEK_clean_linker_0, # of connection points: 2
#     Edge 82, Type (0, 1), BuildingBlock: EZIPEK_clean_linker_0, # of connection points: 2
#     Edge 83, Type (0, 1), BuildingBlock: EZIPEK_clean_linker_0, # of connection points: 2
#     Edge 84, Type (0, 1), BuildingBlock: EZIPEK_clean_linker_0, # of connection points: 2
#     Edge 85, Type (0, 1), BuildingBlock: EZIPEK_clean_linker_0, # of connection points: 2
#     Edge 86, Type (0, 1), BuildingBlock: EZIPEK_clean_linker_0, # of connection points: 2
#     Edge 87, Type (0, 1), BuildingBlock: EZIPEK_clean_linker_0, # of connection points: 2
#     Edge 88, Type (0, 1), BuildingBlock: EZIPEK_clean_linker_0, # of connection points: 2
#     Edge 89, Type (0, 1), BuildingBlock: EZIPEK_clean_linker_0, # of connection points: 2
#     Edge 90, Type (0, 1), BuildingBlock: EZIPEK_clean_linker_0, # of connection points: 2
#     Edge 91, Type (0, 1), BuildingBlock: EZIPEK_clean_linker_0, # of connection points: 2
#     Edge 92, Type (0, 1), BuildingBlock: EZIPEK_clean_linker_0, # of connection points: 2
#     Edge 93, Type (0, 1), BuildingBlock: EZIPEK_clean_linker_0, # of connection points: 2
#     Edge 94, Type (0, 1), BuildingBlock: EZIPEK_clean_linker_0, # of connection points: 2
#     Edge 95, Type (0, 1), BuildingBlock: EZIPEK_clean_linker_0, # of connection points: 2
#     Edge 96, Type (0, 1), BuildingBlock: EZIPEK_clean_linker_0, # of connection points: 2
#     Edge 97, Type (0, 1), BuildingBlock: EZIPEK_clean_linker_0, # of connection points: 2
#     Edge 98, Type (0, 1), BuildingBlock: EZIPEK_clean_linker_0, # of connection points: 2
#     Edge 99, Type (0, 1), BuildingBlock: EZIPEK_clean_linker_0, # of connection points: 2
#     Edge 100, Type (0, 1), BuildingBlock: EZIPEK_clean_linker_0, # of connection points: 2
#     Edge 101, Type (0, 1), BuildingBlock: EZIPEK_clean_linker_0, # of connection points: 2
#     Edge 102, Type (0, 1), BuildingBlock: EZIPEK_clean_linker_0, # of connection points: 2
#     Edge 103, Type (0, 1), BuildingBlock: EZIPEK_clean_linker_0, # of connection points: 2
#     Edge 104, Type (0, 1), BuildingBlock: EZIPEK_clean_linker_0, # of connection points: 2
#     Edge 105, Type (0, 1), BuildingBlock: EZIPEK_clean_linker_0, # of connection points: 2
#     Edge 106, Type (0, 1), BuildingBlock: EZIPEK_clean_linker_0, # of connection points: 2
#     Edge 107, Type (0, 1), BuildingBlock: EZIPEK_clean_linker_0, # of connection points: 2
#     Edge 108, Type (0, 1), BuildingBlock: EZIPEK_clean_linker_0, # of connection points: 2
#     Edge 109, Type (0, 1), BuildingBlock: EZIPEK_clean_linker_0, # of connection points: 2
#     Edge 110, Type (0, 1), BuildingBlock: EZIPEK_clean_linker_0, # of connection points: 2
#     Edge 111, Type (0, 1), BuildingBlock: EZIPEK_clean_linker_0, # of connection points: 2
#     Edge 112, Type (0, 1), BuildingBlock: EZIPEK_clean_linker_0, # of connection points: 2
#     Edge 113, Type (0, 1), BuildingBlock: EZIPEK_clean_linker_0, # of connection points: 2
#     Edge 114, Type (0, 1), BuildingBlock: EZIPEK_clean_linker_0, # of connection points: 2
#     Edge 115, Type (0, 1), BuildingBlock: EZIPEK_clean_linker_0, # of connection points: 2
#     Edge 116, Type (0, 1), BuildingBlock: EZIPEK_clean_linker_0, # of connection points: 2
#     Edge 117, Type (0, 1), BuildingBlock: EZIPEK_clean_linker_0, # of connection points: 2
#     Edge 118, Type (0, 1), BuildingBlock: EZIPEK_clean_linker_0, # of connection points: 2
#     Edge 119, Type (0, 1), BuildingBlock: EZIPEK_clean_linker_0, # of connection points: 2
#     Edge 120, Type (0, 1), BuildingBlock: EZIPEK_clean_linker_0, # of connection points: 2
#     Edge 121, Type (0, 1), BuildingBlock: EZIPEK_clean_linker_0, # of connection points: 2
#     Edge 122, Type (0, 1), BuildingBlock: EZIPEK_clean_linker_0, # of connection points: 2
#     Edge 123, Type (0, 1), BuildingBlock: EZIPEK_clean_linker_0, # of connection points: 2
#     Edge 124, Type (0, 1), BuildingBlock: EZIPEK_clean_linker_0, # of connection points: 2
#     Edge 125, Type (0, 1), BuildingBlock: EZIPEK_clean_linker_0, # of connection points: 2
#     Edge 126, Type (0, 1), BuildingBlock: EZIPEK_clean_linker_0, # of connection points: 2
#     Edge 127, Type (0, 1), BuildingBlock: EZIPEK_clean_linker_0, # of connection points: 2
#     Edge 128, Type (0, 1), BuildingBlock: EZIPEK_clean_linker_0, # of connection points: 2
#     Edge 129, Type (0, 1), BuildingBlock: EZIPEK_clean_linker_0, # of connection points: 2
#     Edge 130, Type (0, 1), BuildingBlock: EZIPEK_clean_linker_0, # of connection points: 2
#     Edge 131, Type (0, 1), BuildingBlock: EZIPEK_clean_linker_0, # of connection points: 2
#     Edge 132, Type (0, 1), BuildingBlock: EZIPEK_clean_linker_0, # of connection points: 2
#     Edge 133, Type (0, 1), BuildingBlock: EZIPEK_clean_linker_0, # of connection points: 2
#     Edge 134, Type (0, 1), BuildingBlock: EZIPEK_clean_linker_0, # of connection points: 2
#     Edge 135, Type (0, 1), BuildingBlock: EZIPEK_clean_linker_0, # of connection points: 2
#     Edge 136, Type (0, 1), BuildingBlock: EZIPEK_clean_linker_0, # of connection points: 2
#     Edge 137, Type (0, 1), BuildingBlock: EZIPEK_clean_linker_0, # of connection points: 2
#     Edge 138, Type (0, 1), BuildingBlock: EZIPEK_clean_linker_0, # of connection points: 2
#     Edge 139, Type (0, 1), BuildingBlock: EZIPEK_clean_linker_0, # of connection points: 2
#     Edge 140, Type (0, 1), BuildingBlock: EZIPEK_clean_linker_0, # of connection points: 2
#     Edge 141, Type (0, 1), BuildingBlock: EZIPEK_clean_linker_0, # of connection points: 2
#     Edge 142, Type (0, 1), BuildingBlock: EZIPEK_clean_linker_0, # of connection points: 2
#     Edge 143, Type (0, 1), BuildingBlock: EZIPEK_clean_linker_0, # of connection points: 2
#     Edge 144, Type (0, 1), BuildingBlock: EZIPEK_clean_linker_0, # of connection points: 2
#     Edge 145, Type (0, 1), BuildingBlock: EZIPEK_clean_linker_0, # of connection points: 2
#     Edge 146, Type (0, 1), BuildingBlock: EZIPEK_clean_linker_0, # of connection points: 2
#     Edge 147, Type (0, 1), BuildingBlock: EZIPEK_clean_linker_0, # of connection points: 2
#     Edge 148, Type (0, 1), BuildingBlock: EZIPEK_clean_linker_0, # of connection points: 2
#     Edge 149, Type (0, 1), BuildingBlock: EZIPEK_clean_linker_0, # of connection points: 2
#     Edge 150, Type (0, 1), BuildingBlock: EZIPEK_clean_linker_0, # of connection points: 2
#     Edge 151, Type (0, 1), BuildingBlock: EZIPEK_clean_linker_0, # of connection points: 2
# Relax obj value: 0.002
# Max RMSD: 0.120
# Mean RMSD: 0.048
data_MOF--net-tbo--node1-WUSLED_clean_sbu_0--node2-ESEHIV_clean_sbu_0--edge1-EZIPEK_clean_linker_0
_symmetry_space_group_name_H-M    P1
_symmetry_Int_Tables_number       1
_symmetry_cell_setting            triclinic
loop_
_symmetry_equiv_pos_as_xyz
'x, y, z'
_cell_length_a     77.637075
_cell_length_b     77.966132
_cell_length_c     77.836818
_cell_angle_alpha  89.492782
_cell_angle_beta   92.403133
_cell_angle_gamma 91.697666
loop_
_atom_site_label
_atom_site_type_symbol
_atom_site_fract_x
_atom_site_fract_y
_atom_site_fract_z
_atom_type_partial_charge
C0 C 0.19236 0.12659 0.21123 0.0
C1 C 0.20875 0.12189 0.20613 0.0
C2 C 0.20873 0.0976 0.2265 0.0
C3 C 0.21685 0.1075 0.2137 0.0
C4 C 0.19221 0.10217 0.23118 0.0
C5 C 0.18416 0.11642 0.22364 0.0
U6 U 0.18208 0.16852 0.183 0.0
O7 O 0.15578 0.17782 0.17685 0.0
O8 O 0.17357 0.19285 0.1937 0.0
C9 C 0.15779 0.19121 0.18698 0.0
C10 C 0.18372 0.14248 0.20505 0.0
C11 C 0.14316 0.19529 0.19816 0.0
C12 C 0.13122 0.20036 0.22632 0.0
C13 C 0.14476 0.19496 0.21627 0.0
C14 C 0.11408 0.20633 0.20047 0.0
C15 C 0.11572 0.20623 0.21855 0.0
C16 C 0.12759 0.20097 0.19045 0.0
C17 C 0.21152 0.18065 0.14296 0.0
C18 C 0.21794 0.20665 0.12612 0.0
C19 C 0.23037 0.17987 0.11849 0.0
C20 C 0.2219 0.17157 0.132 0.0
C21 C 0.22868 0.19753 0.11545 0.0
C22 C 0.20948 0.19831 0.13978 0.0
C23 C 0.20445 0.17133 0.15818 0.0
O24 O 0.19201 0.15726 0.20745 0.0
O25 O 0.17448 0.14195 0.19051 0.0
O26 O 0.18952 0.16299 0.1564 0.0
O27 O 0.20703 0.17817 0.17349 0.0
H28 H 0.21538 0.12949 0.19661 0.0
H29 H 0.22959 0.10429 0.20982 0.0
H30 H 0.18565 0.09485 0.24097 0.0
H31 H 0.17157 0.11975 0.22785 0.0
H32 H 0.13289 0.20009 0.2402 0.0
H33 H 0.15655 0.19075 0.22269 0.0
H34 H 0.10235 0.21073 0.19407 0.0
H35 H 0.12597 0.20155 0.17657 0.0
H36 H 0.21638 0.22029 0.12409 0.0
H37 H 0.23854 0.1725 0.11057 0.0
H38 H 0.22384 0.15801 0.13415 0.0
H39 H 0.20165 0.2057 0.14802 0.0
C40 C 0.8332 0.20556 0.14106 0.0
C41 C 0.84635 0.21577 0.13385 0.0
C42 C 0.82603 0.22639 0.11155 0.0
C43 C 0.84279 0.22611 0.11923 0.0
C44 C 0.81293 0.21632 0.1189 0.0
C45 C 0.81647 0.20606 0.13346 0.0
U46 U 0.85843 0.18938 0.18245 0.0
O47 O 0.84786 0.17829 0.2062 0.0
O48 O 0.86395 0.16267 0.19044 0.0
C49 C 0.85475 0.16326 0.20421 0.0
C50 C 0.83646 0.19379 0.15598 0.0
C51 C 0.84457 0.14747 0.20912 0.0
C52 C 0.81821 0.12932 0.20933 0.0
C53 C 0.82724 0.14424 0.20371 0.0
C54 C 0.84355 0.12075 0.22592 0.0
C55 C 0.82627 0.11738 0.22056 0.0
C56 C 0.85253 0.13552 0.22028 0.0
C57 C 0.90048 0.21672 0.19679 0.0
C58 C 0.9213 0.21255 0.22065 0.0
C59 C 0.92579 0.23591 0.20087 0.0
C60 C 0.91034 0.23116 0.19187 0.0
C61 C 0.93258 0.22593 0.21473 0.0
C62 C 0.90587 0.20772 0.21156 0.0
C63 C 0.88459 0.21181 0.18641 0.0
O64 O 0.85002 0.18412 0.15553 0.0
O65 O 0.83423 0.19993 0.17137 0.0
O66 O 0.86964 0.21351 0.19345 0.0
O67 O 0.88507 0.19787 0.17709 0.0
H68 H 0.85937 0.21565 0.13941 0.0
H69 H 0.85312 0.23378 0.11382 0.0
H70 H 0.79993 0.21632 0.11327 0.0
H71 H 0.8061 0.19832 0.13871 0.0
H72 H 0.80495 0.12703 0.20485 0.0
H73 H 0.8207 0.15321 0.19516 0.0
H74 H 0.85017 0.11182 0.23445 0.0
H75 H 0.86582 0.13766 0.22475 0.0
H76 H 0.92364 0.20583 0.23259 0.0
H77 H 0.93207 0.24777 0.19697 0.0
H78 H 0.90601 0.23894 0.18101 0.0
H79 H 0.89804 0.19708 0.21624 0.0
C80 C 0.82096 0.84495 0.12777 0.0
C81 C 0.83426 0.83906 0.11772 0.0
C82 C 0.81326 0.8236 0.09863 0.0
C83 C 0.83044 0.82847 0.10332 0.0
C84 C 0.80008 0.82938 0.10876 0.0
C85 C 0.80388 0.83985 0.12311 0.0
U86 U 0.84376 0.86364 0.17032 0.0
O87 O 0.84789 0.89101 0.17769 0.0
O88 O 0.83085 0.8743 0.19251 0.0
C89 C 0.83739 0.8899 0.19052 0.0
C90 C 0.82404 0.85729 0.14233 0.0
C91 C 0.82616 0.90485 0.19397 0.0
C92 C 0.79829 0.91915 0.19339 0.0
C93 C 0.80874 0.90568 0.18817 0.0
C94 C 0.82244 0.93141 0.21005 0.0
C95 C 0.80495 0.9321 0.20462 0.0
C96 C 0.83284 0.91807 0.20478 0.0
C97 C 0.88418 0.83543 0.18798 0.0
C98 C 0.91191 0.8387 0.20418 0.0
C99 C 0.9009 0.81031 0.1968 0.0
C100 C 0.88626 0.81753 0.18863 0.0
C101 C 0.91398 0.82076 0.20465 0.0
C102 C 0.89724 0.84596 0.19586 0.0
C103 C 0.86914 0.8423 0.17755 0.0
O104 O 0.8203 0.85176 0.15776 0.0
O105 O 0.83798 0.86732 0.14246 0.0
O106 O 0.87107 0.8566 0.16864 0.0
O107 O 0.85342 0.83991 0.18295 0.0
H108 H 0.84755 0.84286 0.1208 0.0
H109 H 0.84085 0.82442 0.0956 0.0
H110 H 0.78673 0.82605 0.10536 0.0
H111 H 0.79332 0.84432 0.1304 0.0
H112 H 0.78486 0.91921 0.18905 0.0
H113 H 0.80309 0.89571 0.17993 0.0
H114 H 0.82798 0.94102 0.21877 0.0
H115 H 0.84612 0.91781 0.20963 0.0
H116 H 0.92174 0.8471 0.21012 0.0
H117 H 0.90206 0.7965 0.19689 0.0
H118 H 0.87662 0.80905 0.18246 0.0
H119 H 0.89622 0.85978 0.19544 0.0
C120 C 0.12855 0.80743 0.18503 0.0
C121 C 0.11592 0.8182 0.19114 0.0
C122 C 0.09842 0.79327 0.20028 0.0
C123 C 0.10105 0.81118 0.19874 0.0
C124 C 0.11108 0.78258 0.19428 0.0
C125 C 0.12589 0.78957 0.18674 0.0
U126 U 0.16996 0.83648 0.17363 0.0
O127 O 0.19368 0.82673 0.16301 0.0
O128 O 0.17752 0.84383 0.14734 0.0
C129 C 0.19124 0.83432 0.14799 0.0
C130 C 0.14376 0.814 0.17542 0.0
C131 C 0.19508 0.82437 0.13229 0.0
C132 C 0.19585 0.79763 0.11602 0.0
C133 C 0.19068 0.80681 0.13041 0.0
C134 C 0.20968 0.82337 0.10499 0.0
C135 C 0.20554 0.80578 0.10319 0.0
C136 C 0.20452 0.83251 0.11932 0.0
C137 C 0.18612 0.87545 0.20375 0.0
C138 C 0.20433 0.90119 0.19912 0.0
C139 C 0.19586 0.89395 0.22785 0.0
C140 C 0.18671 0.87934 0.22142 0.0
C141 C 0.20469 0.90519 0.21678 0.0
C142 C 0.19513 0.88654 0.19266 0.0
C143 C 0.17506 0.86049 0.19747 0.0
O144 O 0.14277 0.82884 0.16733 0.0
O145 O 0.15926 0.81131 0.18218 0.0
O146 O 0.18142 0.84508 0.19881 0.0
O147 O 0.16548 0.8625 0.18329 0.0
H148 H 0.11746 0.832 0.18993 0.0
H149 H 0.09159 0.81973 0.20343 0.0
H150 H 0.10948 0.76878 0.1954 0.0
H151 H 0.13522 0.78091 0.18198 0.0
H152 H 0.19248 0.7841 0.115 0.0
H153 H 0.1835 0.80013 0.14019 0.0
H154 H 0.21716 0.83 0.0954 0.0
H155 H 0.20822 0.84598 0.12044 0.0
H156 H 0.21104 0.90955 0.19027 0.0
H157 H 0.19589 0.89659 0.24149 0.0
H158 H 0.17981 0.87116 0.23029 0.0
H159 H 0.19489 0.884 0.179 0.0
C160 C 0.13875 0.82321 0.83885 0.0
C161 C 0.13522 0.8301 0.82233 0.0
C162 C 0.1096 0.81097 0.81836 0.0
C163 C 0.12077 0.82406 0.81221 0.0
C164 C 0.11304 0.80438 0.83497 0.0
C165 C 0.12737 0.81043 0.84504 0.0
U166 U 0.18158 0.84936 0.85445 0.0
O167 O 0.19 0.85485 0.88148 0.0
O168 O 0.20507 0.83785 0.86608 0.0
C169 C 0.20354 0.84515 0.88108 0.0
C170 C 0.15443 0.82815 0.84977 0.0
C171 C 0.209 0.83548 0.89702 0.0
C172 C 0.21195 0.80924 0.91441 0.0
C173 C 0.20493 0.81797 0.89982 0.0
C174 C 0.22694 0.83536 0.92368 0.0
C175 C 0.22326 0.81783 0.92639 0.0
C176 C 0.2199 0.84403 0.90926 0.0
C177 C 0.19892 0.88994 0.82801 0.0
C178 C 0.21091 0.91902 0.83329 0.0
C179 C 0.21335 0.90627 0.80538 0.0
C180 C 0.20486 0.89125 0.81118 0.0
C181 C 0.21617 0.9205 0.81622 0.0
C182 C 0.20234 0.90396 0.83912 0.0
C183 C 0.1873 0.87497 0.83256 0.0
O184 O 0.16962 0.82553 0.84357 0.0
O185 O 0.15421 0.84231 0.85881 0.0
O186 O 0.17779 0.87619 0.84606 0.0
O187 O 0.19294 0.8594 0.83056 0.0
H188 H 0.14374 0.83993 0.81717 0.0
H189 H 0.11847 0.82936 0.79944 0.0
H190 H 0.10476 0.7943 0.84005 0.0
H191 H 0.12976 0.80482 0.85767 0.0
H192 H 0.20889 0.79571 0.91614 0.0
H193 H 0.19665 0.81098 0.8906 0.0
H194 H 0.23561 0.8423 0.93259 0.0
H195 H 0.22338 0.85746 0.90743 0.0
H196 H 0.21285 0.92978 0.84194 0.0
H197 H 0.21717 0.90701 0.79216 0.0
H198 H 0.20228 0.88085 0.80221 0.0
H199 H 0.19788 0.90354 0.85211 0.0
C200 C 0.15501 0.19242 0.83473 0.0
C201 C 0.15576 0.21054 0.83438 0.0
C202 C 0.12626 0.21162 0.82158 0.0
C203 C 0.14156 0.22 0.82793 0.0
C204 C 0.12541 0.19359 0.82233 0.0
C205 C 0.13951 0.18417 0.8288 0.0
U206 U 0.19652 0.17639 0.86175 0.0
O207 O 0.20423 0.14945 0.86646 0.0
O208 O 0.22051 0.1667 0.85134 0.0
C209 C 0.21833 0.15114 0.85773 0.0
C210 C 0.17042 0.18168 0.83926 0.0
C211 C 0.22445 0.13594 0.84799 0.0
C212 C 0.23505 0.12247 0.82212 0.0
C213 C 0.22737 0.13638 0.83021 0.0
C214 C 0.23711 0.10734 0.84925 0.0
C215 C 0.24018 0.10777 0.83156 0.0
C216 C 0.2294 0.12115 0.85729 0.0
C217 C 0.20922 0.20268 0.90515 0.0
C218 C 0.23439 0.20489 0.92523 0.0
C219 C 0.20929 0.2214 0.93032 0.0
C220 C 0.20096 0.21435 0.91552 0.0
C221 C 0.2262 0.21701 0.9353 0.0
C222 C 0.22602 0.19785 0.91028 0.0
C223 C 0.20009 0.19697 0.88874 0.0
O224 O 0.18594 0.18868 0.83798 0.0
O225 O 0.1695 0.17098 0.85237 0.0
O226 O 0.19081 0.18259 0.88867 0.0
O227 O 0.20759 0.19992 0.87413 0.0
H228 H 0.16746 0.2174 0.83869 0.0
H229 H 0.14267 0.23388 0.8275 0.0
H230 H 0.1139 0.18672 0.8175 0.0
H231 H 0.13848 0.17029 0.82866 0.0
H232 H 0.23712 0.12324 0.80846 0.0
H233 H 0.22395 0.14756 0.8226 0.0
H234 H 0.24079 0.09628 0.85693 0.0
H235 H 0.22765 0.12041 0.87102 0.0
H236 H 0.24743 0.20123 0.92871 0.0
H237 H 0.20264 0.23069 0.93769 0.0
H238 H 0.18806 0.21839 0.9119 0.0
H239 H 0.23275 0.18891 0.90258 0.0
C240 C 0.84436 0.15425 0.83204 0.0
C241 C 0.85171 0.14814 0.81713 0.0
C242 C 0.82996 0.12456 0.81501 0.0
C243 C 0.84457 0.1334 0.8087 0.0
C244 C 0.82266 0.13087 0.82981 0.0
C245 C 0.82976 0.14545 0.83818 0.0
U246 U 0.87368 0.1954 0.84709 0.0
O247 O 0.8632 0.21814 0.85915 0.0
O248 O 0.88019 0.20136 0.87439 0.0
C249 C 0.87034 0.21479 0.87438 0.0
C250 C 0.85132 0.16945 0.84192 0.0
C251 C 0.85986 0.21731 0.88976 0.0
C252 C 0.83248 0.2222 0.9032 0.0
C253 C 0.8417 0.21765 0.88878 0.0
C254 C 0.85929 0.22571 0.91992 0.0
C255 C 0.84124 0.22652 0.91885 0.0
C256 C 0.86847 0.22116 0.90558 0.0
C257 C 0.91439 0.21413 0.82371 0.0
C258 C 0.93534 0.23657 0.83321 0.0
C259 C 0.93863 0.22271 0.80624 0.0
C260 C 0.92349 0.21284 0.80866 0.0
C261 C 0.94619 0.23354 0.81927 0.0
C262 C 0.92008 0.22663 0.83568 0.0
C263 C 0.89917 0.20229 0.82625 0.0
O264 O 0.86596 0.16812 0.85088 0.0
O265 O 0.84912 0.18489 0.83542 0.0
O266 O 0.88371 0.20861 0.8241 0.0
O267 O 0.90027 0.19141 0.83922 0.0
H268 H 0.86296 0.15463 0.8121 0.0
H269 H 0.85054 0.12879 0.79736 0.0
H270 H 0.81151 0.12434 0.83504 0.0
H271 H 0.82386 0.14983 0.84967 0.0
H272 H 0.81856 0.22277 0.90204 0.0
H273 H 0.83466 0.21484 0.87678 0.0
H274 H 0.86634 0.22903 0.93179 0.0
H275 H 0.88243 0.22116 0.90671 0.0
H276 H 0.93795 0.24677 0.84222 0.0
H277 H 0.9444 0.22157 0.79393 0.0
H278 H 0.91892 0.20404 0.79866 0.0
H279 H 0.91269 0.22879 0.84692 0.0
C280 C 0.84434 0.90842 0.813 0.0
C281 C 0.82629 0.90991 0.81269 0.0
C282 C 0.82852 0.93781 0.798 0.0
C283 C 0.81846 0.92451 0.80533 0.0
C284 C 0.84653 0.9365 0.79881 0.0
C285 C 0.85431 0.92203 0.80621 0.0
U286 U 0.85502 0.86524 0.83896 0.0
O287 O 0.86382 0.84161 0.82689 0.0
O288 O 0.88119 0.85582 0.84481 0.0
C289 C 0.87941 0.84288 0.83411 0.0
C290 C 0.85319 0.89234 0.81828 0.0
C291 C 0.89427 0.83965 0.82306 0.0
C292 C 0.91438 0.8481 0.80092 0.0
C293 C 0.89963 0.85121 0.81033 0.0
C294 C 0.91798 0.82137 0.8159 0.0
C295 C 0.92513 0.83391 0.8047 0.0
C296 C 0.90324 0.8244 0.82523 0.0
C297 C 0.82624 0.84991 0.87822 0.0
C298 C 0.83037 0.83345 0.90504 0.0
C299 C 0.80161 0.8409 0.89521 0.0
C300 C 0.80839 0.84915 0.88073 0.0
C301 C 0.81248 0.83309 0.90767 0.0
C302 C 0.83719 0.84182 0.8905 0.0
C303 C 0.83273 0.8607 0.86365 0.0
O304 O 0.86252 0.89221 0.83278 0.0
O305 O 0.8451 0.87759 0.81509 0.0
O306 O 0.8299 0.85511 0.84786 0.0
O307 O 0.84762 0.86906 0.86577 0.0
H308 H 0.81823 0.89965 0.81776 0.0
H309 H 0.80455 0.9253 0.80506 0.0
H310 H 0.85458 0.94661 0.79343 0.0
H311 H 0.86822 0.92122 0.80615 0.0
H312 H 0.9167 0.85689 0.7905 0.0
H313 H 0.89234 0.86262 0.80755 0.0
H314 H 0.92371 0.80899 0.81767 0.0
H315 H 0.89887 0.81472 0.83426 0.0
H316 H 0.83909 0.82765 0.91447 0.0
H317 H 0.78784 0.84098 0.8969 0.0
H318 H 0.79962 0.85544 0.87168 0.0
H319 H 0.85102 0.84228 0.88909 0.0
C320 C 0.1977 0.64181 0.69043 0.0
C321 C 0.21042 0.63553 0.67993 0.0
C322 C 0.21783 0.61292 0.70118 0.0
C323 C 0.22038 0.6213 0.68527 0.0
C324 C 0.20496 0.61913 0.7115 0.0
C325 C 0.19511 0.63331 0.70622 0.0
U326 U 0.18106 0.68383 0.66499 0.0
O327 O 0.15375 0.69094 0.65994 0.0
O328 O 0.17068 0.70675 0.67704 0.0
C329 C 0.15522 0.70466 0.66966 0.0
C330 C 0.18675 0.65695 0.68565 0.0
C331 C 0.13978 0.71089 0.67859 0.0
C332 C 0.12555 0.72105 0.70406 0.0
C333 C 0.13942 0.7129 0.69656 0.0
C334 C 0.11204 0.72525 0.6759 0.0
C335 C 0.11179 0.72756 0.69377 0.0
C336 C 0.12578 0.71704 0.66845 0.0
C337 C 0.20496 0.70273 0.6243 0.0
C338 C 0.19625 0.71815 0.59781 0.0
C339 C 0.22648 0.71663 0.60613 0.0
C340 C 0.22222 0.70712 0.6209 0.0
C341 C 0.2136 0.72213 0.59427 0.0
C342 C 0.19197 0.70853 0.61261 0.0
C343 C 0.20139 0.69074 0.63905 0.0
O344 O 0.19324 0.67247 0.68858 0.0
O345 O 0.17688 0.65627 0.6715 0.0
O346 O 0.18758 0.68057 0.63785 0.0
O347 O 0.20457 0.69639 0.65476 0.0
H348 H 0.21274 0.64166 0.66767 0.0
H349 H 0.23017 0.61689 0.67698 0.0
H350 H 0.20263 0.61308 0.7238 0.0
H351 H 0.18541 0.63772 0.71462 0.0
H352 H 0.12573 0.72262 0.71787 0.0
H353 H 0.15003 0.70853 0.70478 0.0
H354 H 0.10171 0.73013 0.66762 0.0
H355 H 0.12572 0.71599 0.65458 0.0
H356 H 0.18604 0.72212 0.58887 0.0
H357 H 0.23993 0.71937 0.60375 0.0
H358 H 0.23256 0.70272 0.62947 0.0
H359 H 0.17856 0.70531 0.61469 0.0
C360 C 0.82942 0.70498 0.63036 0.0
C361 C 0.83479 0.72109 0.62385 0.0
C362 C 0.81303 0.71891 0.59993 0.0
C363 C 0.82671 0.72796 0.60876 0.0
C364 C 0.80793 0.70275 0.6064 0.0
C365 C 0.81601 0.69591 0.62133 0.0
U366 U 0.85944 0.69608 0.67308 0.0
O367 O 0.84917 0.68761 0.69798 0.0
O368 O 0.86451 0.67014 0.68339 0.0
C369 C 0.85559 0.67224 0.69717 0.0
C370 C 0.83655 0.69732 0.64681 0.0
C371 C 0.84513 0.65735 0.70376 0.0
C372 C 0.8332 0.62797 0.7014 0.0
C373 C 0.84093 0.64265 0.69385 0.0
C374 C 0.83345 0.64244 0.72875 0.0
C375 C 0.82962 0.62764 0.719 0.0
C376 C 0.84109 0.65707 0.72123 0.0
C377 C 0.90125 0.72248 0.68843 0.0
C378 C 0.9249 0.71468 0.70865 0.0
C379 C 0.92292 0.74398 0.69857 0.0
C380 C 0.9079 0.73946 0.6887 0.0
C381 C 0.93175 0.73163 0.70854 0.0
C382 C 0.90982 0.71014 0.69871 0.0
C383 C 0.88605 0.71806 0.67661 0.0
O384 O 0.8507 0.68847 0.64662 0.0
O385 O 0.83515 0.70574 0.66122 0.0
O386 O 0.87065 0.72103 0.68212 0.0
O387 O 0.88641 0.70367 0.66796 0.0
H388 H 0.84504 0.72843 0.63051 0.0
H389 H 0.83096 0.74044 0.60409 0.0
H390 H 0.79748 0.69547 0.59999 0.0
H391 H 0.81153 0.68351 0.62603 0.0
H392 H 0.83043 0.61671 0.69361 0.0
H393 H 0.84401 0.64231 0.68042 0.0
H394 H 0.83091 0.64252 0.74232 0.0
H395 H 0.84439 0.66805 0.72927 0.0
H396 H 0.93147 0.70486 0.71609 0.0
H397 H 0.92791 0.75709 0.69811 0.0
H398 H 0.90167 0.74925 0.68089 0.0
H399 H 0.90507 0.69694 0.69879 0.0
C400 C 0.83557 0.34977 0.63863 0.0
C401 C 0.84822 0.34108 0.62992 0.0
C402 C 0.82628 0.32891 0.60935 0.0
C403 C 0.84361 0.33074 0.61549 0.0
C404 C 0.81371 0.33757 0.61813 0.0
C405 C 0.81829 0.34781 0.63252 0.0
U406 U 0.86134 0.36906 0.67988 0.0
O407 O 0.86511 0.39665 0.68641 0.0
O408 O 0.84987 0.37979 0.70288 0.0
C409 C 0.85586 0.39549 0.70017 0.0
C410 C 0.83973 0.36168 0.65341 0.0
C411 C 0.84476 0.41024 0.70445 0.0
C412 C 0.8173 0.42521 0.70394 0.0
C413 C 0.82746 0.41163 0.69847 0.0
C414 C 0.84148 0.43635 0.72134 0.0
C415 C 0.82414 0.43771 0.71557 0.0
C416 C 0.85159 0.42289 0.71585 0.0
C417 C 0.90461 0.34496 0.69605 0.0
C418 C 0.9192 0.33268 0.72177 0.0
C419 C 0.9345 0.33551 0.69548 0.0
C420 C 0.91995 0.34288 0.68731 0.0
C421 C 0.93423 0.32997 0.71271 0.0
C422 C 0.90455 0.34 0.71353 0.0
C423 C 0.88847 0.34954 0.68582 0.0
O424 O 0.83773 0.35573 0.66908 0.0
O425 O 0.85321 0.3722 0.65246 0.0
O426 O 0.88869 0.36317 0.67575 0.0
O427 O 0.87336 0.34655 0.69247 0.0
H428 H 0.86165 0.34236 0.63418 0.0
H429 H 0.8536 0.32423 0.60903 0.0
H430 H 0.80029 0.33646 0.61379 0.0
H431 H 0.80825 0.35442 0.63882 0.0
H432 H 0.80397 0.42577 0.69935 0.0
H433 H 0.82173 0.40208 0.68979 0.0
H434 H 0.84714 0.4456 0.73039 0.0
H435 H 0.86479 0.42216 0.72085 0.0
H436 H 0.91858 0.32853 0.73505 0.0
H437 H 0.94581 0.33356 0.68814 0.0
H438 H 0.92044 0.34626 0.6738 0.0
H439 H 0.89299 0.34119 0.72069 0.0
C440 C 0.14587 0.33599 0.70971 0.0
C441 C 0.14573 0.34316 0.72624 0.0
C442 C 0.11796 0.32861 0.73161 0.0
C443 C 0.13192 0.33951 0.73707 0.0
C444 C 0.11805 0.32168 0.715 0.0
C445 C 0.1318 0.32533 0.70422 0.0
U446 U 0.18682 0.36024 0.69223 0.0
O447 O 0.21036 0.34915 0.68229 0.0
O448 O 0.1937 0.36439 0.66513 0.0
C449 C 0.20774 0.35538 0.66668 0.0
C450 C 0.1606 0.33873 0.6981 0.0
C451 C 0.21252 0.3448 0.65169 0.0
C452 C 0.21116 0.31869 0.63424 0.0
C453 C 0.2058 0.32811 0.64845 0.0
C454 C 0.23003 0.34239 0.62634 0.0
C455 C 0.22337 0.32574 0.623 0.0
C456 C 0.22468 0.35174 0.64044 0.0
C457 C 0.20135 0.40375 0.71659 0.0
C458 C 0.22684 0.41933 0.72883 0.0
C459 C 0.20052 0.43446 0.72293 0.0
C460 C 0.19243 0.41922 0.71679 0.0
C461 C 0.21775 0.43469 0.72919 0.0
C462 C 0.21873 0.40402 0.72266 0.0
C463 C 0.19144 0.38743 0.71229 0.0
O464 O 0.15967 0.35164 0.68717 0.0
O465 O 0.17627 0.33694 0.70486 0.0
O466 O 0.19869 0.37264 0.71548 0.0
O467 O 0.18135 0.38716 0.6983 0.0
H468 H 0.15638 0.3514 0.73086 0.0
H469 H 0.13223 0.345 0.74981 0.0
H470 H 0.10755 0.31322 0.71045 0.0
H471 H 0.13155 0.31958 0.69159 0.0
H472 H 0.20577 0.3059 0.632 0.0
H473 H 0.19645 0.32236 0.65687 0.0
H474 H 0.23943 0.34818 0.61799 0.0
H475 H 0.23017 0.36452 0.64261 0.0
H476 H 0.24018 0.41916 0.73347 0.0
H477 H 0.19322 0.44609 0.723 0.0
H478 H 0.17896 0.41945 0.71257 0.0
H479 H 0.22598 0.39235 0.72296 0.0
C480 C 0.13892 0.32036 0.34952 0.0
C481 C 0.13705 0.32737 0.33282 0.0
C482 C 0.10986 0.31104 0.32759 0.0
C483 C 0.12265 0.32275 0.32196 0.0
C484 C 0.11161 0.3044 0.3444 0.0
C485 C 0.12591 0.30902 0.35521 0.0
U486 U 0.1814 0.34533 0.36469 0.0
O487 O 0.19108 0.35095 0.39125 0.0
O488 O 0.20616 0.33499 0.37479 0.0
C489 C 0.20498 0.34186 0.39004 0.0
C490 C 0.15452 0.32378 0.36101 0.0
C491 C 0.21142 0.33193 0.40549 0.0
C492 C 0.20766 0.31799 0.43355 0.0
C493 C 0.2006 0.32556 0.41834 0.0
C494 C 0.23635 0.32278 0.42328 0.0
C495 C 0.22567 0.31676 0.4363 0.0
C496 C 0.22933 0.33025 0.40815 0.0
C497 C 0.19347 0.3857 0.33487 0.0
C498 C 0.2187 0.40505 0.33275 0.0
C499 C 0.19363 0.4091 0.3138 0.0
C500 C 0.18528 0.39505 0.32153 0.0
C501 C 0.21042 0.41425 0.31923 0.0
C502 C 0.21029 0.39083 0.3405 0.0
C503 C 0.18405 0.3704 0.34176 0.0
O504 O 0.16959 0.32117 0.35457 0.0
O505 O 0.15462 0.33757 0.37062 0.0
O506 O 0.17605 0.3719 0.3562 0.0
O507 O 0.19077 0.35528 0.34002 0.0
H508 H 0.14688 0.33612 0.32807 0.0
H509 H 0.12173 0.32794 0.30902 0.0
H510 H 0.10207 0.29526 0.34904 0.0
H511 H 0.127 0.30338 0.36797 0.0
H512 H 0.19909 0.3134 0.44332 0.0
H513 H 0.18676 0.32672 0.41679 0.0
H514 H 0.25023 0.32205 0.42499 0.0
H515 H 0.23804 0.33518 0.39864 0.0
H516 H 0.23168 0.40877 0.33716 0.0
H517 H 0.18699 0.41592 0.30343 0.0
H518 H 0.17236 0.39133 0.31688 0.0
H519 H 0.21692 0.38381 0.35072 0.0
C520 C 0.13646 0.68351 0.32733 0.0
C521 C 0.12313 0.68932 0.33737 0.0
C522 C 0.10664 0.69956 0.31191 0.0
C523 C 0.10853 0.69723 0.32982 0.0
C524 C 0.11964 0.69321 0.30171 0.0
C525 C 0.13441 0.6854 0.30932 0.0
U526 U 0.18114 0.65983 0.3429 0.0
O527 O 0.19407 0.64961 0.32036 0.0
O528 O 0.17972 0.63205 0.33689 0.0
C529 C 0.18967 0.63353 0.32366 0.0
C530 C 0.15293 0.67772 0.33635 0.0
C531 C 0.20268 0.61982 0.3208 0.0
C532 C 0.2198 0.60433 0.30033 0.0
C533 C 0.20951 0.61824 0.30439 0.0
C534 C 0.21727 0.59312 0.3291 0.0
C535 C 0.2237 0.59139 0.31251 0.0
C536 C 0.20688 0.60707 0.33317 0.0
C537 C 0.20558 0.67964 0.3852 0.0
C538 C 0.21567 0.6813 0.41548 0.0
C539 C 0.21494 0.70716 0.39823 0.0
C540 C 0.20834 0.69757 0.38394 0.0
C541 C 0.21898 0.69907 0.41411 0.0
C542 C 0.20912 0.67176 0.40128 0.0
C543 C 0.20165 0.66842 0.36981 0.0
O544 O 0.16789 0.68131 0.32965 0.0
O545 O 0.15313 0.66395 0.34624 0.0
O546 O 0.20332 0.6749 0.35429 0.0
O547 O 0.18896 0.65692 0.37049 0.0
H548 H 0.1243 0.68832 0.35126 0.0
H549 H 0.09885 0.70196 0.33807 0.0
H550 H 0.11861 0.69476 0.28787 0.0
H551 H 0.14439 0.68124 0.30113 0.0
H552 H 0.22433 0.60339 0.2874 0.0
H553 H 0.20637 0.62753 0.2944 0.0
H554 H 0.21985 0.58336 0.33878 0.0
H555 H 0.20176 0.60759 0.34588 0.0
H556 H 0.21875 0.67467 0.42746 0.0
H557 H 0.21735 0.72084 0.39674 0.0
H558 H 0.20595 0.70412 0.37178 0.0
H559 H 0.20747 0.65798 0.4027 0.0
C560 C 0.82243 0.64032 0.33266 0.0
C561 C 0.83308 0.63066 0.32248 0.0
C562 C 0.80933 0.60994 0.31621 0.0
C563 C 0.82657 0.61559 0.31432 0.0
C564 C 0.79869 0.61982 0.32611 0.0
C565 C 0.80517 0.63478 0.33424 0.0
U566 U 0.85304 0.68034 0.34378 0.0
O567 O 0.84503 0.70551 0.35296 0.0
O568 O 0.86147 0.68961 0.36969 0.0
C569 C 0.85281 0.70382 0.36819 0.0
C570 C 0.82885 0.65571 0.34246 0.0
C571 C 0.84349 0.7095 0.38349 0.0
C572 C 0.81763 0.71185 0.40027 0.0
C573 C 0.82595 0.70546 0.38593 0.0
C574 C 0.84418 0.72634 0.40994 0.0
C575 C 0.82666 0.72243 0.41243 0.0
C576 C 0.85245 0.71997 0.39571 0.0
C577 C 0.89252 0.68959 0.31328 0.0
C578 C 0.91684 0.71032 0.31445 0.0
C579 C 0.91269 0.6916 0.28994 0.0
C580 C 0.89805 0.6841 0.2973 0.0
C581 C 0.92228 0.70482 0.29836 0.0
C582 C 0.90211 0.70276 0.32187 0.0
C583 C 0.87689 0.68098 0.32036 0.0
O584 O 0.84353 0.65453 0.3514 0.0
O585 O 0.82713 0.67073 0.3349 0.0
O586 O 0.86212 0.68872 0.31837 0.0
O587 O 0.87855 0.67287 0.33519 0.0
H588 H 0.84643 0.63462 0.32103 0.0
H589 H 0.83503 0.60823 0.30671 0.0
H590 H 0.78538 0.61577 0.32775 0.0
H591 H 0.7967 0.64195 0.34204 0.0
H592 H 0.80417 0.70848 0.40191 0.0
H593 H 0.81868 0.69745 0.37674 0.0
H594 H 0.85151 0.73434 0.4191 0.0
H595 H 0.86593 0.72335 0.39418 0.0
H596 H 0.92393 0.72055 0.3212 0.0
H597 H 0.91648 0.68717 0.27754 0.0
H598 H 0.89096 0.67395 0.29042 0.0
H599 H 0.89819 0.70722 0.33421 0.0
C600 C 0.8422 0.38809 0.3298 0.0
C601 C 0.83646 0.40037 0.34129 0.0
C602 C 0.82529 0.41804 0.31726 0.0
C603 C 0.82818 0.41522 0.33508 0.0
C604 C 0.8307 0.40556 0.30591 0.0
C605 C 0.83907 0.39087 0.31208 0.0
U606 U 0.85636 0.34834 0.35863 0.0
O607 O 0.86693 0.32402 0.34978 0.0
O608 O 0.88304 0.34122 0.36617 0.0
C609 C 0.88209 0.32676 0.35758 0.0
C610 C 0.8529 0.37323 0.33547 0.0
C611 C 0.89777 0.32133 0.34871 0.0
C612 C 0.91872 0.32349 0.326 0.0
C613 C 0.90385 0.32939 0.33377 0.0
C614 C 0.92162 0.3015 0.34791 0.0
C615 C 0.92776 0.30942 0.33299 0.0
C616 C 0.90688 0.30737 0.35563 0.0
C617 C 0.82815 0.33623 0.39919 0.0
C618 C 0.81399 0.31186 0.41365 0.0
C619 C 0.81975 0.33827 0.42912 0.0
C620 C 0.82721 0.34558 0.41452 0.0
C621 C 0.81288 0.32139 0.42884 0.0
C622 C 0.82148 0.3192 0.39898 0.0
C623 C 0.83383 0.34541 0.38326 0.0
O624 O 0.86235 0.37476 0.34982 0.0
O625 O 0.84614 0.35769 0.33334 0.0
O626 O 0.83188 0.33762 0.36835 0.0
O627 O 0.84789 0.35522 0.38442 0.0
H628 H 0.83872 0.39869 0.35502 0.0
H629 H 0.82422 0.42463 0.34417 0.0
H630 H 0.82883 0.40742 0.29216 0.0
H631 H 0.84352 0.38182 0.30288 0.0
H632 H 0.92313 0.32983 0.31449 0.0
H633 H 0.89712 0.34017 0.32812 0.0
H634 H 0.92825 0.29066 0.35358 0.0
H635 H 0.90253 0.30089 0.3671 0.0
H636 H 0.80893 0.29878 0.4131 0.0
H637 H 0.81914 0.34589 0.44064 0.0
H638 H 0.83187 0.35881 0.41508 0.0
H639 H 0.82172 0.31164 0.3874 0.0
C640 C 0.70589 0.13741 0.69289 0.0
C641 C 0.72161 0.13543 0.68482 0.0
C642 C 0.72699 0.10878 0.70106 0.0
C643 C 0.73203 0.12123 0.68883 0.0
C644 C 0.71107 0.11061 0.70871 0.0
C645 C 0.70068 0.12467 0.70465 0.0
U646 U 0.68984 0.18078 0.6713 0.0
O647 O 0.66311 0.18988 0.66885 0.0
O648 O 0.68248 0.2043 0.68465 0.0
C649 C 0.66633 0.2032 0.67887 0.0
C650 C 0.69512 0.15295 0.69046 0.0
C651 C 0.65249 0.20929 0.69006 0.0
C652 C 0.62288 0.2077 0.7 0.0
C653 C 0.63673 0.20013 0.69197 0.0
C654 C 0.64026 0.23356 0.70474 0.0
C655 C 0.62437 0.22466 0.70615 0.0
C656 C 0.65408 0.22599 0.69682 0.0
C657 C 0.71249 0.19982 0.63041 0.0
C658 C 0.70397 0.21628 0.60458 0.0
C659 C 0.73411 0.21491 0.61347 0.0
C660 C 0.72975 0.20466 0.62762 0.0
C661 C 0.72134 0.22071 0.60167 0.0
C662 C 0.69958 0.20591 0.6188 0.0
C663 C 0.70889 0.18715 0.64444 0.0
O664 O 0.70268 0.16798 0.69357 0.0
O665 O 0.68404 0.15338 0.67721 0.0
O666 O 0.69425 0.1782 0.64358 0.0
O667 O 0.71358 0.19165 0.66022 0.0
H668 H 0.72603 0.14504 0.67576 0.0
H669 H 0.74429 0.12025 0.68283 0.0
H670 H 0.70689 0.10136 0.71825 0.0
H671 H 0.6887 0.12585 0.71114 0.0
H672 H 0.61078 0.20053 0.70085 0.0
H673 H 0.63489 0.18735 0.68675 0.0
H674 H 0.64179 0.24663 0.70926 0.0
H675 H 0.66586 0.23356 0.69531 0.0
H676 H 0.6939 0.22034 0.59554 0.0
H677 H 0.74759 0.21789 0.61141 0.0
H678 H 0.74001 0.2 0.63613 0.0
H679 H 0.68617 0.20231 0.62044 0.0
C680 C 0.33797 0.20957 0.64874 0.0
C681 C 0.34798 0.22326 0.64215 0.0
C682 C 0.32587 0.22844 0.61931 0.0
C683 C 0.34195 0.23263 0.62758 0.0
C684 C 0.31594 0.2148 0.626 0.0
C685 C 0.3219 0.20553 0.6405 0.0
U686 U 0.36666 0.19294 0.68919 0.0
O687 O 0.35613 0.18115 0.71261 0.0
O688 O 0.3709 0.16562 0.69552 0.0
C689 C 0.36162 0.16578 0.70926 0.0
C690 C 0.3437 0.19881 0.66378 0.0
C691 C 0.34982 0.15056 0.71229 0.0
C692 C 0.32254 0.13767 0.72168 0.0
C693 C 0.33264 0.15221 0.71712 0.0
C694 C 0.34638 0.11946 0.71649 0.0
C695 C 0.32931 0.12109 0.72151 0.0
C696 C 0.35649 0.13396 0.71205 0.0
C697 C 0.41055 0.2164 0.70508 0.0
C698 C 0.42821 0.21396 0.73183 0.0
C699 C 0.43869 0.23136 0.70843 0.0
C700 C 0.42364 0.22712 0.6985 0.0
C701 C 0.44116 0.22497 0.72528 0.0
C702 C 0.41305 0.20973 0.72185 0.0
C703 C 0.39434 0.21333 0.6943 0.0
O704 O 0.35723 0.1893 0.66222 0.0
O705 O 0.34277 0.20515 0.6793 0.0
O706 O 0.37952 0.21569 0.70141 0.0
O707 O 0.39373 0.20018 0.68383 0.0
H708 H 0.36042 0.22665 0.64819 0.0
H709 H 0.34988 0.24309 0.62269 0.0
H710 H 0.30353 0.21129 0.61994 0.0
H711 H 0.31392 0.19504 0.64525 0.0
H712 H 0.30946 0.13937 0.72551 0.0
H713 H 0.32707 0.16475 0.71768 0.0
H714 H 0.35201 0.10692 0.71627 0.0
H715 H 0.36973 0.13221 0.70873 0.0
H716 H 0.42965 0.20897 0.74482 0.0
H717 H 0.44829 0.23998 0.70306 0.0
H718 H 0.42207 0.23256 0.68569 0.0
H719 H 0.40319 0.2015 0.72733 0.0
C720 C 0.32468 0.85294 0.63674 0.0
C721 C 0.33703 0.84557 0.62649 0.0
C722 C 0.31431 0.83244 0.60732 0.0
C723 C 0.33191 0.83545 0.61203 0.0
C724 C 0.30202 0.8398 0.6176 0.0
C725 C 0.30713 0.84988 0.63201 0.0
U726 U 0.35111 0.86906 0.67881 0.0
O727 O 0.34065 0.87972 0.70237 0.0
O728 O 0.35784 0.89584 0.68703 0.0
C729 C 0.34859 0.89476 0.70081 0.0
C730 C 0.3294 0.8646 0.65172 0.0
C731 C 0.34045 0.91057 0.70765 0.0
C732 C 0.31619 0.92536 0.71979 0.0
C733 C 0.32278 0.91121 0.71114 0.0
C734 C 0.34462 0.93869 0.72169 0.0
C735 C 0.32705 0.93926 0.72539 0.0
C736 C 0.35117 0.92463 0.713 0.0
C737 C 0.39068 0.83961 0.69454 0.0
C738 C 0.42009 0.8423 0.70733 0.0
C739 C 0.40606 0.81431 0.7051 0.0
C740 C 0.39128 0.8218 0.69759 0.0
C741 C 0.42075 0.82439 0.70989 0.0
C742 C 0.40526 0.84983 0.69966 0.0
C743 C 0.37563 0.84636 0.68407 0.0
O744 O 0.32635 0.85879 0.66723 0.0
O745 O 0.34382 0.87388 0.65138 0.0
O746 O 0.37765 0.86058 0.67507 0.0
O747 O 0.36011 0.8445 0.69008 0.0
H748 H 0.35065 0.84769 0.62959 0.0
H749 H 0.34172 0.82997 0.60445 0.0
H750 H 0.2884 0.83779 0.61443 0.0
H751 H 0.29725 0.85547 0.63944 0.0
H752 H 0.30257 0.92538 0.72229 0.0
H753 H 0.3141 0.90063 0.70746 0.0
H754 H 0.35336 0.94913 0.72568 0.0
H755 H 0.36487 0.92453 0.71085 0.0
H756 H 0.43126 0.8504 0.71077 0.0
H757 H 0.4062 0.8005 0.70674 0.0
H758 H 0.38045 0.81351 0.69354 0.0
H759 H 0.40539 0.86355 0.69734 0.0
C760 C 0.64 0.82522 0.69827 0.0
C761 C 0.63184 0.8381 0.70728 0.0
C762 C 0.61222 0.81676 0.72034 0.0
C763 C 0.61814 0.83391 0.71818 0.0
C764 C 0.62067 0.80393 0.71156 0.0
C765 C 0.63428 0.8081 0.70071 0.0
U766 U 0.67884 0.85113 0.67753 0.0
O767 O 0.70144 0.84069 0.66514 0.0
O768 O 0.68317 0.85609 0.64983 0.0
C769 C 0.69755 0.84757 0.65004 0.0
C770 C 0.65362 0.82903 0.68546 0.0
C771 C 0.70296 0.83899 0.63396 0.0
C772 C 0.70949 0.81377 0.61691 0.0
C773 C 0.70249 0.82106 0.63162 0.0
C774 C 0.71743 0.84207 0.60659 0.0
C775 C 0.71727 0.82422 0.6043 0.0
C776 C 0.71037 0.84931 0.62112 0.0
C777 C 0.6952 0.89439 0.70135 0.0
C778 C 0.72176 0.91021 0.71056 0.0
C779 C 0.69459 0.92455 0.70993 0.0
C780 C 0.68611 0.90946 0.70392 0.0
C781 C 0.71247 0.92508 0.71357 0.0
C782 C 0.71323 0.89501 0.70458 0.0
C783 C 0.68511 0.87801 0.69772 0.0
O784 O 0.65151 0.84229 0.67511 0.0
O785 O 0.66984 0.82726 0.69055 0.0
O786 O 0.69275 0.86327 0.69988 0.0
O787 O 0.67369 0.87784 0.68476 0.0
H788 H 0.63583 0.85142 0.70566 0.0
H789 H 0.61191 0.84413 0.72465 0.0
H790 H 0.61645 0.79063 0.71281 0.0
H791 H 0.64015 0.79788 0.6939 0.0
H792 H 0.70916 0.79995 0.61554 0.0
H793 H 0.69702 0.81269 0.64127 0.0
H794 H 0.72334 0.85047 0.59721 0.0
H795 H 0.71114 0.86313 0.62256 0.0
H796 H 0.73556 0.91023 0.71329 0.0
H797 H 0.68708 0.93574 0.71219 0.0
H798 H 0.67221 0.9094 0.70187 0.0
H799 H 0.72066 0.88365 0.70296 0.0
C800 C 0.62895 0.81966 0.33902 0.0
C801 C 0.62135 0.82814 0.32468 0.0
C802 C 0.59835 0.80574 0.32196 0.0
C803 C 0.60619 0.82124 0.31624 0.0
C804 C 0.60595 0.79748 0.33636 0.0
C805 C 0.62095 0.80434 0.34474 0.0
U806 U 0.67195 0.84753 0.35314 0.0
O807 O 0.68076 0.85131 0.3803 0.0
O808 O 0.69594 0.83586 0.36357 0.0
C809 C 0.69435 0.84178 0.37916 0.0
C810 C 0.64514 0.82588 0.34847 0.0
C811 C 0.69913 0.83033 0.39409 0.0
C812 C 0.69284 0.80798 0.41556 0.0
C813 C 0.68773 0.81794 0.40101 0.0
C814 C 0.72075 0.82253 0.41648 0.0
C815 C 0.70942 0.81023 0.42352 0.0
C816 C 0.71569 0.83238 0.402 0.0
C817 C 0.68758 0.8898 0.32767 0.0
C818 C 0.71334 0.90872 0.33107 0.0
C819 C 0.69176 0.91494 0.30883 0.0
C820 C 0.68192 0.90044 0.31395 0.0
C821 C 0.70764 0.91933 0.31727 0.0
C822 C 0.70344 0.89415 0.33622 0.0
C823 C 0.67662 0.87431 0.33222 0.0
O824 O 0.66003 0.82402 0.34136 0.0
O825 O 0.64481 0.8398 0.35785 0.0
O826 O 0.66772 0.8748 0.34621 0.0
O827 O 0.68268 0.85903 0.32959 0.0
H828 H 0.62717 0.83996 0.31995 0.0
H829 H 0.6007 0.82786 0.30511 0.0
H830 H 0.60032 0.78553 0.34103 0.0
H831 H 0.62645 0.7975 0.35574 0.0
H832 H 0.68379 0.79864 0.42071 0.0
H833 H 0.67487 0.81606 0.39527 0.0
H834 H 0.73355 0.82462 0.42229 0.0
H835 H 0.72476 0.84183 0.39705 0.0
H836 H 0.72552 0.9117 0.33782 0.0
H837 H 0.687 0.9227 0.29815 0.0
H838 H 0.66981 0.89745 0.30705 0.0
H839 H 0.7082 0.88626 0.34679 0.0
C840 C 0.63324 0.1861 0.31731 0.0
C841 C 0.63156 0.20376 0.32031 0.0
C842 C 0.604 0.20394 0.30341 0.0
C843 C 0.61709 0.21257 0.31345 0.0
C844 C 0.60558 0.18626 0.3008 0.0
C845 C 0.61994 0.17751 0.30763 0.0
U846 U 0.67647 0.17071 0.34317 0.0
O847 O 0.68282 0.14331 0.34666 0.0
O848 O 0.69889 0.15992 0.33072 0.0
C849 C 0.69593 0.14425 0.33649 0.0
C850 C 0.64899 0.17628 0.3226 0.0
C851 C 0.69903 0.12941 0.32476 0.0
C852 C 0.69311 0.09975 0.31489 0.0
C853 C 0.68823 0.11449 0.32384 0.0
C854 C 0.71928 0.11465 0.30697 0.0
C855 C 0.7088 0.09956 0.30633 0.0
C856 C 0.71457 0.12917 0.31609 0.0
C857 C 0.69598 0.19566 0.38523 0.0
C858 C 0.72414 0.20442 0.39861 0.0
C859 C 0.69857 0.20613 0.41501 0.0
C860 C 0.6885 0.19974 0.40084 0.0
C861 C 0.71654 0.20869 0.41412 0.0
C862 C 0.71401 0.19808 0.38435 0.0
C863 C 0.68431 0.19107 0.36983 0.0
O864 O 0.66434 0.18327 0.32026 0.0
O865 O 0.64864 0.16636 0.33633 0.0
O866 O 0.674 0.17742 0.37066 0.0
O867 O 0.68998 0.19372 0.35431 0.0
H868 H 0.64156 0.2108 0.32763 0.0
H869 H 0.61628 0.22621 0.31566 0.0
H870 H 0.59587 0.17927 0.29304 0.0
H871 H 0.62089 0.16397 0.30491 0.0
H872 H 0.68482 0.08834 0.31504 0.0
H873 H 0.67627 0.11397 0.33053 0.0
H874 H 0.7316 0.11496 0.30092 0.0
H875 H 0.72351 0.14011 0.31687 0.0
H876 H 0.73793 0.20619 0.39747 0.0
H877 H 0.69226 0.20924 0.42668 0.0
H878 H 0.67467 0.19837 0.40196 0.0
H879 H 0.72028 0.19534 0.37256 0.0
C880 C 0.32905 0.13319 0.34292 0.0
C881 C 0.3377 0.12934 0.32806 0.0
C882 C 0.32099 0.10179 0.32429 0.0
C883 C 0.33334 0.1143 0.31861 0.0
C884 C 0.31095 0.10728 0.33795 0.0
C885 C 0.3152 0.12229 0.34733 0.0
U886 U 0.35485 0.17555 0.35872 0.0
O887 O 0.34362 0.19849 0.36981 0.0
O888 O 0.36119 0.18296 0.38574 0.0
C889 C 0.35122 0.19631 0.38506 0.0
C890 C 0.33355 0.14856 0.35384 0.0
C891 C 0.34159 0.20051 0.40072 0.0
C892 C 0.31514 0.20737 0.41509 0.0
C893 C 0.32346 0.20122 0.40066 0.0
C894 C 0.34279 0.21204 0.42997 0.0
C895 C 0.32475 0.21308 0.42983 0.0
C896 C 0.35107 0.20584 0.41565 0.0
C897 C 0.39492 0.19395 0.33357 0.0
C898 C 0.41943 0.21297 0.34216 0.0
C899 C 0.4143 0.20592 0.31218 0.0
C900 C 0.39981 0.19576 0.31643 0.0
C901 C 0.42437 0.21461 0.32497 0.0
C902 C 0.40488 0.20273 0.34643 0.0
C903 C 0.3801 0.18199 0.33744 0.0
O904 O 0.34786 0.14824 0.36347 0.0
O905 O 0.33073 0.16385 0.34724 0.0
O906 O 0.36443 0.18772 0.33497 0.0
O907 O 0.38164 0.17208 0.35114 0.0
H908 H 0.34771 0.13805 0.3236 0.0
H909 H 0.3396 0.11315 0.30663 0.0
H910 H 0.29953 0.10011 0.34157 0.0
H911 H 0.30753 0.12541 0.35812 0.0
H912 H 0.30122 0.20807 0.41461 0.0
H913 H 0.31574 0.1974 0.38936 0.0
H914 H 0.35054 0.21638 0.44108 0.0
H915 H 0.36503 0.2057 0.41605 0.0
H916 H 0.42695 0.2195 0.3523 0.0
H917 H 0.41777 0.2069 0.29886 0.0
H918 H 0.39251 0.18906 0.30625 0.0
H919 H 0.40155 0.20154 0.35977 0.0
C920 C 0.32679 0.89516 0.32552 0.0
C921 C 0.31359 0.8991 0.33657 0.0
C922 C 0.30512 0.9236 0.31824 0.0
C923 C 0.30286 0.91316 0.33295 0.0
C924 C 0.31836 0.91959 0.3073 0.0
C925 C 0.32901 0.90559 0.31089 0.0
U926 U 0.34476 0.85365 0.34903 0.0
O927 O 0.35537 0.83079 0.3369 0.0
O928 O 0.37219 0.84716 0.35342 0.0
C929 C 0.37115 0.83379 0.34319 0.0
C930 C 0.33858 0.8805 0.32872 0.0
C931 C 0.38591 0.8307 0.33173 0.0
C932 C 0.41223 0.83997 0.31732 0.0
C933 C 0.39774 0.84377 0.32689 0.0
C934 C 0.40352 0.80999 0.31718 0.0
C935 C 0.41537 0.823 0.31241 0.0
C936 C 0.38906 0.81379 0.32669 0.0
C937 C 0.31753 0.83782 0.3899 0.0
C938 C 0.31722 0.8134 0.41 0.0
C939 C 0.29734 0.83628 0.41332 0.0
C940 C 0.30413 0.84479 0.399 0.0
C941 C 0.30377 0.8205 0.41907 0.0
C942 C 0.32401 0.82195 0.39552 0.0
C943 C 0.32382 0.84758 0.37461 0.0
O944 O 0.3489 0.88111 0.34254 0.0
O945 O 0.3323 0.86494 0.32564 0.0
O946 O 0.32137 0.84091 0.35921 0.0
O947 O 0.33804 0.85711 0.37619 0.0
H948 H 0.31157 0.89133 0.34795 0.0
H949 H 0.29277 0.91588 0.34163 0.0
H950 H 0.32044 0.9273 0.29589 0.0
H951 H 0.33907 0.90291 0.30214 0.0
H952 H 0.42111 0.85028 0.31387 0.0
H953 H 0.39591 0.8569 0.33067 0.0
H954 H 0.40554 0.79682 0.31366 0.0
H955 H 0.38042 0.80335 0.33038 0.0
H956 H 0.32249 0.80127 0.41414 0.0
H957 H 0.28708 0.84211 0.42002 0.0
H958 H 0.29882 0.85695 0.39498 0.0
H959 H 0.33428 0.81621 0.38877 0.0
C960 C 0.68996 0.63787 0.19443 0.0
C961 C 0.70569 0.63505 0.18667 0.0
C962 C 0.71042 0.60909 0.20435 0.0
C963 C 0.7158 0.62084 0.19159 0.0
C964 C 0.69459 0.61184 0.21187 0.0
C965 C 0.68455 0.62599 0.207 0.0
U966 U 0.67382 0.68015 0.16991 0.0
O967 O 0.64668 0.68775 0.16495 0.0
O968 O 0.66386 0.70326 0.18205 0.0
C969 C 0.64833 0.70139 0.17476 0.0
C970 C 0.67909 0.65319 0.19048 0.0
C971 C 0.63301 0.70727 0.18411 0.0
C972 C 0.61695 0.71204 0.21013 0.0
C973 C 0.63095 0.7048 0.20189 0.0
C974 C 0.60684 0.72427 0.18309 0.0
C975 C 0.60478 0.72202 0.20083 0.0
C976 C 0.62067 0.71699 0.1749 0.0
C977 C 0.69864 0.69689 0.12868 0.0
C978 C 0.69491 0.72205 0.10989 0.0
C979 C 0.71685 0.70183 0.104 0.0
C980 C 0.71204 0.69194 0.11832 0.0
C981 C 0.7084 0.71704 0.09957 0.0
C982 C 0.69006 0.71208 0.12429 0.0
C983 C 0.69432 0.68584 0.14385 0.0
O984 O 0.68608 0.66854 0.19326 0.0
O985 O 0.66876 0.65279 0.17666 0.0
O986 O 0.68015 0.6762 0.14277 0.0
O987 O 0.69737 0.69214 0.15932 0.0
H988 H 0.71028 0.64393 0.17699 0.0
H989 H 0.72796 0.61914 0.1856 0.0
H990 H 0.69012 0.60318 0.2218 0.0
H991 H 0.67257 0.6278 0.2133 0.0
H992 H 0.61577 0.71008 0.22383 0.0
H993 H 0.64025 0.69751 0.20943 0.0
H994 H 0.59782 0.7319 0.17556 0.0
H995 H 0.62194 0.71934 0.16126 0.0
H996 H 0.68815 0.7337 0.10681 0.0
H997 H 0.72727 0.69762 0.09638 0.0
H998 H 0.71891 0.68032 0.12135 0.0
H999 H 0.67969 0.71625 0.13199 0.0
C1000 C 0.32402 0.70026 0.13606 0.0
C1001 C 0.33254 0.71609 0.1329 0.0
C1002 C 0.31406 0.72086 0.10695 0.0
C1003 C 0.32763 0.72627 0.11848 0.0
C1004 C 0.30559 0.70503 0.11023 0.0
C1005 C 0.31052 0.6949 0.12453 0.0
U1006 U 0.34952 0.68417 0.17841 0.0
O1007 O 0.33778 0.67198 0.20104 0.0
O1008 O 0.35478 0.65718 0.18549 0.0
C1009 C 0.34456 0.65699 0.19854 0.0
C1010 C 0.32841 0.68903 0.15121 0.0
C1011 C 0.33378 0.64101 0.2016 0.0
C1012 C 0.30687 0.62633 0.20974 0.0
C1013 C 0.31603 0.64137 0.20477 0.0
C1014 C 0.33286 0.61022 0.20837 0.0
C1015 C 0.31522 0.61059 0.21175 0.0
C1016 C 0.34198 0.62518 0.2034 0.0
C1017 C 0.39054 0.71083 0.19718 0.0
C1018 C 0.41336 0.70353 0.21848 0.0
C1019 C 0.41253 0.73229 0.20672 0.0
C1020 C 0.39771 0.72761 0.19662 0.0
C1021 C 0.42067 0.7203 0.2177 0.0
C1022 C 0.39847 0.69882 0.20832 0.0
C1023 C 0.37543 0.70634 0.18532 0.0
O1024 O 0.34249 0.6801 0.15084 0.0
O1025 O 0.32574 0.69494 0.1666 0.0
O1026 O 0.35988 0.70788 0.19109 0.0
O1027 O 0.37657 0.69292 0.17537 0.0
H1028 H 0.34297 0.72057 0.14155 0.0
H1029 H 0.33445 0.73835 0.11628 0.0
H1030 H 0.29515 0.70045 0.10164 0.0
H1031 H 0.3037 0.68279 0.12662 0.0
H1032 H 0.29331 0.62705 0.21229 0.0
H1033 H 0.30928 0.65332 0.20376 0.0
H1034 H 0.33967 0.59833 0.20986 0.0
H1035 H 0.35566 0.62445 0.20139 0.0
H1036 H 0.41932 0.694 0.22681 0.0
H1037 H 0.41781 0.74526 0.2058 0.0
H1038 H 0.39196 0.73712 0.18811 0.0
H1039 H 0.3933 0.68579 0.20901 0.0
C1040 C 0.33128 0.33544 0.14272 0.0
C1041 C 0.34089 0.33505 0.12771 0.0
C1042 C 0.31751 0.31905 0.1119 0.0
C1043 C 0.33414 0.3269 0.11259 0.0
C1044 C 0.30806 0.31918 0.12693 0.0
C1045 C 0.31481 0.32724 0.14203 0.0
U1046 U 0.35925 0.35116 0.18469 0.0
O1047 O 0.36473 0.37822 0.1927 0.0
O1048 O 0.34872 0.36139 0.20846 0.0
C1049 C 0.35572 0.37682 0.20661 0.0
C1050 C 0.33683 0.34616 0.15822 0.0
C1051 C 0.34631 0.39219 0.21282 0.0
C1052 C 0.32003 0.40779 0.21856 0.0
C1053 C 0.32826 0.39379 0.21112 0.0
C1054 C 0.34756 0.41896 0.22955 0.0
C1055 C 0.32954 0.4206 0.228 0.0
C1056 C 0.35575 0.40505 0.22212 0.0
C1057 C 0.40152 0.32378 0.19832 0.0
C1058 C 0.41656 0.31044 0.22328 0.0
C1059 C 0.4309 0.31303 0.19646 0.0
C1060 C 0.41632 0.32102 0.18892 0.0
C1061 C 0.43123 0.30746 0.21372 0.0
C1062 C 0.4019 0.31841 0.2157 0.0
C1063 C 0.38536 0.32991 0.18894 0.0
O1064 O 0.33479 0.33959 0.17364 0.0
O1065 O 0.35077 0.35612 0.15757 0.0
O1066 O 0.38609 0.34402 0.17959 0.0
O1067 O 0.37032 0.32746 0.19589 0.0
H1068 H 0.35349 0.34137 0.1275 0.0
H1069 H 0.3418 0.32699 0.10128 0.0
H1070 H 0.29527 0.31324 0.12691 0.0
H1071 H 0.30685 0.32749 0.15313 0.0
H1072 H 0.30615 0.40861 0.21695 0.0
H1073 H 0.32049 0.38415 0.20419 0.0
H1074 H 0.35537 0.42849 0.23658 0.0
H1075 H 0.36961 0.40421 0.2239 0.0
H1076 H 0.41636 0.3064 0.23662 0.0
H1077 H 0.44191 0.31102 0.1887 0.0
H1078 H 0.41646 0.32464 0.17545 0.0
H1079 H 0.39076 0.32003 0.22337 0.0
C1080 C 0.64765 0.3298 0.19808 0.0
C1081 C 0.64928 0.32708 0.21601 0.0
C1082 C 0.61839 0.31973 0.21732 0.0
C1083 C 0.63484 0.32208 0.22548 0.0
C1084 C 0.61679 0.32256 0.19945 0.0
C1085 C 0.6312 0.32744 0.18999 0.0
U1086 U 0.68868 0.35647 0.18428 0.0
O1087 O 0.71303 0.34711 0.17454 0.0
O1088 O 0.69665 0.36332 0.15804 0.0
C1089 C 0.71083 0.35452 0.15939 0.0
C1090 C 0.66287 0.3338 0.18732 0.0
C1091 C 0.71609 0.34511 0.14387 0.0
C1092 C 0.71886 0.31909 0.12689 0.0
C1093 C 0.71279 0.32743 0.14142 0.0
C1094 C 0.73161 0.34589 0.11709 0.0
C1095 C 0.72837 0.32824 0.11456 0.0
C1096 C 0.72554 0.35418 0.1315 0.0
C1097 C 0.70042 0.39795 0.21275 0.0
C1098 C 0.71604 0.42509 0.20783 0.0
C1099 C 0.70467 0.4192 0.23552 0.0
C1100 C 0.69859 0.40303 0.22977 0.0
C1101 C 0.71192 0.43153 0.2242 0.0
C1102 C 0.70987 0.40886 0.20199 0.0
C1103 C 0.69136 0.38184 0.20671 0.0
O1104 O 0.66203 0.34742 0.17727 0.0
O1105 O 0.67839 0.33182 0.19438 0.0
O1106 O 0.6991 0.36718 0.20905 0.0
O1107 O 0.68215 0.38249 0.19217 0.0
H1108 H 0.66172 0.32862 0.22271 0.0
H1109 H 0.63652 0.31997 0.23921 0.0
H1110 H 0.60435 0.32084 0.19277 0.0
H1111 H 0.62951 0.32918 0.1762 0.0
H1112 H 0.71614 0.30549 0.12527 0.0
H1113 H 0.70564 0.32006 0.15074 0.0
H1114 H 0.73888 0.35327 0.10786 0.0
H1115 H 0.72841 0.36777 0.1331 0.0
H1116 H 0.72412 0.43236 0.19929 0.0
H1117 H 0.70359 0.4217 0.24902 0.0
H1118 H 0.69213 0.39452 0.23869 0.0
H1119 H 0.71237 0.40492 0.18904 0.0
C1120 C 0.6511 0.32491 0.84475 0.0
C1121 C 0.64334 0.33279 0.83014 0.0
C1122 C 0.62136 0.3094 0.82752 0.0
C1123 C 0.62861 0.3251 0.82161 0.0
C1124 C 0.62912 0.3017 0.84215 0.0
C1125 C 0.64371 0.30934 0.85062 0.0
U1126 U 0.69202 0.35564 0.85858 0.0
O1127 O 0.70094 0.36025 0.88554 0.0
O1128 O 0.71719 0.34618 0.86854 0.0
C1129 C 0.7154 0.35214 0.88409 0.0
C1130 C 0.66688 0.33202 0.85429 0.0
C1131 C 0.72202 0.34172 0.89905 0.0
C1132 C 0.71814 0.32368 0.92464 0.0
C1133 C 0.71123 0.332 0.90979 0.0
C1134 C 0.74666 0.33448 0.91815 0.0
C1135 C 0.73594 0.32501 0.92909 0.0
C1136 C 0.73979 0.34269 0.90338 0.0
C1137 C 0.70553 0.39847 0.83413 0.0
C1138 C 0.73102 0.41742 0.83907 0.0
C1139 C 0.71012 0.42425 0.81636 0.0
C1140 C 0.70021 0.40951 0.82063 0.0
C1141 C 0.7257 0.42839 0.82545 0.0
C1142 C 0.72104 0.40265 0.84338 0.0
C1143 C 0.69475 0.38266 0.83773 0.0
O1144 O 0.68185 0.33129 0.84707 0.0
O1145 O 0.66561 0.34582 0.86369 0.0
O1146 O 0.68573 0.38244 0.85166 0.0
O1147 O 0.7015 0.36776 0.83482 0.0
H1148 H 0.6487 0.34477 0.82528 0.0
H1149 H 0.62296 0.33133 0.81033 0.0
H1150 H 0.62392 0.28964 0.84699 0.0
H1151 H 0.64935 0.30294 0.86182 0.0
H1152 H 0.70958 0.31643 0.9328 0.0
H1153 H 0.69748 0.33105 0.90688 0.0
H1154 H 0.76037 0.33576 0.92122 0.0
H1155 H 0.74842 0.35019 0.89547 0.0
H1156 H 0.74297 0.42024 0.84629 0.0
H1157 H 0.7057 0.43233 0.80578 0.0
H1158 H 0.68837 0.40664 0.81321 0.0
H1159 H 0.7255 0.39442 0.85383 0.0
C1160 C 0.64608 0.68963 0.8255 0.0
C1161 C 0.64547 0.70771 0.82526 0.0
C1162 C 0.61617 0.70661 0.81183 0.0
C1163 C 0.63066 0.71608 0.81857 0.0
C1164 C 0.61668 0.68861 0.8125 0.0
C1165 C 0.63136 0.68029 0.81924 0.0
U1166 U 0.69032 0.67529 0.84998 0.0
O1167 O 0.69824 0.64835 0.85312 0.0
O1168 O 0.71305 0.66583 0.83689 0.0
C1169 C 0.71112 0.65004 0.84272 0.0
C1170 C 0.66219 0.68 0.83004 0.0
C1171 C 0.71479 0.63536 0.83101 0.0
C1172 C 0.70809 0.60669 0.819 0.0
C1173 C 0.70318 0.62129 0.82812 0.0
C1174 C 0.73619 0.61985 0.81517 0.0
C1175 C 0.72475 0.60569 0.81255 0.0
C1176 C 0.7313 0.6344 0.82424 0.0
C1177 C 0.70917 0.70141 0.89164 0.0
C1178 C 0.72563 0.69595 0.91874 0.0
C1179 C 0.72064 0.72515 0.90975 0.0
C1180 C 0.71154 0.71911 0.89486 0.0
C1181 C 0.72769 0.7137 0.92201 0.0
C1182 C 0.71645 0.68987 0.90377 0.0
C1183 C 0.69753 0.69586 0.87658 0.0
O1184 O 0.67728 0.68741 0.82734 0.0
O1185 O 0.66252 0.66983 0.84361 0.0
O1186 O 0.68845 0.6814 0.8776 0.0
O1187 O 0.7025 0.69914 0.86092 0.0
H1188 H 0.65657 0.71536 0.82981 0.0
H1189 H 0.63068 0.72997 0.81823 0.0
H1190 H 0.60582 0.68094 0.80739 0.0
H1191 H 0.63142 0.6664 0.819 0.0
H1192 H 0.699 0.59598 0.81733 0.0
H1193 H 0.69045 0.62135 0.83328 0.0
H1194 H 0.74915 0.61947 0.81057 0.0
H1195 H 0.74072 0.64476 0.82646 0.0
H1196 H 0.73083 0.68678 0.92796 0.0
H1197 H 0.72181 0.73884 0.91191 0.0
H1198 H 0.70589 0.72837 0.88601 0.0
H1199 H 0.71476 0.67617 0.90189 0.0
C1200 C 0.33577 0.64392 0.83102 0.0
C1201 C 0.3419 0.63851 0.81525 0.0
C1202 C 0.32168 0.61361 0.8149 0.0
C1203 C 0.33497 0.62344 0.8073 0.0
C1204 C 0.31579 0.61903 0.83072 0.0
C1205 C 0.32275 0.63391 0.83865 0.0
U1206 U 0.36281 0.68724 0.8441 0.0
O1207 O 0.35045 0.7101 0.85398 0.0
O1208 O 0.36751 0.69529 0.87114 0.0
C1209 C 0.3567 0.70795 0.8698 0.0
C1210 C 0.34187 0.66002 0.83988 0.0
C1211 C 0.34483 0.71021 0.88427 0.0
C1212 C 0.31625 0.71508 0.89532 0.0
C1213 C 0.32679 0.71119 0.88163 0.0
C1214 C 0.3414 0.71684 0.91464 0.0
C1215 C 0.32346 0.71809 0.91197 0.0
C1216 C 0.35192 0.71298 0.901 0.0
C1217 C 0.40413 0.7051 0.81988 0.0
C1218 C 0.426 0.7275 0.82723 0.0
C1219 C 0.42748 0.71244 0.8007 0.0
C1220 C 0.41233 0.70301 0.80437 0.0
C1221 C 0.43599 0.72366 0.81284 0.0
C1222 C 0.41075 0.71799 0.83099 0.0
C1223 C 0.38897 0.69352 0.82378 0.0
O1224 O 0.35617 0.65993 0.84953 0.0
O1225 O 0.33932 0.67483 0.83213 0.0
O1226 O 0.37335 0.69918 0.82062 0.0
O1227 O 0.39004 0.68403 0.83781 0.0
H1228 H 0.35191 0.64596 0.80907 0.0
H1229 H 0.33984 0.61953 0.79515 0.0
H1230 H 0.30567 0.61174 0.83691 0.0
H1231 H 0.31775 0.63775 0.85078 0.0
H1232 H 0.30246 0.71596 0.89288 0.0
H1233 H 0.32084 0.70926 0.86894 0.0
H1234 H 0.34733 0.71911 0.92729 0.0
H1235 H 0.36573 0.71251 0.90346 0.0
H1236 H 0.42932 0.73806 0.83565 0.0
H1237 H 0.43242 0.71069 0.78809 0.0
H1238 H 0.40705 0.69388 0.79499 0.0
H1239 H 0.40411 0.72078 0.84256 0.0
C1240 C 0.35437 0.39627 0.83058 0.0
C1241 C 0.34232 0.40507 0.83997 0.0
C1242 C 0.33699 0.42506 0.81576 0.0
C1243 C 0.33368 0.4193 0.83261 0.0
C1244 C 0.34894 0.41613 0.80647 0.0
C1245 C 0.35745 0.40198 0.81375 0.0
U1246 U 0.37139 0.35681 0.86027 0.0
O1247 O 0.38293 0.33376 0.84965 0.0
O1248 O 0.3991 0.35182 0.86497 0.0
C1249 C 0.39854 0.33769 0.85583 0.0
C1250 C 0.36471 0.3817 0.83772 0.0
C1251 C 0.41325 0.33459 0.84458 0.0
C1252 C 0.43304 0.34302 0.82211 0.0
C1253 C 0.41893 0.34656 0.83225 0.0
C1254 C 0.43608 0.31559 0.83645 0.0
C1255 C 0.44179 0.32747 0.82409 0.0
C1256 C 0.42203 0.31912 0.84654 0.0
C1257 C 0.34937 0.33858 0.90228 0.0
C1258 C 0.34014 0.3111 0.91522 0.0
C1259 C 0.34548 0.33577 0.93338 0.0
C1260 C 0.3498 0.34572 0.91888 0.0
C1261 C 0.34035 0.31835 0.93178 0.0
C1262 C 0.34457 0.32104 0.90071 0.0
C1263 C 0.35177 0.35011 0.88683 0.0
O1264 O 0.37421 0.38396 0.85195 0.0
O1265 O 0.3585 0.36591 0.83604 0.0
O1266 O 0.34882 0.34359 0.87142 0.0
O1267 O 0.3648 0.36131 0.88731 0.0
H1268 H 0.33971 0.40109 0.853 0.0
H1269 H 0.3246 0.42597 0.84014 0.0
H1270 H 0.35187 0.42026 0.79356 0.0
H1271 H 0.36674 0.39558 0.80623 0.0
H1272 H 0.43711 0.35238 0.81263 0.0
H1273 H 0.41245 0.3586 0.83046 0.0
H1274 H 0.44247 0.3035 0.83823 0.0
H1275 H 0.418 0.30967 0.85596 0.0
H1276 H 0.33627 0.29775 0.91347 0.0
H1277 H 0.34579 0.3418 0.94588 0.0
H1278 H 0.35307 0.35921 0.92063 0.0
H1279 H 0.34385 0.31504 0.8882 0.0
Cu1280 Cu 0.28214 0.26044 0.02421 0.0
N1281 N 0.30244 0.26496 0.01148 0.0
N1282 N 0.31928 0.27783 0.9917 0.0
C1283 C 0.303 0.27422 0.99663 0.0
C1284 C 0.32945 0.27056 1.0041 0.0
C1285 C 0.31912 0.26254 0.01608 0.0
O1286 O 0.26434 0.25161 1.00661 0.0
C1287 C 0.29308 0.28972 0.04555 0.0
O1288 O 0.30587 0.29138 0.03514 0.0
H1289 H 0.29173 0.27921 0.99004 0.0
H1290 H 0.3235 0.25622 0.02782 0.0
N1291 N 0.28213 0.24157 0.03984 0.0
N1292 N 0.27047 0.22501 0.06058 0.0
C1293 C 0.27284 0.24112 0.05427 0.0
C1294 C 0.28566 0.22505 0.03696 0.0
C1295 C 0.27859 0.21487 0.04973 0.0
C1296 C 0.25813 0.25779 0.99241 0.0
O1297 O 0.26037 0.27422 0.98911 0.0
H1298 H 0.26672 0.25222 0.05927 0.0
H1299 H 0.29169 0.22056 0.02562 0.0
O1300 O 0.28024 0.27954 0.04132 0.0
H1301 H 0.34341 0.27134 1.00468 0.0
H1302 H 0.27853 0.20099 0.05044 0.0
Cu1303 Cu 0.78223 0.27164 0.01816 0.0
N1304 N 0.76418 0.28041 0.03281 0.0
N1305 N 0.75055 0.29266 0.05431 0.0
C1306 C 0.76567 0.29143 0.04624 0.0
C1307 C 0.73929 0.28212 0.04558 0.0
C1308 C 0.74768 0.27461 0.03243 0.0
O1309 O 0.79313 0.25972 0.0398 0.0
C1310 C 0.77073 0.29775 0.99157 0.0
O1311 O 0.77986 0.30888 1.001 0.0
H1312 H 0.77757 0.29806 0.05029 0.0
H1313 H 0.74225 0.26519 0.02347 0.0
N1314 N 0.80029 0.2626 1.00355 0.0
N1315 N 0.81403 0.25156 0.98146 0.0
C1316 C 0.79855 0.25547 0.98769 0.0
C1317 C 0.81741 0.26315 1.00728 0.0
C1318 C 0.82584 0.25633 0.9938 0.0
C1319 C 0.80512 0.26588 0.04994 0.0
O1320 O 0.81218 0.28097 0.04644 0.0
H1321 H 0.78631 0.25352 0.98069 0.0
H1322 H 0.8235 0.2685 0.01881 0.0
O1323 O 0.76999 0.28201 0.99633 0.0
H1324 H 0.72594 0.27985 0.04868 0.0
H1325 H 0.83966 0.25543 0.99285 0.0
Cu1326 Cu 0.76919 0.77175 0.0085 0.0
N1327 N 0.77437 0.79142 0.99418 0.0
N1328 N 0.78519 0.80624 0.97153 0.0
C1329 C 0.77399 0.79353 0.97669 0.0
C1330 C 0.79291 0.81214 0.98615 0.0
C1331 C 0.7865 0.80308 0.99974 0.0
O1332 O 0.76846 0.7519 0.9922 0.0
C1333 C 0.78121 0.78622 0.04058 0.0
O1334 O 0.76508 0.79079 0.04019 0.0
H1335 H 0.76687 0.78508 0.96784 0.0
H1336 H 0.79225 0.80353 0.01252 0.0
N1337 N 0.74809 0.76829 0.0201 0.0
N1338 N 0.73099 0.75695 0.04033 0.0
C1339 C 0.74657 0.75675 0.03318 0.0
C1340 C 0.73276 0.77598 0.0189 0.0
C1341 C 0.72221 0.769 0.03133 0.0
C1342 C 0.75524 0.75175 0.98157 0.0
O1343 O 0.74417 0.76406 0.98271 0.0
H1344 H 0.75693 0.74865 0.03769 0.0
H1345 H 0.72958 0.78616 0.00989 0.0
O1346 O 0.78607 0.77611 0.02868 0.0
H1347 H 0.80343 0.82159 0.98685 0.0
H1348 H 0.70923 0.77272 0.0338 0.0
Cu1349 Cu 0.26783 0.76123 0.01237 0.0
N1350 N 0.24734 0.75899 0.02464 0.0
N1351 N 0.22986 0.76753 0.04521 0.0
C1352 C 0.24527 0.76974 0.03796 0.0
C1353 C 0.22169 0.75488 0.03599 0.0
C1354 C 0.23247 0.74965 0.02327 0.0
O1355 O 0.28212 0.75791 0.03426 0.0
C1356 C 0.26322 0.79128 0.98626 0.0
O1357 O 0.27824 0.79895 0.98971 0.0
H1358 H 0.25495 0.77923 0.04221 0.0
H1359 H 0.22955 0.73997 0.01363 0.0
N1360 N 0.2775 0.74452 0.9979 0.0
N1361 N 0.28976 0.73427 0.97427 0.0
C1362 C 0.27603 0.74244 0.98048 0.0
C1363 C 0.29307 0.73809 1.00219 0.0
C1364 C 0.30032 0.73151 0.98801 0.0
C1365 C 0.29493 0.76101 0.04478 0.0
O1366 O 0.30615 0.77333 0.04127 0.0
H1367 H 0.26611 0.74824 0.97237 0.0
H1368 H 0.30021 0.74058 0.01408 0.0
O1369 O 0.25887 0.77786 0.99476 0.0
H1370 H 0.2088 0.74989 0.03819 0.0
H1371 H 0.31326 0.72675 0.9875 0.0
Cu1372 Cu 0.02275 0.26259 0.27378 0.0
N1373 N 0.03548 0.24239 0.26897 0.0
N1374 N 0.05619 0.22797 0.25565 0.0
C1375 C 0.05204 0.24263 0.26373 0.0
C1376 C 0.04159 0.21817 0.25571 0.0
C1377 C 0.0291 0.22687 0.26386 0.0
O1378 O 0.04156 0.28036 0.27781 0.0
C1379 C 0.99185 0.25137 0.25841 0.0
O1380 O 0.99464 0.24166 0.27199 0.0
H1381 H 0.06049 0.2539 0.26453 0.0
H1382 H 0.01593 0.22233 0.2647 0.0
N1383 N 0.00908 0.2648 0.29352 0.0
N1384 N 0.98757 0.27546 0.30853 0.0
C1385 C 0.99762 0.27753 0.29481 0.0
C1386 C 1.00622 0.25439 0.30708 0.0
C1387 C 0.993 0.26093 0.31632 0.0
C1388 C 0.04991 0.27866 0.29238 0.0
O1389 O 0.04462 0.26663 0.303 0.0
H1390 H 0.99608 0.28767 0.28534 0.0
H1391 H 0.0127 0.24249 0.30963 0.0
O1392 O 1.00388 0.26259 0.25529 0.0
H1393 H 0.03987 0.20575 0.24966 0.0
H1394 H 0.98738 0.25513 0.32754 0.0
Cu1395 Cu 0.75793 0.01481 0.25668 0.0
N1396 N 0.77564 0.02982 0.2478 0.0
N1397 N 0.79086 0.05338 0.2389 0.0
C1398 C 0.78484 0.04434 0.25273 0.0
C1399 C 0.78502 0.04443 0.22509 0.0
C1400 C 0.77586 0.03033 0.23049 0.0
O1401 O 0.73994 0.03225 0.26128 0.0
C1402 C 0.77228 0.98864 0.23817 0.0
O1403 O 0.78506 0.99441 0.24832 0.0
H1404 H 0.78621 0.04871 0.26587 0.0
H1405 H 0.76838 0.02181 0.22206 0.0
N1406 N 0.7587 1.00014 0.27666 0.0
N1407 N 0.74896 0.97851 0.29373 0.0
C1408 C 0.74682 0.98715 0.27863 0.0
C1409 C 0.76882 0.9996 0.29115 0.0
C1410 C 0.76279 0.9864 0.30169 0.0
C1411 C 0.7418 0.03992 0.2759 0.0
O1412 O 0.75298 0.0334 0.28706 0.0
H1413 H 0.73666 0.9841 0.2691 0.0
H1414 H 0.77964 0.00831 0.29402 0.0
O1415 O 0.75758 0.99599 0.23888 0.0
H1416 H 0.78674 0.04825 0.21184 0.0
H1417 H 0.76817 0.98284 0.31422 0.0
Cu1418 Cu 0.0099 0.75563 0.2536 0.0
N1419 N 0.99665 0.77598 0.25047 0.0
N1420 N 0.97553 0.79274 0.23917 0.0
C1421 C 0.98157 0.77661 0.24088 0.0
C1422 C 0.9873 0.80269 0.24798 0.0
C1423 C 1.00019 0.79242 0.25492 0.0
O1424 O 0.99123 0.7378 0.25635 0.0
C1425 C 0.0378 0.76897 0.23639 0.0
O1426 O 0.03637 0.77953 0.24926 0.0
H1427 H 0.97522 0.76543 0.23506 0.0
H1428 H 0.01148 0.79677 0.26243 0.0
N1429 N 0.02541 0.75201 0.27307 0.0
N1430 N 0.04717 0.73948 0.28845 0.0
C1431 C 0.03838 0.74063 0.27305 0.0
C1432 C 0.02601 0.75822 0.28918 0.0
C1433 C 0.0393 0.75051 0.29864 0.0
C1434 C 0.98247 0.73995 0.26983 0.0
O1435 O 0.98711 0.75265 0.28014 0.0
H1436 H 0.04135 0.73328 0.26187 0.0
H1437 H 0.01735 0.76758 0.29382 0.0
O1438 O 0.0266 0.75649 0.23473 0.0
H1439 H 0.98663 0.81646 0.24929 0.0
H1440 H 0.04301 0.75295 0.31198 0.0
Cu1441 Cu 0.2601 1.00733 0.26836 0.0
N1442 N 0.28127 0.01993 0.27182 0.0
N1443 N 0.29807 0.04058 0.28496 0.0
C1444 C 0.28199 0.03581 0.27903 0.0
C1445 C 0.30791 0.02723 0.28113 0.0
C1446 C 0.29757 0.01455 0.27318 0.0
O1447 O 0.24588 0.02767 0.26178 0.0
C1448 C 0.25996 0.9819 0.30215 0.0
O1449 O 0.24804 0.98407 0.31332 0.0
H1450 H 0.27069 0.04319 0.28118 0.0
H1451 H 0.30143 1.00181 0.26989 0.0
N1452 N 0.25545 0.99129 0.25005 0.0
N1453 N 0.24137 0.96843 0.23751 0.0
C1454 C 0.24917 0.9749 0.25212 0.0
C1455 C 0.2513 0.99507 0.23346 0.0
C1456 C 0.24267 0.98116 0.22581 0.0
C1457 C 0.23388 0.03777 0.26541 0.0
O1458 O 0.22502 0.0346 0.27916 0.0
H1459 H 0.24925 0.96825 0.26437 0.0
H1460 H 0.25347 1.00739 0.22747 0.0
O1461 O 0.26004 0.99186 0.2889 0.0
H1462 H 0.32147 0.02631 0.28471 0.0
H1463 H 0.23714 0.98066 0.21281 0.0
Cu1464 Cu 0.01986 0.78069 0.75344 0.0
N1465 N 0.03351 0.77712 0.73399 0.0
N1466 N 0.05421 0.7659 0.71824 0.0
C1467 C 0.04772 0.76732 0.73406 0.0
C1468 C 0.04376 0.7753 0.70781 0.0
C1469 C 0.03113 0.78225 0.71752 0.0
O1470 O 0.03787 0.787 0.77155 0.0
C1471 C 0.9992 0.75098 0.74189 0.0
O1472 O 0.01283 0.74583 0.73419 0.0
H1473 H 0.05295 0.76092 0.74541 0.0
H1474 H 0.02071 0.79016 0.7128 0.0
N1475 N 1.00567 0.80022 0.75356 0.0
N1476 N 0.98486 0.81546 0.76551 0.0
C1477 C 0.98948 0.79993 0.7597 0.0
C1478 C 0.01121 0.81666 0.75515 0.0
C1479 C 0.99854 0.82599 0.76243 0.0
C1480 C 0.04995 0.77901 0.7795 0.0
O1481 O 0.04844 0.76221 0.78043 0.0
H1482 H 0.98195 0.78822 0.76162 0.0
H1483 H 0.02422 0.82121 0.7529 0.0
O1484 O 1.00132 0.7624 0.75362 0.0
H1485 H 0.0451 0.77692 0.6941 0.0
H1486 H 0.99979 0.83928 0.76637 0.0
Cu1487 Cu 0.27767 0.02252 0.77553 0.0
N1488 N 0.27831 0.03738 0.75599 0.0
N1489 N 0.28935 0.05952 0.74051 0.0
C1490 C 0.28673 0.0529 0.75639 0.0
C1491 C 0.28187 0.04778 0.72966 0.0
C1492 C 0.27487 0.03438 0.73917 0.0
O1493 O 0.27922 0.04093 0.79399 0.0
C1494 C 0.30365 1.00201 0.75852 0.0
O1495 O 0.30565 0.01524 0.74819 0.0
H1496 H 0.29184 0.05878 0.76815 0.0
H1497 H 0.26863 0.02283 0.73409 0.0
N1498 N 0.25718 0.00865 0.77836 0.0
N1499 N 0.24124 0.98611 0.78833 0.0
C1500 C 0.25695 0.99182 0.7832 0.0
C1501 C 0.24082 0.01348 0.77989 0.0
C1502 C 0.23118 0.99989 0.78632 0.0
C1503 C 0.26738 0.04415 0.80453 0.0
O1504 O 0.25612 0.03191 0.80809 0.0
H1505 H 0.26831 0.98408 0.78368 0.0
H1506 H 0.2363 0.02624 0.7775 0.0
O1507 O 0.29501 1.00388 0.77214 0.0
H1508 H 0.28195 0.04858 0.71577 0.0
H1509 H 0.21776 1.00018 0.78955 0.0
Cu1510 Cu 0.03132 0.27951 0.77352 0.0
N1511 N 0.01586 0.28045 0.7539 0.0
N1512 N 0.99415 0.29224 0.73792 0.0
C1513 C 0.99996 0.28736 0.75387 0.0
C1514 C 1.00683 0.28815 0.72748 0.0
C1515 C 0.02014 0.28102 0.7373 0.0
O1516 O 0.01431 0.28107 0.79202 0.0
C1517 C 0.06095 0.30592 0.77479 0.0
O1518 O 0.06079 0.30742 0.79158 0.0
H1519 H 0.99339 0.29017 0.76547 0.0
H1520 H 0.03269 0.27795 0.73285 0.0
N1521 N 0.04452 0.25929 0.77736 0.0
N1522 N 0.06564 0.24243 0.78838 0.0
C1523 C 0.06003 0.25868 0.78617 0.0
C1524 C 0.04036 0.24277 0.77375 0.0
C1525 C 0.05323 0.23244 0.78055 0.0
C1526 C 0.01191 0.26885 0.80288 0.0
O1527 O 0.02459 0.25845 0.80632 0.0
H1528 H 0.06688 0.26991 0.79126 0.0
H1529 H 0.02868 0.23844 0.76687 0.0
O1530 O 0.04924 0.2968 0.76692 0.0
H1531 H 1.00686 0.29102 0.71385 0.0
H1532 H 0.05347 0.21859 0.77978 0.0
Cu1533 Cu 0.77834 0.02479 0.75186 0.0
N1534 N 0.79017 0.03889 0.76925 0.0
N1535 N 0.80319 0.06112 0.7839 0.0
C1536 C 0.78801 0.05436 0.77692 0.0
C1537 C 0.81515 0.04977 0.78041 0.0
C1538 C 0.80732 0.03655 0.7714 0.0
O1539 O 0.77383 0.04139 0.73236 0.0
C1540 C 0.7931 0.99642 0.76704 0.0
O1541 O 0.78118 1.0008 0.77754 0.0
H1542 H 0.77594 0.06094 0.77668 0.0
H1543 H 0.81426 0.02648 0.7656 0.0
N1544 N 0.7573 0.01122 0.75278 0.0
N1545 N 0.7397 0.98904 0.74383 0.0
C1546 C 0.75607 0.99542 0.74545 0.0
C1547 C 0.74086 0.01488 0.75593 0.0
C1548 C 0.73005 1.00131 0.75042 0.0
C1549 C 0.7621 0.05228 0.7352 0.0
O1550 O 0.75462 0.05132 0.75 0.0
H1551 H 0.76693 0.98901 0.74044 0.0
H1552 H 0.73676 0.02679 0.7612 0.0
O1553 O 0.79453 1.00518 0.75295 0.0
H1554 H 0.82885 0.05144 0.78336 0.0
H1555 H 0.71614 1.00065 0.7509 0.0
Cu1556 Cu 0.26357 0.76915 0.50886 0.0
N1557 N 0.28212 0.77538 0.52503 0.0
N1558 N 0.2956 0.79011 0.54704 0.0
C1559 C 0.28029 0.78434 0.5398 0.0
C1560 C 0.30753 0.78455 0.53643 0.0
C1561 C 0.29928 0.77557 0.52299 0.0
O1562 O 0.24357 0.76521 0.52402 0.0
C1563 C 0.27776 0.78439 0.47959 0.0
O1564 O 0.28752 0.77109 0.48225 0.0
H1565 H 0.2679 0.78727 0.54474 0.0
H1566 H 0.30539 0.77026 0.51209 0.0
N1567 N 0.26305 0.74839 0.49587 0.0
N1568 N 0.25334 0.73024 0.47481 0.0
C1569 C 0.25375 0.74654 0.48077 0.0
C1570 C 0.26867 0.73255 0.49962 0.0
C1571 C 0.26275 0.7214 0.48669 0.0
C1572 C 0.2465 0.75407 0.53607 0.0
O1573 O 0.26176 0.74723 0.53719 0.0
H1574 H 0.24691 0.75689 0.47448 0.0
H1575 H 0.27608 0.72917 0.51116 0.0
O1576 O 0.26549 0.78677 0.48995 0.0
H1577 H 0.32127 0.78717 0.53807 0.0
H1578 H 0.26498 0.70778 0.48617 0.0
Cu1579 Cu 0.76179 0.764 0.51044 0.0
N1580 N 0.7778 0.75422 0.49543 0.0
N1581 N 0.79252 0.74393 0.47333 0.0
C1582 C 0.78785 0.75827 0.48187 0.0
C1583 C 0.78507 0.73071 0.48169 0.0
C1584 C 0.77624 0.73697 0.49496 0.0
O1585 O 0.74122 0.76702 0.49448 0.0
C1586 C 0.77947 0.74949 0.53845 0.0
O1587 O 0.79079 0.76042 0.53213 0.0
H1588 H 0.79094 0.77127 0.4778 0.0
H1589 H 0.76805 0.72937 0.50316 0.0
N1590 N 0.76234 0.78481 0.52306 0.0
N1591 N 0.75241 0.80154 0.54388 0.0
C1592 C 0.75248 0.78569 0.53701 0.0
C1593 C 0.76855 0.80095 0.52079 0.0
C1594 C 0.7625 0.81126 0.53365 0.0
C1595 C 0.7439 0.77832 0.48263 0.0
O1596 O 0.75905 0.78626 0.48256 0.0
H1597 H 0.74512 0.77483 0.5419 0.0
H1598 H 0.77644 0.80509 0.51032 0.0
O1599 O 0.76444 0.74801 0.53073 0.0
H1600 H 0.78561 0.71736 0.47808 0.0
H1601 H 0.76515 0.82487 0.53525 0.0
Cu1602 Cu 0.76961 0.26795 0.51418 0.0
N1603 N 0.7658 0.24811 0.49948 0.0
N1604 N 0.75318 0.23338 0.47681 0.0
C1605 C 0.76263 0.24761 0.48203 0.0
C1606 C 0.75025 0.22471 0.49146 0.0
C1607 C 0.75776 0.23371 0.50508 0.0
O1608 O 0.77112 0.28716 0.4972 0.0
C1609 C 0.75641 0.25455 0.54549 0.0
O1610 O 0.7728 0.25137 0.54817 0.0
H1611 H 0.76571 0.25812 0.47343 0.0
H1612 H 0.75526 0.23104 0.51825 0.0
N1613 N 0.78997 0.27291 0.5285 0.0
N1614 N 0.8059 0.28645 0.54972 0.0
C1615 C 0.79015 0.28435 0.54165 0.0
C1616 C 0.80636 0.26771 0.52822 0.0
C1617 C 0.81615 0.27603 0.54118 0.0
C1618 C 0.78427 0.28559 0.48781 0.0
O1619 O 0.79383 0.27212 0.49046 0.0
H1620 H 0.77884 0.29099 0.54531 0.0
H1621 H 0.81095 0.25859 0.5192 0.0
O1622 O 0.75176 0.26336 0.53198 0.0
H1623 H 0.74209 0.21326 0.49236 0.0
H1624 H 0.82974 0.27444 0.54421 0.0
Cu1625 Cu 0.2795 0.27492 0.52719 0.0
N1626 N 0.26077 0.27809 0.54188 0.0
N1627 N 0.24565 0.28838 0.56353 0.0
C1628 C 0.26065 0.28927 0.55519 0.0
C1629 C 0.2359 0.27627 0.55511 0.0
C1630 C 0.24521 0.26995 0.54185 0.0
O1631 O 0.28834 0.26159 0.54767 0.0
C1632 C 0.26568 0.29427 0.49759 0.0
O1633 O 0.27809 0.30544 0.50181 0.0
H1634 H 0.2714 0.29784 0.55876 0.0
H1635 H 0.24095 0.26006 0.53286 0.0
N1636 N 0.29186 0.25932 0.51361 0.0
N1637 N 0.30216 0.244 0.49191 0.0
C1638 C 0.28789 0.25034 0.49895 0.0
C1639 C 0.30916 0.25842 0.51559 0.0
C1640 C 0.31544 0.24901 0.50251 0.0
C1641 C 0.30073 0.26645 0.55807 0.0
O1642 O 0.30876 0.2812 0.55524 0.0
H1643 H 0.27503 0.24915 0.49311 0.0
H1644 H 0.31693 0.2651 0.5254 0.0
O1645 O 0.26398 0.28061 0.50674 0.0
H1646 H 0.22298 0.27223 0.55839 0.0
H1647 H 0.32889 0.24689 0.50032 0.0
Cu1648 Cu 0.77514 0.52212 0.76434 0.0
N1649 N 0.79252 0.5381 0.75599 0.0
N1650 N 0.80475 0.56275 0.74581 0.0
C1651 C 0.79647 0.55505 0.75908 0.0
C1652 C 0.80586 0.55055 0.73397 0.0
C1653 C 0.79833 0.53576 0.74006 0.0
O1654 O 0.75524 0.53732 0.7689 0.0
C1655 C 0.79097 0.49523 0.7476 0.0
O1656 O 0.80327 0.50143 0.75809 0.0
H1657 H 0.79233 0.56199 0.77005 0.0
H1658 H 0.79564 0.52464 0.73227 0.0
N1659 N 0.77653 0.50862 0.78505 0.0
N1660 N 0.76706 0.48774 0.8031 0.0
C1661 C 0.76583 0.49468 0.7871 0.0
C1662 C 0.78488 0.51053 0.8005 0.0
C1663 C 0.77907 0.49769 0.8116 0.0
C1664 C 0.75806 0.54761 0.78171 0.0
O1665 O 0.77293 0.54668 0.7903 0.0
H1666 H 0.7569 0.48994 0.77707 0.0
H1667 H 0.7941 0.52079 0.80368 0.0
O1668 O 0.77619 0.50256 0.74735 0.0
H1669 H 0.81065 0.55258 0.72122 0.0
H1670 H 0.78315 0.49599 0.82496 0.0
Cu1671 Cu 0.27329 0.52414 0.7668 0.0
N1672 N 0.29029 0.5091 0.77715 0.0
N1673 N 0.305 0.48666 0.78869 0.0
C1674 C 0.29856 0.49424 0.7739 0.0
C1675 C 0.30044 0.49678 0.80144 0.0
C1676 C 0.29135 0.51006 0.79446 0.0
O1677 O 0.25302 0.50808 0.76425 0.0
C1678 C 0.29149 0.55129 0.78273 0.0
O1679 O 0.30299 0.54459 0.7731 0.0
H1680 H 0.29891 0.48851 0.76132 0.0
H1681 H 0.2842 0.51888 0.80179 0.0
N1682 N 0.27205 0.53668 0.74541 0.0
N1683 N 0.26028 0.55626 0.7269 0.0
C1684 C 0.26097 0.54983 0.74316 0.0
C1685 C 0.27854 0.53466 0.72978 0.0
C1686 C 0.27137 0.54669 0.71843 0.0
C1687 C 0.25548 0.49649 0.75302 0.0
O1688 O 0.26998 0.49727 0.74492 0.0
H1689 H 0.25321 0.55444 0.7533 0.0
H1690 H 0.28747 0.52487 0.72668 0.0
O1691 O 0.2762 0.54429 0.78262 0.0
H1692 H 0.30255 0.49407 0.81503 0.0
H1693 H 0.27393 0.54813 0.70493 0.0
Cu1694 Cu 0.27311 0.50691 0.2668 0.0
N1695 N 0.2528 0.49305 0.2684 0.0
N1696 N 0.23605 0.47219 0.27974 0.0
C1697 C 0.25199 0.47957 0.27946 0.0
C1698 C 0.22637 0.48125 0.26829 0.0
C1699 C 0.23675 0.49412 0.26127 0.0
O1700 O 0.29029 0.48733 0.26654 0.0
C1701 C 0.25748 0.52762 0.2933 0.0
O1702 O 0.24683 0.51446 0.29531 0.0
H1703 H 0.26283 0.47548 0.28752 0.0
H1704 H 0.23276 0.50374 0.25196 0.0
N1705 N 0.2752 0.52118 0.24673 0.0
N1706 N 0.28426 0.54487 0.23216 0.0
C1707 C 0.27831 0.53845 0.24716 0.0
C1708 C 0.27863 0.5168 0.23056 0.0
C1709 C 0.28442 0.53115 0.22174 0.0
C1710 C 0.3015 0.48437 0.25521 0.0
O1711 O 0.30648 0.49712 0.2453 0.0
H1712 H 0.27739 0.54605 0.25864 0.0
H1713 H 0.27812 0.50395 0.22571 0.0
O1714 O 0.27114 0.52547 0.28476 0.0
H1715 H 0.21278 0.47883 0.26534 0.0
H1716 H 0.28908 0.53138 0.20882 0.0
Cu1717 Cu 0.76558 0.51894 0.26781 0.0
N1718 N 0.78235 0.50386 0.27868 0.0
N1719 N 0.7964 0.48132 0.29085 0.0
C1720 C 0.78984 0.48847 0.27592 0.0
C1721 C 0.79276 0.49227 0.30324 0.0
C1722 C 0.78398 0.50554 0.29591 0.0
O1723 O 0.74526 0.50337 0.26308 0.0
C1724 C 0.78311 0.54577 0.28465 0.0
O1725 O 0.79524 0.53828 0.27642 0.0
H1726 H 0.78944 0.48199 0.26369 0.0
H1727 H 0.77715 0.51465 0.30305 0.0
N1728 N 0.76512 0.53238 0.24708 0.0
N1729 N 0.75362 0.5529 0.22953 0.0
C1730 C 0.75292 0.54449 0.24481 0.0
C1731 C 0.77389 0.53312 0.23251 0.0
C1732 C 0.76686 0.54575 0.22173 0.0
C1733 C 0.74832 0.49183 0.25198 0.0
O1734 O 0.7639 0.49161 0.24607 0.0
H1735 H 0.74359 0.54711 0.25433 0.0
H1736 H 0.78455 0.52507 0.22982 0.0
O1737 O 0.76772 0.539 0.28375 0.0
H1738 H 0.79481 0.48992 0.31691 0.0
H1739 H 0.77118 0.5494 0.20914 0.0
Cu1740 Cu 0.53234 0.27286 0.76769 0.0
N1741 N 0.51795 0.29206 0.76988 0.0
N1742 N 0.49831 0.30899 0.78129 0.0
C1743 C 0.50721 0.29436 0.78294 0.0
C1744 C 0.50433 0.3167 0.76703 0.0
C1745 C 0.5163 0.30622 0.75999 0.0
O1746 O 0.51597 0.25245 0.76408 0.0
C1747 C 0.56189 0.27085 0.79549 0.0
O1748 O 0.56031 0.2542 0.798 0.0
H1749 H 0.50607 0.28563 0.7937 0.0
H1750 H 0.52324 0.30872 0.74842 0.0
N1751 N 0.5447 0.27129 0.74722 0.0
N1752 N 0.56465 0.25945 0.73092 0.0
C1753 C 0.56134 0.26644 0.74634 0.0
C1754 C 0.53739 0.26733 0.73171 0.0
C1755 C 0.54955 0.26012 0.72173 0.0
C1756 C 0.50031 0.25058 0.76869 0.0
O1757 O 0.4956 0.25853 0.7824 0.0
H1758 H 0.57041 0.26655 0.75728 0.0
H1759 H 0.52373 0.26797 0.7285 0.0
O1760 O 0.55138 0.2783 0.78501 0.0
H1761 H 0.49998 0.32881 0.76179 0.0
H1762 H 0.5472 0.25482 0.709 0.0
Cu1763 Cu 0.52247 0.77361 0.76602 0.0
N1764 N 0.53429 0.75242 0.76671 0.0
N1765 N 0.55484 0.7345 0.77693 0.0
C1766 C 0.54927 0.75078 0.77622 0.0
C1767 C 0.54292 0.7254 0.76735 0.0
C1768 C 0.53032 0.73643 0.76105 0.0
O1769 O 0.54458 0.78829 0.76667 0.0
C1770 C 0.50177 0.75752 0.79293 0.0
O1771 O 0.5141 0.7464 0.79449 0.0
H1772 H 0.55576 0.76131 0.78305 0.0
H1773 H 0.51889 0.7329 0.75332 0.0
N1774 N 0.50815 0.78008 0.74617 0.0
N1775 N 0.48504 0.79253 0.73265 0.0
C1776 C 0.4907 0.78212 0.74579 0.0
C1777 C 0.51328 0.78929 0.73246 0.0
C1778 C 0.4994 0.79697 0.7244 0.0
C1779 C 0.54918 0.80153 0.75784 0.0
O1780 O 0.53732 0.81189 0.75184 0.0
H1781 H 0.48245 0.77703 0.75561 0.0
H1782 H 0.52633 0.79175 0.72914 0.0
O1783 O 0.50445 0.77128 0.78405 0.0
H1784 H 0.54323 0.71172 0.76517 0.0
H1785 H 0.49992 0.8058 0.7136 0.0
Cu1786 Cu 0.51028 0.77217 0.25987 0.0
N1787 N 0.49661 0.79196 0.26145 0.0
N1788 N 0.47561 0.80685 0.27342 0.0
C1789 C 0.48056 0.79138 0.26787 0.0
C1790 C 0.48906 0.81766 0.27035 0.0
C1791 C 0.50194 0.80849 0.26309 0.0
O1792 O 0.4909 0.75523 0.25535 0.0
C1793 C 0.53793 0.76917 0.28929 0.0
O1794 O 0.53586 0.7525 0.29127 0.0
H1795 H 0.47327 0.77955 0.26998 0.0
H1796 H 0.51487 0.81323 0.26073 0.0
N1797 N 0.52469 0.76922 0.24083 0.0
N1798 N 0.54586 0.75778 0.2258 0.0
C1799 C 0.53964 0.7605 0.24156 0.0
C1800 C 0.52134 0.77196 0.22392 0.0
C1801 C 0.53435 0.76502 0.21469 0.0
C1802 C 0.48451 0.74011 0.25741 0.0
O1803 O 0.49285 0.72889 0.26701 0.0
H1804 H 0.54546 0.75555 0.25336 0.0
H1805 H 0.50986 0.77789 0.2186 0.0
O1806 O 0.52793 0.77714 0.27871 0.0
H1807 H 0.48996 0.83099 0.27414 0.0
H1808 H 0.53506 0.76488 0.20083 0.0
Cu1809 Cu 0.51901 0.26596 0.26853 0.0
N1810 N 0.50553 0.26592 0.28827 0.0
N1811 N 0.48459 0.2552 0.30489 0.0
C1812 C 0.48961 0.25827 0.28868 0.0
C1813 C 0.49784 0.26115 0.31516 0.0
C1814 C 0.51072 0.26768 0.30491 0.0
O1815 O 0.49966 0.26547 0.25021 0.0
C1816 C 0.54591 0.23821 0.26671 0.0
O1817 O 0.5443 0.23763 0.24985 0.0
H1818 H 0.48246 0.25365 0.27733 0.0
H1819 H 0.52352 0.272 0.30928 0.0
N1820 N 0.53386 0.28558 0.26501 0.0
N1821 N 0.5562 0.30055 0.25371 0.0
C1822 C 0.5499 0.28496 0.25878 0.0
C1823 C 0.53019 0.30236 0.26451 0.0
C1824 C 0.54369 0.31149 0.25732 0.0
C1825 C 0.49638 0.27806 0.23986 0.0
O1826 O 0.50877 0.28932 0.23679 0.0
H1827 H 0.55646 0.27315 0.25709 0.0
H1828 H 0.51809 0.30753 0.26803 0.0
O1829 O 0.53573 0.2475 0.2749 0.0
H1830 H 0.4986 0.25984 0.32902 0.0
H1831 H 0.54407 0.32511 0.25447 0.0
C1832 C 0.23149 0.20862 0.08468 0.0
C1833 C 0.23891 0.20633 0.10157 0.0
C1834 C 0.26709 0.21685 0.09128 0.0
C1835 C 0.25963 0.21943 0.07455 0.0
N1836 N 0.23449 0.22001 0.05561 0.0
N1837 N 0.26303 0.21087 0.12163 0.0
C1838 C 0.24171 0.21601 0.07139 0.0
C1839 C 0.25652 0.21124 0.10504 0.0
N1840 N 0.21481 0.20318 0.08125 0.0
N1841 N 0.28449 0.21941 0.09382 0.0
H1842 H 0.25574 0.20676 0.13193 0.0
H1843 H 0.27517 0.21579 0.12546 0.0
H1844 H 0.29231 0.22405 0.08413 0.0
H1845 H 0.29133 0.21608 0.10507 0.0
H1846 H 0.209 0.20272 0.06897 0.0
H1847 H 0.20691 0.19822 0.09072 0.0
H1848 H 0.22129 0.21958 0.05268 0.0
H1849 H 0.24177 0.22484 0.04559 0.0
C1850 C 0.82313 0.22971 0.07914 0.0
C1851 C 0.822 0.23702 0.0957 0.0
C1852 C 0.81114 0.26369 0.0823 0.0
C1853 C 0.81121 0.25599 0.06571 0.0
N1854 N 0.81747 0.23175 0.0482 0.0
N1855 N 0.81468 0.26058 0.11344 0.0
C1856 C 0.81725 0.23899 0.06413 0.0
C1857 C 0.8161 0.25399 0.09734 0.0
N1858 N 0.83032 0.21398 0.07779 0.0
N1859 N 0.80616 0.28029 0.0837 0.0
H1860 H 0.81885 0.25417 0.12461 0.0
H1861 H 0.80876 0.272 0.11602 0.0
H1862 H 0.80053 0.28722 0.07356 0.0
H1863 H 0.80795 0.28756 0.0948 0.0
H1864 H 0.83318 0.20832 0.06625 0.0
H1865 H 0.83449 0.20678 0.08846 0.0
H1866 H 0.8195 0.21883 0.04606 0.0
H1867 H 0.81515 0.23857 0.03682 0.0
C1868 C 0.80275 0.82277 0.06754 0.0
C1869 C 0.8086 0.8137 0.08238 0.0
C1870 C 0.80174 0.78635 0.06717 0.0
C1871 C 0.79331 0.79546 0.05345 0.0
N1872 N 0.78437 0.82297 0.04178 0.0
N1873 N 0.81359 0.78678 0.09673 0.0
C1874 C 0.7936 0.81384 0.0539 0.0
C1875 C 0.80829 0.79544 0.08221 0.0
N1876 N 0.80601 0.84007 0.06642 0.0
N1877 N 0.80315 0.769 0.066 0.0
H1878 H 0.81886 0.79302 0.10762 0.0
H1879 H 0.81198 0.77358 0.09838 0.0
H1880 H 0.79808 0.76202 0.0555 0.0
H1881 H 0.81042 0.76168 0.0747 0.0
H1882 H 0.80392 0.84718 0.05516 0.0
H1883 H 0.81243 0.84707 0.07623 0.0
H1884 H 0.78215 0.83602 0.04285 0.0
H1885 H 0.77771 0.8175 0.03126 0.0
C1886 C 0.20389 0.79784 0.07141 0.0
C1887 C 0.21181 0.79586 0.08813 0.0
C1888 C 0.23105 0.77444 0.0765 0.0
C1889 C 0.22365 0.777 0.0597 0.0
N1890 N 0.20556 0.79353 0.04056 0.0
N1891 N 0.23508 0.78464 0.10589 0.0
C1892 C 0.21073 0.78936 0.05702 0.0
C1893 C 0.226 0.78479 0.09046 0.0
N1894 N 0.18955 0.80751 0.06934 0.0
N1895 N 0.24263 0.76174 0.07914 0.0
H1896 H 0.23178 0.79195 0.11636 0.0
H1897 H 0.24667 0.77841 0.10795 0.0
H1898 H 0.2465 0.75402 0.06921 0.0
H1899 H 0.24741 0.75796 0.09123 0.0
H1900 H 0.1821 0.80811 0.05793 0.0
H1901 H 0.18429 0.81399 0.07946 0.0
H1902 H 0.19762 0.80372 0.03743 0.0
H1903 H 0.21046 0.78766 0.02988 0.0
C1904 C 0.24872 0.8017 0.9392 0.0
C1905 C 0.23222 0.80863 0.94131 0.0
C1906 C 0.23471 0.80149 0.97241 0.0
C1907 C 0.25215 0.79667 0.97069 0.0
N1908 N 0.27536 0.79088 0.95212 0.0
N1909 N 0.20904 0.81472 0.95961 0.0
C1910 C 0.25899 0.79638 0.95395 0.0
C1911 C 0.22502 0.8082 0.95783 0.0
N1912 N 0.25434 0.79979 0.92292 0.0
N1913 N 0.22735 0.79962 0.988 0.0
H1914 H 0.20138 0.8189 0.94915 0.0
H1915 H 0.20356 0.81668 0.97137 0.0
H1916 H 0.23421 0.79596 0.99917 0.0
H1917 H 0.21424 0.80076 0.98982 0.0
H1918 H 0.26533 0.79329 0.92 0.0
H1919 H 0.24724 0.80363 0.91195 0.0
H1920 H 0.28212 0.79226 0.94091 0.0
H1921 H 0.28259 0.78523 0.96209 0.0
C1922 C 0.23044 0.22298 0.9675 0.0
C1923 C 0.23548 0.22609 0.95033 0.0
C1924 C 0.25752 0.24703 0.96156 0.0
C1925 C 0.25072 0.246 0.9783 0.0
N1926 N 0.22956 0.23345 0.99683 0.0
N1927 N 0.25248 0.24308 0.93089 0.0
C1928 C 0.23695 0.23396 0.98121 0.0
C1929 C 0.24868 0.23864 0.94736 0.0
N1930 N 0.21971 0.20925 0.97078 0.0
N1931 N 0.27304 0.25527 0.95929 0.0
H1932 H 0.24645 0.23732 0.9201 0.0
H1933 H 0.26052 0.25353 0.92791 0.0
H1934 H 0.28048 0.26061 0.96941 0.0
H1935 H 0.2795 0.25495 0.94784 0.0
H1936 H 0.21693 0.2051 0.98314 0.0
H1937 H 0.21483 0.20103 0.96113 0.0
H1938 H 0.21839 0.22629 0.99927 0.0
H1939 H 0.23379 0.24128 1.00704 0.0
C1940 C 0.83089 0.25092 0.93654 0.0
C1941 C 0.83181 0.23295 0.9339 0.0
C1942 C 0.81719 0.22758 0.9611 0.0
C1943 C 0.81796 0.24542 0.96454 0.0
N1944 N 0.82543 0.27422 0.95604 0.0
N1945 N 0.82605 0.20398 0.94346 0.0
C1946 C 0.82465 0.25713 0.95228 0.0
C1947 C 0.8248 0.22121 0.94605 0.0
N1948 N 0.83579 0.26203 0.92383 0.0
N1949 N 0.80924 0.2168 0.97242 0.0
H1950 H 0.83115 0.19897 0.93244 0.0
H1951 H 0.82278 0.19458 0.95241 0.0
H1952 H 0.80407 0.22121 0.98367 0.0
H1953 H 0.80678 0.20379 0.9703 0.0
H1954 H 0.8341 0.2752 0.92409 0.0
H1955 H 0.84055 0.25793 0.91227 0.0
H1956 H 0.83195 0.28347 0.94888 0.0
H1957 H 0.81998 0.27914 0.96692 0.0
C1958 C 0.7988 0.83685 0.93642 0.0
C1959 C 0.80506 0.82568 0.92392 0.0
C1960 C 0.79779 0.801 0.94279 0.0
C1961 C 0.79002 0.81211 0.95444 0.0
N1962 N 0.78017 0.84027 0.96036 0.0
N1963 N 0.80772 0.79676 0.91394 0.0
C1964 C 0.78964 0.82994 0.95056 0.0
C1965 C 0.80367 0.80763 0.92672 0.0
N1966 N 0.80224 0.85411 0.93521 0.0
N1967 N 0.80059 0.78439 0.94748 0.0
H1968 H 0.81225 0.80112 0.9022 0.0
H1969 H 0.80524 0.78356 0.91445 0.0
H1970 H 0.79722 0.77934 0.95935 0.0
H1971 H 0.80769 0.7761 0.94033 0.0
H1972 H 0.79976 0.86268 0.94493 0.0
H1973 H 0.80911 0.85966 0.92525 0.0
H1974 H 0.7781 0.85313 0.95744 0.0
H1975 H 0.77289 0.83548 0.9704 0.0
C1976 C 0.09622 0.22974 0.22838 0.0
C1977 C 0.10118 0.21231 0.22919 0.0
C1978 C 0.079 0.20684 0.25051 0.0
C1979 C 0.07217 0.22342 0.24757 0.0
N1980 N 0.07289 0.24946 0.2305 0.0
N1981 N 0.09487 0.18349 0.23907 0.0
C1982 C 0.08049 0.23464 0.23574 0.0
C1983 C 0.0919 0.20064 0.23974 0.0
N1984 N 0.10668 0.24173 0.22084 0.0
N1985 N 0.07362 0.19719 0.2641 0.0
H1986 H 0.10396 0.17837 0.23123 0.0
H1987 H 0.08716 0.17424 0.24504 0.0
H1988 H 0.06519 0.20178 0.27295 0.0
H1989 H 0.07908 0.18558 0.26772 0.0
H1990 H 0.10467 0.25487 0.22145 0.0
H1991 H 0.11831 0.23868 0.21552 0.0
H1992 H 0.0777 0.25738 0.22085 0.0
H1993 H 0.06074 0.25283 0.23424 0.0
C1994 C 0.80361 0.1011 0.23799 0.0
C1995 C 0.81717 0.10093 0.2262 0.0
C1996 C 0.81597 0.06931 0.22748 0.0
C1997 C 0.80101 0.06938 0.23739 0.0
N1998 N 0.77905 0.08579 0.24998 0.0
N1999 N 0.83391 0.08448 0.20722 0.0
C2000 C 0.79447 0.08542 0.24221 0.0
C2001 C 0.82273 0.08489 0.22031 0.0
N2002 N 0.79965 0.11619 0.24545 0.0
N2003 N 0.82381 0.05413 0.22502 0.0
H2004 H 0.83884 0.09554 0.20133 0.0
H2005 H 0.83693 0.07322 0.20105 0.0
H2006 H 0.81943 0.04265 0.23057 0.0
H2007 H 0.83553 0.05322 0.21911 0.0
H2008 H 0.79121 0.11692 0.25545 0.0
H2009 H 0.80593 0.12783 0.24262 0.0
H2010 H 0.77265 0.09707 0.25214 0.0
H2011 H 0.772 0.0747 0.25309 0.0
C2012 C 0.94381 0.80777 0.20369 0.0
C2013 C 0.9297 0.81283 0.21346 0.0
C2014 C 0.94558 0.80351 0.24006 0.0
C2015 C 0.95964 0.79843 0.23034 0.0
N2016 N 0.97132 0.79347 0.20284 0.0
N2017 N 0.91592 0.81291 0.24057 0.0
C2018 C 0.95843 0.79983 0.2121 0.0
C2019 C 0.93028 0.80997 0.23157 0.0
N2020 N 0.94342 0.81107 0.1864 0.0
N2021 N 0.94699 0.80223 0.25757 0.0
H2022 H 0.90468 0.81779 0.23487 0.0
H2023 H 0.9146 0.80951 0.25341 0.0
H2024 H 0.95738 0.79643 0.26399 0.0
H2025 H 0.93835 0.80742 0.26581 0.0
H2026 H 0.95376 0.80932 0.17859 0.0
H2027 H 0.93293 0.81657 0.17986 0.0
H2028 H 0.97071 0.79224 0.18953 0.0
H2029 H 0.98242 0.78841 0.20864 0.0
C2030 C 0.23262 0.92194 0.22455 0.0
C2031 C 0.21426 0.92111 0.22368 0.0
C2032 C 0.21429 0.95031 0.23601 0.0
C2033 C 0.23245 0.95188 0.23471 0.0
N2034 N 0.25896 0.93969 0.22698 0.0
N2035 N 0.18744 0.93516 0.22757 0.0
C2036 C 0.24161 0.93775 0.22887 0.0
C2037 C 0.20504 0.93544 0.22932 0.0
N2038 N 0.2415 0.90741 0.22178 0.0
N2039 N 0.20596 0.96306 0.24388 0.0
H2040 H 0.18026 0.92466 0.22267 0.0
H2041 H 0.17998 0.94574 0.22976 0.0
H2042 H 0.21247 0.97403 0.24865 0.0
H2043 H 0.19305 0.96215 0.24697 0.0
H2044 H 0.25478 0.9066 0.22393 0.0
H2045 H 0.2354 0.89567 0.21872 0.0
H2046 H 0.2663 0.93075 0.22095 0.0
H2047 H 0.26585 0.95087 0.23061 0.0
C2048 C 0.09649 0.78741 0.79906 0.0
C2049 C 0.09482 0.80346 0.80723 0.0
C2050 C 0.06602 0.80601 0.7928 0.0
C2051 C 0.06613 0.7885 0.78723 0.0
N2052 N 0.08383 0.76431 0.78159 0.0
N2053 N 0.07719 0.82735 0.81325 0.0
C2054 C 0.08207 0.77971 0.78947 0.0
C2055 C 0.07936 0.81251 0.80447 0.0
N2056 N 0.11223 0.77991 0.79976 0.0
N2057 N 0.05419 0.8171 0.78602 0.0
H2058 H 0.08671 0.83276 0.82154 0.0
H2059 H 0.06543 0.83343 0.81346 0.0
H2060 H 0.04575 0.81429 0.77571 0.0
H2061 H 0.05466 0.83019 0.78859 0.0
H2062 H 0.11516 0.76907 0.7929 0.0
H2063 H 0.12299 0.78519 0.80649 0.0
H2064 H 0.09324 0.75558 0.78514 0.0
H2065 H 0.07614 0.76048 0.77094 0.0
C2066 C 0.26596 0.08853 0.82692 0.0
C2067 C 0.24839 0.09265 0.82304 0.0
C2068 C 0.24661 0.06852 0.80268 0.0
C2069 C 0.26276 0.0624 0.80898 0.0
N2070 N 0.28824 0.06702 0.8271 0.0
N2071 N 0.22134 0.08465 0.80846 0.0
C2072 C 0.27265 0.07264 0.82101 0.0
C2073 C 0.23858 0.08215 0.81118 0.0
N2074 N 0.27638 0.10004 0.83586 0.0
N2075 N 0.2393 0.0618 0.7879 0.0
H2076 H 0.21484 0.09426 0.81452 0.0
H2077 H 0.21323 0.07618 0.80141 0.0
H2078 H 0.24586 0.05325 0.78049 0.0
H2079 H 0.22815 0.06648 0.78184 0.0
H2080 H 0.28964 0.09877 0.83769 0.0
H2081 H 0.27196 0.11172 0.84012 0.0
H2082 H 0.29541 0.07284 0.83716 0.0
H2083 H 0.2936 0.05592 0.82251 0.0
C2084 C 0.97521 0.23603 0.80417 0.0
C2085 C 0.96438 0.24206 0.81704 0.0
C2086 C 0.98522 0.26677 0.82096 0.0
C2087 C 0.99399 0.26192 0.80622 0.0
N2088 N 0.9946 0.24346 0.78168 0.0
N2089 N 0.96845 0.25627 0.84441 0.0
C2090 C 0.98802 0.2471 0.79716 0.0
C2091 C 0.97159 0.25587 0.82734 0.0
N2092 N 0.97541 0.21891 0.80073 0.0
N2093 N 0.99009 0.28168 0.82908 0.0
H2094 H 0.96378 0.24535 0.85074 0.0
H2095 H 0.97382 0.26549 0.8528 0.0
H2096 H 1.00012 0.28963 0.82481 0.0
H2097 H 0.98314 0.28683 0.83888 0.0
H2098 H 0.98417 0.21364 0.79261 0.0
H2099 H 0.96865 0.20985 0.80799 0.0
H2100 H 0.98974 0.23339 0.77399 0.0
H2101 H 1.00343 0.25169 0.77579 0.0
C2102 C 0.81926 0.96864 0.79877 0.0
C2103 C 0.82039 0.95319 0.78944 0.0
C2104 C 0.80673 0.96717 0.76376 0.0
C2105 C 0.80501 0.98247 0.7733 0.0
N2106 N 0.81271 0.9989 0.79878 0.0
N2107 N 0.8144 0.93703 0.7636 0.0
C2108 C 0.81218 0.98346 0.79051 0.0
C2109 C 0.81404 0.95234 0.77201 0.0
N2110 N 0.82433 0.96887 0.81583 0.0
N2111 N 0.80152 0.96687 0.74677 0.0
H2112 H 0.82005 0.92617 0.76901 0.0
H2113 H 0.80839 0.93462 0.75165 0.0
H2114 H 0.79595 0.97727 0.74046 0.0
H2115 H 0.80371 0.95686 0.73849 0.0
H2116 H 0.82223 0.97891 0.82412 0.0
H2117 H 0.82977 0.9584 0.82222 0.0
H2118 H 0.81888 1.00118 0.81068 0.0
H2119 H 0.80813 0.01009 0.79313 0.0
C2120 C 0.22021 0.06729 0.22746 0.0
C2121 C 0.21762 0.08302 0.23583 0.0
C2122 C 0.22868 0.07014 0.26316 0.0
C2123 C 0.23074 0.05412 0.25483 0.0
N2124 N 0.23659 0.04153 0.22741 0.0
N2125 N 0.2243 0.10093 0.26033 0.0
C2126 C 0.22895 0.05385 0.23649 0.0
C2127 C 0.2233 0.08488 0.25333 0.0
N2128 N 0.21403 0.06491 0.21094 0.0
N2129 N 0.23241 0.07148 0.2804 0.0
H2130 H 0.22085 0.1119 0.2534 0.0
H2131 H 0.23 0.10366 0.27237 0.0
H2132 H 0.23878 0.06199 0.28748 0.0
H2133 H 0.22909 0.08189 0.28773 0.0
H2134 H 0.2139 0.05303 0.20488 0.0
H2135 H 0.20775 0.07441 0.2038 0.0
H2136 H 0.2368 0.04159 0.21404 0.0
H2137 H 0.24517 0.0331 0.23311 0.0
C2138 C 0.23999 0.94373 0.81374 0.0
C2139 C 0.2231 0.93735 0.8091 0.0
C2140 C 0.22006 0.96137 0.78851 0.0
C2141 C 0.23585 0.96915 0.79484 0.0
N2142 N 0.25918 0.96878 0.81639 0.0
N2143 N 0.19568 0.94252 0.79457 0.0
C2144 C 0.24547 0.96056 0.80819 0.0
C2145 C 0.21274 0.94691 0.79723 0.0
N2146 N 0.25095 0.93363 0.82321 0.0
N2147 N 0.21241 0.96724 0.77358 0.0
H2148 H 0.18971 0.93221 0.80083 0.0
H2149 H 0.18712 0.95017 0.7875 0.0
H2150 H 0.21811 0.97676 0.76603 0.0
H2151 H 0.2016 0.96122 0.76764 0.0
H2152 H 0.264 0.93677 0.82538 0.0
H2153 H 0.24733 0.9214 0.82757 0.0
H2154 H 0.26579 0.96367 0.82708 0.0
H2155 H 0.26274 0.98149 0.81382 0.0
C2156 C 0.09862 0.22861 0.82327 0.0
C2157 C 0.11146 0.22142 0.81317 0.0
C2158 C 0.09464 0.22965 0.78675 0.0
C2159 C 0.08169 0.23661 0.79679 0.0
N2160 N 0.0722 0.24476 0.82443 0.0
N2161 N 0.12323 0.21775 0.78539 0.0
C2162 C 0.08404 0.2368 0.81502 0.0
C2163 C 0.10987 0.22273 0.79492 0.0
N2164 N 0.10008 0.22701 0.84077 0.0
N2165 N 0.09219 0.22956 0.76927 0.0
H2166 H 0.13446 0.21263 0.79088 0.0
H2167 H 0.12388 0.21974 0.7722 0.0
H2168 H 0.08204 0.2358 0.76293 0.0
H2169 H 0.09974 0.22287 0.76103 0.0
H2170 H 0.0906 0.23037 0.84906 0.0
H2171 H 0.11067 0.22151 0.84713 0.0
H2172 H 0.07373 0.24711 0.83754 0.0
H2173 H 0.06101 0.24987 0.81887 0.0
C2174 C 0.81416 0.10861 0.79019 0.0
C2175 C 0.82258 0.10829 0.80679 0.0
C2176 C 0.81449 0.07753 0.80921 0.0
C2177 C 0.80754 0.07751 0.79206 0.0
N2178 N 0.80579 0.09213 0.76476 0.0
N2179 N 0.83402 0.09127 0.83039 0.0
C2180 C 0.80864 0.09285 0.78214 0.0
C2181 C 0.8236 0.0924 0.81586 0.0
N2182 N 0.81123 0.12394 0.78214 0.0
N2183 N 0.81242 0.06314 0.81911 0.0
H2184 H 0.84128 0.10169 0.83536 0.0
H2185 H 0.83682 0.07969 0.83652 0.0
H2186 H 0.80578 0.05216 0.81452 0.0
H2187 H 0.81589 0.06261 0.83217 0.0
H2188 H 0.80366 0.12497 0.77082 0.0
H2189 H 0.81506 0.13569 0.78757 0.0
H2190 H 0.80782 0.1026 0.75661 0.0
H2191 H 0.80333 0.08056 0.7584 0.0
C2192 C 0.94857 0.84118 0.78228 0.0
C2193 C 0.94266 0.83108 0.79631 0.0
C2194 C 0.96719 0.81195 0.79187 0.0
C2195 C 0.97012 0.81987 0.77561 0.0
N2196 N 0.96169 0.8413 0.7547 0.0
N2197 N 0.95531 0.81497 0.81992 0.0
C2198 C 0.96012 0.83417 0.77063 0.0
C2199 C 0.95432 0.81842 0.80267 0.0
N2200 N 0.94652 0.85847 0.78215 0.0
N2201 N 0.97697 0.79857 0.79739 0.0
H2202 H 0.94874 0.82213 0.82867 0.0
H2203 H 0.9644 0.80706 0.82583 0.0
H2204 H 0.98807 0.79502 0.79146 0.0
H2205 H 0.97363 0.79058 0.8076 0.0
H2206 H 0.95164 0.86657 0.77279 0.0
H2207 H 0.943 0.86484 0.79314 0.0
H2208 H 0.95377 0.85105 0.75012 0.0
H2209 H 0.96967 0.8363 0.74563 0.0
C2210 C 0.7878 0.94344 0.22902 0.0
C2211 C 0.79354 0.94553 0.21201 0.0
C2212 C 0.7792 0.97364 0.21034 0.0
C2213 C 0.77562 0.97256 0.22809 0.0
N2214 N 0.77727 0.9565 0.25459 0.0
N2215 N 0.7954 0.96312 0.18657 0.0
C2216 C 0.77998 0.95735 0.23739 0.0
C2217 C 0.78923 0.96071 0.20261 0.0
N2218 N 0.78961 0.92795 0.23718 0.0
N2219 N 0.77302 0.98712 0.20088 0.0
H2220 H 0.80245 0.9539 0.18053 0.0
H2221 H 0.7945 0.97456 0.17966 0.0
H2222 H 0.76548 0.99638 0.20621 0.0
H2223 H 0.7739 0.98827 0.18762 0.0
H2224 H 0.78413 0.92486 0.24883 0.0
H2225 H 0.79538 0.91758 0.23159 0.0
H2226 H 0.78261 0.94725 0.26276 0.0
H2227 H 0.77036 0.96568 0.26083 0.0
C2228 C 0.08404 0.78191 0.22679 0.0
C2229 C 0.08289 0.78556 0.20891 0.0
C2230 C 0.05243 0.77475 0.20785 0.0
C2231 C 0.05364 0.77137 0.22585 0.0
N2232 N 0.07196 0.76704 0.25115 0.0
N2233 N 0.0667 0.78455 0.1819 0.0
C2234 C 0.06989 0.77358 0.23488 0.0
C2235 C 0.06729 0.78153 0.19925 0.0
N2236 N 0.09849 0.78702 0.23627 0.0
N2237 N 0.037 0.77176 0.19912 0.0
H2238 H 0.0772 0.7897 0.17545 0.0
H2239 H 0.05612 0.78182 0.17367 0.0
H2240 H 0.02616 0.76669 0.20502 0.0
H2241 H 0.03468 0.77415 0.18609 0.0
H2242 H 0.0993 0.78684 0.24966 0.0
H2243 H 0.10932 0.79275 0.23086 0.0
H2244 H 0.0838 0.76656 0.2579 0.0
H2245 H 0.0621 0.76035 0.25721 0.0
C2246 C 0.96187 0.24356 0.21769 0.0
C2247 C 0.95005 0.23081 0.22401 0.0
C2248 C 0.96455 0.23327 0.25226 0.0
C2249 C 0.97609 0.2467 0.24673 0.0
N2250 N 0.98197 0.26731 0.22411 0.0
N2251 N 0.95328 0.20614 0.24254 0.0
C2252 C 0.97378 0.25259 0.22937 0.0
C2253 C 0.9549 0.2234 0.24 0.0
N2254 N 0.96376 0.24503 0.20039 0.0
N2255 N 0.96203 0.22997 0.26923 0.0
H2256 H 0.9501 0.19785 0.23235 0.0
H2257 H 0.95784 0.20018 0.25384 0.0
H2258 H 0.96654 0.23805 0.27908 0.0
H2259 H 0.95323 0.22046 0.27314 0.0
H2260 H 0.97325 0.25278 0.19492 0.0
H2261 H 0.95764 0.23641 0.19178 0.0
H2262 H 0.97949 0.2729 0.21208 0.0
H2263 H 0.98928 0.27526 0.23242 0.0
C2264 C 0.22215 0.72101 0.56315 0.0
C2265 C 0.2186 0.73101 0.57772 0.0
C2266 C 0.22756 0.75729 0.56177 0.0
C2267 C 0.23326 0.74706 0.54822 0.0
N2268 N 0.23469 0.7194 0.53504 0.0
N2269 N 0.21723 0.75867 0.59093 0.0
C2270 C 0.22992 0.72898 0.54859 0.0
C2271 C 0.22087 0.74921 0.5769 0.0
N2272 N 0.218 0.70384 0.56329 0.0
N2273 N 0.22872 0.77475 0.56018 0.0
H2274 H 0.21185 0.75322 0.60184 0.0
H2275 H 0.22005 0.77172 0.59218 0.0
H2276 H 0.23363 0.78084 0.54938 0.0
H2277 H 0.22371 0.78323 0.56877 0.0
H2278 H 0.21885 0.69581 0.55279 0.0
H2279 H 0.21263 0.69759 0.57379 0.0
H2280 H 0.23491 0.70608 0.53502 0.0
H2281 H 0.23883 0.72497 0.52363 0.0
C2282 C 0.79257 0.74044 0.58589 0.0
C2283 C 0.80359 0.72635 0.58422 0.0
C2284 C 0.79466 0.7248 0.55329 0.0
C2285 C 0.78499 0.73991 0.55463 0.0
N2286 N 0.77714 0.76368 0.57195 0.0
N2287 N 0.81707 0.70668 0.56564 0.0
C2288 C 0.78458 0.7481 0.5709 0.0
C2289 C 0.80506 0.71888 0.56772 0.0
N2290 N 0.78931 0.74629 0.6019 0.0
N2291 N 0.79392 0.71609 0.53812 0.0
H2292 H 0.82505 0.70227 0.57575 0.0
H2293 H 0.82023 0.702 0.55373 0.0
H2294 H 0.78654 0.72016 0.52743 0.0
H2295 H 0.79928 0.70416 0.53655 0.0
H2296 H 0.77998 0.75523 0.60415 0.0
H2297 H 0.79487 0.74113 0.61315 0.0
H2298 H 0.77842 0.77146 0.58276 0.0
H2299 H 0.77061 0.76934 0.56154 0.0
C2300 C 0.81902 0.29978 0.5957 0.0
C2301 C 0.82113 0.3179 0.59384 0.0
C2302 C 0.81187 0.3153 0.56303 0.0
C2303 C 0.8107 0.29712 0.56467 0.0
N2304 N 0.81366 0.27187 0.58227 0.0
N2305 N 0.8208 0.34293 0.57553 0.0
C2306 C 0.81448 0.28935 0.58096 0.0
C2307 C 0.81778 0.32566 0.57743 0.0
N2308 N 0.8207 0.29261 0.61176 0.0
N2309 N 0.80727 0.32264 0.54757 0.0
H2310 H 0.82496 0.35083 0.58572 0.0
H2311 H 0.82023 0.3494 0.5638 0.0
H2312 H 0.80408 0.31542 0.53662 0.0
H2313 H 0.8058 0.33574 0.54566 0.0
H2314 H 0.8177 0.27984 0.61457 0.0
H2315 H 0.82418 0.29974 0.62271 0.0
H2316 H 0.81815 0.265 0.59297 0.0
H2317 H 0.80902 0.26405 0.57221 0.0
C2318 C 0.24114 0.30249 0.60984 0.0
C2319 C 0.22918 0.31593 0.60761 0.0
C2320 C 0.23004 0.31243 0.57606 0.0
C2321 C 0.24079 0.29814 0.57838 0.0
N2322 N 0.25533 0.27836 0.59729 0.0
N2323 N 0.21072 0.33246 0.58857 0.0
C2324 C 0.24602 0.29288 0.59526 0.0
C2325 C 0.22327 0.32059 0.59067 0.0
N2326 N 0.24828 0.29927 0.62585 0.0
N2327 N 0.22666 0.31842 0.55976 0.0
H2328 H 0.20546 0.33864 0.59887 0.0
H2329 H 0.20455 0.33525 0.5768 0.0
H2330 H 0.23135 0.31258 0.54896 0.0
H2331 H 0.22044 0.32982 0.55699 0.0
H2332 H 0.25839 0.29098 0.6282 0.0
H2333 H 0.24494 0.30588 0.63676 0.0
H2334 H 0.2582 0.27261 0.60915 0.0
H2335 H 0.25929 0.27137 0.58686 0.0
C2336 C 0.24181 0.29358 0.45293 0.0
C2337 C 0.23369 0.30968 0.45287 0.0
C2338 C 0.24313 0.31321 0.48341 0.0
C2339 C 0.25334 0.2984 0.48267 0.0
N2340 N 0.26424 0.27586 0.46555 0.0
N2341 N 0.22808 0.33577 0.46778 0.0
C2342 C 0.25301 0.28882 0.46716 0.0
C2343 C 0.23462 0.31969 0.4681 0.0
N2344 N 0.2387 0.28273 0.4394 0.0
N2345 N 0.24128 0.32093 0.49889 0.0
H2346 H 0.22163 0.34092 0.457 0.0
H2347 H 0.23016 0.34451 0.47775 0.0
H2348 H 0.24712 0.31644 0.51032 0.0
H2349 H 0.2327 0.3307 0.50071 0.0
H2350 H 0.24277 0.27012 0.4394 0.0
H2351 H 0.2306 0.28582 0.42885 0.0
H2352 H 0.26592 0.26949 0.45406 0.0
H2353 H 0.27314 0.27265 0.47532 0.0
C2354 C 0.24617 0.70852 0.43134 0.0
C2355 C 0.22788 0.7087 0.42899 0.0
C2356 C 0.22638 0.72336 0.45696 0.0
C2357 C 0.24468 0.72357 0.45908 0.0
N2358 N 0.27206 0.71954 0.44676 0.0
N2359 N 0.20087 0.71918 0.43795 0.0
C2360 C 0.25457 0.71701 0.44581 0.0
C2361 C 0.2181 0.71708 0.4413 0.0
N2362 N 0.25553 0.70001 0.41981 0.0
N2363 N 0.21687 0.72834 0.47031 0.0
H2364 H 0.19441 0.71443 0.42689 0.0
H2365 H 0.19327 0.72675 0.44536 0.0
H2366 H 0.22249 0.73251 0.48199 0.0
H2367 H 0.20349 0.72704 0.4704 0.0
H2368 H 0.26857 0.69754 0.42172 0.0
H2369 H 0.25003 0.69452 0.40862 0.0
H2370 H 0.2801 0.71661 0.4369 0.0
H2371 H 0.27845 0.72606 0.45691 0.0
C2372 C 0.80578 0.74211 0.42675 0.0
C2373 C 0.81817 0.72899 0.42815 0.0
C2374 C 0.81669 0.73014 0.45968 0.0
C2375 C 0.80274 0.74153 0.45825 0.0
N2376 N 0.78228 0.75639 0.43992 0.0
N2377 N 0.83307 0.70838 0.44611 0.0
C2378 C 0.79689 0.74712 0.44163 0.0
C2379 C 0.82303 0.72247 0.44469 0.0
N2380 N 0.8027 0.75003 0.41125 0.0
N2381 N 0.82395 0.72674 0.47558 0.0
H2382 H 0.83769 0.70219 0.43548 0.0
H2383 H 0.83543 0.70185 0.45766 0.0
H2384 H 0.81984 0.73255 0.48666 0.0
H2385 H 0.83504 0.71966 0.47755 0.0
H2386 H 0.79522 0.76086 0.40975 0.0
H2387 H 0.80882 0.74665 0.40014 0.0
H2388 H 0.77624 0.75924 0.42808 0.0
H2389 H 0.77541 0.76013 0.45041 0.0
C2390 C 0.78664 0.31183 0.44561 0.0
C2391 C 0.80489 0.31369 0.44462 0.0
C2392 C 0.808 0.30276 0.47432 0.0
C2393 C 0.79008 0.29827 0.47433 0.0
N2394 N 0.7624 0.29745 0.45908 0.0
N2395 N 0.83309 0.30869 0.45747 0.0
C2396 C 0.77934 0.30271 0.45981 0.0
C2397 C 0.8156 0.30862 0.45888 0.0
N2398 N 0.77625 0.31902 0.43309 0.0
N2399 N 0.81775 0.30169 0.48931 0.0
H2400 H 0.83917 0.31283 0.44641 0.0
H2401 H 0.84143 0.30322 0.46665 0.0
H2402 H 0.81247 0.29814 0.50098 0.0
H2403 H 0.83053 0.30611 0.49055 0.0
H2404 H 0.76295 0.31978 0.43396 0.0
H2405 H 0.78112 0.32556 0.42251 0.0
H2406 H 0.75443 0.29846 0.44804 0.0
H2407 H 0.75653 0.29108 0.4692 0.0
C2408 C 0.08178 0.72853 0.7059 0.0
C2409 C 0.09734 0.73729 0.70143 0.0
C2410 C 0.08448 0.76492 0.70868 0.0
C2411 C 0.069 0.75616 0.71325 0.0
N2412 N 0.0532 0.72969 0.71767 0.0
N2413 N 0.11434 0.76356 0.70032 0.0
C2414 C 0.06782 0.73794 0.71236 0.0
C2415 C 0.09889 0.75544 0.70334 0.0
N2416 N 0.08021 0.7112 0.70343 0.0
N2417 N 0.08523 0.78243 0.70931 0.0
H2418 H 0.12496 0.75713 0.69611 0.0
H2419 H 0.11713 0.77644 0.70284 0.0
H2420 H 0.07542 0.78952 0.71428 0.0
H2421 H 0.09512 0.79006 0.70444 0.0
H2422 H 0.06884 0.70401 0.7047 0.0
H2423 H 0.09029 0.70391 0.69931 0.0
H2424 H 0.05184 0.71647 0.71925 0.0
H2425 H 0.04244 0.73624 0.72126 0.0
C2426 C 0.83433 0.60019 0.73609 0.0
C2427 C 0.82273 0.61156 0.72753 0.0
C2428 C 0.7984 0.59179 0.73419 0.0
C2429 C 0.81 0.58053 0.74279 0.0
N2430 N 0.83827 0.57488 0.75433 0.0
N2431 N 0.79355 0.61956 0.72048 0.0
C2432 C 0.82775 0.58516 0.74455 0.0
C2433 C 0.80467 0.60778 0.72727 0.0
N2434 N 0.85171 0.60344 0.73551 0.0
N2435 N 0.78147 0.58671 0.73202 0.0
H2436 H 0.79774 0.63111 0.71494 0.0
H2437 H 0.78021 0.61848 0.7212 0.0
H2438 H 0.77656 0.57544 0.73752 0.0
H2439 H 0.77246 0.59316 0.7243 0.0
H2440 H 0.86101 0.59493 0.73989 0.0
H2441 H 0.85697 0.61434 0.72962 0.0
H2442 H 0.85115 0.57784 0.7575 0.0
H2443 H 0.83359 0.56383 0.76045 0.0
C2444 C 0.94976 0.30206 0.7182 0.0
C2445 C 0.94918 0.32011 0.72063 0.0
C2446 C 0.97754 0.31935 0.73649 0.0
C2447 C 0.9786 0.30153 0.73297 0.0
N2448 N 0.96641 0.27603 0.71984 0.0
N2449 N 0.96261 0.34621 0.73156 0.0
C2450 C 0.96484 0.29295 0.72368 0.0
C2451 C 0.96307 0.3288 0.72978 0.0
N2452 N 0.93565 0.29354 0.71096 0.0
N2453 N 0.99053 0.32721 0.74616 0.0
H2454 H 0.95209 0.35333 0.72724 0.0
H2455 H 0.97278 0.35382 0.73662 0.0
H2456 H 1.00167 0.32095 0.75022 0.0
H2457 H 0.9901 0.33964 0.75082 0.0
H2458 H 0.93432 0.28025 0.71031 0.0
H2459 H 0.92458 0.29974 0.70656 0.0
H2460 H 0.95807 0.26925 0.71139 0.0
H2461 H 0.97673 0.26885 0.72458 0.0
C2462 C 0.23227 0.46368 0.7239 0.0
C2463 C 0.22626 0.45116 0.73574 0.0
C2464 C 0.2374 0.4695 0.75978 0.0
C2465 C 0.24267 0.48237 0.74788 0.0
N2466 N 0.24119 0.49333 0.71884 0.0
N2467 N 0.22016 0.44352 0.76496 0.0
C2468 C 0.23884 0.47991 0.73001 0.0
C2469 C 0.22789 0.45453 0.7537 0.0
N2470 N 0.23234 0.45984 0.7068 0.0
N2471 N 0.24229 0.47103 0.77677 0.0
H2472 H 0.21345 0.43235 0.76102 0.0
H2473 H 0.21922 0.44613 0.77798 0.0
H2474 H 0.24898 0.4818 0.78174 0.0
H2475 H 0.24075 0.46118 0.78575 0.0
H2476 H 0.23846 0.46758 0.69779 0.0
H2477 H 0.22757 0.44819 0.70181 0.0
H2478 H 0.23726 0.49292 0.70589 0.0
H2479 H 0.24542 0.50551 0.72293 0.0
C2480 C 0.09669 0.28765 0.30863 0.0
C2481 C 0.09547 0.30427 0.31562 0.0
C2482 C 0.06603 0.30602 0.30222 0.0
C2483 C 0.06638 0.28844 0.2975 0.0
N2484 N 0.08188 0.26194 0.298 0.0
N2485 N 0.07875 0.32926 0.31979 0.0
C2486 C 0.08174 0.27917 0.30107 0.0
C2487 C 0.08013 0.31356 0.31241 0.0
N2488 N 0.11231 0.27996 0.30909 0.0
N2489 N 0.05207 0.3154 0.29729 0.0
H2490 H 0.08887 0.33519 0.32696 0.0
H2491 H 0.06736 0.33597 0.31973 0.0
H2492 H 0.04146 0.31015 0.29031 0.0
H2493 H 0.05152 0.32861 0.29889 0.0
H2494 H 0.11456 0.26869 0.30257 0.0
H2495 H 0.1235 0.2857 0.31461 0.0
H2496 H 0.09171 0.25407 0.30251 0.0
H2497 H 0.0716 0.25517 0.29203 0.0
C2498 C 0.22472 0.56329 0.29611 0.0
C2499 C 0.23316 0.57546 0.30732 0.0
C2500 C 0.25883 0.55695 0.30872 0.0
C2501 C 0.25058 0.5453 0.29679 0.0
N2502 N 0.2276 0.54058 0.27543 0.0
N2503 N 0.2595 0.58525 0.32199 0.0
C2504 C 0.23409 0.54947 0.28943 0.0
C2505 C 0.25062 0.57267 0.31294 0.0
N2506 N 0.20746 0.56448 0.29227 0.0
N2507 N 0.27426 0.55275 0.31644 0.0
H2508 H 0.25389 0.59667 0.32538 0.0
H2509 H 0.27268 0.58497 0.32498 0.0
H2510 H 0.28067 0.54171 0.31329 0.0
H2511 H 0.28018 0.55961 0.32659 0.0
H2512 H 0.20017 0.55492 0.28582 0.0
H2513 H 0.20004 0.5742 0.29696 0.0
H2514 H 0.21646 0.54398 0.26844 0.0
H2515 H 0.23443 0.53109 0.26957 0.0
C2516 C 0.93586 0.72984 0.28225 0.0
C2517 C 0.9375 0.71332 0.28986 0.0
C2518 C 0.96737 0.71247 0.27984 0.0
C2519 C 0.96633 0.72973 0.27394 0.0
N2520 N 0.94976 0.75534 0.27048 0.0
N2521 N 0.95527 0.68936 0.2973 0.0
C2522 C 0.95057 0.73849 0.27537 0.0
C2523 C 0.95335 0.70468 0.28887 0.0
N2524 N 0.92002 0.7371 0.28108 0.0
N2525 N 0.98186 0.70357 0.27698 0.0
H2526 H 0.94541 0.68337 0.30405 0.0
H2527 H 0.96693 0.68316 0.29877 0.0
H2528 H 0.99244 0.70901 0.27092 0.0
H2529 H 0.98293 0.69048 0.27934 0.0
H2530 H 0.91741 0.74819 0.27402 0.0
H2531 H 0.90899 0.73129 0.28603 0.0
H2532 H 0.93977 0.76325 0.27349 0.0
H2533 H 0.95957 0.76173 0.26405 0.0
C2534 C 0.79965 0.43743 0.31161 0.0
C2535 C 0.81753 0.43436 0.31014 0.0
C2536 C 0.8206 0.46122 0.29314 0.0
C2537 C 0.80286 0.46429 0.29466 0.0
N2538 N 0.77491 0.45469 0.30323 0.0
N2539 N 0.84564 0.44493 0.30239 0.0
C2540 C 0.79226 0.45218 0.30337 0.0
C2541 C 0.82814 0.44664 0.30151 0.0
N2542 N 0.78988 0.42653 0.32132 0.0
N2543 N 0.83018 0.47237 0.28355 0.0
H2544 H 0.85166 0.43485 0.3089 0.0
H2545 H 0.85439 0.45414 0.29796 0.0
H2546 H 0.82492 0.48321 0.27765 0.0
H2547 H 0.84282 0.47034 0.28031 0.0
H2548 H 0.77743 0.429 0.32486 0.0
H2549 H 0.79455 0.41524 0.32678 0.0
H2550 H 0.7659 0.44601 0.30812 0.0
H2551 H 0.76928 0.46512 0.29691 0.0
C2552 C 0.24521 0.60146 0.71607 0.0
C2553 C 0.22893 0.59809 0.70743 0.0
C2554 C 0.23308 0.56688 0.71238 0.0
C2555 C 0.24976 0.5703 0.72006 0.0
N2556 N 0.27281 0.59055 0.72662 0.0
N2557 N 0.20796 0.57741 0.696 0.0
C2558 C 0.25608 0.58754 0.72117 0.0
C2559 C 0.22304 0.5807 0.70523 0.0
N2560 N 0.2501 0.61802 0.7199 0.0
N2561 N 0.22679 0.55033 0.71221 0.0
H2562 H 0.20027 0.58713 0.69093 0.0
H2563 H 0.2035 0.56518 0.69245 0.0
H2564 H 0.23404 0.54013 0.71695 0.0
H2565 H 0.21422 0.54675 0.70833 0.0
H2566 H 0.26073 0.62133 0.72789 0.0
H2567 H 0.24275 0.62849 0.71612 0.0
H2568 H 0.27899 0.60257 0.72625 0.0
H2569 H 0.28099 0.58064 0.73019 0.0
C2570 C 0.21795 0.44606 0.31662 0.0
C2571 C 0.21913 0.42911 0.31024 0.0
C2572 C 0.2318 0.44076 0.28386 0.0
C2573 C 0.23062 0.45765 0.29021 0.0
N2574 N 0.22513 0.47654 0.31336 0.0
N2575 N 0.23002 0.41 0.28944 0.0
C2576 C 0.22449 0.46031 0.30687 0.0
C2577 C 0.22695 0.42639 0.29433 0.0
N2578 N 0.21009 0.44852 0.33176 0.0
N2579 N 0.23721 0.4386 0.26757 0.0
H2580 H 0.22663 0.39927 0.2968 0.0
H2581 H 0.23708 0.407 0.27886 0.0
H2582 H 0.24124 0.44888 0.2599 0.0
H2583 H 0.2368 0.42689 0.26124 0.0
H2584 H 0.20713 0.4605 0.33642 0.0
H2585 H 0.20579 0.43839 0.33947 0.0
H2586 H 0.2226 0.47945 0.32601 0.0
H2587 H 0.22923 0.48714 0.3062 0.0
C2588 C 0.09344 0.72751 0.30112 0.0
C2589 C 0.09152 0.70952 0.30421 0.0
C2590 C 0.06059 0.71106 0.2948 0.0
C2591 C 0.06226 0.72922 0.29301 0.0
N2592 N 0.08006 0.75488 0.2947 0.0
N2593 N 0.0733 0.68404 0.30413 0.0
C2594 C 0.07868 0.73742 0.2962 0.0
C2595 C 0.07509 0.70126 0.30094 0.0
N2596 N 0.10955 0.73508 0.3026 0.0
N2597 N 0.04501 0.70323 0.29066 0.0
H2598 H 0.08369 0.67649 0.30791 0.0
H2599 H 0.06159 0.67721 0.30369 0.0
H2600 H 0.03404 0.71009 0.2873 0.0
H2601 H 0.04295 0.69002 0.28984 0.0
H2602 H 0.11243 0.74764 0.29886 0.0
H2603 H 0.12048 0.72843 0.30661 0.0
H2604 H 0.09087 0.76219 0.29875 0.0
H2605 H 0.06996 0.76229 0.28991 0.0
C2606 C 0.79822 0.59281 0.29036 0.0
C2607 C 0.80241 0.59347 0.30824 0.0
C2608 C 0.79163 0.56343 0.31125 0.0
C2609 C 0.78788 0.56266 0.29316 0.0
N2610 N 0.79312 0.57515 0.26526 0.0
N2611 N 0.8039 0.5795 0.3359 0.0
C2612 C 0.79269 0.57696 0.28267 0.0
C2613 C 0.79939 0.57873 0.31873 0.0
N2614 N 0.79897 0.60751 0.28067 0.0
N2615 N 0.78866 0.54914 0.32107 0.0
H2616 H 0.81051 0.59002 0.34148 0.0
H2617 H 0.8012 0.56995 0.34486 0.0
H2618 H 0.782 0.53839 0.31625 0.0
H2619 H 0.7927 0.54765 0.33387 0.0
H2620 H 0.79401 0.60823 0.26804 0.0
H2621 H 0.80312 0.61935 0.2857 0.0
H2622 H 0.79867 0.58434 0.25723 0.0
H2623 H 0.78911 0.56396 0.25884 0.0
C2624 C 0.94148 0.2902 0.31146 0.0
C2625 C 0.9435 0.30255 0.32482 0.0
C2626 C 0.9751 0.29865 0.32556 0.0
C2627 C 0.9729 0.28555 0.31307 0.0
N2628 N 0.95499 0.27121 0.29157 0.0
N2629 N 0.96207 0.31925 0.34419 0.0
C2630 C 0.95632 0.28208 0.30525 0.0
C2631 C 0.96034 0.3071 0.33162 0.0
N2632 N 0.92524 0.28587 0.30512 0.0
N2633 N 0.99148 0.30319 0.33122 0.0
H2634 H 0.95168 0.3261 0.3483 0.0
H2635 H 0.97358 0.32249 0.35083 0.0
H2636 H 1.00228 0.29716 0.32685 0.0
H2637 H 0.99463 0.31332 0.33947 0.0
H2638 H 0.9224 0.276 0.29649 0.0
H2639 H 0.91424 0.29188 0.309 0.0
H2640 H 0.9437 0.26854 0.28432 0.0
H2641 H 0.96574 0.26566 0.28665 0.0
C2642 C 0.80738 0.45003 0.73975 0.0
C2643 C 0.81309 0.45158 0.72269 0.0
C2644 C 0.79892 0.47977 0.72021 0.0
C2645 C 0.79502 0.47906 0.73793 0.0
N2646 N 0.79717 0.46392 0.76494 0.0
N2647 N 0.81525 0.46847 0.69683 0.0
C2648 C 0.79959 0.4642 0.74768 0.0
C2649 C 0.80896 0.46657 0.7129 0.0
N2650 N 0.80907 0.43477 0.74837 0.0
N2651 N 0.79307 0.49316 0.71041 0.0
H2652 H 0.82239 0.45909 0.69115 0.0
H2653 H 0.81435 0.47963 0.68947 0.0
H2654 H 0.78522 0.5024 0.71531 0.0
H2655 H 0.79458 0.49436 0.69724 0.0
H2656 H 0.80351 0.43209 0.76007 0.0
H2657 H 0.81478 0.42418 0.74313 0.0
H2658 H 0.80284 0.45506 0.77334 0.0
H2659 H 0.79028 0.47325 0.77095 0.0
C2660 C 0.10646 0.31189 0.75708 0.0
C2661 C 0.10357 0.32381 0.74342 0.0
C2662 C 0.07278 0.32442 0.7505 0.0
C2663 C 0.07586 0.31317 0.76478 0.0
N2664 N 0.09653 0.29807 0.783 0.0
N2665 N 0.08461 0.34339 0.72862 0.0
C2666 C 0.09299 0.30761 0.76854 0.0
C2667 C 0.08687 0.33059 0.74055 0.0
N2668 N 0.12187 0.30381 0.75853 0.0
N2669 N 0.0563 0.32917 0.74636 0.0
H2670 H 0.09456 0.34816 0.72115 0.0
H2671 H 0.07336 0.35025 0.72699 0.0
H2672 H 0.04593 0.32626 0.75407 0.0
H2673 H 0.0527 0.33533 0.73491 0.0
H2674 H 0.12415 0.29339 0.76667 0.0
H2675 H 0.13205 0.30653 0.75051 0.0
H2676 H 0.109 0.29571 0.78769 0.0
H2677 H 0.08717 0.29337 0.79112 0.0
C2678 C 0.96354 0.73975 0.70767 0.0
C2679 C 0.94889 0.73631 0.71757 0.0
C2680 C 0.96715 0.74172 0.744 0.0
C2681 C 0.98143 0.74657 0.7339 0.0
N2682 N 0.99058 0.75555 0.70577 0.0
N2683 N 0.93603 0.73713 0.74515 0.0
C2684 C 0.97889 0.74703 0.71563 0.0
C2685 C 0.95049 0.7382 0.73576 0.0
N2686 N 0.96296 0.73582 0.69057 0.0
N2687 N 0.96955 0.73982 0.76138 0.0
H2688 H 0.92379 0.73444 0.73959 0.0
H2689 H 0.93596 0.74029 0.75812 0.0
H2690 H 0.98146 0.74198 0.76779 0.0
H2691 H 0.96013 0.73471 0.76924 0.0
H2692 H 0.97385 0.73632 0.68317 0.0
H2693 H 0.95205 0.73043 0.6842 0.0
H2694 H 0.98856 0.75761 0.6926 0.0
H2695 H 1.00111 0.76256 0.71098 0.0
C2696 C 0.72692 0.24778 0.58366 0.0
C2697 C 0.72671 0.2296 0.58539 0.0
C2698 C 0.74434 0.22773 0.56012 0.0
C2699 C 0.74407 0.24596 0.55763 0.0
N2700 N 0.73274 0.27301 0.56585 0.0
N2701 N 0.7305 0.20234 0.57213 0.0
C2702 C 0.73438 0.25585 0.56891 0.0
C2703 C 0.73377 0.21967 0.57249 0.0
N2704 N 0.72073 0.25736 0.59652 0.0
N2705 N 0.75553 0.21796 0.55161 0.0
H2706 H 0.72294 0.19597 0.58109 0.0
H2707 H 0.73372 0.19466 0.56192 0.0
H2708 H 0.76427 0.22279 0.54295 0.0
H2709 H 0.75753 0.20509 0.55456 0.0
H2710 H 0.72224 0.27064 0.5972 0.0
H2711 H 0.71487 0.25182 0.60713 0.0
H2712 H 0.72464 0.28067 0.57259 0.0
H2713 H 0.73855 0.27937 0.55567 0.0
C2714 C 0.32075 0.23114 0.58693 0.0
C2715 C 0.31927 0.23815 0.6036 0.0
C2716 C 0.30494 0.26328 0.59049 0.0
C2717 C 0.3059 0.25602 0.57381 0.0
N2718 N 0.31241 0.23173 0.55647 0.0
N2719 N 0.30767 0.25954 0.62158 0.0
C2720 C 0.31304 0.23951 0.57216 0.0
C2721 C 0.31076 0.25388 0.60544 0.0
N2722 N 0.33013 0.21673 0.58516 0.0
N2723 N 0.2984 0.27927 0.59207 0.0
H2724 H 0.31204 0.25325 0.63274 0.0
H2725 H 0.29982 0.26974 0.62404 0.0
H2726 H 0.29245 0.28584 0.58184 0.0
H2727 H 0.29939 0.28637 0.60334 0.0
H2728 H 0.33349 0.21193 0.57336 0.0
H2729 H 0.33577 0.2102 0.5956 0.0
H2730 H 0.31545 0.21899 0.55466 0.0
H2731 H 0.30762 0.2376 0.54528 0.0
C2732 C 0.30136 0.82897 0.5766 0.0
C2733 C 0.30871 0.8214 0.59188 0.0
C2734 C 0.30665 0.79305 0.57756 0.0
C2735 C 0.29893 0.80051 0.56251 0.0
N2736 N 0.28679 0.82515 0.54844 0.0
N2737 N 0.31537 0.79572 0.60787 0.0
C2738 C 0.29555 0.81835 0.56234 0.0
C2739 C 0.31056 0.80328 0.59258 0.0
N2740 N 0.30066 0.84644 0.57542 0.0
N2741 N 0.31035 0.77604 0.57742 0.0
H2742 H 0.3182 0.80268 0.61907 0.0
H2743 H 0.31527 0.78251 0.60992 0.0
H2744 H 0.3065 0.76802 0.56722 0.0
H2745 H 0.3179 0.77004 0.58692 0.0
H2746 H 0.29714 0.85304 0.5642 0.0
H2747 H 0.30482 0.85457 0.58543 0.0
H2748 H 0.28197 0.83747 0.5481 0.0
H2749 H 0.28334 0.81802 0.5375 0.0
C2750 C 0.71656 0.81423 0.57304 0.0
C2751 C 0.72593 0.81678 0.58899 0.0
C2752 C 0.75278 0.80934 0.57496 0.0
C2753 C 0.74343 0.80671 0.55907 0.0
N2754 N 0.71628 0.80463 0.54324 0.0
N2755 N 0.75239 0.81399 0.60587 0.0
C2756 C 0.72523 0.8085 0.55826 0.0
C2757 C 0.7439 0.81352 0.59012 0.0
N2758 N 0.69939 0.81773 0.57197 0.0
N2759 N 0.77029 0.80798 0.57543 0.0
H2760 H 0.74638 0.81714 0.61711 0.0
H2761 H 0.76498 0.81008 0.60812 0.0
H2762 H 0.77695 0.80402 0.56488 0.0
H2763 H 0.77836 0.81151 0.58589 0.0
H2764 H 0.69195 0.81786 0.56055 0.0
H2765 H 0.6926 0.82125 0.58261 0.0
H2766 H 0.70289 0.80374 0.54195 0.0
H2767 H 0.72236 0.80148 0.53205 0.0
C2768 C 0.72223 0.78368 0.4381 0.0
C2769 C 0.71507 0.80021 0.43949 0.0
C2770 C 0.72319 0.80019 0.47059 0.0
C2771 C 0.73061 0.78382 0.46916 0.0
N2772 N 0.73453 0.75861 0.45249 0.0
N2773 N 0.70565 0.82265 0.45759 0.0
C2774 C 0.72912 0.7751 0.45319 0.0
C2775 C 0.71455 0.80792 0.45595 0.0
N2776 N 0.72318 0.77657 0.4222 0.0
N2777 N 0.7251 0.8087 0.48587 0.0
H2778 H 0.69939 0.82869 0.44718 0.0
H2779 H 0.70329 0.82819 0.46934 0.0
H2780 H 0.73037 0.80301 0.49701 0.0
H2781 H 0.72219 0.82152 0.48741 0.0
H2782 H 0.72988 0.76554 0.4198 0.0
H2783 H 0.71794 0.78226 0.41106 0.0
H2784 H 0.73272 0.7508 0.44176 0.0
H2785 H 0.7397 0.75223 0.46328 0.0
C2786 C 0.72589 0.23317 0.43455 0.0
C2787 C 0.72722 0.21575 0.42947 0.0
C2788 C 0.74873 0.21183 0.45345 0.0
C2789 C 0.74574 0.22847 0.45985 0.0
N2790 N 0.729 0.254 0.45763 0.0
N2791 N 0.73821 0.18775 0.43599 0.0
C2792 C 0.73376 0.23896 0.45061 0.0
C2793 C 0.73826 0.2049 0.43942 0.0
N2794 N 0.7173 0.24432 0.42388 0.0
N2795 N 0.76198 0.20273 0.46066 0.0
H2796 H 0.73076 0.18217 0.42595 0.0
H2797 H 0.74437 0.17884 0.44398 0.0
H2798 H 0.77017 0.20768 0.4705 0.0
H2799 H 0.76595 0.19118 0.45576 0.0
H2800 H 0.71739 0.25752 0.42588 0.0
H2801 H 0.71141 0.24058 0.41216 0.0
H2802 H 0.71907 0.26137 0.45243 0.0
H2803 H 0.73386 0.25835 0.46953 0.0
C2804 C 0.31087 0.2104 0.45889 0.0
C2805 C 0.31622 0.22088 0.4449 0.0
C2806 C 0.30935 0.24672 0.46117 0.0
C2807 C 0.30419 0.23627 0.47518 0.0
N2808 N 0.29764 0.20847 0.48681 0.0
N2809 N 0.31786 0.24878 0.43144 0.0
C2810 C 0.30412 0.21816 0.47375 0.0
C2811 C 0.31455 0.23899 0.44565 0.0
N2812 N 0.31284 0.19306 0.45816 0.0
N2813 N 0.30995 0.26413 0.46309 0.0
H2814 H 0.322 0.24361 0.42006 0.0
H2815 H 0.31541 0.2618 0.4304 0.0
H2816 H 0.30558 0.27006 0.47398 0.0
H2817 H 0.31544 0.27268 0.45441 0.0
H2818 H 0.31084 0.18466 0.46838 0.0
H2819 H 0.31727 0.18701 0.44735 0.0
H2820 H 0.29584 0.19521 0.48644 0.0
H2821 H 0.29292 0.21401 0.49777 0.0
C2822 C 0.28054 0.8025 0.43377 0.0
C2823 C 0.29659 0.81185 0.43488 0.0
C2824 C 0.29893 0.80515 0.466 0.0
C2825 C 0.28253 0.79641 0.46509 0.0
N2826 N 0.25667 0.78871 0.44856 0.0
N2827 N 0.31976 0.82435 0.45257 0.0
C2828 C 0.27299 0.79579 0.44909 0.0
C2829 C 0.30539 0.8138 0.45116 0.0
N2830 N 0.27284 0.79946 0.41792 0.0
N2831 N 0.30864 0.80476 0.48105 0.0
H2832 H 0.3251 0.83057 0.44204 0.0
H2833 H 0.32571 0.82796 0.46427 0.0
H2834 H 0.30389 0.79989 0.49251 0.0
H2835 H 0.32163 0.80851 0.48206 0.0
H2836 H 0.26216 0.79126 0.41581 0.0
H2837 H 0.27795 0.80418 0.40657 0.0
H2838 H 0.24831 0.78897 0.43777 0.0
H2839 H 0.25091 0.78379 0.45949 0.0
C2840 C 0.603 0.22981 0.72954 0.0
C2841 C 0.60903 0.23363 0.71289 0.0
C2842 C 0.58758 0.25632 0.70977 0.0
C2843 C 0.58022 0.25122 0.7255 0.0
N2844 N 0.57912 0.23051 0.74867 0.0
N2845 N 0.60477 0.24855 0.68586 0.0
C2846 C 0.58751 0.23731 0.73501 0.0
C2847 C 0.60065 0.24634 0.70265 0.0
N2848 N 0.61223 0.21924 0.74029 0.0
N2849 N 0.58252 0.27118 0.70193 0.0
H2850 H 0.61415 0.24149 0.68012 0.0
H2851 H 0.59779 0.25622 0.67722 0.0
H2852 H 0.57361 0.27916 0.7072 0.0
H2853 H 0.58847 0.27649 0.69129 0.0
H2854 H 0.60962 0.21747 0.75322 0.0
H2855 H 0.62343 0.21341 0.73666 0.0
H2856 H 0.58293 0.21941 0.75513 0.0
H2857 H 0.56731 0.23486 0.75242 0.0
C2858 C 0.32412 0.09517 0.74102 0.0
C2859 C 0.31869 0.10544 0.72671 0.0
C2860 C 0.2926 0.08673 0.72334 0.0
C2861 C 0.29923 0.0751 0.73599 0.0
N2862 N 0.32406 0.06663 0.75347 0.0
N2863 N 0.2993 0.10838 0.70189 0.0
C2864 C 0.31575 0.0789 0.74397 0.0
C2865 C 0.30336 0.10045 0.71718 0.0
N2866 N 0.33699 0.10108 0.75212 0.0
N2867 N 0.27574 0.08524 0.71775 0.0
H2868 H 0.307 0.11814 0.6967 0.0
H2869 H 0.28925 0.10404 0.69359 0.0
H2870 H 0.26713 0.07626 0.72287 0.0
H2871 H 0.26987 0.0942 0.70959 0.0
H2872 H 0.34025 0.09486 0.76366 0.0
H2873 H 0.34312 0.11306 0.75069 0.0
H2874 H 0.33666 0.06834 0.75844 0.0
H2875 H 0.31928 0.05406 0.75451 0.0
C2876 C 0.44195 0.81524 0.73411 0.0
C2877 C 0.43713 0.81588 0.71627 0.0
C2878 C 0.46167 0.7977 0.71051 0.0
C2879 C 0.46785 0.79885 0.72794 0.0
N2880 N 0.46487 0.8113 0.7559 0.0
N2881 N 0.44433 0.81002 0.68714 0.0
C2882 C 0.45817 0.8082 0.7397 0.0
C2883 C 0.44756 0.80775 0.70439 0.0
N2884 N 0.43093 0.8212 0.74576 0.0
N2885 N 0.46904 0.78646 0.69986 0.0
H2886 H 0.43416 0.81723 0.68212 0.0
H2887 H 0.45266 0.80611 0.67787 0.0
H2888 H 0.4787 0.77825 0.70418 0.0
H2889 H 0.46432 0.78391 0.68739 0.0
H2890 H 0.4327 0.81938 0.75898 0.0
H2891 H 0.41927 0.82676 0.74211 0.0
H2892 H 0.45925 0.81937 0.76451 0.0
H2893 H 0.47689 0.80711 0.76026 0.0
C2894 C 0.72852 0.95393 0.71087 0.0
C2895 C 0.72103 0.941 0.72146 0.0
C2896 C 0.72644 0.95965 0.74681 0.0
C2897 C 0.73376 0.97268 0.73625 0.0
N2898 N 0.74322 0.98189 0.70854 0.0
N2899 N 0.71523 0.93027 0.74976 0.0
C2900 C 0.73533 0.96962 0.71837 0.0
C2901 C 0.72065 0.94355 0.73952 0.0
N2902 N 0.72856 0.95135 0.6935 0.0
N2903 N 0.725 0.96277 0.76392 0.0
H2904 H 0.71088 0.91843 0.74489 0.0
H2905 H 0.71605 0.93041 0.76313 0.0
H2906 H 0.7305 0.97365 0.76991 0.0
H2907 H 0.71793 0.95502 0.77216 0.0
H2908 H 0.73228 0.96061 0.68459 0.0
H2909 H 0.72419 0.9399 0.68776 0.0
H2910 H 0.74678 0.98001 0.69598 0.0
H2911 H 0.74678 0.99403 0.71317 0.0
C2912 C 0.58509 0.78379 0.30105 0.0
C2913 C 0.58276 0.79743 0.31262 0.0
C2914 C 0.55107 0.79351 0.30801 0.0
C2915 C 0.55338 0.77876 0.29768 0.0
N2916 N 0.57301 0.75941 0.28503 0.0
N2917 N 0.56363 0.8148 0.32803 0.0
C2918 C 0.57052 0.77378 0.29446 0.0
C2919 C 0.56575 0.80223 0.31623 0.0
N2920 N 0.60132 0.78083 0.29577 0.0
N2921 N 0.5348 0.7992 0.31004 0.0
H2922 H 0.57397 0.82174 0.33381 0.0
H2923 H 0.5518 0.81775 0.33289 0.0
H2924 H 0.5237 0.79246 0.30566 0.0
H2925 H 0.53222 0.81101 0.31534 0.0
H2926 H 0.60392 0.77259 0.28583 0.0
H2927 H 0.61223 0.78779 0.30033 0.0
H2928 H 0.58488 0.75366 0.28431 0.0
H2929 H 0.56311 0.75254 0.27855 0.0
C2930 C 0.73169 0.07738 0.30471 0.0
C2931 C 0.71568 0.08346 0.2983 0.0
C2932 C 0.71614 0.06151 0.27504 0.0
C2933 C 0.73281 0.05625 0.2813 0.0
N2934 N 0.75878 0.0666 0.29671 0.0
N2935 N 0.69154 0.08015 0.27807 0.0
C2936 C 0.74121 0.06629 0.29462 0.0
C2937 C 0.70759 0.0752 0.28359 0.0
N2938 N 0.73777 0.08178 0.32084 0.0
N2939 N 0.70899 0.05445 0.26031 0.0
H2940 H 0.68558 0.09066 0.28314 0.0
H2941 H 0.68366 0.07349 0.26913 0.0
H2942 H 0.71485 0.04512 0.25336 0.0
H2943 H 0.69785 0.0587 0.25397 0.0
H2944 H 0.74869 0.07633 0.32665 0.0
H2945 H 0.7308 0.08917 0.32907 0.0
H2946 H 0.76548 0.07468 0.30546 0.0
H2947 H 0.76666 0.06094 0.28797 0.0
C2948 C 0.43956 0.24341 0.31934 0.0
C2949 C 0.44015 0.22518 0.32025 0.0
C2950 C 0.46995 0.22685 0.31011 0.0
C2951 C 0.46962 0.24505 0.3101 0.0
N2952 N 0.45517 0.27081 0.31642 0.0
N2953 N 0.45661 0.19958 0.31857 0.0
C2954 C 0.4547 0.25334 0.31526 0.0
C2955 C 0.45556 0.21691 0.31614 0.0
N2956 N 0.4243 0.25119 0.32173 0.0
N2957 N 0.48406 0.2191 0.30416 0.0
H2958 H 0.4464 0.19194 0.32292 0.0
H2959 H 0.46789 0.19286 0.3175 0.0
H2960 H 0.49506 0.226 0.30055 0.0
H2961 H 0.4846 0.20601 0.30186 0.0
H2962 H 0.42238 0.26418 0.31951 0.0
H2963 H 0.41306 0.2444 0.32483 0.0
H2964 H 0.44558 0.27781 0.32183 0.0
H2965 H 0.46583 0.27831 0.3129 0.0
C2966 C 0.29974 0.95576 0.31677 0.0
C2967 C 0.29357 0.93858 0.314 0.0
C2968 C 0.26557 0.94977 0.30316 0.0
C2969 C 0.27206 0.96702 0.30488 0.0
N2970 N 0.29602 0.98638 0.31179 0.0
N2971 N 0.27151 0.91929 0.30214 0.0
C2972 C 0.28939 0.96995 0.3112 0.0
C2973 C 0.2767 0.93563 0.30657 0.0
N2974 N 0.3153 0.95852 0.32535 0.0
N2975 N 0.24859 0.94686 0.29842 0.0
H2976 H 0.27914 0.90867 0.30455 0.0
H2977 H 0.26026 0.91631 0.29491 0.0
H2978 H 0.24032 0.95667 0.2948 0.0
H2979 H 0.24241 0.93485 0.29893 0.0
H2980 H 0.31989 0.9705 0.32954 0.0
H2981 H 0.32317 0.94855 0.3295 0.0
H2982 H 0.30901 0.98945 0.31429 0.0
H2983 H 0.28869 0.99701 0.30853 0.0
C2984 C 0.73752 0.07797 0.70028 0.0
C2985 C 0.73887 0.09479 0.70734 0.0
C2986 C 0.75888 0.08417 0.73019 0.0
C2987 C 0.75728 0.06718 0.7235 0.0
N2988 N 0.74765 0.04858 0.70038 0.0
N2989 N 0.75372 0.11464 0.72671 0.0
C2990 C 0.74753 0.06436 0.70784 0.0
C2991 C 0.75055 0.09808 0.72151 0.0
N2992 N 0.72614 0.07491 0.68671 0.0
N2993 N 0.76783 0.08687 0.74544 0.0
H2994 H 0.7475 0.12508 0.72109 0.0
H2995 H 0.76347 0.11827 0.73565 0.0
H2996 H 0.77507 0.07738 0.75143 0.0
H2997 H 0.76749 0.09811 0.75253 0.0
H2998 H 0.72295 0.06276 0.68193 0.0
H2999 H 0.71919 0.08465 0.68062 0.0
H3000 H 0.74207 0.0458 0.68831 0.0
H3001 H 0.75457 0.03846 0.70578 0.0
C3002 C 0.73354 0.93237 0.30208 0.0
C3003 C 0.71838 0.93476 0.31134 0.0
C3004 C 0.72285 0.96626 0.30787 0.0
C3005 C 0.73872 0.96379 0.29991 0.0
N3006 N 0.7606 0.94456 0.29218 0.0
N3007 N 0.69964 0.95421 0.32481 0.0
C3008 C 0.74444 0.94684 0.29783 0.0
C3009 C 0.71329 0.95181 0.31466 0.0
N3010 N 0.73722 0.9163 0.29671 0.0
N3011 N 0.7169 0.98251 0.30883 0.0
H3012 H 0.69242 0.94405 0.32994 0.0
H3013 H 0.6962 0.96614 0.32922 0.0
H3014 H 0.72396 0.99324 0.30466 0.0
H3015 H 0.70464 0.9853 0.31274 0.0
H3016 H 0.74689 0.91391 0.28824 0.0
H3017 H 0.72961 0.90546 0.29949 0.0
H3018 H 0.76634 0.93267 0.29182 0.0
H3019 H 0.76889 0.95486 0.28938 0.0
C3020 C 0.59174 0.22192 0.27859 0.0
C3021 C 0.58926 0.2134 0.29454 0.0
C3022 C 0.55813 0.21967 0.29159 0.0
C3023 C 0.56083 0.22942 0.27626 0.0
N3024 N 0.58163 0.24275 0.25757 0.0
N3025 N 0.57057 0.20655 0.31764 0.0
C3026 C 0.57802 0.23128 0.2704 0.0
C3027 C 0.57258 0.21303 0.30145 0.0
N3028 N 0.60719 0.22076 0.27093 0.0
N3029 N 0.54167 0.21593 0.29633 0.0
H3030 H 0.58073 0.20141 0.32501 0.0
H3031 H 0.5593 0.2076 0.3243 0.0
H3032 H 0.53079 0.21985 0.28922 0.0
H3033 H 0.53872 0.20754 0.30633 0.0
H3034 H 0.60914 0.22472 0.25833 0.0
H3035 H 0.61771 0.21456 0.27664 0.0
H3036 H 0.59413 0.24622 0.25428 0.0
H3037 H 0.57241 0.25017 0.25125 0.0
C3038 C 0.30649 0.071 0.32283 0.0
C3039 C 0.31727 0.0841 0.31543 0.0
C3040 C 0.31628 0.06721 0.28865 0.0
C3041 C 0.30364 0.05566 0.29505 0.0
N3042 N 0.28653 0.04659 0.31877 0.0
N3043 N 0.34163 0.08375 0.29721 0.0
C3044 C 0.2986 0.05765 0.31227 0.0
C3045 C 0.32478 0.07952 0.29976 0.0
N3046 N 0.30639 0.06939 0.34031 0.0
N3047 N 0.32039 0.0664 0.27183 0.0
H3048 H 0.34984 0.08811 0.30731 0.0
H3049 H 0.34806 0.07974 0.28652 0.0
H3050 H 0.31432 0.05768 0.26329 0.0
H3051 H 0.32861 0.07547 0.26623 0.0
H3052 H 0.30003 0.05942 0.34667 0.0
H3053 H 0.31493 0.07649 0.34837 0.0
H3054 H 0.28065 0.04869 0.33032 0.0
H3055 H 0.28166 0.03583 0.31214 0.0
C3056 C 0.44547 0.81081 0.31062 0.0
C3057 C 0.43103 0.81877 0.30232 0.0
C3058 C 0.4465 0.81934 0.27508 0.0
C3059 C 0.46048 0.81061 0.28315 0.0
N3060 N 0.47298 0.79686 0.3082 0.0
N3061 N 0.41683 0.82851 0.27607 0.0
C3062 C 0.4598 0.80596 0.30082 0.0
C3063 C 0.43134 0.82252 0.28438 0.0
N3064 N 0.44575 0.8085 0.32807 0.0
N3065 N 0.44787 0.82478 0.25846 0.0
H3066 H 0.40561 0.83102 0.28239 0.0
H3067 H 0.41539 0.82983 0.26278 0.0
H3068 H 0.45838 0.8219 0.25117 0.0
H3069 H 0.43923 0.83292 0.25219 0.0
H3070 H 0.45641 0.80437 0.33534 0.0
H3071 H 0.43558 0.81184 0.33559 0.0
H3072 H 0.47264 0.7912 0.32034 0.0
H3073 H 0.48409 0.79421 0.30176 0.0
C3074 C 0.3089 0.96607 0.72589 0.0
C3075 C 0.32007 0.95455 0.73475 0.0
C3076 C 0.31972 0.97338 0.76044 0.0
C3077 C 0.30797 0.98444 0.75168 0.0
N3078 N 0.28721 0.98753 0.72808 0.0
N3079 N 0.33317 0.94547 0.76179 0.0
C3080 C 0.30137 0.97963 0.73499 0.0
C3081 C 0.3246 0.9577 0.75245 0.0
N3082 N 0.30593 0.96455 0.70854 0.0
N3083 N 0.3267 0.97809 0.77614 0.0
H3084 H 0.33679 0.93396 0.75644 0.0
H3085 H 0.33535 0.94604 0.77506 0.0
H3086 H 0.32314 0.98914 0.78239 0.0
H3087 H 0.33672 0.97167 0.78246 0.0
H3088 H 0.29952 0.97374 0.70109 0.0
H3089 H 0.31126 0.955 0.70131 0.0
H3090 H 0.2808 0.98364 0.71669 0.0
H3091 H 0.28058 0.99648 0.73491 0.0
C3092 C 0.58154 0.80478 0.72257 0.0
C3093 C 0.59662 0.81214 0.73083 0.0
C3094 C 0.58153 0.81061 0.75841 0.0
C3095 C 0.56681 0.8027 0.74996 0.0
N3096 N 0.55751 0.78492 0.72613 0.0
N3097 N 0.61231 0.81786 0.75764 0.0
C3098 C 0.56816 0.79767 0.73263 0.0
C3099 C 0.59703 0.81384 0.74911 0.0
N3100 N 0.57966 0.80486 0.70505 0.0
N3101 N 0.58075 0.81501 0.77527 0.0
H3102 H 0.62375 0.82006 0.75128 0.0
H3103 H 0.61396 0.81752 0.77098 0.0
H3104 H 0.56997 0.81198 0.78242 0.0
H3105 H 0.59039 0.82217 0.78187 0.0
H3106 H 0.56815 0.80103 0.6986 0.0
H3107 H 0.58885 0.81038 0.69713 0.0
H3108 H 0.55849 0.78005 0.71378 0.0
H3109 H 0.54967 0.77757 0.7341 0.0
C3110 C 0.45746 0.24821 0.74235 0.0
C3111 C 0.45663 0.23107 0.73633 0.0
C3112 C 0.48502 0.22623 0.7512 0.0
C3113 C 0.4862 0.24372 0.75631 0.0
N3114 N 0.47563 0.27225 0.75182 0.0
N3115 N 0.47103 0.20453 0.73254 0.0
C3116 C 0.47298 0.25493 0.75049 0.0
C3117 C 0.47085 0.22028 0.74005 0.0
N3118 N 0.44319 0.25806 0.74076 0.0
N3119 N 0.49716 0.21519 0.75737 0.0
H3120 H 0.46089 0.1998 0.72455 0.0
H3121 H 0.4817 0.19673 0.73315 0.0
H3122 H 0.50774 0.21922 0.76517 0.0
H3123 H 0.49618 0.20196 0.7557 0.0
H3124 H 0.44244 0.26996 0.74665 0.0
H3125 H 0.43153 0.2537 0.73498 0.0
H3126 H 0.46737 0.28104 0.74596 0.0
H3127 H 0.4871 0.27779 0.75683 0.0
C3128 C 0.72502 0.74238 0.08661 0.0
C3129 C 0.71391 0.72765 0.08422 0.0
C3130 C 0.71522 0.73169 0.05269 0.0
C3131 C 0.72528 0.74703 0.05514 0.0
N3132 N 0.73837 0.76807 0.0742 0.0
N3133 N 0.69697 0.7092 0.06498 0.0
C3134 C 0.72979 0.75264 0.07208 0.0
C3135 C 0.70864 0.72255 0.06722 0.0
N3136 N 0.73151 0.74621 0.10277 0.0
N3137 N 0.71238 0.72567 0.03636 0.0
H3138 H 0.69205 0.70218 0.07524 0.0
H3139 H 0.69124 0.70577 0.05314 0.0
H3140 H 0.71683 0.73227 0.02562 0.0
H3141 H 0.70675 0.7137 0.03348 0.0
H3142 H 0.74111 0.75555 0.10531 0.0
H3143 H 0.72816 0.7392 0.11366 0.0
H3144 H 0.74063 0.77398 0.08605 0.0
H3145 H 0.74222 0.7756 0.06382 0.0
C3146 C 0.3005 0.74732 0.09272 0.0
C3147 C 0.30881 0.73137 0.0912 0.0
C3148 C 0.30285 0.73285 0.05992 0.0
C3149 C 0.29765 0.75015 0.06098 0.0
N3150 N 0.2912 0.77387 0.07898 0.0
N3151 N 0.32054 0.71057 0.07251 0.0
C3152 C 0.29648 0.75742 0.0776 0.0
C3153 C 0.31083 0.72468 0.07453 0.0
N3154 N 0.2957 0.75244 0.10851 0.0
N3155 N 0.29901 0.72365 0.04541 0.0
H3156 H 0.32681 0.70434 0.0828 0.0
H3157 H 0.32378 0.70619 0.06047 0.0
H3158 H 0.29017 0.72796 0.03611 0.0
H3159 H 0.30182 0.71074 0.04421 0.0
H3160 H 0.28789 0.76285 0.11031 0.0
H3161 H 0.29822 0.74535 0.11972 0.0
H3162 H 0.29174 0.78058 0.09051 0.0
H3163 H 0.28693 0.78109 0.06836 0.0
C3164 C 0.31491 0.29412 0.09077 0.0
C3165 C 0.30993 0.3108 0.09549 0.0
C3166 C 0.29022 0.31148 0.06949 0.0
C3167 C 0.29662 0.2957 0.06386 0.0
N3168 N 0.31543 0.272 0.06892 0.0
N3169 N 0.29358 0.33593 0.08877 0.0
C3170 C 0.30899 0.287 0.07454 0.0
C3171 C 0.29764 0.31955 0.08475 0.0
N3172 N 0.325 0.28487 0.10205 0.0
N3173 N 0.27692 0.31868 0.06022 0.0
H3174 H 0.2986 0.34216 0.09976 0.0
H3175 H 0.28621 0.34383 0.08073 0.0
H3176 H 0.27145 0.31308 0.04907 0.0
H3177 H 0.27037 0.32928 0.06423 0.0
H3178 H 0.32769 0.27201 0.10043 0.0
H3179 H 0.32975 0.28972 0.11383 0.0
H3180 H 0.32608 0.26611 0.07465 0.0
H3181 H 0.3105 0.2657 0.05792 0.0
C3182 C 0.74889 0.30824 0.10043 0.0
C3183 C 0.7348 0.31953 0.09889 0.0
C3184 C 0.73407 0.31561 0.06742 0.0
C3185 C 0.74659 0.30276 0.06921 0.0
N3186 N 0.76436 0.28516 0.08774 0.0
N3187 N 0.71256 0.33235 0.08091 0.0
C3188 C 0.75368 0.29871 0.08581 0.0
C3189 C 0.72706 0.32283 0.08234 0.0
N3190 N 0.75799 0.30694 0.11577 0.0
N3191 N 0.72922 0.3212 0.05131 0.0
H3192 H 0.70697 0.33775 0.09146 0.0
H3193 H 0.70523 0.33369 0.06949 0.0
H3194 H 0.73445 0.31639 0.04026 0.0
H3195 H 0.72139 0.33165 0.04896 0.0
H3196 H 0.76948 0.30043 0.11727 0.0
H3197 H 0.75485 0.31365 0.12669 0.0
H3198 H 0.76865 0.28038 0.09965 0.0
H3199 H 0.76783 0.27778 0.0774 0.0
C3200 C 0.74102 0.32435 0.96164 0.0
C3201 C 0.74356 0.31696 0.94532 0.0
C3202 C 0.76433 0.29721 0.95917 0.0
C3203 C 0.76087 0.30378 0.97564 0.0
N3204 N 0.74314 0.32122 0.99274 0.0
N3205 N 0.75502 0.29406 0.92913 0.0
C3206 C 0.7484 0.31667 0.97691 0.0
C3207 C 0.75441 0.30266 0.9443 0.0
N3208 N 0.73213 0.33916 0.96255 0.0
N3209 N 0.77779 0.28653 0.95753 0.0
H3210 H 0.74795 0.29766 0.91805 0.0
H3211 H 0.76123 0.28249 0.92795 0.0
H3212 H 0.78575 0.28287 0.96794 0.0
H3213 H 0.78212 0.28268 0.94573 0.0
H3214 H 0.73158 0.34629 0.97376 0.0
H3215 H 0.72644 0.34512 0.95179 0.0
H3216 H 0.73285 0.3292 0.9945 0.0
H3217 H 0.74795 0.3157 1.00415 0.0
C3218 C 0.75379 0.72666 0.939 0.0
C3219 C 0.7363 0.72053 0.93857 0.0
C3220 C 0.73442 0.72953 0.96883 0.0
C3221 C 0.75089 0.73799 0.96836 0.0
N3222 N 0.77634 0.74482 0.95282 0.0
N3223 N 0.70957 0.71693 0.95301 0.0
C3224 C 0.76073 0.73635 0.95348 0.0
C3225 C 0.72659 0.72201 0.95357 0.0
N3226 N 0.7638 0.7231 0.92553 0.0
N3227 N 0.72633 0.72858 0.98408 0.0
H3228 H 0.7035 0.71099 0.94233 0.0
H3229 H 0.70116 0.71957 0.96264 0.0
H3230 H 0.7319 0.73367 0.99544 0.0
H3231 H 0.71504 0.72138 0.98592 0.0
H3232 H 0.77703 0.72564 0.92557 0.0
H3233 H 0.75905 0.71628 0.91478 0.0
H3234 H 0.78331 0.74608 0.94173 0.0
H3235 H 0.78201 0.7513 0.96336 0.0
C3236 C 0.30227 0.71029 0.93516 0.0
C3237 C 0.31245 0.72296 0.92662 0.0
C3238 C 0.30523 0.74413 0.94842 0.0
C3239 C 0.29479 0.73159 0.95672 0.0
N3240 N 0.28116 0.7037 0.9568 0.0
N3241 N 0.32077 0.75276 0.92311 0.0
C3242 C 0.29254 0.715 0.94954 0.0
C3243 C 0.31298 0.74016 0.93263 0.0
N3244 N 0.30263 0.69357 0.93007 0.0
N3245 N 0.30847 0.75958 0.95622 0.0
H3246 H 0.32659 0.7503 0.91158 0.0
H3247 H 0.32021 0.76577 0.92582 0.0
H3248 H 0.30282 0.76283 0.96762 0.0
H3249 H 0.31749 0.76867 0.95206 0.0
H3250 H 0.29708 0.68337 0.93678 0.0
H3251 H 0.30949 0.68968 0.91962 0.0
H3252 H 0.27759 0.69181 0.95161 0.0
H3253 H 0.27419 0.70694 0.96743 0.0
C3254 C 0.32065 0.31267 0.95693 0.0
C3255 C 0.33494 0.30785 0.94732 0.0
C3256 C 0.33741 0.28204 0.96585 0.0
C3257 C 0.32467 0.28804 0.9768 0.0
N3258 N 0.30768 0.31193 0.9847 0.0
N3259 N 0.35938 0.28964 0.94563 0.0
C3260 C 0.31724 0.30416 0.97286 0.0
C3261 C 0.34405 0.29302 0.95268 0.0
N3262 N 0.30992 0.32501 0.95064 0.0
N3263 N 0.3426 0.2655 0.96735 0.0
H3264 H 0.36491 0.29755 0.93636 0.0
H3265 H 0.36741 0.28003 0.95031 0.0
H3266 H 0.33715 0.25669 0.97583 0.0
H3267 H 0.35077 0.26003 0.95877 0.0
H3268 H 0.29838 0.32776 0.95627 0.0
H3269 H 0.3116 0.33117 0.93885 0.0
H3270 H 0.30311 0.3243 0.98304 0.0
H3271 H 0.30619 0.30696 0.99704 0.0
C3272 C 0.57453 0.72156 0.21282 0.0
C3273 C 0.59018 0.73075 0.20942 0.0
C3274 C 0.57672 0.75765 0.21799 0.0
C3275 C 0.56115 0.74848 0.22142 0.0
N3276 N 0.54589 0.72156 0.22469 0.0
N3277 N 0.60723 0.75696 0.21191 0.0
C3278 C 0.56033 0.73035 0.21968 0.0
C3279 C 0.59155 0.74865 0.21296 0.0
N3280 N 0.57302 0.70452 0.20884 0.0
N3281 N 0.57711 0.77511 0.21922 0.0
H3282 H 0.61826 0.75079 0.20833 0.0
H3283 H 0.60971 0.76954 0.21585 0.0
H3284 H 0.56675 0.78185 0.22357 0.0
H3285 H 0.5872 0.783 0.21512 0.0
H3286 H 0.56156 0.69731 0.20923 0.0
H3287 H 0.58318 0.69768 0.20423 0.0
H3288 H 0.54482 0.70825 0.22552 0.0
H3289 H 0.53522 0.72774 0.22913 0.0
C3290 C 0.29361 0.58564 0.20669 0.0
C3291 C 0.30582 0.5945 0.21776 0.0
C3292 C 0.30379 0.57056 0.23867 0.0
C3293 C 0.29072 0.5622 0.22811 0.0
N3294 N 0.27032 0.56421 0.20411 0.0
N3295 N 0.31911 0.59726 0.24616 0.0
C3296 C 0.28479 0.57051 0.21271 0.0
C3297 C 0.30978 0.58754 0.23436 0.0
N3298 N 0.29086 0.59127 0.19016 0.0
N3299 N 0.31142 0.56194 0.25215 0.0
H3300 H 0.32365 0.60968 0.24349 0.0
H3301 H 0.32084 0.59366 0.25903 0.0
H3302 H 0.3085 0.54915 0.255 0.0
H3303 H 0.32203 0.56685 0.25935 0.0
H3304 H 0.28364 0.58429 0.18091 0.0
H3305 H 0.29698 0.60225 0.18528 0.0
H3306 H 0.26443 0.57043 0.19362 0.0
H3307 H 0.26312 0.55373 0.20863 0.0
C3308 C 0.45774 0.30724 0.23437 0.0
C3309 C 0.447 0.29871 0.22168 0.0
C3310 C 0.46769 0.27489 0.22217 0.0
C3311 C 0.47806 0.2833 0.2352 0.0
N3312 N 0.47976 0.30474 0.25726 0.0
N3313 N 0.43998 0.27259 0.20628 0.0
C3314 C 0.47206 0.29864 0.24235 0.0
C3315 C 0.45147 0.28196 0.21642 0.0
N3316 N 0.4548 0.32391 0.23832 0.0
N3317 N 0.47357 0.26043 0.21491 0.0
H3318 H 0.42808 0.27727 0.20201 0.0
H3319 H 0.44153 0.25975 0.20334 0.0
H3320 H 0.48494 0.25472 0.21928 0.0
H3321 H 0.46771 0.25464 0.20407 0.0
H3322 H 0.46334 0.33143 0.24595 0.0
H3323 H 0.44465 0.33076 0.23272 0.0
H3324 H 0.47514 0.315 0.26402 0.0
H3325 H 0.48948 0.29817 0.26394 0.0
C3326 C 0.72395 0.46266 0.21895 0.0
C3327 C 0.71655 0.45011 0.23002 0.0
C3328 C 0.72399 0.46906 0.25463 0.0
C3329 C 0.73497 0.47933 0.2443 0.0
N3330 N 0.74309 0.48747 0.21559 0.0
N3331 N 0.69774 0.4518 0.25377 0.0
C3332 C 0.73422 0.47659 0.22613 0.0
C3333 C 0.71306 0.45612 0.24672 0.0
N3334 N 0.71866 0.46309 0.20201 0.0
N3335 N 0.72426 0.47101 0.27203 0.0
H3336 H 0.68793 0.4452 0.24674 0.0
H3337 H 0.69388 0.45706 0.26522 0.0
H3338 H 0.73212 0.48007 0.27856 0.0
H3339 H 0.71751 0.46261 0.28001 0.0
H3340 H 0.72253 0.47257 0.19338 0.0
H3341 H 0.70825 0.45549 0.19732 0.0
H3342 H 0.74538 0.48459 0.20285 0.0
H3343 H 0.74844 0.49924 0.21969 0.0
C3344 C 0.60869 0.28696 0.80669 0.0
C3345 C 0.60601 0.3005 0.81831 0.0
C3346 C 0.57441 0.29561 0.81396 0.0
C3347 C 0.5771 0.28105 0.8035 0.0
N3348 N 0.59706 0.26267 0.79009 0.0
N3349 N 0.58644 0.31727 0.83384 0.0
C3350 C 0.59434 0.27667 0.79998 0.0
C3351 C 0.58887 0.30478 0.82203 0.0
N3352 N 0.62504 0.28435 0.80155 0.0
N3353 N 0.55795 0.3007 0.81621 0.0
H3354 H 0.5966 0.32456 0.83952 0.0
H3355 H 0.57457 0.31988 0.83878 0.0
H3356 H 0.54704 0.29362 0.81192 0.0
H3357 H 0.55499 0.31235 0.82162 0.0
H3358 H 0.62796 0.2761 0.79173 0.0
H3359 H 0.63577 0.29152 0.80621 0.0
H3360 H 0.60904 0.25727 0.78893 0.0
H3361 H 0.5872 0.25584 0.78345 0.0
C3362 C 0.73718 0.5758 0.81436 0.0
C3363 C 0.73073 0.58951 0.80405 0.0
C3364 C 0.73863 0.57383 0.77789 0.0
C3365 C 0.74537 0.56027 0.78834 0.0
N3366 N 0.74645 0.5463 0.81604 0.0
N3367 N 0.72319 0.60079 0.776 0.0
C3368 C 0.74317 0.5607 0.80643 0.0
C3369 C 0.7307 0.58817 0.78577 0.0
N3370 N 0.73833 0.57751 0.83184 0.0
N3371 N 0.74035 0.57327 0.76051 0.0
H3372 H 0.71755 0.61135 0.78139 0.0
H3373 H 0.72169 0.60058 0.76267 0.0
H3374 H 0.74564 0.56294 0.75443 0.0
H3375 H 0.73692 0.58303 0.75198 0.0
H3376 H 0.74497 0.56912 0.84003 0.0
H3377 H 0.73371 0.58805 0.83819 0.0
H3378 H 0.74376 0.54502 0.82898 0.0
H3379 H 0.75018 0.53488 0.81058 0.0
C3380 C 0.46232 0.74543 0.81929 0.0
C3381 C 0.45416 0.73184 0.80933 0.0
C3382 C 0.47703 0.73627 0.78834 0.0
C3383 C 0.4838 0.75102 0.79711 0.0
N3384 N 0.48131 0.7709 0.82015 0.0
N3385 N 0.46373 0.70843 0.79237 0.0
C3386 C 0.4758 0.75608 0.81223 0.0
C3387 C 0.46416 0.72556 0.79586 0.0
N3388 N 0.46022 0.74578 0.83657 0.0
N3389 N 0.48294 0.73235 0.77262 0.0
H3390 H 0.45729 0.69951 0.80007 0.0
H3391 H 0.47187 0.70292 0.78378 0.0
H3392 H 0.49191 0.7402 0.76644 0.0
H3393 H 0.47747 0.72245 0.76509 0.0
H3394 H 0.46641 0.75475 0.84473 0.0
H3395 H 0.45545 0.73503 0.84309 0.0
H3396 H 0.4749 0.77617 0.83026 0.0
H3397 H 0.49128 0.77865 0.81545 0.0
C3398 C 0.31143 0.43983 0.80074 0.0
C3399 C 0.32863 0.44079 0.80787 0.0
C3400 C 0.33106 0.47092 0.79777 0.0
C3401 C 0.31348 0.47043 0.792 0.0
N3402 N 0.28623 0.45513 0.78987 0.0
N3403 N 0.35409 0.45803 0.81518 0.0
C3404 C 0.30351 0.455 0.79388 0.0
C3405 C 0.33828 0.45655 0.80682 0.0
N3406 N 0.30272 0.42435 0.80028 0.0
N3407 N 0.3408 0.48537 0.79458 0.0
H3408 H 0.35971 0.44792 0.82201 0.0
H3409 H 0.36107 0.46957 0.81657 0.0
H3410 H 0.33568 0.49595 0.78807 0.0
H3411 H 0.35407 0.48638 0.79699 0.0
H3412 H 0.29086 0.42231 0.79376 0.0
H3413 H 0.30791 0.41316 0.80548 0.0
H3414 H 0.27766 0.44511 0.79279 0.0
H3415 H 0.28029 0.46584 0.78444 0.0
C3416 C 0.71971 0.57784 0.20327 0.0
C3417 C 0.7217 0.5945 0.21064 0.0
C3418 C 0.74505 0.58367 0.23012 0.0
C3419 C 0.74273 0.5669 0.22319 0.0
N3420 N 0.72617 0.54736 0.20505 0.0
N3421 N 0.7347 0.61269 0.23271 0.0
C3422 C 0.7296 0.56385 0.21022 0.0
C3423 C 0.73395 0.59721 0.22453 0.0
N3424 N 0.70849 0.57546 0.18944 0.0
N3425 N 0.75832 0.58673 0.24178 0.0
H3426 H 0.72727 0.62303 0.2287 0.0
H3427 H 0.7418 0.61505 0.24412 0.0
H3428 H 0.7662 0.57698 0.24617 0.0
H3429 H 0.76226 0.59884 0.24619 0.0
H3430 H 0.70746 0.56424 0.1823 0.0
H3431 H 0.70082 0.58521 0.1844 0.0
H3432 H 0.71576 0.54366 0.19693 0.0
H3433 H 0.73315 0.53706 0.20997 0.0
C3434 C 0.73281 0.46065 0.82571 0.0
C3435 C 0.73666 0.44384 0.82023 0.0
C3436 C 0.76205 0.45609 0.80589 0.0
C3437 C 0.75719 0.47298 0.80967 0.0
N3438 N 0.73713 0.49159 0.82206 0.0
N3439 N 0.75345 0.42607 0.80253 0.0
C3440 C 0.74233 0.47531 0.81933 0.0
C3441 C 0.75085 0.44173 0.80955 0.0
N3442 N 0.7203 0.46257 0.83732 0.0
N3443 N 0.77791 0.45373 0.79962 0.0
H3444 H 0.74572 0.41524 0.80504 0.0
H3445 H 0.76233 0.42418 0.7931 0.0
H3446 H 0.78677 0.46393 0.79838 0.0
H3447 H 0.78297 0.44171 0.79771 0.0
H3448 H 0.71798 0.47414 0.84324 0.0
H3449 H 0.71301 0.45222 0.842 0.0
H3450 H 0.72553 0.4944 0.82751 0.0
H3451 H 0.74402 0.50239 0.81779 0.0
C3452 C 0.60028 0.71799 0.785 0.0
C3453 C 0.6008 0.71523 0.80312 0.0
C3454 C 0.57141 0.72677 0.80413 0.0
C3455 C 0.57043 0.72826 0.78587 0.0
N3456 N 0.5836 0.72522 0.7588 0.0
N3457 N 0.5869 0.7167 0.83009 0.0
C3458 C 0.58483 0.72385 0.77632 0.0
C3459 C 0.58638 0.71969 0.81274 0.0
N3460 N 0.61482 0.71542 0.77614 0.0
N3461 N 0.55791 0.73216 0.81319 0.0
H3462 H 0.59779 0.71214 0.83676 0.0
H3463 H 0.57649 0.71805 0.83789 0.0
H3464 H 0.5465 0.73632 0.80722 0.0
H3465 H 0.55814 0.73326 0.8265 0.0
H3466 H 0.61614 0.71866 0.76327 0.0
H3467 H 0.6262 0.71102 0.782 0.0
H3468 H 0.59257 0.72049 0.75064 0.0
H3469 H 0.57305 0.73058 0.75225 0.0
C3470 C 0.30291 0.59887 0.79141 0.0
C3471 C 0.31373 0.59766 0.80655 0.0
C3472 C 0.30664 0.56657 0.80798 0.0
C3473 C 0.2968 0.56754 0.79217 0.0
N3474 N 0.2886 0.58427 0.76716 0.0
N3475 N 0.32849 0.57971 0.82737 0.0
C3476 C 0.29577 0.58363 0.78345 0.0
C3477 C 0.31625 0.58131 0.81434 0.0
N3478 N 0.29899 0.61466 0.78484 0.0
N3479 N 0.30676 0.55149 0.81701 0.0
H3480 H 0.33597 0.59009 0.83211 0.0
H3481 H 0.33241 0.56797 0.83239 0.0
H3482 H 0.30003 0.54055 0.81267 0.0
H3483 H 0.31216 0.55021 0.8294 0.0
H3484 H 0.28974 0.6165 0.77496 0.0
H3485 H 0.30394 0.62609 0.79016 0.0
H3486 H 0.28969 0.59502 0.75919 0.0
H3487 H 0.28265 0.57364 0.76117 0.0
C3488 C 0.45312 0.31819 0.79557 0.0
C3489 C 0.45654 0.32326 0.81291 0.0
C3490 C 0.48761 0.31845 0.80947 0.0
C3491 C 0.4843 0.31433 0.79184 0.0
N3492 N 0.46403 0.31184 0.76763 0.0
N3493 N 0.47715 0.32984 0.83605 0.0
C3494 C 0.46709 0.31476 0.78477 0.0
C3495 C 0.47384 0.32374 0.81978 0.0
N3496 N 0.43639 0.31576 0.78965 0.0
N3497 N 0.50403 0.31733 0.81631 0.0
H3498 H 0.46746 0.33379 0.84389 0.0
H3499 H 0.48947 0.33212 0.84146 0.0
H3500 H 0.51456 0.3151 0.80883 0.0
H3501 H 0.50723 0.31789 0.82941 0.0
H3502 H 0.43282 0.31011 0.77793 0.0
H3503 H 0.42585 0.31815 0.79706 0.0
H3504 H 0.45235 0.3142 0.76111 0.0
H3505 H 0.47348 0.30794 0.75956 0.0
C3506 C 0.32118 0.43866 0.25398 0.0
C3507 C 0.32088 0.43597 0.23579 0.0
C3508 C 0.30288 0.46143 0.23242 0.0
C3509 C 0.30609 0.46621 0.24988 0.0
N3510 N 0.3184 0.45866 0.27768 0.0
N3511 N 0.31333 0.44723 0.20757 0.0
C3512 C 0.31517 0.45452 0.26084 0.0
C3513 C 0.31223 0.44805 0.22501 0.0
N3514 N 0.32665 0.42582 0.26473 0.0
N3515 N 0.28988 0.46897 0.22312 0.0
H3516 H 0.32035 0.438 0.20153 0.0
H3517 H 0.3087 0.45679 0.19931 0.0
H3518 H 0.28123 0.47672 0.22903 0.0
H3519 H 0.28607 0.46533 0.21065 0.0
H3520 H 0.32562 0.42611 0.27802 0.0
H3521 H 0.33075 0.41413 0.2602 0.0
H3522 H 0.32637 0.45163 0.28602 0.0
H3523 H 0.31374 0.46974 0.28303 0.0
C3524 C 0.59379 0.29853 0.22369 0.0
C3525 C 0.60282 0.3143 0.22735 0.0
C3526 C 0.58285 0.31905 0.25056 0.0
C3527 C 0.57225 0.30473 0.24512 0.0
N3528 N 0.56617 0.28329 0.22327 0.0
N3529 N 0.60345 0.34129 0.24235 0.0
C3530 C 0.57736 0.29504 0.23084 0.0
C3531 C 0.59664 0.32505 0.24027 0.0
N3532 N 0.60101 0.28664 0.21364 0.0
N3533 N 0.58027 0.3265 0.266 0.0
H3534 H 0.61322 0.34636 0.23486 0.0
H3535 H 0.59818 0.35025 0.25033 0.0
H3536 H 0.5712 0.3217 0.27445 0.0
H3537 H 0.58847 0.33607 0.27126 0.0
H3538 H 0.5958 0.27426 0.212 0.0
H3539 H 0.61311 0.28855 0.20848 0.0
H3540 H 0.56878 0.27689 0.21202 0.0
H3541 H 0.55348 0.28151 0.2269 0.0
C3542 C 0.43671 0.72797 0.24602 0.0
C3543 C 0.43705 0.72528 0.22798 0.0
C3544 C 0.46813 0.73356 0.22906 0.0
C3545 C 0.46813 0.73481 0.24733 0.0
N3546 N 0.45263 0.73192 0.2734 0.0
N3547 N 0.45353 0.72359 0.20255 0.0
C3548 C 0.45247 0.73156 0.25584 0.0
C3549 C 0.45289 0.72766 0.21957 0.0
N3550 N 0.42117 0.72787 0.25367 0.0
N3551 N 0.48274 0.73809 0.22069 0.0
H3552 H 0.44277 0.71927 0.19519 0.0
H3553 H 0.46491 0.72318 0.19599 0.0
H3554 H 0.4945 0.74112 0.22705 0.0
H3555 H 0.48303 0.73984 0.20743 0.0
H3556 H 0.41964 0.73162 0.2663 0.0
H3557 H 0.40948 0.72533 0.24695 0.0
H3558 H 0.44226 0.72779 0.28058 0.0
H3559 H 0.46358 0.7354 0.28093 0.0
loop_
_geom_bond_atom_site_label_1
_geom_bond_atom_site_label_2
_geom_bond_distance
_geom_bond_site_symmetry_2
_ccdc_geom_bond_type
C0 C1 1.264 . S
C0 C5 1.479 . S
C0 C10 1.465 . S
C1 C0 1.264 . S
C1 C3 1.339 . S
C1 H28 0.931 . S
C2 C3 1.395 . S
C2 C4 1.320 . S
C3 C1 1.339 . S
C3 C2 1.395 . S
C3 H29 0.929 . S
C4 C2 1.320 . S
C4 C5 1.405 . S
C4 H30 0.930 . S
C5 C0 1.479 . S
C5 C4 1.405 . S
C5 H31 0.931 . S
U6 O7 2.454 . S
U6 O8 2.458 . S
U6 C9 2.984 . S
U6 C10 2.847 . S
U6 C23 2.882 . S
U6 O24 2.441 . S
U6 O25 2.420 . S
U6 O26 2.455 . S
U6 O27 2.449 . S
O7 U6 2.454 . S
O7 C9 1.353 . S
O8 U6 2.458 . S
O8 C9 1.286 . S
C9 U6 2.984 . S
C9 O7 1.353 . S
C9 O8 1.286 . S
C9 C11 1.363 . S
C10 C0 1.465 . S
C10 U6 2.847 . S
C10 O24 1.249 . S
C10 O25 1.202 . S
C11 C9 1.363 . S
C11 C13 1.408 . S
C11 C16 1.342 . S
C12 C13 1.310 . S
C12 C15 1.461 . S
C12 H32 0.932 . S
C13 C11 1.408 . S
C13 C12 1.310 . S
C13 H33 0.930 . S
C14 C15 1.474 . S
C14 C16 1.285 . S
C14 H34 0.929 . S
C15 C12 1.461 . S
C15 C14 1.474 . S
C16 C11 1.342 . S
C16 C14 1.285 . S
C16 H35 0.930 . S
C17 C20 1.424 . S
C17 C22 1.245 . S
C17 C23 1.428 . S
C18 C21 1.260 . S
C18 C22 1.477 . S
C18 H36 0.932 . S
C19 C20 1.384 . S
C19 C21 1.479 . S
C19 H37 0.929 . S
C20 C17 1.424 . S
C20 C19 1.384 . S
C20 H38 0.928 . S
C21 C18 1.260 . S
C21 C19 1.479 . S
C22 C17 1.245 . S
C22 C18 1.477 . S
C22 H39 0.932 . S
C23 U6 2.882 . S
C23 C17 1.428 . S
C23 O26 1.301 . S
C23 O27 1.282 . S
O24 U6 2.441 . S
O24 C10 1.249 . S
O25 U6 2.420 . S
O25 C10 1.202 . S
O26 U6 2.455 . S
O26 C23 1.301 . S
O27 U6 2.449 . S
O27 C23 1.282 . S
H28 C1 0.931 . S
H29 C3 0.929 . S
H30 C4 0.930 . S
H31 C5 0.931 . S
H32 C12 0.932 . S
H33 C13 0.930 . S
H34 C14 0.929 . S
H35 C16 0.930 . S
H36 C18 0.932 . S
H37 C19 0.929 . S
H38 C20 0.928 . S
H39 C22 0.932 . S
C40 C41 1.264 . S
C40 C45 1.479 . S
C40 C50 1.465 . S
C41 C40 1.264 . S
C41 C43 1.339 . S
C41 H68 0.931 . S
C42 C43 1.395 . S
C42 C44 1.320 . S
C43 C41 1.339 . S
C43 C42 1.395 . S
C43 H69 0.929 . S
C44 C42 1.320 . S
C44 C45 1.405 . S
C44 H70 0.930 . S
C45 C40 1.479 . S
C45 C44 1.405 . S
C45 H71 0.931 . S
U46 O47 2.454 . S
U46 O48 2.458 . S
U46 C49 2.984 . S
U46 C50 2.847 . S
U46 C63 2.882 . S
U46 O64 2.441 . S
U46 O65 2.420 . S
U46 O66 2.455 . S
U46 O67 2.449 . S
O47 U46 2.454 . S
O47 C49 1.353 . S
O48 U46 2.458 . S
O48 C49 1.286 . S
C49 U46 2.984 . S
C49 O47 1.353 . S
C49 O48 1.286 . S
C49 C51 1.363 . S
C50 C40 1.465 . S
C50 U46 2.847 . S
C50 O64 1.249 . S
C50 O65 1.202 . S
C51 C49 1.363 . S
C51 C53 1.408 . S
C51 C56 1.342 . S
C52 C53 1.310 . S
C52 C55 1.461 . S
C52 H72 0.932 . S
C53 C51 1.408 . S
C53 C52 1.310 . S
C53 H73 0.930 . S
C54 C55 1.474 . S
C54 C56 1.285 . S
C54 H74 0.929 . S
C55 C52 1.461 . S
C55 C54 1.474 . S
C56 C51 1.342 . S
C56 C54 1.285 . S
C56 H75 0.930 . S
C57 C60 1.424 . S
C57 C62 1.245 . S
C57 C63 1.428 . S
C58 C61 1.260 . S
C58 C62 1.477 . S
C58 H76 0.932 . S
C59 C60 1.384 . S
C59 C61 1.479 . S
C59 H77 0.929 . S
C60 C57 1.424 . S
C60 C59 1.384 . S
C60 H78 0.928 . S
C61 C58 1.260 . S
C61 C59 1.479 . S
C62 C57 1.245 . S
C62 C58 1.477 . S
C62 H79 0.932 . S
C63 U46 2.882 . S
C63 C57 1.428 . S
C63 O66 1.301 . S
C63 O67 1.282 . S
O64 U46 2.441 . S
O64 C50 1.249 . S
O65 U46 2.420 . S
O65 C50 1.202 . S
O66 U46 2.455 . S
O66 C63 1.301 . S
O67 U46 2.449 . S
O67 C63 1.282 . S
H68 C41 0.931 . S
H69 C43 0.929 . S
H70 C44 0.930 . S
H71 C45 0.931 . S
H72 C52 0.932 . S
H73 C53 0.930 . S
H74 C54 0.929 . S
H75 C56 0.930 . S
H76 C58 0.932 . S
H77 C59 0.929 . S
H78 C60 0.928 . S
H79 C62 0.932 . S
C80 C81 1.264 . S
C80 C85 1.479 . S
C80 C90 1.465 . S
C81 C80 1.264 . S
C81 C83 1.339 . S
C81 H108 0.931 . S
C82 C83 1.395 . S
C82 C84 1.320 . S
C83 C81 1.339 . S
C83 C82 1.395 . S
C83 H109 0.929 . S
C84 C82 1.320 . S
C84 C85 1.405 . S
C84 H110 0.930 . S
C85 C80 1.479 . S
C85 C84 1.405 . S
C85 H111 0.931 . S
U86 O87 2.454 . S
U86 O88 2.458 . S
U86 C89 2.984 . S
U86 C90 2.847 . S
U86 C103 2.882 . S
U86 O104 2.441 . S
U86 O105 2.420 . S
U86 O106 2.455 . S
U86 O107 2.449 . S
O87 U86 2.454 . S
O87 C89 1.353 . S
O88 U86 2.458 . S
O88 C89 1.286 . S
C89 U86 2.984 . S
C89 O87 1.353 . S
C89 O88 1.286 . S
C89 C91 1.363 . S
C90 C80 1.465 . S
C90 U86 2.847 . S
C90 O104 1.249 . S
C90 O105 1.202 . S
C91 C89 1.363 . S
C91 C93 1.408 . S
C91 C96 1.342 . S
C92 C93 1.310 . S
C92 C95 1.461 . S
C92 H112 0.932 . S
C93 C91 1.408 . S
C93 C92 1.310 . S
C93 H113 0.930 . S
C94 C95 1.474 . S
C94 C96 1.285 . S
C94 H114 0.929 . S
C95 C92 1.461 . S
C95 C94 1.474 . S
C96 C91 1.342 . S
C96 C94 1.285 . S
C96 H115 0.930 . S
C97 C100 1.424 . S
C97 C102 1.245 . S
C97 C103 1.428 . S
C98 C101 1.260 . S
C98 C102 1.477 . S
C98 H116 0.932 . S
C99 C100 1.384 . S
C99 C101 1.479 . S
C99 H117 0.929 . S
C100 C97 1.424 . S
C100 C99 1.384 . S
C100 H118 0.928 . S
C101 C98 1.260 . S
C101 C99 1.479 . S
C102 C97 1.245 . S
C102 C98 1.477 . S
C102 H119 0.932 . S
C103 U86 2.882 . S
C103 C97 1.428 . S
C103 O106 1.301 . S
C103 O107 1.282 . S
O104 U86 2.441 . S
O104 C90 1.249 . S
O105 U86 2.420 . S
O105 C90 1.202 . S
O106 U86 2.455 . S
O106 C103 1.301 . S
O107 U86 2.449 . S
O107 C103 1.282 . S
H108 C81 0.931 . S
H109 C83 0.929 . S
H110 C84 0.930 . S
H111 C85 0.931 . S
H112 C92 0.932 . S
H113 C93 0.930 . S
H114 C94 0.929 . S
H115 C96 0.930 . S
H116 C98 0.932 . S
H117 C99 0.929 . S
H118 C100 0.928 . S
H119 C102 0.932 . S
C120 C121 1.264 . S
C120 C125 1.479 . S
C120 C130 1.465 . S
C121 C120 1.264 . S
C121 C123 1.339 . S
C121 H148 0.931 . S
C122 C123 1.395 . S
C122 C124 1.320 . S
C123 C121 1.339 . S
C123 C122 1.395 . S
C123 H149 0.929 . S
C124 C122 1.320 . S
C124 C125 1.405 . S
C124 H150 0.930 . S
C125 C120 1.479 . S
C125 C124 1.405 . S
C125 H151 0.931 . S
U126 O127 2.454 . S
U126 O128 2.458 . S
U126 C129 2.984 . S
U126 C130 2.847 . S
U126 C143 2.882 . S
U126 O144 2.441 . S
U126 O145 2.420 . S
U126 O146 2.455 . S
U126 O147 2.449 . S
O127 U126 2.454 . S
O127 C129 1.353 . S
O128 U126 2.458 . S
O128 C129 1.286 . S
C129 U126 2.984 . S
C129 O127 1.353 . S
C129 O128 1.286 . S
C129 C131 1.363 . S
C130 C120 1.465 . S
C130 U126 2.847 . S
C130 O144 1.249 . S
C130 O145 1.202 . S
C131 C129 1.363 . S
C131 C133 1.408 . S
C131 C136 1.342 . S
C132 C133 1.310 . S
C132 C135 1.461 . S
C132 H152 0.932 . S
C133 C131 1.408 . S
C133 C132 1.310 . S
C133 H153 0.930 . S
C134 C135 1.474 . S
C134 C136 1.285 . S
C134 H154 0.929 . S
C135 C132 1.461 . S
C135 C134 1.474 . S
C136 C131 1.342 . S
C136 C134 1.285 . S
C136 H155 0.930 . S
C137 C140 1.424 . S
C137 C142 1.245 . S
C137 C143 1.428 . S
C138 C141 1.260 . S
C138 C142 1.477 . S
C138 H156 0.932 . S
C139 C140 1.384 . S
C139 C141 1.479 . S
C139 H157 0.929 . S
C140 C137 1.424 . S
C140 C139 1.384 . S
C140 H158 0.928 . S
C141 C138 1.260 . S
C141 C139 1.479 . S
C142 C137 1.245 . S
C142 C138 1.477 . S
C142 H159 0.932 . S
C143 U126 2.882 . S
C143 C137 1.428 . S
C143 O146 1.301 . S
C143 O147 1.282 . S
O144 U126 2.441 . S
O144 C130 1.249 . S
O145 U126 2.420 . S
O145 C130 1.202 . S
O146 U126 2.455 . S
O146 C143 1.301 . S
O147 U126 2.449 . S
O147 C143 1.282 . S
H148 C121 0.931 . S
H149 C123 0.929 . S
H150 C124 0.930 . S
H151 C125 0.931 . S
H152 C132 0.932 . S
H153 C133 0.930 . S
H154 C134 0.929 . S
H155 C136 0.930 . S
H156 C138 0.932 . S
H157 C139 0.929 . S
H158 C140 0.928 . S
H159 C142 0.932 . S
C160 C161 1.264 . S
C160 C165 1.479 . S
C160 C170 1.465 . S
C161 C160 1.264 . S
C161 C163 1.339 . S
C161 H188 0.931 . S
C162 C163 1.395 . S
C162 C164 1.320 . S
C163 C161 1.339 . S
C163 C162 1.395 . S
C163 H189 0.929 . S
C164 C162 1.320 . S
C164 C165 1.405 . S
C164 H190 0.930 . S
C165 C160 1.479 . S
C165 C164 1.405 . S
C165 H191 0.931 . S
U166 O167 2.454 . S
U166 O168 2.458 . S
U166 C169 2.984 . S
U166 C170 2.847 . S
U166 C183 2.882 . S
U166 O184 2.441 . S
U166 O185 2.420 . S
U166 O186 2.455 . S
U166 O187 2.449 . S
O167 U166 2.454 . S
O167 C169 1.353 . S
O168 U166 2.458 . S
O168 C169 1.286 . S
C169 U166 2.984 . S
C169 O167 1.353 . S
C169 O168 1.286 . S
C169 C171 1.363 . S
C170 C160 1.465 . S
C170 U166 2.847 . S
C170 O184 1.249 . S
C170 O185 1.202 . S
C171 C169 1.363 . S
C171 C173 1.408 . S
C171 C176 1.342 . S
C172 C173 1.310 . S
C172 C175 1.461 . S
C172 H192 0.932 . S
C173 C171 1.408 . S
C173 C172 1.310 . S
C173 H193 0.930 . S
C174 C175 1.474 . S
C174 C176 1.285 . S
C174 H194 0.929 . S
C175 C172 1.461 . S
C175 C174 1.474 . S
C176 C171 1.342 . S
C176 C174 1.285 . S
C176 H195 0.930 . S
C177 C180 1.424 . S
C177 C182 1.245 . S
C177 C183 1.428 . S
C178 C181 1.260 . S
C178 C182 1.477 . S
C178 H196 0.932 . S
C179 C180 1.384 . S
C179 C181 1.479 . S
C179 H197 0.929 . S
C180 C177 1.424 . S
C180 C179 1.384 . S
C180 H198 0.928 . S
C181 C178 1.260 . S
C181 C179 1.479 . S
C182 C177 1.245 . S
C182 C178 1.477 . S
C182 H199 0.932 . S
C183 U166 2.882 . S
C183 C177 1.428 . S
C183 O186 1.301 . S
C183 O187 1.282 . S
O184 U166 2.441 . S
O184 C170 1.249 . S
O185 U166 2.420 . S
O185 C170 1.202 . S
O186 U166 2.455 . S
O186 C183 1.301 . S
O187 U166 2.449 . S
O187 C183 1.282 . S
H188 C161 0.931 . S
H189 C163 0.929 . S
H190 C164 0.930 . S
H191 C165 0.931 . S
H192 C172 0.932 . S
H193 C173 0.930 . S
H194 C174 0.929 . S
H195 C176 0.930 . S
H196 C178 0.932 . S
H197 C179 0.929 . S
H198 C180 0.928 . S
H199 C182 0.932 . S
C200 C201 1.264 . S
C200 C205 1.479 . S
C200 C210 1.465 . S
C201 C200 1.264 . S
C201 C203 1.339 . S
C201 H228 0.931 . S
C202 C203 1.395 . S
C202 C204 1.320 . S
C203 C201 1.339 . S
C203 C202 1.395 . S
C203 H229 0.929 . S
C204 C202 1.320 . S
C204 C205 1.405 . S
C204 H230 0.930 . S
C205 C200 1.479 . S
C205 C204 1.405 . S
C205 H231 0.931 . S
U206 O207 2.454 . S
U206 O208 2.458 . S
U206 C209 2.984 . S
U206 C210 2.847 . S
U206 C223 2.882 . S
U206 O224 2.441 . S
U206 O225 2.420 . S
U206 O226 2.455 . S
U206 O227 2.449 . S
O207 U206 2.454 . S
O207 C209 1.353 . S
O208 U206 2.458 . S
O208 C209 1.286 . S
C209 U206 2.984 . S
C209 O207 1.353 . S
C209 O208 1.286 . S
C209 C211 1.363 . S
C210 C200 1.465 . S
C210 U206 2.847 . S
C210 O224 1.249 . S
C210 O225 1.202 . S
C211 C209 1.363 . S
C211 C213 1.408 . S
C211 C216 1.342 . S
C212 C213 1.310 . S
C212 C215 1.461 . S
C212 H232 0.932 . S
C213 C211 1.408 . S
C213 C212 1.310 . S
C213 H233 0.930 . S
C214 C215 1.474 . S
C214 C216 1.285 . S
C214 H234 0.929 . S
C215 C212 1.461 . S
C215 C214 1.474 . S
C216 C211 1.342 . S
C216 C214 1.285 . S
C216 H235 0.930 . S
C217 C220 1.424 . S
C217 C222 1.245 . S
C217 C223 1.428 . S
C218 C221 1.260 . S
C218 C222 1.477 . S
C218 H236 0.932 . S
C219 C220 1.384 . S
C219 C221 1.479 . S
C219 H237 0.929 . S
C220 C217 1.424 . S
C220 C219 1.384 . S
C220 H238 0.928 . S
C221 C218 1.260 . S
C221 C219 1.479 . S
C222 C217 1.245 . S
C222 C218 1.477 . S
C222 H239 0.932 . S
C223 U206 2.882 . S
C223 C217 1.428 . S
C223 O226 1.301 . S
C223 O227 1.282 . S
O224 U206 2.441 . S
O224 C210 1.249 . S
O225 U206 2.420 . S
O225 C210 1.202 . S
O226 U206 2.455 . S
O226 C223 1.301 . S
O227 U206 2.449 . S
O227 C223 1.282 . S
H228 C201 0.931 . S
H229 C203 0.929 . S
H230 C204 0.930 . S
H231 C205 0.931 . S
H232 C212 0.932 . S
H233 C213 0.930 . S
H234 C214 0.929 . S
H235 C216 0.930 . S
H236 C218 0.932 . S
H237 C219 0.929 . S
H238 C220 0.928 . S
H239 C222 0.932 . S
C240 C241 1.264 . S
C240 C245 1.479 . S
C240 C250 1.465 . S
C241 C240 1.264 . S
C241 C243 1.339 . S
C241 H268 0.931 . S
C242 C243 1.395 . S
C242 C244 1.320 . S
C243 C241 1.339 . S
C243 C242 1.395 . S
C243 H269 0.929 . S
C244 C242 1.320 . S
C244 C245 1.405 . S
C244 H270 0.930 . S
C245 C240 1.479 . S
C245 C244 1.405 . S
C245 H271 0.931 . S
U246 O247 2.454 . S
U246 O248 2.458 . S
U246 C249 2.984 . S
U246 C250 2.847 . S
U246 C263 2.882 . S
U246 O264 2.441 . S
U246 O265 2.420 . S
U246 O266 2.455 . S
U246 O267 2.449 . S
O247 U246 2.454 . S
O247 C249 1.353 . S
O248 U246 2.458 . S
O248 C249 1.286 . S
C249 U246 2.984 . S
C249 O247 1.353 . S
C249 O248 1.286 . S
C249 C251 1.363 . S
C250 C240 1.465 . S
C250 U246 2.847 . S
C250 O264 1.249 . S
C250 O265 1.202 . S
C251 C249 1.363 . S
C251 C253 1.408 . S
C251 C256 1.342 . S
C252 C253 1.310 . S
C252 C255 1.461 . S
C252 H272 0.932 . S
C253 C251 1.408 . S
C253 C252 1.310 . S
C253 H273 0.930 . S
C254 C255 1.474 . S
C254 C256 1.285 . S
C254 H274 0.929 . S
C255 C252 1.461 . S
C255 C254 1.474 . S
C256 C251 1.342 . S
C256 C254 1.285 . S
C256 H275 0.930 . S
C257 C260 1.424 . S
C257 C262 1.245 . S
C257 C263 1.428 . S
C258 C261 1.260 . S
C258 C262 1.477 . S
C258 H276 0.932 . S
C259 C260 1.384 . S
C259 C261 1.479 . S
C259 H277 0.929 . S
C260 C257 1.424 . S
C260 C259 1.384 . S
C260 H278 0.928 . S
C261 C258 1.260 . S
C261 C259 1.479 . S
C262 C257 1.245 . S
C262 C258 1.477 . S
C262 H279 0.932 . S
C263 U246 2.882 . S
C263 C257 1.428 . S
C263 O266 1.301 . S
C263 O267 1.282 . S
O264 U246 2.441 . S
O264 C250 1.249 . S
O265 U246 2.420 . S
O265 C250 1.202 . S
O266 U246 2.455 . S
O266 C263 1.301 . S
O267 U246 2.449 . S
O267 C263 1.282 . S
H268 C241 0.931 . S
H269 C243 0.929 . S
H270 C244 0.930 . S
H271 C245 0.931 . S
H272 C252 0.932 . S
H273 C253 0.930 . S
H274 C254 0.929 . S
H275 C256 0.930 . S
H276 C258 0.932 . S
H277 C259 0.929 . S
H278 C260 0.928 . S
H279 C262 0.932 . S
C280 C281 1.264 . S
C280 C285 1.479 . S
C280 C290 1.465 . S
C281 C280 1.264 . S
C281 C283 1.339 . S
C281 H308 0.931 . S
C282 C283 1.395 . S
C282 C284 1.320 . S
C283 C281 1.339 . S
C283 C282 1.395 . S
C283 H309 0.929 . S
C284 C282 1.320 . S
C284 C285 1.405 . S
C284 H310 0.930 . S
C285 C280 1.479 . S
C285 C284 1.405 . S
C285 H311 0.931 . S
U286 O287 2.454 . S
U286 O288 2.458 . S
U286 C289 2.984 . S
U286 C290 2.847 . S
U286 C303 2.882 . S
U286 O304 2.441 . S
U286 O305 2.420 . S
U286 O306 2.455 . S
U286 O307 2.449 . S
O287 U286 2.454 . S
O287 C289 1.353 . S
O288 U286 2.458 . S
O288 C289 1.286 . S
C289 U286 2.984 . S
C289 O287 1.353 . S
C289 O288 1.286 . S
C289 C291 1.363 . S
C290 C280 1.465 . S
C290 U286 2.847 . S
C290 O304 1.249 . S
C290 O305 1.202 . S
C291 C289 1.363 . S
C291 C293 1.408 . S
C291 C296 1.342 . S
C292 C293 1.310 . S
C292 C295 1.461 . S
C292 H312 0.932 . S
C293 C291 1.408 . S
C293 C292 1.310 . S
C293 H313 0.930 . S
C294 C295 1.474 . S
C294 C296 1.285 . S
C294 H314 0.929 . S
C295 C292 1.461 . S
C295 C294 1.474 . S
C296 C291 1.342 . S
C296 C294 1.285 . S
C296 H315 0.930 . S
C297 C300 1.424 . S
C297 C302 1.245 . S
C297 C303 1.428 . S
C298 C301 1.260 . S
C298 C302 1.477 . S
C298 H316 0.932 . S
C299 C300 1.384 . S
C299 C301 1.479 . S
C299 H317 0.929 . S
C300 C297 1.424 . S
C300 C299 1.384 . S
C300 H318 0.928 . S
C301 C298 1.260 . S
C301 C299 1.479 . S
C302 C297 1.245 . S
C302 C298 1.477 . S
C302 H319 0.932 . S
C303 U286 2.882 . S
C303 C297 1.428 . S
C303 O306 1.301 . S
C303 O307 1.282 . S
O304 U286 2.441 . S
O304 C290 1.249 . S
O305 U286 2.420 . S
O305 C290 1.202 . S
O306 U286 2.455 . S
O306 C303 1.301 . S
O307 U286 2.449 . S
O307 C303 1.282 . S
H308 C281 0.931 . S
H309 C283 0.929 . S
H310 C284 0.930 . S
H311 C285 0.931 . S
H312 C292 0.932 . S
H313 C293 0.930 . S
H314 C294 0.929 . S
H315 C296 0.930 . S
H316 C298 0.932 . S
H317 C299 0.929 . S
H318 C300 0.928 . S
H319 C302 0.932 . S
C320 C321 1.264 . S
C320 C325 1.479 . S
C320 C330 1.465 . S
C321 C320 1.264 . S
C321 C323 1.339 . S
C321 H348 0.931 . S
C322 C323 1.395 . S
C322 C324 1.320 . S
C323 C321 1.339 . S
C323 C322 1.395 . S
C323 H349 0.929 . S
C324 C322 1.320 . S
C324 C325 1.405 . S
C324 H350 0.930 . S
C325 C320 1.479 . S
C325 C324 1.405 . S
C325 H351 0.931 . S
U326 O327 2.454 . S
U326 O328 2.458 . S
U326 C329 2.984 . S
U326 C330 2.847 . S
U326 C343 2.882 . S
U326 O344 2.441 . S
U326 O345 2.420 . S
U326 O346 2.455 . S
U326 O347 2.449 . S
O327 U326 2.454 . S
O327 C329 1.353 . S
O328 U326 2.458 . S
O328 C329 1.286 . S
C329 U326 2.984 . S
C329 O327 1.353 . S
C329 O328 1.286 . S
C329 C331 1.363 . S
C330 C320 1.465 . S
C330 U326 2.847 . S
C330 O344 1.249 . S
C330 O345 1.202 . S
C331 C329 1.363 . S
C331 C333 1.408 . S
C331 C336 1.342 . S
C332 C333 1.310 . S
C332 C335 1.461 . S
C332 H352 0.932 . S
C333 C331 1.408 . S
C333 C332 1.310 . S
C333 H353 0.930 . S
C334 C335 1.474 . S
C334 C336 1.285 . S
C334 H354 0.929 . S
C335 C332 1.461 . S
C335 C334 1.474 . S
C336 C331 1.342 . S
C336 C334 1.285 . S
C336 H355 0.930 . S
C337 C340 1.424 . S
C337 C342 1.245 . S
C337 C343 1.428 . S
C338 C341 1.260 . S
C338 C342 1.477 . S
C338 H356 0.932 . S
C339 C340 1.384 . S
C339 C341 1.479 . S
C339 H357 0.929 . S
C340 C337 1.424 . S
C340 C339 1.384 . S
C340 H358 0.928 . S
C341 C338 1.260 . S
C341 C339 1.479 . S
C342 C337 1.245 . S
C342 C338 1.477 . S
C342 H359 0.932 . S
C343 U326 2.882 . S
C343 C337 1.428 . S
C343 O346 1.301 . S
C343 O347 1.282 . S
O344 U326 2.441 . S
O344 C330 1.249 . S
O345 U326 2.420 . S
O345 C330 1.202 . S
O346 U326 2.455 . S
O346 C343 1.301 . S
O347 U326 2.449 . S
O347 C343 1.282 . S
H348 C321 0.931 . S
H349 C323 0.929 . S
H350 C324 0.930 . S
H351 C325 0.931 . S
H352 C332 0.932 . S
H353 C333 0.930 . S
H354 C334 0.929 . S
H355 C336 0.930 . S
H356 C338 0.932 . S
H357 C339 0.929 . S
H358 C340 0.928 . S
H359 C342 0.932 . S
C360 C361 1.264 . S
C360 C365 1.479 . S
C360 C370 1.465 . S
C361 C360 1.264 . S
C361 C363 1.339 . S
C361 H388 0.931 . S
C362 C363 1.395 . S
C362 C364 1.320 . S
C363 C361 1.339 . S
C363 C362 1.395 . S
C363 H389 0.929 . S
C364 C362 1.320 . S
C364 C365 1.405 . S
C364 H390 0.930 . S
C365 C360 1.479 . S
C365 C364 1.405 . S
C365 H391 0.931 . S
U366 O367 2.454 . S
U366 O368 2.458 . S
U366 C369 2.984 . S
U366 C370 2.847 . S
U366 C383 2.882 . S
U366 O384 2.441 . S
U366 O385 2.420 . S
U366 O386 2.455 . S
U366 O387 2.449 . S
O367 U366 2.454 . S
O367 C369 1.353 . S
O368 U366 2.458 . S
O368 C369 1.286 . S
C369 U366 2.984 . S
C369 O367 1.353 . S
C369 O368 1.286 . S
C369 C371 1.363 . S
C370 C360 1.465 . S
C370 U366 2.847 . S
C370 O384 1.249 . S
C370 O385 1.202 . S
C371 C369 1.363 . S
C371 C373 1.408 . S
C371 C376 1.342 . S
C372 C373 1.310 . S
C372 C375 1.461 . S
C372 H392 0.932 . S
C373 C371 1.408 . S
C373 C372 1.310 . S
C373 H393 0.930 . S
C374 C375 1.474 . S
C374 C376 1.285 . S
C374 H394 0.929 . S
C375 C372 1.461 . S
C375 C374 1.474 . S
C376 C371 1.342 . S
C376 C374 1.285 . S
C376 H395 0.930 . S
C377 C380 1.424 . S
C377 C382 1.245 . S
C377 C383 1.428 . S
C378 C381 1.260 . S
C378 C382 1.477 . S
C378 H396 0.932 . S
C379 C380 1.384 . S
C379 C381 1.479 . S
C379 H397 0.929 . S
C380 C377 1.424 . S
C380 C379 1.384 . S
C380 H398 0.928 . S
C381 C378 1.260 . S
C381 C379 1.479 . S
C382 C377 1.245 . S
C382 C378 1.477 . S
C382 H399 0.932 . S
C383 U366 2.882 . S
C383 C377 1.428 . S
C383 O386 1.301 . S
C383 O387 1.282 . S
O384 U366 2.441 . S
O384 C370 1.249 . S
O385 U366 2.420 . S
O385 C370 1.202 . S
O386 U366 2.455 . S
O386 C383 1.301 . S
O387 U366 2.449 . S
O387 C383 1.282 . S
H388 C361 0.931 . S
H389 C363 0.929 . S
H390 C364 0.930 . S
H391 C365 0.931 . S
H392 C372 0.932 . S
H393 C373 0.930 . S
H394 C374 0.929 . S
H395 C376 0.930 . S
H396 C378 0.932 . S
H397 C379 0.929 . S
H398 C380 0.928 . S
H399 C382 0.932 . S
C400 C401 1.264 . S
C400 C405 1.479 . S
C400 C410 1.465 . S
C401 C400 1.264 . S
C401 C403 1.339 . S
C401 H428 0.931 . S
C402 C403 1.395 . S
C402 C404 1.320 . S
C403 C401 1.339 . S
C403 C402 1.395 . S
C403 H429 0.929 . S
C404 C402 1.320 . S
C404 C405 1.405 . S
C404 H430 0.930 . S
C405 C400 1.479 . S
C405 C404 1.405 . S
C405 H431 0.931 . S
U406 O407 2.454 . S
U406 O408 2.458 . S
U406 C409 2.984 . S
U406 C410 2.847 . S
U406 C423 2.882 . S
U406 O424 2.441 . S
U406 O425 2.420 . S
U406 O426 2.455 . S
U406 O427 2.449 . S
O407 U406 2.454 . S
O407 C409 1.353 . S
O408 U406 2.458 . S
O408 C409 1.286 . S
C409 U406 2.984 . S
C409 O407 1.353 . S
C409 O408 1.286 . S
C409 C411 1.363 . S
C410 C400 1.465 . S
C410 U406 2.847 . S
C410 O424 1.249 . S
C410 O425 1.202 . S
C411 C409 1.363 . S
C411 C413 1.408 . S
C411 C416 1.342 . S
C412 C413 1.310 . S
C412 C415 1.461 . S
C412 H432 0.932 . S
C413 C411 1.408 . S
C413 C412 1.310 . S
C413 H433 0.930 . S
C414 C415 1.474 . S
C414 C416 1.285 . S
C414 H434 0.929 . S
C415 C412 1.461 . S
C415 C414 1.474 . S
C416 C411 1.342 . S
C416 C414 1.285 . S
C416 H435 0.930 . S
C417 C420 1.424 . S
C417 C422 1.245 . S
C417 C423 1.428 . S
C418 C421 1.260 . S
C418 C422 1.477 . S
C418 H436 0.932 . S
C419 C420 1.384 . S
C419 C421 1.479 . S
C419 H437 0.929 . S
C420 C417 1.424 . S
C420 C419 1.384 . S
C420 H438 0.928 . S
C421 C418 1.260 . S
C421 C419 1.479 . S
C422 C417 1.245 . S
C422 C418 1.477 . S
C422 H439 0.932 . S
C423 U406 2.882 . S
C423 C417 1.428 . S
C423 O426 1.301 . S
C423 O427 1.282 . S
O424 U406 2.441 . S
O424 C410 1.249 . S
O425 U406 2.420 . S
O425 C410 1.202 . S
O426 U406 2.455 . S
O426 C423 1.301 . S
O427 U406 2.449 . S
O427 C423 1.282 . S
H428 C401 0.931 . S
H429 C403 0.929 . S
H430 C404 0.930 . S
H431 C405 0.931 . S
H432 C412 0.932 . S
H433 C413 0.930 . S
H434 C414 0.929 . S
H435 C416 0.930 . S
H436 C418 0.932 . S
H437 C419 0.929 . S
H438 C420 0.928 . S
H439 C422 0.932 . S
C440 C441 1.264 . S
C440 C445 1.479 . S
C440 C450 1.465 . S
C441 C440 1.264 . S
C441 C443 1.339 . S
C441 H468 0.931 . S
C442 C443 1.395 . S
C442 C444 1.320 . S
C443 C441 1.339 . S
C443 C442 1.395 . S
C443 H469 0.929 . S
C444 C442 1.320 . S
C444 C445 1.405 . S
C444 H470 0.930 . S
C445 C440 1.479 . S
C445 C444 1.405 . S
C445 H471 0.931 . S
U446 O447 2.454 . S
U446 O448 2.458 . S
U446 C449 2.984 . S
U446 C450 2.847 . S
U446 C463 2.882 . S
U446 O464 2.441 . S
U446 O465 2.420 . S
U446 O466 2.455 . S
U446 O467 2.449 . S
O447 U446 2.454 . S
O447 C449 1.353 . S
O448 U446 2.458 . S
O448 C449 1.286 . S
C449 U446 2.984 . S
C449 O447 1.353 . S
C449 O448 1.286 . S
C449 C451 1.363 . S
C450 C440 1.465 . S
C450 U446 2.847 . S
C450 O464 1.249 . S
C450 O465 1.202 . S
C451 C449 1.363 . S
C451 C453 1.408 . S
C451 C456 1.342 . S
C452 C453 1.310 . S
C452 C455 1.461 . S
C452 H472 0.932 . S
C453 C451 1.408 . S
C453 C452 1.310 . S
C453 H473 0.930 . S
C454 C455 1.474 . S
C454 C456 1.285 . S
C454 H474 0.929 . S
C455 C452 1.461 . S
C455 C454 1.474 . S
C456 C451 1.342 . S
C456 C454 1.285 . S
C456 H475 0.930 . S
C457 C460 1.424 . S
C457 C462 1.245 . S
C457 C463 1.428 . S
C458 C461 1.260 . S
C458 C462 1.477 . S
C458 H476 0.932 . S
C459 C460 1.384 . S
C459 C461 1.479 . S
C459 H477 0.929 . S
C460 C457 1.424 . S
C460 C459 1.384 . S
C460 H478 0.928 . S
C461 C458 1.260 . S
C461 C459 1.479 . S
C462 C457 1.245 . S
C462 C458 1.477 . S
C462 H479 0.932 . S
C463 U446 2.882 . S
C463 C457 1.428 . S
C463 O466 1.301 . S
C463 O467 1.282 . S
O464 U446 2.441 . S
O464 C450 1.249 . S
O465 U446 2.420 . S
O465 C450 1.202 . S
O466 U446 2.455 . S
O466 C463 1.301 . S
O467 U446 2.449 . S
O467 C463 1.282 . S
H468 C441 0.931 . S
H469 C443 0.929 . S
H470 C444 0.930 . S
H471 C445 0.931 . S
H472 C452 0.932 . S
H473 C453 0.930 . S
H474 C454 0.929 . S
H475 C456 0.930 . S
H476 C458 0.932 . S
H477 C459 0.929 . S
H478 C460 0.928 . S
H479 C462 0.932 . S
C480 C481 1.264 . S
C480 C485 1.479 . S
C480 C490 1.465 . S
C481 C480 1.264 . S
C481 C483 1.339 . S
C481 H508 0.931 . S
C482 C483 1.395 . S
C482 C484 1.320 . S
C483 C481 1.339 . S
C483 C482 1.395 . S
C483 H509 0.929 . S
C484 C482 1.320 . S
C484 C485 1.405 . S
C484 H510 0.930 . S
C485 C480 1.479 . S
C485 C484 1.405 . S
C485 H511 0.931 . S
U486 O487 2.454 . S
U486 O488 2.458 . S
U486 C489 2.984 . S
U486 C490 2.847 . S
U486 C503 2.882 . S
U486 O504 2.441 . S
U486 O505 2.420 . S
U486 O506 2.455 . S
U486 O507 2.449 . S
O487 U486 2.454 . S
O487 C489 1.353 . S
O488 U486 2.458 . S
O488 C489 1.286 . S
C489 U486 2.984 . S
C489 O487 1.353 . S
C489 O488 1.286 . S
C489 C491 1.363 . S
C490 C480 1.465 . S
C490 U486 2.847 . S
C490 O504 1.249 . S
C490 O505 1.202 . S
C491 C489 1.363 . S
C491 C493 1.408 . S
C491 C496 1.342 . S
C492 C493 1.310 . S
C492 C495 1.461 . S
C492 H512 0.932 . S
C493 C491 1.408 . S
C493 C492 1.310 . S
C493 H513 0.930 . S
C494 C495 1.474 . S
C494 C496 1.285 . S
C494 H514 0.929 . S
C495 C492 1.461 . S
C495 C494 1.474 . S
C496 C491 1.342 . S
C496 C494 1.285 . S
C496 H515 0.930 . S
C497 C500 1.424 . S
C497 C502 1.245 . S
C497 C503 1.428 . S
C498 C501 1.260 . S
C498 C502 1.477 . S
C498 H516 0.932 . S
C499 C500 1.384 . S
C499 C501 1.479 . S
C499 H517 0.929 . S
C500 C497 1.424 . S
C500 C499 1.384 . S
C500 H518 0.928 . S
C501 C498 1.260 . S
C501 C499 1.479 . S
C502 C497 1.245 . S
C502 C498 1.477 . S
C502 H519 0.932 . S
C503 U486 2.882 . S
C503 C497 1.428 . S
C503 O506 1.301 . S
C503 O507 1.282 . S
O504 U486 2.441 . S
O504 C490 1.249 . S
O505 U486 2.420 . S
O505 C490 1.202 . S
O506 U486 2.455 . S
O506 C503 1.301 . S
O507 U486 2.449 . S
O507 C503 1.282 . S
H508 C481 0.931 . S
H509 C483 0.929 . S
H510 C484 0.930 . S
H511 C485 0.931 . S
H512 C492 0.932 . S
H513 C493 0.930 . S
H514 C494 0.929 . S
H515 C496 0.930 . S
H516 C498 0.932 . S
H517 C499 0.929 . S
H518 C500 0.928 . S
H519 C502 0.932 . S
C520 C521 1.264 . S
C520 C525 1.479 . S
C520 C530 1.465 . S
C521 C520 1.264 . S
C521 C523 1.339 . S
C521 H548 0.931 . S
C522 C523 1.395 . S
C522 C524 1.320 . S
C523 C521 1.339 . S
C523 C522 1.395 . S
C523 H549 0.929 . S
C524 C522 1.320 . S
C524 C525 1.405 . S
C524 H550 0.930 . S
C525 C520 1.479 . S
C525 C524 1.405 . S
C525 H551 0.931 . S
U526 O527 2.454 . S
U526 O528 2.458 . S
U526 C529 2.984 . S
U526 C530 2.847 . S
U526 C543 2.882 . S
U526 O544 2.441 . S
U526 O545 2.420 . S
U526 O546 2.455 . S
U526 O547 2.449 . S
O527 U526 2.454 . S
O527 C529 1.353 . S
O528 U526 2.458 . S
O528 C529 1.286 . S
C529 U526 2.984 . S
C529 O527 1.353 . S
C529 O528 1.286 . S
C529 C531 1.363 . S
C530 C520 1.465 . S
C530 U526 2.847 . S
C530 O544 1.249 . S
C530 O545 1.202 . S
C531 C529 1.363 . S
C531 C533 1.408 . S
C531 C536 1.342 . S
C532 C533 1.310 . S
C532 C535 1.461 . S
C532 H552 0.932 . S
C533 C531 1.408 . S
C533 C532 1.310 . S
C533 H553 0.930 . S
C534 C535 1.474 . S
C534 C536 1.285 . S
C534 H554 0.929 . S
C535 C532 1.461 . S
C535 C534 1.474 . S
C536 C531 1.342 . S
C536 C534 1.285 . S
C536 H555 0.930 . S
C537 C540 1.424 . S
C537 C542 1.245 . S
C537 C543 1.428 . S
C538 C541 1.260 . S
C538 C542 1.477 . S
C538 H556 0.932 . S
C539 C540 1.384 . S
C539 C541 1.479 . S
C539 H557 0.929 . S
C540 C537 1.424 . S
C540 C539 1.384 . S
C540 H558 0.928 . S
C541 C538 1.260 . S
C541 C539 1.479 . S
C542 C537 1.245 . S
C542 C538 1.477 . S
C542 H559 0.932 . S
C543 U526 2.882 . S
C543 C537 1.428 . S
C543 O546 1.301 . S
C543 O547 1.282 . S
O544 U526 2.441 . S
O544 C530 1.249 . S
O545 U526 2.420 . S
O545 C530 1.202 . S
O546 U526 2.455 . S
O546 C543 1.301 . S
O547 U526 2.449 . S
O547 C543 1.282 . S
H548 C521 0.931 . S
H549 C523 0.929 . S
H550 C524 0.930 . S
H551 C525 0.931 . S
H552 C532 0.932 . S
H553 C533 0.930 . S
H554 C534 0.929 . S
H555 C536 0.930 . S
H556 C538 0.932 . S
H557 C539 0.929 . S
H558 C540 0.928 . S
H559 C542 0.932 . S
C560 C561 1.264 . S
C560 C565 1.479 . S
C560 C570 1.465 . S
C561 C560 1.264 . S
C561 C563 1.339 . S
C561 H588 0.931 . S
C562 C563 1.395 . S
C562 C564 1.320 . S
C563 C561 1.339 . S
C563 C562 1.395 . S
C563 H589 0.929 . S
C564 C562 1.320 . S
C564 C565 1.405 . S
C564 H590 0.930 . S
C565 C560 1.479 . S
C565 C564 1.405 . S
C565 H591 0.931 . S
U566 O567 2.454 . S
U566 O568 2.458 . S
U566 C569 2.984 . S
U566 C570 2.847 . S
U566 C583 2.882 . S
U566 O584 2.441 . S
U566 O585 2.420 . S
U566 O586 2.455 . S
U566 O587 2.449 . S
O567 U566 2.454 . S
O567 C569 1.353 . S
O568 U566 2.458 . S
O568 C569 1.286 . S
C569 U566 2.984 . S
C569 O567 1.353 . S
C569 O568 1.286 . S
C569 C571 1.363 . S
C570 C560 1.465 . S
C570 U566 2.847 . S
C570 O584 1.249 . S
C570 O585 1.202 . S
C571 C569 1.363 . S
C571 C573 1.408 . S
C571 C576 1.342 . S
C572 C573 1.310 . S
C572 C575 1.461 . S
C572 H592 0.932 . S
C573 C571 1.408 . S
C573 C572 1.310 . S
C573 H593 0.930 . S
C574 C575 1.474 . S
C574 C576 1.285 . S
C574 H594 0.929 . S
C575 C572 1.461 . S
C575 C574 1.474 . S
C576 C571 1.342 . S
C576 C574 1.285 . S
C576 H595 0.930 . S
C577 C580 1.424 . S
C577 C582 1.245 . S
C577 C583 1.428 . S
C578 C581 1.260 . S
C578 C582 1.477 . S
C578 H596 0.932 . S
C579 C580 1.384 . S
C579 C581 1.479 . S
C579 H597 0.929 . S
C580 C577 1.424 . S
C580 C579 1.384 . S
C580 H598 0.928 . S
C581 C578 1.260 . S
C581 C579 1.479 . S
C582 C577 1.245 . S
C582 C578 1.477 . S
C582 H599 0.932 . S
C583 U566 2.882 . S
C583 C577 1.428 . S
C583 O586 1.301 . S
C583 O587 1.282 . S
O584 U566 2.441 . S
O584 C570 1.249 . S
O585 U566 2.420 . S
O585 C570 1.202 . S
O586 U566 2.455 . S
O586 C583 1.301 . S
O587 U566 2.449 . S
O587 C583 1.282 . S
H588 C561 0.931 . S
H589 C563 0.929 . S
H590 C564 0.930 . S
H591 C565 0.931 . S
H592 C572 0.932 . S
H593 C573 0.930 . S
H594 C574 0.929 . S
H595 C576 0.930 . S
H596 C578 0.932 . S
H597 C579 0.929 . S
H598 C580 0.928 . S
H599 C582 0.932 . S
C600 C601 1.264 . S
C600 C605 1.479 . S
C600 C610 1.465 . S
C601 C600 1.264 . S
C601 C603 1.339 . S
C601 H628 0.931 . S
C602 C603 1.395 . S
C602 C604 1.320 . S
C603 C601 1.339 . S
C603 C602 1.395 . S
C603 H629 0.929 . S
C604 C602 1.320 . S
C604 C605 1.405 . S
C604 H630 0.930 . S
C605 C600 1.479 . S
C605 C604 1.405 . S
C605 H631 0.931 . S
U606 O607 2.454 . S
U606 O608 2.458 . S
U606 C609 2.984 . S
U606 C610 2.847 . S
U606 C623 2.882 . S
U606 O624 2.441 . S
U606 O625 2.420 . S
U606 O626 2.455 . S
U606 O627 2.449 . S
O607 U606 2.454 . S
O607 C609 1.353 . S
O608 U606 2.458 . S
O608 C609 1.286 . S
C609 U606 2.984 . S
C609 O607 1.353 . S
C609 O608 1.286 . S
C609 C611 1.363 . S
C610 C600 1.465 . S
C610 U606 2.847 . S
C610 O624 1.249 . S
C610 O625 1.202 . S
C611 C609 1.363 . S
C611 C613 1.408 . S
C611 C616 1.342 . S
C612 C613 1.310 . S
C612 C615 1.461 . S
C612 H632 0.932 . S
C613 C611 1.408 . S
C613 C612 1.310 . S
C613 H633 0.930 . S
C614 C615 1.474 . S
C614 C616 1.285 . S
C614 H634 0.929 . S
C615 C612 1.461 . S
C615 C614 1.474 . S
C616 C611 1.342 . S
C616 C614 1.285 . S
C616 H635 0.930 . S
C617 C620 1.424 . S
C617 C622 1.245 . S
C617 C623 1.428 . S
C618 C621 1.260 . S
C618 C622 1.477 . S
C618 H636 0.932 . S
C619 C620 1.384 . S
C619 C621 1.479 . S
C619 H637 0.929 . S
C620 C617 1.424 . S
C620 C619 1.384 . S
C620 H638 0.928 . S
C621 C618 1.260 . S
C621 C619 1.479 . S
C622 C617 1.245 . S
C622 C618 1.477 . S
C622 H639 0.932 . S
C623 U606 2.882 . S
C623 C617 1.428 . S
C623 O626 1.301 . S
C623 O627 1.282 . S
O624 U606 2.441 . S
O624 C610 1.249 . S
O625 U606 2.420 . S
O625 C610 1.202 . S
O626 U606 2.455 . S
O626 C623 1.301 . S
O627 U606 2.449 . S
O627 C623 1.282 . S
H628 C601 0.931 . S
H629 C603 0.929 . S
H630 C604 0.930 . S
H631 C605 0.931 . S
H632 C612 0.932 . S
H633 C613 0.930 . S
H634 C614 0.929 . S
H635 C616 0.930 . S
H636 C618 0.932 . S
H637 C619 0.929 . S
H638 C620 0.928 . S
H639 C622 0.932 . S
C640 C641 1.264 . S
C640 C645 1.479 . S
C640 C650 1.465 . S
C641 C640 1.264 . S
C641 C643 1.339 . S
C641 H668 0.931 . S
C642 C643 1.395 . S
C642 C644 1.320 . S
C643 C641 1.339 . S
C643 C642 1.395 . S
C643 H669 0.929 . S
C644 C642 1.320 . S
C644 C645 1.405 . S
C644 H670 0.930 . S
C645 C640 1.479 . S
C645 C644 1.405 . S
C645 H671 0.931 . S
U646 O647 2.454 . S
U646 O648 2.458 . S
U646 C649 2.984 . S
U646 C650 2.847 . S
U646 C663 2.882 . S
U646 O664 2.441 . S
U646 O665 2.420 . S
U646 O666 2.455 . S
U646 O667 2.449 . S
O647 U646 2.454 . S
O647 C649 1.353 . S
O648 U646 2.458 . S
O648 C649 1.286 . S
C649 U646 2.984 . S
C649 O647 1.353 . S
C649 O648 1.286 . S
C649 C651 1.363 . S
C650 C640 1.465 . S
C650 U646 2.847 . S
C650 O664 1.249 . S
C650 O665 1.202 . S
C651 C649 1.363 . S
C651 C653 1.408 . S
C651 C656 1.342 . S
C652 C653 1.310 . S
C652 C655 1.461 . S
C652 H672 0.932 . S
C653 C651 1.408 . S
C653 C652 1.310 . S
C653 H673 0.930 . S
C654 C655 1.474 . S
C654 C656 1.285 . S
C654 H674 0.929 . S
C655 C652 1.461 . S
C655 C654 1.474 . S
C656 C651 1.342 . S
C656 C654 1.285 . S
C656 H675 0.930 . S
C657 C660 1.424 . S
C657 C662 1.245 . S
C657 C663 1.428 . S
C658 C661 1.260 . S
C658 C662 1.477 . S
C658 H676 0.932 . S
C659 C660 1.384 . S
C659 C661 1.479 . S
C659 H677 0.929 . S
C660 C657 1.424 . S
C660 C659 1.384 . S
C660 H678 0.928 . S
C661 C658 1.260 . S
C661 C659 1.479 . S
C662 C657 1.245 . S
C662 C658 1.477 . S
C662 H679 0.932 . S
C663 U646 2.882 . S
C663 C657 1.428 . S
C663 O666 1.301 . S
C663 O667 1.282 . S
O664 U646 2.441 . S
O664 C650 1.249 . S
O665 U646 2.420 . S
O665 C650 1.202 . S
O666 U646 2.455 . S
O666 C663 1.301 . S
O667 U646 2.449 . S
O667 C663 1.282 . S
H668 C641 0.931 . S
H669 C643 0.929 . S
H670 C644 0.930 . S
H671 C645 0.931 . S
H672 C652 0.932 . S
H673 C653 0.930 . S
H674 C654 0.929 . S
H675 C656 0.930 . S
H676 C658 0.932 . S
H677 C659 0.929 . S
H678 C660 0.928 . S
H679 C662 0.932 . S
C680 C681 1.264 . S
C680 C685 1.479 . S
C680 C690 1.465 . S
C681 C680 1.264 . S
C681 C683 1.339 . S
C681 H708 0.931 . S
C682 C683 1.395 . S
C682 C684 1.320 . S
C683 C681 1.339 . S
C683 C682 1.395 . S
C683 H709 0.929 . S
C684 C682 1.320 . S
C684 C685 1.405 . S
C684 H710 0.930 . S
C685 C680 1.479 . S
C685 C684 1.405 . S
C685 H711 0.931 . S
U686 O687 2.454 . S
U686 O688 2.458 . S
U686 C689 2.984 . S
U686 C690 2.847 . S
U686 C703 2.882 . S
U686 O704 2.441 . S
U686 O705 2.420 . S
U686 O706 2.455 . S
U686 O707 2.449 . S
O687 U686 2.454 . S
O687 C689 1.353 . S
O688 U686 2.458 . S
O688 C689 1.286 . S
C689 U686 2.984 . S
C689 O687 1.353 . S
C689 O688 1.286 . S
C689 C691 1.363 . S
C690 C680 1.465 . S
C690 U686 2.847 . S
C690 O704 1.249 . S
C690 O705 1.202 . S
C691 C689 1.363 . S
C691 C693 1.408 . S
C691 C696 1.342 . S
C692 C693 1.310 . S
C692 C695 1.461 . S
C692 H712 0.932 . S
C693 C691 1.408 . S
C693 C692 1.310 . S
C693 H713 0.930 . S
C694 C695 1.474 . S
C694 C696 1.285 . S
C694 H714 0.929 . S
C695 C692 1.461 . S
C695 C694 1.474 . S
C696 C691 1.342 . S
C696 C694 1.285 . S
C696 H715 0.930 . S
C697 C700 1.424 . S
C697 C702 1.245 . S
C697 C703 1.428 . S
C698 C701 1.260 . S
C698 C702 1.477 . S
C698 H716 0.932 . S
C699 C700 1.384 . S
C699 C701 1.479 . S
C699 H717 0.929 . S
C700 C697 1.424 . S
C700 C699 1.384 . S
C700 H718 0.928 . S
C701 C698 1.260 . S
C701 C699 1.479 . S
C702 C697 1.245 . S
C702 C698 1.477 . S
C702 H719 0.932 . S
C703 U686 2.882 . S
C703 C697 1.428 . S
C703 O706 1.301 . S
C703 O707 1.282 . S
O704 U686 2.441 . S
O704 C690 1.249 . S
O705 U686 2.420 . S
O705 C690 1.202 . S
O706 U686 2.455 . S
O706 C703 1.301 . S
O707 U686 2.449 . S
O707 C703 1.282 . S
H708 C681 0.931 . S
H709 C683 0.929 . S
H710 C684 0.930 . S
H711 C685 0.931 . S
H712 C692 0.932 . S
H713 C693 0.930 . S
H714 C694 0.929 . S
H715 C696 0.930 . S
H716 C698 0.932 . S
H717 C699 0.929 . S
H718 C700 0.928 . S
H719 C702 0.932 . S
C720 C721 1.264 . S
C720 C725 1.479 . S
C720 C730 1.465 . S
C721 C720 1.264 . S
C721 C723 1.339 . S
C721 H748 0.931 . S
C722 C723 1.395 . S
C722 C724 1.320 . S
C723 C721 1.339 . S
C723 C722 1.395 . S
C723 H749 0.929 . S
C724 C722 1.320 . S
C724 C725 1.405 . S
C724 H750 0.930 . S
C725 C720 1.479 . S
C725 C724 1.405 . S
C725 H751 0.931 . S
U726 O727 2.454 . S
U726 O728 2.458 . S
U726 C729 2.984 . S
U726 C730 2.847 . S
U726 C743 2.882 . S
U726 O744 2.441 . S
U726 O745 2.420 . S
U726 O746 2.455 . S
U726 O747 2.449 . S
O727 U726 2.454 . S
O727 C729 1.353 . S
O728 U726 2.458 . S
O728 C729 1.286 . S
C729 U726 2.984 . S
C729 O727 1.353 . S
C729 O728 1.286 . S
C729 C731 1.363 . S
C730 C720 1.465 . S
C730 U726 2.847 . S
C730 O744 1.249 . S
C730 O745 1.202 . S
C731 C729 1.363 . S
C731 C733 1.408 . S
C731 C736 1.342 . S
C732 C733 1.310 . S
C732 C735 1.461 . S
C732 H752 0.932 . S
C733 C731 1.408 . S
C733 C732 1.310 . S
C733 H753 0.930 . S
C734 C735 1.474 . S
C734 C736 1.285 . S
C734 H754 0.929 . S
C735 C732 1.461 . S
C735 C734 1.474 . S
C736 C731 1.342 . S
C736 C734 1.285 . S
C736 H755 0.930 . S
C737 C740 1.424 . S
C737 C742 1.245 . S
C737 C743 1.428 . S
C738 C741 1.260 . S
C738 C742 1.477 . S
C738 H756 0.932 . S
C739 C740 1.384 . S
C739 C741 1.479 . S
C739 H757 0.929 . S
C740 C737 1.424 . S
C740 C739 1.384 . S
C740 H758 0.928 . S
C741 C738 1.260 . S
C741 C739 1.479 . S
C742 C737 1.245 . S
C742 C738 1.477 . S
C742 H759 0.932 . S
C743 U726 2.882 . S
C743 C737 1.428 . S
C743 O746 1.301 . S
C743 O747 1.282 . S
O744 U726 2.441 . S
O744 C730 1.249 . S
O745 U726 2.420 . S
O745 C730 1.202 . S
O746 U726 2.455 . S
O746 C743 1.301 . S
O747 U726 2.449 . S
O747 C743 1.282 . S
H748 C721 0.931 . S
H749 C723 0.929 . S
H750 C724 0.930 . S
H751 C725 0.931 . S
H752 C732 0.932 . S
H753 C733 0.930 . S
H754 C734 0.929 . S
H755 C736 0.930 . S
H756 C738 0.932 . S
H757 C739 0.929 . S
H758 C740 0.928 . S
H759 C742 0.932 . S
C760 C761 1.264 . S
C760 C765 1.479 . S
C760 C770 1.465 . S
C761 C760 1.264 . S
C761 C763 1.339 . S
C761 H788 0.931 . S
C762 C763 1.395 . S
C762 C764 1.320 . S
C763 C761 1.339 . S
C763 C762 1.395 . S
C763 H789 0.929 . S
C764 C762 1.320 . S
C764 C765 1.405 . S
C764 H790 0.930 . S
C765 C760 1.479 . S
C765 C764 1.405 . S
C765 H791 0.931 . S
U766 O767 2.454 . S
U766 O768 2.458 . S
U766 C769 2.984 . S
U766 C770 2.847 . S
U766 C783 2.882 . S
U766 O784 2.441 . S
U766 O785 2.420 . S
U766 O786 2.455 . S
U766 O787 2.449 . S
O767 U766 2.454 . S
O767 C769 1.353 . S
O768 U766 2.458 . S
O768 C769 1.286 . S
C769 U766 2.984 . S
C769 O767 1.353 . S
C769 O768 1.286 . S
C769 C771 1.363 . S
C770 C760 1.465 . S
C770 U766 2.847 . S
C770 O784 1.249 . S
C770 O785 1.202 . S
C771 C769 1.363 . S
C771 C773 1.408 . S
C771 C776 1.342 . S
C772 C773 1.310 . S
C772 C775 1.461 . S
C772 H792 0.932 . S
C773 C771 1.408 . S
C773 C772 1.310 . S
C773 H793 0.930 . S
C774 C775 1.474 . S
C774 C776 1.285 . S
C774 H794 0.929 . S
C775 C772 1.461 . S
C775 C774 1.474 . S
C776 C771 1.342 . S
C776 C774 1.285 . S
C776 H795 0.930 . S
C777 C780 1.424 . S
C777 C782 1.245 . S
C777 C783 1.428 . S
C778 C781 1.260 . S
C778 C782 1.477 . S
C778 H796 0.932 . S
C779 C780 1.384 . S
C779 C781 1.479 . S
C779 H797 0.929 . S
C780 C777 1.424 . S
C780 C779 1.384 . S
C780 H798 0.928 . S
C781 C778 1.260 . S
C781 C779 1.479 . S
C782 C777 1.245 . S
C782 C778 1.477 . S
C782 H799 0.932 . S
C783 U766 2.882 . S
C783 C777 1.428 . S
C783 O786 1.301 . S
C783 O787 1.282 . S
O784 U766 2.441 . S
O784 C770 1.249 . S
O785 U766 2.420 . S
O785 C770 1.202 . S
O786 U766 2.455 . S
O786 C783 1.301 . S
O787 U766 2.449 . S
O787 C783 1.282 . S
H788 C761 0.931 . S
H789 C763 0.929 . S
H790 C764 0.930 . S
H791 C765 0.931 . S
H792 C772 0.932 . S
H793 C773 0.930 . S
H794 C774 0.929 . S
H795 C776 0.930 . S
H796 C778 0.932 . S
H797 C779 0.929 . S
H798 C780 0.928 . S
H799 C782 0.932 . S
C800 C801 1.264 . S
C800 C805 1.479 . S
C800 C810 1.465 . S
C801 C800 1.264 . S
C801 C803 1.339 . S
C801 H828 0.931 . S
C802 C803 1.395 . S
C802 C804 1.320 . S
C803 C801 1.339 . S
C803 C802 1.395 . S
C803 H829 0.929 . S
C804 C802 1.320 . S
C804 C805 1.405 . S
C804 H830 0.930 . S
C805 C800 1.479 . S
C805 C804 1.405 . S
C805 H831 0.931 . S
U806 O807 2.454 . S
U806 O808 2.458 . S
U806 C809 2.984 . S
U806 C810 2.847 . S
U806 C823 2.882 . S
U806 O824 2.441 . S
U806 O825 2.420 . S
U806 O826 2.455 . S
U806 O827 2.449 . S
O807 U806 2.454 . S
O807 C809 1.353 . S
O808 U806 2.458 . S
O808 C809 1.286 . S
C809 U806 2.984 . S
C809 O807 1.353 . S
C809 O808 1.286 . S
C809 C811 1.363 . S
C810 C800 1.465 . S
C810 U806 2.847 . S
C810 O824 1.249 . S
C810 O825 1.202 . S
C811 C809 1.363 . S
C811 C813 1.408 . S
C811 C816 1.342 . S
C812 C813 1.310 . S
C812 C815 1.461 . S
C812 H832 0.932 . S
C813 C811 1.408 . S
C813 C812 1.310 . S
C813 H833 0.930 . S
C814 C815 1.474 . S
C814 C816 1.285 . S
C814 H834 0.929 . S
C815 C812 1.461 . S
C815 C814 1.474 . S
C816 C811 1.342 . S
C816 C814 1.285 . S
C816 H835 0.930 . S
C817 C820 1.424 . S
C817 C822 1.245 . S
C817 C823 1.428 . S
C818 C821 1.260 . S
C818 C822 1.477 . S
C818 H836 0.932 . S
C819 C820 1.384 . S
C819 C821 1.479 . S
C819 H837 0.929 . S
C820 C817 1.424 . S
C820 C819 1.384 . S
C820 H838 0.928 . S
C821 C818 1.260 . S
C821 C819 1.479 . S
C822 C817 1.245 . S
C822 C818 1.477 . S
C822 H839 0.932 . S
C823 U806 2.882 . S
C823 C817 1.428 . S
C823 O826 1.301 . S
C823 O827 1.282 . S
O824 U806 2.441 . S
O824 C810 1.249 . S
O825 U806 2.420 . S
O825 C810 1.202 . S
O826 U806 2.455 . S
O826 C823 1.301 . S
O827 U806 2.449 . S
O827 C823 1.282 . S
H828 C801 0.931 . S
H829 C803 0.929 . S
H830 C804 0.930 . S
H831 C805 0.931 . S
H832 C812 0.932 . S
H833 C813 0.930 . S
H834 C814 0.929 . S
H835 C816 0.930 . S
H836 C818 0.932 . S
H837 C819 0.929 . S
H838 C820 0.928 . S
H839 C822 0.932 . S
C840 C841 1.264 . S
C840 C845 1.479 . S
C840 C850 1.465 . S
C841 C840 1.264 . S
C841 C843 1.339 . S
C841 H868 0.931 . S
C842 C843 1.395 . S
C842 C844 1.320 . S
C843 C841 1.339 . S
C843 C842 1.395 . S
C843 H869 0.929 . S
C844 C842 1.320 . S
C844 C845 1.405 . S
C844 H870 0.930 . S
C845 C840 1.479 . S
C845 C844 1.405 . S
C845 H871 0.931 . S
U846 O847 2.454 . S
U846 O848 2.458 . S
U846 C849 2.984 . S
U846 C850 2.847 . S
U846 C863 2.882 . S
U846 O864 2.441 . S
U846 O865 2.420 . S
U846 O866 2.455 . S
U846 O867 2.449 . S
O847 U846 2.454 . S
O847 C849 1.353 . S
O848 U846 2.458 . S
O848 C849 1.286 . S
C849 U846 2.984 . S
C849 O847 1.353 . S
C849 O848 1.286 . S
C849 C851 1.363 . S
C850 C840 1.465 . S
C850 U846 2.847 . S
C850 O864 1.249 . S
C850 O865 1.202 . S
C851 C849 1.363 . S
C851 C853 1.408 . S
C851 C856 1.342 . S
C852 C853 1.310 . S
C852 C855 1.461 . S
C852 H872 0.932 . S
C853 C851 1.408 . S
C853 C852 1.310 . S
C853 H873 0.930 . S
C854 C855 1.474 . S
C854 C856 1.285 . S
C854 H874 0.929 . S
C855 C852 1.461 . S
C855 C854 1.474 . S
C856 C851 1.342 . S
C856 C854 1.285 . S
C856 H875 0.930 . S
C857 C860 1.424 . S
C857 C862 1.245 . S
C857 C863 1.428 . S
C858 C861 1.260 . S
C858 C862 1.477 . S
C858 H876 0.932 . S
C859 C860 1.384 . S
C859 C861 1.479 . S
C859 H877 0.929 . S
C860 C857 1.424 . S
C860 C859 1.384 . S
C860 H878 0.928 . S
C861 C858 1.260 . S
C861 C859 1.479 . S
C862 C857 1.245 . S
C862 C858 1.477 . S
C862 H879 0.932 . S
C863 U846 2.882 . S
C863 C857 1.428 . S
C863 O866 1.301 . S
C863 O867 1.282 . S
O864 U846 2.441 . S
O864 C850 1.249 . S
O865 U846 2.420 . S
O865 C850 1.202 . S
O866 U846 2.455 . S
O866 C863 1.301 . S
O867 U846 2.449 . S
O867 C863 1.282 . S
H868 C841 0.931 . S
H869 C843 0.929 . S
H870 C844 0.930 . S
H871 C845 0.931 . S
H872 C852 0.932 . S
H873 C853 0.930 . S
H874 C854 0.929 . S
H875 C856 0.930 . S
H876 C858 0.932 . S
H877 C859 0.929 . S
H878 C860 0.928 . S
H879 C862 0.932 . S
C880 C881 1.264 . S
C880 C885 1.479 . S
C880 C890 1.465 . S
C881 C880 1.264 . S
C881 C883 1.339 . S
C881 H908 0.931 . S
C882 C883 1.395 . S
C882 C884 1.320 . S
C883 C881 1.339 . S
C883 C882 1.395 . S
C883 H909 0.929 . S
C884 C882 1.320 . S
C884 C885 1.405 . S
C884 H910 0.930 . S
C885 C880 1.479 . S
C885 C884 1.405 . S
C885 H911 0.931 . S
U886 O887 2.454 . S
U886 O888 2.458 . S
U886 C889 2.984 . S
U886 C890 2.847 . S
U886 C903 2.882 . S
U886 O904 2.441 . S
U886 O905 2.420 . S
U886 O906 2.455 . S
U886 O907 2.449 . S
O887 U886 2.454 . S
O887 C889 1.353 . S
O888 U886 2.458 . S
O888 C889 1.286 . S
C889 U886 2.984 . S
C889 O887 1.353 . S
C889 O888 1.286 . S
C889 C891 1.363 . S
C890 C880 1.465 . S
C890 U886 2.847 . S
C890 O904 1.249 . S
C890 O905 1.202 . S
C891 C889 1.363 . S
C891 C893 1.408 . S
C891 C896 1.342 . S
C892 C893 1.310 . S
C892 C895 1.461 . S
C892 H912 0.932 . S
C893 C891 1.408 . S
C893 C892 1.310 . S
C893 H913 0.930 . S
C894 C895 1.474 . S
C894 C896 1.285 . S
C894 H914 0.929 . S
C895 C892 1.461 . S
C895 C894 1.474 . S
C896 C891 1.342 . S
C896 C894 1.285 . S
C896 H915 0.930 . S
C897 C900 1.424 . S
C897 C902 1.245 . S
C897 C903 1.428 . S
C898 C901 1.260 . S
C898 C902 1.477 . S
C898 H916 0.932 . S
C899 C900 1.384 . S
C899 C901 1.479 . S
C899 H917 0.929 . S
C900 C897 1.424 . S
C900 C899 1.384 . S
C900 H918 0.928 . S
C901 C898 1.260 . S
C901 C899 1.479 . S
C902 C897 1.245 . S
C902 C898 1.477 . S
C902 H919 0.932 . S
C903 U886 2.882 . S
C903 C897 1.428 . S
C903 O906 1.301 . S
C903 O907 1.282 . S
O904 U886 2.441 . S
O904 C890 1.249 . S
O905 U886 2.420 . S
O905 C890 1.202 . S
O906 U886 2.455 . S
O906 C903 1.301 . S
O907 U886 2.449 . S
O907 C903 1.282 . S
H908 C881 0.931 . S
H909 C883 0.929 . S
H910 C884 0.930 . S
H911 C885 0.931 . S
H912 C892 0.932 . S
H913 C893 0.930 . S
H914 C894 0.929 . S
H915 C896 0.930 . S
H916 C898 0.932 . S
H917 C899 0.929 . S
H918 C900 0.928 . S
H919 C902 0.932 . S
C920 C921 1.264 . S
C920 C925 1.479 . S
C920 C930 1.465 . S
C921 C920 1.264 . S
C921 C923 1.339 . S
C921 H948 0.931 . S
C922 C923 1.395 . S
C922 C924 1.320 . S
C923 C921 1.339 . S
C923 C922 1.395 . S
C923 H949 0.929 . S
C924 C922 1.320 . S
C924 C925 1.405 . S
C924 H950 0.930 . S
C925 C920 1.479 . S
C925 C924 1.405 . S
C925 H951 0.931 . S
U926 O927 2.454 . S
U926 O928 2.458 . S
U926 C929 2.984 . S
U926 C930 2.847 . S
U926 C943 2.882 . S
U926 O944 2.441 . S
U926 O945 2.420 . S
U926 O946 2.455 . S
U926 O947 2.449 . S
O927 U926 2.454 . S
O927 C929 1.353 . S
O928 U926 2.458 . S
O928 C929 1.286 . S
C929 U926 2.984 . S
C929 O927 1.353 . S
C929 O928 1.286 . S
C929 C931 1.363 . S
C930 C920 1.465 . S
C930 U926 2.847 . S
C930 O944 1.249 . S
C930 O945 1.202 . S
C931 C929 1.363 . S
C931 C933 1.408 . S
C931 C936 1.342 . S
C932 C933 1.310 . S
C932 C935 1.461 . S
C932 H952 0.932 . S
C933 C931 1.408 . S
C933 C932 1.310 . S
C933 H953 0.930 . S
C934 C935 1.474 . S
C934 C936 1.285 . S
C934 H954 0.929 . S
C935 C932 1.461 . S
C935 C934 1.474 . S
C936 C931 1.342 . S
C936 C934 1.285 . S
C936 H955 0.930 . S
C937 C940 1.424 . S
C937 C942 1.245 . S
C937 C943 1.428 . S
C938 C941 1.260 . S
C938 C942 1.477 . S
C938 H956 0.932 . S
C939 C940 1.384 . S
C939 C941 1.479 . S
C939 H957 0.929 . S
C940 C937 1.424 . S
C940 C939 1.384 . S
C940 H958 0.928 . S
C941 C938 1.260 . S
C941 C939 1.479 . S
C942 C937 1.245 . S
C942 C938 1.477 . S
C942 H959 0.932 . S
C943 U926 2.882 . S
C943 C937 1.428 . S
C943 O946 1.301 . S
C943 O947 1.282 . S
O944 U926 2.441 . S
O944 C930 1.249 . S
O945 U926 2.420 . S
O945 C930 1.202 . S
O946 U926 2.455 . S
O946 C943 1.301 . S
O947 U926 2.449 . S
O947 C943 1.282 . S
H948 C921 0.931 . S
H949 C923 0.929 . S
H950 C924 0.930 . S
H951 C925 0.931 . S
H952 C932 0.932 . S
H953 C933 0.930 . S
H954 C934 0.929 . S
H955 C936 0.930 . S
H956 C938 0.932 . S
H957 C939 0.929 . S
H958 C940 0.928 . S
H959 C942 0.932 . S
C960 C961 1.264 . S
C960 C965 1.479 . S
C960 C970 1.465 . S
C961 C960 1.264 . S
C961 C963 1.339 . S
C961 H988 0.931 . S
C962 C963 1.395 . S
C962 C964 1.320 . S
C963 C961 1.339 . S
C963 C962 1.395 . S
C963 H989 0.929 . S
C964 C962 1.320 . S
C964 C965 1.405 . S
C964 H990 0.930 . S
C965 C960 1.479 . S
C965 C964 1.405 . S
C965 H991 0.931 . S
U966 O967 2.454 . S
U966 O968 2.458 . S
U966 C969 2.984 . S
U966 C970 2.847 . S
U966 C983 2.882 . S
U966 O984 2.441 . S
U966 O985 2.420 . S
U966 O986 2.455 . S
U966 O987 2.449 . S
O967 U966 2.454 . S
O967 C969 1.353 . S
O968 U966 2.458 . S
O968 C969 1.286 . S
C969 U966 2.984 . S
C969 O967 1.353 . S
C969 O968 1.286 . S
C969 C971 1.363 . S
C970 C960 1.465 . S
C970 U966 2.847 . S
C970 O984 1.249 . S
C970 O985 1.202 . S
C971 C969 1.363 . S
C971 C973 1.408 . S
C971 C976 1.342 . S
C972 C973 1.310 . S
C972 C975 1.461 . S
C972 H992 0.932 . S
C973 C971 1.408 . S
C973 C972 1.310 . S
C973 H993 0.930 . S
C974 C975 1.474 . S
C974 C976 1.285 . S
C974 H994 0.929 . S
C975 C972 1.461 . S
C975 C974 1.474 . S
C976 C971 1.342 . S
C976 C974 1.285 . S
C976 H995 0.930 . S
C977 C980 1.424 . S
C977 C982 1.245 . S
C977 C983 1.428 . S
C978 C981 1.260 . S
C978 C982 1.477 . S
C978 H996 0.932 . S
C979 C980 1.384 . S
C979 C981 1.479 . S
C979 H997 0.929 . S
C980 C977 1.424 . S
C980 C979 1.384 . S
C980 H998 0.928 . S
C981 C978 1.260 . S
C981 C979 1.479 . S
C982 C977 1.245 . S
C982 C978 1.477 . S
C982 H999 0.932 . S
C983 U966 2.882 . S
C983 C977 1.428 . S
C983 O986 1.301 . S
C983 O987 1.282 . S
O984 U966 2.441 . S
O984 C970 1.249 . S
O985 U966 2.420 . S
O985 C970 1.202 . S
O986 U966 2.455 . S
O986 C983 1.301 . S
O987 U966 2.449 . S
O987 C983 1.282 . S
H988 C961 0.931 . S
H989 C963 0.929 . S
H990 C964 0.930 . S
H991 C965 0.931 . S
H992 C972 0.932 . S
H993 C973 0.930 . S
H994 C974 0.929 . S
H995 C976 0.930 . S
H996 C978 0.932 . S
H997 C979 0.929 . S
H998 C980 0.928 . S
H999 C982 0.932 . S
C1000 C1001 1.264 . S
C1000 C1005 1.479 . S
C1000 C1010 1.465 . S
C1001 C1000 1.264 . S
C1001 C1003 1.339 . S
C1001 H1028 0.931 . S
C1002 C1003 1.395 . S
C1002 C1004 1.320 . S
C1003 C1001 1.339 . S
C1003 C1002 1.395 . S
C1003 H1029 0.929 . S
C1004 C1002 1.320 . S
C1004 C1005 1.405 . S
C1004 H1030 0.930 . S
C1005 C1000 1.479 . S
C1005 C1004 1.405 . S
C1005 H1031 0.931 . S
U1006 O1007 2.454 . S
U1006 O1008 2.458 . S
U1006 C1009 2.984 . S
U1006 C1010 2.847 . S
U1006 C1023 2.882 . S
U1006 O1024 2.441 . S
U1006 O1025 2.420 . S
U1006 O1026 2.455 . S
U1006 O1027 2.449 . S
O1007 U1006 2.454 . S
O1007 C1009 1.353 . S
O1008 U1006 2.458 . S
O1008 C1009 1.286 . S
C1009 U1006 2.984 . S
C1009 O1007 1.353 . S
C1009 O1008 1.286 . S
C1009 C1011 1.363 . S
C1010 C1000 1.465 . S
C1010 U1006 2.847 . S
C1010 O1024 1.249 . S
C1010 O1025 1.202 . S
C1011 C1009 1.363 . S
C1011 C1013 1.408 . S
C1011 C1016 1.342 . S
C1012 C1013 1.310 . S
C1012 C1015 1.461 . S
C1012 H1032 0.932 . S
C1013 C1011 1.408 . S
C1013 C1012 1.310 . S
C1013 H1033 0.930 . S
C1014 C1015 1.474 . S
C1014 C1016 1.285 . S
C1014 H1034 0.929 . S
C1015 C1012 1.461 . S
C1015 C1014 1.474 . S
C1016 C1011 1.342 . S
C1016 C1014 1.285 . S
C1016 H1035 0.930 . S
C1017 C1020 1.424 . S
C1017 C1022 1.245 . S
C1017 C1023 1.428 . S
C1018 C1021 1.260 . S
C1018 C1022 1.477 . S
C1018 H1036 0.932 . S
C1019 C1020 1.384 . S
C1019 C1021 1.479 . S
C1019 H1037 0.929 . S
C1020 C1017 1.424 . S
C1020 C1019 1.384 . S
C1020 H1038 0.928 . S
C1021 C1018 1.260 . S
C1021 C1019 1.479 . S
C1022 C1017 1.245 . S
C1022 C1018 1.477 . S
C1022 H1039 0.932 . S
C1023 U1006 2.882 . S
C1023 C1017 1.428 . S
C1023 O1026 1.301 . S
C1023 O1027 1.282 . S
O1024 U1006 2.441 . S
O1024 C1010 1.249 . S
O1025 U1006 2.420 . S
O1025 C1010 1.202 . S
O1026 U1006 2.455 . S
O1026 C1023 1.301 . S
O1027 U1006 2.449 . S
O1027 C1023 1.282 . S
H1028 C1001 0.931 . S
H1029 C1003 0.929 . S
H1030 C1004 0.930 . S
H1031 C1005 0.931 . S
H1032 C1012 0.932 . S
H1033 C1013 0.930 . S
H1034 C1014 0.929 . S
H1035 C1016 0.930 . S
H1036 C1018 0.932 . S
H1037 C1019 0.929 . S
H1038 C1020 0.928 . S
H1039 C1022 0.932 . S
C1040 C1041 1.264 . S
C1040 C1045 1.479 . S
C1040 C1050 1.465 . S
C1041 C1040 1.264 . S
C1041 C1043 1.339 . S
C1041 H1068 0.931 . S
C1042 C1043 1.395 . S
C1042 C1044 1.320 . S
C1043 C1041 1.339 . S
C1043 C1042 1.395 . S
C1043 H1069 0.929 . S
C1044 C1042 1.320 . S
C1044 C1045 1.405 . S
C1044 H1070 0.930 . S
C1045 C1040 1.479 . S
C1045 C1044 1.405 . S
C1045 H1071 0.931 . S
U1046 O1047 2.454 . S
U1046 O1048 2.458 . S
U1046 C1049 2.984 . S
U1046 C1050 2.847 . S
U1046 C1063 2.882 . S
U1046 O1064 2.441 . S
U1046 O1065 2.420 . S
U1046 O1066 2.455 . S
U1046 O1067 2.449 . S
O1047 U1046 2.454 . S
O1047 C1049 1.353 . S
O1048 U1046 2.458 . S
O1048 C1049 1.286 . S
C1049 U1046 2.984 . S
C1049 O1047 1.353 . S
C1049 O1048 1.286 . S
C1049 C1051 1.363 . S
C1050 C1040 1.465 . S
C1050 U1046 2.847 . S
C1050 O1064 1.249 . S
C1050 O1065 1.202 . S
C1051 C1049 1.363 . S
C1051 C1053 1.408 . S
C1051 C1056 1.342 . S
C1052 C1053 1.310 . S
C1052 C1055 1.461 . S
C1052 H1072 0.932 . S
C1053 C1051 1.408 . S
C1053 C1052 1.310 . S
C1053 H1073 0.930 . S
C1054 C1055 1.474 . S
C1054 C1056 1.285 . S
C1054 H1074 0.929 . S
C1055 C1052 1.461 . S
C1055 C1054 1.474 . S
C1056 C1051 1.342 . S
C1056 C1054 1.285 . S
C1056 H1075 0.930 . S
C1057 C1060 1.424 . S
C1057 C1062 1.245 . S
C1057 C1063 1.428 . S
C1058 C1061 1.260 . S
C1058 C1062 1.477 . S
C1058 H1076 0.932 . S
C1059 C1060 1.384 . S
C1059 C1061 1.479 . S
C1059 H1077 0.929 . S
C1060 C1057 1.424 . S
C1060 C1059 1.384 . S
C1060 H1078 0.928 . S
C1061 C1058 1.260 . S
C1061 C1059 1.479 . S
C1062 C1057 1.245 . S
C1062 C1058 1.477 . S
C1062 H1079 0.932 . S
C1063 U1046 2.882 . S
C1063 C1057 1.428 . S
C1063 O1066 1.301 . S
C1063 O1067 1.282 . S
O1064 U1046 2.441 . S
O1064 C1050 1.249 . S
O1065 U1046 2.420 . S
O1065 C1050 1.202 . S
O1066 U1046 2.455 . S
O1066 C1063 1.301 . S
O1067 U1046 2.449 . S
O1067 C1063 1.282 . S
H1068 C1041 0.931 . S
H1069 C1043 0.929 . S
H1070 C1044 0.930 . S
H1071 C1045 0.931 . S
H1072 C1052 0.932 . S
H1073 C1053 0.930 . S
H1074 C1054 0.929 . S
H1075 C1056 0.930 . S
H1076 C1058 0.932 . S
H1077 C1059 0.929 . S
H1078 C1060 0.928 . S
H1079 C1062 0.932 . S
C1080 C1081 1.264 . S
C1080 C1085 1.479 . S
C1080 C1090 1.465 . S
C1081 C1080 1.264 . S
C1081 C1083 1.339 . S
C1081 H1108 0.931 . S
C1082 C1083 1.395 . S
C1082 C1084 1.320 . S
C1083 C1081 1.339 . S
C1083 C1082 1.395 . S
C1083 H1109 0.929 . S
C1084 C1082 1.320 . S
C1084 C1085 1.405 . S
C1084 H1110 0.930 . S
C1085 C1080 1.479 . S
C1085 C1084 1.405 . S
C1085 H1111 0.931 . S
U1086 O1087 2.454 . S
U1086 O1088 2.458 . S
U1086 C1089 2.984 . S
U1086 C1090 2.847 . S
U1086 C1103 2.882 . S
U1086 O1104 2.441 . S
U1086 O1105 2.420 . S
U1086 O1106 2.455 . S
U1086 O1107 2.449 . S
O1087 U1086 2.454 . S
O1087 C1089 1.353 . S
O1088 U1086 2.458 . S
O1088 C1089 1.286 . S
C1089 U1086 2.984 . S
C1089 O1087 1.353 . S
C1089 O1088 1.286 . S
C1089 C1091 1.363 . S
C1090 C1080 1.465 . S
C1090 U1086 2.847 . S
C1090 O1104 1.249 . S
C1090 O1105 1.202 . S
C1091 C1089 1.363 . S
C1091 C1093 1.408 . S
C1091 C1096 1.342 . S
C1092 C1093 1.310 . S
C1092 C1095 1.461 . S
C1092 H1112 0.932 . S
C1093 C1091 1.408 . S
C1093 C1092 1.310 . S
C1093 H1113 0.930 . S
C1094 C1095 1.474 . S
C1094 C1096 1.285 . S
C1094 H1114 0.929 . S
C1095 C1092 1.461 . S
C1095 C1094 1.474 . S
C1096 C1091 1.342 . S
C1096 C1094 1.285 . S
C1096 H1115 0.930 . S
C1097 C1100 1.424 . S
C1097 C1102 1.245 . S
C1097 C1103 1.428 . S
C1098 C1101 1.260 . S
C1098 C1102 1.477 . S
C1098 H1116 0.932 . S
C1099 C1100 1.384 . S
C1099 C1101 1.479 . S
C1099 H1117 0.929 . S
C1100 C1097 1.424 . S
C1100 C1099 1.384 . S
C1100 H1118 0.928 . S
C1101 C1098 1.260 . S
C1101 C1099 1.479 . S
C1102 C1097 1.245 . S
C1102 C1098 1.477 . S
C1102 H1119 0.932 . S
C1103 U1086 2.882 . S
C1103 C1097 1.428 . S
C1103 O1106 1.301 . S
C1103 O1107 1.282 . S
O1104 U1086 2.441 . S
O1104 C1090 1.249 . S
O1105 U1086 2.420 . S
O1105 C1090 1.202 . S
O1106 U1086 2.455 . S
O1106 C1103 1.301 . S
O1107 U1086 2.449 . S
O1107 C1103 1.282 . S
H1108 C1081 0.931 . S
H1109 C1083 0.929 . S
H1110 C1084 0.930 . S
H1111 C1085 0.931 . S
H1112 C1092 0.932 . S
H1113 C1093 0.930 . S
H1114 C1094 0.929 . S
H1115 C1096 0.930 . S
H1116 C1098 0.932 . S
H1117 C1099 0.929 . S
H1118 C1100 0.928 . S
H1119 C1102 0.932 . S
C1120 C1121 1.264 . S
C1120 C1125 1.479 . S
C1120 C1130 1.465 . S
C1121 C1120 1.264 . S
C1121 C1123 1.339 . S
C1121 H1148 0.931 . S
C1122 C1123 1.395 . S
C1122 C1124 1.320 . S
C1123 C1121 1.339 . S
C1123 C1122 1.395 . S
C1123 H1149 0.929 . S
C1124 C1122 1.320 . S
C1124 C1125 1.405 . S
C1124 H1150 0.930 . S
C1125 C1120 1.479 . S
C1125 C1124 1.405 . S
C1125 H1151 0.931 . S
U1126 O1127 2.454 . S
U1126 O1128 2.458 . S
U1126 C1129 2.984 . S
U1126 C1130 2.847 . S
U1126 C1143 2.882 . S
U1126 O1144 2.441 . S
U1126 O1145 2.420 . S
U1126 O1146 2.455 . S
U1126 O1147 2.449 . S
O1127 U1126 2.454 . S
O1127 C1129 1.353 . S
O1128 U1126 2.458 . S
O1128 C1129 1.286 . S
C1129 U1126 2.984 . S
C1129 O1127 1.353 . S
C1129 O1128 1.286 . S
C1129 C1131 1.363 . S
C1130 C1120 1.465 . S
C1130 U1126 2.847 . S
C1130 O1144 1.249 . S
C1130 O1145 1.202 . S
C1131 C1129 1.363 . S
C1131 C1133 1.408 . S
C1131 C1136 1.342 . S
C1132 C1133 1.310 . S
C1132 C1135 1.461 . S
C1132 H1152 0.932 . S
C1133 C1131 1.408 . S
C1133 C1132 1.310 . S
C1133 H1153 0.930 . S
C1134 C1135 1.474 . S
C1134 C1136 1.285 . S
C1134 H1154 0.929 . S
C1135 C1132 1.461 . S
C1135 C1134 1.474 . S
C1136 C1131 1.342 . S
C1136 C1134 1.285 . S
C1136 H1155 0.930 . S
C1137 C1140 1.424 . S
C1137 C1142 1.245 . S
C1137 C1143 1.428 . S
C1138 C1141 1.260 . S
C1138 C1142 1.477 . S
C1138 H1156 0.932 . S
C1139 C1140 1.384 . S
C1139 C1141 1.479 . S
C1139 H1157 0.929 . S
C1140 C1137 1.424 . S
C1140 C1139 1.384 . S
C1140 H1158 0.928 . S
C1141 C1138 1.260 . S
C1141 C1139 1.479 . S
C1142 C1137 1.245 . S
C1142 C1138 1.477 . S
C1142 H1159 0.932 . S
C1143 U1126 2.882 . S
C1143 C1137 1.428 . S
C1143 O1146 1.301 . S
C1143 O1147 1.282 . S
O1144 U1126 2.441 . S
O1144 C1130 1.249 . S
O1145 U1126 2.420 . S
O1145 C1130 1.202 . S
O1146 U1126 2.455 . S
O1146 C1143 1.301 . S
O1147 U1126 2.449 . S
O1147 C1143 1.282 . S
H1148 C1121 0.931 . S
H1149 C1123 0.929 . S
H1150 C1124 0.930 . S
H1151 C1125 0.931 . S
H1152 C1132 0.932 . S
H1153 C1133 0.930 . S
H1154 C1134 0.929 . S
H1155 C1136 0.930 . S
H1156 C1138 0.932 . S
H1157 C1139 0.929 . S
H1158 C1140 0.928 . S
H1159 C1142 0.932 . S
C1160 C1161 1.264 . S
C1160 C1165 1.479 . S
C1160 C1170 1.465 . S
C1161 C1160 1.264 . S
C1161 C1163 1.339 . S
C1161 H1188 0.931 . S
C1162 C1163 1.395 . S
C1162 C1164 1.320 . S
C1163 C1161 1.339 . S
C1163 C1162 1.395 . S
C1163 H1189 0.929 . S
C1164 C1162 1.320 . S
C1164 C1165 1.405 . S
C1164 H1190 0.930 . S
C1165 C1160 1.479 . S
C1165 C1164 1.405 . S
C1165 H1191 0.931 . S
U1166 O1167 2.454 . S
U1166 O1168 2.458 . S
U1166 C1169 2.984 . S
U1166 C1170 2.847 . S
U1166 C1183 2.882 . S
U1166 O1184 2.441 . S
U1166 O1185 2.420 . S
U1166 O1186 2.455 . S
U1166 O1187 2.449 . S
O1167 U1166 2.454 . S
O1167 C1169 1.353 . S
O1168 U1166 2.458 . S
O1168 C1169 1.286 . S
C1169 U1166 2.984 . S
C1169 O1167 1.353 . S
C1169 O1168 1.286 . S
C1169 C1171 1.363 . S
C1170 C1160 1.465 . S
C1170 U1166 2.847 . S
C1170 O1184 1.249 . S
C1170 O1185 1.202 . S
C1171 C1169 1.363 . S
C1171 C1173 1.408 . S
C1171 C1176 1.342 . S
C1172 C1173 1.310 . S
C1172 C1175 1.461 . S
C1172 H1192 0.932 . S
C1173 C1171 1.408 . S
C1173 C1172 1.310 . S
C1173 H1193 0.930 . S
C1174 C1175 1.474 . S
C1174 C1176 1.285 . S
C1174 H1194 0.929 . S
C1175 C1172 1.461 . S
C1175 C1174 1.474 . S
C1176 C1171 1.342 . S
C1176 C1174 1.285 . S
C1176 H1195 0.930 . S
C1177 C1180 1.424 . S
C1177 C1182 1.245 . S
C1177 C1183 1.428 . S
C1178 C1181 1.260 . S
C1178 C1182 1.477 . S
C1178 H1196 0.932 . S
C1179 C1180 1.384 . S
C1179 C1181 1.479 . S
C1179 H1197 0.929 . S
C1180 C1177 1.424 . S
C1180 C1179 1.384 . S
C1180 H1198 0.928 . S
C1181 C1178 1.260 . S
C1181 C1179 1.479 . S
C1182 C1177 1.245 . S
C1182 C1178 1.477 . S
C1182 H1199 0.932 . S
C1183 U1166 2.882 . S
C1183 C1177 1.428 . S
C1183 O1186 1.301 . S
C1183 O1187 1.282 . S
O1184 U1166 2.441 . S
O1184 C1170 1.249 . S
O1185 U1166 2.420 . S
O1185 C1170 1.202 . S
O1186 U1166 2.455 . S
O1186 C1183 1.301 . S
O1187 U1166 2.449 . S
O1187 C1183 1.282 . S
H1188 C1161 0.931 . S
H1189 C1163 0.929 . S
H1190 C1164 0.930 . S
H1191 C1165 0.931 . S
H1192 C1172 0.932 . S
H1193 C1173 0.930 . S
H1194 C1174 0.929 . S
H1195 C1176 0.930 . S
H1196 C1178 0.932 . S
H1197 C1179 0.929 . S
H1198 C1180 0.928 . S
H1199 C1182 0.932 . S
C1200 C1201 1.264 . S
C1200 C1205 1.479 . S
C1200 C1210 1.465 . S
C1201 C1200 1.264 . S
C1201 C1203 1.339 . S
C1201 H1228 0.931 . S
C1202 C1203 1.395 . S
C1202 C1204 1.320 . S
C1203 C1201 1.339 . S
C1203 C1202 1.395 . S
C1203 H1229 0.929 . S
C1204 C1202 1.320 . S
C1204 C1205 1.405 . S
C1204 H1230 0.930 . S
C1205 C1200 1.479 . S
C1205 C1204 1.405 . S
C1205 H1231 0.931 . S
U1206 O1207 2.454 . S
U1206 O1208 2.458 . S
U1206 C1209 2.984 . S
U1206 C1210 2.847 . S
U1206 C1223 2.882 . S
U1206 O1224 2.441 . S
U1206 O1225 2.420 . S
U1206 O1226 2.455 . S
U1206 O1227 2.449 . S
O1207 U1206 2.454 . S
O1207 C1209 1.353 . S
O1208 U1206 2.458 . S
O1208 C1209 1.286 . S
C1209 U1206 2.984 . S
C1209 O1207 1.353 . S
C1209 O1208 1.286 . S
C1209 C1211 1.363 . S
C1210 C1200 1.465 . S
C1210 U1206 2.847 . S
C1210 O1224 1.249 . S
C1210 O1225 1.202 . S
C1211 C1209 1.363 . S
C1211 C1213 1.408 . S
C1211 C1216 1.342 . S
C1212 C1213 1.310 . S
C1212 C1215 1.461 . S
C1212 H1232 0.932 . S
C1213 C1211 1.408 . S
C1213 C1212 1.310 . S
C1213 H1233 0.930 . S
C1214 C1215 1.474 . S
C1214 C1216 1.285 . S
C1214 H1234 0.929 . S
C1215 C1212 1.461 . S
C1215 C1214 1.474 . S
C1216 C1211 1.342 . S
C1216 C1214 1.285 . S
C1216 H1235 0.930 . S
C1217 C1220 1.424 . S
C1217 C1222 1.245 . S
C1217 C1223 1.428 . S
C1218 C1221 1.260 . S
C1218 C1222 1.477 . S
C1218 H1236 0.932 . S
C1219 C1220 1.384 . S
C1219 C1221 1.479 . S
C1219 H1237 0.929 . S
C1220 C1217 1.424 . S
C1220 C1219 1.384 . S
C1220 H1238 0.928 . S
C1221 C1218 1.260 . S
C1221 C1219 1.479 . S
C1222 C1217 1.245 . S
C1222 C1218 1.477 . S
C1222 H1239 0.932 . S
C1223 U1206 2.882 . S
C1223 C1217 1.428 . S
C1223 O1226 1.301 . S
C1223 O1227 1.282 . S
O1224 U1206 2.441 . S
O1224 C1210 1.249 . S
O1225 U1206 2.420 . S
O1225 C1210 1.202 . S
O1226 U1206 2.455 . S
O1226 C1223 1.301 . S
O1227 U1206 2.449 . S
O1227 C1223 1.282 . S
H1228 C1201 0.931 . S
H1229 C1203 0.929 . S
H1230 C1204 0.930 . S
H1231 C1205 0.931 . S
H1232 C1212 0.932 . S
H1233 C1213 0.930 . S
H1234 C1214 0.929 . S
H1235 C1216 0.930 . S
H1236 C1218 0.932 . S
H1237 C1219 0.929 . S
H1238 C1220 0.928 . S
H1239 C1222 0.932 . S
C1240 C1241 1.264 . S
C1240 C1245 1.479 . S
C1240 C1250 1.465 . S
C1241 C1240 1.264 . S
C1241 C1243 1.339 . S
C1241 H1268 0.931 . S
C1242 C1243 1.395 . S
C1242 C1244 1.320 . S
C1243 C1241 1.339 . S
C1243 C1242 1.395 . S
C1243 H1269 0.929 . S
C1244 C1242 1.320 . S
C1244 C1245 1.405 . S
C1244 H1270 0.930 . S
C1245 C1240 1.479 . S
C1245 C1244 1.405 . S
C1245 H1271 0.931 . S
U1246 O1247 2.454 . S
U1246 O1248 2.458 . S
U1246 C1249 2.984 . S
U1246 C1250 2.847 . S
U1246 C1263 2.882 . S
U1246 O1264 2.441 . S
U1246 O1265 2.420 . S
U1246 O1266 2.455 . S
U1246 O1267 2.449 . S
O1247 U1246 2.454 . S
O1247 C1249 1.353 . S
O1248 U1246 2.458 . S
O1248 C1249 1.286 . S
C1249 U1246 2.984 . S
C1249 O1247 1.353 . S
C1249 O1248 1.286 . S
C1249 C1251 1.363 . S
C1250 C1240 1.465 . S
C1250 U1246 2.847 . S
C1250 O1264 1.249 . S
C1250 O1265 1.202 . S
C1251 C1249 1.363 . S
C1251 C1253 1.408 . S
C1251 C1256 1.342 . S
C1252 C1253 1.310 . S
C1252 C1255 1.461 . S
C1252 H1272 0.932 . S
C1253 C1251 1.408 . S
C1253 C1252 1.310 . S
C1253 H1273 0.930 . S
C1254 C1255 1.474 . S
C1254 C1256 1.285 . S
C1254 H1274 0.929 . S
C1255 C1252 1.461 . S
C1255 C1254 1.474 . S
C1256 C1251 1.342 . S
C1256 C1254 1.285 . S
C1256 H1275 0.930 . S
C1257 C1260 1.424 . S
C1257 C1262 1.245 . S
C1257 C1263 1.428 . S
C1258 C1261 1.260 . S
C1258 C1262 1.477 . S
C1258 H1276 0.932 . S
C1259 C1260 1.384 . S
C1259 C1261 1.479 . S
C1259 H1277 0.929 . S
C1260 C1257 1.424 . S
C1260 C1259 1.384 . S
C1260 H1278 0.928 . S
C1261 C1258 1.260 . S
C1261 C1259 1.479 . S
C1262 C1257 1.245 . S
C1262 C1258 1.477 . S
C1262 H1279 0.932 . S
C1263 U1246 2.882 . S
C1263 C1257 1.428 . S
C1263 O1266 1.301 . S
C1263 O1267 1.282 . S
O1264 U1246 2.441 . S
O1264 C1250 1.249 . S
O1265 U1246 2.420 . S
O1265 C1250 1.202 . S
O1266 U1246 2.455 . S
O1266 C1263 1.301 . S
O1267 U1246 2.449 . S
O1267 C1263 1.282 . S
H1268 C1241 0.931 . S
H1269 C1243 0.929 . S
H1270 C1244 0.930 . S
H1271 C1245 0.931 . S
H1272 C1252 0.932 . S
H1273 C1253 0.930 . S
H1274 C1254 0.929 . S
H1275 C1256 0.930 . S
H1276 C1258 0.932 . S
H1277 C1259 0.929 . S
H1278 C1260 0.928 . S
H1279 C1262 0.932 . S
Cu1280 N1281 1.999 . S
Cu1280 O1286 1.974 1_554 S
Cu1280 N1291 1.985 . S
Cu1280 O1300 1.959 . S
N1281 Cu1280 1.999 . S
N1281 C1283 1.263 1_554 S
N1281 C1285 1.389 . S
N1282 C1283 1.358 . S
N1282 C1284 1.400 . S
C1283 N1281 1.263 1_556 S
C1283 N1282 1.358 . S
C1283 H1289 0.930 . S
C1284 N1282 1.400 . S
C1284 C1285 1.351 1_556 S
C1284 H1301 0.930 . S
C1285 N1281 1.389 . S
C1285 C1284 1.351 1_554 S
C1285 H1290 0.930 . S
O1286 Cu1280 1.974 1_556 S
O1286 C1296 1.282 . S
C1287 O1288 1.261 . S
C1287 O1300 1.251 . S
O1288 C1287 1.261 . S
H1289 C1283 0.930 . S
H1290 C1285 0.930 . S
N1291 Cu1280 1.985 . S
N1291 C1293 1.335 . S
N1291 C1294 1.390 . S
N1292 C1293 1.345 . S
N1292 C1295 1.336 . S
C1293 N1291 1.335 . S
C1293 N1292 1.345 . S
C1293 H1298 0.930 . S
C1294 N1291 1.390 . S
C1294 C1295 1.346 . S
C1294 H1299 0.930 . S
C1295 N1292 1.336 . S
C1295 C1294 1.346 . S
C1295 H1302 0.929 . S
C1296 O1286 1.282 . S
C1296 O1297 1.216 . S
O1297 C1296 1.216 . S
H1298 C1293 0.930 . S
H1299 C1294 0.930 . S
O1300 Cu1280 1.959 . S
O1300 C1287 1.251 . S
H1301 C1284 0.930 . S
H1302 C1295 0.929 . S
Cu1303 N1304 1.999 . S
Cu1303 O1309 1.974 . S
Cu1303 N1314 1.985 1_554 S
Cu1303 O1323 1.959 1_554 S
N1304 Cu1303 1.999 . S
N1304 C1306 1.263 . S
N1304 C1308 1.389 . S
N1305 C1306 1.358 . S
N1305 C1307 1.400 . S
C1306 N1304 1.263 . S
C1306 N1305 1.358 . S
C1306 H1312 0.930 . S
C1307 N1305 1.400 . S
C1307 C1308 1.351 . S
C1307 H1324 0.930 . S
C1308 N1304 1.389 . S
C1308 C1307 1.351 . S
C1308 H1313 0.930 . S
O1309 Cu1303 1.974 . S
O1309 C1319 1.282 . S
C1310 O1311 1.261 . S
C1310 O1323 1.251 . S
O1311 C1310 1.261 . S
H1312 C1306 0.930 . S
H1313 C1308 0.930 . S
N1314 Cu1303 1.985 1_556 S
N1314 C1316 1.335 . S
N1314 C1317 1.388 1_556 S
N1315 C1316 1.345 . S
N1315 C1318 1.336 . S
C1316 N1314 1.335 . S
C1316 N1315 1.345 . S
C1316 H1321 0.930 . S
C1317 N1314 1.388 1_554 S
C1317 C1318 1.337 1_554 S
C1317 H1322 0.940 . S
C1318 N1315 1.336 . S
C1318 C1317 1.337 1_556 S
C1318 H1325 0.929 . S
C1319 O1309 1.282 . S
C1319 O1320 1.216 . S
O1320 C1319 1.216 . S
H1321 C1316 0.930 . S
H1322 C1317 0.940 . S
O1323 Cu1303 1.959 1_556 S
O1323 C1310 1.251 . S
H1324 C1307 0.930 . S
H1325 C1318 0.929 . S
Cu1326 N1327 1.999 1_554 S
Cu1326 O1332 1.974 1_554 S
Cu1326 N1337 1.985 . S
Cu1326 O1346 1.959 . S
N1327 Cu1326 1.999 1_556 S
N1327 C1329 1.263 . S
N1327 C1331 1.389 . S
N1328 C1329 1.358 . S
N1328 C1330 1.400 . S
C1329 N1327 1.263 . S
C1329 N1328 1.358 . S
C1329 H1335 0.930 . S
C1330 N1328 1.400 . S
C1330 C1331 1.351 . S
C1330 H1347 0.930 . S
C1331 N1327 1.389 . S
C1331 C1330 1.351 . S
C1331 H1336 0.969 . S
O1332 Cu1326 1.974 1_556 S
O1332 C1342 1.282 . S
C1333 O1334 1.261 . S
C1333 O1346 1.251 . S
O1334 C1333 1.261 . S
H1335 C1329 0.930 . S
H1336 C1331 0.969 . S
N1337 Cu1326 1.985 . S
N1337 C1339 1.335 . S
N1337 C1340 1.390 . S
N1338 C1339 1.345 . S
N1338 C1341 1.336 . S
C1339 N1337 1.335 . S
C1339 N1338 1.345 . S
C1339 H1344 0.930 . S
C1340 N1337 1.390 . S
C1340 C1341 1.346 . S
C1340 H1345 0.950 . S
C1341 N1338 1.336 . S
C1341 C1340 1.346 . S
C1341 H1348 0.929 . S
C1342 O1332 1.282 . S
C1342 O1343 1.216 . S
O1343 C1342 1.216 . S
H1344 C1339 0.930 . S
H1345 C1340 0.950 . S
O1346 Cu1326 1.959 . S
O1346 C1333 1.251 . S
H1347 C1330 0.930 . S
H1348 C1341 0.929 . S
Cu1349 N1350 1.999 . S
Cu1349 O1355 1.974 . S
Cu1349 N1360 1.985 1_554 S
Cu1349 O1369 1.959 1_554 S
N1350 Cu1349 1.999 . S
N1350 C1352 1.263 . S
N1350 C1354 1.389 . S
N1351 C1352 1.358 . S
N1351 C1353 1.400 . S
C1352 N1350 1.263 . S
C1352 N1351 1.358 . S
C1352 H1358 0.930 . S
C1353 N1351 1.400 . S
C1353 C1354 1.351 . S
C1353 H1370 0.930 . S
C1354 N1350 1.389 . S
C1354 C1353 1.351 . S
C1354 H1359 0.930 . S
O1355 Cu1349 1.974 . S
O1355 C1365 1.282 . S
C1356 O1357 1.261 . S
C1356 O1369 1.251 . S
O1357 C1356 1.261 . S
H1358 C1352 0.930 . S
H1359 C1354 0.930 . S
N1360 Cu1349 1.985 1_556 S
N1360 C1362 1.335 . S
N1360 C1363 1.390 . S
N1361 C1362 1.345 . S
N1361 C1364 1.336 . S
C1362 N1360 1.335 . S
C1362 N1361 1.345 . S
C1362 H1367 0.930 . S
C1363 N1360 1.390 . S
C1363 C1364 1.346 . S
C1363 H1368 0.930 1_556 S
C1364 N1361 1.336 . S
C1364 C1363 1.346 . S
C1364 H1371 0.929 . S
C1365 O1355 1.282 . S
C1365 O1366 1.216 . S
O1366 C1365 1.216 . S
H1367 C1362 0.930 . S
H1368 C1363 0.930 1_554 S
O1369 Cu1349 1.959 1_556 S
O1369 C1356 1.251 . S
H1370 C1353 0.930 . S
H1371 C1364 0.929 . S
Cu1372 N1373 1.999 . S
Cu1372 O1378 1.974 . S
Cu1372 N1383 1.985 1_455 S
Cu1372 O1392 1.959 1_455 S
N1373 Cu1372 1.999 . S
N1373 C1375 1.263 . S
N1373 C1377 1.389 . S
N1374 C1375 1.358 . S
N1374 C1376 1.400 . S
C1375 N1373 1.263 . S
C1375 N1374 1.358 . S
C1375 H1381 0.930 . S
C1376 N1374 1.400 . S
C1376 C1377 1.351 . S
C1376 H1393 0.930 . S
C1377 N1373 1.389 . S
C1377 C1376 1.351 . S
C1377 H1382 0.930 . S
O1378 Cu1372 1.974 . S
O1378 C1388 1.282 . S
C1379 O1380 1.261 . S
C1379 O1392 1.251 . S
O1380 C1379 1.261 . S
H1381 C1375 0.930 . S
H1382 C1377 0.930 . S
N1383 Cu1372 1.985 1_655 S
N1383 C1385 1.335 . S
N1383 C1386 1.390 1_655 S
N1384 C1385 1.345 . S
N1384 C1387 1.336 . S
C1385 N1383 1.335 . S
C1385 N1384 1.345 . S
C1385 H1390 0.930 . S
C1386 N1383 1.390 1_455 S
C1386 C1387 1.346 1_455 S
C1386 H1391 0.930 . S
C1387 N1384 1.336 . S
C1387 C1386 1.346 1_655 S
C1387 H1394 0.929 . S
C1388 O1378 1.282 . S
C1388 O1389 1.216 . S
O1389 C1388 1.216 . S
H1390 C1385 0.930 . S
H1391 C1386 0.930 . S
O1392 Cu1372 1.959 1_655 S
O1392 C1379 1.251 . S
H1393 C1376 0.930 . S
H1394 C1387 0.929 . S
Cu1395 N1396 1.999 . S
Cu1395 O1401 1.974 . S
Cu1395 N1406 1.985 1_545 S
Cu1395 O1415 1.959 1_545 S
N1396 Cu1395 1.999 . S
N1396 C1398 1.263 . S
N1396 C1400 1.389 . S
N1397 C1398 1.358 . S
N1397 C1399 1.400 . S
C1398 N1396 1.263 . S
C1398 N1397 1.358 . S
C1398 H1404 0.930 . S
C1399 N1397 1.400 . S
C1399 C1400 1.351 . S
C1399 H1416 0.930 . S
C1400 N1396 1.389 . S
C1400 C1399 1.351 . S
C1400 H1405 0.930 . S
O1401 Cu1395 1.974 . S
O1401 C1411 1.282 . S
C1402 O1403 1.261 . S
C1402 O1415 1.251 . S
O1403 C1402 1.261 . S
H1404 C1398 0.930 . S
H1405 C1400 0.930 . S
N1406 Cu1395 1.985 1_565 S
N1406 C1408 1.335 . S
N1406 C1409 1.390 . S
N1407 C1408 1.345 . S
N1407 C1410 1.336 . S
C1408 N1406 1.335 . S
C1408 N1407 1.345 . S
C1408 H1413 0.930 . S
C1409 N1406 1.390 . S
C1409 C1410 1.346 . S
C1409 H1414 0.930 1_565 S
C1410 N1407 1.336 . S
C1410 C1409 1.346 . S
C1410 H1417 0.929 . S
C1411 O1401 1.282 . S
C1411 O1412 1.216 . S
O1412 C1411 1.216 . S
H1413 C1408 0.930 . S
H1414 C1409 0.930 1_545 S
O1415 Cu1395 1.959 1_565 S
O1415 C1402 1.251 . S
H1416 C1399 0.930 . S
H1417 C1410 0.929 . S
Cu1418 N1419 2.004 . S
Cu1418 O1424 1.979 . S
Cu1418 N1429 1.980 1_655 S
Cu1418 O1438 1.953 1_655 S
N1419 Cu1418 2.004 . S
N1419 C1421 1.263 . S
N1419 C1423 1.389 . S
N1420 C1421 1.358 . S
N1420 C1422 1.400 . S
C1421 N1419 1.263 . S
C1421 N1420 1.358 . S
C1421 H1427 0.930 . S
C1422 N1420 1.400 . S
C1422 C1423 1.351 . S
C1422 H1439 0.930 . S
C1423 N1419 1.389 . S
C1423 C1422 1.351 . S
C1423 H1428 0.930 . S
O1424 Cu1418 1.979 . S
O1424 C1434 1.282 . S
C1425 O1426 1.261 . S
C1425 O1438 1.251 . S
O1426 C1425 1.261 . S
H1427 C1421 0.930 . S
H1428 C1423 0.930 . S
N1429 Cu1418 1.980 1_455 S
N1429 C1431 1.335 . S
N1429 C1432 1.390 . S
N1430 C1431 1.345 . S
N1430 C1433 1.336 . S
C1431 N1429 1.335 . S
C1431 N1430 1.345 . S
C1431 H1436 0.930 . S
C1432 N1429 1.390 . S
C1432 C1433 1.346 . S
C1432 H1437 0.930 . S
C1433 N1430 1.336 . S
C1433 C1432 1.346 . S
C1433 H1440 0.929 . S
C1434 O1424 1.282 . S
C1434 O1435 1.216 . S
O1435 C1434 1.216 . S
H1436 C1431 0.930 . S
H1437 C1432 0.930 . S
O1438 Cu1418 1.953 1_455 S
O1438 C1425 1.251 . S
H1439 C1422 0.930 . S
H1440 C1433 0.929 . S
Cu1441 N1442 1.993 1_565 S
Cu1441 O1447 1.965 1_565 S
Cu1441 N1452 1.991 . S
Cu1441 O1461 1.967 . S
N1442 Cu1441 1.993 1_545 S
N1442 C1444 1.263 . S
N1442 C1446 1.389 . S
N1443 C1444 1.358 . S
N1443 C1445 1.400 . S
C1444 N1442 1.263 . S
C1444 N1443 1.358 . S
C1444 H1450 0.930 . S
C1445 N1443 1.400 . S
C1445 C1446 1.351 . S
C1445 H1462 0.930 . S
C1446 N1442 1.389 . S
C1446 C1445 1.351 . S
C1446 H1451 0.930 . S
O1447 Cu1441 1.965 1_545 S
O1447 C1457 1.282 . S
C1448 O1449 1.261 . S
C1448 O1461 1.251 . S
O1449 C1448 1.261 . S
H1450 C1444 0.930 . S
H1451 C1446 0.930 . S
N1452 Cu1441 1.991 . S
N1452 C1454 1.335 . S
N1452 C1455 1.390 . S
N1453 C1454 1.345 . S
N1453 C1456 1.336 . S
C1454 N1452 1.335 . S
C1454 N1453 1.345 . S
C1454 H1459 0.930 . S
C1455 N1452 1.390 . S
C1455 C1456 1.346 . S
C1455 H1460 0.930 . S
C1456 N1453 1.336 . S
C1456 C1455 1.346 . S
C1456 H1463 0.929 . S
C1457 O1447 1.282 . S
C1457 O1458 1.216 . S
O1458 C1457 1.216 . S
H1459 C1454 0.930 . S
H1460 C1455 0.930 . S
O1461 Cu1441 1.967 . S
O1461 C1448 1.251 . S
H1462 C1445 0.930 . S
H1463 C1456 0.929 . S
Cu1464 N1465 1.999 . S
Cu1464 O1470 1.974 . S
Cu1464 N1475 1.985 1_455 S
Cu1464 O1484 1.959 1_455 S
N1465 Cu1464 1.999 . S
N1465 C1467 1.263 . S
N1465 C1469 1.389 . S
N1466 C1467 1.358 . S
N1466 C1468 1.400 . S
C1467 N1465 1.263 . S
C1467 N1466 1.358 . S
C1467 H1473 0.930 . S
C1468 N1466 1.400 . S
C1468 C1469 1.351 . S
C1468 H1485 0.930 . S
C1469 N1465 1.389 . S
C1469 C1468 1.351 . S
C1469 H1474 0.930 . S
O1470 Cu1464 1.974 . S
O1470 C1480 1.282 . S
C1471 O1472 1.261 . S
C1471 O1484 1.251 . S
O1472 C1471 1.261 . S
H1473 C1467 0.930 . S
H1474 C1469 0.930 . S
N1475 Cu1464 1.985 1_655 S
N1475 C1477 1.335 . S
N1475 C1478 1.390 1_655 S
N1476 C1477 1.345 . S
N1476 C1479 1.336 . S
C1477 N1475 1.335 . S
C1477 N1476 1.345 . S
C1477 H1482 0.930 . S
C1478 N1475 1.390 1_455 S
C1478 C1479 1.346 1_455 S
C1478 H1483 0.930 . S
C1479 N1476 1.336 . S
C1479 C1478 1.346 1_655 S
C1479 H1486 0.929 . S
C1480 O1470 1.282 . S
C1480 O1481 1.216 . S
O1481 C1480 1.216 . S
H1482 C1477 0.930 . S
H1483 C1478 0.930 . S
O1484 Cu1464 1.959 1_655 S
O1484 C1471 1.251 . S
H1485 C1468 0.930 . S
H1486 C1479 0.929 . S
Cu1487 N1488 1.999 . S
Cu1487 O1493 1.974 . S
Cu1487 N1498 1.985 1_545 S
Cu1487 O1507 1.959 1_545 S
N1488 Cu1487 1.999 . S
N1488 C1490 1.263 . S
N1488 C1492 1.389 . S
N1489 C1490 1.358 . S
N1489 C1491 1.400 . S
C1490 N1488 1.263 . S
C1490 N1489 1.358 . S
C1490 H1496 0.930 . S
C1491 N1489 1.400 . S
C1491 C1492 1.351 . S
C1491 H1508 0.930 . S
C1492 N1488 1.389 . S
C1492 C1491 1.351 . S
C1492 H1497 0.930 . S
O1493 Cu1487 1.974 . S
O1493 C1503 1.282 . S
C1494 O1495 1.261 . S
C1494 O1507 1.251 . S
O1495 C1494 1.261 . S
H1496 C1490 0.930 . S
H1497 C1492 0.930 . S
N1498 Cu1487 1.985 1_565 S
N1498 C1500 1.335 . S
N1498 C1501 1.395 . S
N1499 C1500 1.345 . S
N1499 C1502 1.336 . S
C1500 N1498 1.335 . S
C1500 N1499 1.345 . S
C1500 H1505 0.930 . S
C1501 N1498 1.395 . S
C1501 C1502 1.370 . S
C1501 H1506 0.906 1_565 S
C1502 N1499 1.336 . S
C1502 C1501 1.370 . S
C1502 H1509 0.929 . S
C1503 O1493 1.282 . S
C1503 O1504 1.216 . S
O1504 C1503 1.216 . S
H1505 C1500 0.930 . S
H1506 C1501 0.906 1_545 S
O1507 Cu1487 1.959 1_565 S
O1507 C1494 1.251 . S
H1508 C1491 0.930 . S
H1509 C1502 0.929 . S
Cu1510 N1511 1.999 . S
Cu1510 O1516 1.974 . S
Cu1510 N1521 1.985 . S
Cu1510 O1530 1.959 . S
N1511 Cu1510 1.999 . S
N1511 C1513 1.263 1_455 S
N1511 C1515 1.389 . S
N1512 C1513 1.358 . S
N1512 C1514 1.400 . S
C1513 N1511 1.263 1_655 S
C1513 N1512 1.358 . S
C1513 H1519 0.930 . S
C1514 N1512 1.400 . S
C1514 C1515 1.351 1_655 S
C1514 H1531 0.930 . S
C1515 N1511 1.389 . S
C1515 C1514 1.351 1_455 S
C1515 H1520 0.930 . S
O1516 Cu1510 1.974 . S
O1516 C1526 1.282 1_455 S
C1517 O1518 1.261 . S
C1517 O1530 1.251 . S
O1518 C1517 1.261 . S
H1519 C1513 0.930 . S
H1520 C1515 0.930 . S
N1521 Cu1510 1.985 . S
N1521 C1523 1.335 . S
N1521 C1524 1.390 . S
N1522 C1523 1.345 . S
N1522 C1525 1.336 . S
C1523 N1521 1.335 . S
C1523 N1522 1.345 . S
C1523 H1528 0.930 . S
C1524 N1521 1.390 . S
C1524 C1525 1.346 . S
C1524 H1529 0.930 . S
C1525 N1522 1.336 . S
C1525 C1524 1.346 . S
C1525 H1532 0.929 . S
C1526 O1516 1.282 1_655 S
C1526 O1527 1.216 1_655 S
O1527 C1526 1.216 1_455 S
H1528 C1523 0.930 . S
H1529 C1524 0.930 . S
O1530 Cu1510 1.959 . S
O1530 C1517 1.251 . S
H1531 C1514 0.930 . S
H1532 C1525 0.929 . S
Cu1533 N1534 1.999 . S
Cu1533 O1539 1.974 . S
Cu1533 N1544 1.985 . S
Cu1533 O1553 1.959 1_545 S
N1534 Cu1533 1.999 . S
N1534 C1536 1.263 . S
N1534 C1538 1.389 . S
N1535 C1536 1.358 . S
N1535 C1537 1.400 . S
C1536 N1534 1.263 . S
C1536 N1535 1.358 . S
C1536 H1542 0.930 . S
C1537 N1535 1.400 . S
C1537 C1538 1.351 . S
C1537 H1554 0.930 . S
C1538 N1534 1.389 . S
C1538 C1537 1.351 . S
C1538 H1543 0.930 . S
O1539 Cu1533 1.974 . S
O1539 C1549 1.282 . S
C1540 O1541 1.255 1_565 S
C1540 O1553 1.251 . S
O1541 C1540 1.255 1_545 S
H1542 C1536 0.930 . S
H1543 C1538 0.930 . S
N1544 Cu1533 1.985 . S
N1544 C1546 1.335 1_545 S
N1544 C1547 1.390 . S
N1545 C1546 1.345 . S
N1545 C1548 1.336 . S
C1546 N1544 1.335 1_565 S
C1546 N1545 1.345 . S
C1546 H1551 0.930 . S
C1547 N1544 1.390 . S
C1547 C1548 1.346 1_545 S
C1547 H1552 0.930 . S
C1548 N1545 1.336 . S
C1548 C1547 1.346 1_565 S
C1548 H1555 0.929 . S
C1549 O1539 1.282 . S
C1549 O1550 1.216 . S
O1550 C1549 1.216 . S
H1551 C1546 0.930 . S
H1552 C1547 0.930 . S
O1553 Cu1533 1.959 1_565 S
O1553 C1540 1.251 . S
H1554 C1537 0.930 . S
H1555 C1548 0.929 . S
Cu1556 N1557 1.999 . S
Cu1556 O1562 1.974 . S
Cu1556 N1567 1.985 . S
Cu1556 O1576 1.959 . S
N1557 Cu1556 1.999 . S
N1557 C1559 1.263 . S
N1557 C1561 1.389 . S
N1558 C1559 1.358 . S
N1558 C1560 1.400 . S
C1559 N1557 1.263 . S
C1559 N1558 1.358 . S
C1559 H1565 0.930 . S
C1560 N1558 1.400 . S
C1560 C1561 1.351 . S
C1560 H1577 0.930 . S
C1561 N1557 1.389 . S
C1561 C1560 1.351 . S
C1561 H1566 0.930 . S
O1562 Cu1556 1.974 . S
O1562 C1572 1.282 . S
C1563 O1564 1.261 . S
C1563 O1576 1.251 . S
O1564 C1563 1.261 . S
H1565 C1559 0.930 . S
H1566 C1561 0.930 . S
N1567 Cu1556 1.985 . S
N1567 C1569 1.335 . S
N1567 C1570 1.390 . S
N1568 C1569 1.345 . S
N1568 C1571 1.336 . S
C1569 N1567 1.335 . S
C1569 N1568 1.345 . S
C1569 H1574 0.930 . S
C1570 N1567 1.390 . S
C1570 C1571 1.346 . S
C1570 H1575 0.930 . S
C1571 N1568 1.336 . S
C1571 C1570 1.346 . S
C1571 H1578 0.929 . S
C1572 O1562 1.282 . S
C1572 O1573 1.216 . S
O1573 C1572 1.216 . S
H1574 C1569 0.930 . S
H1575 C1570 0.930 . S
O1576 Cu1556 1.959 . S
O1576 C1563 1.251 . S
H1577 C1560 0.930 . S
H1578 C1571 0.929 . S
Cu1579 N1580 1.999 . S
Cu1579 O1585 1.974 . S
Cu1579 N1590 1.985 . S
Cu1579 O1599 1.959 . S
N1580 Cu1579 1.999 . S
N1580 C1582 1.263 . S
N1580 C1584 1.389 . S
N1581 C1582 1.358 . S
N1581 C1583 1.400 . S
C1582 N1580 1.263 . S
C1582 N1581 1.358 . S
C1582 H1588 0.930 . S
C1583 N1581 1.400 . S
C1583 C1584 1.351 . S
C1583 H1600 0.930 . S
C1584 N1580 1.389 . S
C1584 C1583 1.351 . S
C1584 H1589 0.930 . S
O1585 Cu1579 1.974 . S
O1585 C1595 1.282 . S
C1586 O1587 1.261 . S
C1586 O1599 1.251 . S
O1587 C1586 1.261 . S
H1588 C1582 0.930 . S
H1589 C1584 0.930 . S
N1590 Cu1579 1.985 . S
N1590 C1592 1.335 . S
N1590 C1593 1.390 . S
N1591 C1592 1.345 . S
N1591 C1594 1.336 . S
C1592 N1590 1.335 . S
C1592 N1591 1.345 . S
C1592 H1597 0.930 . S
C1593 N1590 1.390 . S
C1593 C1594 1.346 . S
C1593 H1598 0.930 . S
C1594 N1591 1.336 . S
C1594 C1593 1.346 . S
C1594 H1601 0.929 . S
C1595 O1585 1.282 . S
C1595 O1596 1.216 . S
O1596 C1595 1.216 . S
H1597 C1592 0.930 . S
H1598 C1593 0.930 . S
O1599 Cu1579 1.959 . S
O1599 C1586 1.251 . S
H1600 C1583 0.930 . S
H1601 C1594 0.929 . S
Cu1602 N1603 1.999 . S
Cu1602 O1608 1.974 . S
Cu1602 N1613 1.985 . S
Cu1602 O1622 1.959 . S
N1603 Cu1602 1.999 . S
N1603 C1605 1.263 . S
N1603 C1607 1.389 . S
N1604 C1605 1.358 . S
N1604 C1606 1.400 . S
C1605 N1603 1.263 . S
C1605 N1604 1.358 . S
C1605 H1611 0.930 . S
C1606 N1604 1.400 . S
C1606 C1607 1.351 . S
C1606 H1623 0.930 . S
C1607 N1603 1.389 . S
C1607 C1606 1.351 . S
C1607 H1612 0.930 . S
O1608 Cu1602 1.974 . S
O1608 C1618 1.282 . S
C1609 O1610 1.261 . S
C1609 O1622 1.251 . S
O1610 C1609 1.261 . S
H1611 C1605 0.930 . S
H1612 C1607 0.930 . S
N1613 Cu1602 1.985 . S
N1613 C1615 1.335 . S
N1613 C1616 1.390 . S
N1614 C1615 1.345 . S
N1614 C1617 1.336 . S
C1615 N1613 1.335 . S
C1615 N1614 1.345 . S
C1615 H1620 0.930 . S
C1616 N1613 1.390 . S
C1616 C1617 1.346 . S
C1616 H1621 0.930 . S
C1617 N1614 1.336 . S
C1617 C1616 1.346 . S
C1617 H1624 0.929 . S
C1618 O1608 1.282 . S
C1618 O1619 1.216 . S
O1619 C1618 1.216 . S
H1620 C1615 0.930 . S
H1621 C1616 0.930 . S
O1622 Cu1602 1.959 . S
O1622 C1609 1.251 . S
H1623 C1606 0.930 . S
H1624 C1617 0.929 . S
Cu1625 N1626 1.999 . S
Cu1625 O1631 1.974 . S
Cu1625 N1636 1.985 . S
Cu1625 O1645 1.959 . S
N1626 Cu1625 1.999 . S
N1626 C1628 1.263 . S
N1626 C1630 1.389 . S
N1627 C1628 1.358 . S
N1627 C1629 1.400 . S
C1628 N1626 1.263 . S
C1628 N1627 1.358 . S
C1628 H1634 0.930 . S
C1629 N1627 1.400 . S
C1629 C1630 1.351 . S
C1629 H1646 0.930 . S
C1630 N1626 1.389 . S
C1630 C1629 1.351 . S
C1630 H1635 0.930 . S
O1631 Cu1625 1.974 . S
O1631 C1641 1.282 . S
C1632 O1633 1.261 . S
C1632 O1645 1.251 . S
O1633 C1632 1.261 . S
H1634 C1628 0.930 . S
H1635 C1630 0.930 . S
N1636 Cu1625 1.985 . S
N1636 C1638 1.335 . S
N1636 C1639 1.390 . S
N1637 C1638 1.345 . S
N1637 C1640 1.336 . S
C1638 N1636 1.335 . S
C1638 N1637 1.345 . S
C1638 H1643 0.930 . S
C1639 N1636 1.390 . S
C1639 C1640 1.346 . S
C1639 H1644 0.930 . S
C1640 N1637 1.336 . S
C1640 C1639 1.346 . S
C1640 H1647 0.929 . S
C1641 O1631 1.282 . S
C1641 O1642 1.216 . S
O1642 C1641 1.216 . S
H1643 C1638 0.930 . S
H1644 C1639 0.930 . S
O1645 Cu1625 1.959 . S
O1645 C1632 1.251 . S
H1646 C1629 0.930 . S
H1647 C1640 0.929 . S
Cu1648 N1649 1.999 . S
Cu1648 O1654 1.974 . S
Cu1648 N1659 1.985 . S
Cu1648 O1668 1.959 . S
N1649 Cu1648 1.999 . S
N1649 C1651 1.263 . S
N1649 C1653 1.389 . S
N1650 C1651 1.358 . S
N1650 C1652 1.400 . S
C1651 N1649 1.263 . S
C1651 N1650 1.358 . S
C1651 H1657 0.930 . S
C1652 N1650 1.400 . S
C1652 C1653 1.351 . S
C1652 H1669 0.930 . S
C1653 N1649 1.389 . S
C1653 C1652 1.351 . S
C1653 H1658 0.930 . S
O1654 Cu1648 1.974 . S
O1654 C1664 1.282 . S
C1655 O1656 1.261 . S
C1655 O1668 1.251 . S
O1656 C1655 1.261 . S
H1657 C1651 0.930 . S
H1658 C1653 0.930 . S
N1659 Cu1648 1.985 . S
N1659 C1661 1.335 . S
N1659 C1662 1.390 . S
N1660 C1661 1.345 . S
N1660 C1663 1.336 . S
C1661 N1659 1.335 . S
C1661 N1660 1.345 . S
C1661 H1666 0.930 . S
C1662 N1659 1.390 . S
C1662 C1663 1.346 . S
C1662 H1667 0.930 . S
C1663 N1660 1.336 . S
C1663 C1662 1.346 . S
C1663 H1670 0.929 . S
C1664 O1654 1.282 . S
C1664 O1665 1.216 . S
O1665 C1664 1.216 . S
H1666 C1661 0.930 . S
H1667 C1662 0.930 . S
O1668 Cu1648 1.959 . S
O1668 C1655 1.251 . S
H1669 C1652 0.930 . S
H1670 C1663 0.929 . S
Cu1671 N1672 1.999 . S
Cu1671 O1677 1.974 . S
Cu1671 N1682 1.985 . S
Cu1671 O1691 1.959 . S
N1672 Cu1671 1.999 . S
N1672 C1674 1.263 . S
N1672 C1676 1.389 . S
N1673 C1674 1.358 . S
N1673 C1675 1.400 . S
C1674 N1672 1.263 . S
C1674 N1673 1.358 . S
C1674 H1680 0.930 . S
C1675 N1673 1.400 . S
C1675 C1676 1.351 . S
C1675 H1692 0.930 . S
C1676 N1672 1.389 . S
C1676 C1675 1.351 . S
C1676 H1681 0.930 . S
O1677 Cu1671 1.974 . S
O1677 C1687 1.282 . S
C1678 O1679 1.261 . S
C1678 O1691 1.251 . S
O1679 C1678 1.261 . S
H1680 C1674 0.930 . S
H1681 C1676 0.930 . S
N1682 Cu1671 1.985 . S
N1682 C1684 1.335 . S
N1682 C1685 1.390 . S
N1683 C1684 1.345 . S
N1683 C1686 1.336 . S
C1684 N1682 1.335 . S
C1684 N1683 1.345 . S
C1684 H1689 0.930 . S
C1685 N1682 1.390 . S
C1685 C1686 1.346 . S
C1685 H1690 0.930 . S
C1686 N1683 1.336 . S
C1686 C1685 1.346 . S
C1686 H1693 0.929 . S
C1687 O1677 1.282 . S
C1687 O1688 1.216 . S
O1688 C1687 1.216 . S
H1689 C1684 0.930 . S
H1690 C1685 0.930 . S
O1691 Cu1671 1.959 . S
O1691 C1678 1.251 . S
H1692 C1675 0.930 . S
H1693 C1686 0.929 . S
Cu1694 N1695 1.999 . S
Cu1694 O1700 1.974 . S
Cu1694 N1705 1.985 . S
Cu1694 O1714 1.959 . S
N1695 Cu1694 1.999 . S
N1695 C1697 1.263 . S
N1695 C1699 1.389 . S
N1696 C1697 1.358 . S
N1696 C1698 1.400 . S
C1697 N1695 1.263 . S
C1697 N1696 1.358 . S
C1697 H1703 0.930 . S
C1698 N1696 1.400 . S
C1698 C1699 1.351 . S
C1698 H1715 0.930 . S
C1699 N1695 1.389 . S
C1699 C1698 1.351 . S
C1699 H1704 0.930 . S
O1700 Cu1694 1.974 . S
O1700 C1710 1.282 . S
C1701 O1702 1.261 . S
C1701 O1714 1.251 . S
O1702 C1701 1.261 . S
H1703 C1697 0.930 . S
H1704 C1699 0.930 . S
N1705 Cu1694 1.985 . S
N1705 C1707 1.335 . S
N1705 C1708 1.390 . S
N1706 C1707 1.345 . S
N1706 C1709 1.336 . S
C1707 N1705 1.335 . S
C1707 N1706 1.345 . S
C1707 H1712 0.930 . S
C1708 N1705 1.390 . S
C1708 C1709 1.346 . S
C1708 H1713 0.930 . S
C1709 N1706 1.336 . S
C1709 C1708 1.346 . S
C1709 H1716 0.929 . S
C1710 O1700 1.282 . S
C1710 O1711 1.216 . S
O1711 C1710 1.216 . S
H1712 C1707 0.930 . S
H1713 C1708 0.930 . S
O1714 Cu1694 1.959 . S
O1714 C1701 1.251 . S
H1715 C1698 0.930 . S
H1716 C1709 0.929 . S
Cu1717 N1718 1.999 . S
Cu1717 O1723 1.974 . S
Cu1717 N1728 1.985 . S
Cu1717 O1737 1.959 . S
N1718 Cu1717 1.999 . S
N1718 C1720 1.263 . S
N1718 C1722 1.389 . S
N1719 C1720 1.358 . S
N1719 C1721 1.400 . S
C1720 N1718 1.263 . S
C1720 N1719 1.358 . S
C1720 H1726 0.930 . S
C1721 N1719 1.400 . S
C1721 C1722 1.351 . S
C1721 H1738 0.930 . S
C1722 N1718 1.389 . S
C1722 C1721 1.351 . S
C1722 H1727 0.930 . S
O1723 Cu1717 1.974 . S
O1723 C1733 1.282 . S
C1724 O1725 1.261 . S
C1724 O1737 1.251 . S
O1725 C1724 1.261 . S
H1726 C1720 0.930 . S
H1727 C1722 0.930 . S
N1728 Cu1717 1.985 . S
N1728 C1730 1.335 . S
N1728 C1731 1.390 . S
N1729 C1730 1.345 . S
N1729 C1732 1.336 . S
C1730 N1728 1.335 . S
C1730 N1729 1.345 . S
C1730 H1735 0.930 . S
C1731 N1728 1.390 . S
C1731 C1732 1.346 . S
C1731 H1736 0.930 . S
C1732 N1729 1.336 . S
C1732 C1731 1.346 . S
C1732 H1739 0.929 . S
C1733 O1723 1.282 . S
C1733 O1734 1.216 . S
O1734 C1733 1.216 . S
H1735 C1730 0.930 . S
H1736 C1731 0.930 . S
O1737 Cu1717 1.959 . S
O1737 C1724 1.251 . S
H1738 C1721 0.930 . S
H1739 C1732 0.929 . S
Cu1740 N1741 1.999 . S
Cu1740 O1746 1.974 . S
Cu1740 N1751 1.985 . S
Cu1740 O1760 1.959 . S
N1741 Cu1740 1.999 . S
N1741 C1743 1.263 . S
N1741 C1745 1.389 . S
N1742 C1743 1.358 . S
N1742 C1744 1.400 . S
C1743 N1741 1.263 . S
C1743 N1742 1.358 . S
C1743 H1749 0.930 . S
C1744 N1742 1.400 . S
C1744 C1745 1.351 . S
C1744 H1761 0.930 . S
C1745 N1741 1.389 . S
C1745 C1744 1.351 . S
C1745 H1750 0.930 . S
O1746 Cu1740 1.974 . S
O1746 C1756 1.282 . S
C1747 O1748 1.261 . S
C1747 O1760 1.251 . S
O1748 C1747 1.261 . S
H1749 C1743 0.930 . S
H1750 C1745 0.930 . S
N1751 Cu1740 1.985 . S
N1751 C1753 1.335 . S
N1751 C1754 1.390 . S
N1752 C1753 1.345 . S
N1752 C1755 1.336 . S
C1753 N1751 1.335 . S
C1753 N1752 1.345 . S
C1753 H1758 0.930 . S
C1754 N1751 1.390 . S
C1754 C1755 1.346 . S
C1754 H1759 0.930 . S
C1755 N1752 1.336 . S
C1755 C1754 1.346 . S
C1755 H1762 0.929 . S
C1756 O1746 1.282 . S
C1756 O1757 1.216 . S
O1757 C1756 1.216 . S
H1758 C1753 0.930 . S
H1759 C1754 0.930 . S
O1760 Cu1740 1.959 . S
O1760 C1747 1.251 . S
H1761 C1744 0.930 . S
H1762 C1755 0.929 . S
Cu1763 N1764 1.999 . S
Cu1763 O1769 1.974 . S
Cu1763 N1774 1.985 . S
Cu1763 O1783 1.959 . S
N1764 Cu1763 1.999 . S
N1764 C1766 1.263 . S
N1764 C1768 1.389 . S
N1765 C1766 1.358 . S
N1765 C1767 1.400 . S
C1766 N1764 1.263 . S
C1766 N1765 1.358 . S
C1766 H1772 0.930 . S
C1767 N1765 1.400 . S
C1767 C1768 1.351 . S
C1767 H1784 0.930 . S
C1768 N1764 1.389 . S
C1768 C1767 1.351 . S
C1768 H1773 0.930 . S
O1769 Cu1763 1.974 . S
O1769 C1779 1.282 . S
C1770 O1771 1.261 . S
C1770 O1783 1.251 . S
O1771 C1770 1.261 . S
H1772 C1766 0.930 . S
H1773 C1768 0.930 . S
N1774 Cu1763 1.985 . S
N1774 C1776 1.335 . S
N1774 C1777 1.390 . S
N1775 C1776 1.345 . S
N1775 C1778 1.336 . S
C1776 N1774 1.335 . S
C1776 N1775 1.345 . S
C1776 H1781 0.930 . S
C1777 N1774 1.390 . S
C1777 C1778 1.346 . S
C1777 H1782 0.930 . S
C1778 N1775 1.336 . S
C1778 C1777 1.346 . S
C1778 H1785 0.929 . S
C1779 O1769 1.282 . S
C1779 O1780 1.216 . S
O1780 C1779 1.216 . S
H1781 C1776 0.930 . S
H1782 C1777 0.930 . S
O1783 Cu1763 1.959 . S
O1783 C1770 1.251 . S
H1784 C1767 0.930 . S
H1785 C1778 0.929 . S
Cu1786 N1787 1.999 . S
Cu1786 O1792 1.974 . S
Cu1786 N1797 1.985 . S
Cu1786 O1806 1.959 . S
N1787 Cu1786 1.999 . S
N1787 C1789 1.263 . S
N1787 C1791 1.389 . S
N1788 C1789 1.358 . S
N1788 C1790 1.400 . S
C1789 N1787 1.263 . S
C1789 N1788 1.358 . S
C1789 H1795 0.930 . S
C1790 N1788 1.400 . S
C1790 C1791 1.351 . S
C1790 H1807 0.930 . S
C1791 N1787 1.389 . S
C1791 C1790 1.351 . S
C1791 H1796 0.930 . S
O1792 Cu1786 1.974 . S
O1792 C1802 1.282 . S
C1793 O1794 1.261 . S
C1793 O1806 1.251 . S
O1794 C1793 1.261 . S
H1795 C1789 0.930 . S
H1796 C1791 0.930 . S
N1797 Cu1786 1.985 . S
N1797 C1799 1.335 . S
N1797 C1800 1.390 . S
N1798 C1799 1.345 . S
N1798 C1801 1.336 . S
C1799 N1797 1.335 . S
C1799 N1798 1.345 . S
C1799 H1804 0.930 . S
C1800 N1797 1.390 . S
C1800 C1801 1.346 . S
C1800 H1805 0.930 . S
C1801 N1798 1.336 . S
C1801 C1800 1.346 . S
C1801 H1808 0.929 . S
C1802 O1792 1.282 . S
C1802 O1803 1.216 . S
O1803 C1802 1.216 . S
H1804 C1799 0.930 . S
H1805 C1800 0.930 . S
O1806 Cu1786 1.959 . S
O1806 C1793 1.251 . S
H1807 C1790 0.930 . S
H1808 C1801 0.929 . S
Cu1809 N1810 1.999 . S
Cu1809 O1815 1.974 . S
Cu1809 N1820 1.985 . S
Cu1809 O1829 1.959 . S
N1810 Cu1809 1.999 . S
N1810 C1812 1.263 . S
N1810 C1814 1.389 . S
N1811 C1812 1.358 . S
N1811 C1813 1.400 . S
C1812 N1810 1.263 . S
C1812 N1811 1.358 . S
C1812 H1818 0.930 . S
C1813 N1811 1.400 . S
C1813 C1814 1.351 . S
C1813 H1830 0.930 . S
C1814 N1810 1.389 . S
C1814 C1813 1.351 . S
C1814 H1819 0.930 . S
O1815 Cu1809 1.974 . S
O1815 C1825 1.282 . S
C1816 O1817 1.261 . S
C1816 O1829 1.251 . S
O1817 C1816 1.261 . S
H1818 C1812 0.930 . S
H1819 C1814 0.930 . S
N1820 Cu1809 1.985 . S
N1820 C1822 1.335 . S
N1820 C1823 1.390 . S
N1821 C1822 1.345 . S
N1821 C1824 1.336 . S
C1822 N1820 1.335 . S
C1822 N1821 1.345 . S
C1822 H1827 0.930 . S
C1823 N1820 1.390 . S
C1823 C1824 1.346 . S
C1823 H1828 0.930 . S
C1824 N1821 1.336 . S
C1824 C1823 1.346 . S
C1824 H1831 0.929 . S
C1825 O1815 1.282 . S
C1825 O1826 1.216 . S
O1826 C1825 1.216 . S
H1827 C1822 0.930 . S
H1828 C1823 0.930 . S
O1829 Cu1809 1.959 . S
O1829 C1816 1.251 . S
H1830 C1813 0.930 . S
H1831 C1824 0.929 . S
C1832 C1833 1.363 . S
C1832 C1838 1.379 . S
C1832 N1840 1.356 . S
C1833 C1832 1.363 . S
C1833 C1839 1.363 . S
C1834 C1835 1.363 . S
C1834 C1839 1.379 . S
C1834 N1841 1.356 . S
C1835 C1834 1.363 . S
C1835 C1838 1.363 . S
N1836 C1838 1.356 . S
N1836 H1848 0.984 . S
N1836 H1849 0.985 . S
N1837 C1839 1.356 . S
N1837 H1842 0.984 . S
N1837 H1843 0.985 . S
C1838 C1832 1.379 . S
C1838 C1835 1.363 . S
C1838 N1836 1.356 . S
C1839 C1833 1.363 . S
C1839 C1834 1.379 . S
C1839 N1837 1.356 . S
N1840 C1832 1.356 . S
N1840 H1846 0.984 . S
N1840 H1847 0.984 . S
N1841 C1834 1.356 . S
N1841 H1844 0.984 . S
N1841 H1845 0.985 . S
H1842 N1837 0.984 . S
H1843 N1837 0.985 . S
H1844 N1841 0.984 . S
H1845 N1841 0.985 . S
H1846 N1840 0.984 . S
H1847 N1840 0.984 . S
H1848 N1836 0.984 . S
H1849 N1836 0.985 . S
C1850 C1851 1.363 . S
C1850 C1856 1.379 . S
C1850 N1858 1.356 . S
C1851 C1850 1.363 . S
C1851 C1857 1.363 . S
C1852 C1853 1.363 . S
C1852 C1857 1.379 . S
C1852 N1859 1.356 . S
C1853 C1852 1.363 . S
C1853 C1856 1.363 . S
N1854 C1856 1.356 . S
N1854 H1866 0.984 . S
N1854 H1867 0.985 . S
N1855 C1857 1.356 . S
N1855 H1860 0.984 . S
N1855 H1861 0.985 . S
C1856 C1850 1.379 . S
C1856 C1853 1.363 . S
C1856 N1854 1.356 . S
C1857 C1851 1.363 . S
C1857 C1852 1.379 . S
C1857 N1855 1.356 . S
N1858 C1850 1.356 . S
N1858 H1864 0.984 . S
N1858 H1865 0.984 . S
N1859 C1852 1.356 . S
N1859 H1862 0.984 . S
N1859 H1863 0.985 . S
H1860 N1855 0.984 . S
H1861 N1855 0.985 . S
H1862 N1859 0.984 . S
H1863 N1859 0.985 . S
H1864 N1858 0.984 . S
H1865 N1858 0.984 . S
H1866 N1854 0.984 . S
H1867 N1854 0.985 . S
C1868 C1869 1.363 . S
C1868 C1874 1.379 . S
C1868 N1876 1.356 . S
C1869 C1868 1.363 . S
C1869 C1875 1.363 . S
C1870 C1871 1.363 . S
C1870 C1875 1.379 . S
C1870 N1877 1.356 . S
C1871 C1870 1.363 . S
C1871 C1874 1.363 . S
N1872 C1874 1.356 . S
N1872 H1884 0.984 . S
N1872 H1885 0.985 . S
N1873 C1875 1.356 . S
N1873 H1878 0.984 . S
N1873 H1879 0.985 . S
C1874 C1868 1.379 . S
C1874 C1871 1.363 . S
C1874 N1872 1.356 . S
C1875 C1869 1.363 . S
C1875 C1870 1.379 . S
C1875 N1873 1.356 . S
N1876 C1868 1.356 . S
N1876 H1882 0.984 . S
N1876 H1883 0.984 . S
N1877 C1870 1.356 . S
N1877 H1880 0.984 . S
N1877 H1881 0.985 . S
H1878 N1873 0.984 . S
H1879 N1873 0.985 . S
H1880 N1877 0.984 . S
H1881 N1877 0.985 . S
H1882 N1876 0.984 . S
H1883 N1876 0.984 . S
H1884 N1872 0.984 . S
H1885 N1872 0.985 . S
C1886 C1887 1.363 . S
C1886 C1892 1.379 . S
C1886 N1894 1.356 . S
C1887 C1886 1.363 . S
C1887 C1893 1.363 . S
C1888 C1889 1.363 . S
C1888 C1893 1.379 . S
C1888 N1895 1.356 . S
C1889 C1888 1.363 . S
C1889 C1892 1.363 . S
N1890 C1892 1.356 . S
N1890 H1902 0.984 . S
N1890 H1903 0.985 . S
N1891 C1893 1.356 . S
N1891 H1896 0.984 . S
N1891 H1897 0.985 . S
C1892 C1886 1.379 . S
C1892 C1889 1.363 . S
C1892 N1890 1.356 . S
C1893 C1887 1.363 . S
C1893 C1888 1.379 . S
C1893 N1891 1.356 . S
N1894 C1886 1.356 . S
N1894 H1900 0.984 . S
N1894 H1901 0.984 . S
N1895 C1888 1.356 . S
N1895 H1898 0.984 . S
N1895 H1899 0.985 . S
H1896 N1891 0.984 . S
H1897 N1891 0.985 . S
H1898 N1895 0.984 . S
H1899 N1895 0.985 . S
H1900 N1894 0.984 . S
H1901 N1894 0.984 . S
H1902 N1890 0.984 . S
H1903 N1890 0.985 . S
C1904 C1905 1.363 . S
C1904 C1910 1.379 . S
C1904 N1912 1.356 . S
C1905 C1904 1.363 . S
C1905 C1911 1.363 . S
C1906 C1907 1.363 . S
C1906 C1911 1.379 . S
C1906 N1913 1.356 . S
C1907 C1906 1.363 . S
C1907 C1910 1.363 . S
N1908 C1910 1.356 . S
N1908 H1920 0.984 . S
N1908 H1921 0.985 . S
N1909 C1911 1.356 . S
N1909 H1914 0.984 . S
N1909 H1915 0.985 . S
C1910 C1904 1.379 . S
C1910 C1907 1.363 . S
C1910 N1908 1.356 . S
C1911 C1905 1.363 . S
C1911 C1906 1.379 . S
C1911 N1909 1.356 . S
N1912 C1904 1.356 . S
N1912 H1918 0.984 . S
N1912 H1919 0.984 . S
N1913 C1906 1.356 . S
N1913 H1916 0.984 . S
N1913 H1917 0.985 . S
H1914 N1909 0.984 . S
H1915 N1909 0.985 . S
H1916 N1913 0.984 . S
H1917 N1913 0.985 . S
H1918 N1912 0.984 . S
H1919 N1912 0.984 . S
H1920 N1908 0.984 . S
H1921 N1908 0.985 . S
C1922 C1923 1.363 . S
C1922 C1928 1.379 . S
C1922 N1930 1.356 . S
C1923 C1922 1.363 . S
C1923 C1929 1.363 . S
C1924 C1925 1.363 . S
C1924 C1929 1.379 . S
C1924 N1931 1.356 . S
C1925 C1924 1.363 . S
C1925 C1928 1.363 . S
N1926 C1928 1.356 . S
N1926 H1938 0.984 . S
N1926 H1939 0.985 . S
N1927 C1929 1.356 . S
N1927 H1932 0.984 . S
N1927 H1933 0.985 . S
C1928 C1922 1.379 . S
C1928 C1925 1.363 . S
C1928 N1926 1.356 . S
C1929 C1923 1.363 . S
C1929 C1924 1.379 . S
C1929 N1927 1.356 . S
N1930 C1922 1.356 . S
N1930 H1936 0.984 . S
N1930 H1937 0.984 . S
N1931 C1924 1.356 . S
N1931 H1934 0.984 . S
N1931 H1935 0.985 . S
H1932 N1927 0.984 . S
H1933 N1927 0.985 . S
H1934 N1931 0.984 . S
H1935 N1931 0.985 . S
H1936 N1930 0.984 . S
H1937 N1930 0.984 . S
H1938 N1926 0.984 . S
H1939 N1926 0.985 . S
C1940 C1941 1.363 . S
C1940 C1946 1.379 . S
C1940 N1948 1.356 . S
C1941 C1940 1.363 . S
C1941 C1947 1.363 . S
C1942 C1943 1.363 . S
C1942 C1947 1.379 . S
C1942 N1949 1.356 . S
C1943 C1942 1.363 . S
C1943 C1946 1.363 . S
N1944 C1946 1.356 . S
N1944 H1956 0.984 . S
N1944 H1957 0.985 . S
N1945 C1947 1.356 . S
N1945 H1950 0.984 . S
N1945 H1951 0.985 . S
C1946 C1940 1.379 . S
C1946 C1943 1.363 . S
C1946 N1944 1.356 . S
C1947 C1941 1.363 . S
C1947 C1942 1.379 . S
C1947 N1945 1.356 . S
N1948 C1940 1.356 . S
N1948 H1954 0.984 . S
N1948 H1955 0.984 . S
N1949 C1942 1.356 . S
N1949 H1952 0.984 . S
N1949 H1953 0.985 . S
H1950 N1945 0.984 . S
H1951 N1945 0.985 . S
H1952 N1949 0.984 . S
H1953 N1949 0.985 . S
H1954 N1948 0.984 . S
H1955 N1948 0.984 . S
H1956 N1944 0.984 . S
H1957 N1944 0.985 . S
C1958 C1959 1.363 . S
C1958 C1964 1.379 . S
C1958 N1966 1.356 . S
C1959 C1958 1.363 . S
C1959 C1965 1.363 . S
C1960 C1961 1.363 . S
C1960 C1965 1.379 . S
C1960 N1967 1.356 . S
C1961 C1960 1.363 . S
C1961 C1964 1.363 . S
N1962 C1964 1.356 . S
N1962 H1974 0.984 . S
N1962 H1975 0.985 . S
N1963 C1965 1.356 . S
N1963 H1968 0.984 . S
N1963 H1969 0.985 . S
C1964 C1958 1.379 . S
C1964 C1961 1.363 . S
C1964 N1962 1.356 . S
C1965 C1959 1.363 . S
C1965 C1960 1.379 . S
C1965 N1963 1.356 . S
N1966 C1958 1.356 . S
N1966 H1972 0.984 . S
N1966 H1973 0.984 . S
N1967 C1960 1.356 . S
N1967 H1970 0.984 . S
N1967 H1971 0.985 . S
H1968 N1963 0.984 . S
H1969 N1963 0.985 . S
H1970 N1967 0.984 . S
H1971 N1967 0.985 . S
H1972 N1966 0.984 . S
H1973 N1966 0.984 . S
H1974 N1962 0.984 . S
H1975 N1962 0.985 . S
C1976 C1977 1.363 . S
C1976 C1982 1.379 . S
C1976 N1984 1.356 . S
C1977 C1976 1.363 . S
C1977 C1983 1.363 . S
C1978 C1979 1.363 . S
C1978 C1983 1.379 . S
C1978 N1985 1.356 . S
C1979 C1978 1.363 . S
C1979 C1982 1.363 . S
N1980 C1982 1.356 . S
N1980 H1992 0.984 . S
N1980 H1993 0.985 . S
N1981 C1983 1.356 . S
N1981 H1986 0.984 . S
N1981 H1987 0.985 . S
C1982 C1976 1.379 . S
C1982 C1979 1.363 . S
C1982 N1980 1.356 . S
C1983 C1977 1.363 . S
C1983 C1978 1.379 . S
C1983 N1981 1.356 . S
N1984 C1976 1.356 . S
N1984 H1990 0.984 . S
N1984 H1991 0.984 . S
N1985 C1978 1.356 . S
N1985 H1988 0.984 . S
N1985 H1989 0.985 . S
H1986 N1981 0.984 . S
H1987 N1981 0.985 . S
H1988 N1985 0.984 . S
H1989 N1985 0.985 . S
H1990 N1984 0.984 . S
H1991 N1984 0.984 . S
H1992 N1980 0.984 . S
H1993 N1980 0.985 . S
C1994 C1995 1.363 . S
C1994 C2000 1.379 . S
C1994 N2002 1.356 . S
C1995 C1994 1.363 . S
C1995 C2001 1.363 . S
C1996 C1997 1.363 . S
C1996 C2001 1.379 . S
C1996 N2003 1.356 . S
C1997 C1996 1.363 . S
C1997 C2000 1.363 . S
N1998 C2000 1.356 . S
N1998 H2010 0.984 . S
N1998 H2011 0.985 . S
N1999 C2001 1.356 . S
N1999 H2004 0.984 . S
N1999 H2005 0.985 . S
C2000 C1994 1.379 . S
C2000 C1997 1.363 . S
C2000 N1998 1.356 . S
C2001 C1995 1.363 . S
C2001 C1996 1.379 . S
C2001 N1999 1.356 . S
N2002 C1994 1.356 . S
N2002 H2008 0.984 . S
N2002 H2009 0.984 . S
N2003 C1996 1.356 . S
N2003 H2006 0.984 . S
N2003 H2007 0.985 . S
H2004 N1999 0.984 . S
H2005 N1999 0.985 . S
H2006 N2003 0.984 . S
H2007 N2003 0.985 . S
H2008 N2002 0.984 . S
H2009 N2002 0.984 . S
H2010 N1998 0.984 . S
H2011 N1998 0.985 . S
C2012 C2013 1.363 . S
C2012 C2018 1.379 . S
C2012 N2020 1.356 . S
C2013 C2012 1.363 . S
C2013 C2019 1.363 . S
C2014 C2015 1.363 . S
C2014 C2019 1.379 . S
C2014 N2021 1.356 . S
C2015 C2014 1.363 . S
C2015 C2018 1.363 . S
N2016 C2018 1.356 . S
N2016 H2028 0.984 . S
N2016 H2029 0.985 . S
N2017 C2019 1.356 . S
N2017 H2022 0.984 . S
N2017 H2023 0.985 . S
C2018 C2012 1.379 . S
C2018 C2015 1.363 . S
C2018 N2016 1.356 . S
C2019 C2013 1.363 . S
C2019 C2014 1.379 . S
C2019 N2017 1.356 . S
N2020 C2012 1.356 . S
N2020 H2026 0.984 . S
N2020 H2027 0.984 . S
N2021 C2014 1.356 . S
N2021 H2024 0.984 . S
N2021 H2025 0.985 . S
H2022 N2017 0.984 . S
H2023 N2017 0.985 . S
H2024 N2021 0.984 . S
H2025 N2021 0.985 . S
H2026 N2020 0.984 . S
H2027 N2020 0.984 . S
H2028 N2016 0.984 . S
H2029 N2016 0.985 . S
C2030 C2031 1.363 . S
C2030 C2036 1.379 . S
C2030 N2038 1.356 . S
C2031 C2030 1.363 . S
C2031 C2037 1.363 . S
C2032 C2033 1.363 . S
C2032 C2037 1.379 . S
C2032 N2039 1.356 . S
C2033 C2032 1.363 . S
C2033 C2036 1.363 . S
N2034 C2036 1.356 . S
N2034 H2046 0.984 . S
N2034 H2047 0.985 . S
N2035 C2037 1.356 . S
N2035 H2040 0.984 . S
N2035 H2041 0.985 . S
C2036 C2030 1.379 . S
C2036 C2033 1.363 . S
C2036 N2034 1.356 . S
C2037 C2031 1.363 . S
C2037 C2032 1.379 . S
C2037 N2035 1.356 . S
N2038 C2030 1.356 . S
N2038 H2044 0.984 . S
N2038 H2045 0.984 . S
N2039 C2032 1.356 . S
N2039 H2042 0.984 . S
N2039 H2043 0.985 . S
H2040 N2035 0.984 . S
H2041 N2035 0.985 . S
H2042 N2039 0.984 . S
H2043 N2039 0.985 . S
H2044 N2038 0.984 . S
H2045 N2038 0.984 . S
H2046 N2034 0.984 . S
H2047 N2034 0.985 . S
C2048 C2049 1.363 . S
C2048 C2054 1.379 . S
C2048 N2056 1.356 . S
C2049 C2048 1.363 . S
C2049 C2055 1.363 . S
C2050 C2051 1.363 . S
C2050 C2055 1.379 . S
C2050 N2057 1.356 . S
C2051 C2050 1.363 . S
C2051 C2054 1.363 . S
N2052 C2054 1.356 . S
N2052 H2064 0.984 . S
N2052 H2065 0.985 . S
N2053 C2055 1.356 . S
N2053 H2058 0.984 . S
N2053 H2059 0.985 . S
C2054 C2048 1.379 . S
C2054 C2051 1.363 . S
C2054 N2052 1.356 . S
C2055 C2049 1.363 . S
C2055 C2050 1.379 . S
C2055 N2053 1.356 . S
N2056 C2048 1.356 . S
N2056 H2062 0.984 . S
N2056 H2063 0.984 . S
N2057 C2050 1.356 . S
N2057 H2060 0.984 . S
N2057 H2061 0.985 . S
H2058 N2053 0.984 . S
H2059 N2053 0.985 . S
H2060 N2057 0.984 . S
H2061 N2057 0.985 . S
H2062 N2056 0.984 . S
H2063 N2056 0.984 . S
H2064 N2052 0.984 . S
H2065 N2052 0.985 . S
C2066 C2067 1.363 . S
C2066 C2072 1.379 . S
C2066 N2074 1.356 . S
C2067 C2066 1.363 . S
C2067 C2073 1.363 . S
C2068 C2069 1.363 . S
C2068 C2073 1.379 . S
C2068 N2075 1.356 . S
C2069 C2068 1.363 . S
C2069 C2072 1.363 . S
N2070 C2072 1.356 . S
N2070 H2082 0.984 . S
N2070 H2083 0.985 . S
N2071 C2073 1.356 . S
N2071 H2076 0.984 . S
N2071 H2077 0.985 . S
C2072 C2066 1.379 . S
C2072 C2069 1.363 . S
C2072 N2070 1.356 . S
C2073 C2067 1.363 . S
C2073 C2068 1.379 . S
C2073 N2071 1.356 . S
N2074 C2066 1.356 . S
N2074 H2080 0.984 . S
N2074 H2081 0.984 . S
N2075 C2068 1.356 . S
N2075 H2078 0.984 . S
N2075 H2079 0.985 . S
H2076 N2071 0.984 . S
H2077 N2071 0.985 . S
H2078 N2075 0.984 . S
H2079 N2075 0.985 . S
H2080 N2074 0.984 . S
H2081 N2074 0.984 . S
H2082 N2070 0.984 . S
H2083 N2070 0.985 . S
C2084 C2085 1.363 . S
C2084 C2090 1.379 . S
C2084 N2092 1.356 . S
C2085 C2084 1.363 . S
C2085 C2091 1.363 . S
C2086 C2087 1.363 . S
C2086 C2091 1.379 . S
C2086 N2093 1.356 . S
C2087 C2086 1.363 . S
C2087 C2090 1.363 . S
N2088 C2090 1.356 . S
N2088 H2100 0.984 . S
N2088 H2101 0.985 . S
N2089 C2091 1.356 . S
N2089 H2094 0.984 . S
N2089 H2095 0.985 . S
C2090 C2084 1.379 . S
C2090 C2087 1.363 . S
C2090 N2088 1.356 . S
C2091 C2085 1.363 . S
C2091 C2086 1.379 . S
C2091 N2089 1.356 . S
N2092 C2084 1.356 . S
N2092 H2098 0.984 . S
N2092 H2099 0.984 . S
N2093 C2086 1.356 . S
N2093 H2096 0.984 . S
N2093 H2097 0.985 . S
H2094 N2089 0.984 . S
H2095 N2089 0.985 . S
H2096 N2093 0.984 . S
H2097 N2093 0.985 . S
H2098 N2092 0.984 . S
H2099 N2092 0.984 . S
H2100 N2088 0.984 . S
H2101 N2088 0.985 . S
C2102 C2103 1.363 . S
C2102 C2108 1.379 . S
C2102 N2110 1.356 . S
C2103 C2102 1.363 . S
C2103 C2109 1.363 . S
C2104 C2105 1.363 . S
C2104 C2109 1.379 . S
C2104 N2111 1.356 . S
C2105 C2104 1.363 . S
C2105 C2108 1.363 . S
N2106 C2108 1.356 . S
N2106 H2118 0.984 . S
N2106 H2119 0.968 1_565 S
N2107 C2109 1.356 . S
N2107 H2112 0.984 . S
N2107 H2113 0.985 . S
C2108 C2102 1.379 . S
C2108 C2105 1.363 . S
C2108 N2106 1.356 . S
C2109 C2103 1.363 . S
C2109 C2104 1.379 . S
C2109 N2107 1.356 . S
N2110 C2102 1.356 . S
N2110 H2116 0.984 . S
N2110 H2117 0.984 . S
N2111 C2104 1.356 . S
N2111 H2114 0.984 . S
N2111 H2115 0.985 . S
H2112 N2107 0.984 . S
H2113 N2107 0.985 . S
H2114 N2111 0.984 . S
H2115 N2111 0.985 . S
H2116 N2110 0.984 . S
H2117 N2110 0.984 . S
H2118 N2106 0.984 . S
H2119 N2106 0.968 1_545 S
C2120 C2121 1.363 . S
C2120 C2126 1.379 . S
C2120 N2128 1.356 . S
C2121 C2120 1.363 . S
C2121 C2127 1.363 . S
C2122 C2123 1.363 . S
C2122 C2127 1.379 . S
C2122 N2129 1.356 . S
C2123 C2122 1.363 . S
C2123 C2126 1.363 . S
N2124 C2126 1.356 . S
N2124 H2136 0.984 . S
N2124 H2137 0.985 . S
N2125 C2127 1.356 . S
N2125 H2130 0.984 . S
N2125 H2131 0.985 . S
C2126 C2120 1.379 . S
C2126 C2123 1.363 . S
C2126 N2124 1.356 . S
C2127 C2121 1.363 . S
C2127 C2122 1.379 . S
C2127 N2125 1.356 . S
N2128 C2120 1.356 . S
N2128 H2134 0.984 . S
N2128 H2135 0.984 . S
N2129 C2122 1.356 . S
N2129 H2132 0.984 . S
N2129 H2133 0.985 . S
H2130 N2125 0.984 . S
H2131 N2125 0.985 . S
H2132 N2129 0.984 . S
H2133 N2129 0.985 . S
H2134 N2128 0.984 . S
H2135 N2128 0.984 . S
H2136 N2124 0.984 . S
H2137 N2124 0.985 . S
C2138 C2139 1.363 . S
C2138 C2144 1.379 . S
C2138 N2146 1.356 . S
C2139 C2138 1.363 . S
C2139 C2145 1.363 . S
C2140 C2141 1.363 . S
C2140 C2145 1.379 . S
C2140 N2147 1.356 . S
C2141 C2140 1.363 . S
C2141 C2144 1.363 . S
N2142 C2144 1.356 . S
N2142 H2154 0.984 . S
N2142 H2155 0.985 . S
N2143 C2145 1.356 . S
N2143 H2148 0.984 . S
N2143 H2149 0.985 . S
C2144 C2138 1.379 . S
C2144 C2141 1.363 . S
C2144 N2142 1.356 . S
C2145 C2139 1.363 . S
C2145 C2140 1.379 . S
C2145 N2143 1.356 . S
N2146 C2138 1.356 . S
N2146 H2152 0.984 . S
N2146 H2153 0.984 . S
N2147 C2140 1.356 . S
N2147 H2150 0.984 . S
N2147 H2151 0.985 . S
H2148 N2143 0.984 . S
H2149 N2143 0.985 . S
H2150 N2147 0.984 . S
H2151 N2147 0.985 . S
H2152 N2146 0.984 . S
H2153 N2146 0.984 . S
H2154 N2142 0.984 . S
H2155 N2142 0.985 . S
C2156 C2157 1.363 . S
C2156 C2162 1.379 . S
C2156 N2164 1.356 . S
C2157 C2156 1.363 . S
C2157 C2163 1.363 . S
C2158 C2159 1.363 . S
C2158 C2163 1.379 . S
C2158 N2165 1.356 . S
C2159 C2158 1.363 . S
C2159 C2162 1.363 . S
N2160 C2162 1.356 . S
N2160 H2172 0.984 . S
N2160 H2173 0.985 . S
N2161 C2163 1.356 . S
N2161 H2166 0.984 . S
N2161 H2167 0.985 . S
C2162 C2156 1.379 . S
C2162 C2159 1.363 . S
C2162 N2160 1.356 . S
C2163 C2157 1.363 . S
C2163 C2158 1.379 . S
C2163 N2161 1.356 . S
N2164 C2156 1.356 . S
N2164 H2170 0.984 . S
N2164 H2171 0.984 . S
N2165 C2158 1.356 . S
N2165 H2168 0.984 . S
N2165 H2169 0.985 . S
H2166 N2161 0.984 . S
H2167 N2161 0.985 . S
H2168 N2165 0.984 . S
H2169 N2165 0.985 . S
H2170 N2164 0.984 . S
H2171 N2164 0.984 . S
H2172 N2160 0.984 . S
H2173 N2160 0.985 . S
C2174 C2175 1.363 . S
C2174 C2180 1.379 . S
C2174 N2182 1.356 . S
C2175 C2174 1.363 . S
C2175 C2181 1.363 . S
C2176 C2177 1.363 . S
C2176 C2181 1.379 . S
C2176 N2183 1.356 . S
C2177 C2176 1.363 . S
C2177 C2180 1.363 . S
N2178 C2180 1.356 . S
N2178 H2190 0.984 . S
N2178 H2191 0.985 . S
N2179 C2181 1.356 . S
N2179 H2184 0.984 . S
N2179 H2185 0.985 . S
C2180 C2174 1.379 . S
C2180 C2177 1.363 . S
C2180 N2178 1.356 . S
C2181 C2175 1.363 . S
C2181 C2176 1.379 . S
C2181 N2179 1.356 . S
N2182 C2174 1.356 . S
N2182 H2188 0.984 . S
N2182 H2189 0.984 . S
N2183 C2176 1.356 . S
N2183 H2186 0.984 . S
N2183 H2187 0.985 . S
H2184 N2179 0.984 . S
H2185 N2179 0.985 . S
H2186 N2183 0.984 . S
H2187 N2183 0.985 . S
H2188 N2182 0.984 . S
H2189 N2182 0.984 . S
H2190 N2178 0.984 . S
H2191 N2178 0.985 . S
C2192 C2193 1.363 . S
C2192 C2198 1.379 . S
C2192 N2200 1.356 . S
C2193 C2192 1.363 . S
C2193 C2199 1.363 . S
C2194 C2195 1.363 . S
C2194 C2199 1.379 . S
C2194 N2201 1.356 . S
C2195 C2194 1.363 . S
C2195 C2198 1.363 . S
N2196 C2198 1.356 . S
N2196 H2208 0.984 . S
N2196 H2209 0.985 . S
N2197 C2199 1.356 . S
N2197 H2202 0.984 . S
N2197 H2203 0.985 . S
C2198 C2192 1.379 . S
C2198 C2195 1.363 . S
C2198 N2196 1.356 . S
C2199 C2193 1.363 . S
C2199 C2194 1.379 . S
C2199 N2197 1.356 . S
N2200 C2192 1.356 . S
N2200 H2206 0.984 . S
N2200 H2207 0.984 . S
N2201 C2194 1.356 . S
N2201 H2204 0.984 . S
N2201 H2205 0.985 . S
H2202 N2197 0.984 . S
H2203 N2197 0.985 . S
H2204 N2201 0.984 . S
H2205 N2201 0.985 . S
H2206 N2200 0.984 . S
H2207 N2200 0.984 . S
H2208 N2196 0.984 . S
H2209 N2196 0.985 . S
C2210 C2211 1.363 . S
C2210 C2216 1.379 . S
C2210 N2218 1.356 . S
C2211 C2210 1.363 . S
C2211 C2217 1.363 . S
C2212 C2213 1.363 . S
C2212 C2217 1.379 . S
C2212 N2219 1.356 . S
C2213 C2212 1.363 . S
C2213 C2216 1.363 . S
N2214 C2216 1.356 . S
N2214 H2226 0.984 . S
N2214 H2227 0.985 . S
N2215 C2217 1.356 . S
N2215 H2220 0.984 . S
N2215 H2221 0.985 . S
C2216 C2210 1.379 . S
C2216 C2213 1.363 . S
C2216 N2214 1.356 . S
C2217 C2211 1.363 . S
C2217 C2212 1.379 . S
C2217 N2215 1.356 . S
N2218 C2210 1.356 . S
N2218 H2224 0.984 . S
N2218 H2225 0.984 . S
N2219 C2212 1.356 . S
N2219 H2222 0.984 . S
N2219 H2223 0.985 . S
H2220 N2215 0.984 . S
H2221 N2215 0.985 . S
H2222 N2219 0.984 . S
H2223 N2219 0.985 . S
H2224 N2218 0.984 . S
H2225 N2218 0.984 . S
H2226 N2214 0.984 . S
H2227 N2214 0.985 . S
C2228 C2229 1.363 . S
C2228 C2234 1.379 . S
C2228 N2236 1.356 . S
C2229 C2228 1.363 . S
C2229 C2235 1.363 . S
C2230 C2231 1.363 . S
C2230 C2235 1.379 . S
C2230 N2237 1.356 . S
C2231 C2230 1.363 . S
C2231 C2234 1.363 . S
N2232 C2234 1.356 . S
N2232 H2244 0.984 . S
N2232 H2245 0.985 . S
N2233 C2235 1.356 . S
N2233 H2238 0.984 . S
N2233 H2239 0.985 . S
C2234 C2228 1.379 . S
C2234 C2231 1.363 . S
C2234 N2232 1.356 . S
C2235 C2229 1.363 . S
C2235 C2230 1.379 . S
C2235 N2233 1.356 . S
N2236 C2228 1.356 . S
N2236 H2242 0.984 . S
N2236 H2243 0.984 . S
N2237 C2230 1.356 . S
N2237 H2240 0.984 . S
N2237 H2241 0.985 . S
H2238 N2233 0.984 . S
H2239 N2233 0.985 . S
H2240 N2237 0.984 . S
H2241 N2237 0.985 . S
H2242 N2236 0.984 . S
H2243 N2236 0.984 . S
H2244 N2232 0.984 . S
H2245 N2232 0.985 . S
C2246 C2247 1.363 . S
C2246 C2252 1.379 . S
C2246 N2254 1.356 . S
C2247 C2246 1.363 . S
C2247 C2253 1.363 . S
C2248 C2249 1.363 . S
C2248 C2253 1.379 . S
C2248 N2255 1.356 . S
C2249 C2248 1.363 . S
C2249 C2252 1.363 . S
N2250 C2252 1.356 . S
N2250 H2262 0.984 . S
N2250 H2263 0.985 . S
N2251 C2253 1.356 . S
N2251 H2256 0.984 . S
N2251 H2257 0.985 . S
C2252 C2246 1.379 . S
C2252 C2249 1.363 . S
C2252 N2250 1.356 . S
C2253 C2247 1.363 . S
C2253 C2248 1.379 . S
C2253 N2251 1.356 . S
N2254 C2246 1.356 . S
N2254 H2260 0.984 . S
N2254 H2261 0.984 . S
N2255 C2248 1.356 . S
N2255 H2258 0.984 . S
N2255 H2259 0.985 . S
H2256 N2251 0.984 . S
H2257 N2251 0.985 . S
H2258 N2255 0.984 . S
H2259 N2255 0.985 . S
H2260 N2254 0.984 . S
H2261 N2254 0.984 . S
H2262 N2250 0.984 . S
H2263 N2250 0.985 . S
C2264 C2265 1.363 . S
C2264 C2270 1.379 . S
C2264 N2272 1.356 . S
C2265 C2264 1.363 . S
C2265 C2271 1.363 . S
C2266 C2267 1.363 . S
C2266 C2271 1.379 . S
C2266 N2273 1.356 . S
C2267 C2266 1.363 . S
C2267 C2270 1.363 . S
N2268 C2270 1.356 . S
N2268 H2280 0.984 . S
N2268 H2281 0.985 . S
N2269 C2271 1.356 . S
N2269 H2274 0.984 . S
N2269 H2275 0.985 . S
C2270 C2264 1.379 . S
C2270 C2267 1.363 . S
C2270 N2268 1.356 . S
C2271 C2265 1.363 . S
C2271 C2266 1.379 . S
C2271 N2269 1.356 . S
N2272 C2264 1.356 . S
N2272 H2278 0.984 . S
N2272 H2279 0.984 . S
N2273 C2266 1.356 . S
N2273 H2276 0.984 . S
N2273 H2277 0.985 . S
H2274 N2269 0.984 . S
H2275 N2269 0.985 . S
H2276 N2273 0.984 . S
H2277 N2273 0.985 . S
H2278 N2272 0.984 . S
H2279 N2272 0.984 . S
H2280 N2268 0.984 . S
H2281 N2268 0.985 . S
C2282 C2283 1.363 . S
C2282 C2288 1.379 . S
C2282 N2290 1.356 . S
C2283 C2282 1.363 . S
C2283 C2289 1.363 . S
C2284 C2285 1.363 . S
C2284 C2289 1.379 . S
C2284 N2291 1.356 . S
C2285 C2284 1.363 . S
C2285 C2288 1.363 . S
N2286 C2288 1.356 . S
N2286 H2298 0.984 . S
N2286 H2299 0.985 . S
N2287 C2289 1.356 . S
N2287 H2292 0.984 . S
N2287 H2293 0.985 . S
C2288 C2282 1.379 . S
C2288 C2285 1.363 . S
C2288 N2286 1.356 . S
C2289 C2283 1.363 . S
C2289 C2284 1.379 . S
C2289 N2287 1.356 . S
N2290 C2282 1.356 . S
N2290 H2296 0.984 . S
N2290 H2297 0.984 . S
N2291 C2284 1.356 . S
N2291 H2294 0.984 . S
N2291 H2295 0.985 . S
H2292 N2287 0.984 . S
H2293 N2287 0.985 . S
H2294 N2291 0.984 . S
H2295 N2291 0.985 . S
H2296 N2290 0.984 . S
H2297 N2290 0.984 . S
H2298 N2286 0.984 . S
H2299 N2286 0.985 . S
C2300 C2301 1.363 . S
C2300 C2306 1.379 . S
C2300 N2308 1.356 . S
C2301 C2300 1.363 . S
C2301 C2307 1.363 . S
C2302 C2303 1.363 . S
C2302 C2307 1.379 . S
C2302 N2309 1.356 . S
C2303 C2302 1.363 . S
C2303 C2306 1.363 . S
N2304 C2306 1.356 . S
N2304 H2316 0.984 . S
N2304 H2317 0.985 . S
N2305 C2307 1.356 . S
N2305 H2310 0.984 . S
N2305 H2311 0.985 . S
C2306 C2300 1.379 . S
C2306 C2303 1.363 . S
C2306 N2304 1.356 . S
C2307 C2301 1.363 . S
C2307 C2302 1.379 . S
C2307 N2305 1.356 . S
N2308 C2300 1.356 . S
N2308 H2314 0.984 . S
N2308 H2315 0.984 . S
N2309 C2302 1.356 . S
N2309 H2312 0.984 . S
N2309 H2313 0.985 . S
H2310 N2305 0.984 . S
H2311 N2305 0.985 . S
H2312 N2309 0.984 . S
H2313 N2309 0.985 . S
H2314 N2308 0.984 . S
H2315 N2308 0.984 . S
H2316 N2304 0.984 . S
H2317 N2304 0.985 . S
C2318 C2319 1.363 . S
C2318 C2324 1.379 . S
C2318 N2326 1.356 . S
C2319 C2318 1.363 . S
C2319 C2325 1.363 . S
C2320 C2321 1.363 . S
C2320 C2325 1.379 . S
C2320 N2327 1.356 . S
C2321 C2320 1.363 . S
C2321 C2324 1.363 . S
N2322 C2324 1.356 . S
N2322 H2334 0.984 . S
N2322 H2335 0.985 . S
N2323 C2325 1.356 . S
N2323 H2328 0.984 . S
N2323 H2329 0.985 . S
C2324 C2318 1.379 . S
C2324 C2321 1.363 . S
C2324 N2322 1.356 . S
C2325 C2319 1.363 . S
C2325 C2320 1.379 . S
C2325 N2323 1.356 . S
N2326 C2318 1.356 . S
N2326 H2332 0.984 . S
N2326 H2333 0.984 . S
N2327 C2320 1.356 . S
N2327 H2330 0.984 . S
N2327 H2331 0.985 . S
H2328 N2323 0.984 . S
H2329 N2323 0.985 . S
H2330 N2327 0.984 . S
H2331 N2327 0.985 . S
H2332 N2326 0.984 . S
H2333 N2326 0.984 . S
H2334 N2322 0.984 . S
H2335 N2322 0.985 . S
C2336 C2337 1.363 . S
C2336 C2342 1.379 . S
C2336 N2344 1.356 . S
C2337 C2336 1.363 . S
C2337 C2343 1.363 . S
C2338 C2339 1.363 . S
C2338 C2343 1.379 . S
C2338 N2345 1.356 . S
C2339 C2338 1.363 . S
C2339 C2342 1.363 . S
N2340 C2342 1.356 . S
N2340 H2352 0.984 . S
N2340 H2353 0.985 . S
N2341 C2343 1.356 . S
N2341 H2346 0.984 . S
N2341 H2347 0.985 . S
C2342 C2336 1.379 . S
C2342 C2339 1.363 . S
C2342 N2340 1.356 . S
C2343 C2337 1.363 . S
C2343 C2338 1.379 . S
C2343 N2341 1.356 . S
N2344 C2336 1.356 . S
N2344 H2350 0.984 . S
N2344 H2351 0.984 . S
N2345 C2338 1.356 . S
N2345 H2348 0.984 . S
N2345 H2349 0.985 . S
H2346 N2341 0.984 . S
H2347 N2341 0.985 . S
H2348 N2345 0.984 . S
H2349 N2345 0.985 . S
H2350 N2344 0.984 . S
H2351 N2344 0.984 . S
H2352 N2340 0.984 . S
H2353 N2340 0.985 . S
C2354 C2355 1.363 . S
C2354 C2360 1.379 . S
C2354 N2362 1.356 . S
C2355 C2354 1.363 . S
C2355 C2361 1.363 . S
C2356 C2357 1.363 . S
C2356 C2361 1.379 . S
C2356 N2363 1.356 . S
C2357 C2356 1.363 . S
C2357 C2360 1.363 . S
N2358 C2360 1.356 . S
N2358 H2370 0.984 . S
N2358 H2371 0.985 . S
N2359 C2361 1.356 . S
N2359 H2364 0.984 . S
N2359 H2365 0.985 . S
C2360 C2354 1.379 . S
C2360 C2357 1.363 . S
C2360 N2358 1.356 . S
C2361 C2355 1.363 . S
C2361 C2356 1.379 . S
C2361 N2359 1.356 . S
N2362 C2354 1.356 . S
N2362 H2368 0.984 . S
N2362 H2369 0.984 . S
N2363 C2356 1.356 . S
N2363 H2366 0.984 . S
N2363 H2367 0.985 . S
H2364 N2359 0.984 . S
H2365 N2359 0.985 . S
H2366 N2363 0.984 . S
H2367 N2363 0.985 . S
H2368 N2362 0.984 . S
H2369 N2362 0.984 . S
H2370 N2358 0.984 . S
H2371 N2358 0.985 . S
C2372 C2373 1.363 . S
C2372 C2378 1.379 . S
C2372 N2380 1.356 . S
C2373 C2372 1.363 . S
C2373 C2379 1.363 . S
C2374 C2375 1.363 . S
C2374 C2379 1.379 . S
C2374 N2381 1.356 . S
C2375 C2374 1.363 . S
C2375 C2378 1.363 . S
N2376 C2378 1.356 . S
N2376 H2388 0.984 . S
N2376 H2389 0.985 . S
N2377 C2379 1.356 . S
N2377 H2382 0.984 . S
N2377 H2383 0.985 . S
C2378 C2372 1.379 . S
C2378 C2375 1.363 . S
C2378 N2376 1.356 . S
C2379 C2373 1.363 . S
C2379 C2374 1.379 . S
C2379 N2377 1.356 . S
N2380 C2372 1.356 . S
N2380 H2386 0.984 . S
N2380 H2387 0.984 . S
N2381 C2374 1.356 . S
N2381 H2384 0.984 . S
N2381 H2385 0.985 . S
H2382 N2377 0.984 . S
H2383 N2377 0.985 . S
H2384 N2381 0.984 . S
H2385 N2381 0.985 . S
H2386 N2380 0.984 . S
H2387 N2380 0.984 . S
H2388 N2376 0.984 . S
H2389 N2376 0.985 . S
C2390 C2391 1.363 . S
C2390 C2396 1.379 . S
C2390 N2398 1.356 . S
C2391 C2390 1.363 . S
C2391 C2397 1.363 . S
C2392 C2393 1.363 . S
C2392 C2397 1.379 . S
C2392 N2399 1.356 . S
C2393 C2392 1.363 . S
C2393 C2396 1.363 . S
N2394 C2396 1.356 . S
N2394 H2406 0.984 . S
N2394 H2407 0.985 . S
N2395 C2397 1.356 . S
N2395 H2400 0.984 . S
N2395 H2401 0.985 . S
C2396 C2390 1.379 . S
C2396 C2393 1.363 . S
C2396 N2394 1.356 . S
C2397 C2391 1.363 . S
C2397 C2392 1.379 . S
C2397 N2395 1.356 . S
N2398 C2390 1.356 . S
N2398 H2404 0.984 . S
N2398 H2405 0.984 . S
N2399 C2392 1.356 . S
N2399 H2402 0.984 . S
N2399 H2403 0.985 . S
H2400 N2395 0.984 . S
H2401 N2395 0.985 . S
H2402 N2399 0.984 . S
H2403 N2399 0.985 . S
H2404 N2398 0.984 . S
H2405 N2398 0.984 . S
H2406 N2394 0.984 . S
H2407 N2394 0.985 . S
C2408 C2409 1.363 . S
C2408 C2414 1.379 . S
C2408 N2416 1.356 . S
C2409 C2408 1.363 . S
C2409 C2415 1.363 . S
C2410 C2411 1.363 . S
C2410 C2415 1.379 . S
C2410 N2417 1.356 . S
C2411 C2410 1.363 . S
C2411 C2414 1.363 . S
N2412 C2414 1.356 . S
N2412 H2424 0.984 . S
N2412 H2425 0.985 . S
N2413 C2415 1.356 . S
N2413 H2418 0.984 . S
N2413 H2419 0.985 . S
C2414 C2408 1.379 . S
C2414 C2411 1.363 . S
C2414 N2412 1.356 . S
C2415 C2409 1.363 . S
C2415 C2410 1.379 . S
C2415 N2413 1.356 . S
N2416 C2408 1.356 . S
N2416 H2422 0.984 . S
N2416 H2423 0.984 . S
N2417 C2410 1.356 . S
N2417 H2420 0.984 . S
N2417 H2421 0.985 . S
H2418 N2413 0.984 . S
H2419 N2413 0.985 . S
H2420 N2417 0.984 . S
H2421 N2417 0.985 . S
H2422 N2416 0.984 . S
H2423 N2416 0.984 . S
H2424 N2412 0.984 . S
H2425 N2412 0.985 . S
C2426 C2427 1.363 . S
C2426 C2432 1.379 . S
C2426 N2434 1.356 . S
C2427 C2426 1.363 . S
C2427 C2433 1.363 . S
C2428 C2429 1.363 . S
C2428 C2433 1.379 . S
C2428 N2435 1.356 . S
C2429 C2428 1.363 . S
C2429 C2432 1.363 . S
N2430 C2432 1.356 . S
N2430 H2442 0.984 . S
N2430 H2443 0.985 . S
N2431 C2433 1.356 . S
N2431 H2436 0.984 . S
N2431 H2437 0.985 . S
C2432 C2426 1.379 . S
C2432 C2429 1.363 . S
C2432 N2430 1.356 . S
C2433 C2427 1.363 . S
C2433 C2428 1.379 . S
C2433 N2431 1.356 . S
N2434 C2426 1.356 . S
N2434 H2440 0.984 . S
N2434 H2441 0.984 . S
N2435 C2428 1.356 . S
N2435 H2438 0.984 . S
N2435 H2439 0.985 . S
H2436 N2431 0.984 . S
H2437 N2431 0.985 . S
H2438 N2435 0.984 . S
H2439 N2435 0.985 . S
H2440 N2434 0.984 . S
H2441 N2434 0.984 . S
H2442 N2430 0.984 . S
H2443 N2430 0.985 . S
C2444 C2445 1.363 . S
C2444 C2450 1.379 . S
C2444 N2452 1.356 . S
C2445 C2444 1.363 . S
C2445 C2451 1.363 . S
C2446 C2447 1.363 . S
C2446 C2451 1.379 . S
C2446 N2453 1.356 . S
C2447 C2446 1.363 . S
C2447 C2450 1.363 . S
N2448 C2450 1.356 . S
N2448 H2460 0.984 . S
N2448 H2461 0.985 . S
N2449 C2451 1.356 . S
N2449 H2454 0.984 . S
N2449 H2455 0.985 . S
C2450 C2444 1.379 . S
C2450 C2447 1.363 . S
C2450 N2448 1.356 . S
C2451 C2445 1.363 . S
C2451 C2446 1.379 . S
C2451 N2449 1.356 . S
N2452 C2444 1.356 . S
N2452 H2458 0.984 . S
N2452 H2459 0.984 . S
N2453 C2446 1.356 . S
N2453 H2456 0.984 . S
N2453 H2457 0.985 . S
H2454 N2449 0.984 . S
H2455 N2449 0.985 . S
H2456 N2453 0.984 . S
H2457 N2453 0.985 . S
H2458 N2452 0.984 . S
H2459 N2452 0.984 . S
H2460 N2448 0.984 . S
H2461 N2448 0.985 . S
C2462 C2463 1.363 . S
C2462 C2468 1.379 . S
C2462 N2470 1.356 . S
C2463 C2462 1.363 . S
C2463 C2469 1.363 . S
C2464 C2465 1.363 . S
C2464 C2469 1.379 . S
C2464 N2471 1.356 . S
C2465 C2464 1.363 . S
C2465 C2468 1.363 . S
N2466 C2468 1.356 . S
N2466 H2478 0.984 . S
N2466 H2479 0.985 . S
N2467 C2469 1.356 . S
N2467 H2472 0.984 . S
N2467 H2473 0.985 . S
C2468 C2462 1.379 . S
C2468 C2465 1.363 . S
C2468 N2466 1.356 . S
C2469 C2463 1.363 . S
C2469 C2464 1.379 . S
C2469 N2467 1.356 . S
N2470 C2462 1.356 . S
N2470 H2476 0.984 . S
N2470 H2477 0.984 . S
N2471 C2464 1.356 . S
N2471 H2474 0.984 . S
N2471 H2475 0.985 . S
H2472 N2467 0.984 . S
H2473 N2467 0.985 . S
H2474 N2471 0.984 . S
H2475 N2471 0.985 . S
H2476 N2470 0.984 . S
H2477 N2470 0.984 . S
H2478 N2466 0.984 . S
H2479 N2466 0.985 . S
C2480 C2481 1.363 . S
C2480 C2486 1.379 . S
C2480 N2488 1.356 . S
C2481 C2480 1.363 . S
C2481 C2487 1.363 . S
C2482 C2483 1.363 . S
C2482 C2487 1.379 . S
C2482 N2489 1.356 . S
C2483 C2482 1.363 . S
C2483 C2486 1.363 . S
N2484 C2486 1.356 . S
N2484 H2496 0.984 . S
N2484 H2497 0.985 . S
N2485 C2487 1.356 . S
N2485 H2490 0.984 . S
N2485 H2491 0.985 . S
C2486 C2480 1.379 . S
C2486 C2483 1.363 . S
C2486 N2484 1.356 . S
C2487 C2481 1.363 . S
C2487 C2482 1.379 . S
C2487 N2485 1.356 . S
N2488 C2480 1.356 . S
N2488 H2494 0.984 . S
N2488 H2495 0.984 . S
N2489 C2482 1.356 . S
N2489 H2492 0.984 . S
N2489 H2493 0.985 . S
H2490 N2485 0.984 . S
H2491 N2485 0.985 . S
H2492 N2489 0.984 . S
H2493 N2489 0.985 . S
H2494 N2488 0.984 . S
H2495 N2488 0.984 . S
H2496 N2484 0.984 . S
H2497 N2484 0.985 . S
C2498 C2499 1.363 . S
C2498 C2504 1.379 . S
C2498 N2506 1.356 . S
C2499 C2498 1.363 . S
C2499 C2505 1.363 . S
C2500 C2501 1.363 . S
C2500 C2505 1.379 . S
C2500 N2507 1.356 . S
C2501 C2500 1.363 . S
C2501 C2504 1.363 . S
N2502 C2504 1.356 . S
N2502 H2514 0.984 . S
N2502 H2515 0.985 . S
N2503 C2505 1.356 . S
N2503 H2508 0.984 . S
N2503 H2509 0.985 . S
C2504 C2498 1.379 . S
C2504 C2501 1.363 . S
C2504 N2502 1.356 . S
C2505 C2499 1.363 . S
C2505 C2500 1.379 . S
C2505 N2503 1.356 . S
N2506 C2498 1.356 . S
N2506 H2512 0.984 . S
N2506 H2513 0.984 . S
N2507 C2500 1.356 . S
N2507 H2510 0.984 . S
N2507 H2511 0.985 . S
H2508 N2503 0.984 . S
H2509 N2503 0.985 . S
H2510 N2507 0.984 . S
H2511 N2507 0.985 . S
H2512 N2506 0.984 . S
H2513 N2506 0.984 . S
H2514 N2502 0.984 . S
H2515 N2502 0.985 . S
C2516 C2517 1.363 . S
C2516 C2522 1.379 . S
C2516 N2524 1.356 . S
C2517 C2516 1.363 . S
C2517 C2523 1.363 . S
C2518 C2519 1.363 . S
C2518 C2523 1.379 . S
C2518 N2525 1.356 . S
C2519 C2518 1.363 . S
C2519 C2522 1.363 . S
N2520 C2522 1.356 . S
N2520 H2532 0.984 . S
N2520 H2533 0.985 . S
N2521 C2523 1.356 . S
N2521 H2526 0.984 . S
N2521 H2527 0.985 . S
C2522 C2516 1.379 . S
C2522 C2519 1.363 . S
C2522 N2520 1.356 . S
C2523 C2517 1.363 . S
C2523 C2518 1.379 . S
C2523 N2521 1.356 . S
N2524 C2516 1.356 . S
N2524 H2530 0.984 . S
N2524 H2531 0.984 . S
N2525 C2518 1.356 . S
N2525 H2528 0.984 . S
N2525 H2529 0.985 . S
H2526 N2521 0.984 . S
H2527 N2521 0.985 . S
H2528 N2525 0.984 . S
H2529 N2525 0.985 . S
H2530 N2524 0.984 . S
H2531 N2524 0.984 . S
H2532 N2520 0.984 . S
H2533 N2520 0.985 . S
C2534 C2535 1.363 . S
C2534 C2540 1.379 . S
C2534 N2542 1.356 . S
C2535 C2534 1.363 . S
C2535 C2541 1.363 . S
C2536 C2537 1.363 . S
C2536 C2541 1.379 . S
C2536 N2543 1.356 . S
C2537 C2536 1.363 . S
C2537 C2540 1.363 . S
N2538 C2540 1.356 . S
N2538 H2550 0.984 . S
N2538 H2551 0.985 . S
N2539 C2541 1.356 . S
N2539 H2544 0.984 . S
N2539 H2545 0.985 . S
C2540 C2534 1.379 . S
C2540 C2537 1.363 . S
C2540 N2538 1.356 . S
C2541 C2535 1.363 . S
C2541 C2536 1.379 . S
C2541 N2539 1.356 . S
N2542 C2534 1.356 . S
N2542 H2548 0.984 . S
N2542 H2549 0.984 . S
N2543 C2536 1.356 . S
N2543 H2546 0.984 . S
N2543 H2547 0.985 . S
H2544 N2539 0.984 . S
H2545 N2539 0.985 . S
H2546 N2543 0.984 . S
H2547 N2543 0.985 . S
H2548 N2542 0.984 . S
H2549 N2542 0.984 . S
H2550 N2538 0.984 . S
H2551 N2538 0.985 . S
C2552 C2553 1.363 . S
C2552 C2558 1.379 . S
C2552 N2560 1.356 . S
C2553 C2552 1.363 . S
C2553 C2559 1.363 . S
C2554 C2555 1.363 . S
C2554 C2559 1.379 . S
C2554 N2561 1.356 . S
C2555 C2554 1.363 . S
C2555 C2558 1.363 . S
N2556 C2558 1.356 . S
N2556 H2568 0.984 . S
N2556 H2569 0.985 . S
N2557 C2559 1.356 . S
N2557 H2562 0.984 . S
N2557 H2563 0.985 . S
C2558 C2552 1.379 . S
C2558 C2555 1.363 . S
C2558 N2556 1.356 . S
C2559 C2553 1.363 . S
C2559 C2554 1.379 . S
C2559 N2557 1.356 . S
N2560 C2552 1.356 . S
N2560 H2566 0.984 . S
N2560 H2567 0.984 . S
N2561 C2554 1.356 . S
N2561 H2564 0.984 . S
N2561 H2565 0.985 . S
H2562 N2557 0.984 . S
H2563 N2557 0.985 . S
H2564 N2561 0.984 . S
H2565 N2561 0.985 . S
H2566 N2560 0.984 . S
H2567 N2560 0.984 . S
H2568 N2556 0.984 . S
H2569 N2556 0.985 . S
C2570 C2571 1.363 . S
C2570 C2576 1.379 . S
C2570 N2578 1.356 . S
C2571 C2570 1.363 . S
C2571 C2577 1.363 . S
C2572 C2573 1.363 . S
C2572 C2577 1.379 . S
C2572 N2579 1.356 . S
C2573 C2572 1.363 . S
C2573 C2576 1.363 . S
N2574 C2576 1.356 . S
N2574 H2586 0.984 . S
N2574 H2587 0.985 . S
N2575 C2577 1.356 . S
N2575 H2580 0.984 . S
N2575 H2581 0.985 . S
C2576 C2570 1.379 . S
C2576 C2573 1.363 . S
C2576 N2574 1.356 . S
C2577 C2571 1.363 . S
C2577 C2572 1.379 . S
C2577 N2575 1.356 . S
N2578 C2570 1.356 . S
N2578 H2584 0.984 . S
N2578 H2585 0.984 . S
N2579 C2572 1.356 . S
N2579 H2582 0.984 . S
N2579 H2583 0.985 . S
H2580 N2575 0.984 . S
H2581 N2575 0.985 . S
H2582 N2579 0.984 . S
H2583 N2579 0.985 . S
H2584 N2578 0.984 . S
H2585 N2578 0.984 . S
H2586 N2574 0.984 . S
H2587 N2574 0.985 . S
C2588 C2589 1.363 . S
C2588 C2594 1.379 . S
C2588 N2596 1.356 . S
C2589 C2588 1.363 . S
C2589 C2595 1.363 . S
C2590 C2591 1.363 . S
C2590 C2595 1.379 . S
C2590 N2597 1.356 . S
C2591 C2590 1.363 . S
C2591 C2594 1.363 . S
N2592 C2594 1.356 . S
N2592 H2604 0.984 . S
N2592 H2605 0.985 . S
N2593 C2595 1.356 . S
N2593 H2598 0.984 . S
N2593 H2599 0.985 . S
C2594 C2588 1.379 . S
C2594 C2591 1.363 . S
C2594 N2592 1.356 . S
C2595 C2589 1.363 . S
C2595 C2590 1.379 . S
C2595 N2593 1.356 . S
N2596 C2588 1.356 . S
N2596 H2602 0.984 . S
N2596 H2603 0.984 . S
N2597 C2590 1.356 . S
N2597 H2600 0.984 . S
N2597 H2601 0.985 . S
H2598 N2593 0.984 . S
H2599 N2593 0.985 . S
H2600 N2597 0.984 . S
H2601 N2597 0.985 . S
H2602 N2596 0.984 . S
H2603 N2596 0.984 . S
H2604 N2592 0.984 . S
H2605 N2592 0.985 . S
C2606 C2607 1.363 . S
C2606 C2612 1.379 . S
C2606 N2614 1.356 . S
C2607 C2606 1.363 . S
C2607 C2613 1.363 . S
C2608 C2609 1.363 . S
C2608 C2613 1.379 . S
C2608 N2615 1.356 . S
C2609 C2608 1.363 . S
C2609 C2612 1.363 . S
N2610 C2612 1.356 . S
N2610 H2622 0.984 . S
N2610 H2623 0.985 . S
N2611 C2613 1.356 . S
N2611 H2616 0.984 . S
N2611 H2617 0.985 . S
C2612 C2606 1.379 . S
C2612 C2609 1.363 . S
C2612 N2610 1.356 . S
C2613 C2607 1.363 . S
C2613 C2608 1.379 . S
C2613 N2611 1.356 . S
N2614 C2606 1.356 . S
N2614 H2620 0.984 . S
N2614 H2621 0.984 . S
N2615 C2608 1.356 . S
N2615 H2618 0.984 . S
N2615 H2619 0.985 . S
H2616 N2611 0.984 . S
H2617 N2611 0.985 . S
H2618 N2615 0.984 . S
H2619 N2615 0.985 . S
H2620 N2614 0.984 . S
H2621 N2614 0.984 . S
H2622 N2610 0.984 . S
H2623 N2610 0.985 . S
C2624 C2625 1.363 . S
C2624 C2630 1.379 . S
C2624 N2632 1.356 . S
C2625 C2624 1.363 . S
C2625 C2631 1.363 . S
C2626 C2627 1.363 . S
C2626 C2631 1.379 . S
C2626 N2633 1.356 . S
C2627 C2626 1.363 . S
C2627 C2630 1.363 . S
N2628 C2630 1.356 . S
N2628 H2640 0.984 . S
N2628 H2641 0.985 . S
N2629 C2631 1.356 . S
N2629 H2634 0.984 . S
N2629 H2635 0.985 . S
C2630 C2624 1.379 . S
C2630 C2627 1.363 . S
C2630 N2628 1.356 . S
C2631 C2625 1.363 . S
C2631 C2626 1.379 . S
C2631 N2629 1.356 . S
N2632 C2624 1.356 . S
N2632 H2638 0.984 . S
N2632 H2639 0.984 . S
N2633 C2626 1.356 . S
N2633 H2636 0.984 . S
N2633 H2637 0.985 . S
H2634 N2629 0.984 . S
H2635 N2629 0.985 . S
H2636 N2633 0.984 . S
H2637 N2633 0.985 . S
H2638 N2632 0.984 . S
H2639 N2632 0.984 . S
H2640 N2628 0.984 . S
H2641 N2628 0.985 . S
C2642 C2643 1.363 . S
C2642 C2648 1.379 . S
C2642 N2650 1.356 . S
C2643 C2642 1.363 . S
C2643 C2649 1.363 . S
C2644 C2645 1.363 . S
C2644 C2649 1.379 . S
C2644 N2651 1.356 . S
C2645 C2644 1.363 . S
C2645 C2648 1.363 . S
N2646 C2648 1.356 . S
N2646 H2658 0.984 . S
N2646 H2659 0.985 . S
N2647 C2649 1.356 . S
N2647 H2652 0.984 . S
N2647 H2653 0.985 . S
C2648 C2642 1.379 . S
C2648 C2645 1.363 . S
C2648 N2646 1.356 . S
C2649 C2643 1.363 . S
C2649 C2644 1.379 . S
C2649 N2647 1.356 . S
N2650 C2642 1.356 . S
N2650 H2656 0.984 . S
N2650 H2657 0.984 . S
N2651 C2644 1.356 . S
N2651 H2654 0.984 . S
N2651 H2655 0.985 . S
H2652 N2647 0.984 . S
H2653 N2647 0.985 . S
H2654 N2651 0.984 . S
H2655 N2651 0.985 . S
H2656 N2650 0.984 . S
H2657 N2650 0.984 . S
H2658 N2646 0.984 . S
H2659 N2646 0.985 . S
C2660 C2661 1.363 . S
C2660 C2666 1.379 . S
C2660 N2668 1.356 . S
C2661 C2660 1.363 . S
C2661 C2667 1.363 . S
C2662 C2663 1.363 . S
C2662 C2667 1.379 . S
C2662 N2669 1.356 . S
C2663 C2662 1.363 . S
C2663 C2666 1.363 . S
N2664 C2666 1.356 . S
N2664 H2676 0.984 . S
N2664 H2677 0.985 . S
N2665 C2667 1.356 . S
N2665 H2670 0.984 . S
N2665 H2671 0.985 . S
C2666 C2660 1.379 . S
C2666 C2663 1.363 . S
C2666 N2664 1.356 . S
C2667 C2661 1.363 . S
C2667 C2662 1.379 . S
C2667 N2665 1.356 . S
N2668 C2660 1.356 . S
N2668 H2674 0.984 . S
N2668 H2675 0.984 . S
N2669 C2662 1.356 . S
N2669 H2672 0.984 . S
N2669 H2673 0.985 . S
H2670 N2665 0.984 . S
H2671 N2665 0.985 . S
H2672 N2669 0.984 . S
H2673 N2669 0.985 . S
H2674 N2668 0.984 . S
H2675 N2668 0.984 . S
H2676 N2664 0.984 . S
H2677 N2664 0.985 . S
C2678 C2679 1.363 . S
C2678 C2684 1.379 . S
C2678 N2686 1.356 . S
C2679 C2678 1.363 . S
C2679 C2685 1.363 . S
C2680 C2681 1.363 . S
C2680 C2685 1.379 . S
C2680 N2687 1.356 . S
C2681 C2680 1.363 . S
C2681 C2684 1.363 . S
N2682 C2684 1.356 . S
N2682 H2694 0.984 . S
N2682 H2695 0.985 . S
N2683 C2685 1.356 . S
N2683 H2688 0.984 . S
N2683 H2689 0.985 . S
C2684 C2678 1.379 . S
C2684 C2681 1.363 . S
C2684 N2682 1.356 . S
C2685 C2679 1.363 . S
C2685 C2680 1.379 . S
C2685 N2683 1.356 . S
N2686 C2678 1.356 . S
N2686 H2692 0.984 . S
N2686 H2693 0.984 . S
N2687 C2680 1.356 . S
N2687 H2690 0.984 . S
N2687 H2691 0.985 . S
H2688 N2683 0.984 . S
H2689 N2683 0.985 . S
H2690 N2687 0.984 . S
H2691 N2687 0.985 . S
H2692 N2686 0.984 . S
H2693 N2686 0.984 . S
H2694 N2682 0.984 . S
H2695 N2682 0.985 . S
C2696 C2697 1.363 . S
C2696 C2702 1.379 . S
C2696 N2704 1.356 . S
C2697 C2696 1.363 . S
C2697 C2703 1.363 . S
C2698 C2699 1.363 . S
C2698 C2703 1.379 . S
C2698 N2705 1.356 . S
C2699 C2698 1.363 . S
C2699 C2702 1.363 . S
N2700 C2702 1.356 . S
N2700 H2712 0.984 . S
N2700 H2713 0.985 . S
N2701 C2703 1.356 . S
N2701 H2706 0.984 . S
N2701 H2707 0.985 . S
C2702 C2696 1.379 . S
C2702 C2699 1.363 . S
C2702 N2700 1.356 . S
C2703 C2697 1.363 . S
C2703 C2698 1.379 . S
C2703 N2701 1.356 . S
N2704 C2696 1.356 . S
N2704 H2710 0.984 . S
N2704 H2711 0.984 . S
N2705 C2698 1.356 . S
N2705 H2708 0.984 . S
N2705 H2709 0.985 . S
H2706 N2701 0.984 . S
H2707 N2701 0.985 . S
H2708 N2705 0.984 . S
H2709 N2705 0.985 . S
H2710 N2704 0.984 . S
H2711 N2704 0.984 . S
H2712 N2700 0.984 . S
H2713 N2700 0.985 . S
C2714 C2715 1.363 . S
C2714 C2720 1.379 . S
C2714 N2722 1.356 . S
C2715 C2714 1.363 . S
C2715 C2721 1.363 . S
C2716 C2717 1.363 . S
C2716 C2721 1.379 . S
C2716 N2723 1.356 . S
C2717 C2716 1.363 . S
C2717 C2720 1.363 . S
N2718 C2720 1.356 . S
N2718 H2730 0.984 . S
N2718 H2731 0.985 . S
N2719 C2721 1.356 . S
N2719 H2724 0.984 . S
N2719 H2725 0.985 . S
C2720 C2714 1.379 . S
C2720 C2717 1.363 . S
C2720 N2718 1.356 . S
C2721 C2715 1.363 . S
C2721 C2716 1.379 . S
C2721 N2719 1.356 . S
N2722 C2714 1.356 . S
N2722 H2728 0.984 . S
N2722 H2729 0.984 . S
N2723 C2716 1.356 . S
N2723 H2726 0.984 . S
N2723 H2727 0.985 . S
H2724 N2719 0.984 . S
H2725 N2719 0.985 . S
H2726 N2723 0.984 . S
H2727 N2723 0.985 . S
H2728 N2722 0.984 . S
H2729 N2722 0.984 . S
H2730 N2718 0.984 . S
H2731 N2718 0.985 . S
C2732 C2733 1.363 . S
C2732 C2738 1.379 . S
C2732 N2740 1.356 . S
C2733 C2732 1.363 . S
C2733 C2739 1.363 . S
C2734 C2735 1.363 . S
C2734 C2739 1.379 . S
C2734 N2741 1.356 . S
C2735 C2734 1.363 . S
C2735 C2738 1.363 . S
N2736 C2738 1.356 . S
N2736 H2748 0.984 . S
N2736 H2749 0.985 . S
N2737 C2739 1.356 . S
N2737 H2742 0.984 . S
N2737 H2743 0.985 . S
C2738 C2732 1.379 . S
C2738 C2735 1.363 . S
C2738 N2736 1.356 . S
C2739 C2733 1.363 . S
C2739 C2734 1.379 . S
C2739 N2737 1.356 . S
N2740 C2732 1.356 . S
N2740 H2746 0.984 . S
N2740 H2747 0.984 . S
N2741 C2734 1.356 . S
N2741 H2744 0.984 . S
N2741 H2745 0.985 . S
H2742 N2737 0.984 . S
H2743 N2737 0.985 . S
H2744 N2741 0.984 . S
H2745 N2741 0.985 . S
H2746 N2740 0.984 . S
H2747 N2740 0.984 . S
H2748 N2736 0.984 . S
H2749 N2736 0.985 . S
C2750 C2751 1.363 . S
C2750 C2756 1.379 . S
C2750 N2758 1.356 . S
C2751 C2750 1.363 . S
C2751 C2757 1.363 . S
C2752 C2753 1.363 . S
C2752 C2757 1.379 . S
C2752 N2759 1.356 . S
C2753 C2752 1.363 . S
C2753 C2756 1.363 . S
N2754 C2756 1.356 . S
N2754 H2766 0.984 . S
N2754 H2767 0.985 . S
N2755 C2757 1.356 . S
N2755 H2760 0.984 . S
N2755 H2761 0.985 . S
C2756 C2750 1.379 . S
C2756 C2753 1.363 . S
C2756 N2754 1.356 . S
C2757 C2751 1.363 . S
C2757 C2752 1.379 . S
C2757 N2755 1.356 . S
N2758 C2750 1.356 . S
N2758 H2764 0.984 . S
N2758 H2765 0.984 . S
N2759 C2752 1.356 . S
N2759 H2762 0.984 . S
N2759 H2763 0.985 . S
H2760 N2755 0.984 . S
H2761 N2755 0.985 . S
H2762 N2759 0.984 . S
H2763 N2759 0.985 . S
H2764 N2758 0.984 . S
H2765 N2758 0.984 . S
H2766 N2754 0.984 . S
H2767 N2754 0.985 . S
C2768 C2769 1.363 . S
C2768 C2774 1.379 . S
C2768 N2776 1.356 . S
C2769 C2768 1.363 . S
C2769 C2775 1.363 . S
C2770 C2771 1.363 . S
C2770 C2775 1.379 . S
C2770 N2777 1.356 . S
C2771 C2770 1.363 . S
C2771 C2774 1.363 . S
N2772 C2774 1.356 . S
N2772 H2784 0.984 . S
N2772 H2785 0.985 . S
N2773 C2775 1.356 . S
N2773 H2778 0.984 . S
N2773 H2779 0.985 . S
C2774 C2768 1.379 . S
C2774 C2771 1.363 . S
C2774 N2772 1.356 . S
C2775 C2769 1.363 . S
C2775 C2770 1.379 . S
C2775 N2773 1.356 . S
N2776 C2768 1.356 . S
N2776 H2782 0.984 . S
N2776 H2783 0.984 . S
N2777 C2770 1.356 . S
N2777 H2780 0.984 . S
N2777 H2781 0.985 . S
H2778 N2773 0.984 . S
H2779 N2773 0.985 . S
H2780 N2777 0.984 . S
H2781 N2777 0.985 . S
H2782 N2776 0.984 . S
H2783 N2776 0.984 . S
H2784 N2772 0.984 . S
H2785 N2772 0.985 . S
C2786 C2787 1.363 . S
C2786 C2792 1.379 . S
C2786 N2794 1.356 . S
C2787 C2786 1.363 . S
C2787 C2793 1.363 . S
C2788 C2789 1.363 . S
C2788 C2793 1.379 . S
C2788 N2795 1.356 . S
C2789 C2788 1.363 . S
C2789 C2792 1.363 . S
N2790 C2792 1.356 . S
N2790 H2802 0.984 . S
N2790 H2803 0.985 . S
N2791 C2793 1.356 . S
N2791 H2796 0.984 . S
N2791 H2797 0.985 . S
C2792 C2786 1.379 . S
C2792 C2789 1.363 . S
C2792 N2790 1.356 . S
C2793 C2787 1.363 . S
C2793 C2788 1.379 . S
C2793 N2791 1.356 . S
N2794 C2786 1.356 . S
N2794 H2800 0.984 . S
N2794 H2801 0.984 . S
N2795 C2788 1.356 . S
N2795 H2798 0.984 . S
N2795 H2799 0.985 . S
H2796 N2791 0.984 . S
H2797 N2791 0.985 . S
H2798 N2795 0.984 . S
H2799 N2795 0.985 . S
H2800 N2794 0.984 . S
H2801 N2794 0.984 . S
H2802 N2790 0.984 . S
H2803 N2790 0.985 . S
C2804 C2805 1.363 . S
C2804 C2810 1.379 . S
C2804 N2812 1.356 . S
C2805 C2804 1.363 . S
C2805 C2811 1.363 . S
C2806 C2807 1.363 . S
C2806 C2811 1.379 . S
C2806 N2813 1.356 . S
C2807 C2806 1.363 . S
C2807 C2810 1.363 . S
N2808 C2810 1.356 . S
N2808 H2820 0.984 . S
N2808 H2821 0.985 . S
N2809 C2811 1.356 . S
N2809 H2814 0.984 . S
N2809 H2815 0.985 . S
C2810 C2804 1.379 . S
C2810 C2807 1.363 . S
C2810 N2808 1.356 . S
C2811 C2805 1.363 . S
C2811 C2806 1.379 . S
C2811 N2809 1.356 . S
N2812 C2804 1.356 . S
N2812 H2818 0.984 . S
N2812 H2819 0.984 . S
N2813 C2806 1.356 . S
N2813 H2816 0.984 . S
N2813 H2817 0.985 . S
H2814 N2809 0.984 . S
H2815 N2809 0.985 . S
H2816 N2813 0.984 . S
H2817 N2813 0.985 . S
H2818 N2812 0.984 . S
H2819 N2812 0.984 . S
H2820 N2808 0.984 . S
H2821 N2808 0.985 . S
C2822 C2823 1.363 . S
C2822 C2828 1.379 . S
C2822 N2830 1.356 . S
C2823 C2822 1.363 . S
C2823 C2829 1.363 . S
C2824 C2825 1.363 . S
C2824 C2829 1.379 . S
C2824 N2831 1.356 . S
C2825 C2824 1.363 . S
C2825 C2828 1.363 . S
N2826 C2828 1.356 . S
N2826 H2838 0.984 . S
N2826 H2839 0.985 . S
N2827 C2829 1.356 . S
N2827 H2832 0.984 . S
N2827 H2833 0.985 . S
C2828 C2822 1.379 . S
C2828 C2825 1.363 . S
C2828 N2826 1.356 . S
C2829 C2823 1.363 . S
C2829 C2824 1.379 . S
C2829 N2827 1.356 . S
N2830 C2822 1.356 . S
N2830 H2836 0.984 . S
N2830 H2837 0.984 . S
N2831 C2824 1.356 . S
N2831 H2834 0.984 . S
N2831 H2835 0.985 . S
H2832 N2827 0.984 . S
H2833 N2827 0.985 . S
H2834 N2831 0.984 . S
H2835 N2831 0.985 . S
H2836 N2830 0.984 . S
H2837 N2830 0.984 . S
H2838 N2826 0.984 . S
H2839 N2826 0.985 . S
C2840 C2841 1.363 . S
C2840 C2846 1.379 . S
C2840 N2848 1.356 . S
C2841 C2840 1.363 . S
C2841 C2847 1.363 . S
C2842 C2843 1.363 . S
C2842 C2847 1.379 . S
C2842 N2849 1.356 . S
C2843 C2842 1.363 . S
C2843 C2846 1.363 . S
N2844 C2846 1.356 . S
N2844 H2856 0.984 . S
N2844 H2857 0.985 . S
N2845 C2847 1.356 . S
N2845 H2850 0.984 . S
N2845 H2851 0.985 . S
C2846 C2840 1.379 . S
C2846 C2843 1.363 . S
C2846 N2844 1.356 . S
C2847 C2841 1.363 . S
C2847 C2842 1.379 . S
C2847 N2845 1.356 . S
N2848 C2840 1.356 . S
N2848 H2854 0.984 . S
N2848 H2855 0.984 . S
N2849 C2842 1.356 . S
N2849 H2852 0.984 . S
N2849 H2853 0.985 . S
H2850 N2845 0.984 . S
H2851 N2845 0.985 . S
H2852 N2849 0.984 . S
H2853 N2849 0.985 . S
H2854 N2848 0.984 . S
H2855 N2848 0.984 . S
H2856 N2844 0.984 . S
H2857 N2844 0.985 . S
C2858 C2859 1.363 . S
C2858 C2864 1.379 . S
C2858 N2866 1.356 . S
C2859 C2858 1.363 . S
C2859 C2865 1.363 . S
C2860 C2861 1.363 . S
C2860 C2865 1.379 . S
C2860 N2867 1.356 . S
C2861 C2860 1.363 . S
C2861 C2864 1.363 . S
N2862 C2864 1.356 . S
N2862 H2874 0.984 . S
N2862 H2875 0.985 . S
N2863 C2865 1.356 . S
N2863 H2868 0.984 . S
N2863 H2869 0.985 . S
C2864 C2858 1.379 . S
C2864 C2861 1.363 . S
C2864 N2862 1.356 . S
C2865 C2859 1.363 . S
C2865 C2860 1.379 . S
C2865 N2863 1.356 . S
N2866 C2858 1.356 . S
N2866 H2872 0.984 . S
N2866 H2873 0.984 . S
N2867 C2860 1.356 . S
N2867 H2870 0.984 . S
N2867 H2871 0.985 . S
H2868 N2863 0.984 . S
H2869 N2863 0.985 . S
H2870 N2867 0.984 . S
H2871 N2867 0.985 . S
H2872 N2866 0.984 . S
H2873 N2866 0.984 . S
H2874 N2862 0.984 . S
H2875 N2862 0.985 . S
C2876 C2877 1.363 . S
C2876 C2882 1.379 . S
C2876 N2884 1.356 . S
C2877 C2876 1.363 . S
C2877 C2883 1.363 . S
C2878 C2879 1.363 . S
C2878 C2883 1.379 . S
C2878 N2885 1.356 . S
C2879 C2878 1.363 . S
C2879 C2882 1.363 . S
N2880 C2882 1.356 . S
N2880 H2892 0.984 . S
N2880 H2893 0.985 . S
N2881 C2883 1.356 . S
N2881 H2886 0.984 . S
N2881 H2887 0.985 . S
C2882 C2876 1.379 . S
C2882 C2879 1.363 . S
C2882 N2880 1.356 . S
C2883 C2877 1.363 . S
C2883 C2878 1.379 . S
C2883 N2881 1.356 . S
N2884 C2876 1.356 . S
N2884 H2890 0.984 . S
N2884 H2891 0.984 . S
N2885 C2878 1.356 . S
N2885 H2888 0.984 . S
N2885 H2889 0.985 . S
H2886 N2881 0.984 . S
H2887 N2881 0.985 . S
H2888 N2885 0.984 . S
H2889 N2885 0.985 . S
H2890 N2884 0.984 . S
H2891 N2884 0.984 . S
H2892 N2880 0.984 . S
H2893 N2880 0.985 . S
C2894 C2895 1.363 . S
C2894 C2900 1.379 . S
C2894 N2902 1.356 . S
C2895 C2894 1.363 . S
C2895 C2901 1.363 . S
C2896 C2897 1.363 . S
C2896 C2901 1.379 . S
C2896 N2903 1.356 . S
C2897 C2896 1.363 . S
C2897 C2900 1.363 . S
N2898 C2900 1.356 . S
N2898 H2910 0.984 . S
N2898 H2911 0.985 . S
N2899 C2901 1.356 . S
N2899 H2904 0.984 . S
N2899 H2905 0.985 . S
C2900 C2894 1.379 . S
C2900 C2897 1.363 . S
C2900 N2898 1.356 . S
C2901 C2895 1.363 . S
C2901 C2896 1.379 . S
C2901 N2899 1.356 . S
N2902 C2894 1.356 . S
N2902 H2908 0.984 . S
N2902 H2909 0.984 . S
N2903 C2896 1.356 . S
N2903 H2906 0.984 . S
N2903 H2907 0.985 . S
H2904 N2899 0.984 . S
H2905 N2899 0.985 . S
H2906 N2903 0.984 . S
H2907 N2903 0.985 . S
H2908 N2902 0.984 . S
H2909 N2902 0.984 . S
H2910 N2898 0.984 . S
H2911 N2898 0.985 . S
C2912 C2913 1.363 . S
C2912 C2918 1.379 . S
C2912 N2920 1.356 . S
C2913 C2912 1.363 . S
C2913 C2919 1.363 . S
C2914 C2915 1.363 . S
C2914 C2919 1.379 . S
C2914 N2921 1.356 . S
C2915 C2914 1.363 . S
C2915 C2918 1.363 . S
N2916 C2918 1.356 . S
N2916 H2928 0.984 . S
N2916 H2929 0.985 . S
N2917 C2919 1.356 . S
N2917 H2922 0.984 . S
N2917 H2923 0.985 . S
C2918 C2912 1.379 . S
C2918 C2915 1.363 . S
C2918 N2916 1.356 . S
C2919 C2913 1.363 . S
C2919 C2914 1.379 . S
C2919 N2917 1.356 . S
N2920 C2912 1.356 . S
N2920 H2926 0.984 . S
N2920 H2927 0.984 . S
N2921 C2914 1.356 . S
N2921 H2924 0.984 . S
N2921 H2925 0.985 . S
H2922 N2917 0.984 . S
H2923 N2917 0.985 . S
H2924 N2921 0.984 . S
H2925 N2921 0.985 . S
H2926 N2920 0.984 . S
H2927 N2920 0.984 . S
H2928 N2916 0.984 . S
H2929 N2916 0.985 . S
C2930 C2931 1.363 . S
C2930 C2936 1.379 . S
C2930 N2938 1.356 . S
C2931 C2930 1.363 . S
C2931 C2937 1.363 . S
C2932 C2933 1.363 . S
C2932 C2937 1.379 . S
C2932 N2939 1.356 . S
C2933 C2932 1.363 . S
C2933 C2936 1.363 . S
N2934 C2936 1.356 . S
N2934 H2946 0.984 . S
N2934 H2947 0.985 . S
N2935 C2937 1.356 . S
N2935 H2940 0.984 . S
N2935 H2941 0.985 . S
C2936 C2930 1.379 . S
C2936 C2933 1.363 . S
C2936 N2934 1.356 . S
C2937 C2931 1.363 . S
C2937 C2932 1.379 . S
C2937 N2935 1.356 . S
N2938 C2930 1.356 . S
N2938 H2944 0.984 . S
N2938 H2945 0.984 . S
N2939 C2932 1.356 . S
N2939 H2942 0.984 . S
N2939 H2943 0.985 . S
H2940 N2935 0.984 . S
H2941 N2935 0.985 . S
H2942 N2939 0.984 . S
H2943 N2939 0.985 . S
H2944 N2938 0.984 . S
H2945 N2938 0.984 . S
H2946 N2934 0.984 . S
H2947 N2934 0.985 . S
C2948 C2949 1.363 . S
C2948 C2954 1.379 . S
C2948 N2956 1.356 . S
C2949 C2948 1.363 . S
C2949 C2955 1.363 . S
C2950 C2951 1.363 . S
C2950 C2955 1.379 . S
C2950 N2957 1.356 . S
C2951 C2950 1.363 . S
C2951 C2954 1.363 . S
N2952 C2954 1.356 . S
N2952 H2964 0.984 . S
N2952 H2965 0.985 . S
N2953 C2955 1.356 . S
N2953 H2958 0.984 . S
N2953 H2959 0.985 . S
C2954 C2948 1.379 . S
C2954 C2951 1.363 . S
C2954 N2952 1.356 . S
C2955 C2949 1.363 . S
C2955 C2950 1.379 . S
C2955 N2953 1.356 . S
N2956 C2948 1.356 . S
N2956 H2962 0.984 . S
N2956 H2963 0.984 . S
N2957 C2950 1.356 . S
N2957 H2960 0.984 . S
N2957 H2961 0.985 . S
H2958 N2953 0.984 . S
H2959 N2953 0.985 . S
H2960 N2957 0.984 . S
H2961 N2957 0.985 . S
H2962 N2956 0.984 . S
H2963 N2956 0.984 . S
H2964 N2952 0.984 . S
H2965 N2952 0.985 . S
C2966 C2967 1.363 . S
C2966 C2972 1.379 . S
C2966 N2974 1.356 . S
C2967 C2966 1.363 . S
C2967 C2973 1.363 . S
C2968 C2969 1.363 . S
C2968 C2973 1.379 . S
C2968 N2975 1.356 . S
C2969 C2968 1.363 . S
C2969 C2972 1.363 . S
N2970 C2972 1.356 . S
N2970 H2982 0.984 . S
N2970 H2983 0.985 . S
N2971 C2973 1.356 . S
N2971 H2976 0.984 . S
N2971 H2977 0.985 . S
C2972 C2966 1.379 . S
C2972 C2969 1.363 . S
C2972 N2970 1.356 . S
C2973 C2967 1.363 . S
C2973 C2968 1.379 . S
C2973 N2971 1.356 . S
N2974 C2966 1.356 . S
N2974 H2980 0.984 . S
N2974 H2981 0.984 . S
N2975 C2968 1.356 . S
N2975 H2978 0.984 . S
N2975 H2979 0.985 . S
H2976 N2971 0.984 . S
H2977 N2971 0.985 . S
H2978 N2975 0.984 . S
H2979 N2975 0.985 . S
H2980 N2974 0.984 . S
H2981 N2974 0.984 . S
H2982 N2970 0.984 . S
H2983 N2970 0.985 . S
C2984 C2985 1.363 . S
C2984 C2990 1.379 . S
C2984 N2992 1.356 . S
C2985 C2984 1.363 . S
C2985 C2991 1.363 . S
C2986 C2987 1.363 . S
C2986 C2991 1.379 . S
C2986 N2993 1.356 . S
C2987 C2986 1.363 . S
C2987 C2990 1.363 . S
N2988 C2990 1.356 . S
N2988 H3000 0.984 . S
N2988 H3001 0.985 . S
N2989 C2991 1.356 . S
N2989 H2994 0.984 . S
N2989 H2995 0.985 . S
C2990 C2984 1.379 . S
C2990 C2987 1.363 . S
C2990 N2988 1.356 . S
C2991 C2985 1.363 . S
C2991 C2986 1.379 . S
C2991 N2989 1.356 . S
N2992 C2984 1.356 . S
N2992 H2998 0.984 . S
N2992 H2999 0.984 . S
N2993 C2986 1.356 . S
N2993 H2996 0.984 . S
N2993 H2997 0.985 . S
H2994 N2989 0.984 . S
H2995 N2989 0.985 . S
H2996 N2993 0.984 . S
H2997 N2993 0.985 . S
H2998 N2992 0.984 . S
H2999 N2992 0.984 . S
H3000 N2988 0.984 . S
H3001 N2988 0.985 . S
C3002 C3003 1.363 . S
C3002 C3008 1.379 . S
C3002 N3010 1.356 . S
C3003 C3002 1.363 . S
C3003 C3009 1.363 . S
C3004 C3005 1.363 . S
C3004 C3009 1.379 . S
C3004 N3011 1.356 . S
C3005 C3004 1.363 . S
C3005 C3008 1.363 . S
N3006 C3008 1.356 . S
N3006 H3018 0.984 . S
N3006 H3019 0.985 . S
N3007 C3009 1.356 . S
N3007 H3012 0.984 . S
N3007 H3013 0.985 . S
C3008 C3002 1.379 . S
C3008 C3005 1.363 . S
C3008 N3006 1.356 . S
C3009 C3003 1.363 . S
C3009 C3004 1.379 . S
C3009 N3007 1.356 . S
N3010 C3002 1.356 . S
N3010 H3016 0.984 . S
N3010 H3017 0.984 . S
N3011 C3004 1.356 . S
N3011 H3014 0.984 . S
N3011 H3015 0.985 . S
H3012 N3007 0.984 . S
H3013 N3007 0.985 . S
H3014 N3011 0.984 . S
H3015 N3011 0.985 . S
H3016 N3010 0.984 . S
H3017 N3010 0.984 . S
H3018 N3006 0.984 . S
H3019 N3006 0.985 . S
C3020 C3021 1.363 . S
C3020 C3026 1.379 . S
C3020 N3028 1.356 . S
C3021 C3020 1.363 . S
C3021 C3027 1.363 . S
C3022 C3023 1.363 . S
C3022 C3027 1.379 . S
C3022 N3029 1.356 . S
C3023 C3022 1.363 . S
C3023 C3026 1.363 . S
N3024 C3026 1.356 . S
N3024 H3036 0.984 . S
N3024 H3037 0.985 . S
N3025 C3027 1.356 . S
N3025 H3030 0.984 . S
N3025 H3031 0.985 . S
C3026 C3020 1.379 . S
C3026 C3023 1.363 . S
C3026 N3024 1.356 . S
C3027 C3021 1.363 . S
C3027 C3022 1.379 . S
C3027 N3025 1.356 . S
N3028 C3020 1.356 . S
N3028 H3034 0.984 . S
N3028 H3035 0.984 . S
N3029 C3022 1.356 . S
N3029 H3032 0.984 . S
N3029 H3033 0.985 . S
H3030 N3025 0.984 . S
H3031 N3025 0.985 . S
H3032 N3029 0.984 . S
H3033 N3029 0.985 . S
H3034 N3028 0.984 . S
H3035 N3028 0.984 . S
H3036 N3024 0.984 . S
H3037 N3024 0.985 . S
C3038 C3039 1.363 . S
C3038 C3044 1.379 . S
C3038 N3046 1.356 . S
C3039 C3038 1.363 . S
C3039 C3045 1.363 . S
C3040 C3041 1.363 . S
C3040 C3045 1.379 . S
C3040 N3047 1.356 . S
C3041 C3040 1.363 . S
C3041 C3044 1.363 . S
N3042 C3044 1.356 . S
N3042 H3054 0.984 . S
N3042 H3055 0.985 . S
N3043 C3045 1.356 . S
N3043 H3048 0.984 . S
N3043 H3049 0.985 . S
C3044 C3038 1.379 . S
C3044 C3041 1.363 . S
C3044 N3042 1.356 . S
C3045 C3039 1.363 . S
C3045 C3040 1.379 . S
C3045 N3043 1.356 . S
N3046 C3038 1.356 . S
N3046 H3052 0.984 . S
N3046 H3053 0.984 . S
N3047 C3040 1.356 . S
N3047 H3050 0.984 . S
N3047 H3051 0.985 . S
H3048 N3043 0.984 . S
H3049 N3043 0.985 . S
H3050 N3047 0.984 . S
H3051 N3047 0.985 . S
H3052 N3046 0.984 . S
H3053 N3046 0.984 . S
H3054 N3042 0.984 . S
H3055 N3042 0.985 . S
C3056 C3057 1.363 . S
C3056 C3062 1.379 . S
C3056 N3064 1.356 . S
C3057 C3056 1.363 . S
C3057 C3063 1.363 . S
C3058 C3059 1.363 . S
C3058 C3063 1.379 . S
C3058 N3065 1.356 . S
C3059 C3058 1.363 . S
C3059 C3062 1.363 . S
N3060 C3062 1.356 . S
N3060 H3072 0.984 . S
N3060 H3073 0.985 . S
N3061 C3063 1.356 . S
N3061 H3066 0.984 . S
N3061 H3067 0.985 . S
C3062 C3056 1.379 . S
C3062 C3059 1.363 . S
C3062 N3060 1.356 . S
C3063 C3057 1.363 . S
C3063 C3058 1.379 . S
C3063 N3061 1.356 . S
N3064 C3056 1.356 . S
N3064 H3070 0.984 . S
N3064 H3071 0.984 . S
N3065 C3058 1.356 . S
N3065 H3068 0.984 . S
N3065 H3069 0.985 . S
H3066 N3061 0.984 . S
H3067 N3061 0.985 . S
H3068 N3065 0.984 . S
H3069 N3065 0.985 . S
H3070 N3064 0.984 . S
H3071 N3064 0.984 . S
H3072 N3060 0.984 . S
H3073 N3060 0.985 . S
C3074 C3075 1.363 . S
C3074 C3080 1.379 . S
C3074 N3082 1.356 . S
C3075 C3074 1.363 . S
C3075 C3081 1.363 . S
C3076 C3077 1.363 . S
C3076 C3081 1.379 . S
C3076 N3083 1.356 . S
C3077 C3076 1.363 . S
C3077 C3080 1.363 . S
N3078 C3080 1.356 . S
N3078 H3090 0.984 . S
N3078 H3091 0.985 . S
N3079 C3081 1.356 . S
N3079 H3084 0.984 . S
N3079 H3085 0.985 . S
C3080 C3074 1.379 . S
C3080 C3077 1.363 . S
C3080 N3078 1.356 . S
C3081 C3075 1.363 . S
C3081 C3076 1.379 . S
C3081 N3079 1.356 . S
N3082 C3074 1.356 . S
N3082 H3088 0.984 . S
N3082 H3089 0.984 . S
N3083 C3076 1.356 . S
N3083 H3086 0.984 . S
N3083 H3087 0.985 . S
H3084 N3079 0.984 . S
H3085 N3079 0.985 . S
H3086 N3083 0.984 . S
H3087 N3083 0.985 . S
H3088 N3082 0.984 . S
H3089 N3082 0.984 . S
H3090 N3078 0.984 . S
H3091 N3078 0.985 . S
C3092 C3093 1.363 . S
C3092 C3098 1.379 . S
C3092 N3100 1.356 . S
C3093 C3092 1.363 . S
C3093 C3099 1.363 . S
C3094 C3095 1.363 . S
C3094 C3099 1.379 . S
C3094 N3101 1.356 . S
C3095 C3094 1.363 . S
C3095 C3098 1.363 . S
N3096 C3098 1.356 . S
N3096 H3108 0.984 . S
N3096 H3109 0.985 . S
N3097 C3099 1.356 . S
N3097 H3102 0.984 . S
N3097 H3103 0.985 . S
C3098 C3092 1.379 . S
C3098 C3095 1.363 . S
C3098 N3096 1.356 . S
C3099 C3093 1.363 . S
C3099 C3094 1.379 . S
C3099 N3097 1.356 . S
N3100 C3092 1.356 . S
N3100 H3106 0.984 . S
N3100 H3107 0.984 . S
N3101 C3094 1.356 . S
N3101 H3104 0.984 . S
N3101 H3105 0.985 . S
H3102 N3097 0.984 . S
H3103 N3097 0.985 . S
H3104 N3101 0.984 . S
H3105 N3101 0.985 . S
H3106 N3100 0.984 . S
H3107 N3100 0.984 . S
H3108 N3096 0.984 . S
H3109 N3096 0.985 . S
C3110 C3111 1.363 . S
C3110 C3116 1.379 . S
C3110 N3118 1.356 . S
C3111 C3110 1.363 . S
C3111 C3117 1.363 . S
C3112 C3113 1.363 . S
C3112 C3117 1.379 . S
C3112 N3119 1.356 . S
C3113 C3112 1.363 . S
C3113 C3116 1.363 . S
N3114 C3116 1.356 . S
N3114 H3126 0.984 . S
N3114 H3127 0.985 . S
N3115 C3117 1.356 . S
N3115 H3120 0.984 . S
N3115 H3121 0.985 . S
C3116 C3110 1.379 . S
C3116 C3113 1.363 . S
C3116 N3114 1.356 . S
C3117 C3111 1.363 . S
C3117 C3112 1.379 . S
C3117 N3115 1.356 . S
N3118 C3110 1.356 . S
N3118 H3124 0.984 . S
N3118 H3125 0.984 . S
N3119 C3112 1.356 . S
N3119 H3122 0.984 . S
N3119 H3123 0.985 . S
H3120 N3115 0.984 . S
H3121 N3115 0.985 . S
H3122 N3119 0.984 . S
H3123 N3119 0.985 . S
H3124 N3118 0.984 . S
H3125 N3118 0.984 . S
H3126 N3114 0.984 . S
H3127 N3114 0.985 . S
C3128 C3129 1.363 . S
C3128 C3134 1.379 . S
C3128 N3136 1.356 . S
C3129 C3128 1.363 . S
C3129 C3135 1.363 . S
C3130 C3131 1.363 . S
C3130 C3135 1.379 . S
C3130 N3137 1.356 . S
C3131 C3130 1.363 . S
C3131 C3134 1.363 . S
N3132 C3134 1.356 . S
N3132 H3144 0.984 . S
N3132 H3145 0.985 . S
N3133 C3135 1.356 . S
N3133 H3138 0.984 . S
N3133 H3139 0.985 . S
C3134 C3128 1.379 . S
C3134 C3131 1.363 . S
C3134 N3132 1.356 . S
C3135 C3129 1.363 . S
C3135 C3130 1.379 . S
C3135 N3133 1.356 . S
N3136 C3128 1.356 . S
N3136 H3142 0.984 . S
N3136 H3143 0.984 . S
N3137 C3130 1.356 . S
N3137 H3140 0.984 . S
N3137 H3141 0.985 . S
H3138 N3133 0.984 . S
H3139 N3133 0.985 . S
H3140 N3137 0.984 . S
H3141 N3137 0.985 . S
H3142 N3136 0.984 . S
H3143 N3136 0.984 . S
H3144 N3132 0.984 . S
H3145 N3132 0.985 . S
C3146 C3147 1.363 . S
C3146 C3152 1.379 . S
C3146 N3154 1.356 . S
C3147 C3146 1.363 . S
C3147 C3153 1.363 . S
C3148 C3149 1.363 . S
C3148 C3153 1.379 . S
C3148 N3155 1.356 . S
C3149 C3148 1.363 . S
C3149 C3152 1.363 . S
N3150 C3152 1.356 . S
N3150 H3162 0.984 . S
N3150 H3163 0.985 . S
N3151 C3153 1.356 . S
N3151 H3156 0.984 . S
N3151 H3157 0.985 . S
C3152 C3146 1.379 . S
C3152 C3149 1.363 . S
C3152 N3150 1.356 . S
C3153 C3147 1.363 . S
C3153 C3148 1.379 . S
C3153 N3151 1.356 . S
N3154 C3146 1.356 . S
N3154 H3160 0.984 . S
N3154 H3161 0.984 . S
N3155 C3148 1.356 . S
N3155 H3158 0.984 . S
N3155 H3159 0.985 . S
H3156 N3151 0.984 . S
H3157 N3151 0.985 . S
H3158 N3155 0.984 . S
H3159 N3155 0.985 . S
H3160 N3154 0.984 . S
H3161 N3154 0.984 . S
H3162 N3150 0.984 . S
H3163 N3150 0.985 . S
C3164 C3165 1.363 . S
C3164 C3170 1.379 . S
C3164 N3172 1.356 . S
C3165 C3164 1.363 . S
C3165 C3171 1.363 . S
C3166 C3167 1.363 . S
C3166 C3171 1.379 . S
C3166 N3173 1.356 . S
C3167 C3166 1.363 . S
C3167 C3170 1.363 . S
N3168 C3170 1.356 . S
N3168 H3180 0.984 . S
N3168 H3181 0.985 . S
N3169 C3171 1.356 . S
N3169 H3174 0.984 . S
N3169 H3175 0.985 . S
C3170 C3164 1.379 . S
C3170 C3167 1.363 . S
C3170 N3168 1.356 . S
C3171 C3165 1.363 . S
C3171 C3166 1.379 . S
C3171 N3169 1.356 . S
N3172 C3164 1.356 . S
N3172 H3178 0.984 . S
N3172 H3179 0.984 . S
N3173 C3166 1.356 . S
N3173 H3176 0.984 . S
N3173 H3177 0.985 . S
H3174 N3169 0.984 . S
H3175 N3169 0.985 . S
H3176 N3173 0.984 . S
H3177 N3173 0.985 . S
H3178 N3172 0.984 . S
H3179 N3172 0.984 . S
H3180 N3168 0.984 . S
H3181 N3168 0.985 . S
C3182 C3183 1.363 . S
C3182 C3188 1.379 . S
C3182 N3190 1.356 . S
C3183 C3182 1.363 . S
C3183 C3189 1.363 . S
C3184 C3185 1.363 . S
C3184 C3189 1.379 . S
C3184 N3191 1.356 . S
C3185 C3184 1.363 . S
C3185 C3188 1.363 . S
N3186 C3188 1.356 . S
N3186 H3198 0.984 . S
N3186 H3199 0.985 . S
N3187 C3189 1.356 . S
N3187 H3192 0.984 . S
N3187 H3193 0.985 . S
C3188 C3182 1.379 . S
C3188 C3185 1.363 . S
C3188 N3186 1.356 . S
C3189 C3183 1.363 . S
C3189 C3184 1.379 . S
C3189 N3187 1.356 . S
N3190 C3182 1.356 . S
N3190 H3196 0.984 . S
N3190 H3197 0.984 . S
N3191 C3184 1.356 . S
N3191 H3194 0.984 . S
N3191 H3195 0.985 . S
H3192 N3187 0.984 . S
H3193 N3187 0.985 . S
H3194 N3191 0.984 . S
H3195 N3191 0.985 . S
H3196 N3190 0.984 . S
H3197 N3190 0.984 . S
H3198 N3186 0.984 . S
H3199 N3186 0.985 . S
C3200 C3201 1.363 . S
C3200 C3206 1.379 . S
C3200 N3208 1.356 . S
C3201 C3200 1.363 . S
C3201 C3207 1.363 . S
C3202 C3203 1.363 . S
C3202 C3207 1.379 . S
C3202 N3209 1.356 . S
C3203 C3202 1.363 . S
C3203 C3206 1.363 . S
N3204 C3206 1.356 . S
N3204 H3216 0.984 . S
N3204 H3217 0.985 . S
N3205 C3207 1.356 . S
N3205 H3210 0.984 . S
N3205 H3211 0.985 . S
C3206 C3200 1.379 . S
C3206 C3203 1.363 . S
C3206 N3204 1.356 . S
C3207 C3201 1.363 . S
C3207 C3202 1.379 . S
C3207 N3205 1.356 . S
N3208 C3200 1.356 . S
N3208 H3214 0.984 . S
N3208 H3215 0.984 . S
N3209 C3202 1.356 . S
N3209 H3212 0.984 . S
N3209 H3213 0.985 . S
H3210 N3205 0.984 . S
H3211 N3205 0.985 . S
H3212 N3209 0.984 . S
H3213 N3209 0.985 . S
H3214 N3208 0.984 . S
H3215 N3208 0.984 . S
H3216 N3204 0.984 . S
H3217 N3204 0.985 . S
C3218 C3219 1.363 . S
C3218 C3224 1.379 . S
C3218 N3226 1.356 . S
C3219 C3218 1.363 . S
C3219 C3225 1.363 . S
C3220 C3221 1.363 . S
C3220 C3225 1.379 . S
C3220 N3227 1.356 . S
C3221 C3220 1.363 . S
C3221 C3224 1.363 . S
N3222 C3224 1.356 . S
N3222 H3234 0.984 . S
N3222 H3235 0.985 . S
N3223 C3225 1.356 . S
N3223 H3228 0.984 . S
N3223 H3229 0.985 . S
C3224 C3218 1.379 . S
C3224 C3221 1.363 . S
C3224 N3222 1.356 . S
C3225 C3219 1.363 . S
C3225 C3220 1.379 . S
C3225 N3223 1.356 . S
N3226 C3218 1.356 . S
N3226 H3232 0.984 . S
N3226 H3233 0.984 . S
N3227 C3220 1.356 . S
N3227 H3230 0.984 . S
N3227 H3231 0.985 . S
H3228 N3223 0.984 . S
H3229 N3223 0.985 . S
H3230 N3227 0.984 . S
H3231 N3227 0.985 . S
H3232 N3226 0.984 . S
H3233 N3226 0.984 . S
H3234 N3222 0.984 . S
H3235 N3222 0.985 . S
C3236 C3237 1.363 . S
C3236 C3242 1.379 . S
C3236 N3244 1.356 . S
C3237 C3236 1.363 . S
C3237 C3243 1.363 . S
C3238 C3239 1.363 . S
C3238 C3243 1.379 . S
C3238 N3245 1.356 . S
C3239 C3238 1.363 . S
C3239 C3242 1.363 . S
N3240 C3242 1.356 . S
N3240 H3252 0.984 . S
N3240 H3253 0.985 . S
N3241 C3243 1.356 . S
N3241 H3246 0.984 . S
N3241 H3247 0.985 . S
C3242 C3236 1.379 . S
C3242 C3239 1.363 . S
C3242 N3240 1.356 . S
C3243 C3237 1.363 . S
C3243 C3238 1.379 . S
C3243 N3241 1.356 . S
N3244 C3236 1.356 . S
N3244 H3250 0.984 . S
N3244 H3251 0.984 . S
N3245 C3238 1.356 . S
N3245 H3248 0.984 . S
N3245 H3249 0.985 . S
H3246 N3241 0.984 . S
H3247 N3241 0.985 . S
H3248 N3245 0.984 . S
H3249 N3245 0.985 . S
H3250 N3244 0.984 . S
H3251 N3244 0.984 . S
H3252 N3240 0.984 . S
H3253 N3240 0.985 . S
C3254 C3255 1.363 . S
C3254 C3260 1.379 . S
C3254 N3262 1.356 . S
C3255 C3254 1.363 . S
C3255 C3261 1.363 . S
C3256 C3257 1.363 . S
C3256 C3261 1.379 . S
C3256 N3263 1.356 . S
C3257 C3256 1.363 . S
C3257 C3260 1.363 . S
N3258 C3260 1.356 . S
N3258 H3270 0.984 . S
N3258 H3271 0.985 . S
N3259 C3261 1.356 . S
N3259 H3264 0.984 . S
N3259 H3265 0.985 . S
C3260 C3254 1.379 . S
C3260 C3257 1.363 . S
C3260 N3258 1.356 . S
C3261 C3255 1.363 . S
C3261 C3256 1.379 . S
C3261 N3259 1.356 . S
N3262 C3254 1.356 . S
N3262 H3268 0.984 . S
N3262 H3269 0.984 . S
N3263 C3256 1.356 . S
N3263 H3266 0.984 . S
N3263 H3267 0.985 . S
H3264 N3259 0.984 . S
H3265 N3259 0.985 . S
H3266 N3263 0.984 . S
H3267 N3263 0.985 . S
H3268 N3262 0.984 . S
H3269 N3262 0.984 . S
H3270 N3258 0.984 . S
H3271 N3258 0.985 . S
C3272 C3273 1.363 . S
C3272 C3278 1.379 . S
C3272 N3280 1.356 . S
C3273 C3272 1.363 . S
C3273 C3279 1.363 . S
C3274 C3275 1.363 . S
C3274 C3279 1.379 . S
C3274 N3281 1.356 . S
C3275 C3274 1.363 . S
C3275 C3278 1.363 . S
N3276 C3278 1.356 . S
N3276 H3288 0.984 . S
N3276 H3289 0.985 . S
N3277 C3279 1.356 . S
N3277 H3282 0.984 . S
N3277 H3283 0.985 . S
C3278 C3272 1.379 . S
C3278 C3275 1.363 . S
C3278 N3276 1.356 . S
C3279 C3273 1.363 . S
C3279 C3274 1.379 . S
C3279 N3277 1.356 . S
N3280 C3272 1.356 . S
N3280 H3286 0.984 . S
N3280 H3287 0.984 . S
N3281 C3274 1.356 . S
N3281 H3284 0.984 . S
N3281 H3285 0.985 . S
H3282 N3277 0.984 . S
H3283 N3277 0.985 . S
H3284 N3281 0.984 . S
H3285 N3281 0.985 . S
H3286 N3280 0.984 . S
H3287 N3280 0.984 . S
H3288 N3276 0.984 . S
H3289 N3276 0.985 . S
C3290 C3291 1.363 . S
C3290 C3296 1.379 . S
C3290 N3298 1.356 . S
C3291 C3290 1.363 . S
C3291 C3297 1.363 . S
C3292 C3293 1.363 . S
C3292 C3297 1.379 . S
C3292 N3299 1.356 . S
C3293 C3292 1.363 . S
C3293 C3296 1.363 . S
N3294 C3296 1.356 . S
N3294 H3306 0.984 . S
N3294 H3307 0.985 . S
N3295 C3297 1.356 . S
N3295 H3300 0.984 . S
N3295 H3301 0.985 . S
C3296 C3290 1.379 . S
C3296 C3293 1.363 . S
C3296 N3294 1.356 . S
C3297 C3291 1.363 . S
C3297 C3292 1.379 . S
C3297 N3295 1.356 . S
N3298 C3290 1.356 . S
N3298 H3304 0.984 . S
N3298 H3305 0.984 . S
N3299 C3292 1.356 . S
N3299 H3302 0.984 . S
N3299 H3303 0.985 . S
H3300 N3295 0.984 . S
H3301 N3295 0.985 . S
H3302 N3299 0.984 . S
H3303 N3299 0.985 . S
H3304 N3298 0.984 . S
H3305 N3298 0.984 . S
H3306 N3294 0.984 . S
H3307 N3294 0.985 . S
C3308 C3309 1.363 . S
C3308 C3314 1.379 . S
C3308 N3316 1.356 . S
C3309 C3308 1.363 . S
C3309 C3315 1.363 . S
C3310 C3311 1.363 . S
C3310 C3315 1.379 . S
C3310 N3317 1.356 . S
C3311 C3310 1.363 . S
C3311 C3314 1.363 . S
N3312 C3314 1.356 . S
N3312 H3324 0.984 . S
N3312 H3325 0.985 . S
N3313 C3315 1.356 . S
N3313 H3318 0.984 . S
N3313 H3319 0.985 . S
C3314 C3308 1.379 . S
C3314 C3311 1.363 . S
C3314 N3312 1.356 . S
C3315 C3309 1.363 . S
C3315 C3310 1.379 . S
C3315 N3313 1.356 . S
N3316 C3308 1.356 . S
N3316 H3322 0.984 . S
N3316 H3323 0.984 . S
N3317 C3310 1.356 . S
N3317 H3320 0.984 . S
N3317 H3321 0.985 . S
H3318 N3313 0.984 . S
H3319 N3313 0.985 . S
H3320 N3317 0.984 . S
H3321 N3317 0.985 . S
H3322 N3316 0.984 . S
H3323 N3316 0.984 . S
H3324 N3312 0.984 . S
H3325 N3312 0.985 . S
C3326 C3327 1.363 . S
C3326 C3332 1.379 . S
C3326 N3334 1.356 . S
C3327 C3326 1.363 . S
C3327 C3333 1.363 . S
C3328 C3329 1.363 . S
C3328 C3333 1.379 . S
C3328 N3335 1.356 . S
C3329 C3328 1.363 . S
C3329 C3332 1.363 . S
N3330 C3332 1.356 . S
N3330 H3342 0.984 . S
N3330 H3343 0.985 . S
N3331 C3333 1.356 . S
N3331 H3336 0.984 . S
N3331 H3337 0.985 . S
C3332 C3326 1.379 . S
C3332 C3329 1.363 . S
C3332 N3330 1.356 . S
C3333 C3327 1.363 . S
C3333 C3328 1.379 . S
C3333 N3331 1.356 . S
N3334 C3326 1.356 . S
N3334 H3340 0.984 . S
N3334 H3341 0.984 . S
N3335 C3328 1.356 . S
N3335 H3338 0.984 . S
N3335 H3339 0.985 . S
H3336 N3331 0.984 . S
H3337 N3331 0.985 . S
H3338 N3335 0.984 . S
H3339 N3335 0.985 . S
H3340 N3334 0.984 . S
H3341 N3334 0.984 . S
H3342 N3330 0.984 . S
H3343 N3330 0.985 . S
C3344 C3345 1.363 . S
C3344 C3350 1.379 . S
C3344 N3352 1.356 . S
C3345 C3344 1.363 . S
C3345 C3351 1.363 . S
C3346 C3347 1.363 . S
C3346 C3351 1.379 . S
C3346 N3353 1.356 . S
C3347 C3346 1.363 . S
C3347 C3350 1.363 . S
N3348 C3350 1.356 . S
N3348 H3360 0.984 . S
N3348 H3361 0.985 . S
N3349 C3351 1.356 . S
N3349 H3354 0.984 . S
N3349 H3355 0.985 . S
C3350 C3344 1.379 . S
C3350 C3347 1.363 . S
C3350 N3348 1.356 . S
C3351 C3345 1.363 . S
C3351 C3346 1.379 . S
C3351 N3349 1.356 . S
N3352 C3344 1.356 . S
N3352 H3358 0.984 . S
N3352 H3359 0.984 . S
N3353 C3346 1.356 . S
N3353 H3356 0.984 . S
N3353 H3357 0.985 . S
H3354 N3349 0.984 . S
H3355 N3349 0.985 . S
H3356 N3353 0.984 . S
H3357 N3353 0.985 . S
H3358 N3352 0.984 . S
H3359 N3352 0.984 . S
H3360 N3348 0.984 . S
H3361 N3348 0.985 . S
C3362 C3363 1.363 . S
C3362 C3368 1.379 . S
C3362 N3370 1.356 . S
C3363 C3362 1.363 . S
C3363 C3369 1.363 . S
C3364 C3365 1.363 . S
C3364 C3369 1.379 . S
C3364 N3371 1.356 . S
C3365 C3364 1.363 . S
C3365 C3368 1.363 . S
N3366 C3368 1.356 . S
N3366 H3378 0.984 . S
N3366 H3379 0.985 . S
N3367 C3369 1.356 . S
N3367 H3372 0.984 . S
N3367 H3373 0.985 . S
C3368 C3362 1.379 . S
C3368 C3365 1.363 . S
C3368 N3366 1.356 . S
C3369 C3363 1.363 . S
C3369 C3364 1.379 . S
C3369 N3367 1.356 . S
N3370 C3362 1.356 . S
N3370 H3376 0.984 . S
N3370 H3377 0.984 . S
N3371 C3364 1.356 . S
N3371 H3374 0.984 . S
N3371 H3375 0.985 . S
H3372 N3367 0.984 . S
H3373 N3367 0.985 . S
H3374 N3371 0.984 . S
H3375 N3371 0.985 . S
H3376 N3370 0.984 . S
H3377 N3370 0.984 . S
H3378 N3366 0.984 . S
H3379 N3366 0.985 . S
C3380 C3381 1.363 . S
C3380 C3386 1.379 . S
C3380 N3388 1.356 . S
C3381 C3380 1.363 . S
C3381 C3387 1.363 . S
C3382 C3383 1.363 . S
C3382 C3387 1.379 . S
C3382 N3389 1.356 . S
C3383 C3382 1.363 . S
C3383 C3386 1.363 . S
N3384 C3386 1.356 . S
N3384 H3396 0.984 . S
N3384 H3397 0.985 . S
N3385 C3387 1.356 . S
N3385 H3390 0.984 . S
N3385 H3391 0.985 . S
C3386 C3380 1.379 . S
C3386 C3383 1.363 . S
C3386 N3384 1.356 . S
C3387 C3381 1.363 . S
C3387 C3382 1.379 . S
C3387 N3385 1.356 . S
N3388 C3380 1.356 . S
N3388 H3394 0.984 . S
N3388 H3395 0.984 . S
N3389 C3382 1.356 . S
N3389 H3392 0.984 . S
N3389 H3393 0.985 . S
H3390 N3385 0.984 . S
H3391 N3385 0.985 . S
H3392 N3389 0.984 . S
H3393 N3389 0.985 . S
H3394 N3388 0.984 . S
H3395 N3388 0.984 . S
H3396 N3384 0.984 . S
H3397 N3384 0.985 . S
C3398 C3399 1.363 . S
C3398 C3404 1.379 . S
C3398 N3406 1.356 . S
C3399 C3398 1.363 . S
C3399 C3405 1.363 . S
C3400 C3401 1.363 . S
C3400 C3405 1.379 . S
C3400 N3407 1.356 . S
C3401 C3400 1.363 . S
C3401 C3404 1.363 . S
N3402 C3404 1.356 . S
N3402 H3414 0.984 . S
N3402 H3415 0.985 . S
N3403 C3405 1.356 . S
N3403 H3408 0.984 . S
N3403 H3409 0.985 . S
C3404 C3398 1.379 . S
C3404 C3401 1.363 . S
C3404 N3402 1.356 . S
C3405 C3399 1.363 . S
C3405 C3400 1.379 . S
C3405 N3403 1.356 . S
N3406 C3398 1.356 . S
N3406 H3412 0.984 . S
N3406 H3413 0.984 . S
N3407 C3400 1.356 . S
N3407 H3410 0.984 . S
N3407 H3411 0.985 . S
H3408 N3403 0.984 . S
H3409 N3403 0.985 . S
H3410 N3407 0.984 . S
H3411 N3407 0.985 . S
H3412 N3406 0.984 . S
H3413 N3406 0.984 . S
H3414 N3402 0.984 . S
H3415 N3402 0.985 . S
C3416 C3417 1.363 . S
C3416 C3422 1.379 . S
C3416 N3424 1.356 . S
C3417 C3416 1.363 . S
C3417 C3423 1.363 . S
C3418 C3419 1.363 . S
C3418 C3423 1.379 . S
C3418 N3425 1.356 . S
C3419 C3418 1.363 . S
C3419 C3422 1.363 . S
N3420 C3422 1.356 . S
N3420 H3432 0.984 . S
N3420 H3433 0.985 . S
N3421 C3423 1.356 . S
N3421 H3426 0.984 . S
N3421 H3427 0.985 . S
C3422 C3416 1.379 . S
C3422 C3419 1.363 . S
C3422 N3420 1.356 . S
C3423 C3417 1.363 . S
C3423 C3418 1.379 . S
C3423 N3421 1.356 . S
N3424 C3416 1.356 . S
N3424 H3430 0.984 . S
N3424 H3431 0.984 . S
N3425 C3418 1.356 . S
N3425 H3428 0.984 . S
N3425 H3429 0.985 . S
H3426 N3421 0.984 . S
H3427 N3421 0.985 . S
H3428 N3425 0.984 . S
H3429 N3425 0.985 . S
H3430 N3424 0.984 . S
H3431 N3424 0.984 . S
H3432 N3420 0.984 . S
H3433 N3420 0.985 . S
C3434 C3435 1.363 . S
C3434 C3440 1.379 . S
C3434 N3442 1.356 . S
C3435 C3434 1.363 . S
C3435 C3441 1.363 . S
C3436 C3437 1.363 . S
C3436 C3441 1.379 . S
C3436 N3443 1.356 . S
C3437 C3436 1.363 . S
C3437 C3440 1.363 . S
N3438 C3440 1.356 . S
N3438 H3450 0.984 . S
N3438 H3451 0.985 . S
N3439 C3441 1.356 . S
N3439 H3444 0.984 . S
N3439 H3445 0.985 . S
C3440 C3434 1.379 . S
C3440 C3437 1.363 . S
C3440 N3438 1.356 . S
C3441 C3435 1.363 . S
C3441 C3436 1.379 . S
C3441 N3439 1.356 . S
N3442 C3434 1.356 . S
N3442 H3448 0.984 . S
N3442 H3449 0.984 . S
N3443 C3436 1.356 . S
N3443 H3446 0.984 . S
N3443 H3447 0.985 . S
H3444 N3439 0.984 . S
H3445 N3439 0.985 . S
H3446 N3443 0.984 . S
H3447 N3443 0.985 . S
H3448 N3442 0.984 . S
H3449 N3442 0.984 . S
H3450 N3438 0.984 . S
H3451 N3438 0.985 . S
C3452 C3453 1.363 . S
C3452 C3458 1.379 . S
C3452 N3460 1.356 . S
C3453 C3452 1.363 . S
C3453 C3459 1.363 . S
C3454 C3455 1.363 . S
C3454 C3459 1.379 . S
C3454 N3461 1.356 . S
C3455 C3454 1.363 . S
C3455 C3458 1.363 . S
N3456 C3458 1.356 . S
N3456 H3468 0.984 . S
N3456 H3469 0.985 . S
N3457 C3459 1.356 . S
N3457 H3462 0.984 . S
N3457 H3463 0.985 . S
C3458 C3452 1.379 . S
C3458 C3455 1.363 . S
C3458 N3456 1.356 . S
C3459 C3453 1.363 . S
C3459 C3454 1.379 . S
C3459 N3457 1.356 . S
N3460 C3452 1.356 . S
N3460 H3466 0.984 . S
N3460 H3467 0.984 . S
N3461 C3454 1.356 . S
N3461 H3464 0.984 . S
N3461 H3465 0.985 . S
H3462 N3457 0.984 . S
H3463 N3457 0.985 . S
H3464 N3461 0.984 . S
H3465 N3461 0.985 . S
H3466 N3460 0.984 . S
H3467 N3460 0.984 . S
H3468 N3456 0.984 . S
H3469 N3456 0.985 . S
C3470 C3471 1.363 . S
C3470 C3476 1.379 . S
C3470 N3478 1.356 . S
C3471 C3470 1.363 . S
C3471 C3477 1.363 . S
C3472 C3473 1.363 . S
C3472 C3477 1.379 . S
C3472 N3479 1.356 . S
C3473 C3472 1.363 . S
C3473 C3476 1.363 . S
N3474 C3476 1.356 . S
N3474 H3486 0.984 . S
N3474 H3487 0.985 . S
N3475 C3477 1.356 . S
N3475 H3480 0.984 . S
N3475 H3481 0.985 . S
C3476 C3470 1.379 . S
C3476 C3473 1.363 . S
C3476 N3474 1.356 . S
C3477 C3471 1.363 . S
C3477 C3472 1.379 . S
C3477 N3475 1.356 . S
N3478 C3470 1.356 . S
N3478 H3484 0.984 . S
N3478 H3485 0.984 . S
N3479 C3472 1.356 . S
N3479 H3482 0.984 . S
N3479 H3483 0.985 . S
H3480 N3475 0.984 . S
H3481 N3475 0.985 . S
H3482 N3479 0.984 . S
H3483 N3479 0.985 . S
H3484 N3478 0.984 . S
H3485 N3478 0.984 . S
H3486 N3474 0.984 . S
H3487 N3474 0.985 . S
C3488 C3489 1.363 . S
C3488 C3494 1.379 . S
C3488 N3496 1.356 . S
C3489 C3488 1.363 . S
C3489 C3495 1.363 . S
C3490 C3491 1.363 . S
C3490 C3495 1.379 . S
C3490 N3497 1.356 . S
C3491 C3490 1.363 . S
C3491 C3494 1.363 . S
N3492 C3494 1.356 . S
N3492 H3504 0.984 . S
N3492 H3505 0.985 . S
N3493 C3495 1.356 . S
N3493 H3498 0.984 . S
N3493 H3499 0.985 . S
C3494 C3488 1.379 . S
C3494 C3491 1.363 . S
C3494 N3492 1.356 . S
C3495 C3489 1.363 . S
C3495 C3490 1.379 . S
C3495 N3493 1.356 . S
N3496 C3488 1.356 . S
N3496 H3502 0.984 . S
N3496 H3503 0.984 . S
N3497 C3490 1.356 . S
N3497 H3500 0.984 . S
N3497 H3501 0.985 . S
H3498 N3493 0.984 . S
H3499 N3493 0.985 . S
H3500 N3497 0.984 . S
H3501 N3497 0.985 . S
H3502 N3496 0.984 . S
H3503 N3496 0.984 . S
H3504 N3492 0.984 . S
H3505 N3492 0.985 . S
C3506 C3507 1.363 . S
C3506 C3512 1.379 . S
C3506 N3514 1.356 . S
C3507 C3506 1.363 . S
C3507 C3513 1.363 . S
C3508 C3509 1.363 . S
C3508 C3513 1.379 . S
C3508 N3515 1.356 . S
C3509 C3508 1.363 . S
C3509 C3512 1.363 . S
N3510 C3512 1.356 . S
N3510 H3522 0.984 . S
N3510 H3523 0.985 . S
N3511 C3513 1.356 . S
N3511 H3516 0.984 . S
N3511 H3517 0.985 . S
C3512 C3506 1.379 . S
C3512 C3509 1.363 . S
C3512 N3510 1.356 . S
C3513 C3507 1.363 . S
C3513 C3508 1.379 . S
C3513 N3511 1.356 . S
N3514 C3506 1.356 . S
N3514 H3520 0.984 . S
N3514 H3521 0.984 . S
N3515 C3508 1.356 . S
N3515 H3518 0.984 . S
N3515 H3519 0.985 . S
H3516 N3511 0.984 . S
H3517 N3511 0.985 . S
H3518 N3515 0.984 . S
H3519 N3515 0.985 . S
H3520 N3514 0.984 . S
H3521 N3514 0.984 . S
H3522 N3510 0.984 . S
H3523 N3510 0.985 . S
C3524 C3525 1.363 . S
C3524 C3530 1.379 . S
C3524 N3532 1.356 . S
C3525 C3524 1.363 . S
C3525 C3531 1.363 . S
C3526 C3527 1.363 . S
C3526 C3531 1.379 . S
C3526 N3533 1.356 . S
C3527 C3526 1.363 . S
C3527 C3530 1.363 . S
N3528 C3530 1.356 . S
N3528 H3540 0.984 . S
N3528 H3541 0.985 . S
N3529 C3531 1.356 . S
N3529 H3534 0.984 . S
N3529 H3535 0.985 . S
C3530 C3524 1.379 . S
C3530 C3527 1.363 . S
C3530 N3528 1.356 . S
C3531 C3525 1.363 . S
C3531 C3526 1.379 . S
C3531 N3529 1.356 . S
N3532 C3524 1.356 . S
N3532 H3538 0.984 . S
N3532 H3539 0.984 . S
N3533 C3526 1.356 . S
N3533 H3536 0.984 . S
N3533 H3537 0.985 . S
H3534 N3529 0.984 . S
H3535 N3529 0.985 . S
H3536 N3533 0.984 . S
H3537 N3533 0.985 . S
H3538 N3532 0.984 . S
H3539 N3532 0.984 . S
H3540 N3528 0.984 . S
H3541 N3528 0.985 . S
C3542 C3543 1.363 . S
C3542 C3548 1.379 . S
C3542 N3550 1.356 . S
C3543 C3542 1.363 . S
C3543 C3549 1.363 . S
C3544 C3545 1.363 . S
C3544 C3549 1.379 . S
C3544 N3551 1.356 . S
C3545 C3544 1.363 . S
C3545 C3548 1.363 . S
N3546 C3548 1.356 . S
N3546 H3558 0.984 . S
N3546 H3559 0.985 . S
N3547 C3549 1.356 . S
N3547 H3552 0.984 . S
N3547 H3553 0.985 . S
C3548 C3542 1.379 . S
C3548 C3545 1.363 . S
C3548 N3546 1.356 . S
C3549 C3543 1.363 . S
C3549 C3544 1.379 . S
C3549 N3547 1.356 . S
N3550 C3542 1.356 . S
N3550 H3556 0.984 . S
N3550 H3557 0.984 . S
N3551 C3544 1.356 . S
N3551 H3554 0.984 . S
N3551 H3555 0.985 . S
H3552 N3547 0.984 . S
H3553 N3547 0.985 . S
H3554 N3551 0.984 . S
H3555 N3551 0.985 . S
H3556 N3550 0.984 . S
H3557 N3550 0.984 . S
H3558 N3546 0.984 . S
H3559 N3546 0.985 . S
C1835 N1292 1.492 . S
C1833 C21 1.551 . S
C1853 C1319 1.556 . S
C1851 C42 1.541 . S
C1869 C82 1.539 . S
C1871 C1333 1.533 . S
C1889 N1351 1.438 . S
C1887 C135 1.484 . S
C1905 C175 1.527 . S
C1907 C1356 1.526 . S
C1923 C221 1.544 . S
C1925 C1296 1.550 . S
C1941 C255 1.417 . S
C1943 N1315 1.377 . S
C1961 N1328 1.510 . S
C1959 C301 1.528 . S
C1979 N1374 1.420 . S
C1977 C15 1.464 . S
C1995 C55 1.500 . S
C1997 N1397 1.477 . S
C2013 C101 1.615 . S
C2015 N1420 1.601 . S
C2033 N1453 1.423 . S
C2031 C141 1.455 . S
C2049 C162 1.513 . S
C2051 C1480 1.501 . S
C2069 C1503 1.588 . S
C2067 C215 1.591 . S
C2085 C261 1.498 . S
C2087 C1526 1.522 . S
C2105 C1540 1.466 . S
C2103 C282 1.439 . S
C2121 C2 1.484 . S
C2123 C1457 1.494 . S
C2139 C181 1.443 . S
C2141 N1499 1.413 . S
C2159 N1522 1.468 . S
C2157 C202 1.511 . S
C2175 C242 1.465 . S
C2177 N1535 1.447 . S
C2195 N1476 1.428 . S
C2193 C295 1.485 . S
C2213 C1402 1.688 . S
C2211 C95 1.693 . S
C2229 C122 1.505 . S
C2231 C1425 1.520 . S
C2249 C1379 1.558 . S
C2247 C61 1.545 . S
C2267 C1572 1.509 . S
C2265 C341 1.515 . S
C2283 C362 1.532 . S
C2285 C1586 1.553 . S
C2301 C402 1.533 . S
C2303 N1614 1.478 . S
C2321 N1627 1.422 . S
C2319 C455 1.466 . S
C2337 C495 1.544 . S
C2339 C1632 1.542 . S
C2355 C541 1.536 . S
C2357 N1568 1.480 . S
C2373 C575 1.507 . S
C2375 N1581 1.479 . S
C2391 C621 1.487 . S
C2393 C1618 1.506 . S
C2411 N1466 1.437 . S
C2409 C335 1.472 . S
C2427 C375 1.476 . S
C2429 N1650 1.434 . S
C2447 N1512 1.495 . S
C2445 C421 1.524 . S
C2463 C461 1.512 . S
C2465 C1687 1.537 . S
C2481 C482 1.537 . S
C2483 C1388 1.539 . S
C2501 C1701 1.622 . S
C2499 C535 1.625 . S
C2517 C581 1.533 . S
C2519 C1434 1.552 . S
C2537 N1719 1.418 . S
C2535 C602 1.436 . S
C2553 C322 1.499 . S
C2555 N1683 1.453 . S
C2573 N1696 1.448 . S
C2571 C501 1.482 . S
C2589 C522 1.515 . S
C2591 N1430 1.465 . S
C2609 C1724 1.452 . S
C2607 C562 1.431 . S
C2625 C615 1.456 . S
C2627 N1384 1.407 . S
C2643 C415 1.599 . S
C2645 C1655 1.596 . S
C2661 C442 1.540 . S
C2663 C1517 1.559 . S
C2679 C381 1.544 . S
C2681 C1471 1.565 . S
C2697 C661 1.570 . S
C2699 C1609 1.568 . S
C2717 C1641 1.500 . S
C2715 C682 1.489 . S
C2733 C722 1.503 . S
C2735 N1558 1.458 . S
C2751 C775 1.456 . S
C2753 N1591 1.413 . S
C2769 C815 1.544 . S
C2771 C1595 1.542 . S
C2787 C861 1.582 . S
C2789 N1604 1.553 . S
C2807 N1637 1.357 . S
C2805 C895 1.403 . S
C2823 C941 1.536 . S
C2825 C1563 1.555 . S
C2843 N1752 1.440 . S
C2841 C655 1.492 . S
C2859 C695 1.436 . S
C2861 N1489 1.406 . S
C2879 N1775 1.423 . S
C2877 C741 1.487 . S
C2895 C781 1.491 . S
C2897 N1545 1.461 . S
C2913 C802 1.507 . S
C2915 C1793 1.515 . S
C2931 C855 1.683 . S
C2933 C1411 1.679 . S
C2951 N1811 1.401 . S
C2949 C901 1.418 . S
C2967 C922 1.488 . S
C2969 C1448 1.513 . S
C2987 C1549 1.543 . S
C2985 C642 1.527 . S
C3005 N1407 1.449 . S
C3003 C821 1.499 . S
C3021 C842 1.612 . S
C3023 C1816 1.612 . S
C3039 C882 1.395 . S
C3041 N1443 1.369 . S
C3059 N1788 1.497 . S
C3057 C935 1.521 . S
C3077 C1494 1.605 . S
C3075 C735 1.608 . S
C3095 C1779 1.566 . S
C3093 C762 1.549 . S
C3113 C1756 1.529 . S
C3111 C701 1.516 . S
C3129 C981 1.464 . S
C3131 N1338 1.404 . S
C3147 C1002 1.499 . S
C3149 C1365 1.510 . S
C3167 C1287 1.568 . S
C3165 C1042 1.563 . S
C3185 N1305 1.375 . S
C3183 C1095 1.419 . S
C3203 C1310 1.557 . S
C3201 C1135 1.562 . S
C3221 C1342 1.565 . S
C3219 C1181 1.559 . S
C3239 N1361 1.476 . S
C3237 C1215 1.523 . S
C3255 C1261 1.549 . S
C3257 N1282 1.549 . S
C3273 C975 1.416 . S
C3275 N1798 1.364 . S
C3293 N1706 1.421 . S
C3291 C1015 1.456 . S
C3311 C1825 1.647 . S
C3309 C1061 1.635 . S
C3329 C1733 1.400 . S
C3327 C1101 1.381 . S
C3345 C1122 1.540 . S
C3347 C1747 1.544 . S
C3365 C1664 1.602 . S
C3363 C1175 1.609 . S
C3383 C1770 1.651 . S
C3381 C1221 1.634 . S
C3399 C1242 1.481 . S
C3401 N1673 1.466 . S
C3419 N1729 1.379 . S
C3417 C962 1.423 . S
C3437 N1660 1.417 . S
C3435 C1141 1.443 . S
C3455 N1765 1.432 . S
C3453 C1162 1.459 . S
C3471 C1202 1.495 . S
C3473 C1678 1.521 . S
C3489 C1255 1.473 . S
C3491 N1742 1.443 . S
C3507 C1055 1.690 . S
C3509 C1710 1.683 . S
C3525 C1082 1.424 . S
C3527 N1821 1.402 . S
C3545 C1802 1.507 . S
C3543 C1021 1.493 . S
