# Generated by pormake.
# Topology gar, (4,6)-cn, num edge types: 1
# Building blocks:
#     Node 0, Type 0, BuildingBlock: QUQFOY_clean_sbu_3, # of connection points: 4
#     Node 1, Type 0, BuildingBlock: QUQFOY_clean_sbu_3, # of connection points: 4
#     Node 2, Type 0, BuildingBlock: QUQFOY_clean_sbu_3, # of connection points: 4
#     Node 3, Type 0, BuildingBlock: QUQFOY_clean_sbu_3, # of connection points: 4
#     Node 4, Type 0, BuildingBlock: QUQFOY_clean_sbu_3, # of connection points: 4
#     Node 5, Type 0, BuildingBlock: QUQFOY_clean_sbu_3, # of connection points: 4
#     Node 6, Type 0, BuildingBlock: QUQFOY_clean_sbu_3, # of connection points: 4
#     Node 7, Type 0, BuildingBlock: QUQFOY_clean_sbu_3, # of connection points: 4
#     Node 8, Type 0, BuildingBlock: QUQFOY_clean_sbu_3, # of connection points: 4
#     Node 9, Type 0, BuildingBlock: QUQFOY_clean_sbu_3, # of connection points: 4
#     Node 10, Type 0, BuildingBlock: QUQFOY_clean_sbu_3, # of connection points: 4
#     Node 11, Type 0, BuildingBlock: QUQFOY_clean_sbu_3, # of connection points: 4
#     Node 12, Type 0, BuildingBlock: QUQFOY_clean_sbu_3, # of connection points: 4
#     Node 13, Type 0, BuildingBlock: QUQFOY_clean_sbu_3, # of connection points: 4
#     Node 14, Type 0, BuildingBlock: QUQFOY_clean_sbu_3, # of connection points: 4
#     Node 15, Type 0, BuildingBlock: QUQFOY_clean_sbu_3, # of connection points: 4
#     Node 16, Type 0, BuildingBlock: QUQFOY_clean_sbu_3, # of connection points: 4
#     Node 17, Type 0, BuildingBlock: QUQFOY_clean_sbu_3, # of connection points: 4
#     Node 18, Type 0, BuildingBlock: QUQFOY_clean_sbu_3, # of connection points: 4
#     Node 19, Type 0, BuildingBlock: QUQFOY_clean_sbu_3, # of connection points: 4
#     Node 20, Type 0, BuildingBlock: QUQFOY_clean_sbu_3, # of connection points: 4
#     Node 21, Type 0, BuildingBlock: QUQFOY_clean_sbu_3, # of connection points: 4
#     Node 22, Type 0, BuildingBlock: QUQFOY_clean_sbu_3, # of connection points: 4
#     Node 23, Type 0, BuildingBlock: QUQFOY_clean_sbu_3, # of connection points: 4
#     Node 24, Type 1, BuildingBlock: BETDEL_clean_sbu_0, # of connection points: 6
#     Node 25, Type 1, BuildingBlock: BETDEL_clean_sbu_0, # of connection points: 6
#     Node 26, Type 1, BuildingBlock: BETDEL_clean_sbu_0, # of connection points: 6
#     Node 27, Type 1, BuildingBlock: BETDEL_clean_sbu_0, # of connection points: 6
#     Node 28, Type 1, BuildingBlock: BETDEL_clean_sbu_0, # of connection points: 6
#     Node 29, Type 1, BuildingBlock: BETDEL_clean_sbu_0, # of connection points: 6
#     Node 30, Type 1, BuildingBlock: BETDEL_clean_sbu_0, # of connection points: 6
#     Node 31, Type 1, BuildingBlock: BETDEL_clean_sbu_0, # of connection points: 6
#     Node 32, Type 1, BuildingBlock: BETDEL_clean_sbu_0, # of connection points: 6
#     Node 33, Type 1, BuildingBlock: BETDEL_clean_sbu_0, # of connection points: 6
#     Node 34, Type 1, BuildingBlock: BETDEL_clean_sbu_0, # of connection points: 6
#     Node 35, Type 1, BuildingBlock: BETDEL_clean_sbu_0, # of connection points: 6
#     Node 36, Type 1, BuildingBlock: BETDEL_clean_sbu_0, # of connection points: 6
#     Node 37, Type 1, BuildingBlock: BETDEL_clean_sbu_0, # of connection points: 6
#     Node 38, Type 1, BuildingBlock: BETDEL_clean_sbu_0, # of connection points: 6
#     Node 39, Type 1, BuildingBlock: BETDEL_clean_sbu_0, # of connection points: 6
#     Edge 40, Type (0, 1), BuildingBlock: OJICUG_clean_linker_0, # of connection points: 2
#     Edge 41, Type (0, 1), BuildingBlock: OJICUG_clean_linker_0, # of connection points: 2
#     Edge 42, Type (0, 1), BuildingBlock: OJICUG_clean_linker_0, # of connection points: 2
#     Edge 43, Type (0, 1), BuildingBlock: OJICUG_clean_linker_0, # of connection points: 2
#     Edge 44, Type (0, 1), BuildingBlock: OJICUG_clean_linker_0, # of connection points: 2
#     Edge 45, Type (0, 1), BuildingBlock: OJICUG_clean_linker_0, # of connection points: 2
#     Edge 46, Type (0, 1), BuildingBlock: OJICUG_clean_linker_0, # of connection points: 2
#     Edge 47, Type (0, 1), BuildingBlock: OJICUG_clean_linker_0, # of connection points: 2
#     Edge 48, Type (0, 1), BuildingBlock: OJICUG_clean_linker_0, # of connection points: 2
#     Edge 49, Type (0, 1), BuildingBlock: OJICUG_clean_linker_0, # of connection points: 2
#     Edge 50, Type (0, 1), BuildingBlock: OJICUG_clean_linker_0, # of connection points: 2
#     Edge 51, Type (0, 1), BuildingBlock: OJICUG_clean_linker_0, # of connection points: 2
#     Edge 52, Type (0, 1), BuildingBlock: OJICUG_clean_linker_0, # of connection points: 2
#     Edge 53, Type (0, 1), BuildingBlock: OJICUG_clean_linker_0, # of connection points: 2
#     Edge 54, Type (0, 1), BuildingBlock: OJICUG_clean_linker_0, # of connection points: 2
#     Edge 55, Type (0, 1), BuildingBlock: OJICUG_clean_linker_0, # of connection points: 2
#     Edge 56, Type (0, 1), BuildingBlock: OJICUG_clean_linker_0, # of connection points: 2
#     Edge 57, Type (0, 1), BuildingBlock: OJICUG_clean_linker_0, # of connection points: 2
#     Edge 58, Type (0, 1), BuildingBlock: OJICUG_clean_linker_0, # of connection points: 2
#     Edge 59, Type (0, 1), BuildingBlock: OJICUG_clean_linker_0, # of connection points: 2
#     Edge 60, Type (0, 1), BuildingBlock: OJICUG_clean_linker_0, # of connection points: 2
#     Edge 61, Type (0, 1), BuildingBlock: OJICUG_clean_linker_0, # of connection points: 2
#     Edge 62, Type (0, 1), BuildingBlock: OJICUG_clean_linker_0, # of connection points: 2
#     Edge 63, Type (0, 1), BuildingBlock: OJICUG_clean_linker_0, # of connection points: 2
#     Edge 64, Type (0, 1), BuildingBlock: OJICUG_clean_linker_0, # of connection points: 2
#     Edge 65, Type (0, 1), BuildingBlock: OJICUG_clean_linker_0, # of connection points: 2
#     Edge 66, Type (0, 1), BuildingBlock: OJICUG_clean_linker_0, # of connection points: 2
#     Edge 67, Type (0, 1), BuildingBlock: OJICUG_clean_linker_0, # of connection points: 2
#     Edge 68, Type (0, 1), BuildingBlock: OJICUG_clean_linker_0, # of connection points: 2
#     Edge 69, Type (0, 1), BuildingBlock: OJICUG_clean_linker_0, # of connection points: 2
#     Edge 70, Type (0, 1), BuildingBlock: OJICUG_clean_linker_0, # of connection points: 2
#     Edge 71, Type (0, 1), BuildingBlock: OJICUG_clean_linker_0, # of connection points: 2
#     Edge 72, Type (0, 1), BuildingBlock: OJICUG_clean_linker_0, # of connection points: 2
#     Edge 73, Type (0, 1), BuildingBlock: OJICUG_clean_linker_0, # of connection points: 2
#     Edge 74, Type (0, 1), BuildingBlock: OJICUG_clean_linker_0, # of connection points: 2
#     Edge 75, Type (0, 1), BuildingBlock: OJICUG_clean_linker_0, # of connection points: 2
#     Edge 76, Type (0, 1), BuildingBlock: OJICUG_clean_linker_0, # of connection points: 2
#     Edge 77, Type (0, 1), BuildingBlock: OJICUG_clean_linker_0, # of connection points: 2
#     Edge 78, Type (0, 1), BuildingBlock: OJICUG_clean_linker_0, # of connection points: 2
#     Edge 79, Type (0, 1), BuildingBlock: OJICUG_clean_linker_0, # of connection points: 2
#     Edge 80, Type (0, 1), BuildingBlock: OJICUG_clean_linker_0, # of connection points: 2
#     Edge 81, Type (0, 1), BuildingBlock: OJICUG_clean_linker_0, # of connection points: 2
#     Edge 82, Type (0, 1), BuildingBlock: OJICUG_clean_linker_0, # of connection points: 2
#     Edge 83, Type (0, 1), BuildingBlock: OJICUG_clean_linker_0, # of connection points: 2
#     Edge 84, Type (0, 1), BuildingBlock: OJICUG_clean_linker_0, # of connection points: 2
#     Edge 85, Type (0, 1), BuildingBlock: OJICUG_clean_linker_0, # of connection points: 2
#     Edge 86, Type (0, 1), BuildingBlock: OJICUG_clean_linker_0, # of connection points: 2
#     Edge 87, Type (0, 1), BuildingBlock: OJICUG_clean_linker_0, # of connection points: 2
#     Edge 88, Type (0, 1), BuildingBlock: OJICUG_clean_linker_0, # of connection points: 2
#     Edge 89, Type (0, 1), BuildingBlock: OJICUG_clean_linker_0, # of connection points: 2
#     Edge 90, Type (0, 1), BuildingBlock: OJICUG_clean_linker_0, # of connection points: 2
#     Edge 91, Type (0, 1), BuildingBlock: OJICUG_clean_linker_0, # of connection points: 2
#     Edge 92, Type (0, 1), BuildingBlock: OJICUG_clean_linker_0, # of connection points: 2
#     Edge 93, Type (0, 1), BuildingBlock: OJICUG_clean_linker_0, # of connection points: 2
#     Edge 94, Type (0, 1), BuildingBlock: OJICUG_clean_linker_0, # of connection points: 2
#     Edge 95, Type (0, 1), BuildingBlock: OJICUG_clean_linker_0, # of connection points: 2
#     Edge 96, Type (0, 1), BuildingBlock: OJICUG_clean_linker_0, # of connection points: 2
#     Edge 97, Type (0, 1), BuildingBlock: OJICUG_clean_linker_0, # of connection points: 2
#     Edge 98, Type (0, 1), BuildingBlock: OJICUG_clean_linker_0, # of connection points: 2
#     Edge 99, Type (0, 1), BuildingBlock: OJICUG_clean_linker_0, # of connection points: 2
#     Edge 100, Type (0, 1), BuildingBlock: OJICUG_clean_linker_0, # of connection points: 2
#     Edge 101, Type (0, 1), BuildingBlock: OJICUG_clean_linker_0, # of connection points: 2
#     Edge 102, Type (0, 1), BuildingBlock: OJICUG_clean_linker_0, # of connection points: 2
#     Edge 103, Type (0, 1), BuildingBlock: OJICUG_clean_linker_0, # of connection points: 2
#     Edge 104, Type (0, 1), BuildingBlock: OJICUG_clean_linker_0, # of connection points: 2
#     Edge 105, Type (0, 1), BuildingBlock: OJICUG_clean_linker_0, # of connection points: 2
#     Edge 106, Type (0, 1), BuildingBlock: OJICUG_clean_linker_0, # of connection points: 2
#     Edge 107, Type (0, 1), BuildingBlock: OJICUG_clean_linker_0, # of connection points: 2
#     Edge 108, Type (0, 1), BuildingBlock: OJICUG_clean_linker_0, # of connection points: 2
#     Edge 109, Type (0, 1), BuildingBlock: OJICUG_clean_linker_0, # of connection points: 2
#     Edge 110, Type (0, 1), BuildingBlock: OJICUG_clean_linker_0, # of connection points: 2
#     Edge 111, Type (0, 1), BuildingBlock: OJICUG_clean_linker_0, # of connection points: 2
#     Edge 112, Type (0, 1), BuildingBlock: OJICUG_clean_linker_0, # of connection points: 2
#     Edge 113, Type (0, 1), BuildingBlock: OJICUG_clean_linker_0, # of connection points: 2
#     Edge 114, Type (0, 1), BuildingBlock: OJICUG_clean_linker_0, # of connection points: 2
#     Edge 115, Type (0, 1), BuildingBlock: OJICUG_clean_linker_0, # of connection points: 2
#     Edge 116, Type (0, 1), BuildingBlock: OJICUG_clean_linker_0, # of connection points: 2
#     Edge 117, Type (0, 1), BuildingBlock: OJICUG_clean_linker_0, # of connection points: 2
#     Edge 118, Type (0, 1), BuildingBlock: OJICUG_clean_linker_0, # of connection points: 2
#     Edge 119, Type (0, 1), BuildingBlock: OJICUG_clean_linker_0, # of connection points: 2
#     Edge 120, Type (0, 1), BuildingBlock: OJICUG_clean_linker_0, # of connection points: 2
#     Edge 121, Type (0, 1), BuildingBlock: OJICUG_clean_linker_0, # of connection points: 2
#     Edge 122, Type (0, 1), BuildingBlock: OJICUG_clean_linker_0, # of connection points: 2
#     Edge 123, Type (0, 1), BuildingBlock: OJICUG_clean_linker_0, # of connection points: 2
#     Edge 124, Type (0, 1), BuildingBlock: OJICUG_clean_linker_0, # of connection points: 2
#     Edge 125, Type (0, 1), BuildingBlock: OJICUG_clean_linker_0, # of connection points: 2
#     Edge 126, Type (0, 1), BuildingBlock: OJICUG_clean_linker_0, # of connection points: 2
#     Edge 127, Type (0, 1), BuildingBlock: OJICUG_clean_linker_0, # of connection points: 2
#     Edge 128, Type (0, 1), BuildingBlock: OJICUG_clean_linker_0, # of connection points: 2
#     Edge 129, Type (0, 1), BuildingBlock: OJICUG_clean_linker_0, # of connection points: 2
#     Edge 130, Type (0, 1), BuildingBlock: OJICUG_clean_linker_0, # of connection points: 2
#     Edge 131, Type (0, 1), BuildingBlock: OJICUG_clean_linker_0, # of connection points: 2
#     Edge 132, Type (0, 1), BuildingBlock: OJICUG_clean_linker_0, # of connection points: 2
#     Edge 133, Type (0, 1), BuildingBlock: OJICUG_clean_linker_0, # of connection points: 2
#     Edge 134, Type (0, 1), BuildingBlock: OJICUG_clean_linker_0, # of connection points: 2
#     Edge 135, Type (0, 1), BuildingBlock: OJICUG_clean_linker_0, # of connection points: 2
# Relax obj value: 0.147
# Max RMSD: 0.286
# Mean RMSD: 0.144
data_MOF--net-gar--node1-QUQFOY_clean_sbu_3--node2-BETDEL_clean_sbu_0--edge1-OJICUG_clean_linker_0
_symmetry_space_group_name_H-M    P1
_symmetry_Int_Tables_number       1
_symmetry_cell_setting            triclinic
loop_
_symmetry_equiv_pos_as_xyz
'x, y, z'
_cell_length_a     42.205867
_cell_length_b     40.177079
_cell_length_c     41.421021
_cell_angle_alpha  96.604613
_cell_angle_beta   92.082108
_cell_angle_gamma 101.42504
loop_
_atom_site_label
_atom_site_type_symbol
_atom_site_fract_x
_atom_site_fract_y
_atom_site_fract_z
_atom_type_partial_charge
C0 C 0.97793 0.30004 0.34246 0.0
O1 O 0.00018 0.31731 0.32772 0.0
Cd2 Cd 0.0572 0.32423 0.3366 0.0
O3 O 0.98471 0.28218 0.36446 0.0
Cd4 Cd 0.03524 0.27077 0.39162 0.0
C5 C 0.054 0.35796 0.41571 0.0
O6 O 0.06135 0.26669 0.34044 0.0
O7 O 0.09123 0.26174 0.38189 0.0
O8 O 0.00518 0.21399 0.4013 0.0
C9 C 0.08799 0.26144 0.35132 0.0
O10 O 0.063 0.36277 0.38731 0.0
C11 C 0.01692 0.21556 0.43032 0.0
O12 O 0.04325 0.32785 0.42266 0.0
O13 O 0.03651 0.24307 0.44159 0.0
C14 C 0.94057 0.75941 0.67879 0.0
O15 O 0.95349 0.73514 0.68637 0.0
Cd16 Cd -0.00147 0.71442 0.66604 0.0
O17 O 0.95063 0.7761 0.6553 0.0
Cd18 Cd -0.00512 0.77526 0.61498 0.0
C19 C 0.97684 0.6893 0.58437 0.0
O20 O 0.03113 0.76668 0.65728 0.0
O21 O 0.05272 0.76906 0.61138 0.0
O22 O 0.00858 0.83721 0.61225 0.0
C23 C 0.05543 0.76438 0.64102 0.0
O24 O 0.98306 0.68183 0.61266 0.0
C25 C -0.00083 0.83592 0.58255 0.0
O26 O 0.97816 0.72026 0.57919 0.0
O27 O 0.98714 0.80638 0.56774 0.0
C28 C 0.48098 0.79823 0.8363 0.0
O29 O 0.50343 0.81383 0.82061 0.0
Cd30 Cd 0.55985 0.82223 0.83143 0.0
O31 O 0.48738 0.78229 0.86006 0.0
Cd32 Cd 0.5375 0.77118 0.88917 0.0
C33 C 0.55343 0.85805 0.91008 0.0
O34 O 0.56271 0.76518 0.83816 0.0
O35 O 0.59334 0.76151 0.87945 0.0
O36 O 0.50702 0.71529 0.90051 0.0
C37 C 0.58941 0.76 0.84882 0.0
O38 O 0.56055 0.8615 0.8809 0.0
C39 C 0.52041 0.7168 0.92884 0.0
O40 O 0.54537 0.82856 0.91936 0.0
O41 O 0.54074 0.74407 0.93914 0.0
C42 C 0.44376 0.26954 0.18362 0.0
O43 O 0.45825 0.24732 0.19329 0.0
Cd44 Cd 0.5031 0.22635 0.17326 0.0
O45 O 0.45183 0.2833 0.15792 0.0
Cd46 Cd 0.49445 0.27915 0.11639 0.0
C47 C 0.47863 0.19309 0.09273 0.0
O48 O 0.53406 0.27631 0.1583 0.0
O49 O 0.55125 0.27001 0.11041 0.0
O50 O 0.50929 0.33975 0.11009 0.0
C51 C 0.55665 0.27046 0.14079 0.0
O52 O 0.48797 0.19045 0.12176 0.0
C53 C 0.49821 0.33724 0.08081 0.0
O54 O 0.47591 0.22203 0.08431 0.0
O55 O 0.48443 0.3075 0.06772 0.0
C56 C -0.00629 0.77189 0.19143 0.0
O57 O 0.01315 0.7584 0.20727 0.0
Cd58 Cd 0.06782 0.75747 0.19429 0.0
O59 O 0.0023 0.78568 0.16599 0.0
Cd60 Cd 0.05006 0.79749 0.13211 0.0
C61 C 0.05427 0.71283 0.11705 0.0
O62 O 0.08568 0.81368 0.18042 0.0
O63 O 0.1105 0.81334 0.13637 0.0
O64 O 0.02491 0.84501 0.11959 0.0
C65 C 0.11242 0.8178 0.16723 0.0
O66 O 0.06501 0.71444 0.14647 0.0
C67 C 0.033 0.8444 0.09034 0.0
O68 O 0.04504 0.73827 0.10667 0.0
O69 O 0.04943 0.82234 0.08051 0.0
C70 C 0.4266 0.738 0.30311 0.0
O71 O 0.44517 0.75947 0.28854 0.0
Cd72 Cd 0.49669 0.79036 0.30906 0.0
O73 O 0.43536 0.73061 0.33087 0.0
Cd74 Cd 0.48769 0.7456 0.36671 0.0
C75 C 0.48209 0.8286 0.38446 0.0
O76 O 0.52182 0.74422 0.32027 0.0
O77 O 0.54705 0.76503 0.36629 0.0
O78 O 0.47379 0.68666 0.38065 0.0
C79 C 0.54856 0.75483 0.33643 0.0
O80 O 0.48922 0.83205 0.35525 0.0
C81 C 0.487 0.69375 0.40932 0.0
O82 O 0.47885 0.79955 0.39476 0.0
O83 O 0.49961 0.72489 0.41851 0.0
C84 C 0.49379 0.27338 0.69254 0.0
O85 O 0.51332 0.25955 0.70787 0.0
Cd86 Cd 0.56811 0.25951 0.69534 0.0
O87 O 0.50228 0.28799 0.66748 0.0
Cd88 Cd 0.55032 0.30082 0.63384 0.0
C89 C 0.55551 0.21641 0.61738 0.0
O90 O 0.58467 0.3164 0.683 0.0
O91 O 0.61078 0.31821 0.63984 0.0
O92 O 0.524 0.34748 0.62087 0.0
C93 C 0.6118 0.32176 0.67069 0.0
O94 O 0.56601 0.21755 0.64682 0.0
C95 C 0.5338 0.34832 0.5923 0.0
O96 O 0.54614 0.24196 0.6074 0.0
O97 O 0.55157 0.3274 0.58304 0.0
C98 C 0.92712 0.23404 0.80318 0.0
O99 O 0.94607 0.25485 0.78831 0.0
Cd100 Cd -0.00251 0.28617 0.80839 0.0
O101 O 0.93548 0.22682 0.83113 0.0
Cd102 Cd 0.98749 0.24087 0.86695 0.0
C103 C 0.98372 0.32473 0.88407 0.0
O104 O 0.02291 0.24169 0.82242 0.0
O105 O 0.04625 0.26491 0.86892 0.0
O106 O -0.00525 0.18433 0.87813 0.0
C107 C 0.04893 0.25403 0.83937 0.0
O108 O 0.98966 0.32762 0.85448 0.0
C109 C 0.99009 0.18848 0.90827 0.0
O110 O 0.98129 0.29601 0.89495 0.0
O111 O 0.98223 0.21632 0.91929 0.0
C112 C 0.46597 0.03369 0.32699 0.0
O113 O 0.48 0.01781 0.3054 0.0
Cd114 Cd 0.45895 0.99535 0.25178 0.0
O115 O 0.43752 0.03898 0.32157 0.0
Cd116 Cd 0.39694 0.0285 0.27514 0.0
C117 C 0.38767 0.94329 0.2689 0.0
O118 O 0.43867 0.04296 0.23877 0.0
O119 O 0.39129 0.02479 0.2153 0.0
O120 O 0.37994 0.08059 0.29562 0.0
C121 C 0.42105 0.03669 0.21277 0.0
O122 O 0.41448 0.94641 0.2552 0.0
C123 C 0.3504 0.06966 0.28585 0.0
O124 O 0.37729 0.96929 0.28104 0.0
O125 O 0.34223 0.03879 0.27299 0.0
C126 C 0.30069 0.09252 0.50192 0.0
O127 O 0.27716 0.07566 0.5153 0.0
Cd128 Cd 0.22416 0.0865 0.52017 0.0
O129 O 0.29778 0.11936 0.48915 0.0
Cd130 Cd 0.25369 0.15239 0.4818 0.0
C131 C 0.24312 0.1674 0.56327 0.0
O132 O 0.21152 0.10188 0.46887 0.0
O133 O 0.19399 0.14805 0.48082 0.0
O134 O 0.26347 0.16199 0.42538 0.0
C135 C 0.18748 0.11605 0.47176 0.0
O136 O 0.22867 0.13615 0.56116 0.0
C137 C 0.27021 0.19445 0.43019 0.0
O138 O 0.25701 0.17962 0.53905 0.0
O139 O 0.27051 0.20803 0.4595 0.0
C140 C 0.09018 0.00497 0.83209 0.0
O141 O 0.07755 0.02605 0.81805 0.0
Cd142 Cd 0.09152 0.04964 0.76895 0.0
O143 O 0.11402 0.99324 0.8204 0.0
Cd144 Cd 0.14745 0.0006 0.77056 0.0
C145 C 0.17249 0.08733 0.78747 0.0
O146 O 0.1033 0.00483 0.73274 0.0
O147 O 0.15078 0.01657 0.71462 0.0
O148 O 0.15025 0.94028 0.75576 0.0
C149 C 0.12058 0.01433 0.70979 0.0
O150 O 0.14318 0.08896 0.7807 0.0
C151 C 0.18072 0.94416 0.76066 0.0
O152 O 0.1808 0.05848 0.78801 0.0
O153 O 0.19597 0.97421 0.77133 0.0
C154 C 0.29792 0.9418 0.96323 0.0
O155 O 0.28158 0.95786 0.94647 0.0
Cd156 Cd 0.22398 0.94793 0.9437 0.0
O157 O 0.28421 0.91876 0.97982 0.0
Cd158 Cd 0.23085 0.88863 -0.0062 0.0
C159 C 0.21408 0.8625 0.91312 0.0
O160 O 0.21826 0.94373 0.00016 0.0
O161 O 0.18178 0.90545 0.01703 0.0
O162 O 0.26308 0.87707 0.03932 0.0
C163 C 0.19148 0.93653 0.01281 0.0
O164 O 0.21461 0.89346 0.90878 0.0
C165 C 0.2463 0.84725 0.04034 0.0
O166 O 0.218 0.85419 0.9414 0.0
O167 O 0.22184 0.83736 0.0203 0.0
C168 C 0.32878 0.44575 0.021 0.0
O169 O 0.31097 0.45898 0.003 0.0
Cd170 Cd 0.25651 0.43936 0.98548 0.0
O171 O 0.3172 0.41862 0.03381 0.0
Cd172 Cd 0.26177 0.37841 0.03393 0.0
C173 C 0.26791 0.35979 0.95128 0.0
O174 O 0.2356 0.42666 0.03564 0.0
O175 O 0.20216 0.37863 0.02848 0.0
O176 O 0.27398 0.37114 0.09155 0.0
C177 C 0.20651 0.411 0.03252 0.0
O178 O 0.26329 0.38977 0.94879 0.0
C179 C 0.26071 0.33959 0.08933 0.0
O180 O 0.26826 0.34851 0.97889 0.0
O181 O 0.24905 0.32559 0.06119 0.0
C182 C 0.80708 0.0683 0.01458 0.0
O183 O 0.78817 0.05641 0.03547 0.0
Cd184 Cd 0.74395 0.0804 0.05256 0.0
O185 O 0.8045 0.09597 0.00333 0.0
Cd186 Cd 0.76831 0.13793 0.00916 0.0
C187 C 0.7776 0.16344 0.08702 0.0
O188 O 0.72098 0.09261 0.00352 0.0
O189 O 0.71246 0.14226 0.02167 0.0
O190 O 0.77527 0.14269 0.95212 0.0
C191 C 0.70093 0.11133 0.01072 0.0
O192 O 0.76035 0.13382 0.08822 0.0
C193 C 0.77527 0.1744 0.9541 0.0
O194 O 0.78958 0.17158 0.06064 0.0
O195 O 0.77375 0.18987 0.98228 0.0
C196 C 0.04637 0.49889 0.25489 0.0
O197 O 0.03405 0.51161 0.23194 0.0
Cd198 Cd 0.05072 0.50934 0.17769 0.0
O199 O 0.07097 0.4851 0.25112 0.0
Cd200 Cd 0.10856 0.4742 0.2094 0.0
C201 C 0.12545 0.55901 0.19746 0.0
O202 O 0.06229 0.45307 0.17435 0.0
O203 O 0.10575 0.44911 0.15104 0.0
O204 O 0.12822 0.4356 0.24295 0.0
C205 C 0.07515 0.44488 0.14857 0.0
O206 O 0.0985 0.55678 0.18165 0.0
C207 C 0.15749 0.44515 0.23586 0.0
O208 O 0.13208 0.53353 0.20971 0.0
O209 O 0.16313 0.46692 0.21585 0.0
C210 C 0.8267 0.9414 0.51865 0.0
O211 O 0.81123 0.95532 0.49901 0.0
Cd212 Cd 0.75663 0.93866 0.48022 0.0
O213 O 0.81312 0.91504 0.53142 0.0
Cd214 Cd 0.7575 0.87644 0.52856 0.0
C215 C 0.76551 0.85828 0.44618 0.0
O216 O 0.73338 0.92587 0.52948 0.0
O217 O 0.69876 0.87848 0.52302 0.0
O218 O 0.76885 0.86983 0.58607 0.0
C219 C 0.70406 0.9109 0.5265 0.0
O220 O 0.76211 0.88867 0.44369 0.0
C221 C 0.7548 0.83856 0.58421 0.0
O222 O 0.7647 0.8467 0.47368 0.0
O223 O 0.74299 0.8243 0.55619 0.0
C224 C 0.92718 0.00934 0.2779 0.0
O225 O 0.94449 -0.00125 0.25613 0.0
Cd226 Cd 0.93093 0.99308 0.1999 0.0
O227 O 0.90261 0.02169 0.27012 0.0
Cd228 Cd 0.8747 0.03378 0.21839 0.0
C229 C 0.85349 0.94725 0.20632 0.0
O230 O 0.9239 0.04875 0.18971 0.0
O231 O 0.88079 0.0349 0.15823 0.0
O232 O 0.86634 0.08879 0.24667 0.0
C233 C 0.91114 0.04635 0.16126 0.0
O234 O 0.88267 0.94757 0.19932 0.0
C235 C 0.83684 0.08509 0.23675 0.0
O236 O 0.84378 0.97501 0.21385 0.0
O237 O 0.82489 0.0577 0.21818 0.0
C238 C 0.29801 0.55799 0.5089 0.0
O239 O 0.28049 0.54712 0.53124 0.0
Cd240 Cd 0.23686 0.57105 0.551 0.0
O241 O 0.29442 0.58496 0.49687 0.0
Cd242 Cd 0.258 0.62661 0.50495 0.0
C243 C 0.26958 0.65432 0.58351 0.0
O244 O 0.20985 0.58293 0.50402 0.0
O245 O 0.20417 0.63397 0.52174 0.0
O246 O 0.24714 0.63166 0.44828 0.0
C247 C 0.19114 0.60307 0.51194 0.0
O248 O 0.25387 0.62445 0.58649 0.0
C249 C 0.25992 0.66314 0.4499 0.0
O250 O 0.27877 0.662 0.55595 0.0
O251 O 0.27388 0.67766 0.47696 0.0
C252 C 0.42353 0.50551 0.77994 0.0
O253 O 0.44215 0.49641 0.75877 0.0
Cd254 Cd 0.42988 0.49208 0.7022 0.0
O255 O 0.39908 0.5177 0.77155 0.0
Cd256 Cd 0.37318 0.53175 0.71982 0.0
C257 C 0.35249 0.44566 0.70728 0.0
O258 O 0.42207 0.54712 0.69059 0.0
O259 O 0.37842 0.53191 0.65978 0.0
O260 O 0.36579 0.58702 0.74789 0.0
C261 C 0.40868 0.54399 0.66228 0.0
O262 O 0.38181 0.44632 0.70063 0.0
C263 C 0.33617 0.58351 0.73848 0.0
O264 O 0.34241 0.4732 0.71477 0.0
O265 O 0.32367 0.556 0.72033 0.0
C266 C 0.55813 0.00953 0.76276 0.0
O267 O 0.54257 0.0197 0.74026 0.0
Cd268 Cd 0.55468 0.01569 0.68442 0.0
O269 O 0.58261 -0.00394 0.75693 0.0
Cd270 Cd 0.61557 0.98105 0.71208 0.0
C271 C 0.63055 0.06538 0.69864 0.0
O272 O 0.56733 0.95999 0.67925 0.0
O273 O 0.60974 0.95688 0.65358 0.0
O274 O 0.63391 0.94068 0.74439 0.0
C275 C 0.57912 0.95262 0.65256 0.0
O276 O 0.60235 0.06279 0.68524 0.0
C277 C 0.66325 0.94879 0.73707 0.0
O278 O 0.63878 0.04021 0.71021 0.0
O279 O 0.66977 0.97091 0.71746 0.0
C280 C 0.80015 0.58917 -0.00325 0.0
O281 O 0.77618 0.57209 0.00932 0.0
Cd282 Cd 0.72413 0.58599 0.01391 0.0
O283 O 0.79765 0.61655 0.98478 0.0
Cd284 Cd 0.75343 0.64965 0.97754 0.0
C285 C 0.74421 0.66575 0.05851 0.0
O286 O 0.70878 0.60089 0.96276 0.0
O287 O 0.6944 0.64753 0.981 0.0
O288 O 0.76507 0.65855 0.92113 0.0
C289 C 0.68604 0.61659 0.9683 0.0
O290 O 0.72878 0.63483 0.05596 0.0
C291 C 0.7706 0.69101 0.92532 0.0
O292 O 0.75882 0.67766 0.03454 0.0
O293 O 0.76896 0.70491 0.95421 0.0
C294 C 0.96973 0.54422 0.82867 0.0
O295 O 0.98355 0.5285 0.80685 0.0
Cd296 Cd 0.96063 0.50482 0.75414 0.0
O297 O 0.94111 0.54905 0.82358 0.0
Cd298 Cd 0.90182 0.53671 0.77629 0.0
C299 C 0.89008 0.45241 0.77212 0.0
O300 O 0.93998 0.55003 0.73545 0.0
O301 O 0.89408 0.51796 0.71801 0.0
O302 O 0.88692 0.59141 0.77859 0.0
C303 C 0.92053 0.53639 0.71155 0.0
O304 O 0.91635 0.45553 0.75746 0.0
C305 C 0.85662 0.57977 0.77752 0.0
O306 O 0.88051 0.47849 0.78536 0.0
O307 O 0.84721 0.54821 0.77998 0.0
C308 C 0.78922 0.43745 0.4542 0.0
O309 O 0.77297 0.45184 0.43561 0.0
Cd310 Cd 0.71524 0.44379 0.43548 0.0
O311 O 0.77535 0.41732 0.47336 0.0
Cd312 Cd 0.7224 0.39138 0.49011 0.0
C313 C 0.70166 0.35753 0.41116 0.0
O314 O 0.71099 0.4474 0.49328 0.0
O315 O 0.67418 0.41066 0.51196 0.0
O316 O 0.75526 0.38376 0.53688 0.0
C317 C 0.68448 0.44133 0.50669 0.0
O318 O 0.70033 0.38722 0.40401 0.0
C319 C 0.73871 0.35434 0.53999 0.0
O320 O 0.70889 0.3531 0.44012 0.0
O321 O 0.71395 0.34298 0.52058 0.0
C322 C 0.58729 0.50788 0.33122 0.0
O323 O 0.57533 0.52923 0.31687 0.0
Cd324 Cd 0.58897 0.55078 0.26669 0.0
O325 O 0.61056 0.49511 0.31958 0.0
Cd326 Cd 0.64449 0.50157 0.27004 0.0
C327 C 0.66982 0.58848 0.28479 0.0
O328 O 0.60098 0.50548 0.23114 0.0
O329 O 0.64886 0.51678 0.21388 0.0
O330 O 0.64752 0.44113 0.25637 0.0
C331 C 0.61876 0.51478 0.20845 0.0
O332 O 0.6406 0.59005 0.27755 0.0
C333 C 0.67781 0.44496 0.26268 0.0
O334 O 0.67795 0.55969 0.28648 0.0
O335 O 0.69284 0.4751 0.2733 0.0
Dy336 Dy 0.97347 0.00335 0.98725 0.0
C337 C 0.10542 0.0287 0.03119 0.0
C338 C 0.90905 0.0009 0.97573 0.0
Dy339 Dy 0.0424 0.02951 0.01526 0.0
O340 O 0.93198 0.01642 0.95957 0.0
O341 O 0.92136 0.98457 -0.00338 0.0
O342 O 0.98968 0.97117 0.94509 0.0
O343 O 0.0199 0.0167 0.96614 0.0
C344 C 0.01847 0.99052 0.94581 0.0
C345 C -0.00283 0.0437 0.05575 0.0
O346 O 0.03732 0.07427 0.98985 0.0
O347 O 0.98135 0.06091 0.98959 0.0
O348 O 0.08177 0.02341 0.0503 0.0
O349 O 0.09488 0.0375 0.00421 0.0
O350 O 0.02587 0.06312 0.05595 0.0
O351 O -0.0043 0.01672 0.03638 0.0
O352 O 0.97933 0.95881 0.01296 0.0
O353 O 0.03498 0.97225 0.01235 0.0
C354 C 0.00865 0.08212 0.98481 0.0
C355 C 0.008 0.95088 0.01729 0.0
Dy356 Dy 0.26542 0.75056 0.20333 0.0
C357 C 0.24853 0.73275 0.33785 0.0
C358 C 0.27009 0.76904 0.14221 0.0
Dy359 Dy 0.25121 0.75026 0.27631 0.0
O360 O 0.29011 0.78233 0.16691 0.0
O361 O 0.24812 0.74467 0.15063 0.0
O362 O 0.2977 0.71223 0.20622 0.0
O363 O 0.29206 0.74463 0.24732 0.0
C364 C 0.30363 0.71904 0.23764 0.0
C365 C 0.2149 0.78379 0.24293 0.0
O366 O 0.28957 0.79766 0.2796 0.0
O367 O 0.28406 0.80479 0.22491 0.0
O368 O 0.22525 0.72341 0.31531 0.0
O369 O 0.27289 0.75256 0.32709 0.0
O370 O 0.22013 0.7899 0.27446 0.0
O371 O 0.22508 0.75741 0.23265 0.0
O372 O 0.22417 0.70635 0.19972 0.0
O373 O 0.23186 0.69602 0.25304 0.0
C374 C 0.29613 0.81579 0.25506 0.0
C375 C 0.21843 0.68655 0.22304 0.0
Dy376 Dy 0.55101 0.0163 0.50244 0.0
C377 C 0.42054 0.04369 0.5021 0.0
C378 C 0.60201 0.98542 0.51144 0.0
Dy379 Dy 0.47782 0.02239 0.50624 0.0
O380 O 0.57186 0.97178 0.51375 0.0
O381 O 0.60478 0.01664 0.5043 0.0
O382 O 0.55779 0.04627 0.45949 0.0
O383 O 0.51203 0.01951 0.46873 0.0
C384 C 0.52673 0.04141 0.45236 0.0
C385 C 0.50461 -0.00288 0.55525 0.0
O386 O 0.47216 0.975 0.47031 0.0
O387 O 0.5222 0.96315 0.48459 0.0
O388 O 0.42453 0.01595 0.51367 0.0
O389 O 0.44777 0.05966 0.49265 0.0
O390 O 0.47379 0.98842 0.54704 0.0
O391 O 0.51736 0.02036 0.53954 0.0
O392 O 0.55657 0.0658 0.53573 0.0
O393 O 0.50534 0.07607 0.52299 0.0
C394 C 0.49261 0.95375 0.47019 0.0
C395 C 0.53544 0.08646 0.53605 0.0
Dy396 Dy 0.23239 0.26966 0.7607 0.0
C397 C 0.36681 0.2728 0.74027 0.0
C398 C 0.1717 0.26895 0.78103 0.0
Dy399 Dy 0.3043 0.26503 0.75768 0.0
O400 O 0.19778 0.28972 0.79365 0.0
O401 O 0.1785 0.24877 0.75657 0.0
O402 O 0.23959 0.31393 0.73149 0.0
O403 O 0.27806 0.30673 0.76178 0.0
C404 C 0.27026 0.32354 0.73993 0.0
C405 C 0.26591 0.20973 0.77611 0.0
O406 O 0.30362 0.29538 0.80664 0.0
O407 O 0.25034 0.27052 0.81255 0.0
O408 O 0.35576 0.25859 0.76537 0.0
O409 O 0.34389 0.28324 0.72515 0.0
O410 O 0.29685 0.21757 0.78365 0.0
O411 O 0.25884 0.22855 0.75593 0.0
O412 O 0.22983 0.24103 0.71071 0.0
O413 O 0.28551 0.25131 0.70517 0.0
C414 C 0.27878 0.28815 0.82519 0.0
C415 C 0.25524 0.24057 0.69278 0.0
Dy416 Dy -0.00342 0.00981 0.4706 0.0
C417 C 0.06394 0.05719 0.59717 0.0
C418 C 0.96414 -0.00346 0.41082 0.0
Dy419 Dy 0.02192 0.04388 0.54377 0.0
O420 O 0.98979 0.98511 0.41862 0.0
O421 O 0.95536 0.01383 0.43616 0.0
O422 O 0.04826 0.00768 0.45997 0.0
O423 O 0.03858 0.04547 0.49462 0.0
C424 C 0.06091 0.0331 0.48192 0.0
C425 C 0.95877 0.01293 0.5393 0.0
O426 O 0.01703 0.09181 0.52206 0.0
O427 O -0.00892 0.06472 0.47201 0.0
O428 O 0.03599 0.0664 0.59577 0.0
O429 O 0.06962 0.04299 0.56873 0.0
O430 O 0.9732 0.02927 0.56651 0.0
O431 O 0.97891 0.01592 0.51794 0.0
O432 O -0.00837 0.96285 0.49626 0.0
O433 O 0.02847 0.98919 0.53931 0.0
C434 C 0.00223 0.09265 0.49313 0.0
C435 C 0.01008 0.96137 0.52262 0.0
Dy436 Dy 0.29177 0.78077 0.75936 0.0
C437 C 0.16548 0.72635 0.70086 0.0
C438 C 0.35026 0.80039 0.79303 0.0
Dy439 Dy 0.22075 0.74242 0.7402 0.0
O440 O 0.3436 0.80873 0.76448 0.0
O441 O 0.3245 0.78268 0.80377 0.0
O442 O 0.30254 0.78017 0.70576 0.0
O443 O 0.26749 0.74279 0.72149 0.0
C444 C 0.27922 0.75392 0.69668 0.0
C445 C 0.23206 0.7682 0.80323 0.0
O446 O 0.24299 0.69641 0.74441 0.0
O447 O 0.29097 0.72703 0.77177 0.0
O448 O 0.16732 0.72084 0.73124 0.0
O449 O 0.1941 0.73872 0.69186 0.0
O450 O 0.21005 0.74094 0.79299 0.0
O451 O 0.24463 0.78047 0.77899 0.0
O452 O 0.26961 0.82695 0.75622 0.0
O453 O 0.22123 0.79676 0.72969 0.0
C454 C 0.27124 0.69747 0.76038 0.0
C455 C 0.24116 0.8262 0.7409 0.0
Dy456 Dy 0.49839 0.0185 0.02888 0.0
C457 C 0.51989 0.02533 0.89413 0.0
C458 C 0.47576 0.02596 0.08878 0.0
Dy459 Dy 0.5019 0.0286 0.95623 0.0
O460 O 0.50255 0.01564 0.08267 0.0
O461 O 0.46173 0.0321 0.06244 0.0
O462 O 0.52374 0.97441 0.02391 0.0
O463 O 0.49664 0.98471 0.98372 0.0
C464 C 0.5169 0.96772 0.99262 0.0
C465 C 0.48714 0.08061 -0.00417 0.0
O466 O 0.45298 0.99527 0.95324 0.0
O467 O 0.44686 0.00037 0.00902 0.0
O468 O 0.49513 0.03748 0.90406 0.0
O469 O 0.53472 0.0154 0.91801 0.0
O470 O 0.47823 0.07511 0.96501 0.0
O471 O 0.506 0.06141 0.00163 0.0
O472 O 0.54775 0.05179 0.03001 0.0
O473 O 0.55381 0.04051 0.97451 0.0
C474 C 0.43502 0.99117 0.97852 0.0
C475 C 0.56597 0.05168 0.00459 0.0
Dy476 Dy 0.26672 0.30985 0.27297 0.0
C477 C 0.28126 0.17439 0.26647 0.0
C478 C 0.25205 0.37296 0.27515 0.0
Dy479 Dy 0.26185 0.23195 0.25356 0.0
O480 O 0.24918 0.3543 0.29884 0.0
O481 O 0.26456 0.35775 0.25096 0.0
O482 O 0.29215 0.30641 0.32145 0.0
O483 O 0.25824 0.26492 0.29764 0.0
C484 C 0.27844 0.2743 0.32158 0.0
C485 C 0.25101 0.26626 0.20339 0.0
O486 O 0.2138 0.2315 0.27441 0.0
O487 O 0.2128 0.28734 0.26638 0.0
O488 O 0.25801 0.17455 0.24473 0.0
O489 O 0.29366 0.20516 0.27979 0.0
O490 O 0.23962 0.23343 0.20306 0.0
O491 O 0.26978 0.27667 0.22839 0.0
O492 O 0.31717 0.31306 0.25643 0.0
O493 O 0.31482 0.25412 0.25071 0.0
C494 C 0.19823 0.25705 0.27403 0.0
C495 C 0.33086 0.28608 0.25067 0.0
Dy496 Dy 0.49297 0.5116 0.96977 0.0
C497 C 0.56569 0.55913 0.09449 0.0
C498 C 0.45611 0.48993 0.91293 0.0
Dy499 Dy 0.52677 0.54193 0.03846 0.0
O500 O 0.48292 0.48051 0.92051 0.0
O501 O 0.44835 0.50923 0.9375 0.0
O502 O 0.53614 0.53619 0.94478 0.0
O503 O 0.54251 0.52316 0.99175 0.0
C504 C 0.55611 0.53913 0.96984 0.0
C505 C 0.46324 0.51438 0.037 0.0
O506 O 0.52639 0.59056 0.01597 0.0
O507 O 0.4882 0.56624 0.97333 0.0
O508 O 0.53587 0.563 0.09144 0.0
O509 O 0.57489 0.54869 0.06616 0.0
O510 O 0.4831 0.51445 0.0616 0.0
O511 O 0.47767 0.53133 0.01626 0.0
O512 O 0.49031 0.46369 -0.00591 0.0
O513 O 0.53173 0.48736 0.0334 0.0
C514 C 0.50701 0.59325 0.99066 0.0
C515 C 0.5108 0.46066 0.01822 0.0
Dy516 Dy 0.78844 0.28095 0.26617 0.0
C517 C 0.66509 0.22849 0.1999 0.0
C518 C 0.84618 0.30053 0.30141 0.0
Dy519 Dy 0.71924 0.2427 0.24096 0.0
O520 O 0.83934 0.31133 0.27408 0.0
O521 O 0.82089 0.28027 0.31024 0.0
O522 O 0.80267 0.28477 0.21374 0.0
O523 O 0.76719 0.24541 0.22523 0.0
C524 C 0.78024 0.25864 0.20204 0.0
C525 C 0.72549 0.26314 0.30542 0.0
O526 O 0.74228 0.19681 0.24305 0.0
O527 O 0.7875 0.22621 0.27568 0.0
O528 O 0.66618 0.22075 0.22957 0.0
O529 O 0.69394 0.24203 0.19231 0.0
O530 O 0.70538 0.23579 0.29184 0.0
O531 O 0.73969 0.27826 0.28333 0.0
O532 O 0.7654 0.32686 0.26553 0.0
O533 O 0.7203 0.29784 0.23292 0.0
C534 C 0.76929 0.19709 0.26093 0.0
C535 C 0.73863 0.32685 0.24755 0.0
Dy536 Dy 0.98684 0.51777 0.523 0.0
C537 C 0.00097 0.51154 0.38291 0.0
C538 C 0.9686 0.52504 0.58452 0.0
Dy539 Dy -0.0065 0.5247 0.44719 0.0
O540 O 0.98974 0.54785 0.57252 0.0
O541 O 0.95835 0.49836 0.56331 0.0
O542 O 0.00876 0.47049 0.52431 0.0
O543 O 0.00418 0.49197 0.48185 0.0
C544 C 0.01418 0.46821 0.49352 0.0
C545 C 0.98008 0.57848 0.48458 0.0
O546 O 0.94388 0.49292 0.44531 0.0
O547 O 0.9368 0.49556 0.50123 0.0
O548 O -0.00915 0.53812 0.39623 0.0
O549 O 0.00669 0.49233 0.40458 0.0
O550 O -0.00375 0.58147 0.45848 0.0
O551 O 0.97015 0.54733 0.48751 0.0
O552 O 0.03492 0.5535 0.5225 0.0
O553 O 0.04418 0.53968 0.46761 0.0
C554 C 0.92618 0.48608 0.47035 0.0
C555 C 0.05415 0.55347 0.49779 0.0
Dy556 Dy 0.73106 0.76974 0.25495 0.0
C557 C 0.86598 0.7722 0.23684 0.0
C558 C 0.67028 0.7692 0.27548 0.0
Dy559 Dy 0.80307 0.7647 0.25291 0.0
O560 O 0.69658 0.78936 0.28839 0.0
O561 O 0.67687 0.74958 0.25046 0.0
O562 O 0.73919 0.81458 0.22636 0.0
O563 O 0.77703 0.80658 0.25692 0.0
C564 C 0.7698 0.82388 0.23524 0.0
C565 C 0.76411 0.70956 0.27089 0.0
O566 O 0.80189 0.7947 0.30188 0.0
O567 O 0.74838 0.77007 0.30693 0.0
O568 O 0.85424 0.75774 0.26153 0.0
O569 O 0.84352 0.78303 0.22137 0.0
O570 O 0.79498 0.71722 0.27882 0.0
O571 O 0.75741 0.72849 0.25064 0.0
O572 O 0.7291 0.74096 0.20503 0.0
O573 O 0.78492 0.75097 0.20024 0.0
C574 C 0.77675 0.78739 0.32002 0.0
C575 C 0.75478 0.74027 0.18749 0.0
Dy576 Dy 0.76654 0.26101 0.70463 0.0
C577 C 0.75974 0.23384 0.83636 0.0
C578 C 0.76799 0.28077 0.64393 0.0
Dy579 Dy 0.75487 0.25852 0.77857 0.0
O580 O 0.78814 0.29491 0.6683 0.0
O581 O 0.74771 0.25503 0.65244 0.0
O582 O 0.80132 0.22486 0.70622 0.0
O583 O 0.79493 0.25662 0.74777 0.0
C584 C 0.80744 0.2319 0.7376 0.0
C585 C 0.71472 0.28926 0.74708 0.0
O586 O 0.79424 0.30508 0.78072 0.0
O587 O 0.78337 0.31524 0.72774 0.0
O588 O 0.75326 0.26378 0.83333 0.0
O589 O 0.76266 0.21765 0.80808 0.0
O590 O 0.71953 0.2942 0.77874 0.0
O591 O 0.72699 0.26462 0.73585 0.0
O592 O 0.72743 0.2142 0.70029 0.0
O593 O 0.72817 0.20667 0.75525 0.0
C594 C 0.79776 0.3251 0.75725 0.0
C595 C 0.7187 0.19583 0.72424 0.0
Dy596 Dy 0.76635 0.80538 0.76872 0.0
C597 C 0.77289 0.66522 0.73777 0.0
C598 C 0.75312 0.86947 0.77438 0.0
Dy599 Dy 0.75909 0.72898 0.74512 0.0
O600 O 0.74672 0.84795 0.79545 0.0
O601 O 0.76859 0.85659 0.75117 0.0
O602 O 0.79404 0.80096 0.81533 0.0
O603 O 0.75977 0.75923 0.79233 0.0
C604 C 0.78147 0.76852 0.81512 0.0
C605 C 0.7453 0.76671 0.69867 0.0
O606 O 0.71182 0.7273 0.7673 0.0
O607 O 0.71238 0.78427 0.76298 0.0
O608 O 0.78403 0.68971 0.72087 0.0
O609 O 0.75206 0.67484 0.75716 0.0
O610 O 0.73167 0.73459 0.69865 0.0
O611 O 0.76668 0.77517 0.7217 0.0
O612 O 0.81509 0.80632 0.74892 0.0
O613 O 0.81253 0.74934 0.75475 0.0
C614 C 0.69738 0.75373 0.76946 0.0
C615 C 0.82878 0.77932 0.74825 0.0
Dy616 Dy 0.4692 0.5023 0.48601 0.0
C617 C 0.6019 0.53658 0.5273 0.0
C618 C 0.40408 0.4954 0.47415 0.0
Dy619 Dy 0.53768 0.53365 0.51373 0.0
O620 O 0.42619 0.51023 0.45666 0.0
O621 O 0.41768 0.48222 0.49674 0.0
O622 O 0.48785 0.47088 0.44481 0.0
O623 O 0.51507 0.51848 0.46493 0.0
C624 C 0.51551 0.49231 0.44519 0.0
C625 C 0.49175 0.54537 0.55409 0.0
O626 O 0.52932 0.5782 0.48955 0.0
O627 O 0.47352 0.5591 0.48567 0.0
O628 O 0.57957 0.53286 0.54807 0.0
O629 O 0.58928 0.5422 0.49987 0.0
O630 O 0.51974 0.56613 0.55408 0.0
O631 O 0.49146 0.51837 0.53504 0.0
O632 O 0.47766 0.45919 0.51241 0.0
O633 O 0.53328 0.47688 0.51423 0.0
C634 C 0.4997 0.58271 0.48247 0.0
C635 C 0.50711 0.45387 0.51841 0.0
Dy636 Dy 0.05168 0.51333 0.00189 0.0
C637 C 0.92031 0.5404 -0.00154 0.0
C638 C 0.10293 0.4828 0.01211 0.0
Dy639 Dy 0.97776 0.5192 0.00358 0.0
O640 O 0.07266 0.46832 0.01191 0.0
O641 O 0.10562 0.51458 0.0067 0.0
O642 O 0.05983 0.54434 0.9597 0.0
O643 O 0.01359 0.51741 0.96749 0.0
C644 C 0.02889 0.53981 0.95201 0.0
C645 C 0.00322 0.49278 0.05256 0.0
O646 O 0.97348 0.47237 0.96719 0.0
O647 O 0.02303 0.46038 0.98327 0.0
O648 O 0.92397 0.51199 0.00891 0.0
O649 O 0.94797 0.55708 0.99067 0.0
O650 O 0.97255 0.48429 0.04363 0.0
O651 O 0.01644 0.5164 0.03758 0.0
O652 O 0.05589 0.56211 0.036 0.0
O653 O 0.00503 0.5726 0.02179 0.0
C654 C -0.00611 0.45112 0.96788 0.0
C655 C 0.03476 0.58276 0.03586 0.0
C656 C 0.02124 0.14566 0.92395 0.0
C657 C -0.00427 0.16294 0.92961 0.0
H658 H 0.04611 0.10752 0.93803 0.0
C659 C 0.97608 0.15553 0.95556 0.0
H660 H 0.03694 0.15118 0.90429 0.0
C661 C 0.98088 0.12993 0.97445 0.0
C662 C 0.00623 0.1124 0.9685 0.0
H663 H 0.95632 0.1686 0.96043 0.0
H664 H 0.96451 0.12346 -0.00664 0.0
C665 C 0.02676 0.12103 0.94352 0.0
C666 C 0.14414 0.82283 0.2203 0.0
C667 C 0.14219 0.81572 0.18614 0.0
H668 H 0.16924 0.8188 0.26521 0.0
C669 C 0.16677 0.80204 0.17086 0.0
H670 H 0.12557 0.83348 0.23272 0.0
C671 C 0.19131 0.79307 0.1895 0.0
C672 C 0.19209 0.79821 0.22364 0.0
H673 H 0.16596 0.79624 0.14461 0.0
H674 H 0.20902 0.78097 0.17721 0.0
C675 C 0.16908 0.81443 0.23891 0.0
C676 C 0.4703 0.88747 0.39642 0.0
C677 C 0.4804 0.85918 0.4074 0.0
H678 H 0.46513 0.93954 0.40835 0.0
C679 C 0.49134 0.86129 0.44016 0.0
H680 H 0.46172 0.88648 0.37128 0.0
C681 C 0.49402 0.89178 0.46101 0.0
C682 C 0.48476 0.92031 0.44981 0.0
H683 H 0.49947 0.83997 0.44924 0.0
H684 H 0.50415 0.89336 0.48569 0.0
C685 C 0.472 0.91766 0.41763 0.0
C686 C 0.43901 0.28872 0.68863 0.0
C687 C 0.46121 0.27343 0.70474 0.0
H688 H 0.39174 0.30069 0.68749 0.0
C689 C 0.45225 0.25872 0.73316 0.0
H690 H 0.44515 0.3004 0.66678 0.0
C691 C 0.42176 0.25908 0.74506 0.0
C692 C 0.39959 0.27409 0.72878 0.0
H693 H 0.46876 0.24684 0.74629 0.0
H694 H 0.41543 0.24729 0.76683 0.0
C695 C 0.40848 0.28901 0.70054 0.0
C696 C 0.02128 0.89833 0.58156 0.0
C697 C 0.00254 0.86738 0.56615 0.0
H698 H 0.03882 0.95158 0.57987 0.0
C699 C 0.98725 0.86708 0.53527 0.0
H700 H 0.03357 0.89951 0.60521 0.0
C701 C 0.99008 0.89731 0.52057 0.0
C702 C 0.00859 0.92837 0.53627 0.0
H703 H 0.97266 0.84361 0.52271 0.0
H704 H 0.97746 0.89641 0.49715 0.0
C705 C 0.02441 0.92827 0.56681 0.0
C706 C 0.44116 0.81909 0.80173 0.0
C707 C 0.4472 0.80007 0.82699 0.0
H708 H 0.40581 0.83458 0.77172 0.0
C709 C 0.42087 0.78363 0.84302 0.0
H710 H 0.4608 0.83246 0.78902 0.0
C711 C 0.38916 0.78522 0.83313 0.0
C712 C 0.38335 0.80324 0.80711 0.0
H713 H 0.42469 0.76907 0.86274 0.0
H714 H 0.3692 0.77137 0.8451 0.0
C715 C 0.40963 0.82061 0.79191 0.0
C716 C 0.46473 0.16246 0.03541 0.0
C717 C 0.47608 0.16279 0.06791 0.0
H718 H 0.45868 0.13556 0.98672 0.0
C719 C 0.48879 0.13491 0.07622 0.0
H720 H 0.45495 0.18364 0.0282 0.0
C721 C 0.49182 0.10846 0.05262 0.0
C722 C 0.48119 0.10823 0.02013 0.0
H723 H 0.49806 0.13417 0.1008 0.0
H724 H 0.50349 0.08858 0.05984 0.0
C725 C 0.46695 0.13509 0.0117 0.0
C726 C 0.11859 0.27603 0.30241 0.0
C727 C 0.11474 0.25835 0.32989 0.0
H728 H 0.14846 0.28986 0.26316 0.0
C729 C 0.13697 0.23811 0.337 0.0
H730 H 0.10175 0.29187 0.29646 0.0
C731 C 0.16286 0.23594 0.3173 0.0
C732 C 0.1676 0.25479 0.29064 0.0
H733 H 0.13443 0.22411 0.35792 0.0
H734 H 0.18009 0.22081 0.32398 0.0
C735 C 0.14515 0.27477 0.28329 0.0
C736 C 0.96319 0.06881 0.13648 0.0
C737 C 0.93164 0.0487 0.13289 0.0
H738 H 0.00835 0.08368 0.11464 0.0
C739 C 0.9211 0.02879 0.10287 0.0
H740 H 0.97198 0.08444 0.15933 0.0
C741 C 0.94224 0.02769 0.0776 0.0
C742 C 0.97402 0.04717 0.08145 0.0
H743 H 0.89702 0.01286 0.09937 0.0
H744 H 0.93389 0.01109 0.05527 0.0
C745 C 0.98401 0.0684 0.11089 0.0
C746 C 0.27822 0.713 0.41916 0.0
C747 C 0.25673 0.68213 0.42203 0.0
H748 H 0.29252 0.75341 0.38973 0.0
C749 C 0.23132 0.66953 0.39823 0.0
H750 H 0.29789 0.72331 0.43733 0.0
C751 C 0.22773 0.68713 0.3717 0.0
C752 C 0.24987 0.71727 0.36815 0.0
H753 H 0.21413 0.64602 0.4001 0.0
H754 H 0.20826 0.67647 0.3534 0.0
C755 C 0.27504 0.73026 0.39214 0.0
C756 C 0.52741 0.94426 0.61895 0.0
C757 C 0.5611 0.95672 0.62288 0.0
H758 H 0.48269 0.94692 0.5937 0.0
C759 C 0.57591 0.98032 0.60293 0.0
H760 H 0.51546 0.92657 0.6347 0.0
C761 C 0.55716 0.99322 0.58117 0.0
C762 C 0.52343 0.98152 0.57758 0.0
H763 H 0.60165 0.99111 0.60607 0.0
H764 H 0.56917 0.01322 0.56779 0.0
C765 C 0.50867 0.95622 0.59598 0.0
C766 C 0.25775 0.30508 0.91296 0.0
C767 C 0.2744 0.33901 0.92134 0.0
H768 H 0.24592 0.26228 0.87543 0.0
C769 C 0.29548 0.35445 0.89931 0.0
H770 H 0.24127 0.29271 0.92946 0.0
C771 C 0.29892 0.33681 0.86891 0.0
C772 C 0.28059 0.30374 0.85955 0.0
H773 H 0.30868 0.3806 0.9053 0.0
H774 H 0.31435 0.3499 0.85199 0.0
C775 C 0.26043 0.28777 0.88209 0.0
C776 C 0.91917 0.01899 0.33813 0.0
C777 C 0.93509 0.00514 0.31221 0.0
H778 H 0.9157 0.0268 0.38996 0.0
C779 C 0.95871 0.98621 0.31916 0.0
H780 H 0.90071 0.03344 0.33362 0.0
C781 C 0.96688 0.98203 0.35115 0.0
C782 C 0.9518 -0.00322 0.37707 0.0
H783 H 0.97122 0.97473 0.29986 0.0
H784 H 0.98573 0.96803 0.35561 0.0
C785 C 0.92756 0.01494 0.37033 0.0
C786 C 0.29568 0.71216 0.61369 0.0
C787 C 0.27285 0.68111 0.61162 0.0
H788 H 0.31588 0.76027 0.64272 0.0
C789 C 0.25108 0.67608 0.6362 0.0
H790 H 0.31247 0.71683 0.59477 0.0
C791 C 0.25238 0.70092 0.66256 0.0
C792 C 0.27591 0.73132 0.66563 0.0
H793 H 0.23265 0.65291 0.63505 0.0
H794 H 0.23528 0.6957 0.68108 0.0
C795 C 0.29741 0.73708 0.64081 0.0
C796 C 0.56527 0.0028 0.82138 0.0
C797 C 0.54805 0.01371 0.79634 0.0
H798 H 0.5697 -0.00189 0.87206 0.0
C799 C 0.52141 0.02877 0.80379 0.0
H800 H 0.5859 0.9911 0.81647 0.0
C801 C 0.51218 0.03281 0.83577 0.0
C802 C 0.5295 0.02187 0.86059 0.0
H803 H 0.50768 0.03744 0.78499 0.0
H804 H 0.49154 0.04439 0.84103 0.0
C805 C 0.55606 0.00686 0.85323 0.0
C806 C 0.23866 0.28739 0.11679 0.0
C807 C 0.25814 0.32045 0.11831 0.0
H808 H 0.22064 0.24451 0.14245 0.0
C809 C 0.27463 0.33546 0.14816 0.0
H810 H 0.22548 0.27506 0.09425 0.0
C811 C 0.27196 0.3179 0.1756 0.0
C812 C 0.25237 0.28498 0.17422 0.0
H813 H 0.28991 0.36078 0.15031 0.0
H814 H 0.2857 0.33004 0.19787 0.0
C815 C 0.23572 0.26991 0.14445 0.0
C816 C 0.14936 0.95881 0.04447 0.0
C817 C 0.17238 0.96288 0.02096 0.0
H818 H 0.11108 0.97802 0.06755 0.0
C819 C 0.17674 0.99219 0.00473 0.0
H820 H 0.14592 0.93668 0.05762 0.0
C821 C 0.15658 0.0157 0.01009 0.0
C822 C 0.1324 0.01066 0.03237 0.0
H823 H 0.19457 -0.00399 0.98662 0.0
H824 H 0.15873 0.03674 -0.00441 0.0
C825 C 0.12982 0.9828 0.05049 0.0
C826 C 0.63418 0.60239 -0.00419 0.0
C827 C 0.6526 0.59728 0.96876 0.0
H828 H 0.58929 0.58684 0.01794 0.0
C829 C 0.63961 0.57191 0.94297 0.0
H830 H 0.64395 0.62153 0.0162 0.0
C831 C 0.60827 0.55266 0.94374 0.0
C832 C 0.59 0.55744 0.9709 0.0
H833 H 0.6535 0.56739 0.92203 0.0
H834 H 0.59832 0.53391 0.92312 0.0
C835 C 0.60322 0.58223 -0.00293 0.0
C836 C 0.67855 0.38475 0.23945 0.0
C837 C 0.69457 0.41567 0.25744 0.0
H838 H 0.68003 0.33316 0.22147 0.0
C839 C 0.72641 0.41803 0.27025 0.0
H840 H 0.65416 0.38209 0.22897 0.0
C841 C 0.7414 0.38967 0.2661 0.0
C842 C 0.72502 0.35847 0.24867 0.0
H843 H 0.73947 0.44154 0.28415 0.0
H844 H 0.7655 0.39198 0.27718 0.0
C845 C 0.6936 0.35667 0.23496 0.0
C846 C 0.84227 0.43961 0.48314 0.0
C847 C 0.82476 0.4462 0.45591 0.0
H848 H 0.88833 0.44728 0.50901 0.0
C849 C 0.84138 0.46313 0.43179 0.0
H850 H 0.83013 0.42651 0.5021 0.0
C851 C 0.87488 0.47459 0.4356 0.0
C852 C 0.89198 0.46978 0.46383 0.0
H853 H 0.82845 0.46826 0.41045 0.0
H854 H 0.8871 0.48863 0.41725 0.0
C855 C 0.87556 0.45157 0.48719 0.0
C856 C 0.33517 0.12467 0.30516 0.0
C857 C 0.32791 0.09322 0.28528 0.0
H858 H 0.32537 0.1747 0.315 0.0
C859 C 0.30185 0.08677 0.26165 0.0
H860 H 0.35491 0.13015 0.3237 0.0
C861 C 0.28512 0.11262 0.25621 0.0
C862 C 0.29417 0.14488 0.2746 0.0
H863 H 0.29585 0.06264 0.24595 0.0
H864 H 0.26641 0.10795 0.23669 0.0
C865 C 0.31832 0.15018 0.3 0.0
C866 C 0.33358 0.04951 0.51382 0.0
C867 C 0.33155 0.08019 0.50125 0.0
H868 H 0.36321 0.01397 0.52375 0.0
C869 C 0.35909 0.0985 0.48832 0.0
H870 H 0.31286 0.03462 0.52389 0.0
C871 C 0.38807 0.0865 0.4883 0.0
C872 C 0.38993 0.05598 0.50112 0.0
H873 H 0.35835 0.12215 0.47841 0.0
H874 H 0.40904 0.10118 0.47843 0.0
C875 C 0.36242 0.03755 0.51371 0.0
C876 C 0.68512 0.65123 0.28206 0.0
C877 C 0.69474 0.62052 0.28703 0.0
H878 H 0.69975 0.7031 0.2731 0.0
C879 C 0.72807 0.62047 0.29029 0.0
H880 H 0.65976 0.65253 0.27977 0.0
C881 C 0.7511 0.65006 0.28674 0.0
C882 C 0.74102 0.67977 0.27941 0.0
H883 H 0.73631 0.5973 0.29419 0.0
H884 H 0.77659 0.64916 0.28807 0.0
C885 C 0.70799 0.68031 0.27804 0.0
C886 C 0.86575 0.39598 0.74128 0.0
C887 C 0.86831 0.4187 0.77004 0.0
H888 H 0.84057 0.34892 0.71453 0.0
C889 C 0.84789 0.41015 0.7952 0.0
H890 H 0.88096 0.40216 0.7214 0.0
C891 C 0.82517 0.37923 0.79153 0.0
C892 C 0.82187 0.35727 0.76219 0.0
H893 H 0.84941 0.42743 0.81756 0.0
H894 H 0.80964 0.37295 0.81113 0.0
C895 C 0.84242 0.36578 0.73721 0.0
C896 C -0.00286 0.88344 0.0746 0.0
C897 C 0.02444 0.86888 0.06911 0.0
H898 H 0.96978 0.92006 0.06147 0.0
C899 C 0.04423 0.87897 0.04397 0.0
H900 H 0.98136 0.87595 0.0937 0.0
C901 C 0.03793 0.90457 0.02595 0.0
C902 C 0.01115 0.91984 0.03205 0.0
H903 H 0.06544 0.8682 0.03923 0.0
H904 H 0.05453 0.91312 0.00784 0.0
C905 C 0.9903 0.90838 0.05593 0.0
C906 C 0.88837 0.21007 0.75585 0.0
C907 C 0.8938 0.22257 0.78912 0.0
H908 H 0.85587 0.20204 0.71337 0.0
C909 C 0.86855 0.23251 0.80626 0.0
H910 H 0.90781 0.20274 0.74212 0.0
C911 C 0.83943 0.23341 0.78963 0.0
C912 C 0.83474 0.22327 0.75585 0.0
H913 H 0.87247 0.24299 0.83172 0.0
H914 H 0.82167 0.24455 0.80282 0.0
C915 C 0.85879 0.20987 0.7394 0.0
C916 C 0.57025 0.15928 0.60201 0.0
C917 C 0.5529 0.18436 0.5949 0.0
H918 H 0.57893 0.10881 0.58848 0.0
C919 C 0.53194 0.17789 0.56676 0.0
H920 H 0.58679 0.16359 0.62339 0.0
C921 C 0.5272 0.14645 0.54707 0.0
C922 C 0.54378 0.12101 0.55469 0.0
H923 H 0.51825 0.19664 0.56056 0.0
H924 H 0.51002 0.14182 0.52616 0.0
C925 C 0.56596 0.12801 0.5819 0.0
C926 C 0.58117 0.74217 0.28891 0.0
C927 C 0.57953 0.75878 0.32045 0.0
H928 H 0.61146 0.73227 0.24986 0.0
C929 C 0.6077 0.77943 0.33647 0.0
H930 H 0.55979 0.72606 0.27601 0.0
C931 C 0.63696 0.78342 0.3213 0.0
C932 C 0.63872 0.76642 0.29004 0.0
H933 H 0.60715 0.79266 0.36069 0.0
H934 H 0.65835 0.79937 0.33436 0.0
C935 C 0.61063 0.74574 0.27392 0.0
C936 C 0.98727 0.15629 0.43651 0.0
C937 C 0.00982 0.18591 0.44924 0.0
H938 H 0.96654 0.10414 0.4408 0.0
C939 C 0.02702 0.18591 0.47905 0.0
H940 H 0.97338 0.15545 0.41381 0.0
C941 C 0.02314 0.15626 0.4947 0.0
C942 C 0.00194 0.12602 0.48086 0.0
H943 H 0.04452 0.20837 0.48961 0.0
H944 H 0.03798 0.15657 0.51666 0.0
C945 C 0.98333 0.12681 0.45212 0.0
C946 C 0.61102 0.2542 0.13673 0.0
C947 C 0.58364 0.2568 0.15436 0.0
H948 H 0.65856 0.24267 0.13742 0.0
C949 C 0.58193 0.24592 0.18547 0.0
H950 H 0.61288 0.26215 0.11263 0.0
C951 C 0.60747 0.23382 0.19914 0.0
C952 C 0.63558 0.23305 0.18233 0.0
H953 H 0.56106 0.24727 0.19962 0.0
H954 H 0.60589 0.22692 0.22365 0.0
C955 C 0.63696 0.24274 0.15076 0.0
C956 C 0.53244 0.91173 0.91769 0.0
C957 C 0.54779 0.88811 0.93127 0.0
H958 H 0.50893 0.95411 0.92666 0.0
C959 C 0.55361 0.89129 0.96515 0.0
H960 H 0.52693 0.90933 0.89167 0.0
C961 C 0.54429 0.91781 0.98511 0.0
C962 C 0.52797 0.94071 0.97153 0.0
H963 H 0.56502 0.87311 0.97617 0.0
H964 H 0.54905 0.9198 0.0112 0.0
C965 C 0.52207 0.93735 0.93769 0.0
C966 C 0.89754 0.79406 0.69196 0.0
C967 C 0.91389 0.76802 0.69851 0.0
H968 H 0.85785 0.8188 0.70334 0.0
C969 C 0.90438 0.74939 0.72456 0.0
H970 H 0.90443 0.8091 0.67231 0.0
C971 C 0.87821 0.75514 0.74233 0.0
C972 C 0.86078 0.7798 0.73477 0.0
H973 H 0.91656 0.72946 0.7308 0.0
H974 H 0.87074 0.73915 0.76118 0.0
C975 C 0.87119 0.79995 0.71003 0.0
C976 C 0.05083 0.96836 0.86341 0.0
C977 C 0.07721 0.99581 0.86317 0.0
H978 H 0.0116 0.94475 0.89014 0.0
C979 C 0.08617 0.01909 0.89145 0.0
H980 H 0.04303 0.95058 0.84156 0.0
C981 C 0.06814 0.01602 0.91902 0.0
C982 C 0.04055 0.98975 0.91877 0.0
H983 H 0.10597 0.04089 0.89155 0.0
H984 H 0.07476 0.0354 0.93988 0.0
C985 C 0.03273 0.96522 0.89109 0.0
C986 C 0.72869 0.30197 0.56825 0.0
C987 C 0.74786 0.3341 0.56495 0.0
H988 H 0.72052 0.25946 0.59576 0.0
C989 C 0.77566 0.34677 0.58583 0.0
H990 H 0.70728 0.29142 0.55231 0.0
C991 C 0.78336 0.3283 0.61049 0.0
C992 C 0.76338 0.29692 0.61461 0.0
H993 H 0.79106 0.3713 0.58363 0.0
H994 H 0.80424 0.33921 0.62708 0.0
C995 C 0.7364 0.28353 0.59291 0.0
C996 C 0.51592 0.05047 0.36385 0.0
C997 C 0.48195 0.04325 0.35964 0.0
H998 H 0.55717 0.05689 0.39741 0.0
C999 C 0.46333 0.04107 0.38689 0.0
H1000 H 0.53071 0.05249 0.34305 0.0
C1001 C 0.47837 0.04278 0.41761 0.0
C1002 C 0.5122 0.04778 0.42166 0.0
H1003 H 0.43711 0.03534 0.3842 0.0
H1004 H 0.46338 0.03794 0.43782 0.0
C1005 C 0.53103 0.05318 0.39485 0.0
C1006 C 0.77202 0.71427 0.09999 0.0
C1007 C 0.74551 0.68737 0.09019 0.0
H1008 H 0.79584 0.75198 0.13869 0.0
C1009 C 0.7208 0.67995 0.11177 0.0
H1010 H 0.79141 0.72056 0.08392 0.0
C1011 C 0.72298 0.69834 0.14283 0.0
C1012 C 0.75028 0.72404 0.15325 0.0
H1013 H 0.69992 0.65953 0.10479 0.0
H1014 H 0.70396 0.6914 0.15916 0.0
C1015 C 0.77456 0.73216 0.13136 0.0
C1016 C 0.07716 0.038 0.683 0.0
C1017 C 0.10721 0.02797 0.68174 0.0
H1018 H 0.04047 0.0566 0.6575 0.0
C1019 C 0.12455 0.03154 0.65359 0.0
H1020 H 0.06343 0.036 0.70454 0.0
C1021 C 0.1113 0.04315 0.62659 0.0
C1022 C 0.0808 0.05214 0.62751 0.0
H1023 H 0.14788 0.02426 0.65202 0.0
H1024 H 0.12442 0.04401 0.6046 0.0
C1025 C 0.06423 0.05029 0.65625 0.0
C1026 C 0.69477 0.33453 0.35231 0.0
C1027 C 0.70124 0.32946 0.38464 0.0
H1028 H 0.69729 0.31703 0.30203 0.0
C1029 C 0.71241 0.29976 0.39077 0.0
H1030 H 0.68593 0.35688 0.34668 0.0
C1031 C 0.7193 0.27706 0.36498 0.0
C1032 C 0.71509 0.28386 0.33292 0.0
H1033 H 0.71761 0.29507 0.41545 0.0
H1034 H 0.72925 0.25522 0.3701 0.0
C1035 C 0.70163 0.31194 0.32674 0.0
C1036 C 0.41632 0.035 0.15269 0.0
C1037 C 0.43545 0.03564 0.18118 0.0
H1038 H 0.41456 0.03182 0.1008 0.0
C1039 C 0.46826 0.03382 0.17922 0.0
H1040 H 0.39101 0.03646 0.15369 0.0
C1041 C 0.48155 0.03049 0.14902 0.0
C1042 C 0.46233 0.02967 0.12061 0.0
H1043 H 0.48347 0.03412 0.20093 0.0
H1044 H 0.50676 0.02862 0.14791 0.0
C1045 C 0.42979 0.03237 0.12258 0.0
C1046 C 0.77049 0.69456 0.86534 0.0
C1047 C 0.77667 0.71119 0.89737 0.0
H1048 H 0.76723 0.69979 0.81464 0.0
C1049 C 0.7871 0.74705 0.90206 0.0
H1050 H 0.76246 0.66703 0.86071 0.0
C1051 C 0.79041 0.7658 0.87528 0.0
C1052 C 0.78275 0.7491 0.84339 0.0
H1053 H 0.79216 0.76065 0.92641 0.0
H1054 H 0.79764 0.79343 0.87961 0.0
C1055 C 0.7732 0.71332 0.83881 0.0
C1056 C 0.83559 0.01956 0.01611 0.0
C1057 C 0.83111 0.04871 0.00211 0.0
H1058 H 0.86342 0.98068 0.01784 0.0
C1059 C 0.84928 0.05839 0.97574 0.0
H1060 H 0.82163 0.0111 0.03616 0.0
C1061 C 0.87278 0.04047 0.96486 0.0
C1062 C 0.87864 0.01278 0.98033 0.0
H1063 H 0.84595 0.08032 0.96403 0.0
H1064 H 0.88765 0.04962 0.94565 0.0
C1065 C 0.85918 0.00178 0.00532 0.0
C1066 C 0.37629 0.4868 0.00515 0.0
C1067 C 0.36358 0.46229 0.02555 0.0
H1068 H 0.41749 0.52236 -0.00701 0.0
C1069 C 0.38426 0.45463 0.04975 0.0
H1070 H 0.36124 0.49326 0.98604 0.0
C1071 C 0.41683 0.47167 0.0537 0.0
C1072 C 0.42916 0.49623 0.03327 0.0
H1073 H 0.37523 0.43589 0.06578 0.0
H1074 H 0.43238 0.46556 0.07259 0.0
C1075 C 0.40865 0.50345 0.00893 0.0
C1076 C 0.33159 0.64005 0.76879 0.0
C1077 C 0.31756 0.61075 0.74728 0.0
H1078 H 0.32767 0.68984 0.79058 0.0
C1079 C 0.2862 0.60852 0.73326 0.0
H1080 H 0.35554 0.64251 0.78029 0.0
C1081 C 0.27004 0.63578 0.7392 0.0
C1082 C 0.28485 0.66587 0.75939 0.0
H1083 H 0.27458 0.58623 0.71671 0.0
H1084 H 0.24664 0.63387 0.72671 0.0
C1085 C 0.31544 0.66718 0.77482 0.0
C1086 C 0.14297 0.5592 0.49132 0.0
C1087 C 0.15603 0.59038 0.51039 0.0
H1088 H 0.10028 0.52336 0.47257 0.0
C1089 C 0.13533 0.60895 0.52699 0.0
H1090 H 0.15836 0.54435 0.4783 0.0
C1091 C 0.10181 0.59651 0.52409 0.0
C1092 C 0.08897 0.56593 0.50397 0.0
H1093 H 0.14499 0.633 0.54199 0.0
H1094 H 0.08597 0.6112 0.53658 0.0
C1095 C 0.10976 0.54725 0.48794 0.0
C1096 C 0.68337 0.91437 0.77685 0.0
C1097 C 0.68866 0.93268 0.75 0.0
H1098 H 0.70074 0.88097 0.80668 0.0
C1099 C 0.71811 0.93452 0.73482 0.0
H1100 H 0.6611 0.913 0.78931 0.0
C1101 C 0.74073 0.91608 0.74466 0.0
C1102 C 0.73447 0.89603 0.77016 0.0
H1103 H 0.72295 0.94873 0.71424 0.0
H1104 H 0.76222 0.91597 0.73114 0.0
C1105 C 0.70626 0.89644 0.78706 0.0
C1106 C 0.64546 0.91382 0.52322 0.0
C1107 C 0.67802 0.9302 0.52308 0.0
H1108 H 0.59598 0.91875 0.51996 0.0
C1109 C 0.68557 0.96527 0.51944 0.0
H1110 H 0.63893 0.8869 0.52611 0.0
C1111 C 0.66095 0.9835 0.51561 0.0
C1112 C 0.62845 0.967 0.51571 0.0
H1113 H 0.71052 0.97859 0.5192 0.0
H1114 H 0.66732 0.01039 0.5126 0.0
C1115 C 0.62093 0.9321 0.51975 0.0
C1116 C 0.34497 0.38894 0.72752 0.0
C1117 C 0.33165 0.41278 0.712 0.0
H1118 H 0.3357 0.34289 0.75 0.0
C1119 C 0.29811 0.40652 0.70474 0.0
H1120 H 0.37071 0.39355 0.73401 0.0
C1121 C 0.27821 0.37685 0.71292 0.0
C1122 C 0.29145 0.35368 0.72952 0.0
H1123 H 0.2873 0.42473 0.69308 0.0
H1124 H 0.25238 0.37261 0.70716 0.0
C1125 C 0.32497 0.35999 0.73673 0.0
C1126 C 0.14889 0.6177 0.18346 0.0
C1127 C 0.1493 0.59167 0.20323 0.0
H1128 H 0.17097 0.6681 0.17395 0.0
C1129 C 0.1729 0.59695 0.22923 0.0
H1130 H 0.13103 0.61432 0.16328 0.0
C1131 C 0.1954 0.62773 0.2356 0.0
C1132 C 0.19518 0.65367 0.21576 0.0
H1133 H 0.17374 0.57744 0.24507 0.0
H1134 H 0.21304 0.63111 0.25598 0.0
C1135 C 0.17187 0.64835 0.18949 0.0
C1136 C 0.51544 0.67024 0.45296 0.0
C1137 C 0.48894 0.6668 0.43035 0.0
H1138 H 0.54003 0.64603 0.48701 0.0
C1139 C 0.46517 0.63662 0.42679 0.0
H1140 H 0.5342 0.69325 0.45605 0.0
C1141 C 0.46804 0.61014 0.4451 0.0
C1142 C 0.49522 0.61285 0.46669 0.0
H1143 H 0.44448 0.63334 0.40962 0.0
H1144 H 0.44953 0.58692 0.44125 0.0
C1145 C 0.51882 0.64326 0.47063 0.0
C1146 C 0.64176 0.32492 0.7245 0.0
C1147 C 0.64131 0.3201 0.69027 0.0
H1148 H 0.66582 0.31938 0.76953 0.0
C1149 C 0.66737 0.30908 0.67526 0.0
H1150 H 0.62204 0.33351 0.73674 0.0
C1151 C 0.69201 0.30049 0.69404 0.0
C1152 C 0.69137 0.30326 0.72808 0.0
H1153 H 0.66779 0.30513 0.64897 0.0
H1154 H 0.71102 0.29059 0.68186 0.0
C1155 C 0.66676 0.31683 0.74328 0.0
C1156 C -0.00652 0.35852 0.93926 0.0
C1157 C 0.9821 0.35563 0.90657 0.0
H1158 H 0.00645 0.39147 0.98425 0.0
C1159 C 0.97146 0.38345 0.89516 0.0
H1160 H 0.00197 0.33757 0.94867 0.0
C1161 C 0.97311 0.41397 0.91585 0.0
C1162 C 0.98632 0.41741 0.94794 0.0
H1163 H 0.96248 0.38184 0.87007 0.0
H1164 H 0.9658 0.43545 0.90624 0.0
C1165 C -0.00394 0.38932 0.9596 0.0
C1166 C 0.93923 0.78767 0.18661 0.0
C1167 C 0.96105 0.77232 0.20323 0.0
H1168 H 0.89209 0.79987 0.18447 0.0
C1169 C 0.95151 0.75781 0.2316 0.0
H1170 H 0.94581 0.79922 0.16478 0.0
C1171 C 0.9208 0.75835 0.24289 0.0
C1172 C 0.89901 0.77338 0.22606 0.0
H1173 H 0.96772 0.7459 0.24509 0.0
H1174 H 0.914 0.74667 0.2646 0.0
C1175 C 0.90851 0.78818 0.19793 0.0
C1176 C 0.52487 0.39719 0.07523 0.0
C1177 C 0.50206 0.36765 0.06301 0.0
H1178 H 0.54606 0.44883 0.07042 0.0
C1179 C 0.48325 0.36793 0.03428 0.0
H1180 H 0.54 0.39777 0.09707 0.0
C1181 C 0.48648 0.39774 0.01883 0.0
C1182 C 0.50896 0.42754 0.0316 0.0
H1183 H 0.4655 0.34545 0.02424 0.0
H1184 H 0.471 0.39763 -0.00262 0.0
C1185 C 0.52844 0.42655 0.05967 0.0
C1186 C 0.91795 0.28248 0.3486 0.0
C1187 C 0.94388 0.30173 0.33409 0.0
H1188 H 0.86636 0.26746 0.34995 0.0
C1189 C 0.93711 0.32307 0.31116 0.0
H1190 H 0.92232 0.26604 0.36654 0.0
C1191 C 0.90525 0.32406 0.30195 0.0
C1192 C 0.87939 0.30382 0.31544 0.0
H1193 H 0.95642 0.33862 0.29974 0.0
H1194 H 0.90088 0.33987 0.28342 0.0
C1195 C 0.88594 0.28352 0.33933 0.0
C1196 C 0.98644 0.6683 0.52713 0.0
C1197 C 0.9726 0.6618 0.5567 0.0
H1198 H 0.00031 0.64676 0.48128 0.0
C1199 C 0.95867 0.62797 0.56106 0.0
H1200 H -0.00238 0.69411 0.52324 0.0
C1201 C 0.95962 0.60103 0.53679 0.0
C1202 C 0.97557 0.60728 0.50828 0.0
H1203 H 0.94775 0.62226 0.58359 0.0
H1204 H 0.94875 0.5752 0.5408 0.0
C1205 C 0.98821 0.64121 0.50324 0.0
C1206 C 0.61884 0.77353 0.79921 0.0
C1207 C 0.61561 0.75631 0.82698 0.0
H1208 H 0.64777 0.78651 0.75914 0.0
C1209 C 0.63773 0.73586 0.8338 0.0
H1210 H 0.60203 0.78949 0.79348 0.0
C1211 C 0.66302 0.73308 0.81345 0.0
C1212 C 0.66717 0.75155 0.78653 0.0
H1213 H 0.63557 0.72219 0.85495 0.0
H1214 H 0.68032 0.7179 0.81982 0.0
C1215 C 0.6448 0.77169 0.77948 0.0
C1216 C 0.41761 0.52682 0.60355 0.0
C1217 C 0.42842 0.54694 0.63343 0.0
H1218 H 0.42949 0.51007 0.5553 0.0
C1219 C 0.45941 0.56817 0.63623 0.0
H1220 H 0.39392 0.51005 0.60067 0.0
C1221 C 0.47942 0.56879 0.60994 0.0
C1222 C 0.4692 0.54748 0.58057 0.0
H1223 H 0.46838 0.584 0.65893 0.0
H1224 H 0.50336 0.58502 0.61307 0.0
C1225 C 0.43798 0.52675 0.57756 0.0
C1226 C 0.76704 0.22434 0.92598 0.0
C1227 C 0.77418 0.19146 0.92458 0.0
H1228 H 0.75646 0.26369 0.8988 0.0
C1229 C 0.77757 0.17355 0.89421 0.0
H1230 H 0.76416 0.23866 0.94912 0.0
C1231 C 0.77303 0.18772 0.86573 0.0
C1232 C 0.76495 0.22006 0.86699 0.0
H1233 H 0.78311 0.14822 0.89233 0.0
H1234 H 0.77548 0.17304 0.84265 0.0
C1235 C 0.76241 0.23856 0.8973 0.0
C1236 C 0.02491 0.43594 0.11292 0.0
C1237 C 0.05846 0.44883 0.11814 0.0
H1238 H 0.98066 0.43956 0.08739 0.0
C1239 C 0.07369 0.4737 0.09967 0.0
H1240 H 0.01265 0.41728 0.12761 0.0
C1241 C 0.05531 0.48771 0.07852 0.0
C1242 C 0.02164 0.47584 0.07397 0.0
H1243 H 0.09929 0.4848 0.10388 0.0
H1244 H 0.06752 0.50877 0.06653 0.0
C1245 C 0.0066 0.44906 0.09051 0.0
C1246 C 0.79413 0.85242 0.395 0.0
C1247 C 0.77203 0.83739 0.41638 0.0
H1248 H 0.81383 0.84781 0.34811 0.0
C1249 C 0.75439 0.80397 0.40735 0.0
H1250 H 0.80811 0.87819 0.40152 0.0
C1251 C 0.75714 0.78685 0.37642 0.0
C1252 C 0.77828 0.80252 0.35448 0.0
H1253 H 0.73712 0.79194 0.42335 0.0
H1254 H 0.74192 0.76183 0.36923 0.0
C1255 C 0.79758 0.83497 0.36454 0.0
C1256 C 0.45217 0.47961 0.8214 0.0
C1257 C 0.42956 0.49959 0.81414 0.0
H1258 H 0.47741 0.45996 0.8582 0.0
C1259 C 0.41282 0.51292 0.83965 0.0
H1260 H 0.46512 0.46834 0.80235 0.0
C1261 C 0.41985 0.50786 0.87187 0.0
C1262 C 0.44352 0.48915 0.87906 0.0
H1263 H 0.39499 0.52805 0.83486 0.0
H1264 H 0.40773 0.51979 0.89125 0.0
C1265 C 0.45897 0.47437 0.85342 0.0
C1266 C 0.80297 0.21996 0.12026 0.0
C1267 C 0.77913 0.18958 0.11538 0.0
H1268 H 0.82229 0.26653 0.15211 0.0
C1269 C 0.75466 0.18451 0.13733 0.0
H1270 H 0.82185 0.22467 0.10335 0.0
C1271 C 0.75439 0.20845 0.16402 0.0
C1272 C 0.77886 0.23801 0.1701 0.0
H1273 H 0.73542 0.1619 0.13394 0.0
H1274 H 0.73539 0.20296 0.18062 0.0
C1275 C 0.80302 0.24403 0.14779 0.0
C1276 C 0.01324 0.5246 0.29559 0.0
C1277 C 0.03231 0.50044 0.2867 0.0
H1278 H 0.98827 0.54717 0.33366 0.0
C1279 C 0.03867 0.47831 0.30883 0.0
H1280 H 0.00795 0.5419 0.27888 0.0
C1281 C 0.02706 0.481 0.33976 0.0
C1282 C 0.00931 0.50618 0.34913 0.0
H1283 H 0.05297 0.45917 0.30241 0.0
H1284 H 0.03294 0.46416 0.35668 0.0
C1285 C 0.00199 0.52761 0.32679 0.0
C1286 C 0.76876 0.83516 0.64303 0.0
C1287 C 0.75175 0.82006 0.61347 0.0
H1288 H 0.78023 0.83009 0.69271 0.0
C1289 C 0.73145 0.78753 0.61247 0.0
H1290 H 0.78459 0.86015 0.64475 0.0
C1291 C 0.72844 0.77049 0.64034 0.0
C1292 C 0.74591 0.78547 0.66971 0.0
H1293 H 0.71782 0.77523 0.59015 0.0
H1294 H 0.71291 0.74536 0.63873 0.0
C1295 C 0.76604 0.81801 0.67067 0.0
C1296 C 0.67082 0.49743 0.49834 0.0
C1297 C 0.6667 0.46873 0.51542 0.0
H1298 H 0.65333 0.54226 0.48911 0.0
C1299 C 0.64517 0.46627 0.5404 0.0
H1300 H 0.68752 0.5 0.4791 0.0
C1301 C 0.6267 0.49118 0.54702 0.0
C1302 C 0.62878 0.51834 0.52806 0.0
H1303 H 0.64198 0.44466 0.55422 0.0
H1304 H 0.60893 0.48754 0.56519 0.0
C1305 C 0.65164 0.52184 0.50432 0.0
C1306 C 0.1477 0.06045 0.46041 0.0
C1307 C 0.1548 0.09512 0.4737 0.0
H1308 H 0.1123 0.01347 0.45274 0.0
C1309 C 0.13119 0.10876 0.49073 0.0
H1310 H 0.16555 0.0492 0.44733 0.0
C1311 C 0.10112 0.08812 0.49448 0.0
C1312 C 0.09385 0.05359 0.48077 0.0
H1313 H 0.1361 0.13525 0.5016 0.0
H1314 H 0.08334 0.09944 0.5076 0.0
C1315 C 0.11739 0.03993 0.4637 0.0
C1316 C 0.22988 0.91744 0.76474 0.0
C1317 C 0.19745 0.91504 0.75375 0.0
H1318 H 0.26936 0.89145 0.76916 0.0
C1319 C 0.18083 0.88425 0.73598 0.0
H1320 H 0.24344 0.94087 0.77836 0.0
C1321 C 0.1958 0.85623 0.73018 0.0
C1322 C 0.22777 0.85798 0.74231 0.0
H1323 H 0.15598 0.8816 0.72679 0.0
H1324 H 0.18175 0.83275 0.71706 0.0
C1325 C 0.24483 0.88916 0.75924 0.0
C1326 C 0.35095 0.94595 -0.00702 0.0
C1327 C 0.33338 0.95154 0.96539 0.0
H1328 H 0.39714 0.95451 0.01883 0.0
C1329 C 0.34982 0.96813 0.94098 0.0
H1330 H 0.33884 0.93326 0.01219 0.0
C1331 C 0.3833 0.97977 0.94455 0.0
C1332 C 0.40056 0.97561 0.97289 0.0
H1333 H 0.33676 0.97252 0.91939 0.0
H1334 H 0.39545 0.99321 0.92579 0.0
C1335 C 0.38425 0.95822 -0.00314 0.0
C1336 C 0.84393 0.62355 0.745 0.0
C1337 C 0.83395 0.60043 0.7673 0.0
H1338 H 0.83161 0.66063 0.71669 0.0
C1339 C 0.80202 0.59566 0.77707 0.0
H1340 H 0.86817 0.62698 0.73638 0.0
C1341 C 0.78097 0.61545 0.76604 0.0
C1342 C 0.79141 0.63918 0.74427 0.0
H1343 H 0.79372 0.57745 0.79383 0.0
H1344 H 0.75701 0.61295 0.77519 0.0
C1345 C 0.82276 0.64233 0.73322 0.0
C1346 C 0.85909 0.59569 0.98483 0.0
C1347 C 0.83101 0.57669 -0.00372 0.0
H1348 H 0.90948 0.59903 0.97656 0.0
C1349 C 0.8326 0.54534 0.00772 0.0
H1350 H 0.85874 0.61989 0.97583 0.0
C1351 C 0.86151 0.53343 0.00802 0.0
C1352 C 0.88957 0.55259 -0.00303 0.0
H1353 H 0.81148 0.5299 0.01663 0.0
H1354 H 0.86193 0.50933 0.01719 0.0
C1355 C 0.88813 0.58376 0.98524 0.0
C1356 C 0.18746 0.15054 0.78736 0.0
C1357 C 0.19729 0.11954 0.79057 0.0
H1358 H 0.20175 0.20309 0.78044 0.0
C1359 C 0.23067 0.11951 0.79291 0.0
H1360 H 0.16206 0.15183 0.78587 0.0
C1361 C 0.25351 0.14946 0.79005 0.0
C1362 C 0.24319 0.17953 0.78435 0.0
H1363 H 0.23907 0.09612 0.79548 0.0
H1364 H 0.27901 0.14858 0.79051 0.0
C1365 C 0.21014 0.18002 0.78405 0.0
C1366 C 0.34438 0.90213 0.29166 0.0
C1367 C 0.36639 0.90941 0.26748 0.0
H1368 H 0.3049 0.86597 0.30699 0.0
C1369 C 0.36584 0.8852 0.24016 0.0
H1370 H 0.34441 0.92053 0.31295 0.0
C1371 C 0.34276 0.85484 0.23633 0.0
C1372 C 0.32042 0.84776 0.26016 0.0
H1373 H 0.38236 0.89033 0.22107 0.0
H1374 H 0.34237 0.83684 0.21464 0.0
C1375 C 0.32184 0.87114 0.28827 0.0
C1376 C 0.49672 0.38536 0.57478 0.0
C1377 C 0.52546 0.373 0.57115 0.0
H1378 H 0.46778 0.41985 0.55995 0.0
C1379 C 0.54669 0.38528 0.54786 0.0
H1380 H 0.47986 0.37617 0.59244 0.0
C1381 C 0.54009 0.41071 0.52974 0.0
C1382 C 0.51165 0.42357 0.53382 0.0
H1383 H 0.56904 0.37625 0.5446 0.0
H1384 H 0.55759 0.42084 0.51301 0.0
C1385 C 0.48965 0.41008 0.55596 0.0
C1386 C 0.36641 0.72232 0.30523 0.0
C1387 C 0.39416 0.72318 0.28749 0.0
H1388 H 0.31513 0.71965 0.30275 0.0
C1389 C 0.39064 0.71538 0.25341 0.0
H1390 H 0.36852 0.72831 0.3315 0.0
C1391 C 0.36018 0.7099 0.23708 0.0
C1392 C 0.33287 0.71293 0.25457 0.0
H1393 H 0.41175 0.71569 0.23923 0.0
H1394 H 0.35856 0.7065 0.2107 0.0
C1395 C 0.33594 0.71751 0.2888 0.0
C1396 C 0.03087 0.67407 0.06655 0.0
C1397 C 0.05151 0.68052 0.09492 0.0
H1398 H 0.00946 0.63809 0.02571 0.0
C1399 C 0.06859 0.65536 0.10241 0.0
H1400 H 0.0174 0.69289 0.06004 0.0
C1401 C 0.06444 0.62407 0.08235 0.0
C1402 C 0.04269 0.61716 0.0548 0.0
H1403 H 0.08488 0.65965 0.12398 0.0
H1404 H 0.07726 0.60484 0.08915 0.0
C1405 C 0.02629 0.64264 0.04689 0.0
C1406 C 0.10792 0.28007 0.8404 0.0
C1407 C 0.08029 0.2585 0.82425 0.0
H1408 H 0.15854 0.30072 0.83888 0.0
C1409 C 0.08275 0.24112 0.79325 0.0
H1410 H 0.10667 0.29386 0.86423 0.0
C1411 C 0.11244 0.24481 0.77888 0.0
C1412 C 0.14 0.2663 0.79508 0.0
H1413 H 0.0618 0.22427 0.78027 0.0
H1414 H 0.11386 0.23072 0.75523 0.0
C1415 C 0.1375 0.28412 0.82581 0.0
C1416 C 0.53499 0.68575 0.97499 0.0
C1417 C 0.51441 0.68721 0.94784 0.0
H1418 H 0.5489 0.65497 0.01004 0.0
C1419 C 0.48943 0.65893 0.93748 0.0
H1420 H 0.55451 0.70715 0.98361 0.0
C1421 C 0.48602 0.62932 0.9528 0.0
C1422 C 0.50769 0.62696 0.97876 0.0
H1423 H 0.473 0.65926 0.91686 0.0
H1424 H 0.46698 0.60776 0.94333 0.0
C1425 C 0.53174 0.65587 0.99024 0.0
C1426 C 0.11073 0.75055 0.63758 0.0
C1427 C 0.08267 0.75117 0.65462 0.0
H1428 H 0.15905 0.74137 0.63884 0.0
C1429 C 0.08073 0.73912 0.68522 0.0
H1430 H 0.11278 0.75934 0.61384 0.0
C1431 C 0.10689 0.72827 0.69923 0.0
C1432 C 0.13562 0.72958 0.68306 0.0
H1433 H 0.05923 0.73881 0.6988 0.0
H1434 H 0.10521 0.72063 0.72346 0.0
C1435 C 0.13706 0.73996 0.65176 0.0
C1436 C 0.0366 0.38299 0.46879 0.0
C1437 C 0.05003 0.38782 0.43867 0.0
H1438 H 0.01464 0.40488 0.50966 0.0
C1439 C 0.05491 0.4207 0.42864 0.0
H1440 H 0.03265 0.35812 0.4774 0.0
C1441 C 0.0443 0.44733 0.44708 0.0
C1442 C 0.02866 0.4416 0.47578 0.0
H1443 H 0.0655 0.42554 0.40578 0.0
H1444 H 0.04799 0.47224 0.43869 0.0
C1445 C 0.02613 0.4097 0.48722 0.0
C1446 C 0.39813 0.30139 0.19355 0.0
C1447 C 0.41729 0.27887 0.2032 0.0
H1448 H 0.35556 0.32231 0.20205 0.0
C1449 C 0.41041 0.26388 0.23194 0.0
H1450 H 0.40294 0.31358 0.17174 0.0
C1451 C 0.38375 0.26905 0.24915 0.0
C1452 C 0.36347 0.28971 0.23845 0.0
H1453 H 0.42483 0.24683 0.24057 0.0
H1454 H 0.37792 0.25531 0.26991 0.0
C1455 C 0.37137 0.30683 0.21115 0.0
C1456 C 0.57994 0.52572 0.38924 0.0
C1457 C 0.57444 0.49986 0.3627 0.0
H1458 H 0.56605 0.54327 0.43628 0.0
C1459 C 0.55171 0.4696 0.36478 0.0
H1460 H 0.59695 0.54951 0.38794 0.0
C1461 C 0.53352 0.4661 0.39242 0.0
C1462 C 0.53787 0.49285 0.41831 0.0
H1463 H 0.54662 0.44961 0.34428 0.0
H1464 H 0.51505 0.44324 0.39284 0.0
C1465 C 0.56209 0.52215 0.41685 0.0
C1466 C 0.23406 0.79348 0.06639 0.0
C1467 C 0.25449 0.8252 0.06408 0.0
H1468 H 0.22341 0.75032 0.09292 0.0
C1469 C 0.28234 0.83602 0.0852 0.0
H1470 H 0.21257 0.78434 0.05023 0.0
C1471 C 0.2887 0.81634 0.10936 0.0
C1472 C 0.26726 0.78563 0.1128 0.0
H1473 H 0.29872 0.86016 0.08373 0.0
H1474 H 0.30955 0.82599 0.12629 0.0
C1475 C 0.24038 0.77386 0.09062 0.0
C1476 C 0.01921 0.55934 0.86624 0.0
C1477 C 0.98527 0.55197 0.86155 0.0
H1478 H 0.06005 0.56241 0.89959 0.0
C1479 C 0.96626 0.54609 0.8881 0.0
H1480 H 0.03426 0.56396 0.84593 0.0
C1481 C 0.98089 0.54405 0.91817 0.0
C1482 C 0.01469 0.5492 0.92249 0.0
H1483 H 0.94006 0.53993 0.88497 0.0
H1484 H 0.96559 0.53608 0.93735 0.0
C1485 C 0.03391 0.55847 0.8968 0.0
C1486 C 0.2711 0.21588 0.60463 0.0
C1487 C 0.24457 0.18897 0.59498 0.0
H1488 H 0.29542 0.25316 0.64343 0.0
C1489 C 0.22026 0.18116 0.61688 0.0
H1490 H 0.29021 0.22242 0.58831 0.0
C1491 C 0.2229 0.19914 0.64816 0.0
C1492 C 0.25028 0.22478 0.65843 0.0
H1493 H 0.1994 0.16068 0.61002 0.0
H1494 H 0.2042 0.19189 0.66473 0.0
C1495 C 0.27412 0.23335 0.63621 0.0
C1496 C 0.62503 0.53453 0.15327 0.0
C1497 C 0.60613 0.52872 0.18012 0.0
H1498 H 0.62715 0.54929 0.1051 0.0
C1499 C 0.57529 0.537 0.1799 0.0
H1500 H 0.64901 0.5287 0.15284 0.0
C1501 C 0.56316 0.54964 0.15294 0.0
C1502 C 0.5814 0.55378 0.12543 0.0
H1503 H 0.56032 0.5333 0.2004 0.0
H1504 H 0.53882 0.55452 0.15302 0.0
C1505 C 0.61268 0.54667 0.12608 0.0
C1506 C 0.20491 0.80232 0.88463 0.0
C1507 C 0.21653 0.83767 0.88481 0.0
H1508 H 0.20047 0.75212 0.85814 0.0
C1509 C 0.23458 0.84934 0.85916 0.0
H1510 H 0.19144 0.79272 0.90455 0.0
C1511 C 0.24105 0.82634 0.83387 0.0
C1512 C 0.22863 0.79108 0.83282 0.0
H1513 H 0.24469 0.87633 0.8591 0.0
H1514 H 0.25535 0.83654 0.81481 0.0
C1515 C 0.21044 0.77916 0.85843 0.0
C1516 C 0.95892 0.55873 0.67127 0.0
C1517 C 0.93151 0.53522 0.67844 0.0
H1518 H -0.00779 0.57407 0.63529 0.0
C1519 C 0.9159 0.5093 0.65426 0.0
H1520 H 0.97123 0.57905 0.6896 0.0
C1521 C 0.92819 0.50616 0.62366 0.0
C1522 C 0.95593 0.5292 0.61668 0.0
H1523 H 0.89477 0.49084 0.65922 0.0
H1524 H 0.91602 0.48557 0.6055 0.0
C1525 C 0.97094 0.55589 0.6404 0.0
C1526 C 0.29129 0.24945 0.40656 0.0
C1527 C 0.27479 0.215 0.40248 0.0
H1528 H 0.30635 0.29521 0.38387 0.0
C1529 C 0.26093 0.2003 0.37152 0.0
H1530 H 0.30215 0.2615 0.43019 0.0
C1531 C 0.26252 0.21969 0.34555 0.0
C1532 C 0.27903 0.25404 0.34935 0.0
H1533 H 0.24772 0.17401 0.36756 0.0
H1534 H 0.25016 0.20777 0.32252 0.0
C1535 C 0.29376 0.2687 0.38008 0.0
C1536 C 0.34054 0.54829 0.47023 0.0
C1537 C 0.32248 0.53876 0.49672 0.0
H1538 H 0.38015 0.54083 0.44133 0.0
C1539 C 0.32825 0.51075 0.51188 0.0
H1540 H 0.33632 0.56936 0.45768 0.0
C1541 C 0.35312 0.49425 0.50232 0.0
C1542 C 0.37258 0.50536 0.47737 0.0
H1543 H 0.31445 0.5024 0.53206 0.0
H1544 H 0.35835 0.4742 0.5158 0.0
C1545 C 0.36533 0.53162 0.46054 0.0
C1546 C 0.88016 0.96266 0.49823 0.0
C1547 C 0.8614 0.95577 0.52485 0.0
H1548 H 0.92593 0.98558 0.48216 0.0
C1549 C 0.87518 0.96643 0.55659 0.0
H1550 H 0.8699 0.95463 0.47352 0.0
C1551 C 0.90707 0.98519 0.56149 0.0
C1552 C 0.92551 0.99277 0.53469 0.0
H1553 H 0.86091 0.96161 0.57741 0.0
H1554 H 0.91718 0.99402 0.58611 0.0
C1555 C 0.91206 0.98059 0.50312 0.0
C1556 C 0.83068 0.14047 0.26838 0.0
C1557 C 0.81767 0.11186 0.24563 0.0
H1558 H 0.82533 0.18915 0.2918 0.0
C1559 C 0.78672 0.10978 0.23068 0.0
H1560 H 0.85428 0.14281 0.28061 0.0
C1561 C 0.76995 0.1365 0.23709 0.0
C1562 C 0.78366 0.16589 0.25875 0.0
H1563 H 0.77588 0.08801 0.21313 0.0
H1564 H 0.74688 0.13472 0.22399 0.0
C1565 C 0.81388 0.16703 0.27494 0.0
C1566 C 0.65408 0.06595 0.98965 0.0
C1567 C 0.6664 0.09625 0.01032 0.0
H1568 H 0.61229 0.02811 0.97188 0.0
C1569 C 0.64573 0.1111 0.03071 0.0
H1570 H 0.66961 0.05401 0.97378 0.0
C1571 C 0.61294 0.09574 0.03016 0.0
C1572 C 0.60064 0.06599 0.00868 0.0
H1573 H 0.65491 0.13434 0.04707 0.0
H1574 H 0.59708 0.10767 0.04559 0.0
C1575 C 0.6214 0.05113 0.9886 0.0
C1576 C 0.1799 0.41383 0.27701 0.0
C1577 C 0.18396 0.43108 0.2494 0.0
H1578 H 0.19958 0.38293 0.30797 0.0
C1579 C 0.21335 0.43399 0.23402 0.0
H1580 H 0.15766 0.41173 0.28959 0.0
C1581 C 0.2372 0.41742 0.24439 0.0
C1582 C 0.23224 0.39832 0.27066 0.0
H1583 H 0.21723 0.44746 0.21285 0.0
H1584 H 0.25864 0.41787 0.2307 0.0
C1585 C 0.20408 0.39784 0.2878 0.0
C1586 C 0.18694 0.46489 0.02543 0.0
C1587 C 0.17993 0.42955 0.02807 0.0
H1588 H 0.16808 0.5095 0.01803 0.0
C1589 C 0.14748 0.41222 0.02582 0.0
H1590 H 0.21175 0.479 0.02703 0.0
C1591 C 0.12259 0.42979 0.02088 0.0
C1592 C 0.12964 0.46496 0.0178 0.0
H1593 H 0.1413 0.38509 0.02785 0.0
H1594 H 0.09776 0.4157 0.01923 0.0
C1595 C 0.16202 0.4824 0.0202 0.0
C1596 C 0.8451 0.8898 0.22539 0.0
C1597 C 0.8322 0.9144 0.21063 0.0
H1598 H 0.83522 0.84272 0.24618 0.0
C1599 C 0.7987 0.90859 0.20316 0.0
H1600 H 0.87079 0.89399 0.23199 0.0
C1601 C 0.77848 0.87858 0.21027 0.0
C1602 C 0.79131 0.85454 0.22601 0.0
H1603 H 0.78818 0.92733 0.19204 0.0
H1604 H 0.7527 0.87468 0.20431 0.0
C1605 C 0.82478 0.86048 0.23355 0.0
C1606 C 0.67707 0.10501 0.72982 0.0
C1607 C 0.65351 0.09861 0.70375 0.0
H1608 H 0.71577 0.14091 0.75684 0.0
C1609 C 0.65186 0.12434 0.68386 0.0
H1610 H 0.6788 0.08579 0.74576 0.0
C1611 C 0.67361 0.15589 0.68996 0.0
C1612 C 0.69665 0.16234 0.71651 0.0
H1613 H 0.63392 0.12004 0.66364 0.0
H1614 H 0.67192 0.17548 0.67442 0.0
C1615 C 0.69815 0.13664 0.73633 0.0
loop_
_geom_bond_atom_site_label_1
_geom_bond_atom_site_label_2
_geom_bond_distance
_geom_bond_site_symmetry_2
_ccdc_geom_bond_type
C0 O1 1.306 . S
C0 O3 1.160 . S
O1 C0 1.306 . S
O1 Cd2 2.228 1_655 S
Cd2 O1 2.228 1_455 S
Cd2 O6 2.273 . S
Cd2 O10 2.277 . S
O3 C0 1.160 . S
O3 Cd4 2.203 1_655 S
Cd4 O3 2.203 1_455 S
Cd4 O6 2.411 . S
Cd4 O7 2.333 . S
Cd4 O8 2.352 . S
Cd4 O12 2.277 . S
Cd4 O13 2.356 . S
C5 O10 1.209 . S
C5 O12 1.226 . S
O6 Cd2 2.273 . S
O6 Cd4 2.411 . S
O6 C9 1.320 . S
O7 Cd4 2.333 . S
O7 C9 1.214 . S
O8 Cd4 2.352 . S
O8 C11 1.258 . S
C9 O6 1.320 . S
C9 O7 1.214 . S
O10 Cd2 2.277 . S
O10 C5 1.209 . S
C11 O8 1.258 . S
C11 O13 1.282 . S
O12 Cd4 2.277 . S
O12 C5 1.226 . S
O13 Cd4 2.356 . S
O13 C11 1.282 . S
C14 O15 1.306 . S
C14 O17 1.160 . S
O15 C14 1.306 . S
O15 Cd16 2.228 1_655 S
Cd16 O15 2.228 1_455 S
Cd16 O20 2.273 . S
Cd16 O24 2.277 . S
O17 C14 1.160 . S
O17 Cd18 2.203 1_655 S
Cd18 O17 2.203 1_455 S
Cd18 O20 2.411 . S
Cd18 O21 2.333 . S
Cd18 O22 2.352 . S
Cd18 O26 2.278 1_455 S
Cd18 O27 2.356 . S
C19 O24 1.207 1_655 S
C19 O26 1.226 . S
O20 Cd16 2.273 . S
O20 Cd18 2.411 . S
O20 C23 1.320 . S
O21 Cd18 2.333 . S
O21 C23 1.214 . S
O22 Cd18 2.352 . S
O22 C25 1.258 . S
C23 O20 1.320 . S
C23 O21 1.214 . S
O24 Cd16 2.277 . S
O24 C19 1.207 1_455 S
C25 O22 1.258 . S
C25 O27 1.282 . S
O26 Cd18 2.278 1_655 S
O26 C19 1.226 . S
O27 Cd18 2.356 . S
O27 C25 1.282 . S
C28 O29 1.306 . S
C28 O31 1.160 . S
O29 C28 1.306 . S
O29 Cd30 2.228 . S
Cd30 O29 2.228 . S
Cd30 O34 2.273 . S
Cd30 O38 2.277 . S
O31 C28 1.160 . S
O31 Cd32 2.203 . S
Cd32 O31 2.203 . S
Cd32 O34 2.411 . S
Cd32 O35 2.333 . S
Cd32 O36 2.352 . S
Cd32 O40 2.277 . S
Cd32 O41 2.356 . S
C33 O38 1.209 . S
C33 O40 1.226 . S
O34 Cd30 2.273 . S
O34 Cd32 2.411 . S
O34 C37 1.320 . S
O35 Cd32 2.333 . S
O35 C37 1.214 . S
O36 Cd32 2.352 . S
O36 C39 1.258 . S
C37 O34 1.320 . S
C37 O35 1.214 . S
O38 Cd30 2.277 . S
O38 C33 1.209 . S
C39 O36 1.258 . S
C39 O41 1.282 . S
O40 Cd32 2.277 . S
O40 C33 1.226 . S
O41 Cd32 2.356 . S
O41 C39 1.282 . S
C42 O43 1.306 . S
C42 O45 1.160 . S
O43 C42 1.306 . S
O43 Cd44 2.228 . S
Cd44 O43 2.228 . S
Cd44 O48 2.273 . S
Cd44 O52 2.277 . S
O45 C42 1.160 . S
O45 Cd46 2.203 . S
Cd46 O45 2.203 . S
Cd46 O48 2.411 . S
Cd46 O49 2.333 . S
Cd46 O50 2.352 . S
Cd46 O54 2.277 . S
Cd46 O55 2.356 . S
C47 O52 1.209 . S
C47 O54 1.226 . S
O48 Cd44 2.273 . S
O48 Cd46 2.411 . S
O48 C51 1.320 . S
O49 Cd46 2.333 . S
O49 C51 1.214 . S
O50 Cd46 2.352 . S
O50 C53 1.258 . S
C51 O48 1.320 . S
C51 O49 1.214 . S
O52 Cd44 2.277 . S
O52 C47 1.209 . S
C53 O50 1.258 . S
C53 O55 1.282 . S
O54 Cd46 2.277 . S
O54 C47 1.226 . S
O55 Cd46 2.356 . S
O55 C53 1.282 . S
C56 O57 1.306 . S
C56 O59 1.160 . S
O57 C56 1.306 . S
O57 Cd58 2.228 1_655 S
Cd58 O57 2.228 1_455 S
Cd58 O62 2.273 . S
Cd58 O66 2.277 . S
O59 C56 1.160 . S
O59 Cd60 2.203 1_655 S
Cd60 O59 2.203 1_455 S
Cd60 O62 2.411 . S
Cd60 O63 2.333 . S
Cd60 O64 2.352 . S
Cd60 O68 2.277 . S
Cd60 O69 2.356 . S
C61 O66 1.209 . S
C61 O68 1.226 . S
O62 Cd58 2.273 . S
O62 Cd60 2.411 . S
O62 C65 1.320 . S
O63 Cd60 2.333 . S
O63 C65 1.214 . S
O64 Cd60 2.352 . S
O64 C67 1.258 . S
C65 O62 1.320 . S
C65 O63 1.214 . S
O66 Cd58 2.277 . S
O66 C61 1.209 . S
C67 O64 1.258 . S
C67 O69 1.282 . S
O68 Cd60 2.277 . S
O68 C61 1.226 . S
O69 Cd60 2.356 . S
O69 C67 1.282 . S
C70 O71 1.306 . S
C70 O73 1.160 . S
O71 C70 1.306 . S
O71 Cd72 2.228 . S
Cd72 O71 2.228 . S
Cd72 O76 2.273 . S
Cd72 O80 2.277 . S
O73 C70 1.160 . S
O73 Cd74 2.203 . S
Cd74 O73 2.203 . S
Cd74 O76 2.411 . S
Cd74 O77 2.333 . S
Cd74 O78 2.352 . S
Cd74 O82 2.277 . S
Cd74 O83 2.356 . S
C75 O80 1.209 . S
C75 O82 1.226 . S
O76 Cd72 2.273 . S
O76 Cd74 2.411 . S
O76 C79 1.320 . S
O77 Cd74 2.333 . S
O77 C79 1.214 . S
O78 Cd74 2.352 . S
O78 C81 1.258 . S
C79 O76 1.320 . S
C79 O77 1.214 . S
O80 Cd72 2.277 . S
O80 C75 1.209 . S
C81 O78 1.258 . S
C81 O83 1.282 . S
O82 Cd74 2.277 . S
O82 C75 1.226 . S
O83 Cd74 2.356 . S
O83 C81 1.282 . S
C84 O85 1.306 . S
C84 O87 1.160 . S
O85 C84 1.306 . S
O85 Cd86 2.228 . S
Cd86 O85 2.228 . S
Cd86 O90 2.273 . S
Cd86 O94 2.277 . S
O87 C84 1.160 . S
O87 Cd88 2.203 . S
Cd88 O87 2.203 . S
Cd88 O90 2.411 . S
Cd88 O91 2.333 . S
Cd88 O92 2.352 . S
Cd88 O96 2.277 . S
Cd88 O97 2.356 . S
C89 O94 1.209 . S
C89 O96 1.226 . S
O90 Cd86 2.273 . S
O90 Cd88 2.411 . S
O90 C93 1.320 . S
O91 Cd88 2.333 . S
O91 C93 1.214 . S
O92 Cd88 2.352 . S
O92 C95 1.258 . S
C93 O90 1.320 . S
C93 O91 1.214 . S
O94 Cd86 2.277 . S
O94 C89 1.209 . S
C95 O92 1.258 . S
C95 O97 1.282 . S
O96 Cd88 2.277 . S
O96 C89 1.226 . S
O97 Cd88 2.356 . S
O97 C95 1.282 . S
C98 O99 1.306 . S
C98 O101 1.160 . S
O99 C98 1.306 . S
O99 Cd100 2.228 1_655 S
Cd100 O99 2.228 1_455 S
Cd100 O104 2.273 . S
Cd100 O108 2.277 . S
O101 C98 1.160 . S
O101 Cd102 2.203 1_655 S
Cd102 O101 2.203 1_455 S
Cd102 O104 2.411 . S
Cd102 O105 2.333 . S
Cd102 O106 2.352 1_455 S
Cd102 O110 2.277 . S
Cd102 O111 2.356 . S
C103 O108 1.209 . S
C103 O110 1.226 . S
O104 Cd100 2.273 . S
O104 Cd102 2.411 . S
O104 C107 1.320 . S
O105 Cd102 2.333 . S
O105 C107 1.214 . S
O106 Cd102 2.352 1_655 S
O106 C109 1.258 . S
C107 O104 1.320 . S
C107 O105 1.214 . S
O108 Cd100 2.277 . S
O108 C103 1.209 . S
C109 O106 1.258 . S
C109 O111 1.282 1_655 S
O110 Cd102 2.277 . S
O110 C103 1.226 . S
O111 Cd102 2.356 . S
O111 C109 1.282 1_455 S
C112 O113 1.306 . S
C112 O115 1.160 . S
O113 C112 1.306 . S
O113 Cd114 2.228 1_545 S
Cd114 O113 2.228 1_565 S
Cd114 O118 2.273 1_565 S
Cd114 O122 2.277 . S
O115 C112 1.160 . S
O115 Cd116 2.203 . S
Cd116 O115 2.203 . S
Cd116 O118 2.411 . S
Cd116 O119 2.333 . S
Cd116 O120 2.352 . S
Cd116 O124 2.277 1_545 S
Cd116 O125 2.356 . S
C117 O122 1.209 . S
C117 O124 1.226 . S
O118 Cd114 2.273 1_545 S
O118 Cd116 2.411 . S
O118 C121 1.320 . S
O119 Cd116 2.333 . S
O119 C121 1.214 . S
O120 Cd116 2.352 . S
O120 C123 1.258 . S
C121 O118 1.320 . S
C121 O119 1.214 . S
O122 Cd114 2.277 . S
O122 C117 1.209 . S
C123 O120 1.258 . S
C123 O125 1.282 . S
O124 Cd116 2.277 1_565 S
O124 C117 1.226 . S
O125 Cd116 2.356 . S
O125 C123 1.282 . S
C126 O127 1.306 . S
C126 O129 1.160 . S
O127 C126 1.306 . S
O127 Cd128 2.228 . S
Cd128 O127 2.228 . S
Cd128 O132 2.273 . S
Cd128 O136 2.277 . S
O129 C126 1.160 . S
O129 Cd130 2.203 . S
Cd130 O129 2.203 . S
Cd130 O132 2.411 . S
Cd130 O133 2.333 . S
Cd130 O134 2.352 . S
Cd130 O138 2.277 . S
Cd130 O139 2.356 . S
C131 O136 1.209 . S
C131 O138 1.226 . S
O132 Cd128 2.273 . S
O132 Cd130 2.411 . S
O132 C135 1.320 . S
O133 Cd130 2.333 . S
O133 C135 1.214 . S
O134 Cd130 2.352 . S
O134 C137 1.258 . S
C135 O132 1.320 . S
C135 O133 1.214 . S
O136 Cd128 2.277 . S
O136 C131 1.209 . S
C137 O134 1.258 . S
C137 O139 1.282 . S
O138 Cd130 2.277 . S
O138 C131 1.226 . S
O139 Cd130 2.356 . S
O139 C137 1.282 . S
C140 O141 1.306 . S
C140 O143 1.153 1_545 S
O141 C140 1.306 . S
O141 Cd142 2.228 . S
Cd142 O141 2.228 . S
Cd142 O146 2.273 1_545 S
Cd142 O150 2.277 . S
O143 C140 1.153 1_565 S
O143 Cd144 2.203 . S
Cd144 O143 2.203 . S
Cd144 O146 2.411 . S
Cd144 O147 2.333 . S
Cd144 O148 2.352 . S
Cd144 O152 2.277 1_565 S
Cd144 O153 2.356 . S
C145 O150 1.209 . S
C145 O152 1.226 . S
O146 Cd142 2.273 1_565 S
O146 Cd144 2.411 . S
O146 C149 1.320 . S
O147 Cd144 2.333 . S
O147 C149 1.214 . S
O148 Cd144 2.352 . S
O148 C151 1.258 . S
C149 O146 1.320 . S
C149 O147 1.214 . S
O150 Cd142 2.277 . S
O150 C145 1.209 . S
C151 O148 1.258 . S
C151 O153 1.282 . S
O152 Cd144 2.277 1_545 S
O152 C145 1.226 . S
O153 Cd144 2.356 . S
O153 C151 1.282 . S
C154 O155 1.306 1_554 S
C154 O157 1.160 . S
O155 C154 1.306 1_556 S
O155 Cd156 2.228 . S
Cd156 O155 2.228 . S
Cd156 O160 2.273 1_556 S
Cd156 O164 2.277 . S
O157 C154 1.160 . S
O157 Cd158 2.203 . S
Cd158 O157 2.203 . S
Cd158 O160 2.411 . S
Cd158 O161 2.333 . S
Cd158 O162 2.352 . S
Cd158 O166 2.277 1_554 S
Cd158 O167 2.356 . S
C159 O164 1.209 . S
C159 O166 1.226 . S
O160 Cd156 2.273 1_554 S
O160 Cd158 2.411 . S
O160 C163 1.320 . S
O161 Cd158 2.333 . S
O161 C163 1.214 . S
O162 Cd158 2.352 . S
O162 C165 1.258 . S
C163 O160 1.320 . S
C163 O161 1.214 . S
O164 Cd156 2.277 . S
O164 C159 1.209 . S
C165 O162 1.258 . S
C165 O167 1.282 . S
O166 Cd158 2.277 1_556 S
O166 C159 1.226 . S
O167 Cd158 2.356 . S
O167 C165 1.282 . S
C168 O169 1.306 1_554 S
C168 O171 1.160 . S
O169 C168 1.306 1_556 S
O169 Cd170 2.228 . S
Cd170 O169 2.228 . S
Cd170 O174 2.273 1_556 S
Cd170 O178 2.277 . S
O171 C168 1.160 . S
O171 Cd172 2.203 . S
Cd172 O171 2.203 . S
Cd172 O174 2.411 . S
Cd172 O175 2.333 . S
Cd172 O176 2.352 . S
Cd172 O180 2.277 1_554 S
Cd172 O181 2.356 . S
C173 O178 1.209 . S
C173 O180 1.226 . S
O174 Cd170 2.273 1_554 S
O174 Cd172 2.411 . S
O174 C177 1.320 . S
O175 Cd172 2.333 . S
O175 C177 1.214 . S
O176 Cd172 2.352 . S
O176 C179 1.258 . S
C177 O174 1.320 . S
C177 O175 1.214 . S
O178 Cd170 2.277 . S
O178 C173 1.209 . S
C179 O176 1.258 . S
C179 O181 1.282 . S
O180 Cd172 2.277 1_556 S
O180 C173 1.226 . S
O181 Cd172 2.356 . S
O181 C179 1.282 . S
C182 O183 1.306 . S
C182 O185 1.162 . S
O183 C182 1.306 . S
O183 Cd184 2.228 . S
Cd184 O183 2.228 . S
Cd184 O188 2.287 . S
Cd184 O192 2.277 . S
O185 C182 1.162 . S
O185 Cd186 2.203 1_554 S
Cd186 O185 2.203 1_556 S
Cd186 O188 2.408 1_556 S
Cd186 O189 2.333 . S
Cd186 O190 2.352 . S
Cd186 O194 2.277 1_556 S
Cd186 O195 2.356 . S
C187 O192 1.209 . S
C187 O194 1.226 . S
O188 Cd184 2.287 . S
O188 Cd186 2.408 1_554 S
O188 C191 1.319 1_554 S
O189 Cd186 2.333 . S
O189 C191 1.214 . S
O190 Cd186 2.352 . S
O190 C193 1.258 . S
C191 O188 1.319 1_556 S
C191 O189 1.214 . S
O192 Cd184 2.277 . S
O192 C187 1.209 . S
C193 O190 1.258 . S
C193 O195 1.282 . S
O194 Cd186 2.277 1_554 S
O194 C187 1.226 . S
O195 Cd186 2.356 . S
O195 C193 1.282 . S
C196 O197 1.306 . S
C196 O199 1.160 . S
O197 C196 1.306 . S
O197 Cd198 2.228 . S
Cd198 O197 2.228 . S
Cd198 O202 2.273 . S
Cd198 O206 2.277 . S
O199 C196 1.160 . S
O199 Cd200 2.203 . S
Cd200 O199 2.203 . S
Cd200 O202 2.411 . S
Cd200 O203 2.333 . S
Cd200 O204 2.352 . S
Cd200 O208 2.277 . S
Cd200 O209 2.356 . S
C201 O206 1.209 . S
C201 O208 1.226 . S
O202 Cd198 2.273 . S
O202 Cd200 2.411 . S
O202 C205 1.320 . S
O203 Cd200 2.333 . S
O203 C205 1.214 . S
O204 Cd200 2.352 . S
O204 C207 1.258 . S
C205 O202 1.320 . S
C205 O203 1.214 . S
O206 Cd198 2.277 . S
O206 C201 1.209 . S
C207 O204 1.258 . S
C207 O209 1.282 . S
O208 Cd200 2.277 . S
O208 C201 1.226 . S
O209 Cd200 2.356 . S
O209 C207 1.282 . S
C210 O211 1.306 . S
C210 O213 1.160 . S
O211 C210 1.306 . S
O211 Cd212 2.228 . S
Cd212 O211 2.228 . S
Cd212 O216 2.273 . S
Cd212 O220 2.277 . S
O213 C210 1.160 . S
O213 Cd214 2.203 . S
Cd214 O213 2.203 . S
Cd214 O216 2.411 . S
Cd214 O217 2.333 . S
Cd214 O218 2.352 . S
Cd214 O222 2.277 . S
Cd214 O223 2.356 . S
C215 O220 1.209 . S
C215 O222 1.226 . S
O216 Cd212 2.273 . S
O216 Cd214 2.411 . S
O216 C219 1.320 . S
O217 Cd214 2.333 . S
O217 C219 1.214 . S
O218 Cd214 2.352 . S
O218 C221 1.258 . S
C219 O216 1.320 . S
C219 O217 1.214 . S
O220 Cd212 2.277 . S
O220 C215 1.209 . S
C221 O218 1.258 . S
C221 O223 1.282 . S
O222 Cd214 2.277 . S
O222 C215 1.226 . S
O223 Cd214 2.356 . S
O223 C221 1.282 . S
C224 O225 1.306 . S
C224 O227 1.160 . S
O225 C224 1.306 . S
O225 Cd226 2.228 1_545 S
Cd226 O225 2.228 1_565 S
Cd226 O230 2.273 1_565 S
Cd226 O234 2.277 . S
O227 C224 1.160 . S
O227 Cd228 2.203 . S
Cd228 O227 2.203 . S
Cd228 O230 2.411 . S
Cd228 O231 2.333 . S
Cd228 O232 2.352 . S
Cd228 O236 2.277 1_545 S
Cd228 O237 2.356 . S
C229 O234 1.209 . S
C229 O236 1.226 . S
O230 Cd226 2.273 1_545 S
O230 Cd228 2.411 . S
O230 C233 1.320 . S
O231 Cd228 2.333 . S
O231 C233 1.214 . S
O232 Cd228 2.352 . S
O232 C235 1.258 . S
C233 O230 1.320 . S
C233 O231 1.214 . S
O234 Cd226 2.277 . S
O234 C229 1.209 . S
C235 O232 1.258 . S
C235 O237 1.282 . S
O236 Cd228 2.277 1_565 S
O236 C229 1.226 . S
O237 Cd228 2.356 . S
O237 C235 1.282 . S
C238 O239 1.306 . S
C238 O241 1.160 . S
O239 C238 1.306 . S
O239 Cd240 2.228 . S
Cd240 O239 2.228 . S
Cd240 O244 2.273 . S
Cd240 O248 2.277 . S
O241 C238 1.160 . S
O241 Cd242 2.203 . S
Cd242 O241 2.203 . S
Cd242 O244 2.411 . S
Cd242 O245 2.333 . S
Cd242 O246 2.352 . S
Cd242 O250 2.277 . S
Cd242 O251 2.356 . S
C243 O248 1.209 . S
C243 O250 1.226 . S
O244 Cd240 2.273 . S
O244 Cd242 2.411 . S
O244 C247 1.320 . S
O245 Cd242 2.333 . S
O245 C247 1.214 . S
O246 Cd242 2.352 . S
O246 C249 1.258 . S
C247 O244 1.320 . S
C247 O245 1.214 . S
O248 Cd240 2.277 . S
O248 C243 1.209 . S
C249 O246 1.258 . S
C249 O251 1.282 . S
O250 Cd242 2.277 . S
O250 C243 1.226 . S
O251 Cd242 2.356 . S
O251 C249 1.282 . S
C252 O253 1.306 . S
C252 O255 1.160 . S
O253 C252 1.306 . S
O253 Cd254 2.228 . S
Cd254 O253 2.228 . S
Cd254 O258 2.273 . S
Cd254 O262 2.277 . S
O255 C252 1.160 . S
O255 Cd256 2.203 . S
Cd256 O255 2.203 . S
Cd256 O258 2.411 . S
Cd256 O259 2.333 . S
Cd256 O260 2.352 . S
Cd256 O264 2.277 . S
Cd256 O265 2.356 . S
C257 O262 1.209 . S
C257 O264 1.226 . S
O258 Cd254 2.273 . S
O258 Cd256 2.411 . S
O258 C261 1.320 . S
O259 Cd256 2.333 . S
O259 C261 1.214 . S
O260 Cd256 2.352 . S
O260 C263 1.258 . S
C261 O258 1.320 . S
C261 O259 1.214 . S
O262 Cd254 2.277 . S
O262 C257 1.209 . S
C263 O260 1.258 . S
C263 O265 1.282 . S
O264 Cd256 2.277 . S
O264 C257 1.226 . S
O265 Cd256 2.356 . S
O265 C263 1.282 . S
C266 O267 1.306 . S
C266 O269 1.160 . S
O267 C266 1.306 . S
O267 Cd268 2.228 . S
Cd268 O267 2.228 . S
Cd268 O272 2.273 . S
Cd268 O276 2.277 . S
O269 C266 1.160 . S
O269 Cd270 2.203 . S
Cd270 O269 2.203 . S
Cd270 O272 2.411 . S
Cd270 O273 2.333 . S
Cd270 O274 2.352 1_545 S
Cd270 O278 2.277 . S
Cd270 O279 2.356 1_545 S
C271 O276 1.209 . S
C271 O278 1.226 . S
O272 Cd268 2.273 . S
O272 Cd270 2.411 . S
O272 C275 1.320 . S
O273 Cd270 2.333 . S
O273 C275 1.214 . S
O274 Cd270 2.352 1_565 S
O274 C277 1.258 . S
C275 O272 1.320 . S
C275 O273 1.214 . S
O276 Cd268 2.277 . S
O276 C271 1.209 . S
C277 O274 1.258 . S
C277 O279 1.282 . S
O278 Cd270 2.277 . S
O278 C271 1.226 . S
O279 Cd270 2.356 1_565 S
O279 C277 1.282 . S
C280 O281 1.306 . S
C280 O283 1.160 . S
O281 C280 1.306 . S
O281 Cd282 2.228 . S
Cd282 O281 2.228 . S
Cd282 O286 2.273 . S
Cd282 O290 2.277 . S
O283 C280 1.160 . S
O283 Cd284 2.203 1_554 S
Cd284 O283 2.203 1_556 S
Cd284 O286 2.411 1_556 S
Cd284 O287 2.333 . S
Cd284 O288 2.353 . S
Cd284 O292 2.275 1_556 S
Cd284 O293 2.358 . S
C285 O290 1.209 . S
C285 O292 1.226 . S
O286 Cd282 2.273 . S
O286 Cd284 2.411 1_554 S
O286 C289 1.320 1_554 S
O287 Cd284 2.333 . S
O287 C289 1.214 . S
O288 Cd284 2.353 . S
O288 C291 1.258 . S
C289 O286 1.320 1_556 S
C289 O287 1.214 . S
O290 Cd282 2.277 . S
O290 C285 1.209 . S
C291 O288 1.258 . S
C291 O293 1.282 . S
O292 Cd284 2.275 1_554 S
O292 C285 1.226 . S
O293 Cd284 2.358 . S
O293 C291 1.282 . S
C294 O295 1.306 . S
C294 O297 1.160 . S
O295 C294 1.306 . S
O295 Cd296 2.228 . S
Cd296 O295 2.228 . S
Cd296 O300 2.273 . S
Cd296 O304 2.277 . S
O297 C294 1.160 . S
O297 Cd298 2.203 . S
Cd298 O297 2.203 . S
Cd298 O300 2.411 . S
Cd298 O301 2.333 . S
Cd298 O302 2.352 . S
Cd298 O306 2.277 . S
Cd298 O307 2.356 . S
C299 O304 1.209 . S
C299 O306 1.226 . S
O300 Cd296 2.273 . S
O300 Cd298 2.411 . S
O300 C303 1.320 . S
O301 Cd298 2.333 . S
O301 C303 1.214 . S
O302 Cd298 2.352 . S
O302 C305 1.258 . S
C303 O300 1.320 . S
C303 O301 1.214 . S
O304 Cd296 2.277 . S
O304 C299 1.209 . S
C305 O302 1.258 . S
C305 O307 1.282 . S
O306 Cd298 2.277 . S
O306 C299 1.226 . S
O307 Cd298 2.356 . S
O307 C305 1.282 . S
C308 O309 1.306 . S
C308 O311 1.160 . S
O309 C308 1.306 . S
O309 Cd310 2.228 . S
Cd310 O309 2.228 . S
Cd310 O314 2.273 . S
Cd310 O318 2.277 . S
O311 C308 1.160 . S
O311 Cd312 2.203 . S
Cd312 O311 2.203 . S
Cd312 O314 2.411 . S
Cd312 O315 2.333 . S
Cd312 O316 2.352 . S
Cd312 O320 2.277 . S
Cd312 O321 2.356 . S
C313 O318 1.209 . S
C313 O320 1.226 . S
O314 Cd310 2.273 . S
O314 Cd312 2.411 . S
O314 C317 1.320 . S
O315 Cd312 2.333 . S
O315 C317 1.214 . S
O316 Cd312 2.352 . S
O316 C319 1.258 . S
C317 O314 1.320 . S
C317 O315 1.214 . S
O318 Cd310 2.277 . S
O318 C313 1.209 . S
C319 O316 1.258 . S
C319 O321 1.282 . S
O320 Cd312 2.277 . S
O320 C313 1.226 . S
O321 Cd312 2.356 . S
O321 C319 1.282 . S
C322 O323 1.306 . S
C322 O325 1.160 . S
O323 C322 1.306 . S
O323 Cd324 2.228 . S
Cd324 O323 2.228 . S
Cd324 O328 2.273 . S
Cd324 O332 2.277 . S
O325 C322 1.160 . S
O325 Cd326 2.203 . S
Cd326 O325 2.203 . S
Cd326 O328 2.411 . S
Cd326 O329 2.333 . S
Cd326 O330 2.352 . S
Cd326 O334 2.277 . S
Cd326 O335 2.356 . S
C327 O332 1.209 . S
C327 O334 1.226 . S
O328 Cd324 2.273 . S
O328 Cd326 2.411 . S
O328 C331 1.320 . S
O329 Cd326 2.333 . S
O329 C331 1.214 . S
O330 Cd326 2.352 . S
O330 C333 1.258 . S
C331 O328 1.320 . S
C331 O329 1.214 . S
O332 Cd324 2.277 . S
O332 C327 1.209 . S
C333 O330 1.258 . S
C333 O335 1.282 . S
O334 Cd326 2.277 . S
O334 C327 1.226 . S
O335 Cd326 2.356 . S
O335 C333 1.282 . S
Dy336 O340 2.398 . S
Dy336 O341 2.491 1_556 S
Dy336 O342 2.403 1_545 S
Dy336 O343 2.664 1_655 S
Dy336 O347 2.326 . S
Dy336 O351 2.310 1_656 S
Dy336 O352 2.351 1_546 S
C337 O348 1.185 . S
C337 O349 1.355 1_545 S
C338 O340 1.185 . S
C338 O341 1.355 1_556 S
Dy339 O343 2.310 1_554 S
Dy339 O346 2.351 . S
Dy339 O348 2.398 . S
Dy339 O349 2.491 1_545 S
Dy339 O350 2.403 . S
Dy339 O351 2.664 . S
Dy339 O353 2.326 1_545 S
O340 Dy336 2.398 . S
O340 C338 1.185 . S
O341 Dy336 2.491 1_554 S
O341 C338 1.355 1_554 S
O342 Dy336 2.403 1_565 S
O342 C344 1.254 1_665 S
O343 Dy336 2.664 1_455 S
O343 Dy339 2.310 1_556 S
O343 C344 1.268 . S
C344 O342 1.254 1_445 S
C344 O343 1.268 . S
C345 O350 1.254 . S
C345 O351 1.268 . S
O346 Dy339 2.351 . S
O346 C354 1.249 1_554 S
O347 Dy336 2.326 . S
O347 C354 1.267 1_655 S
O348 C337 1.185 . S
O348 Dy339 2.398 . S
O349 C337 1.355 1_565 S
O349 Dy339 2.491 1_565 S
O350 Dy339 2.403 . S
O350 C345 1.254 . S
O351 Dy336 2.310 1_454 S
O351 Dy339 2.664 . S
O351 C345 1.268 . S
O352 Dy336 2.351 1_564 S
O352 C355 1.249 1_655 S
O353 Dy339 2.326 1_565 S
O353 C355 1.267 . S
C354 O346 1.249 1_556 S
C354 O347 1.267 1_455 S
C355 O352 1.249 1_455 S
C355 O353 1.267 . S
Dy356 O360 2.398 . S
Dy356 O361 2.491 . S
Dy356 O362 2.403 . S
Dy356 O363 2.664 . S
Dy356 O367 2.326 . S
Dy356 O371 2.310 . S
Dy356 O372 2.351 . S
C357 O368 1.185 . S
C357 O369 1.355 . S
C358 O360 1.185 . S
C358 O361 1.355 . S
Dy359 O363 2.310 . S
Dy359 O366 2.351 . S
Dy359 O368 2.398 . S
Dy359 O369 2.491 . S
Dy359 O370 2.403 . S
Dy359 O371 2.664 . S
Dy359 O373 2.326 . S
O360 Dy356 2.398 . S
O360 C358 1.185 . S
O361 Dy356 2.491 . S
O361 C358 1.355 . S
O362 Dy356 2.403 . S
O362 C364 1.254 . S
O363 Dy356 2.664 . S
O363 Dy359 2.310 . S
O363 C364 1.268 . S
C364 O362 1.254 . S
C364 O363 1.268 . S
C365 O370 1.254 . S
C365 O371 1.268 . S
O366 Dy359 2.351 . S
O366 C374 1.249 . S
O367 Dy356 2.326 . S
O367 C374 1.267 . S
O368 C357 1.185 . S
O368 Dy359 2.398 . S
O369 C357 1.355 . S
O369 Dy359 2.491 . S
O370 Dy359 2.403 . S
O370 C365 1.254 . S
O371 Dy356 2.310 . S
O371 Dy359 2.664 . S
O371 C365 1.268 . S
O372 Dy356 2.351 . S
O372 C375 1.249 . S
O373 Dy359 2.326 . S
O373 C375 1.267 . S
C374 O366 1.249 . S
C374 O367 1.267 . S
C375 O372 1.249 . S
C375 O373 1.267 . S
Dy376 O380 2.398 1_545 S
Dy376 O381 2.491 1_545 S
Dy376 O382 2.403 . S
Dy376 O383 2.664 . S
Dy376 O387 2.326 1_545 S
Dy376 O391 2.310 . S
Dy376 O392 2.351 . S
C377 O388 1.185 . S
C377 O389 1.355 . S
C378 O380 1.185 . S
C378 O381 1.355 . S
Dy379 O383 2.310 . S
Dy379 O386 2.351 1_545 S
Dy379 O388 2.398 . S
Dy379 O389 2.491 . S
Dy379 O390 2.403 . S
Dy379 O391 2.664 . S
Dy379 O393 2.326 . S
O380 Dy376 2.398 1_565 S
O380 C378 1.185 . S
O381 Dy376 2.491 1_565 S
O381 C378 1.355 . S
O382 Dy376 2.403 . S
O382 C384 1.254 . S
O383 Dy376 2.664 . S
O383 Dy379 2.310 . S
O383 C384 1.268 . S
C384 O382 1.254 . S
C384 O383 1.268 . S
C385 O390 1.254 . S
C385 O391 1.268 . S
O386 Dy379 2.351 1_565 S
O386 C394 1.249 . S
O387 Dy376 2.326 1_565 S
O387 C394 1.267 . S
O388 C377 1.185 . S
O388 Dy379 2.398 . S
O389 C377 1.355 . S
O389 Dy379 2.491 . S
O390 Dy379 2.403 . S
O390 C385 1.254 . S
O391 Dy376 2.310 . S
O391 Dy379 2.664 . S
O391 C385 1.268 . S
O392 Dy376 2.351 . S
O392 C395 1.249 . S
O393 Dy379 2.326 . S
O393 C395 1.267 . S
C394 O386 1.249 . S
C394 O387 1.267 . S
C395 O392 1.249 . S
C395 O393 1.267 . S
Dy396 O400 2.398 . S
Dy396 O401 2.491 . S
Dy396 O402 2.403 . S
Dy396 O403 2.664 . S
Dy396 O407 2.326 . S
Dy396 O411 2.310 . S
Dy396 O412 2.351 . S
C397 O408 1.185 . S
C397 O409 1.355 . S
C398 O400 1.185 . S
C398 O401 1.355 . S
Dy399 O403 2.310 . S
Dy399 O406 2.351 . S
Dy399 O408 2.398 . S
Dy399 O409 2.491 . S
Dy399 O410 2.403 . S
Dy399 O411 2.664 . S
Dy399 O413 2.326 . S
O400 Dy396 2.398 . S
O400 C398 1.185 . S
O401 Dy396 2.491 . S
O401 C398 1.355 . S
O402 Dy396 2.403 . S
O402 C404 1.254 . S
O403 Dy396 2.664 . S
O403 Dy399 2.310 . S
O403 C404 1.268 . S
C404 O402 1.254 . S
C404 O403 1.268 . S
C405 O410 1.254 . S
C405 O411 1.268 . S
O406 Dy399 2.351 . S
O406 C414 1.249 . S
O407 Dy396 2.326 . S
O407 C414 1.267 . S
O408 C397 1.185 . S
O408 Dy399 2.398 . S
O409 C397 1.355 . S
O409 Dy399 2.491 . S
O410 Dy399 2.403 . S
O410 C405 1.254 . S
O411 Dy396 2.310 . S
O411 Dy399 2.664 . S
O411 C405 1.268 . S
O412 Dy396 2.351 . S
O412 C415 1.249 . S
O413 Dy399 2.326 . S
O413 C415 1.267 . S
C414 O406 1.249 . S
C414 O407 1.267 . S
C415 O412 1.249 . S
C415 O413 1.267 . S
Dy416 O420 2.398 1_565 S
Dy416 O421 2.491 1_465 S
Dy416 O422 2.403 1_565 S
Dy416 O423 2.664 1_565 S
Dy416 O427 2.326 1_565 S
Dy416 O431 2.310 1_465 S
Dy416 O432 2.351 . S
C417 O428 1.185 . S
C417 O429 1.355 . S
C418 O420 1.185 1_655 S
C418 O421 1.355 . S
Dy419 O423 2.310 . S
Dy419 O426 2.351 . S
Dy419 O428 2.398 . S
Dy419 O429 2.491 . S
Dy419 O430 2.403 1_455 S
Dy419 O431 2.664 1_455 S
Dy419 O433 2.326 1_545 S
O420 Dy416 2.398 1_545 S
O420 C418 1.185 1_455 S
O421 Dy416 2.491 1_645 S
O421 C418 1.355 . S
O422 Dy416 2.403 1_545 S
O422 C424 1.254 . S
O423 Dy416 2.664 1_545 S
O423 Dy419 2.310 . S
O423 C424 1.268 . S
C424 O422 1.254 . S
C424 O423 1.268 . S
C425 O430 1.254 . S
C425 O431 1.268 . S
O426 Dy419 2.351 . S
O426 C434 1.249 . S
O427 Dy416 2.326 1_545 S
O427 C434 1.267 . S
O428 C417 1.185 . S
O428 Dy419 2.398 . S
O429 C417 1.355 . S
O429 Dy419 2.491 . S
O430 Dy419 2.403 1_655 S
O430 C425 1.254 . S
O431 Dy416 2.310 1_645 S
O431 Dy419 2.664 1_655 S
O431 C425 1.268 . S
O432 Dy416 2.351 . S
O432 C435 1.249 . S
O433 Dy419 2.326 1_565 S
O433 C435 1.267 . S
C434 O426 1.249 . S
C434 O427 1.267 . S
C435 O432 1.249 . S
C435 O433 1.267 . S
Dy436 O440 2.398 . S
Dy436 O441 2.491 . S
Dy436 O442 2.403 . S
Dy436 O443 2.664 . S
Dy436 O447 2.326 . S
Dy436 O451 2.310 . S
Dy436 O452 2.351 . S
C437 O448 1.185 . S
C437 O449 1.355 . S
C438 O440 1.185 . S
C438 O441 1.355 . S
Dy439 O443 2.310 . S
Dy439 O446 2.351 . S
Dy439 O448 2.398 . S
Dy439 O449 2.491 . S
Dy439 O450 2.403 . S
Dy439 O451 2.664 . S
Dy439 O453 2.326 . S
O440 Dy436 2.398 . S
O440 C438 1.185 . S
O441 Dy436 2.491 . S
O441 C438 1.355 . S
O442 Dy436 2.403 . S
O442 C444 1.254 . S
O443 Dy436 2.664 . S
O443 Dy439 2.310 . S
O443 C444 1.268 . S
C444 O442 1.254 . S
C444 O443 1.268 . S
C445 O450 1.254 . S
C445 O451 1.268 . S
O446 Dy439 2.351 . S
O446 C454 1.249 . S
O447 Dy436 2.326 . S
O447 C454 1.267 . S
O448 C437 1.185 . S
O448 Dy439 2.398 . S
O449 C437 1.355 . S
O449 Dy439 2.491 . S
O450 Dy439 2.403 . S
O450 C445 1.254 . S
O451 Dy436 2.310 . S
O451 Dy439 2.664 . S
O451 C445 1.268 . S
O452 Dy436 2.351 . S
O452 C455 1.249 . S
O453 Dy439 2.326 . S
O453 C455 1.267 . S
C454 O446 1.249 . S
C454 O447 1.267 . S
C455 O452 1.249 . S
C455 O453 1.267 . S
Dy456 O460 2.398 1_545 S
Dy456 O461 2.491 . S
Dy456 O462 2.403 1_545 S
Dy456 O463 2.664 1_544 S
Dy456 O467 2.326 1_545 S
Dy456 O471 2.310 . S
Dy456 O472 2.351 . S
C457 O468 1.185 . S
C457 O469 1.355 . S
C458 O460 1.185 . S
C458 O461 1.355 1_565 S
Dy459 O463 2.310 1_545 S
Dy459 O466 2.351 . S
Dy459 O468 2.398 . S
Dy459 O469 2.491 . S
Dy459 O470 2.403 . S
Dy459 O471 2.664 1_556 S
Dy459 O473 2.326 . S
O460 Dy456 2.398 1_565 S
O460 C458 1.185 . S
O461 Dy456 2.491 . S
O461 C458 1.355 1_545 S
O462 Dy456 2.403 1_565 S
O462 C464 1.254 1_554 S
O463 Dy456 2.664 1_566 S
O463 Dy459 2.310 1_565 S
O463 C464 1.268 . S
C464 O462 1.254 1_556 S
C464 O463 1.268 . S
C465 O470 1.254 1_554 S
C465 O471 1.268 . S
O466 Dy459 2.351 . S
O466 C474 1.249 1_546 S
O467 Dy456 2.326 1_565 S
O467 C474 1.267 . S
O468 C457 1.185 . S
O468 Dy459 2.398 . S
O469 C457 1.355 . S
O469 Dy459 2.491 . S
O470 Dy459 2.403 . S
O470 C465 1.254 1_556 S
O471 Dy456 2.310 . S
O471 Dy459 2.664 1_554 S
O471 C465 1.268 . S
O472 Dy456 2.351 . S
O472 C475 1.249 . S
O473 Dy459 2.326 . S
O473 C475 1.267 1_556 S
C474 O466 1.249 1_564 S
C474 O467 1.267 . S
C475 O472 1.249 . S
C475 O473 1.267 1_554 S
Dy476 O480 2.398 . S
Dy476 O481 2.491 . S
Dy476 O482 2.403 . S
Dy476 O483 2.664 . S
Dy476 O487 2.326 . S
Dy476 O491 2.310 . S
Dy476 O492 2.351 . S
C477 O488 1.185 . S
C477 O489 1.355 . S
C478 O480 1.185 . S
C478 O481 1.355 . S
Dy479 O483 2.310 . S
Dy479 O486 2.351 . S
Dy479 O488 2.398 . S
Dy479 O489 2.491 . S
Dy479 O490 2.403 . S
Dy479 O491 2.664 . S
Dy479 O493 2.326 . S
O480 Dy476 2.398 . S
O480 C478 1.185 . S
O481 Dy476 2.491 . S
O481 C478 1.355 . S
O482 Dy476 2.403 . S
O482 C484 1.254 . S
O483 Dy476 2.664 . S
O483 Dy479 2.310 . S
O483 C484 1.268 . S
C484 O482 1.254 . S
C484 O483 1.268 . S
C485 O490 1.254 . S
C485 O491 1.268 . S
O486 Dy479 2.351 . S
O486 C494 1.249 . S
O487 Dy476 2.326 . S
O487 C494 1.267 . S
O488 C477 1.185 . S
O488 Dy479 2.398 . S
O489 C477 1.355 . S
O489 Dy479 2.491 . S
O490 Dy479 2.403 . S
O490 C485 1.254 . S
O491 Dy476 2.310 . S
O491 Dy479 2.664 . S
O491 C485 1.268 . S
O492 Dy476 2.351 . S
O492 C495 1.249 . S
O493 Dy479 2.326 . S
O493 C495 1.267 . S
C494 O486 1.249 . S
C494 O487 1.267 . S
C495 O492 1.249 . S
C495 O493 1.267 . S
Dy496 O500 2.398 . S
Dy496 O501 2.491 . S
Dy496 O502 2.403 . S
Dy496 O503 2.664 1_556 S
Dy496 O507 2.326 . S
Dy496 O511 2.294 1_556 S
Dy496 O512 2.351 . S
C497 O508 1.185 . S
C497 O509 1.355 . S
C498 O500 1.185 . S
C498 O501 1.355 . S
Dy499 O503 2.310 . S
Dy499 O506 2.351 . S
Dy499 O508 2.398 . S
Dy499 O509 2.491 . S
Dy499 O510 2.403 . S
Dy499 O511 2.680 . S
Dy499 O513 2.326 . S
O500 Dy496 2.398 . S
O500 C498 1.185 . S
O501 Dy496 2.491 . S
O501 C498 1.355 . S
O502 Dy496 2.403 . S
O502 C504 1.254 . S
O503 Dy496 2.664 1_554 S
O503 Dy499 2.310 . S
O503 C504 1.268 1_554 S
C504 O502 1.254 . S
C504 O503 1.268 1_556 S
C505 O510 1.254 . S
C505 O511 1.282 . S
O506 Dy499 2.351 . S
O506 C514 1.249 1_554 S
O507 Dy496 2.326 . S
O507 C514 1.267 . S
O508 C497 1.185 . S
O508 Dy499 2.398 . S
O509 C497 1.355 . S
O509 Dy499 2.491 . S
O510 Dy499 2.403 . S
O510 C505 1.254 . S
O511 Dy496 2.294 1_554 S
O511 Dy499 2.680 . S
O511 C505 1.282 . S
O512 Dy496 2.351 . S
O512 C515 1.249 1_556 S
O513 Dy499 2.326 . S
O513 C515 1.267 . S
C514 O506 1.249 1_556 S
C514 O507 1.267 . S
C515 O512 1.249 1_554 S
C515 O513 1.267 . S
Dy516 O520 2.398 . S
Dy516 O521 2.491 . S
Dy516 O522 2.403 . S
Dy516 O523 2.664 . S
Dy516 O527 2.326 . S
Dy516 O531 2.310 . S
Dy516 O532 2.351 . S
C517 O528 1.185 . S
C517 O529 1.355 . S
C518 O520 1.185 . S
C518 O521 1.355 . S
Dy519 O523 2.310 . S
Dy519 O526 2.351 . S
Dy519 O528 2.398 . S
Dy519 O529 2.491 . S
Dy519 O530 2.403 . S
Dy519 O531 2.664 . S
Dy519 O533 2.326 . S
O520 Dy516 2.398 . S
O520 C518 1.185 . S
O521 Dy516 2.491 . S
O521 C518 1.355 . S
O522 Dy516 2.403 . S
O522 C524 1.254 . S
O523 Dy516 2.664 . S
O523 Dy519 2.310 . S
O523 C524 1.268 . S
C524 O522 1.254 . S
C524 O523 1.268 . S
C525 O530 1.254 . S
C525 O531 1.268 . S
O526 Dy519 2.351 . S
O526 C534 1.249 . S
O527 Dy516 2.326 . S
O527 C534 1.267 . S
O528 C517 1.185 . S
O528 Dy519 2.398 . S
O529 C517 1.355 . S
O529 Dy519 2.491 . S
O530 Dy519 2.403 . S
O530 C525 1.254 . S
O531 Dy516 2.310 . S
O531 Dy519 2.664 . S
O531 C525 1.268 . S
O532 Dy516 2.351 . S
O532 C535 1.249 . S
O533 Dy519 2.326 . S
O533 C535 1.267 . S
C534 O526 1.249 . S
C534 O527 1.267 . S
C535 O532 1.249 . S
C535 O533 1.267 . S
Dy536 O540 2.385 1_455 S
Dy536 O541 2.491 1_455 S
Dy536 O542 2.403 . S
Dy536 O543 2.664 . S
Dy536 O547 2.326 1_455 S
Dy536 O551 2.310 . S
Dy536 O552 2.351 . S
C537 O548 1.185 . S
C537 O549 1.355 . S
C538 O540 1.212 . S
C538 O541 1.355 . S
Dy539 O543 2.310 . S
Dy539 O546 2.351 1_455 S
Dy539 O548 2.398 . S
Dy539 O549 2.491 . S
Dy539 O550 2.403 . S
Dy539 O551 2.664 . S
Dy539 O553 2.326 . S
O540 Dy536 2.385 1_655 S
O540 C538 1.212 . S
O541 Dy536 2.491 1_655 S
O541 C538 1.355 . S
O542 Dy536 2.403 . S
O542 C544 1.254 . S
O543 Dy536 2.664 . S
O543 Dy539 2.310 . S
O543 C544 1.268 . S
C544 O542 1.254 . S
C544 O543 1.268 . S
C545 O550 1.254 . S
C545 O551 1.268 . S
O546 Dy539 2.351 1_655 S
O546 C554 1.249 . S
O547 Dy536 2.326 1_655 S
O547 C554 1.267 . S
O548 C537 1.185 . S
O548 Dy539 2.398 . S
O549 C537 1.355 . S
O549 Dy539 2.491 . S
O550 Dy539 2.403 . S
O550 C545 1.254 . S
O551 Dy536 2.310 . S
O551 Dy539 2.664 . S
O551 C545 1.268 . S
O552 Dy536 2.351 . S
O552 C555 1.249 . S
O553 Dy539 2.326 . S
O553 C555 1.267 . S
C554 O546 1.249 . S
C554 O547 1.267 . S
C555 O552 1.249 . S
C555 O553 1.267 . S
Dy556 O560 2.398 . S
Dy556 O561 2.491 . S
Dy556 O562 2.403 . S
Dy556 O563 2.664 . S
Dy556 O567 2.326 . S
Dy556 O571 2.310 . S
Dy556 O572 2.351 . S
C557 O568 1.185 . S
C557 O569 1.355 . S
C558 O560 1.185 . S
C558 O561 1.355 . S
Dy559 O563 2.310 . S
Dy559 O566 2.351 . S
Dy559 O568 2.398 . S
Dy559 O569 2.491 . S
Dy559 O570 2.403 . S
Dy559 O571 2.664 . S
Dy559 O573 2.326 . S
O560 Dy556 2.398 . S
O560 C558 1.185 . S
O561 Dy556 2.491 . S
O561 C558 1.355 . S
O562 Dy556 2.403 . S
O562 C564 1.254 . S
O563 Dy556 2.664 . S
O563 Dy559 2.310 . S
O563 C564 1.268 . S
C564 O562 1.254 . S
C564 O563 1.268 . S
C565 O570 1.254 . S
C565 O571 1.268 . S
O566 Dy559 2.351 . S
O566 C574 1.249 . S
O567 Dy556 2.326 . S
O567 C574 1.267 . S
O568 C557 1.185 . S
O568 Dy559 2.398 . S
O569 C557 1.355 . S
O569 Dy559 2.491 . S
O570 Dy559 2.403 . S
O570 C565 1.254 . S
O571 Dy556 2.310 . S
O571 Dy559 2.664 . S
O571 C565 1.268 . S
O572 Dy556 2.351 . S
O572 C575 1.249 . S
O573 Dy559 2.326 . S
O573 C575 1.267 . S
C574 O566 1.249 . S
C574 O567 1.267 . S
C575 O572 1.249 . S
C575 O573 1.267 . S
Dy576 O580 2.398 . S
Dy576 O581 2.491 . S
Dy576 O582 2.403 . S
Dy576 O583 2.664 . S
Dy576 O587 2.326 . S
Dy576 O591 2.310 . S
Dy576 O592 2.351 . S
C577 O588 1.185 . S
C577 O589 1.355 . S
C578 O580 1.185 . S
C578 O581 1.355 . S
Dy579 O583 2.310 . S
Dy579 O586 2.351 . S
Dy579 O588 2.398 . S
Dy579 O589 2.491 . S
Dy579 O590 2.403 . S
Dy579 O591 2.664 . S
Dy579 O593 2.326 . S
O580 Dy576 2.398 . S
O580 C578 1.185 . S
O581 Dy576 2.491 . S
O581 C578 1.355 . S
O582 Dy576 2.403 . S
O582 C584 1.254 . S
O583 Dy576 2.664 . S
O583 Dy579 2.310 . S
O583 C584 1.268 . S
C584 O582 1.254 . S
C584 O583 1.268 . S
C585 O590 1.254 . S
C585 O591 1.268 . S
O586 Dy579 2.351 . S
O586 C594 1.249 . S
O587 Dy576 2.326 . S
O587 C594 1.267 . S
O588 C577 1.185 . S
O588 Dy579 2.398 . S
O589 C577 1.355 . S
O589 Dy579 2.491 . S
O590 Dy579 2.403 . S
O590 C585 1.254 . S
O591 Dy576 2.310 . S
O591 Dy579 2.664 . S
O591 C585 1.268 . S
O592 Dy576 2.351 . S
O592 C595 1.249 . S
O593 Dy579 2.326 . S
O593 C595 1.267 . S
C594 O586 1.249 . S
C594 O587 1.267 . S
C595 O592 1.249 . S
C595 O593 1.267 . S
Dy596 O600 2.398 . S
Dy596 O601 2.491 . S
Dy596 O602 2.403 . S
Dy596 O603 2.664 . S
Dy596 O607 2.326 . S
Dy596 O611 2.310 . S
Dy596 O612 2.351 . S
C597 O608 1.185 . S
C597 O609 1.355 . S
C598 O600 1.185 . S
C598 O601 1.355 . S
Dy599 O603 2.310 . S
Dy599 O606 2.351 . S
Dy599 O608 2.398 . S
Dy599 O609 2.491 . S
Dy599 O610 2.403 . S
Dy599 O611 2.664 . S
Dy599 O613 2.326 . S
O600 Dy596 2.398 . S
O600 C598 1.185 . S
O601 Dy596 2.491 . S
O601 C598 1.355 . S
O602 Dy596 2.403 . S
O602 C604 1.254 . S
O603 Dy596 2.664 . S
O603 Dy599 2.310 . S
O603 C604 1.268 . S
C604 O602 1.254 . S
C604 O603 1.268 . S
C605 O610 1.254 . S
C605 O611 1.268 . S
O606 Dy599 2.351 . S
O606 C614 1.249 . S
O607 Dy596 2.326 . S
O607 C614 1.267 . S
O608 C597 1.185 . S
O608 Dy599 2.398 . S
O609 C597 1.355 . S
O609 Dy599 2.491 . S
O610 Dy599 2.403 . S
O610 C605 1.254 . S
O611 Dy596 2.310 . S
O611 Dy599 2.664 . S
O611 C605 1.268 . S
O612 Dy596 2.351 . S
O612 C615 1.249 . S
O613 Dy599 2.326 . S
O613 C615 1.267 . S
C614 O606 1.249 . S
C614 O607 1.267 . S
C615 O612 1.249 . S
C615 O613 1.267 . S
Dy616 O620 2.398 . S
Dy616 O621 2.491 . S
Dy616 O622 2.403 . S
Dy616 O623 2.664 . S
Dy616 O627 2.326 . S
Dy616 O631 2.310 . S
Dy616 O632 2.351 . S
C617 O628 1.185 . S
C617 O629 1.355 . S
C618 O620 1.185 . S
C618 O621 1.355 . S
Dy619 O623 2.310 . S
Dy619 O626 2.351 . S
Dy619 O628 2.398 . S
Dy619 O629 2.491 . S
Dy619 O630 2.403 . S
Dy619 O631 2.664 . S
Dy619 O633 2.326 . S
O620 Dy616 2.398 . S
O620 C618 1.185 . S
O621 Dy616 2.491 . S
O621 C618 1.355 . S
O622 Dy616 2.403 . S
O622 C624 1.254 . S
O623 Dy616 2.664 . S
O623 Dy619 2.310 . S
O623 C624 1.268 . S
C624 O622 1.254 . S
C624 O623 1.268 . S
C625 O630 1.254 . S
C625 O631 1.268 . S
O626 Dy619 2.351 . S
O626 C634 1.249 . S
O627 Dy616 2.326 . S
O627 C634 1.267 . S
O628 C617 1.185 . S
O628 Dy619 2.398 . S
O629 C617 1.355 . S
O629 Dy619 2.491 . S
O630 Dy619 2.403 . S
O630 C625 1.254 . S
O631 Dy616 2.310 . S
O631 Dy619 2.664 . S
O631 C625 1.268 . S
O632 Dy616 2.351 . S
O632 C635 1.249 . S
O633 Dy619 2.326 . S
O633 C635 1.267 . S
C634 O626 1.249 . S
C634 O627 1.267 . S
C635 O632 1.249 . S
C635 O633 1.267 . S
Dy636 O640 2.398 . S
Dy636 O641 2.491 1_556 S
Dy636 O642 2.403 . S
Dy636 O643 2.664 . S
Dy636 O647 2.326 . S
Dy636 O651 2.310 1_556 S
Dy636 O652 2.351 1_556 S
C637 O648 1.185 . S
C637 O649 1.355 . S
C638 O640 1.185 . S
C638 O641 1.355 1_556 S
Dy639 O643 2.310 1_654 S
Dy639 O646 2.351 . S
Dy639 O648 2.398 . S
Dy639 O649 2.491 . S
Dy639 O650 2.403 . S
Dy639 O651 2.664 1_655 S
Dy639 O653 2.326 1_655 S
O640 Dy636 2.398 . S
O640 C638 1.185 . S
O641 Dy636 2.491 1_554 S
O641 C638 1.355 1_554 S
O642 Dy636 2.403 . S
O642 C644 1.254 . S
O643 Dy636 2.664 . S
O643 Dy639 2.310 1_456 S
O643 C644 1.268 . S
C644 O642 1.254 . S
C644 O643 1.268 . S
C645 O650 1.254 1_455 S
C645 O651 1.268 . S
O646 Dy639 2.351 . S
O646 C654 1.249 1_654 S
O647 Dy636 2.326 . S
O647 C654 1.267 . S
O648 C637 1.185 . S
O648 Dy639 2.398 . S
O649 C637 1.355 . S
O649 Dy639 2.491 . S
O650 Dy639 2.403 . S
O650 C645 1.254 1_655 S
O651 Dy636 2.310 1_554 S
O651 Dy639 2.664 1_455 S
O651 C645 1.268 . S
O652 Dy636 2.351 1_554 S
O652 C655 1.249 . S
O653 Dy639 2.326 1_455 S
O653 C655 1.267 . S
C654 O646 1.249 1_456 S
C654 O647 1.267 . S
C655 O652 1.249 . S
C655 O653 1.267 . S
C656 C657 1.371 1_455 S
C656 H660 0.950 . S
C656 C665 1.390 . S
C657 C656 1.371 1_655 S
C657 C659 1.394 . S
H658 C665 0.950 . S
C659 C657 1.394 . S
C659 C661 1.390 1_655 S
C659 H663 0.950 . S
H660 C656 0.950 . S
C661 C659 1.390 1_455 S
C661 C662 1.387 . S
C661 H664 0.950 1_556 S
C662 C661 1.387 . S
C662 C665 1.387 . S
H663 C659 0.950 . S
H664 C661 0.950 1_554 S
C665 C656 1.390 . S
C665 H658 0.950 . S
C665 C662 1.387 . S
C666 C667 1.387 . S
C666 H670 0.950 . S
C666 C675 1.390 . S
C667 C666 1.387 . S
C667 C669 1.387 . S
H668 C675 0.950 . S
C669 C667 1.387 . S
C669 C671 1.390 . S
C669 H673 0.950 . S
H670 C666 0.950 . S
C671 C669 1.390 . S
C671 C672 1.387 . S
C671 H674 0.950 . S
C672 C671 1.387 . S
C672 C675 1.387 . S
H673 C669 0.950 . S
H674 C671 0.950 . S
C675 C666 1.390 . S
C675 H668 0.950 . S
C675 C672 1.387 . S
C676 C677 1.387 . S
C676 H680 0.950 . S
C676 C685 1.390 . S
C677 C676 1.387 . S
C677 C679 1.387 . S
H678 C685 0.950 . S
C679 C677 1.387 . S
C679 C681 1.390 . S
C679 H683 0.950 . S
H680 C676 0.950 . S
C681 C679 1.390 . S
C681 C682 1.387 . S
C681 H684 0.950 . S
C682 C681 1.387 . S
C682 C685 1.387 . S
H683 C679 0.950 . S
H684 C681 0.950 . S
C685 C676 1.390 . S
C685 H678 0.950 . S
C685 C682 1.387 . S
C686 C687 1.387 . S
C686 H690 0.950 . S
C686 C695 1.390 . S
C687 C686 1.387 . S
C687 C689 1.387 . S
H688 C695 0.950 . S
C689 C687 1.387 . S
C689 C691 1.390 . S
C689 H693 0.950 . S
H690 C686 0.950 . S
C691 C689 1.390 . S
C691 C692 1.387 . S
C691 H694 0.950 . S
C692 C691 1.387 . S
C692 C695 1.387 . S
H693 C689 0.950 . S
H694 C691 0.950 . S
C695 C686 1.390 . S
C695 H688 0.950 . S
C695 C692 1.387 . S
C696 C697 1.387 . S
C696 H700 0.950 . S
C696 C705 1.390 . S
C697 C696 1.387 . S
C697 C699 1.387 1_455 S
H698 C705 0.950 . S
C699 C697 1.387 1_655 S
C699 C701 1.390 1_655 S
C699 H703 0.950 . S
H700 C696 0.950 . S
C701 C699 1.390 1_455 S
C701 C702 1.387 . S
C701 H704 0.950 1_455 S
C702 C701 1.387 . S
C702 C705 1.387 . S
H703 C699 0.950 . S
H704 C701 0.950 1_655 S
C705 C696 1.390 . S
C705 H698 0.950 . S
C705 C702 1.387 . S
C706 C707 1.387 . S
C706 H710 0.950 . S
C706 C715 1.390 . S
C707 C706 1.387 . S
C707 C709 1.387 . S
H708 C715 0.950 . S
C709 C707 1.387 . S
C709 C711 1.390 . S
C709 H713 0.950 . S
H710 C706 0.950 . S
C711 C709 1.390 . S
C711 C712 1.387 . S
C711 H714 0.950 . S
C712 C711 1.387 . S
C712 C715 1.387 . S
H713 C709 0.950 . S
H714 C711 0.950 . S
C715 C706 1.390 . S
C715 H708 0.950 . S
C715 C712 1.387 . S
C716 C717 1.387 . S
C716 H720 0.950 . S
C716 C725 1.390 . S
C717 C716 1.387 . S
C717 C719 1.387 . S
H718 C725 0.950 . S
C719 C717 1.387 . S
C719 C721 1.390 . S
C719 H723 0.950 . S
H720 C716 0.950 . S
C721 C719 1.390 . S
C721 C722 1.387 . S
C721 H724 0.950 . S
C722 C721 1.387 . S
C722 C725 1.387 . S
H723 C719 0.950 . S
H724 C721 0.950 . S
C725 C716 1.390 . S
C725 H718 0.950 . S
C725 C722 1.387 . S
C726 C727 1.387 . S
C726 H730 0.950 . S
C726 C735 1.390 . S
C727 C726 1.387 . S
C727 C729 1.387 . S
H728 C735 0.950 . S
C729 C727 1.387 . S
C729 C731 1.390 . S
C729 H733 0.950 . S
H730 C726 0.950 . S
C731 C729 1.390 . S
C731 C732 1.387 . S
C731 H734 0.950 . S
C732 C731 1.387 . S
C732 C735 1.387 . S
H733 C729 0.950 . S
H734 C731 0.950 . S
C735 C726 1.390 . S
C735 H728 0.950 . S
C735 C732 1.387 . S
C736 C737 1.387 . S
C736 H740 0.950 . S
C736 C745 1.390 . S
C737 C736 1.387 . S
C737 C739 1.387 . S
H738 C745 0.950 . S
C739 C737 1.387 . S
C739 C741 1.390 . S
C739 H743 0.950 1_545 S
H740 C736 0.950 . S
C741 C739 1.390 . S
C741 C742 1.387 . S
C741 H744 0.950 1_545 S
C742 C741 1.387 . S
C742 C745 1.387 . S
H743 C739 0.950 1_565 S
H744 C741 0.950 1_565 S
C745 C736 1.390 . S
C745 H738 0.950 . S
C745 C742 1.387 . S
C746 C747 1.387 . S
C746 H750 0.950 . S
C746 C755 1.390 . S
C747 C746 1.387 . S
C747 C749 1.387 . S
H748 C755 0.950 . S
C749 C747 1.387 . S
C749 C751 1.390 . S
C749 H753 0.950 . S
H750 C746 0.950 . S
C751 C749 1.390 . S
C751 C752 1.387 . S
C751 H754 0.950 . S
C752 C751 1.387 . S
C752 C755 1.387 . S
H753 C749 0.950 . S
H754 C751 0.950 . S
C755 C746 1.390 . S
C755 H748 0.950 . S
C755 C752 1.387 . S
C756 C757 1.387 1_565 S
C756 H760 0.950 . S
C756 C765 1.390 . S
C757 C756 1.387 1_545 S
C757 C759 1.387 . S
H758 C765 0.950 . S
C759 C757 1.387 . S
C759 C761 1.390 . S
C759 H763 0.950 . S
H760 C756 0.950 . S
C761 C759 1.390 . S
C761 C762 1.387 . S
C761 H764 0.950 . S
C762 C761 1.387 . S
C762 C765 1.387 1_545 S
H763 C759 0.950 . S
H764 C761 0.950 . S
C765 C756 1.390 . S
C765 H758 0.950 . S
C765 C762 1.387 1_565 S
C766 C767 1.387 . S
C766 H770 0.950 . S
C766 C775 1.390 . S
C767 C766 1.387 . S
C767 C769 1.387 . S
H768 C775 0.950 . S
C769 C767 1.387 . S
C769 C771 1.390 . S
C769 H773 0.950 . S
H770 C766 0.950 . S
C771 C769 1.390 . S
C771 C772 1.387 . S
C771 H774 0.950 . S
C772 C771 1.387 . S
C772 C775 1.387 . S
H773 C769 0.950 . S
H774 C771 0.950 . S
C775 C766 1.390 . S
C775 H768 0.950 . S
C775 C772 1.387 . S
C776 C777 1.387 . S
C776 H780 0.950 1_545 S
C776 C785 1.376 1_545 S
C777 C776 1.387 . S
C777 C779 1.387 . S
H778 C785 0.979 . S
C779 C777 1.387 . S
C779 C781 1.390 . S
C779 H783 0.950 . S
H780 C776 0.950 1_565 S
C781 C779 1.390 . S
C781 C782 1.387 . S
C781 H784 0.950 . S
C782 C781 1.387 . S
C782 C785 1.373 1_545 S
H783 C779 0.950 . S
H784 C781 0.950 . S
C785 C776 1.376 1_565 S
C785 H778 0.979 . S
C785 C782 1.373 1_565 S
C786 C787 1.387 . S
C786 H790 0.950 . S
C786 C795 1.390 . S
C787 C786 1.387 . S
C787 C789 1.387 . S
H788 C795 0.950 . S
C789 C787 1.387 . S
C789 C791 1.390 . S
C789 H793 0.950 . S
H790 C786 0.950 . S
C791 C789 1.390 . S
C791 C792 1.387 . S
C791 H794 0.950 . S
C792 C791 1.387 . S
C792 C795 1.387 . S
H793 C789 0.950 . S
H794 C791 0.950 . S
C795 C786 1.390 . S
C795 H788 0.950 . S
C795 C792 1.387 . S
C796 C797 1.387 . S
C796 H800 0.950 1_545 S
C796 C805 1.390 . S
C797 C796 1.387 . S
C797 C799 1.387 . S
H798 C805 0.950 1_565 S
C799 C797 1.387 . S
C799 C801 1.390 . S
C799 H803 0.950 . S
H800 C796 0.950 1_565 S
C801 C799 1.390 . S
C801 C802 1.387 . S
C801 H804 0.950 . S
C802 C801 1.387 . S
C802 C805 1.387 . S
H803 C799 0.950 . S
H804 C801 0.950 . S
C805 C796 1.390 . S
C805 H798 0.950 1_545 S
C805 C802 1.387 . S
C806 C807 1.387 . S
C806 H810 0.950 . S
C806 C815 1.390 . S
C807 C806 1.387 . S
C807 C809 1.387 . S
H808 C815 0.950 . S
C809 C807 1.387 . S
C809 C811 1.390 . S
C809 H813 0.950 . S
H810 C806 0.950 . S
C811 C809 1.390 . S
C811 C812 1.387 . S
C811 H814 0.950 . S
C812 C811 1.387 . S
C812 C815 1.387 . S
H813 C809 0.950 . S
H814 C811 0.950 . S
C815 C806 1.390 . S
C815 H808 0.950 . S
C815 C812 1.387 . S
C816 C817 1.387 . S
C816 H820 0.950 . S
C816 C825 1.390 . S
C817 C816 1.387 . S
C817 C819 1.387 1_554 S
H818 C825 0.950 . S
C819 C817 1.387 1_556 S
C819 C821 1.390 1_556 S
C819 H823 0.950 . S
H820 C816 0.950 . S
C821 C819 1.390 1_554 S
C821 C822 1.387 . S
C821 H824 0.926 1_564 S
C822 C821 1.387 . S
C822 C825 1.387 . S
H823 C819 0.950 . S
H824 C821 0.926 1_546 S
C825 C816 1.390 . S
C825 H818 0.950 . S
C825 C822 1.387 . S
C826 C827 1.395 . S
C826 H830 0.950 . S
C826 C835 1.390 . S
C827 C826 1.395 . S
C827 C829 1.381 1_554 S
H828 C835 0.950 . S
C829 C827 1.381 1_556 S
C829 C831 1.390 . S
C829 H833 0.950 . S
H830 C826 0.950 . S
C831 C829 1.390 . S
C831 C832 1.392 . S
C831 H834 0.950 . S
C832 C831 1.392 . S
C832 C835 1.383 1_556 S
H833 C829 0.950 . S
H834 C831 0.950 . S
C835 C826 1.390 . S
C835 H828 0.950 . S
C835 C832 1.383 1_554 S
C836 C837 1.387 . S
C836 H840 0.950 . S
C836 C845 1.390 . S
C837 C836 1.387 . S
C837 C839 1.387 . S
H838 C845 0.950 . S
C839 C837 1.387 . S
C839 C841 1.390 . S
C839 H843 0.950 . S
H840 C836 0.950 . S
C841 C839 1.390 . S
C841 C842 1.387 . S
C841 H844 0.950 . S
C842 C841 1.387 . S
C842 C845 1.387 . S
H843 C839 0.950 . S
H844 C841 0.950 . S
C845 C836 1.390 . S
C845 H838 0.950 . S
C845 C842 1.387 . S
C846 C847 1.387 . S
C846 H850 0.950 . S
C846 C855 1.390 . S
C847 C846 1.387 . S
C847 C849 1.387 . S
H848 C855 0.950 . S
C849 C847 1.387 . S
C849 C851 1.390 . S
C849 H853 0.950 . S
H850 C846 0.950 . S
C851 C849 1.390 . S
C851 C852 1.387 . S
C851 H854 0.950 . S
C852 C851 1.387 . S
C852 C855 1.387 . S
H853 C849 0.950 . S
H854 C851 0.950 . S
C855 C846 1.390 . S
C855 H848 0.950 . S
C855 C852 1.387 . S
C856 C857 1.387 . S
C856 H860 0.950 . S
C856 C865 1.390 . S
C857 C856 1.387 . S
C857 C859 1.387 . S
H858 C865 0.950 . S
C859 C857 1.387 . S
C859 C861 1.390 . S
C859 H863 0.950 . S
H860 C856 0.950 . S
C861 C859 1.390 . S
C861 C862 1.387 . S
C861 H864 0.950 . S
C862 C861 1.387 . S
C862 C865 1.387 . S
H863 C859 0.950 . S
H864 C861 0.950 . S
C865 C856 1.390 . S
C865 H858 0.950 . S
C865 C862 1.387 . S
C866 C867 1.387 . S
C866 H870 0.950 . S
C866 C875 1.390 . S
C867 C866 1.387 . S
C867 C869 1.387 . S
H868 C875 0.950 . S
C869 C867 1.387 . S
C869 C871 1.390 . S
C869 H873 0.950 . S
H870 C866 0.950 . S
C871 C869 1.390 . S
C871 C872 1.387 . S
C871 H874 0.950 . S
C872 C871 1.387 . S
C872 C875 1.387 . S
H873 C869 0.950 . S
H874 C871 0.950 . S
C875 C866 1.390 . S
C875 H868 0.950 . S
C875 C872 1.387 . S
C876 C877 1.387 . S
C876 H880 0.950 . S
C876 C885 1.390 . S
C877 C876 1.387 . S
C877 C879 1.387 . S
H878 C885 0.950 . S
C879 C877 1.387 . S
C879 C881 1.390 . S
C879 H883 0.950 . S
H880 C876 0.950 . S
C881 C879 1.390 . S
C881 C882 1.387 . S
C881 H884 0.950 . S
C882 C881 1.387 . S
C882 C885 1.387 . S
H883 C879 0.950 . S
H884 C881 0.950 . S
C885 C876 1.390 . S
C885 H878 0.950 . S
C885 C882 1.387 . S
C886 C887 1.387 . S
C886 H890 0.950 . S
C886 C895 1.390 . S
C887 C886 1.387 . S
C887 C889 1.387 . S
H888 C895 0.950 . S
C889 C887 1.387 . S
C889 C891 1.390 . S
C889 H893 0.950 . S
H890 C886 0.950 . S
C891 C889 1.390 . S
C891 C892 1.387 . S
C891 H894 0.950 . S
C892 C891 1.387 . S
C892 C895 1.387 . S
H893 C889 0.950 . S
H894 C891 0.950 . S
C895 C886 1.390 . S
C895 H888 0.950 . S
C895 C892 1.387 . S
C896 C897 1.387 . S
C896 H900 0.931 1_455 S
C896 C905 1.390 . S
C897 C896 1.387 . S
C897 C899 1.387 . S
H898 C905 0.950 1_655 S
C899 C897 1.387 . S
C899 C901 1.390 . S
C899 H903 0.950 . S
H900 C896 0.931 1_655 S
C901 C899 1.390 . S
C901 C902 1.387 . S
C901 H904 0.950 . S
C902 C901 1.387 . S
C902 C905 1.387 . S
H903 C899 0.950 . S
H904 C901 0.950 . S
C905 C896 1.390 . S
C905 H898 0.950 1_455 S
C905 C902 1.387 . S
C906 C907 1.387 . S
C906 H910 0.950 . S
C906 C915 1.390 . S
C907 C906 1.387 . S
C907 C909 1.387 . S
H908 C915 0.950 . S
C909 C907 1.387 . S
C909 C911 1.390 . S
C909 H913 0.950 . S
H910 C906 0.950 . S
C911 C909 1.390 . S
C911 C912 1.387 . S
C911 H914 0.950 . S
C912 C911 1.387 . S
C912 C915 1.387 . S
H913 C909 0.950 . S
H914 C911 0.950 . S
C915 C906 1.390 . S
C915 H908 0.950 . S
C915 C912 1.387 . S
C916 C917 1.387 . S
C916 H920 0.950 . S
C916 C925 1.390 . S
C917 C916 1.387 . S
C917 C919 1.387 . S
H918 C925 0.950 . S
C919 C917 1.387 . S
C919 C921 1.390 . S
C919 H923 0.950 . S
H920 C916 0.950 . S
C921 C919 1.390 . S
C921 C922 1.387 . S
C921 H924 0.950 . S
C922 C921 1.387 . S
C922 C925 1.387 . S
H923 C919 0.950 . S
H924 C921 0.950 . S
C925 C916 1.390 . S
C925 H918 0.950 . S
C925 C922 1.387 . S
C926 C927 1.387 . S
C926 H930 0.950 . S
C926 C935 1.390 . S
C927 C926 1.387 . S
C927 C929 1.387 . S
H928 C935 0.950 . S
C929 C927 1.387 . S
C929 C931 1.390 . S
C929 H933 0.950 . S
H930 C926 0.950 . S
C931 C929 1.390 . S
C931 C932 1.387 . S
C931 H934 0.950 . S
C932 C931 1.387 . S
C932 C935 1.387 . S
H933 C929 0.950 . S
H934 C931 0.950 . S
C935 C926 1.390 . S
C935 H928 0.950 . S
C935 C932 1.387 . S
C936 C937 1.387 . S
C936 H940 0.947 1_455 S
C936 C945 1.390 1_455 S
C937 C936 1.387 . S
C937 C939 1.387 . S
H938 C945 0.950 . S
C939 C937 1.387 . S
C939 C941 1.390 . S
C939 H943 0.950 . S
H940 C936 0.947 1_655 S
C941 C939 1.390 . S
C941 C942 1.387 . S
C941 H944 0.950 . S
C942 C941 1.387 . S
C942 C945 1.387 1_455 S
H943 C939 0.950 . S
H944 C941 0.950 . S
C945 C936 1.390 1_655 S
C945 H938 0.950 . S
C945 C942 1.387 1_655 S
C946 C947 1.387 . S
C946 H950 0.950 . S
C946 C955 1.390 . S
C947 C946 1.387 . S
C947 C949 1.387 . S
H948 C955 0.950 . S
C949 C947 1.387 . S
C949 C951 1.390 . S
C949 H953 0.950 . S
H950 C946 0.950 . S
C951 C949 1.390 . S
C951 C952 1.387 . S
C951 H954 0.950 . S
C952 C951 1.387 . S
C952 C955 1.387 . S
H953 C949 0.950 . S
H954 C951 0.950 . S
C955 C946 1.390 . S
C955 H948 0.950 . S
C955 C952 1.387 . S
C956 C957 1.387 . S
C956 H960 0.950 . S
C956 C965 1.390 . S
C957 C956 1.387 . S
C957 C959 1.387 . S
H958 C965 0.950 . S
C959 C957 1.387 . S
C959 C961 1.390 . S
C959 H963 0.950 . S
H960 C956 0.950 . S
C961 C959 1.390 . S
C961 C962 1.387 . S
C961 H964 0.950 . S
C962 C961 1.387 . S
C962 C965 1.387 . S
H963 C959 0.950 . S
H964 C961 0.950 . S
C965 C956 1.390 . S
C965 H958 0.950 . S
C965 C962 1.387 . S
C966 C967 1.387 . S
C966 H970 0.950 . S
C966 C975 1.390 . S
C967 C966 1.387 . S
C967 C969 1.387 . S
H968 C975 0.950 . S
C969 C967 1.387 . S
C969 C971 1.390 . S
C969 H973 0.950 . S
H970 C966 0.950 . S
C971 C969 1.390 . S
C971 C972 1.387 . S
C971 H974 0.950 . S
C972 C971 1.387 . S
C972 C975 1.387 . S
H973 C969 0.950 . S
H974 C971 0.950 . S
C975 C966 1.390 . S
C975 H968 0.950 . S
C975 C972 1.387 . S
C976 C977 1.387 1_565 S
C976 H980 0.950 . S
C976 C985 1.390 . S
C977 C976 1.387 1_545 S
C977 C979 1.387 . S
H978 C985 0.950 . S
C979 C977 1.387 . S
C979 C981 1.390 . S
C979 H983 0.950 . S
H980 C976 0.950 . S
C981 C979 1.390 . S
C981 C982 1.387 . S
C981 H984 0.950 . S
C982 C981 1.387 . S
C982 C985 1.387 1_545 S
H983 C979 0.950 . S
H984 C981 0.950 . S
C985 C976 1.390 . S
C985 H978 0.950 . S
C985 C982 1.387 1_565 S
C986 C987 1.387 . S
C986 H990 0.950 . S
C986 C995 1.390 . S
C987 C986 1.387 . S
C987 C989 1.387 . S
H988 C995 0.950 . S
C989 C987 1.387 . S
C989 C991 1.390 . S
C989 H993 0.950 . S
H990 C986 0.950 . S
C991 C989 1.390 . S
C991 C992 1.387 . S
C991 H994 0.950 . S
C992 C991 1.387 . S
C992 C995 1.387 . S
H993 C989 0.950 . S
H994 C991 0.950 . S
C995 C986 1.390 . S
C995 H988 0.950 . S
C995 C992 1.387 . S
C996 C997 1.387 . S
C996 H1000 0.950 . S
C996 C1005 1.390 . S
C997 C996 1.387 . S
C997 C999 1.387 1_545 S
H998 C1005 0.950 . S
C999 C997 1.387 1_565 S
C999 C1001 1.390 . S
C999 H1003 0.950 . S
H1000 C996 0.950 . S
C1001 C999 1.390 . S
C1001 C1002 1.387 1_565 S
C1001 H1004 0.950 . S
C1002 C1001 1.387 1_545 S
C1002 C1005 1.387 . S
H1003 C999 0.950 . S
H1004 C1001 0.950 . S
C1005 C996 1.390 . S
C1005 H998 0.950 . S
C1005 C1002 1.387 . S
C1006 C1007 1.387 . S
C1006 H1010 0.950 . S
C1006 C1015 1.390 . S
C1007 C1006 1.387 . S
C1007 C1009 1.387 . S
H1008 C1015 0.950 . S
C1009 C1007 1.387 . S
C1009 C1011 1.390 . S
C1009 H1013 0.950 . S
H1010 C1006 0.950 . S
C1011 C1009 1.390 . S
C1011 C1012 1.387 . S
C1011 H1014 0.950 . S
C1012 C1011 1.387 . S
C1012 C1015 1.387 . S
H1013 C1009 0.950 . S
H1014 C1011 0.950 . S
C1015 C1006 1.390 . S
C1015 H1008 0.950 . S
C1015 C1012 1.387 . S
C1016 C1017 1.387 1_545 S
C1016 H1020 0.950 . S
C1016 C1025 1.390 . S
C1017 C1016 1.387 1_565 S
C1017 C1019 1.387 . S
H1018 C1025 0.950 . S
C1019 C1017 1.387 . S
C1019 C1021 1.390 . S
C1019 H1023 0.950 . S
H1020 C1016 0.950 . S
C1021 C1019 1.390 . S
C1021 C1022 1.387 1_565 S
C1021 H1024 0.950 . S
C1022 C1021 1.387 1_545 S
C1022 C1025 1.387 . S
H1023 C1019 0.950 . S
H1024 C1021 0.950 . S
C1025 C1016 1.390 . S
C1025 H1018 0.950 . S
C1025 C1022 1.387 . S
C1026 C1027 1.387 . S
C1026 H1030 0.950 . S
C1026 C1035 1.390 . S
C1027 C1026 1.387 . S
C1027 C1029 1.387 . S
H1028 C1035 0.950 . S
C1029 C1027 1.387 . S
C1029 C1031 1.390 . S
C1029 H1033 0.950 . S
H1030 C1026 0.950 . S
C1031 C1029 1.390 . S
C1031 C1032 1.387 . S
C1031 H1034 0.950 . S
C1032 C1031 1.387 . S
C1032 C1035 1.387 . S
H1033 C1029 0.950 . S
H1034 C1031 0.950 . S
C1035 C1026 1.390 . S
C1035 H1028 0.950 . S
C1035 C1032 1.387 . S
C1036 C1037 1.387 1_565 S
C1036 H1040 0.950 . S
C1036 C1045 1.390 . S
C1037 C1036 1.387 1_545 S
C1037 C1039 1.387 . S
H1038 C1045 0.950 . S
C1039 C1037 1.387 . S
C1039 C1041 1.390 . S
C1039 H1043 0.950 . S
H1040 C1036 0.950 . S
C1041 C1039 1.390 . S
C1041 C1042 1.387 1_545 S
C1041 H1044 0.950 . S
C1042 C1041 1.387 1_565 S
C1042 C1045 1.387 . S
H1043 C1039 0.950 . S
H1044 C1041 0.950 . S
C1045 C1036 1.390 . S
C1045 H1038 0.950 . S
C1045 C1042 1.387 . S
C1046 C1047 1.387 . S
C1046 H1050 0.950 . S
C1046 C1055 1.390 . S
C1047 C1046 1.387 . S
C1047 C1049 1.387 . S
H1048 C1055 0.950 . S
C1049 C1047 1.387 . S
C1049 C1051 1.390 . S
C1049 H1053 0.950 . S
H1050 C1046 0.950 . S
C1051 C1049 1.390 . S
C1051 C1052 1.387 . S
C1051 H1054 0.950 . S
C1052 C1051 1.387 . S
C1052 C1055 1.387 . S
H1053 C1049 0.950 . S
H1054 C1051 0.950 . S
C1055 C1046 1.390 . S
C1055 H1048 0.950 . S
C1055 C1052 1.387 . S
C1056 C1057 1.387 1_554 S
C1056 H1060 0.950 . S
C1056 C1065 1.390 . S
C1057 C1056 1.387 1_556 S
C1057 C1059 1.387 . S
H1058 C1065 0.950 . S
C1059 C1057 1.387 . S
C1059 C1061 1.390 . S
C1059 H1063 0.950 . S
H1060 C1056 0.950 . S
C1061 C1059 1.390 . S
C1061 C1062 1.387 . S
C1061 H1064 0.950 . S
C1062 C1061 1.387 . S
C1062 C1065 1.387 1_556 S
H1063 C1059 0.950 . S
H1064 C1061 0.950 . S
C1065 C1056 1.390 . S
C1065 H1058 0.950 . S
C1065 C1062 1.387 1_554 S
C1066 C1067 1.387 1_556 S
C1066 H1070 0.950 . S
C1066 C1075 1.390 . S
C1067 C1066 1.387 1_554 S
C1067 C1069 1.387 . S
H1068 C1075 0.950 . S
C1069 C1067 1.387 . S
C1069 C1071 1.390 . S
C1069 H1073 0.950 . S
H1070 C1066 0.950 . S
C1071 C1069 1.390 . S
C1071 C1072 1.387 . S
C1071 H1074 0.950 . S
C1072 C1071 1.387 . S
C1072 C1075 1.387 1_554 S
H1073 C1069 0.950 . S
H1074 C1071 0.950 . S
C1075 C1066 1.390 . S
C1075 H1068 0.950 . S
C1075 C1072 1.387 1_556 S
C1076 C1077 1.387 . S
C1076 H1080 0.950 . S
C1076 C1085 1.390 . S
C1077 C1076 1.387 . S
C1077 C1079 1.387 . S
H1078 C1085 0.950 . S
C1079 C1077 1.387 . S
C1079 C1081 1.390 . S
C1079 H1083 0.950 . S
H1080 C1076 0.950 . S
C1081 C1079 1.390 . S
C1081 C1082 1.387 . S
C1081 H1084 0.950 . S
C1082 C1081 1.387 . S
C1082 C1085 1.387 . S
H1083 C1079 0.950 . S
H1084 C1081 0.950 . S
C1085 C1076 1.390 . S
C1085 H1078 0.950 . S
C1085 C1082 1.387 . S
C1086 C1087 1.387 . S
C1086 H1090 0.950 . S
C1086 C1095 1.390 . S
C1087 C1086 1.387 . S
C1087 C1089 1.387 . S
H1088 C1095 0.950 . S
C1089 C1087 1.387 . S
C1089 C1091 1.390 . S
C1089 H1093 0.950 . S
H1090 C1086 0.950 . S
C1091 C1089 1.390 . S
C1091 C1092 1.387 . S
C1091 H1094 0.950 . S
C1092 C1091 1.387 . S
C1092 C1095 1.387 . S
H1093 C1089 0.950 . S
H1094 C1091 0.950 . S
C1095 C1086 1.390 . S
C1095 H1088 0.950 . S
C1095 C1092 1.387 . S
C1096 C1097 1.387 . S
C1096 H1100 0.950 . S
C1096 C1105 1.390 . S
C1097 C1096 1.387 . S
C1097 C1099 1.387 . S
H1098 C1105 0.950 . S
C1099 C1097 1.387 . S
C1099 C1101 1.390 . S
C1099 H1103 0.950 . S
H1100 C1096 0.950 . S
C1101 C1099 1.390 . S
C1101 C1102 1.387 . S
C1101 H1104 0.950 . S
C1102 C1101 1.387 . S
C1102 C1105 1.387 . S
H1103 C1099 0.950 . S
H1104 C1101 0.950 . S
C1105 C1096 1.390 . S
C1105 H1098 0.950 . S
C1105 C1102 1.387 . S
C1106 C1107 1.387 . S
C1106 H1110 0.950 . S
C1106 C1115 1.390 . S
C1107 C1106 1.387 . S
C1107 C1109 1.387 . S
H1108 C1115 0.950 . S
C1109 C1107 1.387 . S
C1109 C1111 1.390 . S
C1109 H1113 0.950 . S
H1110 C1106 0.950 . S
C1111 C1109 1.390 . S
C1111 C1112 1.387 . S
C1111 H1114 0.950 . S
C1112 C1111 1.387 . S
C1112 C1115 1.387 . S
H1113 C1109 0.950 . S
H1114 C1111 0.950 . S
C1115 C1106 1.390 . S
C1115 H1108 0.950 . S
C1115 C1112 1.387 . S
C1116 C1117 1.387 . S
C1116 H1120 0.950 . S
C1116 C1125 1.390 . S
C1117 C1116 1.387 . S
C1117 C1119 1.387 . S
H1118 C1125 0.950 . S
C1119 C1117 1.387 . S
C1119 C1121 1.390 . S
C1119 H1123 0.950 . S
H1120 C1116 0.950 . S
C1121 C1119 1.390 . S
C1121 C1122 1.387 . S
C1121 H1124 0.950 . S
C1122 C1121 1.387 . S
C1122 C1125 1.387 . S
H1123 C1119 0.950 . S
H1124 C1121 0.950 . S
C1125 C1116 1.390 . S
C1125 H1118 0.950 . S
C1125 C1122 1.387 . S
C1126 C1127 1.387 . S
C1126 H1130 0.950 . S
C1126 C1135 1.390 . S
C1127 C1126 1.387 . S
C1127 C1129 1.387 . S
H1128 C1135 0.950 . S
C1129 C1127 1.387 . S
C1129 C1131 1.390 . S
C1129 H1133 0.950 . S
H1130 C1126 0.950 . S
C1131 C1129 1.390 . S
C1131 C1132 1.387 . S
C1131 H1134 0.950 . S
C1132 C1131 1.387 . S
C1132 C1135 1.387 . S
H1133 C1129 0.950 . S
H1134 C1131 0.950 . S
C1135 C1126 1.390 . S
C1135 H1128 0.950 . S
C1135 C1132 1.387 . S
C1136 C1137 1.387 . S
C1136 H1140 0.950 . S
C1136 C1145 1.390 . S
C1137 C1136 1.387 . S
C1137 C1139 1.387 . S
H1138 C1145 0.950 . S
C1139 C1137 1.387 . S
C1139 C1141 1.390 . S
C1139 H1143 0.950 . S
H1140 C1136 0.950 . S
C1141 C1139 1.390 . S
C1141 C1142 1.387 . S
C1141 H1144 0.950 . S
C1142 C1141 1.387 . S
C1142 C1145 1.387 . S
H1143 C1139 0.950 . S
H1144 C1141 0.950 . S
C1145 C1136 1.390 . S
C1145 H1138 0.950 . S
C1145 C1142 1.387 . S
C1146 C1147 1.387 . S
C1146 H1150 0.950 . S
C1146 C1155 1.390 . S
C1147 C1146 1.387 . S
C1147 C1149 1.387 . S
H1148 C1155 0.950 . S
C1149 C1147 1.387 . S
C1149 C1151 1.390 . S
C1149 H1153 0.950 . S
H1150 C1146 0.950 . S
C1151 C1149 1.390 . S
C1151 C1152 1.387 . S
C1151 H1154 0.950 . S
C1152 C1151 1.387 . S
C1152 C1155 1.387 . S
H1153 C1149 0.950 . S
H1154 C1151 0.950 . S
C1155 C1146 1.390 . S
C1155 H1148 0.950 . S
C1155 C1152 1.387 . S
C1156 C1157 1.387 . S
C1156 H1160 0.950 . S
C1156 C1165 1.390 . S
C1157 C1156 1.387 . S
C1157 C1159 1.387 1_455 S
H1158 C1165 0.950 . S
C1159 C1157 1.387 1_655 S
C1159 C1161 1.390 . S
C1159 H1163 0.950 . S
H1160 C1156 0.950 . S
C1161 C1159 1.390 . S
C1161 C1162 1.387 1_655 S
C1161 H1164 0.950 . S
C1162 C1161 1.387 1_455 S
C1162 C1165 1.387 . S
H1163 C1159 0.950 . S
H1164 C1161 0.950 . S
C1165 C1156 1.390 . S
C1165 H1158 0.950 . S
C1165 C1162 1.387 . S
C1166 C1167 1.387 . S
C1166 H1170 0.950 . S
C1166 C1175 1.390 . S
C1167 C1166 1.387 . S
C1167 C1169 1.387 . S
H1168 C1175 0.950 . S
C1169 C1167 1.387 . S
C1169 C1171 1.390 . S
C1169 H1173 0.950 . S
H1170 C1166 0.950 . S
C1171 C1169 1.390 . S
C1171 C1172 1.387 . S
C1171 H1174 0.950 . S
C1172 C1171 1.387 . S
C1172 C1175 1.387 . S
H1173 C1169 0.950 . S
H1174 C1171 0.950 . S
C1175 C1166 1.390 . S
C1175 H1168 0.950 . S
C1175 C1172 1.387 . S
C1176 C1177 1.387 . S
C1176 H1180 0.950 . S
C1176 C1185 1.390 . S
C1177 C1176 1.387 . S
C1177 C1179 1.387 . S
H1178 C1185 0.950 . S
C1179 C1177 1.387 . S
C1179 C1181 1.390 . S
C1179 H1183 0.950 . S
H1180 C1176 0.950 . S
C1181 C1179 1.390 . S
C1181 C1182 1.387 . S
C1181 H1184 0.950 . S
C1182 C1181 1.387 . S
C1182 C1185 1.387 . S
H1183 C1179 0.950 . S
H1184 C1181 0.950 . S
C1185 C1176 1.390 . S
C1185 H1178 0.950 . S
C1185 C1182 1.387 . S
C1186 C1187 1.387 . S
C1186 H1190 0.950 . S
C1186 C1195 1.390 . S
C1187 C1186 1.387 . S
C1187 C1189 1.387 . S
H1188 C1195 0.950 . S
C1189 C1187 1.387 . S
C1189 C1191 1.390 . S
C1189 H1193 0.950 . S
H1190 C1186 0.950 . S
C1191 C1189 1.390 . S
C1191 C1192 1.387 . S
C1191 H1194 0.950 . S
C1192 C1191 1.387 . S
C1192 C1195 1.387 . S
H1193 C1189 0.950 . S
H1194 C1191 0.950 . S
C1195 C1186 1.390 . S
C1195 H1188 0.950 . S
C1195 C1192 1.387 . S
C1196 C1197 1.387 1_455 S
C1196 H1200 0.950 . S
C1196 C1205 1.390 . S
C1197 C1196 1.387 1_655 S
C1197 C1199 1.387 . S
H1198 C1205 0.950 . S
C1199 C1197 1.387 . S
C1199 C1201 1.390 . S
C1199 H1203 0.950 . S
H1200 C1196 0.950 . S
C1201 C1199 1.390 . S
C1201 C1202 1.387 1_655 S
C1201 H1204 0.950 . S
C1202 C1201 1.387 1_455 S
C1202 C1205 1.387 . S
H1203 C1199 0.950 . S
H1204 C1201 0.950 . S
C1205 C1196 1.390 . S
C1205 H1198 0.950 . S
C1205 C1202 1.387 . S
C1206 C1207 1.387 . S
C1206 H1210 0.950 . S
C1206 C1215 1.390 . S
C1207 C1206 1.387 . S
C1207 C1209 1.387 . S
H1208 C1215 0.950 . S
C1209 C1207 1.387 . S
C1209 C1211 1.390 . S
C1209 H1213 0.950 . S
H1210 C1206 0.950 . S
C1211 C1209 1.390 . S
C1211 C1212 1.387 . S
C1211 H1214 0.950 . S
C1212 C1211 1.387 . S
C1212 C1215 1.387 . S
H1213 C1209 0.950 . S
H1214 C1211 0.950 . S
C1215 C1206 1.390 . S
C1215 H1208 0.950 . S
C1215 C1212 1.387 . S
C1216 C1217 1.387 . S
C1216 H1220 0.950 . S
C1216 C1225 1.390 . S
C1217 C1216 1.387 . S
C1217 C1219 1.387 . S
H1218 C1225 0.950 . S
C1219 C1217 1.387 . S
C1219 C1221 1.390 . S
C1219 H1223 0.950 . S
H1220 C1216 0.950 . S
C1221 C1219 1.390 . S
C1221 C1222 1.387 . S
C1221 H1224 0.950 . S
C1222 C1221 1.387 . S
C1222 C1225 1.387 . S
H1223 C1219 0.950 . S
H1224 C1221 0.950 . S
C1225 C1216 1.390 . S
C1225 H1218 0.950 . S
C1225 C1222 1.387 . S
C1226 C1227 1.387 . S
C1226 H1230 0.950 . S
C1226 C1235 1.390 . S
C1227 C1226 1.387 . S
C1227 C1229 1.387 . S
H1228 C1235 0.950 . S
C1229 C1227 1.387 . S
C1229 C1231 1.390 . S
C1229 H1233 0.950 . S
H1230 C1226 0.950 . S
C1231 C1229 1.390 . S
C1231 C1232 1.387 . S
C1231 H1234 0.950 . S
C1232 C1231 1.387 . S
C1232 C1235 1.387 . S
H1233 C1229 0.950 . S
H1234 C1231 0.950 . S
C1235 C1226 1.390 . S
C1235 H1228 0.950 . S
C1235 C1232 1.387 . S
C1236 C1237 1.387 . S
C1236 H1240 0.950 . S
C1236 C1245 1.390 . S
C1237 C1236 1.387 . S
C1237 C1239 1.387 . S
H1238 C1245 0.950 . S
C1239 C1237 1.387 . S
C1239 C1241 1.390 . S
C1239 H1243 0.950 . S
H1240 C1236 0.950 . S
C1241 C1239 1.390 . S
C1241 C1242 1.387 . S
C1241 H1244 0.950 . S
C1242 C1241 1.387 . S
C1242 C1245 1.387 . S
H1243 C1239 0.950 . S
H1244 C1241 0.950 . S
C1245 C1236 1.390 . S
C1245 H1238 0.950 . S
C1245 C1242 1.387 . S
C1246 C1247 1.387 . S
C1246 H1250 0.950 . S
C1246 C1255 1.390 . S
C1247 C1246 1.387 . S
C1247 C1249 1.387 . S
H1248 C1255 0.950 . S
C1249 C1247 1.387 . S
C1249 C1251 1.390 . S
C1249 H1253 0.950 . S
H1250 C1246 0.950 . S
C1251 C1249 1.390 . S
C1251 C1252 1.387 . S
C1251 H1254 0.950 . S
C1252 C1251 1.387 . S
C1252 C1255 1.387 . S
H1253 C1249 0.950 . S
H1254 C1251 0.950 . S
C1255 C1246 1.390 . S
C1255 H1248 0.950 . S
C1255 C1252 1.387 . S
C1256 C1257 1.387 . S
C1256 H1260 0.950 . S
C1256 C1265 1.390 . S
C1257 C1256 1.387 . S
C1257 C1259 1.387 . S
H1258 C1265 0.950 . S
C1259 C1257 1.387 . S
C1259 C1261 1.390 . S
C1259 H1263 0.950 . S
H1260 C1256 0.950 . S
C1261 C1259 1.390 . S
C1261 C1262 1.387 . S
C1261 H1264 0.950 . S
C1262 C1261 1.387 . S
C1262 C1265 1.387 . S
H1263 C1259 0.950 . S
H1264 C1261 0.950 . S
C1265 C1256 1.390 . S
C1265 H1258 0.950 . S
C1265 C1262 1.387 . S
C1266 C1267 1.387 . S
C1266 H1270 0.950 . S
C1266 C1275 1.390 . S
C1267 C1266 1.387 . S
C1267 C1269 1.387 . S
H1268 C1275 0.950 . S
C1269 C1267 1.387 . S
C1269 C1271 1.390 . S
C1269 H1273 0.950 . S
H1270 C1266 0.950 . S
C1271 C1269 1.390 . S
C1271 C1272 1.387 . S
C1271 H1274 0.950 . S
C1272 C1271 1.387 . S
C1272 C1275 1.387 . S
H1273 C1269 0.950 . S
H1274 C1271 0.950 . S
C1275 C1266 1.390 . S
C1275 H1268 0.950 . S
C1275 C1272 1.387 . S
C1276 C1277 1.387 . S
C1276 H1280 0.950 . S
C1276 C1285 1.390 . S
C1277 C1276 1.387 . S
C1277 C1279 1.387 . S
H1278 C1285 0.950 . S
C1279 C1277 1.387 . S
C1279 C1281 1.390 . S
C1279 H1283 0.950 . S
H1280 C1276 0.950 . S
C1281 C1279 1.390 . S
C1281 C1282 1.387 . S
C1281 H1284 0.950 . S
C1282 C1281 1.387 . S
C1282 C1285 1.387 . S
H1283 C1279 0.950 . S
H1284 C1281 0.950 . S
C1285 C1276 1.390 . S
C1285 H1278 0.950 . S
C1285 C1282 1.387 . S
C1286 C1287 1.387 . S
C1286 H1290 0.950 . S
C1286 C1295 1.390 . S
C1287 C1286 1.387 . S
C1287 C1289 1.387 . S
H1288 C1295 0.950 . S
C1289 C1287 1.387 . S
C1289 C1291 1.390 . S
C1289 H1293 0.950 . S
H1290 C1286 0.950 . S
C1291 C1289 1.390 . S
C1291 C1292 1.387 . S
C1291 H1294 0.950 . S
C1292 C1291 1.387 . S
C1292 C1295 1.387 . S
H1293 C1289 0.950 . S
H1294 C1291 0.950 . S
C1295 C1286 1.390 . S
C1295 H1288 0.950 . S
C1295 C1292 1.387 . S
C1296 C1297 1.387 . S
C1296 H1300 0.950 . S
C1296 C1305 1.390 . S
C1297 C1296 1.387 . S
C1297 C1299 1.387 . S
H1298 C1305 0.950 . S
C1299 C1297 1.387 . S
C1299 C1301 1.390 . S
C1299 H1303 0.950 . S
H1300 C1296 0.950 . S
C1301 C1299 1.390 . S
C1301 C1302 1.387 . S
C1301 H1304 0.950 . S
C1302 C1301 1.387 . S
C1302 C1305 1.387 . S
H1303 C1299 0.950 . S
H1304 C1301 0.950 . S
C1305 C1296 1.390 . S
C1305 H1298 0.950 . S
C1305 C1302 1.387 . S
C1306 C1307 1.387 . S
C1306 H1310 0.950 . S
C1306 C1315 1.390 . S
C1307 C1306 1.387 . S
C1307 C1309 1.387 . S
H1308 C1315 0.950 . S
C1309 C1307 1.387 . S
C1309 C1311 1.390 . S
C1309 H1313 0.950 . S
H1310 C1306 0.950 . S
C1311 C1309 1.390 . S
C1311 C1312 1.387 . S
C1311 H1314 0.950 . S
C1312 C1311 1.387 . S
C1312 C1315 1.387 . S
H1313 C1309 0.950 . S
H1314 C1311 0.950 . S
C1315 C1306 1.390 . S
C1315 H1308 0.950 . S
C1315 C1312 1.387 . S
C1316 C1317 1.387 . S
C1316 H1320 0.950 . S
C1316 C1325 1.390 . S
C1317 C1316 1.387 . S
C1317 C1319 1.387 . S
H1318 C1325 0.950 . S
C1319 C1317 1.387 . S
C1319 C1321 1.390 . S
C1319 H1323 0.950 . S
H1320 C1316 0.950 . S
C1321 C1319 1.390 . S
C1321 C1322 1.387 . S
C1321 H1324 0.950 . S
C1322 C1321 1.387 . S
C1322 C1325 1.387 . S
H1323 C1319 0.950 . S
H1324 C1321 0.950 . S
C1325 C1316 1.390 . S
C1325 H1318 0.950 . S
C1325 C1322 1.387 . S
C1326 C1327 1.387 . S
C1326 H1330 0.950 . S
C1326 C1335 1.390 . S
C1327 C1326 1.387 . S
C1327 C1329 1.387 1_554 S
H1328 C1335 0.950 . S
C1329 C1327 1.387 1_556 S
C1329 C1331 1.390 . S
C1329 H1333 0.950 . S
H1330 C1326 0.950 . S
C1331 C1329 1.390 . S
C1331 C1332 1.387 1_556 S
C1331 H1334 0.950 . S
C1332 C1331 1.387 1_554 S
C1332 C1335 1.387 . S
H1333 C1329 0.950 . S
H1334 C1331 0.950 . S
C1335 C1326 1.390 . S
C1335 H1328 0.950 . S
C1335 C1332 1.387 . S
C1336 C1337 1.387 . S
C1336 H1340 0.950 . S
C1336 C1345 1.390 . S
C1337 C1336 1.387 . S
C1337 C1339 1.387 . S
H1338 C1345 0.950 . S
C1339 C1337 1.387 . S
C1339 C1341 1.390 . S
C1339 H1343 0.950 . S
H1340 C1336 0.950 . S
C1341 C1339 1.390 . S
C1341 C1342 1.387 . S
C1341 H1344 0.950 . S
C1342 C1341 1.387 . S
C1342 C1345 1.387 . S
H1343 C1339 0.950 . S
H1344 C1341 0.950 . S
C1345 C1336 1.390 . S
C1345 H1338 0.950 . S
C1345 C1342 1.387 . S
C1346 C1347 1.387 1_556 S
C1346 H1350 0.950 . S
C1346 C1355 1.390 . S
C1347 C1346 1.387 1_554 S
C1347 C1349 1.387 . S
H1348 C1355 0.950 . S
C1349 C1347 1.387 . S
C1349 C1351 1.390 . S
C1349 H1353 0.950 . S
H1350 C1346 0.950 . S
C1351 C1349 1.390 . S
C1351 C1352 1.387 . S
C1351 H1354 0.950 . S
C1352 C1351 1.387 . S
C1352 C1355 1.387 1_554 S
H1353 C1349 0.950 . S
H1354 C1351 0.950 . S
C1355 C1346 1.390 . S
C1355 H1348 0.950 . S
C1355 C1352 1.387 1_556 S
C1356 C1357 1.387 . S
C1356 H1360 0.950 . S
C1356 C1365 1.390 . S
C1357 C1356 1.387 . S
C1357 C1359 1.387 . S
H1358 C1365 0.950 . S
C1359 C1357 1.387 . S
C1359 C1361 1.390 . S
C1359 H1363 0.950 . S
H1360 C1356 0.950 . S
C1361 C1359 1.390 . S
C1361 C1362 1.387 . S
C1361 H1364 0.950 . S
C1362 C1361 1.387 . S
C1362 C1365 1.387 . S
H1363 C1359 0.950 . S
H1364 C1361 0.950 . S
C1365 C1356 1.390 . S
C1365 H1358 0.950 . S
C1365 C1362 1.387 . S
C1366 C1367 1.387 . S
C1366 H1370 0.950 . S
C1366 C1375 1.390 . S
C1367 C1366 1.387 . S
C1367 C1369 1.387 . S
H1368 C1375 0.950 . S
C1369 C1367 1.387 . S
C1369 C1371 1.390 . S
C1369 H1373 0.950 . S
H1370 C1366 0.950 . S
C1371 C1369 1.390 . S
C1371 C1372 1.387 . S
C1371 H1374 0.950 . S
C1372 C1371 1.387 . S
C1372 C1375 1.387 . S
H1373 C1369 0.950 . S
H1374 C1371 0.950 . S
C1375 C1366 1.390 . S
C1375 H1368 0.950 . S
C1375 C1372 1.387 . S
C1376 C1377 1.387 . S
C1376 H1380 0.950 . S
C1376 C1385 1.390 . S
C1377 C1376 1.387 . S
C1377 C1379 1.387 . S
H1378 C1385 0.950 . S
C1379 C1377 1.387 . S
C1379 C1381 1.390 . S
C1379 H1383 0.950 . S
H1380 C1376 0.950 . S
C1381 C1379 1.390 . S
C1381 C1382 1.387 . S
C1381 H1384 0.950 . S
C1382 C1381 1.387 . S
C1382 C1385 1.387 . S
H1383 C1379 0.950 . S
H1384 C1381 0.950 . S
C1385 C1376 1.390 . S
C1385 H1378 0.950 . S
C1385 C1382 1.387 . S
C1386 C1387 1.387 . S
C1386 H1390 0.950 . S
C1386 C1395 1.390 . S
C1387 C1386 1.387 . S
C1387 C1389 1.387 . S
H1388 C1395 0.950 . S
C1389 C1387 1.387 . S
C1389 C1391 1.390 . S
C1389 H1393 0.950 . S
H1390 C1386 0.950 . S
C1391 C1389 1.390 . S
C1391 C1392 1.387 . S
C1391 H1394 0.950 . S
C1392 C1391 1.387 . S
C1392 C1395 1.387 . S
H1393 C1389 0.950 . S
H1394 C1391 0.950 . S
C1395 C1386 1.390 . S
C1395 H1388 0.950 . S
C1395 C1392 1.387 . S
C1396 C1397 1.387 . S
C1396 H1400 0.950 1_455 S
C1396 C1405 1.390 . S
C1397 C1396 1.387 . S
C1397 C1399 1.387 . S
H1398 C1405 0.950 1_655 S
C1399 C1397 1.387 . S
C1399 C1401 1.390 . S
C1399 H1403 0.950 . S
H1400 C1396 0.950 1_655 S
C1401 C1399 1.390 . S
C1401 C1402 1.387 . S
C1401 H1404 0.950 . S
C1402 C1401 1.387 . S
C1402 C1405 1.387 . S
H1403 C1399 0.950 . S
H1404 C1401 0.950 . S
C1405 C1396 1.390 . S
C1405 H1398 0.950 1_455 S
C1405 C1402 1.387 . S
C1406 C1407 1.387 . S
C1406 H1410 0.950 . S
C1406 C1415 1.390 . S
C1407 C1406 1.387 . S
C1407 C1409 1.387 . S
H1408 C1415 0.950 . S
C1409 C1407 1.387 . S
C1409 C1411 1.390 . S
C1409 H1413 0.950 . S
H1410 C1406 0.950 . S
C1411 C1409 1.390 . S
C1411 C1412 1.387 . S
C1411 H1414 0.950 . S
C1412 C1411 1.387 . S
C1412 C1415 1.387 . S
H1413 C1409 0.950 . S
H1414 C1411 0.950 . S
C1415 C1406 1.390 . S
C1415 H1408 0.950 . S
C1415 C1412 1.387 . S
C1416 C1417 1.387 . S
C1416 H1420 0.950 . S
C1416 C1425 1.390 . S
C1417 C1416 1.387 . S
C1417 C1419 1.387 . S
H1418 C1425 0.950 . S
C1419 C1417 1.387 . S
C1419 C1421 1.390 . S
C1419 H1423 0.950 . S
H1420 C1416 0.950 . S
C1421 C1419 1.390 . S
C1421 C1422 1.387 . S
C1421 H1424 0.950 . S
C1422 C1421 1.387 . S
C1422 C1425 1.387 . S
H1423 C1419 0.950 . S
H1424 C1421 0.950 . S
C1425 C1416 1.390 . S
C1425 H1418 0.950 . S
C1425 C1422 1.387 . S
C1426 C1427 1.387 . S
C1426 H1430 0.950 . S
C1426 C1435 1.390 . S
C1427 C1426 1.387 . S
C1427 C1429 1.387 . S
H1428 C1435 0.950 . S
C1429 C1427 1.387 . S
C1429 C1431 1.390 . S
C1429 H1433 0.950 . S
H1430 C1426 0.950 . S
C1431 C1429 1.390 . S
C1431 C1432 1.387 . S
C1431 H1434 0.950 . S
C1432 C1431 1.387 . S
C1432 C1435 1.387 . S
H1433 C1429 0.950 . S
H1434 C1431 0.950 . S
C1435 C1426 1.390 . S
C1435 H1428 0.950 . S
C1435 C1432 1.387 . S
C1436 C1437 1.387 . S
C1436 H1440 0.950 . S
C1436 C1445 1.390 . S
C1437 C1436 1.387 . S
C1437 C1439 1.387 . S
H1438 C1445 0.950 . S
C1439 C1437 1.387 . S
C1439 C1441 1.390 . S
C1439 H1443 0.950 . S
H1440 C1436 0.950 . S
C1441 C1439 1.390 . S
C1441 C1442 1.387 . S
C1441 H1444 0.950 . S
C1442 C1441 1.387 . S
C1442 C1445 1.387 . S
H1443 C1439 0.950 . S
H1444 C1441 0.950 . S
C1445 C1436 1.390 . S
C1445 H1438 0.950 . S
C1445 C1442 1.387 . S
C1446 C1447 1.387 . S
C1446 H1450 0.950 . S
C1446 C1455 1.390 . S
C1447 C1446 1.387 . S
C1447 C1449 1.387 . S
H1448 C1455 0.950 . S
C1449 C1447 1.387 . S
C1449 C1451 1.390 . S
C1449 H1453 0.950 . S
H1450 C1446 0.950 . S
C1451 C1449 1.390 . S
C1451 C1452 1.387 . S
C1451 H1454 0.950 . S
C1452 C1451 1.387 . S
C1452 C1455 1.387 . S
H1453 C1449 0.950 . S
H1454 C1451 0.950 . S
C1455 C1446 1.390 . S
C1455 H1448 0.950 . S
C1455 C1452 1.387 . S
C1456 C1457 1.387 . S
C1456 H1460 0.950 . S
C1456 C1465 1.390 . S
C1457 C1456 1.387 . S
C1457 C1459 1.387 . S
H1458 C1465 0.950 . S
C1459 C1457 1.387 . S
C1459 C1461 1.390 . S
C1459 H1463 0.950 . S
H1460 C1456 0.950 . S
C1461 C1459 1.390 . S
C1461 C1462 1.387 . S
C1461 H1464 0.950 . S
C1462 C1461 1.387 . S
C1462 C1465 1.387 . S
H1463 C1459 0.950 . S
H1464 C1461 0.950 . S
C1465 C1456 1.390 . S
C1465 H1458 0.950 . S
C1465 C1462 1.387 . S
C1466 C1467 1.387 . S
C1466 H1470 0.950 . S
C1466 C1475 1.390 . S
C1467 C1466 1.387 . S
C1467 C1469 1.387 . S
H1468 C1475 0.950 . S
C1469 C1467 1.387 . S
C1469 C1471 1.390 . S
C1469 H1473 0.950 . S
H1470 C1466 0.950 . S
C1471 C1469 1.390 . S
C1471 C1472 1.387 . S
C1471 H1474 0.950 . S
C1472 C1471 1.387 . S
C1472 C1475 1.387 . S
H1473 C1469 0.950 . S
H1474 C1471 0.950 . S
C1475 C1466 1.390 . S
C1475 H1468 0.950 . S
C1475 C1472 1.387 . S
C1476 C1477 1.387 . S
C1476 H1480 0.950 . S
C1476 C1485 1.390 . S
C1477 C1476 1.387 . S
C1477 C1479 1.387 . S
H1478 C1485 0.950 . S
C1479 C1477 1.387 . S
C1479 C1481 1.390 . S
C1479 H1483 0.950 . S
H1480 C1476 0.950 . S
C1481 C1479 1.390 . S
C1481 C1482 1.387 . S
C1481 H1484 0.950 . S
C1482 C1481 1.387 . S
C1482 C1485 1.387 . S
H1483 C1479 0.950 . S
H1484 C1481 0.950 . S
C1485 C1476 1.390 . S
C1485 H1478 0.950 . S
C1485 C1482 1.387 . S
C1486 C1487 1.387 . S
C1486 H1490 0.950 . S
C1486 C1495 1.390 . S
C1487 C1486 1.387 . S
C1487 C1489 1.387 . S
H1488 C1495 0.950 . S
C1489 C1487 1.387 . S
C1489 C1491 1.390 . S
C1489 H1493 0.950 . S
H1490 C1486 0.950 . S
C1491 C1489 1.390 . S
C1491 C1492 1.387 . S
C1491 H1494 0.950 . S
C1492 C1491 1.387 . S
C1492 C1495 1.387 . S
H1493 C1489 0.950 . S
H1494 C1491 0.950 . S
C1495 C1486 1.390 . S
C1495 H1488 0.950 . S
C1495 C1492 1.387 . S
C1496 C1497 1.387 . S
C1496 H1500 0.950 . S
C1496 C1505 1.390 . S
C1497 C1496 1.387 . S
C1497 C1499 1.387 . S
H1498 C1505 0.950 . S
C1499 C1497 1.387 . S
C1499 C1501 1.390 . S
C1499 H1503 0.950 . S
H1500 C1496 0.950 . S
C1501 C1499 1.390 . S
C1501 C1502 1.387 . S
C1501 H1504 0.950 . S
C1502 C1501 1.387 . S
C1502 C1505 1.387 . S
H1503 C1499 0.950 . S
H1504 C1501 0.950 . S
C1505 C1496 1.390 . S
C1505 H1498 0.950 . S
C1505 C1502 1.387 . S
C1506 C1507 1.387 . S
C1506 H1510 0.950 . S
C1506 C1515 1.390 . S
C1507 C1506 1.387 . S
C1507 C1509 1.387 . S
H1508 C1515 0.950 . S
C1509 C1507 1.387 . S
C1509 C1511 1.390 . S
C1509 H1513 0.950 . S
H1510 C1506 0.950 . S
C1511 C1509 1.390 . S
C1511 C1512 1.387 . S
C1511 H1514 0.950 . S
C1512 C1511 1.387 . S
C1512 C1515 1.387 . S
H1513 C1509 0.950 . S
H1514 C1511 0.950 . S
C1515 C1506 1.390 . S
C1515 H1508 0.950 . S
C1515 C1512 1.387 . S
C1516 C1517 1.387 . S
C1516 H1520 0.950 . S
C1516 C1525 1.390 . S
C1517 C1516 1.387 . S
C1517 C1519 1.387 . S
H1518 C1525 0.950 . S
C1519 C1517 1.387 . S
C1519 C1521 1.390 . S
C1519 H1523 0.950 . S
H1520 C1516 0.950 . S
C1521 C1519 1.390 . S
C1521 C1522 1.387 . S
C1521 H1524 0.950 . S
C1522 C1521 1.387 . S
C1522 C1525 1.387 . S
H1523 C1519 0.950 . S
H1524 C1521 0.950 . S
C1525 C1516 1.390 . S
C1525 H1518 0.950 . S
C1525 C1522 1.387 . S
C1526 C1527 1.387 . S
C1526 H1530 0.950 . S
C1526 C1535 1.390 . S
C1527 C1526 1.387 . S
C1527 C1529 1.387 . S
H1528 C1535 0.950 . S
C1529 C1527 1.387 . S
C1529 C1531 1.390 . S
C1529 H1533 0.950 . S
H1530 C1526 0.950 . S
C1531 C1529 1.390 . S
C1531 C1532 1.387 . S
C1531 H1534 0.950 . S
C1532 C1531 1.387 . S
C1532 C1535 1.387 . S
H1533 C1529 0.950 . S
H1534 C1531 0.950 . S
C1535 C1526 1.390 . S
C1535 H1528 0.950 . S
C1535 C1532 1.387 . S
C1536 C1537 1.387 . S
C1536 H1540 0.950 . S
C1536 C1545 1.390 . S
C1537 C1536 1.387 . S
C1537 C1539 1.387 . S
H1538 C1545 0.950 . S
C1539 C1537 1.387 . S
C1539 C1541 1.390 . S
C1539 H1543 0.950 . S
H1540 C1536 0.950 . S
C1541 C1539 1.390 . S
C1541 C1542 1.387 . S
C1541 H1544 0.950 . S
C1542 C1541 1.387 . S
C1542 C1545 1.387 . S
H1543 C1539 0.950 . S
H1544 C1541 0.950 . S
C1545 C1536 1.390 . S
C1545 H1538 0.950 . S
C1545 C1542 1.387 . S
C1546 C1547 1.387 . S
C1546 H1550 0.950 . S
C1546 C1555 1.390 . S
C1547 C1546 1.387 . S
C1547 C1549 1.387 . S
H1548 C1555 0.950 . S
C1549 C1547 1.387 . S
C1549 C1551 1.390 . S
C1549 H1553 0.950 . S
H1550 C1546 0.950 . S
C1551 C1549 1.390 . S
C1551 C1552 1.387 . S
C1551 H1554 0.950 . S
C1552 C1551 1.387 . S
C1552 C1555 1.387 . S
H1553 C1549 0.950 . S
H1554 C1551 0.950 . S
C1555 C1546 1.390 . S
C1555 H1548 0.950 . S
C1555 C1552 1.387 . S
C1556 C1557 1.387 . S
C1556 H1560 0.950 . S
C1556 C1565 1.390 . S
C1557 C1556 1.387 . S
C1557 C1559 1.387 . S
H1558 C1565 0.950 . S
C1559 C1557 1.387 . S
C1559 C1561 1.390 . S
C1559 H1563 0.950 . S
H1560 C1556 0.950 . S
C1561 C1559 1.390 . S
C1561 C1562 1.387 . S
C1561 H1564 0.950 . S
C1562 C1561 1.387 . S
C1562 C1565 1.387 . S
H1563 C1559 0.950 . S
H1564 C1561 0.950 . S
C1565 C1556 1.390 . S
C1565 H1558 0.950 . S
C1565 C1562 1.387 . S
C1566 C1567 1.406 . S
C1566 H1570 0.950 . S
C1566 C1575 1.390 . S
C1567 C1566 1.406 . S
C1567 C1569 1.365 1_556 S
H1568 C1575 0.950 . S
C1569 C1567 1.365 1_554 S
C1569 C1571 1.390 . S
C1569 H1573 0.950 . S
H1570 C1566 0.950 . S
C1571 C1569 1.390 . S
C1571 C1572 1.387 . S
C1571 H1574 0.950 . S
C1572 C1571 1.387 . S
C1572 C1575 1.387 1_554 S
H1573 C1569 0.950 . S
H1574 C1571 0.950 . S
C1575 C1566 1.390 . S
C1575 H1568 0.950 . S
C1575 C1572 1.387 1_556 S
C1576 C1577 1.387 . S
C1576 H1580 0.950 . S
C1576 C1585 1.390 . S
C1577 C1576 1.387 . S
C1577 C1579 1.387 . S
H1578 C1585 0.950 . S
C1579 C1577 1.387 . S
C1579 C1581 1.390 . S
C1579 H1583 0.950 . S
H1580 C1576 0.950 . S
C1581 C1579 1.390 . S
C1581 C1582 1.387 . S
C1581 H1584 0.950 . S
C1582 C1581 1.387 . S
C1582 C1585 1.387 . S
H1583 C1579 0.950 . S
H1584 C1581 0.950 . S
C1585 C1576 1.390 . S
C1585 H1578 0.950 . S
C1585 C1582 1.387 . S
C1586 C1587 1.387 . S
C1586 H1590 0.950 . S
C1586 C1595 1.390 . S
C1587 C1586 1.387 . S
C1587 C1589 1.387 1_554 S
H1588 C1595 0.950 . S
C1589 C1587 1.387 1_556 S
C1589 C1591 1.390 . S
C1589 H1593 0.950 . S
H1590 C1586 0.950 . S
C1591 C1589 1.390 . S
C1591 C1592 1.387 . S
C1591 H1594 0.950 . S
C1592 C1591 1.387 . S
C1592 C1595 1.387 1_556 S
H1593 C1589 0.950 . S
H1594 C1591 0.950 . S
C1595 C1586 1.390 . S
C1595 H1588 0.950 . S
C1595 C1592 1.387 1_554 S
C1596 C1597 1.387 . S
C1596 H1600 0.950 . S
C1596 C1605 1.390 . S
C1597 C1596 1.387 . S
C1597 C1599 1.387 . S
H1598 C1605 0.950 . S
C1599 C1597 1.387 . S
C1599 C1601 1.390 . S
C1599 H1603 0.950 . S
H1600 C1596 0.950 . S
C1601 C1599 1.390 . S
C1601 C1602 1.387 . S
C1601 H1604 0.950 . S
C1602 C1601 1.387 . S
C1602 C1605 1.387 . S
H1603 C1599 0.950 . S
H1604 C1601 0.950 . S
C1605 C1596 1.390 . S
C1605 H1598 0.950 . S
C1605 C1602 1.387 . S
C1606 C1607 1.387 . S
C1606 H1610 0.950 . S
C1606 C1615 1.390 . S
C1607 C1606 1.387 . S
C1607 C1609 1.387 . S
H1608 C1615 0.950 . S
C1609 C1607 1.387 . S
C1609 C1611 1.390 . S
C1609 H1613 0.950 . S
H1610 C1606 0.950 . S
C1611 C1609 1.390 . S
C1611 C1612 1.387 . S
C1611 H1614 0.950 . S
C1612 C1611 1.387 . S
C1612 C1615 1.387 . S
H1613 C1609 0.950 . S
H1614 C1611 0.950 . S
C1615 C1606 1.390 . S
C1615 H1608 0.950 . S
C1615 C1612 1.387 . S
C657 C109 1.630 . S
C662 C354 1.578 . S
C667 C65 1.684 . S
C672 C365 1.690 . S
C677 C75 1.231 . S
C682 C394 1.178 . S
C692 C397 1.466 . S
C687 C84 1.462 . S
C697 C25 1.645 . S
C702 C435 1.577 . S
C712 C438 1.197 . S
C707 C28 1.161 . S
C722 C465 1.568 . S
C717 C47 1.559 . S
C727 C9 1.761 . S
C732 C494 1.653 . S
C742 C345 1.701 1_655 S
C737 C233 1.699 . S
C747 C249 1.087 . S
C752 C357 1.081 . S
C762 C385 1.592 . S
C757 C275 1.598 . S
C772 C414 1.268 . S
C767 C173 1.290 . S
C777 C224 1.208 . S
C782 C418 1.256 . S
C792 C444 1.604 . S
C787 C243 1.624 . S
C802 C457 0.923 . S
C797 C266 0.927 . S
C812 C485 1.614 . S
C807 C179 1.617 . S
C822 C337 1.579 1_565 S
C817 C163 1.602 . S
C827 C289 1.736 1_554 S
C832 C504 1.703 . S
C842 C535 1.571 . S
C837 C333 1.639 . S
C852 C554 1.025 . S
C847 C308 1.042 . S
C857 C123 1.455 . S
C862 C477 1.467 . S
C867 C126 1.566 . S
C872 C377 1.591 . S
C877 C327 1.617 . S
C882 C565 1.616 . S
C892 C594 1.114 . S
C887 C299 1.171 . S
C902 C355 1.588 . S
C897 C67 1.637 . S
C912 C584 1.695 . S
C907 C98 1.654 . S
C917 C89 1.240 . S
C922 C395 1.189 . S
C927 C79 1.512 . S
C932 C558 1.494 . S
C942 C434 1.589 . S
C937 C11 1.664 . S
C947 C51 1.207 . S
C952 C517 1.201 . S
C962 C464 1.597 . S
C957 C33 1.591 . S
C972 C615 1.643 . S
C967 C14 1.726 . S
C982 C344 1.671 . S
C977 C140 1.650 . S
C992 C578 1.084 . S
C987 C319 1.104 . S
C997 C112 1.592 . S
C1002 C384 1.598 . S
C1007 C285 1.305 . S
C1012 C575 1.289 . S
C1017 C149 1.257 . S
C1022 C417 1.260 . S
C1032 C525 1.620 . S
C1027 C313 1.642 . S
C1037 C121 0.977 . S
C1042 C458 0.959 . S
C1047 C291 1.635 . S
C1052 C604 1.630 . S
C1057 C182 1.603 1_556 S
C1062 C338 1.564 . S
C1067 C168 1.712 . S
C1072 C505 1.705 . S
C1077 C263 1.673 . S
C1082 C454 1.593 . S
C1087 C247 1.089 . S
C1092 C555 1.066 . S
C1102 C598 1.456 . S
C1097 C277 1.464 . S
C1107 C219 1.624 . S
C1112 C378 1.599 . S
C1122 C404 1.644 . S
C1117 C257 1.647 . S
C1132 C375 1.104 . S
C1127 C201 1.155 . S
C1137 C81 1.622 . S
C1142 C634 1.580 . S
C1152 C585 1.690 . S
C1147 C93 1.684 . S
C1157 C103 1.229 . S
C1162 C654 1.174 . S
C1167 C56 1.462 . S
C1172 C557 1.466 . S
C1177 C53 1.644 . S
C1182 C515 1.576 . S
C1192 C518 1.200 . S
C1187 C0 1.165 . S
C1202 C545 1.569 . S
C1197 C19 1.554 . S
C1212 C614 1.653 . S
C1207 C37 1.761 . S
C1222 C625 1.701 . S
C1217 C261 1.698 . S
C1227 C193 1.088 . S
C1232 C577 1.081 . S
C1242 C645 1.591 . S
C1237 C205 1.598 . S
C1252 C574 1.270 . S
C1247 C215 1.289 . S
C1262 C498 1.254 . S
C1257 C252 1.204 . S
C1267 C187 1.624 . S
C1272 C524 1.604 . S
C1282 C537 0.920 . S
C1277 C196 0.928 . S
C1287 C221 1.616 . S
C1292 C605 1.615 . S
C1302 C617 1.578 . S
C1297 C317 1.601 . S
C1307 C135 1.738 . S
C1312 C424 1.704 . S
C1322 C455 1.569 . S
C1317 C151 1.642 . S
C1332 C474 1.024 . S
C1327 C154 1.042 . S
C1342 C597 1.467 . S
C1337 C305 1.456 . S
C1347 C280 1.564 . S
C1352 C637 1.590 . S
C1362 C405 1.617 . S
C1357 C145 1.614 . S
C1372 C374 1.119 . S
C1367 C117 1.174 . S
C1377 C95 1.637 . S
C1382 C635 1.589 . S
C1392 C364 1.695 . S
C1387 C70 1.653 . S
C1397 C61 1.241 . S
C1402 C655 1.193 . S
C1407 C107 1.512 . S
C1412 C398 1.492 . S
C1417 C39 1.665 . S
C1422 C514 1.592 . S
C1432 C437 1.201 . S
C1427 C23 1.207 . S
C1437 C5 1.589 . S
C1442 C544 1.597 . S
C1447 C42 1.727 . S
C1452 C495 1.646 . S
C1462 C624 1.671 . S
C1457 C322 1.652 . S
C1467 C165 1.104 . S
C1472 C358 1.084 . S
C1482 C644 1.598 1_655 S
C1477 C294 1.592 . S
C1487 C131 1.306 . S
C1492 C415 1.288 . S
C1497 C331 1.256 . S
C1502 C497 1.262 . S
C1512 C445 1.619 . S
C1507 C159 1.642 . S
C1517 C303 0.978 . S
C1522 C538 0.960 . S
C1532 C484 1.631 . S
C1527 C137 1.635 . S
C1542 C618 1.563 . S
C1537 C238 1.602 . S
C1552 C425 1.704 1_565 S
C1547 C210 1.712 . S
C1557 C235 1.673 . S
C1562 C534 1.594 . S
C1572 C475 1.066 . S
C1567 C191 1.092 . S
C1577 C207 1.464 . S
C1582 C478 1.456 . S
C1587 C177 1.625 . S
C1592 C638 1.599 . S
C1602 C564 1.644 . S
C1597 C229 1.647 . S
C1612 C595 1.109 . S
C1607 C271 1.157 . S
