# Generated by pormake.
# Topology pyr, (3,6)-cn, num edge types: 1
# Building blocks:
#     Node 0, Type 0, BuildingBlock: OLANEW_clean_sbu_2, # of connection points: 3
#     Node 1, Type 0, BuildingBlock: OLANEW_clean_sbu_2, # of connection points: 3
#     Node 2, Type 0, BuildingBlock: OLANEW_clean_sbu_2, # of connection points: 3
#     Node 3, Type 0, BuildingBlock: OLANEW_clean_sbu_2, # of connection points: 3
#     Node 4, Type 0, BuildingBlock: OLANEW_clean_sbu_2, # of connection points: 3
#     Node 5, Type 0, BuildingBlock: OLANEW_clean_sbu_2, # of connection points: 3
#     Node 6, Type 0, BuildingBlock: OLANEW_clean_sbu_2, # of connection points: 3
#     Node 7, Type 0, BuildingBlock: OLANEW_clean_sbu_2, # of connection points: 3
#     Node 8, Type 1, BuildingBlock: FUNLAD_clean_sbu_0, # of connection points: 6
#     Node 9, Type 1, BuildingBlock: FUNLAD_clean_sbu_0, # of connection points: 6
#     Node 10, Type 1, BuildingBlock: FUNLAD_clean_sbu_0, # of connection points: 6
#     Node 11, Type 1, BuildingBlock: FUNLAD_clean_sbu_0, # of connection points: 6
#     Edge 12, Type (0, 1), BuildingBlock: CIFDUS_clean_linker_0, # of connection points: 2
#     Edge 13, Type (0, 1), BuildingBlock: CIFDUS_clean_linker_0, # of connection points: 2
#     Edge 14, Type (0, 1), BuildingBlock: CIFDUS_clean_linker_0, # of connection points: 2
#     Edge 15, Type (0, 1), BuildingBlock: CIFDUS_clean_linker_0, # of connection points: 2
#     Edge 16, Type (0, 1), BuildingBlock: CIFDUS_clean_linker_0, # of connection points: 2
#     Edge 17, Type (0, 1), BuildingBlock: CIFDUS_clean_linker_0, # of connection points: 2
#     Edge 18, Type (0, 1), BuildingBlock: CIFDUS_clean_linker_0, # of connection points: 2
#     Edge 19, Type (0, 1), BuildingBlock: CIFDUS_clean_linker_0, # of connection points: 2
#     Edge 20, Type (0, 1), BuildingBlock: CIFDUS_clean_linker_0, # of connection points: 2
#     Edge 21, Type (0, 1), BuildingBlock: CIFDUS_clean_linker_0, # of connection points: 2
#     Edge 22, Type (0, 1), BuildingBlock: CIFDUS_clean_linker_0, # of connection points: 2
#     Edge 23, Type (0, 1), BuildingBlock: CIFDUS_clean_linker_0, # of connection points: 2
#     Edge 24, Type (0, 1), BuildingBlock: CIFDUS_clean_linker_0, # of connection points: 2
#     Edge 25, Type (0, 1), BuildingBlock: CIFDUS_clean_linker_0, # of connection points: 2
#     Edge 26, Type (0, 1), BuildingBlock: CIFDUS_clean_linker_0, # of connection points: 2
#     Edge 27, Type (0, 1), BuildingBlock: CIFDUS_clean_linker_0, # of connection points: 2
#     Edge 28, Type (0, 1), BuildingBlock: CIFDUS_clean_linker_0, # of connection points: 2
#     Edge 29, Type (0, 1), BuildingBlock: CIFDUS_clean_linker_0, # of connection points: 2
#     Edge 30, Type (0, 1), BuildingBlock: CIFDUS_clean_linker_0, # of connection points: 2
#     Edge 31, Type (0, 1), BuildingBlock: CIFDUS_clean_linker_0, # of connection points: 2
#     Edge 32, Type (0, 1), BuildingBlock: CIFDUS_clean_linker_0, # of connection points: 2
#     Edge 33, Type (0, 1), BuildingBlock: CIFDUS_clean_linker_0, # of connection points: 2
#     Edge 34, Type (0, 1), BuildingBlock: CIFDUS_clean_linker_0, # of connection points: 2
#     Edge 35, Type (0, 1), BuildingBlock: CIFDUS_clean_linker_0, # of connection points: 2
# Relax obj value: 0.166
# Max RMSD: 0.172
# Mean RMSD: 0.118
data_MOF--net-pry--node1-OLANEW_clean_sbu_2--node2-FUNLAD_clean_sbu_0--edge1-CIFDUS_clean_linker_0
_symmetry_space_group_name_H-M    P1
_symmetry_Int_Tables_number       1
_symmetry_cell_setting            triclinic
loop_
_symmetry_equiv_pos_as_xyz
'x, y, z'
_cell_length_a     33.310399
_cell_length_b     36.235599
_cell_length_c     36.131984
_cell_angle_alpha  93.937822
_cell_angle_beta   89.732639
_cell_angle_gamma 89.990636
loop_
_atom_site_label
_atom_site_type_symbol
_atom_site_fract_x
_atom_site_fract_y
_atom_site_fract_z
_atom_type_partial_charge
O0 O 0.20773 0.18676 0.16644 0.0
Cd1 Cd 0.14137 0.2178 0.17369 0.0
O2 O 0.19884 0.15822 0.21738 0.0
Cd3 Cd 0.20319 0.12549 0.26702 0.0
O4 O 0.18701 0.11056 0.32393 0.0
C5 C 0.17056 0.08 0.33083 0.0
O6 O 0.16411 0.05518 0.30326 0.0
C7 C 0.22048 0.16384 0.18902 0.0
C8 C 0.12747 0.28827 0.14719 0.0
O9 O 0.13973 0.28456 0.18033 0.0
O10 O 0.12354 0.2588 0.12576 0.0
O11 O 0.45426 0.87892 0.81757 0.0
Cd12 Cd 0.43694 0.85397 0.75428 0.0
O13 O 0.40731 0.91828 0.80618 0.0
Cd14 Cd 0.35981 0.96014 0.80835 0.0
O15 O 0.30727 0.97963 0.7785 0.0
C16 C 0.29193 0.95735 0.75365 0.0
O17 O 0.30763 0.92417 0.74786 0.0
C18 C 0.43296 0.90672 0.82869 0.0
C19 C 0.47348 0.78921 0.72339 0.0
O20 O 0.48566 0.82107 0.71473 0.0
O21 O 0.44533 0.78804 0.74759 0.0
O22 O 0.68879 0.5534 0.03142 0.0
Cd23 Cd 0.62111 0.56303 1.00841 0.0
O24 O 0.6889 0.50091 0.99784 0.0
Cd25 Cd 0.71019 0.44589 0.97893 0.0
O26 O 0.69583 0.38711 0.97673 0.0
C27 C 0.6587 0.38012 0.98055 0.0
O28 O 0.63326 0.4079 0.98384 0.0
C29 C 0.70721 0.52424 0.01952 0.0
C30 C 0.61974 0.54338 0.93256 0.0
O31 O 0.63413 0.5744 0.94542 0.0
O32 O 0.60504 0.52148 0.95546 0.0
O33 O 0.08136 0.61521 0.50514 0.0
Cd34 Cd 0.08646 0.54912 0.48937 0.0
O35 O 0.02041 0.60732 0.52585 0.0
Cd36 Cd 0.9589 0.62149 0.54248 0.0
O37 O 0.89435 0.61512 0.55048 0.0
C38 C 0.87129 0.62131 0.5237 0.0
O39 O 0.88704 0.63293 0.49318 0.0
C40 C 0.04845 0.62903 0.51735 0.0
C41 C 0.0751 0.5432 0.41295 0.0
O42 O 0.04533 0.54084 0.43526 0.0
O43 O 0.11037 0.54632 0.42683 0.0
O44 O 0.91896 0.8859 0.85535 0.0
Cd45 Cd 0.88934 0.86187 0.91202 0.0
O46 O 0.88874 0.94043 0.85848 0.0
Cd47 Cd 0.85148 0.93764 0.90858 0.0
O48 O 0.80283 0.96293 0.9432 0.0
C49 C 0.77848 0.94553 0.96291 0.0
O50 O 0.78252 0.90959 0.96432 0.0
C51 C 0.91265 0.91715 0.84212 0.0
C52 C 0.92017 0.79394 0.93372 0.0
O53 O 0.93177 0.82473 0.94975 0.0
O54 O 0.89486 0.79521 0.90723 0.0
O55 O 0.6585 0.10304 0.37627 0.0
Cd56 Cd 0.68514 0.12047 0.43887 0.0
O57 O 0.62931 0.15653 0.36703 0.0
Cd58 Cd 0.64256 0.19002 0.41884 0.0
O59 O 0.63641 0.24027 0.45685 0.0
C60 C 0.62328 0.26903 0.44252 0.0
O61 O 0.61513 0.26684 0.40688 0.0
C62 C 0.63788 0.12328 0.35591 0.0
C63 C 0.75519 0.08458 0.46179 0.0
O64 O 0.72063 0.06932 0.46403 0.0
O65 O 0.75691 0.11604 0.44764 0.0
O66 O 0.53292 0.66769 0.1058 0.0
Cd67 Cd 0.54987 0.60293 0.11038 0.0
O68 O 0.47026 0.65122 0.0985 0.0
Cd69 Cd 0.40562 0.65473 0.08932 0.0
O70 O 0.34228 0.64229 0.08016 0.0
C71 C 0.33091 0.62857 0.04862 0.0
O72 O 0.35753 0.62344 0.02181 0.0
C73 C 0.49636 0.67681 0.10248 0.0
C74 C 0.54406 0.59086 0.18537 0.0
O75 O 0.51388 0.5854 0.16381 0.0
O76 O 0.57738 0.60062 0.17108 0.0
O77 O 0.13212 0.55619 0.65096 0.0
Cd78 Cd 0.16031 0.53895 0.5897 0.0
O79 O 0.14804 0.49885 0.65761 0.0
Cd80 Cd 0.15558 0.44569 0.68146 0.0
O81 O 0.14563 0.38647 0.67989 0.0
C82 C 0.1569 0.36852 0.65025 0.0
O83 O 0.17533 0.38633 0.62462 0.0
C84 C 0.13239 0.52887 0.67113 0.0
C85 C 0.24347 0.52994 0.5909 0.0
O86 O 0.22025 0.50398 0.60033 0.0
O87 O 0.22743 0.55997 0.58132 0.0
C88 C 0.07328 0.01594 0.51999 0.0
N89 N 0.05298 0.08869 0.61361 0.0
C90 C 0.09149 0.0999 0.6087 0.0
C91 C 0.10276 0.13614 0.61866 0.0
C92 C 0.0741 0.16145 0.63351 0.0
C93 C 0.0346 0.14912 0.63881 0.0
C94 C 0.02462 0.11233 0.62859 0.0
Zn95 Zn 0.04021 0.03521 0.59691 0.0
C96 C 0.96301 0.02867 0.55469 0.0
N97 N 0.01747 0.92286 0.56094 0.0
C98 C 0.04937 0.90289 0.54713 0.0
C99 C 0.98174 0.90632 0.56768 0.0
C100 C 0.97761 0.86794 0.5617 0.0
C101 C 0.01067 0.84643 0.5489 0.0
C102 C 0.04671 0.86461 0.5411 0.0
Zn103 Zn 0.02753 0.97715 0.57711 0.0
O104 O 0.0718 0.04192 0.54551 0.0
C105 C 0.10466 0.98542 0.62021 0.0
O106 O 0.05685 0.98515 0.52572 0.0
H107 H 0.95683 0.92275 0.57888 0.0
H108 H 0.11362 0.0807 0.59679 0.0
H109 H 0.0776 0.91649 0.54225 0.0
O110 O 0.0933 0.01886 0.62254 0.0
O111 O 0.08355 0.96155 0.60163 0.0
H112 H 0.99419 0.10276 0.63223 0.0
O113 O 0.99901 0.96943 0.62853 0.0
O114 O 1.00851 0.02745 0.64797 0.0
O115 O 0.97126 0.9942 0.55325 0.0
O116 O 0.98689 0.05146 0.57143 0.0
C117 C 0.99536 0.99533 0.65385 0.0
H118 H 0.1337 0.14423 0.61474 0.0
H119 H 0.01151 0.16785 0.64993 0.0
H120 H 0.9491 0.85524 0.56765 0.0
H121 H 0.07331 0.84938 0.53193 0.0
C122 C 0.57786 0.02001 0.06568 0.0
N123 N 0.52929 0.12496 0.05586 0.0
C124 C 0.5665 0.13845 0.06421 0.0
C125 C 0.57899 0.17205 0.0515 0.0
C126 C 0.55307 0.19205 0.02976 0.0
C127 C 0.51488 0.17734 0.0213 0.0
C128 C 0.50352 0.14358 0.03474 0.0
Zn129 Zn 0.51334 0.07583 0.07617 0.0
C130 C 0.4731 0.02495 0.0203 0.0
N131 N 0.48292 0.97339 0.12061 0.0
C132 C 0.5124 0.95783 0.14032 0.0
C133 C 0.4519 0.95272 0.10608 0.0
C134 C 0.4522 0.91423 0.10765 0.0
C135 C 0.4847 0.89725 0.12435 0.0
C136 C 0.51374 0.91967 0.14271 0.0
Zn137 Zn 0.49559 0.02408 0.10165 0.0
O138 O 0.56975 0.05301 0.05858 0.0
C139 C 0.53753 0.07456 0.15696 0.0
O140 O 0.5524 1.0021 0.08359 0.0
H141 H 0.42884 0.96557 0.09036 0.0
H142 H 0.58653 0.12325 0.08105 0.0
H143 H 0.53715 0.97445 0.15119 0.0
O144 O 0.53806 0.09404 0.12897 0.0
O145 O 0.52105 0.04285 0.15399 0.0
H146 H 0.47411 0.13227 0.02837 0.0
O147 O 0.43821 0.04718 0.11948 0.0
O148 O 0.45673 0.09775 0.09373 0.0
O149 O 0.47159 1.00575 0.04845 0.0
O150 O 0.48856 0.05708 0.02371 0.0
C151 C 0.43068 0.08028 0.11163 0.0
H152 H 0.6084 0.18257 0.05933 0.0
H153 H 0.49405 0.19165 1.00436 0.0
H154 H 0.4292 0.89785 0.0932 0.0
H155 H 0.53893 0.90762 0.15641 0.0
C156 C 0.57653 0.47414 0.53034 0.0
N157 N 0.5719 0.51852 0.64161 0.0
C158 C 0.55488 0.48826 0.65562 0.0
C159 C 0.55938 0.48201 0.69332 0.0
C160 C 0.58135 0.50732 0.71662 0.0
C161 C 0.59852 0.53807 0.70099 0.0
C162 C 0.59381 0.54289 0.6635 0.0
Zn163 Zn 0.56519 0.53313 0.58818 0.0
C164 C 0.64477 0.55951 0.55856 0.0
N165 N 0.5559 0.57358 0.48081 0.0
C166 C 0.53456 0.55105 0.45651 0.0
C167 C 0.57626 0.60331 0.46937 0.0
C168 C 0.57691 0.61043 0.43184 0.0
C169 C 0.5566 0.58659 0.40588 0.0
C170 C 0.53461 0.55698 0.41882 0.0
Zn171 Zn 0.56132 0.55807 0.53378 0.0
O172 O 0.57631 0.47787 0.56562 0.0
C173 C 0.4813 0.53446 0.56262 0.0
O174 O 0.57087 0.50249 0.51211 0.0
H175 H 0.59308 0.62082 0.48918 0.0
H176 H 0.53747 0.46926 0.63774 0.0
H177 H 0.51872 0.52746 0.46612 0.0
O178 O 0.50154 0.52286 0.58935 0.0
O179 O 0.49951 0.54916 0.53643 0.0
H180 H 0.60708 0.56686 0.6521 0.0
O181 O 0.55187 0.61332 0.55634 0.0
O182 O 0.5533 0.58835 0.60983 0.0
O183 O 0.62291 0.5677 0.53172 0.0
O184 O 0.62872 0.54458 0.58585 0.0
C185 C 0.54906 0.61678 0.59152 0.0
H186 H 0.54571 0.4578 0.70403 0.0
H187 H 0.61464 0.55909 0.71768 0.0
H188 H 0.59374 0.63394 0.4232 0.0
H189 H 0.51898 0.53753 0.39991 0.0
C190 C 0.99911 0.61254 0.02625 0.0
N191 N 1.00633 0.55908 0.12684 0.0
C192 C 0.02486 0.58755 0.14646 0.0
C193 C 0.02539 0.5889 0.18518 0.0
C194 C 1.00617 0.56099 0.20373 0.0
C195 C 0.98485 0.53349 0.18292 0.0
C196 C 0.9856 0.53287 0.14428 0.0
Zn197 Zn 0.01708 0.54972 0.07124 0.0
C198 C 0.94468 0.5183 0.03114 0.0
N199 N 0.04136 0.52405 0.95633 0.0
C200 C 0.06554 0.54899 0.9407 0.0
C201 C 0.02509 0.49516 0.93553 0.0
C202 C 0.03277 0.49078 0.89735 0.0
C203 C 0.05799 0.51605 0.88053 0.0
C204 C 0.07475 0.54518 0.90305 0.0
Zn205 Zn 0.02922 0.53341 0.01175 0.0
O206 O 0.99896 0.60471 0.0601 0.0
C207 C 0.10112 0.56592 0.05216 0.0
O208 O 0.01035 0.58807 1.00144 0.0
H209 H 1.00574 0.47575 0.94843 0.0
H210 H 0.04116 0.6081 0.13209 0.0
H211 H 0.07769 0.57219 0.9574 0.0
O212 O 0.07654 0.56816 0.07911 0.0
O213 O 0.08939 0.5522 0.02077 0.0
H214 H 0.97163 0.51013 0.12825 0.0
O215 O 0.04767 0.47873 0.02267 0.0
O216 O 0.03623 0.49478 0.0814 0.0
O217 O 0.96909 0.51507 1.00394 0.0
O218 O 0.9571 0.53154 0.06252 0.0
C219 C 0.04788 0.47064 0.05641 0.0
H220 H 0.04189 0.61072 0.20043 0.0
H221 H 0.96999 0.51132 0.19626 0.0
H222 H 0.01862 0.46814 0.88124 0.0
H223 H 0.09515 0.5649 0.89193 0.0
H224 H 0.13778 0.01688 0.35491 0.0
H225 H 0.17191 0.12787 0.39308 0.0
H226 H 0.146 0.11771 0.45498 0.0
H227 H 0.11151 0.07791 0.498 0.0
H228 H 0.0779 0.96685 0.45932 0.0
H229 H 0.10579 0.97651 0.39825 0.0
C230 C 0.13975 0.03887 0.37675 0.0
C231 C 0.15671 0.07317 0.36909 0.0
C232 C 0.12474 0.03286 0.41236 0.0
C233 C 0.15905 0.10118 0.39799 0.0
C234 C 0.14414 0.09542 0.43347 0.0
C235 C 0.11044 0.05574 0.47628 0.0
C236 C 0.09238 0.02171 0.48344 0.0
C237 C 0.1266 0.06146 0.44094 0.0
C238 C 0.09147 0.99335 0.45482 0.0
C239 C 0.10741 0.99884 0.41974 0.0
H240 H 0.42504 0.97959 0.85349 0.0
H241 H 0.45188 0.8715 0.88995 0.0
H242 H 0.46326 0.89814 0.95293 0.0
H243 H 0.46903 0.95227 0.99713 0.0
H244 H 0.44889 0.06135 0.96019 0.0
H245 H 0.43137 0.03444 0.89826 0.0
C246 C 0.43296 0.96193 0.87538 0.0
C247 C 0.43741 0.92358 0.86709 0.0
C248 C 0.44087 0.97768 0.91147 0.0
C249 C 0.44835 0.90108 0.89558 0.0
C250 C 0.45485 0.9163 0.93163 0.0
C251 C 0.46036 0.97017 0.97566 0.0
C252 C 0.45998 0.00877 0.98339 0.0
C253 C 0.45168 0.95458 0.93983 0.0
C254 C 0.44937 0.03155 0.955 0.0
C255 C 0.43938 0.01615 0.91956 0.0
H256 H 0.56295 0.50621 0.89081 0.0
H257 H 0.67879 0.55859 0.88454 0.0
H258 H 0.67971 0.54631 0.81725 0.0
H259 H 0.64576 0.52513 0.76031 0.0
H260 H 0.52561 0.48093 0.76491 0.0
H261 H 0.52887 0.48393 0.83262 0.0
C262 C 0.58848 0.51451 0.8746 0.0
C263 C 0.6207 0.53337 0.89237 0.0
C264 C 0.58807 0.50866 0.83568 0.0
C265 C 0.65353 0.54433 0.87127 0.0
C266 C 0.65411 0.53723 0.83288 0.0
C267 C 0.62003 0.51638 0.77597 0.0
C268 C 0.5852 0.50351 0.75731 0.0
C269 C 0.62117 0.52021 0.81477 0.0
C270 C 0.55292 0.49086 0.7783 0.0
C271 C 0.55457 0.49298 0.81713 0.0
H272 H 1.00415 0.53955 0.37568 0.0
H273 H 0.13192 0.55143 0.35958 0.0
H274 H 0.12149 0.55941 0.29386 0.0
H275 H 0.0762 0.56376 0.24104 0.0
H276 H 0.9487 0.55059 0.25625 0.0
H277 H 0.95883 0.54257 0.32236 0.0
C278 C 0.02974 0.54363 0.35775 0.0
C279 C 0.06876 0.54489 0.37259 0.0
C280 C 0.02354 0.54833 0.31993 0.0
C281 C 0.10157 0.55024 0.34894 0.0
C282 C 0.09564 0.55498 0.31135 0.0
C283 C 0.05062 0.5596 0.25899 0.0
C284 C 0.01174 0.55824 0.24406 0.0
C285 C 0.05677 0.5544 0.29664 0.0
C286 C 0.97889 0.55189 0.26729 0.0
C287 C 0.9847 0.54724 0.30498 0.0
H288 H 0.27799 0.18186 0.14028 0.0
H289 H 0.25034 0.10119 0.21897 0.0
H290 H 0.3124 0.06777 0.20197 0.0
H291 H 0.37445 0.06078 0.16327 0.0
H292 H 0.40057 0.14286 0.08535 0.0
H293 H 0.33924 0.17587 0.10325 0.0
C294 C 0.28546 0.15703 0.15392 0.0
C295 C 0.25937 0.14431 0.18108 0.0
C296 C 0.321 0.13788 0.14384 0.0
C297 C 0.26991 0.11207 0.19839 0.0
C298 C 0.30535 0.09272 0.18841 0.0
C299 C 0.3666 0.08581 0.15015 0.0
C300 C 0.39227 0.09912 0.12285 0.0
C301 C 0.33108 0.10522 0.16093 0.0
C302 C 0.38165 0.13185 0.10643 0.0
C303 C 0.34647 0.15087 0.11666 0.0
H304 H 0.25057 0.91472 0.70173 0.0
H305 H 0.25569 0.0252 0.75449 0.0
H306 H 0.19938 0.04371 0.71685 0.0
H307 H 0.14828 0.02848 0.66966 0.0
H308 H 0.14179 0.91772 0.61779 0.0
H309 H 0.1993 0.89947 0.65427 0.0
C310 C 0.23943 0.94288 0.70503 0.0
C311 C 0.25743 0.96851 0.731 0.0
C312 C 0.20688 0.95332 0.68338 0.0
C313 C 0.24244 1.00485 0.73485 0.0
C314 C 0.21025 0.01549 0.71327 0.0
C315 C 0.15953 1.00036 0.6661 0.0
C316 C 0.14073 0.97453 0.64087 0.0
C317 C 0.19223 0.98995 0.6875 0.0
C318 C 0.15565 0.93818 0.63691 0.0
C319 C 0.18851 0.92772 0.65784 0.0
H320 H 0.76667 0.49179 0.97716 0.0
H321 H 0.74262 0.54628 0.08484 0.0
H322 H 0.81415 0.54549 0.0995 0.0
H323 H 0.88367 0.53473 0.0795 0.0
H324 H 0.90846 0.48395 0.9702 0.0
H325 H 0.83649 0.47727 0.9586 0.0
C326 C 0.77702 0.50252 1.00419 0.0
C327 C 0.74945 0.51874 0.03005 0.0
C328 C 0.81835 0.50298 0.01197 0.0
C329 C 0.76335 0.5336 0.06455 0.0
C330 C 0.80422 0.53323 0.0729 0.0
C331 C 0.87341 0.52169 0.05331 0.0
C332 C 0.90146 0.51005 0.02569 0.0
C333 C 0.83206 0.51883 0.04648 0.0
C334 C 0.88754 0.49333 0.99189 0.0
C335 C 0.84637 0.48956 0.9852 0.0
H336 H 0.83074 0.58902 0.57881 0.0
H337 H 0.81399 0.63553 0.47305 0.0
H338 H 0.74278 0.62027 0.47465 0.0
H339 H 0.6856 0.59315 0.50531 0.0
H340 H 0.70141 0.5462 0.61092 0.0
H341 H 0.77279 0.56212 0.60999 0.0
C342 C 0.81148 0.59599 0.55619 0.0
C343 C 0.82776 0.6134 0.52584 0.0
C344 C 0.77048 0.58689 0.55713 0.0
C345 C 0.80235 0.6221 0.49673 0.0
C346 C 0.76159 0.61335 0.49758 0.0
C347 C 0.70459 0.58628 0.52817 0.0
C348 C 0.68816 0.56838 0.55809 0.0
C349 C 0.74542 0.59557 0.5275 0.0
C350 C 0.71328 0.55987 0.58748 0.0
C351 C 0.75409 0.56902 0.587 0.0
H352 H 0.10609 0.30661 0.07752 0.0
H353 H 0.12215 0.35331 0.18963 0.0
H354 H 0.09852 0.41315 0.17161 0.0
H355 H 0.07177 0.45218 0.1246 0.0
H356 H 0.05786 0.40689 0.01183 0.0
H357 H 0.08199 0.34676 0.02953 0.0
C358 C 0.10466 0.32993 0.09797 0.0
C359 C 0.11586 0.32525 0.13497 0.0
C360 C 0.09114 0.36457 0.08735 0.0
C361 C 0.11388 0.35593 0.16098 0.0
C362 C 0.10018 0.39024 0.15073 0.0
C363 C 0.0739 0.42915 0.10385 0.0
C364 C 0.06264 0.43405 0.06696 0.0
C365 C 0.08842 0.39483 0.1141 0.0
C366 C 0.06619 0.40395 0.04042 0.0
C367 C 0.08001 0.36952 0.05055 0.0
H368 H 0.58273 0.35808 0.995 0.0
H369 H 0.70277 0.31616 0.97491 0.0
H370 H 0.67994 0.25376 0.98596 0.0
H371 H 0.62668 0.21181 1.00437 0.0
H372 H 0.5075 0.25462 0.02729 0.0
H373 H 0.5291 0.31585 0.01126 0.0
C374 C 0.60391 0.33529 0.99275 0.0
C375 C 0.64447 0.34186 0.98437 0.0
C376 C 0.59072 0.29962 0.9996 0.0
C377 C 0.67142 0.31194 0.98149 0.0
C378 C 0.6584 0.27624 0.98784 0.0
C379 C 0.60544 0.23455 1.00599 0.0
C380 C 0.56556 0.22859 0.01726 0.0
C381 C 0.61826 0.26989 0.99749 0.0
C382 C 0.53824 0.25824 0.01837 0.0
C383 C 0.55066 0.29337 0.0095 0.0
H384 H 1.00243 0.67364 0.56499 0.0
H385 H 0.08147 0.67499 0.47012 0.0
H386 H 0.07361 0.74173 0.46936 0.0
H387 H 0.04619 0.79977 0.49637 0.0
H388 H 0.97122 0.80017 0.59418 0.0
H389 H 0.97405 0.7327 0.59197 0.0
C390 C 0.01742 0.68854 0.5439 0.0
C391 C 0.04238 0.66941 0.5176 0.0
C392 C 0.01325 0.72722 0.54392 0.0
C393 C 0.06235 0.68915 0.49088 0.0
C394 C 0.05774 0.7273 0.49028 0.0
C395 C 0.03065 0.78524 0.51743 0.0
C396 C 0.00883 0.80525 0.54554 0.0
C397 C 0.03363 0.74664 0.51687 0.0
C398 C 0.98795 0.78564 0.57191 0.0
C399 C 0.9899 0.74699 0.57094 0.0
H400 H 0.5078 0.77992 0.65473 0.0
H401 H 0.47475 0.72082 0.74996 0.0
H402 H 0.4972 0.66277 0.71812 0.0
H403 H 0.52337 0.62845 0.66257 0.0
H404 H 0.55225 0.68611 0.5653 0.0
H405 H 0.53423 0.74508 0.59853 0.0
C406 C 0.50596 0.75436 0.66862 0.0
C407 C 0.48984 0.75469 0.70476 0.0
C408 C 0.51787 0.72083 0.64967 0.0
C409 C 0.48703 0.7213 0.72218 0.0
C410 C 0.49982 0.6881 0.70397 0.0
C411 C 0.526 0.65391 0.64861 0.0
C412 C 0.53926 0.65285 0.61148 0.0
C413 C 0.51483 0.68748 0.66759 0.0
C414 C 0.54207 0.68612 0.59382 0.0
C415 C 0.53181 0.71985 0.61284 0.0
H416 H 0.91873 0.98484 0.8136 0.0
H417 H 0.94893 0.86974 0.78998 0.0
H418 H 0.97596 0.88377 0.72955 0.0
H419 H 0.99001 0.92838 0.68291 0.0
H420 H 0.96308 0.04396 0.70741 0.0
H421 H 0.93559 0.03004 0.76791 0.0
C422 C 0.93133 0.96279 0.79531 0.0
C423 C 0.93157 0.92619 0.80641 0.0
C424 C 0.94718 0.97112 0.76063 0.0
C425 C 0.94839 0.89813 0.78236 0.0
C426 C 0.96372 0.90611 0.74767 0.0
C427 C 0.97794 0.95055 0.70139 0.0
C428 C 0.97819 0.98716 0.69043 0.0
C429 C 0.963 0.94244 0.73641 0.0
C430 C 0.9631 0.01557 0.71505 0.0
C431 C 0.94741 0.0076 0.74967 0.0
H432 H 0.61085 0.16149 0.29868 0.0
H433 H 0.62895 0.05042 0.33133 0.0
H434 H 0.59872 0.02544 0.27328 0.0
H435 H 0.56574 0.03524 0.21345 0.0
H436 H 0.55129 0.14649 0.17997 0.0
H437 H 0.58124 0.17118 0.23803 0.0
C438 C 0.60831 0.13179 0.29311 0.0
C439 C 0.62203 0.10793 0.31955 0.0
C440 C 0.59129 0.11761 0.2595 0.0
C441 C 0.61881 0.06949 0.31154 0.0
C442 C 0.60133 0.05517 0.27837 0.0
C443 C 0.56906 0.06488 0.21895 0.0
C444 C 0.55594 0.08898 0.19246 0.0
C445 C 0.58717 0.07896 0.25222 0.0
C446 C 0.56105 0.1273 0.19981 0.0
C447 C 0.57818 0.14147 0.23306 0.0
H448 H 0.60146 0.60376 0.23787 0.0
H449 H 0.47746 0.57128 0.22379 0.0
H450 H 0.46998 0.56866 0.2908 0.0
H451 H 0.49841 0.57607 0.35332 0.0
H452 H 0.62304 0.60657 0.36716 0.0
H453 H 0.63007 0.61051 0.30037 0.0
C454 C 0.57283 0.59594 0.24941 0.0
C455 C 0.54012 0.58761 0.22581 0.0
C456 C 0.56866 0.59462 0.28797 0.0
C457 C 0.50319 0.5777 0.24129 0.0
C458 C 0.49882 0.57631 0.27963 0.0
C459 C 0.52722 0.58333 0.34175 0.0
C460 C 0.56009 0.59106 0.36538 0.0
C461 C 0.53133 0.58478 0.30322 0.0
C462 C 0.59698 0.60109 0.34983 0.0
C463 C 0.60119 0.60297 0.31154 0.0
H464 H 0.10454 0.47417 0.7132 0.0
H465 H 0.11962 0.59242 0.7142 0.0
H466 H 0.09441 0.59908 0.77787 0.0
H467 H 0.07136 0.57115 0.83385 0.0
H468 H 0.06567 0.45207 0.83538 0.0
H469 H 0.08427 0.44589 0.76999 0.0
C470 C 0.10389 0.50125 0.72759 0.0
C471 C 0.11562 0.53254 0.70927 0.0
C472 C 0.09071 0.50476 0.7646 0.0
C473 C 0.11132 0.56776 0.72774 0.0
C474 C 0.097 0.5716 0.7642 0.0
C475 C 0.0748 0.54372 0.82027 0.0
C476 C 0.06737 0.51216 0.84002 0.0
C477 C 0.08726 0.54022 0.78307 0.0
C478 C 0.07059 0.47699 0.82111 0.0
C479 C 0.08165 0.47336 0.78368 0.0
H480 H 0.7217 0.9174 1.00788 0.0
H481 H 0.75873 0.01867 0.96136 0.0
H482 H 0.70108 0.05091 0.99016 0.0
H483 H 0.63855 0.04997 0.0265 0.0
H484 H 0.60149 0.94868 0.07299 0.0
H485 H 0.66072 0.91711 0.04645 0.0
C486 C 0.71731 0.94656 1.00416 0.0
C487 C 0.74453 0.96543 0.98226 0.0
C488 C 0.68395 0.96503 0.02077 0.0
C489 C 0.73832 1.00332 0.97795 0.0
C490 C 0.70527 0.02184 0.9944 0.0
C491 C 0.64353 0.02105 0.03105 0.0
C492 C 0.61541 1.00178 0.05162 0.0
C493 C 0.67766 1.00291 0.01556 0.0
C494 C 0.62252 0.96429 0.05726 0.0
C495 C 0.6564 0.94612 0.04202 0.0
H496 H 0.82635 0.11783 0.47903 0.0
H497 H 0.76585 0.01266 0.47903 0.0
H498 H 0.82504 0.98528 0.50641 0.0
H499 H 0.89395 0.99181 0.53219 0.0
H500 H 0.95158 0.09868 0.53493 0.0
H501 H 0.89389 0.12452 0.50485 0.0
C502 C 0.82617 0.08882 0.48472 0.0
C503 C 0.79172 0.06733 0.47676 0.0
C504 C 0.85991 0.07351 0.50126 0.0
C505 C 0.79195 0.02988 0.48482 0.0
C506 C 0.82582 0.01419 0.50054 0.0
C507 C 0.89386 0.02069 0.52607 0.0
C508 C 0.92718 0.04318 0.53595 0.0
C509 C 0.85996 0.03581 0.50918 0.0
C510 C 0.92638 0.08067 0.52796 0.0
C511 C 0.89336 0.09556 0.51061 0.0
H512 H 0.27075 0.62973 0.0998 0.0
H513 H 0.29642 0.60037 0.98428 0.0
H514 H 0.2276 0.57854 0.97512 0.0
H515 H 0.16044 0.56688 1.00012 0.0
H516 H 0.13522 0.59586 0.11584 0.0
H517 H 0.20362 0.61864 0.12462 0.0
C518 C 0.2613 0.6187 0.07256 0.0
C519 C 0.28876 0.61669 0.04279 0.0
C520 C 0.22179 0.60596 0.06753 0.0
C521 C 0.27595 0.60223 1.00771 0.0
C522 C 0.2366 0.58969 1.00244 0.0
C523 C 0.1699 0.57815 0.02727 0.0
C524 C 0.14273 0.57954 0.05727 0.0
C525 C 0.20933 0.59123 0.03219 0.0
C526 C 0.15549 0.59435 0.09225 0.0
C527 C 0.19462 0.60744 0.09733 0.0
H528 H 0.29605 0.56371 0.54774 0.0
H529 H 0.28941 0.48509 0.63179 0.0
H530 H 0.36279 0.47885 0.63073 0.0
H531 H 0.42928 0.49714 0.60632 0.0
H532 H 0.43316 0.57314 0.51927 0.0
H533 H 0.36069 0.5787 0.52099 0.0
C534 C 0.31067 0.54526 0.5659 0.0
C535 C 0.28753 0.52524 0.59008 0.0
C536 C 0.35249 0.54122 0.5645 0.0
C537 C 0.30674 0.50089 0.61297 0.0
C538 C 0.34865 0.49735 0.61239 0.0
C539 C 0.41417 0.5147 0.58763 0.0
C540 C 0.43682 0.53474 0.56284 0.0
C541 C 0.37193 0.51753 0.58831 0.0
C542 C 0.4167 0.55724 0.53862 0.0
C543 C 0.37512 0.56064 0.53961 0.0
H544 H 0.94892 0.77814 1.00168 0.0
H545 H 0.92413 0.72851 0.89223 0.0
H546 H 0.94724 0.66862 0.91094 0.0
H547 H 0.97373 0.63002 0.95837 0.0
H548 H 0.99435 0.67788 0.06925 0.0
H549 H 0.97352 0.7386 0.05015 0.0
C550 C 0.9488 0.75423 0.98191 0.0
C551 C 0.93506 0.7579 0.94549 0.0
C552 C 0.96122 0.71949 0.99319 0.0
C553 C 0.93452 0.72651 0.92038 0.0
C554 C 0.94776 0.69222 0.93107 0.0
C555 C 0.97379 0.65374 0.9784 0.0
C556 C 0.98584 0.64939 0.01518 0.0
C557 C 0.96104 0.68834 0.9674 0.0
C558 C 0.98519 0.68039 0.0408 0.0
C559 C 0.97336 0.71515 0.02985 0.0
H560 H 0.5452 0.73386 0.09 0.0
H561 H 0.42382 0.70941 0.12234 0.0
H562 H 0.40865 0.77534 0.13015 0.0
H563 H 0.43126 0.84056 0.13114 0.0
H564 H 0.55413 0.86365 0.10216 0.0
H565 H 0.56751 0.79784 0.09066 0.0
C566 C 0.51528 0.74288 0.09849 0.0
C567 C 0.48544 0.71655 0.10457 0.0
C568 C 0.50724 0.78078 0.10429 0.0
C569 C 0.44696 0.72882 0.11588 0.0
C570 C 0.43844 0.76667 0.12103 0.0
C571 C 0.46086 0.83106 0.12224 0.0
C572 C 0.49179 0.8569 0.1181 0.0
C573 C 0.4685 0.79294 0.11571 0.0
C574 C 0.53005 0.84428 0.10646 0.0
C575 C 0.53768 0.80667 0.09953 0.0
H576 H 0.11004 0.32628 0.69263 0.0
H577 H 0.18021 0.3222 0.59159 0.0
H578 H 0.16028 0.25808 0.57755 0.0
H579 H 0.12172 0.20393 0.59286 0.0
H580 H 0.05203 0.20693 0.69401 0.0
H581 H 0.07231 0.27115 0.70869 0.0
C582 C 0.12119 0.31129 0.66767 0.0
C583 C 0.14658 0.32902 0.64321 0.0
C584 C 0.10935 0.27445 0.65956 0.0
C585 C 0.16061 0.30925 0.61089 0.0
C586 C 0.14918 0.2726 0.60277 0.0
C587 C 0.11132 0.21844 0.61838 0.0
C588 C 0.08557 0.2006 0.6424 0.0
C589 C 0.1234 0.25504 0.62677 0.0
C590 C 0.07159 0.22014 0.67488 0.0
C591 C 0.0834 0.25675 0.68341 0.0
H592 H 0.59907 0.3344 0.41802 0.0
H593 H 0.63231 0.28349 0.51791 0.0
H594 H 0.62022 0.34207 0.55434 0.0
H595 H 0.60016 0.40833 0.55759 0.0
H596 H 0.56804 0.45778 0.45637 0.0
H597 H 0.57963 0.3993 0.421 0.0
C598 C 0.60372 0.33595 0.44777 0.0
C599 C 0.61659 0.30445 0.46511 0.0
C600 C 0.59683 0.36962 0.46844 0.0
C601 C 0.62247 0.30725 0.50375 0.0
C602 C 0.6155 0.34077 0.52462 0.0
C603 C 0.5956 0.40623 0.52783 0.0
C604 C 0.58323 0.43762 0.50982 0.0
C605 C 0.60263 0.37223 0.50727 0.0
C606 C 0.57764 0.43431 0.47113 0.0
C607 C 0.58425 0.40078 0.45074 0.0
loop_
_geom_bond_atom_site_label_1
_geom_bond_atom_site_label_2
_geom_bond_distance
_geom_bond_site_symmetry_2
_ccdc_geom_bond_type
O0 Cd1 2.300 . S
O0 C7 1.275 . S
Cd1 O0 2.300 . S
Cd1 O9 2.381 . S
Cd1 O10 2.378 . S
O2 Cd3 2.385 . S
O2 C7 1.255 . S
Cd3 O2 2.385 . S
Cd3 O4 2.317 . S
O4 Cd3 2.317 . S
O4 C5 1.232 . S
C5 O4 1.232 . S
C5 O6 1.218 . S
O6 C5 1.218 . S
C7 O0 1.275 . S
C7 O2 1.255 . S
C8 O9 1.258 . S
C8 O10 1.256 . S
O9 Cd1 2.381 . S
O9 C8 1.258 . S
O10 Cd1 2.378 . S
O10 C8 1.256 . S
O11 Cd12 2.300 . S
O11 C18 1.275 . S
Cd12 O11 2.300 . S
Cd12 O20 2.381 . S
Cd12 O21 2.378 . S
O13 Cd14 2.385 . S
O13 C18 1.255 . S
Cd14 O13 2.385 . S
Cd14 O15 2.317 . S
O15 Cd14 2.317 . S
O15 C16 1.232 . S
C16 O15 1.232 . S
C16 O17 1.218 . S
O17 C16 1.218 . S
C18 O11 1.275 . S
C18 O13 1.255 . S
C19 O20 1.258 . S
C19 O21 1.256 . S
O20 Cd12 2.381 . S
O20 C19 1.258 . S
O21 Cd12 2.378 . S
O21 C19 1.256 . S
O22 Cd23 2.300 . S
O22 C29 1.275 . S
Cd23 O22 2.300 . S
Cd23 O31 2.381 . S
Cd23 O32 2.378 . S
O24 Cd25 2.385 . S
O24 C29 1.255 . S
Cd25 O24 2.385 . S
Cd25 O26 2.317 . S
O26 Cd25 2.317 . S
O26 C27 1.232 1_556 S
C27 O26 1.232 1_554 S
C27 O28 1.218 . S
O28 C27 1.218 . S
C29 O22 1.275 . S
C29 O24 1.255 . S
C30 O31 1.258 . S
C30 O32 1.256 . S
O31 Cd23 2.381 . S
O31 C30 1.258 . S
O32 Cd23 2.378 . S
O32 C30 1.256 . S
O33 Cd34 2.300 . S
O33 C40 1.275 . S
Cd34 O33 2.300 . S
Cd34 O42 2.381 . S
Cd34 O43 2.378 . S
O35 Cd36 2.385 . S
O35 C40 1.255 . S
Cd36 O35 2.385 . S
Cd36 O37 2.317 . S
O37 Cd36 2.317 . S
O37 C38 1.232 . S
C38 O37 1.232 . S
C38 O39 1.218 . S
O39 C38 1.218 . S
C40 O33 1.275 . S
C40 O35 1.255 . S
C41 O42 1.258 . S
C41 O43 1.256 . S
O42 Cd34 2.381 . S
O42 C41 1.258 . S
O43 Cd34 2.378 . S
O43 C41 1.256 . S
O44 Cd45 2.300 . S
O44 C51 1.275 . S
Cd45 O44 2.300 . S
Cd45 O53 2.381 . S
Cd45 O54 2.378 . S
O46 Cd47 2.385 . S
O46 C51 1.255 . S
Cd47 O46 2.385 . S
Cd47 O48 2.317 . S
O48 Cd47 2.317 . S
O48 C49 1.232 . S
C49 O48 1.232 . S
C49 O50 1.218 . S
O50 C49 1.218 . S
C51 O44 1.275 . S
C51 O46 1.255 . S
C52 O53 1.258 . S
C52 O54 1.256 . S
O53 Cd45 2.381 . S
O53 C52 1.258 . S
O54 Cd45 2.378 . S
O54 C52 1.256 . S
O55 Cd56 2.300 . S
O55 C62 1.275 . S
Cd56 O55 2.300 . S
Cd56 O64 2.381 . S
Cd56 O65 2.378 . S
O57 Cd58 2.385 . S
O57 C62 1.255 . S
Cd58 O57 2.385 . S
Cd58 O59 2.317 . S
O59 Cd58 2.317 . S
O59 C60 1.232 . S
C60 O59 1.232 . S
C60 O61 1.218 . S
O61 C60 1.218 . S
C62 O55 1.275 . S
C62 O57 1.255 . S
C63 O64 1.258 . S
C63 O65 1.256 . S
O64 Cd56 2.381 . S
O64 C63 1.258 . S
O65 Cd56 2.378 . S
O65 C63 1.256 . S
O66 Cd67 2.300 . S
O66 C73 1.275 . S
Cd67 O66 2.300 . S
Cd67 O75 2.381 . S
Cd67 O76 2.378 . S
O68 Cd69 2.385 . S
O68 C73 1.255 . S
Cd69 O68 2.385 . S
Cd69 O70 2.317 . S
O70 Cd69 2.317 . S
O70 C71 1.232 . S
C71 O70 1.232 . S
C71 O72 1.218 . S
O72 C71 1.218 . S
C73 O66 1.275 . S
C73 O68 1.255 . S
C74 O75 1.258 . S
C74 O76 1.256 . S
O75 Cd67 2.381 . S
O75 C74 1.258 . S
O76 Cd67 2.378 . S
O76 C74 1.256 . S
O77 Cd78 2.300 . S
O77 C84 1.275 . S
Cd78 O77 2.300 . S
Cd78 O86 2.381 . S
Cd78 O87 2.378 . S
O79 Cd80 2.385 . S
O79 C84 1.255 . S
Cd80 O79 2.385 . S
Cd80 O81 2.317 . S
O81 Cd80 2.317 . S
O81 C82 1.232 . S
C82 O81 1.232 . S
C82 O83 1.218 . S
O83 C82 1.218 . S
C84 O77 1.275 . S
C84 O79 1.255 . S
C85 O86 1.258 . S
C85 O87 1.256 . S
O86 Cd78 2.381 . S
O86 C85 1.258 . S
O87 Cd78 2.378 . S
O87 C85 1.256 . S
C88 O104 1.251 . S
C88 O106 1.254 . S
N89 C90 1.333 . S
N89 C94 1.307 . S
N89 Zn95 2.020 . S
C90 N89 1.333 . S
C90 C91 1.379 . S
C90 H108 0.952 . S
C91 C90 1.379 . S
C91 C92 1.390 . S
C91 H118 0.949 . S
C92 C91 1.390 . S
C92 C93 1.357 . S
C93 C92 1.357 . S
C93 C94 1.370 . S
C93 H119 0.950 . S
C94 N89 1.307 . S
C94 C93 1.370 . S
C94 H112 0.948 . S
Zn95 N89 2.020 . S
Zn95 O104 2.039 . S
Zn95 O110 2.034 . S
Zn95 O114 2.025 . S
Zn95 O116 2.024 1_455 S
C96 O115 1.246 . S
C96 O116 1.249 . S
N97 C98 1.307 1_655 S
N97 C99 1.333 . S
N97 Zn103 2.020 1_655 S
C98 N97 1.307 1_455 S
C98 C102 1.370 1_455 S
C98 H109 0.948 . S
C99 N97 1.333 . S
C99 C100 1.379 . S
C99 H107 0.952 . S
C100 C99 1.379 . S
C100 C101 1.390 . S
C100 H120 0.949 . S
C101 C100 1.390 . S
C101 C102 1.357 . S
C102 C98 1.370 1_655 S
C102 C101 1.357 . S
C102 H121 0.950 1_655 S
Zn103 N97 2.020 1_455 S
Zn103 O106 2.025 1_565 S
Zn103 O111 2.024 . S
Zn103 O113 2.039 1_455 S
Zn103 O115 2.034 1_465 S
O104 C88 1.251 . S
O104 Zn95 2.039 . S
C105 O110 1.246 1_565 S
C105 O111 1.249 . S
O106 C88 1.254 . S
O106 Zn103 2.025 1_545 S
H107 C99 0.952 . S
H108 C90 0.952 . S
H109 C98 0.948 . S
O110 Zn95 2.034 . S
O110 C105 1.246 1_545 S
O111 Zn103 2.024 . S
O111 C105 1.249 . S
H112 C94 0.948 . S
O113 Zn103 2.039 1_655 S
O113 C117 1.251 1_565 S
O114 Zn95 2.025 . S
O114 C117 1.254 1_455 S
O115 C96 1.246 . S
O115 Zn103 2.034 1_645 S
O116 Zn95 2.024 1_655 S
O116 C96 1.249 . S
C117 O113 1.251 1_545 S
C117 O114 1.254 1_655 S
H118 C91 0.949 . S
H119 C93 0.950 . S
H120 C100 0.949 . S
H121 C102 0.950 1_455 S
C122 O138 1.251 . S
C122 O140 1.254 1_545 S
N123 C124 1.333 . S
N123 C128 1.307 . S
N123 Zn129 2.020 . S
C124 N123 1.333 . S
C124 C125 1.379 . S
C124 H142 0.952 . S
C125 C124 1.379 . S
C125 C126 1.390 . S
C125 H152 0.949 . S
C126 C125 1.390 . S
C126 C127 1.357 . S
C127 C126 1.357 . S
C127 C128 1.370 . S
C127 H153 0.950 . S
C128 N123 1.307 . S
C128 C127 1.370 . S
C128 H146 0.948 . S
Zn129 N123 2.020 . S
Zn129 O138 2.039 . S
Zn129 O144 2.034 . S
Zn129 O148 2.025 . S
Zn129 O150 2.024 . S
C130 O149 1.246 1_545 S
C130 O150 1.249 . S
N131 C132 1.307 . S
N131 C133 1.333 . S
N131 Zn137 2.020 . S
C132 N131 1.307 . S
C132 C136 1.370 . S
C132 H143 0.948 . S
C133 N131 1.333 . S
C133 C134 1.379 . S
C133 H141 0.952 . S
C134 C133 1.379 . S
C134 C135 1.390 . S
C134 H154 0.949 . S
C135 C134 1.390 . S
C135 C136 1.357 . S
C136 C132 1.370 . S
C136 C135 1.357 . S
C136 H155 0.950 . S
Zn137 N131 2.020 . S
Zn137 O140 2.025 . S
Zn137 O145 2.024 1_565 S
Zn137 O147 2.039 1_565 S
Zn137 O149 2.034 . S
O138 C122 1.251 . S
O138 Zn129 2.039 . S
C139 O144 1.246 . S
C139 O145 1.249 . S
O140 C122 1.254 1_565 S
O140 Zn137 2.025 . S
H141 C133 0.952 . S
H142 C124 0.952 . S
H143 C132 0.948 . S
O144 Zn129 2.034 . S
O144 C139 1.246 . S
O145 Zn137 2.024 1_545 S
O145 C139 1.249 . S
H146 C128 0.948 . S
O147 Zn137 2.039 1_545 S
O147 C151 1.251 . S
O148 Zn129 2.025 . S
O148 C151 1.254 . S
O149 C130 1.246 1_565 S
O149 Zn137 2.034 . S
O150 Zn129 2.024 . S
O150 C130 1.249 . S
C151 O147 1.251 . S
C151 O148 1.254 . S
H152 C125 0.949 . S
H153 C127 0.950 . S
H154 C134 0.949 . S
H155 C136 0.950 . S
C156 O172 1.251 . S
C156 O174 1.254 . S
N157 C158 1.333 . S
N157 C162 1.307 . S
N157 Zn163 2.020 . S
C158 N157 1.333 . S
C158 C159 1.379 . S
C158 H176 0.952 . S
C159 C158 1.379 . S
C159 C160 1.390 . S
C159 H186 0.949 . S
C160 C159 1.390 . S
C160 C161 1.357 . S
C161 C160 1.357 . S
C161 C162 1.370 . S
C161 H187 0.950 . S
C162 N157 1.307 . S
C162 C161 1.370 . S
C162 H180 0.948 . S
Zn163 N157 2.020 . S
Zn163 O172 2.039 . S
Zn163 O178 2.034 . S
Zn163 O182 2.025 . S
Zn163 O184 2.024 . S
C164 O183 1.246 . S
C164 O184 1.249 . S
N165 C166 1.307 . S
N165 C167 1.333 . S
N165 Zn171 2.020 . S
C166 N165 1.307 . S
C166 C170 1.370 . S
C166 H177 0.948 . S
C167 N165 1.333 . S
C167 C168 1.379 . S
C167 H175 0.952 . S
C168 C167 1.379 . S
C168 C169 1.390 . S
C168 H188 0.949 . S
C169 C168 1.390 . S
C169 C170 1.357 . S
C170 C166 1.370 . S
C170 C169 1.357 . S
C170 H189 0.950 . S
Zn171 N165 2.020 . S
Zn171 O174 2.025 . S
Zn171 O179 2.024 . S
Zn171 O181 2.039 . S
Zn171 O183 2.034 . S
O172 C156 1.251 . S
O172 Zn163 2.039 . S
C173 O178 1.246 . S
C173 O179 1.249 . S
O174 C156 1.254 . S
O174 Zn171 2.025 . S
H175 C167 0.952 . S
H176 C158 0.952 . S
H177 C166 0.948 . S
O178 Zn163 2.034 . S
O178 C173 1.246 . S
O179 Zn171 2.024 . S
O179 C173 1.249 . S
H180 C162 0.948 . S
O181 Zn171 2.039 . S
O181 C185 1.251 . S
O182 Zn163 2.025 . S
O182 C185 1.254 . S
O183 C164 1.246 . S
O183 Zn171 2.034 . S
O184 Zn163 2.024 . S
O184 C164 1.249 . S
C185 O181 1.251 . S
C185 O182 1.254 . S
H186 C159 0.949 . S
H187 C161 0.950 . S
H188 C168 0.949 . S
H189 C170 0.950 . S
C190 O206 1.251 . S
C190 O208 1.254 1_554 S
N191 C192 1.333 . S
N191 C196 1.307 1_455 S
N191 Zn197 2.020 . S
C192 N191 1.333 . S
C192 C193 1.379 1_455 S
C192 H210 0.952 . S
C193 C192 1.379 1_655 S
C193 C194 1.390 . S
C193 H220 0.949 . S
C194 C193 1.390 . S
C194 C195 1.357 . S
C195 C194 1.357 . S
C195 C196 1.370 . S
C195 H221 0.950 . S
C196 N191 1.307 1_655 S
C196 C195 1.370 . S
C196 H214 0.948 . S
Zn197 N191 2.020 . S
Zn197 O206 2.039 . S
Zn197 O212 2.034 . S
Zn197 O216 2.025 . S
Zn197 O218 2.024 1_455 S
C198 O217 1.246 1_554 S
C198 O218 1.249 . S
N199 C200 1.307 . S
N199 C201 1.333 . S
N199 Zn205 2.020 . S
C200 N199 1.307 . S
C200 C204 1.370 . S
C200 H211 0.948 . S
C201 N199 1.333 . S
C201 C202 1.379 . S
C201 H209 0.952 . S
C202 C201 1.379 . S
C202 C203 1.390 . S
C202 H222 0.949 . S
C203 C202 1.390 . S
C203 C204 1.357 . S
C204 C200 1.370 . S
C204 C203 1.357 . S
C204 H223 0.950 . S
Zn205 N199 2.020 . S
Zn205 O208 2.025 . S
Zn205 O213 2.024 1_556 S
Zn205 O215 2.039 1_556 S
Zn205 O217 2.034 1_455 S
O206 C190 1.251 . S
O206 Zn197 2.039 . S
C207 O212 1.246 . S
C207 O213 1.249 . S
O208 C190 1.254 1_556 S
O208 Zn205 2.025 . S
H209 C201 0.952 . S
H210 C192 0.952 . S
H211 C200 0.948 . S
O212 Zn197 2.034 . S
O212 C207 1.246 . S
O213 Zn205 2.024 1_554 S
O213 C207 1.249 . S
H214 C196 0.948 . S
O215 Zn205 2.039 1_554 S
O215 C219 1.251 . S
O216 Zn197 2.025 . S
O216 C219 1.254 . S
O217 C198 1.246 1_556 S
O217 Zn205 2.034 1_655 S
O218 Zn197 2.024 1_655 S
O218 C198 1.249 . S
C219 O215 1.251 . S
C219 O216 1.254 . S
H220 C193 0.949 . S
H221 C195 0.950 . S
H222 C202 0.949 . S
H223 C204 0.950 . S
H224 C230 0.930 . S
H225 C233 0.930 . S
H226 C234 0.930 . S
H227 C235 0.930 . S
H228 C238 0.930 1_565 S
H229 C239 0.930 1_565 S
C230 H224 0.930 . S
C230 C231 1.355 . S
C230 C232 1.415 . S
C231 C230 1.355 . S
C231 C233 1.419 . S
C232 C230 1.415 . S
C232 C237 1.425 . S
C232 C239 1.409 . S
C233 H225 0.930 . S
C233 C231 1.419 . S
C233 C234 1.362 . S
C234 H226 0.930 . S
C234 C233 1.362 . S
C234 C237 1.409 . S
C235 H227 0.930 . S
C235 C236 1.355 . S
C235 C237 1.415 . S
C236 C235 1.355 . S
C236 C238 1.419 . S
C237 C232 1.425 . S
C237 C234 1.409 . S
C237 C235 1.415 . S
C238 H228 0.930 1_545 S
C238 C236 1.419 . S
C238 C239 1.362 . S
C239 H229 0.930 1_545 S
C239 C232 1.409 . S
C239 C238 1.362 . S
H240 C246 0.930 1_545 S
H241 C249 0.930 . S
H242 C250 0.930 . S
H243 C251 0.930 . S
H244 C254 0.930 . S
H245 C255 0.930 . S
C246 H240 0.930 1_565 S
C246 C247 1.355 . S
C246 C248 1.415 . S
C247 C246 1.355 . S
C247 C249 1.419 . S
C248 C246 1.415 . S
C248 C253 1.425 . S
C248 C255 1.409 1_565 S
C249 H241 0.930 . S
C249 C247 1.419 . S
C249 C250 1.362 . S
C250 H242 0.930 . S
C250 C249 1.362 . S
C250 C253 1.409 . S
C251 H243 0.930 . S
C251 C252 1.337 1_565 S
C251 C253 1.415 . S
C252 C251 1.337 1_545 S
C252 C254 1.436 . S
C253 C248 1.425 . S
C253 C250 1.409 . S
C253 C251 1.415 . S
C254 H244 0.930 . S
C254 C252 1.436 . S
C254 C255 1.362 . S
C255 H245 0.930 . S
C255 C248 1.409 1_545 S
C255 C254 1.362 . S
H256 C262 0.930 . S
H257 C265 0.930 . S
H258 C266 0.930 . S
H259 C267 0.930 . S
H260 C270 0.930 . S
H261 C271 0.930 . S
C262 H256 0.930 . S
C262 C263 1.355 . S
C262 C264 1.415 . S
C263 C262 1.355 . S
C263 C265 1.419 . S
C264 C262 1.415 . S
C264 C269 1.425 . S
C264 C271 1.409 . S
C265 H257 0.930 . S
C265 C263 1.419 . S
C265 C266 1.362 . S
C266 H258 0.930 . S
C266 C265 1.362 . S
C266 C269 1.409 . S
C267 H259 0.930 . S
C267 C268 1.355 . S
C267 C269 1.415 . S
C268 C267 1.355 . S
C268 C270 1.419 . S
C269 C264 1.425 . S
C269 C266 1.409 . S
C269 C267 1.415 . S
C270 H260 0.930 . S
C270 C268 1.419 . S
C270 C271 1.362 . S
C271 H261 0.930 . S
C271 C264 1.409 . S
C271 C270 1.362 . S
H272 C278 0.930 . S
H273 C281 0.930 . S
H274 C282 0.919 1_455 S
H275 C283 0.930 . S
H276 C286 0.930 . S
H277 C287 0.930 . S
C278 H272 0.930 . S
C278 C279 1.355 . S
C278 C280 1.415 . S
C279 C278 1.355 . S
C279 C281 1.419 . S
C280 C278 1.415 . S
C280 C285 1.425 . S
C280 C287 1.409 . S
C281 H273 0.930 . S
C281 C279 1.419 . S
C281 C282 1.362 . S
C282 H274 0.919 1_655 S
C282 C281 1.362 . S
C282 C285 1.409 . S
C283 H275 0.930 . S
C283 C284 1.355 . S
C283 C285 1.415 . S
C284 C283 1.355 . S
C284 C286 1.419 . S
C285 C280 1.425 . S
C285 C282 1.409 . S
C285 C283 1.415 . S
C286 H276 0.930 . S
C286 C284 1.419 . S
C286 C287 1.362 . S
C287 H277 0.930 . S
C287 C280 1.409 . S
C287 C286 1.362 . S
H288 C294 0.930 . S
H289 C297 0.930 . S
H290 C298 0.930 . S
H291 C299 0.930 . S
H292 C302 0.930 . S
H293 C303 0.930 . S
C294 H288 0.930 . S
C294 C295 1.355 . S
C294 C296 1.415 . S
C295 C294 1.355 . S
C295 C297 1.419 . S
C296 C294 1.415 . S
C296 C301 1.425 . S
C296 C303 1.409 . S
C297 H289 0.930 . S
C297 C295 1.419 . S
C297 C298 1.362 . S
C298 H290 0.930 . S
C298 C297 1.362 . S
C298 C301 1.409 . S
C299 H291 0.930 . S
C299 C300 1.355 . S
C299 C301 1.415 . S
C300 C299 1.355 . S
C300 C302 1.419 . S
C301 C296 1.425 . S
C301 C298 1.409 . S
C301 C299 1.415 . S
C302 H292 0.930 . S
C302 C300 1.419 . S
C302 C303 1.362 . S
C303 H293 0.930 . S
C303 C296 1.409 . S
C303 C302 1.362 . S
H304 C310 0.930 . S
H305 C313 0.930 . S
H306 C314 0.930 . S
H307 C315 0.930 . S
H308 C318 0.930 . S
H309 C319 0.930 . S
C310 H304 0.930 . S
C310 C311 1.355 . S
C310 C312 1.415 . S
C311 C310 1.355 . S
C311 C313 1.419 . S
C312 C310 1.415 . S
C312 C317 1.425 . S
C312 C319 1.409 . S
C313 H305 0.930 . S
C313 C311 1.419 . S
C313 C314 1.362 . S
C314 H306 0.930 . S
C314 C313 1.362 . S
C314 C317 1.409 . S
C315 H307 0.930 . S
C315 C316 1.355 . S
C315 C317 1.415 . S
C316 C315 1.355 . S
C316 C318 1.419 . S
C317 C312 1.425 . S
C317 C314 1.409 . S
C317 C315 1.415 . S
C318 H308 0.930 . S
C318 C316 1.419 . S
C318 C319 1.362 . S
C319 H309 0.930 . S
C319 C312 1.409 . S
C319 C318 1.362 . S
H320 C326 0.930 . S
H321 C329 0.930 . S
H322 C330 0.930 . S
H323 C331 0.930 . S
H324 C334 0.930 . S
H325 C335 0.930 . S
C326 H320 0.930 . S
C326 C327 1.355 . S
C326 C328 1.415 . S
C327 C326 1.355 . S
C327 C329 1.419 1_554 S
C328 C326 1.415 . S
C328 C333 1.425 1_554 S
C328 C335 1.409 . S
C329 H321 0.930 . S
C329 C327 1.419 1_556 S
C329 C330 1.362 . S
C330 H322 0.930 . S
C330 C329 1.362 . S
C330 C333 1.409 . S
C331 H323 0.930 . S
C331 C332 1.355 1_556 S
C331 C333 1.415 . S
C332 C331 1.355 1_554 S
C332 C334 1.419 . S
C333 C328 1.425 1_556 S
C333 C330 1.409 . S
C333 C331 1.415 . S
C334 H324 0.930 . S
C334 C332 1.419 . S
C334 C335 1.362 . S
C335 H325 0.930 . S
C335 C328 1.409 . S
C335 C334 1.362 . S
H336 C342 0.930 . S
H337 C345 0.930 . S
H338 C346 0.930 . S
H339 C347 0.930 . S
H340 C350 0.930 . S
H341 C351 0.930 . S
C342 H336 0.930 . S
C342 C343 1.355 . S
C342 C344 1.415 . S
C343 C342 1.355 . S
C343 C345 1.419 . S
C344 C342 1.415 . S
C344 C349 1.425 . S
C344 C351 1.409 . S
C345 H337 0.930 . S
C345 C343 1.419 . S
C345 C346 1.362 . S
C346 H338 0.930 . S
C346 C345 1.362 . S
C346 C349 1.409 . S
C347 H339 0.930 . S
C347 C348 1.355 . S
C347 C349 1.415 . S
C348 C347 1.355 . S
C348 C350 1.419 . S
C349 C344 1.425 . S
C349 C346 1.409 . S
C349 C347 1.415 . S
C350 H340 0.930 . S
C350 C348 1.419 . S
C350 C351 1.362 . S
C351 H341 0.930 . S
C351 C344 1.409 . S
C351 C350 1.362 . S
H352 C358 0.930 . S
H353 C361 0.930 . S
H354 C362 0.930 . S
H355 C363 0.930 . S
H356 C366 0.930 . S
H357 C367 0.930 . S
C358 H352 0.930 . S
C358 C359 1.355 . S
C358 C360 1.415 . S
C359 C358 1.355 . S
C359 C361 1.419 . S
C360 C358 1.415 . S
C360 C365 1.425 . S
C360 C367 1.409 . S
C361 H353 0.930 . S
C361 C359 1.419 . S
C361 C362 1.362 . S
C362 H354 0.930 . S
C362 C361 1.362 . S
C362 C365 1.409 . S
C363 H355 0.930 . S
C363 C364 1.355 . S
C363 C365 1.415 . S
C364 C363 1.355 . S
C364 C366 1.419 . S
C365 C360 1.425 . S
C365 C362 1.409 . S
C365 C363 1.415 . S
C366 H356 0.930 . S
C366 C364 1.419 . S
C366 C367 1.362 . S
C367 H357 0.930 . S
C367 C360 1.409 . S
C367 C366 1.362 . S
H368 C374 0.930 . S
H369 C377 0.930 . S
H370 C378 0.930 1_556 S
H371 C379 0.930 . S
H372 C382 0.930 . S
H373 C383 0.930 . S
C374 H368 0.930 . S
C374 C375 1.355 . S
C374 C376 1.415 . S
C375 C374 1.355 . S
C375 C377 1.419 . S
C376 C374 1.415 . S
C376 C381 1.425 . S
C376 C383 1.409 . S
C377 H369 0.930 . S
C377 C375 1.419 . S
C377 C378 1.362 . S
C378 H370 0.930 1_554 S
C378 C377 1.362 . S
C378 C381 1.409 . S
C379 H371 0.930 . S
C379 C380 1.355 . S
C379 C381 1.415 . S
C380 C379 1.355 . S
C380 C382 1.419 . S
C381 C376 1.425 . S
C381 C378 1.409 . S
C381 C379 1.415 . S
C382 H372 0.930 . S
C382 C380 1.419 . S
C382 C383 1.362 . S
C383 H373 0.930 . S
C383 C376 1.409 . S
C383 C382 1.362 . S
H384 C390 0.930 . S
H385 C393 0.930 . S
H386 C394 0.930 . S
H387 C395 0.930 . S
H388 C398 0.930 1_455 S
H389 C399 0.930 1_455 S
C390 H384 0.930 . S
C390 C391 1.355 . S
C390 C392 1.415 . S
C391 C390 1.355 . S
C391 C393 1.419 . S
C392 C390 1.415 . S
C392 C397 1.425 . S
C392 C399 1.409 . S
C393 H385 0.930 . S
C393 C391 1.419 . S
C393 C394 1.362 . S
C394 H386 0.930 . S
C394 C393 1.362 . S
C394 C397 1.409 . S
C395 H387 0.930 . S
C395 C396 1.355 . S
C395 C397 1.415 . S
C396 C395 1.355 . S
C396 C398 1.419 . S
C397 C392 1.425 . S
C397 C394 1.409 . S
C397 C395 1.415 . S
C398 H388 0.930 1_655 S
C398 C396 1.419 . S
C398 C399 1.362 . S
C399 H389 0.930 1_655 S
C399 C392 1.409 . S
C399 C398 1.362 . S
H400 C406 0.930 . S
H401 C409 0.930 . S
H402 C410 0.930 . S
H403 C411 0.930 . S
H404 C414 0.930 . S
H405 C415 0.930 . S
C406 H400 0.930 . S
C406 C407 1.355 . S
C406 C408 1.415 . S
C407 C406 1.355 . S
C407 C409 1.419 . S
C408 C406 1.415 . S
C408 C413 1.425 . S
C408 C415 1.409 . S
C409 H401 0.930 . S
C409 C407 1.419 . S
C409 C410 1.362 . S
C410 H402 0.930 . S
C410 C409 1.362 . S
C410 C413 1.409 . S
C411 H403 0.930 . S
C411 C412 1.355 . S
C411 C413 1.415 . S
C412 C411 1.355 . S
C412 C414 1.419 . S
C413 C408 1.425 . S
C413 C410 1.409 . S
C413 C411 1.415 . S
C414 H404 0.930 . S
C414 C412 1.419 . S
C414 C415 1.362 . S
C415 H405 0.930 . S
C415 C408 1.409 . S
C415 C414 1.362 . S
H416 C422 0.930 . S
H417 C425 0.930 . S
H418 C426 0.930 . S
H419 C427 0.930 . S
H420 C430 0.926 1_545 S
H421 C431 0.934 . S
C422 H416 0.930 . S
C422 C423 1.355 . S
C422 C424 1.415 . S
C423 C422 1.355 . S
C423 C425 1.419 . S
C424 C422 1.415 . S
C424 C429 1.425 . S
C424 C431 1.409 1_655 S
C425 H417 0.930 . S
C425 C423 1.419 . S
C425 C426 1.362 . S
C426 H418 0.930 . S
C426 C425 1.362 . S
C426 C429 1.409 . S
C427 H419 0.930 . S
C427 C428 1.355 . S
C427 C429 1.415 . S
C428 C427 1.355 . S
C428 C430 1.421 1_655 S
C429 C424 1.425 . S
C429 C426 1.409 . S
C429 C427 1.415 . S
C430 H420 0.926 1_565 S
C430 C428 1.421 1_455 S
C430 C431 1.365 . S
C431 H421 0.934 . S
C431 C424 1.409 1_455 S
C431 C430 1.365 . S
H432 C438 0.930 . S
H433 C441 0.930 . S
H434 C442 0.930 . S
H435 C443 0.930 . S
H436 C446 0.930 . S
H437 C447 0.930 . S
C438 H432 0.930 . S
C438 C439 1.355 . S
C438 C440 1.415 . S
C439 C438 1.355 . S
C439 C441 1.419 . S
C440 C438 1.415 . S
C440 C445 1.425 . S
C440 C447 1.409 . S
C441 H433 0.930 . S
C441 C439 1.419 . S
C441 C442 1.362 . S
C442 H434 0.930 . S
C442 C441 1.362 . S
C442 C445 1.409 . S
C443 H435 0.930 . S
C443 C444 1.355 . S
C443 C445 1.415 . S
C444 C443 1.355 . S
C444 C446 1.419 . S
C445 C440 1.425 . S
C445 C442 1.409 . S
C445 C443 1.415 . S
C446 H436 0.930 . S
C446 C444 1.419 . S
C446 C447 1.362 . S
C447 H437 0.930 . S
C447 C440 1.409 . S
C447 C446 1.362 . S
H448 C454 0.930 . S
H449 C457 0.930 . S
H450 C458 0.930 . S
H451 C459 0.930 . S
H452 C462 0.930 . S
H453 C463 0.930 . S
C454 H448 0.930 . S
C454 C455 1.355 . S
C454 C456 1.415 . S
C455 C454 1.355 . S
C455 C457 1.419 . S
C456 C454 1.415 . S
C456 C461 1.425 . S
C456 C463 1.409 . S
C457 H449 0.930 . S
C457 C455 1.419 . S
C457 C458 1.362 . S
C458 H450 0.930 . S
C458 C457 1.362 . S
C458 C461 1.409 . S
C459 H451 0.930 . S
C459 C460 1.355 . S
C459 C461 1.415 . S
C460 C459 1.355 . S
C460 C462 1.419 . S
C461 C456 1.425 . S
C461 C458 1.409 . S
C461 C459 1.415 . S
C462 H452 0.930 . S
C462 C460 1.419 . S
C462 C463 1.362 . S
C463 H453 0.930 . S
C463 C456 1.409 . S
C463 C462 1.362 . S
H464 C470 0.930 . S
H465 C473 0.930 . S
H466 C474 0.930 . S
H467 C475 0.930 . S
H468 C478 0.930 . S
H469 C479 0.930 . S
C470 H464 0.930 . S
C470 C471 1.355 . S
C470 C472 1.415 . S
C471 C470 1.355 . S
C471 C473 1.419 . S
C472 C470 1.415 . S
C472 C477 1.425 . S
C472 C479 1.409 . S
C473 H465 0.930 . S
C473 C471 1.419 . S
C473 C474 1.362 . S
C474 H466 0.930 . S
C474 C473 1.362 . S
C474 C477 1.409 . S
C475 H467 0.930 . S
C475 C476 1.355 . S
C475 C477 1.415 . S
C476 C475 1.355 . S
C476 C478 1.419 . S
C477 C472 1.425 . S
C477 C474 1.409 . S
C477 C475 1.415 . S
C478 H468 0.930 . S
C478 C476 1.419 . S
C478 C479 1.362 . S
C479 H469 0.930 . S
C479 C472 1.409 . S
C479 C478 1.362 . S
H480 C486 0.930 . S
H481 C489 0.930 . S
H482 C490 0.934 . S
H483 C491 0.930 1_545 S
H484 C494 0.930 . S
H485 C495 0.930 . S
C486 H480 0.930 . S
C486 C487 1.355 . S
C486 C488 1.415 . S
C487 C486 1.355 . S
C487 C489 1.419 1_556 S
C488 C486 1.415 . S
C488 C493 1.425 1_556 S
C488 C495 1.409 . S
C489 H481 0.930 . S
C489 C487 1.419 1_554 S
C489 C490 1.362 . S
C490 H482 0.934 . S
C490 C489 1.362 . S
C490 C493 1.409 . S
C491 H483 0.930 1_565 S
C491 C492 1.355 . S
C491 C493 1.415 . S
C492 C491 1.355 . S
C492 C494 1.419 1_554 S
C493 C488 1.425 1_554 S
C493 C490 1.409 . S
C493 C491 1.415 . S
C494 H484 0.930 . S
C494 C492 1.419 1_556 S
C494 C495 1.362 . S
C495 H485 0.930 . S
C495 C488 1.409 . S
C495 C494 1.362 . S
H496 C502 0.930 . S
H497 C505 0.930 . S
H498 C506 0.930 . S
H499 C507 0.930 . S
H500 C510 0.930 . S
H501 C511 0.930 . S
C502 H496 0.930 . S
C502 C503 1.355 . S
C502 C504 1.415 . S
C503 C502 1.355 . S
C503 C505 1.419 . S
C504 C502 1.415 . S
C504 C509 1.425 . S
C504 C511 1.409 . S
C505 H497 0.930 . S
C505 C503 1.419 . S
C505 C506 1.362 . S
C506 H498 0.930 . S
C506 C505 1.362 . S
C506 C509 1.409 . S
C507 H499 0.930 . S
C507 C508 1.355 . S
C507 C509 1.415 . S
C508 C507 1.355 . S
C508 C510 1.419 . S
C509 C504 1.425 . S
C509 C506 1.409 . S
C509 C507 1.415 . S
C510 H500 0.930 . S
C510 C508 1.419 . S
C510 C511 1.362 . S
C511 H501 0.930 . S
C511 C504 1.409 . S
C511 C510 1.362 . S
H512 C518 0.930 . S
H513 C521 0.930 . S
H514 C522 0.930 . S
H515 C523 0.930 . S
H516 C526 0.930 . S
H517 C527 0.930 . S
C518 H512 0.930 . S
C518 C519 1.355 . S
C518 C520 1.415 . S
C519 C518 1.355 . S
C519 C521 1.419 . S
C520 C518 1.415 . S
C520 C525 1.425 . S
C520 C527 1.409 . S
C521 H513 0.930 . S
C521 C519 1.419 . S
C521 C522 1.362 . S
C522 H514 0.930 . S
C522 C521 1.362 . S
C522 C525 1.409 . S
C523 H515 0.930 . S
C523 C524 1.355 . S
C523 C525 1.415 . S
C524 C523 1.355 . S
C524 C526 1.419 . S
C525 C520 1.425 . S
C525 C522 1.409 . S
C525 C523 1.415 . S
C526 H516 0.930 . S
C526 C524 1.419 . S
C526 C527 1.362 . S
C527 H517 0.930 . S
C527 C520 1.409 . S
C527 C526 1.362 . S
H528 C534 0.930 . S
H529 C537 0.930 . S
H530 C538 0.930 . S
H531 C539 0.930 . S
H532 C542 0.930 . S
H533 C543 0.930 . S
C534 H528 0.930 . S
C534 C535 1.355 . S
C534 C536 1.415 . S
C535 C534 1.355 . S
C535 C537 1.419 . S
C536 C534 1.415 . S
C536 C541 1.425 . S
C536 C543 1.409 . S
C537 H529 0.930 . S
C537 C535 1.419 . S
C537 C538 1.362 . S
C538 H530 0.930 . S
C538 C537 1.362 . S
C538 C541 1.409 . S
C539 H531 0.930 . S
C539 C540 1.355 . S
C539 C541 1.415 . S
C540 C539 1.355 . S
C540 C542 1.419 . S
C541 C536 1.425 . S
C541 C538 1.409 . S
C541 C539 1.415 . S
C542 H532 0.930 . S
C542 C540 1.419 . S
C542 C543 1.362 . S
C543 H533 0.930 . S
C543 C536 1.409 . S
C543 C542 1.362 . S
H544 C550 0.930 1_455 S
H545 C553 0.930 . S
H546 C554 0.930 . S
H547 C555 0.930 . S
H548 C558 0.930 . S
H549 C559 0.930 . S
C550 H544 0.930 1_655 S
C550 C551 1.355 . S
C550 C552 1.416 . S
C551 C550 1.355 . S
C551 C553 1.419 1_556 S
C552 C550 1.416 . S
C552 C557 1.429 . S
C552 C559 1.405 1_655 S
C553 H545 0.930 . S
C553 C551 1.419 1_554 S
C553 C554 1.362 . S
C554 H546 0.930 . S
C554 C553 1.362 . S
C554 C557 1.409 1_554 S
C555 H547 0.930 . S
C555 C556 1.355 1_654 S
C555 C557 1.415 1_554 S
C556 C555 1.355 1_456 S
C556 C558 1.419 . S
C557 C552 1.429 . S
C557 C554 1.409 1_556 S
C557 C555 1.415 1_556 S
C558 H548 0.930 . S
C558 C556 1.419 . S
C558 C559 1.362 . S
C559 H549 0.930 . S
C559 C552 1.405 1_455 S
C559 C558 1.362 . S
H560 C566 0.930 . S
H561 C569 0.930 . S
H562 C570 0.930 . S
H563 C571 0.930 . S
H564 C574 0.930 . S
H565 C575 0.930 . S
C566 H560 0.930 . S
C566 C567 1.355 . S
C566 C568 1.415 . S
C567 C566 1.355 . S
C567 C569 1.419 . S
C568 C566 1.415 . S
C568 C573 1.425 . S
C568 C575 1.409 . S
C569 H561 0.930 . S
C569 C567 1.419 . S
C569 C570 1.362 . S
C570 H562 0.930 . S
C570 C569 1.362 . S
C570 C573 1.409 . S
C571 H563 0.930 . S
C571 C572 1.355 . S
C571 C573 1.415 . S
C572 C571 1.355 . S
C572 C574 1.419 . S
C573 C568 1.425 . S
C573 C570 1.409 . S
C573 C571 1.415 . S
C574 H564 0.930 . S
C574 C572 1.419 . S
C574 C575 1.362 . S
C575 H565 0.930 . S
C575 C568 1.409 . S
C575 C574 1.362 . S
H576 C582 0.930 . S
H577 C585 0.930 . S
H578 C586 0.930 . S
H579 C587 0.930 . S
H580 C590 0.930 . S
H581 C591 0.930 . S
C582 H576 0.930 . S
C582 C583 1.355 . S
C582 C584 1.415 . S
C583 C582 1.355 . S
C583 C585 1.419 . S
C584 C582 1.415 . S
C584 C589 1.425 . S
C584 C591 1.409 . S
C585 H577 0.930 . S
C585 C583 1.419 . S
C585 C586 1.362 . S
C586 H578 0.930 . S
C586 C585 1.362 . S
C586 C589 1.409 . S
C587 H579 0.930 . S
C587 C588 1.355 . S
C587 C589 1.415 . S
C588 C587 1.355 . S
C588 C590 1.419 . S
C589 C584 1.425 . S
C589 C586 1.409 . S
C589 C587 1.415 . S
C590 H580 0.930 . S
C590 C588 1.419 . S
C590 C591 1.362 . S
C591 H581 0.930 . S
C591 C584 1.409 . S
C591 C590 1.362 . S
H592 C598 0.930 . S
H593 C601 0.930 . S
H594 C602 0.930 . S
H595 C603 0.930 . S
H596 C606 0.930 . S
H597 C607 0.930 . S
C598 H592 0.930 . S
C598 C599 1.355 . S
C598 C600 1.415 . S
C599 C598 1.355 . S
C599 C601 1.419 . S
C600 C598 1.415 . S
C600 C605 1.425 . S
C600 C607 1.409 . S
C601 H593 0.930 . S
C601 C599 1.419 . S
C601 C602 1.362 . S
C602 H594 0.930 . S
C602 C601 1.362 . S
C602 C605 1.409 . S
C603 H595 0.930 . S
C603 C604 1.355 . S
C603 C605 1.415 . S
C604 C603 1.355 . S
C604 C606 1.419 . S
C605 C600 1.425 . S
C605 C602 1.409 . S
C605 C603 1.415 . S
C606 H596 0.930 . S
C606 C604 1.419 . S
C606 C607 1.362 . S
C607 H597 0.930 . S
C607 C600 1.409 . S
C607 C606 1.362 . S
C231 C5 2.478 . S
C236 C88 2.613 . S
C247 C18 2.219 . S
C252 C130 2.391 1_556 S
C268 C160 0.841 . S
C263 C30 0.814 . S
C279 C41 0.885 . S
C284 C194 0.879 . S
C300 C151 2.098 . S
C295 C7 2.037 . S
C316 C105 2.115 . S
C311 C16 1.755 . S
C332 C198 1.393 . S
C327 C29 1.253 1_554 S
C348 C164 0.948 . S
C343 C38 0.985 . S
C359 C8 2.257 . S
C364 C219 2.247 . S
C380 C126 1.283 . S
C375 C27 1.091 . S
C391 C40 1.108 . S
C396 C101 1.083 . S
C407 C19 1.759 . S
C412 C185 1.822 . S
C428 C117 2.426 1_565 S
C423 C51 2.389 . S
C439 C62 2.357 . S
C444 C139 2.460 . S
C455 C74 0.874 . S
C460 C169 0.922 . S
C471 C84 0.986 . S
C476 C203 1.008 . S
C487 C49 2.020 . S
C492 C122 2.180 1_565 S
C508 C96 1.838 . S
C503 C63 1.800 . S
C524 C207 1.320 . S
C519 C71 1.130 . S
C540 C173 1.043 . S
C535 C85 0.953 . S
C551 C52 2.234 . S
C556 C190 2.233 1_556 S
C572 C135 1.309 . S
C567 C73 1.128 . S
C588 C92 1.071 . S
C583 C82 0.917 . S
C599 C60 2.015 . S
C604 C156 2.339 . S
