# Generated by pormake.
# Topology gar, (4,6)-cn, num edge types: 1
# Building blocks:
#     Node 0, Type 0, BuildingBlock: UXUYUI_clean_sbu_0, # of connection points: 4
#     Node 1, Type 0, BuildingBlock: UXUYUI_clean_sbu_0, # of connection points: 4
#     Node 2, Type 0, BuildingBlock: UXUYUI_clean_sbu_0, # of connection points: 4
#     Node 3, Type 0, BuildingBlock: UXUYUI_clean_sbu_0, # of connection points: 4
#     Node 4, Type 0, BuildingBlock: UXUYUI_clean_sbu_0, # of connection points: 4
#     Node 5, Type 0, BuildingBlock: UXUYUI_clean_sbu_0, # of connection points: 4
#     Node 6, Type 0, BuildingBlock: UXUYUI_clean_sbu_0, # of connection points: 4
#     Node 7, Type 0, BuildingBlock: UXUYUI_clean_sbu_0, # of connection points: 4
#     Node 8, Type 0, BuildingBlock: UXUYUI_clean_sbu_0, # of connection points: 4
#     Node 9, Type 0, BuildingBlock: UXUYUI_clean_sbu_0, # of connection points: 4
#     Node 10, Type 0, BuildingBlock: UXUYUI_clean_sbu_0, # of connection points: 4
#     Node 11, Type 0, BuildingBlock: UXUYUI_clean_sbu_0, # of connection points: 4
#     Node 12, Type 0, BuildingBlock: UXUYUI_clean_sbu_0, # of connection points: 4
#     Node 13, Type 0, BuildingBlock: UXUYUI_clean_sbu_0, # of connection points: 4
#     Node 14, Type 0, BuildingBlock: UXUYUI_clean_sbu_0, # of connection points: 4
#     Node 15, Type 0, BuildingBlock: UXUYUI_clean_sbu_0, # of connection points: 4
#     Node 16, Type 0, BuildingBlock: UXUYUI_clean_sbu_0, # of connection points: 4
#     Node 17, Type 0, BuildingBlock: UXUYUI_clean_sbu_0, # of connection points: 4
#     Node 18, Type 0, BuildingBlock: UXUYUI_clean_sbu_0, # of connection points: 4
#     Node 19, Type 0, BuildingBlock: UXUYUI_clean_sbu_0, # of connection points: 4
#     Node 20, Type 0, BuildingBlock: UXUYUI_clean_sbu_0, # of connection points: 4
#     Node 21, Type 0, BuildingBlock: UXUYUI_clean_sbu_0, # of connection points: 4
#     Node 22, Type 0, BuildingBlock: UXUYUI_clean_sbu_0, # of connection points: 4
#     Node 23, Type 0, BuildingBlock: UXUYUI_clean_sbu_0, # of connection points: 4
#     Node 24, Type 1, BuildingBlock: BETDEL_clean_sbu_0, # of connection points: 6
#     Node 25, Type 1, BuildingBlock: BETDEL_clean_sbu_0, # of connection points: 6
#     Node 26, Type 1, BuildingBlock: BETDEL_clean_sbu_0, # of connection points: 6
#     Node 27, Type 1, BuildingBlock: BETDEL_clean_sbu_0, # of connection points: 6
#     Node 28, Type 1, BuildingBlock: BETDEL_clean_sbu_0, # of connection points: 6
#     Node 29, Type 1, BuildingBlock: BETDEL_clean_sbu_0, # of connection points: 6
#     Node 30, Type 1, BuildingBlock: BETDEL_clean_sbu_0, # of connection points: 6
#     Node 31, Type 1, BuildingBlock: BETDEL_clean_sbu_0, # of connection points: 6
#     Node 32, Type 1, BuildingBlock: BETDEL_clean_sbu_0, # of connection points: 6
#     Node 33, Type 1, BuildingBlock: BETDEL_clean_sbu_0, # of connection points: 6
#     Node 34, Type 1, BuildingBlock: BETDEL_clean_sbu_0, # of connection points: 6
#     Node 35, Type 1, BuildingBlock: BETDEL_clean_sbu_0, # of connection points: 6
#     Node 36, Type 1, BuildingBlock: BETDEL_clean_sbu_0, # of connection points: 6
#     Node 37, Type 1, BuildingBlock: BETDEL_clean_sbu_0, # of connection points: 6
#     Node 38, Type 1, BuildingBlock: BETDEL_clean_sbu_0, # of connection points: 6
#     Node 39, Type 1, BuildingBlock: BETDEL_clean_sbu_0, # of connection points: 6
#     Edge 40, Type (0, 1), BuildingBlock: MIFKUJ_clean_linker_0, # of connection points: 2
#     Edge 41, Type (0, 1), BuildingBlock: MIFKUJ_clean_linker_0, # of connection points: 2
#     Edge 42, Type (0, 1), BuildingBlock: MIFKUJ_clean_linker_0, # of connection points: 2
#     Edge 43, Type (0, 1), BuildingBlock: MIFKUJ_clean_linker_0, # of connection points: 2
#     Edge 44, Type (0, 1), BuildingBlock: MIFKUJ_clean_linker_0, # of connection points: 2
#     Edge 45, Type (0, 1), BuildingBlock: MIFKUJ_clean_linker_0, # of connection points: 2
#     Edge 46, Type (0, 1), BuildingBlock: MIFKUJ_clean_linker_0, # of connection points: 2
#     Edge 47, Type (0, 1), BuildingBlock: MIFKUJ_clean_linker_0, # of connection points: 2
#     Edge 48, Type (0, 1), BuildingBlock: MIFKUJ_clean_linker_0, # of connection points: 2
#     Edge 49, Type (0, 1), BuildingBlock: MIFKUJ_clean_linker_0, # of connection points: 2
#     Edge 50, Type (0, 1), BuildingBlock: MIFKUJ_clean_linker_0, # of connection points: 2
#     Edge 51, Type (0, 1), BuildingBlock: MIFKUJ_clean_linker_0, # of connection points: 2
#     Edge 52, Type (0, 1), BuildingBlock: MIFKUJ_clean_linker_0, # of connection points: 2
#     Edge 53, Type (0, 1), BuildingBlock: MIFKUJ_clean_linker_0, # of connection points: 2
#     Edge 54, Type (0, 1), BuildingBlock: MIFKUJ_clean_linker_0, # of connection points: 2
#     Edge 55, Type (0, 1), BuildingBlock: MIFKUJ_clean_linker_0, # of connection points: 2
#     Edge 56, Type (0, 1), BuildingBlock: MIFKUJ_clean_linker_0, # of connection points: 2
#     Edge 57, Type (0, 1), BuildingBlock: MIFKUJ_clean_linker_0, # of connection points: 2
#     Edge 58, Type (0, 1), BuildingBlock: MIFKUJ_clean_linker_0, # of connection points: 2
#     Edge 59, Type (0, 1), BuildingBlock: MIFKUJ_clean_linker_0, # of connection points: 2
#     Edge 60, Type (0, 1), BuildingBlock: MIFKUJ_clean_linker_0, # of connection points: 2
#     Edge 61, Type (0, 1), BuildingBlock: MIFKUJ_clean_linker_0, # of connection points: 2
#     Edge 62, Type (0, 1), BuildingBlock: MIFKUJ_clean_linker_0, # of connection points: 2
#     Edge 63, Type (0, 1), BuildingBlock: MIFKUJ_clean_linker_0, # of connection points: 2
#     Edge 64, Type (0, 1), BuildingBlock: MIFKUJ_clean_linker_0, # of connection points: 2
#     Edge 65, Type (0, 1), BuildingBlock: MIFKUJ_clean_linker_0, # of connection points: 2
#     Edge 66, Type (0, 1), BuildingBlock: MIFKUJ_clean_linker_0, # of connection points: 2
#     Edge 67, Type (0, 1), BuildingBlock: MIFKUJ_clean_linker_0, # of connection points: 2
#     Edge 68, Type (0, 1), BuildingBlock: MIFKUJ_clean_linker_0, # of connection points: 2
#     Edge 69, Type (0, 1), BuildingBlock: MIFKUJ_clean_linker_0, # of connection points: 2
#     Edge 70, Type (0, 1), BuildingBlock: MIFKUJ_clean_linker_0, # of connection points: 2
#     Edge 71, Type (0, 1), BuildingBlock: MIFKUJ_clean_linker_0, # of connection points: 2
#     Edge 72, Type (0, 1), BuildingBlock: MIFKUJ_clean_linker_0, # of connection points: 2
#     Edge 73, Type (0, 1), BuildingBlock: MIFKUJ_clean_linker_0, # of connection points: 2
#     Edge 74, Type (0, 1), BuildingBlock: MIFKUJ_clean_linker_0, # of connection points: 2
#     Edge 75, Type (0, 1), BuildingBlock: MIFKUJ_clean_linker_0, # of connection points: 2
#     Edge 76, Type (0, 1), BuildingBlock: MIFKUJ_clean_linker_0, # of connection points: 2
#     Edge 77, Type (0, 1), BuildingBlock: MIFKUJ_clean_linker_0, # of connection points: 2
#     Edge 78, Type (0, 1), BuildingBlock: MIFKUJ_clean_linker_0, # of connection points: 2
#     Edge 79, Type (0, 1), BuildingBlock: MIFKUJ_clean_linker_0, # of connection points: 2
#     Edge 80, Type (0, 1), BuildingBlock: MIFKUJ_clean_linker_0, # of connection points: 2
#     Edge 81, Type (0, 1), BuildingBlock: MIFKUJ_clean_linker_0, # of connection points: 2
#     Edge 82, Type (0, 1), BuildingBlock: MIFKUJ_clean_linker_0, # of connection points: 2
#     Edge 83, Type (0, 1), BuildingBlock: MIFKUJ_clean_linker_0, # of connection points: 2
#     Edge 84, Type (0, 1), BuildingBlock: MIFKUJ_clean_linker_0, # of connection points: 2
#     Edge 85, Type (0, 1), BuildingBlock: MIFKUJ_clean_linker_0, # of connection points: 2
#     Edge 86, Type (0, 1), BuildingBlock: MIFKUJ_clean_linker_0, # of connection points: 2
#     Edge 87, Type (0, 1), BuildingBlock: MIFKUJ_clean_linker_0, # of connection points: 2
#     Edge 88, Type (0, 1), BuildingBlock: MIFKUJ_clean_linker_0, # of connection points: 2
#     Edge 89, Type (0, 1), BuildingBlock: MIFKUJ_clean_linker_0, # of connection points: 2
#     Edge 90, Type (0, 1), BuildingBlock: MIFKUJ_clean_linker_0, # of connection points: 2
#     Edge 91, Type (0, 1), BuildingBlock: MIFKUJ_clean_linker_0, # of connection points: 2
#     Edge 92, Type (0, 1), BuildingBlock: MIFKUJ_clean_linker_0, # of connection points: 2
#     Edge 93, Type (0, 1), BuildingBlock: MIFKUJ_clean_linker_0, # of connection points: 2
#     Edge 94, Type (0, 1), BuildingBlock: MIFKUJ_clean_linker_0, # of connection points: 2
#     Edge 95, Type (0, 1), BuildingBlock: MIFKUJ_clean_linker_0, # of connection points: 2
#     Edge 96, Type (0, 1), BuildingBlock: MIFKUJ_clean_linker_0, # of connection points: 2
#     Edge 97, Type (0, 1), BuildingBlock: MIFKUJ_clean_linker_0, # of connection points: 2
#     Edge 98, Type (0, 1), BuildingBlock: MIFKUJ_clean_linker_0, # of connection points: 2
#     Edge 99, Type (0, 1), BuildingBlock: MIFKUJ_clean_linker_0, # of connection points: 2
#     Edge 100, Type (0, 1), BuildingBlock: MIFKUJ_clean_linker_0, # of connection points: 2
#     Edge 101, Type (0, 1), BuildingBlock: MIFKUJ_clean_linker_0, # of connection points: 2
#     Edge 102, Type (0, 1), BuildingBlock: MIFKUJ_clean_linker_0, # of connection points: 2
#     Edge 103, Type (0, 1), BuildingBlock: MIFKUJ_clean_linker_0, # of connection points: 2
#     Edge 104, Type (0, 1), BuildingBlock: MIFKUJ_clean_linker_0, # of connection points: 2
#     Edge 105, Type (0, 1), BuildingBlock: MIFKUJ_clean_linker_0, # of connection points: 2
#     Edge 106, Type (0, 1), BuildingBlock: MIFKUJ_clean_linker_0, # of connection points: 2
#     Edge 107, Type (0, 1), BuildingBlock: MIFKUJ_clean_linker_0, # of connection points: 2
#     Edge 108, Type (0, 1), BuildingBlock: MIFKUJ_clean_linker_0, # of connection points: 2
#     Edge 109, Type (0, 1), BuildingBlock: MIFKUJ_clean_linker_0, # of connection points: 2
#     Edge 110, Type (0, 1), BuildingBlock: MIFKUJ_clean_linker_0, # of connection points: 2
#     Edge 111, Type (0, 1), BuildingBlock: MIFKUJ_clean_linker_0, # of connection points: 2
#     Edge 112, Type (0, 1), BuildingBlock: MIFKUJ_clean_linker_0, # of connection points: 2
#     Edge 113, Type (0, 1), BuildingBlock: MIFKUJ_clean_linker_0, # of connection points: 2
#     Edge 114, Type (0, 1), BuildingBlock: MIFKUJ_clean_linker_0, # of connection points: 2
#     Edge 115, Type (0, 1), BuildingBlock: MIFKUJ_clean_linker_0, # of connection points: 2
#     Edge 116, Type (0, 1), BuildingBlock: MIFKUJ_clean_linker_0, # of connection points: 2
#     Edge 117, Type (0, 1), BuildingBlock: MIFKUJ_clean_linker_0, # of connection points: 2
#     Edge 118, Type (0, 1), BuildingBlock: MIFKUJ_clean_linker_0, # of connection points: 2
#     Edge 119, Type (0, 1), BuildingBlock: MIFKUJ_clean_linker_0, # of connection points: 2
#     Edge 120, Type (0, 1), BuildingBlock: MIFKUJ_clean_linker_0, # of connection points: 2
#     Edge 121, Type (0, 1), BuildingBlock: MIFKUJ_clean_linker_0, # of connection points: 2
#     Edge 122, Type (0, 1), BuildingBlock: MIFKUJ_clean_linker_0, # of connection points: 2
#     Edge 123, Type (0, 1), BuildingBlock: MIFKUJ_clean_linker_0, # of connection points: 2
#     Edge 124, Type (0, 1), BuildingBlock: MIFKUJ_clean_linker_0, # of connection points: 2
#     Edge 125, Type (0, 1), BuildingBlock: MIFKUJ_clean_linker_0, # of connection points: 2
#     Edge 126, Type (0, 1), BuildingBlock: MIFKUJ_clean_linker_0, # of connection points: 2
#     Edge 127, Type (0, 1), BuildingBlock: MIFKUJ_clean_linker_0, # of connection points: 2
#     Edge 128, Type (0, 1), BuildingBlock: MIFKUJ_clean_linker_0, # of connection points: 2
#     Edge 129, Type (0, 1), BuildingBlock: MIFKUJ_clean_linker_0, # of connection points: 2
#     Edge 130, Type (0, 1), BuildingBlock: MIFKUJ_clean_linker_0, # of connection points: 2
#     Edge 131, Type (0, 1), BuildingBlock: MIFKUJ_clean_linker_0, # of connection points: 2
#     Edge 132, Type (0, 1), BuildingBlock: MIFKUJ_clean_linker_0, # of connection points: 2
#     Edge 133, Type (0, 1), BuildingBlock: MIFKUJ_clean_linker_0, # of connection points: 2
#     Edge 134, Type (0, 1), BuildingBlock: MIFKUJ_clean_linker_0, # of connection points: 2
#     Edge 135, Type (0, 1), BuildingBlock: MIFKUJ_clean_linker_0, # of connection points: 2
# Relax obj value: 0.170
# Max RMSD: 0.261
# Mean RMSD: 0.193
data_MOF--net-gar--node1-UXUYUI_clean_sbu_0--node2-BETDEL_clean_sbu_0--edge1-MIFKUJ_clean_linker_0
_symmetry_space_group_name_H-M    P1
_symmetry_Int_Tables_number       1
_symmetry_cell_setting            triclinic
loop_
_symmetry_equiv_pos_as_xyz
'x, y, z'
_cell_length_a     84.014371
_cell_length_b     81.496448
_cell_length_c     82.965072
_cell_angle_alpha  95.087346
_cell_angle_beta   92.572507
_cell_angle_gamma 99.996615
loop_
_atom_site_label
_atom_site_type_symbol
_atom_site_fract_x
_atom_site_fract_y
_atom_site_fract_z
_atom_type_partial_charge
Li0 Li 0.00038 0.26158 0.37175 0.0
Li1 Li 0.01554 0.2807 0.39456 0.0
Li2 Li 0.02985 0.26535 0.37309 0.0
Li3 Li 0.01438 0.25015 0.39425 0.0
C4 C 0.01674 0.29378 0.35958 0.0
N5 N 0.01684 0.31626 0.3365 0.0
C6 C 0.01336 0.30976 0.36378 0.0
C7 C 0.0203 0.28928 0.34367 0.0
C8 C 0.01344 0.32093 0.35193 0.0
C9 C 0.02026 0.30081 0.33217 0.0
C10 C 0.98469 0.26471 0.40557 0.0
C11 C 0.97558 0.26566 0.43272 0.0
N12 N 0.9607 0.26755 0.42681 0.0
C13 C 0.96934 0.26671 0.39976 0.0
C14 C 0.98789 0.26423 0.42218 0.0
C15 C 0.95737 0.26812 0.41069 0.0
C16 C 0.97147 0.2429 0.35635 0.0
N17 N 0.98168 0.25792 0.35752 0.0
C18 C 0.96449 0.26854 0.33896 0.0
C19 C 0.9784 0.27066 0.34916 0.0
C20 C 0.95366 0.25329 0.33766 0.0
C21 C 0.95719 0.24031 0.34647 0.0
H22 H 0.9743 0.23307 0.36335 0.0
H23 H 0.98629 0.28265 0.35069 0.0
C24 C 0.03021 0.30977 0.41486 0.0
N25 N 0.01603 0.30119 0.40752 0.0
C26 C 0.03076 0.32551 0.42331 0.0
C27 C 0.00214 0.32325 0.41639 0.0
C28 C 0.0021 0.3075 0.40826 0.0
C29 C 0.01663 0.33251 0.4239 0.0
H30 H 0.04116 0.30458 0.41383 0.0
H31 H 0.99106 0.30052 0.4021 0.0
C32 C 0.00952 0.2317 0.35815 0.0
N33 N 0.00067 0.20669 0.33302 0.0
C34 C 0.00625 0.21494 0.36135 0.0
C35 C 0.00827 0.23576 0.34218 0.0
C36 C 0.00183 0.20247 0.34847 0.0
C37 C 0.00373 0.22293 0.32964 0.0
C38 C 0.0451 0.26777 0.40931 0.0
C39 C 0.06032 0.26436 0.40556 0.0
C40 C 0.04161 0.2708 0.42549 0.0
C41 C 0.07185 0.26402 0.41813 0.0
C42 C 0.05348 0.27036 0.43772 0.0
N43 N 0.06822 0.26701 0.43382 0.0
C44 C 0.05771 0.2815 0.35967 0.0
C45 C 0.05068 0.25228 0.35205 0.0
C46 C 0.07108 0.28258 0.35019 0.0
N47 N 0.04792 0.2665 0.36043 0.0
C48 C 0.06379 0.25281 0.34228 0.0
C49 C 0.07422 0.26808 0.34137 0.0
H50 H 0.05511 0.29259 0.36646 0.0
H51 H 0.0428 0.24049 0.35304 0.0
C52 C -0.00149 0.22521 0.4122 0.0
N53 N 0.01324 0.23214 0.40741 0.0
C54 C 0.99711 0.21192 0.42188 0.0
C55 C 0.02597 0.21281 0.42108 0.0
C56 C 0.02684 0.22618 0.41153 0.0
C57 C 0.01096 0.20556 0.4264 0.0
H58 H 0.98783 0.2299 0.40838 0.0
H59 H 0.03835 0.23171 0.40731 0.0
O60 O 0.01621 0.28255 0.37097 0.0
O61 O 0.99632 0.26265 0.39494 0.0
O62 O 0.0143 0.244 0.37061 0.0
O63 O 0.03387 0.26861 0.39712 0.0
H64 H 0.01056 0.31346 0.37601 0.0
H65 H 0.02301 0.27701 0.34021 0.0
H66 H 0.01077 0.33331 0.355 0.0
H67 H 0.02292 0.29747 0.3198 0.0
H68 H 0.97783 0.2652 0.4456 0.0
H69 H 0.96667 0.26705 0.38692 0.0
H70 H -0.00032 0.26258 0.42684 0.0
H71 H 0.94542 0.26962 0.40636 0.0
H72 H 0.96187 0.27896 0.33267 0.0
H73 H 0.94891 0.22846 0.34584 0.0
H74 H 0.04218 0.33239 0.42884 0.0
H75 H 0.991 0.32823 0.41667 0.0
H76 H 0.00726 0.2116 0.37366 0.0
H77 H 0.01073 0.24865 0.3395 0.0
H78 H -0.00064 0.18944 0.35076 0.0
H79 H 0.00268 0.22589 0.31723 0.0
H80 H 0.0632 0.26207 0.39306 0.0
H81 H 0.02991 0.27358 0.42856 0.0
H82 H 0.0837 0.26143 0.41542 0.0
H83 H 0.05098 0.27272 0.45031 0.0
H84 H 0.07887 0.29458 0.34972 0.0
H85 H 0.066 0.24134 0.33584 0.0
H86 H 0.98527 0.20645 0.42549 0.0
H87 H 0.03693 0.20823 0.42433 0.0
Li88 Li 0.00159 0.7944 0.62967 0.0
Li89 Li 0.01521 0.78259 0.65184 0.0
Li90 Li -0.00081 0.76363 0.62907 0.0
Li91 Li 0.98555 0.77856 0.65072 0.0
C92 C 0.03058 0.78266 0.61765 0.0
N93 N 0.05443 0.78534 0.59569 0.0
C94 C 0.04681 0.78798 0.62306 0.0
C95 C 0.02646 0.77872 0.60109 0.0
C96 C 0.05869 0.78926 0.61176 0.0
C97 C 0.03871 0.78015 0.59017 0.0
C98 C 0.00512 0.8121 0.66621 0.0
C99 C 0.00623 0.82082 0.69484 0.0
N100 N 0.01311 0.83657 0.69193 0.0
C101 C 0.01207 0.82841 0.66348 0.0
C102 C 0.00202 0.80829 0.68199 0.0
C103 C 0.01607 0.84059 0.67665 0.0
C104 C 0.98988 0.81681 0.60986 0.0
N105 N 0.00337 0.81282 0.61702 0.0
C106 C 0.02003 0.8361 0.60701 0.0
C107 C 0.01826 0.8221 0.61578 0.0
C108 C 0.00632 0.84058 0.59942 0.0
C109 C 0.99109 0.83064 0.60088 0.0
H110 H 0.97815 0.80931 0.61121 0.0
H111 H 0.02875 0.81878 0.62184 0.0
C112 C 0.03936 0.77123 0.66926 0.0
N113 N 0.0341 0.7854 0.66566 0.0
C114 C 0.05322 0.77223 0.67936 0.0
C115 C 0.05652 0.80244 0.68123 0.0
C116 C 0.04244 0.80084 0.67121 0.0
C117 C 0.06193 0.78799 0.68548 0.0
H118 H 0.0329 0.75915 0.66411 0.0
H119 H 0.03835 0.81191 0.66765 0.0
C120 C 0.96997 0.77189 0.61434 0.0
N121 N 0.94623 0.7624 0.58954 0.0
C122 C 0.95411 0.76546 0.61782 0.0
C123 C 0.97378 0.77352 0.59828 0.0
C124 C 0.94227 0.76072 0.60511 0.0
C125 C 0.9616 0.76863 0.5859 0.0
C126 C -0.00049 0.75046 0.66402 0.0
C127 C 0.99697 0.73328 0.65926 0.0
C128 C 0.00227 0.7562 0.68047 0.0
C129 C 0.9972 0.72209 0.67105 0.0
C130 C 0.00244 0.7446 0.69189 0.0
N131 N -8e-05 0.72793 0.68698 0.0
C132 C 0.01255 0.73834 0.61248 0.0
C133 C 0.98385 0.73303 0.61143 0.0
C134 C 0.01268 0.72283 0.60392 0.0
N135 N -0.00171 0.74313 0.61599 0.0
C136 C 0.98341 0.71733 0.60297 0.0
C137 C 0.99798 0.71205 0.59919 0.0
H138 H 0.02386 0.74641 0.61666 0.0
H139 H 0.97269 0.73699 0.61468 0.0
C140 C 0.95941 0.79055 0.66404 0.0
N141 N 0.96724 0.77728 0.66322 0.0
C142 C 0.9457 0.79026 0.67298 0.0
C143 C 0.94867 0.76285 0.68039 0.0
C144 C 0.96212 0.76352 0.67105 0.0
C145 C 0.94029 0.77629 0.68127 0.0
H146 H 0.96378 0.80129 0.65765 0.0
H147 H 0.96835 0.753 0.66995 0.0
O148 O 0.01891 0.78076 0.62863 0.0
O149 O 0.00117 0.80004 0.65343 0.0
O150 O 0.98155 0.77708 0.6267 0.0
O151 O -0.00056 0.76156 0.65257 0.0
H152 H 0.0502 0.79098 0.63586 0.0
H153 H 0.01398 0.7744 0.59674 0.0
H154 H 0.07131 0.79331 0.61578 0.0
H155 H 0.03572 0.77708 0.57731 0.0
H156 H 0.00397 0.81803 0.70713 0.0
H157 H 0.01442 0.83159 0.65131 0.0
H158 H 0.99639 0.79581 0.68427 0.0
H159 H 0.02152 0.85324 0.67472 0.0
H160 H 0.03198 0.84351 0.6065 0.0
H161 H 0.9802 0.83344 0.5951 0.0
H162 H 0.05735 0.76082 0.68199 0.0
H163 H 0.06311 0.81479 0.68557 0.0
H164 H 0.95098 0.76423 0.63023 0.0
H165 H 0.98597 0.77864 0.59542 0.0
H166 H 0.92993 0.75576 0.60762 0.0
H167 H 0.96434 0.76986 0.5734 0.0
H168 H 0.99484 0.72863 0.64658 0.0
H169 H 0.00441 0.76944 0.68436 0.0
H170 H 0.99525 0.70875 0.66753 0.0
H171 H 0.00461 0.74886 0.70465 0.0
H172 H 0.02416 0.7191 0.60147 0.0
H173 H 0.97183 0.70937 0.59949 0.0
H174 H 0.9394 0.80081 0.67344 0.0
H175 H 0.94461 0.75182 0.68653 0.0
Li176 Li 0.50085 0.76175 0.8709 0.0
Li177 Li 0.51544 0.7807 0.89435 0.0
Li178 Li 0.53037 0.7657 0.87315 0.0
Li179 Li 0.51425 0.74998 0.89366 0.0
C180 C 0.51739 0.79441 0.85982 0.0
N181 N 0.51776 0.81759 0.8374 0.0
C182 C 0.51371 0.8102 0.86434 0.0
C183 C 0.52134 0.79044 0.84392 0.0
C184 C 0.51395 0.82174 0.85282 0.0
C185 C 0.52143 0.80232 0.83277 0.0
C186 C 0.48416 0.76362 0.90444 0.0
C187 C 0.47463 0.76376 0.93141 0.0
N188 N 0.45975 0.7655 0.92536 0.0
C189 C 0.4688 0.76542 0.89848 0.0
C190 C 0.48715 0.76282 0.92103 0.0
C191 C 0.45661 0.76636 0.90926 0.0
C192 C 0.47203 0.74338 0.85493 0.0
N193 N 0.48252 0.75821 0.85601 0.0
C194 C 0.46585 0.76893 0.83697 0.0
C195 C 0.4797 0.77086 0.84727 0.0
C196 C 0.45459 0.754 0.83599 0.0
C197 C 0.45778 0.74102 0.84499 0.0
H198 H 0.47449 0.73361 0.86218 0.0
H199 H 0.4878 0.7827 0.84865 0.0
C200 C 0.53078 0.81144 0.91079 0.0
N201 N 0.51618 0.80117 0.90759 0.0
C202 C 0.53181 0.82713 0.91949 0.0
C203 C 0.50284 0.82119 0.92176 0.0
C204 C 0.50234 0.80575 0.91283 0.0
C205 C 0.51769 0.83218 0.92505 0.0
H206 H 0.54157 0.80754 0.90631 0.0
H207 H 0.49083 0.79763 0.90976 0.0
C208 C 0.5103 0.73204 0.85752 0.0
N209 N 0.50167 0.7071 0.8323 0.0
C210 C 0.50623 0.71533 0.86072 0.0
C211 C 0.50999 0.73608 0.8415 0.0
C212 C 0.50194 0.70289 0.8478 0.0
C213 C 0.50554 0.7233 0.82892 0.0
C214 C 0.54488 0.76784 0.90943 0.0
C215 C 0.55994 0.76391 0.90575 0.0
C216 C 0.54157 0.77153 0.92556 0.0
C217 C 0.57146 0.76367 0.91836 0.0
C218 C 0.55342 0.77115 0.93782 0.0
N219 N 0.568 0.76727 0.934 0.0
C220 C 0.55774 0.78216 0.85888 0.0
C221 C 0.55229 0.75255 0.85384 0.0
C222 C 0.57092 0.78312 0.84913 0.0
N223 N 0.54875 0.76704 0.86094 0.0
C224 C 0.5653 0.75292 0.84397 0.0
C225 C 0.57477 0.76835 0.84148 0.0
H226 H 0.55455 0.79347 0.86468 0.0
H227 H 0.54498 0.7407 0.85584 0.0
C228 C 0.49805 0.72431 0.91076 0.0
N229 N 0.51288 0.73166 0.90656 0.0
C230 C 0.49653 0.71076 0.92011 0.0
C231 C 0.52552 0.71222 0.92022 0.0
C232 C 0.5265 0.72586 0.911 0.0
C233 C 0.51038 0.70453 0.92492 0.0
H234 H 0.48737 0.72887 0.90669 0.0
H235 H 0.5381 0.7317 0.90723 0.0
O236 O 0.51673 0.78283 0.87085 0.0
O237 O 0.49614 0.7625 0.89399 0.0
O238 O 0.51493 0.74428 0.87004 0.0
O239 O 0.53365 0.76852 0.8972 0.0
H240 H 0.51055 0.81345 0.87657 0.0
H241 H 0.52418 0.77828 0.84021 0.0
H242 H 0.51106 0.83398 0.85613 0.0
H243 H 0.52439 0.7994 0.82041 0.0
H244 H 0.47673 0.7631 0.94428 0.0
H245 H 0.46632 0.76609 0.88566 0.0
H246 H 0.49899 0.76142 0.92581 0.0
H247 H 0.44466 0.76775 0.90483 0.0
H248 H 0.46351 0.77936 0.83055 0.0
H249 H 0.44917 0.72942 0.84464 0.0
H250 H 0.5435 0.83524 0.92182 0.0
H251 H 0.49165 0.82473 0.9256 0.0
H252 H 0.50652 0.712 0.87307 0.0
H253 H 0.51312 0.74895 0.83883 0.0
H254 H 0.49885 0.68989 0.85009 0.0
H255 H 0.5052 0.72624 0.81646 0.0
H256 H 0.56269 0.76111 0.89329 0.0
H257 H 0.53 0.77472 0.92855 0.0
H258 H 0.58317 0.76065 0.91571 0.0
H259 H 0.55106 0.77399 0.95038 0.0
H260 H 0.57789 0.79526 0.84744 0.0
H261 H 0.56805 0.74123 0.83854 0.0
H262 H 0.48461 0.70496 0.92322 0.0
H263 H 0.53648 0.70776 0.92368 0.0
Li264 Li 0.5013 0.29394 0.12926 0.0
Li265 Li 0.51459 0.28214 0.15149 0.0
Li266 Li 0.49894 0.26318 0.12855 0.0
Li267 Li 0.48503 0.27823 0.1501 0.0
C268 C 0.53021 0.28287 0.11731 0.0
N269 N 0.5539 0.28693 0.09525 0.0
C270 C 0.54626 0.28946 0.12262 0.0
C271 C 0.52619 0.27837 0.1008 0.0
C272 C 0.55806 0.29142 0.11127 0.0
C273 C 0.53835 0.28052 0.08983 0.0
C274 C 0.50382 0.31195 0.16551 0.0
C275 C 0.50258 0.32156 0.19369 0.0
N276 N 0.5103 0.33703 0.19081 0.0
C277 C 0.51165 0.32797 0.16281 0.0
C278 C 0.49914 0.30871 0.18104 0.0
C279 C 0.51484 0.34047 0.17577 0.0
C280 C 0.48966 0.31651 0.10959 0.0
N281 N 0.50311 0.3125 0.11685 0.0
C282 C 0.51975 0.3364 0.10788 0.0
C283 C 0.51797 0.32207 0.11616 0.0
C284 C 0.50609 0.34082 0.1002 0.0
C285 C 0.4909 0.33063 0.10103 0.0
H286 H 0.47794 0.30886 0.11064 0.0
H287 H 0.52841 0.31873 0.12228 0.0
C288 C 0.54097 0.27091 0.16364 0.0
N289 N 0.53325 0.2842 0.16548 0.0
C290 C 0.55474 0.27047 0.17342 0.0
C291 C 0.55249 0.29752 0.18674 0.0
C292 C 0.5388 0.29749 0.17659 0.0
C293 C 0.56057 0.28382 0.18529 0.0
H294 H 0.53635 0.26063 0.15454 0.0
H295 H 0.53269 0.30806 0.17768 0.0
C296 C 0.46975 0.27137 0.11365 0.0
N297 N 0.44604 0.26178 0.08883 0.0
C298 C 0.45394 0.2647 0.1171 0.0
C299 C 0.47353 0.27316 0.0976 0.0
C300 C 0.44212 0.25992 0.10437 0.0
C301 C 0.46136 0.26823 0.08521 0.0
C302 C 0.50056 0.25075 0.16379 0.0
C303 C 0.49911 0.23354 0.1596 0.0
C304 C 0.5038 0.25723 0.18 0.0
C305 C 0.50085 0.22305 0.17175 0.0
C306 C 0.50556 0.24633 0.19179 0.0
N307 N 0.50403 0.22961 0.18745 0.0
C308 C 0.5127 0.2379 0.11248 0.0
C309 C 0.48401 0.23243 0.11071 0.0
C310 C 0.5131 0.22236 0.10411 0.0
N311 N 0.49831 0.24261 0.11558 0.0
C312 C 0.48384 0.21671 0.10237 0.0
C313 C 0.49854 0.21141 0.09906 0.0
H314 H 0.5239 0.24611 0.11678 0.0
H315 H 0.47274 0.2363 0.11368 0.0
C316 C 0.4585 0.28999 0.16239 0.0
N317 N 0.46671 0.27704 0.16244 0.0
C318 C 0.44481 0.28992 0.17127 0.0
C319 C 0.44849 0.26334 0.18035 0.0
C320 C 0.46204 0.26384 0.17114 0.0
C321 C 0.43964 0.27644 0.18033 0.0
H322 H 0.46262 0.30034 0.15541 0.0
H323 H 0.46873 0.25365 0.17085 0.0
O324 O 0.51866 0.28026 0.12835 0.0
O325 O 0.50067 0.29957 0.15295 0.0
O326 O 0.48129 0.27665 0.12602 0.0
O327 O 0.49864 0.26111 0.15203 0.0
H328 H 0.54957 0.29293 0.13538 0.0
H329 H 0.51385 0.27309 0.09654 0.0
H330 H 0.57055 0.29645 0.11521 0.0
H331 H 0.53544 0.27702 0.07702 0.0
H332 H 0.49912 0.31922 0.20579 0.0
H333 H 0.51528 0.3307 0.15085 0.0
H334 H 0.49301 0.29641 0.18332 0.0
H335 H 0.52095 0.35291 0.17387 0.0
H336 H 0.53166 0.34392 0.10745 0.0
H337 H 0.48008 0.33378 0.09542 0.0
H338 H 0.56083 0.25984 0.17157 0.0
H339 H 0.55657 0.30806 0.19573 0.0
H340 H 0.45082 0.26333 0.12949 0.0
H341 H 0.48568 0.27845 0.09476 0.0
H342 H 0.42982 0.25477 0.10686 0.0
H343 H 0.46408 0.2696 0.07273 0.0
H344 H 0.49654 0.22833 0.14711 0.0
H345 H 0.50497 0.27052 0.18344 0.0
H346 H 0.49967 0.20969 0.1687 0.0
H347 H 0.50811 0.25116 0.20438 0.0
H348 H 0.52472 0.21895 0.1017 0.0
H349 H 0.47231 0.20862 0.099 0.0
H350 H 0.43835 0.30032 0.17112 0.0
H351 H 0.44475 0.25268 0.18709 0.0
Li352 Li 0.0145 0.79359 0.1192 0.0
Li353 Li 0.0292 0.77956 0.13953 0.0
Li354 Li 0.01141 0.76322 0.11644 0.0
Li355 Li -0.00097 0.77644 0.13961 0.0
C356 C 0.04145 0.77832 0.1036 0.0
N357 N 0.06165 0.77505 0.07858 0.0
C358 C 0.05809 0.77954 0.10694 0.0
C359 C 0.03507 0.77541 0.08755 0.0
C360 C 0.06811 0.77789 0.09412 0.0
C361 C 0.04548 0.77376 0.07507 0.0
C362 C 0.0199 0.81042 0.15497 0.0
C363 C 0.02029 0.82236 0.18265 0.0
N364 N 0.02759 0.83741 0.17825 0.0
C365 C 0.02739 0.82599 0.1507 0.0
C366 C 0.01628 0.80856 0.17105 0.0
C367 C 0.0312 0.83948 0.16265 0.0
C368 C 0.00128 0.81836 0.10565 0.0
N369 N 0.01522 0.81227 0.10746 0.0
C370 C 0.02877 0.83209 0.09088 0.0
C371 C 0.02887 0.81881 0.10041 0.0
C372 C 0.01446 0.83856 0.08864 0.0
C373 C 0.00058 0.83148 0.09615 0.0
H374 H 0.99061 0.81276 0.11136 0.0
H375 H 0.03979 0.81368 0.10213 0.0
C376 C 0.05384 0.76601 0.15456 0.0
N377 N 0.04892 0.78067 0.15205 0.0
C378 C 0.06858 0.76607 0.16305 0.0
C379 C 0.07327 0.79634 0.16564 0.0
C380 C 0.05828 0.79569 0.15735 0.0
C381 C 0.07851 0.78137 0.16858 0.0
H382 H 0.04643 0.75426 0.14974 0.0
H383 H 0.05425 0.80716 0.15487 0.0
C384 C 0.9823 0.77457 0.10391 0.0
N385 N 0.95818 0.76942 0.07928 0.0
C386 C 0.96649 0.76736 0.10685 0.0
C387 C 0.98583 0.77929 0.08848 0.0
C388 C 0.95447 0.76483 0.09423 0.0
C389 C 0.97347 0.77654 0.07618 0.0
C390 C 0.01108 0.74593 0.14885 0.0
C391 C 0.00447 0.72974 0.14202 0.0
C392 C 0.01614 0.74867 0.1653 0.0
C393 C 0.00316 0.7165 0.15176 0.0
C394 C 0.01466 0.73508 0.17462 0.0
N395 N 0.00827 0.71941 0.16772 0.0
C396 C 0.02218 0.7358 0.10269 0.0
C397 C 0.99667 0.73857 0.0909 0.0
C398 C 0.02221 0.72131 0.09252 0.0
N399 N 0.00957 0.74409 0.10167 0.0
C400 C 0.99631 0.72426 0.08028 0.0
C401 C 0.00922 0.71543 0.081 0.0
H402 H 0.03214 0.74041 0.11157 0.0
H403 H 0.98662 0.74513 0.09048 0.0
C404 C 0.97213 0.78736 0.15228 0.0
N405 N 0.98052 0.77452 0.15197 0.0
C406 C 0.95758 0.78622 0.15995 0.0
C407 C 0.96075 0.75879 0.16709 0.0
C408 C 0.97514 0.76039 0.15914 0.0
C409 C 0.9517 0.77174 0.16741 0.0
H410 H 0.97663 0.79836 0.1463 0.0
H411 H 0.98177 0.75018 0.15842 0.0
O412 O 0.03156 0.78007 0.11605 0.0
O413 O 0.0155 0.79728 0.14331 0.0
O414 O 0.9942 0.77702 0.11612 0.0
O415 O 0.01282 0.75896 0.13939 0.0
H416 H 0.06322 0.78182 0.11931 0.0
H417 H 0.02222 0.77431 0.08476 0.0
H418 H 0.08102 0.77888 0.09652 0.0
H419 H 0.04071 0.77145 0.06259 0.0
H420 H 0.01754 0.82113 0.19515 0.0
H421 H 0.03017 0.82765 0.13827 0.0
H422 H 0.01035 0.7966 0.17449 0.0
H423 H 0.03697 0.85161 0.15953 0.0
H424 H 0.03979 0.83731 0.08549 0.0
H425 H 0.98922 0.83586 0.09451 0.0
H426 H 0.07239 0.7543 0.1649 0.0
H427 H 0.08068 0.80836 0.16971 0.0
H428 H 0.96356 0.76368 0.11873 0.0
H429 H 0.99796 0.78499 0.086 0.0
H430 H 0.94219 0.75921 0.09631 0.0
H431 H 0.97604 0.78006 0.06417 0.0
H432 H 0.00039 0.72742 0.12934 0.0
H433 H 0.02123 0.76114 0.17077 0.0
H434 H -0.00189 0.7039 0.14663 0.0
H435 H 0.01861 0.73698 0.18735 0.0
H436 H 0.03223 0.71467 0.09385 0.0
H437 H 0.98609 0.72027 0.07155 0.0
H438 H 0.95101 0.79654 0.16005 0.0
H439 H 0.95651 0.74736 0.17254 0.0
Li440 Li 0.50406 0.78039 0.40823 0.0
Li441 Li 0.48631 0.7642 0.38513 0.0
Li442 Li 0.49966 0.75001 0.40691 0.0
Li443 Li 0.51638 0.76524 0.38616 0.0
C444 C 0.47226 0.76397 0.42028 0.0
N445 N 0.45001 0.76346 0.44383 0.0
C446 C 0.45645 0.7661 0.41632 0.0
C447 C 0.47676 0.76155 0.4362 0.0
C448 C 0.44538 0.76583 0.42841 0.0
C449 C 0.46532 0.76131 0.44793 0.0
C450 C 0.50416 0.79671 0.37579 0.0
C451 C 0.50828 0.80874 0.35046 0.0
N452 N 0.50412 0.82314 0.35713 0.0
C453 C 0.49991 0.81162 0.38241 0.0
C454 C 0.50837 0.79522 0.3597 0.0
C455 C 0.49997 0.82484 0.37277 0.0
C456 C 0.52177 0.81072 0.42329 0.0
N457 N 0.50714 0.80033 0.42226 0.0
C458 C 0.4965 0.81904 0.4408 0.0
C459 C 0.49459 0.80421 0.43069 0.0
C460 C 0.51144 0.82989 0.44211 0.0
C461 C 0.52425 0.82569 0.43337 0.0
H462 H 0.53142 0.80747 0.41613 0.0
H463 H 0.48294 0.79611 0.42925 0.0
C464 C 0.4563 0.74828 0.37004 0.0
N465 N 0.46697 0.763 0.37185 0.0
C466 C 0.44132 0.7471 0.36155 0.0
C467 C 0.44877 0.77614 0.35662 0.0
C468 C 0.46351 0.7768 0.36533 0.0
C469 C 0.43737 0.7612 0.35479 0.0
H470 H 0.45932 0.73755 0.37549 0.0
H471 H 0.47198 0.78846 0.36718 0.0
C472 C 0.53274 0.77298 0.4215 0.0
N473 N 0.55708 0.78671 0.44486 0.0
C474 C 0.54894 0.77551 0.41757 0.0
C475 C 0.52896 0.77739 0.43739 0.0
C476 C 0.56105 0.78248 0.42953 0.0
C477 C 0.54142 0.78434 0.449 0.0
C478 C 0.49854 0.73254 0.37092 0.0
C479 C 0.50299 0.71758 0.37491 0.0
C480 C 0.49406 0.73435 0.35484 0.0
C481 C 0.5029 0.70463 0.36268 0.0
C482 C 0.49412 0.72109 0.34296 0.0
N483 N 0.4985 0.70663 0.34709 0.0
C484 C 0.48572 0.71803 0.41731 0.0
C485 C 0.50832 0.73407 0.43289 0.0
C486 C 0.48512 0.70527 0.42767 0.0
N487 N 0.4974 0.73195 0.42001 0.0
C488 C 0.50793 0.72199 0.44369 0.0
C489 C 0.49655 0.7071 0.44096 0.0
H490 H 0.47708 0.71673 0.40701 0.0
H491 H 0.51745 0.74513 0.43481 0.0
C492 C 0.54464 0.78218 0.37474 0.0
N493 N 0.53492 0.76688 0.37362 0.0
C494 C 0.55887 0.78455 0.36651 0.0
C495 C 0.55263 0.75545 0.35577 0.0
C496 C 0.53861 0.75359 0.36438 0.0
C497 C 0.56301 0.77107 0.35687 0.0
H498 H 0.5414 0.79251 0.38224 0.0
H499 H 0.53082 0.74151 0.36381 0.0
O500 O 0.48332 0.76467 0.40864 0.0
O501 O 0.50427 0.78367 0.38508 0.0
O502 O 0.52079 0.76567 0.40999 0.0
O503 O 0.49822 0.74517 0.38281 0.0
H504 H 0.45281 0.7681 0.40407 0.0
H505 H 0.48897 0.76002 0.43949 0.0
H506 H 0.43312 0.76754 0.42555 0.0
H507 H 0.46864 0.75948 0.46031 0.0
H508 H 0.51152 0.80778 0.33798 0.0
H509 H 0.49651 0.81295 0.39481 0.0
H510 H 0.51166 0.78374 0.3544 0.0
H511 H 0.4967 0.83645 0.37772 0.0
H512 H 0.4863 0.82229 0.44712 0.0
H513 H 0.53579 0.83412 0.4339 0.0
H514 H 0.4329 0.73532 0.36034 0.0
H515 H 0.44611 0.78737 0.35182 0.0
H516 H 0.55216 0.77187 0.40546 0.0
H517 H 0.51653 0.77547 0.44072 0.0
H518 H 0.57363 0.78443 0.42664 0.0
H519 H 0.53864 0.78783 0.4613 0.0
H520 H 0.50645 0.716 0.38733 0.0
H521 H 0.49053 0.74585 0.3516 0.0
H522 H 0.5063 0.69297 0.36558 0.0
H523 H 0.49067 0.72227 0.33046 0.0
H524 H 0.47617 0.69397 0.42501 0.0
H525 H 0.51669 0.72429 0.45397 0.0
H526 H 0.5665 0.79681 0.36758 0.0
H527 H 0.5555 0.7447 0.3486 0.0
Li528 Li 0.51493 0.29279 0.61754 0.0
Li529 Li 0.52861 0.27829 0.63803 0.0
Li530 Li 0.51067 0.26231 0.6147 0.0
Li531 Li 0.49847 0.27609 0.63787 0.0
C532 C 0.54227 0.27931 0.60268 0.0
N533 N 0.56449 0.28069 0.57905 0.0
C534 C 0.55886 0.28238 0.60705 0.0
C535 C 0.53699 0.277 0.58628 0.0
C536 C 0.5699 0.28303 0.59493 0.0
C537 C 0.54841 0.27773 0.57452 0.0
C538 C 0.51941 0.30967 0.65333 0.0
C539 C 0.51918 0.32149 0.68098 0.0
N540 N 0.5265 0.33659 0.67672 0.0
C541 C 0.52695 0.32528 0.64922 0.0
C542 C 0.51548 0.30771 0.66932 0.0
C543 C 0.53043 0.33875 0.66123 0.0
C544 C 0.50257 0.31843 0.60472 0.0
N545 N 0.51622 0.3117 0.60586 0.0
C546 C 0.52989 0.33156 0.58934 0.0
C547 C 0.52981 0.318 0.59853 0.0
C548 C 0.51595 0.33878 0.588 0.0
C549 C 0.50218 0.33209 0.59584 0.0
H550 H 0.49196 0.31307 0.61065 0.0
H551 H 0.54057 0.31255 0.59981 0.0
C552 C 0.55524 0.26497 0.6486 0.0
N553 N 0.54806 0.27864 0.65088 0.0
C554 C 0.57009 0.26461 0.65673 0.0
C555 C 0.56972 0.29228 0.6697 0.0
C556 C 0.55496 0.29218 0.66119 0.0
C557 C 0.57754 0.27843 0.6674 0.0
H558 H 0.54952 0.25443 0.64024 0.0
H559 H 0.5492 0.30302 0.66263 0.0
C560 C 0.48269 0.27342 0.6016 0.0
N561 N 0.45957 0.26635 0.57601 0.0
C562 C 0.46667 0.26668 0.60426 0.0
C563 C 0.48691 0.27679 0.58597 0.0
C564 C 0.45517 0.26314 0.59116 0.0
C565 C 0.47506 0.27304 0.57318 0.0
C566 C 0.51083 0.24574 0.64788 0.0
C567 C 0.50612 0.22897 0.64177 0.0
C568 C 0.51509 0.24981 0.66441 0.0
C569 C 0.5057 0.2165 0.65233 0.0
C570 C 0.51457 0.23696 0.67457 0.0
N571 N 0.50992 0.22071 0.66837 0.0
C572 C 0.52003 0.23776 0.59316 0.0
C573 C 0.49186 0.23423 0.59702 0.0
C574 C 0.51771 0.22314 0.58267 0.0
N575 N 0.50716 0.24305 0.59994 0.0
C576 C 0.48901 0.21938 0.58679 0.0
C577 C 0.50207 0.21374 0.57956 0.0
H578 H 0.53213 0.2446 0.59625 0.0
H579 H 0.48196 0.23843 0.60306 0.0
C580 C 0.47407 0.28825 0.65519 0.0
N581 N 0.47982 0.27419 0.65018 0.0
C582 C 0.45968 0.28709 0.66317 0.0
C583 C 0.45743 0.25699 0.66075 0.0
C584 C 0.47186 0.25874 0.6528 0.0
C585 C 0.45106 0.27128 0.66594 0.0
H586 H 0.48055 0.30036 0.65276 0.0
H587 H 0.47654 0.24774 0.64838 0.0
O588 O 0.53133 0.27823 0.61446 0.0
O589 O 0.51554 0.29648 0.64165 0.0
O590 O 0.49407 0.27699 0.61432 0.0
O591 O 0.51152 0.25805 0.63764 0.0
H592 H 0.56316 0.2842 0.61969 0.0
H593 H 0.52422 0.2744 0.58268 0.0
H594 H 0.58277 0.28535 0.59814 0.0
H595 H 0.54449 0.27586 0.56179 0.0
H596 H 0.5162 0.32019 0.69341 0.0
H597 H 0.53002 0.32699 0.63688 0.0
H598 H 0.5096 0.29569 0.67265 0.0
H599 H 0.53623 0.35092 0.65822 0.0
H600 H 0.54077 0.33652 0.58357 0.0
H601 H 0.49117 0.33726 0.59495 0.0
H602 H 0.57566 0.25364 0.65472 0.0
H603 H 0.57516 0.30326 0.67768 0.0
H604 H 0.46319 0.26414 0.61632 0.0
H605 H 0.49915 0.28234 0.58375 0.0
H606 H 0.44274 0.25786 0.59303 0.0
H607 H 0.47817 0.27552 0.561 0.0
H608 H 0.50283 0.22561 0.62899 0.0
H609 H 0.51883 0.26275 0.6693 0.0
H610 H 0.50206 0.20346 0.64776 0.0
H611 H 0.51788 0.2399 0.68738 0.0
H612 H 0.5281 0.21882 0.57763 0.0
H613 H 0.47685 0.21221 0.58483 0.0
H614 H 0.45536 0.29846 0.66713 0.0
H615 H 0.4511 0.24455 0.6624 0.0
Li616 Li 0.00481 0.27993 0.90711 0.0
Li617 Li 0.98649 0.26508 0.88398 0.0
Li618 Li 0.00014 0.24969 0.90448 0.0
Li619 Li 0.01651 0.26575 0.88426 0.0
C620 C 0.9722 0.26355 0.91838 0.0
N621 N 0.94813 0.26175 0.94013 0.0
C622 C 0.95752 0.26849 0.91435 0.0
C623 C 0.97462 0.25764 0.93346 0.0
C624 C 0.94551 0.2675 0.92552 0.0
C625 C 0.96231 0.25685 0.94429 0.0
C626 C 0.00308 0.29742 0.87512 0.0
C627 C 0.00455 0.30952 0.84962 0.0
N628 N 0.00044 0.3237 0.85689 0.0
C629 C -0.0012 0.31208 0.88233 0.0
C630 C 0.00592 0.29608 0.85863 0.0
C631 C 0.99755 0.32523 0.8729 0.0
C632 C 0.02123 0.31164 0.91961 0.0
N633 N 0.00896 0.29905 0.92212 0.0
C634 C 0.00133 0.31501 0.94496 0.0
C635 C -0.00057 0.30025 0.93479 0.0
C636 C 0.01309 0.32866 0.94195 0.0
C637 C 0.02356 0.32673 0.9295 0.0
H638 H 0.02873 0.31018 0.9095 0.0
H639 H 0.99002 0.28999 0.93674 0.0
C640 C 0.95671 0.24919 0.86827 0.0
N641 N 0.96677 0.26427 0.87122 0.0
C642 C 0.9416 0.24795 0.85998 0.0
C643 C 0.94755 0.27773 0.85776 0.0
C644 C 0.96248 0.27842 0.86617 0.0
C645 C 0.93694 0.26238 0.85471 0.0
H646 H 0.96032 0.23818 0.87263 0.0
H647 H 0.97041 0.29033 0.86893 0.0
C648 C 0.03219 0.2723 0.92011 0.0
N649 N 0.05452 0.28635 0.94517 0.0
C650 C 0.048 0.27912 0.91681 0.0
C651 C 0.02774 0.27258 0.93616 0.0
C652 C 0.05913 0.28613 0.92965 0.0
C653 C 0.03918 0.27981 0.94865 0.0
C654 C -0.00064 0.2332 0.86891 0.0
C655 C 0.00472 0.21891 0.87355 0.0
C656 C 0.99458 0.23403 0.8527 0.0
C657 C 0.00523 0.20563 0.86182 0.0
C658 C 0.99527 0.22048 0.84134 0.0
N659 N 0.00053 0.20668 0.8461 0.0
C660 C 0.98444 0.22023 0.91762 0.0
C661 C 0.01245 0.22946 0.92455 0.0
C662 C 0.98415 0.20698 0.92729 0.0
N663 N -0.00149 0.23104 0.91644 0.0
C664 C 0.01267 0.21667 0.93448 0.0
C665 C -0.00152 0.20504 0.93577 0.0
H666 H 0.9735 0.22191 0.91105 0.0
H667 H 0.02348 0.23813 0.92329 0.0
C668 C 0.04266 0.28284 0.86923 0.0
N669 N 0.03516 0.26725 0.87198 0.0
C670 C 0.05714 0.28502 0.86142 0.0
C671 C 0.05616 0.25509 0.85976 0.0
C672 C 0.04158 0.25347 0.86747 0.0
C673 C 0.06412 0.27105 0.85667 0.0
H674 H 0.03758 0.29364 0.87346 0.0
H675 H 0.03558 0.24127 0.87015 0.0
O676 O 0.98403 0.26437 0.90752 0.0
O677 O 0.00471 0.28457 0.88423 0.0
O678 O 0.02126 0.26494 0.90772 0.0
O679 O -0.00188 0.24599 0.88032 0.0
H680 H 0.95545 0.27309 0.90274 0.0
H681 H 0.98593 0.25387 0.93684 0.0
H682 H 0.9341 0.27131 0.92257 0.0
H683 H 0.96403 0.25236 0.95602 0.0
H684 H 0.00677 0.30869 0.83686 0.0
H685 H 0.99637 0.31326 0.89503 0.0
H686 H 0.00919 0.28478 0.85288 0.0
H687 H 0.99427 0.33665 0.87832 0.0
H688 H 0.99321 0.316 0.95465 0.0
H689 H 0.03274 0.33705 0.92684 0.0
H690 H 0.93358 0.23594 0.85788 0.0
H691 H 0.94421 0.2891 0.85392 0.0
H692 H 0.05169 0.27885 0.90447 0.0
H693 H 0.01555 0.2673 0.93892 0.0
H694 H 0.07143 0.29138 0.92728 0.0
H695 H 0.03589 0.28018 0.96112 0.0
H696 H 0.00837 0.21804 0.88607 0.0
H697 H 0.99027 0.24497 0.84898 0.0
H698 H 0.00932 0.19447 0.86523 0.0
H699 H 0.99157 0.22091 0.82875 0.0
H700 H 0.97298 0.19819 0.92785 0.0
H701 H 0.02392 0.21587 0.94101 0.0
H702 H 0.06304 0.29755 0.8595 0.0
H703 H 0.06114 0.244 0.85623 0.0
Li704 Li 0.39916 0.03116 0.27972 0.0
Li705 Li 0.37722 0.01501 0.26054 0.0
Li706 Li 0.40065 0.03203 0.25074 0.0
Li707 Li 0.37981 0.04494 0.26358 0.0
C708 C 0.40983 0.00116 0.26049 0.0
N709 N 0.4299 0.97816 0.25418 0.0
C710 C 0.40342 0.98404 0.25821 0.0
C711 C 0.42647 0.00658 0.25969 0.0
C712 C 0.41376 0.97261 0.25505 0.0
C713 C 0.4364 0.99475 0.25641 0.0
C714 C 0.36269 0.0255 0.29031 0.0
C715 C 0.33447 0.02329 0.29568 0.0
N716 N 0.33746 0.01709 0.30998 0.0
C717 C 0.36552 0.01918 0.30509 0.0
C718 C 0.34708 0.02768 0.28559 0.0
C719 C 0.35259 0.01499 0.31486 0.0
C720 C 0.4129 0.04538 0.30997 0.0
N721 N 0.41111 0.03153 0.29923 0.0
C722 C 0.42693 0.01816 0.31674 0.0
C723 C 0.41783 0.01803 0.30229 0.0
C724 C 0.42884 0.03221 0.32815 0.0
C725 C 0.42173 0.04596 0.3247 0.0
H726 H 0.4074 0.0559 0.30708 0.0
H727 H 0.416 0.00711 0.29359 0.0
C728 C 0.36338 0.98765 0.23988 0.0
N729 N 0.36303 0.99498 0.25521 0.0
C730 C 0.35382 0.97213 0.23512 0.0
C731 C 0.34387 0.97211 0.2621 0.0
C732 C 0.35352 0.98764 0.26629 0.0
C733 C 0.3442 0.96423 0.24645 0.0
H734 H 0.3715 0.99362 0.23154 0.0
H735 H 0.35385 0.99347 0.2785 0.0
C736 C 0.41618 0.06368 0.26522 0.0
N737 N 0.44151 0.0887 0.25986 0.0
C738 C 0.41307 0.07829 0.25902 0.0
C739 C 0.43213 0.06185 0.26888 0.0
C740 C 0.42605 0.09078 0.25637 0.0
C741 C 0.44478 0.07463 0.26601 0.0
C742 C 0.36635 0.02657 0.23118 0.0
C743 C 0.37063 0.02554 0.21508 0.0
C744 C 0.35 0.02356 0.23454 0.0
C745 C 0.35848 0.02135 0.2026 0.0
C746 C 0.33821 0.01934 0.22172 0.0
N747 N 0.34266 0.01833 0.20615 0.0
C748 C 0.4112 0.01657 0.22487 0.0
C749 C 0.42252 0.04555 0.22763 0.0
C750 C 0.41875 0.01414 0.21063 0.0
N751 N 0.41342 0.03198 0.23316 0.0
C752 C 0.43027 0.04371 0.21326 0.0
C753 C 0.42842 0.0278 0.20473 0.0
H754 H 0.40309 0.00627 0.22909 0.0
H755 H 0.42345 0.05781 0.23399 0.0
C756 C 0.36203 0.06884 0.2755 0.0
N757 N 0.36842 0.06202 0.26234 0.0
C758 C 0.35308 0.08147 0.27377 0.0
C759 C 0.35754 0.07954 0.24503 0.0
C760 C 0.36649 0.06709 0.24735 0.0
C761 C 0.35081 0.08686 0.25836 0.0
H762 H 0.36388 0.06442 0.28724 0.0
H763 H 0.37202 0.06151 0.23723 0.0
O764 O 0.39978 0.01249 0.2634 0.0
O765 O 0.37526 0.02977 0.28069 0.0
O766 O 0.40363 0.05136 0.26793 0.0
O767 O 0.37816 0.03031 0.24354 0.0
H768 H 0.39059 0.97961 0.25897 0.0
H769 H 0.43161 0.01979 0.26141 0.0
H770 H 0.40896 0.95933 0.25327 0.0
H771 H 0.44929 -0.00124 0.25562 0.0
H772 H 0.32231 0.02486 0.29216 0.0
H773 H 0.37757 0.01752 0.30896 0.0
H774 H 0.34472 0.03276 0.2743 0.0
H775 H 0.35458 0.01007 0.32633 0.0
H776 H 0.43209 0.00726 0.31915 0.0
H777 H 0.42305 0.05702 0.33326 0.0
H778 H 0.35451 0.96603 0.22309 0.0
H779 H 0.3367 0.96599 0.27113 0.0
H780 H 0.40078 0.07994 0.25626 0.0
H781 H 0.4347 0.05066 0.2738 0.0
H782 H 0.42384 0.10213 0.25152 0.0
H783 H 0.45721 0.07336 0.26867 0.0
H784 H 0.38321 0.02797 0.21222 0.0
H785 H 0.34647 0.02422 0.2469 0.0
H786 H 0.36164 0.02048 0.19009 0.0
H787 H 0.32552 0.01684 0.22415 0.0
H788 H 0.41664 0.0018 0.20403 0.0
H789 H 0.43749 0.05453 0.20881 0.0
H790 H 0.34793 0.08691 0.28426 0.0
H791 H 0.35617 0.08363 0.23305 0.0
Li792 Li 0.27214 0.17598 0.51744 0.0
Li793 Li 0.28306 0.15252 0.50375 0.0
Li794 Li 0.27062 0.17322 0.48777 0.0
Li795 Li 0.25263 0.15135 0.50306 0.0
C796 C 0.30315 0.18957 0.50619 0.0
N797 N 0.32922 0.21529 0.51377 0.0
C798 C 0.3176 0.1863 0.51316 0.0
C799 C 0.30204 0.20585 0.50284 0.0
C800 C 0.33063 0.19949 0.51694 0.0
C801 C 0.31532 0.2187 0.50686 0.0
C802 C 0.26821 0.14303 0.53473 0.0
C803 C 0.26118 0.11681 0.54632 0.0
N804 N 0.26848 0.12415 0.56077 0.0
C805 C 0.27564 0.15031 0.5497 0.0
C806 C 0.26087 0.12616 0.53301 0.0
C807 C 0.27564 0.14056 0.56272 0.0
C808 C 0.2604 0.19252 0.54346 0.0
N809 N 0.27444 0.19103 0.53647 0.0
C810 C 0.28991 0.20783 0.55882 0.0
C811 C 0.28906 0.19853 0.54374 0.0
C812 C 0.27557 0.20914 0.56646 0.0
C813 C 0.26067 0.20172 0.55842 0.0
H814 H 0.24898 0.18601 0.53769 0.0
H815 H 0.3001 0.19668 0.53832 0.0
C816 C 0.31106 0.14115 0.49275 0.0
N817 N 0.30046 0.14002 0.50471 0.0
C818 C 0.32479 0.13359 0.49369 0.0
C819 C 0.31621 0.12346 0.51897 0.0
C820 C 0.30282 0.1314 0.51767 0.0
C821 C 0.32744 0.12463 0.50696 0.0
H822 H 0.30902 0.14823 0.48266 0.0
H823 H 0.29455 0.13089 0.52722 0.0
C824 C 0.24408 0.18834 0.50473 0.0
N825 N 0.22617 0.21357 0.50956 0.0
C826 C 0.22726 0.18442 0.50533 0.0
C827 C 0.2518 0.20509 0.5066 0.0
C828 C 0.21842 0.19735 0.50776 0.0
C829 C 0.24253 0.21766 0.50905 0.0
C830 C 0.2666 0.13574 0.47237 0.0
C831 C 0.26432 0.13912 0.45629 0.0
C832 C 0.26886 0.1198 0.47579 0.0
C833 C 0.26436 0.12643 0.44383 0.0
C834 C 0.26886 0.10745 0.46298 0.0
N835 N 0.26663 0.111 0.4474 0.0
C836 C 0.28493 0.18491 0.45984 0.0
C837 C 0.26008 0.1938 0.46503 0.0
C838 C 0.28623 0.19338 0.44588 0.0
N839 N 0.27192 0.18515 0.46898 0.0
C840 C 0.26104 0.2027 0.45137 0.0
C841 C 0.27416 0.20241 0.44153 0.0
H842 H 0.29421 0.17799 0.46332 0.0
H843 H 0.24978 0.19367 0.47238 0.0
C844 C 0.22367 0.13927 0.51757 0.0
N845 N 0.23164 0.13751 0.50377 0.0
C846 C 0.20808 0.13014 0.5187 0.0
C847 C 0.20929 0.11719 0.49155 0.0
C848 C 0.2248 0.12672 0.49086 0.0
C849 C 0.20073 0.11897 0.50556 0.0
H850 H 0.22937 0.14795 0.52766 0.0
H851 H 0.23133 0.1256 0.47999 0.0
O852 O 0.29024 0.17683 0.50256 0.0
O853 O 0.2682 0.15233 0.5218 0.0
O854 O 0.25287 0.17578 0.50231 0.0
O855 O 0.2668 0.14811 0.48466 0.0
H856 H 0.31868 0.17375 0.51577 0.0
H857 H 0.29105 0.20853 0.49719 0.0
H858 H 0.34186 0.19717 0.52243 0.0
H859 H 0.3146 0.23139 0.50444 0.0
H860 H 0.25562 0.10372 0.54515 0.0
H861 H 0.28144 0.16333 0.55124 0.0
H862 H 0.25514 0.12033 0.52148 0.0
H863 H 0.28135 0.14602 0.57437 0.0
H864 H 0.30163 0.21319 0.56478 0.0
H865 H 0.24934 0.20258 0.5639 0.0
H866 H 0.33322 0.1347 0.48419 0.0
H867 H 0.31799 0.11679 0.52945 0.0
H868 H 0.2211 0.17152 0.50385 0.0
H869 H 0.2648 0.20833 0.50627 0.0
H870 H 0.20539 0.1945 0.50821 0.0
H871 H 0.24833 0.23068 0.51055 0.0
H872 H 0.26249 0.15139 0.45347 0.0
H873 H 0.27066 0.11703 0.4882 0.0
H874 H 0.2626 0.12885 0.43132 0.0
H875 H 0.27066 0.09506 0.46541 0.0
H876 H 0.29654 0.19293 0.43858 0.0
H877 H 0.25142 0.20937 0.44828 0.0
H878 H 0.20182 0.13177 0.5297 0.0
H879 H 0.20392 0.10873 0.48116 0.0
Li880 Li 0.13905 0.0182 0.77188 0.0
Li881 Li 0.11725 0.0009 0.78671 0.0
Li882 Li 0.13756 0.98722 0.77102 0.0
Li883 Li 0.11546 -0.00211 0.75697 0.0
C884 C 0.15345 0.0062 0.80205 0.0
N885 N 0.17787 0.00919 0.8261 0.0
C886 C 0.15007 0.00873 0.81833 0.0
C887 C 0.16922 0.0052 0.79797 0.0
C888 C 0.16259 0.01024 0.83032 0.0
C889 C 0.18141 0.00672 0.81032 0.0
C890 C 0.10382 0.02815 0.77354 0.0
C891 C 0.07579 0.03129 0.7726 0.0
N892 N 0.08046 0.04814 0.77585 0.0
C893 C 0.10835 0.04549 0.77687 0.0
C894 C 0.08742 0.02097 0.7714 0.0
C895 C 0.09636 0.05538 0.778 0.0
C896 C 0.15516 0.0456 0.75694 0.0
N897 N 0.15265 0.03958 0.77156 0.0
C898 C 0.16799 0.06488 0.78524 0.0
C899 C 0.1589 0.04881 0.78558 0.0
C900 C 0.17069 0.07156 0.7703 0.0
C901 C 0.16424 0.06155 0.75602 0.0
H902 H 0.14992 0.03807 0.74597 0.0
H903 H 0.15655 0.04381 0.79707 0.0
C904 C 0.09831 0.98567 0.81033 0.0
N905 N 0.105 0.00066 0.80539 0.0
C906 C 0.08909 0.98503 0.82393 0.0
C907 C 0.09404 0.01529 0.82726 0.0
C908 C 0.10306 0.01533 0.81352 0.0
C909 C 0.08687 -2e-05 0.83267 0.0
H910 H 0.10014 0.97419 0.8037 0.0
H911 H 0.10866 0.02707 0.8094 0.0
C912 C 0.14938 0.00104 0.74096 0.0
N913 N 0.17099 -0.00014 0.71694 0.0
C914 C 0.14376 0.99529 0.72499 0.0
C915 C 0.16597 0.00625 0.74472 0.0
C916 C 0.15489 0.99477 0.71302 0.0
C917 C 0.17671 0.00554 0.73239 0.0
C918 C 0.10168 0.96663 0.76777 0.0
C919 C 0.10528 0.95124 0.76165 0.0
C920 C 0.08558 0.96819 0.76986 0.0
C921 C 0.09266 0.9377 0.75756 0.0
C922 C 0.0733 0.95437 0.7656 0.0
N923 N 0.07707 0.93953 0.75959 0.0
C924 C 0.15322 0.96254 0.78379 0.0
C925 C 0.15381 0.96339 0.75533 0.0
C926 C 0.16138 0.94894 0.78301 0.0
N927 N 0.14969 0.96949 0.77005 0.0
C928 C 0.16219 0.95004 0.75404 0.0
C929 C 0.16604 0.94262 0.76798 0.0
H930 H 0.14952 0.96743 0.7953 0.0
H931 H 0.15034 0.96864 0.74451 0.0
C932 C 0.09684 0.0087 0.73297 0.0
N933 N 0.10117 0.99472 0.73826 0.0
C934 C 0.08661 0.00755 0.7191 0.0
C935 C 0.08581 0.97762 0.71604 0.0
C936 C 0.09603 0.97936 0.73007 0.0
C937 C 0.08097 0.99186 0.71044 0.0
H938 H 0.10157 0.02082 0.73937 0.0
H939 H 0.10009 0.96851 0.7342 0.0
O940 O 0.14124 0.00442 0.79023 0.0
O941 O 0.11545 0.01839 0.77181 0.0
O942 O 0.13863 0.00161 0.7528 0.0
O943 O 0.11391 0.97994 0.77203 0.0
H944 H 0.13789 0.00949 0.82167 0.0
H945 H 0.17199 0.00312 0.78542 0.0
H946 H 0.16016 0.01221 0.84297 0.0
H947 H 0.19367 0.00589 0.80737 0.0
H948 H 0.06305 0.02591 0.77088 0.0
H949 H 0.12102 0.05124 0.77845 0.0
H950 H 0.08372 0.00761 0.76858 0.0
H951 H 0.09969 0.06883 0.78053 0.0
H952 H 0.17247 0.07215 0.79659 0.0
H953 H 0.16615 0.06596 0.74421 0.0
H954 H 0.08367 0.97294 0.82747 0.0
H955 H 0.09297 0.02714 0.83373 0.0
H956 H 0.13095 0.99124 0.72189 0.0
H957 H 0.17049 0.0108 0.757 0.0
H958 H 0.15072 0.99031 0.70062 0.0
H959 H 0.18959 0.00953 0.73511 0.0
H960 H 0.11769 0.94978 0.76007 0.0
H961 H 0.0826 0.97992 0.77482 0.0
H962 H 0.09526 0.92572 0.75279 0.0
H963 H 0.06078 0.95541 0.76712 0.0
H964 H 0.16413 0.94351 0.79403 0.0
H965 H 0.16529 0.9453 0.74219 0.0
H966 H 0.08357 0.0189 0.7149 0.0
H967 H 0.08185 0.96534 0.70958 0.0
Li968 Li 0.23457 0.90674 0.01563 0.0
Li969 Li 0.24864 0.88648 0.0285 0.0
Li970 Li 0.26373 0.91066 0.01779 0.0
Li971 Li 0.24943 0.88661 -0.00104 0.0
C972 C 0.25332 0.92239 0.04759 0.0
N973 N 0.26362 0.94756 0.07232 0.0
C974 C 0.2561 0.91844 0.06342 0.0
C975 C 0.25553 0.93917 0.0444 0.0
C976 C 0.26133 0.93133 0.07574 0.0
C977 C 0.26085 0.9517 0.05705 0.0
C978 C 0.21844 0.8687 0.01549 0.0
C979 C 0.20917 0.83918 0.01676 0.0
N980 N 0.19545 0.8426 0.0234 0.0
C981 C 0.20419 0.87193 0.02218 0.0
C982 C 0.22092 0.85221 0.0126 0.0
C983 C 0.19273 0.85856 0.02614 0.0
C984 C 0.21112 0.92501 0.00476 0.0
N985 N 0.21743 0.91835 0.01751 0.0
C986 C 0.20035 0.93021 0.03565 0.0
C987 C 0.21238 0.92076 0.03273 0.0
C988 C 0.19372 0.93732 0.02278 0.0
C989 C 0.19916 0.93473 0.00718 0.0
H990 H 0.21551 0.92289 0.99283 0.0
H991 H 0.21775 0.91534 0.0426 0.0
C992 C 0.26441 0.87618 0.05424 0.0
N993 N 0.24945 0.87443 0.04666 0.0
C994 C 0.26639 0.86959 0.06891 0.0
C995 C 0.23745 0.85974 0.06793 0.0
C996 C 0.23603 0.86658 0.05326 0.0
C997 C 0.25278 0.86133 0.07594 0.0
H998 H 0.27475 0.88329 0.04921 0.0
H999 H 0.22419 0.86612 0.04754 0.0
C1000 C 0.25422 0.92378 0.98854 0.0
N1001 N 0.26397 0.94921 0.9693 0.0
C1002 C 0.26229 0.92062 0.97454 0.0
C1003 C 0.25099 0.93982 0.9927 0.0
C1004 C 0.26715 0.93366 0.96498 0.0
C1005 C 0.25606 0.95253 0.98283 0.0
C1006 C 0.27883 0.87769 0.01706 0.0
C1007 C 0.29531 0.88462 0.01792 0.0
C1008 C 0.27402 0.86057 0.01832 0.0
C1009 C 0.30674 0.87433 0.02015 0.0
C1010 C 0.28583 0.85069 0.02057 0.0
N1011 N 0.3018 0.85772 0.02143 0.0
C1012 C 0.29034 0.92457 0.03729 0.0
C1013 C 0.2892 0.93767 0.0129 0.0
C1014 C 0.3053 0.93441 0.04209 0.0
N1015 N 0.28276 0.92624 0.02285 0.0
C1016 C 0.30416 0.94771 0.01719 0.0
C1017 C 0.31237 0.94581 0.03176 0.0
H1018 H 0.28507 0.91506 0.04472 0.0
H1019 H 0.28323 0.93854 0.00136 0.0
C1020 C 0.23782 0.8728 0.96738 0.0
N1021 N 0.25001 0.87359 0.97891 0.0
C1022 C 0.23817 0.86373 0.95233 0.0
C1023 C 0.26339 0.85612 0.96148 0.0
C1024 C 0.2627 0.86557 0.97622 0.0
C1025 C 0.25109 0.85525 0.94931 0.0
H1026 H 0.22792 0.87937 0.96984 0.0
H1027 H 0.27242 0.86664 0.98538 0.0
O1028 O 0.24861 0.90987 0.0353 0.0
O1029 O 0.2298 0.88164 0.01162 0.0
O1030 O 0.24931 0.91113 -0.00205 0.0
O1031 O 0.2675 0.88768 0.01508 0.0
H1032 H 0.25421 0.90557 0.0662 0.0
H1033 H 0.25341 0.94245 0.03224 0.0
H1034 H 0.26358 0.92843 0.08802 0.0
H1035 H 0.26281 0.96473 0.05472 0.0
H1036 H 0.21095 0.82635 0.0147 0.0
H1037 H 0.20205 0.88462 0.02438 0.0
H1038 H 0.23184 0.84953 0.00729 0.0
H1039 H 0.18168 0.86086 0.03142 0.0
H1040 H 0.1963 0.93201 0.04779 0.0
H1041 H 0.19405 0.93997 -0.00299 0.0
H1042 H 0.27842 0.87102 0.07473 0.0
H1043 H 0.22665 0.8537 0.07319 0.0
H1044 H 0.26481 0.90824 0.97113 0.0
H1045 H 0.24473 0.94247 0.00348 0.0
H1046 H 0.27344 0.93142 0.95413 0.0
H1047 H 0.25372 0.96503 0.98594 0.0
H1048 H 0.29926 0.89781 0.01679 0.0
H1049 H 0.26131 0.85501 0.01768 0.0
H1050 H 0.31953 0.87954 0.02084 0.0
H1051 H 0.28229 0.83744 0.02164 0.0
H1052 H 0.31169 0.93242 0.05318 0.0
H1053 H 0.3097 0.95618 0.00884 0.0
H1054 H 0.22847 0.86329 0.94316 0.0
H1055 H 0.27364 0.84991 0.95946 0.0
Li1056 Li 0.23194 0.39079 0.01994 0.0
Li1057 Li 0.24432 0.37004 0.03509 0.0
Li1058 Li 0.26232 0.39234 0.01982 0.0
Li1059 Li 0.24292 0.36775 0.00531 0.0
C1060 C 0.24638 0.40675 0.05102 0.0
N1061 N 0.24164 0.42995 0.07585 0.0
C1062 C 0.23785 0.40154 0.06429 0.0
C1063 C 0.25258 0.42372 0.05039 0.0
C1064 C 0.23559 0.41347 0.07673 0.0
C1065 C 0.25 0.43527 0.06305 0.0
C1066 C 0.21216 0.35324 0.01735 0.0
C1067 C 0.20187 0.32358 0.01256 0.0
N1068 N 0.18652 0.32676 0.01144 0.0
C1069 C 0.19627 0.3562 0.01622 0.0
C1070 C 0.21499 0.33679 0.01559 0.0
C1071 C 0.18347 0.34266 0.01321 0.0
C1072 C 0.20494 0.39928 0.00421 0.0
N1073 N 0.2144 0.40299 0.01827 0.0
C1074 C 0.19782 0.42232 0.02816 0.0
C1075 C 0.21104 0.41422 0.03021 0.0
C1076 C 0.18782 0.41859 0.01384 0.0
C1077 C 0.19143 0.40686 0.00179 0.0
H1078 H 0.20782 0.39025 0.99494 0.0
H1079 H 0.21847 0.41686 0.04137 0.0
C1080 C 0.25723 0.35788 0.06277 0.0
N1081 N 0.24334 0.35762 0.05359 0.0
C1082 C 0.25692 0.34922 0.0766 0.0
C1083 C 0.22816 0.33968 0.07097 0.0
C1084 C 0.22896 0.34875 0.0574 0.0
C1085 C 0.24223 0.34004 0.08081 0.0
H1086 H 0.26849 0.365 0.05943 0.0
H1087 H 0.21806 0.34888 0.05005 0.0
C1088 C 0.2455 0.40118 0.98891 0.0
N1089 N 0.24415 0.42071 0.96348 0.0
C1090 C 0.24732 0.39463 0.97309 0.0
C1091 C 0.24301 0.41767 0.99182 0.0
C1092 C 0.24662 0.4047 0.9604 0.0
C1093 C 0.24233 0.42734 0.97878 0.0
C1094 C 0.27123 0.3556 0.01759 0.0
C1095 C 0.28652 0.35957 0.01147 0.0
C1096 C 0.26533 0.33914 0.02066 0.0
C1097 C 0.2955 0.34688 0.00818 0.0
C1098 C 0.27466 0.3268 0.01718 0.0
N1099 N 0.28942 0.33089 0.01105 0.0
C1100 C 0.29519 0.40478 0.03072 0.0
C1101 C 0.28671 0.41647 0.00736 0.0
C1102 C 0.31098 0.41368 0.03016 0.0
N1103 N 0.28345 0.40621 0.01934 0.0
C1104 C 0.30227 0.42579 0.0065 0.0
C1105 C 0.31468 0.42433 0.01791 0.0
H1106 H 0.29234 0.39647 0.04007 0.0
H1107 H 0.27733 0.41728 -0.0017 0.0
C1108 C 0.22503 0.34657 0.97901 0.0
N1109 N 0.24001 0.35273 0.9862 0.0
C1110 C 0.22327 0.33567 0.96481 0.0
C1111 C 0.2524 0.33831 0.96538 0.0
C1112 C 0.25357 0.34906 0.97951 0.0
C1113 C 0.23711 0.33135 0.95789 0.0
H1114 H 0.21445 0.35027 0.98414 0.0
H1115 H 0.26534 0.35488 0.98485 0.0
O1116 O 0.24887 0.39526 0.03882 0.0
O1117 O 0.22482 0.36643 0.02009 0.0
O1118 O 0.24614 0.39147 0.00147 0.0
O1119 O 0.26218 0.36785 0.02062 0.0
H1120 H 0.23304 0.38842 0.06496 0.0
H1121 H 0.25924 0.42791 0.04019 0.0
H1122 H 0.22902 0.40963 0.08708 0.0
H1123 H 0.25464 0.44847 0.06271 0.0
H1124 H 0.2039 0.3108 0.01106 0.0
H1125 H 0.19382 0.36883 0.01772 0.0
H1126 H 0.22718 0.33426 0.01633 0.0
H1127 H 0.17112 0.34478 0.01229 0.0
H1128 H 0.19527 0.43124 0.03776 0.0
H1129 H 0.18398 0.40374 0.99056 0.0
H1130 H 0.26798 0.34977 0.08401 0.0
H1131 H 0.21661 0.33286 0.07402 0.0
H1132 H 0.24933 0.38192 0.97062 0.0
H1133 H 0.24163 0.42295 0.00401 0.0
H1134 H 0.24805 0.3998 0.9481 0.0
H1135 H 0.24038 0.44011 0.98083 0.0
H1136 H 0.29129 0.37227 0.00908 0.0
H1137 H 0.25371 0.33593 0.02574 0.0
H1138 H 0.30729 0.34974 0.00332 0.0
H1139 H 0.27019 0.31398 0.01939 0.0
H1140 H 0.32022 0.41229 0.03922 0.0
H1141 H 0.30469 0.43375 -0.00321 0.0
H1142 H 0.21126 0.33077 0.95929 0.0
H1143 H 0.26344 0.33594 0.9601 0.0
Li1144 Li 0.76581 0.15651 0.0243 0.0
Li1145 Li 0.78146 0.13714 0.00765 0.0
Li1146 Li 0.76813 0.158 0.99534 0.0
Li1147 Li 0.75226 0.13324 0.00428 0.0
C1148 C 0.79692 0.17522 0.00801 0.0
N1149 N 0.81827 0.20151 -0.00208 0.0
C1150 C 0.81205 0.17277 0.00296 0.0
C1151 C 0.79273 0.1911 0.00818 0.0
C1152 C 0.82266 0.18621 -0.00214 0.0
C1153 C 0.80367 0.20421 0.00293 0.0
C1154 C 0.75968 0.11864 0.03253 0.0
C1155 C 0.75167 0.08888 0.0335 0.0
N1156 N 0.74798 0.09165 0.0492 0.0
C1157 C 0.75575 0.1212 0.04864 0.0
C1158 C 0.75771 0.10237 0.02489 0.0
C1159 C 0.74991 0.10738 0.05688 0.0
C1160 C 0.74933 0.17037 0.04948 0.0
N1161 N 0.76417 0.16874 0.04437 0.0
C1162 C 0.77715 0.18562 0.06786 0.0
C1163 C 0.77796 0.17607 0.0532 0.0
C1164 C 0.76199 0.18787 0.07338 0.0
C1165 C 0.74795 0.18007 0.06392 0.0
H1166 H 0.73855 0.16427 0.04225 0.0
H1167 H 0.78958 0.17445 0.04883 0.0
C1168 C 0.80691 0.12607 0.99298 0.0
N1169 N 0.79843 0.12518 0.00653 0.0
C1170 C 0.81897 0.11652 0.99066 0.0
C1171 C 0.81297 0.10495 0.01607 0.0
C1172 C 0.80112 0.1149 0.018 0.0
C1173 C 0.822 0.10584 0.00229 0.0
H1174 H 0.80415 0.13411 0.98394 0.0
H1175 H 0.79397 0.11431 0.02852 0.0
C1176 C 0.73669 0.16579 0.00732 0.0
N1177 N 0.71315 0.1855 0.00528 0.0
C1178 C 0.72117 0.15885 0.00057 0.0
C1179 C 0.74023 0.18277 0.01304 0.0
C1180 C 0.70944 0.16902 -0.00034 0.0
C1181 C 0.72816 0.19252 0.0119 0.0
C1182 C 0.76603 0.12396 0.9738 0.0
C1183 C 0.75998 0.12885 0.95934 0.0
C1184 C 0.76945 0.10779 0.97415 0.0
C1185 C 0.75732 0.11742 0.94549 0.0
C1186 C 0.76659 0.09673 0.96004 0.0
N1187 N 0.76063 0.10173 0.94613 0.0
C1188 C 0.78247 0.17299 0.96906 0.0
C1189 C 0.756 0.17795 0.97381 0.0
C1190 C 0.78269 0.18148 0.95517 0.0
N1191 N 0.76927 0.17153 0.9781 0.0
C1192 C 0.75576 0.18662 0.96023 0.0
C1193 C 0.76917 0.18839 0.95076 0.0
H1194 H 0.79257 0.16711 0.97237 0.0
H1195 H 0.7453 0.17585 0.98043 0.0
C1196 C 0.72352 0.11671 0.01299 0.0
N1197 N 0.73336 0.11735 0.00047 0.0
C1198 C 0.70906 0.10536 0.01174 0.0
C1199 C 0.71508 0.09567 0.98464 0.0
C1200 C 0.72933 0.10735 0.98636 0.0
C1201 C 0.70481 0.09455 -0.00253 0.0
H1202 H 0.7269 0.12516 0.02388 0.0
H1203 H 0.73695 0.10839 0.97634 0.0
O1204 O 0.78636 0.16218 0.01295 0.0
O1205 O 0.76579 0.13204 0.02448 0.0
O1206 O 0.74846 0.15612 0.00776 0.0
O1207 O 0.76825 0.13483 0.98759 0.0
H1208 H 0.81559 0.16065 0.00303 0.0
H1209 H 0.78111 0.19321 0.01216 0.0
H1210 H 0.83439 0.18447 0.99387 0.0
H1211 H 0.80054 0.21653 0.00285 0.0
H1212 H 0.74998 0.07622 0.02772 0.0
H1213 H 0.75734 0.13372 0.05475 0.0
H1214 H 0.76072 0.1002 0.01242 0.0
H1215 H 0.74692 0.10916 0.06939 0.0
H1216 H 0.78831 0.191 0.07485 0.0
H1217 H 0.73601 0.18156 0.06749 0.0
H1218 H 0.8258 0.11738 0.9799 0.0
H1219 H 0.81519 0.09681 0.02524 0.0
H1220 H 0.71827 0.1458 0.99588 0.0
H1221 H 0.75221 0.18837 0.01818 0.0
H1222 H 0.6974 0.16383 0.99441 0.0
H1223 H 0.73075 0.20568 0.01622 0.0
H1224 H 0.75716 0.14126 0.95886 0.0
H1225 H 0.774 0.10374 0.98526 0.0
H1226 H 0.75256 0.12101 0.93425 0.0
H1227 H 0.76904 0.08414 0.96017 0.0
H1228 H 0.79313 0.18246 0.94788 0.0
H1229 H 0.74492 0.19133 0.95681 0.0
H1230 H 0.70119 0.10528 0.02173 0.0
H1231 H 0.71216 0.08761 0.97342 0.0
Li1232 Li 0.13599 0.52755 0.26297 0.0
Li1233 Li 0.11242 0.50945 0.27131 0.0
Li1234 Li 0.13373 0.49742 0.25847 0.0
Li1235 Li 0.11462 0.51145 0.24295 0.0
C1236 C 0.14586 0.51497 0.29213 0.0
N1237 N 0.16801 0.52296 0.31853 0.0
C1238 C 0.1407 0.5191 0.30753 0.0
C1239 C 0.16226 0.51472 0.29021 0.0
C1240 C 0.15209 0.52314 0.32071 0.0
C1241 C 0.17328 0.51886 0.30369 0.0
C1242 C 0.10358 0.54143 0.25993 0.0
C1243 C 0.07749 0.54926 0.25519 0.0
N1244 N 0.08374 0.56517 0.26152 0.0
C1245 C 0.10974 0.55787 0.26634 0.0
C1246 C 0.08733 0.53707 0.25426 0.0
C1247 C 0.09952 0.56969 0.26705 0.0
C1248 C 0.15793 0.55451 0.25548 0.0
N1249 N 0.15045 0.54739 0.26792 0.0
C1250 C 0.16546 0.56831 0.28727 0.0
C1251 C 0.15355 0.5542 0.28353 0.0
C1252 C 0.1739 0.5755 0.27472 0.0
C1253 C 0.16982 0.56869 0.25862 0.0
H1254 H 0.1547 0.54913 0.24314 0.0
H1255 H 0.14682 0.54869 0.29306 0.0
C1256 C 0.09881 0.49407 0.29716 0.0
N1257 N 0.09888 0.5073 0.28827 0.0
C1258 C 0.09098 0.49362 0.31157 0.0
C1259 C 0.08343 0.52031 0.30713 0.0
C1260 C 0.09132 0.52019 0.29288 0.0
C1261 C 0.0835 0.50707 0.31678 0.0
H1262 H 0.10554 0.48435 0.29349 0.0
H1263 H 0.09218 0.5309 0.28612 0.0
C1264 C 0.15141 0.51418 0.233 0.0
N1265 N 0.17734 0.51531 0.21355 0.0
C1266 C 0.14875 0.51115 0.21617 0.0
C1267 C 0.16724 0.51778 0.23995 0.0
C1268 C 0.16202 0.51177 0.20654 0.0
C1269 C 0.18019 0.51829 0.22991 0.0
C1270 C 0.09787 0.47886 0.25833 0.0
C1271 C 0.10125 0.46383 0.26335 0.0
C1272 C 0.08199 0.48185 0.25803 0.0
C1273 C 0.08866 0.45213 0.26827 0.0
C1274 C 0.06975 0.46986 0.26311 0.0
N1275 N 0.07331 0.45538 0.26808 0.0
C1276 C 0.14725 0.475 0.27412 0.0
C1277 C 0.15289 0.47422 0.24627 0.0
C1278 C 0.15686 0.46315 0.27666 0.0
N1279 N 0.14571 0.48045 0.25923 0.0
C1280 C 0.16241 0.46204 0.2482 0.0
C1281 C 0.16456 0.45664 0.2636 0.0
H1282 H 0.14105 0.47997 0.28406 0.0
H1283 H 0.15129 0.47875 0.23456 0.0
C1284 C 0.10136 0.52615 0.21767 0.0
N1285 N 0.10317 0.51145 0.22341 0.0
C1286 C 0.09241 0.52605 0.20312 0.0
C1287 C 0.08781 0.49571 0.20064 0.0
C1288 C 0.09661 0.49639 0.21536 0.0
C1289 C 0.08569 0.51068 0.19447 0.0
H1290 H 0.10688 0.53789 0.22439 0.0
H1291 H 0.09831 0.48496 0.22037 0.0
O1292 O 0.13484 0.51107 0.27908 0.0
O1293 O 0.11332 0.52959 0.25973 0.0
O1294 O 0.13852 0.51423 0.24251 0.0
O1295 O 0.11005 0.49047 0.25352 0.0
H1296 H 0.12805 0.51935 0.30926 0.0
H1297 H 0.16644 0.51131 0.27847 0.0
H1298 H 0.14828 0.52645 0.33266 0.0
H1299 H 0.18601 0.51877 0.30236 0.0
H1300 H 0.06488 0.54605 0.25094 0.0
H1301 H 0.12225 0.56145 0.27087 0.0
H1302 H 0.08234 0.52436 0.24938 0.0
H1303 H 0.10411 0.58244 0.27204 0.0
H1304 H 0.16811 0.57345 0.29979 0.0
H1305 H 0.17562 0.57434 0.24856 0.0
H1306 H 0.09133 0.48328 0.31886 0.0
H1307 H 0.07824 0.53116 0.31103 0.0
H1308 H 0.13656 0.50848 0.21061 0.0
H1309 H 0.16951 0.52041 0.25292 0.0
H1310 H 0.16015 0.50951 0.19349 0.0
H1311 H 0.19251 0.52115 0.23511 0.0
H1312 H 0.11345 0.46124 0.26347 0.0
H1313 H 0.0792 0.4934 0.25409 0.0
H1314 H 0.0911 0.44047 0.27224 0.0
H1315 H 0.05742 0.47207 0.2631 0.0
H1316 H 0.15813 0.45895 0.28861 0.0
H1317 H 0.1682 0.45708 0.23791 0.0
H1318 H 0.09105 0.53778 0.19848 0.0
H1319 H 0.08273 0.48369 0.19412 0.0
Li1320 Li 0.73272 0.89047 0.51918 0.0
Li1321 Li 0.74547 0.87033 0.53493 0.0
Li1322 Li 0.76287 0.89136 0.51817 0.0
Li1323 Li 0.74258 0.86657 0.50536 0.0
C1324 C 0.74747 0.90692 0.54973 0.0
N1325 N 0.74207 0.9298 0.57457 0.0
C1326 C 0.73856 0.90152 0.5627 0.0
C1327 C 0.75371 0.92393 0.54941 0.0
C1328 C 0.73596 0.91329 0.57515 0.0
C1329 C 0.75081 0.93531 0.56208 0.0
C1330 C 0.71328 0.85295 0.51618 0.0
C1331 C 0.70412 0.82315 0.51086 0.0
N1332 N 0.689 0.82586 0.50673 0.0
C1333 C 0.69764 0.85544 0.51194 0.0
C1334 C 0.71654 0.83669 0.51578 0.0
C1335 C 0.68553 0.84158 0.5072 0.0
C1336 C 0.70653 0.89978 0.50302 0.0
N1337 N 0.71533 0.90275 0.51747 0.0
C1338 C 0.69759 0.92056 0.52791 0.0
C1339 C 0.71116 0.91297 0.52982 0.0
C1340 C 0.68808 0.9175 0.51319 0.0
C1341 C 0.69282 0.90701 0.5006 0.0
H1342 H 0.70997 0.89141 0.49346 0.0
H1343 H 0.71816 0.9151 0.54125 0.0
C1344 C 0.75917 0.85803 0.56213 0.0
N1345 N 0.74504 0.85868 0.55379 0.0
C1346 C 0.75911 0.84918 0.5758 0.0
C1347 C 0.72996 0.8418 0.57202 0.0
C1348 C 0.73059 0.85077 0.5584 0.0
C1349 C 0.74434 0.84099 0.58099 0.0
H1350 H 0.77049 0.8643 0.55806 0.0
H1351 H 0.71953 0.85153 0.55155 0.0
C1352 C 0.74674 0.89978 0.48763 0.0
N1353 N 0.74723 0.91921 0.46194 0.0
C1354 C 0.75038 0.89345 0.47228 0.0
C1355 C 0.74356 0.91607 0.48996 0.0
C1356 C 0.7505 0.90344 0.45943 0.0
C1357 C 0.74382 0.92568 0.47681 0.0
C1358 C 0.77242 0.85558 0.51752 0.0
C1359 C 0.78613 0.8593 0.50866 0.0
C1360 C 0.76934 0.8404 0.52444 0.0
C1361 C 0.79653 0.8477 0.50683 0.0
C1362 C 0.77999 0.82911 0.52226 0.0
N1363 N 0.79327 0.83297 0.51359 0.0
C1364 C 0.79598 0.90297 0.52819 0.0
C1365 C 0.78732 0.91582 0.50567 0.0
C1366 C 0.81175 0.912 0.52785 0.0
N1367 N 0.78414 0.90493 0.51715 0.0
C1368 C 0.80287 0.92527 0.50503 0.0
C1369 C 0.81535 0.92335 0.51616 0.0
H1370 H 0.79319 0.89426 0.5372 0.0
H1371 H 0.77785 0.91717 0.49692 0.0
C1372 C 0.72783 0.85392 0.47474 0.0
N1373 N 0.73783 0.85058 0.4869 0.0
C1374 C 0.72584 0.84402 0.45991 0.0
C1375 C 0.74324 0.82656 0.47101 0.0
C1376 C 0.74491 0.8368 0.48555 0.0
C1377 C 0.73421 0.83057 0.45775 0.0
H1378 H 0.72208 0.8648 0.47629 0.0
H1379 H 0.75231 0.83401 0.49551 0.0
O1380 O 0.7503 0.89559 0.53754 0.0
O1381 O 0.72521 0.86638 0.52109 0.0
O1382 O 0.74604 0.88997 0.50022 0.0
O1383 O 0.76232 0.86696 0.51977 0.0
H1384 H 0.73365 0.88839 0.56312 0.0
H1385 H 0.76067 0.92827 0.53946 0.0
H1386 H 0.72907 0.9093 0.58525 0.0
H1387 H 0.75551 0.94853 0.56198 0.0
H1388 H 0.70649 0.8105 0.51036 0.0
H1389 H 0.69482 0.86791 0.5125 0.0
H1390 H 0.72855 0.83456 0.51915 0.0
H1391 H 0.67336 0.84332 0.50395 0.0
H1392 H 0.69461 0.92875 0.53788 0.0
H1393 H 0.68578 0.90406 0.48913 0.0
H1394 H 0.77051 0.84868 0.58219 0.0
H1395 H 0.7183 0.83587 0.57568 0.0
H1396 H 0.75309 0.88095 0.4703 0.0
H1397 H 0.74088 0.92122 0.5018 0.0
H1398 H 0.7532 0.89866 0.44747 0.0
H1399 H 0.74131 0.93828 0.47841 0.0
H1400 H 0.78872 0.87103 0.5033 0.0
H1401 H 0.75873 0.83727 0.53125 0.0
H1402 H 0.80721 0.85042 0.50003 0.0
H1403 H 0.77771 0.81727 0.52746 0.0
H1404 H 0.82101 0.91025 0.53672 0.0
H1405 H 0.80519 0.93378 0.49575 0.0
H1406 H 0.71875 0.84751 0.44997 0.0
H1407 H 0.74957 0.81605 0.46991 0.0
Li1408 Li 0.90003 0.04253 0.264 0.0
Li1409 Li 0.87592 0.02339 0.2496 0.0
Li1410 Li 0.89761 0.04098 0.23424 0.0
Li1411 Li 0.87794 0.05419 0.2504 0.0
C1412 C 0.91082 0.01267 0.24891 0.0
N1413 N 0.93403 0.99268 0.25149 0.0
C1414 C 0.9064 0.99608 0.2524 0.0
C1415 C 0.92701 0.01905 0.24661 0.0
C1416 C 0.91833 0.98618 0.25368 0.0
C1417 C 0.93857 0.00876 0.248 0.0
C1418 C 0.86636 0.03899 0.28068 0.0
C1419 C 0.83933 0.03819 0.28953 0.0
N1420 N 0.845 0.03768 0.30507 0.0
C1421 C 0.87193 0.03845 0.29672 0.0
C1422 C 0.84994 0.03881 0.27701 0.0
C1423 C 0.86093 0.03777 0.30888 0.0
C1424 C 0.92013 0.06024 0.2907 0.0
N1425 N 0.91483 0.045 0.28231 0.0
C1426 C 0.93014 0.03185 0.30056 0.0
C1427 C 0.91941 0.03092 0.28713 0.0
C1428 C 0.93577 0.04734 0.30945 0.0
C1429 C 0.93063 0.0617 0.30452 0.0
H1430 H 0.91595 0.07119 0.28686 0.0
H1431 H 0.9144 0.01887 0.28086 0.0
C1432 C 0.85617 0.99321 0.23565 0.0
N1433 N 0.86213 0.0022 0.24988 0.0
C1434 C 0.84705 0.97711 0.23561 0.0
C1435 C 0.85013 0.97997 0.26487 0.0
C1436 C 0.85926 0.99596 0.26434 0.0
C1437 C 0.84402 0.97021 0.25036 0.0
H1438 H 0.85875 -0.00155 0.22432 0.0
H1439 H 0.86438 0.00324 0.27547 0.0
C1440 C 0.9138 0.07467 0.25216 0.0
N1441 N 0.93849 0.10216 0.25704 0.0
C1442 C 0.91022 0.09084 0.25368 0.0
C1443 C 0.92994 0.07249 0.25308 0.0
C1444 C 0.92287 0.10458 0.25611 0.0
C1445 C 0.94225 0.08654 0.2556 0.0
C1446 C 0.86176 0.03923 0.21997 0.0
C1447 C 0.86613 0.04556 0.20536 0.0
C1448 C 0.84541 0.03499 0.223 0.0
C1449 C 0.85402 0.0477 0.19406 0.0
C1450 C 0.83366 0.03732 0.21138 0.0
N1451 N 0.83817 0.04358 0.19728 0.0
C1452 C 0.9137 0.02745 0.20868 0.0
C1453 C 0.91464 0.05679 0.20978 0.0
C1454 C 0.92318 0.02785 0.19529 0.0
N1455 N 0.90975 0.0418 0.21565 0.0
C1456 C 0.92394 0.05774 0.19625 0.0
C1457 C 0.92837 0.04314 0.18892 0.0
H1458 H 0.90952 0.0157 0.21356 0.0
H1459 H 0.91128 0.068 0.21561 0.0
C1460 C 0.86368 0.07877 0.26718 0.0
N1461 N 0.86625 0.07223 0.25208 0.0
C1462 C 0.85542 0.09219 0.26919 0.0
C1463 C 0.85312 0.09233 0.24006 0.0
C1464 C 0.86139 0.07886 0.23862 0.0
C1465 C 0.84996 0.09909 0.2555 0.0
H1466 H 0.86821 0.07369 0.27771 0.0
H1467 H 0.86406 0.07385 0.22677 0.0
O1468 O 0.89932 0.02261 0.24799 0.0
O1469 O 0.87707 0.04007 0.26873 0.0
O1470 O 0.90151 0.06111 0.24987 0.0
O1471 O 0.87346 0.03683 0.23104 0.0
H1472 H 0.89391 0.99095 0.25422 0.0
H1473 H 0.9306 0.0318 0.24377 0.0
H1474 H 0.9151 0.97335 0.25645 0.0
H1475 H 0.95116 0.01355 0.2463 0.0
H1476 H 0.82659 0.03815 0.28691 0.0
H1477 H 0.88463 0.03862 0.29974 0.0
H1478 H 0.84548 0.03932 0.26466 0.0
H1479 H 0.86507 0.03736 0.32135 0.0
H1480 H 0.93343 0.02045 0.3044 0.0
H1481 H 0.93451 0.07379 0.31138 0.0
H1482 H 0.84247 0.97012 0.22414 0.0
H1483 H 0.84833 0.9751 0.27651 0.0
H1484 H 0.89779 0.09276 0.25297 0.0
H1485 H 0.93292 0.06009 0.25205 0.0
H1486 H 0.92028 0.11716 0.25729 0.0
H1487 H 0.95479 0.08503 0.25643 0.0
H1488 H 0.87874 0.0488 0.2028 0.0
H1489 H 0.84186 0.02993 0.23419 0.0
H1490 H 0.85721 0.05262 0.18272 0.0
H1491 H 0.82095 0.03412 0.21356 0.0
H1492 H 0.92618 0.0163 0.18981 0.0
H1493 H 0.92778 0.06975 0.19167 0.0
H1494 H 0.85356 0.09729 0.28132 0.0
H1495 H 0.84914 0.0973 0.2292 0.0
Li1496 Li 0.26601 0.65813 0.52248 0.0
Li1497 Li 0.28063 0.63782 0.5058 0.0
Li1498 Li 0.26713 0.6585 0.49316 0.0
Li1499 Li 0.25121 0.63413 0.50354 0.0
C1500 C 0.29687 0.67592 0.50584 0.0
N1501 N 0.31923 0.70228 0.49738 0.0
C1502 C 0.31198 0.67323 0.50095 0.0
C1503 C 0.29316 0.69202 0.50661 0.0
C1504 C 0.32312 0.68672 0.4967 0.0
C1505 C 0.30462 0.70518 0.5022 0.0
C1506 C 0.26221 0.62035 0.53242 0.0
C1507 C 0.25714 0.59063 0.53476 0.0
N1508 N 0.25521 0.5937 0.55087 0.0
C1509 C 0.26016 0.62321 0.54899 0.0
C1510 C 0.26073 0.60394 0.52523 0.0
C1511 C 0.25665 0.60957 0.55812 0.0
C1512 C 0.25067 0.66983 0.54943 0.0
N1513 N 0.26503 0.67119 0.5423 0.0
C1514 C 0.2778 0.6914 0.56366 0.0
C1515 C 0.27844 0.68178 0.54899 0.0
C1516 C 0.26319 0.69009 0.57151 0.0
C1517 C 0.24946 0.67924 0.56411 0.0
H1518 H 0.24019 0.66131 0.54377 0.0
H1519 H 0.28966 0.68269 0.54294 0.0
C1520 C 0.30402 0.62465 0.48939 0.0
N1521 N 0.29759 0.62577 0.50409 0.0
C1522 C 0.3156 0.61459 0.48653 0.0
C1523 C 0.31377 0.60717 0.51409 0.0
C1524 C 0.30222 0.6174 0.51641 0.0
C1525 C 0.32054 0.60561 0.49895 0.0
H1526 H 0.2999 0.63136 0.4798 0.0
H1527 H 0.29678 0.6185 0.52794 0.0
C1528 C 0.23636 0.66709 0.50622 0.0
N1529 N 0.21269 0.68673 0.50538 0.0
C1530 C 0.22047 0.65996 0.50073 0.0
C1531 C 0.2402 0.68419 0.51133 0.0
C1532 C 0.20868 0.67011 0.50037 0.0
C1533 C 0.22805 0.69391 0.51081 0.0
C1534 C 0.26302 0.62325 0.47291 0.0
C1535 C 0.25798 0.62797 0.45796 0.0
C1536 C 0.26441 0.60658 0.47426 0.0
C1537 C 0.25415 0.61586 0.44471 0.0
C1538 C 0.26044 0.59483 0.46073 0.0
N1539 N 0.25541 0.59967 0.44636 0.0
C1540 C 0.28129 0.67492 0.46731 0.0
C1541 C 0.25312 0.67428 0.46945 0.0
C1542 C 0.28081 0.68207 0.45267 0.0
N1543 N 0.26756 0.67128 0.47537 0.0
C1544 C 0.25204 0.68116 0.45482 0.0
C1545 C 0.26595 0.68489 0.4462 0.0
H1546 H 0.29244 0.67161 0.47184 0.0
H1547 H 0.24226 0.67053 0.47559 0.0
C1548 C 0.22456 0.61381 0.51395 0.0
N1549 N 0.23195 0.61846 0.50043 0.0
C1550 C 0.20976 0.60298 0.51256 0.0
C1551 C 0.21024 0.6022 0.48334 0.0
C1552 C 0.22508 0.61305 0.4853 0.0
C1553 C 0.20254 0.5972 0.49713 0.0
H1554 H 0.22989 0.61895 0.5258 0.0
H1555 H 0.23073 0.61764 0.47478 0.0
O1556 O 0.28587 0.66286 0.5101 0.0
O1557 O 0.26546 0.6336 0.52332 0.0
O1558 O 0.24807 0.65735 0.50637 0.0
O1559 O 0.26652 0.63491 0.48609 0.0
H1560 H 0.31507 0.66085 0.50044 0.0
H1561 H 0.28154 0.6943 0.51045 0.0
H1562 H 0.33486 0.68483 0.49286 0.0
H1563 H 0.3019 0.7177 0.50262 0.0
H1564 H 0.25587 0.57787 0.52934 0.0
H1565 H 0.26127 0.63585 0.55473 0.0
H1566 H 0.26218 0.60151 0.51242 0.0
H1567 H 0.25506 0.6116 0.57097 0.0
H1568 H 0.28862 0.69976 0.56882 0.0
H1569 H 0.23801 0.67768 0.56979 0.0
H1570 H 0.3204 0.61359 0.47465 0.0
H1571 H 0.31744 0.60064 0.52404 0.0
H1572 H 0.21729 0.64676 0.49667 0.0
H1573 H 0.25243 0.68989 0.51562 0.0
H1574 H 0.19636 0.66477 0.49609 0.0
H1575 H 0.23084 0.70716 0.51472 0.0
H1576 H 0.25687 0.6408 0.45663 0.0
H1577 H 0.26851 0.60273 0.48563 0.0
H1578 H 0.25013 0.61932 0.43312 0.0
H1579 H 0.26136 0.58187 0.46165 0.0
H1580 H 0.29171 0.68466 0.44615 0.0
H1581 H 0.24039 0.68321 0.45009 0.0
H1582 H 0.20372 0.59962 0.52338 0.0
H1583 H 0.20456 0.59827 0.47131 0.0
Li1584 Li 0.37608 0.52346 0.7499 0.0
Li1585 Li 0.39934 0.54337 0.7653 0.0
Li1586 Li 0.37778 0.55441 0.75005 0.0
Li1587 Li 0.39853 0.5413 0.7354 0.0
C1588 C 0.36552 0.54131 0.78057 0.0
N1589 N 0.34442 0.54308 0.80501 0.0
C1590 C 0.37067 0.54006 0.7966 0.0
C1591 C 0.34965 0.54347 0.77695 0.0
C1592 C 0.35981 0.54095 0.80878 0.0
C1593 C 0.33918 0.54436 0.7895 0.0
C1594 C 0.4114 0.51371 0.75214 0.0
C1595 C 0.43933 0.5102 0.75292 0.0
N1596 N 0.43481 0.49441 0.7572 0.0
C1597 C 0.40701 0.49741 0.75647 0.0
C1598 C 0.42767 0.52014 0.75027 0.0
C1599 C 0.41903 0.48786 0.75899 0.0
C1600 C 0.36427 0.48999 0.73768 0.0
N1601 N 0.36253 0.50196 0.74964 0.0
C1602 C 0.34334 0.48234 0.76192 0.0
C1603 C 0.35226 0.49848 0.7616 0.0
C1604 C 0.34522 0.46962 0.74997 0.0
C1605 C 0.35576 0.47363 0.73766 0.0
H1606 H 0.37259 0.49307 0.72837 0.0
H1607 H 0.3512 0.5081 0.7711 0.0
C1608 C 0.41893 0.56173 0.79228 0.0
N1609 N 0.41301 0.5463 0.78451 0.0
C1610 C 0.42894 0.56331 0.80649 0.0
C1611 C 0.42641 0.53317 0.80432 0.0
C1612 C 0.41625 0.53216 0.79045 0.0
C1613 C 0.43292 0.54886 0.81245 0.0
H1614 H 0.41579 0.57276 0.78752 0.0
H1615 H 0.41076 0.52005 0.78457 0.0
C1616 C 0.36273 0.53745 0.71939 0.0
N1617 N 0.33893 0.53916 0.69585 0.0
C1618 C 0.3669 0.54413 0.70489 0.0
C1619 C 0.3465 0.5315 0.72189 0.0
C1620 C 0.35468 0.5449 0.69314 0.0
C1621 C 0.33463 0.53253 0.70985 0.0
C1622 C 0.41389 0.57509 0.75188 0.0
C1623 C 0.41055 0.59115 0.75051 0.0
C1624 C 0.42988 0.57292 0.75462 0.0
C1625 C 0.42331 0.60479 0.75194 0.0
C1626 C 0.44231 0.58689 0.75598 0.0
N1627 N 0.4388 0.6024 0.75463 0.0
C1628 C 0.3679 0.58241 0.76532 0.0
C1629 C 0.35589 0.57512 0.73866 0.0
C1630 C 0.35973 0.59591 0.76739 0.0
N1631 N 0.36579 0.57229 0.75116 0.0
C1632 C 0.34728 0.58828 0.74032 0.0
C1633 C 0.34916 0.59882 0.75483 0.0
H1634 H 0.37596 0.57995 0.775 0.0
H1635 H 0.35465 0.56727 0.72738 0.0
C1636 C 0.41575 0.52722 0.71104 0.0
N1637 N 0.41133 0.54169 0.71709 0.0
C1638 C 0.42501 0.52695 0.6975 0.0
C1639 C 0.42482 0.55646 0.69649 0.0
C1640 C 0.41571 0.5562 0.7102 0.0
C1641 C 0.42955 0.54166 0.68987 0.0
H1642 H 0.41202 0.51584 0.71672 0.0
H1643 H 0.41191 0.5675 0.71522 0.0
O1644 O 0.37601 0.54042 0.76852 0.0
O1645 O 0.39977 0.52324 0.74972 0.0
O1646 O 0.37452 0.5367 0.73103 0.0
O1647 O 0.40146 0.56168 0.75091 0.0
H1648 H 0.3829 0.53834 0.7996 0.0
H1649 H 0.34548 0.54442 0.76459 0.0
H1650 H 0.36361 0.53994 0.82124 0.0
H1651 H 0.32686 0.54606 0.78689 0.0
H1652 H 0.45198 0.51503 0.75155 0.0
H1653 H 0.39447 0.49225 0.758 0.0
H1654 H 0.43125 0.53263 0.74673 0.0
H1655 H 0.41582 0.47526 0.7624 0.0
H1656 H 0.33546 0.47971 0.77171 0.0
H1657 H 0.35745 0.46418 0.72817 0.0
H1658 H 0.43359 0.5756 0.81266 0.0
H1659 H 0.42886 0.52174 0.80889 0.0
H1660 H 0.37943 0.54874 0.70277 0.0
H1661 H 0.34311 0.52628 0.73306 0.0
H1662 H 0.35771 0.55009 0.68188 0.0
H1663 H 0.322 0.52808 0.71164 0.0
H1664 H 0.39823 0.59305 0.7484 0.0
H1665 H 0.43266 0.56063 0.75591 0.0
H1666 H 0.4209 0.61729 0.75094 0.0
H1667 H 0.45475 0.5854 0.75817 0.0
H1668 H 0.36144 0.60382 0.77876 0.0
H1669 H 0.33937 0.59035 0.7303 0.0
H1670 H 0.42857 0.5153 0.69308 0.0
H1671 H 0.42778 0.56806 0.69095 0.0
Li1672 Li 0.61151 0.00735 0.7711 0.0
Li1673 Li 0.63578 0.02471 0.76297 0.0
Li1674 Li 0.6144 0.0094 0.7428 0.0
Li1675 Li 0.63279 0.99461 0.75869 0.0
C1676 C 0.60442 0.03984 0.7584 0.0
N1677 N 0.58576 0.06459 0.75775 0.0
C1678 C 0.61093 0.0563 0.76454 0.0
C1679 C 0.58843 0.03598 0.75188 0.0
C1680 C 0.60131 0.06863 0.7641 0.0
C1681 C 0.57919 0.04868 0.75168 0.0
C1682 C 0.64488 0.01193 0.79229 0.0
C1683 C 0.67226 0.01508 0.80377 0.0
N1684 N 0.6672 0.01983 0.81854 0.0
C1685 C 0.63993 0.01671 0.80761 0.0
C1686 C 0.66114 0.01096 0.79037 0.0
C1687 C 0.65141 0.02069 0.82072 0.0
C1688 C 0.59687 0.99353 0.79748 0.0
N1689 N 0.59754 0.00628 0.7879 0.0
C1690 C 0.58297 0.02122 0.80619 0.0
C1691 C 0.59054 0.01978 0.79179 0.0
C1692 C 0.58274 0.00868 0.81671 0.0
C1693 C 0.58931 0.99441 0.81205 0.0
H1694 H 0.60303 0.98322 0.79428 0.0
H1695 H 0.59171 0.03 0.78437 0.0
C1696 C 0.65429 0.05258 0.754 0.0
N1697 N 0.65017 0.04465 0.7673 0.0
C1698 C 0.66432 0.06809 0.75573 0.0
C1699 C 0.66555 0.06704 0.78487 0.0
C1700 C 0.65532 0.05156 0.78257 0.0
C1701 C 0.66995 0.07534 0.77129 0.0
H1702 H 0.64947 0.04698 0.74209 0.0
H1703 H 0.65118 0.04539 0.79295 0.0
C1704 C 0.5966 0.97709 0.75845 0.0
N1705 N 0.57171 0.9544 0.76878 0.0
C1706 C 0.5996 0.96192 0.76345 0.0
C1707 C 0.58092 0.98064 0.7585 0.0
C1708 C 0.58685 0.95062 0.76866 0.0
C1709 C 0.56851 0.96904 0.76385 0.0
C1710 C 0.65132 0.01309 0.73341 0.0
C1711 C 0.64904 0.01176 0.71653 0.0
C1712 C 0.66701 0.01679 0.74071 0.0
C1713 C 0.66253 0.01412 0.70719 0.0
C1714 C 0.68019 0.01909 0.73095 0.0
N1715 N 0.6777 0.01771 0.71453 0.0
C1716 C 0.60733 0.02461 0.71539 0.0
C1717 C 0.59152 -0.00222 0.71729 0.0
C1718 C 0.5991 0.02597 0.70076 0.0
N1719 N 0.60345 0.01063 0.72317 0.0
C1720 C 0.58289 -0.00135 0.70276 0.0
C1721 C 0.58675 0.01284 0.69431 0.0
H1722 H 0.61681 0.03466 0.7206 0.0
H1723 H 0.58875 0.98687 0.72387 0.0
C1724 C 0.64474 0.97078 0.77391 0.0
N1725 N 0.64478 0.97767 0.75962 0.0
C1726 C 0.65448 0.95905 0.77658 0.0
C1727 C 0.66405 0.96172 0.74965 0.0
C1728 C 0.65405 0.97341 0.7475 0.0
C1729 C 0.66435 0.95447 0.76439 0.0
H1730 H 0.63722 0.97457 0.7833 0.0
H1731 H 0.65385 0.97923 0.7363 0.0
O1732 O 0.61341 0.02747 0.75959 0.0
O1733 O 0.63383 0.00834 0.77927 0.0
O1734 O 0.60891 0.98825 0.75325 0.0
O1735 O 0.63817 0.01111 0.74267 0.0
H1736 H 0.62319 0.05949 0.76984 0.0
H1737 H 0.58314 0.02327 0.74728 0.0
H1738 H 0.60616 0.08139 0.7689 0.0
H1739 H 0.56676 0.04586 0.74678 0.0
H1740 H 0.6849 0.01449 0.80244 0.0
H1741 H 0.62739 0.01754 0.80933 0.0
H1742 H 0.66515 0.00709 0.77867 0.0
H1743 H 0.64777 0.02452 0.83262 0.0
H1744 H 0.5784 0.03261 0.80954 0.0
H1745 H 0.58932 0.98449 0.81992 0.0
H1746 H 0.66751 0.07447 0.74509 0.0
H1747 H 0.66959 0.07265 0.79702 0.0
H1748 H 0.61161 0.95887 0.76324 0.0
H1749 H 0.57841 0.99231 0.75459 0.0
H1750 H 0.589 0.93885 0.77259 0.0
H1751 H 0.55633 0.97167 0.76408 0.0
H1752 H 0.63697 0.00893 0.71069 0.0
H1753 H 0.66899 0.01808 0.75375 0.0
H1754 H 0.66094 0.01313 0.6941 0.0
H1755 H 0.69241 0.02201 0.73642 0.0
H1756 H 0.60225 0.03716 0.69461 0.0
H1757 H 0.57353 0.98824 0.69804 0.0
H1758 H 0.65417 0.95352 0.78799 0.0
H1759 H 0.6716 0.95856 0.74002 0.0
Li1760 Li 0.77196 0.67595 0.01779 0.0
Li1761 Li 0.78322 0.65263 0.00459 0.0
Li1762 Li 0.77077 0.67289 0.98825 0.0
Li1763 Li 0.75283 0.65099 0.00338 0.0
C1764 C 0.80317 0.68967 0.0066 0.0
N1765 N 0.8293 0.71546 0.01354 0.0
C1766 C 0.81767 0.68655 0.01359 0.0
C1767 C 0.80204 0.70585 0.00292 0.0
C1768 C 0.83073 0.69976 0.01704 0.0
C1769 C 0.81536 0.71874 0.0066 0.0
C1770 C 0.76955 0.64269 0.03494 0.0
C1771 C 0.7666 0.61563 0.0452 0.0
N1772 N 0.77221 0.62316 0.06016 0.0
C1773 C 0.77528 0.65018 0.05041 0.0
C1774 C 0.76518 0.62528 0.03228 0.0
C1775 C 0.77655 0.64008 0.063 0.0
C1776 C 0.7597 0.69198 0.04357 0.0
N1777 N 0.77384 0.69122 0.0365 0.0
C1778 C 0.78881 0.70901 0.05851 0.0
C1779 C 0.78827 0.69957 0.04355 0.0
C1780 C 0.7744 0.70949 0.06626 0.0
C1781 C 0.75968 0.70119 0.05847 0.0
H1782 H 0.74848 0.68484 0.03791 0.0
H1783 H 0.79942 0.69834 0.03805 0.0
C1784 C 0.80754 0.63523 0.99258 0.0
N1785 N 0.80068 0.64044 0.00621 0.0
C1786 C 0.82104 0.62738 0.99372 0.0
C1787 C 0.82016 0.63035 0.02288 0.0
C1788 C 0.80682 0.6383 0.02118 0.0
C1789 C 0.82751 0.62485 0.00904 0.0
H1790 H 0.80267 0.63742 0.98083 0.0
H1791 H 0.80168 0.64315 0.03188 0.0
C1792 C 0.74402 0.6879 0.00456 0.0
N1793 N 0.72612 0.71318 0.00894 0.0
C1794 C 0.72725 0.684 0.00558 0.0
C1795 C 0.75169 0.70464 0.00576 0.0
C1796 C 0.71841 0.69696 0.00777 0.0
C1797 C 0.74243 0.71725 0.00801 0.0
C1798 C 0.76609 0.63537 0.97287 0.0
C1799 C 0.76396 0.63902 0.95686 0.0
C1800 C 0.76734 0.61909 0.9761 0.0
C1801 C 0.76314 0.62628 0.94427 0.0
C1802 C 0.76652 0.6067 0.96316 0.0
N1803 N 0.76446 0.61052 0.94765 0.0
C1804 C 0.78648 0.68784 0.96253 0.0
C1805 C 0.75905 0.69097 0.96413 0.0
C1806 C 0.78801 0.69706 0.94909 0.0
N1807 N 0.77215 0.68495 0.96968 0.0
C1808 C 0.76006 0.70034 0.95079 0.0
C1809 C 0.77466 0.70342 0.94303 0.0
H1810 H 0.79674 0.683 0.96733 0.0
H1811 H 0.74779 0.68845 0.97003 0.0
C1812 C 0.72637 0.63299 0.01838 0.0
N1813 N 0.73183 0.63701 0.00378 0.0
C1814 C 0.71088 0.62357 0.01937 0.0
C1815 C 0.70671 0.62285 0.99031 0.0
C1816 C 0.72238 0.6321 0.98986 0.0
C1817 C 0.70075 0.61846 0.00522 0.0
H1818 H 0.73393 0.63734 0.02934 0.0
H1819 H 0.72693 0.63559 0.97841 0.0
O1820 O 0.79024 0.67689 0.00324 0.0
O1821 O 0.76813 0.65239 0.0225 0.0
O1822 O 0.7528 0.67531 0.00241 0.0
O1823 O 0.76734 0.64782 0.98526 0.0
H1824 H 0.81879 0.67408 0.01641 0.0
H1825 H 0.79103 0.70844 -0.00275 0.0
H1826 H 0.84199 0.69755 0.02252 0.0
H1827 H 0.81462 0.73134 0.00392 0.0
H1828 H 0.76324 0.60214 0.04334 0.0
H1829 H 0.77875 0.66363 0.05268 0.0
H1830 H 0.76071 0.61931 0.02037 0.0
H1831 H 0.78098 0.6457 0.07503 0.0
H1832 H 0.80039 0.71509 0.06434 0.0
H1833 H 0.74833 0.70135 0.06414 0.0
H1834 H 0.82633 0.62329 0.98274 0.0
H1835 H 0.82495 0.62895 0.03492 0.0
H1836 H 0.72114 0.67108 0.00467 0.0
H1837 H 0.76465 0.70786 0.0051 0.0
H1838 H 0.70541 0.69413 0.00855 0.0
H1839 H 0.74821 0.73027 0.00903 0.0
H1840 H 0.76299 0.65158 0.95418 0.0
H1841 H 0.76908 0.61612 0.98844 0.0
H1842 H 0.76151 0.62892 0.93181 0.0
H1843 H 0.76756 0.59406 0.96544 0.0
H1844 H 0.79952 0.69928 0.94357 0.0
H1845 H 0.74942 0.70482 0.94639 0.0
H1846 H 0.70672 0.6207 0.03113 0.0
H1847 H 0.69935 0.61911 0.9791 0.0
Li1848 Li 0.87712 0.51743 0.76151 0.0
Li1849 Li 0.89978 0.53275 0.78022 0.0
Li1850 Li 0.88035 0.54748 0.76505 0.0
Li1851 Li 0.90046 0.53386 0.7511 0.0
C1852 C 0.86328 0.52739 0.79136 0.0
N1853 N 0.83771 0.51812 0.8104 0.0
C1854 C 0.86579 0.52007 0.80566 0.0
C1855 C 0.84781 0.53014 0.78682 0.0
C1856 C 0.85269 0.51545 0.81511 0.0
C1857 C 0.83502 0.5253 0.79657 0.0
C1858 C 0.90921 0.50264 0.75992 0.0
C1859 C 0.93536 0.49572 0.75456 0.0
N1860 N 0.92863 0.47918 0.7528 0.0
C1861 C 0.90257 0.48557 0.75812 0.0
C1862 C 0.92576 0.50778 0.75823 0.0
C1863 C 0.91258 0.47391 0.75451 0.0
C1864 C 0.86376 0.49029 0.74083 0.0
N1865 N 0.86262 0.49756 0.75604 0.0
C1866 C 0.84256 0.47485 0.76175 0.0
C1867 C 0.85227 0.49026 0.76649 0.0
C1868 C 0.84373 0.46707 0.74623 0.0
C1869 C 0.85426 0.47488 0.73558 0.0
H1870 H 0.87246 0.49623 0.73299 0.0
H1871 H 0.85191 0.49602 0.77863 0.0
C1872 C 0.91357 0.54564 0.81094 0.0
N1873 N 0.91228 0.53254 0.79938 0.0
C1874 C 0.92266 0.54569 0.82543 0.0
C1875 C 0.92917 0.51896 0.81555 0.0
C1876 C 0.91981 0.51934 0.80137 0.0
C1877 C 0.93056 0.53216 0.8279 0.0
H1878 H 0.90736 0.55592 0.80895 0.0
H1879 H 0.91847 0.50903 0.79204 0.0
C1880 C 0.86596 0.52903 0.73251 0.0
N1881 N 0.84213 0.51983 0.70769 0.0
C1882 C 0.87011 0.52787 0.71636 0.0
C1883 C 0.84966 0.52577 0.73601 0.0
C1884 C 0.8579 0.52315 0.704 0.0
C1885 C 0.8378 0.52105 0.7233 0.0
C1886 C 0.9171 0.56519 0.76588 0.0
C1887 C 0.91428 0.58001 0.75991 0.0
C1888 C 0.93298 0.56288 0.76916 0.0
C1889 C 0.92745 0.5922 0.75706 0.0
C1890 C 0.94582 0.57537 0.76612 0.0
N1891 N 0.94281 0.58964 0.76017 0.0
C1892 C 0.86224 0.57144 0.7772 0.0
C1893 C 0.86781 0.57038 0.74933 0.0
C1894 C 0.85296 0.58381 0.77525 0.0
N1895 N 0.86927 0.56501 0.76425 0.0
C1896 C 0.8587 0.58267 0.74683 0.0
C1897 C 0.85111 0.58946 0.75988 0.0
H1898 H 0.86368 0.5668 0.78889 0.0
H1899 H 0.87363 0.56495 0.73933 0.0
C1900 C 0.90961 0.51859 0.72388 0.0
N1901 N 0.91256 0.53363 0.73295 0.0
C1902 C 0.91637 0.51676 0.70905 0.0
C1903 C 0.92922 0.54595 0.71322 0.0
C1904 C 0.92197 0.54728 0.7279 0.0
C1905 C 0.92626 0.53057 0.70369 0.0
H1906 H 0.90156 0.50816 0.72797 0.0
H1907 H 0.92358 0.55925 0.73492 0.0
O1908 O 0.87599 0.53206 0.78205 0.0
O1909 O 0.89952 0.5142 0.76348 0.0
O1910 O 0.87786 0.53309 0.74479 0.0
O1911 O 0.90436 0.55308 0.76858 0.0
H1912 H 0.87773 0.51796 0.80939 0.0
H1913 H 0.84568 0.53595 0.7759 0.0
H1914 H 0.85444 0.50975 0.82619 0.0
H1915 H 0.82297 0.52728 0.79317 0.0
H1916 H 0.94817 0.4995 0.75314 0.0
H1917 H 0.88985 0.48134 0.75965 0.0
H1918 H 0.9311 0.52094 0.75965 0.0
H1919 H 0.9076 0.46066 0.7531 0.0
H1920 H 0.8347 0.46874 0.77028 0.0
H1921 H 0.85558 0.46883 0.72367 0.0
H1922 H 0.92315 0.556 0.83472 0.0
H1923 H 0.93522 0.5084 0.8168 0.0
H1924 H 0.88261 0.53064 0.71336 0.0
H1925 H 0.84623 0.52657 0.7484 0.0
H1926 H 0.86096 0.52214 0.69146 0.0
H1927 H 0.82515 0.5183 0.72585 0.0
H1928 H 0.90206 0.58203 0.75741 0.0
H1929 H 0.93533 0.55151 0.77388 0.0
H1930 H 0.92545 0.60369 0.75235 0.0
H1931 H 0.95818 0.57372 0.76847 0.0
H1932 H 0.84738 0.58895 0.7856 0.0
H1933 H 0.85739 0.58662 0.73479 0.0
H1934 H 0.91396 0.50473 0.70187 0.0
H1935 H 0.93676 0.55682 0.70919 0.0
Li1936 Li 0.74829 0.38661 0.52829 0.0
Li1937 Li 0.73425 0.40693 0.51526 0.0
Li1938 Li 0.74969 0.38712 0.49889 0.0
Li1939 Li 0.76341 0.41109 0.51802 0.0
C1940 C 0.71825 0.3689 0.51455 0.0
N1941 N 0.69484 0.34277 0.52164 0.0
C1942 C 0.70423 0.37217 0.52171 0.0
C1943 C 0.72029 0.35237 0.5108 0.0
C1944 C 0.69255 0.35878 0.52523 0.0
C1945 C 0.70833 0.33932 0.51456 0.0
C1946 C 0.75286 0.42253 0.54747 0.0
C1947 C 0.76064 0.45187 0.55672 0.0
N1948 N 0.76338 0.44782 0.57203 0.0
C1949 C 0.75559 0.41868 0.56334 0.0
C1950 C 0.75519 0.43928 0.54415 0.0
C1951 C 0.76093 0.43163 0.57558 0.0
C1952 C 0.76381 0.37698 0.55434 0.0
N1953 N 0.74906 0.37408 0.54616 0.0
C1954 C 0.73771 0.35685 0.56603 0.0
C1955 C 0.73604 0.36436 0.55175 0.0
C1956 C 0.75279 0.35982 0.5747 0.0
C1957 C 0.76596 0.36998 0.56875 0.0
H1958 H 0.7738 0.38521 0.5499 0.0
H1959 H 0.7243 0.36273 0.54548 0.0
C1960 C 0.70975 0.42343 0.50342 0.0
N1961 N 0.71695 0.41849 0.51668 0.0
C1962 C 0.69785 0.43335 0.5053 0.0
C1963 C 0.70121 0.43283 0.53437 0.0
C1964 C 0.71286 0.42282 0.53191 0.0
C1965 C 0.69353 0.43825 0.52096 0.0
H1966 H 0.7134 0.41986 0.49147 0.0
H1967 H 0.71884 0.41868 0.54221 0.0
C1968 C 0.77848 0.37788 0.51715 0.0
N1969 N 0.80082 0.35721 0.52149 0.0
C1970 C 0.79505 0.38448 0.51843 0.0
C1971 C 0.77327 0.36074 0.5179 0.0
C1972 C 0.80615 0.37383 0.52063 0.0
C1973 C 0.78476 0.35051 0.52017 0.0
C1974 C 0.75469 0.42422 0.48863 0.0
C1975 C 0.76405 0.42128 0.47553 0.0
C1976 C 0.75054 0.44001 0.49198 0.0
C1977 C 0.76928 0.43429 0.46606 0.0
C1978 C 0.75606 0.45271 0.48225 0.0
N1979 N 0.76523 0.44961 0.46961 0.0
C1980 C 0.73738 0.36953 0.46883 0.0
C1981 C 0.76507 0.36928 0.4754 0.0
C1982 C 0.73799 0.3599 0.45414 0.0
N1983 N 0.75082 0.37402 0.47906 0.0
C1984 C 0.76619 0.3595 0.46095 0.0
C1985 C 0.75255 0.35473 0.45001 0.0
H1986 H 0.72623 0.37355 0.47206 0.0
H1987 H 0.77563 0.37313 0.48366 0.0
C1988 C 0.79006 0.42422 0.53763 0.0
N1989 N 0.78225 0.42691 0.52367 0.0
C1990 C 0.80454 0.43451 0.54326 0.0
C1991 C 0.80238 0.45057 0.52032 0.0
C1992 C 0.78796 0.4399 0.51509 0.0
C1993 C 0.81093 0.44764 0.53436 0.0
H1994 H 0.78518 0.41376 0.54416 0.0
H1995 H 0.78171 0.44178 0.50401 0.0
O1996 O 0.72981 0.38184 0.51106 0.0
O1997 O 0.74789 0.40995 0.53528 0.0
O1998 O 0.76747 0.38824 0.51531 0.0
O1999 O 0.74935 0.41159 0.49793 0.0
H2000 H 0.70246 0.38492 0.5246 0.0
H2001 H 0.73103 0.34967 0.50514 0.0
H2002 H 0.68168 0.36111 0.53085 0.0
H2003 H 0.70978 0.32645 0.51184 0.0
H2004 H 0.76271 0.46487 0.55429 0.0
H2005 H 0.7535 0.40585 0.56623 0.0
H2006 H 0.75306 0.44248 0.53196 0.0
H2007 H 0.76311 0.42881 0.5879 0.0
H2008 H 0.72728 0.34918 0.57047 0.0
H2009 H 0.77777 0.37245 0.57519 0.0
H2010 H 0.69206 0.43704 0.49461 0.0
H2011 H 0.69844 0.43648 0.54665 0.0
H2012 H 0.7993 0.39768 0.51766 0.0
H2013 H 0.76049 0.35544 0.51692 0.0
H2014 H 0.81901 0.37879 0.52167 0.0
H2015 H 0.78092 0.33724 0.52092 0.0
H2016 H 0.76725 0.40908 0.47273 0.0
H2017 H 0.7433 0.44247 0.50207 0.0
H2018 H 0.77655 0.43222 0.45589 0.0
H2019 H 0.75307 0.46503 0.48477 0.0
H2020 H 0.72723 0.35681 0.44601 0.0
H2021 H 0.77761 0.35567 0.45844 0.0
H2022 H 0.81098 0.43187 0.55406 0.0
H2023 H 0.80725 0.46038 0.51297 0.0
Li2024 Li 0.61708 0.50012 0.28714 0.0
Li2025 Li 0.63875 0.5188 0.27293 0.0
Li2026 Li 0.61566 0.49844 0.25735 0.0
Li2027 Li 0.638 0.48779 0.2712 0.0
C2028 C 0.60321 0.52787 0.27228 0.0
N2029 N 0.57958 0.5475 0.27082 0.0
C2030 C 0.60744 0.5453 0.27475 0.0
C2031 C 0.58698 0.5204 0.26902 0.0
C2032 C 0.59531 0.55501 0.27397 0.0
C2033 C 0.5752 0.53055 0.26835 0.0
C2034 C 0.65313 0.50537 0.30269 0.0
C2035 C 0.68085 0.50472 0.31102 0.0
N2036 N 0.67728 0.50709 0.32679 0.0
C2037 C 0.64971 0.50777 0.31897 0.0
C2038 C 0.6688 0.50386 0.29863 0.0
C2039 C 0.6621 0.50864 0.33099 0.0
C2040 C 0.60413 0.48408 0.3134 0.0
N2041 N 0.60471 0.49818 0.30567 0.0
C2042 C 0.58696 0.50863 0.32411 0.0
C2043 C 0.59645 0.51042 0.31077 0.0
C2044 C 0.58611 0.4942 0.33236 0.0
C2045 C 0.59491 0.48185 0.32691 0.0
H2046 H 0.6108 0.47454 0.30901 0.0
H2047 H 0.59724 0.52158 0.30452 0.0
C2048 C 0.65014 0.54892 0.25991 0.0
N2049 N 0.65191 0.54051 0.27314 0.0
C2050 C 0.65867 0.56519 0.25943 0.0
C2051 C 0.67113 0.56369 0.28596 0.0
C2052 C 0.66218 0.5475 0.28604 0.0
C2053 C 0.66925 0.57274 0.27259 0.0
H2054 H 0.64188 0.54305 0.24984 0.0
H2055 H 0.6633 0.5406 0.29646 0.0
C2056 C 0.60195 0.46663 0.26885 0.0
N2057 N 0.57678 0.43969 0.26329 0.0
C2058 C 0.60491 0.45103 0.26257 0.0
C2059 C 0.58625 0.46852 0.27244 0.0
C2060 C 0.592 0.43756 0.25981 0.0
C2061 C 0.57366 0.45475 0.26949 0.0
C2062 C 0.64904 0.50289 0.24114 0.0
C2063 C 0.64307 0.4955 0.2257 0.0
C2064 C 0.66539 0.51013 0.2438 0.0
C2065 C 0.65362 0.49542 0.21316 0.0
C2066 C 0.67556 0.50975 0.23094 0.0
N2067 N 0.66951 0.50247 0.21602 0.0
C2068 C 0.60161 0.50993 0.23099 0.0
C2069 C 0.59463 0.48045 0.23094 0.0
C2070 C 0.59355 0.50925 0.21586 0.0
N2071 N 0.60212 0.49566 0.23813 0.0
C2072 C 0.58628 0.47919 0.21579 0.0
C2073 C 0.586 0.49371 0.20798 0.0
H2074 H 0.6079 0.5218 0.23689 0.0
H2075 H 0.59557 0.46922 0.23661 0.0
C2076 C 0.64956 0.46036 0.28261 0.0
N2077 N 0.65032 0.47024 0.27019 0.0
C2078 C 0.65735 0.4465 0.28194 0.0
C2079 C 0.66683 0.45349 0.2559 0.0
C2080 C 0.65867 0.46701 0.25695 0.0
C2081 C 0.66613 0.443 0.26844 0.0
H2082 H 0.64265 0.4631 0.2929 0.0
H2083 H 0.65881 0.47468 0.24703 0.0
O2084 O 0.61497 0.51823 0.27302 0.0
O2085 O 0.6411 0.50439 0.29083 0.0
O2086 O 0.61446 0.47992 0.27159 0.0
O2087 O 0.63893 0.50293 0.25359 0.0
H2088 H 0.61995 0.55127 0.27732 0.0
H2089 H 0.58352 0.50694 0.26697 0.0
H2090 H 0.59841 0.56852 0.27589 0.0
H2091 H 0.56259 0.52496 0.26584 0.0
H2092 H 0.69303 0.50351 0.30808 0.0
H2093 H 0.63762 0.50899 0.32228 0.0
H2094 H 0.6716 0.50197 0.28606 0.0
H2095 H 0.65965 0.51053 0.34364 0.0
H2096 H 0.58055 0.51856 0.32809 0.0
H2097 H 0.59452 0.47053 0.33291 0.0
H2098 H 0.657 0.57183 0.24891 0.0
H2099 H 0.67915 0.56923 0.29635 0.0
H2100 H 0.61703 0.44937 0.25979 0.0
H2101 H 0.5838 0.48046 0.27748 0.0
H2102 H 0.59409 0.42542 0.25491 0.0
H2103 H 0.56143 0.45603 0.27217 0.0
H2104 H 0.63046 0.48979 0.22344 0.0
H2105 H 0.67019 0.51586 0.2557 0.0
H2106 H 0.64918 0.48972 0.20116 0.0
H2107 H 0.68826 0.51524 0.23283 0.0
H2108 H 0.59342 0.52074 0.21026 0.0
H2109 H 0.58068 0.467 0.20999 0.0
H2110 H 0.65659 0.43865 0.29185 0.0
H2111 H 0.67331 0.451 0.24521 0.0
Dy2112 Dy 0.98998 0.01961 0.00758 0.0
C2113 C 0.0561 0.01653 0.01411 0.0
C2114 C 0.95949 0.02684 0.00591 0.0
Dy2115 Dy 0.02577 0.02385 0.01466 0.0
O2116 O 0.9637 0.01384 -0.00184 0.0
O2117 O 0.97165 0.0352 0.01495 0.0
O2118 O 0.99227 0.00541 0.98355 0.0
O2119 O 0.01092 0.02498 0.99279 0.0
C2120 C 0.00674 0.01326 0.98171 0.0
C2121 C 0.0096 0.03016 0.04097 0.0
O2122 O 0.0254 0.04877 0.00568 0.0
O2123 O -0.00159 0.04736 0.01055 0.0
O2124 O 0.05245 0.02952 0.02239 0.0
O2125 O 0.04341 0.00812 0.00584 0.0
O2126 O 0.02464 0.03664 0.03957 0.0
O2127 O 0.00485 0.01891 0.02954 0.0
O2128 O 0.99028 0.99522 0.01781 0.0
O2129 O 0.01713 0.99604 0.0125 0.0
C2130 C 0.01259 0.05603 0.00758 0.0
C2131 C 0.00295 0.98772 0.01598 0.0
Dy2132 Dy 0.26468 0.77202 0.24577 0.0
C2133 C 0.24025 0.76252 0.30523 0.0
C2134 C 0.27239 0.77888 0.21552 0.0
Dy2135 Dy 0.25041 0.77369 0.27712 0.0
O2136 O 0.26117 0.76662 0.21865 0.0
O2137 O 0.27904 0.78724 0.2288 0.0
O2138 O 0.28936 0.76697 0.25108 0.0
O2139 O 0.27438 0.76985 0.2705 0.0
C2140 C 0.28832 0.76761 0.26661 0.0
C2141 C 0.2318 0.78399 0.25423 0.0
O2142 O 0.26842 0.79681 0.28129 0.0
O2143 O 0.26521 0.79887 0.25407 0.0
O2144 O 0.24199 0.77813 0.30232 0.0
O2145 O 0.24465 0.75351 0.29326 0.0
O2146 O 0.23328 0.78989 0.26939 0.0
O2147 O 0.23959 0.77204 0.25226 0.0
O2148 O 0.25536 0.74464 0.24474 0.0
O2149 O 0.24072 0.74791 0.26728 0.0
C2150 C 0.2695 0.80577 0.26894 0.0
C2151 C 0.24534 0.73848 0.25537 0.0
Dy2152 Dy 0.52568 0.01776 0.50876 0.0
C2153 C 0.46523 0.04208 0.51338 0.0
C2154 C 0.55357 0.00478 0.50977 0.0
Dy2155 Dy 0.49172 0.02666 0.51245 0.0
O2156 O 0.54857 0.01247 0.49804 0.0
O2157 O 0.54357 0.00461 0.52127 0.0
O2158 O 0.5261 0.0258 0.48361 0.0
O2159 O 0.5039 0.01584 0.49264 0.0
C2160 C 0.51049 0.02274 0.48105 0.0
C2161 C 0.50666 0.02073 0.53992 0.0
O2162 O 0.48456 -0.0009 0.50571 0.0
O2163 O 0.51016 0.9934 0.51219 0.0
O2164 O 0.46512 0.02698 0.50673 0.0
O2165 O 0.47973 0.04866 0.51916 0.0
O2166 O 0.49106 0.01779 0.53726 0.0
O2167 O 0.51327 0.02819 0.52865 0.0
O2168 O 0.53157 0.04489 0.51693 0.0
O2169 O 0.50771 0.04926 0.5047 0.0
C2170 C 0.49441 0.98858 0.50891 0.0
C2171 C 0.52243 0.05506 0.51136 0.0
Dy2172 Dy 0.23984 0.27228 0.76193 0.0
C2173 C 0.30636 0.27204 0.75268 0.0
C2174 C 0.20885 0.26898 0.77168 0.0
Dy2175 Dy 0.2754 0.26997 0.76259 0.0
O2176 O 0.215 0.27935 0.76162 0.0
O2177 O 0.21933 0.25984 0.77561 0.0
O2178 O 0.24437 0.29693 0.75146 0.0
O2179 O 0.26237 0.29073 0.76698 0.0
C2180 C 0.25919 0.30124 0.75753 0.0
C2181 C 0.25552 0.24127 0.76701 0.0
O2182 O 0.27544 0.28058 0.78839 0.0
O2183 O 0.24743 0.274 0.78821 0.0
O2184 O 0.29926 0.26068 0.76129 0.0
O2185 O 0.29688 0.28268 0.75033 0.0
O2186 O 0.26998 0.24577 0.7739 0.0
O2187 O 0.25287 0.25161 0.75719 0.0
O2188 O 0.24016 0.26218 0.73613 0.0
O2189 O 0.26798 0.27041 0.73645 0.0
C2190 C 0.26178 0.27899 0.79597 0.0
C2191 C 0.2537 0.26552 0.72855 0.0
Dy2192 Dy 0.00555 0.01594 0.49459 0.0
C2193 C 0.02354 0.03531 0.55996 0.0
C2194 C 0.99169 0.00969 0.4638 0.0
Dy2195 Dy 0.00977 0.02955 0.52922 0.0
O2196 O 0.00642 0.00806 0.46796 0.0
O2197 O 0.98448 0.01411 0.47655 0.0
O2198 O 0.03203 0.01438 0.49421 0.0
O2199 O 0.02463 0.03386 0.50857 0.0
C2200 C 0.03667 0.02726 0.50485 0.0
C2201 C 0.97864 0.01759 0.51891 0.0
O2202 O 0.01017 0.05436 0.51992 0.0
O2203 O 0.00211 0.04279 0.49366 0.0
O2204 O 0.00833 0.03522 0.55618 0.0
O2205 O 0.03111 0.03311 0.54691 0.0
O2206 O 0.98312 0.03051 0.52952 0.0
O2207 O 0.99086 0.01131 0.51523 0.0
O2208 O 0.00493 0.99144 0.50492 0.0
O2209 O 0.01599 0.00379 0.53004 0.0
C2210 C 0.00553 0.05586 0.50478 0.0
C2211 C 0.01171 0.99048 0.51943 0.0
Dy2212 Dy 0.2752 0.78122 0.76484 0.0
C2213 C 0.20848 0.74937 0.74828 0.0
C2214 C 0.3042 0.79234 0.78139 0.0
Dy2215 Dy 0.23964 0.75961 0.75994 0.0
O2216 O 0.3003 0.79643 0.76707 0.0
O2217 O 0.29182 0.78315 0.78694 0.0
O2218 O 0.28267 0.77705 0.73909 0.0
O2219 O 0.25994 0.76655 0.74566 0.0
C2220 C 0.26895 0.7676 0.73397 0.0
C2221 C 0.25113 0.77005 0.79047 0.0
O2222 O 0.25321 0.73864 0.75844 0.0
O2223 O 0.27765 0.75482 0.76936 0.0
O2224 O 0.21312 0.7529 0.76351 0.0
O2225 O 0.22106 0.7503 0.73964 0.0
O2226 O 0.24134 0.75587 0.78651 0.0
O2227 O 0.25338 0.77798 0.77818 0.0
O2228 O 0.26158 0.80231 0.76223 0.0
O2229 O 0.23634 0.78542 0.75472 0.0
C2230 C 0.26833 0.74015 0.76442 0.0
C2231 C 0.24599 0.80029 0.7573 0.0
Dy2232 Dy 0.51024 0.0195 0.03052 0.0
C2233 C 0.50943 0.0265 0.96188 0.0
C2234 C 0.5032 0.02181 0.06178 0.0
Dy2235 Dy 0.50434 0.02481 0.99363 0.0
O2236 O 0.51275 0.01222 0.05568 0.0
O2237 O 0.49908 0.03128 0.05115 0.0
O2238 O 0.51282 0.99215 0.02721 0.0
O2239 O 0.50839 0.00499 0.0076 0.0
C2240 C 0.51059 0.99101 0.01153 0.0
C2241 C 0.49885 0.04919 0.01524 0.0
O2242 O 0.48058 0.00963 -0.00314 0.0
O2243 O 0.48358 0.01515 0.02498 0.0
O2244 O 0.50675 0.03886 0.9717 0.0
O2245 O 0.50848 0.01305 0.96933 0.0
O2246 O 0.49057 0.04505 0.00138 0.0
O2247 O 0.51009 0.04079 0.01631 0.0
O2248 O 0.53528 0.03153 0.02696 0.0
O2249 O 0.53114 0.03022 -0.00126 0.0
C2250 C 0.4747 0.00994 0.01133 0.0
C2251 C 0.5406 0.03331 0.01231 0.0
Dy2252 Dy 0.25768 0.29208 0.26445 0.0
C2253 C 0.26545 0.22159 0.26187 0.0
C2254 C 0.24901 0.32192 0.26102 0.0
Dy2255 Dy 0.25685 0.2515 0.25903 0.0
O2256 O 0.26246 0.32005 0.2685 0.0
O2257 O 0.24083 0.30758 0.2548 0.0
O2258 O 0.26501 0.2946 0.29151 0.0
O2259 O 0.26042 0.27167 0.27807 0.0
C2260 C 0.26431 0.27858 0.29213 0.0
C2261 C 0.25122 0.26508 0.2311 0.0
O2262 O 0.23322 0.25201 0.27015 0.0
O2263 O 0.2322 0.28059 0.26875 0.0
O2264 O 0.25226 0.22359 0.25401 0.0
O2265 O 0.27329 0.23577 0.26881 0.0
O2266 O 0.25109 0.24918 0.23174 0.0
O2267 O 0.25403 0.27196 0.2453 0.0
O2268 O 0.28108 0.29093 0.25295 0.0
O2269 O 0.28283 0.26324 0.25756 0.0
C2270 C 0.22576 0.26513 0.27164 0.0
C2271 C 0.28913 0.27828 0.25347 0.0
Dy2272 Dy 0.50599 0.51325 0.9929 0.0
C2273 C 0.51499 0.53331 0.06151 0.0
C2274 C 0.49082 0.50668 0.96292 0.0
Dy2275 Dy 0.508 0.52877 0.02891 0.0
O2276 O 0.50442 0.50196 0.96693 0.0
O2277 O 0.48519 0.51363 0.97561 0.0
O2278 O 0.53215 0.52125 0.98707 0.0
O2279 O 0.52437 0.52769 0.00981 0.0
C2280 C 0.53648 0.52924 0.00128 0.0
C2281 C 0.47796 0.51667 0.01553 0.0
O2282 O 0.50905 0.55273 0.01762 0.0
O2283 O 0.50138 0.53952 0.99166 0.0
O2284 O 0.50137 0.52562 0.05438 0.0
O2285 O 0.52456 0.5395 0.0508 0.0
O2286 O 0.48161 0.53008 0.02567 0.0
O2287 O 0.49051 0.5103 0.0134 0.0
O2288 O 0.5081 0.49 0.00453 0.0
O2289 O 0.51649 0.50416 0.02997 0.0
C2290 C 0.50467 0.55312 0.00212 0.0
C2291 C 0.51385 0.49033 0.01976 0.0
Dy2292 Dy 0.7752 0.28162 0.26477 0.0
C2293 C 0.71178 0.25021 0.239 0.0
C2294 C 0.80556 0.29149 0.27886 0.0
Dy2295 Dy 0.73993 0.2596 0.2574 0.0
O2296 O 0.80145 0.29275 0.2638 0.0
O2297 O 0.79284 0.28578 0.28635 0.0
O2298 O 0.77627 0.28542 0.2383 0.0
O2299 O 0.76269 0.2635 0.24551 0.0
C2300 C 0.76626 0.27158 0.23352 0.0
C2301 C 0.74428 0.27271 0.28857 0.0
O2302 O 0.75331 0.23849 0.26018 0.0
O2303 O 0.77863 0.25525 0.26796 0.0
O2304 O 0.71477 0.24465 0.25289 0.0
O2305 O 0.72482 0.25947 0.23477 0.0
O2306 O 0.73116 0.26254 0.28281 0.0
O2307 O 0.75376 0.27444 0.27732 0.0
O2308 O 0.76106 0.30238 0.26585 0.0
O2309 O 0.73752 0.28599 0.25315 0.0
C2310 C 0.76886 0.24044 0.26517 0.0
C2311 C 0.74624 0.30069 0.25892 0.0
Dy2312 Dy 0.00721 0.51895 0.52792 0.0
C2313 C 0.00431 0.52793 0.45812 0.0
C2314 C 0.00048 0.51836 0.5591 0.0
Dy2315 Dy 0.00234 0.52665 0.49039 0.0
O2316 O 0.01379 0.51467 0.55348 0.0
O2317 O 0.99177 0.52361 0.54802 0.0
O2318 O 0.0139 0.49354 0.52332 0.0
O2319 O 0.00831 0.50666 0.50405 0.0
C2320 C 0.01223 0.49308 0.50762 0.0
C2321 C -0.00036 0.55289 0.51178 0.0
O2322 O 0.9775 0.51394 0.49349 0.0
O2323 O 0.98124 0.50851 0.52068 0.0
O2324 O 0.00742 0.54068 0.46895 0.0
O2325 O -0.00049 0.5144 0.4651 0.0
O2326 O -0.00153 0.55339 0.49619 0.0
O2327 O 0.00158 0.53844 0.5143 0.0
O2328 O 0.03062 0.5351 0.5242 0.0
O2329 O 0.02896 0.52902 0.49595 0.0
C2330 C 0.97236 0.50784 0.50693 0.0
C2331 C 0.03719 0.53457 0.50997 0.0
Dy2332 Dy 0.74005 0.77287 0.26286 0.0
C2333 C 0.80822 0.77682 0.25407 0.0
C2334 C 0.71065 0.7752 0.27457 0.0
Dy2335 Dy 0.77711 0.76978 0.26273 0.0
O2336 O 0.71275 0.76523 0.26192 0.0
O2337 O 0.72444 0.78385 0.28038 0.0
O2338 O 0.74616 0.79733 0.25211 0.0
O2339 O 0.76345 0.79005 0.26765 0.0
C2340 C 0.76101 0.80074 0.25814 0.0
C2341 C 0.7582 0.73905 0.26099 0.0
O2342 O 0.77467 0.7761 0.28916 0.0
O2343 O 0.7473 0.76479 0.28666 0.0
O2344 O 0.80355 0.76778 0.26579 0.0
O2345 O 0.7961 0.78266 0.24797 0.0
O2346 O 0.77393 0.7414 0.26145 0.0
O2347 O 0.75412 0.75319 0.26143 0.0
O2348 O 0.74059 0.76309 0.23702 0.0
O2349 O 0.76866 0.77093 0.237 0.0
C2350 C 0.76077 0.77089 0.29569 0.0
C2351 C 0.7542 0.76593 0.2294 0.0
Dy2352 Dy 0.76305 0.27304 0.74671 0.0
C2353 C 0.74232 0.26565 0.80812 0.0
C2354 C 0.77284 0.28197 0.71763 0.0
Dy2355 Dy 0.75155 0.27302 0.77831 0.0
O2356 O 0.76207 0.26888 0.71948 0.0
O2357 O 0.77812 0.28993 0.73151 0.0
O2358 O 0.78371 0.2606 0.7531 0.0
O2359 O 0.77648 0.27748 0.77074 0.0
C2360 C 0.78594 0.26716 0.76798 0.0
C2361 C 0.72859 0.27834 0.75683 0.0
O2362 O 0.76299 0.29974 0.77984 0.0
O2363 O 0.75836 0.29884 0.75239 0.0
O2364 O 0.7357 0.25809 0.79451 0.0
O2365 O 0.75423 0.27731 0.80543 0.0
O2366 O 0.73077 0.28526 0.77161 0.0
O2367 O 0.7382 0.26817 0.75429 0.0
O2368 O 0.75146 0.24644 0.74499 0.0
O2369 O 0.75538 0.2468 0.77256 0.0
C2370 C 0.762 0.30737 0.76664 0.0
C2371 C 0.75214 0.23856 0.75809 0.0
Dy2372 Dy 0.75948 0.7904 0.7663 0.0
C2373 C 0.76352 0.72257 0.75196 0.0
C2374 C 0.75259 0.82165 0.76622 0.0
Dy2375 Dy 0.75683 0.75377 0.75802 0.0
O2376 O 0.76186 0.81698 0.77723 0.0
O2377 O 0.7476 0.80944 0.75508 0.0
O2378 O 0.7746 0.79032 0.78916 0.0
O2379 O 0.75713 0.76915 0.78093 0.0
C2380 C 0.7687 0.77486 0.79126 0.0
C2381 C 0.74748 0.77003 0.73357 0.0
O2382 O 0.73213 0.75206 0.76717 0.0
O2383 O 0.73326 0.78086 0.76947 0.0
O2384 O 0.76593 0.73428 0.74234 0.0
O2385 O 0.75699 0.7277 0.76495 0.0
O2386 O 0.74048 0.75513 0.73626 0.0
O2387 O 0.75948 0.77504 0.74354 0.0
O2388 O 0.78301 0.79032 0.75517 0.0
O2389 O 0.78364 0.76348 0.76152 0.0
C2390 C 0.72537 0.76542 0.77015 0.0
C2391 C 0.79091 0.7779 0.75699 0.0
Dy2392 Dy 0.48908 0.51901 0.50545 0.0
C2393 C 0.55557 0.51816 0.51932 0.0
C2394 C 0.45848 0.52535 0.50058 0.0
Dy2395 Dy 0.5246 0.52323 0.51423 0.0
O2396 O 0.47057 0.53001 0.49191 0.0
O2397 O 0.4629 0.51661 0.51183 0.0
O2398 O 0.49134 0.50357 0.48227 0.0
O2399 O 0.51072 0.52257 0.49129 0.0
C2400 C 0.50623 0.51044 0.48054 0.0
C2401 C 0.50727 0.53121 0.53919 0.0
O2402 O 0.52424 0.54908 0.50725 0.0
O2403 O 0.49699 0.54651 0.51143 0.0
O2404 O 0.5442 0.51544 0.52926 0.0
O2405 O 0.55021 0.52419 0.50655 0.0
O2406 O 0.52183 0.53889 0.53718 0.0
O2407 O 0.50309 0.51917 0.52832 0.0
O2408 O 0.48908 0.49403 0.51417 0.0
O2409 O 0.51627 0.49531 0.50985 0.0
C2410 C 0.51096 0.55569 0.50865 0.0
C2411 C 0.502 0.48686 0.51297 0.0
Dy2412 Dy 0.02331 0.51655 0.01062 0.0
C2413 C 0.96033 0.53482 0.01084 0.0
C2414 C 0.05031 0.50192 0.01008 0.0
Dy2415 Dy 0.98858 0.52269 0.01383 0.0
O2416 O 0.05047 0.5178 0.01388 0.0
O2417 O 0.03554 0.49423 0.0069 0.0
O2418 O 0.02252 0.52397 0.98533 0.0
O2419 O 0.00121 0.51162 0.99445 0.0
C2420 C 0.00708 0.51887 0.98274 0.0
C2421 C 0.00474 0.52235 0.04228 0.0
O2422 O 0.98474 0.49485 0.00889 0.0
O2423 O 0.00954 0.49498 0.02175 0.0
O2424 O 0.96338 0.52456 0.0212 0.0
O2425 O 0.97234 0.53766 0.00157 0.0
O2426 O 0.9891 0.51866 0.04026 0.0
O2427 O 0.01065 0.52787 0.02977 0.0
O2428 O 0.02886 0.54426 0.01642 0.0
O2429 O 0.00274 0.54737 0.00865 0.0
C2430 C 0.99523 0.48682 0.01581 0.0
C2431 C 0.01824 0.55365 0.01225 0.0
H2432 H 0.02255 0.18677 0.93717 0.0
H2433 H 0.02419 0.16321 0.95267 0.0
H2434 H 0.97725 0.16602 0.97067 0.0
H2435 H 0.97586 0.19052 0.9557 0.0
H2436 H -0.00083 0.15931 0.99443 0.0
H2437 H 0.97915 0.13712 0.9411 0.0
H2438 H 0.97805 0.13516 0.91123 0.0
H2439 H 0.02547 0.12224 0.91147 0.0
H2440 H 0.02696 0.12435 0.94137 0.0
H2441 H 0.99002 0.0751 0.0151 0.0
H2442 H 0.98773 0.10201 0.00571 0.0
H2443 H 0.03374 0.10405 0.98411 0.0
H2444 H 0.03593 0.07662 0.99311 0.0
H2445 H 0.00966 0.10808 0.96276 0.0
H2446 H 0.02865 0.131 0.01767 0.0
H2447 H 0.0276 0.13191 0.0474 0.0
H2448 H 0.97903 0.14169 0.04396 0.0
H2449 H 0.97972 0.14067 0.01419 0.0
C2450 C 0.01267 0.18266 0.94465 0.0
C2451 C -0.00091 0.19057 0.94524 0.0
C2452 C 0.01357 0.16907 0.95339 0.0
C2453 C 0.00076 0.16278 0.96262 0.0
C2454 C 0.98724 0.17072 0.96355 0.0
C2455 C 0.98639 0.18454 0.95486 0.0
C2456 C 0.00149 0.14742 0.9706 0.0
C2457 C 0.00122 0.148 0.98753 0.0
C2458 C 0.0042 0.13274 0.96153 0.0
C2459 C 0.0032 0.13099 0.9435 0.0
C2460 C 0.98938 0.13393 0.93479 0.0
C2461 C 0.98868 0.13279 0.91785 0.0
C2462 C 0.00169 0.12861 0.90946 0.0
C2463 C 0.0154 0.12548 0.91799 0.0
C2464 C 0.01616 0.12662 0.93494 0.0
C2465 C -0.00017 0.08136 0.00858 0.0
C2466 C 0.01309 0.07365 0.00464 0.0
C2467 C -0.00147 0.09683 0.00334 0.0
C2468 C 0.01058 0.10502 0.99427 0.0
C2469 C 0.02431 0.09785 0.99112 0.0
C2470 C 0.0256 0.08226 0.99632 0.0
C2471 C 0.00797 0.12012 0.98667 0.0
C2472 C 0.00767 0.11939 0.96971 0.0
C2473 C 0.00441 0.13446 0.99573 0.0
C2474 C 0.00422 0.13568 0.01368 0.0
C2475 C 0.01773 0.13331 0.02325 0.0
C2476 C 0.0172 0.13384 0.04011 0.0
C2477 C 0.00325 0.13683 0.04756 0.0
C2478 C 0.98983 0.13939 0.03817 0.0
C2479 C 0.9903 0.13888 0.02131 0.0
H2480 H 0.00284 0.13719 0.06061 0.0
H2481 H 0.00115 0.12777 0.89635 0.0
H2482 H 0.08501 0.76636 0.19559 0.0
H2483 H 0.1116 0.76705 0.20954 0.0
H2484 H 0.13449 0.79726 0.17402 0.0
H2485 H 0.1079 0.79694 0.16028 0.0
H2486 H 0.14914 0.7677 0.18211 0.0
H2487 H 0.13057 0.81694 0.20697 0.0
H2488 H 0.11083 0.83113 0.22122 0.0
H2489 H 0.11327 0.80066 0.2606 0.0
H2490 H 0.13284 0.78611 0.24646 0.0
H2491 H 0.22798 0.7893 0.22223 0.0
H2492 H 0.20234 0.78949 0.20676 0.0
H2493 H 0.17614 0.77776 0.24913 0.0
H2494 H 0.20164 0.77877 0.26466 0.0
H2495 H 0.16289 0.79845 0.23663 0.0
H2496 H 0.17921 0.74833 0.21429 0.0
H2497 H 0.19697 0.73073 0.20117 0.0
H2498 H 0.19664 0.75759 0.15895 0.0
H2499 H 0.17905 0.77552 0.17191 0.0
C2500 C 0.09575 0.77314 0.19081 0.0
C2501 C 0.09449 0.78169 0.17696 0.0
C2502 C 0.11087 0.77352 0.19875 0.0
C2503 C 0.12495 0.78222 0.19278 0.0
C2504 C 0.12374 0.79048 0.17877 0.0
C2505 C 0.10859 0.79039 0.17102 0.0
C2506 C 0.14094 0.783 0.20137 0.0
C2507 C 0.15231 0.77457 0.19396 0.0
C2508 C 0.14473 0.79147 0.21703 0.0
C2509 C 0.13305 0.80033 0.22557 0.0
C2510 C 0.12679 0.81317 0.2186 0.0
C2511 C 0.11565 0.82129 0.22667 0.0
C2512 C 0.11077 0.81677 0.24179 0.0
C2513 C 0.11704 0.80414 0.24888 0.0
C2514 C 0.12817 0.79596 0.24085 0.0
C2515 C 0.21669 0.78687 0.22814 0.0
C2516 C 0.21669 0.78412 0.24459 0.0
C2517 C 0.20203 0.78683 0.2193 0.0
C2518 C 0.18716 0.7834 0.22666 0.0
C2519 C 0.18734 0.78056 0.24312 0.0
C2520 C 0.20193 0.78109 0.252 0.0
C2521 C 0.17135 0.78298 0.21752 0.0
C2522 C 0.15991 0.79152 0.2248 0.0
C2523 C 0.16731 0.7741 0.20196 0.0
C2524 C 0.17797 0.76341 0.19416 0.0
C2525 C 0.18304 0.75058 0.20227 0.0
C2526 C 0.19305 0.74053 0.19485 0.0
C2527 C 0.19797 0.74307 0.17926 0.0
C2528 C 0.19285 0.75566 0.17104 0.0
C2529 C 0.18285 0.76577 0.17841 0.0
H2530 H 0.20572 0.73527 0.17353 0.0
H2531 H 0.10215 0.82308 0.24802 0.0
H2532 H 0.52358 0.84053 0.47305 0.0
H2533 H 0.52237 0.86782 0.48797 0.0
H2534 H 0.50011 0.88307 0.44514 0.0
H2535 H 0.50149 0.85611 0.43039 0.0
H2536 H 0.52262 0.90796 0.46015 0.0
H2537 H 0.47743 0.86663 0.47502 0.0
H2538 H 0.46458 0.84153 0.48729 0.0
H2539 H 0.49024 0.8605 0.53292 0.0
H2540 H 0.50336 0.88564 0.52085 0.0
H2541 H 0.48014 0.97141 0.48119 0.0
H2542 H 0.48411 0.94305 0.47211 0.0
H2543 H 0.50295 0.93756 0.52023 0.0
H2544 H 0.49877 0.96574 0.5293 0.0
H2545 H 0.48699 0.90859 0.50621 0.0
H2546 H 0.5285 0.95229 0.49203 0.0
H2547 H 0.54047 0.9777 0.47974 0.0
H2548 H 0.52178 0.95465 0.43258 0.0
H2549 H 0.50944 0.9292 0.44458 0.0
C2550 C 0.51873 0.84994 0.46689 0.0
C2551 C 0.51267 0.84654 0.45069 0.0
C2552 C 0.51796 0.86537 0.47537 0.0
C2553 C 0.51106 0.87735 0.46764 0.0
C2554 C 0.50555 0.87402 0.45127 0.0
C2555 C 0.50631 0.85869 0.44287 0.0
C2556 C 0.50861 0.8931 0.4765 0.0
C2557 C 0.51481 0.90815 0.47021 0.0
C2558 C 0.49886 0.8933 0.48995 0.0
C2559 C 0.49156 0.87785 0.49697 0.0
C2560 C 0.48049 0.86533 0.4876 0.0
C2561 C 0.47312 0.85113 0.49454 0.0
C2562 C 0.47664 0.84939 0.51086 0.0
C2563 C 0.48756 0.86183 0.52027 0.0
C2564 C 0.49497 0.87605 0.51339 0.0
C2565 C 0.4842 0.96374 0.48999 0.0
C2566 C 0.48913 0.97056 0.5059 0.0
C2567 C 0.48684 0.94774 0.48474 0.0
C2568 C 0.49438 0.93856 0.4954 0.0
C2569 C 0.49734 0.94458 0.5118 0.0
C2570 C 0.49473 0.96054 0.51702 0.0
C2571 C 0.50029 0.92334 0.48928 0.0
C2572 C 0.49497 0.90849 0.49628 0.0
C2573 C 0.51083 0.92334 0.47643 0.0
C2574 C 0.51789 0.93887 0.46925 0.0
C2575 C 0.52677 0.9527 0.47906 0.0
C2576 C 0.53366 0.9671 0.47214 0.0
C2577 C 0.53183 0.96781 0.4554 0.0
C2578 C 0.52313 0.95411 0.44555 0.0
C2579 C 0.51619 0.93969 0.45241 0.0
H2580 H 0.5372 0.97896 0.45006 0.0
H2581 H 0.47086 0.83842 0.51622 0.0
H2582 H 0.43995 0.25 0.68851 0.0
H2583 H 0.41461 0.2483 0.70224 0.0
H2584 H 0.40149 0.28741 0.67539 0.0
H2585 H 0.42664 0.28904 0.66148 0.0
H2586 H 0.39808 0.29367 0.7073 0.0
H2587 H 0.38231 0.24741 0.66675 0.0
H2588 H 0.38484 0.22092 0.6511 0.0
H2589 H 0.3815 0.1958 0.6945 0.0
H2590 H 0.37917 0.22222 0.71047 0.0
H2591 H 0.31785 0.29078 0.72888 0.0
H2592 H 0.34149 0.28859 0.71332 0.0
H2593 H 0.35225 0.2492 0.74121 0.0
H2594 H 0.32812 0.25099 0.75654 0.0
H2595 H 0.35691 0.24232 0.70904 0.0
H2596 H 0.37313 0.28923 0.74951 0.0
H2597 H 0.37016 0.31589 0.7646 0.0
H2598 H 0.37252 0.33985 0.7205 0.0
H2599 H 0.37531 0.31327 0.70511 0.0
C2600 C 0.43157 0.25808 0.68535 0.0
C2601 C 0.43542 0.26976 0.67396 0.0
C2602 C 0.41708 0.25709 0.69322 0.0
C2603 C 0.40611 0.26769 0.68981 0.0
C2604 C 0.4098 0.27916 0.67828 0.0
C2605 C 0.42425 0.28015 0.6704 0.0
C2606 C 0.3912 0.26752 0.69886 0.0
C2607 C 0.389 0.28247 0.70751 0.0
C2608 C 0.37951 0.25282 0.69944 0.0
C2609 C 0.38074 0.23686 0.68985 0.0
C2610 C 0.38225 0.23628 0.67299 0.0
C2611 C 0.38362 0.22127 0.66405 0.0
C2612 C 0.38338 0.2067 0.67181 0.0
C2613 C 0.38171 0.20711 0.68851 0.0
C2614 C 0.38034 0.22209 0.69751 0.0
C2615 C 0.32532 0.28175 0.73182 0.0
C2616 C 0.32134 0.27128 0.74415 0.0
C2617 C 0.33882 0.28048 0.72288 0.0
C2618 C 0.34885 0.26894 0.72627 0.0
C2619 C 0.34475 0.25826 0.73842 0.0
C2620 C 0.33107 0.25939 0.74727 0.0
C2621 C 0.36383 0.2685 0.71743 0.0
C2622 C 0.36604 0.25347 0.70886 0.0
C2623 C 0.37558 0.28314 0.71684 0.0
C2624 C 0.37433 0.29924 0.72614 0.0
C2625 C 0.37296 0.30018 0.74302 0.0
C2626 C 0.37131 0.31527 0.75163 0.0
C2627 C 0.37112 0.32955 0.74351 0.0
C2628 C 0.37266 0.32878 0.72677 0.0
C2629 C 0.37431 0.31371 0.7181 0.0
H2630 H 0.36981 0.34121 0.75019 0.0
H2631 H 0.38446 0.1951 0.66487 0.0
H2632 H 0.98558 0.86305 0.59808 0.0
H2633 H 0.98793 0.88753 0.5828 0.0
H2634 H 0.03314 0.87744 0.56536 0.0
H2635 H 0.03063 0.85245 0.58006 0.0
H2636 H 0.03229 0.91249 0.57897 0.0
H2637 H 0.00399 0.86828 0.53963 0.0
H2638 H 0.98222 0.84444 0.53037 0.0
H2639 H 0.94651 0.87544 0.53937 0.0
H2640 H 0.96806 0.89941 0.54888 0.0
H2641 H 0.03796 0.97567 0.5243 0.0
H2642 H 0.03862 0.94958 0.53686 0.0
H2643 H 0.98705 0.94375 0.5421 0.0
H2644 H 0.98639 0.96922 0.52873 0.0
H2645 H 0.99286 0.91542 0.53345 0.0
H2646 H 0.01701 0.95679 0.57686 0.0
H2647 H 0.03601 0.9808 0.5909 0.0
H2648 H 0.07619 0.95715 0.57817 0.0
H2649 H 0.05734 0.93282 0.5643 0.0
C2650 C 0.99592 0.86582 0.59081 0.0
C2651 C 0.00786 0.85565 0.59026 0.0
C2652 C 0.99729 0.87991 0.58219 0.0
C2653 C 0.01067 0.88422 0.57293 0.0
C2654 C 0.02275 0.87431 0.57249 0.0
C2655 C 0.02131 0.86009 0.58097 0.0
C2656 C 0.01195 0.89909 0.56372 0.0
C2657 C 0.02389 0.91309 0.56881 0.0
C2658 C 0.00059 0.89999 0.55089 0.0
C2659 C 0.98764 0.8856 0.54509 0.0
C2660 C 0.99149 0.86997 0.53976 0.0
C2661 C 0.97919 0.85645 0.53444 0.0
C2662 C 0.96299 0.85842 0.53431 0.0
C2663 C 0.95906 0.87393 0.53948 0.0
C2664 C 0.97132 0.88749 0.54481 0.0
C2665 C 0.02679 0.96855 0.52789 0.0
C2666 C 0.01207 0.97409 0.5253 0.0
C2667 C 0.02718 0.95382 0.5353 0.0
C2668 C 0.01292 0.94474 0.54069 0.0
C2669 C -0.00178 0.95039 0.53799 0.0
C2670 C 0.99779 0.96488 0.53029 0.0
C2671 C 0.01309 0.92916 0.54882 0.0
C2672 C 0.00143 0.91492 0.5435 0.0
C2673 C 0.02438 0.92823 0.56179 0.0
C2674 C 0.0358 0.94313 0.56937 0.0
C2675 C 0.02991 0.95681 0.57691 0.0
C2676 C 0.04065 0.97043 0.58491 0.0
C2677 C 0.05732 0.97057 0.58533 0.0
C2678 C 0.06328 0.95705 0.5778 0.0
C2679 C 0.05257 0.9433 0.56994 0.0
H2680 H 0.06562 0.98111 0.59156 0.0
H2681 H 0.95349 0.84793 0.53019 0.0
H2682 H 0.42554 0.74878 0.84898 0.0
H2683 H 0.40006 0.75403 0.83722 0.0
H2684 H 0.42226 0.76316 0.79216 0.0
H2685 H 0.44821 0.75883 0.80438 0.0
H2686 H 0.40691 0.78754 0.80145 0.0
H2687 H 0.38826 0.72701 0.79183 0.0
H2688 H 0.38655 0.69845 0.80023 0.0
H2689 H 0.36471 0.7131 0.84379 0.0
H2690 H 0.36619 0.7417 0.83555 0.0
H2691 H 0.33124 0.79697 0.76438 0.0
H2692 H 0.35693 0.7885 0.77149 0.0
H2693 H 0.34029 0.77746 0.81849 0.0
H2694 H 0.31425 0.78522 0.81108 0.0
H2695 H 0.353 0.75231 0.80526 0.0
H2696 H 0.36945 0.81254 0.81296 0.0
H2697 H 0.37157 0.84095 0.80422 0.0
H2698 H 0.39915 0.82735 0.7644 0.0
H2699 H 0.39702 0.79878 0.7728 0.0
C2700 C 0.42483 0.75136 0.8364 0.0
C2701 C 0.43869 0.75325 0.82749 0.0
C2702 C 0.41024 0.7543 0.82964 0.0
C2703 C 0.40913 0.75867 0.81368 0.0
C2704 C 0.42283 0.75974 0.80447 0.0
C2705 C 0.43756 0.75715 0.81138 0.0
C2706 C 0.39412 0.76373 0.80736 0.0
C2707 C 0.39514 0.7797 0.80193 0.0
C2708 C 0.37877 0.75368 0.80832 0.0
C2709 C 0.37721 0.73639 0.81302 0.0
C2710 C 0.38301 0.72408 0.80315 0.0
C2711 C 0.38209 0.70791 0.80788 0.0
C2712 C 0.3755 0.70396 0.82252 0.0
C2713 C 0.36978 0.71617 0.83244 0.0
C2714 C 0.37058 0.73233 0.82771 0.0
C2715 C 0.33325 0.79324 0.77641 0.0
C2716 C 0.32086 0.79192 0.78727 0.0
C2717 C 0.3479 0.78827 0.78043 0.0
C2718 C 0.35056 0.78236 0.79555 0.0
C2719 C 0.33847 0.78188 0.80672 0.0
C2720 C 0.32372 0.78657 0.8026 0.0
C2721 C 0.36576 0.77627 0.79956 0.0
C2722 C 0.36476 0.76009 0.80455 0.0
C2723 C 0.38116 0.78615 0.79815 0.0
C2724 C 0.38299 0.8035 0.79345 0.0
C2725 C 0.37594 0.8156 0.80232 0.0
C2726 C 0.37713 0.83173 0.79742 0.0
C2727 C 0.38546 0.83594 0.78374 0.0
C2728 C 0.3927 0.82406 0.77499 0.0
C2729 C 0.39153 0.80791 0.77983 0.0
H2730 H 0.38633 0.84842 0.77994 0.0
H2731 H 0.37485 0.69146 0.82619 0.0
H2732 H 0.47789 0.19404 0.07426 0.0
H2733 H 0.47778 0.16578 0.06151 0.0
H2734 H 0.5196 0.16209 0.0921 0.0
H2735 H 0.51951 0.19008 0.10534 0.0
H2736 H 0.52166 0.15181 0.05849 0.0
H2737 H 0.48505 0.14229 0.10121 0.0
H2738 H 0.46147 0.14686 0.11655 0.0
H2739 H 0.42996 0.13053 0.07383 0.0
H2740 H 0.4534 0.12611 0.05817 0.0
H2741 H 0.52031 0.06466 0.04 0.0
H2742 H 0.52024 0.09181 0.05532 0.0
H2743 H 0.47543 0.09545 0.02954 0.0
H2744 H 0.47548 0.06839 0.01418 0.0
H2745 H 0.47514 0.10569 0.06152 0.0
H2746 H 0.5095 0.11617 0.01834 0.0
H2747 H 0.53196 0.11491 0.00043 0.0
H2748 H 0.5664 0.13141 0.04088 0.0
H2749 H 0.54413 0.13249 0.05914 0.0
C2750 C 0.48697 0.18718 0.07843 0.0
C2751 C 0.49869 0.19439 0.09088 0.0
C2752 C 0.48692 0.17105 0.07107 0.0
C2753 C 0.49862 0.16183 0.07594 0.0
C2754 C 0.51049 0.16904 0.08814 0.0
C2755 C 0.51047 0.18509 0.09562 0.0
C2756 C 0.49848 0.14465 0.06828 0.0
C2757 C 0.51165 0.14161 0.05939 0.0
C2758 C 0.48513 0.13157 0.06902 0.0
C2759 C 0.471 0.13401 0.07848 0.0
C2760 C 0.47311 0.13979 0.09506 0.0
C2761 C 0.45977 0.14234 0.10382 0.0
C2762 C 0.44423 0.13902 0.09616 0.0
C2763 C 0.442 0.13311 0.07974 0.0
C2764 C 0.45531 0.13057 0.07092 0.0
C2765 C 0.51037 0.07119 0.03773 0.0
C2766 C 0.49797 0.06452 0.02581 0.0
C2767 C 0.51039 0.08672 0.04642 0.0
C2768 C 0.49795 0.09577 0.0434 0.0
C2769 C 0.48518 0.08873 0.03202 0.0
C2770 C 0.48523 0.07329 0.02325 0.0
C2771 C 0.49841 0.11275 0.05177 0.0
C2772 C 0.48527 0.11579 0.06076 0.0
C2773 C 0.51168 0.12593 0.05087 0.0
C2774 C 0.52512 0.1242 0.04016 0.0
C2775 C 0.52185 0.11923 0.02349 0.0
C2776 C 0.53455 0.11863 0.01326 0.0
C2777 C 0.55058 0.12308 0.01952 0.0
C2778 C 0.55397 0.12795 0.03606 0.0
C2779 C 0.54131 0.12855 0.04636 0.0
H2780 H 0.56037 0.12291 0.01151 0.0
H2781 H 0.43392 0.141 0.10296 0.0
H2782 H 0.07614 0.25479 0.31025 0.0
H2783 H 0.10068 0.25437 0.2954 0.0
H2784 H 0.12953 0.28164 0.33681 0.0
H2785 H 0.10506 0.28249 0.35141 0.0
H2786 H 0.14018 0.29332 0.3104 0.0
H2787 H 0.1245 0.2377 0.32772 0.0
H2788 H 0.10648 0.2106 0.32917 0.0
H2789 H 0.10512 0.20072 0.27737 0.0
H2790 H 0.12297 0.22786 0.27561 0.0
H2791 H 0.21814 0.27666 0.30108 0.0
H2792 H 0.19097 0.27696 0.31046 0.0
H2793 H 0.17008 0.25048 0.26491 0.0
H2794 H 0.19743 0.24964 0.2558 0.0
H2795 H 0.15387 0.23892 0.28934 0.0
H2796 H 0.17249 0.29357 0.27273 0.0
H2797 H 0.19154 0.32016 0.27201 0.0
H2798 H 0.18807 0.33172 0.32309 0.0
H2799 H 0.16917 0.30512 0.32417 0.0
C2800 C 0.08775 0.26076 0.31609 0.0
C2801 C 0.08877 0.26865 0.33195 0.0
C2802 C 0.10173 0.26047 0.30764 0.0
C2803 C 0.11697 0.26776 0.31509 0.0
C2804 C 0.11791 0.27597 0.3308 0.0
C2805 C 0.10394 0.27647 0.33914 0.0
C2806 C 0.13206 0.26661 0.30682 0.0
C2807 C 0.14322 0.28142 0.30588 0.0
C2808 C 0.1358 0.25112 0.30045 0.0
C2809 C 0.12489 0.23491 0.30152 0.0
C2810 C 0.12023 0.22982 0.31663 0.0
C2811 C 0.11007 0.21444 0.31751 0.0
C2812 C 0.10461 0.20397 0.30337 0.0
C2813 C 0.10932 0.20886 0.28832 0.0
C2814 C 0.11945 0.22424 0.28737 0.0
C2815 C 0.20769 0.27067 0.29324 0.0
C2816 C 0.20964 0.26303 0.27784 0.0
C2817 C 0.19223 0.27101 0.29849 0.0
C2818 C 0.17852 0.26415 0.28819 0.0
C2819 C 0.18051 0.25596 0.27297 0.0
C2820 C 0.19604 0.25539 0.26782 0.0
C2821 C 0.16216 0.26556 0.2934 0.0
C2822 C 0.15074 0.25084 0.29366 0.0
C2823 C 0.15821 0.28113 0.29922 0.0
C2824 C 0.16947 0.29727 0.29854 0.0
C2825 C 0.17585 0.30173 0.28383 0.0
C2826 C 0.18662 0.31682 0.28335 0.0
C2827 C 0.19104 0.3276 0.2975 0.0
C2828 C 0.18464 0.32336 0.31214 0.0
C2829 C 0.17388 0.30829 0.31268 0.0
H2830 H 0.19943 0.33923 0.29713 0.0
H2831 H 0.09677 0.19206 0.30408 0.0
H2832 H 0.92296 0.0578 0.16141 0.0
H2833 H 0.93766 0.05674 0.13656 0.0
H2834 H 0.97017 0.0287 0.15894 0.0
H2835 H 0.95541 0.02957 0.18378 0.0
H2836 H 0.98518 0.05603 0.14018 0.0
H2837 H 0.9425 0.00706 0.13607 0.0
H2838 H 0.91408 0.99327 0.13722 0.0
H2839 H 0.89979 0.02123 0.09925 0.0
H2840 H 0.92812 0.03537 0.09805 0.0
H2841 H 0.0214 0.02614 0.07106 0.0
H2842 H 0.00793 0.02856 0.09651 0.0
H2843 H 0.96648 0.04081 0.07058 0.0
H2844 H 0.97957 0.03715 0.04508 0.0
H2845 H 0.95584 0.02226 0.09167 0.0
H2846 H 0.99723 0.07118 0.09465 0.0
H2847 H 0.02497 0.08689 0.0936 0.0
H2848 H 0.04101 0.06206 0.13321 0.0
H2849 H 0.01339 0.04605 0.13437 0.0
C2850 C 0.93337 0.05161 0.16108 0.0
C2851 C 0.93802 0.04368 0.17443 0.0
C2852 C 0.94171 0.05098 0.1469 0.0
C2853 C 0.95492 0.04258 0.14595 0.0
C2854 C 0.96 0.03524 0.15949 0.0
C2855 C 0.95152 0.03565 0.17358 0.0
C2856 C 0.96282 0.04058 0.1305 0.0
C2857 C 0.97888 0.04853 0.12958 0.0
C2858 C 0.95437 0.03117 0.11664 0.0
C2859 C 0.9374 0.02237 0.11707 0.0
C2860 C 0.93328 0.01034 0.12804 0.0
C2861 C 0.91719 0.00246 0.12869 0.0
C2862 C 0.90513 0.0064 0.11834 0.0
C2863 C 0.90915 0.0182 0.10727 0.0
C2864 C 0.92522 0.02614 0.10658 0.0
C2865 C 0.00939 0.02929 0.07088 0.0
C2866 C 0.00146 0.03152 0.05621 0.0
C2867 C 0.00173 0.03081 0.08541 0.0
C2868 C 0.9863 0.03531 0.08561 0.0
C2869 C 0.97837 0.03736 0.07083 0.0
C2870 C 0.98583 0.03531 0.05624 0.0
C2871 C 0.97839 0.03777 0.10114 0.0
C2872 C 0.96225 0.02986 0.10215 0.0
C2873 C 0.9867 0.04751 0.115 0.0
C2874 C 0.00327 0.05732 0.11451 0.0
C2875 C 0.00669 0.06902 0.10309 0.0
C2876 C 0.02239 0.07798 0.10247 0.0
C2877 C 0.03476 0.07545 0.1133 0.0
C2878 C 0.03143 0.064 0.12482 0.0
C2879 C 0.01574 0.05499 0.12547 0.0
H2880 H 0.04691 0.08238 0.1128 0.0
H2881 H 0.89268 0.0003 0.11887 0.0
H2882 H 0.2457 0.6706 0.42058 0.0
H2883 H 0.2405 0.68293 0.39545 0.0
H2884 H 0.27763 0.72571 0.41106 0.0
H2885 H 0.28295 0.71332 0.43626 0.0
H2886 H 0.24629 0.73294 0.40335 0.0
H2887 H 0.28448 0.70057 0.38087 0.0
H2888 H 0.29544 0.67477 0.37432 0.0
H2889 H 0.25158 0.65287 0.34612 0.0
H2890 H 0.24025 0.67846 0.35271 0.0
H2891 H 0.25143 0.77734 0.3348 0.0
H2892 H 0.25393 0.76269 0.35887 0.0
H2893 H 0.22447 0.71796 0.33419 0.0
H2894 H 0.22313 0.73236 0.30964 0.0
H2895 H 0.2502 0.71029 0.34644 0.0
H2896 H 0.21137 0.74119 0.3682 0.0
H2897 H 0.19987 0.7669 0.37323 0.0
H2898 H 0.24286 0.79042 0.40204 0.0
H2899 H 0.25468 0.76489 0.39707 0.0
C2900 C 0.25291 0.68251 0.41847 0.0
C2901 C 0.26459 0.69118 0.43027 0.0
C2902 C 0.25 0.68946 0.40415 0.0
C2903 C 0.25868 0.70518 0.40154 0.0
C2904 C 0.27086 0.71353 0.41298 0.0
C2905 C 0.27391 0.70648 0.42725 0.0
C2906 C 0.25389 0.7136 0.38765 0.0
C2907 C 0.24729 0.72813 0.39089 0.0
C2908 C 0.25458 0.70678 0.3715 0.0
C2909 C 0.26143 0.69139 0.36746 0.0
C2910 C 0.2771 0.6902 0.37341 0.0
C2911 C 0.28339 0.67562 0.36966 0.0
C2912 C 0.27419 0.66217 0.35986 0.0
C2913 C 0.25869 0.66329 0.35374 0.0
C2914 C 0.25233 0.67784 0.35747 0.0
C2915 C 0.24498 0.76461 0.3348 0.0
C2916 C 0.237 0.75593 0.32064 0.0
C2917 C 0.2464 0.7562 0.34852 0.0
C2918 C 0.23925 0.73925 0.34838 0.0
C2919 C 0.23012 0.73101 0.33453 0.0
C2920 C 0.22917 0.73927 0.32065 0.0
C2921 C 0.24271 0.72981 0.3621 0.0
C2922 C 0.249 0.71504 0.35888 0.0
C2923 C 0.24142 0.73618 0.37829 0.0
C2924 C 0.2339 0.75113 0.38227 0.0
C2925 C 0.21834 0.75183 0.37567 0.0
C2926 C 0.21179 0.76638 0.37847 0.0
C2927 C 0.22063 0.78029 0.38794 0.0
C2928 C 0.23601 0.77962 0.39474 0.0
C2929 C 0.24261 0.76509 0.39199 0.0
H2930 H 0.21558 0.79159 0.39002 0.0
H2931 H 0.27908 0.65089 0.35697 0.0
H2932 H 0.60023 0.02114 0.66636 0.0
H2933 H 0.58628 0.0218 0.64001 0.0
H2934 H 0.54021 0.0072 0.6605 0.0
H2935 H 0.55419 0.00618 0.68687 0.0
H2936 H 0.54147 0.98987 0.63181 0.0
H2937 H 0.55296 0.04784 0.65265 0.0
H2938 H 0.5706 0.07367 0.66509 0.0
H2939 H 0.60059 0.07353 0.62453 0.0
H2940 H 0.58321 0.04761 0.61191 0.0
H2941 H 0.49288 0.01009 0.56696 0.0
H2942 H 0.50649 0.00802 0.59313 0.0
H2943 H 0.55283 0.02418 0.57372 0.0
H2944 H 0.53915 0.02695 0.54765 0.0
H2945 H 0.55122 0.04057 0.60212 0.0
H2946 H 0.53876 0.98237 0.58106 0.0
H2947 H 0.52116 0.95617 0.56945 0.0
H2948 H 0.49258 0.95656 0.61106 0.0
H2949 H 0.50987 0.98287 0.62283 0.0
C2950 C 0.58712 0.01822 0.66524 0.0
C2951 C 0.57824 0.0137 0.67859 0.0
C2952 C 0.57917 0.01859 0.65022 0.0
C2953 C 0.56221 0.01477 0.64838 0.0
C2954 C 0.55331 0.01019 0.6617 0.0
C2955 C 0.56128 0.00963 0.67671 0.0
C2956 C 0.55381 0.01542 0.63249 0.0
C2957 C 0.5434 0.00101 0.62538 0.0
C2958 C 0.55663 0.02987 0.62405 0.0
C2959 C 0.56684 0.04573 0.63138 0.0
C2960 C 0.56334 0.0533 0.6464 0.0
C2961 C 0.57329 0.06795 0.65349 0.0
C2962 C 0.58672 0.07522 0.64562 0.0
C2963 C 0.59018 0.06789 0.63061 0.0
C2964 C 0.58026 0.05324 0.62347 0.0
C2965 C 0.50598 0.01311 0.56826 0.0
C2966 C 0.51501 0.01864 0.55533 0.0
C2967 C 0.51374 0.01181 0.58318 0.0
C2968 C 0.53069 0.01571 0.58531 0.0
C2969 C 0.53974 0.02107 0.57231 0.0
C2970 C 0.53195 0.02258 0.55744 0.0
C2971 C 0.53891 0.01495 0.60131 0.0
C2972 C 0.54928 0.02939 0.60849 0.0
C2973 C 0.53595 0.00053 0.60985 0.0
C2974 C 0.52554 0.98468 0.60276 0.0
C2975 C 0.52865 0.97694 0.58768 0.0
C2976 C 0.51874 0.96205 0.58108 0.0
C2977 C 0.50574 0.95472 0.5895 0.0
C2978 C 0.50264 0.96225 0.60455 0.0
C2979 C 0.51251 0.97714 0.61119 0.0
H2980 H 0.49809 0.9432 0.58437 0.0
H2981 H 0.59443 0.08654 0.65114 0.0
H2982 H 0.25473 0.30711 0.94962 0.0
H2983 H 0.25772 0.2947 0.92229 0.0
H2984 H 0.21969 0.31846 0.90367 0.0
H2985 H 0.21714 0.33168 0.93089 0.0
H2986 H 0.22232 0.28234 0.88922 0.0
H2987 H 0.24808 0.33934 0.89771 0.0
H2988 H 0.26453 0.36496 0.91187 0.0
H2989 H 0.30617 0.34098 0.91285 0.0
H2990 H 0.28982 0.31503 0.89898 0.0
H2991 H 0.23997 0.29531 0.80938 0.0
H2992 H 0.23542 0.30014 0.83796 0.0
H2993 H 0.27779 0.27954 0.85046 0.0
H2994 H 0.28241 0.27444 0.82135 0.0
H2995 H 0.27327 0.31134 0.86864 0.0
H2996 H 0.24348 0.25574 0.85129 0.0
H2997 H 0.22421 0.23549 0.83295 0.0
H2998 H 0.18605 0.26254 0.84468 0.0
H2999 H 0.20519 0.28329 0.86267 0.0
C3000 C 0.24686 0.30955 0.93975 0.0
C3001 C 0.23601 0.32073 0.94232 0.0
C3002 C 0.24849 0.30234 0.92421 0.0
C3003 C 0.23906 0.3059 0.91108 0.0
C3004 C 0.22704 0.31562 0.91377 0.0
C3005 C 0.22559 0.32312 0.92931 0.0
C3006 C 0.24345 0.30147 0.89451 0.0
C3007 C 0.23341 0.28863 0.88464 0.0
C3008 C 0.25788 0.30987 0.88867 0.0
C3009 C 0.26764 0.32512 0.89767 0.0
C3010 C 0.26066 0.3394 0.90126 0.0
C3011 C 0.26998 0.35402 0.90915 0.0
C3012 C 0.28636 0.35457 0.91335 0.0
C3013 C 0.29345 0.3405 0.90967 0.0
C3014 C 0.28415 0.32582 0.90182 0.0
C3015 C 0.24843 0.2919 0.81819 0.0
C3016 C 0.26145 0.28433 0.81326 0.0
C3017 C 0.24574 0.29459 0.83448 0.0
C3018 C 0.25599 0.28974 0.84617 0.0
C3019 C 0.26964 0.2831 0.84145 0.0
C3020 C 0.27236 0.28035 0.82495 0.0
C3021 C 0.25228 0.29202 0.86328 0.0
C3022 C 0.2624 0.30465 0.87331 0.0
C3023 C 0.23749 0.28395 0.86888 0.0
C3024 C 0.22586 0.27116 0.85831 0.0
C3025 C 0.23102 0.25746 0.84988 0.0
C3026 C 0.22009 0.24588 0.83954 0.0
C3027 C 0.2039 0.2477 0.83768 0.0
C3028 C 0.19859 0.26112 0.84614 0.0
C3029 C 0.20949 0.27281 0.85641 0.0
H3030 H 0.19544 0.23872 0.82969 0.0
H3031 H 0.29359 0.36593 0.91938 0.0
H3032 H 0.96462 0.03697 0.31414 0.0
H3033 H 0.97715 0.03207 0.34015 0.0
H3034 H 0.93971 0.05228 0.36512 0.0
H3035 H 0.92784 0.05797 0.33929 0.0
H3036 H 0.96534 0.05991 0.38272 0.0
H3037 H 0.93799 0.009 0.35326 0.0
H3038 H 0.9323 0.98763 0.32979 0.0
H3039 H 0.98062 0.9775 0.33534 0.0
H3040 H 0.98669 -0.00095 0.35871 0.0
H3041 H 0.96213 0.01588 0.45398 0.0
H3042 H 0.9539 0.02297 0.42711 0.0
H3043 H -0.00066 0.01383 0.40936 0.0
H3044 H 0.00752 0.0064 0.43608 0.0
H3045 H 0.97257 0.00152 0.38782 0.0
H3046 H 0.99374 0.05053 0.42765 0.0
H3047 H 0.99594 0.07496 0.45267 0.0
H3048 H 0.9391 0.0878 0.42127 0.0
H3049 H 0.94451 0.06169 0.40162 0.0
C3050 C 0.95944 0.04079 0.32529 0.0
C3051 C 0.94531 0.04779 0.32485 0.0
C3052 C 0.96647 0.03784 0.34009 0.0
C3053 C 0.95911 0.04134 0.35457 0.0
C3054 C 0.94561 0.0494 0.35414 0.0
C3055 C 0.93883 0.0527 0.3394 0.0
C3056 C 0.96456 0.03566 0.37008 0.0
C3057 C 0.96655 0.04704 0.38399 0.0
C3058 C 0.96649 0.01893 0.37151 0.0
C3059 C 0.96285 0.00577 0.35762 0.0
C3060 C 0.94743 0.00228 0.34942 0.0
C3061 C 0.94414 0.99014 0.33614 0.0
C3062 C 0.95611 0.98125 0.33105 0.0
C3063 C 0.97138 0.98444 0.33928 0.0
C3064 C 0.97475 0.99661 0.35255 0.0
C3065 C 0.97024 0.01509 0.44426 0.0
C3066 C 0.98553 0.01075 0.4471 0.0
C3067 C 0.96559 0.01934 0.429 0.0
C3068 C 0.97626 0.0195 0.41647 0.0
C3069 C 0.99106 0.01404 0.41899 0.0
C3070 C 0.99568 0.00973 0.43421 0.0
C3071 C 0.97225 0.02558 0.40078 0.0
C3072 C 0.97097 0.01431 0.38674 0.0
C3073 C 0.96952 0.04212 0.39946 0.0
C3074 C 0.96889 0.05466 0.4135 0.0
C3075 C 0.98429 0.05798 0.42829 0.0
C3076 C 0.98575 0.07365 0.44381 0.0
C3077 C 0.96195 0.09025 0.44082 0.0
C3078 C 0.94954 0.08223 0.4241 0.0
C3079 C 0.95322 0.06567 0.41182 0.0
H3080 H 0.95879 0.10097 0.44808 0.0
H3081 H 0.95354 0.97185 0.32076 0.0
H3082 H 0.23906 0.70619 0.58269 0.0
H3083 H 0.23735 0.71963 0.61004 0.0
H3084 H 0.28408 0.70849 0.6241 0.0
H3085 H 0.28567 0.69471 0.59705 0.0
H3086 H 0.26282 0.69952 0.64582 0.0
H3087 H 0.27916 0.74798 0.61773 0.0
H3088 H 0.27761 0.76741 0.59681 0.0
H3089 H 0.23159 0.77615 0.61268 0.0
H3090 H 0.23276 0.75656 0.63357 0.0
H3091 H 0.2907 0.75638 0.71497 0.0
H3092 H 0.28618 0.74257 0.68734 0.0
H3093 H 0.23549 0.74568 0.68791 0.0
H3094 H 0.23995 0.75925 0.71593 0.0
H3095 H 0.25459 0.75791 0.65905 0.0
H3096 H 0.24086 0.71043 0.68949 0.0
H3097 H 0.24485 0.692 0.71078 0.0
H3098 H 0.28883 0.68248 0.69043 0.0
H3099 H 0.28528 0.70111 0.66919 0.0
C3100 C 0.24896 0.70661 0.59163 0.0
C3101 C 0.26249 0.69933 0.58769 0.0
C3102 C 0.24803 0.71442 0.60721 0.0
C3103 C 0.2606 0.71509 0.61913 0.0
C3104 C 0.27421 0.7081 0.61512 0.0
C3105 C 0.27517 0.70035 0.59958 0.0
C3106 C 0.2594 0.72237 0.63603 0.0
C3107 C 0.26111 0.71233 0.64868 0.0
C3108 C 0.25677 0.73896 0.63977 0.0
C3109 C 0.25594 0.7506 0.62708 0.0
C3110 C 0.26862 0.75389 0.61665 0.0
C3111 C 0.26783 0.76497 0.60482 0.0
C3112 C 0.25448 0.77296 0.60337 0.0
C3113 C 0.24191 0.76991 0.61378 0.0
C3114 C 0.24262 0.75882 0.62562 0.0
C3115 C 0.27856 0.75401 0.70925 0.0
C3116 C 0.26562 0.75871 0.71758 0.0
C3117 C 0.276 0.74612 0.6935 0.0
C3118 C 0.26051 0.74308 0.68562 0.0
C3119 C 0.24752 0.74788 0.69384 0.0
C3120 C 0.25003 0.75547 0.70983 0.0
C3121 C 0.25826 0.7351 0.66872 0.0
C3122 C 0.25599 0.74502 0.65609 0.0
C3123 C 0.26064 0.71847 0.66497 0.0
C3124 C 0.26288 0.70733 0.67782 0.0
C3125 C 0.25149 0.70457 0.68966 0.0
C3126 C 0.25365 0.69405 0.7017 0.0
C3127 C 0.26711 0.68611 0.70199 0.0
C3128 C 0.27842 0.68866 0.69021 0.0
C3129 C 0.27633 0.6992 0.67816 0.0
H3130 H 0.26875 0.67795 0.71131 0.0
H3131 H 0.2539 0.78155 0.59422 0.0
H3132 H 0.55625 0.02146 0.82568 0.0
H3133 H 0.54982 0.03005 0.85323 0.0
H3134 H 0.59128 0.01172 0.8724 0.0
H3135 H 0.59805 0.00345 0.84485 0.0
H3136 H 0.56283 0.00016 0.88595 0.0
H3137 H 0.59334 0.05204 0.87506 0.0
H3138 H 0.60214 0.07622 0.85973 0.0
H3139 H 0.55526 0.09008 0.86264 0.0
H3140 H 0.54605 0.06581 0.87776 0.0
H3141 H 0.53967 0.02092 0.962 0.0
H3142 H 0.55844 0.02498 0.94054 0.0
H3143 H 0.52217 0.04246 0.91129 0.0
H3144 H 0.50366 0.03953 0.93348 0.0
H3145 H 0.55387 0.05704 0.90547 0.0
H3146 H 0.52215 0.00193 0.91032 0.0
H3147 H 0.51256 0.97727 0.9248 0.0
H3148 H 0.56141 0.96908 0.93186 0.0
H3149 H 0.57133 0.99394 0.91772 0.0
C3150 C 0.564 0.01931 0.83578 0.0
C3151 C 0.57759 0.01176 0.83321 0.0
C3152 C 0.56043 0.02436 0.85143 0.0
C3153 C 0.57036 0.02186 0.86467 0.0
C3154 C 0.58367 0.01392 0.86221 0.0
C3155 C 0.58733 0.00896 0.84654 0.0
C3156 C 0.56575 0.02601 0.88112 0.0
C3157 C 0.56129 0.01267 0.89044 0.0
C3158 C 0.56351 0.04233 0.88663 0.0
C3159 C 0.56896 0.05698 0.87747 0.0
C3160 C 0.58484 0.06013 0.87231 0.0
C3161 C 0.58991 0.07389 0.86368 0.0
C3162 C 0.57926 0.08466 0.86019 0.0
C3163 C 0.5635 0.08172 0.86535 0.0
C3164 C 0.55835 0.06797 0.87397 0.0
C3165 C 0.53585 0.02588 0.95105 0.0
C3166 C 0.52018 0.02937 0.94888 0.0
C3167 C 0.5466 0.02838 0.93896 0.0
C3168 C 0.54148 0.03363 0.9243 0.0
C3169 C 0.52622 0.03832 0.92258 0.0
C3170 C 0.5156 0.03636 0.935 0.0
C3171 C 0.55062 0.03109 0.90997 0.0
C3172 C 0.55586 0.04466 0.9011 0.0
C3173 C 0.55348 0.01492 0.90469 0.0
C3174 C 0.5475 -9e-05 0.91313 0.0
C3175 C 0.53086 0.99496 0.91508 0.0
C3176 C 0.52537 0.98095 0.92323 0.0
C3177 C 0.53638 0.97164 0.92927 0.0
C3178 C 0.5529 0.97634 0.9272 0.0
C3179 C 0.55847 0.99039 0.91914 0.0
H3180 H 0.5321 0.96073 0.93547 0.0
H3181 H 0.58321 0.09531 0.85351 0.0
H3182 H 0.23726 0.30654 0.08436 0.0
H3183 H 0.23733 0.29333 0.10989 0.0
H3184 H 0.24477 0.34218 0.1368 0.0
H3185 H 0.24548 0.35525 0.11133 0.0
H3186 H 0.26442 0.32517 0.14876 0.0
H3187 H 0.20719 0.31243 0.13255 0.0
H3188 H 0.18297 0.30034 0.11468 0.0
H3189 H 0.19485 0.2513 0.11601 0.0
H3190 H 0.21928 0.26311 0.13368 0.0
H3191 H 0.25296 0.29853 0.22745 0.0
H3192 H 0.2498 0.31129 0.20205 0.0
H3193 H 0.24265 0.26239 0.17534 0.0
H3194 H 0.24508 0.24967 0.20067 0.0
H3195 H 0.22241 0.27914 0.16325 0.0
H3196 H 0.27947 0.29102 0.17808 0.0
H3197 H 0.30428 0.30221 0.19541 0.0
H3198 H 0.29342 0.35182 0.19584 0.0
H3199 H 0.2684 0.34088 0.17873 0.0
C3200 C 0.23885 0.31435 0.09579 0.0
C3201 C 0.24145 0.33186 0.09601 0.0
C3202 C 0.23876 0.30683 0.11036 0.0
C3203 C 0.24089 0.31673 0.12536 0.0
C3204 C 0.24316 0.33424 0.12545 0.0
C3205 C 0.24355 0.34172 0.11093 0.0
C3206 C 0.2417 0.3091 0.14102 0.0
C3207 C 0.25506 0.31528 0.15201 0.0
C3208 C 0.22982 0.29576 0.14509 0.0
C3209 C 0.21519 0.2887 0.13432 0.0
C3210 C 0.20473 0.29909 0.12891 0.0
C3211 C 0.19095 0.29228 0.11884 0.0
C3212 C 0.1874 0.27507 0.11418 0.0
C3213 C 0.19762 0.26463 0.1196 0.0
C3214 C 0.21144 0.27138 0.12965 0.0
C3215 C 0.25048 0.29055 0.21617 0.0
C3216 C 0.24913 0.27313 0.21604 0.0
C3217 C 0.24885 0.29783 0.20163 0.0
C3218 C 0.24616 0.28783 0.18668 0.0
C3219 C 0.24468 0.2704 0.18665 0.0
C3220 C 0.24613 0.26314 0.20115 0.0
C3221 C 0.24502 0.29537 0.17103 0.0
C3222 C 0.23168 0.28911 0.16001 0.0
C3223 C 0.25698 0.30854 0.16683 0.0
C3224 C 0.27195 0.31509 0.17727 0.0
C3225 C 0.28229 0.30429 0.182 0.0
C3226 C 0.29641 0.31059 0.19176 0.0
C3227 C 0.3004 0.3277 0.19676 0.0
C3228 C 0.2903 0.33856 0.19199 0.0
C3229 C 0.27614 0.33231 0.18226 0.0
H3230 H 0.31135 0.33256 0.20429 0.0
H3231 H 0.17671 0.26983 0.10639 0.0
H3232 H 0.19411 0.97042 0.02029 0.0
H3233 H 0.1711 0.98528 0.02295 0.0
H3234 H 0.14073 0.93957 0.03351 0.0
H3235 H 0.16375 0.92487 0.03118 0.0
H3236 H 0.12959 0.95457 0.00705 0.0
H3237 H 0.14911 0.96857 0.0622 0.0
H3238 H 0.16914 0.97974 0.08484 0.0
H3239 H 0.17405 0.02878 0.06846 0.0
H3240 H 0.15426 0.01784 0.0455 0.0
H3241 H 0.05748 0.98419 0.01598 0.0
H3242 H 0.08124 0.97174 0.02092 0.0
H3243 H 0.11168 0.02049 0.02317 0.0
H3244 H 0.08743 0.03324 0.01937 0.0
H3245 H 0.12332 0.00397 0.04408 0.0
H3246 H 0.10472 0.98861 0.98737 0.0
H3247 H 0.0845 0.97652 0.96506 0.0
H3248 H 0.07796 0.92906 0.98489 0.0
H3249 H 0.09799 0.94091 0.00739 0.0
C3250 C 0.18254 0.96372 0.0234 0.0
C3251 C 0.18048 0.9466 0.02547 0.0
C3252 C 0.16951 0.97217 0.02503 0.0
C3253 C 0.15432 0.96348 0.0285 0.0
C3254 C 0.15242 0.94646 0.03094 0.0
C3255 C 0.16548 0.9381 0.02959 0.0
C3256 C 0.13998 0.97155 0.02766 0.0
C3257 C 0.12809 0.96527 0.01525 0.0
C3258 C 0.13837 0.98569 0.03818 0.0
C3259 C 0.15033 0.99232 0.05197 0.0
C3260 C 0.1546 0.98169 0.06329 0.0
C3261 C 0.16588 0.98799 0.07621 0.0
C3262 C 0.17291 0.00495 0.07806 0.0
C3263 C 0.16862 0.01564 0.06699 0.0
C3264 C 0.15737 0.00939 0.05402 0.0
C3265 C 0.06926 0.99226 0.01749 0.0
C3266 C 0.07079 0.00959 0.01694 0.0
C3267 C 0.08285 0.98512 0.0203 0.0
C3268 C 0.09835 0.99506 0.02189 0.0
C3269 C 0.09986 0.01253 0.02181 0.0
C3270 C 0.08609 0.01979 0.01954 0.0
C3271 C 0.11286 0.98708 0.02331 0.0
C3272 C 0.12482 0.99336 0.03581 0.0
C3273 C 0.11461 0.97285 0.01284 0.0
C3274 C 0.1028 0.96568 -0.00091 0.0
C3275 C 0.09894 0.97561 0.98698 0.0
C3276 C 0.08751 0.9688 0.97431 0.0
C3277 C 0.07994 0.95204 0.97357 0.0
C3278 C 0.08383 0.94203 0.98547 0.0
C3279 C 0.09524 0.94878 -0.00184 0.0
H3280 H 0.07108 0.9468 0.96377 0.0
H3281 H 0.18163 0.0098 0.08808 0.0
H3282 H 0.6727 0.62399 0.99024 0.0
H3283 H 0.64507 0.60885 0.99215 0.0
H3284 H 0.66307 0.57634 0.02404 0.0
H3285 H 0.69076 0.59156 0.0223 0.0
H3286 H 0.64037 0.55919 -0.00131 0.0
H3287 H 0.64479 0.60427 0.04062 0.0
H3288 H 0.65108 0.63373 0.05226 0.0
H3289 H 0.6153 0.64622 0.01916 0.0
H3290 H 0.60894 0.61686 0.00715 0.0
H3291 H 0.5616 0.52096 0.019 0.0
H3292 H 0.58982 0.53596 0.02193 0.0
H3293 H 0.57616 0.57491 0.99515 0.0
H3294 H 0.54807 0.55989 0.99225 0.0
H3295 H 0.59739 0.58837 0.01995 0.0
H3296 H 0.59389 0.54408 0.97704 0.0
H3297 H 0.58845 0.51511 0.964 0.0
H3298 H 0.62294 0.50142 -0.00224 0.0
H3299 H 0.62843 0.53027 0.01115 0.0
C3300 C 0.6708 0.61356 -0.00241 0.0
C3301 C 0.68396 0.60899 0.00611 0.0
C3302 C 0.65498 0.60497 -0.00125 0.0
C3303 C 0.65195 0.59149 0.0083 0.0
C3304 C 0.66509 0.58671 0.01662 0.0
C3305 C 0.6809 0.59547 0.01567 0.0
C3306 C 0.63507 0.58244 0.00955 0.0
C3307 C 0.63102 0.56547 0.00361 0.0
C3308 C 0.62278 0.59072 0.01564 0.0
C3309 C 0.62649 0.60838 0.02289 0.0
C3310 C 0.63835 0.61332 0.03573 0.0
C3311 C 0.64192 0.63 0.04241 0.0
C3312 C 0.63363 0.64185 0.03643 0.0
C3313 C 0.62172 0.63703 0.02377 0.0
C3314 C 0.61812 0.62037 0.01703 0.0
C3315 C 0.56462 0.53292 0.0141 0.0
C3316 C 0.55269 0.53945 0.00563 0.0
C3317 C 0.58076 0.5414 0.01561 0.0
C3318 C 0.58524 0.55654 0.00861 0.0
C3319 C 0.5731 0.56331 0.00068 0.0
C3320 C 0.55703 0.55477 -0.00093 0.0
C3321 C 0.60257 0.56507 0.00898 0.0
C3322 C 0.60673 0.58199 0.01519 0.0
C3323 C 0.61495 0.55674 0.00305 0.0
C3324 C 0.61139 0.53929 0.99525 0.0
C3325 C 0.60017 0.53485 0.98181 0.0
C3326 C 0.59711 0.51846 0.97432 0.0
C3327 C 0.6053 0.50642 0.98009 0.0
C3328 C 0.61657 0.51075 0.99334 0.0
C3329 C 0.61966 0.52712 0.00088 0.0
H3330 H 0.60294 0.49375 0.97425 0.0
H3331 H 0.6364 0.65476 0.04161 0.0
H3332 H 0.65282 0.41039 0.27059 0.0
H3333 H 0.66621 0.38598 0.26737 0.0
H3334 H 0.71137 0.41839 0.26068 0.0
H3335 H 0.69776 0.44268 0.26311 0.0
H3336 H 0.70813 0.39212 0.23999 0.0
H3337 H 0.70139 0.40038 0.29776 0.0
H3338 H 0.68596 0.40318 0.32216 0.0
H3339 H 0.65746 0.35439 0.30891 0.0
H3340 H 0.67257 0.35138 0.28432 0.0
H3341 H 0.76056 0.33371 0.25861 0.0
H3342 H 0.74678 0.35798 0.25811 0.0
H3343 H 0.7005 0.32516 0.25715 0.0
H3344 H 0.71404 0.30112 0.25779 0.0
H3345 H 0.70428 0.35127 0.28115 0.0
H3346 H 0.7101 0.34234 0.22418 0.0
H3347 H 0.72427 0.33871 0.19908 0.0
H3348 H 0.75338 0.38755 0.21018 0.0
H3349 H 0.7395 0.39141 0.23546 0.0
C3350 C 0.66563 0.41224 0.26852 0.0
C3351 C 0.67433 0.42835 0.26722 0.0
C3352 C 0.67329 0.39833 0.26673 0.0
C3353 C 0.68991 0.40035 0.26408 0.0
C3354 C 0.69857 0.41649 0.26273 0.0
C3355 C 0.69083 0.43035 0.26418 0.0
C3356 C 0.6983 0.38569 0.26265 0.0
C3357 C 0.70748 0.38334 0.24914 0.0
C3358 C 0.69708 0.3739 0.2743 0.0
C3359 C 0.68802 0.37573 0.28912 0.0
C3360 C 0.69176 0.3903 0.29999 0.0
C3361 C 0.68308 0.39192 0.31387 0.0
C3362 C 0.67072 0.37899 0.31706 0.0
C3363 C 0.66703 0.3644 0.30641 0.0
C3364 C 0.67565 0.36273 0.29251 0.0
C3365 C 0.74746 0.33173 0.25821 0.0
C3366 C 0.73839 0.31551 0.25813 0.0
C3367 C 0.73961 0.34554 0.2578 0.0
C3368 C 0.72263 0.34332 0.25751 0.0
C3369 C 0.71361 0.32714 0.2573 0.0
C3370 C 0.72139 0.31339 0.25755 0.0
C3371 C 0.71418 0.35786 0.25863 0.0
C3372 C 0.70498 0.36014 0.27208 0.0
C3373 C 0.71531 0.36948 0.24689 0.0
C3374 C 0.72391 0.36707 0.23184 0.0
C3375 C 0.71966 0.35223 0.22138 0.0
C3376 C 0.7276 0.35015 0.20708 0.0
C3377 C 0.73977 0.36286 0.20307 0.0
C3378 C 0.74399 0.3777 0.21333 0.0
C3379 C 0.73607 0.37984 0.22764 0.0
H3380 H 0.74589 0.36124 0.19199 0.0
H3381 H 0.66401 0.38027 0.32781 0.0
H3382 H 0.83715 0.43327 0.53794 0.0
H3383 H 0.86517 0.44664 0.53688 0.0
H3384 H 0.85057 0.49496 0.53733 0.0
H3385 H 0.82214 0.48133 0.53765 0.0
H3386 H 0.86752 0.48897 0.51214 0.0
H3387 H 0.87522 0.48447 0.56967 0.0
H3388 H 0.87171 0.46886 0.5938 0.0
H3389 H 0.89848 0.43279 0.57295 0.0
H3390 H 0.90211 0.44813 0.54869 0.0
H3391 H 0.94915 0.52625 0.50547 0.0
H3392 H 0.92138 0.51825 0.51319 0.0
H3393 H 0.92966 0.46794 0.51792 0.0
H3394 H 0.95792 0.47644 0.51137 0.0
H3395 H 0.91608 0.47847 0.54304 0.0
H3396 H 0.90524 0.4779 0.48549 0.0
H3397 H 0.90822 0.49006 0.45936 0.0
H3398 H 0.88688 0.53154 0.47789 0.0
H3399 H 0.88388 0.51967 0.50419 0.0
C3400 C 0.83997 0.4468 0.53844 0.0
C3401 C 0.82764 0.45635 0.53792 0.0
C3402 C 0.85599 0.45445 0.53789 0.0
C3403 C 0.85994 0.47181 0.53726 0.0
C3404 C 0.8477 0.48154 0.5379 0.0
C3405 C 0.83157 0.47382 0.53812 0.0
C3406 C 0.87641 0.47919 0.53347 0.0
C3407 C 0.87817 0.48709 0.51912 0.0
C3408 C 0.8902 0.47607 0.54227 0.0
C3409 C 0.88891 0.46746 0.55734 0.0
C3410 C 0.8804 0.47323 0.57025 0.0
C3411 C 0.87836 0.46442 0.58394 0.0
C3412 C 0.8848 0.44981 0.58488 0.0
C3413 C 0.89346 0.44409 0.5722 0.0
C3414 C 0.8956 0.4529 0.55852 0.0
C3415 C 0.9448 0.51339 0.50775 0.0
C3416 C 0.95525 0.50179 0.50764 0.0
C3417 C 0.92903 0.50883 0.51217 0.0
C3418 C 0.92346 0.49246 0.51594 0.0
C3419 C 0.9338 0.48064 0.51508 0.0
C3420 C 0.94976 0.48538 0.51116 0.0
C3421 C 0.9071 0.48792 0.52158 0.0
C3422 C 0.90542 0.48063 0.53625 0.0
C3423 C 0.89335 0.49118 0.51287 0.0
C3424 C 0.8944 0.49794 0.49682 0.0
C3425 C 0.90118 0.48961 0.48398 0.0
C3426 C 0.90288 0.49645 0.46915 0.0
C3427 C 0.89776 0.51157 0.46698 0.0
C3428 C 0.89082 0.51982 0.47959 0.0
C3429 C 0.88907 0.51302 0.49445 0.0
H3430 H 0.89916 0.51689 0.45551 0.0
H3431 H 0.88315 0.44296 0.59545 0.0
H3432 H 0.3265 0.08739 0.23573 0.0
H3433 H 0.31136 0.1102 0.23267 0.0
H3434 H 0.34037 0.13967 0.27288 0.0
H3435 H 0.35536 0.11691 0.27606 0.0
H3436 H 0.30858 0.13732 0.27643 0.0
H3437 H 0.34589 0.14881 0.23505 0.0
H3438 H 0.35974 0.14206 0.21041 0.0
H3439 H 0.31441 0.13304 0.18225 0.0
H3440 H 0.30021 0.13944 0.20681 0.0
H3441 H 0.29399 0.21763 0.2756 0.0
H3442 H 0.30802 0.19417 0.27022 0.0
H3443 H 0.26825 0.16891 0.2374 0.0
H3444 H 0.25408 0.19267 0.24257 0.0
H3445 H 0.30289 0.16752 0.22764 0.0
H3446 H 0.26624 0.15676 0.27102 0.0
H3447 H 0.25452 0.16624 0.29617 0.0
H3448 H 0.30166 0.17612 0.32099 0.0
H3449 H 0.31369 0.16692 0.29589 0.0
C3450 C 0.32966 0.09882 0.24379 0.0
C3451 C 0.34189 0.10049 0.25623 0.0
C3452 C 0.3211 0.11179 0.24199 0.0
C3453 C 0.32487 0.12652 0.25252 0.0
C3454 C 0.33733 0.1283 0.2647 0.0
C3455 C 0.34577 0.11533 0.26658 0.0
C3456 C 0.3151 0.13969 0.25177 0.0
C3457 C 0.30738 0.14392 0.26576 0.0
C3458 C 0.31337 0.148 0.2377 0.0
C3459 C 0.32193 0.14439 0.22285 0.0
C3460 C 0.33883 0.14523 0.22365 0.0
C3461 C 0.34676 0.14149 0.20968 0.0
C3462 C 0.33795 0.13706 0.19479 0.0
C3463 C 0.32121 0.13643 0.19382 0.0
C3464 C 0.31321 0.14012 0.20776 0.0
C3465 C 0.28818 0.20706 0.26729 0.0
C3466 C 0.27284 0.20669 0.25975 0.0
C3467 C 0.29631 0.19385 0.26405 0.0
C3468 C 0.28911 0.18 0.25339 0.0
C3469 C 0.27394 0.17966 0.24556 0.0
C3470 C 0.26578 0.193 0.24876 0.0
C3471 C 0.29667 0.16512 0.25235 0.0
C3472 C 0.30391 0.16059 0.23811 0.0
C3473 C 0.29821 0.15658 0.26624 0.0
C3474 C 0.29086 0.16119 0.28157 0.0
C3475 C 0.2741 0.16096 0.28184 0.0
C3476 C 0.26741 0.16631 0.29608 0.0
C3477 C 0.27734 0.17179 0.31017 0.0
C3478 C 0.29398 0.17185 0.31007 0.0
C3479 C 0.30074 0.16654 0.29585 0.0
H3480 H 0.27215 0.17599 0.32116 0.0
H3481 H 0.34411 0.13416 0.18399 0.0
H3482 H 0.3591 0.1399 0.50928 0.0
H3483 H 0.38305 0.12686 0.51294 0.0
H3484 H 0.35221 0.07838 0.51118 0.0
H3485 H 0.32829 0.09162 0.50853 0.0
H3486 H 0.37464 0.07962 0.53314 0.0
H3487 H 0.37531 0.09468 0.47783 0.0
H3488 H 0.37613 0.11369 0.45621 0.0
H3489 H 0.42081 0.14254 0.47792 0.0
H3490 H 0.42014 0.12385 0.49978 0.0
H3491 H 0.43301 0.02831 0.50872 0.0
H3492 H 0.40988 0.04304 0.51089 0.0
H3493 H 0.44274 0.08983 0.52311 0.0
H3494 H 0.46578 0.07519 0.52127 0.0
H3495 H 0.42045 0.09062 0.49765 0.0
H3496 H 0.42119 0.07482 0.55147 0.0
H3497 H 0.4209 0.05641 0.57352 0.0
H3498 H 0.37431 0.02923 0.55503 0.0
H3499 H 0.37441 0.04732 0.53271 0.0
C3500 C 0.35752 0.12645 0.50962 0.0
C3501 C 0.34194 0.1167 0.50848 0.0
C3502 C 0.37119 0.11898 0.51164 0.0
C3503 C 0.36954 0.10153 0.512 0.0
C3504 C 0.35388 0.09184 0.51093 0.0
C3505 C 0.34022 0.09937 0.50932 0.0
C3506 C 0.38402 0.09329 0.5135 0.0
C3507 C 0.38453 0.08185 0.52519 0.0
C3508 C 0.3973 0.0966 0.50357 0.0
C3509 C 0.39757 0.10797 0.49054 0.0
C3510 C 0.38523 0.10517 0.47807 0.0
C3511 C 0.38568 0.11587 0.46576 0.0
C3512 C 0.39849 0.12934 0.46572 0.0
C3513 C 0.41088 0.13213 0.47798 0.0
C3514 C 0.41047 0.12148 0.49033 0.0
C3515 C 0.43524 0.04172 0.51193 0.0
C3516 C 0.45115 0.05064 0.51468 0.0
C3517 C 0.42205 0.05009 0.51331 0.0
C3518 C 0.4246 0.06752 0.51724 0.0
C3519 C 0.4405 0.07638 0.52013 0.0
C3520 C 0.45364 0.068 0.51901 0.0
C3521 C 0.41083 0.07673 0.51698 0.0
C3522 C 0.41051 0.08839 0.50555 0.0
C3523 C 0.39779 0.07359 0.52714 0.0
C3524 C 0.39792 0.06231 0.54025 0.0
C3525 C 0.41098 0.06477 0.55195 0.0
C3526 C 0.41082 0.05443 0.56454 0.0
C3527 C 0.39762 0.04162 0.56564 0.0
C3528 C 0.38454 0.03913 0.55414 0.0
C3529 C 0.38465 0.04943 0.54152 0.0
H3530 H 0.39749 0.03366 0.57543 0.0
H3531 H 0.39883 0.13759 0.45616 0.0
H3532 H 0.70149 0.58343 0.26973 0.0
H3533 H 0.71557 0.61225 0.2684 0.0
H3534 H 0.6705 0.63008 0.27447 0.0
H3535 H 0.65638 0.60114 0.27494 0.0
H3536 H 0.68529 0.64577 0.25266 0.0
H3537 H 0.70239 0.63417 0.30575 0.0
H3538 H 0.71413 0.61857 0.32602 0.0
H3539 H 0.75942 0.62593 0.30334 0.0
H3540 H 0.74789 0.64136 0.28278 0.0
H3541 H 0.72557 0.73222 0.26592 0.0
H3542 H 0.7091 0.70465 0.26878 0.0
H3543 H 0.75075 0.68137 0.2603 0.0
H3544 H 0.76714 0.70871 0.25782 0.0
H3545 H 0.73635 0.66947 0.28517 0.0
H3546 H 0.71853 0.67945 0.23117 0.0
H3547 H 0.70661 0.69471 0.21072 0.0
H3548 H 0.66254 0.6905 0.23555 0.0
H3549 H 0.67428 0.67541 0.25628 0.0
C3550 C 0.69468 0.59357 0.27084 0.0
C3551 C 0.67792 0.59018 0.27249 0.0
C3552 C 0.70271 0.61005 0.27019 0.0
C3553 C 0.6942 0.62351 0.27162 0.0
C3554 C 0.6774 0.62001 0.27334 0.0
C3555 C 0.66933 0.60351 0.27367 0.0
C3556 C 0.70267 0.64114 0.27086 0.0
C3557 C 0.69632 0.65102 0.25999 0.0
C3558 C 0.71723 0.64803 0.2802 0.0
C3559 C 0.72421 0.63881 0.29263 0.0
C3560 C 0.71482 0.63237 0.30502 0.0
C3561 C 0.72144 0.62357 0.31657 0.0
C3562 C 0.7375 0.62123 0.31595 0.0
C3563 C 0.74698 0.62773 0.3038 0.0
C3564 C 0.74041 0.63652 0.2922 0.0
C3565 C 0.73111 0.72116 0.26456 0.0
C3566 C 0.74763 0.72259 0.26167 0.0
C3567 C 0.72171 0.70541 0.26616 0.0
C3568 C 0.72865 0.69083 0.26471 0.0
C3569 C 0.74509 0.69236 0.26158 0.0
C3570 C 0.75445 0.70802 0.26009 0.0
C3571 C 0.71911 0.67396 0.26679 0.0
C3572 C 0.72525 0.66424 0.27795 0.0
C3573 C 0.70435 0.66724 0.25777 0.0
C3574 C 0.69736 0.67647 0.24539 0.0
C3575 C 0.70635 0.68191 0.23236 0.0
C3576 C 0.69962 0.69051 0.2207 0.0
C3577 C 0.68385 0.69362 0.22186 0.0
C3578 C 0.67477 0.68812 0.23468 0.0
C3579 C 0.68146 0.67954 0.24639 0.0
H3580 H 0.67865 0.70025 0.21281 0.0
H3581 H 0.74261 0.61442 0.3249 0.0
H3582 H 0.81492 0.45593 0.72927 0.0
H3583 H 0.79933 0.42726 0.72768 0.0
H3584 H 0.83898 0.41171 0.75374 0.0
H3585 H 0.85449 0.44007 0.75498 0.0
H3586 H 0.82469 0.38731 0.73246 0.0
H3587 H 0.80938 0.42599 0.77381 0.0
H3588 H 0.79893 0.45049 0.78577 0.0
H3589 H 0.75394 0.43415 0.75757 0.0
H3590 H 0.76423 0.40964 0.74527 0.0
H3591 H 0.78903 0.32586 0.78217 0.0
H3592 H 0.80263 0.35292 0.77442 0.0
H3593 H 0.76137 0.35512 0.74227 0.0
H3594 H 0.74776 0.32821 0.75002 0.0
H3595 H 0.77453 0.38496 0.76225 0.0
H3596 H 0.79798 0.34822 0.71708 0.0
H3597 H 0.81227 0.32491 0.70907 0.0
H3598 H 0.84431 0.33806 0.75176 0.0
H3599 H 0.83064 0.36178 0.75967 0.0
C3600 C 0.82034 0.44615 0.73415 0.0
C3601 C 0.83568 0.44985 0.74229 0.0
C3602 C 0.81151 0.42992 0.7333 0.0
C3603 C 0.818 0.41755 0.74078 0.0
C3604 C 0.83384 0.4211 0.74785 0.0
C3605 C 0.84263 0.43722 0.74862 0.0
C3606 C 0.80784 0.40156 0.74326 0.0
C3607 C 0.81363 0.38678 0.73884 0.0
C3608 C 0.79354 0.40096 0.75175 0.0
C3609 C 0.78769 0.41618 0.75839 0.0
C3610 C 0.79736 0.42777 0.76996 0.0
C3611 C 0.79144 0.44162 0.77686 0.0
C3612 C 0.77581 0.44392 0.77238 0.0
C3613 C 0.76607 0.4324 0.76097 0.0
C3614 C 0.77195 0.41855 0.75401 0.0
C3615 C 0.78269 0.3325 0.77394 0.0
C3616 C 0.76742 0.32524 0.76669 0.0
C3617 C 0.79058 0.34763 0.76922 0.0
C3618 C 0.78315 0.35548 0.75735 0.0
C3619 C 0.76734 0.34892 0.75118 0.0
C3620 C 0.75952 0.33379 0.75579 0.0
C3621 C 0.79157 0.37091 0.75171 0.0
C3622 C 0.78534 0.38551 0.75546 0.0
C3623 C 0.80579 0.37145 0.74321 0.0
C3624 C 0.81308 0.35647 0.73913 0.0
C3625 C 0.80793 0.34597 0.72484 0.0
C3626 C 0.81598 0.33277 0.72027 0.0
C3627 C 0.82899 0.32985 0.73002 0.0
C3628 C 0.83413 0.34024 0.74428 0.0
C3629 C 0.82631 0.3536 0.74877 0.0
H3630 H 0.83518 0.31963 0.72646 0.0
H3631 H 0.77121 0.45459 0.7778 0.0
H3632 H -0.00084 0.86507 0.09497 0.0
H3633 H 0.99717 0.88784 0.07827 0.0
H3634 H 0.02703 0.86754 0.04351 0.0
H3635 H 0.02866 0.8442 0.05994 0.0
H3636 H 0.03567 0.90372 0.05431 0.0
H3637 H 0.99032 0.86268 0.03118 0.0
H3638 H 0.96575 0.84138 0.03235 0.0
H3639 H 0.94232 0.87803 0.05745 0.0
H3640 H 0.9668 0.89951 0.05654 0.0
H3641 H 0.02176 0.9662 0.0041 0.0
H3642 H 0.02394 0.93886 0.01295 0.0
H3643 H 0.98571 0.9429 0.04536 0.0
H3644 H 0.98319 0.97015 0.03618 0.0
H3645 H 0.98231 0.91231 0.03185 0.0
H3646 H 0.02647 0.95208 0.05854 0.0
H3647 H 0.05127 0.97355 0.0622 0.0
H3648 H 0.07709 0.9407 0.03477 0.0
H3649 H 0.05236 0.91907 0.03077 0.0
C3650 C 0.00513 0.86526 0.08367 0.0
C3651 C 0.01392 0.85272 0.07871 0.0
C3652 C 0.00403 0.87832 0.07419 0.0
C3653 C 0.01178 0.87918 0.05962 0.0
C3654 C 0.02092 0.86697 0.05473 0.0
C3655 C 0.0219 0.85375 0.06417 0.0
C3656 C 0.01041 0.89315 0.04983 0.0
C3657 C 0.02413 0.90548 0.04897 0.0
C3658 C 0.99521 0.89552 0.04343 0.0
C3659 C 0.98041 0.88268 0.04384 0.0
C3660 C 0.97995 0.86617 0.03702 0.0
C3661 C 0.96604 0.85407 0.03761 0.0
C3662 C 0.95249 0.85835 0.04498 0.0
C3663 C 0.95282 0.87474 0.05173 0.0
C3664 C 0.96669 0.88689 0.05114 0.0
C3665 C 0.01366 0.96113 0.01295 0.0
C3666 C 0.00234 0.97027 0.01954 0.0
C3667 C 0.01501 0.94558 0.01807 0.0
C3668 C 0.00525 0.93903 0.03007 0.0
C3669 C 0.9934 0.94778 0.03612 0.0
C3670 C 0.99191 0.96328 0.03083 0.0
C3671 C 0.00755 0.9232 0.03656 0.0
C3672 C 0.99398 0.9105 0.0368 0.0
C3673 C 0.02288 0.92066 0.04269 0.0
C3674 C 0.03749 0.93402 0.04419 0.0
C3675 C 0.03736 0.94952 0.05307 0.0
C3676 C 0.05143 0.96168 0.05529 0.0
C3677 C 0.06575 0.95846 0.04878 0.0
C3678 C 0.06599 0.94314 0.03985 0.0
C3679 C 0.05195 0.93094 0.03759 0.0
H3680 H 0.07667 0.96782 0.05069 0.0
H3681 H 0.94174 0.84896 0.04545 0.0
H3682 H 0.92894 0.25728 0.82235 0.0
H3683 H 0.90254 0.25773 0.80859 0.0
H3684 H 0.88268 0.2669 0.85496 0.0
H3685 H 0.90904 0.26608 0.86866 0.0
H3686 H 0.86128 0.24533 0.83564 0.0
H3687 H 0.894 0.29867 0.83086 0.0
H3688 H 0.91791 0.3184 0.82407 0.0
H3689 H 0.91003 0.29882 0.77402 0.0
H3690 H 0.8862 0.27879 0.78055 0.0
H3691 H 0.79247 0.27635 0.80064 0.0
H3692 H 0.81754 0.27506 0.81676 0.0
H3693 H 0.83785 0.25558 0.77384 0.0
H3694 H 0.81293 0.25642 0.75791 0.0
H3695 H 0.8584 0.28352 0.79265 0.0
H3696 H 0.82644 0.22903 0.79841 0.0
H3697 H 0.802 0.21023 0.80552 0.0
H3698 H 0.80796 0.23379 0.85433 0.0
H3699 H 0.83242 0.25272 0.84749 0.0
C3700 C 0.91885 0.25924 0.82953 0.0
C3701 C 0.92087 0.26166 0.84648 0.0
C3702 C 0.90382 0.2596 0.8217 0.0
C3703 C 0.89065 0.26262 0.83072 0.0
C3704 C 0.89264 0.26459 0.84773 0.0
C3705 C 0.90765 0.26416 0.85555 0.0
C3706 C 0.87494 0.26405 0.8224 0.0
C3707 C 0.86066 0.25386 0.82641 0.0
C3708 C 0.87405 0.27507 0.81022 0.0
C3709 C 0.88839 0.2871 0.80624 0.0
C3710 C 0.89744 0.29847 0.81843 0.0
C3711 C 0.91097 0.30973 0.81462 0.0
C3712 C 0.91551 0.30984 0.79863 0.0
C3713 C 0.90651 0.29871 0.78641 0.0
C3714 C 0.89298 0.28741 0.79016 0.0
C3715 C 0.8023 0.27178 0.79472 0.0
C3716 C 0.80078 0.26653 0.77803 0.0
C3717 C 0.81656 0.271 0.8039 0.0
C3718 C 0.82954 0.26524 0.79645 0.0
C3719 C 0.828 0.26009 0.77981 0.0
C3720 C 0.81372 0.26055 0.77074 0.0
C3721 C 0.8449 0.26472 0.8058 0.0
C3722 C 0.85909 0.27509 0.80196 0.0
C3723 C 0.84567 0.254 0.8182 0.0
C3724 C 0.83114 0.24241 0.8224 0.0
C3725 C 0.82248 0.23025 0.81064 0.0
C3726 C 0.80865 0.21953 0.81463 0.0
C3727 C 0.80341 0.22081 0.83037 0.0
C3728 C 0.81204 0.23276 0.84216 0.0
C3729 C 0.8259 0.24347 0.83824 0.0
H3730 H 0.79266 0.21256 0.83341 0.0
H3731 H 0.92598 0.31857 0.79571 0.0
H3732 H 0.51126 0.20632 0.54914 0.0
H3733 H 0.51238 0.17831 0.53617 0.0
H3734 H 0.49015 0.15617 0.57684 0.0
H3735 H 0.48866 0.18409 0.58967 0.0
H3736 H 0.5227 0.14995 0.56953 0.0
H3737 H 0.46947 0.14639 0.54605 0.0
H3738 H 0.44697 0.15493 0.53074 0.0
H3739 H 0.4734 0.1543 0.48766 0.0
H3740 H 0.49622 0.14602 0.50278 0.0
H3741 H 0.52212 0.06541 0.54253 0.0
H3742 H 0.5174 0.09263 0.5535 0.0
H3743 H 0.5239 0.11106 0.50652 0.0
H3744 H 0.52691 0.08295 0.49516 0.0
H3745 H 0.49832 0.11913 0.51756 0.0
H3746 H 0.55249 0.12313 0.54267 0.0
H3747 H 0.57314 0.11211 0.55852 0.0
H3748 H 0.54346 0.11057 0.59935 0.0
H3749 H 0.52257 0.12142 0.58371 0.0
C3750 C 0.50619 0.19541 0.55502 0.0
C3751 C 0.49989 0.1972 0.57033 0.0
C3752 C 0.50678 0.17951 0.54763 0.0
C3753 C 0.50134 0.16533 0.55562 0.0
C3754 C 0.4943 0.16705 0.57053 0.0
C3755 C 0.49341 0.18293 0.57777 0.0
C3756 C 0.50519 0.14909 0.54955 0.0
C3757 C 0.51729 0.14307 0.55824 0.0
C3758 C 0.49824 0.14046 0.53473 0.0
C3759 C 0.48469 0.14581 0.52564 0.0
C3760 C 0.47062 0.14831 0.53338 0.0
C3761 C 0.45776 0.15304 0.52471 0.0
C3762 C 0.45878 0.15521 0.50825 0.0
C3763 C 0.47265 0.15265 0.50042 0.0
C3764 C 0.48555 0.14793 0.50904 0.0
C3765 C 0.52316 0.07549 0.53472 0.0
C3766 C 0.52528 0.07242 0.51817 0.0
C3767 C 0.52046 0.09106 0.54099 0.0
C3768 C 0.52066 0.10407 0.53094 0.0
C3769 C 0.52377 0.10122 0.51451 0.0
C3770 C 0.52576 0.08534 0.50807 0.0
C3771 C 0.51621 0.12009 0.5373 0.0
C3772 C 0.50394 0.12608 0.52873 0.0
C3773 C 0.52296 0.1287 0.5523 0.0
C3774 C 0.53595 0.12305 0.56199 0.0
C3775 C 0.55039 0.12047 0.55504 0.0
C3776 C 0.56212 0.11422 0.56398 0.0
C3777 C 0.5596 0.11062 0.57992 0.0
C3778 C 0.5454 0.11338 0.58701 0.0
C3779 C 0.53363 0.11962 0.57812 0.0
H3780 H 0.56866 0.1057 0.58679 0.0
H3781 H 0.44879 0.15882 0.50155 0.0
H3782 H 0.59339 0.78639 0.36868 0.0
H3783 H 0.61856 0.78864 0.35459 0.0
H3784 H 0.59193 0.76298 0.31124 0.0
H3785 H 0.56684 0.76039 0.32541 0.0
H3786 H 0.61787 0.75009 0.31711 0.0
H3787 H 0.6073 0.80673 0.31615 0.0
H3788 H 0.60216 0.83382 0.32857 0.0
H3789 H 0.64739 0.84128 0.35677 0.0
H3790 H 0.65272 0.81415 0.34466 0.0
H3791 H 0.67971 0.76245 0.26221 0.0
H3792 H 0.65452 0.76354 0.27584 0.0
H3793 H 0.68206 0.79028 0.31824 0.0
H3794 H 0.70707 0.78975 0.30448 0.0
H3795 H 0.65608 0.80314 0.3134 0.0
H3796 H 0.66696 0.74777 0.3163 0.0
H3797 H 0.67325 0.72062 0.30544 0.0
H3798 H 0.62866 0.71046 0.27597 0.0
H3799 H 0.6222 0.73767 0.28652 0.0
C3800 C 0.59291 0.7814 0.35609 0.0
C3801 C 0.57817 0.77318 0.34814 0.0
C3802 C 0.60729 0.78273 0.34803 0.0
C3803 C 0.60714 0.77613 0.33177 0.0
C3804 C 0.59237 0.76813 0.32378 0.0
C3805 C 0.57805 0.76663 0.33189 0.0
C3806 C 0.62241 0.77682 0.32323 0.0
C3807 C 0.62608 0.76174 0.31609 0.0
C3808 C 0.63348 0.79193 0.32243 0.0
C3809 C 0.63034 0.80833 0.32959 0.0
C3810 C 0.6161 0.8141 0.32507 0.0
C3811 C 0.61317 0.82947 0.33204 0.0
C3812 C 0.62443 0.83925 0.34347 0.0
C3813 C 0.63868 0.8337 0.34792 0.0
C3814 C 0.64167 0.81833 0.34099 0.0
C3815 C 0.68032 0.76862 0.27439 0.0
C3816 C 0.69529 0.77597 0.2823 0.0
C3817 C 0.66596 0.7692 0.2822 0.0
C3818 C 0.66639 0.77681 0.29818 0.0
C3819 C 0.68138 0.78439 0.30593 0.0
C3820 C 0.69567 0.78402 0.29806 0.0
C3821 C 0.65132 0.77645 0.30702 0.0
C3822 C 0.64778 0.79152 0.31433 0.0
C3823 C 0.64047 0.76132 0.30824 0.0
C3824 C 0.64417 0.74482 0.30209 0.0
C3825 C 0.65854 0.73978 0.30744 0.0
C3826 C 0.66213 0.72438 0.30135 0.0
C3827 C 0.65139 0.71384 0.28999 0.0
C3828 C 0.63699 0.71865 0.28476 0.0
C3829 C 0.63334 0.73405 0.2908 0.0
H3830 H 0.6542 0.70194 0.28526 0.0
H3831 H 0.62212 0.85113 0.34886 0.0
H3832 H 0.99496 0.20109 0.45414 0.0
H3833 H 0.99269 0.17687 0.47011 0.0
H3834 H 0.02151 0.15323 0.43655 0.0
H3835 H 0.02393 0.17738 0.42068 0.0
H3836 H 0.9911 0.13295 0.44462 0.0
H3837 H 0.03914 0.1704 0.47012 0.0
H3838 H 0.05303 0.19724 0.48442 0.0
H3839 H 0.02062 0.19108 0.52287 0.0
H3840 H 0.00636 0.1643 0.50867 0.0
H3841 H 0.01813 0.06627 0.47738 0.0
H3842 H 0.01889 0.09356 0.46708 0.0
H3843 H 0.99596 0.11056 0.50935 0.0
H3844 H 0.99598 0.08337 0.52017 0.0
H3845 H 0.0184 0.13523 0.49919 0.0
H3846 H 0.97577 0.09237 0.47917 0.0
H3847 H 0.95644 0.06342 0.46861 0.0
H3848 H 0.97925 0.08369 0.40924 0.0
H3849 H 0.99672 0.10984 0.42873 0.0
C3850 C 0.00079 0.1907 0.4502 0.0
C3851 C 0.00967 0.1911 0.43622 0.0
C3852 C -0.00047 0.17694 0.45934 0.0
C3853 C 0.00696 0.16332 0.45449 0.0
C3854 C 0.0157 0.16365 0.44047 0.0
C3855 C 0.01716 0.17747 0.43149 0.0
C3856 C 0.00564 0.14854 0.46383 0.0
C3857 C 0.99733 0.13314 0.45637 0.0
C3858 C 0.01288 0.14942 0.47965 0.0
C3859 C 0.02155 0.16545 0.48823 0.0
C3860 C 0.03487 0.17484 0.48155 0.0
C3861 C 0.04283 0.19003 0.48965 0.0
C3862 C 0.03767 0.19589 0.50452 0.0
C3863 C 0.02458 0.18654 0.51134 0.0
C3864 C 0.01656 0.17136 0.50327 0.0
C3865 C 0.01329 0.07585 0.48449 0.0
C3866 C 0.00652 0.07265 0.4993 0.0
C3867 C 0.01377 0.09141 0.47863 0.0
C3868 C 0.00686 0.10378 0.48711 0.0
C3869 C 0.00108 0.10103 0.50247 0.0
C3870 C 0.00098 0.08552 0.50858 0.0
C3871 C 0.00489 0.11905 0.4794 0.0
C3872 C 0.01231 0.13466 0.48729 0.0
C3873 C 0.9968 0.11824 0.46383 0.0
C3874 C 0.98754 0.10235 0.45505 0.0
C3875 C 0.97583 0.0887 0.46636 0.0
C3876 C 0.96308 0.07049 0.45986 0.0
C3877 C 0.96022 0.06335 0.43976 0.0
C3878 C 0.97779 0.08391 0.42229 0.0
C3879 C 0.98877 0.10045 0.43443 0.0
H3880 H 0.95173 0.05162 0.43652 0.0
H3881 H 0.04385 0.20764 0.51077 0.0
H3882 H 0.56874 0.25695 0.19889 0.0
H3883 H 0.5943 0.2552 0.2129 0.0
H3884 H 0.61067 0.30813 0.21058 0.0
H3885 H 0.58541 0.30974 0.19548 0.0
H3886 H 0.63226 0.29217 0.20008 0.0
H3887 H 0.60371 0.29096 0.24764 0.0
H3888 H 0.58112 0.28279 0.26491 0.0
H3889 H 0.58915 0.23202 0.26021 0.0
H3890 H 0.61165 0.23982 0.24271 0.0
H3891 H 0.70636 0.28079 0.23461 0.0
H3892 H 0.68064 0.29001 0.23168 0.0
H3893 H 0.65568 0.23883 0.23028 0.0
H3894 H 0.68184 0.22973 0.23534 0.0
H3895 H 0.6394 0.25898 0.24637 0.0
H3896 H 0.66517 0.26149 0.19408 0.0
H3897 H 0.68836 0.27127 0.17798 0.0
H3898 H 0.68588 0.32234 0.19378 0.0
H3899 H 0.66271 0.31284 0.20999 0.0
C3900 C 0.57775 0.26825 0.20137 0.0
C3901 C 0.57516 0.28342 0.19583 0.0
C3902 C 0.59226 0.2673 0.20968 0.0
C3903 C 0.60434 0.28158 0.21298 0.0
C3904 C 0.60147 0.29697 0.20821 0.0
C3905 C 0.587 0.29788 0.19967 0.0
C3906 C 0.62057 0.2798 0.21947 0.0
C3907 C 0.63386 0.28525 0.21044 0.0
C3908 C 0.62267 0.27071 0.23294 0.0
C3909 C 0.60936 0.26598 0.24378 0.0
C3910 C 0.60063 0.27804 0.25022 0.0
C3911 C 0.58783 0.27347 0.26006 0.0
C3912 C 0.58369 0.25689 0.26364 0.0
C3913 C 0.59238 0.24486 0.25743 0.0
C3914 C 0.60518 0.24936 0.24758 0.0
C3915 C 0.69541 0.27144 0.23361 0.0
C3916 C 0.69602 0.25448 0.23479 0.0
C3917 C 0.68069 0.27675 0.23188 0.0
C3918 C 0.66625 0.26507 0.23014 0.0
C3919 C 0.66674 0.24804 0.23142 0.0
C3920 C 0.6816 0.2428 0.23404 0.0
C3921 C 0.65076 0.27067 0.22649 0.0
C3922 C 0.63773 0.26607 0.23615 0.0
C3923 C 0.64891 0.28079 0.21373 0.0
C3924 C 0.66226 0.28645 0.20326 0.0
C3925 C 0.66954 0.27479 0.19405 0.0
C3926 C 0.68269 0.28029 0.18494 0.0
C3927 C 0.68859 0.29741 0.18487 0.0
C3928 C 0.68128 0.30908 0.19382 0.0
C3929 C 0.66811 0.30366 0.20293 0.0
H3930 H 0.69883 0.30163 0.17788 0.0
H3931 H 0.57375 0.25337 0.27123 0.0
H3932 H 0.53328 0.86222 0.91666 0.0
H3933 H 0.53255 0.89018 0.92974 0.0
H3934 H 0.50265 0.86817 0.96597 0.0
H3935 H 0.50308 0.84022 0.95269 0.0
H3936 H 0.49061 0.89302 0.95577 0.0
H3937 H 0.54353 0.88569 0.97422 0.0
H3938 H 0.57107 0.87954 0.9716 0.0
H3939 H 0.58282 0.92093 0.94304 0.0
H3940 H 0.55526 0.92723 0.94535 0.0
H3941 H 0.50109 0.95923 0.01835 0.0
H3942 H 0.50249 0.93342 0.00144 0.0
H3943 H 0.52283 0.96239 0.96386 0.0
H3944 H 0.52123 0.9884 0.98079 0.0
H3945 H 0.5397 0.93566 0.97224 0.0
H3946 H 0.486 0.9438 0.95685 0.0
H3947 H 0.45887 0.94981 0.96232 0.0
H3948 H 0.44901 0.90606 0.98804 0.0
H3949 H 0.47617 0.8999 0.98291 0.0
C3950 C 0.52673 0.86336 0.92753 0.0
C3951 C 0.51824 0.84905 0.93366 0.0
C3952 C 0.52632 0.87935 0.93501 0.0
C3953 C 0.51762 0.88132 0.94893 0.0
C3954 C 0.50936 0.867 0.9552 0.0
C3955 C 0.50963 0.85103 0.94763 0.0
C3956 C 0.51671 0.89829 0.95671 0.0
C3957 C 0.50138 0.90226 0.95948 0.0
C3958 C 0.53071 0.91056 0.96125 0.0
C3959 C 0.54728 0.90681 0.95981 0.0
C3960 C 0.55195 0.8934 0.96727 0.0
C3961 C 0.56757 0.8899 0.96587 0.0
C3962 C 0.57867 0.89981 0.95711 0.0
C3963 C 0.57419 0.91326 0.94979 0.0
C3964 C 0.55858 0.91681 0.95116 0.0
C3965 C 0.50572 0.96008 0.00641 0.0
C3966 C 0.51082 0.97573 0.00071 0.0
C3967 C 0.50651 0.94536 -0.00323 0.0
C3968 C 0.51265 0.946 0.98135 0.0
C3969 C 0.51794 0.96165 0.97567 0.0
C3970 C 0.51687 0.97645 0.98524 0.0
C3971 C 0.51366 0.93017 0.97145 0.0
C3972 C 0.52898 0.92644 0.9683 0.0
C3973 C 0.49967 0.91801 0.96681 0.0
C3974 C 0.48317 0.92145 0.96958 0.0
C3975 C 0.47808 0.9355 0.96374 0.0
C3976 C 0.46269 0.93893 0.96677 0.0
C3977 C 0.45223 0.92834 0.97555 0.0
C3978 C 0.45712 0.91425 0.98125 0.0
C3979 C 0.4725 0.91077 0.97825 0.0
H3980 H 0.44034 0.93104 0.97792 0.0
H3981 H 0.59076 0.89708 0.95604 0.0
H3982 H 0.90974 0.77405 0.66866 0.0
H3983 H 0.88506 0.77352 0.68337 0.0
H3984 H 0.91317 0.77675 0.72877 0.0
H3985 H 0.93783 0.77648 0.71388 0.0
H3986 H 0.88473 0.7555 0.72908 0.0
H3987 H 0.90135 0.81199 0.71435 0.0
H3988 H 0.90935 0.83282 0.69503 0.0
H3989 H 0.86394 0.81647 0.66755 0.0
H3990 H 0.85574 0.79544 0.68661 0.0
H3991 H 0.81882 0.77575 0.77408 0.0
H3992 H 0.84556 0.77566 0.76323 0.0
H3993 H 0.82514 0.77981 0.7153 0.0
H3994 H 0.79897 0.78127 0.72643 0.0
H3995 H 0.85166 0.79872 0.71866 0.0
H3996 H 0.83492 0.74143 0.73069 0.0
H3997 H 0.82648 0.71851 0.74775 0.0
H3998 H 0.87037 0.7338 0.77792 0.0
H3999 H 0.87899 0.75691 0.76115 0.0
C4000 C 0.91056 0.77456 0.68177 0.0
C4001 C 0.92553 0.77548 0.69024 0.0
C4002 C 0.89653 0.77431 0.69016 0.0
C4003 C 0.89734 0.77549 0.70719 0.0
C4004 C 0.9123 0.77592 0.71565 0.0
C4005 C 0.92632 0.77583 0.7072 0.0
C4006 C 0.88264 0.77683 0.71608 0.0
C4007 C 0.87756 0.76506 0.72701 0.0
C4008 C 0.87318 0.78913 0.7131 0.0
C4009 C 0.87797 0.80209 0.70188 0.0
C4010 C 0.89309 0.81281 0.70417 0.0
C4011 C 0.89766 0.82466 0.69326 0.0
C4012 C 0.88717 0.82595 0.68006 0.0
C4013 C 0.87206 0.81546 0.67778 0.0
C4014 C 0.86743 0.8036 0.68865 0.0
C4015 C 0.82026 0.77689 0.7613 0.0
C4016 C 0.80712 0.77879 0.75106 0.0
C4017 C 0.83542 0.7766 0.75505 0.0
C4018 C 0.83737 0.77746 0.73837 0.0
C4019 C 0.82405 0.77925 0.72822 0.0
C4020 C 0.80911 0.78011 0.73454 0.0
C4021 C 0.85326 0.777 0.73133 0.0
C4022 C 0.85873 0.7891 0.72084 0.0
C4023 C 0.86284 0.76478 0.7345 0.0
C4024 C 0.85752 0.75103 0.74475 0.0
C4025 C 0.8427 0.74 0.74105 0.0
C4026 C 0.8379 0.72694 0.75065 0.0
C4027 C 0.84787 0.72472 0.76393 0.0
C4028 C 0.86265 0.73554 0.76764 0.0
C4029 C 0.8675 0.74862 0.75809 0.0
H4030 H 0.84415 0.71459 0.77131 0.0
H4031 H 0.89074 0.83511 0.67161 0.0
H4032 H 0.06656 0.02124 0.84303 0.0
H4033 H 0.05289 0.02197 0.8684 0.0
H4034 H 0.07151 0.97844 0.88105 0.0
H4035 H 0.08581 0.97797 0.85603 0.0
H4036 H 0.03696 0.97875 0.88687 0.0
H4037 H 0.09047 0.01212 0.8979 0.0
H4038 H 0.11291 0.03431 0.89233 0.0
H4039 H 0.08211 0.07098 0.89871 0.0
H4040 H 0.05939 0.04895 0.90405 0.0
H4041 H 0.01637 0.98512 0.96891 0.0
H4042 H 0.03067 0.98154 0.94408 0.0
H4043 H 0.02956 0.03298 0.93587 0.0
H4044 H 0.01662 0.03683 0.96147 0.0
H4045 H 0.05611 0.02737 0.92758 0.0
H4046 H 0.00229 0.99536 0.91536 0.0
H4047 H 0.97868 0.97381 0.91945 0.0
H4048 H 0.00792 0.93562 0.91379 0.0
H4049 H 0.03174 0.95697 0.90986 0.0
C4050 C 0.06788 0.01187 0.85122 0.0
C4051 C 0.07748 -0.00034 0.84751 0.0
C4052 C 0.05992 0.01223 0.86565 0.0
C4053 C 0.06128 0.00031 0.8766 0.0
C4054 C 0.07027 0.9877 0.8727 0.0
C4055 C 0.0784 0.98744 0.85835 0.0
C4056 C 0.05407 0.00165 0.89253 0.0
C4057 C 0.04121 0.98925 0.89589 0.0
C4058 C 0.05945 0.01555 0.90408 0.0
C4059 C 0.0732 0.02886 0.90124 0.0
C4060 C 0.08845 0.0249 0.898 0.0
C4061 C 0.10123 0.03745 0.8949 0.0
C4062 C 0.09893 0.05404 0.89513 0.0
C4063 C 0.08387 0.05812 0.89852 0.0
C4064 C 0.07104 0.04561 0.9016 0.0
C4065 C 0.01931 0.99561 0.96176 0.0
C4066 C 0.0154 0.01119 0.9669 0.0
C4067 C 0.02733 0.99356 0.9475 0.0
C4068 C 0.03085 0.00684 0.93773 0.0
C4069 C 0.02701 0.02249 0.94308 0.0
C4070 C 0.01956 0.0247 0.95766 0.0
C4071 C 0.03858 0.0046 0.92201 0.0
C4072 C 0.0517 0.01682 0.91865 0.0
C4073 C 0.0332 0.99066 0.91034 0.0
C4074 C 0.01882 0.97779 0.91247 0.0
C4075 C 0.00369 0.98238 0.91506 0.0
C4076 C 0.99028 0.9702 0.91735 0.0
C4077 C 0.99181 0.95337 0.91692 0.0
C4078 C 0.00675 0.94867 0.91414 0.0
C4079 C 0.02021 0.9608 0.91187 0.0
H4080 H 0.98142 0.94396 0.91872 0.0
H4081 H 0.10883 0.06373 0.89271 0.0
H4082 H 0.74577 0.32696 0.57922 0.0
H4083 H 0.75123 0.31401 0.60386 0.0
H4084 H 0.7698 0.36284 0.62888 0.0
H4085 H 0.76487 0.37575 0.60396 0.0
H4086 H 0.78918 0.3427 0.63553 0.0
H4087 H 0.73281 0.34059 0.63697 0.0
H4088 H 0.70388 0.33534 0.62787 0.0
H4089 H 0.70432 0.28265 0.61985 0.0
H4090 H 0.73332 0.2876 0.6287 0.0
H4091 H 0.78229 0.31446 0.71404 0.0
H4092 H 0.78243 0.32769 0.68892 0.0
H4093 H 0.76956 0.27908 0.66174 0.0
H4094 H 0.76903 0.26574 0.68718 0.0
H4095 H 0.74824 0.29978 0.65669 0.0
H4096 H 0.8071 0.30515 0.6584 0.0
H4097 H 0.83392 0.3134 0.67304 0.0
H4098 H 0.82627 0.36416 0.68081 0.0
H4099 H 0.79937 0.35621 0.6663 0.0
C4100 C 0.75085 0.33488 0.59006 0.0
C4101 C 0.75492 0.35226 0.58985 0.0
C4102 C 0.75393 0.32752 0.6041 0.0
C4103 C 0.76077 0.3375 0.61822 0.0
C4104 C 0.76458 0.35494 0.61808 0.0
C4105 C 0.76173 0.36228 0.60394 0.0
C4106 C 0.76442 0.32957 0.6329 0.0
C4107 C 0.7802 0.33341 0.64024 0.0
C4108 C 0.75267 0.31753 0.63908 0.0
C4109 C 0.73531 0.3145 0.63331 0.0
C4110 C 0.72679 0.32791 0.63308 0.0
C4111 C 0.71036 0.32498 0.62801 0.0
C4112 C 0.70228 0.30868 0.62324 0.0
C4113 C 0.7106 0.29527 0.62352 0.0
C4114 C 0.72704 0.29813 0.62857 0.0
C4115 C 0.78008 0.30658 0.70266 0.0
C4116 C 0.77575 0.28915 0.70237 0.0
C4117 C 0.78019 0.31415 0.68833 0.0
C4118 C 0.7762 0.30433 0.67352 0.0
C4119 C 0.77277 0.2868 0.67313 0.0
C4120 C 0.77244 0.27922 0.68755 0.0
C4121 C 0.77307 0.31246 0.65889 0.0
C4122 C 0.75729 0.30883 0.65173 0.0
C4123 C 0.78464 0.32512 0.65335 0.0
C4124 C 0.80121 0.33007 0.66125 0.0
C4125 C 0.81115 0.31808 0.6632 0.0
C4126 C 0.82637 0.3227 0.67149 0.0
C4127 C 0.83179 0.33929 0.67785 0.0
C4128 C 0.82207 0.35132 0.67584 0.0
C4129 C 0.80687 0.34678 0.66752 0.0
H4130 H 0.84353 0.34282 0.68435 0.0
H4131 H 0.68955 0.30643 0.61935 0.0
H4132 H 0.41852 0.03939 0.35802 0.0
H4133 H 0.43255 0.03817 0.38422 0.0
H4134 H 0.47312 0.02388 0.35982 0.0
H4135 H 0.45883 0.0246 0.33354 0.0
H4136 H 0.46597 0.0052 0.3838 0.0
H4137 H 0.47504 0.06405 0.3782 0.0
H4138 H 0.46688 0.09074 0.3726 0.0
H4139 H 0.43659 0.08811 0.41296 0.0
H4140 H 0.44446 0.06131 0.41871 0.0
H4141 H 0.52337 0.02608 0.45189 0.0
H4142 H 0.50898 0.02804 0.42598 0.0
H4143 H 0.46418 0.02592 0.4498 0.0
H4144 H 0.47845 0.02343 0.47574 0.0
H4145 H 0.47362 0.05305 0.42651 0.0
H4146 H 0.46531 0.99357 0.43164 0.0
H4147 H 0.47426 0.96712 0.43665 0.0
H4148 H 0.50452 0.97159 0.39635 0.0
H4149 H 0.49598 -0.00173 0.39129 0.0
C4150 C 0.43049 0.03615 0.3583 0.0
C4151 C 0.43769 0.0322 0.34387 0.0
C4152 C 0.4385 0.03546 0.37323 0.0
C4153 C 0.45398 0.03118 0.37395 0.0
C4154 C 0.46119 0.02722 0.35951 0.0
C4155 C 0.45307 0.02767 0.34456 0.0
C4156 C 0.46249 0.03059 0.38981 0.0
C4157 C 0.46783 0.01575 0.39304 0.0
C4158 C 0.46468 0.04427 0.40196 0.0
C4159 C 0.46026 0.06062 0.39883 0.0
C4160 C 0.4666 0.06914 0.38585 0.0
C4161 C 0.46203 0.08428 0.38266 0.0
C4162 C 0.4512 0.0911 0.3924 0.0
C4163 C 0.44498 0.08281 0.40542 0.0
C4164 C 0.44952 0.06766 0.40868 0.0
C4165 C 0.51046 0.02608 0.45159 0.0
C4166 C 0.50194 0.02455 0.4657 0.0
C4167 C 0.5023 0.02719 0.43684 0.0
C4168 C 0.48559 0.02709 0.4361 0.0
C4169 C 0.47711 0.02601 0.45024 0.0
C4170 C 0.48521 0.02454 0.46496 0.0
C4171 C 0.47699 0.02771 0.42039 0.0
C4172 C 0.47171 0.04255 0.41721 0.0
C4173 C 0.47503 0.01412 0.40823 0.0
C4174 C 0.48015 -0.00196 0.41121 0.0
C4175 C 0.47402 0.98903 0.42396 0.0
C4176 C 0.47898 0.97397 0.42678 0.0
C4177 C 0.48997 0.9677 0.41684 0.0
C4178 C 0.49602 0.97648 0.40405 0.0
C4179 C 0.49112 0.99157 0.4012 0.0
H4180 H 0.49375 0.956 0.41901 0.0
H4181 H 0.44765 0.1028 0.38989 0.0
H4182 H 0.76078 0.69481 0.09134 0.0
H4183 H 0.75895 0.70758 0.11875 0.0
H4184 H 0.78695 0.75393 0.10665 0.0
H4185 H 0.78887 0.74107 0.07891 0.0
H4186 H 0.79455 0.74167 0.13913 0.0
H4187 H 0.74979 0.75434 0.10608 0.0
H4188 H 0.72685 0.74634 0.08565 0.0
H4189 H 0.70359 0.71 0.11548 0.0
H4190 H 0.72647 0.71767 0.13601 0.0
H4191 H 0.77247 0.78499 0.20986 0.0
H4192 H 0.77725 0.77744 0.18158 0.0
H4193 H 0.74146 0.73242 0.18112 0.0
H4194 H 0.73652 0.74009 0.20953 0.0
H4195 H 0.73891 0.74688 0.15392 0.0
H4196 H 0.78091 0.73063 0.18539 0.0
H4197 H 0.80443 0.73122 0.20441 0.0
H4198 H 0.83314 0.76756 0.17826 0.0
H4199 H 0.80969 0.76741 0.15919 0.0
C4200 C 0.76656 0.70772 0.09453 0.0
C4201 C 0.77466 0.71712 0.08303 0.0
C4202 C 0.76558 0.71494 0.11015 0.0
C4203 C 0.77259 0.73171 0.11452 0.0
C4204 C 0.78143 0.74097 0.10336 0.0
C4205 C 0.78248 0.73367 0.08762 0.0
C4206 C 0.7697 0.73952 0.13052 0.0
C4207 C 0.78252 0.74334 0.14237 0.0
C4208 C 0.75382 0.74083 0.13468 0.0
C4209 C 0.73985 0.73656 0.12256 0.0
C4210 C 0.7398 0.74461 0.10826 0.0
C4211 C 0.7268 0.74014 0.09666 0.0
C4212 C 0.71377 0.72767 0.09927 0.0
C4213 C 0.71368 0.71968 0.11349 0.0
C4214 C 0.72663 0.72411 0.12513 0.0
C4215 C 0.7654 0.77364 0.20359 0.0
C4216 C 0.7541 0.76309 0.21173 0.0
C4217 C 0.76828 0.76927 0.18754 0.0
C4218 C 0.75999 0.75421 0.17943 0.0
C4219 C 0.74803 0.74408 0.18726 0.0
C4220 C 0.74507 0.74852 0.20337 0.0
C4221 C 0.76378 0.74909 0.16275 0.0
C4222 C 0.75108 0.74572 0.15074 0.0
C4223 C 0.77975 0.74777 0.1586 0.0
C4224 C 0.79342 0.74917 0.17095 0.0
C4225 C 0.79211 0.73902 0.18387 0.0
C4226 C 0.80548 0.73919 0.1946 0.0
C4227 C 0.82027 0.74937 0.1925 0.0
C4228 C 0.82167 0.75964 0.17984 0.0
C4229 C 0.80833 0.75955 0.16908 0.0
H4230 H 0.83067 0.74921 0.20063 0.0
H4231 H 0.70374 0.7242 0.09026 0.0
H4232 H 0.05516 0.00706 0.70444 0.0
H4233 H 0.04283 0.01019 0.67793 0.0
H4234 H 0.07232 0.97758 0.65507 0.0
H4235 H 0.08493 0.97463 0.68159 0.0
H4236 H 0.07665 0.0083 0.64396 0.0
H4237 H 0.03172 0.96588 0.65216 0.0
H4238 H 0.00966 0.95152 0.66721 0.0
H4239 H 0.98692 0.99487 0.66876 0.0
H4240 H 0.00894 0.00957 0.65387 0.0
H4241 H 0.04851 0.01963 0.56563 0.0
H4242 H 0.05615 0.00897 0.59055 0.0
H4243 H 0.02083 0.03274 0.61546 0.0
H4244 H 0.01213 0.04236 0.58978 0.0
H4245 H 0.01916 0.00374 0.62471 0.0
H4246 H 0.06528 0.04724 0.61919 0.0
H4247 H 0.08738 0.06192 0.60435 0.0
H4248 H 0.10817 0.01735 0.5988 0.0
H4249 H 0.08612 0.00235 0.61347 0.0
C4250 C 0.05876 0.00029 0.69378 0.0
C4251 C 0.07116 0.99081 0.69501 0.0
C4252 C 0.0516 0.00195 0.67867 0.0
C4253 C 0.05669 0.99413 0.66456 0.0
C4254 C 0.06823 0.98369 0.66585 0.0
C4255 C 0.07537 0.98197 0.681 0.0
C4256 C 0.05184 -0.00101 0.64857 0.0
C4257 C 0.06408 0.00702 0.63957 0.0
C4258 C 0.03544 -0.00224 0.64318 0.0
C4259 C 0.02206 0.98888 0.65198 0.0
C4260 C 0.02208 0.9724 0.6558 0.0
C4261 C 0.00956 0.96418 0.66428 0.0
C4262 C 0.99691 0.97229 0.66897 0.0
C4263 C 0.99672 0.98861 0.66513 0.0
C4264 C 0.00921 0.99687 0.65663 0.0
C4265 C 0.04256 0.02289 0.57647 0.0
C4266 C 0.02987 0.032 0.57588 0.0
C4267 C 0.04697 0.01678 0.59079 0.0
C4268 C 0.03933 0.02027 0.60506 0.0
C4269 C 0.02693 0.02986 0.60461 0.0
C4270 C 0.02209 0.03554 0.59005 0.0
C4271 C 0.04398 0.01342 0.62024 0.0
C4272 C 0.03172 0.00499 0.62905 0.0
C4273 C 0.06041 0.01444 0.62563 0.0
C4274 C 0.074 0.02366 0.61735 0.0
C4275 C 0.07457 0.04058 0.61479 0.0
C4276 C 0.08707 0.04895 0.6064 0.0
C4277 C 0.09915 0.04057 0.60061 0.0
C4278 C 0.09881 0.02383 0.60329 0.0
C4279 C 0.08633 0.0154 0.61167 0.0
H4280 H 0.10879 0.04706 0.59408 0.0
H4281 H 0.98724 0.96592 0.67556 0.0
H4282 H 0.77802 0.35705 0.43021 0.0
H4283 H 0.7793 0.34163 0.40387 0.0
H4284 H 0.73063 0.31514 0.40721 0.0
H4285 H 0.72955 0.32983 0.434 0.0
H4286 H 0.74934 0.29455 0.39421 0.0
H4287 H 0.7387 0.34981 0.38554 0.0
H4288 H 0.74479 0.38066 0.38966 0.0
H4289 H 0.79093 0.38057 0.36943 0.0
H4290 H 0.78518 0.34969 0.36536 0.0
H4291 H 0.72397 0.26815 0.31283 0.0
H4292 H 0.72778 0.28125 0.34063 0.0
H4293 H 0.77475 0.30782 0.33047 0.0
H4294 H 0.77048 0.29537 0.30224 0.0
H4295 H 0.75991 0.32799 0.34743 0.0
H4296 H 0.76952 0.27264 0.35368 0.0
H4297 H 0.76378 0.24177 0.35029 0.0
H4298 H 0.72022 0.2417 0.37546 0.0
H4299 H 0.7256 0.27258 0.37884 0.0
C4300 C 0.76768 0.34772 0.42553 0.0
C4301 C 0.75361 0.34482 0.43423 0.0
C4302 C 0.76838 0.33902 0.41036 0.0
C4303 C 0.75495 0.32745 0.40341 0.0
C4304 C 0.74111 0.32409 0.41227 0.0
C4305 C 0.74044 0.33267 0.42752 0.0
C4306 C 0.75501 0.31937 0.38663 0.0
C4307 C 0.75153 0.30184 0.38395 0.0
C4308 C 0.75832 0.32888 0.3733 0.0
C4309 C 0.76156 0.34745 0.37525 0.0
C4310 C 0.75016 0.35638 0.38201 0.0
C4311 C 0.75355 0.37386 0.38435 0.0
C4312 C 0.76825 0.38257 0.37985 0.0
C4313 C 0.77956 0.37381 0.37292 0.0
C4314 C 0.77623 0.35632 0.37057 0.0
C4315 C 0.73516 0.27671 0.31654 0.0
C4316 C 0.74712 0.28047 0.30547 0.0
C4317 C 0.73739 0.28411 0.3325 0.0
C4318 C 0.75176 0.29519 0.33786 0.0
C4319 C 0.76365 0.29914 0.32672 0.0
C4320 C 0.7613 0.2919 0.31063 0.0
C4321 C 0.75399 0.30308 0.35489 0.0
C4322 C 0.7579 0.32062 0.35765 0.0
C4323 C 0.75112 0.29355 0.36831 0.0
C4324 C 0.74792 0.27495 0.36642 0.0
C4325 C 0.75867 0.26605 0.35841 0.0
C4326 C 0.75549 0.24854 0.35651 0.0
C4327 C 0.74163 0.23978 0.36263 0.0
C4328 C 0.73095 0.24851 0.37072 0.0
C4329 C 0.73408 0.26601 0.37266 0.0
H4330 H 0.73918 0.22623 0.36113 0.0
H4331 H 0.77088 0.39611 0.3817 0.0
H4332 H 0.4455 0.00365 0.19596 0.0
H4333 H 0.45445 0.99669 0.16907 0.0
H4334 H 0.43691 0.03919 0.15188 0.0
H4335 H 0.42739 0.0459 0.1788 0.0
H4336 H 0.428 0.01142 0.13072 0.0
H4337 H 0.47609 0.04182 0.15825 0.0
H4338 H 0.49818 0.05067 0.17945 0.0
H4339 H 0.51137 0.00199 0.17336 0.0
H4340 H 0.48921 0.99279 0.15222 0.0
H4341 H 0.48157 0.03931 0.07439 0.0
H4342 H 0.4618 0.03059 0.09387 0.0
H4343 H 0.48 0.98444 0.09643 0.0
H4344 H 0.5 0.99319 0.07686 0.0
H4345 H 0.48525 0.00611 0.12374 0.0
H4346 H 0.43546 0.97869 0.09211 0.0
H4347 H 0.41423 0.97503 0.06987 0.0
H4348 H 0.40757 0.02576 0.0808 0.0
H4349 H 0.42818 0.02947 0.10363 0.0
C4350 C 0.44364 0.01153 0.18644 0.0
C4351 C 0.43578 0.02525 0.18929 0.0
C4352 C 0.44873 0.00757 0.17116 0.0
C4353 C 0.44623 0.01741 0.1586 0.0
C4354 C 0.43877 0.03141 0.16149 0.0
C4355 C 0.43359 0.03536 0.17683 0.0
C4356 C 0.45173 0.01311 0.14254 0.0
C4357 C 0.44052 0.01029 0.12909 0.0
C4358 C 0.46795 0.01136 0.14063 0.0
C4359 C 0.48081 0.01652 0.15387 0.0
C4360 C 0.48353 0.03292 0.16162 0.0
C4361 C 0.49612 0.03802 0.17356 0.0
C4362 C 0.50613 0.02688 0.1778 0.0
C4363 C 0.50357 0.01059 0.1701 0.0
C4364 C 0.49099 0.00542 0.15814 0.0
C4365 C 0.48134 0.0273 0.07911 0.0
C4366 C 0.49267 0.01722 0.07473 0.0
C4367 C 0.46968 0.02207 0.08977 0.0
C4368 C 0.46924 0.00671 0.09627 0.0
C4369 C 0.48002 0.99619 0.09126 0.0
C4370 C 0.49174 0.00145 0.08057 0.0
C4371 C 0.46171 0.00478 0.11169 0.0
C4372 C 0.47256 0.00652 0.12531 0.0
C4373 C 0.4454 0.00634 0.11354 0.0
C4374 C 0.43344 0.00438 0.09948 0.0
C4375 C 0.42952 0.98909 0.08971 0.0
C4376 C 0.41753 0.98697 0.07706 0.0
C4377 C 0.40971 0.00022 0.07377 0.0
C4378 C 0.41367 0.01553 0.08331 0.0
C4379 C 0.42537 0.01758 0.09623 0.0
H4380 H 0.40053 -0.00141 0.0639 0.0
H4381 H 0.5159 0.03087 0.18701 0.0
H4382 H 0.78863 0.69554 0.91497 0.0
H4383 H 0.78875 0.7094 0.89008 0.0
H4384 H 0.76317 0.74594 0.91276 0.0
H4385 H 0.76288 0.73196 0.93774 0.0
H4386 H 0.74941 0.73459 0.88379 0.0
H4387 H 0.80361 0.75669 0.90426 0.0
H4388 H 0.83108 0.75606 0.91569 0.0
H4389 H 0.8398 0.72502 0.8736 0.0
H4390 H 0.81231 0.72534 0.86197 0.0
H4391 H 0.76527 0.79039 0.82085 0.0
H4392 H 0.76636 0.77882 0.84715 0.0
H4393 H 0.77662 0.73287 0.82347 0.0
H4394 H 0.77482 0.74418 0.797 0.0
H4395 H 0.79831 0.75041 0.85328 0.0
H4396 H 0.74319 0.72842 0.83337 0.0
H4397 H 0.7158 0.72998 0.8224 0.0
H4398 H 0.70898 0.76222 0.86437 0.0
H4399 H 0.73649 0.76113 0.87545 0.0
C4400 C 0.78327 0.70669 0.91476 0.0
C4401 C 0.77572 0.71263 0.92832 0.0
C4402 C 0.78335 0.71463 0.90051 0.0
C4403 C 0.77609 0.72882 0.89955 0.0
C4404 C 0.76881 0.73498 0.91318 0.0
C4405 C 0.76863 0.72697 0.92743 0.0
C4406 C 0.77536 0.7366 0.88403 0.0
C4407 C 0.76016 0.73832 0.87728 0.0
C4408 C 0.78932 0.7412 0.87534 0.0
C4409 C 0.80585 0.74093 0.88231 0.0
C4410 C 0.81134 0.74963 0.89749 0.0
C4411 C 0.82693 0.74936 0.90399 0.0
C4412 C 0.83716 0.74048 0.89539 0.0
C4413 C 0.83185 0.73189 0.88025 0.0
C4414 C 0.81628 0.73214 0.87369 0.0
C4415 C 0.7678 0.77784 0.82131 0.0
C4416 C 0.77008 0.76814 0.80703 0.0
C4417 C 0.76835 0.77125 0.83628 0.0
C4418 C 0.77155 0.75502 0.8372 0.0
C4419 C 0.77411 0.74542 0.82295 0.0
C4420 C 0.77309 0.75184 0.80791 0.0
C4421 C 0.77241 0.7482 0.8531 0.0
C4422 C 0.78762 0.74674 0.8599 0.0
C4423 C 0.75849 0.744 0.8619 0.0
C4424 C 0.74203 0.74491 0.85512 0.0
C4425 C 0.73596 0.73606 0.84015 0.0
C4426 C 0.72038 0.7368 0.83394 0.0
C4427 C 0.71068 0.74624 0.84265 0.0
C4428 C 0.71653 0.75495 0.85761 0.0
C4429 C 0.73212 0.75428 0.86386 0.0
H4430 H 0.6986 0.74677 0.83784 0.0
H4431 H 0.84923 0.74028 0.90044 0.0
H4432 H 0.81937 0.07259 0.99314 0.0
H4433 H 0.84168 0.05691 0.9896 0.0
H4434 H 0.87616 0.10224 0.0041 0.0
H4435 H 0.85391 0.11789 0.00694 0.0
H4436 H 0.88653 0.08614 0.97977 0.0
H4437 H 0.86449 0.07165 0.02998 0.0
H4438 H 0.84357 0.06079 0.04814 0.0
H4439 H 0.8364 0.0125 0.02089 0.0
H4440 H 0.8571 0.02317 0.00238 0.0
H4441 H 0.95426 0.05813 0.01423 0.0
H4442 H 0.92994 0.06965 0.0084 0.0
H4443 H 0.9065 0.0218 0.98458 0.0
H4444 H 0.93114 0.01018 0.99014 0.0
H4445 H 0.88902 0.03612 0.0091 0.0
H4446 H 0.91632 0.05237 0.96169 0.0
H4447 H 0.93849 0.06542 0.94595 0.0
H4448 H 0.93799 0.11326 0.97195 0.0
H4449 H 0.91598 0.10049 0.98799 0.0
C4450 C 0.83176 0.07907 0.99551 0.0
C4451 C 0.83514 0.09629 0.00036 0.0
C4452 C 0.84445 0.07017 0.99354 0.0
C4453 C 0.86058 0.07838 -0.00326 0.0
C4454 C 0.86383 0.09567 0.0015 0.0
C4455 C 0.85119 0.10457 0.00321 0.0
C4456 C 0.87418 0.06908 0.99544 0.0
C4457 C 0.88713 0.07525 0.98626 0.0
C4458 C 0.87476 0.05466 0.00363 0.0
C4459 C 0.86217 0.04828 0.01463 0.0
C4460 C 0.85833 0.05877 0.02774 0.0
C4461 C 0.84653 0.05264 0.03812 0.0
C4462 C 0.83861 0.03598 0.03563 0.0
C4463 C 0.8425 0.02541 0.02277 0.0
C4464 C 0.85425 0.0315 0.01232 0.0
C4465 C 0.94393 0.05003 0.00775 0.0
C4466 C 0.94444 0.03321 0.00278 0.0
C4467 C 0.93014 0.0567 0.00425 0.0
C4468 C 0.91656 0.04662 0.99587 0.0
C4469 C 0.91698 0.02978 0.99092 0.0
C4470 C 0.93094 0.02314 0.99419 0.0
C4471 C 0.90152 0.05344 0.99378 0.0
C4472 C 0.88828 0.04681 0.00236 0.0
C4473 C 0.90094 0.06778 0.98549 0.0
C4474 C 0.91455 0.0754 0.97616 0.0
C4475 C 0.92106 0.06563 0.96419 0.0
C4476 C 0.93357 0.073 0.95517 0.0
C4477 C 0.93967 0.09015 0.95797 0.0
C4478 C 0.93327 0.09997 0.9698 0.0
C4479 C 0.92076 0.09267 0.97884 0.0
H4480 H 0.94933 0.09583 0.95095 0.0
H4481 H 0.8295 0.03125 0.04369 0.0
H4482 H 0.34244 0.41145 0.01535 0.0
H4483 H 0.36997 0.42656 0.01309 0.0
H4484 H 0.35234 0.47338 0.01653 0.0
H4485 H 0.32464 0.45808 0.01775 0.0
H4486 H 0.3736 0.47565 0.99599 0.0
H4487 H 0.37387 0.45772 0.04945 0.0
H4488 H 0.3695 0.43736 0.06981 0.0
H4489 H 0.40376 0.41022 0.04795 0.0
H4490 H 0.40819 0.43031 0.02733 0.0
H4491 H 0.44986 0.52844 0.01987 0.0
H4492 H 0.42228 0.51236 0.01873 0.0
H4493 H 0.44033 0.46708 0.00485 0.0
H4494 H 0.468 0.48318 0.00587 0.0
H4495 H 0.41938 0.46369 0.03016 0.0
H4496 H 0.41949 0.48393 0.97727 0.0
H4497 H 0.42362 0.50565 0.95823 0.0
H4498 H 0.38833 0.53044 0.9813 0.0
H4499 H 0.38414 0.50898 0.00062 0.0
C4500 C 0.3445 0.42498 0.01565 0.0
C4501 C 0.33144 0.43361 0.01685 0.0
C4502 C 0.36027 0.43366 0.01445 0.0
C4503 C 0.36349 0.45126 0.01502 0.0
C4504 C 0.35034 0.45985 0.01609 0.0
C4505 C 0.3345 0.45112 0.01685 0.0
C4506 C 0.38045 0.46069 0.01441 0.0
C4507 C 0.38352 0.47313 0.00365 0.0
C4508 C 0.39364 0.45737 0.02416 0.0
C4509 C 0.39126 0.44545 0.03676 0.0
C4510 C 0.38042 0.44737 0.04894 0.0
C4511 C 0.37794 0.43588 0.06053 0.0
C4512 C 0.38632 0.42248 0.06015 0.0
C4513 C 0.39727 0.4206 0.04822 0.0
C4514 C 0.39979 0.43205 0.03659 0.0
C4515 C 0.44793 0.51509 0.01635 0.0
C4516 C 0.46113 0.50711 0.01292 0.0
C4517 C 0.43214 0.50589 0.0157 0.0
C4518 C 0.42916 0.48847 0.01168 0.0
C4519 C 0.4423 0.48049 0.008 0.0
C4520 C 0.4581 0.48973 0.00847 0.0
C4521 C 0.4124 0.47859 0.01181 0.0
C4522 C 0.40941 0.46611 0.0225 0.0
C4523 C 0.39924 0.4821 0.00224 0.0
C4524 C 0.4016 0.4949 0.99048 0.0
C4525 C 0.41268 0.49407 0.97835 0.0
C4526 C 0.41502 0.50632 0.96749 0.0
C4527 C 0.40627 0.51943 0.96857 0.0
C4528 C 0.39511 0.52028 0.98048 0.0
C4529 C 0.39273 0.50806 0.99138 0.0
H4530 H 0.40811 0.52892 0.96017 0.0
H4531 H 0.38436 0.41359 0.06912 0.0
H4532 H 0.31657 0.59695 0.75145 0.0
H4533 H 0.30136 0.61995 0.75476 0.0
H4534 H 0.34618 0.65506 0.76531 0.0
H4535 H 0.3613 0.6319 0.76278 0.0
H4536 H 0.32539 0.66326 0.78481 0.0
H4537 H 0.32333 0.64897 0.72689 0.0
H4538 H 0.31746 0.6309 0.70109 0.0
H4539 H 0.26715 0.61998 0.71084 0.0
H4540 H 0.27276 0.63785 0.73677 0.0
H4541 H 0.3003 0.73826 0.76823 0.0
H4542 H 0.31235 0.71319 0.7681 0.0
H4543 H 0.26479 0.6824 0.76269 0.0
H4544 H 0.25257 0.70756 0.76225 0.0
H4545 H 0.28499 0.67104 0.74195 0.0
H4546 H 0.28779 0.68519 0.80058 0.0
H4547 H 0.29365 0.70626 0.82437 0.0
H4548 H 0.34243 0.72001 0.81068 0.0
H4549 H 0.33714 0.69861 0.78732 0.0
C4550 C 0.32311 0.60961 0.75448 0.0
C4551 C 0.34005 0.61274 0.75682 0.0
C4552 C 0.31445 0.62275 0.75628 0.0
C4553 C 0.32262 0.63932 0.75999 0.0
C4554 C 0.33959 0.64241 0.76245 0.0
C4555 C 0.34822 0.62921 0.76098 0.0
C4556 C 0.31354 0.65344 0.76144 0.0
C4557 C 0.31664 0.66495 0.77536 0.0
C4558 C 0.30182 0.65558 0.74932 0.0
C4559 C 0.2985 0.64458 0.73386 0.0
C4560 C 0.31105 0.64258 0.7236 0.0
C4561 C 0.30776 0.63241 0.70893 0.0
C4562 C 0.29195 0.62425 0.70435 0.0
C4563 C 0.2794 0.62627 0.71441 0.0
C4564 C 0.28262 0.63643 0.72909 0.0
C4565 C 0.29235 0.72619 0.76718 0.0
C4566 C 0.27546 0.7249 0.76529 0.0
C4567 C 0.29927 0.71184 0.76721 0.0
C4568 C 0.28946 0.69593 0.76571 0.0
C4569 C 0.27257 0.69458 0.76395 0.0
C4570 C 0.26562 0.70895 0.7637 0.0
C4571 C 0.29696 0.68075 0.76518 0.0
C4572 C 0.29356 0.66909 0.75146 0.0
C4573 C 0.30844 0.6785 0.77739 0.0
C4574 C 0.31209 0.69027 0.79228 0.0
C4575 C 0.29985 0.69255 0.80284 0.0
C4576 C 0.30311 0.7045 0.81629 0.0
C4577 C 0.3185 0.71436 0.81917 0.0
C4578 C 0.33068 0.71214 0.8087 0.0
C4579 C 0.3276 0.7 0.79543 0.0
H4580 H 0.32097 0.72378 0.82945 0.0
H4581 H 0.28943 0.6164 0.69298 0.0
H4582 H 0.17553 0.61028 0.49852 0.0
H4583 H 0.14798 0.59513 0.50064 0.0
H4584 H 0.16522 0.54815 0.49531 0.0
H4585 H 0.19298 0.56343 0.49322 0.0
H4586 H 0.13432 0.55081 0.47693 0.0
H4587 H 0.16056 0.56021 0.53078 0.0
H4588 H 0.17692 0.57775 0.55347 0.0
H4589 H 0.14157 0.60995 0.55676 0.0
H4590 H 0.12515 0.5928 0.5339 0.0
H4591 H 0.05661 0.5137 0.49908 0.0
H4592 H 0.08601 0.52024 0.49726 0.0
H4593 H 0.08592 0.57106 0.51725 0.0
H4594 H 0.05666 0.5641 0.52003 0.0
H4595 H 0.11032 0.56146 0.52958 0.0
H4596 H 0.08635 0.55751 0.47547 0.0
H4597 H 0.07106 0.54531 0.45 0.0
H4598 H 0.10177 0.50852 0.44414 0.0
H4599 H 0.11688 0.52008 0.47001 0.0
C4600 C 0.1733 0.59671 0.4975 0.0
C4601 C 0.18606 0.58785 0.49573 0.0
C4602 C 0.15771 0.58813 0.49879 0.0
C4603 C 0.15481 0.57064 0.49838 0.0
C4604 C 0.16741 0.56168 0.49572 0.0
C4605 C 0.18311 0.57032 0.4945 0.0
C4606 C 0.13863 0.56202 0.5015 0.0
C4607 C 0.12905 0.55268 0.48851 0.0
C4608 C 0.13193 0.56511 0.51654 0.0
C4609 C 0.14165 0.57523 0.53056 0.0
C4610 C 0.15632 0.57108 0.53627 0.0
C4611 C 0.1656 0.58096 0.54917 0.0
C4612 C 0.1603 0.59496 0.55654 0.0
C4613 C 0.14567 0.5991 0.55105 0.0
C4614 C 0.13636 0.58929 0.53813 0.0
C4615 C 0.06302 0.52619 0.50321 0.0
C4616 C 0.05469 0.53848 0.50968 0.0
C4617 C 0.07971 0.52994 0.50207 0.0
C4618 C 0.08809 0.54619 0.50684 0.0
C4619 C 0.07968 0.55841 0.51354 0.0
C4620 C 0.06305 0.55451 0.51511 0.0
C4621 C 0.10559 0.55067 0.50475 0.0
C4622 C 0.11551 0.55915 0.51803 0.0
C4623 C 0.11246 0.54725 0.48978 0.0
C4624 C 0.10264 0.53955 0.47481 0.0
C4625 C 0.08968 0.54664 0.46892 0.0
C4626 C 0.0811 0.53989 0.45434 0.0
C4627 C 0.08555 0.52626 0.44534 0.0
C4628 C 0.09837 0.51911 0.4511 0.0
C4629 C 0.10689 0.5257 0.46577 0.0
H4630 H 0.07913 0.52126 0.43387 0.0
H4631 H 0.1675 0.6026 0.56651 0.0
H4632 H 0.6687 0.92868 0.7429 0.0
H4633 H 0.68426 0.90674 0.74753 0.0
H4634 H 0.69793 0.92919 0.79637 0.0
H4635 H 0.68283 0.95165 0.79162 0.0
H4636 H 0.72325 0.91914 0.78121 0.0
H4637 H 0.66933 0.89526 0.79118 0.0
H4638 H 0.63972 0.88844 0.78567 0.0
H4639 H 0.64586 0.85875 0.74177 0.0
H4640 H 0.67553 0.86556 0.74689 0.0
H4641 H 0.75484 0.84418 0.79283 0.0
H4642 H 0.7395 0.86705 0.79687 0.0
H4643 H 0.71883 0.85573 0.74772 0.0
H4644 H 0.73385 0.83272 0.74374 0.0
H4645 H 0.69594 0.85988 0.76945 0.0
H4646 H 0.74961 0.88829 0.75756 0.0
H4647 H 0.77926 0.89519 0.76287 0.0
H4648 H 0.77314 0.9163 0.811 0.0
H4649 H 0.74343 0.90931 0.80602 0.0
C4650 C 0.67521 0.9291 0.75454 0.0
C4651 C 0.6745 0.94178 0.76693 0.0
C4652 C 0.68392 0.91647 0.75723 0.0
C4653 C 0.6919 0.91622 0.7724 0.0
C4654 C 0.69167 0.92913 0.78466 0.0
C4655 C 0.68299 0.94184 0.78195 0.0
C4656 C 0.70051 0.9024 0.77523 0.0
C4657 C 0.71725 0.90617 0.77902 0.0
C4658 C 0.69258 0.88554 0.77233 0.0
C4659 C 0.67469 0.88098 0.7694 0.0
C4660 C 0.66438 0.88732 0.78032 0.0
C4661 C 0.64758 0.88346 0.77726 0.0
C4662 C 0.64092 0.87318 0.76337 0.0
C4663 C 0.65104 0.86669 0.75253 0.0
C4664 C 0.66786 0.87052 0.75553 0.0
C4665 C 0.74722 0.8468 0.78284 0.0
C4666 C 0.74557 0.83687 0.76794 0.0
C4667 C 0.7384 0.85973 0.7852 0.0
C4668 C 0.72804 0.86297 0.7726 0.0
C4669 C 0.72668 0.85328 0.75761 0.0
C4670 C 0.73539 0.84031 0.7553 0.0
C4671 C 0.71876 0.87667 0.77474 0.0
C4672 C 0.70187 0.87285 0.772 0.0
C4673 C 0.72652 0.89347 0.77867 0.0
C4674 C 0.74434 0.89815 0.78147 0.0
C4675 C 0.7546 0.89435 0.76929 0.0
C4676 C 0.77141 0.89827 0.77224 0.0
C4677 C 0.77808 0.90614 0.78728 0.0
C4678 C 0.76795 0.91019 0.79937 0.0
C4679 C 0.75113 0.90626 0.79648 0.0
H4680 H 0.79109 0.90914 0.78955 0.0
H4681 H 0.62791 0.87024 0.761 0.0
H4682 H 0.67649 0.92963 0.48595 0.0
H4683 H 0.65242 0.94238 0.4828 0.0
H4684 H 0.64228 0.93575 0.53255 0.0
H4685 H 0.66582 0.92221 0.53556 0.0
H4686 H 0.61484 0.92889 0.5136 0.0
H4687 H 0.662 0.97385 0.52035 0.0
H4688 H 0.68839 0.98867 0.51285 0.0
H4689 H 0.66773 0.9934 0.46557 0.0
H4690 H 0.64125 0.97846 0.47274 0.0
H4691 H 0.56608 0.98893 0.53366 0.0
H4692 H 0.588 0.97269 0.53181 0.0
H4693 H 0.5935 0.9835 0.48216 0.0
H4694 H 0.57184 4e-05 0.48411 0.0
H4695 H 0.62222 0.9869 0.49775 0.0
H4696 H 0.57513 0.94464 0.4904 0.0
H4697 H 0.54821 0.92991 0.49652 0.0
H4698 H 0.56767 0.91961 0.54253 0.0
H4699 H 0.59471 0.93436 0.53673 0.0
C4700 C 0.66903 0.93064 0.49617 0.0
C4701 C 0.67325 0.92503 0.51108 0.0
C4702 C 0.65533 0.93808 0.49438 0.0
C4703 C 0.64567 0.94029 0.50752 0.0
C4704 C 0.64958 0.93427 0.52226 0.0
C4705 C 0.6632 0.92672 0.52402 0.0
C4706 C 0.63186 0.94941 0.50621 0.0
C4707 C 0.61648 0.94162 0.51026 0.0
C4708 C 0.63382 0.96581 0.50127 0.0
C4709 C 0.6497 0.9749 0.49703 0.0
C4710 C 0.66312 0.97797 0.50833 0.0
C4711 C 0.67808 0.9864 0.50414 0.0
C4712 C 0.67975 0.99193 0.48873 0.0
C4713 C 0.66643 0.98909 0.47749 0.0
C4714 C 0.65144 0.98066 0.48162 0.0
C4715 C 0.57205 0.98791 0.52241 0.0
C4716 C 0.56734 0.99578 0.50906 0.0
C4717 C 0.58447 0.97852 0.5213 0.0
C4718 C 0.59224 0.97666 0.50676 0.0
C4719 C 0.58768 0.98474 0.49349 0.0
C4720 C 0.57534 0.99421 0.49463 0.0
C4721 C 0.60532 0.96654 0.50554 0.0
C4722 C 0.62053 0.97412 0.50095 0.0
C4723 C 0.60313 0.94987 0.50974 0.0
C4724 C 0.58695 0.94071 0.51318 0.0
C4725 C 0.57366 0.9393 0.50186 0.0
C4726 C 0.55838 0.93094 0.50526 0.0
C4727 C 0.55622 0.92388 0.51992 0.0
C4728 C 0.56936 0.92509 0.53118 0.0
C4729 C 0.58469 0.93341 0.52782 0.0
H4730 H 0.54437 0.91744 0.52255 0.0
H4731 H 0.69134 -0.00155 0.48551 0.0
H4732 H 0.35823 0.44115 0.74802 0.0
H4733 H 0.34447 0.41243 0.74982 0.0
H4734 H 0.29909 0.42983 0.75488 0.0
H4735 H 0.31305 0.45871 0.75384 0.0
H4736 H 0.3002 0.40763 0.77439 0.0
H4737 H 0.31009 0.40891 0.71815 0.0
H4738 H 0.32652 0.41428 0.69465 0.0
H4739 H 0.35588 0.37894 0.70822 0.0
H4740 H 0.33973 0.3735 0.73193 0.0
H4741 H 0.24863 0.32885 0.74817 0.0
H4742 H 0.26426 0.35708 0.7476 0.0
H4743 H 0.30738 0.34019 0.76437 0.0
H4744 H 0.29159 0.31195 0.76566 0.0
H4745 H 0.30793 0.36133 0.73413 0.0
H4746 H 0.29589 0.36022 0.79066 0.0
H4747 H 0.27779 0.35529 0.81299 0.0
H4748 H 0.25011 0.39096 0.79675 0.0
H4749 H 0.26789 0.39588 0.77413 0.0
C4750 C 0.3453 0.43881 0.74942 0.0
C4751 C 0.33669 0.45214 0.75067 0.0
C4752 C 0.33741 0.42236 0.75039 0.0
C4753 C 0.32062 0.41879 0.75215 0.0
C4754 C 0.31203 0.43216 0.75349 0.0
C4755 C 0.31999 0.44867 0.75286 0.0
C4756 C 0.31207 0.40118 0.75281 0.0
C4757 C 0.3018 0.39759 0.76545 0.0
C4758 C 0.31423 0.38789 0.74131 0.0
C4759 C 0.32379 0.3909 0.7269 0.0
C4760 C 0.3201 0.40234 0.71617 0.0
C4761 C 0.32936 0.4054 0.70281 0.0
C4762 C 0.34226 0.39699 0.69997 0.0
C4763 C 0.34589 0.38546 0.71045 0.0
C4764 C 0.33667 0.38236 0.72383 0.0
C4765 C 0.26145 0.33112 0.75175 0.0
C4766 C 0.26891 0.31817 0.75694 0.0
C4767 C 0.27034 0.34726 0.75141 0.0
C4768 C 0.28696 0.35071 0.75592 0.0
C4769 C 0.29456 0.33775 0.76082 0.0
C4770 C 0.28555 0.32166 0.76156 0.0
C4771 C 0.2962 0.36796 0.75567 0.0
C4772 C 0.30649 0.37144 0.74307 0.0
C4773 C 0.29382 0.3812 0.76699 0.0
C4774 C 0.2831 0.37825 0.78057 0.0
C4775 C 0.28583 0.36686 0.79173 0.0
C4776 C 0.27566 0.3641 0.80447 0.0
C4777 C 0.26278 0.37276 0.80626 0.0
C4778 C 0.26007 0.38423 0.79533 0.0
C4779 C 0.2702 0.38701 0.78255 0.0
H4780 H 0.25492 0.37063 0.81613 0.0
H4781 H 0.34943 0.39939 0.68963 0.0
H4782 H 0.17239 0.60319 0.29515 0.0
H4783 H 0.18995 0.63047 0.29565 0.0
H4784 H 0.22023 0.60942 0.26175 0.0
H4785 H 0.20316 0.58196 0.26172 0.0
H4786 H 0.23732 0.63619 0.28288 0.0
H4787 H 0.18646 0.62247 0.24722 0.0
H4788 H 0.15685 0.61596 0.24128 0.0
H4789 H 0.15109 0.65824 0.27383 0.0
H4790 H 0.18063 0.66491 0.28002 0.0
H4791 H 0.25726 0.71215 0.23979 0.0
H4792 H 0.25041 0.68255 0.2455 0.0
H4793 H 0.21649 0.69596 0.27973 0.0
H4794 H 0.22185 0.72431 0.27324 0.0
H4795 H 0.20341 0.67184 0.25699 0.0
H4796 H 0.25082 0.68716 0.29423 0.0
H4797 H 0.27984 0.69665 0.30219 0.0
H4798 H 0.29163 0.65575 0.27151 0.0
H4799 H 0.26267 0.64607 0.26331 0.0
C4800 C 0.18317 0.60423 0.28835 0.0
C4801 C 0.18627 0.59067 0.27806 0.0
C4802 C 0.19313 0.61979 0.28862 0.0
C4803 C 0.20606 0.62186 0.27844 0.0
C4804 C 0.21021 0.60797 0.26959 0.0
C4805 C 0.20036 0.5924 0.26943 0.0
C4806 C 0.21322 0.63858 0.27454 0.0
C4807 C 0.22999 0.64408 0.27723 0.0
C4808 C 0.20351 0.64874 0.26726 0.0
C4809 C 0.1857 0.64402 0.26423 0.0
C4810 C 0.17885 0.63022 0.25326 0.0
C4811 C 0.16208 0.62656 0.2498 0.0
C4812 C 0.15209 0.63665 0.25721 0.0
C4813 C 0.15883 0.6504 0.26813 0.0
C4814 C 0.17556 0.65412 0.27162 0.0
C4815 C 0.24806 0.70855 0.24818 0.0
C4816 C 0.24005 0.7205 0.25596 0.0
C4817 C 0.2445 0.69186 0.25171 0.0
C4818 C 0.23316 0.68733 0.26318 0.0
C4819 C 0.22533 0.6993 0.27089 0.0
C4820 C 0.22837 0.71554 0.26701 0.0
C4821 C 0.22741 0.66993 0.26598 0.0
C4822 C 0.21084 0.66407 0.26273 0.0
C4823 C 0.23721 0.65997 0.27339 0.0
C4824 C 0.25462 0.66605 0.27796 0.0
C4825 C 0.25962 0.68032 0.28902 0.0
C4826 C 0.27605 0.68569 0.29364 0.0
C4827 C 0.28758 0.67685 0.2873 0.0
C4828 C 0.28269 0.66261 0.27637 0.0
C4829 C 0.26628 0.65717 0.27175 0.0
H4830 H 0.30029 0.68101 0.29089 0.0
H4831 H 0.13913 0.63384 0.25445 0.0
H4832 H 0.47171 0.68411 0.45111 0.0
H4833 H 0.47432 0.66047 0.46679 0.0
H4834 H 0.52624 0.67613 0.47076 0.0
H4835 H 0.5239 0.69856 0.45416 0.0
H4836 H 0.51953 0.64547 0.46064 0.0
H4837 H 0.50067 0.6794 0.50405 0.0
H4838 H 0.48175 0.6955 0.51733 0.0
H4839 H 0.44421 0.652 0.51111 0.0
H4840 H 0.46286 0.63567 0.49766 0.0
H4841 H 0.53682 0.58166 0.50775 0.0
H4842 H 0.53542 0.61025 0.50122 0.0
H4843 H 0.48323 0.59759 0.49663 0.0
H4844 H 0.48447 0.56979 0.50384 0.0
H4845 H 0.49078 0.62795 0.50884 0.0
H4846 H 0.51 0.59451 0.46488 0.0
H4847 H 0.52917 0.5787 0.45199 0.0
H4848 H 0.5663 0.62262 0.45811 0.0
H4849 H 0.54753 0.63848 0.4719 0.0
C4850 C 0.48367 0.68244 0.45528 0.0
C4851 C 0.49757 0.69332 0.45136 0.0
C4852 C 0.48512 0.6691 0.46448 0.0
C4853 C 0.50048 0.66663 0.4701 0.0
C4854 C 0.51425 0.6778 0.46661 0.0
C4855 C 0.51285 0.6908 0.45721 0.0
C4856 C 0.50268 0.65153 0.47808 0.0
C4857 C 0.51346 0.64185 0.4714 0.0
C4858 C 0.49439 0.6465 0.49178 0.0
C4859 C 0.48313 0.65636 0.49971 0.0
C4860 C 0.48834 0.67331 0.50539 0.0
C4861 C 0.47768 0.68246 0.51298 0.0
C4862 C 0.46178 0.67479 0.51503 0.0
C4863 C 0.45652 0.65793 0.50951 0.0
C4864 C 0.46714 0.64872 0.50192 0.0
C4865 C 0.52509 0.58513 0.50559 0.0
C4866 C 0.51081 0.5734 0.50617 0.0
C4867 C 0.52428 0.60142 0.50183 0.0
C4868 C 0.5092 0.60599 0.49813 0.0
C4869 C 0.495 0.59446 0.49945 0.0
C4870 C 0.49578 0.57844 0.5035 0.0
C4871 C 0.50789 0.62209 0.49154 0.0
C4872 C 0.49709 0.63181 0.4983 0.0
C4873 C 0.51619 0.62726 0.47788 0.0
C4874 C 0.52743 0.6176 0.46966 0.0
C4875 C 0.52231 0.60074 0.46366 0.0
C4876 C 0.53313 0.59177 0.45618 0.0
C4877 C 0.54897 0.59966 0.45414 0.0
C4878 C 0.55405 0.61651 0.45972 0.0
C4879 C 0.54336 0.62546 0.46749 0.0
H4880 H 0.55736 0.5928 0.44823 0.0
H4881 H 0.45355 0.6819 0.52091 0.0
H4882 H 0.60447 0.26929 0.65455 0.0
H4883 H 0.63084 0.26966 0.66848 0.0
H4884 H 0.61298 0.28795 0.71335 0.0
H4885 H 0.58671 0.28795 0.69936 0.0
H4886 H 0.64212 0.30436 0.71021 0.0
H4887 H 0.61747 0.24615 0.70467 0.0
H4888 H 0.60409 0.21942 0.6898 0.0
H4889 H 0.6454 0.21869 0.66127 0.0
H4890 H 0.65896 0.24555 0.67585 0.0
H4891 H 0.70104 0.28829 0.76639 0.0
H4892 H 0.67621 0.28822 0.75008 0.0
H4893 H 0.69784 0.26937 0.70765 0.0
H4894 H 0.72263 0.2686 0.72431 0.0
H4895 H 0.66782 0.25387 0.70792 0.0
H4896 H 0.69296 0.31209 0.71535 0.0
H4897 H 0.70582 0.3384 0.73135 0.0
H4898 H 0.66286 0.3387 0.75744 0.0
H4899 H 0.64981 0.31229 0.74174 0.0
C4900 C 0.60615 0.27328 0.66741 0.0
C4901 C 0.5935 0.27851 0.67589 0.0
C4902 C 0.62123 0.27348 0.67537 0.0
C4903 C 0.62387 0.27861 0.69204 0.0
C4904 C 0.61127 0.28395 0.70049 0.0
C4905 C 0.59626 0.28395 0.69249 0.0
C4906 C 0.63977 0.27853 0.7007 0.0
C4907 C 0.64766 0.29326 0.70983 0.0
C4908 C 0.64723 0.26419 0.69991 0.0
C4909 C 0.63917 0.24795 0.69125 0.0
C4910 C 0.62366 0.24035 0.69516 0.0
C4911 C 0.61605 0.22516 0.68679 0.0
C4912 C 0.62387 0.21739 0.67457 0.0
C4913 C 0.63935 0.22475 0.67073 0.0
C4914 C 0.64701 0.23994 0.67905 0.0
C4915 C 0.70055 0.28417 0.75357 0.0
C4916 C 0.71379 0.27852 0.74658 0.0
C4917 C 0.68635 0.28423 0.74421 0.0
C4918 C 0.68522 0.27919 0.72751 0.0
C4919 C 0.69843 0.27342 0.72049 0.0
C4920 C 0.71258 0.27301 0.72997 0.0
C4921 C 0.67011 0.27966 0.71757 0.0
C4922 C 0.66237 0.26501 0.70818 0.0
C4923 C 0.66271 0.29406 0.71821 0.0
C4924 C 0.67044 0.31015 0.72742 0.0
C4925 C 0.68628 0.31774 0.72454 0.0
C4926 C 0.6936 0.33267 0.73355 0.0
C4927 C 0.68517 0.3402 0.74541 0.0
C4928 C 0.66938 0.33285 0.74824 0.0
C4929 C 0.662 0.31792 0.73927 0.0
H4930 H 0.69088 0.35174 0.7524 0.0
H4931 H 0.61795 0.20564 0.6681 0.0
H4932 H 0.03867 0.35181 0.95632 0.0
H4933 H 0.03732 0.37958 0.97007 0.0
H4934 H 0.98555 0.37033 0.95978 0.0
H4935 H 0.98684 0.34305 0.94599 0.0
H4936 H 0.00091 0.40198 0.95292 0.0
H4937 H 0.00179 0.36451 -0.00135 0.0
H4938 H 0.01629 0.34692 0.0147 0.0
H4939 H 0.05785 0.38636 0.02158 0.0
H4940 H 0.04356 0.40414 0.00563 0.0
H4941 H 0.97102 0.46405 -0.00158 0.0
H4942 H 0.97362 0.43563 0.98799 0.0
H4943 H 0.01924 0.44112 0.01599 0.0
H4944 H 0.01552 0.46797 0.02797 0.0
H4945 H 0.01047 0.41234 0.01264 0.0
H4946 H 0.01278 0.45192 0.97284 0.0
H4947 H 0.00318 0.4722 0.95606 0.0
H4948 H 0.96409 0.43412 0.93507 0.0
H4949 H 0.97331 0.41368 0.9519 0.0
C4950 C 0.02707 0.35582 0.95702 0.0
C4951 C 0.01282 0.34528 0.95037 0.0
C4952 C 0.02631 0.37157 0.96486 0.0
C4953 C 0.01131 0.37685 0.96595 0.0
C4954 C 0.99721 0.36643 0.95904 0.0
C4955 C 0.99795 0.3508 0.95133 0.0
C4956 C 0.00976 0.39299 0.9746 0.0
C4957 C 0.00303 0.40442 0.96598 0.0
C4958 C 0.01319 0.39635 0.99145 0.0
C4959 C 0.02166 0.38557 0.00094 0.0
C4960 C 0.01403 0.36937 0.00357 0.0
C4961 C 0.0222 0.3594 0.01266 0.0
C4962 C 0.03799 0.36551 0.01914 0.0
C4963 C 0.04563 0.38164 0.01658 0.0
C4964 C 0.03749 0.39168 0.00756 0.0
C4965 C 0.98118 0.4588 0.00286 0.0
C4966 C 0.99337 0.46847 0.01353 0.0
C4967 C 0.98288 0.44271 0.99663 0.0
C4968 C 0.99714 0.43658 0.0004 0.0
C4969 C 0.00824 0.44551 0.01254 0.0
C4970 C 0.00614 0.46107 0.01935 0.0
C4971 C 0.00131 0.42166 0.99108 0.0
C4972 C 0.00854 0.41036 -0.00046 0.0
C4973 C -0.00079 0.419 0.9739 0.0
C4974 C 0.99364 0.43131 0.96378 0.0
C4975 C 0.00208 0.4479 0.96472 0.0
C4976 C 0.99671 0.45943 0.9552 0.0
C4977 C 0.98301 0.45447 0.94455 0.0
C4978 C 0.97468 0.43796 0.94336 0.0
C4979 C 0.97997 0.4264 0.95289 0.0
H4980 H 0.97887 0.46341 0.93719 0.0
H4981 H 0.04429 0.35777 0.02616 0.0
H4982 H 0.94528 0.76106 0.1971 0.0
H4983 H 0.91997 0.75985 0.21079 0.0
H4984 H 0.89768 0.77721 0.16919 0.0
H4985 H 0.92306 0.77873 0.15559 0.0
H4986 H 0.89236 0.79472 0.19537 0.0
H4987 H 0.8871 0.73643 0.17928 0.0
H4988 H 0.89571 0.70896 0.17624 0.0
H4989 H 0.89999 0.70884 0.22799 0.0
H4990 H 0.89163 0.73645 0.23135 0.0
H4991 H 0.81441 0.78667 0.22444 0.0
H4992 H 0.83774 0.78383 0.20896 0.0
H4993 H 0.8599 0.76423 0.2493 0.0
H4994 H 0.83583 0.7662 0.26466 0.0
H4995 H 0.86467 0.74698 0.22272 0.0
H4996 H 0.87104 0.8072 0.23764 0.0
H4997 H 0.86133 0.83416 0.23909 0.0
H4998 H 0.85389 0.82964 0.18723 0.0
H4999 H 0.86338 0.80258 0.18548 0.0
C5000 C 0.9349 0.76441 0.19082 0.0
C5001 C 0.93614 0.77012 0.17535 0.0
C5002 C 0.92043 0.76364 0.19861 0.0
C5003 C 0.90686 0.76831 0.19098 0.0
C5004 C 0.90799 0.7736 0.17534 0.0
C5005 C 0.9225 0.77453 0.16761 0.0
C5006 C 0.89195 0.769 0.19978 0.0
C5007 C 0.88619 0.78418 0.20115 0.0
C5008 C 0.88403 0.75535 0.20754 0.0
C5009 C 0.88887 0.73861 0.20557 0.0
C5010 C 0.88999 0.73062 0.19002 0.0
C5011 C 0.8948 0.715 0.18824 0.0
C5012 C 0.89843 0.70718 0.20191 0.0
C5013 C 0.89719 0.71493 0.2174 0.0
C5014 C 0.89239 0.73055 0.21926 0.0
C5015 C 0.82434 0.782 0.23016 0.0
C5016 C 0.82344 0.77693 0.24588 0.0
C5017 C 0.83775 0.7804 0.22126 0.0
C5018 C 0.85083 0.77416 0.22802 0.0
C5019 C 0.85 0.76915 0.24381 0.0
C5020 C 0.83636 0.77043 0.25265 0.0
C5021 C 0.86526 0.77281 0.21852 0.0
C5022 C 0.8709 0.7575 0.21696 0.0
C5023 C 0.87302 0.78629 0.21039 0.0
C5024 C 0.86786 0.80285 0.21145 0.0
C5025 C 0.86733 0.81197 0.22655 0.0
C5026 C 0.86184 0.82725 0.22742 0.0
C5027 C 0.85697 0.8336 0.21326 0.0
C5028 C 0.85766 0.82472 0.19819 0.0
C5029 C 0.86313 0.80943 0.19725 0.0
H5030 H 0.85268 0.8454 0.21397 0.0
H5031 H 0.90217 0.6951 0.20051 0.0
H5032 H 0.52179 0.37227 0.11118 0.0
H5033 H 0.52425 0.3976 0.09689 0.0
H5034 H 0.4966 0.3691 0.05545 0.0
H5035 H 0.49395 0.34376 0.06976 0.0
H5036 H 0.52562 0.39059 0.04796 0.0
H5037 H 0.47865 0.39164 0.07848 0.0
H5038 H 0.46284 0.39145 0.10277 0.0
H5039 H 0.49333 0.43694 0.12341 0.0
H5040 H 0.5097 0.43714 0.09946 0.0
H5041 H 0.50499 0.45794 0.0057 0.0
H5042 H 0.50558 0.43223 0.01881 0.0
H5043 H 0.52834 0.46152 0.06223 0.0
H5044 H 0.52783 0.48712 0.04936 0.0
H5045 H 0.50209 0.43952 0.06875 0.0
H5046 H 0.54962 0.43842 0.03951 0.0
H5047 H 0.56586 0.43931 0.01548 0.0
H5048 H 0.53478 0.39505 0.99289 0.0
H5049 H 0.5182 0.39402 0.01672 0.0
C5050 C 0.5163 0.37142 0.099 0.0
C5051 C 0.50767 0.35609 0.09155 0.0
C5052 C 0.51766 0.38588 0.0909 0.0
C5053 C 0.51057 0.38518 0.07515 0.0
C5054 C 0.50215 0.36985 0.0676 0.0
C5055 C 0.50057 0.35545 0.0758 0.0
C5056 C 0.51185 0.40049 0.06658 0.0
C5057 C 0.52032 0.40123 0.05238 0.0
C5058 C 0.50526 0.41449 0.07265 0.0
C5059 C 0.4956 0.41424 0.08724 0.0
C5060 C 0.48219 0.40146 0.0883 0.0
C5061 C 0.4731 0.40137 0.10201 0.0
C5062 C 0.47715 0.41412 0.11468 0.0
C5063 C 0.49028 0.42701 0.11363 0.0
C5064 C 0.49949 0.4271 0.1 0.0
C5065 C 0.51039 0.45889 0.01792 0.0
C5066 C 0.51624 0.47461 0.02648 0.0
C5067 C 0.51072 0.44419 0.02541 0.0
C5068 C 0.51694 0.44499 0.04153 0.0
C5069 C 0.52337 0.46062 0.04983 0.0
C5070 C 0.5231 0.47526 0.04239 0.0
C5071 C 0.51589 0.42967 0.05012 0.0
C5072 C 0.50744 0.42891 0.06435 0.0
C5073 C 0.52259 0.41573 0.04416 0.0
C5074 C 0.53256 0.41625 0.02983 0.0
C5075 C 0.54616 0.42895 0.02936 0.0
C5076 C 0.55545 0.42947 0.01579 0.0
C5077 C 0.55133 0.41727 0.00265 0.0
C5078 C 0.53794 0.4045 0.00307 0.0
C5079 C 0.5286 0.40394 0.01662 0.0
H5080 H 0.55853 0.41769 0.99215 0.0
H5081 H 0.47006 0.41406 0.12526 0.0
H5082 H 0.92378 0.24577 0.34886 0.0
H5083 H 0.89833 0.24969 0.33561 0.0
H5084 H 0.92308 0.26195 0.29257 0.0
H5085 H 0.9487 0.25865 0.30611 0.0
H5086 H 0.90671 0.28532 0.30227 0.0
H5087 H 0.89624 0.22571 0.29565 0.0
H5088 H 0.89496 0.19808 0.30578 0.0
H5089 H 0.855 0.20627 0.33399 0.0
H5090 H 0.85692 0.23459 0.32523 0.0
H5091 H 0.83262 0.29504 0.2618 0.0
H5092 H 0.85789 0.28563 0.26895 0.0
H5093 H 0.84046 0.27429 0.31556 0.0
H5094 H 0.81508 0.2835 0.30841 0.0
H5095 H 0.85301 0.24826 0.30006 0.0
H5096 H 0.86839 0.30788 0.31389 0.0
H5097 H 0.87015 0.33722 0.30787 0.0
H5098 H 0.89939 0.32842 0.26794 0.0
H5099 H 0.89766 0.29895 0.27365 0.0
C5100 C 0.92364 0.2488 0.3364 0.0
C5101 C 0.93806 0.25188 0.32843 0.0
C5102 C 0.90913 0.25106 0.32884 0.0
C5103 C 0.90881 0.25603 0.31306 0.0
C5104 C 0.92309 0.25814 0.30475 0.0
C5105 C 0.93765 0.25617 0.31242 0.0
C5106 C 0.89396 0.26068 0.30595 0.0
C5107 C 0.89504 0.27704 0.30145 0.0
C5108 C 0.87867 0.24999 0.30531 0.0
C5109 C 0.87685 0.23249 0.30986 0.0
C5110 C 0.88728 0.22177 0.30416 0.0
C5111 C 0.88649 0.20597 0.30973 0.0
C5112 C 0.87481 0.20035 0.32039 0.0
C5113 C 0.86403 0.21062 0.32569 0.0
C5114 C 0.86507 0.22664 0.32055 0.0
C5115 C 0.83436 0.29095 0.27373 0.0
C5116 C 0.82198 0.29005 0.2846 0.0
C5117 C 0.8487 0.28541 0.27772 0.0
C5118 C 0.8509 0.2791 0.29269 0.0
C5119 C 0.83885 0.27893 0.30386 0.0
C5120 C 0.8245 0.28444 0.29987 0.0
C5121 C 0.86589 0.27289 0.29686 0.0
C5122 C 0.86479 0.2563 0.30068 0.0
C5123 C 0.88117 0.28336 0.29719 0.0
C5124 C 0.88281 0.30121 0.29412 0.0
C5125 C 0.87518 0.31221 0.30381 0.0
C5126 C 0.87616 0.32885 0.30045 0.0
C5127 C 0.88485 0.33467 0.28751 0.0
C5128 C 0.89266 0.32388 0.27796 0.0
C5129 C 0.89171 0.30722 0.28127 0.0
H5130 H 0.88556 0.34755 0.2849 0.0
H5131 H 0.87415 0.18805 0.32457 0.0
H5132 H 0.98079 0.68221 0.60628 0.0
H5133 H 0.98141 0.6542 0.59306 0.0
H5134 H 0.01563 0.67581 0.5602 0.0
H5135 H 0.01515 0.70383 0.57343 0.0
H5136 H 0.9892 0.65193 0.54507 0.0
H5137 H 0.02975 0.65785 0.58886 0.0
H5138 H 0.04033 0.66369 0.61738 0.0
H5139 H 0.00542 0.62277 0.63047 0.0
H5140 H 0.99446 0.61683 0.60203 0.0
H5141 H 0.0158 0.58347 0.50787 0.0
H5142 H 0.01615 0.60946 0.52495 0.0
H5143 H 0.98701 0.58223 0.55878 0.0
H5144 H 0.98731 0.55583 0.54185 0.0
H5145 H 0.00906 0.60819 0.5744 0.0
H5146 H 0.96915 0.60168 0.52994 0.0
H5147 H 0.95917 0.596 0.50122 0.0
H5148 H 0.99303 0.63836 0.48931 0.0
H5149 H 0.00335 0.64419 0.51793 0.0
C5150 C 0.98836 0.68097 0.59616 0.0
C5151 C 0.99792 0.69517 0.59086 0.0
C5152 C 0.98878 0.66499 0.58872 0.0
C5153 C -0.00136 0.66296 0.57574 0.0
C5154 C 0.00798 0.67713 0.57023 0.0
C5155 C 0.00774 0.69309 0.57782 0.0
C5156 C -0.00088 0.64606 0.56777 0.0
C5157 C 0.99367 0.64241 0.55143 0.0
C5158 C 0.00457 0.63355 0.57624 0.0
C5159 C 0.01116 0.63702 0.59334 0.0
C5160 C 0.02422 0.65019 0.59784 0.0
C5161 C 0.03031 0.6535 0.61399 0.0
C5162 C 0.02352 0.64364 0.62574 0.0
C5163 C 0.01065 0.63042 0.62135 0.0
C5164 C 0.0045 0.62706 0.60522 0.0
C5165 C 0.0097 0.58299 0.5191 0.0
C5166 C 0.00142 0.56776 0.52354 0.0
C5167 C 0.00984 0.59785 0.52881 0.0
C5168 C 0.0012 0.59787 0.5429 0.0
C5169 C 0.99365 0.58251 0.54789 0.0
C5170 C 0.99383 0.56747 0.53827 0.0
C5171 C -0.00069 0.6141 0.5516 0.0
C5172 C 0.00444 0.61764 0.56808 0.0
C5173 C 0.99353 0.62657 0.54326 0.0
C5174 C 0.98709 0.62332 0.52608 0.0
C5175 C 0.97451 0.60975 0.52119 0.0
C5176 C 0.96879 0.6065 0.50493 0.0
C5177 C 0.97548 0.6168 0.49345 0.0
C5178 C 0.98786 0.6304 0.49822 0.0
C5179 C 0.99363 0.6337 0.51446 0.0
H5180 H 0.97105 0.61425 0.48086 0.0
H5181 H 0.02825 0.64622 0.63823 0.0
H5182 H 0.60497 0.78703 0.848 0.0
H5183 H 0.62879 0.7863 0.83232 0.0
H5184 H 0.60037 0.75001 0.79653 0.0
H5185 H 0.57643 0.75068 0.8122 0.0
H5186 H 0.62818 0.74032 0.80623 0.0
H5187 H 0.6133 0.79027 0.78778 0.0
H5188 H 0.60588 0.81832 0.7908 0.0
H5189 H 0.65108 0.83804 0.81757 0.0
H5190 H 0.65871 0.81008 0.8149 0.0
H5191 H 0.69806 0.74316 0.75861 0.0
H5192 H 0.67044 0.74304 0.76739 0.0
H5193 H 0.68896 0.7836 0.80419 0.0
H5194 H 0.71613 0.78423 0.79495 0.0
H5195 H 0.66371 0.79035 0.78956 0.0
H5196 H 0.67709 0.74158 0.81258 0.0
H5197 H 0.68564 0.71405 0.81149 0.0
H5198 H 0.64471 0.69283 0.77879 0.0
H5199 H 0.63599 0.72029 0.77959 0.0
C5200 C 0.60372 0.77914 0.83664 0.0
C5201 C 0.58887 0.76889 0.83134 0.0
C5202 C 0.61733 0.77873 0.82769 0.0
C5203 C 0.61629 0.76821 0.81319 0.0
C5204 C 0.6014 0.75821 0.80769 0.0
C5205 C 0.58778 0.75857 0.81667 0.0
C5206 C 0.63102 0.76689 0.80441 0.0
C5207 C 0.63581 0.7512 0.80228 0.0
C5208 C 0.64111 0.78116 0.79961 0.0
C5209 C 0.63653 0.79802 0.8012 0.0
C5210 C 0.62162 0.80056 0.7944 0.0
C5211 C 0.61738 0.81645 0.79604 0.0
C5212 C 0.62799 0.82995 0.80439 0.0
C5213 C 0.64287 0.82758 0.8111 0.0
C5214 C 0.64717 0.81171 0.80951 0.0
C5215 C 0.69612 0.75189 0.76864 0.0
C5216 C 0.70906 0.76375 0.77609 0.0
C5217 C 0.68041 0.75184 0.77366 0.0
C5218 C 0.67763 0.76334 0.78646 0.0
C5219 C 0.69075 0.77477 0.79417 0.0
C5220 C 0.70626 0.77506 0.78894 0.0
C5221 C 0.66115 0.76388 0.79188 0.0
C5222 C 0.65598 0.77942 0.7933 0.0
C5223 C 0.65088 0.74956 0.79634 0.0
C5224 C 0.65599 0.73301 0.79601 0.0
C5225 C 0.66997 0.73105 0.8051 0.0
C5226 C 0.67483 0.71547 0.80454 0.0
C5227 C 0.66576 0.70171 0.79504 0.0
C5228 C 0.65175 0.7035 0.78613 0.0
C5229 C 0.64682 0.71906 0.78664 0.0
H5230 H 0.66955 0.68966 0.7946 0.0
H5231 H 0.62469 0.84224 0.80563 0.0
H5232 H 0.4266 0.51656 0.66503 0.0
H5233 H 0.44154 0.51599 0.64056 0.0
H5234 H 0.46766 0.56576 0.65549 0.0
H5235 H 0.45322 0.56624 0.68048 0.0
H5236 H 0.45527 0.56133 0.62282 0.0
H5237 H 0.48782 0.53638 0.65796 0.0
H5238 H 0.49425 0.51741 0.67787 0.0
H5239 H 0.47583 0.47488 0.64373 0.0
H5240 H 0.46906 0.49361 0.62366 0.0
H5241 H 0.51374 0.55739 0.5626 0.0
H5242 H 0.50155 0.56003 0.5888 0.0
H5243 H 0.47101 0.51179 0.57689 0.0
H5244 H 0.48301 0.50918 0.55054 0.0
H5245 H 0.48743 0.51693 0.60899 0.0
H5246 H 0.45617 0.5444 0.57325 0.0
H5247 H 0.45394 0.56495 0.55368 0.0
H5248 H 0.4723 0.60513 0.5904 0.0
H5249 H 0.47561 0.58473 0.60999 0.0
C5250 C 0.43571 0.5273 0.66335 0.0
C5251 C 0.43872 0.54141 0.67488 0.0
C5252 C 0.44418 0.52698 0.64925 0.0
C5253 C 0.45575 0.54079 0.64625 0.0
C5254 C 0.45872 0.55498 0.65757 0.0
C5255 C 0.45039 0.55525 0.67181 0.0
C5256 C 0.46454 0.54031 0.63113 0.0
C5257 C 0.4625 0.55179 0.61988 0.0
C5258 C 0.47388 0.52779 0.6273 0.0
C5259 C 0.47776 0.51641 0.63935 0.0
C5260 C 0.48497 0.52298 0.65474 0.0
C5261 C 0.48872 0.51227 0.66605 0.0
C5262 C 0.48541 0.49495 0.66208 0.0
C5263 C 0.47836 0.4883 0.64679 0.0
C5264 C 0.47458 0.49896 0.63543 0.0
C5265 C 0.50436 0.54739 0.56555 0.0
C5266 C 0.49927 0.53311 0.55455 0.0
C5267 C 0.49746 0.5489 0.58051 0.0
C5268 C 0.48542 0.53609 0.58478 0.0
C5269 C 0.48034 0.52178 0.57383 0.0
C5270 C 0.48709 0.52036 0.55876 0.0
C5271 C 0.47793 0.53774 0.60056 0.0
C5272 C 0.48022 0.52648 0.61195 0.0
C5273 C 0.46908 0.55067 0.60462 0.0
C5274 C 0.46638 0.56298 0.59305 0.0
C5275 C 0.45993 0.5576 0.57714 0.0
C5276 C 0.4585 0.56924 0.56602 0.0
C5277 C 0.46294 0.58636 0.5708 0.0
C5278 C 0.46889 0.59186 0.58671 0.0
C5279 C 0.47065 0.58025 0.5978 0.0
H5280 H 0.46177 0.59537 0.56218 0.0
H5281 H 0.48833 0.48668 0.67084 0.0
H5282 H 0.77367 0.1756 0.92032 0.0
H5283 H 0.76777 0.18742 0.89499 0.0
H5284 H 0.75605 0.23082 0.92243 0.0
H5285 H 0.76172 0.21894 0.94769 0.0
H5286 H 0.73275 0.21681 0.89768 0.0
H5287 H 0.79237 0.2332 0.9049 0.0
H5288 H 0.81981 0.2265 0.90818 0.0
H5289 H 0.81102 0.19353 0.86412 0.0
H5290 H 0.78347 0.19989 0.86072 0.0
H5291 H 0.73373 0.2751 0.83849 0.0
H5292 H 0.73696 0.26018 0.86267 0.0
H5293 H 0.75643 0.2227 0.83343 0.0
H5294 H 0.75224 0.2368 0.80949 0.0
H5295 H 0.77444 0.23149 0.85834 0.0
H5296 H 0.71757 0.2121 0.84914 0.0
H5297 H 0.6892 0.21489 0.84312 0.0
H5298 H 0.69064 0.24766 0.88685 0.0
H5299 H 0.71907 0.24505 0.8931 0.0
C5300 C 0.77018 0.18781 0.92086 0.0
C5301 C 0.76823 0.1965 0.93579 0.0
C5302 C 0.76669 0.19446 0.90648 0.0
C5303 C 0.76147 0.20993 0.90698 0.0
C5304 C 0.75996 0.2188 0.9219 0.0
C5305 C 0.76332 0.21212 0.93624 0.0
C5306 C 0.7576 0.21703 0.89197 0.0
C5307 C 0.74186 0.22018 0.88911 0.0
C5308 C 0.76931 0.22066 0.88054 0.0
C5309 C 0.78589 0.21696 0.88261 0.0
C5310 C 0.79628 0.22447 0.89597 0.0
C5311 C 0.81185 0.22073 0.89784 0.0
C5312 C 0.81715 0.20958 0.88638 0.0
C5313 C 0.8069 0.20214 0.87301 0.0
C5314 C 0.79132 0.20581 0.8711 0.0
C5315 C 0.73821 0.26338 0.83736 0.0
C5316 C 0.74249 0.25676 0.82239 0.0
C5317 C 0.74001 0.25488 0.85102 0.0
C5318 C 0.74639 0.24 0.84967 0.0
C5319 C 0.75082 0.23369 0.83462 0.0
C5320 C 0.74856 0.24182 0.82101 0.0
C5321 C 0.74962 0.23153 0.86405 0.0
C5322 C 0.76524 0.22808 0.86681 0.0
C5323 C 0.7376 0.22703 0.875 0.0
C5324 C 0.72046 0.22848 0.87151 0.0
C5325 C 0.71185 0.21996 0.85742 0.0
C5326 C 0.69576 0.22147 0.85399 0.0
C5327 C 0.68813 0.23148 0.86458 0.0
C5328 C 0.69657 0.23991 0.87867 0.0
C5329 C 0.71265 0.23837 0.88219 0.0
H5330 H 0.67568 0.23268 0.86188 0.0
H5331 H 0.8292 0.20671 0.88785 0.0
H5332 H 0.05738 0.5212 0.18804 0.0
H5333 H 0.04378 0.52136 0.16119 0.0
H5334 H 0.08184 0.49995 0.13875 0.0
H5335 H 0.09523 0.49945 0.16558 0.0
H5336 H 0.07424 0.52961 0.12589 0.0
H5337 H 0.04866 0.4757 0.13982 0.0
H5338 H 0.03367 0.45621 0.15724 0.0
H5339 H 0.99326 0.48187 0.15455 0.0
H5340 H 0.00813 0.50175 0.13737 0.0
H5341 H 0.03607 0.51825 0.04614 0.0
H5342 H 0.05069 0.51485 0.07152 0.0
H5343 H 0.00875 0.52188 0.09782 0.0
H5344 H 0.99389 0.52415 0.07239 0.0
H5345 H 0.01956 0.49763 0.1083 0.0
H5346 H 0.04486 0.55284 0.0968 0.0
H5347 H 0.05985 0.57415 0.08112 0.0
H5348 H 0.10027 0.54834 0.08079 0.0
H5349 H 0.08542 0.52672 0.09624 0.0
C5350 C 0.06268 0.51643 0.17732 0.0
C5351 C 0.07721 0.51028 0.17863 0.0
C5352 C 0.05496 0.51648 0.1621 0.0
C5353 C 0.06185 0.5106 0.14812 0.0
C5354 C 0.07639 0.50447 0.14947 0.0
C5355 C 0.08395 0.50414 0.16469 0.0
C5356 C 0.0542 0.51147 0.13202 0.0
C5357 C 0.06237 0.52248 0.12185 0.0
C5358 C 0.03861 0.50239 0.12716 0.0
C5359 C 0.0296 0.49034 0.13742 0.0
C5360 C 0.03665 0.47731 0.14307 0.0
C5361 C 0.02816 0.46616 0.15289 0.0
C5362 C 0.01254 0.46782 0.15704 0.0
C5363 C 0.00537 0.48061 0.15135 0.0
C5364 C 0.01382 0.49182 0.14156 0.0
C5365 C 0.0301 0.51914 0.0574 0.0
C5366 C 0.01395 0.52146 0.05746 0.0
C5367 C 0.03844 0.51728 0.07188 0.0
C5368 C 0.03088 0.51831 0.08663 0.0
C5369 C 0.01481 0.52095 0.08661 0.0
C5370 C 0.00635 0.52232 0.07212 0.0
C5371 C 0.0394 0.51616 0.10211 0.0
C5372 C 0.03144 0.5048 0.1122 0.0
C5373 C 0.05511 0.52516 0.10703 0.0
C5374 C 0.06393 0.53803 0.0975 0.0
C5375 C 0.05687 0.55161 0.09323 0.0
C5376 C 0.06536 0.56376 0.08441 0.0
C5377 C 0.08098 0.56257 0.07992 0.0
C5378 C 0.08816 0.54923 0.08424 0.0
C5379 C 0.07971 0.53702 0.09302 0.0
H5380 H 0.08755 0.57201 0.07312 0.0
H5381 H 0.00598 0.45917 0.16463 0.0
H5382 H 0.70993 0.81885 0.43396 0.0
H5383 H 0.71317 0.80712 0.40615 0.0
H5384 H 0.76463 0.81257 0.41694 0.0
H5385 H 0.76155 0.82431 0.44439 0.0
H5386 H 0.75617 0.82612 0.38841 0.0
H5387 H 0.74019 0.77462 0.4158 0.0
H5388 H 0.72086 0.7552 0.42979 0.0
H5389 H 0.68526 0.75196 0.39031 0.0
H5390 H 0.70431 0.77148 0.37617 0.0
H5391 H 0.78408 0.78483 0.31991 0.0
H5392 H 0.77921 0.79323 0.34816 0.0
H5393 H 0.72833 0.77276 0.33867 0.0
H5394 H 0.73322 0.76334 0.31135 0.0
H5395 H 0.73475 0.76754 0.36628 0.0
H5396 H 0.74609 0.81605 0.33795 0.0
H5397 H 0.76138 0.8366 0.3217 0.0
H5398 H 0.79949 0.84859 0.35934 0.0
H5399 H 0.78458 0.82787 0.3757 0.0
C5400 C 0.72188 0.81741 0.43036 0.0
C5401 C 0.73547 0.82231 0.44136 0.0
C5402 C 0.7237 0.8107 0.41455 0.0
C5403 C 0.73915 0.80898 0.40959 0.0
C5404 C 0.75263 0.81378 0.42059 0.0
C5405 C 0.75081 0.82032 0.43631 0.0
C5406 C 0.74168 0.80264 0.39286 0.0
C5407 C 0.75159 0.81328 0.38353 0.0
C5408 C 0.73505 0.78617 0.38631 0.0
C5409 C 0.72361 0.77465 0.39502 0.0
C5410 C 0.72819 0.76989 0.41019 0.0
C5411 C 0.71729 0.75883 0.41812 0.0
C5412 C 0.70183 0.75238 0.41097 0.0
C5413 C 0.69722 0.75697 0.39586 0.0
C5414 C 0.70806 0.76802 0.38788 0.0
C5415 C 0.77197 0.78178 0.32404 0.0
C5416 C 0.75905 0.77361 0.31331 0.0
C5417 C 0.76914 0.78677 0.3401 0.0
C5418 C 0.75329 0.78406 0.34545 0.0
C5419 C 0.74064 0.77508 0.33493 0.0
C5420 C 0.74351 0.76974 0.31917 0.0
C5421 C 0.74953 0.79093 0.36172 0.0
C5422 C 0.73934 0.78043 0.37098 0.0
C5423 C 0.75524 0.80781 0.36785 0.0
C5424 C 0.7643 0.82024 0.35798 0.0
C5425 C 0.7578 0.82295 0.34271 0.0
C5426 C 0.76639 0.83464 0.33348 0.0
C5427 C 0.78142 0.84385 0.33946 0.0
C5428 C 0.78787 0.84141 0.3547 0.0
C5429 C 0.77936 0.82969 0.36396 0.0
H5430 H 0.78804 0.85292 0.33231 0.0
H5431 H 0.69343 0.7438 0.41712 0.0
H5432 H 0.4279 0.56278 0.84243 0.0
H5433 H 0.44127 0.55825 0.86822 0.0
H5434 H 0.47387 0.53183 0.84211 0.0
H5435 H 0.46037 0.53602 0.81636 0.0
H5436 H 0.44545 0.51755 0.87035 0.0
H5437 H 0.50845 0.55436 0.86962 0.0
H5438 H 0.52265 0.58114 0.86122 0.0
H5439 H 0.48219 0.60453 0.87351 0.0
H5440 H 0.46779 0.57789 0.88189 0.0
H5441 H 0.4943 0.48985 0.93327 0.0
H5442 H 0.48822 0.49901 0.90637 0.0
H5443 H 0.47347 0.54286 0.9296 0.0
H5444 H 0.47862 0.53363 0.95599 0.0
H5445 H 0.4945 0.54879 0.90226 0.0
H5446 H 0.44492 0.5164 0.91901 0.0
H5447 H 0.42934 0.49114 0.92888 0.0
H5448 H 0.43977 0.46133 0.88666 0.0
H5449 H 0.45567 0.48643 0.87669 0.0
C5450 C 0.43824 0.55647 0.84224 0.0
C5451 C 0.44312 0.54966 0.82752 0.0
C5452 C 0.4458 0.55385 0.85691 0.0
C5453 C 0.4585 0.54471 0.85694 0.0
C5454 C 0.46412 0.53896 0.84223 0.0
C5455 C 0.45643 0.54135 0.8276 0.0
C5456 C 0.46447 0.53922 0.87214 0.0
C5457 C 0.45623 0.5243 0.87728 0.0
C5458 C 0.4784 0.54814 0.88114 0.0
C5459 C 0.48705 0.56417 0.87628 0.0
C5460 C 0.50263 0.56524 0.87054 0.0
C5461 C 0.51069 0.58037 0.86575 0.0
C5462 C 0.50332 0.59452 0.86681 0.0
C5463 C 0.48786 0.59356 0.87263 0.0
C5464 C 0.47972 0.57843 0.87732 0.0
C5465 C 0.48958 0.50133 0.9325 0.0
C5466 C 0.48653 0.51082 0.94661 0.0
C5467 C 0.48633 0.50664 0.91725 0.0
C5468 C 0.48059 0.52175 0.91612 0.0
C5469 C 0.47803 0.53133 0.93025 0.0
C5470 C 0.48072 0.52583 0.94531 0.0
C5471 C 0.47556 0.52699 0.9004 0.0
C5472 C 0.48391 0.54186 0.89516 0.0
C5473 C 0.46147 0.51824 0.89148 0.0
C5474 C 0.45162 0.50322 0.89721 0.0
C5475 C 0.44399 0.50443 0.9119 0.0
C5476 C 0.4351 0.49016 0.91751 0.0
C5477 C 0.43361 0.47463 0.90843 0.0
C5478 C 0.44097 0.47337 0.8937 0.0
C5479 C 0.44992 0.48761 0.88806 0.0
H5480 H 0.42673 0.46359 0.91279 0.0
H5481 H 0.50959 0.60622 0.86313 0.0
H5482 H 0.73875 0.18272 0.09565 0.0
H5483 H 0.73789 0.19856 0.1219 0.0
H5484 H 0.78215 0.23129 0.11339 0.0
H5485 H 0.78272 0.21617 0.08673 0.0
H5486 H 0.78195 0.21569 0.14353 0.0
H5487 H 0.75118 0.24773 0.11254 0.0
H5488 H 0.72924 0.25219 0.09357 0.0
H5489 H 0.69378 0.23052 0.1249 0.0
H5490 H 0.71552 0.22573 0.14398 0.0
H5491 H 0.7825 0.28229 0.20756 0.0
H5492 H 0.7807 0.26797 0.18007 0.0
H5493 H 0.74343 0.22923 0.19371 0.0
H5494 H 0.74583 0.24292 0.22147 0.0
H5495 H 0.73952 0.24765 0.16111 0.0
H5496 H 0.76999 0.21448 0.19151 0.0
H5497 H 0.79175 0.20903 0.21013 0.0
H5498 H 0.8275 0.23155 0.1795 0.0
H5499 H 0.80592 0.23749 0.16089 0.0
C5500 C 0.74812 0.19352 0.09912 0.0
C5501 C 0.7609 0.19802 0.08903 0.0
C5502 C 0.74763 0.2025 0.1142 0.0
C5503 C 0.75998 0.21603 0.11956 0.0
C5504 C 0.77256 0.2208 0.10947 0.0
C5505 C 0.77293 0.21202 0.09429 0.0
C5506 C 0.76032 0.22454 0.13612 0.0
C5507 C 0.77279 0.22286 0.14733 0.0
C5508 C 0.7481 0.23348 0.14112 0.0
C5509 C 0.73499 0.23619 0.1296 0.0
C5510 C 0.7387 0.24374 0.1153 0.0
C5511 C 0.72631 0.24638 0.10455 0.0
C5512 C 0.71013 0.24159 0.108 0.0
C5513 C 0.70632 0.2342 0.12223 0.0
C5514 C 0.71868 0.23153 0.13302 0.0
C5515 C 0.77384 0.27078 0.20467 0.0
C5516 C 0.76415 0.26383 0.2166 0.0
C5517 C 0.77287 0.26261 0.18901 0.0
C5518 C 0.76194 0.24758 0.18494 0.0
C5519 C 0.75191 0.24085 0.19666 0.0
C5520 C 0.75321 0.24875 0.21246 0.0
C5521 C 0.7612 0.23883 0.16846 0.0
C5522 C 0.74866 0.24047 0.15729 0.0
C5523 C 0.77331 0.22974 0.1635 0.0
C5524 C 0.78633 0.22677 0.17499 0.0
C5525 C 0.78249 0.2186 0.18892 0.0
C5526 C 0.79479 0.21533 0.19943 0.0
C5527 C 0.811 0.22002 0.19605 0.0
C5528 C 0.81494 0.22799 0.18215 0.0
C5529 C 0.80267 0.23134 0.17163 0.0
H5530 H 0.82051 0.21742 0.20415 0.0
H5531 H 0.70055 0.24366 0.09967 0.0
H5532 H 0.09833 0.50137 0.34501 0.0
H5533 H 0.09016 0.50814 0.37243 0.0
H5534 H 0.04771 0.52407 0.35239 0.0
H5535 H 0.05549 0.51691 0.32501 0.0
H5536 H 0.06629 0.54716 0.37767 0.0
H5537 H 0.0432 0.48788 0.36398 0.0
H5538 H 0.04399 0.45803 0.35678 0.0
H5539 H 0.07501 0.45768 0.39928 0.0
H5540 H 0.07466 0.48766 0.40655 0.0
H5541 H 0.00234 0.5423 0.42974 0.0
H5542 H 0.0225 0.54338 0.40909 0.0
H5543 H 0.05101 0.51655 0.43852 0.0
H5544 H 0.03056 0.5145 0.45818 0.0
H5545 H 0.04668 0.50172 0.41173 0.0
H5546 H 0.06773 0.56002 0.42777 0.0
H5547 H 0.06634 0.58956 0.43598 0.0
H5548 H 0.0397 0.59228 0.39119 0.0
H5549 H 0.04089 0.5627 0.38281 0.0
C5550 C 0.08707 0.50594 0.3465 0.0
C5551 C 0.07746 0.5086 0.33301 0.0
C5552 C 0.08261 0.51004 0.36207 0.0
C5553 C 0.06857 0.51685 0.3642 0.0
C5554 C 0.05877 0.51912 0.3508 0.0
C5555 C 0.06312 0.51489 0.33527 0.0
C5556 C 0.06339 0.52074 0.38038 0.0
C5557 C 0.06209 0.53735 0.38531 0.0
C5558 C 0.05849 0.50792 0.39035 0.0
C5559 C 0.0592 0.49009 0.3856 0.0
C5560 C 0.05043 0.48152 0.37163 0.0
C5561 C 0.05075 0.46457 0.36757 0.0
C5562 C 0.05964 0.456 0.37751 0.0
C5563 C 0.06822 0.46437 0.39153 0.0
C5564 C 0.068 0.48134 0.39561 0.0
C5565 C 0.01287 0.53648 0.43145 0.0
C5566 C 0.01475 0.52762 0.44487 0.0
C5567 C 0.02459 0.53754 0.42003 0.0
C5568 C 0.03848 0.53037 0.42246 0.0
C5569 C 0.04054 0.52232 0.43644 0.0
C5570 C 0.02868 0.52077 0.44743 0.0
C5571 C 0.04915 0.52824 0.40921 0.0
C5572 C 0.05148 0.51186 0.40468 0.0
C5573 C 0.05512 0.54133 0.39981 0.0
C5574 C 0.05424 0.55909 0.40479 0.0
C5575 C 0.06141 0.56686 0.41979 0.0
C5576 C 0.06073 0.58364 0.42443 0.0
C5577 C 0.05288 0.59278 0.41413 0.0
C5578 C 0.04577 0.58518 0.39915 0.0
C5579 C 0.0465 0.56843 0.39444 0.0
H5580 H 0.05235 0.60576 0.41774 0.0
H5581 H 0.05981 0.44285 0.37438 0.0
H5582 H 0.72574 0.81091 0.58635 0.0
H5583 H 0.72496 0.79697 0.61139 0.0
H5584 H 0.76117 0.83729 0.63448 0.0
H5585 H 0.76197 0.85125 0.60965 0.0
H5586 H 0.7681 0.80761 0.64065 0.0
H5587 H 0.72048 0.83377 0.64087 0.0
H5588 H 0.69405 0.83885 0.6303 0.0
H5589 H 0.67362 0.78696 0.63179 0.0
H5590 H 0.70002 0.7815 0.6421 0.0
H5591 H 0.76405 0.79903 0.72403 0.0
H5592 H 0.76237 0.80935 0.6973 0.0
H5593 H 0.72506 0.76697 0.68096 0.0
H5594 H 0.72645 0.75681 0.7078 0.0
H5595 H 0.71791 0.79441 0.66982 0.0
H5596 H 0.76448 0.7683 0.67128 0.0
H5597 H 0.79068 0.76266 0.68189 0.0
H5598 H 0.81301 0.8133 0.67676 0.0
H5599 H 0.78688 0.81937 0.66644 0.0
C5600 C 0.73346 0.81684 0.59681 0.0
C5601 C 0.74394 0.8322 0.59599 0.0
C5602 C 0.73302 0.80885 0.6111 0.0
C5603 C 0.74294 0.81614 0.62487 0.0
C5604 C 0.75346 0.83138 0.624 0.0
C5605 C 0.75395 0.83932 0.60976 0.0
C5606 C 0.74255 0.80807 0.64026 0.0
C5607 C 0.75716 0.80486 0.64711 0.0
C5608 C 0.72814 0.8039 0.6484 0.0
C5609 C 0.7123 0.80718 0.64205 0.0
C5610 C 0.71041 0.8234 0.63878 0.0
C5611 C 0.69542 0.82635 0.63286 0.0
C5612 C 0.68218 0.81322 0.63032 0.0
C5613 C 0.6839 0.79711 0.63372 0.0
C5614 C 0.69887 0.79408 0.63959 0.0
C5615 C 0.75539 0.79201 0.71477 0.0
C5616 C 0.74546 0.77706 0.71794 0.0
C5617 C 0.75452 0.79784 0.69947 0.0
C5618 C 0.74383 0.78875 0.68699 0.0
C5619 C 0.73347 0.77414 0.69034 0.0
C5620 C 0.73428 0.76835 0.70568 0.0
C5621 C 0.74358 0.79443 0.67044 0.0
C5622 C 0.72885 0.79706 0.66333 0.0
C5623 C 0.75787 0.79797 0.66199 0.0
C5624 C 0.77364 0.79434 0.66823 0.0
C5625 C 0.77493 0.77829 0.67256 0.0
C5626 C 0.78978 0.77501 0.67851 0.0
C5627 C 0.80349 0.78763 0.68004 0.0
C5628 C 0.80238 0.80355 0.6756 0.0
C5629 C 0.78754 0.80692 0.6697 0.0
H5630 H 0.81498 0.78506 0.68463 0.0
H5631 H 0.67058 0.81554 0.62577 0.0
H5632 H 0.68821 0.46457 0.50434 0.0
H5633 H 0.66611 0.4803 0.50704 0.0
H5634 H 0.6487 0.45194 0.54621 0.0
H5635 H 0.6702 0.43554 0.543 0.0
H5636 H 0.62509 0.4522 0.52517 0.0
H5637 H 0.66596 0.49393 0.55295 0.0
H5638 H 0.6923 0.51292 0.55782 0.0
H5639 H 0.68216 0.53774 0.516 0.0
H5640 H 0.65583 0.51875 0.51073 0.0
H5641 H 0.56517 0.50129 0.54356 0.0
H5642 H 0.58966 0.48913 0.54579 0.0
H5643 H 0.60554 0.50968 0.50186 0.0
H5644 H 0.58082 0.52183 0.49945 0.0
H5645 H 0.63 0.51392 0.52745 0.0
H5646 H 0.5895 0.46956 0.49937 0.0
H5647 H 0.56358 0.4497 0.49535 0.0
H5648 H 0.57341 0.4299 0.54028 0.0
H5649 H 0.59938 0.44963 0.54456 0.0
C5650 C 0.67964 0.46164 0.51349 0.0
C5651 C 0.68088 0.4487 0.52335 0.0
C5652 C 0.66717 0.47083 0.5152 0.0
C5653 C 0.65585 0.4674 0.52693 0.0
C5654 C 0.65734 0.45483 0.53711 0.0
C5655 C 0.66971 0.44554 0.53532 0.0
C5656 C 0.64161 0.47581 0.52755 0.0
C5657 C 0.62619 0.46572 0.52601 0.0
C5658 C 0.64306 0.49343 0.52833 0.0
C5659 C 0.65897 0.50479 0.53136 0.0
C5660 C 0.6694 0.50333 0.54469 0.0
C5661 C 0.68432 0.51412 0.54755 0.0
C5662 C 0.68892 0.5265 0.5372 0.0
C5663 C 0.67859 0.52813 0.52399 0.0
C5664 C 0.66366 0.51737 0.52108 0.0
C5665 C 0.57395 0.50338 0.53445 0.0
C5666 C 0.57116 0.5125 0.52132 0.0
C5667 C 0.58787 0.49634 0.53571 0.0
C5668 C 0.59926 0.49837 0.5239 0.0
C5669 C 0.59681 0.50797 0.51106 0.0
C5670 C 0.58276 0.51491 0.50971 0.0
C5671 C 0.61362 0.49027 0.52489 0.0
C5672 C 0.62901 0.50042 0.52676 0.0
C5673 C 0.61217 0.4727 0.52467 0.0
C5674 C 0.59629 0.46121 0.52237 0.0
C5675 C 0.58605 0.46109 0.50847 0.0
C5676 C 0.57139 0.44979 0.50611 0.0
C5677 C 0.56686 0.43853 0.51754 0.0
C5678 C 0.57695 0.43858 0.5314 0.0
C5679 C 0.59165 0.4498 0.5338 0.0
H5680 H 0.55556 0.42974 0.51561 0.0
H5681 H 0.70047 0.53485 0.53944 0.0
H5682 H 0.17243 0.13088 0.50425 0.0
H5683 H 0.14484 0.11517 0.50518 0.0
H5684 H 0.16409 0.06999 0.51028 0.0
H5685 H 0.19164 0.08566 0.5086 0.0
H5686 H 0.13896 0.06304 0.48996 0.0
H5687 H 0.14869 0.09334 0.54319 0.0
H5688 H 0.15642 0.11874 0.56234 0.0
H5689 H 0.11751 0.1397 0.54189 0.0
H5690 H 0.10964 0.11449 0.52252 0.0
H5691 H 0.06438 0.01412 0.50677 0.0
H5692 H 0.09241 0.0292 0.50902 0.0
H5693 H 0.07518 0.0761 0.50851 0.0
H5694 H 0.04725 0.06107 0.50759 0.0
H5695 H 0.09984 0.08189 0.52731 0.0
H5696 H 0.09079 0.05289 0.47331 0.0
H5697 H 0.0834 0.02829 0.45311 0.0
H5698 H 0.1211 0.00578 0.47383 0.0
H5699 H 0.12862 0.03019 0.49423 0.0
C5700 C 0.1707 0.11759 0.50559 0.0
C5701 C 0.18408 0.10944 0.50638 0.0
C5702 C 0.15494 0.10862 0.50624 0.0
C5703 C 0.15226 0.09137 0.50811 0.0
C5704 C 0.16574 0.08325 0.50887 0.0
C5705 C 0.18147 0.09219 0.50794 0.0
C5706 C 0.13546 0.08169 0.50887 0.0
C5707 C 0.1305 0.06705 0.49831 0.0
C5708 C 0.12415 0.08706 0.51944 0.0
C5709 C 0.12864 0.10206 0.53134 0.0
C5710 C 0.14182 0.10339 0.54275 0.0
C5711 C 0.14622 0.11775 0.55364 0.0
C5712 C 0.13748 0.13084 0.55331 0.0
C5713 C 0.12427 0.12955 0.54213 0.0
C5714 C 0.11981 0.11521 0.53122 0.0
C5715 C 0.06664 0.02766 0.50729 0.0
C5716 C 0.05365 0.0364 0.50694 0.0
C5717 C 0.08269 0.03632 0.50839 0.0
C5718 C 0.08614 0.05389 0.50844 0.0
C5719 C 0.07305 0.0626 0.50845 0.0
C5720 C 0.05703 0.05398 0.50789 0.0
C5721 C 0.10324 0.06321 0.50829 0.0
C5722 C 0.10828 0.07781 0.51897 0.0
C5723 C 0.1146 0.0579 0.49772 0.0
C5724 C 0.11016 0.04329 0.48538 0.0
C5725 C 0.09745 0.04266 0.47359 0.0
C5726 C 0.09325 0.02876 0.46211 0.0
C5727 C 0.10175 0.01547 0.46222 0.0
C5728 C 0.11451 0.01608 0.47377 0.0
C5729 C 0.11876 0.02995 0.48528 0.0
H5730 H 0.09847 0.00471 0.45332 0.0
H5731 H 0.14093 0.14196 0.56173 0.0
H5732 H 0.158 0.91272 0.78071 0.0
H5733 H 0.1717 0.88854 0.77764 0.0
H5734 H 0.20724 0.91592 0.74938 0.0
H5735 H 0.19326 0.93991 0.75203 0.0
H5736 H 0.19845 0.88519 0.73574 0.0
H5737 H 0.21469 0.90982 0.7904 0.0
H5738 H 0.21057 0.92031 0.81843 0.0
H5739 H 0.1847 0.87184 0.82672 0.0
H5740 H 0.18843 0.86112 0.79865 0.0
H5741 H 0.2596 0.83226 0.75119 0.0
H5742 H 0.24588 0.85665 0.75088 0.0
H5743 H 0.20112 0.82593 0.76134 0.0
H5744 H 0.21438 0.80164 0.76121 0.0
H5745 H 0.21527 0.85832 0.7835 0.0
H5746 H 0.19745 0.83396 0.72937 0.0
H5747 H 0.20077 0.8227 0.7014 0.0
H5748 H 0.22889 0.86985 0.69233 0.0
H5749 H 0.22599 0.88131 0.72038 0.0
C5750 C 0.16881 0.91359 0.77396 0.0
C5751 C 0.17464 0.92819 0.76668 0.0
C5752 C 0.17664 0.89978 0.77222 0.0
C5753 C 0.19066 0.90047 0.76347 0.0
C5754 C 0.19645 0.91507 0.75617 0.0
C5755 C 0.18849 0.92877 0.75771 0.0
C5756 C 0.19926 0.88598 0.76184 0.0
C5757 C 0.20234 0.8795 0.74622 0.0
C5758 C 0.20401 0.87824 0.77547 0.0
C5759 C 0.20171 0.88472 0.79235 0.0
C5760 C 0.208 0.90144 0.79815 0.0
C5761 C 0.20575 0.90742 0.81406 0.0
C5762 C 0.19734 0.89676 0.82434 0.0
C5763 C 0.19119 0.88009 0.81874 0.0
C5764 C 0.19337 0.87406 0.80283 0.0
C5765 C 0.24681 0.83073 0.75325 0.0
C5766 C 0.2381 0.81506 0.75622 0.0
C5767 C 0.239 0.84459 0.753 0.0
C5768 C 0.22251 0.84298 0.75604 0.0
C5769 C 0.21382 0.82736 0.75889 0.0
C5770 C 0.22146 0.8135 0.75877 0.0
C5771 C 0.21448 0.85774 0.75751 0.0
C5772 C 0.21149 0.86419 0.77309 0.0
C5773 C 0.20974 0.86535 0.74387 0.0
C5774 C 0.21177 0.8584 0.72709 0.0
C5775 C 0.20458 0.84185 0.72151 0.0
C5776 C 0.20632 0.83545 0.70561 0.0
C5777 C 0.21511 0.84553 0.69512 0.0
C5778 C 0.22214 0.86204 0.70049 0.0
C5779 C 0.22046 0.86849 0.7164 0.0
H5780 H 0.21641 0.84056 0.6828 0.0
H5781 H 0.19563 0.90142 0.83665 0.0
H5782 H 0.32643 0.97389 0.05109 0.0
H5783 H 0.3553 0.98697 0.05237 0.0
H5784 H 0.36474 0.94655 0.01888 0.0
H5785 H 0.33626 0.93357 0.01785 0.0
H5786 H 0.38879 0.95547 0.04149 0.0
H5787 H 0.35595 0.98214 0.00559 0.0
H5788 H 0.33511 -0.00157 -0.002 0.0
H5789 H 0.35783 0.03961 0.0319 0.0
H5790 H 0.3787 0.02345 0.03985 0.0
H5791 H 0.45327 0.98458 0.99463 0.0
H5792 H 0.42496 0.97559 0.001 0.0
H5793 H 0.42954 0.01736 0.0378 0.0
H5794 H 0.45758 0.02633 0.03152 0.0
H5795 H 0.39982 0.01037 0.01877 0.0
H5796 H 0.43659 0.98352 0.0489 0.0
H5797 H 0.45825 0.96694 0.05155 0.0
H5798 H 0.42844 0.92493 0.02368 0.0
H5799 H 0.40657 0.94131 0.02078 0.0
C5800 C 0.33487 0.9678 0.04432 0.0
C5801 C 0.32947 0.95295 0.03429 0.0
C5802 C 0.3512 0.97519 0.04504 0.0
C5803 C 0.36199 0.9677 0.03564 0.0
C5804 C 0.35658 0.95241 0.02629 0.0
C5805 C 0.34039 0.94509 0.0256 0.0
C5806 C 0.37856 0.97631 0.03398 0.0
C5807 C 0.39125 0.96751 0.0366 0.0
C5808 C 0.38166 0.99208 0.02774 0.0
C5809 C 0.36868 0.00147 0.02355 0.0
C5810 C 0.35635 0.99456 0.01161 0.0
C5811 C 0.34457 0.0038 0.00719 0.0
C5812 C 0.3451 0.02002 0.01452 0.0
C5813 C 0.3574 0.02702 0.02629 0.0
C5814 C 0.36918 0.01782 0.03078 0.0
C5815 C 0.44801 0.99197 0.00376 0.0
C5816 C 0.45739 0.00591 0.01278 0.0
C5817 C 0.43201 0.98686 0.00742 0.0
C5818 C 0.4255 0.99579 0.01998 0.0
C5819 C 0.43453 0.01039 0.02812 0.0
C5820 C 0.45047 0.01538 0.0246 0.0
C5821 C 0.40974 0.98921 0.02567 0.0
C5822 C 0.39737 -0.0015 0.02399 0.0
C5823 C 0.40689 0.97373 0.03239 0.0
C5824 C 0.4199 0.96369 0.0346 0.0
C5825 C 0.43462 0.97076 0.04331 0.0
C5826 C 0.44695 0.96139 0.04487 0.0
C5827 C 0.44473 0.94489 0.03778 0.0
C5828 C 0.43013 0.93771 0.02919 0.0
C5829 C 0.41774 0.94702 0.02764 0.0
H5830 H 0.45431 0.93767 0.03894 0.0
H5831 H 0.33601 0.02718 0.01103 0.0
H5832 H 0.85908 0.61674 0.74335 0.0
H5833 H 0.84305 0.63851 0.73929 0.0
H5834 H 0.80537 0.61333 0.76671 0.0
H5835 H 0.82123 0.59127 0.77056 0.0
H5836 H 0.794 0.62522 0.73795 0.0
H5837 H 0.83091 0.64416 0.78498 0.0
H5838 H 0.85789 0.65063 0.7994 0.0
H5839 H 0.87363 0.68745 0.76683 0.0
H5840 H 0.84683 0.68096 0.75199 0.0
H5841 H 0.7562 0.69423 0.76731 0.0
H5842 H 0.77053 0.67031 0.76559 0.0
H5843 H 0.80173 0.69381 0.73113 0.0
H5844 H 0.78718 0.71731 0.73231 0.0
H5845 H 0.81676 0.68312 0.76165 0.0
H5846 H 0.78139 0.66483 0.71446 0.0
H5847 H 0.75509 0.65872 0.69874 0.0
H5848 H 0.73726 0.62157 0.73028 0.0
H5849 H 0.76342 0.62766 0.74637 0.0
C5850 C 0.8473 0.61577 0.74836 0.0
C5851 C 0.84138 0.60246 0.75736 0.0
C5852 C 0.83822 0.62819 0.74607 0.0
C5853 C 0.82316 0.62747 0.75281 0.0
C5854 C 0.81701 0.614 0.76145 0.0
C5855 C 0.82612 0.60157 0.76379 0.0
C5856 C 0.81418 0.64126 0.75154 0.0
C5857 C 0.79886 0.63785 0.74327 0.0
C5858 C 0.82087 0.65775 0.75811 0.0
C5859 C 0.83691 0.66191 0.76724 0.0
C5860 C 0.84017 0.65353 0.78079 0.0
C5861 C 0.85542 0.65721 0.78905 0.0
C5862 C 0.86749 0.66939 0.78399 0.0
C5863 C 0.86429 0.67797 0.7707 0.0
C5864 C 0.84907 0.6743 0.76236 0.0
C5865 C 0.7659 0.69406 0.75916 0.0
C5866 C 0.77057 0.70742 0.74987 0.0
C5867 C 0.77405 0.68051 0.75821 0.0
C5868 C 0.78709 0.68048 0.74823 0.0
C5869 C 0.79163 0.69371 0.73882 0.0
C5870 C 0.78326 0.70702 0.73946 0.0
C5871 C 0.79653 0.66699 0.74829 0.0
C5872 C 0.81193 0.67049 0.75631 0.0
C5873 C 0.79001 0.65065 0.74138 0.0
C5874 C 0.77428 0.64686 0.73174 0.0
C5875 C 0.7718 0.65549 0.71816 0.0
C5876 C 0.75694 0.652 0.70915 0.0
C5877 C 0.74449 0.6398 0.71355 0.0
C5878 C 0.74691 0.63104 0.72692 0.0
C5879 C 0.76176 0.63449 0.73598 0.0
H5880 H 0.73299 0.63712 0.70656 0.0
H5881 H 0.8793 0.67221 0.7904 0.0
H5882 H 0.85552 0.63096 0.99329 0.0
H5883 H 0.87908 0.6172 0.99552 0.0
H5884 H 0.85578 0.58665 0.03062 0.0
H5885 H 0.83228 0.6006 0.02863 0.0
H5886 H 0.88747 0.59655 0.03923 0.0
H5887 H 0.85581 0.57167 0.99034 0.0
H5888 H 0.84177 0.57139 0.96353 0.0
H5889 H 0.88627 0.59397 0.94475 0.0
H5890 H 0.90053 0.59458 0.97151 0.0
H5891 H 0.93453 0.5308 0.03001 0.0
H5892 H 0.91321 0.54788 0.03206 0.0
H5893 H 0.93539 0.57815 0.99618 0.0
H5894 H 0.95639 0.56093 0.99384 0.0
H5895 H 0.90455 0.56896 0.98884 0.0
H5896 H 0.93692 0.59234 0.03699 0.0
H5897 H 0.95127 0.59308 0.06368 0.0
H5898 H 0.90649 0.5741 0.0841 0.0
H5899 H 0.89189 0.5729 0.05744 0.0
C5900 C 0.8554 0.62127 0.00144 0.0
C5901 C 0.84197 0.61672 0.01064 0.0
C5902 C 0.86888 0.61344 0.00274 0.0
C5903 C 0.86911 0.60069 0.01306 0.0
C5904 C 0.8559 0.59645 0.02259 0.0
C5905 C 0.84246 0.6044 0.02141 0.0
C5906 C 0.8828 0.59131 0.01338 0.0
C5907 C 0.89113 0.59033 0.02826 0.0
C5908 C 0.88781 0.58353 -0.00099 0.0
C5909 C 0.87919 0.58333 0.98297 0.0
C5910 C 0.86256 0.57671 0.98053 0.0
C5911 C 0.85458 0.57647 0.96533 0.0
C5912 C 0.86311 0.5827 0.95246 0.0
C5913 C 0.87967 0.58917 0.95474 0.0
C5914 C 0.88771 0.58947 0.96991 0.0
C5915 C 0.93475 0.54104 0.0225 0.0
C5916 C 0.94694 0.54438 0.01157 0.0
C5917 C 0.9227 0.55093 0.02384 0.0
C5918 C 0.92277 0.56442 0.01439 0.0
C5919 C 0.93506 0.56781 0.00359 0.0
C5920 C 0.947 0.55789 0.00217 0.0
C5921 C 0.90939 0.57422 0.01466 0.0
C5922 C 0.90102 0.57521 -0.00014 0.0
C5923 C 0.90447 0.58201 0.02911 0.0
C5924 C 0.91332 0.58231 0.0451 0.0
C5925 C 0.93014 0.5881 0.04709 0.0
C5926 C 0.93832 0.58866 0.06225 0.0
C5927 C 0.92981 0.58362 0.07557 0.0
C5928 C 0.91309 0.57798 0.07376 0.0
C5929 C 0.90485 0.57734 0.05862 0.0
H5930 H 0.93615 0.58412 0.0873 0.0
H5931 H 0.85691 0.58248 0.9407 0.0
H5932 H 0.16468 0.09463 0.74961 0.0
H5933 H 0.17913 0.1232 0.74877 0.0
H5934 H 0.21132 0.11702 0.78884 0.0
H5935 H 0.19719 0.08821 0.78952 0.0
H5936 H 0.19956 0.14638 0.79319 0.0
H5937 H 0.2249 0.11766 0.75153 0.0
H5938 H 0.22602 0.09907 0.72664 0.0
H5939 H 0.20203 0.13074 0.69897 0.0
H5940 H 0.20059 0.14943 0.72375 0.0
H5941 H 0.25964 0.21876 0.78842 0.0
H5942 H 0.24431 0.19046 0.78916 0.0
H5943 H 0.21337 0.19755 0.7484 0.0
H5944 H 0.22871 0.22602 0.74767 0.0
H5945 H 0.2241 0.16777 0.74415 0.0
H5946 H 0.19849 0.19628 0.78552 0.0
H5947 H 0.19572 0.21406 0.81046 0.0
H5948 H 0.21947 0.1826 0.83864 0.0
H5949 H 0.2225 0.16467 0.8138 0.0
C5950 C 0.17501 0.09917 0.75808 0.0
C5951 C 0.17975 0.08898 0.76962 0.0
C5952 C 0.18324 0.11559 0.75761 0.0
C5953 C 0.19639 0.12226 0.76867 0.0
C5954 C 0.20118 0.11217 0.78021 0.0
C5955 C 0.19302 0.0957 0.78063 0.0
C5956 C 0.2048 0.13993 0.76852 0.0
C5957 C 0.20516 0.15099 0.78255 0.0
C5958 C 0.21167 0.14609 0.75447 0.0
C5959 C 0.21248 0.13486 0.73954 0.0
C5960 C 0.21973 0.12059 0.74017 0.0
C5961 C 0.22045 0.11005 0.72607 0.0
C5962 C 0.21405 0.1137 0.71124 0.0
C5963 C 0.20696 0.12792 0.71047 0.0
C5964 C 0.2062 0.1385 0.72454 0.0
C5965 C 0.24948 0.21435 0.77969 0.0
C5966 C 0.24541 0.22459 0.76795 0.0
C5967 C 0.24067 0.19818 0.78017 0.0
C5968 C 0.22761 0.19185 0.76889 0.0
C5969 C 0.22339 0.20214 0.75724 0.0
C5970 C 0.23213 0.21842 0.75686 0.0
C5971 C 0.2189 0.17425 0.76886 0.0
C5972 C 0.2185 0.16317 0.7548 0.0
C5973 C 0.21198 0.16806 0.78288 0.0
C5974 C 0.21086 0.17923 0.79776 0.0
C5975 C 0.20332 0.19327 0.797 0.0
C5976 C 0.20164 0.20334 0.81114 0.0
C5977 C 0.20742 0.19947 0.82614 0.0
C5978 C 0.21499 0.18558 0.82701 0.0
C5979 C 0.21667 0.17544 0.81291 0.0
H5980 H 0.206 0.2072 0.8371 0.0
H5981 H 0.21463 0.10552 0.70034 0.0
H5982 H 0.3534 0.93826 0.25917 0.0
H5983 H 0.33782 0.91014 0.25849 0.0
H5984 H 0.30154 0.92308 0.2257 0.0
H5985 H 0.31728 0.9517 0.22666 0.0
H5986 H 0.28912 0.91159 0.25285 0.0
H5987 H 0.32179 0.89184 0.21311 0.0
H5988 H 0.34691 0.88929 0.19959 0.0
H5989 H 0.36518 0.8686 0.24097 0.0
H5990 H 0.34029 0.87122 0.25483 0.0
H5991 H 0.25177 0.82642 0.25682 0.0
H5992 H 0.26187 0.85532 0.25228 0.0
H5993 H 0.30536 0.85454 0.28186 0.0
H5994 H 0.29529 0.8252 0.28608 0.0
H5995 H 0.31069 0.85857 0.25032 0.0
H5996 H 0.28015 0.88311 0.2915 0.0
H5997 H 0.2548 0.88469 0.30496 0.0
H5998 H 0.23243 0.8954 0.26047 0.0
H5999 H 0.25764 0.89378 0.24671 0.0
C6000 C 0.34233 0.93489 0.25146 0.0
C6001 C 0.33633 0.94685 0.24303 0.0
C6002 C 0.33352 0.91885 0.25094 0.0
C6003 C 0.31865 0.91454 0.24188 0.0
C6004 C 0.31308 0.92624 0.23263 0.0
C6005 C 0.32199 0.94243 0.23315 0.0
C6006 C 0.30814 0.89881 0.24451 0.0
C6007 C 0.29359 0.89985 0.25192 0.0
C6008 C 0.31418 0.88365 0.24347 0.0
C6009 C 0.32912 0.88175 0.23503 0.0
C6010 C 0.33118 0.8868 0.21936 0.0
C6011 C 0.34539 0.88534 0.21163 0.0
C6012 C 0.35763 0.87879 0.21942 0.0
C6013 C 0.35567 0.87364 0.23493 0.0
C6014 C 0.34149 0.87507 0.24271 0.0
C6015 C 0.2632 0.8327 0.26286 0.0
C6016 C 0.27303 0.82383 0.27146 0.0
C6017 C 0.26889 0.8492 0.26038 0.0
C6018 C 0.28439 0.85689 0.26661 0.0
C6019 C 0.29336 0.84863 0.27694 0.0
C6020 C 0.28764 0.83202 0.27942 0.0
C6021 C 0.29238 0.87177 0.25959 0.0
C6022 C 0.3062 0.87031 0.2511 0.0
C6023 C 0.28565 0.88646 0.25962 0.0
C6024 C 0.27076 0.88827 0.26807 0.0
C6025 C 0.26982 0.8858 0.28459 0.0
C6026 C 0.25548 0.8867 0.29227 0.0
C6027 C 0.24201 0.89012 0.28357 0.0
C6028 C 0.24289 0.89278 0.2672 0.0
C6029 C 0.25722 0.89193 0.25947 0.0
H6030 H 0.23089 0.89073 0.28952 0.0
H6031 H 0.36864 0.87771 0.21343 0.0
H6032 H 0.52526 0.34261 0.55717 0.0
H6033 H 0.52295 0.36625 0.54132 0.0
H6034 H 0.50403 0.39137 0.58226 0.0
H6035 H 0.50602 0.36774 0.59792 0.0
H6036 H 0.48564 0.39124 0.55531 0.0
H6037 H 0.5437 0.40419 0.5707 0.0
H6038 H 0.57112 0.39715 0.57183 0.0
H6039 H 0.56892 0.3887 0.51989 0.0
H6040 H 0.54145 0.39562 0.51847 0.0
H6041 H 0.4894 0.47448 0.53956 0.0
H6042 H 0.49224 0.44797 0.54982 0.0
H6043 H 0.51597 0.4342 0.50681 0.0
H6044 H 0.51437 0.46157 0.49725 0.0
H6045 H 0.53105 0.42567 0.53074 0.0
H6046 H 0.47418 0.41656 0.51517 0.0
H6047 H 0.44685 0.4238 0.51429 0.0
H6048 H 0.44614 0.42393 0.56602 0.0
H6049 H 0.47353 0.41691 0.56724 0.0
C6050 C 0.52078 0.3533 0.56278 0.0
C6051 C 0.51571 0.35338 0.5787 0.0
C6052 C 0.51948 0.36677 0.55375 0.0
C6053 C 0.51334 0.38058 0.56064 0.0
C6054 C 0.50868 0.38079 0.57667 0.0
C6055 C 0.50981 0.36731 0.5856 0.0
C6056 C 0.51105 0.39463 0.55113 0.0
C6057 C 0.49557 0.39883 0.54998 0.0
C6058 C 0.52388 0.4041 0.54364 0.0
C6059 C 0.5405 0.40029 0.54449 0.0
C6060 C 0.54906 0.40077 0.55953 0.0
C6061 C 0.5646 0.39681 0.56022 0.0
C6062 C 0.57173 0.39242 0.54595 0.0
C6063 C 0.56337 0.39206 0.53094 0.0
C6064 C 0.54783 0.39604 0.53018 0.0
C6065 C 0.4949 0.46561 0.53217 0.0
C6066 C 0.50135 0.46979 0.51749 0.0
C6067 C 0.49649 0.45042 0.53799 0.0
C6068 C 0.50388 0.43875 0.52888 0.0
C6069 C 0.51011 0.44288 0.51402 0.0
C6070 C 0.50906 0.4584 0.50848 0.0
C6071 C 0.50566 0.42265 0.53529 0.0
C6072 C 0.52101 0.41796 0.53577 0.0
C6073 C 0.49265 0.41261 0.54209 0.0
C6074 C 0.47593 0.41625 0.54129 0.0
C6075 C 0.4682 0.41815 0.52636 0.0
C6076 C 0.4527 0.42223 0.52581 0.0
C6077 C 0.44477 0.42434 0.54009 0.0
C6078 C 0.45229 0.42228 0.55496 0.0
C6079 C 0.46778 0.41821 0.55559 0.0
H6080 H 0.4328 0.42754 0.53964 0.0
H6081 H 0.58376 0.38934 0.54651 0.0
H6082 H 0.4077 0.74762 0.36454 0.0
H6083 H 0.38109 0.74816 0.35156 0.0
H6084 H 0.40404 0.77397 0.31316 0.0
H6085 H 0.43065 0.77369 0.32625 0.0
H6086 H 0.38042 0.78848 0.32256 0.0
H6087 H 0.38619 0.73206 0.30777 0.0
H6088 H 0.39113 0.70372 0.31183 0.0
H6089 H 0.34985 0.69569 0.34072 0.0
H6090 H 0.3448 0.7241 0.33703 0.0
H6091 H 0.3196 0.77157 0.25946 0.0
H6092 H 0.34316 0.77029 0.27717 0.0
H6093 H 0.3124 0.75982 0.31659 0.0
H6094 H 0.28845 0.76144 0.29879 0.0
H6095 H 0.33796 0.73793 0.30957 0.0
H6096 H 0.33171 0.79565 0.32003 0.0
H6097 H 0.32748 0.82298 0.31175 0.0
H6098 H 0.3712 0.82735 0.28635 0.0
H6099 H 0.37554 0.7999 0.29422 0.0
C6100 C 0.40706 0.75322 0.35322 0.0
C6101 C 0.42126 0.7606 0.3464 0.0
C6102 C 0.39184 0.75353 0.34582 0.0
C6103 C 0.39052 0.76102 0.33131 0.0
C6104 C 0.40471 0.76821 0.32439 0.0
C6105 C 0.41992 0.76803 0.33186 0.0
C6106 C 0.37438 0.76178 0.32353 0.0
C6107 C 0.3712 0.77739 0.31967 0.0
C6108 C 0.36219 0.74737 0.31995 0.0
C6109 C 0.36524 0.73031 0.3223 0.0
C6110 C 0.37826 0.72432 0.31513 0.0
C6111 C 0.38106 0.70823 0.31733 0.0
C6112 C 0.37084 0.69793 0.32657 0.0
C6113 C 0.35778 0.7037 0.3336 0.0
C6114 C 0.35494 0.71979 0.33145 0.0
C6115 C 0.31778 0.76899 0.2719 0.0
C6116 C 0.3022 0.76663 0.27779 0.0
C6117 C 0.33128 0.76828 0.282 0.0
C6118 C 0.32951 0.76502 0.29816 0.0
C6119 C 0.31396 0.76237 0.30412 0.0
C6120 C 0.30035 0.76336 0.29401 0.0
C6121 C 0.34417 0.76455 0.30859 0.0
C6122 C 0.34711 0.74902 0.31283 0.0
C6123 C 0.35632 0.77894 0.31212 0.0
C6124 C 0.3539 0.79564 0.30765 0.0
C6125 C 0.34037 0.80238 0.31259 0.0
C6126 C 0.33796 0.8179 0.30798 0.0
C6127 C 0.34905 0.82688 0.29851 0.0
C6128 C 0.36261 0.82038 0.29368 0.0
C6129 C 0.36506 0.80485 0.29823 0.0
H6130 H 0.34716 0.83889 0.29494 0.0
H6131 H 0.37302 0.68547 0.32825 0.0
H6132 H 0.98322 0.69092 0.07006 0.0
H6133 H 0.98379 0.6646 0.05376 0.0
H6134 H 0.03565 0.6783 0.05206 0.0
H6135 H 0.03498 0.70514 0.06692 0.0
H6136 H 0.02457 0.66259 0.025 0.0
H6137 H 0.01485 0.65287 0.08195 0.0
H6138 H -0.00123 0.65363 0.1061 0.0
H6139 H 0.95763 0.62368 0.07876 0.0
H6140 H 0.97346 0.62279 0.05442 0.0
H6141 H 0.03746 0.57273 0.0366 0.0
H6142 H 0.03603 0.60195 0.04553 0.0
H6143 H 0.00537 0.60423 0.00296 0.0
H6144 H 0.00688 0.57525 0.99394 0.0
H6145 H 0.00328 0.61095 0.05039 0.0
H6146 H 0.01402 0.63488 0.99207 0.0
H6147 H 0.03125 0.63218 0.96892 0.0
H6148 H 0.07236 0.63289 0.00185 0.0
H6149 H 0.05527 0.63533 0.02511 0.0
C6150 C 0.99468 0.68852 0.06585 0.0
C6151 C 0.00913 0.70002 0.07008 0.0
C6152 C 0.99501 0.67337 0.05671 0.0
C6153 C 0.00982 0.66929 0.05208 0.0
C6154 C 0.02408 0.6811 0.0556 0.0
C6155 C 0.02372 0.69636 0.06435 0.0
C6156 C 0.01093 0.65246 0.04447 0.0
C6157 C 0.01979 0.65134 0.03055 0.0
C6158 C 0.00468 0.63769 0.05162 0.0
C6159 C 0.9953 0.6379 0.06635 0.0
C6160 C 0.00237 0.64647 0.0811 0.0
C6161 C 0.9933 0.64692 0.09481 0.0
C6162 C 0.97718 0.63873 0.09395 0.0
C6163 C 0.97012 0.63 0.0794 0.0
C6164 C 0.97914 0.62951 0.06565 0.0
C6165 C 0.03107 0.57975 0.02882 0.0
C6166 C 0.0223 0.57189 0.01461 0.0
C6167 C 0.03004 0.59628 0.03404 0.0
C6168 C 0.02046 0.60503 0.02494 0.0
C6169 C 0.01286 0.59763 0.01006 0.0
C6170 C 0.01382 0.58116 0.0049 0.0
C6171 C 0.01731 0.62143 0.03146 0.0
C6172 C 0.0079 0.6223 0.04492 0.0
C6173 C 0.02311 0.63598 0.02408 0.0
C6174 C 0.03348 0.63542 0.01022 0.0
C6175 C 0.02677 0.63461 0.99431 0.0
C6176 C 0.03647 0.63302 0.98119 0.0
C6177 C 0.0529 0.6324 0.98391 0.0
C6178 C 0.05965 0.63337 -0.00025 0.0
C6179 C 0.04997 0.63482 0.01289 0.0
H6180 H 0.06038 0.63116 0.97375 0.0
H6181 H 0.97017 0.63913 0.10457 0.0
H6182 H 0.09065 0.25717 0.86376 0.0
H6183 H 0.11609 0.26003 0.85007 0.0
H6184 H 0.09825 0.29248 0.81797 0.0
H6185 H 0.07279 0.28972 0.83167 0.0
H6186 H 0.11055 0.26646 0.80186 0.0
H6187 H 0.1265 0.30906 0.84519 0.0
H6188 H 0.13009 0.32168 0.87352 0.0
H6189 H 0.16184 0.2878 0.88496 0.0
H6190 H 0.15821 0.27474 0.85674 0.0
H6191 H 0.18533 0.28695 0.76451 0.0
H6192 H 0.1615 0.29 0.7798 0.0
H6193 H 0.1752 0.25685 0.81355 0.0
H6194 H 0.19896 0.25368 0.79829 0.0
H6195 H 0.16537 0.28582 0.82884 0.0
H6196 H 0.14681 0.24157 0.78626 0.0
H6197 H 0.1432 0.22901 0.7579 0.0
H6198 H 0.11624 0.26671 0.7453 0.0
H6199 H 0.11992 0.27967 0.77357 0.0
C6200 C 0.09217 0.26492 0.85379 0.0
C6201 C 0.07971 0.27314 0.84871 0.0
C6202 C 0.10675 0.26667 0.84609 0.0
C6203 C 0.10908 0.27654 0.83306 0.0
C6204 C 0.0967 0.28485 0.82803 0.0
C6205 C 0.08221 0.2833 0.83588 0.0
C6206 C 0.12403 0.2773 0.82409 0.0
C6207 C 0.12252 0.271 0.80769 0.0
C6208 C 0.13965 0.28293 0.83182 0.0
C6209 C 0.14192 0.29076 0.84884 0.0
C6210 C 0.13411 0.30416 0.85377 0.0
C6211 C 0.13618 0.31142 0.86981 0.0
C6212 C 0.14614 0.30551 0.88104 0.0
C6213 C 0.15409 0.29235 0.87624 0.0
C6214 C 0.15204 0.28501 0.86022 0.0
C6215 C 0.18316 0.28021 0.7751 0.0
C6216 C 0.19383 0.26988 0.78007 0.0
C6217 C 0.16963 0.28204 0.78388 0.0
C6218 C 0.16661 0.27367 0.79783 0.0
C6219 C 0.17736 0.26349 0.8029 0.0
C6220 C 0.1908 0.26153 0.79404 0.0
C6221 C 0.15181 0.27486 0.80668 0.0
C6222 C 0.15337 0.28147 0.82302 0.0
C6223 C 0.13619 0.26955 0.79894 0.0
C6224 C 0.13379 0.2617 0.78198 0.0
C6225 C 0.14022 0.24727 0.77741 0.0
C6226 C 0.13815 0.24006 0.76136 0.0
C6227 C 0.12954 0.24709 0.74979 0.0
C6228 C 0.12293 0.26131 0.75427 0.0
C6229 C 0.125 0.26858 0.77031 0.0
H6230 H 0.12794 0.24149 0.73737 0.0
H6231 H 0.14773 0.31115 0.89345 0.0
H6232 H 0.49335 0.69876 0.95184 0.0
H6233 H 0.49052 0.6738 0.96679 0.0
H6234 H 0.52111 0.65192 0.93388 0.0
H6235 H 0.52407 0.67681 0.91901 0.0
H6236 H 0.49097 0.63086 0.93903 0.0
H6237 H 0.53668 0.66666 0.96941 0.0
H6238 H 0.55023 0.69257 0.98557 0.0
H6239 H 0.5148 0.68518 0.02118 0.0
H6240 H 0.50088 0.65933 0.00509 0.0
H6241 H 0.51173 0.5614 0.97212 0.0
H6242 H 0.5101 0.58746 0.96056 0.0
H6243 H 0.4929 0.60716 0.00526 0.0
H6244 H 0.4955 0.58115 0.01726 0.0
H6245 H 0.51253 0.63039 0.99559 0.0
H6246 H 0.46624 0.59563 0.96657 0.0
H6247 H 0.44939 0.57203 0.94951 0.0
H6248 H 0.48285 0.57807 0.91198 0.0
H6249 H 0.49976 0.60181 0.92868 0.0
C6250 C 0.49949 0.68862 0.94785 0.0
C6251 C 0.50896 0.68972 0.93429 0.0
C6252 C 0.49793 0.67444 0.95642 0.0
C6253 C 0.50566 0.66108 0.95145 0.0
C6254 C 0.51509 0.66214 0.93792 0.0
C6255 C 0.51684 0.67638 0.9295 0.0
C6256 C 0.5036 0.64568 0.95996 0.0
C6257 C 0.49578 0.63067 0.95137 0.0
C6258 C 0.50924 0.64566 0.97626 0.0
C6259 C 0.51762 0.66117 0.98594 0.0
C6260 C 0.53168 0.67065 0.9806 0.0
C6261 C 0.53945 0.6853 0.98977 0.0
C6262 C 0.53335 0.69055 0.00437 0.0
C6263 C 0.51949 0.68112 0.00985 0.0
C6264 C 0.51166 0.66646 0.00072 0.0
C6265 C 0.50755 0.57126 0.97949 0.0
C6266 C 0.50371 0.56924 0.99559 0.0
C6267 C 0.5064 0.58613 0.97278 0.0
C6268 C 0.50087 0.59922 0.98179 0.0
C6269 C 0.49708 0.59725 -0.00204 0.0
C6270 C 0.49861 0.58243 0.00485 0.0
C6271 C 0.50017 0.61523 0.97454 0.0
C6272 C 0.50746 0.63044 0.98335 0.0
C6273 C 0.49375 0.61552 0.95847 0.0
C6274 C 0.48427 0.60046 0.9489 0.0
C6275 C 0.47007 0.59182 0.95473 0.0
C6276 C 0.46044 0.57851 0.94507 0.0
C6277 C 0.46493 0.57371 0.92958 0.0
C6278 C 0.47924 0.58196 0.92385 0.0
C6279 C 0.48883 0.59537 0.9334 0.0
H6280 H 0.45738 0.56353 0.92204 0.0
H6281 H 0.53939 0.7019 0.01145 0.0
H6282 H 0.0913 0.80668 0.68116 0.0
H6283 H 0.11737 0.80444 0.69448 0.0
H6284 H 0.09285 0.76925 0.72505 0.0
H6285 H 0.06678 0.77144 0.7118 0.0
H6286 H 0.12072 0.79237 0.74074 0.0
H6287 H 0.10428 0.75382 0.69139 0.0
H6288 H 0.09679 0.74677 0.66219 0.0
H6289 H 0.14084 0.77761 0.65065 0.0
H6290 H 0.14849 0.78499 0.6798 0.0
H6291 H 0.17924 0.74347 0.76179 0.0
H6292 H 0.15477 0.75388 0.75328 0.0
H6293 H 0.1796 0.77525 0.71344 0.0
H6294 H 0.20327 0.76373 0.72107 0.0
H6295 H 0.15236 0.7623 0.70285 0.0
H6296 H 0.17144 0.79933 0.75035 0.0
H6297 H 0.1804 0.80816 0.77901 0.0
H6298 H 0.13455 0.7841 0.79386 0.0
H6299 H 0.12535 0.77498 0.76531 0.0
C6300 C 0.09147 0.79886 0.69105 0.0
C6301 C 0.07714 0.78908 0.69539 0.0
C6302 C 0.10632 0.79758 0.6986 0.0
C6303 C 0.10693 0.78659 0.7106 0.0
C6304 C 0.09254 0.77782 0.71582 0.0
C6305 C 0.07772 0.77897 0.70818 0.0
C6306 C 0.12248 0.78236 0.71613 0.0
C6307 C 0.12774 0.78579 0.73255 0.0
C6308 C 0.13171 0.77421 0.70525 0.0
C6309 C 0.12683 0.77015 0.68776 0.0
C6310 C 0.11226 0.75926 0.68262 0.0
C6311 C 0.10802 0.75516 0.66608 0.0
C6312 C 0.1183 0.76178 0.65457 0.0
C6313 C 0.13286 0.77252 0.65958 0.0
C6314 C 0.13715 0.77667 0.6761 0.0
C6315 C 0.17917 0.74996 0.75095 0.0
C6316 C 0.1929 0.75248 0.74185 0.0
C6317 C 0.16538 0.75625 0.74631 0.0
C6318 C 0.16544 0.76567 0.73291 0.0
C6319 C 0.17918 0.76797 0.72378 0.0
C6320 C 0.19267 0.76121 0.72805 0.0
C6321 C 0.15096 0.77233 0.72762 0.0
C6322 C 0.14573 0.76921 0.71116 0.0
C6323 C 0.14211 0.78118 0.73844 0.0
C6324 C 0.14776 0.78632 0.75567 0.0
C6325 C 0.16332 0.79577 0.75973 0.0
C6326 C 0.16842 0.80088 0.77596 0.0
C6327 C 0.15806 0.79666 0.78824 0.0
C6328 C 0.14256 0.78734 0.78433 0.0
C6329 C 0.13739 0.78222 0.76812 0.0
H6330 H 0.16203 0.80064 0.8008 0.0
H6331 H 0.11502 0.75855 0.64177 0.0
H6332 H 0.00575 0.35824 0.41082 0.0
H6333 H 0.00602 0.38656 0.4237 0.0
H6334 H 0.02849 0.37367 0.46747 0.0
H6335 H 0.0285 0.34535 0.45449 0.0
H6336 H 0.00089 0.38934 0.47212 0.0
H6337 H 0.05099 0.39748 0.44659 0.0
H6338 H 0.06937 0.39646 0.42434 0.0
H6339 H 0.04339 0.42781 0.39834 0.0
H6340 H 0.02467 0.42879 0.42033 0.0
H6341 H 0.02534 0.46712 0.51616 0.0
H6342 H 0.02607 0.44081 0.5002 0.0
H6343 H 0.00448 0.45883 0.45863 0.0
H6344 H 0.00364 0.48554 0.47482 0.0
H6345 H 0.03036 0.44081 0.45166 0.0
H6346 H 0.98098 0.43358 0.47907 0.0
H6347 H 0.96384 0.43474 0.50235 0.0
H6348 H 0.98965 0.40151 0.52584 0.0
H6349 H 0.00715 0.40038 0.50284 0.0
C6350 C 0.01076 0.36148 0.42319 0.0
C6351 C 0.01706 0.34965 0.43171 0.0
C6352 C 0.01099 0.37765 0.43048 0.0
C6353 C 0.01732 0.3822 0.4465 0.0
C6354 C 0.02357 0.37038 0.45508 0.0
C6355 C 0.02362 0.35428 0.44767 0.0
C6356 C 0.01695 0.39915 0.45441 0.0
C6357 C 0.00746 0.40059 0.46777 0.0
C6358 C 0.02522 0.41381 0.44843 0.0
C6359 C 0.03627 0.41301 0.43502 0.0
C6360 C 0.04905 0.40397 0.43604 0.0
C6361 C 0.05957 0.40345 0.42349 0.0
C6362 C 0.05752 0.41202 0.4099 0.0
C6363 C 0.04495 0.42115 0.40885 0.0
C6364 C 0.03438 0.42169 0.42136 0.0
C6365 C 0.02086 0.46562 0.50357 0.0
C6366 C 0.01432 0.47836 0.49674 0.0
C6367 C 0.02125 0.45052 0.49448 0.0
C6368 C 0.01505 0.44774 0.47834 0.0
C6369 C 0.00923 0.46072 0.47113 0.0
C6370 C 0.0088 0.47597 0.48033 0.0
C6371 C 0.01435 0.431 0.46942 0.0
C6372 C 0.02364 0.42957 0.4559 0.0
C6373 C 0.00599 0.41632 0.47533 0.0
C6374 C 0.99549 0.41702 0.48925 0.0
C6375 C 0.98312 0.42665 0.48926 0.0
C6376 C 0.97331 0.42727 0.5024 0.0
C6377 C 0.97567 0.41823 0.51558 0.0
C6378 C 0.98784 0.40852 0.51563 0.0
C6379 C 0.9977 0.40788 0.50254 0.0
H6380 H 0.96805 0.41872 0.52573 0.0
H6381 H 0.0657 0.41164 0.40022 0.0
H6382 H 0.41033 0.28153 0.16891 0.0
H6383 H 0.38592 0.2818 0.18375 0.0
H6384 H 0.41099 0.27053 0.22682 0.0
H6385 H 0.43547 0.26988 0.21181 0.0
H6386 H 0.3801 0.25297 0.2227 0.0
H6387 H 0.40566 0.31069 0.22288 0.0
H6388 H 0.41843 0.3356 0.21027 0.0
H6389 H 0.37494 0.3337 0.1804 0.0
H6390 H 0.36197 0.30869 0.19273 0.0
H6391 H 0.31505 0.2703 0.26951 0.0
H6392 H 0.34216 0.27061 0.25974 0.0
H6393 H 0.32694 0.28931 0.21548 0.0
H6394 H 0.30028 0.29018 0.22587 0.0
H6395 H 0.35516 0.3039 0.22334 0.0
H6396 H 0.3299 0.24527 0.22126 0.0
H6397 H 0.31727 0.21929 0.23229 0.0
H6398 H 0.35947 0.22159 0.26413 0.0
H6399 H 0.37226 0.2477 0.25347 0.0
C6400 C 0.41063 0.27914 0.18155 0.0
C6401 C 0.42479 0.2759 0.1893 0.0
C6402 C 0.39671 0.2793 0.19001 0.0
C6403 C 0.39676 0.27655 0.20647 0.0
C6404 C 0.41074 0.27278 0.21414 0.0
C6405 C 0.42467 0.27242 0.20559 0.0
C6406 C 0.38225 0.278 0.21561 0.0
C6407 C 0.37472 0.26417 0.22309 0.0
C6408 C 0.37519 0.29254 0.21588 0.0
C6409 C 0.38288 0.30778 0.20868 0.0
C6410 C 0.39885 0.31556 0.21359 0.0
C6411 C 0.40612 0.32969 0.20649 0.0
C6412 C 0.39751 0.33621 0.19453 0.0
C6413 C 0.38159 0.32864 0.18967 0.0
C6414 C 0.37426 0.31451 0.19674 0.0
C6415 C 0.3177 0.27477 0.25784 0.0
C6416 C 0.30578 0.28037 0.24845 0.0
C6417 C 0.33308 0.27471 0.25215 0.0
C6418 C 0.33653 0.27954 0.23667 0.0
C6419 C 0.32462 0.28549 0.22746 0.0
C6420 C 0.30942 0.28607 0.23339 0.0
C6421 C 0.35249 0.27861 0.22998 0.0
C6422 C 0.36046 0.29265 0.22307 0.0
C6423 C 0.35981 0.26416 0.23012 0.0
C6424 C 0.35197 0.24856 0.23668 0.0
C6425 C 0.33642 0.24033 0.23072 0.0
C6426 C 0.32925 0.22556 0.23688 0.0
C6427 C 0.33755 0.21882 0.24892 0.0
C6428 C 0.35304 0.22684 0.25483 0.0
C6429 C 0.36026 0.24162 0.24873 0.0
H6430 H 0.33201 0.20736 0.25362 0.0
H6431 H 0.40317 0.34714 0.18903 0.0
H6432 H 0.5951 0.48468 0.36169 0.0
H6433 H 0.58009 0.48445 0.38629 0.0
H6434 H 0.54008 0.49908 0.36012 0.0
H6435 H 0.55522 0.49967 0.33561 0.0
H6436 H 0.54791 0.51878 0.38644 0.0
H6437 H 0.53774 0.45931 0.37459 0.0
H6438 H 0.54476 0.43146 0.36785 0.0
H6439 H 0.57434 0.43692 0.41223 0.0
H6440 H 0.56765 0.46489 0.41916 0.0
H6441 H 0.49243 0.506 0.4499 0.0
H6442 H 0.50566 0.50193 0.42443 0.0
H6443 H 0.55132 0.50474 0.45132 0.0
H6444 H 0.53819 0.50949 0.47687 0.0
H6445 H 0.53985 0.4751 0.42475 0.0
H6446 H 0.55349 0.53502 0.43426 0.0
H6447 H 0.55034 0.56434 0.43938 0.0
H6448 H 0.51561 0.5582 0.3987 0.0
H6449 H 0.51868 0.52865 0.3933 0.0
C6450 C 0.58298 0.48754 0.36113 0.0
C6451 C 0.57637 0.49233 0.34678 0.0
C6452 C 0.57437 0.48733 0.37518 0.0
C6453 C 0.55887 0.49163 0.37508 0.0
C6454 C 0.55202 0.49575 0.36054 0.0
C6455 C 0.56069 0.49615 0.34656 0.0
C6456 C 0.55056 0.49361 0.39042 0.0
C6457 C 0.54582 0.50903 0.39459 0.0
C6458 C 0.54835 0.48115 0.4014 0.0
C6459 C 0.55229 0.46427 0.39734 0.0
C6460 C 0.54583 0.45462 0.38287 0.0
C6461 C 0.54973 0.4388 0.37902 0.0
C6462 C 0.56002 0.43244 0.38959 0.0
C6463 C 0.56638 0.44186 0.40405 0.0
C6464 C 0.56251 0.45769 0.40796 0.0
C6465 C 0.5053 0.5058 0.45036 0.0
C6466 C 0.51435 0.5081 0.4653 0.0
C6467 C 0.51283 0.5035 0.43583 0.0
C6468 C 0.52944 0.503 0.43602 0.0
C6469 C 0.53848 0.5051 0.45095 0.0
C6470 C 0.53102 0.50789 0.46549 0.0
C6471 C 0.53722 0.50021 0.42055 0.0
C6472 C 0.54179 0.48467 0.41639 0.0
C6473 C 0.53929 0.5125 0.40949 0.0
C6474 C 0.53609 0.52959 0.41359 0.0
C6475 C 0.54493 0.53982 0.42662 0.0
C6476 C 0.54326 0.55655 0.42947 0.0
C6477 C 0.53272 0.56319 0.4194 0.0
C6478 C 0.52374 0.55304 0.40651 0.0
C6479 C 0.52545 0.5363 0.40354 0.0
H6480 H 0.53158 0.57622 0.42151 0.0
H6481 H 0.56304 0.42019 0.38658 0.0
H6482 H 0.23891 0.83069 0.08382 0.0
H6483 H 0.24363 0.81823 0.10887 0.0
H6484 H 0.27577 0.86364 0.12815 0.0
H6485 H 0.271 0.87626 0.10305 0.0
H6486 H 0.28935 0.83623 0.13093 0.0
H6487 H 0.24053 0.85384 0.1441 0.0
H6488 H 0.21226 0.85805 0.1408 0.0
H6489 H 0.19572 0.80487 0.13656 0.0
H6490 H 0.22391 0.80031 0.13952 0.0
H6491 H 0.29296 0.80646 0.2092 0.0
H6492 H 0.29208 0.82093 0.18493 0.0
H6493 H 0.25724 0.77943 0.16156 0.0
H6494 H 0.25747 0.76517 0.18634 0.0
H6495 H 0.24596 0.8079 0.16271 0.0
H6496 H 0.29701 0.79154 0.14825 0.0
H6497 H 0.32553 0.78931 0.15428 0.0
H6498 H 0.33803 0.84276 0.16398 0.0
H6499 H 0.30955 0.8453 0.15815 0.0
C6500 C 0.24673 0.83812 0.09351 0.0
C6501 C 0.25466 0.85437 0.09153 0.0
C6502 C 0.24941 0.83102 0.10779 0.0
C6503 C 0.25997 0.8401 0.12031 0.0
C6504 C 0.26761 0.85648 0.11855 0.0
C6505 C 0.26493 0.86361 0.10424 0.0
C6506 C 0.26378 0.83188 0.1347 0.0
C6507 C 0.27992 0.83021 0.13805 0.0
C6508 C 0.25141 0.82406 0.14388 0.0
C6509 C 0.23439 0.82673 0.14187 0.0
C6510 C 0.23089 0.84303 0.14228 0.0
C6511 C 0.21487 0.84548 0.1405 0.0
C6512 C 0.2022 0.83173 0.13842 0.0
C6513 C 0.20554 0.8155 0.13814 0.0
C6514 C 0.22154 0.81298 0.13987 0.0
C6515 C 0.28543 0.80021 0.19874 0.0
C6516 C 0.27502 0.7849 0.19963 0.0
C6517 C 0.28505 0.80845 0.18482 0.0
C6518 C 0.27457 0.80126 0.17149 0.0
C6519 C 0.26534 0.78518 0.17183 0.0
C6520 C 0.26551 0.77703 0.18589 0.0
C6521 C 0.27139 0.81149 0.15837 0.0
C6522 C 0.25538 0.81379 0.15548 0.0
C6523 C 0.28391 0.8201 0.14985 0.0
C6524 C 0.30113 0.81859 0.15283 0.0
C6525 C 0.30583 0.80281 0.1517 0.0
C6526 C 0.32199 0.8015 0.15508 0.0
C6527 C 0.33358 0.81588 0.15953 0.0
C6528 C 0.32904 0.83163 0.16052 0.0
C6529 C 0.3129 0.83301 0.15714 0.0
H6530 H 0.34607 0.81483 0.16219 0.0
H6531 H 0.18981 0.83366 0.13707 0.0
H6532 H 0.93181 0.50467 0.84425 0.0
H6533 H 0.94547 0.50365 0.87052 0.0
H6534 H 0.9625 0.55699 0.87383 0.0
H6535 H 0.94972 0.55799 0.84696 0.0
H6536 H 0.98534 0.54112 0.8851 0.0
H6537 H 0.92877 0.54024 0.89287 0.0
H6538 H 0.89965 0.5294 0.88677 0.0
H6539 H 0.90593 0.48131 0.90066 0.0
H6540 H 0.93514 0.49178 0.90662 0.0
H6541 H 0.00915 0.54739 0.96823 0.0
H6542 H 0.9953 0.55145 0.9427 0.0
H6543 H 0.97167 0.49958 0.9382 0.0
H6544 H 0.98451 0.49603 0.96449 0.0
H6545 H 0.95177 0.51652 0.92765 0.0
H6546 H 0.00843 0.51662 0.91838 0.0
H6547 H 0.03789 0.52666 0.92269 0.0
H6548 H 0.03181 0.57542 0.91054 0.0
H6549 H 0.00229 0.56574 0.90637 0.0
C6550 C 0.93874 0.51616 0.85035 0.0
C6551 C 0.93955 0.53146 0.84353 0.0
C6552 C 0.94637 0.51557 0.86549 0.0
C6553 C 0.95464 0.53031 0.87428 0.0
C6554 C 0.95601 0.54551 0.86729 0.0
C6555 C 0.94855 0.54608 0.85203 0.0
C6556 C 0.96146 0.52988 0.89094 0.0
C6557 C 0.97799 0.53596 0.8945 0.0
C6558 C 0.95186 0.52289 0.90306 0.0
C6559 C 0.93417 0.51678 0.90012 0.0
C6560 C 0.92395 0.52734 0.8946 0.0
C6561 C 0.90743 0.52126 0.89115 0.0
C6562 C 0.90095 0.50467 0.8933 0.0
C6563 C 0.91096 0.49415 0.899 0.0
C6564 C 0.9275 0.50016 0.90244 0.0
C6565 C 0.00083 0.53697 0.9618 0.0
C6566 C 0.9979 0.52139 0.96806 0.0
C6567 C 0.99304 0.53922 0.94718 0.0
C6568 C 0.98284 0.52568 0.93821 0.0
C6569 C 0.97955 0.51021 0.94482 0.0
C6570 C 0.98688 0.50815 0.95977 0.0
C6571 C 0.97583 0.52747 0.92185 0.0
C6572 C 0.95918 0.52173 0.91833 0.0
C6573 C 0.98538 0.53471 0.90972 0.0
C6574 C 0.00314 0.54049 0.91223 0.0
C6575 C 0.01337 0.52951 0.91673 0.0
C6576 C 0.03008 0.53514 0.91914 0.0
C6577 C 0.03671 0.55168 0.91693 0.0
C6578 C 0.02665 0.56262 0.91228 0.0
C6579 C 0.00994 0.55707 0.90989 0.0
H6580 H 0.04965 0.55601 0.9188 0.0
H6581 H 0.88816 0.49997 0.89058 0.0
H6582 H 0.25896 0.19634 0.59098 0.0
H6583 H 0.25746 0.20972 0.61817 0.0
H6584 H 0.29196 0.25248 0.60753 0.0
H6585 H 0.29337 0.23917 0.57989 0.0
H6586 H 0.29472 0.23731 0.64115 0.0
H6587 H 0.25964 0.26167 0.60613 0.0
H6588 H 0.23904 0.26065 0.58375 0.0
H6589 H 0.20513 0.22699 0.60792 0.0
H6590 H 0.2256 0.22767 0.63036 0.0
H6591 H 0.27347 0.2842 0.71 0.0
H6592 H 0.27852 0.27718 0.68173 0.0
H6593 H 0.23978 0.23447 0.67895 0.0
H6594 H 0.2347 0.24142 0.70753 0.0
H6595 H 0.24129 0.25314 0.65136 0.0
H6596 H 0.27544 0.22744 0.68539 0.0
H6597 H 0.29559 0.22604 0.70752 0.0
H6598 H 0.33112 0.26009 0.68561 0.0
H6599 H 0.31108 0.26192 0.66342 0.0
C6600 C 0.26622 0.20861 0.59438 0.0
C6601 C 0.27599 0.21691 0.58326 0.0
C6602 C 0.26545 0.21614 0.60993 0.0
C6603 C 0.27448 0.23208 0.61467 0.0
C6604 C 0.28493 0.24014 0.60396 0.0
C6605 C 0.28569 0.23257 0.58826 0.0
C6606 C 0.27175 0.24046 0.63047 0.0
C6607 C 0.28326 0.24125 0.64339 0.0
C6608 C 0.25656 0.24501 0.63328 0.0
C6609 C 0.24418 0.24465 0.61987 0.0
C6610 C 0.24783 0.25396 0.60661 0.0
C6611 C 0.23617 0.25347 0.59393 0.0
C6612 C 0.22079 0.24375 0.5944 0.0
C6613 C 0.21704 0.23452 0.60757 0.0
C6614 C 0.22866 0.23498 0.62029 0.0
C6615 C 0.26583 0.27347 0.70327 0.0
C6616 C 0.2538 0.26322 0.71087 0.0
C6617 C 0.26879 0.26947 0.6872 0.0
C6618 C 0.25975 0.25515 0.67849 0.0
C6619 C 0.24692 0.24553 0.68564 0.0
C6620 C 0.24394 0.24955 0.70184 0.0
C6621 C 0.2642 0.24994 0.66214 0.0
C6622 C 0.25294 0.24964 0.64913 0.0
C6623 C 0.27962 0.2458 0.65933 0.0
C6624 C 0.29166 0.245 0.67283 0.0
C6625 C 0.28747 0.23482 0.68538 0.0
C6626 C 0.29889 0.2339 0.69791 0.0
C6627 C 0.3146 0.243 0.69798 0.0
C6628 C 0.31893 0.25307 0.68553 0.0
C6629 C 0.30754 0.25405 0.67297 0.0
H6630 H 0.32343 0.24219 0.70764 0.0
H6631 H 0.21178 0.24338 0.58458 0.0
H6632 H 0.55567 0.47769 0.19637 0.0
H6633 H 0.54202 0.48061 0.17018 0.0
H6634 H 0.58579 0.51076 0.1564 0.0
H6635 H 0.59938 0.50789 0.18235 0.0
H6636 H 0.55923 0.52687 0.1572 0.0
H6637 H 0.57332 0.47486 0.13579 0.0
H6638 H 0.57436 0.44475 0.13496 0.0
H6639 H 0.52248 0.43297 0.13081 0.0
H6640 H 0.52106 0.46307 0.13158 0.0
H6641 H 0.5451 0.5431 0.07645 0.0
H6642 H 0.55533 0.53319 0.10122 0.0
H6643 H 0.50771 0.50572 0.10771 0.0
H6644 H 0.49738 0.51559 0.08293 0.0
H6645 H 0.53303 0.48665 0.11132 0.0
H6646 H 0.51959 0.53934 0.13148 0.0
H6647 H 0.51953 0.56956 0.13121 0.0
H6648 H 0.57142 0.57983 0.13764 0.0
H6649 H 0.5718 0.54963 0.13773 0.0
C6650 C 0.56243 0.48458 0.18755 0.0
C6651 C 0.57843 0.4929 0.19144 0.0
C6652 C 0.55466 0.48619 0.17262 0.0
C6653 C 0.56289 0.49603 0.16148 0.0
C6654 C 0.57923 0.50324 0.16492 0.0
C6655 C 0.58693 0.50168 0.17976 0.0
C6656 C 0.55412 0.50098 0.1474 0.0
C6657 C 0.55362 0.51807 0.14711 0.0
C6658 C 0.54637 0.48939 0.13455 0.0
C6659 C 0.54709 0.47126 0.13398 0.0
C6660 C 0.56211 0.46588 0.13483 0.0
C6661 C 0.56277 0.44881 0.13428 0.0
C6662 C 0.54847 0.43697 0.13283 0.0
C6663 C 0.5335 0.44218 0.13187 0.0
C6664 C 0.53277 0.45924 0.13233 0.0
C6665 C 0.53675 0.53526 0.08335 0.0
C6666 C 0.52044 0.53023 0.07788 0.0
C6667 C 0.54262 0.52947 0.09738 0.0
C6668 C 0.53226 0.51864 0.10618 0.0
C6669 C 0.51588 0.51395 0.10098 0.0
C6670 C 0.50999 0.51979 0.08698 0.0
C6671 C 0.53862 0.51258 0.12101 0.0
C6672 C 0.53853 0.49536 0.12151 0.0
C6673 C 0.54593 0.52401 0.13413 0.0
C6674 C 0.54572 0.54222 0.13452 0.0
C6675 C 0.53099 0.54804 0.13277 0.0
C6676 C 0.5309 0.56516 0.13265 0.0
C6677 C 0.54547 0.57661 0.13438 0.0
C6678 C 0.56015 0.57095 0.1363 0.0
C6679 C 0.56031 0.55383 0.13641 0.0
H6680 H 0.54537 0.58986 0.13425 0.0
H6681 H 0.549 0.42376 0.13244 0.0
H6682 H 0.2507 0.86739 0.91992 0.0
H6683 H 0.25275 0.85244 0.89342 0.0
H6684 H 0.25535 0.80728 0.91623 0.0
H6685 H 0.25413 0.82257 0.94289 0.0
H6686 H 0.27534 0.80945 0.89302 0.0
H6687 H 0.21949 0.81407 0.89625 0.0
H6688 H 0.19685 0.82907 0.90142 0.0
H6689 H 0.21043 0.8597 0.86301 0.0
H6690 H 0.23328 0.845 0.85773 0.0
H6691 H 0.24866 0.75523 0.81878 0.0
H6692 H 0.25076 0.76935 0.84645 0.0
H6693 H 0.26167 0.81729 0.82739 0.0
H6694 H 0.26007 0.80332 0.79987 0.0
H6695 H 0.23455 0.81259 0.84877 0.0
H6696 H 0.29078 0.80739 0.84615 0.0
H6697 H 0.3132 0.79195 0.84156 0.0
H6698 H 0.29761 0.76085 0.87907 0.0
H6699 H 0.27501 0.77606 0.88382 0.0
C6700 C 0.25167 0.85426 0.91922 0.0
C6701 C 0.25206 0.84603 0.93334 0.0
C6702 C 0.25281 0.8457 0.9041 0.0
C6703 C 0.25383 0.8286 0.90275 0.0
C6704 C 0.25451 0.82044 0.91693 0.0
C6705 C 0.25373 0.82912 0.93212 0.0
C6706 C 0.25392 0.81925 0.88651 0.0
C6707 C 0.26627 0.80995 0.88344 0.0
C6708 C 0.2422 0.82 0.87389 0.0
C6709 C 0.22815 0.8285 0.87666 0.0
C6710 C 0.21767 0.82403 0.88893 0.0
C6711 C 0.20481 0.83248 0.89188 0.0
C6712 C 0.20222 0.84535 0.88257 0.0
C6713 C 0.21245 0.84973 0.87022 0.0
C6714 C 0.22534 0.84132 0.86721 0.0
C6715 C 0.25177 0.76876 0.82056 0.0
C6716 C 0.25415 0.77818 0.80721 0.0
C6717 C 0.25295 0.77679 0.83632 0.0
C6718 C 0.25629 0.79434 0.8389 0.0
C6719 C 0.25906 0.80373 0.82562 0.0
C6720 C 0.2582 0.79572 0.80993 0.0
C6721 C 0.256 0.80298 0.85533 0.0
C6722 C 0.24355 0.81207 0.85842 0.0
C6723 C 0.26748 0.80185 0.86798 0.0
C6724 C 0.28109 0.79274 0.86521 0.0
C6725 C 0.29204 0.79716 0.85332 0.0
C6726 C 0.3048 0.78848 0.85071 0.0
C6727 C 0.30678 0.77537 0.85995 0.0
C6728 C 0.29604 0.77099 0.87189 0.0
C6729 C 0.28327 0.77966 0.87457 0.0
H6730 H 0.31665 0.76865 0.8579 0.0
H6731 H 0.19229 0.85191 0.8849 0.0
H6732 H 0.95821 0.53551 0.69942 0.0
H6733 H 0.97118 0.52934 0.67438 0.0
H6734 H 0.92421 0.51533 0.64863 0.0
H6735 H 0.91121 0.52091 0.67395 0.0
H6736 H 0.94193 0.49292 0.64118 0.0
H6737 H 0.94886 0.55158 0.64269 0.0
H6738 H 0.95586 0.58138 0.65307 0.0
H6739 H 0.0057 0.5767 0.66055 0.0
H6740 H -0.00102 0.54678 0.65045 0.0
H6741 H 0.96895 0.5102 0.5641 0.0
H6742 H 0.95693 0.5037 0.58933 0.0
H6743 H 0.00456 0.50687 0.61254 0.0
H6744 H 0.01679 0.51322 0.58691 0.0
H6745 H 0.98733 0.53228 0.62202 0.0
H6746 H 0.97685 0.47185 0.61377 0.0
H6747 H 0.96623 0.44424 0.59896 0.0
H6748 H 0.91813 0.45534 0.59835 0.0
H6749 H 0.92843 0.48312 0.61276 0.0
C6750 C 0.95075 0.53134 0.68833 0.0
C6751 C 0.93385 0.52867 0.68837 0.0
C6752 C 0.9581 0.52784 0.67409 0.0
C6753 C 0.94861 0.522 0.65971 0.0
C6754 C 0.93168 0.51976 0.65967 0.0
C6755 C 0.92431 0.523 0.674 0.0
C6756 C 0.9565 0.51765 0.64492 0.0
C6757 C 0.95177 0.50154 0.63683 0.0
C6758 C 0.96932 0.52895 0.63944 0.0
C6759 C 0.97337 0.54684 0.64602 0.0
C6760 C 0.96128 0.55683 0.64676 0.0
C6761 C 0.96521 0.57377 0.65254 0.0
C6762 C 0.9812 0.58091 0.65752 0.0
C6763 C 0.99331 0.57114 0.65673 0.0
C6764 C 0.98945 0.55418 0.65097 0.0
C6765 C 0.97687 0.50926 0.57453 0.0
C6766 C 0.99377 0.5129 0.57397 0.0
C6767 C 0.96996 0.5051 0.58879 0.0
C6768 C 0.97989 0.50479 0.60269 0.0
C6769 C 0.99678 0.50693 0.60178 0.0
C6770 C 0.00373 0.51085 0.58734 0.0
C6771 C 0.97301 0.50745 0.61837 0.0
C6772 C 0.97777 0.52347 0.62658 0.0
C6773 C 0.95965 0.49637 0.62328 0.0
C6774 C 0.95347 0.47967 0.61433 0.0
C6775 C 0.96403 0.4685 0.61032 0.0
C6776 C 0.95804 0.45279 0.60199 0.0
C6777 C 0.94151 0.44806 0.59765 0.0
C6778 C 0.93093 0.45903 0.60163 0.0
C6779 C 0.93683 0.47475 0.60991 0.0
H6780 H 0.93689 0.43588 0.59124 0.0
H6781 H 0.98423 0.59404 0.66196 0.0
H6782 H 0.27723 0.18854 0.41108 0.0
H6783 H 0.2765 0.20162 0.38574 0.0
H6784 H 0.27216 0.24841 0.41248 0.0
H6785 H 0.27204 0.23498 0.43781 0.0
H6786 H 0.25264 0.24414 0.3874 0.0
H6787 H 0.30877 0.2409 0.39442 0.0
H6788 H 0.33217 0.22718 0.39972 0.0
H6789 H 0.31792 0.19275 0.35722 0.0
H6790 H 0.29435 0.20619 0.35173 0.0
H6791 H 0.27279 0.29386 0.32239 0.0
H6792 H 0.27544 0.28081 0.34759 0.0
H6793 H 0.26437 0.23195 0.32091 0.0
H6794 H 0.26118 0.245 0.29563 0.0
H6795 H 0.29222 0.23776 0.34566 0.0
H6796 H 0.23583 0.24266 0.33918 0.0
H6797 H 0.2135 0.25802 0.3344 0.0
H6798 H 0.22995 0.29162 0.37702 0.0
H6799 H 0.25257 0.27662 0.38189 0.0
C6800 C 0.27628 0.20166 0.41153 0.0
C6801 C 0.27478 0.21079 0.42637 0.0
C6802 C 0.27593 0.20918 0.39704 0.0
C6803 C 0.27458 0.22615 0.39712 0.0
C6804 C 0.27322 0.23533 0.41203 0.0
C6805 C 0.27321 0.22768 0.4265 0.0
C6806 C 0.27406 0.23411 0.38161 0.0
C6807 C 0.26147 0.24293 0.37842 0.0
C6808 C 0.28539 0.23239 0.36967 0.0
C6809 C 0.29973 0.22448 0.37273 0.0
C6810 C 0.31059 0.23037 0.38624 0.0
C6811 C 0.32389 0.22264 0.38927 0.0
C6812 C 0.32651 0.20908 0.37883 0.0
C6813 C 0.31587 0.20326 0.36529 0.0
C6814 C 0.30256 0.21095 0.36219 0.0
C6815 C 0.27103 0.28034 0.32186 0.0
C6816 C 0.26695 0.27043 0.30702 0.0
C6817 C 0.27253 0.27291 0.33627 0.0
C6818 C 0.27009 0.25543 0.33611 0.0
C6819 C 0.2664 0.24548 0.32126 0.0
C6820 C 0.26466 0.25292 0.30683 0.0
C6821 C 0.27085 0.24765 0.35158 0.0
C6822 C 0.28346 0.23893 0.35472 0.0
C6823 C 0.25972 0.24971 0.36359 0.0
C6824 C 0.246 0.25861 0.3608 0.0
C6825 C 0.23477 0.2534 0.34746 0.0
C6826 C 0.22205 0.26203 0.34474 0.0
C6827 C 0.22033 0.27581 0.35538 0.0
C6828 C 0.23131 0.28095 0.36878 0.0
C6829 C 0.24408 0.27239 0.37152 0.0
H6830 H 0.21047 0.28247 0.35326 0.0
H6831 H 0.33679 0.20309 0.38122 0.0
H6832 H 0.34844 0.61257 0.48321 0.0
H6833 H 0.3698 0.5958 0.48068 0.0
H6834 H 0.34199 0.55775 0.50611 0.0
H6835 H 0.32048 0.5744 0.50857 0.0
H6836 H 0.37287 0.56915 0.51966 0.0
H6837 H 0.34784 0.54986 0.46572 0.0
H6838 H 0.33708 0.55441 0.43863 0.0
H6839 H 0.38341 0.58209 0.42898 0.0
H6840 H 0.39442 0.57782 0.45605 0.0
H6841 H 0.43076 0.51567 0.51609 0.0
H6842 H 0.40562 0.52703 0.51404 0.0
H6843 H 0.42681 0.5607 0.48029 0.0
H6844 H 0.45151 0.54893 0.4818 0.0
H6845 H 0.39778 0.54977 0.47003 0.0
H6846 H 0.42029 0.57851 0.52143 0.0
H6847 H 0.43261 0.58273 0.54932 0.0
H6848 H 0.39513 0.54498 0.56376 0.0
H6849 H 0.38219 0.54109 0.536 0.0
C6850 C 0.34671 0.60047 0.48796 0.0
C6851 C 0.33286 0.59486 0.49623 0.0
C6852 C 0.35891 0.59089 0.48646 0.0
C6853 C 0.35739 0.57549 0.49311 0.0
C6854 C 0.34334 0.5696 0.50089 0.0
C6855 C 0.33115 0.57917 0.50239 0.0
C6856 C 0.37118 0.56646 0.49355 0.0
C6857 C 0.37807 0.56449 0.50879 0.0
C6858 C 0.37847 0.56132 0.47938 0.0
C6859 C 0.37193 0.56356 0.46295 0.0
C6860 C 0.35572 0.55696 0.45784 0.0
C6861 C 0.34958 0.55948 0.44248 0.0
C6862 C 0.35955 0.56855 0.4321 0.0
C6863 C 0.37571 0.57506 0.43702 0.0
C6864 C 0.38191 0.57255 0.45236 0.0
C6865 C 0.42993 0.52539 0.50816 0.0
C6866 C 0.44299 0.53136 0.49904 0.0
C6867 C 0.41566 0.532 0.5071 0.0
C6868 C 0.41437 0.5449 0.49716 0.0
C6869 C 0.42743 0.55072 0.48797 0.0
C6870 C 0.44156 0.54397 0.48886 0.0
C6871 C 0.39945 0.55231 0.49621 0.0
C6872 C 0.39239 0.55407 0.4809 0.0
C6873 C 0.39233 0.55795 0.5103 0.0
C6874 C 0.40049 0.55929 0.52664 0.0
C6875 C 0.4148 0.57098 0.53052 0.0
C6876 C 0.42182 0.5734 0.54633 0.0
C6877 C 0.41482 0.56395 0.55828 0.0
C6878 C 0.40061 0.55221 0.55448 0.0
C6879 C 0.39335 0.54999 0.53874 0.0
H6880 H 0.42032 0.56581 0.57051 0.0
H6881 H 0.35477 0.57052 0.42023 0.0
H6882 H 0.84363 0.91123 0.51438 0.0
H6883 H 0.87107 0.92697 0.51318 0.0
H6884 H 0.85234 0.97317 0.51607 0.0
H6885 H 0.82476 0.95725 0.51626 0.0
H6886 H 0.87462 0.97628 0.49654 0.0
H6887 H 0.87306 0.9576 0.54985 0.0
H6888 H 0.86831 0.9369 0.56987 0.0
H6889 H 0.90382 0.91077 0.54902 0.0
H6890 H 0.90867 0.93123 0.52877 0.0
H6891 H 0.95059 0.02933 0.5246 0.0
H6892 H 0.92283 0.01333 0.52254 0.0
H6893 H 0.94072 0.96851 0.50661 0.0
H6894 H 0.96841 0.9845 0.50827 0.0
H6895 H 0.91934 0.96475 0.53247 0.0
H6896 H 0.92135 0.9852 0.47984 0.0
H6897 H 0.92591 0.00677 0.46068 0.0
H6898 H 0.88926 0.03097 0.48185 0.0
H6899 H 0.88465 0.00969 0.50132 0.0
C6900 C 0.8454 0.92475 0.51477 0.0
C6901 C 0.83207 0.93301 0.51553 0.0
C6902 C 0.86114 0.9338 0.5142 0.0
C6903 C 0.86402 0.95141 0.51495 0.0
C6904 C 0.8506 0.95964 0.51551 0.0
C6905 C 0.83482 0.95054 0.51568 0.0
C6906 C 0.88093 0.96123 0.51513 0.0
C6907 C 0.88429 0.97387 0.5046 0.0
C6908 C 0.89383 0.95804 0.52538 0.0
C6909 C 0.89113 0.94588 0.53772 0.0
C6910 C 0.87981 0.9474 0.5495 0.0
C6911 C 0.8771 0.93571 0.56089 0.0
C6912 C 0.88573 0.92251 0.56069 0.0
C6913 C 0.89713 0.921 0.54915 0.0
C6914 C 0.89989 0.93266 0.53773 0.0
C6915 C 0.94858 0.0161 0.52049 0.0
C6916 C 0.96171 0.0082 0.5166 0.0
C6917 C 0.9327 0.00697 0.51931 0.0
C6918 C 0.92964 0.98968 0.51443 0.0
C6919 C 0.94275 0.98181 0.51042 0.0
C6920 C 0.95857 0.99099 0.51131 0.0
C6921 C 0.91287 0.97975 0.51398 0.0
C6922 C 0.90959 0.96712 0.52446 0.0
C6923 C 0.90003 0.98313 0.50388 0.0
C6924 C 0.90278 0.99594 0.49217 0.0
C6925 C 0.91437 0.99521 0.48052 0.0
C6926 C 0.91694 0.00737 0.46957 0.0
C6927 C 0.90791 0.02026 0.47007 0.0
C6928 C 0.89626 0.02099 0.48149 0.0
C6929 C 0.89366 0.00888 0.49248 0.0
H6930 H 0.90992 0.02965 0.46159 0.0
H6931 H 0.8836 0.91346 0.5695 0.0
H6932 H 0.85425 0.12737 0.23959 0.0
H6933 H 0.83981 0.15097 0.24293 0.0
H6934 H 0.81148 0.12673 0.27903 0.0
H6935 H 0.82574 0.10296 0.27563 0.0
H6936 H 0.79338 0.14046 0.25452 0.0
H6937 H 0.84189 0.15656 0.29115 0.0
H6938 H 0.87159 0.16006 0.29531 0.0
H6939 H 0.8774 0.19684 0.26105 0.0
H6940 H 0.84775 0.19331 0.25641 0.0
H6941 H 0.75722 0.2108 0.27736 0.0
H6942 H 0.77088 0.18656 0.27843 0.0
H6943 H 0.811 0.21248 0.25441 0.0
H6944 H 0.79793 0.23689 0.2544 0.0
H6945 H 0.82297 0.19709 0.27502 0.0
H6946 H 0.77956 0.18097 0.23447 0.0
H6947 H 0.7513 0.1764 0.22321 0.0
H6948 H 0.73736 0.1406 0.25727 0.0
H6949 H 0.76554 0.14512 0.26888 0.0
C6950 C 0.84485 0.127 0.24814 0.0
C6951 C 0.84114 0.11334 0.25737 0.0
C6952 C 0.83669 0.14052 0.25009 0.0
C6953 C 0.82468 0.1406 0.2613 0.0
C6954 C 0.82075 0.12688 0.27035 0.0
C6955 C 0.82898 0.1134 0.26848 0.0
C6956 C 0.81633 0.1551 0.2637 0.0
C6957 C 0.79974 0.15281 0.25927 0.0
C6958 C 0.82484 0.17128 0.26931 0.0
C6959 C 0.84259 0.17449 0.27327 0.0
C6960 C 0.8495 0.16537 0.28448 0.0
C6961 C 0.86633 0.1673 0.28686 0.0
C6962 C 0.87636 0.17845 0.27823 0.0
C6963 C 0.8696 0.18806 0.26756 0.0
C6964 C 0.85279 0.18612 0.26508 0.0
C6965 C 0.76897 0.21123 0.2724 0.0
C6966 C 0.77655 0.22561 0.26579 0.0
C6967 C 0.77676 0.1974 0.27294 0.0
C6968 C 0.79191 0.19755 0.26628 0.0
C6969 C 0.79941 0.21202 0.25974 0.0
C6970 C 0.79189 0.22595 0.25965 0.0
C6971 C 0.7999 0.18259 0.26565 0.0
C6972 C 0.81646 0.18475 0.27046 0.0
C6973 C 0.79152 0.16641 0.25969 0.0
C6974 C 0.77461 0.16352 0.25266 0.0
C6975 C 0.77044 0.1722 0.23962 0.0
C6976 C 0.75445 0.16961 0.23317 0.0
C6977 C 0.74253 0.15825 0.23956 0.0
C6978 C 0.7466 0.14941 0.25237 0.0
C6979 C 0.76258 0.15198 0.25888 0.0
H6980 H 0.73015 0.15627 0.23456 0.0
H6981 H 0.88938 0.17976 0.27992 0.0
H6982 H 0.69111 0.07595 0.02047 0.0
H6983 H 0.66333 0.06145 0.01986 0.0
H6984 H 0.65606 0.07085 0.96986 0.0
H6985 H 0.68357 0.08674 0.97084 0.0
H6986 H 0.6346 0.08175 0.9867 0.0
H6987 H 0.65333 0.02963 0.98202 0.0
H6988 H 0.67082 0.00938 0.98829 0.0
H6989 H 0.65565 0.01038 0.03705 0.0
H6990 H 0.63819 0.03077 0.03114 0.0
H6991 H 0.55472 0.0398 0.98435 0.0
H6992 H 0.58322 0.04716 0.98036 0.0
H6993 H 0.59436 0.04776 0.03173 0.0
H6994 H 0.56542 0.03962 0.03594 0.0
H6995 H 0.61309 0.02982 0.01153 0.0
H6996 H 0.59722 0.08429 0.01674 0.0
H6997 H 0.5783 0.10305 0.01038 0.0
H6998 H 0.58741 0.09631 0.9599 0.0
H6999 H 0.60636 0.07733 0.96601 0.0
C7000 C 0.68364 0.07481 0.0093 0.0
C7001 C 0.68933 0.08278 0.99584 0.0
C7002 C 0.66786 0.06621 0.00885 0.0
C7003 C 0.65771 0.06496 0.99476 0.0
C7004 C 0.66378 0.07169 0.98083 0.0
C7005 C 0.67951 0.08066 0.98139 0.0
C7006 C 0.64026 0.05913 0.9956 0.0
C7007 C 0.62987 0.07018 0.99175 0.0
C7008 C 0.63419 0.04428 0.00261 0.0
C7009 C 0.64449 0.03179 0.00613 0.0
C7010 C 0.65377 0.02559 0.9941 0.0
C7011 C 0.66367 0.01407 -0.00241 0.0
C7012 C 0.66436 0.00861 0.01306 0.0
C7013 C 0.65509 0.01461 0.02506 0.0
C7014 C 0.64515 0.02611 0.02163 0.0
C7015 C 0.56311 0.04138 0.99488 0.0
C7016 C 0.55785 0.03892 0.01047 0.0
C7017 C 0.5794 0.0457 0.99254 0.0
C7018 C 0.59068 0.04804 0.00576 0.0
C7019 C 0.58562 0.04591 0.02143 0.0
C7020 C 0.56919 0.04137 0.0238 0.0
C7021 C 0.60781 0.05256 0.00293 0.0
C7022 C 0.61797 0.04126 0.00633 0.0
C7023 C 0.61368 0.0671 0.99544 0.0
C7024 C 0.60318 0.07938 0.99184 0.0
C7025 C 0.59522 0.08685 0.00429 0.0
C7026 C 0.58447 0.09751 0.00072 0.0
C7027 C 0.58162 0.10089 0.98473 0.0
C7028 C 0.58965 0.09371 0.97229 0.0
C7029 C 0.60044 0.08304 0.97581 0.0
H7030 H 0.57321 0.10906 0.98198 0.0
H7031 H 0.67206 -0.00028 0.01574 0.0
H7032 H 0.15974 0.42506 0.24906 0.0
H7033 H 0.17546 0.40318 0.25424 0.0
H7034 H 0.20717 0.43782 0.28897 0.0
H7035 H 0.1912 0.45968 0.28406 0.0
H7036 H 0.22231 0.4195 0.26353 0.0
H7037 H 0.1849 0.41073 0.30475 0.0
H7038 H 0.15803 0.4072 0.31606 0.0
H7039 H 0.14243 0.36223 0.28423 0.0
H7040 H 0.16913 0.36562 0.27251 0.0
H7041 H 0.26194 0.35145 0.27846 0.0
H7042 H 0.24837 0.3754 0.2844 0.0
H7043 H 0.20635 0.34994 0.25463 0.0
H7044 H 0.21976 0.326 0.24873 0.0
H7045 H 0.1984 0.3656 0.28366 0.0
H7046 H 0.23171 0.37767 0.23859 0.0
H7047 H 0.25762 0.38011 0.22539 0.0
H7048 H 0.27967 0.41809 0.26282 0.0
H7049 H 0.25389 0.41569 0.27637 0.0
C7050 C 0.17009 0.42794 0.25775 0.0
C7051 C 0.17443 0.44389 0.26613 0.0
C7052 C 0.17893 0.41549 0.2608 0.0
C7053 C 0.19227 0.41897 0.2721 0.0
C7054 C 0.19679 0.43499 0.28032 0.0
C7055 C 0.18776 0.44738 0.27749 0.0
C7056 C 0.20193 0.40596 0.27452 0.0
C7057 C 0.21732 0.40788 0.26837 0.0
C7058 C 0.19509 0.39076 0.2805 0.0
C7059 C 0.17902 0.38852 0.28764 0.0
C7060 C 0.17571 0.40016 0.30005 0.0
C7061 C 0.16051 0.39817 0.30656 0.0
C7062 C 0.14852 0.38452 0.30084 0.0
C7063 C 0.15173 0.3728 0.28864 0.0
C7064 C 0.16691 0.37474 0.28207 0.0
C7065 C 0.2499 0.3511 0.27304 0.0
C7066 C 0.24195 0.33708 0.26295 0.0
C7067 C 0.24212 0.36464 0.27659 0.0
C7068 C 0.22639 0.3643 0.26998 0.0
C7069 C 0.21845 0.3503 0.25993 0.0
C7070 C 0.22621 0.33679 0.25638 0.0
C7071 C 0.21863 0.37907 0.27239 0.0
C7072 C 0.20359 0.37742 0.27934 0.0
C7073 C 0.22564 0.39447 0.26695 0.0
C7074 C 0.24096 0.3964 0.25855 0.0
C7075 C 0.24211 0.3865 0.24403 0.0
C7076 C 0.25676 0.38786 0.23649 0.0
C7077 C 0.2703 0.39922 0.24329 0.0
C7078 C 0.26918 0.40929 0.25759 0.0
C7079 C 0.25455 0.40794 0.26519 0.0
H7080 H 0.28165 0.40023 0.23745 0.0
H7081 H 0.13675 0.38301 0.30589 0.0
H7082 H 0.18816 0.45182 0.01259 0.0
H7083 H 0.16496 0.46596 0.00925 0.0
H7084 H 0.13253 0.41841 0.00728 0.0
H7085 H 0.1559 0.4042 0.00967 0.0
H7086 H 0.12095 0.43598 0.98707 0.0
H7087 H 0.14006 0.44771 0.04288 0.0
H7088 H 0.15981 0.45736 0.06615 0.0
H7089 H 0.16921 0.50656 0.05001 0.0
H7090 H 0.1496 0.49715 0.02657 0.0
H7091 H 0.05061 0.4686 0.0089 0.0
H7092 H 0.07394 0.45449 0.00684 0.0
H7093 H 0.10534 0.50219 0.00544 0.0
H7094 H 0.08199 0.51642 0.00814 0.0
H7095 H 0.11746 0.48472 0.02618 0.0
H7096 H 0.09564 0.47163 0.97049 0.0
H7097 H 0.07431 0.46066 0.94889 0.0
H7098 H 0.06791 0.41233 0.96698 0.0
H7099 H 0.08917 0.42302 0.98869 0.0
C7100 C 0.17606 0.44444 0.01137 0.0
C7101 C 0.17374 0.42699 0.0115 0.0
C7102 C 0.16279 0.45251 0.00956 0.0
C7103 C 0.14689 0.44335 0.0084 0.0
C7104 C 0.14462 0.42581 0.00819 0.0
C7105 C 0.15794 0.41769 0.00962 0.0
C7106 C 0.13269 0.45209 0.00778 0.0
C7107 C 0.12013 0.44654 0.99573 0.0
C7108 C 0.13159 0.46603 0.01892 0.0
C7109 C 0.1435 0.47168 0.0329 0.0
C7110 C 0.14644 0.46055 0.04424 0.0
C7111 C 0.15758 0.46598 0.05747 0.0
C7112 C 0.16579 0.48255 0.05953 0.0
C7113 C 0.16285 0.49373 0.04839 0.0
C7114 C 0.15171 0.48836 0.03514 0.0
C7115 C 0.0625 0.47607 0.00811 0.0
C7116 C 0.06455 0.49361 0.00881 0.0
C7117 C 0.07581 0.46797 0.00674 0.0
C7118 C 0.09142 0.47721 0.00569 0.0
C7119 C 0.09343 0.49476 0.00619 0.0
C7120 C 0.08012 0.5029 0.00781 0.0
C7121 C 0.10577 0.46872 0.00542 0.0
C7122 C 0.11835 0.47428 0.01739 0.0
C7123 C 0.10667 0.45462 0.99441 0.0
C7124 C 0.09393 0.44817 0.98129 0.0
C7125 C 0.08963 0.45869 0.96991 0.0
C7126 C 0.07758 0.4525 0.95762 0.0
C7127 C 0.06975 0.43582 0.95658 0.0
C7128 C 0.074 0.42525 0.96778 0.0
C7129 C 0.08608 0.43135 0.98005 0.0
H7130 H 0.0604 0.43107 0.94708 0.0
H7131 H 0.1744 0.48673 0.06979 0.0
H7132 H 0.82111 0.95845 0.2711 0.0
H7133 H 0.8075 0.92954 0.27233 0.0
H7134 H 0.8331 0.91351 0.23159 0.0
H7135 H 0.84677 0.94238 0.23031 0.0
H7136 H 0.80172 0.89856 0.22869 0.0
H7137 H 0.84489 0.9078 0.27043 0.0
H7138 H 0.86069 0.92262 0.2948 0.0
H7139 H 0.81869 0.91353 0.32257 0.0
H7140 H 0.80256 0.89886 0.2983 0.0
H7141 H 0.78253 0.81121 0.2361 0.0
H7142 H 0.79733 0.83977 0.23462 0.0
H7143 H 0.77587 0.85646 0.27805 0.0
H7144 H 0.7616 0.82778 0.27977 0.0
H7145 H 0.8057 0.87115 0.2794 0.0
H7146 H 0.7622 0.86276 0.23826 0.0
H7147 H 0.74544 0.84934 0.2139 0.0
H7148 H 0.78679 0.85774 0.18516 0.0
H7149 H 0.80387 0.87102 0.2094 0.0
C7150 C 0.8239 0.94876 0.26244 0.0
C7151 C 0.8351 0.95275 0.25065 0.0
C7152 C 0.8161 0.93223 0.26315 0.0
C7153 C 0.81944 0.91927 0.2522 0.0
C7154 C 0.83032 0.92327 0.24018 0.0
C7155 C 0.83809 0.93981 0.23943 0.0
C7156 C 0.8117 0.90154 0.25333 0.0
C7157 C 0.80277 0.89247 0.2397 0.0
C7158 C 0.81273 0.89371 0.26783 0.0
C7159 C 0.82247 0.90236 0.2825 0.0
C7160 C 0.83899 0.90905 0.28171 0.0
C7161 C 0.84801 0.91742 0.29551 0.0
C7162 C 0.84069 0.91905 0.31022 0.0
C7163 C 0.82434 0.91227 0.31117 0.0
C7164 C 0.81525 0.90392 0.29739 0.0
C7165 C 0.78124 0.82099 0.24543 0.0
C7166 C 0.77112 0.8174 0.25812 0.0
C7167 C 0.78953 0.83733 0.2445 0.0
C7168 C 0.78753 0.85043 0.25606 0.0
C7169 C 0.77765 0.84665 0.26897 0.0
C7170 C 0.76951 0.83029 0.26997 0.0
C7171 C 0.7956 0.86807 0.25474 0.0
C7172 C 0.80464 0.87716 0.26835 0.0
C7173 C 0.79455 0.87596 0.24024 0.0
C7174 C 0.78436 0.8677 0.2257 0.0
C7175 C 0.76776 0.86159 0.22679 0.0
C7176 C 0.7582 0.85404 0.21299 0.0
C7177 C 0.76506 0.85264 0.19801 0.0
C7178 C 0.7815 0.8588 0.19678 0.0
C7179 C 0.79113 0.86634 0.21054 0.0
H7180 H 0.75762 0.84682 0.18734 0.0
H7181 H 0.8477 0.92554 0.32089 0.0
H7182 H 0.66006 0.10404 0.76595 0.0
H7183 H 0.67742 0.13114 0.76401 0.0
H7184 H 0.71941 0.11045 0.77787 0.0
H7185 H 0.70192 0.0833 0.78007 0.0
H7186 H 0.7177 0.14339 0.79262 0.0
H7187 H 0.71162 0.11213 0.739 0.0
H7188 H 0.69503 0.09594 0.71569 0.0
H7189 H 0.67085 0.13742 0.70931 0.0
H7190 H 0.68716 0.15377 0.73267 0.0
H7191 H 0.76762 0.21669 0.7723 0.0
H7192 H 0.75661 0.18721 0.77484 0.0
H7193 H 0.71341 0.1918 0.74645 0.0
H7194 H 0.72502 0.22069 0.7429 0.0
H7195 H 0.7192 0.16422 0.73823 0.0
H7196 H 0.7158 0.19251 0.79104 0.0
H7197 H 0.72166 0.20704 0.81859 0.0
H7198 H 0.75448 0.17406 0.82955 0.0
H7199 H 0.74878 0.15931 0.80206 0.0
C7200 C 0.67297 0.10549 0.76888 0.0
C7201 C 0.67987 0.09191 0.77309 0.0
C7202 C 0.68281 0.12079 0.76766 0.0
C7203 C 0.6996 0.12245 0.7704 0.0
C7204 C 0.70643 0.10916 0.77557 0.0
C7205 C 0.69653 0.09383 0.7769 0.0
C7206 C 0.71 0.13803 0.76741 0.0
C7207 C 0.71844 0.14793 0.78071 0.0
C7208 C 0.71012 0.14392 0.75192 0.0
C7209 C 0.70062 0.13416 0.73761 0.0
C7210 C 0.70274 0.11777 0.73265 0.0
C7211 C 0.69338 0.10857 0.71943 0.0
C7212 C 0.6819 0.11565 0.71102 0.0
C7213 C 0.67977 0.13196 0.7158 0.0
C7214 C 0.68909 0.14121 0.72901 0.0
C7215 C 0.75599 0.21109 0.76626 0.0
C7216 C 0.74715 0.22058 0.75723 0.0
C7217 C 0.7496 0.19444 0.76794 0.0
C7218 C 0.73406 0.18742 0.76112 0.0
C7219 C 0.72548 0.19691 0.75173 0.0
C7220 C 0.7321 0.21334 0.7496 0.0
C7221 C 0.72658 0.17021 0.76367 0.0
C7222 C 0.71883 0.15978 0.75018 0.0
C7223 C 0.7263 0.16423 0.7792 0.0
C7224 C 0.732 0.17494 0.79444 0.0
C7225 C 0.72457 0.18863 0.79919 0.0
C7226 C 0.72772 0.19677 0.81486 0.0
C7227 C 0.73829 0.19132 0.82586 0.0
C7228 C 0.74621 0.17816 0.82104 0.0
C7229 C 0.74304 0.16993 0.80543 0.0
H7230 H 0.74031 0.19722 0.83816 0.0
H7231 H 0.67466 0.10849 0.70081 0.0
loop_
_geom_bond_atom_site_label_1
_geom_bond_atom_site_label_2
_geom_bond_distance
_geom_bond_site_symmetry_2
_ccdc_geom_bond_type
Li0 N17 1.990 . S
Li0 O60 1.956 1_655 S
Li0 O61 1.970 . S
Li0 O62 1.961 1_655 S
Li1 N25 1.990 . S
Li1 O60 1.970 . S
Li1 O61 1.956 1_455 S
Li1 O63 1.961 . S
Li2 N47 1.990 . S
Li2 O60 1.961 . S
Li2 O62 1.956 . S
Li2 O63 1.970 . S
Li3 N53 1.990 . S
Li3 O61 1.961 1_455 S
Li3 O62 1.970 . S
Li3 O63 1.956 . S
C4 C6 1.348 . S
C4 C7 1.356 . S
C4 O60 1.325 . S
N5 C8 1.314 . S
N5 C9 1.279 . S
C6 C4 1.348 . S
C6 C8 1.353 . S
C6 H64 0.929 . S
C7 C4 1.356 . S
C7 C9 1.358 . S
C7 H65 0.930 . S
C8 N5 1.314 . S
C8 C6 1.353 . S
C8 H66 0.930 . S
C9 N5 1.279 . S
C9 C7 1.358 . S
C9 H67 0.930 . S
C10 C13 1.348 . S
C10 C14 1.356 . S
C10 O61 1.325 . S
C11 N12 1.279 . S
C11 C14 1.358 . S
C11 H68 0.930 . S
N12 C11 1.279 . S
N12 C15 1.314 . S
C13 C10 1.348 . S
C13 C15 1.353 . S
C13 H69 0.929 . S
C14 C10 1.356 . S
C14 C11 1.358 . S
C14 H70 0.930 . S
C15 N12 1.314 . S
C15 C13 1.353 . S
C15 H71 0.930 . S
C16 N17 1.314 . S
C16 C21 1.353 . S
C16 H22 0.930 . S
N17 Li0 1.990 . S
N17 C16 1.314 . S
N17 C19 1.279 . S
C18 C19 1.358 . S
C18 C20 1.356 . S
C18 H72 0.930 . S
C19 N17 1.279 . S
C19 C18 1.358 . S
C19 H23 0.930 . S
C20 C18 1.356 . S
C20 C21 1.348 . S
C21 C16 1.353 . S
C21 C20 1.348 . S
C21 H73 0.929 . S
H22 C16 0.930 . S
H23 C19 0.930 . S
C24 N25 1.314 . S
C24 C26 1.353 . S
C24 H30 0.930 . S
N25 Li1 1.990 . S
N25 C24 1.314 . S
N25 C28 1.279 . S
C26 C24 1.353 . S
C26 C29 1.348 . S
C26 H74 0.929 . S
C27 C28 1.358 . S
C27 C29 1.356 . S
C27 H75 0.930 1_455 S
C28 N25 1.279 . S
C28 C27 1.358 . S
C28 H31 0.930 1_455 S
C29 C26 1.348 . S
C29 C27 1.356 . S
H30 C24 0.930 . S
H31 C28 0.930 1_655 S
C32 C34 1.348 . S
C32 C35 1.356 . S
C32 O62 1.325 . S
N33 C36 1.314 . S
N33 C37 1.279 . S
C34 C32 1.348 . S
C34 C36 1.353 . S
C34 H76 0.929 . S
C35 C32 1.356 . S
C35 C37 1.358 . S
C35 H77 0.930 . S
C36 N33 1.314 . S
C36 C34 1.353 . S
C36 H78 0.930 . S
C37 N33 1.279 . S
C37 C35 1.358 . S
C37 H79 0.942 . S
C38 C39 1.348 . S
C38 C40 1.356 . S
C38 O63 1.325 . S
C39 C38 1.348 . S
C39 C41 1.353 . S
C39 H80 0.929 . S
C40 C38 1.356 . S
C40 C42 1.358 . S
C40 H81 0.930 . S
C41 C39 1.353 . S
C41 N43 1.314 . S
C41 H82 0.930 . S
C42 C40 1.358 . S
C42 N43 1.279 . S
C42 H83 0.930 . S
N43 C41 1.314 . S
N43 C42 1.279 . S
C44 C46 1.353 . S
C44 N47 1.314 . S
C44 H50 0.930 . S
C45 N47 1.279 . S
C45 C48 1.358 . S
C45 H51 0.930 . S
C46 C44 1.353 . S
C46 C49 1.348 . S
C46 H84 0.929 . S
N47 Li2 1.990 . S
N47 C44 1.314 . S
N47 C45 1.279 . S
C48 C45 1.358 . S
C48 C49 1.356 . S
C48 H85 0.930 . S
C49 C46 1.348 . S
C49 C48 1.356 . S
H50 C44 0.930 . S
H51 C45 0.930 . S
C52 N53 1.314 1_655 S
C52 C54 1.353 . S
C52 H58 0.930 . S
N53 Li3 1.990 . S
N53 C52 1.314 1_455 S
N53 C56 1.279 . S
C54 C52 1.353 . S
C54 C57 1.348 1_655 S
C54 H86 0.929 . S
C55 C56 1.358 . S
C55 C57 1.356 . S
C55 H87 0.930 . S
C56 N53 1.279 . S
C56 C55 1.358 . S
C56 H59 0.930 . S
C57 C54 1.348 1_455 S
C57 C55 1.356 . S
H58 C52 0.930 . S
H59 C56 0.930 . S
O60 Li0 1.956 1_455 S
O60 Li1 1.970 . S
O60 Li2 1.961 . S
O60 C4 1.325 . S
O61 Li0 1.970 . S
O61 Li1 1.956 1_655 S
O61 Li3 1.961 1_655 S
O61 C10 1.325 . S
O62 Li0 1.961 1_455 S
O62 Li2 1.956 . S
O62 Li3 1.970 . S
O62 C32 1.325 . S
O63 Li1 1.961 . S
O63 Li2 1.970 . S
O63 Li3 1.956 . S
O63 C38 1.325 . S
H64 C6 0.929 . S
H65 C7 0.930 . S
H66 C8 0.930 . S
H67 C9 0.930 . S
H68 C11 0.930 . S
H69 C13 0.929 . S
H70 C14 0.930 . S
H71 C15 0.930 . S
H72 C18 0.930 . S
H73 C21 0.929 . S
H74 C26 0.929 . S
H75 C27 0.930 1_655 S
H76 C34 0.929 . S
H77 C35 0.930 . S
H78 C36 0.930 . S
H79 C37 0.942 . S
H80 C39 0.929 . S
H81 C40 0.930 . S
H82 C41 0.930 . S
H83 C42 0.930 . S
H84 C46 0.929 . S
H85 C48 0.930 . S
H86 C54 0.929 . S
H87 C55 0.930 . S
Li88 N105 1.990 . S
Li88 O148 1.956 . S
Li88 O149 1.970 . S
Li88 O150 1.961 1_455 S
Li89 N113 1.990 . S
Li89 O148 1.970 . S
Li89 O149 1.956 . S
Li89 O151 1.961 . S
Li90 N135 1.990 . S
Li90 O148 1.961 . S
Li90 O150 1.956 1_455 S
Li90 O151 1.970 . S
Li91 N141 1.990 . S
Li91 O149 1.961 1_655 S
Li91 O150 1.970 . S
Li91 O151 1.956 1_655 S
C92 C94 1.348 . S
C92 C95 1.356 . S
C92 O148 1.325 . S
N93 C96 1.314 . S
N93 C97 1.279 . S
C94 C92 1.348 . S
C94 C96 1.353 . S
C94 H152 0.929 . S
C95 C92 1.356 . S
C95 C97 1.358 . S
C95 H153 0.930 . S
C96 N93 1.314 . S
C96 C94 1.353 . S
C96 H154 0.930 . S
C97 N93 1.279 . S
C97 C95 1.358 . S
C97 H155 0.930 . S
C98 C101 1.348 . S
C98 C102 1.356 . S
C98 O149 1.325 . S
C99 N100 1.279 . S
C99 C102 1.358 . S
C99 H156 0.930 . S
N100 C99 1.279 . S
N100 C103 1.314 . S
C101 C98 1.348 . S
C101 C103 1.353 . S
C101 H157 0.929 . S
C102 C98 1.356 . S
C102 C99 1.358 . S
C102 H158 0.930 . S
C103 N100 1.314 . S
C103 C101 1.353 . S
C103 H159 0.930 . S
C104 N105 1.314 1_655 S
C104 C109 1.353 . S
C104 H110 0.930 . S
N105 Li88 1.990 . S
N105 C104 1.314 1_455 S
N105 C107 1.279 . S
C106 C107 1.358 . S
C106 C108 1.356 . S
C106 H160 0.930 . S
C107 N105 1.279 . S
C107 C106 1.358 . S
C107 H111 0.930 . S
C108 C106 1.356 . S
C108 C109 1.348 1_455 S
C109 C104 1.353 . S
C109 C108 1.348 1_655 S
C109 H161 0.929 . S
H110 C104 0.930 . S
H111 C107 0.930 . S
C112 N113 1.314 . S
C112 C114 1.353 . S
C112 H118 0.930 . S
N113 Li89 1.990 . S
N113 C112 1.314 . S
N113 C116 1.279 . S
C114 C112 1.353 . S
C114 C117 1.348 . S
C114 H162 0.929 . S
C115 C116 1.358 . S
C115 C117 1.356 . S
C115 H163 0.930 . S
C116 N113 1.279 . S
C116 C115 1.358 . S
C116 H119 0.930 . S
C117 C114 1.348 . S
C117 C115 1.356 . S
H118 C112 0.930 . S
H119 C116 0.930 . S
C120 C122 1.348 . S
C120 C123 1.356 . S
C120 O150 1.325 . S
N121 C124 1.314 . S
N121 C125 1.279 . S
C122 C120 1.348 . S
C122 C124 1.353 . S
C122 H164 0.929 . S
C123 C120 1.356 . S
C123 C125 1.358 . S
C123 H165 0.930 . S
C124 N121 1.314 . S
C124 C122 1.353 . S
C124 H166 0.930 . S
C125 N121 1.279 . S
C125 C123 1.358 . S
C125 H167 0.930 . S
C126 C127 1.344 1_455 S
C126 C128 1.356 . S
C126 O151 1.325 . S
C127 C126 1.344 1_655 S
C127 C129 1.352 . S
C127 H168 0.935 . S
C128 C126 1.356 . S
C128 C130 1.358 . S
C128 H169 0.930 . S
C129 C127 1.352 . S
C129 N131 1.314 1_655 S
C129 H170 0.930 . S
C130 C128 1.358 . S
C130 N131 1.279 . S
C130 H171 0.930 . S
N131 C129 1.314 1_455 S
N131 C130 1.279 . S
C132 C134 1.353 . S
C132 N135 1.314 . S
C132 H138 0.930 . S
C133 N135 1.279 1_655 S
C133 C136 1.358 . S
C133 H139 0.930 . S
C134 C132 1.353 . S
C134 C137 1.372 . S
C134 H172 0.929 . S
N135 Li90 1.990 . S
N135 C132 1.314 . S
N135 C133 1.279 1_455 S
C136 C133 1.358 . S
C136 C137 1.330 1_655 S
C136 H173 0.930 . S
C137 C134 1.372 . S
C137 C136 1.330 1_455 S
H138 C132 0.930 . S
H139 C133 0.930 . S
C140 N141 1.314 . S
C140 C142 1.353 . S
C140 H146 0.930 . S
N141 Li91 1.990 . S
N141 C140 1.314 . S
N141 C144 1.279 . S
C142 C140 1.353 . S
C142 C145 1.348 . S
C142 H174 0.929 . S
C143 C144 1.358 . S
C143 C145 1.356 . S
C143 H175 0.930 . S
C144 N141 1.279 . S
C144 C143 1.358 . S
C144 H147 0.930 . S
C145 C142 1.348 . S
C145 C143 1.356 . S
H146 C140 0.930 . S
H147 C144 0.930 . S
O148 Li88 1.956 . S
O148 Li89 1.970 . S
O148 Li90 1.961 . S
O148 C92 1.325 . S
O149 Li88 1.970 . S
O149 Li89 1.956 . S
O149 Li91 1.961 1_455 S
O149 C98 1.325 . S
O150 Li88 1.961 1_655 S
O150 Li90 1.956 1_655 S
O150 Li91 1.970 . S
O150 C120 1.325 . S
O151 Li89 1.961 . S
O151 Li90 1.970 . S
O151 Li91 1.956 1_455 S
O151 C126 1.325 . S
H152 C94 0.929 . S
H153 C95 0.930 . S
H154 C96 0.930 . S
H155 C97 0.930 . S
H156 C99 0.930 . S
H157 C101 0.929 . S
H158 C102 0.930 . S
H159 C103 0.930 . S
H160 C106 0.930 . S
H161 C109 0.929 . S
H162 C114 0.929 . S
H163 C115 0.930 . S
H164 C122 0.929 . S
H165 C123 0.930 . S
H166 C124 0.930 . S
H167 C125 0.930 . S
H168 C127 0.935 . S
H169 C128 0.930 . S
H170 C129 0.930 . S
H171 C130 0.930 . S
H172 C134 0.929 . S
H173 C136 0.930 . S
H174 C142 0.929 . S
H175 C143 0.930 . S
Li176 N193 1.990 . S
Li176 O236 1.956 . S
Li176 O237 1.970 . S
Li176 O238 1.961 . S
Li177 N201 1.990 . S
Li177 O236 1.970 . S
Li177 O237 1.956 . S
Li177 O239 1.961 . S
Li178 N223 1.990 . S
Li178 O236 1.961 . S
Li178 O238 1.956 . S
Li178 O239 1.970 . S
Li179 N229 1.990 . S
Li179 O237 1.961 . S
Li179 O238 1.970 . S
Li179 O239 1.956 . S
C180 C182 1.348 . S
C180 C183 1.356 . S
C180 O236 1.325 . S
N181 C184 1.314 . S
N181 C185 1.279 . S
C182 C180 1.348 . S
C182 C184 1.353 . S
C182 H240 0.929 . S
C183 C180 1.356 . S
C183 C185 1.358 . S
C183 H241 0.930 . S
C184 N181 1.314 . S
C184 C182 1.353 . S
C184 H242 0.930 . S
C185 N181 1.279 . S
C185 C183 1.358 . S
C185 H243 0.930 . S
C186 C189 1.348 . S
C186 C190 1.356 . S
C186 O237 1.325 . S
C187 N188 1.279 . S
C187 C190 1.358 . S
C187 H244 0.930 . S
N188 C187 1.279 . S
N188 C191 1.314 . S
C189 C186 1.348 . S
C189 C191 1.353 . S
C189 H245 0.929 . S
C190 C186 1.356 . S
C190 C187 1.358 . S
C190 H246 0.930 . S
C191 N188 1.314 . S
C191 C189 1.353 . S
C191 H247 0.930 . S
C192 N193 1.314 . S
C192 C197 1.353 . S
C192 H198 0.930 . S
N193 Li176 1.990 . S
N193 C192 1.314 . S
N193 C195 1.279 . S
C194 C195 1.358 . S
C194 C196 1.356 . S
C194 H248 0.930 . S
C195 N193 1.279 . S
C195 C194 1.358 . S
C195 H199 0.930 . S
C196 C194 1.356 . S
C196 C197 1.348 . S
C197 C192 1.353 . S
C197 C196 1.348 . S
C197 H249 0.929 . S
H198 C192 0.930 . S
H199 C195 0.930 . S
C200 N201 1.314 . S
C200 C202 1.353 . S
C200 H206 0.930 . S
N201 Li177 1.990 . S
N201 C200 1.314 . S
N201 C204 1.279 . S
C202 C200 1.353 . S
C202 C205 1.348 . S
C202 H250 0.929 . S
C203 C204 1.358 . S
C203 C205 1.356 . S
C203 H251 0.930 . S
C204 N201 1.279 . S
C204 C203 1.358 . S
C204 H207 0.930 . S
C205 C202 1.348 . S
C205 C203 1.356 . S
H206 C200 0.930 . S
H207 C204 0.930 . S
C208 C210 1.348 . S
C208 C211 1.356 . S
C208 O238 1.325 . S
N209 C212 1.314 . S
N209 C213 1.279 . S
C210 C208 1.348 . S
C210 C212 1.353 . S
C210 H252 0.929 . S
C211 C208 1.356 . S
C211 C213 1.358 . S
C211 H253 0.930 . S
C212 N209 1.314 . S
C212 C210 1.353 . S
C212 H254 0.930 . S
C213 N209 1.279 . S
C213 C211 1.358 . S
C213 H255 0.930 . S
C214 C215 1.348 . S
C214 C216 1.356 . S
C214 O239 1.325 . S
C215 C214 1.348 . S
C215 C217 1.353 . S
C215 H256 0.929 . S
C216 C214 1.356 . S
C216 C218 1.358 . S
C216 H257 0.930 . S
C217 C215 1.353 . S
C217 N219 1.314 . S
C217 H258 0.930 . S
C218 C216 1.358 . S
C218 N219 1.279 . S
C218 H259 0.930 . S
N219 C217 1.314 . S
N219 C218 1.279 . S
C220 C222 1.353 . S
C220 N223 1.314 . S
C220 H226 0.930 . S
C221 N223 1.279 . S
C221 C224 1.358 . S
C221 H227 0.930 . S
C222 C220 1.353 . S
C222 C225 1.348 . S
C222 H260 0.929 . S
N223 Li178 1.990 . S
N223 C220 1.314 . S
N223 C221 1.279 . S
C224 C221 1.358 . S
C224 C225 1.356 . S
C224 H261 0.930 . S
C225 C222 1.348 . S
C225 C224 1.356 . S
H226 C220 0.930 . S
H227 C221 0.930 . S
C228 N229 1.314 . S
C228 C230 1.353 . S
C228 H234 0.930 . S
N229 Li179 1.990 . S
N229 C228 1.314 . S
N229 C232 1.279 . S
C230 C228 1.353 . S
C230 C233 1.348 . S
C230 H262 0.929 . S
C231 C232 1.358 . S
C231 C233 1.356 . S
C231 H263 0.930 . S
C232 N229 1.279 . S
C232 C231 1.358 . S
C232 H235 0.930 . S
C233 C230 1.348 . S
C233 C231 1.356 . S
H234 C228 0.930 . S
H235 C232 0.930 . S
O236 Li176 1.956 . S
O236 Li177 1.970 . S
O236 Li178 1.961 . S
O236 C180 1.325 . S
O237 Li176 1.970 . S
O237 Li177 1.956 . S
O237 Li179 1.961 . S
O237 C186 1.325 . S
O238 Li176 1.961 . S
O238 Li178 1.956 . S
O238 Li179 1.970 . S
O238 C208 1.325 . S
O239 Li177 1.961 . S
O239 Li178 1.970 . S
O239 Li179 1.956 . S
O239 C214 1.325 . S
H240 C182 0.929 . S
H241 C183 0.930 . S
H242 C184 0.930 . S
H243 C185 0.930 . S
H244 C187 0.930 . S
H245 C189 0.929 . S
H246 C190 0.930 . S
H247 C191 0.930 . S
H248 C194 0.930 . S
H249 C197 0.929 . S
H250 C202 0.929 . S
H251 C203 0.930 . S
H252 C210 0.929 . S
H253 C211 0.930 . S
H254 C212 0.930 . S
H255 C213 0.930 . S
H256 C215 0.929 . S
H257 C216 0.930 . S
H258 C217 0.930 . S
H259 C218 0.930 . S
H260 C222 0.929 . S
H261 C224 0.930 . S
H262 C230 0.929 . S
H263 C231 0.930 . S
Li264 N281 1.990 . S
Li264 O324 1.956 . S
Li264 O325 1.970 . S
Li264 O326 1.961 . S
Li265 N289 1.990 . S
Li265 O324 1.970 . S
Li265 O325 1.956 . S
Li265 O327 1.961 . S
Li266 N311 1.990 . S
Li266 O324 1.961 . S
Li266 O326 1.956 . S
Li266 O327 1.970 . S
Li267 N317 1.990 . S
Li267 O325 1.961 . S
Li267 O326 1.970 . S
Li267 O327 1.956 . S
C268 C270 1.348 . S
C268 C271 1.356 . S
C268 O324 1.325 . S
N269 C272 1.314 . S
N269 C273 1.279 . S
C270 C268 1.348 . S
C270 C272 1.353 . S
C270 H328 0.929 . S
C271 C268 1.356 . S
C271 C273 1.358 . S
C271 H329 0.930 . S
C272 N269 1.314 . S
C272 C270 1.353 . S
C272 H330 0.930 . S
C273 N269 1.279 . S
C273 C271 1.358 . S
C273 H331 0.930 . S
C274 C277 1.348 . S
C274 C278 1.356 . S
C274 O325 1.325 . S
C275 N276 1.279 . S
C275 C278 1.358 . S
C275 H332 0.930 . S
N276 C275 1.279 . S
N276 C279 1.314 . S
C277 C274 1.348 . S
C277 C279 1.353 . S
C277 H333 0.929 . S
C278 C274 1.356 . S
C278 C275 1.358 . S
C278 H334 0.930 . S
C279 N276 1.314 . S
C279 C277 1.353 . S
C279 H335 0.930 . S
C280 N281 1.314 . S
C280 C285 1.353 . S
C280 H286 0.930 . S
N281 Li264 1.990 . S
N281 C280 1.314 . S
N281 C283 1.279 . S
C282 C283 1.358 . S
C282 C284 1.356 . S
C282 H336 0.930 . S
C283 N281 1.279 . S
C283 C282 1.358 . S
C283 H287 0.930 . S
C284 C282 1.356 . S
C284 C285 1.348 . S
C285 C280 1.353 . S
C285 C284 1.348 . S
C285 H337 0.929 . S
H286 C280 0.930 . S
H287 C283 0.930 . S
C288 N289 1.314 . S
C288 C290 1.353 . S
C288 H294 0.930 . S
N289 Li265 1.990 . S
N289 C288 1.314 . S
N289 C292 1.279 . S
C290 C288 1.353 . S
C290 C293 1.348 . S
C290 H338 0.929 . S
C291 C292 1.358 . S
C291 C293 1.356 . S
C291 H339 0.930 . S
C292 N289 1.279 . S
C292 C291 1.358 . S
C292 H295 0.930 . S
C293 C290 1.348 . S
C293 C291 1.356 . S
H294 C288 0.930 . S
H295 C292 0.930 . S
C296 C298 1.348 . S
C296 C299 1.356 . S
C296 O326 1.325 . S
N297 C300 1.314 . S
N297 C301 1.279 . S
C298 C296 1.348 . S
C298 C300 1.353 . S
C298 H340 0.929 . S
C299 C296 1.356 . S
C299 C301 1.358 . S
C299 H341 0.930 . S
C300 N297 1.314 . S
C300 C298 1.353 . S
C300 H342 0.930 . S
C301 N297 1.279 . S
C301 C299 1.358 . S
C301 H343 0.930 . S
C302 C303 1.348 . S
C302 C304 1.356 . S
C302 O327 1.325 . S
C303 C302 1.348 . S
C303 C305 1.353 . S
C303 H344 0.929 . S
C304 C302 1.356 . S
C304 C306 1.358 . S
C304 H345 0.930 . S
C305 C303 1.353 . S
C305 N307 1.314 . S
C305 H346 0.930 . S
C306 C304 1.358 . S
C306 N307 1.279 . S
C306 H347 0.930 . S
N307 C305 1.314 . S
N307 C306 1.279 . S
C308 C310 1.353 . S
C308 N311 1.314 . S
C308 H314 0.930 . S
C309 N311 1.279 . S
C309 C312 1.358 . S
C309 H315 0.930 . S
C310 C308 1.353 . S
C310 C313 1.348 . S
C310 H348 0.929 . S
N311 Li266 1.990 . S
N311 C308 1.314 . S
N311 C309 1.279 . S
C312 C309 1.358 . S
C312 C313 1.356 . S
C312 H349 0.930 . S
C313 C310 1.348 . S
C313 C312 1.356 . S
H314 C308 0.930 . S
H315 C309 0.930 . S
C316 N317 1.314 . S
C316 C318 1.353 . S
C316 H322 0.930 . S
N317 Li267 1.990 . S
N317 C316 1.314 . S
N317 C320 1.279 . S
C318 C316 1.353 . S
C318 C321 1.348 . S
C318 H350 0.929 . S
C319 C320 1.358 . S
C319 C321 1.356 . S
C319 H351 0.930 . S
C320 N317 1.279 . S
C320 C319 1.358 . S
C320 H323 0.930 . S
C321 C318 1.348 . S
C321 C319 1.356 . S
H322 C316 0.930 . S
H323 C320 0.930 . S
O324 Li264 1.956 . S
O324 Li265 1.970 . S
O324 Li266 1.961 . S
O324 C268 1.325 . S
O325 Li264 1.970 . S
O325 Li265 1.956 . S
O325 Li267 1.961 . S
O325 C274 1.325 . S
O326 Li264 1.961 . S
O326 Li266 1.956 . S
O326 Li267 1.970 . S
O326 C296 1.325 . S
O327 Li265 1.961 . S
O327 Li266 1.970 . S
O327 Li267 1.956 . S
O327 C302 1.325 . S
H328 C270 0.929 . S
H329 C271 0.930 . S
H330 C272 0.930 . S
H331 C273 0.930 . S
H332 C275 0.930 . S
H333 C277 0.929 . S
H334 C278 0.930 . S
H335 C279 0.930 . S
H336 C282 0.930 . S
H337 C285 0.929 . S
H338 C290 0.929 . S
H339 C291 0.930 . S
H340 C298 0.929 . S
H341 C299 0.930 . S
H342 C300 0.930 . S
H343 C301 0.930 . S
H344 C303 0.929 . S
H345 C304 0.930 . S
H346 C305 0.930 . S
H347 C306 0.930 . S
H348 C310 0.929 . S
H349 C312 0.930 . S
H350 C318 0.929 . S
H351 C319 0.930 . S
Li352 N369 1.990 . S
Li352 O412 1.956 . S
Li352 O413 1.970 . S
Li352 O414 1.961 1_455 S
Li353 N377 1.990 . S
Li353 O412 1.970 . S
Li353 O413 1.956 . S
Li353 O415 1.961 . S
Li354 N399 1.990 . S
Li354 O412 1.961 . S
Li354 O414 1.956 1_455 S
Li354 O415 1.970 . S
Li355 N405 1.940 1_455 S
Li355 O413 1.998 . S
Li355 O414 1.968 1_455 S
Li355 O415 2.004 . S
C356 C358 1.348 . S
C356 C359 1.356 . S
C356 O412 1.325 . S
N357 C360 1.314 . S
N357 C361 1.279 . S
C358 C356 1.348 . S
C358 C360 1.353 . S
C358 H416 0.929 . S
C359 C356 1.356 . S
C359 C361 1.358 . S
C359 H417 0.930 . S
C360 N357 1.314 . S
C360 C358 1.353 . S
C360 H418 0.930 . S
C361 N357 1.279 . S
C361 C359 1.358 . S
C361 H419 0.930 . S
C362 C365 1.348 . S
C362 C366 1.356 . S
C362 O413 1.325 . S
C363 N364 1.279 . S
C363 C366 1.358 . S
C363 H420 0.930 . S
N364 C363 1.279 . S
N364 C367 1.314 . S
C365 C362 1.348 . S
C365 C367 1.353 . S
C365 H421 0.929 . S
C366 C362 1.356 . S
C366 C363 1.358 . S
C366 H422 0.930 . S
C367 N364 1.314 . S
C367 C365 1.353 . S
C367 H423 0.930 . S
C368 N369 1.314 . S
C368 C373 1.353 . S
C368 H374 0.930 1_455 S
N369 Li352 1.990 . S
N369 C368 1.314 . S
N369 C371 1.279 . S
C370 C371 1.358 . S
C370 C372 1.356 . S
C370 H424 0.930 . S
C371 N369 1.279 . S
C371 C370 1.358 . S
C371 H375 0.930 . S
C372 C370 1.356 . S
C372 C373 1.348 . S
C373 C368 1.353 . S
C373 C372 1.348 . S
C373 H425 0.929 1_455 S
H374 C368 0.930 1_655 S
H375 C371 0.930 . S
C376 N377 1.314 . S
C376 C378 1.353 . S
C376 H382 0.930 . S
N377 Li353 1.990 . S
N377 C376 1.314 . S
N377 C380 1.279 . S
C378 C376 1.353 . S
C378 C381 1.348 . S
C378 H426 0.929 . S
C379 C380 1.358 . S
C379 C381 1.356 . S
C379 H427 0.930 . S
C380 N377 1.279 . S
C380 C379 1.358 . S
C380 H383 0.930 . S
C381 C378 1.348 . S
C381 C379 1.356 . S
H382 C376 0.930 . S
H383 C380 0.930 . S
C384 C386 1.348 . S
C384 C387 1.356 . S
C384 O414 1.325 . S
N385 C388 1.314 . S
N385 C389 1.279 . S
C386 C384 1.348 . S
C386 C388 1.353 . S
C386 H428 0.929 . S
C387 C384 1.356 . S
C387 C389 1.358 . S
C387 H429 0.930 . S
C388 N385 1.314 . S
C388 C386 1.353 . S
C388 H430 0.930 . S
C389 N385 1.279 . S
C389 C387 1.358 . S
C389 H431 0.930 . S
C390 C391 1.348 . S
C390 C392 1.356 . S
C390 O415 1.325 . S
C391 C390 1.348 . S
C391 C393 1.353 . S
C391 H432 0.929 . S
C392 C390 1.356 . S
C392 C394 1.358 . S
C392 H433 0.930 . S
C393 C391 1.353 . S
C393 N395 1.314 . S
C393 H434 0.930 . S
C394 C392 1.358 . S
C394 N395 1.279 . S
C394 H435 0.930 . S
N395 C393 1.314 . S
N395 C394 1.279 . S
C396 C398 1.353 . S
C396 N399 1.314 . S
C396 H402 0.930 . S
C397 N399 1.279 1_655 S
C397 C400 1.358 . S
C397 H403 0.930 . S
C398 C396 1.353 . S
C398 C401 1.348 . S
C398 H436 0.929 . S
N399 Li354 1.990 . S
N399 C396 1.314 . S
N399 C397 1.279 1_455 S
C400 C397 1.358 . S
C400 C401 1.356 1_655 S
C400 H437 0.930 . S
C401 C398 1.348 . S
C401 C400 1.356 1_455 S
H402 C396 0.930 . S
H403 C397 0.930 . S
C404 N405 1.314 . S
C404 C406 1.353 . S
C404 H410 0.930 . S
N405 Li355 1.940 1_655 S
N405 C404 1.314 . S
N405 C408 1.279 . S
C406 C404 1.353 . S
C406 C409 1.348 . S
C406 H438 0.929 . S
C407 C408 1.358 . S
C407 C409 1.356 . S
C407 H439 0.930 . S
C408 N405 1.279 . S
C408 C407 1.358 . S
C408 H411 0.930 . S
C409 C406 1.348 . S
C409 C407 1.356 . S
H410 C404 0.930 . S
H411 C408 0.930 . S
O412 Li352 1.956 . S
O412 Li353 1.970 . S
O412 Li354 1.961 . S
O412 C356 1.325 . S
O413 Li352 1.970 . S
O413 Li353 1.956 . S
O413 Li355 1.998 . S
O413 C362 1.325 . S
O414 Li352 1.961 1_655 S
O414 Li354 1.956 1_655 S
O414 Li355 1.968 1_655 S
O414 C384 1.325 . S
O415 Li353 1.961 . S
O415 Li354 1.970 . S
O415 Li355 2.004 . S
O415 C390 1.325 . S
H416 C358 0.929 . S
H417 C359 0.930 . S
H418 C360 0.930 . S
H419 C361 0.930 . S
H420 C363 0.930 . S
H421 C365 0.929 . S
H422 C366 0.930 . S
H423 C367 0.930 . S
H424 C370 0.930 . S
H425 C373 0.929 1_655 S
H426 C378 0.929 . S
H427 C379 0.930 . S
H428 C386 0.929 . S
H429 C387 0.930 . S
H430 C388 0.930 . S
H431 C389 0.930 . S
H432 C391 0.929 . S
H433 C392 0.930 . S
H434 C393 0.930 . S
H435 C394 0.930 . S
H436 C398 0.929 . S
H437 C400 0.930 . S
H438 C406 0.929 . S
H439 C407 0.930 . S
Li440 N457 1.990 . S
Li440 O500 1.956 . S
Li440 O501 1.970 . S
Li440 O502 1.961 . S
Li441 N465 1.990 . S
Li441 O500 1.970 . S
Li441 O501 1.956 . S
Li441 O503 1.961 . S
Li442 N487 1.990 . S
Li442 O500 1.961 . S
Li442 O502 1.956 . S
Li442 O503 1.970 . S
Li443 N493 1.990 . S
Li443 O501 1.961 . S
Li443 O502 1.970 . S
Li443 O503 1.956 . S
C444 C446 1.348 . S
C444 C447 1.356 . S
C444 O500 1.325 . S
N445 C448 1.314 . S
N445 C449 1.279 . S
C446 C444 1.348 . S
C446 C448 1.353 . S
C446 H504 0.929 . S
C447 C444 1.356 . S
C447 C449 1.358 . S
C447 H505 0.930 . S
C448 N445 1.314 . S
C448 C446 1.353 . S
C448 H506 0.930 . S
C449 N445 1.279 . S
C449 C447 1.358 . S
C449 H507 0.930 . S
C450 C453 1.348 . S
C450 C454 1.356 . S
C450 O501 1.325 . S
C451 N452 1.279 . S
C451 C454 1.358 . S
C451 H508 0.930 . S
N452 C451 1.279 . S
N452 C455 1.314 . S
C453 C450 1.348 . S
C453 C455 1.353 . S
C453 H509 0.929 . S
C454 C450 1.356 . S
C454 C451 1.358 . S
C454 H510 0.930 . S
C455 N452 1.314 . S
C455 C453 1.353 . S
C455 H511 0.930 . S
C456 N457 1.314 . S
C456 C461 1.353 . S
C456 H462 0.930 . S
N457 Li440 1.990 . S
N457 C456 1.314 . S
N457 C459 1.279 . S
C458 C459 1.358 . S
C458 C460 1.356 . S
C458 H512 0.930 . S
C459 N457 1.279 . S
C459 C458 1.358 . S
C459 H463 0.930 . S
C460 C458 1.356 . S
C460 C461 1.348 . S
C461 C456 1.353 . S
C461 C460 1.348 . S
C461 H513 0.929 . S
H462 C456 0.930 . S
H463 C459 0.930 . S
C464 N465 1.314 . S
C464 C466 1.353 . S
C464 H470 0.930 . S
N465 Li441 1.990 . S
N465 C464 1.314 . S
N465 C468 1.279 . S
C466 C464 1.353 . S
C466 C469 1.348 . S
C466 H514 0.929 . S
C467 C468 1.358 . S
C467 C469 1.356 . S
C467 H515 0.930 . S
C468 N465 1.279 . S
C468 C467 1.358 . S
C468 H471 0.930 . S
C469 C466 1.348 . S
C469 C467 1.356 . S
H470 C464 0.930 . S
H471 C468 0.930 . S
C472 C474 1.348 . S
C472 C475 1.356 . S
C472 O502 1.325 . S
N473 C476 1.314 . S
N473 C477 1.279 . S
C474 C472 1.348 . S
C474 C476 1.353 . S
C474 H516 0.929 . S
C475 C472 1.356 . S
C475 C477 1.358 . S
C475 H517 0.930 . S
C476 N473 1.314 . S
C476 C474 1.353 . S
C476 H518 0.930 . S
C477 N473 1.279 . S
C477 C475 1.358 . S
C477 H519 0.930 . S
C478 C479 1.348 . S
C478 C480 1.356 . S
C478 O503 1.325 . S
C479 C478 1.348 . S
C479 C481 1.353 . S
C479 H520 0.929 . S
C480 C478 1.356 . S
C480 C482 1.358 . S
C480 H521 0.930 . S
C481 C479 1.353 . S
C481 N483 1.314 . S
C481 H522 0.930 . S
C482 C480 1.358 . S
C482 N483 1.279 . S
C482 H523 0.930 . S
N483 C481 1.314 . S
N483 C482 1.279 . S
C484 C486 1.353 . S
C484 N487 1.314 . S
C484 H490 0.930 . S
C485 N487 1.279 . S
C485 C488 1.358 . S
C485 H491 0.930 . S
C486 C484 1.353 . S
C486 C489 1.348 . S
C486 H524 0.929 . S
N487 Li442 1.990 . S
N487 C484 1.314 . S
N487 C485 1.279 . S
C488 C485 1.358 . S
C488 C489 1.356 . S
C488 H525 0.930 . S
C489 C486 1.348 . S
C489 C488 1.356 . S
H490 C484 0.930 . S
H491 C485 0.930 . S
C492 N493 1.314 . S
C492 C494 1.353 . S
C492 H498 0.930 . S
N493 Li443 1.990 . S
N493 C492 1.314 . S
N493 C496 1.279 . S
C494 C492 1.353 . S
C494 C497 1.348 . S
C494 H526 0.929 . S
C495 C496 1.358 . S
C495 C497 1.356 . S
C495 H527 0.930 . S
C496 N493 1.279 . S
C496 C495 1.358 . S
C496 H499 0.930 . S
C497 C494 1.348 . S
C497 C495 1.356 . S
H498 C492 0.930 . S
H499 C496 0.930 . S
O500 Li440 1.956 . S
O500 Li441 1.970 . S
O500 Li442 1.961 . S
O500 C444 1.325 . S
O501 Li440 1.970 . S
O501 Li441 1.956 . S
O501 Li443 1.961 . S
O501 C450 1.325 . S
O502 Li440 1.961 . S
O502 Li442 1.956 . S
O502 Li443 1.970 . S
O502 C472 1.325 . S
O503 Li441 1.961 . S
O503 Li442 1.970 . S
O503 Li443 1.956 . S
O503 C478 1.325 . S
H504 C446 0.929 . S
H505 C447 0.930 . S
H506 C448 0.930 . S
H507 C449 0.930 . S
H508 C451 0.930 . S
H509 C453 0.929 . S
H510 C454 0.930 . S
H511 C455 0.930 . S
H512 C458 0.930 . S
H513 C461 0.929 . S
H514 C466 0.929 . S
H515 C467 0.930 . S
H516 C474 0.929 . S
H517 C475 0.930 . S
H518 C476 0.930 . S
H519 C477 0.930 . S
H520 C479 0.929 . S
H521 C480 0.930 . S
H522 C481 0.930 . S
H523 C482 0.930 . S
H524 C486 0.929 . S
H525 C488 0.930 . S
H526 C494 0.929 . S
H527 C495 0.930 . S
Li528 N545 1.990 . S
Li528 O588 1.956 . S
Li528 O589 1.970 . S
Li528 O590 1.961 . S
Li529 N553 1.990 . S
Li529 O588 1.970 . S
Li529 O589 1.956 . S
Li529 O591 1.961 . S
Li530 N575 1.990 . S
Li530 O588 1.961 . S
Li530 O590 1.956 . S
Li530 O591 1.970 . S
Li531 N581 1.990 . S
Li531 O589 1.961 . S
Li531 O590 1.970 . S
Li531 O591 1.956 . S
C532 C534 1.348 . S
C532 C535 1.356 . S
C532 O588 1.325 . S
N533 C536 1.314 . S
N533 C537 1.279 . S
C534 C532 1.348 . S
C534 C536 1.353 . S
C534 H592 0.929 . S
C535 C532 1.356 . S
C535 C537 1.358 . S
C535 H593 0.930 . S
C536 N533 1.314 . S
C536 C534 1.353 . S
C536 H594 0.930 . S
C537 N533 1.279 . S
C537 C535 1.358 . S
C537 H595 0.930 . S
C538 C541 1.348 . S
C538 C542 1.356 . S
C538 O589 1.325 . S
C539 N540 1.279 . S
C539 C542 1.358 . S
C539 H596 0.930 . S
N540 C539 1.279 . S
N540 C543 1.314 . S
C541 C538 1.348 . S
C541 C543 1.353 . S
C541 H597 0.929 . S
C542 C538 1.356 . S
C542 C539 1.358 . S
C542 H598 0.930 . S
C543 N540 1.314 . S
C543 C541 1.353 . S
C543 H599 0.930 . S
C544 N545 1.314 . S
C544 C549 1.353 . S
C544 H550 0.930 . S
N545 Li528 1.990 . S
N545 C544 1.314 . S
N545 C547 1.279 . S
C546 C547 1.358 . S
C546 C548 1.356 . S
C546 H600 0.930 . S
C547 N545 1.279 . S
C547 C546 1.358 . S
C547 H551 0.930 . S
C548 C546 1.356 . S
C548 C549 1.348 . S
C549 C544 1.353 . S
C549 C548 1.348 . S
C549 H601 0.929 . S
H550 C544 0.930 . S
H551 C547 0.930 . S
C552 N553 1.314 . S
C552 C554 1.353 . S
C552 H558 0.930 . S
N553 Li529 1.990 . S
N553 C552 1.314 . S
N553 C556 1.279 . S
C554 C552 1.353 . S
C554 C557 1.348 . S
C554 H602 0.929 . S
C555 C556 1.358 . S
C555 C557 1.356 . S
C555 H603 0.930 . S
C556 N553 1.279 . S
C556 C555 1.358 . S
C556 H559 0.930 . S
C557 C554 1.348 . S
C557 C555 1.356 . S
H558 C552 0.930 . S
H559 C556 0.930 . S
C560 C562 1.348 . S
C560 C563 1.356 . S
C560 O590 1.325 . S
N561 C564 1.314 . S
N561 C565 1.279 . S
C562 C560 1.348 . S
C562 C564 1.353 . S
C562 H604 0.929 . S
C563 C560 1.356 . S
C563 C565 1.358 . S
C563 H605 0.930 . S
C564 N561 1.314 . S
C564 C562 1.353 . S
C564 H606 0.930 . S
C565 N561 1.279 . S
C565 C563 1.358 . S
C565 H607 0.930 . S
C566 C567 1.348 . S
C566 C568 1.356 . S
C566 O591 1.325 . S
C567 C566 1.348 . S
C567 C569 1.353 . S
C567 H608 0.929 . S
C568 C566 1.356 . S
C568 C570 1.358 . S
C568 H609 0.930 . S
C569 C567 1.353 . S
C569 N571 1.314 . S
C569 H610 0.930 . S
C570 C568 1.358 . S
C570 N571 1.279 . S
C570 H611 0.930 . S
N571 C569 1.314 . S
N571 C570 1.279 . S
C572 C574 1.353 . S
C572 N575 1.314 . S
C572 H578 0.930 . S
C573 N575 1.279 . S
C573 C576 1.358 . S
C573 H579 0.930 . S
C574 C572 1.353 . S
C574 C577 1.348 . S
C574 H612 0.929 . S
N575 Li530 1.990 . S
N575 C572 1.314 . S
N575 C573 1.279 . S
C576 C573 1.358 . S
C576 C577 1.356 . S
C576 H613 0.930 . S
C577 C574 1.348 . S
C577 C576 1.356 . S
H578 C572 0.930 . S
H579 C573 0.930 . S
C580 N581 1.314 . S
C580 C582 1.353 . S
C580 H586 0.930 . S
N581 Li531 1.990 . S
N581 C580 1.314 . S
N581 C584 1.279 . S
C582 C580 1.353 . S
C582 C585 1.348 . S
C582 H614 0.929 . S
C583 C584 1.358 . S
C583 C585 1.356 . S
C583 H615 0.930 . S
C584 N581 1.279 . S
C584 C583 1.358 . S
C584 H587 0.930 . S
C585 C582 1.348 . S
C585 C583 1.356 . S
H586 C580 0.930 . S
H587 C584 0.930 . S
O588 Li528 1.956 . S
O588 Li529 1.970 . S
O588 Li530 1.961 . S
O588 C532 1.325 . S
O589 Li528 1.970 . S
O589 Li529 1.956 . S
O589 Li531 1.961 . S
O589 C538 1.325 . S
O590 Li528 1.961 . S
O590 Li530 1.956 . S
O590 Li531 1.970 . S
O590 C560 1.325 . S
O591 Li529 1.961 . S
O591 Li530 1.970 . S
O591 Li531 1.956 . S
O591 C566 1.325 . S
H592 C534 0.929 . S
H593 C535 0.930 . S
H594 C536 0.930 . S
H595 C537 0.930 . S
H596 C539 0.930 . S
H597 C541 0.929 . S
H598 C542 0.930 . S
H599 C543 0.930 . S
H600 C546 0.930 . S
H601 C549 0.929 . S
H602 C554 0.929 . S
H603 C555 0.930 . S
H604 C562 0.929 . S
H605 C563 0.930 . S
H606 C564 0.930 . S
H607 C565 0.930 . S
H608 C567 0.929 . S
H609 C568 0.930 . S
H610 C569 0.930 . S
H611 C570 0.930 . S
H612 C574 0.929 . S
H613 C576 0.930 . S
H614 C582 0.929 . S
H615 C583 0.930 . S
Li616 N633 1.990 . S
Li616 O676 1.956 1_455 S
Li616 O677 1.970 . S
Li616 O678 1.961 . S
Li617 N641 1.990 . S
Li617 O676 1.970 . S
Li617 O677 1.956 1_655 S
Li617 O679 1.929 1_655 S
Li618 N663 1.990 . S
Li618 O676 1.961 1_455 S
Li618 O678 1.956 . S
Li618 O679 1.971 . S
Li619 N669 1.990 . S
Li619 O677 1.961 . S
Li619 O678 1.970 . S
Li619 O679 1.984 . S
C620 C622 1.348 . S
C620 C623 1.356 . S
C620 O676 1.325 . S
N621 C624 1.314 . S
N621 C625 1.279 . S
C622 C620 1.348 . S
C622 C624 1.353 . S
C622 H680 0.929 . S
C623 C620 1.356 . S
C623 C625 1.358 . S
C623 H681 0.930 . S
C624 N621 1.314 . S
C624 C622 1.353 . S
C624 H682 0.930 . S
C625 N621 1.279 . S
C625 C623 1.358 . S
C625 H683 0.930 . S
C626 C629 1.348 . S
C626 C630 1.356 . S
C626 O677 1.325 . S
C627 N628 1.279 . S
C627 C630 1.358 . S
C627 H684 0.930 . S
N628 C627 1.279 . S
N628 C631 1.314 . S
C629 C626 1.348 . S
C629 C631 1.353 . S
C629 H685 0.912 1_455 S
C630 C626 1.356 . S
C630 C627 1.358 . S
C630 H686 0.930 . S
C631 N628 1.314 . S
C631 C629 1.353 . S
C631 H687 0.953 . S
C632 N633 1.314 . S
C632 C637 1.353 . S
C632 H638 0.930 . S
N633 Li616 1.990 . S
N633 C632 1.314 . S
N633 C635 1.279 1_455 S
C634 C635 1.358 . S
C634 C636 1.356 1_655 S
C634 H688 0.930 . S
C635 N633 1.279 1_655 S
C635 C634 1.358 . S
C635 H639 0.930 . S
C636 C634 1.356 1_455 S
C636 C637 1.348 . S
C637 C632 1.353 . S
C637 C636 1.348 . S
C637 H689 0.929 . S
H638 C632 0.930 . S
H639 C635 0.930 . S
C640 N641 1.314 . S
C640 C642 1.353 . S
C640 H646 0.930 . S
N641 Li617 1.990 . S
N641 C640 1.314 . S
N641 C644 1.279 . S
C642 C640 1.353 . S
C642 C645 1.348 . S
C642 H690 0.929 . S
C643 C644 1.358 . S
C643 C645 1.356 . S
C643 H691 0.930 . S
C644 N641 1.279 . S
C644 C643 1.358 . S
C644 H647 0.930 . S
C645 C642 1.348 . S
C645 C643 1.356 . S
H646 C640 0.930 . S
H647 C644 0.930 . S
C648 C650 1.348 . S
C648 C651 1.356 . S
C648 O678 1.325 . S
N649 C652 1.314 . S
N649 C653 1.279 . S
C650 C648 1.348 . S
C650 C652 1.353 . S
C650 H692 0.929 . S
C651 C648 1.356 . S
C651 C653 1.358 . S
C651 H693 0.930 . S
C652 N649 1.314 . S
C652 C650 1.353 . S
C652 H694 0.930 . S
C653 N649 1.279 . S
C653 C651 1.358 . S
C653 H695 0.930 . S
C654 C655 1.338 1_655 S
C654 C656 1.361 . S
C654 O679 1.334 1_655 S
C655 C654 1.338 1_455 S
C655 C657 1.353 . S
C655 H696 0.929 . S
C656 C654 1.361 . S
C656 C658 1.358 . S
C656 H697 0.930 . S
C657 C655 1.353 . S
C657 N659 1.314 1_455 S
C657 H698 0.930 . S
C658 C656 1.358 . S
C658 N659 1.279 . S
C658 H699 0.930 . S
N659 C657 1.314 1_655 S
N659 C658 1.279 . S
C660 C662 1.353 . S
C660 N663 1.314 1_655 S
C660 H666 0.930 . S
C661 N663 1.279 . S
C661 C664 1.358 . S
C661 H667 0.930 . S
C662 C660 1.353 . S
C662 C665 1.406 . S
C662 H700 0.929 . S
N663 Li618 1.990 . S
N663 C660 1.314 1_455 S
N663 C661 1.279 . S
C664 C661 1.358 . S
C664 C665 1.305 1_455 S
C664 H701 0.930 . S
C665 C662 1.406 . S
C665 C664 1.305 1_655 S
H666 C660 0.930 . S
H667 C661 0.930 . S
C668 N669 1.314 . S
C668 C670 1.353 . S
C668 H674 0.930 . S
N669 Li619 1.990 . S
N669 C668 1.314 . S
N669 C672 1.279 . S
C670 C668 1.353 . S
C670 C673 1.348 . S
C670 H702 0.929 . S
C671 C672 1.358 . S
C671 C673 1.356 . S
C671 H703 0.930 . S
C672 N669 1.279 . S
C672 C671 1.358 . S
C672 H675 0.930 . S
C673 C670 1.348 . S
C673 C671 1.356 . S
H674 C668 0.930 . S
H675 C672 0.930 . S
O676 Li616 1.956 1_655 S
O676 Li617 1.970 . S
O676 Li618 1.961 1_655 S
O676 C620 1.325 . S
O677 Li616 1.970 . S
O677 Li617 1.956 1_455 S
O677 Li619 1.961 . S
O677 C626 1.325 . S
O678 Li616 1.961 . S
O678 Li618 1.956 . S
O678 Li619 1.970 . S
O678 C648 1.325 . S
O679 Li617 1.929 1_455 S
O679 Li618 1.971 . S
O679 Li619 1.984 . S
O679 C654 1.334 1_455 S
H680 C622 0.929 . S
H681 C623 0.930 . S
H682 C624 0.930 . S
H683 C625 0.930 . S
H684 C627 0.930 . S
H685 C629 0.912 1_655 S
H686 C630 0.930 . S
H687 C631 0.953 . S
H688 C634 0.930 . S
H689 C637 0.929 . S
H690 C642 0.929 . S
H691 C643 0.930 . S
H692 C650 0.929 . S
H693 C651 0.930 . S
H694 C652 0.930 . S
H695 C653 0.930 . S
H696 C655 0.929 . S
H697 C656 0.930 . S
H698 C657 0.930 . S
H699 C658 0.930 . S
H700 C662 0.929 . S
H701 C664 0.930 . S
H702 C670 0.929 . S
H703 C671 0.930 . S
Li704 N721 1.990 . S
Li704 O764 1.956 . S
Li704 O765 1.970 . S
Li704 O766 1.961 . S
Li705 N729 1.990 1_545 S
Li705 O764 1.970 . S
Li705 O765 1.956 . S
Li705 O767 1.961 . S
Li706 N751 1.990 . S
Li706 O764 1.961 . S
Li706 O766 1.956 . S
Li706 O767 1.970 . S
Li707 N757 1.990 . S
Li707 O765 1.961 . S
Li707 O766 1.970 . S
Li707 O767 1.956 . S
C708 C710 1.348 . S
C708 C711 1.356 . S
C708 O764 1.325 1_565 S
N709 C712 1.314 . S
N709 C713 1.279 . S
C710 C708 1.348 . S
C710 C712 1.353 . S
C710 H768 0.929 . S
C711 C708 1.356 . S
C711 C713 1.358 . S
C711 H769 0.930 1_565 S
C712 N709 1.314 . S
C712 C710 1.353 . S
C712 H770 0.930 . S
C713 N709 1.279 . S
C713 C711 1.358 . S
C713 H771 0.930 . S
C714 C717 1.348 . S
C714 C718 1.356 . S
C714 O765 1.325 . S
C715 N716 1.279 . S
C715 C718 1.358 . S
C715 H772 0.930 . S
N716 C715 1.279 . S
N716 C719 1.314 . S
C717 C714 1.348 . S
C717 C719 1.353 . S
C717 H773 0.929 . S
C718 C714 1.356 . S
C718 C715 1.358 . S
C718 H774 0.930 . S
C719 N716 1.314 . S
C719 C717 1.353 . S
C719 H775 0.930 . S
C720 N721 1.314 . S
C720 C725 1.353 . S
C720 H726 0.930 . S
N721 Li704 1.990 . S
N721 C720 1.314 . S
N721 C723 1.279 . S
C722 C723 1.358 . S
C722 C724 1.356 . S
C722 H776 0.930 . S
C723 N721 1.279 . S
C723 C722 1.358 . S
C723 H727 0.930 . S
C724 C722 1.356 . S
C724 C725 1.348 . S
C725 C720 1.353 . S
C725 C724 1.348 . S
C725 H777 0.929 . S
H726 C720 0.930 . S
H727 C723 0.930 . S
C728 N729 1.314 . S
C728 C730 1.353 . S
C728 H734 0.930 . S
N729 Li705 1.990 1_565 S
N729 C728 1.314 . S
N729 C732 1.279 . S
C730 C728 1.353 . S
C730 C733 1.348 . S
C730 H778 0.929 . S
C731 C732 1.358 . S
C731 C733 1.356 . S
C731 H779 0.930 . S
C732 N729 1.279 . S
C732 C731 1.358 . S
C732 H735 0.930 . S
C733 C730 1.348 . S
C733 C731 1.356 . S
H734 C728 0.930 . S
H735 C732 0.930 . S
C736 C738 1.348 . S
C736 C739 1.356 . S
C736 O766 1.325 . S
N737 C740 1.314 . S
N737 C741 1.279 . S
C738 C736 1.348 . S
C738 C740 1.353 . S
C738 H780 0.929 . S
C739 C736 1.356 . S
C739 C741 1.358 . S
C739 H781 0.930 . S
C740 N737 1.314 . S
C740 C738 1.353 . S
C740 H782 0.930 . S
C741 N737 1.279 . S
C741 C739 1.358 . S
C741 H783 0.930 . S
C742 C743 1.348 . S
C742 C744 1.356 . S
C742 O767 1.325 . S
C743 C742 1.348 . S
C743 C745 1.353 . S
C743 H784 0.929 . S
C744 C742 1.356 . S
C744 C746 1.358 . S
C744 H785 0.930 . S
C745 C743 1.353 . S
C745 N747 1.314 . S
C745 H786 0.930 . S
C746 C744 1.358 . S
C746 N747 1.279 . S
C746 H787 0.930 . S
N747 C745 1.314 . S
N747 C746 1.279 . S
C748 C750 1.353 . S
C748 N751 1.314 . S
C748 H754 0.930 . S
C749 N751 1.279 . S
C749 C752 1.358 . S
C749 H755 0.930 . S
C750 C748 1.353 . S
C750 C753 1.348 . S
C750 H788 0.929 . S
N751 Li706 1.990 . S
N751 C748 1.314 . S
N751 C749 1.279 . S
C752 C749 1.358 . S
C752 C753 1.356 . S
C752 H789 0.930 . S
C753 C750 1.348 . S
C753 C752 1.356 . S
H754 C748 0.930 . S
H755 C749 0.930 . S
C756 N757 1.314 . S
C756 C758 1.353 . S
C756 H762 0.930 . S
N757 Li707 1.990 . S
N757 C756 1.314 . S
N757 C760 1.279 . S
C758 C756 1.353 . S
C758 C761 1.348 . S
C758 H790 0.929 . S
C759 C760 1.358 . S
C759 C761 1.356 . S
C759 H791 0.930 . S
C760 N757 1.279 . S
C760 C759 1.358 . S
C760 H763 0.930 . S
C761 C758 1.348 . S
C761 C759 1.356 . S
H762 C756 0.930 . S
H763 C760 0.930 . S
O764 Li704 1.956 . S
O764 Li705 1.970 . S
O764 Li706 1.961 . S
O764 C708 1.325 1_545 S
O765 Li704 1.970 . S
O765 Li705 1.956 . S
O765 Li707 1.961 . S
O765 C714 1.325 . S
O766 Li704 1.961 . S
O766 Li706 1.956 . S
O766 Li707 1.970 . S
O766 C736 1.325 . S
O767 Li705 1.961 . S
O767 Li706 1.970 . S
O767 Li707 1.956 . S
O767 C742 1.325 . S
H768 C710 0.929 . S
H769 C711 0.930 1_545 S
H770 C712 0.930 . S
H771 C713 0.930 . S
H772 C715 0.930 . S
H773 C717 0.929 . S
H774 C718 0.930 . S
H775 C719 0.930 . S
H776 C722 0.930 . S
H777 C725 0.929 . S
H778 C730 0.929 . S
H779 C731 0.930 . S
H780 C738 0.929 . S
H781 C739 0.930 . S
H782 C740 0.930 . S
H783 C741 0.930 . S
H784 C743 0.929 . S
H785 C744 0.930 . S
H786 C745 0.930 . S
H787 C746 0.930 . S
H788 C750 0.929 . S
H789 C752 0.930 . S
H790 C758 0.929 . S
H791 C759 0.930 . S
Li792 N809 1.990 . S
Li792 O852 1.956 . S
Li792 O853 1.970 . S
Li792 O854 1.961 . S
Li793 N817 1.990 . S
Li793 O852 1.970 . S
Li793 O853 1.956 . S
Li793 O855 1.961 . S
Li794 N839 1.990 . S
Li794 O852 1.961 . S
Li794 O854 1.956 . S
Li794 O855 1.970 . S
Li795 N845 1.990 . S
Li795 O853 1.961 . S
Li795 O854 1.970 . S
Li795 O855 1.956 . S
C796 C798 1.348 . S
C796 C799 1.356 . S
C796 O852 1.325 . S
N797 C800 1.314 . S
N797 C801 1.279 . S
C798 C796 1.348 . S
C798 C800 1.353 . S
C798 H856 0.929 . S
C799 C796 1.356 . S
C799 C801 1.358 . S
C799 H857 0.930 . S
C800 N797 1.314 . S
C800 C798 1.353 . S
C800 H858 0.930 . S
C801 N797 1.279 . S
C801 C799 1.358 . S
C801 H859 0.930 . S
C802 C805 1.348 . S
C802 C806 1.356 . S
C802 O853 1.325 . S
C803 N804 1.279 . S
C803 C806 1.358 . S
C803 H860 0.930 . S
N804 C803 1.279 . S
N804 C807 1.314 . S
C805 C802 1.348 . S
C805 C807 1.353 . S
C805 H861 0.929 . S
C806 C802 1.356 . S
C806 C803 1.358 . S
C806 H862 0.930 . S
C807 N804 1.314 . S
C807 C805 1.353 . S
C807 H863 0.930 . S
C808 N809 1.314 . S
C808 C813 1.353 . S
C808 H814 0.930 . S
N809 Li792 1.990 . S
N809 C808 1.314 . S
N809 C811 1.279 . S
C810 C811 1.358 . S
C810 C812 1.356 . S
C810 H864 0.930 . S
C811 N809 1.279 . S
C811 C810 1.358 . S
C811 H815 0.930 . S
C812 C810 1.356 . S
C812 C813 1.348 . S
C813 C808 1.353 . S
C813 C812 1.348 . S
C813 H865 0.929 . S
H814 C808 0.930 . S
H815 C811 0.930 . S
C816 N817 1.314 . S
C816 C818 1.353 . S
C816 H822 0.930 . S
N817 Li793 1.990 . S
N817 C816 1.314 . S
N817 C820 1.279 . S
C818 C816 1.353 . S
C818 C821 1.348 . S
C818 H866 0.929 . S
C819 C820 1.358 . S
C819 C821 1.356 . S
C819 H867 0.930 . S
C820 N817 1.279 . S
C820 C819 1.358 . S
C820 H823 0.930 . S
C821 C818 1.348 . S
C821 C819 1.356 . S
H822 C816 0.930 . S
H823 C820 0.930 . S
C824 C826 1.348 . S
C824 C827 1.356 . S
C824 O854 1.325 . S
N825 C828 1.314 . S
N825 C829 1.279 . S
C826 C824 1.348 . S
C826 C828 1.353 . S
C826 H868 0.929 . S
C827 C824 1.356 . S
C827 C829 1.358 . S
C827 H869 0.930 . S
C828 N825 1.314 . S
C828 C826 1.353 . S
C828 H870 0.930 . S
C829 N825 1.279 . S
C829 C827 1.358 . S
C829 H871 0.930 . S
C830 C831 1.348 . S
C830 C832 1.356 . S
C830 O855 1.325 . S
C831 C830 1.348 . S
C831 C833 1.353 . S
C831 H872 0.929 . S
C832 C830 1.356 . S
C832 C834 1.358 . S
C832 H873 0.930 . S
C833 C831 1.353 . S
C833 N835 1.314 . S
C833 H874 0.930 . S
C834 C832 1.358 . S
C834 N835 1.279 . S
C834 H875 0.930 . S
N835 C833 1.314 . S
N835 C834 1.279 . S
C836 C838 1.353 . S
C836 N839 1.314 . S
C836 H842 0.930 . S
C837 N839 1.279 . S
C837 C840 1.358 . S
C837 H843 0.930 . S
C838 C836 1.353 . S
C838 C841 1.348 . S
C838 H876 0.929 . S
N839 Li794 1.990 . S
N839 C836 1.314 . S
N839 C837 1.279 . S
C840 C837 1.358 . S
C840 C841 1.356 . S
C840 H877 0.930 . S
C841 C838 1.348 . S
C841 C840 1.356 . S
H842 C836 0.930 . S
H843 C837 0.930 . S
C844 N845 1.314 . S
C844 C846 1.353 . S
C844 H850 0.930 . S
N845 Li795 1.990 . S
N845 C844 1.314 . S
N845 C848 1.279 . S
C846 C844 1.353 . S
C846 C849 1.348 . S
C846 H878 0.929 . S
C847 C848 1.358 . S
C847 C849 1.356 . S
C847 H879 0.930 . S
C848 N845 1.279 . S
C848 C847 1.358 . S
C848 H851 0.930 . S
C849 C846 1.348 . S
C849 C847 1.356 . S
H850 C844 0.930 . S
H851 C848 0.930 . S
O852 Li792 1.956 . S
O852 Li793 1.970 . S
O852 Li794 1.961 . S
O852 C796 1.325 . S
O853 Li792 1.970 . S
O853 Li793 1.956 . S
O853 Li795 1.961 . S
O853 C802 1.325 . S
O854 Li792 1.961 . S
O854 Li794 1.956 . S
O854 Li795 1.970 . S
O854 C824 1.325 . S
O855 Li793 1.961 . S
O855 Li794 1.970 . S
O855 Li795 1.956 . S
O855 C830 1.325 . S
H856 C798 0.929 . S
H857 C799 0.930 . S
H858 C800 0.930 . S
H859 C801 0.930 . S
H860 C803 0.930 . S
H861 C805 0.929 . S
H862 C806 0.930 . S
H863 C807 0.930 . S
H864 C810 0.930 . S
H865 C813 0.929 . S
H866 C818 0.929 . S
H867 C819 0.930 . S
H868 C826 0.929 . S
H869 C827 0.930 . S
H870 C828 0.930 . S
H871 C829 0.930 . S
H872 C831 0.929 . S
H873 C832 0.930 . S
H874 C833 0.930 . S
H875 C834 0.930 . S
H876 C838 0.929 . S
H877 C840 0.930 . S
H878 C846 0.929 . S
H879 C847 0.930 . S
Li880 N897 1.990 . S
Li880 O940 1.956 . S
Li880 O941 1.970 . S
Li880 O942 1.961 . S
Li881 N905 1.991 . S
Li881 O940 1.970 1_565 S
Li881 O941 1.961 1_565 S
Li881 O943 1.956 . S
Li882 N927 1.990 . S
Li882 O940 1.961 1_565 S
Li882 O942 1.956 1_565 S
Li882 O943 1.970 . S
Li883 N933 1.990 . S
Li883 O941 1.961 1_565 S
Li883 O942 1.970 1_565 S
Li883 O943 1.956 . S
C884 C886 1.348 . S
C884 C887 1.356 . S
C884 O940 1.325 . S
N885 C888 1.314 . S
N885 C889 1.279 . S
C886 C884 1.348 . S
C886 C888 1.353 . S
C886 H944 0.929 . S
C887 C884 1.356 . S
C887 C889 1.358 . S
C887 H945 0.937 . S
C888 N885 1.314 . S
C888 C886 1.353 . S
C888 H946 0.930 . S
C889 N885 1.279 . S
C889 C887 1.358 . S
C889 H947 0.930 . S
C890 C893 1.348 . S
C890 C894 1.356 . S
C890 O941 1.325 . S
C891 N892 1.279 . S
C891 C894 1.358 . S
C891 H948 0.930 . S
N892 C891 1.279 . S
N892 C895 1.314 . S
C893 C890 1.348 . S
C893 C895 1.353 . S
C893 H949 0.929 . S
C894 C890 1.356 . S
C894 C891 1.358 . S
C894 H950 0.930 . S
C895 N892 1.314 . S
C895 C893 1.353 . S
C895 H951 0.930 . S
C896 N897 1.314 . S
C896 C901 1.353 . S
C896 H902 0.930 . S
N897 Li880 1.990 . S
N897 C896 1.314 . S
N897 C899 1.279 . S
C898 C899 1.358 . S
C898 C900 1.356 . S
C898 H952 0.930 . S
C899 N897 1.279 . S
C899 C898 1.358 . S
C899 H903 0.930 . S
C900 C898 1.356 . S
C900 C901 1.348 . S
C901 C896 1.353 . S
C901 C900 1.348 . S
C901 H953 0.929 . S
H902 C896 0.930 . S
H903 C899 0.930 . S
C904 N905 1.343 . S
C904 C906 1.353 . S
C904 H910 0.930 . S
N905 Li881 1.991 . S
N905 C904 1.343 . S
N905 C908 1.251 1_565 S
C906 C904 1.353 . S
C906 C909 1.348 . S
C906 H954 0.929 . S
C907 C908 1.358 . S
C907 C909 1.356 1_545 S
C907 H955 0.930 . S
C908 N905 1.251 1_545 S
C908 C907 1.358 . S
C908 H911 0.930 . S
C909 C906 1.348 . S
C909 C907 1.356 1_565 S
H910 C904 0.930 . S
H911 C908 0.930 . S
C912 C914 1.348 1_545 S
C912 C915 1.356 . S
C912 O942 1.325 . S
N913 C916 1.306 1_545 S
N913 C917 1.293 . S
C914 C912 1.348 1_565 S
C914 C916 1.353 . S
C914 H956 0.929 . S
C915 C912 1.356 . S
C915 C917 1.358 . S
C915 H957 0.930 . S
C916 N913 1.306 1_565 S
C916 C914 1.353 . S
C916 H958 0.930 . S
C917 N913 1.293 . S
C917 C915 1.358 . S
C917 H959 0.930 . S
C918 C919 1.348 . S
C918 C920 1.356 . S
C918 O943 1.325 . S
C919 C918 1.348 . S
C919 C921 1.353 . S
C919 H960 0.929 . S
C920 C918 1.356 . S
C920 C922 1.358 . S
C920 H961 0.930 . S
C921 C919 1.353 . S
C921 N923 1.314 . S
C921 H962 0.930 . S
C922 C920 1.358 . S
C922 N923 1.279 . S
C922 H963 0.930 . S
N923 C921 1.314 . S
N923 C922 1.279 . S
C924 C926 1.353 . S
C924 N927 1.314 . S
C924 H930 0.930 . S
C925 N927 1.279 . S
C925 C928 1.358 . S
C925 H931 0.930 . S
C926 C924 1.353 . S
C926 C929 1.348 . S
C926 H964 0.929 . S
N927 Li882 1.990 . S
N927 C924 1.314 . S
N927 C925 1.279 . S
C928 C925 1.358 . S
C928 C929 1.356 . S
C928 H965 0.930 . S
C929 C926 1.348 . S
C929 C928 1.356 . S
H930 C924 0.930 . S
H931 C925 0.930 . S
C932 N933 1.314 1_545 S
C932 C934 1.353 . S
C932 H938 0.930 . S
N933 Li883 1.990 . S
N933 C932 1.314 1_565 S
N933 C936 1.279 . S
C934 C932 1.353 . S
C934 C937 1.348 1_545 S
C934 H966 0.929 . S
C935 C936 1.358 . S
C935 C937 1.356 . S
C935 H967 0.930 . S
C936 N933 1.279 . S
C936 C935 1.358 . S
C936 H939 0.930 . S
C937 C934 1.348 1_565 S
C937 C935 1.356 . S
H938 C932 0.930 . S
H939 C936 0.930 . S
O940 Li880 1.956 . S
O940 Li881 1.970 1_545 S
O940 Li882 1.961 1_545 S
O940 C884 1.325 . S
O941 Li880 1.970 . S
O941 Li881 1.961 1_545 S
O941 Li883 1.961 1_545 S
O941 C890 1.325 . S
O942 Li880 1.961 . S
O942 Li882 1.956 1_545 S
O942 Li883 1.970 1_545 S
O942 C912 1.325 . S
O943 Li881 1.956 . S
O943 Li882 1.970 . S
O943 Li883 1.956 . S
O943 C918 1.325 . S
H944 C886 0.929 . S
H945 C887 0.937 . S
H946 C888 0.930 . S
H947 C889 0.930 . S
H948 C891 0.930 . S
H949 C893 0.929 . S
H950 C894 0.930 . S
H951 C895 0.930 . S
H952 C898 0.930 . S
H953 C901 0.929 . S
H954 C906 0.929 . S
H955 C907 0.930 . S
H956 C914 0.929 . S
H957 C915 0.930 . S
H958 C916 0.930 . S
H959 C917 0.930 . S
H960 C919 0.929 . S
H961 C920 0.930 . S
H962 C921 0.930 . S
H963 C922 0.930 . S
H964 C926 0.929 . S
H965 C928 0.930 . S
H966 C934 0.929 . S
H967 C935 0.930 . S
Li968 N985 1.990 . S
Li968 O1028 1.956 . S
Li968 O1029 1.970 . S
Li968 O1030 1.961 . S
Li969 N993 1.990 . S
Li969 O1028 1.970 . S
Li969 O1029 1.956 . S
Li969 O1031 1.961 . S
Li970 N1015 1.990 . S
Li970 O1028 1.961 . S
Li970 O1030 1.956 . S
Li970 O1031 1.970 . S
Li971 N1021 1.990 1_554 S
Li971 O1029 1.961 . S
Li971 O1030 1.970 . S
Li971 O1031 1.956 . S
C972 C974 1.348 . S
C972 C975 1.356 . S
C972 O1028 1.325 . S
N973 C976 1.314 . S
N973 C977 1.279 . S
C974 C972 1.348 . S
C974 C976 1.353 . S
C974 H1032 0.929 . S
C975 C972 1.356 . S
C975 C977 1.358 . S
C975 H1033 0.930 . S
C976 N973 1.314 . S
C976 C974 1.353 . S
C976 H1034 0.930 . S
C977 N973 1.279 . S
C977 C975 1.358 . S
C977 H1035 0.930 . S
C978 C981 1.348 . S
C978 C982 1.356 . S
C978 O1029 1.325 . S
C979 N980 1.279 . S
C979 C982 1.358 . S
C979 H1036 0.930 . S
N980 C979 1.279 . S
N980 C983 1.314 . S
C981 C978 1.348 . S
C981 C983 1.353 . S
C981 H1037 0.929 . S
C982 C978 1.356 . S
C982 C979 1.358 . S
C982 H1038 0.930 . S
C983 N980 1.314 . S
C983 C981 1.353 . S
C983 H1039 0.930 . S
C984 N985 1.314 . S
C984 C989 1.353 . S
C984 H990 0.930 . S
N985 Li968 1.990 . S
N985 C984 1.314 . S
N985 C987 1.279 . S
C986 C987 1.358 . S
C986 C988 1.356 . S
C986 H1040 0.930 . S
C987 N985 1.279 . S
C987 C986 1.358 . S
C987 H991 0.930 . S
C988 C986 1.356 . S
C988 C989 1.348 . S
C989 C984 1.353 . S
C989 C988 1.348 . S
C989 H1041 0.929 . S
H990 C984 0.930 . S
H991 C987 0.930 . S
C992 N993 1.314 . S
C992 C994 1.353 . S
C992 H998 0.930 . S
N993 Li969 1.990 . S
N993 C992 1.314 . S
N993 C996 1.279 . S
C994 C992 1.353 . S
C994 C997 1.348 . S
C994 H1042 0.929 . S
C995 C996 1.358 . S
C995 C997 1.356 . S
C995 H1043 0.930 . S
C996 N993 1.279 . S
C996 C995 1.358 . S
C996 H999 0.930 . S
C997 C994 1.348 . S
C997 C995 1.356 . S
H998 C992 0.930 . S
H999 C996 0.930 . S
C1000 C1002 1.319 1_554 S
C1000 C1003 1.357 . S
C1000 O1030 1.351 . S
N1001 C1004 1.314 . S
N1001 C1005 1.279 . S
C1002 C1000 1.319 1_556 S
C1002 C1004 1.353 . S
C1002 H1044 0.929 . S
C1003 C1000 1.357 . S
C1003 C1005 1.358 1_554 S
C1003 H1045 0.930 . S
C1004 N1001 1.314 . S
C1004 C1002 1.353 . S
C1004 H1046 0.930 . S
C1005 N1001 1.279 . S
C1005 C1003 1.358 1_556 S
C1005 H1047 0.930 . S
C1006 C1007 1.348 . S
C1006 C1008 1.356 . S
C1006 O1031 1.325 . S
C1007 C1006 1.348 . S
C1007 C1009 1.353 . S
C1007 H1048 0.929 . S
C1008 C1006 1.356 . S
C1008 C1010 1.358 . S
C1008 H1049 0.930 . S
C1009 C1007 1.353 . S
C1009 N1011 1.314 . S
C1009 H1050 0.930 . S
C1010 C1008 1.358 . S
C1010 N1011 1.279 . S
C1010 H1051 0.930 . S
N1011 C1009 1.314 . S
N1011 C1010 1.279 . S
C1012 C1014 1.353 . S
C1012 N1015 1.314 . S
C1012 H1018 0.930 . S
C1013 N1015 1.279 . S
C1013 C1016 1.358 . S
C1013 H1019 0.930 . S
C1014 C1012 1.353 . S
C1014 C1017 1.348 . S
C1014 H1052 0.929 . S
N1015 Li970 1.990 . S
N1015 C1012 1.314 . S
N1015 C1013 1.279 . S
C1016 C1013 1.358 . S
C1016 C1017 1.356 . S
C1016 H1053 0.930 . S
C1017 C1014 1.348 . S
C1017 C1016 1.356 . S
H1018 C1012 0.930 . S
H1019 C1013 0.930 . S
C1020 N1021 1.314 . S
C1020 C1022 1.353 . S
C1020 H1026 0.930 . S
N1021 Li971 1.990 1_556 S
N1021 C1020 1.314 . S
N1021 C1024 1.279 . S
C1022 C1020 1.353 . S
C1022 C1025 1.348 . S
C1022 H1054 0.929 . S
C1023 C1024 1.358 . S
C1023 C1025 1.356 . S
C1023 H1055 0.930 . S
C1024 N1021 1.279 . S
C1024 C1023 1.358 . S
C1024 H1027 0.930 . S
C1025 C1022 1.348 . S
C1025 C1023 1.356 . S
H1026 C1020 0.930 . S
H1027 C1024 0.930 . S
O1028 Li968 1.956 . S
O1028 Li969 1.970 . S
O1028 Li970 1.961 . S
O1028 C972 1.325 . S
O1029 Li968 1.970 . S
O1029 Li969 1.956 . S
O1029 Li971 1.961 . S
O1029 C978 1.325 . S
O1030 Li968 1.961 . S
O1030 Li970 1.956 . S
O1030 Li971 1.970 . S
O1030 C1000 1.351 . S
O1031 Li969 1.961 . S
O1031 Li970 1.970 . S
O1031 Li971 1.956 . S
O1031 C1006 1.325 . S
H1032 C974 0.929 . S
H1033 C975 0.930 . S
H1034 C976 0.930 . S
H1035 C977 0.930 . S
H1036 C979 0.930 . S
H1037 C981 0.929 . S
H1038 C982 0.930 . S
H1039 C983 0.930 . S
H1040 C986 0.930 . S
H1041 C989 0.929 . S
H1042 C994 0.929 . S
H1043 C995 0.930 . S
H1044 C1002 0.929 . S
H1045 C1003 0.930 . S
H1046 C1004 0.930 . S
H1047 C1005 0.930 . S
H1048 C1007 0.929 . S
H1049 C1008 0.930 . S
H1050 C1009 0.930 . S
H1051 C1010 0.930 . S
H1052 C1014 0.929 . S
H1053 C1016 0.930 . S
H1054 C1022 0.929 . S
H1055 C1023 0.930 . S
Li1056 N1073 1.990 . S
Li1056 O1116 1.956 . S
Li1056 O1117 1.970 . S
Li1056 O1118 1.961 1_554 S
Li1057 N1081 1.990 . S
Li1057 O1116 1.970 . S
Li1057 O1117 1.956 . S
Li1057 O1119 1.961 . S
Li1058 N1103 1.990 . S
Li1058 O1116 1.961 . S
Li1058 O1118 1.956 1_554 S
Li1058 O1119 1.970 . S
Li1059 N1109 1.990 . S
Li1059 O1117 1.961 1_556 S
Li1059 O1118 1.970 . S
Li1059 O1119 1.956 1_556 S
C1060 C1062 1.348 . S
C1060 C1063 1.356 . S
C1060 O1116 1.325 . S
N1061 C1064 1.314 . S
N1061 C1065 1.279 . S
C1062 C1060 1.348 . S
C1062 C1064 1.353 . S
C1062 H1120 0.929 . S
C1063 C1060 1.356 . S
C1063 C1065 1.358 . S
C1063 H1121 0.930 . S
C1064 N1061 1.314 . S
C1064 C1062 1.353 . S
C1064 H1122 0.930 . S
C1065 N1061 1.279 . S
C1065 C1063 1.358 . S
C1065 H1123 0.930 . S
C1066 C1069 1.348 . S
C1066 C1070 1.356 . S
C1066 O1117 1.325 . S
C1067 N1068 1.279 . S
C1067 C1070 1.358 . S
C1067 H1124 0.930 . S
N1068 C1067 1.279 . S
N1068 C1071 1.314 . S
C1069 C1066 1.348 . S
C1069 C1071 1.353 . S
C1069 H1125 0.929 . S
C1070 C1066 1.356 . S
C1070 C1067 1.358 . S
C1070 H1126 0.930 . S
C1071 N1068 1.314 . S
C1071 C1069 1.353 . S
C1071 H1127 0.930 . S
C1072 N1073 1.314 . S
C1072 C1077 1.353 . S
C1072 H1078 0.930 1_554 S
N1073 Li1056 1.990 . S
N1073 C1072 1.314 . S
N1073 C1075 1.279 . S
C1074 C1075 1.358 . S
C1074 C1076 1.356 . S
C1074 H1128 0.930 . S
C1075 N1073 1.279 . S
C1075 C1074 1.358 . S
C1075 H1079 0.930 . S
C1076 C1074 1.356 . S
C1076 C1077 1.348 . S
C1077 C1072 1.353 . S
C1077 C1076 1.348 . S
C1077 H1129 0.929 1_554 S
H1078 C1072 0.930 1_556 S
H1079 C1075 0.930 . S
C1080 N1081 1.314 . S
C1080 C1082 1.353 . S
C1080 H1086 0.930 . S
N1081 Li1057 1.990 . S
N1081 C1080 1.314 . S
N1081 C1084 1.279 . S
C1082 C1080 1.353 . S
C1082 C1085 1.348 . S
C1082 H1130 0.929 . S
C1083 C1084 1.358 . S
C1083 C1085 1.356 . S
C1083 H1131 0.930 . S
C1084 N1081 1.279 . S
C1084 C1083 1.358 . S
C1084 H1087 0.930 . S
C1085 C1082 1.348 . S
C1085 C1083 1.356 . S
H1086 C1080 0.930 . S
H1087 C1084 0.930 . S
C1088 C1090 1.348 . S
C1088 C1091 1.356 . S
C1088 O1118 1.325 . S
N1089 C1092 1.314 . S
N1089 C1093 1.279 . S
C1090 C1088 1.348 . S
C1090 C1092 1.353 . S
C1090 H1132 0.929 . S
C1091 C1088 1.356 . S
C1091 C1093 1.358 . S
C1091 H1133 0.930 . S
C1092 N1089 1.314 . S
C1092 C1090 1.353 . S
C1092 H1134 0.930 . S
C1093 N1089 1.279 . S
C1093 C1091 1.358 . S
C1093 H1135 0.930 . S
C1094 C1095 1.348 . S
C1094 C1096 1.356 . S
C1094 O1119 1.325 . S
C1095 C1094 1.348 . S
C1095 C1097 1.353 . S
C1095 H1136 0.929 . S
C1096 C1094 1.356 . S
C1096 C1098 1.358 . S
C1096 H1137 0.930 . S
C1097 C1095 1.353 . S
C1097 N1099 1.314 . S
C1097 H1138 0.930 . S
C1098 C1096 1.358 . S
C1098 N1099 1.279 . S
C1098 H1139 0.930 . S
N1099 C1097 1.314 . S
N1099 C1098 1.279 . S
C1100 C1102 1.353 . S
C1100 N1103 1.314 . S
C1100 H1106 0.930 . S
C1101 N1103 1.279 . S
C1101 C1104 1.358 . S
C1101 H1107 0.930 1_554 S
C1102 C1100 1.353 . S
C1102 C1105 1.348 . S
C1102 H1140 0.929 . S
N1103 Li1058 1.990 . S
N1103 C1100 1.314 . S
N1103 C1101 1.279 . S
C1104 C1101 1.358 . S
C1104 C1105 1.356 . S
C1104 H1141 0.930 1_554 S
C1105 C1102 1.348 . S
C1105 C1104 1.356 . S
H1106 C1100 0.930 . S
H1107 C1101 0.930 1_556 S
C1108 N1109 1.314 . S
C1108 C1110 1.353 . S
C1108 H1114 0.930 . S
N1109 Li1059 1.990 . S
N1109 C1108 1.314 . S
N1109 C1112 1.279 . S
C1110 C1108 1.353 . S
C1110 C1113 1.348 . S
C1110 H1142 0.929 . S
C1111 C1112 1.358 . S
C1111 C1113 1.356 . S
C1111 H1143 0.930 . S
C1112 N1109 1.279 . S
C1112 C1111 1.358 . S
C1112 H1115 0.930 . S
C1113 C1110 1.348 . S
C1113 C1111 1.356 . S
H1114 C1108 0.930 . S
H1115 C1112 0.930 . S
O1116 Li1056 1.956 . S
O1116 Li1057 1.970 . S
O1116 Li1058 1.961 . S
O1116 C1060 1.325 . S
O1117 Li1056 1.970 . S
O1117 Li1057 1.956 . S
O1117 Li1059 1.961 1_554 S
O1117 C1066 1.325 . S
O1118 Li1056 1.961 1_556 S
O1118 Li1058 1.956 1_556 S
O1118 Li1059 1.970 . S
O1118 C1088 1.325 . S
O1119 Li1057 1.961 . S
O1119 Li1058 1.970 . S
O1119 Li1059 1.956 1_554 S
O1119 C1094 1.325 . S
H1120 C1062 0.929 . S
H1121 C1063 0.930 . S
H1122 C1064 0.930 . S
H1123 C1065 0.930 . S
H1124 C1067 0.930 . S
H1125 C1069 0.929 . S
H1126 C1070 0.930 . S
H1127 C1071 0.930 . S
H1128 C1074 0.930 . S
H1129 C1077 0.929 1_556 S
H1130 C1082 0.929 . S
H1131 C1083 0.930 . S
H1132 C1090 0.929 . S
H1133 C1091 0.930 . S
H1134 C1092 0.930 . S
H1135 C1093 0.930 . S
H1136 C1095 0.929 . S
H1137 C1096 0.930 . S
H1138 C1097 0.930 . S
H1139 C1098 0.930 . S
H1140 C1102 0.929 . S
H1141 C1104 0.930 1_556 S
H1142 C1110 0.929 . S
H1143 C1111 0.930 . S
Li1144 N1161 1.990 . S
Li1144 O1204 2.001 . S
Li1144 O1205 1.970 . S
Li1144 O1206 1.998 . S
Li1145 N1169 1.990 . S
Li1145 O1204 1.975 . S
Li1145 O1205 1.966 . S
Li1145 O1207 1.951 1_554 S
Li1146 N1191 1.990 . S
Li1146 O1204 1.922 1_556 S
Li1146 O1206 1.915 1_556 S
Li1146 O1207 1.970 . S
Li1147 N1197 1.990 . S
Li1147 O1205 1.961 1_556 S
Li1147 O1206 1.971 1_556 S
Li1147 O1207 1.956 . S
C1148 C1150 1.348 . S
C1148 C1151 1.360 . S
C1148 O1204 1.325 . S
N1149 C1152 1.314 . S
N1149 C1153 1.279 . S
C1150 C1148 1.348 . S
C1150 C1152 1.353 . S
C1150 H1208 0.929 . S
C1151 C1148 1.360 . S
C1151 C1153 1.358 . S
C1151 H1209 0.926 1_554 S
C1152 N1149 1.314 . S
C1152 C1150 1.353 . S
C1152 H1210 0.930 . S
C1153 N1149 1.279 . S
C1153 C1151 1.358 . S
C1153 H1211 0.926 1_554 S
C1154 C1157 1.348 . S
C1154 C1158 1.356 . S
C1154 O1205 1.325 . S
C1155 N1156 1.279 . S
C1155 C1158 1.358 . S
C1155 H1212 0.930 . S
N1156 C1155 1.279 . S
N1156 C1159 1.314 . S
C1157 C1154 1.348 . S
C1157 C1159 1.353 . S
C1157 H1213 0.929 . S
C1158 C1154 1.356 . S
C1158 C1155 1.358 . S
C1158 H1214 0.930 . S
C1159 N1156 1.314 . S
C1159 C1157 1.353 . S
C1159 H1215 0.930 . S
C1160 N1161 1.314 . S
C1160 C1165 1.353 . S
C1160 H1166 0.930 . S
N1161 Li1144 1.990 . S
N1161 C1160 1.314 . S
N1161 C1163 1.279 . S
C1162 C1163 1.358 . S
C1162 C1164 1.356 . S
C1162 H1216 0.930 . S
C1163 N1161 1.279 . S
C1163 C1162 1.358 . S
C1163 H1167 0.930 . S
C1164 C1162 1.356 . S
C1164 C1165 1.348 . S
C1165 C1160 1.353 . S
C1165 C1164 1.348 . S
C1165 H1217 0.929 . S
H1166 C1160 0.930 . S
H1167 C1163 0.930 . S
C1168 N1169 1.312 1_556 S
C1168 C1170 1.353 . S
C1168 H1174 0.930 . S
N1169 Li1145 1.990 . S
N1169 C1168 1.312 1_554 S
N1169 C1172 1.281 . S
C1170 C1168 1.353 . S
C1170 C1173 1.401 . S
C1170 H1218 0.929 . S
C1171 C1172 1.358 . S
C1171 C1173 1.304 1_554 S
C1171 H1219 0.930 . S
C1172 N1169 1.281 . S
C1172 C1171 1.358 . S
C1172 H1175 0.930 . S
C1173 C1170 1.401 . S
C1173 C1171 1.304 1_556 S
H1174 C1168 0.930 . S
H1175 C1172 0.930 . S
C1176 C1178 1.337 1_554 S
C1176 C1179 1.363 . S
C1176 O1206 1.324 . S
N1177 C1180 1.314 . S
N1177 C1181 1.280 1_556 S
C1178 C1176 1.337 1_556 S
C1178 C1180 1.353 . S
C1178 H1220 0.929 . S
C1179 C1176 1.363 . S
C1179 C1181 1.358 . S
C1179 H1221 0.930 . S
C1180 N1177 1.314 . S
C1180 C1178 1.353 . S
C1180 H1222 0.930 . S
C1181 N1177 1.280 1_554 S
C1181 C1179 1.358 . S
C1181 H1223 0.930 . S
C1182 C1183 1.348 . S
C1182 C1184 1.356 . S
C1182 O1207 1.325 . S
C1183 C1182 1.348 . S
C1183 C1185 1.353 . S
C1183 H1224 0.929 . S
C1184 C1182 1.356 . S
C1184 C1186 1.358 . S
C1184 H1225 0.930 . S
C1185 C1183 1.353 . S
C1185 N1187 1.314 . S
C1185 H1226 0.930 . S
C1186 C1184 1.358 . S
C1186 N1187 1.279 . S
C1186 H1227 0.930 . S
N1187 C1185 1.314 . S
N1187 C1186 1.279 . S
C1188 C1190 1.353 . S
C1188 N1191 1.314 . S
C1188 H1194 0.930 . S
C1189 N1191 1.279 . S
C1189 C1192 1.358 . S
C1189 H1195 0.930 . S
C1190 C1188 1.353 . S
C1190 C1193 1.348 . S
C1190 H1228 0.929 . S
N1191 Li1146 1.990 . S
N1191 C1188 1.314 . S
N1191 C1189 1.279 . S
C1192 C1189 1.358 . S
C1192 C1193 1.356 . S
C1192 H1229 0.930 . S
C1193 C1190 1.348 . S
C1193 C1192 1.356 . S
H1194 C1188 0.930 . S
H1195 C1189 0.930 . S
C1196 N1197 1.314 1_554 S
C1196 C1198 1.353 . S
C1196 H1202 0.930 . S
N1197 Li1147 1.990 . S
N1197 C1196 1.314 1_556 S
N1197 C1200 1.279 . S
C1198 C1196 1.353 . S
C1198 C1201 1.348 1_554 S
C1198 H1230 0.929 . S
C1199 C1200 1.358 . S
C1199 C1201 1.356 . S
C1199 H1231 0.930 . S
C1200 N1197 1.279 . S
C1200 C1199 1.358 . S
C1200 H1203 0.930 . S
C1201 C1198 1.348 1_556 S
C1201 C1199 1.356 . S
H1202 C1196 0.930 . S
H1203 C1200 0.930 . S
O1204 Li1144 2.001 . S
O1204 Li1145 1.975 . S
O1204 Li1146 1.922 1_554 S
O1204 C1148 1.325 . S
O1205 Li1144 1.970 . S
O1205 Li1145 1.966 . S
O1205 Li1147 1.961 1_554 S
O1205 C1154 1.325 . S
O1206 Li1144 1.998 . S
O1206 Li1146 1.915 1_554 S
O1206 Li1147 1.971 1_554 S
O1206 C1176 1.324 . S
O1207 Li1145 1.951 1_556 S
O1207 Li1146 1.970 . S
O1207 Li1147 1.956 . S
O1207 C1182 1.325 . S
H1208 C1150 0.929 . S
H1209 C1151 0.926 1_556 S
H1210 C1152 0.930 . S
H1211 C1153 0.926 1_556 S
H1212 C1155 0.930 . S
H1213 C1157 0.929 . S
H1214 C1158 0.930 . S
H1215 C1159 0.930 . S
H1216 C1162 0.930 . S
H1217 C1165 0.929 . S
H1218 C1170 0.929 . S
H1219 C1171 0.930 . S
H1220 C1178 0.929 . S
H1221 C1179 0.930 . S
H1222 C1180 0.930 . S
H1223 C1181 0.930 . S
H1224 C1183 0.929 . S
H1225 C1184 0.930 . S
H1226 C1185 0.930 . S
H1227 C1186 0.930 . S
H1228 C1190 0.929 . S
H1229 C1192 0.930 . S
H1230 C1198 0.929 . S
H1231 C1199 0.930 . S
Li1232 N1249 1.990 . S
Li1232 O1292 1.956 . S
Li1232 O1293 1.970 . S
Li1232 O1294 1.961 . S
Li1233 N1257 1.990 . S
Li1233 O1292 1.970 . S
Li1233 O1293 1.956 . S
Li1233 O1295 1.961 . S
Li1234 N1279 1.990 . S
Li1234 O1292 1.961 . S
Li1234 O1294 1.956 . S
Li1234 O1295 1.970 . S
Li1235 N1285 1.990 . S
Li1235 O1293 1.961 . S
Li1235 O1294 1.970 . S
Li1235 O1295 1.956 . S
C1236 C1238 1.348 . S
C1236 C1239 1.356 . S
C1236 O1292 1.325 . S
N1237 C1240 1.314 . S
N1237 C1241 1.279 . S
C1238 C1236 1.348 . S
C1238 C1240 1.353 . S
C1238 H1296 0.929 . S
C1239 C1236 1.356 . S
C1239 C1241 1.358 . S
C1239 H1297 0.930 . S
C1240 N1237 1.314 . S
C1240 C1238 1.353 . S
C1240 H1298 0.930 . S
C1241 N1237 1.279 . S
C1241 C1239 1.358 . S
C1241 H1299 0.930 . S
C1242 C1245 1.348 . S
C1242 C1246 1.356 . S
C1242 O1293 1.325 . S
C1243 N1244 1.279 . S
C1243 C1246 1.358 . S
C1243 H1300 0.930 . S
N1244 C1243 1.279 . S
N1244 C1247 1.314 . S
C1245 C1242 1.348 . S
C1245 C1247 1.353 . S
C1245 H1301 0.929 . S
C1246 C1242 1.356 . S
C1246 C1243 1.358 . S
C1246 H1302 0.930 . S
C1247 N1244 1.314 . S
C1247 C1245 1.353 . S
C1247 H1303 0.930 . S
C1248 N1249 1.314 . S
C1248 C1253 1.353 . S
C1248 H1254 0.930 . S
N1249 Li1232 1.990 . S
N1249 C1248 1.314 . S
N1249 C1251 1.279 . S
C1250 C1251 1.358 . S
C1250 C1252 1.356 . S
C1250 H1304 0.930 . S
C1251 N1249 1.279 . S
C1251 C1250 1.358 . S
C1251 H1255 0.930 . S
C1252 C1250 1.356 . S
C1252 C1253 1.348 . S
C1253 C1248 1.353 . S
C1253 C1252 1.348 . S
C1253 H1305 0.929 . S
H1254 C1248 0.930 . S
H1255 C1251 0.930 . S
C1256 N1257 1.314 . S
C1256 C1258 1.353 . S
C1256 H1262 0.930 . S
N1257 Li1233 1.990 . S
N1257 C1256 1.314 . S
N1257 C1260 1.279 . S
C1258 C1256 1.353 . S
C1258 C1261 1.348 . S
C1258 H1306 0.929 . S
C1259 C1260 1.358 . S
C1259 C1261 1.356 . S
C1259 H1307 0.930 . S
C1260 N1257 1.279 . S
C1260 C1259 1.358 . S
C1260 H1263 0.930 . S
C1261 C1258 1.348 . S
C1261 C1259 1.356 . S
H1262 C1256 0.930 . S
H1263 C1260 0.930 . S
C1264 C1266 1.348 . S
C1264 C1267 1.356 . S
C1264 O1294 1.325 . S
N1265 C1268 1.314 . S
N1265 C1269 1.279 . S
C1266 C1264 1.348 . S
C1266 C1268 1.353 . S
C1266 H1308 0.929 . S
C1267 C1264 1.356 . S
C1267 C1269 1.358 . S
C1267 H1309 0.930 . S
C1268 N1265 1.314 . S
C1268 C1266 1.353 . S
C1268 H1310 0.930 . S
C1269 N1265 1.279 . S
C1269 C1267 1.358 . S
C1269 H1311 0.930 . S
C1270 C1271 1.348 . S
C1270 C1272 1.356 . S
C1270 O1295 1.325 . S
C1271 C1270 1.348 . S
C1271 C1273 1.353 . S
C1271 H1312 0.929 . S
C1272 C1270 1.356 . S
C1272 C1274 1.358 . S
C1272 H1313 0.930 . S
C1273 C1271 1.353 . S
C1273 N1275 1.314 . S
C1273 H1314 0.930 . S
C1274 C1272 1.358 . S
C1274 N1275 1.279 . S
C1274 H1315 0.930 . S
N1275 C1273 1.314 . S
N1275 C1274 1.279 . S
C1276 C1278 1.353 . S
C1276 N1279 1.314 . S
C1276 H1282 0.930 . S
C1277 N1279 1.279 . S
C1277 C1280 1.358 . S
C1277 H1283 0.930 . S
C1278 C1276 1.353 . S
C1278 C1281 1.348 . S
C1278 H1316 0.929 . S
N1279 Li1234 1.990 . S
N1279 C1276 1.314 . S
N1279 C1277 1.279 . S
C1280 C1277 1.358 . S
C1280 C1281 1.356 . S
C1280 H1317 0.930 . S
C1281 C1278 1.348 . S
C1281 C1280 1.356 . S
H1282 C1276 0.930 . S
H1283 C1277 0.930 . S
C1284 N1285 1.314 . S
C1284 C1286 1.353 . S
C1284 H1290 0.930 . S
N1285 Li1235 1.990 . S
N1285 C1284 1.314 . S
N1285 C1288 1.279 . S
C1286 C1284 1.353 . S
C1286 C1289 1.348 . S
C1286 H1318 0.929 . S
C1287 C1288 1.358 . S
C1287 C1289 1.356 . S
C1287 H1319 0.930 . S
C1288 N1285 1.279 . S
C1288 C1287 1.358 . S
C1288 H1291 0.930 . S
C1289 C1286 1.348 . S
C1289 C1287 1.356 . S
H1290 C1284 0.930 . S
H1291 C1288 0.930 . S
O1292 Li1232 1.956 . S
O1292 Li1233 1.970 . S
O1292 Li1234 1.961 . S
O1292 C1236 1.325 . S
O1293 Li1232 1.970 . S
O1293 Li1233 1.956 . S
O1293 Li1235 1.961 . S
O1293 C1242 1.325 . S
O1294 Li1232 1.961 . S
O1294 Li1234 1.956 . S
O1294 Li1235 1.970 . S
O1294 C1264 1.325 . S
O1295 Li1233 1.961 . S
O1295 Li1234 1.970 . S
O1295 Li1235 1.956 . S
O1295 C1270 1.325 . S
H1296 C1238 0.929 . S
H1297 C1239 0.930 . S
H1298 C1240 0.930 . S
H1299 C1241 0.930 . S
H1300 C1243 0.930 . S
H1301 C1245 0.929 . S
H1302 C1246 0.930 . S
H1303 C1247 0.930 . S
H1304 C1250 0.930 . S
H1305 C1253 0.929 . S
H1306 C1258 0.929 . S
H1307 C1259 0.930 . S
H1308 C1266 0.929 . S
H1309 C1267 0.930 . S
H1310 C1268 0.930 . S
H1311 C1269 0.930 . S
H1312 C1271 0.929 . S
H1313 C1272 0.930 . S
H1314 C1273 0.930 . S
H1315 C1274 0.930 . S
H1316 C1278 0.929 . S
H1317 C1280 0.930 . S
H1318 C1286 0.929 . S
H1319 C1287 0.930 . S
Li1320 N1337 1.990 . S
Li1320 O1380 1.956 . S
Li1320 O1381 1.970 . S
Li1320 O1382 1.961 . S
Li1321 N1345 1.990 . S
Li1321 O1380 1.970 . S
Li1321 O1381 1.956 . S
Li1321 O1383 1.961 . S
Li1322 N1367 1.990 . S
Li1322 O1380 1.961 . S
Li1322 O1382 1.956 . S
Li1322 O1383 1.970 . S
Li1323 N1373 1.990 . S
Li1323 O1381 1.961 . S
Li1323 O1382 1.970 . S
Li1323 O1383 1.956 . S
C1324 C1326 1.348 . S
C1324 C1327 1.356 . S
C1324 O1380 1.325 . S
N1325 C1328 1.314 . S
N1325 C1329 1.279 . S
C1326 C1324 1.348 . S
C1326 C1328 1.353 . S
C1326 H1384 0.929 . S
C1327 C1324 1.356 . S
C1327 C1329 1.358 . S
C1327 H1385 0.930 . S
C1328 N1325 1.314 . S
C1328 C1326 1.353 . S
C1328 H1386 0.930 . S
C1329 N1325 1.279 . S
C1329 C1327 1.358 . S
C1329 H1387 0.930 . S
C1330 C1333 1.348 . S
C1330 C1334 1.356 . S
C1330 O1381 1.325 . S
C1331 N1332 1.279 . S
C1331 C1334 1.358 . S
C1331 H1388 0.930 . S
N1332 C1331 1.279 . S
N1332 C1335 1.314 . S
C1333 C1330 1.348 . S
C1333 C1335 1.353 . S
C1333 H1389 0.929 . S
C1334 C1330 1.356 . S
C1334 C1331 1.358 . S
C1334 H1390 0.930 . S
C1335 N1332 1.314 . S
C1335 C1333 1.353 . S
C1335 H1391 0.930 . S
C1336 N1337 1.314 . S
C1336 C1341 1.353 . S
C1336 H1342 0.930 . S
N1337 Li1320 1.990 . S
N1337 C1336 1.314 . S
N1337 C1339 1.279 . S
C1338 C1339 1.358 . S
C1338 C1340 1.356 . S
C1338 H1392 0.930 . S
C1339 N1337 1.279 . S
C1339 C1338 1.358 . S
C1339 H1343 0.930 . S
C1340 C1338 1.356 . S
C1340 C1341 1.348 . S
C1341 C1336 1.353 . S
C1341 C1340 1.348 . S
C1341 H1393 0.929 . S
H1342 C1336 0.930 . S
H1343 C1339 0.930 . S
C1344 N1345 1.314 . S
C1344 C1346 1.353 . S
C1344 H1350 0.930 . S
N1345 Li1321 1.990 . S
N1345 C1344 1.314 . S
N1345 C1348 1.279 . S
C1346 C1344 1.353 . S
C1346 C1349 1.348 . S
C1346 H1394 0.929 . S
C1347 C1348 1.358 . S
C1347 C1349 1.356 . S
C1347 H1395 0.930 . S
C1348 N1345 1.279 . S
C1348 C1347 1.358 . S
C1348 H1351 0.930 . S
C1349 C1346 1.348 . S
C1349 C1347 1.356 . S
H1350 C1344 0.930 . S
H1351 C1348 0.930 . S
C1352 C1354 1.348 . S
C1352 C1355 1.356 . S
C1352 O1382 1.325 . S
N1353 C1356 1.314 . S
N1353 C1357 1.279 . S
C1354 C1352 1.348 . S
C1354 C1356 1.353 . S
C1354 H1396 0.929 . S
C1355 C1352 1.356 . S
C1355 C1357 1.358 . S
C1355 H1397 0.930 . S
C1356 N1353 1.314 . S
C1356 C1354 1.353 . S
C1356 H1398 0.930 . S
C1357 N1353 1.279 . S
C1357 C1355 1.358 . S
C1357 H1399 0.930 . S
C1358 C1359 1.348 . S
C1358 C1360 1.356 . S
C1358 O1383 1.325 . S
C1359 C1358 1.348 . S
C1359 C1361 1.353 . S
C1359 H1400 0.929 . S
C1360 C1358 1.356 . S
C1360 C1362 1.358 . S
C1360 H1401 0.930 . S
C1361 C1359 1.353 . S
C1361 N1363 1.314 . S
C1361 H1402 0.930 . S
C1362 C1360 1.358 . S
C1362 N1363 1.279 . S
C1362 H1403 0.930 . S
N1363 C1361 1.314 . S
N1363 C1362 1.279 . S
C1364 C1366 1.353 . S
C1364 N1367 1.314 . S
C1364 H1370 0.930 . S
C1365 N1367 1.279 . S
C1365 C1368 1.358 . S
C1365 H1371 0.930 . S
C1366 C1364 1.353 . S
C1366 C1369 1.348 . S
C1366 H1404 0.929 . S
N1367 Li1322 1.990 . S
N1367 C1364 1.314 . S
N1367 C1365 1.279 . S
C1368 C1365 1.358 . S
C1368 C1369 1.356 . S
C1368 H1405 0.930 . S
C1369 C1366 1.348 . S
C1369 C1368 1.356 . S
H1370 C1364 0.930 . S
H1371 C1365 0.930 . S
C1372 N1373 1.314 . S
C1372 C1374 1.353 . S
C1372 H1378 0.930 . S
N1373 Li1323 1.990 . S
N1373 C1372 1.314 . S
N1373 C1376 1.279 . S
C1374 C1372 1.353 . S
C1374 C1377 1.348 . S
C1374 H1406 0.929 . S
C1375 C1376 1.358 . S
C1375 C1377 1.356 . S
C1375 H1407 0.930 . S
C1376 N1373 1.279 . S
C1376 C1375 1.358 . S
C1376 H1379 0.930 . S
C1377 C1374 1.348 . S
C1377 C1375 1.356 . S
H1378 C1372 0.930 . S
H1379 C1376 0.930 . S
O1380 Li1320 1.956 . S
O1380 Li1321 1.970 . S
O1380 Li1322 1.961 . S
O1380 C1324 1.325 . S
O1381 Li1320 1.970 . S
O1381 Li1321 1.956 . S
O1381 Li1323 1.961 . S
O1381 C1330 1.325 . S
O1382 Li1320 1.961 . S
O1382 Li1322 1.956 . S
O1382 Li1323 1.970 . S
O1382 C1352 1.325 . S
O1383 Li1321 1.961 . S
O1383 Li1322 1.970 . S
O1383 Li1323 1.956 . S
O1383 C1358 1.325 . S
H1384 C1326 0.929 . S
H1385 C1327 0.930 . S
H1386 C1328 0.930 . S
H1387 C1329 0.930 . S
H1388 C1331 0.930 . S
H1389 C1333 0.929 . S
H1390 C1334 0.930 . S
H1391 C1335 0.930 . S
H1392 C1338 0.930 . S
H1393 C1341 0.929 . S
H1394 C1346 0.929 . S
H1395 C1347 0.930 . S
H1396 C1354 0.929 . S
H1397 C1355 0.930 . S
H1398 C1356 0.930 . S
H1399 C1357 0.930 . S
H1400 C1359 0.929 . S
H1401 C1360 0.930 . S
H1402 C1361 0.930 . S
H1403 C1362 0.930 . S
H1404 C1366 0.929 . S
H1405 C1368 0.930 . S
H1406 C1374 0.929 . S
H1407 C1375 0.930 . S
Li1408 N1425 1.990 . S
Li1408 O1468 1.956 . S
Li1408 O1469 1.970 . S
Li1408 O1470 1.961 . S
Li1409 N1433 1.990 . S
Li1409 O1468 1.970 . S
Li1409 O1469 1.956 . S
Li1409 O1471 1.961 . S
Li1410 N1455 1.990 . S
Li1410 O1468 1.961 . S
Li1410 O1470 1.956 . S
Li1410 O1471 1.970 . S
Li1411 N1461 1.990 . S
Li1411 O1469 1.961 . S
Li1411 O1470 1.970 . S
Li1411 O1471 1.956 . S
C1412 C1414 1.348 . S
C1412 C1415 1.356 . S
C1412 O1468 1.325 . S
N1413 C1416 1.314 . S
N1413 C1417 1.279 1_565 S
C1414 C1412 1.348 . S
C1414 C1416 1.353 1_545 S
C1414 H1472 0.929 . S
C1415 C1412 1.356 . S
C1415 C1417 1.358 . S
C1415 H1473 0.930 . S
C1416 N1413 1.314 . S
C1416 C1414 1.353 1_565 S
C1416 H1474 0.930 . S
C1417 N1413 1.279 1_545 S
C1417 C1415 1.358 . S
C1417 H1475 0.930 . S
C1418 C1421 1.348 . S
C1418 C1422 1.356 . S
C1418 O1469 1.325 . S
C1419 N1420 1.279 . S
C1419 C1422 1.358 . S
C1419 H1476 0.930 . S
N1420 C1419 1.279 . S
N1420 C1423 1.314 . S
C1421 C1418 1.348 . S
C1421 C1423 1.353 . S
C1421 H1477 0.929 . S
C1422 C1418 1.356 . S
C1422 C1419 1.358 . S
C1422 H1478 0.930 . S
C1423 N1420 1.314 . S
C1423 C1421 1.353 . S
C1423 H1479 0.930 . S
C1424 N1425 1.314 . S
C1424 C1429 1.353 . S
C1424 H1430 0.930 . S
N1425 Li1408 1.990 . S
N1425 C1424 1.314 . S
N1425 C1427 1.279 . S
C1426 C1427 1.358 . S
C1426 C1428 1.356 . S
C1426 H1480 0.930 . S
C1427 N1425 1.279 . S
C1427 C1426 1.358 . S
C1427 H1431 0.930 . S
C1428 C1426 1.356 . S
C1428 C1429 1.348 . S
C1429 C1424 1.353 . S
C1429 C1428 1.348 . S
C1429 H1481 0.929 . S
H1430 C1424 0.930 . S
H1431 C1427 0.930 . S
C1432 N1433 1.292 1_565 S
C1432 C1434 1.389 . S
C1432 H1438 0.917 1_565 S
N1433 Li1409 1.990 . S
N1433 C1432 1.292 1_545 S
N1433 C1436 1.279 . S
C1434 C1432 1.389 . S
C1434 C1437 1.348 . S
C1434 H1482 0.929 . S
C1435 C1436 1.358 1_565 S
C1435 C1437 1.356 . S
C1435 H1483 0.930 . S
C1436 N1433 1.279 . S
C1436 C1435 1.358 1_545 S
C1436 H1439 0.930 . S
C1437 C1434 1.348 . S
C1437 C1435 1.356 . S
H1438 C1432 0.917 1_545 S
H1439 C1436 0.930 . S
C1440 C1442 1.348 . S
C1440 C1443 1.356 . S
C1440 O1470 1.325 . S
N1441 C1444 1.314 . S
N1441 C1445 1.279 . S
C1442 C1440 1.348 . S
C1442 C1444 1.353 . S
C1442 H1484 0.929 . S
C1443 C1440 1.356 . S
C1443 C1445 1.358 . S
C1443 H1485 0.930 . S
C1444 N1441 1.314 . S
C1444 C1442 1.353 . S
C1444 H1486 0.930 . S
C1445 N1441 1.279 . S
C1445 C1443 1.358 . S
C1445 H1487 0.930 . S
C1446 C1447 1.348 . S
C1446 C1448 1.356 . S
C1446 O1471 1.325 . S
C1447 C1446 1.348 . S
C1447 C1449 1.353 . S
C1447 H1488 0.929 . S
C1448 C1446 1.356 . S
C1448 C1450 1.358 . S
C1448 H1489 0.930 . S
C1449 C1447 1.353 . S
C1449 N1451 1.314 . S
C1449 H1490 0.930 . S
C1450 C1448 1.358 . S
C1450 N1451 1.279 . S
C1450 H1491 0.930 . S
N1451 C1449 1.314 . S
N1451 C1450 1.279 . S
C1452 C1454 1.353 . S
C1452 N1455 1.314 . S
C1452 H1458 0.930 . S
C1453 N1455 1.279 . S
C1453 C1456 1.358 . S
C1453 H1459 0.930 . S
C1454 C1452 1.353 . S
C1454 C1457 1.348 . S
C1454 H1492 0.929 . S
N1455 Li1410 1.990 . S
N1455 C1452 1.314 . S
N1455 C1453 1.279 . S
C1456 C1453 1.358 . S
C1456 C1457 1.356 . S
C1456 H1493 0.930 . S
C1457 C1454 1.348 . S
C1457 C1456 1.356 . S
H1458 C1452 0.930 . S
H1459 C1453 0.930 . S
C1460 N1461 1.314 . S
C1460 C1462 1.353 . S
C1460 H1466 0.930 . S
N1461 Li1411 1.990 . S
N1461 C1460 1.314 . S
N1461 C1464 1.279 . S
C1462 C1460 1.353 . S
C1462 C1465 1.348 . S
C1462 H1494 0.929 . S
C1463 C1464 1.358 . S
C1463 C1465 1.356 . S
C1463 H1495 0.930 . S
C1464 N1461 1.279 . S
C1464 C1463 1.358 . S
C1464 H1467 0.930 . S
C1465 C1462 1.348 . S
C1465 C1463 1.356 . S
H1466 C1460 0.930 . S
H1467 C1464 0.930 . S
O1468 Li1408 1.956 . S
O1468 Li1409 1.970 . S
O1468 Li1410 1.961 . S
O1468 C1412 1.325 . S
O1469 Li1408 1.970 . S
O1469 Li1409 1.956 . S
O1469 Li1411 1.961 . S
O1469 C1418 1.325 . S
O1470 Li1408 1.961 . S
O1470 Li1410 1.956 . S
O1470 Li1411 1.970 . S
O1470 C1440 1.325 . S
O1471 Li1409 1.961 . S
O1471 Li1410 1.970 . S
O1471 Li1411 1.956 . S
O1471 C1446 1.325 . S
H1472 C1414 0.929 . S
H1473 C1415 0.930 . S
H1474 C1416 0.930 . S
H1475 C1417 0.930 . S
H1476 C1419 0.930 . S
H1477 C1421 0.929 . S
H1478 C1422 0.930 . S
H1479 C1423 0.930 . S
H1480 C1426 0.930 . S
H1481 C1429 0.929 . S
H1482 C1434 0.929 . S
H1483 C1435 0.930 . S
H1484 C1442 0.929 . S
H1485 C1443 0.930 . S
H1486 C1444 0.930 . S
H1487 C1445 0.930 . S
H1488 C1447 0.929 . S
H1489 C1448 0.930 . S
H1490 C1449 0.930 . S
H1491 C1450 0.930 . S
H1492 C1454 0.929 . S
H1493 C1456 0.930 . S
H1494 C1462 0.929 . S
H1495 C1463 0.930 . S
Li1496 N1513 1.990 . S
Li1496 O1556 1.956 . S
Li1496 O1557 1.970 . S
Li1496 O1558 1.961 . S
Li1497 N1521 1.990 . S
Li1497 O1556 1.970 . S
Li1497 O1557 1.956 . S
Li1497 O1559 1.961 . S
Li1498 N1543 1.990 . S
Li1498 O1556 1.961 . S
Li1498 O1558 1.956 . S
Li1498 O1559 1.970 . S
Li1499 N1549 1.990 . S
Li1499 O1557 1.961 . S
Li1499 O1558 1.970 . S
Li1499 O1559 1.956 . S
C1500 C1502 1.348 . S
C1500 C1503 1.356 . S
C1500 O1556 1.325 . S
N1501 C1504 1.314 . S
N1501 C1505 1.279 . S
C1502 C1500 1.348 . S
C1502 C1504 1.353 . S
C1502 H1560 0.929 . S
C1503 C1500 1.356 . S
C1503 C1505 1.358 . S
C1503 H1561 0.930 . S
C1504 N1501 1.314 . S
C1504 C1502 1.353 . S
C1504 H1562 0.930 . S
C1505 N1501 1.279 . S
C1505 C1503 1.358 . S
C1505 H1563 0.930 . S
C1506 C1509 1.348 . S
C1506 C1510 1.356 . S
C1506 O1557 1.325 . S
C1507 N1508 1.279 . S
C1507 C1510 1.358 . S
C1507 H1564 0.930 . S
N1508 C1507 1.279 . S
N1508 C1511 1.314 . S
C1509 C1506 1.348 . S
C1509 C1511 1.353 . S
C1509 H1565 0.929 . S
C1510 C1506 1.356 . S
C1510 C1507 1.358 . S
C1510 H1566 0.930 . S
C1511 N1508 1.314 . S
C1511 C1509 1.353 . S
C1511 H1567 0.930 . S
C1512 N1513 1.314 . S
C1512 C1517 1.353 . S
C1512 H1518 0.930 . S
N1513 Li1496 1.990 . S
N1513 C1512 1.314 . S
N1513 C1515 1.279 . S
C1514 C1515 1.358 . S
C1514 C1516 1.356 . S
C1514 H1568 0.930 . S
C1515 N1513 1.279 . S
C1515 C1514 1.358 . S
C1515 H1519 0.930 . S
C1516 C1514 1.356 . S
C1516 C1517 1.348 . S
C1517 C1512 1.353 . S
C1517 C1516 1.348 . S
C1517 H1569 0.929 . S
H1518 C1512 0.930 . S
H1519 C1515 0.930 . S
C1520 N1521 1.314 . S
C1520 C1522 1.353 . S
C1520 H1526 0.930 . S
N1521 Li1497 1.990 . S
N1521 C1520 1.314 . S
N1521 C1524 1.279 . S
C1522 C1520 1.353 . S
C1522 C1525 1.348 . S
C1522 H1570 0.929 . S
C1523 C1524 1.358 . S
C1523 C1525 1.356 . S
C1523 H1571 0.930 . S
C1524 N1521 1.279 . S
C1524 C1523 1.358 . S
C1524 H1527 0.930 . S
C1525 C1522 1.348 . S
C1525 C1523 1.356 . S
H1526 C1520 0.930 . S
H1527 C1524 0.930 . S
C1528 C1530 1.348 . S
C1528 C1531 1.356 . S
C1528 O1558 1.325 . S
N1529 C1532 1.314 . S
N1529 C1533 1.279 . S
C1530 C1528 1.348 . S
C1530 C1532 1.353 . S
C1530 H1572 0.929 . S
C1531 C1528 1.356 . S
C1531 C1533 1.358 . S
C1531 H1573 0.930 . S
C1532 N1529 1.314 . S
C1532 C1530 1.353 . S
C1532 H1574 0.930 . S
C1533 N1529 1.279 . S
C1533 C1531 1.358 . S
C1533 H1575 0.930 . S
C1534 C1535 1.348 . S
C1534 C1536 1.356 . S
C1534 O1559 1.325 . S
C1535 C1534 1.348 . S
C1535 C1537 1.353 . S
C1535 H1576 0.929 . S
C1536 C1534 1.356 . S
C1536 C1538 1.358 . S
C1536 H1577 0.930 . S
C1537 C1535 1.353 . S
C1537 N1539 1.314 . S
C1537 H1578 0.930 . S
C1538 C1536 1.358 . S
C1538 N1539 1.279 . S
C1538 H1579 0.930 . S
N1539 C1537 1.314 . S
N1539 C1538 1.279 . S
C1540 C1542 1.353 . S
C1540 N1543 1.314 . S
C1540 H1546 0.930 . S
C1541 N1543 1.279 . S
C1541 C1544 1.358 . S
C1541 H1547 0.930 . S
C1542 C1540 1.353 . S
C1542 C1545 1.348 . S
C1542 H1580 0.929 . S
N1543 Li1498 1.990 . S
N1543 C1540 1.314 . S
N1543 C1541 1.279 . S
C1544 C1541 1.358 . S
C1544 C1545 1.356 . S
C1544 H1581 0.930 . S
C1545 C1542 1.348 . S
C1545 C1544 1.356 . S
H1546 C1540 0.930 . S
H1547 C1541 0.930 . S
C1548 N1549 1.314 . S
C1548 C1550 1.353 . S
C1548 H1554 0.930 . S
N1549 Li1499 1.990 . S
N1549 C1548 1.314 . S
N1549 C1552 1.279 . S
C1550 C1548 1.353 . S
C1550 C1553 1.348 . S
C1550 H1582 0.929 . S
C1551 C1552 1.358 . S
C1551 C1553 1.356 . S
C1551 H1583 0.930 . S
C1552 N1549 1.279 . S
C1552 C1551 1.358 . S
C1552 H1555 0.930 . S
C1553 C1550 1.348 . S
C1553 C1551 1.356 . S
H1554 C1548 0.930 . S
H1555 C1552 0.930 . S
O1556 Li1496 1.956 . S
O1556 Li1497 1.970 . S
O1556 Li1498 1.961 . S
O1556 C1500 1.325 . S
O1557 Li1496 1.970 . S
O1557 Li1497 1.956 . S
O1557 Li1499 1.961 . S
O1557 C1506 1.325 . S
O1558 Li1496 1.961 . S
O1558 Li1498 1.956 . S
O1558 Li1499 1.970 . S
O1558 C1528 1.325 . S
O1559 Li1497 1.961 . S
O1559 Li1498 1.970 . S
O1559 Li1499 1.956 . S
O1559 C1534 1.325 . S
H1560 C1502 0.929 . S
H1561 C1503 0.930 . S
H1562 C1504 0.930 . S
H1563 C1505 0.930 . S
H1564 C1507 0.930 . S
H1565 C1509 0.929 . S
H1566 C1510 0.930 . S
H1567 C1511 0.930 . S
H1568 C1514 0.930 . S
H1569 C1517 0.929 . S
H1570 C1522 0.929 . S
H1571 C1523 0.930 . S
H1572 C1530 0.929 . S
H1573 C1531 0.930 . S
H1574 C1532 0.930 . S
H1575 C1533 0.930 . S
H1576 C1535 0.929 . S
H1577 C1536 0.930 . S
H1578 C1537 0.930 . S
H1579 C1538 0.930 . S
H1580 C1542 0.929 . S
H1581 C1544 0.930 . S
H1582 C1550 0.929 . S
H1583 C1551 0.930 . S
Li1584 N1601 1.990 . S
Li1584 O1644 1.956 . S
Li1584 O1645 1.970 . S
Li1584 O1646 1.961 . S
Li1585 N1609 1.990 . S
Li1585 O1644 1.970 . S
Li1585 O1645 1.956 . S
Li1585 O1647 1.961 . S
Li1586 N1631 1.990 . S
Li1586 O1644 1.961 . S
Li1586 O1646 1.956 . S
Li1586 O1647 1.970 . S
Li1587 N1637 1.990 . S
Li1587 O1645 1.961 . S
Li1587 O1646 1.970 . S
Li1587 O1647 1.956 . S
C1588 C1590 1.348 . S
C1588 C1591 1.356 . S
C1588 O1644 1.325 . S
N1589 C1592 1.314 . S
N1589 C1593 1.279 . S
C1590 C1588 1.348 . S
C1590 C1592 1.353 . S
C1590 H1648 0.929 . S
C1591 C1588 1.356 . S
C1591 C1593 1.358 . S
C1591 H1649 0.930 . S
C1592 N1589 1.314 . S
C1592 C1590 1.353 . S
C1592 H1650 0.930 . S
C1593 N1589 1.279 . S
C1593 C1591 1.358 . S
C1593 H1651 0.930 . S
C1594 C1597 1.348 . S
C1594 C1598 1.356 . S
C1594 O1645 1.325 . S
C1595 N1596 1.279 . S
C1595 C1598 1.358 . S
C1595 H1652 0.930 . S
N1596 C1595 1.279 . S
N1596 C1599 1.314 . S
C1597 C1594 1.348 . S
C1597 C1599 1.353 . S
C1597 H1653 0.929 . S
C1598 C1594 1.356 . S
C1598 C1595 1.358 . S
C1598 H1654 0.930 . S
C1599 N1596 1.314 . S
C1599 C1597 1.353 . S
C1599 H1655 0.930 . S
C1600 N1601 1.314 . S
C1600 C1605 1.353 . S
C1600 H1606 0.930 . S
N1601 Li1584 1.990 . S
N1601 C1600 1.314 . S
N1601 C1603 1.279 . S
C1602 C1603 1.358 . S
C1602 C1604 1.356 . S
C1602 H1656 0.930 . S
C1603 N1601 1.279 . S
C1603 C1602 1.358 . S
C1603 H1607 0.930 . S
C1604 C1602 1.356 . S
C1604 C1605 1.348 . S
C1605 C1600 1.353 . S
C1605 C1604 1.348 . S
C1605 H1657 0.929 . S
H1606 C1600 0.930 . S
H1607 C1603 0.930 . S
C1608 N1609 1.314 . S
C1608 C1610 1.353 . S
C1608 H1614 0.930 . S
N1609 Li1585 1.990 . S
N1609 C1608 1.314 . S
N1609 C1612 1.279 . S
C1610 C1608 1.353 . S
C1610 C1613 1.348 . S
C1610 H1658 0.929 . S
C1611 C1612 1.358 . S
C1611 C1613 1.356 . S
C1611 H1659 0.930 . S
C1612 N1609 1.279 . S
C1612 C1611 1.358 . S
C1612 H1615 0.930 . S
C1613 C1610 1.348 . S
C1613 C1611 1.356 . S
H1614 C1608 0.930 . S
H1615 C1612 0.930 . S
C1616 C1618 1.348 . S
C1616 C1619 1.356 . S
C1616 O1646 1.325 . S
N1617 C1620 1.314 . S
N1617 C1621 1.279 . S
C1618 C1616 1.348 . S
C1618 C1620 1.353 . S
C1618 H1660 0.929 . S
C1619 C1616 1.356 . S
C1619 C1621 1.358 . S
C1619 H1661 0.930 . S
C1620 N1617 1.314 . S
C1620 C1618 1.353 . S
C1620 H1662 0.930 . S
C1621 N1617 1.279 . S
C1621 C1619 1.358 . S
C1621 H1663 0.930 . S
C1622 C1623 1.348 . S
C1622 C1624 1.356 . S
C1622 O1647 1.325 . S
C1623 C1622 1.348 . S
C1623 C1625 1.353 . S
C1623 H1664 0.929 . S
C1624 C1622 1.356 . S
C1624 C1626 1.358 . S
C1624 H1665 0.930 . S
C1625 C1623 1.353 . S
C1625 N1627 1.314 . S
C1625 H1666 0.930 . S
C1626 C1624 1.358 . S
C1626 N1627 1.279 . S
C1626 H1667 0.930 . S
N1627 C1625 1.314 . S
N1627 C1626 1.279 . S
C1628 C1630 1.353 . S
C1628 N1631 1.314 . S
C1628 H1634 0.930 . S
C1629 N1631 1.279 . S
C1629 C1632 1.358 . S
C1629 H1635 0.930 . S
C1630 C1628 1.353 . S
C1630 C1633 1.348 . S
C1630 H1668 0.929 . S
N1631 Li1586 1.990 . S
N1631 C1628 1.314 . S
N1631 C1629 1.279 . S
C1632 C1629 1.358 . S
C1632 C1633 1.356 . S
C1632 H1669 0.930 . S
C1633 C1630 1.348 . S
C1633 C1632 1.356 . S
H1634 C1628 0.930 . S
H1635 C1629 0.930 . S
C1636 N1637 1.314 . S
C1636 C1638 1.353 . S
C1636 H1642 0.930 . S
N1637 Li1587 1.990 . S
N1637 C1636 1.314 . S
N1637 C1640 1.279 . S
C1638 C1636 1.353 . S
C1638 C1641 1.348 . S
C1638 H1670 0.929 . S
C1639 C1640 1.358 . S
C1639 C1641 1.356 . S
C1639 H1671 0.930 . S
C1640 N1637 1.279 . S
C1640 C1639 1.358 . S
C1640 H1643 0.930 . S
C1641 C1638 1.348 . S
C1641 C1639 1.356 . S
H1642 C1636 0.930 . S
H1643 C1640 0.930 . S
O1644 Li1584 1.956 . S
O1644 Li1585 1.970 . S
O1644 Li1586 1.961 . S
O1644 C1588 1.325 . S
O1645 Li1584 1.970 . S
O1645 Li1585 1.956 . S
O1645 Li1587 1.961 . S
O1645 C1594 1.325 . S
O1646 Li1584 1.961 . S
O1646 Li1586 1.956 . S
O1646 Li1587 1.970 . S
O1646 C1616 1.325 . S
O1647 Li1585 1.961 . S
O1647 Li1586 1.970 . S
O1647 Li1587 1.956 . S
O1647 C1622 1.325 . S
H1648 C1590 0.929 . S
H1649 C1591 0.930 . S
H1650 C1592 0.930 . S
H1651 C1593 0.930 . S
H1652 C1595 0.930 . S
H1653 C1597 0.929 . S
H1654 C1598 0.930 . S
H1655 C1599 0.930 . S
H1656 C1602 0.930 . S
H1657 C1605 0.929 . S
H1658 C1610 0.929 . S
H1659 C1611 0.930 . S
H1660 C1618 0.929 . S
H1661 C1619 0.930 . S
H1662 C1620 0.930 . S
H1663 C1621 0.930 . S
H1664 C1623 0.929 . S
H1665 C1624 0.930 . S
H1666 C1625 0.930 . S
H1667 C1626 0.930 . S
H1668 C1630 0.929 . S
H1669 C1632 0.930 . S
H1670 C1638 0.929 . S
H1671 C1639 0.930 . S
Li1672 N1689 1.990 . S
Li1672 O1732 1.956 . S
Li1672 O1733 1.970 . S
Li1672 O1734 1.961 . S
Li1673 N1697 1.990 . S
Li1673 O1732 1.970 . S
Li1673 O1733 1.956 . S
Li1673 O1735 1.961 . S
Li1674 N1719 1.990 . S
Li1674 O1732 1.961 . S
Li1674 O1734 1.956 . S
Li1674 O1735 1.970 . S
Li1675 N1725 1.990 1_545 S
Li1675 O1733 1.961 . S
Li1675 O1734 1.970 . S
Li1675 O1735 1.956 . S
C1676 C1678 1.348 . S
C1676 C1679 1.356 . S
C1676 O1732 1.325 . S
N1677 C1680 1.314 . S
N1677 C1681 1.279 . S
C1678 C1676 1.348 . S
C1678 C1680 1.353 . S
C1678 H1736 0.929 . S
C1679 C1676 1.356 . S
C1679 C1681 1.358 . S
C1679 H1737 0.930 . S
C1680 N1677 1.314 . S
C1680 C1678 1.353 . S
C1680 H1738 0.930 . S
C1681 N1677 1.279 . S
C1681 C1679 1.358 . S
C1681 H1739 0.930 . S
C1682 C1685 1.348 . S
C1682 C1686 1.356 . S
C1682 O1733 1.325 . S
C1683 N1684 1.279 . S
C1683 C1686 1.358 . S
C1683 H1740 0.930 . S
N1684 C1683 1.279 . S
N1684 C1687 1.314 . S
C1685 C1682 1.348 . S
C1685 C1687 1.353 . S
C1685 H1741 0.929 . S
C1686 C1682 1.356 . S
C1686 C1683 1.358 . S
C1686 H1742 0.930 . S
C1687 N1684 1.314 . S
C1687 C1685 1.353 . S
C1687 H1743 0.930 . S
C1688 N1689 1.314 . S
C1688 C1693 1.353 . S
C1688 H1694 0.952 . S
N1689 Li1672 1.990 . S
N1689 C1688 1.314 . S
N1689 C1691 1.279 . S
C1690 C1691 1.358 . S
C1690 C1692 1.356 . S
C1690 H1744 0.930 . S
C1691 N1689 1.279 . S
C1691 C1690 1.358 . S
C1691 H1695 0.930 . S
C1692 C1690 1.356 . S
C1692 C1693 1.348 . S
C1693 C1688 1.353 . S
C1693 C1692 1.348 . S
C1693 H1745 0.929 1_545 S
H1694 C1688 0.952 . S
H1695 C1691 0.930 . S
C1696 N1697 1.314 . S
C1696 C1698 1.353 . S
C1696 H1702 0.930 . S
N1697 Li1673 1.990 . S
N1697 C1696 1.314 . S
N1697 C1700 1.279 . S
C1698 C1696 1.353 . S
C1698 C1701 1.348 . S
C1698 H1746 0.929 . S
C1699 C1700 1.358 . S
C1699 C1701 1.356 . S
C1699 H1747 0.930 . S
C1700 N1697 1.279 . S
C1700 C1699 1.358 . S
C1700 H1703 0.930 . S
C1701 C1698 1.348 . S
C1701 C1699 1.356 . S
H1702 C1696 0.930 . S
H1703 C1700 0.930 . S
C1704 C1706 1.348 . S
C1704 C1707 1.356 . S
C1704 O1734 1.325 1_565 S
N1705 C1708 1.314 . S
N1705 C1709 1.279 . S
C1706 C1704 1.348 . S
C1706 C1708 1.353 . S
C1706 H1748 0.929 . S
C1707 C1704 1.356 . S
C1707 C1709 1.358 . S
C1707 H1749 0.930 . S
C1708 N1705 1.314 . S
C1708 C1706 1.353 . S
C1708 H1750 0.930 . S
C1709 N1705 1.279 . S
C1709 C1707 1.358 . S
C1709 H1751 0.930 . S
C1710 C1711 1.348 . S
C1710 C1712 1.356 . S
C1710 O1735 1.325 . S
C1711 C1710 1.348 . S
C1711 C1713 1.353 . S
C1711 H1752 0.929 . S
C1712 C1710 1.356 . S
C1712 C1714 1.358 . S
C1712 H1753 0.930 . S
C1713 C1711 1.353 . S
C1713 N1715 1.314 . S
C1713 H1754 0.930 . S
C1714 C1712 1.358 . S
C1714 N1715 1.279 . S
C1714 H1755 0.930 . S
N1715 C1713 1.314 . S
N1715 C1714 1.279 . S
C1716 C1718 1.353 . S
C1716 N1719 1.314 . S
C1716 H1722 0.930 . S
C1717 N1719 1.279 . S
C1717 C1720 1.358 . S
C1717 H1723 0.930 1_545 S
C1718 C1716 1.353 . S
C1718 C1721 1.348 . S
C1718 H1756 0.929 . S
N1719 Li1674 1.990 . S
N1719 C1716 1.314 . S
N1719 C1717 1.279 . S
C1720 C1717 1.358 . S
C1720 C1721 1.356 . S
C1720 H1757 0.930 1_545 S
C1721 C1718 1.348 . S
C1721 C1720 1.356 . S
H1722 C1716 0.930 . S
H1723 C1717 0.930 1_565 S
C1724 N1725 1.314 . S
C1724 C1726 1.353 . S
C1724 H1730 0.930 . S
N1725 Li1675 1.990 1_565 S
N1725 C1724 1.314 . S
N1725 C1728 1.279 . S
C1726 C1724 1.353 . S
C1726 C1729 1.348 . S
C1726 H1758 0.929 . S
C1727 C1728 1.358 . S
C1727 C1729 1.356 . S
C1727 H1759 0.930 . S
C1728 N1725 1.279 . S
C1728 C1727 1.358 . S
C1728 H1731 0.930 . S
C1729 C1726 1.348 . S
C1729 C1727 1.356 . S
H1730 C1724 0.930 . S
H1731 C1728 0.930 . S
O1732 Li1672 1.956 . S
O1732 Li1673 1.970 . S
O1732 Li1674 1.961 . S
O1732 C1676 1.325 . S
O1733 Li1672 1.970 . S
O1733 Li1673 1.956 . S
O1733 Li1675 1.961 . S
O1733 C1682 1.325 . S
O1734 Li1672 1.961 . S
O1734 Li1674 1.956 . S
O1734 Li1675 1.970 . S
O1734 C1704 1.325 1_545 S
O1735 Li1673 1.961 . S
O1735 Li1674 1.970 . S
O1735 Li1675 1.956 . S
O1735 C1710 1.325 . S
H1736 C1678 0.929 . S
H1737 C1679 0.930 . S
H1738 C1680 0.930 . S
H1739 C1681 0.930 . S
H1740 C1683 0.930 . S
H1741 C1685 0.929 . S
H1742 C1686 0.930 . S
H1743 C1687 0.930 . S
H1744 C1690 0.930 . S
H1745 C1693 0.929 1_565 S
H1746 C1698 0.929 . S
H1747 C1699 0.930 . S
H1748 C1706 0.929 . S
H1749 C1707 0.930 . S
H1750 C1708 0.930 . S
H1751 C1709 0.930 . S
H1752 C1711 0.929 . S
H1753 C1712 0.930 . S
H1754 C1713 0.930 . S
H1755 C1714 0.930 . S
H1756 C1718 0.929 . S
H1757 C1720 0.930 1_565 S
H1758 C1726 0.929 . S
H1759 C1727 0.930 . S
Li1760 N1777 1.990 . S
Li1760 O1820 1.956 . S
Li1760 O1821 1.970 . S
Li1760 O1822 1.961 . S
Li1761 N1785 1.990 . S
Li1761 O1820 1.970 . S
Li1761 O1821 1.956 . S
Li1761 O1823 1.961 1_554 S
Li1762 N1807 1.984 . S
Li1762 O1820 1.965 1_556 S
Li1762 O1822 1.961 1_556 S
Li1762 O1823 1.970 . S
Li1763 N1813 1.990 . S
Li1763 O1821 1.961 . S
Li1763 O1822 1.970 . S
Li1763 O1823 1.956 1_554 S
C1764 C1766 1.348 . S
C1764 C1767 1.356 . S
C1764 O1820 1.325 . S
N1765 C1768 1.314 . S
N1765 C1769 1.279 . S
C1766 C1764 1.348 . S
C1766 C1768 1.353 . S
C1766 H1824 0.929 . S
C1767 C1764 1.356 . S
C1767 C1769 1.358 . S
C1767 H1825 0.930 . S
C1768 N1765 1.314 . S
C1768 C1766 1.353 . S
C1768 H1826 0.930 . S
C1769 N1765 1.279 . S
C1769 C1767 1.358 . S
C1769 H1827 0.930 . S
C1770 C1773 1.348 . S
C1770 C1774 1.356 . S
C1770 O1821 1.325 . S
C1771 N1772 1.279 . S
C1771 C1774 1.358 . S
C1771 H1828 0.930 . S
N1772 C1771 1.279 . S
N1772 C1775 1.314 . S
C1773 C1770 1.348 . S
C1773 C1775 1.353 . S
C1773 H1829 0.929 . S
C1774 C1770 1.356 . S
C1774 C1771 1.358 . S
C1774 H1830 0.930 . S
C1775 N1772 1.314 . S
C1775 C1773 1.353 . S
C1775 H1831 0.930 . S
C1776 N1777 1.314 . S
C1776 C1781 1.353 . S
C1776 H1782 0.930 . S
N1777 Li1760 1.990 . S
N1777 C1776 1.314 . S
N1777 C1779 1.279 . S
C1778 C1779 1.358 . S
C1778 C1780 1.356 . S
C1778 H1832 0.930 . S
C1779 N1777 1.279 . S
C1779 C1778 1.358 . S
C1779 H1783 0.930 . S
C1780 C1778 1.356 . S
C1780 C1781 1.348 . S
C1781 C1776 1.353 . S
C1781 C1780 1.348 . S
C1781 H1833 0.929 . S
H1782 C1776 0.930 . S
H1783 C1779 0.930 . S
C1784 N1785 1.314 . S
C1784 C1786 1.353 . S
C1784 H1790 0.930 1_554 S
N1785 Li1761 1.990 . S
N1785 C1784 1.314 . S
N1785 C1788 1.279 . S
C1786 C1784 1.353 . S
C1786 C1789 1.348 . S
C1786 H1834 0.929 1_554 S
C1787 C1788 1.358 . S
C1787 C1789 1.356 . S
C1787 H1835 0.930 . S
C1788 N1785 1.279 . S
C1788 C1787 1.358 . S
C1788 H1791 0.930 . S
C1789 C1786 1.348 . S
C1789 C1787 1.356 . S
H1790 C1784 0.930 1_556 S
H1791 C1788 0.930 . S
C1792 C1794 1.348 . S
C1792 C1795 1.356 . S
C1792 O1822 1.325 . S
N1793 C1796 1.314 . S
N1793 C1797 1.279 . S
C1794 C1792 1.348 . S
C1794 C1796 1.353 . S
C1794 H1836 0.929 . S
C1795 C1792 1.356 . S
C1795 C1797 1.358 . S
C1795 H1837 0.930 . S
C1796 N1793 1.314 . S
C1796 C1794 1.353 . S
C1796 H1838 0.930 . S
C1797 N1793 1.279 . S
C1797 C1795 1.358 . S
C1797 H1839 0.930 . S
C1798 C1799 1.348 . S
C1798 C1800 1.356 . S
C1798 O1823 1.325 . S
C1799 C1798 1.348 . S
C1799 C1801 1.353 . S
C1799 H1840 0.929 . S
C1800 C1798 1.356 . S
C1800 C1802 1.358 . S
C1800 H1841 0.930 . S
C1801 C1799 1.353 . S
C1801 N1803 1.314 . S
C1801 H1842 0.930 . S
C1802 C1800 1.358 . S
C1802 N1803 1.279 . S
C1802 H1843 0.930 . S
N1803 C1801 1.314 . S
N1803 C1802 1.279 . S
C1804 C1806 1.353 . S
C1804 N1807 1.314 . S
C1804 H1810 0.930 . S
C1805 N1807 1.279 . S
C1805 C1808 1.358 . S
C1805 H1811 0.930 . S
C1806 C1804 1.353 . S
C1806 C1809 1.348 . S
C1806 H1844 0.929 . S
N1807 Li1762 1.984 . S
N1807 C1804 1.314 . S
N1807 C1805 1.279 . S
C1808 C1805 1.358 . S
C1808 C1809 1.356 . S
C1808 H1845 0.930 . S
C1809 C1806 1.348 . S
C1809 C1808 1.356 . S
H1810 C1804 0.930 . S
H1811 C1805 0.930 . S
C1812 N1813 1.314 . S
C1812 C1814 1.353 . S
C1812 H1818 0.930 . S
N1813 Li1763 1.990 . S
N1813 C1812 1.314 . S
N1813 C1816 1.279 1_554 S
C1814 C1812 1.353 . S
C1814 C1817 1.348 . S
C1814 H1846 0.929 . S
C1815 C1816 1.358 . S
C1815 C1817 1.356 1_556 S
C1815 H1847 0.930 . S
C1816 N1813 1.279 1_556 S
C1816 C1815 1.358 . S
C1816 H1819 0.930 . S
C1817 C1814 1.348 . S
C1817 C1815 1.356 1_554 S
H1818 C1812 0.930 . S
H1819 C1816 0.930 . S
O1820 Li1760 1.956 . S
O1820 Li1761 1.970 . S
O1820 Li1762 1.965 1_554 S
O1820 C1764 1.325 . S
O1821 Li1760 1.970 . S
O1821 Li1761 1.956 . S
O1821 Li1763 1.961 . S
O1821 C1770 1.325 . S
O1822 Li1760 1.961 . S
O1822 Li1762 1.961 1_554 S
O1822 Li1763 1.970 . S
O1822 C1792 1.325 . S
O1823 Li1761 1.961 1_556 S
O1823 Li1762 1.970 . S
O1823 Li1763 1.956 1_556 S
O1823 C1798 1.325 . S
H1824 C1766 0.929 . S
H1825 C1767 0.930 . S
H1826 C1768 0.930 . S
H1827 C1769 0.930 . S
H1828 C1771 0.930 . S
H1829 C1773 0.929 . S
H1830 C1774 0.930 . S
H1831 C1775 0.930 . S
H1832 C1778 0.930 . S
H1833 C1781 0.929 . S
H1834 C1786 0.929 1_556 S
H1835 C1787 0.930 . S
H1836 C1794 0.929 . S
H1837 C1795 0.930 . S
H1838 C1796 0.930 . S
H1839 C1797 0.930 . S
H1840 C1799 0.929 . S
H1841 C1800 0.930 . S
H1842 C1801 0.930 . S
H1843 C1802 0.930 . S
H1844 C1806 0.929 . S
H1845 C1808 0.930 . S
H1846 C1814 0.929 . S
H1847 C1815 0.930 . S
Li1848 N1865 1.990 . S
Li1848 O1908 1.956 . S
Li1848 O1909 1.970 . S
Li1848 O1910 1.961 . S
Li1849 N1873 1.990 . S
Li1849 O1908 1.970 . S
Li1849 O1909 1.956 . S
Li1849 O1911 1.961 . S
Li1850 N1895 1.990 . S
Li1850 O1908 1.961 . S
Li1850 O1910 1.956 . S
Li1850 O1911 1.970 . S
Li1851 N1901 1.990 . S
Li1851 O1909 1.961 . S
Li1851 O1910 1.970 . S
Li1851 O1911 1.956 . S
C1852 C1854 1.348 . S
C1852 C1855 1.356 . S
C1852 O1908 1.325 . S
N1853 C1856 1.314 . S
N1853 C1857 1.279 . S
C1854 C1852 1.348 . S
C1854 C1856 1.353 . S
C1854 H1912 0.929 . S
C1855 C1852 1.356 . S
C1855 C1857 1.358 . S
C1855 H1913 0.930 . S
C1856 N1853 1.314 . S
C1856 C1854 1.353 . S
C1856 H1914 0.930 . S
C1857 N1853 1.279 . S
C1857 C1855 1.358 . S
C1857 H1915 0.930 . S
C1858 C1861 1.348 . S
C1858 C1862 1.356 . S
C1858 O1909 1.325 . S
C1859 N1860 1.279 . S
C1859 C1862 1.358 . S
C1859 H1916 0.930 . S
N1860 C1859 1.279 . S
N1860 C1863 1.314 . S
C1861 C1858 1.348 . S
C1861 C1863 1.353 . S
C1861 H1917 0.929 . S
C1862 C1858 1.356 . S
C1862 C1859 1.358 . S
C1862 H1918 0.930 . S
C1863 N1860 1.314 . S
C1863 C1861 1.353 . S
C1863 H1919 0.930 . S
C1864 N1865 1.314 . S
C1864 C1869 1.353 . S
C1864 H1870 0.930 . S
N1865 Li1848 1.990 . S
N1865 C1864 1.314 . S
N1865 C1867 1.279 . S
C1866 C1867 1.358 . S
C1866 C1868 1.356 . S
C1866 H1920 0.930 . S
C1867 N1865 1.279 . S
C1867 C1866 1.358 . S
C1867 H1871 0.930 . S
C1868 C1866 1.356 . S
C1868 C1869 1.348 . S
C1869 C1864 1.353 . S
C1869 C1868 1.348 . S
C1869 H1921 0.929 . S
H1870 C1864 0.930 . S
H1871 C1867 0.930 . S
C1872 N1873 1.314 . S
C1872 C1874 1.353 . S
C1872 H1878 0.930 . S
N1873 Li1849 1.990 . S
N1873 C1872 1.314 . S
N1873 C1876 1.279 . S
C1874 C1872 1.353 . S
C1874 C1877 1.348 . S
C1874 H1922 0.929 . S
C1875 C1876 1.358 . S
C1875 C1877 1.356 . S
C1875 H1923 0.930 . S
C1876 N1873 1.279 . S
C1876 C1875 1.358 . S
C1876 H1879 0.930 . S
C1877 C1874 1.348 . S
C1877 C1875 1.356 . S
H1878 C1872 0.930 . S
H1879 C1876 0.930 . S
C1880 C1882 1.348 . S
C1880 C1883 1.356 . S
C1880 O1910 1.325 . S
N1881 C1884 1.314 . S
N1881 C1885 1.279 . S
C1882 C1880 1.348 . S
C1882 C1884 1.353 . S
C1882 H1924 0.929 . S
C1883 C1880 1.356 . S
C1883 C1885 1.358 . S
C1883 H1925 0.930 . S
C1884 N1881 1.314 . S
C1884 C1882 1.353 . S
C1884 H1926 0.930 . S
C1885 N1881 1.279 . S
C1885 C1883 1.358 . S
C1885 H1927 0.930 . S
C1886 C1887 1.348 . S
C1886 C1888 1.356 . S
C1886 O1911 1.325 . S
C1887 C1886 1.348 . S
C1887 C1889 1.353 . S
C1887 H1928 0.929 . S
C1888 C1886 1.356 . S
C1888 C1890 1.358 . S
C1888 H1929 0.930 . S
C1889 C1887 1.353 . S
C1889 N1891 1.314 . S
C1889 H1930 0.930 . S
C1890 C1888 1.358 . S
C1890 N1891 1.279 . S
C1890 H1931 0.930 . S
N1891 C1889 1.314 . S
N1891 C1890 1.279 . S
C1892 C1894 1.353 . S
C1892 N1895 1.314 . S
C1892 H1898 0.930 . S
C1893 N1895 1.279 . S
C1893 C1896 1.358 . S
C1893 H1899 0.930 . S
C1894 C1892 1.353 . S
C1894 C1897 1.348 . S
C1894 H1932 0.929 . S
N1895 Li1850 1.990 . S
N1895 C1892 1.314 . S
N1895 C1893 1.279 . S
C1896 C1893 1.358 . S
C1896 C1897 1.356 . S
C1896 H1933 0.930 . S
C1897 C1894 1.348 . S
C1897 C1896 1.356 . S
H1898 C1892 0.930 . S
H1899 C1893 0.930 . S
C1900 N1901 1.314 . S
C1900 C1902 1.353 . S
C1900 H1906 0.930 . S
N1901 Li1851 1.990 . S
N1901 C1900 1.314 . S
N1901 C1904 1.279 . S
C1902 C1900 1.353 . S
C1902 C1905 1.348 . S
C1902 H1934 0.929 . S
C1903 C1904 1.358 . S
C1903 C1905 1.356 . S
C1903 H1935 0.930 . S
C1904 N1901 1.279 . S
C1904 C1903 1.358 . S
C1904 H1907 0.930 . S
C1905 C1902 1.348 . S
C1905 C1903 1.356 . S
H1906 C1900 0.930 . S
H1907 C1904 0.930 . S
O1908 Li1848 1.956 . S
O1908 Li1849 1.970 . S
O1908 Li1850 1.961 . S
O1908 C1852 1.325 . S
O1909 Li1848 1.970 . S
O1909 Li1849 1.956 . S
O1909 Li1851 1.961 . S
O1909 C1858 1.325 . S
O1910 Li1848 1.961 . S
O1910 Li1850 1.956 . S
O1910 Li1851 1.970 . S
O1910 C1880 1.325 . S
O1911 Li1849 1.961 . S
O1911 Li1850 1.970 . S
O1911 Li1851 1.956 . S
O1911 C1886 1.325 . S
H1912 C1854 0.929 . S
H1913 C1855 0.930 . S
H1914 C1856 0.930 . S
H1915 C1857 0.930 . S
H1916 C1859 0.930 . S
H1917 C1861 0.929 . S
H1918 C1862 0.930 . S
H1919 C1863 0.930 . S
H1920 C1866 0.930 . S
H1921 C1869 0.929 . S
H1922 C1874 0.929 . S
H1923 C1875 0.930 . S
H1924 C1882 0.929 . S
H1925 C1883 0.930 . S
H1926 C1884 0.930 . S
H1927 C1885 0.930 . S
H1928 C1887 0.929 . S
H1929 C1888 0.930 . S
H1930 C1889 0.930 . S
H1931 C1890 0.930 . S
H1932 C1894 0.929 . S
H1933 C1896 0.930 . S
H1934 C1902 0.929 . S
H1935 C1903 0.930 . S
Li1936 N1953 1.990 . S
Li1936 O1996 1.956 . S
Li1936 O1997 1.970 . S
Li1936 O1998 1.961 . S
Li1937 N1961 1.990 . S
Li1937 O1996 1.970 . S
Li1937 O1997 1.956 . S
Li1937 O1999 1.961 . S
Li1938 N1983 1.990 . S
Li1938 O1996 1.961 . S
Li1938 O1998 1.956 . S
Li1938 O1999 1.970 . S
Li1939 N1989 1.990 . S
Li1939 O1997 1.961 . S
Li1939 O1998 1.970 . S
Li1939 O1999 1.956 . S
C1940 C1942 1.348 . S
C1940 C1943 1.356 . S
C1940 O1996 1.325 . S
N1941 C1944 1.314 . S
N1941 C1945 1.279 . S
C1942 C1940 1.348 . S
C1942 C1944 1.353 . S
C1942 H2000 0.929 . S
C1943 C1940 1.356 . S
C1943 C1945 1.358 . S
C1943 H2001 0.930 . S
C1944 N1941 1.314 . S
C1944 C1942 1.353 . S
C1944 H2002 0.930 . S
C1945 N1941 1.279 . S
C1945 C1943 1.358 . S
C1945 H2003 0.930 . S
C1946 C1949 1.348 . S
C1946 C1950 1.356 . S
C1946 O1997 1.325 . S
C1947 N1948 1.279 . S
C1947 C1950 1.358 . S
C1947 H2004 0.930 . S
N1948 C1947 1.279 . S
N1948 C1951 1.314 . S
C1949 C1946 1.348 . S
C1949 C1951 1.353 . S
C1949 H2005 0.929 . S
C1950 C1946 1.356 . S
C1950 C1947 1.358 . S
C1950 H2006 0.930 . S
C1951 N1948 1.314 . S
C1951 C1949 1.353 . S
C1951 H2007 0.930 . S
C1952 N1953 1.314 . S
C1952 C1957 1.353 . S
C1952 H1958 0.930 . S
N1953 Li1936 1.990 . S
N1953 C1952 1.314 . S
N1953 C1955 1.279 . S
C1954 C1955 1.358 . S
C1954 C1956 1.356 . S
C1954 H2008 0.930 . S
C1955 N1953 1.279 . S
C1955 C1954 1.358 . S
C1955 H1959 0.930 . S
C1956 C1954 1.356 . S
C1956 C1957 1.348 . S
C1957 C1952 1.353 . S
C1957 C1956 1.348 . S
C1957 H2009 0.929 . S
H1958 C1952 0.930 . S
H1959 C1955 0.930 . S
C1960 N1961 1.314 . S
C1960 C1962 1.353 . S
C1960 H1966 0.930 . S
N1961 Li1937 1.990 . S
N1961 C1960 1.314 . S
N1961 C1964 1.279 . S
C1962 C1960 1.353 . S
C1962 C1965 1.348 . S
C1962 H2010 0.929 . S
C1963 C1964 1.358 . S
C1963 C1965 1.356 . S
C1963 H2011 0.930 . S
C1964 N1961 1.279 . S
C1964 C1963 1.358 . S
C1964 H1967 0.930 . S
C1965 C1962 1.348 . S
C1965 C1963 1.356 . S
H1966 C1960 0.930 . S
H1967 C1964 0.930 . S
C1968 C1970 1.348 . S
C1968 C1971 1.356 . S
C1968 O1998 1.325 . S
N1969 C1972 1.314 . S
N1969 C1973 1.279 . S
C1970 C1968 1.348 . S
C1970 C1972 1.353 . S
C1970 H2012 0.929 . S
C1971 C1968 1.356 . S
C1971 C1973 1.358 . S
C1971 H2013 0.930 . S
C1972 N1969 1.314 . S
C1972 C1970 1.353 . S
C1972 H2014 0.930 . S
C1973 N1969 1.279 . S
C1973 C1971 1.358 . S
C1973 H2015 0.930 . S
C1974 C1975 1.348 . S
C1974 C1976 1.356 . S
C1974 O1999 1.325 . S
C1975 C1974 1.348 . S
C1975 C1977 1.353 . S
C1975 H2016 0.929 . S
C1976 C1974 1.356 . S
C1976 C1978 1.358 . S
C1976 H2017 0.930 . S
C1977 C1975 1.353 . S
C1977 N1979 1.314 . S
C1977 H2018 0.930 . S
C1978 C1976 1.358 . S
C1978 N1979 1.279 . S
C1978 H2019 0.930 . S
N1979 C1977 1.314 . S
N1979 C1978 1.279 . S
C1980 C1982 1.353 . S
C1980 N1983 1.314 . S
C1980 H1986 0.930 . S
C1981 N1983 1.279 . S
C1981 C1984 1.358 . S
C1981 H1987 0.930 . S
C1982 C1980 1.353 . S
C1982 C1985 1.348 . S
C1982 H2020 0.929 . S
N1983 Li1938 1.990 . S
N1983 C1980 1.314 . S
N1983 C1981 1.279 . S
C1984 C1981 1.358 . S
C1984 C1985 1.356 . S
C1984 H2021 0.930 . S
C1985 C1982 1.348 . S
C1985 C1984 1.356 . S
H1986 C1980 0.930 . S
H1987 C1981 0.930 . S
C1988 N1989 1.314 . S
C1988 C1990 1.353 . S
C1988 H1994 0.930 . S
N1989 Li1939 1.990 . S
N1989 C1988 1.314 . S
N1989 C1992 1.279 . S
C1990 C1988 1.353 . S
C1990 C1993 1.348 . S
C1990 H2022 0.929 . S
C1991 C1992 1.358 . S
C1991 C1993 1.356 . S
C1991 H2023 0.930 . S
C1992 N1989 1.279 . S
C1992 C1991 1.358 . S
C1992 H1995 0.930 . S
C1993 C1990 1.348 . S
C1993 C1991 1.356 . S
H1994 C1988 0.930 . S
H1995 C1992 0.930 . S
O1996 Li1936 1.956 . S
O1996 Li1937 1.970 . S
O1996 Li1938 1.961 . S
O1996 C1940 1.325 . S
O1997 Li1936 1.970 . S
O1997 Li1937 1.956 . S
O1997 Li1939 1.961 . S
O1997 C1946 1.325 . S
O1998 Li1936 1.961 . S
O1998 Li1938 1.956 . S
O1998 Li1939 1.970 . S
O1998 C1968 1.325 . S
O1999 Li1937 1.961 . S
O1999 Li1938 1.970 . S
O1999 Li1939 1.956 . S
O1999 C1974 1.325 . S
H2000 C1942 0.929 . S
H2001 C1943 0.930 . S
H2002 C1944 0.930 . S
H2003 C1945 0.930 . S
H2004 C1947 0.930 . S
H2005 C1949 0.929 . S
H2006 C1950 0.930 . S
H2007 C1951 0.930 . S
H2008 C1954 0.930 . S
H2009 C1957 0.929 . S
H2010 C1962 0.929 . S
H2011 C1963 0.930 . S
H2012 C1970 0.929 . S
H2013 C1971 0.930 . S
H2014 C1972 0.930 . S
H2015 C1973 0.930 . S
H2016 C1975 0.929 . S
H2017 C1976 0.930 . S
H2018 C1977 0.930 . S
H2019 C1978 0.930 . S
H2020 C1982 0.929 . S
H2021 C1984 0.930 . S
H2022 C1990 0.929 . S
H2023 C1991 0.930 . S
Li2024 N2041 1.990 . S
Li2024 O2084 1.956 . S
Li2024 O2085 1.970 . S
Li2024 O2086 1.961 . S
Li2025 N2049 1.990 . S
Li2025 O2084 1.970 . S
Li2025 O2085 1.956 . S
Li2025 O2087 1.961 . S
Li2026 N2071 1.990 . S
Li2026 O2084 1.961 . S
Li2026 O2086 1.956 . S
Li2026 O2087 1.970 . S
Li2027 N2077 1.990 . S
Li2027 O2085 1.961 . S
Li2027 O2086 1.970 . S
Li2027 O2087 1.956 . S
C2028 C2030 1.348 . S
C2028 C2031 1.356 . S
C2028 O2084 1.325 . S
N2029 C2032 1.314 . S
N2029 C2033 1.279 . S
C2030 C2028 1.348 . S
C2030 C2032 1.353 . S
C2030 H2088 0.929 . S
C2031 C2028 1.356 . S
C2031 C2033 1.358 . S
C2031 H2089 0.930 . S
C2032 N2029 1.314 . S
C2032 C2030 1.353 . S
C2032 H2090 0.930 . S
C2033 N2029 1.279 . S
C2033 C2031 1.358 . S
C2033 H2091 0.930 . S
C2034 C2037 1.348 . S
C2034 C2038 1.356 . S
C2034 O2085 1.325 . S
C2035 N2036 1.279 . S
C2035 C2038 1.358 . S
C2035 H2092 0.930 . S
N2036 C2035 1.279 . S
N2036 C2039 1.314 . S
C2037 C2034 1.348 . S
C2037 C2039 1.353 . S
C2037 H2093 0.929 . S
C2038 C2034 1.356 . S
C2038 C2035 1.358 . S
C2038 H2094 0.930 . S
C2039 N2036 1.314 . S
C2039 C2037 1.353 . S
C2039 H2095 0.930 . S
C2040 N2041 1.314 . S
C2040 C2045 1.353 . S
C2040 H2046 0.930 . S
N2041 Li2024 1.990 . S
N2041 C2040 1.314 . S
N2041 C2043 1.279 . S
C2042 C2043 1.358 . S
C2042 C2044 1.356 . S
C2042 H2096 0.930 . S
C2043 N2041 1.279 . S
C2043 C2042 1.358 . S
C2043 H2047 0.930 . S
C2044 C2042 1.356 . S
C2044 C2045 1.348 . S
C2045 C2040 1.353 . S
C2045 C2044 1.348 . S
C2045 H2097 0.929 . S
H2046 C2040 0.930 . S
H2047 C2043 0.930 . S
C2048 N2049 1.314 . S
C2048 C2050 1.353 . S
C2048 H2054 0.930 . S
N2049 Li2025 1.990 . S
N2049 C2048 1.314 . S
N2049 C2052 1.279 . S
C2050 C2048 1.353 . S
C2050 C2053 1.348 . S
C2050 H2098 0.929 . S
C2051 C2052 1.358 . S
C2051 C2053 1.356 . S
C2051 H2099 0.930 . S
C2052 N2049 1.279 . S
C2052 C2051 1.358 . S
C2052 H2055 0.930 . S
C2053 C2050 1.348 . S
C2053 C2051 1.356 . S
H2054 C2048 0.930 . S
H2055 C2052 0.930 . S
C2056 C2058 1.348 . S
C2056 C2059 1.356 . S
C2056 O2086 1.325 . S
N2057 C2060 1.314 . S
N2057 C2061 1.279 . S
C2058 C2056 1.348 . S
C2058 C2060 1.353 . S
C2058 H2100 0.929 . S
C2059 C2056 1.356 . S
C2059 C2061 1.358 . S
C2059 H2101 0.930 . S
C2060 N2057 1.314 . S
C2060 C2058 1.353 . S
C2060 H2102 0.930 . S
C2061 N2057 1.279 . S
C2061 C2059 1.358 . S
C2061 H2103 0.930 . S
C2062 C2063 1.348 . S
C2062 C2064 1.356 . S
C2062 O2087 1.325 . S
C2063 C2062 1.348 . S
C2063 C2065 1.353 . S
C2063 H2104 0.929 . S
C2064 C2062 1.356 . S
C2064 C2066 1.358 . S
C2064 H2105 0.930 . S
C2065 C2063 1.353 . S
C2065 N2067 1.314 . S
C2065 H2106 0.930 . S
C2066 C2064 1.358 . S
C2066 N2067 1.279 . S
C2066 H2107 0.930 . S
N2067 C2065 1.314 . S
N2067 C2066 1.279 . S
C2068 C2070 1.353 . S
C2068 N2071 1.314 . S
C2068 H2074 0.930 . S
C2069 N2071 1.279 . S
C2069 C2072 1.358 . S
C2069 H2075 0.930 . S
C2070 C2068 1.353 . S
C2070 C2073 1.348 . S
C2070 H2108 0.929 . S
N2071 Li2026 1.990 . S
N2071 C2068 1.314 . S
N2071 C2069 1.279 . S
C2072 C2069 1.358 . S
C2072 C2073 1.356 . S
C2072 H2109 0.930 . S
C2073 C2070 1.348 . S
C2073 C2072 1.356 . S
H2074 C2068 0.930 . S
H2075 C2069 0.930 . S
C2076 N2077 1.314 . S
C2076 C2078 1.353 . S
C2076 H2082 0.930 . S
N2077 Li2027 1.990 . S
N2077 C2076 1.314 . S
N2077 C2080 1.279 . S
C2078 C2076 1.353 . S
C2078 C2081 1.348 . S
C2078 H2110 0.929 . S
C2079 C2080 1.358 . S
C2079 C2081 1.356 . S
C2079 H2111 0.930 . S
C2080 N2077 1.279 . S
C2080 C2079 1.358 . S
C2080 H2083 0.930 . S
C2081 C2078 1.348 . S
C2081 C2079 1.356 . S
H2082 C2076 0.930 . S
H2083 C2080 0.930 . S
O2084 Li2024 1.956 . S
O2084 Li2025 1.970 . S
O2084 Li2026 1.961 . S
O2084 C2028 1.325 . S
O2085 Li2024 1.970 . S
O2085 Li2025 1.956 . S
O2085 Li2027 1.961 . S
O2085 C2034 1.325 . S
O2086 Li2024 1.961 . S
O2086 Li2026 1.956 . S
O2086 Li2027 1.970 . S
O2086 C2056 1.325 . S
O2087 Li2025 1.961 . S
O2087 Li2026 1.970 . S
O2087 Li2027 1.956 . S
O2087 C2062 1.325 . S
H2088 C2030 0.929 . S
H2089 C2031 0.930 . S
H2090 C2032 0.930 . S
H2091 C2033 0.930 . S
H2092 C2035 0.930 . S
H2093 C2037 0.929 . S
H2094 C2038 0.930 . S
H2095 C2039 0.930 . S
H2096 C2042 0.930 . S
H2097 C2045 0.929 . S
H2098 C2050 0.929 . S
H2099 C2051 0.930 . S
H2100 C2058 0.929 . S
H2101 C2059 0.930 . S
H2102 C2060 0.930 . S
H2103 C2061 0.930 . S
H2104 C2063 0.929 . S
H2105 C2064 0.930 . S
H2106 C2065 0.930 . S
H2107 C2066 0.930 . S
H2108 C2070 0.929 . S
H2109 C2072 0.930 . S
H2110 C2078 0.929 . S
H2111 C2079 0.930 . S
Dy2112 O2116 2.398 1_554 S
Dy2112 O2117 2.491 . S
Dy2112 O2118 2.403 1_554 S
Dy2112 O2119 2.660 1_654 S
Dy2112 O2123 2.360 . S
Dy2112 O2127 2.310 1_655 S
Dy2112 O2128 2.351 1_545 S
C2113 O2124 1.185 . S
C2113 O2125 1.355 . S
C2114 O2116 1.185 . S
C2114 O2117 1.355 1_556 S
Dy2115 O2119 2.296 1_554 S
Dy2115 O2122 2.351 . S
Dy2115 O2124 2.398 . S
Dy2115 O2125 2.491 . S
Dy2115 O2126 2.403 . S
Dy2115 O2127 2.664 . S
Dy2115 O2129 2.326 . S
O2116 Dy2112 2.398 1_556 S
O2116 C2114 1.185 . S
O2117 Dy2112 2.491 . S
O2117 C2114 1.355 1_554 S
O2118 Dy2112 2.403 1_556 S
O2118 C2120 1.254 1_655 S
O2119 Dy2112 2.660 1_456 S
O2119 Dy2115 2.296 1_556 S
O2119 C2120 1.284 . S
C2120 O2118 1.254 1_455 S
C2120 O2119 1.284 . S
C2121 O2126 1.254 . S
C2121 O2127 1.268 . S
O2122 Dy2115 2.351 . S
O2122 C2130 1.249 . S
O2123 Dy2112 2.360 . S
O2123 C2130 1.244 1_655 S
O2124 C2113 1.185 . S
O2124 Dy2115 2.398 . S
O2125 C2113 1.355 . S
O2125 Dy2115 2.491 . S
O2126 Dy2115 2.403 . S
O2126 C2121 1.254 . S
O2127 Dy2112 2.310 1_455 S
O2127 Dy2115 2.664 . S
O2127 C2121 1.268 . S
O2128 Dy2112 2.351 1_565 S
O2128 C2131 1.249 1_655 S
O2129 Dy2115 2.326 . S
O2129 C2131 1.267 1_545 S
C2130 O2122 1.249 . S
C2130 O2123 1.244 1_455 S
C2131 O2128 1.249 1_455 S
C2131 O2129 1.267 1_565 S
Dy2132 O2136 2.398 . S
Dy2132 O2137 2.491 . S
Dy2132 O2138 2.403 . S
Dy2132 O2139 2.664 . S
Dy2132 O2143 2.326 . S
Dy2132 O2147 2.310 . S
Dy2132 O2148 2.351 . S
C2133 O2144 1.185 . S
C2133 O2145 1.355 . S
C2134 O2136 1.185 . S
C2134 O2137 1.355 . S
Dy2135 O2139 2.310 . S
Dy2135 O2142 2.351 . S
Dy2135 O2144 2.398 . S
Dy2135 O2145 2.491 . S
Dy2135 O2146 2.403 . S
Dy2135 O2147 2.664 . S
Dy2135 O2149 2.326 . S
O2136 Dy2132 2.398 . S
O2136 C2134 1.185 . S
O2137 Dy2132 2.491 . S
O2137 C2134 1.355 . S
O2138 Dy2132 2.403 . S
O2138 C2140 1.254 . S
O2139 Dy2132 2.664 . S
O2139 Dy2135 2.310 . S
O2139 C2140 1.268 . S
C2140 O2138 1.254 . S
C2140 O2139 1.268 . S
C2141 O2146 1.254 . S
C2141 O2147 1.268 . S
O2142 Dy2135 2.351 . S
O2142 C2150 1.249 . S
O2143 Dy2132 2.326 . S
O2143 C2150 1.267 . S
O2144 C2133 1.185 . S
O2144 Dy2135 2.398 . S
O2145 C2133 1.355 . S
O2145 Dy2135 2.491 . S
O2146 Dy2135 2.403 . S
O2146 C2141 1.254 . S
O2147 Dy2132 2.310 . S
O2147 Dy2135 2.664 . S
O2147 C2141 1.268 . S
O2148 Dy2132 2.351 . S
O2148 C2151 1.249 . S
O2149 Dy2135 2.326 . S
O2149 C2151 1.267 . S
C2150 O2142 1.249 . S
C2150 O2143 1.267 . S
C2151 O2148 1.249 . S
C2151 O2149 1.267 . S
Dy2152 O2156 2.398 . S
Dy2152 O2157 2.491 . S
Dy2152 O2158 2.403 . S
Dy2152 O2159 2.664 . S
Dy2152 O2163 2.350 . S
Dy2152 O2167 2.310 . S
Dy2152 O2168 2.351 . S
C2153 O2164 1.185 . S
C2153 O2165 1.355 . S
C2154 O2156 1.185 . S
C2154 O2157 1.355 . S
Dy2155 O2159 2.310 . S
Dy2155 O2162 2.351 1_545 S
Dy2155 O2164 2.398 . S
Dy2155 O2165 2.491 . S
Dy2155 O2166 2.403 . S
Dy2155 O2167 2.664 . S
Dy2155 O2169 2.326 . S
O2156 Dy2152 2.398 . S
O2156 C2154 1.185 . S
O2157 Dy2152 2.491 . S
O2157 C2154 1.355 . S
O2158 Dy2152 2.403 . S
O2158 C2160 1.254 . S
O2159 Dy2152 2.664 . S
O2159 Dy2155 2.310 . S
O2159 C2160 1.268 . S
C2160 O2158 1.254 . S
C2160 O2159 1.268 . S
C2161 O2166 1.254 . S
C2161 O2167 1.268 . S
O2162 Dy2155 2.351 1_565 S
O2162 C2170 1.249 . S
O2163 Dy2152 2.350 . S
O2163 C2170 1.253 1_545 S
O2164 C2153 1.185 . S
O2164 Dy2155 2.398 . S
O2165 C2153 1.355 . S
O2165 Dy2155 2.491 . S
O2166 Dy2155 2.403 . S
O2166 C2161 1.254 . S
O2167 Dy2152 2.310 . S
O2167 Dy2155 2.664 . S
O2167 C2161 1.268 . S
O2168 Dy2152 2.351 . S
O2168 C2171 1.249 . S
O2169 Dy2155 2.326 . S
O2169 C2171 1.267 . S
C2170 O2162 1.249 . S
C2170 O2163 1.253 1_565 S
C2171 O2168 1.249 . S
C2171 O2169 1.267 . S
Dy2172 O2176 2.398 . S
Dy2172 O2177 2.491 . S
Dy2172 O2178 2.403 . S
Dy2172 O2179 2.664 . S
Dy2172 O2183 2.326 . S
Dy2172 O2187 2.310 . S
Dy2172 O2188 2.351 . S
C2173 O2184 1.185 . S
C2173 O2185 1.355 . S
C2174 O2176 1.185 . S
C2174 O2177 1.355 . S
Dy2175 O2179 2.310 . S
Dy2175 O2182 2.351 . S
Dy2175 O2184 2.398 . S
Dy2175 O2185 2.491 . S
Dy2175 O2186 2.403 . S
Dy2175 O2187 2.664 . S
Dy2175 O2189 2.326 . S
O2176 Dy2172 2.398 . S
O2176 C2174 1.185 . S
O2177 Dy2172 2.491 . S
O2177 C2174 1.355 . S
O2178 Dy2172 2.403 . S
O2178 C2180 1.254 . S
O2179 Dy2172 2.664 . S
O2179 Dy2175 2.310 . S
O2179 C2180 1.268 . S
C2180 O2178 1.254 . S
C2180 O2179 1.268 . S
C2181 O2186 1.254 . S
C2181 O2187 1.268 . S
O2182 Dy2175 2.351 . S
O2182 C2190 1.249 . S
O2183 Dy2172 2.326 . S
O2183 C2190 1.267 . S
O2184 C2173 1.185 . S
O2184 Dy2175 2.398 . S
O2185 C2173 1.355 . S
O2185 Dy2175 2.491 . S
O2186 Dy2175 2.403 . S
O2186 C2181 1.254 . S
O2187 Dy2172 2.310 . S
O2187 Dy2175 2.664 . S
O2187 C2181 1.268 . S
O2188 Dy2172 2.351 . S
O2188 C2191 1.249 . S
O2189 Dy2175 2.326 . S
O2189 C2191 1.267 . S
C2190 O2182 1.249 . S
C2190 O2183 1.267 . S
C2191 O2188 1.249 . S
C2191 O2189 1.267 . S
Dy2192 O2196 2.398 . S
Dy2192 O2197 2.491 1_455 S
Dy2192 O2198 2.403 . S
Dy2192 O2199 2.664 . S
Dy2192 O2203 2.326 . S
Dy2192 O2207 2.310 1_455 S
Dy2192 O2208 2.351 1_545 S
C2193 O2204 1.185 . S
C2193 O2205 1.355 . S
C2194 O2196 1.185 1_655 S
C2194 O2197 1.355 . S
Dy2195 O2199 2.310 . S
Dy2195 O2202 2.351 . S
Dy2195 O2204 2.398 . S
Dy2195 O2205 2.491 . S
Dy2195 O2206 2.403 1_455 S
Dy2195 O2207 2.664 1_455 S
Dy2195 O2209 2.326 . S
O2196 Dy2192 2.398 . S
O2196 C2194 1.185 1_455 S
O2197 Dy2192 2.491 1_655 S
O2197 C2194 1.355 . S
O2198 Dy2192 2.403 . S
O2198 C2200 1.254 . S
O2199 Dy2192 2.664 . S
O2199 Dy2195 2.310 . S
O2199 C2200 1.268 . S
C2200 O2198 1.254 . S
C2200 O2199 1.268 . S
C2201 O2206 1.254 . S
C2201 O2207 1.268 . S
O2202 Dy2195 2.351 . S
O2202 C2210 1.249 . S
O2203 Dy2192 2.326 . S
O2203 C2210 1.267 . S
O2204 C2193 1.185 . S
O2204 Dy2195 2.398 . S
O2205 C2193 1.355 . S
O2205 Dy2195 2.491 . S
O2206 Dy2195 2.403 1_655 S
O2206 C2201 1.254 . S
O2207 Dy2192 2.310 1_655 S
O2207 Dy2195 2.664 1_655 S
O2207 C2201 1.268 . S
O2208 Dy2192 2.351 1_565 S
O2208 C2211 1.249 . S
O2209 Dy2195 2.326 . S
O2209 C2211 1.267 1_545 S
C2210 O2202 1.249 . S
C2210 O2203 1.267 . S
C2211 O2208 1.249 . S
C2211 O2209 1.267 1_565 S
Dy2212 O2216 2.398 . S
Dy2212 O2217 2.491 . S
Dy2212 O2218 2.403 . S
Dy2212 O2219 2.664 . S
Dy2212 O2223 2.326 . S
Dy2212 O2227 2.310 . S
Dy2212 O2228 2.351 . S
C2213 O2224 1.185 . S
C2213 O2225 1.355 . S
C2214 O2216 1.185 . S
C2214 O2217 1.355 . S
Dy2215 O2219 2.310 . S
Dy2215 O2222 2.351 . S
Dy2215 O2224 2.398 . S
Dy2215 O2225 2.491 . S
Dy2215 O2226 2.403 . S
Dy2215 O2227 2.664 . S
Dy2215 O2229 2.326 . S
O2216 Dy2212 2.398 . S
O2216 C2214 1.185 . S
O2217 Dy2212 2.491 . S
O2217 C2214 1.355 . S
O2218 Dy2212 2.403 . S
O2218 C2220 1.254 . S
O2219 Dy2212 2.664 . S
O2219 Dy2215 2.310 . S
O2219 C2220 1.268 . S
C2220 O2218 1.254 . S
C2220 O2219 1.268 . S
C2221 O2226 1.254 . S
C2221 O2227 1.268 . S
O2222 Dy2215 2.351 . S
O2222 C2230 1.249 . S
O2223 Dy2212 2.326 . S
O2223 C2230 1.267 . S
O2224 C2213 1.185 . S
O2224 Dy2215 2.398 . S
O2225 C2213 1.355 . S
O2225 Dy2215 2.491 . S
O2226 Dy2215 2.403 . S
O2226 C2221 1.254 . S
O2227 Dy2212 2.310 . S
O2227 Dy2215 2.664 . S
O2227 C2221 1.268 . S
O2228 Dy2212 2.351 . S
O2228 C2231 1.249 . S
O2229 Dy2215 2.326 . S
O2229 C2231 1.267 . S
C2230 O2222 1.249 . S
C2230 O2223 1.267 . S
C2231 O2228 1.249 . S
C2231 O2229 1.267 . S
Dy2232 O2236 2.398 . S
Dy2232 O2237 2.491 . S
Dy2232 O2238 2.403 1_545 S
Dy2232 O2239 2.664 . S
Dy2232 O2243 2.326 . S
Dy2232 O2247 2.310 . S
Dy2232 O2248 2.351 . S
C2233 O2244 1.185 . S
C2233 O2245 1.355 . S
C2234 O2236 1.185 . S
C2234 O2237 1.355 . S
Dy2235 O2239 2.310 1_556 S
Dy2235 O2242 2.351 1_556 S
Dy2235 O2244 2.398 . S
Dy2235 O2245 2.491 . S
Dy2235 O2246 2.403 1_556 S
Dy2235 O2247 2.664 1_556 S
Dy2235 O2249 2.326 1_556 S
O2236 Dy2232 2.398 . S
O2236 C2234 1.185 . S
O2237 Dy2232 2.491 . S
O2237 C2234 1.355 . S
O2238 Dy2232 2.403 1_565 S
O2238 C2240 1.254 . S
O2239 Dy2232 2.664 . S
O2239 Dy2235 2.310 1_554 S
O2239 C2240 1.268 1_545 S
C2240 O2238 1.254 . S
C2240 O2239 1.268 1_565 S
C2241 O2246 1.254 . S
C2241 O2247 1.268 . S
O2242 Dy2235 2.351 1_554 S
O2242 C2250 1.249 . S
O2243 Dy2232 2.326 . S
O2243 C2250 1.267 . S
O2244 C2233 1.185 . S
O2244 Dy2235 2.398 . S
O2245 C2233 1.355 . S
O2245 Dy2235 2.491 . S
O2246 Dy2235 2.403 1_554 S
O2246 C2241 1.254 . S
O2247 Dy2232 2.310 . S
O2247 Dy2235 2.664 1_554 S
O2247 C2241 1.268 . S
O2248 Dy2232 2.351 . S
O2248 C2251 1.249 . S
O2249 Dy2235 2.326 1_554 S
O2249 C2251 1.267 . S
C2250 O2242 1.249 . S
C2250 O2243 1.267 . S
C2251 O2248 1.249 . S
C2251 O2249 1.267 . S
Dy2252 O2256 2.398 . S
Dy2252 O2257 2.491 . S
Dy2252 O2258 2.403 . S
Dy2252 O2259 2.664 . S
Dy2252 O2263 2.326 . S
Dy2252 O2267 2.310 . S
Dy2252 O2268 2.351 . S
C2253 O2264 1.185 . S
C2253 O2265 1.355 . S
C2254 O2256 1.185 . S
C2254 O2257 1.355 . S
Dy2255 O2259 2.310 . S
Dy2255 O2262 2.351 . S
Dy2255 O2264 2.398 . S
Dy2255 O2265 2.491 . S
Dy2255 O2266 2.403 . S
Dy2255 O2267 2.664 . S
Dy2255 O2269 2.326 . S
O2256 Dy2252 2.398 . S
O2256 C2254 1.185 . S
O2257 Dy2252 2.491 . S
O2257 C2254 1.355 . S
O2258 Dy2252 2.403 . S
O2258 C2260 1.254 . S
O2259 Dy2252 2.664 . S
O2259 Dy2255 2.310 . S
O2259 C2260 1.268 . S
C2260 O2258 1.254 . S
C2260 O2259 1.268 . S
C2261 O2266 1.254 . S
C2261 O2267 1.268 . S
O2262 Dy2255 2.351 . S
O2262 C2270 1.249 . S
O2263 Dy2252 2.326 . S
O2263 C2270 1.267 . S
O2264 C2253 1.185 . S
O2264 Dy2255 2.398 . S
O2265 C2253 1.355 . S
O2265 Dy2255 2.491 . S
O2266 Dy2255 2.403 . S
O2266 C2261 1.254 . S
O2267 Dy2252 2.310 . S
O2267 Dy2255 2.664 . S
O2267 C2261 1.268 . S
O2268 Dy2252 2.351 . S
O2268 C2271 1.249 . S
O2269 Dy2255 2.326 . S
O2269 C2271 1.267 . S
C2270 O2262 1.249 . S
C2270 O2263 1.267 . S
C2271 O2268 1.249 . S
C2271 O2269 1.267 . S
Dy2272 O2276 2.398 . S
Dy2272 O2277 2.491 . S
Dy2272 O2278 2.403 . S
Dy2272 O2279 2.664 1_556 S
Dy2272 O2283 2.326 . S
Dy2272 O2287 2.310 1_556 S
Dy2272 O2288 2.351 1_556 S
C2273 O2284 1.185 . S
C2273 O2285 1.355 . S
C2274 O2276 1.185 . S
C2274 O2277 1.355 . S
Dy2275 O2279 2.310 . S
Dy2275 O2282 2.351 . S
Dy2275 O2284 2.398 . S
Dy2275 O2285 2.491 . S
Dy2275 O2286 2.403 . S
Dy2275 O2287 2.664 . S
Dy2275 O2289 2.326 . S
O2276 Dy2272 2.398 . S
O2276 C2274 1.185 . S
O2277 Dy2272 2.491 . S
O2277 C2274 1.355 . S
O2278 Dy2272 2.403 . S
O2278 C2280 1.254 1_556 S
O2279 Dy2272 2.664 1_554 S
O2279 Dy2275 2.310 . S
O2279 C2280 1.268 . S
C2280 O2278 1.254 1_554 S
C2280 O2279 1.268 . S
C2281 O2286 1.254 . S
C2281 O2287 1.268 . S
O2282 Dy2275 2.351 . S
O2282 C2290 1.249 . S
O2283 Dy2272 2.326 . S
O2283 C2290 1.267 1_556 S
O2284 C2273 1.185 . S
O2284 Dy2275 2.398 . S
O2285 C2273 1.355 . S
O2285 Dy2275 2.491 . S
O2286 Dy2275 2.403 . S
O2286 C2281 1.254 . S
O2287 Dy2272 2.310 1_554 S
O2287 Dy2275 2.664 . S
O2287 C2281 1.268 . S
O2288 Dy2272 2.351 1_554 S
O2288 C2291 1.249 . S
O2289 Dy2275 2.326 . S
O2289 C2291 1.267 . S
C2290 O2282 1.249 . S
C2290 O2283 1.267 1_554 S
C2291 O2288 1.249 . S
C2291 O2289 1.267 . S
Dy2292 O2296 2.398 . S
Dy2292 O2297 2.491 . S
Dy2292 O2298 2.403 . S
Dy2292 O2299 2.664 . S
Dy2292 O2303 2.326 . S
Dy2292 O2307 2.310 . S
Dy2292 O2308 2.351 . S
C2293 O2304 1.185 . S
C2293 O2305 1.355 . S
C2294 O2296 1.185 . S
C2294 O2297 1.355 . S
Dy2295 O2299 2.310 . S
Dy2295 O2302 2.351 . S
Dy2295 O2304 2.398 . S
Dy2295 O2305 2.491 . S
Dy2295 O2306 2.403 . S
Dy2295 O2307 2.664 . S
Dy2295 O2309 2.326 . S
O2296 Dy2292 2.398 . S
O2296 C2294 1.185 . S
O2297 Dy2292 2.491 . S
O2297 C2294 1.355 . S
O2298 Dy2292 2.403 . S
O2298 C2300 1.254 . S
O2299 Dy2292 2.664 . S
O2299 Dy2295 2.310 . S
O2299 C2300 1.268 . S
C2300 O2298 1.254 . S
C2300 O2299 1.268 . S
C2301 O2306 1.254 . S
C2301 O2307 1.268 . S
O2302 Dy2295 2.351 . S
O2302 C2310 1.249 . S
O2303 Dy2292 2.326 . S
O2303 C2310 1.267 . S
O2304 C2293 1.185 . S
O2304 Dy2295 2.398 . S
O2305 C2293 1.355 . S
O2305 Dy2295 2.491 . S
O2306 Dy2295 2.403 . S
O2306 C2301 1.254 . S
O2307 Dy2292 2.310 . S
O2307 Dy2295 2.664 . S
O2307 C2301 1.268 . S
O2308 Dy2292 2.351 . S
O2308 C2311 1.249 . S
O2309 Dy2295 2.326 . S
O2309 C2311 1.267 . S
C2310 O2302 1.249 . S
C2310 O2303 1.267 . S
C2311 O2308 1.249 . S
C2311 O2309 1.267 . S
Dy2312 O2316 2.397 . S
Dy2312 O2317 2.491 1_455 S
Dy2312 O2318 2.403 . S
Dy2312 O2319 2.664 . S
Dy2312 O2323 2.326 1_455 S
Dy2312 O2327 2.310 . S
Dy2312 O2328 2.351 . S
C2313 O2324 1.185 . S
C2313 O2325 1.355 . S
C2314 O2316 1.186 1_655 S
C2314 O2317 1.355 . S
Dy2315 O2319 2.310 . S
Dy2315 O2322 2.351 1_455 S
Dy2315 O2324 2.398 . S
Dy2315 O2325 2.491 . S
Dy2315 O2326 2.403 . S
Dy2315 O2327 2.664 . S
Dy2315 O2329 2.326 . S
O2316 Dy2312 2.397 . S
O2316 C2314 1.186 1_455 S
O2317 Dy2312 2.491 1_655 S
O2317 C2314 1.355 . S
O2318 Dy2312 2.403 . S
O2318 C2320 1.254 . S
O2319 Dy2312 2.664 . S
O2319 Dy2315 2.310 . S
O2319 C2320 1.268 . S
C2320 O2318 1.254 . S
C2320 O2319 1.268 . S
C2321 O2326 1.254 . S
C2321 O2327 1.268 . S
O2322 Dy2315 2.351 1_655 S
O2322 C2330 1.249 . S
O2323 Dy2312 2.326 1_655 S
O2323 C2330 1.267 . S
O2324 C2313 1.185 . S
O2324 Dy2315 2.398 . S
O2325 C2313 1.355 . S
O2325 Dy2315 2.491 . S
O2326 Dy2315 2.403 . S
O2326 C2321 1.254 . S
O2327 Dy2312 2.310 . S
O2327 Dy2315 2.664 . S
O2327 C2321 1.268 . S
O2328 Dy2312 2.351 . S
O2328 C2331 1.249 . S
O2329 Dy2315 2.326 . S
O2329 C2331 1.267 . S
C2330 O2322 1.249 . S
C2330 O2323 1.267 . S
C2331 O2328 1.249 . S
C2331 O2329 1.267 . S
Dy2332 O2336 2.398 . S
Dy2332 O2337 2.491 . S
Dy2332 O2338 2.403 . S
Dy2332 O2339 2.664 . S
Dy2332 O2343 2.326 . S
Dy2332 O2347 2.310 . S
Dy2332 O2348 2.351 . S
C2333 O2344 1.185 . S
C2333 O2345 1.355 . S
C2334 O2336 1.185 . S
C2334 O2337 1.355 . S
Dy2335 O2339 2.310 . S
Dy2335 O2342 2.351 . S
Dy2335 O2344 2.398 . S
Dy2335 O2345 2.491 . S
Dy2335 O2346 2.403 . S
Dy2335 O2347 2.664 . S
Dy2335 O2349 2.326 . S
O2336 Dy2332 2.398 . S
O2336 C2334 1.185 . S
O2337 Dy2332 2.491 . S
O2337 C2334 1.355 . S
O2338 Dy2332 2.403 . S
O2338 C2340 1.254 . S
O2339 Dy2332 2.664 . S
O2339 Dy2335 2.310 . S
O2339 C2340 1.268 . S
C2340 O2338 1.254 . S
C2340 O2339 1.268 . S
C2341 O2346 1.254 . S
C2341 O2347 1.268 . S
O2342 Dy2335 2.351 . S
O2342 C2350 1.249 . S
O2343 Dy2332 2.326 . S
O2343 C2350 1.267 . S
O2344 C2333 1.185 . S
O2344 Dy2335 2.398 . S
O2345 C2333 1.355 . S
O2345 Dy2335 2.491 . S
O2346 Dy2335 2.403 . S
O2346 C2341 1.254 . S
O2347 Dy2332 2.310 . S
O2347 Dy2335 2.664 . S
O2347 C2341 1.268 . S
O2348 Dy2332 2.351 . S
O2348 C2351 1.249 . S
O2349 Dy2335 2.326 . S
O2349 C2351 1.267 . S
C2350 O2342 1.249 . S
C2350 O2343 1.267 . S
C2351 O2348 1.249 . S
C2351 O2349 1.267 . S
Dy2352 O2356 2.398 . S
Dy2352 O2357 2.491 . S
Dy2352 O2358 2.403 . S
Dy2352 O2359 2.664 . S
Dy2352 O2363 2.326 . S
Dy2352 O2367 2.310 . S
Dy2352 O2368 2.351 . S
C2353 O2364 1.185 . S
C2353 O2365 1.355 . S
C2354 O2356 1.185 . S
C2354 O2357 1.355 . S
Dy2355 O2359 2.310 . S
Dy2355 O2362 2.351 . S
Dy2355 O2364 2.398 . S
Dy2355 O2365 2.491 . S
Dy2355 O2366 2.403 . S
Dy2355 O2367 2.664 . S
Dy2355 O2369 2.326 . S
O2356 Dy2352 2.398 . S
O2356 C2354 1.185 . S
O2357 Dy2352 2.491 . S
O2357 C2354 1.355 . S
O2358 Dy2352 2.403 . S
O2358 C2360 1.254 . S
O2359 Dy2352 2.664 . S
O2359 Dy2355 2.310 . S
O2359 C2360 1.268 . S
C2360 O2358 1.254 . S
C2360 O2359 1.268 . S
C2361 O2366 1.254 . S
C2361 O2367 1.268 . S
O2362 Dy2355 2.351 . S
O2362 C2370 1.249 . S
O2363 Dy2352 2.326 . S
O2363 C2370 1.267 . S
O2364 C2353 1.185 . S
O2364 Dy2355 2.398 . S
O2365 C2353 1.355 . S
O2365 Dy2355 2.491 . S
O2366 Dy2355 2.403 . S
O2366 C2361 1.254 . S
O2367 Dy2352 2.310 . S
O2367 Dy2355 2.664 . S
O2367 C2361 1.268 . S
O2368 Dy2352 2.351 . S
O2368 C2371 1.249 . S
O2369 Dy2355 2.326 . S
O2369 C2371 1.267 . S
C2370 O2362 1.249 . S
C2370 O2363 1.267 . S
C2371 O2368 1.249 . S
C2371 O2369 1.267 . S
Dy2372 O2376 2.398 . S
Dy2372 O2377 2.491 . S
Dy2372 O2378 2.403 . S
Dy2372 O2379 2.664 . S
Dy2372 O2383 2.326 . S
Dy2372 O2387 2.310 . S
Dy2372 O2388 2.351 . S
C2373 O2384 1.185 . S
C2373 O2385 1.355 . S
C2374 O2376 1.185 . S
C2374 O2377 1.355 . S
Dy2375 O2379 2.310 . S
Dy2375 O2382 2.351 . S
Dy2375 O2384 2.398 . S
Dy2375 O2385 2.491 . S
Dy2375 O2386 2.403 . S
Dy2375 O2387 2.664 . S
Dy2375 O2389 2.326 . S
O2376 Dy2372 2.398 . S
O2376 C2374 1.185 . S
O2377 Dy2372 2.491 . S
O2377 C2374 1.355 . S
O2378 Dy2372 2.403 . S
O2378 C2380 1.254 . S
O2379 Dy2372 2.664 . S
O2379 Dy2375 2.310 . S
O2379 C2380 1.268 . S
C2380 O2378 1.254 . S
C2380 O2379 1.268 . S
C2381 O2386 1.254 . S
C2381 O2387 1.268 . S
O2382 Dy2375 2.351 . S
O2382 C2390 1.249 . S
O2383 Dy2372 2.326 . S
O2383 C2390 1.267 . S
O2384 C2373 1.185 . S
O2384 Dy2375 2.398 . S
O2385 C2373 1.355 . S
O2385 Dy2375 2.491 . S
O2386 Dy2375 2.403 . S
O2386 C2381 1.254 . S
O2387 Dy2372 2.310 . S
O2387 Dy2375 2.664 . S
O2387 C2381 1.268 . S
O2388 Dy2372 2.351 . S
O2388 C2391 1.249 . S
O2389 Dy2375 2.326 . S
O2389 C2391 1.267 . S
C2390 O2382 1.249 . S
C2390 O2383 1.267 . S
C2391 O2388 1.249 . S
C2391 O2389 1.267 . S
Dy2392 O2396 2.398 . S
Dy2392 O2397 2.491 . S
Dy2392 O2398 2.403 . S
Dy2392 O2399 2.664 . S
Dy2392 O2403 2.326 . S
Dy2392 O2407 2.310 . S
Dy2392 O2408 2.351 . S
C2393 O2404 1.185 . S
C2393 O2405 1.355 . S
C2394 O2396 1.185 . S
C2394 O2397 1.355 . S
Dy2395 O2399 2.310 . S
Dy2395 O2402 2.351 . S
Dy2395 O2404 2.398 . S
Dy2395 O2405 2.491 . S
Dy2395 O2406 2.403 . S
Dy2395 O2407 2.664 . S
Dy2395 O2409 2.326 . S
O2396 Dy2392 2.398 . S
O2396 C2394 1.185 . S
O2397 Dy2392 2.491 . S
O2397 C2394 1.355 . S
O2398 Dy2392 2.403 . S
O2398 C2400 1.254 . S
O2399 Dy2392 2.664 . S
O2399 Dy2395 2.310 . S
O2399 C2400 1.268 . S
C2400 O2398 1.254 . S
C2400 O2399 1.268 . S
C2401 O2406 1.254 . S
C2401 O2407 1.268 . S
O2402 Dy2395 2.351 . S
O2402 C2410 1.249 . S
O2403 Dy2392 2.326 . S
O2403 C2410 1.267 . S
O2404 C2393 1.185 . S
O2404 Dy2395 2.398 . S
O2405 C2393 1.355 . S
O2405 Dy2395 2.491 . S
O2406 Dy2395 2.403 . S
O2406 C2401 1.254 . S
O2407 Dy2392 2.310 . S
O2407 Dy2395 2.664 . S
O2407 C2401 1.268 . S
O2408 Dy2392 2.351 . S
O2408 C2411 1.249 . S
O2409 Dy2395 2.326 . S
O2409 C2411 1.267 . S
C2410 O2402 1.249 . S
C2410 O2403 1.267 . S
C2411 O2408 1.249 . S
C2411 O2409 1.267 . S
Dy2412 O2416 2.398 1_554 S
Dy2412 O2417 2.491 . S
Dy2412 O2418 2.403 1_554 S
Dy2412 O2419 2.650 1_554 S
Dy2412 O2423 2.333 . S
Dy2412 O2427 2.310 . S
Dy2412 O2428 2.351 . S
C2413 O2424 1.185 . S
C2413 O2425 1.355 . S
C2414 O2416 1.185 1_554 S
C2414 O2417 1.355 . S
Dy2415 O2419 2.260 1_654 S
Dy2415 O2422 2.351 . S
Dy2415 O2424 2.398 . S
Dy2415 O2425 2.491 . S
Dy2415 O2426 2.403 . S
Dy2415 O2427 2.664 1_655 S
Dy2415 O2429 2.326 1_655 S
O2416 Dy2412 2.398 1_556 S
O2416 C2414 1.185 1_556 S
O2417 Dy2412 2.491 . S
O2417 C2414 1.355 . S
O2418 Dy2412 2.403 1_556 S
O2418 C2420 1.254 . S
O2419 Dy2412 2.650 1_556 S
O2419 Dy2415 2.260 1_456 S
O2419 C2420 1.326 . S
C2420 O2418 1.254 . S
C2420 O2419 1.326 . S
C2421 O2426 1.254 1_455 S
C2421 O2427 1.268 . S
O2422 Dy2415 2.351 . S
O2422 C2430 1.249 1_655 S
O2423 Dy2412 2.333 . S
O2423 C2430 1.286 . S
O2424 C2413 1.185 . S
O2424 Dy2415 2.398 . S
O2425 C2413 1.355 . S
O2425 Dy2415 2.491 . S
O2426 Dy2415 2.403 . S
O2426 C2421 1.254 1_655 S
O2427 Dy2412 2.310 . S
O2427 Dy2415 2.664 1_455 S
O2427 C2421 1.268 . S
O2428 Dy2412 2.351 . S
O2428 C2431 1.249 . S
O2429 Dy2415 2.326 1_455 S
O2429 C2431 1.267 . S
C2430 O2422 1.249 1_455 S
C2430 O2423 1.286 . S
C2431 O2428 1.249 . S
C2431 O2429 1.267 . S
H2432 C2450 0.951 . S
H2433 C2452 0.951 . S
H2434 C2454 0.950 . S
H2435 C2455 0.950 . S
H2436 C2457 0.953 1_655 S
H2437 C2460 0.950 . S
H2438 C2461 0.950 . S
H2439 C2463 0.950 . S
H2440 C2464 0.950 . S
H2441 C2465 0.951 . S
H2442 C2467 0.951 . S
H2443 C2469 0.950 . S
H2444 C2470 0.950 . S
H2445 C2472 0.950 . S
H2446 C2475 0.950 . S
H2447 C2476 0.950 . S
H2448 C2478 0.950 . S
H2449 C2479 0.950 . S
C2450 H2432 0.951 . S
C2450 C2451 1.366 1_455 S
C2450 C2452 1.388 . S
C2451 C2450 1.366 1_655 S
C2451 C2455 1.385 . S
C2452 H2433 0.951 . S
C2452 C2450 1.388 . S
C2452 C2453 1.410 . S
C2453 C2452 1.410 . S
C2453 C2454 1.358 1_455 S
C2453 C2456 1.512 . S
C2454 H2434 0.950 . S
C2454 C2453 1.358 1_655 S
C2454 C2455 1.374 . S
C2455 H2435 0.950 . S
C2455 C2451 1.385 . S
C2455 C2454 1.374 . S
C2456 C2453 1.512 . S
C2456 C2457 1.372 . S
C2456 C2458 1.389 . S
C2457 H2436 0.953 1_455 S
C2457 C2456 1.372 . S
C2457 C2473 1.374 . S
C2458 C2456 1.389 . S
C2458 C2459 1.524 . S
C2458 C2472 1.377 . S
C2459 C2458 1.524 . S
C2459 C2460 1.397 1_455 S
C2459 C2464 1.363 . S
C2460 H2437 0.950 . S
C2460 C2459 1.397 1_655 S
C2460 C2461 1.334 . S
C2461 H2438 0.950 . S
C2461 C2460 1.334 . S
C2461 C2462 1.287 1_655 S
C2462 C2461 1.287 1_455 S
C2462 C2463 1.524 . S
C2462 H2481 0.913 . S
C2463 H2439 0.950 . S
C2463 C2462 1.524 . S
C2463 C2464 1.415 . S
C2464 H2440 0.950 . S
C2464 C2459 1.363 . S
C2464 C2463 1.415 . S
C2465 H2441 0.951 . S
C2465 C2466 1.366 1_655 S
C2465 C2467 1.388 . S
C2466 C2465 1.366 1_455 S
C2466 C2470 1.385 1_554 S
C2467 H2442 0.951 . S
C2467 C2465 1.388 . S
C2467 C2468 1.366 1_654 S
C2468 C2467 1.366 1_456 S
C2468 C2469 1.414 . S
C2468 C2471 1.499 . S
C2469 H2443 0.950 . S
C2469 C2468 1.414 . S
C2469 C2470 1.374 . S
C2470 H2444 0.950 . S
C2470 C2466 1.385 1_556 S
C2470 C2469 1.374 . S
C2471 C2468 1.499 . S
C2471 C2472 1.373 . S
C2471 C2473 1.389 . S
C2472 H2445 0.950 . S
C2472 C2458 1.377 . S
C2472 C2471 1.373 . S
C2473 C2457 1.374 . S
C2473 C2471 1.389 . S
C2473 C2474 1.524 1_556 S
C2474 C2473 1.524 1_554 S
C2474 C2475 1.397 . S
C2474 C2479 1.363 1_455 S
C2475 H2446 0.950 . S
C2475 C2474 1.397 . S
C2475 C2476 1.334 . S
C2476 H2447 0.950 . S
C2476 C2475 1.334 . S
C2476 C2477 1.287 . S
C2477 C2476 1.287 . S
C2477 C2478 1.524 1_455 S
C2477 H2480 0.999 . S
C2478 H2448 0.950 . S
C2478 C2477 1.524 1_655 S
C2478 C2479 1.415 . S
C2479 H2449 0.950 . S
C2479 C2474 1.363 1_655 S
C2479 C2478 1.415 . S
H2480 C2477 0.999 . S
H2481 C2462 0.913 . S
H2482 C2500 0.951 . S
H2483 C2502 0.951 . S
H2484 C2504 0.950 . S
H2485 C2505 0.950 . S
H2486 C2507 0.950 . S
H2487 C2510 0.950 . S
H2488 C2511 0.950 . S
H2489 C2513 0.950 . S
H2490 C2514 0.950 . S
H2491 C2515 0.951 . S
H2492 C2517 0.951 . S
H2493 C2519 0.950 . S
H2494 C2520 0.950 . S
H2495 C2522 0.950 . S
H2496 C2525 0.950 . S
H2497 C2526 0.950 . S
H2498 C2528 0.950 . S
H2499 C2529 0.950 . S
C2500 H2482 0.951 . S
C2500 C2501 1.366 . S
C2500 C2502 1.388 . S
C2501 C2500 1.366 . S
C2501 C2505 1.385 . S
C2502 H2483 0.951 . S
C2502 C2500 1.388 . S
C2502 C2503 1.366 . S
C2503 C2502 1.366 . S
C2503 C2504 1.414 . S
C2503 C2506 1.499 . S
C2504 H2484 0.950 . S
C2504 C2503 1.414 . S
C2504 C2505 1.374 . S
C2505 H2485 0.950 . S
C2505 C2501 1.385 . S
C2505 C2504 1.374 . S
C2506 C2503 1.499 . S
C2506 C2507 1.373 . S
C2506 C2508 1.389 . S
C2507 H2486 0.950 . S
C2507 C2506 1.373 . S
C2507 C2523 1.377 . S
C2508 C2506 1.389 . S
C2508 C2509 1.524 . S
C2508 C2522 1.377 . S
C2509 C2508 1.524 . S
C2509 C2510 1.397 . S
C2509 C2514 1.363 . S
C2510 H2487 0.950 . S
C2510 C2509 1.397 . S
C2510 C2511 1.334 . S
C2511 H2488 0.950 . S
C2511 C2510 1.334 . S
C2511 C2512 1.287 . S
C2512 C2511 1.287 . S
C2512 C2513 1.524 . S
C2512 H2531 0.913 . S
C2513 H2489 0.950 . S
C2513 C2512 1.524 . S
C2513 C2514 1.415 . S
C2514 H2490 0.950 . S
C2514 C2509 1.363 . S
C2514 C2513 1.415 . S
C2515 H2491 0.951 . S
C2515 C2516 1.366 . S
C2515 C2517 1.388 . S
C2516 C2515 1.366 . S
C2516 C2520 1.385 . S
C2517 H2492 0.951 . S
C2517 C2515 1.388 . S
C2517 C2518 1.366 . S
C2518 C2517 1.366 . S
C2518 C2519 1.414 . S
C2518 C2521 1.499 . S
C2519 H2493 0.950 . S
C2519 C2518 1.414 . S
C2519 C2520 1.374 . S
C2520 H2494 0.950 . S
C2520 C2516 1.385 . S
C2520 C2519 1.374 . S
C2521 C2518 1.499 . S
C2521 C2522 1.373 . S
C2521 C2523 1.389 . S
C2522 H2495 0.950 . S
C2522 C2508 1.377 . S
C2522 C2521 1.373 . S
C2523 C2507 1.377 . S
C2523 C2521 1.389 . S
C2523 C2524 1.524 . S
C2524 C2523 1.524 . S
C2524 C2525 1.397 . S
C2524 C2529 1.363 . S
C2525 H2496 0.950 . S
C2525 C2524 1.397 . S
C2525 C2526 1.334 . S
C2526 H2497 0.950 . S
C2526 C2525 1.334 . S
C2526 C2527 1.287 . S
C2527 C2526 1.287 . S
C2527 C2528 1.524 . S
C2527 H2530 0.999 . S
C2528 H2498 0.950 . S
C2528 C2527 1.524 . S
C2528 C2529 1.415 . S
C2529 H2499 0.950 . S
C2529 C2524 1.363 . S
C2529 C2528 1.415 . S
H2530 C2527 0.999 . S
H2531 C2512 0.913 . S
H2532 C2550 0.951 . S
H2533 C2552 0.951 . S
H2534 C2554 0.950 . S
H2535 C2555 0.950 . S
H2536 C2557 0.950 . S
H2537 C2560 0.950 . S
H2538 C2561 0.950 . S
H2539 C2563 0.950 . S
H2540 C2564 0.950 . S
H2541 C2565 0.951 . S
H2542 C2567 0.951 . S
H2543 C2569 0.950 . S
H2544 C2570 0.950 . S
H2545 C2572 0.950 . S
H2546 C2575 0.950 . S
H2547 C2576 0.950 . S
H2548 C2578 0.950 . S
H2549 C2579 0.950 . S
C2550 H2532 0.951 . S
C2550 C2551 1.366 . S
C2550 C2552 1.388 . S
C2551 C2550 1.366 . S
C2551 C2555 1.385 . S
C2552 H2533 0.951 . S
C2552 C2550 1.388 . S
C2552 C2553 1.366 . S
C2553 C2552 1.366 . S
C2553 C2554 1.414 . S
C2553 C2556 1.499 . S
C2554 H2534 0.950 . S
C2554 C2553 1.414 . S
C2554 C2555 1.374 . S
C2555 H2535 0.950 . S
C2555 C2551 1.385 . S
C2555 C2554 1.374 . S
C2556 C2553 1.499 . S
C2556 C2557 1.373 . S
C2556 C2558 1.389 . S
C2557 H2536 0.950 . S
C2557 C2556 1.373 . S
C2557 C2573 1.377 . S
C2558 C2556 1.389 . S
C2558 C2559 1.524 . S
C2558 C2572 1.377 . S
C2559 C2558 1.524 . S
C2559 C2560 1.397 . S
C2559 C2564 1.363 . S
C2560 H2537 0.950 . S
C2560 C2559 1.397 . S
C2560 C2561 1.334 . S
C2561 H2538 0.950 . S
C2561 C2560 1.334 . S
C2561 C2562 1.287 . S
C2562 C2561 1.287 . S
C2562 C2563 1.524 . S
C2562 H2581 0.913 . S
C2563 H2539 0.950 . S
C2563 C2562 1.524 . S
C2563 C2564 1.415 . S
C2564 H2540 0.950 . S
C2564 C2559 1.363 . S
C2564 C2563 1.415 . S
C2565 H2541 0.951 . S
C2565 C2566 1.366 . S
C2565 C2567 1.388 . S
C2566 C2565 1.366 . S
C2566 C2570 1.385 . S
C2567 H2542 0.951 . S
C2567 C2565 1.388 . S
C2567 C2568 1.366 . S
C2568 C2567 1.366 . S
C2568 C2569 1.414 . S
C2568 C2571 1.499 . S
C2569 H2543 0.950 . S
C2569 C2568 1.414 . S
C2569 C2570 1.374 . S
C2570 H2544 0.950 . S
C2570 C2566 1.385 . S
C2570 C2569 1.374 . S
C2571 C2568 1.499 . S
C2571 C2572 1.373 . S
C2571 C2573 1.389 . S
C2572 H2545 0.950 . S
C2572 C2558 1.377 . S
C2572 C2571 1.373 . S
C2573 C2557 1.377 . S
C2573 C2571 1.389 . S
C2573 C2574 1.524 . S
C2574 C2573 1.524 . S
C2574 C2575 1.397 . S
C2574 C2579 1.363 . S
C2575 H2546 0.950 . S
C2575 C2574 1.397 . S
C2575 C2576 1.334 . S
C2576 H2547 0.950 . S
C2576 C2575 1.334 . S
C2576 C2577 1.287 . S
C2577 C2576 1.287 . S
C2577 C2578 1.524 . S
C2577 H2580 0.999 . S
C2578 H2548 0.950 . S
C2578 C2577 1.524 . S
C2578 C2579 1.415 . S
C2579 H2549 0.950 . S
C2579 C2574 1.363 . S
C2579 C2578 1.415 . S
H2580 C2577 0.999 . S
H2581 C2562 0.913 . S
H2582 C2600 0.951 . S
H2583 C2602 0.951 . S
H2584 C2604 0.950 . S
H2585 C2605 0.950 . S
H2586 C2607 0.950 . S
H2587 C2610 0.950 . S
H2588 C2611 0.950 . S
H2589 C2613 0.950 . S
H2590 C2614 0.950 . S
H2591 C2615 0.951 . S
H2592 C2617 0.951 . S
H2593 C2619 0.950 . S
H2594 C2620 0.950 . S
H2595 C2622 0.950 . S
H2596 C2625 0.950 . S
H2597 C2626 0.950 . S
H2598 C2628 0.950 . S
H2599 C2629 0.950 . S
C2600 H2582 0.951 . S
C2600 C2601 1.366 . S
C2600 C2602 1.388 . S
C2601 C2600 1.366 . S
C2601 C2605 1.385 . S
C2602 H2583 0.951 . S
C2602 C2600 1.388 . S
C2602 C2603 1.366 . S
C2603 C2602 1.366 . S
C2603 C2604 1.414 . S
C2603 C2606 1.499 . S
C2604 H2584 0.950 . S
C2604 C2603 1.414 . S
C2604 C2605 1.374 . S
C2605 H2585 0.950 . S
C2605 C2601 1.385 . S
C2605 C2604 1.374 . S
C2606 C2603 1.499 . S
C2606 C2607 1.373 . S
C2606 C2608 1.389 . S
C2607 H2586 0.950 . S
C2607 C2606 1.373 . S
C2607 C2623 1.377 . S
C2608 C2606 1.389 . S
C2608 C2609 1.524 . S
C2608 C2622 1.377 . S
C2609 C2608 1.524 . S
C2609 C2610 1.397 . S
C2609 C2614 1.363 . S
C2610 H2587 0.950 . S
C2610 C2609 1.397 . S
C2610 C2611 1.334 . S
C2611 H2588 0.950 . S
C2611 C2610 1.334 . S
C2611 C2612 1.287 . S
C2612 C2611 1.287 . S
C2612 C2613 1.524 . S
C2612 H2631 0.913 . S
C2613 H2589 0.950 . S
C2613 C2612 1.524 . S
C2613 C2614 1.415 . S
C2614 H2590 0.950 . S
C2614 C2609 1.363 . S
C2614 C2613 1.415 . S
C2615 H2591 0.951 . S
C2615 C2616 1.366 . S
C2615 C2617 1.388 . S
C2616 C2615 1.366 . S
C2616 C2620 1.385 . S
C2617 H2592 0.951 . S
C2617 C2615 1.388 . S
C2617 C2618 1.366 . S
C2618 C2617 1.366 . S
C2618 C2619 1.414 . S
C2618 C2621 1.499 . S
C2619 H2593 0.950 . S
C2619 C2618 1.414 . S
C2619 C2620 1.374 . S
C2620 H2594 0.950 . S
C2620 C2616 1.385 . S
C2620 C2619 1.374 . S
C2621 C2618 1.499 . S
C2621 C2622 1.373 . S
C2621 C2623 1.389 . S
C2622 H2595 0.950 . S
C2622 C2608 1.377 . S
C2622 C2621 1.373 . S
C2623 C2607 1.377 . S
C2623 C2621 1.389 . S
C2623 C2624 1.524 . S
C2624 C2623 1.524 . S
C2624 C2625 1.397 . S
C2624 C2629 1.363 . S
C2625 H2596 0.950 . S
C2625 C2624 1.397 . S
C2625 C2626 1.334 . S
C2626 H2597 0.950 . S
C2626 C2625 1.334 . S
C2626 C2627 1.287 . S
C2627 C2626 1.287 . S
C2627 C2628 1.524 . S
C2627 H2630 0.999 . S
C2628 H2598 0.950 . S
C2628 C2627 1.524 . S
C2628 C2629 1.415 . S
C2629 H2599 0.950 . S
C2629 C2624 1.363 . S
C2629 C2628 1.415 . S
H2630 C2627 0.999 . S
H2631 C2612 0.913 . S
H2632 C2650 0.989 . S
H2633 C2652 0.957 1_655 S
H2634 C2654 0.950 . S
H2635 C2655 0.950 . S
H2636 C2657 0.950 . S
H2637 C2660 0.950 1_455 S
H2638 C2661 0.950 . S
H2639 C2663 0.950 . S
H2640 C2664 0.950 . S
H2641 C2665 0.951 . S
H2642 C2667 0.951 . S
H2643 C2669 0.950 1_655 S
H2644 C2670 0.950 1_655 S
H2645 C2672 0.950 1_655 S
H2646 C2675 0.950 . S
H2647 C2676 0.950 . S
H2648 C2678 0.950 . S
H2649 C2679 0.950 . S
C2650 H2632 0.989 . S
C2650 C2651 1.325 1_655 S
C2650 C2652 1.392 1_655 S
C2651 C2650 1.325 1_455 S
C2651 C2655 1.385 . S
C2652 H2633 0.957 1_455 S
C2652 C2650 1.392 1_455 S
C2652 C2653 1.360 . S
C2653 C2652 1.360 . S
C2653 C2654 1.414 . S
C2653 C2656 1.499 . S
C2654 H2634 0.950 . S
C2654 C2653 1.414 . S
C2654 C2655 1.374 . S
C2655 H2635 0.950 . S
C2655 C2651 1.385 . S
C2655 C2654 1.374 . S
C2656 C2653 1.499 . S
C2656 C2657 1.373 . S
C2656 C2658 1.389 . S
C2657 H2636 0.950 . S
C2657 C2656 1.373 . S
C2657 C2673 1.377 . S
C2658 C2656 1.389 . S
C2658 C2659 1.524 1_455 S
C2658 C2672 1.377 . S
C2659 C2658 1.524 1_655 S
C2659 C2660 1.397 . S
C2659 C2664 1.363 . S
C2660 H2637 0.950 1_655 S
C2660 C2659 1.397 . S
C2660 C2661 1.334 . S
C2661 H2638 0.950 . S
C2661 C2660 1.334 . S
C2661 C2662 1.287 . S
C2662 C2661 1.287 . S
C2662 C2663 1.524 . S
C2662 H2681 0.913 . S
C2663 H2639 0.950 . S
C2663 C2662 1.524 . S
C2663 C2664 1.415 . S
C2664 H2640 0.950 . S
C2664 C2659 1.363 . S
C2664 C2663 1.415 . S
C2665 H2641 0.951 . S
C2665 C2666 1.366 . S
C2665 C2667 1.388 . S
C2666 C2665 1.366 . S
C2666 C2670 1.385 . S
C2667 H2642 0.951 . S
C2667 C2665 1.388 . S
C2667 C2668 1.366 . S
C2668 C2667 1.366 . S
C2668 C2669 1.414 . S
C2668 C2671 1.499 . S
C2669 H2643 0.950 1_455 S
C2669 C2668 1.414 . S
C2669 C2670 1.374 . S
C2670 H2644 0.950 1_455 S
C2670 C2666 1.385 . S
C2670 C2669 1.374 . S
C2671 C2668 1.499 . S
C2671 C2672 1.373 . S
C2671 C2673 1.389 . S
C2672 H2645 0.950 1_455 S
C2672 C2658 1.377 . S
C2672 C2671 1.373 . S
C2673 C2657 1.377 . S
C2673 C2671 1.389 . S
C2673 C2674 1.524 . S
C2674 C2673 1.524 . S
C2674 C2675 1.397 . S
C2674 C2679 1.363 . S
C2675 H2646 0.950 . S
C2675 C2674 1.397 . S
C2675 C2676 1.334 . S
C2676 H2647 0.950 . S
C2676 C2675 1.334 . S
C2676 C2677 1.287 . S
C2677 C2676 1.287 . S
C2677 C2678 1.524 . S
C2677 H2680 0.999 . S
C2678 H2648 0.950 . S
C2678 C2677 1.524 . S
C2678 C2679 1.415 . S
C2679 H2649 0.950 . S
C2679 C2674 1.363 . S
C2679 C2678 1.415 . S
H2680 C2677 0.999 . S
H2681 C2662 0.913 . S
H2682 C2700 0.951 . S
H2683 C2702 0.951 . S
H2684 C2704 0.950 . S
H2685 C2705 0.950 . S
H2686 C2707 0.950 . S
H2687 C2710 0.950 . S
H2688 C2711 0.950 . S
H2689 C2713 0.950 . S
H2690 C2714 0.950 . S
H2691 C2715 0.951 . S
H2692 C2717 0.951 . S
H2693 C2719 0.950 . S
H2694 C2720 0.950 . S
H2695 C2722 0.950 . S
H2696 C2725 0.950 . S
H2697 C2726 0.950 . S
H2698 C2728 0.950 . S
H2699 C2729 0.950 . S
C2700 H2682 0.951 . S
C2700 C2701 1.366 . S
C2700 C2702 1.388 . S
C2701 C2700 1.366 . S
C2701 C2705 1.385 . S
C2702 H2683 0.951 . S
C2702 C2700 1.388 . S
C2702 C2703 1.366 . S
C2703 C2702 1.366 . S
C2703 C2704 1.414 . S
C2703 C2706 1.499 . S
C2704 H2684 0.950 . S
C2704 C2703 1.414 . S
C2704 C2705 1.374 . S
C2705 H2685 0.950 . S
C2705 C2701 1.385 . S
C2705 C2704 1.374 . S
C2706 C2703 1.499 . S
C2706 C2707 1.373 . S
C2706 C2708 1.389 . S
C2707 H2686 0.950 . S
C2707 C2706 1.373 . S
C2707 C2723 1.377 . S
C2708 C2706 1.389 . S
C2708 C2709 1.524 . S
C2708 C2722 1.377 . S
C2709 C2708 1.524 . S
C2709 C2710 1.397 . S
C2709 C2714 1.363 . S
C2710 H2687 0.950 . S
C2710 C2709 1.397 . S
C2710 C2711 1.334 . S
C2711 H2688 0.950 . S
C2711 C2710 1.334 . S
C2711 C2712 1.287 . S
C2712 C2711 1.287 . S
C2712 C2713 1.524 . S
C2712 H2731 0.913 . S
C2713 H2689 0.950 . S
C2713 C2712 1.524 . S
C2713 C2714 1.415 . S
C2714 H2690 0.950 . S
C2714 C2709 1.363 . S
C2714 C2713 1.415 . S
C2715 H2691 0.951 . S
C2715 C2716 1.366 . S
C2715 C2717 1.388 . S
C2716 C2715 1.366 . S
C2716 C2720 1.385 . S
C2717 H2692 0.951 . S
C2717 C2715 1.388 . S
C2717 C2718 1.366 . S
C2718 C2717 1.366 . S
C2718 C2719 1.414 . S
C2718 C2721 1.499 . S
C2719 H2693 0.950 . S
C2719 C2718 1.414 . S
C2719 C2720 1.374 . S
C2720 H2694 0.950 . S
C2720 C2716 1.385 . S
C2720 C2719 1.374 . S
C2721 C2718 1.499 . S
C2721 C2722 1.373 . S
C2721 C2723 1.389 . S
C2722 H2695 0.950 . S
C2722 C2708 1.377 . S
C2722 C2721 1.373 . S
C2723 C2707 1.377 . S
C2723 C2721 1.389 . S
C2723 C2724 1.524 . S
C2724 C2723 1.524 . S
C2724 C2725 1.397 . S
C2724 C2729 1.363 . S
C2725 H2696 0.950 . S
C2725 C2724 1.397 . S
C2725 C2726 1.334 . S
C2726 H2697 0.950 . S
C2726 C2725 1.334 . S
C2726 C2727 1.287 . S
C2727 C2726 1.287 . S
C2727 C2728 1.524 . S
C2727 H2730 0.999 . S
C2728 H2698 0.950 . S
C2728 C2727 1.524 . S
C2728 C2729 1.415 . S
C2729 H2699 0.950 . S
C2729 C2724 1.363 . S
C2729 C2728 1.415 . S
H2730 C2727 0.999 . S
H2731 C2712 0.913 . S
H2732 C2750 0.951 . S
H2733 C2752 0.951 . S
H2734 C2754 0.950 . S
H2735 C2755 0.950 . S
H2736 C2757 0.950 . S
H2737 C2760 0.950 . S
H2738 C2761 0.950 . S
H2739 C2763 0.950 . S
H2740 C2764 0.950 . S
H2741 C2765 0.951 . S
H2742 C2767 0.951 . S
H2743 C2769 0.950 . S
H2744 C2770 0.950 . S
H2745 C2772 0.950 . S
H2746 C2775 0.950 . S
H2747 C2776 0.950 . S
H2748 C2778 0.950 . S
H2749 C2779 0.950 . S
C2750 H2732 0.951 . S
C2750 C2751 1.366 . S
C2750 C2752 1.388 . S
C2751 C2750 1.366 . S
C2751 C2755 1.385 . S
C2752 H2733 0.951 . S
C2752 C2750 1.388 . S
C2752 C2753 1.366 . S
C2753 C2752 1.366 . S
C2753 C2754 1.414 . S
C2753 C2756 1.499 . S
C2754 H2734 0.950 . S
C2754 C2753 1.414 . S
C2754 C2755 1.374 . S
C2755 H2735 0.950 . S
C2755 C2751 1.385 . S
C2755 C2754 1.374 . S
C2756 C2753 1.499 . S
C2756 C2757 1.373 . S
C2756 C2758 1.389 . S
C2757 H2736 0.950 . S
C2757 C2756 1.373 . S
C2757 C2773 1.377 . S
C2758 C2756 1.389 . S
C2758 C2759 1.524 . S
C2758 C2772 1.377 . S
C2759 C2758 1.524 . S
C2759 C2760 1.397 . S
C2759 C2764 1.363 . S
C2760 H2737 0.950 . S
C2760 C2759 1.397 . S
C2760 C2761 1.334 . S
C2761 H2738 0.950 . S
C2761 C2760 1.334 . S
C2761 C2762 1.287 . S
C2762 C2761 1.287 . S
C2762 C2763 1.524 . S
C2762 H2781 0.913 . S
C2763 H2739 0.950 . S
C2763 C2762 1.524 . S
C2763 C2764 1.415 . S
C2764 H2740 0.950 . S
C2764 C2759 1.363 . S
C2764 C2763 1.415 . S
C2765 H2741 0.951 . S
C2765 C2766 1.366 . S
C2765 C2767 1.388 . S
C2766 C2765 1.366 . S
C2766 C2770 1.385 . S
C2767 H2742 0.951 . S
C2767 C2765 1.388 . S
C2767 C2768 1.366 . S
C2768 C2767 1.366 . S
C2768 C2769 1.414 . S
C2768 C2771 1.499 . S
C2769 H2743 0.950 . S
C2769 C2768 1.414 . S
C2769 C2770 1.374 . S
C2770 H2744 0.950 . S
C2770 C2766 1.385 . S
C2770 C2769 1.374 . S
C2771 C2768 1.499 . S
C2771 C2772 1.373 . S
C2771 C2773 1.389 . S
C2772 H2745 0.950 . S
C2772 C2758 1.377 . S
C2772 C2771 1.373 . S
C2773 C2757 1.377 . S
C2773 C2771 1.389 . S
C2773 C2774 1.524 . S
C2774 C2773 1.524 . S
C2774 C2775 1.397 . S
C2774 C2779 1.363 . S
C2775 H2746 0.950 . S
C2775 C2774 1.397 . S
C2775 C2776 1.334 . S
C2776 H2747 0.950 . S
C2776 C2775 1.334 . S
C2776 C2777 1.287 . S
C2777 C2776 1.287 . S
C2777 C2778 1.524 . S
C2777 H2780 0.999 . S
C2778 H2748 0.950 . S
C2778 C2777 1.524 . S
C2778 C2779 1.415 . S
C2779 H2749 0.950 . S
C2779 C2774 1.363 . S
C2779 C2778 1.415 . S
H2780 C2777 0.999 . S
H2781 C2762 0.913 . S
H2782 C2800 0.951 . S
H2783 C2802 0.951 . S
H2784 C2804 0.950 . S
H2785 C2805 0.950 . S
H2786 C2807 0.950 . S
H2787 C2810 0.950 . S
H2788 C2811 0.950 . S
H2789 C2813 0.950 . S
H2790 C2814 0.950 . S
H2791 C2815 0.951 . S
H2792 C2817 0.951 . S
H2793 C2819 0.950 . S
H2794 C2820 0.950 . S
H2795 C2822 0.950 . S
H2796 C2825 0.950 . S
H2797 C2826 0.950 . S
H2798 C2828 0.950 . S
H2799 C2829 0.950 . S
C2800 H2782 0.951 . S
C2800 C2801 1.366 . S
C2800 C2802 1.388 . S
C2801 C2800 1.366 . S
C2801 C2805 1.385 . S
C2802 H2783 0.951 . S
C2802 C2800 1.388 . S
C2802 C2803 1.366 . S
C2803 C2802 1.366 . S
C2803 C2804 1.414 . S
C2803 C2806 1.499 . S
C2804 H2784 0.950 . S
C2804 C2803 1.414 . S
C2804 C2805 1.374 . S
C2805 H2785 0.950 . S
C2805 C2801 1.385 . S
C2805 C2804 1.374 . S
C2806 C2803 1.499 . S
C2806 C2807 1.373 . S
C2806 C2808 1.389 . S
C2807 H2786 0.950 . S
C2807 C2806 1.373 . S
C2807 C2823 1.377 . S
C2808 C2806 1.389 . S
C2808 C2809 1.524 . S
C2808 C2822 1.377 . S
C2809 C2808 1.524 . S
C2809 C2810 1.397 . S
C2809 C2814 1.363 . S
C2810 H2787 0.950 . S
C2810 C2809 1.397 . S
C2810 C2811 1.334 . S
C2811 H2788 0.950 . S
C2811 C2810 1.334 . S
C2811 C2812 1.287 . S
C2812 C2811 1.287 . S
C2812 C2813 1.524 . S
C2812 H2831 0.913 . S
C2813 H2789 0.950 . S
C2813 C2812 1.524 . S
C2813 C2814 1.415 . S
C2814 H2790 0.950 . S
C2814 C2809 1.363 . S
C2814 C2813 1.415 . S
C2815 H2791 0.951 . S
C2815 C2816 1.366 . S
C2815 C2817 1.388 . S
C2816 C2815 1.366 . S
C2816 C2820 1.385 . S
C2817 H2792 0.951 . S
C2817 C2815 1.388 . S
C2817 C2818 1.366 . S
C2818 C2817 1.366 . S
C2818 C2819 1.414 . S
C2818 C2821 1.499 . S
C2819 H2793 0.950 . S
C2819 C2818 1.414 . S
C2819 C2820 1.374 . S
C2820 H2794 0.950 . S
C2820 C2816 1.385 . S
C2820 C2819 1.374 . S
C2821 C2818 1.499 . S
C2821 C2822 1.373 . S
C2821 C2823 1.389 . S
C2822 H2795 0.950 . S
C2822 C2808 1.377 . S
C2822 C2821 1.373 . S
C2823 C2807 1.377 . S
C2823 C2821 1.389 . S
C2823 C2824 1.524 . S
C2824 C2823 1.524 . S
C2824 C2825 1.397 . S
C2824 C2829 1.363 . S
C2825 H2796 0.950 . S
C2825 C2824 1.397 . S
C2825 C2826 1.334 . S
C2826 H2797 0.950 . S
C2826 C2825 1.334 . S
C2826 C2827 1.287 . S
C2827 C2826 1.287 . S
C2827 C2828 1.524 . S
C2827 H2830 0.999 . S
C2828 H2798 0.950 . S
C2828 C2827 1.524 . S
C2828 C2829 1.415 . S
C2829 H2799 0.950 . S
C2829 C2824 1.363 . S
C2829 C2828 1.415 . S
H2830 C2827 0.999 . S
H2831 C2812 0.913 . S
H2832 C2850 0.951 . S
H2833 C2852 0.951 . S
H2834 C2854 0.950 . S
H2835 C2855 0.950 . S
H2836 C2857 0.950 . S
H2837 C2860 0.950 . S
H2838 C2861 0.950 1_565 S
H2839 C2863 0.950 . S
H2840 C2864 0.950 . S
H2841 C2865 0.951 . S
H2842 C2867 0.951 1_455 S
H2843 C2869 0.950 . S
H2844 C2870 0.950 . S
H2845 C2872 0.950 . S
H2846 C2875 0.950 1_655 S
H2847 C2876 0.950 . S
H2848 C2878 0.950 . S
H2849 C2879 0.950 . S
C2850 H2832 0.951 . S
C2850 C2851 1.366 . S
C2850 C2852 1.388 . S
C2851 C2850 1.366 . S
C2851 C2855 1.385 . S
C2852 H2833 0.951 . S
C2852 C2850 1.388 . S
C2852 C2853 1.366 . S
C2853 C2852 1.366 . S
C2853 C2854 1.414 . S
C2853 C2856 1.499 . S
C2854 H2834 0.950 . S
C2854 C2853 1.414 . S
C2854 C2855 1.374 . S
C2855 H2835 0.950 . S
C2855 C2851 1.385 . S
C2855 C2854 1.374 . S
C2856 C2853 1.499 . S
C2856 C2857 1.373 . S
C2856 C2858 1.389 . S
C2857 H2836 0.950 . S
C2857 C2856 1.373 . S
C2857 C2873 1.377 . S
C2858 C2856 1.389 . S
C2858 C2859 1.524 . S
C2858 C2872 1.377 . S
C2859 C2858 1.524 . S
C2859 C2860 1.397 . S
C2859 C2864 1.363 . S
C2860 H2837 0.950 . S
C2860 C2859 1.397 . S
C2860 C2861 1.334 . S
C2861 H2838 0.950 1_545 S
C2861 C2860 1.334 . S
C2861 C2862 1.287 . S
C2862 C2861 1.287 . S
C2862 C2863 1.524 . S
C2862 H2881 0.913 . S
C2863 H2839 0.950 . S
C2863 C2862 1.524 . S
C2863 C2864 1.415 . S
C2864 H2840 0.950 . S
C2864 C2859 1.363 . S
C2864 C2863 1.415 . S
C2865 H2841 0.951 . S
C2865 C2866 1.366 1_455 S
C2865 C2867 1.388 1_455 S
C2866 C2865 1.366 1_655 S
C2866 C2870 1.385 . S
C2867 H2842 0.951 1_655 S
C2867 C2865 1.388 1_655 S
C2867 C2868 1.366 . S
C2868 C2867 1.366 . S
C2868 C2869 1.414 . S
C2868 C2871 1.499 . S
C2869 H2843 0.950 . S
C2869 C2868 1.414 . S
C2869 C2870 1.374 . S
C2870 H2844 0.950 . S
C2870 C2866 1.385 . S
C2870 C2869 1.374 . S
C2871 C2868 1.499 . S
C2871 C2872 1.373 . S
C2871 C2873 1.389 . S
C2872 H2845 0.950 . S
C2872 C2858 1.377 . S
C2872 C2871 1.373 . S
C2873 C2857 1.377 . S
C2873 C2871 1.389 . S
C2873 C2874 1.524 1_655 S
C2874 C2873 1.524 1_455 S
C2874 C2875 1.397 . S
C2874 C2879 1.363 . S
C2875 H2846 0.950 1_455 S
C2875 C2874 1.397 . S
C2875 C2876 1.334 . S
C2876 H2847 0.950 . S
C2876 C2875 1.334 . S
C2876 C2877 1.287 . S
C2877 C2876 1.287 . S
C2877 C2878 1.524 . S
C2877 H2880 0.999 . S
C2878 H2848 0.950 . S
C2878 C2877 1.524 . S
C2878 C2879 1.415 . S
C2879 H2849 0.950 . S
C2879 C2874 1.363 . S
C2879 C2878 1.415 . S
H2880 C2877 0.999 . S
H2881 C2862 0.913 . S
H2882 C2900 0.951 . S
H2883 C2902 0.951 . S
H2884 C2904 0.950 . S
H2885 C2905 0.950 . S
H2886 C2907 0.950 . S
H2887 C2910 0.950 . S
H2888 C2911 0.950 . S
H2889 C2913 0.950 . S
H2890 C2914 0.950 . S
H2891 C2915 0.951 . S
H2892 C2917 0.951 . S
H2893 C2919 0.950 . S
H2894 C2920 0.950 . S
H2895 C2922 0.950 . S
H2896 C2925 0.950 . S
H2897 C2926 0.950 . S
H2898 C2928 0.950 . S
H2899 C2929 0.950 . S
C2900 H2882 0.951 . S
C2900 C2901 1.366 . S
C2900 C2902 1.388 . S
C2901 C2900 1.366 . S
C2901 C2905 1.385 . S
C2902 H2883 0.951 . S
C2902 C2900 1.388 . S
C2902 C2903 1.366 . S
C2903 C2902 1.366 . S
C2903 C2904 1.414 . S
C2903 C2906 1.499 . S
C2904 H2884 0.950 . S
C2904 C2903 1.414 . S
C2904 C2905 1.374 . S
C2905 H2885 0.950 . S
C2905 C2901 1.385 . S
C2905 C2904 1.374 . S
C2906 C2903 1.499 . S
C2906 C2907 1.373 . S
C2906 C2908 1.389 . S
C2907 H2886 0.950 . S
C2907 C2906 1.373 . S
C2907 C2923 1.377 . S
C2908 C2906 1.389 . S
C2908 C2909 1.524 . S
C2908 C2922 1.377 . S
C2909 C2908 1.524 . S
C2909 C2910 1.397 . S
C2909 C2914 1.363 . S
C2910 H2887 0.950 . S
C2910 C2909 1.397 . S
C2910 C2911 1.334 . S
C2911 H2888 0.950 . S
C2911 C2910 1.334 . S
C2911 C2912 1.287 . S
C2912 C2911 1.287 . S
C2912 C2913 1.524 . S
C2912 H2931 0.913 . S
C2913 H2889 0.950 . S
C2913 C2912 1.524 . S
C2913 C2914 1.415 . S
C2914 H2890 0.950 . S
C2914 C2909 1.363 . S
C2914 C2913 1.415 . S
C2915 H2891 0.951 . S
C2915 C2916 1.366 . S
C2915 C2917 1.388 . S
C2916 C2915 1.366 . S
C2916 C2920 1.385 . S
C2917 H2892 0.951 . S
C2917 C2915 1.388 . S
C2917 C2918 1.366 . S
C2918 C2917 1.366 . S
C2918 C2919 1.414 . S
C2918 C2921 1.499 . S
C2919 H2893 0.950 . S
C2919 C2918 1.414 . S
C2919 C2920 1.374 . S
C2920 H2894 0.950 . S
C2920 C2916 1.385 . S
C2920 C2919 1.374 . S
C2921 C2918 1.499 . S
C2921 C2922 1.373 . S
C2921 C2923 1.389 . S
C2922 H2895 0.950 . S
C2922 C2908 1.377 . S
C2922 C2921 1.373 . S
C2923 C2907 1.377 . S
C2923 C2921 1.389 . S
C2923 C2924 1.524 . S
C2924 C2923 1.524 . S
C2924 C2925 1.397 . S
C2924 C2929 1.363 . S
C2925 H2896 0.950 . S
C2925 C2924 1.397 . S
C2925 C2926 1.334 . S
C2926 H2897 0.950 . S
C2926 C2925 1.334 . S
C2926 C2927 1.287 . S
C2927 C2926 1.287 . S
C2927 C2928 1.524 . S
C2927 H2930 0.999 . S
C2928 H2898 0.950 . S
C2928 C2927 1.524 . S
C2928 C2929 1.415 . S
C2929 H2899 0.950 . S
C2929 C2924 1.363 . S
C2929 C2928 1.415 . S
H2930 C2927 0.999 . S
H2931 C2912 0.913 . S
H2932 C2950 0.951 . S
H2933 C2952 0.951 . S
H2934 C2954 0.950 . S
H2935 C2955 0.950 . S
H2936 C2957 0.950 1_565 S
H2937 C2960 0.950 . S
H2938 C2961 0.950 . S
H2939 C2963 0.950 . S
H2940 C2964 0.950 . S
H2941 C2965 0.951 . S
H2942 C2967 0.951 . S
H2943 C2969 0.950 . S
H2944 C2970 0.950 . S
H2945 C2972 0.950 . S
H2946 C2975 0.950 . S
H2947 C2976 0.950 . S
H2948 C2978 0.950 . S
H2949 C2979 0.950 . S
C2950 H2932 0.951 . S
C2950 C2951 1.366 . S
C2950 C2952 1.388 . S
C2951 C2950 1.366 . S
C2951 C2955 1.385 . S
C2952 H2933 0.951 . S
C2952 C2950 1.388 . S
C2952 C2953 1.366 . S
C2953 C2952 1.366 . S
C2953 C2954 1.414 . S
C2953 C2956 1.499 . S
C2954 H2934 0.950 . S
C2954 C2953 1.414 . S
C2954 C2955 1.374 . S
C2955 H2935 0.950 . S
C2955 C2951 1.385 . S
C2955 C2954 1.374 . S
C2956 C2953 1.499 . S
C2956 C2957 1.373 . S
C2956 C2958 1.389 . S
C2957 H2936 0.950 1_545 S
C2957 C2956 1.373 . S
C2957 C2973 1.377 . S
C2958 C2956 1.389 . S
C2958 C2959 1.524 . S
C2958 C2972 1.377 . S
C2959 C2958 1.524 . S
C2959 C2960 1.397 . S
C2959 C2964 1.363 . S
C2960 H2937 0.950 . S
C2960 C2959 1.397 . S
C2960 C2961 1.334 . S
C2961 H2938 0.950 . S
C2961 C2960 1.334 . S
C2961 C2962 1.287 . S
C2962 C2961 1.287 . S
C2962 C2963 1.524 . S
C2962 H2981 0.913 . S
C2963 H2939 0.950 . S
C2963 C2962 1.524 . S
C2963 C2964 1.415 . S
C2964 H2940 0.950 . S
C2964 C2959 1.363 . S
C2964 C2963 1.415 . S
C2965 H2941 0.951 . S
C2965 C2966 1.366 . S
C2965 C2967 1.388 . S
C2966 C2965 1.366 . S
C2966 C2970 1.385 . S
C2967 H2942 0.951 . S
C2967 C2965 1.388 . S
C2967 C2968 1.366 . S
C2968 C2967 1.366 . S
C2968 C2969 1.414 . S
C2968 C2971 1.499 . S
C2969 H2943 0.950 . S
C2969 C2968 1.414 . S
C2969 C2970 1.374 . S
C2970 H2944 0.950 . S
C2970 C2966 1.385 . S
C2970 C2969 1.374 . S
C2971 C2968 1.499 . S
C2971 C2972 1.373 . S
C2971 C2973 1.389 . S
C2972 H2945 0.950 . S
C2972 C2958 1.377 . S
C2972 C2971 1.373 . S
C2973 C2957 1.377 . S
C2973 C2971 1.389 . S
C2973 C2974 1.524 1_545 S
C2974 C2973 1.524 1_565 S
C2974 C2975 1.397 . S
C2974 C2979 1.363 . S
C2975 H2946 0.950 . S
C2975 C2974 1.397 . S
C2975 C2976 1.334 . S
C2976 H2947 0.950 . S
C2976 C2975 1.334 . S
C2976 C2977 1.287 . S
C2977 C2976 1.287 . S
C2977 C2978 1.524 . S
C2977 H2980 0.999 . S
C2978 H2948 0.950 . S
C2978 C2977 1.524 . S
C2978 C2979 1.415 . S
C2979 H2949 0.950 . S
C2979 C2974 1.363 . S
C2979 C2978 1.415 . S
H2980 C2977 0.999 . S
H2981 C2962 0.913 . S
H2982 C3000 0.951 . S
H2983 C3002 0.951 . S
H2984 C3004 0.950 . S
H2985 C3005 0.950 . S
H2986 C3007 0.950 . S
H2987 C3010 0.950 . S
H2988 C3011 0.950 . S
H2989 C3013 0.950 . S
H2990 C3014 0.950 . S
H2991 C3015 0.951 . S
H2992 C3017 0.951 . S
H2993 C3019 0.950 . S
H2994 C3020 0.950 . S
H2995 C3022 0.950 . S
H2996 C3025 0.950 . S
H2997 C3026 0.950 . S
H2998 C3028 0.950 . S
H2999 C3029 0.950 . S
C3000 H2982 0.951 . S
C3000 C3001 1.366 . S
C3000 C3002 1.388 . S
C3001 C3000 1.366 . S
C3001 C3005 1.385 . S
C3002 H2983 0.951 . S
C3002 C3000 1.388 . S
C3002 C3003 1.366 . S
C3003 C3002 1.366 . S
C3003 C3004 1.414 . S
C3003 C3006 1.499 . S
C3004 H2984 0.950 . S
C3004 C3003 1.414 . S
C3004 C3005 1.374 . S
C3005 H2985 0.950 . S
C3005 C3001 1.385 . S
C3005 C3004 1.374 . S
C3006 C3003 1.499 . S
C3006 C3007 1.373 . S
C3006 C3008 1.389 . S
C3007 H2986 0.950 . S
C3007 C3006 1.373 . S
C3007 C3023 1.377 . S
C3008 C3006 1.389 . S
C3008 C3009 1.524 . S
C3008 C3022 1.377 . S
C3009 C3008 1.524 . S
C3009 C3010 1.397 . S
C3009 C3014 1.363 . S
C3010 H2987 0.950 . S
C3010 C3009 1.397 . S
C3010 C3011 1.334 . S
C3011 H2988 0.950 . S
C3011 C3010 1.334 . S
C3011 C3012 1.287 . S
C3012 C3011 1.287 . S
C3012 C3013 1.524 . S
C3012 H3031 0.913 . S
C3013 H2989 0.950 . S
C3013 C3012 1.524 . S
C3013 C3014 1.415 . S
C3014 H2990 0.950 . S
C3014 C3009 1.363 . S
C3014 C3013 1.415 . S
C3015 H2991 0.951 . S
C3015 C3016 1.366 . S
C3015 C3017 1.388 . S
C3016 C3015 1.366 . S
C3016 C3020 1.385 . S
C3017 H2992 0.951 . S
C3017 C3015 1.388 . S
C3017 C3018 1.366 . S
C3018 C3017 1.366 . S
C3018 C3019 1.414 . S
C3018 C3021 1.499 . S
C3019 H2993 0.950 . S
C3019 C3018 1.414 . S
C3019 C3020 1.374 . S
C3020 H2994 0.950 . S
C3020 C3016 1.385 . S
C3020 C3019 1.374 . S
C3021 C3018 1.499 . S
C3021 C3022 1.373 . S
C3021 C3023 1.389 . S
C3022 H2995 0.950 . S
C3022 C3008 1.377 . S
C3022 C3021 1.373 . S
C3023 C3007 1.377 . S
C3023 C3021 1.389 . S
C3023 C3024 1.524 . S
C3024 C3023 1.524 . S
C3024 C3025 1.397 . S
C3024 C3029 1.363 . S
C3025 H2996 0.950 . S
C3025 C3024 1.397 . S
C3025 C3026 1.334 . S
C3026 H2997 0.950 . S
C3026 C3025 1.334 . S
C3026 C3027 1.287 . S
C3027 C3026 1.287 . S
C3027 C3028 1.524 . S
C3027 H3030 0.999 . S
C3028 H2998 0.950 . S
C3028 C3027 1.524 . S
C3028 C3029 1.415 . S
C3029 H2999 0.950 . S
C3029 C3024 1.363 . S
C3029 C3028 1.415 . S
H3030 C3027 0.999 . S
H3031 C3012 0.913 . S
H3032 C3050 0.951 . S
H3033 C3052 0.951 . S
H3034 C3054 0.950 . S
H3035 C3055 0.950 . S
H3036 C3057 0.950 . S
H3037 C3060 0.950 . S
H3038 C3061 0.950 . S
H3039 C3063 0.950 . S
H3040 C3064 0.950 . S
H3041 C3065 0.951 . S
H3042 C3067 0.951 . S
H3043 C3069 0.950 1_455 S
H3044 C3070 0.950 . S
H3045 C3072 0.950 . S
H3046 C3075 0.950 . S
H3047 C3076 0.950 1_455 S
H3048 C3078 0.950 . S
H3049 C3079 0.950 . S
C3050 H3032 0.951 . S
C3050 C3051 1.366 . S
C3050 C3052 1.388 . S
C3051 C3050 1.366 . S
C3051 C3055 1.385 . S
C3052 H3033 0.951 . S
C3052 C3050 1.388 . S
C3052 C3053 1.366 . S
C3053 C3052 1.366 . S
C3053 C3054 1.414 . S
C3053 C3056 1.499 . S
C3054 H3034 0.950 . S
C3054 C3053 1.414 . S
C3054 C3055 1.374 . S
C3055 H3035 0.950 . S
C3055 C3051 1.385 . S
C3055 C3054 1.374 . S
C3056 C3053 1.499 . S
C3056 C3057 1.373 . S
C3056 C3058 1.389 . S
C3057 H3036 0.950 . S
C3057 C3056 1.373 . S
C3057 C3073 1.377 . S
C3058 C3056 1.389 . S
C3058 C3059 1.524 . S
C3058 C3072 1.377 . S
C3059 C3058 1.524 . S
C3059 C3060 1.397 . S
C3059 C3064 1.363 . S
C3060 H3037 0.950 . S
C3060 C3059 1.397 . S
C3060 C3061 1.334 1_545 S
C3061 H3038 0.950 . S
C3061 C3060 1.334 1_565 S
C3061 C3062 1.287 . S
C3062 C3061 1.287 . S
C3062 C3063 1.524 . S
C3062 H3081 0.913 . S
C3063 H3039 0.950 . S
C3063 C3062 1.524 . S
C3063 C3064 1.415 1_565 S
C3064 H3040 0.950 . S
C3064 C3059 1.363 . S
C3064 C3063 1.415 1_545 S
C3065 H3041 0.951 . S
C3065 C3066 1.366 . S
C3065 C3067 1.388 . S
C3066 C3065 1.366 . S
C3066 C3070 1.385 1_655 S
C3067 H3042 0.951 . S
C3067 C3065 1.388 . S
C3067 C3068 1.366 . S
C3068 C3067 1.366 . S
C3068 C3069 1.414 . S
C3068 C3071 1.499 . S
C3069 H3043 0.950 1_655 S
C3069 C3068 1.414 . S
C3069 C3070 1.374 1_655 S
C3070 H3044 0.950 . S
C3070 C3066 1.385 1_455 S
C3070 C3069 1.374 1_455 S
C3071 C3068 1.499 . S
C3071 C3072 1.373 . S
C3071 C3073 1.389 . S
C3072 H3045 0.950 . S
C3072 C3058 1.377 . S
C3072 C3071 1.373 . S
C3073 C3057 1.377 . S
C3073 C3071 1.389 . S
C3073 C3074 1.524 . S
C3074 C3073 1.524 . S
C3074 C3075 1.397 . S
C3074 C3079 1.363 . S
C3075 H3046 0.950 . S
C3075 C3074 1.397 . S
C3075 C3076 1.334 . S
C3076 H3047 0.950 1_655 S
C3076 C3075 1.334 . S
C3076 C3077 1.287 . S
C3077 C3076 1.287 . S
C3077 C3078 1.524 . S
C3077 H3080 0.999 . S
C3078 H3048 0.950 . S
C3078 C3077 1.524 . S
C3078 C3079 1.415 . S
C3079 H3049 0.950 . S
C3079 C3074 1.363 . S
C3079 C3078 1.415 . S
H3080 C3077 0.999 . S
H3081 C3062 0.913 . S
H3082 C3100 0.951 . S
H3083 C3102 0.951 . S
H3084 C3104 0.950 . S
H3085 C3105 0.950 . S
H3086 C3107 0.950 . S
H3087 C3110 0.950 . S
H3088 C3111 0.950 . S
H3089 C3113 0.950 . S
H3090 C3114 0.950 . S
H3091 C3115 0.951 . S
H3092 C3117 0.951 . S
H3093 C3119 0.950 . S
H3094 C3120 0.950 . S
H3095 C3122 0.950 . S
H3096 C3125 0.950 . S
H3097 C3126 0.950 . S
H3098 C3128 0.950 . S
H3099 C3129 0.950 . S
C3100 H3082 0.951 . S
C3100 C3101 1.366 . S
C3100 C3102 1.388 . S
C3101 C3100 1.366 . S
C3101 C3105 1.385 . S
C3102 H3083 0.951 . S
C3102 C3100 1.388 . S
C3102 C3103 1.366 . S
C3103 C3102 1.366 . S
C3103 C3104 1.414 . S
C3103 C3106 1.499 . S
C3104 H3084 0.950 . S
C3104 C3103 1.414 . S
C3104 C3105 1.374 . S
C3105 H3085 0.950 . S
C3105 C3101 1.385 . S
C3105 C3104 1.374 . S
C3106 C3103 1.499 . S
C3106 C3107 1.373 . S
C3106 C3108 1.389 . S
C3107 H3086 0.950 . S
C3107 C3106 1.373 . S
C3107 C3123 1.377 . S
C3108 C3106 1.389 . S
C3108 C3109 1.524 . S
C3108 C3122 1.377 . S
C3109 C3108 1.524 . S
C3109 C3110 1.397 . S
C3109 C3114 1.363 . S
C3110 H3087 0.950 . S
C3110 C3109 1.397 . S
C3110 C3111 1.334 . S
C3111 H3088 0.950 . S
C3111 C3110 1.334 . S
C3111 C3112 1.287 . S
C3112 C3111 1.287 . S
C3112 C3113 1.524 . S
C3112 H3131 0.913 . S
C3113 H3089 0.950 . S
C3113 C3112 1.524 . S
C3113 C3114 1.415 . S
C3114 H3090 0.950 . S
C3114 C3109 1.363 . S
C3114 C3113 1.415 . S
C3115 H3091 0.951 . S
C3115 C3116 1.366 . S
C3115 C3117 1.388 . S
C3116 C3115 1.366 . S
C3116 C3120 1.385 . S
C3117 H3092 0.951 . S
C3117 C3115 1.388 . S
C3117 C3118 1.366 . S
C3118 C3117 1.366 . S
C3118 C3119 1.414 . S
C3118 C3121 1.499 . S
C3119 H3093 0.950 . S
C3119 C3118 1.414 . S
C3119 C3120 1.374 . S
C3120 H3094 0.950 . S
C3120 C3116 1.385 . S
C3120 C3119 1.374 . S
C3121 C3118 1.499 . S
C3121 C3122 1.373 . S
C3121 C3123 1.389 . S
C3122 H3095 0.950 . S
C3122 C3108 1.377 . S
C3122 C3121 1.373 . S
C3123 C3107 1.377 . S
C3123 C3121 1.389 . S
C3123 C3124 1.524 . S
C3124 C3123 1.524 . S
C3124 C3125 1.397 . S
C3124 C3129 1.363 . S
C3125 H3096 0.950 . S
C3125 C3124 1.397 . S
C3125 C3126 1.334 . S
C3126 H3097 0.950 . S
C3126 C3125 1.334 . S
C3126 C3127 1.287 . S
C3127 C3126 1.287 . S
C3127 C3128 1.524 . S
C3127 H3130 0.999 . S
C3128 H3098 0.950 . S
C3128 C3127 1.524 . S
C3128 C3129 1.415 . S
C3129 H3099 0.950 . S
C3129 C3124 1.363 . S
C3129 C3128 1.415 . S
H3130 C3127 0.999 . S
H3131 C3112 0.913 . S
H3132 C3150 0.951 . S
H3133 C3152 0.951 . S
H3134 C3154 0.950 . S
H3135 C3155 0.950 . S
H3136 C3157 0.950 . S
H3137 C3160 0.950 . S
H3138 C3161 0.950 . S
H3139 C3163 0.950 . S
H3140 C3164 0.950 . S
H3141 C3165 0.951 . S
H3142 C3167 0.951 . S
H3143 C3169 0.950 . S
H3144 C3170 0.950 . S
H3145 C3172 0.950 . S
H3146 C3175 0.950 1_545 S
H3147 C3176 0.950 . S
H3148 C3178 0.950 . S
H3149 C3179 0.950 . S
C3150 H3132 0.951 . S
C3150 C3151 1.366 . S
C3150 C3152 1.388 . S
C3151 C3150 1.366 . S
C3151 C3155 1.385 . S
C3152 H3133 0.951 . S
C3152 C3150 1.388 . S
C3152 C3153 1.366 . S
C3153 C3152 1.366 . S
C3153 C3154 1.414 . S
C3153 C3156 1.499 . S
C3154 H3134 0.950 . S
C3154 C3153 1.414 . S
C3154 C3155 1.374 . S
C3155 H3135 0.950 . S
C3155 C3151 1.385 . S
C3155 C3154 1.374 . S
C3156 C3153 1.499 . S
C3156 C3157 1.373 . S
C3156 C3158 1.389 . S
C3157 H3136 0.950 . S
C3157 C3156 1.373 . S
C3157 C3173 1.377 . S
C3158 C3156 1.389 . S
C3158 C3159 1.524 . S
C3158 C3172 1.377 . S
C3159 C3158 1.524 . S
C3159 C3160 1.397 . S
C3159 C3164 1.363 . S
C3160 H3137 0.950 . S
C3160 C3159 1.397 . S
C3160 C3161 1.334 . S
C3161 H3138 0.950 . S
C3161 C3160 1.334 . S
C3161 C3162 1.287 . S
C3162 C3161 1.287 . S
C3162 C3163 1.524 . S
C3162 H3181 0.913 . S
C3163 H3139 0.950 . S
C3163 C3162 1.524 . S
C3163 C3164 1.415 . S
C3164 H3140 0.950 . S
C3164 C3159 1.363 . S
C3164 C3163 1.415 . S
C3165 H3141 0.951 . S
C3165 C3166 1.366 . S
C3165 C3167 1.388 . S
C3166 C3165 1.366 . S
C3166 C3170 1.385 . S
C3167 H3142 0.951 . S
C3167 C3165 1.388 . S
C3167 C3168 1.366 . S
C3168 C3167 1.366 . S
C3168 C3169 1.414 . S
C3168 C3171 1.499 . S
C3169 H3143 0.950 . S
C3169 C3168 1.414 . S
C3169 C3170 1.374 . S
C3170 H3144 0.950 . S
C3170 C3166 1.385 . S
C3170 C3169 1.374 . S
C3171 C3168 1.499 . S
C3171 C3172 1.373 . S
C3171 C3173 1.389 . S
C3172 H3145 0.950 . S
C3172 C3158 1.377 . S
C3172 C3171 1.373 . S
C3173 C3157 1.377 . S
C3173 C3171 1.389 . S
C3173 C3174 1.531 . S
C3174 C3173 1.531 . S
C3174 C3175 1.396 1_545 S
C3174 C3179 1.357 1_545 S
C3175 H3146 0.950 1_565 S
C3175 C3174 1.396 1_565 S
C3175 C3176 1.334 . S
C3176 H3147 0.950 . S
C3176 C3175 1.334 . S
C3176 C3177 1.287 . S
C3177 C3176 1.287 . S
C3177 C3178 1.524 . S
C3177 H3180 0.999 . S
C3178 H3148 0.950 . S
C3178 C3177 1.524 . S
C3178 C3179 1.415 . S
C3179 H3149 0.950 . S
C3179 C3174 1.357 1_565 S
C3179 C3178 1.415 . S
H3180 C3177 0.999 . S
H3181 C3162 0.913 . S
H3182 C3200 0.951 . S
H3183 C3202 0.951 . S
H3184 C3204 0.950 . S
H3185 C3205 0.950 . S
H3186 C3207 0.950 . S
H3187 C3210 0.950 . S
H3188 C3211 0.950 . S
H3189 C3213 0.950 . S
H3190 C3214 0.950 . S
H3191 C3215 0.951 . S
H3192 C3217 0.951 . S
H3193 C3219 0.950 . S
H3194 C3220 0.950 . S
H3195 C3222 0.950 . S
H3196 C3225 0.950 . S
H3197 C3226 0.950 . S
H3198 C3228 0.950 . S
H3199 C3229 0.950 . S
C3200 H3182 0.951 . S
C3200 C3201 1.366 . S
C3200 C3202 1.388 . S
C3201 C3200 1.366 . S
C3201 C3205 1.385 . S
C3202 H3183 0.951 . S
C3202 C3200 1.388 . S
C3202 C3203 1.366 . S
C3203 C3202 1.366 . S
C3203 C3204 1.414 . S
C3203 C3206 1.499 . S
C3204 H3184 0.950 . S
C3204 C3203 1.414 . S
C3204 C3205 1.374 . S
C3205 H3185 0.950 . S
C3205 C3201 1.385 . S
C3205 C3204 1.374 . S
C3206 C3203 1.499 . S
C3206 C3207 1.373 . S
C3206 C3208 1.389 . S
C3207 H3186 0.950 . S
C3207 C3206 1.373 . S
C3207 C3223 1.377 . S
C3208 C3206 1.389 . S
C3208 C3209 1.524 . S
C3208 C3222 1.377 . S
C3209 C3208 1.524 . S
C3209 C3210 1.397 . S
C3209 C3214 1.363 . S
C3210 H3187 0.950 . S
C3210 C3209 1.397 . S
C3210 C3211 1.334 . S
C3211 H3188 0.950 . S
C3211 C3210 1.334 . S
C3211 C3212 1.287 . S
C3212 C3211 1.287 . S
C3212 C3213 1.524 . S
C3212 H3231 0.913 . S
C3213 H3189 0.950 . S
C3213 C3212 1.524 . S
C3213 C3214 1.415 . S
C3214 H3190 0.950 . S
C3214 C3209 1.363 . S
C3214 C3213 1.415 . S
C3215 H3191 0.951 . S
C3215 C3216 1.366 . S
C3215 C3217 1.388 . S
C3216 C3215 1.366 . S
C3216 C3220 1.385 . S
C3217 H3192 0.951 . S
C3217 C3215 1.388 . S
C3217 C3218 1.366 . S
C3218 C3217 1.366 . S
C3218 C3219 1.414 . S
C3218 C3221 1.499 . S
C3219 H3193 0.950 . S
C3219 C3218 1.414 . S
C3219 C3220 1.374 . S
C3220 H3194 0.950 . S
C3220 C3216 1.385 . S
C3220 C3219 1.374 . S
C3221 C3218 1.499 . S
C3221 C3222 1.373 . S
C3221 C3223 1.389 . S
C3222 H3195 0.950 . S
C3222 C3208 1.377 . S
C3222 C3221 1.373 . S
C3223 C3207 1.377 . S
C3223 C3221 1.389 . S
C3223 C3224 1.524 . S
C3224 C3223 1.524 . S
C3224 C3225 1.397 . S
C3224 C3229 1.363 . S
C3225 H3196 0.950 . S
C3225 C3224 1.397 . S
C3225 C3226 1.334 . S
C3226 H3197 0.950 . S
C3226 C3225 1.334 . S
C3226 C3227 1.287 . S
C3227 C3226 1.287 . S
C3227 C3228 1.524 . S
C3227 H3230 0.999 . S
C3228 H3198 0.950 . S
C3228 C3227 1.524 . S
C3228 C3229 1.415 . S
C3229 H3199 0.950 . S
C3229 C3224 1.363 . S
C3229 C3228 1.415 . S
H3230 C3227 0.999 . S
H3231 C3212 0.913 . S
H3232 C3250 0.951 . S
H3233 C3252 0.951 . S
H3234 C3254 0.950 . S
H3235 C3255 0.950 . S
H3236 C3257 0.950 . S
H3237 C3260 0.950 . S
H3238 C3261 0.950 . S
H3239 C3263 0.950 . S
H3240 C3264 0.950 . S
H3241 C3265 0.951 . S
H3242 C3267 0.951 . S
H3243 C3269 0.950 . S
H3244 C3270 0.950 . S
H3245 C3272 0.950 1_545 S
H3246 C3275 0.950 . S
H3247 C3276 0.950 . S
H3248 C3278 0.950 . S
H3249 C3279 0.950 . S
C3250 H3232 0.951 . S
C3250 C3251 1.366 . S
C3250 C3252 1.388 . S
C3251 C3250 1.366 . S
C3251 C3255 1.385 . S
C3252 H3233 0.951 . S
C3252 C3250 1.388 . S
C3252 C3253 1.366 . S
C3253 C3252 1.366 . S
C3253 C3254 1.414 . S
C3253 C3256 1.499 . S
C3254 H3234 0.950 . S
C3254 C3253 1.414 . S
C3254 C3255 1.374 . S
C3255 H3235 0.950 . S
C3255 C3251 1.385 . S
C3255 C3254 1.374 . S
C3256 C3253 1.499 . S
C3256 C3257 1.373 . S
C3256 C3258 1.389 . S
C3257 H3236 0.950 . S
C3257 C3256 1.373 . S
C3257 C3273 1.377 . S
C3258 C3256 1.389 . S
C3258 C3259 1.524 . S
C3258 C3272 1.377 . S
C3259 C3258 1.524 . S
C3259 C3260 1.397 . S
C3259 C3264 1.363 1_565 S
C3260 H3237 0.950 . S
C3260 C3259 1.397 . S
C3260 C3261 1.334 . S
C3261 H3238 0.950 . S
C3261 C3260 1.334 . S
C3261 C3262 1.287 1_565 S
C3262 C3261 1.287 1_545 S
C3262 C3263 1.524 . S
C3262 H3281 0.913 . S
C3263 H3239 0.950 . S
C3263 C3262 1.524 . S
C3263 C3264 1.415 . S
C3264 H3240 0.950 . S
C3264 C3259 1.363 1_545 S
C3264 C3263 1.415 . S
C3265 H3241 0.951 . S
C3265 C3266 1.366 1_565 S
C3265 C3267 1.388 . S
C3266 C3265 1.366 1_545 S
C3266 C3270 1.385 . S
C3267 H3242 0.951 . S
C3267 C3265 1.388 . S
C3267 C3268 1.366 . S
C3268 C3267 1.366 . S
C3268 C3269 1.414 1_565 S
C3268 C3271 1.499 . S
C3269 H3243 0.950 . S
C3269 C3268 1.414 1_545 S
C3269 C3270 1.374 . S
C3270 H3244 0.950 . S
C3270 C3266 1.385 . S
C3270 C3269 1.374 . S
C3271 C3268 1.499 . S
C3271 C3272 1.373 . S
C3271 C3273 1.389 . S
C3272 H3245 0.950 1_565 S
C3272 C3258 1.377 . S
C3272 C3271 1.373 . S
C3273 C3257 1.377 . S
C3273 C3271 1.389 . S
C3273 C3274 1.524 . S
C3274 C3273 1.524 . S
C3274 C3275 1.397 1_554 S
C3274 C3279 1.363 . S
C3275 H3246 0.950 . S
C3275 C3274 1.397 1_556 S
C3275 C3276 1.334 . S
C3276 H3247 0.950 . S
C3276 C3275 1.334 . S
C3276 C3277 1.287 . S
C3277 C3276 1.287 . S
C3277 C3278 1.524 . S
C3277 H3280 0.999 . S
C3278 H3248 0.950 . S
C3278 C3277 1.524 . S
C3278 C3279 1.415 1_556 S
C3279 H3249 0.950 . S
C3279 C3274 1.363 . S
C3279 C3278 1.415 1_554 S
H3280 C3277 0.999 . S
H3281 C3262 0.913 . S
H3282 C3300 0.951 1_556 S
H3283 C3302 0.944 1_556 S
H3284 C3304 0.950 . S
H3285 C3305 0.950 . S
H3286 C3307 0.950 . S
H3287 C3310 0.950 . S
H3288 C3311 0.950 . S
H3289 C3313 0.950 . S
H3290 C3314 0.950 . S
H3291 C3315 0.951 . S
H3292 C3317 0.951 . S
H3293 C3319 0.933 1_556 S
H3294 C3320 0.952 1_556 S
H3295 C3322 0.950 . S
H3296 C3325 0.950 . S
H3297 C3326 0.950 . S
H3298 C3328 0.950 . S
H3299 C3329 0.950 . S
C3300 H3282 0.951 1_554 S
C3300 C3301 1.366 . S
C3300 C3302 1.388 . S
C3301 C3300 1.366 . S
C3301 C3305 1.385 . S
C3302 H3283 0.944 1_554 S
C3302 C3300 1.388 . S
C3302 C3303 1.366 . S
C3303 C3302 1.366 . S
C3303 C3304 1.414 . S
C3303 C3306 1.499 . S
C3304 H3284 0.950 . S
C3304 C3303 1.414 . S
C3304 C3305 1.374 . S
C3305 H3285 0.950 . S
C3305 C3301 1.385 . S
C3305 C3304 1.374 . S
C3306 C3303 1.499 . S
C3306 C3307 1.373 . S
C3306 C3308 1.389 . S
C3307 H3286 0.950 . S
C3307 C3306 1.373 . S
C3307 C3323 1.377 . S
C3308 C3306 1.389 . S
C3308 C3309 1.524 . S
C3308 C3322 1.377 . S
C3309 C3308 1.524 . S
C3309 C3310 1.397 . S
C3309 C3314 1.363 . S
C3310 H3287 0.950 . S
C3310 C3309 1.397 . S
C3310 C3311 1.334 . S
C3311 H3288 0.950 . S
C3311 C3310 1.334 . S
C3311 C3312 1.287 . S
C3312 C3311 1.287 . S
C3312 C3313 1.524 . S
C3312 H3331 0.913 . S
C3313 H3289 0.950 . S
C3313 C3312 1.524 . S
C3313 C3314 1.415 . S
C3314 H3290 0.950 . S
C3314 C3309 1.363 . S
C3314 C3313 1.415 . S
C3315 H3291 0.951 . S
C3315 C3316 1.366 . S
C3315 C3317 1.388 . S
C3316 C3315 1.366 . S
C3316 C3320 1.385 . S
C3317 H3292 0.951 . S
C3317 C3315 1.388 . S
C3317 C3318 1.366 . S
C3318 C3317 1.366 . S
C3318 C3319 1.414 . S
C3318 C3321 1.499 . S
C3319 H3293 0.933 1_554 S
C3319 C3318 1.414 . S
C3319 C3320 1.374 . S
C3320 H3294 0.952 1_554 S
C3320 C3316 1.385 . S
C3320 C3319 1.374 . S
C3321 C3318 1.499 . S
C3321 C3322 1.373 . S
C3321 C3323 1.389 . S
C3322 H3295 0.950 . S
C3322 C3308 1.377 . S
C3322 C3321 1.373 . S
C3323 C3307 1.377 . S
C3323 C3321 1.389 . S
C3323 C3324 1.524 1_554 S
C3324 C3323 1.524 1_556 S
C3324 C3325 1.397 . S
C3324 C3329 1.363 1_556 S
C3325 H3296 0.950 . S
C3325 C3324 1.397 . S
C3325 C3326 1.334 . S
C3326 H3297 0.950 . S
C3326 C3325 1.334 . S
C3326 C3327 1.287 . S
C3327 C3326 1.287 . S
C3327 C3328 1.524 . S
C3327 H3330 0.999 . S
C3328 H3298 0.950 . S
C3328 C3327 1.524 . S
C3328 C3329 1.415 1_556 S
C3329 H3299 0.950 . S
C3329 C3324 1.363 1_554 S
C3329 C3328 1.415 1_554 S
H3330 C3327 0.999 . S
H3331 C3312 0.913 . S
H3332 C3350 0.951 . S
H3333 C3352 0.951 . S
H3334 C3354 0.950 . S
H3335 C3355 0.950 . S
H3336 C3357 0.950 . S
H3337 C3360 0.950 . S
H3338 C3361 0.950 . S
H3339 C3363 0.950 . S
H3340 C3364 0.950 . S
H3341 C3365 0.951 . S
H3342 C3367 0.951 . S
H3343 C3369 0.950 . S
H3344 C3370 0.950 . S
H3345 C3372 0.950 . S
H3346 C3375 0.950 . S
H3347 C3376 0.950 . S
H3348 C3378 0.950 . S
H3349 C3379 0.950 . S
C3350 H3332 0.951 . S
C3350 C3351 1.366 . S
C3350 C3352 1.388 . S
C3351 C3350 1.366 . S
C3351 C3355 1.385 . S
C3352 H3333 0.951 . S
C3352 C3350 1.388 . S
C3352 C3353 1.366 . S
C3353 C3352 1.366 . S
C3353 C3354 1.414 . S
C3353 C3356 1.499 . S
C3354 H3334 0.950 . S
C3354 C3353 1.414 . S
C3354 C3355 1.374 . S
C3355 H3335 0.950 . S
C3355 C3351 1.385 . S
C3355 C3354 1.374 . S
C3356 C3353 1.499 . S
C3356 C3357 1.373 . S
C3356 C3358 1.389 . S
C3357 H3336 0.950 . S
C3357 C3356 1.373 . S
C3357 C3373 1.377 . S
C3358 C3356 1.389 . S
C3358 C3359 1.524 . S
C3358 C3372 1.377 . S
C3359 C3358 1.524 . S
C3359 C3360 1.397 . S
C3359 C3364 1.363 . S
C3360 H3337 0.950 . S
C3360 C3359 1.397 . S
C3360 C3361 1.334 . S
C3361 H3338 0.950 . S
C3361 C3360 1.334 . S
C3361 C3362 1.287 . S
C3362 C3361 1.287 . S
C3362 C3363 1.524 . S
C3362 H3381 0.913 . S
C3363 H3339 0.950 . S
C3363 C3362 1.524 . S
C3363 C3364 1.415 . S
C3364 H3340 0.950 . S
C3364 C3359 1.363 . S
C3364 C3363 1.415 . S
C3365 H3341 0.951 . S
C3365 C3366 1.366 . S
C3365 C3367 1.388 . S
C3366 C3365 1.366 . S
C3366 C3370 1.385 . S
C3367 H3342 0.951 . S
C3367 C3365 1.388 . S
C3367 C3368 1.366 . S
C3368 C3367 1.366 . S
C3368 C3369 1.414 . S
C3368 C3371 1.499 . S
C3369 H3343 0.950 . S
C3369 C3368 1.414 . S
C3369 C3370 1.374 . S
C3370 H3344 0.950 . S
C3370 C3366 1.385 . S
C3370 C3369 1.374 . S
C3371 C3368 1.499 . S
C3371 C3372 1.373 . S
C3371 C3373 1.389 . S
C3372 H3345 0.950 . S
C3372 C3358 1.377 . S
C3372 C3371 1.373 . S
C3373 C3357 1.377 . S
C3373 C3371 1.389 . S
C3373 C3374 1.524 . S
C3374 C3373 1.524 . S
C3374 C3375 1.397 . S
C3374 C3379 1.363 . S
C3375 H3346 0.950 . S
C3375 C3374 1.397 . S
C3375 C3376 1.334 . S
C3376 H3347 0.950 . S
C3376 C3375 1.334 . S
C3376 C3377 1.287 . S
C3377 C3376 1.287 . S
C3377 C3378 1.524 . S
C3377 H3380 0.999 . S
C3378 H3348 0.950 . S
C3378 C3377 1.524 . S
C3378 C3379 1.415 . S
C3379 H3349 0.950 . S
C3379 C3374 1.363 . S
C3379 C3378 1.415 . S
H3380 C3377 0.999 . S
H3381 C3362 0.913 . S
H3382 C3400 0.951 . S
H3383 C3402 0.951 . S
H3384 C3404 0.950 . S
H3385 C3405 0.950 . S
H3386 C3407 0.950 . S
H3387 C3410 0.950 . S
H3388 C3411 0.950 . S
H3389 C3413 0.950 . S
H3390 C3414 0.950 . S
H3391 C3415 0.951 . S
H3392 C3417 0.951 . S
H3393 C3419 0.950 . S
H3394 C3420 0.950 . S
H3395 C3422 0.950 . S
H3396 C3425 0.950 . S
H3397 C3426 0.950 . S
H3398 C3428 0.950 . S
H3399 C3429 0.950 . S
C3400 H3382 0.951 . S
C3400 C3401 1.366 . S
C3400 C3402 1.388 . S
C3401 C3400 1.366 . S
C3401 C3405 1.385 . S
C3402 H3383 0.951 . S
C3402 C3400 1.388 . S
C3402 C3403 1.366 . S
C3403 C3402 1.366 . S
C3403 C3404 1.414 . S
C3403 C3406 1.499 . S
C3404 H3384 0.950 . S
C3404 C3403 1.414 . S
C3404 C3405 1.374 . S
C3405 H3385 0.950 . S
C3405 C3401 1.385 . S
C3405 C3404 1.374 . S
C3406 C3403 1.499 . S
C3406 C3407 1.373 . S
C3406 C3408 1.389 . S
C3407 H3386 0.950 . S
C3407 C3406 1.373 . S
C3407 C3423 1.377 . S
C3408 C3406 1.389 . S
C3408 C3409 1.524 . S
C3408 C3422 1.377 . S
C3409 C3408 1.524 . S
C3409 C3410 1.397 . S
C3409 C3414 1.363 . S
C3410 H3387 0.950 . S
C3410 C3409 1.397 . S
C3410 C3411 1.334 . S
C3411 H3388 0.950 . S
C3411 C3410 1.334 . S
C3411 C3412 1.287 . S
C3412 C3411 1.287 . S
C3412 C3413 1.524 . S
C3412 H3431 0.913 . S
C3413 H3389 0.950 . S
C3413 C3412 1.524 . S
C3413 C3414 1.415 . S
C3414 H3390 0.950 . S
C3414 C3409 1.363 . S
C3414 C3413 1.415 . S
C3415 H3391 0.951 . S
C3415 C3416 1.366 . S
C3415 C3417 1.388 . S
C3416 C3415 1.366 . S
C3416 C3420 1.385 . S
C3417 H3392 0.951 . S
C3417 C3415 1.388 . S
C3417 C3418 1.366 . S
C3418 C3417 1.366 . S
C3418 C3419 1.414 . S
C3418 C3421 1.499 . S
C3419 H3393 0.950 . S
C3419 C3418 1.414 . S
C3419 C3420 1.374 . S
C3420 H3394 0.950 . S
C3420 C3416 1.385 . S
C3420 C3419 1.374 . S
C3421 C3418 1.499 . S
C3421 C3422 1.373 . S
C3421 C3423 1.389 . S
C3422 H3395 0.950 . S
C3422 C3408 1.377 . S
C3422 C3421 1.373 . S
C3423 C3407 1.377 . S
C3423 C3421 1.389 . S
C3423 C3424 1.524 . S
C3424 C3423 1.524 . S
C3424 C3425 1.397 . S
C3424 C3429 1.363 . S
C3425 H3396 0.950 . S
C3425 C3424 1.397 . S
C3425 C3426 1.334 . S
C3426 H3397 0.950 . S
C3426 C3425 1.334 . S
C3426 C3427 1.287 . S
C3427 C3426 1.287 . S
C3427 C3428 1.524 . S
C3427 H3430 0.999 . S
C3428 H3398 0.950 . S
C3428 C3427 1.524 . S
C3428 C3429 1.415 . S
C3429 H3399 0.950 . S
C3429 C3424 1.363 . S
C3429 C3428 1.415 . S
H3430 C3427 0.999 . S
H3431 C3412 0.913 . S
H3432 C3450 0.951 . S
H3433 C3452 0.951 . S
H3434 C3454 0.950 . S
H3435 C3455 0.950 . S
H3436 C3457 0.950 . S
H3437 C3460 0.950 . S
H3438 C3461 0.950 . S
H3439 C3463 0.950 . S
H3440 C3464 0.950 . S
H3441 C3465 0.951 . S
H3442 C3467 0.951 . S
H3443 C3469 0.950 . S
H3444 C3470 0.950 . S
H3445 C3472 0.950 . S
H3446 C3475 0.950 . S
H3447 C3476 0.950 . S
H3448 C3478 0.950 . S
H3449 C3479 0.950 . S
C3450 H3432 0.951 . S
C3450 C3451 1.366 . S
C3450 C3452 1.388 . S
C3451 C3450 1.366 . S
C3451 C3455 1.385 . S
C3452 H3433 0.951 . S
C3452 C3450 1.388 . S
C3452 C3453 1.366 . S
C3453 C3452 1.366 . S
C3453 C3454 1.414 . S
C3453 C3456 1.499 . S
C3454 H3434 0.950 . S
C3454 C3453 1.414 . S
C3454 C3455 1.374 . S
C3455 H3435 0.950 . S
C3455 C3451 1.385 . S
C3455 C3454 1.374 . S
C3456 C3453 1.499 . S
C3456 C3457 1.373 . S
C3456 C3458 1.389 . S
C3457 H3436 0.950 . S
C3457 C3456 1.373 . S
C3457 C3473 1.377 . S
C3458 C3456 1.389 . S
C3458 C3459 1.524 . S
C3458 C3472 1.377 . S
C3459 C3458 1.524 . S
C3459 C3460 1.397 . S
C3459 C3464 1.363 . S
C3460 H3437 0.950 . S
C3460 C3459 1.397 . S
C3460 C3461 1.334 . S
C3461 H3438 0.950 . S
C3461 C3460 1.334 . S
C3461 C3462 1.287 . S
C3462 C3461 1.287 . S
C3462 C3463 1.524 . S
C3462 H3481 0.913 . S
C3463 H3439 0.950 . S
C3463 C3462 1.524 . S
C3463 C3464 1.415 . S
C3464 H3440 0.950 . S
C3464 C3459 1.363 . S
C3464 C3463 1.415 . S
C3465 H3441 0.951 . S
C3465 C3466 1.366 . S
C3465 C3467 1.388 . S
C3466 C3465 1.366 . S
C3466 C3470 1.385 . S
C3467 H3442 0.951 . S
C3467 C3465 1.388 . S
C3467 C3468 1.366 . S
C3468 C3467 1.366 . S
C3468 C3469 1.414 . S
C3468 C3471 1.499 . S
C3469 H3443 0.950 . S
C3469 C3468 1.414 . S
C3469 C3470 1.374 . S
C3470 H3444 0.950 . S
C3470 C3466 1.385 . S
C3470 C3469 1.374 . S
C3471 C3468 1.499 . S
C3471 C3472 1.373 . S
C3471 C3473 1.389 . S
C3472 H3445 0.950 . S
C3472 C3458 1.377 . S
C3472 C3471 1.373 . S
C3473 C3457 1.377 . S
C3473 C3471 1.389 . S
C3473 C3474 1.524 . S
C3474 C3473 1.524 . S
C3474 C3475 1.397 . S
C3474 C3479 1.363 . S
C3475 H3446 0.950 . S
C3475 C3474 1.397 . S
C3475 C3476 1.334 . S
C3476 H3447 0.950 . S
C3476 C3475 1.334 . S
C3476 C3477 1.287 . S
C3477 C3476 1.287 . S
C3477 C3478 1.524 . S
C3477 H3480 0.999 . S
C3478 H3448 0.950 . S
C3478 C3477 1.524 . S
C3478 C3479 1.415 . S
C3479 H3449 0.950 . S
C3479 C3474 1.363 . S
C3479 C3478 1.415 . S
H3480 C3477 0.999 . S
H3481 C3462 0.913 . S
H3482 C3500 0.951 . S
H3483 C3502 0.951 . S
H3484 C3504 0.950 . S
H3485 C3505 0.950 . S
H3486 C3507 0.950 . S
H3487 C3510 0.950 . S
H3488 C3511 0.950 . S
H3489 C3513 0.950 . S
H3490 C3514 0.950 . S
H3491 C3515 0.951 . S
H3492 C3517 0.951 . S
H3493 C3519 0.950 . S
H3494 C3520 0.950 . S
H3495 C3522 0.950 . S
H3496 C3525 0.950 . S
H3497 C3526 0.950 . S
H3498 C3528 0.950 . S
H3499 C3529 0.950 . S
C3500 H3482 0.951 . S
C3500 C3501 1.366 . S
C3500 C3502 1.388 . S
C3501 C3500 1.366 . S
C3501 C3505 1.385 . S
C3502 H3483 0.951 . S
C3502 C3500 1.388 . S
C3502 C3503 1.366 . S
C3503 C3502 1.366 . S
C3503 C3504 1.414 . S
C3503 C3506 1.499 . S
C3504 H3484 0.950 . S
C3504 C3503 1.414 . S
C3504 C3505 1.374 . S
C3505 H3485 0.950 . S
C3505 C3501 1.385 . S
C3505 C3504 1.374 . S
C3506 C3503 1.499 . S
C3506 C3507 1.373 . S
C3506 C3508 1.389 . S
C3507 H3486 0.950 . S
C3507 C3506 1.373 . S
C3507 C3523 1.377 . S
C3508 C3506 1.389 . S
C3508 C3509 1.524 . S
C3508 C3522 1.377 . S
C3509 C3508 1.524 . S
C3509 C3510 1.397 . S
C3509 C3514 1.363 . S
C3510 H3487 0.950 . S
C3510 C3509 1.397 . S
C3510 C3511 1.334 . S
C3511 H3488 0.950 . S
C3511 C3510 1.334 . S
C3511 C3512 1.287 . S
C3512 C3511 1.287 . S
C3512 C3513 1.524 . S
C3512 H3531 0.913 . S
C3513 H3489 0.950 . S
C3513 C3512 1.524 . S
C3513 C3514 1.415 . S
C3514 H3490 0.950 . S
C3514 C3509 1.363 . S
C3514 C3513 1.415 . S
C3515 H3491 0.951 . S
C3515 C3516 1.366 . S
C3515 C3517 1.388 . S
C3516 C3515 1.366 . S
C3516 C3520 1.385 . S
C3517 H3492 0.951 . S
C3517 C3515 1.388 . S
C3517 C3518 1.366 . S
C3518 C3517 1.366 . S
C3518 C3519 1.414 . S
C3518 C3521 1.499 . S
C3519 H3493 0.950 . S
C3519 C3518 1.414 . S
C3519 C3520 1.374 . S
C3520 H3494 0.950 . S
C3520 C3516 1.385 . S
C3520 C3519 1.374 . S
C3521 C3518 1.499 . S
C3521 C3522 1.373 . S
C3521 C3523 1.389 . S
C3522 H3495 0.950 . S
C3522 C3508 1.377 . S
C3522 C3521 1.373 . S
C3523 C3507 1.377 . S
C3523 C3521 1.389 . S
C3523 C3524 1.524 . S
C3524 C3523 1.524 . S
C3524 C3525 1.397 . S
C3524 C3529 1.363 . S
C3525 H3496 0.950 . S
C3525 C3524 1.397 . S
C3525 C3526 1.334 . S
C3526 H3497 0.950 . S
C3526 C3525 1.334 . S
C3526 C3527 1.287 . S
C3527 C3526 1.287 . S
C3527 C3528 1.524 . S
C3527 H3530 0.999 . S
C3528 H3498 0.950 . S
C3528 C3527 1.524 . S
C3528 C3529 1.415 . S
C3529 H3499 0.950 . S
C3529 C3524 1.363 . S
C3529 C3528 1.415 . S
H3530 C3527 0.999 . S
H3531 C3512 0.913 . S
H3532 C3550 0.951 . S
H3533 C3552 0.951 . S
H3534 C3554 0.950 . S
H3535 C3555 0.950 . S
H3536 C3557 0.950 . S
H3537 C3560 0.950 . S
H3538 C3561 0.950 . S
H3539 C3563 0.950 . S
H3540 C3564 0.950 . S
H3541 C3565 0.951 . S
H3542 C3567 0.951 . S
H3543 C3569 0.950 . S
H3544 C3570 0.950 . S
H3545 C3572 0.950 . S
H3546 C3575 0.950 . S
H3547 C3576 0.950 . S
H3548 C3578 0.950 . S
H3549 C3579 0.950 . S
C3550 H3532 0.951 . S
C3550 C3551 1.366 . S
C3550 C3552 1.388 . S
C3551 C3550 1.366 . S
C3551 C3555 1.385 . S
C3552 H3533 0.951 . S
C3552 C3550 1.388 . S
C3552 C3553 1.366 . S
C3553 C3552 1.366 . S
C3553 C3554 1.414 . S
C3553 C3556 1.499 . S
C3554 H3534 0.950 . S
C3554 C3553 1.414 . S
C3554 C3555 1.374 . S
C3555 H3535 0.950 . S
C3555 C3551 1.385 . S
C3555 C3554 1.374 . S
C3556 C3553 1.499 . S
C3556 C3557 1.373 . S
C3556 C3558 1.389 . S
C3557 H3536 0.950 . S
C3557 C3556 1.373 . S
C3557 C3573 1.377 . S
C3558 C3556 1.389 . S
C3558 C3559 1.524 . S
C3558 C3572 1.377 . S
C3559 C3558 1.524 . S
C3559 C3560 1.397 . S
C3559 C3564 1.363 . S
C3560 H3537 0.950 . S
C3560 C3559 1.397 . S
C3560 C3561 1.334 . S
C3561 H3538 0.950 . S
C3561 C3560 1.334 . S
C3561 C3562 1.287 . S
C3562 C3561 1.287 . S
C3562 C3563 1.524 . S
C3562 H3581 0.913 . S
C3563 H3539 0.950 . S
C3563 C3562 1.524 . S
C3563 C3564 1.415 . S
C3564 H3540 0.950 . S
C3564 C3559 1.363 . S
C3564 C3563 1.415 . S
C3565 H3541 0.951 . S
C3565 C3566 1.366 . S
C3565 C3567 1.388 . S
C3566 C3565 1.366 . S
C3566 C3570 1.385 . S
C3567 H3542 0.951 . S
C3567 C3565 1.388 . S
C3567 C3568 1.366 . S
C3568 C3567 1.366 . S
C3568 C3569 1.414 . S
C3568 C3571 1.499 . S
C3569 H3543 0.950 . S
C3569 C3568 1.414 . S
C3569 C3570 1.374 . S
C3570 H3544 0.950 . S
C3570 C3566 1.385 . S
C3570 C3569 1.374 . S
C3571 C3568 1.499 . S
C3571 C3572 1.373 . S
C3571 C3573 1.389 . S
C3572 H3545 0.950 . S
C3572 C3558 1.377 . S
C3572 C3571 1.373 . S
C3573 C3557 1.377 . S
C3573 C3571 1.389 . S
C3573 C3574 1.524 . S
C3574 C3573 1.524 . S
C3574 C3575 1.397 . S
C3574 C3579 1.363 . S
C3575 H3546 0.950 . S
C3575 C3574 1.397 . S
C3575 C3576 1.334 . S
C3576 H3547 0.950 . S
C3576 C3575 1.334 . S
C3576 C3577 1.287 . S
C3577 C3576 1.287 . S
C3577 C3578 1.524 . S
C3577 H3580 0.999 . S
C3578 H3548 0.950 . S
C3578 C3577 1.524 . S
C3578 C3579 1.415 . S
C3579 H3549 0.950 . S
C3579 C3574 1.363 . S
C3579 C3578 1.415 . S
H3580 C3577 0.999 . S
H3581 C3562 0.913 . S
H3582 C3600 0.951 . S
H3583 C3602 0.951 . S
H3584 C3604 0.950 . S
H3585 C3605 0.950 . S
H3586 C3607 0.950 . S
H3587 C3610 0.950 . S
H3588 C3611 0.950 . S
H3589 C3613 0.950 . S
H3590 C3614 0.950 . S
H3591 C3615 0.951 . S
H3592 C3617 0.951 . S
H3593 C3619 0.950 . S
H3594 C3620 0.950 . S
H3595 C3622 0.950 . S
H3596 C3625 0.950 . S
H3597 C3626 0.950 . S
H3598 C3628 0.950 . S
H3599 C3629 0.950 . S
C3600 H3582 0.951 . S
C3600 C3601 1.366 . S
C3600 C3602 1.388 . S
C3601 C3600 1.366 . S
C3601 C3605 1.385 . S
C3602 H3583 0.951 . S
C3602 C3600 1.388 . S
C3602 C3603 1.366 . S
C3603 C3602 1.366 . S
C3603 C3604 1.414 . S
C3603 C3606 1.499 . S
C3604 H3584 0.950 . S
C3604 C3603 1.414 . S
C3604 C3605 1.374 . S
C3605 H3585 0.950 . S
C3605 C3601 1.385 . S
C3605 C3604 1.374 . S
C3606 C3603 1.499 . S
C3606 C3607 1.373 . S
C3606 C3608 1.389 . S
C3607 H3586 0.950 . S
C3607 C3606 1.373 . S
C3607 C3623 1.377 . S
C3608 C3606 1.389 . S
C3608 C3609 1.524 . S
C3608 C3622 1.377 . S
C3609 C3608 1.524 . S
C3609 C3610 1.397 . S
C3609 C3614 1.363 . S
C3610 H3587 0.950 . S
C3610 C3609 1.397 . S
C3610 C3611 1.334 . S
C3611 H3588 0.950 . S
C3611 C3610 1.334 . S
C3611 C3612 1.287 . S
C3612 C3611 1.287 . S
C3612 C3613 1.524 . S
C3612 H3631 0.913 . S
C3613 H3589 0.950 . S
C3613 C3612 1.524 . S
C3613 C3614 1.415 . S
C3614 H3590 0.950 . S
C3614 C3609 1.363 . S
C3614 C3613 1.415 . S
C3615 H3591 0.951 . S
C3615 C3616 1.366 . S
C3615 C3617 1.388 . S
C3616 C3615 1.366 . S
C3616 C3620 1.385 . S
C3617 H3592 0.951 . S
C3617 C3615 1.388 . S
C3617 C3618 1.366 . S
C3618 C3617 1.366 . S
C3618 C3619 1.414 . S
C3618 C3621 1.499 . S
C3619 H3593 0.950 . S
C3619 C3618 1.414 . S
C3619 C3620 1.374 . S
C3620 H3594 0.950 . S
C3620 C3616 1.385 . S
C3620 C3619 1.374 . S
C3621 C3618 1.499 . S
C3621 C3622 1.373 . S
C3621 C3623 1.389 . S
C3622 H3595 0.950 . S
C3622 C3608 1.377 . S
C3622 C3621 1.373 . S
C3623 C3607 1.377 . S
C3623 C3621 1.389 . S
C3623 C3624 1.524 . S
C3624 C3623 1.524 . S
C3624 C3625 1.397 . S
C3624 C3629 1.363 . S
C3625 H3596 0.950 . S
C3625 C3624 1.397 . S
C3625 C3626 1.334 . S
C3626 H3597 0.950 . S
C3626 C3625 1.334 . S
C3626 C3627 1.287 . S
C3627 C3626 1.287 . S
C3627 C3628 1.524 . S
C3627 H3630 0.999 . S
C3628 H3598 0.950 . S
C3628 C3627 1.524 . S
C3628 C3629 1.415 . S
C3629 H3599 0.950 . S
C3629 C3624 1.363 . S
C3629 C3628 1.415 . S
H3630 C3627 0.999 . S
H3631 C3612 0.913 . S
H3632 C3650 0.951 . S
H3633 C3652 0.951 . S
H3634 C3654 0.950 . S
H3635 C3655 0.950 . S
H3636 C3657 0.950 . S
H3637 C3660 0.950 . S
H3638 C3661 0.950 . S
H3639 C3663 0.950 . S
H3640 C3664 0.950 . S
H3641 C3665 0.951 . S
H3642 C3667 0.951 . S
H3643 C3669 0.950 1_655 S
H3644 C3670 0.950 1_655 S
H3645 C3672 0.915 1_655 S
H3646 C3675 0.950 . S
H3647 C3676 0.950 . S
H3648 C3678 0.950 . S
H3649 C3679 0.950 . S
C3650 H3632 0.951 . S
C3650 C3651 1.366 . S
C3650 C3652 1.388 . S
C3651 C3650 1.366 . S
C3651 C3655 1.385 . S
C3652 H3633 0.951 . S
C3652 C3650 1.388 . S
C3652 C3653 1.366 . S
C3653 C3652 1.366 . S
C3653 C3654 1.414 . S
C3653 C3656 1.499 . S
C3654 H3634 0.950 . S
C3654 C3653 1.414 . S
C3654 C3655 1.374 . S
C3655 H3635 0.950 . S
C3655 C3651 1.385 . S
C3655 C3654 1.374 . S
C3656 C3653 1.499 . S
C3656 C3657 1.373 . S
C3656 C3658 1.389 . S
C3657 H3636 0.950 . S
C3657 C3656 1.373 . S
C3657 C3673 1.377 . S
C3658 C3656 1.389 . S
C3658 C3659 1.524 1_455 S
C3658 C3672 1.384 . S
C3659 C3658 1.524 1_655 S
C3659 C3660 1.397 . S
C3659 C3664 1.363 . S
C3660 H3637 0.950 . S
C3660 C3659 1.397 . S
C3660 C3661 1.334 . S
C3661 H3638 0.950 . S
C3661 C3660 1.334 . S
C3661 C3662 1.287 . S
C3662 C3661 1.287 . S
C3662 C3663 1.524 . S
C3662 H3681 0.913 . S
C3663 H3639 0.950 . S
C3663 C3662 1.524 . S
C3663 C3664 1.415 . S
C3664 H3640 0.950 . S
C3664 C3659 1.363 . S
C3664 C3663 1.415 . S
C3665 H3641 0.951 . S
C3665 C3666 1.366 . S
C3665 C3667 1.388 . S
C3666 C3665 1.366 . S
C3666 C3670 1.385 . S
C3667 H3642 0.951 . S
C3667 C3665 1.388 . S
C3667 C3668 1.366 . S
C3668 C3667 1.366 . S
C3668 C3669 1.414 . S
C3668 C3671 1.499 . S
C3669 H3643 0.950 1_455 S
C3669 C3668 1.414 . S
C3669 C3670 1.374 . S
C3670 H3644 0.950 1_455 S
C3670 C3666 1.385 . S
C3670 C3669 1.374 . S
C3671 C3668 1.499 . S
C3671 C3672 1.401 . S
C3671 C3673 1.389 . S
C3672 H3645 0.915 1_455 S
C3672 C3658 1.384 . S
C3672 C3671 1.401 . S
C3673 C3657 1.377 . S
C3673 C3671 1.389 . S
C3673 C3674 1.524 . S
C3674 C3673 1.524 . S
C3674 C3675 1.397 . S
C3674 C3679 1.363 . S
C3675 H3646 0.950 . S
C3675 C3674 1.397 . S
C3675 C3676 1.334 . S
C3676 H3647 0.950 . S
C3676 C3675 1.334 . S
C3676 C3677 1.287 . S
C3677 C3676 1.287 . S
C3677 C3678 1.524 . S
C3677 H3680 0.999 . S
C3678 H3648 0.950 . S
C3678 C3677 1.524 . S
C3678 C3679 1.415 . S
C3679 H3649 0.950 . S
C3679 C3674 1.363 . S
C3679 C3678 1.415 . S
H3680 C3677 0.999 . S
H3681 C3662 0.913 . S
H3682 C3700 0.951 . S
H3683 C3702 0.951 . S
H3684 C3704 0.950 . S
H3685 C3705 0.950 . S
H3686 C3707 0.950 . S
H3687 C3710 0.950 . S
H3688 C3711 0.950 . S
H3689 C3713 0.950 . S
H3690 C3714 0.950 . S
H3691 C3715 0.951 . S
H3692 C3717 0.951 . S
H3693 C3719 0.950 . S
H3694 C3720 0.950 . S
H3695 C3722 0.950 . S
H3696 C3725 0.950 . S
H3697 C3726 0.950 . S
H3698 C3728 0.950 . S
H3699 C3729 0.950 . S
C3700 H3682 0.951 . S
C3700 C3701 1.366 . S
C3700 C3702 1.388 . S
C3701 C3700 1.366 . S
C3701 C3705 1.385 . S
C3702 H3683 0.951 . S
C3702 C3700 1.388 . S
C3702 C3703 1.366 . S
C3703 C3702 1.366 . S
C3703 C3704 1.414 . S
C3703 C3706 1.499 . S
C3704 H3684 0.950 . S
C3704 C3703 1.414 . S
C3704 C3705 1.374 . S
C3705 H3685 0.950 . S
C3705 C3701 1.385 . S
C3705 C3704 1.374 . S
C3706 C3703 1.499 . S
C3706 C3707 1.373 . S
C3706 C3708 1.389 . S
C3707 H3686 0.950 . S
C3707 C3706 1.373 . S
C3707 C3723 1.377 . S
C3708 C3706 1.389 . S
C3708 C3709 1.524 . S
C3708 C3722 1.377 . S
C3709 C3708 1.524 . S
C3709 C3710 1.397 . S
C3709 C3714 1.363 . S
C3710 H3687 0.950 . S
C3710 C3709 1.397 . S
C3710 C3711 1.334 . S
C3711 H3688 0.950 . S
C3711 C3710 1.334 . S
C3711 C3712 1.287 . S
C3712 C3711 1.287 . S
C3712 C3713 1.524 . S
C3712 H3731 0.913 . S
C3713 H3689 0.950 . S
C3713 C3712 1.524 . S
C3713 C3714 1.415 . S
C3714 H3690 0.950 . S
C3714 C3709 1.363 . S
C3714 C3713 1.415 . S
C3715 H3691 0.951 . S
C3715 C3716 1.366 . S
C3715 C3717 1.388 . S
C3716 C3715 1.366 . S
C3716 C3720 1.385 . S
C3717 H3692 0.951 . S
C3717 C3715 1.388 . S
C3717 C3718 1.366 . S
C3718 C3717 1.366 . S
C3718 C3719 1.414 . S
C3718 C3721 1.499 . S
C3719 H3693 0.950 . S
C3719 C3718 1.414 . S
C3719 C3720 1.374 . S
C3720 H3694 0.950 . S
C3720 C3716 1.385 . S
C3720 C3719 1.374 . S
C3721 C3718 1.499 . S
C3721 C3722 1.373 . S
C3721 C3723 1.389 . S
C3722 H3695 0.950 . S
C3722 C3708 1.377 . S
C3722 C3721 1.373 . S
C3723 C3707 1.377 . S
C3723 C3721 1.389 . S
C3723 C3724 1.524 . S
C3724 C3723 1.524 . S
C3724 C3725 1.397 . S
C3724 C3729 1.363 . S
C3725 H3696 0.950 . S
C3725 C3724 1.397 . S
C3725 C3726 1.334 . S
C3726 H3697 0.950 . S
C3726 C3725 1.334 . S
C3726 C3727 1.287 . S
C3727 C3726 1.287 . S
C3727 C3728 1.524 . S
C3727 H3730 0.999 . S
C3728 H3698 0.950 . S
C3728 C3727 1.524 . S
C3728 C3729 1.415 . S
C3729 H3699 0.950 . S
C3729 C3724 1.363 . S
C3729 C3728 1.415 . S
H3730 C3727 0.999 . S
H3731 C3712 0.913 . S
H3732 C3750 0.951 . S
H3733 C3752 0.951 . S
H3734 C3754 0.950 . S
H3735 C3755 0.950 . S
H3736 C3757 0.950 . S
H3737 C3760 0.950 . S
H3738 C3761 0.950 . S
H3739 C3763 0.950 . S
H3740 C3764 0.950 . S
H3741 C3765 0.951 . S
H3742 C3767 0.951 . S
H3743 C3769 0.950 . S
H3744 C3770 0.950 . S
H3745 C3772 0.950 . S
H3746 C3775 0.950 . S
H3747 C3776 0.950 . S
H3748 C3778 0.950 . S
H3749 C3779 0.950 . S
C3750 H3732 0.951 . S
C3750 C3751 1.366 . S
C3750 C3752 1.388 . S
C3751 C3750 1.366 . S
C3751 C3755 1.385 . S
C3752 H3733 0.951 . S
C3752 C3750 1.388 . S
C3752 C3753 1.366 . S
C3753 C3752 1.366 . S
C3753 C3754 1.414 . S
C3753 C3756 1.499 . S
C3754 H3734 0.950 . S
C3754 C3753 1.414 . S
C3754 C3755 1.374 . S
C3755 H3735 0.950 . S
C3755 C3751 1.385 . S
C3755 C3754 1.374 . S
C3756 C3753 1.499 . S
C3756 C3757 1.373 . S
C3756 C3758 1.389 . S
C3757 H3736 0.950 . S
C3757 C3756 1.373 . S
C3757 C3773 1.377 . S
C3758 C3756 1.389 . S
C3758 C3759 1.524 . S
C3758 C3772 1.377 . S
C3759 C3758 1.524 . S
C3759 C3760 1.397 . S
C3759 C3764 1.363 . S
C3760 H3737 0.950 . S
C3760 C3759 1.397 . S
C3760 C3761 1.334 . S
C3761 H3738 0.950 . S
C3761 C3760 1.334 . S
C3761 C3762 1.287 . S
C3762 C3761 1.287 . S
C3762 C3763 1.524 . S
C3762 H3781 0.913 . S
C3763 H3739 0.950 . S
C3763 C3762 1.524 . S
C3763 C3764 1.415 . S
C3764 H3740 0.950 . S
C3764 C3759 1.363 . S
C3764 C3763 1.415 . S
C3765 H3741 0.951 . S
C3765 C3766 1.366 . S
C3765 C3767 1.388 . S
C3766 C3765 1.366 . S
C3766 C3770 1.385 . S
C3767 H3742 0.951 . S
C3767 C3765 1.388 . S
C3767 C3768 1.366 . S
C3768 C3767 1.366 . S
C3768 C3769 1.414 . S
C3768 C3771 1.499 . S
C3769 H3743 0.950 . S
C3769 C3768 1.414 . S
C3769 C3770 1.374 . S
C3770 H3744 0.950 . S
C3770 C3766 1.385 . S
C3770 C3769 1.374 . S
C3771 C3768 1.499 . S
C3771 C3772 1.373 . S
C3771 C3773 1.389 . S
C3772 H3745 0.950 . S
C3772 C3758 1.377 . S
C3772 C3771 1.373 . S
C3773 C3757 1.377 . S
C3773 C3771 1.389 . S
C3773 C3774 1.524 . S
C3774 C3773 1.524 . S
C3774 C3775 1.397 . S
C3774 C3779 1.363 . S
C3775 H3746 0.950 . S
C3775 C3774 1.397 . S
C3775 C3776 1.334 . S
C3776 H3747 0.950 . S
C3776 C3775 1.334 . S
C3776 C3777 1.287 . S
C3777 C3776 1.287 . S
C3777 C3778 1.524 . S
C3777 H3780 0.999 . S
C3778 H3748 0.950 . S
C3778 C3777 1.524 . S
C3778 C3779 1.415 . S
C3779 H3749 0.950 . S
C3779 C3774 1.363 . S
C3779 C3778 1.415 . S
H3780 C3777 0.999 . S
H3781 C3762 0.913 . S
H3782 C3800 0.951 . S
H3783 C3802 0.951 . S
H3784 C3804 0.950 . S
H3785 C3805 0.950 . S
H3786 C3807 0.950 . S
H3787 C3810 0.950 . S
H3788 C3811 0.950 . S
H3789 C3813 0.950 . S
H3790 C3814 0.950 . S
H3791 C3815 0.951 . S
H3792 C3817 0.951 . S
H3793 C3819 0.950 . S
H3794 C3820 0.950 . S
H3795 C3822 0.950 . S
H3796 C3825 0.950 . S
H3797 C3826 0.950 . S
H3798 C3828 0.950 . S
H3799 C3829 0.950 . S
C3800 H3782 0.951 . S
C3800 C3801 1.366 . S
C3800 C3802 1.388 . S
C3801 C3800 1.366 . S
C3801 C3805 1.385 . S
C3802 H3783 0.951 . S
C3802 C3800 1.388 . S
C3802 C3803 1.366 . S
C3803 C3802 1.366 . S
C3803 C3804 1.414 . S
C3803 C3806 1.499 . S
C3804 H3784 0.950 . S
C3804 C3803 1.414 . S
C3804 C3805 1.374 . S
C3805 H3785 0.950 . S
C3805 C3801 1.385 . S
C3805 C3804 1.374 . S
C3806 C3803 1.499 . S
C3806 C3807 1.373 . S
C3806 C3808 1.389 . S
C3807 H3786 0.950 . S
C3807 C3806 1.373 . S
C3807 C3823 1.377 . S
C3808 C3806 1.389 . S
C3808 C3809 1.524 . S
C3808 C3822 1.377 . S
C3809 C3808 1.524 . S
C3809 C3810 1.397 . S
C3809 C3814 1.363 . S
C3810 H3787 0.950 . S
C3810 C3809 1.397 . S
C3810 C3811 1.334 . S
C3811 H3788 0.950 . S
C3811 C3810 1.334 . S
C3811 C3812 1.287 . S
C3812 C3811 1.287 . S
C3812 C3813 1.524 . S
C3812 H3831 0.913 . S
C3813 H3789 0.950 . S
C3813 C3812 1.524 . S
C3813 C3814 1.415 . S
C3814 H3790 0.950 . S
C3814 C3809 1.363 . S
C3814 C3813 1.415 . S
C3815 H3791 0.951 . S
C3815 C3816 1.366 . S
C3815 C3817 1.388 . S
C3816 C3815 1.366 . S
C3816 C3820 1.385 . S
C3817 H3792 0.951 . S
C3817 C3815 1.388 . S
C3817 C3818 1.366 . S
C3818 C3817 1.366 . S
C3818 C3819 1.414 . S
C3818 C3821 1.499 . S
C3819 H3793 0.950 . S
C3819 C3818 1.414 . S
C3819 C3820 1.374 . S
C3820 H3794 0.950 . S
C3820 C3816 1.385 . S
C3820 C3819 1.374 . S
C3821 C3818 1.499 . S
C3821 C3822 1.373 . S
C3821 C3823 1.389 . S
C3822 H3795 0.950 . S
C3822 C3808 1.377 . S
C3822 C3821 1.373 . S
C3823 C3807 1.377 . S
C3823 C3821 1.389 . S
C3823 C3824 1.524 . S
C3824 C3823 1.524 . S
C3824 C3825 1.397 . S
C3824 C3829 1.363 . S
C3825 H3796 0.950 . S
C3825 C3824 1.397 . S
C3825 C3826 1.334 . S
C3826 H3797 0.950 . S
C3826 C3825 1.334 . S
C3826 C3827 1.287 . S
C3827 C3826 1.287 . S
C3827 C3828 1.524 . S
C3827 H3830 0.999 . S
C3828 H3798 0.950 . S
C3828 C3827 1.524 . S
C3828 C3829 1.415 . S
C3829 H3799 0.950 . S
C3829 C3824 1.363 . S
C3829 C3828 1.415 . S
H3830 C3827 0.999 . S
H3831 C3812 0.913 . S
H3832 C3850 0.962 . S
H3833 C3852 0.976 . S
H3834 C3854 0.950 . S
H3835 C3855 0.950 . S
H3836 C3857 0.964 . S
H3837 C3860 0.950 . S
H3838 C3861 0.950 . S
H3839 C3863 0.950 . S
H3840 C3864 0.950 . S
H3841 C3865 0.951 . S
H3842 C3867 0.951 . S
H3843 C3869 0.950 . S
H3844 C3870 0.950 . S
H3845 C3872 0.950 . S
H3846 C3875 0.950 . S
H3847 C3876 0.950 . S
H3848 C3878 0.950 . S
H3849 C3879 0.950 1_455 S
C3850 H3832 0.962 . S
C3850 C3851 1.357 1_655 S
C3850 C3852 1.392 . S
C3851 C3850 1.357 1_455 S
C3851 C3855 1.385 . S
C3852 H3833 0.976 . S
C3852 C3850 1.392 . S
C3852 C3853 1.337 1_655 S
C3853 C3852 1.337 1_455 S
C3853 C3854 1.414 . S
C3853 C3856 1.499 . S
C3854 H3834 0.950 . S
C3854 C3853 1.414 . S
C3854 C3855 1.374 . S
C3855 H3835 0.950 . S
C3855 C3851 1.385 . S
C3855 C3854 1.374 . S
C3856 C3853 1.499 . S
C3856 C3857 1.363 1_455 S
C3856 C3858 1.389 . S
C3857 H3836 0.964 . S
C3857 C3856 1.363 1_655 S
C3857 C3873 1.377 . S
C3858 C3856 1.389 . S
C3858 C3859 1.524 . S
C3858 C3872 1.377 . S
C3859 C3858 1.524 . S
C3859 C3860 1.397 . S
C3859 C3864 1.363 . S
C3860 H3837 0.950 . S
C3860 C3859 1.397 . S
C3860 C3861 1.334 . S
C3861 H3838 0.950 . S
C3861 C3860 1.334 . S
C3861 C3862 1.287 . S
C3862 C3861 1.287 . S
C3862 C3863 1.524 . S
C3862 H3881 0.913 . S
C3863 H3839 0.950 . S
C3863 C3862 1.524 . S
C3863 C3864 1.415 . S
C3864 H3840 0.950 . S
C3864 C3859 1.363 . S
C3864 C3863 1.415 . S
C3865 H3841 0.951 . S
C3865 C3866 1.377 . S
C3865 C3867 1.388 . S
C3866 C3865 1.377 . S
C3866 C3870 1.371 1_455 S
C3867 H3842 0.951 . S
C3867 C3865 1.388 . S
C3867 C3868 1.366 . S
C3868 C3867 1.366 . S
C3868 C3869 1.414 1_455 S
C3868 C3871 1.499 . S
C3869 H3843 0.950 . S
C3869 C3868 1.414 1_655 S
C3869 C3870 1.374 . S
C3870 H3844 0.950 . S
C3870 C3866 1.371 1_655 S
C3870 C3869 1.374 . S
C3871 C3868 1.499 . S
C3871 C3872 1.373 . S
C3871 C3873 1.389 1_455 S
C3872 H3845 0.950 . S
C3872 C3858 1.377 . S
C3872 C3871 1.373 . S
C3873 C3857 1.377 . S
C3873 C3871 1.389 1_655 S
C3873 C3874 1.524 . S
C3874 C3873 1.524 . S
C3874 C3875 1.397 . S
C3874 C3879 1.363 . S
C3875 H3846 0.950 . S
C3875 C3874 1.397 . S
C3875 C3876 1.334 . S
C3876 H3847 0.950 . S
C3876 C3875 1.334 . S
C3876 C3877 1.287 . S
C3877 C3876 1.287 . S
C3877 C3878 1.524 . S
C3877 H3880 0.999 . S
C3878 H3848 0.950 . S
C3878 C3877 1.524 . S
C3878 C3879 1.415 . S
C3879 H3849 0.950 1_655 S
C3879 C3874 1.363 . S
C3879 C3878 1.415 . S
H3880 C3877 0.999 . S
H3881 C3862 0.913 . S
H3882 C3900 0.951 . S
H3883 C3902 0.951 . S
H3884 C3904 0.950 . S
H3885 C3905 0.950 . S
H3886 C3907 0.950 . S
H3887 C3910 0.950 . S
H3888 C3911 0.950 . S
H3889 C3913 0.950 . S
H3890 C3914 0.950 . S
H3891 C3915 0.951 . S
H3892 C3917 0.951 . S
H3893 C3919 0.950 . S
H3894 C3920 0.950 . S
H3895 C3922 0.950 . S
H3896 C3925 0.950 . S
H3897 C3926 0.950 . S
H3898 C3928 0.950 . S
H3899 C3929 0.950 . S
C3900 H3882 0.951 . S
C3900 C3901 1.366 . S
C3900 C3902 1.388 . S
C3901 C3900 1.366 . S
C3901 C3905 1.385 . S
C3902 H3883 0.951 . S
C3902 C3900 1.388 . S
C3902 C3903 1.366 . S
C3903 C3902 1.366 . S
C3903 C3904 1.414 . S
C3903 C3906 1.499 . S
C3904 H3884 0.950 . S
C3904 C3903 1.414 . S
C3904 C3905 1.374 . S
C3905 H3885 0.950 . S
C3905 C3901 1.385 . S
C3905 C3904 1.374 . S
C3906 C3903 1.499 . S
C3906 C3907 1.373 . S
C3906 C3908 1.389 . S
C3907 H3886 0.950 . S
C3907 C3906 1.373 . S
C3907 C3923 1.377 . S
C3908 C3906 1.389 . S
C3908 C3909 1.524 . S
C3908 C3922 1.377 . S
C3909 C3908 1.524 . S
C3909 C3910 1.397 . S
C3909 C3914 1.363 . S
C3910 H3887 0.950 . S
C3910 C3909 1.397 . S
C3910 C3911 1.334 . S
C3911 H3888 0.950 . S
C3911 C3910 1.334 . S
C3911 C3912 1.287 . S
C3912 C3911 1.287 . S
C3912 C3913 1.524 . S
C3912 H3931 0.913 . S
C3913 H3889 0.950 . S
C3913 C3912 1.524 . S
C3913 C3914 1.415 . S
C3914 H3890 0.950 . S
C3914 C3909 1.363 . S
C3914 C3913 1.415 . S
C3915 H3891 0.951 . S
C3915 C3916 1.366 . S
C3915 C3917 1.388 . S
C3916 C3915 1.366 . S
C3916 C3920 1.385 . S
C3917 H3892 0.951 . S
C3917 C3915 1.388 . S
C3917 C3918 1.366 . S
C3918 C3917 1.366 . S
C3918 C3919 1.414 . S
C3918 C3921 1.499 . S
C3919 H3893 0.950 . S
C3919 C3918 1.414 . S
C3919 C3920 1.374 . S
C3920 H3894 0.950 . S
C3920 C3916 1.385 . S
C3920 C3919 1.374 . S
C3921 C3918 1.499 . S
C3921 C3922 1.373 . S
C3921 C3923 1.389 . S
C3922 H3895 0.950 . S
C3922 C3908 1.377 . S
C3922 C3921 1.373 . S
C3923 C3907 1.377 . S
C3923 C3921 1.389 . S
C3923 C3924 1.524 . S
C3924 C3923 1.524 . S
C3924 C3925 1.397 . S
C3924 C3929 1.363 . S
C3925 H3896 0.950 . S
C3925 C3924 1.397 . S
C3925 C3926 1.334 . S
C3926 H3897 0.950 . S
C3926 C3925 1.334 . S
C3926 C3927 1.287 . S
C3927 C3926 1.287 . S
C3927 C3928 1.524 . S
C3927 H3930 0.999 . S
C3928 H3898 0.950 . S
C3928 C3927 1.524 . S
C3928 C3929 1.415 . S
C3929 H3899 0.950 . S
C3929 C3924 1.363 . S
C3929 C3928 1.415 . S
H3930 C3927 0.999 . S
H3931 C3912 0.913 . S
H3932 C3950 0.951 . S
H3933 C3952 0.951 . S
H3934 C3954 0.950 . S
H3935 C3955 0.950 . S
H3936 C3957 0.950 . S
H3937 C3960 0.950 . S
H3938 C3961 0.950 . S
H3939 C3963 0.950 . S
H3940 C3964 0.950 . S
H3941 C3965 0.951 . S
H3942 C3967 0.931 1_554 S
H3943 C3969 0.950 . S
H3944 C3970 0.950 . S
H3945 C3972 0.950 . S
H3946 C3975 0.950 . S
H3947 C3976 0.950 . S
H3948 C3978 0.950 . S
H3949 C3979 0.950 . S
C3950 H3932 0.951 . S
C3950 C3951 1.366 . S
C3950 C3952 1.388 . S
C3951 C3950 1.366 . S
C3951 C3955 1.385 . S
C3952 H3933 0.951 . S
C3952 C3950 1.388 . S
C3952 C3953 1.366 . S
C3953 C3952 1.366 . S
C3953 C3954 1.414 . S
C3953 C3956 1.499 . S
C3954 H3934 0.950 . S
C3954 C3953 1.414 . S
C3954 C3955 1.374 . S
C3955 H3935 0.950 . S
C3955 C3951 1.385 . S
C3955 C3954 1.374 . S
C3956 C3953 1.499 . S
C3956 C3957 1.373 . S
C3956 C3958 1.389 . S
C3957 H3936 0.950 . S
C3957 C3956 1.373 . S
C3957 C3973 1.377 . S
C3958 C3956 1.389 . S
C3958 C3959 1.524 . S
C3958 C3972 1.377 . S
C3959 C3958 1.524 . S
C3959 C3960 1.397 . S
C3959 C3964 1.363 . S
C3960 H3937 0.950 . S
C3960 C3959 1.397 . S
C3960 C3961 1.334 . S
C3961 H3938 0.950 . S
C3961 C3960 1.334 . S
C3961 C3962 1.287 . S
C3962 C3961 1.287 . S
C3962 C3963 1.524 . S
C3962 H3981 0.913 . S
C3963 H3939 0.950 . S
C3963 C3962 1.524 . S
C3963 C3964 1.415 . S
C3964 H3940 0.950 . S
C3964 C3959 1.363 . S
C3964 C3963 1.415 . S
C3965 H3941 0.951 . S
C3965 C3966 1.399 . S
C3965 C3967 1.373 1_554 S
C3966 C3965 1.399 . S
C3966 C3970 1.326 1_554 S
C3967 H3942 0.931 1_556 S
C3967 C3965 1.373 1_556 S
C3967 C3968 1.402 . S
C3968 C3967 1.402 . S
C3968 C3969 1.414 . S
C3968 C3971 1.499 . S
C3969 H3943 0.950 . S
C3969 C3968 1.414 . S
C3969 C3970 1.374 . S
C3970 H3944 0.950 . S
C3970 C3966 1.326 1_556 S
C3970 C3969 1.374 . S
C3971 C3968 1.499 . S
C3971 C3972 1.373 . S
C3971 C3973 1.389 . S
C3972 H3945 0.950 . S
C3972 C3958 1.377 . S
C3972 C3971 1.373 . S
C3973 C3957 1.377 . S
C3973 C3971 1.389 . S
C3973 C3974 1.524 . S
C3974 C3973 1.524 . S
C3974 C3975 1.397 . S
C3974 C3979 1.363 . S
C3975 H3946 0.950 . S
C3975 C3974 1.397 . S
C3975 C3976 1.334 . S
C3976 H3947 0.950 . S
C3976 C3975 1.334 . S
C3976 C3977 1.287 . S
C3977 C3976 1.287 . S
C3977 C3978 1.524 . S
C3977 H3980 0.999 . S
C3978 H3948 0.950 . S
C3978 C3977 1.524 . S
C3978 C3979 1.415 . S
C3979 H3949 0.950 . S
C3979 C3974 1.363 . S
C3979 C3978 1.415 . S
H3980 C3977 0.999 . S
H3981 C3962 0.913 . S
H3982 C4000 0.951 . S
H3983 C4002 0.951 . S
H3984 C4004 0.950 . S
H3985 C4005 0.950 . S
H3986 C4007 0.950 . S
H3987 C4010 0.950 . S
H3988 C4011 0.950 . S
H3989 C4013 0.950 . S
H3990 C4014 0.950 . S
H3991 C4015 0.951 . S
H3992 C4017 0.951 . S
H3993 C4019 0.950 . S
H3994 C4020 0.950 . S
H3995 C4022 0.950 . S
H3996 C4025 0.950 . S
H3997 C4026 0.950 . S
H3998 C4028 0.950 . S
H3999 C4029 0.950 . S
C4000 H3982 0.951 . S
C4000 C4001 1.366 . S
C4000 C4002 1.388 . S
C4001 C4000 1.366 . S
C4001 C4005 1.385 . S
C4002 H3983 0.951 . S
C4002 C4000 1.388 . S
C4002 C4003 1.366 . S
C4003 C4002 1.366 . S
C4003 C4004 1.414 . S
C4003 C4006 1.499 . S
C4004 H3984 0.950 . S
C4004 C4003 1.414 . S
C4004 C4005 1.374 . S
C4005 H3985 0.950 . S
C4005 C4001 1.385 . S
C4005 C4004 1.374 . S
C4006 C4003 1.499 . S
C4006 C4007 1.373 . S
C4006 C4008 1.389 . S
C4007 H3986 0.950 . S
C4007 C4006 1.373 . S
C4007 C4023 1.377 . S
C4008 C4006 1.389 . S
C4008 C4009 1.524 . S
C4008 C4022 1.377 . S
C4009 C4008 1.524 . S
C4009 C4010 1.397 . S
C4009 C4014 1.363 . S
C4010 H3987 0.950 . S
C4010 C4009 1.397 . S
C4010 C4011 1.334 . S
C4011 H3988 0.950 . S
C4011 C4010 1.334 . S
C4011 C4012 1.287 . S
C4012 C4011 1.287 . S
C4012 C4013 1.524 . S
C4012 H4031 0.913 . S
C4013 H3989 0.950 . S
C4013 C4012 1.524 . S
C4013 C4014 1.415 . S
C4014 H3990 0.950 . S
C4014 C4009 1.363 . S
C4014 C4013 1.415 . S
C4015 H3991 0.951 . S
C4015 C4016 1.366 . S
C4015 C4017 1.388 . S
C4016 C4015 1.366 . S
C4016 C4020 1.385 . S
C4017 H3992 0.951 . S
C4017 C4015 1.388 . S
C4017 C4018 1.366 . S
C4018 C4017 1.366 . S
C4018 C4019 1.414 . S
C4018 C4021 1.499 . S
C4019 H3993 0.950 . S
C4019 C4018 1.414 . S
C4019 C4020 1.374 . S
C4020 H3994 0.950 . S
C4020 C4016 1.385 . S
C4020 C4019 1.374 . S
C4021 C4018 1.499 . S
C4021 C4022 1.373 . S
C4021 C4023 1.389 . S
C4022 H3995 0.950 . S
C4022 C4008 1.377 . S
C4022 C4021 1.373 . S
C4023 C4007 1.377 . S
C4023 C4021 1.389 . S
C4023 C4024 1.524 . S
C4024 C4023 1.524 . S
C4024 C4025 1.397 . S
C4024 C4029 1.363 . S
C4025 H3996 0.950 . S
C4025 C4024 1.397 . S
C4025 C4026 1.334 . S
C4026 H3997 0.950 . S
C4026 C4025 1.334 . S
C4026 C4027 1.287 . S
C4027 C4026 1.287 . S
C4027 C4028 1.524 . S
C4027 H4030 0.999 . S
C4028 H3998 0.950 . S
C4028 C4027 1.524 . S
C4028 C4029 1.415 . S
C4029 H3999 0.950 . S
C4029 C4024 1.363 . S
C4029 C4028 1.415 . S
H4030 C4027 0.999 . S
H4031 C4012 0.913 . S
H4032 C4050 0.951 . S
H4033 C4052 0.951 . S
H4034 C4054 0.950 . S
H4035 C4055 0.950 . S
H4036 C4057 0.950 . S
H4037 C4060 0.950 . S
H4038 C4061 0.950 . S
H4039 C4063 0.950 . S
H4040 C4064 0.950 . S
H4041 C4065 1.008 . S
H4042 C4067 0.951 . S
H4043 C4069 0.950 . S
H4044 C4070 0.950 . S
H4045 C4072 0.950 . S
H4046 C4075 0.950 . S
H4047 C4076 0.950 . S
H4048 C4078 0.950 . S
H4049 C4079 0.950 . S
C4050 H4032 0.951 . S
C4050 C4051 1.366 1_545 S
C4050 C4052 1.388 . S
C4051 C4050 1.366 1_565 S
C4051 C4055 1.385 . S
C4052 H4033 0.951 . S
C4052 C4050 1.388 . S
C4052 C4053 1.366 . S
C4053 C4052 1.366 . S
C4053 C4054 1.414 1_545 S
C4053 C4056 1.499 . S
C4054 H4034 0.950 . S
C4054 C4053 1.414 1_565 S
C4054 C4055 1.374 . S
C4055 H4035 0.950 . S
C4055 C4051 1.385 . S
C4055 C4054 1.374 . S
C4056 C4053 1.499 . S
C4056 C4057 1.373 1_545 S
C4056 C4058 1.389 . S
C4057 H4036 0.950 . S
C4057 C4056 1.373 1_565 S
C4057 C4073 1.377 . S
C4058 C4056 1.389 . S
C4058 C4059 1.524 . S
C4058 C4072 1.377 . S
C4059 C4058 1.524 . S
C4059 C4060 1.397 . S
C4059 C4064 1.363 . S
C4060 H4037 0.950 . S
C4060 C4059 1.397 . S
C4060 C4061 1.334 . S
C4061 H4038 0.950 . S
C4061 C4060 1.334 . S
C4061 C4062 1.287 . S
C4062 C4061 1.287 . S
C4062 C4063 1.524 . S
C4062 H4081 0.913 . S
C4063 H4039 0.950 . S
C4063 C4062 1.524 . S
C4063 C4064 1.415 . S
C4064 H4040 0.950 . S
C4064 C4059 1.363 . S
C4064 C4063 1.415 . S
C4065 H4041 1.008 . S
C4065 C4066 1.304 1_565 S
C4065 C4067 1.396 . S
C4066 C4065 1.304 1_545 S
C4066 C4070 1.385 . S
C4067 H4042 0.951 . S
C4067 C4065 1.396 . S
C4067 C4068 1.366 1_565 S
C4068 C4067 1.366 1_545 S
C4068 C4069 1.414 . S
C4068 C4071 1.499 . S
C4069 H4043 0.950 . S
C4069 C4068 1.414 . S
C4069 C4070 1.374 . S
C4070 H4044 0.950 . S
C4070 C4066 1.385 . S
C4070 C4069 1.374 . S
C4071 C4068 1.499 . S
C4071 C4072 1.373 . S
C4071 C4073 1.389 1_545 S
C4072 H4045 0.950 . S
C4072 C4058 1.377 . S
C4072 C4071 1.373 . S
C4073 C4057 1.377 . S
C4073 C4071 1.389 1_565 S
C4073 C4074 1.524 . S
C4074 C4073 1.524 . S
C4074 C4075 1.397 . S
C4074 C4079 1.363 . S
C4075 H4046 0.950 . S
C4075 C4074 1.397 . S
C4075 C4076 1.334 1_455 S
C4076 H4047 0.950 . S
C4076 C4075 1.334 1_655 S
C4076 C4077 1.287 . S
C4077 C4076 1.287 . S
C4077 C4078 1.524 1_655 S
C4077 H4080 0.999 . S
C4078 H4048 0.950 . S
C4078 C4077 1.524 1_455 S
C4078 C4079 1.415 . S
C4079 H4049 0.950 . S
C4079 C4074 1.363 . S
C4079 C4078 1.415 . S
H4080 C4077 0.999 . S
H4081 C4062 0.913 . S
H4082 C4100 0.951 . S
H4083 C4102 0.951 . S
H4084 C4104 0.950 . S
H4085 C4105 0.950 . S
H4086 C4107 0.950 . S
H4087 C4110 0.950 . S
H4088 C4111 0.950 . S
H4089 C4113 0.950 . S
H4090 C4114 0.950 . S
H4091 C4115 0.951 . S
H4092 C4117 0.951 . S
H4093 C4119 0.950 . S
H4094 C4120 0.950 . S
H4095 C4122 0.950 . S
H4096 C4125 0.950 . S
H4097 C4126 0.950 . S
H4098 C4128 0.950 . S
H4099 C4129 0.950 . S
C4100 H4082 0.951 . S
C4100 C4101 1.366 . S
C4100 C4102 1.388 . S
C4101 C4100 1.366 . S
C4101 C4105 1.385 . S
C4102 H4083 0.951 . S
C4102 C4100 1.388 . S
C4102 C4103 1.366 . S
C4103 C4102 1.366 . S
C4103 C4104 1.414 . S
C4103 C4106 1.499 . S
C4104 H4084 0.950 . S
C4104 C4103 1.414 . S
C4104 C4105 1.374 . S
C4105 H4085 0.950 . S
C4105 C4101 1.385 . S
C4105 C4104 1.374 . S
C4106 C4103 1.499 . S
C4106 C4107 1.373 . S
C4106 C4108 1.389 . S
C4107 H4086 0.950 . S
C4107 C4106 1.373 . S
C4107 C4123 1.377 . S
C4108 C4106 1.389 . S
C4108 C4109 1.524 . S
C4108 C4122 1.377 . S
C4109 C4108 1.524 . S
C4109 C4110 1.397 . S
C4109 C4114 1.363 . S
C4110 H4087 0.950 . S
C4110 C4109 1.397 . S
C4110 C4111 1.334 . S
C4111 H4088 0.950 . S
C4111 C4110 1.334 . S
C4111 C4112 1.287 . S
C4112 C4111 1.287 . S
C4112 C4113 1.524 . S
C4112 H4131 0.913 . S
C4113 H4089 0.950 . S
C4113 C4112 1.524 . S
C4113 C4114 1.415 . S
C4114 H4090 0.950 . S
C4114 C4109 1.363 . S
C4114 C4113 1.415 . S
C4115 H4091 0.951 . S
C4115 C4116 1.366 . S
C4115 C4117 1.388 . S
C4116 C4115 1.366 . S
C4116 C4120 1.385 . S
C4117 H4092 0.951 . S
C4117 C4115 1.388 . S
C4117 C4118 1.366 . S
C4118 C4117 1.366 . S
C4118 C4119 1.414 . S
C4118 C4121 1.499 . S
C4119 H4093 0.950 . S
C4119 C4118 1.414 . S
C4119 C4120 1.374 . S
C4120 H4094 0.950 . S
C4120 C4116 1.385 . S
C4120 C4119 1.374 . S
C4121 C4118 1.499 . S
C4121 C4122 1.373 . S
C4121 C4123 1.389 . S
C4122 H4095 0.950 . S
C4122 C4108 1.377 . S
C4122 C4121 1.373 . S
C4123 C4107 1.377 . S
C4123 C4121 1.389 . S
C4123 C4124 1.524 . S
C4124 C4123 1.524 . S
C4124 C4125 1.397 . S
C4124 C4129 1.363 . S
C4125 H4096 0.950 . S
C4125 C4124 1.397 . S
C4125 C4126 1.334 . S
C4126 H4097 0.950 . S
C4126 C4125 1.334 . S
C4126 C4127 1.287 . S
C4127 C4126 1.287 . S
C4127 C4128 1.524 . S
C4127 H4130 0.999 . S
C4128 H4098 0.950 . S
C4128 C4127 1.524 . S
C4128 C4129 1.415 . S
C4129 H4099 0.950 . S
C4129 C4124 1.363 . S
C4129 C4128 1.415 . S
H4130 C4127 0.999 . S
H4131 C4112 0.913 . S
H4132 C4150 0.951 . S
H4133 C4152 0.951 . S
H4134 C4154 0.950 . S
H4135 C4155 0.950 . S
H4136 C4157 0.950 . S
H4137 C4160 0.950 . S
H4138 C4161 0.950 . S
H4139 C4163 0.950 . S
H4140 C4164 0.950 . S
H4141 C4165 0.951 . S
H4142 C4167 0.951 . S
H4143 C4169 0.950 . S
H4144 C4170 0.950 . S
H4145 C4172 0.950 . S
H4146 C4175 0.950 . S
H4147 C4176 0.950 . S
H4148 C4178 0.950 . S
H4149 C4179 0.950 1_545 S
C4150 H4132 0.951 . S
C4150 C4151 1.366 . S
C4150 C4152 1.388 . S
C4151 C4150 1.366 . S
C4151 C4155 1.385 . S
C4152 H4133 0.951 . S
C4152 C4150 1.388 . S
C4152 C4153 1.366 . S
C4153 C4152 1.366 . S
C4153 C4154 1.414 . S
C4153 C4156 1.499 . S
C4154 H4134 0.950 . S
C4154 C4153 1.414 . S
C4154 C4155 1.374 . S
C4155 H4135 0.950 . S
C4155 C4151 1.385 . S
C4155 C4154 1.374 . S
C4156 C4153 1.499 . S
C4156 C4157 1.373 . S
C4156 C4158 1.389 . S
C4157 H4136 0.950 . S
C4157 C4156 1.373 . S
C4157 C4173 1.377 . S
C4158 C4156 1.389 . S
C4158 C4159 1.524 . S
C4158 C4172 1.377 . S
C4159 C4158 1.524 . S
C4159 C4160 1.397 . S
C4159 C4164 1.363 . S
C4160 H4137 0.950 . S
C4160 C4159 1.397 . S
C4160 C4161 1.334 . S
C4161 H4138 0.950 . S
C4161 C4160 1.334 . S
C4161 C4162 1.287 . S
C4162 C4161 1.287 . S
C4162 C4163 1.524 . S
C4162 H4181 0.913 . S
C4163 H4139 0.950 . S
C4163 C4162 1.524 . S
C4163 C4164 1.415 . S
C4164 H4140 0.950 . S
C4164 C4159 1.363 . S
C4164 C4163 1.415 . S
C4165 H4141 0.951 . S
C4165 C4166 1.366 . S
C4165 C4167 1.388 . S
C4166 C4165 1.366 . S
C4166 C4170 1.385 . S
C4167 H4142 0.951 . S
C4167 C4165 1.388 . S
C4167 C4168 1.366 . S
C4168 C4167 1.366 . S
C4168 C4169 1.414 . S
C4168 C4171 1.499 . S
C4169 H4143 0.950 . S
C4169 C4168 1.414 . S
C4169 C4170 1.374 . S
C4170 H4144 0.950 . S
C4170 C4166 1.385 . S
C4170 C4169 1.374 . S
C4171 C4168 1.499 . S
C4171 C4172 1.373 . S
C4171 C4173 1.389 . S
C4172 H4145 0.950 . S
C4172 C4158 1.377 . S
C4172 C4171 1.373 . S
C4173 C4157 1.377 . S
C4173 C4171 1.389 . S
C4173 C4174 1.524 . S
C4174 C4173 1.524 . S
C4174 C4175 1.397 1_545 S
C4174 C4179 1.363 1_545 S
C4175 H4146 0.950 . S
C4175 C4174 1.397 1_565 S
C4175 C4176 1.334 . S
C4176 H4147 0.950 . S
C4176 C4175 1.334 . S
C4176 C4177 1.287 . S
C4177 C4176 1.287 . S
C4177 C4178 1.524 . S
C4177 H4180 0.999 . S
C4178 H4148 0.950 . S
C4178 C4177 1.524 . S
C4178 C4179 1.415 . S
C4179 H4149 0.950 1_565 S
C4179 C4174 1.363 1_565 S
C4179 C4178 1.415 . S
H4180 C4177 0.999 . S
H4181 C4162 0.913 . S
H4182 C4200 0.951 . S
H4183 C4202 0.951 . S
H4184 C4204 0.950 . S
H4185 C4205 0.950 . S
H4186 C4207 0.950 . S
H4187 C4210 0.950 . S
H4188 C4211 0.950 . S
H4189 C4213 0.950 . S
H4190 C4214 0.950 . S
H4191 C4215 0.951 . S
H4192 C4217 0.951 . S
H4193 C4219 0.950 . S
H4194 C4220 0.950 . S
H4195 C4222 0.950 . S
H4196 C4225 0.950 . S
H4197 C4226 0.950 . S
H4198 C4228 0.950 . S
H4199 C4229 0.950 . S
C4200 H4182 0.951 . S
C4200 C4201 1.366 . S
C4200 C4202 1.388 . S
C4201 C4200 1.366 . S
C4201 C4205 1.385 . S
C4202 H4183 0.951 . S
C4202 C4200 1.388 . S
C4202 C4203 1.366 . S
C4203 C4202 1.366 . S
C4203 C4204 1.414 . S
C4203 C4206 1.499 . S
C4204 H4184 0.950 . S
C4204 C4203 1.414 . S
C4204 C4205 1.374 . S
C4205 H4185 0.950 . S
C4205 C4201 1.385 . S
C4205 C4204 1.374 . S
C4206 C4203 1.499 . S
C4206 C4207 1.373 . S
C4206 C4208 1.389 . S
C4207 H4186 0.950 . S
C4207 C4206 1.373 . S
C4207 C4223 1.377 . S
C4208 C4206 1.389 . S
C4208 C4209 1.524 . S
C4208 C4222 1.377 . S
C4209 C4208 1.524 . S
C4209 C4210 1.397 . S
C4209 C4214 1.363 . S
C4210 H4187 0.950 . S
C4210 C4209 1.397 . S
C4210 C4211 1.334 . S
C4211 H4188 0.950 . S
C4211 C4210 1.334 . S
C4211 C4212 1.287 . S
C4212 C4211 1.287 . S
C4212 C4213 1.524 . S
C4212 H4231 0.913 . S
C4213 H4189 0.950 . S
C4213 C4212 1.524 . S
C4213 C4214 1.415 . S
C4214 H4190 0.950 . S
C4214 C4209 1.363 . S
C4214 C4213 1.415 . S
C4215 H4191 0.951 . S
C4215 C4216 1.366 . S
C4215 C4217 1.388 . S
C4216 C4215 1.366 . S
C4216 C4220 1.385 . S
C4217 H4192 0.951 . S
C4217 C4215 1.388 . S
C4217 C4218 1.366 . S
C4218 C4217 1.366 . S
C4218 C4219 1.414 . S
C4218 C4221 1.499 . S
C4219 H4193 0.950 . S
C4219 C4218 1.414 . S
C4219 C4220 1.374 . S
C4220 H4194 0.950 . S
C4220 C4216 1.385 . S
C4220 C4219 1.374 . S
C4221 C4218 1.499 . S
C4221 C4222 1.373 . S
C4221 C4223 1.389 . S
C4222 H4195 0.950 . S
C4222 C4208 1.377 . S
C4222 C4221 1.373 . S
C4223 C4207 1.377 . S
C4223 C4221 1.389 . S
C4223 C4224 1.524 . S
C4224 C4223 1.524 . S
C4224 C4225 1.397 . S
C4224 C4229 1.363 . S
C4225 H4196 0.950 . S
C4225 C4224 1.397 . S
C4225 C4226 1.334 . S
C4226 H4197 0.950 . S
C4226 C4225 1.334 . S
C4226 C4227 1.287 . S
C4227 C4226 1.287 . S
C4227 C4228 1.524 . S
C4227 H4230 0.999 . S
C4228 H4198 0.950 . S
C4228 C4227 1.524 . S
C4228 C4229 1.415 . S
C4229 H4199 0.950 . S
C4229 C4224 1.363 . S
C4229 C4228 1.415 . S
H4230 C4227 0.999 . S
H4231 C4212 0.913 . S
H4232 C4250 0.978 . S
H4233 C4252 0.951 . S
H4234 C4254 0.950 . S
H4235 C4255 0.950 . S
H4236 C4257 0.950 . S
H4237 C4260 0.950 . S
H4238 C4261 0.950 . S
H4239 C4263 0.888 1_655 S
H4240 C4264 0.950 . S
H4241 C4265 0.951 . S
H4242 C4267 0.951 . S
H4243 C4269 0.950 . S
H4244 C4270 0.950 . S
H4245 C4272 0.950 . S
H4246 C4275 0.950 . S
H4247 C4276 0.950 . S
H4248 C4278 0.950 . S
H4249 C4279 0.950 . S
C4250 H4232 0.978 . S
C4250 C4251 1.317 1_545 S
C4250 C4252 1.414 . S
C4251 C4250 1.317 1_565 S
C4251 C4255 1.385 . S
C4252 H4233 0.951 . S
C4252 C4250 1.414 . S
C4252 C4253 1.366 1_545 S
C4253 C4252 1.366 1_565 S
C4253 C4254 1.414 . S
C4253 C4256 1.499 1_565 S
C4254 H4234 0.950 . S
C4254 C4253 1.414 . S
C4254 C4255 1.374 . S
C4255 H4235 0.950 . S
C4255 C4251 1.385 . S
C4255 C4254 1.374 . S
C4256 C4253 1.499 1_545 S
C4256 C4257 1.373 . S
C4256 C4258 1.382 . S
C4257 H4236 0.950 . S
C4257 C4256 1.373 . S
C4257 C4273 1.377 . S
C4258 C4256 1.382 . S
C4258 C4259 1.501 1_545 S
C4258 C4272 1.410 . S
C4259 C4258 1.501 1_565 S
C4259 C4260 1.397 . S
C4259 C4264 1.363 1_565 S
C4260 H4237 0.950 . S
C4260 C4259 1.397 . S
C4260 C4261 1.334 . S
C4261 H4238 0.950 . S
C4261 C4260 1.334 . S
C4261 C4262 1.287 . S
C4262 C4261 1.287 . S
C4262 C4263 1.547 . S
C4262 H4281 0.913 1_455 S
C4263 H4239 0.888 1_455 S
C4263 C4262 1.547 . S
C4263 C4264 1.465 1_565 S
C4264 H4240 0.950 . S
C4264 C4259 1.363 1_545 S
C4264 C4263 1.465 1_545 S
C4265 H4241 0.951 . S
C4265 C4266 1.366 . S
C4265 C4267 1.388 . S
C4266 C4265 1.366 . S
C4266 C4270 1.385 . S
C4267 H4242 0.951 . S
C4267 C4265 1.388 . S
C4267 C4268 1.366 . S
C4268 C4267 1.366 . S
C4268 C4269 1.414 . S
C4268 C4271 1.499 . S
C4269 H4243 0.950 . S
C4269 C4268 1.414 . S
C4269 C4270 1.374 . S
C4270 H4244 0.950 . S
C4270 C4266 1.385 . S
C4270 C4269 1.374 . S
C4271 C4268 1.499 . S
C4271 C4272 1.373 . S
C4271 C4273 1.389 . S
C4272 H4245 0.950 . S
C4272 C4258 1.410 . S
C4272 C4271 1.373 . S
C4273 C4257 1.377 . S
C4273 C4271 1.389 . S
C4273 C4274 1.524 . S
C4274 C4273 1.524 . S
C4274 C4275 1.397 . S
C4274 C4279 1.363 . S
C4275 H4246 0.950 . S
C4275 C4274 1.397 . S
C4275 C4276 1.334 . S
C4276 H4247 0.950 . S
C4276 C4275 1.334 . S
C4276 C4277 1.287 . S
C4277 C4276 1.287 . S
C4277 C4278 1.524 . S
C4277 H4280 0.999 . S
C4278 H4248 0.950 . S
C4278 C4277 1.524 . S
C4278 C4279 1.415 . S
C4279 H4249 0.950 . S
C4279 C4274 1.363 . S
C4279 C4278 1.415 . S
H4280 C4277 0.999 . S
H4281 C4262 0.913 1_655 S
H4282 C4300 0.951 . S
H4283 C4302 0.951 . S
H4284 C4304 0.950 . S
H4285 C4305 0.950 . S
H4286 C4307 0.950 . S
H4287 C4310 0.950 . S
H4288 C4311 0.950 . S
H4289 C4313 0.950 . S
H4290 C4314 0.950 . S
H4291 C4315 0.951 . S
H4292 C4317 0.951 . S
H4293 C4319 0.950 . S
H4294 C4320 0.950 . S
H4295 C4322 0.950 . S
H4296 C4325 0.950 . S
H4297 C4326 0.950 . S
H4298 C4328 0.950 . S
H4299 C4329 0.950 . S
C4300 H4282 0.951 . S
C4300 C4301 1.366 . S
C4300 C4302 1.388 . S
C4301 C4300 1.366 . S
C4301 C4305 1.385 . S
C4302 H4283 0.951 . S
C4302 C4300 1.388 . S
C4302 C4303 1.366 . S
C4303 C4302 1.366 . S
C4303 C4304 1.414 . S
C4303 C4306 1.499 . S
C4304 H4284 0.950 . S
C4304 C4303 1.414 . S
C4304 C4305 1.374 . S
C4305 H4285 0.950 . S
C4305 C4301 1.385 . S
C4305 C4304 1.374 . S
C4306 C4303 1.499 . S
C4306 C4307 1.373 . S
C4306 C4308 1.389 . S
C4307 H4286 0.950 . S
C4307 C4306 1.373 . S
C4307 C4323 1.377 . S
C4308 C4306 1.389 . S
C4308 C4309 1.524 . S
C4308 C4322 1.377 . S
C4309 C4308 1.524 . S
C4309 C4310 1.397 . S
C4309 C4314 1.363 . S
C4310 H4287 0.950 . S
C4310 C4309 1.397 . S
C4310 C4311 1.334 . S
C4311 H4288 0.950 . S
C4311 C4310 1.334 . S
C4311 C4312 1.287 . S
C4312 C4311 1.287 . S
C4312 C4313 1.524 . S
C4312 H4331 0.913 . S
C4313 H4289 0.950 . S
C4313 C4312 1.524 . S
C4313 C4314 1.415 . S
C4314 H4290 0.950 . S
C4314 C4309 1.363 . S
C4314 C4313 1.415 . S
C4315 H4291 0.951 . S
C4315 C4316 1.366 . S
C4315 C4317 1.388 . S
C4316 C4315 1.366 . S
C4316 C4320 1.385 . S
C4317 H4292 0.951 . S
C4317 C4315 1.388 . S
C4317 C4318 1.366 . S
C4318 C4317 1.366 . S
C4318 C4319 1.414 . S
C4318 C4321 1.499 . S
C4319 H4293 0.950 . S
C4319 C4318 1.414 . S
C4319 C4320 1.374 . S
C4320 H4294 0.950 . S
C4320 C4316 1.385 . S
C4320 C4319 1.374 . S
C4321 C4318 1.499 . S
C4321 C4322 1.373 . S
C4321 C4323 1.389 . S
C4322 H4295 0.950 . S
C4322 C4308 1.377 . S
C4322 C4321 1.373 . S
C4323 C4307 1.377 . S
C4323 C4321 1.389 . S
C4323 C4324 1.524 . S
C4324 C4323 1.524 . S
C4324 C4325 1.397 . S
C4324 C4329 1.363 . S
C4325 H4296 0.950 . S
C4325 C4324 1.397 . S
C4325 C4326 1.334 . S
C4326 H4297 0.950 . S
C4326 C4325 1.334 . S
C4326 C4327 1.287 . S
C4327 C4326 1.287 . S
C4327 C4328 1.524 . S
C4327 H4330 0.999 . S
C4328 H4298 0.950 . S
C4328 C4327 1.524 . S
C4328 C4329 1.415 . S
C4329 H4299 0.950 . S
C4329 C4324 1.363 . S
C4329 C4328 1.415 . S
H4330 C4327 0.999 . S
H4331 C4312 0.913 . S
H4332 C4350 0.951 . S
H4333 C4352 0.951 . S
H4334 C4354 0.950 . S
H4335 C4355 0.950 . S
H4336 C4357 0.950 . S
H4337 C4360 0.950 . S
H4338 C4361 0.950 . S
H4339 C4363 0.950 . S
H4340 C4364 0.950 . S
H4341 C4365 0.951 . S
H4342 C4367 0.951 . S
H4343 C4369 0.933 1_565 S
H4344 C4370 0.950 . S
H4345 C4372 0.950 . S
H4346 C4375 0.950 . S
H4347 C4376 0.950 . S
H4348 C4378 0.950 . S
H4349 C4379 0.950 . S
C4350 H4332 0.951 . S
C4350 C4351 1.366 . S
C4350 C4352 1.388 . S
C4351 C4350 1.366 . S
C4351 C4355 1.385 . S
C4352 H4333 0.951 . S
C4352 C4350 1.388 . S
C4352 C4353 1.366 . S
C4353 C4352 1.366 . S
C4353 C4354 1.414 . S
C4353 C4356 1.499 . S
C4354 H4334 0.950 . S
C4354 C4353 1.414 . S
C4354 C4355 1.374 . S
C4355 H4335 0.950 . S
C4355 C4351 1.385 . S
C4355 C4354 1.374 . S
C4356 C4353 1.499 . S
C4356 C4357 1.373 . S
C4356 C4358 1.389 . S
C4357 H4336 0.950 . S
C4357 C4356 1.373 . S
C4357 C4373 1.377 . S
C4358 C4356 1.389 . S
C4358 C4359 1.524 . S
C4358 C4372 1.377 . S
C4359 C4358 1.524 . S
C4359 C4360 1.397 . S
C4359 C4364 1.363 . S
C4360 H4337 0.950 . S
C4360 C4359 1.397 . S
C4360 C4361 1.334 . S
C4361 H4338 0.950 . S
C4361 C4360 1.334 . S
C4361 C4362 1.287 . S
C4362 C4361 1.287 . S
C4362 C4363 1.524 . S
C4362 H4381 0.913 . S
C4363 H4339 0.950 . S
C4363 C4362 1.524 . S
C4363 C4364 1.415 . S
C4364 H4340 0.950 . S
C4364 C4359 1.363 . S
C4364 C4363 1.415 . S
C4365 H4341 0.951 . S
C4365 C4366 1.366 . S
C4365 C4367 1.388 . S
C4366 C4365 1.366 . S
C4366 C4370 1.385 1_545 S
C4367 H4342 0.951 . S
C4367 C4365 1.388 . S
C4367 C4368 1.366 . S
C4368 C4367 1.366 . S
C4368 C4369 1.434 . S
C4368 C4371 1.499 . S
C4369 H4343 0.933 1_545 S
C4369 C4368 1.434 . S
C4369 C4370 1.371 1_545 S
C4370 H4344 0.950 . S
C4370 C4366 1.385 1_565 S
C4370 C4369 1.371 1_565 S
C4371 C4368 1.499 . S
C4371 C4372 1.373 . S
C4371 C4373 1.389 . S
C4372 H4345 0.950 . S
C4372 C4358 1.377 . S
C4372 C4371 1.373 . S
C4373 C4357 1.377 . S
C4373 C4371 1.389 . S
C4373 C4374 1.524 . S
C4374 C4373 1.524 . S
C4374 C4375 1.397 1_545 S
C4374 C4379 1.363 . S
C4375 H4346 0.950 . S
C4375 C4374 1.397 1_565 S
C4375 C4376 1.334 . S
C4376 H4347 0.950 . S
C4376 C4375 1.334 . S
C4376 C4377 1.287 1_565 S
C4377 C4376 1.287 1_545 S
C4377 C4378 1.524 . S
C4377 H4380 0.999 . S
C4378 H4348 0.950 . S
C4378 C4377 1.524 . S
C4378 C4379 1.415 . S
C4379 H4349 0.950 . S
C4379 C4374 1.363 . S
C4379 C4378 1.415 . S
H4380 C4377 0.999 . S
H4381 C4362 0.913 . S
H4382 C4400 0.951 . S
H4383 C4402 0.951 . S
H4384 C4404 0.950 . S
H4385 C4405 0.950 . S
H4386 C4407 0.950 . S
H4387 C4410 0.950 . S
H4388 C4411 0.950 . S
H4389 C4413 0.950 . S
H4390 C4414 0.950 . S
H4391 C4415 0.951 . S
H4392 C4417 0.951 . S
H4393 C4419 0.950 . S
H4394 C4420 0.950 . S
H4395 C4422 0.950 . S
H4396 C4425 0.950 . S
H4397 C4426 0.950 . S
H4398 C4428 0.950 . S
H4399 C4429 0.950 . S
C4400 H4382 0.951 . S
C4400 C4401 1.366 . S
C4400 C4402 1.388 . S
C4401 C4400 1.366 . S
C4401 C4405 1.385 . S
C4402 H4383 0.951 . S
C4402 C4400 1.388 . S
C4402 C4403 1.366 . S
C4403 C4402 1.366 . S
C4403 C4404 1.414 . S
C4403 C4406 1.499 . S
C4404 H4384 0.950 . S
C4404 C4403 1.414 . S
C4404 C4405 1.374 . S
C4405 H4385 0.950 . S
C4405 C4401 1.385 . S
C4405 C4404 1.374 . S
C4406 C4403 1.499 . S
C4406 C4407 1.373 . S
C4406 C4408 1.389 . S
C4407 H4386 0.950 . S
C4407 C4406 1.373 . S
C4407 C4423 1.377 . S
C4408 C4406 1.389 . S
C4408 C4409 1.524 . S
C4408 C4422 1.377 . S
C4409 C4408 1.524 . S
C4409 C4410 1.397 . S
C4409 C4414 1.363 . S
C4410 H4387 0.950 . S
C4410 C4409 1.397 . S
C4410 C4411 1.334 . S
C4411 H4388 0.950 . S
C4411 C4410 1.334 . S
C4411 C4412 1.287 . S
C4412 C4411 1.287 . S
C4412 C4413 1.524 . S
C4412 H4431 0.913 . S
C4413 H4389 0.950 . S
C4413 C4412 1.524 . S
C4413 C4414 1.415 . S
C4414 H4390 0.950 . S
C4414 C4409 1.363 . S
C4414 C4413 1.415 . S
C4415 H4391 0.951 . S
C4415 C4416 1.366 . S
C4415 C4417 1.388 . S
C4416 C4415 1.366 . S
C4416 C4420 1.385 . S
C4417 H4392 0.951 . S
C4417 C4415 1.388 . S
C4417 C4418 1.366 . S
C4418 C4417 1.366 . S
C4418 C4419 1.414 . S
C4418 C4421 1.499 . S
C4419 H4393 0.950 . S
C4419 C4418 1.414 . S
C4419 C4420 1.374 . S
C4420 H4394 0.950 . S
C4420 C4416 1.385 . S
C4420 C4419 1.374 . S
C4421 C4418 1.499 . S
C4421 C4422 1.373 . S
C4421 C4423 1.389 . S
C4422 H4395 0.950 . S
C4422 C4408 1.377 . S
C4422 C4421 1.373 . S
C4423 C4407 1.377 . S
C4423 C4421 1.389 . S
C4423 C4424 1.524 . S
C4424 C4423 1.524 . S
C4424 C4425 1.397 . S
C4424 C4429 1.363 . S
C4425 H4396 0.950 . S
C4425 C4424 1.397 . S
C4425 C4426 1.334 . S
C4426 H4397 0.950 . S
C4426 C4425 1.334 . S
C4426 C4427 1.287 . S
C4427 C4426 1.287 . S
C4427 C4428 1.524 . S
C4427 H4430 0.999 . S
C4428 H4398 0.950 . S
C4428 C4427 1.524 . S
C4428 C4429 1.415 . S
C4429 H4399 0.950 . S
C4429 C4424 1.363 . S
C4429 C4428 1.415 . S
H4430 C4427 0.999 . S
H4431 C4412 0.913 . S
H4432 C4450 0.951 . S
H4433 C4452 0.951 . S
H4434 C4454 0.950 . S
H4435 C4455 0.950 . S
H4436 C4457 0.950 . S
H4437 C4460 0.950 . S
H4438 C4461 0.950 . S
H4439 C4463 0.950 . S
H4440 C4464 0.950 . S
H4441 C4465 0.951 . S
H4442 C4467 0.962 . S
H4443 C4469 0.950 . S
H4444 C4470 0.950 . S
H4445 C4472 0.950 . S
H4446 C4475 0.950 . S
H4447 C4476 0.950 . S
H4448 C4478 0.950 . S
H4449 C4479 0.950 . S
C4450 H4432 0.951 . S
C4450 C4451 1.366 . S
C4450 C4452 1.388 . S
C4451 C4450 1.366 . S
C4451 C4455 1.385 1_556 S
C4452 H4433 0.951 . S
C4452 C4450 1.388 . S
C4452 C4453 1.375 . S
C4453 C4452 1.375 . S
C4453 C4454 1.408 1_556 S
C4453 C4456 1.499 . S
C4454 H4434 0.950 . S
C4454 C4453 1.408 1_554 S
C4454 C4455 1.374 . S
C4455 H4435 0.950 . S
C4455 C4451 1.385 1_554 S
C4455 C4454 1.374 . S
C4456 C4453 1.499 . S
C4456 C4457 1.405 . S
C4456 C4458 1.364 1_556 S
C4457 H4436 0.950 . S
C4457 C4456 1.405 . S
C4457 C4473 1.377 . S
C4458 C4456 1.364 1_554 S
C4458 C4459 1.524 . S
C4458 C4472 1.377 . S
C4459 C4458 1.524 . S
C4459 C4460 1.397 . S
C4459 C4464 1.363 . S
C4460 H4437 0.950 . S
C4460 C4459 1.397 . S
C4460 C4461 1.334 . S
C4461 H4438 0.950 . S
C4461 C4460 1.334 . S
C4461 C4462 1.287 . S
C4462 C4461 1.287 . S
C4462 C4463 1.524 . S
C4462 H4481 0.913 . S
C4463 H4439 0.950 . S
C4463 C4462 1.524 . S
C4463 C4464 1.415 . S
C4464 H4440 0.950 . S
C4464 C4459 1.363 . S
C4464 C4463 1.415 . S
C4465 H4441 0.951 . S
C4465 C4466 1.366 1_554 S
C4465 C4467 1.389 . S
C4466 C4465 1.366 1_556 S
C4466 C4470 1.385 . S
C4467 H4442 0.962 . S
C4467 C4465 1.389 . S
C4467 C4468 1.357 1_554 S
C4468 C4467 1.357 1_556 S
C4468 C4469 1.414 . S
C4468 C4471 1.499 . S
C4469 H4443 0.950 . S
C4469 C4468 1.414 . S
C4469 C4470 1.374 . S
C4470 H4444 0.950 . S
C4470 C4466 1.385 . S
C4470 C4469 1.374 . S
C4471 C4468 1.499 . S
C4471 C4472 1.373 1_556 S
C4471 C4473 1.389 . S
C4472 H4445 0.950 . S
C4472 C4458 1.377 . S
C4472 C4471 1.373 1_554 S
C4473 C4457 1.377 . S
C4473 C4471 1.389 . S
C4473 C4474 1.524 . S
C4474 C4473 1.524 . S
C4474 C4475 1.397 . S
C4474 C4479 1.363 . S
C4475 H4446 0.950 . S
C4475 C4474 1.397 . S
C4475 C4476 1.334 . S
C4476 H4447 0.950 . S
C4476 C4475 1.334 . S
C4476 C4477 1.287 . S
C4477 C4476 1.287 . S
C4477 C4478 1.524 . S
C4477 H4480 0.999 . S
C4478 H4448 0.950 . S
C4478 C4477 1.524 . S
C4478 C4479 1.415 . S
C4479 H4449 0.950 . S
C4479 C4474 1.363 . S
C4479 C4478 1.415 . S
H4480 C4477 0.999 . S
H4481 C4462 0.913 . S
H4482 C4500 0.951 . S
H4483 C4502 0.951 . S
H4484 C4504 0.950 . S
H4485 C4505 0.950 . S
H4486 C4507 0.950 . S
H4487 C4510 0.950 . S
H4488 C4511 0.950 . S
H4489 C4513 0.950 . S
H4490 C4514 0.950 . S
H4491 C4515 0.951 . S
H4492 C4517 0.951 . S
H4493 C4519 0.950 . S
H4494 C4520 0.950 . S
H4495 C4522 0.950 . S
H4496 C4525 0.950 . S
H4497 C4526 0.950 . S
H4498 C4528 0.950 . S
H4499 C4529 0.950 1_554 S
C4500 H4482 0.951 . S
C4500 C4501 1.366 . S
C4500 C4502 1.388 . S
C4501 C4500 1.366 . S
C4501 C4505 1.385 . S
C4502 H4483 0.951 . S
C4502 C4500 1.388 . S
C4502 C4503 1.366 . S
C4503 C4502 1.366 . S
C4503 C4504 1.414 . S
C4503 C4506 1.499 . S
C4504 H4484 0.950 . S
C4504 C4503 1.414 . S
C4504 C4505 1.374 . S
C4505 H4485 0.950 . S
C4505 C4501 1.385 . S
C4505 C4504 1.374 . S
C4506 C4503 1.499 . S
C4506 C4507 1.373 . S
C4506 C4508 1.389 . S
C4507 H4486 0.950 . S
C4507 C4506 1.373 . S
C4507 C4523 1.377 . S
C4508 C4506 1.389 . S
C4508 C4509 1.524 . S
C4508 C4522 1.377 . S
C4509 C4508 1.524 . S
C4509 C4510 1.397 . S
C4509 C4514 1.363 . S
C4510 H4487 0.950 . S
C4510 C4509 1.397 . S
C4510 C4511 1.334 . S
C4511 H4488 0.950 . S
C4511 C4510 1.334 . S
C4511 C4512 1.287 . S
C4512 C4511 1.287 . S
C4512 C4513 1.524 . S
C4512 H4531 0.913 . S
C4513 H4489 0.950 . S
C4513 C4512 1.524 . S
C4513 C4514 1.415 . S
C4514 H4490 0.950 . S
C4514 C4509 1.363 . S
C4514 C4513 1.415 . S
C4515 H4491 0.951 . S
C4515 C4516 1.366 . S
C4515 C4517 1.388 . S
C4516 C4515 1.366 . S
C4516 C4520 1.385 . S
C4517 H4492 0.951 . S
C4517 C4515 1.388 . S
C4517 C4518 1.366 . S
C4518 C4517 1.366 . S
C4518 C4519 1.414 . S
C4518 C4521 1.499 . S
C4519 H4493 0.950 . S
C4519 C4518 1.414 . S
C4519 C4520 1.374 . S
C4520 H4494 0.950 . S
C4520 C4516 1.385 . S
C4520 C4519 1.374 . S
C4521 C4518 1.499 . S
C4521 C4522 1.373 . S
C4521 C4523 1.389 . S
C4522 H4495 0.950 . S
C4522 C4508 1.377 . S
C4522 C4521 1.373 . S
C4523 C4507 1.377 . S
C4523 C4521 1.389 . S
C4523 C4524 1.524 1_554 S
C4524 C4523 1.524 1_556 S
C4524 C4525 1.397 . S
C4524 C4529 1.363 . S
C4525 H4496 0.950 . S
C4525 C4524 1.397 . S
C4525 C4526 1.334 . S
C4526 H4497 0.950 . S
C4526 C4525 1.334 . S
C4526 C4527 1.287 . S
C4527 C4526 1.287 . S
C4527 C4528 1.524 . S
C4527 H4530 0.999 . S
C4528 H4498 0.950 . S
C4528 C4527 1.524 . S
C4528 C4529 1.415 . S
C4529 H4499 0.950 1_556 S
C4529 C4524 1.363 . S
C4529 C4528 1.415 . S
H4530 C4527 0.999 . S
H4531 C4512 0.913 . S
H4532 C4550 0.951 . S
H4533 C4552 0.951 . S
H4534 C4554 0.950 . S
H4535 C4555 0.950 . S
H4536 C4557 0.950 . S
H4537 C4560 0.950 . S
H4538 C4561 0.950 . S
H4539 C4563 0.950 . S
H4540 C4564 0.950 . S
H4541 C4565 0.951 . S
H4542 C4567 0.951 . S
H4543 C4569 0.950 . S
H4544 C4570 0.950 . S
H4545 C4572 0.950 . S
H4546 C4575 0.950 . S
H4547 C4576 0.950 . S
H4548 C4578 0.950 . S
H4549 C4579 0.950 . S
C4550 H4532 0.951 . S
C4550 C4551 1.366 . S
C4550 C4552 1.388 . S
C4551 C4550 1.366 . S
C4551 C4555 1.385 . S
C4552 H4533 0.951 . S
C4552 C4550 1.388 . S
C4552 C4553 1.366 . S
C4553 C4552 1.366 . S
C4553 C4554 1.414 . S
C4553 C4556 1.499 . S
C4554 H4534 0.950 . S
C4554 C4553 1.414 . S
C4554 C4555 1.374 . S
C4555 H4535 0.950 . S
C4555 C4551 1.385 . S
C4555 C4554 1.374 . S
C4556 C4553 1.499 . S
C4556 C4557 1.373 . S
C4556 C4558 1.389 . S
C4557 H4536 0.950 . S
C4557 C4556 1.373 . S
C4557 C4573 1.377 . S
C4558 C4556 1.389 . S
C4558 C4559 1.524 . S
C4558 C4572 1.377 . S
C4559 C4558 1.524 . S
C4559 C4560 1.397 . S
C4559 C4564 1.363 . S
C4560 H4537 0.950 . S
C4560 C4559 1.397 . S
C4560 C4561 1.334 . S
C4561 H4538 0.950 . S
C4561 C4560 1.334 . S
C4561 C4562 1.287 . S
C4562 C4561 1.287 . S
C4562 C4563 1.524 . S
C4562 H4581 0.913 . S
C4563 H4539 0.950 . S
C4563 C4562 1.524 . S
C4563 C4564 1.415 . S
C4564 H4540 0.950 . S
C4564 C4559 1.363 . S
C4564 C4563 1.415 . S
C4565 H4541 0.951 . S
C4565 C4566 1.366 . S
C4565 C4567 1.388 . S
C4566 C4565 1.366 . S
C4566 C4570 1.385 . S
C4567 H4542 0.951 . S
C4567 C4565 1.388 . S
C4567 C4568 1.366 . S
C4568 C4567 1.366 . S
C4568 C4569 1.414 . S
C4568 C4571 1.499 . S
C4569 H4543 0.950 . S
C4569 C4568 1.414 . S
C4569 C4570 1.374 . S
C4570 H4544 0.950 . S
C4570 C4566 1.385 . S
C4570 C4569 1.374 . S
C4571 C4568 1.499 . S
C4571 C4572 1.373 . S
C4571 C4573 1.389 . S
C4572 H4545 0.950 . S
C4572 C4558 1.377 . S
C4572 C4571 1.373 . S
C4573 C4557 1.377 . S
C4573 C4571 1.389 . S
C4573 C4574 1.524 . S
C4574 C4573 1.524 . S
C4574 C4575 1.397 . S
C4574 C4579 1.363 . S
C4575 H4546 0.950 . S
C4575 C4574 1.397 . S
C4575 C4576 1.334 . S
C4576 H4547 0.950 . S
C4576 C4575 1.334 . S
C4576 C4577 1.287 . S
C4577 C4576 1.287 . S
C4577 C4578 1.524 . S
C4577 H4580 0.999 . S
C4578 H4548 0.950 . S
C4578 C4577 1.524 . S
C4578 C4579 1.415 . S
C4579 H4549 0.950 . S
C4579 C4574 1.363 . S
C4579 C4578 1.415 . S
H4580 C4577 0.999 . S
H4581 C4562 0.913 . S
H4582 C4600 0.951 . S
H4583 C4602 0.951 . S
H4584 C4604 0.950 . S
H4585 C4605 0.950 . S
H4586 C4607 0.950 . S
H4587 C4610 0.950 . S
H4588 C4611 0.950 . S
H4589 C4613 0.950 . S
H4590 C4614 0.950 . S
H4591 C4615 0.951 . S
H4592 C4617 0.951 . S
H4593 C4619 0.950 . S
H4594 C4620 0.950 . S
H4595 C4622 0.950 . S
H4596 C4625 0.950 . S
H4597 C4626 0.950 . S
H4598 C4628 0.950 . S
H4599 C4629 0.950 . S
C4600 H4582 0.951 . S
C4600 C4601 1.366 . S
C4600 C4602 1.388 . S
C4601 C4600 1.366 . S
C4601 C4605 1.385 . S
C4602 H4583 0.951 . S
C4602 C4600 1.388 . S
C4602 C4603 1.366 . S
C4603 C4602 1.366 . S
C4603 C4604 1.414 . S
C4603 C4606 1.499 . S
C4604 H4584 0.950 . S
C4604 C4603 1.414 . S
C4604 C4605 1.374 . S
C4605 H4585 0.950 . S
C4605 C4601 1.385 . S
C4605 C4604 1.374 . S
C4606 C4603 1.499 . S
C4606 C4607 1.373 . S
C4606 C4608 1.389 . S
C4607 H4586 0.950 . S
C4607 C4606 1.373 . S
C4607 C4623 1.377 . S
C4608 C4606 1.389 . S
C4608 C4609 1.524 . S
C4608 C4622 1.377 . S
C4609 C4608 1.524 . S
C4609 C4610 1.397 . S
C4609 C4614 1.363 . S
C4610 H4587 0.950 . S
C4610 C4609 1.397 . S
C4610 C4611 1.334 . S
C4611 H4588 0.950 . S
C4611 C4610 1.334 . S
C4611 C4612 1.287 . S
C4612 C4611 1.287 . S
C4612 C4613 1.524 . S
C4612 H4631 0.913 . S
C4613 H4589 0.950 . S
C4613 C4612 1.524 . S
C4613 C4614 1.415 . S
C4614 H4590 0.950 . S
C4614 C4609 1.363 . S
C4614 C4613 1.415 . S
C4615 H4591 0.951 . S
C4615 C4616 1.366 . S
C4615 C4617 1.388 . S
C4616 C4615 1.366 . S
C4616 C4620 1.385 . S
C4617 H4592 0.951 . S
C4617 C4615 1.388 . S
C4617 C4618 1.366 . S
C4618 C4617 1.366 . S
C4618 C4619 1.414 . S
C4618 C4621 1.499 . S
C4619 H4593 0.950 . S
C4619 C4618 1.414 . S
C4619 C4620 1.374 . S
C4620 H4594 0.950 . S
C4620 C4616 1.385 . S
C4620 C4619 1.374 . S
C4621 C4618 1.499 . S
C4621 C4622 1.373 . S
C4621 C4623 1.389 . S
C4622 H4595 0.950 . S
C4622 C4608 1.377 . S
C4622 C4621 1.373 . S
C4623 C4607 1.377 . S
C4623 C4621 1.389 . S
C4623 C4624 1.524 . S
C4624 C4623 1.524 . S
C4624 C4625 1.397 . S
C4624 C4629 1.363 . S
C4625 H4596 0.950 . S
C4625 C4624 1.397 . S
C4625 C4626 1.334 . S
C4626 H4597 0.950 . S
C4626 C4625 1.334 . S
C4626 C4627 1.287 . S
C4627 C4626 1.287 . S
C4627 C4628 1.524 . S
C4627 H4630 0.999 . S
C4628 H4598 0.950 . S
C4628 C4627 1.524 . S
C4628 C4629 1.415 . S
C4629 H4599 0.950 . S
C4629 C4624 1.363 . S
C4629 C4628 1.415 . S
H4630 C4627 0.999 . S
H4631 C4612 0.913 . S
H4632 C4650 0.951 . S
H4633 C4652 0.951 . S
H4634 C4654 0.950 . S
H4635 C4655 0.950 . S
H4636 C4657 0.950 . S
H4637 C4660 0.950 . S
H4638 C4661 0.950 . S
H4639 C4663 0.950 . S
H4640 C4664 0.950 . S
H4641 C4665 0.951 . S
H4642 C4667 0.951 . S
H4643 C4669 0.950 . S
H4644 C4670 0.950 . S
H4645 C4672 0.950 . S
H4646 C4675 0.950 . S
H4647 C4676 0.950 . S
H4648 C4678 0.950 . S
H4649 C4679 0.950 . S
C4650 H4632 0.951 . S
C4650 C4651 1.366 . S
C4650 C4652 1.388 . S
C4651 C4650 1.366 . S
C4651 C4655 1.385 . S
C4652 H4633 0.951 . S
C4652 C4650 1.388 . S
C4652 C4653 1.366 . S
C4653 C4652 1.366 . S
C4653 C4654 1.414 . S
C4653 C4656 1.499 . S
C4654 H4634 0.950 . S
C4654 C4653 1.414 . S
C4654 C4655 1.374 . S
C4655 H4635 0.950 . S
C4655 C4651 1.385 . S
C4655 C4654 1.374 . S
C4656 C4653 1.499 . S
C4656 C4657 1.373 . S
C4656 C4658 1.389 . S
C4657 H4636 0.950 . S
C4657 C4656 1.373 . S
C4657 C4673 1.377 . S
C4658 C4656 1.389 . S
C4658 C4659 1.524 . S
C4658 C4672 1.377 . S
C4659 C4658 1.524 . S
C4659 C4660 1.397 . S
C4659 C4664 1.363 . S
C4660 H4637 0.950 . S
C4660 C4659 1.397 . S
C4660 C4661 1.334 . S
C4661 H4638 0.950 . S
C4661 C4660 1.334 . S
C4661 C4662 1.287 . S
C4662 C4661 1.287 . S
C4662 C4663 1.524 . S
C4662 H4681 0.913 . S
C4663 H4639 0.950 . S
C4663 C4662 1.524 . S
C4663 C4664 1.415 . S
C4664 H4640 0.950 . S
C4664 C4659 1.363 . S
C4664 C4663 1.415 . S
C4665 H4641 0.951 . S
C4665 C4666 1.366 . S
C4665 C4667 1.388 . S
C4666 C4665 1.366 . S
C4666 C4670 1.385 . S
C4667 H4642 0.951 . S
C4667 C4665 1.388 . S
C4667 C4668 1.366 . S
C4668 C4667 1.366 . S
C4668 C4669 1.414 . S
C4668 C4671 1.499 . S
C4669 H4643 0.950 . S
C4669 C4668 1.414 . S
C4669 C4670 1.374 . S
C4670 H4644 0.950 . S
C4670 C4666 1.385 . S
C4670 C4669 1.374 . S
C4671 C4668 1.499 . S
C4671 C4672 1.373 . S
C4671 C4673 1.389 . S
C4672 H4645 0.950 . S
C4672 C4658 1.377 . S
C4672 C4671 1.373 . S
C4673 C4657 1.377 . S
C4673 C4671 1.389 . S
C4673 C4674 1.524 . S
C4674 C4673 1.524 . S
C4674 C4675 1.397 . S
C4674 C4679 1.363 . S
C4675 H4646 0.950 . S
C4675 C4674 1.397 . S
C4675 C4676 1.334 . S
C4676 H4647 0.950 . S
C4676 C4675 1.334 . S
C4676 C4677 1.287 . S
C4677 C4676 1.287 . S
C4677 C4678 1.524 . S
C4677 H4680 0.999 . S
C4678 H4648 0.950 . S
C4678 C4677 1.524 . S
C4678 C4679 1.415 . S
C4679 H4649 0.950 . S
C4679 C4674 1.363 . S
C4679 C4678 1.415 . S
H4680 C4677 0.999 . S
H4681 C4662 0.913 . S
H4682 C4700 0.951 . S
H4683 C4702 0.951 . S
H4684 C4704 0.950 . S
H4685 C4705 0.950 . S
H4686 C4707 0.950 . S
H4687 C4710 0.950 . S
H4688 C4711 0.950 . S
H4689 C4713 0.950 . S
H4690 C4714 0.950 . S
H4691 C4715 0.951 . S
H4692 C4717 0.951 . S
H4693 C4719 0.950 . S
H4694 C4720 0.950 . S
H4695 C4722 0.950 . S
H4696 C4725 0.950 . S
H4697 C4726 0.950 . S
H4698 C4728 0.950 . S
H4699 C4729 0.950 . S
C4700 H4682 0.951 . S
C4700 C4701 1.366 . S
C4700 C4702 1.388 . S
C4701 C4700 1.366 . S
C4701 C4705 1.385 . S
C4702 H4683 0.951 . S
C4702 C4700 1.388 . S
C4702 C4703 1.366 . S
C4703 C4702 1.366 . S
C4703 C4704 1.414 . S
C4703 C4706 1.499 . S
C4704 H4684 0.950 . S
C4704 C4703 1.414 . S
C4704 C4705 1.374 . S
C4705 H4685 0.950 . S
C4705 C4701 1.385 . S
C4705 C4704 1.374 . S
C4706 C4703 1.499 . S
C4706 C4707 1.373 . S
C4706 C4708 1.389 . S
C4707 H4686 0.950 . S
C4707 C4706 1.373 . S
C4707 C4723 1.377 . S
C4708 C4706 1.389 . S
C4708 C4709 1.524 . S
C4708 C4722 1.377 . S
C4709 C4708 1.524 . S
C4709 C4710 1.397 . S
C4709 C4714 1.363 . S
C4710 H4687 0.950 . S
C4710 C4709 1.397 . S
C4710 C4711 1.334 . S
C4711 H4688 0.950 . S
C4711 C4710 1.334 . S
C4711 C4712 1.287 . S
C4712 C4711 1.287 . S
C4712 C4713 1.524 . S
C4712 H4731 0.913 1_565 S
C4713 H4689 0.950 . S
C4713 C4712 1.524 . S
C4713 C4714 1.415 . S
C4714 H4690 0.950 . S
C4714 C4709 1.363 . S
C4714 C4713 1.415 . S
C4715 H4691 0.951 . S
C4715 C4716 1.366 . S
C4715 C4717 1.388 . S
C4716 C4715 1.366 . S
C4716 C4720 1.385 . S
C4717 H4692 0.951 . S
C4717 C4715 1.388 . S
C4717 C4718 1.366 . S
C4718 C4717 1.366 . S
C4718 C4719 1.414 . S
C4718 C4721 1.499 . S
C4719 H4693 0.950 . S
C4719 C4718 1.414 . S
C4719 C4720 1.374 . S
C4720 H4694 0.950 . S
C4720 C4716 1.385 . S
C4720 C4719 1.374 . S
C4721 C4718 1.499 . S
C4721 C4722 1.373 . S
C4721 C4723 1.389 . S
C4722 H4695 0.950 . S
C4722 C4708 1.377 . S
C4722 C4721 1.373 . S
C4723 C4707 1.377 . S
C4723 C4721 1.389 . S
C4723 C4724 1.524 . S
C4724 C4723 1.524 . S
C4724 C4725 1.397 . S
C4724 C4729 1.363 . S
C4725 H4696 0.950 . S
C4725 C4724 1.397 . S
C4725 C4726 1.334 . S
C4726 H4697 0.950 . S
C4726 C4725 1.334 . S
C4726 C4727 1.287 . S
C4727 C4726 1.287 . S
C4727 C4728 1.524 . S
C4727 H4730 0.999 . S
C4728 H4698 0.950 . S
C4728 C4727 1.524 . S
C4728 C4729 1.415 . S
C4729 H4699 0.950 . S
C4729 C4724 1.363 . S
C4729 C4728 1.415 . S
H4730 C4727 0.999 . S
H4731 C4712 0.913 1_545 S
H4732 C4750 0.951 . S
H4733 C4752 0.951 . S
H4734 C4754 0.950 . S
H4735 C4755 0.950 . S
H4736 C4757 0.950 . S
H4737 C4760 0.950 . S
H4738 C4761 0.950 . S
H4739 C4763 0.950 . S
H4740 C4764 0.950 . S
H4741 C4765 0.951 . S
H4742 C4767 0.951 . S
H4743 C4769 0.950 . S
H4744 C4770 0.950 . S
H4745 C4772 0.950 . S
H4746 C4775 0.950 . S
H4747 C4776 0.950 . S
H4748 C4778 0.950 . S
H4749 C4779 0.950 . S
C4750 H4732 0.951 . S
C4750 C4751 1.366 . S
C4750 C4752 1.388 . S
C4751 C4750 1.366 . S
C4751 C4755 1.385 . S
C4752 H4733 0.951 . S
C4752 C4750 1.388 . S
C4752 C4753 1.366 . S
C4753 C4752 1.366 . S
C4753 C4754 1.414 . S
C4753 C4756 1.499 . S
C4754 H4734 0.950 . S
C4754 C4753 1.414 . S
C4754 C4755 1.374 . S
C4755 H4735 0.950 . S
C4755 C4751 1.385 . S
C4755 C4754 1.374 . S
C4756 C4753 1.499 . S
C4756 C4757 1.373 . S
C4756 C4758 1.389 . S
C4757 H4736 0.950 . S
C4757 C4756 1.373 . S
C4757 C4773 1.377 . S
C4758 C4756 1.389 . S
C4758 C4759 1.524 . S
C4758 C4772 1.377 . S
C4759 C4758 1.524 . S
C4759 C4760 1.397 . S
C4759 C4764 1.363 . S
C4760 H4737 0.950 . S
C4760 C4759 1.397 . S
C4760 C4761 1.334 . S
C4761 H4738 0.950 . S
C4761 C4760 1.334 . S
C4761 C4762 1.287 . S
C4762 C4761 1.287 . S
C4762 C4763 1.524 . S
C4762 H4781 0.913 . S
C4763 H4739 0.950 . S
C4763 C4762 1.524 . S
C4763 C4764 1.415 . S
C4764 H4740 0.950 . S
C4764 C4759 1.363 . S
C4764 C4763 1.415 . S
C4765 H4741 0.951 . S
C4765 C4766 1.366 . S
C4765 C4767 1.388 . S
C4766 C4765 1.366 . S
C4766 C4770 1.385 . S
C4767 H4742 0.951 . S
C4767 C4765 1.388 . S
C4767 C4768 1.366 . S
C4768 C4767 1.366 . S
C4768 C4769 1.414 . S
C4768 C4771 1.499 . S
C4769 H4743 0.950 . S
C4769 C4768 1.414 . S
C4769 C4770 1.374 . S
C4770 H4744 0.950 . S
C4770 C4766 1.385 . S
C4770 C4769 1.374 . S
C4771 C4768 1.499 . S
C4771 C4772 1.373 . S
C4771 C4773 1.389 . S
C4772 H4745 0.950 . S
C4772 C4758 1.377 . S
C4772 C4771 1.373 . S
C4773 C4757 1.377 . S
C4773 C4771 1.389 . S
C4773 C4774 1.524 . S
C4774 C4773 1.524 . S
C4774 C4775 1.397 . S
C4774 C4779 1.363 . S
C4775 H4746 0.950 . S
C4775 C4774 1.397 . S
C4775 C4776 1.334 . S
C4776 H4747 0.950 . S
C4776 C4775 1.334 . S
C4776 C4777 1.287 . S
C4777 C4776 1.287 . S
C4777 C4778 1.524 . S
C4777 H4780 0.999 . S
C4778 H4748 0.950 . S
C4778 C4777 1.524 . S
C4778 C4779 1.415 . S
C4779 H4749 0.950 . S
C4779 C4774 1.363 . S
C4779 C4778 1.415 . S
H4780 C4777 0.999 . S
H4781 C4762 0.913 . S
H4782 C4800 0.951 . S
H4783 C4802 0.951 . S
H4784 C4804 0.950 . S
H4785 C4805 0.950 . S
H4786 C4807 0.950 . S
H4787 C4810 0.950 . S
H4788 C4811 0.950 . S
H4789 C4813 0.950 . S
H4790 C4814 0.950 . S
H4791 C4815 0.951 . S
H4792 C4817 0.951 . S
H4793 C4819 0.950 . S
H4794 C4820 0.950 . S
H4795 C4822 0.950 . S
H4796 C4825 0.950 . S
H4797 C4826 0.950 . S
H4798 C4828 0.950 . S
H4799 C4829 0.950 . S
C4800 H4782 0.951 . S
C4800 C4801 1.366 . S
C4800 C4802 1.388 . S
C4801 C4800 1.366 . S
C4801 C4805 1.385 . S
C4802 H4783 0.951 . S
C4802 C4800 1.388 . S
C4802 C4803 1.366 . S
C4803 C4802 1.366 . S
C4803 C4804 1.414 . S
C4803 C4806 1.499 . S
C4804 H4784 0.950 . S
C4804 C4803 1.414 . S
C4804 C4805 1.374 . S
C4805 H4785 0.950 . S
C4805 C4801 1.385 . S
C4805 C4804 1.374 . S
C4806 C4803 1.499 . S
C4806 C4807 1.373 . S
C4806 C4808 1.389 . S
C4807 H4786 0.950 . S
C4807 C4806 1.373 . S
C4807 C4823 1.377 . S
C4808 C4806 1.389 . S
C4808 C4809 1.524 . S
C4808 C4822 1.377 . S
C4809 C4808 1.524 . S
C4809 C4810 1.397 . S
C4809 C4814 1.363 . S
C4810 H4787 0.950 . S
C4810 C4809 1.397 . S
C4810 C4811 1.334 . S
C4811 H4788 0.950 . S
C4811 C4810 1.334 . S
C4811 C4812 1.287 . S
C4812 C4811 1.287 . S
C4812 C4813 1.524 . S
C4812 H4831 0.913 . S
C4813 H4789 0.950 . S
C4813 C4812 1.524 . S
C4813 C4814 1.415 . S
C4814 H4790 0.950 . S
C4814 C4809 1.363 . S
C4814 C4813 1.415 . S
C4815 H4791 0.951 . S
C4815 C4816 1.366 . S
C4815 C4817 1.388 . S
C4816 C4815 1.366 . S
C4816 C4820 1.385 . S
C4817 H4792 0.951 . S
C4817 C4815 1.388 . S
C4817 C4818 1.366 . S
C4818 C4817 1.366 . S
C4818 C4819 1.414 . S
C4818 C4821 1.499 . S
C4819 H4793 0.950 . S
C4819 C4818 1.414 . S
C4819 C4820 1.374 . S
C4820 H4794 0.950 . S
C4820 C4816 1.385 . S
C4820 C4819 1.374 . S
C4821 C4818 1.499 . S
C4821 C4822 1.373 . S
C4821 C4823 1.389 . S
C4822 H4795 0.950 . S
C4822 C4808 1.377 . S
C4822 C4821 1.373 . S
C4823 C4807 1.377 . S
C4823 C4821 1.389 . S
C4823 C4824 1.524 . S
C4824 C4823 1.524 . S
C4824 C4825 1.397 . S
C4824 C4829 1.363 . S
C4825 H4796 0.950 . S
C4825 C4824 1.397 . S
C4825 C4826 1.334 . S
C4826 H4797 0.950 . S
C4826 C4825 1.334 . S
C4826 C4827 1.287 . S
C4827 C4826 1.287 . S
C4827 C4828 1.524 . S
C4827 H4830 0.999 . S
C4828 H4798 0.950 . S
C4828 C4827 1.524 . S
C4828 C4829 1.415 . S
C4829 H4799 0.950 . S
C4829 C4824 1.363 . S
C4829 C4828 1.415 . S
H4830 C4827 0.999 . S
H4831 C4812 0.913 . S
H4832 C4850 0.951 . S
H4833 C4852 0.951 . S
H4834 C4854 0.950 . S
H4835 C4855 0.950 . S
H4836 C4857 0.950 . S
H4837 C4860 0.950 . S
H4838 C4861 0.950 . S
H4839 C4863 0.950 . S
H4840 C4864 0.950 . S
H4841 C4865 0.951 . S
H4842 C4867 0.951 . S
H4843 C4869 0.950 . S
H4844 C4870 0.950 . S
H4845 C4872 0.950 . S
H4846 C4875 0.950 . S
H4847 C4876 0.950 . S
H4848 C4878 0.950 . S
H4849 C4879 0.950 . S
C4850 H4832 0.951 . S
C4850 C4851 1.366 . S
C4850 C4852 1.388 . S
C4851 C4850 1.366 . S
C4851 C4855 1.385 . S
C4852 H4833 0.951 . S
C4852 C4850 1.388 . S
C4852 C4853 1.366 . S
C4853 C4852 1.366 . S
C4853 C4854 1.414 . S
C4853 C4856 1.499 . S
C4854 H4834 0.950 . S
C4854 C4853 1.414 . S
C4854 C4855 1.374 . S
C4855 H4835 0.950 . S
C4855 C4851 1.385 . S
C4855 C4854 1.374 . S
C4856 C4853 1.499 . S
C4856 C4857 1.373 . S
C4856 C4858 1.389 . S
C4857 H4836 0.950 . S
C4857 C4856 1.373 . S
C4857 C4873 1.377 . S
C4858 C4856 1.389 . S
C4858 C4859 1.524 . S
C4858 C4872 1.377 . S
C4859 C4858 1.524 . S
C4859 C4860 1.397 . S
C4859 C4864 1.363 . S
C4860 H4837 0.950 . S
C4860 C4859 1.397 . S
C4860 C4861 1.334 . S
C4861 H4838 0.950 . S
C4861 C4860 1.334 . S
C4861 C4862 1.287 . S
C4862 C4861 1.287 . S
C4862 C4863 1.524 . S
C4862 H4881 0.913 . S
C4863 H4839 0.950 . S
C4863 C4862 1.524 . S
C4863 C4864 1.415 . S
C4864 H4840 0.950 . S
C4864 C4859 1.363 . S
C4864 C4863 1.415 . S
C4865 H4841 0.951 . S
C4865 C4866 1.366 . S
C4865 C4867 1.388 . S
C4866 C4865 1.366 . S
C4866 C4870 1.385 . S
C4867 H4842 0.951 . S
C4867 C4865 1.388 . S
C4867 C4868 1.366 . S
C4868 C4867 1.366 . S
C4868 C4869 1.414 . S
C4868 C4871 1.499 . S
C4869 H4843 0.950 . S
C4869 C4868 1.414 . S
C4869 C4870 1.374 . S
C4870 H4844 0.950 . S
C4870 C4866 1.385 . S
C4870 C4869 1.374 . S
C4871 C4868 1.499 . S
C4871 C4872 1.373 . S
C4871 C4873 1.389 . S
C4872 H4845 0.950 . S
C4872 C4858 1.377 . S
C4872 C4871 1.373 . S
C4873 C4857 1.377 . S
C4873 C4871 1.389 . S
C4873 C4874 1.524 . S
C4874 C4873 1.524 . S
C4874 C4875 1.397 . S
C4874 C4879 1.363 . S
C4875 H4846 0.950 . S
C4875 C4874 1.397 . S
C4875 C4876 1.334 . S
C4876 H4847 0.950 . S
C4876 C4875 1.334 . S
C4876 C4877 1.287 . S
C4877 C4876 1.287 . S
C4877 C4878 1.524 . S
C4877 H4880 0.999 . S
C4878 H4848 0.950 . S
C4878 C4877 1.524 . S
C4878 C4879 1.415 . S
C4879 H4849 0.950 . S
C4879 C4874 1.363 . S
C4879 C4878 1.415 . S
H4880 C4877 0.999 . S
H4881 C4862 0.913 . S
H4882 C4900 0.951 . S
H4883 C4902 0.951 . S
H4884 C4904 0.950 . S
H4885 C4905 0.950 . S
H4886 C4907 0.950 . S
H4887 C4910 0.950 . S
H4888 C4911 0.950 . S
H4889 C4913 0.950 . S
H4890 C4914 0.950 . S
H4891 C4915 0.951 . S
H4892 C4917 0.951 . S
H4893 C4919 0.950 . S
H4894 C4920 0.950 . S
H4895 C4922 0.950 . S
H4896 C4925 0.950 . S
H4897 C4926 0.950 . S
H4898 C4928 0.950 . S
H4899 C4929 0.950 . S
C4900 H4882 0.951 . S
C4900 C4901 1.366 . S
C4900 C4902 1.388 . S
C4901 C4900 1.366 . S
C4901 C4905 1.385 . S
C4902 H4883 0.951 . S
C4902 C4900 1.388 . S
C4902 C4903 1.366 . S
C4903 C4902 1.366 . S
C4903 C4904 1.414 . S
C4903 C4906 1.499 . S
C4904 H4884 0.950 . S
C4904 C4903 1.414 . S
C4904 C4905 1.374 . S
C4905 H4885 0.950 . S
C4905 C4901 1.385 . S
C4905 C4904 1.374 . S
C4906 C4903 1.499 . S
C4906 C4907 1.373 . S
C4906 C4908 1.389 . S
C4907 H4886 0.950 . S
C4907 C4906 1.373 . S
C4907 C4923 1.377 . S
C4908 C4906 1.389 . S
C4908 C4909 1.524 . S
C4908 C4922 1.377 . S
C4909 C4908 1.524 . S
C4909 C4910 1.397 . S
C4909 C4914 1.363 . S
C4910 H4887 0.950 . S
C4910 C4909 1.397 . S
C4910 C4911 1.334 . S
C4911 H4888 0.950 . S
C4911 C4910 1.334 . S
C4911 C4912 1.287 . S
C4912 C4911 1.287 . S
C4912 C4913 1.524 . S
C4912 H4931 0.913 . S
C4913 H4889 0.950 . S
C4913 C4912 1.524 . S
C4913 C4914 1.415 . S
C4914 H4890 0.950 . S
C4914 C4909 1.363 . S
C4914 C4913 1.415 . S
C4915 H4891 0.951 . S
C4915 C4916 1.366 . S
C4915 C4917 1.388 . S
C4916 C4915 1.366 . S
C4916 C4920 1.385 . S
C4917 H4892 0.951 . S
C4917 C4915 1.388 . S
C4917 C4918 1.366 . S
C4918 C4917 1.366 . S
C4918 C4919 1.414 . S
C4918 C4921 1.499 . S
C4919 H4893 0.950 . S
C4919 C4918 1.414 . S
C4919 C4920 1.374 . S
C4920 H4894 0.950 . S
C4920 C4916 1.385 . S
C4920 C4919 1.374 . S
C4921 C4918 1.499 . S
C4921 C4922 1.373 . S
C4921 C4923 1.389 . S
C4922 H4895 0.950 . S
C4922 C4908 1.377 . S
C4922 C4921 1.373 . S
C4923 C4907 1.377 . S
C4923 C4921 1.389 . S
C4923 C4924 1.524 . S
C4924 C4923 1.524 . S
C4924 C4925 1.397 . S
C4924 C4929 1.363 . S
C4925 H4896 0.950 . S
C4925 C4924 1.397 . S
C4925 C4926 1.334 . S
C4926 H4897 0.950 . S
C4926 C4925 1.334 . S
C4926 C4927 1.287 . S
C4927 C4926 1.287 . S
C4927 C4928 1.524 . S
C4927 H4930 0.999 . S
C4928 H4898 0.950 . S
C4928 C4927 1.524 . S
C4928 C4929 1.415 . S
C4929 H4899 0.950 . S
C4929 C4924 1.363 . S
C4929 C4928 1.415 . S
H4930 C4927 0.999 . S
H4931 C4912 0.913 . S
H4932 C4950 0.951 . S
H4933 C4952 0.951 . S
H4934 C4954 0.950 . S
H4935 C4955 0.950 . S
H4936 C4957 0.937 1_655 S
H4937 C4960 0.950 . S
H4938 C4961 0.950 . S
H4939 C4963 0.950 . S
H4940 C4964 0.950 . S
H4941 C4965 0.951 . S
H4942 C4967 0.951 . S
H4943 C4969 0.949 . S
H4944 C4970 0.950 . S
H4945 C4972 0.950 1_554 S
H4946 C4975 0.950 . S
H4947 C4976 0.936 1_455 S
H4948 C4978 0.950 . S
H4949 C4979 0.950 . S
C4950 H4932 0.951 . S
C4950 C4951 1.366 . S
C4950 C4952 1.388 . S
C4951 C4950 1.366 . S
C4951 C4955 1.385 1_455 S
C4952 H4933 0.951 . S
C4952 C4950 1.388 . S
C4952 C4953 1.366 . S
C4953 C4952 1.366 . S
C4953 C4954 1.414 1_455 S
C4953 C4956 1.499 . S
C4954 H4934 0.950 . S
C4954 C4953 1.414 1_655 S
C4954 C4955 1.374 . S
C4955 H4935 0.950 . S
C4955 C4951 1.385 1_655 S
C4955 C4954 1.374 . S
C4956 C4953 1.499 . S
C4956 C4957 1.393 . S
C4956 C4958 1.389 . S
C4957 H4936 0.937 1_455 S
C4957 C4956 1.393 . S
C4957 C4973 1.379 . S
C4958 C4956 1.389 . S
C4958 C4959 1.524 1_556 S
C4958 C4972 1.377 . S
C4959 C4958 1.524 1_554 S
C4959 C4960 1.397 . S
C4959 C4964 1.363 . S
C4960 H4937 0.950 . S
C4960 C4959 1.397 . S
C4960 C4961 1.334 . S
C4961 H4938 0.950 . S
C4961 C4960 1.334 . S
C4961 C4962 1.287 . S
C4962 C4961 1.287 . S
C4962 C4963 1.524 . S
C4962 H4981 0.913 . S
C4963 H4939 0.950 . S
C4963 C4962 1.524 . S
C4963 C4964 1.415 . S
C4964 H4940 0.950 . S
C4964 C4959 1.363 . S
C4964 C4963 1.415 . S
C4965 H4941 0.951 . S
C4965 C4966 1.366 1_655 S
C4965 C4967 1.388 1_554 S
C4966 C4965 1.366 1_455 S
C4966 C4970 1.385 . S
C4967 H4942 0.951 . S
C4967 C4965 1.388 1_556 S
C4967 C4968 1.366 1_655 S
C4968 C4967 1.366 1_455 S
C4968 C4969 1.418 . S
C4968 C4971 1.499 . S
C4969 H4943 0.949 . S
C4969 C4968 1.418 . S
C4969 C4970 1.369 1_556 S
C4970 H4944 0.950 . S
C4970 C4966 1.385 . S
C4970 C4969 1.369 1_554 S
C4971 C4968 1.499 . S
C4971 C4972 1.373 . S
C4971 C4973 1.409 . S
C4972 H4945 0.950 1_556 S
C4972 C4958 1.377 . S
C4972 C4971 1.373 . S
C4973 C4957 1.379 . S
C4973 C4971 1.409 . S
C4973 C4974 1.500 1_455 S
C4974 C4973 1.500 1_655 S
C4974 C4975 1.397 1_655 S
C4974 C4979 1.363 . S
C4975 H4946 0.950 . S
C4975 C4974 1.397 1_455 S
C4975 C4976 1.334 1_455 S
C4976 H4947 0.936 1_655 S
C4976 C4975 1.334 1_655 S
C4976 C4977 1.287 . S
C4977 C4976 1.287 . S
C4977 C4978 1.524 . S
C4977 H4980 0.999 . S
C4978 H4948 0.950 . S
C4978 C4977 1.524 . S
C4978 C4979 1.415 . S
C4979 H4949 0.950 . S
C4979 C4974 1.363 . S
C4979 C4978 1.415 . S
H4980 C4977 0.999 . S
H4981 C4962 0.913 . S
H4982 C5000 0.951 . S
H4983 C5002 0.951 . S
H4984 C5004 0.950 . S
H4985 C5005 0.950 . S
H4986 C5007 0.950 . S
H4987 C5010 0.950 . S
H4988 C5011 0.950 . S
H4989 C5013 0.950 . S
H4990 C5014 0.950 . S
H4991 C5015 0.951 . S
H4992 C5017 0.951 . S
H4993 C5019 0.950 . S
H4994 C5020 0.950 . S
H4995 C5022 0.950 . S
H4996 C5025 0.950 . S
H4997 C5026 0.950 . S
H4998 C5028 0.950 . S
H4999 C5029 0.950 . S
C5000 H4982 0.951 . S
C5000 C5001 1.366 . S
C5000 C5002 1.388 . S
C5001 C5000 1.366 . S
C5001 C5005 1.385 . S
C5002 H4983 0.951 . S
C5002 C5000 1.388 . S
C5002 C5003 1.366 . S
C5003 C5002 1.366 . S
C5003 C5004 1.414 . S
C5003 C5006 1.499 . S
C5004 H4984 0.950 . S
C5004 C5003 1.414 . S
C5004 C5005 1.374 . S
C5005 H4985 0.950 . S
C5005 C5001 1.385 . S
C5005 C5004 1.374 . S
C5006 C5003 1.499 . S
C5006 C5007 1.373 . S
C5006 C5008 1.389 . S
C5007 H4986 0.950 . S
C5007 C5006 1.373 . S
C5007 C5023 1.377 . S
C5008 C5006 1.389 . S
C5008 C5009 1.524 . S
C5008 C5022 1.377 . S
C5009 C5008 1.524 . S
C5009 C5010 1.397 . S
C5009 C5014 1.363 . S
C5010 H4987 0.950 . S
C5010 C5009 1.397 . S
C5010 C5011 1.334 . S
C5011 H4988 0.950 . S
C5011 C5010 1.334 . S
C5011 C5012 1.287 . S
C5012 C5011 1.287 . S
C5012 C5013 1.524 . S
C5012 H5031 0.913 . S
C5013 H4989 0.950 . S
C5013 C5012 1.524 . S
C5013 C5014 1.415 . S
C5014 H4990 0.950 . S
C5014 C5009 1.363 . S
C5014 C5013 1.415 . S
C5015 H4991 0.951 . S
C5015 C5016 1.366 . S
C5015 C5017 1.388 . S
C5016 C5015 1.366 . S
C5016 C5020 1.385 . S
C5017 H4992 0.951 . S
C5017 C5015 1.388 . S
C5017 C5018 1.366 . S
C5018 C5017 1.366 . S
C5018 C5019 1.414 . S
C5018 C5021 1.499 . S
C5019 H4993 0.950 . S
C5019 C5018 1.414 . S
C5019 C5020 1.374 . S
C5020 H4994 0.950 . S
C5020 C5016 1.385 . S
C5020 C5019 1.374 . S
C5021 C5018 1.499 . S
C5021 C5022 1.373 . S
C5021 C5023 1.389 . S
C5022 H4995 0.950 . S
C5022 C5008 1.377 . S
C5022 C5021 1.373 . S
C5023 C5007 1.377 . S
C5023 C5021 1.389 . S
C5023 C5024 1.524 . S
C5024 C5023 1.524 . S
C5024 C5025 1.397 . S
C5024 C5029 1.363 . S
C5025 H4996 0.950 . S
C5025 C5024 1.397 . S
C5025 C5026 1.334 . S
C5026 H4997 0.950 . S
C5026 C5025 1.334 . S
C5026 C5027 1.287 . S
C5027 C5026 1.287 . S
C5027 C5028 1.524 . S
C5027 H5030 0.999 . S
C5028 H4998 0.950 . S
C5028 C5027 1.524 . S
C5028 C5029 1.415 . S
C5029 H4999 0.950 . S
C5029 C5024 1.363 . S
C5029 C5028 1.415 . S
H5030 C5027 0.999 . S
H5031 C5012 0.913 . S
H5032 C5050 0.951 . S
H5033 C5052 0.951 . S
H5034 C5054 0.950 . S
H5035 C5055 0.950 . S
H5036 C5057 0.950 . S
H5037 C5060 0.950 . S
H5038 C5061 0.950 . S
H5039 C5063 0.950 . S
H5040 C5064 0.950 . S
H5041 C5065 0.951 . S
H5042 C5067 0.951 . S
H5043 C5069 0.950 . S
H5044 C5070 0.950 . S
H5045 C5072 0.950 . S
H5046 C5075 0.950 . S
H5047 C5076 0.950 . S
H5048 C5078 0.950 1_556 S
H5049 C5079 0.950 . S
C5050 H5032 0.951 . S
C5050 C5051 1.366 . S
C5050 C5052 1.388 . S
C5051 C5050 1.366 . S
C5051 C5055 1.385 . S
C5052 H5033 0.951 . S
C5052 C5050 1.388 . S
C5052 C5053 1.366 . S
C5053 C5052 1.366 . S
C5053 C5054 1.414 . S
C5053 C5056 1.499 . S
C5054 H5034 0.950 . S
C5054 C5053 1.414 . S
C5054 C5055 1.374 . S
C5055 H5035 0.950 . S
C5055 C5051 1.385 . S
C5055 C5054 1.374 . S
C5056 C5053 1.499 . S
C5056 C5057 1.373 . S
C5056 C5058 1.389 . S
C5057 H5036 0.950 . S
C5057 C5056 1.373 . S
C5057 C5073 1.377 . S
C5058 C5056 1.389 . S
C5058 C5059 1.524 . S
C5058 C5072 1.377 . S
C5059 C5058 1.524 . S
C5059 C5060 1.397 . S
C5059 C5064 1.363 . S
C5060 H5037 0.950 . S
C5060 C5059 1.397 . S
C5060 C5061 1.334 . S
C5061 H5038 0.950 . S
C5061 C5060 1.334 . S
C5061 C5062 1.287 . S
C5062 C5061 1.287 . S
C5062 C5063 1.524 . S
C5062 H5081 0.913 . S
C5063 H5039 0.950 . S
C5063 C5062 1.524 . S
C5063 C5064 1.415 . S
C5064 H5040 0.950 . S
C5064 C5059 1.363 . S
C5064 C5063 1.415 . S
C5065 H5041 0.951 . S
C5065 C5066 1.366 . S
C5065 C5067 1.388 . S
C5066 C5065 1.366 . S
C5066 C5070 1.385 . S
C5067 H5042 0.951 . S
C5067 C5065 1.388 . S
C5067 C5068 1.366 . S
C5068 C5067 1.366 . S
C5068 C5069 1.414 . S
C5068 C5071 1.499 . S
C5069 H5043 0.950 . S
C5069 C5068 1.414 . S
C5069 C5070 1.374 . S
C5070 H5044 0.950 . S
C5070 C5066 1.385 . S
C5070 C5069 1.374 . S
C5071 C5068 1.499 . S
C5071 C5072 1.373 . S
C5071 C5073 1.389 . S
C5072 H5045 0.950 . S
C5072 C5058 1.377 . S
C5072 C5071 1.373 . S
C5073 C5057 1.377 . S
C5073 C5071 1.389 . S
C5073 C5074 1.524 . S
C5074 C5073 1.524 . S
C5074 C5075 1.397 . S
C5074 C5079 1.363 . S
C5075 H5046 0.950 . S
C5075 C5074 1.397 . S
C5075 C5076 1.334 . S
C5076 H5047 0.950 . S
C5076 C5075 1.334 . S
C5076 C5077 1.287 . S
C5077 C5076 1.287 . S
C5077 C5078 1.524 . S
C5077 H5080 1.003 1_554 S
C5078 H5048 0.950 1_554 S
C5078 C5077 1.524 . S
C5078 C5079 1.415 . S
C5079 H5049 0.950 . S
C5079 C5074 1.363 . S
C5079 C5078 1.415 . S
H5080 C5077 1.003 1_556 S
H5081 C5062 0.913 . S
H5082 C5100 0.951 . S
H5083 C5102 0.951 . S
H5084 C5104 0.950 . S
H5085 C5105 0.950 . S
H5086 C5107 0.950 . S
H5087 C5110 0.950 . S
H5088 C5111 0.950 . S
H5089 C5113 0.950 . S
H5090 C5114 0.950 . S
H5091 C5115 0.951 . S
H5092 C5117 0.951 . S
H5093 C5119 0.950 . S
H5094 C5120 0.950 . S
H5095 C5122 0.950 . S
H5096 C5125 0.950 . S
H5097 C5126 0.950 . S
H5098 C5128 0.950 . S
H5099 C5129 0.950 . S
C5100 H5082 0.951 . S
C5100 C5101 1.366 . S
C5100 C5102 1.388 . S
C5101 C5100 1.366 . S
C5101 C5105 1.385 . S
C5102 H5083 0.951 . S
C5102 C5100 1.388 . S
C5102 C5103 1.366 . S
C5103 C5102 1.366 . S
C5103 C5104 1.414 . S
C5103 C5106 1.499 . S
C5104 H5084 0.950 . S
C5104 C5103 1.414 . S
C5104 C5105 1.374 . S
C5105 H5085 0.950 . S
C5105 C5101 1.385 . S
C5105 C5104 1.374 . S
C5106 C5103 1.499 . S
C5106 C5107 1.373 . S
C5106 C5108 1.389 . S
C5107 H5086 0.950 . S
C5107 C5106 1.373 . S
C5107 C5123 1.377 . S
C5108 C5106 1.389 . S
C5108 C5109 1.524 . S
C5108 C5122 1.377 . S
C5109 C5108 1.524 . S
C5109 C5110 1.397 . S
C5109 C5114 1.363 . S
C5110 H5087 0.950 . S
C5110 C5109 1.397 . S
C5110 C5111 1.334 . S
C5111 H5088 0.950 . S
C5111 C5110 1.334 . S
C5111 C5112 1.287 . S
C5112 C5111 1.287 . S
C5112 C5113 1.524 . S
C5112 H5131 0.913 . S
C5113 H5089 0.950 . S
C5113 C5112 1.524 . S
C5113 C5114 1.415 . S
C5114 H5090 0.950 . S
C5114 C5109 1.363 . S
C5114 C5113 1.415 . S
C5115 H5091 0.951 . S
C5115 C5116 1.366 . S
C5115 C5117 1.388 . S
C5116 C5115 1.366 . S
C5116 C5120 1.385 . S
C5117 H5092 0.951 . S
C5117 C5115 1.388 . S
C5117 C5118 1.366 . S
C5118 C5117 1.366 . S
C5118 C5119 1.414 . S
C5118 C5121 1.499 . S
C5119 H5093 0.950 . S
C5119 C5118 1.414 . S
C5119 C5120 1.374 . S
C5120 H5094 0.950 . S
C5120 C5116 1.385 . S
C5120 C5119 1.374 . S
C5121 C5118 1.499 . S
C5121 C5122 1.373 . S
C5121 C5123 1.389 . S
C5122 H5095 0.950 . S
C5122 C5108 1.377 . S
C5122 C5121 1.373 . S
C5123 C5107 1.377 . S
C5123 C5121 1.389 . S
C5123 C5124 1.524 . S
C5124 C5123 1.524 . S
C5124 C5125 1.397 . S
C5124 C5129 1.363 . S
C5125 H5096 0.950 . S
C5125 C5124 1.397 . S
C5125 C5126 1.334 . S
C5126 H5097 0.950 . S
C5126 C5125 1.334 . S
C5126 C5127 1.287 . S
C5127 C5126 1.287 . S
C5127 C5128 1.524 . S
C5127 H5130 0.999 . S
C5128 H5098 0.950 . S
C5128 C5127 1.524 . S
C5128 C5129 1.415 . S
C5129 H5099 0.950 . S
C5129 C5124 1.363 . S
C5129 C5128 1.415 . S
H5130 C5127 0.999 . S
H5131 C5112 0.913 . S
H5132 C5150 0.951 . S
H5133 C5152 0.951 . S
H5134 C5154 0.950 . S
H5135 C5155 0.950 . S
H5136 C5157 0.950 . S
H5137 C5160 0.950 . S
H5138 C5161 0.950 . S
H5139 C5163 0.950 . S
H5140 C5164 0.950 1_655 S
H5141 C5165 0.951 . S
H5142 C5167 0.951 . S
H5143 C5169 0.950 . S
H5144 C5170 0.950 . S
H5145 C5172 0.950 . S
H5146 C5175 0.950 . S
H5147 C5176 0.950 . S
H5148 C5178 0.950 . S
H5149 C5179 0.950 1_455 S
C5150 H5132 0.951 . S
C5150 C5151 1.364 . S
C5150 C5152 1.388 . S
C5151 C5150 1.364 . S
C5151 C5155 1.388 1_655 S
C5152 H5133 0.951 . S
C5152 C5150 1.388 . S
C5152 C5153 1.366 1_655 S
C5153 C5152 1.366 1_455 S
C5153 C5154 1.414 . S
C5153 C5156 1.499 . S
C5154 H5134 0.950 . S
C5154 C5153 1.414 . S
C5154 C5155 1.374 . S
C5155 H5135 0.950 . S
C5155 C5151 1.388 1_455 S
C5155 C5154 1.374 . S
C5156 C5153 1.499 . S
C5156 C5157 1.373 1_455 S
C5156 C5158 1.389 . S
C5157 H5136 0.950 . S
C5157 C5156 1.373 1_655 S
C5157 C5173 1.377 . S
C5158 C5156 1.389 . S
C5158 C5159 1.524 . S
C5158 C5172 1.377 . S
C5159 C5158 1.524 . S
C5159 C5160 1.397 . S
C5159 C5164 1.363 . S
C5160 H5137 0.950 . S
C5160 C5159 1.397 . S
C5160 C5161 1.334 . S
C5161 H5138 0.950 . S
C5161 C5160 1.334 . S
C5161 C5162 1.287 . S
C5162 C5161 1.287 . S
C5162 C5163 1.524 . S
C5162 H5181 0.913 . S
C5163 H5139 0.950 . S
C5163 C5162 1.524 . S
C5163 C5164 1.415 . S
C5164 H5140 0.950 1_455 S
C5164 C5159 1.363 . S
C5164 C5163 1.415 . S
C5165 H5141 0.951 . S
C5165 C5166 1.366 . S
C5165 C5167 1.388 . S
C5166 C5165 1.366 . S
C5166 C5170 1.385 1_455 S
C5167 H5142 0.951 . S
C5167 C5165 1.388 . S
C5167 C5168 1.366 . S
C5168 C5167 1.366 . S
C5168 C5169 1.414 1_455 S
C5168 C5171 1.499 . S
C5169 H5143 0.950 . S
C5169 C5168 1.414 1_655 S
C5169 C5170 1.374 . S
C5170 H5144 0.950 . S
C5170 C5166 1.385 1_655 S
C5170 C5169 1.374 . S
C5171 C5168 1.499 . S
C5171 C5172 1.373 . S
C5171 C5173 1.389 1_455 S
C5172 H5145 0.950 . S
C5172 C5158 1.377 . S
C5172 C5171 1.373 . S
C5173 C5157 1.377 . S
C5173 C5171 1.389 1_655 S
C5173 C5174 1.524 . S
C5174 C5173 1.524 . S
C5174 C5175 1.397 . S
C5174 C5179 1.363 . S
C5175 H5146 0.950 . S
C5175 C5174 1.397 . S
C5175 C5176 1.334 . S
C5176 H5147 0.950 . S
C5176 C5175 1.334 . S
C5176 C5177 1.287 . S
C5177 C5176 1.287 . S
C5177 C5178 1.524 . S
C5177 H5180 0.999 . S
C5178 H5148 0.950 . S
C5178 C5177 1.524 . S
C5178 C5179 1.415 . S
C5179 H5149 0.950 1_655 S
C5179 C5174 1.363 . S
C5179 C5178 1.415 . S
H5180 C5177 0.999 . S
H5181 C5162 0.913 . S
H5182 C5200 0.951 . S
H5183 C5202 0.951 . S
H5184 C5204 0.950 . S
H5185 C5205 0.950 . S
H5186 C5207 0.950 . S
H5187 C5210 0.950 . S
H5188 C5211 0.950 . S
H5189 C5213 0.950 . S
H5190 C5214 0.950 . S
H5191 C5215 0.951 . S
H5192 C5217 0.951 . S
H5193 C5219 0.950 . S
H5194 C5220 0.950 . S
H5195 C5222 0.950 . S
H5196 C5225 0.950 . S
H5197 C5226 0.950 . S
H5198 C5228 0.950 . S
H5199 C5229 0.950 . S
C5200 H5182 0.951 . S
C5200 C5201 1.366 . S
C5200 C5202 1.388 . S
C5201 C5200 1.366 . S
C5201 C5205 1.385 . S
C5202 H5183 0.951 . S
C5202 C5200 1.388 . S
C5202 C5203 1.366 . S
C5203 C5202 1.366 . S
C5203 C5204 1.414 . S
C5203 C5206 1.499 . S
C5204 H5184 0.950 . S
C5204 C5203 1.414 . S
C5204 C5205 1.374 . S
C5205 H5185 0.950 . S
C5205 C5201 1.385 . S
C5205 C5204 1.374 . S
C5206 C5203 1.499 . S
C5206 C5207 1.373 . S
C5206 C5208 1.389 . S
C5207 H5186 0.950 . S
C5207 C5206 1.373 . S
C5207 C5223 1.377 . S
C5208 C5206 1.389 . S
C5208 C5209 1.524 . S
C5208 C5222 1.377 . S
C5209 C5208 1.524 . S
C5209 C5210 1.397 . S
C5209 C5214 1.363 . S
C5210 H5187 0.950 . S
C5210 C5209 1.397 . S
C5210 C5211 1.334 . S
C5211 H5188 0.950 . S
C5211 C5210 1.334 . S
C5211 C5212 1.287 . S
C5212 C5211 1.287 . S
C5212 C5213 1.524 . S
C5212 H5231 0.913 . S
C5213 H5189 0.950 . S
C5213 C5212 1.524 . S
C5213 C5214 1.415 . S
C5214 H5190 0.950 . S
C5214 C5209 1.363 . S
C5214 C5213 1.415 . S
C5215 H5191 0.951 . S
C5215 C5216 1.366 . S
C5215 C5217 1.388 . S
C5216 C5215 1.366 . S
C5216 C5220 1.385 . S
C5217 H5192 0.951 . S
C5217 C5215 1.388 . S
C5217 C5218 1.366 . S
C5218 C5217 1.366 . S
C5218 C5219 1.414 . S
C5218 C5221 1.499 . S
C5219 H5193 0.950 . S
C5219 C5218 1.414 . S
C5219 C5220 1.374 . S
C5220 H5194 0.950 . S
C5220 C5216 1.385 . S
C5220 C5219 1.374 . S
C5221 C5218 1.499 . S
C5221 C5222 1.373 . S
C5221 C5223 1.389 . S
C5222 H5195 0.950 . S
C5222 C5208 1.377 . S
C5222 C5221 1.373 . S
C5223 C5207 1.377 . S
C5223 C5221 1.389 . S
C5223 C5224 1.524 . S
C5224 C5223 1.524 . S
C5224 C5225 1.397 . S
C5224 C5229 1.363 . S
C5225 H5196 0.950 . S
C5225 C5224 1.397 . S
C5225 C5226 1.334 . S
C5226 H5197 0.950 . S
C5226 C5225 1.334 . S
C5226 C5227 1.287 . S
C5227 C5226 1.287 . S
C5227 C5228 1.524 . S
C5227 H5230 0.999 . S
C5228 H5198 0.950 . S
C5228 C5227 1.524 . S
C5228 C5229 1.415 . S
C5229 H5199 0.950 . S
C5229 C5224 1.363 . S
C5229 C5228 1.415 . S
H5230 C5227 0.999 . S
H5231 C5212 0.913 . S
H5232 C5250 0.951 . S
H5233 C5252 0.951 . S
H5234 C5254 0.950 . S
H5235 C5255 0.950 . S
H5236 C5257 0.950 . S
H5237 C5260 0.950 . S
H5238 C5261 0.950 . S
H5239 C5263 0.950 . S
H5240 C5264 0.950 . S
H5241 C5265 0.951 . S
H5242 C5267 0.951 . S
H5243 C5269 0.950 . S
H5244 C5270 0.950 . S
H5245 C5272 0.950 . S
H5246 C5275 0.950 . S
H5247 C5276 0.950 . S
H5248 C5278 0.950 . S
H5249 C5279 0.950 . S
C5250 H5232 0.951 . S
C5250 C5251 1.366 . S
C5250 C5252 1.388 . S
C5251 C5250 1.366 . S
C5251 C5255 1.385 . S
C5252 H5233 0.951 . S
C5252 C5250 1.388 . S
C5252 C5253 1.366 . S
C5253 C5252 1.366 . S
C5253 C5254 1.414 . S
C5253 C5256 1.499 . S
C5254 H5234 0.950 . S
C5254 C5253 1.414 . S
C5254 C5255 1.374 . S
C5255 H5235 0.950 . S
C5255 C5251 1.385 . S
C5255 C5254 1.374 . S
C5256 C5253 1.499 . S
C5256 C5257 1.373 . S
C5256 C5258 1.389 . S
C5257 H5236 0.950 . S
C5257 C5256 1.373 . S
C5257 C5273 1.377 . S
C5258 C5256 1.389 . S
C5258 C5259 1.524 . S
C5258 C5272 1.377 . S
C5259 C5258 1.524 . S
C5259 C5260 1.397 . S
C5259 C5264 1.363 . S
C5260 H5237 0.950 . S
C5260 C5259 1.397 . S
C5260 C5261 1.334 . S
C5261 H5238 0.950 . S
C5261 C5260 1.334 . S
C5261 C5262 1.287 . S
C5262 C5261 1.287 . S
C5262 C5263 1.524 . S
C5262 H5281 0.913 . S
C5263 H5239 0.950 . S
C5263 C5262 1.524 . S
C5263 C5264 1.415 . S
C5264 H5240 0.950 . S
C5264 C5259 1.363 . S
C5264 C5263 1.415 . S
C5265 H5241 0.951 . S
C5265 C5266 1.366 . S
C5265 C5267 1.388 . S
C5266 C5265 1.366 . S
C5266 C5270 1.385 . S
C5267 H5242 0.951 . S
C5267 C5265 1.388 . S
C5267 C5268 1.366 . S
C5268 C5267 1.366 . S
C5268 C5269 1.414 . S
C5268 C5271 1.499 . S
C5269 H5243 0.950 . S
C5269 C5268 1.414 . S
C5269 C5270 1.374 . S
C5270 H5244 0.950 . S
C5270 C5266 1.385 . S
C5270 C5269 1.374 . S
C5271 C5268 1.499 . S
C5271 C5272 1.373 . S
C5271 C5273 1.389 . S
C5272 H5245 0.950 . S
C5272 C5258 1.377 . S
C5272 C5271 1.373 . S
C5273 C5257 1.377 . S
C5273 C5271 1.389 . S
C5273 C5274 1.524 . S
C5274 C5273 1.524 . S
C5274 C5275 1.397 . S
C5274 C5279 1.363 . S
C5275 H5246 0.950 . S
C5275 C5274 1.397 . S
C5275 C5276 1.334 . S
C5276 H5247 0.950 . S
C5276 C5275 1.334 . S
C5276 C5277 1.287 . S
C5277 C5276 1.287 . S
C5277 C5278 1.524 . S
C5277 H5280 0.999 . S
C5278 H5248 0.950 . S
C5278 C5277 1.524 . S
C5278 C5279 1.415 . S
C5279 H5249 0.950 . S
C5279 C5274 1.363 . S
C5279 C5278 1.415 . S
H5280 C5277 0.999 . S
H5281 C5262 0.913 . S
H5282 C5300 0.951 . S
H5283 C5302 0.951 . S
H5284 C5304 0.950 . S
H5285 C5305 0.950 . S
H5286 C5307 0.950 . S
H5287 C5310 0.950 . S
H5288 C5311 0.950 . S
H5289 C5313 0.950 . S
H5290 C5314 0.950 . S
H5291 C5315 0.951 . S
H5292 C5317 0.951 . S
H5293 C5319 0.950 . S
H5294 C5320 0.950 . S
H5295 C5322 0.950 . S
H5296 C5325 0.950 . S
H5297 C5326 0.950 . S
H5298 C5328 0.950 . S
H5299 C5329 0.950 . S
C5300 H5282 0.951 . S
C5300 C5301 1.366 . S
C5300 C5302 1.388 . S
C5301 C5300 1.366 . S
C5301 C5305 1.385 . S
C5302 H5283 0.951 . S
C5302 C5300 1.388 . S
C5302 C5303 1.366 . S
C5303 C5302 1.366 . S
C5303 C5304 1.414 . S
C5303 C5306 1.499 . S
C5304 H5284 0.950 . S
C5304 C5303 1.414 . S
C5304 C5305 1.374 . S
C5305 H5285 0.950 . S
C5305 C5301 1.385 . S
C5305 C5304 1.374 . S
C5306 C5303 1.499 . S
C5306 C5307 1.373 . S
C5306 C5308 1.389 . S
C5307 H5286 0.950 . S
C5307 C5306 1.373 . S
C5307 C5323 1.377 . S
C5308 C5306 1.389 . S
C5308 C5309 1.524 . S
C5308 C5322 1.377 . S
C5309 C5308 1.524 . S
C5309 C5310 1.397 . S
C5309 C5314 1.363 . S
C5310 H5287 0.950 . S
C5310 C5309 1.397 . S
C5310 C5311 1.334 . S
C5311 H5288 0.950 . S
C5311 C5310 1.334 . S
C5311 C5312 1.287 . S
C5312 C5311 1.287 . S
C5312 C5313 1.524 . S
C5312 H5331 0.913 . S
C5313 H5289 0.950 . S
C5313 C5312 1.524 . S
C5313 C5314 1.415 . S
C5314 H5290 0.950 . S
C5314 C5309 1.363 . S
C5314 C5313 1.415 . S
C5315 H5291 0.951 . S
C5315 C5316 1.366 . S
C5315 C5317 1.388 . S
C5316 C5315 1.366 . S
C5316 C5320 1.385 . S
C5317 H5292 0.951 . S
C5317 C5315 1.388 . S
C5317 C5318 1.366 . S
C5318 C5317 1.366 . S
C5318 C5319 1.414 . S
C5318 C5321 1.499 . S
C5319 H5293 0.950 . S
C5319 C5318 1.414 . S
C5319 C5320 1.374 . S
C5320 H5294 0.950 . S
C5320 C5316 1.385 . S
C5320 C5319 1.374 . S
C5321 C5318 1.499 . S
C5321 C5322 1.373 . S
C5321 C5323 1.389 . S
C5322 H5295 0.950 . S
C5322 C5308 1.377 . S
C5322 C5321 1.373 . S
C5323 C5307 1.377 . S
C5323 C5321 1.389 . S
C5323 C5324 1.524 . S
C5324 C5323 1.524 . S
C5324 C5325 1.397 . S
C5324 C5329 1.363 . S
C5325 H5296 0.950 . S
C5325 C5324 1.397 . S
C5325 C5326 1.334 . S
C5326 H5297 0.950 . S
C5326 C5325 1.334 . S
C5326 C5327 1.287 . S
C5327 C5326 1.287 . S
C5327 C5328 1.524 . S
C5327 H5330 0.999 . S
C5328 H5298 0.950 . S
C5328 C5327 1.524 . S
C5328 C5329 1.415 . S
C5329 H5299 0.950 . S
C5329 C5324 1.363 . S
C5329 C5328 1.415 . S
H5330 C5327 0.999 . S
H5331 C5312 0.913 . S
H5332 C5350 0.951 . S
H5333 C5352 0.951 . S
H5334 C5354 0.950 . S
H5335 C5355 0.950 . S
H5336 C5357 0.950 . S
H5337 C5360 0.950 . S
H5338 C5361 0.950 . S
H5339 C5363 0.950 1_655 S
H5340 C5364 0.950 . S
H5341 C5365 0.951 . S
H5342 C5367 0.951 . S
H5343 C5369 0.950 . S
H5344 C5370 0.950 . S
H5345 C5372 0.950 . S
H5346 C5375 0.950 . S
H5347 C5376 0.950 . S
H5348 C5378 0.950 . S
H5349 C5379 0.950 . S
C5350 H5332 0.951 . S
C5350 C5351 1.366 . S
C5350 C5352 1.388 . S
C5351 C5350 1.366 . S
C5351 C5355 1.385 . S
C5352 H5333 0.951 . S
C5352 C5350 1.388 . S
C5352 C5353 1.366 . S
C5353 C5352 1.366 . S
C5353 C5354 1.414 . S
C5353 C5356 1.499 . S
C5354 H5334 0.950 . S
C5354 C5353 1.414 . S
C5354 C5355 1.374 . S
C5355 H5335 0.950 . S
C5355 C5351 1.385 . S
C5355 C5354 1.374 . S
C5356 C5353 1.499 . S
C5356 C5357 1.373 . S
C5356 C5358 1.389 . S
C5357 H5336 0.950 . S
C5357 C5356 1.373 . S
C5357 C5373 1.377 . S
C5358 C5356 1.389 . S
C5358 C5359 1.524 . S
C5358 C5372 1.377 . S
C5359 C5358 1.524 . S
C5359 C5360 1.397 . S
C5359 C5364 1.363 . S
C5360 H5337 0.950 . S
C5360 C5359 1.397 . S
C5360 C5361 1.334 . S
C5361 H5338 0.950 . S
C5361 C5360 1.334 . S
C5361 C5362 1.287 . S
C5362 C5361 1.287 . S
C5362 C5363 1.524 . S
C5362 H5381 0.913 . S
C5363 H5339 0.950 1_455 S
C5363 C5362 1.524 . S
C5363 C5364 1.415 . S
C5364 H5340 0.950 . S
C5364 C5359 1.363 . S
C5364 C5363 1.415 . S
C5365 H5341 0.951 . S
C5365 C5366 1.366 . S
C5365 C5367 1.388 . S
C5366 C5365 1.366 . S
C5366 C5370 1.385 . S
C5367 H5342 0.951 . S
C5367 C5365 1.388 . S
C5367 C5368 1.366 . S
C5368 C5367 1.366 . S
C5368 C5369 1.414 . S
C5368 C5371 1.499 . S
C5369 H5343 0.950 . S
C5369 C5368 1.414 . S
C5369 C5370 1.374 . S
C5370 H5344 0.950 . S
C5370 C5366 1.385 . S
C5370 C5369 1.374 . S
C5371 C5368 1.499 . S
C5371 C5372 1.373 . S
C5371 C5373 1.389 . S
C5372 H5345 0.950 . S
C5372 C5358 1.377 . S
C5372 C5371 1.373 . S
C5373 C5357 1.377 . S
C5373 C5371 1.389 . S
C5373 C5374 1.524 . S
C5374 C5373 1.524 . S
C5374 C5375 1.397 . S
C5374 C5379 1.363 . S
C5375 H5346 0.950 . S
C5375 C5374 1.397 . S
C5375 C5376 1.334 . S
C5376 H5347 0.950 . S
C5376 C5375 1.334 . S
C5376 C5377 1.287 . S
C5377 C5376 1.287 . S
C5377 C5378 1.524 . S
C5377 H5380 0.999 . S
C5378 H5348 0.950 . S
C5378 C5377 1.524 . S
C5378 C5379 1.415 . S
C5379 H5349 0.950 . S
C5379 C5374 1.363 . S
C5379 C5378 1.415 . S
H5380 C5377 0.999 . S
H5381 C5362 0.913 . S
H5382 C5400 0.951 . S
H5383 C5402 0.951 . S
H5384 C5404 0.950 . S
H5385 C5405 0.950 . S
H5386 C5407 0.950 . S
H5387 C5410 0.950 . S
H5388 C5411 0.950 . S
H5389 C5413 0.950 . S
H5390 C5414 0.950 . S
H5391 C5415 0.951 . S
H5392 C5417 0.951 . S
H5393 C5419 0.950 . S
H5394 C5420 0.950 . S
H5395 C5422 0.950 . S
H5396 C5425 0.950 . S
H5397 C5426 0.950 . S
H5398 C5428 0.950 . S
H5399 C5429 0.950 . S
C5400 H5382 0.951 . S
C5400 C5401 1.366 . S
C5400 C5402 1.388 . S
C5401 C5400 1.366 . S
C5401 C5405 1.385 . S
C5402 H5383 0.951 . S
C5402 C5400 1.388 . S
C5402 C5403 1.366 . S
C5403 C5402 1.366 . S
C5403 C5404 1.414 . S
C5403 C5406 1.499 . S
C5404 H5384 0.950 . S
C5404 C5403 1.414 . S
C5404 C5405 1.374 . S
C5405 H5385 0.950 . S
C5405 C5401 1.385 . S
C5405 C5404 1.374 . S
C5406 C5403 1.499 . S
C5406 C5407 1.373 . S
C5406 C5408 1.389 . S
C5407 H5386 0.950 . S
C5407 C5406 1.373 . S
C5407 C5423 1.377 . S
C5408 C5406 1.389 . S
C5408 C5409 1.524 . S
C5408 C5422 1.377 . S
C5409 C5408 1.524 . S
C5409 C5410 1.397 . S
C5409 C5414 1.363 . S
C5410 H5387 0.950 . S
C5410 C5409 1.397 . S
C5410 C5411 1.334 . S
C5411 H5388 0.950 . S
C5411 C5410 1.334 . S
C5411 C5412 1.287 . S
C5412 C5411 1.287 . S
C5412 C5413 1.524 . S
C5412 H5431 0.913 . S
C5413 H5389 0.950 . S
C5413 C5412 1.524 . S
C5413 C5414 1.415 . S
C5414 H5390 0.950 . S
C5414 C5409 1.363 . S
C5414 C5413 1.415 . S
C5415 H5391 0.951 . S
C5415 C5416 1.366 . S
C5415 C5417 1.388 . S
C5416 C5415 1.366 . S
C5416 C5420 1.385 . S
C5417 H5392 0.951 . S
C5417 C5415 1.388 . S
C5417 C5418 1.366 . S
C5418 C5417 1.366 . S
C5418 C5419 1.414 . S
C5418 C5421 1.499 . S
C5419 H5393 0.950 . S
C5419 C5418 1.414 . S
C5419 C5420 1.374 . S
C5420 H5394 0.950 . S
C5420 C5416 1.385 . S
C5420 C5419 1.374 . S
C5421 C5418 1.499 . S
C5421 C5422 1.373 . S
C5421 C5423 1.389 . S
C5422 H5395 0.950 . S
C5422 C5408 1.377 . S
C5422 C5421 1.373 . S
C5423 C5407 1.377 . S
C5423 C5421 1.389 . S
C5423 C5424 1.524 . S
C5424 C5423 1.524 . S
C5424 C5425 1.397 . S
C5424 C5429 1.363 . S
C5425 H5396 0.950 . S
C5425 C5424 1.397 . S
C5425 C5426 1.334 . S
C5426 H5397 0.950 . S
C5426 C5425 1.334 . S
C5426 C5427 1.287 . S
C5427 C5426 1.287 . S
C5427 C5428 1.524 . S
C5427 H5430 0.999 . S
C5428 H5398 0.950 . S
C5428 C5427 1.524 . S
C5428 C5429 1.415 . S
C5429 H5399 0.950 . S
C5429 C5424 1.363 . S
C5429 C5428 1.415 . S
H5430 C5427 0.999 . S
H5431 C5412 0.913 . S
H5432 C5450 0.951 . S
H5433 C5452 0.951 . S
H5434 C5454 0.950 . S
H5435 C5455 0.950 . S
H5436 C5457 0.950 . S
H5437 C5460 0.950 . S
H5438 C5461 0.950 . S
H5439 C5463 0.950 . S
H5440 C5464 0.950 . S
H5441 C5465 0.951 . S
H5442 C5467 0.951 . S
H5443 C5469 0.950 . S
H5444 C5470 0.950 . S
H5445 C5472 0.950 . S
H5446 C5475 0.950 . S
H5447 C5476 0.950 . S
H5448 C5478 0.950 . S
H5449 C5479 0.950 . S
C5450 H5432 0.951 . S
C5450 C5451 1.366 . S
C5450 C5452 1.388 . S
C5451 C5450 1.366 . S
C5451 C5455 1.385 . S
C5452 H5433 0.951 . S
C5452 C5450 1.388 . S
C5452 C5453 1.366 . S
C5453 C5452 1.366 . S
C5453 C5454 1.414 . S
C5453 C5456 1.499 . S
C5454 H5434 0.950 . S
C5454 C5453 1.414 . S
C5454 C5455 1.374 . S
C5455 H5435 0.950 . S
C5455 C5451 1.385 . S
C5455 C5454 1.374 . S
C5456 C5453 1.499 . S
C5456 C5457 1.373 . S
C5456 C5458 1.389 . S
C5457 H5436 0.950 . S
C5457 C5456 1.373 . S
C5457 C5473 1.377 . S
C5458 C5456 1.389 . S
C5458 C5459 1.524 . S
C5458 C5472 1.377 . S
C5459 C5458 1.524 . S
C5459 C5460 1.397 . S
C5459 C5464 1.363 . S
C5460 H5437 0.950 . S
C5460 C5459 1.397 . S
C5460 C5461 1.334 . S
C5461 H5438 0.950 . S
C5461 C5460 1.334 . S
C5461 C5462 1.287 . S
C5462 C5461 1.287 . S
C5462 C5463 1.524 . S
C5462 H5481 0.913 . S
C5463 H5439 0.950 . S
C5463 C5462 1.524 . S
C5463 C5464 1.415 . S
C5464 H5440 0.950 . S
C5464 C5459 1.363 . S
C5464 C5463 1.415 . S
C5465 H5441 0.951 . S
C5465 C5466 1.366 . S
C5465 C5467 1.388 . S
C5466 C5465 1.366 . S
C5466 C5470 1.385 . S
C5467 H5442 0.951 . S
C5467 C5465 1.388 . S
C5467 C5468 1.366 . S
C5468 C5467 1.366 . S
C5468 C5469 1.414 . S
C5468 C5471 1.499 . S
C5469 H5443 0.950 . S
C5469 C5468 1.414 . S
C5469 C5470 1.374 . S
C5470 H5444 0.950 . S
C5470 C5466 1.385 . S
C5470 C5469 1.374 . S
C5471 C5468 1.499 . S
C5471 C5472 1.373 . S
C5471 C5473 1.389 . S
C5472 H5445 0.950 . S
C5472 C5458 1.377 . S
C5472 C5471 1.373 . S
C5473 C5457 1.377 . S
C5473 C5471 1.389 . S
C5473 C5474 1.524 . S
C5474 C5473 1.524 . S
C5474 C5475 1.397 . S
C5474 C5479 1.363 . S
C5475 H5446 0.950 . S
C5475 C5474 1.397 . S
C5475 C5476 1.334 . S
C5476 H5447 0.950 . S
C5476 C5475 1.334 . S
C5476 C5477 1.287 . S
C5477 C5476 1.287 . S
C5477 C5478 1.524 . S
C5477 H5480 0.999 . S
C5478 H5448 0.950 . S
C5478 C5477 1.524 . S
C5478 C5479 1.415 . S
C5479 H5449 0.950 . S
C5479 C5474 1.363 . S
C5479 C5478 1.415 . S
H5480 C5477 0.999 . S
H5481 C5462 0.913 . S
H5482 C5500 0.951 . S
H5483 C5502 0.951 . S
H5484 C5504 0.950 . S
H5485 C5505 0.950 . S
H5486 C5507 0.950 . S
H5487 C5510 0.950 . S
H5488 C5511 0.950 . S
H5489 C5513 0.950 . S
H5490 C5514 0.950 . S
H5491 C5515 0.951 . S
H5492 C5517 0.951 . S
H5493 C5519 0.950 . S
H5494 C5520 0.950 . S
H5495 C5522 0.950 . S
H5496 C5525 0.950 . S
H5497 C5526 0.950 . S
H5498 C5528 0.950 . S
H5499 C5529 0.950 . S
C5500 H5482 0.951 . S
C5500 C5501 1.366 . S
C5500 C5502 1.388 . S
C5501 C5500 1.366 . S
C5501 C5505 1.385 . S
C5502 H5483 0.951 . S
C5502 C5500 1.388 . S
C5502 C5503 1.366 . S
C5503 C5502 1.366 . S
C5503 C5504 1.414 . S
C5503 C5506 1.499 . S
C5504 H5484 0.950 . S
C5504 C5503 1.414 . S
C5504 C5505 1.374 . S
C5505 H5485 0.950 . S
C5505 C5501 1.385 . S
C5505 C5504 1.374 . S
C5506 C5503 1.499 . S
C5506 C5507 1.373 . S
C5506 C5508 1.389 . S
C5507 H5486 0.950 . S
C5507 C5506 1.373 . S
C5507 C5523 1.377 . S
C5508 C5506 1.389 . S
C5508 C5509 1.524 . S
C5508 C5522 1.377 . S
C5509 C5508 1.524 . S
C5509 C5510 1.397 . S
C5509 C5514 1.363 . S
C5510 H5487 0.950 . S
C5510 C5509 1.397 . S
C5510 C5511 1.334 . S
C5511 H5488 0.950 . S
C5511 C5510 1.334 . S
C5511 C5512 1.287 . S
C5512 C5511 1.287 . S
C5512 C5513 1.524 . S
C5512 H5531 0.913 . S
C5513 H5489 0.950 . S
C5513 C5512 1.524 . S
C5513 C5514 1.415 . S
C5514 H5490 0.950 . S
C5514 C5509 1.363 . S
C5514 C5513 1.415 . S
C5515 H5491 0.951 . S
C5515 C5516 1.366 . S
C5515 C5517 1.388 . S
C5516 C5515 1.366 . S
C5516 C5520 1.385 . S
C5517 H5492 0.951 . S
C5517 C5515 1.388 . S
C5517 C5518 1.366 . S
C5518 C5517 1.366 . S
C5518 C5519 1.414 . S
C5518 C5521 1.499 . S
C5519 H5493 0.950 . S
C5519 C5518 1.414 . S
C5519 C5520 1.374 . S
C5520 H5494 0.950 . S
C5520 C5516 1.385 . S
C5520 C5519 1.374 . S
C5521 C5518 1.499 . S
C5521 C5522 1.373 . S
C5521 C5523 1.389 . S
C5522 H5495 0.950 . S
C5522 C5508 1.377 . S
C5522 C5521 1.373 . S
C5523 C5507 1.377 . S
C5523 C5521 1.389 . S
C5523 C5524 1.524 . S
C5524 C5523 1.524 . S
C5524 C5525 1.397 . S
C5524 C5529 1.363 . S
C5525 H5496 0.950 . S
C5525 C5524 1.397 . S
C5525 C5526 1.334 . S
C5526 H5497 0.950 . S
C5526 C5525 1.334 . S
C5526 C5527 1.287 . S
C5527 C5526 1.287 . S
C5527 C5528 1.524 . S
C5527 H5530 0.999 . S
C5528 H5498 0.950 . S
C5528 C5527 1.524 . S
C5528 C5529 1.415 . S
C5529 H5499 0.950 . S
C5529 C5524 1.363 . S
C5529 C5528 1.415 . S
H5530 C5527 0.999 . S
H5531 C5512 0.913 . S
H5532 C5550 0.951 . S
H5533 C5552 0.951 . S
H5534 C5554 0.950 . S
H5535 C5555 0.950 . S
H5536 C5557 0.950 . S
H5537 C5560 0.950 . S
H5538 C5561 0.950 . S
H5539 C5563 0.950 . S
H5540 C5564 0.950 . S
H5541 C5565 0.951 . S
H5542 C5567 0.951 . S
H5543 C5569 0.950 . S
H5544 C5570 0.950 . S
H5545 C5572 0.950 . S
H5546 C5575 0.950 . S
H5547 C5576 0.950 . S
H5548 C5578 0.950 . S
H5549 C5579 0.950 . S
C5550 H5532 0.951 . S
C5550 C5551 1.366 . S
C5550 C5552 1.388 . S
C5551 C5550 1.366 . S
C5551 C5555 1.385 . S
C5552 H5533 0.951 . S
C5552 C5550 1.388 . S
C5552 C5553 1.366 . S
C5553 C5552 1.366 . S
C5553 C5554 1.414 . S
C5553 C5556 1.499 . S
C5554 H5534 0.950 . S
C5554 C5553 1.414 . S
C5554 C5555 1.374 . S
C5555 H5535 0.950 . S
C5555 C5551 1.385 . S
C5555 C5554 1.374 . S
C5556 C5553 1.499 . S
C5556 C5557 1.373 . S
C5556 C5558 1.389 . S
C5557 H5536 0.950 . S
C5557 C5556 1.373 . S
C5557 C5573 1.377 . S
C5558 C5556 1.389 . S
C5558 C5559 1.524 . S
C5558 C5572 1.377 . S
C5559 C5558 1.524 . S
C5559 C5560 1.397 . S
C5559 C5564 1.363 . S
C5560 H5537 0.950 . S
C5560 C5559 1.397 . S
C5560 C5561 1.334 . S
C5561 H5538 0.950 . S
C5561 C5560 1.334 . S
C5561 C5562 1.287 . S
C5562 C5561 1.287 . S
C5562 C5563 1.524 . S
C5562 H5581 0.913 . S
C5563 H5539 0.950 . S
C5563 C5562 1.524 . S
C5563 C5564 1.415 . S
C5564 H5540 0.950 . S
C5564 C5559 1.363 . S
C5564 C5563 1.415 . S
C5565 H5541 0.951 . S
C5565 C5566 1.366 . S
C5565 C5567 1.388 . S
C5566 C5565 1.366 . S
C5566 C5570 1.385 . S
C5567 H5542 0.951 . S
C5567 C5565 1.388 . S
C5567 C5568 1.366 . S
C5568 C5567 1.366 . S
C5568 C5569 1.414 . S
C5568 C5571 1.499 . S
C5569 H5543 0.950 . S
C5569 C5568 1.414 . S
C5569 C5570 1.374 . S
C5570 H5544 0.950 . S
C5570 C5566 1.385 . S
C5570 C5569 1.374 . S
C5571 C5568 1.499 . S
C5571 C5572 1.373 . S
C5571 C5573 1.389 . S
C5572 H5545 0.950 . S
C5572 C5558 1.377 . S
C5572 C5571 1.373 . S
C5573 C5557 1.377 . S
C5573 C5571 1.389 . S
C5573 C5574 1.524 . S
C5574 C5573 1.524 . S
C5574 C5575 1.397 . S
C5574 C5579 1.363 . S
C5575 H5546 0.950 . S
C5575 C5574 1.397 . S
C5575 C5576 1.334 . S
C5576 H5547 0.950 . S
C5576 C5575 1.334 . S
C5576 C5577 1.287 . S
C5577 C5576 1.287 . S
C5577 C5578 1.524 . S
C5577 H5580 0.999 . S
C5578 H5548 0.950 . S
C5578 C5577 1.524 . S
C5578 C5579 1.415 . S
C5579 H5549 0.950 . S
C5579 C5574 1.363 . S
C5579 C5578 1.415 . S
H5580 C5577 0.999 . S
H5581 C5562 0.913 . S
H5582 C5600 0.951 . S
H5583 C5602 0.951 . S
H5584 C5604 0.950 . S
H5585 C5605 0.950 . S
H5586 C5607 0.950 . S
H5587 C5610 0.950 . S
H5588 C5611 0.950 . S
H5589 C5613 0.950 . S
H5590 C5614 0.950 . S
H5591 C5615 0.951 . S
H5592 C5617 0.951 . S
H5593 C5619 0.950 . S
H5594 C5620 0.950 . S
H5595 C5622 0.950 . S
H5596 C5625 0.950 . S
H5597 C5626 0.950 . S
H5598 C5628 0.950 . S
H5599 C5629 0.950 . S
C5600 H5582 0.951 . S
C5600 C5601 1.366 . S
C5600 C5602 1.388 . S
C5601 C5600 1.366 . S
C5601 C5605 1.385 . S
C5602 H5583 0.951 . S
C5602 C5600 1.388 . S
C5602 C5603 1.366 . S
C5603 C5602 1.366 . S
C5603 C5604 1.414 . S
C5603 C5606 1.499 . S
C5604 H5584 0.950 . S
C5604 C5603 1.414 . S
C5604 C5605 1.374 . S
C5605 H5585 0.950 . S
C5605 C5601 1.385 . S
C5605 C5604 1.374 . S
C5606 C5603 1.499 . S
C5606 C5607 1.373 . S
C5606 C5608 1.389 . S
C5607 H5586 0.950 . S
C5607 C5606 1.373 . S
C5607 C5623 1.377 . S
C5608 C5606 1.389 . S
C5608 C5609 1.524 . S
C5608 C5622 1.377 . S
C5609 C5608 1.524 . S
C5609 C5610 1.397 . S
C5609 C5614 1.363 . S
C5610 H5587 0.950 . S
C5610 C5609 1.397 . S
C5610 C5611 1.334 . S
C5611 H5588 0.950 . S
C5611 C5610 1.334 . S
C5611 C5612 1.287 . S
C5612 C5611 1.287 . S
C5612 C5613 1.524 . S
C5612 H5631 0.913 . S
C5613 H5589 0.950 . S
C5613 C5612 1.524 . S
C5613 C5614 1.415 . S
C5614 H5590 0.950 . S
C5614 C5609 1.363 . S
C5614 C5613 1.415 . S
C5615 H5591 0.951 . S
C5615 C5616 1.366 . S
C5615 C5617 1.388 . S
C5616 C5615 1.366 . S
C5616 C5620 1.385 . S
C5617 H5592 0.951 . S
C5617 C5615 1.388 . S
C5617 C5618 1.366 . S
C5618 C5617 1.366 . S
C5618 C5619 1.414 . S
C5618 C5621 1.499 . S
C5619 H5593 0.950 . S
C5619 C5618 1.414 . S
C5619 C5620 1.374 . S
C5620 H5594 0.950 . S
C5620 C5616 1.385 . S
C5620 C5619 1.374 . S
C5621 C5618 1.499 . S
C5621 C5622 1.373 . S
C5621 C5623 1.389 . S
C5622 H5595 0.950 . S
C5622 C5608 1.377 . S
C5622 C5621 1.373 . S
C5623 C5607 1.377 . S
C5623 C5621 1.389 . S
C5623 C5624 1.524 . S
C5624 C5623 1.524 . S
C5624 C5625 1.397 . S
C5624 C5629 1.363 . S
C5625 H5596 0.950 . S
C5625 C5624 1.397 . S
C5625 C5626 1.334 . S
C5626 H5597 0.950 . S
C5626 C5625 1.334 . S
C5626 C5627 1.287 . S
C5627 C5626 1.287 . S
C5627 C5628 1.524 . S
C5627 H5630 0.999 . S
C5628 H5598 0.950 . S
C5628 C5627 1.524 . S
C5628 C5629 1.415 . S
C5629 H5599 0.950 . S
C5629 C5624 1.363 . S
C5629 C5628 1.415 . S
H5630 C5627 0.999 . S
H5631 C5612 0.913 . S
H5632 C5650 0.951 . S
H5633 C5652 0.951 . S
H5634 C5654 0.950 . S
H5635 C5655 0.950 . S
H5636 C5657 0.950 . S
H5637 C5660 0.950 . S
H5638 C5661 0.950 . S
H5639 C5663 0.950 . S
H5640 C5664 0.950 . S
H5641 C5665 0.951 . S
H5642 C5667 0.951 . S
H5643 C5669 0.950 . S
H5644 C5670 0.950 . S
H5645 C5672 0.950 . S
H5646 C5675 0.950 . S
H5647 C5676 0.950 . S
H5648 C5678 0.950 . S
H5649 C5679 0.950 . S
C5650 H5632 0.951 . S
C5650 C5651 1.366 . S
C5650 C5652 1.388 . S
C5651 C5650 1.366 . S
C5651 C5655 1.385 . S
C5652 H5633 0.951 . S
C5652 C5650 1.388 . S
C5652 C5653 1.366 . S
C5653 C5652 1.366 . S
C5653 C5654 1.414 . S
C5653 C5656 1.499 . S
C5654 H5634 0.950 . S
C5654 C5653 1.414 . S
C5654 C5655 1.374 . S
C5655 H5635 0.950 . S
C5655 C5651 1.385 . S
C5655 C5654 1.374 . S
C5656 C5653 1.499 . S
C5656 C5657 1.373 . S
C5656 C5658 1.389 . S
C5657 H5636 0.950 . S
C5657 C5656 1.373 . S
C5657 C5673 1.377 . S
C5658 C5656 1.389 . S
C5658 C5659 1.524 . S
C5658 C5672 1.377 . S
C5659 C5658 1.524 . S
C5659 C5660 1.397 . S
C5659 C5664 1.363 . S
C5660 H5637 0.950 . S
C5660 C5659 1.397 . S
C5660 C5661 1.334 . S
C5661 H5638 0.950 . S
C5661 C5660 1.334 . S
C5661 C5662 1.287 . S
C5662 C5661 1.287 . S
C5662 C5663 1.524 . S
C5662 H5681 0.913 . S
C5663 H5639 0.950 . S
C5663 C5662 1.524 . S
C5663 C5664 1.415 . S
C5664 H5640 0.950 . S
C5664 C5659 1.363 . S
C5664 C5663 1.415 . S
C5665 H5641 0.951 . S
C5665 C5666 1.366 . S
C5665 C5667 1.388 . S
C5666 C5665 1.366 . S
C5666 C5670 1.385 . S
C5667 H5642 0.951 . S
C5667 C5665 1.388 . S
C5667 C5668 1.366 . S
C5668 C5667 1.366 . S
C5668 C5669 1.414 . S
C5668 C5671 1.499 . S
C5669 H5643 0.950 . S
C5669 C5668 1.414 . S
C5669 C5670 1.374 . S
C5670 H5644 0.950 . S
C5670 C5666 1.385 . S
C5670 C5669 1.374 . S
C5671 C5668 1.499 . S
C5671 C5672 1.373 . S
C5671 C5673 1.389 . S
C5672 H5645 0.950 . S
C5672 C5658 1.377 . S
C5672 C5671 1.373 . S
C5673 C5657 1.377 . S
C5673 C5671 1.389 . S
C5673 C5674 1.524 . S
C5674 C5673 1.524 . S
C5674 C5675 1.397 . S
C5674 C5679 1.363 . S
C5675 H5646 0.950 . S
C5675 C5674 1.397 . S
C5675 C5676 1.334 . S
C5676 H5647 0.950 . S
C5676 C5675 1.334 . S
C5676 C5677 1.287 . S
C5677 C5676 1.287 . S
C5677 C5678 1.524 . S
C5677 H5680 0.999 . S
C5678 H5648 0.950 . S
C5678 C5677 1.524 . S
C5678 C5679 1.415 . S
C5679 H5649 0.950 . S
C5679 C5674 1.363 . S
C5679 C5678 1.415 . S
H5680 C5677 0.999 . S
H5681 C5662 0.913 . S
H5682 C5700 0.951 . S
H5683 C5702 0.951 . S
H5684 C5704 0.950 . S
H5685 C5705 0.950 . S
H5686 C5707 0.950 . S
H5687 C5710 0.950 . S
H5688 C5711 0.950 . S
H5689 C5713 0.950 . S
H5690 C5714 0.950 . S
H5691 C5715 0.951 . S
H5692 C5717 0.951 . S
H5693 C5719 0.950 . S
H5694 C5720 0.950 . S
H5695 C5722 0.950 . S
H5696 C5725 0.950 . S
H5697 C5726 0.950 . S
H5698 C5728 0.950 . S
H5699 C5729 0.950 . S
C5700 H5682 0.951 . S
C5700 C5701 1.366 . S
C5700 C5702 1.388 . S
C5701 C5700 1.366 . S
C5701 C5705 1.385 . S
C5702 H5683 0.951 . S
C5702 C5700 1.388 . S
C5702 C5703 1.366 . S
C5703 C5702 1.366 . S
C5703 C5704 1.414 . S
C5703 C5706 1.499 . S
C5704 H5684 0.950 . S
C5704 C5703 1.414 . S
C5704 C5705 1.374 . S
C5705 H5685 0.950 . S
C5705 C5701 1.385 . S
C5705 C5704 1.374 . S
C5706 C5703 1.499 . S
C5706 C5707 1.373 . S
C5706 C5708 1.389 . S
C5707 H5686 0.950 . S
C5707 C5706 1.373 . S
C5707 C5723 1.377 . S
C5708 C5706 1.389 . S
C5708 C5709 1.524 . S
C5708 C5722 1.377 . S
C5709 C5708 1.524 . S
C5709 C5710 1.397 . S
C5709 C5714 1.363 . S
C5710 H5687 0.950 . S
C5710 C5709 1.397 . S
C5710 C5711 1.334 . S
C5711 H5688 0.950 . S
C5711 C5710 1.334 . S
C5711 C5712 1.287 . S
C5712 C5711 1.287 . S
C5712 C5713 1.524 . S
C5712 H5731 0.913 . S
C5713 H5689 0.950 . S
C5713 C5712 1.524 . S
C5713 C5714 1.415 . S
C5714 H5690 0.950 . S
C5714 C5709 1.363 . S
C5714 C5713 1.415 . S
C5715 H5691 0.951 . S
C5715 C5716 1.366 . S
C5715 C5717 1.388 . S
C5716 C5715 1.366 . S
C5716 C5720 1.385 . S
C5717 H5692 0.951 . S
C5717 C5715 1.388 . S
C5717 C5718 1.366 . S
C5718 C5717 1.366 . S
C5718 C5719 1.414 . S
C5718 C5721 1.499 . S
C5719 H5693 0.950 . S
C5719 C5718 1.414 . S
C5719 C5720 1.374 . S
C5720 H5694 0.950 . S
C5720 C5716 1.385 . S
C5720 C5719 1.374 . S
C5721 C5718 1.499 . S
C5721 C5722 1.373 . S
C5721 C5723 1.389 . S
C5722 H5695 0.950 . S
C5722 C5708 1.377 . S
C5722 C5721 1.373 . S
C5723 C5707 1.377 . S
C5723 C5721 1.389 . S
C5723 C5724 1.524 . S
C5724 C5723 1.524 . S
C5724 C5725 1.397 . S
C5724 C5729 1.363 . S
C5725 H5696 0.950 . S
C5725 C5724 1.397 . S
C5725 C5726 1.334 . S
C5726 H5697 0.950 . S
C5726 C5725 1.334 . S
C5726 C5727 1.287 . S
C5727 C5726 1.287 . S
C5727 C5728 1.524 . S
C5727 H5730 0.999 . S
C5728 H5698 0.950 . S
C5728 C5727 1.524 . S
C5728 C5729 1.415 . S
C5729 H5699 0.950 . S
C5729 C5724 1.363 . S
C5729 C5728 1.415 . S
H5730 C5727 0.999 . S
H5731 C5712 0.913 . S
H5732 C5750 0.951 . S
H5733 C5752 0.951 . S
H5734 C5754 0.950 . S
H5735 C5755 0.950 . S
H5736 C5757 0.950 . S
H5737 C5760 0.950 . S
H5738 C5761 0.950 . S
H5739 C5763 0.950 . S
H5740 C5764 0.950 . S
H5741 C5765 0.951 . S
H5742 C5767 0.951 . S
H5743 C5769 0.950 . S
H5744 C5770 0.950 . S
H5745 C5772 0.950 . S
H5746 C5775 0.950 . S
H5747 C5776 0.950 . S
H5748 C5778 0.950 . S
H5749 C5779 0.950 . S
C5750 H5732 0.951 . S
C5750 C5751 1.366 . S
C5750 C5752 1.388 . S
C5751 C5750 1.366 . S
C5751 C5755 1.385 . S
C5752 H5733 0.951 . S
C5752 C5750 1.388 . S
C5752 C5753 1.366 . S
C5753 C5752 1.366 . S
C5753 C5754 1.414 . S
C5753 C5756 1.499 . S
C5754 H5734 0.950 . S
C5754 C5753 1.414 . S
C5754 C5755 1.374 . S
C5755 H5735 0.950 . S
C5755 C5751 1.385 . S
C5755 C5754 1.374 . S
C5756 C5753 1.499 . S
C5756 C5757 1.373 . S
C5756 C5758 1.389 . S
C5757 H5736 0.950 . S
C5757 C5756 1.373 . S
C5757 C5773 1.377 . S
C5758 C5756 1.389 . S
C5758 C5759 1.524 . S
C5758 C5772 1.377 . S
C5759 C5758 1.524 . S
C5759 C5760 1.397 . S
C5759 C5764 1.363 . S
C5760 H5737 0.950 . S
C5760 C5759 1.397 . S
C5760 C5761 1.334 . S
C5761 H5738 0.950 . S
C5761 C5760 1.334 . S
C5761 C5762 1.287 . S
C5762 C5761 1.287 . S
C5762 C5763 1.524 . S
C5762 H5781 0.913 . S
C5763 H5739 0.950 . S
C5763 C5762 1.524 . S
C5763 C5764 1.415 . S
C5764 H5740 0.950 . S
C5764 C5759 1.363 . S
C5764 C5763 1.415 . S
C5765 H5741 0.951 . S
C5765 C5766 1.366 . S
C5765 C5767 1.388 . S
C5766 C5765 1.366 . S
C5766 C5770 1.385 . S
C5767 H5742 0.951 . S
C5767 C5765 1.388 . S
C5767 C5768 1.366 . S
C5768 C5767 1.366 . S
C5768 C5769 1.414 . S
C5768 C5771 1.499 . S
C5769 H5743 0.950 . S
C5769 C5768 1.414 . S
C5769 C5770 1.374 . S
C5770 H5744 0.950 . S
C5770 C5766 1.385 . S
C5770 C5769 1.374 . S
C5771 C5768 1.499 . S
C5771 C5772 1.373 . S
C5771 C5773 1.389 . S
C5772 H5745 0.950 . S
C5772 C5758 1.377 . S
C5772 C5771 1.373 . S
C5773 C5757 1.377 . S
C5773 C5771 1.389 . S
C5773 C5774 1.524 . S
C5774 C5773 1.524 . S
C5774 C5775 1.397 . S
C5774 C5779 1.363 . S
C5775 H5746 0.950 . S
C5775 C5774 1.397 . S
C5775 C5776 1.334 . S
C5776 H5747 0.950 . S
C5776 C5775 1.334 . S
C5776 C5777 1.287 . S
C5777 C5776 1.287 . S
C5777 C5778 1.524 . S
C5777 H5780 0.999 . S
C5778 H5748 0.950 . S
C5778 C5777 1.524 . S
C5778 C5779 1.415 . S
C5779 H5749 0.950 . S
C5779 C5774 1.363 . S
C5779 C5778 1.415 . S
H5780 C5777 0.999 . S
H5781 C5762 0.913 . S
H5782 C5800 0.951 . S
H5783 C5802 0.951 . S
H5784 C5804 0.950 . S
H5785 C5805 0.950 . S
H5786 C5807 0.950 . S
H5787 C5810 0.950 1_565 S
H5788 C5811 0.950 1_556 S
H5789 C5813 0.950 . S
H5790 C5814 0.950 . S
H5791 C5815 0.951 . S
H5792 C5817 0.951 . S
H5793 C5819 0.950 . S
H5794 C5820 0.950 . S
H5795 C5822 0.950 . S
H5796 C5825 0.950 . S
H5797 C5826 0.950 . S
H5798 C5828 0.950 . S
H5799 C5829 0.950 . S
C5800 H5782 0.951 . S
C5800 C5801 1.366 . S
C5800 C5802 1.388 . S
C5801 C5800 1.366 . S
C5801 C5805 1.385 . S
C5802 H5783 0.951 . S
C5802 C5800 1.388 . S
C5802 C5803 1.366 . S
C5803 C5802 1.366 . S
C5803 C5804 1.414 . S
C5803 C5806 1.499 . S
C5804 H5784 0.950 . S
C5804 C5803 1.414 . S
C5804 C5805 1.374 . S
C5805 H5785 0.950 . S
C5805 C5801 1.385 . S
C5805 C5804 1.374 . S
C5806 C5803 1.499 . S
C5806 C5807 1.373 . S
C5806 C5808 1.389 . S
C5807 H5786 0.950 . S
C5807 C5806 1.373 . S
C5807 C5823 1.377 . S
C5808 C5806 1.389 . S
C5808 C5809 1.524 1_565 S
C5808 C5822 1.377 1_565 S
C5809 C5808 1.524 1_545 S
C5809 C5810 1.397 . S
C5809 C5814 1.363 . S
C5810 H5787 0.950 1_545 S
C5810 C5809 1.397 . S
C5810 C5811 1.334 . S
C5811 H5788 0.950 1_554 S
C5811 C5810 1.334 . S
C5811 C5812 1.287 . S
C5812 C5811 1.287 . S
C5812 C5813 1.524 . S
C5812 H5831 0.913 . S
C5813 H5789 0.950 . S
C5813 C5812 1.524 . S
C5813 C5814 1.415 . S
C5814 H5790 0.950 . S
C5814 C5809 1.363 . S
C5814 C5813 1.415 . S
C5815 H5791 0.951 . S
C5815 C5816 1.366 1_565 S
C5815 C5817 1.388 . S
C5816 C5815 1.366 1_545 S
C5816 C5820 1.385 . S
C5817 H5792 0.951 . S
C5817 C5815 1.388 . S
C5817 C5818 1.378 . S
C5818 C5817 1.378 . S
C5818 C5819 1.396 1_565 S
C5818 C5821 1.504 . S
C5819 H5793 0.950 . S
C5819 C5818 1.396 1_545 S
C5819 C5820 1.374 . S
C5820 H5794 0.950 . S
C5820 C5816 1.385 . S
C5820 C5819 1.374 . S
C5821 C5818 1.504 . S
C5821 C5822 1.373 1_565 S
C5821 C5823 1.389 . S
C5822 H5795 0.950 . S
C5822 C5808 1.377 1_545 S
C5822 C5821 1.373 1_545 S
C5823 C5807 1.377 . S
C5823 C5821 1.389 . S
C5823 C5824 1.524 . S
C5824 C5823 1.524 . S
C5824 C5825 1.397 . S
C5824 C5829 1.363 . S
C5825 H5796 0.950 . S
C5825 C5824 1.397 . S
C5825 C5826 1.334 . S
C5826 H5797 0.950 . S
C5826 C5825 1.334 . S
C5826 C5827 1.287 . S
C5827 C5826 1.287 . S
C5827 C5828 1.524 . S
C5827 H5830 0.999 . S
C5828 H5798 0.950 . S
C5828 C5827 1.524 . S
C5828 C5829 1.415 . S
C5829 H5799 0.950 . S
C5829 C5824 1.363 . S
C5829 C5828 1.415 . S
H5830 C5827 0.999 . S
H5831 C5812 0.913 . S
H5832 C5850 0.951 . S
H5833 C5852 0.951 . S
H5834 C5854 0.950 . S
H5835 C5855 0.950 . S
H5836 C5857 0.950 . S
H5837 C5860 0.950 . S
H5838 C5861 0.950 . S
H5839 C5863 0.950 . S
H5840 C5864 0.950 . S
H5841 C5865 0.951 . S
H5842 C5867 0.951 . S
H5843 C5869 0.950 . S
H5844 C5870 0.950 . S
H5845 C5872 0.950 . S
H5846 C5875 0.950 . S
H5847 C5876 0.950 . S
H5848 C5878 0.950 . S
H5849 C5879 0.950 . S
C5850 H5832 0.951 . S
C5850 C5851 1.366 . S
C5850 C5852 1.388 . S
C5851 C5850 1.366 . S
C5851 C5855 1.385 . S
C5852 H5833 0.951 . S
C5852 C5850 1.388 . S
C5852 C5853 1.366 . S
C5853 C5852 1.366 . S
C5853 C5854 1.414 . S
C5853 C5856 1.499 . S
C5854 H5834 0.950 . S
C5854 C5853 1.414 . S
C5854 C5855 1.374 . S
C5855 H5835 0.950 . S
C5855 C5851 1.385 . S
C5855 C5854 1.374 . S
C5856 C5853 1.499 . S
C5856 C5857 1.373 . S
C5856 C5858 1.389 . S
C5857 H5836 0.950 . S
C5857 C5856 1.373 . S
C5857 C5873 1.377 . S
C5858 C5856 1.389 . S
C5858 C5859 1.524 . S
C5858 C5872 1.377 . S
C5859 C5858 1.524 . S
C5859 C5860 1.397 . S
C5859 C5864 1.363 . S
C5860 H5837 0.950 . S
C5860 C5859 1.397 . S
C5860 C5861 1.334 . S
C5861 H5838 0.950 . S
C5861 C5860 1.334 . S
C5861 C5862 1.287 . S
C5862 C5861 1.287 . S
C5862 C5863 1.524 . S
C5862 H5881 0.913 . S
C5863 H5839 0.950 . S
C5863 C5862 1.524 . S
C5863 C5864 1.415 . S
C5864 H5840 0.950 . S
C5864 C5859 1.363 . S
C5864 C5863 1.415 . S
C5865 H5841 0.951 . S
C5865 C5866 1.366 . S
C5865 C5867 1.388 . S
C5866 C5865 1.366 . S
C5866 C5870 1.385 . S
C5867 H5842 0.951 . S
C5867 C5865 1.388 . S
C5867 C5868 1.366 . S
C5868 C5867 1.366 . S
C5868 C5869 1.414 . S
C5868 C5871 1.499 . S
C5869 H5843 0.950 . S
C5869 C5868 1.414 . S
C5869 C5870 1.374 . S
C5870 H5844 0.950 . S
C5870 C5866 1.385 . S
C5870 C5869 1.374 . S
C5871 C5868 1.499 . S
C5871 C5872 1.373 . S
C5871 C5873 1.389 . S
C5872 H5845 0.950 . S
C5872 C5858 1.377 . S
C5872 C5871 1.373 . S
C5873 C5857 1.377 . S
C5873 C5871 1.389 . S
C5873 C5874 1.524 . S
C5874 C5873 1.524 . S
C5874 C5875 1.397 . S
C5874 C5879 1.363 . S
C5875 H5846 0.950 . S
C5875 C5874 1.397 . S
C5875 C5876 1.334 . S
C5876 H5847 0.950 . S
C5876 C5875 1.334 . S
C5876 C5877 1.287 . S
C5877 C5876 1.287 . S
C5877 C5878 1.524 . S
C5877 H5880 0.999 . S
C5878 H5848 0.950 . S
C5878 C5877 1.524 . S
C5878 C5879 1.415 . S
C5879 H5849 0.950 . S
C5879 C5874 1.363 . S
C5879 C5878 1.415 . S
H5880 C5877 0.999 . S
H5881 C5862 0.913 . S
H5882 C5900 0.951 1_556 S
H5883 C5902 0.964 . S
H5884 C5904 0.950 . S
H5885 C5905 0.950 . S
H5886 C5907 0.950 . S
H5887 C5910 0.950 . S
H5888 C5911 0.950 . S
H5889 C5913 0.950 . S
H5890 C5914 0.950 . S
H5891 C5915 0.951 . S
H5892 C5917 0.951 . S
H5893 C5919 0.950 . S
H5894 C5920 0.950 . S
H5895 C5922 0.950 1_556 S
H5896 C5925 0.950 . S
H5897 C5926 0.950 . S
H5898 C5928 0.950 . S
H5899 C5929 0.950 . S
C5900 H5882 0.951 1_554 S
C5900 C5901 1.366 . S
C5900 C5902 1.388 . S
C5901 C5900 1.366 . S
C5901 C5905 1.385 . S
C5902 H5883 0.964 . S
C5902 C5900 1.388 . S
C5902 C5903 1.366 . S
C5903 C5902 1.366 . S
C5903 C5904 1.414 . S
C5903 C5906 1.499 . S
C5904 H5884 0.950 . S
C5904 C5903 1.414 . S
C5904 C5905 1.374 . S
C5905 H5885 0.950 . S
C5905 C5901 1.385 . S
C5905 C5904 1.374 . S
C5906 C5903 1.499 . S
C5906 C5907 1.373 . S
C5906 C5908 1.389 . S
C5907 H5886 0.950 . S
C5907 C5906 1.373 . S
C5907 C5923 1.377 . S
C5908 C5906 1.389 . S
C5908 C5909 1.524 1_554 S
C5908 C5922 1.377 . S
C5909 C5908 1.524 1_556 S
C5909 C5910 1.397 . S
C5909 C5914 1.363 . S
C5910 H5887 0.950 . S
C5910 C5909 1.397 . S
C5910 C5911 1.334 . S
C5911 H5888 0.950 . S
C5911 C5910 1.334 . S
C5911 C5912 1.287 . S
C5912 C5911 1.287 . S
C5912 C5913 1.524 . S
C5912 H5931 0.913 . S
C5913 H5889 0.950 . S
C5913 C5912 1.524 . S
C5913 C5914 1.415 . S
C5914 H5890 0.950 . S
C5914 C5909 1.363 . S
C5914 C5913 1.415 . S
C5915 H5891 0.951 . S
C5915 C5916 1.366 . S
C5915 C5917 1.388 . S
C5916 C5915 1.366 . S
C5916 C5920 1.385 . S
C5917 H5892 0.951 . S
C5917 C5915 1.388 . S
C5917 C5918 1.366 . S
C5918 C5917 1.366 . S
C5918 C5919 1.414 . S
C5918 C5921 1.499 . S
C5919 H5893 0.950 . S
C5919 C5918 1.414 . S
C5919 C5920 1.374 . S
C5920 H5894 0.950 . S
C5920 C5916 1.385 . S
C5920 C5919 1.374 . S
C5921 C5918 1.499 . S
C5921 C5922 1.373 . S
C5921 C5923 1.389 . S
C5922 H5895 0.950 1_554 S
C5922 C5908 1.377 . S
C5922 C5921 1.373 . S
C5923 C5907 1.377 . S
C5923 C5921 1.389 . S
C5923 C5924 1.524 . S
C5924 C5923 1.524 . S
C5924 C5925 1.397 . S
C5924 C5929 1.363 . S
C5925 H5896 0.950 . S
C5925 C5924 1.397 . S
C5925 C5926 1.334 . S
C5926 H5897 0.950 . S
C5926 C5925 1.334 . S
C5926 C5927 1.287 . S
C5927 C5926 1.287 . S
C5927 C5928 1.524 . S
C5927 H5930 0.999 . S
C5928 H5898 0.950 . S
C5928 C5927 1.524 . S
C5928 C5929 1.415 . S
C5929 H5899 0.950 . S
C5929 C5924 1.363 . S
C5929 C5928 1.415 . S
H5930 C5927 0.999 . S
H5931 C5912 0.913 . S
H5932 C5950 0.951 . S
H5933 C5952 0.951 . S
H5934 C5954 0.950 . S
H5935 C5955 0.950 . S
H5936 C5957 0.950 . S
H5937 C5960 0.950 . S
H5938 C5961 0.950 . S
H5939 C5963 0.950 . S
H5940 C5964 0.950 . S
H5941 C5965 0.951 . S
H5942 C5967 0.951 . S
H5943 C5969 0.950 . S
H5944 C5970 0.950 . S
H5945 C5972 0.950 . S
H5946 C5975 0.950 . S
H5947 C5976 0.950 . S
H5948 C5978 0.950 . S
H5949 C5979 0.950 . S
C5950 H5932 0.951 . S
C5950 C5951 1.366 . S
C5950 C5952 1.388 . S
C5951 C5950 1.366 . S
C5951 C5955 1.385 . S
C5952 H5933 0.951 . S
C5952 C5950 1.388 . S
C5952 C5953 1.366 . S
C5953 C5952 1.366 . S
C5953 C5954 1.414 . S
C5953 C5956 1.499 . S
C5954 H5934 0.950 . S
C5954 C5953 1.414 . S
C5954 C5955 1.374 . S
C5955 H5935 0.950 . S
C5955 C5951 1.385 . S
C5955 C5954 1.374 . S
C5956 C5953 1.499 . S
C5956 C5957 1.373 . S
C5956 C5958 1.389 . S
C5957 H5936 0.950 . S
C5957 C5956 1.373 . S
C5957 C5973 1.377 . S
C5958 C5956 1.389 . S
C5958 C5959 1.524 . S
C5958 C5972 1.377 . S
C5959 C5958 1.524 . S
C5959 C5960 1.397 . S
C5959 C5964 1.363 . S
C5960 H5937 0.950 . S
C5960 C5959 1.397 . S
C5960 C5961 1.334 . S
C5961 H5938 0.950 . S
C5961 C5960 1.334 . S
C5961 C5962 1.287 . S
C5962 C5961 1.287 . S
C5962 C5963 1.524 . S
C5962 H5981 0.913 . S
C5963 H5939 0.950 . S
C5963 C5962 1.524 . S
C5963 C5964 1.415 . S
C5964 H5940 0.950 . S
C5964 C5959 1.363 . S
C5964 C5963 1.415 . S
C5965 H5941 0.951 . S
C5965 C5966 1.366 . S
C5965 C5967 1.388 . S
C5966 C5965 1.366 . S
C5966 C5970 1.385 . S
C5967 H5942 0.951 . S
C5967 C5965 1.388 . S
C5967 C5968 1.366 . S
C5968 C5967 1.366 . S
C5968 C5969 1.414 . S
C5968 C5971 1.499 . S
C5969 H5943 0.950 . S
C5969 C5968 1.414 . S
C5969 C5970 1.374 . S
C5970 H5944 0.950 . S
C5970 C5966 1.385 . S
C5970 C5969 1.374 . S
C5971 C5968 1.499 . S
C5971 C5972 1.373 . S
C5971 C5973 1.389 . S
C5972 H5945 0.950 . S
C5972 C5958 1.377 . S
C5972 C5971 1.373 . S
C5973 C5957 1.377 . S
C5973 C5971 1.389 . S
C5973 C5974 1.524 . S
C5974 C5973 1.524 . S
C5974 C5975 1.397 . S
C5974 C5979 1.363 . S
C5975 H5946 0.950 . S
C5975 C5974 1.397 . S
C5975 C5976 1.334 . S
C5976 H5947 0.950 . S
C5976 C5975 1.334 . S
C5976 C5977 1.287 . S
C5977 C5976 1.287 . S
C5977 C5978 1.524 . S
C5977 H5980 0.999 . S
C5978 H5948 0.950 . S
C5978 C5977 1.524 . S
C5978 C5979 1.415 . S
C5979 H5949 0.950 . S
C5979 C5974 1.363 . S
C5979 C5978 1.415 . S
H5980 C5977 0.999 . S
H5981 C5962 0.913 . S
H5982 C6000 0.951 . S
H5983 C6002 0.951 . S
H5984 C6004 0.950 . S
H5985 C6005 0.950 . S
H5986 C6007 0.950 . S
H5987 C6010 0.950 . S
H5988 C6011 0.950 . S
H5989 C6013 0.950 . S
H5990 C6014 0.950 . S
H5991 C6015 0.951 . S
H5992 C6017 0.951 . S
H5993 C6019 0.950 . S
H5994 C6020 0.950 . S
H5995 C6022 0.950 . S
H5996 C6025 0.950 . S
H5997 C6026 0.950 . S
H5998 C6028 0.950 . S
H5999 C6029 0.950 . S
C6000 H5982 0.951 . S
C6000 C6001 1.366 . S
C6000 C6002 1.388 . S
C6001 C6000 1.366 . S
C6001 C6005 1.385 . S
C6002 H5983 0.951 . S
C6002 C6000 1.388 . S
C6002 C6003 1.366 . S
C6003 C6002 1.366 . S
C6003 C6004 1.414 . S
C6003 C6006 1.499 . S
C6004 H5984 0.950 . S
C6004 C6003 1.414 . S
C6004 C6005 1.374 . S
C6005 H5985 0.950 . S
C6005 C6001 1.385 . S
C6005 C6004 1.374 . S
C6006 C6003 1.499 . S
C6006 C6007 1.373 . S
C6006 C6008 1.389 . S
C6007 H5986 0.950 . S
C6007 C6006 1.373 . S
C6007 C6023 1.377 . S
C6008 C6006 1.389 . S
C6008 C6009 1.524 . S
C6008 C6022 1.377 . S
C6009 C6008 1.524 . S
C6009 C6010 1.397 . S
C6009 C6014 1.363 . S
C6010 H5987 0.950 . S
C6010 C6009 1.397 . S
C6010 C6011 1.334 . S
C6011 H5988 0.950 . S
C6011 C6010 1.334 . S
C6011 C6012 1.287 . S
C6012 C6011 1.287 . S
C6012 C6013 1.524 . S
C6012 H6031 0.913 . S
C6013 H5989 0.950 . S
C6013 C6012 1.524 . S
C6013 C6014 1.415 . S
C6014 H5990 0.950 . S
C6014 C6009 1.363 . S
C6014 C6013 1.415 . S
C6015 H5991 0.951 . S
C6015 C6016 1.366 . S
C6015 C6017 1.388 . S
C6016 C6015 1.366 . S
C6016 C6020 1.385 . S
C6017 H5992 0.951 . S
C6017 C6015 1.388 . S
C6017 C6018 1.366 . S
C6018 C6017 1.366 . S
C6018 C6019 1.414 . S
C6018 C6021 1.499 . S
C6019 H5993 0.950 . S
C6019 C6018 1.414 . S
C6019 C6020 1.374 . S
C6020 H5994 0.950 . S
C6020 C6016 1.385 . S
C6020 C6019 1.374 . S
C6021 C6018 1.499 . S
C6021 C6022 1.373 . S
C6021 C6023 1.389 . S
C6022 H5995 0.950 . S
C6022 C6008 1.377 . S
C6022 C6021 1.373 . S
C6023 C6007 1.377 . S
C6023 C6021 1.389 . S
C6023 C6024 1.524 . S
C6024 C6023 1.524 . S
C6024 C6025 1.397 . S
C6024 C6029 1.363 . S
C6025 H5996 0.950 . S
C6025 C6024 1.397 . S
C6025 C6026 1.334 . S
C6026 H5997 0.950 . S
C6026 C6025 1.334 . S
C6026 C6027 1.287 . S
C6027 C6026 1.287 . S
C6027 C6028 1.524 . S
C6027 H6030 0.999 . S
C6028 H5998 0.950 . S
C6028 C6027 1.524 . S
C6028 C6029 1.415 . S
C6029 H5999 0.950 . S
C6029 C6024 1.363 . S
C6029 C6028 1.415 . S
H6030 C6027 0.999 . S
H6031 C6012 0.913 . S
H6032 C6050 0.951 . S
H6033 C6052 0.951 . S
H6034 C6054 0.950 . S
H6035 C6055 0.950 . S
H6036 C6057 0.950 . S
H6037 C6060 0.950 . S
H6038 C6061 0.950 . S
H6039 C6063 0.950 . S
H6040 C6064 0.950 . S
H6041 C6065 0.951 . S
H6042 C6067 0.951 . S
H6043 C6069 0.950 . S
H6044 C6070 0.950 . S
H6045 C6072 0.950 . S
H6046 C6075 0.950 . S
H6047 C6076 0.950 . S
H6048 C6078 0.950 . S
H6049 C6079 0.950 . S
C6050 H6032 0.951 . S
C6050 C6051 1.366 . S
C6050 C6052 1.388 . S
C6051 C6050 1.366 . S
C6051 C6055 1.385 . S
C6052 H6033 0.951 . S
C6052 C6050 1.388 . S
C6052 C6053 1.366 . S
C6053 C6052 1.366 . S
C6053 C6054 1.414 . S
C6053 C6056 1.499 . S
C6054 H6034 0.950 . S
C6054 C6053 1.414 . S
C6054 C6055 1.374 . S
C6055 H6035 0.950 . S
C6055 C6051 1.385 . S
C6055 C6054 1.374 . S
C6056 C6053 1.499 . S
C6056 C6057 1.373 . S
C6056 C6058 1.389 . S
C6057 H6036 0.950 . S
C6057 C6056 1.373 . S
C6057 C6073 1.377 . S
C6058 C6056 1.389 . S
C6058 C6059 1.524 . S
C6058 C6072 1.377 . S
C6059 C6058 1.524 . S
C6059 C6060 1.397 . S
C6059 C6064 1.363 . S
C6060 H6037 0.950 . S
C6060 C6059 1.397 . S
C6060 C6061 1.334 . S
C6061 H6038 0.950 . S
C6061 C6060 1.334 . S
C6061 C6062 1.287 . S
C6062 C6061 1.287 . S
C6062 C6063 1.524 . S
C6062 H6081 0.913 . S
C6063 H6039 0.950 . S
C6063 C6062 1.524 . S
C6063 C6064 1.415 . S
C6064 H6040 0.950 . S
C6064 C6059 1.363 . S
C6064 C6063 1.415 . S
C6065 H6041 0.951 . S
C6065 C6066 1.366 . S
C6065 C6067 1.388 . S
C6066 C6065 1.366 . S
C6066 C6070 1.385 . S
C6067 H6042 0.951 . S
C6067 C6065 1.388 . S
C6067 C6068 1.366 . S
C6068 C6067 1.366 . S
C6068 C6069 1.414 . S
C6068 C6071 1.499 . S
C6069 H6043 0.950 . S
C6069 C6068 1.414 . S
C6069 C6070 1.374 . S
C6070 H6044 0.950 . S
C6070 C6066 1.385 . S
C6070 C6069 1.374 . S
C6071 C6068 1.499 . S
C6071 C6072 1.373 . S
C6071 C6073 1.389 . S
C6072 H6045 0.950 . S
C6072 C6058 1.377 . S
C6072 C6071 1.373 . S
C6073 C6057 1.377 . S
C6073 C6071 1.389 . S
C6073 C6074 1.524 . S
C6074 C6073 1.524 . S
C6074 C6075 1.397 . S
C6074 C6079 1.363 . S
C6075 H6046 0.950 . S
C6075 C6074 1.397 . S
C6075 C6076 1.334 . S
C6076 H6047 0.950 . S
C6076 C6075 1.334 . S
C6076 C6077 1.287 . S
C6077 C6076 1.287 . S
C6077 C6078 1.524 . S
C6077 H6080 0.999 . S
C6078 H6048 0.950 . S
C6078 C6077 1.524 . S
C6078 C6079 1.415 . S
C6079 H6049 0.950 . S
C6079 C6074 1.363 . S
C6079 C6078 1.415 . S
H6080 C6077 0.999 . S
H6081 C6062 0.913 . S
H6082 C6100 0.951 . S
H6083 C6102 0.951 . S
H6084 C6104 0.950 . S
H6085 C6105 0.950 . S
H6086 C6107 0.950 . S
H6087 C6110 0.950 . S
H6088 C6111 0.950 . S
H6089 C6113 0.950 . S
H6090 C6114 0.950 . S
H6091 C6115 0.951 . S
H6092 C6117 0.951 . S
H6093 C6119 0.950 . S
H6094 C6120 0.950 . S
H6095 C6122 0.950 . S
H6096 C6125 0.950 . S
H6097 C6126 0.950 . S
H6098 C6128 0.950 . S
H6099 C6129 0.950 . S
C6100 H6082 0.951 . S
C6100 C6101 1.366 . S
C6100 C6102 1.388 . S
C6101 C6100 1.366 . S
C6101 C6105 1.385 . S
C6102 H6083 0.951 . S
C6102 C6100 1.388 . S
C6102 C6103 1.366 . S
C6103 C6102 1.366 . S
C6103 C6104 1.414 . S
C6103 C6106 1.499 . S
C6104 H6084 0.950 . S
C6104 C6103 1.414 . S
C6104 C6105 1.374 . S
C6105 H6085 0.950 . S
C6105 C6101 1.385 . S
C6105 C6104 1.374 . S
C6106 C6103 1.499 . S
C6106 C6107 1.373 . S
C6106 C6108 1.389 . S
C6107 H6086 0.950 . S
C6107 C6106 1.373 . S
C6107 C6123 1.377 . S
C6108 C6106 1.389 . S
C6108 C6109 1.524 . S
C6108 C6122 1.377 . S
C6109 C6108 1.524 . S
C6109 C6110 1.397 . S
C6109 C6114 1.363 . S
C6110 H6087 0.950 . S
C6110 C6109 1.397 . S
C6110 C6111 1.334 . S
C6111 H6088 0.950 . S
C6111 C6110 1.334 . S
C6111 C6112 1.287 . S
C6112 C6111 1.287 . S
C6112 C6113 1.524 . S
C6112 H6131 0.913 . S
C6113 H6089 0.950 . S
C6113 C6112 1.524 . S
C6113 C6114 1.415 . S
C6114 H6090 0.950 . S
C6114 C6109 1.363 . S
C6114 C6113 1.415 . S
C6115 H6091 0.951 . S
C6115 C6116 1.366 . S
C6115 C6117 1.388 . S
C6116 C6115 1.366 . S
C6116 C6120 1.385 . S
C6117 H6092 0.951 . S
C6117 C6115 1.388 . S
C6117 C6118 1.366 . S
C6118 C6117 1.366 . S
C6118 C6119 1.414 . S
C6118 C6121 1.499 . S
C6119 H6093 0.950 . S
C6119 C6118 1.414 . S
C6119 C6120 1.374 . S
C6120 H6094 0.950 . S
C6120 C6116 1.385 . S
C6120 C6119 1.374 . S
C6121 C6118 1.499 . S
C6121 C6122 1.373 . S
C6121 C6123 1.389 . S
C6122 H6095 0.950 . S
C6122 C6108 1.377 . S
C6122 C6121 1.373 . S
C6123 C6107 1.377 . S
C6123 C6121 1.389 . S
C6123 C6124 1.524 . S
C6124 C6123 1.524 . S
C6124 C6125 1.397 . S
C6124 C6129 1.363 . S
C6125 H6096 0.950 . S
C6125 C6124 1.397 . S
C6125 C6126 1.334 . S
C6126 H6097 0.950 . S
C6126 C6125 1.334 . S
C6126 C6127 1.287 . S
C6127 C6126 1.287 . S
C6127 C6128 1.524 . S
C6127 H6130 0.999 . S
C6128 H6098 0.950 . S
C6128 C6127 1.524 . S
C6128 C6129 1.415 . S
C6129 H6099 0.950 . S
C6129 C6124 1.363 . S
C6129 C6128 1.415 . S
H6130 C6127 0.999 . S
H6131 C6112 0.913 . S
H6132 C6150 0.951 . S
H6133 C6152 0.951 . S
H6134 C6154 0.950 . S
H6135 C6155 0.950 . S
H6136 C6157 0.950 . S
H6137 C6160 0.950 1_455 S
H6138 C6161 0.950 . S
H6139 C6163 0.950 . S
H6140 C6164 0.950 . S
H6141 C6165 0.951 . S
H6142 C6167 0.951 . S
H6143 C6169 0.950 . S
H6144 C6170 0.950 . S
H6145 C6172 0.949 1_655 S
H6146 C6175 0.950 . S
H6147 C6176 0.950 . S
H6148 C6178 0.950 . S
H6149 C6179 0.950 . S
C6150 H6132 0.951 . S
C6150 C6151 1.366 1_655 S
C6150 C6152 1.388 . S
C6151 C6150 1.366 1_455 S
C6151 C6155 1.385 . S
C6152 H6133 0.951 . S
C6152 C6150 1.388 . S
C6152 C6153 1.366 1_655 S
C6153 C6152 1.366 1_455 S
C6153 C6154 1.414 . S
C6153 C6156 1.499 . S
C6154 H6134 0.950 . S
C6154 C6153 1.414 . S
C6154 C6155 1.374 . S
C6155 H6135 0.950 . S
C6155 C6151 1.385 . S
C6155 C6154 1.374 . S
C6156 C6153 1.499 . S
C6156 C6157 1.373 . S
C6156 C6158 1.391 . S
C6157 H6136 0.950 . S
C6157 C6156 1.373 . S
C6157 C6173 1.377 . S
C6158 C6156 1.391 . S
C6158 C6159 1.523 1_455 S
C6158 C6172 1.376 . S
C6159 C6158 1.523 1_655 S
C6159 C6160 1.397 . S
C6159 C6164 1.363 . S
C6160 H6137 0.950 1_655 S
C6160 C6159 1.397 . S
C6160 C6161 1.334 . S
C6161 H6138 0.950 . S
C6161 C6160 1.334 . S
C6161 C6162 1.287 . S
C6162 C6161 1.287 . S
C6162 C6163 1.524 . S
C6162 H6181 0.913 . S
C6163 H6139 0.950 . S
C6163 C6162 1.524 . S
C6163 C6164 1.415 . S
C6164 H6140 0.950 . S
C6164 C6159 1.363 . S
C6164 C6163 1.415 . S
C6165 H6141 0.951 . S
C6165 C6166 1.366 . S
C6165 C6167 1.388 . S
C6166 C6165 1.366 . S
C6166 C6170 1.385 1_455 S
C6167 H6142 0.951 . S
C6167 C6165 1.388 . S
C6167 C6168 1.366 . S
C6168 C6167 1.366 . S
C6168 C6169 1.414 1_455 S
C6168 C6171 1.499 . S
C6169 H6143 0.950 . S
C6169 C6168 1.414 1_655 S
C6169 C6170 1.374 . S
C6170 H6144 0.950 . S
C6170 C6166 1.385 1_655 S
C6170 C6169 1.374 . S
C6171 C6168 1.499 . S
C6171 C6172 1.375 . S
C6171 C6173 1.389 . S
C6172 H6145 0.949 1_455 S
C6172 C6158 1.376 . S
C6172 C6171 1.375 . S
C6173 C6157 1.377 . S
C6173 C6171 1.389 . S
C6173 C6174 1.524 . S
C6174 C6173 1.524 . S
C6174 C6175 1.397 . S
C6174 C6179 1.363 . S
C6175 H6146 0.950 . S
C6175 C6174 1.397 . S
C6175 C6176 1.334 1_554 S
C6176 H6147 0.950 . S
C6176 C6175 1.334 1_556 S
C6176 C6177 1.287 . S
C6177 C6176 1.287 . S
C6177 C6178 1.524 1_556 S
C6177 H6180 0.999 . S
C6178 H6148 0.950 . S
C6178 C6177 1.524 1_554 S
C6178 C6179 1.415 . S
C6179 H6149 0.950 . S
C6179 C6174 1.363 . S
C6179 C6178 1.415 . S
H6180 C6177 0.999 . S
H6181 C6162 0.913 . S
H6182 C6200 0.951 . S
H6183 C6202 0.951 . S
H6184 C6204 0.950 . S
H6185 C6205 0.950 . S
H6186 C6207 0.950 . S
H6187 C6210 0.950 . S
H6188 C6211 0.950 . S
H6189 C6213 0.950 . S
H6190 C6214 0.950 . S
H6191 C6215 0.951 . S
H6192 C6217 0.951 . S
H6193 C6219 0.950 . S
H6194 C6220 0.950 . S
H6195 C6222 0.950 . S
H6196 C6225 0.950 . S
H6197 C6226 0.950 . S
H6198 C6228 0.950 . S
H6199 C6229 0.950 . S
C6200 H6182 0.951 . S
C6200 C6201 1.366 . S
C6200 C6202 1.388 . S
C6201 C6200 1.366 . S
C6201 C6205 1.385 . S
C6202 H6183 0.951 . S
C6202 C6200 1.388 . S
C6202 C6203 1.366 . S
C6203 C6202 1.366 . S
C6203 C6204 1.414 . S
C6203 C6206 1.499 . S
C6204 H6184 0.950 . S
C6204 C6203 1.414 . S
C6204 C6205 1.374 . S
C6205 H6185 0.950 . S
C6205 C6201 1.385 . S
C6205 C6204 1.374 . S
C6206 C6203 1.499 . S
C6206 C6207 1.373 . S
C6206 C6208 1.389 . S
C6207 H6186 0.950 . S
C6207 C6206 1.373 . S
C6207 C6223 1.377 . S
C6208 C6206 1.389 . S
C6208 C6209 1.524 . S
C6208 C6222 1.377 . S
C6209 C6208 1.524 . S
C6209 C6210 1.397 . S
C6209 C6214 1.363 . S
C6210 H6187 0.950 . S
C6210 C6209 1.397 . S
C6210 C6211 1.334 . S
C6211 H6188 0.950 . S
C6211 C6210 1.334 . S
C6211 C6212 1.287 . S
C6212 C6211 1.287 . S
C6212 C6213 1.524 . S
C6212 H6231 0.913 . S
C6213 H6189 0.950 . S
C6213 C6212 1.524 . S
C6213 C6214 1.415 . S
C6214 H6190 0.950 . S
C6214 C6209 1.363 . S
C6214 C6213 1.415 . S
C6215 H6191 0.951 . S
C6215 C6216 1.366 . S
C6215 C6217 1.388 . S
C6216 C6215 1.366 . S
C6216 C6220 1.385 . S
C6217 H6192 0.951 . S
C6217 C6215 1.388 . S
C6217 C6218 1.366 . S
C6218 C6217 1.366 . S
C6218 C6219 1.414 . S
C6218 C6221 1.499 . S
C6219 H6193 0.950 . S
C6219 C6218 1.414 . S
C6219 C6220 1.374 . S
C6220 H6194 0.950 . S
C6220 C6216 1.385 . S
C6220 C6219 1.374 . S
C6221 C6218 1.499 . S
C6221 C6222 1.373 . S
C6221 C6223 1.389 . S
C6222 H6195 0.950 . S
C6222 C6208 1.377 . S
C6222 C6221 1.373 . S
C6223 C6207 1.377 . S
C6223 C6221 1.389 . S
C6223 C6224 1.524 . S
C6224 C6223 1.524 . S
C6224 C6225 1.397 . S
C6224 C6229 1.363 . S
C6225 H6196 0.950 . S
C6225 C6224 1.397 . S
C6225 C6226 1.334 . S
C6226 H6197 0.950 . S
C6226 C6225 1.334 . S
C6226 C6227 1.287 . S
C6227 C6226 1.287 . S
C6227 C6228 1.524 . S
C6227 H6230 0.999 . S
C6228 H6198 0.950 . S
C6228 C6227 1.524 . S
C6228 C6229 1.415 . S
C6229 H6199 0.950 . S
C6229 C6224 1.363 . S
C6229 C6228 1.415 . S
H6230 C6227 0.999 . S
H6231 C6212 0.913 . S
H6232 C6250 0.951 . S
H6233 C6252 0.951 . S
H6234 C6254 0.950 . S
H6235 C6255 0.950 . S
H6236 C6257 0.950 . S
H6237 C6260 0.950 . S
H6238 C6261 0.950 . S
H6239 C6263 0.950 . S
H6240 C6264 0.978 . S
H6241 C6265 0.951 . S
H6242 C6267 0.951 . S
H6243 C6269 0.950 1_554 S
H6244 C6270 0.950 . S
H6245 C6272 0.950 . S
H6246 C6275 0.950 . S
H6247 C6276 0.950 . S
H6248 C6278 0.950 . S
H6249 C6279 0.950 . S
C6250 H6232 0.951 . S
C6250 C6251 1.366 . S
C6250 C6252 1.388 . S
C6251 C6250 1.366 . S
C6251 C6255 1.385 . S
C6252 H6233 0.951 . S
C6252 C6250 1.388 . S
C6252 C6253 1.366 . S
C6253 C6252 1.366 . S
C6253 C6254 1.414 . S
C6253 C6256 1.499 . S
C6254 H6234 0.950 . S
C6254 C6253 1.414 . S
C6254 C6255 1.374 . S
C6255 H6235 0.950 . S
C6255 C6251 1.385 . S
C6255 C6254 1.374 . S
C6256 C6253 1.499 . S
C6256 C6257 1.373 . S
C6256 C6258 1.389 . S
C6257 H6236 0.950 . S
C6257 C6256 1.373 . S
C6257 C6273 1.377 . S
C6258 C6256 1.389 . S
C6258 C6259 1.524 . S
C6258 C6272 1.377 . S
C6259 C6258 1.524 . S
C6259 C6260 1.397 . S
C6259 C6264 1.304 1_556 S
C6260 H6237 0.950 . S
C6260 C6259 1.397 . S
C6260 C6261 1.334 . S
C6261 H6238 0.950 . S
C6261 C6260 1.334 . S
C6261 C6262 1.287 1_556 S
C6262 C6261 1.287 1_554 S
C6262 C6263 1.524 . S
C6262 H6281 0.913 . S
C6263 H6239 0.950 . S
C6263 C6262 1.524 . S
C6263 C6264 1.450 . S
C6264 H6240 0.978 . S
C6264 C6259 1.304 1_554 S
C6264 C6263 1.450 . S
C6265 H6241 0.951 . S
C6265 C6266 1.366 . S
C6265 C6267 1.388 . S
C6266 C6265 1.366 . S
C6266 C6270 1.385 1_556 S
C6267 H6242 0.951 . S
C6267 C6265 1.388 . S
C6267 C6268 1.366 . S
C6268 C6267 1.366 . S
C6268 C6269 1.414 . S
C6268 C6271 1.499 . S
C6269 H6243 0.950 1_556 S
C6269 C6268 1.414 . S
C6269 C6270 1.374 1_556 S
C6270 H6244 0.950 . S
C6270 C6266 1.385 1_554 S
C6270 C6269 1.374 1_554 S
C6271 C6268 1.499 . S
C6271 C6272 1.373 . S
C6271 C6273 1.389 . S
C6272 H6245 0.950 . S
C6272 C6258 1.377 . S
C6272 C6271 1.373 . S
C6273 C6257 1.377 . S
C6273 C6271 1.389 . S
C6273 C6274 1.524 . S
C6274 C6273 1.524 . S
C6274 C6275 1.397 . S
C6274 C6279 1.363 . S
C6275 H6246 0.950 . S
C6275 C6274 1.397 . S
C6275 C6276 1.334 . S
C6276 H6247 0.950 . S
C6276 C6275 1.334 . S
C6276 C6277 1.287 . S
C6277 C6276 1.287 . S
C6277 C6278 1.524 . S
C6277 H6280 0.999 . S
C6278 H6248 0.950 . S
C6278 C6277 1.524 . S
C6278 C6279 1.415 . S
C6279 H6249 0.950 . S
C6279 C6274 1.363 . S
C6279 C6278 1.415 . S
H6280 C6277 0.999 . S
H6281 C6262 0.913 . S
H6282 C6300 0.951 . S
H6283 C6302 0.951 . S
H6284 C6304 0.950 . S
H6285 C6305 0.950 . S
H6286 C6307 0.950 . S
H6287 C6310 0.950 . S
H6288 C6311 0.950 . S
H6289 C6313 0.950 . S
H6290 C6314 0.950 . S
H6291 C6315 0.951 . S
H6292 C6317 0.951 . S
H6293 C6319 0.950 . S
H6294 C6320 0.950 . S
H6295 C6322 0.950 . S
H6296 C6325 0.950 . S
H6297 C6326 0.950 . S
H6298 C6328 0.950 . S
H6299 C6329 0.950 . S
C6300 H6282 0.951 . S
C6300 C6301 1.366 . S
C6300 C6302 1.388 . S
C6301 C6300 1.366 . S
C6301 C6305 1.385 . S
C6302 H6283 0.951 . S
C6302 C6300 1.388 . S
C6302 C6303 1.366 . S
C6303 C6302 1.366 . S
C6303 C6304 1.414 . S
C6303 C6306 1.499 . S
C6304 H6284 0.950 . S
C6304 C6303 1.414 . S
C6304 C6305 1.374 . S
C6305 H6285 0.950 . S
C6305 C6301 1.385 . S
C6305 C6304 1.374 . S
C6306 C6303 1.499 . S
C6306 C6307 1.373 . S
C6306 C6308 1.389 . S
C6307 H6286 0.950 . S
C6307 C6306 1.373 . S
C6307 C6323 1.377 . S
C6308 C6306 1.389 . S
C6308 C6309 1.524 . S
C6308 C6322 1.377 . S
C6309 C6308 1.524 . S
C6309 C6310 1.397 . S
C6309 C6314 1.363 . S
C6310 H6287 0.950 . S
C6310 C6309 1.397 . S
C6310 C6311 1.334 . S
C6311 H6288 0.950 . S
C6311 C6310 1.334 . S
C6311 C6312 1.287 . S
C6312 C6311 1.287 . S
C6312 C6313 1.524 . S
C6312 H6331 0.913 . S
C6313 H6289 0.950 . S
C6313 C6312 1.524 . S
C6313 C6314 1.415 . S
C6314 H6290 0.950 . S
C6314 C6309 1.363 . S
C6314 C6313 1.415 . S
C6315 H6291 0.951 . S
C6315 C6316 1.366 . S
C6315 C6317 1.388 . S
C6316 C6315 1.366 . S
C6316 C6320 1.385 . S
C6317 H6292 0.951 . S
C6317 C6315 1.388 . S
C6317 C6318 1.366 . S
C6318 C6317 1.366 . S
C6318 C6319 1.414 . S
C6318 C6321 1.499 . S
C6319 H6293 0.950 . S
C6319 C6318 1.414 . S
C6319 C6320 1.374 . S
C6320 H6294 0.950 . S
C6320 C6316 1.385 . S
C6320 C6319 1.374 . S
C6321 C6318 1.499 . S
C6321 C6322 1.373 . S
C6321 C6323 1.389 . S
C6322 H6295 0.950 . S
C6322 C6308 1.377 . S
C6322 C6321 1.373 . S
C6323 C6307 1.377 . S
C6323 C6321 1.389 . S
C6323 C6324 1.524 . S
C6324 C6323 1.524 . S
C6324 C6325 1.397 . S
C6324 C6329 1.363 . S
C6325 H6296 0.950 . S
C6325 C6324 1.397 . S
C6325 C6326 1.334 . S
C6326 H6297 0.950 . S
C6326 C6325 1.334 . S
C6326 C6327 1.287 . S
C6327 C6326 1.287 . S
C6327 C6328 1.524 . S
C6327 H6330 0.999 . S
C6328 H6298 0.950 . S
C6328 C6327 1.524 . S
C6328 C6329 1.415 . S
C6329 H6299 0.950 . S
C6329 C6324 1.363 . S
C6329 C6328 1.415 . S
H6330 C6327 0.999 . S
H6331 C6312 0.913 . S
H6332 C6350 0.951 . S
H6333 C6352 0.951 . S
H6334 C6354 0.950 . S
H6335 C6355 0.950 . S
H6336 C6357 0.950 . S
H6337 C6360 0.950 . S
H6338 C6361 0.950 . S
H6339 C6363 0.950 . S
H6340 C6364 0.950 . S
H6341 C6365 0.951 . S
H6342 C6367 0.951 . S
H6343 C6369 0.950 . S
H6344 C6370 0.950 . S
H6345 C6372 0.950 . S
H6346 C6375 0.950 . S
H6347 C6376 0.950 . S
H6348 C6378 0.950 . S
H6349 C6379 0.901 1_455 S
C6350 H6332 0.951 . S
C6350 C6351 1.366 . S
C6350 C6352 1.388 . S
C6351 C6350 1.366 . S
C6351 C6355 1.385 . S
C6352 H6333 0.951 . S
C6352 C6350 1.388 . S
C6352 C6353 1.366 . S
C6353 C6352 1.366 . S
C6353 C6354 1.414 . S
C6353 C6356 1.499 . S
C6354 H6334 0.950 . S
C6354 C6353 1.414 . S
C6354 C6355 1.374 . S
C6355 H6335 0.950 . S
C6355 C6351 1.385 . S
C6355 C6354 1.374 . S
C6356 C6353 1.499 . S
C6356 C6357 1.373 . S
C6356 C6358 1.389 . S
C6357 H6336 0.950 . S
C6357 C6356 1.373 . S
C6357 C6373 1.377 . S
C6358 C6356 1.389 . S
C6358 C6359 1.524 . S
C6358 C6372 1.377 . S
C6359 C6358 1.524 . S
C6359 C6360 1.397 . S
C6359 C6364 1.363 . S
C6360 H6337 0.950 . S
C6360 C6359 1.397 . S
C6360 C6361 1.334 . S
C6361 H6338 0.950 . S
C6361 C6360 1.334 . S
C6361 C6362 1.287 . S
C6362 C6361 1.287 . S
C6362 C6363 1.524 . S
C6362 H6381 0.913 . S
C6363 H6339 0.950 . S
C6363 C6362 1.524 . S
C6363 C6364 1.415 . S
C6364 H6340 0.950 . S
C6364 C6359 1.363 . S
C6364 C6363 1.415 . S
C6365 H6341 0.951 . S
C6365 C6366 1.366 . S
C6365 C6367 1.388 . S
C6366 C6365 1.366 . S
C6366 C6370 1.385 . S
C6367 H6342 0.951 . S
C6367 C6365 1.388 . S
C6367 C6368 1.366 . S
C6368 C6367 1.366 . S
C6368 C6369 1.414 . S
C6368 C6371 1.499 . S
C6369 H6343 0.950 . S
C6369 C6368 1.414 . S
C6369 C6370 1.374 . S
C6370 H6344 0.950 . S
C6370 C6366 1.385 . S
C6370 C6369 1.374 . S
C6371 C6368 1.499 . S
C6371 C6372 1.373 . S
C6371 C6373 1.389 . S
C6372 H6345 0.950 . S
C6372 C6358 1.377 . S
C6372 C6371 1.373 . S
C6373 C6357 1.377 . S
C6373 C6371 1.389 . S
C6373 C6374 1.524 1_455 S
C6374 C6373 1.524 1_655 S
C6374 C6375 1.397 . S
C6374 C6379 1.375 . S
C6375 H6346 0.950 . S
C6375 C6374 1.397 . S
C6375 C6376 1.334 . S
C6376 H6347 0.950 . S
C6376 C6375 1.334 . S
C6376 C6377 1.287 . S
C6377 C6376 1.287 . S
C6377 C6378 1.524 . S
C6377 H6380 0.999 . S
C6378 H6348 0.950 . S
C6378 C6377 1.524 . S
C6378 C6379 1.454 . S
C6379 H6349 0.901 1_655 S
C6379 C6374 1.375 . S
C6379 C6378 1.454 . S
H6380 C6377 0.999 . S
H6381 C6362 0.913 . S
H6382 C6400 0.951 . S
H6383 C6402 0.951 . S
H6384 C6404 0.950 . S
H6385 C6405 0.950 . S
H6386 C6407 0.950 . S
H6387 C6410 0.950 . S
H6388 C6411 0.950 . S
H6389 C6413 0.950 . S
H6390 C6414 0.950 . S
H6391 C6415 0.951 . S
H6392 C6417 0.951 . S
H6393 C6419 0.950 . S
H6394 C6420 0.950 . S
H6395 C6422 0.950 . S
H6396 C6425 0.950 . S
H6397 C6426 0.950 . S
H6398 C6428 0.950 . S
H6399 C6429 0.950 . S
C6400 H6382 0.951 . S
C6400 C6401 1.366 . S
C6400 C6402 1.388 . S
C6401 C6400 1.366 . S
C6401 C6405 1.385 . S
C6402 H6383 0.951 . S
C6402 C6400 1.388 . S
C6402 C6403 1.366 . S
C6403 C6402 1.366 . S
C6403 C6404 1.414 . S
C6403 C6406 1.499 . S
C6404 H6384 0.950 . S
C6404 C6403 1.414 . S
C6404 C6405 1.374 . S
C6405 H6385 0.950 . S
C6405 C6401 1.385 . S
C6405 C6404 1.374 . S
C6406 C6403 1.499 . S
C6406 C6407 1.373 . S
C6406 C6408 1.389 . S
C6407 H6386 0.950 . S
C6407 C6406 1.373 . S
C6407 C6423 1.377 . S
C6408 C6406 1.389 . S
C6408 C6409 1.524 . S
C6408 C6422 1.377 . S
C6409 C6408 1.524 . S
C6409 C6410 1.397 . S
C6409 C6414 1.363 . S
C6410 H6387 0.950 . S
C6410 C6409 1.397 . S
C6410 C6411 1.334 . S
C6411 H6388 0.950 . S
C6411 C6410 1.334 . S
C6411 C6412 1.287 . S
C6412 C6411 1.287 . S
C6412 C6413 1.524 . S
C6412 H6431 0.913 . S
C6413 H6389 0.950 . S
C6413 C6412 1.524 . S
C6413 C6414 1.415 . S
C6414 H6390 0.950 . S
C6414 C6409 1.363 . S
C6414 C6413 1.415 . S
C6415 H6391 0.951 . S
C6415 C6416 1.366 . S
C6415 C6417 1.388 . S
C6416 C6415 1.366 . S
C6416 C6420 1.385 . S
C6417 H6392 0.951 . S
C6417 C6415 1.388 . S
C6417 C6418 1.366 . S
C6418 C6417 1.366 . S
C6418 C6419 1.414 . S
C6418 C6421 1.499 . S
C6419 H6393 0.950 . S
C6419 C6418 1.414 . S
C6419 C6420 1.374 . S
C6420 H6394 0.950 . S
C6420 C6416 1.385 . S
C6420 C6419 1.374 . S
C6421 C6418 1.499 . S
C6421 C6422 1.373 . S
C6421 C6423 1.389 . S
C6422 H6395 0.950 . S
C6422 C6408 1.377 . S
C6422 C6421 1.373 . S
C6423 C6407 1.377 . S
C6423 C6421 1.389 . S
C6423 C6424 1.524 . S
C6424 C6423 1.524 . S
C6424 C6425 1.397 . S
C6424 C6429 1.363 . S
C6425 H6396 0.950 . S
C6425 C6424 1.397 . S
C6425 C6426 1.334 . S
C6426 H6397 0.950 . S
C6426 C6425 1.334 . S
C6426 C6427 1.287 . S
C6427 C6426 1.287 . S
C6427 C6428 1.524 . S
C6427 H6430 0.999 . S
C6428 H6398 0.950 . S
C6428 C6427 1.524 . S
C6428 C6429 1.415 . S
C6429 H6399 0.950 . S
C6429 C6424 1.363 . S
C6429 C6428 1.415 . S
H6430 C6427 0.999 . S
H6431 C6412 0.913 . S
H6432 C6450 0.951 . S
H6433 C6452 0.951 . S
H6434 C6454 0.950 . S
H6435 C6455 0.950 . S
H6436 C6457 0.950 . S
H6437 C6460 0.950 . S
H6438 C6461 0.950 . S
H6439 C6463 0.950 . S
H6440 C6464 0.950 . S
H6441 C6465 0.951 . S
H6442 C6467 0.951 . S
H6443 C6469 0.950 . S
H6444 C6470 0.950 . S
H6445 C6472 0.950 . S
H6446 C6475 0.950 . S
H6447 C6476 0.950 . S
H6448 C6478 0.950 . S
H6449 C6479 0.950 . S
C6450 H6432 0.951 . S
C6450 C6451 1.366 . S
C6450 C6452 1.388 . S
C6451 C6450 1.366 . S
C6451 C6455 1.385 . S
C6452 H6433 0.951 . S
C6452 C6450 1.388 . S
C6452 C6453 1.366 . S
C6453 C6452 1.366 . S
C6453 C6454 1.414 . S
C6453 C6456 1.499 . S
C6454 H6434 0.950 . S
C6454 C6453 1.414 . S
C6454 C6455 1.374 . S
C6455 H6435 0.950 . S
C6455 C6451 1.385 . S
C6455 C6454 1.374 . S
C6456 C6453 1.499 . S
C6456 C6457 1.373 . S
C6456 C6458 1.389 . S
C6457 H6436 0.950 . S
C6457 C6456 1.373 . S
C6457 C6473 1.377 . S
C6458 C6456 1.389 . S
C6458 C6459 1.524 . S
C6458 C6472 1.377 . S
C6459 C6458 1.524 . S
C6459 C6460 1.397 . S
C6459 C6464 1.363 . S
C6460 H6437 0.950 . S
C6460 C6459 1.397 . S
C6460 C6461 1.334 . S
C6461 H6438 0.950 . S
C6461 C6460 1.334 . S
C6461 C6462 1.287 . S
C6462 C6461 1.287 . S
C6462 C6463 1.524 . S
C6462 H6481 0.913 . S
C6463 H6439 0.950 . S
C6463 C6462 1.524 . S
C6463 C6464 1.415 . S
C6464 H6440 0.950 . S
C6464 C6459 1.363 . S
C6464 C6463 1.415 . S
C6465 H6441 0.951 . S
C6465 C6466 1.366 . S
C6465 C6467 1.388 . S
C6466 C6465 1.366 . S
C6466 C6470 1.385 . S
C6467 H6442 0.951 . S
C6467 C6465 1.388 . S
C6467 C6468 1.366 . S
C6468 C6467 1.366 . S
C6468 C6469 1.414 . S
C6468 C6471 1.499 . S
C6469 H6443 0.950 . S
C6469 C6468 1.414 . S
C6469 C6470 1.374 . S
C6470 H6444 0.950 . S
C6470 C6466 1.385 . S
C6470 C6469 1.374 . S
C6471 C6468 1.499 . S
C6471 C6472 1.373 . S
C6471 C6473 1.389 . S
C6472 H6445 0.950 . S
C6472 C6458 1.377 . S
C6472 C6471 1.373 . S
C6473 C6457 1.377 . S
C6473 C6471 1.389 . S
C6473 C6474 1.524 . S
C6474 C6473 1.524 . S
C6474 C6475 1.397 . S
C6474 C6479 1.363 . S
C6475 H6446 0.950 . S
C6475 C6474 1.397 . S
C6475 C6476 1.334 . S
C6476 H6447 0.950 . S
C6476 C6475 1.334 . S
C6476 C6477 1.287 . S
C6477 C6476 1.287 . S
C6477 C6478 1.524 . S
C6477 H6480 0.999 . S
C6478 H6448 0.950 . S
C6478 C6477 1.524 . S
C6478 C6479 1.415 . S
C6479 H6449 0.950 . S
C6479 C6474 1.363 . S
C6479 C6478 1.415 . S
H6480 C6477 0.999 . S
H6481 C6462 0.913 . S
H6482 C6500 0.951 . S
H6483 C6502 0.951 . S
H6484 C6504 0.950 . S
H6485 C6505 0.950 . S
H6486 C6507 0.950 . S
H6487 C6510 0.950 . S
H6488 C6511 0.950 . S
H6489 C6513 0.950 . S
H6490 C6514 0.950 . S
H6491 C6515 0.951 . S
H6492 C6517 0.951 . S
H6493 C6519 0.950 . S
H6494 C6520 0.950 . S
H6495 C6522 0.950 . S
H6496 C6525 0.950 . S
H6497 C6526 0.950 . S
H6498 C6528 0.950 . S
H6499 C6529 0.950 . S
C6500 H6482 0.951 . S
C6500 C6501 1.366 . S
C6500 C6502 1.388 . S
C6501 C6500 1.366 . S
C6501 C6505 1.385 . S
C6502 H6483 0.951 . S
C6502 C6500 1.388 . S
C6502 C6503 1.366 . S
C6503 C6502 1.366 . S
C6503 C6504 1.414 . S
C6503 C6506 1.499 . S
C6504 H6484 0.950 . S
C6504 C6503 1.414 . S
C6504 C6505 1.374 . S
C6505 H6485 0.950 . S
C6505 C6501 1.385 . S
C6505 C6504 1.374 . S
C6506 C6503 1.499 . S
C6506 C6507 1.373 . S
C6506 C6508 1.389 . S
C6507 H6486 0.950 . S
C6507 C6506 1.373 . S
C6507 C6523 1.377 . S
C6508 C6506 1.389 . S
C6508 C6509 1.524 . S
C6508 C6522 1.377 . S
C6509 C6508 1.524 . S
C6509 C6510 1.397 . S
C6509 C6514 1.363 . S
C6510 H6487 0.950 . S
C6510 C6509 1.397 . S
C6510 C6511 1.334 . S
C6511 H6488 0.950 . S
C6511 C6510 1.334 . S
C6511 C6512 1.287 . S
C6512 C6511 1.287 . S
C6512 C6513 1.524 . S
C6512 H6531 0.913 . S
C6513 H6489 0.950 . S
C6513 C6512 1.524 . S
C6513 C6514 1.415 . S
C6514 H6490 0.950 . S
C6514 C6509 1.363 . S
C6514 C6513 1.415 . S
C6515 H6491 0.951 . S
C6515 C6516 1.366 . S
C6515 C6517 1.388 . S
C6516 C6515 1.366 . S
C6516 C6520 1.385 . S
C6517 H6492 0.951 . S
C6517 C6515 1.388 . S
C6517 C6518 1.366 . S
C6518 C6517 1.366 . S
C6518 C6519 1.414 . S
C6518 C6521 1.499 . S
C6519 H6493 0.950 . S
C6519 C6518 1.414 . S
C6519 C6520 1.374 . S
C6520 H6494 0.950 . S
C6520 C6516 1.385 . S
C6520 C6519 1.374 . S
C6521 C6518 1.499 . S
C6521 C6522 1.373 . S
C6521 C6523 1.389 . S
C6522 H6495 0.950 . S
C6522 C6508 1.377 . S
C6522 C6521 1.373 . S
C6523 C6507 1.377 . S
C6523 C6521 1.389 . S
C6523 C6524 1.524 . S
C6524 C6523 1.524 . S
C6524 C6525 1.397 . S
C6524 C6529 1.363 . S
C6525 H6496 0.950 . S
C6525 C6524 1.397 . S
C6525 C6526 1.334 . S
C6526 H6497 0.950 . S
C6526 C6525 1.334 . S
C6526 C6527 1.287 . S
C6527 C6526 1.287 . S
C6527 C6528 1.524 . S
C6527 H6530 0.999 . S
C6528 H6498 0.950 . S
C6528 C6527 1.524 . S
C6528 C6529 1.415 . S
C6529 H6499 0.950 . S
C6529 C6524 1.363 . S
C6529 C6528 1.415 . S
H6530 C6527 0.999 . S
H6531 C6512 0.913 . S
H6532 C6550 0.951 . S
H6533 C6552 0.951 . S
H6534 C6554 0.950 . S
H6535 C6555 0.950 . S
H6536 C6557 0.950 . S
H6537 C6560 0.950 . S
H6538 C6561 0.950 . S
H6539 C6563 0.950 . S
H6540 C6564 0.950 . S
H6541 C6565 0.951 1_455 S
H6542 C6567 0.951 . S
H6543 C6569 0.950 . S
H6544 C6570 0.950 . S
H6545 C6572 0.950 . S
H6546 C6575 0.950 . S
H6547 C6576 0.950 . S
H6548 C6578 0.950 . S
H6549 C6579 0.950 . S
C6550 H6532 0.951 . S
C6550 C6551 1.366 . S
C6550 C6552 1.388 . S
C6551 C6550 1.366 . S
C6551 C6555 1.385 . S
C6552 H6533 0.951 . S
C6552 C6550 1.388 . S
C6552 C6553 1.366 . S
C6553 C6552 1.366 . S
C6553 C6554 1.414 . S
C6553 C6556 1.499 . S
C6554 H6534 0.950 . S
C6554 C6553 1.414 . S
C6554 C6555 1.374 . S
C6555 H6535 0.950 . S
C6555 C6551 1.385 . S
C6555 C6554 1.374 . S
C6556 C6553 1.499 . S
C6556 C6557 1.373 . S
C6556 C6558 1.389 . S
C6557 H6536 0.950 . S
C6557 C6556 1.373 . S
C6557 C6573 1.377 . S
C6558 C6556 1.389 . S
C6558 C6559 1.524 . S
C6558 C6572 1.377 . S
C6559 C6558 1.524 . S
C6559 C6560 1.397 . S
C6559 C6564 1.363 . S
C6560 H6537 0.950 . S
C6560 C6559 1.397 . S
C6560 C6561 1.334 . S
C6561 H6538 0.950 . S
C6561 C6560 1.334 . S
C6561 C6562 1.287 . S
C6562 C6561 1.287 . S
C6562 C6563 1.524 . S
C6562 H6581 0.913 . S
C6563 H6539 0.950 . S
C6563 C6562 1.524 . S
C6563 C6564 1.415 . S
C6564 H6540 0.950 . S
C6564 C6559 1.363 . S
C6564 C6563 1.415 . S
C6565 H6541 0.951 1_655 S
C6565 C6566 1.366 . S
C6565 C6567 1.388 . S
C6566 C6565 1.366 . S
C6566 C6570 1.385 . S
C6567 H6542 0.951 . S
C6567 C6565 1.388 . S
C6567 C6568 1.366 . S
C6568 C6567 1.366 . S
C6568 C6569 1.414 . S
C6568 C6571 1.499 . S
C6569 H6543 0.950 . S
C6569 C6568 1.414 . S
C6569 C6570 1.374 . S
C6570 H6544 0.950 . S
C6570 C6566 1.385 . S
C6570 C6569 1.374 . S
C6571 C6568 1.499 . S
C6571 C6572 1.373 . S
C6571 C6573 1.389 . S
C6572 H6545 0.950 . S
C6572 C6558 1.377 . S
C6572 C6571 1.373 . S
C6573 C6557 1.377 . S
C6573 C6571 1.389 . S
C6573 C6574 1.524 1_655 S
C6574 C6573 1.524 1_455 S
C6574 C6575 1.397 . S
C6574 C6579 1.363 . S
C6575 H6546 0.950 . S
C6575 C6574 1.397 . S
C6575 C6576 1.334 . S
C6576 H6547 0.950 . S
C6576 C6575 1.334 . S
C6576 C6577 1.287 . S
C6577 C6576 1.287 . S
C6577 C6578 1.524 . S
C6577 H6580 0.999 . S
C6578 H6548 0.950 . S
C6578 C6577 1.524 . S
C6578 C6579 1.415 . S
C6579 H6549 0.950 . S
C6579 C6574 1.363 . S
C6579 C6578 1.415 . S
H6580 C6577 0.999 . S
H6581 C6562 0.913 . S
H6582 C6600 0.951 . S
H6583 C6602 0.951 . S
H6584 C6604 0.950 . S
H6585 C6605 0.950 . S
H6586 C6607 0.950 . S
H6587 C6610 0.950 . S
H6588 C6611 0.950 . S
H6589 C6613 0.950 . S
H6590 C6614 0.950 . S
H6591 C6615 0.951 . S
H6592 C6617 0.951 . S
H6593 C6619 0.950 . S
H6594 C6620 0.950 . S
H6595 C6622 0.950 . S
H6596 C6625 0.950 . S
H6597 C6626 0.950 . S
H6598 C6628 0.950 . S
H6599 C6629 0.950 . S
C6600 H6582 0.951 . S
C6600 C6601 1.366 . S
C6600 C6602 1.388 . S
C6601 C6600 1.366 . S
C6601 C6605 1.385 . S
C6602 H6583 0.951 . S
C6602 C6600 1.388 . S
C6602 C6603 1.366 . S
C6603 C6602 1.366 . S
C6603 C6604 1.414 . S
C6603 C6606 1.499 . S
C6604 H6584 0.950 . S
C6604 C6603 1.414 . S
C6604 C6605 1.374 . S
C6605 H6585 0.950 . S
C6605 C6601 1.385 . S
C6605 C6604 1.374 . S
C6606 C6603 1.499 . S
C6606 C6607 1.373 . S
C6606 C6608 1.389 . S
C6607 H6586 0.950 . S
C6607 C6606 1.373 . S
C6607 C6623 1.377 . S
C6608 C6606 1.389 . S
C6608 C6609 1.524 . S
C6608 C6622 1.377 . S
C6609 C6608 1.524 . S
C6609 C6610 1.397 . S
C6609 C6614 1.363 . S
C6610 H6587 0.950 . S
C6610 C6609 1.397 . S
C6610 C6611 1.334 . S
C6611 H6588 0.950 . S
C6611 C6610 1.334 . S
C6611 C6612 1.287 . S
C6612 C6611 1.287 . S
C6612 C6613 1.524 . S
C6612 H6631 0.913 . S
C6613 H6589 0.950 . S
C6613 C6612 1.524 . S
C6613 C6614 1.415 . S
C6614 H6590 0.950 . S
C6614 C6609 1.363 . S
C6614 C6613 1.415 . S
C6615 H6591 0.951 . S
C6615 C6616 1.366 . S
C6615 C6617 1.388 . S
C6616 C6615 1.366 . S
C6616 C6620 1.385 . S
C6617 H6592 0.951 . S
C6617 C6615 1.388 . S
C6617 C6618 1.366 . S
C6618 C6617 1.366 . S
C6618 C6619 1.414 . S
C6618 C6621 1.499 . S
C6619 H6593 0.950 . S
C6619 C6618 1.414 . S
C6619 C6620 1.374 . S
C6620 H6594 0.950 . S
C6620 C6616 1.385 . S
C6620 C6619 1.374 . S
C6621 C6618 1.499 . S
C6621 C6622 1.373 . S
C6621 C6623 1.389 . S
C6622 H6595 0.950 . S
C6622 C6608 1.377 . S
C6622 C6621 1.373 . S
C6623 C6607 1.377 . S
C6623 C6621 1.389 . S
C6623 C6624 1.524 . S
C6624 C6623 1.524 . S
C6624 C6625 1.397 . S
C6624 C6629 1.363 . S
C6625 H6596 0.950 . S
C6625 C6624 1.397 . S
C6625 C6626 1.334 . S
C6626 H6597 0.950 . S
C6626 C6625 1.334 . S
C6626 C6627 1.287 . S
C6627 C6626 1.287 . S
C6627 C6628 1.524 . S
C6627 H6630 0.999 . S
C6628 H6598 0.950 . S
C6628 C6627 1.524 . S
C6628 C6629 1.415 . S
C6629 H6599 0.950 . S
C6629 C6624 1.363 . S
C6629 C6628 1.415 . S
H6630 C6627 0.999 . S
H6631 C6612 0.913 . S
H6632 C6650 0.951 . S
H6633 C6652 0.951 . S
H6634 C6654 0.950 . S
H6635 C6655 0.950 . S
H6636 C6657 0.950 . S
H6637 C6660 0.950 . S
H6638 C6661 0.950 . S
H6639 C6663 0.950 . S
H6640 C6664 0.950 . S
H6641 C6665 0.951 . S
H6642 C6667 0.951 . S
H6643 C6669 0.950 . S
H6644 C6670 0.950 . S
H6645 C6672 0.950 . S
H6646 C6675 0.950 . S
H6647 C6676 0.950 . S
H6648 C6678 0.950 . S
H6649 C6679 0.950 . S
C6650 H6632 0.951 . S
C6650 C6651 1.366 . S
C6650 C6652 1.388 . S
C6651 C6650 1.366 . S
C6651 C6655 1.385 . S
C6652 H6633 0.951 . S
C6652 C6650 1.388 . S
C6652 C6653 1.366 . S
C6653 C6652 1.366 . S
C6653 C6654 1.414 . S
C6653 C6656 1.499 . S
C6654 H6634 0.950 . S
C6654 C6653 1.414 . S
C6654 C6655 1.374 . S
C6655 H6635 0.950 . S
C6655 C6651 1.385 . S
C6655 C6654 1.374 . S
C6656 C6653 1.499 . S
C6656 C6657 1.373 . S
C6656 C6658 1.389 . S
C6657 H6636 0.950 . S
C6657 C6656 1.373 . S
C6657 C6673 1.377 . S
C6658 C6656 1.389 . S
C6658 C6659 1.524 . S
C6658 C6672 1.377 . S
C6659 C6658 1.524 . S
C6659 C6660 1.397 . S
C6659 C6664 1.363 . S
C6660 H6637 0.950 . S
C6660 C6659 1.397 . S
C6660 C6661 1.334 . S
C6661 H6638 0.950 . S
C6661 C6660 1.334 . S
C6661 C6662 1.287 . S
C6662 C6661 1.287 . S
C6662 C6663 1.524 . S
C6662 H6681 0.913 . S
C6663 H6639 0.950 . S
C6663 C6662 1.524 . S
C6663 C6664 1.415 . S
C6664 H6640 0.950 . S
C6664 C6659 1.363 . S
C6664 C6663 1.415 . S
C6665 H6641 0.951 . S
C6665 C6666 1.366 . S
C6665 C6667 1.388 . S
C6666 C6665 1.366 . S
C6666 C6670 1.385 . S
C6667 H6642 0.951 . S
C6667 C6665 1.388 . S
C6667 C6668 1.366 . S
C6668 C6667 1.366 . S
C6668 C6669 1.414 . S
C6668 C6671 1.499 . S
C6669 H6643 0.950 . S
C6669 C6668 1.414 . S
C6669 C6670 1.374 . S
C6670 H6644 0.950 . S
C6670 C6666 1.385 . S
C6670 C6669 1.374 . S
C6671 C6668 1.499 . S
C6671 C6672 1.373 . S
C6671 C6673 1.389 . S
C6672 H6645 0.950 . S
C6672 C6658 1.377 . S
C6672 C6671 1.373 . S
C6673 C6657 1.377 . S
C6673 C6671 1.389 . S
C6673 C6674 1.524 . S
C6674 C6673 1.524 . S
C6674 C6675 1.397 . S
C6674 C6679 1.363 . S
C6675 H6646 0.950 . S
C6675 C6674 1.397 . S
C6675 C6676 1.334 . S
C6676 H6647 0.950 . S
C6676 C6675 1.334 . S
C6676 C6677 1.287 . S
C6677 C6676 1.287 . S
C6677 C6678 1.524 . S
C6677 H6680 0.999 . S
C6678 H6648 0.950 . S
C6678 C6677 1.524 . S
C6678 C6679 1.415 . S
C6679 H6649 0.950 . S
C6679 C6674 1.363 . S
C6679 C6678 1.415 . S
H6680 C6677 0.999 . S
H6681 C6662 0.913 . S
H6682 C6700 0.951 . S
H6683 C6702 0.951 . S
H6684 C6704 0.950 . S
H6685 C6705 0.950 . S
H6686 C6707 0.950 . S
H6687 C6710 0.950 . S
H6688 C6711 0.950 . S
H6689 C6713 0.950 . S
H6690 C6714 0.950 . S
H6691 C6715 0.951 . S
H6692 C6717 0.951 . S
H6693 C6719 0.950 . S
H6694 C6720 0.950 . S
H6695 C6722 0.950 . S
H6696 C6725 0.950 . S
H6697 C6726 0.950 . S
H6698 C6728 0.950 . S
H6699 C6729 0.950 . S
C6700 H6682 0.951 . S
C6700 C6701 1.366 . S
C6700 C6702 1.388 . S
C6701 C6700 1.366 . S
C6701 C6705 1.385 . S
C6702 H6683 0.951 . S
C6702 C6700 1.388 . S
C6702 C6703 1.366 . S
C6703 C6702 1.366 . S
C6703 C6704 1.414 . S
C6703 C6706 1.499 . S
C6704 H6684 0.950 . S
C6704 C6703 1.414 . S
C6704 C6705 1.374 . S
C6705 H6685 0.950 . S
C6705 C6701 1.385 . S
C6705 C6704 1.374 . S
C6706 C6703 1.499 . S
C6706 C6707 1.373 . S
C6706 C6708 1.389 . S
C6707 H6686 0.950 . S
C6707 C6706 1.373 . S
C6707 C6723 1.377 . S
C6708 C6706 1.389 . S
C6708 C6709 1.524 . S
C6708 C6722 1.377 . S
C6709 C6708 1.524 . S
C6709 C6710 1.397 . S
C6709 C6714 1.363 . S
C6710 H6687 0.950 . S
C6710 C6709 1.397 . S
C6710 C6711 1.334 . S
C6711 H6688 0.950 . S
C6711 C6710 1.334 . S
C6711 C6712 1.287 . S
C6712 C6711 1.287 . S
C6712 C6713 1.524 . S
C6712 H6731 0.913 . S
C6713 H6689 0.950 . S
C6713 C6712 1.524 . S
C6713 C6714 1.415 . S
C6714 H6690 0.950 . S
C6714 C6709 1.363 . S
C6714 C6713 1.415 . S
C6715 H6691 0.951 . S
C6715 C6716 1.366 . S
C6715 C6717 1.388 . S
C6716 C6715 1.366 . S
C6716 C6720 1.385 . S
C6717 H6692 0.951 . S
C6717 C6715 1.388 . S
C6717 C6718 1.366 . S
C6718 C6717 1.366 . S
C6718 C6719 1.414 . S
C6718 C6721 1.499 . S
C6719 H6693 0.950 . S
C6719 C6718 1.414 . S
C6719 C6720 1.374 . S
C6720 H6694 0.950 . S
C6720 C6716 1.385 . S
C6720 C6719 1.374 . S
C6721 C6718 1.499 . S
C6721 C6722 1.373 . S
C6721 C6723 1.389 . S
C6722 H6695 0.950 . S
C6722 C6708 1.377 . S
C6722 C6721 1.373 . S
C6723 C6707 1.377 . S
C6723 C6721 1.389 . S
C6723 C6724 1.524 . S
C6724 C6723 1.524 . S
C6724 C6725 1.397 . S
C6724 C6729 1.363 . S
C6725 H6696 0.950 . S
C6725 C6724 1.397 . S
C6725 C6726 1.334 . S
C6726 H6697 0.950 . S
C6726 C6725 1.334 . S
C6726 C6727 1.287 . S
C6727 C6726 1.287 . S
C6727 C6728 1.524 . S
C6727 H6730 0.999 . S
C6728 H6698 0.950 . S
C6728 C6727 1.524 . S
C6728 C6729 1.415 . S
C6729 H6699 0.950 . S
C6729 C6724 1.363 . S
C6729 C6728 1.415 . S
H6730 C6727 0.999 . S
H6731 C6712 0.913 . S
H6732 C6750 0.951 . S
H6733 C6752 0.951 . S
H6734 C6754 0.950 . S
H6735 C6755 0.950 . S
H6736 C6757 0.950 . S
H6737 C6760 0.950 . S
H6738 C6761 0.950 . S
H6739 C6763 0.950 1_455 S
H6740 C6764 0.950 . S
H6741 C6765 0.951 . S
H6742 C6767 0.951 . S
H6743 C6769 0.950 . S
H6744 C6770 0.950 1_455 S
H6745 C6772 0.950 . S
H6746 C6775 0.950 . S
H6747 C6776 0.950 . S
H6748 C6778 0.950 . S
H6749 C6779 0.950 . S
C6750 H6732 0.951 . S
C6750 C6751 1.366 . S
C6750 C6752 1.388 . S
C6751 C6750 1.366 . S
C6751 C6755 1.385 . S
C6752 H6733 0.951 . S
C6752 C6750 1.388 . S
C6752 C6753 1.366 . S
C6753 C6752 1.366 . S
C6753 C6754 1.414 . S
C6753 C6756 1.499 . S
C6754 H6734 0.950 . S
C6754 C6753 1.414 . S
C6754 C6755 1.374 . S
C6755 H6735 0.950 . S
C6755 C6751 1.385 . S
C6755 C6754 1.374 . S
C6756 C6753 1.499 . S
C6756 C6757 1.373 . S
C6756 C6758 1.389 . S
C6757 H6736 0.950 . S
C6757 C6756 1.373 . S
C6757 C6773 1.377 . S
C6758 C6756 1.389 . S
C6758 C6759 1.524 . S
C6758 C6772 1.377 . S
C6759 C6758 1.524 . S
C6759 C6760 1.397 . S
C6759 C6764 1.363 . S
C6760 H6737 0.950 . S
C6760 C6759 1.397 . S
C6760 C6761 1.334 . S
C6761 H6738 0.950 . S
C6761 C6760 1.334 . S
C6761 C6762 1.287 . S
C6762 C6761 1.287 . S
C6762 C6763 1.524 . S
C6762 H6781 0.913 . S
C6763 H6739 0.950 1_655 S
C6763 C6762 1.524 . S
C6763 C6764 1.415 . S
C6764 H6740 0.950 . S
C6764 C6759 1.363 . S
C6764 C6763 1.415 . S
C6765 H6741 0.951 . S
C6765 C6766 1.366 . S
C6765 C6767 1.388 . S
C6766 C6765 1.366 . S
C6766 C6770 1.385 . S
C6767 H6742 0.951 . S
C6767 C6765 1.388 . S
C6767 C6768 1.366 . S
C6768 C6767 1.366 . S
C6768 C6769 1.414 . S
C6768 C6771 1.499 . S
C6769 H6743 0.950 . S
C6769 C6768 1.414 . S
C6769 C6770 1.374 . S
C6770 H6744 0.950 1_655 S
C6770 C6766 1.385 . S
C6770 C6769 1.374 . S
C6771 C6768 1.499 . S
C6771 C6772 1.373 . S
C6771 C6773 1.389 . S
C6772 H6745 0.950 . S
C6772 C6758 1.377 . S
C6772 C6771 1.373 . S
C6773 C6757 1.377 . S
C6773 C6771 1.389 . S
C6773 C6774 1.524 . S
C6774 C6773 1.524 . S
C6774 C6775 1.397 . S
C6774 C6779 1.363 . S
C6775 H6746 0.950 . S
C6775 C6774 1.397 . S
C6775 C6776 1.334 . S
C6776 H6747 0.950 . S
C6776 C6775 1.334 . S
C6776 C6777 1.287 . S
C6777 C6776 1.287 . S
C6777 C6778 1.524 . S
C6777 H6780 0.999 . S
C6778 H6748 0.950 . S
C6778 C6777 1.524 . S
C6778 C6779 1.415 . S
C6779 H6749 0.950 . S
C6779 C6774 1.363 . S
C6779 C6778 1.415 . S
H6780 C6777 0.999 . S
H6781 C6762 0.913 . S
H6782 C6800 0.951 . S
H6783 C6802 0.951 . S
H6784 C6804 0.950 . S
H6785 C6805 0.950 . S
H6786 C6807 0.950 . S
H6787 C6810 0.950 . S
H6788 C6811 0.950 . S
H6789 C6813 0.950 . S
H6790 C6814 0.950 . S
H6791 C6815 0.951 . S
H6792 C6817 0.951 . S
H6793 C6819 0.950 . S
H6794 C6820 0.950 . S
H6795 C6822 0.950 . S
H6796 C6825 0.950 . S
H6797 C6826 0.950 . S
H6798 C6828 0.950 . S
H6799 C6829 0.950 . S
C6800 H6782 0.951 . S
C6800 C6801 1.366 . S
C6800 C6802 1.388 . S
C6801 C6800 1.366 . S
C6801 C6805 1.385 . S
C6802 H6783 0.951 . S
C6802 C6800 1.388 . S
C6802 C6803 1.366 . S
C6803 C6802 1.366 . S
C6803 C6804 1.414 . S
C6803 C6806 1.499 . S
C6804 H6784 0.950 . S
C6804 C6803 1.414 . S
C6804 C6805 1.374 . S
C6805 H6785 0.950 . S
C6805 C6801 1.385 . S
C6805 C6804 1.374 . S
C6806 C6803 1.499 . S
C6806 C6807 1.373 . S
C6806 C6808 1.389 . S
C6807 H6786 0.950 . S
C6807 C6806 1.373 . S
C6807 C6823 1.377 . S
C6808 C6806 1.389 . S
C6808 C6809 1.524 . S
C6808 C6822 1.377 . S
C6809 C6808 1.524 . S
C6809 C6810 1.397 . S
C6809 C6814 1.363 . S
C6810 H6787 0.950 . S
C6810 C6809 1.397 . S
C6810 C6811 1.334 . S
C6811 H6788 0.950 . S
C6811 C6810 1.334 . S
C6811 C6812 1.287 . S
C6812 C6811 1.287 . S
C6812 C6813 1.524 . S
C6812 H6831 0.913 . S
C6813 H6789 0.950 . S
C6813 C6812 1.524 . S
C6813 C6814 1.415 . S
C6814 H6790 0.950 . S
C6814 C6809 1.363 . S
C6814 C6813 1.415 . S
C6815 H6791 0.951 . S
C6815 C6816 1.366 . S
C6815 C6817 1.388 . S
C6816 C6815 1.366 . S
C6816 C6820 1.385 . S
C6817 H6792 0.951 . S
C6817 C6815 1.388 . S
C6817 C6818 1.366 . S
C6818 C6817 1.366 . S
C6818 C6819 1.414 . S
C6818 C6821 1.499 . S
C6819 H6793 0.950 . S
C6819 C6818 1.414 . S
C6819 C6820 1.374 . S
C6820 H6794 0.950 . S
C6820 C6816 1.385 . S
C6820 C6819 1.374 . S
C6821 C6818 1.499 . S
C6821 C6822 1.373 . S
C6821 C6823 1.389 . S
C6822 H6795 0.950 . S
C6822 C6808 1.377 . S
C6822 C6821 1.373 . S
C6823 C6807 1.377 . S
C6823 C6821 1.389 . S
C6823 C6824 1.524 . S
C6824 C6823 1.524 . S
C6824 C6825 1.397 . S
C6824 C6829 1.363 . S
C6825 H6796 0.950 . S
C6825 C6824 1.397 . S
C6825 C6826 1.334 . S
C6826 H6797 0.950 . S
C6826 C6825 1.334 . S
C6826 C6827 1.287 . S
C6827 C6826 1.287 . S
C6827 C6828 1.524 . S
C6827 H6830 0.999 . S
C6828 H6798 0.950 . S
C6828 C6827 1.524 . S
C6828 C6829 1.415 . S
C6829 H6799 0.950 . S
C6829 C6824 1.363 . S
C6829 C6828 1.415 . S
H6830 C6827 0.999 . S
H6831 C6812 0.913 . S
H6832 C6850 0.951 . S
H6833 C6852 0.951 . S
H6834 C6854 0.950 . S
H6835 C6855 0.950 . S
H6836 C6857 0.950 . S
H6837 C6860 0.950 . S
H6838 C6861 0.950 . S
H6839 C6863 0.950 . S
H6840 C6864 0.950 . S
H6841 C6865 0.951 . S
H6842 C6867 0.951 . S
H6843 C6869 0.950 . S
H6844 C6870 0.950 . S
H6845 C6872 0.950 . S
H6846 C6875 0.950 . S
H6847 C6876 0.950 . S
H6848 C6878 0.950 . S
H6849 C6879 0.950 . S
C6850 H6832 0.951 . S
C6850 C6851 1.366 . S
C6850 C6852 1.388 . S
C6851 C6850 1.366 . S
C6851 C6855 1.385 . S
C6852 H6833 0.951 . S
C6852 C6850 1.388 . S
C6852 C6853 1.366 . S
C6853 C6852 1.366 . S
C6853 C6854 1.414 . S
C6853 C6856 1.499 . S
C6854 H6834 0.950 . S
C6854 C6853 1.414 . S
C6854 C6855 1.374 . S
C6855 H6835 0.950 . S
C6855 C6851 1.385 . S
C6855 C6854 1.374 . S
C6856 C6853 1.499 . S
C6856 C6857 1.373 . S
C6856 C6858 1.389 . S
C6857 H6836 0.950 . S
C6857 C6856 1.373 . S
C6857 C6873 1.377 . S
C6858 C6856 1.389 . S
C6858 C6859 1.524 . S
C6858 C6872 1.377 . S
C6859 C6858 1.524 . S
C6859 C6860 1.397 . S
C6859 C6864 1.363 . S
C6860 H6837 0.950 . S
C6860 C6859 1.397 . S
C6860 C6861 1.334 . S
C6861 H6838 0.950 . S
C6861 C6860 1.334 . S
C6861 C6862 1.287 . S
C6862 C6861 1.287 . S
C6862 C6863 1.524 . S
C6862 H6881 0.913 . S
C6863 H6839 0.950 . S
C6863 C6862 1.524 . S
C6863 C6864 1.415 . S
C6864 H6840 0.950 . S
C6864 C6859 1.363 . S
C6864 C6863 1.415 . S
C6865 H6841 0.951 . S
C6865 C6866 1.366 . S
C6865 C6867 1.388 . S
C6866 C6865 1.366 . S
C6866 C6870 1.385 . S
C6867 H6842 0.951 . S
C6867 C6865 1.388 . S
C6867 C6868 1.366 . S
C6868 C6867 1.366 . S
C6868 C6869 1.414 . S
C6868 C6871 1.499 . S
C6869 H6843 0.950 . S
C6869 C6868 1.414 . S
C6869 C6870 1.374 . S
C6870 H6844 0.950 . S
C6870 C6866 1.385 . S
C6870 C6869 1.374 . S
C6871 C6868 1.499 . S
C6871 C6872 1.373 . S
C6871 C6873 1.389 . S
C6872 H6845 0.950 . S
C6872 C6858 1.377 . S
C6872 C6871 1.373 . S
C6873 C6857 1.377 . S
C6873 C6871 1.389 . S
C6873 C6874 1.524 . S
C6874 C6873 1.524 . S
C6874 C6875 1.397 . S
C6874 C6879 1.363 . S
C6875 H6846 0.950 . S
C6875 C6874 1.397 . S
C6875 C6876 1.334 . S
C6876 H6847 0.950 . S
C6876 C6875 1.334 . S
C6876 C6877 1.287 . S
C6877 C6876 1.287 . S
C6877 C6878 1.524 . S
C6877 H6880 0.999 . S
C6878 H6848 0.950 . S
C6878 C6877 1.524 . S
C6878 C6879 1.415 . S
C6879 H6849 0.950 . S
C6879 C6874 1.363 . S
C6879 C6878 1.415 . S
H6880 C6877 0.999 . S
H6881 C6862 0.913 . S
H6882 C6900 0.951 . S
H6883 C6902 0.951 . S
H6884 C6904 0.950 . S
H6885 C6905 0.950 . S
H6886 C6907 0.950 . S
H6887 C6910 0.950 . S
H6888 C6911 0.950 . S
H6889 C6913 0.950 . S
H6890 C6914 0.950 . S
H6891 C6915 0.951 . S
H6892 C6917 0.951 . S
H6893 C6919 0.950 . S
H6894 C6920 0.950 . S
H6895 C6922 0.950 . S
H6896 C6925 0.950 . S
H6897 C6926 0.950 . S
H6898 C6928 0.950 . S
H6899 C6929 0.950 . S
C6900 H6882 0.951 . S
C6900 C6901 1.366 . S
C6900 C6902 1.388 . S
C6901 C6900 1.366 . S
C6901 C6905 1.385 . S
C6902 H6883 0.951 . S
C6902 C6900 1.388 . S
C6902 C6903 1.366 . S
C6903 C6902 1.366 . S
C6903 C6904 1.414 . S
C6903 C6906 1.499 . S
C6904 H6884 0.950 . S
C6904 C6903 1.414 . S
C6904 C6905 1.374 . S
C6905 H6885 0.950 . S
C6905 C6901 1.385 . S
C6905 C6904 1.374 . S
C6906 C6903 1.499 . S
C6906 C6907 1.373 . S
C6906 C6908 1.389 . S
C6907 H6886 0.950 . S
C6907 C6906 1.373 . S
C6907 C6923 1.377 . S
C6908 C6906 1.389 . S
C6908 C6909 1.524 . S
C6908 C6922 1.377 . S
C6909 C6908 1.524 . S
C6909 C6910 1.397 . S
C6909 C6914 1.363 . S
C6910 H6887 0.950 . S
C6910 C6909 1.397 . S
C6910 C6911 1.334 . S
C6911 H6888 0.950 . S
C6911 C6910 1.334 . S
C6911 C6912 1.287 . S
C6912 C6911 1.287 . S
C6912 C6913 1.524 . S
C6912 H6931 0.913 . S
C6913 H6889 0.950 . S
C6913 C6912 1.524 . S
C6913 C6914 1.415 . S
C6914 H6890 0.950 . S
C6914 C6909 1.363 . S
C6914 C6913 1.415 . S
C6915 H6891 0.951 . S
C6915 C6916 1.366 . S
C6915 C6917 1.388 . S
C6916 C6915 1.366 . S
C6916 C6920 1.385 1_545 S
C6917 H6892 0.951 . S
C6917 C6915 1.388 . S
C6917 C6918 1.366 1_545 S
C6918 C6917 1.366 1_565 S
C6918 C6919 1.414 . S
C6918 C6921 1.499 . S
C6919 H6893 0.950 . S
C6919 C6918 1.414 . S
C6919 C6920 1.374 . S
C6920 H6894 0.950 . S
C6920 C6916 1.385 1_565 S
C6920 C6919 1.374 . S
C6921 C6918 1.499 . S
C6921 C6922 1.373 . S
C6921 C6923 1.389 . S
C6922 H6895 0.950 . S
C6922 C6908 1.377 . S
C6922 C6921 1.373 . S
C6923 C6907 1.377 . S
C6923 C6921 1.389 . S
C6923 C6924 1.524 . S
C6924 C6923 1.524 . S
C6924 C6925 1.397 . S
C6924 C6929 1.363 1_565 S
C6925 H6896 0.950 . S
C6925 C6924 1.397 . S
C6925 C6926 1.334 1_565 S
C6926 H6897 0.950 . S
C6926 C6925 1.334 1_545 S
C6926 C6927 1.287 . S
C6927 C6926 1.287 . S
C6927 C6928 1.524 . S
C6927 H6930 0.999 . S
C6928 H6898 0.950 . S
C6928 C6927 1.524 . S
C6928 C6929 1.415 . S
C6929 H6899 0.950 . S
C6929 C6924 1.363 1_545 S
C6929 C6928 1.415 . S
H6930 C6927 0.999 . S
H6931 C6912 0.913 . S
H6932 C6950 0.951 . S
H6933 C6952 0.951 . S
H6934 C6954 0.950 . S
H6935 C6955 0.950 . S
H6936 C6957 0.950 . S
H6937 C6960 0.950 . S
H6938 C6961 0.950 . S
H6939 C6963 0.950 . S
H6940 C6964 0.950 . S
H6941 C6965 0.951 . S
H6942 C6967 0.951 . S
H6943 C6969 0.950 . S
H6944 C6970 0.950 . S
H6945 C6972 0.950 . S
H6946 C6975 0.950 . S
H6947 C6976 0.950 . S
H6948 C6978 0.950 . S
H6949 C6979 0.950 . S
C6950 H6932 0.951 . S
C6950 C6951 1.366 . S
C6950 C6952 1.388 . S
C6951 C6950 1.366 . S
C6951 C6955 1.385 . S
C6952 H6933 0.951 . S
C6952 C6950 1.388 . S
C6952 C6953 1.366 . S
C6953 C6952 1.366 . S
C6953 C6954 1.414 . S
C6953 C6956 1.499 . S
C6954 H6934 0.950 . S
C6954 C6953 1.414 . S
C6954 C6955 1.374 . S
C6955 H6935 0.950 . S
C6955 C6951 1.385 . S
C6955 C6954 1.374 . S
C6956 C6953 1.499 . S
C6956 C6957 1.373 . S
C6956 C6958 1.389 . S
C6957 H6936 0.950 . S
C6957 C6956 1.373 . S
C6957 C6973 1.377 . S
C6958 C6956 1.389 . S
C6958 C6959 1.524 . S
C6958 C6972 1.377 . S
C6959 C6958 1.524 . S
C6959 C6960 1.397 . S
C6959 C6964 1.363 . S
C6960 H6937 0.950 . S
C6960 C6959 1.397 . S
C6960 C6961 1.334 . S
C6961 H6938 0.950 . S
C6961 C6960 1.334 . S
C6961 C6962 1.287 . S
C6962 C6961 1.287 . S
C6962 C6963 1.524 . S
C6962 H6981 0.913 . S
C6963 H6939 0.950 . S
C6963 C6962 1.524 . S
C6963 C6964 1.415 . S
C6964 H6940 0.950 . S
C6964 C6959 1.363 . S
C6964 C6963 1.415 . S
C6965 H6941 0.951 . S
C6965 C6966 1.366 . S
C6965 C6967 1.388 . S
C6966 C6965 1.366 . S
C6966 C6970 1.385 . S
C6967 H6942 0.951 . S
C6967 C6965 1.388 . S
C6967 C6968 1.366 . S
C6968 C6967 1.366 . S
C6968 C6969 1.414 . S
C6968 C6971 1.499 . S
C6969 H6943 0.950 . S
C6969 C6968 1.414 . S
C6969 C6970 1.374 . S
C6970 H6944 0.950 . S
C6970 C6966 1.385 . S
C6970 C6969 1.374 . S
C6971 C6968 1.499 . S
C6971 C6972 1.373 . S
C6971 C6973 1.389 . S
C6972 H6945 0.950 . S
C6972 C6958 1.377 . S
C6972 C6971 1.373 . S
C6973 C6957 1.377 . S
C6973 C6971 1.389 . S
C6973 C6974 1.524 . S
C6974 C6973 1.524 . S
C6974 C6975 1.397 . S
C6974 C6979 1.363 . S
C6975 H6946 0.950 . S
C6975 C6974 1.397 . S
C6975 C6976 1.334 . S
C6976 H6947 0.950 . S
C6976 C6975 1.334 . S
C6976 C6977 1.287 . S
C6977 C6976 1.287 . S
C6977 C6978 1.524 . S
C6977 H6980 0.999 . S
C6978 H6948 0.950 . S
C6978 C6977 1.524 . S
C6978 C6979 1.415 . S
C6979 H6949 0.950 . S
C6979 C6974 1.363 . S
C6979 C6978 1.415 . S
H6980 C6977 0.999 . S
H6981 C6962 0.913 . S
H6982 C7000 0.951 . S
H6983 C7002 0.951 . S
H6984 C7004 0.950 . S
H6985 C7005 0.950 . S
H6986 C7007 0.950 . S
H6987 C7010 0.950 1_556 S
H6988 C7011 0.950 1_556 S
H6989 C7013 0.950 . S
H6990 C7014 0.950 . S
H6991 C7015 0.951 . S
H6992 C7017 0.951 . S
H6993 C7019 0.950 . S
H6994 C7020 0.950 . S
H6995 C7022 0.950 . S
H6996 C7025 0.950 . S
H6997 C7026 0.950 . S
H6998 C7028 0.950 . S
H6999 C7029 0.950 . S
C7000 H6982 0.951 . S
C7000 C7001 1.366 1_554 S
C7000 C7002 1.388 . S
C7001 C7000 1.366 1_556 S
C7001 C7005 1.385 . S
C7002 H6983 0.951 . S
C7002 C7000 1.388 . S
C7002 C7003 1.318 1_554 S
C7003 C7002 1.318 1_556 S
C7003 C7004 1.476 . S
C7003 C7006 1.480 1_556 S
C7004 H6984 0.950 . S
C7004 C7003 1.476 . S
C7004 C7005 1.374 . S
C7005 H6985 0.950 . S
C7005 C7001 1.385 . S
C7005 C7004 1.374 . S
C7006 C7003 1.480 1_554 S
C7006 C7007 1.352 1_554 S
C7006 C7008 1.431 . S
C7007 H6986 0.950 . S
C7007 C7006 1.352 1_556 S
C7007 C7023 1.377 . S
C7008 C7006 1.431 . S
C7008 C7009 1.524 . S
C7008 C7022 1.377 . S
C7009 C7008 1.524 . S
C7009 C7010 1.397 . S
C7009 C7014 1.363 . S
C7010 H6987 0.950 1_554 S
C7010 C7009 1.397 . S
C7010 C7011 1.334 . S
C7011 H6988 0.950 1_554 S
C7011 C7010 1.334 . S
C7011 C7012 1.287 . S
C7012 C7011 1.287 . S
C7012 C7013 1.524 . S
C7012 H7031 0.913 . S
C7013 H6989 0.950 . S
C7013 C7012 1.524 . S
C7013 C7014 1.415 . S
C7014 H6990 0.950 . S
C7014 C7009 1.363 . S
C7014 C7013 1.415 . S
C7015 H6991 0.951 . S
C7015 C7016 1.366 1_556 S
C7015 C7017 1.388 . S
C7016 C7015 1.366 1_554 S
C7016 C7020 1.385 . S
C7017 H6992 0.951 . S
C7017 C7015 1.388 . S
C7017 C7018 1.366 1_556 S
C7018 C7017 1.366 1_554 S
C7018 C7019 1.414 . S
C7018 C7021 1.499 . S
C7019 H6993 0.950 . S
C7019 C7018 1.414 . S
C7019 C7020 1.374 . S
C7020 H6994 0.950 . S
C7020 C7016 1.385 . S
C7020 C7019 1.374 . S
C7021 C7018 1.499 . S
C7021 C7022 1.373 . S
C7021 C7023 1.389 1_554 S
C7022 H6995 0.950 . S
C7022 C7008 1.377 . S
C7022 C7021 1.373 . S
C7023 C7007 1.377 . S
C7023 C7021 1.389 1_556 S
C7023 C7024 1.524 . S
C7024 C7023 1.524 . S
C7024 C7025 1.397 1_556 S
C7024 C7029 1.363 . S
C7025 H6996 0.950 . S
C7025 C7024 1.397 1_554 S
C7025 C7026 1.334 . S
C7026 H6997 0.950 . S
C7026 C7025 1.334 . S
C7026 C7027 1.287 1_554 S
C7027 C7026 1.287 1_556 S
C7027 C7028 1.524 . S
C7027 H7030 0.999 . S
C7028 H6998 0.950 . S
C7028 C7027 1.524 . S
C7028 C7029 1.415 . S
C7029 H6999 0.950 . S
C7029 C7024 1.363 . S
C7029 C7028 1.415 . S
H7030 C7027 0.999 . S
H7031 C7012 0.913 . S
H7032 C7050 0.951 . S
H7033 C7052 0.951 . S
H7034 C7054 0.950 . S
H7035 C7055 0.950 . S
H7036 C7057 0.950 . S
H7037 C7060 0.950 . S
H7038 C7061 0.950 . S
H7039 C7063 0.950 . S
H7040 C7064 0.950 . S
H7041 C7065 0.951 . S
H7042 C7067 0.951 . S
H7043 C7069 0.950 . S
H7044 C7070 0.950 . S
H7045 C7072 0.950 . S
H7046 C7075 0.950 . S
H7047 C7076 0.950 . S
H7048 C7078 0.950 . S
H7049 C7079 0.950 . S
C7050 H7032 0.951 . S
C7050 C7051 1.366 . S
C7050 C7052 1.388 . S
C7051 C7050 1.366 . S
C7051 C7055 1.385 . S
C7052 H7033 0.951 . S
C7052 C7050 1.388 . S
C7052 C7053 1.366 . S
C7053 C7052 1.366 . S
C7053 C7054 1.414 . S
C7053 C7056 1.499 . S
C7054 H7034 0.950 . S
C7054 C7053 1.414 . S
C7054 C7055 1.374 . S
C7055 H7035 0.950 . S
C7055 C7051 1.385 . S
C7055 C7054 1.374 . S
C7056 C7053 1.499 . S
C7056 C7057 1.373 . S
C7056 C7058 1.389 . S
C7057 H7036 0.950 . S
C7057 C7056 1.373 . S
C7057 C7073 1.377 . S
C7058 C7056 1.389 . S
C7058 C7059 1.524 . S
C7058 C7072 1.377 . S
C7059 C7058 1.524 . S
C7059 C7060 1.397 . S
C7059 C7064 1.363 . S
C7060 H7037 0.950 . S
C7060 C7059 1.397 . S
C7060 C7061 1.334 . S
C7061 H7038 0.950 . S
C7061 C7060 1.334 . S
C7061 C7062 1.287 . S
C7062 C7061 1.287 . S
C7062 C7063 1.524 . S
C7062 H7081 0.913 . S
C7063 H7039 0.950 . S
C7063 C7062 1.524 . S
C7063 C7064 1.415 . S
C7064 H7040 0.950 . S
C7064 C7059 1.363 . S
C7064 C7063 1.415 . S
C7065 H7041 0.951 . S
C7065 C7066 1.366 . S
C7065 C7067 1.388 . S
C7066 C7065 1.366 . S
C7066 C7070 1.385 . S
C7067 H7042 0.951 . S
C7067 C7065 1.388 . S
C7067 C7068 1.366 . S
C7068 C7067 1.366 . S
C7068 C7069 1.414 . S
C7068 C7071 1.499 . S
C7069 H7043 0.950 . S
C7069 C7068 1.414 . S
C7069 C7070 1.374 . S
C7070 H7044 0.950 . S
C7070 C7066 1.385 . S
C7070 C7069 1.374 . S
C7071 C7068 1.499 . S
C7071 C7072 1.373 . S
C7071 C7073 1.389 . S
C7072 H7045 0.950 . S
C7072 C7058 1.377 . S
C7072 C7071 1.373 . S
C7073 C7057 1.377 . S
C7073 C7071 1.389 . S
C7073 C7074 1.524 . S
C7074 C7073 1.524 . S
C7074 C7075 1.397 . S
C7074 C7079 1.363 . S
C7075 H7046 0.950 . S
C7075 C7074 1.397 . S
C7075 C7076 1.334 . S
C7076 H7047 0.950 . S
C7076 C7075 1.334 . S
C7076 C7077 1.287 . S
C7077 C7076 1.287 . S
C7077 C7078 1.524 . S
C7077 H7080 0.999 . S
C7078 H7048 0.950 . S
C7078 C7077 1.524 . S
C7078 C7079 1.415 . S
C7079 H7049 0.950 . S
C7079 C7074 1.363 . S
C7079 C7078 1.415 . S
H7080 C7077 0.999 . S
H7081 C7062 0.913 . S
H7082 C7100 0.951 . S
H7083 C7102 0.951 . S
H7084 C7104 0.950 . S
H7085 C7105 0.950 . S
H7086 C7107 0.981 . S
H7087 C7110 0.950 . S
H7088 C7111 0.950 . S
H7089 C7113 0.950 . S
H7090 C7114 0.950 . S
H7091 C7115 0.951 . S
H7092 C7117 0.951 . S
H7093 C7119 0.950 . S
H7094 C7120 0.964 . S
H7095 C7122 0.950 . S
H7096 C7125 0.950 . S
H7097 C7126 0.950 . S
H7098 C7128 0.950 . S
H7099 C7129 0.950 . S
C7100 H7082 0.951 . S
C7100 C7101 1.366 . S
C7100 C7102 1.388 . S
C7101 C7100 1.366 . S
C7101 C7105 1.385 . S
C7102 H7083 0.951 . S
C7102 C7100 1.388 . S
C7102 C7103 1.366 . S
C7103 C7102 1.366 . S
C7103 C7104 1.414 . S
C7103 C7106 1.499 . S
C7104 H7084 0.950 . S
C7104 C7103 1.414 . S
C7104 C7105 1.374 . S
C7105 H7085 0.950 . S
C7105 C7101 1.385 . S
C7105 C7104 1.374 . S
C7106 C7103 1.499 . S
C7106 C7107 1.335 1_554 S
C7106 C7108 1.389 . S
C7107 H7086 0.981 . S
C7107 C7106 1.335 1_556 S
C7107 C7123 1.388 . S
C7108 C7106 1.389 . S
C7108 C7109 1.524 . S
C7108 C7122 1.377 . S
C7109 C7108 1.524 . S
C7109 C7110 1.397 . S
C7109 C7114 1.363 . S
C7110 H7087 0.950 . S
C7110 C7109 1.397 . S
C7110 C7111 1.334 . S
C7111 H7088 0.950 . S
C7111 C7110 1.334 . S
C7111 C7112 1.287 . S
C7112 C7111 1.287 . S
C7112 C7113 1.524 . S
C7112 H7131 0.913 . S
C7113 H7089 0.950 . S
C7113 C7112 1.524 . S
C7113 C7114 1.415 . S
C7114 H7090 0.950 . S
C7114 C7109 1.363 . S
C7114 C7113 1.415 . S
C7115 H7091 0.951 . S
C7115 C7116 1.366 . S
C7115 C7117 1.388 . S
C7116 C7115 1.366 . S
C7116 C7120 1.385 . S
C7117 H7092 0.951 . S
C7117 C7115 1.388 . S
C7117 C7118 1.366 . S
C7118 C7117 1.366 . S
C7118 C7119 1.414 . S
C7118 C7121 1.499 . S
C7119 H7093 0.950 . S
C7119 C7118 1.414 . S
C7119 C7120 1.374 . S
C7120 H7094 0.964 . S
C7120 C7116 1.385 . S
C7120 C7119 1.374 . S
C7121 C7118 1.499 . S
C7121 C7122 1.373 . S
C7121 C7123 1.389 1_554 S
C7122 H7095 0.950 . S
C7122 C7108 1.377 . S
C7122 C7121 1.373 . S
C7123 C7107 1.388 . S
C7123 C7121 1.389 1_556 S
C7123 C7124 1.524 . S
C7124 C7123 1.524 . S
C7124 C7125 1.397 . S
C7124 C7129 1.363 . S
C7125 H7096 0.950 . S
C7125 C7124 1.397 . S
C7125 C7126 1.334 . S
C7126 H7097 0.950 . S
C7126 C7125 1.334 . S
C7126 C7127 1.287 . S
C7127 C7126 1.287 . S
C7127 C7128 1.524 . S
C7127 H7130 0.999 . S
C7128 H7098 0.950 . S
C7128 C7127 1.524 . S
C7128 C7129 1.415 . S
C7129 H7099 0.950 . S
C7129 C7124 1.363 . S
C7129 C7128 1.415 . S
H7130 C7127 0.999 . S
H7131 C7112 0.913 . S
H7132 C7150 0.951 . S
H7133 C7152 0.951 . S
H7134 C7154 0.950 . S
H7135 C7155 0.950 . S
H7136 C7157 0.950 . S
H7137 C7160 0.950 . S
H7138 C7161 0.950 . S
H7139 C7163 0.950 . S
H7140 C7164 0.950 . S
H7141 C7165 0.951 . S
H7142 C7167 0.951 . S
H7143 C7169 0.950 . S
H7144 C7170 0.950 . S
H7145 C7172 0.950 . S
H7146 C7175 0.950 . S
H7147 C7176 0.950 . S
H7148 C7178 0.950 . S
H7149 C7179 0.950 . S
C7150 H7132 0.951 . S
C7150 C7151 1.366 . S
C7150 C7152 1.388 . S
C7151 C7150 1.366 . S
C7151 C7155 1.385 . S
C7152 H7133 0.951 . S
C7152 C7150 1.388 . S
C7152 C7153 1.366 . S
C7153 C7152 1.366 . S
C7153 C7154 1.414 . S
C7153 C7156 1.499 . S
C7154 H7134 0.950 . S
C7154 C7153 1.414 . S
C7154 C7155 1.374 . S
C7155 H7135 0.950 . S
C7155 C7151 1.385 . S
C7155 C7154 1.374 . S
C7156 C7153 1.499 . S
C7156 C7157 1.373 . S
C7156 C7158 1.389 . S
C7157 H7136 0.950 . S
C7157 C7156 1.373 . S
C7157 C7173 1.377 . S
C7158 C7156 1.389 . S
C7158 C7159 1.524 . S
C7158 C7172 1.377 . S
C7159 C7158 1.524 . S
C7159 C7160 1.397 . S
C7159 C7164 1.363 . S
C7160 H7137 0.950 . S
C7160 C7159 1.397 . S
C7160 C7161 1.334 . S
C7161 H7138 0.950 . S
C7161 C7160 1.334 . S
C7161 C7162 1.287 . S
C7162 C7161 1.287 . S
C7162 C7163 1.524 . S
C7162 H7181 0.913 . S
C7163 H7139 0.950 . S
C7163 C7162 1.524 . S
C7163 C7164 1.415 . S
C7164 H7140 0.950 . S
C7164 C7159 1.363 . S
C7164 C7163 1.415 . S
C7165 H7141 0.951 . S
C7165 C7166 1.366 . S
C7165 C7167 1.388 . S
C7166 C7165 1.366 . S
C7166 C7170 1.385 . S
C7167 H7142 0.951 . S
C7167 C7165 1.388 . S
C7167 C7168 1.366 . S
C7168 C7167 1.366 . S
C7168 C7169 1.414 . S
C7168 C7171 1.499 . S
C7169 H7143 0.950 . S
C7169 C7168 1.414 . S
C7169 C7170 1.374 . S
C7170 H7144 0.950 . S
C7170 C7166 1.385 . S
C7170 C7169 1.374 . S
C7171 C7168 1.499 . S
C7171 C7172 1.373 . S
C7171 C7173 1.389 . S
C7172 H7145 0.950 . S
C7172 C7158 1.377 . S
C7172 C7171 1.373 . S
C7173 C7157 1.377 . S
C7173 C7171 1.389 . S
C7173 C7174 1.524 . S
C7174 C7173 1.524 . S
C7174 C7175 1.397 . S
C7174 C7179 1.363 . S
C7175 H7146 0.950 . S
C7175 C7174 1.397 . S
C7175 C7176 1.334 . S
C7176 H7147 0.950 . S
C7176 C7175 1.334 . S
C7176 C7177 1.287 . S
C7177 C7176 1.287 . S
C7177 C7178 1.524 . S
C7177 H7180 0.999 . S
C7178 H7148 0.950 . S
C7178 C7177 1.524 . S
C7178 C7179 1.415 . S
C7179 H7149 0.950 . S
C7179 C7174 1.363 . S
C7179 C7178 1.415 . S
H7180 C7177 0.999 . S
H7181 C7162 0.913 . S
H7182 C7200 0.951 . S
H7183 C7202 0.951 . S
H7184 C7204 0.950 . S
H7185 C7205 0.950 . S
H7186 C7207 0.950 . S
H7187 C7210 0.950 . S
H7188 C7211 0.950 . S
H7189 C7213 0.950 . S
H7190 C7214 0.950 . S
H7191 C7215 0.951 . S
H7192 C7217 0.951 . S
H7193 C7219 0.950 . S
H7194 C7220 0.950 . S
H7195 C7222 0.950 . S
H7196 C7225 0.950 . S
H7197 C7226 0.950 . S
H7198 C7228 0.950 . S
H7199 C7229 0.950 . S
C7200 H7182 0.951 . S
C7200 C7201 1.366 . S
C7200 C7202 1.388 . S
C7201 C7200 1.366 . S
C7201 C7205 1.385 . S
C7202 H7183 0.951 . S
C7202 C7200 1.388 . S
C7202 C7203 1.366 . S
C7203 C7202 1.366 . S
C7203 C7204 1.414 . S
C7203 C7206 1.499 . S
C7204 H7184 0.950 . S
C7204 C7203 1.414 . S
C7204 C7205 1.374 . S
C7205 H7185 0.950 . S
C7205 C7201 1.385 . S
C7205 C7204 1.374 . S
C7206 C7203 1.499 . S
C7206 C7207 1.373 . S
C7206 C7208 1.389 . S
C7207 H7186 0.950 . S
C7207 C7206 1.373 . S
C7207 C7223 1.377 . S
C7208 C7206 1.389 . S
C7208 C7209 1.524 . S
C7208 C7222 1.377 . S
C7209 C7208 1.524 . S
C7209 C7210 1.397 . S
C7209 C7214 1.363 . S
C7210 H7187 0.950 . S
C7210 C7209 1.397 . S
C7210 C7211 1.334 . S
C7211 H7188 0.950 . S
C7211 C7210 1.334 . S
C7211 C7212 1.287 . S
C7212 C7211 1.287 . S
C7212 C7213 1.524 . S
C7212 H7231 0.913 . S
C7213 H7189 0.950 . S
C7213 C7212 1.524 . S
C7213 C7214 1.415 . S
C7214 H7190 0.950 . S
C7214 C7209 1.363 . S
C7214 C7213 1.415 . S
C7215 H7191 0.951 . S
C7215 C7216 1.366 . S
C7215 C7217 1.388 . S
C7216 C7215 1.366 . S
C7216 C7220 1.385 . S
C7217 H7192 0.951 . S
C7217 C7215 1.388 . S
C7217 C7218 1.366 . S
C7218 C7217 1.366 . S
C7218 C7219 1.414 . S
C7218 C7221 1.499 . S
C7219 H7193 0.950 . S
C7219 C7218 1.414 . S
C7219 C7220 1.374 . S
C7220 H7194 0.950 . S
C7220 C7216 1.385 . S
C7220 C7219 1.374 . S
C7221 C7218 1.499 . S
C7221 C7222 1.373 . S
C7221 C7223 1.389 . S
C7222 H7195 0.950 . S
C7222 C7208 1.377 . S
C7222 C7221 1.373 . S
C7223 C7207 1.377 . S
C7223 C7221 1.389 . S
C7223 C7224 1.524 . S
C7224 C7223 1.524 . S
C7224 C7225 1.397 . S
C7224 C7229 1.363 . S
C7225 H7196 0.950 . S
C7225 C7224 1.397 . S
C7225 C7226 1.334 . S
C7226 H7197 0.950 . S
C7226 C7225 1.334 . S
C7226 C7227 1.287 . S
C7227 C7226 1.287 . S
C7227 C7228 1.524 . S
C7227 H7230 0.999 . S
C7228 H7198 0.950 . S
C7228 C7227 1.524 . S
C7228 C7229 1.415 . S
C7229 H7199 0.950 . S
C7229 C7224 1.363 . S
C7229 C7228 1.415 . S
H7230 C7227 0.999 . S
H7231 C7212 0.913 . S
C2451 C665 1.369 . S
C2466 C2130 1.359 . S
C2501 C381 1.471 . S
C2516 C2141 1.464 . S
C2551 C460 0.630 . S
C2566 C2170 0.634 . S
C2616 C2173 1.397 . S
C2601 C585 1.409 . S
C2651 C108 1.510 . S
C2666 C2211 1.465 . S
C2716 C2214 0.579 . S
C2701 C196 0.589 . S
C2766 C2241 1.295 . S
C2751 C313 1.304 . S
C2801 C49 1.534 . S
C2816 C2270 1.501 . S
C2866 C2121 1.378 1_655 S
C2851 C1457 1.391 . S
C2901 C1545 0.481 . S
C2916 C2133 0.509 . S
C2966 C2161 1.608 . S
C2951 C1721 1.621 . S
C3016 C2190 0.850 . S
C3001 C1113 0.847 . S
C3051 C1428 0.733 . S
C3066 C2194 0.731 . S
C3116 C2220 1.633 . S
C3101 C1516 1.651 . S
C3166 C2233 0.446 . S
C3151 C1692 0.409 . S
C3216 C2261 1.488 . S
C3201 C1085 1.500 . S
C3266 C2113 1.463 . S
C3251 C988 1.480 . S
C3301 C1817 1.726 . S
C3316 C2280 1.703 . S
C3366 C2311 1.331 . S
C3351 C2081 1.381 . S
C3416 C2330 0.656 . S
C3401 C1993 0.655 . S
C3451 C761 1.233 . S
C3466 C2253 1.216 . S
C3501 C821 1.299 . S
C3516 C2153 1.286 . S
C3551 C2053 1.561 . S
C3566 C2341 1.542 . S
C3616 C2370 0.615 . S
C3601 C1868 0.605 . S
C3666 C2131 1.355 . S
C3651 C372 1.373 . S
C3716 C2360 1.461 . S
C3701 C645 1.467 . S
C3751 C577 0.624 . S
C3766 C2171 0.628 . S
C3801 C497 1.406 . S
C3816 C2334 1.394 . S
C3866 C2210 1.469 . S
C3851 C57 1.506 . S
C3901 C293 0.583 . S
C3916 C2293 0.574 . S
C3966 C2240 1.328 . S
C3951 C205 1.299 . S
C4016 C2391 1.497 . S
C4001 C145 1.531 . S
C4066 C2120 1.375 . S
C4051 C909 1.386 . S
C4116 C2354 0.504 . S
C4101 C1956 0.474 . S
C4151 C724 1.616 . S
C4166 C2160 1.605 . S
C4201 C1780 0.841 . S
C4216 C2351 0.844 . S
C4251 C937 0.726 . S
C4266 C2193 0.722 . S
C4316 C2301 1.630 . S
C4301 C1985 1.647 . S
C4351 C753 0.400 . S
C4366 C2234 0.439 . S
C4401 C1809 1.495 . S
C4416 C2380 1.484 . S
C4451 C1173 1.480 . S
C4466 C2114 1.459 . S
C4501 C1105 1.722 . S
C4516 C2281 1.699 . S
C4551 C1633 1.379 . S
C4566 C2230 1.328 . S
C4601 C1553 0.649 . S
C4616 C2331 0.650 . S
C4666 C2374 1.213 . S
C4651 C1729 1.230 . S
C4701 C1340 1.297 . S
C4716 C2154 1.284 1_565 S
C4766 C2180 1.538 . S
C4751 C1604 1.556 . S
C4816 C2151 0.608 . S
C4801 C1252 0.599 . S
C4851 C489 1.376 . S
C4866 C2410 1.360 . S
C4916 C2361 1.464 . S
C4901 C557 1.471 . S
C4951 C636 0.630 . S
C4966 C2430 0.634 . S
C5001 C409 1.409 . S
C5016 C2333 1.397 . S
C5051 C284 1.510 . S
C5066 C2291 1.464 . S
C5116 C2294 0.579 . S
C5101 C20 0.589 . S
C5166 C2321 1.295 . S
C5151 C137 1.308 1_655 S
C5216 C2390 1.502 . S
C5201 C225 1.534 . S
C5266 C2401 1.378 . S
C5251 C1641 1.390 . S
C5301 C1193 0.481 . S
C5316 C2353 0.510 . S
C5366 C2421 1.608 . S
C5351 C1289 1.621 . S
C5416 C2350 0.851 . S
C5401 C1377 0.846 . S
C5466 C2274 0.731 . S
C5451 C1613 0.732 . S
C5501 C1164 1.651 . S
C5516 C2300 1.630 . S
C5566 C2313 0.444 . S
C5551 C1261 0.407 . S
C5601 C1349 1.500 . S
C5616 C2381 1.488 . S
C5666 C2393 1.462 . S
C5651 C1965 1.480 . S
C5701 C849 1.726 . S
C5716 C2200 1.703 . S
C5766 C2231 1.332 . S
C5751 C929 1.389 . S
C5816 C2250 0.657 . S
C5801 C1017 0.655 . S
C5866 C2373 1.216 . S
C5851 C1897 1.232 . S
C5901 C1789 1.299 . S
C5916 C2413 1.286 . S
C5966 C2181 1.541 . S
C5951 C900 1.553 . S
C6016 C2150 0.613 . S
C6001 C733 0.605 . S
C6051 C548 1.373 . S
C6066 C2411 1.355 . S
C6116 C2140 1.461 . S
C6101 C469 1.466 . S
C6151 C401 0.625 . S
C6166 C2431 0.627 . S
C6201 C673 1.406 . S
C6216 C2174 1.394 . S
C6251 C233 1.506 . S
C6266 C2290 1.461 1_556 S
C6316 C2213 0.574 . S
C6301 C117 0.584 . S
C6351 C29 1.299 . S
C6366 C2320 1.291 . S
C6401 C321 1.531 . S
C6416 C2271 1.498 . S
C6466 C2400 1.375 . S
C6451 C2044 1.386 . S
C6501 C997 0.474 . S
C6516 C2134 0.504 . S
C6566 C2420 1.605 1_655 S
C6551 C1877 1.617 . S
C6601 C812 0.841 . S
C6616 C2191 0.844 . S
C6651 C2073 0.726 . S
C6666 C2273 0.725 . S
C6716 C2221 1.629 . S
C6701 C1025 1.647 . S
C6751 C1905 0.400 . S
C6766 C2314 0.439 . S
C6816 C2260 1.484 . S
C6801 C841 1.495 . S
C6866 C2394 1.460 . S
C6851 C1525 1.477 . S
C6916 C2201 1.699 . S
C6901 C1369 1.722 . S
C6951 C1465 1.379 . S
C6966 C2310 1.329 . S
C7016 C2251 0.651 . S
C7001 C1201 0.648 . S
C7051 C1281 1.230 . S
C7066 C2254 1.213 . S
C7101 C1076 1.297 . S
C7116 C2414 1.283 . S
C7166 C2340 1.539 . S
C7151 C1437 1.556 . S
C7216 C2371 0.609 . S
C7201 C1701 0.599 . S
