# Generated by pormake.
# Topology ssa, (4,4)-cn, num edge types: 1
# Building blocks:
#     Node 0, Type 0, BuildingBlock: NAWXER_clean_sbu_0, # of connection points: 4
#     Node 1, Type 0, BuildingBlock: NAWXER_clean_sbu_0, # of connection points: 4
#     Node 2, Type 0, BuildingBlock: NAWXER_clean_sbu_0, # of connection points: 4
#     Node 3, Type 0, BuildingBlock: NAWXER_clean_sbu_0, # of connection points: 4
#     Node 4, Type 0, BuildingBlock: NAWXER_clean_sbu_0, # of connection points: 4
#     Node 5, Type 0, BuildingBlock: NAWXER_clean_sbu_0, # of connection points: 4
#     Node 6, Type 1, BuildingBlock: KOZSID_clean_sbu_0, # of connection points: 4
#     Node 7, Type 1, BuildingBlock: KOZSID_clean_sbu_0, # of connection points: 4
#     Node 8, Type 1, BuildingBlock: KOZSID_clean_sbu_0, # of connection points: 4
#     Node 9, Type 1, BuildingBlock: KOZSID_clean_sbu_0, # of connection points: 4
#     Node 10, Type 1, BuildingBlock: KOZSID_clean_sbu_0, # of connection points: 4
#     Node 11, Type 1, BuildingBlock: KOZSID_clean_sbu_0, # of connection points: 4
#     Edge 12, Type (0, 1), BuildingBlock: XIVTED_clean_linker_0, # of connection points: 2
#     Edge 13, Type (0, 1), BuildingBlock: XIVTED_clean_linker_0, # of connection points: 2
#     Edge 14, Type (0, 1), BuildingBlock: XIVTED_clean_linker_0, # of connection points: 2
#     Edge 15, Type (0, 1), BuildingBlock: XIVTED_clean_linker_0, # of connection points: 2
#     Edge 16, Type (0, 1), BuildingBlock: XIVTED_clean_linker_0, # of connection points: 2
#     Edge 17, Type (0, 1), BuildingBlock: XIVTED_clean_linker_0, # of connection points: 2
#     Edge 18, Type (0, 1), BuildingBlock: XIVTED_clean_linker_0, # of connection points: 2
#     Edge 19, Type (0, 1), BuildingBlock: XIVTED_clean_linker_0, # of connection points: 2
#     Edge 20, Type (0, 1), BuildingBlock: XIVTED_clean_linker_0, # of connection points: 2
#     Edge 21, Type (0, 1), BuildingBlock: XIVTED_clean_linker_0, # of connection points: 2
#     Edge 22, Type (0, 1), BuildingBlock: XIVTED_clean_linker_0, # of connection points: 2
#     Edge 23, Type (0, 1), BuildingBlock: XIVTED_clean_linker_0, # of connection points: 2
#     Edge 24, Type (0, 1), BuildingBlock: XIVTED_clean_linker_0, # of connection points: 2
#     Edge 25, Type (0, 1), BuildingBlock: XIVTED_clean_linker_0, # of connection points: 2
#     Edge 26, Type (0, 1), BuildingBlock: XIVTED_clean_linker_0, # of connection points: 2
#     Edge 27, Type (0, 1), BuildingBlock: XIVTED_clean_linker_0, # of connection points: 2
#     Edge 28, Type (0, 1), BuildingBlock: XIVTED_clean_linker_0, # of connection points: 2
#     Edge 29, Type (0, 1), BuildingBlock: XIVTED_clean_linker_0, # of connection points: 2
#     Edge 30, Type (0, 1), BuildingBlock: XIVTED_clean_linker_0, # of connection points: 2
#     Edge 31, Type (0, 1), BuildingBlock: XIVTED_clean_linker_0, # of connection points: 2
#     Edge 32, Type (0, 1), BuildingBlock: XIVTED_clean_linker_0, # of connection points: 2
#     Edge 33, Type (0, 1), BuildingBlock: XIVTED_clean_linker_0, # of connection points: 2
#     Edge 34, Type (0, 1), BuildingBlock: XIVTED_clean_linker_0, # of connection points: 2
#     Edge 35, Type (0, 1), BuildingBlock: XIVTED_clean_linker_0, # of connection points: 2
# Relax obj value: 0.020
# Max RMSD: 0.060
# Mean RMSD: 0.028
data_MOF--net-ssa--node1-NAWXER_clean_sbu_0--node2-KOZSID_clean_sbu_0--edge1-XIVTED_clean_linker_0
_symmetry_space_group_name_H-M    P1
_symmetry_Int_Tables_number       1
_symmetry_cell_setting            triclinic
loop_
_symmetry_equiv_pos_as_xyz
'x, y, z'
_cell_length_a     52.856698
_cell_length_b     52.873911
_cell_length_c     37.003196
_cell_angle_alpha  93.435023
_cell_angle_beta   93.595106
_cell_angle_gamma 120.00859
loop_
_atom_site_label
_atom_site_type_symbol
_atom_site_fract_x
_atom_site_fract_y
_atom_site_fract_z
_atom_type_partial_charge
C0 C 0.05436 0.57172 0.02092 0.0
C1 C 0.99717 0.47409 0.95557 0.0
O2 O 0.03244 0.55393 0.03694 0.0
Zn3 Zn 0.99756 0.50955 0.02938 0.0
O4 O 0.05923 0.56304 0.99074 0.0
Zn5 Zn 0.02611 0.52331 0.98664 0.0
O6 O 0.9891 0.52931 0.97941 0.0
O7 O 0.96234 0.51306 0.02516 0.0
O8 O 0.01883 0.49609 0.94442 0.0
O9 O 0.98792 0.47684 0.98591 0.0
O10 O 0.00698 0.49316 0.07064 0.0
O11 O 0.03833 0.50448 0.02934 0.0
C12 C 0.96646 0.52456 0.99524 0.0
C13 C 0.02964 0.49394 0.05945 0.0
C14 C 0.51126 0.05024 0.50797 0.0
C15 C 0.53729 0.98655 0.43627 0.0
O16 O 0.51124 0.02974 0.52481 0.0
Zn17 Zn 0.51995 0.99449 0.51602 0.0
O18 O 0.51868 0.05325 0.4757 0.0
Zn19 Zn 0.5256 0.02017 0.47115 0.0
O20 O 0.48232 0.9845 0.47407 0.0
O21 O 0.48205 0.96084 0.52149 0.0
O22 O 0.53598 0.00839 0.42578 0.0
O23 O 0.53204 0.9799 0.46875 0.0
O24 O 0.55256 0.00569 0.55194 0.0
O25 O 0.56381 0.03562 0.50887 0.0
C26 C 0.46841 0.96387 0.49408 0.0
C27 C 0.57126 0.02842 0.53845 0.0
C28 C 0.45047 0.43402 0.94425 0.0
C29 C 0.48917 0.53201 0.00962 0.0
O30 O 0.44683 0.45464 0.93398 0.0
Zn31 Zn 0.46862 0.48302 0.97612 0.0
O32 O 0.4648 0.4377 0.97529 0.0
Zn33 Zn 0.48814 0.47154 0.01996 0.0
O34 O 0.4666 0.4551 0.06087 0.0
O35 O 0.44175 0.46456 0.01887 0.0
O36 O 0.49552 0.51516 0.0266 0.0
O37 O 0.47397 0.52246 0.9787 0.0
O38 O 0.51182 0.49087 0.97082 0.0
O39 O 0.52776 0.47858 0.01959 0.0
C40 C 0.44345 0.45521 0.04959 0.0
C41 C 0.53188 0.48831 0.9886 0.0
C42 C 0.03376 0.54515 0.48491 0.0
C43 C 0.9749 0.45925 0.54998 0.0
O44 O 0.04175 0.53884 0.51455 0.0
Zn45 Zn 0.00476 0.50307 0.51926 0.0
O46 O 0.00744 0.52848 0.46976 0.0
Zn47 Zn 0.96847 0.48864 0.47829 0.0
O48 O 0.94005 0.50118 0.48443 0.0
O49 O 0.97549 0.51848 0.52974 0.0
O50 O 0.96101 0.45988 0.52061 0.0
O51 O 0.00091 0.48025 0.55993 0.0
O52 O 0.00231 0.47457 0.47427 0.0
O53 O 0.96422 0.46394 0.43478 0.0
C54 C 0.95185 0.5164 0.51499 0.0
C55 C 0.98638 0.46144 0.44412 0.0
C56 C 0.49993 0.96304 0.99295 0.0
C57 C 0.46119 0.02543 0.95943 0.0
O58 O 0.50993 0.98632 0.01514 0.0
Zn59 Zn 0.50459 0.02367 0.02306 0.0
O60 O 0.48098 0.95789 0.9664 0.0
Zn61 Zn 0.47921 0.99319 0.97689 0.0
O62 O 0.52261 0.02738 0.96789 0.0
O63 O 0.5446 0.05533 0.0197 0.0
O64 O 0.45459 0.00042 0.94415 0.0
O65 O 0.47908 0.03617 0.98869 0.0
O66 O 0.48775 0.01802 0.06954 0.0
O67 O 0.4575 0.98456 0.02539 0.0
C68 C 0.54521 0.04941 0.98602 0.0
C69 C 0.46307 0.99521 0.05885 0.0
C70 C 0.55069 0.5347 0.5524 0.0
C71 C 0.45699 0.50416 0.47921 0.0
O72 O 0.52928 0.53704 0.56234 0.0
Zn73 Zn 0.50391 0.52107 0.51628 0.0
O74 O 0.54928 0.52444 0.5196 0.0
Zn75 Zn 0.5189 0.50709 0.47133 0.0
O76 O 0.53889 0.53359 0.43616 0.0
O77 O 0.52573 0.55363 0.4797 0.0
O78 O 0.47511 0.49994 0.46201 0.0
O79 O 0.46464 0.51612 0.51194 0.0
O80 O 0.49342 0.47617 0.51221 0.0
O81 O 0.51209 0.46762 0.46431 0.0
C82 C 0.5377 0.55547 0.45011 0.0
C83 C 0.4977 0.45859 0.49158 0.0
C84 C 0.19368 0.47593 0.21084 0.0
C85 C 0.19956 0.50192 0.19696 0.0
C86 C 0.22475 0.52371 0.21639 0.0
C87 C 0.23282 0.50981 0.24076 0.0
N88 N 0.21463 0.4804 0.23753 0.0
Co89 Co 0.2179 0.45177 0.26767 0.0
N90 N 0.25015 0.48426 0.30216 0.0
C91 C 0.26096 0.51339 0.3012 0.0
C92 C 0.28291 0.53052 0.32844 0.0
C93 C 0.28657 0.51121 0.34777 0.0
C94 C 0.26657 0.48324 0.33108 0.0
N95 N 0.22252 0.42313 0.29646 0.0
C96 C 0.24304 0.42794 0.32415 0.0
C97 C 0.24001 0.4018 0.33429 0.0
C98 C 0.21714 0.3797 0.31176 0.0
C99 C 0.20756 0.39354 0.28918 0.0
N100 N 0.18398 0.4194 0.23471 0.0
C101 C 0.17174 0.39021 0.23676 0.0
C102 C 0.14659 0.37348 0.21344 0.0
C103 C 0.14198 0.39324 0.19628 0.0
C104 C 0.16477 0.42091 0.21005 0.0
N105 N 0.24689 0.45141 0.23623 0.0
C106 C 0.28917 0.44892 0.19589 0.0
C107 C 0.26145 0.42426 0.19616 0.0
C108 C 0.24089 0.42595 0.21632 0.0
C109 C 0.29532 0.47509 0.21553 0.0
C110 C 0.2739 0.47594 0.23508 0.0
N111 N 0.18874 0.45168 0.29857 0.0
C112 C 0.14391 0.42337 0.32588 0.0
C113 C 0.13901 0.44698 0.32764 0.0
C114 C 0.16058 0.47372 0.31725 0.0
C115 C 0.1854 0.47571 0.30334 0.0
C116 C 0.16885 0.42625 0.31163 0.0
H117 H 0.20114 0.49655 0.29542 0.0
H118 H 0.17086 0.40716 0.31004 0.0
H119 H 0.22047 0.40611 0.21556 0.0
H120 H 0.27985 0.49665 0.24917 0.0
C121 C 0.25314 0.52398 0.27143 0.0
C122 C 0.16661 0.44808 0.20041 0.0
C123 C 0.26613 0.45675 0.34118 0.0
C124 C 0.18397 0.37944 0.2618 0.0
H125 H 0.18619 0.50497 0.17629 0.0
H126 H 0.23471 0.5471 0.21477 0.0
H127 H 0.29581 0.55426 0.33257 0.0
H128 H 0.30307 0.51724 0.37053 0.0
H129 H 0.25319 0.39907 0.35558 0.0
H130 H 0.20861 0.35634 0.31172 0.0
H131 H 0.13273 0.34981 0.2102 0.0
H132 H 0.12356 0.38797 0.1766 0.0
H133 H 0.25577 0.40346 0.18144 0.0
H134 H 0.31643 0.49491 0.21552 0.0
H135 H 0.12799 0.40231 0.334 0.0
H136 H 0.15817 0.49292 0.31942 0.0
C137 C 0.74252 0.20461 0.70929 0.0
C138 C 0.71783 0.20638 0.69839 0.0
C139 C 0.71531 0.22367 0.72534 0.0
C140 C 0.73849 0.23156 0.75114 0.0
N141 N 0.75574 0.22071 0.74175 0.0
Co142 Co 0.79034 0.22555 0.77225 0.0
N143 N 0.79333 0.25893 0.80314 0.0
C144 C 0.77204 0.26544 0.80684 0.0
C145 C 0.78153 0.29073 0.82963 0.0
C146 C 0.81058 0.30061 0.84068 0.0
C147 C 0.81709 0.28072 0.82384 0.0
N148 N 0.82472 0.2304 0.80309 0.0
C149 C 0.84571 0.25457 0.82399 0.0
C150 C 0.86708 0.24961 0.84002 0.0
C151 C 0.85883 0.2211 0.82861 0.0
C152 C 0.83312 0.2104 0.80622 0.0
N153 N 0.78772 0.19215 0.74148 0.0
C154 C 0.80075 0.17662 0.75004 0.0
C155 C 0.79526 0.15494 0.72319 0.0
C156 C 0.77724 0.15657 0.69636 0.0
C157 C 0.77251 0.17911 0.70856 0.0
N158 N 0.81653 0.25314 0.74017 0.0
C159 C 0.85619 0.29609 0.69957 0.0
C160 C 0.85946 0.27225 0.70759 0.0
C161 C 0.83953 0.25114 0.7283 0.0
C162 C 0.83232 0.29756 0.71136 0.0
C163 C 0.81258 0.27573 0.73108 0.0
N164 N 0.76388 0.19835 0.80456 0.0
C165 C 0.71741 0.15573 0.81163 0.0
C166 C 0.72034 0.16444 0.84895 0.0
C167 C 0.74675 0.18944 0.86398 0.0
C168 C 0.76831 0.20587 0.84141 0.0
C169 C 0.73918 0.17296 0.79005 0.0
H170 H 0.78801 0.22544 0.85356 0.0
H171 H 0.73535 0.16623 0.76131 0.0
H172 H 0.84302 0.23352 0.73524 0.0
H173 H 0.7944 0.27754 0.73964 0.0
C174 C 0.74643 0.25143 0.78242 0.0
C175 C 0.74985 0.184 0.69101 0.0
C176 C 0.84541 0.28206 0.82884 0.0
C177 C 0.82074 0.1853 0.78124 0.0
H178 H 0.7026 0.19547 0.67411 0.0
H179 H 0.69869 0.22989 0.72589 0.0
H180 H 0.76938 0.30167 0.83573 0.0
H181 H 0.82533 0.32027 0.85864 0.0
H182 H 0.88685 0.26504 0.85734 0.0
H183 H 0.87125 0.21026 0.83391 0.0
H184 H 0.80368 0.14002 0.72287 0.0
H185 H 0.76774 0.1421 0.67127 0.0
H186 H 0.87768 0.27039 0.69879 0.0
H187 H 0.82888 0.31547 0.70526 0.0
H188 H 0.69804 0.13605 0.79876 0.0
H189 H 0.7503 0.19711 0.89264 0.0
C190 C 0.50843 0.71781 0.16777 0.0
C191 C 0.47995 0.69564 0.15547 0.0
C192 C 0.46155 0.7015 0.17373 0.0
C193 C 0.47967 0.72675 0.1961 0.0
N194 N 0.50862 0.73738 0.1934 0.0
Co195 Co 0.54236 0.77402 0.22069 0.0
N196 N 0.51511 0.78243 0.24751 0.0
C197 C 0.48569 0.76485 0.24672 0.0
C198 C 0.47286 0.77626 0.26824 0.0
C199 C 0.49538 0.80286 0.28351 0.0
C200 C 0.52074 0.80622 0.27015 0.0
N201 N 0.57592 0.81159 0.24648 0.0
C202 C 0.57575 0.83317 0.26812 0.0
C203 C 0.60397 0.85663 0.27821 0.0
C204 C 0.62264 0.84974 0.26228 0.0
C205 C 0.60484 0.82268 0.24324 0.0
N206 N 0.56967 0.76497 0.19501 0.0
C207 C 0.59938 0.78037 0.20001 0.0
C208 C 0.61228 0.76857 0.17927 0.0
C209 C 0.58946 0.744 0.16007 0.0
C210 C 0.56382 0.74218 0.17033 0.0
N211 N 0.54011 0.79624 0.1808 0.0
C212 C 0.53679 0.8274 0.12352 0.0
C213 C 0.56315 0.82872 0.13496 0.0
C214 C 0.56434 0.81318 0.16351 0.0
C215 C 0.51206 0.81 0.14109 0.0
C216 C 0.51418 0.7947 0.16941 0.0
N217 N 0.54471 0.7513 0.26047 0.0
C218 C 0.5739 0.74009 0.30244 0.0
C219 C 0.54922 0.71346 0.30735 0.0
C220 C 0.52199 0.70701 0.29067 0.0
C221 C 0.52018 0.72634 0.26806 0.0
C222 C 0.57119 0.75855 0.27896 0.0
H223 H 0.49873 0.72011 0.2564 0.0
H224 H 0.59101 0.77809 0.27555 0.0
H225 H 0.58513 0.81527 0.17123 0.0
H226 H 0.49464 0.78196 0.18193 0.0
C227 C 0.47034 0.73977 0.22189 0.0
C228 C 0.53451 0.71847 0.15565 0.0
C229 C 0.54946 0.83273 0.27902 0.0
C230 C 0.61449 0.80704 0.22213 0.0
H231 H 0.47308 0.67678 0.13589 0.0
H232 H 0.43781 0.68851 0.1716 0.0
H233 H 0.44973 0.7669 0.27131 0.0
H234 H 0.49328 0.81833 0.30175 0.0
H235 H 0.61039 0.87681 0.29499 0.0
H236 H 0.64635 0.86304 0.26396 0.0
H237 H 0.63551 0.77712 0.17775 0.0
H238 H 0.59147 0.72923 0.14049 0.0
H239 H 0.58286 0.84174 0.12202 0.0
H240 H 0.49126 0.80873 0.13373 0.0
H241 H 0.59539 0.74605 0.31536 0.0
H242 H 0.50218 0.68688 0.29466 0.0
C243 C 0.74249 0.58132 0.73557 0.0
C244 C 0.74547 0.60828 0.72937 0.0
C245 C 0.77257 0.6294 0.74584 0.0
C246 C 0.78461 0.61426 0.76109 0.0
N247 N 0.76673 0.58493 0.75539 0.0
Co248 Co 0.77585 0.55514 0.77221 0.0
N249 N 0.80803 0.58445 0.80881 0.0
C250 C 0.8211 0.61385 0.80941 0.0
C251 C 0.84245 0.62861 0.83814 0.0
C252 C 0.84312 0.60717 0.85652 0.0
C253 C 0.82219 0.58039 0.83775 0.0
N254 N 0.78513 0.52532 0.78855 0.0
C255 C 0.80164 0.52626 0.8187 0.0
C256 C 0.80323 0.50078 0.81846 0.0
C257 C 0.78739 0.48355 0.78698 0.0
C258 C 0.77705 0.49934 0.76971 0.0
N259 N 0.74348 0.52582 0.73581 0.0
C260 C 0.73967 0.49967 0.72284 0.0
C261 C 0.7153 0.48401 0.69799 0.0
C262 C 0.70317 0.50152 0.6949 0.0
C263 C 0.72098 0.52705 0.71801 0.0
N264 N 0.80363 0.56414 0.73586 0.0
C265 C 0.84 0.56659 0.68271 0.0
C266 C 0.81285 0.56444 0.67296 0.0
C267 C 0.79528 0.56384 0.70001 0.0
C268 C 0.84953 0.57028 0.7199 0.0
C269 C 0.83089 0.56836 0.74582 0.0
N270 N 0.74815 0.54586 0.80838 0.0
C271 C 0.70728 0.50977 0.83616 0.0
C272 C 0.70629 0.53198 0.85739 0.0
C273 C 0.7273 0.56129 0.85459 0.0
C274 C 0.74799 0.56778 0.82974 0.0
C275 C 0.72846 0.51717 0.812 0.0
H276 H 0.76343 0.5905 0.82725 0.0
H277 H 0.72849 0.49963 0.7957 0.0
H278 H 0.7743 0.56165 0.6917 0.0
H279 H 0.83822 0.56904 0.77383 0.0
C280 C 0.80995 0.62651 0.7858 0.0
C281 C 0.71741 0.55292 0.71997 0.0
C282 C 0.81873 0.55196 0.84579 0.0
C283 C 0.75653 0.48885 0.73882 0.0
H284 H 0.72976 0.61225 0.71437 0.0
H285 H 0.78186 0.65297 0.74763 0.0
H286 H 0.85545 0.6521 0.84546 0.0
H287 H 0.85773 0.61085 0.88061 0.0
H288 H 0.81508 0.49539 0.83853 0.0
H289 H 0.78336 0.46183 0.77819 0.0
H290 H 0.70678 0.46209 0.68465 0.0
H291 H 0.68363 0.49621 0.67736 0.0
H292 H 0.80443 0.5618 0.64474 0.0
H293 H 0.87086 0.5735 0.72921 0.0
H294 H 0.69148 0.48684 0.8378 0.0
H295 H 0.72699 0.57905 0.87036 0.0
C296 C 0.25677 0.82007 0.34357 0.0
C297 C 0.24858 0.83825 0.36149 0.0
C298 C 0.22703 0.83796 0.33891 0.0
C299 C 0.22321 0.81958 0.30874 0.0
N300 N 0.24085 0.80787 0.31079 0.0
Co301 Co 0.24193 0.77929 0.27372 0.0
N302 N 0.21058 0.77929 0.2402 0.0
C303 C 0.19718 0.79511 0.24567 0.0
C304 C 0.177 0.79095 0.21742 0.0
C305 C 0.17729 0.77107 0.19249 0.0
C306 C 0.1976 0.76412 0.2072 0.0
N307 N 0.24292 0.75063 0.23656 0.0
C308 C 0.2264 0.73774 0.20417 0.0
C309 C 0.23371 0.71848 0.18717 0.0
C310 C 0.25565 0.71928 0.20949 0.0
C311 C 0.26039 0.73875 0.23881 0.0
N312 N 0.27327 0.77928 0.30732 0.0
C313 C 0.28686 0.76368 0.30159 0.0
C314 C 0.30776 0.76855 0.32918 0.0
C315 C 0.30772 0.7886 0.35401 0.0
C316 C 0.28653 0.79474 0.34014 0.0
N317 N 0.21135 0.74619 0.29739 0.0
C318 C 0.1711 0.70229 0.33764 0.0
C319 C 0.19528 0.70131 0.32604 0.0
C320 C 0.21477 0.7231 0.30586 0.0
C321 C 0.1668 0.72502 0.32741 0.0
C322 C 0.18695 0.74647 0.30742 0.0
N323 N 0.27269 0.81254 0.2503 0.0
C324 C 0.31897 0.83527 0.22391 0.0
C325 C 0.31521 0.85844 0.21442 0.0
C326 C 0.29011 0.85858 0.22394 0.0
C327 C 0.26951 0.83582 0.24208 0.0
C328 C 0.29758 0.81269 0.24146 0.0
H329 H 0.25114 0.83752 0.24905 0.0
H330 H 0.30159 0.79546 0.24727 0.0
H331 H 0.23259 0.72091 0.29773 0.0
H332 H 0.18253 0.76331 0.30086 0.0
C333 C 0.20359 0.81324 0.27794 0.0
C334 C 0.28098 0.81658 0.35801 0.0
C335 C 0.20271 0.742 0.18939 0.0
C336 C 0.28022 0.74539 0.26944 0.0
H337 H 0.25769 0.85082 0.38791 0.0
H338 H 0.21571 0.84996 0.34373 0.0
H339 H 0.16348 0.80094 0.21538 0.0
H340 H 0.16379 0.76231 0.16661 0.0
H341 H 0.22394 0.7048 0.16159 0.0
H342 H 0.26646 0.70671 0.20521 0.0
H343 H 0.32176 0.75906 0.33073 0.0
H344 H 0.32213 0.79791 0.37911 0.0
H345 H 0.19916 0.68371 0.33235 0.0
H346 H 0.14836 0.72676 0.33557 0.0
H347 H 0.33799 0.83409 0.21694 0.0
H348 H 0.28643 0.87631 0.21763 0.0
C349 C 0.40793 0.24625 0.75258 0.0
C350 C 0.37917 0.23958 0.75482 0.0
C351 C 0.36172 0.21458 0.73197 0.0
C352 C 0.38072 0.20738 0.71719 0.0
N353 N 0.4093 0.22622 0.72928 0.0
Co354 Co 0.4442 0.22401 0.71466 0.0
N355 N 0.41859 0.18797 0.67973 0.0
C356 C 0.38895 0.17385 0.67301 0.0
C357 C 0.37753 0.15012 0.64719 0.0
C358 C 0.40126 0.149 0.63667 0.0
C359 C 0.4259 0.17215 0.65687 0.0
N360 N 0.47913 0.22185 0.70014 0.0
C361 C 0.48071 0.20277 0.67548 0.0
C362 C 0.50945 0.20898 0.67419 0.0
C363 C 0.52668 0.23299 0.69854 0.0
C364 C 0.5076 0.23998 0.7134 0.0
N365 N 0.46987 0.26019 0.74933 0.0
C366 C 0.4995 0.27423 0.75619 0.0
C367 C 0.51113 0.29885 0.78056 0.0
C368 C 0.48757 0.3008 0.78984 0.0
C369 C 0.46278 0.27704 0.77061 0.0
N370 N 0.44039 0.19883 0.75414 0.0
C371 C 0.43568 0.16078 0.80685 0.0
C372 C 0.46255 0.18583 0.80336 0.0
C373 C 0.46438 0.2044 0.77709 0.0
C374 C 0.41103 0.15563 0.78435 0.0
C375 C 0.41383 0.17484 0.75857 0.0
N376 N 0.44793 0.24893 0.67515 0.0
C377 C 0.47773 0.28991 0.64194 0.0
C378 C 0.4529 0.28506 0.62002 0.0
C379 C 0.42565 0.26143 0.62563 0.0
C380 C 0.42368 0.24381 0.6531 0.0
C381 C 0.47476 0.27173 0.66912 0.0
H382 H 0.40227 0.22632 0.65614 0.0
H383 H 0.49444 0.27676 0.68519 0.0
H384 H 0.48555 0.22282 0.77556 0.0
H385 H 0.39421 0.16957 0.74232 0.0
C386 C 0.37248 0.18362 0.6911 0.0
C387 C 0.43311 0.27176 0.77324 0.0
C388 C 0.45574 0.17834 0.65301 0.0
C389 C 0.51587 0.26393 0.73905 0.0
H390 H 0.37161 0.25162 0.77121 0.0
H391 H 0.33802 0.20315 0.72653 0.0
H392 H 0.35468 0.1355 0.63704 0.0
H393 H 0.40053 0.13304 0.61626 0.0
H394 H 0.51724 0.19739 0.65738 0.0
H395 H 0.55033 0.24414 0.70453 0.0
H396 H 0.53403 0.31374 0.79021 0.0
H397 H 0.48859 0.31793 0.80849 0.0
H398 H 0.48236 0.19069 0.82002 0.0
H399 H 0.38962 0.13676 0.7865 0.0
H400 H 0.4993 0.30821 0.63895 0.0
H401 H 0.40582 0.25659 0.60903 0.0
H402 H 0.06845 0.47936 0.03435 0.0
H403 H 0.12692 0.46009 0.22858 0.0
H404 H 0.02897 0.48303 0.13166 0.0
H405 H 0.15044 0.43777 0.12722 0.0
H406 H 0.09007 0.46754 0.19454 0.0
H407 H 0.09805 0.46358 0.06844 0.0
C408 C 0.06594 0.47679 0.06296 0.0
C409 C 0.04629 0.48276 0.08021 0.0
C410 C 0.10292 0.46055 0.17973 0.0
C411 C 0.08047 0.46469 0.11968 0.0
C412 C 0.1238 0.45621 0.19912 0.0
C413 C 0.14134 0.44808 0.18048 0.0
C414 C 0.10003 0.45719 0.14145 0.0
C415 C 0.13703 0.44376 0.14241 0.0
C416 C 0.08281 0.46762 0.08241 0.0
C417 C 0.04385 0.47871 0.11728 0.0
N418 N 0.11698 0.44862 0.12413 0.0
N419 N 0.06098 0.47022 0.1359 0.0
H420 H 0.59366 0.02328 0.60465 0.0
H421 H 0.73626 0.18386 0.61826 0.0
H422 H 0.61576 0.07874 0.51706 0.0
H423 H 0.71048 0.12953 0.70659 0.0
H424 H 0.69521 0.14352 0.57803 0.0
H425 H 0.63994 0.05962 0.63967 0.0
C426 C 0.60838 0.04292 0.59261 0.0
C427 C 0.60067 0.04813 0.55807 0.0
C428 C 0.69872 0.14035 0.60614 0.0
C429 C 0.65351 0.08995 0.59809 0.0
C430 C 0.72205 0.16329 0.62891 0.0
C431 C 0.72652 0.15971 0.66544 0.0
C432 C 0.6799 0.11389 0.62029 0.0
C433 C 0.70763 0.1329 0.6784 0.0
C434 C 0.63477 0.06373 0.61265 0.0
C435 C 0.62068 0.07394 0.54375 0.0
N436 N 0.68508 0.11102 0.65587 0.0
N437 N 0.64607 0.09402 0.56397 0.0
H438 H 0.47653 0.57366 0.98652 0.0
H439 H 0.54819 0.67752 0.17449 0.0
H440 H 0.52338 0.55805 0.07398 0.0
H441 H 0.51277 0.70164 0.08365 0.0
H442 H 0.53979 0.63384 0.13681 0.0
H443 H 0.49003 0.62097 0.02011 0.0
C444 C 0.48981 0.58023 0.01256 0.0
C445 C 0.49864 0.56171 0.0275 0.0
C446 C 0.53399 0.6487 0.12488 0.0
C447 C 0.51399 0.61559 0.06609 0.0
C448 C 0.53885 0.67361 0.1464 0.0
C449 C 0.53113 0.69298 0.132 0.0
C450 C 0.52102 0.64296 0.08872 0.0
C451 C 0.51894 0.68703 0.09557 0.0
C452 C 0.49749 0.60721 0.03173 0.0
C453 C 0.51584 0.5714 0.06138 0.0
N454 N 0.51404 0.66239 0.07518 0.0
N455 N 0.52275 0.59748 0.07951 0.0
H456 H 0.97062 0.54631 0.58249 0.0
H457 H 0.84426 0.581 0.6113 0.0
H458 H 0.90084 0.51701 0.49495 0.0
H459 H 0.8747 0.54193 0.68972 0.0
H460 H 0.87218 0.57215 0.56649 0.0
H461 H 0.94427 0.56226 0.62044 0.0
C462 C 0.94993 0.54356 0.57096 0.0
C463 C 0.93765 0.52977 0.53561 0.0
C464 C 0.87269 0.56585 0.59372 0.0
C465 C 0.90764 0.54837 0.57911 0.0
C466 C 0.85673 0.57072 0.61932 0.0
C467 C 0.85734 0.5627 0.65487 0.0
C468 C 0.8898 0.55357 0.60413 0.0
C469 C 0.87422 0.54966 0.66343 0.0
C470 C 0.93495 0.55267 0.59274 0.0
C471 C 0.91089 0.52721 0.52221 0.0
N472 N 0.88992 0.54581 0.63842 0.0
N473 N 0.89653 0.53625 0.54417 0.0
H474 H 0.47263 0.99518 0.13285 0.0
H475 H 0.30404 0.88062 0.15443 0.0
H476 H 0.40392 0.95873 0.04331 0.0
H477 H 0.37552 0.88905 0.22707 0.0
H478 H 0.3398 0.91696 0.11864 0.0
H479 H 0.43655 0.96409 0.17297 0.0
C480 C 0.44991 0.98102 0.12177 0.0
C481 C 0.44129 0.97948 0.08465 0.0
C482 C 0.34765 0.91097 0.14253 0.0
C483 C 0.40001 0.94404 0.13031 0.0
C484 C 0.32726 0.89036 0.16308 0.0
C485 C 0.3368 0.8817 0.19371 0.0
C486 C 0.37788 0.92341 0.15292 0.0
C487 C 0.36722 0.89488 0.20343 0.0
C488 C 0.42941 0.96315 0.14459 0.0
C489 C 0.41158 0.96052 0.07169 0.0
N490 N 0.38668 0.91511 0.18316 0.0
N491 N 0.39206 0.94361 0.09444 0.0
H492 H 0.51858 0.42152 0.47484 0.0
H493 H 0.41612 0.30639 0.60624 0.0
H494 H 0.45211 0.42748 0.53052 0.0
H495 H 0.49502 0.31085 0.57312 0.0
H496 H 0.42267 0.34396 0.56673 0.0
H497 H 0.50391 0.37444 0.49926 0.0
C498 C 0.50059 0.41266 0.49164 0.0
C499 C 0.48677 0.42849 0.50115 0.0
C500 C 0.43842 0.33654 0.56781 0.0
C501 C 0.46997 0.37505 0.52891 0.0
C502 C 0.43458 0.31492 0.59018 0.0
C503 C 0.45521 0.30565 0.59324 0.0
C504 C 0.46312 0.34912 0.54838 0.0
C505 C 0.4789 0.31779 0.57207 0.0
C506 C 0.49235 0.38595 0.50567 0.0
C507 C 0.46363 0.41615 0.523 0.0
N508 N 0.48237 0.33911 0.55071 0.0
N509 N 0.45609 0.39027 0.53631 0.0
H510 H 0.53451 0.98212 0.36117 0.0
H511 H 0.56963 0.85063 0.35081 0.0
H512 H 0.55388 0.94752 0.45494 0.0
H513 H 0.53408 0.87227 0.25766 0.0
H514 H 0.57027 0.89085 0.38828 0.0
H515 H 0.54052 0.94684 0.32157 0.0
C516 C 0.54035 0.96739 0.37342 0.0
C517 C 0.54351 0.96767 0.41144 0.0
C518 C 0.56249 0.887 0.35961 0.0
C519 C 0.55039 0.92734 0.36642 0.0
C520 C 0.56224 0.86415 0.3383 0.0
C521 C 0.55188 0.85839 0.30129 0.0
C522 C 0.55226 0.90421 0.34375 0.0
C523 C 0.5423 0.87625 0.2862 0.0
C524 C 0.54363 0.94717 0.35083 0.0
C525 C 0.55097 0.94797 0.42581 0.0
N526 N 0.54265 0.89837 0.3075 0.0
N527 N 0.55408 0.92865 0.40336 0.0
H528 H 0.53777 0.48971 0.91661 0.0
H529 H 0.70872 0.55171 0.92868 0.0
H530 H 0.5863 0.5016 0.02064 0.0
H531 H 0.64826 0.49583 0.83625 0.0
H532 H 0.66657 0.54043 0.9633 0.0
H533 H 0.58093 0.49967 0.88665 0.0
C534 C 0.55761 0.49458 0.93323 0.0
C535 C 0.55851 0.49486 0.9712 0.0
C536 C 0.66273 0.53049 0.93557 0.0
C537 C 0.60806 0.50633 0.93689 0.0
C538 C 0.68661 0.537 0.91584 0.0
C539 C 0.6818 0.52457 0.8797 0.0
C540 C 0.63409 0.51207 0.91854 0.0
C541 C 0.65287 0.50561 0.86417 0.0
C542 C 0.58217 0.50006 0.91604 0.0
C543 C 0.58477 0.50108 0.99127 0.0
N544 N 0.6301 0.50017 0.88357 0.0
N545 N 0.60875 0.50683 0.97383 0.0
H546 H 0.09397 0.57975 0.50008 0.0
H547 H 0.11088 0.67505 0.33266 0.0
H548 H 0.02117 0.56809 0.42695 0.0
H549 H 0.18471 0.67861 0.39465 0.0
H550 H 0.07787 0.63867 0.37043 0.0
H551 H 0.12773 0.61896 0.46545 0.0
C552 C 0.08505 0.58558 0.47699 0.0
C553 C 0.05465 0.57049 0.4664 0.0
C554 C 0.10129 0.64739 0.37582 0.0
C555 C 0.09316 0.61526 0.42659 0.0
C556 C 0.12019 0.66831 0.35434 0.0
C557 C 0.15067 0.67993 0.36036 0.0
C558 C 0.11285 0.63802 0.40381 0.0
C559 C 0.16136 0.67 0.38865 0.0
C560 C 0.10435 0.60787 0.45713 0.0
C561 C 0.04441 0.57896 0.43611 0.0
N562 N 0.14251 0.64969 0.40933 0.0
N563 N 0.06356 0.60066 0.41733 0.0
H564 H 0.47409 0.08116 0.98241 0.0
H565 H 0.40515 0.10074 0.79515 0.0
H566 H 0.42538 0.01114 0.89563 0.0
H567 H 0.46202 0.17241 0.87685 0.0
H568 H 0.40568 0.06622 0.83576 0.0
H569 H 0.46302 0.11318 0.94837 0.0
C570 C 0.46073 0.07236 0.95642 0.0
C571 C 0.45095 0.0435 0.94166 0.0
C572 C 0.41784 0.08948 0.84494 0.0
C573 C 0.4384 0.08019 0.9024 0.0
C574 C 0.41741 0.1092 0.82186 0.0
C575 C 0.43377 0.13954 0.83252 0.0
C576 C 0.43474 0.10015 0.87897 0.0
C577 C 0.44952 0.14925 0.86728 0.0
C578 C 0.4545 0.09072 0.93694 0.0
C579 C 0.43359 0.03331 0.90794 0.0
N580 N 0.44975 0.12962 0.88917 0.0
N581 N 0.42811 0.05173 0.88928 0.0
H582 H 0.43515 0.47792 0.40987 0.0
H583 H 0.28102 0.47237 0.41475 0.0
H584 H 0.41161 0.50928 0.50514 0.0
H585 H 0.30966 0.4484 0.3189 0.0
H586 H 0.32658 0.4822 0.45019 0.0
H587 H 0.38755 0.46357 0.37802 0.0
C588 C 0.41996 0.48179 0.42421 0.0
C589 C 0.42759 0.49501 0.46031 0.0
C590 C 0.32282 0.47457 0.42149 0.0
C591 C 0.37257 0.47844 0.42363 0.0
C592 C 0.29684 0.46886 0.4014 0.0
C593 C 0.29184 0.45967 0.364 0.0
C594 C 0.34381 0.47093 0.40396 0.0
C595 C 0.31283 0.45544 0.34773 0.0
C596 C 0.39267 0.47353 0.4059 0.0
C597 C 0.40677 0.49927 0.47732 0.0
N598 N 0.33794 0.46123 0.36776 0.0
N599 N 0.38023 0.49108 0.4588 0.0
H600 H 0.98828 0.46111 0.88107 0.0
H601 H 0.86888 0.2937 0.89923 0.0
H602 H 0.97025 0.42146 0.98191 0.0
H603 H 0.88014 0.33154 0.7974 0.0
H604 H 0.91122 0.33927 0.92819 0.0
H605 H 0.95444 0.41257 0.84773 0.0
C606 C 0.97767 0.4421 0.89604 0.0
C607 C 0.9816 0.44518 0.93419 0.0
C608 C 0.90471 0.33769 0.89943 0.0
C609 C 0.94309 0.39016 0.89671 0.0
C610 C 0.88062 0.3117 0.88304 0.0
C611 C 0.87152 0.30914 0.84608 0.0
C612 C 0.91945 0.36143 0.87878 0.0
C613 C 0.88687 0.33298 0.82606 0.0
C614 C 0.95827 0.41453 0.87712 0.0
C615 C 0.96739 0.42004 0.95247 0.0
N616 N 0.91015 0.35834 0.84274 0.0
N617 N 0.94862 0.39367 0.93359 0.0
H618 H 0.97487 0.55791 0.93911 0.0
H619 H 0.80942 0.5255 0.90918 0.0
H620 H 0.9098 0.5078 0.01022 0.0
H621 H 0.8773 0.57584 0.8418 0.0
H622 H 0.84568 0.52094 0.94929 0.0
H623 H 0.9396 0.56712 0.90623 0.0
C624 C 0.95313 0.54889 0.94797 0.0
C625 C 0.94529 0.53185 0.97741 0.0
C626 C 0.85271 0.5333 0.92601 0.0
C627 C 0.90434 0.54227 0.93935 0.0
C628 C 0.83209 0.53597 0.9033 0.0
C629 C 0.84064 0.55144 0.87264 0.0
C630 C 0.88194 0.54603 0.91767 0.0
C631 C 0.87003 0.56416 0.86557 0.0
C632 C 0.93292 0.5542 0.9291 0.0
C633 C 0.91679 0.52103 0.98768 0.0
N634 N 0.88955 0.56113 0.88783 0.0
N635 N 0.89724 0.52622 0.96848 0.0
H636 H 0.43326 0.90788 0.51282 0.0
H637 H 0.31529 0.87369 0.34827 0.0
H638 H 0.43162 0.97427 0.45194 0.0
H639 H 0.29854 0.81236 0.42783 0.0
H640 H 0.35682 0.91159 0.38904 0.0
H641 H 0.38271 0.8729 0.48608 0.0
C642 C 0.42209 0.9152 0.4944 0.0
C643 C 0.43679 0.94371 0.48381 0.0
C644 C 0.34395 0.88998 0.39796 0.0
C645 C 0.37953 0.90418 0.45331 0.0
C646 C 0.3203 0.86843 0.37466 0.0
C647 C 0.30405 0.83999 0.3847 0.0
C648 C 0.35173 0.88285 0.43125 0.0
C649 C 0.31111 0.83408 0.41912 0.0
C650 C 0.39332 0.8953 0.47919 0.0
C651 C 0.42136 0.95225 0.4601 0.0
N652 N 0.33491 0.85526 0.44105 0.0
N653 N 0.39375 0.93247 0.4453 0.0
H654 H 0.44778 0.38337 0.96172 0.0
H655 H 0.42181 0.31471 0.75485 0.0
H656 H 0.43181 0.42279 0.87078 0.0
H657 H 0.43558 0.2756 0.84722 0.0
H658 H 0.42052 0.352 0.79654 0.0
H659 H 0.43832 0.3413 0.92029 0.0
C660 C 0.44197 0.38307 0.93303 0.0
C661 C 0.44082 0.40683 0.91972 0.0
C662 C 0.42348 0.33508 0.80774 0.0
C663 C 0.43023 0.35859 0.8718 0.0
C664 C 0.42412 0.31383 0.78398 0.0
C665 C 0.42883 0.29228 0.79786 0.0
C666 C 0.42772 0.33473 0.84558 0.0
C667 C 0.43189 0.29197 0.83565 0.0
C668 C 0.43659 0.35898 0.90932 0.0
C669 C 0.43298 0.40501 0.88226 0.0
N670 N 0.4315 0.313 0.85821 0.0
N671 N 0.4283 0.38146 0.85955 0.0
H672 H 0.0053 0.42435 0.46121 0.0
H673 H 0.10455 0.46734 0.29831 0.0
H674 H 0.99307 0.46736 0.3721 0.0
H675 H 0.1102 0.41795 0.38406 0.0
H676 H 0.05934 0.46186 0.31971 0.0
H677 H 0.03739 0.41373 0.42695 0.0
C678 C 0.00869 0.43069 0.43382 0.0
C679 C 0.99677 0.4468 0.41937 0.0
C680 C 0.07031 0.45196 0.33358 0.0
C681 C 0.03449 0.43605 0.38066 0.0
C682 C 0.09629 0.4554 0.32168 0.0
C683 C 0.11136 0.44344 0.33978 0.0
C684 C 0.05947 0.43662 0.36393 0.0
C685 C 0.09931 0.42752 0.36928 0.0
C686 C 0.02722 0.42489 0.41437 0.0
C687 C 0.00184 0.45473 0.38397 0.0
N688 N 0.07425 0.42482 0.38061 0.0
N689 N 0.02097 0.44989 0.36605 0.0
H690 H 0.54796 0.05076 0.91294 0.0
H691 H 0.72188 0.15431 0.92163 0.0
H692 H 0.60219 0.08912 0.01549 0.0
H693 H 0.66129 0.13828 0.82738 0.0
H694 H 0.67984 0.12778 0.9565 0.0
H695 H 0.59074 0.07925 0.88102 0.0
C696 C 0.56891 0.0652 0.92882 0.0
C697 C 0.57142 0.06751 0.96703 0.0
C698 C 0.6759 0.13014 0.92817 0.0
C699 C 0.62086 0.10029 0.93035 0.0
C700 C 0.69988 0.14536 0.9082 0.0
C701 C 0.69534 0.14835 0.87117 0.0
C702 C 0.64716 0.1176 0.91096 0.0
C703 C 0.66616 0.13596 0.85542 0.0
C704 C 0.59337 0.08158 0.91051 0.0
C705 C 0.59922 0.08675 0.98602 0.0
N706 N 0.64334 0.12108 0.87526 0.0
N707 N 0.62295 0.10229 0.96748 0.0
H708 H 0.54997 0.61011 0.47741 0.0
H709 H 0.53008 0.6565 0.28431 0.0
H710 H 0.54541 0.56027 0.37798 0.0
H711 H 0.57445 0.72128 0.37719 0.0
H712 H 0.53297 0.61995 0.31914 0.0
H713 H 0.55749 0.6508 0.44249 0.0
C714 C 0.55098 0.6079 0.44832 0.0
C715 C 0.54687 0.58172 0.4305 0.0
C716 C 0.5423 0.64221 0.33183 0.0
C717 C 0.55487 0.62784 0.39049 0.0
C718 C 0.54044 0.66295 0.31211 0.0
C719 C 0.55185 0.69175 0.32813 0.0
C720 C 0.55514 0.6502 0.36808 0.0
C721 C 0.56538 0.69921 0.36401 0.0
C722 C 0.55531 0.63112 0.42846 0.0
C723 C 0.54847 0.58005 0.3928 0.0
N724 N 0.56632 0.67841 0.38305 0.0
N725 N 0.55185 0.60262 0.37394 0.0
H726 H 0.51338 0.1005 0.48641 0.0
H727 H 0.44366 0.12319 0.66375 0.0
H728 H 0.48728 0.04328 0.57215 0.0
H729 H 0.47961 0.18815 0.58811 0.0
H730 H 0.45544 0.09141 0.62643 0.0
H731 H 0.4977 0.1312 0.51953 0.0
C732 C 0.50435 0.09436 0.51206 0.0
C733 C 0.50183 0.06934 0.52656 0.0
C734 C 0.46067 0.11253 0.61775 0.0
C735 C 0.48372 0.10414 0.56435 0.0
C736 C 0.4538 0.13052 0.63899 0.0
C737 C 0.4607 0.15811 0.62879 0.0
C738 C 0.47461 0.12225 0.58609 0.0
C739 C 0.47398 0.16689 0.59665 0.0
C740 C 0.49542 0.11187 0.53094 0.0
C741 C 0.48989 0.06242 0.5599 0.0
N742 N 0.48064 0.14904 0.57642 0.0
N743 N 0.48133 0.07966 0.57754 0.0
H744 H 0.44641 0.45791 0.1241 0.0
H745 H 0.28088 0.42326 0.1267 0.0
H746 H 0.38625 0.43627 0.02759 0.0
H747 H 0.34744 0.4701 0.21757 0.0
H748 H 0.3172 0.41962 0.09258 0.0
H749 H 0.40787 0.45347 0.16148 0.0
C750 C 0.42493 0.45163 0.11085 0.0
C751 C 0.41949 0.44763 0.07275 0.0
C752 C 0.32387 0.43065 0.12001 0.0
C753 C 0.37566 0.44275 0.11506 0.0
C754 C 0.30315 0.43267 0.13951 0.0
C755 C 0.31125 0.44711 0.17492 0.0
C756 C 0.35289 0.44299 0.13608 0.0
C757 C 0.34045 0.45912 0.19013 0.0
C758 C 0.40309 0.44938 0.13213 0.0
C759 C 0.3914 0.43978 0.05689 0.0
N760 N 0.36027 0.45677 0.17061 0.0
N761 N 0.37058 0.43771 0.07811 0.0
H762 H 0.9308 0.40344 0.52668 0.0
H763 H 0.89005 0.3545 0.72236 0.0
H764 H 0.98517 0.45815 0.62347 0.0
H765 H 0.86977 0.29111 0.63033 0.0
H766 H 0.92185 0.39394 0.6865 0.0
H767 H 0.90469 0.36291 0.56368 0.0
C768 C 0.93731 0.4069 0.55573 0.0
C769 C 0.96018 0.43424 0.57204 0.0
C770 C 0.9107 0.37138 0.67429 0.0
C771 C 0.93005 0.38805 0.61457 0.0
C772 C 0.89255 0.34895 0.69465 0.0
C773 C 0.87741 0.31962 0.67918 0.0
C774 C 0.9131 0.36448 0.63789 0.0
C775 C 0.88126 0.31347 0.64322 0.0
C776 C 0.92248 0.38371 0.57676 0.0
C777 C 0.96775 0.43741 0.60977 0.0
N778 N 0.89842 0.33577 0.62357 0.0
N779 N 0.95246 0.41472 0.62986 0.0
H780 H 0.47028 0.90353 0.97316 0.0
H781 H 0.57809 0.88363 0.11358 0.0
H782 H 0.55081 0.97437 0.03053 0.0
H783 H 0.49241 0.81255 0.06902 0.0
H784 H 0.57321 0.91509 0.0718 0.0
H785 H 0.48285 0.86828 0.99664 0.0
C786 C 0.49088 0.91165 0.99001 0.0
C787 C 0.50931 0.94179 0.00052 0.0
C788 C 0.55558 0.89251 0.07083 0.0
C789 C 0.52369 0.9019 0.02742 0.0
C790 C 0.55844 0.87443 0.09455 0.0
C791 C 0.53544 0.84548 0.09518 0.0
C792 C 0.52943 0.88172 0.04772 0.0
C793 C 0.51038 0.83495 0.07007 0.0
C794 C 0.49796 0.89158 0.00353 0.0
C795 C 0.53573 0.95124 0.02236 0.0
N796 N 0.50787 0.85318 0.04763 0.0
N797 N 0.54197 0.93136 0.03539 0.0
H798 H 0.55751 0.54536 0.62744 0.0
H799 H 0.714 0.55398 0.64662 0.0
H800 H 0.60254 0.53945 0.53681 0.0
H801 H 0.66741 0.55161 0.73888 0.0
H802 H 0.67464 0.55267 0.6065 0.0
H803 H 0.59885 0.55198 0.66932 0.0
C804 C 0.57617 0.54578 0.61632 0.0
C805 C 0.57644 0.54171 0.5785 0.0
C806 C 0.67288 0.55243 0.63549 0.0
C807 C 0.62369 0.54911 0.62622 0.0
C808 C 0.69532 0.55314 0.65828 0.0
C809 C 0.69357 0.5525 0.69584 0.0
C810 C 0.64849 0.55122 0.65035 0.0
C811 C 0.66925 0.55183 0.70991 0.0
C812 C 0.59969 0.54941 0.64025 0.0
C813 C 0.60119 0.54232 0.5657 0.0
N814 N 0.64753 0.55108 0.68712 0.0
N815 N 0.62365 0.54583 0.58943 0.0
H816 H 0.04374 0.59947 0.07683 0.0
H817 H 0.20891 0.73335 0.11733 0.0
H818 H 0.11092 0.61129 0.00775 0.0
H819 H 0.14612 0.70215 0.19617 0.0
H820 H 0.1715 0.69522 0.07109 0.0
H821 H 0.07903 0.64453 0.11415 0.0
C822 C 0.0659 0.61173 0.06928 0.0
C823 C 0.07457 0.60134 0.03952 0.0
C824 C 0.16593 0.69691 0.09846 0.0
C825 C 0.11523 0.65294 0.08247 0.0
C826 C 0.18717 0.71849 0.12468 0.0
C827 C 0.18044 0.72036 0.16043 0.0
C828 C 0.13783 0.6776 0.10818 0.0
C829 C 0.15205 0.70112 0.16885 0.0
C830 C 0.08606 0.63745 0.09068 0.0
C831 C 0.10343 0.61844 0.03066 0.0
N832 N 0.13178 0.68047 0.14293 0.0
N833 N 0.12294 0.64332 0.0524 0.0
loop_
_geom_bond_atom_site_label_1
_geom_bond_atom_site_label_2
_geom_bond_distance
_geom_bond_site_symmetry_2
_ccdc_geom_bond_type
C0 O2 1.247 . S
C0 O4 1.258 . S
C1 O8 1.247 . S
C1 O9 1.258 . S
O2 C0 1.247 . S
O2 Zn3 2.028 1_455 S
Zn3 O2 2.028 1_655 S
Zn3 O7 2.035 1_554 S
Zn3 O9 2.035 1_554 S
Zn3 O10 2.028 1_655 S
O4 C0 1.258 . S
O4 Zn5 2.035 1_554 S
Zn5 O4 2.035 1_556 S
Zn5 O6 2.028 1_455 S
Zn5 O8 2.028 1_455 S
Zn5 O11 2.035 1_556 S
O6 Zn5 2.028 1_655 S
O6 C12 1.247 . S
O7 Zn3 2.035 1_556 S
O7 C12 1.258 . S
O8 C1 1.247 . S
O8 Zn5 2.028 1_655 S
O9 C1 1.258 . S
O9 Zn3 2.035 1_556 S
O10 Zn3 2.028 1_455 S
O10 C13 1.247 . S
O11 Zn5 2.035 1_554 S
O11 C13 1.258 . S
C12 O6 1.247 . S
C12 O7 1.258 . S
C13 O10 1.247 . S
C13 O11 1.258 . S
C14 O16 1.247 . S
C14 O18 1.258 . S
C15 O22 1.247 . S
C15 O23 1.258 . S
O16 C14 1.247 . S
O16 Zn17 2.028 1_545 S
Zn17 O16 2.028 1_565 S
Zn17 O21 2.035 . S
Zn17 O23 2.035 . S
Zn17 O24 2.028 1_565 S
O18 C14 1.258 . S
O18 Zn19 2.035 . S
Zn19 O18 2.035 . S
Zn19 O20 2.028 1_545 S
Zn19 O22 2.028 1_545 S
Zn19 O25 2.035 . S
O20 Zn19 2.028 1_565 S
O20 C26 1.247 . S
O21 Zn17 2.035 . S
O21 C26 1.258 . S
O22 C15 1.247 . S
O22 Zn19 2.028 1_565 S
O23 C15 1.258 . S
O23 Zn17 2.035 . S
O24 Zn17 2.028 1_545 S
O24 C27 1.247 . S
O25 Zn19 2.035 . S
O25 C27 1.258 . S
C26 O20 1.247 . S
C26 O21 1.258 . S
C27 O24 1.247 . S
C27 O25 1.258 . S
C28 O30 1.247 . S
C28 O32 1.258 . S
C29 O36 1.247 . S
C29 O37 1.258 . S
O30 C28 1.247 . S
O30 Zn31 2.028 . S
Zn31 O30 2.028 . S
Zn31 O35 2.035 1_556 S
Zn31 O37 2.035 1_556 S
Zn31 O38 2.028 . S
O32 C28 1.258 . S
O32 Zn33 2.035 1_556 S
Zn33 O32 2.035 1_554 S
Zn33 O34 2.028 . S
Zn33 O36 2.028 . S
Zn33 O39 2.035 1_554 S
O34 Zn33 2.028 . S
O34 C40 1.247 . S
O35 Zn31 2.035 1_554 S
O35 C40 1.258 . S
O36 C29 1.247 . S
O36 Zn33 2.028 . S
O37 C29 1.258 . S
O37 Zn31 2.035 1_554 S
O38 Zn31 2.028 . S
O38 C41 1.247 . S
O39 Zn33 2.035 1_556 S
O39 C41 1.258 . S
C40 O34 1.247 . S
C40 O35 1.258 . S
C41 O38 1.247 . S
C41 O39 1.258 . S
C42 O44 1.247 . S
C42 O46 1.258 . S
C43 O50 1.247 . S
C43 O51 1.258 . S
O44 C42 1.247 . S
O44 Zn45 2.028 . S
Zn45 O44 2.028 . S
Zn45 O49 2.035 1_455 S
Zn45 O51 2.035 1_455 S
Zn45 O52 2.028 . S
O46 C42 1.258 . S
O46 Zn47 2.035 1_455 S
Zn47 O46 2.035 1_655 S
Zn47 O48 2.028 . S
Zn47 O50 2.028 . S
Zn47 O53 2.035 1_655 S
O48 Zn47 2.028 . S
O48 C54 1.247 . S
O49 Zn45 2.035 1_655 S
O49 C54 1.258 . S
O50 C43 1.247 . S
O50 Zn47 2.028 . S
O51 C43 1.258 . S
O51 Zn45 2.035 1_655 S
O52 Zn45 2.028 . S
O52 C55 1.247 . S
O53 Zn47 2.035 1_455 S
O53 C55 1.258 . S
C54 O48 1.247 . S
C54 O49 1.258 . S
C55 O52 1.247 . S
C55 O53 1.258 . S
C56 O58 1.284 . S
C56 O60 1.258 . S
C57 O64 1.247 . S
C57 O65 1.258 . S
O58 C56 1.284 . S
O58 Zn59 1.991 1_565 S
Zn59 O58 1.991 1_545 S
Zn59 O63 2.035 1_554 S
Zn59 O65 2.035 1_554 S
Zn59 O66 2.027 1_545 S
O60 C56 1.258 . S
O60 Zn61 2.035 1_554 S
Zn61 O60 2.035 1_556 S
Zn61 O62 2.028 1_565 S
Zn61 O64 2.028 1_565 S
Zn61 O67 2.035 1_556 S
O62 Zn61 2.028 1_545 S
O62 C68 1.247 . S
O63 Zn59 2.035 1_556 S
O63 C68 1.258 . S
O64 C57 1.247 . S
O64 Zn61 2.028 1_545 S
O65 C57 1.258 . S
O65 Zn59 2.035 1_556 S
O66 Zn59 2.027 1_565 S
O66 C69 1.248 . S
O67 Zn61 2.035 1_554 S
O67 C69 1.258 . S
C68 O62 1.247 . S
C68 O63 1.258 . S
C69 O66 1.248 . S
C69 O67 1.258 . S
C70 O72 1.247 . S
C70 O74 1.258 . S
C71 O78 1.247 . S
C71 O79 1.258 . S
O72 C70 1.247 . S
O72 Zn73 2.028 . S
Zn73 O72 2.028 . S
Zn73 O77 2.035 . S
Zn73 O79 2.035 . S
Zn73 O80 2.028 . S
O74 C70 1.258 . S
O74 Zn75 2.035 . S
Zn75 O74 2.035 . S
Zn75 O76 2.028 . S
Zn75 O78 2.028 . S
Zn75 O81 2.035 . S
O76 Zn75 2.028 . S
O76 C82 1.247 . S
O77 Zn73 2.035 . S
O77 C82 1.258 . S
O78 C71 1.247 . S
O78 Zn75 2.028 . S
O79 C71 1.258 . S
O79 Zn73 2.035 . S
O80 Zn73 2.028 . S
O80 C83 1.247 . S
O81 Zn75 2.035 . S
O81 C83 1.258 . S
C82 O76 1.247 . S
C82 O77 1.258 . S
C83 O80 1.247 . S
C83 O81 1.258 . S
C84 C85 1.443 . S
C84 N88 1.376 . S
C84 C122 1.389 . S
C85 C84 1.443 . S
C85 C86 1.340 . S
C85 H125 0.951 . S
C86 C85 1.340 . S
C86 C87 1.439 . S
C86 H126 0.950 . S
C87 C86 1.439 . S
C87 N88 1.374 . S
C87 C121 1.395 . S
N88 C84 1.376 . S
N88 C87 1.374 . S
N88 Co89 2.008 . S
Co89 N88 2.008 . S
Co89 N90 1.995 . S
Co89 N95 2.008 . S
Co89 N100 1.995 . S
Co89 N105 2.282 . S
Co89 N111 2.282 . S
N90 Co89 1.995 . S
N90 C91 1.376 . S
N90 C94 1.383 . S
C91 N90 1.376 . S
C91 C92 1.446 . S
C91 C121 1.391 . S
C92 C91 1.446 . S
C92 C93 1.339 . S
C92 H127 0.949 . S
C93 C92 1.339 . S
C93 C94 1.439 . S
C93 H128 0.950 . S
C94 N90 1.383 . S
C94 C93 1.439 . S
C94 C123 1.392 . S
N95 Co89 2.008 . S
N95 C96 1.376 . S
N95 C99 1.374 . S
C96 N95 1.376 . S
C96 C97 1.443 . S
C96 C123 1.389 . S
C97 C96 1.443 . S
C97 C98 1.340 . S
C97 H129 0.951 . S
C98 C97 1.340 . S
C98 C99 1.439 . S
C98 H130 0.950 . S
C99 N95 1.374 . S
C99 C98 1.439 . S
C99 C124 1.395 . S
N100 Co89 1.995 . S
N100 C101 1.376 . S
N100 C104 1.383 . S
C101 N100 1.376 . S
C101 C102 1.446 . S
C101 C124 1.391 . S
C102 C101 1.446 . S
C102 C103 1.339 . S
C102 H131 0.949 . S
C103 C102 1.339 . S
C103 C104 1.439 . S
C103 H132 0.950 . S
C104 N100 1.383 . S
C104 C103 1.439 . S
C104 C122 1.392 . S
N105 Co89 2.282 . S
N105 C108 1.332 . S
N105 C110 1.332 . S
C106 C107 1.386 . S
C106 C109 1.388 . S
C107 C106 1.386 . S
C107 C108 1.382 . S
C107 H133 0.950 . S
C108 N105 1.332 . S
C108 C107 1.382 . S
C108 H119 0.952 . S
C109 C106 1.388 . S
C109 C110 1.382 . S
C109 H134 0.950 . S
C110 N105 1.332 . S
C110 C109 1.382 . S
C110 H120 0.948 . S
N111 Co89 2.282 . S
N111 C115 1.332 . S
N111 C116 1.332 . S
C112 C113 1.388 . S
C112 C116 1.382 . S
C112 H135 0.950 . S
C113 C112 1.388 . S
C113 C114 1.386 . S
C114 C113 1.386 . S
C114 C115 1.382 . S
C114 H136 0.950 . S
C115 N111 1.332 . S
C115 C114 1.382 . S
C115 H117 0.952 . S
C116 N111 1.332 . S
C116 C112 1.382 . S
C116 H118 0.948 . S
H117 C115 0.952 . S
H118 C116 0.948 . S
H119 C108 0.952 . S
H120 C110 0.948 . S
C121 C87 1.395 . S
C121 C91 1.391 . S
C122 C84 1.389 . S
C122 C104 1.392 . S
C123 C94 1.392 . S
C123 C96 1.389 . S
C124 C99 1.395 . S
C124 C101 1.391 . S
H125 C85 0.951 . S
H126 C86 0.950 . S
H127 C92 0.949 . S
H128 C93 0.950 . S
H129 C97 0.951 . S
H130 C98 0.950 . S
H131 C102 0.949 . S
H132 C103 0.950 . S
H133 C107 0.950 . S
H134 C109 0.950 . S
H135 C112 0.950 . S
H136 C114 0.950 . S
C137 C138 1.443 . S
C137 N141 1.376 . S
C137 C175 1.389 . S
C138 C137 1.443 . S
C138 C139 1.340 . S
C138 H178 0.951 . S
C139 C138 1.340 . S
C139 C140 1.439 . S
C139 H179 0.950 . S
C140 C139 1.439 . S
C140 N141 1.374 . S
C140 C174 1.395 . S
N141 C137 1.376 . S
N141 C140 1.374 . S
N141 Co142 2.008 . S
Co142 N141 2.008 . S
Co142 N143 1.995 . S
Co142 N148 2.008 . S
Co142 N153 1.995 . S
Co142 N158 2.282 . S
Co142 N164 2.282 . S
N143 Co142 1.995 . S
N143 C144 1.376 . S
N143 C147 1.383 . S
C144 N143 1.376 . S
C144 C145 1.446 . S
C144 C174 1.391 . S
C145 C144 1.446 . S
C145 C146 1.339 . S
C145 H180 0.949 . S
C146 C145 1.339 . S
C146 C147 1.439 . S
C146 H181 0.950 . S
C147 N143 1.383 . S
C147 C146 1.439 . S
C147 C176 1.392 . S
N148 Co142 2.008 . S
N148 C149 1.376 . S
N148 C152 1.374 . S
C149 N148 1.376 . S
C149 C150 1.443 . S
C149 C176 1.389 . S
C150 C149 1.443 . S
C150 C151 1.340 . S
C150 H182 0.951 . S
C151 C150 1.340 . S
C151 C152 1.439 . S
C151 H183 0.950 . S
C152 N148 1.374 . S
C152 C151 1.439 . S
C152 C177 1.395 . S
N153 Co142 1.995 . S
N153 C154 1.376 . S
N153 C157 1.383 . S
C154 N153 1.376 . S
C154 C155 1.446 . S
C154 C177 1.391 . S
C155 C154 1.446 . S
C155 C156 1.339 . S
C155 H184 0.949 . S
C156 C155 1.339 . S
C156 C157 1.439 . S
C156 H185 0.950 . S
C157 N153 1.383 . S
C157 C156 1.439 . S
C157 C175 1.392 . S
N158 Co142 2.282 . S
N158 C161 1.332 . S
N158 C163 1.332 . S
C159 C160 1.386 . S
C159 C162 1.388 . S
C160 C159 1.386 . S
C160 C161 1.382 . S
C160 H186 0.950 . S
C161 N158 1.332 . S
C161 C160 1.382 . S
C161 H172 0.952 . S
C162 C159 1.388 . S
C162 C163 1.382 . S
C162 H187 0.950 . S
C163 N158 1.332 . S
C163 C162 1.382 . S
C163 H173 0.948 . S
N164 Co142 2.282 . S
N164 C168 1.332 . S
N164 C169 1.332 . S
C165 C166 1.388 . S
C165 C169 1.382 . S
C165 H188 0.950 . S
C166 C165 1.388 . S
C166 C167 1.386 . S
C167 C166 1.386 . S
C167 C168 1.382 . S
C167 H189 0.950 . S
C168 N164 1.332 . S
C168 C167 1.382 . S
C168 H170 0.952 . S
C169 N164 1.332 . S
C169 C165 1.382 . S
C169 H171 0.948 . S
H170 C168 0.952 . S
H171 C169 0.948 . S
H172 C161 0.952 . S
H173 C163 0.948 . S
C174 C140 1.395 . S
C174 C144 1.391 . S
C175 C137 1.389 . S
C175 C157 1.392 . S
C176 C147 1.392 . S
C176 C149 1.389 . S
C177 C152 1.395 . S
C177 C154 1.391 . S
H178 C138 0.951 . S
H179 C139 0.950 . S
H180 C145 0.949 . S
H181 C146 0.950 . S
H182 C150 0.951 . S
H183 C151 0.950 . S
H184 C155 0.949 . S
H185 C156 0.950 . S
H186 C160 0.950 . S
H187 C162 0.950 . S
H188 C165 0.950 . S
H189 C167 0.950 . S
C190 C191 1.443 . S
C190 N194 1.376 . S
C190 C228 1.389 . S
C191 C190 1.443 . S
C191 C192 1.340 . S
C191 H231 0.951 . S
C192 C191 1.340 . S
C192 C193 1.439 . S
C192 H232 0.950 . S
C193 C192 1.439 . S
C193 N194 1.374 . S
C193 C227 1.395 . S
N194 C190 1.376 . S
N194 C193 1.374 . S
N194 Co195 2.008 . S
Co195 N194 2.008 . S
Co195 N196 1.995 . S
Co195 N201 2.008 . S
Co195 N206 1.995 . S
Co195 N211 2.282 . S
Co195 N217 2.282 . S
N196 Co195 1.995 . S
N196 C197 1.376 . S
N196 C200 1.383 . S
C197 N196 1.376 . S
C197 C198 1.446 . S
C197 C227 1.391 . S
C198 C197 1.446 . S
C198 C199 1.339 . S
C198 H233 0.949 . S
C199 C198 1.339 . S
C199 C200 1.439 . S
C199 H234 0.950 . S
C200 N196 1.383 . S
C200 C199 1.439 . S
C200 C229 1.392 . S
N201 Co195 2.008 . S
N201 C202 1.376 . S
N201 C205 1.374 . S
C202 N201 1.376 . S
C202 C203 1.443 . S
C202 C229 1.389 . S
C203 C202 1.443 . S
C203 C204 1.340 . S
C203 H235 0.951 . S
C204 C203 1.340 . S
C204 C205 1.439 . S
C204 H236 0.950 . S
C205 N201 1.374 . S
C205 C204 1.439 . S
C205 C230 1.395 . S
N206 Co195 1.995 . S
N206 C207 1.376 . S
N206 C210 1.383 . S
C207 N206 1.376 . S
C207 C208 1.446 . S
C207 C230 1.391 . S
C208 C207 1.446 . S
C208 C209 1.339 . S
C208 H237 0.949 . S
C209 C208 1.339 . S
C209 C210 1.439 . S
C209 H238 0.950 . S
C210 N206 1.383 . S
C210 C209 1.439 . S
C210 C228 1.392 . S
N211 Co195 2.282 . S
N211 C214 1.332 . S
N211 C216 1.332 . S
C212 C213 1.386 . S
C212 C215 1.388 . S
C213 C212 1.386 . S
C213 C214 1.382 . S
C213 H239 0.950 . S
C214 N211 1.332 . S
C214 C213 1.382 . S
C214 H225 0.952 . S
C215 C212 1.388 . S
C215 C216 1.382 . S
C215 H240 0.950 . S
C216 N211 1.332 . S
C216 C215 1.382 . S
C216 H226 0.948 . S
N217 Co195 2.282 . S
N217 C221 1.332 . S
N217 C222 1.332 . S
C218 C219 1.388 . S
C218 C222 1.382 . S
C218 H241 0.950 . S
C219 C218 1.388 . S
C219 C220 1.386 . S
C220 C219 1.386 . S
C220 C221 1.382 . S
C220 H242 0.950 . S
C221 N217 1.332 . S
C221 C220 1.382 . S
C221 H223 0.952 . S
C222 N217 1.332 . S
C222 C218 1.382 . S
C222 H224 0.948 . S
H223 C221 0.952 . S
H224 C222 0.948 . S
H225 C214 0.952 . S
H226 C216 0.948 . S
C227 C193 1.395 . S
C227 C197 1.391 . S
C228 C190 1.389 . S
C228 C210 1.392 . S
C229 C200 1.392 . S
C229 C202 1.389 . S
C230 C205 1.395 . S
C230 C207 1.391 . S
H231 C191 0.951 . S
H232 C192 0.950 . S
H233 C198 0.949 . S
H234 C199 0.950 . S
H235 C203 0.951 . S
H236 C204 0.950 . S
H237 C208 0.949 . S
H238 C209 0.950 . S
H239 C213 0.950 . S
H240 C215 0.950 . S
H241 C218 0.950 . S
H242 C220 0.950 . S
C243 C244 1.443 . S
C243 N247 1.376 . S
C243 C281 1.389 . S
C244 C243 1.443 . S
C244 C245 1.340 . S
C244 H284 0.951 . S
C245 C244 1.340 . S
C245 C246 1.439 . S
C245 H285 0.950 . S
C246 C245 1.439 . S
C246 N247 1.374 . S
C246 C280 1.395 . S
N247 C243 1.376 . S
N247 C246 1.374 . S
N247 Co248 2.008 . S
Co248 N247 2.008 . S
Co248 N249 1.995 . S
Co248 N254 2.008 . S
Co248 N259 1.995 . S
Co248 N264 2.282 . S
Co248 N270 2.282 . S
N249 Co248 1.995 . S
N249 C250 1.376 . S
N249 C253 1.383 . S
C250 N249 1.376 . S
C250 C251 1.446 . S
C250 C280 1.391 . S
C251 C250 1.446 . S
C251 C252 1.339 . S
C251 H286 0.949 . S
C252 C251 1.339 . S
C252 C253 1.439 . S
C252 H287 0.950 . S
C253 N249 1.383 . S
C253 C252 1.439 . S
C253 C282 1.392 . S
N254 Co248 2.008 . S
N254 C255 1.376 . S
N254 C258 1.374 . S
C255 N254 1.376 . S
C255 C256 1.443 . S
C255 C282 1.389 . S
C256 C255 1.443 . S
C256 C257 1.340 . S
C256 H288 0.951 . S
C257 C256 1.340 . S
C257 C258 1.439 . S
C257 H289 0.950 . S
C258 N254 1.374 . S
C258 C257 1.439 . S
C258 C283 1.395 . S
N259 Co248 1.995 . S
N259 C260 1.376 . S
N259 C263 1.383 . S
C260 N259 1.376 . S
C260 C261 1.446 . S
C260 C283 1.391 . S
C261 C260 1.446 . S
C261 C262 1.339 . S
C261 H290 0.949 . S
C262 C261 1.339 . S
C262 C263 1.439 . S
C262 H291 0.950 . S
C263 N259 1.383 . S
C263 C262 1.439 . S
C263 C281 1.392 . S
N264 Co248 2.282 . S
N264 C267 1.332 . S
N264 C269 1.332 . S
C265 C266 1.386 . S
C265 C268 1.388 . S
C266 C265 1.386 . S
C266 C267 1.382 . S
C266 H292 0.950 . S
C267 N264 1.332 . S
C267 C266 1.382 . S
C267 H278 0.952 . S
C268 C265 1.388 . S
C268 C269 1.382 . S
C268 H293 0.950 . S
C269 N264 1.332 . S
C269 C268 1.382 . S
C269 H279 0.948 . S
N270 Co248 2.282 . S
N270 C274 1.332 . S
N270 C275 1.332 . S
C271 C272 1.388 . S
C271 C275 1.382 . S
C271 H294 0.950 . S
C272 C271 1.388 . S
C272 C273 1.386 . S
C273 C272 1.386 . S
C273 C274 1.382 . S
C273 H295 0.950 . S
C274 N270 1.332 . S
C274 C273 1.382 . S
C274 H276 0.952 . S
C275 N270 1.332 . S
C275 C271 1.382 . S
C275 H277 0.948 . S
H276 C274 0.952 . S
H277 C275 0.948 . S
H278 C267 0.952 . S
H279 C269 0.948 . S
C280 C246 1.395 . S
C280 C250 1.391 . S
C281 C243 1.389 . S
C281 C263 1.392 . S
C282 C253 1.392 . S
C282 C255 1.389 . S
C283 C258 1.395 . S
C283 C260 1.391 . S
H284 C244 0.951 . S
H285 C245 0.950 . S
H286 C251 0.949 . S
H287 C252 0.950 . S
H288 C256 0.951 . S
H289 C257 0.950 . S
H290 C261 0.949 . S
H291 C262 0.950 . S
H292 C266 0.950 . S
H293 C268 0.950 . S
H294 C271 0.950 . S
H295 C273 0.950 . S
C296 C297 1.443 . S
C296 N300 1.376 . S
C296 C334 1.389 . S
C297 C296 1.443 . S
C297 C298 1.340 . S
C297 H337 0.951 . S
C298 C297 1.340 . S
C298 C299 1.439 . S
C298 H338 0.950 . S
C299 C298 1.439 . S
C299 N300 1.374 . S
C299 C333 1.395 . S
N300 C296 1.376 . S
N300 C299 1.374 . S
N300 Co301 2.008 . S
Co301 N300 2.008 . S
Co301 N302 1.995 . S
Co301 N307 2.008 . S
Co301 N312 1.995 . S
Co301 N317 2.282 . S
Co301 N323 2.282 . S
N302 Co301 1.995 . S
N302 C303 1.376 . S
N302 C306 1.383 . S
C303 N302 1.376 . S
C303 C304 1.446 . S
C303 C333 1.391 . S
C304 C303 1.446 . S
C304 C305 1.339 . S
C304 H339 0.949 . S
C305 C304 1.339 . S
C305 C306 1.439 . S
C305 H340 0.950 . S
C306 N302 1.383 . S
C306 C305 1.439 . S
C306 C335 1.392 . S
N307 Co301 2.008 . S
N307 C308 1.376 . S
N307 C311 1.374 . S
C308 N307 1.376 . S
C308 C309 1.443 . S
C308 C335 1.389 . S
C309 C308 1.443 . S
C309 C310 1.340 . S
C309 H341 0.951 . S
C310 C309 1.340 . S
C310 C311 1.439 . S
C310 H342 0.950 . S
C311 N307 1.374 . S
C311 C310 1.439 . S
C311 C336 1.395 . S
N312 Co301 1.995 . S
N312 C313 1.376 . S
N312 C316 1.383 . S
C313 N312 1.376 . S
C313 C314 1.446 . S
C313 C336 1.391 . S
C314 C313 1.446 . S
C314 C315 1.339 . S
C314 H343 0.949 . S
C315 C314 1.339 . S
C315 C316 1.439 . S
C315 H344 0.950 . S
C316 N312 1.383 . S
C316 C315 1.439 . S
C316 C334 1.392 . S
N317 Co301 2.282 . S
N317 C320 1.332 . S
N317 C322 1.332 . S
C318 C319 1.386 . S
C318 C321 1.388 . S
C319 C318 1.386 . S
C319 C320 1.382 . S
C319 H345 0.950 . S
C320 N317 1.332 . S
C320 C319 1.382 . S
C320 H331 0.952 . S
C321 C318 1.388 . S
C321 C322 1.382 . S
C321 H346 0.950 . S
C322 N317 1.332 . S
C322 C321 1.382 . S
C322 H332 0.948 . S
N323 Co301 2.282 . S
N323 C327 1.332 . S
N323 C328 1.332 . S
C324 C325 1.388 . S
C324 C328 1.382 . S
C324 H347 0.950 . S
C325 C324 1.388 . S
C325 C326 1.386 . S
C326 C325 1.386 . S
C326 C327 1.382 . S
C326 H348 0.950 . S
C327 N323 1.332 . S
C327 C326 1.382 . S
C327 H329 0.952 . S
C328 N323 1.332 . S
C328 C324 1.382 . S
C328 H330 0.948 . S
H329 C327 0.952 . S
H330 C328 0.948 . S
H331 C320 0.952 . S
H332 C322 0.948 . S
C333 C299 1.395 . S
C333 C303 1.391 . S
C334 C296 1.389 . S
C334 C316 1.392 . S
C335 C306 1.392 . S
C335 C308 1.389 . S
C336 C311 1.395 . S
C336 C313 1.391 . S
H337 C297 0.951 . S
H338 C298 0.950 . S
H339 C304 0.949 . S
H340 C305 0.950 . S
H341 C309 0.951 . S
H342 C310 0.950 . S
H343 C314 0.949 . S
H344 C315 0.950 . S
H345 C319 0.950 . S
H346 C321 0.950 . S
H347 C324 0.950 . S
H348 C326 0.950 . S
C349 C350 1.443 . S
C349 N353 1.376 . S
C349 C387 1.389 . S
C350 C349 1.443 . S
C350 C351 1.340 . S
C350 H390 0.951 . S
C351 C350 1.340 . S
C351 C352 1.439 . S
C351 H391 0.950 . S
C352 C351 1.439 . S
C352 N353 1.374 . S
C352 C386 1.395 . S
N353 C349 1.376 . S
N353 C352 1.374 . S
N353 Co354 2.008 . S
Co354 N353 2.008 . S
Co354 N355 1.995 . S
Co354 N360 2.008 . S
Co354 N365 1.995 . S
Co354 N370 2.282 . S
Co354 N376 2.282 . S
N355 Co354 1.995 . S
N355 C356 1.376 . S
N355 C359 1.383 . S
C356 N355 1.376 . S
C356 C357 1.446 . S
C356 C386 1.391 . S
C357 C356 1.446 . S
C357 C358 1.339 . S
C357 H392 0.949 . S
C358 C357 1.339 . S
C358 C359 1.439 . S
C358 H393 0.950 . S
C359 N355 1.383 . S
C359 C358 1.439 . S
C359 C388 1.392 . S
N360 Co354 2.008 . S
N360 C361 1.376 . S
N360 C364 1.374 . S
C361 N360 1.376 . S
C361 C362 1.443 . S
C361 C388 1.389 . S
C362 C361 1.443 . S
C362 C363 1.340 . S
C362 H394 0.951 . S
C363 C362 1.340 . S
C363 C364 1.439 . S
C363 H395 0.950 . S
C364 N360 1.374 . S
C364 C363 1.439 . S
C364 C389 1.395 . S
N365 Co354 1.995 . S
N365 C366 1.376 . S
N365 C369 1.383 . S
C366 N365 1.376 . S
C366 C367 1.446 . S
C366 C389 1.391 . S
C367 C366 1.446 . S
C367 C368 1.339 . S
C367 H396 0.949 . S
C368 C367 1.339 . S
C368 C369 1.439 . S
C368 H397 0.950 . S
C369 N365 1.383 . S
C369 C368 1.439 . S
C369 C387 1.392 . S
N370 Co354 2.282 . S
N370 C373 1.332 . S
N370 C375 1.332 . S
C371 C372 1.386 . S
C371 C374 1.388 . S
C372 C371 1.386 . S
C372 C373 1.382 . S
C372 H398 0.950 . S
C373 N370 1.332 . S
C373 C372 1.382 . S
C373 H384 0.952 . S
C374 C371 1.388 . S
C374 C375 1.382 . S
C374 H399 0.950 . S
C375 N370 1.332 . S
C375 C374 1.382 . S
C375 H385 0.948 . S
N376 Co354 2.282 . S
N376 C380 1.332 . S
N376 C381 1.332 . S
C377 C378 1.388 . S
C377 C381 1.382 . S
C377 H400 0.950 . S
C378 C377 1.388 . S
C378 C379 1.386 . S
C379 C378 1.386 . S
C379 C380 1.382 . S
C379 H401 0.950 . S
C380 N376 1.332 . S
C380 C379 1.382 . S
C380 H382 0.952 . S
C381 N376 1.332 . S
C381 C377 1.382 . S
C381 H383 0.948 . S
H382 C380 0.952 . S
H383 C381 0.948 . S
H384 C373 0.952 . S
H385 C375 0.948 . S
C386 C352 1.395 . S
C386 C356 1.391 . S
C387 C349 1.389 . S
C387 C369 1.392 . S
C388 C359 1.392 . S
C388 C361 1.389 . S
C389 C364 1.395 . S
C389 C366 1.391 . S
H390 C350 0.951 . S
H391 C351 0.950 . S
H392 C357 0.949 . S
H393 C358 0.950 . S
H394 C362 0.951 . S
H395 C363 0.950 . S
H396 C367 0.949 . S
H397 C368 0.950 . S
H398 C372 0.950 . S
H399 C374 0.950 . S
H400 C377 0.950 . S
H401 C379 0.950 . S
H402 C408 0.930 . S
H403 C412 0.930 . S
H404 C417 0.929 . S
H405 C415 0.929 . S
H406 C410 0.929 . S
H407 C416 0.929 . S
C408 H402 0.930 . S
C408 C409 1.367 . S
C408 C416 1.378 . S
C409 C408 1.367 . S
C409 C417 1.433 . S
C410 H406 0.929 . S
C410 C412 1.378 . S
C410 C414 1.350 . S
C411 C414 1.463 . S
C411 C416 1.350 . S
C411 N419 1.427 . S
C412 H403 0.930 . S
C412 C410 1.378 . S
C412 C413 1.367 . S
C413 C412 1.367 . S
C413 C415 1.433 . S
C414 C410 1.350 . S
C414 C411 1.463 . S
C414 N418 1.427 . S
C415 H405 0.929 . S
C415 C413 1.433 . S
C415 N418 1.384 . S
C416 H407 0.929 . S
C416 C408 1.378 . S
C416 C411 1.350 . S
C417 H404 0.929 . S
C417 C409 1.433 . S
C417 N419 1.384 . S
N418 C414 1.427 . S
N418 C415 1.384 . S
N419 C411 1.427 . S
N419 C417 1.384 . S
H420 C426 0.930 . S
H421 C430 0.930 . S
H422 C435 0.929 . S
H423 C433 0.929 . S
H424 C428 0.929 . S
H425 C434 0.929 . S
C426 H420 0.930 . S
C426 C427 1.367 . S
C426 C434 1.378 . S
C427 C426 1.367 . S
C427 C435 1.433 . S
C428 H424 0.929 . S
C428 C430 1.378 . S
C428 C432 1.350 . S
C429 C432 1.463 . S
C429 C434 1.350 . S
C429 N437 1.427 . S
C430 H421 0.930 . S
C430 C428 1.378 . S
C430 C431 1.367 . S
C431 C430 1.367 . S
C431 C433 1.433 . S
C432 C428 1.350 . S
C432 C429 1.463 . S
C432 N436 1.427 . S
C433 H423 0.929 . S
C433 C431 1.433 . S
C433 N436 1.384 . S
C434 H425 0.929 . S
C434 C426 1.378 . S
C434 C429 1.350 . S
C435 H422 0.929 . S
C435 C427 1.433 . S
C435 N437 1.384 . S
N436 C432 1.427 . S
N436 C433 1.384 . S
N437 C429 1.427 . S
N437 C435 1.384 . S
H438 C444 0.930 . S
H439 C448 0.930 . S
H440 C453 0.929 . S
H441 C451 0.929 . S
H442 C446 0.929 . S
H443 C452 0.929 . S
C444 H438 0.930 . S
C444 C445 1.367 . S
C444 C452 1.378 . S
C445 C444 1.367 . S
C445 C453 1.433 . S
C446 H442 0.929 . S
C446 C448 1.378 . S
C446 C450 1.350 . S
C447 C450 1.463 . S
C447 C452 1.350 . S
C447 N455 1.427 . S
C448 H439 0.930 . S
C448 C446 1.378 . S
C448 C449 1.367 . S
C449 C448 1.367 . S
C449 C451 1.433 . S
C450 C446 1.350 . S
C450 C447 1.463 . S
C450 N454 1.427 . S
C451 H441 0.929 . S
C451 C449 1.433 . S
C451 N454 1.384 . S
C452 H443 0.929 . S
C452 C444 1.378 . S
C452 C447 1.350 . S
C453 H440 0.929 . S
C453 C445 1.433 . S
C453 N455 1.384 . S
N454 C450 1.427 . S
N454 C451 1.384 . S
N455 C447 1.427 . S
N455 C453 1.384 . S
H456 C462 0.930 . S
H457 C466 0.930 . S
H458 C471 0.929 . S
H459 C469 0.929 . S
H460 C464 0.929 . S
H461 C470 0.929 . S
C462 H456 0.930 . S
C462 C463 1.367 . S
C462 C470 1.378 . S
C463 C462 1.367 . S
C463 C471 1.433 . S
C464 H460 0.929 . S
C464 C466 1.378 . S
C464 C468 1.350 . S
C465 C468 1.463 . S
C465 C470 1.350 . S
C465 N473 1.427 . S
C466 H457 0.930 . S
C466 C464 1.378 . S
C466 C467 1.367 . S
C467 C466 1.367 . S
C467 C469 1.433 . S
C468 C464 1.350 . S
C468 C465 1.463 . S
C468 N472 1.427 . S
C469 H459 0.929 . S
C469 C467 1.433 . S
C469 N472 1.384 . S
C470 H461 0.929 . S
C470 C462 1.378 . S
C470 C465 1.350 . S
C471 H458 0.929 . S
C471 C463 1.433 . S
C471 N473 1.384 . S
N472 C468 1.427 . S
N472 C469 1.384 . S
N473 C465 1.427 . S
N473 C471 1.384 . S
H474 C480 0.930 . S
H475 C484 0.930 . S
H476 C489 0.929 . S
H477 C487 0.929 . S
H478 C482 0.929 . S
H479 C488 0.929 . S
C480 H474 0.930 . S
C480 C481 1.367 . S
C480 C488 1.378 . S
C481 C480 1.367 . S
C481 C489 1.433 . S
C482 H478 0.929 . S
C482 C484 1.378 . S
C482 C486 1.350 . S
C483 C486 1.463 . S
C483 C488 1.350 . S
C483 N491 1.427 . S
C484 H475 0.930 . S
C484 C482 1.378 . S
C484 C485 1.367 . S
C485 C484 1.367 . S
C485 C487 1.433 . S
C486 C482 1.350 . S
C486 C483 1.463 . S
C486 N490 1.427 . S
C487 H477 0.929 . S
C487 C485 1.433 . S
C487 N490 1.384 . S
C488 H479 0.929 . S
C488 C480 1.378 . S
C488 C483 1.350 . S
C489 H476 0.929 . S
C489 C481 1.433 . S
C489 N491 1.384 . S
N490 C486 1.427 . S
N490 C487 1.384 . S
N491 C483 1.427 . S
N491 C489 1.384 . S
H492 C498 0.930 . S
H493 C502 0.930 . S
H494 C507 0.929 . S
H495 C505 0.929 . S
H496 C500 0.929 . S
H497 C506 0.929 . S
C498 H492 0.930 . S
C498 C499 1.367 . S
C498 C506 1.378 . S
C499 C498 1.367 . S
C499 C507 1.433 . S
C500 H496 0.929 . S
C500 C502 1.378 . S
C500 C504 1.350 . S
C501 C504 1.463 . S
C501 C506 1.350 . S
C501 N509 1.427 . S
C502 H493 0.930 . S
C502 C500 1.378 . S
C502 C503 1.367 . S
C503 C502 1.367 . S
C503 C505 1.433 . S
C504 C500 1.350 . S
C504 C501 1.463 . S
C504 N508 1.427 . S
C505 H495 0.929 . S
C505 C503 1.433 . S
C505 N508 1.384 . S
C506 H497 0.929 . S
C506 C498 1.378 . S
C506 C501 1.350 . S
C507 H494 0.929 . S
C507 C499 1.433 . S
C507 N509 1.384 . S
N508 C504 1.427 . S
N508 C505 1.384 . S
N509 C501 1.427 . S
N509 C507 1.384 . S
H510 C516 0.930 . S
H511 C520 0.930 . S
H512 C525 0.929 . S
H513 C523 0.929 . S
H514 C518 0.929 . S
H515 C524 0.929 . S
C516 H510 0.930 . S
C516 C517 1.367 . S
C516 C524 1.378 . S
C517 C516 1.367 . S
C517 C525 1.433 . S
C518 H514 0.929 . S
C518 C520 1.378 . S
C518 C522 1.350 . S
C519 C522 1.463 . S
C519 C524 1.350 . S
C519 N527 1.427 . S
C520 H511 0.930 . S
C520 C518 1.378 . S
C520 C521 1.367 . S
C521 C520 1.367 . S
C521 C523 1.433 . S
C522 C518 1.350 . S
C522 C519 1.463 . S
C522 N526 1.427 . S
C523 H513 0.929 . S
C523 C521 1.433 . S
C523 N526 1.384 . S
C524 H515 0.929 . S
C524 C516 1.378 . S
C524 C519 1.350 . S
C525 H512 0.929 . S
C525 C517 1.433 . S
C525 N527 1.384 . S
N526 C522 1.427 . S
N526 C523 1.384 . S
N527 C519 1.427 . S
N527 C525 1.384 . S
H528 C534 0.930 . S
H529 C538 0.930 . S
H530 C543 0.929 . S
H531 C541 0.929 . S
H532 C536 0.929 . S
H533 C542 0.929 . S
C534 H528 0.930 . S
C534 C535 1.367 . S
C534 C542 1.378 . S
C535 C534 1.367 . S
C535 C543 1.433 . S
C536 H532 0.929 . S
C536 C538 1.378 . S
C536 C540 1.350 . S
C537 C540 1.463 . S
C537 C542 1.350 . S
C537 N545 1.427 . S
C538 H529 0.930 . S
C538 C536 1.378 . S
C538 C539 1.367 . S
C539 C538 1.367 . S
C539 C541 1.433 . S
C540 C536 1.350 . S
C540 C537 1.463 . S
C540 N544 1.427 . S
C541 H531 0.929 . S
C541 C539 1.433 . S
C541 N544 1.384 . S
C542 H533 0.929 . S
C542 C534 1.378 . S
C542 C537 1.350 . S
C543 H530 0.929 . S
C543 C535 1.433 . S
C543 N545 1.384 . S
N544 C540 1.427 . S
N544 C541 1.384 . S
N545 C537 1.427 . S
N545 C543 1.384 . S
H546 C552 0.930 . S
H547 C556 0.930 . S
H548 C561 0.929 . S
H549 C559 0.929 . S
H550 C554 0.929 . S
H551 C560 0.929 . S
C552 H546 0.930 . S
C552 C553 1.367 . S
C552 C560 1.378 . S
C553 C552 1.367 . S
C553 C561 1.433 . S
C554 H550 0.929 . S
C554 C556 1.378 . S
C554 C558 1.350 . S
C555 C558 1.463 . S
C555 C560 1.350 . S
C555 N563 1.427 . S
C556 H547 0.930 . S
C556 C554 1.378 . S
C556 C557 1.367 . S
C557 C556 1.367 . S
C557 C559 1.433 . S
C558 C554 1.350 . S
C558 C555 1.463 . S
C558 N562 1.427 . S
C559 H549 0.929 . S
C559 C557 1.433 . S
C559 N562 1.384 . S
C560 H551 0.929 . S
C560 C552 1.378 . S
C560 C555 1.350 . S
C561 H548 0.929 . S
C561 C553 1.433 . S
C561 N563 1.384 . S
N562 C558 1.427 . S
N562 C559 1.384 . S
N563 C555 1.427 . S
N563 C561 1.384 . S
H564 C570 0.930 . S
H565 C574 0.930 . S
H566 C579 0.929 . S
H567 C577 0.929 . S
H568 C572 0.929 . S
H569 C578 0.929 . S
C570 H564 0.930 . S
C570 C571 1.367 . S
C570 C578 1.378 . S
C571 C570 1.367 . S
C571 C579 1.433 . S
C572 H568 0.929 . S
C572 C574 1.378 . S
C572 C576 1.350 . S
C573 C576 1.463 . S
C573 C578 1.350 . S
C573 N581 1.427 . S
C574 H565 0.930 . S
C574 C572 1.378 . S
C574 C575 1.367 . S
C575 C574 1.367 . S
C575 C577 1.433 . S
C576 C572 1.350 . S
C576 C573 1.463 . S
C576 N580 1.427 . S
C577 H567 0.929 . S
C577 C575 1.433 . S
C577 N580 1.384 . S
C578 H569 0.929 . S
C578 C570 1.378 . S
C578 C573 1.350 . S
C579 H566 0.929 . S
C579 C571 1.433 . S
C579 N581 1.384 . S
N580 C576 1.427 . S
N580 C577 1.384 . S
N581 C573 1.427 . S
N581 C579 1.384 . S
H582 C588 0.930 . S
H583 C592 0.930 . S
H584 C597 0.929 . S
H585 C595 0.929 . S
H586 C590 0.929 . S
H587 C596 0.929 . S
C588 H582 0.930 . S
C588 C589 1.367 . S
C588 C596 1.378 . S
C589 C588 1.367 . S
C589 C597 1.433 . S
C590 H586 0.929 . S
C590 C592 1.378 . S
C590 C594 1.350 . S
C591 C594 1.463 . S
C591 C596 1.350 . S
C591 N599 1.427 . S
C592 H583 0.930 . S
C592 C590 1.378 . S
C592 C593 1.367 . S
C593 C592 1.367 . S
C593 C595 1.433 . S
C594 C590 1.350 . S
C594 C591 1.463 . S
C594 N598 1.427 . S
C595 H585 0.929 . S
C595 C593 1.433 . S
C595 N598 1.384 . S
C596 H587 0.929 . S
C596 C588 1.378 . S
C596 C591 1.350 . S
C597 H584 0.929 . S
C597 C589 1.433 . S
C597 N599 1.384 . S
N598 C594 1.427 . S
N598 C595 1.384 . S
N599 C591 1.427 . S
N599 C597 1.384 . S
H600 C606 0.930 . S
H601 C610 0.930 . S
H602 C615 0.929 . S
H603 C613 0.929 . S
H604 C608 0.929 . S
H605 C614 0.929 . S
C606 H600 0.930 . S
C606 C607 1.367 . S
C606 C614 1.378 . S
C607 C606 1.367 . S
C607 C615 1.433 . S
C608 H604 0.929 . S
C608 C610 1.378 . S
C608 C612 1.350 . S
C609 C612 1.463 . S
C609 C614 1.350 . S
C609 N617 1.427 . S
C610 H601 0.930 . S
C610 C608 1.378 . S
C610 C611 1.367 . S
C611 C610 1.367 . S
C611 C613 1.433 . S
C612 C608 1.350 . S
C612 C609 1.463 . S
C612 N616 1.427 . S
C613 H603 0.929 . S
C613 C611 1.433 . S
C613 N616 1.384 . S
C614 H605 0.929 . S
C614 C606 1.378 . S
C614 C609 1.350 . S
C615 H602 0.929 . S
C615 C607 1.433 . S
C615 N617 1.384 . S
N616 C612 1.427 . S
N616 C613 1.384 . S
N617 C609 1.427 . S
N617 C615 1.384 . S
H618 C624 0.930 . S
H619 C628 0.930 . S
H620 C633 0.929 . S
H621 C631 0.929 . S
H622 C626 0.929 . S
H623 C632 0.929 . S
C624 H618 0.930 . S
C624 C625 1.367 . S
C624 C632 1.378 . S
C625 C624 1.367 . S
C625 C633 1.433 . S
C626 H622 0.929 . S
C626 C628 1.378 . S
C626 C630 1.350 . S
C627 C630 1.463 . S
C627 C632 1.350 . S
C627 N635 1.427 . S
C628 H619 0.930 . S
C628 C626 1.378 . S
C628 C629 1.367 . S
C629 C628 1.367 . S
C629 C631 1.433 . S
C630 C626 1.350 . S
C630 C627 1.463 . S
C630 N634 1.427 . S
C631 H621 0.929 . S
C631 C629 1.433 . S
C631 N634 1.384 . S
C632 H623 0.929 . S
C632 C624 1.378 . S
C632 C627 1.350 . S
C633 H620 0.929 . S
C633 C625 1.433 . S
C633 N635 1.384 . S
N634 C630 1.427 . S
N634 C631 1.384 . S
N635 C627 1.427 . S
N635 C633 1.384 . S
H636 C642 0.930 . S
H637 C646 0.930 . S
H638 C651 0.929 . S
H639 C649 0.929 . S
H640 C644 0.929 . S
H641 C650 0.929 . S
C642 H636 0.930 . S
C642 C643 1.367 . S
C642 C650 1.378 . S
C643 C642 1.367 . S
C643 C651 1.433 . S
C644 H640 0.929 . S
C644 C646 1.378 . S
C644 C648 1.350 . S
C645 C648 1.463 . S
C645 C650 1.350 . S
C645 N653 1.427 . S
C646 H637 0.930 . S
C646 C644 1.378 . S
C646 C647 1.367 . S
C647 C646 1.367 . S
C647 C649 1.433 . S
C648 C644 1.350 . S
C648 C645 1.463 . S
C648 N652 1.427 . S
C649 H639 0.929 . S
C649 C647 1.433 . S
C649 N652 1.384 . S
C650 H641 0.929 . S
C650 C642 1.378 . S
C650 C645 1.350 . S
C651 H638 0.929 . S
C651 C643 1.433 . S
C651 N653 1.384 . S
N652 C648 1.427 . S
N652 C649 1.384 . S
N653 C645 1.427 . S
N653 C651 1.384 . S
H654 C660 0.930 . S
H655 C664 0.930 . S
H656 C669 0.929 . S
H657 C667 0.929 . S
H658 C662 0.929 . S
H659 C668 0.929 . S
C660 H654 0.930 . S
C660 C661 1.367 . S
C660 C668 1.378 . S
C661 C660 1.367 . S
C661 C669 1.433 . S
C662 H658 0.929 . S
C662 C664 1.378 . S
C662 C666 1.350 . S
C663 C666 1.463 . S
C663 C668 1.350 . S
C663 N671 1.427 . S
C664 H655 0.930 . S
C664 C662 1.378 . S
C664 C665 1.367 . S
C665 C664 1.367 . S
C665 C667 1.433 . S
C666 C662 1.350 . S
C666 C663 1.463 . S
C666 N670 1.427 . S
C667 H657 0.929 . S
C667 C665 1.433 . S
C667 N670 1.384 . S
C668 H659 0.929 . S
C668 C660 1.378 . S
C668 C663 1.350 . S
C669 H656 0.929 . S
C669 C661 1.433 . S
C669 N671 1.384 . S
N670 C666 1.427 . S
N670 C667 1.384 . S
N671 C663 1.427 . S
N671 C669 1.384 . S
H672 C678 0.930 . S
H673 C682 0.930 . S
H674 C687 0.929 . S
H675 C685 0.929 . S
H676 C680 0.929 . S
H677 C686 0.929 . S
C678 H672 0.930 . S
C678 C679 1.367 . S
C678 C686 1.378 . S
C679 C678 1.367 . S
C679 C687 1.433 . S
C680 H676 0.929 . S
C680 C682 1.378 . S
C680 C684 1.350 . S
C681 C684 1.463 . S
C681 C686 1.350 . S
C681 N689 1.427 . S
C682 H673 0.930 . S
C682 C680 1.378 . S
C682 C683 1.367 . S
C683 C682 1.367 . S
C683 C685 1.433 . S
C684 C680 1.350 . S
C684 C681 1.463 . S
C684 N688 1.427 . S
C685 H675 0.929 . S
C685 C683 1.433 . S
C685 N688 1.384 . S
C686 H677 0.929 . S
C686 C678 1.378 . S
C686 C681 1.350 . S
C687 H674 0.929 . S
C687 C679 1.433 . S
C687 N689 1.384 . S
N688 C684 1.427 . S
N688 C685 1.384 . S
N689 C681 1.427 . S
N689 C687 1.384 . S
H690 C696 0.930 . S
H691 C700 0.930 . S
H692 C705 0.929 . S
H693 C703 0.929 . S
H694 C698 0.929 . S
H695 C704 0.929 . S
C696 H690 0.930 . S
C696 C697 1.367 . S
C696 C704 1.378 . S
C697 C696 1.367 . S
C697 C705 1.433 . S
C698 H694 0.929 . S
C698 C700 1.378 . S
C698 C702 1.350 . S
C699 C702 1.463 . S
C699 C704 1.350 . S
C699 N707 1.427 . S
C700 H691 0.930 . S
C700 C698 1.378 . S
C700 C701 1.367 . S
C701 C700 1.367 . S
C701 C703 1.433 . S
C702 C698 1.350 . S
C702 C699 1.463 . S
C702 N706 1.427 . S
C703 H693 0.929 . S
C703 C701 1.433 . S
C703 N706 1.384 . S
C704 H695 0.929 . S
C704 C696 1.378 . S
C704 C699 1.350 . S
C705 H692 0.929 . S
C705 C697 1.433 . S
C705 N707 1.384 . S
N706 C702 1.427 . S
N706 C703 1.384 . S
N707 C699 1.427 . S
N707 C705 1.384 . S
H708 C714 0.930 . S
H709 C718 0.930 . S
H710 C723 0.929 . S
H711 C721 0.929 . S
H712 C716 0.929 . S
H713 C722 0.929 . S
C714 H708 0.930 . S
C714 C715 1.367 . S
C714 C722 1.378 . S
C715 C714 1.367 . S
C715 C723 1.433 . S
C716 H712 0.929 . S
C716 C718 1.378 . S
C716 C720 1.350 . S
C717 C720 1.463 . S
C717 C722 1.350 . S
C717 N725 1.427 . S
C718 H709 0.930 . S
C718 C716 1.378 . S
C718 C719 1.367 . S
C719 C718 1.367 . S
C719 C721 1.433 . S
C720 C716 1.350 . S
C720 C717 1.463 . S
C720 N724 1.427 . S
C721 H711 0.929 . S
C721 C719 1.433 . S
C721 N724 1.384 . S
C722 H713 0.929 . S
C722 C714 1.378 . S
C722 C717 1.350 . S
C723 H710 0.929 . S
C723 C715 1.433 . S
C723 N725 1.384 . S
N724 C720 1.427 . S
N724 C721 1.384 . S
N725 C717 1.427 . S
N725 C723 1.384 . S
H726 C732 0.930 . S
H727 C736 0.930 . S
H728 C741 0.929 . S
H729 C739 0.929 . S
H730 C734 0.929 . S
H731 C740 0.929 . S
C732 H726 0.930 . S
C732 C733 1.367 . S
C732 C740 1.378 . S
C733 C732 1.367 . S
C733 C741 1.433 . S
C734 H730 0.929 . S
C734 C736 1.378 . S
C734 C738 1.350 . S
C735 C738 1.463 . S
C735 C740 1.350 . S
C735 N743 1.427 . S
C736 H727 0.930 . S
C736 C734 1.378 . S
C736 C737 1.367 . S
C737 C736 1.367 . S
C737 C739 1.433 . S
C738 C734 1.350 . S
C738 C735 1.463 . S
C738 N742 1.427 . S
C739 H729 0.929 . S
C739 C737 1.433 . S
C739 N742 1.384 . S
C740 H731 0.929 . S
C740 C732 1.378 . S
C740 C735 1.350 . S
C741 H728 0.929 . S
C741 C733 1.433 . S
C741 N743 1.384 . S
N742 C738 1.427 . S
N742 C739 1.384 . S
N743 C735 1.427 . S
N743 C741 1.384 . S
H744 C750 0.930 . S
H745 C754 0.930 . S
H746 C759 0.929 . S
H747 C757 0.929 . S
H748 C752 0.929 . S
H749 C758 0.929 . S
C750 H744 0.930 . S
C750 C751 1.367 . S
C750 C758 1.378 . S
C751 C750 1.367 . S
C751 C759 1.433 . S
C752 H748 0.929 . S
C752 C754 1.378 . S
C752 C756 1.350 . S
C753 C756 1.463 . S
C753 C758 1.350 . S
C753 N761 1.427 . S
C754 H745 0.930 . S
C754 C752 1.378 . S
C754 C755 1.367 . S
C755 C754 1.367 . S
C755 C757 1.433 . S
C756 C752 1.350 . S
C756 C753 1.463 . S
C756 N760 1.427 . S
C757 H747 0.929 . S
C757 C755 1.433 . S
C757 N760 1.384 . S
C758 H749 0.929 . S
C758 C750 1.378 . S
C758 C753 1.350 . S
C759 H746 0.929 . S
C759 C751 1.433 . S
C759 N761 1.384 . S
N760 C756 1.427 . S
N760 C757 1.384 . S
N761 C753 1.427 . S
N761 C759 1.384 . S
H762 C768 0.930 . S
H763 C772 0.930 . S
H764 C777 0.929 . S
H765 C775 0.929 . S
H766 C770 0.929 . S
H767 C776 0.929 . S
C768 H762 0.930 . S
C768 C769 1.367 . S
C768 C776 1.378 . S
C769 C768 1.367 . S
C769 C777 1.433 . S
C770 H766 0.929 . S
C770 C772 1.378 . S
C770 C774 1.350 . S
C771 C774 1.463 . S
C771 C776 1.350 . S
C771 N779 1.427 . S
C772 H763 0.930 . S
C772 C770 1.378 . S
C772 C773 1.367 . S
C773 C772 1.367 . S
C773 C775 1.433 . S
C774 C770 1.350 . S
C774 C771 1.463 . S
C774 N778 1.427 . S
C775 H765 0.929 . S
C775 C773 1.433 . S
C775 N778 1.384 . S
C776 H767 0.929 . S
C776 C768 1.378 . S
C776 C771 1.350 . S
C777 H764 0.929 . S
C777 C769 1.433 . S
C777 N779 1.384 . S
N778 C774 1.427 . S
N778 C775 1.384 . S
N779 C771 1.427 . S
N779 C777 1.384 . S
H780 C786 0.930 . S
H781 C790 0.930 . S
H782 C795 0.929 . S
H783 C793 0.929 . S
H784 C788 0.929 . S
H785 C794 0.929 . S
C786 H780 0.930 . S
C786 C787 1.367 . S
C786 C794 1.378 . S
C787 C786 1.367 . S
C787 C795 1.433 . S
C788 H784 0.929 . S
C788 C790 1.378 . S
C788 C792 1.350 . S
C789 C792 1.463 . S
C789 C794 1.350 . S
C789 N797 1.427 . S
C790 H781 0.930 . S
C790 C788 1.378 . S
C790 C791 1.367 . S
C791 C790 1.367 . S
C791 C793 1.433 . S
C792 C788 1.350 . S
C792 C789 1.463 . S
C792 N796 1.427 . S
C793 H783 0.929 . S
C793 C791 1.433 . S
C793 N796 1.384 . S
C794 H785 0.929 . S
C794 C786 1.378 . S
C794 C789 1.350 . S
C795 H782 0.929 . S
C795 C787 1.433 . S
C795 N797 1.384 . S
N796 C792 1.427 . S
N796 C793 1.384 . S
N797 C789 1.427 . S
N797 C795 1.384 . S
H798 C804 0.930 . S
H799 C808 0.930 . S
H800 C813 0.929 . S
H801 C811 0.929 . S
H802 C806 0.929 . S
H803 C812 0.929 . S
C804 H798 0.930 . S
C804 C805 1.367 . S
C804 C812 1.378 . S
C805 C804 1.367 . S
C805 C813 1.433 . S
C806 H802 0.929 . S
C806 C808 1.378 . S
C806 C810 1.350 . S
C807 C810 1.463 . S
C807 C812 1.350 . S
C807 N815 1.427 . S
C808 H799 0.930 . S
C808 C806 1.378 . S
C808 C809 1.367 . S
C809 C808 1.367 . S
C809 C811 1.433 . S
C810 C806 1.350 . S
C810 C807 1.463 . S
C810 N814 1.427 . S
C811 H801 0.929 . S
C811 C809 1.433 . S
C811 N814 1.384 . S
C812 H803 0.929 . S
C812 C804 1.378 . S
C812 C807 1.350 . S
C813 H800 0.929 . S
C813 C805 1.433 . S
C813 N815 1.384 . S
N814 C810 1.427 . S
N814 C811 1.384 . S
N815 C807 1.427 . S
N815 C813 1.384 . S
H816 C822 0.930 . S
H817 C826 0.930 . S
H818 C831 0.929 . S
H819 C829 0.929 . S
H820 C824 0.929 . S
H821 C830 0.929 . S
C822 H816 0.930 . S
C822 C823 1.367 . S
C822 C830 1.378 . S
C823 C822 1.367 . S
C823 C831 1.433 . S
C824 H820 0.929 . S
C824 C826 1.378 . S
C824 C828 1.350 . S
C825 C828 1.463 . S
C825 C830 1.350 . S
C825 N833 1.427 . S
C826 H817 0.930 . S
C826 C824 1.378 . S
C826 C827 1.367 . S
C827 C826 1.367 . S
C827 C829 1.433 . S
C828 C824 1.350 . S
C828 C825 1.463 . S
C828 N832 1.427 . S
C829 H819 0.929 . S
C829 C827 1.433 . S
C829 N832 1.384 . S
C830 H821 0.929 . S
C830 C822 1.378 . S
C830 C825 1.350 . S
C831 H818 0.929 . S
C831 C823 1.433 . S
C831 N833 1.384 . S
N832 C828 1.427 . S
N832 C829 1.384 . S
N833 C825 1.427 . S
N833 C831 1.384 . S
C409 C13 1.915 . S
C413 C122 1.880 . S
C427 C27 1.637 . S
C431 C175 1.602 . S
C449 C228 1.778 . S
C445 C29 1.813 . S
C467 C265 1.473 . S
C463 C54 1.498 . S
C485 C325 1.722 . S
C481 C69 1.754 . S
C503 C378 1.554 . S
C499 C83 1.588 . S
C517 C15 1.918 . S
C521 C229 1.894 . S
C535 C41 1.592 . S
C539 C272 1.563 . S
C557 C318 1.728 . S
C553 C42 1.753 . S
C575 C371 1.474 . S
C571 C57 1.498 . S
C589 C71 1.816 . S
C593 C123 1.790 . S
C611 C176 1.612 . S
C607 C1 1.638 . S
C629 C282 1.880 . S
C625 C12 1.915 . S
C643 C26 1.638 . S
C647 C334 1.614 . S
C665 C387 1.786 . S
C661 C28 1.813 . S
C679 C55 1.495 . S
C683 C113 1.468 . S
C697 C68 1.750 . S
C701 C166 1.721 . S
C715 C82 1.588 . S
C719 C219 1.561 . S
C733 C14 1.915 . S
C737 C388 1.880 . S
C755 C106 1.558 . S
C751 C40 1.590 . S
C769 C43 1.750 . S
C773 C159 1.713 . S
C787 C56 1.496 . S
C791 C212 1.464 . S
C805 C70 1.813 . S
C809 C281 1.784 . S
C823 C0 1.641 . S
C827 C335 1.609 . S
