# Generated by pormake.
# Topology the, (3,8)-cn, num edge types: 1
# Building blocks:
#     Node 0, Type 0, BuildingBlock: OLANEW_clean_sbu_2, # of connection points: 3
#     Node 1, Type 0, BuildingBlock: OLANEW_clean_sbu_2, # of connection points: 3
#     Node 2, Type 0, BuildingBlock: OLANEW_clean_sbu_2, # of connection points: 3
#     Node 3, Type 0, BuildingBlock: OLANEW_clean_sbu_2, # of connection points: 3
#     Node 4, Type 0, BuildingBlock: OLANEW_clean_sbu_2, # of connection points: 3
#     Node 5, Type 0, BuildingBlock: OLANEW_clean_sbu_2, # of connection points: 3
#     Node 6, Type 0, BuildingBlock: OLANEW_clean_sbu_2, # of connection points: 3
#     Node 7, Type 0, BuildingBlock: OLANEW_clean_sbu_2, # of connection points: 3
#     Node 8, Type 1, BuildingBlock: GIZVER_clean_sbu_0, # of connection points: 8
#     Node 9, Type 1, BuildingBlock: GIZVER_clean_sbu_0, # of connection points: 8
#     Node 10, Type 1, BuildingBlock: GIZVER_clean_sbu_0, # of connection points: 8
#     Edge 11, Type (0, 1), BuildingBlock: OJICUG_clean_linker_0, # of connection points: 2
#     Edge 12, Type (0, 1), BuildingBlock: OJICUG_clean_linker_0, # of connection points: 2
#     Edge 13, Type (0, 1), BuildingBlock: OJICUG_clean_linker_0, # of connection points: 2
#     Edge 14, Type (0, 1), BuildingBlock: OJICUG_clean_linker_0, # of connection points: 2
#     Edge 15, Type (0, 1), BuildingBlock: OJICUG_clean_linker_0, # of connection points: 2
#     Edge 16, Type (0, 1), BuildingBlock: OJICUG_clean_linker_0, # of connection points: 2
#     Edge 17, Type (0, 1), BuildingBlock: OJICUG_clean_linker_0, # of connection points: 2
#     Edge 18, Type (0, 1), BuildingBlock: OJICUG_clean_linker_0, # of connection points: 2
#     Edge 19, Type (0, 1), BuildingBlock: OJICUG_clean_linker_0, # of connection points: 2
#     Edge 20, Type (0, 1), BuildingBlock: OJICUG_clean_linker_0, # of connection points: 2
#     Edge 21, Type (0, 1), BuildingBlock: OJICUG_clean_linker_0, # of connection points: 2
#     Edge 22, Type (0, 1), BuildingBlock: OJICUG_clean_linker_0, # of connection points: 2
#     Edge 23, Type (0, 1), BuildingBlock: OJICUG_clean_linker_0, # of connection points: 2
#     Edge 24, Type (0, 1), BuildingBlock: OJICUG_clean_linker_0, # of connection points: 2
#     Edge 25, Type (0, 1), BuildingBlock: OJICUG_clean_linker_0, # of connection points: 2
#     Edge 26, Type (0, 1), BuildingBlock: OJICUG_clean_linker_0, # of connection points: 2
#     Edge 27, Type (0, 1), BuildingBlock: OJICUG_clean_linker_0, # of connection points: 2
#     Edge 28, Type (0, 1), BuildingBlock: OJICUG_clean_linker_0, # of connection points: 2
#     Edge 29, Type (0, 1), BuildingBlock: OJICUG_clean_linker_0, # of connection points: 2
#     Edge 30, Type (0, 1), BuildingBlock: OJICUG_clean_linker_0, # of connection points: 2
#     Edge 31, Type (0, 1), BuildingBlock: OJICUG_clean_linker_0, # of connection points: 2
#     Edge 32, Type (0, 1), BuildingBlock: OJICUG_clean_linker_0, # of connection points: 2
#     Edge 33, Type (0, 1), BuildingBlock: OJICUG_clean_linker_0, # of connection points: 2
#     Edge 34, Type (0, 1), BuildingBlock: OJICUG_clean_linker_0, # of connection points: 2
# Relax obj value: 0.083
# Max RMSD: 0.226
# Mean RMSD: 0.131
data_MOF--net-the--node1-OLANEW_clean_sbu_2--node2-GIZVER_clean_sbu_0--edge1-OJICUG_clean_linker_0
_symmetry_space_group_name_H-M    P1
_symmetry_Int_Tables_number       1
_symmetry_cell_setting            triclinic
loop_
_symmetry_equiv_pos_as_xyz
'x, y, z'
_cell_length_a     33.508628
_cell_length_b     31.952822
_cell_length_c     28.457373
_cell_angle_alpha  90.353165
_cell_angle_beta   94.920291
_cell_angle_gamma 111.07306
loop_
_atom_site_label
_atom_site_type_symbol
_atom_site_fract_x
_atom_site_fract_y
_atom_site_fract_z
_atom_type_partial_charge
O0 O 0.33832 0.36371 0.32192 0.0
Cd1 Cd 0.31488 0.32971 0.39708 0.0
O2 O 0.35041 0.4322 0.3492 0.0
Cd3 Cd 0.31756 0.40992 0.41252 0.0
O4 O 0.26404 0.41135 0.45022 0.0
C5 C 0.22598 0.38686 0.43467 0.0
O6 O 0.22036 0.3582 0.39917 0.0
C7 C 0.35167 0.40586 0.3162 0.0
C8 C 0.34655 0.26244 0.42484 0.0
O9 O 0.31097 0.25312 0.39897 0.0
O10 O 0.36759 0.30371 0.43723 0.0
O11 O 0.7586 0.39463 0.30654 0.0
Cd12 Cd 0.70012 0.34423 0.25129 0.0
O13 O 0.7809 0.34082 0.33114 0.0
Cd14 Cd 0.72071 0.28751 0.30418 0.0
O15 O 0.66092 0.23423 0.31982 0.0
C16 C 0.66531 0.20591 0.34906 0.0
O17 O 0.70436 0.20914 0.36488 0.0
C18 C 0.78607 0.38223 0.33045 0.0
C19 C 0.6485 0.38391 0.2 0.0
O20 O 0.63804 0.36519 0.23912 0.0
O21 O 0.68395 0.38488 0.18541 0.0
O22 O 0.70167 0.72525 0.27396 0.0
Cd23 Cd 0.75657 0.78357 0.32501 0.0
O24 O 0.69886 0.7724 0.21898 0.0
Cd25 Cd 0.72311 0.82905 0.27071 0.0
O26 O 0.70482 0.86832 0.32267 0.0
C27 C 0.67118 0.84565 0.34186 0.0
O28 O 0.65302 0.80255 0.33062 0.0
C29 C 0.6892 0.7323 0.23227 0.0
C30 C 0.81455 0.74673 0.36581 0.0
O31 O 0.78634 0.75265 0.38997 0.0
O32 O 0.81609 0.75904 0.32307 0.0
O33 O 0.38868 0.84764 0.26987 0.0
Cd34 Cd 0.34501 0.79387 0.2068 0.0
O35 O 0.34244 0.79923 0.31036 0.0
Cd36 Cd 0.30459 0.7679 0.36758 0.0
O37 O 0.24631 0.71368 0.38347 0.0
C38 C 0.21082 0.71958 0.38418 0.0
O39 O 0.20976 0.75995 0.37848 0.0
C40 C 0.37457 0.83556 0.30954 0.0
C41 C 0.37592 0.72661 0.18442 0.0
O42 O 0.35663 0.72489 0.22172 0.0
O43 O 0.38118 0.76027 0.15816 0.0
O44 O 0.42349 0.82569 0.77344 0.0
Cd45 Cd 0.39474 0.76784 0.83237 0.0
O46 O 0.36006 0.80903 0.73491 0.0
Cd47 Cd 0.30494 0.80636 0.68562 0.0
O48 O 0.23992 0.76569 0.6545 0.0
C49 C 0.23531 0.74833 0.61317 0.0
O50 O 0.26916 0.75833 0.58922 0.0
C51 C 0.39975 0.83369 0.73987 0.0
C52 C 0.44356 0.71823 0.87106 0.0
O53 O 0.45183 0.75903 0.88475 0.0
O54 O 0.41343 0.70122 0.83784 0.0
O55 O 0.35737 0.34922 0.77622 0.0
Cd56 Cd 0.30108 0.29339 0.72366 0.0
O57 O 0.314 0.37006 0.81681 0.0
Cd58 Cd 0.25931 0.3455 0.76242 0.0
O59 O 0.2204 0.36768 0.7091 0.0
C60 C 0.17966 0.35257 0.70088 0.0
O61 O 0.15654 0.31836 0.72424 0.0
C62 C 0.35151 0.37082 0.81109 0.0
C63 C 0.33379 0.23494 0.68034 0.0
O64 O 0.32476 0.2306 0.72329 0.0
O65 O 0.32709 0.26656 0.65744 0.0
O66 O 0.72373 0.38124 0.78425 0.0
Cd67 Cd 0.76357 0.33932 0.75032 0.0
O68 O 0.71141 0.33926 0.84624 0.0
Cd69 Cd 0.7189 0.28436 0.80589 0.0
O70 O 0.68771 0.23128 0.75104 0.0
C71 C 0.67011 0.24331 0.7149 0.0
O72 O 0.67426 0.28571 0.71244 0.0
C73 C 0.71086 0.3741 0.82524 0.0
C74 C 0.82983 0.39628 0.70189 0.0
O75 O 0.79404 0.37145 0.67981 0.0
O76 O 0.83454 0.39392 0.74683 0.0
O77 O 0.78165 0.74315 0.56448 0.0
Cd78 Cd 0.71801 0.74773 0.59741 0.0
O79 O 0.75363 0.68299 0.6038 0.0
Cd80 Cd 0.75214 0.62367 0.64193 0.0
O81 O 0.72818 0.59343 0.70702 0.0
C82 C 0.74668 0.6139 0.74584 0.0
O83 O 0.78199 0.64944 0.74522 0.0
C84 C 0.78319 0.70638 0.57948 0.0
C85 C 0.68797 0.81634 0.57577 0.0
O86 O 0.71909 0.82218 0.60773 0.0
O87 O 0.67262 0.77873 0.55219 0.0
Co88 Co 0.07631 0.49835 0.54986 0.0
Co89 Co 0.04517 0.48167 0.46154 0.0
Co90 Co 1.00462 0.54658 0.51059 0.0
O91 O 0.02267 0.4933 0.51588 0.0
H92 H 0.99941 0.4667 0.52363 0.0
O93 O 0.9868 0.5999 0.50595 0.0
Co94 Co 0.9319 0.59577 0.47692 0.0
Co95 Co 0.96936 0.6122 0.56368 0.0
H96 H 0.00959 0.62619 0.4967 0.0
O97 O 0.04972 0.42608 0.44762 0.0
O98 O 0.09726 0.48384 0.49158 0.0
O99 O 0.06148 0.52932 0.4181 0.0
O100 O 0.04659 0.57767 0.46377 0.0
O101 O 0.96037 0.5128 0.45808 0.0
O102 O 0.88346 0.59754 0.44828 0.0
O103 O 0.94639 0.65498 0.4657 0.0
O104 O 0.90972 0.53332 0.48366 0.0
O105 O 0.96242 0.51582 0.55752 0.0
O106 O 0.96354 0.56755 0.6109 0.0
O107 O 0.91378 0.60439 0.53931 0.0
O108 O 0.96055 0.66585 0.57851 0.0
C109 C 0.10004 0.45613 0.58714 0.0
C110 C 0.08911 0.58923 0.55646 0.0
C111 C 0.0647 0.56899 0.42923 0.0
C112 C 0.08725 0.44469 0.47072 0.0
C113 C 0.9068 0.63984 0.44643 0.0
C114 C 0.92092 0.50837 0.45701 0.0
C115 C 0.9538 0.52681 0.59764 0.0
C116 C 0.92194 0.64328 0.55986 0.0
O117 O 0.12347 0.49803 0.58258 0.0
O118 O 0.06052 0.44037 0.56744 0.0
O119 O 0.04969 0.58124 0.56199 0.0
O120 O 0.10017 0.55964 0.53725 0.0
Co121 Co 0.54455 0.95437 0.49041 0.0
Co122 Co 0.56819 0.98784 0.5764 0.0
Co123 Co 0.50336 0.03015 0.52937 0.0
O124 O 0.553 0.0107 0.52203 0.0
H125 H 0.57789 0.03469 0.51278 0.0
O126 O 0.45388 0.05069 0.53364 0.0
Co127 Co 0.46093 0.1077 0.56267 0.0
Co128 Co 0.44309 0.07525 0.47647 0.0
H129 H 0.42841 0.02676 0.54179 0.0
O130 O 0.62161 0.98371 0.58875 0.0
O131 O 0.56236 0.93214 0.55073 0.0
O132 O 0.53069 0.97997 0.62497 0.0
O133 O 0.47544 0.98232 0.57681 0.0
O134 O 0.53803 0.07263 0.58246 0.0
O135 O 0.46255 0.15776 0.59194 0.0
O136 O 0.40533 0.09401 0.5742 0.0
O137 O 0.52065 0.12921 0.55591 0.0
O138 O 0.53248 0.07695 0.48358 0.0
O139 O 0.48386 0.08443 0.42969 0.0
O140 O 0.44942 0.13171 0.50024 0.0
O141 O 0.39126 0.08168 0.45887 0.0
C142 C 0.58117 0.92851 0.45378 0.0
C143 C 0.46275 0.94658 0.47506 0.0
C144 C 0.4907 0.97096 0.61571 0.0
C145 C 0.6021 0.94395 0.56898 0.0
C146 C 0.42195 0.13446 0.59355 0.0
C147 C 0.54516 0.11462 0.58202 0.0
C148 C 0.52243 0.08978 0.44338 0.0
C149 C 0.41195 0.12211 0.47644 0.0
O150 O 0.54145 0.90476 0.45984 0.0
O151 O 0.5984 0.96937 0.47211 0.0
O152 O 0.46924 0.98837 0.4761 0.0
O153 O 0.48614 0.93201 0.50284 0.0
Co154 Co 0.48451 0.56304 0.10939 0.0
Co155 Co 0.46062 0.47992 0.0901 0.0
Co156 Co 0.53464 0.53414 0.02339 0.0
O157 O 0.48147 0.52873 0.05356 0.0
H158 H 0.45894 0.52943 0.03034 0.0
O159 O 0.5876 0.5386 0.99378 0.0
Co160 Co 0.58504 0.50681 0.93606 0.0
Co161 Co 0.61188 0.59127 0.96327 0.0
H162 H 0.60921 0.53554 0.01681 0.0
O163 O 0.40398 0.45381 0.10154 0.0
O164 O 0.45716 0.50831 0.14554 0.0
O165 O 0.49767 0.44744 0.10418 0.0
O166 O 0.5524 0.49271 0.0678 0.0
O167 O 0.49805 0.48201 0.98036 0.0
O168 O 0.58778 0.47657 0.88456 0.0
O169 O 0.6361 0.50007 0.94835 0.0
O170 O 0.53029 0.50788 0.91641 0.0
O171 O 0.51782 0.57632 0.97878 0.0
O172 O 0.57759 0.62826 0.95649 0.0
O173 O 0.6116 0.56426 0.90534 0.0
O174 O 0.66913 0.61245 0.94866 0.0
C175 C 0.4479 0.59587 0.13352 0.0
C176 C 0.57094 0.58724 0.11084 0.0
C177 C 0.53647 0.46022 0.09496 0.0
C178 C 0.41919 0.47661 0.14124 0.0
C179 C 0.62368 0.47835 0.90753 0.0
C180 C 0.49768 0.4827 0.93552 0.0
C181 C 0.5374 0.61379 0.95998 0.0
C182 C 0.65226 0.58875 0.90987 0.0
O183 O 0.48289 0.59732 0.15839 0.0
O184 O 0.43445 0.5704 0.09512 0.0
O185 O 0.57075 0.58677 0.06603 0.0
O186 O 0.53891 0.56114 0.13009 0.0
C187 C 0.19569 0.43233 0.48251 0.0
C188 C 0.18896 0.3964 0.4503 0.0
H189 H 0.16894 0.47578 0.5141 0.0
C190 C 0.14711 0.37294 0.42935 0.0
H191 H 0.22742 0.45094 0.49958 0.0
C192 C 0.11334 0.38706 0.43797 0.0
C193 C 0.12082 0.42503 0.46753 0.0
H194 H 0.14075 0.34488 0.40464 0.0
H195 H 0.08189 0.36947 0.41972 0.0
C196 C 0.16205 0.44659 0.49087 0.0
C197 C 0.58561 0.17109 0.35579 0.0
C198 C 0.62765 0.17285 0.36901 0.0
H199 H 0.51911 0.14316 0.36861 0.0
C200 C 0.63395 0.14444 0.404 0.0
H201 H 0.57963 0.19245 0.32884 0.0
C202 C 0.59948 0.11648 0.4268 0.0
C203 C 0.55767 0.11593 0.41509 0.0
H204 H 0.66579 0.14463 0.4149 0.0
H205 H 0.60589 0.09597 0.45443 0.0
C206 C 0.55091 0.14278 0.37852 0.0
C207 C 0.83807 0.6818 0.3621 0.0
C208 C 0.8414 0.72207 0.38492 0.0
H209 H 0.85574 0.62369 0.36463 0.0
C210 C 0.86865 0.73689 0.42676 0.0
H211 H 0.81702 0.66974 0.3299 0.0
C212 C 0.89228 0.71149 0.44554 0.0
C213 C 0.88719 0.67004 0.42389 0.0
H214 H 0.87159 0.76794 0.44483 0.0
H215 H 0.91312 0.72331 0.47783 0.0
C216 C 0.86012 0.65556 0.38192 0.0
C217 C 0.39787 0.84416 0.39637 0.0
C218 C 0.39451 0.86369 0.35281 0.0
H219 H 0.42284 0.85521 0.46934 0.0
C220 C 0.41193 0.91059 0.35036 0.0
H221 H 0.38507 0.80804 0.39909 0.0
C222 C 0.43252 0.93752 0.39059 0.0
C223 C 0.43722 0.91804 0.43388 0.0
H224 H 0.4097 0.92649 0.31722 0.0
H225 H 0.44605 0.97357 0.38734 0.0
C226 C 0.41958 0.87109 0.43644 0.0
C227 C 0.15857 0.69842 0.62168 0.0
C228 C 0.19448 0.71215 0.59518 0.0
H229 H 0.09625 0.64874 0.62973 0.0
C230 C 0.19252 0.68813 0.553 0.0
H231 H 0.15893 0.7164 0.65419 0.0
C232 C 0.15711 0.64946 0.53952 0.0
C233 C 0.12242 0.63414 0.56742 0.0
H234 H 0.21923 0.69792 0.53137 0.0
H235 H 0.15751 0.63065 0.50785 0.0
C236 C 0.12264 0.65984 0.60769 0.0
C237 C 0.38269 0.19147 0.68582 0.0
C238 C 0.35325 0.20564 0.6586 0.0
H239 H 0.42822 0.15833 0.68589 0.0
C240 C 0.3441 0.19313 0.61029 0.0
H241 H 0.39047 0.20086 0.72307 0.0
C242 C 0.36444 0.16726 0.58952 0.0
C243 C 0.39533 0.15502 0.61639 0.0
H244 H 0.32139 0.2035 0.58858 0.0
H245 H 0.35725 0.15837 0.5522 0.0
C246 C 0.40418 0.16713 0.66468 0.0
C247 C 0.89442 0.46666 0.6995 0.0
C248 C 0.86409 0.42782 0.67631 0.0
H249 H 0.94652 0.52884 0.69263 0.0
C250 C 0.86562 0.42036 0.62795 0.0
H251 H 0.89391 0.47328 0.73678 0.0
C252 C 0.89629 0.45156 0.60299 0.0
C253 C 0.92542 0.49141 0.62566 0.0
H254 H 0.84278 0.3906 0.60924 0.0
H255 H 0.89598 0.44531 0.56547 0.0
C256 C 0.92447 0.49845 0.67427 0.0
C257 C 0.62652 0.83898 0.54597 0.0
C258 C 0.6679 0.85047 0.56944 0.0
H259 H 0.57277 0.85895 0.52851 0.0
C260 C 0.68822 0.8936 0.59063 0.0
H261 H 0.60992 0.8059 0.52949 0.0
C262 C 0.66715 0.92423 0.58952 0.0
C263 C 0.62509 0.91218 0.56772 0.0
H264 H 0.72012 0.90346 0.60891 0.0
H265 H 0.68358 0.95701 0.60674 0.0
C266 C 0.60516 0.86937 0.54555 0.0
C267 C 0.33909 0.18152 0.42588 0.0
C268 C 0.36281 0.22656 0.43971 0.0
H269 H 0.33568 0.11343 0.42685 0.0
C270 C 0.40219 0.23683 0.46748 0.0
H271 H 0.30852 0.17233 0.40473 0.0
C272 C 0.41787 0.2029 0.48024 0.0
C273 C 0.39447 0.15795 0.46557 0.0
H274 H 0.42117 0.27115 0.47899 0.0
H275 H 0.44854 0.21201 0.50116 0.0
C276 C 0.35469 0.14767 0.43865 0.0
C277 C 0.81781 0.45459 0.37759 0.0
C278 C 0.82211 0.41536 0.36038 0.0
H279 H 0.84483 0.51362 0.42229 0.0
C280 C 0.85992 0.40715 0.37431 0.0
H281 H 0.78898 0.46171 0.36793 0.0
C282 C 0.89274 0.43772 0.40489 0.0
C283 C 0.88771 0.4763 0.42313 0.0
H284 H 0.86409 0.3771 0.36161 0.0
H285 H 0.92148 0.43063 0.41513 0.0
C286 C 0.84987 0.48429 0.40902 0.0
C287 C 0.66815 0.91357 0.38515 0.0
C288 C 0.65043 0.86729 0.37321 0.0
H289 H 0.66032 0.96947 0.42037 0.0
C290 C 0.61111 0.84151 0.38993 0.0
H291 H 0.69848 0.93435 0.37295 0.0
C292 C 0.58928 0.86155 0.41651 0.0
C293 C 0.60626 0.90792 0.42751 0.0
H294 H 0.59655 0.80577 0.38174 0.0
H295 H 0.55877 0.84051 0.42813 0.0
C296 C 0.64632 0.93369 0.41228 0.0
C297 C 0.1354 0.68788 0.40681 0.0
C298 C 0.17116 0.68113 0.39068 0.0
H299 H 0.07307 0.65739 0.43119 0.0
C300 C 0.16906 0.6371 0.38152 0.0
H301 H 0.13605 0.72147 0.41393 0.0
C302 C 0.13267 0.60047 0.39025 0.0
C303 C 0.09789 0.60707 0.40919 0.0
H304 H 0.19593 0.63089 0.36845 0.0
H305 H 0.13295 0.567 0.38477 0.0
C306 C 0.09924 0.65119 0.41637 0.0
C307 C 0.45779 0.90595 0.72497 0.0
C308 C 0.41896 0.87167 0.70869 0.0
H309 H 0.50969 0.96471 0.70908 0.0
C310 C 0.40069 0.87374 0.66265 0.0
H311 H 0.47253 0.90599 0.76039 0.0
C312 C 0.42224 0.90802 0.63282 0.0
C313 C 0.46235 0.94075 0.64863 0.0
H314 H 0.37096 0.8478 0.64882 0.0
H315 H 0.40878 0.90735 0.59671 0.0
C316 C 0.47902 0.93993 0.69554 0.0
C317 C 0.18377 0.41677 0.64927 0.0
C318 C 0.1587 0.37648 0.66853 0.0
H319 H 0.18495 0.47311 0.60882 0.0
C320 C 0.11373 0.36096 0.65845 0.0
H321 H 0.21845 0.42973 0.65598 0.0
C322 C 0.09432 0.38596 0.6308 0.0
C323 C 0.11953 0.42715 0.61329 0.0
H324 H 0.09348 0.32995 0.67259 0.0
H325 H 0.05964 0.37372 0.62432 0.0
C326 C 0.16446 0.44182 0.62228 0.0
C327 C 0.6328 0.16368 0.68264 0.0
C328 C 0.64173 0.20998 0.67848 0.0
H329 H 0.5954 0.09699 0.65519 0.0
C330 C 0.62105 0.22437 0.64037 0.0
H331 H 0.64827 0.15149 0.71154 0.0
C332 C 0.59084 0.19333 0.6084 0.0
C333 C 0.58054 0.14699 0.61347 0.0
H334 H 0.6273 0.25972 0.63582 0.0
H335 H 0.57484 0.2058 0.58019 0.0
C336 C 0.60254 0.13246 0.65035 0.0
C337 C 0.86164 0.72184 0.57664 0.0
C338 C 0.81893 0.69166 0.5712 0.0
H339 H 0.92821 0.72994 0.57858 0.0
C340 C 0.81038 0.64622 0.56042 0.0
H341 H 0.86888 0.75705 0.58512 0.0
C342 C 0.84395 0.63094 0.55568 0.0
C343 C 0.88685 0.66062 0.56283 0.0
H344 H 0.77762 0.62243 0.55577 0.0
H345 H 0.83624 0.59559 0.54753 0.0
C346 C 0.89545 0.70628 0.57327 0.0
C347 C 0.35687 0.39686 0.22956 0.0
C348 C 0.36744 0.42443 0.27085 0.0
H349 H 0.3638 0.39206 0.15587 0.0
C350 C 0.39252 0.47021 0.26823 0.0
H351 H 0.33721 0.36158 0.23029 0.0
C352 C 0.40801 0.48766 0.22563 0.0
C353 C 0.39806 0.45989 0.18454 0.0
H354 H 0.40102 0.49242 0.29937 0.0
H355 H 0.42837 0.52273 0.22503 0.0
C356 C 0.37167 0.41448 0.18678 0.0
C357 C 0.4484 0.64422 0.89442 0.0
C358 C 0.46737 0.69131 0.89386 0.0
H359 H 0.45515 0.5828 0.91695 0.0
C360 C 0.50895 0.71256 0.91637 0.0
H361 H 0.41624 0.6269 0.87772 0.0
C362 C 0.53145 0.68731 0.93797 0.0
C363 C 0.51247 0.64027 0.93878 0.0
H364 H 0.5244 0.74874 0.91666 0.0
H365 H 0.56374 0.70467 0.95433 0.0
C366 C 0.47049 0.61901 0.91722 0.0
C367 C 0.4304 0.41259 0.82942 0.0
C368 C 0.38873 0.39824 0.84398 0.0
H369 H 0.4971 0.45089 0.84661 0.0
C370 C 0.3831 0.41127 0.88956 0.0
H371 H 0.43586 0.40334 0.79453 0.0
C372 C 0.41849 0.43802 0.91991 0.0
C373 C 0.45999 0.4531 0.90479 0.0
H374 H 0.35137 0.40065 0.90183 0.0
H375 H 0.41329 0.44763 0.95478 0.0
C376 C 0.46549 0.44006 0.85924 0.0
C377 C 0.69387 0.40952 0.89604 0.0
C378 C 0.69222 0.40424 0.84675 0.0
H379 H 0.67444 0.43855 0.95407 0.0
C380 C 0.67034 0.42606 0.81782 0.0
H381 H 0.71065 0.39313 0.9191 0.0
C382 C 0.64872 0.45083 0.83773 0.0
C383 C 0.64976 0.45556 0.88696 0.0
H384 H 0.66837 0.42241 0.77973 0.0
H385 H 0.63069 0.46579 0.81453 0.0
C386 C 0.67338 0.43561 0.916 0.0
C387 C 0.68228 0.57234 0.78781 0.0
C388 C 0.72479 0.60294 0.78959 0.0
H389 H 0.62592 0.54458 0.82398 0.0
C390 C 0.74447 0.62622 0.8325 0.0
H391 H 0.66613 0.55381 0.75536 0.0
C392 C 0.72144 0.62053 0.87221 0.0
C393 C 0.6782 0.59169 0.86963 0.0
H394 H 0.77726 0.64992 0.83507 0.0
H395 H 0.73713 0.63979 0.90441 0.0
C396 C 0.65917 0.56707 0.82726 0.0
C397 C 0.63999 0.65216 0.21859 0.0
C398 C 0.66192 0.6941 0.20023 0.0
H399 H 0.594 0.58558 0.20467 0.0
C400 C 0.65613 0.69951 0.1514 0.0
H401 H 0.64374 0.64684 0.25602 0.0
C402 C 0.62815 0.66404 0.12179 0.0
C403 C 0.60479 0.62278 0.1406 0.0
H404 H 0.67278 0.73134 0.13615 0.0
H405 H 0.62353 0.66953 0.08451 0.0
C406 C 0.61145 0.61705 0.18919 0.0
C407 C 0.39167 0.67906 0.1242 0.0
C408 C 0.39164 0.6908 0.17182 0.0
H409 H 0.40818 0.63838 0.07493 0.0
C410 C 0.40751 0.6687 0.20705 0.0
H411 H 0.37932 0.69541 0.09642 0.0
C412 C 0.425 0.63686 0.19474 0.0
C413 C 0.42543 0.62553 0.14707 0.0
H414 H 0.40782 0.67721 0.24402 0.0
H415 H 0.43855 0.62143 0.22241 0.0
C416 C 0.40779 0.64619 0.11195 0.0
C417 C 0.63405 0.42981 0.1335 0.0
C418 C 0.61998 0.40302 0.17224 0.0
H419 H 0.6189 0.46901 0.07863 0.0
C420 C 0.57798 0.39414 0.18416 0.0
H421 H 0.66623 0.43721 0.12333 0.0
C422 C 0.55075 0.41177 0.15826 0.0
C423 C 0.56489 0.43922 0.11998 0.0
H424 H 0.56598 0.37344 0.21358 0.0
H425 H 0.51875 0.40445 0.16895 0.0
C426 C 0.6069 0.44798 0.10783 0.0
loop_
_geom_bond_atom_site_label_1
_geom_bond_atom_site_label_2
_geom_bond_distance
_geom_bond_site_symmetry_2
_ccdc_geom_bond_type
O0 Cd1 2.300 . S
O0 C7 1.275 . S
Cd1 O0 2.300 . S
Cd1 O9 2.381 . S
Cd1 O10 2.378 . S
O2 Cd3 2.385 . S
O2 C7 1.255 . S
Cd3 O2 2.385 . S
Cd3 O4 2.317 . S
O4 Cd3 2.317 . S
O4 C5 1.232 . S
C5 O4 1.232 . S
C5 O6 1.218 . S
O6 C5 1.218 . S
C7 O0 1.275 . S
C7 O2 1.255 . S
C8 O9 1.258 . S
C8 O10 1.256 . S
O9 Cd1 2.381 . S
O9 C8 1.258 . S
O10 Cd1 2.378 . S
O10 C8 1.256 . S
O11 Cd12 2.300 . S
O11 C18 1.275 . S
Cd12 O11 2.300 . S
Cd12 O20 2.381 . S
Cd12 O21 2.378 . S
O13 Cd14 2.385 . S
O13 C18 1.255 . S
Cd14 O13 2.385 . S
Cd14 O15 2.317 . S
O15 Cd14 2.317 . S
O15 C16 1.232 . S
C16 O15 1.232 . S
C16 O17 1.218 . S
O17 C16 1.218 . S
C18 O11 1.275 . S
C18 O13 1.255 . S
C19 O20 1.258 . S
C19 O21 1.256 . S
O20 Cd12 2.381 . S
O20 C19 1.258 . S
O21 Cd12 2.378 . S
O21 C19 1.256 . S
O22 Cd23 2.300 . S
O22 C29 1.275 . S
Cd23 O22 2.300 . S
Cd23 O31 2.381 . S
Cd23 O32 2.378 . S
O24 Cd25 2.385 . S
O24 C29 1.255 . S
Cd25 O24 2.385 . S
Cd25 O26 2.317 . S
O26 Cd25 2.317 . S
O26 C27 1.232 . S
C27 O26 1.232 . S
C27 O28 1.218 . S
O28 C27 1.218 . S
C29 O22 1.275 . S
C29 O24 1.255 . S
C30 O31 1.258 . S
C30 O32 1.256 . S
O31 Cd23 2.381 . S
O31 C30 1.258 . S
O32 Cd23 2.378 . S
O32 C30 1.256 . S
O33 Cd34 2.300 . S
O33 C40 1.275 . S
Cd34 O33 2.300 . S
Cd34 O42 2.381 . S
Cd34 O43 2.378 . S
O35 Cd36 2.385 . S
O35 C40 1.255 . S
Cd36 O35 2.385 . S
Cd36 O37 2.317 . S
O37 Cd36 2.317 . S
O37 C38 1.232 . S
C38 O37 1.232 . S
C38 O39 1.218 . S
O39 C38 1.218 . S
C40 O33 1.275 . S
C40 O35 1.255 . S
C41 O42 1.258 . S
C41 O43 1.256 . S
O42 Cd34 2.381 . S
O42 C41 1.258 . S
O43 Cd34 2.378 . S
O43 C41 1.256 . S
O44 Cd45 2.300 . S
O44 C51 1.275 . S
Cd45 O44 2.300 . S
Cd45 O53 2.381 . S
Cd45 O54 2.378 . S
O46 Cd47 2.385 . S
O46 C51 1.255 . S
Cd47 O46 2.385 . S
Cd47 O48 2.317 . S
O48 Cd47 2.317 . S
O48 C49 1.232 . S
C49 O48 1.232 . S
C49 O50 1.218 . S
O50 C49 1.218 . S
C51 O44 1.275 . S
C51 O46 1.255 . S
C52 O53 1.258 . S
C52 O54 1.256 . S
O53 Cd45 2.381 . S
O53 C52 1.258 . S
O54 Cd45 2.378 . S
O54 C52 1.256 . S
O55 Cd56 2.300 . S
O55 C62 1.275 . S
Cd56 O55 2.300 . S
Cd56 O64 2.381 . S
Cd56 O65 2.378 . S
O57 Cd58 2.385 . S
O57 C62 1.255 . S
Cd58 O57 2.385 . S
Cd58 O59 2.317 . S
O59 Cd58 2.317 . S
O59 C60 1.232 . S
C60 O59 1.232 . S
C60 O61 1.218 . S
O61 C60 1.218 . S
C62 O55 1.275 . S
C62 O57 1.255 . S
C63 O64 1.258 . S
C63 O65 1.256 . S
O64 Cd56 2.381 . S
O64 C63 1.258 . S
O65 Cd56 2.378 . S
O65 C63 1.256 . S
O66 Cd67 2.300 . S
O66 C73 1.275 . S
Cd67 O66 2.300 . S
Cd67 O75 2.381 . S
Cd67 O76 2.378 . S
O68 Cd69 2.385 . S
O68 C73 1.255 . S
Cd69 O68 2.385 . S
Cd69 O70 2.317 . S
O70 Cd69 2.317 . S
O70 C71 1.232 . S
C71 O70 1.232 . S
C71 O72 1.218 . S
O72 C71 1.218 . S
C73 O66 1.275 . S
C73 O68 1.255 . S
C74 O75 1.258 . S
C74 O76 1.256 . S
O75 Cd67 2.381 . S
O75 C74 1.258 . S
O76 Cd67 2.378 . S
O76 C74 1.256 . S
O77 Cd78 2.300 . S
O77 C84 1.275 . S
Cd78 O77 2.300 . S
Cd78 O86 2.381 . S
Cd78 O87 2.378 . S
O79 Cd80 2.385 . S
O79 C84 1.255 . S
Cd80 O79 2.385 . S
Cd80 O81 2.317 . S
O81 Cd80 2.317 . S
O81 C82 1.232 . S
C82 O81 1.232 . S
C82 O83 1.218 . S
O83 C82 1.218 . S
C84 O77 1.275 . S
C84 O79 1.255 . S
C85 O86 1.258 . S
C85 O87 1.256 . S
O86 Cd78 2.381 . S
O86 C85 1.258 . S
O87 Cd78 2.378 . S
O87 C85 1.256 . S
Co88 O91 2.042 . S
Co88 O98 2.264 . S
Co88 O117 2.286 . S
Co88 O118 2.069 . S
Co88 O120 2.015 . S
Co89 O91 2.122 . S
Co89 O97 2.073 . S
Co89 O98 2.327 . S
Co89 O99 1.976 . S
Co90 O91 2.087 . S
Co90 O93 2.087 1_455 S
Co90 O100 2.111 . S
Co90 O101 2.143 1_455 S
Co90 O105 2.111 1_455 S
Co90 O119 2.143 . S
O91 Co88 2.042 . S
O91 Co89 2.122 . S
O91 Co90 2.087 . S
O91 H92 0.980 . S
H92 O91 0.980 . S
O93 Co90 2.087 1_655 S
O93 Co94 2.042 . S
O93 Co95 2.122 . S
O93 H96 0.980 1_655 S
Co94 O93 2.042 . S
Co94 O102 2.286 . S
Co94 O103 2.069 . S
Co94 O104 2.015 . S
Co94 O107 2.264 . S
Co95 O93 2.122 . S
Co95 O106 1.976 . S
Co95 O107 2.327 . S
Co95 O108 2.073 . S
H96 O93 0.980 1_455 S
O97 Co89 2.073 . S
O97 C112 1.245 . S
O98 Co88 2.264 . S
O98 Co89 2.327 . S
O98 C112 1.257 . S
O99 Co89 1.976 . S
O99 C111 1.251 . S
O100 Co90 2.111 . S
O100 C111 1.274 . S
O101 Co90 2.143 1_655 S
O101 C114 1.246 . S
O102 Co94 2.286 . S
O102 C113 1.259 . S
O103 Co94 2.069 . S
O103 C113 1.289 . S
O104 Co94 2.015 . S
O104 C114 1.257 . S
O105 Co90 2.111 1_655 S
O105 C115 1.274 . S
O106 Co95 1.976 . S
O106 C115 1.251 . S
O107 Co94 2.264 . S
O107 Co95 2.327 . S
O107 C116 1.257 . S
O108 Co95 2.073 . S
O108 C116 1.245 . S
C109 O117 1.259 . S
C109 O118 1.289 . S
C110 O119 1.246 . S
C110 O120 1.257 . S
C111 O99 1.251 . S
C111 O100 1.274 . S
C112 O97 1.245 . S
C112 O98 1.257 . S
C113 O102 1.259 . S
C113 O103 1.289 . S
C114 O101 1.246 . S
C114 O104 1.257 . S
C115 O105 1.274 . S
C115 O106 1.251 . S
C116 O107 1.257 . S
C116 O108 1.245 . S
O117 Co88 2.286 . S
O117 C109 1.259 . S
O118 Co88 2.069 . S
O118 C109 1.289 . S
O119 Co90 2.143 . S
O119 C110 1.246 . S
O120 Co88 2.015 . S
O120 C110 1.257 . S
Co121 O124 2.042 . S
Co121 O131 2.264 . S
Co121 O150 2.286 . S
Co121 O151 2.069 . S
Co121 O153 2.015 . S
Co122 O124 2.122 . S
Co122 O130 2.073 . S
Co122 O131 2.327 . S
Co122 O132 1.976 . S
Co123 O124 2.087 1_545 S
Co123 O126 2.087 . S
Co123 O133 2.111 1_545 S
Co123 O134 2.143 . S
Co123 O138 2.111 . S
Co123 O152 2.143 1_545 S
O124 Co121 2.042 . S
O124 Co122 2.122 . S
O124 Co123 2.087 1_565 S
O124 H125 0.980 1_565 S
H125 O124 0.980 1_545 S
O126 Co123 2.087 . S
O126 Co127 2.042 . S
O126 Co128 2.122 . S
O126 H129 0.980 . S
Co127 O126 2.042 . S
Co127 O135 2.286 . S
Co127 O136 2.069 . S
Co127 O137 2.015 . S
Co127 O140 2.264 . S
Co128 O126 2.122 . S
Co128 O139 1.976 . S
Co128 O140 2.327 . S
Co128 O141 2.073 . S
H129 O126 0.980 . S
O130 Co122 2.073 . S
O130 C145 1.245 . S
O131 Co121 2.264 . S
O131 Co122 2.327 . S
O131 C145 1.257 . S
O132 Co122 1.976 . S
O132 C144 1.251 . S
O133 Co123 2.111 1_565 S
O133 C144 1.274 . S
O134 Co123 2.143 . S
O134 C147 1.246 . S
O135 Co127 2.286 . S
O135 C146 1.259 . S
O136 Co127 2.069 . S
O136 C146 1.289 . S
O137 Co127 2.015 . S
O137 C147 1.257 . S
O138 Co123 2.111 . S
O138 C148 1.274 . S
O139 Co128 1.976 . S
O139 C148 1.251 . S
O140 Co127 2.264 . S
O140 Co128 2.327 . S
O140 C149 1.257 . S
O141 Co128 2.073 . S
O141 C149 1.245 . S
C142 O150 1.259 . S
C142 O151 1.289 . S
C143 O152 1.246 . S
C143 O153 1.257 . S
C144 O132 1.251 . S
C144 O133 1.274 . S
C145 O130 1.245 . S
C145 O131 1.257 . S
C146 O135 1.259 . S
C146 O136 1.289 . S
C147 O134 1.246 . S
C147 O137 1.257 . S
C148 O138 1.274 . S
C148 O139 1.251 . S
C149 O140 1.257 . S
C149 O141 1.245 . S
O150 Co121 2.286 . S
O150 C142 1.259 . S
O151 Co121 2.069 . S
O151 C142 1.289 . S
O152 Co123 2.143 1_565 S
O152 C143 1.246 . S
O153 Co121 2.015 . S
O153 C143 1.257 . S
Co154 O157 2.042 . S
Co154 O164 2.264 . S
Co154 O183 2.286 . S
Co154 O184 2.069 . S
Co154 O186 2.015 . S
Co155 O157 2.122 . S
Co155 O163 2.073 . S
Co155 O164 2.327 . S
Co155 O165 1.976 . S
Co156 O157 2.087 . S
Co156 O159 2.087 1_554 S
Co156 O166 2.111 . S
Co156 O167 2.143 1_554 S
Co156 O171 2.111 1_554 S
Co156 O185 2.143 . S
O157 Co154 2.042 . S
O157 Co155 2.122 . S
O157 Co156 2.087 . S
O157 H158 0.980 . S
H158 O157 0.980 . S
O159 Co156 2.087 1_556 S
O159 Co160 2.042 . S
O159 Co161 2.122 . S
O159 H162 0.980 . S
Co160 O159 2.042 . S
Co160 O168 2.286 . S
Co160 O169 2.069 . S
Co160 O170 2.015 . S
Co160 O173 2.264 . S
Co161 O159 2.122 . S
Co161 O172 1.976 . S
Co161 O173 2.327 . S
Co161 O174 2.073 . S
H162 O159 0.980 . S
O163 Co155 2.073 . S
O163 C178 1.245 . S
O164 Co154 2.264 . S
O164 Co155 2.327 . S
O164 C178 1.257 . S
O165 Co155 1.976 . S
O165 C177 1.251 . S
O166 Co156 2.111 . S
O166 C177 1.274 . S
O167 Co156 2.143 1_556 S
O167 C180 1.246 . S
O168 Co160 2.286 . S
O168 C179 1.259 . S
O169 Co160 2.069 . S
O169 C179 1.289 . S
O170 Co160 2.015 . S
O170 C180 1.257 . S
O171 Co156 2.111 1_556 S
O171 C181 1.274 . S
O172 Co161 1.976 . S
O172 C181 1.251 . S
O173 Co160 2.264 . S
O173 Co161 2.327 . S
O173 C182 1.257 . S
O174 Co161 2.073 . S
O174 C182 1.245 . S
C175 O183 1.259 . S
C175 O184 1.289 . S
C176 O185 1.246 . S
C176 O186 1.257 . S
C177 O165 1.251 . S
C177 O166 1.274 . S
C178 O163 1.245 . S
C178 O164 1.257 . S
C179 O168 1.259 . S
C179 O169 1.289 . S
C180 O167 1.246 . S
C180 O170 1.257 . S
C181 O171 1.274 . S
C181 O172 1.251 . S
C182 O173 1.257 . S
C182 O174 1.245 . S
O183 Co154 2.286 . S
O183 C175 1.259 . S
O184 Co154 2.069 . S
O184 C175 1.289 . S
O185 Co156 2.143 . S
O185 C176 1.246 . S
O186 Co154 2.015 . S
O186 C176 1.257 . S
C187 C188 1.387 . S
C187 H191 0.950 . S
C187 C196 1.390 . S
C188 C187 1.387 . S
C188 C190 1.387 . S
H189 C196 0.950 . S
C190 C188 1.387 . S
C190 C192 1.390 . S
C190 H194 0.950 . S
H191 C187 0.950 . S
C192 C190 1.390 . S
C192 C193 1.387 . S
C192 H195 0.950 . S
C193 C192 1.387 . S
C193 C196 1.387 . S
H194 C190 0.950 . S
H195 C192 0.950 . S
C196 C187 1.390 . S
C196 H189 0.950 . S
C196 C193 1.387 . S
C197 C198 1.387 . S
C197 H201 0.950 . S
C197 C206 1.390 . S
C198 C197 1.387 . S
C198 C200 1.387 . S
H199 C206 0.950 . S
C200 C198 1.387 . S
C200 C202 1.390 . S
C200 H204 0.950 . S
H201 C197 0.950 . S
C202 C200 1.390 . S
C202 C203 1.387 . S
C202 H205 0.950 . S
C203 C202 1.387 . S
C203 C206 1.387 . S
H204 C200 0.950 . S
H205 C202 0.950 . S
C206 C197 1.390 . S
C206 H199 0.950 . S
C206 C203 1.387 . S
C207 C208 1.387 . S
C207 H211 0.950 . S
C207 C216 1.390 . S
C208 C207 1.387 . S
C208 C210 1.387 . S
H209 C216 0.950 . S
C210 C208 1.387 . S
C210 C212 1.390 . S
C210 H214 0.950 . S
H211 C207 0.950 . S
C212 C210 1.390 . S
C212 C213 1.387 . S
C212 H215 0.950 . S
C213 C212 1.387 . S
C213 C216 1.387 . S
H214 C210 0.950 . S
H215 C212 0.950 . S
C216 C207 1.390 . S
C216 H209 0.950 . S
C216 C213 1.387 . S
C217 C218 1.387 . S
C217 H221 0.950 . S
C217 C226 1.390 . S
C218 C217 1.387 . S
C218 C220 1.387 . S
H219 C226 0.950 . S
C220 C218 1.387 . S
C220 C222 1.390 . S
C220 H224 0.950 . S
H221 C217 0.950 . S
C222 C220 1.390 . S
C222 C223 1.387 . S
C222 H225 0.950 . S
C223 C222 1.387 . S
C223 C226 1.387 . S
H224 C220 0.950 . S
H225 C222 0.950 . S
C226 C217 1.390 . S
C226 H219 0.950 . S
C226 C223 1.387 . S
C227 C228 1.387 . S
C227 H231 0.950 . S
C227 C236 1.390 . S
C228 C227 1.387 . S
C228 C230 1.387 . S
H229 C236 0.950 . S
C230 C228 1.387 . S
C230 C232 1.390 . S
C230 H234 0.950 . S
H231 C227 0.950 . S
C232 C230 1.390 . S
C232 C233 1.387 . S
C232 H235 0.950 . S
C233 C232 1.387 . S
C233 C236 1.387 . S
H234 C230 0.950 . S
H235 C232 0.950 . S
C236 C227 1.390 . S
C236 H229 0.950 . S
C236 C233 1.387 . S
C237 C238 1.387 . S
C237 H241 0.950 . S
C237 C246 1.390 . S
C238 C237 1.387 . S
C238 C240 1.387 . S
H239 C246 0.950 . S
C240 C238 1.387 . S
C240 C242 1.390 . S
C240 H244 0.950 . S
H241 C237 0.950 . S
C242 C240 1.390 . S
C242 C243 1.387 . S
C242 H245 0.950 . S
C243 C242 1.387 . S
C243 C246 1.387 . S
H244 C240 0.950 . S
H245 C242 0.950 . S
C246 C237 1.390 . S
C246 H239 0.950 . S
C246 C243 1.387 . S
C247 C248 1.387 . S
C247 H251 0.950 . S
C247 C256 1.390 . S
C248 C247 1.387 . S
C248 C250 1.387 . S
H249 C256 0.950 . S
C250 C248 1.387 . S
C250 C252 1.390 . S
C250 H254 0.950 . S
H251 C247 0.950 . S
C252 C250 1.390 . S
C252 C253 1.387 . S
C252 H255 0.950 . S
C253 C252 1.387 . S
C253 C256 1.387 . S
H254 C250 0.950 . S
H255 C252 0.950 . S
C256 C247 1.390 . S
C256 H249 0.950 . S
C256 C253 1.387 . S
C257 C258 1.387 . S
C257 H261 0.950 . S
C257 C266 1.390 . S
C258 C257 1.387 . S
C258 C260 1.387 . S
H259 C266 0.950 . S
C260 C258 1.387 . S
C260 C262 1.390 . S
C260 H264 0.950 . S
H261 C257 0.950 . S
C262 C260 1.390 . S
C262 C263 1.387 . S
C262 H265 0.950 . S
C263 C262 1.387 . S
C263 C266 1.387 . S
H264 C260 0.950 . S
H265 C262 0.950 . S
C266 C257 1.390 . S
C266 H259 0.950 . S
C266 C263 1.387 . S
C267 C268 1.387 . S
C267 H271 0.950 . S
C267 C276 1.390 . S
C268 C267 1.387 . S
C268 C270 1.387 . S
H269 C276 0.950 . S
C270 C268 1.387 . S
C270 C272 1.390 . S
C270 H274 0.950 . S
H271 C267 0.950 . S
C272 C270 1.390 . S
C272 C273 1.387 . S
C272 H275 0.950 . S
C273 C272 1.387 . S
C273 C276 1.387 . S
H274 C270 0.950 . S
H275 C272 0.950 . S
C276 C267 1.390 . S
C276 H269 0.950 . S
C276 C273 1.387 . S
C277 C278 1.387 . S
C277 H281 0.950 . S
C277 C286 1.390 . S
C278 C277 1.387 . S
C278 C280 1.387 . S
H279 C286 0.950 . S
C280 C278 1.387 . S
C280 C282 1.390 . S
C280 H284 0.950 . S
H281 C277 0.950 . S
C282 C280 1.390 . S
C282 C283 1.387 . S
C282 H285 0.950 . S
C283 C282 1.387 . S
C283 C286 1.387 . S
H284 C280 0.950 . S
H285 C282 0.950 . S
C286 C277 1.390 . S
C286 H279 0.950 . S
C286 C283 1.387 . S
C287 C288 1.387 . S
C287 H291 0.950 . S
C287 C296 1.390 . S
C288 C287 1.387 . S
C288 C290 1.387 . S
H289 C296 0.950 . S
C290 C288 1.387 . S
C290 C292 1.390 . S
C290 H294 0.950 . S
H291 C287 0.950 . S
C292 C290 1.390 . S
C292 C293 1.387 . S
C292 H295 0.950 . S
C293 C292 1.387 . S
C293 C296 1.387 . S
H294 C290 0.950 . S
H295 C292 0.950 . S
C296 C287 1.390 . S
C296 H289 0.950 . S
C296 C293 1.387 . S
C297 C298 1.387 . S
C297 H301 0.950 . S
C297 C306 1.390 . S
C298 C297 1.387 . S
C298 C300 1.387 . S
H299 C306 0.950 . S
C300 C298 1.387 . S
C300 C302 1.390 . S
C300 H304 0.950 . S
H301 C297 0.950 . S
C302 C300 1.390 . S
C302 C303 1.387 . S
C302 H305 0.950 . S
C303 C302 1.387 . S
C303 C306 1.387 . S
H304 C300 0.950 . S
H305 C302 0.950 . S
C306 C297 1.390 . S
C306 H299 0.950 . S
C306 C303 1.387 . S
C307 C308 1.387 . S
C307 H311 0.950 . S
C307 C316 1.390 . S
C308 C307 1.387 . S
C308 C310 1.387 . S
H309 C316 0.950 . S
C310 C308 1.387 . S
C310 C312 1.390 . S
C310 H314 0.950 . S
H311 C307 0.950 . S
C312 C310 1.390 . S
C312 C313 1.387 . S
C312 H315 0.950 . S
C313 C312 1.387 . S
C313 C316 1.387 . S
H314 C310 0.950 . S
H315 C312 0.950 . S
C316 C307 1.390 . S
C316 H309 0.950 . S
C316 C313 1.387 . S
C317 C318 1.387 . S
C317 H321 0.950 . S
C317 C326 1.390 . S
C318 C317 1.387 . S
C318 C320 1.387 . S
H319 C326 0.950 . S
C320 C318 1.387 . S
C320 C322 1.390 . S
C320 H324 0.950 . S
H321 C317 0.950 . S
C322 C320 1.390 . S
C322 C323 1.387 . S
C322 H325 0.950 . S
C323 C322 1.387 . S
C323 C326 1.387 . S
H324 C320 0.950 . S
H325 C322 0.950 . S
C326 C317 1.390 . S
C326 H319 0.950 . S
C326 C323 1.387 . S
C327 C328 1.387 . S
C327 H331 0.950 . S
C327 C336 1.390 . S
C328 C327 1.387 . S
C328 C330 1.387 . S
H329 C336 0.950 . S
C330 C328 1.387 . S
C330 C332 1.390 . S
C330 H334 0.950 . S
H331 C327 0.950 . S
C332 C330 1.390 . S
C332 C333 1.387 . S
C332 H335 0.950 . S
C333 C332 1.387 . S
C333 C336 1.387 . S
H334 C330 0.950 . S
H335 C332 0.950 . S
C336 C327 1.390 . S
C336 H329 0.950 . S
C336 C333 1.387 . S
C337 C338 1.387 . S
C337 H341 0.950 . S
C337 C346 1.390 . S
C338 C337 1.387 . S
C338 C340 1.387 . S
H339 C346 0.950 . S
C340 C338 1.387 . S
C340 C342 1.390 . S
C340 H344 0.950 . S
H341 C337 0.950 . S
C342 C340 1.390 . S
C342 C343 1.387 . S
C342 H345 0.950 . S
C343 C342 1.387 . S
C343 C346 1.387 . S
H344 C340 0.950 . S
H345 C342 0.950 . S
C346 C337 1.390 . S
C346 H339 0.950 . S
C346 C343 1.387 . S
C347 C348 1.387 . S
C347 H351 0.950 . S
C347 C356 1.390 . S
C348 C347 1.387 . S
C348 C350 1.387 . S
H349 C356 0.950 . S
C350 C348 1.387 . S
C350 C352 1.390 . S
C350 H354 0.950 . S
H351 C347 0.950 . S
C352 C350 1.390 . S
C352 C353 1.387 . S
C352 H355 0.950 . S
C353 C352 1.387 . S
C353 C356 1.387 . S
H354 C350 0.950 . S
H355 C352 0.950 . S
C356 C347 1.390 . S
C356 H349 0.950 . S
C356 C353 1.387 . S
C357 C358 1.387 . S
C357 H361 0.950 . S
C357 C366 1.390 . S
C358 C357 1.387 . S
C358 C360 1.387 . S
H359 C366 0.950 . S
C360 C358 1.387 . S
C360 C362 1.390 . S
C360 H364 0.950 . S
H361 C357 0.950 . S
C362 C360 1.390 . S
C362 C363 1.387 . S
C362 H365 0.950 . S
C363 C362 1.387 . S
C363 C366 1.387 . S
H364 C360 0.950 . S
H365 C362 0.950 . S
C366 C357 1.390 . S
C366 H359 0.950 . S
C366 C363 1.387 . S
C367 C368 1.387 . S
C367 H371 0.950 . S
C367 C376 1.390 . S
C368 C367 1.387 . S
C368 C370 1.387 . S
H369 C376 0.950 . S
C370 C368 1.387 . S
C370 C372 1.390 . S
C370 H374 0.950 . S
H371 C367 0.950 . S
C372 C370 1.390 . S
C372 C373 1.387 . S
C372 H375 0.950 . S
C373 C372 1.387 . S
C373 C376 1.387 . S
H374 C370 0.950 . S
H375 C372 0.950 . S
C376 C367 1.390 . S
C376 H369 0.950 . S
C376 C373 1.387 . S
C377 C378 1.387 . S
C377 H381 0.950 . S
C377 C386 1.390 . S
C378 C377 1.387 . S
C378 C380 1.387 . S
H379 C386 0.950 . S
C380 C378 1.387 . S
C380 C382 1.390 . S
C380 H384 0.950 . S
H381 C377 0.950 . S
C382 C380 1.390 . S
C382 C383 1.387 . S
C382 H385 0.950 . S
C383 C382 1.387 . S
C383 C386 1.387 . S
H384 C380 0.950 . S
H385 C382 0.950 . S
C386 C377 1.390 . S
C386 H379 0.950 . S
C386 C383 1.387 . S
C387 C388 1.387 . S
C387 H391 0.950 . S
C387 C396 1.390 . S
C388 C387 1.387 . S
C388 C390 1.387 . S
H389 C396 0.950 . S
C390 C388 1.387 . S
C390 C392 1.390 . S
C390 H394 0.950 . S
H391 C387 0.950 . S
C392 C390 1.390 . S
C392 C393 1.387 . S
C392 H395 0.950 . S
C393 C392 1.387 . S
C393 C396 1.387 . S
H394 C390 0.950 . S
H395 C392 0.950 . S
C396 C387 1.390 . S
C396 H389 0.950 . S
C396 C393 1.387 . S
C397 C398 1.387 . S
C397 H401 0.950 . S
C397 C406 1.390 . S
C398 C397 1.387 . S
C398 C400 1.387 . S
H399 C406 0.950 . S
C400 C398 1.387 . S
C400 C402 1.390 . S
C400 H404 0.950 . S
H401 C397 0.950 . S
C402 C400 1.390 . S
C402 C403 1.387 . S
C402 H405 0.950 . S
C403 C402 1.387 . S
C403 C406 1.387 . S
H404 C400 0.950 . S
H405 C402 0.950 . S
C406 C397 1.390 . S
C406 H399 0.950 . S
C406 C403 1.387 . S
C407 C408 1.387 . S
C407 H411 0.950 . S
C407 C416 1.390 . S
C408 C407 1.387 . S
C408 C410 1.387 . S
H409 C416 0.950 . S
C410 C408 1.387 . S
C410 C412 1.390 . S
C410 H414 0.950 . S
H411 C407 0.950 . S
C412 C410 1.390 . S
C412 C413 1.387 . S
C412 H415 0.950 . S
C413 C412 1.387 . S
C413 C416 1.387 . S
H414 C410 0.950 . S
H415 C412 0.950 . S
C416 C407 1.390 . S
C416 H409 0.950 . S
C416 C413 1.387 . S
C417 C418 1.387 . S
C417 H421 0.950 . S
C417 C426 1.390 . S
C418 C417 1.387 . S
C418 C420 1.387 . S
H419 C426 0.950 . S
C420 C418 1.387 . S
C420 C422 1.390 . S
C420 H424 0.950 . S
H421 C417 0.950 . S
C422 C420 1.390 . S
C422 C423 1.387 . S
C422 H425 0.950 . S
C423 C422 1.387 . S
C423 C426 1.387 . S
H424 C420 0.950 . S
H425 C422 0.950 . S
C426 C417 1.390 . S
C426 H419 0.950 . S
C426 C423 1.387 . S
C193 C112 1.540 . S
C188 C5 1.384 . S
C203 C148 1.828 . S
C198 C16 1.802 . S
C213 C113 1.214 . S
C208 C30 1.246 . S
C223 C143 1.263 . S
C218 C40 1.184 . S
C233 C110 1.241 . S
C228 C49 1.226 . S
C238 C63 1.483 . S
C243 C146 1.484 . S
C248 C74 0.854 . S
C253 C115 0.808 . S
C263 C145 1.744 . S
C258 C85 1.652 . S
C273 C149 1.495 . S
C268 C8 1.527 . S
C283 C114 1.809 . S
C278 C18 1.848 . S
C293 C142 1.643 . S
C288 C27 1.606 . S
C303 C111 0.861 . S
C298 C38 0.828 . S
C313 C144 1.779 . S
C308 C51 1.937 . S
C318 C60 1.512 . S
C323 C109 1.571 . S
C328 C71 1.251 . S
C333 C147 1.236 . S
C343 C116 1.514 . S
C338 C84 1.552 . S
C353 C178 2.002 . S
C348 C7 2.018 . S
C358 C52 1.989 . S
C363 C181 1.769 . S
C373 C180 1.877 . S
C368 C62 1.861 . S
C378 C73 1.920 . S
C383 C179 1.943 . S
C393 C182 1.673 . S
C388 C82 1.465 . S
C398 C29 1.836 . S
C403 C176 1.806 . S
C413 C175 1.496 . S
C408 C41 1.481 . S
C418 C19 1.965 . S
C423 C177 1.848 . S
