# Generated by pormake.
# Topology gar, (4,6)-cn, num edge types: 1
# Building blocks:
#     Node 0, Type 0, BuildingBlock: QUQFOY_clean_sbu_1, # of connection points: 4
#     Node 1, Type 0, BuildingBlock: QUQFOY_clean_sbu_1, # of connection points: 4
#     Node 2, Type 0, BuildingBlock: QUQFOY_clean_sbu_1, # of connection points: 4
#     Node 3, Type 0, BuildingBlock: QUQFOY_clean_sbu_1, # of connection points: 4
#     Node 4, Type 0, BuildingBlock: QUQFOY_clean_sbu_1, # of connection points: 4
#     Node 5, Type 0, BuildingBlock: QUQFOY_clean_sbu_1, # of connection points: 4
#     Node 6, Type 0, BuildingBlock: QUQFOY_clean_sbu_1, # of connection points: 4
#     Node 7, Type 0, BuildingBlock: QUQFOY_clean_sbu_1, # of connection points: 4
#     Node 8, Type 0, BuildingBlock: QUQFOY_clean_sbu_1, # of connection points: 4
#     Node 9, Type 0, BuildingBlock: QUQFOY_clean_sbu_1, # of connection points: 4
#     Node 10, Type 0, BuildingBlock: QUQFOY_clean_sbu_1, # of connection points: 4
#     Node 11, Type 0, BuildingBlock: QUQFOY_clean_sbu_1, # of connection points: 4
#     Node 12, Type 0, BuildingBlock: QUQFOY_clean_sbu_1, # of connection points: 4
#     Node 13, Type 0, BuildingBlock: QUQFOY_clean_sbu_1, # of connection points: 4
#     Node 14, Type 0, BuildingBlock: QUQFOY_clean_sbu_1, # of connection points: 4
#     Node 15, Type 0, BuildingBlock: QUQFOY_clean_sbu_1, # of connection points: 4
#     Node 16, Type 0, BuildingBlock: QUQFOY_clean_sbu_1, # of connection points: 4
#     Node 17, Type 0, BuildingBlock: QUQFOY_clean_sbu_1, # of connection points: 4
#     Node 18, Type 0, BuildingBlock: QUQFOY_clean_sbu_1, # of connection points: 4
#     Node 19, Type 0, BuildingBlock: QUQFOY_clean_sbu_1, # of connection points: 4
#     Node 20, Type 0, BuildingBlock: QUQFOY_clean_sbu_1, # of connection points: 4
#     Node 21, Type 0, BuildingBlock: QUQFOY_clean_sbu_1, # of connection points: 4
#     Node 22, Type 0, BuildingBlock: QUQFOY_clean_sbu_1, # of connection points: 4
#     Node 23, Type 0, BuildingBlock: QUQFOY_clean_sbu_1, # of connection points: 4
#     Node 24, Type 1, BuildingBlock: BETDIP_clean_sbu_0, # of connection points: 6
#     Node 25, Type 1, BuildingBlock: BETDIP_clean_sbu_0, # of connection points: 6
#     Node 26, Type 1, BuildingBlock: BETDIP_clean_sbu_0, # of connection points: 6
#     Node 27, Type 1, BuildingBlock: BETDIP_clean_sbu_0, # of connection points: 6
#     Node 28, Type 1, BuildingBlock: BETDIP_clean_sbu_0, # of connection points: 6
#     Node 29, Type 1, BuildingBlock: BETDIP_clean_sbu_0, # of connection points: 6
#     Node 30, Type 1, BuildingBlock: BETDIP_clean_sbu_0, # of connection points: 6
#     Node 31, Type 1, BuildingBlock: BETDIP_clean_sbu_0, # of connection points: 6
#     Node 32, Type 1, BuildingBlock: BETDIP_clean_sbu_0, # of connection points: 6
#     Node 33, Type 1, BuildingBlock: BETDIP_clean_sbu_0, # of connection points: 6
#     Node 34, Type 1, BuildingBlock: BETDIP_clean_sbu_0, # of connection points: 6
#     Node 35, Type 1, BuildingBlock: BETDIP_clean_sbu_0, # of connection points: 6
#     Node 36, Type 1, BuildingBlock: BETDIP_clean_sbu_0, # of connection points: 6
#     Node 37, Type 1, BuildingBlock: BETDIP_clean_sbu_0, # of connection points: 6
#     Node 38, Type 1, BuildingBlock: BETDIP_clean_sbu_0, # of connection points: 6
#     Node 39, Type 1, BuildingBlock: BETDIP_clean_sbu_0, # of connection points: 6
#     Edge 40, Type (0, 1), BuildingBlock: MIFKUJ_clean_linker_0, # of connection points: 2
#     Edge 41, Type (0, 1), BuildingBlock: MIFKUJ_clean_linker_0, # of connection points: 2
#     Edge 42, Type (0, 1), BuildingBlock: MIFKUJ_clean_linker_0, # of connection points: 2
#     Edge 43, Type (0, 1), BuildingBlock: MIFKUJ_clean_linker_0, # of connection points: 2
#     Edge 44, Type (0, 1), BuildingBlock: MIFKUJ_clean_linker_0, # of connection points: 2
#     Edge 45, Type (0, 1), BuildingBlock: MIFKUJ_clean_linker_0, # of connection points: 2
#     Edge 46, Type (0, 1), BuildingBlock: MIFKUJ_clean_linker_0, # of connection points: 2
#     Edge 47, Type (0, 1), BuildingBlock: MIFKUJ_clean_linker_0, # of connection points: 2
#     Edge 48, Type (0, 1), BuildingBlock: MIFKUJ_clean_linker_0, # of connection points: 2
#     Edge 49, Type (0, 1), BuildingBlock: MIFKUJ_clean_linker_0, # of connection points: 2
#     Edge 50, Type (0, 1), BuildingBlock: MIFKUJ_clean_linker_0, # of connection points: 2
#     Edge 51, Type (0, 1), BuildingBlock: MIFKUJ_clean_linker_0, # of connection points: 2
#     Edge 52, Type (0, 1), BuildingBlock: MIFKUJ_clean_linker_0, # of connection points: 2
#     Edge 53, Type (0, 1), BuildingBlock: MIFKUJ_clean_linker_0, # of connection points: 2
#     Edge 54, Type (0, 1), BuildingBlock: MIFKUJ_clean_linker_0, # of connection points: 2
#     Edge 55, Type (0, 1), BuildingBlock: MIFKUJ_clean_linker_0, # of connection points: 2
#     Edge 56, Type (0, 1), BuildingBlock: MIFKUJ_clean_linker_0, # of connection points: 2
#     Edge 57, Type (0, 1), BuildingBlock: MIFKUJ_clean_linker_0, # of connection points: 2
#     Edge 58, Type (0, 1), BuildingBlock: MIFKUJ_clean_linker_0, # of connection points: 2
#     Edge 59, Type (0, 1), BuildingBlock: MIFKUJ_clean_linker_0, # of connection points: 2
#     Edge 60, Type (0, 1), BuildingBlock: MIFKUJ_clean_linker_0, # of connection points: 2
#     Edge 61, Type (0, 1), BuildingBlock: MIFKUJ_clean_linker_0, # of connection points: 2
#     Edge 62, Type (0, 1), BuildingBlock: MIFKUJ_clean_linker_0, # of connection points: 2
#     Edge 63, Type (0, 1), BuildingBlock: MIFKUJ_clean_linker_0, # of connection points: 2
#     Edge 64, Type (0, 1), BuildingBlock: MIFKUJ_clean_linker_0, # of connection points: 2
#     Edge 65, Type (0, 1), BuildingBlock: MIFKUJ_clean_linker_0, # of connection points: 2
#     Edge 66, Type (0, 1), BuildingBlock: MIFKUJ_clean_linker_0, # of connection points: 2
#     Edge 67, Type (0, 1), BuildingBlock: MIFKUJ_clean_linker_0, # of connection points: 2
#     Edge 68, Type (0, 1), BuildingBlock: MIFKUJ_clean_linker_0, # of connection points: 2
#     Edge 69, Type (0, 1), BuildingBlock: MIFKUJ_clean_linker_0, # of connection points: 2
#     Edge 70, Type (0, 1), BuildingBlock: MIFKUJ_clean_linker_0, # of connection points: 2
#     Edge 71, Type (0, 1), BuildingBlock: MIFKUJ_clean_linker_0, # of connection points: 2
#     Edge 72, Type (0, 1), BuildingBlock: MIFKUJ_clean_linker_0, # of connection points: 2
#     Edge 73, Type (0, 1), BuildingBlock: MIFKUJ_clean_linker_0, # of connection points: 2
#     Edge 74, Type (0, 1), BuildingBlock: MIFKUJ_clean_linker_0, # of connection points: 2
#     Edge 75, Type (0, 1), BuildingBlock: MIFKUJ_clean_linker_0, # of connection points: 2
#     Edge 76, Type (0, 1), BuildingBlock: MIFKUJ_clean_linker_0, # of connection points: 2
#     Edge 77, Type (0, 1), BuildingBlock: MIFKUJ_clean_linker_0, # of connection points: 2
#     Edge 78, Type (0, 1), BuildingBlock: MIFKUJ_clean_linker_0, # of connection points: 2
#     Edge 79, Type (0, 1), BuildingBlock: MIFKUJ_clean_linker_0, # of connection points: 2
#     Edge 80, Type (0, 1), BuildingBlock: MIFKUJ_clean_linker_0, # of connection points: 2
#     Edge 81, Type (0, 1), BuildingBlock: MIFKUJ_clean_linker_0, # of connection points: 2
#     Edge 82, Type (0, 1), BuildingBlock: MIFKUJ_clean_linker_0, # of connection points: 2
#     Edge 83, Type (0, 1), BuildingBlock: MIFKUJ_clean_linker_0, # of connection points: 2
#     Edge 84, Type (0, 1), BuildingBlock: MIFKUJ_clean_linker_0, # of connection points: 2
#     Edge 85, Type (0, 1), BuildingBlock: MIFKUJ_clean_linker_0, # of connection points: 2
#     Edge 86, Type (0, 1), BuildingBlock: MIFKUJ_clean_linker_0, # of connection points: 2
#     Edge 87, Type (0, 1), BuildingBlock: MIFKUJ_clean_linker_0, # of connection points: 2
#     Edge 88, Type (0, 1), BuildingBlock: MIFKUJ_clean_linker_0, # of connection points: 2
#     Edge 89, Type (0, 1), BuildingBlock: MIFKUJ_clean_linker_0, # of connection points: 2
#     Edge 90, Type (0, 1), BuildingBlock: MIFKUJ_clean_linker_0, # of connection points: 2
#     Edge 91, Type (0, 1), BuildingBlock: MIFKUJ_clean_linker_0, # of connection points: 2
#     Edge 92, Type (0, 1), BuildingBlock: MIFKUJ_clean_linker_0, # of connection points: 2
#     Edge 93, Type (0, 1), BuildingBlock: MIFKUJ_clean_linker_0, # of connection points: 2
#     Edge 94, Type (0, 1), BuildingBlock: MIFKUJ_clean_linker_0, # of connection points: 2
#     Edge 95, Type (0, 1), BuildingBlock: MIFKUJ_clean_linker_0, # of connection points: 2
#     Edge 96, Type (0, 1), BuildingBlock: MIFKUJ_clean_linker_0, # of connection points: 2
#     Edge 97, Type (0, 1), BuildingBlock: MIFKUJ_clean_linker_0, # of connection points: 2
#     Edge 98, Type (0, 1), BuildingBlock: MIFKUJ_clean_linker_0, # of connection points: 2
#     Edge 99, Type (0, 1), BuildingBlock: MIFKUJ_clean_linker_0, # of connection points: 2
#     Edge 100, Type (0, 1), BuildingBlock: MIFKUJ_clean_linker_0, # of connection points: 2
#     Edge 101, Type (0, 1), BuildingBlock: MIFKUJ_clean_linker_0, # of connection points: 2
#     Edge 102, Type (0, 1), BuildingBlock: MIFKUJ_clean_linker_0, # of connection points: 2
#     Edge 103, Type (0, 1), BuildingBlock: MIFKUJ_clean_linker_0, # of connection points: 2
#     Edge 104, Type (0, 1), BuildingBlock: MIFKUJ_clean_linker_0, # of connection points: 2
#     Edge 105, Type (0, 1), BuildingBlock: MIFKUJ_clean_linker_0, # of connection points: 2
#     Edge 106, Type (0, 1), BuildingBlock: MIFKUJ_clean_linker_0, # of connection points: 2
#     Edge 107, Type (0, 1), BuildingBlock: MIFKUJ_clean_linker_0, # of connection points: 2
#     Edge 108, Type (0, 1), BuildingBlock: MIFKUJ_clean_linker_0, # of connection points: 2
#     Edge 109, Type (0, 1), BuildingBlock: MIFKUJ_clean_linker_0, # of connection points: 2
#     Edge 110, Type (0, 1), BuildingBlock: MIFKUJ_clean_linker_0, # of connection points: 2
#     Edge 111, Type (0, 1), BuildingBlock: MIFKUJ_clean_linker_0, # of connection points: 2
#     Edge 112, Type (0, 1), BuildingBlock: MIFKUJ_clean_linker_0, # of connection points: 2
#     Edge 113, Type (0, 1), BuildingBlock: MIFKUJ_clean_linker_0, # of connection points: 2
#     Edge 114, Type (0, 1), BuildingBlock: MIFKUJ_clean_linker_0, # of connection points: 2
#     Edge 115, Type (0, 1), BuildingBlock: MIFKUJ_clean_linker_0, # of connection points: 2
#     Edge 116, Type (0, 1), BuildingBlock: MIFKUJ_clean_linker_0, # of connection points: 2
#     Edge 117, Type (0, 1), BuildingBlock: MIFKUJ_clean_linker_0, # of connection points: 2
#     Edge 118, Type (0, 1), BuildingBlock: MIFKUJ_clean_linker_0, # of connection points: 2
#     Edge 119, Type (0, 1), BuildingBlock: MIFKUJ_clean_linker_0, # of connection points: 2
#     Edge 120, Type (0, 1), BuildingBlock: MIFKUJ_clean_linker_0, # of connection points: 2
#     Edge 121, Type (0, 1), BuildingBlock: MIFKUJ_clean_linker_0, # of connection points: 2
#     Edge 122, Type (0, 1), BuildingBlock: MIFKUJ_clean_linker_0, # of connection points: 2
#     Edge 123, Type (0, 1), BuildingBlock: MIFKUJ_clean_linker_0, # of connection points: 2
#     Edge 124, Type (0, 1), BuildingBlock: MIFKUJ_clean_linker_0, # of connection points: 2
#     Edge 125, Type (0, 1), BuildingBlock: MIFKUJ_clean_linker_0, # of connection points: 2
#     Edge 126, Type (0, 1), BuildingBlock: MIFKUJ_clean_linker_0, # of connection points: 2
#     Edge 127, Type (0, 1), BuildingBlock: MIFKUJ_clean_linker_0, # of connection points: 2
#     Edge 128, Type (0, 1), BuildingBlock: MIFKUJ_clean_linker_0, # of connection points: 2
#     Edge 129, Type (0, 1), BuildingBlock: MIFKUJ_clean_linker_0, # of connection points: 2
#     Edge 130, Type (0, 1), BuildingBlock: MIFKUJ_clean_linker_0, # of connection points: 2
#     Edge 131, Type (0, 1), BuildingBlock: MIFKUJ_clean_linker_0, # of connection points: 2
#     Edge 132, Type (0, 1), BuildingBlock: MIFKUJ_clean_linker_0, # of connection points: 2
#     Edge 133, Type (0, 1), BuildingBlock: MIFKUJ_clean_linker_0, # of connection points: 2
#     Edge 134, Type (0, 1), BuildingBlock: MIFKUJ_clean_linker_0, # of connection points: 2
#     Edge 135, Type (0, 1), BuildingBlock: MIFKUJ_clean_linker_0, # of connection points: 2
# Relax obj value: 0.166
# Max RMSD: 0.280
# Mean RMSD: 0.170
data_MOF--net-gar--node1-QUQFOY_clean_sbu_1--node2-BETDIP_clean_sbu_0--edge1-MIFKUJ_clean_linker_0
_symmetry_space_group_name_H-M    P1
_symmetry_Int_Tables_number       1
_symmetry_cell_setting            triclinic
loop_
_symmetry_equiv_pos_as_xyz
'x, y, z'
_cell_length_a     81.568712
_cell_length_b     74.551955
_cell_length_c     71.915553
_cell_angle_alpha  97.335104
_cell_angle_beta   98.045421
_cell_angle_gamma 102.75777
loop_
_atom_site_label
_atom_site_type_symbol
_atom_site_fract_x
_atom_site_fract_y
_atom_site_fract_z
_atom_type_partial_charge
O0 O 0.03842 0.26401 0.39234 0.0
Cd1 Cd 0.03326 0.28624 0.38023 0.0
Cd2 Cd 0.02762 0.29755 0.41492 0.0
O3 O 0.04083 0.27805 0.42179 0.0
O4 O 0.04381 0.28611 0.35698 0.0
O5 O 0.05321 0.30817 0.38239 0.0
C6 C 0.05493 0.301 0.36564 0.0
C7 C 0.03362 0.32655 0.43431 0.0
C8 C 0.04251 0.26453 0.41015 0.0
C9 C 0.99745 0.28592 0.38334 0.0
O10 O 1.00261 0.28831 0.40119 0.0
O11 O 1.0081 0.28651 0.37198 0.0
O12 O 0.0262 0.31157 0.43989 0.0
O13 O 0.03826 0.32504 0.41784 0.0
O14 O 0.04629 0.72408 0.70266 0.0
Cd15 Cd 0.05226 0.74432 0.72644 0.0
Cd16 Cd 0.06044 0.76832 0.70229 0.0
O17 O 0.05218 0.74388 0.68278 0.0
O18 O 0.03757 0.73772 0.74559 0.0
O19 O 0.0369 0.76141 0.72987 0.0
C20 C 0.03119 0.75163 0.74225 0.0
C21 C 0.05473 0.79508 0.69171 0.0
C22 C 0.04728 0.72727 0.68586 0.0
C23 C 0.08832 0.76481 0.73349 0.0
O24 O 0.0838 0.77273 0.71968 0.0
O25 O 0.07748 0.75253 0.739 0.0
O26 O 0.06612 0.78744 0.68578 0.0
O27 O 0.04623 0.7874 0.70366 0.0
O28 O 0.56764 0.80924 0.90264 0.0
Cd29 Cd 0.54843 0.80551 0.91876 0.0
Cd30 Cd 0.53524 0.82414 0.89357 0.0
O31 O 0.55536 0.82177 0.88007 0.0
O32 O 0.55403 0.7871 0.93472 0.0
O33 O 0.53024 0.78147 0.91365 0.0
C34 C 0.53976 0.77585 0.92644 0.0
C35 C 0.50735 0.81177 0.87815 0.0
C36 C 0.56777 0.81561 0.88706 0.0
C37 C 0.54274 0.84256 0.93394 0.0
O38 O 0.53909 0.84473 0.91675 0.0
O39 O 0.54608 0.82749 0.93785 0.0
O40 O 0.51622 0.8273 0.87487 0.0
O41 O 0.51459 0.80297 0.88993 0.0
O42 O 0.53343 0.22043 0.1977 0.0
Cd43 Cd 0.54271 0.24253 0.21971 0.0
Cd44 Cd 0.54754 0.26291 0.19203 0.0
O45 O 0.53348 0.23828 0.17553 0.0
O46 O 0.53079 0.23836 0.24167 0.0
O47 O 0.52841 0.26051 0.22428 0.0
C48 C 0.52418 0.25207 0.23817 0.0
C49 C 0.54212 0.28989 0.18169 0.0
C50 C 0.52996 0.22227 0.18037 0.0
C51 C 0.57871 0.25902 0.21805 0.0
O52 O 0.57271 0.26428 0.20296 0.0
O53 O 0.56875 0.25084 0.22811 0.0
O54 O 0.54987 0.2794 0.17247 0.0
O55 O 0.53744 0.28519 0.19715 0.0
O56 O 0.05603 0.75799 0.14842 0.0
Cd57 Cd 0.06011 0.78177 0.16858 0.0
Cd58 Cd 0.07635 0.79792 0.14009 0.0
O59 O 0.06731 0.77034 0.12533 0.0
O60 O 0.0451 0.77397 0.18774 0.0
O61 O 0.04083 0.79507 0.17006 0.0
C62 C 0.03595 0.78515 0.18267 0.0
C63 C 0.07039 0.8245 0.12747 0.0
C64 C 0.05996 0.75609 0.13187 0.0
C65 C 0.09894 0.7973 0.17751 0.0
O66 O 0.09816 0.80127 0.1607 0.0
O67 O 0.08525 0.79073 0.18367 0.0
O68 O 0.08092 0.81569 0.12102 0.0
O69 O 0.06297 0.81813 0.14087 0.0
O70 O 0.54723 0.75623 0.42531 0.0
Cd71 Cd 0.53117 0.75521 0.4458 0.0
Cd72 Cd 0.51247 0.77009 0.41276 0.0
O73 O 0.53278 0.76389 0.40023 0.0
O74 O 0.54233 0.74231 0.46554 0.0
O75 O 0.5168 0.72968 0.44877 0.0
C76 C 0.52926 0.72827 0.4613 0.0
C77 C 0.48418 0.76601 0.39561 0.0
C78 C 0.54601 0.75945 0.4082 0.0
C79 C 0.52479 0.79455 0.45251 0.0
O80 O 0.5193 0.79258 0.43472 0.0
O81 O 0.52877 0.78107 0.46 0.0
O82 O 0.49692 0.77848 0.39285 0.0
O83 O 0.48755 0.75503 0.40735 0.0
O84 O 0.55496 0.25599 0.65011 0.0
Cd85 Cd 0.56012 0.27871 0.67171 0.0
Cd86 Cd 0.57779 0.29614 0.64455 0.0
O87 O 0.5695 0.26868 0.6293 0.0
O88 O 0.54465 0.27032 0.69021 0.0
O89 O 0.54218 0.29363 0.67498 0.0
C90 C 0.53659 0.28288 0.68663 0.0
C91 C 0.5728 0.3224 0.63062 0.0
C92 C 0.5604 0.25446 0.63437 0.0
C93 C 0.59901 0.2936 0.68214 0.0
O94 O 0.59872 0.2999 0.66643 0.0
O95 O 0.58516 0.28524 0.68688 0.0
O96 O 0.58442 0.31413 0.62632 0.0
O97 O 0.56378 0.31568 0.64269 0.0
O98 O 0.01311 0.22164 0.92935 0.0
Cd99 Cd 0.0128 0.24256 0.91221 0.0
Cd100 Cd 1.00151 0.25853 0.9461 0.0
O101 O 1.00665 0.23462 0.95595 0.0
O102 O 0.02488 0.23533 0.89067 0.0
O103 O 0.03584 0.26035 0.91234 0.0
C104 C 0.03745 0.24955 0.89751 0.0
C105 C 0.01122 0.28912 0.96383 0.0
C106 C 0.01074 0.22107 0.94648 0.0
C107 C 0.97735 0.25173 0.9082 0.0
O108 O 0.97955 0.25515 0.9263 0.0
O109 O 0.98922 0.24758 0.89987 0.0
O110 O 0.99921 0.27684 0.96826 0.0
O111 O 0.01848 0.28374 0.94997 0.0
O112 O 0.41319 0.05087 0.25366 0.0
Cd113 Cd 0.39388 0.05222 0.27201 0.0
Cd114 Cd 0.42611 0.03467 0.29587 0.0
O115 O 0.43474 0.04174 0.26979 0.0
O116 O 0.37541 0.0662 0.26086 0.0
O117 O 0.39297 0.07851 0.28715 0.0
C118 C 0.38056 0.08016 0.27467 0.0
C119 C 0.44382 0.03628 0.32741 0.0
C120 C 0.42787 0.04669 0.25454 0.0
C121 C 0.38753 0.011 0.28409 0.0
O122 O 0.40349 0.01338 0.29029 0.0
O123 O 0.38158 0.0244 0.27811 0.0
O124 O 0.44407 0.02457 0.31265 0.0
O125 O 0.43443 0.04784 0.3243 0.0
O126 O 0.27973 0.15866 0.55734 0.0
Cd127 Cd 0.27511 0.1369 0.5346 0.0
Cd128 Cd 0.25994 0.1648 0.51644 0.0
O129 O 0.26906 0.17979 0.544 0.0
O130 O 0.28825 0.11906 0.54485 0.0
O131 O 0.29466 0.1329 0.52072 0.0
C132 C 0.29815 0.12202 0.53251 0.0
C133 C 0.26408 0.17976 0.48927 0.0
C134 C 0.27623 0.17456 0.5586 0.0
C135 C 0.23631 0.12742 0.51986 0.0
O136 O 0.23808 0.14345 0.51477 0.0
O137 O 0.24934 0.12201 0.52685 0.0
O138 O 0.25358 0.18347 0.50018 0.0
O139 O 0.27238 0.16758 0.4937 0.0
O140 O 0.13821 0.02369 0.77943 0.0
Cd141 Cd 0.15637 0.02821 0.80384 0.0
Cd142 Cd 0.13144 0.0443 0.81842 0.0
O143 O 0.11775 0.03415 0.79098 0.0
O144 O 0.17372 0.01554 0.79487 0.0
O145 O 0.15989 1.00681 0.81767 0.0
C146 C 0.171 1.00447 0.80704 0.0
C147 C 0.11931 0.03811 0.84551 0.0
C148 C 0.12341 0.02684 0.77698 0.0
C149 C 0.16586 0.06981 0.81879 0.0
O150 O 0.15057 0.06853 0.82144 0.0
O151 O 0.17069 0.05532 0.81294 0.0
O152 O 0.11503 0.04996 0.83536 0.0
O153 O 0.13028 0.02936 0.84003 0.0
O154 O 0.23452 0.83711 0.04499 0.0
Cd155 Cd 0.2336 0.85933 0.03116 0.0
Cd156 Cd 0.24151 0.83963 1.00257 0.0
O157 O 0.24109 0.8206 0.02083 0.0
O158 O 0.2199 0.87376 0.04437 0.0
O159 O 0.21266 0.8609 0.01389 0.0
C160 C 0.20952 0.87089 0.02842 0.0
C161 C 0.23034 0.82671 0.97098 0.0
C162 C 0.23826 0.82242 0.03777 0.0
C163 C 0.26679 0.87553 0.02024 0.0
O164 O 0.26314 0.86121 0.00738 0.0
O165 O 0.25647 0.87779 0.03149 0.0
O166 O 0.24418 0.82385 0.97961 0.0
O167 O 0.22262 0.83734 0.98015 0.0
O168 O 0.30624 0.39715 0.10034 0.0
Cd169 Cd 0.30727 0.41508 0.07999 0.0
Cd170 Cd 0.31584 0.38321 0.05938 0.0
O171 O 0.30918 0.37161 0.08311 0.0
O172 O 0.29503 0.43478 0.08834 0.0
O173 O 0.28513 0.41408 0.06222 0.0
C174 C 0.28317 0.42797 0.07369 0.0
C175 C 0.30818 0.36568 0.02827 0.0
C176 C 0.30662 0.37999 0.09867 0.0
C177 C 0.34247 0.42074 0.06848 0.0
O178 O 0.33869 0.40321 0.06287 0.0
O179 O 0.33148 0.42857 0.07485 0.0
O180 O 0.31973 0.36264 0.04081 0.0
O181 O 0.30019 0.37805 0.03365 0.0
O182 O 0.85066 0.16455 0.10739 0.0
Cd183 Cd 0.84131 0.14894 0.08063 0.0
Cd184 Cd 0.83477 0.17986 0.07339 0.0
O185 O 0.85094 0.19183 0.09855 0.0
O186 O 0.85525 0.14895 0.05989 0.0
O187 O 0.85078 0.12664 0.07758 0.0
C188 C 0.85714 0.13294 0.06356 0.0
C189 C 0.83593 0.1909 0.04496 0.0
C190 C 0.85421 0.18225 0.11135 0.0
C191 C 0.80481 0.149 0.07344 0.0
O192 O 0.81014 0.16653 0.07492 0.0
O193 O 0.81535 0.13879 0.07391 0.0
O194 O 0.84121 0.17617 0.04764 0.0
O195 O 0.8316 0.20014 0.05911 0.0
O196 O 0.15659 0.49973 0.27248 0.0
Cd197 Cd 0.17808 0.50104 0.29436 0.0
Cd198 Cd 0.14918 0.52124 0.31597 0.0
O199 O 0.13702 0.51084 0.28646 0.0
O200 O 0.19505 0.48544 0.28437 0.0
O201 O 0.18086 0.47688 0.30636 0.0
C202 C 0.19157 0.47338 0.29556 0.0
C203 C 0.13418 0.52186 0.34435 0.0
C204 C 0.1421 0.50421 0.27135 0.0
C205 C 0.18593 0.54499 0.31115 0.0
O206 O 0.17122 0.54302 0.31631 0.0
O207 O 0.19096 0.53061 0.30417 0.0
O208 O 0.13227 0.53211 0.33139 0.0
O209 O 0.14413 0.5109 0.34129 0.0
O210 O 0.80487 0.89279 0.59713 0.0
Cd211 Cd 0.80625 0.91114 0.57739 0.0
Cd212 Cd 0.81368 0.88014 0.55526 0.0
O213 O 0.80788 0.8679 0.57893 0.0
O214 O 0.79358 0.93031 0.58575 0.0
O215 O 0.78477 0.91051 0.55882 0.0
C216 C 0.78229 0.92392 0.57052 0.0
C217 C 0.80405 0.86272 0.5243 0.0
C218 C 0.80537 0.87568 0.59479 0.0
C219 C 0.84099 0.91718 0.5651 0.0
O220 O 0.83663 0.89995 0.55787 0.0
O221 O 0.83062 0.9247 0.57317 0.0
O222 O 0.8159 0.85916 0.53604 0.0
O223 O 0.7971 0.87583 0.53032 0.0
O224 O 0.93507 0.01089 0.2352 0.0
Cd225 Cd 0.91995 0.00992 0.25601 0.0
Cd226 Cd 0.94654 0.99811 0.27532 0.0
O227 O 0.95751 1.00449 0.25152 0.0
O228 O 0.90293 0.02449 0.24889 0.0
O229 O 0.92207 0.03291 0.27535 0.0
C230 C 0.90943 0.03612 0.2644 0.0
C231 C 0.96247 1.00809 0.30627 0.0
C232 C 0.9502 1.00874 0.23641 0.0
C233 C 0.91116 0.97148 0.26598 0.0
O234 O 0.92693 0.97415 0.27283 0.0
O235 O 0.90565 0.98419 0.2588 0.0
O236 O 0.96494 0.99445 0.29496 0.0
O237 O 0.95135 0.01671 0.29974 0.0
O238 O 0.3599 0.65446 0.61747 0.0
Cd239 Cd 0.34744 0.63563 0.59349 0.0
Cd240 Cd 0.33683 0.66424 0.58055 0.0
O241 O 0.35416 0.67803 0.60437 0.0
O242 O 0.36069 0.61781 0.58473 0.0
O243 O 0.35462 0.6398 0.56877 0.0
C244 C 0.3616 0.62595 0.56992 0.0
C245 C 0.33403 0.68096 0.55549 0.0
C246 C 0.36147 0.67186 0.61809 0.0
C247 C 0.31039 0.63118 0.588 0.0
O248 O 0.31395 0.64734 0.58346 0.0
O249 O 0.32218 0.62308 0.59246 0.0
O250 O 0.32901 0.6854 0.57122 0.0
O251 O 0.34109 0.6671 0.554 0.0
O252 O 0.4348 0.50479 0.73215 0.0
Cd253 Cd 0.4201 0.5048 0.75341 0.0
Cd254 Cd 0.44715 0.49384 0.77257 0.0
O255 O 0.45824 0.50135 0.74925 0.0
O256 O 0.40224 0.51769 0.74434 0.0
O257 O 0.42148 0.52913 0.77037 0.0
C258 C 0.40858 0.53084 0.75867 0.0
C259 C 0.46132 0.50525 0.80401 0.0
C260 C 0.45039 0.5042 0.73371 0.0
C261 C 0.41271 0.46651 0.76461 0.0
O262 O 0.42875 0.46883 0.76943 0.0
O263 O 0.40671 0.47959 0.75886 0.0
O264 O 0.46596 0.49276 0.79324 0.0
O265 O 0.44901 0.51192 0.79668 0.0
O266 O 0.6548 0.99802 0.77414 0.0
Cd267 Cd 0.67688 0.99907 0.79525 0.0
Cd268 Cd 0.64886 0.02124 0.81859 0.0
O269 O 0.63685 0.01155 0.78882 0.0
O270 O 0.69389 0.98375 0.78456 0.0
O271 O 0.68018 0.97463 0.80667 0.0
C272 C 0.6908 0.97148 0.79561 0.0
C273 C 0.63329 0.02214 0.84669 0.0
C274 C 0.64095 1.00386 0.7735 0.0
C275 C 0.68595 0.0434 0.81299 0.0
O276 O 0.67183 0.04215 0.81942 0.0
O277 O 0.68981 0.02872 0.80478 0.0
O278 O 0.6326 0.03318 0.83429 0.0
O279 O 0.64236 0.01029 0.84325 0.0
O280 O 0.78129 0.65832 0.05394 0.0
Cd281 Cd 0.7763 0.63727 0.03055 0.0
Cd282 Cd 0.76276 0.66652 0.01363 0.0
O283 O 0.77298 0.68108 0.04123 0.0
O284 O 0.78901 0.61862 0.03968 0.0
O285 O 0.79564 0.63349 0.01625 0.0
C286 C 0.79891 0.62197 0.02741 0.0
C287 C 0.7669 0.68147 0.98652 0.0
C288 C 0.77919 0.67485 0.05567 0.0
C289 C 0.73776 0.62964 0.01628 0.0
O290 O 0.74025 0.64599 0.01192 0.0
O291 O 0.75037 0.62325 0.02266 0.0
O292 O 0.75686 0.68567 0.9978 0.0
O293 O 0.7748 0.66887 0.99062 0.0
O294 O 0.91352 0.54844 0.75011 0.0
Cd295 Cd 0.89354 0.54941 0.76748 0.0
Cd296 Cd 0.92577 0.53288 0.79335 0.0
O297 O 0.93438 0.53869 0.76675 0.0
O298 O 0.87571 0.56368 0.75546 0.0
O299 O 0.89164 0.57516 0.78295 0.0
C300 C 0.87999 0.57719 0.76975 0.0
C301 C 0.94383 0.53499 0.82469 0.0
C302 C 0.92802 0.54387 0.75137 0.0
C303 C 0.88701 0.50914 0.78185 0.0
O304 O 0.90271 0.51233 0.78957 0.0
O305 O 0.88133 0.52148 0.77336 0.0
O306 O 0.94321 0.52244 0.81031 0.0
O307 O 0.93518 0.54715 0.82123 0.0
O308 O 0.76403 0.36544 0.55586 0.0
Cd309 Cd 0.75136 0.38368 0.5449 0.0
Cd310 Cd 0.76065 0.36968 0.5123 0.0
O311 O 0.77184 0.35402 0.52959 0.0
O312 O 0.72581 0.37723 0.53685 0.0
O313 O 0.73942 0.39167 0.56546 0.0
C314 C 0.72524 0.38512 0.55375 0.0
C315 C 0.74699 0.35452 0.48201 0.0
C316 C 0.77176 0.35477 0.54732 0.0
C317 C 0.77436 0.41078 0.52722 0.0
O318 O 0.77335 0.39717 0.51421 0.0
O319 O 0.76634 0.40844 0.54095 0.0
O320 O 0.76335 0.35967 0.48638 0.0
O321 O 0.73804 0.3578 0.49492 0.0
O322 O 0.63321 0.52313 0.27628 0.0
Cd323 Cd 0.65451 0.52816 0.29712 0.0
Cd324 Cd 0.63578 0.54802 0.31682 0.0
O325 O 0.61965 0.5421 0.29032 0.0
O326 O 0.66795 0.51094 0.28689 0.0
O327 O 0.6583 0.50903 0.31391 0.0
C328 C 0.6665 0.5027 0.30147 0.0
C329 C 0.62519 0.54065 0.34444 0.0
C330 C 0.62089 0.53104 0.27581 0.0
C331 C 0.66999 0.56933 0.31121 0.0
O332 O 0.65754 0.56953 0.32001 0.0
O333 O 0.67084 0.55448 0.30089 0.0
O334 O 0.62285 0.55507 0.33724 0.0
O335 O 0.63334 0.53011 0.33574 0.0
Tb336 Tb 0.01646 0.0138 0.03448 0.0
Tb337 Tb 0.05405 0.03483 0.05147 0.0
C338 C 0.98472 1.00242 0.02925 0.0
C339 C 0.97116 1.00409 0.01445 0.0
C340 C 0.95426 0.99975 0.01736 0.0
C341 C 0.94176 1.00531 1.00575 0.0
C342 C 0.94604 0.01547 0.99114 0.0
C343 C 0.96274 0.01821 0.9872 0.0
C344 C 0.97525 0.01265 0.99885 0.0
C345 C 0.03642 0.01277 0.00806 0.0
C346 C 0.03069 0.05611 0.02866 0.0
C347 C 0.08596 0.04438 0.05918 0.0
C348 C 0.09896 0.03403 0.05544 0.0
C349 C 0.10588 0.03476 0.03861 0.0
C350 C 0.11606 0.02278 0.03356 0.0
C351 C 0.11969 0.01004 0.04536 0.0
C352 C 0.11362 0.01009 0.06271 0.0
C353 C 0.1034 0.02199 0.06773 0.0
C354 C 0.03099 0.03915 0.07323 0.0
C355 C 0.04076 0.99155 0.0545 0.0
O356 O 0.99312 0.01836 0.03981 0.0
O357 O 0.99479 0.99195 0.02394 0.0
O358 O 0.0402 0.01978 0.02535 0.0
O359 O 0.02017 1.00537 1.00498 0.0
O360 O 0.01719 0.04262 0.02951 0.0
O361 O 0.04652 0.0551 0.03478 0.0
O362 O 0.07709 0.04804 0.04411 0.0
O363 O 0.07634 0.03867 0.07147 0.0
O364 O 0.0312 0.0247 0.06222 0.0
O365 O 0.04492 0.05161 0.07327 0.0
O366 O 0.05395 1.0054 0.05352 0.0
O367 O 0.02477 0.99273 0.04959 0.0
H368 H 0.95095 0.99326 0.02942 0.0
H369 H 0.92914 1.00311 0.00945 0.0
H370 H 0.96642 0.02576 0.97593 0.0
H371 H 0.98832 0.01612 0.99646 0.0
H372 H 0.10288 0.04407 0.02896 0.0
H373 H 0.12077 0.02319 0.02022 0.0
H374 H 0.11606 1.00028 0.07201 0.0
H375 H 0.0984 0.02116 0.08086 0.0
Tb376 Tb 0.28994 0.77173 0.27761 0.0
Tb377 Tb 0.2835 0.78342 0.31414 0.0
C378 C 0.28941 0.75693 0.24407 0.0
C379 C 0.29767 0.76106 0.2277 0.0
C380 C 0.29737 0.77745 0.22016 0.0
C381 C 0.30302 0.77974 0.203 0.0
C382 C 0.30915 0.76573 0.19313 0.0
C383 C 0.31065 0.75002 0.20152 0.0
C384 C 0.30487 0.74768 0.21863 0.0
C385 C 0.31717 0.77721 0.30427 0.0
C386 C 0.30097 0.81514 0.29087 0.0
C387 C 0.28571 0.7964 0.34865 0.0
C388 C 0.2854 0.78761 0.36571 0.0
C389 C 0.27718 0.76872 0.36429 0.0
C390 C 0.27845 0.75985 0.38016 0.0
C391 C 0.288 0.76972 0.3977 0.0
C392 C 0.29573 0.7888 0.39922 0.0
C393 C 0.29447 0.79767 0.38329 0.0
C394 C 0.25639 0.77884 0.28727 0.0
C395 C 0.27199 0.74051 0.30051 0.0
O396 O 0.2788 0.76686 0.24881 0.0
O397 O 0.29917 0.75406 0.25882 0.0
O398 O 0.30202 0.7692 0.30557 0.0
O399 O 0.31719 0.78222 0.28772 0.0
O400 O 0.2988 0.80166 0.27613 0.0
O401 O 0.2962 0.8109 0.30705 0.0
O402 O 0.29896 0.79596 0.34042 0.0
O403 O 0.27147 0.79199 0.3364 0.0
O404 O 0.27169 0.78623 0.28616 0.0
O405 O 0.25603 0.77426 0.30398 0.0
O406 O 0.2776 0.7534 0.3159 0.0
O407 O 0.27355 0.74556 0.28367 0.0
H408 H 0.29202 0.78808 0.22699 0.0
H409 H 0.30137 0.79188 0.19685 0.0
H410 H 0.31547 0.7391 0.19438 0.0
H411 H 0.30534 0.735 0.22435 0.0
H412 H 0.2701 0.76071 0.35082 0.0
H413 H 0.27221 0.74519 0.37865 0.0
H414 H 0.30334 0.79669 0.4125 0.0
H415 H 0.30098 0.81222 0.38456 0.0
Tb416 Tb 0.5587 0.02488 0.54924 0.0
Tb417 Tb 0.52117 0.01803 0.55592 0.0
C418 C 0.58996 0.02518 0.55721 0.0
C419 C 0.60285 0.01412 0.55426 0.0
C420 C 0.60939 1.00611 0.56946 0.0
C421 C 0.62268 0.99718 0.56812 0.0
C422 C 0.62999 0.99596 0.55153 0.0
C423 C 0.62327 1.00374 0.53615 0.0
C424 C 0.60991 0.01275 0.53751 0.0
C425 C 0.53758 0.02481 0.51647 0.0
C426 C 0.53419 0.98368 0.53862 0.0
C427 C 0.49016 0.01841 0.55571 0.0
C428 C 0.47741 0.03 0.55315 0.0
C429 C 0.46997 0.03224 0.53496 0.0
C430 C 0.4563 0.04092 0.5327 0.0
C431 C 0.44955 0.04747 0.54854 0.0
C432 C 0.45736 0.04567 0.56674 0.0
C433 C 0.47101 0.03703 0.56899 0.0
C434 C 0.54386 0.01291 0.58459 0.0
C435 C 0.54468 0.05995 0.5613 0.0
O436 O 0.57836 0.01846 0.56704 0.0
O437 O 0.58374 0.03298 0.54335 0.0
O438 O 0.5341 0.02258 0.53283 0.0
O439 O 0.55406 0.02698 0.5184 0.0
O440 O 0.54986 0.99456 0.54184 0.0
O441 O 0.52068 0.98996 0.54191 0.0
O442 O 0.49607 0.01215 0.54077 0.0
O443 O 0.50192 0.02318 0.57106 0.0
O444 O 0.54611 0.02527 0.57384 0.0
O445 O 0.52806 1.00351 0.57963 0.0
O446 O 0.52926 0.04859 0.5592 0.0
O447 O 0.55848 0.05375 0.5592 0.0
H448 H 0.60452 1.0072 0.58271 0.0
H449 H 0.62761 0.9918 0.58046 0.0
H450 H 0.62839 1.00296 0.52305 0.0
H451 H 0.60531 0.01889 0.52557 0.0
H452 H 0.47434 0.0268 0.52236 0.0
H453 H 0.4506 0.04185 0.51843 0.0
H454 H 0.45282 0.05077 0.57934 0.0
H455 H 0.47626 0.0354 0.58319 0.0
Tb456 Tb 0.26829 0.26992 0.78915 0.0
Tb457 Tb 0.30717 0.26669 0.79631 0.0
C458 C 0.23673 0.26035 0.7899 0.0
C459 C 0.22251 0.26441 0.79939 0.0
C460 C 0.22376 0.26713 0.81934 0.0
C461 C 0.2093 0.26788 0.82777 0.0
C462 C 0.19317 0.26579 0.81649 0.0
C463 C 0.19216 0.26374 0.79658 0.0
C464 C 0.2066 0.26304 0.78818 0.0
C465 C 0.29044 0.30118 0.7862 0.0
C466 C 0.2923 0.28483 0.83035 0.0
C467 C 0.33805 0.2669 0.79537 0.0
C468 C 0.35159 0.26943 0.78328 0.0
C469 C 0.35957 0.28706 0.77954 0.0
C470 C 0.37379 0.28925 0.77023 0.0
C471 C 0.38051 0.27393 0.76463 0.0
C472 C 0.37215 0.25626 0.76791 0.0
C473 C 0.35796 0.25407 0.7771 0.0
C474 C 0.28345 0.2395 0.80364 0.0
C475 C 0.28491 0.25757 0.75401 0.0
O476 O 0.24839 0.2542 0.79996 0.0
O477 O 0.24317 0.27149 0.77856 0.0
O478 O 0.29299 0.28608 0.79029 0.0
O479 O 0.27397 0.29931 0.78393 0.0
O480 O 0.27672 0.27964 0.81986 0.0
O481 O 0.30628 0.28267 0.82365 0.0
O482 O 0.33298 0.28151 0.80228 0.0
O483 O 0.32546 0.2519 0.79038 0.0
O484 O 0.28213 0.24877 0.79035 0.0
O485 O 0.29898 0.24459 0.81294 0.0
O486 O 0.30021 0.26283 0.76514 0.0
O487 O 0.27043 0.25743 0.76062 0.0
H488 H 0.23578 0.26806 0.82844 0.0
H489 H 0.21065 0.26934 0.84312 0.0
H490 H 0.18011 0.26242 0.78737 0.0
H491 H 0.20518 0.26077 0.7728 0.0
H492 H 0.35517 0.29926 0.78427 0.0
H493 H 0.37992 0.30309 0.76807 0.0
H494 H 0.37671 0.24406 0.76354 0.0
H495 H 0.35224 0.24033 0.77989 0.0
Tb496 Tb 0.03938 0.04496 0.54891 0.0
Tb497 Tb 0.03683 1.0022 0.53916 0.0
C498 C 0.04557 0.07966 0.55056 0.0
C499 C 0.04976 0.09285 0.53747 0.0
C500 C 0.05536 0.08752 0.5205 0.0
C501 C 0.05873 0.1002 0.50794 0.0
C502 C 0.05643 0.11836 0.51214 0.0
C503 C 0.05077 0.12352 0.52919 0.0
C504 C 0.04752 0.11089 0.54174 0.0
C505 C 0.01116 0.02222 0.55415 0.0
C506 C 0.02963 0.02389 0.50546 0.0
C507 C 0.02479 0.96787 0.53689 0.0
C508 C 0.02822 0.95406 0.5487 0.0
C509 C 0.01568 0.93759 0.54762 0.0
C510 C 0.01749 0.92568 0.56085 0.0
C511 C 0.03189 0.93011 0.57538 0.0
C512 C 0.04471 0.94638 0.57604 0.0
C513 C 0.04284 0.95832 0.56284 0.0
C514 C 0.06837 0.0224 0.53901 0.0
C515 C 0.05053 0.02384 0.58177 0.0
O516 O 0.05721 0.07078 0.55575 0.0
O517 O 0.03014 0.06875 0.54637 0.0
O518 O 0.01946 0.01988 0.54083 0.0
O519 O 0.01829 0.03829 0.56465 0.0
O520 O 0.03512 0.03986 0.51759 0.0
O521 O 0.0279 1.00736 0.51094 0.0
O522 O 0.01844 0.98066 0.54544 0.0
O523 O 0.03678 0.97485 0.52757 0.0
O524 O 0.05527 0.02754 0.54233 0.0
O525 O 0.06391 1.00428 0.53593 0.0
O526 O 0.04351 1.00778 0.57023 0.0
O527 O 0.05208 0.04023 0.57596 0.0
H528 H 0.05702 0.07357 0.51689 0.0
H529 H 0.06317 0.09579 0.49501 0.0
H530 H 0.04848 0.13722 0.53269 0.0
H531 H 0.04302 0.11514 0.5547 0.0
H532 H 1.00421 0.93426 0.53694 0.0
H533 H 1.00751 0.91313 0.55988 0.0
H534 H 0.05585 0.95023 0.58719 0.0
H535 H 0.0525 0.9712 0.56409 0.0
Tb536 Tb 0.29526 0.75335 0.77659 0.0
Tb537 Tb 0.30064 0.79602 0.78232 0.0
C538 C 0.29201 0.71954 0.76359 0.0
C539 C 0.30322 0.70654 0.76422 0.0
C540 C 0.32107 0.71306 0.76835 0.0
C541 C 0.33152 0.70046 0.76874 0.0
C542 C 0.32428 0.68111 0.76504 0.0
C543 C 0.30636 0.67472 0.76113 0.0
C544 C 0.29596 0.68732 0.76071 0.0
C545 C 0.28779 0.76881 0.80822 0.0
C546 C 0.33062 0.77744 0.79855 0.0
C547 C 0.30331 0.82932 0.79661 0.0
C548 C 0.29137 0.84163 0.79839 0.0
C549 C 0.28652 0.84639 0.81603 0.0
C550 C 0.27569 0.85847 0.81796 0.0
C551 C 0.26955 0.86617 0.80231 0.0
C552 C 0.27425 0.8612 0.78464 0.0
C553 C 0.28503 0.84913 0.7827 0.0
C554 C 0.30677 0.78065 0.75013 0.0
C555 C 0.26522 0.77155 0.76033 0.0
O556 O 0.29611 0.73313 0.75395 0.0
O557 O 0.28772 0.72524 0.77978 0.0
O558 O 0.28542 0.77351 0.79214 0.0
O559 O 0.29351 0.75386 0.80675 0.0
O560 O 0.32188 0.76078 0.78956 0.0
O561 O 0.3246 0.7926 0.7982 0.0
O562 O 0.30169 0.81561 0.80649 0.0
O563 O 0.30618 0.82422 0.77947 0.0
O564 O 0.30985 0.77585 0.76612 0.0
O565 O 0.3024 0.79639 0.75226 0.0
O566 O 0.27377 0.78806 0.77002 0.0
O567 O 0.2716 0.75659 0.75991 0.0
H568 H 0.32691 0.72787 0.77115 0.0
H569 H 0.34524 0.70588 0.77163 0.0
H570 H 0.30034 0.65995 0.75856 0.0
H571 H 0.28222 0.68203 0.75764 0.0
H572 H 0.29125 0.84091 0.8284 0.0
H573 H 0.27245 0.86212 0.83181 0.0
H574 H 0.26953 0.8666 0.77221 0.0
H575 H 0.28844 0.84578 0.76887 0.0
Tb576 Tb 0.51318 0.02868 0.03673 0.0
Tb577 Tb 0.54666 0.03956 0.06358 0.0
C578 C 0.48465 0.00968 0.0189 0.0
C579 C 0.46719 1.00309 0.02223 0.0
C580 C 0.45498 0.99186 0.00725 0.0
C581 C 0.43879 0.98352 0.01044 0.0
C582 C 0.43457 0.9862 0.02873 0.0
C583 C 0.44665 0.99808 0.04361 0.0
C584 C 0.4629 1.00645 0.04037 0.0
C585 C 0.52536 0.0647 0.04787 0.0
C586 C 0.51324 0.03391 0.08299 0.0
C587 C 0.57546 0.05768 0.08117 0.0
C588 C 0.5933 0.06131 0.07836 0.0
C589 C 0.59793 0.06541 0.061 0.0
C590 C 0.61513 0.07034 0.05929 0.0
C591 C 0.62794 0.07115 0.07487 0.0
C592 C 0.62317 0.06626 0.09194 0.0
C593 C 0.606 0.06146 0.09368 0.0
C594 C 0.53427 1.00357 0.05317 0.0
C595 C 0.54662 0.03469 0.01727 0.0
O596 O 0.49607 1.00265 0.02813 0.0
O597 O 0.49011 0.02758 0.01894 0.0
O598 O 0.52613 0.05193 0.05749 0.0
O599 O 0.51604 0.05743 0.03129 0.0
O600 O 0.50447 0.02789 0.06523 0.0
O601 O 0.53014 0.04041 0.08566 0.0
O602 O 0.56518 0.06477 0.07021 0.0
O603 O 0.56847 0.04069 0.0834 0.0
O604 O 0.53369 0.01603 0.04302 0.0
O605 O 0.54345 0.01118 0.06969 0.0
O606 O 0.55548 0.03985 0.03508 0.0
O607 O 0.52964 0.029 0.01452 0.0
H608 H 0.45811 0.98913 0.99317 0.0
H609 H 0.42962 0.97474 0.99862 0.0
H610 H 0.44378 1.00035 0.05785 0.0
H611 H 0.4722 0.01508 0.05209 0.0
H612 H 0.58832 0.06528 0.04892 0.0
H613 H 0.61838 0.07416 0.04599 0.0
H614 H 0.63272 0.06637 0.10407 0.0
H615 H 0.60265 0.0582 0.10713 0.0
Tb616 Tb 0.26969 0.26434 0.28367 0.0
Tb617 Tb 0.3022 0.28966 0.30019 0.0
C618 C 0.23897 0.24696 0.27977 0.0
C619 C 0.22326 0.25325 0.28122 0.0
C620 C 0.21075 0.24302 0.28983 0.0
C621 C 0.19701 0.25016 0.29409 0.0
C622 C 0.19559 0.26774 0.2899 0.0
C623 C 0.20783 0.27767 0.28063 0.0
C624 C 0.22154 0.27047 0.27629 0.0
C625 C 0.28583 0.27989 0.25811 0.0
C626 C 0.27083 0.30859 0.29648 0.0
C627 C 0.33249 0.3089 0.30567 0.0
C628 C 0.34974 0.30588 0.30867 0.0
C629 C 0.36356 0.3205 0.30779 0.0
C630 C 0.37981 0.31733 0.30798 0.0
C631 C 0.38245 0.29941 0.30882 0.0
C632 C 0.36867 0.28499 0.31068 0.0
C633 C 0.35243 0.28825 0.31067 0.0
C634 C 0.28575 0.27399 0.32563 0.0
C635 C 0.30113 0.24538 0.28612 0.0
O636 O 0.24976 0.25023 0.29579 0.0
O637 O 0.24656 0.25099 0.26543 0.0
O638 O 0.28496 0.28762 0.27449 0.0
O639 O 0.27694 0.26272 0.2554 0.0
O640 O 0.26158 0.29093 0.2926 0.0
O641 O 0.28772 0.31162 0.29854 0.0
O642 O 0.32342 0.30171 0.28881 0.0
O643 O 0.32366 0.30613 0.31933 0.0
O644 O 0.287 0.26632 0.30939 0.0
O645 O 0.29433 0.29124 0.32824 0.0
O646 O 0.31044 0.26294 0.29206 0.0
O647 O 0.28418 0.24229 0.28258 0.0
H648 H 0.21196 0.22982 0.29394 0.0
H649 H 0.18789 0.24226 0.30142 0.0
H650 H 0.20696 0.29114 0.27702 0.0
H651 H 0.23106 0.27865 0.26964 0.0
H652 H 0.36168 0.33423 0.30634 0.0
H653 H 0.39021 0.32882 0.30694 0.0
H654 H 0.37023 0.27101 0.31124 0.0
H655 H 0.34188 0.27689 0.31155 0.0
Tb656 Tb 0.54069 0.54803 0.0469 0.0
Tb657 Tb 0.53963 0.5059 0.0379 0.0
C658 C 0.55013 0.58257 0.04851 0.0
C659 C 0.54284 0.59582 0.03874 0.0
C660 C 0.55163 0.61459 0.04168 0.0
C661 C 0.54548 0.62695 0.03114 0.0
C662 C 0.53045 0.62067 0.01745 0.0
C663 C 0.52146 0.60188 0.0149 0.0
C664 C 0.52761 0.58955 0.02547 0.0
C665 C 0.50977 0.52715 0.0485 0.0
C666 C 0.52602 0.52515 1.00485 0.0
C667 C 0.53566 0.4715 0.03735 0.0
C668 C 0.53164 0.45878 0.0509 0.0
C669 C 0.52559 0.46447 0.06747 0.0
C670 C 0.52308 0.45263 0.08094 0.0
C671 C 0.52639 0.43485 0.07792 0.0
C672 C 0.53219 0.42917 0.0611 0.0
C673 C 0.5348 0.44106 0.04775 0.0
C674 C 0.56686 0.52949 0.0312 0.0
C675 C 0.54936 0.52747 0.08088 0.0
O676 O 0.55543 0.57052 0.03736 0.0
O677 O 0.54137 0.5748 0.06061 0.0
O678 O 0.52284 0.52227 0.04462 0.0
O679 O 0.51389 0.54524 0.05137 0.0
O680 O 0.53302 0.54155 0.01582 0.0
O681 O 0.52533 0.50913 0.01121 0.0
O682 O 0.52344 0.47909 0.03083 0.0
O683 O 0.55053 0.4835 0.04206 0.0
O684 O 0.55906 0.5316 0.045 0.0
O685 O 0.55981 0.51324 0.02106 0.0
O686 O 0.54313 0.51142 0.06909 0.0
O687 O 0.55158 0.54376 0.07487 0.0
H688 H 0.56347 0.61958 0.05177 0.0
H689 H 0.55283 0.64127 0.03324 0.0
H690 H 0.50979 0.59667 1.00459 0.0
H691 H 0.52069 0.57504 0.02303 0.0
H692 H 0.52305 0.47814 0.07012 0.0
H693 H 0.51866 0.45742 0.09373 0.0
H694 H 0.53521 0.41574 0.05851 0.0
H695 H 0.53962 0.43654 0.0351 0.0
Tb696 Tb 0.78441 0.24797 0.28717 0.0
Tb697 Tb 0.79281 0.29016 0.29756 0.0
C698 C 0.78608 0.2151 0.27651 0.0
C699 C 0.79794 0.20349 0.28185 0.0
C700 C 0.81575 0.21051 0.28507 0.0
C701 C 0.82663 0.19883 0.28917 0.0
C702 C 0.81988 0.17989 0.28995 0.0
C703 C 0.80205 0.17331 0.28783 0.0
C704 C 0.79123 0.18496 0.28373 0.0
C705 C 0.77225 0.2607 0.31655 0.0
C706 C 0.82053 0.27084 0.31266 0.0
C707 C 0.79259 0.32362 0.30786 0.0
C708 C 0.78025 0.3354 0.30839 0.0
C709 C 0.76426 0.32939 0.31377 0.0
C710 C 0.75298 0.34112 0.31416 0.0
C711 C 0.75744 0.35893 0.30899 0.0
C712 C 0.77345 0.36479 0.30364 0.0
C713 C 0.78472 0.35316 0.30338 0.0
C714 C 0.80484 0.27668 0.26819 0.0
C715 C 0.75644 0.26742 0.27391 0.0
O716 O 0.79176 0.22902 0.2678 0.0
O717 O 0.77728 0.21963 0.28946 0.0
O718 O 0.78662 0.26739 0.31243 0.0
O719 O 0.76459 0.24553 0.3048 0.0
O720 O 0.81103 0.25513 0.30208 0.0
O721 O 0.81518 0.28633 0.31484 0.0
O722 O 0.792 0.3113 0.31938 0.0
O723 O 0.79492 0.31707 0.29091 0.0
O724 O 0.79038 0.27066 0.27231 0.0
O725 O 0.81301 0.2914 0.28029 0.0
O726 O 0.76536 0.28211 0.28646 0.0
O727 O 0.76273 0.2529 0.2691 0.0
H728 H 0.82129 0.22483 0.28389 0.0
H729 H 0.84025 0.20438 0.29061 0.0
H730 H 0.7964 0.15894 0.28875 0.0
H731 H 0.77754 0.17935 0.28161 0.0
H732 H 0.76048 0.31568 0.31762 0.0
H733 H 0.74068 0.33616 0.31821 0.0
H734 H 0.77739 0.3785 0.29985 0.0
H735 H 0.797 0.35808 0.29925 0.0
Tb736 Tb 0.01697 0.53129 0.53569 0.0
Tb737 Tb 0.04912 0.53395 0.56228 0.0
C738 C 0.98719 0.51839 0.51769 0.0
C739 C 0.97007 0.51572 0.52267 0.0
C740 C 0.95721 0.50042 0.51287 0.0
C741 C 0.94111 0.49684 0.51807 0.0
C742 C 0.93759 0.50854 0.53316 0.0
C743 C 0.95045 0.52401 0.54287 0.0
C744 C 0.96665 0.52752 0.53773 0.0
C745 C 0.03364 0.56541 0.55097 0.0
C746 C 0.0157 0.53161 0.58136 0.0
C747 C 0.07864 0.54583 0.58142 0.0
C748 C 0.09646 0.54777 0.57883 0.0
C749 C 0.10201 0.55312 0.56228 0.0
C750 C 0.11933 0.55658 0.56102 0.0
C751 C 0.13133 0.55462 0.57621 0.0
C752 C 0.1256 0.54853 0.59241 0.0
C753 C 0.10831 0.54518 0.59371 0.0
C754 C 0.03262 0.4997 0.54638 0.0
C755 C 0.05034 0.53455 0.51663 0.0
O756 O 0.99657 0.50808 0.52519 0.0
O757 O 0.99575 0.53564 0.51846 0.0
O758 O 0.03192 0.55117 0.55886 0.0
O759 O 0.02456 0.56099 0.53395 0.0
O760 O 1.00725 0.52917 0.56349 0.0
O761 O 0.03266 0.53474 0.58442 0.0
O762 O 0.0702 0.55636 0.57278 0.0
O763 O 0.06949 0.52882 0.58041 0.0
O764 O 0.03439 0.51417 0.53887 0.0
O765 O 0.04127 0.50414 0.56359 0.0
O766 O 0.05885 0.53673 0.53449 0.0
O767 O 0.03337 0.53123 0.51355 0.0
H768 H 0.95968 0.49111 0.50131 0.0
H769 H 0.93135 0.48495 0.51019 0.0
H770 H 0.94808 0.53316 0.55462 0.0
H771 H 0.97651 0.5393 0.54562 0.0
H772 H 0.09305 0.55508 0.55055 0.0
H773 H 0.12339 0.56107 0.54829 0.0
H774 H 0.13457 0.54709 0.60441 0.0
H775 H 0.10425 0.54107 0.60658 0.0
Tb776 Tb 0.76878 0.77163 0.28464 0.0
Tb777 Tb 0.80685 0.77192 0.29208 0.0
C778 C 0.73704 0.76602 0.28517 0.0
C779 C 0.72415 0.76635 0.29806 0.0
C780 C 0.71475 0.74957 0.30227 0.0
C781 C 0.7011 0.74937 0.31229 0.0
C782 C 0.6963 0.76591 0.31822 0.0
C783 C 0.70588 0.78275 0.31429 0.0
C784 C 0.71958 0.78297 0.30436 0.0
C785 C 0.79023 0.80192 0.27923 0.0
C786 C 0.79059 0.7838 0.327 0.0
C787 C 0.8387 0.777 0.29287 0.0
C788 C 0.85257 0.77772 0.28145 0.0
C789 C 0.86946 0.78461 0.29098 0.0
C790 C 0.88317 0.78484 0.2812 0.0
C791 C 0.8804 0.77817 0.26153 0.0
C792 C 0.86337 0.77163 0.25183 0.0
C793 C 0.84957 0.77132 0.26172 0.0
C794 C 0.78549 0.74213 0.2984 0.0
C795 C 0.78513 0.76022 0.24965 0.0
O796 O 0.74547 0.75296 0.28548 0.0
O797 O 0.74669 0.78193 0.28305 0.0
O798 O 0.79239 0.79233 0.29209 0.0
O799 O 0.77501 0.79532 0.2693 0.0
O800 O 0.77543 0.77681 0.31598 0.0
O801 O 0.80502 0.78556 0.32012 0.0
O802 O 0.83067 0.79039 0.293 0.0
O803 O 0.82841 0.76076 0.29263 0.0
O804 O 0.78325 0.75116 0.28501 0.0
O805 O 0.80066 0.74906 0.3083 0.0
O806 O 0.80025 0.7673 0.26076 0.0
O807 O 0.77066 0.75827 0.25648 0.0
H808 H 0.71764 0.73645 0.29737 0.0
H809 H 0.69395 0.73611 0.31484 0.0
H810 H 0.70268 0.79579 0.31876 0.0
H811 H 0.72632 0.79615 0.3012 0.0
H812 H 0.87211 0.7897 0.30616 0.0
H813 H 0.896 0.79033 0.28913 0.0
H814 H 0.86073 0.76636 0.2367 0.0
H815 H 0.83663 0.76592 0.25404 0.0
Tb816 Tb 0.79054 0.26816 0.77487 0.0
Tb817 Tb 0.78568 0.28236 0.81438 0.0
C818 C 0.78564 0.25962 0.73936 0.0
C819 C 0.79542 0.26344 0.72413 0.0
C820 C 0.78957 0.25272 0.70602 0.0
C821 C 0.79784 0.25713 0.69089 0.0
C822 C 0.81209 0.27241 0.69368 0.0
C823 C 0.81841 0.28256 0.71213 0.0
C824 C 0.81014 0.27809 0.72728 0.0
C825 C 0.81904 0.26961 0.79908 0.0
C826 C 0.80509 0.31227 0.79234 0.0
C827 C 0.78337 0.28741 0.84889 0.0
C828 C 0.77912 0.27429 0.86202 0.0
C829 C 0.7847 0.25775 0.86081 0.0
C830 C 0.77987 0.24488 0.87266 0.0
C831 C 0.76928 0.24825 0.8859 0.0
C832 C 0.7634 0.26465 0.88677 0.0
C833 C 0.76829 0.27757 0.8749 0.0
C834 C 0.76271 0.28592 0.78611 0.0
C835 C 0.77318 0.23785 0.79857 0.0
O836 O 0.78138 0.27397 0.74824 0.0
O837 O 0.79114 0.24923 0.75097 0.0
O838 O 0.80554 0.27385 0.80268 0.0
O839 O 0.81688 0.26486 0.7808 0.0
O840 O 0.79998 0.2991 0.77683 0.0
O841 O 0.80257 0.30814 0.80935 0.0
O842 O 0.79794 0.28825 0.84286 0.0
O843 O 0.77082 0.28683 0.83518 0.0
O844 O 0.76905 0.27201 0.78744 0.0
O845 O 0.76919 0.29838 0.80114 0.0
O846 O 0.77649 0.25165 0.81332 0.0
O847 O 0.77668 0.24141 0.78171 0.0
H848 H 0.77825 0.24132 0.70342 0.0
H849 H 0.79249 0.24922 0.67681 0.0
H850 H 0.82942 0.29432 0.71471 0.0
H851 H 0.8149 0.28638 0.7413 0.0
H852 H 0.79286 0.25477 0.85076 0.0
H853 H 0.78491 0.23259 0.87184 0.0
H854 H 0.75517 0.26758 0.89674 0.0
H855 H 0.7636 0.29011 0.87573 0.0
Tb856 Tb 0.76905 0.76134 0.78072 0.0
Tb857 Tb 0.80247 0.7871 0.79375 0.0
C858 C 0.73897 0.74393 0.78057 0.0
C859 C 0.72354 0.75016 0.78357 0.0
C860 C 0.71336 0.74164 0.79568 0.0
C861 C 0.7006 0.74946 0.80176 0.0
C862 C 0.69783 0.76598 0.79585 0.0
C863 C 0.70743 0.77393 0.78288 0.0
C864 C 0.72026 0.76613 0.77686 0.0
C865 C 0.78317 0.77508 0.75308 0.0
C866 C 0.77105 0.80623 0.79219 0.0
C867 C 0.83291 0.80417 0.79499 0.0
C868 C 0.84934 0.79876 0.79571 0.0
C869 C 0.85785 0.80014 0.78008 0.0
C870 C 0.87303 0.79444 0.77999 0.0
C871 C 0.88015 0.78747 0.79563 0.0
C872 C 0.87182 0.78634 0.81142 0.0
C873 C 0.85649 0.79184 0.81143 0.0
C874 C 0.78831 0.77296 0.82136 0.0
C875 C 0.8003 0.74228 0.78121 0.0
O876 O 0.75096 0.74816 0.79564 0.0
O877 O 0.74496 0.74714 0.76501 0.0
O878 O 0.78338 0.78361 0.76945 0.0
O879 O 0.77408 0.75809 0.75142 0.0
O880 O 0.76169 0.78857 0.78913 0.0
O881 O 0.78791 0.80917 0.79322 0.0
O882 O 0.82198 0.79765 0.77913 0.0
O883 O 0.82558 0.80337 0.81005 0.0
O884 O 0.7883 0.76468 0.80496 0.0
O885 O 0.79724 0.79 0.82306 0.0
O886 O 0.80978 0.7599 0.78508 0.0
O887 O 0.78345 0.73926 0.77994 0.0
H888 H 0.71579 0.7294 0.80111 0.0
H889 H 0.69318 0.74283 0.81147 0.0
H890 H 0.70564 0.78669 0.77815 0.0
H891 H 0.7281 0.77308 0.76767 0.0
H892 H 0.85266 0.8055 0.76784 0.0
H893 H 0.87931 0.79569 0.76774 0.0
H894 H 0.87703 0.78092 0.8236 0.0
H895 H 0.85021 0.79055 0.82367 0.0
Tb896 Tb 0.52878 0.51296 0.53278 0.0
Tb897 Tb 0.56227 0.53269 0.55475 0.0
C898 C 0.49784 0.50464 0.51793 0.0
C899 C 0.4866 0.51658 0.51167 0.0
C900 C 0.48247 0.5296 0.525 0.0
C901 C 0.47304 0.54189 0.51898 0.0
C902 C 0.46759 0.5416 0.49948 0.0
C903 C 0.4715 0.52841 0.48612 0.0
C904 C 0.48092 0.51599 0.49218 0.0
C905 C 0.55432 0.51231 0.51403 0.0
C906 C 0.542 0.55771 0.53519 0.0
C907 C 0.59346 0.53923 0.56751 0.0
C908 C 0.60332 0.52509 0.57034 0.0
C909 C 0.60295 0.51107 0.55509 0.0
C910 C 0.6091 0.49555 0.55833 0.0
C911 C 0.61576 0.49364 0.57684 0.0
C912 C 0.61699 0.50806 0.59199 0.0
C913 C 0.61076 0.52366 0.58876 0.0
C914 C 0.53713 0.53366 0.57399 0.0
C915 C 0.54881 0.48816 0.55296 0.0
O916 O 0.5032 0.50663 0.53628 0.0
O917 O 0.51005 0.50356 0.50818 0.0
O918 O 0.55236 0.52591 0.5251 0.0
O919 O 0.54137 0.49831 0.51294 0.0
O920 O 0.52897 0.54275 0.53203 0.0
O921 O 0.55741 0.55685 0.54302 0.0
O922 O 0.58744 0.53995 0.54982 0.0
O923 O 0.58203 0.5398 0.5785 0.0
O924 O 0.53858 0.51996 0.56257 0.0
O925 O 0.55056 0.54725 0.57542 0.0
O926 O 0.56187 0.50296 0.5555 0.0
O927 O 0.53335 0.48904 0.54536 0.0
H928 H 0.48662 0.53048 0.54014 0.0
H929 H 0.46985 0.55148 0.52972 0.0
H930 H 0.46746 0.52781 0.47101 0.0
H931 H 0.484 0.50613 0.48161 0.0
H932 H 0.59722 0.5116 0.54071 0.0
H933 H 0.60837 0.48486 0.54632 0.0
H934 H 0.62215 0.50694 0.6064 0.0
H935 H 0.61103 0.53417 0.60076 0.0
Tb936 Tb 0.05903 0.52543 0.04524 0.0
Tb937 Tb 0.02253 0.5204 0.05375 0.0
C938 C 0.09116 0.53157 0.04739 0.0
C939 C 0.10525 0.52189 0.04938 0.0
C940 C 0.10228 0.50241 0.04792 0.0
C941 C 0.11605 0.49382 0.04979 0.0
C942 C 0.13311 0.50453 0.05325 0.0
C943 C 0.13589 0.52404 0.05467 0.0
C944 C 0.12217 0.53255 0.05277 0.0
C945 C 0.03478 0.5227 0.01478 0.0
C946 C 0.03604 0.48489 0.04018 0.0
C947 C 0.99079 0.51826 0.05052 0.0
C948 C 0.97747 0.52901 0.04709 0.0
C949 C 0.97078 0.53156 0.02872 0.0
C950 C 0.95686 0.53984 0.02584 0.0
C951 C 0.94914 0.54561 0.0412 0.0
C952 C 0.95619 0.54344 0.05956 0.0
C953 C 0.97004 0.53524 0.06243 0.0
C954 C 0.04377 0.51549 0.08462 0.0
C955 C 0.0461 0.56154 0.06014 0.0
O956 O 0.08355 0.53378 0.06207 0.0
O957 O 0.08028 0.52706 0.03138 0.0
O958 O 0.03547 0.53111 0.0316 0.0
O959 O 0.04838 0.51636 0.01486 0.0
O960 O 0.05185 0.49542 0.04494 0.0
O961 O 0.02257 0.49215 0.04044 0.0
O962 O 0.99809 0.51273 0.03641 0.0
O963 O 1.00159 0.52359 0.06658 0.0
O964 O 0.04694 0.51907 0.06852 0.0
O965 O 0.0275 0.51408 0.08321 0.0
O966 O 0.0309 0.55067 0.06016 0.0
O967 O 0.05876 0.55478 0.05462 0.0
H968 H 0.08933 0.49386 0.04536 0.0
H969 H 0.11332 0.47881 0.04878 0.0
H970 H 0.14873 0.5328 0.05698 0.0
H971 H 0.12481 0.54758 0.05388 0.0
H972 H 0.97601 0.52677 0.01651 0.0
H973 H 0.95178 0.54114 0.01147 0.0
H974 H 0.95092 0.54798 0.07183 0.0
H975 H 0.97471 0.53337 0.07674 0.0
H976 H 0.99411 0.20618 0.9738 0.0
H977 H 0.99648 0.17817 0.98726 0.0
H978 H 0.03499 0.17051 0.95356 0.0
H979 H 0.03157 0.19768 0.93903 0.0
H980 H 0.01885 0.13896 0.95368 0.0
H981 H 0.04204 0.18811 0.00628 0.0
H982 H 0.04322 0.21595 0.02949 0.0
H983 H 0.99956 0.18627 0.04957 0.0
H984 H 0.99799 0.15831 0.02632 0.0
H985 H 0.05377 0.08081 0.0141 0.0
H986 H 0.04965 0.10817 1.00016 0.0
H987 H 0.9979 0.09743 0.01047 0.0
H988 H 1.00174 0.06966 0.024 0.0
H989 H 0.02053 0.13746 0.02264 0.0
H990 H 1.00056 0.08702 0.96896 0.0
H991 H 1.00356 0.0601 0.94709 0.0
H992 H 0.0471 0.09436 0.93079 0.0
H993 H 0.04459 0.12141 0.95289 0.0
C994 C 1.00312 0.19854 0.96929 0.0
C995 C 0.0127 0.20432 0.95535 0.0
C996 C 1.00461 0.1825 0.97716 0.0
C997 C 0.01627 0.17211 0.97195 0.0
C998 C 0.02586 0.17799 0.958 0.0
C999 C 0.02397 0.19368 0.9497 0.0
C1000 C 0.01828 0.15505 0.98067 0.0
C1001 C 0.01944 0.13891 0.96883 0.0
C1002 C 0.01893 0.15441 1.00046 0.0
C1003 C 0.01979 0.17119 0.01442 0.0
C1004 C 0.03262 0.18757 0.01556 0.0
C1005 C 0.03337 0.20336 0.02873 0.0
C1006 C 0.02144 0.2029 0.04095 0.0
C1007 C 0.00877 0.18662 0.04006 0.0
C1008 C 1.00795 0.17079 0.0269 0.0
C1009 C 0.04149 0.08422 0.01346 0.0
C1010 C 0.0281 0.07294 0.02028 0.0
C1011 C 0.03915 0.0999 1.00541 0.0
C1012 C 0.02348 0.10496 1.00423 0.0
C1013 C 0.01014 0.09389 0.01122 0.0
C1014 C 0.01234 0.07794 0.01892 0.0
C1015 C 0.02108 0.12175 0.99563 0.0
C1016 C 0.0199 0.13774 0.00751 0.0
C1017 C 0.021 0.12247 0.97604 0.0
C1018 C 0.02248 0.10621 0.96272 0.0
C1019 C 0.01089 0.08878 0.96086 0.0
C1020 C 0.01247 0.0735 0.94839 0.0
C1021 C 0.0255 0.07553 0.93754 0.0
C1022 C 0.03698 0.09283 0.93915 0.0
C1023 C 0.0355 0.10813 0.95167 0.0
H1024 H 0.02674 0.06368 0.92792 0.0
H1025 H 0.02205 0.21514 0.05114 0.0
H1026 H 0.10578 0.78941 0.21377 0.0
H1027 H 0.13314 0.78796 0.23156 0.0
H1028 H 0.15829 0.8058 0.18585 0.0
H1029 H 0.13089 0.80709 0.16784 0.0
H1030 H 0.16934 0.77725 0.19734 0.0
H1031 H 0.16299 0.83511 0.229 0.0
H1032 H 0.14846 0.85623 0.24579 0.0
H1033 H 0.14561 0.82337 0.29065 0.0
H1034 H 0.15992 0.8019 0.27401 0.0
H1035 H 0.2539 0.79138 0.25264 0.0
H1036 H 0.22814 0.79582 0.23327 0.0
H1037 H 0.19819 0.77588 0.27461 0.0
H1038 H 0.22365 0.77126 0.29374 0.0
H1039 H 0.19075 0.80737 0.26456 0.0
H1040 H 0.19501 0.74867 0.23251 0.0
H1041 H 0.2084 0.72638 0.2157 0.0
H1042 H 0.21481 0.76021 0.17195 0.0
H1043 H 0.20158 0.78284 0.18863 0.0
C1044 C 0.11712 0.79328 0.20755 0.0
C1045 C 0.11598 0.79846 0.18932 0.0
C1046 C 0.13286 0.79247 0.2178 0.0
C1047 C 0.14798 0.79689 0.21021 0.0
C1048 C 0.14692 0.8023 0.19211 0.0
C1049 C 0.13118 0.80315 0.18187 0.0
C1050 C 0.16472 0.79532 0.22087 0.0
C1051 C 0.17416 0.78416 0.21193 0.0
C1052 C 0.17099 0.8039 0.2401 0.0
C1053 C 0.16239 0.8168 0.25017 0.0
C1054 C 0.15915 0.8323 0.24238 0.0
C1055 C 0.15097 0.84435 0.25188 0.0
C1056 C 0.14608 0.84112 0.26926 0.0
C1057 C 0.14939 0.82585 0.27718 0.0
C1058 C 0.15755 0.81374 0.26773 0.0
C1059 C 0.24179 0.78783 0.25751 0.0
C1060 C 0.24089 0.78097 0.27479 0.0
C1061 C 0.22704 0.79035 0.24642 0.0
C1062 C 0.21108 0.7862 0.25242 0.0
C1063 C 0.21024 0.77929 0.26964 0.0
C1064 C 0.22488 0.77658 0.28057 0.0
C1065 C 0.19527 0.78921 0.24107 0.0
C1066 C 0.18601 0.80064 0.2499 0.0
C1067 C 0.18916 0.78084 0.22178 0.0
C1068 C 0.19748 0.76755 0.21193 0.0
C1069 C 0.19945 0.75147 0.21942 0.0
C1070 C 0.20695 0.73875 0.20988 0.0
C1071 C 0.21245 0.74188 0.19277 0.0
C1072 C 0.21053 0.75781 0.1852 0.0
C1073 C 0.20302 0.77058 0.19468 0.0
H1074 H 0.21809 0.7319 0.18535 0.0
H1075 H 0.13976 0.85046 0.27659 0.0
H1076 H 0.51993 0.80329 0.48963 0.0
H1077 H 0.52121 0.83451 0.507 0.0
H1078 H 0.53601 0.85919 0.45902 0.0
H1079 H 0.53414 0.82827 0.44146 0.0
H1080 H 0.55622 0.87618 0.50134 0.0
H1081 H 0.50054 0.85789 0.4584 0.0
H1082 H 0.47237 0.83631 0.44615 0.0
H1083 H 0.46024 0.84058 0.50251 0.0
H1084 H 0.48848 0.86198 0.51513 0.0
H1085 H 0.55186 0.96945 0.5135 0.0
H1086 H 0.54983 0.93689 0.5012 0.0
H1087 H 0.51056 0.91977 0.53423 0.0
H1088 H 0.51181 0.95268 0.54558 0.0
H1089 H 0.50272 0.89704 0.50361 0.0
H1090 H 0.55523 0.91807 0.54686 0.0
H1091 H 0.58326 0.93895 0.56134 0.0
H1092 H 0.60201 0.92832 0.50916 0.0
H1093 H 0.57401 0.90758 0.49425 0.0
C1094 C 0.52358 0.8154 0.48288 0.0
C1095 C 0.52688 0.81326 0.46413 0.0
C1096 C 0.52426 0.83322 0.49279 0.0
C1097 C 0.52869 0.84921 0.4843 0.0
C1098 C 0.53257 0.8471 0.46587 0.0
C1099 C 0.53145 0.82937 0.45584 0.0
C1100 C 0.52885 0.86817 0.49415 0.0
C1101 C 0.54456 0.88081 0.50182 0.0
C1102 C 0.51364 0.87406 0.49533 0.0
C1103 C 0.49668 0.8613 0.48773 0.0
C1104 C 0.49194 0.85405 0.46821 0.0
C1105 C 0.47595 0.8419 0.46119 0.0
C1106 C 0.46454 0.83702 0.47355 0.0
C1107 C 0.4691 0.84434 0.49296 0.0
C1108 C 0.48509 0.85648 0.50004 0.0
C1109 C 0.54273 0.95876 0.51811 0.0
C1110 C 0.53209 0.96368 0.53066 0.0
C1111 C 0.54168 0.94004 0.51119 0.0
C1112 C 0.53046 0.92558 0.51721 0.0
C1113 C 0.51947 0.9305 0.5294 0.0
C1114 C 0.52017 0.94934 0.53592 0.0
C1115 C 0.53021 0.90549 0.51061 0.0
C1116 C 0.51448 0.89254 0.50349 0.0
C1117 C 0.54545 0.89921 0.51036 0.0
C1118 C 0.56246 0.91136 0.51939 0.0
C1119 C 0.56531 0.92024 0.53844 0.0
C1120 C 0.58119 0.93206 0.54672 0.0
C1121 C 0.5944 0.935 0.53616 0.0
C1122 C 0.59176 0.92604 0.51732 0.0
C1123 C 0.57589 0.91423 0.50895 0.0
H1124 H 0.60667 0.94419 0.54258 0.0
H1125 H 0.45216 0.82762 0.4681 0.0
H1126 H 0.52432 0.26475 0.71445 0.0
H1127 H 0.49806 0.2651 0.72692 0.0
H1128 H 0.48682 0.30375 0.6901 0.0
H1129 H 0.51348 0.30385 0.67788 0.0
H1130 H 0.4778 0.31287 0.72335 0.0
H1131 H 0.46676 0.25625 0.67943 0.0
H1132 H 0.47176 0.22655 0.66498 0.0
H1133 H 0.46762 0.20514 0.71724 0.0
H1134 H 0.46283 0.23482 0.7321 0.0
H1135 H 0.39038 0.29577 0.73792 0.0
H1136 H 0.41637 0.29885 0.72385 0.0
H1137 H 0.43302 0.26075 0.75828 0.0
H1138 H 0.4071 0.25748 0.77215 0.0
H1139 H 0.43818 0.25201 0.72364 0.0
H1140 H 0.45044 0.3102 0.76768 0.0
H1141 H 0.44423 0.33971 0.78085 0.0
H1142 H 0.44459 0.35786 0.72656 0.0
H1143 H 0.45067 0.32838 0.71303 0.0
C1144 C 0.51635 0.27344 0.70904 0.0
C1145 C 0.52104 0.28418 0.69503 0.0
C1146 C 0.50121 0.27354 0.71614 0.0
C1147 C 0.49011 0.28413 0.70922 0.0
C1148 C 0.49503 0.29537 0.69566 0.0
C1149 C 0.5103 0.2954 0.68865 0.0
C1150 C 0.47331 0.28306 0.71588 0.0
C1151 C 0.46906 0.29955 0.72317 0.0
C1152 C 0.46178 0.26574 0.71583 0.0
C1153 C 0.46458 0.24783 0.70693 0.0
C1154 C 0.46703 0.24526 0.68788 0.0
C1155 C 0.46981 0.22842 0.67961 0.0
C1156 C 0.47005 0.21398 0.6902 0.0
C1157 C 0.46746 0.21634 0.70906 0.0
C1158 C 0.46469 0.23317 0.71741 0.0
C1159 C 0.39963 0.28815 0.7426 0.0
C1160 C 0.39651 0.27629 0.75614 0.0
C1161 C 0.41456 0.28995 0.73455 0.0
C1162 C 0.42688 0.28017 0.74005 0.0
C1163 C 0.42378 0.26841 0.75363 0.0
C1164 C 0.40885 0.2665 0.76155 0.0
C1165 C 0.44287 0.28176 0.73158 0.0
C1166 C 0.44693 0.26534 0.72384 0.0
C1167 C 0.45409 0.29913 0.73107 0.0
C1168 C 0.45088 0.31704 0.73932 0.0
C1169 C 0.44915 0.32047 0.75854 0.0
C1170 C 0.44566 0.33719 0.76607 0.0
C1171 C 0.444 0.35064 0.75454 0.0
C1172 C 0.44589 0.34743 0.73548 0.0
C1173 C 0.44939 0.33074 0.72788 0.0
H1174 H 0.44124 0.36355 0.76037 0.0
H1175 H 0.4722 0.20096 0.68377 0.0
H1176 H 0.07579 0.8187 0.6747 0.0
H1177 H 0.07006 0.84514 0.6605 0.0
H1178 H 0.02085 0.8361 0.67807 0.0
H1179 H 0.02661 0.8095 0.6926 0.0
H1180 H 0.01943 0.83817 0.63962 0.0
H1181 H 0.04984 0.87424 0.69838 0.0
H1182 H 0.07302 0.88544 0.72613 0.0
H1183 H 0.10849 0.90329 0.68945 0.0
H1184 H 0.0856 0.89192 0.66143 0.0
H1185 H 1.00709 0.9152 0.59472 0.0
H1186 H 0.00919 0.89523 0.61899 0.0
H1187 H 0.06175 0.89814 0.61378 0.0
H1188 H 0.05976 0.91828 0.58966 0.0
H1189 H 0.05806 0.90147 0.65032 0.0
H1190 H 0.02911 0.86024 0.59175 0.0
H1191 H 1.00633 0.8489 0.56359 0.0
H1192 H 0.96867 0.84052 0.59986 0.0
H1193 H 0.99123 0.85203 0.62824 0.0
C1194 C 0.06382 0.82245 0.67577 0.0
C1195 C 0.05159 0.81197 0.68465 0.0
C1196 C 0.06062 0.83766 0.66777 0.0
C1197 C 0.0451 0.84266 0.66838 0.0
C1198 C 0.03296 0.83249 0.67758 0.0
C1199 C 0.03626 0.81735 0.68586 0.0
C1200 C 0.04114 0.85735 0.65774 0.0
C1201 C 0.02761 0.85218 0.64225 0.0
C1202 C 0.05207 0.87547 0.66096 0.0
C1203 C 0.06599 0.88207 0.67776 0.0
C1204 C 0.06261 0.88036 0.69619 0.0
C1205 C 0.0757 0.88679 0.71198 0.0
C1206 C 0.09222 0.89504 0.70955 0.0
C1207 C 0.09569 0.89687 0.69131 0.0
C1208 C 0.08265 0.89046 0.67547 0.0
C1209 C 0.01906 0.91148 0.59869 0.0
C1210 C 0.03323 0.91814 0.59018 0.0
C1211 C 0.02025 0.90013 0.61259 0.0
C1212 C 0.03557 0.89503 0.61804 0.0
C1213 C 0.04982 0.90194 0.60982 0.0
C1214 C 0.04867 0.91341 0.59603 0.0
C1215 C 0.03671 0.88206 0.6319 0.0
C1216 C 0.0497 0.88758 0.64795 0.0
C1217 C 0.02537 0.8642 0.62914 0.0
C1218 C 0.01183 0.8572 0.61209 0.0
C1219 C 0.01596 0.85611 0.59371 0.0
C1220 C 1.00309 0.84963 0.57771 0.0
C1221 C 0.98606 0.84405 0.57993 0.0
C1222 C 0.98186 0.84488 0.59816 0.0
C1223 C 0.99468 0.85137 0.6142 0.0
H1224 H 0.97611 0.83904 0.56753 0.0
H1225 H 0.10233 0.90003 0.72179 0.0
H1226 H 0.48892 0.82775 0.8535 0.0
H1227 H 0.45831 0.81841 0.84154 0.0
H1228 H 0.45375 0.7712 0.8711 0.0
H1229 H 0.48458 0.78043 0.88318 0.0
H1230 H 0.43381 0.76306 0.83402 0.0
H1231 H 0.44288 0.80688 0.89115 0.0
H1232 H 0.45657 0.83604 0.91345 0.0
H1233 H 0.44003 0.86792 0.87204 0.0
H1234 H 0.42646 0.83896 0.84938 0.0
H1235 H 0.3431 0.75148 0.81547 0.0
H1236 H 0.37236 0.75412 0.83086 0.0
H1237 H 0.38735 0.80941 0.81694 0.0
H1238 H 0.35781 0.80727 0.8028 0.0
H1239 H 0.40142 0.81016 0.85054 0.0
H1240 H 0.40309 0.76602 0.79112 0.0
H1241 H 0.38997 0.73696 0.76818 0.0
H1242 H 0.38607 0.7059 0.81438 0.0
H1243 H 0.39918 0.7348 0.83747 0.0
C1244 C 0.48149 0.81527 0.85734 0.0
C1245 C 0.48915 0.80492 0.86943 0.0
C1246 C 0.46398 0.80998 0.85051 0.0
C1247 C 0.45378 0.7943 0.85569 0.0
C1248 C 0.46144 0.7834 0.86703 0.0
C1249 C 0.47902 0.78872 0.87393 0.0
C1250 C 0.43503 0.79001 0.84987 0.0
C1251 C 0.42663 0.77322 0.83783 0.0
C1252 C 0.42573 0.80327 0.85486 0.0
C1253 C 0.43375 0.82074 0.86852 0.0
C1254 C 0.44226 0.82012 0.88675 0.0
C1255 C 0.44998 0.83661 0.89946 0.0
C1256 C 0.44919 0.85383 0.89415 0.0
C1257 C 0.44064 0.85458 0.87613 0.0
C1258 C 0.43291 0.83812 0.86335 0.0
C1259 C 0.35268 0.76421 0.81578 0.0
C1260 C 0.34823 0.77923 0.80807 0.0
C1261 C 0.36948 0.7656 0.82431 0.0
C1262 C 0.38228 0.78176 0.82465 0.0
C1263 C 0.37776 0.79677 0.81689 0.0
C1264 C 0.36088 0.79558 0.80885 0.0
C1265 C 0.40022 0.78361 0.83378 0.0
C1266 C 0.4085 0.79992 0.84672 0.0
C1267 C 0.40936 0.76988 0.82966 0.0
C1268 C 0.40167 0.75254 0.81591 0.0
C1269 C 0.39919 0.75299 0.7963 0.0
C1270 C 0.39186 0.73657 0.78331 0.0
C1271 C 0.38702 0.71963 0.78983 0.0
C1272 C 0.38973 0.71905 0.80935 0.0
C1273 C 0.39717 0.73542 0.82237 0.0
H1274 H 0.38129 0.70696 0.77976 0.0
H1275 H 0.45518 0.86658 0.90401 0.0
H1276 H 0.53263 0.18681 0.18286 0.0
H1277 H 0.52908 0.16151 0.15627 0.0
H1278 H 0.5107 0.19492 0.11727 0.0
H1279 H 0.51452 0.22052 0.14373 0.0
H1280 H 0.49426 0.15052 0.11236 0.0
H1281 H 0.54616 0.19979 0.116 0.0
H1282 H 0.57212 0.2221 0.13427 0.0
H1283 H 0.59048 0.17705 0.15426 0.0
H1284 H 0.56446 0.15451 0.13636 0.0
H1285 H 0.51174 0.09211 0.03445 0.0
H1286 H 0.51097 0.1218 0.05325 0.0
H1287 H 0.54251 0.10989 0.10122 0.0
H1288 H 0.54297 0.08039 0.0829 0.0
H1289 H 0.55126 0.1467 0.09776 0.0
H1290 H 0.50135 0.09837 0.09882 0.0
H1291 H 0.47551 0.07382 0.08426 0.0
H1292 H 0.45352 0.11411 0.0588 0.0
H1293 H 0.47939 0.13887 0.07305 0.0
C1294 C 0.52735 0.1886 0.16873 0.0
C1295 C 0.52405 0.20571 0.16532 0.0
C1296 C 0.52535 0.17415 0.15358 0.0
C1297 C 0.51976 0.17652 0.13491 0.0
C1298 C 0.51501 0.19292 0.13164 0.0
C1299 C 0.51727 0.20751 0.14674 0.0
C1300 C 0.52127 0.16298 0.11882 0.0
C1301 C 0.50663 0.1499 0.10879 0.0
C1302 C 0.53749 0.16203 0.1146 0.0
C1303 C 0.55331 0.1755 0.12498 0.0
C1304 C 0.55567 0.19467 0.12441 0.0
C1305 C 0.5704 0.20735 0.13468 0.0
C1306 C 0.58292 0.20101 0.14546 0.0
C1307 C 0.58076 0.18195 0.14593 0.0
C1308 C 0.56604 0.16922 0.13571 0.0
C1309 C 0.51885 0.09612 0.04884 0.0
C1310 C 0.52749 0.08402 0.0572 0.0
C1311 C 0.51834 0.11298 0.05956 0.0
C1312 C 0.52661 0.11792 0.07864 0.0
C1313 C 0.53614 0.10639 0.0865 0.0
C1314 C 0.53645 0.08954 0.07595 0.0
C1315 C 0.52424 0.1341 0.0912 0.0
C1316 C 0.53878 0.14763 0.10078 0.0
C1317 C 0.50796 0.1352 0.09524 0.0
C1318 C 0.49237 0.12041 0.08677 0.0
C1319 C 0.49107 0.10196 0.08998 0.0
C1320 C 0.47641 0.08801 0.08182 0.0
C1321 C 0.4629 0.09239 0.07055 0.0
C1322 C 0.46401 0.11073 0.06749 0.0
C1323 C 0.47866 0.12473 0.07561 0.0
H1324 H 0.45156 0.08158 0.06424 0.0
H1325 H 0.59431 0.21085 0.15342 0.0
H1326 H 0.05789 0.29772 0.32822 0.0
H1327 H 0.08448 0.30094 0.31549 0.0
H1328 H 0.11336 0.32155 0.37204 0.0
H1329 H 0.08678 0.31885 0.38484 0.0
H1330 H 0.11925 0.32977 0.31975 0.0
H1331 H 0.13656 0.28842 0.37635 0.0
H1332 H 0.12313 0.26958 0.39856 0.0
H1333 H 0.07686 0.25047 0.35745 0.0
H1334 H 0.09013 0.26893 0.33493 0.0
H1335 H 0.19828 0.30352 0.30707 0.0
H1336 H 0.17612 0.31607 0.32003 0.0
H1337 H 0.1399 0.26308 0.2999 0.0
H1338 H 0.16194 0.25049 0.287 0.0
H1339 H 0.13997 0.27513 0.33664 0.0
H1340 H 0.13945 0.30209 0.27823 0.0
H1341 H 0.15278 0.3215 0.25647 0.0
H1342 H 0.16545 0.36958 0.30035 0.0
H1343 H 0.15249 0.35037 0.32251 0.0
C1344 C 0.06989 0.30367 0.33782 0.0
C1345 C 0.07031 0.30787 0.35752 0.0
C1346 C 0.08506 0.30561 0.33052 0.0
C1347 C 0.10083 0.31138 0.34285 0.0
C1348 C 0.10128 0.31719 0.36231 0.0
C1349 C 0.08609 0.31561 0.36959 0.0
C1350 C 0.11612 0.30735 0.33606 0.0
C1351 C 0.12397 0.31798 0.32355 0.0
C1352 C 0.12214 0.29192 0.341 0.0
C1353 C 0.11426 0.28019 0.35409 0.0
C1354 C 0.12355 0.28011 0.37205 0.0
C1355 C 0.11597 0.26951 0.38468 0.0
C1356 C 0.09913 0.25889 0.37944 0.0
C1357 C 0.08988 0.25874 0.36151 0.0
C1358 C 0.09742 0.26927 0.34882 0.0
C1359 C 0.18551 0.29466 0.30512 0.0
C1360 C 0.18185 0.27597 0.2961 0.0
C1361 C 0.17288 0.30184 0.31257 0.0
C1362 C 0.15636 0.2905 0.31095 0.0
C1363 C 0.1526 0.27204 0.30144 0.0
C1364 C 0.16519 0.26484 0.29409 0.0
C1365 C 0.14309 0.29732 0.31992 0.0
C1366 C 0.13556 0.28715 0.33297 0.0
C1367 C 0.13749 0.31321 0.31545 0.0
C1368 C 0.14514 0.32475 0.30207 0.0
C1369 C 0.1452 0.31677 0.28329 0.0
C1370 C 0.15269 0.32773 0.27089 0.0
C1371 C 0.16002 0.34674 0.27706 0.0
C1372 C 0.15982 0.35484 0.29562 0.0
C1373 C 0.15241 0.34392 0.3081 0.0
H1374 H 0.16582 0.35521 0.26743 0.0
H1375 H 0.09326 0.25075 0.38926 0.0
H1376 H 0.98472 0.01918 0.23645 0.0
H1377 H 0.99901 0.02471 0.20903 0.0
H1378 H 0.95022 1.00874 0.17169 0.0
H1379 H 0.93586 1.00379 0.19897 0.0
H1380 H 0.9797 0.99246 0.15975 0.0
H1381 H 0.96319 0.0501 0.18029 0.0
H1382 H 0.96286 0.07663 0.20441 0.0
H1383 H 0.01765 0.09275 0.21464 0.0
H1384 H 0.01829 0.06611 0.19076 0.0
H1385 H 0.99923 0.01819 0.07429 0.0
H1386 H 0.98514 0.01506 0.10178 0.0
H1387 H 0.02906 0.05339 0.13754 0.0
H1388 H 0.04226 0.05824 0.10948 0.0
H1389 H 1.00354 0.05775 0.15181 0.0
H1390 H 0.02114 1.0033 0.12927 0.0
H1391 H 0.02234 0.97851 0.10368 0.0
H1392 H 0.96859 0.95516 0.0989 0.0
H1393 H 0.96685 0.98044 0.1237 0.0
C1394 C 0.97706 0.01675 0.22238 0.0
C1395 C 0.95915 0.01114 0.2199 0.0
C1396 C 0.98524 0.01991 0.20674 0.0
C1397 C 0.97567 0.01709 0.18832 0.0
C1398 C 0.95785 0.01093 0.18576 0.0
C1399 C 0.94966 1.00822 0.20139 0.0
C1400 C 0.98407 0.0214 0.1718 0.0
C1401 C 0.98485 1.00671 0.1579 0.0
C1402 C 0.9912 0.03996 0.16969 0.0
C1403 C 0.99079 0.056 0.18393 0.0
C1404 C 0.97517 0.05919 0.18783 0.0
C1405 C 0.97492 0.07427 0.20142 0.0
C1406 C 0.99022 0.08633 0.2111 0.0
C1407 C 1.0058 0.08337 0.20716 0.0
C1408 C 1.00612 0.0683 0.1936 0.0
C1409 C 1.00563 0.02645 0.08784 0.0
C1410 C 0.02179 0.03857 0.0896 0.0
C1411 C 0.99769 0.02441 0.10372 0.0
C1412 C 1.00625 0.03341 0.12202 0.0
C1413 C 0.02216 0.04611 0.1237 0.0
C1414 C 0.02975 0.04884 0.10762 0.0
C1415 C 0.99908 0.02882 0.13939 0.0
C1416 C 0.99857 0.04344 0.15357 0.0
C1417 C 0.99256 0.01012 0.14193 0.0
C1418 C 0.99383 0.99394 0.12824 0.0
C1419 C 0.00955 0.99293 0.12272 0.0
C1420 C 0.01029 0.97891 0.10819 0.0
C1421 C 0.99553 0.96533 0.0996 0.0
C1422 C 0.98 0.96574 0.10552 0.0
C1423 C 0.97911 0.98 0.11973 0.0
H1424 H 0.99617 0.95439 0.08847 0.0
H1425 H 0.99 0.098 0.22161 0.0
H1426 H 0.32436 0.71366 0.55663 0.0
H1427 H 0.31635 0.72879 0.52977 0.0
H1428 H 0.32819 0.68599 0.49134 0.0
H1429 H 0.33629 0.6707 0.51822 0.0
H1430 H 0.33424 0.74283 0.50262 0.0
H1431 H 0.29634 0.67577 0.45126 0.0
H1432 H 0.28008 0.644 0.45268 0.0
H1433 H 0.26898 0.66328 0.50729 0.0
H1434 H 0.28493 0.69519 0.50606 0.0
H1435 H 0.29591 0.73605 0.39702 0.0
H1436 H 0.30309 0.72086 0.42412 0.0
H1437 H 0.29401 0.76588 0.46217 0.0
H1438 H 0.28683 0.78122 0.43506 0.0
H1439 H 0.28633 0.70801 0.45137 0.0
H1440 H 0.32377 0.77508 0.50254 0.0
H1441 H 0.33967 0.80697 0.50104 0.0
H1442 H 0.35161 0.78772 0.44687 0.0
H1443 H 0.336 0.75569 0.44817 0.0
C1444 C 0.32541 0.70754 0.54248 0.0
C1445 C 0.33086 0.69095 0.53947 0.0
C1446 C 0.32087 0.71624 0.52719 0.0
C1447 C 0.32151 0.70836 0.50863 0.0
C1448 C 0.32746 0.69213 0.5056 0.0
C1449 C 0.33215 0.68348 0.52094 0.0
C1450 C 0.31544 0.7169 0.49241 0.0
C1451 C 0.32365 0.73531 0.49151 0.0
C1452 C 0.30179 0.70693 0.47785 0.0
C1453 C 0.29202 0.68781 0.47866 0.0
C1454 C 0.29039 0.67323 0.46354 0.0
C1455 C 0.28123 0.6552 0.46431 0.0
C1456 C 0.27356 0.65161 0.4801 0.0
C1457 C 0.27499 0.66606 0.49511 0.0
C1458 C 0.28411 0.68411 0.49439 0.0
C1459 C 0.29515 0.74256 0.41113 0.0
C1460 C 0.29089 0.75986 0.41397 0.0
C1461 C 0.2993 0.73389 0.42658 0.0
C1462 C 0.2993 0.74239 0.44512 0.0
C1463 C 0.29437 0.75928 0.44796 0.0
C1464 C 0.2903 0.76802 0.43251 0.0
C1465 C 0.30518 0.73392 0.4615 0.0
C1466 C 0.29692 0.71553 0.46246 0.0
C1467 C 0.3188 0.7439 0.47612 0.0
C1468 C 0.32856 0.76303 0.47538 0.0
C1469 C 0.32985 0.77765 0.49035 0.0
C1470 C 0.3388 0.79575 0.48953 0.0
C1471 C 0.34659 0.79938 0.47384 0.0
C1472 C 0.34552 0.7849 0.45898 0.0
C1473 C 0.33661 0.76678 0.45975 0.0
H1474 H 0.35349 0.81341 0.47322 0.0
H1475 H 0.26649 0.63764 0.48067 0.0
H1476 H 0.61232 0.01799 0.76458 0.0
H1477 H 0.59672 0.0194 0.73324 0.0
H1478 H 0.63 0.99123 0.70612 0.0
H1479 H 0.64541 0.98954 0.73733 0.0
H1480 H 0.6028 0.03555 0.70414 0.0
H1481 H 0.6114 0.96813 0.66149 0.0
H1482 H 0.61438 0.93678 0.6665 0.0
H1483 H 0.58783 0.93976 0.71389 0.0
H1484 H 0.58451 0.97101 0.70901 0.0
H1485 H 0.57488 0.03701 0.60395 0.0
H1486 H 0.59147 0.03556 0.6349 0.0
H1487 H 0.55449 0.98585 0.63928 0.0
H1488 H 0.53822 0.98712 0.60844 0.0
H1489 H 0.58314 0.98053 0.65291 0.0
H1490 H 0.55863 0.03267 0.66578 0.0
H1491 H 0.55265 0.06311 0.6618 0.0
H1492 H 0.60626 0.08928 0.67571 0.0
H1493 H 0.61257 0.05894 0.67955 0.0
C1494 C 0.61625 0.01182 0.75201 0.0
C1495 C 0.63024 1.00341 0.75399 0.0
C1496 C 0.6073 0.01279 0.73384 0.0
C1497 C 0.61177 1.0053 0.71671 0.0
C1498 C 0.62574 0.99688 0.71869 0.0
C1499 C 0.6347 0.99593 0.73682 0.0
C1500 C 0.60204 1.0064 0.69703 0.0
C1501 C 0.59864 0.02344 0.693 0.0
C1502 C 0.59607 0.9908 0.68203 0.0
C1503 C 0.59789 0.97198 0.685 0.0
C1504 C 0.60616 0.96206 0.67294 0.0
C1505 C 0.60792 0.94432 0.67576 0.0
C1506 C 0.60135 0.93631 0.69054 0.0
C1507 C 0.59296 0.94601 0.70249 0.0
C1508 C 0.59116 0.96374 0.69972 0.0
C1509 C 0.57031 0.02569 0.61143 0.0
C1510 C 0.55502 0.0122 0.60334 0.0
C1511 C 0.57981 0.02492 0.62941 0.0
C1512 C 0.5744 0.01068 0.64015 0.0
C1513 C 0.55929 0.99707 0.63178 0.0
C1514 C 0.54984 0.99785 0.61393 0.0
C1515 C 0.58416 0.00976 0.65988 0.0
C1516 C 0.58749 0.99271 0.66396 0.0
C1517 C 0.58982 0.02527 0.67499 0.0
C1518 C 0.58607 0.04351 0.67276 0.0
C1519 C 0.56914 0.0449 0.66787 0.0
C1520 C 0.5657 0.06214 0.66565 0.0
C1521 C 0.57907 0.07811 0.66845 0.0
C1522 C 0.59592 0.07689 0.67352 0.0
C1523 C 0.59944 0.05968 0.67573 0.0
H1524 H 0.57638 0.09144 0.66672 0.0
H1525 H 0.60273 0.92258 0.69271 0.0
H1526 H 0.28305 0.36639 0.99867 0.0
H1527 H 0.27969 0.35232 0.96514 0.0
H1528 H 0.32348 0.3299 0.97867 0.0
H1529 H 0.32682 0.34369 0.01209 0.0
H1530 H 0.32483 0.34802 0.94722 0.0
H1531 H 0.28468 0.30156 0.96974 0.0
H1532 H 0.25996 0.29013 0.98494 0.0
H1533 H 0.22733 0.30846 0.94305 0.0
H1534 H 0.25191 0.32024 0.92775 0.0
H1535 H 0.31896 0.28884 0.85976 0.0
H1536 H 0.32107 0.30209 0.89316 0.0
H1537 H 0.27175 0.31413 0.88019 0.0
H1538 H 0.26925 0.30015 0.847 0.0
H1539 H 0.27295 0.30193 0.91154 0.0
H1540 H 0.31188 0.34871 0.88888 0.0
H1541 H 0.33612 0.36147 0.87352 0.0
H1542 H 0.37036 0.34475 0.91503 0.0
H1543 H 0.34631 0.33168 0.93054 0.0
C1544 C 0.29185 0.3583 0.99454 0.0
C1545 C 0.30517 0.35615 0.00814 0.0
C1546 C 0.28992 0.35026 0.97536 0.0
C1547 C 0.30133 0.34001 0.96934 0.0
C1548 C 0.31454 0.33775 0.98292 0.0
C1549 C 0.31636 0.34559 1.00208 0.0
C1550 C 0.29983 0.33199 0.94888 0.0
C1551 C 0.31356 0.33777 0.93946 0.0
C1552 C 0.28495 0.31905 0.93855 0.0
C1553 C 0.27017 0.31196 0.94773 0.0
C1554 C 0.27226 0.30331 0.96387 0.0
C1555 C 0.25827 0.29673 0.97248 0.0
C1556 C 0.24209 0.29862 0.965 0.0
C1557 C 0.23987 0.30704 0.94886 0.0
C1558 C 0.25382 0.31365 0.9402 0.0
C1559 C 0.30859 0.29438 0.86399 0.0
C1560 C 0.29397 0.29346 0.85061 0.0
C1561 C 0.30985 0.30208 0.88314 0.0
C1562 C 0.29671 0.30949 0.88933 0.0
C1563 C 0.2821 0.30855 0.87593 0.0
C1564 C 0.28071 0.30058 0.85687 0.0
C1565 C 0.298 0.31792 0.90973 0.0
C1566 C 0.28423 0.31222 0.91919 0.0
C1567 C 0.31277 0.33118 0.92003 0.0
C1568 C 0.32726 0.33905 0.91076 0.0
C1569 C 0.32456 0.34763 0.89466 0.0
C1570 C 0.33827 0.35494 0.88593 0.0
C1571 C 0.35475 0.35387 0.89326 0.0
C1572 C 0.35758 0.34554 0.90936 0.0
C1573 C 0.34392 0.3382 0.91813 0.0
H1574 H 0.36534 0.35954 0.88648 0.0
H1575 H 0.23128 0.29351 0.97169 0.0
H1576 H 0.98296 0.98918 0.32473 0.0
H1577 H 0.99529 0.99468 0.35849 0.0
H1578 H 0.97447 0.0428 0.36756 0.0
H1579 H 0.96185 0.03727 0.33361 0.0
H1580 H 0.00947 0.04748 0.3876 0.0
H1581 H 0.95362 1.00613 0.37915 0.0
H1582 H 0.93078 0.97842 0.36404 0.0
H1583 H 0.9633 0.94278 0.37992 0.0
H1584 H 0.98644 0.97031 0.39487 0.0
H1585 H 0.02115 0.05267 0.48909 0.0
H1586 H 0.01065 0.05249 0.45547 0.0
H1587 H 0.0167 0.99651 0.4417 0.0
H1588 H 0.02639 0.99632 0.47532 0.0
H1589 H 0.988 0.99763 0.42397 0.0
H1590 H 0.04419 0.038 0.43169 0.0
H1591 H 0.06784 0.06521 0.44607 0.0
H1592 H 0.03626 0.10205 0.43115 0.0
H1593 H 0.01233 0.07507 0.41696 0.0
C1594 C 0.98113 1.00108 0.3338 0.0
C1595 C 0.97132 0.01273 0.32644 0.0
C1596 C 0.98818 1.00418 0.35313 0.0
C1597 C 0.9857 0.01906 0.36558 0.0
C1598 C 0.97655 0.03123 0.3582 0.0
C1599 C 0.96931 0.02802 0.33881 0.0
C1600 C 0.99183 0.02107 0.3864 0.0
C1601 C 1.00465 0.03674 0.39568 0.0
C1602 C 0.98577 1.00687 0.39681 0.0
C1603 C 0.97182 0.99029 0.38798 0.0
C1604 C 0.95595 0.99239 0.37929 0.0
C1605 C 0.94294 0.97672 0.37077 0.0
C1606 C 0.9456 0.95885 0.37098 0.0
C1607 C 0.96126 0.95663 0.37975 0.0
C1608 C 0.97433 0.97226 0.38826 0.0
C1609 C 0.02035 0.04037 0.47887 0.0
C1610 C 0.02455 0.02447 0.48492 0.0
C1611 C 0.01442 0.04032 0.45958 0.0
C1612 C 0.01299 0.02454 0.44586 0.0
C1613 C 0.01756 1.00884 0.45192 0.0
C1614 C 0.02317 1.00876 0.47119 0.0
C1615 C 1.00605 0.02391 0.42534 0.0
C1616 C 0.99293 1.00847 0.41605 0.0
C1617 C 0.01201 0.03826 0.41494 0.0
C1618 C 0.02641 0.0545 0.42343 0.0
C1619 C 0.04225 0.0519 0.43161 0.0
C1620 C 0.05571 0.06729 0.43971 0.0
C1621 C 0.05355 0.08535 0.43955 0.0
C1622 C 0.03792 0.08806 0.43128 0.0
C1623 C 0.0244 0.07273 0.4232 0.0
H1624 H 0.064 0.09724 0.44581 0.0
H1625 H 0.93551 0.94674 0.36438 0.0
H1626 H 0.36221 0.66443 0.65437 0.0
H1627 H 0.36047 0.68715 0.68124 0.0
H1628 H 0.37377 0.73153 0.64903 0.0
H1629 H 0.37552 0.709 0.62217 0.0
H1630 H 0.37681 0.72936 0.70306 0.0
H1631 H 0.33527 0.73846 0.63685 0.0
H1632 H 0.32114 0.7211 0.60494 0.0
H1633 H 0.31403 0.6696 0.62706 0.0
H1634 H 0.3279 0.6867 0.65909 0.0
H1635 H 0.33594 0.79634 0.73848 0.0
H1636 H 0.35022 0.78087 0.71566 0.0
H1637 H 0.30726 0.73286 0.70346 0.0
H1638 H 0.29254 0.74899 0.72511 0.0
H1639 H 0.32059 0.73694 0.67282 0.0
H1640 H 0.34213 0.73542 0.73868 0.0
H1641 H 0.35255 0.75296 0.77128 0.0
H1642 H 0.39606 0.78492 0.75286 0.0
H1643 H 0.38581 0.76775 0.72009 0.0
C1644 C 0.36583 0.67913 0.65344 0.0
C1645 C 0.36847 0.68496 0.63603 0.0
C1646 C 0.36487 0.69212 0.66886 0.0
C1647 C 0.36664 0.71089 0.66687 0.0
C1648 C 0.3723 0.71706 0.65074 0.0
C1649 C 0.3732 0.70414 0.63535 0.0
C1650 C 0.35747 0.72222 0.67785 0.0
C1651 C 0.36458 0.73111 0.69651 0.0
C1652 C 0.34133 0.72409 0.66939 0.0
C1653 C 0.33273 0.71382 0.65025 0.0
C1654 C 0.33063 0.72344 0.63487 0.0
C1655 C 0.32268 0.71365 0.61679 0.0
C1656 C 0.3167 0.69426 0.61399 0.0
C1657 C 0.31867 0.68461 0.62925 0.0
C1658 C 0.32659 0.69434 0.64735 0.0
C1659 C 0.3294 0.78275 0.73038 0.0
C1660 C 0.31344 0.7735 0.7337 0.0
C1661 C 0.33758 0.77385 0.71755 0.0
C1662 C 0.33004 0.75546 0.7084 0.0
C1663 C 0.31342 0.74693 0.71058 0.0
C1664 C 0.30512 0.756 0.72308 0.0
C1665 C 0.33993 0.74442 0.69806 0.0
C1666 C 0.33289 0.73541 0.67944 0.0
C1667 C 0.35579 0.74196 0.70688 0.0
C1668 C 0.36316 0.75042 0.72694 0.0
C1669 C 0.354 0.74608 0.74164 0.0
C1670 C 0.35979 0.75604 0.76009 0.0
C1671 C 0.37479 0.77022 0.76403 0.0
C1672 C 0.38434 0.77405 0.7497 0.0
C1673 C 0.37859 0.76417 0.7312 0.0
H1674 H 0.37907 0.77815 0.77823 0.0
H1675 H 0.31046 0.68671 0.60002 0.0
H1676 H 0.61087 0.04386 0.85613 0.0
H1677 H 0.59661 0.0458 0.88386 0.0
H1678 H 0.62103 1.00538 0.90589 0.0
H1679 H 0.6348 1.00293 0.87769 0.0
H1680 H 0.59255 0.99819 0.91628 0.0
H1681 H 0.63159 0.05767 0.92412 0.0
H1682 H 0.64557 0.08763 0.91559 0.0
H1683 H 0.59771 0.10322 0.90873 0.0
H1684 H 0.58341 0.07325 0.91701 0.0
H1685 H 0.58109 0.03608 0.01571 0.0
H1686 H 0.59531 0.03363 0.98772 0.0
H1687 H 0.54789 0.02965 0.95094 0.0
H1688 H 0.5335 0.03146 0.97871 0.0
H1689 H 0.58858 0.05922 0.94932 0.0
H1690 H 0.54994 0.99639 0.93985 0.0
H1691 H 0.53839 0.96696 0.95095 0.0
H1692 H 0.58895 0.95867 0.9636 0.0
H1693 H 0.60082 0.98832 0.95301 0.0
C1694 C 0.61329 0.03532 0.86682 0.0
C1695 C 0.62428 0.02325 0.86422 0.0
C1696 C 0.60513 0.03659 0.88307 0.0
C1697 C 0.6077 0.02611 0.89792 0.0
C1698 C 0.61852 0.01384 0.89516 0.0
C1699 C 0.62657 0.01246 0.8788 0.0
C1700 C 0.59915 0.0278 0.91595 0.0
C1701 C 0.5919 0.01169 0.92336 0.0
C1702 C 0.59788 0.04516 0.92602 0.0
C1703 C 0.6064 0.06314 0.92098 0.0
C1704 C 0.62403 0.06744 0.92066 0.0
C1705 C 0.63201 0.08443 0.91589 0.0
C1706 C 0.62252 0.09729 0.91156 0.0
C1707 C 0.60504 0.09322 0.91205 0.0
C1708 C 0.59699 0.07624 0.91679 0.0
C1709 C 0.57357 0.03468 1.00172 0.0
C1710 C 0.55589 0.03398 0.99994 0.0
C1711 C 0.58182 0.03323 0.98551 0.0
C1712 C 0.57289 0.03126 0.96671 0.0
C1713 C 0.55534 0.03096 0.96496 0.0
C1714 C 0.54703 0.03205 0.98109 0.0
C1715 C 0.58176 0.02968 0.94911 0.0
C1716 C 0.58919 0.0458 0.94199 0.0
C1717 C 0.58337 0.01241 0.93946 0.0
C1718 C 0.57628 0.99472 0.94597 0.0
C1719 C 0.55861 0.98845 0.94531 0.0
C1720 C 0.552 0.9717 0.95144 0.0
C1721 C 0.56293 0.96099 0.95807 0.0
C1722 C 0.5805 0.96701 0.95856 0.0
C1723 C 0.58717 0.9838 0.95251 0.0
H1724 H 0.55777 0.94797 0.96272 0.0
H1725 H 0.62873 0.11044 0.90788 0.0
H1726 H 0.3064 0.39441 0.13581 0.0
H1727 H 0.30346 0.37778 0.16287 0.0
H1728 H 0.2988 0.32578 0.12626 0.0
H1729 H 0.30183 0.34231 0.09911 0.0
H1730 H 0.27486 0.32285 0.15035 0.0
H1731 H 0.33566 0.34642 0.15615 0.0
H1732 H 0.36218 0.37076 0.15861 0.0
H1733 H 0.35188 0.39961 0.20963 0.0
H1734 H 0.32516 0.37556 0.20732 0.0
H1735 H 0.28435 0.26574 0.22067 0.0
H1736 H 0.28838 0.2829 0.19414 0.0
H1737 H 0.29934 0.33493 0.23284 0.0
H1738 H 0.29571 0.31777 0.25948 0.0
H1739 H 0.31991 0.33846 0.20789 0.0
H1740 H 0.25979 0.31671 0.203 0.0
H1741 H 0.23251 0.29377 0.20129 0.0
H1742 H 0.24023 0.26345 0.14965 0.0
H1743 H 0.26769 0.28608 0.15118 0.0
C1744 C 0.30472 0.37942 0.13344 0.0
C1745 C 0.3044 0.36977 0.11516 0.0
C1746 C 0.30311 0.36992 0.14901 0.0
C1747 C 0.30104 0.35048 0.14675 0.0
C1748 C 0.3004 0.34076 0.12846 0.0
C1749 C 0.3022 0.35028 0.11292 0.0
C1750 C 0.29954 0.3403 0.16339 0.0
C1751 C 0.28483 0.3261 0.16281 0.0
C1752 C 0.31224 0.34486 0.18001 0.0
C1753 C 0.32832 0.35929 0.18145 0.0
C1754 C 0.33898 0.35804 0.16781 0.0
C1755 C 0.35406 0.37176 0.16919 0.0
C1756 C 0.35869 0.38675 0.18424 0.0
C1757 C 0.34826 0.38801 0.19797 0.0
C1758 C 0.33316 0.37432 0.19664 0.0
C1759 C 0.28776 0.28084 0.22356 0.0
C1760 C 0.28964 0.29035 0.24222 0.0
C1761 C 0.28994 0.29069 0.20832 0.0
C1762 C 0.29387 0.31032 0.21127 0.0
C1763 C 0.29627 0.31983 0.23003 0.0
C1764 C 0.29418 0.30998 0.2453 0.0
C1765 C 0.29527 0.32085 0.19482 0.0
C1766 C 0.30993 0.33516 0.19544 0.0
C1767 C 0.2824 0.3166 0.17834 0.0
C1768 C 0.26588 0.30298 0.17731 0.0
C1769 C 0.25573 0.30507 0.19135 0.0
C1770 C 0.24023 0.29214 0.19041 0.0
C1771 C 0.23467 0.27713 0.1754 0.0
C1772 C 0.24457 0.27506 0.16128 0.0
C1773 C 0.2601 0.28795 0.16217 0.0
H1774 H 0.22266 0.26713 0.17469 0.0
H1775 H 0.37037 0.39736 0.18529 0.0
H1776 H 0.18696 0.87108 0.99632 0.0
H1777 H 0.16612 0.89022 0.99349 0.0
H1778 H 0.17964 0.91087 0.05386 0.0
H1779 H 0.19991 0.89156 0.05686 0.0
H1780 H 0.14689 0.90673 0.04301 0.0
H1781 H 0.19907 0.93366 0.01981 0.0
H1782 H 0.22006 0.93363 0.9982 0.0
H1783 H 0.1804 0.92731 0.95008 0.0
H1784 H 0.15915 0.9271 0.97143 0.0
H1785 H 0.14479 0.99872 0.06648 0.0
H1786 H 0.156 0.97162 0.0577 0.0
H1787 H 0.12587 0.96174 1.00145 0.0
H1788 H 0.11441 0.98878 0.01019 0.0
H1789 H 0.16012 0.95593 1.00311 0.0
H1790 H 0.10998 0.93823 0.03052 0.0
H1791 H 0.09243 0.94338 0.05489 0.0
H1792 H 0.13061 0.93431 0.09778 0.0
H1793 H 0.14878 0.92992 0.07374 0.0
C1794 C 0.1852 0.87942 0.00902 0.0
C1795 C 0.19523 0.88004 0.02677 0.0
C1796 C 0.17335 0.89038 0.00737 0.0
C1797 C 0.17155 0.90219 0.02341 0.0
C1798 C 0.1808 0.90187 0.04128 0.0
C1799 C 0.1925 0.89089 0.04295 0.0
C1800 C 0.1614 0.91627 0.02178 0.0
C1801 C 0.14969 0.9174 0.03418 0.0
C1802 C 0.16477 0.92999 0.00995 0.0
C1803 C 0.17752 0.9301 0.99716 0.0
C1804 C 0.19483 0.93213 1.00461 0.0
C1805 C 0.20676 0.93217 0.99242 0.0
C1806 C 0.20155 0.9304 0.97277 0.0
C1807 C 0.1844 0.92863 0.96529 0.0
C1808 C 0.17241 0.92854 0.97742 0.0
C1809 C 0.1407 0.9909 0.05218 0.0
C1810 C 0.12859 0.9957 0.0391 0.0
C1811 C 0.14712 0.97549 0.04718 0.0
C1812 C 0.14149 0.96458 0.02906 0.0
C1813 C 0.13029 0.97001 0.01551 0.0
C1814 C 0.12382 0.98547 0.02052 0.0
C1815 C 0.14639 0.94678 0.02499 0.0
C1816 C 0.15694 0.94493 0.01147 0.0
C1817 C 0.14221 0.93257 0.03604 0.0
C1818 C 0.13081 0.93388 0.05031 0.0
C1819 C 0.11468 0.9374 0.04515 0.0
C1820 C 0.10464 0.94025 0.05894 0.0
C1821 C 0.1104 0.93919 0.07791 0.0
C1822 C 0.1262 0.93521 0.0831 0.0
C1823 C 0.13639 0.93256 0.06939 0.0
H1824 H 0.10261 0.94138 0.08859 0.0
H1825 H 0.21081 0.93044 0.96336 0.0
H1826 H 0.7078 0.63955 1.00512 0.0
H1827 H 0.67881 0.62356 0.00749 0.0
H1828 H 0.69766 0.57894 0.02843 0.0
H1829 H 0.7268 0.59507 0.02646 0.0
H1830 H 0.65717 0.59233 0.99223 0.0
H1831 H 0.67402 0.56092 0.06014 0.0
H1832 H 0.69615 0.56806 0.08898 0.0
H1833 H 0.70661 0.62623 0.08447 0.0
H1834 H 0.6844 0.61947 0.05577 0.0
H1835 H 0.58558 0.52371 1.00352 0.0
H1836 H 0.61392 0.54136 1.0008 0.0
H1837 H 0.61496 0.57941 0.05169 0.0
H1838 H 0.58659 0.56135 0.05471 0.0
H1839 H 0.64497 0.57178 0.05288 0.0
H1840 H 0.60856 0.59152 0.00632 0.0
H1841 H 0.58559 0.58788 0.97888 0.0
H1842 H 0.61297 0.55947 0.94301 0.0
H1843 H 0.636 0.56269 0.97031 0.0
C1844 C 0.70583 0.62626 0.01009 0.0
C1845 C 0.71981 0.61872 0.01565 0.0
C1846 C 0.68915 0.61708 0.01143 0.0
C1847 C 0.68589 0.60011 0.01845 0.0
C1848 C 0.69974 0.59218 0.02334 0.0
C1849 C 0.71646 0.60138 0.02205 0.0
C1850 C 0.66811 0.59094 0.0209 0.0
C1851 C 0.65457 0.5878 1.0055 0.0
C1852 C 0.6644 0.58542 0.03833 0.0
C1853 C 0.67767 0.58964 0.05569 0.0
C1854 C 0.68101 0.57524 0.06534 0.0
C1855 C 0.69357 0.57922 0.08166 0.0
C1856 C 0.70282 0.59758 0.08851 0.0
C1857 C 0.69949 0.61201 0.0791 0.0
C1858 C 0.68692 0.6081 0.0628 0.0
C1859 C 0.59178 0.5359 0.0141 0.0
C1860 C 0.58374 0.54115 0.02929 0.0
C1861 C 0.60802 0.54607 0.01248 0.0
C1862 C 0.61667 0.56196 0.02589 0.0
C1863 C 0.60865 0.56725 0.04111 0.0
C1864 C 0.59236 0.55699 0.04278 0.0
C1865 C 0.63412 0.57275 0.02406 0.0
C1866 C 0.64759 0.57624 0.03959 0.0
C1867 C 0.63769 0.57905 0.0069 0.0
C1868 C 0.62394 0.57721 0.9904 0.0
C1869 C 0.60963 0.58439 0.99261 0.0
C1870 C 0.59661 0.58241 0.97708 0.0
C1871 C 0.5978 0.57341 0.95922 0.0
C1872 C 0.61206 0.56642 0.95685 0.0
C1873 C 0.62511 0.56833 0.97235 0.0
H1874 H 0.5877 0.57189 0.94722 0.0
H1875 H 0.71255 0.60063 0.10113 0.0
H1876 H 0.66712 0.48278 0.33115 0.0
H1877 H 0.67972 0.45605 0.33416 0.0
H1878 H 0.69532 0.45929 0.27955 0.0
H1879 H 0.68271 0.48573 0.27639 0.0
H1880 H 0.68185 0.4237 0.28273 0.0
H1881 H 0.72354 0.47659 0.32101 0.0
H1882 H 0.7337 0.50372 0.34677 0.0
H1883 H 0.72102 0.46851 0.38807 0.0
H1884 H 0.71057 0.44119 0.36251 0.0
H1885 H 0.7499 0.37989 0.282 0.0
H1886 H 0.73177 0.40191 0.28271 0.0
H1887 H 0.71973 0.38844 0.33658 0.0
H1888 H 0.73818 0.36649 0.33612 0.0
H1889 H 0.72818 0.42644 0.33644 0.0
H1890 H 0.69167 0.37235 0.29742 0.0
H1891 H 0.68387 0.34572 0.27118 0.0
H1892 H 0.68678 0.38313 0.23043 0.0
H1893 H 0.69559 0.41007 0.25643 0.0
C1894 C 0.67322 0.47777 0.31979 0.0
C1895 C 0.67396 0.48646 0.30357 0.0
C1896 C 0.68044 0.46251 0.32154 0.0
C1897 C 0.68856 0.4557 0.30712 0.0
C1898 C 0.68909 0.46422 0.29084 0.0
C1899 C 0.68194 0.47944 0.2891 0.0
C1900 C 0.69685 0.43995 0.30894 0.0
C1901 C 0.69204 0.42432 0.29441 0.0
C1902 C 0.70982 0.4405 0.32447 0.0
C1903 C 0.71607 0.4569 0.33984 0.0
C1904 C 0.72278 0.47467 0.33557 0.0
C1905 C 0.72862 0.49007 0.35013 0.0
C1906 C 0.72795 0.48785 0.36904 0.0
C1907 C 0.72149 0.47021 0.37342 0.0
C1908 C 0.71561 0.45476 0.3589 0.0
C1909 C 0.74343 0.38162 0.29404 0.0
C1910 C 0.74554 0.37148 0.30904 0.0
C1911 C 0.73297 0.39412 0.29436 0.0
C1912 C 0.7243 0.39675 0.30964 0.0
C1913 C 0.72628 0.38661 0.32463 0.0
C1914 C 0.73671 0.37397 0.32427 0.0
C1915 C 0.71349 0.41042 0.30996 0.0
C1916 C 0.7178 0.42564 0.3249 0.0
C1917 C 0.70013 0.40951 0.29472 0.0
C1918 C 0.69444 0.3933 0.27896 0.0
C1919 C 0.69083 0.37495 0.28289 0.0
C1920 C 0.68622 0.35978 0.26804 0.0
C1921 C 0.6847 0.36272 0.24915 0.0
C1922 C 0.68793 0.38087 0.24507 0.0
C1923 C 0.69282 0.39611 0.25988 0.0
H1924 H 0.68105 0.35093 0.23768 0.0
H1925 H 0.73249 0.49979 0.3803 0.0
H1926 H 0.7826 0.44179 0.55481 0.0
H1927 H 0.80762 0.46794 0.55922 0.0
H1928 H 0.8199 0.44584 0.50589 0.0
H1929 H 0.79485 0.41995 0.50121 0.0
H1930 H 0.83858 0.46237 0.5642 0.0
H1931 H 0.84474 0.47824 0.48788 0.0
H1932 H 0.82613 0.4816 0.45909 0.0
H1933 H 0.79032 0.49628 0.49308 0.0
H1934 H 0.80882 0.49327 0.52213 0.0
H1935 H 0.91909 0.47513 0.53858 0.0
H1936 H 0.88943 0.46734 0.54318 0.0
H1937 H 0.8875 0.52481 0.54411 0.0
H1938 H 0.91736 0.53271 0.53943 0.0
H1939 H 0.86192 0.50014 0.51763 0.0
H1940 H 0.87935 0.50743 0.58602 0.0
H1941 H 0.89632 0.50389 0.61599 0.0
H1942 H 0.88432 0.44461 0.59815 0.0
H1943 H 0.86673 0.44774 0.56843 0.0
C1944 C 0.79032 0.4428 0.54374 0.0
C1945 C 0.78688 0.42862 0.52779 0.0
C1946 C 0.80464 0.45775 0.5463 0.0
C1947 C 0.81565 0.45884 0.53292 0.0
C1948 C 0.81148 0.44547 0.51629 0.0
C1949 C 0.79717 0.43056 0.51369 0.0
C1950 C 0.83273 0.47196 0.53755 0.0
C1951 C 0.84355 0.47093 0.55417 0.0
C1952 C 0.83923 0.48327 0.5246 0.0
C1953 C 0.82817 0.48547 0.50721 0.0
C1954 C 0.83297 0.48233 0.48925 0.0
C1955 C 0.82241 0.48413 0.47287 0.0
C1956 C 0.80704 0.48913 0.47425 0.0
C1957 C 0.80221 0.49237 0.49202 0.0
C1958 C 0.81272 0.49059 0.50845 0.0
C1959 C 0.91241 0.48615 0.54001 0.0
C1960 C 0.92042 0.50447 0.53846 0.0
C1961 C 0.89554 0.48173 0.54287 0.0
C1962 C 0.88632 0.49553 0.54414 0.0
C1963 C 0.89446 0.51401 0.54331 0.0
C1964 C 0.91148 0.51849 0.54067 0.0
C1965 C 0.86772 0.48993 0.54387 0.0
C1966 C 0.8567 0.49217 0.52797 0.0
C1967 C 0.86095 0.47978 0.55747 0.0
C1968 C 0.87184 0.47783 0.57502 0.0
C1969 C 0.88039 0.49366 0.58849 0.0
C1970 C 0.89002 0.49171 0.60546 0.0
C1971 C 0.89155 0.47407 0.60888 0.0
C1972 C 0.88319 0.45828 0.59546 0.0
C1973 C 0.87324 0.4601 0.57865 0.0
H1974 H 0.89915 0.47263 0.62195 0.0
H1975 H 0.79888 0.4905 0.46155 0.0
H1976 H 0.39344 0.11577 0.29648 0.0
H1977 H 0.38149 0.14316 0.29793 0.0
H1978 H 0.33693 0.11151 0.25808 0.0
H1979 H 0.34956 0.0845 0.25568 0.0
H1980 H 0.33881 0.14237 0.25006 0.0
H1981 H 0.34244 0.12947 0.31408 0.0
H1982 H 0.35621 0.1242 0.34503 0.0
H1983 H 0.39099 0.1781 0.35304 0.0
H1984 H 0.37754 0.18359 0.32203 0.0
H1985 H 0.287 0.20786 0.27029 0.0
H1986 H 0.30026 0.1813 0.26828 0.0
H1987 H 0.34835 0.21749 0.29659 0.0
H1988 H 0.33514 0.24414 0.29843 0.0
H1989 H 0.3449 0.18515 0.3106 0.0
H1990 H 0.33942 0.19806 0.2468 0.0
H1991 H 0.32434 0.20312 0.21645 0.0
H1992 H 0.29122 0.14831 0.20887 0.0
H1993 H 0.30597 0.14301 0.23931 0.0
C1994 C 0.38105 0.11448 0.28801 0.0
C1995 C 0.37266 0.09735 0.27603 0.0
C1996 C 0.37393 0.13041 0.28903 0.0
C1997 C 0.35766 0.13009 0.27861 0.0
C1998 C 0.34936 0.11292 0.26652 0.0
C1999 C 0.35667 0.09711 0.26518 0.0
C2000 C 0.34951 0.14734 0.27993 0.0
C2001 C 0.34004 0.15136 0.26352 0.0
C2002 C 0.35095 0.16013 0.29711 0.0
C2003 C 0.3591 0.15685 0.31567 0.0
C2004 C 0.35309 0.14014 0.3224 0.0
C2005 C 0.36083 0.13712 0.33995 0.0
C2006 C 0.3745 0.15078 0.35097 0.0
C2007 C 0.38043 0.16751 0.34447 0.0
C2008 C 0.37274 0.17059 0.32692 0.0
C2009 C 0.30045 0.21037 0.27604 0.0
C2010 C 0.30975 0.22872 0.28446 0.0
C2011 C 0.30818 0.19491 0.27481 0.0
C2012 C 0.32567 0.19677 0.28209 0.0
C2013 C 0.33494 0.21506 0.29072 0.0
C2014 C 0.32726 0.23059 0.29171 0.0
C2015 C 0.33412 0.17987 0.28084 0.0
C2016 C 0.34366 0.17601 0.29722 0.0
C2017 C 0.33254 0.16709 0.26372 0.0
C2018 C 0.32369 0.17021 0.24542 0.0
C2019 C 0.32884 0.18714 0.23873 0.0
C2020 C 0.32036 0.19004 0.2215 0.0
C2021 C 0.3068 0.17607 0.21077 0.0
C2022 C 0.30171 0.15913 0.21722 0.0
C2023 C 0.31013 0.15617 0.23445 0.0
H2024 H 0.30025 0.17834 0.19743 0.0
H2025 H 0.38047 0.14842 0.36455 0.0
H2026 H 0.3229 0.1271 0.50982 0.0
H2027 H 0.34855 0.11491 0.51147 0.0
H2028 H 0.3336 0.08614 0.55705 0.0
H2029 H 0.30817 0.0985 0.55567 0.0
H2030 H 0.36624 0.10255 0.5658 0.0
H2031 H 0.33039 0.06326 0.51005 0.0
H2032 H 0.31243 0.05636 0.47821 0.0
H2033 H 0.35469 0.08445 0.45481 0.0
H2034 H 0.37286 0.09173 0.48657 0.0
H2035 H 0.42269 0.04268 0.56823 0.0
H2036 H 0.39767 0.05561 0.56456 0.0
H2037 H 0.41576 0.08318 0.51955 0.0
H2038 H 0.44096 0.07025 0.52315 0.0
H2039 H 0.38235 0.06867 0.50996 0.0
H2040 H 0.41841 0.1073 0.56532 0.0
H2041 H 0.43651 0.11433 0.59708 0.0
H2042 H 0.39401 0.08791 0.62117 0.0
H2043 H 0.37569 0.08049 0.58949 0.0
C2044 C 0.32499 0.11806 0.52011 0.0
C2045 C 0.31335 0.11378 0.53257 0.0
C2046 C 0.3397 0.11102 0.52101 0.0
C2047 C 0.3431 0.09939 0.53431 0.0
C2048 C 0.33141 0.09506 0.54667 0.0
C2049 C 0.31676 0.1021 0.5458 0.0
C2050 C 0.35896 0.09208 0.53576 0.0
C2051 C 0.36959 0.09493 0.55359 0.0
C2052 C 0.36382 0.08258 0.51982 0.0
C2053 C 0.35292 0.07821 0.50072 0.0
C2054 C 0.33581 0.0681 0.49814 0.0
C2055 C 0.3256 0.06409 0.4801 0.0
C2056 C 0.3324 0.07001 0.46451 0.0
C2057 C 0.34944 0.0799 0.46691 0.0
C2058 C 0.3597 0.08396 0.48492 0.0
C2059 C 0.42154 0.05169 0.55768 0.0
C2060 C 0.4341 0.0555 0.54614 0.0
C2061 C 0.40711 0.05908 0.55556 0.0
C2062 C 0.40479 0.0707 0.54196 0.0
C2063 C 0.41715 0.07431 0.53018 0.0
C2064 C 0.4316 0.06685 0.53225 0.0
C2065 C 0.38949 0.07895 0.54005 0.0
C2066 C 0.379 0.07632 0.52215 0.0
C2067 C 0.38476 0.0887 0.55592 0.0
C2068 C 0.39572 0.09319 0.575 0.0
C2069 C 0.41295 0.10287 0.57737 0.0
C2070 C 0.42325 0.10694 0.59536 0.0
C2071 C 0.41643 0.10153 0.61112 0.0
C2072 C 0.39928 0.09207 0.60894 0.0
C2073 C 0.38893 0.08795 0.59097 0.0
H2074 H 0.42442 0.10469 0.62504 0.0
H2075 H 0.32447 0.0669 0.45055 0.0
H2076 H 0.68023 0.58327 0.28073 0.0
H2077 H 0.69977 0.61304 0.28025 0.0
H2078 H 0.70875 0.62435 0.34175 0.0
H2079 H 0.68777 0.59519 0.34199 0.0
H2080 H 0.70903 0.65451 0.33198 0.0
H2081 H 0.73872 0.60988 0.31207 0.0
H2082 H 0.74391 0.58194 0.29387 0.0
H2083 H 0.73648 0.60458 0.24222 0.0
H2084 H 0.73102 0.63256 0.26007 0.0
H2085 H 0.78601 0.72531 0.3299 0.0
H2086 H 0.76666 0.69637 0.33412 0.0
H2087 H 0.73884 0.69152 0.2774 0.0
H2088 H 0.75798 0.72055 0.2732 0.0
H2089 H 0.7502 0.65851 0.28716 0.0
H2090 H 0.72289 0.70595 0.3133 0.0
H2091 H 0.72313 0.73361 0.3363 0.0
H2092 H 0.73239 0.70424 0.38267 0.0
H2093 H 0.73287 0.67662 0.3601 0.0
C2094 C 0.68646 0.59211 0.29413 0.0
C2095 C 0.6827 0.58689 0.3114 0.0
C2096 C 0.69778 0.60911 0.29389 0.0
C2097 C 0.70631 0.62091 0.31099 0.0
C2098 C 0.70249 0.61561 0.32832 0.0
C2099 C 0.69059 0.59889 0.3285 0.0
C2100 C 0.71885 0.63884 0.31063 0.0
C2101 C 0.71818 0.65522 0.32235 0.0
C2102 C 0.73103 0.64006 0.29824 0.0
C2103 C 0.73431 0.62326 0.2874 0.0
C2104 C 0.73808 0.60885 0.29681 0.0
C2105 C 0.74108 0.59301 0.28656 0.0
C2106 C 0.74048 0.59147 0.2669 0.0
C2107 C 0.73692 0.60579 0.25745 0.0
C2108 C 0.73389 0.62165 0.26763 0.0
C2109 C 0.77569 0.71811 0.31839 0.0
C2110 C 0.77345 0.72514 0.30123 0.0
C2111 C 0.76465 0.70163 0.32084 0.0
C2112 C 0.75131 0.69184 0.30608 0.0
C2113 C 0.74905 0.69889 0.28896 0.0
C2114 C 0.75993 0.71548 0.2866 0.0
C2115 C 0.74002 0.6739 0.30816 0.0
C2116 C 0.74102 0.65759 0.29678 0.0
C2117 C 0.72881 0.67266 0.32153 0.0
C2118 C 0.72808 0.68923 0.33498 0.0
C2119 C 0.72514 0.70542 0.3284 0.0
C2120 C 0.72512 0.72109 0.34135 0.0
C2121 C 0.72772 0.72067 0.36088 0.0
C2122 C 0.73038 0.70456 0.36753 0.0
C2123 C 0.73056 0.68891 0.35467 0.0
H2124 H 0.72768 0.73282 0.37086 0.0
H2125 H 0.74281 0.57919 0.25898 0.0
H2126 H 0.88561 0.49079 0.81252 0.0
H2127 H 0.87099 0.45887 0.81408 0.0
H2128 H 0.84969 0.4506 0.75441 0.0
H2129 H 0.86344 0.4833 0.7533 0.0
H2130 H 0.82769 0.42971 0.76774 0.0
H2131 H 0.88774 0.4334 0.77788 0.0
H2132 H 0.91789 0.4458 0.79313 0.0
H2133 H 0.90527 0.43326 0.84679 0.0
H2134 H 0.875 0.42094 0.8319 0.0
H2135 H 0.80798 0.32888 0.75985 0.0
H2136 H 0.8206 0.36147 0.7575 0.0
H2137 H 0.83395 0.37465 0.81858 0.0
H2138 H 0.82127 0.34217 0.821 0.0
H2139 H 0.86008 0.39234 0.80357 0.0
H2140 H 0.7997 0.38774 0.79202 0.0
H2141 H 0.76997 0.37465 0.77566 0.0
H2142 H 0.78416 0.38786 0.72282 0.0
H2143 H 0.81405 0.4008 0.73882 0.0
C2144 C 0.87757 0.48234 0.79973 0.0
C2145 C 0.87576 0.49005 0.78282 0.0
C2146 C 0.86936 0.46368 0.80053 0.0
C2147 C 0.8595 0.45135 0.78421 0.0
C2148 C 0.85719 0.45925 0.76737 0.0
C2149 C 0.86507 0.47821 0.76671 0.0
C2150 C 0.85185 0.43052 0.78477 0.0
C2151 C 0.83503 0.42163 0.77538 0.0
C2152 C 0.86087 0.41929 0.79487 0.0
C2153 C 0.87908 0.4264 0.8038 0.0
C2154 C 0.89139 0.43335 0.79295 0.0
C2155 C 0.9085 0.44036 0.80153 0.0
C2156 C 0.91348 0.44036 0.82093 0.0
C2157 C 0.90138 0.43326 0.83177 0.0
C2158 C 0.88425 0.42624 0.82326 0.0
C2159 C 0.81359 0.33863 0.77285 0.0
C2160 C 0.8134 0.33245 0.79065 0.0
C2161 C 0.82081 0.35753 0.77149 0.0
C2162 C 0.82829 0.37113 0.78785 0.0
C2163 C 0.82838 0.36486 0.80559 0.0
C2164 C 0.821 0.34605 0.80697 0.0
C2165 C 0.83601 0.39168 0.7866 0.0
C2166 C 0.85283 0.40048 0.79589 0.0
C2167 C 0.8271 0.4027 0.77619 0.0
C2168 C 0.80914 0.39506 0.76658 0.0
C2169 C 0.79651 0.38773 0.77689 0.0
C2170 C 0.77962 0.38036 0.76768 0.0
C2171 C 0.77519 0.38038 0.7482 0.0
C2172 C 0.78762 0.38783 0.7379 0.0
C2173 C 0.80453 0.39519 0.74703 0.0
H2174 H 0.76211 0.37466 0.7411 0.0
H2175 H 0.92672 0.44583 0.82755 0.0
H2176 H 0.07037 0.83245 0.09121 0.0
H2177 H 0.06512 0.86021 0.079 0.0
H2178 H 0.05964 0.88377 0.13519 0.0
H2179 H 0.06332 0.85526 0.14683 0.0
H2180 H 0.03973 0.89462 0.11527 0.0
H2181 H 0.09709 0.89678 0.10942 0.0
H2182 H 0.1225 0.8879 0.09997 0.0
H2183 H 0.10148 0.88427 0.04107 0.0
H2184 H 0.07575 0.89268 0.05012 0.0
H2185 H 0.07156 0.98389 0.0677 0.0
H2186 H 0.07655 0.95667 0.08119 0.0
H2187 H 0.02226 0.93307 0.07233 0.0
H2188 H 0.0172 0.96047 0.05938 0.0
H2189 H 0.07241 0.92293 0.06893 0.0
H2190 H 0.0105 0.90361 0.10081 0.0
H2191 H 0.99261 0.91829 0.11992 0.0
H2192 H 0.03461 0.96604 0.14036 0.0
H2193 H 0.05263 0.95177 0.12113 0.0
C2194 C 0.06796 0.84355 0.10092 0.0
C2195 C 0.06725 0.84156 0.12002 0.0
C2196 C 0.06515 0.85965 0.09397 0.0
C2197 C 0.06231 0.8747 0.10609 0.0
C2198 C 0.06166 0.87261 0.12525 0.0
C2199 C 0.06385 0.85623 0.13201 0.0
C2200 C 0.05962 0.89232 0.09889 0.0
C2201 C 0.04708 0.90075 0.10522 0.0
C2202 C 0.06927 0.90105 0.08604 0.0
C2203 C 0.08433 0.89505 0.08046 0.0
C2204 C 0.09774 0.89376 0.09443 0.0
C2205 C 0.11222 0.88884 0.08915 0.0
C2206 C 0.11355 0.8854 0.06993 0.0
C2207 C 0.10038 0.88681 0.05595 0.0
C2208 C 0.08582 0.89161 0.06115 0.0
C2209 C 0.06064 0.97295 0.06862 0.0
C2210 C 0.04395 0.97454 0.06228 0.0
C2211 C 0.06352 0.95724 0.07636 0.0
C2212 C 0.04983 0.94257 0.07806 0.0
C2213 C 0.03315 0.94415 0.07167 0.0
C2214 C 0.03026 0.95987 0.064 0.0
C2215 C 0.05304 0.92542 0.08576 0.0
C2216 C 0.0654 0.91689 0.07923 0.0
C2217 C 0.04411 0.91734 0.09941 0.0
C2218 C 0.03283 0.92671 0.10939 0.0
C2219 C 0.01584 0.91733 0.10923 0.0
C2220 C 1.0057 0.92555 0.12012 0.0
C2221 C 0.01251 0.94303 0.13144 0.0
C2222 C 0.02938 0.95247 0.13164 0.0
C2223 C 0.03949 0.94442 0.12058 0.0
H2224 H 1.00467 0.94934 0.13994 0.0
H2225 H 0.12484 0.88177 0.06587 0.0
H2226 H 0.96972 0.25492 0.87018 0.0
H2227 H 0.94286 0.25892 0.85294 0.0
H2228 H 0.92058 0.25572 0.90368 0.0
H2229 H 0.94728 0.25194 0.92097 0.0
H2230 H 0.89831 0.23491 0.87212 0.0
H2231 H 0.93323 0.29709 0.89041 0.0
H2232 H 0.95899 0.32245 0.89283 0.0
H2233 H 0.95226 0.3165 0.83187 0.0
H2234 H 0.92656 0.29091 0.82909 0.0
H2235 H 0.82404 0.2679 0.83787 0.0
H2236 H 0.85046 0.26536 0.85775 0.0
H2237 H 0.8764 0.26932 0.80961 0.0
H2238 H 0.85028 0.27156 0.78991 0.0
H2239 H 0.89673 0.29044 0.84128 0.0
H2240 H 0.86083 0.22883 0.82316 0.0
H2241 H 0.83598 0.20248 0.82093 0.0
H2242 H 0.84548 0.20576 0.88165 0.0
H2243 H 0.86975 0.23282 0.88438 0.0
C2244 C 0.95908 0.25497 0.87765 0.0
C2245 C 0.9608 0.25313 0.89704 0.0
C2246 C 0.94371 0.25737 0.86778 0.0
C2247 C 0.9296 0.25778 0.87698 0.0
C2248 C 0.93118 0.25548 0.89619 0.0
C2249 C 0.94656 0.25336 0.90609 0.0
C2250 C 0.91323 0.26071 0.86675 0.0
C2251 C 0.89791 0.2472 0.86563 0.0
C2252 C 0.91265 0.27656 0.85794 0.0
C2253 C 0.92807 0.29195 0.85954 0.0
C2254 C 0.93732 0.30108 0.87752 0.0
C2255 C 0.9519 0.31551 0.87896 0.0
C2256 C 0.95729 0.32104 0.86251 0.0
C2257 C 0.94808 0.31218 0.84459 0.0
C2258 C 0.9335 0.29772 0.84308 0.0
C2259 C 0.83546 0.26847 0.83166 0.0
C2260 C 0.83504 0.27 0.8123 0.0
C2261 C 0.85056 0.26689 0.84299 0.0
C2262 C 0.86556 0.26704 0.83523 0.0
C2263 C 0.86515 0.26918 0.81606 0.0
C2264 C 0.85012 0.27044 0.80476 0.0
C2265 C 0.88167 0.2646 0.84661 0.0
C2266 C 0.89701 0.2782 0.8479 0.0
C2267 C 0.88223 0.2488 0.8556 0.0
C2268 C 0.86696 0.23317 0.85401 0.0
C2269 C 0.85737 0.22428 0.8361 0.0
C2270 C 0.84335 0.20919 0.83474 0.0
C2271 C 0.83902 0.20256 0.85115 0.0
C2272 C 0.84868 0.21104 0.86896 0.0
C2273 C 0.86249 0.22635 0.87043 0.0
H2274 H 0.82825 0.19078 0.85007 0.0
H2275 H 0.96857 0.33223 0.86365 0.0
H2276 H 0.53472 0.22384 0.63417 0.0
H2277 H 0.53201 0.19168 0.61959 0.0
H2278 H 0.57732 0.20923 0.5955 0.0
H2279 H 0.57963 0.24169 0.60944 0.0
H2280 H 0.55667 0.18213 0.57139 0.0
H2281 H 0.57741 0.18918 0.6379 0.0
H2282 H 0.57791 0.19785 0.67227 0.0
H2283 H 0.5295 0.15898 0.6677 0.0
H2284 H 0.5286 0.15026 0.63324 0.0
H2285 H 0.57184 0.08929 0.56043 0.0
H2286 H 0.57456 0.12271 0.5706 0.0
H2287 H 0.52441 0.11035 0.58559 0.0
H2288 H 0.52147 0.07712 0.57526 0.0
H2289 H 0.54917 0.13489 0.61422 0.0
H2290 H 0.52957 0.12823 0.5466 0.0
H2291 H 0.53092 0.11955 0.5127 0.0
H2292 H 0.58012 0.1577 0.52037 0.0
H2293 H 0.57917 0.16642 0.5544 0.0
C2294 C 0.54398 0.22093 0.62552 0.0
C2295 C 0.55745 0.23541 0.62309 0.0
C2296 C 0.54252 0.20243 0.6173 0.0
C2297 C 0.55476 0.19774 0.60686 0.0
C2298 C 0.56775 0.21231 0.60358 0.0
C2299 C 0.56905 0.23093 0.61154 0.0
C2300 C 0.55427 0.17767 0.60001 0.0
C2301 C 0.55527 0.1719 0.58088 0.0
C2302 C 0.55235 0.16406 0.61221 0.0
C2303 C 0.55287 0.16919 0.63295 0.0
C2304 C 0.56682 0.18257 0.6442 0.0
C2305 C 0.56718 0.18748 0.6637 0.0
C2306 C 0.55372 0.179 0.67215 0.0
C2307 C 0.5399 0.16555 0.66113 0.0
C2308 C 0.53947 0.16061 0.64161 0.0
C2309 C 0.56135 0.09368 0.5658 0.0
C2310 C 0.54643 0.0804 0.56696 0.0
C2311 C 0.56291 0.11282 0.57157 0.0
C2312 C 0.54966 0.11913 0.57884 0.0
C2313 C 0.53481 0.1059 0.58005 0.0
C2314 C 0.53314 0.08684 0.57404 0.0
C2315 C 0.55133 0.1394 0.58563 0.0
C2316 C 0.55061 0.14518 0.6048 0.0
C2317 C 0.55381 0.15301 0.57355 0.0
C2318 C 0.55438 0.14782 0.55309 0.0
C2319 C 0.54074 0.13464 0.5411 0.0
C2320 C 0.54143 0.12974 0.52185 0.0
C2321 C 0.55562 0.13803 0.5144 0.0
C2322 C 0.56915 0.15127 0.52617 0.0
C2323 C 0.56854 0.15621 0.54544 0.0
H2324 H 0.55613 0.13421 0.49949 0.0
H2325 H 0.55402 0.18282 0.68725 0.0
H2326 H 0.55232 0.77328 0.37541 0.0
H2327 H 0.57748 0.77443 0.36022 0.0
H2328 H 0.5984 0.74546 0.40234 0.0
H2329 H 0.57359 0.74492 0.41796 0.0
H2330 H 0.62294 0.77105 0.39725 0.0
H2331 H 0.58013 0.7246 0.35349 0.0
H2332 H 0.55253 0.71126 0.33206 0.0
H2333 H 0.56425 0.75361 0.2974 0.0
H2334 H 0.59184 0.76735 0.31877 0.0
H2335 H 0.68678 0.74635 0.34659 0.0
H2336 H 0.66135 0.74509 0.36148 0.0
H2337 H 0.64553 0.783 0.32631 0.0
H2338 H 0.6709 0.7843 0.31137 0.0
H2339 H 0.6187 0.7529 0.32764 0.0
H2340 H 0.66257 0.79826 0.37189 0.0
H2341 H 0.69061 0.80958 0.39288 0.0
H2342 H 0.67698 0.76682 0.42658 0.0
H2343 H 0.64896 0.75499 0.40555 0.0
C2344 C 0.56219 0.767 0.38136 0.0
C2345 C 0.56076 0.75893 0.39793 0.0
C2346 C 0.57664 0.7676 0.37259 0.0
C2347 C 0.58997 0.75981 0.37986 0.0
C2348 C 0.58846 0.75163 0.39633 0.0
C2349 C 0.57414 0.75124 0.40524 0.0
C2350 C 0.60558 0.7605 0.37064 0.0
C2351 C 0.62191 0.7668 0.38205 0.0
C2352 C 0.60455 0.75533 0.35072 0.0
C2353 C 0.58797 0.74711 0.33785 0.0
C2354 C 0.57677 0.73115 0.34138 0.0
C2355 C 0.56113 0.7235 0.32923 0.0
C2356 C 0.55662 0.73161 0.31341 0.0
C2357 C 0.56775 0.74736 0.30968 0.0
C2358 C 0.58339 0.75508 0.3218 0.0
C2359 C 0.67789 0.75441 0.34199 0.0
C2360 C 0.681 0.76548 0.32778 0.0
C2361 C 0.66335 0.75374 0.3506 0.0
C2362 C 0.65144 0.76401 0.34513 0.0
C2363 C 0.65445 0.77495 0.33084 0.0
C2364 C 0.66909 0.7758 0.3224 0.0
C2365 C 0.63589 0.76336 0.35426 0.0
C2366 C 0.61963 0.7571 0.34283 0.0
C2367 C 0.63698 0.76833 0.37417 0.0
C2368 C 0.65371 0.77563 0.38703 0.0
C2369 C 0.66559 0.79118 0.38369 0.0
C2370 C 0.68148 0.7977 0.39561 0.0
C2371 C 0.68558 0.78891 0.41104 0.0
C2372 C 0.67378 0.7736 0.41461 0.0
C2373 C 0.6579 0.76699 0.40269 0.0
H2374 H 0.69788 0.79398 0.42026 0.0
H2375 H 0.54451 0.72567 0.30402 0.0
H2376 H 0.04282 0.23079 0.39008 0.0
H2377 H 0.0498 0.20401 0.403 0.0
H2378 H 0.06244 0.23624 0.45953 0.0
H2379 H 0.05552 0.263 0.44683 0.0
H2380 H 0.08496 0.2137 0.45246 0.0
H2381 H 0.02358 0.20891 0.44472 0.0
H2382 H 0.99539 0.20703 0.42585 0.0
H2383 H 0.99905 0.15807 0.38971 0.0
H2384 H 0.02738 0.15983 0.40824 0.0
H2385 H 0.07067 0.15591 0.52061 0.0
H2386 H 0.07248 0.17843 0.49888 0.0
H2387 H 0.05174 0.13388 0.45123 0.0
H2388 H 0.0487 0.1113 0.47313 0.0
H2389 H 0.03586 0.15953 0.44796 0.0
H2390 H 0.09462 0.16044 0.45934 0.0
H2391 H 0.12276 0.16185 0.478 0.0
H2392 H 0.12495 0.21692 0.50614 0.0
H2393 H 0.09671 0.21575 0.48786 0.0
C2394 C 0.0473 0.23225 0.40523 0.0
C2395 C 0.0484 0.24895 0.41747 0.0
C2396 C 0.05128 0.21694 0.41257 0.0
C2397 C 0.05648 0.21813 0.43222 0.0
C2398 C 0.05845 0.23506 0.44431 0.0
C2399 C 0.05438 0.2503 0.43703 0.0
C2400 C 0.05853 0.20145 0.44058 0.0
C2401 C 0.07428 0.20181 0.45152 0.0
C2402 C 0.04471 0.18572 0.43876 0.0
C2403 C 0.02767 0.18464 0.4277 0.0
C2404 C 0.01843 0.19784 0.43265 0.0
C2405 C 1.00242 0.19678 0.42204 0.0
C2406 C 0.99546 0.18247 0.40654 0.0
C2407 C 1.00447 0.16917 0.40168 0.0
C2408 C 0.0205 0.17019 0.41223 0.0
C2409 C 0.06646 0.15086 0.50551 0.0
C2410 C 0.05941 0.13178 0.49864 0.0
C2411 C 0.06779 0.16376 0.49303 0.0
C2412 C 0.06249 0.15787 0.47334 0.0
C2413 C 0.05599 0.13876 0.46635 0.0
C2414 C 0.05442 0.12584 0.47888 0.0
C2415 C 0.06224 0.17187 0.4604 0.0
C2416 C 0.04678 0.17108 0.44858 0.0
C2417 C 0.07639 0.18711 0.4613 0.0
C2418 C 0.09348 0.18796 0.47226 0.0
C2419 C 0.10105 0.17282 0.46959 0.0
C2420 C 0.11703 0.17358 0.48009 0.0
C2421 C 0.12563 0.18946 0.49327 0.0
C2422 C 0.11828 0.20463 0.49593 0.0
C2423 C 0.10229 0.20394 0.48547 0.0
H2424 H 0.138 0.19001 0.50139 0.0
H2425 H 0.98306 0.18167 0.39835 0.0
H2426 H 0.597 0.25821 0.25273 0.0
H2427 H 0.62775 0.26067 0.26061 0.0
H2428 H 0.63308 0.26695 0.20285 0.0
H2429 H 0.60247 0.26496 0.1949 0.0
H2430 H 0.64729 0.23581 0.22582 0.0
H2431 H 0.64993 0.30249 0.2226 0.0
H2432 H 0.63977 0.33071 0.23147 0.0
H2433 H 0.65269 0.32728 0.29067 0.0
H2434 H 0.66292 0.29903 0.2821 0.0
H2435 H 0.73763 0.25195 0.23862 0.0
H2436 H 0.70778 0.25172 0.22724 0.0
H2437 H 0.70491 0.28019 0.28249 0.0
H2438 H 0.73488 0.28157 0.2933 0.0
H2439 H 0.68881 0.29411 0.25887 0.0
H2440 H 0.68779 0.23061 0.26519 0.0
H2441 H 0.69571 0.20054 0.25978 0.0
H2442 H 0.67746 0.19477 0.19983 0.0
H2443 H 0.66962 0.22494 0.20485 0.0
C2444 C 0.60474 0.26024 0.24174 0.0
C2445 C 0.59734 0.26144 0.22322 0.0
C2446 C 0.62225 0.26162 0.24626 0.0
C2447 C 0.63254 0.26393 0.23226 0.0
C2448 C 0.62526 0.26516 0.21379 0.0
C2449 C 0.60782 0.26412 0.20934 0.0
C2450 C 0.65091 0.26484 0.23693 0.0
C2451 C 0.65651 0.24856 0.23278 0.0
C2452 C 0.66263 0.28134 0.24655 0.0
C2453 C 0.65706 0.29864 0.25171 0.0
C2454 C 0.65054 0.30774 0.23749 0.0
C2455 C 0.64478 0.32373 0.24247 0.0
C2456 C 0.64549 0.33072 0.26162 0.0
C2457 C 0.65208 0.32181 0.27584 0.0
C2458 C 0.65794 0.30587 0.27094 0.0
C2459 C 0.73056 0.25817 0.24822 0.0
C2460 C 0.73849 0.26679 0.26677 0.0
C2461 C 0.71349 0.25795 0.24179 0.0
C2462 C 0.70391 0.26568 0.25408 0.0
C2463 C 0.71195 0.27423 0.27265 0.0
C2464 C 0.72908 0.27496 0.27885 0.0
C2465 C 0.68555 0.26493 0.24782 0.0
C2466 C 0.67982 0.28127 0.25174 0.0
C2467 C 0.67362 0.24827 0.23842 0.0
C2468 C 0.6783 0.23013 0.23537 0.0
C2469 C 0.68558 0.22299 0.25083 0.0
C2470 C 0.69004 0.20592 0.24784 0.0
C2471 C 0.68714 0.19578 0.22947 0.0
C2472 C 0.67973 0.20266 0.21405 0.0
C2473 C 0.67527 0.21974 0.21696 0.0
H2474 H 0.6906 0.18256 0.22718 0.0
H2475 H 0.64103 0.3431 0.26544 0.0
H2476 H 0.54739 0.87975 0.93293 0.0
H2477 H 0.54573 0.90411 0.95843 0.0
H2478 H 0.53497 0.86307 0.99506 0.0
H2479 H 0.5371 0.83867 0.96984 0.0
H2480 H 0.51137 0.8894 0.98972 0.0
H2481 H 0.56974 0.88667 0.0071 0.0
H2482 H 0.59879 0.88655 1.00128 0.0
H2483 H 0.60499 0.94142 0.98666 0.0
H2484 H 0.57586 0.94175 0.99207 0.0
H2485 H 0.54437 0.97643 0.0706 0.0
H2486 H 0.54454 0.94511 0.05531 0.0
H2487 H 0.51915 0.95512 1.00226 0.0
H2488 H 0.5195 0.98654 0.01717 0.0
H2489 H 0.56115 0.94051 0.02184 0.0
H2490 H 0.49176 0.91174 0.98161 0.0
H2491 H 0.46262 0.9129 0.98637 0.0
H2492 H 0.47872 0.92172 0.04697 0.0
H2493 H 0.50787 0.92033 0.04259 0.0
C2494 C 0.54478 0.87595 0.94646 0.0
C2495 C 0.5424 0.85736 0.94945 0.0
C2496 C 0.54386 0.88984 0.96097 0.0
C2497 C 0.54025 0.88527 0.97852 0.0
C2498 C 0.5378 0.86676 0.98156 0.0
C2499 C 0.5391 0.85291 0.96721 0.0
C2500 C 0.53862 0.89992 0.99345 0.0
C2501 C 0.52224 0.90049 0.99693 0.0
C2502 C 0.55289 0.91421 1.00285 0.0
C2503 C 0.57049 0.91411 0.9997 0.0
C2504 C 0.5772 0.89862 1.0024 0.0
C2505 C 0.59371 0.89854 0.99923 0.0
C2506 C 0.6037 0.91393 0.99351 0.0
C2507 C 0.59722 0.92947 0.99101 0.0
C2508 C 0.5807 0.92961 0.99413 0.0
C2509 C 0.53855 0.97179 0.05577 0.0
C2510 C 0.53187 0.98385 0.04505 0.0
C2511 C 0.53868 0.95397 0.04709 0.0
C2512 C 0.53178 0.94789 0.02775 0.0
C2513 C 0.52434 0.95955 0.01729 0.0
C2514 C 0.52449 0.97746 0.02584 0.0
C2515 C 0.53386 0.93022 0.0178 0.0
C2516 C 0.55032 0.92918 0.01502 0.0
C2517 C 0.51965 0.91558 0.00898 0.0
C2518 C 0.50205 0.91605 0.01175 0.0
C2519 C 0.48906 0.91381 0.99595 0.0
C2520 C 0.47254 0.91454 0.99858 0.0
C2521 C 0.46883 0.91743 0.01696 0.0
C2522 C 0.48162 0.91954 0.03274 0.0
C2523 C 0.49815 0.91882 0.03019 0.0
H2524 H 0.45604 0.91802 0.01896 0.0
H2525 H 0.61648 0.91385 0.99108 0.0
H2526 H 0.01013 0.77407 0.7328 0.0
H2527 H 0.98651 0.77994 0.74809 0.0
H2528 H 0.99799 0.74546 0.7896 0.0
H2529 H 0.02121 0.73892 0.77385 0.0
H2530 H 0.96599 0.73704 0.77868 0.0
H2531 H 1.00653 0.79443 0.801 0.0
H2532 H 0.02815 0.82282 0.79934 0.0
H2533 H 0.99071 0.84162 0.76384 0.0
H2534 H 0.96891 0.81322 0.76505 0.0
H2535 H 0.90866 0.79724 0.82325 0.0
H2536 H 0.93636 0.78989 0.82135 0.0
H2537 H 0.91575 0.75726 0.76569 0.0
H2538 H 0.88818 0.7647 0.76741 0.0
H2539 H 0.95515 0.7999 0.79223 0.0
H2540 H 0.93496 0.71934 0.76409 0.0
H2541 H 0.91727 0.69072 0.77166 0.0
H2542 H 0.91824 0.71902 0.82782 0.0
H2543 H 0.93595 0.74779 0.82062 0.0
C2544 C 1.00769 0.76784 0.74526 0.0
C2545 C 0.0175 0.75602 0.75211 0.0
C2546 C 0.99425 0.77131 0.75409 0.0
C2547 C 0.99059 0.76338 0.7702 0.0
C2548 C 1.00055 0.75175 0.77721 0.0
C2549 C 0.01383 0.74804 0.7682 0.0
C2550 C 0.97581 0.76643 0.77904 0.0
C2551 C 0.96368 0.7508 0.78171 0.0
C2552 C 0.97306 0.78444 0.78376 0.0
C2553 C 0.9861 0.80162 0.78303 0.0
C2554 C 1.00293 0.80456 0.79273 0.0
C2555 C 0.01522 0.82066 0.79189 0.0
C2556 C 0.01081 0.834 0.78147 0.0
C2557 C 0.9941 0.83128 0.7719 0.0
C2558 C 0.98177 0.81519 0.77269 0.0
C2559 C 0.91 0.78825 0.81076 0.0
C2560 C 0.89636 0.78165 0.7954 0.0
C2561 C 0.92579 0.78409 0.8097 0.0
C2562 C 0.92801 0.77293 0.79345 0.0
C2563 C 0.91422 0.76575 0.77843 0.0
C2564 C 0.89855 0.77014 0.77935 0.0
C2565 C 0.94512 0.77045 0.79099 0.0
C2566 C 0.95762 0.78618 0.78941 0.0
C2567 C 0.94847 0.75261 0.7879 0.0
C2568 C 0.93669 0.73578 0.79174 0.0
C2569 C 0.93135 0.71948 0.77803 0.0
C2570 C 0.92137 0.70321 0.78228 0.0
C2571 C 0.91674 0.70301 0.80026 0.0
C2572 C 0.9219 0.71917 0.81394 0.0
C2573 C 0.93179 0.73551 0.80971 0.0
H2574 H 0.90902 0.6904 0.80352 0.0
H2575 H 0.02035 0.84646 0.78083 0.0
H2576 H 0.12798 0.01694 0.8722 0.0
H2577 H 0.1163 0.01264 0.90135 0.0
H2578 H 0.08246 0.0479 0.88763 0.0
H2579 H 0.09435 0.05261 0.85879 0.0
H2580 H 0.09473 0.0561 0.92408 0.0
H2581 H 0.06882 0.99918 0.8802 0.0
H2582 H 0.06845 0.97091 0.85804 0.0
H2583 H 0.09662 0.95118 0.90281 0.0
H2584 H 0.09733 0.97946 0.92518 0.0
H2585 H 0.0264 0.99843 0.97074 0.0
H2586 H 0.04265 1.00222 0.94491 0.0
H2587 H 0.0869 0.03425 0.98516 0.0
H2588 H 0.0705 0.03036 0.01118 0.0
H2589 H 0.07094 0.99249 0.9367 0.0
H2590 H 0.10748 0.06943 0.96163 0.0
H2591 H 0.10489 0.09724 0.98255 0.0
H2592 H 0.05046 0.07644 0.97314 0.0
H2593 H 0.05265 0.04885 0.95169 0.0
C2594 C 0.11803 0.02376 0.87537 0.0
C2595 C 0.11205 0.03504 0.86306 0.0
C2596 C 0.11133 0.02126 0.89206 0.0
C2597 C 0.09834 0.0298 0.8967 0.0
C2598 C 0.09248 0.04119 0.88448 0.0
C2599 C 0.09925 0.04379 0.86789 0.0
C2600 C 0.09058 0.02667 0.91403 0.0
C2601 C 0.08964 0.04217 0.92687 0.0
C2602 C 0.08372 1.00853 0.91771 0.0
C2603 C 0.08329 0.99152 0.9043 0.0
C2604 C 0.07504 0.98888 0.88527 0.0
C2605 C 0.07475 0.97284 0.87269 0.0
C2606 C 0.08255 0.95929 0.879 0.0
C2607 C 0.09061 0.96171 0.89793 0.0
C2608 C 0.09095 0.97773 0.91057 0.0
C2609 C 0.03964 1.00618 0.97416 0.0
C2610 C 0.04714 0.0143 0.99302 0.0
C2611 C 0.04894 1.00827 0.95935 0.0
C2612 C 0.06597 0.01864 0.96299 0.0
C2613 C 0.07371 0.02635 0.98193 0.0
C2614 C 0.06435 0.02417 0.99682 0.0
C2615 C 0.07516 0.02188 0.94673 0.0
C2616 C 0.07631 1.0064 0.93406 0.0
C2617 C 0.08185 0.04002 0.943 0.0
C2618 C 0.08028 0.05694 0.95527 0.0
C2619 C 0.09495 0.07086 0.96392 0.0
C2620 C 0.09354 0.08661 0.97584 0.0
C2621 C 0.07752 0.08859 0.97919 0.0
C2622 C 0.06286 0.0749 0.97053 0.0
C2623 C 0.06417 0.05922 0.95846 0.0
H2624 H 0.07647 0.10075 0.98849 0.0
H2625 H 0.08231 0.94688 0.86923 0.0
H2626 H 0.78372 0.32463 0.5343 0.0
H2627 H 0.79983 0.30713 0.55355 0.0
H2628 H 0.79816 0.34367 0.60446 0.0
H2629 H 0.78202 0.36091 0.5856 0.0
H2630 H 0.83099 0.33586 0.60237 0.0
H2631 H 0.76946 0.30424 0.59267 0.0
H2632 H 0.74227 0.28706 0.5721 0.0
H2633 H 0.76674 0.24584 0.54932 0.0
H2634 H 0.79413 0.26294 0.56963 0.0
H2635 H 0.8198 0.30814 0.68723 0.0
H2636 H 0.82352 0.31855 0.65722 0.0
H2637 H 0.82232 0.26249 0.63176 0.0
H2638 H 0.81831 0.25187 0.66205 0.0
H2639 H 0.79928 0.27394 0.61224 0.0
H2640 H 0.85773 0.3002 0.63216 0.0
H2641 H 0.8846 0.31699 0.65344 0.0
H2642 H 0.86759 0.36767 0.65685 0.0
H2643 H 0.84051 0.35117 0.63586 0.0
C2644 C 0.78686 0.32892 0.54959 0.0
C2645 C 0.78149 0.34403 0.55847 0.0
C2646 C 0.7961 0.31899 0.56051 0.0
C2647 C 0.80027 0.32426 0.58036 0.0
C2648 C 0.79521 0.33954 0.58913 0.0
C2649 C 0.78582 0.34924 0.57834 0.0
C2650 C 0.8087 0.31328 0.59258 0.0
C2651 C 0.82426 0.32222 0.6045 0.0
C2652 C 0.80026 0.29515 0.59463 0.0
C2653 C 0.78384 0.28498 0.58242 0.0
C2654 C 0.76906 0.2916 0.58314 0.0
C2655 C 0.75362 0.28187 0.57156 0.0
C2656 C 0.75279 0.26541 0.55936 0.0
C2657 C 0.76741 0.25862 0.55874 0.0
C2658 C 0.78289 0.26833 0.57027 0.0
C2659 C 0.82104 0.29813 0.67552 0.0
C2660 C 0.81861 0.27915 0.67696 0.0
C2661 C 0.82325 0.30413 0.65828 0.0
C2662 C 0.82333 0.29134 0.64216 0.0
C2663 C 0.82231 0.27261 0.64399 0.0
C2664 C 0.81996 0.26656 0.66126 0.0
C2665 C 0.82113 0.29706 0.62312 0.0
C2666 C 0.80667 0.28715 0.60977 0.0
C2667 C 0.83071 0.31426 0.61973 0.0
C2668 C 0.84704 0.3244 0.63235 0.0
C2669 C 0.85967 0.31491 0.63751 0.0
C2670 C 0.87495 0.32439 0.64953 0.0
C2671 C 0.87781 0.34339 0.65648 0.0
C2672 C 0.86538 0.35296 0.65142 0.0
C2673 C 0.85007 0.34355 0.6394 0.0
H2674 H 0.88965 0.35069 0.66579 0.0
H2675 H 0.74083 0.25788 0.55042 0.0
H2676 H 0.43946 0.0525 0.36282 0.0
H2677 H 0.45334 0.05022 0.39458 0.0
H2678 H 0.48421 0.01717 0.36935 0.0
H2679 H 0.46953 0.01853 0.3376 0.0
H2680 H 0.47896 1.00343 0.39769 0.0
H2681 H 0.49807 0.06824 0.39479 0.0
H2682 H 0.4957 0.09991 0.39041 0.0
H2683 H 0.46692 0.10216 0.43593 0.0
H2684 H 0.46895 0.0704 0.44043 0.0
H2685 H 0.54429 0.01863 0.48043 0.0
H2686 H 0.52751 0.02029 0.44999 0.0
H2687 H 0.48813 0.03407 0.47905 0.0
H2688 H 0.5049 0.03194 0.50982 0.0
H2689 H 0.49678 0.05746 0.45013 0.0
H2690 H 0.48062 0.99216 0.45357 0.0
H2691 H 0.48595 0.96156 0.45799 0.0
H2692 H 0.51282 0.96178 0.41073 0.0
H2693 H 0.50788 0.99253 0.4062 0.0
C2694 C 0.44929 0.04483 0.36395 0.0
C2695 C 0.4533 0.03586 0.34724 0.0
C2696 C 0.45746 0.04363 0.38239 0.0
C2697 C 0.47044 0.03384 0.38508 0.0
C2698 C 0.47441 0.02488 0.3683 0.0
C2699 C 0.46599 0.02576 0.34988 0.0
C2700 C 0.47953 0.03254 0.40506 0.0
C2701 C 0.48298 0.01546 0.40891 0.0
C2702 C 0.48481 0.04783 0.4205 0.0
C2703 C 0.48349 0.06687 0.41779 0.0
C2704 C 0.49113 0.07544 0.40377 0.0
C2705 C 0.48986 0.09341 0.40128 0.0
C2706 C 0.48112 0.10301 0.41284 0.0
C2707 C 0.47366 0.09468 0.42695 0.0
C2708 C 0.47487 0.07671 0.42949 0.0
C2709 C 0.53197 0.02185 0.48047 0.0
C2710 C 0.52605 0.02496 0.49788 0.0
C2711 C 0.5223 0.02282 0.46285 0.0
C2712 C 0.50632 0.0273 0.46174 0.0
C2713 C 0.50034 0.03058 0.47915 0.0
C2714 C 0.50993 0.02921 0.49688 0.0
C2715 C 0.49618 0.0285 0.44246 0.0
C2716 C 0.49263 0.04552 0.4388 0.0
C2717 C 0.49115 0.01329 0.42707 0.0
C2718 C 0.494 0.99473 0.42965 0.0
C2719 C 0.48778 0.98575 0.44421 0.0
C2720 C 0.49071 0.96837 0.44672 0.0
C2721 C 0.49975 0.95975 0.43468 0.0
C2722 C 0.50583 0.96848 0.42006 0.0
C2723 C 0.50296 0.98588 0.4175 0.0
H2724 H 0.50201 0.94629 0.43665 0.0
H2725 H 0.48016 0.11693 0.4109 0.0
H2726 H 0.79117 0.66518 0.08956 0.0
H2727 H 0.79322 0.68164 0.12166 0.0
H2728 H 0.77702 0.72671 0.09848 0.0
H2729 H 0.77451 0.71005 0.06617 0.0
H2730 H 0.81058 0.71288 0.14271 0.0
H2731 H 0.75272 0.74492 0.12697 0.0
H2732 H 0.7257 0.7386 0.10423 0.0
H2733 H 0.72431 0.68018 0.09523 0.0
H2734 H 0.7512 0.68613 0.11809 0.0
H2735 H 0.80905 0.77166 0.22774 0.0
H2736 H 0.8089 0.75981 0.19441 0.0
H2737 H 0.76046 0.72107 0.19205 0.0
H2738 H 0.76014 0.73368 0.22509 0.0
H2739 H 0.75963 0.7322 0.16035 0.0
H2740 H 0.80169 0.70912 0.19775 0.0
H2741 H 0.82728 0.71222 0.22187 0.0
H2742 H 0.85796 0.74621 0.18951 0.0
H2743 H 0.83251 0.74346 0.16528 0.0
C2744 C 0.78818 0.67868 0.0912 0.0
C2745 C 0.78254 0.68616 0.07514 0.0
C2746 C 0.78941 0.68813 0.10966 0.0
C2747 C 0.78503 0.70534 0.11265 0.0
C2748 C 0.78016 0.7133 0.09665 0.0
C2749 C 0.77885 0.70379 0.07812 0.0
C2750 C 0.7849 0.71443 0.13245 0.0
C2751 C 0.79945 0.71718 0.14652 0.0
C2752 C 0.77032 0.71977 0.13769 0.0
C2753 C 0.75407 0.71602 0.12406 0.0
C2754 C 0.74662 0.73073 0.12017 0.0
C2755 C 0.73133 0.72721 0.10726 0.0
C2756 C 0.72333 0.70901 0.09824 0.0
C2757 C 0.73056 0.69428 0.10217 0.0
C2758 C 0.74583 0.69772 0.11508 0.0
C2759 C 0.79831 0.76069 0.22008 0.0
C2760 C 0.78464 0.75356 0.22913 0.0
C2761 C 0.79828 0.7538 0.20099 0.0
C2762 C 0.78486 0.73915 0.19064 0.0
C2763 C 0.77101 0.73232 0.19959 0.0
C2764 C 0.77084 0.73952 0.21855 0.0
C2765 C 0.78532 0.73071 0.17067 0.0
C2766 C 0.77082 0.72806 0.15655 0.0
C2767 C 0.79978 0.72497 0.16552 0.0
C2768 C 0.81518 0.7262 0.17979 0.0
C2769 C 0.81389 0.71729 0.19581 0.0
C2770 C 0.82836 0.71899 0.20949 0.0
C2771 C 0.84422 0.72943 0.20723 0.0
C2772 C 0.84566 0.73813 0.19123 0.0
C2773 C 0.83122 0.73648 0.17751 0.0
H2774 H 0.85541 0.73077 0.21787 0.0
H2775 H 0.7115 0.70632 0.08823 0.0
H2776 H 0.09095 0.03093 0.76557 0.0
H2777 H 0.07583 0.02769 0.73294 0.0
H2778 H 0.11851 0.0126 0.71128 0.0
H2779 H 0.13339 0.01523 0.74366 0.0
H2780 H 0.08231 0.04624 0.70626 0.0
H2781 H 0.10685 0.98565 0.66822 0.0
H2782 H 0.11338 0.95603 0.67464 0.0
H2783 H 0.08078 0.95278 0.71669 0.0
H2784 H 0.07386 0.98224 0.71036 0.0
H2785 H 0.07354 0.05092 0.60806 0.0
H2786 H 0.08381 0.04947 0.64132 0.0
H2787 H 0.05114 0.99416 0.6349 0.0
H2788 H 0.04152 0.9952 0.60146 0.0
H2789 H 0.07864 0.99373 0.65478 0.0
H2790 H 0.04229 0.03522 0.65924 0.0
H2791 H 0.03077 0.06228 0.65327 0.0
H2792 H 0.07883 0.09941 0.67979 0.0
H2793 H 0.09072 0.07256 0.6857 0.0
C2794 C 0.097 0.02663 0.75386 0.0
C2795 C 0.1134 0.02331 0.75733 0.0
C2796 C 0.08837 0.02486 0.73517 0.0
C2797 C 0.09592 0.01975 0.71952 0.0
C2798 C 0.11218 0.01617 0.723 0.0
C2799 C 0.12074 0.01778 0.74162 0.0
C2800 C 0.08733 0.01917 0.6996 0.0
C2801 C 0.08145 0.0347 0.69504 0.0
C2802 C 0.08575 1.00395 0.68491 0.0
C2803 C 0.08997 0.98629 0.68893 0.0
C2804 C 0.10104 0.9786 0.67881 0.0
C2805 C 0.10481 0.96184 0.68243 0.0
C2806 C 0.09754 0.95256 0.6961 0.0
C2807 C 0.08646 0.96002 0.70616 0.0
C2808 C 0.08264 0.97678 0.70259 0.0
C2809 C 0.06853 0.03847 0.61375 0.0
C2810 C 0.05666 0.02322 0.60209 0.0
C2811 C 0.07433 0.03768 0.63285 0.0
C2812 C 0.06806 0.02182 0.64089 0.0
C2813 C 0.05624 1.00657 0.62918 0.0
C2814 C 0.05069 1.00721 0.61001 0.0
C2815 C 0.07399 0.02099 0.66136 0.0
C2816 C 0.07941 1.00523 0.66601 0.0
C2817 C 0.07452 0.03566 0.67625 0.0
C2818 C 0.06743 0.05187 0.67277 0.0
C2819 C 0.05044 0.04916 0.66369 0.0
C2820 C 0.04384 0.06445 0.66033 0.0
C2821 C 0.05407 0.08255 0.66611 0.0
C2822 C 0.07092 0.08539 0.6753 0.0
C2823 C 0.07759 0.07013 0.67868 0.0
H2824 H 0.04894 0.09438 0.66349 0.0
H2825 H 0.10047 0.93958 0.69888 0.0
H2826 H 0.75234 0.36616 0.44896 0.0
H2827 H 0.74617 0.34671 0.41758 0.0
H2828 H 0.71954 0.30036 0.44077 0.0
H2829 H 0.72524 0.32014 0.4722 0.0
H2830 H 0.7493 0.29567 0.42642 0.0
H2831 H 0.69764 0.31176 0.40584 0.0
H2832 H 0.67787 0.33193 0.40021 0.0
H2833 H 0.70877 0.35884 0.36327 0.0
H2834 H 0.72891 0.33906 0.36892 0.0
H2835 H 0.73895 0.25295 0.32063 0.0
H2836 H 0.72658 0.26627 0.34673 0.0
H2837 H 0.77629 0.30092 0.37257 0.0
H2838 H 0.7887 0.28766 0.34655 0.0
H2839 H 0.72718 0.30454 0.36122 0.0
H2840 H 0.78052 0.2978 0.41957 0.0
H2841 H 0.80077 0.278 0.42459 0.0
H2842 H 0.76585 0.23234 0.38621 0.0
H2843 H 0.74529 0.25178 0.38117 0.0
C2844 C 0.74451 0.35206 0.44712 0.0
C2845 C 0.73919 0.34456 0.46281 0.0
C2846 C 0.74095 0.34099 0.42922 0.0
C2847 C 0.73238 0.32213 0.42688 0.0
C2848 C 0.72601 0.31495 0.44229 0.0
C2849 C 0.72922 0.32622 0.46017 0.0
C2850 C 0.73345 0.30951 0.40975 0.0
C2851 C 0.74418 0.29735 0.41216 0.0
C2852 C 0.72679 0.31179 0.39119 0.0
C2853 C 0.71486 0.32396 0.38792 0.0
C2854 C 0.70033 0.3221 0.39667 0.0
C2855 C 0.68903 0.33345 0.39344 0.0
C2856 C 0.69207 0.34667 0.38141 0.0
C2857 C 0.70643 0.34858 0.37259 0.0
C2858 C 0.71778 0.33729 0.37579 0.0
C2859 C 0.74719 0.26345 0.33188 0.0
C2860 C 0.76477 0.26924 0.33175 0.0
C2861 C 0.7401 0.2711 0.34665 0.0
C2862 C 0.75057 0.28441 0.36157 0.0
C2863 C 0.76806 0.29054 0.3612 0.0
C2864 C 0.77512 0.28302 0.34636 0.0
C2865 C 0.7435 0.2914 0.37807 0.0
C2866 C 0.73185 0.30254 0.3755 0.0
C2867 C 0.74935 0.2883 0.39654 0.0
C2868 C 0.7614 0.27629 0.39992 0.0
C2869 C 0.77711 0.28349 0.41231 0.0
C2870 C 0.78865 0.27234 0.41513 0.0
C2871 C 0.78461 0.25394 0.4057 0.0
C2872 C 0.76898 0.24662 0.39347 0.0
C2873 C 0.75738 0.2577 0.39061 0.0
H2874 H 0.79358 0.24534 0.40787 0.0
H2875 H 0.68329 0.35543 0.37891 0.0
H2876 H 0.45993 0.04055 0.25068 0.0
H2877 H 0.47349 0.03854 0.2224 0.0
H2878 H 0.42984 0.04963 0.18907 0.0
H2879 H 0.41618 0.05157 0.21739 0.0
H2880 H 0.43968 0.02411 0.16721 0.0
H2881 H 0.47123 0.08281 0.20397 0.0
H2882 H 0.48854 0.10431 0.23233 0.0
H2883 H 0.52721 0.07347 0.23223 0.0
H2884 H 0.51003 0.05164 0.20399 0.0
H2885 H 0.47958 0.03585 0.08445 0.0
H2886 H 0.46533 0.03897 0.11205 0.0
H2887 H 0.51109 0.03679 0.14884 0.0
H2888 H 0.52563 0.03496 0.1213 0.0
H2889 H 0.49948 0.05807 0.16885 0.0
H2890 H 0.46768 0.99856 0.13266 0.0
H2891 H 0.45078 0.97747 0.1038 0.0
H2892 H 0.41281 0.00927 0.10267 0.0
H2893 H 0.42959 0.03067 0.13143 0.0
C2894 C 0.45315 0.04275 0.23744 0.0
C2895 C 0.43678 0.04644 0.23689 0.0
C2896 C 0.46106 0.04163 0.221 0.0
C2897 C 0.45307 0.0441 0.20301 0.0
C2898 C 0.43664 0.04763 0.2024 0.0
C2899 C 0.42877 0.04888 0.21888 0.0
C2900 C 0.4617 0.04293 0.18509 0.0
C2901 C 0.45272 0.03176 0.16767 0.0
C2902 C 0.47892 0.05241 0.18502 0.0
C2903 C 0.48926 0.06549 0.20199 0.0
C2904 C 0.48337 0.08053 0.21008 0.0
C2905 C 0.49317 0.09279 0.22612 0.0
C2906 C 0.50894 0.09022 0.23411 0.0
C2907 C 0.51497 0.07542 0.22605 0.0
C2908 C 0.50522 0.06311 0.21002 0.0
C2909 C 0.48665 0.03585 0.09836 0.0
C2910 C 0.50392 0.03486 0.10018 0.0
C2911 C 0.47832 0.0375 0.11445 0.0
C2912 C 0.4866 0.03761 0.13323 0.0
C2913 C 0.50393 0.03673 0.13496 0.0
C2914 C 0.51237 0.03554 0.11894 0.0
C2915 C 0.4776 0.03898 0.15092 0.0
C2916 C 0.48649 0.05027 0.16833 0.0
C2917 C 0.46033 0.02948 0.15099 0.0
C2918 C 0.44997 0.0163 0.13409 0.0
C2919 C 0.45574 1.00107 0.12624 0.0
C2920 C 0.44619 0.98907 0.10989 0.0
C2921 C 0.43076 0.99207 0.10137 0.0
C2922 C 0.42478 1.00699 0.10927 0.0
C2923 C 0.43429 0.01904 0.12561 0.0
H2924 H 0.42341 0.98281 0.08867 0.0
H2925 H 0.51651 0.09973 0.24653 0.0
H2926 H 0.78036 0.67032 0.95523 0.0
H2927 H 0.78311 0.68511 0.92697 0.0
H2928 H 0.76168 0.72887 0.95102 0.0
H2929 H 0.75811 0.71356 0.97881 0.0
H2930 H 0.74952 0.72204 0.91606 0.0
H2931 H 0.80692 0.73349 0.94882 0.0
H2932 H 0.83276 0.72585 0.96462 0.0
H2933 H 0.83536 0.69157 0.91292 0.0
H2934 H 0.80941 0.69882 0.89686 0.0
H2935 H 0.78449 0.78809 0.85683 0.0
H2936 H 0.78001 0.77215 0.8843 0.0
H2937 H 0.78071 0.72016 0.85086 0.0
H2938 H 0.78457 0.73585 0.82322 0.0
H2939 H 0.80338 0.73148 0.88996 0.0
H2940 H 0.74541 0.7222 0.85757 0.0
H2941 H 0.72113 0.73314 0.84264 0.0
H2942 H 0.7214 0.76716 0.89563 0.0
H2943 H 0.74592 0.7567 0.91078 0.0
C2944 C 0.77627 0.68312 0.95453 0.0
C2945 C 0.76909 0.69075 0.96942 0.0
C2946 C 0.77794 0.6917 0.93834 0.0
C2947 C 0.77294 0.70846 0.93676 0.0
C2948 C 0.76568 0.71602 0.95165 0.0
C2949 C 0.76371 0.70725 0.96767 0.0
C2950 C 0.77513 0.71805 0.91967 0.0
C2951 C 0.76142 0.72425 0.9106 0.0
C2952 C 0.79052 0.72095 0.9121 0.0
C2953 C 0.80612 0.71654 0.9217 0.0
C2954 C 0.81293 0.72421 0.94086 0.0
C2955 C 0.82761 0.71997 0.94985 0.0
C2956 C 0.83567 0.70819 0.9398 0.0
C2957 C 0.82909 0.70067 0.9207 0.0
C2958 C 0.8144 0.70485 0.91164 0.0
C2959 C 0.78354 0.77323 0.8553 0.0
C2960 C 0.78484 0.76325 0.83782 0.0
C2961 C 0.781 0.76414 0.87102 0.0
C2962 C 0.78008 0.74494 0.86971 0.0
C2963 C 0.78142 0.73497 0.85227 0.0
C2964 C 0.78355 0.74396 0.83644 0.0
C2965 C 0.77785 0.7353 0.88656 0.0
C2966 C 0.79154 0.72917 0.89554 0.0
C2967 C 0.76259 0.73281 0.89424 0.0
C2968 C 0.74763 0.73882 0.88526 0.0
C2969 C 0.7404 0.73214 0.866 0.0
C2970 C 0.72657 0.73823 0.8575 0.0
C2971 C 0.71975 0.75087 0.86817 0.0
C2972 C 0.72671 0.75739 0.88737 0.0
C2973 C 0.74057 0.75138 0.89593 0.0
H2974 H 0.70906 0.75558 0.86156 0.0
H2975 H 0.84703 0.70492 0.94679 0.0
H2976 H 0.87727 0.14405 0.03762 0.0
H2977 H 0.89036 0.12455 0.01711 0.0
H2978 H 0.86764 0.07649 0.04068 0.0
H2979 H 0.85523 0.09595 0.06165 0.0
H2980 H 0.89891 0.07718 0.0402 0.0
H2981 H 0.85295 0.08481 0.9944 0.0
H2982 H 0.83584 0.10248 0.97649 0.0
H2983 H 0.87964 0.12777 0.95376 0.0
H2984 H 0.89707 0.11043 0.97174 0.0
H2985 H 0.91104 1.00485 0.98129 0.0
H2986 H 0.89265 0.02653 0.98319 0.0
H2987 H 0.93572 0.07248 0.98494 0.0
H2988 H 0.95433 0.05124 0.98395 0.0
H2989 H 0.89424 0.07347 0.97012 0.0
H2990 H 0.94047 0.0712 0.02427 0.0
H2991 H 0.95676 0.05216 0.0413 0.0
H2992 H 0.90993 0.01507 0.04689 0.0
H2993 H 0.89341 0.03378 0.02961 0.0
C2994 C 0.87515 0.12933 0.03843 0.0
C2995 C 0.86538 0.12154 0.05135 0.0
C2996 C 0.88247 0.11817 0.02657 0.0
C2997 C 0.87982 0.099 0.02718 0.0
C2998 C 0.86991 0.09125 0.03997 0.0
C2999 C 0.86286 0.1024 0.05201 0.0
C3000 C 0.88811 0.08704 0.01546 0.0
C3001 C 0.89767 0.07635 0.02487 0.0
C3002 C 0.88683 0.08609 0.99545 0.0
C3003 C 0.87635 0.09646 0.98457 0.0
C3004 C 0.85896 0.09424 0.9857 0.0
C3005 C 0.84921 0.10418 0.97551 0.0
C3006 C 0.85667 0.11628 0.96404 0.0
C3007 C 0.87389 0.11841 0.96268 0.0
C3008 C 0.88371 0.10852 0.97285 0.0
C3009 C 0.9165 0.01948 0.98128 0.0
C3010 C 0.93427 0.02637 0.9833 0.0
C3011 C 0.9059 0.03182 0.98208 0.0
C3012 C 0.91296 0.05107 0.98453 0.0
C3013 C 0.93008 0.05763 0.98299 0.0
C3014 C 0.94074 0.04535 0.98247 0.0
C3015 C 0.90459 0.06371 0.995 0.0
C3016 C 0.89527 0.07448 0.98544 0.0
C3017 C 0.90589 0.06477 0.01491 0.0
C3018 C 0.91576 0.05379 0.02563 0.0
C3019 C 0.93368 0.05896 0.02912 0.0
C3020 C 0.94294 0.04824 0.0388 0.0
C3021 C 0.93438 0.03246 0.04523 0.0
C3022 C 0.91654 0.02733 0.04195 0.0
C3023 C 0.90723 0.03797 0.0322 0.0
H3024 H 0.94157 0.02416 0.0527 0.0
H3025 H 0.84909 0.12396 0.95617 0.0
H3026 H 0.35549 0.45902 0.07611 0.0
H3027 H 0.38398 0.47663 0.07319 0.0
H3028 H 0.39745 0.42524 0.05499 0.0
H3029 H 0.36924 0.40763 0.05801 0.0
H3030 H 0.42349 0.44808 0.07946 0.0
H3031 H 0.38695 0.45343 0.02306 0.0
H3032 H 0.36217 0.461 1.00478 0.0
H3033 H 0.37961 0.51813 0.03217 0.0
H3034 H 0.40438 0.51083 0.05082 0.0
H3035 H 0.49907 0.48869 0.04424 0.0
H3036 H 0.47115 0.4701 0.04775 0.0
H3037 H 0.45488 0.52068 0.06185 0.0
H3038 H 0.48243 0.53906 0.0577 0.0
H3039 H 0.43017 0.49754 0.03917 0.0
H3040 H 0.46686 0.4923 0.0957 0.0
H3041 H 0.49111 0.48449 0.11477 0.0
H3042 H 0.4735 0.4273 0.08767 0.0
H3043 H 0.44925 0.4348 0.06823 0.0
C3044 C 0.36452 0.45145 0.07153 0.0
C3045 C 0.35991 0.43184 0.06724 0.0
C3046 C 0.38083 0.46156 0.06978 0.0
C3047 C 0.39295 0.45233 0.06367 0.0
C3048 C 0.38845 0.43277 0.05973 0.0
C3049 C 0.37219 0.42269 0.0614 0.0
C3050 C 0.41022 0.46293 0.06115 0.0
C3051 C 0.42494 0.45876 0.07047 0.0
C3052 C 0.41227 0.47711 0.04969 0.0
C3053 C 0.39742 0.48154 0.03848 0.0
C3054 C 0.38542 0.46757 0.0253 0.0
C3055 C 0.3714 0.47182 0.01485 0.0
C3056 C 0.36929 0.49003 0.01735 0.0
C3057 C 0.38124 0.50403 0.03027 0.0
C3058 C 0.39528 0.49985 0.04077 0.0
C3059 C 0.48951 0.49578 0.04796 0.0
C3060 C 0.493 0.51535 0.05055 0.0
C3061 C 0.47353 0.48516 0.05017 0.0
C3062 C 0.46076 0.49389 0.05529 0.0
C3063 C 0.46434 0.51346 0.05785 0.0
C3064 C 0.48019 0.52401 0.05552 0.0
C3065 C 0.44356 0.48289 0.05766 0.0
C3066 C 0.4288 0.48691 0.04822 0.0
C3067 C 0.44151 0.4686 0.06905 0.0
C3068 C 0.45632 0.46415 0.08039 0.0
C3069 C 0.46825 0.47809 0.09366 0.0
C3070 C 0.48197 0.47371 0.10457 0.0
C3071 C 0.48382 0.45541 0.10245 0.0
C3072 C 0.47203 0.44147 0.08931 0.0
C3073 C 0.45829 0.44578 0.07835 0.0
H3074 H 0.49435 0.45201 0.11104 0.0
H3075 H 0.35843 0.49329 0.00924 0.0
H3076 H 0.38069 0.53684 0.7371 0.0
H3077 H 0.36934 0.56447 0.73996 0.0
H3078 H 0.4088 0.59041 0.78833 0.0
H3079 H 0.42018 0.56249 0.78573 0.0
H3080 H 0.37818 0.59644 0.79421 0.0
H3081 H 0.41171 0.60361 0.74524 0.0
H3082 H 0.42198 0.59421 0.71572 0.0
H3083 H 0.37181 0.58669 0.68346 0.0
H3084 H 0.36117 0.59579 0.71284 0.0
H3085 H 0.35385 0.68288 0.78968 0.0
H3086 H 0.37114 0.65986 0.79004 0.0
H3087 H 0.33652 0.62544 0.74122 0.0
H3088 H 0.3196 0.6486 0.74035 0.0
H3089 H 0.36878 0.6268 0.73744 0.0
H3090 H 0.33489 0.61642 0.78708 0.0
H3091 H 0.32464 0.62569 0.81667 0.0
H3092 H 0.37594 0.63964 0.84767 0.0
H3093 H 0.38652 0.63066 0.81819 0.0
C3094 C 0.38698 0.54837 0.7484 0.0
C3095 C 0.40143 0.54748 0.76112 0.0
C3096 C 0.3805 0.56423 0.74996 0.0
C3097 C 0.38839 0.57969 0.76414 0.0
C3098 C 0.40256 0.5787 0.7772 0.0
C3099 C 0.40906 0.56275 0.77568 0.0
C3100 C 0.38172 0.59676 0.76512 0.0
C3101 C 0.37642 0.60331 0.78191 0.0
C3102 C 0.37925 0.60564 0.74902 0.0
C3103 C 0.38562 0.60026 0.73128 0.0
C3104 C 0.40284 0.59983 0.73188 0.0
C3105 C 0.40873 0.59457 0.71516 0.0
C3106 C 0.39755 0.58982 0.69773 0.0
C3107 C 0.38046 0.59037 0.69698 0.0
C3108 C 0.37449 0.59559 0.71365 0.0
C3109 C 0.35004 0.67051 0.77889 0.0
C3110 C 0.33523 0.66752 0.76508 0.0
C3111 C 0.35985 0.65728 0.77922 0.0
C3112 C 0.35501 0.64077 0.76581 0.0
C3113 C 0.34048 0.63801 0.75177 0.0
C3114 C 0.33071 0.6512 0.75141 0.0
C3115 C 0.3648 0.62614 0.76634 0.0
C3116 C 0.37073 0.62008 0.74982 0.0
C3117 C 0.36787 0.61777 0.78268 0.0
C3118 C 0.36151 0.62307 0.8004 0.0
C3119 C 0.34399 0.6216 0.80018 0.0
C3120 C 0.33812 0.62677 0.81693 0.0
C3121 C 0.34964 0.63331 0.83403 0.0
C3122 C 0.36704 0.63462 0.83441 0.0
C3123 C 0.37298 0.62948 0.81769 0.0
H3124 H 0.34507 0.63731 0.84699 0.0
H3125 H 0.40214 0.58576 0.68481 0.0
H3126 H 0.28248 0.6445 0.57795 0.0
H3127 H 0.25265 0.62927 0.57674 0.0
H3128 H 0.26726 0.58167 0.59608 0.0
H3129 H 0.29737 0.59674 0.597 0.0
H3130 H 0.24021 0.57124 0.5669 0.0
H3131 H 0.25495 0.61215 0.6265 0.0
H3132 H 0.26723 0.64194 0.64827 0.0
H3133 H 0.23178 0.66731 0.61782 0.0
H3134 H 0.21945 0.63775 0.59566 0.0
H3135 H 0.1558 0.53621 0.58684 0.0
H3136 H 0.18676 0.54726 0.58912 0.0
H3137 H 0.17956 0.59681 0.56739 0.0
H3138 H 0.14871 0.58599 0.5653 0.0
H3139 H 0.20348 0.60434 0.60037 0.0
H3140 H 0.19019 0.56379 0.53962 0.0
H3141 H 0.17823 0.53402 0.51772 0.0
H3142 H 0.21105 0.50776 0.55097 0.0
H3143 H 0.22305 0.53733 0.57325 0.0
C3144 C 0.27943 0.6308 0.582 0.0
C3145 C 0.29234 0.62187 0.58766 0.0
C3146 C 0.26234 0.62214 0.58136 0.0
C3147 C 0.25777 0.60446 0.58659 0.0
C3148 C 0.27055 0.59536 0.59206 0.0
C3149 C 0.28773 0.60401 0.59264 0.0
C3150 C 0.23955 0.59562 0.58615 0.0
C3151 C 0.23223 0.5783 0.5745 0.0
C3152 C 0.22913 0.60498 0.59586 0.0
C3153 C 0.23635 0.62275 0.60933 0.0
C3154 C 0.24984 0.62411 0.62437 0.0
C3155 C 0.2568 0.64096 0.63679 0.0
C3156 C 0.25031 0.65652 0.63441 0.0
C3157 C 0.2368 0.65525 0.61964 0.0
C3158 C 0.2298 0.63844 0.60716 0.0
C3159 C 0.16085 0.5494 0.58244 0.0
C3160 C 0.14986 0.56024 0.57588 0.0
C3161 C 0.17849 0.55564 0.58366 0.0
C3162 C 0.1854 0.57283 0.5784 0.0
C3163 C 0.17445 0.5835 0.57152 0.0
C3164 C 0.15683 0.57723 0.57017 0.0
C3165 C 0.20409 0.58018 0.58081 0.0
C3166 C 0.2115 0.59721 0.59292 0.0
C3167 C 0.21457 0.57049 0.5716 0.0
C3168 C 0.20737 0.55272 0.55822 0.0
C3169 C 0.19474 0.55162 0.54237 0.0
C3170 C 0.18798 0.53479 0.52986 0.0
C3171 C 0.19383 0.51899 0.53299 0.0
C3172 C 0.2065 0.52 0.54859 0.0
C3173 C 0.2133 0.5368 0.56115 0.0
H3174 H 0.18858 0.50598 0.52328 0.0
H3175 H 0.25573 0.66955 0.64403 0.0
H3176 H 0.72314 0.96842 0.78888 0.0
H3177 H 0.73639 0.94211 0.7895 0.0
H3178 H 0.68997 0.90816 0.80088 0.0
H3179 H 0.6775 0.93527 0.80231 0.0
H3180 H 0.70894 0.89234 0.81466 0.0
H3181 H 0.71228 0.90752 0.7529 0.0
H3182 H 0.71919 0.92665 0.72817 0.0
H3183 H 0.77248 0.93888 0.75206 0.0
H3184 H 0.76586 0.91997 0.77705 0.0
H3185 H 0.73653 0.80675 0.79089 0.0
H3186 H 0.72291 0.83298 0.79106 0.0
H3187 H 0.77204 0.87087 0.79587 0.0
H3188 H 0.78558 0.84451 0.7952 0.0
H3189 H 0.75118 0.88353 0.77337 0.0
H3190 H 0.74365 0.86353 0.83472 0.0
H3191 H 0.73297 0.83999 0.85421 0.0
H3192 H 0.68204 0.83181 0.82368 0.0
H3193 H 0.69243 0.85513 0.80395 0.0
C3194 C 0.71566 0.95538 0.79154 0.0
C3195 C 0.69898 0.95448 0.79546 0.0
C3196 C 0.72328 0.93982 0.79156 0.0
C3197 C 0.71441 0.92193 0.79448 0.0
C3198 C 0.69767 0.92117 0.79848 0.0
C3199 C 0.69031 0.93696 0.7992 0.0
C3200 C 0.72244 0.90448 0.79377 0.0
C3201 C 0.71798 0.89062 0.8053 0.0
C3202 C 0.7345 0.90104 0.78183 0.0
C3203 C 0.73855 0.91253 0.76697 0.0
C3204 C 0.72546 0.9144 0.75294 0.0
C3205 C 0.72932 0.92518 0.73887 0.0
C3206 C 0.74626 0.93402 0.73858 0.0
C3207 C 0.75937 0.93206 0.75233 0.0
C3208 C 0.75557 0.9213 0.76644 0.0
C3209 C 0.74456 0.82061 0.79206 0.0
C3210 C 0.76243 0.82294 0.79312 0.0
C3211 C 0.73665 0.83597 0.79233 0.0
C3212 C 0.74613 0.85472 0.79387 0.0
C3213 C 0.76398 0.857 0.79475 0.0
C3214 C 0.77188 0.84164 0.79446 0.0
C3215 C 0.73771 0.87174 0.79426 0.0
C3216 C 0.74214 0.88546 0.7827 0.0
C3217 C 0.72506 0.87457 0.8055 0.0
C3218 C 0.71884 0.86099 0.8178 0.0
C3219 C 0.73018 0.85668 0.83217 0.0
C3220 C 0.72418 0.84336 0.84325 0.0
C3221 C 0.70684 0.83436 0.84017 0.0
C3222 C 0.69546 0.83874 0.82607 0.0
C3223 C 0.70139 0.85204 0.81496 0.0
H3224 H 0.70221 0.82401 0.84871 0.0
H3225 H 0.74923 0.94236 0.72768 0.0
H3226 H 0.77202 0.94912 0.59462 0.0
H3227 H 0.74614 0.9605 0.5897 0.0
H3228 H 0.73161 0.92772 0.53344 0.0
H3229 H 0.7573 0.9158 0.53855 0.0
H3230 H 0.73418 0.98048 0.56756 0.0
H3231 H 0.68839 0.91487 0.52045 0.0
H3232 H 0.68433 0.8807 0.51525 0.0
H3233 H 0.71002 0.88364 0.57231 0.0
H3234 H 0.71404 0.91779 0.57792 0.0
H3235 H 0.65809 1.00649 0.53435 0.0
H3236 H 0.68323 0.99366 0.53522 0.0
H3237 H 0.66161 0.95355 0.5688 0.0
H3238 H 0.63605 0.96558 0.56708 0.0
H3239 H 0.67707 0.93719 0.54578 0.0
H3240 H 0.6932 0.99537 0.58855 0.0
H3241 H 0.6969 0.02917 0.59822 0.0
H3242 H 0.73002 0.04039 0.55745 0.0
H3243 H 0.72634 1.00662 0.54737 0.0
C3244 C 0.76334 0.9443 0.58116 0.0
C3245 C 0.76678 0.93144 0.56702 0.0
C3246 C 0.7485 0.9509 0.57834 0.0
C3247 C 0.73664 0.94489 0.56127 0.0
C3248 C 0.74026 0.93235 0.54692 0.0
C3249 C 0.75506 0.9256 0.54981 0.0
C3250 C 0.72057 0.95171 0.55867 0.0
C3251 C 0.72172 0.97096 0.5627 0.0
C3252 C 0.70414 0.93943 0.55267 0.0
C3253 C 0.70168 0.9189 0.54951 0.0
C3254 C 0.69313 0.90821 0.53189 0.0
C3255 C 0.69084 0.88885 0.52888 0.0
C3256 C 0.69697 0.88001 0.54342 0.0
C3257 C 0.70534 0.89051 0.56103 0.0
C3258 C 0.70765 0.90987 0.56413 0.0
C3259 C 0.65848 0.99471 0.54163 0.0
C3260 C 0.64495 0.98728 0.55081 0.0
C3261 C 0.67305 0.98751 0.54234 0.0
C3262 C 0.67464 0.97283 0.55245 0.0
C3263 C 0.66089 0.96494 0.56101 0.0
C3264 C 0.64628 0.97202 0.56018 0.0
C3265 C 0.6907 0.96596 0.55456 0.0
C3266 C 0.68955 0.94671 0.55045 0.0
C3267 C 0.70709 0.97818 0.56103 0.0
C3268 C 0.70935 0.99848 0.56707 0.0
C3269 C 0.70118 1.00505 0.58155 0.0
C3270 C 0.70329 0.0242 0.58712 0.0
C3271 C 0.71365 0.03692 0.57841 0.0
C3272 C 0.72197 0.03051 0.56415 0.0
C3273 C 0.71989 0.01138 0.55852 0.0
H3274 H 0.71527 0.05174 0.58274 0.0
H3275 H 0.6952 0.86503 0.54105 0.0
H3276 H 0.42053 0.43471 0.77504 0.0
H3277 H 0.40066 0.406 0.77868 0.0
H3278 H 0.35813 0.42933 0.76158 0.0
H3279 H 0.3778 0.45801 0.75799 0.0
H3280 H 0.35509 0.41351 0.79363 0.0
H3281 H 0.36956 0.39663 0.73139 0.0
H3282 H 0.38942 0.39187 0.70937 0.0
H3283 H 0.40631 0.35259 0.74153 0.0
H3284 H 0.38676 0.35735 0.76393 0.0
H3285 H 0.28551 0.33516 0.78035 0.0
H3286 H 0.30681 0.36251 0.77632 0.0
H3287 H 0.34584 0.33186 0.78278 0.0
H3288 H 0.32419 0.30423 0.78513 0.0
H3289 H 0.35222 0.35124 0.75764 0.0
H3290 H 0.33982 0.36631 0.8195 0.0
H3291 H 0.32198 0.37042 0.84394 0.0
H3292 H 0.30438 0.41244 0.81687 0.0
H3293 H 0.32185 0.40832 0.79201 0.0
C3294 C 0.40695 0.43371 0.77195 0.0
C3295 C 0.4008 0.44872 0.76619 0.0
C3296 C 0.3956 0.41725 0.774 0.0
C3297 C 0.37788 0.41545 0.7703 0.0
C3298 C 0.37174 0.43038 0.76452 0.0
C3299 C 0.38303 0.44678 0.76241 0.0
C3300 C 0.36563 0.39825 0.77282 0.0
C3301 C 0.35432 0.39991 0.78561 0.0
C3302 C 0.36511 0.38037 0.76298 0.0
C3303 C 0.37683 0.37752 0.74946 0.0
C3304 C 0.37762 0.38711 0.73387 0.0
C3305 C 0.38881 0.38439 0.72131 0.0
C3306 C 0.39918 0.37199 0.7241 0.0
C3307 C 0.39833 0.36224 0.73942 0.0
C3308 C 0.38719 0.36494 0.75205 0.0
C3309 C 0.29864 0.3343 0.7809 0.0
C3310 C 0.30335 0.3177 0.78372 0.0
C3311 C 0.31087 0.35 0.77876 0.0
C3312 C 0.32815 0.34956 0.77982 0.0
C3313 C 0.33271 0.33277 0.78215 0.0
C3314 C 0.3204 0.317 0.78388 0.0
C3315 C 0.3414 0.36647 0.77829 0.0
C3316 C 0.35296 0.36479 0.76576 0.0
C3317 C 0.34249 0.38427 0.78879 0.0
C3318 C 0.33203 0.38688 0.80378 0.0
C3319 C 0.33206 0.37634 0.81867 0.0
C3320 C 0.32202 0.37868 0.83262 0.0
C3321 C 0.31205 0.39167 0.83195 0.0
C3322 C 0.3121 0.40237 0.81735 0.0
C3323 C 0.32207 0.40004 0.80333 0.0
H3324 H 0.30429 0.39346 0.84277 0.0
H3325 H 0.40783 0.3699 0.71436 0.0
H3326 H 0.17636 0.57817 0.31859 0.0
H3327 H 0.19144 0.60989 0.31682 0.0
H3328 H 0.23453 0.59001 0.30265 0.0
H3329 H 0.21928 0.55785 0.3041 0.0
H3330 H 0.24554 0.62403 0.32787 0.0
H3331 H 0.2076 0.60166 0.26846 0.0
H3332 H 0.18002 0.58758 0.24723 0.0
H3333 H 0.15928 0.63185 0.27065 0.0
H3334 H 0.18667 0.64605 0.29224 0.0
H3335 H 0.25765 0.71032 0.27157 0.0
H3336 H 0.24452 0.6779 0.27375 0.0
H3337 H 0.25386 0.69177 0.33491 0.0
H3338 H 0.2672 0.72417 0.33277 0.0
H3339 H 0.21778 0.65975 0.28488 0.0
H3340 H 0.2568 0.65367 0.35614 0.0
H3341 H 0.28541 0.66708 0.37551 0.0
H3342 H 0.30583 0.67841 0.32518 0.0
H3343 H 0.27739 0.66488 0.30549 0.0
C3344 C 0.18911 0.58034 0.31522 0.0
C3345 C 0.1964 0.56494 0.31157 0.0
C3346 C 0.19778 0.59875 0.3141 0.0
C3347 C 0.21429 0.60285 0.30943 0.0
C3348 C 0.22188 0.58762 0.30629 0.0
C3349 C 0.21307 0.56904 0.30714 0.0
C3350 C 0.22321 0.62279 0.30744 0.0
C3351 C 0.23935 0.63177 0.31848 0.0
C3352 C 0.21563 0.63332 0.29506 0.0
C3353 C 0.19914 0.62483 0.2821 0.0
C3354 C 0.19712 0.60831 0.26919 0.0
C3355 C 0.18152 0.60032 0.25707 0.0
C3356 C 0.16789 0.60879 0.25761 0.0
C3357 C 0.16984 0.62529 0.27026 0.0
C3358 C 0.1854 0.63333 0.28244 0.0
C3359 C 0.25701 0.70657 0.28556 0.0
C3360 C 0.26374 0.72028 0.30197 0.0
C3361 C 0.24935 0.6878 0.2868 0.0
C3362 C 0.24814 0.68173 0.30452 0.0
C3363 C 0.25473 0.69549 0.32095 0.0
C3364 C 0.26236 0.71429 0.31971 0.0
C3365 C 0.23996 0.66127 0.30568 0.0
C3366 C 0.22395 0.65212 0.29441 0.0
C3367 C 0.24774 0.65057 0.31774 0.0
C3368 C 0.26494 0.65843 0.32939 0.0
C3369 C 0.26742 0.65895 0.34921 0.0
C3370 C 0.2836 0.66659 0.36024 0.0
C3371 C 0.29742 0.67364 0.35159 0.0
C3372 C 0.2951 0.673 0.33187 0.0
C3373 C 0.27895 0.66537 0.32077 0.0
H3374 H 0.30993 0.67957 0.36016 0.0
H3375 H 0.15584 0.60261 0.24821 0.0
H3376 H 0.55541 0.72001 0.48429 0.0
H3377 H 0.55596 0.69115 0.49686 0.0
H3378 H 0.50343 0.66792 0.47049 0.0
H3379 H 0.5028 0.69688 0.45771 0.0
H3380 H 0.51046 0.65978 0.50765 0.0
H3381 H 0.53397 0.65458 0.45019 0.0
H3382 H 0.55329 0.6649 0.42809 0.0
H3383 H 0.59669 0.66687 0.47037 0.0
H3384 H 0.57762 0.65681 0.49283 0.0
H3385 H 0.5122 0.56542 0.5186 0.0
H3386 H 0.50861 0.59391 0.50664 0.0
H3387 H 0.56239 0.61879 0.52504 0.0
H3388 H 0.56608 0.59039 0.53686 0.0
H3389 H 0.55334 0.62547 0.49075 0.0
H3390 H 0.5313 0.63138 0.5484 0.0
H3391 H 0.51313 0.62286 0.5721 0.0
H3392 H 0.46853 0.62181 0.53212 0.0
H3393 H 0.48635 0.62931 0.50776 0.0
C3394 C 0.54389 0.70885 0.48121 0.0
C3395 C 0.52907 0.71088 0.46988 0.0
C3396 C 0.54425 0.69225 0.48839 0.0
C3397 C 0.52979 0.67713 0.48455 0.0
C3398 C 0.51479 0.67928 0.4737 0.0
C3399 C 0.51446 0.69588 0.46634 0.0
C3400 C 0.53062 0.65904 0.49143 0.0
C3401 C 0.51964 0.65211 0.5037 0.0
C3402 C 0.54287 0.64916 0.48676 0.0
C3403 C 0.55436 0.6551 0.47325 0.0
C3404 C 0.54764 0.65735 0.45482 0.0
C3405 C 0.55854 0.66313 0.44223 0.0
C3406 C 0.57621 0.66658 0.44784 0.0
C3407 C 0.583 0.66421 0.46605 0.0
C3408 C 0.57215 0.65845 0.47871 0.0
C3409 C 0.52327 0.57699 0.52025 0.0
C3410 C 0.53945 0.57547 0.52881 0.0
C3411 C 0.52118 0.59338 0.51341 0.0
C3412 C 0.5352 0.60875 0.51493 0.0
C3413 C 0.55132 0.60725 0.52357 0.0
C3414 C 0.55341 0.59093 0.53045 0.0
C3415 C 0.5333 0.62619 0.50719 0.0
C3416 C 0.54407 0.63302 0.49468 0.0
C3417 C 0.52099 0.63606 0.51186 0.0
C3418 C 0.51015 0.63075 0.52617 0.0
C3419 C 0.51758 0.62898 0.54451 0.0
C3420 C 0.50734 0.62428 0.55805 0.0
C3421 C 0.48966 0.62161 0.55353 0.0
C3422 C 0.48219 0.62361 0.53546 0.0
C3423 C 0.49235 0.62804 0.52177 0.0
H3424 H 0.48176 0.61811 0.56407 0.0
H3425 H 0.58463 0.67106 0.43806 0.0
H3426 H 0.6295 0.3199 0.68686 0.0
H3427 H 0.65728 0.31908 0.70428 0.0
H3428 H 0.63454 0.26626 0.71971 0.0
H3429 H 0.60662 0.26793 0.70368 0.0
H3430 H 0.65625 0.28164 0.7471 0.0
H3431 H 0.66108 0.27379 0.68133 0.0
H3432 H 0.65981 0.2812 0.64878 0.0
H3433 H 0.69739 0.3327 0.66975 0.0
H3434 H 0.69874 0.32569 0.70247 0.0
H3435 H 0.73714 0.25622 0.76642 0.0
H3436 H 0.70959 0.25741 0.74816 0.0
H3437 H 0.72516 0.31743 0.75797 0.0
H3438 H 0.75237 0.31633 0.77673 0.0
H3439 H 0.70786 0.29757 0.71753 0.0
H3440 H 0.7014 0.30255 0.78443 0.0
H3441 H 0.70302 0.29121 0.81523 0.0
H3442 H 0.66818 0.23929 0.78867 0.0
H3443 H 0.66653 0.25026 0.75764 0.0
C3444 C 0.63042 0.30825 0.69419 0.0
C3445 C 0.61578 0.29402 0.6939 0.0
C3446 C 0.64642 0.30761 0.70398 0.0
C3447 C 0.64842 0.2923 0.71301 0.0
C3448 C 0.63364 0.27828 0.71298 0.0
C3449 C 0.61757 0.27924 0.70376 0.0
C3450 C 0.66572 0.29078 0.72244 0.0
C3451 C 0.66738 0.28491 0.74034 0.0
C3452 C 0.68061 0.29504 0.71402 0.0
C3453 C 0.67988 0.2993 0.69437 0.0
C3454 C 0.66899 0.28674 0.67901 0.0
C3455 C 0.66827 0.29086 0.66053 0.0
C3456 C 0.67848 0.30743 0.65721 0.0
C3457 C 0.68947 0.31988 0.67235 0.0
C3458 C 0.69023 0.31584 0.69086 0.0
C3459 C 0.73476 0.26965 0.76446 0.0
C3460 C 0.74693 0.28619 0.77302 0.0
C3461 C 0.71899 0.27032 0.75408 0.0
C3462 C 0.71525 0.28753 0.7517 0.0
C3463 C 0.72772 0.304 0.75956 0.0
C3464 C 0.74326 0.30335 0.7703 0.0
C3465 C 0.69809 0.28848 0.74187 0.0
C3466 C 0.69657 0.29426 0.72402 0.0
C3467 C 0.68324 0.28358 0.75001 0.0
C3468 C 0.68398 0.27715 0.76871 0.0
C3469 C 0.69419 0.28867 0.78514 0.0
C3470 C 0.69508 0.28232 0.80264 0.0
C3471 C 0.68574 0.26453 0.8039 0.0
C3472 C 0.67542 0.25307 0.78767 0.0
C3473 C 0.67448 0.25935 0.77013 0.0
H3474 H 0.68647 0.25963 0.81745 0.0
H3475 H 0.6779 0.3106 0.64289 0.0
H3476 H 1.00068 0.30364 0.99579 0.0
H3477 H 1.00539 0.33647 0.00974 0.0
H3478 H 0.03584 0.35261 0.96748 0.0
H3479 H 0.03124 0.31976 0.95348 0.0
H3480 H 0.03357 0.36472 0.02552 0.0
H3481 H 0.02657 0.39276 0.95428 0.0
H3482 H 0.01253 0.38164 0.92081 0.0
H3483 H 0.9744 0.34082 0.9384 0.0
H3484 H 0.98807 0.35187 0.97197 0.0
H3485 H 0.06013 0.46426 0.04124 0.0
H3486 H 0.05612 0.43108 0.02942 0.0
H3487 H 1.00223 0.42575 0.01231 0.0
H3488 H 1.00613 0.459 0.02408 0.0
H3489 H 0.01498 0.40782 0.98455 0.0
H3490 H 0.01676 0.40942 0.05158 0.0
H3491 H 0.02887 0.42028 0.08561 0.0
H3492 H 0.07366 0.40096 0.07771 0.0
H3493 H 0.06192 0.39024 0.04356 0.0
C3494 C 1.00855 0.31414 0.98956 0.0
C3495 C 0.01555 0.30898 0.97345 0.0
C3496 C 0.01126 0.33295 0.99761 0.0
C3497 C 0.02083 0.34713 0.9896 0.0
C3498 C 0.02825 0.342 0.97384 0.0
C3499 C 0.02568 0.32316 0.96589 0.0
C3500 C 0.02247 0.36723 0.99728 0.0
C3501 C 0.02958 0.37415 0.01652 0.0
C3502 C 0.01696 0.37957 0.98573 0.0
C3503 C 1.00847 0.37302 0.96561 0.0
C3504 C 0.01516 0.38146 0.951 0.0
C3505 C 1.00726 0.37516 0.93201 0.0
C3506 C 0.99262 0.36049 0.92748 0.0
C3507 C 0.98579 0.35213 0.94192 0.0
C3508 C 0.99362 0.35839 0.96093 0.0
C3509 C 0.04738 0.45606 0.03506 0.0
C3510 C 0.03344 0.46442 0.03373 0.0
C3511 C 0.0451 0.43701 0.02832 0.0
C3512 C 0.02884 0.42576 0.02002 0.0
C3513 C 0.01491 0.43406 0.01862 0.0
C3514 C 0.01716 0.4531 0.02548 0.0
C3515 C 0.02641 0.40543 0.0127 0.0
C3516 C 0.0191 0.39845 0.99353 0.0
C3517 C 0.03152 0.39298 0.02439 0.0
C3518 C 0.03852 0.39918 0.04497 0.0
C3519 C 0.02924 0.4076 0.05707 0.0
C3520 C 0.03603 0.41372 0.07638 0.0
C3521 C 0.05204 0.41135 0.0838 0.0
C3522 C 0.06127 0.40281 0.07193 0.0
C3523 C 0.05454 0.39669 0.0526 0.0
H3524 H 0.05729 0.41611 0.09875 0.0
H3525 H 0.98654 0.35562 0.91277 0.0
H3526 H 0.02641 0.77216 0.21442 0.0
H3527 H 0.99969 0.77133 0.22629 0.0
H3528 H 0.98206 0.79776 0.18002 0.0
H3529 H 0.00922 0.79939 0.1686 0.0
H3530 H 0.97151 0.81102 0.20931 0.0
H3531 H 0.9682 0.74863 0.18138 0.0
H3532 H 0.97743 0.71938 0.17544 0.0
H3533 H 0.97743 0.7128 0.23389 0.0
H3534 H 0.96842 0.74215 0.24025 0.0
H3535 H 0.88485 0.7872 0.22613 0.0
H3536 H 0.91015 0.78824 0.21097 0.0
H3537 H 0.93523 0.76985 0.25925 0.0
H3538 H 0.91001 0.76843 0.27422 0.0
H3539 H 0.94051 0.75198 0.22634 0.0
H3540 H 0.94384 0.81612 0.25308 0.0
H3541 H 0.93297 0.84448 0.25673 0.0
H3542 H 0.93097 0.84644 0.19705 0.0
H3543 H 0.94155 0.81788 0.19299 0.0
C3544 C 0.0169 0.77791 0.20681 0.0
C3545 C 0.02 0.78576 0.19047 0.0
C3546 C 1.00148 0.77728 0.21354 0.0
C3547 C 0.98846 0.78401 0.20384 0.0
C3548 C 0.99173 0.79234 0.18779 0.0
C3549 C 1.00731 0.79327 0.18124 0.0
C3550 C 0.97153 0.78227 0.21044 0.0
C3551 C 0.96465 0.79799 0.21273 0.0
C3552 C 0.96239 0.76536 0.21508 0.0
C3553 C 0.96778 0.74768 0.21132 0.0
C3554 C 0.97028 0.74101 0.193 0.0
C3555 C 0.97546 0.72441 0.18955 0.0
C3556 C 0.97806 0.71427 0.20429 0.0
C3557 C 0.97544 0.72069 0.22249 0.0
C3558 C 0.97027 0.73729 0.22602 0.0
C3559 C 0.89568 0.7832 0.23343 0.0
C3560 C 0.89537 0.77792 0.25154 0.0
C3561 C 0.91024 0.78395 0.22481 0.0
C3562 C 0.92481 0.77938 0.23404 0.0
C3563 C 0.92428 0.77356 0.25182 0.0
C3564 C 0.90983 0.7729 0.26046 0.0
C3565 C 0.94071 0.78075 0.22548 0.0
C3566 C 0.94737 0.76495 0.2228 0.0
C3567 C 0.94945 0.79746 0.22016 0.0
C3568 C 0.94332 0.81476 0.22269 0.0
C3569 C 0.94097 0.82253 0.24071 0.0
C3570 C 0.93487 0.83865 0.24286 0.0
C3571 C 0.93124 0.84724 0.22712 0.0
C3572 C 0.93376 0.83975 0.20922 0.0
C3573 C 0.93981 0.8236 0.20699 0.0
H3574 H 0.92651 0.8597 0.22876 0.0
H3575 H 0.98207 0.70141 0.20159 0.0
H3576 H 0.54481 0.29855 0.14661 0.0
H3577 H 0.54073 0.32653 0.13456 0.0
H3578 H 0.5282 0.34754 0.18815 0.0
H3579 H 0.53187 0.31902 0.20028 0.0
H3580 H 0.50755 0.35475 0.15831 0.0
H3581 H 0.56725 0.36511 0.17831 0.0
H3582 H 0.59538 0.35763 0.18172 0.0
H3583 H 0.59323 0.35209 0.12121 0.0
H3584 H 0.56497 0.35926 0.11739 0.0
H3585 H 0.53569 0.44444 0.11673 0.0
H3586 H 0.53616 0.42324 0.14013 0.0
H3587 H 0.51445 0.3762 0.09541 0.0
H3588 H 0.51334 0.39716 0.07205 0.0
H3589 H 0.55401 0.38807 0.12837 0.0
H3590 H 0.48891 0.36787 0.11152 0.0
H3591 H 0.46173 0.37751 0.10971 0.0
H3592 H 0.47675 0.40557 0.16764 0.0
H3593 H 0.50413 0.3963 0.16963 0.0
C3594 C 0.54117 0.30907 0.15589 0.0
C3595 C 0.53886 0.30669 0.17449 0.0
C3596 C 0.53889 0.32511 0.14898 0.0
C3597 C 0.53456 0.33932 0.16061 0.0
C3598 C 0.53168 0.33679 0.17901 0.0
C3599 C 0.53381 0.32055 0.18592 0.0
C3600 C 0.53332 0.35675 0.15325 0.0
C3601 C 0.51783 0.3622 0.15207 0.0
C3602 C 0.54681 0.36676 0.14536 0.0
C3603 C 0.56394 0.36266 0.14757 0.0
C3604 C 0.57273 0.3622 0.16572 0.0
C3605 C 0.58871 0.35802 0.16772 0.0
C3606 C 0.59608 0.35437 0.15169 0.0
C3607 C 0.58751 0.35493 0.13362 0.0
C3608 C 0.57152 0.35909 0.13153 0.0
C3609 C 0.53053 0.42962 0.11196 0.0
C3610 C 0.52462 0.42245 0.09249 0.0
C3611 C 0.53087 0.41757 0.12534 0.0
C3612 C 0.52519 0.39825 0.11944 0.0
C3613 C 0.51866 0.39111 0.1002 0.0
C3614 C 0.51823 0.4031 0.08687 0.0
C3615 C 0.52806 0.38526 0.13267 0.0
C3616 C 0.54392 0.38078 0.135 0.0
C3617 C 0.51507 0.37637 0.14178 0.0
C3618 C 0.49857 0.38159 0.14064 0.0
C3619 C 0.48645 0.37623 0.12379 0.0
C3620 C 0.47101 0.3816 0.12275 0.0
C3621 C 0.46754 0.3922 0.13854 0.0
C3622 C 0.47947 0.3974 0.15542 0.0
C3623 C 0.49494 0.3921 0.15651 0.0
H3624 H 0.45558 0.39634 0.1377 0.0
H3625 H 0.60845 0.35113 0.15327 0.0
H3626 H 0.98202 0.28422 0.34656 0.0
H3627 H 0.9516 0.28011 0.3347 0.0
H3628 H 0.94074 0.27539 0.39113 0.0
H3629 H 0.97109 0.2799 0.40319 0.0
H3630 H 0.92344 0.2532 0.33311 0.0
H3631 H 0.90941 0.29671 0.39907 0.0
H3632 H 0.92445 0.32297 0.42455 0.0
H3633 H 0.95974 0.343 0.38845 0.0
H3634 H 0.94478 0.31702 0.36268 0.0
H3635 H 0.83347 0.24178 0.32237 0.0
H3636 H 0.86318 0.24278 0.33505 0.0
H3637 H 0.87709 0.30188 0.33352 0.0
H3638 H 0.84739 0.30109 0.32193 0.0
H3639 H 0.89313 0.29645 0.3638 0.0
H3640 H 0.88298 0.26579 0.29852 0.0
H3641 H 0.86867 0.24147 0.27091 0.0
H3642 H 0.88311 0.19959 0.30093 0.0
H3643 H 0.89712 0.22356 0.32889 0.0
C3644 C 0.97315 0.28226 0.35644 0.0
C3645 C 0.979 0.28259 0.37586 0.0
C3646 C 0.95577 0.27982 0.34962 0.0
C3647 C 0.94394 0.27767 0.36208 0.0
C3648 C 0.94968 0.27735 0.38133 0.0
C3649 C 0.96705 0.27991 0.38819 0.0
C3650 C 0.92569 0.27651 0.35513 0.0
C3651 C 0.91676 0.26263 0.33978 0.0
C3652 C 0.91709 0.289 0.36369 0.0
C3653 C 0.92608 0.3048 0.37904 0.0
C3654 C 0.92034 0.30676 0.39656 0.0
C3655 C 0.92886 0.32159 0.41105 0.0
C3656 C 0.94307 0.33461 0.40815 0.0
C3657 C 0.94877 0.33286 0.39071 0.0
C3658 C 0.94029 0.31808 0.37617 0.0
C3659 C 0.84288 0.25499 0.32494 0.0
C3660 C 0.83814 0.27138 0.32127 0.0
C3661 C 0.85987 0.25553 0.33203 0.0
C3662 C 0.87247 0.27236 0.33495 0.0
C3663 C 0.86764 0.28874 0.33146 0.0
C3664 C 0.85064 0.28828 0.32485 0.0
C3665 C 0.89073 0.27314 0.34164 0.0
C3666 C 0.8997 0.28694 0.35706 0.0
C3667 C 0.89943 0.26089 0.33275 0.0
C3668 C 0.89099 0.24648 0.31588 0.0
C3669 C 0.88299 0.25138 0.2993 0.0
C3670 C 0.87493 0.23765 0.28358 0.0
C3671 C 0.87498 0.21901 0.28419 0.0
C3672 C 0.88306 0.21404 0.30051 0.0
C3673 C 0.89104 0.22768 0.31629 0.0
H3674 H 0.86878 0.20839 0.27203 0.0
H3675 H 0.94966 0.34607 0.41939 0.0
H3676 H 0.04642 0.69087 0.68829 0.0
H3677 H 0.04494 0.66571 0.66227 0.0
H3678 H 0.03983 0.70275 0.62159 0.0
H3679 H 0.04161 0.7282 0.6476 0.0
H3680 H 0.01679 0.66389 0.6123 0.0
H3681 H 0.07588 0.69753 0.6298 0.0
H3682 H 0.10241 0.71241 0.65256 0.0
H3683 H 0.10341 0.65998 0.67085 0.0
H3684 H 0.07671 0.64484 0.64839 0.0
H3685 H 0.02985 0.59789 0.53887 0.0
H3686 H 0.03365 0.62822 0.55896 0.0
H3687 H 0.05133 0.60561 0.60821 0.0
H3688 H 0.04781 0.57558 0.58828 0.0
H3689 H 0.06903 0.64039 0.61031 0.0
H3690 H 0.00977 0.60729 0.59708 0.0
H3691 H 0.98238 0.59102 0.57645 0.0
H3692 H 0.98065 0.64053 0.55235 0.0
H3693 H 1.00819 0.65702 0.57267 0.0
C3694 C 0.04473 0.69363 0.67381 0.0
C3695 C 0.04421 0.71155 0.67 0.0
C3696 C 0.04396 0.67926 0.65898 0.0
C3697 C 0.04243 0.68249 0.6401 0.0
C3698 C 0.04105 0.70007 0.63612 0.0
C3699 C 0.0421 0.71456 0.65098 0.0
C3700 C 0.04314 0.66766 0.62474 0.0
C3701 C 0.02828 0.65896 0.61155 0.0
C3702 C 0.05806 0.66107 0.62415 0.0
C3703 C 0.07421 0.67009 0.63753 0.0
C3704 C 0.08167 0.68921 0.63879 0.0
C3705 C 0.09676 0.69768 0.65161 0.0
C3706 C 0.10457 0.68716 0.66317 0.0
C3707 C 0.09733 0.66812 0.66189 0.0
C3708 C 0.08223 0.65958 0.64911 0.0
C3709 C 0.03487 0.59955 0.55392 0.0
C3710 C 0.03841 0.58438 0.56207 0.0
C3711 C 0.03695 0.61682 0.56538 0.0
C3712 C 0.0425 0.61907 0.58513 0.0
C3713 C 0.047 0.6042 0.59303 0.0
C3714 C 0.04496 0.58702 0.58161 0.0
C3715 C 0.04259 0.63635 0.59792 0.0
C3716 C 0.0576 0.64551 0.61073 0.0
C3717 C 0.02772 0.64315 0.59835 0.0
C3718 C 0.01113 0.63331 0.58621 0.0
C3719 C 1.00361 0.61466 0.58727 0.0
C3720 C 0.98805 0.6054 0.57565 0.0
C3721 C 0.97981 0.61472 0.56305 0.0
C3722 C 0.98708 0.63332 0.56208 0.0
C3723 C 1.00266 0.64263 0.57365 0.0
H3724 H 0.96776 0.60753 0.55407 0.0
H3725 H 0.11625 0.69374 0.67309 0.0
H3726 H 0.59768 0.80676 0.89964 0.0
H3727 H 0.62091 0.80456 0.8822 0.0
H3728 H 0.59414 0.82168 0.8341 0.0
H3729 H 0.57069 0.82385 0.85144 0.0
H3730 H 0.60476 0.79037 0.82401 0.0
H3731 H 0.62977 0.85086 0.85947 0.0
H3732 H 0.639 0.87535 0.88784 0.0
H3733 H 0.67277 0.84483 0.91289 0.0
H3734 H 0.66356 0.82 0.88479 0.0
H3735 H 0.67487 0.78251 0.7774 0.0
H3736 H 0.65416 0.79707 0.79108 0.0
H3737 H 0.67246 0.78499 0.84624 0.0
H3738 H 0.69352 0.77109 0.83286 0.0
H3739 H 0.66608 0.81886 0.84937 0.0
H3740 H 0.6371 0.75637 0.8171 0.0
H3741 H 0.62758 0.73107 0.78943 0.0
H3742 H 0.60109 0.76516 0.759 0.0
H3743 H 0.61065 0.79077 0.78643 0.0
C3744 C 0.59676 0.81023 0.88542 0.0
C3745 C 0.58229 0.81541 0.8769 0.0
C3746 C 0.61012 0.8091 0.87552 0.0
C3747 C 0.60931 0.81316 0.85694 0.0
C3748 C 0.59502 0.8186 0.84847 0.0
C3749 C 0.58166 0.81983 0.85841 0.0
C3750 C 0.62281 0.81022 0.84598 0.0
C3751 C 0.61815 0.79697 0.82928 0.0
C3752 C 0.64027 0.81859 0.85308 0.0
C3753 C 0.64587 0.83349 0.87004 0.0
C3754 C 0.63906 0.84929 0.87109 0.0
C3755 C 0.64431 0.86325 0.88711 0.0
C3756 C 0.65644 0.86163 0.90217 0.0
C3757 C 0.66337 0.84606 0.90121 0.0
C3758 C 0.65815 0.83205 0.88523 0.0
C3759 C 0.67459 0.78317 0.79248 0.0
C3760 C 0.68559 0.77535 0.804 0.0
C3761 C 0.66272 0.7914 0.80025 0.0
C3762 C 0.66161 0.79183 0.8196 0.0
C3763 C 0.67304 0.78471 0.83124 0.0
C3764 C 0.68491 0.77655 0.82353 0.0
C3765 C 0.64802 0.79872 0.82768 0.0
C3766 C 0.65266 0.81266 0.84385 0.0
C3767 C 0.63053 0.79093 0.82017 0.0
C3768 C 0.62476 0.77555 0.8037 0.0
C3769 C 0.62935 0.75852 0.80445 0.0
C3770 C 0.62394 0.74412 0.78882 0.0
C3771 C 0.61378 0.74653 0.77244 0.0
C3772 C 0.60899 0.76333 0.77168 0.0
C3773 C 0.6144 0.77779 0.78726 0.0
H3774 H 0.6096 0.73536 0.76036 0.0
H3775 H 0.66049 0.87246 0.91457 0.0
H3776 H 0.43613 0.49844 0.69607 0.0
H3777 H 0.45059 0.50332 0.66882 0.0
H3778 H 0.49912 0.52162 0.70656 0.0
H3779 H 0.48479 0.51621 0.73395 0.0
H3780 H 0.48765 0.5457 0.67519 0.0
H3781 H 0.49682 0.48497 0.6863 0.0
H3782 H 0.48659 0.45234 0.69065 0.0
H3783 H 0.45363 0.44043 0.63624 0.0
H3784 H 0.4635 0.47309 0.63171 0.0
H3785 H 0.5446 0.55397 0.60971 0.0
H3786 H 0.52964 0.5489 0.63631 0.0
H3787 H 0.49121 0.50415 0.59997 0.0
H3788 H 0.50709 0.50826 0.57369 0.0
H3789 H 0.49631 0.49336 0.63075 0.0
H3790 H 0.48563 0.55095 0.61729 0.0
H3791 H 0.49219 0.58336 0.6112 0.0
H3792 H 0.52278 0.60153 0.66691 0.0
H3793 H 0.51659 0.56918 0.67324 0.0
C3794 C 0.44989 0.50344 0.69861 0.0
C3795 C 0.45931 0.50692 0.71721 0.0
C3796 C 0.45812 0.50621 0.683 0.0
C3797 C 0.4759 0.51284 0.68568 0.0
C3798 C 0.48537 0.51649 0.70421 0.0
C3799 C 0.47718 0.51332 0.71982 0.0
C3800 C 0.48453 0.51606 0.66908 0.0
C3801 C 0.4898 0.53434 0.66557 0.0
C3802 C 0.48657 0.50114 0.65609 0.0
C3803 C 0.48075 0.48151 0.65877 0.0
C3804 C 0.48726 0.47544 0.67536 0.0
C3805 C 0.48156 0.45693 0.67783 0.0
C3806 C 0.46943 0.44433 0.66376 0.0
C3807 C 0.46301 0.45021 0.64715 0.0
C3808 C 0.46866 0.46871 0.64461 0.0
C3809 C 0.53287 0.54315 0.60732 0.0
C3810 C 0.52693 0.53163 0.5895 0.0
C3811 C 0.5242 0.54033 0.62257 0.0
C3812 C 0.50894 0.5264 0.62025 0.0
C3813 C 0.50288 0.51504 0.6023 0.0
C3814 C 0.51188 0.51749 0.58717 0.0
C3815 C 0.49978 0.52322 0.63671 0.0
C3816 C 0.49426 0.50489 0.64022 0.0
C3817 C 0.49705 0.53811 0.64939 0.0
C3818 C 0.50076 0.5576 0.64567 0.0
C3819 C 0.49385 0.56184 0.62819 0.0
C3820 C 0.49749 0.5802 0.62471 0.0
C3821 C 0.50793 0.59449 0.63864 0.0
C3822 C 0.51471 0.59045 0.65612 0.0
C3823 C 0.51113 0.5721 0.65968 0.0
H3824 H 0.51073 0.6087 0.63592 0.0
H3825 H 0.46503 0.43001 0.6657 0.0
H3826 H 0.82607 0.22147 0.03533 0.0
H3827 H 0.81094 0.22388 1.00441 0.0
H3828 H 0.82047 0.17209 0.97992 0.0
H3829 H 0.83565 0.16943 0.01099 0.0
H3830 H 0.82181 0.20201 0.95566 0.0
H3831 H 0.78534 0.16629 0.99098 0.0
H3832 H 0.77392 0.15918 0.01989 0.0
H3833 H 0.75581 0.20918 0.02364 0.0
H3834 H 0.76744 0.2168 0.99497 0.0
H3835 H 0.76247 0.21003 0.88039 0.0
H3836 H 0.76731 0.19123 0.90518 0.0
H3837 H 0.77406 0.23931 0.9483 0.0
H3838 H 0.76976 0.25826 0.92382 0.0
H3839 H 0.76125 0.20129 0.9594 0.0
H3840 H 0.8102 0.24067 0.935 0.0
H3841 H 0.81974 0.25033 0.90588 0.0
H3842 H 0.81163 0.19293 0.88085 0.0
H3843 H 0.8021 0.18299 0.90988 0.0
C3844 C 0.82541 0.21085 0.02329 0.0
C3845 C 0.83178 0.1951 0.02565 0.0
C3846 C 0.8167 0.21221 1.00567 0.0
C3847 C 0.81427 0.1979 0.99015 0.0
C3848 C 0.82212 0.18314 0.99188 0.0
C3849 C 0.83084 0.18171 0.0096 0.0
C3850 C 0.80214 0.19777 0.9729 0.0
C3851 C 0.80845 0.2012 0.95624 0.0
C3852 C 0.78472 0.19684 0.97379 0.0
C3853 C 0.77736 0.19216 0.99085 0.0
C3854 C 0.77903 0.17584 0.99803 0.0
C3855 C 0.77251 0.17171 0.01438 0.0
C3856 C 0.76416 0.18373 0.02361 0.0
C3857 C 0.76228 0.19988 0.01648 0.0
C3858 C 0.76882 0.2041 1.00016 0.0
C3859 C 0.76445 0.21644 0.89518 0.0
C3860 C 0.76629 0.23575 0.90017 0.0
C3861 C 0.76697 0.20562 0.90929 0.0
C3862 C 0.77128 0.21402 0.92847 0.0
C3863 C 0.77068 0.23261 0.93353 0.0
C3864 C 0.76827 0.24346 0.91947 0.0
C3865 C 0.781 0.20569 0.94237 0.0
C3866 C 0.77436 0.20105 0.95851 0.0
C3867 C 0.79805 0.2053 0.94101 0.0
C3868 C 0.80563 0.21113 0.92457 0.0
C3869 C 0.81075 0.23016 0.92338 0.0
C3870 C 0.81606 0.23567 0.90688 0.0
C3871 C 0.81632 0.22226 0.89154 0.0
C3872 C 0.81148 0.2033 0.89277 0.0
C3873 C 0.80621 0.19772 0.90927 0.0
H3874 H 0.82018 0.22656 0.87868 0.0
H3875 H 0.75913 0.18051 0.03627 0.0
H3876 H 0.15223 0.50057 0.23606 0.0
H3877 H 0.13683 0.50212 0.20472 0.0
H3878 H 0.09294 0.50811 0.22959 0.0
H3879 H 0.10845 0.50696 0.26117 0.0
H3880 H 0.08327 0.48354 0.19464 0.0
H3881 H 0.11881 0.54533 0.21683 0.0
H3882 H 0.14597 0.56869 0.22913 0.0
H3883 H 0.16581 0.55168 0.17931 0.0
H3884 H 0.13885 0.52797 0.16685 0.0
H3885 H 0.03482 0.51175 0.1192 0.0
H3886 H 0.05173 0.50939 0.14905 0.0
H3887 H 0.09614 0.51323 0.12227 0.0
H3888 H 0.07901 0.51598 0.092 0.0
H3889 H 0.10663 0.53179 0.15743 0.0
H3890 H 0.07274 0.47056 0.13469 0.0
H3891 H 0.04671 0.44571 0.12169 0.0
H3892 H 0.02521 0.45943 0.17126 0.0
H3893 H 0.05104 0.48453 0.18447 0.0
C3894 C 0.13924 0.50207 0.235 0.0
C3895 C 0.13176 0.50352 0.2516 0.0
C3896 C 0.13039 0.5031 0.21686 0.0
C3897 C 0.11353 0.5054 0.21432 0.0
C3898 C 0.10585 0.50635 0.23076 0.0
C3899 C 0.11482 0.50567 0.24901 0.0
C3900 C 0.10409 0.50695 0.19474 0.0
C3901 C 0.08835 0.4943 0.18672 0.0
C3902 C 0.11069 0.52045 0.18358 0.0
C3903 C 0.12687 0.53474 0.191 0.0
C3904 C 0.12901 0.54646 0.20857 0.0
C3905 C 0.14436 0.55978 0.21556 0.0
C3906 C 0.15762 0.56165 0.20503 0.0
C3907 C 0.15554 0.55021 0.18746 0.0
C3908 C 0.14022 0.53682 0.18043 0.0
C3909 C 0.04819 0.51207 0.11945 0.0
C3910 C 0.05532 0.51404 0.10278 0.0
C3911 C 0.05796 0.51057 0.13678 0.0
C3912 C 0.07543 0.51069 0.13842 0.0
C3913 C 0.08276 0.51297 0.12182 0.0
C3914 C 0.07289 0.51454 0.10432 0.0
C3915 C 0.08564 0.50848 0.15737 0.0
C3916 C 0.10153 0.52099 0.1653 0.0
C3917 C 0.07934 0.49463 0.16833 0.0
C3918 C 0.06377 0.47955 0.16049 0.0
C3919 C 0.06241 0.46837 0.14276 0.0
C3920 C 0.0477 0.45422 0.13536 0.0
C3921 C 0.0343 0.45103 0.14562 0.0
C3922 C 0.0356 0.46194 0.16332 0.0
C3923 C 0.05028 0.47611 0.17078 0.0
H3924 H 0.02292 0.44007 0.13987 0.0
H3925 H 0.16949 0.57199 0.21045 0.0
H3926 H 0.81194 0.83064 0.50981 0.0
H3927 H 0.80738 0.81606 0.47653 0.0
H3928 H 0.78203 0.85802 0.45993 0.0
H3929 H 0.78608 0.87236 0.49343 0.0
H3930 H 0.7669 0.82572 0.43788 0.0
H3931 H 0.82469 0.86129 0.45711 0.0
H3932 H 0.8532 0.87138 0.47728 0.0
H3933 H 0.86043 0.816 0.46538 0.0
H3934 H 0.83185 0.80552 0.44533 0.0
H3935 H 0.81349 0.81353 0.34946 0.0
H3936 H 0.81355 0.8264 0.38248 0.0
H3937 H 0.76982 0.78205 0.38396 0.0
H3938 H 0.76903 0.77002 0.35046 0.0
H3939 H 0.81894 0.81651 0.41357 0.0
H3940 H 0.74721 0.79341 0.41737 0.0
H3941 H 0.71932 0.78622 0.39606 0.0
H3942 H 0.74073 0.82299 0.35962 0.0
H3943 H 0.76872 0.83053 0.38081 0.0
C3944 C 0.8052 0.83666 0.49912 0.0
C3945 C 0.79952 0.85279 0.50429 0.0
C3946 C 0.80266 0.82834 0.48004 0.0
C3947 C 0.7947 0.83615 0.46557 0.0
C3948 C 0.78827 0.85174 0.47076 0.0
C3949 C 0.79062 0.85996 0.48994 0.0
C3950 C 0.79399 0.82866 0.44508 0.0
C3951 C 0.77827 0.82371 0.43254 0.0
C3952 C 0.80884 0.82632 0.43791 0.0
C3953 C 0.82607 0.83259 0.44987 0.0
C3954 C 0.83232 0.85124 0.45889 0.0
C3955 C 0.84849 0.85703 0.47029 0.0
C3956 C 0.8586 0.84433 0.47264 0.0
C3957 C 0.85258 0.82582 0.46356 0.0
C3958 C 0.8364 0.81995 0.45217 0.0
C3959 C 0.80387 0.80657 0.35685 0.0
C3960 C 0.79121 0.79084 0.34738 0.0
C3961 C 0.8039 0.81392 0.37578 0.0
C3962 C 0.79151 0.80548 0.38585 0.0
C3963 C 0.7792 0.7893 0.3765 0.0
C3964 C 0.77885 0.78229 0.35737 0.0
C3965 C 0.79181 0.81349 0.40615 0.0
C3966 C 0.8075 0.8185 0.41876 0.0
C3967 C 0.77699 0.81638 0.41317 0.0
C3968 C 0.7601 0.8124 0.40061 0.0
C3969 C 0.74594 0.80005 0.40488 0.0
C3970 C 0.73012 0.7959 0.39281 0.0
C3971 C 0.72825 0.80412 0.37648 0.0
C3972 C 0.7422 0.81659 0.37225 0.0
C3973 C 0.75805 0.8208 0.38427 0.0
H3974 H 0.71601 0.80084 0.36713 0.0
H3975 H 0.87112 0.84884 0.48147 0.0
H3976 H 0.44761 0.51961 0.83345 0.0
H3977 H 0.45927 0.52497 0.86748 0.0
H3978 H 0.50478 0.5091 0.85467 0.0
H3979 H 0.49268 0.50272 0.82078 0.0
H3980 H 0.49676 0.49348 0.88153 0.0
H3981 H 0.5026 0.55638 0.87191 0.0
H3982 H 0.4938 0.58367 0.86162 0.0
H3983 H 0.45752 0.57999 0.89971 0.0
H3984 H 0.46595 0.55252 0.91005 0.0
H3985 H 0.53328 0.55272 0.98331 0.0
H3986 H 0.5233 0.55123 0.94932 0.0
H3987 H 0.49253 0.49554 0.94659 0.0
H3988 H 0.5031 0.49664 0.98031 0.0
H3989 H 0.49529 0.54846 0.92743 0.0
H3990 H 0.4886 0.4691 0.90456 0.0
H3991 H 0.50202 0.44441 0.91439 0.0
H3992 H 0.54809 0.48555 0.93993 0.0
H3993 H 0.53503 0.51044 0.93004 0.0
C3994 C 0.46019 0.51751 0.83791 0.0
C3995 C 0.46923 0.51075 0.82442 0.0
C3996 C 0.46692 0.52066 0.85741 0.0
C3997 C 0.48306 0.51765 0.86385 0.0
C3998 C 0.49228 0.51145 0.85025 0.0
C3999 C 0.48539 0.50789 0.83081 0.0
C4000 C 0.48995 0.51992 0.88467 0.0
C4001 C 0.49645 0.50557 0.89149 0.0
C4002 C 0.48995 0.5358 0.89785 0.0
C4003 C 0.48479 0.55228 0.89162 0.0
C4004 C 0.49265 0.5613 0.87799 0.0
C4005 C 0.48775 0.57681 0.87216 0.0
C4006 C 0.47508 0.58353 0.87997 0.0
C4007 C 0.46731 0.57476 0.89366 0.0
C4008 C 0.47216 0.55922 0.89952 0.0
C4009 C 0.52438 0.54015 0.97546 0.0
C4010 C 0.51915 0.52471 0.98449 0.0
C4011 C 0.51863 0.53933 0.956 0.0
C4012 C 0.50737 0.52314 0.94516 0.0
C4013 C 0.50158 0.50801 0.9544 0.0
C4014 C 0.50758 0.50869 0.97375 0.0
C4015 C 0.50189 0.52195 0.9242 0.0
C4016 C 0.49562 0.53644 0.9174 0.0
C4017 C 0.50274 0.50655 0.91091 0.0
C4018 C 0.51077 0.49164 0.91672 0.0
C4019 C 0.50162 0.47286 0.91221 0.0
C4020 C 0.50916 0.45884 0.9178 0.0
C4021 C 0.52588 0.46342 0.92783 0.0
C4022 C 0.53512 0.48203 0.93222 0.0
C4023 C 0.52765 0.4961 0.92664 0.0
H4024 H 0.53168 0.45254 0.93216 0.0
H4025 H 0.4713 0.59554 0.87545 0.0
H4026 H 0.84046 0.16785 0.13965 0.0
H4027 H 0.83678 0.18521 0.16882 0.0
H4028 H 0.87154 0.23432 0.15847 0.0
H4029 H 0.87359 0.21719 0.12774 0.0
H4030 H 0.84941 0.20103 0.19937 0.0
H4031 H 0.86179 0.27368 0.17655 0.0
H4032 H 0.86168 0.28766 0.14721 0.0
H4033 H 0.82548 0.23852 0.11601 0.0
H4034 H 0.82525 0.22436 0.14521 0.0
H4035 H 0.83754 0.27328 0.27098 0.0
H4036 H 0.84997 0.25678 0.24685 0.0
H4037 H 0.80153 0.24228 0.20881 0.0
H4038 H 0.78883 0.25786 0.23329 0.0
H4039 H 0.83388 0.26111 0.19457 0.0
H4040 H 0.8051 0.20998 0.21613 0.0
H4041 H 0.79307 0.18485 0.23291 0.0
H4042 H 0.84338 0.17885 0.25286 0.0
H4043 H 0.85584 0.20454 0.23666 0.0
C4044 C 0.8477 0.18222 0.14379 0.0
C4045 C 0.85719 0.19123 0.13137 0.0
C4046 C 0.84558 0.19225 0.16059 0.0
C4047 C 0.85346 0.21138 0.16579 0.0
C4048 C 0.86472 0.21982 0.15449 0.0
C4049 C 0.86616 0.20996 0.1371 0.0
C4050 C 0.84849 0.2224 0.18198 0.0
C4051 C 0.84625 0.2143 0.19833 0.0
C4052 C 0.84374 0.23946 0.18054 0.0
C4053 C 0.84371 0.24789 0.16297 0.0
C4054 C 0.8538 0.26589 0.16342 0.0
C4055 C 0.8538 0.27384 0.14683 0.0
C4056 C 0.84364 0.26395 0.12974 0.0
C4057 C 0.83339 0.24613 0.12923 0.0
C4058 C 0.83333 0.23814 0.14579 0.0
C4059 C 0.82958 0.26647 0.25747 0.0
C4060 C 0.8123 0.26684 0.25382 0.0
C4061 C 0.83664 0.25702 0.2438 0.0
C4062 C 0.82662 0.24831 0.22614 0.0
C4063 C 0.8094 0.24886 0.22242 0.0
C4064 C 0.80219 0.25774 0.23633 0.0
C4065 C 0.83431 0.23923 0.2113 0.0
C4066 C 0.83739 0.24801 0.19559 0.0
C4067 C 0.83826 0.22187 0.21237 0.0
C4068 C 0.83146 0.20957 0.22557 0.0
C4069 C 0.8137 0.20394 0.22477 0.0
C4070 C 0.80677 0.18938 0.23393 0.0
C4071 C 0.81744 0.18014 0.24369 0.0
C4072 C 0.83514 0.18598 0.24513 0.0
C4073 C 0.84216 0.20066 0.23612 0.0
H4074 H 0.81193 0.16837 0.25001 0.0
H4075 H 0.84367 0.27012 0.11691 0.0
H4076 H 0.10642 0.53645 0.35059 0.0
H4077 H 0.09258 0.53817 0.37859 0.0
H4078 H 0.12888 0.51251 0.40759 0.0
H4079 H 0.14195 0.50962 0.37895 0.0
H4080 H 0.10358 0.50116 0.42121 0.0
H4081 H 0.12625 0.56456 0.41598 0.0
H4082 H 0.13146 0.59279 0.40099 0.0
H4083 H 0.07779 0.59031 0.39173 0.0
H4084 H 0.07224 0.56193 0.40647 0.0
H4085 H 0.08346 0.53066 0.5144 0.0
H4086 H 0.09761 0.52863 0.48638 0.0
H4087 H 0.05305 0.53589 0.45134 0.0
H4088 H 0.03874 0.5375 0.47915 0.0
H4089 H 0.08301 0.55698 0.4419 0.0
H4090 H 0.06222 0.49354 0.45052 0.0
H4091 H 0.05972 0.46829 0.46969 0.0
H4092 H 0.11377 0.47341 0.47598 0.0
H4093 H 0.11667 0.49917 0.45732 0.0
C4094 C 0.11153 0.53113 0.36288 0.0
C4095 C 0.12555 0.52294 0.36209 0.0
C4096 C 0.10363 0.53234 0.3793 0.0
C4097 C 0.10967 0.52607 0.3962 0.0
C4098 C 0.1236 0.51766 0.39526 0.0
C4099 C 0.13126 0.51604 0.37865 0.0
C4100 C 0.1015 0.52805 0.41447 0.0
C4101 C 0.09939 0.51361 0.42566 0.0
C4102 C 0.09557 0.54402 0.42106 0.0
C4103 C 0.09882 0.56101 0.41213 0.0
C4104 C 0.11555 0.56997 0.41063 0.0
C4105 C 0.11856 0.58601 0.40219 0.0
C4106 C 0.10496 0.59331 0.39536 0.0
C4107 C 0.08831 0.58462 0.39699 0.0
C4108 C 0.08522 0.56857 0.4054 0.0
C4109 C 0.0766 0.5319 0.50079 0.0
C4110 C 0.05973 0.53427 0.49946 0.0
C4111 C 0.08478 0.53065 0.48454 0.0
C4112 C 0.07661 0.53199 0.4662 0.0
C4113 C 0.05993 0.53479 0.46499 0.0
C4114 C 0.05165 0.53568 0.48112 0.0
C4115 C 0.08517 0.53019 0.44837 0.0
C4116 C 0.08729 0.54462 0.43732 0.0
C4117 C 0.0915 0.51447 0.44223 0.0
C4118 C 0.08969 0.49845 0.45271 0.0
C4119 C 0.0736 0.48938 0.4561 0.0
C4120 C 0.07212 0.47501 0.46693 0.0
C4121 C 0.0866 0.46932 0.47417 0.0
C4122 C 0.10258 0.47791 0.47045 0.0
C4123 C 0.10415 0.49242 0.45977 0.0
H4124 H 0.08543 0.45818 0.48255 0.0
H4125 H 0.10731 0.60573 0.38883 0.0
H4126 H 0.80062 0.83782 0.59375 0.0
H4127 H 0.79765 0.82024 0.62014 0.0
H4128 H 0.80286 0.87122 0.65866 0.0
H4129 H 0.80572 0.88891 0.63235 0.0
H4130 H 0.82251 0.84848 0.67366 0.0
H4131 H 0.76438 0.84234 0.64381 0.0
H4132 H 0.74024 0.83438 0.61697 0.0
H4133 H 0.74462 0.77768 0.6083 0.0
H4134 H 0.76896 0.78538 0.63494 0.0
H4135 H 0.79424 0.81247 0.75333 0.0
H4136 H 0.79863 0.82862 0.72628 0.0
H4137 H 0.78549 0.77574 0.68863 0.0
H4138 H 0.78052 0.75953 0.71573 0.0
H4139 H 0.77063 0.79858 0.67243 0.0
H4140 H 0.82771 0.80347 0.70233 0.0
H4141 H 0.85189 0.81055 0.72904 0.0
H4142 H 0.85047 0.86821 0.73696 0.0
H4143 H 0.82607 0.86143 0.7105 0.0
C4144 C 0.80111 0.84533 0.60782 0.0
C4145 C 0.80336 0.86484 0.61082 0.0
C4146 C 0.79937 0.83522 0.62292 0.0
C4147 C 0.79995 0.84435 0.64146 0.0
C4148 C 0.80238 0.86382 0.64454 0.0
C4149 C 0.80393 0.87392 0.62941 0.0
C4150 C 0.79791 0.83361 0.6576 0.0
C4151 C 0.81108 0.83771 0.67349 0.0
C4152 C 0.78325 0.81914 0.65721 0.0
C4153 C 0.7686 0.81448 0.64123 0.0
C4154 C 0.76029 0.82821 0.63608 0.0
C4155 C 0.74656 0.82374 0.62092 0.0
C4156 C 0.74094 0.80555 0.6109 0.0
C4157 C 0.74901 0.79178 0.61605 0.0
C4158 C 0.76276 0.79618 0.63119 0.0
C4159 C 0.79241 0.80425 0.73932 0.0
C4160 C 0.78707 0.78469 0.73671 0.0
C4161 C 0.795 0.81352 0.7238 0.0
C4162 C 0.79265 0.80349 0.70528 0.0
C4163 C 0.78743 0.78389 0.7027 0.0
C4164 C 0.78467 0.7746 0.71823 0.0
C4165 C 0.79521 0.81347 0.68864 0.0
C4166 C 0.78213 0.80926 0.67263 0.0
C4167 C 0.81006 0.82769 0.68883 0.0
C4168 C 0.82495 0.83191 0.70452 0.0
C4169 C 0.83249 0.81765 0.70983 0.0
C4170 C 0.84624 0.8216 0.72493 0.0
C4171 C 0.85269 0.83981 0.73472 0.0
C4172 C 0.84544 0.85411 0.72938 0.0
C4173 C 0.83166 0.85022 0.71432 0.0
H4174 H 0.86332 0.84284 0.74641 0.0
H4175 H 0.7303 0.80211 0.59918 0.0
H4176 H 0.72171 0.40745 0.58501 0.0
H4177 H 0.69609 0.41611 0.59209 0.0
H4178 H 0.66635 0.37765 0.54265 0.0
H4179 H 0.69245 0.36961 0.53488 0.0
H4180 H 0.6587 0.40797 0.5414 0.0
H4181 H 0.65989 0.37289 0.59069 0.0
H4182 H 0.67135 0.35962 0.61791 0.0
H4183 H 0.68677 0.41401 0.6522 0.0
H4184 H 0.67565 0.42768 0.62513 0.0
H4185 H 0.59877 0.45777 0.56236 0.0
H4186 H 0.60977 0.42984 0.56326 0.0
H4187 H 0.6564 0.46299 0.59865 0.0
H4188 H 0.64524 0.49087 0.59831 0.0
H4189 H 0.64704 0.42577 0.60625 0.0
H4190 H 0.65275 0.45865 0.55029 0.0
H4191 H 0.63889 0.47047 0.52325 0.0
H4192 H 0.60677 0.41569 0.50188 0.0
H4193 H 0.62039 0.40362 0.5289 0.0
C4194 C 0.70969 0.40053 0.5758 0.0
C4195 C 0.70912 0.38796 0.55928 0.0
C4196 C 0.69493 0.40534 0.58002 0.0
C4197 C 0.67912 0.39733 0.56811 0.0
C4198 C 0.67837 0.384 0.5521 0.0
C4199 C 0.69328 0.37942 0.54766 0.0
C4200 C 0.66419 0.40509 0.571 0.0
C4201 C 0.65581 0.41124 0.55553 0.0
C4202 C 0.66018 0.40941 0.58937 0.0
C4203 C 0.66694 0.40133 0.60581 0.0
C4204 C 0.66582 0.38205 0.60399 0.0
C4205 C 0.67224 0.37445 0.61941 0.0
C4206 C 0.67979 0.38596 0.63677 0.0
C4207 C 0.6809 0.4051 0.63875 0.0
C4208 C 0.6745 0.41278 0.62338 0.0
C4209 C 0.61117 0.45898 0.57075 0.0
C4210 C 0.62128 0.47649 0.58004 0.0
C4211 C 0.61738 0.44304 0.57131 0.0
C4212 C 0.63397 0.44445 0.58075 0.0
C4213 C 0.64354 0.46163 0.59132 0.0
C4214 C 0.63721 0.47756 0.59103 0.0
C4215 C 0.64252 0.42916 0.57689 0.0
C4216 C 0.64961 0.42172 0.59212 0.0
C4217 C 0.64504 0.42321 0.55826 0.0
C4218 C 0.63753 0.43027 0.54157 0.0
C4219 C 0.64278 0.44915 0.53977 0.0
C4220 C 0.63494 0.45589 0.52449 0.0
C4221 C 0.62196 0.44383 0.51086 0.0
C4222 C 0.61684 0.425 0.51243 0.0
C4223 C 0.62463 0.4182 0.5277 0.0
H4224 H 0.61586 0.44909 0.49907 0.0
H4225 H 0.68476 0.38005 0.64869 0.0
H4226 H 0.2058 0.13726 0.51243 0.0
H4227 H 0.17735 0.11975 0.51509 0.0
H4228 H 0.19799 0.07384 0.52936 0.0
H4229 H 0.22663 0.09135 0.52688 0.0
H4230 H 0.16695 0.06215 0.50371 0.0
H4231 H 0.18928 0.10281 0.56385 0.0
H4232 H 0.20198 0.13311 0.58463 0.0
H4233 H 0.1589 0.15361 0.56362 0.0
H4234 H 0.14605 0.12349 0.5425 0.0
H4235 H 0.09797 0.01137 0.53957 0.0
H4236 H 0.1259 0.02929 0.53582 0.0
H4237 H 0.1054 0.07742 0.53082 0.0
H4238 H 0.07744 0.05946 0.53506 0.0
H4239 H 0.13613 0.08865 0.55092 0.0
H4240 H 0.1133 0.04923 0.49124 0.0
H4241 H 0.10013 0.01979 0.46918 0.0
H4242 H 0.1432 0.99803 0.48723 0.0
H4243 H 0.15653 0.02726 0.5096 0.0
C4244 C 0.20434 0.12335 0.51594 0.0
C4245 C 0.21867 0.1158 0.51945 0.0
C4246 C 0.188 0.11338 0.51757 0.0
C4247 C 0.18545 0.09551 0.52267 0.0
C4248 C 0.19957 0.08761 0.52548 0.0
C4249 C 0.21599 0.09767 0.52404 0.0
C4250 C 0.16815 0.08528 0.52545 0.0
C4251 C 0.16031 0.06784 0.51421 0.0
C4252 C 0.15913 0.09289 0.5387 0.0
C4253 C 0.16679 0.11096 0.55146 0.0
C4254 C 0.18258 0.11383 0.56355 0.0
C4255 C 0.1898 0.13096 0.57541 0.0
C4256 C 0.18128 0.14529 0.57541 0.0
C4257 C 0.1655 0.1425 0.56358 0.0
C4258 C 0.15824 0.1254 0.55168 0.0
C4259 C 0.09942 0.02582 0.5378 0.0
C4260 C 0.08546 0.03402 0.53774 0.0
C4261 C 0.11543 0.03606 0.53549 0.0
C4262 C 0.11788 0.05473 0.53263 0.0
C4263 C 0.10399 0.06308 0.53296 0.0
C4264 C 0.08797 0.05283 0.53547 0.0
C4265 C 0.13489 0.06537 0.52926 0.0
C4266 C 0.14269 0.08292 0.54037 0.0
C4267 C 0.14378 0.05796 0.51569 0.0
C4268 C 0.13584 0.04037 0.50223 0.0
C4269 C 0.11991 0.03812 0.49061 0.0
C4270 C 0.11242 0.02148 0.47803 0.0
C4271 C 0.1208 1.00703 0.47684 0.0
C4272 C 0.13671 0.00922 0.48819 0.0
C4273 C 0.14425 0.02583 0.5008 0.0
H4274 H 0.11499 0.99416 0.46709 0.0
H4275 H 0.18688 0.15855 0.5846 0.0
H4276 H 0.16602 0.97588 0.82802 0.0
H4277 H 0.18107 0.9508 0.82884 0.0
H4278 H 0.21224 0.97456 0.7901 0.0
H4279 H 0.19711 0.99922 0.7889 0.0
H4280 H 0.20128 0.9385 0.77902 0.0
H4281 H 0.22704 0.97869 0.83915 0.0
H4282 H 0.22689 0.99574 0.87084 0.0
H4283 H 0.20435 0.9444 0.88853 0.0
H4284 H 0.20418 0.92706 0.85685 0.0
H4285 H 0.27125 0.89811 0.78695 0.0
H4286 H 0.25286 0.91973 0.78932 0.0
H4287 H 0.22479 0.88684 0.82497 0.0
H4288 H 0.24316 0.86495 0.82255 0.0
H4289 H 0.23111 0.92428 0.83831 0.0
H4290 H 0.20765 0.88385 0.77909 0.0
H4291 H 0.20821 0.86675 0.74758 0.0
H4292 H 0.22633 0.91847 0.72818 0.0
H4293 H 0.22612 0.93589 0.75967 0.0
C4294 C 0.17613 0.97577 0.81975 0.0
C4295 C 0.18033 0.98955 0.80838 0.0
C4296 C 0.18477 0.96146 0.82028 0.0
C4297 C 0.19789 0.96081 0.80961 0.0
C4298 C 0.20214 0.97467 0.7984 0.0
C4299 C 0.19348 0.98883 0.79777 0.0
C4300 C 0.20709 0.9456 0.8096 0.0
C4301 C 0.20792 0.93553 0.792 0.0
C4302 C 0.21529 0.9412 0.82654 0.0
C4303 C 0.21541 0.95161 0.84557 0.0
C4304 C 0.22192 0.97106 0.84975 0.0
C4305 C 0.22192 0.98077 0.86772 0.0
C4306 C 0.21556 0.97117 0.88167 0.0
C4307 C 0.20924 0.95182 0.8777 0.0
C4308 C 0.2092 0.94205 0.85975 0.0
C4309 C 0.26108 0.89533 0.79516 0.0
C4310 C 0.25858 0.87964 0.80437 0.0
C4311 C 0.25059 0.90776 0.79656 0.0
C4312 C 0.23726 0.90477 0.80708 0.0
C4313 C 0.23497 0.88941 0.81673 0.0
C4314 C 0.2455 0.87693 0.81536 0.0
C4315 C 0.22569 0.91766 0.8077 0.0
C4316 C 0.22434 0.92718 0.82537 0.0
C4317 C 0.21699 0.92159 0.79083 0.0
C4318 C 0.21698 0.91117 0.77179 0.0
C4319 C 0.21186 0.89158 0.76814 0.0
C4320 C 0.2121 0.88182 0.75028 0.0
C4321 C 0.21733 0.89152 0.7359 0.0
C4322 C 0.22229 0.91098 0.73934 0.0
C4323 C 0.22209 0.92081 0.75718 0.0
H4324 H 0.21751 0.88394 0.72208 0.0
H4325 H 0.21558 0.97871 0.89557 0.0
H4326 H 0.29434 0.87127 1.00417 0.0
H4327 H 0.32274 0.89234 0.01041 0.0
H4328 H 0.30577 0.93115 0.04849 0.0
H4329 H 0.27722 0.91005 0.04245 0.0
H4330 H 0.32578 0.94774 0.02264 0.0
H4331 H 0.32828 0.90669 0.06819 0.0
H4332 H 0.32417 0.87631 0.07928 0.0
H4333 H 0.35819 0.85988 0.04373 0.0
H4334 H 0.36228 0.89004 0.03215 0.0
H4335 H 0.4128 0.99943 0.04972 0.0
H4336 H 0.38432 0.98259 0.05349 0.0
H4337 H 0.39019 0.93325 0.01924 0.0
H4338 H 0.41866 0.94974 0.01588 0.0
H4339 H 0.37527 0.92459 0.04904 0.0
H4340 H 0.36895 0.96252 0.99977 0.0
H4341 H 0.37267 0.99206 0.98702 0.0
H4342 H 0.34561 0.01358 0.0283 0.0
H4343 H 0.34193 0.98422 0.04146 0.0
C4344 C 0.29657 0.88435 0.01376 0.0
C4345 C 0.28355 0.88896 0.02288 0.0
C4346 C 0.31283 0.89631 0.01738 0.0
C4347 C 0.31634 0.91314 0.03009 0.0
C4348 C 0.30327 0.91815 0.03872 0.0
C4349 C 0.28701 0.90608 0.03526 0.0
C4350 C 0.33381 0.92529 0.03439 0.0
C4351 C 0.3366 0.94289 0.02881 0.0
C4352 C 0.34786 0.91876 0.0422 0.0
C4353 C 0.34551 0.90061 0.04921 0.0
C4354 C 0.33478 0.89655 0.06261 0.0
C4355 C 0.33247 0.87938 0.06901 0.0
C4356 C 0.34092 0.86618 0.06222 0.0
C4357 C 0.35167 0.87012 0.04899 0.0
C4358 C 0.35401 0.88727 0.04252 0.0
C4359 C 0.40807 0.98493 0.04322 0.0
C4360 C 0.41781 0.97598 0.03222 0.0
C4361 C 0.3918 0.97536 0.04531 0.0
C4362 C 0.38508 0.95675 0.03643 0.0
C4363 C 0.39511 0.94762 0.02616 0.0
C4364 C 0.41129 0.95713 0.02406 0.0
C4365 C 0.3673 0.94686 0.0368 0.0
C4366 C 0.36444 0.92964 0.04327 0.0
C4367 C 0.3532 0.95367 0.02967 0.0
C4368 C 0.35536 0.97129 0.02175 0.0
C4369 C 0.36392 0.97361 0.00622 0.0
C4370 C 0.366 0.99031 0.99891 0.0
C4371 C 0.35943 1.00472 0.00689 0.0
C4372 C 0.35073 1.00243 0.02216 0.0
C4373 C 0.34864 0.98576 0.02955 0.0
H4374 H 0.36105 0.01763 1.0012 0.0
H4375 H 0.33917 0.85293 0.06725 0.0
H4376 H 0.88596 0.60824 0.79865 0.0
H4377 H 0.87311 0.63518 0.8003 0.0
H4378 H 0.8431 0.61302 0.74465 0.0
H4379 H 0.8556 0.58594 0.74323 0.0
H4380 H 0.87178 0.66416 0.78551 0.0
H4381 H 0.80764 0.62947 0.73539 0.0
H4382 H 0.78749 0.59858 0.72565 0.0
H4383 H 0.80538 0.58237 0.77851 0.0
H4384 H 0.82548 0.61323 0.78864 0.0
H4385 H 0.8319 0.73997 0.77114 0.0
H4386 H 0.84473 0.71328 0.76787 0.0
H4387 H 0.80155 0.67948 0.7857 0.0
H4388 H 0.78809 0.70582 0.78725 0.0
H4389 H 0.80969 0.65619 0.76503 0.0
H4390 H 0.8508 0.7001 0.81551 0.0
H4391 H 0.86932 0.73147 0.82842 0.0
H4392 H 0.89535 0.72888 0.78059 0.0
H4393 H 0.87731 0.6974 0.7677 0.0
C4394 C 0.87654 0.60893 0.78672 0.0
C4395 C 0.87195 0.5943 0.77085 0.0
C4396 C 0.86912 0.62466 0.78765 0.0
C4397 C 0.85656 0.62671 0.7728 0.0
C4398 C 0.85222 0.61221 0.75679 0.0
C4399 C 0.8596 0.59647 0.75589 0.0
C4400 C 0.84818 0.64373 0.77406 0.0
C4401 C 0.85817 0.66215 0.78095 0.0
C4402 C 0.83029 0.64211 0.76858 0.0
C4403 C 0.81819 0.62358 0.76266 0.0
C4404 C 0.80724 0.61933 0.74494 0.0
C4405 C 0.79583 0.60182 0.73935 0.0
C4406 C 0.7952 0.5885 0.75142 0.0
C4407 C 0.80593 0.59267 0.76914 0.0
C4408 C 0.81734 0.61016 0.77481 0.0
C4409 C 0.82504 0.72688 0.77438 0.0
C4410 C 0.80873 0.72555 0.77953 0.0
C4411 C 0.83266 0.71134 0.77282 0.0
C4412 C 0.8248 0.69367 0.77715 0.0
C4413 C 0.80841 0.69243 0.7822 0.0
C4414 C 0.80058 0.70781 0.78319 0.0
C4415 C 0.83328 0.67667 0.77626 0.0
C4416 C 0.8233 0.65822 0.76953 0.0
C4417 C 0.8511 0.6782 0.78226 0.0
C4418 C 0.86274 0.69648 0.79067 0.0
C4419 C 0.86061 0.7062 0.80788 0.0
C4420 C 0.87101 0.72399 0.81519 0.0
C4421 C 0.88351 0.73219 0.80534 0.0
C4422 C 0.88568 0.72257 0.78822 0.0
C4423 C 0.87552 0.70466 0.78102 0.0
H4424 H 0.89155 0.74595 0.81101 0.0
H4425 H 0.78637 0.57495 0.74706 0.0
H4426 H 0.82394 0.62813 1.00518 0.0
H4427 H 0.84936 0.61556 0.00607 0.0
H4428 H 0.83338 0.58404 0.04942 0.0
H4429 H 0.80821 0.59679 0.04883 0.0
H4430 H 0.86596 0.59991 0.05914 0.0
H4431 H 0.8307 0.56372 1.0014 0.0
H4432 H 0.8133 0.55877 0.96941 0.0
H4433 H 0.85643 0.58835 0.9484 0.0
H4434 H 0.87404 0.59369 0.98034 0.0
H4435 H 0.92111 0.53902 0.05885 0.0
H4436 H 0.89623 0.55217 0.05514 0.0
H4437 H 0.91639 0.58275 0.01301 0.0
H4438 H 0.94147 0.56956 0.01667 0.0
H4439 H 0.88273 0.56892 1.00207 0.0
H4440 H 0.91821 0.60433 0.0594 0.0
H4441 H 0.93574 0.60933 0.09132 0.0
H4442 H 0.89229 0.58158 0.11309 0.0
H4443 H 0.87454 0.57618 0.08123 0.0
C4444 C 0.82576 0.6184 0.0148 0.0
C4445 C 0.81391 0.61348 0.02689 0.0
C4446 C 0.84033 0.61114 0.01526 0.0
C4447 C 0.84339 0.59864 0.02772 0.0
C4448 C 0.83147 0.59364 0.03968 0.0
C4449 C 0.81697 0.60091 0.03926 0.0
C4450 C 0.85913 0.59114 0.02879 0.0
C4451 C 0.86945 0.59292 0.04665 0.0
C4452 C 0.86419 0.58249 0.01251 0.0
C4453 C 0.85363 0.57928 0.99331 0.0
C4454 C 0.83643 0.5693 0.98999 0.0
C4455 C 0.82654 0.5664 0.97186 0.0
C4456 C 0.83374 0.57329 0.95689 0.0
C4457 C 0.85086 0.58305 0.96001 0.0
C4458 C 0.86081 0.586 0.97812 0.0
C4459 C 0.92042 0.54869 0.04891 0.0
C4460 C 0.93357 0.55336 0.03827 0.0
C4461 C 0.90608 0.55622 0.04676 0.0
C4462 C 0.90443 0.56881 0.03404 0.0
C4463 C 0.91728 0.57314 0.02299 0.0
C4464 C 0.93166 0.56554 0.02508 0.0
C4465 C 0.88937 0.57745 0.03246 0.0
C4466 C 0.87923 0.57594 0.01454 0.0
C4467 C 0.88447 0.5864 0.04868 0.0
C4468 C 0.89508 0.58971 0.06788 0.0
C4469 C 0.91242 0.59918 0.07096 0.0
C4470 C 0.92239 0.6021 0.08905 0.0
C4471 C 0.91514 0.59574 0.10421 0.0
C4472 C 0.89789 0.58648 0.10133 0.0
C4473 C 0.88786 0.5835 0.08326 0.0
H4474 H 0.92289 0.59802 0.11821 0.0
H4475 H 0.82606 0.57102 0.94287 0.0
H4476 H 0.15866 0.10422 0.82367 0.0
H4477 H 0.17769 0.13435 0.82264 0.0
H4478 H 0.21914 0.10775 0.81784 0.0
H4479 H 0.20018 0.07759 0.81841 0.0
H4480 H 0.20674 0.15653 0.84264 0.0
H4481 H 0.24243 0.12596 0.78674 0.0
H4482 H 0.23705 0.0992 0.76078 0.0
H4483 H 0.18325 0.09587 0.75364 0.0
H4484 H 0.18833 0.12275 0.77936 0.0
H4485 H 0.28297 0.22147 0.8343 0.0
H4486 H 0.26153 0.19409 0.83827 0.0
H4487 H 0.23279 0.19407 0.78313 0.0
H4488 H 0.25422 0.22134 0.77909 0.0
H4489 H 0.2365 0.1598 0.78705 0.0
H4490 H 0.21817 0.20777 0.82212 0.0
H4491 H 0.22109 0.23572 0.84586 0.0
H4492 H 0.23561 0.20653 0.89078 0.0
H4493 H 0.23302 0.17845 0.86726 0.0
C4494 C 0.17189 0.10481 0.82264 0.0
C4495 C 0.17783 0.08842 0.82088 0.0
C4496 C 0.18276 0.12207 0.82208 0.0
C4497 C 0.19977 0.12328 0.81978 0.0
C4498 C 0.20597 0.10712 0.81919 0.0
C4499 C 0.19511 0.08987 0.8196 0.0
C4500 C 0.21077 0.14115 0.8169 0.0
C4501 C 0.21328 0.15723 0.83052 0.0
C4502 C 0.21893 0.14227 0.80079 0.0
C4503 C 0.21576 0.12625 0.7851 0.0
C4504 C 0.22946 0.11956 0.77957 0.0
C4505 C 0.22646 0.10437 0.76491 0.0
C4506 C 0.20981 0.09581 0.75561 0.0
C4507 C 0.19613 0.10247 0.7609 0.0
C4508 C 0.19906 0.11767 0.77553 0.0
C4509 C 0.27201 0.21567 0.8231 0.0
C4510 C 0.27019 0.22354 0.80644 0.0
C4511 C 0.25974 0.2001 0.82541 0.0
C4512 C 0.24549 0.1921 0.81105 0.0
C4513 C 0.24366 0.20001 0.7944 0.0
C4514 C 0.25587 0.21563 0.79215 0.0
C4515 C 0.23286 0.17504 0.81305 0.0
C4516 C 0.23001 0.1591 0.79922 0.0
C4517 C 0.22407 0.17423 0.82867 0.0
C4518 C 0.22555 0.19104 0.8429 0.0
C4519 C 0.22212 0.20734 0.83704 0.0
C4520 C 0.2237 0.22321 0.85046 0.0
C4521 C 0.22858 0.22292 0.86981 0.0
C4522 C 0.23185 0.20674 0.87578 0.0
C4523 C 0.23031 0.19083 0.86241 0.0
H4524 H 0.22979 0.23522 0.88018 0.0
H4525 H 0.20751 0.08403 0.74428 0.0
H4526 H 0.35497 0.99912 0.29371 0.0
H4527 H 0.33929 0.96686 0.29465 0.0
H4528 H 0.37912 0.94586 0.27282 0.0
H4529 H 0.39499 0.97779 0.2726 0.0
H4530 H 0.34347 0.925 0.25452 0.0
H4531 H 0.37942 0.94655 0.31652 0.0
H4532 H 0.38991 0.96795 0.34707 0.0
H4533 H 0.33929 0.9569 0.36036 0.0
H4534 H 0.32845 0.93563 0.32972 0.0
H4535 H 0.3221 0.82917 0.26625 0.0
H4536 H 0.33564 0.86157 0.26481 0.0
H4537 H 0.31077 0.88019 0.31011 0.0
H4538 H 0.29829 0.84768 0.31245 0.0
H4539 H 0.33759 0.90347 0.31619 0.0
H4540 H 0.3004 0.88279 0.25631 0.0
H4541 H 0.28753 0.8627 0.22542 0.0
H4542 H 0.3362 0.8735 0.20721 0.0
H4543 H 0.34941 0.89349 0.23809 0.0
C4544 C 0.36032 0.98765 0.28892 0.0
C4545 C 0.37637 0.99137 0.28298 0.0
C4546 C 0.35134 0.96906 0.28956 0.0
C4547 C 0.35785 0.9535 0.2838 0.0
C4548 C 0.37358 0.95728 0.27733 0.0
C4549 C 0.38272 0.97574 0.27722 0.0
C4550 C 0.34874 0.93343 0.28486 0.0
C4551 C 0.34231 0.9203 0.26804 0.0
C4552 C 0.34658 0.92697 0.30233 0.0
C4553 C 0.35309 0.93968 0.32074 0.0
C4554 C 0.37049 0.94883 0.32587 0.0
C4555 C 0.37651 0.9609 0.34322 0.0
C4556 C 0.36527 0.96383 0.35562 0.0
C4557 C 0.34798 0.95465 0.35072 0.0
C4558 C 0.3419 0.94258 0.33337 0.0
C4559 C 0.31942 0.84013 0.2759 0.0
C4560 C 0.30886 0.83542 0.2894 0.0
C4561 C 0.32712 0.85896 0.27494 0.0
C4562 C 0.32413 0.87411 0.28695 0.0
C4563 C 0.31357 0.86931 0.30049 0.0
C4564 C 0.30625 0.85046 0.30179 0.0
C4565 C 0.33213 0.89468 0.28573 0.0
C4566 C 0.33849 0.90799 0.30255 0.0
C4567 C 0.3338 0.90143 0.26818 0.0
C4568 C 0.32592 0.88948 0.24958 0.0
C4569 C 0.30838 0.88079 0.24576 0.0
C4570 C 0.30102 0.86943 0.22825 0.0
C4571 C 0.31105 0.86678 0.21438 0.0
C4572 C 0.32845 0.87554 0.21797 0.0
C4573 C 0.33588 0.8869 0.23547 0.0
H4574 H 0.30533 0.85797 0.20084 0.0
H4575 H 0.36995 0.97318 0.36905 0.0
H4576 H 0.58983 0.33944 0.60473 0.0
H4577 H 0.58607 0.36718 0.59143 0.0
H4578 H 0.54585 0.37115 0.6236 0.0
H4579 H 0.54973 0.34352 0.63717 0.0
H4580 H 0.56134 0.37574 0.56956 0.0
H4581 H 0.54503 0.41664 0.6357 0.0
H4582 H 0.55126 0.42002 0.67073 0.0
H4583 H 0.59806 0.40335 0.66755 0.0
H4584 H 0.59222 0.4001 0.63254 0.0
H4585 H 0.52795 0.45255 0.54411 0.0
H4586 H 0.53238 0.42449 0.55656 0.0
H4587 H 0.58012 0.45637 0.59065 0.0
H4588 H 0.57595 0.48429 0.57801 0.0
H4589 H 0.56234 0.43438 0.61144 0.0
H4590 H 0.57952 0.4266 0.55109 0.0
H4591 H 0.57736 0.42437 0.51632 0.0
H4592 H 0.53463 0.37695 0.50811 0.0
H4593 H 0.5365 0.37903 0.5429 0.0
C4594 C 0.58016 0.34618 0.60901 0.0
C4595 C 0.57014 0.33916 0.62214 0.0
C4596 C 0.57797 0.36209 0.6013 0.0
C4597 C 0.56577 0.37157 0.60654 0.0
C4598 C 0.55556 0.36441 0.61946 0.0
C4599 C 0.55774 0.34848 0.62718 0.0
C4600 C 0.56384 0.38892 0.59861 0.0
C4601 C 0.56145 0.3885 0.57877 0.0
C4602 C 0.56438 0.40588 0.61045 0.0
C4603 C 0.56808 0.40793 0.6315 0.0
C4604 C 0.55667 0.41375 0.64249 0.0
C4605 C 0.56013 0.41564 0.66234 0.0
C4606 C 0.57501 0.41184 0.67136 0.0
C4607 C 0.5865 0.40621 0.66055 0.0
C4608 C 0.58311 0.40432 0.6407 0.0
C4609 C 0.53946 0.45357 0.55415 0.0
C4610 C 0.55162 0.47076 0.55991 0.0
C4611 C 0.54201 0.43746 0.56126 0.0
C4612 C 0.55667 0.43813 0.57452 0.0
C4613 C 0.56872 0.45534 0.58043 0.0
C4614 C 0.56635 0.47134 0.57307 0.0
C4615 C 0.5594 0.42104 0.58239 0.0
C4616 C 0.56201 0.42154 0.60223 0.0
C4617 C 0.55941 0.40429 0.57055 0.0
C4618 C 0.55808 0.4031 0.54962 0.0
C4619 C 0.5696 0.41579 0.54188 0.0
C4620 C 0.56845 0.41453 0.52216 0.0
C4621 C 0.55583 0.40055 0.51 0.0
C4622 C 0.54438 0.38779 0.51755 0.0
C4623 C 0.5455 0.38899 0.53728 0.0
H4624 H 0.55495 0.39958 0.49474 0.0
H4625 H 0.57766 0.4133 0.68672 0.0
H4626 H 0.45386 0.74486 0.40219 0.0
H4627 H 0.42472 0.7458 0.389 0.0
H4628 H 0.44476 0.78648 0.35516 0.0
H4629 H 0.47381 0.78591 0.36862 0.0
H4630 H 0.42085 0.7972 0.37034 0.0
H4631 H 0.42453 0.73847 0.3365 0.0
H4632 H 0.42926 0.70675 0.33337 0.0
H4633 H 0.38883 0.68956 0.36444 0.0
H4634 H 0.384 0.72126 0.36795 0.0
H4635 H 0.34952 0.79402 0.30142 0.0
H4636 H 0.37632 0.79111 0.31902 0.0
H4637 H 0.34858 0.75488 0.35226 0.0
H4638 H 0.32138 0.75767 0.33433 0.0
H4639 H 0.37487 0.74127 0.34064 0.0
H4640 H 0.36973 0.79952 0.37207 0.0
H4641 H 0.36476 0.83112 0.37447 0.0
H4642 H 0.40796 0.84919 0.34761 0.0
H4643 H 0.41305 0.81763 0.34479 0.0
C4644 C 0.45207 0.75387 0.39179 0.0
C4645 C 0.4663 0.76526 0.38647 0.0
C4646 C 0.43533 0.75437 0.38418 0.0
C4647 C 0.43232 0.76612 0.37087 0.0
C4648 C 0.44655 0.77731 0.36541 0.0
C4649 C 0.46325 0.7769 0.37307 0.0
C4650 C 0.41453 0.76728 0.36296 0.0
C4651 C 0.4109 0.78493 0.36367 0.0
C4652 C 0.40115 0.75133 0.35478 0.0
C4653 C 0.40404 0.73229 0.35268 0.0
C4654 C 0.41674 0.72796 0.34279 0.0
C4655 C 0.41942 0.70998 0.34093 0.0
C4656 C 0.40939 0.69617 0.34875 0.0
C4657 C 0.39661 0.70029 0.35842 0.0
C4658 C 0.39389 0.71826 0.36034 0.0
C4659 C 0.34903 0.78551 0.31257 0.0
C4660 C 0.33323 0.77611 0.31645 0.0
C4661 C 0.36446 0.7839 0.32271 0.0
C4662 C 0.36465 0.77291 0.33719 0.0
C4663 C 0.34886 0.76349 0.3412 0.0
C4664 C 0.33331 0.76517 0.33103 0.0
C4665 C 0.3814 0.7712 0.34766 0.0
C4666 C 0.38481 0.75349 0.34746 0.0
C4667 C 0.39462 0.7871 0.35629 0.0
C4668 C 0.3917 0.80616 0.3581 0.0
C4669 C 0.37811 0.8102 0.36656 0.0
C4670 C 0.37528 0.82811 0.36801 0.0
C4671 C 0.38602 0.84214 0.36117 0.0
C4672 C 0.39964 0.8383 0.3529 0.0
C4673 C 0.40252 0.82041 0.35139 0.0
H4674 H 0.3838 0.856 0.3623 0.0
H4675 H 0.41148 0.68225 0.34729 0.0
H4676 H 0.07621 0.74415 0.10325 0.0
H4677 H 0.07484 0.71194 0.08947 0.0
H4678 H 0.03646 0.69206 0.1226 0.0
H4679 H 0.0383 0.72408 0.13689 0.0
H4680 H 0.05792 0.67232 0.12571 0.0
H4681 H 0.02874 0.69094 0.07147 0.0
H4682 H 0.02489 0.71036 0.04666 0.0
H4683 H 0.06887 0.69894 0.02556 0.0
H4684 H 0.07311 0.67962 0.05041 0.0
H4685 H 0.02573 0.57913 0.07904 0.0
H4686 H 0.0293 0.61241 0.08932 0.0
H4687 H 0.07535 0.62427 0.06544 0.0
H4688 H 0.07196 0.59066 0.05515 0.0
H4689 H 0.05242 0.64818 0.05702 0.0
H4690 H 0.07993 0.62779 0.11108 0.0
H4691 H 0.0821 0.60746 0.13534 0.0
H4692 H 0.03906 0.6217 0.15628 0.0
H4693 H 0.03647 0.64191 0.13195 0.0
C4694 C 0.06726 0.73293 0.10734 0.0
C4695 C 0.05735 0.73681 0.1212 0.0
C4696 C 0.06646 0.71442 0.09941 0.0
C4697 C 0.05547 0.69931 0.10483 0.0
C4698 C 0.04516 0.70328 0.11818 0.0
C4699 C 0.04614 0.7217 0.12629 0.0
C4700 C 0.05521 0.67939 0.09747 0.0
C4701 C 0.0565 0.6671 0.11064 0.0
C4702 C 0.05386 0.67239 0.07785 0.0
C4703 C 0.05136 0.68401 0.06293 0.0
C4704 C 0.03767 0.69269 0.06164 0.0
C4705 C 0.0354 0.70366 0.04755 0.0
C4706 C 0.04666 0.70593 0.03458 0.0
C4707 C 0.06018 0.69719 0.03564 0.0
C4708 C 0.06252 0.68623 0.04971 0.0
C4709 C 0.03665 0.58872 0.07589 0.0
C4710 C 0.04859 0.58207 0.06625 0.0
C4711 C 0.03868 0.60783 0.08184 0.0
C4712 C 0.05263 0.62094 0.07826 0.0
C4713 C 0.06446 0.61446 0.06838 0.0
C4714 C 0.06256 0.59522 0.06259 0.0
C4715 C 0.05481 0.64128 0.08526 0.0
C4716 C 0.05392 0.65356 0.07207 0.0
C4717 C 0.05631 0.64828 0.10483 0.0
C4718 C 0.05792 0.63624 0.11958 0.0
C4719 C 0.07084 0.62648 0.12076 0.0
C4720 C 0.07216 0.61499 0.13454 0.0
C4721 C 0.0607 0.61326 0.14732 0.0
C4722 C 0.04792 0.62304 0.14637 0.0
C4723 C 0.04653 0.63453 0.1326 0.0
H4724 H 0.06175 0.60436 0.15798 0.0
H4725 H 0.04487 0.71442 0.02368 0.0
H4726 H 0.04327 0.23064 0.86477 0.0
H4727 H 0.06968 0.23446 0.85172 0.0
H4728 H 0.09459 0.27904 0.89812 0.0
H4729 H 0.06796 0.27557 0.91101 0.0
H4730 H 0.10485 0.2879 0.86671 0.0
H4731 H 0.10094 0.2336 0.89625 0.0
H4732 H 0.08751 0.20265 0.90301 0.0
H4733 H 0.08356 0.17884 0.84447 0.0
H4734 H 0.09676 0.20971 0.8373 0.0
H4735 H 0.18935 0.28639 0.84975 0.0
H4736 H 0.16358 0.28456 0.86403 0.0
H4737 H 0.13526 0.24173 0.8175 0.0
H4738 H 0.16099 0.24314 0.80344 0.0
H4739 H 0.12752 0.2325 0.85038 0.0
H4740 H 0.13127 0.28754 0.82114 0.0
H4741 H 0.14516 0.31863 0.81508 0.0
H4742 H 0.15018 0.34112 0.87419 0.0
H4743 H 0.13651 0.3101 0.88065 0.0
C4744 C 0.05432 0.24134 0.87219 0.0
C4745 C 0.05342 0.25273 0.88904 0.0
C4746 C 0.06953 0.24344 0.86475 0.0
C4747 C 0.08441 0.25681 0.87406 0.0
C4748 C 0.08341 0.26855 0.89062 0.0
C4749 C 0.06813 0.26654 0.89802 0.0
C4750 C 0.10093 0.25835 0.86659 0.0
C4751 C 0.1099 0.2758 0.86342 0.0
C4752 C 0.10759 0.24261 0.86195 0.0
C4753 C 0.09969 0.22401 0.86621 0.0
C4754 C 0.09709 0.22179 0.88479 0.0
C4755 C 0.08954 0.20425 0.8887 0.0
C4756 C 0.08464 0.18879 0.87417 0.0
C4757 C 0.08734 0.19083 0.85571 0.0
C4758 C 0.09487 0.20834 0.85172 0.0
C4759 C 0.17767 0.2765 0.84257 0.0
C4760 C 0.17737 0.26501 0.82529 0.0
C4761 C 0.16284 0.27558 0.8507 0.0
C4762 C 0.14727 0.26314 0.8418 0.0
C4763 C 0.147 0.25152 0.82469 0.0
C4764 C 0.16177 0.25248 0.81653 0.0
C4765 C 0.13132 0.26198 0.85031 0.0
C4766 C 0.12248 0.2446 0.85371 0.0
C4767 C 0.12486 0.2778 0.85528 0.0
C4768 C 0.13303 0.29646 0.85141 0.0
C4769 C 0.13546 0.29909 0.83287 0.0
C4770 C 0.14327 0.3167 0.82936 0.0
C4771 C 0.14859 0.33183 0.84425 0.0
C4772 C 0.14607 0.32938 0.86268 0.0
C4773 C 0.13828 0.31179 0.86627 0.0
H4774 H 0.15464 0.34546 0.8415 0.0
H4775 H 0.0788 0.17523 0.87723 0.0
H4776 H 0.5596 0.75855 0.94778 0.0
H4777 H 0.55137 0.72809 0.9573 0.0
H4778 H 0.50021 0.72025 0.92679 0.0
H4779 H 0.50841 0.75096 0.91703 0.0
H4780 H 0.50151 0.71169 0.9639 0.0
H4781 H 0.52316 0.69506 0.90819 0.0
H4782 H 0.54322 0.69777 0.88546 0.0
H4783 H 0.58255 0.69002 0.92781 0.0
H4784 H 0.56281 0.68754 0.9509 0.0
H4785 H 0.5188 0.61336 0.97905 0.0
H4786 H 0.51256 0.63544 0.9583 0.0
H4787 H 0.52395 0.67911 0.00712 0.0
H4788 H 0.52966 0.657 0.02797 0.0
H4789 H 0.53495 0.66445 0.95273 0.0
H4790 H 0.50311 0.7121 0.99962 0.0
H4791 H 0.482 0.70858 0.02114 0.0
H4792 H 0.46024 0.65203 0.99356 0.0
H4793 H 0.48104 0.65527 0.97168 0.0
C4794 C 0.5466 0.75036 0.943 0.0
C4795 C 0.53464 0.75714 0.93165 0.0
C4796 C 0.54195 0.73291 0.94838 0.0
C4797 C 0.52524 0.72188 0.94259 0.0
C4798 C 0.51319 0.72857 0.93132 0.0
C4799 C 0.5179 0.74604 0.92573 0.0
C4800 C 0.52056 0.70365 0.94902 0.0
C4801 C 0.50862 0.7012 0.96132 0.0
C4802 C 0.52954 0.6898 0.94516 0.0
C4803 C 0.54149 0.69118 0.93131 0.0
C4804 C 0.53611 0.69405 0.91271 0.0
C4805 C 0.54743 0.69553 0.89975 0.0
C4806 C 0.56415 0.69408 0.90519 0.0
C4807 C 0.56959 0.69112 0.92361 0.0
C4808 C 0.55833 0.68965 0.93663 0.0
C4809 C 0.51951 0.62755 0.98542 0.0
C4810 C 0.5248 0.63348 1.00515 0.0
C4811 C 0.51603 0.64016 0.97352 0.0
C4812 C 0.51768 0.65889 0.98115 0.0
C4813 C 0.52232 0.66466 1.00092 0.0
C4814 C 0.5258 0.65207 0.01282 0.0
C4815 C 0.51652 0.6729 0.96845 0.0
C4816 C 0.52744 0.67461 0.95499 0.0
C4817 C 0.50642 0.6859 0.97106 0.0
C4818 C 0.49372 0.68392 0.98405 0.0
C4819 C 0.49375 0.69895 0.99805 0.0
C4820 C 0.48186 0.69699 0.01034 0.0
C4821 C 0.46981 0.68008 0.00874 0.0
C4822 C 0.46961 0.6651 0.99482 0.0
C4823 C 0.48147 0.66699 0.98249 0.0
H4824 H 0.46062 0.67859 0.01828 0.0
H4825 H 0.57289 0.69523 0.89514 0.0
H4826 H 0.10433 0.74283 0.75345 0.0
H4827 H 0.13496 0.74498 0.75963 0.0
H4828 H 0.14444 0.79659 0.73717 0.0
H4829 H 0.11382 0.79425 0.73049 0.0
H4830 H 0.15871 0.77328 0.71958 0.0
H4831 H 0.15804 0.79456 0.78486 0.0
H4832 H 0.1489 0.7946 0.81614 0.0
H4833 H 0.16153 0.74214 0.82018 0.0
H4834 H 0.17057 0.74167 0.78883 0.0
H4835 H 0.24969 0.79779 0.7485 0.0
H4836 H 0.21905 0.79605 0.74357 0.0
H4837 H 0.20888 0.73888 0.75272 0.0
H4838 H 0.23953 0.74039 0.75734 0.0
H4839 H 0.19531 0.76449 0.77715 0.0
H4840 H 0.19645 0.74458 0.71111 0.0
H4841 H 0.20708 0.7468 0.68083 0.0
H4842 H 0.19467 0.79973 0.67957 0.0
H4843 H 0.18419 0.79795 0.71 0.0
C4844 C 0.11297 0.7549 0.75031 0.0
C4845 C 0.10667 0.76825 0.74127 0.0
C4846 C 0.1305 0.75614 0.75389 0.0
C4847 C 0.142 0.77091 0.74876 0.0
C4848 C 0.13578 0.78498 0.74108 0.0
C4849 C 0.11828 0.78365 0.73731 0.0
C4850 C 0.16014 0.77054 0.74925 0.0
C4851 C 0.16676 0.77167 0.73229 0.0
C4852 C 0.17053 0.76791 0.76567 0.0
C4853 C 0.16479 0.76797 0.78437 0.0
C4854 C 0.15869 0.78292 0.79231 0.0
C4855 C 0.15357 0.78305 0.81008 0.0
C4856 C 0.15455 0.76833 0.82009 0.0
C4857 C 0.16072 0.7535 0.81238 0.0
C4858 C 0.16587 0.7533 0.79462 0.0
C4859 C 0.24089 0.7847 0.74894 0.0
C4860 C 0.24694 0.76922 0.75327 0.0
C4861 C 0.22343 0.78375 0.74618 0.0
C4862 C 0.21182 0.76738 0.74792 0.0
C4863 C 0.21773 0.75162 0.75136 0.0
C4864 C 0.23519 0.75246 0.75381 0.0
C4865 C 0.19369 0.7673 0.74758 0.0
C4866 C 0.18714 0.76608 0.76452 0.0
C4867 C 0.18342 0.77012 0.73126 0.0
C4868 C 0.18968 0.77121 0.71293 0.0
C4869 C 0.19613 0.75677 0.70447 0.0
C4870 C 0.2021 0.75793 0.68725 0.0
C4871 C 0.20159 0.77342 0.6783 0.0
C4872 C 0.19507 0.78775 0.68653 0.0
C4873 C 0.1891 0.78667 0.70375 0.0
H4874 H 0.20621 0.77429 0.66497 0.0
H4875 H 0.15057 0.76844 0.83383 0.0
H4876 H 0.0356 0.36013 0.42232 0.0
H4877 H 0.03484 0.38952 0.4412 0.0
H4878 H 0.0356 0.36381 0.49172 0.0
H4879 H 0.03537 0.33416 0.47265 0.0
H4880 H 0.01295 0.38234 0.49134 0.0
H4881 H 0.07225 0.39897 0.48322 0.0
H4882 H 0.09578 0.40236 0.46476 0.0
H4883 H 0.07275 0.43706 0.43142 0.0
H4884 H 0.04904 0.43377 0.44962 0.0
H4885 H 0.03443 0.46703 0.55908 0.0
H4886 H 0.03369 0.43722 0.53965 0.0
H4887 H 0.02389 0.46063 0.48857 0.0
H4888 H 0.02446 0.49031 0.50784 0.0
H4889 H 0.05082 0.44369 0.48905 0.0
H4890 H 0.99292 0.42928 0.49976 0.0
H4891 H 0.9701 0.42641 0.51913 0.0
H4892 H 0.99075 0.38723 0.54805 0.0
H4893 H 0.01386 0.39007 0.52903 0.0
C4894 C 0.03588 0.36086 0.43751 0.0
C4895 C 0.03558 0.3449 0.44604 0.0
C4896 C 0.03552 0.3777 0.44834 0.0
C4897 C 0.03538 0.37904 0.46801 0.0
C4898 C 0.03564 0.36318 0.4766 0.0
C4899 C 0.0356 0.34626 0.46571 0.0
C4900 C 0.03406 0.3966 0.47948 0.0
C4901 C 0.02142 0.3957 0.49102 0.0
C4902 C 0.04473 0.41418 0.47874 0.0
C4903 C 0.0589 0.4161 0.46774 0.0
C4904 C 0.07219 0.40726 0.4719 0.0
C4905 C 0.08555 0.40917 0.46149 0.0
C4906 C 0.08575 0.4199 0.44691 0.0
C4907 C 0.07257 0.42872 0.44268 0.0
C4908 C 0.0592 0.42688 0.45308 0.0
C4909 C 0.03179 0.46568 0.54371 0.0
C4910 C 0.02955 0.48098 0.53497 0.0
C4911 C 0.03139 0.44868 0.53263 0.0
C4912 C 0.02879 0.44676 0.51267 0.0
C4913 C 0.02598 0.46185 0.50395 0.0
C4914 C 0.02622 0.47876 0.51498 0.0
C4915 C 0.02983 0.42933 0.50091 0.0
C4916 C 0.04238 0.4303 0.48931 0.0
C4917 C 0.01914 0.41183 0.50169 0.0
C4918 C 1.00522 0.41003 0.51309 0.0
C4919 C 0.99268 0.42017 0.51036 0.0
C4920 C 0.97968 0.41852 0.52125 0.0
C4921 C 0.979 0.40668 0.53485 0.0
C4922 C 0.9913 0.39642 0.53753 0.0
C4923 C 1.00435 0.39803 0.52669 0.0
H4924 H 0.96892 0.40542 0.54327 0.0
H4925 H 0.09612 0.42139 0.43889 0.0
H4926 H 0.50706 0.27914 0.23315 0.0
H4927 H 0.48542 0.28723 0.25058 0.0
H4928 H 0.49139 0.24577 0.28601 0.0
H4929 H 0.5129 0.23732 0.26837 0.0
H4930 H 0.4584 0.24354 0.27409 0.0
H4931 H 0.5067 0.29198 0.3041 0.0
H4932 H 0.53236 0.31735 0.30609 0.0
H4933 H 0.50204 0.34907 0.27715 0.0
H4934 H 0.47622 0.32377 0.27475 0.0
H4935 H 0.39975 0.27706 0.32713 0.0
H4936 H 0.42625 0.26913 0.3206 0.0
H4937 H 0.42903 0.30477 0.27779 0.0
H4938 H 0.40265 0.31254 0.284 0.0
H4939 H 0.46 0.30902 0.29984 0.0
H4940 H 0.41277 0.25797 0.26591 0.0
H4941 H 0.38713 0.23265 0.26437 0.0
H4942 H 0.41597 0.20591 0.30185 0.0
H4943 H 0.44173 0.23123 0.3038 0.0
C4944 C 0.50388 0.27182 0.24474 0.0
C4945 C 0.51172 0.25761 0.24939 0.0
C4946 C 0.49155 0.27652 0.25476 0.0
C4947 C 0.48694 0.26727 0.26977 0.0
C4948 C 0.4948 0.25312 0.27452 0.0
C4949 C 0.50711 0.24836 0.26445 0.0
C4950 C 0.47342 0.27197 0.2799 0.0
C4951 C 0.45891 0.2578 0.2801 0.0
C4952 C 0.47404 0.29058 0.28765 0.0
C4953 C 0.48953 0.30591 0.28915 0.0
C4954 C 0.50551 0.30431 0.29805 0.0
C4955 C 0.52009 0.31869 0.29927 0.0
C4956 C 0.51883 0.3348 0.29173 0.0
C4957 C 0.50299 0.33658 0.28299 0.0
C4958 C 0.48837 0.32224 0.28172 0.0
C4959 C 0.40605 0.28322 0.31636 0.0
C4960 C 0.39911 0.29547 0.30612 0.0
C4961 C 0.42119 0.27872 0.31269 0.0
C4962 C 0.42953 0.28631 0.29865 0.0
C4963 C 0.42285 0.29887 0.28878 0.0
C4964 C 0.40779 0.30336 0.29241 0.0
C4965 C 0.44483 0.28072 0.29342 0.0
C4966 C 0.45967 0.29472 0.29417 0.0
C4967 C 0.44454 0.26196 0.28663 0.0
C4968 C 0.42912 0.24659 0.28518 0.0
C4969 C 0.41361 0.24675 0.27391 0.0
C4970 C 0.39906 0.23239 0.27295 0.0
C4971 C 0.3999 0.21771 0.28305 0.0
C4972 C 0.41532 0.21731 0.29406 0.0
C4973 C 0.42991 0.23165 0.29509 0.0
H4974 H 0.38862 0.20662 0.28231 0.0
H4975 H 0.53013 0.34592 0.29268 0.0
H4976 H 0.61513 0.56431 0.37023 0.0
H4977 H 0.60523 0.55812 0.3999 0.0
H4978 H 0.61092 0.50182 0.38883 0.0
H4979 H 0.62121 0.50803 0.35919 0.0
H4980 H 0.57857 0.50583 0.4 0.0
H4981 H 0.63918 0.52953 0.4208 0.0
H4982 H 0.66684 0.55216 0.42374 0.0
H4983 H 0.64705 0.59488 0.45207 0.0
H4984 H 0.61917 0.57256 0.44905 0.0
H4985 H 0.56051 0.48473 0.48917 0.0
H4986 H 0.57476 0.48817 0.46157 0.0
H4987 H 0.58468 0.54803 0.47595 0.0
H4988 H 0.57122 0.5446 0.50404 0.0
H4989 H 0.61028 0.54069 0.46283 0.0
H4990 H 0.54997 0.51999 0.44055 0.0
H4991 H 0.52114 0.49941 0.4368 0.0
H4992 H 0.5385 0.45376 0.41033 0.0
H4993 H 0.56751 0.47402 0.41415 0.0
C4994 C 0.61429 0.5506 0.37407 0.0
C4995 C 0.61897 0.53666 0.36232 0.0
C4996 C 0.60868 0.54711 0.39109 0.0
C4997 C 0.60741 0.52954 0.39664 0.0
C4998 C 0.61183 0.51549 0.38483 0.0
C4999 C 0.61774 0.51907 0.36793 0.0
C5000 C 0.60132 0.52593 0.41471 0.0
C5001 C 0.58563 0.51319 0.41379 0.0
C5002 C 0.61026 0.53598 0.43263 0.0
C5003 C 0.62703 0.5494 0.43454 0.0
C5004 C 0.64067 0.54379 0.42751 0.0
C5005 C 0.65641 0.55656 0.42922 0.0
C5006 C 0.65869 0.57496 0.43804 0.0
C5007 C 0.64525 0.58063 0.44522 0.0
C5008 C 0.62949 0.56791 0.44353 0.0
C5009 C 0.56596 0.49861 0.48656 0.0
C5010 C 0.56464 0.51438 0.49867 0.0
C5011 C 0.57398 0.50059 0.47067 0.0
C5012 C 0.58043 0.51837 0.46625 0.0
C5013 C 0.57976 0.53414 0.47888 0.0
C5014 C 0.57204 0.53217 0.49496 0.0
C5015 C 0.58737 0.52061 0.44824 0.0
C5016 C 0.60322 0.53316 0.44912 0.0
C5017 C 0.57838 0.51067 0.43021 0.0
C5018 C 0.56095 0.49847 0.42783 0.0
C5019 C 0.54767 0.50553 0.43405 0.0
C5020 C 0.53129 0.49393 0.43189 0.0
C5021 C 0.528 0.47527 0.42338 0.0
C5022 C 0.54107 0.4682 0.41695 0.0
C5023 C 0.55748 0.47974 0.4191 0.0
H5024 H 0.51531 0.46631 0.42173 0.0
H5025 H 0.67088 0.58483 0.43936 0.0
H5026 H 0.23584 0.82302 0.07532 0.0
H5027 H 0.24951 0.80605 0.0971 0.0
H5028 H 0.26382 0.77468 0.04997 0.0
H5029 H 0.2503 0.7917 0.02802 0.0
H5030 H 0.24832 0.77097 0.10268 0.0
H5031 H 0.30607 0.77434 0.06414 0.0
H5032 H 0.32005 0.79221 0.0416 0.0
H5033 H 0.30118 0.83922 0.06161 0.0
H5034 H 0.28729 0.82172 0.08441 0.0
H5035 H 0.29882 0.73656 0.16363 0.0
H5036 H 0.29101 0.73923 0.13045 0.0
H5037 H 0.31389 0.79831 0.14335 0.0
H5038 H 0.3225 0.79566 0.17658 0.0
H5039 H 0.311 0.78352 0.10441 0.0
H5040 H 0.27653 0.78638 0.15418 0.0
H5041 H 0.26453 0.77384 0.18085 0.0
H5042 H 0.23794 0.72305 0.14336 0.0
H5043 H 0.25002 0.73524 0.11651 0.0
C5044 C 0.24148 0.81217 0.06949 0.0
C5045 C 0.24229 0.80898 0.05 0.0
C5046 C 0.24927 0.80246 0.08196 0.0
C5047 C 0.25798 0.78944 0.07513 0.0
C5048 C 0.25739 0.78492 0.05549 0.0
C5049 C 0.24959 0.79462 0.04299 0.0
C5050 C 0.26913 0.78228 0.08881 0.0
C5051 C 0.26196 0.77336 0.10279 0.0
C5052 C 0.287 0.78589 0.08926 0.0
C5053 C 0.29545 0.79661 0.07576 0.0
C5054 C 0.30494 0.78849 0.06373 0.0
C5055 C 0.31284 0.79856 0.05092 0.0
C5056 C 0.31142 0.8168 0.05011 0.0
C5057 C 0.30218 0.82506 0.06218 0.0
C5058 C 0.29429 0.81506 0.07503 0.0
C5059 C 0.30315 0.74995 0.15931 0.0
C5060 C 0.31074 0.76607 0.17288 0.0
C5061 C 0.29861 0.75144 0.14026 0.0
C5062 C 0.30138 0.76904 0.13468 0.0
C5063 C 0.31146 0.78461 0.14748 0.0
C5064 C 0.31619 0.78312 0.16653 0.0
C5065 C 0.29012 0.77205 0.11805 0.0
C5066 C 0.29727 0.7804 0.10372 0.0
C5067 C 0.27228 0.76863 0.11764 0.0
C5068 C 0.26429 0.76162 0.13344 0.0
C5069 C 0.26813 0.77254 0.15165 0.0
C5070 C 0.26135 0.76549 0.16679 0.0
C5071 C 0.25056 0.74763 0.16381 0.0
C5072 C 0.24636 0.73686 0.14564 0.0
C5073 C 0.25316 0.74383 0.13045 0.0
H5074 H 0.2455 0.74213 0.17559 0.0
H5075 H 0.31754 0.82456 0.04017 0.0
H5076 H 0.96511 0.51249 0.83572 0.0
H5077 H 0.97942 0.51111 0.86758 0.0
H5078 H 0.9581 0.55497 0.89137 0.0
H5079 H 0.94424 0.55681 0.8593 0.0
H5080 H 0.98777 0.56071 0.91126 0.0
H5081 H 0.94345 0.50486 0.89411 0.0
H5082 H 0.92652 0.47543 0.87413 0.0
H5083 H 0.97079 0.45295 0.87839 0.0
H5084 H 0.98805 0.48235 0.89817 0.0
H5085 H 0.01069 0.54408 0.00812 0.0
H5086 H 0.99453 0.54675 0.9773 0.0
H5087 H 0.01758 0.50707 0.94852 0.0
H5088 H 0.03353 0.50439 0.979 0.0
H5089 H 0.98551 0.4995 0.9321 0.0
H5090 H 0.02971 0.55662 0.9489 0.0
H5091 H 0.04578 0.58615 0.96933 0.0
H5092 H 1.00009 0.60605 0.96664 0.0
H5093 H 0.9837 0.57652 0.94638 0.0
C5094 C 0.96347 0.52195 0.84766 0.0
C5095 C 0.95333 0.53476 0.84455 0.0
C5096 C 0.97161 0.52102 0.86616 0.0
C5097 C 0.96977 0.5326 0.88255 0.0
C5098 C 0.95992 0.5457 0.87938 0.0
C5099 C 0.95188 0.54675 0.86083 0.0
C5100 C 0.978 0.53104 0.90273 0.0
C5101 C 0.98696 0.54725 0.91576 0.0
C5102 C 0.97744 0.51365 0.90921 0.0
C5103 C 0.96708 0.49588 0.89748 0.0
C5104 C 0.9496 0.49368 0.89069 0.0
C5105 C 0.93994 0.477 0.87941 0.0
C5106 C 0.94758 0.46235 0.87495 0.0
C5107 C 0.96489 0.46432 0.88183 0.0
C5108 C 0.97461 0.48098 0.89309 0.0
C5109 C 0.01227 0.53586 0.99525 0.0
C5110 C 0.02363 0.52405 0.99635 0.0
C5111 C 1.00304 0.53748 0.97743 0.0
C5112 C 1.00476 0.5273 0.96002 0.0
C5113 C 0.01578 0.51519 0.96133 0.0
C5114 C 0.02503 0.51369 0.979 0.0
C5115 C 0.99539 0.52912 0.9405 0.0
C5116 C 0.98623 0.51294 0.92759 0.0
C5117 C 0.99561 0.54653 0.93423 0.0
C5118 C 1.00545 0.5643 0.9463 0.0
C5119 C 0.02307 0.56725 0.95278 0.0
C5120 C 0.03224 0.58399 0.96431 0.0
C5121 C 0.02395 0.59795 0.96932 0.0
C5122 C 1.00649 0.59521 0.96277 0.0
C5123 C 0.99725 0.57848 0.95125 0.0
H5124 H 0.03108 0.6109 0.97825 0.0
H5125 H 0.94009 0.44945 0.86621 0.0
H5126 H 0.25937 0.20075 0.57053 0.0
H5127 H 0.26104 0.2163 0.60301 0.0
H5128 H 0.30114 0.19039 0.62271 0.0
H5129 H 0.29881 0.17404 0.5904 0.0
H5130 H 0.28121 0.18747 0.64611 0.0
H5131 H 0.30683 0.23985 0.61913 0.0
H5132 H 0.30929 0.26184 0.59622 0.0
H5133 H 0.26416 0.27754 0.60952 0.0
H5134 H 0.26131 0.25546 0.63236 0.0
H5135 H 0.30945 0.24555 0.73709 0.0
H5136 H 0.30796 0.23313 0.70358 0.0
H5137 H 0.25744 0.24192 0.69039 0.0
H5138 H 0.25864 0.25405 0.72412 0.0
H5139 H 0.28208 0.25419 0.66416 0.0
H5140 H 0.25792 0.20091 0.69208 0.0
H5141 H 0.25792 0.18002 0.71603 0.0
H5142 H 0.30392 0.16744 0.70156 0.0
H5143 H 0.30433 0.1885 0.67771 0.0
C5144 C 0.26875 0.19861 0.58172 0.0
C5145 C 0.27901 0.18617 0.57779 0.0
C5146 C 0.26974 0.20759 0.60038 0.0
C5147 C 0.28136 0.2048 0.61554 0.0
C5148 C 0.29199 0.19281 0.61145 0.0
C5149 C 0.29074 0.18353 0.59288 0.0
C5150 C 0.28187 0.21349 0.63573 0.0
C5151 C 0.28166 0.20214 0.64996 0.0
C5152 C 0.2821 0.23258 0.64104 0.0
C5153 C 0.28376 0.24586 0.62731 0.0
C5154 C 0.29736 0.24789 0.61707 0.0
C5155 C 0.29883 0.26039 0.60411 0.0
C5156 C 0.28686 0.27104 0.60138 0.0
C5157 C 0.27341 0.26926 0.61163 0.0
C5158 C 0.27187 0.25676 0.6246 0.0
C5159 C 0.29802 0.24498 0.7271 0.0
C5160 C 0.28414 0.25081 0.73338 0.0
C5161 C 0.2972 0.23782 0.70792 0.0
C5162 C 0.28259 0.23657 0.69446 0.0
C5163 C 0.26886 0.24279 0.70053 0.0
C5164 C 0.26954 0.24965 0.71983 0.0
C5165 C 0.28156 0.22817 0.67422 0.0
C5166 C 0.28165 0.23955 0.6601 0.0
C5167 C 0.28156 0.20922 0.66903 0.0
C5168 C 0.28125 0.19643 0.68325 0.0
C5169 C 0.26812 0.19382 0.69412 0.0
C5170 C 0.26802 0.18192 0.70766 0.0
C5171 C 0.28093 0.17244 0.71036 0.0
C5172 C 0.29394 0.17481 0.69948 0.0
C5173 C 0.2941 0.18671 0.68594 0.0
H5174 H 0.28084 0.16323 0.72084 0.0
H5175 H 0.28803 0.28072 0.59134 0.0
H5176 H 0.60352 0.55574 0.26269 0.0
H5177 H 0.58857 0.55397 0.2303 0.0
H5178 H 0.59665 0.49906 0.21506 0.0
H5179 H 0.61232 0.50124 0.2471 0.0
H5180 H 0.60498 0.51734 0.18947 0.0
H5181 H 0.55561 0.50874 0.21915 0.0
H5182 H 0.53746 0.51566 0.24246 0.0
H5183 H 0.53739 0.56819 0.22398 0.0
H5184 H 0.55574 0.5617 0.20072 0.0
H5185 H 0.55241 0.49727 0.09801 0.0
H5186 H 0.5617 0.49686 0.13177 0.0
H5187 H 0.56661 0.5561 0.14437 0.0
H5188 H 0.55746 0.55672 0.11058 0.0
H5189 H 0.55058 0.53502 0.17084 0.0
H5190 H 0.60114 0.54262 0.14165 0.0
H5191 H 0.61817 0.53395 0.11775 0.0
H5192 H 0.61425 0.48043 0.13526 0.0
H5193 H 0.59698 0.4887 0.1591 0.0
C5194 C 0.60178 0.54313 0.25253 0.0
C5195 C 0.60912 0.52864 0.25746 0.0
C5196 C 0.59317 0.54209 0.23397 0.0
C5197 C 0.59133 0.52632 0.22007 0.0
C5198 C 0.59795 0.51146 0.22535 0.0
C5199 C 0.60684 0.51266 0.24375 0.0
C5200 C 0.58378 0.52582 0.19975 0.0
C5201 C 0.59291 0.52089 0.1855 0.0
C5202 C 0.56821 0.53083 0.19433 0.0
C5203 C 0.55719 0.53481 0.20832 0.0
C5204 C 0.55184 0.52184 0.22016 0.0
C5205 C 0.54149 0.52567 0.23334 0.0
C5206 C 0.53631 0.54238 0.23473 0.0
C5207 C 0.54143 0.55526 0.2229 0.0
C5208 C 0.55179 0.55151 0.2097 0.0
C5209 C 0.55537 0.51022 0.10793 0.0
C5210 C 0.5543 0.52707 0.10151 0.0
C5211 C 0.56069 0.50995 0.12725 0.0
C5212 C 0.56493 0.52647 0.14058 0.0
C5213 C 0.56338 0.54319 0.13433 0.0
C5214 C 0.55824 0.54353 0.11498 0.0
C5215 C 0.57176 0.52642 0.16087 0.0
C5216 C 0.56256 0.53134 0.17501 0.0
C5217 C 0.58712 0.52111 0.16622 0.0
C5218 C 0.59763 0.51621 0.15202 0.0
C5219 C 0.6038 0.52895 0.1403 0.0
C5220 C 0.61351 0.52412 0.12678 0.0
C5221 C 0.61725 0.50663 0.12495 0.0
C5222 C 0.61132 0.49396 0.13668 0.0
C5223 C 0.60159 0.49872 0.1502 0.0
H5224 H 0.62477 0.50292 0.11448 0.0
H5225 H 0.5283 0.54531 0.24495 0.0
H5226 H 0.22439 0.84454 0.94088 0.0
H5227 H 0.22645 0.83253 0.90806 0.0
H5228 H 0.22616 0.7785 0.92362 0.0
H5229 H 0.22443 0.7905 0.95628 0.0
H5230 H 0.25805 0.80114 0.91646 0.0
H5231 H 0.19814 0.77886 0.88978 0.0
H5232 H 0.16864 0.78151 0.88036 0.0
H5233 H 0.1857 0.8208 0.84422 0.0
H5234 H 0.21537 0.81869 0.8537 0.0
H5235 H 0.28431 0.75368 0.84034 0.0
H5236 H 0.26853 0.76242 0.86511 0.0
H5237 H 0.25672 0.80648 0.8361 0.0
H5238 H 0.27153 0.79697 0.81069 0.0
H5239 H 0.22986 0.79038 0.84894 0.0
H5240 H 0.2887 0.81534 0.8759 0.0
H5241 H 0.31891 0.81502 0.88505 0.0
H5242 H 0.30481 0.7744 0.92093 0.0
H5243 H 0.27448 0.77429 0.91179 0.0
C5244 C 0.22379 0.82986 0.93695 0.0
C5245 C 0.22441 0.8184 0.95094 0.0
C5246 C 0.22496 0.82302 0.91824 0.0
C5247 C 0.22659 0.8047 0.91356 0.0
C5248 C 0.22486 0.79266 0.927 0.0
C5249 C 0.2239 0.79951 0.94563 0.0
C5250 C 0.23482 0.79976 0.89731 0.0
C5251 C 0.25179 0.7985 0.90168 0.0
C5252 C 0.22687 0.7973 0.87811 0.0
C5253 C 0.20906 0.79883 0.8727 0.0
C5254 C 0.19567 0.78829 0.88006 0.0
C5255 C 0.17889 0.78965 0.87465 0.0
C5256 C 0.17532 0.80142 0.86181 0.0
C5257 C 0.1885 0.81177 0.85425 0.0
C5258 C 0.2053 0.8105 0.85964 0.0
C5259 C 0.27842 0.76528 0.83933 0.0
C5260 C 0.27941 0.7749 0.82384 0.0
C5261 C 0.26942 0.77029 0.85346 0.0
C5262 C 0.2617 0.78532 0.85262 0.0
C5263 C 0.26262 0.79487 0.83707 0.0
C5264 C 0.2713 0.78961 0.82272 0.0
C5265 C 0.25294 0.79124 0.86816 0.0
C5266 C 0.23606 0.79296 0.86372 0.0
C5267 C 0.26105 0.79457 0.8874 0.0
C5268 C 0.2793 0.7947 0.89303 0.0
C5269 C 0.29203 0.80625 0.88565 0.0
C5270 C 0.30918 0.80616 0.89084 0.0
C5271 C 0.31377 0.79467 0.90353 0.0
C5272 C 0.30123 0.78328 0.91109 0.0
C5273 C 0.28406 0.78331 0.90592 0.0
H5274 H 0.32705 0.79461 0.90753 0.0
H5275 H 0.16233 0.80242 0.85762 0.0
H5276 H 0.95869 0.53408 0.74717 0.0
H5277 H 0.97265 0.53208 0.71922 0.0
H5278 H 0.93272 0.55063 0.6872 0.0
H5279 H 0.91853 0.55231 0.71511 0.0
H5280 H 0.94011 0.5262 0.66319 0.0
H5281 H 0.9772 0.57866 0.7053 0.0
H5282 H 0.99563 0.5961 0.73517 0.0
H5283 H 0.02832 0.5583 0.73181 0.0
H5284 H 0.00996 0.54049 0.70203 0.0
H5285 H 0.98386 0.53902 0.58348 0.0
H5286 H 0.96962 0.54239 0.61098 0.0
H5287 H 0.0111 0.52899 0.64609 0.0
H5288 H 0.02595 0.52708 0.61878 0.0
H5289 H 1.00238 0.55135 0.66835 0.0
H5290 H 0.96283 0.49693 0.62765 0.0
H5291 H 0.94523 0.48105 0.59668 0.0
H5292 H 0.91829 0.52443 0.5964 0.0
H5293 H 0.93544 0.5403 0.6276 0.0
C5294 C 0.95283 0.53792 0.7343 0.0
C5295 C 0.93731 0.54357 0.73399 0.0
C5296 C 0.961 0.53684 0.71804 0.0
C5297 C 0.95421 0.54145 0.70051 0.0
C5298 C 0.93862 0.54694 0.70015 0.0
C5299 C 0.93044 0.54803 0.71641 0.0
C5300 C 0.96316 0.54043 0.68278 0.0
C5301 C 0.95372 0.53192 0.66452 0.0
C5302 C 0.98107 0.54751 0.68365 0.0
C5303 C 0.99211 0.55813 0.70155 0.0
C5304 C 0.98825 0.57399 0.71101 0.0
C5305 C 0.99869 0.58395 0.72791 0.0
C5306 C 0.0131 0.57828 0.73541 0.0
C5307 C 0.01713 0.56266 0.726 0.0
C5308 C 1.00672 0.55263 0.7091 0.0
C5309 C 0.98997 0.53662 0.59699 0.0
C5310 C 1.0062 0.53253 0.59842 0.0
C5311 C 0.98158 0.53834 0.613 0.0
C5312 C 0.98861 0.53537 0.63125 0.0
C5313 C 1.00491 0.53135 0.63261 0.0
C5314 C 0.0135 0.53012 0.61671 0.0
C5315 C 0.97942 0.53679 0.64881 0.0
C5316 C 0.9888 0.54545 0.66705 0.0
C5317 C 0.96147 0.52989 0.64792 0.0
C5318 C 0.95041 0.51978 0.62988 0.0
C5319 C 0.95305 0.50297 0.62104 0.0
C5320 C 0.94315 0.49398 0.60347 0.0
C5321 C 0.93067 0.50175 0.59459 0.0
C5322 C 0.92796 0.51843 0.60333 0.0
C5323 C 0.93762 0.52732 0.62104 0.0
H5324 H 0.92304 0.49479 0.581 0.0
H5325 H 0.02117 0.58602 0.74849 0.0
H5326 H 0.25707 0.21293 0.48279 0.0
H5327 H 0.26051 0.22839 0.45515 0.0
H5328 H 0.27875 0.18297 0.42889 0.0
H5329 H 0.27635 0.16808 0.45721 0.0
H5330 H 0.29582 0.21143 0.41991 0.0
H5331 H 0.23572 0.19106 0.41588 0.0
H5332 H 0.20785 0.18716 0.42645 0.0
H5333 H 0.21378 0.24646 0.43485 0.0
H5334 H 0.24181 0.25074 0.42455 0.0
H5335 H 0.28151 0.23652 0.32642 0.0
H5336 H 0.27742 0.22011 0.35358 0.0
H5337 H 0.27686 0.27155 0.38817 0.0
H5338 H 0.28136 0.28811 0.36117 0.0
H5339 H 0.25029 0.23923 0.39157 0.0
H5340 H 0.31156 0.25756 0.39424 0.0
H5341 H 0.3378 0.25878 0.38057 0.0
H5342 H 0.32705 0.19898 0.37098 0.0
H5343 H 0.3006 0.1974 0.38435 0.0
C5344 C 0.26184 0.20622 0.47114 0.0
C5345 C 0.26634 0.18916 0.47226 0.0
C5346 C 0.26366 0.21503 0.45514 0.0
C5347 C 0.26947 0.20676 0.43939 0.0
C5348 C 0.27418 0.18979 0.44063 0.0
C5349 C 0.27276 0.18119 0.45688 0.0
C5350 C 0.27082 0.21589 0.42185 0.0
C5351 C 0.28567 0.21721 0.41365 0.0
C5352 C 0.25778 0.22372 0.4134 0.0
C5353 C 0.24094 0.22123 0.41962 0.0
C5354 C 0.23114 0.20328 0.42011 0.0
C5355 C 0.2153 0.201 0.42603 0.0
C5356 C 0.20907 0.21655 0.43137 0.0
C5357 C 0.21864 0.23443 0.43074 0.0
C5358 C 0.23449 0.23679 0.42485 0.0
C5359 C 0.28039 0.24433 0.33977 0.0
C5360 C 0.28179 0.26367 0.34161 0.0
C5361 C 0.27811 0.23492 0.35533 0.0
C5362 C 0.27692 0.24456 0.37305 0.0
C5363 C 0.27775 0.26376 0.37471 0.0
C5364 C 0.28034 0.27323 0.35925 0.0
C5365 C 0.27521 0.23475 0.38993 0.0
C5366 C 0.26032 0.23334 0.39793 0.0
C5367 C 0.28798 0.2264 0.39786 0.0
C5368 C 0.30402 0.22736 0.39012 0.0
C5369 C 0.31473 0.24467 0.38909 0.0
C5370 C 0.32965 0.24542 0.38142 0.0
C5371 C 0.33407 0.22896 0.37487 0.0
C5372 C 0.3236 0.21171 0.37604 0.0
C5373 C 0.30865 0.21088 0.38368 0.0
H5374 H 0.34562 0.22958 0.36892 0.0
H5375 H 0.1968 0.21476 0.43595 0.0
H5376 H 0.36409 0.63865 0.53602 0.0
H5377 H 0.37789 0.62692 0.51042 0.0
H5378 H 0.39245 0.58705 0.54387 0.0
H5379 H 0.37856 0.59837 0.56917 0.0
H5380 H 0.41016 0.62564 0.50898 0.0
H5381 H 0.38922 0.54721 0.51862 0.0
H5382 H 0.3634 0.52576 0.52425 0.0
H5383 H 0.33239 0.56023 0.50166 0.0
H5384 H 0.35798 0.58176 0.4956 0.0
H5385 H 0.47172 0.57818 0.51445 0.0
H5386 H 0.45025 0.59591 0.51144 0.0
H5387 H 0.41868 0.55287 0.46684 0.0
H5388 H 0.43954 0.53412 0.47111 0.0
H5389 H 0.40102 0.5573 0.49065 0.0
H5390 H 0.43207 0.60162 0.46159 0.0
H5391 H 0.4563 0.62335 0.45317 0.0
H5392 H 0.4646 0.65748 0.50801 0.0
H5393 H 0.44073 0.63579 0.51701 0.0
C5394 C 0.3702 0.62733 0.53785 0.0
C5395 C 0.37017 0.61934 0.55457 0.0
C5396 C 0.37806 0.62068 0.52322 0.0
C5397 C 0.38588 0.60588 0.52508 0.0
C5398 C 0.3861 0.59817 0.54191 0.0
C5399 C 0.37825 0.60474 0.55644 0.0
C5400 C 0.39448 0.59862 0.51 0.0
C5401 C 0.40816 0.61073 0.50468 0.0
C5402 C 0.39106 0.57927 0.50333 0.0
C5403 C 0.37556 0.56612 0.50664 0.0
C5404 C 0.37689 0.55014 0.51467 0.0
C5405 C 0.36229 0.53798 0.51799 0.0
C5406 C 0.34627 0.54163 0.51332 0.0
C5407 C 0.34481 0.55743 0.50529 0.0
C5408 C 0.35936 0.56963 0.50193 0.0
C5409 C 0.46031 0.57256 0.50379 0.0
C5410 C 0.45704 0.55444 0.49353 0.0
C5411 C 0.44816 0.58299 0.50174 0.0
C5412 C 0.43272 0.57584 0.48892 0.0
C5413 C 0.4304 0.55868 0.47697 0.0
C5414 C 0.44241 0.54799 0.47934 0.0
C5415 C 0.41802 0.58418 0.49136 0.0
C5416 C 0.40295 0.57228 0.4942 0.0
C5417 C 0.41996 0.60375 0.49517 0.0
C5418 C 0.43446 0.617 0.48995 0.0
C5419 C 0.4391 0.61369 0.47192 0.0
C5420 C 0.45279 0.62602 0.46704 0.0
C5421 C 0.46194 0.64182 0.48002 0.0
C5422 C 0.45742 0.64531 0.49792 0.0
C5423 C 0.44378 0.63298 0.50291 0.0
H5424 H 0.47256 0.65132 0.47623 0.0
H5425 H 0.33498 0.53222 0.51592 0.0
H5426 H 0.86302 0.90799 0.54221 0.0
H5427 H 0.89155 0.92565 0.54042 0.0
H5428 H 0.88747 0.96913 0.58397 0.0
H5429 H 0.85848 0.95176 0.58526 0.0
H5430 H 0.90244 0.98486 0.55918 0.0
H5431 H 0.91215 0.93548 0.59206 0.0
H5432 H 0.90918 0.90307 0.59772 0.0
H5433 H 0.92895 0.88961 0.54682 0.0
H5434 H 0.93183 0.92189 0.54071 0.0
H5435 H 0.99195 0.02744 0.58153 0.0
H5436 H 0.96325 0.0097 0.58325 0.0
H5437 H 0.96273 0.97322 0.53147 0.0
H5438 H 0.99132 0.9913 0.5294 0.0
H5439 H 0.9506 0.95411 0.56085 0.0
H5440 H 0.9409 1.00484 0.52903 0.0
H5441 H 0.94478 0.03789 0.5254 0.0
H5442 H 0.9259 0.04936 0.57736 0.0
H5443 H 0.92215 0.01641 0.58144 0.0
C5444 C 0.86815 0.92131 0.55145 0.0
C5445 C 0.85839 0.92835 0.56398 0.0
C5446 C 0.88461 0.93139 0.5505 0.0
C5447 C 0.89203 0.94864 0.56236 0.0
C5448 C 0.88219 0.95586 0.57469 0.0
C5449 C 0.86557 0.94588 0.57545 0.0
C5450 C 0.90989 0.95916 0.56171 0.0
C5451 C 0.91296 0.97812 0.55984 0.0
C5452 C 0.92379 0.9505 0.56223 0.0
C5453 C 0.92204 0.93106 0.56583 0.0
C5454 C 0.91574 0.92557 0.58199 0.0
C5455 C 0.91409 0.90723 0.58529 0.0
C5456 C 0.91883 0.89428 0.57261 0.0
C5457 C 0.92526 0.89965 0.55662 0.0
C5458 C 0.92692 0.91797 0.55323 0.0
C5459 C 0.98576 0.01562 0.57052 0.0
C5460 C 0.99403 0.01071 0.55541 0.0
C5461 C 0.96931 1.00549 0.5715 0.0
C5462 C 0.96073 0.99012 0.55746 0.0
C5463 C 0.96907 0.98497 0.54252 0.0
C5464 C 0.98546 0.99528 0.54139 0.0
C5465 C 0.943 0.97965 0.5583 0.0
C5466 C 0.94001 0.96075 0.56021 0.0
C5467 C 0.92925 0.98842 0.55812 0.0
C5468 C 0.93141 1.0082 0.55564 0.0
C5469 C 0.93771 0.01444 0.53977 0.0
C5470 C 0.93986 0.03315 0.53761 0.0
C5471 C 0.93563 0.04572 0.55117 0.0
C5472 C 0.9292 0.0396 0.56688 0.0
C5473 C 0.92704 0.02091 0.56912 0.0
H5474 H 0.9373 0.0602 0.54947 0.0
H5475 H 0.91755 0.88009 0.5752 0.0
H5476 H 0.88025 0.04306 0.24681 0.0
H5477 H 0.86875 0.07011 0.25394 0.0
H5478 H 0.91125 0.09384 0.29977 0.0
H5479 H 0.92268 0.0663 0.29299 0.0
H5480 H 0.8827 0.09942 0.31047 0.0
H5481 H 0.90921 0.11064 0.25718 0.0
H5482 H 0.91666 0.10378 0.22541 0.0
H5483 H 0.86421 0.09532 0.19957 0.0
H5484 H 0.85639 0.10186 0.23121 0.0
H5485 H 0.85227 0.18498 0.31065 0.0
H5486 H 0.87113 0.16345 0.30908 0.0
H5487 H 0.83182 0.12342 0.26868 0.0
H5488 H 0.81308 0.14455 0.27008 0.0
H5489 H 0.86434 0.13102 0.25739 0.0
H5490 H 0.83844 0.11632 0.31254 0.0
H5491 H 0.83215 0.12435 0.34469 0.0
H5492 H 0.8858 0.14175 0.36731 0.0
H5493 H 0.8924 0.13405 0.33521 0.0
C5494 C 0.88721 0.05401 0.25842 0.0
C5495 C 0.90247 0.05257 0.26923 0.0
C5496 C 0.88064 0.06956 0.26243 0.0
C5497 C 0.88931 0.08427 0.27713 0.0
C5498 C 0.90438 0.08274 0.28827 0.0
C5499 C 0.91092 0.06702 0.28436 0.0
C5500 C 0.88237 0.10105 0.28071 0.0
C5501 C 0.87902 0.10657 0.29894 0.0
C5502 C 0.87758 0.11051 0.26572 0.0
C5503 C 0.88221 0.10664 0.24661 0.0
C5504 C 0.89924 0.1072 0.24474 0.0
C5505 C 0.90353 0.10338 0.22674 0.0
C5506 C 0.89091 0.09909 0.21048 0.0
C5507 C 0.87397 0.09865 0.21218 0.0
C5508 C 0.86961 0.10243 0.23014 0.0
C5509 C 0.84764 0.17157 0.30149 0.0
C5510 C 0.8311 0.16655 0.29052 0.0
C5511 C 0.85841 0.15927 0.30066 0.0
C5512 C 0.85286 0.14186 0.28872 0.0
C5513 C 0.83637 0.1368 0.27796 0.0
C5514 C 0.82559 0.1489 0.27894 0.0
C5515 C 0.86411 0.1288 0.28689 0.0
C5516 C 0.86833 0.12405 0.26896 0.0
C5517 C 0.8699 0.12031 0.3022 0.0
C5518 C 0.86591 0.12483 0.32146 0.0
C5519 C 0.84889 0.12202 0.32434 0.0
C5520 C 0.84527 0.12647 0.34256 0.0
C5521 C 0.85857 0.13361 0.35802 0.0
C5522 C 0.87551 0.13625 0.35531 0.0
C5523 C 0.8792 0.13184 0.33711 0.0
H5524 H 0.85574 0.13705 0.37212 0.0
H5525 H 0.89426 0.09614 0.19657 0.0
H5526 H 0.7787 0.16663 0.07282 0.0
H5527 H 0.7484 0.15241 0.07113 0.0
H5528 H 0.75884 0.09791 0.06695 0.0
H5529 H 0.78917 0.11197 0.06901 0.0
H5530 H 0.72425 0.12726 0.04546 0.0
H5531 H 0.73391 0.07198 0.09249 0.0
H5532 H 0.7554 0.06717 0.1179 0.0
H5533 H 0.77362 0.12639 0.13527 0.0
H5534 H 0.7521 0.13154 0.11013 0.0
H5535 H 0.64434 0.0636 0.04502 0.0
H5536 H 0.67433 0.07618 0.04306 0.0
H5537 H 0.68268 0.10672 0.10007 0.0
H5538 H 0.6528 0.09457 0.10204 0.0
H5539 H 0.70779 0.08908 0.09468 0.0
H5540 H 0.67807 0.12884 0.06322 0.0
H5541 H 0.65643 0.13582 0.03952 0.0
H5542 H 0.67804 0.11181 0.99421 0.0
H5543 H 0.69966 0.10443 0.01767 0.0
C5544 C 0.77455 0.15161 0.07151 0.0
C5545 C 0.78637 0.14044 0.07135 0.0
C5546 C 0.75723 0.14351 0.07043 0.0
C5547 C 0.75145 0.12415 0.06918 0.0
C5548 C 0.76311 0.11292 0.06822 0.0
C5549 C 0.78043 0.12099 0.0694 0.0
C5550 C 0.73337 0.11581 0.06981 0.0
C5551 C 0.72064 0.11884 0.05616 0.0
C5552 C 0.72869 0.10504 0.08393 0.0
C5553 C 0.74151 0.10212 0.0993 0.0
C5554 C 0.74246 0.08396 0.10178 0.0
C5555 C 0.75466 0.08118 0.11612 0.0
C5556 C 0.76591 0.09647 0.12815 0.0
C5557 C 0.76494 0.11457 0.1259 0.0
C5558 C 0.75276 0.11742 0.1116 0.0
C5559 C 0.65255 0.07307 0.05709 0.0
C5560 C 0.6462 0.07804 0.07371 0.0
C5561 C 0.66966 0.08019 0.05596 0.0
C5562 C 0.68065 0.09242 0.0714 0.0
C5563 C 0.67441 0.09721 0.08805 0.0
C5564 C 0.65734 0.09017 0.08918 0.0
C5565 C 0.69867 0.10044 0.07028 0.0
C5566 C 0.7114 0.09734 0.08385 0.0
C5567 C 0.7033 0.11141 0.05632 0.0
C5568 C 0.69036 0.11589 0.0422 0.0
C5569 C 0.67811 0.1249 0.04821 0.0
C5570 C 0.66587 0.12896 0.03482 0.0
C5571 C 0.66583 0.12421 0.01537 0.0
C5572 C 0.67806 0.11545 0.00928 0.0
C5573 C 0.69032 0.11133 0.02261 0.0
H5574 H 0.65634 0.12737 1.00503 0.0
H5575 H 0.77535 0.09428 0.13923 0.0
H5576 H 0.17897 0.43906 0.30666 0.0
H5577 H 0.19057 0.41146 0.30596 0.0
H5578 H 0.23442 0.44068 0.28546 0.0
H5579 H 0.22193 0.4677 0.28459 0.0
H5580 H 0.23249 0.40932 0.27095 0.0
H5581 H 0.22914 0.42598 0.33721 0.0
H5582 H 0.21523 0.43261 0.36478 0.0
H5583 H 0.18088 0.37827 0.34996 0.0
H5584 H 0.19455 0.37136 0.32228 0.0
H5585 H 0.28481 0.34584 0.29447 0.0
H5586 H 0.27137 0.37218 0.29416 0.0
H5587 H 0.22354 0.33636 0.29914 0.0
H5588 H 0.23703 0.30987 0.29938 0.0
H5589 H 0.22706 0.36986 0.32125 0.0
H5590 H 0.23192 0.35289 0.25631 0.0
H5591 H 0.24696 0.34579 0.22987 0.0
H5592 H 0.27981 0.40099 0.24352 0.0
H5593 H 0.26514 0.40832 0.27025 0.0
C5594 C 0.19113 0.43975 0.30203 0.0
C5595 C 0.19935 0.45617 0.29583 0.0
C5596 C 0.19807 0.42372 0.30187 0.0
C5597 C 0.21408 0.42333 0.29631 0.0
C5598 C 0.22221 0.43982 0.28999 0.0
C5599 C 0.215 0.45564 0.28958 0.0
C5600 C 0.22215 0.40606 0.29667 0.0
C5601 C 0.23141 0.40109 0.2823 0.0
C5602 C 0.22084 0.39416 0.31086 0.0
C5603 C 0.2127 0.39827 0.32753 0.0
C5604 C 0.21856 0.4155 0.33979 0.0
C5605 C 0.21074 0.41929 0.35545 0.0
C5606 C 0.19714 0.4059 0.35908 0.0
C5607 C 0.19138 0.38865 0.34711 0.0
C5608 C 0.19917 0.38479 0.33145 0.0
C5609 C 0.27142 0.34339 0.29555 0.0
C5610 C 0.26224 0.32521 0.2969 0.0
C5611 C 0.26358 0.3587 0.29523 0.0
C5612 C 0.24608 0.35684 0.29641 0.0
C5613 C 0.23695 0.33874 0.29814 0.0
C5614 C 0.24476 0.32333 0.29819 0.0
C5615 C 0.23752 0.37355 0.29583 0.0
C5616 C 0.22816 0.37829 0.31006 0.0
C5617 C 0.23888 0.38533 0.28165 0.0
C5618 C 0.24753 0.3811 0.2654 0.0
C5619 C 0.24242 0.36348 0.25375 0.0
C5620 C 0.25087 0.35941 0.2387 0.0
C5621 C 0.26436 0.37291 0.23505 0.0
C5622 C 0.26937 0.39053 0.24639 0.0
C5623 C 0.26099 0.39466 0.26148 0.0
H5624 H 0.2709 0.36973 0.22341 0.0
H5625 H 0.19109 0.40888 0.3712 0.0
H5626 H 0.25383 0.41405 0.04699 0.0
H5627 H 0.22805 0.4259 0.04307 0.0
H5628 H 0.25158 0.4712 0.08924 0.0
H5629 H 0.27713 0.45909 0.09356 0.0
H5630 H 0.22044 0.45859 0.09327 0.0
H5631 H 0.24597 0.47615 0.03991 0.0
H5632 H 0.25813 0.47106 0.01071 0.0
H5633 H 0.21087 0.43323 0.98275 0.0
H5634 H 0.19849 0.43792 0.01188 0.0
H5635 H 0.16385 0.51725 0.07781 0.0
H5636 H 0.18846 0.50357 0.08044 0.0
H5637 H 0.16098 0.4576 0.03661 0.0
H5638 H 0.13639 0.47155 0.03344 0.0
H5639 H 0.19318 0.46927 0.03091 0.0
H5640 H 0.16747 0.45289 0.08431 0.0
H5641 H 0.15547 0.45868 0.1135 0.0
H5642 H 0.20346 0.49506 0.14144 0.0
H5643 H 0.21569 0.48968 0.11233 0.0
C5644 C 0.25357 0.4266 0.05625 0.0
C5645 C 0.26766 0.43561 0.07056 0.0
C5646 C 0.23878 0.43345 0.05393 0.0
C5647 C 0.23776 0.44967 0.06568 0.0
C5648 C 0.25188 0.45868 0.07995 0.0
C5649 C 0.26658 0.45175 0.08236 0.0
C5650 C 0.22198 0.4571 0.06347 0.0
C5651 C 0.21467 0.46113 0.07964 0.0
C5652 C 0.21396 0.46005 0.04566 0.0
C5653 C 0.22137 0.45723 0.02814 0.0
C5654 C 0.23821 0.46664 0.02758 0.0
C5655 C 0.24513 0.46384 0.01104 0.0
C5656 C 0.23529 0.45179 0.99491 0.0
C5657 C 0.21848 0.44254 0.99527 0.0
C5658 C 0.2115 0.44527 0.01178 0.0
C5659 C 0.16299 0.50428 0.06859 0.0
C5660 C 0.14799 0.4956 0.05536 0.0
C5661 C 0.17711 0.49634 0.07026 0.0
C5662 C 0.17666 0.47937 0.05889 0.0
C5663 C 0.16173 0.47065 0.04563 0.0
C5664 C 0.14757 0.47859 0.04395 0.0
C5665 C 0.19181 0.47091 0.06073 0.0
C5666 C 0.19897 0.46667 0.04452 0.0
C5667 C 0.19974 0.46785 0.07851 0.0
C5668 C 0.19245 0.471 0.09608 0.0
C5669 C 0.17543 0.46222 0.09664 0.0
C5670 C 0.16859 0.46542 0.11317 0.0
C5671 C 0.17868 0.47727 0.1293 0.0
C5672 C 0.19565 0.4859 0.12893 0.0
C5673 C 0.20255 0.48277 0.11243 0.0
H5674 H 0.17336 0.47972 0.14209 0.0
H5675 H 0.24068 0.44964 0.98211 0.0
H5676 H 0.91499 0.94606 0.28958 0.0
H5677 H 0.89453 0.91717 0.29124 0.0
H5678 H 0.8597 0.92712 0.24492 0.0
H5679 H 0.87977 0.95649 0.24389 0.0
H5680 H 0.84232 0.91538 0.2695 0.0
H5681 H 0.88543 0.89362 0.24056 0.0
H5682 H 0.91483 0.89152 0.23815 0.0
H5683 H 0.91876 0.86919 0.2903 0.0
H5684 H 0.88947 0.87145 0.2932 0.0
H5685 H 0.78853 0.82263 0.25054 0.0
H5686 H 0.80914 0.85112 0.24739 0.0
H5687 H 0.84033 0.84822 0.30002 0.0
H5688 H 0.81964 0.82012 0.30344 0.0
H5689 H 0.85932 0.85563 0.27123 0.0
H5690 H 0.81635 0.87833 0.30011 0.0
H5691 H 0.78703 0.88082 0.30242 0.0
H5692 H 0.78278 0.90088 0.249 0.0
H5693 H 0.81201 0.89826 0.24625 0.0
C5694 C 0.903 0.94204 0.27969 0.0
C5695 C 0.89905 0.95355 0.26655 0.0
C5696 C 0.89131 0.92543 0.28058 0.0
C5697 C 0.8756 0.91965 0.26796 0.0
C5698 C 0.87168 0.93116 0.25482 0.0
C5699 C 0.88321 0.94796 0.2542 0.0
C5700 C 0.86309 0.90188 0.26871 0.0
C5701 C 0.84605 0.90229 0.26954 0.0
C5702 C 0.86787 0.88473 0.26917 0.0
C5703 C 0.88532 0.8829 0.2672 0.0
C5704 C 0.8926 0.88836 0.25157 0.0
C5705 C 0.90924 0.88715 0.25012 0.0
C5706 C 0.91869 0.88034 0.26413 0.0
C5707 C 0.91145 0.87454 0.27951 0.0
C5708 C 0.89482 0.87577 0.28105 0.0
C5709 C 0.79979 0.8281 0.26142 0.0
C5710 C 0.80259 0.81903 0.2771 0.0
C5711 C 0.81154 0.84436 0.25961 0.0
C5712 C 0.8263 0.8518 0.27347 0.0
C5713 C 0.82913 0.84266 0.28908 0.0
C5714 C 0.81732 0.82656 0.29097 0.0
C5715 C 0.8387 0.86926 0.27193 0.0
C5716 C 0.85567 0.86875 0.27101 0.0
C5717 C 0.83385 0.88627 0.27121 0.0
C5718 C 0.8163 0.88791 0.27288 0.0
C5719 C 0.80911 0.88312 0.28878 0.0
C5720 C 0.79252 0.88458 0.29018 0.0
C5721 C 0.78303 0.89095 0.27584 0.0
C5722 C 0.79013 0.89592 0.26009 0.0
C5723 C 0.80672 0.89446 0.2586 0.0
H5724 H 0.77019 0.89208 0.27696 0.0
H5725 H 0.93162 0.87954 0.26305 0.0
H5726 H 0.71019 0.0553 0.79048 0.0
H5727 H 0.72499 0.08711 0.78826 0.0
H5728 H 0.70203 0.10857 0.83396 0.0
H5729 H 0.68651 0.07685 0.8354 0.0
H5730 H 0.70226 0.13201 0.81316 0.0
H5731 H 0.74906 0.10692 0.83505 0.0
H5732 H 0.76768 0.08498 0.83529 0.0
H5733 H 0.77835 0.09535 0.7803 0.0
H5734 H 0.75962 0.1172 0.77964 0.0
H5735 H 0.75837 0.22483 0.82856 0.0
H5736 H 0.74475 0.19274 0.83168 0.0
H5737 H 0.75577 0.17266 0.77713 0.0
H5738 H 0.76916 0.20472 0.7738 0.0
H5739 H 0.76213 0.14915 0.8028 0.0
H5740 H 0.71505 0.17559 0.78288 0.0
H5741 H 0.69781 0.19885 0.78531 0.0
H5742 H 0.68939 0.187 0.84057 0.0
H5743 H 0.70679 0.16383 0.83858 0.0
C5744 C 0.70845 0.06671 0.80032 0.0
C5745 C 0.6971 0.06301 0.81331 0.0
C5746 C 0.7171 0.08522 0.7991 0.0
C5747 C 0.71522 0.10099 0.81115 0.0
C5748 C 0.70402 0.09719 0.8243 0.0
C5749 C 0.69514 0.07874 0.82526 0.0
C5750 C 0.72432 0.12124 0.8098 0.0
C5751 C 0.71546 0.13557 0.81121 0.0
C5752 C 0.74159 0.12671 0.80692 0.0
C5753 C 0.75279 0.11353 0.80721 0.0
C5754 C 0.75528 0.10442 0.82295 0.0
C5755 C 0.76587 0.09201 0.82317 0.0
C5756 C 0.77415 0.08873 0.80779 0.0
C5757 C 0.7719 0.09788 0.79219 0.0
C5758 C 0.76131 0.11029 0.79188 0.0
C5759 C 0.75793 0.21367 0.81715 0.0
C5760 C 0.76498 0.21782 0.80083 0.0
C5761 C 0.75 0.1951 0.81894 0.0
C5762 C 0.7489 0.17976 0.80461 0.0
C5763 C 0.75625 0.18387 0.78851 0.0
C5764 C 0.76394 0.20244 0.78658 0.0
C5765 C 0.74006 0.15966 0.80625 0.0
C5766 C 0.74896 0.14544 0.80484 0.0
C5767 C 0.72297 0.15436 0.80953 0.0
C5768 C 0.71234 0.16811 0.81065 0.0
C5769 C 0.70961 0.17803 0.7956 0.0
C5770 C 0.6998 0.19119 0.79689 0.0
C5771 C 0.69255 0.19443 0.8131 0.0
C5772 C 0.69504 0.18448 0.82803 0.0
C5773 C 0.70486 0.17133 0.82682 0.0
H5774 H 0.68496 0.20463 0.81408 0.0
H5775 H 0.78235 0.07912 0.80799 0.0
loop_
_geom_bond_atom_site_label_1
_geom_bond_atom_site_label_2
_geom_bond_distance
_geom_bond_site_symmetry_2
_ccdc_geom_bond_type
O0 Cd1 2.223 1_655 S
O0 C8 1.315 1_655 S
Cd1 O0 2.223 1_455 S
Cd1 O4 2.297 . S
Cd1 O5 2.439 . S
Cd1 O11 2.240 1_455 S
Cd2 O3 2.240 1_655 S
Cd2 O10 2.223 . S
Cd2 O12 2.297 . S
Cd2 O13 2.439 1_655 S
O3 Cd2 2.240 1_455 S
O3 C8 1.279 . S
O4 Cd1 2.297 . S
O4 C6 1.247 . S
O5 Cd1 2.439 . S
O5 C6 1.208 . S
C6 O4 1.247 . S
C6 O5 1.208 . S
C7 O12 1.247 1_455 S
C7 O13 1.208 . S
C8 O0 1.315 1_455 S
C8 O3 1.279 . S
C9 O10 1.315 . S
C9 O11 1.279 . S
O10 Cd2 2.223 . S
O10 C9 1.315 . S
O11 Cd1 2.240 1_655 S
O11 C9 1.279 . S
O12 Cd2 2.297 . S
O12 C7 1.247 1_655 S
O13 Cd2 2.439 1_455 S
O13 C7 1.208 . S
O14 Cd15 2.223 . S
O14 C22 1.315 . S
Cd15 O14 2.223 . S
Cd15 O18 2.297 . S
Cd15 O19 2.439 . S
Cd15 O25 2.240 . S
Cd16 O17 2.240 . S
Cd16 O24 2.223 . S
Cd16 O26 2.297 . S
Cd16 O27 2.439 . S
O17 Cd16 2.240 . S
O17 C22 1.279 . S
O18 Cd15 2.297 . S
O18 C20 1.247 . S
O19 Cd15 2.439 . S
O19 C20 1.208 . S
C20 O18 1.247 . S
C20 O19 1.208 . S
C21 O26 1.247 . S
C21 O27 1.208 . S
C22 O14 1.315 . S
C22 O17 1.279 . S
C23 O24 1.315 . S
C23 O25 1.279 . S
O24 Cd16 2.223 . S
O24 C23 1.315 . S
O25 Cd15 2.240 . S
O25 C23 1.279 . S
O26 Cd16 2.297 . S
O26 C21 1.247 . S
O27 Cd16 2.439 . S
O27 C21 1.208 . S
O28 Cd29 2.223 . S
O28 C36 1.315 . S
Cd29 O28 2.223 . S
Cd29 O32 2.297 . S
Cd29 O33 2.439 . S
Cd29 O39 2.240 . S
Cd30 O31 2.240 . S
Cd30 O38 2.223 . S
Cd30 O40 2.297 . S
Cd30 O41 2.439 . S
O31 Cd30 2.240 . S
O31 C36 1.279 . S
O32 Cd29 2.297 . S
O32 C34 1.247 . S
O33 Cd29 2.439 . S
O33 C34 1.208 . S
C34 O32 1.247 . S
C34 O33 1.208 . S
C35 O40 1.247 . S
C35 O41 1.208 . S
C36 O28 1.315 . S
C36 O31 1.279 . S
C37 O38 1.315 . S
C37 O39 1.279 . S
O38 Cd30 2.223 . S
O38 C37 1.315 . S
O39 Cd29 2.240 . S
O39 C37 1.279 . S
O40 Cd30 2.297 . S
O40 C35 1.247 . S
O41 Cd30 2.439 . S
O41 C35 1.208 . S
O42 Cd43 2.223 . S
O42 C50 1.315 . S
Cd43 O42 2.223 . S
Cd43 O46 2.297 . S
Cd43 O47 2.439 . S
Cd43 O53 2.240 . S
Cd44 O45 2.240 . S
Cd44 O52 2.223 . S
Cd44 O54 2.297 . S
Cd44 O55 2.439 . S
O45 Cd44 2.240 . S
O45 C50 1.279 . S
O46 Cd43 2.297 . S
O46 C48 1.247 . S
O47 Cd43 2.439 . S
O47 C48 1.208 . S
C48 O46 1.247 . S
C48 O47 1.208 . S
C49 O54 1.247 . S
C49 O55 1.208 . S
C50 O42 1.315 . S
C50 O45 1.279 . S
C51 O52 1.315 . S
C51 O53 1.279 . S
O52 Cd44 2.223 . S
O52 C51 1.315 . S
O53 Cd43 2.240 . S
O53 C51 1.279 . S
O54 Cd44 2.297 . S
O54 C49 1.247 . S
O55 Cd44 2.439 . S
O55 C49 1.208 . S
O56 Cd57 2.223 . S
O56 C64 1.315 . S
Cd57 O56 2.223 . S
Cd57 O60 2.297 . S
Cd57 O61 2.439 . S
Cd57 O67 2.240 . S
Cd58 O59 2.240 . S
Cd58 O66 2.223 . S
Cd58 O68 2.297 . S
Cd58 O69 2.439 . S
O59 Cd58 2.240 . S
O59 C64 1.279 . S
O60 Cd57 2.297 . S
O60 C62 1.247 . S
O61 Cd57 2.439 . S
O61 C62 1.208 . S
C62 O60 1.247 . S
C62 O61 1.208 . S
C63 O68 1.247 . S
C63 O69 1.208 . S
C64 O56 1.315 . S
C64 O59 1.279 . S
C65 O66 1.315 . S
C65 O67 1.279 . S
O66 Cd58 2.223 . S
O66 C65 1.315 . S
O67 Cd57 2.240 . S
O67 C65 1.279 . S
O68 Cd58 2.297 . S
O68 C63 1.247 . S
O69 Cd58 2.439 . S
O69 C63 1.208 . S
O70 Cd71 2.223 . S
O70 C78 1.315 . S
Cd71 O70 2.223 . S
Cd71 O74 2.297 . S
Cd71 O75 2.439 . S
Cd71 O81 2.240 . S
Cd72 O73 2.240 . S
Cd72 O80 2.223 . S
Cd72 O82 2.297 . S
Cd72 O83 2.439 . S
O73 Cd72 2.240 . S
O73 C78 1.279 . S
O74 Cd71 2.297 . S
O74 C76 1.247 . S
O75 Cd71 2.439 . S
O75 C76 1.208 . S
C76 O74 1.247 . S
C76 O75 1.208 . S
C77 O82 1.247 . S
C77 O83 1.208 . S
C78 O70 1.315 . S
C78 O73 1.279 . S
C79 O80 1.315 . S
C79 O81 1.279 . S
O80 Cd72 2.223 . S
O80 C79 1.315 . S
O81 Cd71 2.240 . S
O81 C79 1.279 . S
O82 Cd72 2.297 . S
O82 C77 1.247 . S
O83 Cd72 2.439 . S
O83 C77 1.208 . S
O84 Cd85 2.223 . S
O84 C92 1.315 . S
Cd85 O84 2.223 . S
Cd85 O88 2.297 . S
Cd85 O89 2.439 . S
Cd85 O95 2.240 . S
Cd86 O87 2.240 . S
Cd86 O94 2.223 . S
Cd86 O96 2.297 . S
Cd86 O97 2.439 . S
O87 Cd86 2.240 . S
O87 C92 1.279 . S
O88 Cd85 2.297 . S
O88 C90 1.247 . S
O89 Cd85 2.439 . S
O89 C90 1.208 . S
C90 O88 1.247 . S
C90 O89 1.208 . S
C91 O96 1.247 . S
C91 O97 1.208 . S
C92 O84 1.315 . S
C92 O87 1.279 . S
C93 O94 1.315 . S
C93 O95 1.279 . S
O94 Cd86 2.223 . S
O94 C93 1.315 . S
O95 Cd85 2.240 . S
O95 C93 1.279 . S
O96 Cd86 2.297 . S
O96 C91 1.247 . S
O97 Cd86 2.439 . S
O97 C91 1.208 . S
O98 Cd99 2.223 . S
O98 C106 1.315 . S
Cd99 O98 2.223 . S
Cd99 O102 2.297 . S
Cd99 O103 2.439 . S
Cd99 O109 2.240 1_455 S
Cd100 O101 2.240 . S
Cd100 O108 2.223 1_455 S
Cd100 O110 2.297 . S
Cd100 O111 2.439 . S
O101 Cd100 2.240 . S
O101 C106 1.279 . S
O102 Cd99 2.297 . S
O102 C104 1.247 . S
O103 Cd99 2.439 . S
O103 C104 1.208 . S
C104 O102 1.247 . S
C104 O103 1.208 . S
C105 O110 1.247 . S
C105 O111 1.208 . S
C106 O98 1.315 . S
C106 O101 1.279 . S
C107 O108 1.315 . S
C107 O109 1.279 . S
O108 Cd100 2.223 1_655 S
O108 C107 1.315 . S
O109 Cd99 2.240 1_655 S
O109 C107 1.279 . S
O110 Cd100 2.297 . S
O110 C105 1.247 . S
O111 Cd100 2.439 . S
O111 C105 1.208 . S
O112 Cd113 2.223 . S
O112 C120 1.315 . S
Cd113 O112 2.223 . S
Cd113 O116 2.297 . S
Cd113 O117 2.439 . S
Cd113 O123 2.240 . S
Cd114 O115 2.240 . S
Cd114 O122 2.223 1_545 S
Cd114 O124 2.297 . S
Cd114 O125 2.439 . S
O115 Cd114 2.240 . S
O115 C120 1.279 . S
O116 Cd113 2.297 . S
O116 C118 1.247 . S
O117 Cd113 2.439 . S
O117 C118 1.208 . S
C118 O116 1.247 . S
C118 O117 1.208 . S
C119 O124 1.247 . S
C119 O125 1.208 . S
C120 O112 1.315 . S
C120 O115 1.279 . S
C121 O122 1.315 . S
C121 O123 1.279 1_565 S
O122 Cd114 2.223 1_565 S
O122 C121 1.315 . S
O123 Cd113 2.240 . S
O123 C121 1.279 1_545 S
O124 Cd114 2.297 . S
O124 C119 1.247 . S
O125 Cd114 2.439 . S
O125 C119 1.208 . S
O126 Cd127 2.223 . S
O126 C134 1.315 . S
Cd127 O126 2.223 . S
Cd127 O130 2.297 . S
Cd127 O131 2.439 . S
Cd127 O137 2.240 . S
Cd128 O129 2.240 . S
Cd128 O136 2.223 . S
Cd128 O138 2.297 . S
Cd128 O139 2.439 . S
O129 Cd128 2.240 . S
O129 C134 1.279 . S
O130 Cd127 2.297 . S
O130 C132 1.247 . S
O131 Cd127 2.439 . S
O131 C132 1.208 . S
C132 O130 1.247 . S
C132 O131 1.208 . S
C133 O138 1.247 . S
C133 O139 1.208 . S
C134 O126 1.315 . S
C134 O129 1.279 . S
C135 O136 1.315 . S
C135 O137 1.279 . S
O136 Cd128 2.223 . S
O136 C135 1.315 . S
O137 Cd127 2.240 . S
O137 C135 1.279 . S
O138 Cd128 2.297 . S
O138 C133 1.247 . S
O139 Cd128 2.439 . S
O139 C133 1.208 . S
O140 Cd141 2.223 . S
O140 C148 1.315 . S
Cd141 O140 2.223 . S
Cd141 O144 2.297 1_545 S
Cd141 O145 2.439 1_545 S
Cd141 O151 2.240 . S
Cd142 O143 2.240 . S
Cd142 O150 2.223 . S
Cd142 O152 2.297 . S
Cd142 O153 2.439 . S
O143 Cd142 2.240 . S
O143 C148 1.279 . S
O144 Cd141 2.297 1_565 S
O144 C146 1.247 . S
O145 Cd141 2.439 1_565 S
O145 C146 1.208 . S
C146 O144 1.247 . S
C146 O145 1.208 . S
C147 O152 1.247 . S
C147 O153 1.208 . S
C148 O140 1.315 . S
C148 O143 1.279 . S
C149 O150 1.315 . S
C149 O151 1.279 . S
O150 Cd142 2.223 . S
O150 C149 1.315 . S
O151 Cd141 2.240 . S
O151 C149 1.279 . S
O152 Cd142 2.297 . S
O152 C147 1.247 . S
O153 Cd142 2.439 . S
O153 C147 1.208 . S
O154 Cd155 2.223 . S
O154 C162 1.315 . S
Cd155 O154 2.223 . S
Cd155 O158 2.297 . S
Cd155 O159 2.439 1_554 S
Cd155 O165 2.240 1_554 S
Cd156 O157 2.240 1_556 S
Cd156 O164 2.223 1_556 S
Cd156 O166 2.297 . S
Cd156 O167 2.439 . S
O157 Cd156 2.240 1_554 S
O157 C162 1.279 . S
O158 Cd155 2.297 . S
O158 C160 1.247 . S
O159 Cd155 2.439 1_556 S
O159 C160 1.208 1_556 S
C160 O158 1.247 . S
C160 O159 1.208 1_554 S
C161 O166 1.247 . S
C161 O167 1.208 . S
C162 O154 1.315 . S
C162 O157 1.279 . S
C163 O164 1.315 . S
C163 O165 1.279 1_554 S
O164 Cd156 2.223 1_554 S
O164 C163 1.315 . S
O165 Cd155 2.240 1_556 S
O165 C163 1.279 1_556 S
O166 Cd156 2.297 . S
O166 C161 1.247 . S
O167 Cd156 2.439 . S
O167 C161 1.208 . S
O168 Cd169 2.223 . S
O168 C176 1.315 . S
Cd169 O168 2.223 . S
Cd169 O172 2.297 . S
Cd169 O173 2.439 . S
Cd169 O179 2.240 . S
Cd170 O171 2.240 . S
Cd170 O178 2.223 . S
Cd170 O180 2.297 . S
Cd170 O181 2.439 . S
O171 Cd170 2.240 . S
O171 C176 1.279 . S
O172 Cd169 2.297 . S
O172 C174 1.247 . S
O173 Cd169 2.439 . S
O173 C174 1.208 . S
C174 O172 1.247 . S
C174 O173 1.208 . S
C175 O180 1.247 1_556 S
C175 O181 1.208 1_556 S
C176 O168 1.315 . S
C176 O171 1.279 . S
C177 O178 1.315 . S
C177 O179 1.279 . S
O178 Cd170 2.223 . S
O178 C177 1.315 . S
O179 Cd169 2.240 . S
O179 C177 1.279 . S
O180 Cd170 2.297 . S
O180 C175 1.247 1_554 S
O181 Cd170 2.439 . S
O181 C175 1.208 1_554 S
O182 Cd183 2.223 . S
O182 C190 1.315 . S
Cd183 O182 2.223 . S
Cd183 O186 2.297 . S
Cd183 O187 2.439 . S
Cd183 O193 2.240 . S
Cd184 O185 2.240 . S
Cd184 O192 2.223 . S
Cd184 O194 2.297 . S
Cd184 O195 2.439 . S
O185 Cd184 2.240 . S
O185 C190 1.279 . S
O186 Cd183 2.297 . S
O186 C188 1.247 . S
O187 Cd183 2.439 . S
O187 C188 1.208 . S
C188 O186 1.247 . S
C188 O187 1.208 . S
C189 O194 1.247 . S
C189 O195 1.208 . S
C190 O182 1.315 . S
C190 O185 1.279 . S
C191 O192 1.315 . S
C191 O193 1.279 . S
O192 Cd184 2.223 . S
O192 C191 1.315 . S
O193 Cd183 2.240 . S
O193 C191 1.279 . S
O194 Cd184 2.297 . S
O194 C189 1.247 . S
O195 Cd184 2.439 . S
O195 C189 1.208 . S
O196 Cd197 2.223 . S
O196 C204 1.315 . S
Cd197 O196 2.223 . S
Cd197 O200 2.297 . S
Cd197 O201 2.439 . S
Cd197 O207 2.240 . S
Cd198 O199 2.240 . S
Cd198 O206 2.223 . S
Cd198 O208 2.297 . S
Cd198 O209 2.439 . S
O199 Cd198 2.240 . S
O199 C204 1.279 . S
O200 Cd197 2.297 . S
O200 C202 1.247 . S
O201 Cd197 2.439 . S
O201 C202 1.208 . S
C202 O200 1.247 . S
C202 O201 1.208 . S
C203 O208 1.247 . S
C203 O209 1.208 . S
C204 O196 1.315 . S
C204 O199 1.279 . S
C205 O206 1.315 . S
C205 O207 1.279 . S
O206 Cd198 2.223 . S
O206 C205 1.315 . S
O207 Cd197 2.240 . S
O207 C205 1.279 . S
O208 Cd198 2.297 . S
O208 C203 1.247 . S
O209 Cd198 2.439 . S
O209 C203 1.208 . S
O210 Cd211 2.223 . S
O210 C218 1.315 . S
Cd211 O210 2.223 . S
Cd211 O214 2.297 . S
Cd211 O215 2.439 . S
Cd211 O221 2.240 . S
Cd212 O213 2.240 . S
Cd212 O220 2.223 . S
Cd212 O222 2.297 . S
Cd212 O223 2.439 . S
O213 Cd212 2.240 . S
O213 C218 1.279 . S
O214 Cd211 2.297 . S
O214 C216 1.247 . S
O215 Cd211 2.439 . S
O215 C216 1.208 . S
C216 O214 1.247 . S
C216 O215 1.208 . S
C217 O222 1.247 . S
C217 O223 1.208 . S
C218 O210 1.315 . S
C218 O213 1.279 . S
C219 O220 1.315 . S
C219 O221 1.279 . S
O220 Cd212 2.223 . S
O220 C219 1.315 . S
O221 Cd211 2.240 . S
O221 C219 1.279 . S
O222 Cd212 2.297 . S
O222 C217 1.247 . S
O223 Cd212 2.439 . S
O223 C217 1.208 . S
O224 Cd225 2.223 1_565 S
O224 C232 1.315 1_565 S
Cd225 O224 2.223 1_545 S
Cd225 O228 2.297 . S
Cd225 O229 2.439 . S
Cd225 O235 2.240 1_545 S
Cd226 O227 2.209 1_565 S
Cd226 O234 2.266 . S
Cd226 O236 2.319 . S
Cd226 O237 2.417 1_565 S
O227 Cd226 2.209 1_545 S
O227 C232 1.279 . S
O228 Cd225 2.297 . S
O228 C230 1.247 . S
O229 Cd225 2.439 . S
O229 C230 1.208 . S
C230 O228 1.247 . S
C230 O229 1.208 . S
C231 O236 1.247 1_545 S
C231 O237 1.208 . S
C232 O224 1.315 1_545 S
C232 O227 1.279 . S
C233 O234 1.315 . S
C233 O235 1.279 . S
O234 Cd226 2.266 . S
O234 C233 1.315 . S
O235 Cd225 2.240 1_565 S
O235 C233 1.279 . S
O236 Cd226 2.319 . S
O236 C231 1.247 1_565 S
O237 Cd226 2.417 1_545 S
O237 C231 1.208 . S
O238 Cd239 2.223 . S
O238 C246 1.315 . S
Cd239 O238 2.223 . S
Cd239 O242 2.297 . S
Cd239 O243 2.439 . S
Cd239 O249 2.240 . S
Cd240 O241 2.240 . S
Cd240 O248 2.223 . S
Cd240 O250 2.297 . S
Cd240 O251 2.439 . S
O241 Cd240 2.240 . S
O241 C246 1.279 . S
O242 Cd239 2.297 . S
O242 C244 1.247 . S
O243 Cd239 2.439 . S
O243 C244 1.208 . S
C244 O242 1.247 . S
C244 O243 1.208 . S
C245 O250 1.247 . S
C245 O251 1.208 . S
C246 O238 1.315 . S
C246 O241 1.279 . S
C247 O248 1.315 . S
C247 O249 1.279 . S
O248 Cd240 2.223 . S
O248 C247 1.315 . S
O249 Cd239 2.240 . S
O249 C247 1.279 . S
O250 Cd240 2.297 . S
O250 C245 1.247 . S
O251 Cd240 2.439 . S
O251 C245 1.208 . S
O252 Cd253 2.223 . S
O252 C260 1.315 . S
Cd253 O252 2.223 . S
Cd253 O256 2.297 . S
Cd253 O257 2.439 . S
Cd253 O263 2.240 . S
Cd254 O255 2.240 . S
Cd254 O262 2.223 . S
Cd254 O264 2.297 . S
Cd254 O265 2.439 . S
O255 Cd254 2.240 . S
O255 C260 1.279 . S
O256 Cd253 2.297 . S
O256 C258 1.247 . S
O257 Cd253 2.439 . S
O257 C258 1.208 . S
C258 O256 1.247 . S
C258 O257 1.208 . S
C259 O264 1.247 . S
C259 O265 1.208 . S
C260 O252 1.315 . S
C260 O255 1.279 . S
C261 O262 1.315 . S
C261 O263 1.279 . S
O262 Cd254 2.223 . S
O262 C261 1.315 . S
O263 Cd253 2.240 . S
O263 C261 1.279 . S
O264 Cd254 2.297 . S
O264 C259 1.247 . S
O265 Cd254 2.439 . S
O265 C259 1.208 . S
O266 Cd267 2.223 . S
O266 C274 1.315 . S
Cd267 O266 2.223 . S
Cd267 O270 2.297 1_545 S
Cd267 O271 2.439 1_545 S
Cd267 O277 2.240 . S
Cd268 O269 2.240 . S
Cd268 O276 2.223 . S
Cd268 O278 2.297 . S
Cd268 O279 2.439 . S
O269 Cd268 2.240 . S
O269 C274 1.279 . S
O270 Cd267 2.297 1_565 S
O270 C272 1.247 . S
O271 Cd267 2.439 1_565 S
O271 C272 1.208 . S
C272 O270 1.247 . S
C272 O271 1.208 . S
C273 O278 1.247 . S
C273 O279 1.208 . S
C274 O266 1.315 . S
C274 O269 1.279 . S
C275 O276 1.315 . S
C275 O277 1.279 . S
O276 Cd268 2.223 . S
O276 C275 1.315 . S
O277 Cd267 2.240 . S
O277 C275 1.279 . S
O278 Cd268 2.297 . S
O278 C273 1.247 . S
O279 Cd268 2.439 . S
O279 C273 1.208 . S
O280 Cd281 2.223 . S
O280 C288 1.315 . S
Cd281 O280 2.223 . S
Cd281 O284 2.297 . S
Cd281 O285 2.439 . S
Cd281 O291 2.240 . S
Cd282 O283 2.240 . S
Cd282 O290 2.223 . S
Cd282 O292 2.297 . S
Cd282 O293 2.439 . S
O283 Cd282 2.240 . S
O283 C288 1.279 . S
O284 Cd281 2.297 . S
O284 C286 1.247 . S
O285 Cd281 2.439 . S
O285 C286 1.208 . S
C286 O284 1.247 . S
C286 O285 1.208 . S
C287 O292 1.226 1_556 S
C287 O293 1.185 1_556 S
C288 O280 1.315 . S
C288 O283 1.279 . S
C289 O290 1.315 . S
C289 O291 1.279 . S
O290 Cd282 2.223 . S
O290 C289 1.315 . S
O291 Cd281 2.240 . S
O291 C289 1.279 . S
O292 Cd282 2.297 . S
O292 C287 1.226 1_554 S
O293 Cd282 2.439 . S
O293 C287 1.185 1_554 S
O294 Cd295 2.223 . S
O294 C302 1.315 . S
Cd295 O294 2.223 . S
Cd295 O298 2.297 . S
Cd295 O299 2.439 . S
Cd295 O305 2.240 . S
Cd296 O297 2.240 . S
Cd296 O304 2.223 . S
Cd296 O306 2.297 . S
Cd296 O307 2.439 . S
O297 Cd296 2.240 . S
O297 C302 1.279 . S
O298 Cd295 2.297 . S
O298 C300 1.247 . S
O299 Cd295 2.439 . S
O299 C300 1.208 . S
C300 O298 1.247 . S
C300 O299 1.208 . S
C301 O306 1.247 . S
C301 O307 1.208 . S
C302 O294 1.315 . S
C302 O297 1.279 . S
C303 O304 1.315 . S
C303 O305 1.279 . S
O304 Cd296 2.223 . S
O304 C303 1.315 . S
O305 Cd295 2.240 . S
O305 C303 1.279 . S
O306 Cd296 2.297 . S
O306 C301 1.247 . S
O307 Cd296 2.439 . S
O307 C301 1.208 . S
O308 Cd309 2.223 . S
O308 C316 1.315 . S
Cd309 O308 2.223 . S
Cd309 O312 2.297 . S
Cd309 O313 2.439 . S
Cd309 O319 2.240 . S
Cd310 O311 2.240 . S
Cd310 O318 2.223 . S
Cd310 O320 2.297 . S
Cd310 O321 2.439 . S
O311 Cd310 2.240 . S
O311 C316 1.279 . S
O312 Cd309 2.297 . S
O312 C314 1.247 . S
O313 Cd309 2.439 . S
O313 C314 1.208 . S
C314 O312 1.247 . S
C314 O313 1.208 . S
C315 O320 1.247 . S
C315 O321 1.208 . S
C316 O308 1.315 . S
C316 O311 1.279 . S
C317 O318 1.315 . S
C317 O319 1.279 . S
O318 Cd310 2.223 . S
O318 C317 1.315 . S
O319 Cd309 2.240 . S
O319 C317 1.279 . S
O320 Cd310 2.297 . S
O320 C315 1.247 . S
O321 Cd310 2.439 . S
O321 C315 1.208 . S
O322 Cd323 2.223 . S
O322 C330 1.315 . S
Cd323 O322 2.223 . S
Cd323 O326 2.297 . S
Cd323 O327 2.439 . S
Cd323 O333 2.240 . S
Cd324 O325 2.240 . S
Cd324 O332 2.223 . S
Cd324 O334 2.297 . S
Cd324 O335 2.439 . S
O325 Cd324 2.240 . S
O325 C330 1.279 . S
O326 Cd323 2.297 . S
O326 C328 1.247 . S
O327 Cd323 2.439 . S
O327 C328 1.208 . S
C328 O326 1.247 . S
C328 O327 1.208 . S
C329 O334 1.247 . S
C329 O335 1.208 . S
C330 O322 1.315 . S
C330 O325 1.279 . S
C331 O332 1.315 . S
C331 O333 1.279 . S
O332 Cd324 2.223 . S
O332 C331 1.315 . S
O333 Cd323 2.240 . S
O333 C331 1.279 . S
O334 Cd324 2.297 . S
O334 C329 1.247 . S
O335 Cd324 2.439 . S
O335 C329 1.208 . S
Tb336 C338 2.809 1_455 S
Tb336 O356 2.484 1_455 S
Tb336 O357 2.440 1_455 S
Tb336 O358 2.658 . S
Tb336 O359 2.409 . S
Tb336 O360 2.378 . S
Tb336 O364 2.325 . S
Tb336 O367 2.341 1_545 S
Tb337 C347 2.809 . S
Tb337 O358 2.325 . S
Tb337 O361 2.341 . S
Tb337 O362 2.484 . S
Tb337 O363 2.440 . S
Tb337 O364 2.658 . S
Tb337 O365 2.409 . S
Tb337 O366 2.372 1_545 S
C338 Tb336 2.809 1_655 S
C338 C339 1.514 . S
C338 O356 1.248 . S
C338 O357 1.266 . S
C339 C338 1.514 . S
C339 C340 1.359 . S
C339 C344 1.348 . S
C340 C339 1.359 . S
C340 C341 1.380 . S
C340 H368 0.929 . S
C341 C340 1.380 . S
C341 C342 1.347 . S
C341 H369 0.931 . S
C342 C341 1.347 . S
C342 C343 1.369 . S
C343 C342 1.369 . S
C343 C344 1.408 . S
C343 H370 0.930 1_554 S
C344 C339 1.348 . S
C344 C343 1.408 . S
C344 H371 0.930 1_554 S
C345 O358 1.281 . S
C345 O359 1.254 . S
C346 O360 1.236 . S
C346 O361 1.266 . S
C347 Tb337 2.809 . S
C347 C348 1.480 1_545 S
C347 O362 1.248 . S
C347 O363 1.266 . S
C348 C347 1.480 1_565 S
C348 C349 1.383 . S
C348 C353 1.355 . S
C349 C348 1.383 . S
C349 C350 1.380 . S
C349 H372 0.929 . S
C350 C349 1.380 . S
C350 C351 1.347 . S
C350 H373 0.931 . S
C351 C350 1.347 . S
C351 C352 1.369 . S
C352 C351 1.369 . S
C352 C353 1.421 . S
C352 H374 0.930 . S
C353 C348 1.355 . S
C353 C352 1.421 . S
C353 H375 0.922 1_565 S
C354 O364 1.281 . S
C354 O365 1.254 . S
C355 O366 1.240 . S
C355 O367 1.266 . S
O356 Tb336 2.484 1_655 S
O356 C338 1.248 . S
O357 Tb336 2.440 1_655 S
O357 C338 1.266 . S
O358 Tb336 2.658 . S
O358 Tb337 2.325 . S
O358 C345 1.281 . S
O359 Tb336 2.409 . S
O359 C345 1.254 . S
O360 Tb336 2.378 . S
O360 C346 1.236 . S
O361 Tb337 2.341 . S
O361 C346 1.266 . S
O362 Tb337 2.484 . S
O362 C347 1.248 . S
O363 Tb337 2.440 . S
O363 C347 1.266 . S
O364 Tb336 2.325 . S
O364 Tb337 2.658 . S
O364 C354 1.281 . S
O365 Tb337 2.409 . S
O365 C354 1.254 . S
O366 Tb337 2.372 1_565 S
O366 C355 1.240 . S
O367 Tb336 2.341 1_565 S
O367 C355 1.266 . S
H368 C340 0.929 . S
H369 C341 0.931 . S
H370 C343 0.930 1_556 S
H371 C344 0.930 1_556 S
H372 C349 0.929 . S
H373 C350 0.931 . S
H374 C352 0.930 . S
H375 C353 0.922 1_545 S
Tb376 C378 2.809 . S
Tb376 O396 2.484 . S
Tb376 O397 2.440 . S
Tb376 O398 2.658 . S
Tb376 O399 2.409 . S
Tb376 O400 2.378 . S
Tb376 O404 2.325 . S
Tb376 O407 2.341 . S
Tb377 C387 2.809 . S
Tb377 O398 2.325 . S
Tb377 O401 2.341 . S
Tb377 O402 2.484 . S
Tb377 O403 2.440 . S
Tb377 O404 2.658 . S
Tb377 O405 2.409 . S
Tb377 O406 2.378 . S
C378 Tb376 2.809 . S
C378 C379 1.514 . S
C378 O396 1.248 . S
C378 O397 1.266 . S
C379 C378 1.514 . S
C379 C380 1.359 . S
C379 C384 1.348 . S
C380 C379 1.359 . S
C380 C381 1.380 . S
C380 H408 0.929 . S
C381 C380 1.380 . S
C381 C382 1.347 . S
C381 H409 0.931 . S
C382 C381 1.347 . S
C382 C383 1.369 . S
C383 C382 1.369 . S
C383 C384 1.408 . S
C383 H410 0.930 . S
C384 C379 1.348 . S
C384 C383 1.408 . S
C384 H411 0.930 . S
C385 O398 1.281 . S
C385 O399 1.254 . S
C386 O400 1.236 . S
C386 O401 1.266 . S
C387 Tb377 2.809 . S
C387 C388 1.514 . S
C387 O402 1.248 . S
C387 O403 1.266 . S
C388 C387 1.514 . S
C388 C389 1.359 . S
C388 C393 1.348 . S
C389 C388 1.359 . S
C389 C390 1.380 . S
C389 H412 0.929 . S
C390 C389 1.380 . S
C390 C391 1.347 . S
C390 H413 0.931 . S
C391 C390 1.347 . S
C391 C392 1.369 . S
C392 C391 1.369 . S
C392 C393 1.408 . S
C392 H414 0.930 . S
C393 C388 1.348 . S
C393 C392 1.408 . S
C393 H415 0.930 . S
C394 O404 1.281 . S
C394 O405 1.254 . S
C395 O406 1.236 . S
C395 O407 1.266 . S
O396 Tb376 2.484 . S
O396 C378 1.248 . S
O397 Tb376 2.440 . S
O397 C378 1.266 . S
O398 Tb376 2.658 . S
O398 Tb377 2.325 . S
O398 C385 1.281 . S
O399 Tb376 2.409 . S
O399 C385 1.254 . S
O400 Tb376 2.378 . S
O400 C386 1.236 . S
O401 Tb377 2.341 . S
O401 C386 1.266 . S
O402 Tb377 2.484 . S
O402 C387 1.248 . S
O403 Tb377 2.440 . S
O403 C387 1.266 . S
O404 Tb376 2.325 . S
O404 Tb377 2.658 . S
O404 C394 1.281 . S
O405 Tb377 2.409 . S
O405 C394 1.254 . S
O406 Tb377 2.378 . S
O406 C395 1.236 . S
O407 Tb376 2.341 . S
O407 C395 1.266 . S
H408 C380 0.929 . S
H409 C381 0.931 . S
H410 C383 0.930 . S
H411 C384 0.930 . S
H412 C389 0.929 . S
H413 C390 0.931 . S
H414 C392 0.930 . S
H415 C393 0.930 . S
Tb416 C418 2.823 . S
Tb416 O436 2.531 . S
Tb416 O437 2.440 . S
Tb416 O438 2.658 . S
Tb416 O439 2.409 . S
Tb416 O440 2.378 1_545 S
Tb416 O444 2.325 . S
Tb416 O447 2.341 . S
Tb417 C427 2.809 . S
Tb417 O438 2.325 . S
Tb417 O441 2.341 1_545 S
Tb417 O442 2.484 . S
Tb417 O443 2.440 . S
Tb417 O444 2.658 . S
Tb417 O445 2.409 . S
Tb417 O446 2.378 . S
C418 Tb416 2.823 . S
C418 C419 1.500 1_545 S
C418 O436 1.249 . S
C418 O437 1.280 . S
C419 C418 1.500 1_565 S
C419 C420 1.359 . S
C419 C424 1.348 . S
C420 C419 1.359 . S
C420 C421 1.380 . S
C420 H448 0.929 . S
C421 C420 1.380 . S
C421 C422 1.347 . S
C421 H449 0.931 . S
C422 C421 1.347 . S
C422 C423 1.369 . S
C423 C422 1.369 . S
C423 C424 1.408 . S
C423 H450 0.930 . S
C424 C419 1.348 . S
C424 C423 1.408 . S
C424 H451 0.930 . S
C425 O438 1.281 . S
C425 O439 1.254 . S
C426 O440 1.236 . S
C426 O441 1.266 . S
C427 Tb417 2.809 . S
C427 C428 1.514 . S
C427 O442 1.248 . S
C427 O443 1.266 . S
C428 C427 1.514 . S
C428 C429 1.359 . S
C428 C433 1.348 . S
C429 C428 1.359 . S
C429 C430 1.380 . S
C429 H452 0.929 . S
C430 C429 1.380 . S
C430 C431 1.347 . S
C430 H453 0.931 . S
C431 C430 1.347 . S
C431 C432 1.369 . S
C432 C431 1.369 . S
C432 C433 1.408 . S
C432 H454 0.930 . S
C433 C428 1.348 . S
C433 C432 1.408 . S
C433 H455 0.930 . S
C434 O444 1.281 . S
C434 O445 1.254 . S
C435 O446 1.236 . S
C435 O447 1.266 . S
O436 Tb416 2.531 . S
O436 C418 1.249 . S
O437 Tb416 2.440 . S
O437 C418 1.280 . S
O438 Tb416 2.658 . S
O438 Tb417 2.325 . S
O438 C425 1.281 . S
O439 Tb416 2.409 . S
O439 C425 1.254 . S
O440 Tb416 2.378 1_565 S
O440 C426 1.236 . S
O441 Tb417 2.341 1_565 S
O441 C426 1.266 . S
O442 Tb417 2.484 . S
O442 C427 1.248 . S
O443 Tb417 2.440 . S
O443 C427 1.266 . S
O444 Tb416 2.325 . S
O444 Tb417 2.658 . S
O444 C434 1.281 . S
O445 Tb417 2.409 . S
O445 C434 1.254 . S
O446 Tb417 2.378 . S
O446 C435 1.236 . S
O447 Tb416 2.341 . S
O447 C435 1.266 . S
H448 C420 0.929 . S
H449 C421 0.931 . S
H450 C423 0.930 . S
H451 C424 0.930 . S
H452 C429 0.929 . S
H453 C430 0.931 . S
H454 C432 0.930 . S
H455 C433 0.930 . S
Tb456 C458 2.809 . S
Tb456 O476 2.484 . S
Tb456 O477 2.440 . S
Tb456 O478 2.658 . S
Tb456 O479 2.409 . S
Tb456 O480 2.378 . S
Tb456 O484 2.325 . S
Tb456 O487 2.341 . S
Tb457 C467 2.809 . S
Tb457 O478 2.325 . S
Tb457 O481 2.341 . S
Tb457 O482 2.484 . S
Tb457 O483 2.440 . S
Tb457 O484 2.658 . S
Tb457 O485 2.409 . S
Tb457 O486 2.378 . S
C458 Tb456 2.809 . S
C458 C459 1.514 . S
C458 O476 1.248 . S
C458 O477 1.266 . S
C459 C458 1.514 . S
C459 C460 1.359 . S
C459 C464 1.348 . S
C460 C459 1.359 . S
C460 C461 1.380 . S
C460 H488 0.929 . S
C461 C460 1.380 . S
C461 C462 1.347 . S
C461 H489 0.931 . S
C462 C461 1.347 . S
C462 C463 1.369 . S
C463 C462 1.369 . S
C463 C464 1.408 . S
C463 H490 0.930 . S
C464 C459 1.348 . S
C464 C463 1.408 . S
C464 H491 0.930 . S
C465 O478 1.281 . S
C465 O479 1.254 . S
C466 O480 1.236 . S
C466 O481 1.266 . S
C467 Tb457 2.809 . S
C467 C468 1.514 . S
C467 O482 1.248 . S
C467 O483 1.266 . S
C468 C467 1.514 . S
C468 C469 1.359 . S
C468 C473 1.348 . S
C469 C468 1.359 . S
C469 C470 1.380 . S
C469 H492 0.929 . S
C470 C469 1.380 . S
C470 C471 1.347 . S
C470 H493 0.931 . S
C471 C470 1.347 . S
C471 C472 1.369 . S
C472 C471 1.369 . S
C472 C473 1.408 . S
C472 H494 0.930 . S
C473 C468 1.348 . S
C473 C472 1.408 . S
C473 H495 0.930 . S
C474 O484 1.281 . S
C474 O485 1.254 . S
C475 O486 1.236 . S
C475 O487 1.266 . S
O476 Tb456 2.484 . S
O476 C458 1.248 . S
O477 Tb456 2.440 . S
O477 C458 1.266 . S
O478 Tb456 2.658 . S
O478 Tb457 2.325 . S
O478 C465 1.281 . S
O479 Tb456 2.409 . S
O479 C465 1.254 . S
O480 Tb456 2.378 . S
O480 C466 1.236 . S
O481 Tb457 2.341 . S
O481 C466 1.266 . S
O482 Tb457 2.484 . S
O482 C467 1.248 . S
O483 Tb457 2.440 . S
O483 C467 1.266 . S
O484 Tb456 2.325 . S
O484 Tb457 2.658 . S
O484 C474 1.281 . S
O485 Tb457 2.409 . S
O485 C474 1.254 . S
O486 Tb457 2.378 . S
O486 C475 1.236 . S
O487 Tb456 2.341 . S
O487 C475 1.266 . S
H488 C460 0.929 . S
H489 C461 0.931 . S
H490 C463 0.930 . S
H491 C464 0.930 . S
H492 C469 0.929 . S
H493 C470 0.931 . S
H494 C472 0.930 . S
H495 C473 0.930 . S
Tb496 C498 2.809 . S
Tb496 O516 2.484 . S
Tb496 O517 2.440 . S
Tb496 O518 2.658 . S
Tb496 O519 2.409 . S
Tb496 O520 2.378 . S
Tb496 O524 2.325 . S
Tb496 O527 2.341 . S
Tb497 C507 2.809 . S
Tb497 O518 2.325 1_565 S
Tb497 O521 2.341 1_565 S
Tb497 O522 2.484 . S
Tb497 O523 2.440 . S
Tb497 O524 2.658 1_565 S
Tb497 O525 2.409 1_565 S
Tb497 O526 2.378 1_565 S
C498 Tb496 2.809 . S
C498 C499 1.514 . S
C498 O516 1.248 . S
C498 O517 1.266 . S
C499 C498 1.514 . S
C499 C500 1.359 . S
C499 C504 1.348 . S
C500 C499 1.359 . S
C500 C501 1.380 . S
C500 H528 0.929 . S
C501 C500 1.380 . S
C501 C502 1.347 . S
C501 H529 0.931 . S
C502 C501 1.347 . S
C502 C503 1.369 . S
C503 C502 1.369 . S
C503 C504 1.408 . S
C503 H530 0.930 1_455 S
C504 C499 1.348 . S
C504 C503 1.408 . S
C504 H531 0.930 1_455 S
C505 O518 1.281 . S
C505 O519 1.254 . S
C506 O520 1.236 . S
C506 O521 1.266 . S
C507 Tb497 2.809 . S
C507 C508 1.514 . S
C507 O522 1.248 . S
C507 O523 1.266 . S
C508 C507 1.514 . S
C508 C509 1.359 . S
C508 C513 1.348 . S
C509 C508 1.359 . S
C509 C510 1.380 . S
C509 H532 0.929 . S
C510 C509 1.380 . S
C510 C511 1.347 . S
C510 H533 0.931 . S
C511 C510 1.347 . S
C511 C512 1.369 . S
C512 C511 1.369 . S
C512 C513 1.408 . S
C512 H534 0.930 . S
C513 C508 1.348 . S
C513 C512 1.408 . S
C513 H535 0.930 . S
C514 O524 1.281 . S
C514 O525 1.254 . S
C515 O526 1.236 . S
C515 O527 1.266 . S
O516 Tb496 2.484 . S
O516 C498 1.248 . S
O517 Tb496 2.440 . S
O517 C498 1.266 . S
O518 Tb496 2.658 . S
O518 Tb497 2.325 1_545 S
O518 C505 1.281 . S
O519 Tb496 2.409 . S
O519 C505 1.254 . S
O520 Tb496 2.378 . S
O520 C506 1.236 . S
O521 Tb497 2.341 1_545 S
O521 C506 1.266 . S
O522 Tb497 2.484 . S
O522 C507 1.248 . S
O523 Tb497 2.440 . S
O523 C507 1.266 . S
O524 Tb496 2.325 . S
O524 Tb497 2.658 1_545 S
O524 C514 1.281 . S
O525 Tb497 2.409 1_545 S
O525 C514 1.254 . S
O526 Tb497 2.378 1_545 S
O526 C515 1.236 . S
O527 Tb496 2.341 . S
O527 C515 1.266 . S
H528 C500 0.929 . S
H529 C501 0.931 . S
H530 C503 0.930 1_655 S
H531 C504 0.930 1_655 S
H532 C509 0.929 . S
H533 C510 0.931 . S
H534 C512 0.930 . S
H535 C513 0.930 . S
Tb536 C538 2.809 . S
Tb536 O556 2.484 . S
Tb536 O557 2.440 . S
Tb536 O558 2.658 . S
Tb536 O559 2.409 . S
Tb536 O560 2.378 . S
Tb536 O564 2.325 . S
Tb536 O567 2.341 . S
Tb537 C547 2.809 . S
Tb537 O558 2.325 . S
Tb537 O561 2.341 . S
Tb537 O562 2.484 . S
Tb537 O563 2.440 . S
Tb537 O564 2.658 . S
Tb537 O565 2.409 . S
Tb537 O566 2.378 . S
C538 Tb536 2.809 . S
C538 C539 1.514 . S
C538 O556 1.248 . S
C538 O557 1.266 . S
C539 C538 1.514 . S
C539 C540 1.359 . S
C539 C544 1.348 . S
C540 C539 1.359 . S
C540 C541 1.380 . S
C540 H568 0.929 . S
C541 C540 1.380 . S
C541 C542 1.347 . S
C541 H569 0.931 . S
C542 C541 1.347 . S
C542 C543 1.369 . S
C543 C542 1.369 . S
C543 C544 1.408 . S
C543 H570 0.930 . S
C544 C539 1.348 . S
C544 C543 1.408 . S
C544 H571 0.930 . S
C545 O558 1.281 . S
C545 O559 1.254 . S
C546 O560 1.236 . S
C546 O561 1.266 . S
C547 Tb537 2.809 . S
C547 C548 1.514 . S
C547 O562 1.248 . S
C547 O563 1.266 . S
C548 C547 1.514 . S
C548 C549 1.359 . S
C548 C553 1.348 . S
C549 C548 1.359 . S
C549 C550 1.380 . S
C549 H572 0.929 . S
C550 C549 1.380 . S
C550 C551 1.347 . S
C550 H573 0.931 . S
C551 C550 1.347 . S
C551 C552 1.369 . S
C552 C551 1.369 . S
C552 C553 1.408 . S
C552 H574 0.930 . S
C553 C548 1.348 . S
C553 C552 1.408 . S
C553 H575 0.930 . S
C554 O564 1.281 . S
C554 O565 1.254 . S
C555 O566 1.236 . S
C555 O567 1.266 . S
O556 Tb536 2.484 . S
O556 C538 1.248 . S
O557 Tb536 2.440 . S
O557 C538 1.266 . S
O558 Tb536 2.658 . S
O558 Tb537 2.325 . S
O558 C545 1.281 . S
O559 Tb536 2.409 . S
O559 C545 1.254 . S
O560 Tb536 2.378 . S
O560 C546 1.236 . S
O561 Tb537 2.341 . S
O561 C546 1.266 . S
O562 Tb537 2.484 . S
O562 C547 1.248 . S
O563 Tb537 2.440 . S
O563 C547 1.266 . S
O564 Tb536 2.325 . S
O564 Tb537 2.658 . S
O564 C554 1.281 . S
O565 Tb537 2.409 . S
O565 C554 1.254 . S
O566 Tb537 2.378 . S
O566 C555 1.236 . S
O567 Tb536 2.341 . S
O567 C555 1.266 . S
H568 C540 0.929 . S
H569 C541 0.931 . S
H570 C543 0.930 . S
H571 C544 0.930 . S
H572 C549 0.929 . S
H573 C550 0.931 . S
H574 C552 0.930 . S
H575 C553 0.930 . S
Tb576 C578 2.809 1_545 S
Tb576 O596 2.484 1_545 S
Tb576 O597 2.440 . S
Tb576 O598 2.658 . S
Tb576 O599 2.409 . S
Tb576 O600 2.378 . S
Tb576 O604 2.325 1_545 S
Tb576 O607 2.341 . S
Tb577 C587 2.809 . S
Tb577 O598 2.325 . S
Tb577 O601 2.341 . S
Tb577 O602 2.484 . S
Tb577 O603 2.440 . S
Tb577 O604 2.658 1_545 S
Tb577 O605 2.409 1_545 S
Tb577 O606 2.378 . S
C578 Tb576 2.809 1_565 S
C578 C579 1.514 . S
C578 O596 1.248 . S
C578 O597 1.266 1_565 S
C579 C578 1.514 . S
C579 C580 1.359 . S
C579 C584 1.391 . S
C580 C579 1.359 . S
C580 C581 1.380 . S
C580 H608 0.929 . S
C581 C580 1.380 . S
C581 C582 1.347 . S
C581 H609 0.931 . S
C582 C581 1.347 . S
C582 C583 1.369 . S
C583 C582 1.369 . S
C583 C584 1.418 . S
C583 H610 0.941 . S
C584 C579 1.391 . S
C584 C583 1.418 . S
C584 H611 0.879 1_565 S
C585 O598 1.281 . S
C585 O599 1.254 . S
C586 O600 1.236 . S
C586 O601 1.266 . S
C587 Tb577 2.809 . S
C587 C588 1.514 . S
C587 O602 1.248 . S
C587 O603 1.266 . S
C588 C587 1.514 . S
C588 C589 1.359 . S
C588 C593 1.348 . S
C589 C588 1.359 . S
C589 C590 1.380 . S
C589 H612 0.929 . S
C590 C589 1.380 . S
C590 C591 1.347 . S
C590 H613 0.931 . S
C591 C590 1.347 . S
C591 C592 1.369 . S
C592 C591 1.369 . S
C592 C593 1.408 . S
C592 H614 0.930 . S
C593 C588 1.348 . S
C593 C592 1.408 . S
C593 H615 0.930 . S
C594 O604 1.281 . S
C594 O605 1.254 . S
C595 O606 1.236 . S
C595 O607 1.266 . S
O596 Tb576 2.484 1_565 S
O596 C578 1.248 . S
O597 Tb576 2.440 . S
O597 C578 1.266 1_545 S
O598 Tb576 2.658 . S
O598 Tb577 2.325 . S
O598 C585 1.281 . S
O599 Tb576 2.409 . S
O599 C585 1.254 . S
O600 Tb576 2.378 . S
O600 C586 1.236 . S
O601 Tb577 2.341 . S
O601 C586 1.266 . S
O602 Tb577 2.484 . S
O602 C587 1.248 . S
O603 Tb577 2.440 . S
O603 C587 1.266 . S
O604 Tb576 2.325 1_565 S
O604 Tb577 2.658 1_565 S
O604 C594 1.281 . S
O605 Tb577 2.409 1_565 S
O605 C594 1.254 . S
O606 Tb577 2.378 . S
O606 C595 1.236 . S
O607 Tb576 2.341 . S
O607 C595 1.266 . S
H608 C580 0.929 . S
H609 C581 0.931 . S
H610 C583 0.941 . S
H611 C584 0.879 1_545 S
H612 C589 0.929 . S
H613 C590 0.931 . S
H614 C592 0.930 . S
H615 C593 0.930 . S
Tb616 C618 2.809 . S
Tb616 O636 2.484 . S
Tb616 O637 2.440 . S
Tb616 O638 2.658 . S
Tb616 O639 2.409 . S
Tb616 O640 2.378 . S
Tb616 O644 2.325 . S
Tb616 O647 2.341 . S
Tb617 C627 2.809 . S
Tb617 O638 2.325 . S
Tb617 O641 2.341 . S
Tb617 O642 2.484 . S
Tb617 O643 2.440 . S
Tb617 O644 2.658 . S
Tb617 O645 2.409 . S
Tb617 O646 2.378 . S
C618 Tb616 2.809 . S
C618 C619 1.514 . S
C618 O636 1.248 . S
C618 O637 1.266 . S
C619 C618 1.514 . S
C619 C620 1.359 . S
C619 C624 1.348 . S
C620 C619 1.359 . S
C620 C621 1.380 . S
C620 H648 0.929 . S
C621 C620 1.380 . S
C621 C622 1.347 . S
C621 H649 0.931 . S
C622 C621 1.347 . S
C622 C623 1.369 . S
C623 C622 1.369 . S
C623 C624 1.408 . S
C623 H650 0.930 . S
C624 C619 1.348 . S
C624 C623 1.408 . S
C624 H651 0.930 . S
C625 O638 1.281 . S
C625 O639 1.254 . S
C626 O640 1.236 . S
C626 O641 1.266 . S
C627 Tb617 2.809 . S
C627 C628 1.514 . S
C627 O642 1.248 . S
C627 O643 1.266 . S
C628 C627 1.514 . S
C628 C629 1.359 . S
C628 C633 1.348 . S
C629 C628 1.359 . S
C629 C630 1.380 . S
C629 H652 0.929 . S
C630 C629 1.380 . S
C630 C631 1.347 . S
C630 H653 0.931 . S
C631 C630 1.347 . S
C631 C632 1.369 . S
C632 C631 1.369 . S
C632 C633 1.408 . S
C632 H654 0.930 . S
C633 C628 1.348 . S
C633 C632 1.408 . S
C633 H655 0.930 . S
C634 O644 1.281 . S
C634 O645 1.254 . S
C635 O646 1.236 . S
C635 O647 1.266 . S
O636 Tb616 2.484 . S
O636 C618 1.248 . S
O637 Tb616 2.440 . S
O637 C618 1.266 . S
O638 Tb616 2.658 . S
O638 Tb617 2.325 . S
O638 C625 1.281 . S
O639 Tb616 2.409 . S
O639 C625 1.254 . S
O640 Tb616 2.378 . S
O640 C626 1.236 . S
O641 Tb617 2.341 . S
O641 C626 1.266 . S
O642 Tb617 2.484 . S
O642 C627 1.248 . S
O643 Tb617 2.440 . S
O643 C627 1.266 . S
O644 Tb616 2.325 . S
O644 Tb617 2.658 . S
O644 C634 1.281 . S
O645 Tb617 2.409 . S
O645 C634 1.254 . S
O646 Tb617 2.378 . S
O646 C635 1.236 . S
O647 Tb616 2.341 . S
O647 C635 1.266 . S
H648 C620 0.929 . S
H649 C621 0.931 . S
H650 C623 0.930 . S
H651 C624 0.930 . S
H652 C629 0.929 . S
H653 C630 0.931 . S
H654 C632 0.930 . S
H655 C633 0.930 . S
Tb656 C658 2.809 . S
Tb656 O676 2.484 . S
Tb656 O677 2.440 . S
Tb656 O678 2.658 . S
Tb656 O679 2.409 . S
Tb656 O680 2.378 . S
Tb656 O684 2.325 . S
Tb656 O687 2.341 . S
Tb657 C667 2.809 . S
Tb657 O678 2.325 . S
Tb657 O681 2.341 . S
Tb657 O682 2.484 . S
Tb657 O683 2.440 . S
Tb657 O684 2.658 . S
Tb657 O685 2.409 . S
Tb657 O686 2.378 . S
C658 Tb656 2.809 . S
C658 C659 1.514 . S
C658 O676 1.248 . S
C658 O677 1.266 . S
C659 C658 1.514 . S
C659 C660 1.359 . S
C659 C664 1.348 . S
C660 C659 1.359 . S
C660 C661 1.380 1_554 S
C660 H688 0.929 . S
C661 C660 1.380 1_556 S
C661 C662 1.347 . S
C661 H689 0.931 . S
C662 C661 1.347 . S
C662 C663 1.369 1_556 S
C663 C662 1.369 1_554 S
C663 C664 1.408 . S
C663 H690 0.930 . S
C664 C659 1.348 . S
C664 C663 1.408 . S
C664 H691 0.930 . S
C665 O678 1.281 . S
C665 O679 1.254 . S
C666 O680 1.236 . S
C666 O681 1.266 . S
C667 Tb657 2.809 . S
C667 C668 1.514 . S
C667 O682 1.248 . S
C667 O683 1.266 . S
C668 C667 1.514 . S
C668 C669 1.359 . S
C668 C673 1.348 . S
C669 C668 1.359 . S
C669 C670 1.380 . S
C669 H692 0.929 . S
C670 C669 1.380 . S
C670 C671 1.347 . S
C670 H693 0.931 . S
C671 C670 1.347 . S
C671 C672 1.369 . S
C672 C671 1.369 . S
C672 C673 1.408 . S
C672 H694 0.930 . S
C673 C668 1.348 . S
C673 C672 1.408 . S
C673 H695 0.930 . S
C674 O684 1.281 . S
C674 O685 1.254 . S
C675 O686 1.236 . S
C675 O687 1.266 . S
O676 Tb656 2.484 . S
O676 C658 1.248 . S
O677 Tb656 2.440 . S
O677 C658 1.266 . S
O678 Tb656 2.658 . S
O678 Tb657 2.325 . S
O678 C665 1.281 . S
O679 Tb656 2.409 . S
O679 C665 1.254 . S
O680 Tb656 2.378 . S
O680 C666 1.236 . S
O681 Tb657 2.341 . S
O681 C666 1.266 . S
O682 Tb657 2.484 . S
O682 C667 1.248 . S
O683 Tb657 2.440 . S
O683 C667 1.266 . S
O684 Tb656 2.325 . S
O684 Tb657 2.658 . S
O684 C674 1.281 . S
O685 Tb657 2.409 . S
O685 C674 1.254 . S
O686 Tb657 2.378 . S
O686 C675 1.236 . S
O687 Tb656 2.341 . S
O687 C675 1.266 . S
H688 C660 0.929 . S
H689 C661 0.931 . S
H690 C663 0.930 . S
H691 C664 0.930 . S
H692 C669 0.929 . S
H693 C670 0.931 . S
H694 C672 0.930 . S
H695 C673 0.930 . S
Tb696 C698 2.809 . S
Tb696 O716 2.484 . S
Tb696 O717 2.440 . S
Tb696 O718 2.658 . S
Tb696 O719 2.409 . S
Tb696 O720 2.378 . S
Tb696 O724 2.325 . S
Tb696 O727 2.341 . S
Tb697 C707 2.809 . S
Tb697 O718 2.325 . S
Tb697 O721 2.341 . S
Tb697 O722 2.484 . S
Tb697 O723 2.440 . S
Tb697 O724 2.658 . S
Tb697 O725 2.409 . S
Tb697 O726 2.378 . S
C698 Tb696 2.809 . S
C698 C699 1.514 . S
C698 O716 1.248 . S
C698 O717 1.266 . S
C699 C698 1.514 . S
C699 C700 1.359 . S
C699 C704 1.348 . S
C700 C699 1.359 . S
C700 C701 1.380 . S
C700 H728 0.929 . S
C701 C700 1.380 . S
C701 C702 1.347 . S
C701 H729 0.931 . S
C702 C701 1.347 . S
C702 C703 1.369 . S
C703 C702 1.369 . S
C703 C704 1.408 . S
C703 H730 0.930 . S
C704 C699 1.348 . S
C704 C703 1.408 . S
C704 H731 0.930 . S
C705 O718 1.281 . S
C705 O719 1.254 . S
C706 O720 1.236 . S
C706 O721 1.266 . S
C707 Tb697 2.809 . S
C707 C708 1.514 . S
C707 O722 1.248 . S
C707 O723 1.266 . S
C708 C707 1.514 . S
C708 C709 1.359 . S
C708 C713 1.348 . S
C709 C708 1.359 . S
C709 C710 1.380 . S
C709 H732 0.929 . S
C710 C709 1.380 . S
C710 C711 1.347 . S
C710 H733 0.931 . S
C711 C710 1.347 . S
C711 C712 1.369 . S
C712 C711 1.369 . S
C712 C713 1.408 . S
C712 H734 0.930 . S
C713 C708 1.348 . S
C713 C712 1.408 . S
C713 H735 0.930 . S
C714 O724 1.281 . S
C714 O725 1.254 . S
C715 O726 1.236 . S
C715 O727 1.266 . S
O716 Tb696 2.484 . S
O716 C698 1.248 . S
O717 Tb696 2.440 . S
O717 C698 1.266 . S
O718 Tb696 2.658 . S
O718 Tb697 2.325 . S
O718 C705 1.281 . S
O719 Tb696 2.409 . S
O719 C705 1.254 . S
O720 Tb696 2.378 . S
O720 C706 1.236 . S
O721 Tb697 2.341 . S
O721 C706 1.266 . S
O722 Tb697 2.484 . S
O722 C707 1.248 . S
O723 Tb697 2.440 . S
O723 C707 1.266 . S
O724 Tb696 2.325 . S
O724 Tb697 2.658 . S
O724 C714 1.281 . S
O725 Tb697 2.409 . S
O725 C714 1.254 . S
O726 Tb697 2.378 . S
O726 C715 1.236 . S
O727 Tb696 2.341 . S
O727 C715 1.266 . S
H728 C700 0.929 . S
H729 C701 0.931 . S
H730 C703 0.930 . S
H731 C704 0.930 . S
H732 C709 0.929 . S
H733 C710 0.931 . S
H734 C712 0.930 . S
H735 C713 0.930 . S
Tb736 C738 2.809 1_455 S
Tb736 O756 2.484 1_455 S
Tb736 O757 2.440 1_455 S
Tb736 O758 2.658 . S
Tb736 O759 2.409 . S
Tb736 O760 2.378 . S
Tb736 O764 2.325 . S
Tb736 O767 2.341 . S
Tb737 C747 2.809 . S
Tb737 O758 2.325 . S
Tb737 O761 2.341 . S
Tb737 O762 2.484 . S
Tb737 O763 2.440 . S
Tb737 O764 2.658 . S
Tb737 O765 2.409 . S
Tb737 O766 2.378 . S
C738 Tb736 2.809 1_655 S
C738 C739 1.514 . S
C738 O756 1.248 . S
C738 O757 1.266 . S
C739 C738 1.514 . S
C739 C740 1.359 . S
C739 C744 1.348 . S
C740 C739 1.359 . S
C740 C741 1.380 . S
C740 H768 0.929 . S
C741 C740 1.380 . S
C741 C742 1.347 . S
C741 H769 0.931 . S
C742 C741 1.347 . S
C742 C743 1.369 . S
C743 C742 1.369 . S
C743 C744 1.408 . S
C743 H770 0.930 . S
C744 C739 1.348 . S
C744 C743 1.408 . S
C744 H771 0.930 . S
C745 O758 1.281 . S
C745 O759 1.254 . S
C746 O760 1.236 . S
C746 O761 1.266 . S
C747 Tb737 2.809 . S
C747 C748 1.514 . S
C747 O762 1.248 . S
C747 O763 1.266 . S
C748 C747 1.514 . S
C748 C749 1.359 . S
C748 C753 1.348 . S
C749 C748 1.359 . S
C749 C750 1.380 . S
C749 H772 0.929 . S
C750 C749 1.380 . S
C750 C751 1.347 . S
C750 H773 0.931 . S
C751 C750 1.347 . S
C751 C752 1.369 . S
C752 C751 1.369 . S
C752 C753 1.408 . S
C752 H774 0.930 . S
C753 C748 1.348 . S
C753 C752 1.408 . S
C753 H775 0.930 . S
C754 O764 1.281 . S
C754 O765 1.254 . S
C755 O766 1.236 . S
C755 O767 1.266 . S
O756 Tb736 2.484 1_655 S
O756 C738 1.248 . S
O757 Tb736 2.440 1_655 S
O757 C738 1.266 . S
O758 Tb736 2.658 . S
O758 Tb737 2.325 . S
O758 C745 1.281 . S
O759 Tb736 2.409 . S
O759 C745 1.254 . S
O760 Tb736 2.378 . S
O760 C746 1.236 . S
O761 Tb737 2.341 . S
O761 C746 1.266 . S
O762 Tb737 2.484 . S
O762 C747 1.248 . S
O763 Tb737 2.440 . S
O763 C747 1.266 . S
O764 Tb736 2.325 . S
O764 Tb737 2.658 . S
O764 C754 1.281 . S
O765 Tb737 2.409 . S
O765 C754 1.254 . S
O766 Tb737 2.378 . S
O766 C755 1.236 . S
O767 Tb736 2.341 . S
O767 C755 1.266 . S
H768 C740 0.929 . S
H769 C741 0.931 . S
H770 C743 0.930 . S
H771 C744 0.930 . S
H772 C749 0.929 . S
H773 C750 0.931 . S
H774 C752 0.930 . S
H775 C753 0.930 . S
Tb776 C778 2.809 . S
Tb776 O796 2.484 . S
Tb776 O797 2.440 . S
Tb776 O798 2.658 . S
Tb776 O799 2.409 . S
Tb776 O800 2.378 . S
Tb776 O804 2.325 . S
Tb776 O807 2.341 . S
Tb777 C787 2.809 . S
Tb777 O798 2.325 . S
Tb777 O801 2.341 . S
Tb777 O802 2.484 . S
Tb777 O803 2.440 . S
Tb777 O804 2.658 . S
Tb777 O805 2.409 . S
Tb777 O806 2.378 . S
C778 Tb776 2.809 . S
C778 C779 1.514 . S
C778 O796 1.248 . S
C778 O797 1.266 . S
C779 C778 1.514 . S
C779 C780 1.359 . S
C779 C784 1.348 . S
C780 C779 1.359 . S
C780 C781 1.380 . S
C780 H808 0.929 . S
C781 C780 1.380 . S
C781 C782 1.347 . S
C781 H809 0.931 . S
C782 C781 1.347 . S
C782 C783 1.369 . S
C783 C782 1.369 . S
C783 C784 1.408 . S
C783 H810 0.930 . S
C784 C779 1.348 . S
C784 C783 1.408 . S
C784 H811 0.930 . S
C785 O798 1.281 . S
C785 O799 1.254 . S
C786 O800 1.236 . S
C786 O801 1.266 . S
C787 Tb777 2.809 . S
C787 C788 1.514 . S
C787 O802 1.248 . S
C787 O803 1.266 . S
C788 C787 1.514 . S
C788 C789 1.359 . S
C788 C793 1.348 . S
C789 C788 1.359 . S
C789 C790 1.380 . S
C789 H812 0.929 . S
C790 C789 1.380 . S
C790 C791 1.347 . S
C790 H813 0.931 . S
C791 C790 1.347 . S
C791 C792 1.369 . S
C792 C791 1.369 . S
C792 C793 1.408 . S
C792 H814 0.930 . S
C793 C788 1.348 . S
C793 C792 1.408 . S
C793 H815 0.930 . S
C794 O804 1.281 . S
C794 O805 1.254 . S
C795 O806 1.236 . S
C795 O807 1.266 . S
O796 Tb776 2.484 . S
O796 C778 1.248 . S
O797 Tb776 2.440 . S
O797 C778 1.266 . S
O798 Tb776 2.658 . S
O798 Tb777 2.325 . S
O798 C785 1.281 . S
O799 Tb776 2.409 . S
O799 C785 1.254 . S
O800 Tb776 2.378 . S
O800 C786 1.236 . S
O801 Tb777 2.341 . S
O801 C786 1.266 . S
O802 Tb777 2.484 . S
O802 C787 1.248 . S
O803 Tb777 2.440 . S
O803 C787 1.266 . S
O804 Tb776 2.325 . S
O804 Tb777 2.658 . S
O804 C794 1.281 . S
O805 Tb777 2.409 . S
O805 C794 1.254 . S
O806 Tb777 2.378 . S
O806 C795 1.236 . S
O807 Tb776 2.341 . S
O807 C795 1.266 . S
H808 C780 0.929 . S
H809 C781 0.931 . S
H810 C783 0.930 . S
H811 C784 0.930 . S
H812 C789 0.929 . S
H813 C790 0.931 . S
H814 C792 0.930 . S
H815 C793 0.930 . S
Tb816 C818 2.809 . S
Tb816 O836 2.484 . S
Tb816 O837 2.440 . S
Tb816 O838 2.658 . S
Tb816 O839 2.409 . S
Tb816 O840 2.378 . S
Tb816 O844 2.325 . S
Tb816 O847 2.341 . S
Tb817 C827 2.809 . S
Tb817 O838 2.325 . S
Tb817 O841 2.341 . S
Tb817 O842 2.484 . S
Tb817 O843 2.440 . S
Tb817 O844 2.658 . S
Tb817 O845 2.409 . S
Tb817 O846 2.378 . S
C818 Tb816 2.809 . S
C818 C819 1.514 . S
C818 O836 1.248 . S
C818 O837 1.266 . S
C819 C818 1.514 . S
C819 C820 1.359 . S
C819 C824 1.348 . S
C820 C819 1.359 . S
C820 C821 1.380 . S
C820 H848 0.929 . S
C821 C820 1.380 . S
C821 C822 1.347 . S
C821 H849 0.931 . S
C822 C821 1.347 . S
C822 C823 1.369 . S
C823 C822 1.369 . S
C823 C824 1.408 . S
C823 H850 0.930 . S
C824 C819 1.348 . S
C824 C823 1.408 . S
C824 H851 0.930 . S
C825 O838 1.281 . S
C825 O839 1.254 . S
C826 O840 1.236 . S
C826 O841 1.266 . S
C827 Tb817 2.809 . S
C827 C828 1.514 . S
C827 O842 1.248 . S
C827 O843 1.266 . S
C828 C827 1.514 . S
C828 C829 1.359 . S
C828 C833 1.348 . S
C829 C828 1.359 . S
C829 C830 1.380 . S
C829 H852 0.929 . S
C830 C829 1.380 . S
C830 C831 1.347 . S
C830 H853 0.931 . S
C831 C830 1.347 . S
C831 C832 1.369 . S
C832 C831 1.369 . S
C832 C833 1.408 . S
C832 H854 0.930 . S
C833 C828 1.348 . S
C833 C832 1.408 . S
C833 H855 0.930 . S
C834 O844 1.281 . S
C834 O845 1.254 . S
C835 O846 1.236 . S
C835 O847 1.266 . S
O836 Tb816 2.484 . S
O836 C818 1.248 . S
O837 Tb816 2.440 . S
O837 C818 1.266 . S
O838 Tb816 2.658 . S
O838 Tb817 2.325 . S
O838 C825 1.281 . S
O839 Tb816 2.409 . S
O839 C825 1.254 . S
O840 Tb816 2.378 . S
O840 C826 1.236 . S
O841 Tb817 2.341 . S
O841 C826 1.266 . S
O842 Tb817 2.484 . S
O842 C827 1.248 . S
O843 Tb817 2.440 . S
O843 C827 1.266 . S
O844 Tb816 2.325 . S
O844 Tb817 2.658 . S
O844 C834 1.281 . S
O845 Tb817 2.409 . S
O845 C834 1.254 . S
O846 Tb817 2.378 . S
O846 C835 1.236 . S
O847 Tb816 2.341 . S
O847 C835 1.266 . S
H848 C820 0.929 . S
H849 C821 0.931 . S
H850 C823 0.930 . S
H851 C824 0.930 . S
H852 C829 0.929 . S
H853 C830 0.931 . S
H854 C832 0.930 . S
H855 C833 0.930 . S
Tb856 C858 2.809 . S
Tb856 O876 2.484 . S
Tb856 O877 2.440 . S
Tb856 O878 2.658 . S
Tb856 O879 2.409 . S
Tb856 O880 2.378 . S
Tb856 O884 2.325 . S
Tb856 O887 2.341 . S
Tb857 C867 2.809 . S
Tb857 O878 2.325 . S
Tb857 O881 2.341 . S
Tb857 O882 2.484 . S
Tb857 O883 2.440 . S
Tb857 O884 2.658 . S
Tb857 O885 2.409 . S
Tb857 O886 2.378 . S
C858 Tb856 2.809 . S
C858 C859 1.514 . S
C858 O876 1.248 . S
C858 O877 1.266 . S
C859 C858 1.514 . S
C859 C860 1.359 . S
C859 C864 1.348 . S
C860 C859 1.359 . S
C860 C861 1.380 . S
C860 H888 0.929 . S
C861 C860 1.380 . S
C861 C862 1.347 . S
C861 H889 0.931 . S
C862 C861 1.347 . S
C862 C863 1.369 . S
C863 C862 1.369 . S
C863 C864 1.408 . S
C863 H890 0.930 . S
C864 C859 1.348 . S
C864 C863 1.408 . S
C864 H891 0.930 . S
C865 O878 1.281 . S
C865 O879 1.254 . S
C866 O880 1.236 . S
C866 O881 1.266 . S
C867 Tb857 2.809 . S
C867 C868 1.514 . S
C867 O882 1.248 . S
C867 O883 1.266 . S
C868 C867 1.514 . S
C868 C869 1.359 . S
C868 C873 1.348 . S
C869 C868 1.359 . S
C869 C870 1.380 . S
C869 H892 0.929 . S
C870 C869 1.380 . S
C870 C871 1.347 . S
C870 H893 0.931 . S
C871 C870 1.347 . S
C871 C872 1.369 . S
C872 C871 1.369 . S
C872 C873 1.408 . S
C872 H894 0.930 . S
C873 C868 1.348 . S
C873 C872 1.408 . S
C873 H895 0.930 . S
C874 O884 1.281 . S
C874 O885 1.254 . S
C875 O886 1.236 . S
C875 O887 1.266 . S
O876 Tb856 2.484 . S
O876 C858 1.248 . S
O877 Tb856 2.440 . S
O877 C858 1.266 . S
O878 Tb856 2.658 . S
O878 Tb857 2.325 . S
O878 C865 1.281 . S
O879 Tb856 2.409 . S
O879 C865 1.254 . S
O880 Tb856 2.378 . S
O880 C866 1.236 . S
O881 Tb857 2.341 . S
O881 C866 1.266 . S
O882 Tb857 2.484 . S
O882 C867 1.248 . S
O883 Tb857 2.440 . S
O883 C867 1.266 . S
O884 Tb856 2.325 . S
O884 Tb857 2.658 . S
O884 C874 1.281 . S
O885 Tb857 2.409 . S
O885 C874 1.254 . S
O886 Tb857 2.378 . S
O886 C875 1.236 . S
O887 Tb856 2.341 . S
O887 C875 1.266 . S
H888 C860 0.929 . S
H889 C861 0.931 . S
H890 C863 0.930 . S
H891 C864 0.930 . S
H892 C869 0.929 . S
H893 C870 0.931 . S
H894 C872 0.930 . S
H895 C873 0.930 . S
Tb896 C898 2.809 . S
Tb896 O916 2.484 . S
Tb896 O917 2.440 . S
Tb896 O918 2.658 . S
Tb896 O919 2.409 . S
Tb896 O920 2.378 . S
Tb896 O924 2.325 . S
Tb896 O927 2.341 . S
Tb897 C907 2.809 . S
Tb897 O918 2.325 . S
Tb897 O921 2.341 . S
Tb897 O922 2.484 . S
Tb897 O923 2.440 . S
Tb897 O924 2.658 . S
Tb897 O925 2.409 . S
Tb897 O926 2.378 . S
C898 Tb896 2.809 . S
C898 C899 1.514 . S
C898 O916 1.248 . S
C898 O917 1.266 . S
C899 C898 1.514 . S
C899 C900 1.359 . S
C899 C904 1.348 . S
C900 C899 1.359 . S
C900 C901 1.380 . S
C900 H928 0.929 . S
C901 C900 1.380 . S
C901 C902 1.347 . S
C901 H929 0.931 . S
C902 C901 1.347 . S
C902 C903 1.369 . S
C903 C902 1.369 . S
C903 C904 1.408 . S
C903 H930 0.930 . S
C904 C899 1.348 . S
C904 C903 1.408 . S
C904 H931 0.930 . S
C905 O918 1.281 . S
C905 O919 1.254 . S
C906 O920 1.236 . S
C906 O921 1.266 . S
C907 Tb897 2.809 . S
C907 C908 1.514 . S
C907 O922 1.248 . S
C907 O923 1.266 . S
C908 C907 1.514 . S
C908 C909 1.359 . S
C908 C913 1.348 . S
C909 C908 1.359 . S
C909 C910 1.380 . S
C909 H932 0.929 . S
C910 C909 1.380 . S
C910 C911 1.347 . S
C910 H933 0.931 . S
C911 C910 1.347 . S
C911 C912 1.369 . S
C912 C911 1.369 . S
C912 C913 1.408 . S
C912 H934 0.930 . S
C913 C908 1.348 . S
C913 C912 1.408 . S
C913 H935 0.930 . S
C914 O924 1.281 . S
C914 O925 1.254 . S
C915 O926 1.236 . S
C915 O927 1.266 . S
O916 Tb896 2.484 . S
O916 C898 1.248 . S
O917 Tb896 2.440 . S
O917 C898 1.266 . S
O918 Tb896 2.658 . S
O918 Tb897 2.325 . S
O918 C905 1.281 . S
O919 Tb896 2.409 . S
O919 C905 1.254 . S
O920 Tb896 2.378 . S
O920 C906 1.236 . S
O921 Tb897 2.341 . S
O921 C906 1.266 . S
O922 Tb897 2.484 . S
O922 C907 1.248 . S
O923 Tb897 2.440 . S
O923 C907 1.266 . S
O924 Tb896 2.325 . S
O924 Tb897 2.658 . S
O924 C914 1.281 . S
O925 Tb897 2.409 . S
O925 C914 1.254 . S
O926 Tb897 2.378 . S
O926 C915 1.236 . S
O927 Tb896 2.341 . S
O927 C915 1.266 . S
H928 C900 0.929 . S
H929 C901 0.931 . S
H930 C903 0.930 . S
H931 C904 0.930 . S
H932 C909 0.929 . S
H933 C910 0.931 . S
H934 C912 0.930 . S
H935 C913 0.930 . S
Tb936 C938 2.809 . S
Tb936 O956 2.484 . S
Tb936 O957 2.440 . S
Tb936 O958 2.658 . S
Tb936 O959 2.409 . S
Tb936 O960 2.378 . S
Tb936 O964 2.325 . S
Tb936 O967 2.341 . S
Tb937 C947 2.809 1_455 S
Tb937 O958 2.325 . S
Tb937 O961 2.341 . S
Tb937 O962 2.484 1_455 S
Tb937 O963 2.440 1_455 S
Tb937 O964 2.658 . S
Tb937 O965 2.409 . S
Tb937 O966 2.378 . S
C938 Tb936 2.809 . S
C938 C939 1.514 . S
C938 O956 1.248 . S
C938 O957 1.266 . S
C939 C938 1.514 . S
C939 C940 1.359 . S
C939 C944 1.348 . S
C940 C939 1.359 . S
C940 C941 1.380 . S
C940 H968 0.929 . S
C941 C940 1.380 . S
C941 C942 1.347 . S
C941 H969 0.931 . S
C942 C941 1.347 . S
C942 C943 1.369 . S
C943 C942 1.369 . S
C943 C944 1.408 . S
C943 H970 0.930 . S
C944 C939 1.348 . S
C944 C943 1.408 . S
C944 H971 0.930 . S
C945 O958 1.281 . S
C945 O959 1.254 . S
C946 O960 1.236 . S
C946 O961 1.266 . S
C947 Tb937 2.809 1_655 S
C947 C948 1.514 . S
C947 O962 1.248 . S
C947 O963 1.266 . S
C948 C947 1.514 . S
C948 C949 1.359 . S
C948 C953 1.348 . S
C949 C948 1.359 . S
C949 C950 1.380 . S
C949 H972 0.929 . S
C950 C949 1.380 . S
C950 C951 1.347 . S
C950 H973 0.931 . S
C951 C950 1.347 . S
C951 C952 1.369 . S
C952 C951 1.369 . S
C952 C953 1.408 . S
C952 H974 0.930 . S
C953 C948 1.348 . S
C953 C952 1.408 . S
C953 H975 0.930 . S
C954 O964 1.281 . S
C954 O965 1.254 . S
C955 O966 1.236 . S
C955 O967 1.266 . S
O956 Tb936 2.484 . S
O956 C938 1.248 . S
O957 Tb936 2.440 . S
O957 C938 1.266 . S
O958 Tb936 2.658 . S
O958 Tb937 2.325 . S
O958 C945 1.281 . S
O959 Tb936 2.409 . S
O959 C945 1.254 . S
O960 Tb936 2.378 . S
O960 C946 1.236 . S
O961 Tb937 2.341 . S
O961 C946 1.266 . S
O962 Tb937 2.484 1_655 S
O962 C947 1.248 . S
O963 Tb937 2.440 1_655 S
O963 C947 1.266 . S
O964 Tb936 2.325 . S
O964 Tb937 2.658 . S
O964 C954 1.281 . S
O965 Tb937 2.409 . S
O965 C954 1.254 . S
O966 Tb937 2.378 . S
O966 C955 1.236 . S
O967 Tb936 2.341 . S
O967 C955 1.266 . S
H968 C940 0.929 . S
H969 C941 0.931 . S
H970 C943 0.930 . S
H971 C944 0.930 . S
H972 C949 0.929 . S
H973 C950 0.931 . S
H974 C952 0.930 . S
H975 C953 0.930 . S
H976 C994 0.951 . S
H977 C996 0.907 1_655 S
H978 C998 0.950 . S
H979 C999 0.950 . S
H980 C1001 0.950 . S
H981 C1004 0.950 . S
H982 C1005 0.950 . S
H983 C1007 0.950 . S
H984 C1008 0.950 1_556 S
H985 C1009 0.951 . S
H986 C1011 0.951 . S
H987 C1013 1.011 . S
H988 C1014 0.950 . S
H989 C1016 0.950 . S
H990 C1019 0.950 . S
H991 C1020 0.950 . S
H992 C1022 0.950 . S
H993 C1023 0.950 . S
C994 H976 0.951 . S
C994 C995 1.366 1_655 S
C994 C996 1.372 1_655 S
C995 C994 1.366 1_455 S
C995 C999 1.385 . S
C996 H977 0.907 1_455 S
C996 C994 1.372 1_455 S
C996 C997 1.428 . S
C997 C996 1.428 . S
C997 C998 1.414 . S
C997 C1000 1.499 . S
C998 H978 0.950 . S
C998 C997 1.414 . S
C998 C999 1.374 . S
C999 H979 0.950 . S
C999 C995 1.385 . S
C999 C998 1.374 . S
C1000 C997 1.499 . S
C1000 C1001 1.373 . S
C1000 C1002 1.389 . S
C1001 H980 0.950 . S
C1001 C1000 1.373 . S
C1001 C1017 1.377 . S
C1002 C1000 1.389 . S
C1002 C1003 1.524 1_456 S
C1002 C1016 1.377 1_556 S
C1003 C1002 1.524 1_654 S
C1003 C1004 1.397 1_655 S
C1003 C1008 1.363 . S
C1004 H981 0.950 . S
C1004 C1003 1.397 1_455 S
C1004 C1005 1.334 1_455 S
C1005 H982 0.950 . S
C1005 C1004 1.334 1_655 S
C1005 C1006 1.287 . S
C1006 C1005 1.287 . S
C1006 C1007 1.524 . S
C1006 H1025 0.913 . S
C1007 H983 0.950 . S
C1007 C1006 1.524 . S
C1007 C1008 1.415 . S
C1008 H984 0.950 1_554 S
C1008 C1003 1.363 . S
C1008 C1007 1.415 . S
C1009 H985 0.951 . S
C1009 C1010 1.366 . S
C1009 C1011 1.388 . S
C1010 C1009 1.366 . S
C1010 C1014 1.385 . S
C1011 H986 0.951 . S
C1011 C1009 1.388 . S
C1011 C1012 1.366 . S
C1012 C1011 1.366 . S
C1012 C1013 1.414 . S
C1012 C1015 1.499 . S
C1013 H987 1.011 . S
C1013 C1012 1.414 . S
C1013 C1014 1.374 . S
C1014 H988 0.950 . S
C1014 C1010 1.385 . S
C1014 C1013 1.374 . S
C1015 C1012 1.499 . S
C1015 C1016 1.373 . S
C1015 C1017 1.389 1_554 S
C1016 H989 0.950 . S
C1016 C1002 1.377 1_554 S
C1016 C1015 1.373 . S
C1017 C1001 1.377 . S
C1017 C1015 1.389 1_556 S
C1017 C1018 1.524 . S
C1018 C1017 1.524 . S
C1018 C1019 1.397 . S
C1018 C1023 1.363 . S
C1019 H990 0.950 . S
C1019 C1018 1.397 . S
C1019 C1020 1.334 . S
C1020 H991 0.950 . S
C1020 C1019 1.334 . S
C1020 C1021 1.287 . S
C1021 C1020 1.287 . S
C1021 C1022 1.524 . S
C1021 H1024 0.999 . S
C1022 H992 0.950 . S
C1022 C1021 1.524 . S
C1022 C1023 1.415 . S
C1023 H993 0.950 . S
C1023 C1018 1.363 . S
C1023 C1022 1.415 . S
H1024 C1021 0.999 . S
H1025 C1006 0.913 . S
H1026 C1044 0.951 . S
H1027 C1046 0.951 . S
H1028 C1048 0.950 . S
H1029 C1049 0.950 . S
H1030 C1051 0.950 . S
H1031 C1054 0.950 . S
H1032 C1055 0.950 . S
H1033 C1057 0.950 . S
H1034 C1058 0.950 . S
H1035 C1059 0.951 . S
H1036 C1061 0.951 . S
H1037 C1063 0.950 . S
H1038 C1064 0.950 . S
H1039 C1066 0.950 . S
H1040 C1069 0.950 . S
H1041 C1070 0.950 . S
H1042 C1072 0.950 . S
H1043 C1073 0.950 . S
C1044 H1026 0.951 . S
C1044 C1045 1.366 . S
C1044 C1046 1.388 . S
C1045 C1044 1.366 . S
C1045 C1049 1.385 . S
C1046 H1027 0.951 . S
C1046 C1044 1.388 . S
C1046 C1047 1.366 . S
C1047 C1046 1.366 . S
C1047 C1048 1.414 . S
C1047 C1050 1.499 . S
C1048 H1028 0.950 . S
C1048 C1047 1.414 . S
C1048 C1049 1.374 . S
C1049 H1029 0.950 . S
C1049 C1045 1.385 . S
C1049 C1048 1.374 . S
C1050 C1047 1.499 . S
C1050 C1051 1.373 . S
C1050 C1052 1.389 . S
C1051 H1030 0.950 . S
C1051 C1050 1.373 . S
C1051 C1067 1.377 . S
C1052 C1050 1.389 . S
C1052 C1053 1.524 . S
C1052 C1066 1.377 . S
C1053 C1052 1.524 . S
C1053 C1054 1.397 . S
C1053 C1058 1.363 . S
C1054 H1031 0.950 . S
C1054 C1053 1.397 . S
C1054 C1055 1.334 . S
C1055 H1032 0.950 . S
C1055 C1054 1.334 . S
C1055 C1056 1.287 . S
C1056 C1055 1.287 . S
C1056 C1057 1.524 . S
C1056 H1075 0.913 . S
C1057 H1033 0.950 . S
C1057 C1056 1.524 . S
C1057 C1058 1.415 . S
C1058 H1034 0.950 . S
C1058 C1053 1.363 . S
C1058 C1057 1.415 . S
C1059 H1035 0.951 . S
C1059 C1060 1.366 . S
C1059 C1061 1.388 . S
C1060 C1059 1.366 . S
C1060 C1064 1.385 . S
C1061 H1036 0.951 . S
C1061 C1059 1.388 . S
C1061 C1062 1.366 . S
C1062 C1061 1.366 . S
C1062 C1063 1.414 . S
C1062 C1065 1.499 . S
C1063 H1037 0.950 . S
C1063 C1062 1.414 . S
C1063 C1064 1.374 . S
C1064 H1038 0.950 . S
C1064 C1060 1.385 . S
C1064 C1063 1.374 . S
C1065 C1062 1.499 . S
C1065 C1066 1.373 . S
C1065 C1067 1.389 . S
C1066 H1039 0.950 . S
C1066 C1052 1.377 . S
C1066 C1065 1.373 . S
C1067 C1051 1.377 . S
C1067 C1065 1.389 . S
C1067 C1068 1.524 . S
C1068 C1067 1.524 . S
C1068 C1069 1.397 . S
C1068 C1073 1.363 . S
C1069 H1040 0.950 . S
C1069 C1068 1.397 . S
C1069 C1070 1.334 . S
C1070 H1041 0.950 . S
C1070 C1069 1.334 . S
C1070 C1071 1.287 . S
C1071 C1070 1.287 . S
C1071 C1072 1.524 . S
C1071 H1074 0.999 . S
C1072 H1042 0.950 . S
C1072 C1071 1.524 . S
C1072 C1073 1.415 . S
C1073 H1043 0.950 . S
C1073 C1068 1.363 . S
C1073 C1072 1.415 . S
H1074 C1071 0.999 . S
H1075 C1056 0.913 . S
H1076 C1094 0.951 . S
H1077 C1096 0.951 . S
H1078 C1098 0.950 . S
H1079 C1099 0.950 . S
H1080 C1101 0.950 . S
H1081 C1104 0.950 . S
H1082 C1105 0.950 . S
H1083 C1107 0.950 . S
H1084 C1108 0.950 . S
H1085 C1109 0.951 . S
H1086 C1111 0.951 . S
H1087 C1113 0.950 . S
H1088 C1114 0.950 . S
H1089 C1116 0.950 . S
H1090 C1119 0.950 . S
H1091 C1120 0.950 . S
H1092 C1122 0.950 . S
H1093 C1123 0.950 . S
C1094 H1076 0.951 . S
C1094 C1095 1.366 . S
C1094 C1096 1.388 . S
C1095 C1094 1.366 . S
C1095 C1099 1.385 . S
C1096 H1077 0.951 . S
C1096 C1094 1.388 . S
C1096 C1097 1.366 . S
C1097 C1096 1.366 . S
C1097 C1098 1.414 . S
C1097 C1100 1.499 . S
C1098 H1078 0.950 . S
C1098 C1097 1.414 . S
C1098 C1099 1.374 . S
C1099 H1079 0.950 . S
C1099 C1095 1.385 . S
C1099 C1098 1.374 . S
C1100 C1097 1.499 . S
C1100 C1101 1.373 . S
C1100 C1102 1.389 . S
C1101 H1080 0.950 . S
C1101 C1100 1.373 . S
C1101 C1117 1.377 . S
C1102 C1100 1.389 . S
C1102 C1103 1.524 . S
C1102 C1116 1.377 . S
C1103 C1102 1.524 . S
C1103 C1104 1.397 . S
C1103 C1108 1.363 . S
C1104 H1081 0.950 . S
C1104 C1103 1.397 . S
C1104 C1105 1.334 . S
C1105 H1082 0.950 . S
C1105 C1104 1.334 . S
C1105 C1106 1.287 . S
C1106 C1105 1.287 . S
C1106 C1107 1.524 . S
C1106 H1125 0.913 . S
C1107 H1083 0.950 . S
C1107 C1106 1.524 . S
C1107 C1108 1.415 . S
C1108 H1084 0.950 . S
C1108 C1103 1.363 . S
C1108 C1107 1.415 . S
C1109 H1085 0.951 . S
C1109 C1110 1.366 . S
C1109 C1111 1.388 . S
C1110 C1109 1.366 . S
C1110 C1114 1.385 . S
C1111 H1086 0.951 . S
C1111 C1109 1.388 . S
C1111 C1112 1.366 . S
C1112 C1111 1.366 . S
C1112 C1113 1.414 . S
C1112 C1115 1.499 . S
C1113 H1087 0.950 . S
C1113 C1112 1.414 . S
C1113 C1114 1.374 . S
C1114 H1088 0.950 . S
C1114 C1110 1.385 . S
C1114 C1113 1.374 . S
C1115 C1112 1.499 . S
C1115 C1116 1.373 . S
C1115 C1117 1.389 . S
C1116 H1089 0.950 . S
C1116 C1102 1.377 . S
C1116 C1115 1.373 . S
C1117 C1101 1.377 . S
C1117 C1115 1.389 . S
C1117 C1118 1.524 . S
C1118 C1117 1.524 . S
C1118 C1119 1.397 . S
C1118 C1123 1.363 . S
C1119 H1090 0.950 . S
C1119 C1118 1.397 . S
C1119 C1120 1.334 . S
C1120 H1091 0.950 . S
C1120 C1119 1.334 . S
C1120 C1121 1.287 . S
C1121 C1120 1.287 . S
C1121 C1122 1.524 . S
C1121 H1124 0.999 . S
C1122 H1092 0.950 . S
C1122 C1121 1.524 . S
C1122 C1123 1.415 . S
C1123 H1093 0.950 . S
C1123 C1118 1.363 . S
C1123 C1122 1.415 . S
H1124 C1121 0.999 . S
H1125 C1106 0.913 . S
H1126 C1144 0.951 . S
H1127 C1146 0.951 . S
H1128 C1148 0.950 . S
H1129 C1149 0.950 . S
H1130 C1151 0.950 . S
H1131 C1154 0.950 . S
H1132 C1155 0.950 . S
H1133 C1157 0.950 . S
H1134 C1158 0.950 . S
H1135 C1159 0.951 . S
H1136 C1161 0.951 . S
H1137 C1163 0.950 . S
H1138 C1164 0.950 . S
H1139 C1166 0.950 . S
H1140 C1169 0.950 . S
H1141 C1170 0.950 . S
H1142 C1172 0.950 . S
H1143 C1173 0.950 . S
C1144 H1126 0.951 . S
C1144 C1145 1.366 . S
C1144 C1146 1.388 . S
C1145 C1144 1.366 . S
C1145 C1149 1.385 . S
C1146 H1127 0.951 . S
C1146 C1144 1.388 . S
C1146 C1147 1.366 . S
C1147 C1146 1.366 . S
C1147 C1148 1.414 . S
C1147 C1150 1.499 . S
C1148 H1128 0.950 . S
C1148 C1147 1.414 . S
C1148 C1149 1.374 . S
C1149 H1129 0.950 . S
C1149 C1145 1.385 . S
C1149 C1148 1.374 . S
C1150 C1147 1.499 . S
C1150 C1151 1.373 . S
C1150 C1152 1.389 . S
C1151 H1130 0.950 . S
C1151 C1150 1.373 . S
C1151 C1167 1.377 . S
C1152 C1150 1.389 . S
C1152 C1153 1.524 . S
C1152 C1166 1.377 . S
C1153 C1152 1.524 . S
C1153 C1154 1.397 . S
C1153 C1158 1.363 . S
C1154 H1131 0.950 . S
C1154 C1153 1.397 . S
C1154 C1155 1.334 . S
C1155 H1132 0.950 . S
C1155 C1154 1.334 . S
C1155 C1156 1.287 . S
C1156 C1155 1.287 . S
C1156 C1157 1.524 . S
C1156 H1175 0.913 . S
C1157 H1133 0.950 . S
C1157 C1156 1.524 . S
C1157 C1158 1.415 . S
C1158 H1134 0.950 . S
C1158 C1153 1.363 . S
C1158 C1157 1.415 . S
C1159 H1135 0.951 . S
C1159 C1160 1.366 . S
C1159 C1161 1.388 . S
C1160 C1159 1.366 . S
C1160 C1164 1.385 . S
C1161 H1136 0.951 . S
C1161 C1159 1.388 . S
C1161 C1162 1.366 . S
C1162 C1161 1.366 . S
C1162 C1163 1.414 . S
C1162 C1165 1.499 . S
C1163 H1137 0.950 . S
C1163 C1162 1.414 . S
C1163 C1164 1.374 . S
C1164 H1138 0.950 . S
C1164 C1160 1.385 . S
C1164 C1163 1.374 . S
C1165 C1162 1.499 . S
C1165 C1166 1.373 . S
C1165 C1167 1.389 . S
C1166 H1139 0.950 . S
C1166 C1152 1.377 . S
C1166 C1165 1.373 . S
C1167 C1151 1.377 . S
C1167 C1165 1.389 . S
C1167 C1168 1.524 . S
C1168 C1167 1.524 . S
C1168 C1169 1.397 . S
C1168 C1173 1.363 . S
C1169 H1140 0.950 . S
C1169 C1168 1.397 . S
C1169 C1170 1.334 . S
C1170 H1141 0.950 . S
C1170 C1169 1.334 . S
C1170 C1171 1.287 . S
C1171 C1170 1.287 . S
C1171 C1172 1.524 . S
C1171 H1174 0.999 . S
C1172 H1142 0.950 . S
C1172 C1171 1.524 . S
C1172 C1173 1.415 . S
C1173 H1143 0.950 . S
C1173 C1168 1.363 . S
C1173 C1172 1.415 . S
H1174 C1171 0.999 . S
H1175 C1156 0.913 . S
H1176 C1194 0.951 . S
H1177 C1196 0.951 . S
H1178 C1198 0.950 . S
H1179 C1199 0.950 . S
H1180 C1201 0.950 . S
H1181 C1204 0.950 . S
H1182 C1205 0.950 . S
H1183 C1207 0.950 . S
H1184 C1208 0.950 . S
H1185 C1209 0.951 . S
H1186 C1211 0.951 . S
H1187 C1213 0.950 . S
H1188 C1214 0.950 . S
H1189 C1216 0.950 . S
H1190 C1219 0.950 . S
H1191 C1220 0.950 . S
H1192 C1222 0.981 . S
H1193 C1223 0.950 . S
C1194 H1176 0.951 . S
C1194 C1195 1.366 . S
C1194 C1196 1.388 . S
C1195 C1194 1.366 . S
C1195 C1199 1.385 . S
C1196 H1177 0.951 . S
C1196 C1194 1.388 . S
C1196 C1197 1.366 . S
C1197 C1196 1.366 . S
C1197 C1198 1.414 . S
C1197 C1200 1.499 . S
C1198 H1178 0.950 . S
C1198 C1197 1.414 . S
C1198 C1199 1.374 . S
C1199 H1179 0.950 . S
C1199 C1195 1.385 . S
C1199 C1198 1.374 . S
C1200 C1197 1.499 . S
C1200 C1201 1.373 . S
C1200 C1202 1.389 . S
C1201 H1180 0.950 . S
C1201 C1200 1.373 . S
C1201 C1217 1.377 . S
C1202 C1200 1.389 . S
C1202 C1203 1.524 . S
C1202 C1216 1.377 . S
C1203 C1202 1.524 . S
C1203 C1204 1.397 . S
C1203 C1208 1.363 . S
C1204 H1181 0.950 . S
C1204 C1203 1.397 . S
C1204 C1205 1.334 . S
C1205 H1182 0.950 . S
C1205 C1204 1.334 . S
C1205 C1206 1.287 . S
C1206 C1205 1.287 . S
C1206 C1207 1.524 . S
C1206 H1225 0.913 . S
C1207 H1183 0.950 . S
C1207 C1206 1.524 . S
C1207 C1208 1.415 . S
C1208 H1184 0.950 . S
C1208 C1203 1.363 . S
C1208 C1207 1.415 . S
C1209 H1185 0.951 . S
C1209 C1210 1.366 . S
C1209 C1211 1.388 . S
C1210 C1209 1.366 . S
C1210 C1214 1.385 . S
C1211 H1186 0.951 . S
C1211 C1209 1.388 . S
C1211 C1212 1.366 . S
C1212 C1211 1.366 . S
C1212 C1213 1.414 . S
C1212 C1215 1.499 . S
C1213 H1187 0.950 . S
C1213 C1212 1.414 . S
C1213 C1214 1.374 . S
C1214 H1188 0.950 . S
C1214 C1210 1.385 . S
C1214 C1213 1.374 . S
C1215 C1212 1.499 . S
C1215 C1216 1.373 . S
C1215 C1217 1.389 . S
C1216 H1189 0.950 . S
C1216 C1202 1.377 . S
C1216 C1215 1.373 . S
C1217 C1201 1.377 . S
C1217 C1215 1.389 . S
C1217 C1218 1.524 . S
C1218 C1217 1.524 . S
C1218 C1219 1.397 . S
C1218 C1223 1.363 . S
C1219 H1190 0.950 . S
C1219 C1218 1.397 . S
C1219 C1220 1.334 . S
C1220 H1191 0.950 . S
C1220 C1219 1.334 . S
C1220 C1221 1.287 . S
C1221 C1220 1.287 . S
C1221 C1222 1.513 1_455 S
C1221 H1224 0.999 1_455 S
C1222 H1192 0.981 . S
C1222 C1221 1.513 1_655 S
C1222 C1223 1.391 1_655 S
C1223 H1193 0.950 . S
C1223 C1218 1.363 . S
C1223 C1222 1.391 1_455 S
H1224 C1221 0.999 1_655 S
H1225 C1206 0.913 . S
H1226 C1244 0.951 . S
H1227 C1246 0.951 . S
H1228 C1248 0.950 . S
H1229 C1249 0.950 . S
H1230 C1251 0.950 . S
H1231 C1254 0.950 . S
H1232 C1255 0.950 . S
H1233 C1257 0.950 . S
H1234 C1258 0.950 . S
H1235 C1259 0.951 . S
H1236 C1261 0.951 . S
H1237 C1263 0.950 . S
H1238 C1264 0.950 . S
H1239 C1266 0.950 . S
H1240 C1269 0.950 . S
H1241 C1270 0.950 . S
H1242 C1272 0.950 . S
H1243 C1273 0.950 . S
C1244 H1226 0.951 . S
C1244 C1245 1.366 . S
C1244 C1246 1.388 . S
C1245 C1244 1.366 . S
C1245 C1249 1.385 . S
C1246 H1227 0.951 . S
C1246 C1244 1.388 . S
C1246 C1247 1.366 . S
C1247 C1246 1.366 . S
C1247 C1248 1.414 . S
C1247 C1250 1.499 . S
C1248 H1228 0.950 . S
C1248 C1247 1.414 . S
C1248 C1249 1.374 . S
C1249 H1229 0.950 . S
C1249 C1245 1.385 . S
C1249 C1248 1.374 . S
C1250 C1247 1.499 . S
C1250 C1251 1.373 . S
C1250 C1252 1.389 . S
C1251 H1230 0.950 . S
C1251 C1250 1.373 . S
C1251 C1267 1.377 . S
C1252 C1250 1.389 . S
C1252 C1253 1.524 . S
C1252 C1266 1.377 . S
C1253 C1252 1.524 . S
C1253 C1254 1.397 . S
C1253 C1258 1.363 . S
C1254 H1231 0.950 . S
C1254 C1253 1.397 . S
C1254 C1255 1.334 . S
C1255 H1232 0.950 . S
C1255 C1254 1.334 . S
C1255 C1256 1.287 . S
C1256 C1255 1.287 . S
C1256 C1257 1.524 . S
C1256 H1275 0.913 . S
C1257 H1233 0.950 . S
C1257 C1256 1.524 . S
C1257 C1258 1.415 . S
C1258 H1234 0.950 . S
C1258 C1253 1.363 . S
C1258 C1257 1.415 . S
C1259 H1235 0.951 . S
C1259 C1260 1.366 . S
C1259 C1261 1.388 . S
C1260 C1259 1.366 . S
C1260 C1264 1.385 . S
C1261 H1236 0.951 . S
C1261 C1259 1.388 . S
C1261 C1262 1.366 . S
C1262 C1261 1.366 . S
C1262 C1263 1.414 . S
C1262 C1265 1.499 . S
C1263 H1237 0.950 . S
C1263 C1262 1.414 . S
C1263 C1264 1.374 . S
C1264 H1238 0.950 . S
C1264 C1260 1.385 . S
C1264 C1263 1.374 . S
C1265 C1262 1.499 . S
C1265 C1266 1.373 . S
C1265 C1267 1.389 . S
C1266 H1239 0.950 . S
C1266 C1252 1.377 . S
C1266 C1265 1.373 . S
C1267 C1251 1.377 . S
C1267 C1265 1.389 . S
C1267 C1268 1.524 . S
C1268 C1267 1.524 . S
C1268 C1269 1.397 . S
C1268 C1273 1.363 . S
C1269 H1240 0.950 . S
C1269 C1268 1.397 . S
C1269 C1270 1.334 . S
C1270 H1241 0.950 . S
C1270 C1269 1.334 . S
C1270 C1271 1.287 . S
C1271 C1270 1.287 . S
C1271 C1272 1.524 . S
C1271 H1274 0.999 . S
C1272 H1242 0.950 . S
C1272 C1271 1.524 . S
C1272 C1273 1.415 . S
C1273 H1243 0.950 . S
C1273 C1268 1.363 . S
C1273 C1272 1.415 . S
H1274 C1271 0.999 . S
H1275 C1256 0.913 . S
H1276 C1294 0.951 . S
H1277 C1296 0.951 . S
H1278 C1298 0.950 . S
H1279 C1299 0.950 . S
H1280 C1301 0.950 . S
H1281 C1304 0.950 . S
H1282 C1305 0.950 . S
H1283 C1307 0.950 . S
H1284 C1308 0.950 . S
H1285 C1309 0.951 . S
H1286 C1311 0.951 . S
H1287 C1313 0.950 . S
H1288 C1314 0.950 . S
H1289 C1316 0.950 . S
H1290 C1319 0.950 . S
H1291 C1320 0.950 . S
H1292 C1322 0.950 . S
H1293 C1323 0.950 . S
C1294 H1276 0.951 . S
C1294 C1295 1.366 . S
C1294 C1296 1.388 . S
C1295 C1294 1.366 . S
C1295 C1299 1.385 . S
C1296 H1277 0.951 . S
C1296 C1294 1.388 . S
C1296 C1297 1.366 . S
C1297 C1296 1.366 . S
C1297 C1298 1.414 . S
C1297 C1300 1.499 . S
C1298 H1278 0.950 . S
C1298 C1297 1.414 . S
C1298 C1299 1.374 . S
C1299 H1279 0.950 . S
C1299 C1295 1.385 . S
C1299 C1298 1.374 . S
C1300 C1297 1.499 . S
C1300 C1301 1.373 . S
C1300 C1302 1.389 . S
C1301 H1280 0.950 . S
C1301 C1300 1.373 . S
C1301 C1317 1.377 . S
C1302 C1300 1.389 . S
C1302 C1303 1.524 . S
C1302 C1316 1.377 . S
C1303 C1302 1.524 . S
C1303 C1304 1.397 . S
C1303 C1308 1.363 . S
C1304 H1281 0.950 . S
C1304 C1303 1.397 . S
C1304 C1305 1.334 . S
C1305 H1282 0.950 . S
C1305 C1304 1.334 . S
C1305 C1306 1.287 . S
C1306 C1305 1.287 . S
C1306 C1307 1.524 . S
C1306 H1325 0.913 . S
C1307 H1283 0.950 . S
C1307 C1306 1.524 . S
C1307 C1308 1.415 . S
C1308 H1284 0.950 . S
C1308 C1303 1.363 . S
C1308 C1307 1.415 . S
C1309 H1285 0.951 . S
C1309 C1310 1.366 . S
C1309 C1311 1.388 . S
C1310 C1309 1.366 . S
C1310 C1314 1.385 . S
C1311 H1286 0.951 . S
C1311 C1309 1.388 . S
C1311 C1312 1.366 . S
C1312 C1311 1.366 . S
C1312 C1313 1.414 . S
C1312 C1315 1.499 . S
C1313 H1287 0.950 . S
C1313 C1312 1.414 . S
C1313 C1314 1.374 . S
C1314 H1288 0.950 . S
C1314 C1310 1.385 . S
C1314 C1313 1.374 . S
C1315 C1312 1.499 . S
C1315 C1316 1.373 . S
C1315 C1317 1.389 . S
C1316 H1289 0.950 . S
C1316 C1302 1.377 . S
C1316 C1315 1.373 . S
C1317 C1301 1.377 . S
C1317 C1315 1.389 . S
C1317 C1318 1.524 . S
C1318 C1317 1.524 . S
C1318 C1319 1.397 . S
C1318 C1323 1.363 . S
C1319 H1290 0.950 . S
C1319 C1318 1.397 . S
C1319 C1320 1.334 . S
C1320 H1291 0.950 . S
C1320 C1319 1.334 . S
C1320 C1321 1.287 . S
C1321 C1320 1.287 . S
C1321 C1322 1.524 . S
C1321 H1324 0.999 . S
C1322 H1292 0.950 . S
C1322 C1321 1.524 . S
C1322 C1323 1.415 . S
C1323 H1293 0.950 . S
C1323 C1318 1.363 . S
C1323 C1322 1.415 . S
H1324 C1321 0.999 . S
H1325 C1306 0.913 . S
H1326 C1344 0.951 . S
H1327 C1346 0.951 . S
H1328 C1348 0.950 . S
H1329 C1349 0.950 . S
H1330 C1351 0.950 . S
H1331 C1354 0.950 . S
H1332 C1355 0.950 . S
H1333 C1357 0.950 . S
H1334 C1358 0.950 . S
H1335 C1359 0.951 . S
H1336 C1361 0.951 . S
H1337 C1363 0.950 . S
H1338 C1364 0.950 . S
H1339 C1366 0.950 . S
H1340 C1369 0.950 . S
H1341 C1370 0.950 . S
H1342 C1372 0.950 . S
H1343 C1373 0.950 . S
C1344 H1326 0.951 . S
C1344 C1345 1.366 . S
C1344 C1346 1.388 . S
C1345 C1344 1.366 . S
C1345 C1349 1.385 . S
C1346 H1327 0.951 . S
C1346 C1344 1.388 . S
C1346 C1347 1.366 . S
C1347 C1346 1.366 . S
C1347 C1348 1.414 . S
C1347 C1350 1.499 . S
C1348 H1328 0.950 . S
C1348 C1347 1.414 . S
C1348 C1349 1.374 . S
C1349 H1329 0.950 . S
C1349 C1345 1.385 . S
C1349 C1348 1.374 . S
C1350 C1347 1.499 . S
C1350 C1351 1.373 . S
C1350 C1352 1.389 . S
C1351 H1330 0.950 . S
C1351 C1350 1.373 . S
C1351 C1367 1.377 . S
C1352 C1350 1.389 . S
C1352 C1353 1.524 . S
C1352 C1366 1.377 . S
C1353 C1352 1.524 . S
C1353 C1354 1.397 . S
C1353 C1358 1.363 . S
C1354 H1331 0.950 . S
C1354 C1353 1.397 . S
C1354 C1355 1.334 . S
C1355 H1332 0.950 . S
C1355 C1354 1.334 . S
C1355 C1356 1.287 . S
C1356 C1355 1.287 . S
C1356 C1357 1.524 . S
C1356 H1375 0.913 . S
C1357 H1333 0.950 . S
C1357 C1356 1.524 . S
C1357 C1358 1.415 . S
C1358 H1334 0.950 . S
C1358 C1353 1.363 . S
C1358 C1357 1.415 . S
C1359 H1335 0.951 . S
C1359 C1360 1.366 . S
C1359 C1361 1.388 . S
C1360 C1359 1.366 . S
C1360 C1364 1.385 . S
C1361 H1336 0.951 . S
C1361 C1359 1.388 . S
C1361 C1362 1.366 . S
C1362 C1361 1.366 . S
C1362 C1363 1.414 . S
C1362 C1365 1.499 . S
C1363 H1337 0.950 . S
C1363 C1362 1.414 . S
C1363 C1364 1.374 . S
C1364 H1338 0.950 . S
C1364 C1360 1.385 . S
C1364 C1363 1.374 . S
C1365 C1362 1.499 . S
C1365 C1366 1.373 . S
C1365 C1367 1.389 . S
C1366 H1339 0.950 . S
C1366 C1352 1.377 . S
C1366 C1365 1.373 . S
C1367 C1351 1.377 . S
C1367 C1365 1.389 . S
C1367 C1368 1.524 . S
C1368 C1367 1.524 . S
C1368 C1369 1.397 . S
C1368 C1373 1.363 . S
C1369 H1340 0.950 . S
C1369 C1368 1.397 . S
C1369 C1370 1.334 . S
C1370 H1341 0.950 . S
C1370 C1369 1.334 . S
C1370 C1371 1.287 . S
C1371 C1370 1.287 . S
C1371 C1372 1.524 . S
C1371 H1374 0.999 . S
C1372 H1342 0.950 . S
C1372 C1371 1.524 . S
C1372 C1373 1.415 . S
C1373 H1343 0.950 . S
C1373 C1368 1.363 . S
C1373 C1372 1.415 . S
H1374 C1371 0.999 . S
H1375 C1356 0.913 . S
H1376 C1394 0.951 . S
H1377 C1396 0.951 . S
H1378 C1398 0.950 . S
H1379 C1399 0.950 . S
H1380 C1401 0.950 . S
H1381 C1404 0.950 . S
H1382 C1405 0.950 . S
H1383 C1407 0.950 . S
H1384 C1408 0.950 . S
H1385 C1409 0.951 1_655 S
H1386 C1411 0.950 1_565 S
H1387 C1413 0.950 . S
H1388 C1414 0.950 . S
H1389 C1416 0.950 . S
H1390 C1419 0.950 . S
H1391 C1420 0.950 . S
H1392 C1422 0.950 . S
H1393 C1423 0.950 . S
C1394 H1376 0.951 . S
C1394 C1395 1.366 . S
C1394 C1396 1.388 . S
C1395 C1394 1.366 . S
C1395 C1399 1.385 1_545 S
C1396 H1377 0.951 . S
C1396 C1394 1.388 . S
C1396 C1397 1.366 . S
C1397 C1396 1.366 . S
C1397 C1398 1.414 1_545 S
C1397 C1400 1.499 . S
C1398 H1378 0.950 . S
C1398 C1397 1.414 1_565 S
C1398 C1399 1.374 . S
C1399 H1379 0.950 . S
C1399 C1395 1.385 1_565 S
C1399 C1398 1.374 . S
C1400 C1397 1.499 . S
C1400 C1401 1.373 1_545 S
C1400 C1402 1.389 . S
C1401 H1380 0.950 . S
C1401 C1400 1.373 1_565 S
C1401 C1417 1.375 1_565 S
C1402 C1400 1.389 . S
C1402 C1403 1.524 . S
C1402 C1416 1.377 . S
C1403 C1402 1.524 . S
C1403 C1404 1.397 . S
C1403 C1408 1.363 . S
C1404 H1381 0.950 . S
C1404 C1403 1.397 . S
C1404 C1405 1.334 . S
C1405 H1382 0.950 . S
C1405 C1404 1.334 . S
C1405 C1406 1.287 . S
C1406 C1405 1.287 . S
C1406 C1407 1.524 . S
C1406 H1425 0.913 . S
C1407 H1383 0.950 . S
C1407 C1406 1.524 . S
C1407 C1408 1.415 . S
C1408 H1384 0.950 . S
C1408 C1403 1.363 . S
C1408 C1407 1.415 . S
C1409 H1385 0.951 1_455 S
C1409 C1410 1.366 . S
C1409 C1411 1.388 1_455 S
C1410 C1409 1.366 . S
C1410 C1414 1.385 . S
C1411 H1386 0.950 1_545 S
C1411 C1409 1.388 1_655 S
C1411 C1412 1.361 1_655 S
C1412 C1411 1.361 1_455 S
C1412 C1413 1.456 . S
C1412 C1415 1.464 1_455 S
C1413 H1387 0.950 . S
C1413 C1412 1.456 . S
C1413 C1414 1.374 . S
C1414 H1388 0.950 . S
C1414 C1410 1.385 . S
C1414 C1413 1.374 . S
C1415 C1412 1.464 1_655 S
C1415 C1416 1.373 . S
C1415 C1417 1.398 . S
C1416 H1389 0.950 . S
C1416 C1402 1.377 . S
C1416 C1415 1.373 . S
C1417 C1401 1.375 1_545 S
C1417 C1415 1.398 . S
C1417 C1418 1.516 1_545 S
C1418 C1417 1.516 1_565 S
C1418 C1419 1.397 1_655 S
C1418 C1423 1.363 . S
C1419 H1390 0.950 . S
C1419 C1418 1.397 1_455 S
C1419 C1420 1.334 . S
C1420 H1391 0.950 . S
C1420 C1419 1.334 . S
C1420 C1421 1.287 . S
C1421 C1420 1.287 . S
C1421 C1422 1.524 1_455 S
C1421 H1424 0.999 . S
C1422 H1392 0.950 . S
C1422 C1421 1.524 1_655 S
C1422 C1423 1.415 . S
C1423 H1393 0.950 . S
C1423 C1418 1.363 . S
C1423 C1422 1.415 . S
H1424 C1421 0.999 . S
H1425 C1406 0.913 . S
H1426 C1444 0.951 . S
H1427 C1446 0.951 . S
H1428 C1448 0.950 . S
H1429 C1449 0.950 . S
H1430 C1451 0.950 . S
H1431 C1454 0.950 . S
H1432 C1455 0.950 . S
H1433 C1457 0.950 . S
H1434 C1458 0.950 . S
H1435 C1459 0.951 . S
H1436 C1461 0.951 . S
H1437 C1463 0.950 . S
H1438 C1464 0.950 . S
H1439 C1466 0.950 . S
H1440 C1469 0.950 . S
H1441 C1470 0.950 . S
H1442 C1472 0.950 . S
H1443 C1473 0.950 . S
C1444 H1426 0.951 . S
C1444 C1445 1.366 . S
C1444 C1446 1.388 . S
C1445 C1444 1.366 . S
C1445 C1449 1.385 . S
C1446 H1427 0.951 . S
C1446 C1444 1.388 . S
C1446 C1447 1.366 . S
C1447 C1446 1.366 . S
C1447 C1448 1.414 . S
C1447 C1450 1.499 . S
C1448 H1428 0.950 . S
C1448 C1447 1.414 . S
C1448 C1449 1.374 . S
C1449 H1429 0.950 . S
C1449 C1445 1.385 . S
C1449 C1448 1.374 . S
C1450 C1447 1.499 . S
C1450 C1451 1.373 . S
C1450 C1452 1.389 . S
C1451 H1430 0.950 . S
C1451 C1450 1.373 . S
C1451 C1467 1.377 . S
C1452 C1450 1.389 . S
C1452 C1453 1.524 . S
C1452 C1466 1.377 . S
C1453 C1452 1.524 . S
C1453 C1454 1.397 . S
C1453 C1458 1.363 . S
C1454 H1431 0.950 . S
C1454 C1453 1.397 . S
C1454 C1455 1.334 . S
C1455 H1432 0.950 . S
C1455 C1454 1.334 . S
C1455 C1456 1.287 . S
C1456 C1455 1.287 . S
C1456 C1457 1.524 . S
C1456 H1475 0.913 . S
C1457 H1433 0.950 . S
C1457 C1456 1.524 . S
C1457 C1458 1.415 . S
C1458 H1434 0.950 . S
C1458 C1453 1.363 . S
C1458 C1457 1.415 . S
C1459 H1435 0.951 . S
C1459 C1460 1.366 . S
C1459 C1461 1.388 . S
C1460 C1459 1.366 . S
C1460 C1464 1.385 . S
C1461 H1436 0.951 . S
C1461 C1459 1.388 . S
C1461 C1462 1.366 . S
C1462 C1461 1.366 . S
C1462 C1463 1.414 . S
C1462 C1465 1.499 . S
C1463 H1437 0.950 . S
C1463 C1462 1.414 . S
C1463 C1464 1.374 . S
C1464 H1438 0.950 . S
C1464 C1460 1.385 . S
C1464 C1463 1.374 . S
C1465 C1462 1.499 . S
C1465 C1466 1.373 . S
C1465 C1467 1.389 . S
C1466 H1439 0.950 . S
C1466 C1452 1.377 . S
C1466 C1465 1.373 . S
C1467 C1451 1.377 . S
C1467 C1465 1.389 . S
C1467 C1468 1.524 . S
C1468 C1467 1.524 . S
C1468 C1469 1.397 . S
C1468 C1473 1.363 . S
C1469 H1440 0.950 . S
C1469 C1468 1.397 . S
C1469 C1470 1.334 . S
C1470 H1441 0.950 . S
C1470 C1469 1.334 . S
C1470 C1471 1.287 . S
C1471 C1470 1.287 . S
C1471 C1472 1.524 . S
C1471 H1474 0.999 . S
C1472 H1442 0.950 . S
C1472 C1471 1.524 . S
C1472 C1473 1.415 . S
C1473 H1443 0.950 . S
C1473 C1468 1.363 . S
C1473 C1472 1.415 . S
H1474 C1471 0.999 . S
H1475 C1456 0.913 . S
H1476 C1494 0.951 . S
H1477 C1496 0.951 . S
H1478 C1498 0.950 . S
H1479 C1499 0.950 . S
H1480 C1501 0.950 . S
H1481 C1504 0.950 . S
H1482 C1505 0.950 . S
H1483 C1507 0.950 . S
H1484 C1508 0.950 . S
H1485 C1509 0.951 . S
H1486 C1511 0.951 . S
H1487 C1513 0.950 . S
H1488 C1514 0.984 . S
H1489 C1516 0.950 . S
H1490 C1519 0.950 . S
H1491 C1520 0.950 . S
H1492 C1522 0.950 . S
H1493 C1523 0.950 . S
C1494 H1476 0.951 . S
C1494 C1495 1.366 1_565 S
C1494 C1496 1.388 . S
C1495 C1494 1.366 1_545 S
C1495 C1499 1.385 . S
C1496 H1477 0.951 . S
C1496 C1494 1.388 . S
C1496 C1497 1.366 1_565 S
C1497 C1496 1.366 1_545 S
C1497 C1498 1.414 . S
C1497 C1500 1.499 . S
C1498 H1478 0.950 . S
C1498 C1497 1.414 . S
C1498 C1499 1.374 . S
C1499 H1479 0.950 . S
C1499 C1495 1.385 . S
C1499 C1498 1.374 . S
C1500 C1497 1.499 . S
C1500 C1501 1.373 . S
C1500 C1502 1.389 1_545 S
C1501 H1480 0.950 . S
C1501 C1500 1.373 . S
C1501 C1517 1.377 . S
C1502 C1500 1.389 1_565 S
C1502 C1503 1.524 . S
C1502 C1516 1.377 . S
C1503 C1502 1.524 . S
C1503 C1504 1.397 . S
C1503 C1508 1.363 . S
C1504 H1481 0.950 . S
C1504 C1503 1.397 . S
C1504 C1505 1.334 . S
C1505 H1482 0.950 . S
C1505 C1504 1.334 . S
C1505 C1506 1.287 . S
C1506 C1505 1.287 . S
C1506 C1507 1.524 . S
C1506 H1525 0.913 . S
C1507 H1483 0.950 . S
C1507 C1506 1.524 . S
C1507 C1508 1.415 . S
C1508 H1484 0.950 . S
C1508 C1503 1.363 . S
C1508 C1507 1.415 . S
C1509 H1485 0.951 . S
C1509 C1510 1.366 . S
C1509 C1511 1.388 . S
C1510 C1509 1.366 . S
C1510 C1514 1.336 1_545 S
C1511 H1486 0.951 . S
C1511 C1509 1.388 . S
C1511 C1512 1.366 . S
C1512 C1511 1.366 . S
C1512 C1513 1.414 1_545 S
C1512 C1515 1.499 . S
C1513 H1487 0.950 . S
C1513 C1512 1.414 1_565 S
C1513 C1514 1.392 . S
C1514 H1488 0.984 . S
C1514 C1510 1.336 1_565 S
C1514 C1513 1.392 . S
C1515 C1512 1.499 . S
C1515 C1516 1.373 1_545 S
C1515 C1517 1.389 . S
C1516 H1489 0.950 . S
C1516 C1502 1.377 . S
C1516 C1515 1.373 1_565 S
C1517 C1501 1.377 . S
C1517 C1515 1.389 . S
C1517 C1518 1.524 . S
C1518 C1517 1.524 . S
C1518 C1519 1.397 . S
C1518 C1523 1.363 . S
C1519 H1490 0.950 . S
C1519 C1518 1.397 . S
C1519 C1520 1.334 . S
C1520 H1491 0.950 . S
C1520 C1519 1.334 . S
C1520 C1521 1.287 . S
C1521 C1520 1.287 . S
C1521 C1522 1.524 . S
C1521 H1524 0.999 . S
C1522 H1492 0.950 . S
C1522 C1521 1.524 . S
C1522 C1523 1.415 . S
C1523 H1493 0.950 . S
C1523 C1518 1.363 . S
C1523 C1522 1.415 . S
H1524 C1521 0.999 . S
H1525 C1506 0.913 . S
H1526 C1544 0.951 . S
H1527 C1546 0.951 . S
H1528 C1548 0.950 . S
H1529 C1549 0.950 . S
H1530 C1551 0.950 . S
H1531 C1554 0.950 . S
H1532 C1555 0.950 . S
H1533 C1557 0.950 . S
H1534 C1558 0.950 . S
H1535 C1559 0.951 . S
H1536 C1561 0.951 . S
H1537 C1563 0.950 . S
H1538 C1564 0.950 . S
H1539 C1566 0.950 . S
H1540 C1569 0.950 . S
H1541 C1570 0.950 . S
H1542 C1572 0.950 . S
H1543 C1573 0.950 . S
C1544 H1526 0.951 . S
C1544 C1545 1.366 . S
C1544 C1546 1.388 . S
C1545 C1544 1.366 . S
C1545 C1549 1.385 . S
C1546 H1527 0.951 . S
C1546 C1544 1.388 . S
C1546 C1547 1.366 . S
C1547 C1546 1.366 . S
C1547 C1548 1.414 . S
C1547 C1550 1.499 . S
C1548 H1528 0.950 . S
C1548 C1547 1.414 . S
C1548 C1549 1.374 . S
C1549 H1529 0.950 . S
C1549 C1545 1.385 . S
C1549 C1548 1.374 . S
C1550 C1547 1.499 . S
C1550 C1551 1.373 . S
C1550 C1552 1.389 . S
C1551 H1530 0.950 . S
C1551 C1550 1.373 . S
C1551 C1567 1.377 . S
C1552 C1550 1.389 . S
C1552 C1553 1.524 . S
C1552 C1566 1.377 . S
C1553 C1552 1.524 . S
C1553 C1554 1.397 . S
C1553 C1558 1.363 . S
C1554 H1531 0.950 . S
C1554 C1553 1.397 . S
C1554 C1555 1.334 . S
C1555 H1532 0.950 . S
C1555 C1554 1.334 . S
C1555 C1556 1.287 . S
C1556 C1555 1.287 . S
C1556 C1557 1.524 . S
C1556 H1575 0.913 . S
C1557 H1533 0.950 . S
C1557 C1556 1.524 . S
C1557 C1558 1.415 . S
C1558 H1534 0.950 . S
C1558 C1553 1.363 . S
C1558 C1557 1.415 . S
C1559 H1535 0.951 . S
C1559 C1560 1.366 . S
C1559 C1561 1.388 . S
C1560 C1559 1.366 . S
C1560 C1564 1.385 . S
C1561 H1536 0.951 . S
C1561 C1559 1.388 . S
C1561 C1562 1.366 . S
C1562 C1561 1.366 . S
C1562 C1563 1.414 . S
C1562 C1565 1.499 . S
C1563 H1537 0.950 . S
C1563 C1562 1.414 . S
C1563 C1564 1.374 . S
C1564 H1538 0.950 . S
C1564 C1560 1.385 . S
C1564 C1563 1.374 . S
C1565 C1562 1.499 . S
C1565 C1566 1.373 . S
C1565 C1567 1.389 . S
C1566 H1539 0.950 . S
C1566 C1552 1.377 . S
C1566 C1565 1.373 . S
C1567 C1551 1.377 . S
C1567 C1565 1.389 . S
C1567 C1568 1.524 . S
C1568 C1567 1.524 . S
C1568 C1569 1.397 . S
C1568 C1573 1.363 . S
C1569 H1540 0.950 . S
C1569 C1568 1.397 . S
C1569 C1570 1.334 . S
C1570 H1541 0.950 . S
C1570 C1569 1.334 . S
C1570 C1571 1.287 . S
C1571 C1570 1.287 . S
C1571 C1572 1.524 . S
C1571 H1574 0.999 . S
C1572 H1542 0.950 . S
C1572 C1571 1.524 . S
C1572 C1573 1.415 . S
C1573 H1543 0.950 . S
C1573 C1568 1.363 . S
C1573 C1572 1.415 . S
H1574 C1571 0.999 . S
H1575 C1556 0.913 . S
H1576 C1594 0.951 . S
H1577 C1596 0.951 . S
H1578 C1598 0.950 . S
H1579 C1599 0.950 . S
H1580 C1601 0.932 1_455 S
H1581 C1604 0.910 1_545 S
H1582 C1605 0.950 . S
H1583 C1607 0.950 . S
H1584 C1608 0.950 . S
H1585 C1609 0.951 . S
H1586 C1611 0.951 . S
H1587 C1613 0.950 . S
H1588 C1614 0.950 . S
H1589 C1616 0.950 1_565 S
H1590 C1619 0.950 . S
H1591 C1620 0.950 . S
H1592 C1622 0.950 . S
H1593 C1623 0.950 . S
C1594 H1576 0.951 . S
C1594 C1595 1.366 1_565 S
C1594 C1596 1.388 . S
C1595 C1594 1.366 1_545 S
C1595 C1599 1.385 . S
C1596 H1577 0.951 . S
C1596 C1594 1.388 . S
C1596 C1597 1.366 1_565 S
C1597 C1596 1.366 1_545 S
C1597 C1598 1.414 . S
C1597 C1600 1.499 . S
C1598 H1578 0.950 . S
C1598 C1597 1.414 . S
C1598 C1599 1.374 . S
C1599 H1579 0.950 . S
C1599 C1595 1.385 . S
C1599 C1598 1.374 . S
C1600 C1597 1.499 . S
C1600 C1601 1.373 . S
C1600 C1602 1.425 . S
C1601 H1580 0.932 1_655 S
C1601 C1600 1.373 . S
C1601 C1617 1.377 1_655 S
C1602 C1600 1.425 . S
C1602 C1603 1.507 1_545 S
C1602 C1616 1.363 . S
C1603 C1602 1.507 1_565 S
C1603 C1604 1.427 . S
C1603 C1608 1.363 . S
C1604 H1581 0.910 1_565 S
C1604 C1603 1.427 . S
C1604 C1605 1.344 . S
C1605 H1582 0.950 . S
C1605 C1604 1.344 . S
C1605 C1606 1.287 . S
C1606 C1605 1.287 . S
C1606 C1607 1.524 . S
C1606 H1625 0.913 . S
C1607 H1583 0.950 . S
C1607 C1606 1.524 . S
C1607 C1608 1.415 . S
C1608 H1584 0.950 . S
C1608 C1603 1.363 . S
C1608 C1607 1.415 . S
C1609 H1585 0.951 . S
C1609 C1610 1.366 . S
C1609 C1611 1.388 . S
C1610 C1609 1.366 . S
C1610 C1614 1.385 1_545 S
C1611 H1586 0.951 . S
C1611 C1609 1.388 . S
C1611 C1612 1.366 . S
C1612 C1611 1.366 . S
C1612 C1613 1.414 1_545 S
C1612 C1615 1.499 1_455 S
C1613 H1587 0.950 . S
C1613 C1612 1.414 1_565 S
C1613 C1614 1.374 . S
C1614 H1588 0.950 . S
C1614 C1610 1.385 1_565 S
C1614 C1613 1.374 . S
C1615 C1612 1.499 1_655 S
C1615 C1616 1.373 . S
C1615 C1617 1.389 1_655 S
C1616 H1589 0.950 1_545 S
C1616 C1602 1.363 . S
C1616 C1615 1.373 . S
C1617 C1601 1.377 1_455 S
C1617 C1615 1.389 1_455 S
C1617 C1618 1.524 . S
C1618 C1617 1.524 . S
C1618 C1619 1.397 . S
C1618 C1623 1.363 . S
C1619 H1590 0.950 . S
C1619 C1618 1.397 . S
C1619 C1620 1.334 . S
C1620 H1591 0.950 . S
C1620 C1619 1.334 . S
C1620 C1621 1.287 . S
C1621 C1620 1.287 . S
C1621 C1622 1.524 . S
C1621 H1624 0.999 . S
C1622 H1592 0.950 . S
C1622 C1621 1.524 . S
C1622 C1623 1.415 . S
C1623 H1593 0.950 . S
C1623 C1618 1.363 . S
C1623 C1622 1.415 . S
H1624 C1621 0.999 . S
H1625 C1606 0.913 . S
H1626 C1644 0.951 . S
H1627 C1646 0.951 . S
H1628 C1648 0.950 . S
H1629 C1649 0.950 . S
H1630 C1651 0.950 . S
H1631 C1654 0.950 . S
H1632 C1655 0.950 . S
H1633 C1657 0.950 . S
H1634 C1658 0.950 . S
H1635 C1659 0.951 . S
H1636 C1661 0.951 . S
H1637 C1663 0.950 . S
H1638 C1664 0.950 . S
H1639 C1666 0.950 . S
H1640 C1669 0.950 . S
H1641 C1670 0.950 . S
H1642 C1672 0.950 . S
H1643 C1673 0.950 . S
C1644 H1626 0.951 . S
C1644 C1645 1.366 . S
C1644 C1646 1.388 . S
C1645 C1644 1.366 . S
C1645 C1649 1.385 . S
C1646 H1627 0.951 . S
C1646 C1644 1.388 . S
C1646 C1647 1.366 . S
C1647 C1646 1.366 . S
C1647 C1648 1.414 . S
C1647 C1650 1.499 . S
C1648 H1628 0.950 . S
C1648 C1647 1.414 . S
C1648 C1649 1.374 . S
C1649 H1629 0.950 . S
C1649 C1645 1.385 . S
C1649 C1648 1.374 . S
C1650 C1647 1.499 . S
C1650 C1651 1.373 . S
C1650 C1652 1.389 . S
C1651 H1630 0.950 . S
C1651 C1650 1.373 . S
C1651 C1667 1.377 . S
C1652 C1650 1.389 . S
C1652 C1653 1.524 . S
C1652 C1666 1.377 . S
C1653 C1652 1.524 . S
C1653 C1654 1.397 . S
C1653 C1658 1.363 . S
C1654 H1631 0.950 . S
C1654 C1653 1.397 . S
C1654 C1655 1.334 . S
C1655 H1632 0.950 . S
C1655 C1654 1.334 . S
C1655 C1656 1.287 . S
C1656 C1655 1.287 . S
C1656 C1657 1.524 . S
C1656 H1675 0.913 . S
C1657 H1633 0.950 . S
C1657 C1656 1.524 . S
C1657 C1658 1.415 . S
C1658 H1634 0.950 . S
C1658 C1653 1.363 . S
C1658 C1657 1.415 . S
C1659 H1635 0.951 . S
C1659 C1660 1.366 . S
C1659 C1661 1.388 . S
C1660 C1659 1.366 . S
C1660 C1664 1.385 . S
C1661 H1636 0.951 . S
C1661 C1659 1.388 . S
C1661 C1662 1.366 . S
C1662 C1661 1.366 . S
C1662 C1663 1.414 . S
C1662 C1665 1.499 . S
C1663 H1637 0.950 . S
C1663 C1662 1.414 . S
C1663 C1664 1.374 . S
C1664 H1638 0.950 . S
C1664 C1660 1.385 . S
C1664 C1663 1.374 . S
C1665 C1662 1.499 . S
C1665 C1666 1.373 . S
C1665 C1667 1.389 . S
C1666 H1639 0.950 . S
C1666 C1652 1.377 . S
C1666 C1665 1.373 . S
C1667 C1651 1.377 . S
C1667 C1665 1.389 . S
C1667 C1668 1.524 . S
C1668 C1667 1.524 . S
C1668 C1669 1.397 . S
C1668 C1673 1.363 . S
C1669 H1640 0.950 . S
C1669 C1668 1.397 . S
C1669 C1670 1.334 . S
C1670 H1641 0.950 . S
C1670 C1669 1.334 . S
C1670 C1671 1.287 . S
C1671 C1670 1.287 . S
C1671 C1672 1.524 . S
C1671 H1674 0.999 . S
C1672 H1642 0.950 . S
C1672 C1671 1.524 . S
C1672 C1673 1.415 . S
C1673 H1643 0.950 . S
C1673 C1668 1.363 . S
C1673 C1672 1.415 . S
H1674 C1671 0.999 . S
H1675 C1656 0.913 . S
H1676 C1694 0.951 . S
H1677 C1696 0.951 . S
H1678 C1698 0.920 1_565 S
H1679 C1699 0.950 1_565 S
H1680 C1701 0.950 1_565 S
H1681 C1704 0.950 . S
H1682 C1705 0.950 . S
H1683 C1707 0.950 . S
H1684 C1708 0.950 . S
H1685 C1709 0.951 1_554 S
H1686 C1711 0.951 . S
H1687 C1713 0.950 . S
H1688 C1714 0.950 . S
H1689 C1716 0.950 . S
H1690 C1719 0.989 . S
H1691 C1720 0.950 . S
H1692 C1722 0.950 . S
H1693 C1723 0.950 . S
C1694 H1676 0.951 . S
C1694 C1695 1.366 . S
C1694 C1696 1.388 . S
C1695 C1694 1.366 . S
C1695 C1699 1.385 . S
C1696 H1677 0.951 . S
C1696 C1694 1.388 . S
C1696 C1697 1.366 . S
C1697 C1696 1.366 . S
C1697 C1698 1.414 . S
C1697 C1700 1.499 . S
C1698 H1678 0.920 1_545 S
C1698 C1697 1.414 . S
C1698 C1699 1.374 . S
C1699 H1679 0.950 1_545 S
C1699 C1695 1.385 . S
C1699 C1698 1.374 . S
C1700 C1697 1.499 . S
C1700 C1701 1.373 . S
C1700 C1702 1.389 . S
C1701 H1680 0.950 1_545 S
C1701 C1700 1.373 . S
C1701 C1717 1.377 . S
C1702 C1700 1.389 . S
C1702 C1703 1.524 . S
C1702 C1716 1.377 . S
C1703 C1702 1.524 . S
C1703 C1704 1.397 . S
C1703 C1708 1.363 . S
C1704 H1681 0.950 . S
C1704 C1703 1.397 . S
C1704 C1705 1.334 . S
C1705 H1682 0.950 . S
C1705 C1704 1.334 . S
C1705 C1706 1.287 . S
C1706 C1705 1.287 . S
C1706 C1707 1.524 . S
C1706 H1725 0.913 . S
C1707 H1683 0.950 . S
C1707 C1706 1.524 . S
C1707 C1708 1.415 . S
C1708 H1684 0.950 . S
C1708 C1703 1.363 . S
C1708 C1707 1.415 . S
C1709 H1685 0.951 1_556 S
C1709 C1710 1.366 . S
C1709 C1711 1.388 . S
C1710 C1709 1.366 . S
C1710 C1714 1.385 . S
C1711 H1686 0.951 . S
C1711 C1709 1.388 . S
C1711 C1712 1.366 . S
C1712 C1711 1.366 . S
C1712 C1713 1.414 . S
C1712 C1715 1.499 . S
C1713 H1687 0.950 . S
C1713 C1712 1.414 . S
C1713 C1714 1.374 . S
C1714 H1688 0.950 . S
C1714 C1710 1.385 . S
C1714 C1713 1.374 . S
C1715 C1712 1.499 . S
C1715 C1716 1.373 . S
C1715 C1717 1.389 . S
C1716 H1689 0.950 . S
C1716 C1702 1.377 . S
C1716 C1715 1.373 . S
C1717 C1701 1.377 . S
C1717 C1715 1.389 . S
C1717 C1718 1.524 1_545 S
C1718 C1717 1.524 1_565 S
C1718 C1719 1.397 . S
C1718 C1723 1.363 . S
C1719 H1690 0.989 . S
C1719 C1718 1.397 . S
C1719 C1720 1.334 . S
C1720 H1691 0.950 . S
C1720 C1719 1.334 . S
C1720 C1721 1.287 . S
C1721 C1720 1.287 . S
C1721 C1722 1.524 . S
C1721 H1724 0.999 . S
C1722 H1692 0.950 . S
C1722 C1721 1.524 . S
C1722 C1723 1.415 . S
C1723 H1693 0.950 . S
C1723 C1718 1.363 . S
C1723 C1722 1.415 . S
H1724 C1721 0.999 . S
H1725 C1706 0.913 . S
H1726 C1744 0.951 . S
H1727 C1746 0.951 . S
H1728 C1748 0.950 . S
H1729 C1749 0.950 . S
H1730 C1751 0.950 . S
H1731 C1754 0.950 . S
H1732 C1755 0.950 . S
H1733 C1757 0.950 . S
H1734 C1758 0.950 . S
H1735 C1759 0.951 . S
H1736 C1761 0.951 . S
H1737 C1763 0.950 . S
H1738 C1764 0.950 . S
H1739 C1766 0.950 . S
H1740 C1769 0.950 . S
H1741 C1770 0.950 . S
H1742 C1772 0.950 . S
H1743 C1773 0.950 . S
C1744 H1726 0.951 . S
C1744 C1745 1.366 . S
C1744 C1746 1.388 . S
C1745 C1744 1.366 . S
C1745 C1749 1.385 . S
C1746 H1727 0.951 . S
C1746 C1744 1.388 . S
C1746 C1747 1.366 . S
C1747 C1746 1.366 . S
C1747 C1748 1.414 . S
C1747 C1750 1.499 . S
C1748 H1728 0.950 . S
C1748 C1747 1.414 . S
C1748 C1749 1.374 . S
C1749 H1729 0.950 . S
C1749 C1745 1.385 . S
C1749 C1748 1.374 . S
C1750 C1747 1.499 . S
C1750 C1751 1.373 . S
C1750 C1752 1.389 . S
C1751 H1730 0.950 . S
C1751 C1750 1.373 . S
C1751 C1767 1.377 . S
C1752 C1750 1.389 . S
C1752 C1753 1.524 . S
C1752 C1766 1.377 . S
C1753 C1752 1.524 . S
C1753 C1754 1.397 . S
C1753 C1758 1.363 . S
C1754 H1731 0.950 . S
C1754 C1753 1.397 . S
C1754 C1755 1.334 . S
C1755 H1732 0.950 . S
C1755 C1754 1.334 . S
C1755 C1756 1.287 . S
C1756 C1755 1.287 . S
C1756 C1757 1.524 . S
C1756 H1775 0.913 . S
C1757 H1733 0.950 . S
C1757 C1756 1.524 . S
C1757 C1758 1.415 . S
C1758 H1734 0.950 . S
C1758 C1753 1.363 . S
C1758 C1757 1.415 . S
C1759 H1735 0.951 . S
C1759 C1760 1.366 . S
C1759 C1761 1.388 . S
C1760 C1759 1.366 . S
C1760 C1764 1.385 . S
C1761 H1736 0.951 . S
C1761 C1759 1.388 . S
C1761 C1762 1.366 . S
C1762 C1761 1.366 . S
C1762 C1763 1.414 . S
C1762 C1765 1.499 . S
C1763 H1737 0.950 . S
C1763 C1762 1.414 . S
C1763 C1764 1.374 . S
C1764 H1738 0.950 . S
C1764 C1760 1.385 . S
C1764 C1763 1.374 . S
C1765 C1762 1.499 . S
C1765 C1766 1.373 . S
C1765 C1767 1.389 . S
C1766 H1739 0.950 . S
C1766 C1752 1.377 . S
C1766 C1765 1.373 . S
C1767 C1751 1.377 . S
C1767 C1765 1.389 . S
C1767 C1768 1.524 . S
C1768 C1767 1.524 . S
C1768 C1769 1.397 . S
C1768 C1773 1.363 . S
C1769 H1740 0.950 . S
C1769 C1768 1.397 . S
C1769 C1770 1.334 . S
C1770 H1741 0.950 . S
C1770 C1769 1.334 . S
C1770 C1771 1.287 . S
C1771 C1770 1.287 . S
C1771 C1772 1.524 . S
C1771 H1774 0.999 . S
C1772 H1742 0.950 . S
C1772 C1771 1.524 . S
C1772 C1773 1.415 . S
C1773 H1743 0.950 . S
C1773 C1768 1.363 . S
C1773 C1772 1.415 . S
H1774 C1771 0.999 . S
H1775 C1756 0.913 . S
H1776 C1794 0.951 . S
H1777 C1796 0.951 1_556 S
H1778 C1798 0.950 . S
H1779 C1799 0.950 . S
H1780 C1801 0.950 . S
H1781 C1804 0.950 . S
H1782 C1805 0.950 . S
H1783 C1807 0.950 . S
H1784 C1808 0.950 . S
H1785 C1809 0.951 . S
H1786 C1811 0.951 . S
H1787 C1813 0.950 . S
H1788 C1814 0.950 . S
H1789 C1816 0.950 . S
H1790 C1819 0.950 . S
H1791 C1820 0.950 . S
H1792 C1822 0.950 . S
H1793 C1823 0.950 . S
C1794 H1776 0.951 . S
C1794 C1795 1.366 1_556 S
C1794 C1796 1.388 1_556 S
C1795 C1794 1.366 1_554 S
C1795 C1799 1.385 . S
C1796 H1777 0.951 1_554 S
C1796 C1794 1.388 1_554 S
C1796 C1797 1.366 . S
C1797 C1796 1.366 . S
C1797 C1798 1.414 . S
C1797 C1800 1.499 . S
C1798 H1778 0.950 . S
C1798 C1797 1.414 . S
C1798 C1799 1.374 . S
C1799 H1779 0.950 . S
C1799 C1795 1.385 . S
C1799 C1798 1.374 . S
C1800 C1797 1.499 . S
C1800 C1801 1.373 . S
C1800 C1802 1.389 . S
C1801 H1780 0.950 . S
C1801 C1800 1.373 . S
C1801 C1817 1.377 . S
C1802 C1800 1.389 . S
C1802 C1803 1.524 . S
C1802 C1816 1.377 . S
C1803 C1802 1.524 . S
C1803 C1804 1.397 . S
C1803 C1808 1.363 1_554 S
C1804 H1781 0.950 . S
C1804 C1803 1.397 . S
C1804 C1805 1.334 1_554 S
C1805 H1782 0.950 . S
C1805 C1804 1.334 1_556 S
C1805 C1806 1.287 . S
C1806 C1805 1.287 . S
C1806 C1807 1.524 . S
C1806 H1825 0.913 . S
C1807 H1783 0.950 . S
C1807 C1806 1.524 . S
C1807 C1808 1.415 . S
C1808 H1784 0.950 . S
C1808 C1803 1.363 1_556 S
C1808 C1807 1.415 . S
C1809 H1785 0.951 . S
C1809 C1810 1.366 . S
C1809 C1811 1.388 . S
C1810 C1809 1.366 . S
C1810 C1814 1.385 . S
C1811 H1786 0.951 . S
C1811 C1809 1.388 . S
C1811 C1812 1.366 . S
C1812 C1811 1.366 . S
C1812 C1813 1.414 . S
C1812 C1815 1.499 . S
C1813 H1787 0.950 . S
C1813 C1812 1.414 . S
C1813 C1814 1.374 . S
C1814 H1788 0.950 . S
C1814 C1810 1.385 . S
C1814 C1813 1.374 . S
C1815 C1812 1.499 . S
C1815 C1816 1.373 . S
C1815 C1817 1.389 . S
C1816 H1789 0.950 . S
C1816 C1802 1.377 . S
C1816 C1815 1.373 . S
C1817 C1801 1.377 . S
C1817 C1815 1.389 . S
C1817 C1818 1.524 . S
C1818 C1817 1.524 . S
C1818 C1819 1.397 . S
C1818 C1823 1.363 . S
C1819 H1790 0.950 . S
C1819 C1818 1.397 . S
C1819 C1820 1.334 . S
C1820 H1791 0.950 . S
C1820 C1819 1.334 . S
C1820 C1821 1.287 . S
C1821 C1820 1.287 . S
C1821 C1822 1.524 . S
C1821 H1824 0.999 . S
C1822 H1792 0.950 . S
C1822 C1821 1.524 . S
C1822 C1823 1.415 . S
C1823 H1793 0.950 . S
C1823 C1818 1.363 . S
C1823 C1822 1.415 . S
H1824 C1821 0.999 . S
H1825 C1806 0.913 . S
H1826 C1844 0.951 . S
H1827 C1846 0.951 . S
H1828 C1848 0.950 . S
H1829 C1849 0.950 . S
H1830 C1851 0.950 . S
H1831 C1854 0.950 . S
H1832 C1855 0.950 . S
H1833 C1857 0.950 . S
H1834 C1858 0.950 . S
H1835 C1859 0.951 . S
H1836 C1861 0.951 . S
H1837 C1863 0.950 . S
H1838 C1864 0.950 . S
H1839 C1866 0.950 . S
H1840 C1869 0.950 1_554 S
H1841 C1870 0.950 . S
H1842 C1872 0.950 . S
H1843 C1873 0.950 . S
C1844 H1826 0.951 . S
C1844 C1845 1.366 . S
C1844 C1846 1.388 . S
C1845 C1844 1.366 . S
C1845 C1849 1.385 . S
C1846 H1827 0.951 . S
C1846 C1844 1.388 . S
C1846 C1847 1.366 . S
C1847 C1846 1.366 . S
C1847 C1848 1.414 . S
C1847 C1850 1.499 . S
C1848 H1828 0.950 . S
C1848 C1847 1.414 . S
C1848 C1849 1.374 . S
C1849 H1829 0.950 . S
C1849 C1845 1.385 . S
C1849 C1848 1.374 . S
C1850 C1847 1.499 . S
C1850 C1851 1.373 . S
C1850 C1852 1.389 . S
C1851 H1830 0.950 . S
C1851 C1850 1.373 . S
C1851 C1867 1.377 . S
C1852 C1850 1.389 . S
C1852 C1853 1.524 . S
C1852 C1866 1.377 . S
C1853 C1852 1.524 . S
C1853 C1854 1.397 . S
C1853 C1858 1.363 . S
C1854 H1831 0.950 . S
C1854 C1853 1.397 . S
C1854 C1855 1.334 . S
C1855 H1832 0.950 . S
C1855 C1854 1.334 . S
C1855 C1856 1.287 . S
C1856 C1855 1.287 . S
C1856 C1857 1.524 . S
C1856 H1875 0.913 . S
C1857 H1833 0.950 . S
C1857 C1856 1.524 . S
C1857 C1858 1.415 . S
C1858 H1834 0.950 . S
C1858 C1853 1.363 . S
C1858 C1857 1.415 . S
C1859 H1835 0.951 . S
C1859 C1860 1.366 . S
C1859 C1861 1.388 . S
C1860 C1859 1.366 . S
C1860 C1864 1.385 . S
C1861 H1836 0.951 . S
C1861 C1859 1.388 . S
C1861 C1862 1.366 . S
C1862 C1861 1.366 . S
C1862 C1863 1.414 . S
C1862 C1865 1.499 . S
C1863 H1837 0.950 . S
C1863 C1862 1.414 . S
C1863 C1864 1.374 . S
C1864 H1838 0.950 . S
C1864 C1860 1.385 . S
C1864 C1863 1.374 . S
C1865 C1862 1.499 . S
C1865 C1866 1.373 . S
C1865 C1867 1.389 . S
C1866 H1839 0.950 . S
C1866 C1852 1.377 . S
C1866 C1865 1.373 . S
C1867 C1851 1.377 . S
C1867 C1865 1.389 . S
C1867 C1868 1.524 . S
C1868 C1867 1.524 . S
C1868 C1869 1.397 1_554 S
C1868 C1873 1.363 1_554 S
C1869 H1840 0.950 1_556 S
C1869 C1868 1.397 1_556 S
C1869 C1870 1.334 . S
C1870 H1841 0.950 . S
C1870 C1869 1.334 . S
C1870 C1871 1.287 . S
C1871 C1870 1.287 . S
C1871 C1872 1.524 . S
C1871 H1874 0.999 . S
C1872 H1842 0.950 . S
C1872 C1871 1.524 . S
C1872 C1873 1.415 . S
C1873 H1843 0.950 . S
C1873 C1868 1.363 1_556 S
C1873 C1872 1.415 . S
H1874 C1871 0.999 . S
H1875 C1856 0.913 . S
H1876 C1894 0.951 . S
H1877 C1896 0.951 . S
H1878 C1898 0.950 . S
H1879 C1899 0.950 . S
H1880 C1901 0.950 . S
H1881 C1904 0.950 . S
H1882 C1905 0.950 . S
H1883 C1907 0.950 . S
H1884 C1908 0.950 . S
H1885 C1909 0.951 . S
H1886 C1911 0.951 . S
H1887 C1913 0.950 . S
H1888 C1914 0.950 . S
H1889 C1916 0.950 . S
H1890 C1919 0.950 . S
H1891 C1920 0.950 . S
H1892 C1922 0.950 . S
H1893 C1923 0.950 . S
C1894 H1876 0.951 . S
C1894 C1895 1.366 . S
C1894 C1896 1.388 . S
C1895 C1894 1.366 . S
C1895 C1899 1.385 . S
C1896 H1877 0.951 . S
C1896 C1894 1.388 . S
C1896 C1897 1.366 . S
C1897 C1896 1.366 . S
C1897 C1898 1.414 . S
C1897 C1900 1.499 . S
C1898 H1878 0.950 . S
C1898 C1897 1.414 . S
C1898 C1899 1.374 . S
C1899 H1879 0.950 . S
C1899 C1895 1.385 . S
C1899 C1898 1.374 . S
C1900 C1897 1.499 . S
C1900 C1901 1.373 . S
C1900 C1902 1.389 . S
C1901 H1880 0.950 . S
C1901 C1900 1.373 . S
C1901 C1917 1.377 . S
C1902 C1900 1.389 . S
C1902 C1903 1.524 . S
C1902 C1916 1.377 . S
C1903 C1902 1.524 . S
C1903 C1904 1.397 . S
C1903 C1908 1.363 . S
C1904 H1881 0.950 . S
C1904 C1903 1.397 . S
C1904 C1905 1.334 . S
C1905 H1882 0.950 . S
C1905 C1904 1.334 . S
C1905 C1906 1.287 . S
C1906 C1905 1.287 . S
C1906 C1907 1.524 . S
C1906 H1925 0.913 . S
C1907 H1883 0.950 . S
C1907 C1906 1.524 . S
C1907 C1908 1.415 . S
C1908 H1884 0.950 . S
C1908 C1903 1.363 . S
C1908 C1907 1.415 . S
C1909 H1885 0.951 . S
C1909 C1910 1.366 . S
C1909 C1911 1.388 . S
C1910 C1909 1.366 . S
C1910 C1914 1.385 . S
C1911 H1886 0.951 . S
C1911 C1909 1.388 . S
C1911 C1912 1.366 . S
C1912 C1911 1.366 . S
C1912 C1913 1.414 . S
C1912 C1915 1.499 . S
C1913 H1887 0.950 . S
C1913 C1912 1.414 . S
C1913 C1914 1.374 . S
C1914 H1888 0.950 . S
C1914 C1910 1.385 . S
C1914 C1913 1.374 . S
C1915 C1912 1.499 . S
C1915 C1916 1.373 . S
C1915 C1917 1.389 . S
C1916 H1889 0.950 . S
C1916 C1902 1.377 . S
C1916 C1915 1.373 . S
C1917 C1901 1.377 . S
C1917 C1915 1.389 . S
C1917 C1918 1.524 . S
C1918 C1917 1.524 . S
C1918 C1919 1.397 . S
C1918 C1923 1.363 . S
C1919 H1890 0.950 . S
C1919 C1918 1.397 . S
C1919 C1920 1.334 . S
C1920 H1891 0.950 . S
C1920 C1919 1.334 . S
C1920 C1921 1.287 . S
C1921 C1920 1.287 . S
C1921 C1922 1.524 . S
C1921 H1924 0.999 . S
C1922 H1892 0.950 . S
C1922 C1921 1.524 . S
C1922 C1923 1.415 . S
C1923 H1893 0.950 . S
C1923 C1918 1.363 . S
C1923 C1922 1.415 . S
H1924 C1921 0.999 . S
H1925 C1906 0.913 . S
H1926 C1944 0.951 . S
H1927 C1946 0.951 . S
H1928 C1948 0.950 . S
H1929 C1949 0.950 . S
H1930 C1951 0.950 . S
H1931 C1954 0.950 . S
H1932 C1955 0.950 . S
H1933 C1957 0.950 . S
H1934 C1958 0.950 . S
H1935 C1959 0.951 . S
H1936 C1961 0.951 . S
H1937 C1963 0.950 . S
H1938 C1964 0.950 . S
H1939 C1966 0.950 . S
H1940 C1969 0.950 . S
H1941 C1970 0.950 . S
H1942 C1972 0.950 . S
H1943 C1973 0.950 . S
C1944 H1926 0.951 . S
C1944 C1945 1.366 . S
C1944 C1946 1.388 . S
C1945 C1944 1.366 . S
C1945 C1949 1.385 . S
C1946 H1927 0.951 . S
C1946 C1944 1.388 . S
C1946 C1947 1.366 . S
C1947 C1946 1.366 . S
C1947 C1948 1.414 . S
C1947 C1950 1.499 . S
C1948 H1928 0.950 . S
C1948 C1947 1.414 . S
C1948 C1949 1.374 . S
C1949 H1929 0.950 . S
C1949 C1945 1.385 . S
C1949 C1948 1.374 . S
C1950 C1947 1.499 . S
C1950 C1951 1.373 . S
C1950 C1952 1.389 . S
C1951 H1930 0.950 . S
C1951 C1950 1.373 . S
C1951 C1967 1.377 . S
C1952 C1950 1.389 . S
C1952 C1953 1.524 . S
C1952 C1966 1.377 . S
C1953 C1952 1.524 . S
C1953 C1954 1.397 . S
C1953 C1958 1.363 . S
C1954 H1931 0.950 . S
C1954 C1953 1.397 . S
C1954 C1955 1.334 . S
C1955 H1932 0.950 . S
C1955 C1954 1.334 . S
C1955 C1956 1.287 . S
C1956 C1955 1.287 . S
C1956 C1957 1.524 . S
C1956 H1975 0.913 . S
C1957 H1933 0.950 . S
C1957 C1956 1.524 . S
C1957 C1958 1.415 . S
C1958 H1934 0.950 . S
C1958 C1953 1.363 . S
C1958 C1957 1.415 . S
C1959 H1935 0.951 . S
C1959 C1960 1.366 . S
C1959 C1961 1.388 . S
C1960 C1959 1.366 . S
C1960 C1964 1.385 . S
C1961 H1936 0.951 . S
C1961 C1959 1.388 . S
C1961 C1962 1.366 . S
C1962 C1961 1.366 . S
C1962 C1963 1.414 . S
C1962 C1965 1.499 . S
C1963 H1937 0.950 . S
C1963 C1962 1.414 . S
C1963 C1964 1.374 . S
C1964 H1938 0.950 . S
C1964 C1960 1.385 . S
C1964 C1963 1.374 . S
C1965 C1962 1.499 . S
C1965 C1966 1.373 . S
C1965 C1967 1.389 . S
C1966 H1939 0.950 . S
C1966 C1952 1.377 . S
C1966 C1965 1.373 . S
C1967 C1951 1.377 . S
C1967 C1965 1.389 . S
C1967 C1968 1.524 . S
C1968 C1967 1.524 . S
C1968 C1969 1.397 . S
C1968 C1973 1.363 . S
C1969 H1940 0.950 . S
C1969 C1968 1.397 . S
C1969 C1970 1.334 . S
C1970 H1941 0.950 . S
C1970 C1969 1.334 . S
C1970 C1971 1.287 . S
C1971 C1970 1.287 . S
C1971 C1972 1.524 . S
C1971 H1974 0.999 . S
C1972 H1942 0.950 . S
C1972 C1971 1.524 . S
C1972 C1973 1.415 . S
C1973 H1943 0.950 . S
C1973 C1968 1.363 . S
C1973 C1972 1.415 . S
H1974 C1971 0.999 . S
H1975 C1956 0.913 . S
H1976 C1994 0.951 . S
H1977 C1996 0.951 . S
H1978 C1998 0.950 . S
H1979 C1999 0.950 . S
H1980 C2001 0.950 . S
H1981 C2004 0.950 . S
H1982 C2005 0.950 . S
H1983 C2007 0.950 . S
H1984 C2008 0.950 . S
H1985 C2009 0.951 . S
H1986 C2011 0.951 . S
H1987 C2013 0.950 . S
H1988 C2014 0.950 . S
H1989 C2016 0.950 . S
H1990 C2019 0.950 . S
H1991 C2020 0.950 . S
H1992 C2022 0.950 . S
H1993 C2023 0.950 . S
C1994 H1976 0.951 . S
C1994 C1995 1.366 . S
C1994 C1996 1.388 . S
C1995 C1994 1.366 . S
C1995 C1999 1.385 . S
C1996 H1977 0.951 . S
C1996 C1994 1.388 . S
C1996 C1997 1.366 . S
C1997 C1996 1.366 . S
C1997 C1998 1.414 . S
C1997 C2000 1.499 . S
C1998 H1978 0.950 . S
C1998 C1997 1.414 . S
C1998 C1999 1.374 . S
C1999 H1979 0.950 . S
C1999 C1995 1.385 . S
C1999 C1998 1.374 . S
C2000 C1997 1.499 . S
C2000 C2001 1.373 . S
C2000 C2002 1.389 . S
C2001 H1980 0.950 . S
C2001 C2000 1.373 . S
C2001 C2017 1.377 . S
C2002 C2000 1.389 . S
C2002 C2003 1.524 . S
C2002 C2016 1.377 . S
C2003 C2002 1.524 . S
C2003 C2004 1.397 . S
C2003 C2008 1.363 . S
C2004 H1981 0.950 . S
C2004 C2003 1.397 . S
C2004 C2005 1.334 . S
C2005 H1982 0.950 . S
C2005 C2004 1.334 . S
C2005 C2006 1.287 . S
C2006 C2005 1.287 . S
C2006 C2007 1.524 . S
C2006 H2025 0.913 . S
C2007 H1983 0.950 . S
C2007 C2006 1.524 . S
C2007 C2008 1.415 . S
C2008 H1984 0.950 . S
C2008 C2003 1.363 . S
C2008 C2007 1.415 . S
C2009 H1985 0.951 . S
C2009 C2010 1.366 . S
C2009 C2011 1.388 . S
C2010 C2009 1.366 . S
C2010 C2014 1.385 . S
C2011 H1986 0.951 . S
C2011 C2009 1.388 . S
C2011 C2012 1.366 . S
C2012 C2011 1.366 . S
C2012 C2013 1.414 . S
C2012 C2015 1.499 . S
C2013 H1987 0.950 . S
C2013 C2012 1.414 . S
C2013 C2014 1.374 . S
C2014 H1988 0.950 . S
C2014 C2010 1.385 . S
C2014 C2013 1.374 . S
C2015 C2012 1.499 . S
C2015 C2016 1.373 . S
C2015 C2017 1.389 . S
C2016 H1989 0.950 . S
C2016 C2002 1.377 . S
C2016 C2015 1.373 . S
C2017 C2001 1.377 . S
C2017 C2015 1.389 . S
C2017 C2018 1.524 . S
C2018 C2017 1.524 . S
C2018 C2019 1.397 . S
C2018 C2023 1.363 . S
C2019 H1990 0.950 . S
C2019 C2018 1.397 . S
C2019 C2020 1.334 . S
C2020 H1991 0.950 . S
C2020 C2019 1.334 . S
C2020 C2021 1.287 . S
C2021 C2020 1.287 . S
C2021 C2022 1.524 . S
C2021 H2024 0.999 . S
C2022 H1992 0.950 . S
C2022 C2021 1.524 . S
C2022 C2023 1.415 . S
C2023 H1993 0.950 . S
C2023 C2018 1.363 . S
C2023 C2022 1.415 . S
H2024 C2021 0.999 . S
H2025 C2006 0.913 . S
H2026 C2044 0.951 . S
H2027 C2046 0.951 . S
H2028 C2048 0.950 . S
H2029 C2049 0.950 . S
H2030 C2051 0.950 . S
H2031 C2054 0.950 . S
H2032 C2055 0.950 . S
H2033 C2057 0.950 . S
H2034 C2058 0.950 . S
H2035 C2059 0.951 . S
H2036 C2061 0.951 . S
H2037 C2063 0.950 . S
H2038 C2064 0.950 . S
H2039 C2066 0.950 . S
H2040 C2069 0.950 . S
H2041 C2070 0.950 . S
H2042 C2072 0.950 . S
H2043 C2073 0.950 . S
C2044 H2026 0.951 . S
C2044 C2045 1.366 . S
C2044 C2046 1.388 . S
C2045 C2044 1.366 . S
C2045 C2049 1.385 . S
C2046 H2027 0.951 . S
C2046 C2044 1.388 . S
C2046 C2047 1.366 . S
C2047 C2046 1.366 . S
C2047 C2048 1.414 . S
C2047 C2050 1.499 . S
C2048 H2028 0.950 . S
C2048 C2047 1.414 . S
C2048 C2049 1.374 . S
C2049 H2029 0.950 . S
C2049 C2045 1.385 . S
C2049 C2048 1.374 . S
C2050 C2047 1.499 . S
C2050 C2051 1.373 . S
C2050 C2052 1.389 . S
C2051 H2030 0.950 . S
C2051 C2050 1.373 . S
C2051 C2067 1.377 . S
C2052 C2050 1.389 . S
C2052 C2053 1.524 . S
C2052 C2066 1.377 . S
C2053 C2052 1.524 . S
C2053 C2054 1.397 . S
C2053 C2058 1.363 . S
C2054 H2031 0.950 . S
C2054 C2053 1.397 . S
C2054 C2055 1.334 . S
C2055 H2032 0.950 . S
C2055 C2054 1.334 . S
C2055 C2056 1.287 . S
C2056 C2055 1.287 . S
C2056 C2057 1.524 . S
C2056 H2075 0.913 . S
C2057 H2033 0.950 . S
C2057 C2056 1.524 . S
C2057 C2058 1.415 . S
C2058 H2034 0.950 . S
C2058 C2053 1.363 . S
C2058 C2057 1.415 . S
C2059 H2035 0.951 . S
C2059 C2060 1.366 . S
C2059 C2061 1.388 . S
C2060 C2059 1.366 . S
C2060 C2064 1.385 . S
C2061 H2036 0.951 . S
C2061 C2059 1.388 . S
C2061 C2062 1.366 . S
C2062 C2061 1.366 . S
C2062 C2063 1.414 . S
C2062 C2065 1.499 . S
C2063 H2037 0.950 . S
C2063 C2062 1.414 . S
C2063 C2064 1.374 . S
C2064 H2038 0.950 . S
C2064 C2060 1.385 . S
C2064 C2063 1.374 . S
C2065 C2062 1.499 . S
C2065 C2066 1.373 . S
C2065 C2067 1.389 . S
C2066 H2039 0.950 . S
C2066 C2052 1.377 . S
C2066 C2065 1.373 . S
C2067 C2051 1.377 . S
C2067 C2065 1.389 . S
C2067 C2068 1.524 . S
C2068 C2067 1.524 . S
C2068 C2069 1.397 . S
C2068 C2073 1.363 . S
C2069 H2040 0.950 . S
C2069 C2068 1.397 . S
C2069 C2070 1.334 . S
C2070 H2041 0.950 . S
C2070 C2069 1.334 . S
C2070 C2071 1.287 . S
C2071 C2070 1.287 . S
C2071 C2072 1.524 . S
C2071 H2074 0.999 . S
C2072 H2042 0.950 . S
C2072 C2071 1.524 . S
C2072 C2073 1.415 . S
C2073 H2043 0.950 . S
C2073 C2068 1.363 . S
C2073 C2072 1.415 . S
H2074 C2071 0.999 . S
H2075 C2056 0.913 . S
H2076 C2094 0.951 . S
H2077 C2096 0.951 . S
H2078 C2098 0.950 . S
H2079 C2099 0.950 . S
H2080 C2101 0.950 . S
H2081 C2104 0.950 . S
H2082 C2105 0.950 . S
H2083 C2107 0.950 . S
H2084 C2108 0.950 . S
H2085 C2109 0.951 . S
H2086 C2111 0.951 . S
H2087 C2113 0.950 . S
H2088 C2114 0.950 . S
H2089 C2116 0.950 . S
H2090 C2119 0.950 . S
H2091 C2120 0.950 . S
H2092 C2122 0.950 . S
H2093 C2123 0.950 . S
C2094 H2076 0.951 . S
C2094 C2095 1.366 . S
C2094 C2096 1.388 . S
C2095 C2094 1.366 . S
C2095 C2099 1.385 . S
C2096 H2077 0.951 . S
C2096 C2094 1.388 . S
C2096 C2097 1.366 . S
C2097 C2096 1.366 . S
C2097 C2098 1.414 . S
C2097 C2100 1.499 . S
C2098 H2078 0.950 . S
C2098 C2097 1.414 . S
C2098 C2099 1.374 . S
C2099 H2079 0.950 . S
C2099 C2095 1.385 . S
C2099 C2098 1.374 . S
C2100 C2097 1.499 . S
C2100 C2101 1.373 . S
C2100 C2102 1.389 . S
C2101 H2080 0.950 . S
C2101 C2100 1.373 . S
C2101 C2117 1.377 . S
C2102 C2100 1.389 . S
C2102 C2103 1.524 . S
C2102 C2116 1.377 . S
C2103 C2102 1.524 . S
C2103 C2104 1.397 . S
C2103 C2108 1.363 . S
C2104 H2081 0.950 . S
C2104 C2103 1.397 . S
C2104 C2105 1.334 . S
C2105 H2082 0.950 . S
C2105 C2104 1.334 . S
C2105 C2106 1.287 . S
C2106 C2105 1.287 . S
C2106 C2107 1.524 . S
C2106 H2125 0.913 . S
C2107 H2083 0.950 . S
C2107 C2106 1.524 . S
C2107 C2108 1.415 . S
C2108 H2084 0.950 . S
C2108 C2103 1.363 . S
C2108 C2107 1.415 . S
C2109 H2085 0.951 . S
C2109 C2110 1.366 . S
C2109 C2111 1.388 . S
C2110 C2109 1.366 . S
C2110 C2114 1.385 . S
C2111 H2086 0.951 . S
C2111 C2109 1.388 . S
C2111 C2112 1.366 . S
C2112 C2111 1.366 . S
C2112 C2113 1.414 . S
C2112 C2115 1.499 . S
C2113 H2087 0.950 . S
C2113 C2112 1.414 . S
C2113 C2114 1.374 . S
C2114 H2088 0.950 . S
C2114 C2110 1.385 . S
C2114 C2113 1.374 . S
C2115 C2112 1.499 . S
C2115 C2116 1.373 . S
C2115 C2117 1.389 . S
C2116 H2089 0.950 . S
C2116 C2102 1.377 . S
C2116 C2115 1.373 . S
C2117 C2101 1.377 . S
C2117 C2115 1.389 . S
C2117 C2118 1.524 . S
C2118 C2117 1.524 . S
C2118 C2119 1.397 . S
C2118 C2123 1.363 . S
C2119 H2090 0.950 . S
C2119 C2118 1.397 . S
C2119 C2120 1.334 . S
C2120 H2091 0.950 . S
C2120 C2119 1.334 . S
C2120 C2121 1.287 . S
C2121 C2120 1.287 . S
C2121 C2122 1.524 . S
C2121 H2124 0.999 . S
C2122 H2092 0.950 . S
C2122 C2121 1.524 . S
C2122 C2123 1.415 . S
C2123 H2093 0.950 . S
C2123 C2118 1.363 . S
C2123 C2122 1.415 . S
H2124 C2121 0.999 . S
H2125 C2106 0.913 . S
H2126 C2144 0.951 . S
H2127 C2146 0.951 . S
H2128 C2148 0.950 . S
H2129 C2149 0.950 . S
H2130 C2151 0.950 . S
H2131 C2154 0.950 . S
H2132 C2155 0.950 . S
H2133 C2157 0.950 . S
H2134 C2158 0.950 . S
H2135 C2159 0.951 . S
H2136 C2161 0.951 . S
H2137 C2163 0.950 . S
H2138 C2164 0.950 . S
H2139 C2166 0.950 . S
H2140 C2169 0.950 . S
H2141 C2170 0.950 . S
H2142 C2172 0.950 . S
H2143 C2173 0.950 . S
C2144 H2126 0.951 . S
C2144 C2145 1.366 . S
C2144 C2146 1.388 . S
C2145 C2144 1.366 . S
C2145 C2149 1.385 . S
C2146 H2127 0.951 . S
C2146 C2144 1.388 . S
C2146 C2147 1.366 . S
C2147 C2146 1.366 . S
C2147 C2148 1.414 . S
C2147 C2150 1.499 . S
C2148 H2128 0.950 . S
C2148 C2147 1.414 . S
C2148 C2149 1.374 . S
C2149 H2129 0.950 . S
C2149 C2145 1.385 . S
C2149 C2148 1.374 . S
C2150 C2147 1.499 . S
C2150 C2151 1.373 . S
C2150 C2152 1.389 . S
C2151 H2130 0.950 . S
C2151 C2150 1.373 . S
C2151 C2167 1.377 . S
C2152 C2150 1.389 . S
C2152 C2153 1.524 . S
C2152 C2166 1.377 . S
C2153 C2152 1.524 . S
C2153 C2154 1.397 . S
C2153 C2158 1.363 . S
C2154 H2131 0.950 . S
C2154 C2153 1.397 . S
C2154 C2155 1.334 . S
C2155 H2132 0.950 . S
C2155 C2154 1.334 . S
C2155 C2156 1.287 . S
C2156 C2155 1.287 . S
C2156 C2157 1.524 . S
C2156 H2175 0.913 . S
C2157 H2133 0.950 . S
C2157 C2156 1.524 . S
C2157 C2158 1.415 . S
C2158 H2134 0.950 . S
C2158 C2153 1.363 . S
C2158 C2157 1.415 . S
C2159 H2135 0.951 . S
C2159 C2160 1.366 . S
C2159 C2161 1.388 . S
C2160 C2159 1.366 . S
C2160 C2164 1.385 . S
C2161 H2136 0.951 . S
C2161 C2159 1.388 . S
C2161 C2162 1.366 . S
C2162 C2161 1.366 . S
C2162 C2163 1.414 . S
C2162 C2165 1.499 . S
C2163 H2137 0.950 . S
C2163 C2162 1.414 . S
C2163 C2164 1.374 . S
C2164 H2138 0.950 . S
C2164 C2160 1.385 . S
C2164 C2163 1.374 . S
C2165 C2162 1.499 . S
C2165 C2166 1.373 . S
C2165 C2167 1.389 . S
C2166 H2139 0.950 . S
C2166 C2152 1.377 . S
C2166 C2165 1.373 . S
C2167 C2151 1.377 . S
C2167 C2165 1.389 . S
C2167 C2168 1.524 . S
C2168 C2167 1.524 . S
C2168 C2169 1.397 . S
C2168 C2173 1.363 . S
C2169 H2140 0.950 . S
C2169 C2168 1.397 . S
C2169 C2170 1.334 . S
C2170 H2141 0.950 . S
C2170 C2169 1.334 . S
C2170 C2171 1.287 . S
C2171 C2170 1.287 . S
C2171 C2172 1.524 . S
C2171 H2174 0.999 . S
C2172 H2142 0.950 . S
C2172 C2171 1.524 . S
C2172 C2173 1.415 . S
C2173 H2143 0.950 . S
C2173 C2168 1.363 . S
C2173 C2172 1.415 . S
H2174 C2171 0.999 . S
H2175 C2156 0.913 . S
H2176 C2194 0.951 . S
H2177 C2196 0.951 . S
H2178 C2198 0.950 . S
H2179 C2199 0.950 . S
H2180 C2201 0.950 . S
H2181 C2204 0.950 . S
H2182 C2205 0.950 . S
H2183 C2207 0.950 . S
H2184 C2208 0.950 . S
H2185 C2209 0.951 . S
H2186 C2211 0.951 . S
H2187 C2213 0.950 . S
H2188 C2214 0.950 . S
H2189 C2216 0.950 . S
H2190 C2219 0.950 . S
H2191 C2220 0.950 1_655 S
H2192 C2222 0.950 . S
H2193 C2223 0.950 . S
C2194 H2176 0.951 . S
C2194 C2195 1.366 . S
C2194 C2196 1.388 . S
C2195 C2194 1.366 . S
C2195 C2199 1.385 . S
C2196 H2177 0.951 . S
C2196 C2194 1.388 . S
C2196 C2197 1.366 . S
C2197 C2196 1.366 . S
C2197 C2198 1.414 . S
C2197 C2200 1.499 . S
C2198 H2178 0.950 . S
C2198 C2197 1.414 . S
C2198 C2199 1.374 . S
C2199 H2179 0.950 . S
C2199 C2195 1.385 . S
C2199 C2198 1.374 . S
C2200 C2197 1.499 . S
C2200 C2201 1.373 . S
C2200 C2202 1.389 . S
C2201 H2180 0.950 . S
C2201 C2200 1.373 . S
C2201 C2217 1.377 . S
C2202 C2200 1.389 . S
C2202 C2203 1.524 . S
C2202 C2216 1.377 . S
C2203 C2202 1.524 . S
C2203 C2204 1.397 . S
C2203 C2208 1.363 . S
C2204 H2181 0.950 . S
C2204 C2203 1.397 . S
C2204 C2205 1.334 . S
C2205 H2182 0.950 . S
C2205 C2204 1.334 . S
C2205 C2206 1.287 . S
C2206 C2205 1.287 . S
C2206 C2207 1.524 . S
C2206 H2225 0.913 . S
C2207 H2183 0.950 . S
C2207 C2206 1.524 . S
C2207 C2208 1.415 . S
C2208 H2184 0.950 . S
C2208 C2203 1.363 . S
C2208 C2207 1.415 . S
C2209 H2185 0.951 . S
C2209 C2210 1.366 . S
C2209 C2211 1.388 . S
C2210 C2209 1.366 . S
C2210 C2214 1.385 . S
C2211 H2186 0.951 . S
C2211 C2209 1.388 . S
C2211 C2212 1.366 . S
C2212 C2211 1.366 . S
C2212 C2213 1.414 . S
C2212 C2215 1.499 . S
C2213 H2187 0.950 . S
C2213 C2212 1.414 . S
C2213 C2214 1.374 . S
C2214 H2188 0.950 . S
C2214 C2210 1.385 . S
C2214 C2213 1.374 . S
C2215 C2212 1.499 . S
C2215 C2216 1.373 . S
C2215 C2217 1.389 . S
C2216 H2189 0.950 . S
C2216 C2202 1.377 . S
C2216 C2215 1.373 . S
C2217 C2201 1.377 . S
C2217 C2215 1.389 . S
C2217 C2218 1.524 . S
C2218 C2217 1.524 . S
C2218 C2219 1.397 . S
C2218 C2223 1.363 . S
C2219 H2190 0.950 . S
C2219 C2218 1.397 . S
C2219 C2220 1.334 . S
C2220 H2191 0.950 1_455 S
C2220 C2219 1.334 . S
C2220 C2221 1.287 . S
C2221 C2220 1.287 . S
C2221 C2222 1.524 . S
C2221 H2224 0.999 . S
C2222 H2192 0.950 . S
C2222 C2221 1.524 . S
C2222 C2223 1.415 . S
C2223 H2193 0.950 . S
C2223 C2218 1.363 . S
C2223 C2222 1.415 . S
H2224 C2221 0.999 . S
H2225 C2206 0.913 . S
H2226 C2244 0.951 . S
H2227 C2246 0.951 . S
H2228 C2248 0.950 . S
H2229 C2249 0.950 . S
H2230 C2251 0.950 . S
H2231 C2254 0.950 . S
H2232 C2255 0.950 . S
H2233 C2257 0.950 . S
H2234 C2258 0.950 . S
H2235 C2259 0.951 . S
H2236 C2261 0.951 . S
H2237 C2263 0.950 . S
H2238 C2264 0.950 . S
H2239 C2266 0.950 . S
H2240 C2269 0.950 . S
H2241 C2270 0.950 . S
H2242 C2272 0.950 . S
H2243 C2273 0.950 . S
C2244 H2226 0.951 . S
C2244 C2245 1.366 . S
C2244 C2246 1.388 . S
C2245 C2244 1.366 . S
C2245 C2249 1.385 . S
C2246 H2227 0.951 . S
C2246 C2244 1.388 . S
C2246 C2247 1.366 . S
C2247 C2246 1.366 . S
C2247 C2248 1.414 . S
C2247 C2250 1.499 . S
C2248 H2228 0.950 . S
C2248 C2247 1.414 . S
C2248 C2249 1.374 . S
C2249 H2229 0.950 . S
C2249 C2245 1.385 . S
C2249 C2248 1.374 . S
C2250 C2247 1.499 . S
C2250 C2251 1.373 . S
C2250 C2252 1.389 . S
C2251 H2230 0.950 . S
C2251 C2250 1.373 . S
C2251 C2267 1.377 . S
C2252 C2250 1.389 . S
C2252 C2253 1.524 . S
C2252 C2266 1.377 . S
C2253 C2252 1.524 . S
C2253 C2254 1.397 . S
C2253 C2258 1.363 . S
C2254 H2231 0.950 . S
C2254 C2253 1.397 . S
C2254 C2255 1.334 . S
C2255 H2232 0.950 . S
C2255 C2254 1.334 . S
C2255 C2256 1.287 . S
C2256 C2255 1.287 . S
C2256 C2257 1.524 . S
C2256 H2275 0.913 . S
C2257 H2233 0.950 . S
C2257 C2256 1.524 . S
C2257 C2258 1.415 . S
C2258 H2234 0.950 . S
C2258 C2253 1.363 . S
C2258 C2257 1.415 . S
C2259 H2235 0.951 . S
C2259 C2260 1.366 . S
C2259 C2261 1.388 . S
C2260 C2259 1.366 . S
C2260 C2264 1.385 . S
C2261 H2236 0.951 . S
C2261 C2259 1.388 . S
C2261 C2262 1.366 . S
C2262 C2261 1.366 . S
C2262 C2263 1.414 . S
C2262 C2265 1.499 . S
C2263 H2237 0.950 . S
C2263 C2262 1.414 . S
C2263 C2264 1.374 . S
C2264 H2238 0.950 . S
C2264 C2260 1.385 . S
C2264 C2263 1.374 . S
C2265 C2262 1.499 . S
C2265 C2266 1.373 . S
C2265 C2267 1.389 . S
C2266 H2239 0.950 . S
C2266 C2252 1.377 . S
C2266 C2265 1.373 . S
C2267 C2251 1.377 . S
C2267 C2265 1.389 . S
C2267 C2268 1.524 . S
C2268 C2267 1.524 . S
C2268 C2269 1.397 . S
C2268 C2273 1.363 . S
C2269 H2240 0.950 . S
C2269 C2268 1.397 . S
C2269 C2270 1.334 . S
C2270 H2241 0.950 . S
C2270 C2269 1.334 . S
C2270 C2271 1.287 . S
C2271 C2270 1.287 . S
C2271 C2272 1.524 . S
C2271 H2274 0.999 . S
C2272 H2242 0.950 . S
C2272 C2271 1.524 . S
C2272 C2273 1.415 . S
C2273 H2243 0.950 . S
C2273 C2268 1.363 . S
C2273 C2272 1.415 . S
H2274 C2271 0.999 . S
H2275 C2256 0.913 . S
H2276 C2294 0.951 . S
H2277 C2296 0.951 . S
H2278 C2298 0.950 . S
H2279 C2299 0.950 . S
H2280 C2301 0.950 . S
H2281 C2304 0.950 . S
H2282 C2305 0.950 . S
H2283 C2307 0.950 . S
H2284 C2308 0.950 . S
H2285 C2309 0.951 . S
H2286 C2311 0.951 . S
H2287 C2313 0.950 . S
H2288 C2314 0.950 . S
H2289 C2316 0.950 . S
H2290 C2319 0.950 . S
H2291 C2320 0.950 . S
H2292 C2322 0.950 . S
H2293 C2323 0.950 . S
C2294 H2276 0.951 . S
C2294 C2295 1.366 . S
C2294 C2296 1.388 . S
C2295 C2294 1.366 . S
C2295 C2299 1.385 . S
C2296 H2277 0.951 . S
C2296 C2294 1.388 . S
C2296 C2297 1.366 . S
C2297 C2296 1.366 . S
C2297 C2298 1.414 . S
C2297 C2300 1.499 . S
C2298 H2278 0.950 . S
C2298 C2297 1.414 . S
C2298 C2299 1.374 . S
C2299 H2279 0.950 . S
C2299 C2295 1.385 . S
C2299 C2298 1.374 . S
C2300 C2297 1.499 . S
C2300 C2301 1.373 . S
C2300 C2302 1.389 . S
C2301 H2280 0.950 . S
C2301 C2300 1.373 . S
C2301 C2317 1.377 . S
C2302 C2300 1.389 . S
C2302 C2303 1.524 . S
C2302 C2316 1.377 . S
C2303 C2302 1.524 . S
C2303 C2304 1.397 . S
C2303 C2308 1.363 . S
C2304 H2281 0.950 . S
C2304 C2303 1.397 . S
C2304 C2305 1.334 . S
C2305 H2282 0.950 . S
C2305 C2304 1.334 . S
C2305 C2306 1.287 . S
C2306 C2305 1.287 . S
C2306 C2307 1.524 . S
C2306 H2325 0.913 . S
C2307 H2283 0.950 . S
C2307 C2306 1.524 . S
C2307 C2308 1.415 . S
C2308 H2284 0.950 . S
C2308 C2303 1.363 . S
C2308 C2307 1.415 . S
C2309 H2285 0.951 . S
C2309 C2310 1.366 . S
C2309 C2311 1.388 . S
C2310 C2309 1.366 . S
C2310 C2314 1.385 . S
C2311 H2286 0.951 . S
C2311 C2309 1.388 . S
C2311 C2312 1.366 . S
C2312 C2311 1.366 . S
C2312 C2313 1.414 . S
C2312 C2315 1.499 . S
C2313 H2287 0.950 . S
C2313 C2312 1.414 . S
C2313 C2314 1.374 . S
C2314 H2288 0.950 . S
C2314 C2310 1.385 . S
C2314 C2313 1.374 . S
C2315 C2312 1.499 . S
C2315 C2316 1.373 . S
C2315 C2317 1.389 . S
C2316 H2289 0.950 . S
C2316 C2302 1.377 . S
C2316 C2315 1.373 . S
C2317 C2301 1.377 . S
C2317 C2315 1.389 . S
C2317 C2318 1.524 . S
C2318 C2317 1.524 . S
C2318 C2319 1.397 . S
C2318 C2323 1.363 . S
C2319 H2290 0.950 . S
C2319 C2318 1.397 . S
C2319 C2320 1.334 . S
C2320 H2291 0.950 . S
C2320 C2319 1.334 . S
C2320 C2321 1.287 . S
C2321 C2320 1.287 . S
C2321 C2322 1.524 . S
C2321 H2324 0.999 . S
C2322 H2292 0.950 . S
C2322 C2321 1.524 . S
C2322 C2323 1.415 . S
C2323 H2293 0.950 . S
C2323 C2318 1.363 . S
C2323 C2322 1.415 . S
H2324 C2321 0.999 . S
H2325 C2306 0.913 . S
H2326 C2344 0.951 . S
H2327 C2346 0.951 . S
H2328 C2348 0.950 . S
H2329 C2349 0.950 . S
H2330 C2351 0.950 . S
H2331 C2354 0.950 . S
H2332 C2355 0.950 . S
H2333 C2357 0.950 . S
H2334 C2358 0.950 . S
H2335 C2359 0.951 . S
H2336 C2361 0.951 . S
H2337 C2363 0.950 . S
H2338 C2364 0.950 . S
H2339 C2366 0.950 . S
H2340 C2369 0.950 . S
H2341 C2370 0.950 . S
H2342 C2372 0.950 . S
H2343 C2373 0.950 . S
C2344 H2326 0.951 . S
C2344 C2345 1.366 . S
C2344 C2346 1.388 . S
C2345 C2344 1.366 . S
C2345 C2349 1.385 . S
C2346 H2327 0.951 . S
C2346 C2344 1.388 . S
C2346 C2347 1.366 . S
C2347 C2346 1.366 . S
C2347 C2348 1.414 . S
C2347 C2350 1.499 . S
C2348 H2328 0.950 . S
C2348 C2347 1.414 . S
C2348 C2349 1.374 . S
C2349 H2329 0.950 . S
C2349 C2345 1.385 . S
C2349 C2348 1.374 . S
C2350 C2347 1.499 . S
C2350 C2351 1.373 . S
C2350 C2352 1.389 . S
C2351 H2330 0.950 . S
C2351 C2350 1.373 . S
C2351 C2367 1.377 . S
C2352 C2350 1.389 . S
C2352 C2353 1.524 . S
C2352 C2366 1.377 . S
C2353 C2352 1.524 . S
C2353 C2354 1.397 . S
C2353 C2358 1.363 . S
C2354 H2331 0.950 . S
C2354 C2353 1.397 . S
C2354 C2355 1.334 . S
C2355 H2332 0.950 . S
C2355 C2354 1.334 . S
C2355 C2356 1.287 . S
C2356 C2355 1.287 . S
C2356 C2357 1.524 . S
C2356 H2375 0.913 . S
C2357 H2333 0.950 . S
C2357 C2356 1.524 . S
C2357 C2358 1.415 . S
C2358 H2334 0.950 . S
C2358 C2353 1.363 . S
C2358 C2357 1.415 . S
C2359 H2335 0.951 . S
C2359 C2360 1.366 . S
C2359 C2361 1.388 . S
C2360 C2359 1.366 . S
C2360 C2364 1.385 . S
C2361 H2336 0.951 . S
C2361 C2359 1.388 . S
C2361 C2362 1.366 . S
C2362 C2361 1.366 . S
C2362 C2363 1.414 . S
C2362 C2365 1.499 . S
C2363 H2337 0.950 . S
C2363 C2362 1.414 . S
C2363 C2364 1.374 . S
C2364 H2338 0.950 . S
C2364 C2360 1.385 . S
C2364 C2363 1.374 . S
C2365 C2362 1.499 . S
C2365 C2366 1.373 . S
C2365 C2367 1.389 . S
C2366 H2339 0.950 . S
C2366 C2352 1.377 . S
C2366 C2365 1.373 . S
C2367 C2351 1.377 . S
C2367 C2365 1.389 . S
C2367 C2368 1.524 . S
C2368 C2367 1.524 . S
C2368 C2369 1.397 . S
C2368 C2373 1.363 . S
C2369 H2340 0.950 . S
C2369 C2368 1.397 . S
C2369 C2370 1.334 . S
C2370 H2341 0.950 . S
C2370 C2369 1.334 . S
C2370 C2371 1.287 . S
C2371 C2370 1.287 . S
C2371 C2372 1.524 . S
C2371 H2374 0.999 . S
C2372 H2342 0.950 . S
C2372 C2371 1.524 . S
C2372 C2373 1.415 . S
C2373 H2343 0.950 . S
C2373 C2368 1.363 . S
C2373 C2372 1.415 . S
H2374 C2371 0.999 . S
H2375 C2356 0.913 . S
H2376 C2394 0.951 . S
H2377 C2396 0.951 . S
H2378 C2398 0.950 . S
H2379 C2399 0.950 . S
H2380 C2401 0.950 . S
H2381 C2404 0.950 . S
H2382 C2405 0.950 . S
H2383 C2407 0.950 . S
H2384 C2408 0.950 . S
H2385 C2409 0.917 1_655 S
H2386 C2411 0.951 1_655 S
H2387 C2413 0.950 . S
H2388 C2414 0.950 . S
H2389 C2416 0.950 . S
H2390 C2419 0.950 . S
H2391 C2420 0.950 . S
H2392 C2422 0.950 . S
H2393 C2423 0.950 . S
C2394 H2376 0.951 . S
C2394 C2395 1.366 . S
C2394 C2396 1.388 . S
C2395 C2394 1.366 . S
C2395 C2399 1.385 1_455 S
C2396 H2377 0.951 . S
C2396 C2394 1.388 . S
C2396 C2397 1.366 . S
C2397 C2396 1.366 . S
C2397 C2398 1.414 1_455 S
C2397 C2400 1.499 . S
C2398 H2378 0.950 . S
C2398 C2397 1.414 1_655 S
C2398 C2399 1.374 . S
C2399 H2379 0.950 . S
C2399 C2395 1.385 1_655 S
C2399 C2398 1.374 . S
C2400 C2397 1.499 . S
C2400 C2401 1.373 . S
C2400 C2402 1.389 . S
C2401 H2380 0.950 . S
C2401 C2400 1.373 . S
C2401 C2417 1.377 . S
C2402 C2400 1.389 . S
C2402 C2403 1.524 1_455 S
C2402 C2416 1.377 . S
C2403 C2402 1.524 1_655 S
C2403 C2404 1.397 . S
C2403 C2408 1.363 1_655 S
C2404 H2381 0.950 . S
C2404 C2403 1.397 . S
C2404 C2405 1.334 . S
C2405 H2382 0.950 . S
C2405 C2404 1.334 . S
C2405 C2406 1.287 . S
C2406 C2405 1.287 . S
C2406 C2407 1.524 . S
C2406 H2425 0.913 . S
C2407 H2383 0.950 . S
C2407 C2406 1.524 . S
C2407 C2408 1.415 1_655 S
C2408 H2384 0.950 . S
C2408 C2403 1.363 1_455 S
C2408 C2407 1.415 1_455 S
C2409 H2385 0.917 1_455 S
C2409 C2410 1.366 . S
C2409 C2411 1.388 . S
C2410 C2409 1.366 . S
C2410 C2414 1.385 . S
C2411 H2386 0.951 1_455 S
C2411 C2409 1.388 . S
C2411 C2412 1.366 . S
C2412 C2411 1.366 . S
C2412 C2413 1.414 . S
C2412 C2415 1.499 . S
C2413 H2387 0.950 . S
C2413 C2412 1.414 . S
C2413 C2414 1.374 . S
C2414 H2388 0.950 . S
C2414 C2410 1.385 . S
C2414 C2413 1.374 . S
C2415 C2412 1.499 . S
C2415 C2416 1.373 . S
C2415 C2417 1.389 . S
C2416 H2389 0.950 . S
C2416 C2402 1.377 . S
C2416 C2415 1.373 . S
C2417 C2401 1.377 . S
C2417 C2415 1.389 . S
C2417 C2418 1.524 . S
C2418 C2417 1.524 . S
C2418 C2419 1.397 . S
C2418 C2423 1.363 . S
C2419 H2390 0.950 . S
C2419 C2418 1.397 . S
C2419 C2420 1.334 . S
C2420 H2391 0.950 . S
C2420 C2419 1.334 . S
C2420 C2421 1.287 . S
C2421 C2420 1.287 . S
C2421 C2422 1.524 . S
C2421 H2424 0.999 . S
C2422 H2392 0.950 . S
C2422 C2421 1.524 . S
C2422 C2423 1.415 . S
C2423 H2393 0.950 . S
C2423 C2418 1.363 . S
C2423 C2422 1.415 . S
H2424 C2421 0.999 . S
H2425 C2406 0.913 . S
H2426 C2444 0.951 . S
H2427 C2446 0.951 . S
H2428 C2448 0.950 . S
H2429 C2449 0.950 . S
H2430 C2451 0.950 . S
H2431 C2454 0.950 . S
H2432 C2455 0.950 . S
H2433 C2457 0.950 . S
H2434 C2458 0.950 . S
H2435 C2459 0.951 . S
H2436 C2461 0.951 . S
H2437 C2463 0.950 . S
H2438 C2464 0.950 . S
H2439 C2466 0.950 . S
H2440 C2469 0.950 . S
H2441 C2470 0.950 . S
H2442 C2472 0.950 . S
H2443 C2473 0.950 . S
C2444 H2426 0.951 . S
C2444 C2445 1.366 . S
C2444 C2446 1.388 . S
C2445 C2444 1.366 . S
C2445 C2449 1.385 . S
C2446 H2427 0.951 . S
C2446 C2444 1.388 . S
C2446 C2447 1.366 . S
C2447 C2446 1.366 . S
C2447 C2448 1.414 . S
C2447 C2450 1.499 . S
C2448 H2428 0.950 . S
C2448 C2447 1.414 . S
C2448 C2449 1.374 . S
C2449 H2429 0.950 . S
C2449 C2445 1.385 . S
C2449 C2448 1.374 . S
C2450 C2447 1.499 . S
C2450 C2451 1.373 . S
C2450 C2452 1.389 . S
C2451 H2430 0.950 . S
C2451 C2450 1.373 . S
C2451 C2467 1.377 . S
C2452 C2450 1.389 . S
C2452 C2453 1.524 . S
C2452 C2466 1.377 . S
C2453 C2452 1.524 . S
C2453 C2454 1.397 . S
C2453 C2458 1.363 . S
C2454 H2431 0.950 . S
C2454 C2453 1.397 . S
C2454 C2455 1.334 . S
C2455 H2432 0.950 . S
C2455 C2454 1.334 . S
C2455 C2456 1.287 . S
C2456 C2455 1.287 . S
C2456 C2457 1.524 . S
C2456 H2475 0.913 . S
C2457 H2433 0.950 . S
C2457 C2456 1.524 . S
C2457 C2458 1.415 . S
C2458 H2434 0.950 . S
C2458 C2453 1.363 . S
C2458 C2457 1.415 . S
C2459 H2435 0.951 . S
C2459 C2460 1.366 . S
C2459 C2461 1.388 . S
C2460 C2459 1.366 . S
C2460 C2464 1.385 . S
C2461 H2436 0.951 . S
C2461 C2459 1.388 . S
C2461 C2462 1.366 . S
C2462 C2461 1.366 . S
C2462 C2463 1.414 . S
C2462 C2465 1.499 . S
C2463 H2437 0.950 . S
C2463 C2462 1.414 . S
C2463 C2464 1.374 . S
C2464 H2438 0.950 . S
C2464 C2460 1.385 . S
C2464 C2463 1.374 . S
C2465 C2462 1.499 . S
C2465 C2466 1.373 . S
C2465 C2467 1.389 . S
C2466 H2439 0.950 . S
C2466 C2452 1.377 . S
C2466 C2465 1.373 . S
C2467 C2451 1.377 . S
C2467 C2465 1.389 . S
C2467 C2468 1.524 . S
C2468 C2467 1.524 . S
C2468 C2469 1.397 . S
C2468 C2473 1.363 . S
C2469 H2440 0.950 . S
C2469 C2468 1.397 . S
C2469 C2470 1.334 . S
C2470 H2441 0.950 . S
C2470 C2469 1.334 . S
C2470 C2471 1.287 . S
C2471 C2470 1.287 . S
C2471 C2472 1.524 . S
C2471 H2474 0.999 . S
C2472 H2442 0.950 . S
C2472 C2471 1.524 . S
C2472 C2473 1.415 . S
C2473 H2443 0.950 . S
C2473 C2468 1.363 . S
C2473 C2472 1.415 . S
H2474 C2471 0.999 . S
H2475 C2456 0.913 . S
H2476 C2494 0.951 . S
H2477 C2496 0.951 . S
H2478 C2498 0.950 . S
H2479 C2499 0.950 . S
H2480 C2501 0.950 . S
H2481 C2504 0.950 . S
H2482 C2505 0.950 . S
H2483 C2507 0.950 . S
H2484 C2508 0.950 . S
H2485 C2509 0.951 . S
H2486 C2511 0.951 . S
H2487 C2513 0.950 . S
H2488 C2514 0.950 . S
H2489 C2516 0.950 . S
H2490 C2519 0.950 . S
H2491 C2520 0.950 . S
H2492 C2522 0.950 . S
H2493 C2523 0.950 . S
C2494 H2476 0.951 . S
C2494 C2495 1.366 . S
C2494 C2496 1.388 . S
C2495 C2494 1.366 . S
C2495 C2499 1.385 . S
C2496 H2477 0.951 . S
C2496 C2494 1.388 . S
C2496 C2497 1.366 . S
C2497 C2496 1.366 . S
C2497 C2498 1.414 . S
C2497 C2500 1.499 . S
C2498 H2478 0.950 . S
C2498 C2497 1.414 . S
C2498 C2499 1.374 . S
C2499 H2479 0.950 . S
C2499 C2495 1.385 . S
C2499 C2498 1.374 . S
C2500 C2497 1.499 . S
C2500 C2501 1.373 . S
C2500 C2502 1.389 . S
C2501 H2480 0.950 . S
C2501 C2500 1.373 . S
C2501 C2517 1.377 . S
C2502 C2500 1.389 . S
C2502 C2503 1.524 . S
C2502 C2516 1.377 . S
C2503 C2502 1.524 . S
C2503 C2504 1.397 . S
C2503 C2508 1.363 . S
C2504 H2481 0.950 . S
C2504 C2503 1.397 . S
C2504 C2505 1.334 . S
C2505 H2482 0.950 . S
C2505 C2504 1.334 . S
C2505 C2506 1.287 . S
C2506 C2505 1.287 . S
C2506 C2507 1.524 . S
C2506 H2525 0.913 . S
C2507 H2483 0.950 . S
C2507 C2506 1.524 . S
C2507 C2508 1.415 . S
C2508 H2484 0.950 . S
C2508 C2503 1.363 . S
C2508 C2507 1.415 . S
C2509 H2485 0.951 . S
C2509 C2510 1.366 . S
C2509 C2511 1.388 . S
C2510 C2509 1.366 . S
C2510 C2514 1.385 . S
C2511 H2486 0.951 . S
C2511 C2509 1.388 . S
C2511 C2512 1.366 1_554 S
C2512 C2511 1.366 1_556 S
C2512 C2513 1.414 . S
C2512 C2515 1.499 . S
C2513 H2487 0.950 . S
C2513 C2512 1.414 . S
C2513 C2514 1.374 1_556 S
C2514 H2488 0.950 . S
C2514 C2510 1.385 . S
C2514 C2513 1.374 1_554 S
C2515 C2512 1.499 . S
C2515 C2516 1.373 . S
C2515 C2517 1.389 . S
C2516 H2489 0.950 . S
C2516 C2502 1.377 . S
C2516 C2515 1.373 . S
C2517 C2501 1.377 . S
C2517 C2515 1.389 . S
C2517 C2518 1.524 . S
C2518 C2517 1.524 . S
C2518 C2519 1.397 . S
C2518 C2523 1.363 . S
C2519 H2490 0.950 . S
C2519 C2518 1.397 . S
C2519 C2520 1.334 . S
C2520 H2491 0.950 . S
C2520 C2519 1.334 . S
C2520 C2521 1.287 . S
C2521 C2520 1.287 . S
C2521 C2522 1.524 . S
C2521 H2524 0.999 . S
C2522 H2492 0.950 . S
C2522 C2521 1.524 . S
C2522 C2523 1.415 . S
C2523 H2493 0.950 . S
C2523 C2518 1.363 . S
C2523 C2522 1.415 . S
H2524 C2521 0.999 . S
H2525 C2506 0.913 . S
H2526 C2544 0.951 . S
H2527 C2546 0.951 . S
H2528 C2548 0.950 . S
H2529 C2549 0.950 . S
H2530 C2551 0.950 . S
H2531 C2554 0.950 . S
H2532 C2555 0.950 . S
H2533 C2557 0.950 . S
H2534 C2558 0.950 . S
H2535 C2559 0.951 . S
H2536 C2561 0.951 . S
H2537 C2563 0.950 . S
H2538 C2564 0.950 . S
H2539 C2566 0.950 . S
H2540 C2569 0.950 . S
H2541 C2570 0.950 . S
H2542 C2572 0.950 . S
H2543 C2573 0.950 . S
C2544 H2526 0.951 . S
C2544 C2545 1.366 1_655 S
C2544 C2546 1.388 . S
C2545 C2544 1.366 1_455 S
C2545 C2549 1.385 . S
C2546 H2527 0.951 . S
C2546 C2544 1.388 . S
C2546 C2547 1.366 . S
C2547 C2546 1.366 . S
C2547 C2548 1.414 . S
C2547 C2550 1.499 . S
C2548 H2528 0.950 . S
C2548 C2547 1.414 . S
C2548 C2549 1.374 1_655 S
C2549 H2529 0.950 . S
C2549 C2545 1.385 . S
C2549 C2548 1.374 1_455 S
C2550 C2547 1.499 . S
C2550 C2551 1.373 . S
C2550 C2552 1.389 . S
C2551 H2530 0.950 . S
C2551 C2550 1.373 . S
C2551 C2567 1.377 . S
C2552 C2550 1.389 . S
C2552 C2553 1.524 . S
C2552 C2566 1.377 . S
C2553 C2552 1.524 . S
C2553 C2554 1.397 . S
C2553 C2558 1.363 . S
C2554 H2531 0.950 . S
C2554 C2553 1.397 . S
C2554 C2555 1.334 . S
C2555 H2532 0.950 . S
C2555 C2554 1.334 . S
C2555 C2556 1.287 . S
C2556 C2555 1.287 . S
C2556 C2557 1.524 . S
C2556 H2575 0.913 . S
C2557 H2533 0.950 . S
C2557 C2556 1.524 . S
C2557 C2558 1.415 . S
C2558 H2534 0.950 . S
C2558 C2553 1.363 . S
C2558 C2557 1.415 . S
C2559 H2535 0.951 . S
C2559 C2560 1.366 . S
C2559 C2561 1.388 . S
C2560 C2559 1.366 . S
C2560 C2564 1.385 . S
C2561 H2536 0.951 . S
C2561 C2559 1.388 . S
C2561 C2562 1.366 . S
C2562 C2561 1.366 . S
C2562 C2563 1.414 . S
C2562 C2565 1.499 . S
C2563 H2537 0.950 . S
C2563 C2562 1.414 . S
C2563 C2564 1.374 . S
C2564 H2538 0.950 . S
C2564 C2560 1.385 . S
C2564 C2563 1.374 . S
C2565 C2562 1.499 . S
C2565 C2566 1.373 . S
C2565 C2567 1.389 . S
C2566 H2539 0.950 . S
C2566 C2552 1.377 . S
C2566 C2565 1.373 . S
C2567 C2551 1.377 . S
C2567 C2565 1.389 . S
C2567 C2568 1.524 . S
C2568 C2567 1.524 . S
C2568 C2569 1.397 . S
C2568 C2573 1.363 . S
C2569 H2540 0.950 . S
C2569 C2568 1.397 . S
C2569 C2570 1.334 . S
C2570 H2541 0.950 . S
C2570 C2569 1.334 . S
C2570 C2571 1.287 . S
C2571 C2570 1.287 . S
C2571 C2572 1.524 . S
C2571 H2574 0.999 . S
C2572 H2542 0.950 . S
C2572 C2571 1.524 . S
C2572 C2573 1.415 . S
C2573 H2543 0.950 . S
C2573 C2568 1.363 . S
C2573 C2572 1.415 . S
H2574 C2571 0.999 . S
H2575 C2556 0.913 . S
H2576 C2594 0.951 . S
H2577 C2596 0.951 . S
H2578 C2598 0.950 . S
H2579 C2599 0.950 . S
H2580 C2601 0.950 . S
H2581 C2604 0.950 . S
H2582 C2605 0.950 . S
H2583 C2607 0.950 . S
H2584 C2608 0.950 . S
H2585 C2609 0.951 . S
H2586 C2611 0.951 . S
H2587 C2613 0.950 . S
H2588 C2614 0.950 . S
H2589 C2616 0.950 1_565 S
H2590 C2619 0.950 . S
H2591 C2620 0.950 . S
H2592 C2622 0.950 . S
H2593 C2623 0.950 . S
C2594 H2576 0.951 . S
C2594 C2595 1.366 . S
C2594 C2596 1.388 . S
C2595 C2594 1.366 . S
C2595 C2599 1.385 . S
C2596 H2577 0.951 . S
C2596 C2594 1.388 . S
C2596 C2597 1.366 . S
C2597 C2596 1.366 . S
C2597 C2598 1.414 . S
C2597 C2600 1.499 . S
C2598 H2578 0.950 . S
C2598 C2597 1.414 . S
C2598 C2599 1.374 . S
C2599 H2579 0.950 . S
C2599 C2595 1.385 . S
C2599 C2598 1.374 . S
C2600 C2597 1.499 . S
C2600 C2601 1.373 . S
C2600 C2602 1.389 . S
C2601 H2580 0.950 . S
C2601 C2600 1.373 . S
C2601 C2617 1.377 . S
C2602 C2600 1.389 . S
C2602 C2603 1.524 1_545 S
C2602 C2616 1.377 . S
C2603 C2602 1.524 1_565 S
C2603 C2604 1.397 . S
C2603 C2608 1.363 . S
C2604 H2581 0.950 . S
C2604 C2603 1.397 . S
C2604 C2605 1.334 . S
C2605 H2582 0.950 . S
C2605 C2604 1.334 . S
C2605 C2606 1.287 . S
C2606 C2605 1.287 . S
C2606 C2607 1.524 . S
C2606 H2625 0.913 . S
C2607 H2583 0.950 . S
C2607 C2606 1.524 . S
C2607 C2608 1.415 . S
C2608 H2584 0.950 . S
C2608 C2603 1.363 . S
C2608 C2607 1.415 . S
C2609 H2585 0.951 . S
C2609 C2610 1.366 . S
C2609 C2611 1.388 . S
C2610 C2609 1.366 . S
C2610 C2614 1.385 . S
C2611 H2586 0.951 . S
C2611 C2609 1.388 . S
C2611 C2612 1.366 . S
C2612 C2611 1.366 . S
C2612 C2613 1.414 . S
C2612 C2615 1.499 . S
C2613 H2587 0.950 . S
C2613 C2612 1.414 . S
C2613 C2614 1.374 . S
C2614 H2588 0.950 . S
C2614 C2610 1.385 . S
C2614 C2613 1.374 . S
C2615 C2612 1.499 . S
C2615 C2616 1.373 . S
C2615 C2617 1.389 . S
C2616 H2589 0.950 1_545 S
C2616 C2602 1.377 . S
C2616 C2615 1.373 . S
C2617 C2601 1.377 . S
C2617 C2615 1.389 . S
C2617 C2618 1.524 . S
C2618 C2617 1.524 . S
C2618 C2619 1.397 . S
C2618 C2623 1.363 . S
C2619 H2590 0.950 . S
C2619 C2618 1.397 . S
C2619 C2620 1.334 . S
C2620 H2591 0.950 . S
C2620 C2619 1.334 . S
C2620 C2621 1.287 . S
C2621 C2620 1.287 . S
C2621 C2622 1.524 . S
C2621 H2624 0.999 . S
C2622 H2592 0.950 . S
C2622 C2621 1.524 . S
C2622 C2623 1.415 . S
C2623 H2593 0.950 . S
C2623 C2618 1.363 . S
C2623 C2622 1.415 . S
H2624 C2621 0.999 . S
H2625 C2606 0.913 . S
H2626 C2644 0.951 . S
H2627 C2646 0.951 . S
H2628 C2648 0.950 . S
H2629 C2649 0.950 . S
H2630 C2651 0.950 . S
H2631 C2654 0.950 . S
H2632 C2655 0.950 . S
H2633 C2657 0.950 . S
H2634 C2658 0.950 . S
H2635 C2659 0.951 . S
H2636 C2661 0.951 . S
H2637 C2663 0.950 . S
H2638 C2664 0.950 . S
H2639 C2666 0.950 . S
H2640 C2669 0.950 . S
H2641 C2670 0.950 . S
H2642 C2672 0.950 . S
H2643 C2673 0.950 . S
C2644 H2626 0.951 . S
C2644 C2645 1.366 . S
C2644 C2646 1.388 . S
C2645 C2644 1.366 . S
C2645 C2649 1.385 . S
C2646 H2627 0.951 . S
C2646 C2644 1.388 . S
C2646 C2647 1.366 . S
C2647 C2646 1.366 . S
C2647 C2648 1.414 . S
C2647 C2650 1.499 . S
C2648 H2628 0.950 . S
C2648 C2647 1.414 . S
C2648 C2649 1.374 . S
C2649 H2629 0.950 . S
C2649 C2645 1.385 . S
C2649 C2648 1.374 . S
C2650 C2647 1.499 . S
C2650 C2651 1.373 . S
C2650 C2652 1.389 . S
C2651 H2630 0.950 . S
C2651 C2650 1.373 . S
C2651 C2667 1.377 . S
C2652 C2650 1.389 . S
C2652 C2653 1.524 . S
C2652 C2666 1.377 . S
C2653 C2652 1.524 . S
C2653 C2654 1.397 . S
C2653 C2658 1.363 . S
C2654 H2631 0.950 . S
C2654 C2653 1.397 . S
C2654 C2655 1.334 . S
C2655 H2632 0.950 . S
C2655 C2654 1.334 . S
C2655 C2656 1.287 . S
C2656 C2655 1.287 . S
C2656 C2657 1.524 . S
C2656 H2675 0.913 . S
C2657 H2633 0.950 . S
C2657 C2656 1.524 . S
C2657 C2658 1.415 . S
C2658 H2634 0.950 . S
C2658 C2653 1.363 . S
C2658 C2657 1.415 . S
C2659 H2635 0.951 . S
C2659 C2660 1.366 . S
C2659 C2661 1.388 . S
C2660 C2659 1.366 . S
C2660 C2664 1.385 . S
C2661 H2636 0.951 . S
C2661 C2659 1.388 . S
C2661 C2662 1.366 . S
C2662 C2661 1.366 . S
C2662 C2663 1.414 . S
C2662 C2665 1.499 . S
C2663 H2637 0.950 . S
C2663 C2662 1.414 . S
C2663 C2664 1.374 . S
C2664 H2638 0.950 . S
C2664 C2660 1.385 . S
C2664 C2663 1.374 . S
C2665 C2662 1.499 . S
C2665 C2666 1.373 . S
C2665 C2667 1.389 . S
C2666 H2639 0.950 . S
C2666 C2652 1.377 . S
C2666 C2665 1.373 . S
C2667 C2651 1.377 . S
C2667 C2665 1.389 . S
C2667 C2668 1.524 . S
C2668 C2667 1.524 . S
C2668 C2669 1.397 . S
C2668 C2673 1.363 . S
C2669 H2640 0.950 . S
C2669 C2668 1.397 . S
C2669 C2670 1.334 . S
C2670 H2641 0.950 . S
C2670 C2669 1.334 . S
C2670 C2671 1.287 . S
C2671 C2670 1.287 . S
C2671 C2672 1.524 . S
C2671 H2674 0.999 . S
C2672 H2642 0.950 . S
C2672 C2671 1.524 . S
C2672 C2673 1.415 . S
C2673 H2643 0.950 . S
C2673 C2668 1.363 . S
C2673 C2672 1.415 . S
H2674 C2671 0.999 . S
H2675 C2656 0.913 . S
H2676 C2694 0.951 . S
H2677 C2696 0.951 . S
H2678 C2698 0.950 . S
H2679 C2699 0.950 . S
H2680 C2701 0.950 1_565 S
H2681 C2704 0.950 . S
H2682 C2705 0.950 . S
H2683 C2707 0.950 . S
H2684 C2708 0.950 . S
H2685 C2709 0.951 . S
H2686 C2711 0.951 . S
H2687 C2713 0.950 . S
H2688 C2714 0.950 . S
H2689 C2716 0.950 . S
H2690 C2719 0.950 . S
H2691 C2720 0.950 . S
H2692 C2722 0.950 . S
H2693 C2723 0.950 . S
C2694 H2676 0.951 . S
C2694 C2695 1.366 . S
C2694 C2696 1.388 . S
C2695 C2694 1.366 . S
C2695 C2699 1.385 . S
C2696 H2677 0.951 . S
C2696 C2694 1.388 . S
C2696 C2697 1.366 . S
C2697 C2696 1.366 . S
C2697 C2698 1.414 . S
C2697 C2700 1.499 . S
C2698 H2678 0.950 . S
C2698 C2697 1.414 . S
C2698 C2699 1.374 . S
C2699 H2679 0.950 . S
C2699 C2695 1.385 . S
C2699 C2698 1.374 . S
C2700 C2697 1.499 . S
C2700 C2701 1.373 . S
C2700 C2702 1.389 . S
C2701 H2680 0.950 1_545 S
C2701 C2700 1.373 . S
C2701 C2717 1.377 . S
C2702 C2700 1.389 . S
C2702 C2703 1.524 . S
C2702 C2716 1.377 . S
C2703 C2702 1.524 . S
C2703 C2704 1.397 . S
C2703 C2708 1.363 . S
C2704 H2681 0.950 . S
C2704 C2703 1.397 . S
C2704 C2705 1.334 . S
C2705 H2682 0.950 . S
C2705 C2704 1.334 . S
C2705 C2706 1.287 . S
C2706 C2705 1.287 . S
C2706 C2707 1.524 . S
C2706 H2725 0.913 . S
C2707 H2683 0.950 . S
C2707 C2706 1.524 . S
C2707 C2708 1.415 . S
C2708 H2684 0.950 . S
C2708 C2703 1.363 . S
C2708 C2707 1.415 . S
C2709 H2685 0.951 . S
C2709 C2710 1.366 . S
C2709 C2711 1.388 . S
C2710 C2709 1.366 . S
C2710 C2714 1.385 . S
C2711 H2686 0.951 . S
C2711 C2709 1.388 . S
C2711 C2712 1.366 . S
C2712 C2711 1.366 . S
C2712 C2713 1.414 . S
C2712 C2715 1.499 . S
C2713 H2687 0.950 . S
C2713 C2712 1.414 . S
C2713 C2714 1.374 . S
C2714 H2688 0.950 . S
C2714 C2710 1.385 . S
C2714 C2713 1.374 . S
C2715 C2712 1.499 . S
C2715 C2716 1.373 . S
C2715 C2717 1.389 . S
C2716 H2689 0.950 . S
C2716 C2702 1.377 . S
C2716 C2715 1.373 . S
C2717 C2701 1.377 . S
C2717 C2715 1.389 . S
C2717 C2718 1.524 1_545 S
C2718 C2717 1.524 1_565 S
C2718 C2719 1.397 . S
C2718 C2723 1.363 . S
C2719 H2690 0.950 . S
C2719 C2718 1.397 . S
C2719 C2720 1.334 . S
C2720 H2691 0.950 . S
C2720 C2719 1.334 . S
C2720 C2721 1.287 . S
C2721 C2720 1.287 . S
C2721 C2722 1.524 . S
C2721 H2724 0.999 . S
C2722 H2692 0.950 . S
C2722 C2721 1.524 . S
C2722 C2723 1.415 . S
C2723 H2693 0.950 . S
C2723 C2718 1.363 . S
C2723 C2722 1.415 . S
H2724 C2721 0.999 . S
H2725 C2706 0.913 . S
H2726 C2744 0.951 . S
H2727 C2746 0.951 . S
H2728 C2748 0.950 . S
H2729 C2749 0.950 . S
H2730 C2751 0.950 . S
H2731 C2754 0.950 . S
H2732 C2755 0.950 . S
H2733 C2757 0.950 . S
H2734 C2758 0.950 . S
H2735 C2759 0.951 . S
H2736 C2761 0.951 . S
H2737 C2763 0.950 . S
H2738 C2764 0.950 . S
H2739 C2766 0.950 . S
H2740 C2769 0.950 . S
H2741 C2770 0.950 . S
H2742 C2772 0.950 . S
H2743 C2773 0.950 . S
C2744 H2726 0.951 . S
C2744 C2745 1.366 . S
C2744 C2746 1.388 . S
C2745 C2744 1.366 . S
C2745 C2749 1.385 . S
C2746 H2727 0.951 . S
C2746 C2744 1.388 . S
C2746 C2747 1.366 . S
C2747 C2746 1.366 . S
C2747 C2748 1.414 . S
C2747 C2750 1.499 . S
C2748 H2728 0.950 . S
C2748 C2747 1.414 . S
C2748 C2749 1.374 . S
C2749 H2729 0.950 . S
C2749 C2745 1.385 . S
C2749 C2748 1.374 . S
C2750 C2747 1.499 . S
C2750 C2751 1.373 . S
C2750 C2752 1.389 . S
C2751 H2730 0.950 . S
C2751 C2750 1.373 . S
C2751 C2767 1.377 . S
C2752 C2750 1.389 . S
C2752 C2753 1.524 . S
C2752 C2766 1.377 . S
C2753 C2752 1.524 . S
C2753 C2754 1.397 . S
C2753 C2758 1.363 . S
C2754 H2731 0.950 . S
C2754 C2753 1.397 . S
C2754 C2755 1.334 . S
C2755 H2732 0.950 . S
C2755 C2754 1.334 . S
C2755 C2756 1.287 . S
C2756 C2755 1.287 . S
C2756 C2757 1.524 . S
C2756 H2775 0.913 . S
C2757 H2733 0.950 . S
C2757 C2756 1.524 . S
C2757 C2758 1.415 . S
C2758 H2734 0.950 . S
C2758 C2753 1.363 . S
C2758 C2757 1.415 . S
C2759 H2735 0.951 . S
C2759 C2760 1.366 . S
C2759 C2761 1.388 . S
C2760 C2759 1.366 . S
C2760 C2764 1.385 . S
C2761 H2736 0.951 . S
C2761 C2759 1.388 . S
C2761 C2762 1.366 . S
C2762 C2761 1.366 . S
C2762 C2763 1.414 . S
C2762 C2765 1.499 . S
C2763 H2737 0.950 . S
C2763 C2762 1.414 . S
C2763 C2764 1.374 . S
C2764 H2738 0.950 . S
C2764 C2760 1.385 . S
C2764 C2763 1.374 . S
C2765 C2762 1.499 . S
C2765 C2766 1.373 . S
C2765 C2767 1.389 . S
C2766 H2739 0.950 . S
C2766 C2752 1.377 . S
C2766 C2765 1.373 . S
C2767 C2751 1.377 . S
C2767 C2765 1.389 . S
C2767 C2768 1.524 . S
C2768 C2767 1.524 . S
C2768 C2769 1.397 . S
C2768 C2773 1.363 . S
C2769 H2740 0.950 . S
C2769 C2768 1.397 . S
C2769 C2770 1.334 . S
C2770 H2741 0.950 . S
C2770 C2769 1.334 . S
C2770 C2771 1.287 . S
C2771 C2770 1.287 . S
C2771 C2772 1.524 . S
C2771 H2774 0.999 . S
C2772 H2742 0.950 . S
C2772 C2771 1.524 . S
C2772 C2773 1.415 . S
C2773 H2743 0.950 . S
C2773 C2768 1.363 . S
C2773 C2772 1.415 . S
H2774 C2771 0.999 . S
H2775 C2756 0.913 . S
H2776 C2794 0.951 . S
H2777 C2796 0.951 . S
H2778 C2798 0.950 . S
H2779 C2799 0.950 . S
H2780 C2801 0.950 . S
H2781 C2804 0.950 . S
H2782 C2805 0.950 . S
H2783 C2807 0.950 . S
H2784 C2808 0.950 . S
H2785 C2809 0.951 . S
H2786 C2811 0.951 . S
H2787 C2813 0.950 . S
H2788 C2814 0.950 . S
H2789 C2816 0.921 1_565 S
H2790 C2819 0.950 . S
H2791 C2820 0.950 . S
H2792 C2822 0.950 . S
H2793 C2823 0.950 . S
C2794 H2776 0.951 . S
C2794 C2795 1.366 . S
C2794 C2796 1.388 . S
C2795 C2794 1.366 . S
C2795 C2799 1.385 . S
C2796 H2777 0.951 . S
C2796 C2794 1.388 . S
C2796 C2797 1.366 . S
C2797 C2796 1.366 . S
C2797 C2798 1.414 . S
C2797 C2800 1.499 . S
C2798 H2778 0.950 . S
C2798 C2797 1.414 . S
C2798 C2799 1.374 . S
C2799 H2779 0.950 . S
C2799 C2795 1.385 . S
C2799 C2798 1.374 . S
C2800 C2797 1.499 . S
C2800 C2801 1.373 . S
C2800 C2802 1.395 . S
C2801 H2780 0.950 . S
C2801 C2800 1.373 . S
C2801 C2817 1.377 . S
C2802 C2800 1.395 . S
C2802 C2803 1.516 1_545 S
C2802 C2816 1.367 . S
C2803 C2802 1.516 1_565 S
C2803 C2804 1.397 . S
C2803 C2808 1.363 . S
C2804 H2781 0.950 . S
C2804 C2803 1.397 . S
C2804 C2805 1.334 . S
C2805 H2782 0.950 . S
C2805 C2804 1.334 . S
C2805 C2806 1.287 . S
C2806 C2805 1.287 . S
C2806 C2807 1.524 . S
C2806 H2825 0.913 . S
C2807 H2783 0.950 . S
C2807 C2806 1.524 . S
C2807 C2808 1.415 . S
C2808 H2784 0.950 . S
C2808 C2803 1.363 . S
C2808 C2807 1.415 . S
C2809 H2785 0.951 . S
C2809 C2810 1.366 . S
C2809 C2811 1.388 . S
C2810 C2809 1.366 . S
C2810 C2814 1.385 . S
C2811 H2786 0.951 . S
C2811 C2809 1.388 . S
C2811 C2812 1.366 . S
C2812 C2811 1.366 . S
C2812 C2813 1.414 . S
C2812 C2815 1.499 . S
C2813 H2787 0.950 . S
C2813 C2812 1.414 . S
C2813 C2814 1.374 . S
C2814 H2788 0.950 . S
C2814 C2810 1.385 . S
C2814 C2813 1.374 . S
C2815 C2812 1.499 . S
C2815 C2816 1.416 . S
C2815 C2817 1.389 . S
C2816 H2789 0.921 1_545 S
C2816 C2802 1.367 . S
C2816 C2815 1.416 . S
C2817 C2801 1.377 . S
C2817 C2815 1.389 . S
C2817 C2818 1.524 . S
C2818 C2817 1.524 . S
C2818 C2819 1.397 . S
C2818 C2823 1.363 . S
C2819 H2790 0.950 . S
C2819 C2818 1.397 . S
C2819 C2820 1.334 . S
C2820 H2791 0.950 . S
C2820 C2819 1.334 . S
C2820 C2821 1.287 . S
C2821 C2820 1.287 . S
C2821 C2822 1.524 . S
C2821 H2824 0.999 . S
C2822 H2792 0.950 . S
C2822 C2821 1.524 . S
C2822 C2823 1.415 . S
C2823 H2793 0.950 . S
C2823 C2818 1.363 . S
C2823 C2822 1.415 . S
H2824 C2821 0.999 . S
H2825 C2806 0.913 . S
H2826 C2844 0.951 . S
H2827 C2846 0.951 . S
H2828 C2848 0.950 . S
H2829 C2849 0.950 . S
H2830 C2851 0.950 . S
H2831 C2854 0.950 . S
H2832 C2855 0.950 . S
H2833 C2857 0.950 . S
H2834 C2858 0.950 . S
H2835 C2859 0.951 . S
H2836 C2861 0.951 . S
H2837 C2863 0.950 . S
H2838 C2864 0.950 . S
H2839 C2866 0.950 . S
H2840 C2869 0.950 . S
H2841 C2870 0.950 . S
H2842 C2872 0.950 . S
H2843 C2873 0.950 . S
C2844 H2826 0.951 . S
C2844 C2845 1.366 . S
C2844 C2846 1.388 . S
C2845 C2844 1.366 . S
C2845 C2849 1.385 . S
C2846 H2827 0.951 . S
C2846 C2844 1.388 . S
C2846 C2847 1.366 . S
C2847 C2846 1.366 . S
C2847 C2848 1.414 . S
C2847 C2850 1.499 . S
C2848 H2828 0.950 . S
C2848 C2847 1.414 . S
C2848 C2849 1.374 . S
C2849 H2829 0.950 . S
C2849 C2845 1.385 . S
C2849 C2848 1.374 . S
C2850 C2847 1.499 . S
C2850 C2851 1.373 . S
C2850 C2852 1.389 . S
C2851 H2830 0.950 . S
C2851 C2850 1.373 . S
C2851 C2867 1.377 . S
C2852 C2850 1.389 . S
C2852 C2853 1.524 . S
C2852 C2866 1.377 . S
C2853 C2852 1.524 . S
C2853 C2854 1.397 . S
C2853 C2858 1.363 . S
C2854 H2831 0.950 . S
C2854 C2853 1.397 . S
C2854 C2855 1.334 . S
C2855 H2832 0.950 . S
C2855 C2854 1.334 . S
C2855 C2856 1.287 . S
C2856 C2855 1.287 . S
C2856 C2857 1.524 . S
C2856 H2875 0.913 . S
C2857 H2833 0.950 . S
C2857 C2856 1.524 . S
C2857 C2858 1.415 . S
C2858 H2834 0.950 . S
C2858 C2853 1.363 . S
C2858 C2857 1.415 . S
C2859 H2835 0.951 . S
C2859 C2860 1.366 . S
C2859 C2861 1.388 . S
C2860 C2859 1.366 . S
C2860 C2864 1.385 . S
C2861 H2836 0.951 . S
C2861 C2859 1.388 . S
C2861 C2862 1.366 . S
C2862 C2861 1.366 . S
C2862 C2863 1.414 . S
C2862 C2865 1.499 . S
C2863 H2837 0.950 . S
C2863 C2862 1.414 . S
C2863 C2864 1.374 . S
C2864 H2838 0.950 . S
C2864 C2860 1.385 . S
C2864 C2863 1.374 . S
C2865 C2862 1.499 . S
C2865 C2866 1.373 . S
C2865 C2867 1.389 . S
C2866 H2839 0.950 . S
C2866 C2852 1.377 . S
C2866 C2865 1.373 . S
C2867 C2851 1.377 . S
C2867 C2865 1.389 . S
C2867 C2868 1.524 . S
C2868 C2867 1.524 . S
C2868 C2869 1.397 . S
C2868 C2873 1.363 . S
C2869 H2840 0.950 . S
C2869 C2868 1.397 . S
C2869 C2870 1.334 . S
C2870 H2841 0.950 . S
C2870 C2869 1.334 . S
C2870 C2871 1.287 . S
C2871 C2870 1.287 . S
C2871 C2872 1.524 . S
C2871 H2874 0.999 . S
C2872 H2842 0.950 . S
C2872 C2871 1.524 . S
C2872 C2873 1.415 . S
C2873 H2843 0.950 . S
C2873 C2868 1.363 . S
C2873 C2872 1.415 . S
H2874 C2871 0.999 . S
H2875 C2856 0.913 . S
H2876 C2894 0.951 . S
H2877 C2896 0.951 . S
H2878 C2898 0.950 . S
H2879 C2899 0.950 . S
H2880 C2901 0.950 . S
H2881 C2904 0.950 . S
H2882 C2905 0.950 . S
H2883 C2907 0.950 . S
H2884 C2908 0.950 . S
H2885 C2909 0.951 . S
H2886 C2911 0.968 1_565 S
H2887 C2913 0.950 . S
H2888 C2914 0.950 . S
H2889 C2916 0.950 . S
H2890 C2919 0.950 . S
H2891 C2920 0.950 . S
H2892 C2922 0.950 . S
H2893 C2923 0.950 . S
C2894 H2876 0.951 . S
C2894 C2895 1.366 . S
C2894 C2896 1.388 . S
C2895 C2894 1.366 . S
C2895 C2899 1.385 . S
C2896 H2877 0.951 . S
C2896 C2894 1.388 . S
C2896 C2897 1.366 . S
C2897 C2896 1.366 . S
C2897 C2898 1.414 . S
C2897 C2900 1.499 . S
C2898 H2878 0.950 . S
C2898 C2897 1.414 . S
C2898 C2899 1.374 . S
C2899 H2879 0.950 . S
C2899 C2895 1.385 . S
C2899 C2898 1.374 . S
C2900 C2897 1.499 . S
C2900 C2901 1.373 1_545 S
C2900 C2902 1.389 . S
C2901 H2880 0.950 . S
C2901 C2900 1.373 1_565 S
C2901 C2917 1.377 . S
C2902 C2900 1.389 . S
C2902 C2903 1.524 . S
C2902 C2916 1.377 . S
C2903 C2902 1.524 . S
C2903 C2904 1.397 . S
C2903 C2908 1.363 . S
C2904 H2881 0.950 . S
C2904 C2903 1.397 . S
C2904 C2905 1.334 . S
C2905 H2882 0.950 . S
C2905 C2904 1.334 . S
C2905 C2906 1.287 . S
C2906 C2905 1.287 . S
C2906 C2907 1.524 . S
C2906 H2925 0.913 . S
C2907 H2883 0.950 . S
C2907 C2906 1.524 . S
C2907 C2908 1.415 . S
C2908 H2884 0.950 . S
C2908 C2903 1.363 . S
C2908 C2907 1.415 . S
C2909 H2885 0.951 . S
C2909 C2910 1.374 1_565 S
C2909 C2911 1.386 1_565 S
C2910 C2909 1.374 1_545 S
C2910 C2914 1.383 . S
C2911 H2886 0.968 1_545 S
C2911 C2909 1.386 1_545 S
C2911 C2912 1.365 . S
C2912 C2911 1.365 . S
C2912 C2913 1.414 . S
C2912 C2915 1.499 . S
C2913 H2887 0.950 . S
C2913 C2912 1.414 . S
C2913 C2914 1.374 . S
C2914 H2888 0.950 . S
C2914 C2910 1.383 . S
C2914 C2913 1.374 . S
C2915 C2912 1.499 . S
C2915 C2916 1.373 . S
C2915 C2917 1.389 1_545 S
C2916 H2889 0.950 . S
C2916 C2902 1.377 . S
C2916 C2915 1.373 . S
C2917 C2901 1.377 . S
C2917 C2915 1.389 1_565 S
C2917 C2918 1.524 . S
C2918 C2917 1.524 . S
C2918 C2919 1.397 . S
C2918 C2923 1.363 . S
C2919 H2890 0.950 . S
C2919 C2918 1.397 . S
C2919 C2920 1.334 . S
C2920 H2891 0.950 . S
C2920 C2919 1.334 . S
C2920 C2921 1.287 . S
C2921 C2920 1.287 . S
C2921 C2922 1.524 . S
C2921 H2924 0.999 . S
C2922 H2892 0.950 . S
C2922 C2921 1.524 . S
C2922 C2923 1.415 . S
C2923 H2893 0.950 . S
C2923 C2918 1.363 . S
C2923 C2922 1.415 . S
H2924 C2921 0.999 . S
H2925 C2906 0.913 . S
H2926 C2944 0.951 . S
H2927 C2946 0.951 . S
H2928 C2948 0.950 . S
H2929 C2949 0.950 . S
H2930 C2951 0.950 . S
H2931 C2954 0.950 . S
H2932 C2955 0.950 . S
H2933 C2957 0.950 . S
H2934 C2958 0.950 . S
H2935 C2959 0.951 . S
H2936 C2961 0.951 . S
H2937 C2963 0.950 . S
H2938 C2964 0.950 . S
H2939 C2966 0.950 . S
H2940 C2969 0.950 . S
H2941 C2970 0.950 . S
H2942 C2972 0.950 . S
H2943 C2973 0.950 . S
C2944 H2926 0.951 . S
C2944 C2945 1.366 . S
C2944 C2946 1.388 . S
C2945 C2944 1.366 . S
C2945 C2949 1.385 . S
C2946 H2927 0.951 . S
C2946 C2944 1.388 . S
C2946 C2947 1.366 . S
C2947 C2946 1.366 . S
C2947 C2948 1.414 . S
C2947 C2950 1.499 . S
C2948 H2928 0.950 . S
C2948 C2947 1.414 . S
C2948 C2949 1.374 . S
C2949 H2929 0.950 . S
C2949 C2945 1.385 . S
C2949 C2948 1.374 . S
C2950 C2947 1.499 . S
C2950 C2951 1.373 . S
C2950 C2952 1.389 . S
C2951 H2930 0.950 . S
C2951 C2950 1.373 . S
C2951 C2967 1.377 . S
C2952 C2950 1.389 . S
C2952 C2953 1.524 . S
C2952 C2966 1.377 . S
C2953 C2952 1.524 . S
C2953 C2954 1.397 . S
C2953 C2958 1.363 . S
C2954 H2931 0.950 . S
C2954 C2953 1.397 . S
C2954 C2955 1.334 . S
C2955 H2932 0.950 . S
C2955 C2954 1.334 . S
C2955 C2956 1.287 . S
C2956 C2955 1.287 . S
C2956 C2957 1.524 . S
C2956 H2975 0.913 . S
C2957 H2933 0.950 . S
C2957 C2956 1.524 . S
C2957 C2958 1.415 . S
C2958 H2934 0.950 . S
C2958 C2953 1.363 . S
C2958 C2957 1.415 . S
C2959 H2935 0.951 . S
C2959 C2960 1.366 . S
C2959 C2961 1.388 . S
C2960 C2959 1.366 . S
C2960 C2964 1.385 . S
C2961 H2936 0.951 . S
C2961 C2959 1.388 . S
C2961 C2962 1.366 . S
C2962 C2961 1.366 . S
C2962 C2963 1.414 . S
C2962 C2965 1.499 . S
C2963 H2937 0.950 . S
C2963 C2962 1.414 . S
C2963 C2964 1.374 . S
C2964 H2938 0.950 . S
C2964 C2960 1.385 . S
C2964 C2963 1.374 . S
C2965 C2962 1.499 . S
C2965 C2966 1.373 . S
C2965 C2967 1.389 . S
C2966 H2939 0.950 . S
C2966 C2952 1.377 . S
C2966 C2965 1.373 . S
C2967 C2951 1.377 . S
C2967 C2965 1.389 . S
C2967 C2968 1.524 . S
C2968 C2967 1.524 . S
C2968 C2969 1.397 . S
C2968 C2973 1.363 . S
C2969 H2940 0.950 . S
C2969 C2968 1.397 . S
C2969 C2970 1.334 . S
C2970 H2941 0.950 . S
C2970 C2969 1.334 . S
C2970 C2971 1.287 . S
C2971 C2970 1.287 . S
C2971 C2972 1.524 . S
C2971 H2974 0.999 . S
C2972 H2942 0.950 . S
C2972 C2971 1.524 . S
C2972 C2973 1.415 . S
C2973 H2943 0.950 . S
C2973 C2968 1.363 . S
C2973 C2972 1.415 . S
H2974 C2971 0.999 . S
H2975 C2956 0.913 . S
H2976 C2994 0.951 . S
H2977 C2996 0.951 . S
H2978 C2998 0.950 . S
H2979 C2999 0.950 . S
H2980 C3001 0.950 . S
H2981 C3004 0.950 . S
H2982 C3005 0.950 . S
H2983 C3007 0.950 . S
H2984 C3008 0.950 . S
H2985 C3009 0.951 . S
H2986 C3011 0.951 . S
H2987 C3013 0.950 . S
H2988 C3014 0.950 . S
H2989 C3016 0.950 . S
H2990 C3019 0.950 . S
H2991 C3020 0.950 . S
H2992 C3022 0.950 . S
H2993 C3023 0.950 . S
C2994 H2976 0.951 . S
C2994 C2995 1.366 . S
C2994 C2996 1.388 . S
C2995 C2994 1.366 . S
C2995 C2999 1.385 . S
C2996 H2977 0.951 . S
C2996 C2994 1.388 . S
C2996 C2997 1.366 . S
C2997 C2996 1.366 . S
C2997 C2998 1.414 . S
C2997 C3000 1.499 . S
C2998 H2978 0.950 . S
C2998 C2997 1.414 . S
C2998 C2999 1.374 . S
C2999 H2979 0.950 . S
C2999 C2995 1.385 . S
C2999 C2998 1.374 . S
C3000 C2997 1.499 . S
C3000 C3001 1.373 . S
C3000 C3002 1.389 . S
C3001 H2980 0.950 . S
C3001 C3000 1.373 . S
C3001 C3017 1.377 . S
C3002 C3000 1.389 . S
C3002 C3003 1.524 . S
C3002 C3016 1.377 . S
C3003 C3002 1.524 . S
C3003 C3004 1.397 . S
C3003 C3008 1.363 . S
C3004 H2981 0.950 . S
C3004 C3003 1.397 . S
C3004 C3005 1.334 . S
C3005 H2982 0.950 . S
C3005 C3004 1.334 . S
C3005 C3006 1.287 . S
C3006 C3005 1.287 . S
C3006 C3007 1.524 . S
C3006 H3025 0.913 . S
C3007 H2983 0.950 . S
C3007 C3006 1.524 . S
C3007 C3008 1.415 . S
C3008 H2984 0.950 . S
C3008 C3003 1.363 . S
C3008 C3007 1.415 . S
C3009 H2985 0.951 . S
C3009 C3010 1.366 . S
C3009 C3011 1.388 . S
C3010 C3009 1.366 . S
C3010 C3014 1.385 . S
C3011 H2986 0.951 . S
C3011 C3009 1.388 . S
C3011 C3012 1.366 . S
C3012 C3011 1.366 . S
C3012 C3013 1.414 . S
C3012 C3015 1.499 . S
C3013 H2987 0.950 . S
C3013 C3012 1.414 . S
C3013 C3014 1.374 . S
C3014 H2988 0.950 . S
C3014 C3010 1.385 . S
C3014 C3013 1.374 . S
C3015 C3012 1.499 . S
C3015 C3016 1.373 . S
C3015 C3017 1.389 . S
C3016 H2989 0.950 . S
C3016 C3002 1.377 . S
C3016 C3015 1.373 . S
C3017 C3001 1.377 . S
C3017 C3015 1.389 . S
C3017 C3018 1.524 . S
C3018 C3017 1.524 . S
C3018 C3019 1.397 . S
C3018 C3023 1.363 . S
C3019 H2990 0.950 . S
C3019 C3018 1.397 . S
C3019 C3020 1.334 . S
C3020 H2991 0.950 . S
C3020 C3019 1.334 . S
C3020 C3021 1.287 . S
C3021 C3020 1.287 . S
C3021 C3022 1.524 . S
C3021 H3024 0.999 . S
C3022 H2992 0.950 . S
C3022 C3021 1.524 . S
C3022 C3023 1.415 . S
C3023 H2993 0.950 . S
C3023 C3018 1.363 . S
C3023 C3022 1.415 . S
H3024 C3021 0.999 . S
H3025 C3006 0.913 . S
H3026 C3044 0.951 . S
H3027 C3046 0.951 . S
H3028 C3048 0.950 . S
H3029 C3049 0.950 . S
H3030 C3051 0.950 . S
H3031 C3054 0.950 . S
H3032 C3055 0.950 . S
H3033 C3057 0.950 . S
H3034 C3058 0.950 . S
H3035 C3059 0.951 . S
H3036 C3061 0.951 . S
H3037 C3063 0.950 . S
H3038 C3064 0.950 . S
H3039 C3066 0.950 . S
H3040 C3069 0.950 . S
H3041 C3070 0.950 . S
H3042 C3072 0.950 . S
H3043 C3073 0.950 . S
C3044 H3026 0.951 . S
C3044 C3045 1.366 . S
C3044 C3046 1.388 . S
C3045 C3044 1.366 . S
C3045 C3049 1.385 . S
C3046 H3027 0.951 . S
C3046 C3044 1.388 . S
C3046 C3047 1.366 . S
C3047 C3046 1.366 . S
C3047 C3048 1.414 . S
C3047 C3050 1.499 . S
C3048 H3028 0.950 . S
C3048 C3047 1.414 . S
C3048 C3049 1.374 . S
C3049 H3029 0.950 . S
C3049 C3045 1.385 . S
C3049 C3048 1.374 . S
C3050 C3047 1.499 . S
C3050 C3051 1.373 . S
C3050 C3052 1.389 . S
C3051 H3030 0.950 . S
C3051 C3050 1.373 . S
C3051 C3067 1.377 . S
C3052 C3050 1.389 . S
C3052 C3053 1.524 . S
C3052 C3066 1.377 . S
C3053 C3052 1.524 . S
C3053 C3054 1.397 . S
C3053 C3058 1.363 . S
C3054 H3031 0.950 . S
C3054 C3053 1.397 . S
C3054 C3055 1.334 1_554 S
C3055 H3032 0.950 . S
C3055 C3054 1.334 1_556 S
C3055 C3056 1.287 . S
C3056 C3055 1.287 . S
C3056 C3057 1.524 1_556 S
C3056 H3075 0.913 . S
C3057 H3033 0.950 . S
C3057 C3056 1.524 1_554 S
C3057 C3058 1.415 . S
C3058 H3034 0.950 . S
C3058 C3053 1.363 . S
C3058 C3057 1.415 . S
C3059 H3035 0.951 . S
C3059 C3060 1.366 . S
C3059 C3061 1.388 . S
C3060 C3059 1.366 . S
C3060 C3064 1.385 . S
C3061 H3036 0.951 . S
C3061 C3059 1.388 . S
C3061 C3062 1.366 . S
C3062 C3061 1.366 . S
C3062 C3063 1.414 . S
C3062 C3065 1.499 . S
C3063 H3037 0.950 . S
C3063 C3062 1.414 . S
C3063 C3064 1.374 . S
C3064 H3038 0.950 . S
C3064 C3060 1.385 . S
C3064 C3063 1.374 . S
C3065 C3062 1.499 . S
C3065 C3066 1.373 . S
C3065 C3067 1.389 . S
C3066 H3039 0.950 . S
C3066 C3052 1.377 . S
C3066 C3065 1.373 . S
C3067 C3051 1.377 . S
C3067 C3065 1.389 . S
C3067 C3068 1.524 . S
C3068 C3067 1.524 . S
C3068 C3069 1.397 . S
C3068 C3073 1.363 . S
C3069 H3040 0.950 . S
C3069 C3068 1.397 . S
C3069 C3070 1.334 . S
C3070 H3041 0.950 . S
C3070 C3069 1.334 . S
C3070 C3071 1.287 . S
C3071 C3070 1.287 . S
C3071 C3072 1.524 . S
C3071 H3074 0.999 . S
C3072 H3042 0.950 . S
C3072 C3071 1.524 . S
C3072 C3073 1.415 . S
C3073 H3043 0.950 . S
C3073 C3068 1.363 . S
C3073 C3072 1.415 . S
H3074 C3071 0.999 . S
H3075 C3056 0.913 . S
H3076 C3094 0.951 . S
H3077 C3096 0.951 . S
H3078 C3098 0.950 . S
H3079 C3099 0.950 . S
H3080 C3101 0.950 . S
H3081 C3104 0.950 . S
H3082 C3105 0.950 . S
H3083 C3107 0.950 . S
H3084 C3108 0.950 . S
H3085 C3109 0.951 . S
H3086 C3111 0.951 . S
H3087 C3113 0.950 . S
H3088 C3114 0.950 . S
H3089 C3116 0.950 . S
H3090 C3119 0.950 . S
H3091 C3120 0.950 . S
H3092 C3122 0.950 . S
H3093 C3123 0.950 . S
C3094 H3076 0.951 . S
C3094 C3095 1.366 . S
C3094 C3096 1.388 . S
C3095 C3094 1.366 . S
C3095 C3099 1.385 . S
C3096 H3077 0.951 . S
C3096 C3094 1.388 . S
C3096 C3097 1.366 . S
C3097 C3096 1.366 . S
C3097 C3098 1.414 . S
C3097 C3100 1.499 . S
C3098 H3078 0.950 . S
C3098 C3097 1.414 . S
C3098 C3099 1.374 . S
C3099 H3079 0.950 . S
C3099 C3095 1.385 . S
C3099 C3098 1.374 . S
C3100 C3097 1.499 . S
C3100 C3101 1.373 . S
C3100 C3102 1.389 . S
C3101 H3080 0.950 . S
C3101 C3100 1.373 . S
C3101 C3117 1.377 . S
C3102 C3100 1.389 . S
C3102 C3103 1.524 . S
C3102 C3116 1.377 . S
C3103 C3102 1.524 . S
C3103 C3104 1.397 . S
C3103 C3108 1.363 . S
C3104 H3081 0.950 . S
C3104 C3103 1.397 . S
C3104 C3105 1.334 . S
C3105 H3082 0.950 . S
C3105 C3104 1.334 . S
C3105 C3106 1.287 . S
C3106 C3105 1.287 . S
C3106 C3107 1.524 . S
C3106 H3125 0.913 . S
C3107 H3083 0.950 . S
C3107 C3106 1.524 . S
C3107 C3108 1.415 . S
C3108 H3084 0.950 . S
C3108 C3103 1.363 . S
C3108 C3107 1.415 . S
C3109 H3085 0.951 . S
C3109 C3110 1.366 . S
C3109 C3111 1.388 . S
C3110 C3109 1.366 . S
C3110 C3114 1.385 . S
C3111 H3086 0.951 . S
C3111 C3109 1.388 . S
C3111 C3112 1.366 . S
C3112 C3111 1.366 . S
C3112 C3113 1.414 . S
C3112 C3115 1.499 . S
C3113 H3087 0.950 . S
C3113 C3112 1.414 . S
C3113 C3114 1.374 . S
C3114 H3088 0.950 . S
C3114 C3110 1.385 . S
C3114 C3113 1.374 . S
C3115 C3112 1.499 . S
C3115 C3116 1.373 . S
C3115 C3117 1.389 . S
C3116 H3089 0.950 . S
C3116 C3102 1.377 . S
C3116 C3115 1.373 . S
C3117 C3101 1.377 . S
C3117 C3115 1.389 . S
C3117 C3118 1.524 . S
C3118 C3117 1.524 . S
C3118 C3119 1.397 . S
C3118 C3123 1.363 . S
C3119 H3090 0.950 . S
C3119 C3118 1.397 . S
C3119 C3120 1.334 . S
C3120 H3091 0.950 . S
C3120 C3119 1.334 . S
C3120 C3121 1.287 . S
C3121 C3120 1.287 . S
C3121 C3122 1.524 . S
C3121 H3124 0.999 . S
C3122 H3092 0.950 . S
C3122 C3121 1.524 . S
C3122 C3123 1.415 . S
C3123 H3093 0.950 . S
C3123 C3118 1.363 . S
C3123 C3122 1.415 . S
H3124 C3121 0.999 . S
H3125 C3106 0.913 . S
H3126 C3144 0.951 . S
H3127 C3146 0.951 . S
H3128 C3148 0.950 . S
H3129 C3149 0.950 . S
H3130 C3151 0.950 . S
H3131 C3154 0.950 . S
H3132 C3155 0.950 . S
H3133 C3157 0.950 . S
H3134 C3158 0.950 . S
H3135 C3159 0.951 . S
H3136 C3161 0.951 . S
H3137 C3163 0.950 . S
H3138 C3164 0.950 . S
H3139 C3166 0.950 . S
H3140 C3169 0.950 . S
H3141 C3170 0.950 . S
H3142 C3172 0.950 . S
H3143 C3173 0.950 . S
C3144 H3126 0.951 . S
C3144 C3145 1.366 . S
C3144 C3146 1.388 . S
C3145 C3144 1.366 . S
C3145 C3149 1.385 . S
C3146 H3127 0.951 . S
C3146 C3144 1.388 . S
C3146 C3147 1.366 . S
C3147 C3146 1.366 . S
C3147 C3148 1.414 . S
C3147 C3150 1.499 . S
C3148 H3128 0.950 . S
C3148 C3147 1.414 . S
C3148 C3149 1.374 . S
C3149 H3129 0.950 . S
C3149 C3145 1.385 . S
C3149 C3148 1.374 . S
C3150 C3147 1.499 . S
C3150 C3151 1.373 . S
C3150 C3152 1.389 . S
C3151 H3130 0.950 . S
C3151 C3150 1.373 . S
C3151 C3167 1.377 . S
C3152 C3150 1.389 . S
C3152 C3153 1.524 . S
C3152 C3166 1.377 . S
C3153 C3152 1.524 . S
C3153 C3154 1.397 . S
C3153 C3158 1.363 . S
C3154 H3131 0.950 . S
C3154 C3153 1.397 . S
C3154 C3155 1.334 . S
C3155 H3132 0.950 . S
C3155 C3154 1.334 . S
C3155 C3156 1.287 . S
C3156 C3155 1.287 . S
C3156 C3157 1.524 . S
C3156 H3175 0.913 . S
C3157 H3133 0.950 . S
C3157 C3156 1.524 . S
C3157 C3158 1.415 . S
C3158 H3134 0.950 . S
C3158 C3153 1.363 . S
C3158 C3157 1.415 . S
C3159 H3135 0.951 . S
C3159 C3160 1.366 . S
C3159 C3161 1.388 . S
C3160 C3159 1.366 . S
C3160 C3164 1.385 . S
C3161 H3136 0.951 . S
C3161 C3159 1.388 . S
C3161 C3162 1.366 . S
C3162 C3161 1.366 . S
C3162 C3163 1.414 . S
C3162 C3165 1.499 . S
C3163 H3137 0.950 . S
C3163 C3162 1.414 . S
C3163 C3164 1.374 . S
C3164 H3138 0.950 . S
C3164 C3160 1.385 . S
C3164 C3163 1.374 . S
C3165 C3162 1.499 . S
C3165 C3166 1.373 . S
C3165 C3167 1.389 . S
C3166 H3139 0.950 . S
C3166 C3152 1.377 . S
C3166 C3165 1.373 . S
C3167 C3151 1.377 . S
C3167 C3165 1.389 . S
C3167 C3168 1.524 . S
C3168 C3167 1.524 . S
C3168 C3169 1.397 . S
C3168 C3173 1.363 . S
C3169 H3140 0.950 . S
C3169 C3168 1.397 . S
C3169 C3170 1.334 . S
C3170 H3141 0.950 . S
C3170 C3169 1.334 . S
C3170 C3171 1.287 . S
C3171 C3170 1.287 . S
C3171 C3172 1.524 . S
C3171 H3174 0.999 . S
C3172 H3142 0.950 . S
C3172 C3171 1.524 . S
C3172 C3173 1.415 . S
C3173 H3143 0.950 . S
C3173 C3168 1.363 . S
C3173 C3172 1.415 . S
H3174 C3171 0.999 . S
H3175 C3156 0.913 . S
H3176 C3194 0.951 . S
H3177 C3196 0.951 . S
H3178 C3198 0.950 . S
H3179 C3199 0.950 . S
H3180 C3201 0.950 . S
H3181 C3204 0.950 . S
H3182 C3205 0.950 . S
H3183 C3207 0.950 . S
H3184 C3208 0.950 . S
H3185 C3209 0.951 . S
H3186 C3211 0.951 . S
H3187 C3213 0.950 . S
H3188 C3214 0.950 . S
H3189 C3216 0.950 . S
H3190 C3219 0.950 . S
H3191 C3220 0.950 . S
H3192 C3222 0.950 . S
H3193 C3223 0.950 . S
C3194 H3176 0.951 . S
C3194 C3195 1.366 . S
C3194 C3196 1.388 . S
C3195 C3194 1.366 . S
C3195 C3199 1.385 . S
C3196 H3177 0.951 . S
C3196 C3194 1.388 . S
C3196 C3197 1.366 . S
C3197 C3196 1.366 . S
C3197 C3198 1.414 . S
C3197 C3200 1.499 . S
C3198 H3178 0.950 . S
C3198 C3197 1.414 . S
C3198 C3199 1.374 . S
C3199 H3179 0.950 . S
C3199 C3195 1.385 . S
C3199 C3198 1.374 . S
C3200 C3197 1.499 . S
C3200 C3201 1.373 . S
C3200 C3202 1.389 . S
C3201 H3180 0.950 . S
C3201 C3200 1.373 . S
C3201 C3217 1.377 . S
C3202 C3200 1.389 . S
C3202 C3203 1.524 . S
C3202 C3216 1.377 . S
C3203 C3202 1.524 . S
C3203 C3204 1.397 . S
C3203 C3208 1.363 . S
C3204 H3181 0.950 . S
C3204 C3203 1.397 . S
C3204 C3205 1.334 . S
C3205 H3182 0.950 . S
C3205 C3204 1.334 . S
C3205 C3206 1.287 . S
C3206 C3205 1.287 . S
C3206 C3207 1.524 . S
C3206 H3225 0.913 . S
C3207 H3183 0.950 . S
C3207 C3206 1.524 . S
C3207 C3208 1.415 . S
C3208 H3184 0.950 . S
C3208 C3203 1.363 . S
C3208 C3207 1.415 . S
C3209 H3185 0.951 . S
C3209 C3210 1.366 . S
C3209 C3211 1.388 . S
C3210 C3209 1.366 . S
C3210 C3214 1.385 . S
C3211 H3186 0.951 . S
C3211 C3209 1.388 . S
C3211 C3212 1.366 . S
C3212 C3211 1.366 . S
C3212 C3213 1.414 . S
C3212 C3215 1.499 . S
C3213 H3187 0.950 . S
C3213 C3212 1.414 . S
C3213 C3214 1.374 . S
C3214 H3188 0.950 . S
C3214 C3210 1.385 . S
C3214 C3213 1.374 . S
C3215 C3212 1.499 . S
C3215 C3216 1.373 . S
C3215 C3217 1.389 . S
C3216 H3189 0.950 . S
C3216 C3202 1.377 . S
C3216 C3215 1.373 . S
C3217 C3201 1.377 . S
C3217 C3215 1.389 . S
C3217 C3218 1.524 . S
C3218 C3217 1.524 . S
C3218 C3219 1.397 . S
C3218 C3223 1.363 . S
C3219 H3190 0.950 . S
C3219 C3218 1.397 . S
C3219 C3220 1.334 . S
C3220 H3191 0.950 . S
C3220 C3219 1.334 . S
C3220 C3221 1.287 . S
C3221 C3220 1.287 . S
C3221 C3222 1.524 . S
C3221 H3224 0.999 . S
C3222 H3192 0.950 . S
C3222 C3221 1.524 . S
C3222 C3223 1.415 . S
C3223 H3193 0.950 . S
C3223 C3218 1.363 . S
C3223 C3222 1.415 . S
H3224 C3221 0.999 . S
H3225 C3206 0.913 . S
H3226 C3244 0.951 . S
H3227 C3246 0.951 . S
H3228 C3248 0.950 . S
H3229 C3249 0.950 . S
H3230 C3251 0.950 . S
H3231 C3254 0.950 . S
H3232 C3255 0.950 . S
H3233 C3257 0.950 . S
H3234 C3258 0.950 . S
H3235 C3259 0.951 . S
H3236 C3261 0.951 . S
H3237 C3263 0.950 . S
H3238 C3264 0.950 . S
H3239 C3266 0.950 . S
H3240 C3269 0.950 . S
H3241 C3270 0.950 1_545 S
H3242 C3272 0.950 . S
H3243 C3273 0.950 . S
C3244 H3226 0.951 . S
C3244 C3245 1.366 . S
C3244 C3246 1.388 . S
C3245 C3244 1.366 . S
C3245 C3249 1.385 . S
C3246 H3227 0.951 . S
C3246 C3244 1.388 . S
C3246 C3247 1.366 . S
C3247 C3246 1.366 . S
C3247 C3248 1.414 . S
C3247 C3250 1.499 . S
C3248 H3228 0.950 . S
C3248 C3247 1.414 . S
C3248 C3249 1.374 . S
C3249 H3229 0.950 . S
C3249 C3245 1.385 . S
C3249 C3248 1.374 . S
C3250 C3247 1.499 . S
C3250 C3251 1.373 . S
C3250 C3252 1.389 . S
C3251 H3230 0.950 . S
C3251 C3250 1.373 . S
C3251 C3267 1.377 . S
C3252 C3250 1.389 . S
C3252 C3253 1.524 . S
C3252 C3266 1.377 . S
C3253 C3252 1.524 . S
C3253 C3254 1.397 . S
C3253 C3258 1.363 . S
C3254 H3231 0.950 . S
C3254 C3253 1.397 . S
C3254 C3255 1.334 . S
C3255 H3232 0.950 . S
C3255 C3254 1.334 . S
C3255 C3256 1.287 . S
C3256 C3255 1.287 . S
C3256 C3257 1.524 . S
C3256 H3275 0.913 . S
C3257 H3233 0.950 . S
C3257 C3256 1.524 . S
C3257 C3258 1.415 . S
C3258 H3234 0.950 . S
C3258 C3253 1.363 . S
C3258 C3257 1.415 . S
C3259 H3235 0.951 . S
C3259 C3260 1.366 . S
C3259 C3261 1.388 . S
C3260 C3259 1.366 . S
C3260 C3264 1.385 . S
C3261 H3236 0.951 . S
C3261 C3259 1.388 . S
C3261 C3262 1.366 . S
C3262 C3261 1.366 . S
C3262 C3263 1.414 . S
C3262 C3265 1.499 . S
C3263 H3237 0.950 . S
C3263 C3262 1.414 . S
C3263 C3264 1.374 . S
C3264 H3238 0.950 . S
C3264 C3260 1.385 . S
C3264 C3263 1.374 . S
C3265 C3262 1.499 . S
C3265 C3266 1.373 . S
C3265 C3267 1.389 . S
C3266 H3239 0.950 . S
C3266 C3252 1.377 . S
C3266 C3265 1.373 . S
C3267 C3251 1.377 . S
C3267 C3265 1.389 . S
C3267 C3268 1.524 . S
C3268 C3267 1.524 . S
C3268 C3269 1.397 . S
C3268 C3273 1.363 . S
C3269 H3240 0.950 . S
C3269 C3268 1.397 . S
C3269 C3270 1.334 . S
C3270 H3241 0.950 1_565 S
C3270 C3269 1.334 . S
C3270 C3271 1.287 1_565 S
C3271 C3270 1.287 1_545 S
C3271 C3272 1.524 1_545 S
C3271 H3274 0.999 . S
C3272 H3242 0.950 . S
C3272 C3271 1.524 1_565 S
C3272 C3273 1.415 . S
C3273 H3243 0.950 . S
C3273 C3268 1.363 . S
C3273 C3272 1.415 . S
H3274 C3271 0.999 . S
H3275 C3256 0.913 . S
H3276 C3294 0.951 . S
H3277 C3296 0.951 . S
H3278 C3298 0.950 . S
H3279 C3299 0.950 . S
H3280 C3301 0.950 . S
H3281 C3304 0.950 . S
H3282 C3305 0.950 . S
H3283 C3307 0.950 . S
H3284 C3308 0.950 . S
H3285 C3309 0.951 . S
H3286 C3311 0.951 . S
H3287 C3313 0.950 . S
H3288 C3314 0.950 . S
H3289 C3316 0.950 . S
H3290 C3319 0.950 . S
H3291 C3320 0.950 . S
H3292 C3322 0.950 . S
H3293 C3323 0.950 . S
C3294 H3276 0.951 . S
C3294 C3295 1.366 . S
C3294 C3296 1.388 . S
C3295 C3294 1.366 . S
C3295 C3299 1.385 . S
C3296 H3277 0.951 . S
C3296 C3294 1.388 . S
C3296 C3297 1.366 . S
C3297 C3296 1.366 . S
C3297 C3298 1.414 . S
C3297 C3300 1.499 . S
C3298 H3278 0.950 . S
C3298 C3297 1.414 . S
C3298 C3299 1.374 . S
C3299 H3279 0.950 . S
C3299 C3295 1.385 . S
C3299 C3298 1.374 . S
C3300 C3297 1.499 . S
C3300 C3301 1.373 . S
C3300 C3302 1.389 . S
C3301 H3280 0.950 . S
C3301 C3300 1.373 . S
C3301 C3317 1.377 . S
C3302 C3300 1.389 . S
C3302 C3303 1.524 . S
C3302 C3316 1.377 . S
C3303 C3302 1.524 . S
C3303 C3304 1.397 . S
C3303 C3308 1.363 . S
C3304 H3281 0.950 . S
C3304 C3303 1.397 . S
C3304 C3305 1.334 . S
C3305 H3282 0.950 . S
C3305 C3304 1.334 . S
C3305 C3306 1.287 . S
C3306 C3305 1.287 . S
C3306 C3307 1.524 . S
C3306 H3325 0.913 . S
C3307 H3283 0.950 . S
C3307 C3306 1.524 . S
C3307 C3308 1.415 . S
C3308 H3284 0.950 . S
C3308 C3303 1.363 . S
C3308 C3307 1.415 . S
C3309 H3285 0.951 . S
C3309 C3310 1.366 . S
C3309 C3311 1.388 . S
C3310 C3309 1.366 . S
C3310 C3314 1.385 . S
C3311 H3286 0.951 . S
C3311 C3309 1.388 . S
C3311 C3312 1.366 . S
C3312 C3311 1.366 . S
C3312 C3313 1.414 . S
C3312 C3315 1.499 . S
C3313 H3287 0.950 . S
C3313 C3312 1.414 . S
C3313 C3314 1.374 . S
C3314 H3288 0.950 . S
C3314 C3310 1.385 . S
C3314 C3313 1.374 . S
C3315 C3312 1.499 . S
C3315 C3316 1.373 . S
C3315 C3317 1.389 . S
C3316 H3289 0.950 . S
C3316 C3302 1.377 . S
C3316 C3315 1.373 . S
C3317 C3301 1.377 . S
C3317 C3315 1.389 . S
C3317 C3318 1.524 . S
C3318 C3317 1.524 . S
C3318 C3319 1.397 . S
C3318 C3323 1.363 . S
C3319 H3290 0.950 . S
C3319 C3318 1.397 . S
C3319 C3320 1.334 . S
C3320 H3291 0.950 . S
C3320 C3319 1.334 . S
C3320 C3321 1.287 . S
C3321 C3320 1.287 . S
C3321 C3322 1.524 . S
C3321 H3324 0.999 . S
C3322 H3292 0.950 . S
C3322 C3321 1.524 . S
C3322 C3323 1.415 . S
C3323 H3293 0.950 . S
C3323 C3318 1.363 . S
C3323 C3322 1.415 . S
H3324 C3321 0.999 . S
H3325 C3306 0.913 . S
H3326 C3344 0.951 . S
H3327 C3346 0.951 . S
H3328 C3348 0.950 . S
H3329 C3349 0.950 . S
H3330 C3351 0.950 . S
H3331 C3354 0.950 . S
H3332 C3355 0.950 . S
H3333 C3357 0.950 . S
H3334 C3358 0.950 . S
H3335 C3359 0.951 . S
H3336 C3361 0.951 . S
H3337 C3363 0.950 . S
H3338 C3364 0.950 . S
H3339 C3366 0.950 . S
H3340 C3369 0.950 . S
H3341 C3370 0.950 . S
H3342 C3372 0.950 . S
H3343 C3373 0.950 . S
C3344 H3326 0.951 . S
C3344 C3345 1.366 . S
C3344 C3346 1.388 . S
C3345 C3344 1.366 . S
C3345 C3349 1.385 . S
C3346 H3327 0.951 . S
C3346 C3344 1.388 . S
C3346 C3347 1.366 . S
C3347 C3346 1.366 . S
C3347 C3348 1.414 . S
C3347 C3350 1.499 . S
C3348 H3328 0.950 . S
C3348 C3347 1.414 . S
C3348 C3349 1.374 . S
C3349 H3329 0.950 . S
C3349 C3345 1.385 . S
C3349 C3348 1.374 . S
C3350 C3347 1.499 . S
C3350 C3351 1.373 . S
C3350 C3352 1.389 . S
C3351 H3330 0.950 . S
C3351 C3350 1.373 . S
C3351 C3367 1.377 . S
C3352 C3350 1.389 . S
C3352 C3353 1.524 . S
C3352 C3366 1.377 . S
C3353 C3352 1.524 . S
C3353 C3354 1.397 . S
C3353 C3358 1.363 . S
C3354 H3331 0.950 . S
C3354 C3353 1.397 . S
C3354 C3355 1.334 . S
C3355 H3332 0.950 . S
C3355 C3354 1.334 . S
C3355 C3356 1.287 . S
C3356 C3355 1.287 . S
C3356 C3357 1.524 . S
C3356 H3375 0.913 . S
C3357 H3333 0.950 . S
C3357 C3356 1.524 . S
C3357 C3358 1.415 . S
C3358 H3334 0.950 . S
C3358 C3353 1.363 . S
C3358 C3357 1.415 . S
C3359 H3335 0.951 . S
C3359 C3360 1.366 . S
C3359 C3361 1.388 . S
C3360 C3359 1.366 . S
C3360 C3364 1.385 . S
C3361 H3336 0.951 . S
C3361 C3359 1.388 . S
C3361 C3362 1.366 . S
C3362 C3361 1.366 . S
C3362 C3363 1.414 . S
C3362 C3365 1.499 . S
C3363 H3337 0.950 . S
C3363 C3362 1.414 . S
C3363 C3364 1.374 . S
C3364 H3338 0.950 . S
C3364 C3360 1.385 . S
C3364 C3363 1.374 . S
C3365 C3362 1.499 . S
C3365 C3366 1.373 . S
C3365 C3367 1.389 . S
C3366 H3339 0.950 . S
C3366 C3352 1.377 . S
C3366 C3365 1.373 . S
C3367 C3351 1.377 . S
C3367 C3365 1.389 . S
C3367 C3368 1.524 . S
C3368 C3367 1.524 . S
C3368 C3369 1.397 . S
C3368 C3373 1.363 . S
C3369 H3340 0.950 . S
C3369 C3368 1.397 . S
C3369 C3370 1.334 . S
C3370 H3341 0.950 . S
C3370 C3369 1.334 . S
C3370 C3371 1.287 . S
C3371 C3370 1.287 . S
C3371 C3372 1.524 . S
C3371 H3374 0.999 . S
C3372 H3342 0.950 . S
C3372 C3371 1.524 . S
C3372 C3373 1.415 . S
C3373 H3343 0.950 . S
C3373 C3368 1.363 . S
C3373 C3372 1.415 . S
H3374 C3371 0.999 . S
H3375 C3356 0.913 . S
H3376 C3394 0.951 . S
H3377 C3396 0.951 . S
H3378 C3398 0.950 . S
H3379 C3399 0.950 . S
H3380 C3401 0.950 . S
H3381 C3404 0.950 . S
H3382 C3405 0.950 . S
H3383 C3407 0.950 . S
H3384 C3408 0.950 . S
H3385 C3409 0.951 . S
H3386 C3411 0.951 . S
H3387 C3413 0.950 . S
H3388 C3414 0.950 . S
H3389 C3416 0.950 . S
H3390 C3419 0.950 . S
H3391 C3420 0.950 . S
H3392 C3422 0.950 . S
H3393 C3423 0.950 . S
C3394 H3376 0.951 . S
C3394 C3395 1.366 . S
C3394 C3396 1.388 . S
C3395 C3394 1.366 . S
C3395 C3399 1.385 . S
C3396 H3377 0.951 . S
C3396 C3394 1.388 . S
C3396 C3397 1.366 . S
C3397 C3396 1.366 . S
C3397 C3398 1.414 . S
C3397 C3400 1.499 . S
C3398 H3378 0.950 . S
C3398 C3397 1.414 . S
C3398 C3399 1.374 . S
C3399 H3379 0.950 . S
C3399 C3395 1.385 . S
C3399 C3398 1.374 . S
C3400 C3397 1.499 . S
C3400 C3401 1.373 . S
C3400 C3402 1.389 . S
C3401 H3380 0.950 . S
C3401 C3400 1.373 . S
C3401 C3417 1.377 . S
C3402 C3400 1.389 . S
C3402 C3403 1.524 . S
C3402 C3416 1.377 . S
C3403 C3402 1.524 . S
C3403 C3404 1.397 . S
C3403 C3408 1.363 . S
C3404 H3381 0.950 . S
C3404 C3403 1.397 . S
C3404 C3405 1.334 . S
C3405 H3382 0.950 . S
C3405 C3404 1.334 . S
C3405 C3406 1.287 . S
C3406 C3405 1.287 . S
C3406 C3407 1.524 . S
C3406 H3425 0.913 . S
C3407 H3383 0.950 . S
C3407 C3406 1.524 . S
C3407 C3408 1.415 . S
C3408 H3384 0.950 . S
C3408 C3403 1.363 . S
C3408 C3407 1.415 . S
C3409 H3385 0.951 . S
C3409 C3410 1.366 . S
C3409 C3411 1.388 . S
C3410 C3409 1.366 . S
C3410 C3414 1.385 . S
C3411 H3386 0.951 . S
C3411 C3409 1.388 . S
C3411 C3412 1.366 . S
C3412 C3411 1.366 . S
C3412 C3413 1.414 . S
C3412 C3415 1.499 . S
C3413 H3387 0.950 . S
C3413 C3412 1.414 . S
C3413 C3414 1.374 . S
C3414 H3388 0.950 . S
C3414 C3410 1.385 . S
C3414 C3413 1.374 . S
C3415 C3412 1.499 . S
C3415 C3416 1.373 . S
C3415 C3417 1.389 . S
C3416 H3389 0.950 . S
C3416 C3402 1.377 . S
C3416 C3415 1.373 . S
C3417 C3401 1.377 . S
C3417 C3415 1.389 . S
C3417 C3418 1.524 . S
C3418 C3417 1.524 . S
C3418 C3419 1.397 . S
C3418 C3423 1.363 . S
C3419 H3390 0.950 . S
C3419 C3418 1.397 . S
C3419 C3420 1.334 . S
C3420 H3391 0.950 . S
C3420 C3419 1.334 . S
C3420 C3421 1.287 . S
C3421 C3420 1.287 . S
C3421 C3422 1.524 . S
C3421 H3424 0.999 . S
C3422 H3392 0.950 . S
C3422 C3421 1.524 . S
C3422 C3423 1.415 . S
C3423 H3393 0.950 . S
C3423 C3418 1.363 . S
C3423 C3422 1.415 . S
H3424 C3421 0.999 . S
H3425 C3406 0.913 . S
H3426 C3444 0.951 . S
H3427 C3446 0.951 . S
H3428 C3448 0.950 . S
H3429 C3449 0.950 . S
H3430 C3451 0.950 . S
H3431 C3454 0.950 . S
H3432 C3455 0.950 . S
H3433 C3457 0.950 . S
H3434 C3458 0.950 . S
H3435 C3459 0.951 . S
H3436 C3461 0.951 . S
H3437 C3463 0.950 . S
H3438 C3464 0.950 . S
H3439 C3466 0.950 . S
H3440 C3469 0.950 . S
H3441 C3470 0.950 . S
H3442 C3472 0.950 . S
H3443 C3473 0.950 . S
C3444 H3426 0.951 . S
C3444 C3445 1.366 . S
C3444 C3446 1.388 . S
C3445 C3444 1.366 . S
C3445 C3449 1.385 . S
C3446 H3427 0.951 . S
C3446 C3444 1.388 . S
C3446 C3447 1.366 . S
C3447 C3446 1.366 . S
C3447 C3448 1.414 . S
C3447 C3450 1.499 . S
C3448 H3428 0.950 . S
C3448 C3447 1.414 . S
C3448 C3449 1.374 . S
C3449 H3429 0.950 . S
C3449 C3445 1.385 . S
C3449 C3448 1.374 . S
C3450 C3447 1.499 . S
C3450 C3451 1.373 . S
C3450 C3452 1.389 . S
C3451 H3430 0.950 . S
C3451 C3450 1.373 . S
C3451 C3467 1.377 . S
C3452 C3450 1.389 . S
C3452 C3453 1.524 . S
C3452 C3466 1.377 . S
C3453 C3452 1.524 . S
C3453 C3454 1.397 . S
C3453 C3458 1.363 . S
C3454 H3431 0.950 . S
C3454 C3453 1.397 . S
C3454 C3455 1.334 . S
C3455 H3432 0.950 . S
C3455 C3454 1.334 . S
C3455 C3456 1.287 . S
C3456 C3455 1.287 . S
C3456 C3457 1.524 . S
C3456 H3475 0.913 . S
C3457 H3433 0.950 . S
C3457 C3456 1.524 . S
C3457 C3458 1.415 . S
C3458 H3434 0.950 . S
C3458 C3453 1.363 . S
C3458 C3457 1.415 . S
C3459 H3435 0.951 . S
C3459 C3460 1.366 . S
C3459 C3461 1.388 . S
C3460 C3459 1.366 . S
C3460 C3464 1.385 . S
C3461 H3436 0.951 . S
C3461 C3459 1.388 . S
C3461 C3462 1.366 . S
C3462 C3461 1.366 . S
C3462 C3463 1.414 . S
C3462 C3465 1.499 . S
C3463 H3437 0.950 . S
C3463 C3462 1.414 . S
C3463 C3464 1.374 . S
C3464 H3438 0.950 . S
C3464 C3460 1.385 . S
C3464 C3463 1.374 . S
C3465 C3462 1.499 . S
C3465 C3466 1.373 . S
C3465 C3467 1.389 . S
C3466 H3439 0.950 . S
C3466 C3452 1.377 . S
C3466 C3465 1.373 . S
C3467 C3451 1.377 . S
C3467 C3465 1.389 . S
C3467 C3468 1.524 . S
C3468 C3467 1.524 . S
C3468 C3469 1.397 . S
C3468 C3473 1.363 . S
C3469 H3440 0.950 . S
C3469 C3468 1.397 . S
C3469 C3470 1.334 . S
C3470 H3441 0.950 . S
C3470 C3469 1.334 . S
C3470 C3471 1.287 . S
C3471 C3470 1.287 . S
C3471 C3472 1.524 . S
C3471 H3474 0.999 . S
C3472 H3442 0.950 . S
C3472 C3471 1.524 . S
C3472 C3473 1.415 . S
C3473 H3443 0.950 . S
C3473 C3468 1.363 . S
C3473 C3472 1.415 . S
H3474 C3471 0.999 . S
H3475 C3456 0.913 . S
H3476 C3494 0.948 1_655 S
H3477 C3496 0.951 . S
H3478 C3498 0.950 . S
H3479 C3499 0.950 . S
H3480 C3501 0.950 . S
H3481 C3504 0.950 . S
H3482 C3505 0.950 . S
H3483 C3507 0.950 . S
H3484 C3508 0.950 . S
H3485 C3509 0.951 . S
H3486 C3511 0.951 . S
H3487 C3513 0.950 . S
H3488 C3514 0.950 . S
H3489 C3516 0.950 . S
H3490 C3519 0.950 . S
H3491 C3520 0.919 1_655 S
H3492 C3522 0.950 . S
H3493 C3523 0.950 . S
C3494 H3476 0.948 1_455 S
C3494 C3495 1.366 . S
C3494 C3496 1.388 . S
C3495 C3494 1.366 . S
C3495 C3499 1.385 . S
C3496 H3477 0.951 . S
C3496 C3494 1.388 . S
C3496 C3497 1.366 . S
C3497 C3496 1.366 . S
C3497 C3498 1.414 . S
C3497 C3500 1.499 . S
C3498 H3478 0.950 . S
C3498 C3497 1.414 . S
C3498 C3499 1.374 . S
C3499 H3479 0.950 . S
C3499 C3495 1.385 . S
C3499 C3498 1.374 . S
C3500 C3497 1.499 . S
C3500 C3501 1.373 1_556 S
C3500 C3502 1.389 . S
C3501 H3480 0.950 . S
C3501 C3500 1.373 1_554 S
C3501 C3517 1.377 . S
C3502 C3500 1.389 . S
C3502 C3503 1.524 . S
C3502 C3516 1.377 . S
C3503 C3502 1.524 . S
C3503 C3504 1.397 . S
C3503 C3508 1.363 . S
C3504 H3481 0.950 . S
C3504 C3503 1.397 . S
C3504 C3505 1.334 . S
C3505 H3482 0.950 . S
C3505 C3504 1.334 . S
C3505 C3506 1.287 . S
C3506 C3505 1.287 . S
C3506 C3507 1.524 . S
C3506 H3525 0.913 . S
C3507 H3483 0.950 . S
C3507 C3506 1.524 . S
C3507 C3508 1.415 . S
C3508 H3484 0.950 . S
C3508 C3503 1.363 . S
C3508 C3507 1.415 . S
C3509 H3485 0.951 . S
C3509 C3510 1.366 . S
C3509 C3511 1.388 . S
C3510 C3509 1.366 . S
C3510 C3514 1.385 . S
C3511 H3486 0.951 . S
C3511 C3509 1.388 . S
C3511 C3512 1.366 . S
C3512 C3511 1.366 . S
C3512 C3513 1.414 . S
C3512 C3515 1.499 . S
C3513 H3487 0.950 . S
C3513 C3512 1.414 . S
C3513 C3514 1.374 . S
C3514 H3488 0.950 . S
C3514 C3510 1.385 . S
C3514 C3513 1.374 . S
C3515 C3512 1.499 . S
C3515 C3516 1.373 1_554 S
C3515 C3517 1.389 . S
C3516 H3489 0.950 . S
C3516 C3502 1.377 . S
C3516 C3515 1.373 1_556 S
C3517 C3501 1.377 . S
C3517 C3515 1.389 . S
C3517 C3518 1.524 . S
C3518 C3517 1.524 . S
C3518 C3519 1.397 . S
C3518 C3523 1.363 . S
C3519 H3490 0.950 . S
C3519 C3518 1.397 . S
C3519 C3520 1.334 . S
C3520 H3491 0.919 1_455 S
C3520 C3519 1.334 . S
C3520 C3521 1.287 . S
C3521 C3520 1.287 . S
C3521 C3522 1.524 . S
C3521 H3524 0.999 . S
C3522 H3492 0.950 . S
C3522 C3521 1.524 . S
C3522 C3523 1.415 . S
C3523 H3493 0.950 . S
C3523 C3518 1.363 . S
C3523 C3522 1.415 . S
H3524 C3521 0.999 . S
H3525 C3506 0.913 . S
H3526 C3544 0.951 1_455 S
H3527 C3546 0.951 . S
H3528 C3548 0.950 . S
H3529 C3549 0.950 . S
H3530 C3551 0.950 . S
H3531 C3554 0.950 . S
H3532 C3555 0.950 . S
H3533 C3557 0.950 . S
H3534 C3558 0.950 . S
H3535 C3559 0.951 . S
H3536 C3561 0.951 . S
H3537 C3563 0.950 . S
H3538 C3564 0.950 . S
H3539 C3566 0.950 . S
H3540 C3569 0.950 . S
H3541 C3570 0.950 . S
H3542 C3572 0.950 . S
H3543 C3573 0.950 . S
C3544 H3526 0.951 1_655 S
C3544 C3545 1.366 . S
C3544 C3546 1.388 . S
C3545 C3544 1.366 . S
C3545 C3549 1.385 . S
C3546 H3527 0.951 . S
C3546 C3544 1.388 . S
C3546 C3547 1.366 . S
C3547 C3546 1.366 . S
C3547 C3548 1.414 . S
C3547 C3550 1.499 . S
C3548 H3528 0.950 . S
C3548 C3547 1.414 . S
C3548 C3549 1.374 . S
C3549 H3529 0.950 . S
C3549 C3545 1.385 . S
C3549 C3548 1.374 . S
C3550 C3547 1.499 . S
C3550 C3551 1.373 . S
C3550 C3552 1.389 . S
C3551 H3530 0.950 . S
C3551 C3550 1.373 . S
C3551 C3567 1.377 . S
C3552 C3550 1.389 . S
C3552 C3553 1.524 . S
C3552 C3566 1.377 . S
C3553 C3552 1.524 . S
C3553 C3554 1.397 . S
C3553 C3558 1.363 . S
C3554 H3531 0.950 . S
C3554 C3553 1.397 . S
C3554 C3555 1.334 . S
C3555 H3532 0.950 . S
C3555 C3554 1.334 . S
C3555 C3556 1.287 . S
C3556 C3555 1.287 . S
C3556 C3557 1.524 . S
C3556 H3575 0.913 . S
C3557 H3533 0.950 . S
C3557 C3556 1.524 . S
C3557 C3558 1.415 . S
C3558 H3534 0.950 . S
C3558 C3553 1.363 . S
C3558 C3557 1.415 . S
C3559 H3535 0.951 . S
C3559 C3560 1.366 . S
C3559 C3561 1.388 . S
C3560 C3559 1.366 . S
C3560 C3564 1.385 . S
C3561 H3536 0.951 . S
C3561 C3559 1.388 . S
C3561 C3562 1.366 . S
C3562 C3561 1.366 . S
C3562 C3563 1.414 . S
C3562 C3565 1.499 . S
C3563 H3537 0.950 . S
C3563 C3562 1.414 . S
C3563 C3564 1.374 . S
C3564 H3538 0.950 . S
C3564 C3560 1.385 . S
C3564 C3563 1.374 . S
C3565 C3562 1.499 . S
C3565 C3566 1.373 . S
C3565 C3567 1.389 . S
C3566 H3539 0.950 . S
C3566 C3552 1.377 . S
C3566 C3565 1.373 . S
C3567 C3551 1.377 . S
C3567 C3565 1.389 . S
C3567 C3568 1.524 . S
C3568 C3567 1.524 . S
C3568 C3569 1.397 . S
C3568 C3573 1.363 . S
C3569 H3540 0.950 . S
C3569 C3568 1.397 . S
C3569 C3570 1.334 . S
C3570 H3541 0.950 . S
C3570 C3569 1.334 . S
C3570 C3571 1.287 . S
C3571 C3570 1.287 . S
C3571 C3572 1.524 . S
C3571 H3574 0.999 . S
C3572 H3542 0.950 . S
C3572 C3571 1.524 . S
C3572 C3573 1.415 . S
C3573 H3543 0.950 . S
C3573 C3568 1.363 . S
C3573 C3572 1.415 . S
H3574 C3571 0.999 . S
H3575 C3556 0.913 . S
H3576 C3594 0.951 . S
H3577 C3596 0.951 . S
H3578 C3598 0.950 . S
H3579 C3599 0.950 . S
H3580 C3601 0.950 . S
H3581 C3604 0.950 . S
H3582 C3605 0.950 . S
H3583 C3607 0.950 . S
H3584 C3608 0.950 . S
H3585 C3609 0.951 . S
H3586 C3611 0.951 . S
H3587 C3613 0.950 . S
H3588 C3614 0.950 . S
H3589 C3616 0.950 . S
H3590 C3619 0.950 . S
H3591 C3620 0.950 . S
H3592 C3622 0.950 . S
H3593 C3623 0.950 . S
C3594 H3576 0.951 . S
C3594 C3595 1.366 . S
C3594 C3596 1.388 . S
C3595 C3594 1.366 . S
C3595 C3599 1.385 . S
C3596 H3577 0.951 . S
C3596 C3594 1.388 . S
C3596 C3597 1.366 . S
C3597 C3596 1.366 . S
C3597 C3598 1.414 . S
C3597 C3600 1.499 . S
C3598 H3578 0.950 . S
C3598 C3597 1.414 . S
C3598 C3599 1.374 . S
C3599 H3579 0.950 . S
C3599 C3595 1.385 . S
C3599 C3598 1.374 . S
C3600 C3597 1.499 . S
C3600 C3601 1.373 . S
C3600 C3602 1.389 . S
C3601 H3580 0.950 . S
C3601 C3600 1.373 . S
C3601 C3617 1.377 . S
C3602 C3600 1.389 . S
C3602 C3603 1.524 . S
C3602 C3616 1.377 . S
C3603 C3602 1.524 . S
C3603 C3604 1.397 . S
C3603 C3608 1.363 . S
C3604 H3581 0.950 . S
C3604 C3603 1.397 . S
C3604 C3605 1.334 . S
C3605 H3582 0.950 . S
C3605 C3604 1.334 . S
C3605 C3606 1.287 . S
C3606 C3605 1.287 . S
C3606 C3607 1.524 . S
C3606 H3625 0.913 . S
C3607 H3583 0.950 . S
C3607 C3606 1.524 . S
C3607 C3608 1.415 . S
C3608 H3584 0.950 . S
C3608 C3603 1.363 . S
C3608 C3607 1.415 . S
C3609 H3585 0.951 . S
C3609 C3610 1.366 . S
C3609 C3611 1.388 . S
C3610 C3609 1.366 . S
C3610 C3614 1.385 . S
C3611 H3586 0.951 . S
C3611 C3609 1.388 . S
C3611 C3612 1.366 . S
C3612 C3611 1.366 . S
C3612 C3613 1.414 . S
C3612 C3615 1.499 . S
C3613 H3587 0.950 . S
C3613 C3612 1.414 . S
C3613 C3614 1.374 . S
C3614 H3588 0.950 . S
C3614 C3610 1.385 . S
C3614 C3613 1.374 . S
C3615 C3612 1.499 . S
C3615 C3616 1.373 . S
C3615 C3617 1.389 . S
C3616 H3589 0.950 . S
C3616 C3602 1.377 . S
C3616 C3615 1.373 . S
C3617 C3601 1.377 . S
C3617 C3615 1.389 . S
C3617 C3618 1.524 . S
C3618 C3617 1.524 . S
C3618 C3619 1.397 . S
C3618 C3623 1.363 . S
C3619 H3590 0.950 . S
C3619 C3618 1.397 . S
C3619 C3620 1.334 . S
C3620 H3591 0.950 . S
C3620 C3619 1.334 . S
C3620 C3621 1.287 . S
C3621 C3620 1.287 . S
C3621 C3622 1.524 . S
C3621 H3624 0.999 . S
C3622 H3592 0.950 . S
C3622 C3621 1.524 . S
C3622 C3623 1.415 . S
C3623 H3593 0.950 . S
C3623 C3618 1.363 . S
C3623 C3622 1.415 . S
H3624 C3621 0.999 . S
H3625 C3606 0.913 . S
H3626 C3644 0.951 . S
H3627 C3646 0.951 . S
H3628 C3648 0.950 . S
H3629 C3649 0.950 . S
H3630 C3651 0.950 . S
H3631 C3654 0.950 . S
H3632 C3655 0.950 . S
H3633 C3657 0.950 . S
H3634 C3658 0.950 . S
H3635 C3659 0.951 . S
H3636 C3661 0.951 . S
H3637 C3663 0.950 . S
H3638 C3664 0.950 . S
H3639 C3666 0.950 . S
H3640 C3669 0.950 . S
H3641 C3670 0.950 . S
H3642 C3672 0.950 . S
H3643 C3673 0.950 . S
C3644 H3626 0.951 . S
C3644 C3645 1.366 . S
C3644 C3646 1.388 . S
C3645 C3644 1.366 . S
C3645 C3649 1.385 . S
C3646 H3627 0.951 . S
C3646 C3644 1.388 . S
C3646 C3647 1.366 . S
C3647 C3646 1.366 . S
C3647 C3648 1.414 . S
C3647 C3650 1.499 . S
C3648 H3628 0.950 . S
C3648 C3647 1.414 . S
C3648 C3649 1.374 . S
C3649 H3629 0.950 . S
C3649 C3645 1.385 . S
C3649 C3648 1.374 . S
C3650 C3647 1.499 . S
C3650 C3651 1.373 . S
C3650 C3652 1.389 . S
C3651 H3630 0.950 . S
C3651 C3650 1.373 . S
C3651 C3667 1.377 . S
C3652 C3650 1.389 . S
C3652 C3653 1.524 . S
C3652 C3666 1.377 . S
C3653 C3652 1.524 . S
C3653 C3654 1.397 . S
C3653 C3658 1.363 . S
C3654 H3631 0.950 . S
C3654 C3653 1.397 . S
C3654 C3655 1.334 . S
C3655 H3632 0.950 . S
C3655 C3654 1.334 . S
C3655 C3656 1.287 . S
C3656 C3655 1.287 . S
C3656 C3657 1.524 . S
C3656 H3675 0.913 . S
C3657 H3633 0.950 . S
C3657 C3656 1.524 . S
C3657 C3658 1.415 . S
C3658 H3634 0.950 . S
C3658 C3653 1.363 . S
C3658 C3657 1.415 . S
C3659 H3635 0.951 . S
C3659 C3660 1.366 . S
C3659 C3661 1.388 . S
C3660 C3659 1.366 . S
C3660 C3664 1.385 . S
C3661 H3636 0.951 . S
C3661 C3659 1.388 . S
C3661 C3662 1.366 . S
C3662 C3661 1.366 . S
C3662 C3663 1.414 . S
C3662 C3665 1.499 . S
C3663 H3637 0.950 . S
C3663 C3662 1.414 . S
C3663 C3664 1.374 . S
C3664 H3638 0.950 . S
C3664 C3660 1.385 . S
C3664 C3663 1.374 . S
C3665 C3662 1.499 . S
C3665 C3666 1.373 . S
C3665 C3667 1.389 . S
C3666 H3639 0.950 . S
C3666 C3652 1.377 . S
C3666 C3665 1.373 . S
C3667 C3651 1.377 . S
C3667 C3665 1.389 . S
C3667 C3668 1.524 . S
C3668 C3667 1.524 . S
C3668 C3669 1.397 . S
C3668 C3673 1.363 . S
C3669 H3640 0.950 . S
C3669 C3668 1.397 . S
C3669 C3670 1.334 . S
C3670 H3641 0.950 . S
C3670 C3669 1.334 . S
C3670 C3671 1.287 . S
C3671 C3670 1.287 . S
C3671 C3672 1.524 . S
C3671 H3674 0.999 . S
C3672 H3642 0.950 . S
C3672 C3671 1.524 . S
C3672 C3673 1.415 . S
C3673 H3643 0.950 . S
C3673 C3668 1.363 . S
C3673 C3672 1.415 . S
H3674 C3671 0.999 . S
H3675 C3656 0.913 . S
H3676 C3694 0.951 . S
H3677 C3696 0.951 . S
H3678 C3698 0.950 . S
H3679 C3699 0.950 . S
H3680 C3701 0.950 . S
H3681 C3704 0.950 . S
H3682 C3705 0.950 . S
H3683 C3707 0.950 . S
H3684 C3708 0.950 . S
H3685 C3709 0.951 . S
H3686 C3711 0.951 . S
H3687 C3713 0.950 . S
H3688 C3714 0.950 . S
H3689 C3716 0.950 . S
H3690 C3719 0.950 1_455 S
H3691 C3720 0.950 . S
H3692 C3722 0.950 . S
H3693 C3723 0.950 . S
C3694 H3676 0.951 . S
C3694 C3695 1.366 . S
C3694 C3696 1.388 . S
C3695 C3694 1.366 . S
C3695 C3699 1.385 . S
C3696 H3677 0.951 . S
C3696 C3694 1.388 . S
C3696 C3697 1.366 . S
C3697 C3696 1.366 . S
C3697 C3698 1.414 . S
C3697 C3700 1.499 . S
C3698 H3678 0.950 . S
C3698 C3697 1.414 . S
C3698 C3699 1.374 . S
C3699 H3679 0.950 . S
C3699 C3695 1.385 . S
C3699 C3698 1.374 . S
C3700 C3697 1.499 . S
C3700 C3701 1.373 . S
C3700 C3702 1.389 . S
C3701 H3680 0.950 . S
C3701 C3700 1.373 . S
C3701 C3717 1.377 . S
C3702 C3700 1.389 . S
C3702 C3703 1.524 . S
C3702 C3716 1.377 . S
C3703 C3702 1.524 . S
C3703 C3704 1.397 . S
C3703 C3708 1.363 . S
C3704 H3681 0.950 . S
C3704 C3703 1.397 . S
C3704 C3705 1.334 . S
C3705 H3682 0.950 . S
C3705 C3704 1.334 . S
C3705 C3706 1.287 . S
C3706 C3705 1.287 . S
C3706 C3707 1.524 . S
C3706 H3725 0.913 . S
C3707 H3683 0.950 . S
C3707 C3706 1.524 . S
C3707 C3708 1.415 . S
C3708 H3684 0.950 . S
C3708 C3703 1.363 . S
C3708 C3707 1.415 . S
C3709 H3685 0.951 . S
C3709 C3710 1.366 . S
C3709 C3711 1.388 . S
C3710 C3709 1.366 . S
C3710 C3714 1.385 . S
C3711 H3686 0.951 . S
C3711 C3709 1.388 . S
C3711 C3712 1.366 . S
C3712 C3711 1.366 . S
C3712 C3713 1.414 . S
C3712 C3715 1.499 . S
C3713 H3687 0.950 . S
C3713 C3712 1.414 . S
C3713 C3714 1.374 . S
C3714 H3688 0.950 . S
C3714 C3710 1.385 . S
C3714 C3713 1.374 . S
C3715 C3712 1.499 . S
C3715 C3716 1.373 . S
C3715 C3717 1.389 . S
C3716 H3689 0.950 . S
C3716 C3702 1.377 . S
C3716 C3715 1.373 . S
C3717 C3701 1.377 . S
C3717 C3715 1.389 . S
C3717 C3718 1.524 . S
C3718 C3717 1.524 . S
C3718 C3719 1.397 1_455 S
C3718 C3723 1.363 1_455 S
C3719 H3690 0.950 1_655 S
C3719 C3718 1.397 1_655 S
C3719 C3720 1.334 . S
C3720 H3691 0.950 . S
C3720 C3719 1.334 . S
C3720 C3721 1.287 . S
C3721 C3720 1.287 . S
C3721 C3722 1.524 . S
C3721 H3724 0.999 . S
C3722 H3692 0.950 . S
C3722 C3721 1.524 . S
C3722 C3723 1.415 . S
C3723 H3693 0.950 . S
C3723 C3718 1.363 1_655 S
C3723 C3722 1.415 . S
H3724 C3721 0.999 . S
H3725 C3706 0.913 . S
H3726 C3744 0.951 . S
H3727 C3746 0.951 . S
H3728 C3748 0.950 . S
H3729 C3749 0.950 . S
H3730 C3751 0.950 . S
H3731 C3754 0.950 . S
H3732 C3755 0.950 . S
H3733 C3757 0.950 . S
H3734 C3758 0.950 . S
H3735 C3759 0.951 . S
H3736 C3761 0.951 . S
H3737 C3763 0.950 . S
H3738 C3764 0.950 . S
H3739 C3766 0.950 . S
H3740 C3769 0.950 . S
H3741 C3770 0.950 . S
H3742 C3772 0.950 . S
H3743 C3773 0.950 . S
C3744 H3726 0.951 . S
C3744 C3745 1.366 . S
C3744 C3746 1.388 . S
C3745 C3744 1.366 . S
C3745 C3749 1.385 . S
C3746 H3727 0.951 . S
C3746 C3744 1.388 . S
C3746 C3747 1.366 . S
C3747 C3746 1.366 . S
C3747 C3748 1.414 . S
C3747 C3750 1.499 . S
C3748 H3728 0.950 . S
C3748 C3747 1.414 . S
C3748 C3749 1.374 . S
C3749 H3729 0.950 . S
C3749 C3745 1.385 . S
C3749 C3748 1.374 . S
C3750 C3747 1.499 . S
C3750 C3751 1.373 . S
C3750 C3752 1.389 . S
C3751 H3730 0.950 . S
C3751 C3750 1.373 . S
C3751 C3767 1.377 . S
C3752 C3750 1.389 . S
C3752 C3753 1.524 . S
C3752 C3766 1.377 . S
C3753 C3752 1.524 . S
C3753 C3754 1.397 . S
C3753 C3758 1.363 . S
C3754 H3731 0.950 . S
C3754 C3753 1.397 . S
C3754 C3755 1.334 . S
C3755 H3732 0.950 . S
C3755 C3754 1.334 . S
C3755 C3756 1.287 . S
C3756 C3755 1.287 . S
C3756 C3757 1.524 . S
C3756 H3775 0.913 . S
C3757 H3733 0.950 . S
C3757 C3756 1.524 . S
C3757 C3758 1.415 . S
C3758 H3734 0.950 . S
C3758 C3753 1.363 . S
C3758 C3757 1.415 . S
C3759 H3735 0.951 . S
C3759 C3760 1.366 . S
C3759 C3761 1.388 . S
C3760 C3759 1.366 . S
C3760 C3764 1.385 . S
C3761 H3736 0.951 . S
C3761 C3759 1.388 . S
C3761 C3762 1.366 . S
C3762 C3761 1.366 . S
C3762 C3763 1.414 . S
C3762 C3765 1.499 . S
C3763 H3737 0.950 . S
C3763 C3762 1.414 . S
C3763 C3764 1.374 . S
C3764 H3738 0.950 . S
C3764 C3760 1.385 . S
C3764 C3763 1.374 . S
C3765 C3762 1.499 . S
C3765 C3766 1.373 . S
C3765 C3767 1.389 . S
C3766 H3739 0.950 . S
C3766 C3752 1.377 . S
C3766 C3765 1.373 . S
C3767 C3751 1.377 . S
C3767 C3765 1.389 . S
C3767 C3768 1.524 . S
C3768 C3767 1.524 . S
C3768 C3769 1.397 . S
C3768 C3773 1.363 . S
C3769 H3740 0.950 . S
C3769 C3768 1.397 . S
C3769 C3770 1.334 . S
C3770 H3741 0.950 . S
C3770 C3769 1.334 . S
C3770 C3771 1.287 . S
C3771 C3770 1.287 . S
C3771 C3772 1.524 . S
C3771 H3774 0.999 . S
C3772 H3742 0.950 . S
C3772 C3771 1.524 . S
C3772 C3773 1.415 . S
C3773 H3743 0.950 . S
C3773 C3768 1.363 . S
C3773 C3772 1.415 . S
H3774 C3771 0.999 . S
H3775 C3756 0.913 . S
H3776 C3794 0.951 . S
H3777 C3796 0.951 . S
H3778 C3798 0.950 . S
H3779 C3799 0.950 . S
H3780 C3801 0.950 . S
H3781 C3804 0.950 . S
H3782 C3805 0.950 . S
H3783 C3807 0.950 . S
H3784 C3808 0.950 . S
H3785 C3809 0.951 . S
H3786 C3811 0.951 . S
H3787 C3813 0.950 . S
H3788 C3814 0.950 . S
H3789 C3816 0.950 . S
H3790 C3819 0.950 . S
H3791 C3820 0.950 . S
H3792 C3822 0.950 . S
H3793 C3823 0.950 . S
C3794 H3776 0.951 . S
C3794 C3795 1.366 . S
C3794 C3796 1.388 . S
C3795 C3794 1.366 . S
C3795 C3799 1.385 . S
C3796 H3777 0.951 . S
C3796 C3794 1.388 . S
C3796 C3797 1.366 . S
C3797 C3796 1.366 . S
C3797 C3798 1.414 . S
C3797 C3800 1.499 . S
C3798 H3778 0.950 . S
C3798 C3797 1.414 . S
C3798 C3799 1.374 . S
C3799 H3779 0.950 . S
C3799 C3795 1.385 . S
C3799 C3798 1.374 . S
C3800 C3797 1.499 . S
C3800 C3801 1.373 . S
C3800 C3802 1.389 . S
C3801 H3780 0.950 . S
C3801 C3800 1.373 . S
C3801 C3817 1.377 . S
C3802 C3800 1.389 . S
C3802 C3803 1.524 . S
C3802 C3816 1.377 . S
C3803 C3802 1.524 . S
C3803 C3804 1.397 . S
C3803 C3808 1.363 . S
C3804 H3781 0.950 . S
C3804 C3803 1.397 . S
C3804 C3805 1.334 . S
C3805 H3782 0.950 . S
C3805 C3804 1.334 . S
C3805 C3806 1.287 . S
C3806 C3805 1.287 . S
C3806 C3807 1.524 . S
C3806 H3825 0.913 . S
C3807 H3783 0.950 . S
C3807 C3806 1.524 . S
C3807 C3808 1.415 . S
C3808 H3784 0.950 . S
C3808 C3803 1.363 . S
C3808 C3807 1.415 . S
C3809 H3785 0.951 . S
C3809 C3810 1.366 . S
C3809 C3811 1.388 . S
C3810 C3809 1.366 . S
C3810 C3814 1.385 . S
C3811 H3786 0.951 . S
C3811 C3809 1.388 . S
C3811 C3812 1.366 . S
C3812 C3811 1.366 . S
C3812 C3813 1.414 . S
C3812 C3815 1.499 . S
C3813 H3787 0.950 . S
C3813 C3812 1.414 . S
C3813 C3814 1.374 . S
C3814 H3788 0.950 . S
C3814 C3810 1.385 . S
C3814 C3813 1.374 . S
C3815 C3812 1.499 . S
C3815 C3816 1.373 . S
C3815 C3817 1.389 . S
C3816 H3789 0.950 . S
C3816 C3802 1.377 . S
C3816 C3815 1.373 . S
C3817 C3801 1.377 . S
C3817 C3815 1.389 . S
C3817 C3818 1.524 . S
C3818 C3817 1.524 . S
C3818 C3819 1.397 . S
C3818 C3823 1.363 . S
C3819 H3790 0.950 . S
C3819 C3818 1.397 . S
C3819 C3820 1.334 . S
C3820 H3791 0.950 . S
C3820 C3819 1.334 . S
C3820 C3821 1.287 . S
C3821 C3820 1.287 . S
C3821 C3822 1.524 . S
C3821 H3824 0.999 . S
C3822 H3792 0.950 . S
C3822 C3821 1.524 . S
C3822 C3823 1.415 . S
C3823 H3793 0.950 . S
C3823 C3818 1.363 . S
C3823 C3822 1.415 . S
H3824 C3821 0.999 . S
H3825 C3806 0.913 . S
H3826 C3844 0.951 . S
H3827 C3846 0.951 . S
H3828 C3848 0.950 . S
H3829 C3849 0.950 . S
H3830 C3851 0.950 . S
H3831 C3854 0.950 . S
H3832 C3855 0.950 . S
H3833 C3857 0.950 . S
H3834 C3858 0.950 . S
H3835 C3859 0.951 . S
H3836 C3861 0.951 . S
H3837 C3863 0.950 . S
H3838 C3864 0.950 . S
H3839 C3866 0.950 . S
H3840 C3869 0.950 . S
H3841 C3870 0.950 . S
H3842 C3872 0.950 . S
H3843 C3873 0.950 . S
C3844 H3826 0.951 . S
C3844 C3845 1.366 . S
C3844 C3846 1.388 . S
C3845 C3844 1.366 . S
C3845 C3849 1.385 . S
C3846 H3827 0.951 . S
C3846 C3844 1.388 . S
C3846 C3847 1.366 1_554 S
C3847 C3846 1.366 1_556 S
C3847 C3848 1.414 . S
C3847 C3850 1.499 . S
C3848 H3828 0.950 . S
C3848 C3847 1.414 . S
C3848 C3849 1.374 1_556 S
C3849 H3829 0.950 . S
C3849 C3845 1.385 . S
C3849 C3848 1.374 1_554 S
C3850 C3847 1.499 . S
C3850 C3851 1.373 . S
C3850 C3852 1.389 . S
C3851 H3830 0.950 . S
C3851 C3850 1.373 . S
C3851 C3867 1.377 . S
C3852 C3850 1.389 . S
C3852 C3853 1.524 . S
C3852 C3866 1.377 . S
C3853 C3852 1.524 . S
C3853 C3854 1.397 . S
C3853 C3858 1.363 . S
C3854 H3831 0.950 . S
C3854 C3853 1.397 . S
C3854 C3855 1.334 . S
C3855 H3832 0.950 . S
C3855 C3854 1.334 . S
C3855 C3856 1.287 . S
C3856 C3855 1.287 . S
C3856 C3857 1.524 . S
C3856 H3875 0.886 1_556 S
C3857 H3833 0.950 . S
C3857 C3856 1.524 . S
C3857 C3858 1.415 . S
C3858 H3834 0.950 . S
C3858 C3853 1.363 . S
C3858 C3857 1.415 . S
C3859 H3835 0.951 . S
C3859 C3860 1.366 . S
C3859 C3861 1.388 . S
C3860 C3859 1.366 . S
C3860 C3864 1.385 . S
C3861 H3836 0.951 . S
C3861 C3859 1.388 . S
C3861 C3862 1.366 . S
C3862 C3861 1.366 . S
C3862 C3863 1.414 . S
C3862 C3865 1.499 . S
C3863 H3837 0.950 . S
C3863 C3862 1.414 . S
C3863 C3864 1.374 . S
C3864 H3838 0.950 . S
C3864 C3860 1.385 . S
C3864 C3863 1.374 . S
C3865 C3862 1.499 . S
C3865 C3866 1.373 . S
C3865 C3867 1.389 . S
C3866 H3839 0.950 . S
C3866 C3852 1.377 . S
C3866 C3865 1.373 . S
C3867 C3851 1.377 . S
C3867 C3865 1.389 . S
C3867 C3868 1.524 . S
C3868 C3867 1.524 . S
C3868 C3869 1.397 . S
C3868 C3873 1.363 . S
C3869 H3840 0.950 . S
C3869 C3868 1.397 . S
C3869 C3870 1.334 . S
C3870 H3841 0.950 . S
C3870 C3869 1.334 . S
C3870 C3871 1.287 . S
C3871 C3870 1.287 . S
C3871 C3872 1.524 . S
C3871 H3874 0.999 . S
C3872 H3842 0.950 . S
C3872 C3871 1.524 . S
C3872 C3873 1.415 . S
C3873 H3843 0.950 . S
C3873 C3868 1.363 . S
C3873 C3872 1.415 . S
H3874 C3871 0.999 . S
H3875 C3856 0.886 1_554 S
H3876 C3894 0.951 . S
H3877 C3896 0.951 . S
H3878 C3898 0.950 . S
H3879 C3899 0.950 . S
H3880 C3901 0.950 . S
H3881 C3904 0.950 . S
H3882 C3905 0.950 . S
H3883 C3907 0.950 . S
H3884 C3908 0.950 . S
H3885 C3909 0.951 . S
H3886 C3911 0.951 . S
H3887 C3913 0.950 . S
H3888 C3914 0.950 . S
H3889 C3916 0.950 . S
H3890 C3919 0.950 . S
H3891 C3920 0.950 . S
H3892 C3922 0.950 . S
H3893 C3923 0.950 . S
C3894 H3876 0.951 . S
C3894 C3895 1.366 . S
C3894 C3896 1.388 . S
C3895 C3894 1.366 . S
C3895 C3899 1.385 . S
C3896 H3877 0.951 . S
C3896 C3894 1.388 . S
C3896 C3897 1.366 . S
C3897 C3896 1.366 . S
C3897 C3898 1.414 . S
C3897 C3900 1.499 . S
C3898 H3878 0.950 . S
C3898 C3897 1.414 . S
C3898 C3899 1.374 . S
C3899 H3879 0.950 . S
C3899 C3895 1.385 . S
C3899 C3898 1.374 . S
C3900 C3897 1.499 . S
C3900 C3901 1.373 . S
C3900 C3902 1.389 . S
C3901 H3880 0.950 . S
C3901 C3900 1.373 . S
C3901 C3917 1.377 . S
C3902 C3900 1.389 . S
C3902 C3903 1.524 . S
C3902 C3916 1.377 . S
C3903 C3902 1.524 . S
C3903 C3904 1.397 . S
C3903 C3908 1.363 . S
C3904 H3881 0.950 . S
C3904 C3903 1.397 . S
C3904 C3905 1.334 . S
C3905 H3882 0.950 . S
C3905 C3904 1.334 . S
C3905 C3906 1.287 . S
C3906 C3905 1.287 . S
C3906 C3907 1.524 . S
C3906 H3925 0.913 . S
C3907 H3883 0.950 . S
C3907 C3906 1.524 . S
C3907 C3908 1.415 . S
C3908 H3884 0.950 . S
C3908 C3903 1.363 . S
C3908 C3907 1.415 . S
C3909 H3885 0.951 . S
C3909 C3910 1.366 . S
C3909 C3911 1.388 . S
C3910 C3909 1.366 . S
C3910 C3914 1.385 . S
C3911 H3886 0.951 . S
C3911 C3909 1.388 . S
C3911 C3912 1.366 . S
C3912 C3911 1.366 . S
C3912 C3913 1.414 . S
C3912 C3915 1.499 . S
C3913 H3887 0.950 . S
C3913 C3912 1.414 . S
C3913 C3914 1.374 . S
C3914 H3888 0.950 . S
C3914 C3910 1.385 . S
C3914 C3913 1.374 . S
C3915 C3912 1.499 . S
C3915 C3916 1.373 . S
C3915 C3917 1.389 . S
C3916 H3889 0.950 . S
C3916 C3902 1.377 . S
C3916 C3915 1.373 . S
C3917 C3901 1.377 . S
C3917 C3915 1.389 . S
C3917 C3918 1.524 . S
C3918 C3917 1.524 . S
C3918 C3919 1.397 . S
C3918 C3923 1.363 . S
C3919 H3890 0.950 . S
C3919 C3918 1.397 . S
C3919 C3920 1.334 . S
C3920 H3891 0.950 . S
C3920 C3919 1.334 . S
C3920 C3921 1.287 . S
C3921 C3920 1.287 . S
C3921 C3922 1.524 . S
C3921 H3924 0.999 . S
C3922 H3892 0.950 . S
C3922 C3921 1.524 . S
C3922 C3923 1.415 . S
C3923 H3893 0.950 . S
C3923 C3918 1.363 . S
C3923 C3922 1.415 . S
H3924 C3921 0.999 . S
H3925 C3906 0.913 . S
H3926 C3944 0.951 . S
H3927 C3946 0.951 . S
H3928 C3948 0.950 . S
H3929 C3949 0.950 . S
H3930 C3951 0.950 . S
H3931 C3954 0.950 . S
H3932 C3955 0.950 . S
H3933 C3957 0.950 . S
H3934 C3958 0.950 . S
H3935 C3959 0.951 . S
H3936 C3961 0.951 . S
H3937 C3963 0.950 . S
H3938 C3964 0.950 . S
H3939 C3966 0.950 . S
H3940 C3969 0.950 . S
H3941 C3970 0.950 . S
H3942 C3972 0.950 . S
H3943 C3973 0.950 . S
C3944 H3926 0.951 . S
C3944 C3945 1.366 . S
C3944 C3946 1.388 . S
C3945 C3944 1.366 . S
C3945 C3949 1.385 . S
C3946 H3927 0.951 . S
C3946 C3944 1.388 . S
C3946 C3947 1.366 . S
C3947 C3946 1.366 . S
C3947 C3948 1.414 . S
C3947 C3950 1.499 . S
C3948 H3928 0.950 . S
C3948 C3947 1.414 . S
C3948 C3949 1.374 . S
C3949 H3929 0.950 . S
C3949 C3945 1.385 . S
C3949 C3948 1.374 . S
C3950 C3947 1.499 . S
C3950 C3951 1.373 . S
C3950 C3952 1.389 . S
C3951 H3930 0.950 . S
C3951 C3950 1.373 . S
C3951 C3967 1.377 . S
C3952 C3950 1.389 . S
C3952 C3953 1.524 . S
C3952 C3966 1.377 . S
C3953 C3952 1.524 . S
C3953 C3954 1.397 . S
C3953 C3958 1.363 . S
C3954 H3931 0.950 . S
C3954 C3953 1.397 . S
C3954 C3955 1.334 . S
C3955 H3932 0.950 . S
C3955 C3954 1.334 . S
C3955 C3956 1.287 . S
C3956 C3955 1.287 . S
C3956 C3957 1.524 . S
C3956 H3975 0.913 . S
C3957 H3933 0.950 . S
C3957 C3956 1.524 . S
C3957 C3958 1.415 . S
C3958 H3934 0.950 . S
C3958 C3953 1.363 . S
C3958 C3957 1.415 . S
C3959 H3935 0.951 . S
C3959 C3960 1.366 . S
C3959 C3961 1.388 . S
C3960 C3959 1.366 . S
C3960 C3964 1.385 . S
C3961 H3936 0.951 . S
C3961 C3959 1.388 . S
C3961 C3962 1.366 . S
C3962 C3961 1.366 . S
C3962 C3963 1.414 . S
C3962 C3965 1.499 . S
C3963 H3937 0.950 . S
C3963 C3962 1.414 . S
C3963 C3964 1.374 . S
C3964 H3938 0.950 . S
C3964 C3960 1.385 . S
C3964 C3963 1.374 . S
C3965 C3962 1.499 . S
C3965 C3966 1.373 . S
C3965 C3967 1.389 . S
C3966 H3939 0.950 . S
C3966 C3952 1.377 . S
C3966 C3965 1.373 . S
C3967 C3951 1.377 . S
C3967 C3965 1.389 . S
C3967 C3968 1.524 . S
C3968 C3967 1.524 . S
C3968 C3969 1.397 . S
C3968 C3973 1.363 . S
C3969 H3940 0.950 . S
C3969 C3968 1.397 . S
C3969 C3970 1.334 . S
C3970 H3941 0.950 . S
C3970 C3969 1.334 . S
C3970 C3971 1.287 . S
C3971 C3970 1.287 . S
C3971 C3972 1.524 . S
C3971 H3974 0.999 . S
C3972 H3942 0.950 . S
C3972 C3971 1.524 . S
C3972 C3973 1.415 . S
C3973 H3943 0.950 . S
C3973 C3968 1.363 . S
C3973 C3972 1.415 . S
H3974 C3971 0.999 . S
H3975 C3956 0.913 . S
H3976 C3994 0.951 . S
H3977 C3996 0.951 . S
H3978 C3998 0.950 . S
H3979 C3999 0.950 . S
H3980 C4001 0.950 . S
H3981 C4004 0.950 . S
H3982 C4005 0.950 . S
H3983 C4007 0.950 . S
H3984 C4008 0.950 . S
H3985 C4009 0.951 . S
H3986 C4011 0.951 . S
H3987 C4013 0.950 . S
H3988 C4014 0.950 . S
H3989 C4016 0.950 . S
H3990 C4019 0.950 . S
H3991 C4020 0.950 . S
H3992 C4022 0.950 . S
H3993 C4023 0.950 . S
C3994 H3976 0.951 . S
C3994 C3995 1.366 . S
C3994 C3996 1.388 . S
C3995 C3994 1.366 . S
C3995 C3999 1.385 . S
C3996 H3977 0.951 . S
C3996 C3994 1.388 . S
C3996 C3997 1.366 . S
C3997 C3996 1.366 . S
C3997 C3998 1.414 . S
C3997 C4000 1.499 . S
C3998 H3978 0.950 . S
C3998 C3997 1.414 . S
C3998 C3999 1.374 . S
C3999 H3979 0.950 . S
C3999 C3995 1.385 . S
C3999 C3998 1.374 . S
C4000 C3997 1.499 . S
C4000 C4001 1.373 . S
C4000 C4002 1.389 . S
C4001 H3980 0.950 . S
C4001 C4000 1.373 . S
C4001 C4017 1.377 . S
C4002 C4000 1.389 . S
C4002 C4003 1.524 . S
C4002 C4016 1.377 . S
C4003 C4002 1.524 . S
C4003 C4004 1.397 . S
C4003 C4008 1.363 . S
C4004 H3981 0.950 . S
C4004 C4003 1.397 . S
C4004 C4005 1.334 . S
C4005 H3982 0.950 . S
C4005 C4004 1.334 . S
C4005 C4006 1.287 . S
C4006 C4005 1.287 . S
C4006 C4007 1.524 . S
C4006 H4025 0.913 . S
C4007 H3983 0.950 . S
C4007 C4006 1.524 . S
C4007 C4008 1.415 . S
C4008 H3984 0.950 . S
C4008 C4003 1.363 . S
C4008 C4007 1.415 . S
C4009 H3985 0.951 . S
C4009 C4010 1.366 . S
C4009 C4011 1.388 . S
C4010 C4009 1.366 . S
C4010 C4014 1.385 . S
C4011 H3986 0.951 . S
C4011 C4009 1.388 . S
C4011 C4012 1.366 . S
C4012 C4011 1.366 . S
C4012 C4013 1.414 . S
C4012 C4015 1.499 . S
C4013 H3987 0.950 . S
C4013 C4012 1.414 . S
C4013 C4014 1.374 . S
C4014 H3988 0.950 . S
C4014 C4010 1.385 . S
C4014 C4013 1.374 . S
C4015 C4012 1.499 . S
C4015 C4016 1.373 . S
C4015 C4017 1.389 . S
C4016 H3989 0.950 . S
C4016 C4002 1.377 . S
C4016 C4015 1.373 . S
C4017 C4001 1.377 . S
C4017 C4015 1.389 . S
C4017 C4018 1.524 . S
C4018 C4017 1.524 . S
C4018 C4019 1.397 . S
C4018 C4023 1.363 . S
C4019 H3990 0.950 . S
C4019 C4018 1.397 . S
C4019 C4020 1.334 . S
C4020 H3991 0.950 . S
C4020 C4019 1.334 . S
C4020 C4021 1.287 . S
C4021 C4020 1.287 . S
C4021 C4022 1.524 . S
C4021 H4024 0.999 . S
C4022 H3992 0.950 . S
C4022 C4021 1.524 . S
C4022 C4023 1.415 . S
C4023 H3993 0.950 . S
C4023 C4018 1.363 . S
C4023 C4022 1.415 . S
H4024 C4021 0.999 . S
H4025 C4006 0.913 . S
H4026 C4044 0.951 . S
H4027 C4046 0.951 . S
H4028 C4048 0.950 . S
H4029 C4049 0.950 . S
H4030 C4051 0.950 . S
H4031 C4054 0.950 . S
H4032 C4055 0.950 . S
H4033 C4057 0.950 . S
H4034 C4058 0.950 . S
H4035 C4059 0.951 . S
H4036 C4061 0.951 . S
H4037 C4063 0.950 . S
H4038 C4064 0.950 . S
H4039 C4066 0.950 . S
H4040 C4069 0.950 . S
H4041 C4070 0.950 . S
H4042 C4072 0.950 . S
H4043 C4073 0.950 . S
C4044 H4026 0.951 . S
C4044 C4045 1.366 . S
C4044 C4046 1.388 . S
C4045 C4044 1.366 . S
C4045 C4049 1.385 . S
C4046 H4027 0.951 . S
C4046 C4044 1.388 . S
C4046 C4047 1.366 . S
C4047 C4046 1.366 . S
C4047 C4048 1.414 . S
C4047 C4050 1.499 . S
C4048 H4028 0.950 . S
C4048 C4047 1.414 . S
C4048 C4049 1.374 . S
C4049 H4029 0.950 . S
C4049 C4045 1.385 . S
C4049 C4048 1.374 . S
C4050 C4047 1.499 . S
C4050 C4051 1.373 . S
C4050 C4052 1.389 . S
C4051 H4030 0.950 . S
C4051 C4050 1.373 . S
C4051 C4067 1.377 . S
C4052 C4050 1.389 . S
C4052 C4053 1.524 . S
C4052 C4066 1.377 . S
C4053 C4052 1.524 . S
C4053 C4054 1.397 . S
C4053 C4058 1.363 . S
C4054 H4031 0.950 . S
C4054 C4053 1.397 . S
C4054 C4055 1.334 . S
C4055 H4032 0.950 . S
C4055 C4054 1.334 . S
C4055 C4056 1.287 . S
C4056 C4055 1.287 . S
C4056 C4057 1.524 . S
C4056 H4075 0.913 . S
C4057 H4033 0.950 . S
C4057 C4056 1.524 . S
C4057 C4058 1.415 . S
C4058 H4034 0.950 . S
C4058 C4053 1.363 . S
C4058 C4057 1.415 . S
C4059 H4035 0.951 . S
C4059 C4060 1.366 . S
C4059 C4061 1.388 . S
C4060 C4059 1.366 . S
C4060 C4064 1.385 . S
C4061 H4036 0.951 . S
C4061 C4059 1.388 . S
C4061 C4062 1.366 . S
C4062 C4061 1.366 . S
C4062 C4063 1.414 . S
C4062 C4065 1.499 . S
C4063 H4037 0.950 . S
C4063 C4062 1.414 . S
C4063 C4064 1.374 . S
C4064 H4038 0.950 . S
C4064 C4060 1.385 . S
C4064 C4063 1.374 . S
C4065 C4062 1.499 . S
C4065 C4066 1.373 . S
C4065 C4067 1.389 . S
C4066 H4039 0.950 . S
C4066 C4052 1.377 . S
C4066 C4065 1.373 . S
C4067 C4051 1.377 . S
C4067 C4065 1.389 . S
C4067 C4068 1.524 . S
C4068 C4067 1.524 . S
C4068 C4069 1.397 . S
C4068 C4073 1.363 . S
C4069 H4040 0.950 . S
C4069 C4068 1.397 . S
C4069 C4070 1.334 . S
C4070 H4041 0.950 . S
C4070 C4069 1.334 . S
C4070 C4071 1.287 . S
C4071 C4070 1.287 . S
C4071 C4072 1.524 . S
C4071 H4074 0.999 . S
C4072 H4042 0.950 . S
C4072 C4071 1.524 . S
C4072 C4073 1.415 . S
C4073 H4043 0.950 . S
C4073 C4068 1.363 . S
C4073 C4072 1.415 . S
H4074 C4071 0.999 . S
H4075 C4056 0.913 . S
H4076 C4094 0.951 . S
H4077 C4096 0.951 . S
H4078 C4098 0.950 . S
H4079 C4099 0.950 . S
H4080 C4101 0.950 . S
H4081 C4104 0.950 . S
H4082 C4105 0.950 . S
H4083 C4107 0.950 . S
H4084 C4108 0.950 . S
H4085 C4109 0.951 . S
H4086 C4111 0.951 . S
H4087 C4113 0.950 . S
H4088 C4114 0.950 . S
H4089 C4116 0.950 . S
H4090 C4119 0.950 . S
H4091 C4120 0.950 . S
H4092 C4122 0.950 . S
H4093 C4123 0.950 . S
C4094 H4076 0.951 . S
C4094 C4095 1.366 . S
C4094 C4096 1.388 . S
C4095 C4094 1.366 . S
C4095 C4099 1.385 . S
C4096 H4077 0.951 . S
C4096 C4094 1.388 . S
C4096 C4097 1.366 . S
C4097 C4096 1.366 . S
C4097 C4098 1.414 . S
C4097 C4100 1.499 . S
C4098 H4078 0.950 . S
C4098 C4097 1.414 . S
C4098 C4099 1.374 . S
C4099 H4079 0.950 . S
C4099 C4095 1.385 . S
C4099 C4098 1.374 . S
C4100 C4097 1.499 . S
C4100 C4101 1.373 . S
C4100 C4102 1.389 . S
C4101 H4080 0.950 . S
C4101 C4100 1.373 . S
C4101 C4117 1.377 . S
C4102 C4100 1.389 . S
C4102 C4103 1.524 . S
C4102 C4116 1.377 . S
C4103 C4102 1.524 . S
C4103 C4104 1.397 . S
C4103 C4108 1.363 . S
C4104 H4081 0.950 . S
C4104 C4103 1.397 . S
C4104 C4105 1.334 . S
C4105 H4082 0.950 . S
C4105 C4104 1.334 . S
C4105 C4106 1.287 . S
C4106 C4105 1.287 . S
C4106 C4107 1.524 . S
C4106 H4125 0.913 . S
C4107 H4083 0.950 . S
C4107 C4106 1.524 . S
C4107 C4108 1.415 . S
C4108 H4084 0.950 . S
C4108 C4103 1.363 . S
C4108 C4107 1.415 . S
C4109 H4085 0.951 . S
C4109 C4110 1.366 . S
C4109 C4111 1.388 . S
C4110 C4109 1.366 . S
C4110 C4114 1.385 . S
C4111 H4086 0.951 . S
C4111 C4109 1.388 . S
C4111 C4112 1.366 . S
C4112 C4111 1.366 . S
C4112 C4113 1.414 . S
C4112 C4115 1.499 . S
C4113 H4087 0.950 . S
C4113 C4112 1.414 . S
C4113 C4114 1.374 . S
C4114 H4088 0.950 . S
C4114 C4110 1.385 . S
C4114 C4113 1.374 . S
C4115 C4112 1.499 . S
C4115 C4116 1.373 . S
C4115 C4117 1.389 . S
C4116 H4089 0.950 . S
C4116 C4102 1.377 . S
C4116 C4115 1.373 . S
C4117 C4101 1.377 . S
C4117 C4115 1.389 . S
C4117 C4118 1.524 . S
C4118 C4117 1.524 . S
C4118 C4119 1.397 . S
C4118 C4123 1.363 . S
C4119 H4090 0.950 . S
C4119 C4118 1.397 . S
C4119 C4120 1.334 . S
C4120 H4091 0.950 . S
C4120 C4119 1.334 . S
C4120 C4121 1.287 . S
C4121 C4120 1.287 . S
C4121 C4122 1.524 . S
C4121 H4124 0.999 . S
C4122 H4092 0.950 . S
C4122 C4121 1.524 . S
C4122 C4123 1.415 . S
C4123 H4093 0.950 . S
C4123 C4118 1.363 . S
C4123 C4122 1.415 . S
H4124 C4121 0.999 . S
H4125 C4106 0.913 . S
H4126 C4144 0.951 . S
H4127 C4146 0.951 . S
H4128 C4148 0.950 . S
H4129 C4149 0.950 . S
H4130 C4151 0.950 . S
H4131 C4154 0.950 . S
H4132 C4155 0.950 . S
H4133 C4157 0.950 . S
H4134 C4158 0.950 . S
H4135 C4159 0.951 . S
H4136 C4161 0.951 . S
H4137 C4163 0.950 . S
H4138 C4164 0.950 . S
H4139 C4166 0.950 . S
H4140 C4169 0.950 . S
H4141 C4170 0.950 . S
H4142 C4172 0.950 . S
H4143 C4173 0.950 . S
C4144 H4126 0.951 . S
C4144 C4145 1.366 . S
C4144 C4146 1.388 . S
C4145 C4144 1.366 . S
C4145 C4149 1.385 . S
C4146 H4127 0.951 . S
C4146 C4144 1.388 . S
C4146 C4147 1.366 . S
C4147 C4146 1.366 . S
C4147 C4148 1.414 . S
C4147 C4150 1.499 . S
C4148 H4128 0.950 . S
C4148 C4147 1.414 . S
C4148 C4149 1.374 . S
C4149 H4129 0.950 . S
C4149 C4145 1.385 . S
C4149 C4148 1.374 . S
C4150 C4147 1.499 . S
C4150 C4151 1.373 . S
C4150 C4152 1.389 . S
C4151 H4130 0.950 . S
C4151 C4150 1.373 . S
C4151 C4167 1.377 . S
C4152 C4150 1.389 . S
C4152 C4153 1.524 . S
C4152 C4166 1.377 . S
C4153 C4152 1.524 . S
C4153 C4154 1.397 . S
C4153 C4158 1.363 . S
C4154 H4131 0.950 . S
C4154 C4153 1.397 . S
C4154 C4155 1.334 . S
C4155 H4132 0.950 . S
C4155 C4154 1.334 . S
C4155 C4156 1.287 . S
C4156 C4155 1.287 . S
C4156 C4157 1.524 . S
C4156 H4175 0.913 . S
C4157 H4133 0.950 . S
C4157 C4156 1.524 . S
C4157 C4158 1.415 . S
C4158 H4134 0.950 . S
C4158 C4153 1.363 . S
C4158 C4157 1.415 . S
C4159 H4135 0.951 . S
C4159 C4160 1.366 . S
C4159 C4161 1.388 . S
C4160 C4159 1.366 . S
C4160 C4164 1.385 . S
C4161 H4136 0.951 . S
C4161 C4159 1.388 . S
C4161 C4162 1.366 . S
C4162 C4161 1.366 . S
C4162 C4163 1.414 . S
C4162 C4165 1.499 . S
C4163 H4137 0.950 . S
C4163 C4162 1.414 . S
C4163 C4164 1.374 . S
C4164 H4138 0.950 . S
C4164 C4160 1.385 . S
C4164 C4163 1.374 . S
C4165 C4162 1.499 . S
C4165 C4166 1.373 . S
C4165 C4167 1.389 . S
C4166 H4139 0.950 . S
C4166 C4152 1.377 . S
C4166 C4165 1.373 . S
C4167 C4151 1.377 . S
C4167 C4165 1.389 . S
C4167 C4168 1.524 . S
C4168 C4167 1.524 . S
C4168 C4169 1.397 . S
C4168 C4173 1.363 . S
C4169 H4140 0.950 . S
C4169 C4168 1.397 . S
C4169 C4170 1.334 . S
C4170 H4141 0.950 . S
C4170 C4169 1.334 . S
C4170 C4171 1.287 . S
C4171 C4170 1.287 . S
C4171 C4172 1.524 . S
C4171 H4174 0.999 . S
C4172 H4142 0.950 . S
C4172 C4171 1.524 . S
C4172 C4173 1.415 . S
C4173 H4143 0.950 . S
C4173 C4168 1.363 . S
C4173 C4172 1.415 . S
H4174 C4171 0.999 . S
H4175 C4156 0.913 . S
H4176 C4194 0.951 . S
H4177 C4196 0.951 . S
H4178 C4198 0.950 . S
H4179 C4199 0.950 . S
H4180 C4201 0.950 . S
H4181 C4204 0.950 . S
H4182 C4205 0.950 . S
H4183 C4207 0.950 . S
H4184 C4208 0.950 . S
H4185 C4209 0.951 . S
H4186 C4211 0.951 . S
H4187 C4213 0.950 . S
H4188 C4214 0.950 . S
H4189 C4216 0.950 . S
H4190 C4219 0.950 . S
H4191 C4220 0.950 . S
H4192 C4222 0.950 . S
H4193 C4223 0.950 . S
C4194 H4176 0.951 . S
C4194 C4195 1.366 . S
C4194 C4196 1.388 . S
C4195 C4194 1.366 . S
C4195 C4199 1.385 . S
C4196 H4177 0.951 . S
C4196 C4194 1.388 . S
C4196 C4197 1.366 . S
C4197 C4196 1.366 . S
C4197 C4198 1.414 . S
C4197 C4200 1.499 . S
C4198 H4178 0.950 . S
C4198 C4197 1.414 . S
C4198 C4199 1.374 . S
C4199 H4179 0.950 . S
C4199 C4195 1.385 . S
C4199 C4198 1.374 . S
C4200 C4197 1.499 . S
C4200 C4201 1.373 . S
C4200 C4202 1.389 . S
C4201 H4180 0.950 . S
C4201 C4200 1.373 . S
C4201 C4217 1.377 . S
C4202 C4200 1.389 . S
C4202 C4203 1.524 . S
C4202 C4216 1.377 . S
C4203 C4202 1.524 . S
C4203 C4204 1.397 . S
C4203 C4208 1.363 . S
C4204 H4181 0.950 . S
C4204 C4203 1.397 . S
C4204 C4205 1.334 . S
C4205 H4182 0.950 . S
C4205 C4204 1.334 . S
C4205 C4206 1.287 . S
C4206 C4205 1.287 . S
C4206 C4207 1.524 . S
C4206 H4225 0.913 . S
C4207 H4183 0.950 . S
C4207 C4206 1.524 . S
C4207 C4208 1.415 . S
C4208 H4184 0.950 . S
C4208 C4203 1.363 . S
C4208 C4207 1.415 . S
C4209 H4185 0.951 . S
C4209 C4210 1.366 . S
C4209 C4211 1.388 . S
C4210 C4209 1.366 . S
C4210 C4214 1.385 . S
C4211 H4186 0.951 . S
C4211 C4209 1.388 . S
C4211 C4212 1.366 . S
C4212 C4211 1.366 . S
C4212 C4213 1.414 . S
C4212 C4215 1.499 . S
C4213 H4187 0.950 . S
C4213 C4212 1.414 . S
C4213 C4214 1.374 . S
C4214 H4188 0.950 . S
C4214 C4210 1.385 . S
C4214 C4213 1.374 . S
C4215 C4212 1.499 . S
C4215 C4216 1.373 . S
C4215 C4217 1.389 . S
C4216 H4189 0.950 . S
C4216 C4202 1.377 . S
C4216 C4215 1.373 . S
C4217 C4201 1.377 . S
C4217 C4215 1.389 . S
C4217 C4218 1.524 . S
C4218 C4217 1.524 . S
C4218 C4219 1.397 . S
C4218 C4223 1.363 . S
C4219 H4190 0.950 . S
C4219 C4218 1.397 . S
C4219 C4220 1.334 . S
C4220 H4191 0.950 . S
C4220 C4219 1.334 . S
C4220 C4221 1.287 . S
C4221 C4220 1.287 . S
C4221 C4222 1.524 . S
C4221 H4224 0.999 . S
C4222 H4192 0.950 . S
C4222 C4221 1.524 . S
C4222 C4223 1.415 . S
C4223 H4193 0.950 . S
C4223 C4218 1.363 . S
C4223 C4222 1.415 . S
H4224 C4221 0.999 . S
H4225 C4206 0.913 . S
H4226 C4244 0.951 . S
H4227 C4246 0.951 . S
H4228 C4248 0.950 . S
H4229 C4249 0.950 . S
H4230 C4251 0.950 . S
H4231 C4254 0.950 . S
H4232 C4255 0.950 . S
H4233 C4257 0.950 . S
H4234 C4258 0.950 . S
H4235 C4259 0.951 . S
H4236 C4261 0.951 . S
H4237 C4263 0.950 . S
H4238 C4264 0.950 . S
H4239 C4266 0.950 . S
H4240 C4269 0.950 . S
H4241 C4270 0.950 . S
H4242 C4272 0.950 . S
H4243 C4273 0.950 . S
C4244 H4226 0.951 . S
C4244 C4245 1.366 . S
C4244 C4246 1.388 . S
C4245 C4244 1.366 . S
C4245 C4249 1.385 . S
C4246 H4227 0.951 . S
C4246 C4244 1.388 . S
C4246 C4247 1.366 . S
C4247 C4246 1.366 . S
C4247 C4248 1.414 . S
C4247 C4250 1.499 . S
C4248 H4228 0.950 . S
C4248 C4247 1.414 . S
C4248 C4249 1.374 . S
C4249 H4229 0.950 . S
C4249 C4245 1.385 . S
C4249 C4248 1.374 . S
C4250 C4247 1.499 . S
C4250 C4251 1.373 . S
C4250 C4252 1.389 . S
C4251 H4230 0.950 . S
C4251 C4250 1.373 . S
C4251 C4267 1.377 . S
C4252 C4250 1.389 . S
C4252 C4253 1.524 . S
C4252 C4266 1.377 . S
C4253 C4252 1.524 . S
C4253 C4254 1.397 . S
C4253 C4258 1.363 . S
C4254 H4231 0.950 . S
C4254 C4253 1.397 . S
C4254 C4255 1.334 . S
C4255 H4232 0.950 . S
C4255 C4254 1.334 . S
C4255 C4256 1.287 . S
C4256 C4255 1.287 . S
C4256 C4257 1.524 . S
C4256 H4275 0.913 . S
C4257 H4233 0.950 . S
C4257 C4256 1.524 . S
C4257 C4258 1.415 . S
C4258 H4234 0.950 . S
C4258 C4253 1.363 . S
C4258 C4257 1.415 . S
C4259 H4235 0.951 . S
C4259 C4260 1.366 . S
C4259 C4261 1.388 . S
C4260 C4259 1.366 . S
C4260 C4264 1.385 . S
C4261 H4236 0.951 . S
C4261 C4259 1.388 . S
C4261 C4262 1.366 . S
C4262 C4261 1.366 . S
C4262 C4263 1.414 . S
C4262 C4265 1.499 . S
C4263 H4237 0.950 . S
C4263 C4262 1.414 . S
C4263 C4264 1.374 . S
C4264 H4238 0.950 . S
C4264 C4260 1.385 . S
C4264 C4263 1.374 . S
C4265 C4262 1.499 . S
C4265 C4266 1.373 . S
C4265 C4267 1.389 . S
C4266 H4239 0.950 . S
C4266 C4252 1.377 . S
C4266 C4265 1.373 . S
C4267 C4251 1.377 . S
C4267 C4265 1.389 . S
C4267 C4268 1.524 . S
C4268 C4267 1.524 . S
C4268 C4269 1.397 . S
C4268 C4273 1.363 . S
C4269 H4240 0.950 . S
C4269 C4268 1.397 . S
C4269 C4270 1.334 . S
C4270 H4241 0.950 . S
C4270 C4269 1.334 . S
C4270 C4271 1.287 . S
C4271 C4270 1.287 . S
C4271 C4272 1.524 . S
C4271 H4274 0.999 . S
C4272 H4242 0.950 . S
C4272 C4271 1.524 . S
C4272 C4273 1.415 . S
C4273 H4243 0.950 . S
C4273 C4268 1.363 . S
C4273 C4272 1.415 . S
H4274 C4271 0.999 . S
H4275 C4256 0.913 . S
H4276 C4294 0.951 . S
H4277 C4296 0.951 . S
H4278 C4298 0.950 . S
H4279 C4299 0.950 . S
H4280 C4301 0.950 . S
H4281 C4304 0.950 . S
H4282 C4305 0.950 . S
H4283 C4307 0.950 . S
H4284 C4308 0.950 . S
H4285 C4309 0.951 . S
H4286 C4311 0.951 . S
H4287 C4313 0.950 . S
H4288 C4314 0.950 . S
H4289 C4316 0.950 . S
H4290 C4319 0.950 . S
H4291 C4320 0.950 . S
H4292 C4322 0.950 . S
H4293 C4323 0.950 . S
C4294 H4276 0.951 . S
C4294 C4295 1.366 . S
C4294 C4296 1.388 . S
C4295 C4294 1.366 . S
C4295 C4299 1.385 . S
C4296 H4277 0.951 . S
C4296 C4294 1.388 . S
C4296 C4297 1.366 . S
C4297 C4296 1.366 . S
C4297 C4298 1.414 . S
C4297 C4300 1.499 . S
C4298 H4278 0.950 . S
C4298 C4297 1.414 . S
C4298 C4299 1.374 . S
C4299 H4279 0.950 . S
C4299 C4295 1.385 . S
C4299 C4298 1.374 . S
C4300 C4297 1.499 . S
C4300 C4301 1.373 . S
C4300 C4302 1.389 . S
C4301 H4280 0.950 . S
C4301 C4300 1.373 . S
C4301 C4317 1.377 . S
C4302 C4300 1.389 . S
C4302 C4303 1.524 . S
C4302 C4316 1.377 . S
C4303 C4302 1.524 . S
C4303 C4304 1.397 . S
C4303 C4308 1.363 . S
C4304 H4281 0.950 . S
C4304 C4303 1.397 . S
C4304 C4305 1.334 . S
C4305 H4282 0.950 . S
C4305 C4304 1.334 . S
C4305 C4306 1.287 . S
C4306 C4305 1.287 . S
C4306 C4307 1.524 . S
C4306 H4325 0.913 . S
C4307 H4283 0.950 . S
C4307 C4306 1.524 . S
C4307 C4308 1.415 . S
C4308 H4284 0.950 . S
C4308 C4303 1.363 . S
C4308 C4307 1.415 . S
C4309 H4285 0.951 . S
C4309 C4310 1.366 . S
C4309 C4311 1.388 . S
C4310 C4309 1.366 . S
C4310 C4314 1.385 . S
C4311 H4286 0.951 . S
C4311 C4309 1.388 . S
C4311 C4312 1.366 . S
C4312 C4311 1.366 . S
C4312 C4313 1.414 . S
C4312 C4315 1.499 . S
C4313 H4287 0.950 . S
C4313 C4312 1.414 . S
C4313 C4314 1.374 . S
C4314 H4288 0.950 . S
C4314 C4310 1.385 . S
C4314 C4313 1.374 . S
C4315 C4312 1.499 . S
C4315 C4316 1.373 . S
C4315 C4317 1.389 . S
C4316 H4289 0.950 . S
C4316 C4302 1.377 . S
C4316 C4315 1.373 . S
C4317 C4301 1.377 . S
C4317 C4315 1.389 . S
C4317 C4318 1.524 . S
C4318 C4317 1.524 . S
C4318 C4319 1.397 . S
C4318 C4323 1.363 . S
C4319 H4290 0.950 . S
C4319 C4318 1.397 . S
C4319 C4320 1.334 . S
C4320 H4291 0.950 . S
C4320 C4319 1.334 . S
C4320 C4321 1.287 . S
C4321 C4320 1.287 . S
C4321 C4322 1.524 . S
C4321 H4324 0.999 . S
C4322 H4292 0.950 . S
C4322 C4321 1.524 . S
C4322 C4323 1.415 . S
C4323 H4293 0.950 . S
C4323 C4318 1.363 . S
C4323 C4322 1.415 . S
H4324 C4321 0.999 . S
H4325 C4306 0.913 . S
H4326 C4344 0.951 . S
H4327 C4346 0.951 . S
H4328 C4348 0.950 . S
H4329 C4349 0.950 . S
H4330 C4351 0.950 1_556 S
H4331 C4354 0.950 . S
H4332 C4355 0.950 . S
H4333 C4357 0.950 . S
H4334 C4358 0.950 . S
H4335 C4359 0.951 . S
H4336 C4361 0.951 . S
H4337 C4363 0.950 . S
H4338 C4364 0.950 . S
H4339 C4366 0.950 . S
H4340 C4369 0.950 . S
H4341 C4370 0.950 . S
H4342 C4372 0.950 . S
H4343 C4373 0.950 . S
C4344 H4326 0.951 . S
C4344 C4345 1.366 . S
C4344 C4346 1.388 . S
C4345 C4344 1.366 . S
C4345 C4349 1.385 . S
C4346 H4327 0.951 . S
C4346 C4344 1.388 . S
C4346 C4347 1.366 . S
C4347 C4346 1.366 . S
C4347 C4348 1.414 . S
C4347 C4350 1.499 . S
C4348 H4328 0.950 . S
C4348 C4347 1.414 . S
C4348 C4349 1.374 . S
C4349 H4329 0.950 . S
C4349 C4345 1.385 . S
C4349 C4348 1.374 . S
C4350 C4347 1.499 . S
C4350 C4351 1.373 . S
C4350 C4352 1.389 . S
C4351 H4330 0.950 1_554 S
C4351 C4350 1.373 . S
C4351 C4367 1.377 . S
C4352 C4350 1.389 . S
C4352 C4353 1.524 . S
C4352 C4366 1.377 . S
C4353 C4352 1.524 . S
C4353 C4354 1.397 . S
C4353 C4358 1.363 . S
C4354 H4331 0.950 . S
C4354 C4353 1.397 . S
C4354 C4355 1.334 . S
C4355 H4332 0.950 . S
C4355 C4354 1.334 . S
C4355 C4356 1.287 . S
C4356 C4355 1.287 . S
C4356 C4357 1.524 . S
C4356 H4375 0.913 . S
C4357 H4333 0.950 . S
C4357 C4356 1.524 . S
C4357 C4358 1.415 . S
C4358 H4334 0.950 . S
C4358 C4353 1.363 . S
C4358 C4357 1.415 . S
C4359 H4335 0.951 . S
C4359 C4360 1.366 . S
C4359 C4361 1.388 . S
C4360 C4359 1.366 . S
C4360 C4364 1.385 . S
C4361 H4336 0.951 . S
C4361 C4359 1.388 . S
C4361 C4362 1.366 . S
C4362 C4361 1.366 . S
C4362 C4363 1.414 . S
C4362 C4365 1.499 . S
C4363 H4337 0.950 . S
C4363 C4362 1.414 . S
C4363 C4364 1.374 . S
C4364 H4338 0.950 . S
C4364 C4360 1.385 . S
C4364 C4363 1.374 . S
C4365 C4362 1.499 . S
C4365 C4366 1.373 . S
C4365 C4367 1.389 . S
C4366 H4339 0.950 . S
C4366 C4352 1.377 . S
C4366 C4365 1.373 . S
C4367 C4351 1.377 . S
C4367 C4365 1.389 . S
C4367 C4368 1.524 1_554 S
C4368 C4367 1.524 1_556 S
C4368 C4369 1.397 . S
C4368 C4373 1.363 . S
C4369 H4340 0.950 . S
C4369 C4368 1.397 . S
C4369 C4370 1.334 . S
C4370 H4341 0.950 . S
C4370 C4369 1.334 . S
C4370 C4371 1.287 . S
C4371 C4370 1.287 . S
C4371 C4372 1.524 . S
C4371 H4374 0.999 . S
C4372 H4342 0.950 . S
C4372 C4371 1.524 . S
C4372 C4373 1.415 . S
C4373 H4343 0.950 . S
C4373 C4368 1.363 . S
C4373 C4372 1.415 . S
H4374 C4371 0.999 . S
H4375 C4356 0.913 . S
H4376 C4394 0.951 . S
H4377 C4396 0.951 . S
H4378 C4398 0.950 . S
H4379 C4399 0.950 . S
H4380 C4401 0.950 . S
H4381 C4404 0.950 . S
H4382 C4405 0.950 . S
H4383 C4407 0.950 . S
H4384 C4408 0.950 . S
H4385 C4409 0.951 . S
H4386 C4411 0.951 . S
H4387 C4413 0.950 . S
H4388 C4414 0.950 . S
H4389 C4416 0.950 . S
H4390 C4419 0.950 . S
H4391 C4420 0.950 . S
H4392 C4422 0.950 . S
H4393 C4423 0.950 . S
C4394 H4376 0.951 . S
C4394 C4395 1.366 . S
C4394 C4396 1.388 . S
C4395 C4394 1.366 . S
C4395 C4399 1.385 . S
C4396 H4377 0.951 . S
C4396 C4394 1.388 . S
C4396 C4397 1.366 . S
C4397 C4396 1.366 . S
C4397 C4398 1.414 . S
C4397 C4400 1.499 . S
C4398 H4378 0.950 . S
C4398 C4397 1.414 . S
C4398 C4399 1.374 . S
C4399 H4379 0.950 . S
C4399 C4395 1.385 . S
C4399 C4398 1.374 . S
C4400 C4397 1.499 . S
C4400 C4401 1.373 . S
C4400 C4402 1.389 . S
C4401 H4380 0.950 . S
C4401 C4400 1.373 . S
C4401 C4417 1.377 . S
C4402 C4400 1.389 . S
C4402 C4403 1.524 . S
C4402 C4416 1.377 . S
C4403 C4402 1.524 . S
C4403 C4404 1.397 . S
C4403 C4408 1.363 . S
C4404 H4381 0.950 . S
C4404 C4403 1.397 . S
C4404 C4405 1.334 . S
C4405 H4382 0.950 . S
C4405 C4404 1.334 . S
C4405 C4406 1.287 . S
C4406 C4405 1.287 . S
C4406 C4407 1.524 . S
C4406 H4425 0.913 . S
C4407 H4383 0.950 . S
C4407 C4406 1.524 . S
C4407 C4408 1.415 . S
C4408 H4384 0.950 . S
C4408 C4403 1.363 . S
C4408 C4407 1.415 . S
C4409 H4385 0.951 . S
C4409 C4410 1.366 . S
C4409 C4411 1.388 . S
C4410 C4409 1.366 . S
C4410 C4414 1.385 . S
C4411 H4386 0.951 . S
C4411 C4409 1.388 . S
C4411 C4412 1.366 . S
C4412 C4411 1.366 . S
C4412 C4413 1.414 . S
C4412 C4415 1.499 . S
C4413 H4387 0.950 . S
C4413 C4412 1.414 . S
C4413 C4414 1.374 . S
C4414 H4388 0.950 . S
C4414 C4410 1.385 . S
C4414 C4413 1.374 . S
C4415 C4412 1.499 . S
C4415 C4416 1.373 . S
C4415 C4417 1.389 . S
C4416 H4389 0.950 . S
C4416 C4402 1.377 . S
C4416 C4415 1.373 . S
C4417 C4401 1.377 . S
C4417 C4415 1.389 . S
C4417 C4418 1.524 . S
C4418 C4417 1.524 . S
C4418 C4419 1.397 . S
C4418 C4423 1.363 . S
C4419 H4390 0.950 . S
C4419 C4418 1.397 . S
C4419 C4420 1.334 . S
C4420 H4391 0.950 . S
C4420 C4419 1.334 . S
C4420 C4421 1.287 . S
C4421 C4420 1.287 . S
C4421 C4422 1.524 . S
C4421 H4424 0.999 . S
C4422 H4392 0.950 . S
C4422 C4421 1.524 . S
C4422 C4423 1.415 . S
C4423 H4393 0.950 . S
C4423 C4418 1.363 . S
C4423 C4422 1.415 . S
H4424 C4421 0.999 . S
H4425 C4406 0.913 . S
H4426 C4444 0.951 . S
H4427 C4446 0.951 . S
H4428 C4448 0.950 . S
H4429 C4449 0.950 . S
H4430 C4451 0.950 . S
H4431 C4454 0.950 . S
H4432 C4455 0.950 1_556 S
H4433 C4457 0.950 . S
H4434 C4458 0.950 . S
H4435 C4459 0.951 . S
H4436 C4461 0.951 . S
H4437 C4463 0.950 . S
H4438 C4464 0.950 . S
H4439 C4466 0.950 . S
H4440 C4469 0.950 . S
H4441 C4470 0.950 . S
H4442 C4472 0.950 . S
H4443 C4473 0.950 . S
C4444 H4426 0.951 . S
C4444 C4445 1.366 . S
C4444 C4446 1.388 . S
C4445 C4444 1.366 . S
C4445 C4449 1.385 . S
C4446 H4427 0.951 . S
C4446 C4444 1.388 . S
C4446 C4447 1.366 . S
C4447 C4446 1.366 . S
C4447 C4448 1.414 . S
C4447 C4450 1.499 . S
C4448 H4428 0.950 . S
C4448 C4447 1.414 . S
C4448 C4449 1.374 . S
C4449 H4429 0.950 . S
C4449 C4445 1.385 . S
C4449 C4448 1.374 . S
C4450 C4447 1.499 . S
C4450 C4451 1.373 . S
C4450 C4452 1.389 . S
C4451 H4430 0.950 . S
C4451 C4450 1.373 . S
C4451 C4467 1.377 . S
C4452 C4450 1.389 . S
C4452 C4453 1.524 . S
C4452 C4466 1.377 . S
C4453 C4452 1.524 . S
C4453 C4454 1.397 . S
C4453 C4458 1.363 . S
C4454 H4431 0.950 . S
C4454 C4453 1.397 . S
C4454 C4455 1.334 . S
C4455 H4432 0.950 1_554 S
C4455 C4454 1.334 . S
C4455 C4456 1.287 . S
C4456 C4455 1.287 . S
C4456 C4457 1.524 . S
C4456 H4475 0.907 . S
C4457 H4433 0.950 . S
C4457 C4456 1.524 . S
C4457 C4458 1.415 . S
C4458 H4434 0.950 . S
C4458 C4453 1.363 . S
C4458 C4457 1.415 . S
C4459 H4435 0.951 . S
C4459 C4460 1.366 . S
C4459 C4461 1.388 . S
C4460 C4459 1.366 . S
C4460 C4464 1.385 . S
C4461 H4436 0.951 . S
C4461 C4459 1.388 . S
C4461 C4462 1.366 . S
C4462 C4461 1.366 . S
C4462 C4463 1.414 . S
C4462 C4465 1.499 . S
C4463 H4437 0.950 . S
C4463 C4462 1.414 . S
C4463 C4464 1.374 . S
C4464 H4438 0.950 . S
C4464 C4460 1.385 . S
C4464 C4463 1.374 . S
C4465 C4462 1.499 . S
C4465 C4466 1.373 . S
C4465 C4467 1.389 . S
C4466 H4439 0.950 . S
C4466 C4452 1.377 . S
C4466 C4465 1.373 . S
C4467 C4451 1.377 . S
C4467 C4465 1.389 . S
C4467 C4468 1.524 . S
C4468 C4467 1.524 . S
C4468 C4469 1.397 . S
C4468 C4473 1.363 . S
C4469 H4440 0.950 . S
C4469 C4468 1.397 . S
C4469 C4470 1.334 . S
C4470 H4441 0.950 . S
C4470 C4469 1.334 . S
C4470 C4471 1.287 . S
C4471 C4470 1.287 . S
C4471 C4472 1.524 . S
C4471 H4474 0.999 . S
C4472 H4442 0.950 . S
C4472 C4471 1.524 . S
C4472 C4473 1.415 . S
C4473 H4443 0.950 . S
C4473 C4468 1.363 . S
C4473 C4472 1.415 . S
H4474 C4471 0.999 . S
H4475 C4456 0.907 . S
H4476 C4494 0.951 . S
H4477 C4496 0.951 . S
H4478 C4498 0.950 . S
H4479 C4499 0.950 . S
H4480 C4501 0.950 . S
H4481 C4504 0.950 . S
H4482 C4505 0.950 . S
H4483 C4507 0.950 . S
H4484 C4508 0.950 . S
H4485 C4509 0.951 . S
H4486 C4511 0.951 . S
H4487 C4513 0.950 . S
H4488 C4514 0.950 . S
H4489 C4516 0.950 . S
H4490 C4519 0.950 . S
H4491 C4520 0.950 . S
H4492 C4522 0.950 . S
H4493 C4523 0.950 . S
C4494 H4476 0.951 . S
C4494 C4495 1.366 . S
C4494 C4496 1.388 . S
C4495 C4494 1.366 . S
C4495 C4499 1.385 . S
C4496 H4477 0.951 . S
C4496 C4494 1.388 . S
C4496 C4497 1.366 . S
C4497 C4496 1.366 . S
C4497 C4498 1.414 . S
C4497 C4500 1.499 . S
C4498 H4478 0.950 . S
C4498 C4497 1.414 . S
C4498 C4499 1.374 . S
C4499 H4479 0.950 . S
C4499 C4495 1.385 . S
C4499 C4498 1.374 . S
C4500 C4497 1.499 . S
C4500 C4501 1.373 . S
C4500 C4502 1.389 . S
C4501 H4480 0.950 . S
C4501 C4500 1.373 . S
C4501 C4517 1.377 . S
C4502 C4500 1.389 . S
C4502 C4503 1.524 . S
C4502 C4516 1.377 . S
C4503 C4502 1.524 . S
C4503 C4504 1.397 . S
C4503 C4508 1.363 . S
C4504 H4481 0.950 . S
C4504 C4503 1.397 . S
C4504 C4505 1.334 . S
C4505 H4482 0.950 . S
C4505 C4504 1.334 . S
C4505 C4506 1.287 . S
C4506 C4505 1.287 . S
C4506 C4507 1.524 . S
C4506 H4525 0.913 . S
C4507 H4483 0.950 . S
C4507 C4506 1.524 . S
C4507 C4508 1.415 . S
C4508 H4484 0.950 . S
C4508 C4503 1.363 . S
C4508 C4507 1.415 . S
C4509 H4485 0.951 . S
C4509 C4510 1.366 . S
C4509 C4511 1.388 . S
C4510 C4509 1.366 . S
C4510 C4514 1.385 . S
C4511 H4486 0.951 . S
C4511 C4509 1.388 . S
C4511 C4512 1.366 . S
C4512 C4511 1.366 . S
C4512 C4513 1.414 . S
C4512 C4515 1.499 . S
C4513 H4487 0.950 . S
C4513 C4512 1.414 . S
C4513 C4514 1.374 . S
C4514 H4488 0.950 . S
C4514 C4510 1.385 . S
C4514 C4513 1.374 . S
C4515 C4512 1.499 . S
C4515 C4516 1.373 . S
C4515 C4517 1.389 . S
C4516 H4489 0.950 . S
C4516 C4502 1.377 . S
C4516 C4515 1.373 . S
C4517 C4501 1.377 . S
C4517 C4515 1.389 . S
C4517 C4518 1.524 . S
C4518 C4517 1.524 . S
C4518 C4519 1.397 . S
C4518 C4523 1.363 . S
C4519 H4490 0.950 . S
C4519 C4518 1.397 . S
C4519 C4520 1.334 . S
C4520 H4491 0.950 . S
C4520 C4519 1.334 . S
C4520 C4521 1.287 . S
C4521 C4520 1.287 . S
C4521 C4522 1.524 . S
C4521 H4524 0.999 . S
C4522 H4492 0.950 . S
C4522 C4521 1.524 . S
C4522 C4523 1.415 . S
C4523 H4493 0.950 . S
C4523 C4518 1.363 . S
C4523 C4522 1.415 . S
H4524 C4521 0.999 . S
H4525 C4506 0.913 . S
H4526 C4544 0.951 . S
H4527 C4546 0.951 . S
H4528 C4548 0.950 . S
H4529 C4549 0.950 . S
H4530 C4551 0.950 . S
H4531 C4554 0.950 . S
H4532 C4555 0.950 . S
H4533 C4557 0.950 . S
H4534 C4558 0.950 . S
H4535 C4559 0.951 . S
H4536 C4561 0.951 . S
H4537 C4563 0.950 . S
H4538 C4564 0.950 . S
H4539 C4566 0.950 . S
H4540 C4569 0.950 . S
H4541 C4570 0.950 . S
H4542 C4572 0.950 . S
H4543 C4573 0.950 . S
C4544 H4526 0.951 . S
C4544 C4545 1.366 . S
C4544 C4546 1.388 . S
C4545 C4544 1.366 . S
C4545 C4549 1.385 . S
C4546 H4527 0.951 . S
C4546 C4544 1.388 . S
C4546 C4547 1.366 . S
C4547 C4546 1.366 . S
C4547 C4548 1.414 . S
C4547 C4550 1.499 . S
C4548 H4528 0.950 . S
C4548 C4547 1.414 . S
C4548 C4549 1.374 . S
C4549 H4529 0.950 . S
C4549 C4545 1.385 . S
C4549 C4548 1.374 . S
C4550 C4547 1.499 . S
C4550 C4551 1.373 . S
C4550 C4552 1.389 . S
C4551 H4530 0.950 . S
C4551 C4550 1.373 . S
C4551 C4567 1.377 . S
C4552 C4550 1.389 . S
C4552 C4553 1.524 . S
C4552 C4566 1.377 . S
C4553 C4552 1.524 . S
C4553 C4554 1.397 . S
C4553 C4558 1.363 . S
C4554 H4531 0.950 . S
C4554 C4553 1.397 . S
C4554 C4555 1.334 . S
C4555 H4532 0.950 . S
C4555 C4554 1.334 . S
C4555 C4556 1.287 . S
C4556 C4555 1.287 . S
C4556 C4557 1.524 . S
C4556 H4575 0.913 . S
C4557 H4533 0.950 . S
C4557 C4556 1.524 . S
C4557 C4558 1.415 . S
C4558 H4534 0.950 . S
C4558 C4553 1.363 . S
C4558 C4557 1.415 . S
C4559 H4535 0.951 . S
C4559 C4560 1.366 . S
C4559 C4561 1.388 . S
C4560 C4559 1.366 . S
C4560 C4564 1.385 . S
C4561 H4536 0.951 . S
C4561 C4559 1.388 . S
C4561 C4562 1.366 . S
C4562 C4561 1.366 . S
C4562 C4563 1.414 . S
C4562 C4565 1.499 . S
C4563 H4537 0.950 . S
C4563 C4562 1.414 . S
C4563 C4564 1.374 . S
C4564 H4538 0.950 . S
C4564 C4560 1.385 . S
C4564 C4563 1.374 . S
C4565 C4562 1.499 . S
C4565 C4566 1.373 . S
C4565 C4567 1.389 . S
C4566 H4539 0.950 . S
C4566 C4552 1.377 . S
C4566 C4565 1.373 . S
C4567 C4551 1.377 . S
C4567 C4565 1.389 . S
C4567 C4568 1.524 . S
C4568 C4567 1.524 . S
C4568 C4569 1.397 . S
C4568 C4573 1.363 . S
C4569 H4540 0.950 . S
C4569 C4568 1.397 . S
C4569 C4570 1.334 . S
C4570 H4541 0.950 . S
C4570 C4569 1.334 . S
C4570 C4571 1.287 . S
C4571 C4570 1.287 . S
C4571 C4572 1.524 . S
C4571 H4574 0.999 . S
C4572 H4542 0.950 . S
C4572 C4571 1.524 . S
C4572 C4573 1.415 . S
C4573 H4543 0.950 . S
C4573 C4568 1.363 . S
C4573 C4572 1.415 . S
H4574 C4571 0.999 . S
H4575 C4556 0.913 . S
H4576 C4594 0.951 . S
H4577 C4596 0.951 . S
H4578 C4598 0.950 . S
H4579 C4599 0.950 . S
H4580 C4601 0.950 . S
H4581 C4604 0.950 . S
H4582 C4605 0.950 . S
H4583 C4607 0.950 . S
H4584 C4608 0.950 . S
H4585 C4609 0.951 . S
H4586 C4611 0.951 . S
H4587 C4613 0.950 . S
H4588 C4614 0.950 . S
H4589 C4616 0.950 . S
H4590 C4619 0.950 . S
H4591 C4620 0.950 . S
H4592 C4622 0.950 . S
H4593 C4623 0.950 . S
C4594 H4576 0.951 . S
C4594 C4595 1.366 . S
C4594 C4596 1.388 . S
C4595 C4594 1.366 . S
C4595 C4599 1.385 . S
C4596 H4577 0.951 . S
C4596 C4594 1.388 . S
C4596 C4597 1.366 . S
C4597 C4596 1.366 . S
C4597 C4598 1.414 . S
C4597 C4600 1.499 . S
C4598 H4578 0.950 . S
C4598 C4597 1.414 . S
C4598 C4599 1.374 . S
C4599 H4579 0.950 . S
C4599 C4595 1.385 . S
C4599 C4598 1.374 . S
C4600 C4597 1.499 . S
C4600 C4601 1.373 . S
C4600 C4602 1.389 . S
C4601 H4580 0.950 . S
C4601 C4600 1.373 . S
C4601 C4617 1.377 . S
C4602 C4600 1.389 . S
C4602 C4603 1.524 . S
C4602 C4616 1.377 . S
C4603 C4602 1.524 . S
C4603 C4604 1.397 . S
C4603 C4608 1.363 . S
C4604 H4581 0.950 . S
C4604 C4603 1.397 . S
C4604 C4605 1.334 . S
C4605 H4582 0.950 . S
C4605 C4604 1.334 . S
C4605 C4606 1.287 . S
C4606 C4605 1.287 . S
C4606 C4607 1.524 . S
C4606 H4625 0.913 . S
C4607 H4583 0.950 . S
C4607 C4606 1.524 . S
C4607 C4608 1.415 . S
C4608 H4584 0.950 . S
C4608 C4603 1.363 . S
C4608 C4607 1.415 . S
C4609 H4585 0.951 . S
C4609 C4610 1.366 . S
C4609 C4611 1.388 . S
C4610 C4609 1.366 . S
C4610 C4614 1.385 . S
C4611 H4586 0.951 . S
C4611 C4609 1.388 . S
C4611 C4612 1.366 . S
C4612 C4611 1.366 . S
C4612 C4613 1.414 . S
C4612 C4615 1.499 . S
C4613 H4587 0.950 . S
C4613 C4612 1.414 . S
C4613 C4614 1.374 . S
C4614 H4588 0.950 . S
C4614 C4610 1.385 . S
C4614 C4613 1.374 . S
C4615 C4612 1.499 . S
C4615 C4616 1.373 . S
C4615 C4617 1.389 . S
C4616 H4589 0.950 . S
C4616 C4602 1.377 . S
C4616 C4615 1.373 . S
C4617 C4601 1.377 . S
C4617 C4615 1.389 . S
C4617 C4618 1.524 . S
C4618 C4617 1.524 . S
C4618 C4619 1.397 . S
C4618 C4623 1.363 . S
C4619 H4590 0.950 . S
C4619 C4618 1.397 . S
C4619 C4620 1.334 . S
C4620 H4591 0.950 . S
C4620 C4619 1.334 . S
C4620 C4621 1.287 . S
C4621 C4620 1.287 . S
C4621 C4622 1.524 . S
C4621 H4624 0.999 . S
C4622 H4592 0.950 . S
C4622 C4621 1.524 . S
C4622 C4623 1.415 . S
C4623 H4593 0.950 . S
C4623 C4618 1.363 . S
C4623 C4622 1.415 . S
H4624 C4621 0.999 . S
H4625 C4606 0.913 . S
H4626 C4644 0.951 . S
H4627 C4646 0.951 . S
H4628 C4648 0.950 . S
H4629 C4649 0.950 . S
H4630 C4651 0.950 . S
H4631 C4654 0.950 . S
H4632 C4655 0.950 . S
H4633 C4657 0.950 . S
H4634 C4658 0.950 . S
H4635 C4659 0.951 . S
H4636 C4661 0.951 . S
H4637 C4663 0.950 . S
H4638 C4664 0.950 . S
H4639 C4666 0.950 . S
H4640 C4669 0.950 . S
H4641 C4670 0.950 . S
H4642 C4672 0.950 . S
H4643 C4673 0.950 . S
C4644 H4626 0.951 . S
C4644 C4645 1.366 . S
C4644 C4646 1.388 . S
C4645 C4644 1.366 . S
C4645 C4649 1.385 . S
C4646 H4627 0.951 . S
C4646 C4644 1.388 . S
C4646 C4647 1.366 . S
C4647 C4646 1.366 . S
C4647 C4648 1.414 . S
C4647 C4650 1.499 . S
C4648 H4628 0.950 . S
C4648 C4647 1.414 . S
C4648 C4649 1.374 . S
C4649 H4629 0.950 . S
C4649 C4645 1.385 . S
C4649 C4648 1.374 . S
C4650 C4647 1.499 . S
C4650 C4651 1.373 . S
C4650 C4652 1.389 . S
C4651 H4630 0.950 . S
C4651 C4650 1.373 . S
C4651 C4667 1.377 . S
C4652 C4650 1.389 . S
C4652 C4653 1.524 . S
C4652 C4666 1.377 . S
C4653 C4652 1.524 . S
C4653 C4654 1.397 . S
C4653 C4658 1.363 . S
C4654 H4631 0.950 . S
C4654 C4653 1.397 . S
C4654 C4655 1.334 . S
C4655 H4632 0.950 . S
C4655 C4654 1.334 . S
C4655 C4656 1.287 . S
C4656 C4655 1.287 . S
C4656 C4657 1.524 . S
C4656 H4675 0.913 . S
C4657 H4633 0.950 . S
C4657 C4656 1.524 . S
C4657 C4658 1.415 . S
C4658 H4634 0.950 . S
C4658 C4653 1.363 . S
C4658 C4657 1.415 . S
C4659 H4635 0.951 . S
C4659 C4660 1.366 . S
C4659 C4661 1.388 . S
C4660 C4659 1.366 . S
C4660 C4664 1.385 . S
C4661 H4636 0.951 . S
C4661 C4659 1.388 . S
C4661 C4662 1.366 . S
C4662 C4661 1.366 . S
C4662 C4663 1.414 . S
C4662 C4665 1.499 . S
C4663 H4637 0.950 . S
C4663 C4662 1.414 . S
C4663 C4664 1.374 . S
C4664 H4638 0.950 . S
C4664 C4660 1.385 . S
C4664 C4663 1.374 . S
C4665 C4662 1.499 . S
C4665 C4666 1.373 . S
C4665 C4667 1.389 . S
C4666 H4639 0.950 . S
C4666 C4652 1.377 . S
C4666 C4665 1.373 . S
C4667 C4651 1.377 . S
C4667 C4665 1.389 . S
C4667 C4668 1.524 . S
C4668 C4667 1.524 . S
C4668 C4669 1.397 . S
C4668 C4673 1.363 . S
C4669 H4640 0.950 . S
C4669 C4668 1.397 . S
C4669 C4670 1.334 . S
C4670 H4641 0.950 . S
C4670 C4669 1.334 . S
C4670 C4671 1.287 . S
C4671 C4670 1.287 . S
C4671 C4672 1.524 . S
C4671 H4674 0.999 . S
C4672 H4642 0.950 . S
C4672 C4671 1.524 . S
C4672 C4673 1.415 . S
C4673 H4643 0.950 . S
C4673 C4668 1.363 . S
C4673 C4672 1.415 . S
H4674 C4671 0.999 . S
H4675 C4656 0.913 . S
H4676 C4694 0.951 . S
H4677 C4696 0.951 . S
H4678 C4698 0.950 . S
H4679 C4699 0.950 . S
H4680 C4701 0.950 . S
H4681 C4704 0.950 . S
H4682 C4705 0.950 . S
H4683 C4707 0.950 . S
H4684 C4708 0.950 . S
H4685 C4709 0.951 . S
H4686 C4711 0.951 . S
H4687 C4713 0.950 . S
H4688 C4714 0.950 . S
H4689 C4716 0.950 . S
H4690 C4719 0.950 . S
H4691 C4720 0.950 . S
H4692 C4722 0.950 . S
H4693 C4723 0.950 . S
C4694 H4676 0.951 . S
C4694 C4695 1.366 . S
C4694 C4696 1.388 . S
C4695 C4694 1.366 . S
C4695 C4699 1.385 . S
C4696 H4677 0.951 . S
C4696 C4694 1.388 . S
C4696 C4697 1.366 . S
C4697 C4696 1.366 . S
C4697 C4698 1.414 . S
C4697 C4700 1.499 . S
C4698 H4678 0.950 . S
C4698 C4697 1.414 . S
C4698 C4699 1.374 . S
C4699 H4679 0.950 . S
C4699 C4695 1.385 . S
C4699 C4698 1.374 . S
C4700 C4697 1.499 . S
C4700 C4701 1.373 . S
C4700 C4702 1.389 . S
C4701 H4680 0.950 . S
C4701 C4700 1.373 . S
C4701 C4717 1.377 . S
C4702 C4700 1.389 . S
C4702 C4703 1.524 . S
C4702 C4716 1.377 . S
C4703 C4702 1.524 . S
C4703 C4704 1.397 . S
C4703 C4708 1.363 . S
C4704 H4681 0.950 . S
C4704 C4703 1.397 . S
C4704 C4705 1.334 . S
C4705 H4682 0.950 . S
C4705 C4704 1.334 . S
C4705 C4706 1.287 . S
C4706 C4705 1.287 . S
C4706 C4707 1.524 . S
C4706 H4725 0.913 . S
C4707 H4683 0.950 . S
C4707 C4706 1.524 . S
C4707 C4708 1.415 . S
C4708 H4684 0.950 . S
C4708 C4703 1.363 . S
C4708 C4707 1.415 . S
C4709 H4685 0.951 . S
C4709 C4710 1.366 . S
C4709 C4711 1.388 . S
C4710 C4709 1.366 . S
C4710 C4714 1.385 . S
C4711 H4686 0.951 . S
C4711 C4709 1.388 . S
C4711 C4712 1.366 . S
C4712 C4711 1.366 . S
C4712 C4713 1.414 . S
C4712 C4715 1.499 . S
C4713 H4687 0.950 . S
C4713 C4712 1.414 . S
C4713 C4714 1.374 . S
C4714 H4688 0.950 . S
C4714 C4710 1.385 . S
C4714 C4713 1.374 . S
C4715 C4712 1.499 . S
C4715 C4716 1.373 . S
C4715 C4717 1.389 . S
C4716 H4689 0.950 . S
C4716 C4702 1.377 . S
C4716 C4715 1.373 . S
C4717 C4701 1.377 . S
C4717 C4715 1.389 . S
C4717 C4718 1.524 . S
C4718 C4717 1.524 . S
C4718 C4719 1.397 . S
C4718 C4723 1.363 . S
C4719 H4690 0.950 . S
C4719 C4718 1.397 . S
C4719 C4720 1.334 . S
C4720 H4691 0.950 . S
C4720 C4719 1.334 . S
C4720 C4721 1.287 . S
C4721 C4720 1.287 . S
C4721 C4722 1.524 . S
C4721 H4724 0.999 . S
C4722 H4692 0.950 . S
C4722 C4721 1.524 . S
C4722 C4723 1.415 . S
C4723 H4693 0.950 . S
C4723 C4718 1.363 . S
C4723 C4722 1.415 . S
H4724 C4721 0.999 . S
H4725 C4706 0.913 . S
H4726 C4744 0.951 . S
H4727 C4746 0.951 . S
H4728 C4748 0.950 . S
H4729 C4749 0.950 . S
H4730 C4751 0.950 . S
H4731 C4754 0.950 . S
H4732 C4755 0.950 . S
H4733 C4757 0.950 . S
H4734 C4758 0.950 . S
H4735 C4759 0.951 . S
H4736 C4761 0.951 . S
H4737 C4763 0.950 . S
H4738 C4764 0.950 . S
H4739 C4766 0.950 . S
H4740 C4769 0.950 . S
H4741 C4770 0.950 . S
H4742 C4772 0.950 . S
H4743 C4773 0.950 . S
C4744 H4726 0.951 . S
C4744 C4745 1.366 . S
C4744 C4746 1.388 . S
C4745 C4744 1.366 . S
C4745 C4749 1.385 . S
C4746 H4727 0.951 . S
C4746 C4744 1.388 . S
C4746 C4747 1.366 . S
C4747 C4746 1.366 . S
C4747 C4748 1.414 . S
C4747 C4750 1.499 . S
C4748 H4728 0.950 . S
C4748 C4747 1.414 . S
C4748 C4749 1.374 . S
C4749 H4729 0.950 . S
C4749 C4745 1.385 . S
C4749 C4748 1.374 . S
C4750 C4747 1.499 . S
C4750 C4751 1.373 . S
C4750 C4752 1.389 . S
C4751 H4730 0.950 . S
C4751 C4750 1.373 . S
C4751 C4767 1.377 . S
C4752 C4750 1.389 . S
C4752 C4753 1.524 . S
C4752 C4766 1.377 . S
C4753 C4752 1.524 . S
C4753 C4754 1.397 . S
C4753 C4758 1.363 . S
C4754 H4731 0.950 . S
C4754 C4753 1.397 . S
C4754 C4755 1.334 . S
C4755 H4732 0.950 . S
C4755 C4754 1.334 . S
C4755 C4756 1.287 . S
C4756 C4755 1.287 . S
C4756 C4757 1.524 . S
C4756 H4775 0.913 . S
C4757 H4733 0.950 . S
C4757 C4756 1.524 . S
C4757 C4758 1.415 . S
C4758 H4734 0.950 . S
C4758 C4753 1.363 . S
C4758 C4757 1.415 . S
C4759 H4735 0.951 . S
C4759 C4760 1.366 . S
C4759 C4761 1.388 . S
C4760 C4759 1.366 . S
C4760 C4764 1.385 . S
C4761 H4736 0.951 . S
C4761 C4759 1.388 . S
C4761 C4762 1.366 . S
C4762 C4761 1.366 . S
C4762 C4763 1.414 . S
C4762 C4765 1.499 . S
C4763 H4737 0.950 . S
C4763 C4762 1.414 . S
C4763 C4764 1.374 . S
C4764 H4738 0.950 . S
C4764 C4760 1.385 . S
C4764 C4763 1.374 . S
C4765 C4762 1.499 . S
C4765 C4766 1.373 . S
C4765 C4767 1.389 . S
C4766 H4739 0.950 . S
C4766 C4752 1.377 . S
C4766 C4765 1.373 . S
C4767 C4751 1.377 . S
C4767 C4765 1.389 . S
C4767 C4768 1.524 . S
C4768 C4767 1.524 . S
C4768 C4769 1.397 . S
C4768 C4773 1.363 . S
C4769 H4740 0.950 . S
C4769 C4768 1.397 . S
C4769 C4770 1.334 . S
C4770 H4741 0.950 . S
C4770 C4769 1.334 . S
C4770 C4771 1.287 . S
C4771 C4770 1.287 . S
C4771 C4772 1.524 . S
C4771 H4774 0.999 . S
C4772 H4742 0.950 . S
C4772 C4771 1.524 . S
C4772 C4773 1.415 . S
C4773 H4743 0.950 . S
C4773 C4768 1.363 . S
C4773 C4772 1.415 . S
H4774 C4771 0.999 . S
H4775 C4756 0.913 . S
H4776 C4794 0.951 . S
H4777 C4796 0.951 . S
H4778 C4798 0.950 . S
H4779 C4799 0.950 . S
H4780 C4801 0.950 . S
H4781 C4804 0.950 . S
H4782 C4805 0.950 . S
H4783 C4807 0.950 . S
H4784 C4808 0.950 . S
H4785 C4809 0.951 . S
H4786 C4811 0.951 . S
H4787 C4813 0.950 . S
H4788 C4814 0.950 . S
H4789 C4816 0.950 . S
H4790 C4819 0.950 . S
H4791 C4820 0.950 . S
H4792 C4822 0.950 . S
H4793 C4823 0.950 . S
C4794 H4776 0.951 . S
C4794 C4795 1.366 . S
C4794 C4796 1.388 . S
C4795 C4794 1.366 . S
C4795 C4799 1.385 . S
C4796 H4777 0.951 . S
C4796 C4794 1.388 . S
C4796 C4797 1.366 . S
C4797 C4796 1.366 . S
C4797 C4798 1.414 . S
C4797 C4800 1.499 . S
C4798 H4778 0.950 . S
C4798 C4797 1.414 . S
C4798 C4799 1.374 . S
C4799 H4779 0.950 . S
C4799 C4795 1.385 . S
C4799 C4798 1.374 . S
C4800 C4797 1.499 . S
C4800 C4801 1.373 . S
C4800 C4802 1.389 . S
C4801 H4780 0.950 . S
C4801 C4800 1.373 . S
C4801 C4817 1.377 . S
C4802 C4800 1.389 . S
C4802 C4803 1.524 . S
C4802 C4816 1.377 . S
C4803 C4802 1.524 . S
C4803 C4804 1.397 . S
C4803 C4808 1.363 . S
C4804 H4781 0.950 . S
C4804 C4803 1.397 . S
C4804 C4805 1.334 . S
C4805 H4782 0.950 . S
C4805 C4804 1.334 . S
C4805 C4806 1.287 . S
C4806 C4805 1.287 . S
C4806 C4807 1.524 . S
C4806 H4825 0.913 . S
C4807 H4783 0.950 . S
C4807 C4806 1.524 . S
C4807 C4808 1.415 . S
C4808 H4784 0.950 . S
C4808 C4803 1.363 . S
C4808 C4807 1.415 . S
C4809 H4785 0.951 . S
C4809 C4810 1.366 . S
C4809 C4811 1.388 . S
C4810 C4809 1.366 . S
C4810 C4814 1.385 . S
C4811 H4786 0.951 . S
C4811 C4809 1.388 . S
C4811 C4812 1.366 . S
C4812 C4811 1.366 . S
C4812 C4813 1.414 . S
C4812 C4815 1.499 . S
C4813 H4787 0.950 . S
C4813 C4812 1.414 . S
C4813 C4814 1.374 . S
C4814 H4788 0.950 . S
C4814 C4810 1.385 . S
C4814 C4813 1.374 . S
C4815 C4812 1.499 . S
C4815 C4816 1.373 . S
C4815 C4817 1.389 . S
C4816 H4789 0.950 . S
C4816 C4802 1.377 . S
C4816 C4815 1.373 . S
C4817 C4801 1.377 . S
C4817 C4815 1.389 . S
C4817 C4818 1.524 . S
C4818 C4817 1.524 . S
C4818 C4819 1.397 . S
C4818 C4823 1.363 . S
C4819 H4790 0.950 . S
C4819 C4818 1.397 . S
C4819 C4820 1.334 1_556 S
C4820 H4791 0.950 . S
C4820 C4819 1.334 1_554 S
C4820 C4821 1.287 . S
C4821 C4820 1.287 . S
C4821 C4822 1.524 1_554 S
C4821 H4824 0.999 . S
C4822 H4792 0.950 . S
C4822 C4821 1.524 1_556 S
C4822 C4823 1.415 . S
C4823 H4793 0.950 . S
C4823 C4818 1.363 . S
C4823 C4822 1.415 . S
H4824 C4821 0.999 . S
H4825 C4806 0.913 . S
H4826 C4844 0.951 . S
H4827 C4846 0.951 . S
H4828 C4848 0.950 . S
H4829 C4849 0.950 . S
H4830 C4851 0.950 . S
H4831 C4854 0.950 . S
H4832 C4855 0.950 . S
H4833 C4857 0.950 . S
H4834 C4858 0.950 . S
H4835 C4859 0.951 . S
H4836 C4861 0.951 . S
H4837 C4863 0.950 . S
H4838 C4864 0.950 . S
H4839 C4866 0.950 . S
H4840 C4869 0.950 . S
H4841 C4870 0.950 . S
H4842 C4872 0.950 . S
H4843 C4873 0.950 . S
C4844 H4826 0.951 . S
C4844 C4845 1.366 . S
C4844 C4846 1.388 . S
C4845 C4844 1.366 . S
C4845 C4849 1.385 . S
C4846 H4827 0.951 . S
C4846 C4844 1.388 . S
C4846 C4847 1.366 . S
C4847 C4846 1.366 . S
C4847 C4848 1.414 . S
C4847 C4850 1.499 . S
C4848 H4828 0.950 . S
C4848 C4847 1.414 . S
C4848 C4849 1.374 . S
C4849 H4829 0.950 . S
C4849 C4845 1.385 . S
C4849 C4848 1.374 . S
C4850 C4847 1.499 . S
C4850 C4851 1.373 . S
C4850 C4852 1.389 . S
C4851 H4830 0.950 . S
C4851 C4850 1.373 . S
C4851 C4867 1.377 . S
C4852 C4850 1.389 . S
C4852 C4853 1.524 . S
C4852 C4866 1.377 . S
C4853 C4852 1.524 . S
C4853 C4854 1.397 . S
C4853 C4858 1.363 . S
C4854 H4831 0.950 . S
C4854 C4853 1.397 . S
C4854 C4855 1.334 . S
C4855 H4832 0.950 . S
C4855 C4854 1.334 . S
C4855 C4856 1.287 . S
C4856 C4855 1.287 . S
C4856 C4857 1.524 . S
C4856 H4875 0.913 . S
C4857 H4833 0.950 . S
C4857 C4856 1.524 . S
C4857 C4858 1.415 . S
C4858 H4834 0.950 . S
C4858 C4853 1.363 . S
C4858 C4857 1.415 . S
C4859 H4835 0.951 . S
C4859 C4860 1.366 . S
C4859 C4861 1.388 . S
C4860 C4859 1.366 . S
C4860 C4864 1.385 . S
C4861 H4836 0.951 . S
C4861 C4859 1.388 . S
C4861 C4862 1.366 . S
C4862 C4861 1.366 . S
C4862 C4863 1.414 . S
C4862 C4865 1.499 . S
C4863 H4837 0.950 . S
C4863 C4862 1.414 . S
C4863 C4864 1.374 . S
C4864 H4838 0.950 . S
C4864 C4860 1.385 . S
C4864 C4863 1.374 . S
C4865 C4862 1.499 . S
C4865 C4866 1.373 . S
C4865 C4867 1.389 . S
C4866 H4839 0.950 . S
C4866 C4852 1.377 . S
C4866 C4865 1.373 . S
C4867 C4851 1.377 . S
C4867 C4865 1.389 . S
C4867 C4868 1.524 . S
C4868 C4867 1.524 . S
C4868 C4869 1.397 . S
C4868 C4873 1.363 . S
C4869 H4840 0.950 . S
C4869 C4868 1.397 . S
C4869 C4870 1.334 . S
C4870 H4841 0.950 . S
C4870 C4869 1.334 . S
C4870 C4871 1.287 . S
C4871 C4870 1.287 . S
C4871 C4872 1.524 . S
C4871 H4874 0.999 . S
C4872 H4842 0.950 . S
C4872 C4871 1.524 . S
C4872 C4873 1.415 . S
C4873 H4843 0.950 . S
C4873 C4868 1.363 . S
C4873 C4872 1.415 . S
H4874 C4871 0.999 . S
H4875 C4856 0.913 . S
H4876 C4894 0.951 . S
H4877 C4896 0.951 . S
H4878 C4898 0.950 . S
H4879 C4899 0.950 . S
H4880 C4901 0.950 1_655 S
H4881 C4904 0.950 . S
H4882 C4905 0.950 . S
H4883 C4907 0.950 . S
H4884 C4908 0.950 . S
H4885 C4909 0.951 . S
H4886 C4911 0.951 . S
H4887 C4913 0.950 . S
H4888 C4914 0.950 . S
H4889 C4916 0.950 . S
H4890 C4919 0.950 . S
H4891 C4920 0.950 . S
H4892 C4922 0.950 . S
H4893 C4923 0.950 . S
C4894 H4876 0.951 . S
C4894 C4895 1.366 . S
C4894 C4896 1.388 . S
C4895 C4894 1.366 . S
C4895 C4899 1.385 . S
C4896 H4877 0.951 . S
C4896 C4894 1.388 . S
C4896 C4897 1.366 . S
C4897 C4896 1.366 . S
C4897 C4898 1.414 . S
C4897 C4900 1.499 . S
C4898 H4878 0.950 . S
C4898 C4897 1.414 . S
C4898 C4899 1.374 . S
C4899 H4879 0.950 . S
C4899 C4895 1.385 . S
C4899 C4898 1.374 . S
C4900 C4897 1.499 . S
C4900 C4901 1.373 . S
C4900 C4902 1.389 . S
C4901 H4880 0.950 1_455 S
C4901 C4900 1.373 . S
C4901 C4917 1.377 . S
C4902 C4900 1.389 . S
C4902 C4903 1.524 . S
C4902 C4916 1.377 . S
C4903 C4902 1.524 . S
C4903 C4904 1.397 . S
C4903 C4908 1.363 . S
C4904 H4881 0.950 . S
C4904 C4903 1.397 . S
C4904 C4905 1.334 . S
C4905 H4882 0.950 . S
C4905 C4904 1.334 . S
C4905 C4906 1.287 . S
C4906 C4905 1.287 . S
C4906 C4907 1.524 . S
C4906 H4925 0.913 . S
C4907 H4883 0.950 . S
C4907 C4906 1.524 . S
C4907 C4908 1.415 . S
C4908 H4884 0.950 . S
C4908 C4903 1.363 . S
C4908 C4907 1.415 . S
C4909 H4885 0.951 . S
C4909 C4910 1.366 . S
C4909 C4911 1.388 . S
C4910 C4909 1.366 . S
C4910 C4914 1.385 . S
C4911 H4886 0.951 . S
C4911 C4909 1.388 . S
C4911 C4912 1.366 . S
C4912 C4911 1.366 . S
C4912 C4913 1.414 . S
C4912 C4915 1.499 . S
C4913 H4887 0.950 . S
C4913 C4912 1.414 . S
C4913 C4914 1.374 . S
C4914 H4888 0.950 . S
C4914 C4910 1.385 . S
C4914 C4913 1.374 . S
C4915 C4912 1.499 . S
C4915 C4916 1.373 . S
C4915 C4917 1.389 . S
C4916 H4889 0.950 . S
C4916 C4902 1.377 . S
C4916 C4915 1.373 . S
C4917 C4901 1.377 . S
C4917 C4915 1.389 . S
C4917 C4918 1.524 1_455 S
C4918 C4917 1.524 1_655 S
C4918 C4919 1.397 . S
C4918 C4923 1.363 . S
C4919 H4890 0.950 . S
C4919 C4918 1.397 . S
C4919 C4920 1.334 . S
C4920 H4891 0.950 . S
C4920 C4919 1.334 . S
C4920 C4921 1.287 . S
C4921 C4920 1.287 . S
C4921 C4922 1.524 . S
C4921 H4924 0.999 . S
C4922 H4892 0.950 . S
C4922 C4921 1.524 . S
C4922 C4923 1.415 . S
C4923 H4893 0.950 . S
C4923 C4918 1.363 . S
C4923 C4922 1.415 . S
H4924 C4921 0.999 . S
H4925 C4906 0.913 . S
H4926 C4944 0.951 . S
H4927 C4946 0.951 . S
H4928 C4948 0.950 . S
H4929 C4949 0.950 . S
H4930 C4951 0.950 . S
H4931 C4954 0.950 . S
H4932 C4955 0.950 . S
H4933 C4957 0.950 . S
H4934 C4958 0.950 . S
H4935 C4959 0.951 . S
H4936 C4961 0.951 . S
H4937 C4963 0.950 . S
H4938 C4964 0.950 . S
H4939 C4966 0.950 . S
H4940 C4969 0.950 . S
H4941 C4970 0.950 . S
H4942 C4972 0.950 . S
H4943 C4973 0.950 . S
C4944 H4926 0.951 . S
C4944 C4945 1.366 . S
C4944 C4946 1.388 . S
C4945 C4944 1.366 . S
C4945 C4949 1.385 . S
C4946 H4927 0.951 . S
C4946 C4944 1.388 . S
C4946 C4947 1.366 . S
C4947 C4946 1.366 . S
C4947 C4948 1.414 . S
C4947 C4950 1.499 . S
C4948 H4928 0.950 . S
C4948 C4947 1.414 . S
C4948 C4949 1.374 . S
C4949 H4929 0.950 . S
C4949 C4945 1.385 . S
C4949 C4948 1.374 . S
C4950 C4947 1.499 . S
C4950 C4951 1.373 . S
C4950 C4952 1.389 . S
C4951 H4930 0.950 . S
C4951 C4950 1.373 . S
C4951 C4967 1.377 . S
C4952 C4950 1.389 . S
C4952 C4953 1.524 . S
C4952 C4966 1.377 . S
C4953 C4952 1.524 . S
C4953 C4954 1.397 . S
C4953 C4958 1.363 . S
C4954 H4931 0.950 . S
C4954 C4953 1.397 . S
C4954 C4955 1.334 . S
C4955 H4932 0.950 . S
C4955 C4954 1.334 . S
C4955 C4956 1.287 . S
C4956 C4955 1.287 . S
C4956 C4957 1.524 . S
C4956 H4975 0.913 . S
C4957 H4933 0.950 . S
C4957 C4956 1.524 . S
C4957 C4958 1.415 . S
C4958 H4934 0.950 . S
C4958 C4953 1.363 . S
C4958 C4957 1.415 . S
C4959 H4935 0.951 . S
C4959 C4960 1.366 . S
C4959 C4961 1.388 . S
C4960 C4959 1.366 . S
C4960 C4964 1.385 . S
C4961 H4936 0.951 . S
C4961 C4959 1.388 . S
C4961 C4962 1.366 . S
C4962 C4961 1.366 . S
C4962 C4963 1.414 . S
C4962 C4965 1.499 . S
C4963 H4937 0.950 . S
C4963 C4962 1.414 . S
C4963 C4964 1.374 . S
C4964 H4938 0.950 . S
C4964 C4960 1.385 . S
C4964 C4963 1.374 . S
C4965 C4962 1.499 . S
C4965 C4966 1.373 . S
C4965 C4967 1.389 . S
C4966 H4939 0.950 . S
C4966 C4952 1.377 . S
C4966 C4965 1.373 . S
C4967 C4951 1.377 . S
C4967 C4965 1.389 . S
C4967 C4968 1.524 . S
C4968 C4967 1.524 . S
C4968 C4969 1.397 . S
C4968 C4973 1.363 . S
C4969 H4940 0.950 . S
C4969 C4968 1.397 . S
C4969 C4970 1.334 . S
C4970 H4941 0.950 . S
C4970 C4969 1.334 . S
C4970 C4971 1.287 . S
C4971 C4970 1.287 . S
C4971 C4972 1.524 . S
C4971 H4974 0.999 . S
C4972 H4942 0.950 . S
C4972 C4971 1.524 . S
C4972 C4973 1.415 . S
C4973 H4943 0.950 . S
C4973 C4968 1.363 . S
C4973 C4972 1.415 . S
H4974 C4971 0.999 . S
H4975 C4956 0.913 . S
H4976 C4994 0.951 . S
H4977 C4996 0.951 . S
H4978 C4998 0.950 . S
H4979 C4999 0.950 . S
H4980 C5001 0.950 . S
H4981 C5004 0.950 . S
H4982 C5005 0.950 . S
H4983 C5007 0.950 . S
H4984 C5008 0.950 . S
H4985 C5009 0.951 . S
H4986 C5011 0.951 . S
H4987 C5013 0.950 . S
H4988 C5014 0.950 . S
H4989 C5016 0.950 . S
H4990 C5019 0.950 . S
H4991 C5020 0.950 . S
H4992 C5022 0.950 . S
H4993 C5023 0.950 . S
C4994 H4976 0.951 . S
C4994 C4995 1.366 . S
C4994 C4996 1.388 . S
C4995 C4994 1.366 . S
C4995 C4999 1.385 . S
C4996 H4977 0.951 . S
C4996 C4994 1.388 . S
C4996 C4997 1.366 . S
C4997 C4996 1.366 . S
C4997 C4998 1.414 . S
C4997 C5000 1.499 . S
C4998 H4978 0.950 . S
C4998 C4997 1.414 . S
C4998 C4999 1.374 . S
C4999 H4979 0.950 . S
C4999 C4995 1.385 . S
C4999 C4998 1.374 . S
C5000 C4997 1.499 . S
C5000 C5001 1.373 . S
C5000 C5002 1.389 . S
C5001 H4980 0.950 . S
C5001 C5000 1.373 . S
C5001 C5017 1.377 . S
C5002 C5000 1.389 . S
C5002 C5003 1.524 . S
C5002 C5016 1.377 . S
C5003 C5002 1.524 . S
C5003 C5004 1.397 . S
C5003 C5008 1.363 . S
C5004 H4981 0.950 . S
C5004 C5003 1.397 . S
C5004 C5005 1.334 . S
C5005 H4982 0.950 . S
C5005 C5004 1.334 . S
C5005 C5006 1.287 . S
C5006 C5005 1.287 . S
C5006 C5007 1.524 . S
C5006 H5025 0.913 . S
C5007 H4983 0.950 . S
C5007 C5006 1.524 . S
C5007 C5008 1.415 . S
C5008 H4984 0.950 . S
C5008 C5003 1.363 . S
C5008 C5007 1.415 . S
C5009 H4985 0.951 . S
C5009 C5010 1.366 . S
C5009 C5011 1.388 . S
C5010 C5009 1.366 . S
C5010 C5014 1.385 . S
C5011 H4986 0.951 . S
C5011 C5009 1.388 . S
C5011 C5012 1.366 . S
C5012 C5011 1.366 . S
C5012 C5013 1.414 . S
C5012 C5015 1.499 . S
C5013 H4987 0.950 . S
C5013 C5012 1.414 . S
C5013 C5014 1.374 . S
C5014 H4988 0.950 . S
C5014 C5010 1.385 . S
C5014 C5013 1.374 . S
C5015 C5012 1.499 . S
C5015 C5016 1.373 . S
C5015 C5017 1.389 . S
C5016 H4989 0.950 . S
C5016 C5002 1.377 . S
C5016 C5015 1.373 . S
C5017 C5001 1.377 . S
C5017 C5015 1.389 . S
C5017 C5018 1.524 . S
C5018 C5017 1.524 . S
C5018 C5019 1.397 . S
C5018 C5023 1.363 . S
C5019 H4990 0.950 . S
C5019 C5018 1.397 . S
C5019 C5020 1.334 . S
C5020 H4991 0.950 . S
C5020 C5019 1.334 . S
C5020 C5021 1.287 . S
C5021 C5020 1.287 . S
C5021 C5022 1.524 . S
C5021 H5024 0.999 . S
C5022 H4992 0.950 . S
C5022 C5021 1.524 . S
C5022 C5023 1.415 . S
C5023 H4993 0.950 . S
C5023 C5018 1.363 . S
C5023 C5022 1.415 . S
H5024 C5021 0.999 . S
H5025 C5006 0.913 . S
H5026 C5044 0.951 . S
H5027 C5046 0.951 . S
H5028 C5048 0.950 . S
H5029 C5049 0.950 . S
H5030 C5051 0.950 . S
H5031 C5054 0.950 . S
H5032 C5055 0.950 . S
H5033 C5057 0.950 . S
H5034 C5058 0.950 . S
H5035 C5059 0.951 . S
H5036 C5061 0.951 . S
H5037 C5063 0.950 . S
H5038 C5064 0.950 . S
H5039 C5066 0.950 . S
H5040 C5069 0.950 . S
H5041 C5070 0.950 . S
H5042 C5072 0.950 . S
H5043 C5073 0.950 . S
C5044 H5026 0.951 . S
C5044 C5045 1.366 . S
C5044 C5046 1.388 . S
C5045 C5044 1.366 . S
C5045 C5049 1.385 . S
C5046 H5027 0.951 . S
C5046 C5044 1.388 . S
C5046 C5047 1.366 . S
C5047 C5046 1.366 . S
C5047 C5048 1.414 . S
C5047 C5050 1.499 . S
C5048 H5028 0.950 . S
C5048 C5047 1.414 . S
C5048 C5049 1.374 . S
C5049 H5029 0.950 . S
C5049 C5045 1.385 . S
C5049 C5048 1.374 . S
C5050 C5047 1.499 . S
C5050 C5051 1.373 . S
C5050 C5052 1.389 . S
C5051 H5030 0.950 . S
C5051 C5050 1.373 . S
C5051 C5067 1.377 . S
C5052 C5050 1.389 . S
C5052 C5053 1.524 . S
C5052 C5066 1.377 . S
C5053 C5052 1.524 . S
C5053 C5054 1.397 . S
C5053 C5058 1.363 . S
C5054 H5031 0.950 . S
C5054 C5053 1.397 . S
C5054 C5055 1.334 . S
C5055 H5032 0.950 . S
C5055 C5054 1.334 . S
C5055 C5056 1.287 . S
C5056 C5055 1.287 . S
C5056 C5057 1.524 . S
C5056 H5075 0.913 . S
C5057 H5033 0.950 . S
C5057 C5056 1.524 . S
C5057 C5058 1.415 . S
C5058 H5034 0.950 . S
C5058 C5053 1.363 . S
C5058 C5057 1.415 . S
C5059 H5035 0.951 . S
C5059 C5060 1.366 . S
C5059 C5061 1.388 . S
C5060 C5059 1.366 . S
C5060 C5064 1.385 . S
C5061 H5036 0.951 . S
C5061 C5059 1.388 . S
C5061 C5062 1.366 . S
C5062 C5061 1.366 . S
C5062 C5063 1.414 . S
C5062 C5065 1.499 . S
C5063 H5037 0.950 . S
C5063 C5062 1.414 . S
C5063 C5064 1.374 . S
C5064 H5038 0.950 . S
C5064 C5060 1.385 . S
C5064 C5063 1.374 . S
C5065 C5062 1.499 . S
C5065 C5066 1.373 . S
C5065 C5067 1.389 . S
C5066 H5039 0.950 . S
C5066 C5052 1.377 . S
C5066 C5065 1.373 . S
C5067 C5051 1.377 . S
C5067 C5065 1.389 . S
C5067 C5068 1.524 . S
C5068 C5067 1.524 . S
C5068 C5069 1.397 . S
C5068 C5073 1.363 . S
C5069 H5040 0.950 . S
C5069 C5068 1.397 . S
C5069 C5070 1.334 . S
C5070 H5041 0.950 . S
C5070 C5069 1.334 . S
C5070 C5071 1.287 . S
C5071 C5070 1.287 . S
C5071 C5072 1.524 . S
C5071 H5074 0.999 . S
C5072 H5042 0.950 . S
C5072 C5071 1.524 . S
C5072 C5073 1.415 . S
C5073 H5043 0.950 . S
C5073 C5068 1.363 . S
C5073 C5072 1.415 . S
H5074 C5071 0.999 . S
H5075 C5056 0.913 . S
H5076 C5094 0.951 . S
H5077 C5096 0.951 . S
H5078 C5098 0.950 . S
H5079 C5099 0.950 . S
H5080 C5101 0.950 . S
H5081 C5104 0.950 . S
H5082 C5105 0.950 . S
H5083 C5107 0.950 . S
H5084 C5108 0.950 . S
H5085 C5109 0.914 1_554 S
H5086 C5111 0.951 . S
H5087 C5113 0.950 . S
H5088 C5114 0.950 . S
H5089 C5116 0.950 . S
H5090 C5119 0.950 . S
H5091 C5120 0.950 . S
H5092 C5122 0.950 . S
H5093 C5123 0.950 . S
C5094 H5076 0.951 . S
C5094 C5095 1.366 . S
C5094 C5096 1.388 . S
C5095 C5094 1.366 . S
C5095 C5099 1.385 . S
C5096 H5077 0.951 . S
C5096 C5094 1.388 . S
C5096 C5097 1.366 . S
C5097 C5096 1.366 . S
C5097 C5098 1.414 . S
C5097 C5100 1.499 . S
C5098 H5078 0.950 . S
C5098 C5097 1.414 . S
C5098 C5099 1.374 . S
C5099 H5079 0.950 . S
C5099 C5095 1.385 . S
C5099 C5098 1.374 . S
C5100 C5097 1.499 . S
C5100 C5101 1.373 . S
C5100 C5102 1.389 . S
C5101 H5080 0.950 . S
C5101 C5100 1.373 . S
C5101 C5117 1.377 . S
C5102 C5100 1.389 . S
C5102 C5103 1.524 . S
C5102 C5116 1.377 . S
C5103 C5102 1.524 . S
C5103 C5104 1.397 . S
C5103 C5108 1.363 . S
C5104 H5081 0.950 . S
C5104 C5103 1.397 . S
C5104 C5105 1.334 . S
C5105 H5082 0.950 . S
C5105 C5104 1.334 . S
C5105 C5106 1.287 . S
C5106 C5105 1.287 . S
C5106 C5107 1.524 . S
C5106 H5125 0.913 . S
C5107 H5083 0.950 . S
C5107 C5106 1.524 . S
C5107 C5108 1.415 . S
C5108 H5084 0.950 . S
C5108 C5103 1.363 . S
C5108 C5107 1.415 . S
C5109 H5085 0.914 1_556 S
C5109 C5110 1.366 1_655 S
C5109 C5111 1.388 . S
C5110 C5109 1.366 1_455 S
C5110 C5114 1.385 . S
C5111 H5086 0.951 . S
C5111 C5109 1.388 . S
C5111 C5112 1.366 . S
C5112 C5111 1.366 . S
C5112 C5113 1.414 1_655 S
C5112 C5115 1.499 . S
C5113 H5087 0.950 . S
C5113 C5112 1.414 1_455 S
C5113 C5114 1.374 . S
C5114 H5088 0.950 . S
C5114 C5110 1.385 . S
C5114 C5113 1.374 . S
C5115 C5112 1.499 . S
C5115 C5116 1.373 . S
C5115 C5117 1.389 . S
C5116 H5089 0.950 . S
C5116 C5102 1.377 . S
C5116 C5115 1.373 . S
C5117 C5101 1.377 . S
C5117 C5115 1.389 . S
C5117 C5118 1.524 . S
C5118 C5117 1.524 . S
C5118 C5119 1.397 1_655 S
C5118 C5123 1.363 . S
C5119 H5090 0.950 . S
C5119 C5118 1.397 1_455 S
C5119 C5120 1.334 . S
C5120 H5091 0.950 . S
C5120 C5119 1.334 . S
C5120 C5121 1.287 . S
C5121 C5120 1.287 . S
C5121 C5122 1.524 1_455 S
C5121 H5124 0.999 . S
C5122 H5092 0.950 . S
C5122 C5121 1.524 1_655 S
C5122 C5123 1.415 . S
C5123 H5093 0.950 . S
C5123 C5118 1.363 . S
C5123 C5122 1.415 . S
H5124 C5121 0.999 . S
H5125 C5106 0.913 . S
H5126 C5144 0.951 . S
H5127 C5146 0.951 . S
H5128 C5148 0.950 . S
H5129 C5149 0.950 . S
H5130 C5151 0.950 . S
H5131 C5154 0.950 . S
H5132 C5155 0.950 . S
H5133 C5157 0.950 . S
H5134 C5158 0.950 . S
H5135 C5159 0.951 . S
H5136 C5161 0.951 . S
H5137 C5163 0.950 . S
H5138 C5164 0.950 . S
H5139 C5166 0.950 . S
H5140 C5169 0.950 . S
H5141 C5170 0.950 . S
H5142 C5172 0.950 . S
H5143 C5173 0.950 . S
C5144 H5126 0.951 . S
C5144 C5145 1.366 . S
C5144 C5146 1.388 . S
C5145 C5144 1.366 . S
C5145 C5149 1.385 . S
C5146 H5127 0.951 . S
C5146 C5144 1.388 . S
C5146 C5147 1.366 . S
C5147 C5146 1.366 . S
C5147 C5148 1.414 . S
C5147 C5150 1.499 . S
C5148 H5128 0.950 . S
C5148 C5147 1.414 . S
C5148 C5149 1.374 . S
C5149 H5129 0.950 . S
C5149 C5145 1.385 . S
C5149 C5148 1.374 . S
C5150 C5147 1.499 . S
C5150 C5151 1.373 . S
C5150 C5152 1.389 . S
C5151 H5130 0.950 . S
C5151 C5150 1.373 . S
C5151 C5167 1.377 . S
C5152 C5150 1.389 . S
C5152 C5153 1.524 . S
C5152 C5166 1.377 . S
C5153 C5152 1.524 . S
C5153 C5154 1.397 . S
C5153 C5158 1.363 . S
C5154 H5131 0.950 . S
C5154 C5153 1.397 . S
C5154 C5155 1.334 . S
C5155 H5132 0.950 . S
C5155 C5154 1.334 . S
C5155 C5156 1.287 . S
C5156 C5155 1.287 . S
C5156 C5157 1.524 . S
C5156 H5175 0.913 . S
C5157 H5133 0.950 . S
C5157 C5156 1.524 . S
C5157 C5158 1.415 . S
C5158 H5134 0.950 . S
C5158 C5153 1.363 . S
C5158 C5157 1.415 . S
C5159 H5135 0.951 . S
C5159 C5160 1.366 . S
C5159 C5161 1.388 . S
C5160 C5159 1.366 . S
C5160 C5164 1.385 . S
C5161 H5136 0.951 . S
C5161 C5159 1.388 . S
C5161 C5162 1.366 . S
C5162 C5161 1.366 . S
C5162 C5163 1.414 . S
C5162 C5165 1.499 . S
C5163 H5137 0.950 . S
C5163 C5162 1.414 . S
C5163 C5164 1.374 . S
C5164 H5138 0.950 . S
C5164 C5160 1.385 . S
C5164 C5163 1.374 . S
C5165 C5162 1.499 . S
C5165 C5166 1.373 . S
C5165 C5167 1.389 . S
C5166 H5139 0.950 . S
C5166 C5152 1.377 . S
C5166 C5165 1.373 . S
C5167 C5151 1.377 . S
C5167 C5165 1.389 . S
C5167 C5168 1.524 . S
C5168 C5167 1.524 . S
C5168 C5169 1.397 . S
C5168 C5173 1.363 . S
C5169 H5140 0.950 . S
C5169 C5168 1.397 . S
C5169 C5170 1.334 . S
C5170 H5141 0.950 . S
C5170 C5169 1.334 . S
C5170 C5171 1.287 . S
C5171 C5170 1.287 . S
C5171 C5172 1.524 . S
C5171 H5174 0.999 . S
C5172 H5142 0.950 . S
C5172 C5171 1.524 . S
C5172 C5173 1.415 . S
C5173 H5143 0.950 . S
C5173 C5168 1.363 . S
C5173 C5172 1.415 . S
H5174 C5171 0.999 . S
H5175 C5156 0.913 . S
H5176 C5194 0.951 . S
H5177 C5196 0.951 . S
H5178 C5198 0.950 . S
H5179 C5199 0.950 . S
H5180 C5201 0.950 . S
H5181 C5204 0.950 . S
H5182 C5205 0.950 . S
H5183 C5207 0.950 . S
H5184 C5208 0.950 . S
H5185 C5209 0.951 . S
H5186 C5211 0.951 . S
H5187 C5213 0.950 . S
H5188 C5214 0.950 . S
H5189 C5216 0.950 . S
H5190 C5219 0.950 . S
H5191 C5220 0.950 . S
H5192 C5222 0.950 . S
H5193 C5223 0.950 . S
C5194 H5176 0.951 . S
C5194 C5195 1.366 . S
C5194 C5196 1.388 . S
C5195 C5194 1.366 . S
C5195 C5199 1.385 . S
C5196 H5177 0.951 . S
C5196 C5194 1.388 . S
C5196 C5197 1.366 . S
C5197 C5196 1.366 . S
C5197 C5198 1.414 . S
C5197 C5200 1.499 . S
C5198 H5178 0.950 . S
C5198 C5197 1.414 . S
C5198 C5199 1.374 . S
C5199 H5179 0.950 . S
C5199 C5195 1.385 . S
C5199 C5198 1.374 . S
C5200 C5197 1.499 . S
C5200 C5201 1.373 . S
C5200 C5202 1.389 . S
C5201 H5180 0.950 . S
C5201 C5200 1.373 . S
C5201 C5217 1.377 . S
C5202 C5200 1.389 . S
C5202 C5203 1.524 . S
C5202 C5216 1.377 . S
C5203 C5202 1.524 . S
C5203 C5204 1.397 . S
C5203 C5208 1.363 . S
C5204 H5181 0.950 . S
C5204 C5203 1.397 . S
C5204 C5205 1.334 . S
C5205 H5182 0.950 . S
C5205 C5204 1.334 . S
C5205 C5206 1.287 . S
C5206 C5205 1.287 . S
C5206 C5207 1.524 . S
C5206 H5225 0.913 . S
C5207 H5183 0.950 . S
C5207 C5206 1.524 . S
C5207 C5208 1.415 . S
C5208 H5184 0.950 . S
C5208 C5203 1.363 . S
C5208 C5207 1.415 . S
C5209 H5185 0.951 . S
C5209 C5210 1.366 . S
C5209 C5211 1.388 . S
C5210 C5209 1.366 . S
C5210 C5214 1.385 . S
C5211 H5186 0.951 . S
C5211 C5209 1.388 . S
C5211 C5212 1.366 . S
C5212 C5211 1.366 . S
C5212 C5213 1.414 . S
C5212 C5215 1.499 . S
C5213 H5187 0.950 . S
C5213 C5212 1.414 . S
C5213 C5214 1.374 . S
C5214 H5188 0.950 . S
C5214 C5210 1.385 . S
C5214 C5213 1.374 . S
C5215 C5212 1.499 . S
C5215 C5216 1.373 . S
C5215 C5217 1.389 . S
C5216 H5189 0.950 . S
C5216 C5202 1.377 . S
C5216 C5215 1.373 . S
C5217 C5201 1.377 . S
C5217 C5215 1.389 . S
C5217 C5218 1.524 . S
C5218 C5217 1.524 . S
C5218 C5219 1.397 . S
C5218 C5223 1.363 . S
C5219 H5190 0.950 . S
C5219 C5218 1.397 . S
C5219 C5220 1.334 . S
C5220 H5191 0.950 . S
C5220 C5219 1.334 . S
C5220 C5221 1.287 . S
C5221 C5220 1.287 . S
C5221 C5222 1.524 . S
C5221 H5224 0.999 . S
C5222 H5192 0.950 . S
C5222 C5221 1.524 . S
C5222 C5223 1.415 . S
C5223 H5193 0.950 . S
C5223 C5218 1.363 . S
C5223 C5222 1.415 . S
H5224 C5221 0.999 . S
H5225 C5206 0.913 . S
H5226 C5244 0.951 . S
H5227 C5246 0.951 . S
H5228 C5248 0.950 . S
H5229 C5249 0.950 . S
H5230 C5251 0.950 . S
H5231 C5254 0.950 . S
H5232 C5255 0.950 . S
H5233 C5257 0.950 . S
H5234 C5258 0.950 . S
H5235 C5259 0.951 . S
H5236 C5261 0.951 . S
H5237 C5263 0.950 . S
H5238 C5264 0.950 . S
H5239 C5266 0.950 . S
H5240 C5269 0.950 . S
H5241 C5270 0.950 . S
H5242 C5272 0.950 . S
H5243 C5273 0.950 . S
C5244 H5226 0.951 . S
C5244 C5245 1.366 . S
C5244 C5246 1.388 . S
C5245 C5244 1.366 . S
C5245 C5249 1.385 . S
C5246 H5227 0.951 . S
C5246 C5244 1.388 . S
C5246 C5247 1.366 . S
C5247 C5246 1.366 . S
C5247 C5248 1.414 . S
C5247 C5250 1.499 . S
C5248 H5228 0.950 . S
C5248 C5247 1.414 . S
C5248 C5249 1.374 . S
C5249 H5229 0.950 . S
C5249 C5245 1.385 . S
C5249 C5248 1.374 . S
C5250 C5247 1.499 . S
C5250 C5251 1.373 . S
C5250 C5252 1.389 . S
C5251 H5230 0.950 . S
C5251 C5250 1.373 . S
C5251 C5267 1.377 . S
C5252 C5250 1.389 . S
C5252 C5253 1.524 . S
C5252 C5266 1.377 . S
C5253 C5252 1.524 . S
C5253 C5254 1.397 . S
C5253 C5258 1.363 . S
C5254 H5231 0.950 . S
C5254 C5253 1.397 . S
C5254 C5255 1.334 . S
C5255 H5232 0.950 . S
C5255 C5254 1.334 . S
C5255 C5256 1.287 . S
C5256 C5255 1.287 . S
C5256 C5257 1.524 . S
C5256 H5275 0.913 . S
C5257 H5233 0.950 . S
C5257 C5256 1.524 . S
C5257 C5258 1.415 . S
C5258 H5234 0.950 . S
C5258 C5253 1.363 . S
C5258 C5257 1.415 . S
C5259 H5235 0.951 . S
C5259 C5260 1.366 . S
C5259 C5261 1.388 . S
C5260 C5259 1.366 . S
C5260 C5264 1.385 . S
C5261 H5236 0.951 . S
C5261 C5259 1.388 . S
C5261 C5262 1.366 . S
C5262 C5261 1.366 . S
C5262 C5263 1.414 . S
C5262 C5265 1.499 . S
C5263 H5237 0.950 . S
C5263 C5262 1.414 . S
C5263 C5264 1.374 . S
C5264 H5238 0.950 . S
C5264 C5260 1.385 . S
C5264 C5263 1.374 . S
C5265 C5262 1.499 . S
C5265 C5266 1.373 . S
C5265 C5267 1.389 . S
C5266 H5239 0.950 . S
C5266 C5252 1.377 . S
C5266 C5265 1.373 . S
C5267 C5251 1.377 . S
C5267 C5265 1.389 . S
C5267 C5268 1.524 . S
C5268 C5267 1.524 . S
C5268 C5269 1.397 . S
C5268 C5273 1.363 . S
C5269 H5240 0.950 . S
C5269 C5268 1.397 . S
C5269 C5270 1.334 . S
C5270 H5241 0.950 . S
C5270 C5269 1.334 . S
C5270 C5271 1.287 . S
C5271 C5270 1.287 . S
C5271 C5272 1.524 . S
C5271 H5274 0.999 . S
C5272 H5242 0.950 . S
C5272 C5271 1.524 . S
C5272 C5273 1.415 . S
C5273 H5243 0.950 . S
C5273 C5268 1.363 . S
C5273 C5272 1.415 . S
H5274 C5271 0.999 . S
H5275 C5256 0.913 . S
H5276 C5294 0.951 . S
H5277 C5296 0.951 . S
H5278 C5298 0.950 . S
H5279 C5299 0.950 . S
H5280 C5301 0.950 . S
H5281 C5304 0.950 . S
H5282 C5305 0.950 . S
H5283 C5307 0.950 . S
H5284 C5308 0.950 . S
H5285 C5309 0.951 . S
H5286 C5311 0.951 . S
H5287 C5313 0.944 1_455 S
H5288 C5314 0.950 . S
H5289 C5316 0.950 . S
H5290 C5319 0.950 . S
H5291 C5320 0.950 . S
H5292 C5322 0.950 . S
H5293 C5323 0.950 . S
C5294 H5276 0.951 . S
C5294 C5295 1.366 . S
C5294 C5296 1.388 . S
C5295 C5294 1.366 . S
C5295 C5299 1.385 . S
C5296 H5277 0.951 . S
C5296 C5294 1.388 . S
C5296 C5297 1.366 . S
C5297 C5296 1.366 . S
C5297 C5298 1.414 . S
C5297 C5300 1.499 . S
C5298 H5278 0.950 . S
C5298 C5297 1.414 . S
C5298 C5299 1.374 . S
C5299 H5279 0.950 . S
C5299 C5295 1.385 . S
C5299 C5298 1.374 . S
C5300 C5297 1.499 . S
C5300 C5301 1.373 . S
C5300 C5302 1.389 . S
C5301 H5280 0.950 . S
C5301 C5300 1.373 . S
C5301 C5317 1.377 . S
C5302 C5300 1.389 . S
C5302 C5303 1.524 . S
C5302 C5316 1.377 . S
C5303 C5302 1.524 . S
C5303 C5304 1.397 . S
C5303 C5308 1.363 . S
C5304 H5281 0.950 . S
C5304 C5303 1.397 . S
C5304 C5305 1.334 . S
C5305 H5282 0.950 . S
C5305 C5304 1.334 . S
C5305 C5306 1.287 . S
C5306 C5305 1.287 . S
C5306 C5307 1.524 . S
C5306 H5325 0.913 . S
C5307 H5283 0.950 . S
C5307 C5306 1.524 . S
C5307 C5308 1.415 . S
C5308 H5284 0.950 . S
C5308 C5303 1.363 . S
C5308 C5307 1.415 . S
C5309 H5285 0.951 . S
C5309 C5310 1.366 . S
C5309 C5311 1.388 . S
C5310 C5309 1.366 . S
C5310 C5314 1.385 1_655 S
C5311 H5286 0.951 . S
C5311 C5309 1.388 . S
C5311 C5312 1.366 . S
C5312 C5311 1.366 . S
C5312 C5313 1.414 . S
C5312 C5315 1.499 . S
C5313 H5287 0.944 1_655 S
C5313 C5312 1.414 . S
C5313 C5314 1.374 1_655 S
C5314 H5288 0.950 . S
C5314 C5310 1.385 1_455 S
C5314 C5313 1.374 1_455 S
C5315 C5312 1.499 . S
C5315 C5316 1.373 . S
C5315 C5317 1.389 . S
C5316 H5289 0.950 . S
C5316 C5302 1.377 . S
C5316 C5315 1.373 . S
C5317 C5301 1.377 . S
C5317 C5315 1.389 . S
C5317 C5318 1.524 . S
C5318 C5317 1.524 . S
C5318 C5319 1.397 . S
C5318 C5323 1.363 . S
C5319 H5290 0.950 . S
C5319 C5318 1.397 . S
C5319 C5320 1.334 . S
C5320 H5291 0.950 . S
C5320 C5319 1.334 . S
C5320 C5321 1.287 . S
C5321 C5320 1.287 . S
C5321 C5322 1.524 . S
C5321 H5324 0.999 . S
C5322 H5292 0.950 . S
C5322 C5321 1.524 . S
C5322 C5323 1.415 . S
C5323 H5293 0.950 . S
C5323 C5318 1.363 . S
C5323 C5322 1.415 . S
H5324 C5321 0.999 . S
H5325 C5306 0.913 . S
H5326 C5344 0.951 . S
H5327 C5346 0.951 . S
H5328 C5348 0.950 . S
H5329 C5349 0.950 . S
H5330 C5351 0.950 . S
H5331 C5354 0.950 . S
H5332 C5355 0.950 . S
H5333 C5357 0.950 . S
H5334 C5358 0.950 . S
H5335 C5359 0.951 . S
H5336 C5361 0.951 . S
H5337 C5363 0.950 . S
H5338 C5364 0.950 . S
H5339 C5366 0.950 . S
H5340 C5369 0.950 . S
H5341 C5370 0.950 . S
H5342 C5372 0.950 . S
H5343 C5373 0.950 . S
C5344 H5326 0.951 . S
C5344 C5345 1.366 . S
C5344 C5346 1.388 . S
C5345 C5344 1.366 . S
C5345 C5349 1.385 . S
C5346 H5327 0.951 . S
C5346 C5344 1.388 . S
C5346 C5347 1.366 . S
C5347 C5346 1.366 . S
C5347 C5348 1.414 . S
C5347 C5350 1.499 . S
C5348 H5328 0.950 . S
C5348 C5347 1.414 . S
C5348 C5349 1.374 . S
C5349 H5329 0.950 . S
C5349 C5345 1.385 . S
C5349 C5348 1.374 . S
C5350 C5347 1.499 . S
C5350 C5351 1.373 . S
C5350 C5352 1.389 . S
C5351 H5330 0.950 . S
C5351 C5350 1.373 . S
C5351 C5367 1.377 . S
C5352 C5350 1.389 . S
C5352 C5353 1.524 . S
C5352 C5366 1.377 . S
C5353 C5352 1.524 . S
C5353 C5354 1.397 . S
C5353 C5358 1.363 . S
C5354 H5331 0.950 . S
C5354 C5353 1.397 . S
C5354 C5355 1.334 . S
C5355 H5332 0.950 . S
C5355 C5354 1.334 . S
C5355 C5356 1.287 . S
C5356 C5355 1.287 . S
C5356 C5357 1.524 . S
C5356 H5375 0.913 . S
C5357 H5333 0.950 . S
C5357 C5356 1.524 . S
C5357 C5358 1.415 . S
C5358 H5334 0.950 . S
C5358 C5353 1.363 . S
C5358 C5357 1.415 . S
C5359 H5335 0.951 . S
C5359 C5360 1.366 . S
C5359 C5361 1.388 . S
C5360 C5359 1.366 . S
C5360 C5364 1.385 . S
C5361 H5336 0.951 . S
C5361 C5359 1.388 . S
C5361 C5362 1.366 . S
C5362 C5361 1.366 . S
C5362 C5363 1.414 . S
C5362 C5365 1.499 . S
C5363 H5337 0.950 . S
C5363 C5362 1.414 . S
C5363 C5364 1.374 . S
C5364 H5338 0.950 . S
C5364 C5360 1.385 . S
C5364 C5363 1.374 . S
C5365 C5362 1.499 . S
C5365 C5366 1.373 . S
C5365 C5367 1.389 . S
C5366 H5339 0.950 . S
C5366 C5352 1.377 . S
C5366 C5365 1.373 . S
C5367 C5351 1.377 . S
C5367 C5365 1.389 . S
C5367 C5368 1.524 . S
C5368 C5367 1.524 . S
C5368 C5369 1.397 . S
C5368 C5373 1.363 . S
C5369 H5340 0.950 . S
C5369 C5368 1.397 . S
C5369 C5370 1.334 . S
C5370 H5341 0.950 . S
C5370 C5369 1.334 . S
C5370 C5371 1.287 . S
C5371 C5370 1.287 . S
C5371 C5372 1.524 . S
C5371 H5374 0.999 . S
C5372 H5342 0.950 . S
C5372 C5371 1.524 . S
C5372 C5373 1.415 . S
C5373 H5343 0.950 . S
C5373 C5368 1.363 . S
C5373 C5372 1.415 . S
H5374 C5371 0.999 . S
H5375 C5356 0.913 . S
H5376 C5394 0.951 . S
H5377 C5396 0.951 . S
H5378 C5398 0.950 . S
H5379 C5399 0.950 . S
H5380 C5401 0.950 . S
H5381 C5404 0.950 . S
H5382 C5405 0.950 . S
H5383 C5407 0.950 . S
H5384 C5408 0.950 . S
H5385 C5409 0.951 . S
H5386 C5411 0.951 . S
H5387 C5413 0.950 . S
H5388 C5414 0.950 . S
H5389 C5416 0.950 . S
H5390 C5419 0.950 . S
H5391 C5420 0.950 . S
H5392 C5422 0.950 . S
H5393 C5423 0.950 . S
C5394 H5376 0.951 . S
C5394 C5395 1.366 . S
C5394 C5396 1.388 . S
C5395 C5394 1.366 . S
C5395 C5399 1.385 . S
C5396 H5377 0.951 . S
C5396 C5394 1.388 . S
C5396 C5397 1.366 . S
C5397 C5396 1.366 . S
C5397 C5398 1.414 . S
C5397 C5400 1.499 . S
C5398 H5378 0.950 . S
C5398 C5397 1.414 . S
C5398 C5399 1.374 . S
C5399 H5379 0.950 . S
C5399 C5395 1.385 . S
C5399 C5398 1.374 . S
C5400 C5397 1.499 . S
C5400 C5401 1.373 . S
C5400 C5402 1.389 . S
C5401 H5380 0.950 . S
C5401 C5400 1.373 . S
C5401 C5417 1.377 . S
C5402 C5400 1.389 . S
C5402 C5403 1.524 . S
C5402 C5416 1.377 . S
C5403 C5402 1.524 . S
C5403 C5404 1.397 . S
C5403 C5408 1.363 . S
C5404 H5381 0.950 . S
C5404 C5403 1.397 . S
C5404 C5405 1.334 . S
C5405 H5382 0.950 . S
C5405 C5404 1.334 . S
C5405 C5406 1.287 . S
C5406 C5405 1.287 . S
C5406 C5407 1.524 . S
C5406 H5425 0.913 . S
C5407 H5383 0.950 . S
C5407 C5406 1.524 . S
C5407 C5408 1.415 . S
C5408 H5384 0.950 . S
C5408 C5403 1.363 . S
C5408 C5407 1.415 . S
C5409 H5385 0.951 . S
C5409 C5410 1.366 . S
C5409 C5411 1.388 . S
C5410 C5409 1.366 . S
C5410 C5414 1.385 . S
C5411 H5386 0.951 . S
C5411 C5409 1.388 . S
C5411 C5412 1.366 . S
C5412 C5411 1.366 . S
C5412 C5413 1.414 . S
C5412 C5415 1.499 . S
C5413 H5387 0.950 . S
C5413 C5412 1.414 . S
C5413 C5414 1.374 . S
C5414 H5388 0.950 . S
C5414 C5410 1.385 . S
C5414 C5413 1.374 . S
C5415 C5412 1.499 . S
C5415 C5416 1.373 . S
C5415 C5417 1.389 . S
C5416 H5389 0.950 . S
C5416 C5402 1.377 . S
C5416 C5415 1.373 . S
C5417 C5401 1.377 . S
C5417 C5415 1.389 . S
C5417 C5418 1.524 . S
C5418 C5417 1.524 . S
C5418 C5419 1.397 . S
C5418 C5423 1.363 . S
C5419 H5390 0.950 . S
C5419 C5418 1.397 . S
C5419 C5420 1.334 . S
C5420 H5391 0.950 . S
C5420 C5419 1.334 . S
C5420 C5421 1.287 . S
C5421 C5420 1.287 . S
C5421 C5422 1.524 . S
C5421 H5424 0.999 . S
C5422 H5392 0.950 . S
C5422 C5421 1.524 . S
C5422 C5423 1.415 . S
C5423 H5393 0.950 . S
C5423 C5418 1.363 . S
C5423 C5422 1.415 . S
H5424 C5421 0.999 . S
H5425 C5406 0.913 . S
H5426 C5444 0.951 . S
H5427 C5446 0.951 . S
H5428 C5448 0.950 . S
H5429 C5449 0.950 . S
H5430 C5451 0.950 . S
H5431 C5454 0.950 . S
H5432 C5455 0.950 . S
H5433 C5457 0.950 . S
H5434 C5458 0.950 . S
H5435 C5459 0.951 1_545 S
H5436 C5461 0.951 . S
H5437 C5463 0.950 . S
H5438 C5464 0.950 . S
H5439 C5466 0.950 . S
H5440 C5469 0.950 . S
H5441 C5470 0.950 . S
H5442 C5472 0.968 . S
H5443 C5473 0.950 . S
C5444 H5426 0.951 . S
C5444 C5445 1.366 . S
C5444 C5446 1.388 . S
C5445 C5444 1.366 . S
C5445 C5449 1.385 . S
C5446 H5427 0.951 . S
C5446 C5444 1.388 . S
C5446 C5447 1.366 . S
C5447 C5446 1.366 . S
C5447 C5448 1.414 . S
C5447 C5450 1.499 . S
C5448 H5428 0.950 . S
C5448 C5447 1.414 . S
C5448 C5449 1.374 . S
C5449 H5429 0.950 . S
C5449 C5445 1.385 . S
C5449 C5448 1.374 . S
C5450 C5447 1.499 . S
C5450 C5451 1.373 . S
C5450 C5452 1.389 . S
C5451 H5430 0.950 . S
C5451 C5450 1.373 . S
C5451 C5467 1.377 . S
C5452 C5450 1.389 . S
C5452 C5453 1.524 . S
C5452 C5466 1.377 . S
C5453 C5452 1.524 . S
C5453 C5454 1.397 . S
C5453 C5458 1.363 . S
C5454 H5431 0.950 . S
C5454 C5453 1.397 . S
C5454 C5455 1.334 . S
C5455 H5432 0.950 . S
C5455 C5454 1.334 . S
C5455 C5456 1.287 . S
C5456 C5455 1.287 . S
C5456 C5457 1.524 . S
C5456 H5475 0.913 . S
C5457 H5433 0.950 . S
C5457 C5456 1.524 . S
C5457 C5458 1.415 . S
C5458 H5434 0.950 . S
C5458 C5453 1.363 . S
C5458 C5457 1.415 . S
C5459 H5435 0.951 1_565 S
C5459 C5460 1.366 . S
C5459 C5461 1.388 . S
C5460 C5459 1.366 . S
C5460 C5464 1.385 . S
C5461 H5436 0.951 . S
C5461 C5459 1.388 . S
C5461 C5462 1.366 . S
C5462 C5461 1.366 . S
C5462 C5463 1.414 . S
C5462 C5465 1.499 . S
C5463 H5437 0.950 . S
C5463 C5462 1.414 . S
C5463 C5464 1.374 . S
C5464 H5438 0.950 . S
C5464 C5460 1.385 . S
C5464 C5463 1.374 . S
C5465 C5462 1.499 . S
C5465 C5466 1.373 . S
C5465 C5467 1.389 . S
C5466 H5439 0.950 . S
C5466 C5452 1.377 . S
C5466 C5465 1.373 . S
C5467 C5451 1.377 . S
C5467 C5465 1.389 . S
C5467 C5468 1.524 . S
C5468 C5467 1.524 . S
C5468 C5469 1.397 . S
C5468 C5473 1.363 . S
C5469 H5440 0.950 . S
C5469 C5468 1.397 . S
C5469 C5470 1.334 . S
C5470 H5441 0.950 . S
C5470 C5469 1.334 . S
C5470 C5471 1.287 . S
C5471 C5470 1.287 . S
C5471 C5472 1.522 1_565 S
C5471 H5474 0.999 1_565 S
C5472 H5442 0.968 . S
C5472 C5471 1.522 1_545 S
C5472 C5473 1.396 1_545 S
C5473 H5443 0.950 . S
C5473 C5468 1.363 . S
C5473 C5472 1.396 1_565 S
H5474 C5471 0.999 1_545 S
H5475 C5456 0.913 . S
H5476 C5494 0.951 . S
H5477 C5496 0.951 . S
H5478 C5498 0.950 . S
H5479 C5499 0.950 . S
H5480 C5501 0.950 . S
H5481 C5504 0.950 . S
H5482 C5505 0.950 . S
H5483 C5507 0.950 . S
H5484 C5508 0.950 . S
H5485 C5509 0.951 . S
H5486 C5511 0.951 . S
H5487 C5513 0.950 . S
H5488 C5514 0.950 . S
H5489 C5516 0.950 . S
H5490 C5519 0.950 . S
H5491 C5520 0.950 . S
H5492 C5522 0.950 . S
H5493 C5523 0.950 . S
C5494 H5476 0.951 . S
C5494 C5495 1.366 . S
C5494 C5496 1.388 . S
C5495 C5494 1.366 . S
C5495 C5499 1.385 . S
C5496 H5477 0.951 . S
C5496 C5494 1.388 . S
C5496 C5497 1.366 . S
C5497 C5496 1.366 . S
C5497 C5498 1.414 . S
C5497 C5500 1.499 . S
C5498 H5478 0.950 . S
C5498 C5497 1.414 . S
C5498 C5499 1.374 . S
C5499 H5479 0.950 . S
C5499 C5495 1.385 . S
C5499 C5498 1.374 . S
C5500 C5497 1.499 . S
C5500 C5501 1.373 . S
C5500 C5502 1.389 . S
C5501 H5480 0.950 . S
C5501 C5500 1.373 . S
C5501 C5517 1.377 . S
C5502 C5500 1.389 . S
C5502 C5503 1.524 . S
C5502 C5516 1.377 . S
C5503 C5502 1.524 . S
C5503 C5504 1.397 . S
C5503 C5508 1.363 . S
C5504 H5481 0.950 . S
C5504 C5503 1.397 . S
C5504 C5505 1.334 . S
C5505 H5482 0.950 . S
C5505 C5504 1.334 . S
C5505 C5506 1.287 . S
C5506 C5505 1.287 . S
C5506 C5507 1.524 . S
C5506 H5525 0.913 . S
C5507 H5483 0.950 . S
C5507 C5506 1.524 . S
C5507 C5508 1.415 . S
C5508 H5484 0.950 . S
C5508 C5503 1.363 . S
C5508 C5507 1.415 . S
C5509 H5485 0.951 . S
C5509 C5510 1.366 . S
C5509 C5511 1.388 . S
C5510 C5509 1.366 . S
C5510 C5514 1.385 . S
C5511 H5486 0.951 . S
C5511 C5509 1.388 . S
C5511 C5512 1.366 . S
C5512 C5511 1.366 . S
C5512 C5513 1.414 . S
C5512 C5515 1.499 . S
C5513 H5487 0.950 . S
C5513 C5512 1.414 . S
C5513 C5514 1.374 . S
C5514 H5488 0.950 . S
C5514 C5510 1.385 . S
C5514 C5513 1.374 . S
C5515 C5512 1.499 . S
C5515 C5516 1.373 . S
C5515 C5517 1.389 . S
C5516 H5489 0.950 . S
C5516 C5502 1.377 . S
C5516 C5515 1.373 . S
C5517 C5501 1.377 . S
C5517 C5515 1.389 . S
C5517 C5518 1.524 . S
C5518 C5517 1.524 . S
C5518 C5519 1.397 . S
C5518 C5523 1.363 . S
C5519 H5490 0.950 . S
C5519 C5518 1.397 . S
C5519 C5520 1.334 . S
C5520 H5491 0.950 . S
C5520 C5519 1.334 . S
C5520 C5521 1.287 . S
C5521 C5520 1.287 . S
C5521 C5522 1.524 . S
C5521 H5524 0.999 . S
C5522 H5492 0.950 . S
C5522 C5521 1.524 . S
C5522 C5523 1.415 . S
C5523 H5493 0.950 . S
C5523 C5518 1.363 . S
C5523 C5522 1.415 . S
H5524 C5521 0.999 . S
H5525 C5506 0.913 . S
H5526 C5544 0.951 . S
H5527 C5546 0.951 . S
H5528 C5548 0.950 . S
H5529 C5549 0.950 . S
H5530 C5551 0.950 . S
H5531 C5554 0.950 . S
H5532 C5555 0.950 . S
H5533 C5557 0.950 . S
H5534 C5558 0.950 . S
H5535 C5559 0.951 . S
H5536 C5561 0.951 . S
H5537 C5563 0.950 . S
H5538 C5564 0.950 . S
H5539 C5566 0.950 . S
H5540 C5569 0.950 . S
H5541 C5570 0.950 . S
H5542 C5572 0.950 . S
H5543 C5573 0.950 . S
C5544 H5526 0.951 . S
C5544 C5545 1.366 . S
C5544 C5546 1.388 . S
C5545 C5544 1.366 . S
C5545 C5549 1.385 . S
C5546 H5527 0.951 . S
C5546 C5544 1.388 . S
C5546 C5547 1.366 . S
C5547 C5546 1.366 . S
C5547 C5548 1.414 . S
C5547 C5550 1.499 . S
C5548 H5528 0.950 . S
C5548 C5547 1.414 . S
C5548 C5549 1.374 . S
C5549 H5529 0.950 . S
C5549 C5545 1.385 . S
C5549 C5548 1.374 . S
C5550 C5547 1.499 . S
C5550 C5551 1.373 . S
C5550 C5552 1.389 . S
C5551 H5530 0.950 . S
C5551 C5550 1.373 . S
C5551 C5567 1.377 . S
C5552 C5550 1.389 . S
C5552 C5553 1.524 . S
C5552 C5566 1.377 . S
C5553 C5552 1.524 . S
C5553 C5554 1.397 . S
C5553 C5558 1.363 . S
C5554 H5531 0.950 . S
C5554 C5553 1.397 . S
C5554 C5555 1.334 . S
C5555 H5532 0.950 . S
C5555 C5554 1.334 . S
C5555 C5556 1.287 . S
C5556 C5555 1.287 . S
C5556 C5557 1.524 . S
C5556 H5575 0.913 . S
C5557 H5533 0.950 . S
C5557 C5556 1.524 . S
C5557 C5558 1.415 . S
C5558 H5534 0.950 . S
C5558 C5553 1.363 . S
C5558 C5557 1.415 . S
C5559 H5535 0.951 . S
C5559 C5560 1.366 . S
C5559 C5561 1.388 . S
C5560 C5559 1.366 . S
C5560 C5564 1.385 . S
C5561 H5536 0.951 . S
C5561 C5559 1.388 . S
C5561 C5562 1.366 . S
C5562 C5561 1.366 . S
C5562 C5563 1.414 . S
C5562 C5565 1.499 . S
C5563 H5537 0.950 . S
C5563 C5562 1.414 . S
C5563 C5564 1.374 . S
C5564 H5538 0.950 . S
C5564 C5560 1.385 . S
C5564 C5563 1.374 . S
C5565 C5562 1.499 . S
C5565 C5566 1.373 . S
C5565 C5567 1.389 . S
C5566 H5539 0.950 . S
C5566 C5552 1.377 . S
C5566 C5565 1.373 . S
C5567 C5551 1.377 . S
C5567 C5565 1.389 . S
C5567 C5568 1.524 . S
C5568 C5567 1.524 . S
C5568 C5569 1.397 . S
C5568 C5573 1.363 . S
C5569 H5540 0.950 . S
C5569 C5568 1.397 . S
C5569 C5570 1.334 . S
C5570 H5541 0.950 . S
C5570 C5569 1.334 . S
C5570 C5571 1.287 . S
C5571 C5570 1.287 . S
C5571 C5572 1.524 . S
C5571 H5574 0.999 . S
C5572 H5542 0.950 . S
C5572 C5571 1.524 . S
C5572 C5573 1.415 . S
C5573 H5543 0.950 . S
C5573 C5568 1.363 . S
C5573 C5572 1.415 . S
H5574 C5571 0.999 . S
H5575 C5556 0.913 . S
H5576 C5594 0.951 . S
H5577 C5596 0.951 . S
H5578 C5598 0.950 . S
H5579 C5599 0.950 . S
H5580 C5601 0.950 . S
H5581 C5604 0.950 . S
H5582 C5605 0.950 . S
H5583 C5607 0.950 . S
H5584 C5608 0.950 . S
H5585 C5609 0.951 . S
H5586 C5611 0.951 . S
H5587 C5613 0.950 . S
H5588 C5614 0.950 . S
H5589 C5616 0.950 . S
H5590 C5619 0.950 . S
H5591 C5620 0.950 . S
H5592 C5622 0.950 . S
H5593 C5623 0.950 . S
C5594 H5576 0.951 . S
C5594 C5595 1.366 . S
C5594 C5596 1.388 . S
C5595 C5594 1.366 . S
C5595 C5599 1.385 . S
C5596 H5577 0.951 . S
C5596 C5594 1.388 . S
C5596 C5597 1.366 . S
C5597 C5596 1.366 . S
C5597 C5598 1.414 . S
C5597 C5600 1.499 . S
C5598 H5578 0.950 . S
C5598 C5597 1.414 . S
C5598 C5599 1.374 . S
C5599 H5579 0.950 . S
C5599 C5595 1.385 . S
C5599 C5598 1.374 . S
C5600 C5597 1.499 . S
C5600 C5601 1.373 . S
C5600 C5602 1.389 . S
C5601 H5580 0.950 . S
C5601 C5600 1.373 . S
C5601 C5617 1.377 . S
C5602 C5600 1.389 . S
C5602 C5603 1.524 . S
C5602 C5616 1.377 . S
C5603 C5602 1.524 . S
C5603 C5604 1.397 . S
C5603 C5608 1.363 . S
C5604 H5581 0.950 . S
C5604 C5603 1.397 . S
C5604 C5605 1.334 . S
C5605 H5582 0.950 . S
C5605 C5604 1.334 . S
C5605 C5606 1.287 . S
C5606 C5605 1.287 . S
C5606 C5607 1.524 . S
C5606 H5625 0.913 . S
C5607 H5583 0.950 . S
C5607 C5606 1.524 . S
C5607 C5608 1.415 . S
C5608 H5584 0.950 . S
C5608 C5603 1.363 . S
C5608 C5607 1.415 . S
C5609 H5585 0.951 . S
C5609 C5610 1.366 . S
C5609 C5611 1.388 . S
C5610 C5609 1.366 . S
C5610 C5614 1.385 . S
C5611 H5586 0.951 . S
C5611 C5609 1.388 . S
C5611 C5612 1.366 . S
C5612 C5611 1.366 . S
C5612 C5613 1.414 . S
C5612 C5615 1.499 . S
C5613 H5587 0.950 . S
C5613 C5612 1.414 . S
C5613 C5614 1.374 . S
C5614 H5588 0.950 . S
C5614 C5610 1.385 . S
C5614 C5613 1.374 . S
C5615 C5612 1.499 . S
C5615 C5616 1.373 . S
C5615 C5617 1.389 . S
C5616 H5589 0.950 . S
C5616 C5602 1.377 . S
C5616 C5615 1.373 . S
C5617 C5601 1.377 . S
C5617 C5615 1.389 . S
C5617 C5618 1.524 . S
C5618 C5617 1.524 . S
C5618 C5619 1.397 . S
C5618 C5623 1.363 . S
C5619 H5590 0.950 . S
C5619 C5618 1.397 . S
C5619 C5620 1.334 . S
C5620 H5591 0.950 . S
C5620 C5619 1.334 . S
C5620 C5621 1.287 . S
C5621 C5620 1.287 . S
C5621 C5622 1.524 . S
C5621 H5624 0.999 . S
C5622 H5592 0.950 . S
C5622 C5621 1.524 . S
C5622 C5623 1.415 . S
C5623 H5593 0.950 . S
C5623 C5618 1.363 . S
C5623 C5622 1.415 . S
H5624 C5621 0.999 . S
H5625 C5606 0.913 . S
H5626 C5644 0.951 . S
H5627 C5646 0.951 . S
H5628 C5648 0.950 . S
H5629 C5649 0.950 . S
H5630 C5651 0.950 . S
H5631 C5654 0.950 . S
H5632 C5655 0.950 . S
H5633 C5657 0.950 . S
H5634 C5658 0.950 . S
H5635 C5659 0.951 . S
H5636 C5661 0.951 . S
H5637 C5663 0.950 . S
H5638 C5664 0.950 . S
H5639 C5666 0.950 . S
H5640 C5669 0.950 . S
H5641 C5670 0.950 . S
H5642 C5672 0.950 . S
H5643 C5673 0.950 . S
C5644 H5626 0.951 . S
C5644 C5645 1.366 . S
C5644 C5646 1.388 . S
C5645 C5644 1.366 . S
C5645 C5649 1.385 . S
C5646 H5627 0.951 . S
C5646 C5644 1.388 . S
C5646 C5647 1.366 . S
C5647 C5646 1.366 . S
C5647 C5648 1.414 . S
C5647 C5650 1.499 . S
C5648 H5628 0.950 . S
C5648 C5647 1.414 . S
C5648 C5649 1.374 . S
C5649 H5629 0.950 . S
C5649 C5645 1.385 . S
C5649 C5648 1.374 . S
C5650 C5647 1.499 . S
C5650 C5651 1.373 . S
C5650 C5652 1.389 . S
C5651 H5630 0.950 . S
C5651 C5650 1.373 . S
C5651 C5667 1.377 . S
C5652 C5650 1.389 . S
C5652 C5653 1.524 . S
C5652 C5666 1.377 . S
C5653 C5652 1.524 . S
C5653 C5654 1.397 . S
C5653 C5658 1.363 . S
C5654 H5631 0.950 . S
C5654 C5653 1.397 . S
C5654 C5655 1.334 1_554 S
C5655 H5632 0.950 . S
C5655 C5654 1.334 1_556 S
C5655 C5656 1.287 . S
C5656 C5655 1.287 . S
C5656 C5657 1.524 1_556 S
C5656 H5675 0.913 . S
C5657 H5633 0.950 . S
C5657 C5656 1.524 1_554 S
C5657 C5658 1.415 . S
C5658 H5634 0.950 . S
C5658 C5653 1.363 . S
C5658 C5657 1.415 . S
C5659 H5635 0.951 . S
C5659 C5660 1.366 . S
C5659 C5661 1.388 . S
C5660 C5659 1.366 . S
C5660 C5664 1.385 . S
C5661 H5636 0.951 . S
C5661 C5659 1.388 . S
C5661 C5662 1.366 . S
C5662 C5661 1.366 . S
C5662 C5663 1.414 . S
C5662 C5665 1.499 . S
C5663 H5637 0.950 . S
C5663 C5662 1.414 . S
C5663 C5664 1.374 . S
C5664 H5638 0.950 . S
C5664 C5660 1.385 . S
C5664 C5663 1.374 . S
C5665 C5662 1.499 . S
C5665 C5666 1.373 . S
C5665 C5667 1.389 . S
C5666 H5639 0.950 . S
C5666 C5652 1.377 . S
C5666 C5665 1.373 . S
C5667 C5651 1.377 . S
C5667 C5665 1.389 . S
C5667 C5668 1.524 . S
C5668 C5667 1.524 . S
C5668 C5669 1.397 . S
C5668 C5673 1.363 . S
C5669 H5640 0.950 . S
C5669 C5668 1.397 . S
C5669 C5670 1.334 . S
C5670 H5641 0.950 . S
C5670 C5669 1.334 . S
C5670 C5671 1.287 . S
C5671 C5670 1.287 . S
C5671 C5672 1.524 . S
C5671 H5674 0.999 . S
C5672 H5642 0.950 . S
C5672 C5671 1.524 . S
C5672 C5673 1.415 . S
C5673 H5643 0.950 . S
C5673 C5668 1.363 . S
C5673 C5672 1.415 . S
H5674 C5671 0.999 . S
H5675 C5656 0.913 . S
H5676 C5694 0.951 . S
H5677 C5696 0.951 . S
H5678 C5698 0.950 . S
H5679 C5699 0.950 . S
H5680 C5701 0.950 . S
H5681 C5704 0.950 . S
H5682 C5705 0.950 . S
H5683 C5707 0.950 . S
H5684 C5708 0.950 . S
H5685 C5709 0.951 . S
H5686 C5711 0.951 . S
H5687 C5713 0.950 . S
H5688 C5714 0.950 . S
H5689 C5716 0.950 . S
H5690 C5719 0.950 . S
H5691 C5720 0.950 . S
H5692 C5722 0.950 . S
H5693 C5723 0.950 . S
C5694 H5676 0.951 . S
C5694 C5695 1.366 . S
C5694 C5696 1.388 . S
C5695 C5694 1.366 . S
C5695 C5699 1.385 . S
C5696 H5677 0.951 . S
C5696 C5694 1.388 . S
C5696 C5697 1.366 . S
C5697 C5696 1.366 . S
C5697 C5698 1.414 . S
C5697 C5700 1.499 . S
C5698 H5678 0.950 . S
C5698 C5697 1.414 . S
C5698 C5699 1.374 . S
C5699 H5679 0.950 . S
C5699 C5695 1.385 . S
C5699 C5698 1.374 . S
C5700 C5697 1.499 . S
C5700 C5701 1.373 . S
C5700 C5702 1.389 . S
C5701 H5680 0.950 . S
C5701 C5700 1.373 . S
C5701 C5717 1.377 . S
C5702 C5700 1.389 . S
C5702 C5703 1.524 . S
C5702 C5716 1.377 . S
C5703 C5702 1.524 . S
C5703 C5704 1.397 . S
C5703 C5708 1.363 . S
C5704 H5681 0.950 . S
C5704 C5703 1.397 . S
C5704 C5705 1.334 . S
C5705 H5682 0.950 . S
C5705 C5704 1.334 . S
C5705 C5706 1.287 . S
C5706 C5705 1.287 . S
C5706 C5707 1.524 . S
C5706 H5725 0.913 . S
C5707 H5683 0.950 . S
C5707 C5706 1.524 . S
C5707 C5708 1.415 . S
C5708 H5684 0.950 . S
C5708 C5703 1.363 . S
C5708 C5707 1.415 . S
C5709 H5685 0.951 . S
C5709 C5710 1.366 . S
C5709 C5711 1.388 . S
C5710 C5709 1.366 . S
C5710 C5714 1.385 . S
C5711 H5686 0.951 . S
C5711 C5709 1.388 . S
C5711 C5712 1.366 . S
C5712 C5711 1.366 . S
C5712 C5713 1.414 . S
C5712 C5715 1.499 . S
C5713 H5687 0.950 . S
C5713 C5712 1.414 . S
C5713 C5714 1.374 . S
C5714 H5688 0.950 . S
C5714 C5710 1.385 . S
C5714 C5713 1.374 . S
C5715 C5712 1.499 . S
C5715 C5716 1.373 . S
C5715 C5717 1.389 . S
C5716 H5689 0.950 . S
C5716 C5702 1.377 . S
C5716 C5715 1.373 . S
C5717 C5701 1.377 . S
C5717 C5715 1.389 . S
C5717 C5718 1.524 . S
C5718 C5717 1.524 . S
C5718 C5719 1.397 . S
C5718 C5723 1.363 . S
C5719 H5690 0.950 . S
C5719 C5718 1.397 . S
C5719 C5720 1.334 . S
C5720 H5691 0.950 . S
C5720 C5719 1.334 . S
C5720 C5721 1.287 . S
C5721 C5720 1.287 . S
C5721 C5722 1.524 . S
C5721 H5724 0.999 . S
C5722 H5692 0.950 . S
C5722 C5721 1.524 . S
C5722 C5723 1.415 . S
C5723 H5693 0.950 . S
C5723 C5718 1.363 . S
C5723 C5722 1.415 . S
H5724 C5721 0.999 . S
H5725 C5706 0.913 . S
H5726 C5744 0.951 . S
H5727 C5746 0.951 . S
H5728 C5748 0.950 . S
H5729 C5749 0.950 . S
H5730 C5751 0.950 . S
H5731 C5754 0.950 . S
H5732 C5755 0.950 . S
H5733 C5757 0.950 . S
H5734 C5758 0.950 . S
H5735 C5759 0.951 . S
H5736 C5761 0.951 . S
H5737 C5763 0.950 . S
H5738 C5764 0.950 . S
H5739 C5766 0.950 . S
H5740 C5769 0.950 . S
H5741 C5770 0.950 . S
H5742 C5772 0.950 . S
H5743 C5773 0.950 . S
C5744 H5726 0.951 . S
C5744 C5745 1.366 . S
C5744 C5746 1.388 . S
C5745 C5744 1.366 . S
C5745 C5749 1.385 . S
C5746 H5727 0.951 . S
C5746 C5744 1.388 . S
C5746 C5747 1.366 . S
C5747 C5746 1.366 . S
C5747 C5748 1.414 . S
C5747 C5750 1.499 . S
C5748 H5728 0.950 . S
C5748 C5747 1.414 . S
C5748 C5749 1.374 . S
C5749 H5729 0.950 . S
C5749 C5745 1.385 . S
C5749 C5748 1.374 . S
C5750 C5747 1.499 . S
C5750 C5751 1.373 . S
C5750 C5752 1.389 . S
C5751 H5730 0.950 . S
C5751 C5750 1.373 . S
C5751 C5767 1.377 . S
C5752 C5750 1.389 . S
C5752 C5753 1.524 . S
C5752 C5766 1.377 . S
C5753 C5752 1.524 . S
C5753 C5754 1.397 . S
C5753 C5758 1.363 . S
C5754 H5731 0.950 . S
C5754 C5753 1.397 . S
C5754 C5755 1.334 . S
C5755 H5732 0.950 . S
C5755 C5754 1.334 . S
C5755 C5756 1.287 . S
C5756 C5755 1.287 . S
C5756 C5757 1.524 . S
C5756 H5775 0.913 . S
C5757 H5733 0.950 . S
C5757 C5756 1.524 . S
C5757 C5758 1.415 . S
C5758 H5734 0.950 . S
C5758 C5753 1.363 . S
C5758 C5757 1.415 . S
C5759 H5735 0.951 . S
C5759 C5760 1.366 . S
C5759 C5761 1.388 . S
C5760 C5759 1.366 . S
C5760 C5764 1.385 . S
C5761 H5736 0.951 . S
C5761 C5759 1.388 . S
C5761 C5762 1.366 . S
C5762 C5761 1.366 . S
C5762 C5763 1.414 . S
C5762 C5765 1.499 . S
C5763 H5737 0.950 . S
C5763 C5762 1.414 . S
C5763 C5764 1.374 . S
C5764 H5738 0.950 . S
C5764 C5760 1.385 . S
C5764 C5763 1.374 . S
C5765 C5762 1.499 . S
C5765 C5766 1.373 . S
C5765 C5767 1.389 . S
C5766 H5739 0.950 . S
C5766 C5752 1.377 . S
C5766 C5765 1.373 . S
C5767 C5751 1.377 . S
C5767 C5765 1.389 . S
C5767 C5768 1.524 . S
C5768 C5767 1.524 . S
C5768 C5769 1.397 . S
C5768 C5773 1.363 . S
C5769 H5740 0.950 . S
C5769 C5768 1.397 . S
C5769 C5770 1.334 . S
C5770 H5741 0.950 . S
C5770 C5769 1.334 . S
C5770 C5771 1.287 . S
C5771 C5770 1.287 . S
C5771 C5772 1.524 . S
C5771 H5774 0.999 . S
C5772 H5742 0.950 . S
C5772 C5771 1.524 . S
C5772 C5773 1.415 . S
C5773 H5743 0.950 . S
C5773 C5768 1.363 . S
C5773 C5772 1.415 . S
H5774 C5771 0.999 . S
H5775 C5756 0.913 . S
C995 C106 2.615 . S
C1010 C346 2.568 . S
C1045 C65 1.967 . S
C1060 C394 1.954 . S
C1095 C79 1.512 . S
C1110 C426 1.500 . S
C1160 C471 1.337 . S
C1145 C90 1.329 . S
C1195 C21 0.641 . S
C1210 C511 0.631 . S
C1260 C546 0.858 . S
C1245 C35 0.857 . S
C1310 C585 1.222 . S
C1295 C50 1.235 . S
C1345 C6 1.184 . S
C1360 C622 1.210 . S
C1410 C354 2.236 . S
C1395 C232 2.218 . S
C1445 C245 0.557 . S
C1460 C391 0.520 . S
C1510 C434 2.507 . S
C1495 C274 2.524 . S
C1560 C466 0.949 . S
C1545 C175 0.946 . S
C1595 C231 0.888 . S
C1610 C506 0.887 . S
C1660 C554 0.341 . S
C1645 C246 0.320 . S
C1710 C595 1.738 1_556 S
C1695 C273 1.724 . S
C1760 C625 2.124 . S
C1745 C176 2.116 . S
C1810 C351 1.218 . S
C1795 C160 1.176 . S
C1845 C289 2.160 . S
C1860 C674 2.141 . S
C1910 C711 1.236 . S
C1895 C328 1.199 . S
C1960 C742 0.569 . S
C1945 C317 0.546 . S
C1995 C118 2.685 . S
C2010 C635 2.698 . S
C2045 C132 1.413 . S
C2060 C431 1.438 . S
C2095 C331 1.835 . S
C2110 C794 1.821 . S
C2160 C826 1.858 . S
C2145 C303 1.853 . S
C2210 C355 2.094 . S
C2195 C63 2.130 . S
C2260 C825 2.465 . S
C2245 C107 2.440 . S
C2295 C92 1.280 . S
C2310 C435 1.282 . S
C2345 C78 1.885 . S
C2360 C782 1.882 . S
C2410 C502 1.223 . S
C2395 C8 1.204 . S
C2445 C51 0.974 . S
C2460 C715 0.979 . S
C2510 C594 1.521 . S
C2495 C37 1.535 . S
C2560 C871 1.171 . S
C2545 C20 1.164 . S
C2610 C345 1.980 1_556 S
C2595 C147 1.956 . S
C2660 C822 0.365 . S
C2645 C316 0.260 . S
C2695 C119 2.416 . S
C2710 C425 2.459 . S
C2745 C288 1.103 . S
C2760 C795 1.102 . S
C2795 C148 1.297 . S
C2810 C515 1.294 . S
C2860 C705 0.508 . S
C2845 C315 0.536 . S
C2895 C120 2.137 . S
C2910 C586 2.053 . S
C2945 C287 1.911 . S
C2960 C874 1.868 . S
C2995 C188 0.898 . S
C3010 C342 0.907 . S
C3045 C177 2.574 . S
C3060 C665 2.571 . S
C3095 C258 1.218 . S
C3110 C542 1.258 . S
C3145 C247 0.462 . S
C3160 C751 0.486 . S
C3210 C866 2.660 . S
C3195 C272 2.659 . S
C3245 C216 1.275 . S
C3260 C422 1.292 . S
C3310 C465 2.120 . S
C3295 C261 2.107 . S
C3360 C395 2.041 . S
C3345 C205 2.057 . S
C3395 C76 2.209 . S
C3410 C906 2.184 . S
C3460 C834 2.033 . S
C3445 C93 2.046 . S
C3495 C105 1.064 . S
C3510 C946 1.062 . S
C3545 C62 1.356 1_655 S
C3560 C791 1.368 . S
C3595 C49 0.625 . S
C3610 C671 0.613 . S
C3660 C706 1.284 . S
C3645 C9 1.296 . S
C3710 C745 1.126 . S
C3695 C22 1.137 . S
C3760 C862 1.561 . S
C3745 C36 1.545 . S
C3810 C914 2.157 . S
C3795 C260 2.140 . S
C3845 C189 0.635 . S
C3860 C831 0.615 . S
C3910 C954 2.397 . S
C3895 C204 2.413 . S
C3960 C786 0.761 . S
C3945 C217 0.762 . S
C4010 C666 1.078 1_556 S
C3995 C259 1.074 . S
C4045 C190 0.438 . S
C4060 C714 0.450 . S
C4110 C755 1.936 . S
C4095 C203 1.920 . S
C4145 C218 2.219 . S
C4160 C865 2.231 . S
C4210 C911 1.206 . S
C4195 C314 1.161 . S
C4245 C135 2.235 . S
C4260 C514 2.212 . S
C4310 C551 1.185 . S
C4295 C146 1.143 . S
C4360 C582 0.557 . S
C4345 C163 0.536 . S
C4410 C875 2.780 . S
C4395 C300 2.771 . S
C4445 C286 1.347 . S
C4460 C951 1.375 . S
C4510 C474 1.742 . S
C4495 C149 1.752 . S
C4560 C386 1.795 . S
C4545 C121 1.800 . S
C4595 C91 2.105 . S
C4610 C915 2.078 . S
C4660 C385 2.028 . S
C4645 C77 1.967 . S
C4695 C64 1.258 . S
C4710 C955 1.267 . S
C4745 C104 1.518 . S
C4760 C462 1.534 . S
C4795 C34 0.841 . S
C4810 C662 0.853 . S
C4860 C555 0.937 . S
C4845 C23 0.928 . S
C4895 C7 1.050 . S
C4910 C754 1.077 . S
C4945 C48 1.147 . S
C4960 C631 1.156 . S
C5010 C905 1.953 . S
C4995 C329 1.933 . S
C5045 C162 0.275 . S
C5060 C382 0.343 . S
C5110 C945 2.448 1_556 S
C5095 C301 2.414 . S
C5145 C134 1.116 . S
C5160 C475 1.116 . S
C5195 C330 1.314 . S
C5210 C675 1.312 . S
C5260 C545 0.542 . S
C5245 C161 0.563 . S
C5295 C302 2.104 . S
C5310 C746 2.025 1_655 S
C5360 C634 1.852 . S
C5345 C133 1.853 . S
C5410 C902 1.093 . S
C5395 C244 1.079 . S
C5460 C505 2.545 1_665 S
C5445 C219 2.539 . S
C5495 C230 0.980 . S
C5510 C702 1.003 . S
C5560 C591 0.533 . S
C5545 C191 0.503 . S
C5595 C202 2.950 . S
C5610 C626 2.960 . S
C5645 C174 1.518 . S
C5660 C942 1.543 . S
C5710 C785 2.090 . S
C5695 C233 2.069 . S
C5760 C835 1.984 . S
C5745 C275 2.011 . S
