# Generated by pormake.
# Topology alb, (6,12)-cn, num edge types: 1
# Building blocks:
#     Node 0, Type 0, BuildingBlock: OJICUG_clean_sbu_0, # of connection points: 6
#     Node 1, Type 0, BuildingBlock: OJICUG_clean_sbu_0, # of connection points: 6
#     Node 2, Type 1, BuildingBlock: QEWDON_clean_sbu_0, # of connection points: 12
#     Edge 3, Type (0, 1), BuildingBlock: KIFKEQ_clean_linker_1, # of connection points: 2
#     Edge 4, Type (0, 1), BuildingBlock: KIFKEQ_clean_linker_1, # of connection points: 2
#     Edge 5, Type (0, 1), BuildingBlock: KIFKEQ_clean_linker_1, # of connection points: 2
#     Edge 6, Type (0, 1), BuildingBlock: KIFKEQ_clean_linker_1, # of connection points: 2
#     Edge 7, Type (0, 1), BuildingBlock: KIFKEQ_clean_linker_1, # of connection points: 2
#     Edge 8, Type (0, 1), BuildingBlock: KIFKEQ_clean_linker_1, # of connection points: 2
#     Edge 9, Type (0, 1), BuildingBlock: KIFKEQ_clean_linker_1, # of connection points: 2
#     Edge 10, Type (0, 1), BuildingBlock: KIFKEQ_clean_linker_1, # of connection points: 2
#     Edge 11, Type (0, 1), BuildingBlock: KIFKEQ_clean_linker_1, # of connection points: 2
#     Edge 12, Type (0, 1), BuildingBlock: KIFKEQ_clean_linker_1, # of connection points: 2
#     Edge 13, Type (0, 1), BuildingBlock: KIFKEQ_clean_linker_1, # of connection points: 2
#     Edge 14, Type (0, 1), BuildingBlock: KIFKEQ_clean_linker_1, # of connection points: 2
# Relax obj value: 0.123
# Max RMSD: 0.221
# Mean RMSD: 0.143
data_MOF--net-alb--node1-OJICUG_clean_sbu_0--node2-QEWDON_clean_sbu_0--edge1-KIFKEQ_clean_linker_1
_symmetry_space_group_name_H-M    P1
_symmetry_Int_Tables_number       1
_symmetry_cell_setting            triclinic
loop_
_symmetry_equiv_pos_as_xyz
'x, y, z'
_cell_length_a     24.511127
_cell_length_b     25.323042
_cell_length_c     21.004907
_cell_angle_alpha  90.237484
_cell_angle_beta   90.646866
_cell_angle_gamma 121.06412
loop_
_atom_site_label
_atom_site_type_symbol
_atom_site_fract_x
_atom_site_fract_y
_atom_site_fract_z
_atom_type_partial_charge
Sc0 Sc 0.30917 0.72364 0.12375 0.0
Sc1 Sc 0.15947 0.58967 0.14944 0.0
Sc2 Sc 0.29519 0.57842 0.1214 0.0
O3 O 0.25456 0.63055 0.1315 0.0
C4 C 0.36546 0.67857 0.01343 0.0
C5 C 0.1808 0.69464 0.05056 0.0
C6 C 0.16094 0.49435 0.05122 0.0
C7 C 0.21853 0.70992 0.23821 0.0
C8 C 0.40513 0.69462 0.19752 0.0
C9 C 0.20101 0.51288 0.23786 0.0
O10 O 0.35515 0.71824 0.03897 0.0
O11 O 0.14531 0.64247 0.07646 0.0
O12 O 0.21922 0.5125 0.06118 0.0
O13 O 0.27042 0.73936 0.20817 0.0
O14 O 0.37731 0.63853 0.17963 0.0
O15 O 0.16407 0.53295 0.22441 0.0
O16 O 0.38516 0.73033 0.18235 0.0
O17 O 0.17391 0.65634 0.22172 0.0
O18 O 0.2494 0.52556 0.20481 0.0
O19 O 0.2399 0.72841 0.06386 0.0
O20 O 0.34574 0.62569 0.03711 0.0
O21 O 0.1325 0.51742 0.07971 0.0
Sc22 Sc 0.73395 0.30017 0.05345 0.0
Sc23 Sc 0.87271 0.44263 0.02105 0.0
Sc24 Sc 0.72711 0.43448 0.05236 0.0
O25 O 0.7782 0.39264 0.04233 0.0
C26 C 0.62524 0.31248 0.98155 0.0
C27 C 0.81922 0.32131 0.93176 0.0
C28 C 0.81935 0.51105 0.93814 0.0
C29 C 0.87082 0.34534 0.11664 0.0
C30 C 0.66958 0.33304 0.16299 0.0
C31 C 0.85699 0.52924 0.1238 0.0
O32 O 0.64821 0.2817 0.00477 0.0
O33 O 0.86301 0.37599 0.94781 0.0
O34 O 0.77155 0.49503 0.97332 0.0
O35 O 0.81286 0.30572 0.10441 0.0
O36 O 0.67574 0.3795 0.13329 0.0
O37 O 0.89134 0.51445 0.0917 0.0
O38 O 0.69358 0.30197 0.14332 0.0
O39 O 0.89922 0.39878 0.09259 0.0
O40 O 0.79687 0.50209 0.11652 0.0
O41 O 0.76923 0.28984 0.96425 0.0
O42 O 0.65192 0.37053 0.98891 0.0
O43 O 0.85843 0.49293 0.94695 0.0
Zn44 Zn 0.17249 0.15573 0.45285 0.0
Zn45 Zn 0.15768 0.0232 0.46292 0.0
O46 O 0.10796 0.06443 0.45523 0.0
H47 H 0.06225 0.04507 0.45786 0.0
C48 C 0.1018 0.20933 0.59329 0.0
O49 O 0.04342 0.17715 0.61443 0.0
Zn50 Zn 0.87696 0.87998 0.71098 0.0
Zn51 Zn 0.85864 0.99457 0.72961 0.0
O52 O 0.92484 0.97094 0.72053 0.0
H53 H 0.97003 0.99869 0.71523 0.0
Zn54 Zn 0.11706 0.11715 0.66758 0.0
O55 O 0.0799 0.03233 0.62714 0.0
Zn56 Zn 0.09632 0.97821 0.68478 0.0
H57 H 0.07122 0.0263 0.58197 0.0
Zn58 Zn 0.92036 0.01571 0.50219 0.0
O59 O 0.9549 0.96795 0.54676 0.0
H60 H 0.96231 0.97133 0.59219 0.0
Zn61 Zn 0.9397 0.8971 0.48989 0.0
C62 C 0.86009 0.05935 0.59252 0.0
O63 O 0.81965 0.99962 0.59491 0.0
O64 O 0.26413 0.17571 0.43935 0.0
O65 O 0.25068 0.08175 0.43773 0.0
O66 O 0.76806 0.92129 0.74001 0.0
O67 O 0.78309 0.84176 0.73565 0.0
O68 O 0.18096 0.12789 0.73806 0.0
O69 O 0.16686 0.03375 0.74831 0.0
C70 C 0.05574 0.91032 0.40964 0.0
O71 O 0.85208 0.95872 0.43621 0.0
O72 O 0.86661 0.87864 0.42818 0.0
O73 O 0.88654 0.07125 0.78565 0.0
C74 C 0.28613 0.14019 0.43221 0.0
O75 O 0.14282 0.20446 0.39938 0.0
C76 C 0.9813 0.87281 0.76328 0.0
O77 O 0.14149 0.19318 0.60858 0.0
C78 C 0.74683 0.8637 0.7434 0.0
O79 O 0.90764 0.07914 0.55592 0.0
C80 C 0.14539 0.94795 0.57558 0.0
O81 O 0.11535 0.94801 0.4052 0.0
O82 O 0.02516 0.92361 0.44895 0.0
C83 C 0.19542 0.09101 0.76367 0.0
O84 O 0.92131 0.84886 0.7673 0.0
O85 O 0.01095 0.91734 0.72472 0.0
C86 C 0.89333 0.81969 0.59948 0.0
O87 O 0.12546 0.93033 0.63163 0.0
O88 O 0.14898 0.99667 0.5549 0.0
C89 C 0.83682 0.90611 0.41284 0.0
O90 O 0.91423 0.82183 0.54392 0.0
O91 O 0.88687 0.8636 0.61896 0.0
C92 C 0.93926 0.11808 0.77065 0.0
O93 O 0.97047 0.11371 0.7225 0.0
C94 C 0.08488 0.18867 0.405 0.0
O95 O 0.0493 0.14525 0.44546 0.0
H96 H 0.3094 0.80797 0.30768 0.0
H97 H 0.10646 0.67952 0.29531 0.0
H98 H 0.29375 0.86101 0.39569 0.0
H99 H 0.09008 0.73519 0.38042 0.0
H100 H 0.2405 0.98832 0.49119 0.0
H101 H 0.25737 0.92828 0.41204 0.0
H102 H 0.10148 0.76073 0.4898 0.0
H103 H 0.0822 0.82237 0.56617 0.0
C104 C 0.26132 0.79139 0.32341 0.0
C105 C 0.20906 0.74016 0.29381 0.0
C106 C 0.25223 0.82206 0.37367 0.0
C107 C 0.19053 0.80309 0.39473 0.0
C108 C 0.13834 0.75082 0.36609 0.0
C109 C 0.14762 0.71928 0.3167 0.0
C110 C 0.20948 0.93878 0.49059 0.0
C111 C 0.15917 0.91005 0.53327 0.0
C112 C 0.21973 0.90406 0.44605 0.0
C113 C 0.18073 0.83942 0.44425 0.0
C114 C 0.13175 0.81044 0.489 0.0
C115 C 0.12112 0.84552 0.53323 0.0
H116 H 0.63819 0.23239 0.23747 0.0
H117 H 0.60263 0.38163 0.21388 0.0
H118 H 0.55514 0.18693 0.31725 0.0
H119 H 0.51881 0.33541 0.29133 0.0
H120 H 0.38351 0.25913 0.44746 0.0
H121 H 0.48719 0.30844 0.39738 0.0
H122 H 0.44152 0.13298 0.31578 0.0
H123 H 0.3389 0.08333 0.36835 0.0
C124 C 0.61336 0.256 0.24981 0.0
C125 C 0.6268 0.31043 0.21861 0.0
C126 C 0.56536 0.22963 0.29527 0.0
C127 C 0.52966 0.25703 0.31046 0.0
C128 C 0.54564 0.31321 0.28171 0.0
C129 C 0.59368 0.33966 0.23669 0.0
C130 C 0.39616 0.2309 0.41984 0.0
C131 C 0.35267 0.16751 0.41106 0.0
C132 C 0.4555 0.25923 0.39078 0.0
C133 C 0.47239 0.22506 0.35132 0.0
C134 C 0.4305 0.16083 0.34607 0.0
C135 C 0.3714 0.13229 0.376 0.0
H136 H 0.25228 0.44229 0.26648 0.0
H137 H 0.1194 0.49177 0.33665 0.0
H138 H 0.23125 0.37591 0.35673 0.0
H139 H 0.1001 0.42696 0.42925 0.0
H140 H 0.02566 0.24944 0.5446 0.0
H141 H 0.05123 0.32688 0.46432 0.0
H142 H 0.24559 0.36739 0.46351 0.0
H143 H 0.2188 0.28773 0.5422 0.0
C144 C 0.2191 0.4397 0.30173 0.0
C145 C 0.18767 0.47268 0.29412 0.0
C146 C 0.20748 0.40191 0.35427 0.0
C147 C 0.16438 0.39609 0.40138 0.0
C148 C 0.13304 0.42935 0.39389 0.0
C149 C 0.14428 0.46688 0.34079 0.0
C150 C 0.074 0.27522 0.52784 0.0
C151 C 0.11981 0.26151 0.54932 0.0
C152 C 0.08901 0.32038 0.48189 0.0
C153 C 0.1504 0.35328 0.45606 0.0
C154 C 0.19719 0.34188 0.4804 0.0
C155 C 0.18202 0.29642 0.52613 0.0
H156 H 0.82482 0.23504 0.17511 0.0
H157 H 0.99598 0.41435 0.15802 0.0
H158 H 0.88007 0.20339 0.24674 0.0
H159 H 0.05134 0.38242 0.23186 0.0
H160 H 0.13843 0.2657 0.30401 0.0
H161 H 0.09021 0.30999 0.23723 0.0
H162 H 0.92238 0.22371 0.35372 0.0
H163 H 0.96969 0.17835 0.41917 0.0
C164 C 0.8742 0.26806 0.18697 0.0
C165 C 0.90579 0.32744 0.16088 0.0
C166 C 0.90578 0.24993 0.22862 0.0
C167 C 0.96978 0.29067 0.24573 0.0
C168 C 1.00195 0.35003 0.21946 0.0
C169 C 0.97018 0.36832 0.1774 0.0
C170 C 0.0913 0.25642 0.31535 0.0
C171 C 0.05746 0.21797 0.36628 0.0
C172 C 0.06395 0.28218 0.27744 0.0
C173 C 1.00223 0.26973 0.28979 0.0
C174 C 0.96949 0.23306 0.34217 0.0
C175 C 0.99657 0.20704 0.37966 0.0
H176 H 0.48608 0.65063 0.20217 0.0
H177 H 0.46356 0.79916 0.27121 0.0
H178 H 0.59282 0.70083 0.24888 0.0
H179 H 0.56909 0.84805 0.32041 0.0
H180 H 0.78081 0.95666 0.34368 0.0
H181 H 0.67678 0.90316 0.29123 0.0
H182 H 0.65417 0.72807 0.34381 0.0
H183 H 0.75969 0.78185 0.39374 0.0
C184 C 0.50345 0.69342 0.22845 0.0
C185 C 0.46649 0.72111 0.23272 0.0
C186 C 0.56473 0.72223 0.25531 0.0
C187 C 0.59014 0.77902 0.28776 0.0
C188 C 0.55195 0.80529 0.2942 0.0
C189 C 0.49109 0.77695 0.26658 0.0
C190 C 0.75401 0.90671 0.34311 0.0
C191 C 0.77833 0.87348 0.373 0.0
C192 C 0.69397 0.87597 0.3137 0.0
C193 C 0.65629 0.81122 0.31437 0.0
C194 C 0.68185 0.77791 0.34198 0.0
C195 C 0.74244 0.80874 0.37061 0.0
H196 H 0.98388 0.60187 0.15961 0.0
H197 H 0.79848 0.57734 0.19257 0.0
H198 H 0.03149 0.6906 0.23191 0.0
H199 H 0.84584 0.66653 0.26223 0.0
H200 H 0.93719 0.80562 0.42201 0.0
H201 H 0.89152 0.71066 0.35895 0.0
H202 H 0.06047 0.79183 0.24366 0.0
H203 H 0.10696 0.88429 0.30902 0.0
C204 C 0.95322 0.61514 0.18233 0.0
C205 C 0.88723 0.58201 0.17001 0.0
C206 C 0.98058 0.66644 0.22375 0.0
C207 C 0.9428 0.68625 0.25378 0.0
C208 C 0.87677 0.6525 0.24167 0.0
C209 C 0.84948 0.60121 0.20085 0.0
C210 C 0.96443 0.80293 0.38331 0.0
C211 C 0.02553 0.85275 0.37055 0.0
C212 C 0.93819 0.7485 0.34664 0.0
C213 C 0.97191 0.74295 0.29544 0.0
C214 C 0.0331 0.79317 0.28303 0.0
C215 C 0.05963 0.84687 0.3203 0.0
H216 H 0.06152 0.63306 0.99397 0.0
H217 H 0.23609 0.81061 0.00107 0.0
H218 H 0.01568 0.67374 0.91937 0.0
H219 H 0.18963 0.85186 0.92895 0.0
H220 H 0.92687 0.78369 0.85253 0.0
H221 H 0.97503 0.73923 0.91687 0.0
H222 H 0.15497 0.85491 0.82459 0.0
H223 H 0.10647 0.90121 0.76099 0.0
C224 C 0.0901 0.68079 0.97986 0.0
C225 C 0.15252 0.71842 0.00388 0.0
C226 C 0.06369 0.70437 0.93722 0.0
C227 C 0.09869 0.76646 0.91802 0.0
C228 C 0.16138 0.80369 0.94151 0.0
C229 C 0.18795 0.77999 0.98353 0.0
C230 C 0.97683 0.79995 0.84577 0.0
C231 C 0.01289 0.84654 0.80166 0.0
C232 C 1.00442 0.77376 0.88248 0.0
C233 C 0.0691 0.79307 0.87625 0.0
C234 C 0.10523 0.83934 0.83156 0.0
C235 C 0.07746 0.86587 0.79479 0.0
H236 H 0.53923 0.18905 0.98585 0.0
H237 H 0.56823 0.35825 0.90505 0.0
H238 H 0.43231 0.13316 0.94043 0.0
H239 H 0.46186 0.30168 0.85713 0.0
H240 H 0.25006 0.19992 0.82954 0.0
H241 H 0.35291 0.25172 0.88453 0.0
H242 H 0.37441 0.0959 0.84391 0.0
H243 H 0.27033 0.04315 0.79132 0.0
C244 C 0.52317 0.21422 0.95747 0.0
C245 C 0.56233 0.27821 0.94906 0.0
C246 C 0.46174 0.18203 0.9313 0.0
C247 C 0.43815 0.21284 0.89538 0.0
C248 C 0.47789 0.27666 0.88576 0.0
C249 C 0.53915 0.30906 0.91266 0.0
C250 C 0.27631 0.17632 0.83339 0.0
C251 C 0.25225 0.11758 0.80589 0.0
C252 C 0.33563 0.20631 0.86425 0.0
C253 C 0.37262 0.17858 0.86762 0.0
C254 C 0.34713 0.11856 0.84265 0.0
C255 C 0.28736 0.0882 0.81248 0.0
H256 H 0.03129 0.42392 0.03308 0.0
H257 H 0.20901 0.44779 0.96669 0.0
H258 H 0.97284 0.33534 0.96152 0.0
H259 H 0.151 0.35941 0.89645 0.0
H260 H 0.039 0.23043 0.73881 0.0
H261 H 0.08764 0.32496 0.80207 0.0
H262 H 0.94864 0.23112 0.94883 0.0
H263 H 0.89851 0.13704 0.88425 0.0
C264 C 0.05787 0.41069 0.00282 0.0
C265 C 0.12481 0.44294 0.00556 0.0
C266 C 0.02438 0.35979 0.96199 0.0
C267 C 0.05725 0.3407 0.92265 0.0
C268 C 0.12413 0.3736 0.92498 0.0
C269 C 0.15746 0.42405 0.96582 0.0
C270 C 0.01868 0.23007 0.78445 0.0
C271 C 0.96576 0.17614 0.80719 0.0
C272 C 0.04667 0.28416 0.82083 0.0
C273 C 0.02273 0.2853 0.88103 0.0
C274 C 0.96811 0.23192 0.90259 0.0
C275 C 0.93968 0.17789 0.86581 0.0
H276 H 0.92743 0.35105 0.8636 0.0
H277 H 0.72432 0.22345 0.86635 0.0
H278 H 0.93635 0.29167 0.77661 0.0
H279 H 0.73242 0.1665 0.77821 0.0
H280 H 0.77033 0.02915 0.6833 0.0
H281 H 0.76184 0.09633 0.75931 0.0
H282 H 0.92095 0.25482 0.67241 0.0
H283 H 0.93111 0.18613 0.59802 0.0
C284 C 0.88467 0.3107 0.8454 0.0
C285 C 0.82551 0.29105 0.87356 0.0
C286 C 0.88961 0.27666 0.79505 0.0
C287 C 0.83539 0.22257 0.77118 0.0
C288 C 0.77585 0.20592 0.7967 0.0
C289 C 0.77109 0.23915 0.84728 0.0
C290 C 0.80329 0.07835 0.67991 0.0
C291 C 0.8519 0.10207 0.63476 0.0
C292 C 0.79809 0.11737 0.72346 0.0
C293 C 0.84043 0.18174 0.72246 0.0
C294 C 0.88795 0.20568 0.67577 0.0
C295 C 0.89364 0.16631 0.63264 0.0
H296 H 0.39763 0.60751 0.94242 0.0
H297 H 0.43091 0.79217 0.95876 0.0
H298 H 0.47984 0.6425 0.86201 0.0
H299 H 0.51395 0.82729 0.8805 0.0
H300 H 0.64771 0.88158 0.72403 0.0
H301 H 0.54419 0.82762 0.77445 0.0
H302 H 0.59342 0.7031 0.86191 0.0
H303 H 0.69592 0.75561 0.80889 0.0
C304 C 0.42185 0.65538 0.92839 0.0
C305 C 0.40795 0.69712 0.95767 0.0
C306 C 0.46932 0.67551 0.88252 0.0
C307 C 0.50411 0.73785 0.86499 0.0
C308 C 0.48776 0.77875 0.89192 0.0
C309 C 0.44016 0.75862 0.93736 0.0
C310 C 0.63573 0.84175 0.75287 0.0
C311 C 0.68018 0.8233 0.76329 0.0
C312 C 0.57657 0.81106 0.78217 0.0
C313 C 0.56087 0.76188 0.82356 0.0
C314 C 0.60358 0.74058 0.83017 0.0
C315 C 0.66253 0.77077 0.79993 0.0
H316 H 0.78342 0.59595 0.93311 0.0
H317 H 0.88355 0.52614 0.82737 0.0
H318 H 0.80355 0.66949 0.84974 0.0
H319 H 0.90079 0.59767 0.74152 0.0
H320 H 0.97183 0.77634 0.62769 0.0
H321 H 0.956 0.70141 0.70959 0.0
H322 H 0.77006 0.6744 0.74748 0.0
H323 H 0.78816 0.75162 0.66854 0.0
C324 C 0.80887 0.59569 0.89139 0.0
C325 C 0.8312 0.55479 0.88636 0.0
C326 C 0.82015 0.63767 0.84326 0.0
C327 C 0.85281 0.63894 0.78809 0.0
C328 C 0.87587 0.59841 0.78343 0.0
C329 C 0.86563 0.55709 0.83237 0.0
C330 C 0.92748 0.75361 0.65337 0.0
C331 C 0.88135 0.76972 0.64277 0.0
C332 C 0.91821 0.71063 0.70009 0.0
C333 C 0.86199 0.68219 0.73586 0.0
C334 C 0.81475 0.69659 0.72247 0.0
C335 C 0.82469 0.74037 0.67691 0.0
loop_
_geom_bond_atom_site_label_1
_geom_bond_atom_site_label_2
_geom_bond_distance
_geom_bond_site_symmetry_2
_ccdc_geom_bond_type
Sc0 O3 2.025 . S
Sc0 O10 2.105 . S
Sc0 O13 2.105 . S
Sc0 O16 2.105 . S
Sc0 O19 2.105 . S
Sc1 O3 2.025 . S
Sc1 O11 2.105 . S
Sc1 O15 2.105 . S
Sc1 O17 2.105 . S
Sc1 O21 2.105 . S
Sc2 O3 2.025 . S
Sc2 O12 2.105 . S
Sc2 O14 2.105 . S
Sc2 O18 2.105 . S
Sc2 O20 2.105 . S
O3 Sc0 2.025 . S
O3 Sc1 2.025 . S
O3 Sc2 2.025 . S
C4 O10 1.268 . S
C4 O20 1.268 . S
C5 O11 1.268 . S
C5 O19 1.268 . S
C6 O12 1.268 . S
C6 O21 1.268 . S
C7 O13 1.268 . S
C7 O17 1.268 . S
C8 O14 1.268 . S
C8 O16 1.268 . S
C9 O15 1.268 . S
C9 O18 1.268 . S
O10 Sc0 2.105 . S
O10 C4 1.268 . S
O11 Sc1 2.105 . S
O11 C5 1.268 . S
O12 Sc2 2.105 . S
O12 C6 1.268 . S
O13 Sc0 2.105 . S
O13 C7 1.268 . S
O14 Sc2 2.105 . S
O14 C8 1.268 . S
O15 Sc1 2.105 . S
O15 C9 1.268 . S
O16 Sc0 2.105 . S
O16 C8 1.268 . S
O17 Sc1 2.105 . S
O17 C7 1.268 . S
O18 Sc2 2.105 . S
O18 C9 1.268 . S
O19 Sc0 2.105 . S
O19 C5 1.268 . S
O20 Sc2 2.105 . S
O20 C4 1.268 . S
O21 Sc1 2.105 . S
O21 C6 1.268 . S
Sc22 O25 2.025 . S
Sc22 O32 2.105 1_554 S
Sc22 O35 2.105 . S
Sc22 O38 2.105 . S
Sc22 O41 2.105 1_554 S
Sc23 O25 2.025 . S
Sc23 O33 2.105 1_554 S
Sc23 O37 2.105 . S
Sc23 O39 2.105 . S
Sc23 O43 2.105 1_554 S
Sc24 O25 2.025 . S
Sc24 O34 2.105 1_554 S
Sc24 O36 2.105 . S
Sc24 O40 2.105 . S
Sc24 O42 2.105 1_554 S
O25 Sc22 2.025 . S
O25 Sc23 2.025 . S
O25 Sc24 2.025 . S
C26 O32 1.268 . S
C26 O42 1.268 . S
C27 O33 1.268 . S
C27 O41 1.268 . S
C28 O34 1.268 . S
C28 O43 1.268 . S
C29 O35 1.268 . S
C29 O39 1.268 . S
C30 O36 1.268 . S
C30 O38 1.268 . S
C31 O37 1.268 . S
C31 O40 1.268 . S
O32 Sc22 2.105 1_556 S
O32 C26 1.268 . S
O33 Sc23 2.105 1_556 S
O33 C27 1.268 . S
O34 Sc24 2.105 1_556 S
O34 C28 1.268 . S
O35 Sc22 2.105 . S
O35 C29 1.268 . S
O36 Sc24 2.105 . S
O36 C30 1.268 . S
O37 Sc23 2.105 . S
O37 C31 1.268 . S
O38 Sc22 2.105 . S
O38 C30 1.268 . S
O39 Sc23 2.105 . S
O39 C29 1.268 . S
O40 Sc24 2.105 . S
O40 C31 1.268 . S
O41 Sc22 2.105 1_556 S
O41 C27 1.268 . S
O42 Sc24 2.105 1_556 S
O42 C26 1.268 . S
O43 Sc23 2.105 1_556 S
O43 C28 1.268 . S
Zn44 O46 1.933 . S
Zn44 O64 1.985 . S
Zn44 O75 1.958 . S
Zn45 O46 1.911 1_565 S
Zn45 O65 1.970 1_565 S
Zn45 O81 1.945 . S
Zn45 O88 1.981 . S
O46 Zn44 1.933 . S
O46 Zn45 1.911 1_545 S
O46 H47 0.841 1_445 S
H47 O46 0.841 1_665 S
C48 O49 1.246 . S
C48 O77 1.276 . S
O49 C48 1.246 . S
Zn50 O52 1.911 . S
Zn50 O67 1.970 . S
Zn50 O84 1.945 1_655 S
Zn50 O91 1.981 . S
Zn51 O52 1.933 1_545 S
Zn51 O66 1.985 1_545 S
Zn51 O73 1.955 1_655 S
O52 Zn50 1.911 . S
O52 Zn51 1.933 1_565 S
O52 H53 0.841 1_665 S
H53 O52 0.841 1_445 S
Zn54 O55 1.933 . S
Zn54 O68 1.985 . S
Zn54 O77 1.955 . S
O55 Zn54 1.933 . S
O55 Zn56 1.911 . S
O55 H57 0.841 . S
Zn56 O55 1.911 . S
Zn56 O69 1.970 . S
Zn56 O85 1.981 1_545 S
Zn56 O87 1.945 1_545 S
H57 O55 0.841 . S
Zn58 O59 1.933 . S
Zn58 O71 1.985 . S
Zn58 O79 1.955 1_565 S
O59 Zn58 1.933 . S
O59 H60 0.841 . S
O59 Zn61 1.911 . S
H60 O59 0.841 . S
Zn61 O59 1.911 . S
Zn61 O72 1.970 . S
Zn61 O82 1.981 . S
Zn61 O90 1.945 . S
C62 O63 1.246 . S
C62 O79 1.276 . S
O63 C62 1.246 . S
O64 Zn44 1.985 . S
O64 C74 1.245 . S
O65 Zn45 1.970 1_545 S
O65 C74 1.263 . S
O66 Zn51 1.985 1_565 S
O66 C78 1.245 . S
O67 Zn50 1.970 . S
O67 C78 1.263 . S
O68 Zn54 1.985 . S
O68 C83 1.245 . S
O69 Zn56 1.970 . S
O69 C83 1.263 . S
C70 O81 1.262 1_655 S
C70 O82 1.245 . S
O71 Zn58 1.985 . S
O71 C89 1.245 . S
O72 Zn61 1.970 . S
O72 C89 1.263 . S
O73 Zn51 1.955 1_455 S
O73 C92 1.276 . S
C74 O64 1.245 . S
C74 O65 1.263 . S
O75 Zn44 1.958 . S
O75 C94 1.273 1_455 S
C76 O84 1.262 . S
C76 O85 1.245 . S
O77 C48 1.276 . S
O77 Zn54 1.955 . S
C78 O66 1.245 . S
C78 O67 1.263 . S
O79 Zn58 1.955 1_545 S
O79 C62 1.276 . S
C80 O87 1.262 . S
C80 O88 1.245 . S
O81 Zn45 1.945 . S
O81 C70 1.262 1_455 S
O82 Zn61 1.981 . S
O82 C70 1.245 . S
C83 O68 1.245 . S
C83 O69 1.263 . S
O84 Zn50 1.945 1_455 S
O84 C76 1.262 . S
O85 Zn56 1.981 1_565 S
O85 C76 1.245 . S
C86 O90 1.262 . S
C86 O91 1.245 . S
O87 Zn56 1.945 1_565 S
O87 C80 1.262 . S
O88 Zn45 1.981 . S
O88 C80 1.245 . S
C89 O71 1.245 . S
C89 O72 1.263 . S
O90 Zn61 1.945 . S
O90 C86 1.262 . S
O91 Zn50 1.981 . S
O91 C86 1.245 . S
C92 O73 1.276 . S
C92 O93 1.246 . S
O93 C92 1.246 . S
C94 O75 1.273 1_655 S
C94 O95 1.246 . S
O95 C94 1.246 . S
H96 C104 0.950 . S
H97 C109 0.950 . S
H98 C106 0.950 . S
H99 C108 0.950 . S
H100 C110 0.950 . S
H101 C112 0.950 . S
H102 C114 0.950 . S
H103 C115 0.950 . S
C104 H96 0.950 . S
C104 C105 1.386 . S
C104 C106 1.391 . S
C105 C104 1.386 . S
C105 C109 1.393 . S
C106 H98 0.950 . S
C106 C104 1.391 . S
C106 C107 1.400 . S
C107 C106 1.400 . S
C107 C108 1.398 . S
C107 C113 1.491 . S
C108 H99 0.950 . S
C108 C107 1.398 . S
C108 C109 1.391 . S
C109 H97 0.950 . S
C109 C105 1.393 . S
C109 C108 1.391 . S
C110 H100 0.950 . S
C110 C111 1.386 . S
C110 C112 1.391 . S
C111 C110 1.386 . S
C111 C115 1.393 . S
C112 H101 0.950 . S
C112 C110 1.391 . S
C112 C113 1.400 . S
C113 C107 1.491 . S
C113 C112 1.400 . S
C113 C114 1.398 . S
C114 H102 0.950 . S
C114 C113 1.398 . S
C114 C115 1.391 . S
C115 H103 0.950 . S
C115 C111 1.393 . S
C115 C114 1.391 . S
H116 C124 0.950 . S
H117 C129 0.950 . S
H118 C126 0.950 . S
H119 C128 0.950 . S
H120 C130 0.950 . S
H121 C132 0.950 . S
H122 C134 0.950 . S
H123 C135 0.950 . S
C124 H116 0.950 . S
C124 C125 1.386 . S
C124 C126 1.391 . S
C125 C124 1.386 . S
C125 C129 1.393 . S
C126 H118 0.950 . S
C126 C124 1.391 . S
C126 C127 1.400 . S
C127 C126 1.400 . S
C127 C128 1.398 . S
C127 C133 1.491 . S
C128 H119 0.950 . S
C128 C127 1.398 . S
C128 C129 1.391 . S
C129 H117 0.950 . S
C129 C125 1.393 . S
C129 C128 1.391 . S
C130 H120 0.950 . S
C130 C131 1.386 . S
C130 C132 1.391 . S
C131 C130 1.386 . S
C131 C135 1.393 . S
C132 H121 0.950 . S
C132 C130 1.391 . S
C132 C133 1.400 . S
C133 C127 1.491 . S
C133 C132 1.400 . S
C133 C134 1.398 . S
C134 H122 0.950 . S
C134 C133 1.398 . S
C134 C135 1.391 . S
C135 H123 0.950 . S
C135 C131 1.393 . S
C135 C134 1.391 . S
H136 C144 0.950 . S
H137 C149 0.950 . S
H138 C146 0.950 . S
H139 C148 0.950 . S
H140 C150 0.950 . S
H141 C152 0.950 . S
H142 C154 0.950 . S
H143 C155 0.950 . S
C144 H136 0.950 . S
C144 C145 1.386 . S
C144 C146 1.391 . S
C145 C144 1.386 . S
C145 C149 1.393 . S
C146 H138 0.950 . S
C146 C144 1.391 . S
C146 C147 1.400 . S
C147 C146 1.400 . S
C147 C148 1.398 . S
C147 C153 1.491 . S
C148 H139 0.950 . S
C148 C147 1.398 . S
C148 C149 1.391 . S
C149 H137 0.950 . S
C149 C145 1.393 . S
C149 C148 1.391 . S
C150 H140 0.950 . S
C150 C151 1.386 . S
C150 C152 1.391 . S
C151 C150 1.386 . S
C151 C155 1.393 . S
C152 H141 0.950 . S
C152 C150 1.391 . S
C152 C153 1.400 . S
C153 C147 1.491 . S
C153 C152 1.400 . S
C153 C154 1.398 . S
C154 H142 0.950 . S
C154 C153 1.398 . S
C154 C155 1.391 . S
C155 H143 0.950 . S
C155 C151 1.393 . S
C155 C154 1.391 . S
H156 C164 0.950 . S
H157 C169 0.950 . S
H158 C166 0.950 . S
H159 C168 0.950 . S
H160 C170 0.950 . S
H161 C172 0.950 . S
H162 C174 0.950 . S
H163 C175 0.950 . S
C164 H156 0.950 . S
C164 C165 1.386 . S
C164 C166 1.391 . S
C165 C164 1.386 . S
C165 C169 1.393 . S
C166 H158 0.950 . S
C166 C164 1.391 . S
C166 C167 1.400 . S
C167 C166 1.400 . S
C167 C168 1.398 . S
C167 C173 1.491 . S
C168 H159 0.950 . S
C168 C167 1.398 . S
C168 C169 1.391 . S
C169 H157 0.950 . S
C169 C165 1.393 . S
C169 C168 1.391 . S
C170 H160 0.950 . S
C170 C171 1.386 . S
C170 C172 1.391 . S
C171 C170 1.386 . S
C171 C175 1.393 . S
C172 H161 0.950 . S
C172 C170 1.391 . S
C172 C173 1.400 . S
C173 C167 1.491 . S
C173 C172 1.400 . S
C173 C174 1.398 . S
C174 H162 0.950 . S
C174 C173 1.398 . S
C174 C175 1.391 . S
C175 H163 0.950 . S
C175 C171 1.393 . S
C175 C174 1.391 . S
H176 C184 0.950 . S
H177 C189 0.950 . S
H178 C186 0.950 . S
H179 C188 0.950 . S
H180 C190 0.950 . S
H181 C192 0.950 . S
H182 C194 0.950 . S
H183 C195 0.950 . S
C184 H176 0.950 . S
C184 C185 1.386 . S
C184 C186 1.391 . S
C185 C184 1.386 . S
C185 C189 1.393 . S
C186 H178 0.950 . S
C186 C184 1.391 . S
C186 C187 1.400 . S
C187 C186 1.400 . S
C187 C188 1.398 . S
C187 C193 1.491 . S
C188 H179 0.950 . S
C188 C187 1.398 . S
C188 C189 1.391 . S
C189 H177 0.950 . S
C189 C185 1.393 . S
C189 C188 1.391 . S
C190 H180 0.950 . S
C190 C191 1.386 . S
C190 C192 1.391 . S
C191 C190 1.386 . S
C191 C195 1.393 . S
C192 H181 0.950 . S
C192 C190 1.391 . S
C192 C193 1.400 . S
C193 C187 1.491 . S
C193 C192 1.400 . S
C193 C194 1.398 . S
C194 H182 0.950 . S
C194 C193 1.398 . S
C194 C195 1.391 . S
C195 H183 0.950 . S
C195 C191 1.393 . S
C195 C194 1.391 . S
H196 C204 0.950 . S
H197 C209 0.950 . S
H198 C206 0.950 . S
H199 C208 0.950 . S
H200 C210 0.950 . S
H201 C212 0.950 . S
H202 C214 0.950 . S
H203 C215 0.950 . S
C204 H196 0.950 . S
C204 C205 1.386 . S
C204 C206 1.391 . S
C205 C204 1.386 . S
C205 C209 1.393 . S
C206 H198 0.950 . S
C206 C204 1.391 . S
C206 C207 1.400 . S
C207 C206 1.400 . S
C207 C208 1.398 . S
C207 C213 1.491 . S
C208 H199 0.950 . S
C208 C207 1.398 . S
C208 C209 1.391 . S
C209 H197 0.950 . S
C209 C205 1.393 . S
C209 C208 1.391 . S
C210 H200 0.950 . S
C210 C211 1.386 . S
C210 C212 1.391 . S
C211 C210 1.386 . S
C211 C215 1.393 . S
C212 H201 0.950 . S
C212 C210 1.391 . S
C212 C213 1.400 . S
C213 C207 1.491 . S
C213 C212 1.400 . S
C213 C214 1.398 . S
C214 H202 0.950 . S
C214 C213 1.398 . S
C214 C215 1.391 . S
C215 H203 0.950 . S
C215 C211 1.393 . S
C215 C214 1.391 . S
H216 C224 0.950 . S
H217 C229 0.950 . S
H218 C226 0.950 . S
H219 C228 0.950 . S
H220 C230 0.950 . S
H221 C232 0.950 . S
H222 C234 0.950 . S
H223 C235 0.950 . S
C224 H216 0.950 . S
C224 C225 1.386 . S
C224 C226 1.391 . S
C225 C224 1.386 . S
C225 C229 1.393 1_556 S
C226 H218 0.950 . S
C226 C224 1.391 . S
C226 C227 1.400 . S
C227 C226 1.400 . S
C227 C228 1.398 . S
C227 C233 1.491 . S
C228 H219 0.950 . S
C228 C227 1.398 . S
C228 C229 1.391 1_556 S
C229 H217 0.950 . S
C229 C225 1.393 1_554 S
C229 C228 1.391 1_554 S
C230 H220 0.950 . S
C230 C231 1.386 . S
C230 C232 1.391 . S
C231 C230 1.386 . S
C231 C235 1.393 . S
C232 H221 0.950 . S
C232 C230 1.391 . S
C232 C233 1.400 . S
C233 C227 1.491 . S
C233 C232 1.400 . S
C233 C234 1.398 . S
C234 H222 0.950 . S
C234 C233 1.398 . S
C234 C235 1.391 . S
C235 H223 0.950 . S
C235 C231 1.393 . S
C235 C234 1.391 . S
H236 C244 0.950 . S
H237 C249 0.950 . S
H238 C246 0.950 . S
H239 C248 0.950 . S
H240 C250 0.950 . S
H241 C252 0.950 . S
H242 C254 0.950 . S
H243 C255 0.950 . S
C244 H236 0.950 . S
C244 C245 1.386 . S
C244 C246 1.391 . S
C245 C244 1.386 . S
C245 C249 1.393 . S
C246 H238 0.950 . S
C246 C244 1.391 . S
C246 C247 1.400 . S
C247 C246 1.400 . S
C247 C248 1.398 . S
C247 C253 1.491 . S
C248 H239 0.950 . S
C248 C247 1.398 . S
C248 C249 1.391 . S
C249 H237 0.950 . S
C249 C245 1.393 . S
C249 C248 1.391 . S
C250 H240 0.950 . S
C250 C251 1.386 . S
C250 C252 1.391 . S
C251 C250 1.386 . S
C251 C255 1.393 . S
C252 H241 0.950 . S
C252 C250 1.391 . S
C252 C253 1.400 . S
C253 C247 1.491 . S
C253 C252 1.400 . S
C253 C254 1.398 . S
C254 H242 0.950 . S
C254 C253 1.398 . S
C254 C255 1.391 . S
C255 H243 0.950 . S
C255 C251 1.393 . S
C255 C254 1.391 . S
H256 C264 0.950 . S
H257 C269 0.950 . S
H258 C266 0.950 . S
H259 C268 0.950 . S
H260 C270 0.950 . S
H261 C272 0.950 . S
H262 C274 0.950 . S
H263 C275 0.950 . S
C264 H256 0.950 . S
C264 C265 1.386 . S
C264 C266 1.391 . S
C265 C264 1.386 . S
C265 C269 1.393 . S
C266 H258 0.950 . S
C266 C264 1.391 . S
C266 C267 1.400 . S
C267 C266 1.400 . S
C267 C268 1.398 . S
C267 C273 1.491 . S
C268 H259 0.950 . S
C268 C267 1.398 . S
C268 C269 1.391 . S
C269 H257 0.950 . S
C269 C265 1.393 . S
C269 C268 1.391 . S
C270 H260 0.950 . S
C270 C271 1.386 . S
C270 C272 1.391 . S
C271 C270 1.386 . S
C271 C275 1.393 . S
C272 H261 0.950 . S
C272 C270 1.391 . S
C272 C273 1.400 . S
C273 C267 1.491 . S
C273 C272 1.400 . S
C273 C274 1.398 . S
C274 H262 0.950 . S
C274 C273 1.398 . S
C274 C275 1.391 . S
C275 H263 0.950 . S
C275 C271 1.393 . S
C275 C274 1.391 . S
H276 C284 0.950 . S
H277 C289 0.950 . S
H278 C286 0.950 . S
H279 C288 0.950 . S
H280 C290 0.950 . S
H281 C292 0.950 . S
H282 C294 0.950 . S
H283 C295 0.950 . S
C284 H276 0.950 . S
C284 C285 1.386 . S
C284 C286 1.391 . S
C285 C284 1.386 . S
C285 C289 1.393 . S
C286 H278 0.950 . S
C286 C284 1.391 . S
C286 C287 1.400 . S
C287 C286 1.400 . S
C287 C288 1.398 . S
C287 C293 1.491 . S
C288 H279 0.950 . S
C288 C287 1.398 . S
C288 C289 1.391 . S
C289 H277 0.950 . S
C289 C285 1.393 . S
C289 C288 1.391 . S
C290 H280 0.950 . S
C290 C291 1.386 . S
C290 C292 1.391 . S
C291 C290 1.386 . S
C291 C295 1.393 . S
C292 H281 0.950 . S
C292 C290 1.391 . S
C292 C293 1.400 . S
C293 C287 1.491 . S
C293 C292 1.400 . S
C293 C294 1.398 . S
C294 H282 0.950 . S
C294 C293 1.398 . S
C294 C295 1.391 . S
C295 H283 0.950 . S
C295 C291 1.393 . S
C295 C294 1.391 . S
H296 C304 0.950 . S
H297 C309 0.950 . S
H298 C306 0.950 . S
H299 C308 0.950 . S
H300 C310 0.950 . S
H301 C312 0.950 . S
H302 C314 0.950 1_554 S
H303 C315 0.950 . S
C304 H296 0.950 . S
C304 C305 1.386 . S
C304 C306 1.391 . S
C305 C304 1.386 . S
C305 C309 1.393 1_554 S
C306 H298 0.950 . S
C306 C304 1.391 . S
C306 C307 1.400 1_554 S
C307 C306 1.400 1_556 S
C307 C308 1.398 . S
C307 C313 1.491 . S
C308 H299 0.950 . S
C308 C307 1.398 . S
C308 C309 1.391 . S
C309 H297 0.950 . S
C309 C305 1.393 1_556 S
C309 C308 1.391 . S
C310 H300 0.950 . S
C310 C311 1.386 . S
C310 C312 1.391 . S
C311 C310 1.386 . S
C311 C315 1.393 . S
C312 H301 0.950 . S
C312 C310 1.391 . S
C312 C313 1.400 . S
C313 C307 1.491 . S
C313 C312 1.400 . S
C313 C314 1.398 . S
C314 H302 0.950 1_556 S
C314 C313 1.398 . S
C314 C315 1.391 . S
C315 H303 0.950 . S
C315 C311 1.393 . S
C315 C314 1.391 . S
H316 C324 0.950 . S
H317 C329 0.950 . S
H318 C326 0.950 . S
H319 C328 0.950 . S
H320 C330 0.950 . S
H321 C332 0.950 . S
H322 C334 0.950 . S
H323 C335 0.950 . S
C324 H316 0.950 . S
C324 C325 1.386 . S
C324 C326 1.391 . S
C325 C324 1.386 . S
C325 C329 1.393 . S
C326 H318 0.950 . S
C326 C324 1.391 . S
C326 C327 1.400 . S
C327 C326 1.400 . S
C327 C328 1.398 . S
C327 C333 1.491 . S
C328 H319 0.950 . S
C328 C327 1.398 . S
C328 C329 1.391 . S
C329 H317 0.950 . S
C329 C325 1.393 . S
C329 C328 1.391 . S
C330 H320 0.950 . S
C330 C331 1.386 . S
C330 C332 1.391 . S
C331 C330 1.386 . S
C331 C335 1.393 . S
C332 H321 0.950 . S
C332 C330 1.391 . S
C332 C333 1.400 . S
C333 C327 1.491 . S
C333 C332 1.400 . S
C333 C334 1.398 . S
C334 H322 0.950 . S
C334 C333 1.398 . S
C334 C335 1.391 . S
C335 H323 0.950 . S
C335 C331 1.393 . S
C335 C334 1.391 . S
C105 C7 1.418 . S
C111 C80 1.453 . S
C131 C74 1.696 . S
C125 C30 1.646 . S
C151 C48 1.476 . S
C145 C9 1.473 . S
C171 C94 1.925 . S
C165 C29 1.970 . S
C191 C89 0.274 . S
C185 C8 0.389 . S
C205 C31 1.892 . S
C211 C70 1.848 . S
C225 C5 1.885 1_556 S
C231 C76 1.858 . S
C245 C26 0.392 . S
C251 C83 0.276 . S
C265 C6 1.983 1_556 S
C271 C92 1.903 . S
C285 C27 1.464 . S
C291 C62 1.473 . S
C311 C78 1.696 . S
C305 C4 1.648 . S
C325 C28 1.415 . S
C331 C86 1.447 . S
