# Generated by pormake.
# Topology gar, (4,6)-cn, num edge types: 1
# Building blocks:
#     Node 0, Type 0, BuildingBlock: TATPOV_clean_sbu_0, # of connection points: 4
#     Node 1, Type 0, BuildingBlock: TATPOV_clean_sbu_0, # of connection points: 4
#     Node 2, Type 0, BuildingBlock: TATPOV_clean_sbu_0, # of connection points: 4
#     Node 3, Type 0, BuildingBlock: TATPOV_clean_sbu_0, # of connection points: 4
#     Node 4, Type 0, BuildingBlock: TATPOV_clean_sbu_0, # of connection points: 4
#     Node 5, Type 0, BuildingBlock: TATPOV_clean_sbu_0, # of connection points: 4
#     Node 6, Type 0, BuildingBlock: TATPOV_clean_sbu_0, # of connection points: 4
#     Node 7, Type 0, BuildingBlock: TATPOV_clean_sbu_0, # of connection points: 4
#     Node 8, Type 0, BuildingBlock: TATPOV_clean_sbu_0, # of connection points: 4
#     Node 9, Type 0, BuildingBlock: TATPOV_clean_sbu_0, # of connection points: 4
#     Node 10, Type 0, BuildingBlock: TATPOV_clean_sbu_0, # of connection points: 4
#     Node 11, Type 0, BuildingBlock: TATPOV_clean_sbu_0, # of connection points: 4
#     Node 12, Type 0, BuildingBlock: TATPOV_clean_sbu_0, # of connection points: 4
#     Node 13, Type 0, BuildingBlock: TATPOV_clean_sbu_0, # of connection points: 4
#     Node 14, Type 0, BuildingBlock: TATPOV_clean_sbu_0, # of connection points: 4
#     Node 15, Type 0, BuildingBlock: TATPOV_clean_sbu_0, # of connection points: 4
#     Node 16, Type 0, BuildingBlock: TATPOV_clean_sbu_0, # of connection points: 4
#     Node 17, Type 0, BuildingBlock: TATPOV_clean_sbu_0, # of connection points: 4
#     Node 18, Type 0, BuildingBlock: TATPOV_clean_sbu_0, # of connection points: 4
#     Node 19, Type 0, BuildingBlock: TATPOV_clean_sbu_0, # of connection points: 4
#     Node 20, Type 0, BuildingBlock: TATPOV_clean_sbu_0, # of connection points: 4
#     Node 21, Type 0, BuildingBlock: TATPOV_clean_sbu_0, # of connection points: 4
#     Node 22, Type 0, BuildingBlock: TATPOV_clean_sbu_0, # of connection points: 4
#     Node 23, Type 0, BuildingBlock: TATPOV_clean_sbu_0, # of connection points: 4
#     Node 24, Type 1, BuildingBlock: NUHQIS_clean_sbu_0, # of connection points: 6
#     Node 25, Type 1, BuildingBlock: NUHQIS_clean_sbu_0, # of connection points: 6
#     Node 26, Type 1, BuildingBlock: NUHQIS_clean_sbu_0, # of connection points: 6
#     Node 27, Type 1, BuildingBlock: NUHQIS_clean_sbu_0, # of connection points: 6
#     Node 28, Type 1, BuildingBlock: NUHQIS_clean_sbu_0, # of connection points: 6
#     Node 29, Type 1, BuildingBlock: NUHQIS_clean_sbu_0, # of connection points: 6
#     Node 30, Type 1, BuildingBlock: NUHQIS_clean_sbu_0, # of connection points: 6
#     Node 31, Type 1, BuildingBlock: NUHQIS_clean_sbu_0, # of connection points: 6
#     Node 32, Type 1, BuildingBlock: NUHQIS_clean_sbu_0, # of connection points: 6
#     Node 33, Type 1, BuildingBlock: NUHQIS_clean_sbu_0, # of connection points: 6
#     Node 34, Type 1, BuildingBlock: NUHQIS_clean_sbu_0, # of connection points: 6
#     Node 35, Type 1, BuildingBlock: NUHQIS_clean_sbu_0, # of connection points: 6
#     Node 36, Type 1, BuildingBlock: NUHQIS_clean_sbu_0, # of connection points: 6
#     Node 37, Type 1, BuildingBlock: NUHQIS_clean_sbu_0, # of connection points: 6
#     Node 38, Type 1, BuildingBlock: NUHQIS_clean_sbu_0, # of connection points: 6
#     Node 39, Type 1, BuildingBlock: NUHQIS_clean_sbu_0, # of connection points: 6
#     Edge 40, Type (0, 1), BuildingBlock: EZIPEK_clean_linker_0, # of connection points: 2
#     Edge 41, Type (0, 1), BuildingBlock: EZIPEK_clean_linker_0, # of connection points: 2
#     Edge 42, Type (0, 1), BuildingBlock: EZIPEK_clean_linker_0, # of connection points: 2
#     Edge 43, Type (0, 1), BuildingBlock: EZIPEK_clean_linker_0, # of connection points: 2
#     Edge 44, Type (0, 1), BuildingBlock: EZIPEK_clean_linker_0, # of connection points: 2
#     Edge 45, Type (0, 1), BuildingBlock: EZIPEK_clean_linker_0, # of connection points: 2
#     Edge 46, Type (0, 1), BuildingBlock: EZIPEK_clean_linker_0, # of connection points: 2
#     Edge 47, Type (0, 1), BuildingBlock: EZIPEK_clean_linker_0, # of connection points: 2
#     Edge 48, Type (0, 1), BuildingBlock: EZIPEK_clean_linker_0, # of connection points: 2
#     Edge 49, Type (0, 1), BuildingBlock: EZIPEK_clean_linker_0, # of connection points: 2
#     Edge 50, Type (0, 1), BuildingBlock: EZIPEK_clean_linker_0, # of connection points: 2
#     Edge 51, Type (0, 1), BuildingBlock: EZIPEK_clean_linker_0, # of connection points: 2
#     Edge 52, Type (0, 1), BuildingBlock: EZIPEK_clean_linker_0, # of connection points: 2
#     Edge 53, Type (0, 1), BuildingBlock: EZIPEK_clean_linker_0, # of connection points: 2
#     Edge 54, Type (0, 1), BuildingBlock: EZIPEK_clean_linker_0, # of connection points: 2
#     Edge 55, Type (0, 1), BuildingBlock: EZIPEK_clean_linker_0, # of connection points: 2
#     Edge 56, Type (0, 1), BuildingBlock: EZIPEK_clean_linker_0, # of connection points: 2
#     Edge 57, Type (0, 1), BuildingBlock: EZIPEK_clean_linker_0, # of connection points: 2
#     Edge 58, Type (0, 1), BuildingBlock: EZIPEK_clean_linker_0, # of connection points: 2
#     Edge 59, Type (0, 1), BuildingBlock: EZIPEK_clean_linker_0, # of connection points: 2
#     Edge 60, Type (0, 1), BuildingBlock: EZIPEK_clean_linker_0, # of connection points: 2
#     Edge 61, Type (0, 1), BuildingBlock: EZIPEK_clean_linker_0, # of connection points: 2
#     Edge 62, Type (0, 1), BuildingBlock: EZIPEK_clean_linker_0, # of connection points: 2
#     Edge 63, Type (0, 1), BuildingBlock: EZIPEK_clean_linker_0, # of connection points: 2
#     Edge 64, Type (0, 1), BuildingBlock: EZIPEK_clean_linker_0, # of connection points: 2
#     Edge 65, Type (0, 1), BuildingBlock: EZIPEK_clean_linker_0, # of connection points: 2
#     Edge 66, Type (0, 1), BuildingBlock: EZIPEK_clean_linker_0, # of connection points: 2
#     Edge 67, Type (0, 1), BuildingBlock: EZIPEK_clean_linker_0, # of connection points: 2
#     Edge 68, Type (0, 1), BuildingBlock: EZIPEK_clean_linker_0, # of connection points: 2
#     Edge 69, Type (0, 1), BuildingBlock: EZIPEK_clean_linker_0, # of connection points: 2
#     Edge 70, Type (0, 1), BuildingBlock: EZIPEK_clean_linker_0, # of connection points: 2
#     Edge 71, Type (0, 1), BuildingBlock: EZIPEK_clean_linker_0, # of connection points: 2
#     Edge 72, Type (0, 1), BuildingBlock: EZIPEK_clean_linker_0, # of connection points: 2
#     Edge 73, Type (0, 1), BuildingBlock: EZIPEK_clean_linker_0, # of connection points: 2
#     Edge 74, Type (0, 1), BuildingBlock: EZIPEK_clean_linker_0, # of connection points: 2
#     Edge 75, Type (0, 1), BuildingBlock: EZIPEK_clean_linker_0, # of connection points: 2
#     Edge 76, Type (0, 1), BuildingBlock: EZIPEK_clean_linker_0, # of connection points: 2
#     Edge 77, Type (0, 1), BuildingBlock: EZIPEK_clean_linker_0, # of connection points: 2
#     Edge 78, Type (0, 1), BuildingBlock: EZIPEK_clean_linker_0, # of connection points: 2
#     Edge 79, Type (0, 1), BuildingBlock: EZIPEK_clean_linker_0, # of connection points: 2
#     Edge 80, Type (0, 1), BuildingBlock: EZIPEK_clean_linker_0, # of connection points: 2
#     Edge 81, Type (0, 1), BuildingBlock: EZIPEK_clean_linker_0, # of connection points: 2
#     Edge 82, Type (0, 1), BuildingBlock: EZIPEK_clean_linker_0, # of connection points: 2
#     Edge 83, Type (0, 1), BuildingBlock: EZIPEK_clean_linker_0, # of connection points: 2
#     Edge 84, Type (0, 1), BuildingBlock: EZIPEK_clean_linker_0, # of connection points: 2
#     Edge 85, Type (0, 1), BuildingBlock: EZIPEK_clean_linker_0, # of connection points: 2
#     Edge 86, Type (0, 1), BuildingBlock: EZIPEK_clean_linker_0, # of connection points: 2
#     Edge 87, Type (0, 1), BuildingBlock: EZIPEK_clean_linker_0, # of connection points: 2
#     Edge 88, Type (0, 1), BuildingBlock: EZIPEK_clean_linker_0, # of connection points: 2
#     Edge 89, Type (0, 1), BuildingBlock: EZIPEK_clean_linker_0, # of connection points: 2
#     Edge 90, Type (0, 1), BuildingBlock: EZIPEK_clean_linker_0, # of connection points: 2
#     Edge 91, Type (0, 1), BuildingBlock: EZIPEK_clean_linker_0, # of connection points: 2
#     Edge 92, Type (0, 1), BuildingBlock: EZIPEK_clean_linker_0, # of connection points: 2
#     Edge 93, Type (0, 1), BuildingBlock: EZIPEK_clean_linker_0, # of connection points: 2
#     Edge 94, Type (0, 1), BuildingBlock: EZIPEK_clean_linker_0, # of connection points: 2
#     Edge 95, Type (0, 1), BuildingBlock: EZIPEK_clean_linker_0, # of connection points: 2
#     Edge 96, Type (0, 1), BuildingBlock: EZIPEK_clean_linker_0, # of connection points: 2
#     Edge 97, Type (0, 1), BuildingBlock: EZIPEK_clean_linker_0, # of connection points: 2
#     Edge 98, Type (0, 1), BuildingBlock: EZIPEK_clean_linker_0, # of connection points: 2
#     Edge 99, Type (0, 1), BuildingBlock: EZIPEK_clean_linker_0, # of connection points: 2
#     Edge 100, Type (0, 1), BuildingBlock: EZIPEK_clean_linker_0, # of connection points: 2
#     Edge 101, Type (0, 1), BuildingBlock: EZIPEK_clean_linker_0, # of connection points: 2
#     Edge 102, Type (0, 1), BuildingBlock: EZIPEK_clean_linker_0, # of connection points: 2
#     Edge 103, Type (0, 1), BuildingBlock: EZIPEK_clean_linker_0, # of connection points: 2
#     Edge 104, Type (0, 1), BuildingBlock: EZIPEK_clean_linker_0, # of connection points: 2
#     Edge 105, Type (0, 1), BuildingBlock: EZIPEK_clean_linker_0, # of connection points: 2
#     Edge 106, Type (0, 1), BuildingBlock: EZIPEK_clean_linker_0, # of connection points: 2
#     Edge 107, Type (0, 1), BuildingBlock: EZIPEK_clean_linker_0, # of connection points: 2
#     Edge 108, Type (0, 1), BuildingBlock: EZIPEK_clean_linker_0, # of connection points: 2
#     Edge 109, Type (0, 1), BuildingBlock: EZIPEK_clean_linker_0, # of connection points: 2
#     Edge 110, Type (0, 1), BuildingBlock: EZIPEK_clean_linker_0, # of connection points: 2
#     Edge 111, Type (0, 1), BuildingBlock: EZIPEK_clean_linker_0, # of connection points: 2
#     Edge 112, Type (0, 1), BuildingBlock: EZIPEK_clean_linker_0, # of connection points: 2
#     Edge 113, Type (0, 1), BuildingBlock: EZIPEK_clean_linker_0, # of connection points: 2
#     Edge 114, Type (0, 1), BuildingBlock: EZIPEK_clean_linker_0, # of connection points: 2
#     Edge 115, Type (0, 1), BuildingBlock: EZIPEK_clean_linker_0, # of connection points: 2
#     Edge 116, Type (0, 1), BuildingBlock: EZIPEK_clean_linker_0, # of connection points: 2
#     Edge 117, Type (0, 1), BuildingBlock: EZIPEK_clean_linker_0, # of connection points: 2
#     Edge 118, Type (0, 1), BuildingBlock: EZIPEK_clean_linker_0, # of connection points: 2
#     Edge 119, Type (0, 1), BuildingBlock: EZIPEK_clean_linker_0, # of connection points: 2
#     Edge 120, Type (0, 1), BuildingBlock: EZIPEK_clean_linker_0, # of connection points: 2
#     Edge 121, Type (0, 1), BuildingBlock: EZIPEK_clean_linker_0, # of connection points: 2
#     Edge 122, Type (0, 1), BuildingBlock: EZIPEK_clean_linker_0, # of connection points: 2
#     Edge 123, Type (0, 1), BuildingBlock: EZIPEK_clean_linker_0, # of connection points: 2
#     Edge 124, Type (0, 1), BuildingBlock: EZIPEK_clean_linker_0, # of connection points: 2
#     Edge 125, Type (0, 1), BuildingBlock: EZIPEK_clean_linker_0, # of connection points: 2
#     Edge 126, Type (0, 1), BuildingBlock: EZIPEK_clean_linker_0, # of connection points: 2
#     Edge 127, Type (0, 1), BuildingBlock: EZIPEK_clean_linker_0, # of connection points: 2
#     Edge 128, Type (0, 1), BuildingBlock: EZIPEK_clean_linker_0, # of connection points: 2
#     Edge 129, Type (0, 1), BuildingBlock: EZIPEK_clean_linker_0, # of connection points: 2
#     Edge 130, Type (0, 1), BuildingBlock: EZIPEK_clean_linker_0, # of connection points: 2
#     Edge 131, Type (0, 1), BuildingBlock: EZIPEK_clean_linker_0, # of connection points: 2
#     Edge 132, Type (0, 1), BuildingBlock: EZIPEK_clean_linker_0, # of connection points: 2
#     Edge 133, Type (0, 1), BuildingBlock: EZIPEK_clean_linker_0, # of connection points: 2
#     Edge 134, Type (0, 1), BuildingBlock: EZIPEK_clean_linker_0, # of connection points: 2
#     Edge 135, Type (0, 1), BuildingBlock: EZIPEK_clean_linker_0, # of connection points: 2
# Relax obj value: 0.313
# Max RMSD: 0.384
# Mean RMSD: 0.171
data_MOF--net-gar--node1-TATPOV_clean_sbu_0--node2-NUHQIS_clean_sbu_0--edge1-EZIPEK_clean_linker_0
_symmetry_space_group_name_H-M    P1
_symmetry_Int_Tables_number       1
_symmetry_cell_setting            triclinic
loop_
_symmetry_equiv_pos_as_xyz
'x, y, z'
_cell_length_a     42.594547
_cell_length_b     44.617537
_cell_length_c     42.221248
_cell_angle_alpha  93.11807
_cell_angle_beta   98.30847
_cell_angle_gamma 102.52046
loop_
_atom_site_label
_atom_site_type_symbol
_atom_site_fract_x
_atom_site_fract_y
_atom_site_fract_z
_atom_type_partial_charge
Zn0 Zn 0.06596 0.31909 0.46228 0.0
Zn1 Zn 0.11093 0.32564 0.42373 0.0
O2 O 0.11542 0.37334 0.45099 0.0
O3 O 0.07997 0.36418 0.48439 0.0
O4 O 0.1539 0.32592 0.39699 0.0
O5 O 0.07346 0.27831 0.4821 0.0
O6 O 0.10825 0.28022 0.44827 0.0
C7 C 0.10064 0.38385 0.47279 0.0
C8 C 1.03649 0.31792 0.39405 0.0
O9 O 0.06628 0.32153 0.38904 0.0
O10 O 1.03043 0.31537 0.42248 0.0
C11 C 0.16654 0.34073 0.37439 0.0
O12 O 0.15286 0.3623 0.36261 0.0
C13 C 0.09301 0.26538 0.46943 0.0
Zn14 Zn 0.0791 0.78588 0.70269 0.0
Zn15 Zn 0.08365 0.83219 0.66296 0.0
O16 O 1.03971 0.83183 0.6892 0.0
O17 O 1.03901 0.79428 0.72093 0.0
O18 O 0.09034 0.87716 0.6361 0.0
O19 O 0.12512 0.80257 0.72773 0.0
O20 O 0.13113 0.83948 0.6949 0.0
C21 C 1.02628 0.8159 0.71077 0.0
C22 C 0.07943 0.75743 0.63881 0.0
O23 O 0.08203 0.78628 0.63228 0.0
O24 O 0.07583 0.75106 0.66719 0.0
C25 C 0.07341 0.89843 0.63278 0.0
O26 O 0.04586 0.89347 0.64429 0.0
C27 C 0.14321 0.82569 0.7183 0.0
Zn28 Zn 0.56779 0.81844 0.96337 0.0
Zn29 Zn 0.61003 0.82351 0.92153 0.0
O30 O 0.61729 0.87154 0.94879 0.0
O31 O 0.584 0.86393 0.98445 0.0
O32 O 0.64894 0.82224 0.88973 0.0
O33 O 0.57625 0.77759 0.98253 0.0
O34 O 0.60839 0.77833 0.94622 0.0
C35 C 0.60434 0.88281 0.97167 0.0
C36 C 0.53417 0.81704 0.89681 0.0
O37 O 0.56329 0.82006 0.88997 0.0
O38 O 0.52988 0.81466 0.92579 0.0
C39 C 0.67593 0.84054 0.88511 0.0
O40 O 0.68453 0.86785 0.90118 0.0
C41 C 0.59446 0.76404 0.96847 0.0
Zn42 Zn 0.57738 0.28365 0.2017 0.0
Zn43 Zn 0.58121 0.32797 0.16003 0.0
O44 O 0.53773 0.32836 0.18721 0.0
O45 O 0.53795 0.29244 0.22085 0.0
O46 O 0.58844 0.3736 0.13359 0.0
O47 O 0.62441 0.29957 0.22474 0.0
O48 O 0.62983 0.33437 0.18964 0.0
C49 C 0.52475 0.31337 0.20963 0.0
C50 C 0.57541 0.25236 0.13852 0.0
O51 O 0.57816 0.28083 0.13049 0.0
O52 O 0.57237 0.24755 0.16739 0.0
C53 C 0.57068 0.39395 0.12762 0.0
O54 O 0.54115 0.38731 0.13494 0.0
C55 C 0.64255 0.32128 0.21324 0.0
Zn56 Zn 0.22946 0.9177 0.18317 0.0
Zn57 Zn 0.17788 0.90017 0.21582 0.0
O58 O 0.15998 0.92494 0.18242 0.0
O59 O 0.19956 0.93847 0.15401 0.0
O60 O 0.14079 0.88548 0.23936 0.0
O61 O 0.2286 0.87176 0.17443 0.0
O62 O 0.18415 0.86048 0.19638 0.0
C63 C 0.17088 0.93822 0.15911 0.0
C64 C 0.2444 0.93716 0.25117 0.0
O65 O 0.21529 0.92206 0.25062 0.0
O66 O 0.25579 0.94002 0.22507 0.0
C67 C 0.1352 0.90043 0.26355 0.0
O68 O 0.15387 0.92761 0.27413 0.0
C69 C 0.20516 0.85196 0.18172 0.0
Zn70 Zn 0.49427 0.74652 0.41734 0.0
Zn71 Zn 0.53262 0.74797 0.37076 0.0
O72 O 0.54112 0.79182 0.39092 0.0
O73 O 0.50802 0.79272 0.42638 0.0
O74 O 0.56099 0.75474 0.33701 0.0
O75 O 0.52294 0.72077 0.43931 0.0
O76 O 0.55071 0.71849 0.39934 0.0
C77 C 0.52976 0.80654 0.41143 0.0
C78 C 0.45862 0.72553 0.35342 0.0
O79 O 0.48694 0.73264 0.34583 0.0
O80 O 0.45534 0.72838 0.38273 0.0
C81 C 0.55391 0.7724 0.31585 0.0
O82 O 0.52695 0.7823 0.315 0.0
C83 C 0.54489 0.71137 0.42699 0.0
Zn84 Zn 0.73023 0.41992 0.67109 0.0
Zn85 Zn 0.68202 0.41554 0.70834 0.0
O86 O 0.6729 0.44775 0.67897 0.0
O87 O 0.70936 0.4499 0.64633 0.0
O88 O 0.6468 0.41015 0.73498 0.0
O89 O 0.71514 0.37359 0.65948 0.0
O90 O 0.67488 0.37262 0.68719 0.0
C91 C 0.6853 0.45845 0.6552 0.0
C92 C 0.75316 0.4343 0.73942 0.0
O93 O 0.72299 0.42679 0.74118 0.0
O94 O 0.76228 0.43473 0.71211 0.0
C95 C 0.64351 0.43004 0.75612 0.0
O96 O 0.66413 0.45699 0.76166 0.0
C97 C 0.69015 0.3589 0.66962 0.0
Zn98 Zn 0.99627 0.22256 0.93285 0.0
Zn99 Zn 1.03507 0.23361 0.88844 0.0
O100 O 1.04076 0.27676 0.90871 0.0
O101 O 1.00282 0.2698 0.93973 0.0
O102 O 0.061 0.24132 0.85282 0.0
O103 O 1.0282 0.20114 0.95605 0.0
O104 O 0.05801 0.20715 0.91736 0.0
C105 C 1.0243 0.28765 0.92737 0.0
C106 C 0.96056 0.20576 0.87253 0.0
O107 O 0.98811 0.21914 0.86604 0.0
O108 O 0.95837 0.19803 0.90057 0.0
C109 C 0.05094 0.25565 0.82969 0.0
O110 O 1.02262 0.26309 0.82823 0.0
C111 C 0.05258 0.19684 0.944 0.0
Zn112 Zn 0.64024 0.13737 0.38174 0.0
Zn113 Zn 0.56329 0.17231 0.35882 0.0
O114 O 0.5833 0.19782 0.40233 0.0
O115 O 0.61743 0.17307 0.38886 0.0
O116 O 0.51733 0.17541 0.34481 0.0
O117 O 0.6197 0.16764 0.35553 0.0
O118 O 0.58778 0.18535 0.32134 0.0
C119 C 0.60946 0.18917 0.41081 0.0
C120 C 0.5722 0.09995 0.36894 0.0
O121 O 0.56295 0.12511 0.36369 0.0
O122 O 0.60224 0.09921 0.37687 0.0
C123 C 0.49278 0.15334 0.34476 0.0
O124 O 0.49659 0.12766 0.35696 0.0
C125 C 0.61205 0.17329 0.32665 0.0
Zn126 Zn 0.3279 0.24126 0.53816 0.0
Zn127 Zn 0.36939 0.20401 0.54272 0.0
O128 O 0.37303 0.22915 0.49685 0.0
O129 O 0.33961 0.26047 0.49703 0.0
O130 O 0.40782 0.17516 0.54676 0.0
O131 O 0.34257 0.26314 0.58359 0.0
O132 O 0.37499 0.23089 0.59102 0.0
C133 C 0.3597 0.24978 0.48291 0.0
C134 C 0.29191 0.1776 0.53665 0.0
O135 O 0.32088 0.17229 0.53928 0.0
O136 O 0.28863 0.20501 0.53441 0.0
C137 C 0.43568 0.17845 0.53639 0.0
O138 O 0.4446 0.20235 0.52024 0.0
C139 C 0.36219 0.25222 0.60263 0.0
Zn140 Zn 0.1967 0.15486 0.91545 0.0
Zn141 Zn 0.21597 0.11862 0.87023 0.0
O142 O 0.21134 0.09178 0.90708 0.0
O143 O 0.19722 0.12038 0.94437 0.0
O144 O 0.23242 0.09193 0.83971 0.0
O145 O 0.15539 0.15296 0.88408 0.0
O146 O 0.17255 0.12471 0.84835 0.0
C147 C 0.20316 0.0952 0.9345 0.0
C148 C 0.25601 0.184 0.89264 0.0
O149 O 0.25064 0.15837 0.87584 0.0
O150 O 0.23669 0.18804 0.91178 0.0
C151 C 0.25995 0.08703 0.85117 0.0
O152 O 0.27484 0.10058 0.8794 0.0
C153 C 0.15136 0.13849 0.85662 0.0
Zn154 Zn 0.39702 0.87459 0.07137 0.0
Zn155 Zn 0.35938 0.91553 0.06926 0.0
O156 O 0.34495 0.89495 0.02277 0.0
O157 O 0.37576 0.86098 0.02443 0.0
O158 O 0.33122 0.94565 0.07606 0.0
O159 O 0.38091 0.85577 0.11016 0.0
O160 O 0.35031 0.88957 0.10756 0.0
C161 C 0.35511 0.87364 1.00882 0.0
C162 C 0.43383 0.93735 0.07794 0.0
O163 O 0.40554 0.94292 0.07337 0.0
O164 O 0.437 0.9099 0.08 0.0
C165 C 0.3408 0.97479 0.07711 0.0
O166 O 0.36955 0.98701 0.06992 0.0
C167 C 0.36046 0.86811 0.12167 0.0
Zn168 Zn 0.36075 0.41528 0.04996 0.0
Zn169 Zn 0.31932 0.45067 0.04603 0.0
O170 O 0.31185 0.42396 0.99755 0.0
O171 O 0.34708 0.39443 1.00449 0.0
O172 O 0.27977 0.47716 0.04734 0.0
O173 O 0.35088 0.39426 0.09037 0.0
O174 O 0.31806 0.42589 0.09203 0.0
C175 C 0.3261 0.40395 0.98566 0.0
C176 C 0.39603 0.47846 0.05007 0.0
O177 O 0.3669 0.4834 0.04723 0.0
O178 O 0.3997 0.45134 0.05351 0.0
C179 C 0.25328 0.47716 0.02767 0.0
O180 O 0.24731 0.45953 1.00056 0.0
C181 C 0.33142 0.40505 0.10528 0.0
Zn182 Zn 0.79403 0.26701 0.0306 0.0
Zn183 Zn 0.83681 0.23002 0.0328 0.0
O184 O 0.843 0.25334 0.99229 0.0
O185 O 0.81037 0.28558 0.9913 0.0
O186 O 0.86774 0.20146 0.03272 0.0
O187 O 0.81332 0.28306 0.07711 0.0
O188 O 0.84928 0.25417 0.07811 0.0
C189 C 0.83095 0.27414 0.97883 0.0
C190 C 0.76344 0.20229 0.02391 0.0
O191 O 0.79276 0.1993 0.02776 0.0
O192 O 0.75713 0.22874 0.02355 0.0
C193 C 0.86632 0.18421 1.0073 0.0
O194 O 0.8457 0.18602 0.98154 0.0
C195 C 0.83653 0.27339 0.09235 0.0
Zn196 Zn 0.05248 0.50504 0.24517 0.0
Zn197 Zn 0.10632 0.48186 0.25431 0.0
O198 O 0.07887 0.46068 0.28657 0.0
O199 O 1.03468 0.47884 0.27854 0.0
O200 O 0.14854 0.46785 0.26331 0.0
O201 O 1.04357 0.48696 0.19948 0.0
O202 O 0.08804 0.46913 0.20637 0.0
C203 C 0.05072 0.4614 0.29296 0.0
C204 C 0.11105 0.55197 0.26312 0.0
O205 O 0.1235 0.52851 0.2635 0.0
O206 O 0.08046 0.54868 0.25645 0.0
C207 C 0.16617 0.47731 0.29049 0.0
O208 O 0.15567 0.494 0.31145 0.0
C209 C 0.06257 0.47249 0.1882 0.0
Zn210 Zn 0.85983 0.91424 0.55018 0.0
Zn211 Zn 0.81824 0.94995 0.54716 0.0
O212 O 0.81119 0.92339 0.49827 0.0
O213 O 0.84531 0.89266 0.50509 0.0
O214 O 0.77859 0.97654 0.54942 0.0
O215 O 0.85061 0.89336 0.59074 0.0
O216 O 0.81725 0.92445 0.59277 0.0
C217 C 0.82473 0.90274 0.48637 0.0
C218 C 0.89473 0.97812 0.55123 0.0
O219 O 0.86563 0.983 0.54913 0.0
O220 O 0.89843 0.95083 0.55335 0.0
C221 C 0.75499 0.98164 0.52868 0.0
O222 O 0.75218 0.9701 0.49885 0.0
C223 C 0.83096 0.90369 0.60576 0.0
Zn224 Zn 1.01305 1.01812 0.21014 0.0
Zn225 Zn 0.98559 0.05797 0.23877 0.0
O226 O 1.03348 0.07143 0.25863 0.0
O227 O 0.05706 0.03875 0.23596 0.0
O228 O 0.96421 0.08681 0.26095 0.0
O229 O 0.99861 0.03455 0.16897 0.0
O230 O 0.97812 0.06933 0.19238 0.0
C231 C 0.05922 0.06238 0.25486 0.0
C232 C 0.96381 0.98746 0.24278 0.0
O233 O 0.96205 1.01514 0.24989 0.0
O234 O 0.98392 0.98205 0.22517 0.0
C235 C 0.96773 0.09296 0.29115 0.0
O236 O 0.9872 0.08042 0.31054 0.0
C237 C 0.98497 0.05713 0.16715 0.0
Zn238 Zn 0.2922 0.77054 0.5516 0.0
Zn239 Zn 0.3349 0.73252 0.55133 0.0
O240 O 0.34407 0.75886 0.51387 0.0
O241 O 0.31078 0.7905 0.51416 0.0
O242 O 0.36533 0.7035 0.55102 0.0
O243 O 0.3113 0.78457 0.59815 0.0
O244 O 0.34483 0.75316 0.59788 0.0
C245 C 0.33242 0.78053 0.50194 0.0
C246 C 0.26107 0.70611 0.53774 0.0
O247 O 0.29036 0.70314 0.54065 0.0
O248 O 0.2549 0.73248 0.54166 0.0
C249 C 0.36069 0.68268 0.52791 0.0
O250 O 0.33667 0.68082 0.50404 0.0
C251 C 0.33341 0.77305 0.61263 0.0
Zn252 Zn 0.51293 0.52259 0.72565 0.0
Zn253 Zn 0.4737 0.56061 0.72153 0.0
O254 O 0.50934 0.5828 0.75759 0.0
O255 O 0.54203 0.55081 0.76185 0.0
O256 O 0.44115 0.58675 0.72243 0.0
O257 O 0.52123 0.53147 0.68149 0.0
O258 O 0.49231 0.56641 0.67995 0.0
C259 C 0.53532 0.57597 0.77061 0.0
C260 C 0.45182 0.49157 0.7344 0.0
O261 O 0.44661 0.51809 0.72952 0.0
O262 O 0.4798 0.48642 0.73435 0.0
C263 C 0.42862 0.58559 0.74801 0.0
O264 O 0.43732 0.56807 0.77011 0.0
C265 C 0.51156 0.55291 0.66741 0.0
Zn266 Zn 0.54588 1.01777 0.69402 0.0
Zn267 Zn 0.60959 0.97611 0.73998 0.0
O268 O 0.57679 0.97156 0.77239 0.0
O269 O 0.55632 0.99364 0.73335 0.0
O270 O 0.65252 0.96817 0.76136 0.0
O271 O 0.55901 0.97728 0.70191 0.0
O272 O 0.59272 0.94913 0.69672 0.0
C273 C 0.55524 0.98568 0.76166 0.0
C274 C 0.61621 0.04746 0.71657 0.0
O275 O 0.61963 1.02218 0.72838 0.0
O276 O 0.58938 0.05055 0.70031 0.0
C277 C 0.67265 0.98954 0.77979 0.0
O278 O 0.66516 1.01617 0.7853 0.0
C279 C 0.56936 0.95978 0.68337 0.0
Zn280 Zn 0.83241 0.74152 0.03952 0.0
Zn281 Zn 0.87114 0.7031 0.04266 0.0
O282 O 0.87364 0.72708 0.99582 0.0
O283 O 0.84387 0.76131 0.99892 0.0
O284 O 0.90908 0.67391 0.04664 0.0
O285 O 0.84627 0.76391 0.08421 0.0
O286 O 0.87622 0.72956 0.09138 0.0
C287 C 0.8615 0.74889 0.98301 0.0
C288 C 0.79447 0.67806 0.03771 0.0
O289 O 0.82293 0.67178 0.03957 0.0
O290 O 0.79223 0.70584 0.03599 0.0
C291 C 0.93483 0.67468 0.03308 0.0
O292 O 0.94145 0.69572 1.01294 0.0
C293 C 0.8647 0.75175 0.10316 0.0
Zn294 Zn 0.13833 0.64029 0.84416 0.0
Zn295 Zn 0.08387 0.66246 0.8341 0.0
O296 O 0.10064 0.67506 0.88203 0.0
O297 O 0.14584 0.65854 0.88966 0.0
O298 O 1.04136 0.67599 0.82465 0.0
O299 O 0.15649 0.66664 0.81126 0.0
O300 O 0.11219 0.68463 0.80278 0.0
C301 C 0.126 0.67218 0.90062 0.0
C302 C 0.08098 0.59246 0.82635 0.0
O303 O 0.06803 0.61561 0.82527 0.0
O304 O 0.1116 0.59626 0.83326 0.0
C305 C 1.01596 0.66033 0.83356 0.0
O306 O 1.01802 0.63683 0.85052 0.0
C307 C 0.1407 0.68436 0.79704 0.0
Zn308 Zn 0.90685 0.38222 0.54529 0.0
Zn309 Zn 0.86326 0.41849 0.55078 0.0
O310 O 0.84747 0.39672 0.50424 0.0
O311 O 0.88322 0.36821 0.49993 0.0
O312 O 0.83536 0.44926 0.55718 0.0
O313 O 0.8935 0.3626 0.58522 0.0
O314 O 0.85908 0.39258 0.58952 0.0
C315 C 0.8589 0.37808 0.48753 0.0
C316 C 0.93748 0.44575 0.55744 0.0
O317 O 0.9081 0.44766 0.55735 0.0
O318 O 0.94427 0.41989 0.55209 0.0
C319 C 0.83902 0.47343 0.54216 0.0
O320 O 0.8582 0.47643 0.52025 0.0
C321 C 0.87332 0.37201 0.60033 0.0
Zn322 Zn 0.65772 0.63185 0.36763 0.0
Zn323 Zn 0.68884 0.59652 0.33652 0.0
O324 O 0.68967 0.57734 0.37826 0.0
O325 O 0.66923 0.60922 0.40649 0.0
O326 O 0.71542 0.57383 0.31335 0.0
O327 O 0.61544 0.61012 0.3403 0.0
O328 O 0.64192 0.58317 0.31326 0.0
C329 C 0.68038 0.5852 0.40396 0.0
C330 C 0.71034 0.66786 0.34274 0.0
O331 O 0.71456 0.64094 0.33651 0.0
O332 O 0.68571 0.67104 0.35499 0.0
C333 C 0.71113 0.54484 0.31335 0.0
O334 O 0.68734 0.52925 0.3266 0.0
C335 C 0.61509 0.58872 0.31924 0.0
Tb336 Tb 0.06841 0.04647 0.02993 0.0
Eu337 Eu 0.13612 0.08985 0.08852 0.0
C338 C 0.13853 0.04475 1.02 0.0
C339 C 0.10535 1.01343 0.08286 0.0
C340 C 0.98806 0.05398 1.00183 0.0
C341 C 0.93485 0.06537 0.98747 0.0
C342 C 0.9555 0.04482 0.98679 0.0
C343 C 0.99969 0.08373 1.01763 0.0
C344 C 0.97918 0.10412 1.01836 0.0
C345 C 0.94667 0.09513 1.00328 0.0
C346 C 1.01025 0.03288 1.00259 0.0
O347 O 0.0792 0.0768 0.0713 0.0
O348 O 0.09686 0.10412 0.1143 0.0
O349 O 0.12356 0.12248 0.05246 0.0
O350 O 0.08442 0.09114 1.01234 0.0
C351 C 0.07059 0.08974 0.09564 0.0
O352 O 0.1671 0.09642 0.13544 0.0
O353 O 0.18535 0.11893 0.09552 0.0
O354 O 0.15032 0.06388 0.04645 0.0
O355 O 0.10715 0.03472 1.00871 0.0
O356 O 0.08457 1.01004 0.05561 0.0
O357 O 0.12197 0.04002 0.09806 0.0
C358 C 0.10396 0.11774 0.02454 0.0
O359 O 1.03484 0.04083 0.98706 0.0
O360 O 1.01964 1.02527 0.03116 0.0
C361 C 0.22077 0.09453 0.12776 0.0
C362 C 0.26431 0.05604 0.12163 0.0
C363 C 0.24193 0.0499 0.14307 0.0
C364 C 0.22013 0.06888 0.14596 0.0
C365 C 0.24565 0.10236 0.1091 0.0
C366 C 0.26719 0.08322 0.10603 0.0
C367 C 0.19295 0.10981 0.12394 0.0
H368 H 0.90976 0.05815 0.9757 0.0
H369 H 0.94609 1.0219 0.97469 0.0
H370 H 1.02468 0.09114 0.02962 0.0
H371 H 0.98866 0.12695 0.03068 0.0
H372 H 0.23984 0.02928 0.15579 0.0
H373 H 0.20158 0.06233 0.16092 0.0
H374 H 0.24708 0.12213 0.09511 0.0
H375 H 0.28485 0.08862 0.0899 0.0
Tb376 Tb 0.37817 0.8498 0.32198 0.0
Eu377 Eu 0.30281 0.80655 0.30474 0.0
C378 C 0.31763 0.88007 0.31653 0.0
C379 C 0.34299 0.81789 0.37444 0.0
C380 C 0.45099 0.91706 0.34187 0.0
C381 C 0.4503 0.97156 0.34485 0.0
C382 C 0.43365 0.9405 0.34159 0.0
C383 C 0.48502 0.92505 0.34632 0.0
C384 C 0.50172 0.95595 0.35064 0.0
C385 C 0.48456 0.97952 0.34991 0.0
C386 C 0.43454 0.88415 0.33895 0.0
O387 O 0.38447 0.80532 0.30328 0.0
O388 O 0.33575 0.77357 0.30907 0.0
O389 O 0.32038 0.81299 0.25733 0.0
O390 O 0.36028 0.85737 0.27247 0.0
C391 C 0.36575 0.77759 0.30336 0.0
O392 O 0.25889 0.78221 0.27205 0.0
O393 O 0.26033 0.78203 0.32347 0.0
O394 O 0.29834 0.85525 0.30055 0.0
O395 O 0.34645 0.8801 0.33252 0.0
O396 O 0.36935 0.82098 0.36124 0.0
O397 O 0.31556 0.82056 0.35776 0.0
C398 C 0.34086 0.8372 0.25014 0.0
O399 O 0.41375 0.87601 0.3584 0.0
O400 O 0.42377 0.87072 0.31002 0.0
C401 C 0.22837 0.73756 0.29102 0.0
C402 C 0.19304 0.6757 0.28342 0.0
C403 C 0.21556 0.68704 0.31144 0.0
C404 C 0.23298 0.71782 0.31534 0.0
C405 C 0.20675 0.72574 0.26266 0.0
C406 C 0.18892 0.69523 0.25897 0.0
C407 C 0.24423 0.77077 0.2952 0.0
H408 H 0.43656 0.98937 0.34396 0.0
H409 H 0.40741 0.93483 0.33923 0.0
H410 H 0.49859 0.90722 0.3466 0.0
H411 H 0.5281 0.96157 0.35425 0.0
H412 H 0.21915 0.67222 0.33049 0.0
H413 H 0.24966 0.72619 0.33747 0.0
H414 H 0.20353 0.74037 0.24353 0.0
H415 H 0.1718 0.68683 0.23711 0.0
Tb416 Tb 0.57694 0.05844 0.51345 0.0
Eu417 Eu 0.61225 0.09536 0.58096 0.0
C418 C 0.57406 1.02552 0.57775 0.0
C419 C 0.54011 0.10508 0.54709 0.0
C420 C 0.55381 0.99786 0.44677 0.0
C421 C 0.52739 0.94423 0.43169 0.0
C422 C 0.52547 0.97426 0.44007 0.0
C423 C 0.5841 0.99116 0.4436 0.0
C424 C 0.58603 0.96093 0.43546 0.0
C425 C 0.55771 0.93734 0.43025 0.0
C426 C 0.55164 0.02811 0.46065 0.0
O427 O 0.58952 0.1062 0.50335 0.0
O428 O 0.63233 0.12446 0.54377 0.0
O429 O 0.64392 0.06066 0.57178 0.0
O430 O 0.62786 0.05152 0.51746 0.0
C431 C 0.61555 0.12695 0.51607 0.0
O432 O 0.65629 0.1216 0.61168 0.0
O433 O 0.61039 0.11253 0.62981 0.0
O434 O 0.581 0.0524 0.59418 0.0
O435 O 0.57525 1.02264 0.5469 0.0
O436 O 0.53759 0.07948 0.52835 0.0
O437 O 0.56783 0.11688 0.56674 0.0
C438 C 0.64833 0.04911 0.54359 0.0
O439 O 0.53712 0.02738 0.48588 0.0
O440 O 0.57801 0.05009 0.46429 0.0
C441 C 0.64499 0.16218 0.64231 0.0
C442 C 0.65538 0.2265 0.65077 0.0
C443 C 0.6819 0.21245 0.65446 0.0
C444 C 0.67674 0.18046 0.65021 0.0
C445 C 0.61839 0.17642 0.63902 0.0
C446 C 0.6236 0.20843 0.64321 0.0
C447 C 0.64026 0.12893 0.63388 0.0
H448 H 0.50535 0.92609 0.42769 0.0
H449 H 0.50201 0.97873 0.44292 0.0
H450 H 0.60642 1.00888 0.44883 0.0
H451 H 0.60957 0.95575 0.43441 0.0
H452 H 0.70659 0.22629 0.66021 0.0
H453 H 0.69759 0.17008 0.65223 0.0
H454 H 0.59362 0.16296 0.63237 0.0
H455 H 0.60296 0.21914 0.64024 0.0
Tb456 Tb 0.31123 0.33259 0.77735 0.0
Eu457 Eu 0.3835 0.32717 0.81117 0.0
C458 C 0.37212 0.38446 0.77254 0.0
C459 C 0.35728 0.30221 0.73587 0.0
C460 C 0.22244 0.32343 0.75508 0.0
C461 C 0.16406 0.31731 0.7405 0.0
C462 C 0.19559 0.32736 0.73359 0.0
C463 C 0.21764 0.3092 0.78332 0.0
C464 C 0.18628 0.29919 0.79021 0.0
C465 C 0.1594 0.30329 0.76892 0.0
C466 C 0.25545 0.33365 0.74798 0.0
O467 O 0.30122 0.29006 0.80131 0.0
O468 O 0.35085 0.28994 0.83166 0.0
O469 O 0.36393 0.35216 0.85046 0.0
O470 O 0.31052 0.34875 0.8281 0.0
C471 C 0.31941 0.27918 0.82373 0.0
O472 O 0.42479 0.30531 0.82022 0.0
O473 O 0.42717 0.35026 0.84398 0.0
O474 O 0.39096 0.36532 0.77887 0.0
O475 O 0.34155 0.37819 0.77634 0.0
O476 O 0.33549 0.31925 0.73695 0.0
O477 O 0.37548 0.29818 0.76272 0.0
C478 C 0.33454 0.35628 0.85294 0.0
O479 O 0.27415 0.35655 0.76699 0.0
O480 O 0.27042 0.31168 0.74324 0.0
C481 C 0.47508 0.34219 0.82888 0.0
C482 C 0.53358 0.37469 0.81231 0.0
C483 C 0.50775 0.35999 0.78822 0.0
C484 C 0.47855 0.34396 0.79644 0.0
C485 C 0.5011 0.35651 0.85297 0.0
C486 C 0.53022 0.3728 0.84474 0.0
C487 C 0.44323 0.3295 0.83779 0.0
H488 H 0.14341 0.32061 0.72395 0.0
H489 H 0.19904 0.33821 0.71162 0.0
H490 H 0.23816 0.3059 0.79998 0.0
H491 H 0.18294 0.28841 0.81224 0.0
H492 H 0.51005 0.36139 0.76309 0.0
H493 H 0.45844 0.3337 0.77751 0.0
H494 H 0.4985 0.35588 0.87809 0.0
H495 H 0.54998 0.38416 0.86353 0.0
Tb496 Tb 0.08838 0.06395 0.51217 0.0
Eu497 Eu 0.09579 0.09727 0.58087 0.0
C498 C 0.15957 0.10513 0.5441 0.0
C499 C 0.09396 1.02292 0.57502 0.0
C500 C 0.09641 0.04313 0.42841 0.0
C501 C 0.08701 0.03949 0.37047 0.0
C502 C 0.07812 0.02927 0.3991 0.0
C503 C 0.12484 0.06625 0.42891 0.0
C504 C 0.13402 0.07628 0.40007 0.0
C505 C 0.11438 0.06365 0.3708 0.0
C506 C 0.08336 0.03559 0.45785 0.0
O507 O 1.03723 0.06035 0.519 0.0
O508 O 0.04525 0.06467 0.57341 0.0
O509 O 0.08849 0.13582 0.54768 0.0
O510 O 0.09307 0.11307 0.49939 0.0
C511 C 1.02559 0.05563 0.54601 0.0
O512 O 0.07322 0.12364 0.61232 0.0
O513 O 0.12109 0.11494 0.62873 0.0
O514 O 0.1472 0.11345 0.56913 0.0
O515 O 0.14142 0.08474 0.52119 0.0
O516 O 0.08472 1.02423 0.54371 0.0
O517 O 0.10392 0.04928 0.59352 0.0
C518 C 0.09128 0.13813 0.51703 0.0
O519 O 0.10427 0.03282 0.48266 0.0
O520 O 0.063 0.05174 0.46535 0.0
C521 C 0.08809 0.12125 0.66825 0.0
C522 C 0.08424 0.12479 0.73379 0.0
C523 C 0.10101 0.1044 0.72109 0.0
C524 C 0.10286 0.10253 0.68844 0.0
C525 C 0.06825 0.13897 0.6804 0.0
C526 C 0.06599 0.14048 0.7131 0.0
C527 C 0.09696 0.12618 0.6363 0.0
H528 H 0.07165 0.02949 0.348 0.0
H529 H 0.05609 1.01152 0.3984 0.0
H530 H 0.13911 0.07731 0.45148 0.0
H531 H 0.15526 0.09487 0.40062 0.0
H532 H 0.11499 0.09195 0.73685 0.0
H533 H 0.11784 0.08822 0.67958 0.0
H534 H 0.05647 0.15341 0.66512 0.0
H535 H 0.05284 0.15618 0.72266 0.0
Tb536 Tb 0.32835 0.79488 0.81407 0.0
Eu537 Eu 0.35485 0.8663 0.80045 0.0
C538 C 0.33581 0.84671 0.86965 0.0
C539 C 0.2782 0.8347 0.78368 0.0
C540 C 0.31902 0.71159 0.80672 0.0
C541 C 0.33665 0.66387 0.81397 0.0
C542 C 0.3222 0.68686 0.82512 0.0
C543 C 0.32907 0.7123 0.77644 0.0
C544 C 0.34341 0.68942 0.76533 0.0
C545 C 0.34801 0.66555 0.78438 0.0
C546 C 0.30887 0.73823 0.82046 0.0
O547 O 0.35087 0.79186 0.77123 0.0
O548 O 0.347 0.83843 0.75285 0.0
O549 O 0.40081 0.84714 0.80831 0.0
O550 O 0.3808 0.80569 0.83518 0.0
C551 C 0.34962 0.80993 0.74785 0.0
O552 O 0.35405 0.90352 0.76907 0.0
O553 O 0.38632 0.91201 0.81465 0.0
O554 O 0.35363 0.86643 0.85371 0.0
O555 O 0.31833 0.82002 0.85584 0.0
O556 O 0.28651 0.80788 0.78475 0.0
O557 O 0.29963 0.86025 0.79546 0.0
C558 C 0.40582 0.82536 0.82712 0.0
O559 O 0.33111 0.75694 0.84108 0.0
O560 O 0.29392 0.75324 0.79999 0.0
C561 C 0.36021 0.95139 0.79772 0.0
C562 C 0.32844 0.99908 0.80861 0.0
C563 C 0.34013 0.99555 0.77954 0.0
C564 C 0.35606 0.97187 0.77419 0.0
C565 C 0.34891 0.95533 0.82699 0.0
C566 C 0.3333 0.9791 0.83242 0.0
C567 C 0.37313 0.92428 0.79029 0.0
H568 H 0.34034 0.64561 0.82899 0.0
H569 H 0.31482 0.68606 0.84862 0.0
H570 H 0.32713 0.73121 0.76189 0.0
H571 H 0.35229 0.69108 0.74255 0.0
H572 H 0.33637 1.01072 0.76088 0.0
H573 H 0.36427 0.96895 0.75133 0.0
H574 H 0.35132 0.93954 0.84533 0.0
H575 H 0.32425 0.98148 0.85492 0.0
Tb576 Tb 0.61752 0.06764 0.08013 0.0
Eu577 Eu 0.57422 0.07689 1.01455 0.0
C578 C 0.60582 1.01486 1.01952 0.0
C579 C 0.64977 0.10659 0.0306 0.0
C580 C 0.65712 0.08065 0.16415 0.0
C581 C 0.65345 0.08095 0.22089 0.0
C582 C 0.6551 0.06506 0.19199 0.0
C583 C 0.65981 0.1127 0.16602 0.0
C584 C 0.65843 0.12857 0.1949 0.0
C585 C 0.654 0.11254 0.22207 0.0
C586 C 0.65198 0.06296 0.13281 0.0
O587 O 0.60895 0.11572 0.08947 0.0
O588 O 0.5664 0.11561 0.04937 0.0
O589 O 0.54571 0.03677 0.03574 0.0
O590 O 0.56724 0.05172 0.08801 0.0
C591 C 0.58614 0.12947 0.07578 0.0
O592 O 0.57026 0.09081 0.96604 0.0
O593 O 0.52621 0.07388 0.98609 0.0
O594 O 0.59483 0.03456 1.00068 0.0
O595 O 0.61393 1.02284 0.05103 0.0
O596 O 0.65117 0.08283 0.04708 0.0
O597 O 0.6216 0.11224 1.01953 0.0
C598 C 0.5444 0.03472 0.06623 0.0
O599 O 0.6226 0.04644 0.12333 0.0
O600 O 0.66318 0.07791 0.10977 0.0
C601 C 0.52635 0.05901 0.93163 0.0
C602 C 0.51103 0.02596 0.87112 0.0
C603 C 0.48971 0.04327 0.88104 0.0
C604 C 0.49775 0.06029 0.91111 0.0
C605 C 0.54502 0.03837 0.92323 0.0
C606 C 0.53758 1.0222 0.89306 0.0
C607 C 0.53861 0.0809 0.9602 0.0
H608 H 0.64965 0.06832 0.24174 0.0
H609 H 0.65281 0.04035 0.19092 0.0
H610 H 0.66106 0.12526 0.14485 0.0
H611 H 0.65846 0.15289 0.19548 0.0
H612 H 0.4688 0.04595 0.86444 0.0
H613 H 0.48275 0.07568 0.91754 0.0
H614 H 0.56674 0.03639 0.93905 0.0
H615 H 0.55393 1.00847 0.88599 0.0
Tb616 Tb 0.36226 0.35775 0.31031 0.0
Eu617 Eu 0.32704 0.29296 0.27491 0.0
C618 C 0.36065 0.30085 0.35299 0.0
C619 C 0.40664 0.32383 0.27229 0.0
C620 C 0.35368 0.43359 0.32833 0.0
C621 C 0.3132 0.45641 0.34973 0.0
C622 C 0.3417 0.44523 0.35462 0.0
C623 C 0.33798 0.43561 0.29701 0.0
C624 C 0.30943 0.4464 0.2922 0.0
C625 C 0.2962 0.45577 0.31852 0.0
C626 C 0.37661 0.41298 0.33341 0.0
O627 O 0.34844 0.36742 0.25923 0.0
O628 O 0.31412 0.32299 0.23482 0.0
O629 O 0.28252 0.30787 0.28947 0.0
O630 O 0.31208 0.34868 0.3239 0.0
C631 C 0.32922 0.35189 0.23334 0.0
O632 O 0.32246 0.25737 0.23572 0.0
O633 O 0.29768 0.24637 0.27583 0.0
O634 O 0.33942 0.28477 0.32872 0.0
O635 O 0.37727 0.32856 0.34826 0.0
O636 O 0.40636 0.34527 0.29526 0.0
O637 O 0.37925 0.30299 0.26165 0.0
C638 C 0.28385 0.32918 0.31288 0.0
O639 O 0.36723 0.39003 0.35012 0.0
O640 O 0.38726 0.40369 0.3081 0.0
C641 C 0.32616 0.21047 0.25784 0.0
C642 C 0.37303 0.17805 0.28127 0.0
C643 C 0.37403 0.1906 0.25163 0.0
C644 C 0.35067 0.20663 0.2399 0.0
C645 C 0.32313 0.19461 0.28557 0.0
C646 C 0.34654 0.17864 0.29729 0.0
C647 C 0.30856 0.23534 0.2515 0.0
H648 H 0.3033 0.46368 0.37032 0.0
H649 H 0.35302 0.44361 0.37895 0.0
H650 H 0.34635 0.42683 0.27612 0.0
H651 H 0.29672 0.44595 0.26795 0.0
H652 H 0.39436 0.19027 0.23899 0.0
H653 H 0.35348 0.2182 0.21824 0.0
H654 H 0.30433 0.19671 0.29975 0.0
H655 H 0.34544 0.16893 0.32018 0.0
Tb656 Tb 0.59163 0.56268 1.01115 0.0
Eu657 Eu 0.59711 0.59547 0.07968 0.0
C658 C 0.66205 0.60521 0.04549 0.0
C659 C 0.59461 0.52049 0.0734 0.0
C660 C 0.60449 0.55089 0.92952 0.0
C661 C 0.59404 0.55523 0.87259 0.0
C662 C 0.59104 0.53749 0.89854 0.0
C663 C 0.62413 0.581 0.934 0.0
C664 C 0.62702 0.59886 0.90802 0.0
C665 C 0.61018 0.58655 0.87758 0.0
C666 C 0.59165 0.53697 0.95681 0.0
O667 O 0.53969 0.55701 1.016 0.0
O668 O 0.54613 0.5639 0.07036 0.0
O669 O 0.59292 0.63498 0.04694 0.0
O670 O 0.59261 0.61117 0.99768 0.0
C671 C 0.52725 0.55383 0.04277 0.0
O672 O 0.57488 0.6249 0.10764 0.0
O673 O 0.61741 0.60964 0.12995 0.0
O674 O 0.64986 0.61074 0.07156 0.0
O675 O 0.64374 0.58703 0.02094 0.0
O676 O 0.58847 0.52232 0.04181 0.0
O677 O 0.60227 0.54652 0.09253 0.0
C678 C 0.59305 0.6367 1.01578 0.0
O679 O 0.61307 0.53601 0.98188 0.0
O680 O 0.56724 0.54744 0.96454 0.0
C681 C 0.57659 0.61222 0.16069 0.0
C682 C 0.55192 0.58486 0.21253 0.0
C683 C 0.57789 0.61106 0.21773 0.0
C684 C 0.59012 0.62468 0.19193 0.0
C685 C 0.54909 0.58741 0.15527 0.0
C686 C 0.53658 0.57391 0.18119 0.0
C687 C 0.59357 0.62277 0.13438 0.0
H688 H 0.58093 0.54542 0.84908 0.0
H689 H 0.5757 0.5144 0.89476 0.0
H690 H 0.63462 0.59162 0.95788 0.0
H691 H 0.63966 0.62291 0.91218 0.0
H692 H 0.59013 0.61975 0.24185 0.0
H693 H 0.61131 0.64376 0.19641 0.0
H694 H 0.53836 0.57753 0.13113 0.0
H695 H 0.51641 0.55389 0.17682 0.0
Tb696 Tb 0.83351 0.29107 0.29633 0.0
Eu697 Eu 0.86046 0.36279 0.2844 0.0
C698 C 0.83704 0.34213 0.35122 0.0
C699 C 0.78089 0.32759 0.26703 0.0
C700 C 0.84116 0.21257 0.31269 0.0
C701 C 0.89408 0.20347 0.33398 0.0
C702 C 0.8722 0.22278 0.3314 0.0
C703 C 0.83174 0.1824 0.29794 0.0
C704 C 0.85367 0.16316 0.30038 0.0
C705 C 0.88525 0.17393 0.31759 0.0
C706 C 0.82038 0.23425 0.30458 0.0
O707 O 0.83526 0.2923 0.24475 0.0
O708 O 0.87315 0.33683 0.24294 0.0
O709 O 0.90803 0.34859 0.29947 0.0
O710 O 0.88634 0.30199 0.31735 0.0
C711 C 0.85514 0.31051 0.22924 0.0
O712 O 0.86256 0.40006 0.2528 0.0
O713 O 0.88379 0.41022 0.30289 0.0
O714 O 0.85711 0.36152 0.33714 0.0
O715 O 0.81967 0.31606 0.33598 0.0
O716 O 0.78659 0.3017 0.27772 0.0
O717 O 0.80479 0.3523 0.26782 0.0
C718 C 0.91178 0.32447 0.31502 0.0
O719 O 0.82095 0.25595 0.32665 0.0
O720 O 0.82243 0.24504 0.27681 0.0
C721 C 0.85234 0.44271 0.28025 0.0
C722 C 0.80962 0.48136 0.28737 0.0
C723 C 0.83901 0.49264 0.27602 0.0
C724 C 0.86038 0.47327 0.27243 0.0
C725 C 0.82291 0.43165 0.29145 0.0
C726 C 0.80172 0.45081 0.29501 0.0
C727 C 0.87359 0.42146 0.27648 0.0
H728 H 0.91843 0.2121 0.34727 0.0
H729 H 0.88007 0.24608 0.3428 0.0
H730 H 0.80802 0.17426 0.28322 0.0
H731 H 0.84657 0.14042 0.28755 0.0
H732 H 0.84538 0.51632 0.27022 0.0
H733 H 0.88299 0.48205 0.26367 0.0
H734 H 0.81638 0.40811 0.29751 0.0
H735 H 0.7792 0.44188 0.30392 0.0
Tb736 Tb 0.11968 0.57379 0.57498 0.0
Eu737 Eu 0.07401 0.58175 0.51235 0.0
C738 C 0.10216 0.51591 0.52159 0.0
C739 C 0.14926 0.60681 0.52027 0.0
C740 C 0.17104 0.60565 0.64971 0.0
C741 C 0.17154 0.62873 0.70298 0.0
C742 C 0.16864 0.60263 0.68213 0.0
C743 C 0.17916 0.63534 0.639 0.0
C744 C 0.18232 0.66152 0.66001 0.0
C745 C 0.17695 0.65814 0.69168 0.0
C746 C 0.15874 0.57838 0.62652 0.0
O747 O 0.10789 0.62055 0.585 0.0
O748 O 0.07445 0.62779 0.53977 0.0
O749 O 1.04126 0.56819 0.54831 0.0
O750 O 0.07348 0.54262 0.57788 0.0
C751 C 0.09006 0.63792 0.5691 0.0
O752 O 0.06817 0.58749 0.46104 0.0
O753 O 1.02568 0.57817 0.4848 0.0
O754 O 0.08553 0.53297 0.50395 0.0
O755 O 0.11723 0.52728 0.55093 0.0
O756 O 0.14941 0.58364 0.5377 0.0
O757 O 0.12182 0.61515 0.51277 0.0
C758 C 0.04473 0.5483 0.56928 0.0
O759 O 0.12756 0.56673 0.62399 0.0
O760 O 0.16795 0.58055 0.59847 0.0
C761 C 1.02332 0.55012 0.43527 0.0
C762 C 1.01638 0.49561 0.39606 0.0
C763 C 1.02287 0.52432 0.38329 0.0
C764 C 1.02631 0.55143 0.40278 0.0
C765 C 1.0142 0.5212 0.44738 0.0
C766 C 1.01053 0.49402 0.42775 0.0
C767 C 1.03653 0.57799 0.45745 0.0
H768 H 0.16752 0.62584 0.72751 0.0
H769 H 0.16219 0.58004 0.69078 0.0
H770 H 0.18099 0.6383 0.61399 0.0
H771 H 0.18675 0.68413 0.65112 0.0
H772 H 1.02734 0.52581 0.35873 0.0
H773 H 1.03367 0.57342 0.3931 0.0
H774 H 1.01208 0.51957 0.47252 0.0
H775 H 1.00532 0.47199 0.43777 0.0
Tb776 Tb 0.81318 0.83591 0.27594 0.0
Eu777 Eu 0.87602 0.81522 0.31415 0.0
C778 C 0.88286 0.8788 0.28233 0.0
C779 C 0.85474 0.80004 0.23543 0.0
C780 C 0.73116 0.84748 0.25376 0.0
C781 C 0.67306 0.83612 0.23418 0.0
C782 C 0.70515 0.84618 0.22882 0.0
C783 C 0.72492 0.83953 0.2843 0.0
C784 C 0.69303 0.82952 0.28962 0.0
C785 C 0.66703 0.82715 0.26446 0.0
C786 C 0.76439 0.85206 0.24687 0.0
O787 O 0.79026 0.79564 0.29754 0.0
O788 O 0.83403 0.77535 0.31687 0.0
O789 O 0.85489 0.83445 0.35536 0.0
O790 O 0.81565 0.85509 0.32689 0.0
C791 C 0.80257 0.77402 0.31093 0.0
O792 O 0.91211 0.78692 0.31477 0.0
O793 O 0.91473 0.81968 0.35514 0.0
O794 O 0.89264 0.86538 0.30744 0.0
O795 O 0.85535 0.86696 0.26334 0.0
O796 O 0.82611 0.80571 0.23867 0.0
O797 O 0.87866 0.80623 0.26024 0.0
C798 C 0.8324 0.85072 0.35479 0.0
O799 O 0.78701 0.87043 0.26761 0.0
O800 O 0.77262 0.82647 0.2395 0.0
C801 C 0.96399 0.81637 0.3375 0.0
C802 C 1.02428 0.84344 0.32025 0.0
C803 C 1.01469 0.8113 0.32018 0.0
C804 C 0.98463 0.79782 0.32877 0.0
C805 C 0.97461 0.84865 0.33917 0.0
C806 C 1.00456 0.86205 0.33065 0.0
C807 C 0.93011 0.80221 0.34067 0.0
H808 H 0.65308 0.83445 0.21465 0.0
H809 H 0.7097 0.85175 0.205 0.0
H810 H 0.74474 0.83982 0.30364 0.0
H811 H 0.6886 0.8227 0.31312 0.0
H812 H 1.02973 0.79671 0.31201 0.0
H813 H 0.97683 0.77292 0.32711 0.0
H814 H 0.95912 0.8636 0.34549 0.0
H815 H 1.01166 0.88689 0.33067 0.0
Tb816 Tb 0.89276 0.34104 0.80212 0.0
Eu817 Eu 0.82139 0.29353 0.77264 0.0
C818 C 0.82987 0.36698 0.79152 0.0
C819 C 0.84794 0.30395 0.84905 0.0
C820 C 0.96537 0.40785 0.82042 0.0
C821 C 1.00422 0.45331 0.84728 0.0
C822 C 0.98625 0.42328 0.84789 0.0
C823 C 0.96163 0.42331 0.79245 0.0
C824 C 0.97924 0.45364 0.79196 0.0
C825 C 1.001 0.46867 0.81926 0.0
C826 C 0.94848 0.37555 0.82164 0.0
O827 O 0.90044 0.29703 0.78384 0.0
O828 O 0.85471 0.26466 0.7936 0.0
O829 O 0.84935 0.30691 0.73234 0.0
O830 O 0.87808 0.35457 0.75432 0.0
C831 C 0.88597 0.27067 0.7928 0.0
O832 O 0.79607 0.2575 0.73536 0.0
O833 O 0.76863 0.27565 0.76837 0.0
O834 O 0.81357 0.34207 0.77308 0.0
O835 O 0.85843 0.369 0.80886 0.0
O836 O 0.87693 0.31802 0.84353 0.0
O837 O 0.82239 0.29539 0.82626 0.0
C838 C 0.86468 0.33506 0.72913 0.0
O839 O 0.92509 0.37088 0.83877 0.0
O840 O 0.94085 0.35802 0.79472 0.0
C841 C 0.74838 0.22385 0.74554 0.0
C842 C 0.71057 0.16319 0.73971 0.0
C843 C 0.74394 0.16936 0.75222 0.0
C844 C 0.76283 0.19958 0.75503 0.0
C845 C 0.71492 0.21768 0.73412 0.0
C846 C 0.69609 0.1876 0.73123 0.0
C847 C 0.76784 0.25526 0.7447 0.0
H848 H 1.0206 0.46463 0.86869 0.0
H849 H 0.98873 0.41192 0.86979 0.0
H850 H 0.94528 0.41195 0.77105 0.0
H851 H 0.97617 0.46529 0.77026 0.0
H852 H 0.75537 0.15076 0.75924 0.0
H853 H 0.7887 0.2039 0.76396 0.0
H854 H 0.70361 0.23614 0.72666 0.0
H855 H 0.67029 0.18327 0.72193 0.0
Tb856 Tb 0.86159 0.85708 0.81062 0.0
Eu857 Eu 0.82977 0.79086 0.77531 0.0
C858 C 0.86307 0.8002 0.85354 0.0
C859 C 0.90825 0.825 0.77359 0.0
C860 C 0.85079 0.93304 0.827 0.0
C861 C 0.81999 0.96787 0.84741 0.0
C862 C 0.84631 0.95337 0.8517 0.0
C863 C 0.82928 0.92843 0.79768 0.0
C864 C 0.80298 0.94246 0.79359 0.0
C865 C 0.79749 0.96154 0.81865 0.0
C866 C 0.87378 0.91266 0.83301 0.0
O867 O 0.8489 0.86524 0.75895 0.0
O868 O 0.81537 0.82017 0.73495 0.0
O869 O 0.78371 0.80257 0.78989 0.0
O870 O 0.81015 0.84689 0.82097 0.0
C871 C 0.8299 0.84924 0.7332 0.0
O872 O 0.82901 0.75541 0.73713 0.0
O873 O 0.80304 0.74319 0.77626 0.0
O874 O 0.84444 0.78281 0.82857 0.0
O875 O 0.87603 0.82949 0.8505 0.0
O876 O 0.90692 0.84582 0.79684 0.0
O877 O 0.88152 0.80383 0.76208 0.0
C878 C 0.78324 0.82511 0.81128 0.0
O879 O 0.86394 0.88969 0.84949 0.0
O880 O 0.88509 0.90343 0.8081 0.0
C881 C 0.83791 0.71146 0.76237 0.0
C882 C 0.8912 0.68658 0.78611 0.0
C883 C 0.8865 0.69367 0.75406 0.0
C884 C 0.86003 0.70594 0.74224 0.0
C885 C 0.84104 0.70146 0.79355 0.0
C886 C 0.86745 0.68906 0.80528 0.0
C887 C 0.81675 0.7331 0.7535 0.0
H888 H 0.81632 0.98286 0.86692 0.0
H889 H 0.8623 0.95701 0.87465 0.0
H890 H 0.83176 0.9128 0.77823 0.0
H891 H 0.78612 0.93749 0.77113 0.0
H892 H 0.9044 0.69146 0.73879 0.0
H893 H 0.85826 0.71324 0.71811 0.0
H894 H 0.82443 0.70514 0.80973 0.0
H895 H 0.8705 0.68327 0.82995 0.0
Tb896 Tb 0.58333 0.57325 0.5409 0.0
Eu897 Eu 0.65978 0.61645 0.56028 0.0
C898 C 0.638 0.55719 0.50613 0.0
C899 C 0.63799 0.55007 0.5844 0.0
C900 C 0.49345 0.56259 0.52848 0.0
C901 C 0.45859 0.59193 0.4992 0.0
C902 C 0.48305 0.57535 0.50014 0.0
C903 C 0.47671 0.56429 0.55467 0.0
C904 C 0.45238 0.58098 0.55374 0.0
C905 C 0.44407 0.59586 0.52643 0.0
C906 C 0.52285 0.54951 0.53192 0.0
O907 O 0.58858 0.61705 0.56778 0.0
O908 O 0.63346 0.61986 0.60246 0.0
O909 O 0.63016 0.64551 0.53241 0.0
O910 O 0.59228 0.60453 0.50381 0.0
C911 C 0.60272 0.62068 0.59757 0.0
O912 O 0.70283 0.63501 0.59644 0.0
O913 O 0.7047 0.64248 0.54649 0.0
O914 O 0.65613 0.58493 0.516 0.0
O915 O 0.61012 0.54613 0.51582 0.0
O916 O 0.6074 0.55222 0.57995 0.0
O917 O 0.66059 0.56852 0.57231 0.0
C918 C 0.60655 0.63404 0.50823 0.0
O919 O 0.54041 0.55279 0.50887 0.0
O920 O 0.54115 0.55507 0.56011 0.0
C921 C 0.74785 0.62375 0.57491 0.0
C922 C 0.78423 0.57812 0.57082 0.0
C923 C 0.77552 0.58656 0.60027 0.0
C924 C 0.75745 0.60916 0.6023 0.0
C925 C 0.75926 0.61708 0.54624 0.0
C926 C 0.77729 0.59451 0.54428 0.0
C927 C 0.72158 0.64105 0.5746 0.0
H928 H 0.45206 0.60294 0.47776 0.0
H929 H 0.49488 0.57393 0.47924 0.0
H930 H 0.48339 0.55373 0.57637 0.0
H931 H 0.44092 0.58334 0.57474 0.0
H932 H 0.78111 0.57445 0.62116 0.0
H933 H 0.74935 0.61382 0.62485 0.0
H934 H 0.75264 0.62796 0.52473 0.0
H935 H 0.78456 0.58878 0.52159 0.0
Tb936 Tb 0.07264 0.55046 1.01091 0.0
Eu937 Eu 0.10996 0.59067 0.07698 0.0
C938 C 0.07167 0.52179 0.07697 0.0
C939 C 1.03821 0.60024 0.04391 0.0
C940 C 1.04242 0.48312 0.95211 0.0
C941 C 0.07013 0.44087 0.9509 0.0
C942 C 0.07133 0.47237 0.95572 0.0
C943 C 1.01246 0.46204 0.94245 0.0
C944 C 1.01126 0.43056 0.93768 0.0
C945 C 1.04003 0.41981 0.9424 0.0
C946 C 1.04275 0.51532 0.96215 0.0
O947 O 0.08732 0.59662 0.99601 0.0
O948 O 0.12611 0.62047 0.03886 0.0
O949 O 0.1424 0.55703 0.06697 0.0
O950 O 0.12298 0.54246 1.01364 0.0
C951 C 0.11115 0.61963 1.00942 0.0
O952 O 0.15551 0.61301 0.10776 0.0
O953 O 0.10967 0.61171 0.12475 0.0
O954 O 0.07673 0.54944 0.0913 0.0
O955 O 0.07476 0.51736 0.04684 0.0
O956 O 1.0349 0.57352 0.02674 0.0
O957 O 0.0665 0.61294 0.06219 0.0
C958 C 0.14527 0.54322 0.03932 0.0
O959 O 1.03033 0.51897 0.98818 0.0
O960 O 0.06986 0.53574 0.96223 0.0
C961 C 0.15117 0.65658 0.13812 0.0
C962 C 0.17337 0.72043 0.15139 0.0
C963 C 0.18791 0.70041 0.16994 0.0
C964 C 0.17678 0.66856 0.16335 0.0
C965 C 0.13683 0.67661 0.11939 0.0
C966 C 0.14777 0.7084 0.12612 0.0
C967 C 0.14102 0.62334 0.12972 0.0
H968 H 0.09253 0.43285 0.95447 0.0
H969 H 0.09476 0.48816 0.96319 0.0
H970 H 0.9899 0.46983 0.93972 0.0
H971 H 0.98785 0.4145 0.93107 0.0
H972 H 0.20772 0.70948 0.18952 0.0
H973 H 0.18832 0.65332 0.17769 0.0
H974 H 0.11734 0.66763 0.09947 0.0
H975 H 0.13627 0.72363 0.11173 0.0
C976 C 0.08489 0.19178 0.99616 0.0
C977 C 0.07583 0.18197 0.96301 0.0
C978 C 0.10211 0.13897 0.97146 0.0
C979 C 0.10219 0.1439 1.00495 0.0
N980 N 0.09242 0.17551 0.04956 0.0
N981 N 0.07643 0.14582 0.91827 0.0
C982 C 0.09408 0.17085 1.01765 0.0
C983 C 0.08532 0.15587 0.95012 0.0
N984 N 0.08442 0.22107 1.00702 0.0
N985 N 0.11764 0.1178 0.96026 0.0
H986 H 0.0638 0.15718 0.90171 0.0
H987 H 0.07969 0.12492 0.90864 0.0
H988 H 0.13052 0.10553 0.97571 0.0
H989 H 0.12065 0.1149 0.93631 0.0
H990 H 0.09338 0.23025 0.03065 0.0
H991 H 0.07854 0.23718 0.99149 0.0
H992 H 0.08243 0.19282 0.05877 0.0
H993 H 0.09871 0.16107 0.06667 0.0
C994 C 0.25694 0.92883 0.30889 0.0
C995 C 0.26735 0.94336 0.28221 0.0
C996 C 0.32065 0.93202 0.29572 0.0
C997 C 0.30632 0.90905 0.31471 0.0
N998 N 0.26484 0.89087 0.34665 0.0
N999 N 0.313 0.97482 0.26409 0.0
C1000 C 0.276 0.90984 0.32444 0.0
C1001 C 0.30097 0.95091 0.28092 0.0
N1002 N 0.22871 0.9328 0.31823 0.0
N1003 N 0.3513 0.93341 0.28901 0.0
H1004 H 0.29785 0.98829 0.25344 0.0
H1005 H 0.33767 0.98282 0.26316 0.0
H1006 H 0.36565 0.91882 0.29822 0.0
H1007 H 0.36189 0.94781 0.273 0.0
H1008 H 0.22014 0.92403 0.33849 0.0
H1009 H 0.21567 0.94757 0.30681 0.0
H1010 H 0.24152 0.88795 0.35253 0.0
H1011 H 0.2793 0.87768 0.35889 0.0
C1012 C 0.53853 0.85817 0.38985 0.0
C1013 C 0.541 0.84029 0.4165 0.0
C1014 C 0.56064 0.88729 0.45284 0.0
C1015 C 0.5592 0.90477 0.42584 0.0
N1016 N 0.5585 0.90691 0.36905 0.0
N1017 N 0.56196 0.83738 0.47226 0.0
C1018 C 0.55218 0.89017 0.39441 0.0
C1019 C 0.55445 0.8547 0.44776 0.0
N1020 N 0.52104 0.84516 0.3608 0.0
N1021 N 0.56689 0.90178 0.4832 0.0
H1022 H 0.55823 0.81344 0.46919 0.0
H1023 H 0.57459 0.84691 0.4948 0.0
H1024 H 0.573 0.92573 0.48773 0.0
H1025 H 0.56439 0.89009 0.5037 0.0
H1026 H 0.51641 0.85797 0.34144 0.0
H1027 H 0.50865 0.82208 0.3569 0.0
H1028 H 0.55636 0.89677 0.34576 0.0
H1029 H 0.56885 0.93053 0.37206 0.0
C1030 C 0.62032 0.39557 0.79512 0.0
C1031 C 0.61843 0.4208 0.77653 0.0
C1032 C 0.56432 0.42067 0.78958 0.0
C1033 C 0.56408 0.39224 0.8032 0.0
N1034 N 0.5908 0.35122 0.81743 0.0
N1035 N 0.58884 0.45741 0.75489 0.0
C1036 C 0.59197 0.37948 0.80602 0.0
C1037 C 0.5907 0.43377 0.77385 0.0
N1038 N 0.6494 0.38725 0.80248 0.0
N1039 N 0.53941 0.43511 0.79193 0.0
H1040 H 0.60801 0.46795 0.74356 0.0
H1041 H 0.56773 0.46541 0.74885 0.0
H1042 H 0.51977 0.42603 0.80338 0.0
H1043 H 0.53955 0.45721 0.78511 0.0
H1044 H 0.65319 0.37098 0.81852 0.0
H1045 H 0.67068 0.39888 0.79496 0.0
H1046 H 0.60907 0.33917 0.81646 0.0
H1047 H 0.57049 0.33862 0.82576 0.0
C1048 C 0.08005 0.95798 0.6357 0.0
C1049 C 0.08404 0.93059 0.61883 0.0
C1050 C 0.09982 0.96471 0.57513 0.0
C1051 C 0.09111 0.99089 0.59014 0.0
N1052 N 0.06488 1.00735 0.63287 0.0
N1053 N 0.09443 0.90874 0.56919 0.0
C1054 C 0.07922 0.98603 0.61999 0.0
C1055 C 0.09317 0.93435 0.58767 0.0
N1056 N 0.07805 0.95776 0.66768 0.0
N1057 N 0.11588 0.96891 0.54943 0.0
H1058 H 0.09036 0.88685 0.57746 0.0
H1059 H 0.09702 0.9089 0.54504 0.0
H1060 H 0.12231 0.99028 0.54041 0.0
H1061 H 0.12582 0.95205 0.53926 0.0
H1062 H 0.07844 0.97754 0.68219 0.0
H1063 H 0.08011 0.93874 0.68048 0.0
H1064 H 0.0528 1.00372 0.65258 0.0
H1065 H 0.06135 0.02686 0.6217 0.0
C1066 C 0.48053 0.79204 0.85943 0.0
C1067 C 0.50462 0.81897 0.8724 0.0
C1068 C 0.46438 0.85023 0.85576 0.0
C1069 C 0.44066 0.82349 0.84107 0.0
N1070 N 0.43045 0.76967 0.82245 0.0
N1071 N 0.52152 0.87411 0.87479 0.0
C1072 C 0.45004 0.7946 0.84107 0.0
C1073 C 0.49714 0.84813 0.86776 0.0
N1074 N 0.48645 0.7638 0.86517 0.0
N1075 N 0.45532 0.87745 0.86067 0.0
H1076 H 0.54561 0.87325 0.88289 0.0
H1077 H 0.51849 0.8959 0.86927 0.0
H1078 H 0.43174 0.88022 0.85368 0.0
H1079 H 0.47033 0.89633 0.87502 0.0
H1080 H 0.46867 0.74335 0.85992 0.0
H1081 H 0.50885 0.76111 0.87692 0.0
H1082 H 0.43739 0.74894 0.81873 0.0
H1083 H 0.40881 0.77073 0.80789 0.0
C1084 C 0.60633 0.21878 0.10657 0.0
C1085 C 0.57665 0.22329 0.11625 0.0
C1086 C 0.55366 0.16633 0.10063 0.0
C1087 C 0.58293 0.162 0.08988 0.0
N1088 N 0.63488 0.18718 0.07713 0.0
N1089 N 0.52017 0.201 0.11665 0.0
C1090 C 0.60857 0.18919 0.09146 0.0
C1091 C 0.54991 0.19681 0.11146 0.0
N1092 N 0.63313 0.24263 0.11289 0.0
N1093 N 0.52959 0.14085 0.10195 0.0
H1094 H 0.51653 0.22252 0.12405 0.0
H1095 H 0.49866 0.18414 0.11072 0.0
H1096 H 0.53125 0.11871 0.09437 0.0
H1097 H 0.50928 0.14118 0.1129 0.0
H1098 H 0.65658 0.24032 0.11085 0.0
H1099 H 0.63206 0.26453 0.12197 0.0
H1100 H 0.65297 0.20616 0.07414 0.0
H1101 H 0.63703 0.16671 0.06547 0.0
C1102 C 0.19388 0.32998 0.32516 0.0
C1103 C 0.19595 0.33386 0.35941 0.0
C1104 C 0.2543 0.33023 0.36294 0.0
C1105 C 0.25325 0.33047 0.32883 0.0
N1106 N 0.22151 0.33581 0.27837 0.0
N1107 N 0.23123 0.34208 0.41054 0.0
C1108 C 0.22277 0.33157 0.31027 0.0
C1109 C 0.22704 0.33504 0.37812 0.0
N1110 N 0.16386 0.32367 0.30649 0.0
N1111 N 0.28091 0.32387 0.38106 0.0
H1112 H 0.21235 0.34551 0.42247 0.0
H1113 H 0.25394 0.347 0.42514 0.0
H1114 H 0.30039 0.31892 0.37107 0.0
H1115 H 0.28213 0.32018 0.40531 0.0
H1116 H 0.16007 0.31753 0.28185 0.0
H1117 H 0.14233 0.32121 0.31614 0.0
H1118 H 0.20132 0.34052 0.26421 0.0
H1119 H 0.24179 0.33774 0.26678 0.0
C1120 C 0.98531 0.05248 0.11035 0.0
C1121 C 0.98402 0.07223 0.1367 0.0
C1122 C 1.02783 0.11007 0.12009 0.0
C1123 C 1.03729 0.08519 0.10425 0.0
N1124 N 1.02614 0.02973 0.093 0.0
N1125 N 0.9951 0.12466 0.15878 0.0
C1126 C 1.01578 0.05558 0.10027 0.0
C1127 C 1.00176 0.10308 0.13829 0.0
N1128 N 0.96071 0.02719 0.10088 0.0
N1129 N 1.04385 0.13971 0.11807 0.0
H1130 H 0.97492 0.11953 0.1706 0.0
H1131 H 1.00933 0.14698 0.16406 0.0
H1132 H 0.06243 0.14505 0.1043 0.0
H1133 H 1.03696 0.15884 0.12765 0.0
H1134 H 0.96101 1.01168 0.08155 0.0
H1135 H 0.93943 1.02381 0.11113 0.0
H1136 H 1.01201 1.00758 0.09365 0.0
H1137 H 0.04961 0.03057 0.08876 0.0
C1138 C 0.32095 0.7692 0.4424 0.0
C1139 C 0.3383 0.78914 0.46961 0.0
C1140 C 0.35942 0.8281 0.43445 0.0
C1141 C 0.34298 0.80765 0.40725 0.0
N1142 N 0.31378 0.75659 0.38497 0.0
N1143 N 0.37787 0.83509 0.49224 0.0
C1144 C 0.32544 0.77755 0.41114 0.0
C1145 C 0.35878 0.81788 0.46583 0.0
N1146 N 0.299 0.74284 0.44637 0.0
N1147 N 0.37438 0.85766 0.43031 0.0
H1148 H 0.37755 0.8282 0.51544 0.0
H1149 H 0.39573 0.85485 0.49105 0.0
H1150 H 0.37539 0.86582 0.40771 0.0
H1151 H 0.38385 0.87474 0.44913 0.0
H1152 H 0.28256 0.72951 0.42753 0.0
H1153 H 0.29536 0.73532 0.4688 0.0
H1154 H 0.30429 0.73326 0.38655 0.0
H1155 H 0.31611 0.7619 0.36161 0.0
C1156 C 0.58695 0.96069 0.62877 0.0
C1157 C 0.5628 0.96221 0.64803 0.0
C1158 C 0.53758 0.99264 0.60968 0.0
C1159 C 0.56634 0.99792 0.59565 0.0
N1160 N 0.61728 0.9848 0.5892 0.0
N1161 N 0.50747 0.96562 0.64848 0.0
C1162 C 0.5903 0.9806 0.60376 0.0
C1163 C 0.53537 0.97353 0.63551 0.0
N1164 N 0.60566 0.93961 0.63368 0.0
N1165 N 0.51342 1.00727 0.59935 0.0
H1166 H 0.50553 0.95044 0.66646 0.0
H1167 H 0.48575 0.97163 0.63986 0.0
H1168 H 0.51402 1.02015 0.57944 0.0
H1169 H 0.49324 1.00722 0.6106 0.0
H1170 H 0.6224 0.936 0.61902 0.0
H1171 H 0.60108 0.92283 0.64972 0.0
H1172 H 0.63761 0.97611 0.59692 0.0
H1173 H 0.61978 0.99827 0.57007 0.0
C1174 C 0.3193 0.35986 0.94208 0.0
C1175 C 0.3208 0.39174 0.94982 0.0
C1176 C 0.32464 0.39916 0.89195 0.0
C1177 C 0.32823 0.36835 0.88588 0.0
N1178 N 0.33416 0.32102 0.90845 0.0
N1179 N 0.32881 0.44262 0.93122 0.0
C1180 C 0.32697 0.34925 0.91192 0.0
C1181 C 0.32407 0.41156 0.92434 0.0
N1182 N 0.30959 0.33925 0.96347 0.0
N1183 N 0.32226 0.41694 0.86679 0.0
H1184 H 0.32856 0.45265 0.954 0.0
H1185 H 0.33536 0.45865 0.91494 0.0
H1186 H 0.32401 0.40927 0.84346 0.0
H1187 H 0.31611 0.43826 0.86858 0.0
H1188 H 0.30494 0.31546 0.95828 0.0
H1189 H 0.30252 0.34588 0.98496 0.0
H1190 H 0.33723 0.30743 0.92746 0.0
H1191 H 0.33979 0.31226 0.88717 0.0
C1192 C 0.09074 0.10151 0.29882 0.0
C1193 C 0.0901 0.07612 0.27711 0.0
C1194 C 0.12787 0.05792 0.31607 0.0
C1195 C 0.11942 0.07672 0.34006 0.0
N1196 N 0.10016 0.12169 0.35473 0.0
N1197 N 0.12314 0.04351 0.25882 0.0
C1198 C 0.1043 0.10112 0.33144 0.0
C1199 C 0.11403 0.05876 0.28356 0.0
N1200 N 0.07771 0.12514 0.28801 0.0
N1201 N 0.14664 0.03767 0.32499 0.0
H1202 H 0.11466 0.04622 0.23492 0.0
H1203 H 0.14136 0.03121 0.26176 0.0
H1204 H 0.15738 0.0377 0.34886 0.0
H1205 H 0.15102 1.02086 0.30921 0.0
H1206 H 0.07855 0.14525 0.30212 0.0
H1207 H 0.06872 0.12543 0.26368 0.0
H1208 H 0.08595 0.13776 0.35053 0.0
H1209 H 0.11079 0.12228 0.37866 0.0
C1210 C 0.32047 0.76227 0.66707 0.0
C1211 C 0.34165 0.77913 0.64802 0.0
C1212 C 0.37264 0.81125 0.69621 0.0
C1213 C 0.34861 0.79736 0.7143 0.0
N1214 N 0.29684 0.76241 0.71571 0.0
N1215 N 0.38717 0.82036 0.64337 0.0
C1216 C 0.32198 0.77329 0.69955 0.0
C1217 C 0.36774 0.80371 0.66232 0.0
N1218 N 0.29881 0.73566 0.65401 0.0
N1219 N 0.4004 0.83114 0.7116 0.0
H1220 H 0.3849 0.81457 0.61872 0.0
H1221 H 0.40426 0.84074 0.65162 0.0
H1222 H 0.40481 0.83675 0.7364 0.0
H1223 H 0.42022 0.83995 0.70038 0.0
H1224 H 0.28514 0.72062 0.66756 0.0
H1225 H 0.29671 0.72709 0.63012 0.0
H1226 H 0.27501 0.7477 0.70487 0.0
H1227 H 0.29642 0.7701 0.73931 0.0
C1228 C 0.5349 0.02771 0.7894 0.0
C1229 C 0.53376 0.99584 0.7827 0.0
C1230 C 0.50388 0.98366 0.82765 0.0
C1231 C 0.50976 1.01564 0.83694 0.0
N1232 N 0.52644 0.06848 0.82419 0.0
N1233 N 0.50897 0.94315 0.78892 0.0
C1234 C 0.52299 0.03759 0.8166 0.0
C1235 C 0.51542 0.97364 0.79977 0.0
N1236 N 0.54865 0.04985 0.77147 0.0
N1237 N 0.48862 0.96317 0.84655 0.0
H1238 H 0.51634 0.93562 0.76793 0.0
H1239 H 0.49456 0.9255 0.79901 0.0
H1240 H 0.47872 0.9703 0.86609 0.0
H1241 H 0.48595 0.93945 0.84332 0.0
H1242 H 0.55828 0.04578 0.75082 0.0
H1243 H 0.55828 0.04578 0.75082 0.0
H1244 H 0.53684 0.08527 0.81013 0.0
H1245 H 0.51874 0.0776 0.84411 0.0
C1246 C 0.29878 0.38003 0.14927 0.0
C1247 C 0.32866 0.39521 0.13968 0.0
C1248 C 0.35788 0.37983 0.18964 0.0
C1249 C 0.32822 0.36676 0.2008 0.0
N1250 N 0.26985 0.3592 0.19222 0.0
N1251 N 0.38606 0.41625 0.1567 0.0
C1252 C 0.29849 0.36824 0.18079 0.0
C1253 C 0.35788 0.3971 0.1618 0.0
N1254 N 0.27065 0.37577 0.12783 0.0
N1255 N 0.38639 0.37399 0.20427 0.0
H1256 H 0.38706 0.43001 0.1375 0.0
H1257 H 0.40741 0.42112 0.17346 0.0
H1258 H 0.3874 0.3598 0.22297 0.0
H1259 H 0.40822 0.37995 0.19527 0.0
H1260 H 0.24858 0.36203 0.13143 0.0
H1261 H 0.26997 0.38446 0.10536 0.0
H1262 H 0.24766 0.36242 0.18071 0.0
H1263 H 0.2688 0.35081 0.21471 0.0
C1264 C 0.33482 1.01696 0.11625 0.0
C1265 C 0.32092 0.99481 0.08964 0.0
C1266 C 0.26804 1.00786 0.09028 0.0
C1267 C 0.28315 0.03316 0.11331 0.0
N1268 N 0.33142 0.06336 0.14696 0.0
N1269 N 0.2754 0.97245 0.048 0.0
C1270 C 0.31675 0.03821 0.12589 0.0
C1271 C 0.28775 0.99099 0.07585 0.0
N1272 N 0.36451 1.01666 0.13345 0.0
N1273 N 0.23487 0.99963 0.08242 0.0
H1274 H 0.28925 0.96038 0.03605 0.0
H1275 H 0.2524 0.97146 0.03504 0.0
H1276 H 0.21944 1.01113 0.09259 0.0
H1277 H 0.22251 0.97952 0.06827 0.0
H1278 H 0.37437 0.03026 0.1549 0.0
H1279 H 0.37788 1.00054 0.12824 0.0
H1280 H 0.35657 0.07034 0.15388 0.0
H1281 H 0.31855 0.07835 0.1561 0.0
C1282 C 0.75618 0.6385 0.06546 0.0
C1283 C 0.76283 0.65405 0.03768 0.0
C1284 C 0.70376 0.63853 1.01578 0.0
C1285 C 0.69713 0.62133 0.0426 0.0
N1286 N 0.71928 0.60018 0.08983 0.0
N1287 N 0.74346 0.66209 0.9832 0.0
C1288 C 0.72407 0.61997 0.06652 0.0
C1289 C 0.73671 0.65176 1.01189 0.0
N1290 N 0.78014 0.64252 0.09159 0.0
N1291 N 0.67854 0.64425 0.99493 0.0
H1292 H 0.76715 0.67152 0.97942 0.0
H1293 H 0.72622 0.65831 0.96235 0.0
H1294 H 0.65428 0.63658 0.99749 0.0
H1295 H 0.68169 0.65941 0.97714 0.0
H1296 H 0.77598 0.63522 0.11394 0.0
H1297 H 0.80384 0.655 0.09148 0.0
H1298 H 0.73823 0.59566 0.106 0.0
H1299 H 0.69661 0.58603 0.09108 0.0
C1300 C 0.73882 0.52088 0.2737 0.0
C1301 C 0.73745 0.53032 0.30597 0.0
C1302 C 0.78791 0.51414 0.32439 0.0
C1303 C 0.78712 0.50142 0.29273 0.0
N1304 N 0.76148 0.49053 0.23733 0.0
N1305 N 0.75911 0.535 0.36258 0.0
C1306 C 0.76263 0.50443 0.26728 0.0
C1307 C 0.76165 0.5268 0.33149 0.0
N1308 N 0.71752 0.52789 0.2493 0.0
N1309 N 0.81412 0.51448 0.34747 0.0
H1310 H 0.74109 0.54569 0.36876 0.0
H1311 H 0.77362 0.52963 0.3825 0.0
H1312 H 0.83371 0.50522 0.34302 0.0
H1313 H 0.81791 0.52609 0.37023 0.0
H1314 H 0.71935 0.52458 0.2251 0.0
H1315 H 0.69915 0.53908 0.25333 0.0
H1316 H 0.74217 0.48871 0.21863 0.0
H1317 H 0.77917 0.47918 0.23157 0.0
C1318 C 0.9611 0.50054 0.54879 0.0
C1319 C 0.96381 0.47401 0.565 0.0
C1320 C 1.01674 0.50192 0.59524 0.0
C1321 C 1.0147 0.52725 0.57671 0.0
N1322 N 0.97694 0.55601 0.55281 0.0
N1323 N 0.98917 0.45256 0.61064 0.0
C1324 C 0.98424 0.52838 0.55893 0.0
C1325 C 0.99023 0.47553 0.59039 0.0
N1326 N 0.93768 0.49901 0.5226 0.0
N1327 N 1.04346 0.50356 0.61797 0.0
H1328 H 0.96962 0.43356 0.60853 0.0
H1329 H 1.00625 0.45331 0.63111 0.0
H1330 H 0.05974 0.52446 0.62637 0.0
H1331 H 0.04911 0.48464 0.62894 0.0
H1332 H 0.93682 0.51749 0.50865 0.0
H1333 H 0.92148 0.47852 0.51275 0.0
H1334 H 0.95404 0.55785 0.5416 0.0
H1335 H 0.99216 0.57685 0.56321 0.0
C1336 C 0.45016 0.18382 0.34077 0.0
C1337 C 0.46012 0.15705 0.33074 0.0
C1338 C 0.40993 0.14128 0.29131 0.0
C1339 C 0.40259 0.17012 0.29845 0.0
N1340 N 0.41965 0.22165 0.32506 0.0
N1341 N 0.45189 0.11217 0.29299 0.0
C1342 C 0.42377 0.19218 0.32188 0.0
C1343 C 0.44053 0.13601 0.30524 0.0
N1344 N 0.46541 0.20088 0.36882 0.0
N1345 N 0.3877 0.11901 0.27132 0.0
H1346 H 0.47451 0.10791 0.30175 0.0
H1347 H 0.44014 0.09818 0.27226 0.0
H1348 H 0.36539 0.12252 0.26027 0.0
H1349 H 0.39024 0.09642 0.26779 0.0
H1350 H 0.457 0.21897 0.37871 0.0
H1351 H 0.48424 0.19483 0.38396 0.0
H1352 H 0.43642 0.23943 0.33948 0.0
H1353 H 0.4012 0.22905 0.31087 0.0
C1354 C 0.46828 0.1429 0.51216 0.0
C1355 C 0.45853 0.15543 0.5401 0.0
C1356 C 0.499 0.13117 0.57272 0.0
C1357 C 0.51135 0.12189 0.5448 0.0
N1358 N 0.51003 0.12496 0.48776 0.0
N1359 N 0.46837 0.16382 0.59772 0.0
C1360 C 0.49635 0.12923 0.51451 0.0
C1361 C 0.47485 0.14996 0.57056 0.0
N1362 N 0.44997 0.14329 0.48287 0.0
N1363 N 0.50943 0.12108 0.60148 0.0
H1364 H 0.45073 0.17684 0.5972 0.0
H1365 H 0.48193 0.16423 0.6204 0.0
H1366 H 0.52621 0.10713 0.604 0.0
H1367 H 0.49927 0.12404 0.6221 0.0
H1368 H 0.45324 0.13176 0.4619 0.0
H1369 H 0.42919 0.15231 0.48014 0.0
H1370 H 0.50295 0.13318 0.46586 0.0
H1371 H 0.53073 0.11608 0.48811 0.0
C1372 C 0.74214 0.72331 0.35487 0.0
C1373 C 0.73392 0.69526 0.33469 0.0
C1374 C 0.77489 0.71774 0.30213 0.0
C1375 C 0.7795 0.74684 0.31955 0.0
N1376 N 0.76015 0.77862 0.35725 0.0
N1377 N 0.73591 0.67021 0.28279 0.0
C1378 C 0.7607 0.75012 0.34415 0.0
C1379 C 0.74851 0.69359 0.30653 0.0
N1380 N 0.73407 0.72424 0.38501 0.0
N1381 N 0.79518 0.71309 0.28105 0.0
H1382 H 0.71449 0.65377 0.28313 0.0
H1383 H 0.74421 0.66961 0.26077 0.0
H1384 H 0.8147 0.73018 0.27696 0.0
H1385 H 0.79441 0.69139 0.27002 0.0
H1386 H 0.7421 0.74375 0.40134 0.0
H1387 H 0.72312 0.70472 0.39524 0.0
H1388 H 0.74429 0.78196 0.37306 0.0
H1389 H 0.77328 0.79901 0.35025 0.0
C1390 C 0.06309 0.5382 0.79998 0.0
C1391 C 0.05981 0.56099 0.82326 0.0
C1392 C 1.01431 0.52456 0.83947 0.0
C1393 C 1.02019 0.50076 0.81908 0.0
N1394 N 0.05381 0.48367 0.78369 0.0
N1395 N 1.03723 0.57359 0.87031 0.0
C1396 C 0.04553 0.50721 0.80023 0.0
C1397 C 1.03668 0.55362 0.84437 0.0
N1398 N 0.08223 0.54628 0.77708 0.0
N1399 N 0.98699 0.51962 0.8537 0.0
H1400 H 0.05421 0.59456 0.87587 0.0
H1401 H 1.02313 0.56789 0.88826 0.0
H1402 H 0.96969 0.49874 0.85026 0.0
H1403 H 0.97989 0.53713 0.86623 0.0
H1404 H 0.08291 0.53129 0.75752 0.0
H1405 H 0.09517 0.56881 0.77598 0.0
H1406 H 0.07432 0.48668 0.77239 0.0
H1407 H 1.04188 0.46063 0.78357 0.0
C1408 C 0.13326 0.97413 0.15229 0.0
C1409 C 0.14979 0.95382 0.1382 0.0
C1410 C 0.12956 0.96692 0.08459 0.0
C1411 C 0.11221 0.98639 0.09885 0.0
N1412 N 0.08914 1.0003 0.1448 0.0
N1413 N 0.15578 0.92409 0.09073 0.0
C1414 C 0.11098 0.98681 0.13221 0.0
C1415 C 0.14547 0.94802 0.10424 0.0
N1416 N 0.14058 0.98332 0.18446 0.0
N1417 N 0.13261 0.96773 0.05288 0.0
H1418 H 0.16653 0.90907 0.10433 0.0
H1419 H 0.15058 0.91724 0.06619 0.0
H1420 H 0.12032 0.9802 0.03729 0.0
H1421 H 0.14875 0.95728 0.0425 0.0
H1422 H 0.13142 1.00051 0.19512 0.0
H1423 H 0.15858 0.97654 0.19999 0.0
H1424 H 0.08526 0.99902 0.16855 0.0
H1425 H 0.07254 1.00982 0.13047 0.0
C1426 C 0.9213 0.20337 0.82151 0.0
C1427 C 0.93249 0.21468 0.8541 0.0
C1428 C 0.92073 0.26388 0.84294 0.0
C1429 C 0.90566 0.25212 0.81132 0.0
N1430 N 0.88725 0.20852 0.77155 0.0
N1431 N 0.9292 0.2512 0.89747 0.0
C1432 C 0.9042 0.22095 0.80092 0.0
C1433 C 0.92695 0.24313 0.86542 0.0
N1434 N 0.92769 0.17645 0.81028 0.0
N1435 N 0.93124 0.29475 0.85136 0.0
H1436 H 0.93228 0.2361 0.91499 0.0
H1437 H 0.92354 0.27146 0.90599 0.0
H1438 H 0.93171 0.31097 0.83463 0.0
H1439 H 0.9437 0.30379 0.87416 0.0
H1440 H 0.92301 0.1685 0.78602 0.0
H1441 H 0.93894 0.16285 0.82553 0.0
H1442 H 0.88312 0.18518 0.76396 0.0
H1443 H 0.87596 0.22144 0.75553 0.0
C1444 C 0.67729 0.30732 0.69085 0.0
C1445 C 0.68038 0.32501 0.66402 0.0
C1446 C 0.66685 0.27767 0.62791 0.0
C1447 C 0.66126 0.26039 0.65458 0.0
N1448 N 0.65273 0.25895 0.70974 0.0
N1449 N 0.67199 0.32753 0.60654 0.0
C1450 C 0.66371 0.27529 0.68552 0.0
C1451 C 0.6735 0.31036 0.63233 0.0
N1452 N 0.68917 0.32066 0.72141 0.0
N1453 N 0.66621 0.26285 0.59854 0.0
H1454 H 0.67603 0.35151 0.60889 0.0
H1455 H 0.66386 0.31794 0.58295 0.0
H1456 H 0.66004 0.23889 0.59413 0.0
H1457 H 0.67376 0.27422 0.57911 0.0
H1458 H 0.6904 0.30801 0.7414 0.0
H1459 H 0.70115 0.34379 0.72654 0.0
H1460 H 0.65092 0.26937 0.7319 0.0
H1461 H 0.64289 0.23524 0.70678 0.0
C1462 C 0.59437 0.8191 0.30591 0.0
C1463 C 0.57939 0.78737 0.29802 0.0
C1464 C 0.61944 0.78256 0.26314 0.0
C1465 C 0.63369 0.81447 0.27052 0.0
N1466 N 0.62984 0.86459 0.29127 0.0
N1467 N 0.57289 0.7404 0.26437 0.0
C1468 C 0.61925 0.83326 0.28916 0.0
C1469 C 0.59036 0.76956 0.27497 0.0
N1470 N 0.58685 0.83509 0.33121 0.0
N1471 N 0.63457 0.76449 0.24627 0.0
H1472 H 0.55153 0.73032 0.27279 0.0
H1473 H 0.57794 0.72725 0.24542 0.0
H1474 H 0.65543 0.77339 0.23651 0.0
H1475 H 0.62756 0.74052 0.24348 0.0
H1476 H 0.59937 0.85739 0.34002 0.0
H1477 H 0.57047 0.82495 0.34569 0.0
H1478 H 0.6182 0.87964 0.30218 0.0
H1479 H 0.64832 0.87552 0.27927 0.0
C1480 C 0.07761 0.20487 0.46057 0.0
C1481 C 0.09628 0.23248 0.4792 0.0
C1482 C 0.11541 0.19785 0.51942 0.0
C1483 C 0.09373 0.17049 0.50283 0.0
N1484 N 0.05107 0.1501 0.45815 0.0
N1485 N 0.13032 0.25406 0.52916 0.0
C1486 C 0.07432 0.17469 0.47333 0.0
C1487 C 0.1143 0.22843 0.5094 0.0
N1488 N 0.06281 0.2074 0.43024 0.0
N1489 N 0.13871 0.1947 0.54406 0.0
H1490 H 0.13165 0.27635 0.52227 0.0
H1491 H 0.14038 0.25328 0.55302 0.0
H1492 H 0.14155 0.17331 0.55118 0.0
H1493 H 0.15748 0.2129 0.55506 0.0
H1494 H 0.05185 0.18856 0.41371 0.0
H1495 H 0.06398 0.22861 0.42063 0.0
H1496 H 1.03358 0.15176 0.43879 0.0
H1497 H 0.04732 0.12834 0.46668 0.0
C1498 C 0.69645 0.30522 0.21205 0.0
C1499 C 0.67936 0.32652 0.22392 0.0
C1500 C 0.72886 0.34905 0.26424 0.0
C1501 C 0.74621 0.32829 0.25164 0.0
N1502 N 0.74825 0.29174 0.20829 0.0
N1503 N 0.68126 0.37189 0.25801 0.0
C1504 C 0.7304 0.30784 0.22407 0.0
C1505 C 0.69632 0.3495 0.24893 0.0
N1506 N 0.67994 0.28173 0.18964 0.0
N1507 N 0.74284 0.36732 0.29188 0.0
H1508 H 0.65763 0.37241 0.24762 0.0
H1509 H 0.69286 0.39116 0.27373 0.0
H1510 H 0.76601 0.36725 0.30385 0.0
H1511 H 0.73076 0.3808 0.30435 0.0
H1512 H 0.6894 0.26308 0.18304 0.0
H1513 H 0.65584 0.2798 0.17901 0.0
H1514 H 0.73942 0.27911 0.18613 0.0
H1515 H 0.77305 0.29342 0.21573 0.0
C1516 C 0.63467 0.93703 1.00201 0.0
C1517 C 0.6076 0.91817 0.98061 0.0
C1518 C 0.57927 0.96208 0.98513 0.0
C1519 C 0.60701 0.98175 1.00518 0.0
N1520 N 0.66354 0.98813 0.02756 0.0
N1521 N 0.55597 0.91613 0.94793 0.0
C1522 C 0.63529 0.96908 1.01218 0.0
C1523 C 0.58064 0.93192 0.97112 0.0
N1524 N 0.65967 0.92399 1.0136 0.0
N1525 N 0.55042 0.97118 0.98094 0.0
H1526 H 0.55549 0.89413 0.93791 0.0
H1527 H 0.53763 0.92576 0.93657 0.0
H1528 H 0.54764 0.9921 0.99092 0.0
H1529 H 0.52833 0.95678 0.97033 0.0
H1530 H 0.67838 0.93451 0.03211 0.0
H1531 H 0.66048 0.90157 1.00594 0.0
H1532 H 0.68591 0.98194 0.03069 0.0
H1533 H 0.66523 1.01126 0.03462 0.0
C1534 C 0.99084 0.84934 0.73718 0.0
C1535 C 0.99502 0.82033 0.72427 0.0
C1536 C 0.94689 0.79556 0.7492 0.0
C1537 C 0.94 0.82439 0.75884 0.0
N1538 N 0.95473 0.87958 0.75613 0.0
N1539 N 0.96943 0.76643 0.71157 0.0
C1540 C 0.96191 0.85151 0.75123 0.0
C1541 C 0.97076 0.79377 0.7285 0.0
N1542 N 1.0151 0.87497 0.73732 0.0
N1543 N 0.93191 0.76941 0.76124 0.0
H1544 H 0.98475 0.76424 0.69484 0.0
H1545 H 0.95058 0.74703 0.71119 0.0
H1546 H 0.91606 0.76951 0.77785 0.0
H1547 H 0.93863 0.74848 0.75808 0.0
H1548 H 1.01569 0.89603 0.74958 0.0
H1549 H 1.03603 0.87451 0.7274 0.0
H1550 H 0.96725 0.89953 0.74773 0.0
H1551 H 0.93442 0.88261 0.76584 0.0
C1552 C 0.21192 0.07052 0.98523 0.0
C1553 C 0.19546 0.06857 0.95334 0.0
C1554 C 0.15087 0.02919 0.96627 0.0
C1555 C 0.16229 0.03933 0.99891 0.0
N1556 N 0.21045 0.05247 0.03839 0.0
N1557 N 0.15197 0.04165 0.91136 0.0
C1558 C 0.1954 0.05418 1.00807 0.0
C1559 C 0.16632 0.04564 0.94284 0.0
N1560 N 0.24198 0.08974 0.99386 0.0
N1561 N 0.12566 1.00405 0.95817 0.0
H1562 H 0.16303 0.05247 0.89326 0.0
H1563 H 0.12862 0.02825 0.90332 0.0
H1564 H 0.11579 0.99115 0.97576 0.0
H1565 H 0.11734 0.99419 0.9347 0.0
H1566 H 0.25382 0.09493 1.01751 0.0
H1567 H 0.25467 0.10098 0.97687 0.0
H1568 H 0.23542 0.06026 0.04572 0.0
H1569 H 0.19793 0.04008 0.05478 0.0
C1570 C 0.83992 0.34854 0.64135 0.0
C1571 C 0.87054 0.36271 0.63329 0.0
C1572 C 0.89745 0.3566 0.68728 0.0
C1573 C 0.86663 0.34491 0.69627 0.0
N1574 N 0.80796 0.33552 0.68378 0.0
N1575 N 0.92724 0.38739 0.65129 0.0
C1576 C 0.83764 0.34244 0.67382 0.0
C1577 C 0.89899 0.36877 0.65703 0.0
N1578 N 0.81322 0.34004 0.61785 0.0
N1579 N 0.92535 0.35494 0.70698 0.0
H1580 H 0.92923 0.39778 0.62994 0.0
H1581 H 0.94764 0.39519 0.66895 0.0
H1582 H 0.92534 0.34533 0.72893 0.0
H1583 H 0.9483 0.36018 0.70007 0.0
H1584 H 0.79102 0.32667 0.62162 0.0
H1585 H 0.81405 0.34408 0.59385 0.0
H1586 H 0.78628 0.33658 0.66936 0.0
H1587 H 0.80522 0.33157 0.70743 0.0
C1588 C 0.60482 0.19385 0.46952 0.0
C1589 C 0.62275 0.18791 0.44517 0.0
C1590 C 0.6491 0.15471 0.47856 0.0
C1591 C 0.62498 0.15413 0.49846 0.0
N1592 N 0.58486 0.17739 0.51827 0.0
N1593 N 0.67386 0.17842 0.43496 0.0
C1594 C 0.60485 0.17565 0.49604 0.0
C1595 C 0.64909 0.17357 0.45262 0.0
N1596 N 0.58894 0.21732 0.46753 0.0
N1597 N 0.6701 0.13556 0.483 0.0
H1598 H 0.6745 0.19359 0.41694 0.0
H1599 H 0.69491 0.17016 0.4402 0.0
H1600 H 0.6711 0.12219 0.50249 0.0
H1601 H 0.68567 0.13219 0.46695 0.0
H1602 H 0.5764 0.22385 0.48515 0.0
H1603 H 0.59161 0.23254 0.44967 0.0
H1604 H 0.5666 0.18966 0.516 0.0
H1605 H 0.58662 0.16597 0.53912 0.0
C1606 C 0.84033 0.74651 0.15532 0.0
C1607 C 0.86654 0.76026 0.13938 0.0
C1608 C 0.88546 0.80013 0.18627 0.0
C1609 C 0.85977 0.78577 0.20272 0.0
N1610 N 0.8164 0.7414 0.20433 0.0
N1611 N 0.91693 0.79751 0.14238 0.0
C1612 C 0.83831 0.75787 0.18752 0.0
C1613 C 0.89001 0.78619 0.15588 0.0
N1614 N 0.81638 0.72294 0.1391 0.0
N1615 N 0.90442 0.82826 0.19864 0.0
H1616 H 0.92053 0.788 0.12042 0.0
H1617 H 0.93682 0.81428 0.15399 0.0
H1618 H 0.90138 0.83955 0.21986 0.0
H1619 H 0.92129 0.84171 0.18668 0.0
H1620 H 0.79432 0.71455 0.14694 0.0
H1621 H 0.81778 0.7128 0.11664 0.0
H1622 H 0.80277 0.7192 0.19669 0.0
H1623 H 0.81375 0.74886 0.22736 0.0
C1624 C 0.09872 0.11458 0.82161 0.0
C1625 C 0.12424 0.14081 0.83191 0.0
C1626 C 0.11612 0.16116 0.78002 0.0
C1627 C 0.0919 0.13393 0.76865 0.0
N1628 N 0.05367 0.08925 0.77997 0.0
N1629 N 0.14838 0.19377 0.82615 0.0
C1630 C 0.08072 0.11227 0.79015 0.0
C1631 C 0.12945 0.16592 0.81297 0.0
N1632 N 0.09306 0.09143 0.84137 0.0
N1633 N 0.129 0.18081 0.75906 0.0
H1634 H 0.15885 0.19758 0.85035 0.0
H1635 H 0.15071 0.21366 0.81399 0.0
H1636 H 0.12045 0.17849 0.73448 0.0
H1637 H 0.14994 0.19829 0.76582 0.0
H1638 H 0.07715 0.07013 0.83426 0.0
H1639 H 0.10529 0.09355 0.86496 0.0
H1640 H 1.04296 0.07371 0.79496 0.0
H1641 H 1.04041 0.08746 0.75685 0.0
C1642 C 0.84095 0.33666 0.44197 0.0
C1643 C 0.84526 0.36816 0.4529 0.0
C1644 C 0.83307 0.37954 0.39666 0.0
C1645 C 0.83582 0.34961 0.38596 0.0
N1646 N 0.84841 0.30115 0.40006 0.0
N1647 N 0.84908 0.4208 0.43939 0.0
C1648 C 0.84091 0.32832 0.40898 0.0
C1649 C 0.84185 0.38997 0.42997 0.0
N1650 N 0.83694 0.31464 0.4632 0.0
N1651 N 0.82173 0.39792 0.37504 0.0
H1652 H 0.85643 0.42988 0.4632 0.0
H1653 H 0.85055 0.43763 0.42314 0.0
H1654 H 0.81407 0.3905 0.35075 0.0
H1655 H 0.81653 0.41891 0.38177 0.0
H1656 H 0.83095 0.2911 0.45604 0.0
H1657 H 0.83595 0.31995 0.48737 0.0
H1658 H 0.8555 0.28641 0.4166 0.0
H1659 H 0.85123 0.29488 0.37672 0.0
C1660 C 0.65681 0.16333 0.29804 0.0
C1661 C 0.6231 0.15758 0.3002 0.0
C1662 C 0.61005 0.12366 0.25041 0.0
C1663 C 0.64382 0.12757 0.24953 0.0
N1664 N 0.69972 0.14739 0.27396 0.0
N1665 N 0.56852 0.12627 0.28295 0.0
C1666 C 0.66738 0.1463 0.27384 0.0
C1667 C 0.5999 0.13613 0.27763 0.0
N1668 N 0.67848 0.18584 0.31834 0.0
N1669 N 0.58757 0.10864 0.22487 0.0
H1670 H 0.55991 0.13369 0.30312 0.0
H1671 H 0.55181 0.10805 0.26913 0.0
H1672 H 0.59376 0.09841 0.20457 0.0
H1673 H 0.56287 0.10856 0.22258 0.0
H1674 H 0.70283 0.19335 0.31587 0.0
H1675 H 0.67159 0.1988 0.33633 0.0
H1676 H 0.71799 0.15807 0.29278 0.0
H1677 H 0.70814 0.13556 0.25615 0.0
C1678 C 0.83461 0.76338 0.92922 0.0
C1679 C 0.86348 0.75864 0.94825 0.0
C1680 C 0.89294 0.77864 0.90338 0.0
C1681 C 0.86469 0.78709 0.887 0.0
N1682 N 0.8109 0.79394 0.89083 0.0
N1683 N 0.92165 0.76522 0.95335 0.0
C1684 C 0.83629 0.7812 0.90186 0.0
C1685 C 0.89308 0.76706 0.93512 0.0
N1686 N 0.80485 0.74953 0.93626 0.0
N1687 N 0.91958 0.78114 0.88841 0.0
H1688 H 0.9226 0.75689 0.97597 0.0
H1689 H 0.94442 0.77386 0.94703 0.0
H1690 H 0.92033 0.78992 0.86604 0.0
H1691 H 0.93974 0.77253 0.89696 0.0
H1692 H 0.78301 0.74983 0.92162 0.0
H1693 H 0.80208 0.73447 0.95424 0.0
H1694 H 0.79113 0.7935 0.9029 0.0
H1695 H 0.81146 0.80794 0.87186 0.0
C1696 C 0.88207 0.13612 0.02564 0.0
C1697 C 0.88712 0.16159 1.00674 0.0
C1698 C 0.92855 0.14146 0.98311 0.0
C1699 C 0.92534 0.11738 1.00384 0.0
N1700 N 0.90306 0.09422 0.04841 0.0
N1701 N 0.91863 0.19155 0.97154 0.0
C1702 C 0.9032 0.11537 0.02614 0.0
C1703 C 0.91127 0.16507 0.9865 0.0
N1704 N 0.85631 0.13107 0.04213 0.0
N1705 N 0.94755 0.14132 0.95965 0.0
H1706 H 0.90649 0.20936 0.97341 0.0
H1707 H 0.93865 0.19712 0.95972 0.0
H1708 H 0.96082 0.12457 0.95658 0.0
H1709 H 0.94808 0.15625 0.94156 0.0
H1710 H 0.84918 0.11109 0.0534 0.0
H1711 H 0.84027 0.14571 0.04237 0.0
H1712 H 0.8902 0.09392 0.06761 0.0
H1713 H 0.91785 0.07836 0.04922 0.0
C1714 C 0.44416 0.49424 0.02088 0.0
C1715 C 0.4262 0.50213 0.04481 0.0
C1716 C 0.4716 0.54795 0.06258 0.0
C1717 C 0.49166 0.53695 0.04226 0.0
N1718 N 0.49733 0.49453 1.00694 0.0
N1719 N 0.42481 0.53581 0.09071 0.0
C1720 C 0.47788 0.50887 0.02249 0.0
C1721 C 0.44042 0.52896 0.06617 0.0
N1722 N 0.42878 0.47265 0.99614 0.0
N1723 N 0.48168 0.57706 0.07762 0.0
H1724 H 0.40193 0.523 0.09343 0.0
H1725 H 0.43548 0.5528 0.10939 0.0
H1726 H 0.50321 0.59207 0.07444 0.0
H1727 H 0.46713 0.58743 0.09041 0.0
H1728 H 0.43956 0.468 0.97633 0.0
H1729 H 0.40407 0.46202 0.99366 0.0
H1730 H 0.48915 0.47254 0.99499 0.0
H1731 H 0.52244 0.50264 1.0091 0.0
C1732 C 0.37331 0.59553 0.74969 0.0
C1733 C 0.40764 0.60649 0.75505 0.0
C1734 C 0.40269 0.65471 0.78207 0.0
C1735 C 0.36827 0.64465 0.77488 0.0
N1736 N 0.32032 0.60779 0.74853 0.0
N1737 N 0.45522 0.64773 0.77158 0.0
C1738 C 0.35338 0.61567 0.75772 0.0
C1739 C 0.4224 0.63651 0.76977 0.0
N1740 N 0.35989 0.56572 0.73755 0.0
N1741 N 0.41647 0.68123 0.80152 0.0
H1742 H 0.47056 0.63484 0.76328 0.0
H1743 H 0.46694 0.67057 0.77888 0.0
H1744 H 0.40283 0.69534 0.81085 0.0
H1745 H 0.44123 0.68805 0.81061 0.0
H1746 H 0.33538 0.5552 0.7364 0.0
H1747 H 0.37374 0.55077 0.73025 0.0
H1748 H 0.30819 0.58851 0.73304 0.0
H1749 H 0.30501 0.62174 0.75474 0.0
C1750 C 0.23393 0.65207 0.54622 0.0
C1751 C 0.23405 0.67849 0.529 0.0
C1752 C 0.18158 0.65249 0.49655 0.0
C1753 C 0.18092 0.62708 0.51552 0.0
N1754 N 0.21551 0.59686 0.54265 0.0
N1755 N 0.21347 0.69993 0.48111 0.0
C1756 C 0.20995 0.62488 0.53542 0.0
C1757 C 0.20943 0.67763 0.5021 0.0
N1758 N 0.25555 0.65309 0.57374 0.0
N1759 N 0.15608 0.65211 0.47278 0.0
H1760 H 0.23422 0.71783 0.48364 0.0
H1761 H 0.19781 0.69935 0.45964 0.0
H1762 H 0.13855 0.63197 0.46435 0.0
H1763 H 0.15252 0.67143 0.46125 0.0
H1764 H 0.25405 0.63491 0.58838 0.0
H1765 H 0.2726 0.67301 0.58377 0.0
H1766 H 0.23738 0.59432 0.55569 0.0
H1767 H 0.20061 0.57626 0.5313 0.0
C1768 C 0.70972 0.96819 0.81977 0.0
C1769 C 0.70553 0.98547 0.79286 0.0
C1770 C 0.76402 0.99478 0.79059 0.0
C1771 C 0.76731 0.97366 0.81409 0.0
N1772 N 0.74399 0.9404 0.85199 0.0
N1773 N 0.72784 1.01456 0.75157 0.0
C1774 C 0.74044 0.96074 0.82935 0.0
C1775 C 0.73254 0.99892 0.7782 0.0
N1776 N 0.68427 0.9591 0.83612 0.0
N1777 N 0.79127 1.01121 0.78059 0.0
H1778 H 0.70526 1.01857 0.74208 0.0
H1779 H 0.74574 1.02181 0.73751 0.0
H1780 H 0.81467 1.00889 0.78967 0.0
H1781 H 0.79113 0.0291 0.76578 0.0
H1782 H 0.6861 0.94882 0.85763 0.0
H1783 H 0.66144 0.96386 0.82931 0.0
H1784 H 0.72509 0.92853 0.8627 0.0
H1785 H 0.76584 0.93403 0.85931 0.0
C1786 C 0.69471 0.98356 0.52765 0.0
C1787 C 0.72834 0.99841 0.53707 0.0
C1788 C 0.70966 0.0457 0.55398 0.0
C1789 C 0.6762 0.03172 0.54131 0.0
N1790 N 0.63838 0.98693 0.51243 0.0
N1791 N 0.76746 0.0455 0.5565 0.0
C1792 C 0.66935 1.00064 0.52699 0.0
C1793 C 0.73559 0.02991 0.54987 0.0
N1794 N 0.68663 0.95227 0.52083 0.0
N1795 N 0.71703 0.07455 0.56964 0.0
H1796 H 0.78666 0.0349 0.55429 0.0
H1797 H 0.77491 0.06924 0.56208 0.0
H1798 H 0.69997 0.08803 0.57047 0.0
H1799 H 0.73968 0.08461 0.58316 0.0
H1800 H 0.66281 0.93913 0.51744 0.0
H1801 H 0.70398 0.93889 0.52214 0.0
H1802 H 0.63263 0.96634 0.49777 0.0
H1803 H 0.61849 0.9968 0.51329 0.0
C1804 C 0.42769 0.46366 0.7775 0.0
C1805 C 0.42643 0.46765 0.74431 0.0
C1806 C 0.38206 0.42163 0.73092 0.0
C1807 C 0.3871 0.41505 0.7635 0.0
N1808 N 0.41335 0.42937 0.8184 0.0
N1809 N 0.40303 0.45155 0.68903 0.0
C1810 C 0.4093 0.43615 0.78706 0.0
C1811 C 0.4034 0.4472 0.72087 0.0
N1812 N 0.44625 0.48643 0.79975 0.0
N1813 N 0.35704 0.40335 0.70975 0.0
H1814 H 0.41763 0.47069 0.68109 0.0
H1815 H 0.38957 0.43564 0.67043 0.0
H1816 H 0.34137 0.38419 0.71638 0.0
H1817 H 0.35022 0.40832 0.6863 0.0
H1818 H 0.44601 0.48637 0.82435 0.0
H1819 H 0.46003 0.50689 0.7934 0.0
H1820 H 0.43199 0.44164 0.83607 0.0
H1821 H 0.39866 0.41047 0.82662 0.0
C1822 C 0.12894 0.60413 0.2943 0.0
C1823 C 0.13263 0.58333 0.26916 0.0
C1824 C 0.17867 0.62169 0.25649 0.0
C1825 C 0.17322 0.64349 0.27964 0.0
N1826 N 0.13955 0.65713 0.31692 0.0
N1827 N 0.15991 0.57322 0.22449 0.0
C1828 C 0.14741 0.63514 0.29766 0.0
C1829 C 0.15716 0.59237 0.24985 0.0
N1830 N 0.10885 0.5939 0.31586 0.0
N1831 N 0.2042 0.62824 0.24 0.0
H1832 H 0.1437 0.55208 0.2171 0.0
H1833 H 0.17769 0.57925 0.20991 0.0
H1834 H 0.22187 0.64889 0.2436 0.0
H1835 H 0.22187 0.64889 0.2436 0.0
H1836 H 0.10785 0.607 0.33672 0.0
H1837 H 0.0954 0.57124 0.31459 0.0
H1838 H 0.1187 0.65323 0.3277 0.0
H1839 H 0.15231 0.68012 0.32 0.0
C1840 C 0.54295 0.66582 0.458 0.0
C1841 C 0.562 0.69039 0.44467 0.0
C1842 C 0.61154 0.67598 0.47008 0.0
C1843 C 0.5922 0.65469 0.48724 0.0
N1844 N 0.53974 0.63667 0.50378 0.0
N1845 N 0.61518 0.72217 0.44188 0.0
C1846 C 0.55799 0.6516 0.48295 0.0
C1847 C 0.59661 0.6964 0.45155 0.0
N1848 N 0.51049 0.65541 0.44636 0.0
N1849 N 0.64372 0.67614 0.47066 0.0
H1850 H 0.60529 0.73807 0.42891 0.0
H1851 H 0.6403 0.72914 0.44915 0.0
H1852 H 0.65528 0.66125 0.48363 0.0
H1853 H 0.65807 0.68909 0.45599 0.0
H1854 H 0.4964 0.63566 0.45371 0.0
H1855 H 0.49871 0.66422 0.42681 0.0
H1856 H 0.51561 0.63793 0.50367 0.0
H1857 H 0.54939 0.62653 0.52335 0.0
C1858 C 0.8107 0.44091 0.76463 0.0
C1859 C 0.77761 0.43391 0.76819 0.0
C1860 C 0.78614 0.39339 0.80232 0.0
C1861 C 0.81612 0.39455 0.79108 0.0
N1862 N 0.86106 0.42341 0.76808 0.0
N1863 N 0.74123 0.41849 0.80565 0.0
C1864 C 0.83027 0.42023 0.77518 0.0
C1865 C 0.7678 0.41518 0.79246 0.0
N1866 N 0.82239 0.4667 0.75018 0.0
N1867 N 0.77477 0.3707 0.82098 0.0
H1868 H 0.72919 0.43591 0.79951 0.0
H1869 H 0.73353 0.40655 0.82468 0.0
H1870 H 0.78869 0.35544 0.82973 0.0
H1871 H 0.75146 0.36655 0.82704 0.0
H1872 H 0.84669 0.47451 0.74773 0.0
H1873 H 0.80742 0.48161 0.74288 0.0
H1874 H 0.87134 0.43962 0.75352 0.0
H1875 H 0.8766 0.40959 0.77668 0.0
C1876 C 1.03623 0.33715 0.96325 0.0
C1877 C 1.0284 0.3215 0.93197 0.0
C1878 C 1.03467 0.37089 0.90832 0.0
C1879 C 1.03829 0.38624 0.93925 0.0
N1880 N 1.039 0.38415 0.99632 0.0
N1881 N 1.0121 0.32333 0.87494 0.0
C1882 C 1.03806 0.36942 0.96684 0.0
C1883 C 1.02544 0.33832 0.90451 0.0
N1884 N 1.04319 0.32151 0.98935 0.0
N1885 N 1.04081 0.38735 0.88268 0.0
H1886 H 1.00327 0.2995 0.8713 0.0
H1887 H 1.00651 0.33481 0.85477 0.0
H1888 H 0.04824 0.41135 0.8848 0.0
H1889 H 1.0415 0.37704 0.86011 0.0
H1890 H 0.05231 0.33231 1.01235 0.0
H1891 H 1.04261 0.29798 0.9876 0.0
H1892 H 1.03524 0.37257 1.0167 0.0
H1893 H 1.04129 0.40789 1.0 0.0
C1894 C 0.07531 0.88092 0.26052 0.0
C1895 C 0.10695 0.88726 0.27894 0.0
C1896 C 0.08417 0.86674 0.32552 0.0
C1897 C 0.0531 0.85769 0.30605 0.0
N1898 N 1.0196 0.85142 0.25382 0.0
N1899 N 0.14262 0.8823 0.32731 0.0
C1900 C 0.0488 0.86339 0.27316 0.0
C1901 C 0.11174 0.87928 0.3111 0.0
N1902 N 0.0704 0.89271 0.23144 0.0
N1903 N 0.0872 0.86373 0.3578 0.0
H1904 H 0.16341 0.89108 0.31741 0.0
H1905 H 0.14773 0.87381 0.3495 0.0
H1906 H 0.06764 0.85373 0.36892 0.0
H1907 H 0.1085 0.87306 0.37386 0.0
H1908 H 0.04739 0.89167 0.2185 0.0
H1909 H 0.08918 0.90622 0.22163 0.0
H1910 H 1.0161 0.85198 0.22895 0.0
H1911 H 0.99942 0.8386 0.26221 0.0
C1912 C 0.57419 0.4532 0.13061 0.0
C1913 C 0.58208 0.42687 0.11527 0.0
C1914 C 0.60307 0.46306 0.07495 0.0
C1915 C 0.59091 0.48805 0.08796 0.0
N1916 N 0.55737 0.50169 0.12534 0.0
N1917 N 0.60123 0.40762 0.06919 0.0
C1918 C 0.5746 0.48158 0.1151 0.0
C1919 C 0.59591 0.43223 0.08649 0.0
N1920 N 0.56722 0.45169 0.16113 0.0
N1921 N 0.62281 0.46889 0.05221 0.0
H1922 H 0.59694 0.38549 0.07688 0.0
H1923 H 0.6075 0.40872 0.04626 0.0
H1924 H 0.62942 0.49063 0.044 0.0
H1925 H 0.63524 0.45313 0.04396 0.0
H1926 H 0.56432 0.47067 0.17493 0.0
H1927 H 0.56834 0.43257 0.17406 0.0
H1928 H 0.54199 0.49674 0.14236 0.0
H1929 H 0.55514 0.52153 0.11419 0.0
C1930 C 0.98754 0.2937 0.3502 0.0
C1931 C 1.00829 0.32035 0.36827 0.0
C1932 C 0.96584 0.34943 0.35222 0.0
C1933 C 0.94573 0.32332 0.33236 0.0
N1934 N 0.94206 0.27251 0.30732 0.0
N1935 N 1.01993 0.37528 0.37992 0.0
C1936 C 0.95795 0.29599 0.32994 0.0
C1937 C 0.99828 0.34872 0.36692 0.0
N1938 N 0.99564 0.26588 0.353 0.0
N1939 N 0.9533 0.37428 0.35925 0.0
H1940 H 1.04374 0.37559 0.39047 0.0
H1941 H 1.01542 0.39709 0.37731 0.0
H1942 H 0.92932 0.37531 0.35113 0.0
H1943 H 0.96547 0.39245 0.37618 0.0
H1944 H 0.97992 0.24497 0.34376 0.0
H1945 H 1.01755 0.26369 0.36631 0.0
H1946 H 0.95138 0.25342 0.30209 0.0
H1947 H 0.92123 0.27357 0.29147 0.0
C1948 C 0.11334 0.72218 0.61436 0.0
C1949 C 0.08255 0.73003 0.61537 0.0
C1950 C 0.05658 0.6771 0.58748 0.0
C1951 C 0.08747 0.66999 0.5848 0.0
N1952 N 0.14533 0.69015 0.59063 0.0
N1953 N 1.02483 0.71528 0.59806 0.0
C1954 C 0.11577 0.69386 0.59689 0.0
C1955 C 0.0543 0.70749 0.60032 0.0
N1956 N 0.14067 0.74139 0.63131 0.0
N1957 N 1.02908 0.65411 0.57945 0.0
H1958 H 1.02242 0.73673 0.6072 0.0
H1959 H 1.00345 0.70188 0.5847 0.0
H1960 H 1.02955 0.63189 0.57088 0.0
H1961 H 1.0062 0.6561 0.58395 0.0
H1962 H 0.16319 0.73554 0.63559 0.0
H1963 H 0.14019 0.76247 0.64292 0.0
H1964 H 0.16649 0.70758 0.59548 0.0
H1965 H 0.14816 0.67053 0.57779 0.0
C1966 C 0.71396 0.80707 0.8649 0.0
C1967 C 0.69875 0.83257 0.86171 0.0
C1968 C 0.73683 0.85174 0.82308 0.0
C1969 C 0.75195 0.82617 0.82618 0.0
N1970 N 0.74747 0.77515 0.84403 0.0
N1971 N 0.69064 0.87436 0.83028 0.0
C1972 C 0.738 0.80247 0.84504 0.0
C1973 C 0.70889 0.85348 0.83861 0.0
N1974 N 0.70697 0.78795 0.88835 0.0
N1975 N 0.74899 0.8745 0.80483 0.0
H1976 H 0.6699 0.8757 0.84026 0.0
H1977 H 0.69397 0.88824 0.81146 0.0
H1978 H 0.76735 0.87301 0.79133 0.0
H1979 H 0.7418 0.8953 0.80384 0.0
H1980 H 0.72004 0.77146 0.89502 0.0
H1981 H 0.68966 0.79013 0.90291 0.0
H1982 H 0.73577 0.75575 0.85394 0.0
H1983 H 0.76555 0.77105 0.83132 0.0
C1984 C 0.52426 0.59539 0.63012 0.0
C1985 C 0.53054 0.568 0.64306 0.0
C1986 C 0.58758 0.5848 0.63836 0.0
C1987 C 0.58142 0.60984 0.62153 0.0
N1988 N 0.54391 0.64051 0.60226 0.0
N1989 N 0.56496 0.53135 0.64209 0.0
C1990 C 0.54964 0.61574 0.6179 0.0
C1991 C 0.56113 0.56089 0.64152 0.0
N1992 N 0.49398 0.6013 0.62853 0.0
N1993 N 0.6183 0.58387 0.65197 0.0
H1994 H 0.54507 0.51258 0.64004 0.0
H1995 H 0.58709 0.52565 0.63982 0.0
H1996 H 0.63766 0.60309 0.6541 0.0
H1997 H 0.62304 0.56588 0.66533 0.0
H1998 H 0.48868 0.6224 0.62347 0.0
H1999 H 0.47369 0.58437 0.63135 0.0
H2000 H 0.52091 0.64477 0.59569 0.0
H2001 H 0.56275 0.65684 0.59553 0.0
C2002 C 0.82786 0.25821 0.92025 0.0
C2003 C 0.83718 0.28175 0.94607 0.0
C2004 C 0.85113 0.32027 0.90785 0.0
C2005 C 0.8445 0.29632 0.88252 0.0
N2006 N 0.8338 0.2418 0.86645 0.0
N2007 N 0.86285 0.33439 0.96542 0.0
C2008 C 0.83497 0.26509 0.88925 0.0
C2009 C 0.85033 0.31259 0.94014 0.0
N2010 N 0.81055 0.22957 0.92478 0.0
N2011 N 0.85683 0.35036 0.90094 0.0
H2012 H 0.8628 0.32947 0.9893 0.0
H2013 H 0.87585 0.35652 0.96291 0.0
H2014 H 0.85711 0.35693 0.87763 0.0
H2015 H 0.8584 0.36871 0.91787 0.0
H2016 H 0.79999 0.21269 0.90597 0.0
H2017 H 0.8038 0.22352 0.94676 0.0
H2018 H 0.83089 0.2188 0.87131 0.0
H2019 H 0.83894 0.24567 0.84351 0.0
C2020 C 1.03009 0.47135 0.13381 0.0
C2021 C 0.05842 0.46622 0.1526 0.0
C2022 C 0.09019 0.48243 0.11064 0.0
C2023 C 0.06444 0.4954 0.09645 0.0
N2024 N 1.00784 0.49713 0.08948 0.0
N2025 N 0.10747 0.44883 0.14979 0.0
C2026 C 1.03335 0.48749 0.10595 0.0
C2027 C 0.08598 0.46566 0.1379 0.0
N2028 N 1.00061 0.46094 0.14319 0.0
N2029 N 0.11923 0.48803 0.09954 0.0
H2030 H 0.10288 0.43466 0.16827 0.0
H2031 H 0.12726 0.44594 0.13905 0.0
H2032 H 0.12244 0.49933 0.07898 0.0
H2033 H 0.1402 0.48246 0.11118 0.0
H2034 H 0.97846 0.46252 0.13011 0.0
H2035 H 0.99854 0.44812 0.16308 0.0
H2036 H 0.98525 0.49489 0.09686 0.0
H2037 H 1.00972 0.50796 0.0683 0.0
C2038 C 0.812 0.85802 0.44243 0.0
C2039 C 0.81914 0.89047 0.45054 0.0
C2040 C 0.82903 0.89696 0.3939 0.0
C2041 C 0.82603 0.86448 0.38724 0.0
N2042 N 0.81856 0.81468 0.40872 0.0
N2043 N 0.83798 0.94102 0.43381 0.0
C2044 C 0.81858 0.84529 0.41255 0.0
C2045 C 0.8281 0.90995 0.42599 0.0
N2046 N 0.7979 0.83902 0.46328 0.0
N2047 N 0.83374 0.91584 0.36979 0.0
H2048 H 0.83716 0.95136 0.45631 0.0
H2049 H 0.84899 0.9564 0.41884 0.0
H2050 H 0.8377 0.90825 0.34725 0.0
H2051 H 0.83192 0.93875 0.37151 0.0
H2052 H 0.78862 0.81543 0.45776 0.0
H2053 H 0.79219 0.84746 0.48476 0.0
H2054 H 0.81769 0.80046 0.42748 0.0
H2055 H 0.82168 0.80368 0.38743 0.0
C2056 C 0.54934 0.60842 0.82383 0.0
C2057 C 0.55895 0.59721 0.79546 0.0
C2058 C 0.61434 0.60243 0.82327 0.0
C2059 C 0.60259 0.60651 0.85228 0.0
N2060 N 0.56685 0.62935 0.87958 0.0
N2061 N 0.60263 0.59809 0.76495 0.0
C2062 C 0.57293 0.61574 0.8521 0.0
C2063 C 0.59248 0.59972 0.79408 0.0
N2064 N 0.5177 0.60961 0.82462 0.0
N2065 N 0.64515 0.59808 0.82424 0.0
H2066 H 0.58645 0.59637 0.74347 0.0
H2067 H 0.62698 0.60113 0.7622 0.0
H2068 H 0.66102 0.60045 0.84602 0.0
H2069 H 0.65447 0.59162 0.8041 0.0
H2070 H 0.50872 0.61355 0.84575 0.0
H2071 H 0.50005 0.60625 0.80422 0.0
H2072 H 0.54631 0.63818 0.88079 0.0
H2073 H 0.58426 0.63443 0.90036 0.0
C2074 C 0.84853 0.26136 0.15063 0.0
C2075 C 0.84689 0.28333 0.1275 0.0
C2076 C 0.85021 0.32318 0.17112 0.0
C2077 C 0.85478 0.30197 0.19438 0.0
N2078 N 0.86696 0.25295 0.20582 0.0
N2079 N 0.85591 0.33692 0.11723 0.0
C2080 C 0.85675 0.27172 0.18397 0.0
C2081 C 0.85097 0.31483 0.13829 0.0
N2082 N 0.84011 0.23049 0.14129 0.0
N2083 N 0.8427 0.35044 0.17969 0.0
H2084 H 0.85774 0.33174 0.09326 0.0
H2085 H 0.86187 0.36044 0.12448 0.0
H2086 H 0.83923 0.35665 0.20284 0.0
H2087 H 0.83609 0.36522 0.16297 0.0
H2088 H 0.83756 0.21373 0.15758 0.0
H2089 H 0.83241 0.22141 0.1175 0.0
H2090 H 0.87171 0.23174 0.19918 0.0
H2091 H 0.87407 0.26003 0.23026 0.0
C2092 C 1.00483 0.44342 0.32207 0.0
C2093 C 1.03843 0.44685 0.321 0.0
C2094 C 0.05114 0.46203 0.37829 0.0
C2095 C 1.01978 0.46835 0.37657 0.0
N2096 N 0.964 0.45778 0.35096 0.0
N2097 N 0.08976 0.443 0.35174 0.0
C2098 C 0.99533 0.45568 0.35001 0.0
C2099 C 0.06011 0.45 0.35026 0.0
N2100 N 0.98291 0.43031 0.29556 0.0
N2101 N 0.07305 0.46919 0.40602 0.0
H2102 H 0.09716 0.43261 0.33223 0.0
H2103 H 0.09716 0.43261 0.33223 0.0
H2104 H 0.06722 0.47807 0.42721 0.0
H2105 H 0.09661 0.46554 0.4077 0.0
H2106 H 0.95776 0.42601 0.29453 0.0
H2107 H 0.99066 0.42183 0.27519 0.0
H2108 H 0.9452 0.4514 0.33152 0.0
H2109 H 0.95712 0.46622 0.37184 0.0
C2110 C 0.85767 0.89559 0.66209 0.0
C2111 C 0.82836 0.8934 0.64001 0.0
C2112 C 0.79865 0.86513 0.68068 0.0
C2113 C 0.82854 0.86403 0.70063 0.0
N2114 N 0.88687 0.87271 0.70429 0.0
N2115 N 0.77054 0.8728 0.6279 0.0
C2116 C 0.85806 0.87796 0.68967 0.0
C2117 C 0.79869 0.87738 0.64936 0.0
N2118 N 0.88553 0.91539 0.65722 0.0
N2119 N 0.77007 0.85534 0.69201 0.0
H2120 H 0.76967 0.88183 0.60559 0.0
H2121 H 0.7487 0.85852 0.6313 0.0
H2122 H 0.76918 0.84663 0.71438 0.0
H2123 H 0.74772 0.85824 0.68057 0.0
H2124 H 0.90687 0.92049 0.67401 0.0
H2125 H 0.88623 0.92939 0.63821 0.0
H2126 H 0.90869 0.87933 0.69542 0.0
H2127 H 0.88825 0.85843 0.72287 0.0
C2128 C 0.8462 0.52912 0.56167 0.0
C2129 C 0.82508 0.49971 0.55187 0.0
C2130 C 0.77828 0.52081 0.5615 0.0
C2131 C 0.79882 0.55092 0.56687 0.0
N2132 N 0.85199 0.58441 0.56995 0.0
N2133 N 0.77048 0.46821 0.53857 0.0
C2134 C 0.83271 0.55526 0.56632 0.0
C2135 C 0.79097 0.49563 0.55103 0.0
N2136 N 0.87916 0.53183 0.56805 0.0
N2137 N 0.74666 0.51619 0.56655 0.0
H2138 H 0.77871 0.44936 0.53018 0.0
H2139 H 0.74523 0.46496 0.53389 0.0
H2140 H 0.7361 0.53404 0.57334 0.0
H2141 H 0.73161 0.49442 0.56657 0.0
H2142 H 0.89563 0.55201 0.57823 0.0
H2143 H 0.88998 0.51309 0.56629 0.0
H2144 H 0.87601 0.58938 0.56577 0.0
H2145 H 0.84337 0.60397 0.57526 0.0
C2146 C 0.2355 0.14832 0.50967 0.0
C2147 C 0.26078 0.15292 0.53666 0.0
C2148 C 0.22118 0.12099 0.56636 0.0
C2149 C 0.19487 0.12023 0.54092 0.0
N2150 N 0.17753 0.13804 0.48966 0.0
N2151 N 0.2765 0.14551 0.59222 0.0
C2152 C 0.2023 0.1349 0.51277 0.0
C2153 C 0.25331 0.13948 0.56533 0.0
N2154 N 0.24336 0.1567 0.48066 0.0
N2155 N 0.21578 0.1032 0.59122 0.0
H2156 H 0.30025 0.15788 0.59214 0.0
H2157 H 0.27168 0.13992 0.61493 0.0
H2158 H 0.19312 0.08903 0.59248 0.0
H2159 H 0.23432 0.10017 0.60886 0.0
H2160 H 0.22702 0.1512 0.4592 0.0
H2161 H 0.26724 0.16631 0.4776 0.0
H2162 H 0.18104 0.15149 0.47052 0.0
H2163 H 0.15306 0.12978 0.49114 0.0
C2164 C 0.30712 0.07594 0.82776 0.0
C2165 C 0.27498 0.06537 0.83415 0.0
C2166 C 0.27568 1.01288 0.81473 0.0
C2167 C 0.30952 1.02262 0.81393 0.0
N2168 N 0.35852 0.06308 0.82197 0.0
N2169 N 0.22938 1.02306 0.83689 0.0
C2170 C 0.32554 0.05415 0.82072 0.0
C2171 C 0.25917 0.03369 0.82805 0.0
N2172 N 0.31972 0.10684 0.82784 0.0
N2173 N 0.25935 0.98375 0.80257 0.0
H2174 H 0.21646 0.03732 0.84714 0.0
H2175 H 0.21859 0.99971 0.8365 0.0
H2176 H 0.27076 0.96795 0.79249 0.0
H2177 H 0.23409 0.97631 0.79963 0.0
H2178 H 0.34195 0.11596 0.82062 0.0
H2179 H 0.30627 0.12322 0.83189 0.0
H2180 H 0.37198 0.08517 0.83041 0.0
H2181 H 0.37288 0.04782 0.81684 0.0
C2182 C 0.48739 0.95725 0.05969 0.0
C2183 C 0.46317 0.96248 0.07779 0.0
C2184 C 0.49368 1.0163 0.0913 0.0
C2185 C 0.51883 1.00981 0.07529 0.0
N2186 N 0.54441 0.97086 0.05611 0.0
N2187 N 0.44741 0.99533 0.11721 0.0
C2188 C 0.51715 0.97925 0.06321 0.0
C2189 C 0.46746 0.99158 0.09554 0.0
N2190 N 0.4816 0.93229 0.03764 0.0
N2191 N 0.4943 0.04597 0.10162 0.0
H2192 H 0.42899 0.97744 0.12205 0.0
H2193 H 0.45115 1.01522 0.13268 0.0
H2194 H 0.5136 0.06429 0.09968 0.0
H2195 H 0.47482 0.05253 0.11019 0.0
H2196 H 0.49785 0.92946 0.02207 0.0
H2197 H 0.45924 0.91655 0.03202 0.0
H2198 H 0.54494 0.94817 0.0493 0.0
H2199 H 0.56718 0.98582 0.06167 0.0
C2200 C 0.97605 0.69411 0.83429 0.0
C2201 C 0.98365 0.66667 0.82242 0.0
C2202 C 0.92873 0.65015 0.79099 0.0
C2203 C 0.92232 0.67899 0.80015 0.0
N2204 N 0.94082 0.73002 0.82793 0.0
N2205 N 0.96928 0.6202 0.78638 0.0
C2206 C 0.9462 0.7014 0.82123 0.0
C2207 C 0.96049 0.64502 0.80003 0.0
N2208 N 0.9969 0.71268 0.85884 0.0
N2209 N 0.90416 0.6274 0.77433 0.0
H2210 H 0.99233 0.61565 0.79223 0.0
H2211 H 0.95473 0.60549 0.76733 0.0
H2212 H 0.8806 0.6304 0.76739 0.0
H2213 H 0.90626 0.60479 0.76985 0.0
H2214 H 0.99113 0.73113 0.87109 0.0
H2215 H 1.01906 0.70813 0.86887 0.0
H2216 H 0.95878 0.74851 0.83968 0.0
H2217 H 0.91896 0.73611 0.81985 0.0
C2218 C 0.97652 0.64914 0.06768 0.0
C2219 C 0.95751 0.65159 0.03753 0.0
C2220 C 0.99162 0.6212 1.01155 0.0
C2221 C 1.00947 0.61706 0.04184 0.0
N2222 N 1.01262 0.62229 0.0994 0.0
N2223 N 0.94289 0.63278 0.98171 0.0
C2224 C 1.00007 0.62976 0.07004 0.0
C2225 C 0.96396 0.6354 1.00989 0.0
N2226 N 0.97319 0.66637 0.09418 0.0
N2227 N 1.00212 0.61329 0.98385 0.0
H2228 H 0.92227 0.64205 0.97963 0.0
H2229 H 0.94378 0.61866 0.96154 0.0
H2230 H 1.02248 0.604 0.98346 0.0
H2231 H 0.99285 0.61906 0.96138 0.0
H2232 H 0.98882 0.66886 0.116 0.0
H2233 H 0.95614 0.68002 0.09362 0.0
H2234 H 1.00458 0.62794 0.12061 0.0
H2235 H 1.02869 0.60767 0.10219 0.0
C2236 C 0.30362 0.20497 0.86512 0.0
C2237 C 0.28027 0.21062 0.88402 0.0
C2238 C 0.2832 0.2613 0.86421 0.0
C2239 C 0.30406 0.25464 0.84264 0.0
N2240 N 0.33301 0.2195 0.82108 0.0
N2241 N 0.26423 0.25035 0.91447 0.0
C2242 C 0.31446 0.22646 0.84307 0.0
C2243 C 0.27482 0.24065 0.88752 0.0
N2244 N 0.31671 0.17991 0.86993 0.0
N2245 N 0.2709 0.28707 0.86241 0.0
H2246 H 0.26268 0.23733 0.93419 0.0
H2247 H 0.26221 0.27292 0.91944 0.0
H2248 H 0.27674 0.30338 0.84637 0.0
H2249 H 0.25269 0.29093 0.8751 0.0
H2250 H 0.33603 0.17559 0.85928 0.0
H2251 H 0.31058 0.16535 0.88772 0.0
H2252 H 0.33873 0.19812 0.8179 0.0
H2253 H 0.34053 0.23433 0.80398 0.0
C2254 C 0.5464 0.05038 0.33535 0.0
C2255 C 0.54748 0.07039 0.363 0.0
C2256 C 0.50398 0.03236 0.38067 0.0
C2257 C 0.50309 1.01232 0.35299 0.0
N2258 N 0.51632 1.00567 0.29988 0.0
N2259 N 0.52447 0.08328 0.4094 0.0
C2260 C 0.52221 1.02241 0.32909 0.0
C2261 C 0.52513 0.06235 0.38472 0.0
N2262 N 0.56885 0.05787 0.31526 0.0
N2263 N 0.48565 1.02227 0.40366 0.0
H2264 H 0.5408 0.1047 0.41411 0.0
H2265 H 0.50669 0.08042 0.42417 0.0
H2266 H 0.46981 1.00066 0.40155 0.0
H2267 H 0.4873 0.03437 0.42582 0.0
H2268 H 0.5719 0.04261 0.29702 0.0
H2269 H 0.58602 0.07878 0.31797 0.0
H2270 H 0.52703 1.01324 0.28023 0.0
H2271 H 0.49811 0.9855 0.29418 0.0
C2272 C 0.68248 0.51291 0.65003 0.0
C2273 C 0.67178 0.48158 0.63804 0.0
C2274 C 0.63505 0.49464 0.59359 0.0
C2275 C 0.64793 0.52636 0.60391 0.0
N2276 N 0.68612 0.56623 0.64003 0.0
N2277 N 0.64051 0.4419 0.59774 0.0
C2278 C 0.67227 0.53566 0.63161 0.0
C2279 C 0.64864 0.47219 0.60971 0.0
N2280 N 0.70193 0.52083 0.67936 0.0
N2281 N 0.61007 0.48596 0.56828 0.0
H2282 H 0.64913 0.42464 0.60957 0.0
H2283 H 0.6269 0.43396 0.57519 0.0
H2284 H 0.60087 0.50147 0.55418 0.0
H2285 H 0.59699 0.46333 0.5622 0.0
H2286 H 0.70735 0.54282 0.69127 0.0
H2287 H 0.71083 0.50484 0.69312 0.0
H2288 H 0.70705 0.57417 0.65698 0.0
H2289 H 0.67782 0.58398 0.62899 0.0
C2290 C 0.39781 0.71296 0.33668 0.0
C2291 C 0.42929 0.72156 0.32819 0.0
C2292 C 0.40974 0.75279 0.28768 0.0
C2293 C 0.38127 0.75064 0.30202 0.0
N2294 N 0.34074 0.71432 0.32371 0.0
N2295 N 0.45709 0.73175 0.28286 0.0
C2296 C 0.37259 0.7259 0.32122 0.0
C2297 C 0.43262 0.73548 0.29919 0.0
N2298 N 0.39256 0.69317 0.35987 0.0
N2299 N 0.41511 0.77181 0.26386 0.0
H2300 H 0.47205 0.71679 0.28983 0.0
H2301 H 0.45989 0.74021 0.26069 0.0
H2302 H 0.39731 0.78254 0.25327 0.0
H2303 H 0.43713 0.77721 0.25514 0.0
H2304 H 0.37138 0.68882 0.3701 0.0
H2305 H 0.41014 0.68144 0.36899 0.0
H2306 H 0.33302 0.6956 0.33659 0.0
H2307 H 0.32171 0.72057 0.30914 0.0
C2308 C 0.19079 0.79851 0.19777 0.0
C2309 C 0.20191 0.81843 0.1746 0.0
C2310 C 0.20043 0.77317 0.13839 0.0
C2311 C 0.18387 0.7541 0.15939 0.0
N2312 N 0.15562 0.75017 0.20515 0.0
N2313 N 0.2117 0.82405 0.11977 0.0
C2314 C 0.17679 0.76717 0.18798 0.0
C2315 C 0.20558 0.8057 0.14407 0.0
N2316 N 0.19444 0.80924 0.22932 0.0
N2317 N 0.21127 0.76031 0.11319 0.0
H2318 H 0.2139 0.84779 0.12195 0.0
H2319 H 0.21128 0.81525 0.09631 0.0
H2320 H 0.20779 0.73654 0.10833 0.0
H2321 H 0.22625 0.77329 0.09904 0.0
H2322 H 0.1886 0.79483 0.24727 0.0
H2323 H 0.20698 0.83163 0.23801 0.0
H2324 H 0.14749 0.75987 0.22457 0.0
H2325 H 0.14424 0.72707 0.19847 0.0
C2326 C 0.0822 0.25079 0.78491 0.0
C2327 C 0.07412 0.26963 0.80908 0.0
C2328 C 0.11597 0.31351 0.7987 0.0
C2329 C 0.12664 0.29347 0.77765 0.0
N2330 N 0.11675 0.24399 0.74676 0.0
N2331 N 0.08358 0.31851 0.84059 0.0
C2332 C 0.10875 0.2627 0.76933 0.0
C2333 C 0.09061 0.30113 0.81599 0.0
N2334 N 0.06506 0.22103 0.77723 0.0
N2335 N 0.13021 0.34432 0.80205 0.0
H2336 H 0.06537 0.31022 0.854 0.0
H2337 H 0.09705 0.3405 0.84929 0.0
H2338 H 0.14907 0.35385 0.78982 0.0
H2339 H 0.12168 0.36081 0.81458 0.0
H2340 H 0.07067 0.20642 0.7598 0.0
H2341 H 0.04504 0.21128 0.78788 0.0
H2342 H 0.13581 0.25087 0.73383 0.0
H2343 H 0.13581 0.25087 0.73383 0.0
C2344 C 0.57733 0.70356 0.9602 0.0
C2345 C 0.59759 0.73101 0.97788 0.0
C2346 C 0.61831 0.69614 1.01688 0.0
C2347 C 0.59527 0.66901 1.00145 0.0
N2348 N 0.5499 0.64915 0.95915 0.0
N2349 N 0.63493 0.75234 0.02601 0.0
C2350 C 0.5743 0.67342 0.97306 0.0
C2351 C 0.61726 0.72678 1.00703 0.0
N2352 N 0.56069 0.70622 0.93072 0.0
N2353 N 0.64278 0.69267 0.04015 0.0
H2354 H 0.63629 0.77463 1.0191 0.0
H2355 H 0.64641 0.75157 0.04937 0.0
H2356 H 0.64553 0.67123 0.04714 0.0
H2357 H 0.66241 0.71059 0.04997 0.0
H2358 H 0.54818 0.68746 0.91471 0.0
H2359 H 0.56168 0.7274 0.92111 0.0
H2360 H 0.53146 0.65104 0.94084 0.0
H2361 H 0.54631 0.62745 0.96783 0.0
C2362 C 0.20274 0.82398 0.71661 0.0
C2363 C 0.17927 0.83375 0.73314 0.0
C2364 C 0.22093 0.84551 0.78278 0.0
C2365 C 0.24449 0.83604 0.76611 0.0
N2366 N 0.25938 0.8226 0.71523 0.0
N2367 N 0.16788 0.85864 0.7806 0.0
C2368 C 0.23572 0.82708 0.73247 0.0
C2369 C 0.18907 0.84598 0.76585 0.0
N2370 N 0.19315 0.81048 0.6859 0.0
N2371 N 0.22856 0.85285 0.81523 0.0
H2372 H 0.14478 0.85937 0.76887 0.0
H2373 H 0.17394 0.87067 0.80326 0.0
H2374 H 0.25152 0.85342 0.82805 0.0
H2375 H 0.2118 0.85653 0.82981 0.0
H2376 H 0.20723 0.7988 0.67388 0.0
H2377 H 0.17013 0.80947 0.67293 0.0
H2378 H 0.25581 0.81919 0.69027 0.0
H2379 H 0.2836 0.8251 0.72569 0.0
C2380 C 0.07376 0.43055 0.47984 0.0
C2381 C 0.10292 0.41901 0.48245 0.0
C2382 C 0.13253 0.47222 0.50742 0.0
C2383 C 0.10278 0.48239 0.50812 0.0
N2384 N 0.04424 0.46677 0.49987 0.0
N2385 N 0.16021 0.42971 0.50259 0.0
C2386 C 0.07329 0.46027 0.49547 0.0
C2387 C 0.13233 0.44026 0.49719 0.0
N2388 N 0.04616 0.41352 0.46107 0.0
N2389 N 0.16137 0.49347 0.51539 0.0
H2390 H 0.16105 0.40728 0.49505 0.0
H2391 H 0.18174 0.44233 0.51642 0.0
H2392 H 0.16262 0.51653 0.52241 0.0
H2393 H 0.18378 0.48898 0.51232 0.0
H2394 H 1.02526 0.42184 0.45489 0.0
H2395 H 0.04533 0.39242 0.4487 0.0
H2396 H 1.02212 0.45058 0.49469 0.0
H2397 H 1.04253 0.48726 0.51187 0.0
C2398 C 0.4687 0.29156 0.22675 0.0
C2399 C 0.49334 0.31797 0.22282 0.0
C2400 C 0.46052 0.34951 0.2497 0.0
C2401 C 0.43805 0.32255 0.25698 0.0
N2402 N 0.42871 0.2674 0.25861 0.0
N2403 N 0.51405 0.37243 0.23615 0.0
C2404 C 0.44445 0.29353 0.24706 0.0
C2405 C 0.48946 0.34702 0.2358 0.0
N2406 N 0.46753 0.26417 0.20999 0.0
N2407 N 0.45392 0.37783 0.25473 0.0
H2408 H 0.5349 0.37175 0.22614 0.0
H2409 H 0.515 0.39349 0.2486 0.0
H2410 H 0.43369 0.38128 0.26429 0.0
H2411 H 0.46682 0.39767 0.24648 0.0
H2412 H 0.44845 0.24489 0.20917 0.0
H2413 H 0.4834 0.26182 0.19385 0.0
H2414 H 0.43465 0.24613 0.2551 0.0
H2415 H 0.41288 0.26769 0.27518 0.0
C2416 C 0.63885 0.54568 0.42314 0.0
C2417 C 0.672 0.56169 0.42614 0.0
C2418 C 0.68256 0.54668 0.48022 0.0
C2419 C 0.64863 0.54043 0.48015 0.0
N2420 N 0.59636 0.51689 0.44998 0.0
N2421 N 0.72721 0.57049 0.4532 0.0
C2422 C 0.62734 0.53362 0.45075 0.0
C2423 C 0.69476 0.55912 0.45306 0.0
N2424 N 0.61845 0.54392 0.39465 0.0
N2425 N 0.70235 0.54303 0.50738 0.0
H2426 H 0.73607 0.57921 0.43295 0.0
H2427 H 0.74509 0.57121 0.47297 0.0
H2428 H 0.69248 0.53483 0.52737 0.0
H2429 H 0.72743 0.54583 0.50915 0.0
H2430 H 0.5934 0.53515 0.39152 0.0
H2431 H 0.62695 0.55151 0.37385 0.0
H2432 H 0.57932 0.51035 0.42913 0.0
H2433 H 0.58888 0.50725 0.4704 0.0
C2434 C 0.34965 0.88233 0.17747 0.0
C2435 C 0.35073 0.85935 0.15313 0.0
C2436 C 0.34374 0.82046 0.19218 0.0
C2437 C 0.34075 0.84329 0.2157 0.0
N2438 N 0.32715 0.89227 0.2252 0.0
N2439 N 0.33825 0.80511 0.13535 0.0
C2440 C 0.33938 0.87309 0.2066 0.0
C2441 C 0.3445 0.82792 0.15987 0.0
N2442 N 0.36043 0.91299 0.17417 0.0
N2443 N 0.34723 0.79211 0.20063 0.0
H2444 H 0.33691 0.80964 0.11128 0.0
H2445 H 0.33068 0.78182 0.13865 0.0
H2446 H 0.34684 0.78544 0.22383 0.0
H2447 H 0.35321 0.77606 0.18506 0.0
H2448 H 0.3624 0.93 0.19276 0.0
H2449 H 0.37113 0.92138 0.15481 0.0
H2450 H 0.32315 0.91336 0.21817 0.0
H2451 H 0.31712 0.88514 0.24539 0.0
C2452 C 0.15655 0.67111 0.95499 0.0
C2453 C 0.12904 0.67766 0.9362 0.0
C2454 C 0.09704 0.66221 0.97839 0.0
C2455 C 0.12071 0.64583 0.99028 0.0
N2456 N 0.17546 0.63792 0.99318 0.0
N2457 N 0.07877 0.6935 0.93699 0.0
C2458 C 0.15174 0.65206 0.9804 0.0
C2459 C 0.10106 0.67815 0.95044 0.0
N2460 N 0.18673 0.6823 0.94748 0.0
N2461 N 0.0712 0.66238 0.99405 0.0
H2462 H 0.08383 0.70827 0.91911 0.0
H2463 H 0.05631 0.69285 0.94417 0.0
H2464 H 0.0694 0.65231 1.01562 0.0
H2465 H 0.05286 0.67386 0.98718 0.0
H2466 H 0.20819 0.67999 0.96144 0.0
H2467 H 0.18993 0.69669 0.92892 0.0
H2468 H 0.19712 0.63905 0.98409 0.0
H2469 H 0.17289 0.62371 1.01186 0.0
C2470 C 0.35457 0.24389 0.66175 0.0
C2471 C 0.36714 0.26359 0.63869 0.0
C2472 C 0.37468 0.30834 0.67978 0.0
C2473 C 0.36244 0.28863 0.70295 0.0
N2474 N 0.34592 0.23668 0.71708 0.0
N2475 N 0.39467 0.31416 0.62846 0.0
C2476 C 0.35427 0.25613 0.69424 0.0
C2477 C 0.3787 0.29571 0.64865 0.0
N2478 N 0.34089 0.21356 0.65207 0.0
N2479 N 0.38247 0.33948 0.6875 0.0
H2480 H 0.39852 0.30563 0.60618 0.0
H2481 H 0.40662 0.3371 0.63466 0.0
H2482 H 0.38273 0.34934 0.71052 0.0
H2483 H 0.38735 0.35567 0.671 0.0
H2484 H 0.32743 0.19861 0.66581 0.0
H2485 H 0.34117 0.20365 0.62922 0.0
H2486 H 0.34345 0.21293 0.71398 0.0
H2487 H 0.3436 0.24448 0.74017 0.0
C2488 C 0.58387 0.54726 0.27701 0.0
C2489 C 0.58383 0.572 0.29933 0.0
C2490 C 0.53697 0.58305 0.2662 0.0
C2491 C 0.54564 0.56711 0.24026 0.0
N2492 N 0.56644 0.52456 0.2219 0.0
N2493 N 0.54764 0.59735 0.32379 0.0
C2494 C 0.56451 0.54498 0.24635 0.0
C2495 C 0.55587 0.58458 0.29701 0.0
N2496 N 0.60238 0.52666 0.2854 0.0
N2497 N 0.51355 0.59942 0.26013 0.0
H2498 H 0.55978 0.59575 0.34673 0.0
H2499 H 0.52686 0.60608 0.32363 0.0
H2500 H 0.50011 0.59801 0.23712 0.0
H2501 H 0.50812 0.6144 0.27721 0.0
H2502 H 0.60305 0.50746 0.27061 0.0
H2503 H 0.61495 0.52766 0.30873 0.0
H2504 H 0.58248 0.50993 0.22353 0.0
H2505 H 0.55137 0.52236 0.19974 0.0
C2506 C 0.31667 0.85613 0.95577 0.0
C2507 C 0.34858 0.86791 0.97304 0.0
C2508 C 0.37127 0.86204 0.92357 0.0
C2509 C 0.33942 0.8533 0.90537 0.0
N2510 N 0.28143 0.84635 0.90383 0.0
N2511 N 0.40511 0.89051 0.97112 0.0
C2512 C 0.31192 0.85147 0.92139 0.0
C2513 C 0.3755 0.87341 0.95623 0.0
N2514 N 0.29111 0.84856 0.97218 0.0
N2515 N 0.39761 0.85785 0.91033 0.0
H2516 H 0.40897 0.90061 0.99463 0.0
H2517 H 0.42467 0.89766 0.95894 0.0
H2518 H 0.39557 0.84742 0.88726 0.0
H2519 H 0.42091 0.86115 0.92359 0.0
H2520 H 0.26782 0.83686 0.96133 0.0
H2521 H 0.29381 0.85198 0.99716 0.0
H2522 H 0.2608 0.84789 0.91381 0.0
H2523 H 0.27713 0.84306 0.87883 0.0
C2524 C 0.18764 0.7036 0.76915 0.0
C2525 C 0.15398 0.70019 0.77008 0.0
C2526 C 0.14138 0.68964 0.71216 0.0
C2527 C 0.17304 0.68412 0.71281 0.0
N2528 N 0.22914 0.69581 0.7373 0.0
N2529 N 0.10449 0.70976 0.74201 0.0
C2530 C 0.19745 0.69535 0.73975 0.0
C2531 C 0.13269 0.70021 0.74124 0.0
N2532 N 0.20923 0.71264 0.79692 0.0
N2533 N 0.1191 0.68219 0.68465 0.0
H2534 H 0.09928 0.71916 0.76329 0.0
H2535 H 0.08856 0.71176 0.72148 0.0
H2536 H 0.12523 0.67488 0.66297 0.0
H2537 H 0.09459 0.68249 0.68352 0.0
H2538 H 0.23418 0.71439 0.79892 0.0
H2539 H 0.20149 0.71926 0.81808 0.0
H2540 H 0.24855 0.70299 0.75605 0.0
H2541 H 0.23591 0.68983 0.71541 0.0
C2542 C 0.37238 0.2946 0.44705 0.0
C2543 C 0.36606 0.26216 0.45002 0.0
C2544 C 0.36268 0.25549 0.39009 0.0
C2545 C 0.36426 0.28768 0.38676 0.0
N2546 N 0.36347 0.33625 0.41475 0.0
N2547 N 0.35076 0.2115 0.42193 0.0
C2548 C 0.36749 0.30677 0.41605 0.0
C2549 C 0.36025 0.24262 0.42082 0.0
N2550 N 0.38382 0.31429 0.47419 0.0
N2551 N 0.36459 0.23695 0.36401 0.0
H2552 H 0.3491 0.20122 0.44339 0.0
H2553 H 0.34211 0.19612 0.4015 0.0
H2554 H 0.36706 0.2451 0.34169 0.0
H2555 H 0.36727 0.21438 0.36537 0.0
H2556 H 0.39217 0.33798 0.47368 0.0
H2557 H 0.38847 0.30653 0.49689 0.0
H2558 H 0.3619 0.35 0.43495 0.0
H2559 H 0.35765 0.34583 0.39339 0.0
C2560 C 0.36808 0.6282 0.5261 0.0
C2561 C 0.38198 0.66037 0.52798 0.0
C2562 C 0.43656 0.64995 0.53288 0.0
C2563 C 0.42247 0.61787 0.52737 0.0
N2564 N 0.3748 0.57626 0.51462 0.0
N2565 N 0.42894 0.70169 0.52715 0.0
C2566 C 0.38817 0.60691 0.52277 0.0
C2567 C 0.41612 0.67124 0.52982 0.0
N2568 N 0.33603 0.61801 0.52898 0.0
N2569 N 0.46948 0.66009 0.54198 0.0
H2570 H 0.41476 0.71799 0.52413 0.0
H2571 H 0.45318 0.71027 0.5248 0.0
H2572 H 0.48522 0.64518 0.54487 0.0
H2573 H 0.48078 0.68298 0.54962 0.0
H2574 H 0.32538 0.59504 0.53111 0.0
H2575 H 0.3207 0.63284 0.53232 0.0
H2576 H 0.34991 0.56734 0.50746 0.0
H2577 H 0.38884 0.55999 0.51258 0.0
C2578 C 0.94287 0.9958 0.52253 0.0
C2579 C 0.92488 1.00235 0.54694 0.0
C2580 C 0.97016 0.04785 0.56667 0.0
C2581 C 0.99022 0.03812 0.54555 0.0
N2582 N 0.99605 0.99752 0.50794 0.0
N2583 N 0.92331 0.03384 0.59445 0.0
C2584 C 0.97654 1.01081 0.52451 0.0
C2585 C 0.939 0.02833 0.56952 0.0
N2586 N 0.92758 0.97518 0.49692 0.0
N2587 N 0.98021 0.0763 0.58322 0.0
H2588 H 0.90045 1.02064 0.59671 0.0
H2589 H 0.93387 0.05007 0.61384 0.0
H2590 H 1.00182 0.09162 0.58081 0.0
H2591 H 0.9656 0.08593 0.59664 0.0
H2592 H 0.93835 0.97162 0.47681 0.0
H2593 H 0.90291 0.96432 0.49419 0.0
H2594 H 0.988 0.97601 0.49494 0.0
H2595 H 1.02113 1.00589 0.51017 0.0
C2596 C 0.95647 0.14532 0.29229 0.0
C2597 C 0.95092 0.11566 0.30367 0.0
C2598 C 0.90799 0.12804 0.33137 0.0
C2599 C 0.90989 0.15534 0.31536 0.0
N2600 N 0.9333 0.18833 0.27717 0.0
N2601 N 0.92002 0.0774 0.3324 0.0
C2602 C 0.93366 0.16378 0.29515 0.0
C2603 C 0.92663 0.10673 0.32322 0.0
N2604 N 0.9838 0.15593 0.27905 0.0
N2605 N 0.88849 0.12265 0.35442 0.0
H2606 H 0.93314 0.06113 0.327 0.0
H2607 H 0.90008 0.06849 0.34343 0.0
H2608 H 0.8745 0.13786 0.36077 0.0
H2609 H 0.88839 0.10466 0.36915 0.0
H2610 H 0.99073 0.17852 0.27312 0.0
H2611 H 1.00133 0.14309 0.27718 0.0
H2612 H 0.9478 0.19338 0.25943 0.0
H2613 H 0.91653 0.20215 0.27786 0.0
C2614 C 0.73095 0.16465 0.05462 0.0
C2615 C 0.73662 0.17523 0.02453 0.0
C2616 C 0.68805 0.13725 0.99765 0.0
C2617 C 0.68027 0.12941 0.02818 0.0
N2618 N 0.69082 0.14112 0.08582 0.0
N2619 N 0.72012 0.17368 0.96734 0.0
C2620 C 0.70097 0.14429 0.05672 0.0
C2621 C 0.71503 0.1621 0.99595 0.0
N2622 N 0.75392 0.17449 0.08145 0.0
N2623 N 0.67026 0.12039 0.97043 0.0
H2624 H 0.7405 0.19081 0.96514 0.0
H2625 H 0.70338 0.16758 0.94621 0.0
H2626 H 0.65062 0.10191 0.97093 0.0
H2627 H 0.67651 0.12299 0.94763 0.0
H2628 H 0.75265 0.16468 0.1032 0.0
H2629 H 0.77566 0.19062 0.08143 0.0
H2630 H 0.70323 0.15403 0.10699 0.0
H2631 H 0.66794 0.12849 0.0882 0.0
C2632 C 0.22678 0.49639 0.2968 0.0
C2633 C 0.19944 0.47187 0.29773 0.0
C2634 C 0.23571 0.43828 0.31607 0.0
C2635 C 0.26304 0.46209 0.31307 0.0
N2636 N 0.28533 0.51283 0.29846 0.0
N2637 N 0.17704 0.41876 0.30501 0.0
C2638 C 0.25877 0.49094 0.3029 0.0
C2639 C 0.20368 0.44261 0.30651 0.0
N2640 N 0.22209 0.52497 0.29033 0.0
N2641 N 0.24041 0.41167 0.3286 0.0
H2642 H 0.15317 0.42136 0.29939 0.0
H2643 H 0.17844 0.39595 0.30725 0.0
H2644 H 0.26325 0.40659 0.33403 0.0
H2645 H 0.22193 0.39554 0.3359 0.0
H2646 H 0.24076 0.54473 0.29286 0.0
H2647 H 0.19908 0.52946 0.28391 0.0
H2648 H 0.28391 0.53294 0.28753 0.0
H2649 H 0.30917 0.5102 0.30427 0.0
C2650 C 0.19363 0.47804 0.03167 0.0
C2651 C 0.22686 0.49458 0.03503 0.0
C2652 C 0.20713 0.54291 0.04453 0.0
C2653 C 0.17363 0.52656 0.0376 0.0
N2654 N 0.13585 0.4777 0.02099 0.0
N2655 N 0.26435 0.54402 0.04152 0.0
C2656 C 0.16729 0.49394 0.03 0.0
C2657 C 0.23331 0.52736 0.04097 0.0
N2658 N 0.18714 0.44667 0.03179 0.0
N2659 N 0.21414 0.57365 0.05428 0.0
H2660 H 0.28378 0.5337 0.03943 0.0
H2661 H 0.27055 0.56793 0.04181 0.0
H2662 H 0.19623 0.58623 0.05483 0.0
H2663 H 0.2375 0.58635 0.06354 0.0
H2664 H 0.1642 0.43318 0.03306 0.0
H2665 H 0.20542 0.43434 0.03429 0.0
H2666 H 0.12961 0.45494 1.01099 0.0
H2667 H 0.11582 0.48745 0.02149 0.0
C2668 C 0.95756 0.93749 0.26813 0.0
C2669 C 0.94317 0.96119 0.2557 0.0
C2670 C 0.89048 0.93335 0.26739 0.0
C2671 C 0.90391 0.90753 0.27436 0.0
N2672 N 0.94929 0.88305 0.27402 0.0
N2673 N 0.89397 0.97855 0.2379 0.0
C2674 C 0.93723 0.90901 0.27283 0.0
C2675 C 0.90908 0.95843 0.25392 0.0
N2676 N 0.99062 0.9424 0.27646 0.0
N2677 N 0.86041 0.93442 0.27444 0.0
H2678 H 0.90618 0.99638 0.2262 0.0
H2679 H 0.86872 0.97549 0.23333 0.0
H2680 H 0.84657 0.91706 0.28553 0.0
H2681 H 0.85089 0.954 0.27255 0.0
H2682 H 1.00192 0.92659 0.28809 0.0
H2683 H 1.00638 0.96361 0.27529 0.0
H2684 H 0.97264 0.88276 0.26954 0.0
H2685 H 0.93507 0.86123 0.27586 0.0
C2686 C 0.64927 0.09167 0.75458 0.0
C2687 C 0.64362 0.07481 0.72401 0.0
C2688 C 0.68785 0.11229 0.70703 0.0
C2689 C 0.69017 0.13128 0.73579 0.0
N2690 N 0.67313 0.14011 0.78681 0.0
N2691 N 0.65729 0.06765 0.67119 0.0
C2692 C 0.67109 0.12112 0.75967 0.0
C2693 C 0.66302 0.08463 0.70027 0.0
N2694 N 0.63409 0.07931 0.77885 0.0
N2695 N 0.70957 0.12072 0.68644 0.0
H2696 H 0.64013 0.04672 0.66605 0.0
H2697 H 0.66845 0.07457 0.65162 0.0
H2698 H 0.72776 0.14097 0.69063 0.0
H2699 H 0.71115 0.10695 0.66632 0.0
H2700 H 0.63965 0.0889 0.80257 0.0
H2701 H 0.6178 0.05789 0.77604 0.0
H2702 H 0.65697 0.13594 0.8032 0.0
H2703 H 0.69009 0.16112 0.79221 0.0
loop_
_geom_bond_atom_site_label_1
_geom_bond_atom_site_label_2
_geom_bond_distance
_geom_bond_site_symmetry_2
_ccdc_geom_bond_type
Zn0 O3 2.031 . S
Zn0 O5 2.049 . S
Zn0 O10 2.067 1_455 S
Zn1 O2 1.962 . S
Zn1 O4 1.986 . S
Zn1 O6 1.996 . S
Zn1 O9 1.943 . S
O2 Zn1 1.962 . S
O2 C7 1.254 . S
O3 Zn0 2.031 . S
O3 C7 1.269 . S
O4 Zn1 1.986 . S
O4 C11 1.262 . S
O5 Zn0 2.049 . S
O5 C13 1.260 . S
O6 Zn1 1.996 . S
O6 C13 1.257 . S
C7 O2 1.254 . S
C7 O3 1.269 . S
C8 O9 1.249 . S
C8 O10 1.270 1_455 S
O9 Zn1 1.943 . S
O9 C8 1.249 . S
O10 Zn0 2.067 1_655 S
O10 C8 1.270 1_655 S
C11 O4 1.262 . S
C11 O12 1.232 . S
O12 C11 1.232 . S
C13 O5 1.260 . S
C13 O6 1.257 . S
Zn14 O17 2.031 . S
Zn14 O19 2.049 . S
Zn14 O24 2.067 . S
Zn15 O16 1.962 . S
Zn15 O18 1.986 . S
Zn15 O20 1.996 . S
Zn15 O23 1.943 . S
O16 Zn15 1.962 . S
O16 C21 1.254 1_455 S
O17 Zn14 2.031 . S
O17 C21 1.269 1_455 S
O18 Zn15 1.986 . S
O18 C25 1.262 . S
O19 Zn14 2.049 . S
O19 C27 1.260 . S
O20 Zn15 1.996 . S
O20 C27 1.257 . S
C21 O16 1.254 1_655 S
C21 O17 1.269 1_655 S
C22 O23 1.249 . S
C22 O24 1.270 . S
O23 Zn15 1.943 . S
O23 C22 1.249 . S
O24 Zn14 2.067 . S
O24 C22 1.270 . S
C25 O18 1.262 . S
C25 O26 1.232 . S
O26 C25 1.232 . S
C27 O19 1.260 . S
C27 O20 1.257 . S
Zn28 O31 2.031 . S
Zn28 O33 2.049 . S
Zn28 O38 2.067 . S
Zn29 O30 1.962 . S
Zn29 O32 1.986 . S
Zn29 O34 1.996 . S
Zn29 O37 1.943 . S
O30 Zn29 1.962 . S
O30 C35 1.254 . S
O31 Zn28 2.031 . S
O31 C35 1.269 . S
O32 Zn29 1.986 . S
O32 C39 1.262 . S
O33 Zn28 2.049 . S
O33 C41 1.260 . S
O34 Zn29 1.996 . S
O34 C41 1.257 . S
C35 O30 1.254 . S
C35 O31 1.269 . S
C36 O37 1.249 . S
C36 O38 1.270 . S
O37 Zn29 1.943 . S
O37 C36 1.249 . S
O38 Zn28 2.067 . S
O38 C36 1.270 . S
C39 O32 1.262 . S
C39 O40 1.232 . S
O40 C39 1.232 . S
C41 O33 1.260 . S
C41 O34 1.257 . S
Zn42 O45 2.031 . S
Zn42 O47 2.049 . S
Zn42 O52 2.067 . S
Zn43 O44 1.962 . S
Zn43 O46 1.986 . S
Zn43 O48 1.996 . S
Zn43 O51 1.943 . S
O44 Zn43 1.962 . S
O44 C49 1.254 . S
O45 Zn42 2.031 . S
O45 C49 1.269 . S
O46 Zn43 1.986 . S
O46 C53 1.262 . S
O47 Zn42 2.049 . S
O47 C55 1.260 . S
O48 Zn43 1.996 . S
O48 C55 1.257 . S
C49 O44 1.254 . S
C49 O45 1.269 . S
C50 O51 1.249 . S
C50 O52 1.270 . S
O51 Zn43 1.943 . S
O51 C50 1.249 . S
O52 Zn42 2.067 . S
O52 C50 1.270 . S
C53 O46 1.262 . S
C53 O54 1.232 . S
O54 C53 1.232 . S
C55 O47 1.260 . S
C55 O48 1.257 . S
Zn56 O59 2.031 . S
Zn56 O61 2.049 . S
Zn56 O66 2.067 . S
Zn57 O58 1.962 . S
Zn57 O60 1.986 . S
Zn57 O62 1.996 . S
Zn57 O65 1.943 . S
O58 Zn57 1.962 . S
O58 C63 1.254 . S
O59 Zn56 2.031 . S
O59 C63 1.269 . S
O60 Zn57 1.986 . S
O60 C67 1.262 . S
O61 Zn56 2.049 . S
O61 C69 1.260 . S
O62 Zn57 1.996 . S
O62 C69 1.257 . S
C63 O58 1.254 . S
C63 O59 1.269 . S
C64 O65 1.249 . S
C64 O66 1.270 . S
O65 Zn57 1.943 . S
O65 C64 1.249 . S
O66 Zn56 2.067 . S
O66 C64 1.270 . S
C67 O60 1.262 . S
C67 O68 1.232 . S
O68 C67 1.232 . S
C69 O61 1.260 . S
C69 O62 1.257 . S
Zn70 O73 2.031 . S
Zn70 O75 2.049 . S
Zn70 O80 2.067 . S
Zn71 O72 1.962 . S
Zn71 O74 1.986 . S
Zn71 O76 1.996 . S
Zn71 O79 1.943 . S
O72 Zn71 1.962 . S
O72 C77 1.254 . S
O73 Zn70 2.031 . S
O73 C77 1.269 . S
O74 Zn71 1.986 . S
O74 C81 1.262 . S
O75 Zn70 2.049 . S
O75 C83 1.260 . S
O76 Zn71 1.996 . S
O76 C83 1.257 . S
C77 O72 1.254 . S
C77 O73 1.269 . S
C78 O79 1.249 . S
C78 O80 1.270 . S
O79 Zn71 1.943 . S
O79 C78 1.249 . S
O80 Zn70 2.067 . S
O80 C78 1.270 . S
C81 O74 1.262 . S
C81 O82 1.232 . S
O82 C81 1.232 . S
C83 O75 1.260 . S
C83 O76 1.257 . S
Zn84 O87 2.031 . S
Zn84 O89 2.049 . S
Zn84 O94 2.067 . S
Zn85 O86 1.962 . S
Zn85 O88 1.986 . S
Zn85 O90 1.996 . S
Zn85 O93 1.943 . S
O86 Zn85 1.962 . S
O86 C91 1.254 . S
O87 Zn84 2.031 . S
O87 C91 1.269 . S
O88 Zn85 1.986 . S
O88 C95 1.262 . S
O89 Zn84 2.049 . S
O89 C97 1.260 . S
O90 Zn85 1.996 . S
O90 C97 1.257 . S
C91 O86 1.254 . S
C91 O87 1.269 . S
C92 O93 1.249 . S
C92 O94 1.270 . S
O93 Zn85 1.943 . S
O93 C92 1.249 . S
O94 Zn84 2.067 . S
O94 C92 1.270 . S
C95 O88 1.262 . S
C95 O96 1.232 . S
O96 C95 1.232 . S
C97 O89 1.260 . S
C97 O90 1.257 . S
Zn98 O101 2.031 . S
Zn98 O103 2.049 . S
Zn98 O108 2.067 . S
Zn99 O100 1.962 . S
Zn99 O102 1.986 . S
Zn99 O104 1.996 . S
Zn99 O107 1.943 1_455 S
O100 Zn99 1.962 . S
O100 C105 1.254 . S
O101 Zn98 2.031 . S
O101 C105 1.269 1_655 S
O102 Zn99 1.986 . S
O102 C109 1.262 . S
O103 Zn98 2.049 . S
O103 C111 1.260 . S
O104 Zn99 1.996 . S
O104 C111 1.257 1_455 S
C105 O100 1.254 . S
C105 O101 1.269 1_455 S
C106 O107 1.249 . S
C106 O108 1.270 . S
O107 Zn99 1.943 1_655 S
O107 C106 1.249 . S
O108 Zn98 2.067 . S
O108 C106 1.270 . S
C109 O102 1.262 . S
C109 O110 1.232 . S
O110 C109 1.232 . S
C111 O103 1.260 . S
C111 O104 1.257 1_655 S
Zn112 O115 2.031 . S
Zn112 O117 2.049 . S
Zn112 O122 2.067 . S
Zn113 O114 1.962 . S
Zn113 O116 1.986 . S
Zn113 O118 1.996 . S
Zn113 O121 1.943 . S
O114 Zn113 1.962 . S
O114 C119 1.254 . S
O115 Zn112 2.031 . S
O115 C119 1.269 . S
O116 Zn113 1.986 . S
O116 C123 1.262 . S
O117 Zn112 2.049 . S
O117 C125 1.260 . S
O118 Zn113 1.996 . S
O118 C125 1.257 . S
C119 O114 1.254 . S
C119 O115 1.269 . S
C120 O121 1.249 . S
C120 O122 1.270 . S
O121 Zn113 1.943 . S
O121 C120 1.249 . S
O122 Zn112 2.067 . S
O122 C120 1.270 . S
C123 O116 1.262 . S
C123 O124 1.232 . S
O124 C123 1.232 . S
C125 O117 1.260 . S
C125 O118 1.257 . S
Zn126 O129 2.031 . S
Zn126 O131 2.049 . S
Zn126 O136 2.067 . S
Zn127 O128 1.962 . S
Zn127 O130 1.986 . S
Zn127 O132 1.996 . S
Zn127 O135 1.943 . S
O128 Zn127 1.962 . S
O128 C133 1.254 . S
O129 Zn126 2.031 . S
O129 C133 1.269 . S
O130 Zn127 1.986 . S
O130 C137 1.262 . S
O131 Zn126 2.049 . S
O131 C139 1.260 . S
O132 Zn127 1.996 . S
O132 C139 1.257 . S
C133 O128 1.254 . S
C133 O129 1.269 . S
C134 O135 1.249 . S
C134 O136 1.270 . S
O135 Zn127 1.943 . S
O135 C134 1.249 . S
O136 Zn126 2.067 . S
O136 C134 1.270 . S
C137 O130 1.262 . S
C137 O138 1.232 . S
O138 C137 1.232 . S
C139 O131 1.260 . S
C139 O132 1.257 . S
Zn140 O143 2.031 . S
Zn140 O145 2.049 . S
Zn140 O150 2.067 . S
Zn141 O142 1.962 . S
Zn141 O144 1.986 . S
Zn141 O146 1.996 . S
Zn141 O149 1.943 . S
O142 Zn141 1.962 . S
O142 C147 1.254 . S
O143 Zn140 2.031 . S
O143 C147 1.269 . S
O144 Zn141 1.986 . S
O144 C151 1.262 . S
O145 Zn140 2.049 . S
O145 C153 1.260 . S
O146 Zn141 1.996 . S
O146 C153 1.257 . S
C147 O142 1.254 . S
C147 O143 1.269 . S
C148 O149 1.249 . S
C148 O150 1.270 . S
O149 Zn141 1.943 . S
O149 C148 1.249 . S
O150 Zn140 2.067 . S
O150 C148 1.270 . S
C151 O144 1.262 . S
C151 O152 1.232 . S
O152 C151 1.232 . S
C153 O145 1.260 . S
C153 O146 1.257 . S
Zn154 O157 2.031 . S
Zn154 O159 2.049 . S
Zn154 O164 2.067 . S
Zn155 O156 1.962 . S
Zn155 O158 1.986 . S
Zn155 O160 1.996 . S
Zn155 O163 1.943 . S
O156 Zn155 1.962 . S
O156 C161 1.254 . S
O157 Zn154 2.031 . S
O157 C161 1.269 . S
O158 Zn155 1.986 . S
O158 C165 1.262 . S
O159 Zn154 2.049 . S
O159 C167 1.260 . S
O160 Zn155 1.996 . S
O160 C167 1.257 . S
C161 O156 1.254 . S
C161 O157 1.269 . S
C162 O163 1.249 . S
C162 O164 1.270 . S
O163 Zn155 1.943 . S
O163 C162 1.249 . S
O164 Zn154 2.067 . S
O164 C162 1.270 . S
C165 O158 1.262 . S
C165 O166 1.232 . S
O166 C165 1.232 . S
C167 O159 1.260 . S
C167 O160 1.257 . S
Zn168 O171 2.031 1_554 S
Zn168 O173 2.049 . S
Zn168 O178 2.067 . S
Zn169 O170 1.962 1_554 S
Zn169 O172 1.986 . S
Zn169 O174 1.996 . S
Zn169 O177 1.943 . S
O170 Zn169 1.962 1_556 S
O170 C175 1.254 . S
O171 Zn168 2.031 1_556 S
O171 C175 1.269 . S
O172 Zn169 1.986 . S
O172 C179 1.262 . S
O173 Zn168 2.049 . S
O173 C181 1.260 . S
O174 Zn169 1.996 . S
O174 C181 1.257 . S
C175 O170 1.254 . S
C175 O171 1.269 . S
C176 O177 1.249 . S
C176 O178 1.270 . S
O177 Zn169 1.943 . S
O177 C176 1.249 . S
O178 Zn168 2.067 . S
O178 C176 1.270 . S
C179 O172 1.262 . S
C179 O180 1.232 . S
O180 C179 1.232 . S
C181 O173 1.260 . S
C181 O174 1.257 . S
Zn182 O185 2.031 1_554 S
Zn182 O187 2.049 . S
Zn182 O192 2.067 . S
Zn183 O184 1.961 . S
Zn183 O186 1.986 1_556 S
Zn183 O188 1.997 1_556 S
Zn183 O191 1.943 . S
O184 Zn183 1.961 . S
O184 C189 1.254 . S
O185 Zn182 2.031 1_556 S
O185 C189 1.269 . S
O186 Zn183 1.986 1_554 S
O186 C193 1.262 . S
O187 Zn182 2.049 . S
O187 C195 1.260 . S
O188 Zn183 1.997 1_554 S
O188 C195 1.257 . S
C189 O184 1.254 . S
C189 O185 1.269 . S
C190 O191 1.249 . S
C190 O192 1.270 1_556 S
O191 Zn183 1.943 . S
O191 C190 1.249 . S
O192 Zn182 2.067 . S
O192 C190 1.270 1_554 S
C193 O186 1.262 . S
C193 O194 1.232 1_554 S
O194 C193 1.232 1_556 S
C195 O187 1.260 . S
C195 O188 1.257 . S
Zn196 O199 2.031 . S
Zn196 O201 2.049 . S
Zn196 O206 2.067 . S
Zn197 O198 1.962 . S
Zn197 O200 1.986 . S
Zn197 O202 1.996 . S
Zn197 O205 1.943 . S
O198 Zn197 1.962 . S
O198 C203 1.254 . S
O199 Zn196 2.031 . S
O199 C203 1.269 . S
O200 Zn197 1.986 . S
O200 C207 1.262 . S
O201 Zn196 2.049 . S
O201 C209 1.260 . S
O202 Zn197 1.996 . S
O202 C209 1.257 . S
C203 O198 1.254 . S
C203 O199 1.269 . S
C204 O205 1.249 . S
C204 O206 1.270 . S
O205 Zn197 1.943 . S
O205 C204 1.249 . S
O206 Zn196 2.067 . S
O206 C204 1.270 . S
C207 O200 1.262 . S
C207 O208 1.232 . S
O208 C207 1.232 . S
C209 O201 1.260 . S
C209 O202 1.257 . S
Zn210 O213 2.031 . S
Zn210 O215 2.049 . S
Zn210 O220 2.067 . S
Zn211 O212 1.962 . S
Zn211 O214 1.986 . S
Zn211 O216 1.996 . S
Zn211 O219 1.943 . S
O212 Zn211 1.962 . S
O212 C217 1.254 . S
O213 Zn210 2.031 . S
O213 C217 1.269 . S
O214 Zn211 1.986 . S
O214 C221 1.262 . S
O215 Zn210 2.049 . S
O215 C223 1.260 . S
O216 Zn211 1.996 . S
O216 C223 1.257 . S
C217 O212 1.254 . S
C217 O213 1.269 . S
C218 O219 1.249 . S
C218 O220 1.270 . S
O219 Zn211 1.943 . S
O219 C218 1.249 . S
O220 Zn210 2.067 . S
O220 C218 1.270 . S
C221 O214 1.262 . S
C221 O222 1.232 . S
O222 C221 1.232 . S
C223 O215 1.260 . S
C223 O216 1.257 . S
Zn224 O227 2.031 . S
Zn224 O229 2.049 . S
Zn224 O234 2.067 . S
Zn225 O226 1.962 . S
Zn225 O228 1.986 . S
Zn225 O230 1.996 . S
Zn225 O233 1.943 1_545 S
O226 Zn225 1.962 . S
O226 C231 1.266 . S
O227 Zn224 2.031 . S
O227 C231 1.257 1_565 S
O228 Zn225 1.986 . S
O228 C235 1.262 . S
O229 Zn224 2.049 . S
O229 C237 1.260 . S
O230 Zn225 1.996 . S
O230 C237 1.257 1_545 S
C231 O226 1.266 . S
C231 O227 1.257 1_545 S
C232 O233 1.249 . S
C232 O234 1.270 . S
O233 Zn225 1.943 1_565 S
O233 C232 1.249 . S
O234 Zn224 2.067 . S
O234 C232 1.270 . S
C235 O228 1.262 . S
C235 O236 1.232 . S
O236 C235 1.232 . S
C237 O229 1.260 . S
C237 O230 1.257 1_565 S
Zn238 O241 2.031 . S
Zn238 O243 2.049 . S
Zn238 O248 2.067 . S
Zn239 O240 1.962 . S
Zn239 O242 1.986 . S
Zn239 O244 1.996 . S
Zn239 O247 1.943 . S
O240 Zn239 1.962 . S
O240 C245 1.254 . S
O241 Zn238 2.031 . S
O241 C245 1.269 . S
O242 Zn239 1.986 . S
O242 C249 1.262 . S
O243 Zn238 2.049 . S
O243 C251 1.260 . S
O244 Zn239 1.996 . S
O244 C251 1.257 . S
C245 O240 1.254 . S
C245 O241 1.269 . S
C246 O247 1.249 . S
C246 O248 1.270 . S
O247 Zn239 1.943 . S
O247 C246 1.249 . S
O248 Zn238 2.067 . S
O248 C246 1.270 . S
C249 O242 1.262 . S
C249 O250 1.232 . S
O250 C249 1.232 . S
C251 O243 1.260 . S
C251 O244 1.257 . S
Zn252 O255 2.031 . S
Zn252 O257 2.049 . S
Zn252 O262 2.067 . S
Zn253 O254 1.962 . S
Zn253 O256 1.986 . S
Zn253 O258 1.996 . S
Zn253 O261 1.943 . S
O254 Zn253 1.962 . S
O254 C259 1.254 . S
O255 Zn252 2.031 . S
O255 C259 1.269 . S
O256 Zn253 1.986 . S
O256 C263 1.262 . S
O257 Zn252 2.049 . S
O257 C265 1.260 . S
O258 Zn253 1.996 . S
O258 C265 1.257 . S
C259 O254 1.254 . S
C259 O255 1.269 . S
C260 O261 1.249 . S
C260 O262 1.270 . S
O261 Zn253 1.943 . S
O261 C260 1.249 . S
O262 Zn252 2.067 . S
O262 C260 1.270 . S
C263 O256 1.262 . S
C263 O264 1.232 . S
O264 C263 1.232 . S
C265 O257 1.260 . S
C265 O258 1.257 . S
Zn266 O269 2.031 . S
Zn266 O271 2.049 . S
Zn266 O276 2.067 . S
Zn267 O268 1.962 . S
Zn267 O270 1.986 . S
Zn267 O272 1.996 . S
Zn267 O275 1.943 1_565 S
O268 Zn267 1.962 . S
O268 C273 1.254 1_565 S
O269 Zn266 2.031 . S
O269 C273 1.269 . S
O270 Zn267 1.986 . S
O270 C277 1.262 . S
O271 Zn266 2.049 . S
O271 C279 1.260 . S
O272 Zn267 1.996 . S
O272 C279 1.257 1_565 S
C273 O268 1.254 1_545 S
C273 O269 1.269 . S
C274 O275 1.249 . S
C274 O276 1.270 . S
O275 Zn267 1.943 1_545 S
O275 C274 1.249 . S
O276 Zn266 2.067 . S
O276 C274 1.270 . S
C277 O270 1.262 . S
C277 O278 1.232 . S
O278 C277 1.232 . S
C279 O271 1.260 . S
C279 O272 1.257 1_545 S
Zn280 O283 2.031 1_554 S
Zn280 O285 2.049 . S
Zn280 O290 2.067 . S
Zn281 O282 1.962 1_554 S
Zn281 O284 1.986 . S
Zn281 O286 1.996 . S
Zn281 O289 1.943 . S
O282 Zn281 1.962 1_556 S
O282 C287 1.254 . S
O283 Zn280 2.031 1_556 S
O283 C287 1.269 . S
O284 Zn281 1.986 . S
O284 C291 1.262 . S
O285 Zn280 2.049 . S
O285 C293 1.260 . S
O286 Zn281 1.996 . S
O286 C293 1.257 . S
C287 O282 1.254 . S
C287 O283 1.269 . S
C288 O289 1.249 . S
C288 O290 1.270 . S
O289 Zn281 1.943 . S
O289 C288 1.249 . S
O290 Zn280 2.067 . S
O290 C288 1.270 . S
C291 O284 1.262 . S
C291 O292 1.232 1_554 S
O292 C291 1.232 1_556 S
C293 O285 1.260 . S
C293 O286 1.257 . S
Zn294 O297 2.031 . S
Zn294 O299 2.049 . S
Zn294 O304 2.067 1_455 S
Zn295 O296 1.974 . S
Zn295 O298 1.973 1_455 S
Zn295 O300 2.018 . S
Zn295 O303 1.932 1_455 S
O296 Zn295 1.974 . S
O296 C301 1.254 . S
O297 Zn294 2.031 . S
O297 C301 1.269 . S
O298 Zn295 1.973 1_655 S
O298 C305 1.262 . S
O299 Zn294 2.049 . S
O299 C307 1.260 . S
O300 Zn295 2.018 . S
O300 C307 1.257 . S
C301 O296 1.254 . S
C301 O297 1.269 . S
C302 O303 1.249 . S
C302 O304 1.270 . S
O303 Zn295 1.932 1_655 S
O303 C302 1.249 . S
O304 Zn294 2.067 1_655 S
O304 C302 1.270 . S
C305 O298 1.262 . S
C305 O306 1.232 . S
O306 C305 1.232 . S
C307 O299 1.260 . S
C307 O300 1.257 . S
Zn308 O311 2.031 . S
Zn308 O313 2.049 . S
Zn308 O318 2.067 . S
Zn309 O310 1.962 . S
Zn309 O312 1.986 . S
Zn309 O314 1.996 . S
Zn309 O317 1.943 . S
O310 Zn309 1.962 . S
O310 C315 1.254 . S
O311 Zn308 2.031 . S
O311 C315 1.269 . S
O312 Zn309 1.986 . S
O312 C319 1.262 . S
O313 Zn308 2.049 . S
O313 C321 1.260 . S
O314 Zn309 1.996 . S
O314 C321 1.257 . S
C315 O310 1.254 . S
C315 O311 1.269 . S
C316 O317 1.249 . S
C316 O318 1.270 . S
O317 Zn309 1.943 . S
O317 C316 1.249 . S
O318 Zn308 2.067 . S
O318 C316 1.270 . S
C319 O312 1.262 . S
C319 O320 1.232 . S
O320 C319 1.232 . S
C321 O313 1.260 . S
C321 O314 1.257 . S
Zn322 O325 2.031 . S
Zn322 O327 2.049 . S
Zn322 O332 2.067 . S
Zn323 O324 1.962 . S
Zn323 O326 1.986 . S
Zn323 O328 1.996 . S
Zn323 O331 1.943 . S
O324 Zn323 1.962 . S
O324 C329 1.254 . S
O325 Zn322 2.031 . S
O325 C329 1.269 . S
O326 Zn323 1.986 . S
O326 C333 1.262 . S
O327 Zn322 2.049 . S
O327 C335 1.260 . S
O328 Zn323 1.996 . S
O328 C335 1.257 . S
C329 O324 1.254 . S
C329 O325 1.269 . S
C330 O331 1.249 . S
C330 O332 1.270 . S
O331 Zn323 1.943 . S
O331 C330 1.249 . S
O332 Zn322 2.067 . S
O332 C330 1.270 . S
C333 O326 1.262 . S
C333 O334 1.232 . S
O334 C333 1.232 . S
C335 O327 1.260 . S
C335 O328 1.257 . S
Tb336 C346 2.825 1_454 S
Tb336 O347 2.347 . S
Tb336 O350 2.366 . S
Tb336 O355 2.418 1_554 S
Tb336 O356 2.384 . S
Tb336 O359 2.479 1_454 S
Tb336 O360 2.471 1_455 S
Eu337 O348 2.418 . S
Eu337 O349 2.384 . S
Eu337 O352 2.479 . S
Eu337 O353 2.471 . S
Eu337 O354 2.347 . S
Eu337 O357 2.366 . S
Eu337 C367 2.825 . S
C338 O354 1.259 1_556 S
C338 O355 1.265 . S
C339 O356 1.255 . S
C339 O357 1.265 . S
C340 C342 1.380 . S
C340 C343 1.374 . S
C340 C346 1.507 . S
C341 C342 1.384 . S
C341 C345 1.387 . S
C341 H368 0.930 . S
C342 C340 1.380 . S
C342 C341 1.384 . S
C342 H369 0.931 . S
C343 C340 1.374 . S
C343 C344 1.390 . S
C343 H370 0.930 1_556 S
C344 C343 1.390 . S
C344 C345 1.391 . S
C344 H371 0.930 . S
C345 C341 1.387 . S
C345 C344 1.391 . S
C346 Tb336 2.825 1_656 S
C346 C340 1.507 . S
C346 O359 1.238 . S
C346 O360 1.247 1_556 S
O347 Tb336 2.347 . S
O347 C351 1.259 . S
O348 Eu337 2.418 . S
O348 C351 1.265 . S
O349 Eu337 2.384 . S
O349 C358 1.255 . S
O350 Tb336 2.366 . S
O350 C358 1.265 . S
C351 O347 1.259 . S
C351 O348 1.265 . S
O352 Eu337 2.479 . S
O352 C367 1.238 . S
O353 Eu337 2.471 . S
O353 C367 1.247 . S
O354 Eu337 2.347 . S
O354 C338 1.259 1_554 S
O355 Tb336 2.418 1_556 S
O355 C338 1.265 . S
O356 Tb336 2.384 . S
O356 C339 1.255 . S
O357 Eu337 2.366 . S
O357 C339 1.265 . S
C358 O349 1.255 . S
C358 O350 1.265 . S
O359 Tb336 2.479 1_656 S
O359 C346 1.238 . S
O360 Tb336 2.471 1_655 S
O360 C346 1.247 1_554 S
C361 C364 1.380 . S
C361 C365 1.374 . S
C361 C367 1.507 . S
C362 C363 1.387 . S
C362 C366 1.391 . S
C363 C362 1.387 . S
C363 C364 1.384 . S
C363 H372 0.930 . S
C364 C361 1.380 . S
C364 C363 1.384 . S
C364 H373 0.931 . S
C365 C361 1.374 . S
C365 C366 1.390 . S
C365 H374 0.930 . S
C366 C362 1.391 . S
C366 C365 1.390 . S
C366 H375 0.930 . S
C367 Eu337 2.825 . S
C367 O352 1.238 . S
C367 O353 1.247 . S
C367 C361 1.507 . S
H368 C341 0.930 . S
H369 C342 0.931 . S
H370 C343 0.930 1_554 S
H371 C344 0.930 . S
H372 C363 0.930 . S
H373 C364 0.931 . S
H374 C365 0.930 . S
H375 C366 0.930 . S
Tb376 C386 2.825 . S
Tb376 O387 2.347 . S
Tb376 O390 2.366 . S
Tb376 O395 2.418 . S
Tb376 O396 2.384 . S
Tb376 O399 2.479 . S
Tb376 O400 2.471 . S
Eu377 O388 2.418 . S
Eu377 O389 2.384 . S
Eu377 O392 2.479 . S
Eu377 O393 2.471 . S
Eu377 O394 2.347 . S
Eu377 O397 2.366 . S
Eu377 C407 2.825 . S
C378 O394 1.259 . S
C378 O395 1.265 . S
C379 O396 1.255 . S
C379 O397 1.265 . S
C380 C382 1.380 . S
C380 C383 1.374 . S
C380 C386 1.507 . S
C381 C382 1.384 . S
C381 C385 1.387 . S
C381 H408 0.930 . S
C382 C380 1.380 . S
C382 C381 1.384 . S
C382 H409 0.931 . S
C383 C380 1.374 . S
C383 C384 1.390 . S
C383 H410 0.930 . S
C384 C383 1.390 . S
C384 C385 1.391 . S
C384 H411 0.930 . S
C385 C381 1.387 . S
C385 C384 1.391 . S
C386 Tb376 2.825 . S
C386 C380 1.507 . S
C386 O399 1.238 . S
C386 O400 1.247 . S
O387 Tb376 2.347 . S
O387 C391 1.259 . S
O388 Eu377 2.418 . S
O388 C391 1.265 . S
O389 Eu377 2.384 . S
O389 C398 1.255 . S
O390 Tb376 2.366 . S
O390 C398 1.265 . S
C391 O387 1.259 . S
C391 O388 1.265 . S
O392 Eu377 2.479 . S
O392 C407 1.238 . S
O393 Eu377 2.471 . S
O393 C407 1.247 . S
O394 Eu377 2.347 . S
O394 C378 1.259 . S
O395 Tb376 2.418 . S
O395 C378 1.265 . S
O396 Tb376 2.384 . S
O396 C379 1.255 . S
O397 Eu377 2.366 . S
O397 C379 1.265 . S
C398 O389 1.255 . S
C398 O390 1.265 . S
O399 Tb376 2.479 . S
O399 C386 1.238 . S
O400 Tb376 2.471 . S
O400 C386 1.247 . S
C401 C404 1.380 . S
C401 C405 1.374 . S
C401 C407 1.507 . S
C402 C403 1.387 . S
C402 C406 1.391 . S
C403 C402 1.387 . S
C403 C404 1.384 . S
C403 H412 0.930 . S
C404 C401 1.380 . S
C404 C403 1.384 . S
C404 H413 0.931 . S
C405 C401 1.374 . S
C405 C406 1.390 . S
C405 H414 0.930 . S
C406 C402 1.391 . S
C406 C405 1.390 . S
C406 H415 0.930 . S
C407 Eu377 2.825 . S
C407 O392 1.238 . S
C407 O393 1.247 . S
C407 C401 1.507 . S
H408 C381 0.930 . S
H409 C382 0.931 . S
H410 C383 0.930 . S
H411 C384 0.930 . S
H412 C403 0.930 . S
H413 C404 0.931 . S
H414 C405 0.930 . S
H415 C406 0.930 . S
Tb416 C426 2.825 1_545 S
Tb416 O427 2.347 . S
Tb416 O430 2.366 . S
Tb416 O435 2.418 . S
Tb416 O436 2.384 . S
Tb416 O439 2.479 1_545 S
Tb416 O440 2.471 1_545 S
Eu417 O428 2.418 . S
Eu417 O429 2.384 . S
Eu417 O432 2.479 . S
Eu417 O433 2.471 . S
Eu417 O434 2.347 . S
Eu417 O437 2.366 . S
Eu417 C447 2.825 . S
C418 O434 1.259 . S
C418 O435 1.265 . S
C419 O436 1.255 . S
C419 O437 1.265 . S
C420 C422 1.380 . S
C420 C423 1.374 . S
C420 C426 1.507 . S
C421 C422 1.384 . S
C421 C425 1.387 . S
C421 H448 0.930 . S
C422 C420 1.380 . S
C422 C421 1.384 . S
C422 H449 0.931 . S
C423 C420 1.374 . S
C423 C424 1.390 . S
C423 H450 0.930 . S
C424 C423 1.390 . S
C424 C425 1.391 . S
C424 H451 0.930 . S
C425 C421 1.387 . S
C425 C424 1.391 . S
C426 Tb416 2.825 1_565 S
C426 C420 1.507 . S
C426 O439 1.238 . S
C426 O440 1.247 . S
O427 Tb416 2.347 . S
O427 C431 1.259 . S
O428 Eu417 2.418 . S
O428 C431 1.265 . S
O429 Eu417 2.384 . S
O429 C438 1.255 . S
O430 Tb416 2.366 . S
O430 C438 1.265 . S
C431 O427 1.259 . S
C431 O428 1.265 . S
O432 Eu417 2.479 . S
O432 C447 1.238 . S
O433 Eu417 2.471 . S
O433 C447 1.247 . S
O434 Eu417 2.347 . S
O434 C418 1.259 . S
O435 Tb416 2.418 . S
O435 C418 1.265 . S
O436 Tb416 2.384 . S
O436 C419 1.255 . S
O437 Eu417 2.366 . S
O437 C419 1.265 . S
C438 O429 1.255 . S
C438 O430 1.265 . S
O439 Tb416 2.479 1_565 S
O439 C426 1.238 . S
O440 Tb416 2.471 1_565 S
O440 C426 1.247 . S
C441 C444 1.380 . S
C441 C445 1.374 . S
C441 C447 1.507 . S
C442 C443 1.387 . S
C442 C446 1.391 . S
C443 C442 1.387 . S
C443 C444 1.384 . S
C443 H452 0.930 . S
C444 C441 1.380 . S
C444 C443 1.384 . S
C444 H453 0.931 . S
C445 C441 1.374 . S
C445 C446 1.390 . S
C445 H454 0.930 . S
C446 C442 1.391 . S
C446 C445 1.390 . S
C446 H455 0.930 . S
C447 Eu417 2.825 . S
C447 O432 1.238 . S
C447 O433 1.247 . S
C447 C441 1.507 . S
H448 C421 0.930 . S
H449 C422 0.931 . S
H450 C423 0.930 . S
H451 C424 0.930 . S
H452 C443 0.930 . S
H453 C444 0.931 . S
H454 C445 0.930 . S
H455 C446 0.930 . S
Tb456 C466 2.825 . S
Tb456 O467 2.347 . S
Tb456 O470 2.366 . S
Tb456 O475 2.418 . S
Tb456 O476 2.384 . S
Tb456 O479 2.479 . S
Tb456 O480 2.471 . S
Eu457 O468 2.418 . S
Eu457 O469 2.384 . S
Eu457 O472 2.479 . S
Eu457 O473 2.471 . S
Eu457 O474 2.347 . S
Eu457 O477 2.366 . S
Eu457 C487 2.825 . S
C458 O474 1.259 . S
C458 O475 1.265 . S
C459 O476 1.255 . S
C459 O477 1.265 . S
C460 C462 1.380 . S
C460 C463 1.374 . S
C460 C466 1.507 . S
C461 C462 1.384 . S
C461 C465 1.387 . S
C461 H488 0.930 . S
C462 C460 1.380 . S
C462 C461 1.384 . S
C462 H489 0.931 . S
C463 C460 1.374 . S
C463 C464 1.390 . S
C463 H490 0.930 . S
C464 C463 1.390 . S
C464 C465 1.391 . S
C464 H491 0.930 . S
C465 C461 1.387 . S
C465 C464 1.391 . S
C466 Tb456 2.825 . S
C466 C460 1.507 . S
C466 O479 1.238 . S
C466 O480 1.247 . S
O467 Tb456 2.347 . S
O467 C471 1.259 . S
O468 Eu457 2.418 . S
O468 C471 1.265 . S
O469 Eu457 2.384 . S
O469 C478 1.255 . S
O470 Tb456 2.366 . S
O470 C478 1.265 . S
C471 O467 1.259 . S
C471 O468 1.265 . S
O472 Eu457 2.479 . S
O472 C487 1.238 . S
O473 Eu457 2.471 . S
O473 C487 1.247 . S
O474 Eu457 2.347 . S
O474 C458 1.259 . S
O475 Tb456 2.418 . S
O475 C458 1.265 . S
O476 Tb456 2.384 . S
O476 C459 1.255 . S
O477 Eu457 2.366 . S
O477 C459 1.265 . S
C478 O469 1.255 . S
C478 O470 1.265 . S
O479 Tb456 2.479 . S
O479 C466 1.238 . S
O480 Tb456 2.471 . S
O480 C466 1.247 . S
C481 C484 1.380 . S
C481 C485 1.374 . S
C481 C487 1.507 . S
C482 C483 1.387 . S
C482 C486 1.391 . S
C483 C482 1.387 . S
C483 C484 1.384 . S
C483 H492 0.930 . S
C484 C481 1.380 . S
C484 C483 1.384 . S
C484 H493 0.931 . S
C485 C481 1.374 . S
C485 C486 1.390 . S
C485 H494 0.930 . S
C486 C482 1.391 . S
C486 C485 1.390 . S
C486 H495 0.930 . S
C487 Eu457 2.825 . S
C487 O472 1.238 . S
C487 O473 1.247 . S
C487 C481 1.507 . S
H488 C461 0.930 . S
H489 C462 0.931 . S
H490 C463 0.930 . S
H491 C464 0.930 . S
H492 C483 0.930 . S
H493 C484 0.931 . S
H494 C485 0.930 . S
H495 C486 0.930 . S
Tb496 C506 2.825 . S
Tb496 O507 2.347 . S
Tb496 O510 2.366 . S
Tb496 O515 2.418 . S
Tb496 O516 2.384 . S
Tb496 O519 2.479 . S
Tb496 O520 2.471 . S
Eu497 O508 2.410 1_455 S
Eu497 O509 2.384 . S
Eu497 O512 2.479 . S
Eu497 O513 2.471 . S
Eu497 O514 2.347 . S
Eu497 O517 2.366 . S
Eu497 C527 2.825 . S
C498 O514 1.259 . S
C498 O515 1.265 . S
C499 O516 1.255 . S
C499 O517 1.265 . S
C500 C502 1.380 . S
C500 C503 1.374 1_455 S
C500 C506 1.507 . S
C501 C502 1.384 . S
C501 C505 1.387 1_455 S
C501 H528 0.930 . S
C502 C500 1.380 . S
C502 C501 1.384 . S
C502 H529 0.931 . S
C503 C500 1.374 1_655 S
C503 C504 1.390 . S
C503 H530 0.930 . S
C504 C503 1.390 . S
C504 C505 1.391 . S
C504 H531 0.930 . S
C505 C501 1.387 1_655 S
C505 C504 1.391 . S
C506 Tb496 2.825 . S
C506 C500 1.507 . S
C506 O519 1.238 . S
C506 O520 1.247 . S
O507 Tb496 2.347 . S
O507 C511 1.259 1_455 S
O508 Eu497 2.410 1_655 S
O508 C511 1.265 . S
O509 Eu497 2.384 . S
O509 C518 1.255 . S
O510 Tb496 2.366 . S
O510 C518 1.265 . S
C511 O507 1.259 1_655 S
C511 O508 1.265 . S
O512 Eu497 2.479 . S
O512 C527 1.238 . S
O513 Eu497 2.471 . S
O513 C527 1.247 . S
O514 Eu497 2.347 . S
O514 C498 1.259 . S
O515 Tb496 2.418 . S
O515 C498 1.265 . S
O516 Tb496 2.384 . S
O516 C499 1.255 . S
O517 Eu497 2.366 . S
O517 C499 1.265 . S
C518 O509 1.255 . S
C518 O510 1.265 . S
O519 Tb496 2.479 . S
O519 C506 1.238 . S
O520 Tb496 2.471 . S
O520 C506 1.247 . S
C521 C524 1.380 . S
C521 C525 1.374 . S
C521 C527 1.507 . S
C522 C523 1.387 . S
C522 C526 1.391 . S
C523 C522 1.387 . S
C523 C524 1.384 . S
C523 H532 0.930 . S
C524 C521 1.380 . S
C524 C523 1.384 . S
C524 H533 0.931 . S
C525 C521 1.374 . S
C525 C526 1.390 . S
C525 H534 0.930 . S
C526 C522 1.391 . S
C526 C525 1.390 . S
C526 H535 0.930 . S
C527 Eu497 2.825 . S
C527 O512 1.238 . S
C527 O513 1.247 . S
C527 C521 1.507 . S
H528 C501 0.930 . S
H529 C502 0.931 . S
H530 C503 0.930 . S
H531 C504 0.930 . S
H532 C523 0.930 . S
H533 C524 0.931 . S
H534 C525 0.930 . S
H535 C526 0.930 . S
Tb536 C546 2.825 . S
Tb536 O547 2.347 . S
Tb536 O550 2.366 . S
Tb536 O555 2.418 . S
Tb536 O556 2.384 . S
Tb536 O559 2.479 . S
Tb536 O560 2.471 . S
Eu537 O548 2.418 . S
Eu537 O549 2.384 . S
Eu537 O552 2.479 . S
Eu537 O553 2.471 . S
Eu537 O554 2.347 . S
Eu537 O557 2.366 . S
Eu537 C567 2.825 . S
C538 O554 1.259 . S
C538 O555 1.265 . S
C539 O556 1.255 . S
C539 O557 1.265 . S
C540 C542 1.380 . S
C540 C543 1.374 . S
C540 C546 1.507 . S
C541 C542 1.384 . S
C541 C545 1.387 . S
C541 H568 0.930 . S
C542 C540 1.380 . S
C542 C541 1.384 . S
C542 H569 0.931 . S
C543 C540 1.374 . S
C543 C544 1.390 . S
C543 H570 0.930 . S
C544 C543 1.390 . S
C544 C545 1.391 . S
C544 H571 0.930 . S
C545 C541 1.387 . S
C545 C544 1.391 . S
C546 Tb536 2.825 . S
C546 C540 1.507 . S
C546 O559 1.238 . S
C546 O560 1.247 . S
O547 Tb536 2.347 . S
O547 C551 1.259 . S
O548 Eu537 2.418 . S
O548 C551 1.265 . S
O549 Eu537 2.384 . S
O549 C558 1.255 . S
O550 Tb536 2.366 . S
O550 C558 1.265 . S
C551 O547 1.259 . S
C551 O548 1.265 . S
O552 Eu537 2.479 . S
O552 C567 1.238 . S
O553 Eu537 2.471 . S
O553 C567 1.247 . S
O554 Eu537 2.347 . S
O554 C538 1.259 . S
O555 Tb536 2.418 . S
O555 C538 1.265 . S
O556 Tb536 2.384 . S
O556 C539 1.255 . S
O557 Eu537 2.366 . S
O557 C539 1.265 . S
C558 O549 1.255 . S
C558 O550 1.265 . S
O559 Tb536 2.479 . S
O559 C546 1.238 . S
O560 Tb536 2.471 . S
O560 C546 1.247 . S
C561 C564 1.380 . S
C561 C565 1.374 . S
C561 C567 1.507 . S
C562 C563 1.387 . S
C562 C566 1.391 . S
C563 C562 1.387 . S
C563 C564 1.384 . S
C563 H572 0.930 . S
C564 C561 1.380 . S
C564 C563 1.384 . S
C564 H573 0.931 . S
C565 C561 1.374 . S
C565 C566 1.390 . S
C565 H574 0.930 . S
C566 C562 1.391 . S
C566 C565 1.390 . S
C566 H575 0.930 . S
C567 Eu537 2.825 . S
C567 O552 1.238 . S
C567 O553 1.247 . S
C567 C561 1.507 . S
H568 C541 0.930 . S
H569 C542 0.931 . S
H570 C543 0.930 . S
H571 C544 0.930 . S
H572 C563 0.930 . S
H573 C564 0.931 . S
H574 C565 0.930 . S
H575 C566 0.930 . S
Tb576 C586 2.825 . S
Tb576 O587 2.347 . S
Tb576 O590 2.366 . S
Tb576 O595 2.418 . S
Tb576 O596 2.384 . S
Tb576 O599 2.479 . S
Tb576 O600 2.471 . S
Eu577 O588 2.418 1_556 S
Eu577 O589 2.384 1_556 S
Eu577 O592 2.479 . S
Eu577 O593 2.471 . S
Eu577 O594 2.347 1_556 S
Eu577 O597 2.366 . S
Eu577 C607 2.825 . S
C578 O594 1.259 . S
C578 O595 1.265 . S
C579 O596 1.255 . S
C579 O597 1.265 1_554 S
C580 C582 1.380 . S
C580 C583 1.374 . S
C580 C586 1.507 . S
C581 C582 1.384 . S
C581 C585 1.387 . S
C581 H608 0.930 . S
C582 C580 1.380 . S
C582 C581 1.384 . S
C582 H609 0.931 . S
C583 C580 1.374 . S
C583 C584 1.390 . S
C583 H610 0.930 . S
C584 C583 1.390 . S
C584 C585 1.391 . S
C584 H611 0.930 . S
C585 C581 1.387 . S
C585 C584 1.391 . S
C586 Tb576 2.825 . S
C586 C580 1.507 . S
C586 O599 1.238 . S
C586 O600 1.247 . S
O587 Tb576 2.347 . S
O587 C591 1.259 . S
O588 Eu577 2.418 1_554 S
O588 C591 1.265 . S
O589 Eu577 2.384 1_554 S
O589 C598 1.255 . S
O590 Tb576 2.366 . S
O590 C598 1.265 . S
C591 O587 1.259 . S
C591 O588 1.265 . S
O592 Eu577 2.479 . S
O592 C607 1.238 . S
O593 Eu577 2.471 . S
O593 C607 1.247 . S
O594 Eu577 2.347 1_554 S
O594 C578 1.259 . S
O595 Tb576 2.418 . S
O595 C578 1.265 . S
O596 Tb576 2.384 . S
O596 C579 1.255 . S
O597 Eu577 2.366 . S
O597 C579 1.265 1_556 S
C598 O589 1.255 . S
C598 O590 1.265 . S
O599 Tb576 2.479 . S
O599 C586 1.238 . S
O600 Tb576 2.471 . S
O600 C586 1.247 . S
C601 C604 1.380 . S
C601 C605 1.374 . S
C601 C607 1.507 . S
C602 C603 1.387 . S
C602 C606 1.391 . S
C603 C602 1.387 . S
C603 C604 1.384 . S
C603 H612 0.930 . S
C604 C601 1.380 . S
C604 C603 1.384 . S
C604 H613 0.931 . S
C605 C601 1.374 . S
C605 C606 1.390 . S
C605 H614 0.930 . S
C606 C602 1.391 . S
C606 C605 1.390 . S
C606 H615 0.930 . S
C607 Eu577 2.825 . S
C607 O592 1.238 . S
C607 O593 1.247 . S
C607 C601 1.507 . S
H608 C581 0.930 . S
H609 C582 0.931 . S
H610 C583 0.930 . S
H611 C584 0.930 . S
H612 C603 0.930 . S
H613 C604 0.931 . S
H614 C605 0.930 . S
H615 C606 0.930 . S
Tb616 C626 2.825 . S
Tb616 O627 2.347 . S
Tb616 O630 2.366 . S
Tb616 O635 2.418 . S
Tb616 O636 2.384 . S
Tb616 O639 2.479 . S
Tb616 O640 2.471 . S
Eu617 O628 2.418 . S
Eu617 O629 2.384 . S
Eu617 O632 2.479 . S
Eu617 O633 2.471 . S
Eu617 O634 2.347 . S
Eu617 O637 2.366 . S
Eu617 C647 2.825 . S
C618 O634 1.259 . S
C618 O635 1.265 . S
C619 O636 1.255 . S
C619 O637 1.265 . S
C620 C622 1.380 . S
C620 C623 1.374 . S
C620 C626 1.507 . S
C621 C622 1.384 . S
C621 C625 1.387 . S
C621 H648 0.930 . S
C622 C620 1.380 . S
C622 C621 1.384 . S
C622 H649 0.931 . S
C623 C620 1.374 . S
C623 C624 1.390 . S
C623 H650 0.930 . S
C624 C623 1.390 . S
C624 C625 1.391 . S
C624 H651 0.930 . S
C625 C621 1.387 . S
C625 C624 1.391 . S
C626 Tb616 2.825 . S
C626 C620 1.507 . S
C626 O639 1.238 . S
C626 O640 1.247 . S
O627 Tb616 2.347 . S
O627 C631 1.259 . S
O628 Eu617 2.418 . S
O628 C631 1.265 . S
O629 Eu617 2.384 . S
O629 C638 1.255 . S
O630 Tb616 2.366 . S
O630 C638 1.265 . S
C631 O627 1.259 . S
C631 O628 1.265 . S
O632 Eu617 2.479 . S
O632 C647 1.238 . S
O633 Eu617 2.471 . S
O633 C647 1.247 . S
O634 Eu617 2.347 . S
O634 C618 1.259 . S
O635 Tb616 2.418 . S
O635 C618 1.265 . S
O636 Tb616 2.384 . S
O636 C619 1.255 . S
O637 Eu617 2.366 . S
O637 C619 1.265 . S
C638 O629 1.255 . S
C638 O630 1.265 . S
O639 Tb616 2.479 . S
O639 C626 1.238 . S
O640 Tb616 2.471 . S
O640 C626 1.247 . S
C641 C644 1.380 . S
C641 C645 1.374 . S
C641 C647 1.507 . S
C642 C643 1.387 . S
C642 C646 1.391 . S
C643 C642 1.387 . S
C643 C644 1.384 . S
C643 H652 0.930 . S
C644 C641 1.380 . S
C644 C643 1.384 . S
C644 H653 0.931 . S
C645 C641 1.374 . S
C645 C646 1.390 . S
C645 H654 0.930 . S
C646 C642 1.391 . S
C646 C645 1.390 . S
C646 H655 0.930 . S
C647 Eu617 2.825 . S
C647 O632 1.238 . S
C647 O633 1.247 . S
C647 C641 1.507 . S
H648 C621 0.930 . S
H649 C622 0.931 . S
H650 C623 0.930 . S
H651 C624 0.930 . S
H652 C643 0.930 . S
H653 C644 0.931 . S
H654 C645 0.930 . S
H655 C646 0.930 . S
Tb656 C666 2.825 . S
Tb656 O667 2.347 1_556 S
Tb656 O670 2.366 . S
Tb656 O675 2.418 . S
Tb656 O676 2.384 1_556 S
Tb656 O679 2.479 . S
Tb656 O680 2.471 . S
Eu657 O668 2.418 . S
Eu657 O669 2.384 . S
Eu657 O672 2.479 . S
Eu657 O673 2.471 . S
Eu657 O674 2.347 . S
Eu657 O677 2.366 . S
Eu657 C687 2.825 . S
C658 O674 1.259 . S
C658 O675 1.265 1_554 S
C659 O676 1.255 . S
C659 O677 1.265 . S
C660 C662 1.380 . S
C660 C663 1.374 . S
C660 C666 1.507 . S
C661 C662 1.384 . S
C661 C665 1.387 . S
C661 H688 0.930 . S
C662 C660 1.380 . S
C662 C661 1.384 . S
C662 H689 0.931 . S
C663 C660 1.374 . S
C663 C664 1.390 . S
C663 H690 0.930 . S
C664 C663 1.390 . S
C664 C665 1.391 . S
C664 H691 0.930 . S
C665 C661 1.387 . S
C665 C664 1.391 . S
C666 Tb656 2.825 . S
C666 C660 1.507 . S
C666 O679 1.238 . S
C666 O680 1.247 . S
O667 Tb656 2.347 1_554 S
O667 C671 1.259 . S
O668 Eu657 2.418 . S
O668 C671 1.265 . S
O669 Eu657 2.384 . S
O669 C678 1.255 1_554 S
O670 Tb656 2.366 . S
O670 C678 1.265 . S
C671 O667 1.259 . S
C671 O668 1.265 . S
O672 Eu657 2.479 . S
O672 C687 1.238 . S
O673 Eu657 2.471 . S
O673 C687 1.247 . S
O674 Eu657 2.347 . S
O674 C658 1.259 . S
O675 Tb656 2.418 . S
O675 C658 1.265 1_556 S
O676 Tb656 2.384 1_554 S
O676 C659 1.255 . S
O677 Eu657 2.366 . S
O677 C659 1.265 . S
C678 O669 1.255 1_556 S
C678 O670 1.265 . S
O679 Tb656 2.479 . S
O679 C666 1.238 . S
O680 Tb656 2.471 . S
O680 C666 1.247 . S
C681 C684 1.380 . S
C681 C685 1.374 . S
C681 C687 1.507 . S
C682 C683 1.387 . S
C682 C686 1.391 . S
C683 C682 1.387 . S
C683 C684 1.384 . S
C683 H692 0.930 . S
C684 C681 1.380 . S
C684 C683 1.384 . S
C684 H693 0.931 . S
C685 C681 1.374 . S
C685 C686 1.390 . S
C685 H694 0.930 . S
C686 C682 1.391 . S
C686 C685 1.390 . S
C686 H695 0.930 . S
C687 Eu657 2.825 . S
C687 O672 1.238 . S
C687 O673 1.247 . S
C687 C681 1.507 . S
H688 C661 0.930 . S
H689 C662 0.931 . S
H690 C663 0.930 . S
H691 C664 0.930 . S
H692 C683 0.930 . S
H693 C684 0.931 . S
H694 C685 0.930 . S
H695 C686 0.930 . S
Tb696 C706 2.825 . S
Tb696 O707 2.347 . S
Tb696 O710 2.366 . S
Tb696 O715 2.418 . S
Tb696 O716 2.384 . S
Tb696 O719 2.479 . S
Tb696 O720 2.471 . S
Eu697 O708 2.418 . S
Eu697 O709 2.384 . S
Eu697 O712 2.479 . S
Eu697 O713 2.471 . S
Eu697 O714 2.347 . S
Eu697 O717 2.366 . S
Eu697 C727 2.825 . S
C698 O714 1.259 . S
C698 O715 1.265 . S
C699 O716 1.255 . S
C699 O717 1.265 . S
C700 C702 1.380 . S
C700 C703 1.374 . S
C700 C706 1.507 . S
C701 C702 1.384 . S
C701 C705 1.387 . S
C701 H728 0.930 . S
C702 C700 1.380 . S
C702 C701 1.384 . S
C702 H729 0.931 . S
C703 C700 1.374 . S
C703 C704 1.390 . S
C703 H730 0.930 . S
C704 C703 1.390 . S
C704 C705 1.391 . S
C704 H731 0.930 . S
C705 C701 1.387 . S
C705 C704 1.391 . S
C706 Tb696 2.825 . S
C706 C700 1.507 . S
C706 O719 1.238 . S
C706 O720 1.247 . S
O707 Tb696 2.347 . S
O707 C711 1.259 . S
O708 Eu697 2.418 . S
O708 C711 1.265 . S
O709 Eu697 2.384 . S
O709 C718 1.255 . S
O710 Tb696 2.366 . S
O710 C718 1.265 . S
C711 O707 1.259 . S
C711 O708 1.265 . S
O712 Eu697 2.479 . S
O712 C727 1.238 . S
O713 Eu697 2.471 . S
O713 C727 1.247 . S
O714 Eu697 2.347 . S
O714 C698 1.259 . S
O715 Tb696 2.418 . S
O715 C698 1.265 . S
O716 Tb696 2.384 . S
O716 C699 1.255 . S
O717 Eu697 2.366 . S
O717 C699 1.265 . S
C718 O709 1.255 . S
C718 O710 1.265 . S
O719 Tb696 2.479 . S
O719 C706 1.238 . S
O720 Tb696 2.471 . S
O720 C706 1.247 . S
C721 C724 1.380 . S
C721 C725 1.374 . S
C721 C727 1.507 . S
C722 C723 1.387 . S
C722 C726 1.391 . S
C723 C722 1.387 . S
C723 C724 1.384 . S
C723 H732 0.930 . S
C724 C721 1.380 . S
C724 C723 1.384 . S
C724 H733 0.931 . S
C725 C721 1.374 . S
C725 C726 1.390 . S
C725 H734 0.930 . S
C726 C722 1.391 . S
C726 C725 1.390 . S
C726 H735 0.930 . S
C727 Eu697 2.825 . S
C727 O712 1.238 . S
C727 O713 1.247 . S
C727 C721 1.507 . S
H728 C701 0.930 . S
H729 C702 0.931 . S
H730 C703 0.930 . S
H731 C704 0.930 . S
H732 C723 0.930 . S
H733 C724 0.931 . S
H734 C725 0.930 . S
H735 C726 0.930 . S
Tb736 C746 2.825 . S
Tb736 O747 2.347 . S
Tb736 O750 2.366 . S
Tb736 O755 2.418 . S
Tb736 O756 2.384 . S
Tb736 O759 2.479 . S
Tb736 O760 2.471 . S
Eu737 O748 2.418 . S
Eu737 O749 2.384 1_455 S
Eu737 O752 2.479 . S
Eu737 O753 2.471 . S
Eu737 O754 2.347 . S
Eu737 O757 2.366 . S
Eu737 C767 2.825 . S
C738 O754 1.259 . S
C738 O755 1.265 . S
C739 O756 1.255 . S
C739 O757 1.265 . S
C740 C742 1.380 . S
C740 C743 1.374 . S
C740 C746 1.507 . S
C741 C742 1.384 . S
C741 C745 1.387 . S
C741 H768 0.930 . S
C742 C740 1.380 . S
C742 C741 1.384 . S
C742 H769 0.931 . S
C743 C740 1.374 . S
C743 C744 1.390 . S
C743 H770 0.930 . S
C744 C743 1.390 . S
C744 C745 1.391 . S
C744 H771 0.930 1_455 S
C745 C741 1.387 . S
C745 C744 1.391 . S
C746 Tb736 2.825 . S
C746 C740 1.507 . S
C746 O759 1.238 . S
C746 O760 1.247 . S
O747 Tb736 2.347 . S
O747 C751 1.259 . S
O748 Eu737 2.418 . S
O748 C751 1.265 . S
O749 Eu737 2.384 1_655 S
O749 C758 1.255 . S
O750 Tb736 2.366 . S
O750 C758 1.265 1_455 S
C751 O747 1.259 . S
C751 O748 1.265 . S
O752 Eu737 2.479 . S
O752 C767 1.238 . S
O753 Eu737 2.471 . S
O753 C767 1.247 . S
O754 Eu737 2.347 . S
O754 C738 1.259 . S
O755 Tb736 2.418 . S
O755 C738 1.265 . S
O756 Tb736 2.384 . S
O756 C739 1.255 . S
O757 Eu737 2.366 . S
O757 C739 1.265 . S
C758 O749 1.255 . S
C758 O750 1.265 1_655 S
O759 Tb736 2.479 . S
O759 C746 1.238 . S
O760 Tb736 2.471 . S
O760 C746 1.247 . S
C761 C764 1.380 . S
C761 C765 1.374 . S
C761 C767 1.507 . S
C762 C763 1.387 . S
C762 C766 1.391 . S
C763 C762 1.387 . S
C763 C764 1.384 . S
C763 H772 0.930 . S
C764 C761 1.380 . S
C764 C763 1.384 . S
C764 H773 0.931 . S
C765 C761 1.374 . S
C765 C766 1.390 . S
C765 H774 0.930 . S
C766 C762 1.391 . S
C766 C765 1.390 . S
C766 H775 0.930 . S
C767 Eu737 2.825 . S
C767 O752 1.238 . S
C767 O753 1.247 . S
C767 C761 1.507 . S
H768 C741 0.930 . S
H769 C742 0.931 . S
H770 C743 0.930 . S
H771 C744 0.930 1_655 S
H772 C763 0.930 . S
H773 C764 0.931 . S
H774 C765 0.930 . S
H775 C766 0.930 . S
Tb776 C786 2.825 . S
Tb776 O787 2.347 . S
Tb776 O790 2.366 . S
Tb776 O795 2.418 . S
Tb776 O796 2.384 . S
Tb776 O799 2.479 . S
Tb776 O800 2.471 . S
Eu777 O788 2.418 . S
Eu777 O789 2.384 . S
Eu777 O792 2.479 . S
Eu777 O793 2.471 . S
Eu777 O794 2.347 . S
Eu777 O797 2.366 . S
Eu777 C807 2.825 . S
C778 O794 1.259 . S
C778 O795 1.265 . S
C779 O796 1.255 . S
C779 O797 1.265 . S
C780 C782 1.380 . S
C780 C783 1.374 . S
C780 C786 1.507 . S
C781 C782 1.384 . S
C781 C785 1.387 . S
C781 H808 0.930 . S
C782 C780 1.380 . S
C782 C781 1.384 . S
C782 H809 0.931 . S
C783 C780 1.374 . S
C783 C784 1.390 . S
C783 H810 0.930 . S
C784 C783 1.390 . S
C784 C785 1.391 . S
C784 H811 0.930 . S
C785 C781 1.387 . S
C785 C784 1.391 . S
C786 Tb776 2.825 . S
C786 C780 1.507 . S
C786 O799 1.238 . S
C786 O800 1.247 . S
O787 Tb776 2.347 . S
O787 C791 1.259 . S
O788 Eu777 2.418 . S
O788 C791 1.265 . S
O789 Eu777 2.384 . S
O789 C798 1.255 . S
O790 Tb776 2.366 . S
O790 C798 1.265 . S
C791 O787 1.259 . S
C791 O788 1.265 . S
O792 Eu777 2.479 . S
O792 C807 1.238 . S
O793 Eu777 2.471 . S
O793 C807 1.247 . S
O794 Eu777 2.347 . S
O794 C778 1.259 . S
O795 Tb776 2.418 . S
O795 C778 1.265 . S
O796 Tb776 2.384 . S
O796 C779 1.255 . S
O797 Eu777 2.366 . S
O797 C779 1.265 . S
C798 O789 1.255 . S
C798 O790 1.265 . S
O799 Tb776 2.479 . S
O799 C786 1.238 . S
O800 Tb776 2.471 . S
O800 C786 1.247 . S
C801 C804 1.380 . S
C801 C805 1.374 . S
C801 C807 1.507 . S
C802 C803 1.387 . S
C802 C806 1.391 . S
C803 C802 1.387 . S
C803 C804 1.384 . S
C803 H812 0.930 . S
C804 C801 1.380 . S
C804 C803 1.384 . S
C804 H813 0.931 . S
C805 C801 1.374 . S
C805 C806 1.390 . S
C805 H814 0.930 . S
C806 C802 1.391 . S
C806 C805 1.390 . S
C806 H815 0.930 . S
C807 Eu777 2.825 . S
C807 O792 1.238 . S
C807 O793 1.247 . S
C807 C801 1.507 . S
H808 C781 0.930 . S
H809 C782 0.931 . S
H810 C783 0.930 . S
H811 C784 0.930 . S
H812 C803 0.930 . S
H813 C804 0.931 . S
H814 C805 0.930 . S
H815 C806 0.930 . S
Tb816 C826 2.825 . S
Tb816 O827 2.347 . S
Tb816 O830 2.366 . S
Tb816 O835 2.418 . S
Tb816 O836 2.384 . S
Tb816 O839 2.479 . S
Tb816 O840 2.471 . S
Eu817 O828 2.418 . S
Eu817 O829 2.384 . S
Eu817 O832 2.479 . S
Eu817 O833 2.471 . S
Eu817 O834 2.347 . S
Eu817 O837 2.366 . S
Eu817 C847 2.825 . S
C818 O834 1.259 . S
C818 O835 1.265 . S
C819 O836 1.255 . S
C819 O837 1.265 . S
C820 C822 1.380 . S
C820 C823 1.374 . S
C820 C826 1.507 . S
C821 C822 1.384 . S
C821 C825 1.387 . S
C821 H848 0.930 . S
C822 C820 1.380 . S
C822 C821 1.384 . S
C822 H849 0.931 . S
C823 C820 1.374 . S
C823 C824 1.390 . S
C823 H850 0.930 . S
C824 C823 1.390 . S
C824 C825 1.391 . S
C824 H851 0.930 . S
C825 C821 1.387 . S
C825 C824 1.391 . S
C826 Tb816 2.825 . S
C826 C820 1.507 . S
C826 O839 1.238 . S
C826 O840 1.247 . S
O827 Tb816 2.347 . S
O827 C831 1.259 . S
O828 Eu817 2.418 . S
O828 C831 1.265 . S
O829 Eu817 2.384 . S
O829 C838 1.255 . S
O830 Tb816 2.366 . S
O830 C838 1.265 . S
C831 O827 1.259 . S
C831 O828 1.265 . S
O832 Eu817 2.479 . S
O832 C847 1.238 . S
O833 Eu817 2.471 . S
O833 C847 1.247 . S
O834 Eu817 2.347 . S
O834 C818 1.259 . S
O835 Tb816 2.418 . S
O835 C818 1.265 . S
O836 Tb816 2.384 . S
O836 C819 1.255 . S
O837 Eu817 2.366 . S
O837 C819 1.265 . S
C838 O829 1.255 . S
C838 O830 1.265 . S
O839 Tb816 2.479 . S
O839 C826 1.238 . S
O840 Tb816 2.471 . S
O840 C826 1.247 . S
C841 C844 1.380 . S
C841 C845 1.374 . S
C841 C847 1.507 . S
C842 C843 1.387 . S
C842 C846 1.391 . S
C843 C842 1.387 . S
C843 C844 1.384 . S
C843 H852 0.930 . S
C844 C841 1.380 . S
C844 C843 1.384 . S
C844 H853 0.931 . S
C845 C841 1.374 . S
C845 C846 1.390 . S
C845 H854 0.930 . S
C846 C842 1.391 . S
C846 C845 1.390 . S
C846 H855 0.930 . S
C847 Eu817 2.825 . S
C847 O832 1.238 . S
C847 O833 1.247 . S
C847 C841 1.507 . S
H848 C821 0.930 . S
H849 C822 0.931 . S
H850 C823 0.930 . S
H851 C824 0.930 . S
H852 C843 0.930 . S
H853 C844 0.931 . S
H854 C845 0.930 . S
H855 C846 0.930 . S
Tb856 C866 2.825 . S
Tb856 O867 2.347 . S
Tb856 O870 2.366 . S
Tb856 O875 2.418 . S
Tb856 O876 2.384 . S
Tb856 O879 2.479 . S
Tb856 O880 2.471 . S
Eu857 O868 2.418 . S
Eu857 O869 2.384 . S
Eu857 O872 2.479 . S
Eu857 O873 2.471 . S
Eu857 O874 2.347 . S
Eu857 O877 2.366 . S
Eu857 C887 2.825 . S
C858 O874 1.259 . S
C858 O875 1.265 . S
C859 O876 1.255 . S
C859 O877 1.265 . S
C860 C862 1.380 . S
C860 C863 1.374 . S
C860 C866 1.507 . S
C861 C862 1.384 . S
C861 C865 1.387 . S
C861 H888 0.930 . S
C862 C860 1.380 . S
C862 C861 1.384 . S
C862 H889 0.931 . S
C863 C860 1.374 . S
C863 C864 1.390 . S
C863 H890 0.930 . S
C864 C863 1.390 . S
C864 C865 1.391 . S
C864 H891 0.930 . S
C865 C861 1.387 . S
C865 C864 1.391 . S
C866 Tb856 2.825 . S
C866 C860 1.507 . S
C866 O879 1.238 . S
C866 O880 1.247 . S
O867 Tb856 2.347 . S
O867 C871 1.259 . S
O868 Eu857 2.418 . S
O868 C871 1.265 . S
O869 Eu857 2.384 . S
O869 C878 1.255 . S
O870 Tb856 2.366 . S
O870 C878 1.265 . S
C871 O867 1.259 . S
C871 O868 1.265 . S
O872 Eu857 2.479 . S
O872 C887 1.238 . S
O873 Eu857 2.471 . S
O873 C887 1.247 . S
O874 Eu857 2.347 . S
O874 C858 1.259 . S
O875 Tb856 2.418 . S
O875 C858 1.265 . S
O876 Tb856 2.384 . S
O876 C859 1.255 . S
O877 Eu857 2.366 . S
O877 C859 1.265 . S
C878 O869 1.255 . S
C878 O870 1.265 . S
O879 Tb856 2.479 . S
O879 C866 1.238 . S
O880 Tb856 2.471 . S
O880 C866 1.247 . S
C881 C884 1.380 . S
C881 C885 1.374 . S
C881 C887 1.507 . S
C882 C883 1.387 . S
C882 C886 1.391 . S
C883 C882 1.387 . S
C883 C884 1.384 . S
C883 H892 0.930 . S
C884 C881 1.380 . S
C884 C883 1.384 . S
C884 H893 0.931 . S
C885 C881 1.374 . S
C885 C886 1.390 . S
C885 H894 0.930 . S
C886 C882 1.391 . S
C886 C885 1.390 . S
C886 H895 0.930 . S
C887 Eu857 2.825 . S
C887 O872 1.238 . S
C887 O873 1.247 . S
C887 C881 1.507 . S
H888 C861 0.930 . S
H889 C862 0.931 . S
H890 C863 0.930 . S
H891 C864 0.930 . S
H892 C883 0.930 . S
H893 C884 0.931 . S
H894 C885 0.930 . S
H895 C886 0.930 . S
Tb896 C906 2.825 . S
Tb896 O907 2.347 . S
Tb896 O910 2.366 . S
Tb896 O915 2.418 . S
Tb896 O916 2.384 . S
Tb896 O919 2.479 . S
Tb896 O920 2.471 . S
Eu897 O908 2.418 . S
Eu897 O909 2.384 . S
Eu897 O912 2.479 . S
Eu897 O913 2.471 . S
Eu897 O914 2.347 . S
Eu897 O917 2.366 . S
Eu897 C927 2.825 . S
C898 O914 1.259 . S
C898 O915 1.265 . S
C899 O916 1.255 . S
C899 O917 1.265 . S
C900 C902 1.380 . S
C900 C903 1.374 . S
C900 C906 1.507 . S
C901 C902 1.384 . S
C901 C905 1.387 . S
C901 H928 0.930 . S
C902 C900 1.380 . S
C902 C901 1.384 . S
C902 H929 0.931 . S
C903 C900 1.374 . S
C903 C904 1.390 . S
C903 H930 0.930 . S
C904 C903 1.390 . S
C904 C905 1.391 . S
C904 H931 0.930 . S
C905 C901 1.387 . S
C905 C904 1.391 . S
C906 Tb896 2.825 . S
C906 C900 1.507 . S
C906 O919 1.238 . S
C906 O920 1.247 . S
O907 Tb896 2.347 . S
O907 C911 1.259 . S
O908 Eu897 2.418 . S
O908 C911 1.265 . S
O909 Eu897 2.384 . S
O909 C918 1.255 . S
O910 Tb896 2.366 . S
O910 C918 1.265 . S
C911 O907 1.259 . S
C911 O908 1.265 . S
O912 Eu897 2.479 . S
O912 C927 1.238 . S
O913 Eu897 2.471 . S
O913 C927 1.247 . S
O914 Eu897 2.347 . S
O914 C898 1.259 . S
O915 Tb896 2.418 . S
O915 C898 1.265 . S
O916 Tb896 2.384 . S
O916 C899 1.255 . S
O917 Eu897 2.366 . S
O917 C899 1.265 . S
C918 O909 1.255 . S
C918 O910 1.265 . S
O919 Tb896 2.479 . S
O919 C906 1.238 . S
O920 Tb896 2.471 . S
O920 C906 1.247 . S
C921 C924 1.380 . S
C921 C925 1.374 . S
C921 C927 1.507 . S
C922 C923 1.387 . S
C922 C926 1.391 . S
C923 C922 1.387 . S
C923 C924 1.384 . S
C923 H932 0.930 . S
C924 C921 1.380 . S
C924 C923 1.384 . S
C924 H933 0.931 . S
C925 C921 1.374 . S
C925 C926 1.390 . S
C925 H934 0.930 . S
C926 C922 1.391 . S
C926 C925 1.390 . S
C926 H935 0.930 . S
C927 Eu897 2.825 . S
C927 O912 1.238 . S
C927 O913 1.247 . S
C927 C921 1.507 . S
H928 C901 0.930 . S
H929 C902 0.931 . S
H930 C903 0.930 . S
H931 C904 0.930 . S
H932 C923 0.930 . S
H933 C924 0.931 . S
H934 C925 0.930 . S
H935 C926 0.930 . S
Tb936 C946 2.825 1_554 S
Tb936 O947 2.347 1_554 S
Tb936 O950 2.366 . S
Tb936 O955 2.418 . S
Tb936 O956 2.384 1_455 S
Tb936 O959 2.479 . S
Tb936 O960 2.471 1_554 S
Eu937 O948 2.418 1_554 S
Eu937 O949 2.384 . S
Eu937 O952 2.479 . S
Eu937 O953 2.471 . S
Eu937 O954 2.347 . S
Eu937 O957 2.366 . S
Eu937 C967 2.825 . S
C938 O954 1.259 . S
C938 O955 1.265 . S
C939 O956 1.255 1_455 S
C939 O957 1.265 . S
C940 C942 1.380 . S
C940 C943 1.374 . S
C940 C946 1.507 . S
C941 C942 1.384 . S
C941 C945 1.387 . S
C941 H968 0.930 . S
C942 C940 1.380 . S
C942 C941 1.384 . S
C942 H969 0.931 1_556 S
C943 C940 1.374 . S
C943 C944 1.390 . S
C943 H970 0.930 . S
C944 C943 1.390 . S
C944 C945 1.391 . S
C944 H971 0.930 . S
C945 C941 1.387 . S
C945 C944 1.391 . S
C946 Tb936 2.825 1_556 S
C946 C940 1.507 . S
C946 O959 1.238 1_556 S
C946 O960 1.247 . S
O947 Tb936 2.347 1_556 S
O947 C951 1.259 . S
O948 Eu937 2.418 1_556 S
O948 C951 1.265 . S
O949 Eu937 2.384 . S
O949 C958 1.255 . S
O950 Tb936 2.366 . S
O950 C958 1.265 . S
C951 O947 1.259 . S
C951 O948 1.265 . S
O952 Eu937 2.479 . S
O952 C967 1.238 . S
O953 Eu937 2.471 . S
O953 C967 1.247 . S
O954 Eu937 2.347 . S
O954 C938 1.259 . S
O955 Tb936 2.418 . S
O955 C938 1.265 . S
O956 Tb936 2.384 1_655 S
O956 C939 1.255 1_655 S
O957 Eu937 2.366 . S
O957 C939 1.265 . S
C958 O949 1.255 . S
C958 O950 1.265 . S
O959 Tb936 2.479 . S
O959 C946 1.238 1_554 S
O960 Tb936 2.471 1_556 S
O960 C946 1.247 . S
C961 C964 1.380 . S
C961 C965 1.374 . S
C961 C967 1.507 . S
C962 C963 1.387 . S
C962 C966 1.391 . S
C963 C962 1.387 . S
C963 C964 1.384 . S
C963 H972 0.930 . S
C964 C961 1.380 . S
C964 C963 1.384 . S
C964 H973 0.931 . S
C965 C961 1.374 . S
C965 C966 1.390 . S
C965 H974 0.930 . S
C966 C962 1.391 . S
C966 C965 1.390 . S
C966 H975 0.930 . S
C967 Eu937 2.825 . S
C967 O952 1.238 . S
C967 O953 1.247 . S
C967 C961 1.507 . S
H968 C941 0.930 . S
H969 C942 0.931 1_554 S
H970 C943 0.930 . S
H971 C944 0.930 . S
H972 C963 0.930 . S
H973 C964 0.931 . S
H974 C965 0.930 . S
H975 C966 0.930 . S
C976 C977 1.363 . S
C976 C982 1.379 1_556 S
C976 N984 1.356 . S
C977 C976 1.363 . S
C977 C983 1.363 . S
C978 C979 1.363 1_556 S
C978 C983 1.379 . S
C978 N985 1.356 . S
C979 C978 1.363 1_554 S
C979 C982 1.363 . S
N980 C982 1.356 . S
N980 H992 0.984 . S
N980 H993 0.985 . S
N981 C983 1.356 1_655 S
N981 H986 0.984 . S
N981 H987 0.985 . S
C982 C976 1.379 1_554 S
C982 C979 1.363 . S
C982 N980 1.356 . S
C983 C977 1.363 . S
C983 C978 1.379 . S
C983 N981 1.356 1_455 S
N984 C976 1.356 . S
N984 H990 0.984 . S
N984 H991 0.984 . S
N985 C978 1.356 . S
N985 H988 0.984 1_556 S
N985 H989 0.985 . S
H986 N981 0.984 . S
H987 N981 0.985 . S
H988 N985 0.984 1_554 S
H989 N985 0.985 . S
H990 N984 0.984 . S
H991 N984 0.984 . S
H992 N980 0.984 . S
H993 N980 0.985 . S
C994 C995 1.363 . S
C994 C1000 1.379 . S
C994 N1002 1.356 . S
C995 C994 1.363 . S
C995 C1001 1.363 . S
C996 C997 1.363 . S
C996 C1001 1.379 . S
C996 N1003 1.356 . S
C997 C996 1.363 . S
C997 C1000 1.363 . S
N998 C1000 1.356 . S
N998 H1010 0.984 . S
N998 H1011 0.985 . S
N999 C1001 1.356 . S
N999 H1004 0.984 . S
N999 H1005 0.985 . S
C1000 C994 1.379 . S
C1000 C997 1.363 . S
C1000 N998 1.356 . S
C1001 C995 1.363 . S
C1001 C996 1.379 . S
C1001 N999 1.356 . S
N1002 C994 1.356 . S
N1002 H1008 0.984 . S
N1002 H1009 0.984 . S
N1003 C996 1.356 . S
N1003 H1006 0.984 . S
N1003 H1007 0.985 . S
H1004 N999 0.984 . S
H1005 N999 0.985 . S
H1006 N1003 0.984 . S
H1007 N1003 0.985 . S
H1008 N1002 0.984 . S
H1009 N1002 0.984 . S
H1010 N998 0.984 . S
H1011 N998 0.985 . S
C1012 C1013 1.363 . S
C1012 C1018 1.379 . S
C1012 N1020 1.356 . S
C1013 C1012 1.363 . S
C1013 C1019 1.363 . S
C1014 C1015 1.363 . S
C1014 C1019 1.379 . S
C1014 N1021 1.356 . S
C1015 C1014 1.363 . S
C1015 C1018 1.363 . S
N1016 C1018 1.356 . S
N1016 H1028 0.984 . S
N1016 H1029 0.985 . S
N1017 C1019 1.356 . S
N1017 H1022 0.984 . S
N1017 H1023 0.985 . S
C1018 C1012 1.379 . S
C1018 C1015 1.363 . S
C1018 N1016 1.356 . S
C1019 C1013 1.363 . S
C1019 C1014 1.379 . S
C1019 N1017 1.356 . S
N1020 C1012 1.356 . S
N1020 H1026 0.984 . S
N1020 H1027 0.984 . S
N1021 C1014 1.356 . S
N1021 H1024 0.984 . S
N1021 H1025 0.985 . S
H1022 N1017 0.984 . S
H1023 N1017 0.985 . S
H1024 N1021 0.984 . S
H1025 N1021 0.985 . S
H1026 N1020 0.984 . S
H1027 N1020 0.984 . S
H1028 N1016 0.984 . S
H1029 N1016 0.985 . S
C1030 C1031 1.363 . S
C1030 C1036 1.379 . S
C1030 N1038 1.356 . S
C1031 C1030 1.363 . S
C1031 C1037 1.363 . S
C1032 C1033 1.363 . S
C1032 C1037 1.379 . S
C1032 N1039 1.356 . S
C1033 C1032 1.363 . S
C1033 C1036 1.363 . S
N1034 C1036 1.356 . S
N1034 H1046 0.984 . S
N1034 H1047 0.985 . S
N1035 C1037 1.356 . S
N1035 H1040 0.984 . S
N1035 H1041 0.985 . S
C1036 C1030 1.379 . S
C1036 C1033 1.363 . S
C1036 N1034 1.356 . S
C1037 C1031 1.363 . S
C1037 C1032 1.379 . S
C1037 N1035 1.356 . S
N1038 C1030 1.356 . S
N1038 H1044 0.984 . S
N1038 H1045 0.984 . S
N1039 C1032 1.356 . S
N1039 H1042 0.984 . S
N1039 H1043 0.985 . S
H1040 N1035 0.984 . S
H1041 N1035 0.985 . S
H1042 N1039 0.984 . S
H1043 N1039 0.985 . S
H1044 N1038 0.984 . S
H1045 N1038 0.984 . S
H1046 N1034 0.984 . S
H1047 N1034 0.985 . S
C1048 C1049 1.363 . S
C1048 C1054 1.379 . S
C1048 N1056 1.356 . S
C1049 C1048 1.363 . S
C1049 C1055 1.363 . S
C1050 C1051 1.363 . S
C1050 C1055 1.379 . S
C1050 N1057 1.356 . S
C1051 C1050 1.363 . S
C1051 C1054 1.363 . S
N1052 C1054 1.356 . S
N1052 H1064 0.984 1_455 S
N1052 H1065 0.985 . S
N1053 C1055 1.356 . S
N1053 H1058 0.984 . S
N1053 H1059 0.985 . S
C1054 C1048 1.379 . S
C1054 C1051 1.363 . S
C1054 N1052 1.356 . S
C1055 C1049 1.363 . S
C1055 C1050 1.379 . S
C1055 N1053 1.356 . S
N1056 C1048 1.356 . S
N1056 H1062 0.984 1_455 S
N1056 H1063 0.984 . S
N1057 C1050 1.356 . S
N1057 H1060 0.984 . S
N1057 H1061 0.985 . S
H1058 N1053 0.984 . S
H1059 N1053 0.985 . S
H1060 N1057 0.984 . S
H1061 N1057 0.985 . S
H1062 N1056 0.984 1_655 S
H1063 N1056 0.984 . S
H1064 N1052 0.984 1_655 S
H1065 N1052 0.985 . S
C1066 C1067 1.363 . S
C1066 C1072 1.379 . S
C1066 N1074 1.356 . S
C1067 C1066 1.363 . S
C1067 C1073 1.363 . S
C1068 C1069 1.363 . S
C1068 C1073 1.379 . S
C1068 N1075 1.356 . S
C1069 C1068 1.363 . S
C1069 C1072 1.363 . S
N1070 C1072 1.356 . S
N1070 H1082 0.984 . S
N1070 H1083 0.985 . S
N1071 C1073 1.356 . S
N1071 H1076 0.984 . S
N1071 H1077 0.985 . S
C1072 C1066 1.379 . S
C1072 C1069 1.363 . S
C1072 N1070 1.356 . S
C1073 C1067 1.363 . S
C1073 C1068 1.379 . S
C1073 N1071 1.356 . S
N1074 C1066 1.356 . S
N1074 H1080 0.984 . S
N1074 H1081 0.984 . S
N1075 C1068 1.356 . S
N1075 H1078 0.984 . S
N1075 H1079 0.985 . S
H1076 N1071 0.984 . S
H1077 N1071 0.985 . S
H1078 N1075 0.984 . S
H1079 N1075 0.985 . S
H1080 N1074 0.984 . S
H1081 N1074 0.984 . S
H1082 N1070 0.984 . S
H1083 N1070 0.985 . S
C1084 C1085 1.363 . S
C1084 C1090 1.379 . S
C1084 N1092 1.356 . S
C1085 C1084 1.363 . S
C1085 C1091 1.363 . S
C1086 C1087 1.363 . S
C1086 C1091 1.379 . S
C1086 N1093 1.356 . S
C1087 C1086 1.363 . S
C1087 C1090 1.363 . S
N1088 C1090 1.356 . S
N1088 H1100 0.984 . S
N1088 H1101 0.985 . S
N1089 C1091 1.356 . S
N1089 H1094 0.984 . S
N1089 H1095 0.985 . S
C1090 C1084 1.379 . S
C1090 C1087 1.363 . S
C1090 N1088 1.356 . S
C1091 C1085 1.363 . S
C1091 C1086 1.379 . S
C1091 N1089 1.356 . S
N1092 C1084 1.356 . S
N1092 H1098 0.984 . S
N1092 H1099 0.984 . S
N1093 C1086 1.356 . S
N1093 H1096 0.984 . S
N1093 H1097 0.985 . S
H1094 N1089 0.984 . S
H1095 N1089 0.985 . S
H1096 N1093 0.984 . S
H1097 N1093 0.985 . S
H1098 N1092 0.984 . S
H1099 N1092 0.984 . S
H1100 N1088 0.984 . S
H1101 N1088 0.985 . S
C1102 C1103 1.363 . S
C1102 C1108 1.379 . S
C1102 N1110 1.356 . S
C1103 C1102 1.363 . S
C1103 C1109 1.363 . S
C1104 C1105 1.363 . S
C1104 C1109 1.379 . S
C1104 N1111 1.356 . S
C1105 C1104 1.363 . S
C1105 C1108 1.363 . S
N1106 C1108 1.356 . S
N1106 H1118 0.984 . S
N1106 H1119 0.985 . S
N1107 C1109 1.356 . S
N1107 H1112 0.984 . S
N1107 H1113 0.985 . S
C1108 C1102 1.379 . S
C1108 C1105 1.363 . S
C1108 N1106 1.356 . S
C1109 C1103 1.363 . S
C1109 C1104 1.379 . S
C1109 N1107 1.356 . S
N1110 C1102 1.356 . S
N1110 H1116 0.984 . S
N1110 H1117 0.984 . S
N1111 C1104 1.356 . S
N1111 H1114 0.984 . S
N1111 H1115 0.985 . S
H1112 N1107 0.984 . S
H1113 N1107 0.985 . S
H1114 N1111 0.984 . S
H1115 N1111 0.985 . S
H1116 N1110 0.984 . S
H1117 N1110 0.984 . S
H1118 N1106 0.984 . S
H1119 N1106 0.985 . S
C1120 C1121 1.363 . S
C1120 C1126 1.379 1_655 S
C1120 N1128 1.356 1_545 S
C1121 C1120 1.363 . S
C1121 C1127 1.363 . S
C1122 C1123 1.363 1_655 S
C1122 C1127 1.379 . S
C1122 N1129 1.356 1_655 S
C1123 C1122 1.363 1_455 S
C1123 C1126 1.363 . S
N1124 C1126 1.356 . S
N1124 H1136 0.984 1_545 S
N1124 H1137 0.985 . S
N1125 C1127 1.356 . S
N1125 H1130 0.984 . S
N1125 H1131 0.985 . S
C1126 C1120 1.379 1_455 S
C1126 C1123 1.363 . S
C1126 N1124 1.356 . S
C1127 C1121 1.363 . S
C1127 C1122 1.379 . S
C1127 N1125 1.356 . S
N1128 C1120 1.356 1_565 S
N1128 H1134 0.984 . S
N1128 H1135 0.984 . S
N1129 C1122 1.356 1_455 S
N1129 H1132 0.984 . S
N1129 H1133 0.985 . S
H1130 N1125 0.984 . S
H1131 N1125 0.985 . S
H1132 N1129 0.984 . S
H1133 N1129 0.985 . S
H1134 N1128 0.984 . S
H1135 N1128 0.984 . S
H1136 N1124 0.984 1_565 S
H1137 N1124 0.985 . S
C1138 C1139 1.363 . S
C1138 C1144 1.379 . S
C1138 N1146 1.356 . S
C1139 C1138 1.363 . S
C1139 C1145 1.363 . S
C1140 C1141 1.363 . S
C1140 C1145 1.379 . S
C1140 N1147 1.356 . S
C1141 C1140 1.363 . S
C1141 C1144 1.363 . S
N1142 C1144 1.356 . S
N1142 H1154 0.984 . S
N1142 H1155 0.985 . S
N1143 C1145 1.356 . S
N1143 H1148 0.984 . S
N1143 H1149 0.985 . S
C1144 C1138 1.379 . S
C1144 C1141 1.363 . S
C1144 N1142 1.356 . S
C1145 C1139 1.363 . S
C1145 C1140 1.379 . S
C1145 N1143 1.356 . S
N1146 C1138 1.356 . S
N1146 H1152 0.984 . S
N1146 H1153 0.984 . S
N1147 C1140 1.356 . S
N1147 H1150 0.984 . S
N1147 H1151 0.985 . S
H1148 N1143 0.984 . S
H1149 N1143 0.985 . S
H1150 N1147 0.984 . S
H1151 N1147 0.985 . S
H1152 N1146 0.984 . S
H1153 N1146 0.984 . S
H1154 N1142 0.984 . S
H1155 N1142 0.985 . S
C1156 C1157 1.363 . S
C1156 C1162 1.379 1_565 S
C1156 N1164 1.356 . S
C1157 C1156 1.363 . S
C1157 C1163 1.363 1_565 S
C1158 C1159 1.363 . S
C1158 C1163 1.379 . S
C1158 N1165 1.356 . S
C1159 C1158 1.363 . S
C1159 C1162 1.363 . S
N1160 C1162 1.357 . S
N1160 H1172 0.980 1_545 S
N1160 H1173 0.988 . S
N1161 C1163 1.356 . S
N1161 H1166 0.984 . S
N1161 H1167 0.985 . S
C1162 C1156 1.379 1_545 S
C1162 C1159 1.363 . S
C1162 N1160 1.357 . S
C1163 C1157 1.363 1_545 S
C1163 C1158 1.379 . S
C1163 N1161 1.356 . S
N1164 C1156 1.356 . S
N1164 H1170 0.984 . S
N1164 H1171 0.984 . S
N1165 C1158 1.356 . S
N1165 H1168 0.984 . S
N1165 H1169 0.985 . S
H1166 N1161 0.984 . S
H1167 N1161 0.985 . S
H1168 N1165 0.984 . S
H1169 N1165 0.985 . S
H1170 N1164 0.984 . S
H1171 N1164 0.984 . S
H1172 N1160 0.980 1_565 S
H1173 N1160 0.988 . S
C1174 C1175 1.363 . S
C1174 C1180 1.379 . S
C1174 N1182 1.356 . S
C1175 C1174 1.363 . S
C1175 C1181 1.363 . S
C1176 C1177 1.363 . S
C1176 C1181 1.379 . S
C1176 N1183 1.356 . S
C1177 C1176 1.363 . S
C1177 C1180 1.363 . S
N1178 C1180 1.356 . S
N1178 H1190 0.984 . S
N1178 H1191 0.985 . S
N1179 C1181 1.356 . S
N1179 H1184 0.984 . S
N1179 H1185 0.985 . S
C1180 C1174 1.379 . S
C1180 C1177 1.363 . S
C1180 N1178 1.356 . S
C1181 C1175 1.363 . S
C1181 C1176 1.379 . S
C1181 N1179 1.356 . S
N1182 C1174 1.356 . S
N1182 H1188 0.984 . S
N1182 H1189 0.984 . S
N1183 C1176 1.356 . S
N1183 H1186 0.984 . S
N1183 H1187 0.985 . S
H1184 N1179 0.984 . S
H1185 N1179 0.985 . S
H1186 N1183 0.984 . S
H1187 N1183 0.985 . S
H1188 N1182 0.984 . S
H1189 N1182 0.984 . S
H1190 N1178 0.984 . S
H1191 N1178 0.985 . S
C1192 C1193 1.373 . S
C1192 C1198 1.379 . S
C1192 N1200 1.356 1_545 S
C1193 C1192 1.373 . S
C1193 C1199 1.366 . S
C1194 C1195 1.363 . S
C1194 C1199 1.379 . S
C1194 N1201 1.356 1_655 S
C1195 C1194 1.363 . S
C1195 C1198 1.363 . S
N1196 C1198 1.356 . S
N1196 H1208 0.984 . S
N1196 H1209 0.985 . S
N1197 C1199 1.351 1_565 S
N1197 H1202 0.989 . S
N1197 H1203 0.985 1_565 S
C1198 C1192 1.379 . S
C1198 C1195 1.363 . S
C1198 N1196 1.356 . S
C1199 C1193 1.366 . S
C1199 C1194 1.379 . S
C1199 N1197 1.351 1_545 S
N1200 C1192 1.356 1_565 S
N1200 H1206 0.984 . S
N1200 H1207 0.984 . S
N1201 C1194 1.356 1_455 S
N1201 H1204 0.984 . S
N1201 H1205 0.985 . S
H1202 N1197 0.989 . S
H1203 N1197 0.985 1_545 S
H1204 N1201 0.984 . S
H1205 N1201 0.985 . S
H1206 N1200 0.984 . S
H1207 N1200 0.984 . S
H1208 N1196 0.984 . S
H1209 N1196 0.985 . S
C1210 C1211 1.363 . S
C1210 C1216 1.379 . S
C1210 N1218 1.356 . S
C1211 C1210 1.363 . S
C1211 C1217 1.363 . S
C1212 C1213 1.363 . S
C1212 C1217 1.379 . S
C1212 N1219 1.356 . S
C1213 C1212 1.363 . S
C1213 C1216 1.363 . S
N1214 C1216 1.356 . S
N1214 H1226 0.984 . S
N1214 H1227 0.985 . S
N1215 C1217 1.356 . S
N1215 H1220 0.984 . S
N1215 H1221 0.985 . S
C1216 C1210 1.379 . S
C1216 C1213 1.363 . S
C1216 N1214 1.356 . S
C1217 C1211 1.363 . S
C1217 C1212 1.379 . S
C1217 N1215 1.356 . S
N1218 C1210 1.356 . S
N1218 H1224 0.984 . S
N1218 H1225 0.984 . S
N1219 C1212 1.356 . S
N1219 H1222 0.984 . S
N1219 H1223 0.985 . S
H1220 N1215 0.984 . S
H1221 N1215 0.985 . S
H1222 N1219 0.984 . S
H1223 N1219 0.985 . S
H1224 N1218 0.984 . S
H1225 N1218 0.984 . S
H1226 N1214 0.984 . S
H1227 N1214 0.985 . S
C1228 C1229 1.363 . S
C1228 C1234 1.379 . S
C1228 N1236 1.356 . S
C1229 C1228 1.363 . S
C1229 C1235 1.363 . S
C1230 C1231 1.363 . S
C1230 C1235 1.379 . S
C1230 N1237 1.356 . S
C1231 C1230 1.363 . S
C1231 C1234 1.363 . S
N1232 C1234 1.356 . S
N1232 H1244 0.984 . S
N1232 H1245 0.985 . S
N1233 C1235 1.356 1_565 S
N1233 H1238 0.984 . S
N1233 H1239 0.985 . S
C1234 C1228 1.379 . S
C1234 C1231 1.363 . S
C1234 N1232 1.356 . S
C1235 C1229 1.363 . S
C1235 C1230 1.379 . S
C1235 N1233 1.356 1_545 S
N1236 C1228 1.356 . S
N1236 H1242 0.984 . S
N1236 H1243 0.984 . S
N1237 C1230 1.356 . S
N1237 H1240 0.984 . S
N1237 H1241 0.985 . S
H1238 N1233 0.984 . S
H1239 N1233 0.985 . S
H1240 N1237 0.984 . S
H1241 N1237 0.985 . S
H1242 N1236 0.984 . S
H1243 N1236 0.984 . S
H1244 N1232 0.984 . S
H1245 N1232 0.985 . S
C1246 C1247 1.363 . S
C1246 C1252 1.379 . S
C1246 N1254 1.356 . S
C1247 C1246 1.363 . S
C1247 C1253 1.363 . S
C1248 C1249 1.363 . S
C1248 C1253 1.379 . S
C1248 N1255 1.356 . S
C1249 C1248 1.363 . S
C1249 C1252 1.363 . S
N1250 C1252 1.356 . S
N1250 H1262 0.984 . S
N1250 H1263 0.985 . S
N1251 C1253 1.356 . S
N1251 H1256 0.984 . S
N1251 H1257 0.985 . S
C1252 C1246 1.379 . S
C1252 C1249 1.363 . S
C1252 N1250 1.356 . S
C1253 C1247 1.363 . S
C1253 C1248 1.379 . S
C1253 N1251 1.356 . S
N1254 C1246 1.356 . S
N1254 H1260 0.984 . S
N1254 H1261 0.984 . S
N1255 C1248 1.356 . S
N1255 H1258 0.984 . S
N1255 H1259 0.985 . S
H1256 N1251 0.984 . S
H1257 N1251 0.985 . S
H1258 N1255 0.984 . S
H1259 N1255 0.985 . S
H1260 N1254 0.984 . S
H1261 N1254 0.984 . S
H1262 N1250 0.984 . S
H1263 N1250 0.985 . S
C1264 C1265 1.363 . S
C1264 C1270 1.379 1_565 S
C1264 N1272 1.356 . S
C1265 C1264 1.363 . S
C1265 C1271 1.363 . S
C1266 C1267 1.363 1_565 S
C1266 C1271 1.379 . S
C1266 N1273 1.356 . S
C1267 C1266 1.363 1_545 S
C1267 C1270 1.363 . S
N1268 C1270 1.356 . S
N1268 H1280 0.984 . S
N1268 H1281 0.985 . S
N1269 C1271 1.356 . S
N1269 H1274 0.984 . S
N1269 H1275 0.985 . S
C1270 C1264 1.379 1_545 S
C1270 C1267 1.363 . S
C1270 N1268 1.356 . S
C1271 C1265 1.363 . S
C1271 C1266 1.379 . S
C1271 N1269 1.356 . S
N1272 C1264 1.356 . S
N1272 H1278 0.984 1_565 S
N1272 H1279 0.984 . S
N1273 C1266 1.356 . S
N1273 H1276 0.984 . S
N1273 H1277 0.985 . S
H1274 N1269 0.984 . S
H1275 N1269 0.985 . S
H1276 N1273 0.984 . S
H1277 N1273 0.985 . S
H1278 N1272 0.984 1_545 S
H1279 N1272 0.984 . S
H1280 N1268 0.984 . S
H1281 N1268 0.985 . S
C1282 C1283 1.363 . S
C1282 C1288 1.379 . S
C1282 N1290 1.356 . S
C1283 C1282 1.363 . S
C1283 C1289 1.363 1_554 S
C1284 C1285 1.363 1_556 S
C1284 C1289 1.379 . S
C1284 N1291 1.356 . S
C1285 C1284 1.363 1_554 S
C1285 C1288 1.363 . S
N1286 C1288 1.356 . S
N1286 H1298 0.984 . S
N1286 H1299 0.985 . S
N1287 C1289 1.356 . S
N1287 H1292 0.984 . S
N1287 H1293 0.985 . S
C1288 C1282 1.379 . S
C1288 C1285 1.363 . S
C1288 N1286 1.356 . S
C1289 C1283 1.363 1_556 S
C1289 C1284 1.379 . S
C1289 N1287 1.356 . S
N1290 C1282 1.356 . S
N1290 H1296 0.984 . S
N1290 H1297 0.984 . S
N1291 C1284 1.356 . S
N1291 H1294 0.984 . S
N1291 H1295 0.985 . S
H1292 N1287 0.984 . S
H1293 N1287 0.985 . S
H1294 N1291 0.984 . S
H1295 N1291 0.985 . S
H1296 N1290 0.984 . S
H1297 N1290 0.984 . S
H1298 N1286 0.984 . S
H1299 N1286 0.985 . S
C1300 C1301 1.363 . S
C1300 C1306 1.379 . S
C1300 N1308 1.356 . S
C1301 C1300 1.363 . S
C1301 C1307 1.363 . S
C1302 C1303 1.363 . S
C1302 C1307 1.379 . S
C1302 N1309 1.356 . S
C1303 C1302 1.363 . S
C1303 C1306 1.363 . S
N1304 C1306 1.356 . S
N1304 H1316 0.984 . S
N1304 H1317 0.985 . S
N1305 C1307 1.356 . S
N1305 H1310 0.984 . S
N1305 H1311 0.985 . S
C1306 C1300 1.379 . S
C1306 C1303 1.363 . S
C1306 N1304 1.356 . S
C1307 C1301 1.363 . S
C1307 C1302 1.379 . S
C1307 N1305 1.356 . S
N1308 C1300 1.356 . S
N1308 H1314 0.984 . S
N1308 H1315 0.984 . S
N1309 C1302 1.356 . S
N1309 H1312 0.984 . S
N1309 H1313 0.985 . S
H1310 N1305 0.984 . S
H1311 N1305 0.985 . S
H1312 N1309 0.984 . S
H1313 N1309 0.985 . S
H1314 N1308 0.984 . S
H1315 N1308 0.984 . S
H1316 N1304 0.984 . S
H1317 N1304 0.985 . S
C1318 C1319 1.363 . S
C1318 C1324 1.379 . S
C1318 N1326 1.356 . S
C1319 C1318 1.363 . S
C1319 C1325 1.363 . S
C1320 C1321 1.363 . S
C1320 C1325 1.379 . S
C1320 N1327 1.356 . S
C1321 C1320 1.363 . S
C1321 C1324 1.363 . S
N1322 C1324 1.356 . S
N1322 H1334 0.984 . S
N1322 H1335 0.985 . S
N1323 C1325 1.356 . S
N1323 H1328 0.984 . S
N1323 H1329 0.985 . S
C1324 C1318 1.379 . S
C1324 C1321 1.363 . S
C1324 N1322 1.356 . S
C1325 C1319 1.363 . S
C1325 C1320 1.379 . S
C1325 N1323 1.356 . S
N1326 C1318 1.356 . S
N1326 H1332 0.984 . S
N1326 H1333 0.984 . S
N1327 C1320 1.356 . S
N1327 H1330 0.984 . S
N1327 H1331 0.985 . S
H1328 N1323 0.984 . S
H1329 N1323 0.985 . S
H1330 N1327 0.984 . S
H1331 N1327 0.985 . S
H1332 N1326 0.984 . S
H1333 N1326 0.984 . S
H1334 N1322 0.984 . S
H1335 N1322 0.985 . S
C1336 C1337 1.363 . S
C1336 C1342 1.379 . S
C1336 N1344 1.356 . S
C1337 C1336 1.363 . S
C1337 C1343 1.363 . S
C1338 C1339 1.363 . S
C1338 C1343 1.379 . S
C1338 N1345 1.356 . S
C1339 C1338 1.363 . S
C1339 C1342 1.363 . S
N1340 C1342 1.356 . S
N1340 H1352 0.984 . S
N1340 H1353 0.985 . S
N1341 C1343 1.356 . S
N1341 H1346 0.984 . S
N1341 H1347 0.985 . S
C1342 C1336 1.379 . S
C1342 C1339 1.363 . S
C1342 N1340 1.356 . S
C1343 C1337 1.363 . S
C1343 C1338 1.379 . S
C1343 N1341 1.356 . S
N1344 C1336 1.356 . S
N1344 H1350 0.984 . S
N1344 H1351 0.984 . S
N1345 C1338 1.356 . S
N1345 H1348 0.984 . S
N1345 H1349 0.985 . S
H1346 N1341 0.984 . S
H1347 N1341 0.985 . S
H1348 N1345 0.984 . S
H1349 N1345 0.985 . S
H1350 N1344 0.984 . S
H1351 N1344 0.984 . S
H1352 N1340 0.984 . S
H1353 N1340 0.985 . S
C1354 C1355 1.363 . S
C1354 C1360 1.379 . S
C1354 N1362 1.356 . S
C1355 C1354 1.363 . S
C1355 C1361 1.363 . S
C1356 C1357 1.363 . S
C1356 C1361 1.379 . S
C1356 N1363 1.356 . S
C1357 C1356 1.363 . S
C1357 C1360 1.363 . S
N1358 C1360 1.356 . S
N1358 H1370 0.984 . S
N1358 H1371 0.985 . S
N1359 C1361 1.356 . S
N1359 H1364 0.984 . S
N1359 H1365 0.985 . S
C1360 C1354 1.379 . S
C1360 C1357 1.363 . S
C1360 N1358 1.356 . S
C1361 C1355 1.363 . S
C1361 C1356 1.379 . S
C1361 N1359 1.356 . S
N1362 C1354 1.356 . S
N1362 H1368 0.984 . S
N1362 H1369 0.984 . S
N1363 C1356 1.356 . S
N1363 H1366 0.984 . S
N1363 H1367 0.985 . S
H1364 N1359 0.984 . S
H1365 N1359 0.985 . S
H1366 N1363 0.984 . S
H1367 N1363 0.985 . S
H1368 N1362 0.984 . S
H1369 N1362 0.984 . S
H1370 N1358 0.984 . S
H1371 N1358 0.985 . S
C1372 C1373 1.363 . S
C1372 C1378 1.379 . S
C1372 N1380 1.356 . S
C1373 C1372 1.363 . S
C1373 C1379 1.363 . S
C1374 C1375 1.363 . S
C1374 C1379 1.379 . S
C1374 N1381 1.356 . S
C1375 C1374 1.363 . S
C1375 C1378 1.363 . S
N1376 C1378 1.356 . S
N1376 H1388 0.984 . S
N1376 H1389 0.985 . S
N1377 C1379 1.356 . S
N1377 H1382 0.984 . S
N1377 H1383 0.985 . S
C1378 C1372 1.379 . S
C1378 C1375 1.363 . S
C1378 N1376 1.356 . S
C1379 C1373 1.363 . S
C1379 C1374 1.379 . S
C1379 N1377 1.356 . S
N1380 C1372 1.356 . S
N1380 H1386 0.984 . S
N1380 H1387 0.984 . S
N1381 C1374 1.356 . S
N1381 H1384 0.984 . S
N1381 H1385 0.985 . S
H1382 N1377 0.984 . S
H1383 N1377 0.985 . S
H1384 N1381 0.984 . S
H1385 N1381 0.985 . S
H1386 N1380 0.984 . S
H1387 N1380 0.984 . S
H1388 N1376 0.984 . S
H1389 N1376 0.985 . S
C1390 C1391 1.363 . S
C1390 C1396 1.379 . S
C1390 N1398 1.347 1_655 S
C1391 C1390 1.363 . S
C1391 C1397 1.363 . S
C1392 C1393 1.363 . S
C1392 C1397 1.379 . S
C1392 N1399 1.356 . S
C1393 C1392 1.363 . S
C1393 C1396 1.363 . S
N1394 C1396 1.356 . S
N1394 H1406 0.984 . S
N1394 H1407 0.985 . S
N1395 C1397 1.356 . S
N1395 H1400 0.984 . S
N1395 H1401 0.985 . S
C1396 C1390 1.379 . S
C1396 C1393 1.363 . S
C1396 N1394 1.356 . S
C1397 C1391 1.363 . S
C1397 C1392 1.379 . S
C1397 N1395 1.356 . S
N1398 C1390 1.347 1_455 S
N1398 H1404 0.997 . S
N1398 H1405 0.982 . S
N1399 C1392 1.356 . S
N1399 H1402 0.984 . S
N1399 H1403 0.985 . S
H1400 N1395 0.984 . S
H1401 N1395 0.985 . S
H1402 N1399 0.984 . S
H1403 N1399 0.985 . S
H1404 N1398 0.997 . S
H1405 N1398 0.982 . S
H1406 N1394 0.984 . S
H1407 N1394 0.985 . S
C1408 C1409 1.363 . S
C1408 C1414 1.379 . S
C1408 N1416 1.356 . S
C1409 C1408 1.363 . S
C1409 C1415 1.363 . S
C1410 C1411 1.363 . S
C1410 C1415 1.379 . S
C1410 N1417 1.356 . S
C1411 C1410 1.363 . S
C1411 C1414 1.363 . S
N1412 C1414 1.356 1_545 S
N1412 H1424 0.984 . S
N1412 H1425 0.985 . S
N1413 C1415 1.356 . S
N1413 H1418 0.984 . S
N1413 H1419 0.985 . S
C1414 C1408 1.379 . S
C1414 C1411 1.363 . S
C1414 N1412 1.356 1_565 S
C1415 C1409 1.363 . S
C1415 C1410 1.379 . S
C1415 N1413 1.356 . S
N1416 C1408 1.356 . S
N1416 H1422 0.984 . S
N1416 H1423 0.984 . S
N1417 C1410 1.356 . S
N1417 H1420 0.984 . S
N1417 H1421 0.985 . S
H1418 N1413 0.984 . S
H1419 N1413 0.985 . S
H1420 N1417 0.984 . S
H1421 N1417 0.985 . S
H1422 N1416 0.984 . S
H1423 N1416 0.984 . S
H1424 N1412 0.984 . S
H1425 N1412 0.985 . S
C1426 C1427 1.363 . S
C1426 C1432 1.379 . S
C1426 N1434 1.356 . S
C1427 C1426 1.363 . S
C1427 C1433 1.363 . S
C1428 C1429 1.363 . S
C1428 C1433 1.379 . S
C1428 N1435 1.356 . S
C1429 C1428 1.363 . S
C1429 C1432 1.363 . S
N1430 C1432 1.356 . S
N1430 H1442 0.984 . S
N1430 H1443 0.985 . S
N1431 C1433 1.356 . S
N1431 H1436 0.984 . S
N1431 H1437 0.985 . S
C1432 C1426 1.379 . S
C1432 C1429 1.363 . S
C1432 N1430 1.356 . S
C1433 C1427 1.363 . S
C1433 C1428 1.379 . S
C1433 N1431 1.356 . S
N1434 C1426 1.356 . S
N1434 H1440 0.984 . S
N1434 H1441 0.984 . S
N1435 C1428 1.356 . S
N1435 H1438 0.984 . S
N1435 H1439 0.985 . S
H1436 N1431 0.984 . S
H1437 N1431 0.985 . S
H1438 N1435 0.984 . S
H1439 N1435 0.985 . S
H1440 N1434 0.984 . S
H1441 N1434 0.984 . S
H1442 N1430 0.984 . S
H1443 N1430 0.985 . S
C1444 C1445 1.363 . S
C1444 C1450 1.379 . S
C1444 N1452 1.356 . S
C1445 C1444 1.363 . S
C1445 C1451 1.363 . S
C1446 C1447 1.363 . S
C1446 C1451 1.379 . S
C1446 N1453 1.356 . S
C1447 C1446 1.363 . S
C1447 C1450 1.363 . S
N1448 C1450 1.356 . S
N1448 H1460 0.984 . S
N1448 H1461 0.985 . S
N1449 C1451 1.356 . S
N1449 H1454 0.984 . S
N1449 H1455 0.985 . S
C1450 C1444 1.379 . S
C1450 C1447 1.363 . S
C1450 N1448 1.356 . S
C1451 C1445 1.363 . S
C1451 C1446 1.379 . S
C1451 N1449 1.356 . S
N1452 C1444 1.356 . S
N1452 H1458 0.984 . S
N1452 H1459 0.984 . S
N1453 C1446 1.356 . S
N1453 H1456 0.984 . S
N1453 H1457 0.985 . S
H1454 N1449 0.984 . S
H1455 N1449 0.985 . S
H1456 N1453 0.984 . S
H1457 N1453 0.985 . S
H1458 N1452 0.984 . S
H1459 N1452 0.984 . S
H1460 N1448 0.984 . S
H1461 N1448 0.985 . S
C1462 C1463 1.363 . S
C1462 C1468 1.379 . S
C1462 N1470 1.356 . S
C1463 C1462 1.363 . S
C1463 C1469 1.363 . S
C1464 C1465 1.363 . S
C1464 C1469 1.379 . S
C1464 N1471 1.356 . S
C1465 C1464 1.363 . S
C1465 C1468 1.363 . S
N1466 C1468 1.356 . S
N1466 H1478 0.984 . S
N1466 H1479 0.985 . S
N1467 C1469 1.356 . S
N1467 H1472 0.984 . S
N1467 H1473 0.985 . S
C1468 C1462 1.379 . S
C1468 C1465 1.363 . S
C1468 N1466 1.356 . S
C1469 C1463 1.363 . S
C1469 C1464 1.379 . S
C1469 N1467 1.356 . S
N1470 C1462 1.356 . S
N1470 H1476 0.984 . S
N1470 H1477 0.984 . S
N1471 C1464 1.356 . S
N1471 H1474 0.984 . S
N1471 H1475 0.985 . S
H1472 N1467 0.984 . S
H1473 N1467 0.985 . S
H1474 N1471 0.984 . S
H1475 N1471 0.985 . S
H1476 N1470 0.984 . S
H1477 N1470 0.984 . S
H1478 N1466 0.984 . S
H1479 N1466 0.985 . S
C1480 C1481 1.363 . S
C1480 C1486 1.379 . S
C1480 N1488 1.356 . S
C1481 C1480 1.363 . S
C1481 C1487 1.363 . S
C1482 C1483 1.363 . S
C1482 C1487 1.379 . S
C1482 N1489 1.356 . S
C1483 C1482 1.363 . S
C1483 C1486 1.363 . S
N1484 C1486 1.356 . S
N1484 H1496 0.984 1_455 S
N1484 H1497 0.985 . S
N1485 C1487 1.356 . S
N1485 H1490 0.984 . S
N1485 H1491 0.985 . S
C1486 C1480 1.379 . S
C1486 C1483 1.363 . S
C1486 N1484 1.356 . S
C1487 C1481 1.363 . S
C1487 C1482 1.379 . S
C1487 N1485 1.356 . S
N1488 C1480 1.356 . S
N1488 H1494 0.984 1_455 S
N1488 H1495 0.984 . S
N1489 C1482 1.356 . S
N1489 H1492 0.984 . S
N1489 H1493 0.985 . S
H1490 N1485 0.984 . S
H1491 N1485 0.985 . S
H1492 N1489 0.984 . S
H1493 N1489 0.985 . S
H1494 N1488 0.984 1_655 S
H1495 N1488 0.984 . S
H1496 N1484 0.984 1_655 S
H1497 N1484 0.985 . S
C1498 C1499 1.363 . S
C1498 C1504 1.379 . S
C1498 N1506 1.356 . S
C1499 C1498 1.363 . S
C1499 C1505 1.363 . S
C1500 C1501 1.363 . S
C1500 C1505 1.379 . S
C1500 N1507 1.356 . S
C1501 C1500 1.363 . S
C1501 C1504 1.363 . S
N1502 C1504 1.356 . S
N1502 H1514 0.984 . S
N1502 H1515 0.985 . S
N1503 C1505 1.356 . S
N1503 H1508 0.984 . S
N1503 H1509 0.985 . S
C1504 C1498 1.379 . S
C1504 C1501 1.363 . S
C1504 N1502 1.356 . S
C1505 C1499 1.363 . S
C1505 C1500 1.379 . S
C1505 N1503 1.356 . S
N1506 C1498 1.356 . S
N1506 H1512 0.984 . S
N1506 H1513 0.984 . S
N1507 C1500 1.356 . S
N1507 H1510 0.984 . S
N1507 H1511 0.985 . S
H1508 N1503 0.984 . S
H1509 N1503 0.985 . S
H1510 N1507 0.984 . S
H1511 N1507 0.985 . S
H1512 N1506 0.984 . S
H1513 N1506 0.984 . S
H1514 N1502 0.984 . S
H1515 N1502 0.985 . S
C1516 C1517 1.363 . S
C1516 C1522 1.369 1_556 S
C1516 N1524 1.356 . S
C1517 C1516 1.363 . S
C1517 C1523 1.363 . S
C1518 C1519 1.363 . S
C1518 C1523 1.379 . S
C1518 N1525 1.356 . S
C1519 C1518 1.363 . S
C1519 C1522 1.350 1_556 S
N1520 C1522 1.378 . S
N1520 H1532 0.984 . S
N1520 H1533 0.985 . S
N1521 C1523 1.356 . S
N1521 H1526 0.984 . S
N1521 H1527 0.985 . S
C1522 C1516 1.369 1_554 S
C1522 C1519 1.350 1_554 S
C1522 N1520 1.378 . S
C1523 C1517 1.363 . S
C1523 C1518 1.379 . S
C1523 N1521 1.356 . S
N1524 C1516 1.356 . S
N1524 H1530 0.984 1_556 S
N1524 H1531 0.984 . S
N1525 C1518 1.356 . S
N1525 H1528 0.984 . S
N1525 H1529 0.985 . S
H1526 N1521 0.984 . S
H1527 N1521 0.985 . S
H1528 N1525 0.984 . S
H1529 N1525 0.985 . S
H1530 N1524 0.984 1_554 S
H1531 N1524 0.984 . S
H1532 N1520 0.984 . S
H1533 N1520 0.985 . S
C1534 C1535 1.363 . S
C1534 C1540 1.379 . S
C1534 N1542 1.356 . S
C1535 C1534 1.363 . S
C1535 C1541 1.363 . S
C1536 C1537 1.363 . S
C1536 C1541 1.379 . S
C1536 N1543 1.356 . S
C1537 C1536 1.363 . S
C1537 C1540 1.363 . S
N1538 C1540 1.356 . S
N1538 H1550 0.984 . S
N1538 H1551 0.985 . S
N1539 C1541 1.356 . S
N1539 H1544 0.984 . S
N1539 H1545 0.985 . S
C1540 C1534 1.379 . S
C1540 C1537 1.363 . S
C1540 N1538 1.356 . S
C1541 C1535 1.363 . S
C1541 C1536 1.379 . S
C1541 N1539 1.356 . S
N1542 C1534 1.356 . S
N1542 H1548 0.984 . S
N1542 H1549 0.984 . S
N1543 C1536 1.356 . S
N1543 H1546 0.984 . S
N1543 H1547 0.985 . S
H1544 N1539 0.984 . S
H1545 N1539 0.985 . S
H1546 N1543 0.984 . S
H1547 N1543 0.985 . S
H1548 N1542 0.984 . S
H1549 N1542 0.984 . S
H1550 N1538 0.984 . S
H1551 N1538 0.985 . S
C1552 C1553 1.363 . S
C1552 C1558 1.379 . S
C1552 N1560 1.356 . S
C1553 C1552 1.363 . S
C1553 C1559 1.363 . S
C1554 C1555 1.363 . S
C1554 C1559 1.379 . S
C1554 N1561 1.356 . S
C1555 C1554 1.363 . S
C1555 C1558 1.363 . S
N1556 C1558 1.356 . S
N1556 H1568 0.984 1_556 S
N1556 H1569 0.985 1_556 S
N1557 C1559 1.356 . S
N1557 H1562 0.984 . S
N1557 H1563 0.985 . S
C1558 C1552 1.379 . S
C1558 C1555 1.363 . S
C1558 N1556 1.356 . S
C1559 C1553 1.363 . S
C1559 C1554 1.379 . S
C1559 N1557 1.356 . S
N1560 C1552 1.356 . S
N1560 H1566 0.984 . S
N1560 H1567 0.984 . S
N1561 C1554 1.356 . S
N1561 H1564 0.984 . S
N1561 H1565 0.985 . S
H1562 N1557 0.984 . S
H1563 N1557 0.985 . S
H1564 N1561 0.984 . S
H1565 N1561 0.985 . S
H1566 N1560 0.984 . S
H1567 N1560 0.984 . S
H1568 N1556 0.984 1_554 S
H1569 N1556 0.985 1_554 S
C1570 C1571 1.363 . S
C1570 C1576 1.379 . S
C1570 N1578 1.356 . S
C1571 C1570 1.363 . S
C1571 C1577 1.363 . S
C1572 C1573 1.363 . S
C1572 C1577 1.379 . S
C1572 N1579 1.356 . S
C1573 C1572 1.363 . S
C1573 C1576 1.363 . S
N1574 C1576 1.356 . S
N1574 H1586 0.984 . S
N1574 H1587 0.985 . S
N1575 C1577 1.356 . S
N1575 H1580 0.984 . S
N1575 H1581 0.985 . S
C1576 C1570 1.379 . S
C1576 C1573 1.363 . S
C1576 N1574 1.356 . S
C1577 C1571 1.363 . S
C1577 C1572 1.379 . S
C1577 N1575 1.356 . S
N1578 C1570 1.356 . S
N1578 H1584 0.984 . S
N1578 H1585 0.984 . S
N1579 C1572 1.356 . S
N1579 H1582 0.984 . S
N1579 H1583 0.985 . S
H1580 N1575 0.984 . S
H1581 N1575 0.985 . S
H1582 N1579 0.984 . S
H1583 N1579 0.985 . S
H1584 N1578 0.984 . S
H1585 N1578 0.984 . S
H1586 N1574 0.984 . S
H1587 N1574 0.985 . S
C1588 C1589 1.363 . S
C1588 C1594 1.379 . S
C1588 N1596 1.356 . S
C1589 C1588 1.363 . S
C1589 C1595 1.363 . S
C1590 C1591 1.363 . S
C1590 C1595 1.379 . S
C1590 N1597 1.356 . S
C1591 C1590 1.363 . S
C1591 C1594 1.363 . S
N1592 C1594 1.356 . S
N1592 H1604 0.984 . S
N1592 H1605 0.985 . S
N1593 C1595 1.356 . S
N1593 H1598 0.984 . S
N1593 H1599 0.985 . S
C1594 C1588 1.379 . S
C1594 C1591 1.363 . S
C1594 N1592 1.356 . S
C1595 C1589 1.363 . S
C1595 C1590 1.379 . S
C1595 N1593 1.356 . S
N1596 C1588 1.356 . S
N1596 H1602 0.984 . S
N1596 H1603 0.984 . S
N1597 C1590 1.356 . S
N1597 H1600 0.984 . S
N1597 H1601 0.985 . S
H1598 N1593 0.984 . S
H1599 N1593 0.985 . S
H1600 N1597 0.984 . S
H1601 N1597 0.985 . S
H1602 N1596 0.984 . S
H1603 N1596 0.984 . S
H1604 N1592 0.984 . S
H1605 N1592 0.985 . S
C1606 C1607 1.363 . S
C1606 C1612 1.379 . S
C1606 N1614 1.356 . S
C1607 C1606 1.363 . S
C1607 C1613 1.363 . S
C1608 C1609 1.363 . S
C1608 C1613 1.379 . S
C1608 N1615 1.356 . S
C1609 C1608 1.363 . S
C1609 C1612 1.363 . S
N1610 C1612 1.356 . S
N1610 H1622 0.984 . S
N1610 H1623 0.985 . S
N1611 C1613 1.356 . S
N1611 H1616 0.984 . S
N1611 H1617 0.985 . S
C1612 C1606 1.379 . S
C1612 C1609 1.363 . S
C1612 N1610 1.356 . S
C1613 C1607 1.363 . S
C1613 C1608 1.379 . S
C1613 N1611 1.356 . S
N1614 C1606 1.356 . S
N1614 H1620 0.984 . S
N1614 H1621 0.984 . S
N1615 C1608 1.356 . S
N1615 H1618 0.984 . S
N1615 H1619 0.985 . S
H1616 N1611 0.984 . S
H1617 N1611 0.985 . S
H1618 N1615 0.984 . S
H1619 N1615 0.985 . S
H1620 N1614 0.984 . S
H1621 N1614 0.984 . S
H1622 N1610 0.984 . S
H1623 N1610 0.985 . S
C1624 C1625 1.363 . S
C1624 C1630 1.379 . S
C1624 N1632 1.356 . S
C1625 C1624 1.363 . S
C1625 C1631 1.363 . S
C1626 C1627 1.363 . S
C1626 C1631 1.379 . S
C1626 N1633 1.356 . S
C1627 C1626 1.363 . S
C1627 C1630 1.363 . S
N1628 C1630 1.356 . S
N1628 H1640 0.984 . S
N1628 H1641 0.985 . S
N1629 C1631 1.356 . S
N1629 H1634 0.984 . S
N1629 H1635 0.985 . S
C1630 C1624 1.379 . S
C1630 C1627 1.363 . S
C1630 N1628 1.356 . S
C1631 C1625 1.363 . S
C1631 C1626 1.379 . S
C1631 N1629 1.356 . S
N1632 C1624 1.356 . S
N1632 H1638 0.984 . S
N1632 H1639 0.984 . S
N1633 C1626 1.356 . S
N1633 H1636 0.984 . S
N1633 H1637 0.985 . S
H1634 N1629 0.984 . S
H1635 N1629 0.985 . S
H1636 N1633 0.984 . S
H1637 N1633 0.985 . S
H1638 N1632 0.984 . S
H1639 N1632 0.984 . S
H1640 N1628 0.984 . S
H1641 N1628 0.985 . S
C1642 C1643 1.363 . S
C1642 C1648 1.379 . S
C1642 N1650 1.356 . S
C1643 C1642 1.363 . S
C1643 C1649 1.363 . S
C1644 C1645 1.363 . S
C1644 C1649 1.379 . S
C1644 N1651 1.356 . S
C1645 C1644 1.363 . S
C1645 C1648 1.363 . S
N1646 C1648 1.356 . S
N1646 H1658 0.984 . S
N1646 H1659 0.985 . S
N1647 C1649 1.356 . S
N1647 H1652 0.984 . S
N1647 H1653 0.985 . S
C1648 C1642 1.379 . S
C1648 C1645 1.363 . S
C1648 N1646 1.356 . S
C1649 C1643 1.363 . S
C1649 C1644 1.379 . S
C1649 N1647 1.356 . S
N1650 C1642 1.356 . S
N1650 H1656 0.984 . S
N1650 H1657 0.984 . S
N1651 C1644 1.356 . S
N1651 H1654 0.984 . S
N1651 H1655 0.985 . S
H1652 N1647 0.984 . S
H1653 N1647 0.985 . S
H1654 N1651 0.984 . S
H1655 N1651 0.985 . S
H1656 N1650 0.984 . S
H1657 N1650 0.984 . S
H1658 N1646 0.984 . S
H1659 N1646 0.985 . S
C1660 C1661 1.363 . S
C1660 C1666 1.379 . S
C1660 N1668 1.356 . S
C1661 C1660 1.363 . S
C1661 C1667 1.363 . S
C1662 C1663 1.363 . S
C1662 C1667 1.379 . S
C1662 N1669 1.356 . S
C1663 C1662 1.363 . S
C1663 C1666 1.363 . S
N1664 C1666 1.356 . S
N1664 H1676 0.963 1_545 S
N1664 H1677 0.985 1_545 S
N1665 C1667 1.356 . S
N1665 H1670 0.984 . S
N1665 H1671 0.985 . S
C1666 C1660 1.379 . S
C1666 C1663 1.363 . S
C1666 N1664 1.356 . S
C1667 C1661 1.363 . S
C1667 C1662 1.379 . S
C1667 N1665 1.356 . S
N1668 C1660 1.356 . S
N1668 H1674 0.984 . S
N1668 H1675 0.984 . S
N1669 C1662 1.356 . S
N1669 H1672 0.984 . S
N1669 H1673 0.985 . S
H1670 N1665 0.984 . S
H1671 N1665 0.985 . S
H1672 N1669 0.984 . S
H1673 N1669 0.985 . S
H1674 N1668 0.984 . S
H1675 N1668 0.984 . S
H1676 N1664 0.963 1_565 S
H1677 N1664 0.985 1_565 S
C1678 C1679 1.363 . S
C1678 C1684 1.379 . S
C1678 N1686 1.356 . S
C1679 C1678 1.363 . S
C1679 C1685 1.363 . S
C1680 C1681 1.363 . S
C1680 C1685 1.379 . S
C1680 N1687 1.356 . S
C1681 C1680 1.363 . S
C1681 C1684 1.363 . S
N1682 C1684 1.356 . S
N1682 H1694 0.984 . S
N1682 H1695 0.985 . S
N1683 C1685 1.356 . S
N1683 H1688 0.984 . S
N1683 H1689 0.985 . S
C1684 C1678 1.379 . S
C1684 C1681 1.363 . S
C1684 N1682 1.356 . S
C1685 C1679 1.363 . S
C1685 C1680 1.379 . S
C1685 N1683 1.356 . S
N1686 C1678 1.356 . S
N1686 H1692 0.984 . S
N1686 H1693 0.984 . S
N1687 C1680 1.356 . S
N1687 H1690 0.984 . S
N1687 H1691 0.985 . S
H1688 N1683 0.984 . S
H1689 N1683 0.985 . S
H1690 N1687 0.984 . S
H1691 N1687 0.985 . S
H1692 N1686 0.984 . S
H1693 N1686 0.984 . S
H1694 N1682 0.984 . S
H1695 N1682 0.985 . S
C1696 C1697 1.363 . S
C1696 C1702 1.379 . S
C1696 N1704 1.356 1_556 S
C1697 C1696 1.363 . S
C1697 C1703 1.363 . S
C1698 C1699 1.363 . S
C1698 C1703 1.379 . S
C1698 N1705 1.356 . S
C1699 C1698 1.363 . S
C1699 C1702 1.363 . S
N1700 C1702 1.356 . S
N1700 H1712 0.984 . S
N1700 H1713 0.985 . S
N1701 C1703 1.356 . S
N1701 H1706 0.984 . S
N1701 H1707 0.985 . S
C1702 C1696 1.379 . S
C1702 C1699 1.363 . S
C1702 N1700 1.356 . S
C1703 C1697 1.363 . S
C1703 C1698 1.379 . S
C1703 N1701 1.356 . S
N1704 C1696 1.356 1_554 S
N1704 H1710 0.984 . S
N1704 H1711 0.984 . S
N1705 C1698 1.356 . S
N1705 H1708 0.984 . S
N1705 H1709 0.985 . S
H1706 N1701 0.984 . S
H1707 N1701 0.985 . S
H1708 N1705 0.984 . S
H1709 N1705 0.985 . S
H1710 N1704 0.984 . S
H1711 N1704 0.984 . S
H1712 N1700 0.984 . S
H1713 N1700 0.985 . S
C1714 C1715 1.363 . S
C1714 C1720 1.379 . S
C1714 N1722 1.356 . S
C1715 C1714 1.363 . S
C1715 C1721 1.363 . S
C1716 C1717 1.363 . S
C1716 C1721 1.379 . S
C1716 N1723 1.356 . S
C1717 C1716 1.363 . S
C1717 C1720 1.363 . S
N1718 C1720 1.356 . S
N1718 H1730 0.984 . S
N1718 H1731 0.985 . S
N1719 C1721 1.356 . S
N1719 H1724 0.984 . S
N1719 H1725 0.985 . S
C1720 C1714 1.379 . S
C1720 C1717 1.363 . S
C1720 N1718 1.356 . S
C1721 C1715 1.363 . S
C1721 C1716 1.379 . S
C1721 N1719 1.356 . S
N1722 C1714 1.356 . S
N1722 H1728 0.984 . S
N1722 H1729 0.984 . S
N1723 C1716 1.356 . S
N1723 H1726 0.984 . S
N1723 H1727 0.985 . S
H1724 N1719 0.984 . S
H1725 N1719 0.985 . S
H1726 N1723 0.984 . S
H1727 N1723 0.985 . S
H1728 N1722 0.984 . S
H1729 N1722 0.984 . S
H1730 N1718 0.984 . S
H1731 N1718 0.985 . S
C1732 C1733 1.363 . S
C1732 C1738 1.379 . S
C1732 N1740 1.356 . S
C1733 C1732 1.363 . S
C1733 C1739 1.363 . S
C1734 C1735 1.363 . S
C1734 C1739 1.379 . S
C1734 N1741 1.356 . S
C1735 C1734 1.363 . S
C1735 C1738 1.363 . S
N1736 C1738 1.356 . S
N1736 H1748 0.984 . S
N1736 H1749 0.985 . S
N1737 C1739 1.356 . S
N1737 H1742 0.984 . S
N1737 H1743 0.985 . S
C1738 C1732 1.379 . S
C1738 C1735 1.363 . S
C1738 N1736 1.356 . S
C1739 C1733 1.363 . S
C1739 C1734 1.379 . S
C1739 N1737 1.356 . S
N1740 C1732 1.356 . S
N1740 H1746 0.984 . S
N1740 H1747 0.984 . S
N1741 C1734 1.356 . S
N1741 H1744 0.984 . S
N1741 H1745 0.985 . S
H1742 N1737 0.984 . S
H1743 N1737 0.985 . S
H1744 N1741 0.984 . S
H1745 N1741 0.985 . S
H1746 N1740 0.984 . S
H1747 N1740 0.984 . S
H1748 N1736 0.984 . S
H1749 N1736 0.985 . S
C1750 C1751 1.363 . S
C1750 C1756 1.379 . S
C1750 N1758 1.356 . S
C1751 C1750 1.363 . S
C1751 C1757 1.363 . S
C1752 C1753 1.363 . S
C1752 C1757 1.379 . S
C1752 N1759 1.356 . S
C1753 C1752 1.363 . S
C1753 C1756 1.363 . S
N1754 C1756 1.356 . S
N1754 H1766 0.984 . S
N1754 H1767 0.985 . S
N1755 C1757 1.356 . S
N1755 H1760 0.984 . S
N1755 H1761 0.985 . S
C1756 C1750 1.379 . S
C1756 C1753 1.363 . S
C1756 N1754 1.356 . S
C1757 C1751 1.363 . S
C1757 C1752 1.379 . S
C1757 N1755 1.356 . S
N1758 C1750 1.356 . S
N1758 H1764 0.984 . S
N1758 H1765 0.984 . S
N1759 C1752 1.356 . S
N1759 H1762 0.984 . S
N1759 H1763 0.985 . S
H1760 N1755 0.984 . S
H1761 N1755 0.985 . S
H1762 N1759 0.984 . S
H1763 N1759 0.985 . S
H1764 N1758 0.984 . S
H1765 N1758 0.984 . S
H1766 N1754 0.984 . S
H1767 N1754 0.985 . S
C1768 C1769 1.363 . S
C1768 C1774 1.379 . S
C1768 N1776 1.356 . S
C1769 C1768 1.363 . S
C1769 C1775 1.363 . S
C1770 C1771 1.363 . S
C1770 C1775 1.379 . S
C1770 N1777 1.356 . S
C1771 C1770 1.363 . S
C1771 C1774 1.363 . S
N1772 C1774 1.356 . S
N1772 H1784 0.984 . S
N1772 H1785 0.985 . S
N1773 C1775 1.356 . S
N1773 H1778 0.984 . S
N1773 H1779 0.985 1_565 S
C1774 C1768 1.379 . S
C1774 C1771 1.363 . S
C1774 N1772 1.356 . S
C1775 C1769 1.363 . S
C1775 C1770 1.379 . S
C1775 N1773 1.356 . S
N1776 C1768 1.356 . S
N1776 H1782 0.984 . S
N1776 H1783 0.984 . S
N1777 C1770 1.356 . S
N1777 H1780 0.984 . S
N1777 H1781 0.985 1_565 S
H1778 N1773 0.984 . S
H1779 N1773 0.985 1_545 S
H1780 N1777 0.984 . S
H1781 N1777 0.985 1_545 S
H1782 N1776 0.984 . S
H1783 N1776 0.984 . S
H1784 N1772 0.984 . S
H1785 N1772 0.985 . S
C1786 C1787 1.363 . S
C1786 C1792 1.379 . S
C1786 N1794 1.356 . S
C1787 C1786 1.363 . S
C1787 C1793 1.363 . S
C1788 C1789 1.363 1_545 S
C1788 C1793 1.379 1_545 S
C1788 N1795 1.356 . S
C1789 C1788 1.363 1_565 S
C1789 C1792 1.363 . S
N1790 C1792 1.356 . S
N1790 H1802 0.984 . S
N1790 H1803 0.985 . S
N1791 C1793 1.356 . S
N1791 H1796 0.984 . S
N1791 H1797 0.985 1_565 S
C1792 C1786 1.379 . S
C1792 C1789 1.363 . S
C1792 N1790 1.356 . S
C1793 C1787 1.363 . S
C1793 C1788 1.379 1_565 S
C1793 N1791 1.356 . S
N1794 C1786 1.356 . S
N1794 H1800 0.984 . S
N1794 H1801 0.984 . S
N1795 C1788 1.356 . S
N1795 H1798 0.984 . S
N1795 H1799 0.985 . S
H1796 N1791 0.984 . S
H1797 N1791 0.985 1_545 S
H1798 N1795 0.984 . S
H1799 N1795 0.985 . S
H1800 N1794 0.984 . S
H1801 N1794 0.984 . S
H1802 N1790 0.984 . S
H1803 N1790 0.985 . S
C1804 C1805 1.363 . S
C1804 C1810 1.379 . S
C1804 N1812 1.356 . S
C1805 C1804 1.363 . S
C1805 C1811 1.363 . S
C1806 C1807 1.363 . S
C1806 C1811 1.379 . S
C1806 N1813 1.356 . S
C1807 C1806 1.363 . S
C1807 C1810 1.363 . S
N1808 C1810 1.356 . S
N1808 H1820 0.984 . S
N1808 H1821 0.985 . S
N1809 C1811 1.356 . S
N1809 H1814 0.984 . S
N1809 H1815 0.985 . S
C1810 C1804 1.379 . S
C1810 C1807 1.363 . S
C1810 N1808 1.356 . S
C1811 C1805 1.363 . S
C1811 C1806 1.379 . S
C1811 N1809 1.356 . S
N1812 C1804 1.356 . S
N1812 H1818 0.984 . S
N1812 H1819 0.984 . S
N1813 C1806 1.356 . S
N1813 H1816 0.984 . S
N1813 H1817 0.985 . S
H1814 N1809 0.984 . S
H1815 N1809 0.985 . S
H1816 N1813 0.984 . S
H1817 N1813 0.985 . S
H1818 N1812 0.984 . S
H1819 N1812 0.984 . S
H1820 N1808 0.984 . S
H1821 N1808 0.985 . S
C1822 C1823 1.363 . S
C1822 C1828 1.379 . S
C1822 N1830 1.356 . S
C1823 C1822 1.363 . S
C1823 C1829 1.363 . S
C1824 C1825 1.363 . S
C1824 C1829 1.379 . S
C1824 N1831 1.356 . S
C1825 C1824 1.363 . S
C1825 C1828 1.363 . S
N1826 C1828 1.356 . S
N1826 H1838 0.984 . S
N1826 H1839 0.985 . S
N1827 C1829 1.356 . S
N1827 H1832 0.984 . S
N1827 H1833 0.985 . S
C1828 C1822 1.379 . S
C1828 C1825 1.363 . S
C1828 N1826 1.356 . S
C1829 C1823 1.363 . S
C1829 C1824 1.379 . S
C1829 N1827 1.356 . S
N1830 C1822 1.356 . S
N1830 H1836 0.984 . S
N1830 H1837 0.984 . S
N1831 C1824 1.356 . S
N1831 H1834 0.984 . S
N1831 H1835 0.985 . S
H1832 N1827 0.984 . S
H1833 N1827 0.985 . S
H1834 N1831 0.984 . S
H1835 N1831 0.985 . S
H1836 N1830 0.984 . S
H1837 N1830 0.984 . S
H1838 N1826 0.984 . S
H1839 N1826 0.985 . S
C1840 C1841 1.363 . S
C1840 C1846 1.379 . S
C1840 N1848 1.356 . S
C1841 C1840 1.363 . S
C1841 C1847 1.363 . S
C1842 C1843 1.363 . S
C1842 C1847 1.379 . S
C1842 N1849 1.356 . S
C1843 C1842 1.363 . S
C1843 C1846 1.363 . S
N1844 C1846 1.356 . S
N1844 H1856 0.984 . S
N1844 H1857 0.985 . S
N1845 C1847 1.356 . S
N1845 H1850 0.984 . S
N1845 H1851 0.985 . S
C1846 C1840 1.379 . S
C1846 C1843 1.363 . S
C1846 N1844 1.356 . S
C1847 C1841 1.363 . S
C1847 C1842 1.379 . S
C1847 N1845 1.356 . S
N1848 C1840 1.356 . S
N1848 H1854 0.984 . S
N1848 H1855 0.984 . S
N1849 C1842 1.356 . S
N1849 H1852 0.984 . S
N1849 H1853 0.985 . S
H1850 N1845 0.984 . S
H1851 N1845 0.985 . S
H1852 N1849 0.984 . S
H1853 N1849 0.985 . S
H1854 N1848 0.984 . S
H1855 N1848 0.984 . S
H1856 N1844 0.984 . S
H1857 N1844 0.985 . S
C1858 C1859 1.363 . S
C1858 C1864 1.379 . S
C1858 N1866 1.356 . S
C1859 C1858 1.363 . S
C1859 C1865 1.363 . S
C1860 C1861 1.363 . S
C1860 C1865 1.379 . S
C1860 N1867 1.356 . S
C1861 C1860 1.363 . S
C1861 C1864 1.363 . S
N1862 C1864 1.356 . S
N1862 H1874 0.984 . S
N1862 H1875 0.985 . S
N1863 C1865 1.356 . S
N1863 H1868 0.984 . S
N1863 H1869 0.985 . S
C1864 C1858 1.379 . S
C1864 C1861 1.363 . S
C1864 N1862 1.356 . S
C1865 C1859 1.363 . S
C1865 C1860 1.379 . S
C1865 N1863 1.356 . S
N1866 C1858 1.356 . S
N1866 H1872 0.984 . S
N1866 H1873 0.984 . S
N1867 C1860 1.356 . S
N1867 H1870 0.984 . S
N1867 H1871 0.985 . S
H1868 N1863 0.984 . S
H1869 N1863 0.985 . S
H1870 N1867 0.984 . S
H1871 N1867 0.985 . S
H1872 N1866 0.984 . S
H1873 N1866 0.984 . S
H1874 N1862 0.984 . S
H1875 N1862 0.985 . S
C1876 C1877 1.363 1_655 S
C1876 C1882 1.379 1_655 S
C1876 N1884 1.356 . S
C1877 C1876 1.363 1_455 S
C1877 C1883 1.363 . S
C1878 C1879 1.363 . S
C1878 C1883 1.379 . S
C1878 N1885 1.356 . S
C1879 C1878 1.363 . S
C1879 C1882 1.363 . S
N1880 C1882 1.356 1_655 S
N1880 H1892 0.984 . S
N1880 H1893 0.985 1_655 S
N1881 C1883 1.356 . S
N1881 H1886 0.984 . S
N1881 H1887 0.985 . S
C1882 C1876 1.379 1_455 S
C1882 C1879 1.363 . S
C1882 N1880 1.356 1_455 S
C1883 C1877 1.363 . S
C1883 C1878 1.379 . S
C1883 N1881 1.356 . S
N1884 C1876 1.356 . S
N1884 H1890 0.984 . S
N1884 H1891 0.984 . S
N1885 C1878 1.356 . S
N1885 H1888 0.984 . S
N1885 H1889 0.985 . S
H1886 N1881 0.984 . S
H1887 N1881 0.985 . S
H1888 N1885 0.984 . S
H1889 N1885 0.985 . S
H1890 N1884 0.984 . S
H1891 N1884 0.984 . S
H1892 N1880 0.984 . S
H1893 N1880 0.985 1_455 S
C1894 C1895 1.363 . S
C1894 C1900 1.379 . S
C1894 N1902 1.356 . S
C1895 C1894 1.363 . S
C1895 C1901 1.363 . S
C1896 C1897 1.363 . S
C1896 C1901 1.379 . S
C1896 N1903 1.356 . S
C1897 C1896 1.363 . S
C1897 C1900 1.363 . S
N1898 C1900 1.356 1_655 S
N1898 H1910 0.984 . S
N1898 H1911 0.985 . S
N1899 C1901 1.356 . S
N1899 H1904 0.984 . S
N1899 H1905 0.985 . S
C1900 C1894 1.379 . S
C1900 C1897 1.363 . S
C1900 N1898 1.356 1_455 S
C1901 C1895 1.363 . S
C1901 C1896 1.379 . S
C1901 N1899 1.356 . S
N1902 C1894 1.356 . S
N1902 H1908 0.984 . S
N1902 H1909 0.984 . S
N1903 C1896 1.356 . S
N1903 H1906 0.973 1_455 S
N1903 H1907 0.985 . S
H1904 N1899 0.984 . S
H1905 N1899 0.985 . S
H1906 N1903 0.973 1_655 S
H1907 N1903 0.985 . S
H1908 N1902 0.984 . S
H1909 N1902 0.984 . S
H1910 N1898 0.984 . S
H1911 N1898 0.985 . S
C1912 C1913 1.363 . S
C1912 C1918 1.379 . S
C1912 N1920 1.356 . S
C1913 C1912 1.363 . S
C1913 C1919 1.363 . S
C1914 C1915 1.363 . S
C1914 C1919 1.379 . S
C1914 N1921 1.356 . S
C1915 C1914 1.363 . S
C1915 C1918 1.363 . S
N1916 C1918 1.356 . S
N1916 H1928 0.984 . S
N1916 H1929 0.985 . S
N1917 C1919 1.356 . S
N1917 H1922 0.984 . S
N1917 H1923 0.985 . S
C1918 C1912 1.379 . S
C1918 C1915 1.363 . S
C1918 N1916 1.356 . S
C1919 C1913 1.363 . S
C1919 C1914 1.379 . S
C1919 N1917 1.356 . S
N1920 C1912 1.356 . S
N1920 H1926 0.984 . S
N1920 H1927 0.984 . S
N1921 C1914 1.356 . S
N1921 H1924 0.984 . S
N1921 H1925 0.985 . S
H1922 N1917 0.984 . S
H1923 N1917 0.985 . S
H1924 N1921 0.984 . S
H1925 N1921 0.985 . S
H1926 N1920 0.984 . S
H1927 N1920 0.984 . S
H1928 N1916 0.984 . S
H1929 N1916 0.985 . S
C1930 C1931 1.363 . S
C1930 C1936 1.379 . S
C1930 N1938 1.356 . S
C1931 C1930 1.363 . S
C1931 C1937 1.363 . S
C1932 C1933 1.363 . S
C1932 C1937 1.379 . S
C1932 N1939 1.356 . S
C1933 C1932 1.363 . S
C1933 C1936 1.363 . S
N1934 C1936 1.356 . S
N1934 H1946 0.984 . S
N1934 H1947 0.985 . S
N1935 C1937 1.356 . S
N1935 H1940 0.984 . S
N1935 H1941 0.985 . S
C1936 C1930 1.379 . S
C1936 C1933 1.363 . S
C1936 N1934 1.356 . S
C1937 C1931 1.363 . S
C1937 C1932 1.379 . S
C1937 N1935 1.356 . S
N1938 C1930 1.356 . S
N1938 H1944 0.984 . S
N1938 H1945 0.984 . S
N1939 C1932 1.356 . S
N1939 H1942 0.984 . S
N1939 H1943 0.985 . S
H1940 N1935 0.984 . S
H1941 N1935 0.985 . S
H1942 N1939 0.984 . S
H1943 N1939 0.985 . S
H1944 N1938 0.984 . S
H1945 N1938 0.984 . S
H1946 N1934 0.984 . S
H1947 N1934 0.985 . S
C1948 C1949 1.363 . S
C1948 C1954 1.379 . S
C1948 N1956 1.356 . S
C1949 C1948 1.363 . S
C1949 C1955 1.363 . S
C1950 C1951 1.363 . S
C1950 C1955 1.379 . S
C1950 N1957 1.356 1_455 S
C1951 C1950 1.363 . S
C1951 C1954 1.363 . S
N1952 C1954 1.356 . S
N1952 H1964 0.984 . S
N1952 H1965 0.985 . S
N1953 C1955 1.356 1_655 S
N1953 H1958 0.984 . S
N1953 H1959 0.985 . S
C1954 C1948 1.379 . S
C1954 C1951 1.363 . S
C1954 N1952 1.356 . S
C1955 C1949 1.363 . S
C1955 C1950 1.379 . S
C1955 N1953 1.356 1_455 S
N1956 C1948 1.356 . S
N1956 H1962 0.984 . S
N1956 H1963 0.984 . S
N1957 C1950 1.356 1_655 S
N1957 H1960 0.984 . S
N1957 H1961 0.985 . S
H1958 N1953 0.984 . S
H1959 N1953 0.985 . S
H1960 N1957 0.984 . S
H1961 N1957 0.985 . S
H1962 N1956 0.984 . S
H1963 N1956 0.984 . S
H1964 N1952 0.984 . S
H1965 N1952 0.985 . S
C1966 C1967 1.363 . S
C1966 C1972 1.379 . S
C1966 N1974 1.356 . S
C1967 C1966 1.363 . S
C1967 C1973 1.363 . S
C1968 C1969 1.363 . S
C1968 C1973 1.379 . S
C1968 N1975 1.356 . S
C1969 C1968 1.363 . S
C1969 C1972 1.363 . S
N1970 C1972 1.356 . S
N1970 H1982 0.984 . S
N1970 H1983 0.985 . S
N1971 C1973 1.356 . S
N1971 H1976 0.984 . S
N1971 H1977 0.985 . S
C1972 C1966 1.379 . S
C1972 C1969 1.363 . S
C1972 N1970 1.356 . S
C1973 C1967 1.363 . S
C1973 C1968 1.379 . S
C1973 N1971 1.356 . S
N1974 C1966 1.356 . S
N1974 H1980 0.984 . S
N1974 H1981 0.984 . S
N1975 C1968 1.356 . S
N1975 H1978 0.984 . S
N1975 H1979 0.985 . S
H1976 N1971 0.984 . S
H1977 N1971 0.985 . S
H1978 N1975 0.984 . S
H1979 N1975 0.985 . S
H1980 N1974 0.984 . S
H1981 N1974 0.984 . S
H1982 N1970 0.984 . S
H1983 N1970 0.985 . S
C1984 C1985 1.363 . S
C1984 C1990 1.379 . S
C1984 N1992 1.356 . S
C1985 C1984 1.363 . S
C1985 C1991 1.363 . S
C1986 C1987 1.363 . S
C1986 C1991 1.379 . S
C1986 N1993 1.356 . S
C1987 C1986 1.363 . S
C1987 C1990 1.363 . S
N1988 C1990 1.356 . S
N1988 H2000 0.984 . S
N1988 H2001 0.985 . S
N1989 C1991 1.356 . S
N1989 H1994 0.984 . S
N1989 H1995 0.985 . S
C1990 C1984 1.379 . S
C1990 C1987 1.363 . S
C1990 N1988 1.356 . S
C1991 C1985 1.363 . S
C1991 C1986 1.379 . S
C1991 N1989 1.356 . S
N1992 C1984 1.356 . S
N1992 H1998 0.984 . S
N1992 H1999 0.984 . S
N1993 C1986 1.356 . S
N1993 H1996 0.984 . S
N1993 H1997 0.985 . S
H1994 N1989 0.984 . S
H1995 N1989 0.985 . S
H1996 N1993 0.984 . S
H1997 N1993 0.985 . S
H1998 N1992 0.984 . S
H1999 N1992 0.984 . S
H2000 N1988 0.984 . S
H2001 N1988 0.985 . S
C2002 C2003 1.363 . S
C2002 C2008 1.379 . S
C2002 N2010 1.356 . S
C2003 C2002 1.363 . S
C2003 C2009 1.363 . S
C2004 C2005 1.363 . S
C2004 C2009 1.379 . S
C2004 N2011 1.356 . S
C2005 C2004 1.363 . S
C2005 C2008 1.363 . S
N2006 C2008 1.356 . S
N2006 H2018 0.984 . S
N2006 H2019 0.985 . S
N2007 C2009 1.356 . S
N2007 H2012 0.984 . S
N2007 H2013 0.985 . S
C2008 C2002 1.379 . S
C2008 C2005 1.363 . S
C2008 N2006 1.356 . S
C2009 C2003 1.363 . S
C2009 C2004 1.379 . S
C2009 N2007 1.356 . S
N2010 C2002 1.356 . S
N2010 H2016 0.984 . S
N2010 H2017 0.984 . S
N2011 C2004 1.356 . S
N2011 H2014 0.984 . S
N2011 H2015 0.985 . S
H2012 N2007 0.984 . S
H2013 N2007 0.985 . S
H2014 N2011 0.984 . S
H2015 N2011 0.985 . S
H2016 N2010 0.984 . S
H2017 N2010 0.984 . S
H2018 N2006 0.984 . S
H2019 N2006 0.985 . S
C2020 C2021 1.363 . S
C2020 C2026 1.379 . S
C2020 N2028 1.356 . S
C2021 C2020 1.363 . S
C2021 C2027 1.363 . S
C2022 C2023 1.363 . S
C2022 C2027 1.379 . S
C2022 N2029 1.356 . S
C2023 C2022 1.363 . S
C2023 C2026 1.363 . S
N2024 C2026 1.356 . S
N2024 H2036 0.984 . S
N2024 H2037 0.985 . S
N2025 C2027 1.356 . S
N2025 H2030 0.984 . S
N2025 H2031 0.985 . S
C2026 C2020 1.379 . S
C2026 C2023 1.363 . S
C2026 N2024 1.356 . S
C2027 C2021 1.363 . S
C2027 C2022 1.379 . S
C2027 N2025 1.356 . S
N2028 C2020 1.356 . S
N2028 H2034 0.984 1_455 S
N2028 H2035 0.984 1_455 S
N2029 C2022 1.356 . S
N2029 H2032 0.984 . S
N2029 H2033 0.985 . S
H2030 N2025 0.984 . S
H2031 N2025 0.985 . S
H2032 N2029 0.984 . S
H2033 N2029 0.985 . S
H2034 N2028 0.984 1_655 S
H2035 N2028 0.984 1_655 S
H2036 N2024 0.984 . S
H2037 N2024 0.985 . S
C2038 C2039 1.363 . S
C2038 C2044 1.379 . S
C2038 N2046 1.356 . S
C2039 C2038 1.363 . S
C2039 C2045 1.363 . S
C2040 C2041 1.363 . S
C2040 C2045 1.379 . S
C2040 N2047 1.356 . S
C2041 C2040 1.363 . S
C2041 C2044 1.363 . S
N2042 C2044 1.356 . S
N2042 H2054 0.984 . S
N2042 H2055 0.985 . S
N2043 C2045 1.356 . S
N2043 H2048 0.984 . S
N2043 H2049 0.985 . S
C2044 C2038 1.379 . S
C2044 C2041 1.363 . S
C2044 N2042 1.356 . S
C2045 C2039 1.363 . S
C2045 C2040 1.379 . S
C2045 N2043 1.356 . S
N2046 C2038 1.356 . S
N2046 H2052 0.984 . S
N2046 H2053 0.984 . S
N2047 C2040 1.356 . S
N2047 H2050 0.984 . S
N2047 H2051 0.985 . S
H2048 N2043 0.984 . S
H2049 N2043 0.985 . S
H2050 N2047 0.984 . S
H2051 N2047 0.985 . S
H2052 N2046 0.984 . S
H2053 N2046 0.984 . S
H2054 N2042 0.984 . S
H2055 N2042 0.985 . S
C2056 C2057 1.363 . S
C2056 C2062 1.379 . S
C2056 N2064 1.356 . S
C2057 C2056 1.363 . S
C2057 C2063 1.363 . S
C2058 C2059 1.363 . S
C2058 C2063 1.379 . S
C2058 N2065 1.356 . S
C2059 C2058 1.363 . S
C2059 C2062 1.363 . S
N2060 C2062 1.356 . S
N2060 H2072 0.984 . S
N2060 H2073 0.985 . S
N2061 C2063 1.356 . S
N2061 H2066 0.984 . S
N2061 H2067 0.985 . S
C2062 C2056 1.379 . S
C2062 C2059 1.363 . S
C2062 N2060 1.356 . S
C2063 C2057 1.363 . S
C2063 C2058 1.379 . S
C2063 N2061 1.356 . S
N2064 C2056 1.356 . S
N2064 H2070 0.984 . S
N2064 H2071 0.984 . S
N2065 C2058 1.356 . S
N2065 H2068 0.984 . S
N2065 H2069 0.985 . S
H2066 N2061 0.984 . S
H2067 N2061 0.985 . S
H2068 N2065 0.984 . S
H2069 N2065 0.985 . S
H2070 N2064 0.984 . S
H2071 N2064 0.984 . S
H2072 N2060 0.984 . S
H2073 N2060 0.985 . S
C2074 C2075 1.363 . S
C2074 C2080 1.379 . S
C2074 N2082 1.356 . S
C2075 C2074 1.363 . S
C2075 C2081 1.363 . S
C2076 C2077 1.363 . S
C2076 C2081 1.379 . S
C2076 N2083 1.356 . S
C2077 C2076 1.363 . S
C2077 C2080 1.363 . S
N2078 C2080 1.356 . S
N2078 H2090 0.984 . S
N2078 H2091 0.985 . S
N2079 C2081 1.356 . S
N2079 H2084 0.984 . S
N2079 H2085 0.985 . S
C2080 C2074 1.379 . S
C2080 C2077 1.363 . S
C2080 N2078 1.356 . S
C2081 C2075 1.363 . S
C2081 C2076 1.379 . S
C2081 N2079 1.356 . S
N2082 C2074 1.356 . S
N2082 H2088 0.984 . S
N2082 H2089 0.984 . S
N2083 C2076 1.356 . S
N2083 H2086 0.984 . S
N2083 H2087 0.985 . S
H2084 N2079 0.984 . S
H2085 N2079 0.985 . S
H2086 N2083 0.984 . S
H2087 N2083 0.985 . S
H2088 N2082 0.984 . S
H2089 N2082 0.984 . S
H2090 N2078 0.984 . S
H2091 N2078 0.985 . S
C2092 C2093 1.363 . S
C2092 C2098 1.379 . S
C2092 N2100 1.356 . S
C2093 C2092 1.363 . S
C2093 C2099 1.363 . S
C2094 C2095 1.363 . S
C2094 C2099 1.379 . S
C2094 N2101 1.356 . S
C2095 C2094 1.363 . S
C2095 C2098 1.363 . S
N2096 C2098 1.356 . S
N2096 H2108 0.984 . S
N2096 H2109 0.985 . S
N2097 C2099 1.356 . S
N2097 H2102 0.984 . S
N2097 H2103 0.985 . S
C2098 C2092 1.379 . S
C2098 C2095 1.363 . S
C2098 N2096 1.356 . S
C2099 C2093 1.363 . S
C2099 C2094 1.379 . S
C2099 N2097 1.356 . S
N2100 C2092 1.356 . S
N2100 H2106 0.984 1_455 S
N2100 H2107 0.984 . S
N2101 C2094 1.356 . S
N2101 H2104 0.984 . S
N2101 H2105 0.985 . S
H2102 N2097 0.984 . S
H2103 N2097 0.985 . S
H2104 N2101 0.984 . S
H2105 N2101 0.985 . S
H2106 N2100 0.984 1_655 S
H2107 N2100 0.984 . S
H2108 N2096 0.984 . S
H2109 N2096 0.985 . S
C2110 C2111 1.363 . S
C2110 C2116 1.379 . S
C2110 N2118 1.356 . S
C2111 C2110 1.363 . S
C2111 C2117 1.363 . S
C2112 C2113 1.363 . S
C2112 C2117 1.379 . S
C2112 N2119 1.356 . S
C2113 C2112 1.363 . S
C2113 C2116 1.363 . S
N2114 C2116 1.356 . S
N2114 H2126 0.984 . S
N2114 H2127 0.985 . S
N2115 C2117 1.356 . S
N2115 H2120 0.984 . S
N2115 H2121 0.985 . S
C2116 C2110 1.379 . S
C2116 C2113 1.363 . S
C2116 N2114 1.356 . S
C2117 C2111 1.363 . S
C2117 C2112 1.379 . S
C2117 N2115 1.356 . S
N2118 C2110 1.356 . S
N2118 H2124 0.984 . S
N2118 H2125 0.984 . S
N2119 C2112 1.356 . S
N2119 H2122 0.984 . S
N2119 H2123 0.985 . S
H2120 N2115 0.984 . S
H2121 N2115 0.985 . S
H2122 N2119 0.984 . S
H2123 N2119 0.985 . S
H2124 N2118 0.984 . S
H2125 N2118 0.984 . S
H2126 N2114 0.984 . S
H2127 N2114 0.985 . S
C2128 C2129 1.363 . S
C2128 C2134 1.379 . S
C2128 N2136 1.356 . S
C2129 C2128 1.363 . S
C2129 C2135 1.363 . S
C2130 C2131 1.363 . S
C2130 C2135 1.379 . S
C2130 N2137 1.356 . S
C2131 C2130 1.363 . S
C2131 C2134 1.363 . S
N2132 C2134 1.356 . S
N2132 H2144 0.984 . S
N2132 H2145 0.985 . S
N2133 C2135 1.356 . S
N2133 H2138 0.984 . S
N2133 H2139 0.985 . S
C2134 C2128 1.379 . S
C2134 C2131 1.363 . S
C2134 N2132 1.356 . S
C2135 C2129 1.363 . S
C2135 C2130 1.379 . S
C2135 N2133 1.356 . S
N2136 C2128 1.356 . S
N2136 H2142 0.984 . S
N2136 H2143 0.984 . S
N2137 C2130 1.356 . S
N2137 H2140 0.984 . S
N2137 H2141 0.985 . S
H2138 N2133 0.984 . S
H2139 N2133 0.985 . S
H2140 N2137 0.984 . S
H2141 N2137 0.985 . S
H2142 N2136 0.984 . S
H2143 N2136 0.984 . S
H2144 N2132 0.984 . S
H2145 N2132 0.985 . S
C2146 C2147 1.363 . S
C2146 C2152 1.379 . S
C2146 N2154 1.356 . S
C2147 C2146 1.363 . S
C2147 C2153 1.363 . S
C2148 C2149 1.363 . S
C2148 C2153 1.379 . S
C2148 N2155 1.356 . S
C2149 C2148 1.363 . S
C2149 C2152 1.363 . S
N2150 C2152 1.356 . S
N2150 H2162 0.984 . S
N2150 H2163 0.985 . S
N2151 C2153 1.356 . S
N2151 H2156 0.984 . S
N2151 H2157 0.985 . S
C2152 C2146 1.379 . S
C2152 C2149 1.363 . S
C2152 N2150 1.356 . S
C2153 C2147 1.363 . S
C2153 C2148 1.379 . S
C2153 N2151 1.356 . S
N2154 C2146 1.356 . S
N2154 H2160 0.984 . S
N2154 H2161 0.984 . S
N2155 C2148 1.356 . S
N2155 H2158 0.984 . S
N2155 H2159 0.985 . S
H2156 N2151 0.984 . S
H2157 N2151 0.985 . S
H2158 N2155 0.984 . S
H2159 N2155 0.985 . S
H2160 N2154 0.984 . S
H2161 N2154 0.984 . S
H2162 N2150 0.984 . S
H2163 N2150 0.985 . S
C2164 C2165 1.363 . S
C2164 C2170 1.379 . S
C2164 N2172 1.356 . S
C2165 C2164 1.363 . S
C2165 C2171 1.363 . S
C2166 C2167 1.363 . S
C2166 C2171 1.379 1_565 S
C2166 N2173 1.356 . S
C2167 C2166 1.363 . S
C2167 C2170 1.363 1_565 S
N2168 C2170 1.356 . S
N2168 H2180 0.984 . S
N2168 H2181 0.985 1_545 S
N2169 C2171 1.356 . S
N2169 H2174 0.984 . S
N2169 H2175 0.985 . S
C2170 C2164 1.379 . S
C2170 C2167 1.363 1_545 S
C2170 N2168 1.356 . S
C2171 C2165 1.363 . S
C2171 C2166 1.379 1_545 S
C2171 N2169 1.356 . S
N2172 C2164 1.356 . S
N2172 H2178 0.984 . S
N2172 H2179 0.984 . S
N2173 C2166 1.356 . S
N2173 H2176 0.984 . S
N2173 H2177 0.985 . S
H2174 N2169 0.984 . S
H2175 N2169 0.985 . S
H2176 N2173 0.984 . S
H2177 N2173 0.985 . S
H2178 N2172 0.984 . S
H2179 N2172 0.984 . S
H2180 N2168 0.984 . S
H2181 N2168 0.985 1_565 S
C2182 C2183 1.363 . S
C2182 C2188 1.379 . S
C2182 N2190 1.356 . S
C2183 C2182 1.363 . S
C2183 C2189 1.363 . S
C2184 C2185 1.363 . S
C2184 C2189 1.379 1_545 S
C2184 N2191 1.356 . S
C2185 C2184 1.363 . S
C2185 C2188 1.363 1_545 S
N2186 C2188 1.356 . S
N2186 H2198 0.984 . S
N2186 H2199 0.985 1_565 S
N2187 C2189 1.356 . S
N2187 H2192 0.984 . S
N2187 H2193 0.985 . S
C2188 C2182 1.379 . S
C2188 C2185 1.363 1_565 S
C2188 N2186 1.356 . S
C2189 C2183 1.363 . S
C2189 C2184 1.379 1_565 S
C2189 N2187 1.356 . S
N2190 C2182 1.356 . S
N2190 H2196 0.984 . S
N2190 H2197 0.984 . S
N2191 C2184 1.356 . S
N2191 H2194 0.984 . S
N2191 H2195 0.985 . S
H2192 N2187 0.984 . S
H2193 N2187 0.985 . S
H2194 N2191 0.984 . S
H2195 N2191 0.985 . S
H2196 N2190 0.984 . S
H2197 N2190 0.984 . S
H2198 N2186 0.984 . S
H2199 N2186 0.985 1_545 S
C2200 C2201 1.363 . S
C2200 C2206 1.379 . S
C2200 N2208 1.356 . S
C2201 C2200 1.363 . S
C2201 C2207 1.363 . S
C2202 C2203 1.363 . S
C2202 C2207 1.379 . S
C2202 N2209 1.356 . S
C2203 C2202 1.363 . S
C2203 C2206 1.363 . S
N2204 C2206 1.356 . S
N2204 H2216 0.984 . S
N2204 H2217 0.985 . S
N2205 C2207 1.356 . S
N2205 H2210 0.984 . S
N2205 H2211 0.985 . S
C2206 C2200 1.379 . S
C2206 C2203 1.363 . S
C2206 N2204 1.356 . S
C2207 C2201 1.363 . S
C2207 C2202 1.379 . S
C2207 N2205 1.356 . S
N2208 C2200 1.356 . S
N2208 H2214 0.984 . S
N2208 H2215 0.984 . S
N2209 C2202 1.356 . S
N2209 H2212 0.984 . S
N2209 H2213 0.985 . S
H2210 N2205 0.984 . S
H2211 N2205 0.985 . S
H2212 N2209 0.984 . S
H2213 N2209 0.985 . S
H2214 N2208 0.984 . S
H2215 N2208 0.984 . S
H2216 N2204 0.984 . S
H2217 N2204 0.985 . S
C2218 C2219 1.363 . S
C2218 C2224 1.379 . S
C2218 N2226 1.356 . S
C2219 C2218 1.363 . S
C2219 C2225 1.363 . S
C2220 C2221 1.363 . S
C2220 C2225 1.379 . S
C2220 N2227 1.356 1_554 S
C2221 C2220 1.363 . S
C2221 C2224 1.363 . S
N2222 C2224 1.356 . S
N2222 H2234 0.984 . S
N2222 H2235 0.960 1_655 S
N2223 C2225 1.356 1_556 S
N2223 H2228 0.984 . S
N2223 H2229 0.985 . S
C2224 C2218 1.379 . S
C2224 C2221 1.363 . S
C2224 N2222 1.356 . S
C2225 C2219 1.363 . S
C2225 C2220 1.379 . S
C2225 N2223 1.356 1_554 S
N2226 C2218 1.356 . S
N2226 H2232 0.984 . S
N2226 H2233 0.984 . S
N2227 C2220 1.356 1_556 S
N2227 H2230 0.984 . S
N2227 H2231 0.985 . S
H2228 N2223 0.984 . S
H2229 N2223 0.985 . S
H2230 N2227 0.984 . S
H2231 N2227 0.985 . S
H2232 N2226 0.984 . S
H2233 N2226 0.984 . S
H2234 N2222 0.984 . S
H2235 N2222 0.960 1_455 S
C2236 C2237 1.363 . S
C2236 C2242 1.379 . S
C2236 N2244 1.356 . S
C2237 C2236 1.363 . S
C2237 C2243 1.363 . S
C2238 C2239 1.363 . S
C2238 C2243 1.379 . S
C2238 N2245 1.356 . S
C2239 C2238 1.363 . S
C2239 C2242 1.363 . S
N2240 C2242 1.356 . S
N2240 H2252 0.984 . S
N2240 H2253 0.985 . S
N2241 C2243 1.356 . S
N2241 H2246 0.984 . S
N2241 H2247 0.985 . S
C2242 C2236 1.379 . S
C2242 C2239 1.363 . S
C2242 N2240 1.356 . S
C2243 C2237 1.363 . S
C2243 C2238 1.379 . S
C2243 N2241 1.356 . S
N2244 C2236 1.356 . S
N2244 H2250 0.984 . S
N2244 H2251 0.984 . S
N2245 C2238 1.356 . S
N2245 H2248 0.984 . S
N2245 H2249 0.985 . S
H2246 N2241 0.984 . S
H2247 N2241 0.985 . S
H2248 N2245 0.984 . S
H2249 N2245 0.985 . S
H2250 N2244 0.984 . S
H2251 N2244 0.984 . S
H2252 N2240 0.984 . S
H2253 N2240 0.985 . S
C2254 C2255 1.363 . S
C2254 C2260 1.379 . S
C2254 N2262 1.356 . S
C2255 C2254 1.363 . S
C2255 C2261 1.363 . S
C2256 C2257 1.368 . S
C2256 C2261 1.370 1_565 S
C2256 N2263 1.362 . S
C2257 C2256 1.368 . S
C2257 C2260 1.363 1_565 S
N2258 C2260 1.356 1_565 S
N2258 H2270 0.984 . S
N2258 H2271 0.985 . S
N2259 C2261 1.356 . S
N2259 H2264 0.984 . S
N2259 H2265 0.985 . S
C2260 C2254 1.379 . S
C2260 C2257 1.363 1_545 S
C2260 N2258 1.356 1_545 S
C2261 C2255 1.363 . S
C2261 C2256 1.370 1_545 S
C2261 N2259 1.356 . S
N2262 C2254 1.356 . S
N2262 H2268 0.984 . S
N2262 H2269 0.984 . S
N2263 C2256 1.362 . S
N2263 H2266 0.984 . S
N2263 H2267 0.985 . S
H2264 N2259 0.984 . S
H2265 N2259 0.985 . S
H2266 N2263 0.984 . S
H2267 N2263 0.985 . S
H2268 N2262 0.984 . S
H2269 N2262 0.984 . S
H2270 N2258 0.984 . S
H2271 N2258 0.985 . S
C2272 C2273 1.363 . S
C2272 C2278 1.379 . S
C2272 N2280 1.356 . S
C2273 C2272 1.363 . S
C2273 C2279 1.363 . S
C2274 C2275 1.363 . S
C2274 C2279 1.379 . S
C2274 N2281 1.356 . S
C2275 C2274 1.363 . S
C2275 C2278 1.363 . S
N2276 C2278 1.356 . S
N2276 H2288 0.984 . S
N2276 H2289 0.985 . S
N2277 C2279 1.356 . S
N2277 H2282 0.984 . S
N2277 H2283 0.985 . S
C2278 C2272 1.379 . S
C2278 C2275 1.363 . S
C2278 N2276 1.356 . S
C2279 C2273 1.363 . S
C2279 C2274 1.379 . S
C2279 N2277 1.356 . S
N2280 C2272 1.356 . S
N2280 H2286 0.984 . S
N2280 H2287 0.984 . S
N2281 C2274 1.356 . S
N2281 H2284 0.984 . S
N2281 H2285 0.985 . S
H2282 N2277 0.984 . S
H2283 N2277 0.985 . S
H2284 N2281 0.984 . S
H2285 N2281 0.985 . S
H2286 N2280 0.984 . S
H2287 N2280 0.984 . S
H2288 N2276 0.984 . S
H2289 N2276 0.985 . S
C2290 C2291 1.363 . S
C2290 C2296 1.379 . S
C2290 N2298 1.356 . S
C2291 C2290 1.363 . S
C2291 C2297 1.363 . S
C2292 C2293 1.363 . S
C2292 C2297 1.379 . S
C2292 N2299 1.356 . S
C2293 C2292 1.363 . S
C2293 C2296 1.363 . S
N2294 C2296 1.356 . S
N2294 H2306 0.984 . S
N2294 H2307 0.985 . S
N2295 C2297 1.356 . S
N2295 H2300 0.984 . S
N2295 H2301 0.985 . S
C2296 C2290 1.379 . S
C2296 C2293 1.363 . S
C2296 N2294 1.356 . S
C2297 C2291 1.363 . S
C2297 C2292 1.379 . S
C2297 N2295 1.356 . S
N2298 C2290 1.356 . S
N2298 H2304 0.984 . S
N2298 H2305 0.984 . S
N2299 C2292 1.356 . S
N2299 H2302 0.984 . S
N2299 H2303 0.985 . S
H2300 N2295 0.984 . S
H2301 N2295 0.985 . S
H2302 N2299 0.984 . S
H2303 N2299 0.985 . S
H2304 N2298 0.984 . S
H2305 N2298 0.984 . S
H2306 N2294 0.984 . S
H2307 N2294 0.985 . S
C2308 C2309 1.363 . S
C2308 C2314 1.379 . S
C2308 N2316 1.356 . S
C2309 C2308 1.363 . S
C2309 C2315 1.363 . S
C2310 C2311 1.363 . S
C2310 C2315 1.379 . S
C2310 N2317 1.356 . S
C2311 C2310 1.363 . S
C2311 C2314 1.363 . S
N2312 C2314 1.356 . S
N2312 H2324 0.984 . S
N2312 H2325 0.985 . S
N2313 C2315 1.356 . S
N2313 H2318 0.984 . S
N2313 H2319 0.985 . S
C2314 C2308 1.379 . S
C2314 C2311 1.363 . S
C2314 N2312 1.356 . S
C2315 C2309 1.363 . S
C2315 C2310 1.379 . S
C2315 N2313 1.356 . S
N2316 C2308 1.356 . S
N2316 H2322 0.984 . S
N2316 H2323 0.984 . S
N2317 C2310 1.356 . S
N2317 H2320 0.984 . S
N2317 H2321 0.985 . S
H2318 N2313 0.984 . S
H2319 N2313 0.985 . S
H2320 N2317 0.984 . S
H2321 N2317 0.985 . S
H2322 N2316 0.984 . S
H2323 N2316 0.984 . S
H2324 N2312 0.984 . S
H2325 N2312 0.985 . S
C2326 C2327 1.363 . S
C2326 C2332 1.379 . S
C2326 N2334 1.356 . S
C2327 C2326 1.363 . S
C2327 C2333 1.363 . S
C2328 C2329 1.363 . S
C2328 C2333 1.379 . S
C2328 N2335 1.356 . S
C2329 C2328 1.363 . S
C2329 C2332 1.363 . S
N2330 C2332 1.356 . S
N2330 H2342 0.984 . S
N2330 H2343 0.985 . S
N2331 C2333 1.356 . S
N2331 H2336 0.984 . S
N2331 H2337 0.985 . S
C2332 C2326 1.379 . S
C2332 C2329 1.363 . S
C2332 N2330 1.356 . S
C2333 C2327 1.363 . S
C2333 C2328 1.379 . S
C2333 N2331 1.356 . S
N2334 C2326 1.356 . S
N2334 H2340 0.984 . S
N2334 H2341 0.984 . S
N2335 C2328 1.356 . S
N2335 H2338 0.984 . S
N2335 H2339 0.985 . S
H2336 N2331 0.984 . S
H2337 N2331 0.985 . S
H2338 N2335 0.984 . S
H2339 N2335 0.985 . S
H2340 N2334 0.984 . S
H2341 N2334 0.984 . S
H2342 N2330 0.984 . S
H2343 N2330 0.985 . S
C2344 C2345 1.363 . S
C2344 C2350 1.379 . S
C2344 N2352 1.356 . S
C2345 C2344 1.363 . S
C2345 C2351 1.363 . S
C2346 C2347 1.363 . S
C2346 C2351 1.379 . S
C2346 N2353 1.356 1_556 S
C2347 C2346 1.363 . S
C2347 C2350 1.363 . S
N2348 C2350 1.356 . S
N2348 H2360 0.984 . S
N2348 H2361 0.985 . S
N2349 C2351 1.356 . S
N2349 H2354 0.984 . S
N2349 H2355 0.985 1_556 S
C2350 C2344 1.379 . S
C2350 C2347 1.363 . S
C2350 N2348 1.356 . S
C2351 C2345 1.363 . S
C2351 C2346 1.379 . S
C2351 N2349 1.356 . S
N2352 C2344 1.356 . S
N2352 H2358 0.984 . S
N2352 H2359 0.984 . S
N2353 C2346 1.356 1_554 S
N2353 H2356 0.984 . S
N2353 H2357 0.985 . S
H2354 N2349 0.984 . S
H2355 N2349 0.985 1_554 S
H2356 N2353 0.984 . S
H2357 N2353 0.985 . S
H2358 N2352 0.984 . S
H2359 N2352 0.984 . S
H2360 N2348 0.984 . S
H2361 N2348 0.985 . S
C2362 C2363 1.363 . S
C2362 C2368 1.379 . S
C2362 N2370 1.356 . S
C2363 C2362 1.363 . S
C2363 C2369 1.363 . S
C2364 C2365 1.363 . S
C2364 C2369 1.379 . S
C2364 N2371 1.356 . S
C2365 C2364 1.363 . S
C2365 C2368 1.363 . S
N2366 C2368 1.356 . S
N2366 H2378 0.984 . S
N2366 H2379 0.985 . S
N2367 C2369 1.356 . S
N2367 H2372 0.984 . S
N2367 H2373 0.985 . S
C2368 C2362 1.379 . S
C2368 C2365 1.363 . S
C2368 N2366 1.356 . S
C2369 C2363 1.363 . S
C2369 C2364 1.379 . S
C2369 N2367 1.356 . S
N2370 C2362 1.356 . S
N2370 H2376 0.984 . S
N2370 H2377 0.984 . S
N2371 C2364 1.356 . S
N2371 H2374 0.984 . S
N2371 H2375 0.985 . S
H2372 N2367 0.984 . S
H2373 N2367 0.985 . S
H2374 N2371 0.984 . S
H2375 N2371 0.985 . S
H2376 N2370 0.984 . S
H2377 N2370 0.984 . S
H2378 N2366 0.984 . S
H2379 N2366 0.985 . S
C2380 C2381 1.363 . S
C2380 C2386 1.379 . S
C2380 N2388 1.356 . S
C2381 C2380 1.363 . S
C2381 C2387 1.363 . S
C2382 C2383 1.363 . S
C2382 C2387 1.379 . S
C2382 N2389 1.356 . S
C2383 C2382 1.363 . S
C2383 C2386 1.363 . S
N2384 C2386 1.356 . S
N2384 H2396 0.984 1_455 S
N2384 H2397 0.985 . S
N2385 C2387 1.356 . S
N2385 H2390 0.984 . S
N2385 H2391 0.985 . S
C2386 C2380 1.379 . S
C2386 C2383 1.363 . S
C2386 N2384 1.356 . S
C2387 C2381 1.363 . S
C2387 C2382 1.379 . S
C2387 N2385 1.356 . S
N2388 C2380 1.356 . S
N2388 H2394 0.988 1_455 S
N2388 H2395 0.984 . S
N2389 C2382 1.356 . S
N2389 H2392 0.984 . S
N2389 H2393 0.985 . S
H2390 N2385 0.984 . S
H2391 N2385 0.985 . S
H2392 N2389 0.984 . S
H2393 N2389 0.985 . S
H2394 N2388 0.988 1_655 S
H2395 N2388 0.984 . S
H2396 N2384 0.984 1_655 S
H2397 N2384 0.985 . S
C2398 C2399 1.363 . S
C2398 C2404 1.379 . S
C2398 N2406 1.356 . S
C2399 C2398 1.363 . S
C2399 C2405 1.363 . S
C2400 C2401 1.363 . S
C2400 C2405 1.379 . S
C2400 N2407 1.356 . S
C2401 C2400 1.363 . S
C2401 C2404 1.363 . S
N2402 C2404 1.356 . S
N2402 H2414 0.984 . S
N2402 H2415 0.985 . S
N2403 C2405 1.356 . S
N2403 H2408 0.984 . S
N2403 H2409 0.985 . S
C2404 C2398 1.379 . S
C2404 C2401 1.363 . S
C2404 N2402 1.356 . S
C2405 C2399 1.363 . S
C2405 C2400 1.379 . S
C2405 N2403 1.356 . S
N2406 C2398 1.356 . S
N2406 H2412 0.984 . S
N2406 H2413 0.984 . S
N2407 C2400 1.356 . S
N2407 H2410 0.984 . S
N2407 H2411 0.985 . S
H2408 N2403 0.984 . S
H2409 N2403 0.985 . S
H2410 N2407 0.984 . S
H2411 N2407 0.985 . S
H2412 N2406 0.984 . S
H2413 N2406 0.984 . S
H2414 N2402 0.984 . S
H2415 N2402 0.985 . S
C2416 C2417 1.363 . S
C2416 C2422 1.379 . S
C2416 N2424 1.356 . S
C2417 C2416 1.363 . S
C2417 C2423 1.363 . S
C2418 C2419 1.363 . S
C2418 C2423 1.379 . S
C2418 N2425 1.356 . S
C2419 C2418 1.363 . S
C2419 C2422 1.363 . S
N2420 C2422 1.356 . S
N2420 H2432 0.984 . S
N2420 H2433 0.985 . S
N2421 C2423 1.356 . S
N2421 H2426 0.984 . S
N2421 H2427 0.985 . S
C2422 C2416 1.379 . S
C2422 C2419 1.363 . S
C2422 N2420 1.356 . S
C2423 C2417 1.363 . S
C2423 C2418 1.379 . S
C2423 N2421 1.356 . S
N2424 C2416 1.356 . S
N2424 H2430 0.984 . S
N2424 H2431 0.984 . S
N2425 C2418 1.356 . S
N2425 H2428 0.984 . S
N2425 H2429 0.985 . S
H2426 N2421 0.984 . S
H2427 N2421 0.985 . S
H2428 N2425 0.984 . S
H2429 N2425 0.985 . S
H2430 N2424 0.984 . S
H2431 N2424 0.984 . S
H2432 N2420 0.984 . S
H2433 N2420 0.985 . S
C2434 C2435 1.363 . S
C2434 C2440 1.379 . S
C2434 N2442 1.356 . S
C2435 C2434 1.363 . S
C2435 C2441 1.363 . S
C2436 C2437 1.363 . S
C2436 C2441 1.379 . S
C2436 N2443 1.356 . S
C2437 C2436 1.363 . S
C2437 C2440 1.363 . S
N2438 C2440 1.356 . S
N2438 H2450 0.984 . S
N2438 H2451 0.985 . S
N2439 C2441 1.356 . S
N2439 H2444 0.984 . S
N2439 H2445 0.985 . S
C2440 C2434 1.379 . S
C2440 C2437 1.363 . S
C2440 N2438 1.356 . S
C2441 C2435 1.363 . S
C2441 C2436 1.379 . S
C2441 N2439 1.356 . S
N2442 C2434 1.356 . S
N2442 H2448 0.984 . S
N2442 H2449 0.984 . S
N2443 C2436 1.356 . S
N2443 H2446 0.984 . S
N2443 H2447 0.985 . S
H2444 N2439 0.984 . S
H2445 N2439 0.985 . S
H2446 N2443 0.984 . S
H2447 N2443 0.985 . S
H2448 N2442 0.984 . S
H2449 N2442 0.984 . S
H2450 N2438 0.984 . S
H2451 N2438 0.985 . S
C2452 C2453 1.363 . S
C2452 C2458 1.379 . S
C2452 N2460 1.356 . S
C2453 C2452 1.363 . S
C2453 C2459 1.363 . S
C2454 C2455 1.363 . S
C2454 C2459 1.379 . S
C2454 N2461 1.356 . S
C2455 C2454 1.363 . S
C2455 C2458 1.363 . S
N2456 C2458 1.356 . S
N2456 H2468 0.984 . S
N2456 H2469 0.985 . S
N2457 C2459 1.356 . S
N2457 H2462 0.984 . S
N2457 H2463 0.985 1_455 S
C2458 C2452 1.379 . S
C2458 C2455 1.363 . S
C2458 N2456 1.356 . S
C2459 C2453 1.363 . S
C2459 C2454 1.379 . S
C2459 N2457 1.356 . S
N2460 C2452 1.356 . S
N2460 H2466 0.984 . S
N2460 H2467 0.984 . S
N2461 C2454 1.356 . S
N2461 H2464 0.984 . S
N2461 H2465 0.985 1_455 S
H2462 N2457 0.984 . S
H2463 N2457 0.985 1_655 S
H2464 N2461 0.984 . S
H2465 N2461 0.985 1_655 S
H2466 N2460 0.984 . S
H2467 N2460 0.984 . S
H2468 N2456 0.984 . S
H2469 N2456 0.985 . S
C2470 C2471 1.363 . S
C2470 C2476 1.379 . S
C2470 N2478 1.356 . S
C2471 C2470 1.363 . S
C2471 C2477 1.363 . S
C2472 C2473 1.363 . S
C2472 C2477 1.379 . S
C2472 N2479 1.356 . S
C2473 C2472 1.363 . S
C2473 C2476 1.363 . S
N2474 C2476 1.356 . S
N2474 H2486 0.984 . S
N2474 H2487 0.985 . S
N2475 C2477 1.356 . S
N2475 H2480 0.984 . S
N2475 H2481 0.985 . S
C2476 C2470 1.379 . S
C2476 C2473 1.363 . S
C2476 N2474 1.356 . S
C2477 C2471 1.363 . S
C2477 C2472 1.379 . S
C2477 N2475 1.356 . S
N2478 C2470 1.356 . S
N2478 H2484 0.984 . S
N2478 H2485 0.984 . S
N2479 C2472 1.356 . S
N2479 H2482 0.984 . S
N2479 H2483 0.985 . S
H2480 N2475 0.984 . S
H2481 N2475 0.985 . S
H2482 N2479 0.984 . S
H2483 N2479 0.985 . S
H2484 N2478 0.984 . S
H2485 N2478 0.984 . S
H2486 N2474 0.984 . S
H2487 N2474 0.985 . S
C2488 C2489 1.363 . S
C2488 C2494 1.379 . S
C2488 N2496 1.356 . S
C2489 C2488 1.363 . S
C2489 C2495 1.363 . S
C2490 C2491 1.363 . S
C2490 C2495 1.379 . S
C2490 N2497 1.356 . S
C2491 C2490 1.363 . S
C2491 C2494 1.363 . S
N2492 C2494 1.356 . S
N2492 H2504 0.984 . S
N2492 H2505 0.985 . S
N2493 C2495 1.356 . S
N2493 H2498 0.984 . S
N2493 H2499 0.985 . S
C2494 C2488 1.379 . S
C2494 C2491 1.363 . S
C2494 N2492 1.356 . S
C2495 C2489 1.363 . S
C2495 C2490 1.379 . S
C2495 N2493 1.356 . S
N2496 C2488 1.356 . S
N2496 H2502 0.984 . S
N2496 H2503 0.984 . S
N2497 C2490 1.356 . S
N2497 H2500 0.984 . S
N2497 H2501 0.985 . S
H2498 N2493 0.984 . S
H2499 N2493 0.985 . S
H2500 N2497 0.984 . S
H2501 N2497 0.985 . S
H2502 N2496 0.984 . S
H2503 N2496 0.984 . S
H2504 N2492 0.984 . S
H2505 N2492 0.985 . S
C2506 C2507 1.363 . S
C2506 C2512 1.379 . S
C2506 N2514 1.356 . S
C2507 C2506 1.363 . S
C2507 C2513 1.363 . S
C2508 C2509 1.363 . S
C2508 C2513 1.379 . S
C2508 N2515 1.356 . S
C2509 C2508 1.363 . S
C2509 C2512 1.363 . S
N2510 C2512 1.356 . S
N2510 H2522 0.984 . S
N2510 H2523 0.985 . S
N2511 C2513 1.356 . S
N2511 H2516 0.984 . S
N2511 H2517 0.985 . S
C2512 C2506 1.379 . S
C2512 C2509 1.363 . S
C2512 N2510 1.356 . S
C2513 C2507 1.363 . S
C2513 C2508 1.379 . S
C2513 N2511 1.356 . S
N2514 C2506 1.356 . S
N2514 H2520 0.984 . S
N2514 H2521 0.984 . S
N2515 C2508 1.356 . S
N2515 H2518 0.984 . S
N2515 H2519 0.985 . S
H2516 N2511 0.984 . S
H2517 N2511 0.985 . S
H2518 N2515 0.984 . S
H2519 N2515 0.985 . S
H2520 N2514 0.984 . S
H2521 N2514 0.984 . S
H2522 N2510 0.984 . S
H2523 N2510 0.985 . S
C2524 C2525 1.363 . S
C2524 C2530 1.379 . S
C2524 N2532 1.356 . S
C2525 C2524 1.363 . S
C2525 C2531 1.363 . S
C2526 C2527 1.363 . S
C2526 C2531 1.379 . S
C2526 N2533 1.356 1_455 S
C2527 C2526 1.363 . S
C2527 C2530 1.363 . S
N2528 C2530 1.356 . S
N2528 H2540 0.984 . S
N2528 H2541 0.985 . S
N2529 C2531 1.356 . S
N2529 H2534 0.984 . S
N2529 H2535 0.985 1_455 S
C2530 C2524 1.379 . S
C2530 C2527 1.363 . S
C2530 N2528 1.356 . S
C2531 C2525 1.363 . S
C2531 C2526 1.379 . S
C2531 N2529 1.356 . S
N2532 C2524 1.356 . S
N2532 H2538 0.984 . S
N2532 H2539 0.984 . S
N2533 C2526 1.356 1_655 S
N2533 H2536 0.984 . S
N2533 H2537 0.985 . S
H2534 N2529 0.984 . S
H2535 N2529 0.985 1_655 S
H2536 N2533 0.984 . S
H2537 N2533 0.985 . S
H2538 N2532 0.984 . S
H2539 N2532 0.984 . S
H2540 N2528 0.984 . S
H2541 N2528 0.985 . S
C2542 C2543 1.363 . S
C2542 C2548 1.379 . S
C2542 N2550 1.356 . S
C2543 C2542 1.363 . S
C2543 C2549 1.363 . S
C2544 C2545 1.363 . S
C2544 C2549 1.379 . S
C2544 N2551 1.356 . S
C2545 C2544 1.363 . S
C2545 C2548 1.363 . S
N2546 C2548 1.356 . S
N2546 H2558 0.984 . S
N2546 H2559 0.985 . S
N2547 C2549 1.356 . S
N2547 H2552 0.984 . S
N2547 H2553 0.985 . S
C2548 C2542 1.379 . S
C2548 C2545 1.363 . S
C2548 N2546 1.356 . S
C2549 C2543 1.363 . S
C2549 C2544 1.379 . S
C2549 N2547 1.356 . S
N2550 C2542 1.356 . S
N2550 H2556 0.984 . S
N2550 H2557 0.984 . S
N2551 C2544 1.356 . S
N2551 H2554 0.984 . S
N2551 H2555 0.985 . S
H2552 N2547 0.984 . S
H2553 N2547 0.985 . S
H2554 N2551 0.984 . S
H2555 N2551 0.985 . S
H2556 N2550 0.984 . S
H2557 N2550 0.984 . S
H2558 N2546 0.984 . S
H2559 N2546 0.985 . S
C2560 C2561 1.363 . S
C2560 C2566 1.379 . S
C2560 N2568 1.356 . S
C2561 C2560 1.363 . S
C2561 C2567 1.363 . S
C2562 C2563 1.363 . S
C2562 C2567 1.379 . S
C2562 N2569 1.356 . S
C2563 C2562 1.363 . S
C2563 C2566 1.363 . S
N2564 C2566 1.356 . S
N2564 H2576 0.984 . S
N2564 H2577 0.985 . S
N2565 C2567 1.356 . S
N2565 H2570 0.984 . S
N2565 H2571 0.985 . S
C2566 C2560 1.379 . S
C2566 C2563 1.363 . S
C2566 N2564 1.356 . S
C2567 C2561 1.363 . S
C2567 C2562 1.379 . S
C2567 N2565 1.356 . S
N2568 C2560 1.356 . S
N2568 H2574 0.984 . S
N2568 H2575 0.984 . S
N2569 C2562 1.356 . S
N2569 H2572 0.984 . S
N2569 H2573 0.985 . S
H2570 N2565 0.984 . S
H2571 N2565 0.985 . S
H2572 N2569 0.984 . S
H2573 N2569 0.985 . S
H2574 N2568 0.984 . S
H2575 N2568 0.984 . S
H2576 N2564 0.984 . S
H2577 N2564 0.985 . S
C2578 C2579 1.363 . S
C2578 C2584 1.379 . S
C2578 N2586 1.356 . S
C2579 C2578 1.363 . S
C2579 C2585 1.363 1_565 S
C2580 C2581 1.363 . S
C2580 C2585 1.379 . S
C2580 N2587 1.356 . S
C2581 C2580 1.363 . S
C2581 C2584 1.363 1_545 S
N2582 C2584 1.356 . S
N2582 H2594 0.984 . S
N2582 H2595 0.985 . S
N2583 C2585 1.356 . S
N2583 H2588 0.969 1_545 S
N2583 H2589 0.985 . S
C2584 C2578 1.379 . S
C2584 C2581 1.363 1_565 S
C2584 N2582 1.356 . S
C2585 C2579 1.363 1_545 S
C2585 C2580 1.379 . S
C2585 N2583 1.356 . S
N2586 C2578 1.356 . S
N2586 H2592 0.984 . S
N2586 H2593 0.984 . S
N2587 C2580 1.356 . S
N2587 H2590 0.984 . S
N2587 H2591 0.985 . S
H2588 N2583 0.969 1_565 S
H2589 N2583 0.985 . S
H2590 N2587 0.984 . S
H2591 N2587 0.985 . S
H2592 N2586 0.984 . S
H2593 N2586 0.984 . S
H2594 N2582 0.984 . S
H2595 N2582 0.985 . S
C2596 C2597 1.363 . S
C2596 C2602 1.379 . S
C2596 N2604 1.356 . S
C2597 C2596 1.363 . S
C2597 C2603 1.363 . S
C2598 C2599 1.363 . S
C2598 C2603 1.379 . S
C2598 N2605 1.356 . S
C2599 C2598 1.363 . S
C2599 C2602 1.363 . S
N2600 C2602 1.356 . S
N2600 H2612 0.984 . S
N2600 H2613 0.985 . S
N2601 C2603 1.356 . S
N2601 H2606 0.984 . S
N2601 H2607 0.985 . S
C2602 C2596 1.379 . S
C2602 C2599 1.363 . S
C2602 N2600 1.356 . S
C2603 C2597 1.363 . S
C2603 C2598 1.379 . S
C2603 N2601 1.356 . S
N2604 C2596 1.356 . S
N2604 H2610 0.984 . S
N2604 H2611 0.984 . S
N2605 C2598 1.356 . S
N2605 H2608 0.984 . S
N2605 H2609 0.985 . S
H2606 N2601 0.984 . S
H2607 N2601 0.985 . S
H2608 N2605 0.984 . S
H2609 N2605 0.985 . S
H2610 N2604 0.984 . S
H2611 N2604 0.984 . S
H2612 N2600 0.984 . S
H2613 N2600 0.985 . S
C2614 C2615 1.363 1_554 S
C2614 C2620 1.379 . S
C2614 N2622 1.356 . S
C2615 C2614 1.363 1_556 S
C2615 C2621 1.363 . S
C2616 C2617 1.363 . S
C2616 C2621 1.379 . S
C2616 N2623 1.356 . S
C2617 C2616 1.363 . S
C2617 C2620 1.363 1_556 S
N2618 C2620 1.356 . S
N2618 H2630 0.984 . S
N2618 H2631 0.985 . S
N2619 C2621 1.356 . S
N2619 H2624 0.984 . S
N2619 H2625 0.985 . S
C2620 C2614 1.379 . S
C2620 C2617 1.363 1_554 S
C2620 N2618 1.356 . S
C2621 C2615 1.363 . S
C2621 C2616 1.379 . S
C2621 N2619 1.356 . S
N2622 C2614 1.356 . S
N2622 H2628 0.984 . S
N2622 H2629 0.984 . S
N2623 C2616 1.356 . S
N2623 H2626 0.984 . S
N2623 H2627 0.985 . S
H2624 N2619 0.984 . S
H2625 N2619 0.985 . S
H2626 N2623 0.984 . S
H2627 N2623 0.985 . S
H2628 N2622 0.984 . S
H2629 N2622 0.984 . S
H2630 N2618 0.984 . S
H2631 N2618 0.985 . S
C2632 C2633 1.363 . S
C2632 C2638 1.379 . S
C2632 N2640 1.356 . S
C2633 C2632 1.363 . S
C2633 C2639 1.363 . S
C2634 C2635 1.363 . S
C2634 C2639 1.379 . S
C2634 N2641 1.356 . S
C2635 C2634 1.363 . S
C2635 C2638 1.363 . S
N2636 C2638 1.356 . S
N2636 H2648 0.984 . S
N2636 H2649 0.985 . S
N2637 C2639 1.356 . S
N2637 H2642 0.984 . S
N2637 H2643 0.985 . S
C2638 C2632 1.379 . S
C2638 C2635 1.363 . S
C2638 N2636 1.356 . S
C2639 C2633 1.363 . S
C2639 C2634 1.379 . S
C2639 N2637 1.356 . S
N2640 C2632 1.356 . S
N2640 H2646 0.984 . S
N2640 H2647 0.984 . S
N2641 C2634 1.356 . S
N2641 H2644 0.984 . S
N2641 H2645 0.985 . S
H2642 N2637 0.984 . S
H2643 N2637 0.985 . S
H2644 N2641 0.984 . S
H2645 N2641 0.985 . S
H2646 N2640 0.984 . S
H2647 N2640 0.984 . S
H2648 N2636 0.984 . S
H2649 N2636 0.985 . S
C2650 C2651 1.363 . S
C2650 C2656 1.379 . S
C2650 N2658 1.356 . S
C2651 C2650 1.363 . S
C2651 C2657 1.363 . S
C2652 C2653 1.363 . S
C2652 C2657 1.379 . S
C2652 N2659 1.356 1_554 S
C2653 C2652 1.363 . S
C2653 C2656 1.363 . S
N2654 C2656 1.356 . S
N2654 H2666 0.984 . S
N2654 H2667 0.985 . S
N2655 C2657 1.356 1_556 S
N2655 H2660 0.984 . S
N2655 H2661 0.985 . S
C2656 C2650 1.379 . S
C2656 C2653 1.363 . S
C2656 N2654 1.356 . S
C2657 C2651 1.363 . S
C2657 C2652 1.379 . S
C2657 N2655 1.356 1_554 S
N2658 C2650 1.356 . S
N2658 H2664 0.984 . S
N2658 H2665 0.984 . S
N2659 C2652 1.356 1_556 S
N2659 H2662 0.984 . S
N2659 H2663 0.985 . S
H2660 N2655 0.984 . S
H2661 N2655 0.985 . S
H2662 N2659 0.984 . S
H2663 N2659 0.985 . S
H2664 N2658 0.984 . S
H2665 N2658 0.984 . S
H2666 N2654 0.984 . S
H2667 N2654 0.985 . S
C2668 C2669 1.363 . S
C2668 C2674 1.379 . S
C2668 N2676 1.356 . S
C2669 C2668 1.363 . S
C2669 C2675 1.363 . S
C2670 C2671 1.363 . S
C2670 C2675 1.379 . S
C2670 N2677 1.356 . S
C2671 C2670 1.363 . S
C2671 C2674 1.363 . S
N2672 C2674 1.356 . S
N2672 H2684 0.984 . S
N2672 H2685 0.985 . S
N2673 C2675 1.356 . S
N2673 H2678 0.984 . S
N2673 H2679 0.985 . S
C2674 C2668 1.379 . S
C2674 C2671 1.363 . S
C2674 N2672 1.356 . S
C2675 C2669 1.363 . S
C2675 C2670 1.379 . S
C2675 N2673 1.356 . S
N2676 C2668 1.356 . S
N2676 H2682 0.984 . S
N2676 H2683 0.984 . S
N2677 C2670 1.356 . S
N2677 H2680 0.984 . S
N2677 H2681 0.985 . S
H2678 N2673 0.984 . S
H2679 N2673 0.985 . S
H2680 N2677 0.984 . S
H2681 N2677 0.985 . S
H2682 N2676 0.984 . S
H2683 N2676 0.984 . S
H2684 N2672 0.984 . S
H2685 N2672 0.985 . S
C2686 C2687 1.363 . S
C2686 C2692 1.379 . S
C2686 N2694 1.356 . S
C2687 C2686 1.363 . S
C2687 C2693 1.363 . S
C2688 C2689 1.363 . S
C2688 C2693 1.379 . S
C2688 N2695 1.356 . S
C2689 C2688 1.363 . S
C2689 C2692 1.363 . S
N2690 C2692 1.356 . S
N2690 H2702 0.984 . S
N2690 H2703 0.985 . S
N2691 C2693 1.356 . S
N2691 H2696 0.984 . S
N2691 H2697 0.985 . S
C2692 C2686 1.379 . S
C2692 C2689 1.363 . S
C2692 N2690 1.356 . S
C2693 C2687 1.363 . S
C2693 C2688 1.379 . S
C2693 N2691 1.356 . S
N2694 C2686 1.356 . S
N2694 H2700 0.984 . S
N2694 H2701 0.984 . S
N2695 C2688 1.356 . S
N2695 H2698 0.984 . S
N2695 H2699 0.985 . S
H2696 N2691 0.984 . S
H2697 N2691 0.985 . S
H2698 N2695 0.984 . S
H2699 N2695 0.985 . S
H2700 N2694 0.984 . S
H2701 N2694 0.984 . S
H2702 N2690 0.984 . S
H2703 N2690 0.985 . S
C977 C111 1.805 1_455 S
C979 C358 1.824 . S
C995 C64 1.395 . S
C997 C378 1.524 . S
C1013 C77 0.841 . S
C1015 C425 0.834 . S
C1033 C482 1.107 . S
C1031 C95 1.162 . S
C1049 C25 2.432 . S
C1051 C499 2.429 1_565 S
C1069 C558 1.949 . S
C1067 C36 1.924 . S
C1087 C591 2.734 . S
C1085 C50 2.623 . S
C1103 C11 2.505 . S
C1105 C638 2.449 . S
C1123 C351 1.857 . S
C1121 C237 1.702 1_545 S
C1139 C245 1.570 . S
C1141 C379 1.554 . S
C1159 C418 0.752 . S
C1157 C279 0.751 1_565 S
C1177 C478 2.208 . S
C1175 C175 2.176 . S
C1193 C231 0.624 . S
C1195 C505 0.646 . S
C1213 C551 2.170 . S
C1211 C251 2.142 . S
C1231 C602 1.017 . S
C1229 C273 1.049 . S
C1249 C631 2.323 . S
C1247 C181 2.182 . S
C1267 C362 2.104 . S
C1265 C165 2.288 . S
C1283 C288 2.111 . S
C1285 C658 2.179 . S
C1303 C722 1.553 . S
C1301 C333 1.584 . S
C1321 C758 1.582 . S
C1319 C316 1.630 . S
C1337 C123 1.960 . S
C1339 C642 1.871 . S
C1355 C137 2.493 . S
C1357 C419 2.499 . S
C1373 C330 1.393 . S
C1375 C791 1.608 . S
C1393 C825 0.609 . S
C1391 C302 0.678 . S
C1411 C339 2.029 1_565 S
C1409 C63 2.009 . S
C1429 C831 1.757 . S
C1427 C106 1.802 . S
C1445 C97 0.952 . S
C1447 C442 0.924 . S
C1463 C81 1.165 . S
C1465 C785 1.206 . S
C1483 C518 2.557 . S
C1481 C13 2.493 . S
C1499 C55 1.829 . S
C1501 C699 1.966 . S
C1519 C578 2.655 1_566 S
C1517 C35 2.650 . S
C1537 C859 2.617 . S
C1535 C21 2.641 . S
C1555 C338 1.787 . S
C1553 C147 1.728 . S
C1573 C838 1.717 . S
C1571 C321 1.713 . S
C1589 C119 0.792 . S
C1591 C431 0.798 . S
C1607 C293 2.120 . S
C1609 C779 2.288 . S
C1625 C153 0.684 . S
C1627 C522 0.694 . S
C1645 C698 2.280 . S
C1643 C315 2.303 . S
C1661 C125 0.932 . S
C1663 C585 0.985 . S
C1679 C287 2.379 . S
C1681 C858 2.380 . S
C1697 C193 2.023 1_556 S
C1699 C345 1.965 . S
C1715 C176 2.135 . S
C1717 C671 2.146 . S
C1733 C263 1.518 . S
C1735 C545 1.630 . S
C1751 C246 1.609 . S
C1753 C739 1.646 . S
C1771 C865 1.728 . S
C1769 C277 1.684 . S
C1787 C221 2.549 . S
C1789 C438 2.555 1_565 S
C1807 C458 1.636 . S
C1805 C260 1.606 . S
C1825 C402 0.768 . S
C1823 C204 0.776 . S
C1841 C83 2.005 . S
C1843 C918 2.029 . S
C1861 C818 1.531 . S
C1859 C92 1.404 . S
C1877 C105 0.732 . S
C1879 C945 0.734 . S
C1895 C67 1.227 . S
C1897 C802 1.168 1_455 S
C1913 C53 2.419 . S
C1915 C659 2.415 . S
C1933 C718 1.989 . S
C1931 C8 1.964 1_655 S
C1951 C751 2.747 . S
C1949 C22 2.642 . S
C1969 C878 2.374 . S
C1967 C39 2.439 . S
C1987 C911 1.780 . S
C1985 C265 1.627 . S
C2003 C189 1.545 . S
C2005 C819 1.529 . S
C2023 C938 0.758 . S
C2021 C209 0.756 . S
C2041 C798 2.200 . S
C2039 C217 2.173 . S
C2059 C665 0.636 . S
C2057 C259 0.609 . S
C2075 C195 2.193 . S
C2077 C711 2.212 . S
C2095 C762 0.993 . S
C2093 C203 1.028 . S
C2111 C223 2.170 . S
C2113 C871 2.300 . S
C2131 C922 2.121 . S
C2129 C319 2.305 . S
C2147 C134 2.160 . S
C2149 C498 2.226 . S
C2167 C562 1.497 . S
C2165 C151 1.527 . S
C2185 C598 1.578 . S
C2183 C162 1.623 . S
C2203 C882 1.579 . S
C2201 C305 1.683 . S
C2219 C291 2.527 . S
C2221 C939 2.529 1_655 S
C2239 C471 1.639 . S
C2237 C148 1.439 . S
C2257 C385 0.613 . S
C2255 C120 0.634 . S
C2273 C91 2.066 . S
C2275 C899 2.093 . S
C2293 C391 1.526 . S
C2291 C78 1.580 . S
C2309 C69 0.921 . S
C2311 C962 0.905 . S
C2327 C109 1.011 . S
C2329 C465 1.033 . S
C2345 C41 2.491 . S
C2347 C678 2.549 . S
C2365 C539 2.003 . S
C2363 C27 1.865 . S
C2381 C7 2.687 . S
C2383 C738 2.692 . S
C2399 C49 2.585 . S
C2401 C619 2.550 . S
C2419 C898 1.842 . S
C2417 C329 1.774 . S
C2435 C167 1.714 . S
C2437 C398 1.708 . S
C2455 C951 0.645 . S
C2453 C301 0.644 . S
C2471 C139 2.152 . S
C2473 C459 2.310 . S
C2489 C335 0.655 . S
C2491 C682 0.670 . S
C2509 C538 2.331 . S
C2507 C161 2.353 1_556 S
C2525 C307 0.832 . S
C2527 C745 0.881 . S
C2545 C618 2.376 . S
C2543 C133 2.377 . S
C2563 C905 2.061 . S
C2561 C249 2.136 . S
C2581 C511 2.212 . S
C2579 C218 2.202 . S
C2597 C235 1.473 . S
C2599 C705 1.581 . S
C2617 C579 1.587 1_556 S
C2615 C190 1.550 . S
C2633 C207 1.696 . S
C2635 C625 1.735 . S
C2651 C179 2.588 . S
C2653 C958 2.592 . S
C2671 C778 1.658 . S
C2669 C232 1.631 . S
C2689 C842 0.760 . S
C2687 C274 0.764 . S
