# Generated by pormake.
# Topology iac, (4,6)-cn, num edge types: 1
# Building blocks:
#     Node 0, Type 0, BuildingBlock: AZAVOO_clean_sbu_0, # of connection points: 4
#     Node 1, Type 0, BuildingBlock: AZAVOO_clean_sbu_0, # of connection points: 4
#     Node 2, Type 0, BuildingBlock: AZAVOO_clean_sbu_0, # of connection points: 4
#     Node 3, Type 0, BuildingBlock: AZAVOO_clean_sbu_0, # of connection points: 4
#     Node 4, Type 0, BuildingBlock: AZAVOO_clean_sbu_0, # of connection points: 4
#     Node 5, Type 0, BuildingBlock: AZAVOO_clean_sbu_0, # of connection points: 4
#     Node 6, Type 0, BuildingBlock: AZAVOO_clean_sbu_0, # of connection points: 4
#     Node 7, Type 0, BuildingBlock: AZAVOO_clean_sbu_0, # of connection points: 4
#     Node 8, Type 0, BuildingBlock: AZAVOO_clean_sbu_0, # of connection points: 4
#     Node 9, Type 0, BuildingBlock: AZAVOO_clean_sbu_0, # of connection points: 4
#     Node 10, Type 0, BuildingBlock: AZAVOO_clean_sbu_0, # of connection points: 4
#     Node 11, Type 0, BuildingBlock: AZAVOO_clean_sbu_0, # of connection points: 4
#     Node 12, Type 0, BuildingBlock: AZAVOO_clean_sbu_0, # of connection points: 4
#     Node 13, Type 0, BuildingBlock: AZAVOO_clean_sbu_0, # of connection points: 4
#     Node 14, Type 0, BuildingBlock: AZAVOO_clean_sbu_0, # of connection points: 4
#     Node 15, Type 0, BuildingBlock: AZAVOO_clean_sbu_0, # of connection points: 4
#     Node 16, Type 0, BuildingBlock: AZAVOO_clean_sbu_0, # of connection points: 4
#     Node 17, Type 0, BuildingBlock: AZAVOO_clean_sbu_0, # of connection points: 4
#     Node 18, Type 0, BuildingBlock: AZAVOO_clean_sbu_0, # of connection points: 4
#     Node 19, Type 0, BuildingBlock: AZAVOO_clean_sbu_0, # of connection points: 4
#     Node 20, Type 0, BuildingBlock: AZAVOO_clean_sbu_0, # of connection points: 4
#     Node 21, Type 0, BuildingBlock: AZAVOO_clean_sbu_0, # of connection points: 4
#     Node 22, Type 0, BuildingBlock: AZAVOO_clean_sbu_0, # of connection points: 4
#     Node 23, Type 0, BuildingBlock: AZAVOO_clean_sbu_0, # of connection points: 4
#     Node 24, Type 1, BuildingBlock: VOLQOD_clean_sbu_1, # of connection points: 6
#     Node 25, Type 1, BuildingBlock: VOLQOD_clean_sbu_1, # of connection points: 6
#     Node 26, Type 1, BuildingBlock: VOLQOD_clean_sbu_1, # of connection points: 6
#     Node 27, Type 1, BuildingBlock: VOLQOD_clean_sbu_1, # of connection points: 6
#     Node 28, Type 1, BuildingBlock: VOLQOD_clean_sbu_1, # of connection points: 6
#     Node 29, Type 1, BuildingBlock: VOLQOD_clean_sbu_1, # of connection points: 6
#     Node 30, Type 1, BuildingBlock: VOLQOD_clean_sbu_1, # of connection points: 6
#     Node 31, Type 1, BuildingBlock: VOLQOD_clean_sbu_1, # of connection points: 6
#     Node 32, Type 1, BuildingBlock: VOLQOD_clean_sbu_1, # of connection points: 6
#     Node 33, Type 1, BuildingBlock: VOLQOD_clean_sbu_1, # of connection points: 6
#     Node 34, Type 1, BuildingBlock: VOLQOD_clean_sbu_1, # of connection points: 6
#     Node 35, Type 1, BuildingBlock: VOLQOD_clean_sbu_1, # of connection points: 6
#     Node 36, Type 1, BuildingBlock: VOLQOD_clean_sbu_1, # of connection points: 6
#     Node 37, Type 1, BuildingBlock: VOLQOD_clean_sbu_1, # of connection points: 6
#     Node 38, Type 1, BuildingBlock: VOLQOD_clean_sbu_1, # of connection points: 6
#     Node 39, Type 1, BuildingBlock: VOLQOD_clean_sbu_1, # of connection points: 6
#     Edge 40, Type (0, 1), None
#     Edge 41, Type (0, 1), None
#     Edge 42, Type (0, 1), None
#     Edge 43, Type (0, 1), None
#     Edge 44, Type (0, 1), None
#     Edge 45, Type (0, 1), None
#     Edge 46, Type (0, 1), None
#     Edge 47, Type (0, 1), None
#     Edge 48, Type (0, 1), None
#     Edge 49, Type (0, 1), None
#     Edge 50, Type (0, 1), None
#     Edge 51, Type (0, 1), None
#     Edge 52, Type (0, 1), None
#     Edge 53, Type (0, 1), None
#     Edge 54, Type (0, 1), None
#     Edge 55, Type (0, 1), None
#     Edge 56, Type (0, 1), None
#     Edge 57, Type (0, 1), None
#     Edge 58, Type (0, 1), None
#     Edge 59, Type (0, 1), None
#     Edge 60, Type (0, 1), None
#     Edge 61, Type (0, 1), None
#     Edge 62, Type (0, 1), None
#     Edge 63, Type (0, 1), None
#     Edge 64, Type (0, 1), None
#     Edge 65, Type (0, 1), None
#     Edge 66, Type (0, 1), None
#     Edge 67, Type (0, 1), None
#     Edge 68, Type (0, 1), None
#     Edge 69, Type (0, 1), None
#     Edge 70, Type (0, 1), None
#     Edge 71, Type (0, 1), None
#     Edge 72, Type (0, 1), None
#     Edge 73, Type (0, 1), None
#     Edge 74, Type (0, 1), None
#     Edge 75, Type (0, 1), None
#     Edge 76, Type (0, 1), None
#     Edge 77, Type (0, 1), None
#     Edge 78, Type (0, 1), None
#     Edge 79, Type (0, 1), None
#     Edge 80, Type (0, 1), None
#     Edge 81, Type (0, 1), None
#     Edge 82, Type (0, 1), None
#     Edge 83, Type (0, 1), None
#     Edge 84, Type (0, 1), None
#     Edge 85, Type (0, 1), None
#     Edge 86, Type (0, 1), None
#     Edge 87, Type (0, 1), None
#     Edge 88, Type (0, 1), None
#     Edge 89, Type (0, 1), None
#     Edge 90, Type (0, 1), None
#     Edge 91, Type (0, 1), None
#     Edge 92, Type (0, 1), None
#     Edge 93, Type (0, 1), None
#     Edge 94, Type (0, 1), None
#     Edge 95, Type (0, 1), None
#     Edge 96, Type (0, 1), None
#     Edge 97, Type (0, 1), None
#     Edge 98, Type (0, 1), None
#     Edge 99, Type (0, 1), None
#     Edge 100, Type (0, 1), None
#     Edge 101, Type (0, 1), None
#     Edge 102, Type (0, 1), None
#     Edge 103, Type (0, 1), None
#     Edge 104, Type (0, 1), None
#     Edge 105, Type (0, 1), None
#     Edge 106, Type (0, 1), None
#     Edge 107, Type (0, 1), None
#     Edge 108, Type (0, 1), None
#     Edge 109, Type (0, 1), None
#     Edge 110, Type (0, 1), None
#     Edge 111, Type (0, 1), None
#     Edge 112, Type (0, 1), None
#     Edge 113, Type (0, 1), None
#     Edge 114, Type (0, 1), None
#     Edge 115, Type (0, 1), None
#     Edge 116, Type (0, 1), None
#     Edge 117, Type (0, 1), None
#     Edge 118, Type (0, 1), None
#     Edge 119, Type (0, 1), None
#     Edge 120, Type (0, 1), None
#     Edge 121, Type (0, 1), None
#     Edge 122, Type (0, 1), None
#     Edge 123, Type (0, 1), None
#     Edge 124, Type (0, 1), None
#     Edge 125, Type (0, 1), None
#     Edge 126, Type (0, 1), None
#     Edge 127, Type (0, 1), None
#     Edge 128, Type (0, 1), None
#     Edge 129, Type (0, 1), None
#     Edge 130, Type (0, 1), None
#     Edge 131, Type (0, 1), None
#     Edge 132, Type (0, 1), None
#     Edge 133, Type (0, 1), None
#     Edge 134, Type (0, 1), None
#     Edge 135, Type (0, 1), None
# Relax obj value: 0.339
# Max RMSD: 0.298
# Mean RMSD: 0.201
data_MOF--net-iac--node1-AZAVOO_clean_sbu_0--node2-VOLQOD_clean_sbu_1--edge1-none
_symmetry_space_group_name_H-M    P1
_symmetry_Int_Tables_number       1
_symmetry_cell_setting            triclinic
loop_
_symmetry_equiv_pos_as_xyz
'x, y, z'
_cell_length_a     27.964077
_cell_length_b     25.817091
_cell_length_c     26.654624
_cell_angle_alpha  94.059989
_cell_angle_beta   89.144505
_cell_angle_gamma 94.354337
loop_
_atom_site_label
_atom_site_type_symbol
_atom_site_fract_x
_atom_site_fract_y
_atom_site_fract_z
_atom_type_partial_charge
Mg0 Mg -0.01747 0.25611 0.14768 0.0
O1 O -0.01554 0.18013 0.09751 0.0
O2 O 0.91936 0.17405 0.04875 0.0
Mg3 Mg 0.87627 0.24343 0.06945 0.0
C4 C 0.95823 0.15702 0.06267 0.0
C5 C 0.07341 0.26271 0.21461 0.0
O6 O 0.04076 0.2667 0.25031 0.0
O7 O 0.0038 0.30465 0.08133 0.0
O8 O 0.93672 0.2983 0.03649 0.0
O9 O 0.94225 0.21424 0.20743 0.0
O10 O 0.90757 0.24978 0.14596 0.0
C11 C -0.01976 0.31595 0.04351 0.0
C12 C 0.9032 0.22304 0.18518 0.0
O13 O 0.06075 0.25599 0.16883 0.0
Mg14 Mg 0.00623 0.75551 0.30947 0.0
O15 O -0.00593 0.82481 0.3692 0.0
O16 O 0.92632 0.80286 0.41186 0.0
Mg17 Mg 0.89649 0.72307 0.37964 0.0
C18 C 0.96266 0.83419 0.40376 0.0
C19 C 0.09892 0.75971 0.24754 0.0
O20 O 0.12618 0.78072 0.21268 0.0
O21 O 0.03603 0.70766 0.3735 0.0
O22 O 0.96457 0.69166 0.40975 0.0
O23 O 0.96243 0.79093 0.25189 0.0
O24 O 0.93215 0.73921 0.3083 0.0
C25 C 0.00978 0.687 0.40773 0.0
C26 C 0.92525 0.76886 0.27256 0.0
O27 O 0.07661 0.78904 0.27866 0.0
Mg28 Mg 0.48253 0.75611 0.64768 0.0
O29 O 0.48446 0.68013 0.59751 0.0
O30 O 0.41936 0.67405 0.54875 0.0
Mg31 Mg 0.37627 0.74343 0.56945 0.0
C32 C 0.45823 0.65702 0.56267 0.0
C33 C 0.57341 0.76271 0.71461 0.0
O34 O 0.54076 0.7667 0.75031 0.0
O35 O 0.5038 0.80465 0.58133 0.0
O36 O 0.43672 0.7983 0.53649 0.0
O37 O 0.44225 0.71424 0.70743 0.0
O38 O 0.40757 0.74978 0.64596 0.0
C39 C 0.48024 0.81595 0.54351 0.0
C40 C 0.4032 0.72304 0.68518 0.0
O41 O 0.56075 0.75599 0.66883 0.0
Mg42 Mg 0.50623 0.25551 0.80947 0.0
O43 O 0.49407 0.32481 0.8692 0.0
O44 O 0.42632 0.30286 0.91186 0.0
Mg45 Mg 0.39649 0.22307 0.87964 0.0
C46 C 0.46266 0.33419 0.90376 0.0
C47 C 0.59892 0.25971 0.74754 0.0
O48 O 0.62618 0.28072 0.71268 0.0
O49 O 0.53603 0.20766 0.8735 0.0
O50 O 0.46457 0.19166 0.90975 0.0
O51 O 0.46243 0.29093 0.75189 0.0
O52 O 0.43215 0.23921 0.8083 0.0
C53 C 0.50978 0.187 0.90773 0.0
C54 C 0.42525 0.26886 0.77256 0.0
O55 O 0.57661 0.28904 0.77866 0.0
Mg56 Mg 0.08023 0.97739 0.26381 0.0
O57 O 0.13609 0.04762 0.26299 0.0
O58 O 0.16925 0.05707 0.33994 0.0
Mg59 Mg 0.1408 -0.00966 0.38554 0.0
C60 C 0.16404 0.07199 0.29589 0.0
C61 C 0.0548 0.93062 0.15391 0.0
O62 O 0.06163 0.88548 0.17132 0.0
O63 O 0.13964 0.92248 0.25083 0.0
O64 O 0.16944 0.92809 0.32837 0.0
O65 O 0.02562 0.02995 0.29582 0.0
O66 O 0.07676 -0.00838 0.34068 0.0
C67 C 0.16859 0.90867 0.28285 0.0
C68 C 0.04463 0.02453 0.33883 0.0
O69 O 0.06376 0.97277 0.18103 0.0
Mg70 Mg 0.23851 0.89742 0.51886 0.0
O71 O 0.2318 0.82733 0.45919 0.0
O72 O 0.29945 0.7857 0.46234 0.0
Mg73 Mg 0.34335 0.82267 0.52716 0.0
C74 C 0.25869 0.79121 0.44353 0.0
C75 C 0.15432 0.96565 0.53352 0.0
O76 O 0.19072 -0.00123 0.54653 0.0
O77 O 0.21779 0.84283 0.57882 0.0
O78 O 0.28206 0.79676 0.5808 0.0
O79 O 0.27828 0.94725 0.46434 0.0
O80 O 0.31126 0.89501 0.51372 0.0
C81 C 0.23965 0.8062 0.5953 0.0
C82 C 0.31614 0.92662 0.47849 0.0
O83 O 0.16183 0.91939 0.5169 0.0
Mg84 Mg 0.39197 0.03169 0.76522 0.0
O85 O 0.34025 0.95998 0.77198 0.0
O86 O 0.28929 0.97444 0.83653 0.0
Mg87 Mg 0.31133 0.05509 0.87087 0.0
C88 C 0.30422 0.94624 0.79933 0.0
C89 C 0.45967 0.01682 0.67587 0.0
O90 O 0.49176 0.03108 0.71058 0.0
O91 O 0.33217 0.07041 0.73271 0.0
O92 O 0.28263 0.08431 0.79767 0.0
O93 O 0.44343 -0.00128 0.81182 0.0
O94 O 0.38594 0.04846 0.84112 0.0
C95 C 0.29303 0.08564 0.75087 0.0
C96 C 0.42105 0.02035 0.84963 0.0
O97 O 0.41568 0.00909 0.68761 0.0
Mg98 Mg 0.26223 0.08174 0.98278 0.0
O99 O 0.25347 0.14473 0.04692 0.0
O100 O 0.3165 0.20419 0.04823 0.0
Mg101 Mg 0.36568 0.17926 0.98413 0.0
C102 C 0.27608 0.18667 0.06524 0.0
C103 C 0.16284 0.00785 0.96683 0.0
O104 O 0.19141 0.97152 0.95209 0.0
O105 O 0.24377 0.14057 0.92541 0.0
O106 O 0.30729 0.19837 0.92981 0.0
O107 O 0.30438 0.03561 0.03725 0.0
O108 O 0.33635 0.09779 -0.00745 0.0
C109 C 0.26596 0.18279 0.91253 0.0
C110 C 0.3416 0.06595 0.02688 0.0
O111 O 0.18084 0.05282 0.98301 0.0
Mg112 Mg 0.73851 0.39742 0.01886 0.0
O113 O 0.7318 0.32733 0.95919 0.0
O114 O 0.79945 0.2857 0.96234 0.0
Mg115 Mg 0.84335 0.32267 0.02716 0.0
C116 C 0.75869 0.29121 0.94353 0.0
C117 C 0.65432 0.46565 0.03352 0.0
O118 O 0.69072 0.49877 0.04653 0.0
O119 O 0.71779 0.34283 0.07882 0.0
O120 O 0.78206 0.29676 0.0808 0.0
O121 O 0.77828 0.44725 0.96434 0.0
O122 O 0.81126 0.39501 0.01372 0.0
C123 C 0.73965 0.3062 0.0953 0.0
C124 C 0.81614 0.42662 0.97849 0.0
O125 O 0.66183 0.41939 0.0169 0.0
Mg126 Mg 0.89197 0.53169 0.26522 0.0
O127 O 0.84025 0.45998 0.27198 0.0
O128 O 0.78929 0.47444 0.33653 0.0
Mg129 Mg 0.81133 0.55509 0.37087 0.0
C130 C 0.80422 0.44624 0.29933 0.0
C131 C 0.95967 0.51682 0.17587 0.0
O132 O -0.00824 0.53108 0.21058 0.0
O133 O 0.83217 0.57041 0.23271 0.0
O134 O 0.78263 0.58431 0.29767 0.0
O135 O 0.94343 0.49872 0.31182 0.0
O136 O 0.88594 0.54846 0.34111 0.0
C137 C 0.79303 0.58564 0.25087 0.0
C138 C 0.92105 0.52035 0.34963 0.0
O139 O 0.91568 0.50909 0.18761 0.0
Mg140 Mg 0.76223 0.58174 0.48278 0.0
O141 O 0.75347 0.64473 0.54692 0.0
O142 O 0.8165 0.70419 0.54823 0.0
Mg143 Mg 0.86568 0.67926 0.48413 0.0
C144 C 0.77608 0.68667 0.56524 0.0
C145 C 0.66284 0.50785 0.46683 0.0
O146 O 0.69141 0.47152 0.45209 0.0
O147 O 0.74377 0.64057 0.42541 0.0
O148 O 0.80729 0.69837 0.42981 0.0
O149 O 0.80438 0.53561 0.53725 0.0
O150 O 0.83635 0.59779 0.49255 0.0
C151 C 0.76596 0.68279 0.41253 0.0
C152 C 0.8416 0.56595 0.52688 0.0
O153 O 0.68084 0.55282 0.48301 0.0
Mg154 Mg 0.58023 0.47739 0.76381 0.0
O155 O 0.63609 0.54762 0.76299 0.0
O156 O 0.66925 0.55707 0.83994 0.0
Mg157 Mg 0.6408 0.49034 0.88554 0.0
C158 C 0.66404 0.57199 0.79589 0.0
C159 C 0.5548 0.43062 0.65391 0.0
O160 O 0.56163 0.38548 0.67132 0.0
O161 O 0.63964 0.42248 0.75083 0.0
O162 O 0.66944 0.42809 0.82836 0.0
O163 O 0.52562 0.52995 0.79582 0.0
O164 O 0.57676 0.49162 0.84068 0.0
C165 C 0.66859 0.40867 0.78285 0.0
C166 C 0.54463 0.52453 0.83883 0.0
O167 O 0.56376 0.47277 0.68103 0.0
Mg168 Mg -0.02549 0.69656 0.84085 0.0
O169 O 0.96821 0.78354 0.85322 0.0
O170 O 0.90821 0.78397 0.90863 0.0
Mg171 Mg 0.85609 0.71281 0.88927 0.0
C172 C 0.94662 0.80494 0.89034 0.0
C173 C 0.06679 0.75604 0.80309 0.0
O174 O 0.03636 0.77978 0.77744 0.0
O175 O -0.02414 0.69665 0.92589 0.0
O176 O 0.89928 0.67158 0.94309 0.0
O177 O 0.94803 0.69107 0.76311 0.0
O178 O 0.90309 0.67715 0.83064 0.0
C179 C 0.94396 0.67341 0.95295 0.0
C180 C 0.90619 0.6799 0.78275 0.0
O181 O 0.05212 0.72026 0.83145 0.0
Mg182 Mg -0.02016 0.29006 0.67957 0.0
O183 O -0.00243 0.21446 0.63191 0.0
O184 O 0.94515 0.20376 0.56991 0.0
Mg185 Mg 0.8852 0.25948 0.59026 0.0
C186 C -0.01677 0.19153 0.59033 0.0
C187 C 0.06843 0.25537 0.73305 0.0
O188 O 0.03802 0.21607 0.74302 0.0
O189 O -0.00304 0.34394 0.61533 0.0
O190 O 0.93207 0.32936 0.56615 0.0
O191 O 0.93536 0.24747 0.736 0.0
O192 O 0.90706 0.28119 0.66932 0.0
C193 C 0.9715 0.35483 0.57835 0.0
C194 C 0.89897 0.25903 0.71061 0.0
O195 O 0.05488 0.2921 0.7085 0.0
Mg196 Mg 0.47451 0.19656 0.34085 0.0
O197 O 0.46821 0.28354 0.35322 0.0
O198 O 0.40821 0.28397 0.40863 0.0
Mg199 Mg 0.35609 0.2128 0.38927 0.0
C200 C 0.44662 0.30494 0.39034 0.0
C201 C 0.56679 0.25604 0.30309 0.0
O202 O 0.53636 0.27978 0.27744 0.0
O203 O 0.47586 0.19664 0.42589 0.0
O204 O 0.39928 0.17158 0.44309 0.0
O205 O 0.44803 0.19107 0.26311 0.0
O206 O 0.40309 0.17715 0.33064 0.0
C207 C 0.44396 0.17341 0.45295 0.0
C208 C 0.40619 0.1799 0.28275 0.0
O209 O 0.55212 0.22025 0.33145 0.0
Mg210 Mg 0.47984 0.79006 0.17957 0.0
O211 O 0.49757 0.71446 0.13191 0.0
O212 O 0.44515 0.70376 0.06991 0.0
Mg213 Mg 0.3852 0.75948 0.09026 0.0
C214 C 0.48323 0.69153 0.09033 0.0
C215 C 0.56843 0.75537 0.23305 0.0
O216 O 0.53802 0.71607 0.24302 0.0
O217 O 0.49696 0.84394 0.11533 0.0
O218 O 0.43207 0.82936 0.06615 0.0
O219 O 0.43536 0.74747 0.236 0.0
O220 O 0.40706 0.78119 0.16932 0.0
C221 C 0.4715 0.85483 0.07835 0.0
C222 C 0.39897 0.75903 0.21061 0.0
O223 O 0.55488 0.7921 0.2085 0.0
Mg224 Mg 0.864 0.01573 0.76066 0.0
O225 O 0.85047 0.92936 0.76097 0.0
O226 O 0.78061 0.92586 0.79936 0.0
Mg227 Mg 0.80577 0.9761 0.87074 0.0
C228 C 0.80684 0.91253 0.76212 0.0
C229 C 0.90768 0.96497 0.66359 0.0
O230 O 0.92762 0.9377 0.69622 0.0
O231 O 0.78252 0.02433 0.75479 0.0
O232 O 0.76368 0.03456 0.83668 0.0
O233 O 0.9366 0.01681 0.79457 0.0
O234 O 0.86757 0.02305 0.83618 0.0
C235 C 0.75694 0.04341 0.79094 0.0
C236 C 0.91359 0.02238 0.83689 0.0
O237 O 0.87913 -0.00062 0.67856 0.0
Mg238 Mg 0.75651 0.12424 0.47292 0.0
O239 O 0.74731 0.14245 0.55717 0.0
O240 O 0.79829 0.21276 0.56837 0.0
Mg241 Mg 0.86325 0.19839 0.5162 0.0
C242 C 0.76058 0.1856 0.58087 0.0
C243 C 0.66686 0.05819 0.49702 0.0
O244 O 0.69847 0.0386 0.52473 0.0
O245 O 0.74917 0.21003 0.46271 0.0
O246 O 0.82685 0.23839 0.45748 0.0
O247 O 0.78974 0.0496 0.4775 0.0
O248 O 0.8275 0.12839 0.47901 0.0
C249 C 0.7831 0.24037 0.44567 0.0
C250 C 0.82929 0.07904 0.47926 0.0
O251 O 0.67918 0.09662 0.47093 0.0
Mg252 Mg 0.60279 0.97931 0.23231 0.0
O253 O 0.64505 0.05644 0.25095 0.0
O254 O 0.67242 0.05748 0.32898 0.0
Mg255 Mg 0.63689 -0.01347 0.36633 0.0
C256 C 0.67162 0.07682 0.28634 0.0
C257 C 0.6048 0.02997 0.11192 0.0
O258 O 0.63551 0.02471 0.07471 0.0
O259 O 0.67535 0.94081 0.23676 0.0
O260 O 0.68841 0.93927 0.31998 0.0
O261 O 0.5309 0.00364 0.26449 0.0
O262 O 0.58351 0.96542 0.30641 0.0
C263 C 0.6996 0.92788 0.27418 0.0
C264 C 0.54197 0.98238 0.30489 0.0
O265 O 0.61162 0.0046 0.15046 0.0
Mg266 Mg 0.7229 0.872 0.0279 0.0
O267 O 0.7426 0.84364 0.94726 0.0
O268 O 0.81526 0.81252 0.94136 0.0
Mg269 Mg 0.83325 0.79796 0.02294 0.0
C270 C 0.77684 0.82503 0.9214 0.0
C271 C 0.65557 0.94198 0.97292 0.0
O272 O 0.69801 0.96482 0.96364 0.0
O273 O 0.69324 0.78803 0.03939 0.0
O274 O 0.75981 0.75473 0.01693 0.0
O275 O 0.77411 0.94256 0.02862 0.0
O276 O 0.79578 0.86766 0.05159 0.0
C277 C 0.72714 0.76018 0.04991 0.0
C278 C 0.80736 0.91566 0.04418 0.0
O279 O 0.65281 0.90105 -0.00247 0.0
Mg280 Mg 0.25651 0.62424 0.97292 0.0
O281 O 0.24731 0.64245 0.05717 0.0
O282 O 0.29829 0.71277 0.06837 0.0
Mg283 Mg 0.36325 0.69839 0.0162 0.0
C284 C 0.26058 0.6856 0.08087 0.0
C285 C 0.16686 0.55819 -0.00298 0.0
O286 O 0.19847 0.5386 0.02473 0.0
O287 O 0.24917 0.71003 0.96271 0.0
O288 O 0.32685 0.73839 0.95748 0.0
O289 O 0.28974 0.5496 0.9775 0.0
O290 O 0.3275 0.62839 0.97901 0.0
C291 C 0.2831 0.74037 0.94567 0.0
C292 C 0.32929 0.57904 0.97926 0.0
O293 O 0.17918 0.59663 0.97093 0.0
Mg294 Mg 0.10279 0.47931 0.73231 0.0
O295 O 0.14505 0.55644 0.75095 0.0
O296 O 0.17242 0.55748 0.82898 0.0
Mg297 Mg 0.13689 0.48653 0.86633 0.0
C298 C 0.17162 0.57682 0.78634 0.0
C299 C 0.1048 0.52997 0.61192 0.0
O300 O 0.13551 0.52471 0.57471 0.0
O301 O 0.17535 0.44081 0.73676 0.0
O302 O 0.18841 0.43927 0.81998 0.0
O303 O 0.0309 0.50364 0.76449 0.0
O304 O 0.08351 0.46542 0.80641 0.0
C305 C 0.1996 0.42788 0.77418 0.0
C306 C 0.04197 0.48238 0.80488 0.0
O307 O 0.11162 0.5046 0.65046 0.0
Mg308 Mg 0.2229 0.372 0.5279 0.0
O309 O 0.2426 0.34364 0.44726 0.0
O310 O 0.31526 0.31252 0.44136 0.0
Mg311 Mg 0.33325 0.29796 0.52294 0.0
C312 C 0.27684 0.32503 0.4214 0.0
C313 C 0.15557 0.44198 0.47292 0.0
O314 O 0.19801 0.46482 0.46364 0.0
O315 O 0.19324 0.28803 0.53939 0.0
O316 O 0.25981 0.25473 0.51693 0.0
O317 O 0.27411 0.44256 0.52862 0.0
O318 O 0.29578 0.36766 0.55159 0.0
C319 C 0.22714 0.26018 0.54991 0.0
C320 C 0.30736 0.41566 0.54419 0.0
O321 O 0.15281 0.40105 0.49753 0.0
Mg322 Mg 0.364 0.51573 0.26066 0.0
O323 O 0.35047 0.42936 0.26097 0.0
O324 O 0.28061 0.42586 0.29936 0.0
Mg325 Mg 0.30577 0.4761 0.37074 0.0
C326 C 0.30684 0.41253 0.26212 0.0
C327 C 0.40768 0.46497 0.16359 0.0
O328 O 0.42762 0.4377 0.19622 0.0
O329 O 0.28252 0.52433 0.25479 0.0
O330 O 0.26368 0.53456 0.33668 0.0
O331 O 0.4366 0.51681 0.29457 0.0
O332 O 0.36757 0.52305 0.33618 0.0
C333 C 0.25694 0.54341 0.29094 0.0
C334 C 0.41359 0.52238 0.33689 0.0
O335 O 0.37913 0.49938 0.17856 0.0
O336 O -0.01007 0.09818 0.00118 0.0
Zn337 Zn 0.00991 0.03272 0.96222 0.0
O338 O -0.01809 0.97321 -0.00476 0.0
Zn339 Zn 0.02615 0.9198 -0.00572 0.0
Zn340 Zn 0.95324 -0.00991 0.05914 0.0
Zn341 Zn 0.92873 0.9518 0.95447 0.0
O342 O -0.00363 0.85738 0.94844 0.0
O343 O 0.94123 0.89374 0.90567 0.0
O344 O 0.08272 0.03291 0.96461 0.0
O345 O 0.09307 0.94898 0.97165 0.0
O346 O 0.03796 0.90548 0.06777 0.0
O347 O -0.00207 0.96791 0.10836 0.0
O348 O 0.88418 0.95679 0.06792 0.0
O349 O -0.01739 0.02741 0.89018 0.0
O350 O 0.87093 0.92723 -0.01089 0.0
O351 O 0.91031 0.01117 0.92159 0.0
C352 C 0.96856 0.10493 0.04352 0.0
C353 C 0.96523 0.85538 0.91321 0.0
C354 C 0.02823 0.93352 0.10763 0.0
C355 C 0.11014 -0.00417 0.96695 0.0
C356 C 0.8572 0.93286 0.03421 0.0
C357 C 0.93712 0.02239 0.88503 0.0
O358 O 0.95281 0.06725 0.06893 0.0
O359 O 0.22055 0.66442 0.15546 0.0
Zn360 Zn 0.19256 0.66662 0.22442 0.0
O361 O 0.2251 0.72634 0.26298 0.0
Zn362 Zn 0.27707 0.70686 0.2997 0.0
Zn363 Zn 0.2476 0.77804 0.21743 0.0
Zn364 Zn 0.18043 0.75031 0.31313 0.0
O365 O 0.27976 0.74565 0.36786 0.0
O366 O 0.20272 0.75565 0.38346 0.0
O367 O 0.2091 0.60003 0.25191 0.0
O368 O 0.26703 0.63176 0.30501 0.0
O369 O 0.339 0.71974 0.26215 0.0
O370 O 0.31985 0.78434 0.21705 0.0
O371 O 0.21661 0.84774 0.2363 0.0
O372 O 0.12126 0.6778 0.22218 0.0
O373 O 0.17275 0.8239 0.30277 0.0
O374 O 0.12196 0.70169 0.30162 0.0
C375 C 0.23713 0.70051 0.12866 0.0
C376 C 0.24613 0.76021 0.39711 0.0
C377 C 0.35009 0.75373 0.23091 0.0
C378 C 0.24085 0.59407 0.28431 0.0
C379 C 0.18837 0.85811 0.27345 0.0
C380 C 0.10463 0.70585 0.25856 0.0
O381 O 0.24048 0.74827 0.14534 0.0
O382 O 0.47563 0.8712 0.47691 0.0
Zn383 Zn 0.46591 0.93737 0.44235 0.0
O384 O 0.48945 -0.00465 0.48798 0.0
Zn385 Zn 0.43656 0.02775 0.51976 0.0
Zn386 Zn 0.53322 0.97403 0.53788 0.0
Zn387 Zn 0.52248 0.0473 0.45049 0.0
O388 O 0.4288 0.09895 0.49785 0.0
O389 O 0.5006 0.11628 0.46489 0.0
O390 O 0.39271 0.93137 0.43873 0.0
O391 O 0.37709 -0.01352 0.50362 0.0
O392 O 0.44114 0.02703 0.59289 0.0
O393 O 0.51227 -0.00174 0.60785 0.0
O394 O 0.60195 0.00284 0.52621 0.0
O395 O 0.49934 0.94575 0.37316 0.0
O396 O 0.58982 0.0563 0.46669 0.0
O397 O 0.51961 0.03097 0.37656 0.0
C398 C 0.49809 0.86133 0.51607 0.0
C399 C 0.45981 0.13023 0.47846 0.0
C400 C 0.47255 0.01501 0.62294 0.0
C401 C 0.36345 0.95168 0.47009 0.0
C402 C 0.61719 0.03727 0.49658 0.0
C403 C 0.51459 -0.0129 0.35197 0.0
O404 O 0.52514 0.89613 0.54023 0.0
O405 O 0.27051 0.25309 0.85999 0.0
Zn406 Zn 0.27741 0.29314 0.79734 0.0
O407 O 0.24918 0.25213 0.74097 0.0
Zn408 Zn 0.29496 0.22876 0.69132 0.0
Zn409 Zn 0.20607 0.19715 0.76643 0.0
Zn410 Zn 0.21401 0.29837 0.70709 0.0
O411 O 0.27661 0.23987 0.61793 0.0
O412 O 0.21252 0.28377 0.63441 0.0
O413 O 0.34845 0.29559 0.78964 0.0
O414 O 0.36205 0.25485 0.71454 0.0
O415 O 0.29604 0.15426 0.70161 0.0
O416 O 0.22516 0.1295 0.73465 0.0
O417 O 0.13647 0.21153 0.7543 0.0
O418 O 0.24619 0.36291 0.80179 0.0
O419 O 0.14651 0.29157 0.72744 0.0
O420 O 0.23963 0.37068 0.72036 0.0
C421 C 0.24837 0.2101 0.87025 0.0
C422 C 0.24019 0.26166 0.60324 0.0
C423 C 0.26791 0.12041 0.72153 0.0
C424 C 0.37681 0.27706 0.75647 0.0
C425 C 0.11966 0.25316 0.74106 0.0
C426 C 0.23493 0.38909 0.76517 0.0
O427 O 0.2192 0.18555 0.83926 0.0
O428 O -0.01954 0.04241 0.39152 0.0
Zn429 Zn 0.9515 -0.00177 0.44404 0.0
O430 O -0.01116 0.01068 0.50363 0.0
Zn431 Zn -0.00018 0.94641 0.53051 0.0
Zn432 Zn 0.04149 0.06118 0.4973 0.0
Zn433 Zn 0.95067 0.04846 0.54805 0.0
O434 O 0.96447 0.94363 0.59894 0.0
O435 O 0.91182 0.00201 0.58792 0.0
O436 O 0.95441 0.92437 0.4153 0.0
O437 O -0.01873 0.885 0.47979 0.0
O438 O 0.07103 0.94798 0.53558 0.0
O439 O 0.09958 0.03029 0.52559 0.0
O440 O 0.02233 0.1348 0.52894 0.0
O441 O 0.88388 0.01589 0.45945 0.0
O442 O -0.01436 0.10178 0.59397 0.0
O443 O 0.90594 0.08445 0.51095 0.0
C444 C 0.02562 0.0483 0.38535 0.0
C445 C 0.92719 0.96704 0.61283 0.0
C446 C 0.1057 0.98282 0.53342 0.0
C447 C 0.96696 0.8838 0.4344 0.0
C448 C 0.00254 0.14138 0.57246 0.0
C449 C 0.87474 0.05797 0.48422 0.0
O450 O 0.05385 0.05552 0.42269 0.0
O451 O 0.35682 0.75461 0.75169 0.0
Zn452 Zn 0.30459 0.78207 0.79442 0.0
O453 O 0.24405 0.75936 0.76698 0.0
Zn454 Zn 0.20702 0.81555 0.75134 0.0
Zn455 Zn 0.24917 0.70688 0.71311 0.0
Zn456 Zn 0.21128 0.72917 0.82056 0.0
O457 O 0.13618 0.80201 0.76977 0.0
O458 O 0.14389 0.73603 0.81708 0.0
O459 O 0.31267 0.85787 0.79393 0.0
O460 O 0.23938 0.88345 0.78175 0.0
O461 O 0.2137 0.81841 0.67767 0.0
O462 O 0.23063 0.73822 0.64961 0.0
O463 O 0.20734 0.64158 0.73416 0.0
O464 O 0.30808 0.76313 0.8658 0.0
O465 O 0.21517 0.65327 0.81734 0.0
O466 O 0.23114 0.76178 0.88565 0.0
C467 C 0.35808 0.72194 0.71386 0.0
C468 C 0.11813 0.76619 0.79642 0.0
C469 C 0.22258 0.78503 0.642 0.0
C470 C 0.28387 0.89319 0.79163 0.0
C471 C 0.20051 0.62564 0.77847 0.0
C472 C 0.27437 0.76201 0.8985 0.0
O473 O 0.32007 0.69725 0.69601 0.0
O474 O 0.57674 0.10158 0.07394 0.0
Zn475 Zn 0.56858 0.07288 0.00011 0.0
O476 O 0.50773 0.03414 0.01117 0.0
Zn477 Zn 0.5038 0.9695 0.97165 0.0
Zn478 Zn 0.4811 0.01871 0.07602 0.0
Zn479 Zn 0.46722 0.08686 -0.00631 0.0
O480 O 0.46719 0.98335 0.90925 0.0
O481 O 0.43667 0.06035 0.92919 0.0
O482 O 0.61731 0.02051 0.97996 0.0
O483 O 0.57182 0.94705 0.9621 0.0
O484 O 0.47293 0.91002 0.01028 0.0
O485 O 0.49113 0.94442 0.08675 0.0
O486 O 0.40546 0.02581 0.06802 0.0
O487 O 0.56045 0.12532 0.94239 0.0
O488 O 0.41816 0.10413 0.04348 0.0
O489 O 0.50213 0.15536 -0.01287 0.0
C490 C 0.57062 0.07156 0.11044 0.0
C491 C 0.44082 0.01992 0.89961 0.0
C492 C 0.48176 0.90489 0.05644 0.0
C493 C 0.61287 0.97152 0.96852 0.0
C494 C 0.38882 0.06663 0.0525 0.0
C495 C 0.52901 0.15858 0.94901 0.0
O496 O 0.52745 0.06099 0.12574 0.0
O497 O 0.13679 0.25757 0.2719 0.0
Zn498 Zn 0.20056 0.23729 0.29778 0.0
O499 O 0.24735 0.24065 0.24545 0.0
Zn500 Zn 0.2638 0.17382 0.22246 0.0
Zn501 Zn 0.22613 0.28105 0.19425 0.0
Zn502 Zn 0.30558 0.28035 0.26428 0.0
O503 O 0.3282 0.16038 0.2511 0.0
O504 O 0.36092 0.24135 0.25751 0.0
O505 O 0.1872 0.16124 0.3127 0.0
O506 O 0.2145 0.12019 0.24284 0.0
O507 O 0.26621 0.17188 0.14886 0.0
O508 O 0.25356 0.25199 0.12718 0.0
O509 O 0.24634 0.35599 0.22075 0.0
O510 O 0.2265 0.28224 0.35883 0.0
O511 O 0.32004 0.3348 0.21814 0.0
O512 O 0.30153 0.30815 0.3369 0.0
C513 C 0.12433 0.26448 0.22709 0.0
C514 C 0.36435 0.19312 0.25767 0.0
C515 C 0.26325 0.2048 0.11602 0.0
C516 C 0.19012 0.12025 0.28333 0.0
C517 C 0.29074 0.36877 0.22723 0.0
C518 C 0.26727 0.30644 0.36896 0.0
O519 O 0.15495 0.27094 0.1919 0.0
O520 O 0.48046 0.54241 0.89152 0.0
Zn521 Zn 0.4515 0.49823 0.94404 0.0
O522 O 0.48884 0.51068 0.00363 0.0
Zn523 Zn 0.49982 0.44641 0.03051 0.0
Zn524 Zn 0.54149 0.56118 -0.0027 0.0
Zn525 Zn 0.45067 0.54846 0.04805 0.0
O526 O 0.46447 0.44363 0.09894 0.0
O527 O 0.41182 0.50201 0.08792 0.0
O528 O 0.45441 0.42437 0.9153 0.0
O529 O 0.48127 0.385 0.97979 0.0
O530 O 0.57103 0.44798 0.03558 0.0
O531 O 0.59958 0.53029 0.02559 0.0
O532 O 0.52233 0.6348 0.02894 0.0
O533 O 0.38388 0.51589 0.95945 0.0
O534 O 0.48564 0.60178 0.09397 0.0
O535 O 0.40594 0.58445 0.01095 0.0
C536 C 0.52562 0.5483 0.88535 0.0
C537 C 0.42719 0.46704 0.11283 0.0
C538 C 0.6057 0.48282 0.03342 0.0
C539 C 0.46696 0.3838 0.9344 0.0
C540 C 0.50254 0.64138 0.07246 0.0
C541 C 0.37474 0.55797 -0.01578 0.0
O542 O 0.55385 0.55552 0.92269 0.0
O543 O 0.85682 0.25461 0.25169 0.0
Zn544 Zn 0.80459 0.28207 0.29442 0.0
O545 O 0.74405 0.25936 0.26698 0.0
Zn546 Zn 0.70702 0.31555 0.25134 0.0
Zn547 Zn 0.74917 0.20688 0.21311 0.0
Zn548 Zn 0.71128 0.22918 0.32056 0.0
O549 O 0.63618 0.30201 0.26977 0.0
O550 O 0.64389 0.23603 0.31708 0.0
O551 O 0.81267 0.35787 0.29393 0.0
O552 O 0.73938 0.38345 0.28175 0.0
O553 O 0.7137 0.31841 0.17767 0.0
O554 O 0.73063 0.23822 0.14961 0.0
O555 O 0.70734 0.14158 0.23416 0.0
O556 O 0.80808 0.26313 0.3658 0.0
O557 O 0.71517 0.15327 0.31734 0.0
O558 O 0.73114 0.26178 0.38565 0.0
C559 C 0.85808 0.22194 0.21386 0.0
C560 C 0.61813 0.26619 0.29642 0.0
C561 C 0.72258 0.28503 0.142 0.0
C562 C 0.78387 0.39319 0.29163 0.0
C563 C 0.70051 0.12564 0.27847 0.0
C564 C 0.77437 0.26201 0.3985 0.0
O565 O 0.82007 0.19725 0.19601 0.0
O566 O 0.07674 0.60158 0.57394 0.0
Zn567 Zn 0.06858 0.57288 0.50011 0.0
O568 O 0.00773 0.53414 0.51117 0.0
Zn569 Zn 0.0038 0.4695 0.47165 0.0
Zn570 Zn -0.0189 0.51871 0.57602 0.0
Zn571 Zn 0.96722 0.58686 0.49369 0.0
O572 O 0.96719 0.48335 0.40925 0.0
O573 O 0.93667 0.56035 0.42919 0.0
O574 O 0.11731 0.52051 0.47996 0.0
O575 O 0.07182 0.44705 0.4621 0.0
O576 O 0.97293 0.41002 0.51028 0.0
O577 O -0.00887 0.44442 0.58675 0.0
O578 O 0.90546 0.52581 0.56802 0.0
O579 O 0.06045 0.62532 0.44239 0.0
O580 O 0.91816 0.60413 0.54348 0.0
O581 O 0.00213 0.65536 0.48713 0.0
C582 C 0.07062 0.57156 0.61044 0.0
C583 C 0.94082 0.51992 0.39961 0.0
C584 C -0.01824 0.40489 0.55644 0.0
C585 C 0.11287 0.47152 0.46851 0.0
C586 C 0.88882 0.56663 0.5525 0.0
C587 C 0.02901 0.65858 0.44901 0.0
O588 O 0.02745 0.56099 0.62574 0.0
O589 O 0.77051 0.75309 0.35999 0.0
Zn590 Zn 0.77741 0.79314 0.29734 0.0
O591 O 0.74918 0.75213 0.24097 0.0
Zn592 Zn 0.79496 0.72876 0.19132 0.0
Zn593 Zn 0.70607 0.69715 0.26643 0.0
Zn594 Zn 0.71401 0.79837 0.20709 0.0
O595 O 0.77661 0.73987 0.11793 0.0
O596 O 0.71252 0.78377 0.13441 0.0
O597 O 0.84845 0.79559 0.28964 0.0
O598 O 0.86205 0.75485 0.21454 0.0
O599 O 0.79604 0.65426 0.20161 0.0
O600 O 0.72516 0.6295 0.23465 0.0
O601 O 0.63647 0.71153 0.2543 0.0
O602 O 0.74619 0.86291 0.30179 0.0
O603 O 0.64651 0.79157 0.22744 0.0
O604 O 0.73963 0.87068 0.22036 0.0
C605 C 0.74837 0.7101 0.37025 0.0
C606 C 0.74019 0.76166 0.10324 0.0
C607 C 0.76791 0.62041 0.22153 0.0
C608 C 0.87681 0.77706 0.25647 0.0
C609 C 0.61966 0.75316 0.24106 0.0
C610 C 0.73493 0.88909 0.26517 0.0
O611 O 0.7192 0.68555 0.33926 0.0
O612 O 0.72055 0.16442 0.65546 0.0
Zn613 Zn 0.69256 0.16662 0.72442 0.0
O614 O 0.7251 0.22634 0.76298 0.0
Zn615 Zn 0.77707 0.20686 0.7997 0.0
Zn616 Zn 0.7476 0.27804 0.71743 0.0
Zn617 Zn 0.68043 0.25031 0.81313 0.0
O618 O 0.77976 0.24565 0.86786 0.0
O619 O 0.70272 0.25565 0.88346 0.0
O620 O 0.7091 0.10003 0.75191 0.0
O621 O 0.76703 0.13176 0.80501 0.0
O622 O 0.839 0.21974 0.76215 0.0
O623 O 0.81985 0.28434 0.71705 0.0
O624 O 0.71661 0.34774 0.7363 0.0
O625 O 0.62126 0.1778 0.72218 0.0
O626 O 0.67275 0.3239 0.80277 0.0
O627 O 0.62196 0.20169 0.80162 0.0
C628 C 0.73713 0.20051 0.62866 0.0
C629 C 0.74613 0.26021 0.89711 0.0
C630 C 0.85009 0.25373 0.73091 0.0
C631 C 0.74085 0.09407 0.78431 0.0
C632 C 0.68837 0.35811 0.77345 0.0
C633 C 0.60463 0.20585 0.75856 0.0
O634 O 0.74048 0.24827 0.64534 0.0
O635 O 0.63679 0.75757 0.7719 0.0
Zn636 Zn 0.70056 0.73729 0.79778 0.0
O637 O 0.74735 0.74065 0.74545 0.0
Zn638 Zn 0.7638 0.67382 0.72246 0.0
Zn639 Zn 0.72613 0.78105 0.69425 0.0
Zn640 Zn 0.80558 0.78034 0.76428 0.0
O641 O 0.8282 0.66038 0.7511 0.0
O642 O 0.86092 0.74135 0.75751 0.0
O643 O 0.6872 0.66124 0.8127 0.0
O644 O 0.7145 0.62019 0.74284 0.0
O645 O 0.76621 0.67188 0.64886 0.0
O646 O 0.75356 0.75199 0.62718 0.0
O647 O 0.74634 0.85599 0.72075 0.0
O648 O 0.7265 0.78224 0.85883 0.0
O649 O 0.82004 0.8348 0.71814 0.0
O650 O 0.80153 0.80815 0.8369 0.0
C651 C 0.62433 0.76448 0.72709 0.0
C652 C 0.86435 0.69312 0.75767 0.0
C653 C 0.76325 0.7048 0.61602 0.0
C654 C 0.69012 0.62025 0.78333 0.0
C655 C 0.79074 0.86877 0.72723 0.0
C656 C 0.76727 0.80644 0.86896 0.0
O657 O 0.65495 0.77094 0.6919 0.0
O658 O 0.48993 0.59818 0.50118 0.0
Zn659 Zn 0.50991 0.53272 0.46222 0.0
O660 O 0.48191 0.47321 0.49524 0.0
Zn661 Zn 0.52615 0.4198 0.49428 0.0
Zn662 Zn 0.45324 0.49009 0.55914 0.0
Zn663 Zn 0.42873 0.4518 0.45447 0.0
O664 O 0.49637 0.35738 0.44844 0.0
O665 O 0.44123 0.39374 0.40567 0.0
O666 O 0.58272 0.53291 0.46461 0.0
O667 O 0.59307 0.44898 0.47165 0.0
O668 O 0.53796 0.40548 0.56777 0.0
O669 O 0.49793 0.46791 0.60836 0.0
O670 O 0.38418 0.45679 0.56792 0.0
O671 O 0.48261 0.52741 0.39018 0.0
O672 O 0.37093 0.42723 0.48911 0.0
O673 O 0.41031 0.51117 0.42159 0.0
C674 C 0.46856 0.60493 0.54352 0.0
C675 C 0.46523 0.35538 0.41321 0.0
C676 C 0.52823 0.43352 0.60763 0.0
C677 C 0.61014 0.49583 0.46695 0.0
C678 C 0.3572 0.43286 0.53421 0.0
C679 C 0.43712 0.52239 0.38503 0.0
O680 O 0.45281 0.56725 0.56893 0.0
O681 O -0.02437 0.3712 0.97691 0.0
Zn682 Zn 0.9659 0.43737 0.94235 0.0
O683 O -0.01055 0.49535 -0.01202 0.0
Zn684 Zn 0.93656 0.52775 0.01975 0.0
Zn685 Zn 0.03322 0.47403 0.03787 0.0
Zn686 Zn 0.02248 0.5473 0.95049 0.0
O687 O 0.9288 0.59895 -0.00214 0.0
O688 O 0.0006 0.61628 0.96489 0.0
O689 O 0.89271 0.43137 0.93872 0.0
O690 O 0.87709 0.48648 0.00362 0.0
O691 O 0.94114 0.52703 0.09289 0.0
O692 O 0.01227 0.49826 0.10785 0.0
O693 O 0.10195 0.50284 0.02621 0.0
O694 O -0.00066 0.44575 0.87316 0.0
O695 O 0.08982 0.5563 0.96669 0.0
O696 O 0.01961 0.53096 0.87656 0.0
C697 C -0.00191 0.36133 0.01607 0.0
C698 C 0.95981 0.63023 0.97846 0.0
C699 C 0.97255 0.51501 0.12294 0.0
C700 C 0.86345 0.45168 0.97009 0.0
C701 C 0.11719 0.53727 -0.00342 0.0
C702 C 0.01459 0.48709 0.85197 0.0
O703 O 0.02514 0.39613 0.04023 0.0
loop_
_geom_bond_atom_site_label_1
_geom_bond_atom_site_label_2
_geom_bond_distance
_geom_bond_site_symmetry_2
_ccdc_geom_bond_type
Mg0 O1 2.028 . S
Mg0 O7 1.986 . S
Mg0 O9 2.114 1_455 S
Mg0 O10 2.251 1_455 S
Mg0 O13 2.010 . S
O1 Mg0 2.028 . S
O1 C4 1.250 . S
O2 Mg3 2.028 . S
O2 C4 1.248 1_655 S
Mg3 O2 2.028 . S
Mg3 O8 2.032 . S
Mg3 O10 2.079 . S
C4 O1 1.250 . S
C4 O2 1.248 1_455 S
C5 O6 1.264 . S
C5 O13 1.249 . S
O6 C5 1.264 . S
O7 Mg0 1.986 . S
O7 C11 1.246 . S
O8 Mg3 2.032 . S
O8 C11 1.259 1_655 S
O9 Mg0 2.114 1_655 S
O9 C12 1.252 . S
O10 Mg0 2.251 1_655 S
O10 Mg3 2.079 . S
O10 C12 1.273 . S
C11 O7 1.246 . S
C11 O8 1.259 1_455 S
C12 O9 1.252 . S
C12 O10 1.273 . S
O13 Mg0 2.010 . S
O13 C5 1.249 . S
Mg14 O15 2.028 . S
Mg14 O21 1.986 . S
Mg14 O23 2.114 1_455 S
Mg14 O24 2.251 1_455 S
Mg14 O27 2.010 . S
O15 Mg14 2.028 . S
O15 C18 1.250 . S
O16 Mg17 2.028 . S
O16 C18 1.248 1_655 S
Mg17 O16 2.028 . S
Mg17 O22 2.032 . S
Mg17 O24 2.079 . S
C18 O15 1.250 . S
C18 O16 1.248 1_455 S
C19 O20 1.264 . S
C19 O27 1.249 . S
O20 C19 1.264 . S
O21 Mg14 1.986 . S
O21 C25 1.246 . S
O22 Mg17 2.032 . S
O22 C25 1.259 1_655 S
O23 Mg14 2.114 1_655 S
O23 C26 1.252 . S
O24 Mg14 2.251 1_655 S
O24 Mg17 2.079 . S
O24 C26 1.273 . S
C25 O21 1.246 . S
C25 O22 1.259 1_455 S
C26 O23 1.252 . S
C26 O24 1.273 . S
O27 Mg14 2.010 . S
O27 C19 1.249 . S
Mg28 O29 2.028 . S
Mg28 O35 1.986 . S
Mg28 O37 2.114 . S
Mg28 O38 2.251 . S
Mg28 O41 2.010 . S
O29 Mg28 2.028 . S
O29 C32 1.250 . S
O30 Mg31 2.028 . S
O30 C32 1.248 . S
Mg31 O30 2.028 . S
Mg31 O36 2.032 . S
Mg31 O38 2.079 . S
C32 O29 1.250 . S
C32 O30 1.248 . S
C33 O34 1.264 . S
C33 O41 1.249 . S
O34 C33 1.264 . S
O35 Mg28 1.986 . S
O35 C39 1.246 . S
O36 Mg31 2.032 . S
O36 C39 1.259 . S
O37 Mg28 2.114 . S
O37 C40 1.252 . S
O38 Mg28 2.251 . S
O38 Mg31 2.079 . S
O38 C40 1.273 . S
C39 O35 1.246 . S
C39 O36 1.259 . S
C40 O37 1.252 . S
C40 O38 1.273 . S
O41 Mg28 2.010 . S
O41 C33 1.249 . S
Mg42 O43 2.028 . S
Mg42 O49 1.986 . S
Mg42 O51 2.114 . S
Mg42 O52 2.251 . S
Mg42 O55 2.010 . S
O43 Mg42 2.028 . S
O43 C46 1.250 . S
O44 Mg45 2.028 . S
O44 C46 1.248 . S
Mg45 O44 2.028 . S
Mg45 O50 2.032 . S
Mg45 O52 2.079 . S
C46 O43 1.250 . S
C46 O44 1.248 . S
C47 O48 1.264 . S
C47 O55 1.249 . S
O48 C47 1.264 . S
O49 Mg42 1.986 . S
O49 C53 1.246 . S
O50 Mg45 2.032 . S
O50 C53 1.259 . S
O51 Mg42 2.114 . S
O51 C54 1.252 . S
O52 Mg42 2.251 . S
O52 Mg45 2.079 . S
O52 C54 1.273 . S
C53 O49 1.246 . S
C53 O50 1.259 . S
C54 O51 1.252 . S
C54 O52 1.273 . S
O55 Mg42 2.010 . S
O55 C47 1.249 . S
Mg56 O57 2.028 . S
Mg56 O63 1.986 1_545 S
Mg56 O65 2.114 . S
Mg56 O66 2.251 . S
Mg56 O69 2.010 . S
O57 Mg56 2.028 . S
O57 C60 1.250 . S
O58 Mg59 2.028 . S
O58 C60 1.248 . S
Mg59 O58 2.028 . S
Mg59 O64 2.032 1_545 S
Mg59 O66 2.079 . S
C60 O57 1.250 . S
C60 O58 1.248 . S
C61 O62 1.264 1_545 S
C61 O69 1.249 . S
O62 C61 1.264 1_565 S
O63 Mg56 1.986 1_565 S
O63 C67 1.246 . S
O64 Mg59 2.032 1_565 S
O64 C67 1.259 . S
O65 Mg56 2.114 . S
O65 C68 1.252 . S
O66 Mg56 2.251 . S
O66 Mg59 2.079 . S
O66 C68 1.273 . S
C67 O63 1.246 . S
C67 O64 1.259 . S
C68 O65 1.252 . S
C68 O66 1.273 . S
O69 Mg56 2.010 . S
O69 C61 1.249 . S
Mg70 O71 2.028 . S
Mg70 O77 1.986 . S
Mg70 O79 2.114 . S
Mg70 O80 2.251 . S
Mg70 O83 2.010 . S
O71 Mg70 2.028 . S
O71 C74 1.250 . S
O72 Mg73 2.028 . S
O72 C74 1.248 . S
Mg73 O72 2.028 . S
Mg73 O78 2.032 . S
Mg73 O80 2.079 . S
C74 O71 1.250 . S
C74 O72 1.248 . S
C75 O76 1.264 1_565 S
C75 O83 1.249 . S
O76 C75 1.264 1_545 S
O77 Mg70 1.986 . S
O77 C81 1.246 . S
O78 Mg73 2.032 . S
O78 C81 1.259 . S
O79 Mg70 2.114 . S
O79 C82 1.252 . S
O80 Mg70 2.251 . S
O80 Mg73 2.079 . S
O80 C82 1.273 . S
C81 O77 1.246 . S
C81 O78 1.259 . S
C82 O79 1.252 . S
C82 O80 1.273 . S
O83 Mg70 2.010 . S
O83 C75 1.249 . S
Mg84 O85 2.028 1_545 S
Mg84 O91 1.986 . S
Mg84 O93 2.114 1_545 S
Mg84 O94 2.251 . S
Mg84 O97 2.010 . S
O85 Mg84 2.028 1_565 S
O85 C88 1.250 . S
O86 Mg87 2.028 1_565 S
O86 C88 1.248 . S
Mg87 O86 2.028 1_545 S
Mg87 O92 2.032 . S
Mg87 O94 2.079 . S
C88 O85 1.250 . S
C88 O86 1.248 . S
C89 O90 1.264 . S
C89 O97 1.249 . S
O90 C89 1.264 . S
O91 Mg84 1.986 . S
O91 C95 1.246 . S
O92 Mg87 2.032 . S
O92 C95 1.259 . S
O93 Mg84 2.114 1_565 S
O93 C96 1.252 . S
O94 Mg84 2.251 . S
O94 Mg87 2.079 . S
O94 C96 1.273 1_545 S
C95 O91 1.246 . S
C95 O92 1.259 . S
C96 O93 1.252 . S
C96 O94 1.273 1_565 S
O97 Mg84 2.010 . S
O97 C89 1.249 . S
Mg98 O99 2.028 1_556 S
Mg98 O105 1.986 . S
Mg98 O107 2.114 1_556 S
Mg98 O108 2.251 1_556 S
Mg98 O111 2.010 . S
O99 Mg98 2.028 1_554 S
O99 C102 1.250 . S
O100 Mg101 2.028 . S
O100 C102 1.248 . S
Mg101 O100 2.028 . S
Mg101 O106 2.032 1_554 S
Mg101 O108 2.079 . S
C102 O99 1.250 . S
C102 O100 1.248 . S
C103 O104 1.264 1_554 S
C103 O111 1.249 1_554 S
O104 C103 1.264 1_556 S
O105 Mg98 1.986 . S
O105 C109 1.246 . S
O106 Mg101 2.032 1_556 S
O106 C109 1.259 . S
O107 Mg98 2.114 1_554 S
O107 C110 1.252 . S
O108 Mg98 2.251 1_554 S
O108 Mg101 2.079 . S
O108 C110 1.273 . S
C109 O105 1.246 . S
C109 O106 1.259 . S
C110 O107 1.252 . S
C110 O108 1.273 . S
O111 Mg98 2.010 . S
O111 C103 1.249 1_556 S
Mg112 O113 2.028 1_554 S
Mg112 O119 1.986 . S
Mg112 O121 2.114 1_554 S
Mg112 O122 2.251 . S
Mg112 O125 2.010 . S
O113 Mg112 2.028 1_556 S
O113 C116 1.250 . S
O114 Mg115 2.028 1_556 S
O114 C116 1.248 . S
Mg115 O114 2.028 1_554 S
Mg115 O120 2.032 . S
Mg115 O122 2.079 . S
C116 O113 1.250 . S
C116 O114 1.248 . S
C117 O118 1.264 . S
C117 O125 1.249 . S
O118 C117 1.264 . S
O119 Mg112 1.986 . S
O119 C123 1.246 . S
O120 Mg115 2.032 . S
O120 C123 1.259 . S
O121 Mg112 2.114 1_556 S
O121 C124 1.252 1_556 S
O122 Mg112 2.251 . S
O122 Mg115 2.079 . S
O122 C124 1.273 . S
C123 O119 1.246 . S
C123 O120 1.259 . S
C124 O121 1.252 1_554 S
C124 O122 1.273 . S
O125 Mg112 2.010 . S
O125 C117 1.249 . S
Mg126 O127 2.028 . S
Mg126 O133 1.986 . S
Mg126 O135 2.114 . S
Mg126 O136 2.251 . S
Mg126 O139 2.010 . S
O127 Mg126 2.028 . S
O127 C130 1.250 . S
O128 Mg129 2.028 . S
O128 C130 1.248 . S
Mg129 O128 2.028 . S
Mg129 O134 2.032 . S
Mg129 O136 2.079 . S
C130 O127 1.250 . S
C130 O128 1.248 . S
C131 O132 1.264 1_655 S
C131 O139 1.249 . S
O132 C131 1.264 1_455 S
O133 Mg126 1.986 . S
O133 C137 1.246 . S
O134 Mg129 2.032 . S
O134 C137 1.259 . S
O135 Mg126 2.114 . S
O135 C138 1.252 . S
O136 Mg126 2.251 . S
O136 Mg129 2.079 . S
O136 C138 1.273 . S
C137 O133 1.246 . S
C137 O134 1.259 . S
C138 O135 1.252 . S
C138 O136 1.273 . S
O139 Mg126 2.010 . S
O139 C131 1.249 . S
Mg140 O141 2.028 . S
Mg140 O147 1.986 . S
Mg140 O149 2.114 . S
Mg140 O150 2.251 . S
Mg140 O153 2.010 . S
O141 Mg140 2.028 . S
O141 C144 1.250 . S
O142 Mg143 2.028 . S
O142 C144 1.248 . S
Mg143 O142 2.028 . S
Mg143 O148 2.032 . S
Mg143 O150 2.079 . S
C144 O141 1.250 . S
C144 O142 1.248 . S
C145 O146 1.264 . S
C145 O153 1.249 . S
O146 C145 1.264 . S
O147 Mg140 1.986 . S
O147 C151 1.246 . S
O148 Mg143 2.032 . S
O148 C151 1.259 . S
O149 Mg140 2.114 . S
O149 C152 1.252 . S
O150 Mg140 2.251 . S
O150 Mg143 2.079 . S
O150 C152 1.273 . S
C151 O147 1.246 . S
C151 O148 1.259 . S
C152 O149 1.252 . S
C152 O150 1.273 . S
O153 Mg140 2.010 . S
O153 C145 1.249 . S
Mg154 O155 2.028 . S
Mg154 O161 1.986 . S
Mg154 O163 2.114 . S
Mg154 O164 2.251 . S
Mg154 O167 2.010 . S
O155 Mg154 2.028 . S
O155 C158 1.250 . S
O156 Mg157 2.028 . S
O156 C158 1.248 . S
Mg157 O156 2.028 . S
Mg157 O162 2.032 . S
Mg157 O164 2.079 . S
C158 O155 1.250 . S
C158 O156 1.248 . S
C159 O160 1.264 . S
C159 O167 1.249 . S
O160 C159 1.264 . S
O161 Mg154 1.986 . S
O161 C165 1.246 . S
O162 Mg157 2.032 . S
O162 C165 1.259 . S
O163 Mg154 2.114 . S
O163 C166 1.252 . S
O164 Mg154 2.251 . S
O164 Mg157 2.079 . S
O164 C166 1.273 . S
C165 O161 1.246 . S
C165 O162 1.259 . S
C166 O163 1.252 . S
C166 O164 1.273 . S
O167 Mg154 2.010 . S
O167 C159 1.249 . S
Mg168 O169 2.028 . S
Mg168 O175 1.986 . S
Mg168 O177 2.114 1_455 S
Mg168 O178 2.251 1_455 S
Mg168 O181 2.010 . S
O169 Mg168 2.028 . S
O169 C172 1.250 . S
O170 Mg171 2.028 . S
O170 C172 1.248 1_655 S
Mg171 O170 2.028 . S
Mg171 O176 2.032 . S
Mg171 O178 2.079 . S
C172 O169 1.250 . S
C172 O170 1.248 1_455 S
C173 O174 1.264 . S
C173 O181 1.249 . S
O174 C173 1.264 . S
O175 Mg168 1.986 . S
O175 C179 1.244 1_455 S
O176 Mg171 2.032 . S
O176 C179 1.262 . S
O177 Mg168 2.114 1_655 S
O177 C180 1.252 . S
O178 Mg168 2.251 1_655 S
O178 Mg171 2.079 . S
O178 C180 1.273 . S
C179 O175 1.244 1_655 S
C179 O176 1.262 . S
C180 O177 1.252 . S
C180 O178 1.273 . S
O181 Mg168 2.010 . S
O181 C173 1.249 . S
Mg182 O183 2.028 . S
Mg182 O189 1.986 . S
Mg182 O191 2.114 1_455 S
Mg182 O192 2.251 1_455 S
Mg182 O195 2.010 . S
O183 Mg182 2.028 . S
O183 C186 1.250 . S
O184 Mg185 2.028 . S
O184 C186 1.248 1_655 S
Mg185 O184 2.028 . S
Mg185 O190 2.032 . S
Mg185 O192 2.079 . S
C186 O183 1.250 . S
C186 O184 1.248 1_455 S
C187 O188 1.264 . S
C187 O195 1.249 . S
O188 C187 1.264 . S
O189 Mg182 1.986 . S
O189 C193 1.246 . S
O190 Mg185 2.032 . S
O190 C193 1.259 1_655 S
O191 Mg182 2.114 1_655 S
O191 C194 1.252 . S
O192 Mg182 2.251 1_655 S
O192 Mg185 2.079 . S
O192 C194 1.273 . S
C193 O189 1.246 . S
C193 O190 1.259 1_455 S
C194 O191 1.252 . S
C194 O192 1.273 . S
O195 Mg182 2.010 . S
O195 C187 1.249 . S
Mg196 O197 2.028 . S
Mg196 O203 1.986 . S
Mg196 O205 2.114 . S
Mg196 O206 2.251 . S
Mg196 O209 2.010 . S
O197 Mg196 2.028 . S
O197 C200 1.250 . S
O198 Mg199 2.028 . S
O198 C200 1.248 . S
Mg199 O198 2.028 . S
Mg199 O204 2.032 . S
Mg199 O206 2.079 . S
C200 O197 1.250 . S
C200 O198 1.248 . S
C201 O202 1.264 . S
C201 O209 1.249 . S
O202 C201 1.264 . S
O203 Mg196 1.986 . S
O203 C207 1.246 . S
O204 Mg199 2.032 . S
O204 C207 1.259 . S
O205 Mg196 2.114 . S
O205 C208 1.252 . S
O206 Mg196 2.251 . S
O206 Mg199 2.079 . S
O206 C208 1.273 . S
C207 O203 1.246 . S
C207 O204 1.259 . S
C208 O205 1.252 . S
C208 O206 1.273 . S
O209 Mg196 2.010 . S
O209 C201 1.249 . S
Mg210 O211 2.028 . S
Mg210 O217 1.986 . S
Mg210 O219 2.114 . S
Mg210 O220 2.251 . S
Mg210 O223 2.010 . S
O211 Mg210 2.028 . S
O211 C214 1.250 . S
O212 Mg213 2.028 . S
O212 C214 1.248 . S
Mg213 O212 2.028 . S
Mg213 O218 2.032 . S
Mg213 O220 2.079 . S
C214 O211 1.250 . S
C214 O212 1.248 . S
C215 O216 1.264 . S
C215 O223 1.249 . S
O216 C215 1.264 . S
O217 Mg210 1.986 . S
O217 C221 1.246 . S
O218 Mg213 2.032 . S
O218 C221 1.259 . S
O219 Mg210 2.114 . S
O219 C222 1.252 . S
O220 Mg210 2.251 . S
O220 Mg213 2.079 . S
O220 C222 1.273 . S
C221 O217 1.246 . S
C221 O218 1.259 . S
C222 O219 1.252 . S
C222 O220 1.273 . S
O223 Mg210 2.010 . S
O223 C215 1.249 . S
Mg224 O225 2.028 1_545 S
Mg224 O231 1.986 . S
Mg224 O233 2.114 . S
Mg224 O234 2.251 . S
Mg224 O237 2.010 . S
O225 Mg224 2.028 1_565 S
O225 C228 1.250 . S
O226 Mg227 2.028 1_565 S
O226 C228 1.248 . S
Mg227 O226 2.028 1_545 S
Mg227 O232 2.032 . S
Mg227 O234 2.079 . S
C228 O225 1.250 . S
C228 O226 1.248 . S
C229 O230 1.264 1_655 S
C229 O237 1.249 . S
O230 C229 1.264 1_455 S
O231 Mg224 1.986 . S
O231 C235 1.246 . S
O232 Mg227 2.032 . S
O232 C235 1.259 . S
O233 Mg224 2.114 . S
O233 C236 1.252 . S
O234 Mg224 2.251 . S
O234 Mg227 2.079 . S
O234 C236 1.273 . S
C235 O231 1.246 . S
C235 O232 1.259 . S
C236 O233 1.252 . S
C236 O234 1.273 . S
O237 Mg224 2.010 . S
O237 C229 1.249 . S
Mg238 O239 2.028 . S
Mg238 O245 1.986 . S
Mg238 O247 2.114 . S
Mg238 O248 2.251 . S
Mg238 O251 2.010 . S
O239 Mg238 2.028 . S
O239 C242 1.250 . S
O240 Mg241 2.028 . S
O240 C242 1.248 . S
Mg241 O240 2.028 . S
Mg241 O246 2.032 . S
Mg241 O248 2.079 . S
C242 O239 1.250 . S
C242 O240 1.248 . S
C243 O244 1.264 . S
C243 O251 1.249 . S
O244 C243 1.264 . S
O245 Mg238 1.986 . S
O245 C249 1.246 . S
O246 Mg241 2.032 . S
O246 C249 1.259 . S
O247 Mg238 2.114 . S
O247 C250 1.252 . S
O248 Mg238 2.251 . S
O248 Mg241 2.079 . S
O248 C250 1.273 . S
C249 O245 1.246 . S
C249 O246 1.259 . S
C250 O247 1.252 . S
C250 O248 1.273 . S
O251 Mg238 2.010 . S
O251 C243 1.249 . S
Mg252 O253 2.028 1_565 S
Mg252 O259 1.986 . S
Mg252 O261 2.114 1_565 S
Mg252 O262 2.251 1_565 S
Mg252 O265 2.010 . S
O253 Mg252 2.028 1_545 S
O253 C256 1.250 . S
O254 Mg255 2.028 . S
O254 C256 1.248 . S
Mg255 O254 2.028 . S
Mg255 O260 2.032 1_545 S
Mg255 O262 2.079 . S
C256 O253 1.250 . S
C256 O254 1.248 . S
C257 O258 1.264 . S
C257 O265 1.249 . S
O258 C257 1.264 . S
O259 Mg252 1.986 . S
O259 C263 1.246 . S
O260 Mg255 2.032 1_565 S
O260 C263 1.259 . S
O261 Mg252 2.114 1_545 S
O261 C264 1.252 . S
O262 Mg252 2.251 1_545 S
O262 Mg255 2.079 . S
O262 C264 1.273 . S
C263 O259 1.246 . S
C263 O260 1.259 . S
C264 O261 1.252 . S
C264 O262 1.273 . S
O265 Mg252 2.010 . S
O265 C257 1.249 . S
Mg266 O267 2.028 1_554 S
Mg266 O273 1.986 . S
Mg266 O275 2.114 1_554 S
Mg266 O276 2.251 . S
Mg266 O279 2.010 . S
O267 Mg266 2.028 1_556 S
O267 C270 1.250 . S
O268 Mg269 2.028 1_556 S
O268 C270 1.248 . S
Mg269 O268 2.028 1_554 S
Mg269 O274 2.032 . S
Mg269 O276 2.079 . S
C270 O267 1.250 . S
C270 O268 1.248 . S
C271 O272 1.264 1_565 S
C271 O279 1.249 . S
O272 C271 1.264 1_545 S
O273 Mg266 1.986 . S
O273 C277 1.246 . S
O274 Mg269 2.032 . S
O274 C277 1.259 . S
O275 Mg266 2.114 1_556 S
O275 C278 1.251 1_556 S
O276 Mg266 2.251 . S
O276 Mg269 2.079 . S
O276 C278 1.275 . S
C277 O273 1.246 . S
C277 O274 1.259 . S
C278 O275 1.251 1_554 S
C278 O276 1.275 . S
O279 Mg266 2.010 . S
O279 C271 1.249 . S
Mg280 O281 2.028 1_556 S
Mg280 O287 1.986 . S
Mg280 O289 2.114 1_556 S
Mg280 O290 2.251 . S
Mg280 O293 2.010 . S
O281 Mg280 2.028 1_554 S
O281 C284 1.250 . S
O282 Mg283 2.028 . S
O282 C284 1.248 . S
Mg283 O282 2.028 . S
Mg283 O288 2.032 1_554 S
Mg283 O290 2.079 1_554 S
C284 O281 1.250 . S
C284 O282 1.248 . S
C285 O286 1.264 . S
C285 O293 1.249 . S
O286 C285 1.264 . S
O287 Mg280 1.986 . S
O287 C291 1.246 . S
O288 Mg283 2.032 1_556 S
O288 C291 1.259 . S
O289 Mg280 2.114 1_554 S
O289 C292 1.252 . S
O290 Mg280 2.251 . S
O290 Mg283 2.079 1_556 S
O290 C292 1.273 1_556 S
C291 O287 1.246 . S
C291 O288 1.259 . S
C292 O289 1.252 . S
C292 O290 1.273 1_554 S
O293 Mg280 2.010 . S
O293 C285 1.249 . S
Mg294 O295 2.028 . S
Mg294 O301 1.986 . S
Mg294 O303 2.114 . S
Mg294 O304 2.251 . S
Mg294 O307 2.010 . S
O295 Mg294 2.028 . S
O295 C298 1.250 . S
O296 Mg297 2.028 . S
O296 C298 1.248 . S
Mg297 O296 2.028 . S
Mg297 O302 2.032 . S
Mg297 O304 2.079 . S
C298 O295 1.250 . S
C298 O296 1.248 . S
C299 O300 1.264 . S
C299 O307 1.249 . S
O300 C299 1.264 . S
O301 Mg294 1.986 . S
O301 C305 1.246 . S
O302 Mg297 2.032 . S
O302 C305 1.259 . S
O303 Mg294 2.114 . S
O303 C306 1.252 . S
O304 Mg294 2.251 . S
O304 Mg297 2.079 . S
O304 C306 1.273 . S
C305 O301 1.246 . S
C305 O302 1.259 . S
C306 O303 1.252 . S
C306 O304 1.273 . S
O307 Mg294 2.010 . S
O307 C299 1.249 . S
Mg308 O309 2.028 . S
Mg308 O315 1.986 . S
Mg308 O317 2.114 . S
Mg308 O318 2.251 . S
Mg308 O321 2.010 . S
O309 Mg308 2.028 . S
O309 C312 1.250 . S
O310 Mg311 2.028 . S
O310 C312 1.248 . S
Mg311 O310 2.028 . S
Mg311 O316 2.032 . S
Mg311 O318 2.079 . S
C312 O309 1.250 . S
C312 O310 1.248 . S
C313 O314 1.264 . S
C313 O321 1.249 . S
O314 C313 1.264 . S
O315 Mg308 1.986 . S
O315 C319 1.246 . S
O316 Mg311 2.032 . S
O316 C319 1.259 . S
O317 Mg308 2.114 . S
O317 C320 1.252 . S
O318 Mg308 2.251 . S
O318 Mg311 2.079 . S
O318 C320 1.273 . S
C319 O315 1.246 . S
C319 O316 1.259 . S
C320 O317 1.252 . S
C320 O318 1.273 . S
O321 Mg308 2.010 . S
O321 C313 1.249 . S
Mg322 O323 2.028 . S
Mg322 O329 1.986 . S
Mg322 O331 2.114 . S
Mg322 O332 2.251 . S
Mg322 O335 2.010 . S
O323 Mg322 2.028 . S
O323 C326 1.250 . S
O324 Mg325 2.028 . S
O324 C326 1.248 . S
Mg325 O324 2.028 . S
Mg325 O330 2.032 . S
Mg325 O332 2.079 . S
C326 O323 1.250 . S
C326 O324 1.248 . S
C327 O328 1.264 . S
C327 O335 1.249 . S
O328 C327 1.264 . S
O329 Mg322 1.986 . S
O329 C333 1.246 . S
O330 Mg325 2.032 . S
O330 C333 1.259 . S
O331 Mg322 2.114 . S
O331 C334 1.252 . S
O332 Mg322 2.251 . S
O332 Mg325 2.079 . S
O332 C334 1.273 . S
C333 O329 1.246 . S
C333 O330 1.259 . S
C334 O331 1.252 . S
C334 O332 1.273 . S
O335 Mg322 2.010 . S
O335 C327 1.249 . S
O336 Zn337 1.953 1_554 S
O336 C352 1.225 1_455 S
Zn337 O336 1.953 1_556 S
Zn337 O338 1.949 1_556 S
Zn337 O344 1.919 . S
Zn337 O349 1.924 1_455 S
O338 Zn337 1.949 1_554 S
O338 Zn339 1.923 1_545 S
O338 Zn340 1.950 1_455 S
O338 Zn341 1.945 1_444 S
Zn339 O338 1.923 1_565 S
Zn339 O342 1.933 . S
Zn339 O345 1.941 1_565 S
Zn339 O346 1.965 . S
Zn340 O338 1.950 1_655 S
Zn340 O347 1.938 . S
Zn340 O348 1.906 1_545 S
Zn340 O358 1.953 . S
Zn341 O338 1.945 1_666 S
Zn341 O343 1.932 . S
Zn341 O350 1.977 . S
Zn341 O351 1.910 1_565 S
O342 Zn339 1.933 . S
O342 C353 1.226 1_554 S
O343 Zn341 1.932 . S
O343 C353 1.307 1_655 S
O344 Zn337 1.919 . S
O344 C355 1.253 . S
O345 Zn339 1.941 1_545 S
O345 C355 1.283 1_554 S
O346 Zn339 1.965 . S
O346 C354 1.297 1_565 S
O347 Zn340 1.938 . S
O347 C354 1.251 1_655 S
O348 Zn340 1.906 1_565 S
O348 C356 1.304 . S
O349 Zn337 1.924 1_655 S
O349 C357 1.311 . S
O350 Zn341 1.977 . S
O350 C356 1.272 1_556 S
O351 Zn341 1.910 1_545 S
O351 C357 1.231 . S
C352 O336 1.225 1_655 S
C352 O358 1.298 . S
C353 O342 1.226 1_556 S
C353 O343 1.307 1_455 S
C354 O346 1.297 1_545 S
C354 O347 1.251 1_455 S
C355 O344 1.253 . S
C355 O345 1.283 1_556 S
C356 O348 1.304 . S
C356 O350 1.272 1_554 S
C357 O349 1.311 . S
C357 O351 1.231 . S
O358 Zn340 1.953 . S
O358 C352 1.298 . S
O359 Zn360 1.953 . S
O359 C375 1.225 . S
Zn360 O359 1.953 . S
Zn360 O361 1.949 . S
Zn360 O367 1.919 . S
Zn360 O372 1.924 . S
O361 Zn360 1.949 . S
O361 Zn362 1.923 . S
O361 Zn363 1.950 . S
O361 Zn364 1.945 . S
Zn362 O361 1.923 . S
Zn362 O365 1.933 . S
Zn362 O368 1.941 . S
Zn362 O369 1.965 . S
Zn363 O361 1.950 . S
Zn363 O370 1.938 . S
Zn363 O371 1.906 . S
Zn363 O381 1.953 . S
Zn364 O361 1.945 . S
Zn364 O366 1.932 . S
Zn364 O373 1.977 . S
Zn364 O374 1.910 . S
O365 Zn362 1.933 . S
O365 C376 1.226 . S
O366 Zn364 1.932 . S
O366 C376 1.307 . S
O367 Zn360 1.919 . S
O367 C378 1.253 . S
O368 Zn362 1.941 . S
O368 C378 1.283 . S
O369 Zn362 1.965 . S
O369 C377 1.303 . S
O370 Zn363 1.938 . S
O370 C377 1.247 . S
O371 Zn363 1.906 . S
O371 C379 1.304 . S
O372 Zn360 1.924 . S
O372 C380 1.311 . S
O373 Zn364 1.977 . S
O373 C379 1.272 . S
O374 Zn364 1.910 . S
O374 C380 1.231 . S
C375 O359 1.225 . S
C375 O381 1.298 . S
C376 O365 1.226 . S
C376 O366 1.307 . S
C377 O369 1.303 . S
C377 O370 1.247 . S
C378 O367 1.253 . S
C378 O368 1.283 . S
C379 O371 1.304 . S
C379 O373 1.272 . S
C380 O372 1.311 . S
C380 O374 1.231 . S
O381 Zn363 1.953 . S
O381 C375 1.298 . S
O382 Zn383 1.953 . S
O382 C398 1.225 . S
Zn383 O382 1.953 . S
Zn383 O384 1.949 1_565 S
Zn383 O390 1.919 . S
Zn383 O395 1.924 . S
O384 Zn383 1.949 1_545 S
O384 Zn385 1.923 . S
O384 Zn386 1.950 . S
O384 Zn387 1.945 . S
Zn385 O384 1.923 . S
Zn385 O388 1.933 . S
Zn385 O391 1.941 . S
Zn385 O392 1.965 . S
Zn386 O384 1.950 . S
Zn386 O393 1.938 . S
Zn386 O394 1.906 . S
Zn386 O404 1.953 1_545 S
Zn387 O384 1.945 . S
Zn387 O389 1.932 . S
Zn387 O396 1.977 . S
Zn387 O397 1.910 . S
O388 Zn385 1.933 . S
O388 C399 1.226 . S
O389 Zn387 1.932 . S
O389 C399 1.307 . S
O390 Zn383 1.919 . S
O390 C401 1.253 . S
O391 Zn385 1.941 . S
O391 C401 1.283 1_545 S
O392 Zn385 1.965 . S
O392 C400 1.303 . S
O393 Zn386 1.938 . S
O393 C400 1.247 . S
O394 Zn386 1.906 . S
O394 C402 1.304 . S
O395 Zn383 1.924 . S
O395 C403 1.311 . S
O396 Zn387 1.977 . S
O396 C402 1.272 . S
O397 Zn387 1.910 . S
O397 C403 1.231 1_545 S
C398 O382 1.225 . S
C398 O404 1.298 . S
C399 O388 1.226 . S
C399 O389 1.307 . S
C400 O392 1.303 . S
C400 O393 1.247 . S
C401 O390 1.253 . S
C401 O391 1.283 1_565 S
C402 O394 1.304 . S
C402 O396 1.272 . S
C403 O395 1.311 . S
C403 O397 1.231 1_565 S
O404 Zn386 1.953 1_565 S
O404 C398 1.298 . S
O405 Zn406 1.953 . S
O405 C421 1.225 . S
Zn406 O405 1.953 . S
Zn406 O407 1.949 . S
Zn406 O413 1.919 . S
Zn406 O418 1.924 . S
O407 Zn406 1.949 . S
O407 Zn408 1.923 . S
O407 Zn409 1.950 . S
O407 Zn410 1.945 . S
Zn408 O407 1.923 . S
Zn408 O411 1.933 . S
Zn408 O414 1.941 . S
Zn408 O415 1.965 . S
Zn409 O407 1.950 . S
Zn409 O416 1.938 . S
Zn409 O417 1.906 . S
Zn409 O427 1.953 . S
Zn410 O407 1.945 . S
Zn410 O412 1.932 . S
Zn410 O419 1.977 . S
Zn410 O420 1.910 . S
O411 Zn408 1.933 . S
O411 C422 1.226 . S
O412 Zn410 1.932 . S
O412 C422 1.307 . S
O413 Zn406 1.919 . S
O413 C424 1.253 . S
O414 Zn408 1.941 . S
O414 C424 1.283 . S
O415 Zn408 1.965 . S
O415 C423 1.303 . S
O416 Zn409 1.938 . S
O416 C423 1.247 . S
O417 Zn409 1.906 . S
O417 C425 1.304 . S
O418 Zn406 1.924 . S
O418 C426 1.311 . S
O419 Zn410 1.977 . S
O419 C425 1.272 . S
O420 Zn410 1.910 . S
O420 C426 1.231 . S
C421 O405 1.225 . S
C421 O427 1.298 . S
C422 O411 1.226 . S
C422 O412 1.307 . S
C423 O415 1.303 . S
C423 O416 1.247 . S
C424 O413 1.253 . S
C424 O414 1.283 . S
C425 O417 1.304 . S
C425 O419 1.272 . S
C426 O418 1.311 . S
C426 O420 1.231 . S
O427 Zn409 1.953 . S
O427 C421 1.298 . S
O428 Zn429 1.953 1_445 S
O428 C444 1.225 . S
Zn429 O428 1.953 1_665 S
Zn429 O430 1.949 1_665 S
Zn429 O436 1.919 . S
Zn429 O441 1.924 1_565 S
O430 Zn429 1.949 1_445 S
O430 Zn431 1.923 1_545 S
O430 Zn432 1.950 . S
O430 Zn433 1.945 1_455 S
Zn431 O430 1.923 1_565 S
Zn431 O434 1.933 . S
Zn431 O437 1.941 . S
Zn431 O438 1.965 . S
Zn432 O430 1.950 . S
Zn432 O439 1.938 . S
Zn432 O440 1.906 . S
Zn432 O450 1.953 . S
Zn433 O430 1.945 1_655 S
Zn433 O435 1.932 . S
Zn433 O442 1.977 . S
Zn433 O443 1.910 . S
O434 Zn431 1.933 . S
O434 C445 1.226 1_455 S
O435 Zn433 1.932 . S
O435 C445 1.307 1_545 S
O436 Zn429 1.919 . S
O436 C447 1.253 . S
O437 Zn431 1.941 . S
O437 C447 1.283 1_455 S
O438 Zn431 1.965 . S
O438 C446 1.303 . S
O439 Zn432 1.938 . S
O439 C446 1.247 1_545 S
O440 Zn432 1.906 . S
O440 C448 1.304 . S
O441 Zn429 1.924 1_545 S
O441 C449 1.311 . S
O442 Zn433 1.977 . S
O442 C448 1.272 1_655 S
O443 Zn433 1.910 . S
O443 C449 1.231 . S
C444 O428 1.225 . S
C444 O450 1.298 . S
C445 O434 1.226 1_655 S
C445 O435 1.307 1_565 S
C446 O438 1.303 . S
C446 O439 1.247 1_565 S
C447 O436 1.253 . S
C447 O437 1.283 1_655 S
C448 O440 1.304 . S
C448 O442 1.272 1_455 S
C449 O441 1.311 . S
C449 O443 1.231 . S
O450 Zn432 1.953 . S
O450 C444 1.298 . S
O451 Zn452 1.953 . S
O451 C467 1.225 . S
Zn452 O451 1.953 . S
Zn452 O453 1.949 . S
Zn452 O459 1.919 . S
Zn452 O464 1.924 . S
O453 Zn452 1.949 . S
O453 Zn454 1.923 . S
O453 Zn455 1.950 . S
O453 Zn456 1.945 . S
Zn454 O453 1.923 . S
Zn454 O457 1.933 . S
Zn454 O460 1.941 . S
Zn454 O461 1.965 . S
Zn455 O453 1.950 . S
Zn455 O462 1.938 . S
Zn455 O463 1.906 . S
Zn455 O473 1.953 . S
Zn456 O453 1.945 . S
Zn456 O458 1.932 . S
Zn456 O465 1.977 . S
Zn456 O466 1.910 . S
O457 Zn454 1.933 . S
O457 C468 1.226 . S
O458 Zn456 1.932 . S
O458 C468 1.307 . S
O459 Zn452 1.919 . S
O459 C470 1.253 . S
O460 Zn454 1.941 . S
O460 C470 1.283 . S
O461 Zn454 1.965 . S
O461 C469 1.303 . S
O462 Zn455 1.938 . S
O462 C469 1.247 . S
O463 Zn455 1.906 . S
O463 C471 1.304 . S
O464 Zn452 1.924 . S
O464 C472 1.311 . S
O465 Zn456 1.977 . S
O465 C471 1.272 . S
O466 Zn456 1.910 . S
O466 C472 1.231 . S
C467 O451 1.225 . S
C467 O473 1.298 . S
C468 O457 1.226 . S
C468 O458 1.307 . S
C469 O461 1.303 . S
C469 O462 1.247 . S
C470 O459 1.253 . S
C470 O460 1.283 . S
C471 O463 1.304 . S
C471 O465 1.272 . S
C472 O464 1.311 . S
C472 O466 1.231 . S
O473 Zn455 1.953 . S
O473 C467 1.298 . S
O474 Zn475 1.953 . S
O474 C490 1.225 . S
Zn475 O474 1.953 . S
Zn475 O476 1.949 . S
Zn475 O482 1.919 1_544 S
Zn475 O487 1.924 . S
O476 Zn475 1.949 . S
O476 Zn477 1.923 1_544 S
O476 Zn478 1.950 . S
O476 Zn479 1.945 1_554 S
Zn477 O476 1.923 1_566 S
Zn477 O480 1.933 . S
Zn477 O483 1.941 . S
Zn477 O484 1.965 1_556 S
Zn478 O476 1.950 . S
Zn478 O485 1.938 1_545 S
Zn478 O486 1.906 . S
Zn478 O496 1.953 . S
Zn479 O476 1.945 1_556 S
Zn479 O481 1.932 . S
Zn479 O488 1.977 1_556 S
Zn479 O489 1.910 . S
O480 Zn477 1.933 . S
O480 C491 1.226 . S
O481 Zn479 1.932 . S
O481 C491 1.307 1_545 S
O482 Zn475 1.919 1_566 S
O482 C493 1.253 . S
O483 Zn477 1.941 . S
O483 C493 1.283 . S
O484 Zn477 1.965 1_554 S
O484 C492 1.303 . S
O485 Zn478 1.938 1_565 S
O485 C492 1.247 . S
O486 Zn478 1.906 . S
O486 C494 1.304 . S
O487 Zn475 1.924 . S
O487 C495 1.311 1_554 S
O488 Zn479 1.977 1_554 S
O488 C494 1.272 . S
O489 Zn479 1.910 . S
O489 C495 1.231 . S
C490 O474 1.225 . S
C490 O496 1.298 . S
C491 O480 1.226 . S
C491 O481 1.307 1_565 S
C492 O484 1.303 . S
C492 O485 1.247 . S
C493 O482 1.253 . S
C493 O483 1.283 . S
C494 O486 1.304 . S
C494 O488 1.272 . S
C495 O487 1.311 1_556 S
C495 O489 1.231 . S
O496 Zn478 1.953 . S
O496 C490 1.298 . S
O497 Zn498 1.953 . S
O497 C513 1.225 . S
Zn498 O497 1.953 . S
Zn498 O499 1.949 . S
Zn498 O505 1.919 . S
Zn498 O510 1.924 . S
O499 Zn498 1.949 . S
O499 Zn500 1.923 . S
O499 Zn501 1.950 . S
O499 Zn502 1.945 . S
Zn500 O499 1.923 . S
Zn500 O503 1.933 . S
Zn500 O506 1.941 . S
Zn500 O507 1.965 . S
Zn501 O499 1.950 . S
Zn501 O508 1.938 . S
Zn501 O509 1.906 . S
Zn501 O519 1.953 . S
Zn502 O499 1.945 . S
Zn502 O504 1.932 . S
Zn502 O511 1.977 . S
Zn502 O512 1.910 . S
O503 Zn500 1.933 . S
O503 C514 1.226 . S
O504 Zn502 1.932 . S
O504 C514 1.307 . S
O505 Zn498 1.919 . S
O505 C516 1.253 . S
O506 Zn500 1.941 . S
O506 C516 1.283 . S
O507 Zn500 1.965 . S
O507 C515 1.303 . S
O508 Zn501 1.938 . S
O508 C515 1.247 . S
O509 Zn501 1.906 . S
O509 C517 1.304 . S
O510 Zn498 1.924 . S
O510 C518 1.311 . S
O511 Zn502 1.977 . S
O511 C517 1.272 . S
O512 Zn502 1.910 . S
O512 C518 1.231 . S
C513 O497 1.225 . S
C513 O519 1.298 . S
C514 O503 1.226 . S
C514 O504 1.307 . S
C515 O507 1.303 . S
C515 O508 1.247 . S
C516 O505 1.253 . S
C516 O506 1.283 . S
C517 O509 1.304 . S
C517 O511 1.272 . S
C518 O510 1.311 . S
C518 O512 1.231 . S
O519 Zn501 1.953 . S
O519 C513 1.298 . S
O520 Zn521 1.953 . S
O520 C536 1.225 . S
Zn521 O520 1.953 . S
Zn521 O522 1.949 1_556 S
Zn521 O528 1.919 . S
Zn521 O533 1.924 . S
O522 Zn521 1.949 1_554 S
O522 Zn523 1.923 . S
O522 Zn524 1.950 . S
O522 Zn525 1.945 . S
Zn523 O522 1.923 . S
Zn523 O526 1.933 . S
Zn523 O529 1.941 . S
Zn523 O530 1.965 . S
Zn524 O522 1.950 . S
Zn524 O531 1.938 . S
Zn524 O532 1.906 . S
Zn524 O542 1.953 1_554 S
Zn525 O522 1.945 . S
Zn525 O527 1.932 . S
Zn525 O534 1.977 . S
Zn525 O535 1.910 . S
O526 Zn523 1.933 . S
O526 C537 1.226 . S
O527 Zn525 1.932 . S
O527 C537 1.307 . S
O528 Zn521 1.919 . S
O528 C539 1.253 . S
O529 Zn523 1.941 . S
O529 C539 1.283 1_554 S
O530 Zn523 1.965 . S
O530 C538 1.303 . S
O531 Zn524 1.938 . S
O531 C538 1.247 . S
O532 Zn524 1.906 . S
O532 C540 1.304 . S
O533 Zn521 1.924 . S
O533 C541 1.311 . S
O534 Zn525 1.977 . S
O534 C540 1.272 . S
O535 Zn525 1.910 . S
O535 C541 1.231 1_554 S
C536 O520 1.225 . S
C536 O542 1.298 . S
C537 O526 1.226 . S
C537 O527 1.307 . S
C538 O530 1.303 . S
C538 O531 1.247 . S
C539 O528 1.253 . S
C539 O529 1.283 1_556 S
C540 O532 1.304 . S
C540 O534 1.272 . S
C541 O533 1.311 . S
C541 O535 1.231 1_556 S
O542 Zn524 1.953 1_556 S
O542 C536 1.298 . S
O543 Zn544 1.953 . S
O543 C559 1.225 . S
Zn544 O543 1.953 . S
Zn544 O545 1.949 . S
Zn544 O551 1.919 . S
Zn544 O556 1.924 . S
O545 Zn544 1.949 . S
O545 Zn546 1.923 . S
O545 Zn547 1.950 . S
O545 Zn548 1.945 . S
Zn546 O545 1.923 . S
Zn546 O549 1.933 . S
Zn546 O552 1.941 . S
Zn546 O553 1.965 . S
Zn547 O545 1.950 . S
Zn547 O554 1.938 . S
Zn547 O555 1.906 . S
Zn547 O565 1.953 . S
Zn548 O545 1.945 . S
Zn548 O550 1.932 . S
Zn548 O557 1.977 . S
Zn548 O558 1.910 . S
O549 Zn546 1.933 . S
O549 C560 1.226 . S
O550 Zn548 1.932 . S
O550 C560 1.307 . S
O551 Zn544 1.919 . S
O551 C562 1.253 . S
O552 Zn546 1.941 . S
O552 C562 1.283 . S
O553 Zn546 1.965 . S
O553 C561 1.303 . S
O554 Zn547 1.938 . S
O554 C561 1.247 . S
O555 Zn547 1.906 . S
O555 C563 1.304 . S
O556 Zn544 1.924 . S
O556 C564 1.311 . S
O557 Zn548 1.977 . S
O557 C563 1.272 . S
O558 Zn548 1.910 . S
O558 C564 1.231 . S
C559 O543 1.225 . S
C559 O565 1.298 . S
C560 O549 1.226 . S
C560 O550 1.307 . S
C561 O553 1.303 . S
C561 O554 1.247 . S
C562 O551 1.253 . S
C562 O552 1.283 . S
C563 O555 1.304 . S
C563 O557 1.272 . S
C564 O556 1.311 . S
C564 O558 1.231 . S
O565 Zn547 1.953 . S
O565 C559 1.298 . S
O566 Zn567 1.953 . S
O566 C582 1.225 . S
Zn567 O566 1.953 . S
Zn567 O568 1.949 . S
Zn567 O574 1.919 . S
Zn567 O579 1.924 . S
O568 Zn567 1.949 . S
O568 Zn569 1.923 . S
O568 Zn570 1.950 1_455 S
O568 Zn571 1.945 1_455 S
Zn569 O568 1.923 . S
Zn569 O572 1.933 1_455 S
Zn569 O575 1.941 . S
Zn569 O576 1.965 1_455 S
Zn570 O568 1.950 1_655 S
Zn570 O577 1.938 . S
Zn570 O578 1.906 . S
Zn570 O588 1.953 1_655 S
Zn571 O568 1.945 1_655 S
Zn571 O573 1.932 . S
Zn571 O580 1.977 . S
Zn571 O581 1.910 1_655 S
O572 Zn569 1.933 1_655 S
O572 C583 1.226 . S
O573 Zn571 1.932 . S
O573 C583 1.307 . S
O574 Zn567 1.919 . S
O574 C585 1.253 . S
O575 Zn569 1.941 . S
O575 C585 1.283 . S
O576 Zn569 1.965 1_655 S
O576 C584 1.303 . S
O577 Zn570 1.938 . S
O577 C584 1.247 . S
O578 Zn570 1.906 . S
O578 C586 1.304 . S
O579 Zn567 1.924 . S
O579 C587 1.311 . S
O580 Zn571 1.977 . S
O580 C586 1.272 . S
O581 Zn571 1.910 1_455 S
O581 C587 1.231 . S
C582 O566 1.225 . S
C582 O588 1.298 . S
C583 O572 1.226 . S
C583 O573 1.307 . S
C584 O576 1.303 . S
C584 O577 1.247 . S
C585 O574 1.253 . S
C585 O575 1.283 . S
C586 O578 1.304 . S
C586 O580 1.272 . S
C587 O579 1.311 . S
C587 O581 1.231 . S
O588 Zn570 1.953 1_455 S
O588 C582 1.298 . S
O589 Zn590 1.953 . S
O589 C605 1.225 . S
Zn590 O589 1.953 . S
Zn590 O591 1.949 . S
Zn590 O597 1.919 . S
Zn590 O602 1.924 . S
O591 Zn590 1.949 . S
O591 Zn592 1.923 . S
O591 Zn593 1.950 . S
O591 Zn594 1.945 . S
Zn592 O591 1.923 . S
Zn592 O595 1.933 . S
Zn592 O598 1.941 . S
Zn592 O599 1.965 . S
Zn593 O591 1.950 . S
Zn593 O600 1.938 . S
Zn593 O601 1.906 . S
Zn593 O611 1.953 . S
Zn594 O591 1.945 . S
Zn594 O596 1.932 . S
Zn594 O603 1.977 . S
Zn594 O604 1.910 . S
O595 Zn592 1.933 . S
O595 C606 1.226 . S
O596 Zn594 1.932 . S
O596 C606 1.307 . S
O597 Zn590 1.919 . S
O597 C608 1.253 . S
O598 Zn592 1.941 . S
O598 C608 1.283 . S
O599 Zn592 1.965 . S
O599 C607 1.303 . S
O600 Zn593 1.938 . S
O600 C607 1.247 . S
O601 Zn593 1.906 . S
O601 C609 1.304 . S
O602 Zn590 1.924 . S
O602 C610 1.311 . S
O603 Zn594 1.977 . S
O603 C609 1.272 . S
O604 Zn594 1.910 . S
O604 C610 1.231 . S
C605 O589 1.225 . S
C605 O611 1.298 . S
C606 O595 1.226 . S
C606 O596 1.307 . S
C607 O599 1.303 . S
C607 O600 1.247 . S
C608 O597 1.253 . S
C608 O598 1.283 . S
C609 O601 1.304 . S
C609 O603 1.272 . S
C610 O602 1.311 . S
C610 O604 1.231 . S
O611 Zn593 1.953 . S
O611 C605 1.298 . S
O612 Zn613 1.953 . S
O612 C628 1.225 . S
Zn613 O612 1.953 . S
Zn613 O614 1.949 . S
Zn613 O620 1.919 . S
Zn613 O625 1.924 . S
O614 Zn613 1.949 . S
O614 Zn615 1.923 . S
O614 Zn616 1.950 . S
O614 Zn617 1.945 . S
Zn615 O614 1.923 . S
Zn615 O618 1.933 . S
Zn615 O621 1.941 . S
Zn615 O622 1.965 . S
Zn616 O614 1.950 . S
Zn616 O623 1.938 . S
Zn616 O624 1.906 . S
Zn616 O634 1.953 . S
Zn617 O614 1.945 . S
Zn617 O619 1.932 . S
Zn617 O626 1.977 . S
Zn617 O627 1.910 . S
O618 Zn615 1.933 . S
O618 C629 1.226 . S
O619 Zn617 1.932 . S
O619 C629 1.307 . S
O620 Zn613 1.919 . S
O620 C631 1.253 . S
O621 Zn615 1.941 . S
O621 C631 1.283 . S
O622 Zn615 1.965 . S
O622 C630 1.303 . S
O623 Zn616 1.938 . S
O623 C630 1.247 . S
O624 Zn616 1.906 . S
O624 C632 1.304 . S
O625 Zn613 1.924 . S
O625 C633 1.311 . S
O626 Zn617 1.977 . S
O626 C632 1.272 . S
O627 Zn617 1.910 . S
O627 C633 1.231 . S
C628 O612 1.225 . S
C628 O634 1.298 . S
C629 O618 1.226 . S
C629 O619 1.307 . S
C630 O622 1.303 . S
C630 O623 1.247 . S
C631 O620 1.253 . S
C631 O621 1.283 . S
C632 O624 1.304 . S
C632 O626 1.272 . S
C633 O625 1.311 . S
C633 O627 1.231 . S
O634 Zn616 1.953 . S
O634 C628 1.298 . S
O635 Zn636 1.953 . S
O635 C651 1.225 . S
Zn636 O635 1.953 . S
Zn636 O637 1.949 . S
Zn636 O643 1.919 . S
Zn636 O648 1.924 . S
O637 Zn636 1.949 . S
O637 Zn638 1.923 . S
O637 Zn639 1.950 . S
O637 Zn640 1.945 . S
Zn638 O637 1.923 . S
Zn638 O641 1.933 . S
Zn638 O644 1.941 . S
Zn638 O645 1.965 . S
Zn639 O637 1.950 . S
Zn639 O646 1.938 . S
Zn639 O647 1.906 . S
Zn639 O657 1.953 . S
Zn640 O637 1.945 . S
Zn640 O642 1.932 . S
Zn640 O649 1.977 . S
Zn640 O650 1.910 . S
O641 Zn638 1.933 . S
O641 C652 1.226 . S
O642 Zn640 1.932 . S
O642 C652 1.307 . S
O643 Zn636 1.919 . S
O643 C654 1.253 . S
O644 Zn638 1.941 . S
O644 C654 1.283 . S
O645 Zn638 1.965 . S
O645 C653 1.303 . S
O646 Zn639 1.938 . S
O646 C653 1.247 . S
O647 Zn639 1.906 . S
O647 C655 1.304 . S
O648 Zn636 1.924 . S
O648 C656 1.311 . S
O649 Zn640 1.977 . S
O649 C655 1.272 . S
O650 Zn640 1.910 . S
O650 C656 1.231 . S
C651 O635 1.225 . S
C651 O657 1.298 . S
C652 O641 1.226 . S
C652 O642 1.307 . S
C653 O645 1.303 . S
C653 O646 1.247 . S
C654 O643 1.253 . S
C654 O644 1.283 . S
C655 O647 1.304 . S
C655 O649 1.272 . S
C656 O648 1.311 . S
C656 O650 1.231 . S
O657 Zn639 1.953 . S
O657 C651 1.298 . S
O658 Zn659 1.953 . S
O658 C674 1.225 . S
Zn659 O658 1.953 . S
Zn659 O660 1.949 . S
Zn659 O666 1.919 . S
Zn659 O671 1.924 . S
O660 Zn659 1.949 . S
O660 Zn661 1.923 . S
O660 Zn662 1.950 . S
O660 Zn663 1.945 . S
Zn661 O660 1.923 . S
Zn661 O664 1.933 . S
Zn661 O667 1.941 . S
Zn661 O668 1.965 . S
Zn662 O660 1.950 . S
Zn662 O669 1.938 . S
Zn662 O670 1.906 . S
Zn662 O680 1.953 . S
Zn663 O660 1.945 . S
Zn663 O665 1.932 . S
Zn663 O672 1.977 . S
Zn663 O673 1.910 . S
O664 Zn661 1.933 . S
O664 C675 1.226 . S
O665 Zn663 1.932 . S
O665 C675 1.307 . S
O666 Zn659 1.919 . S
O666 C677 1.253 . S
O667 Zn661 1.941 . S
O667 C677 1.283 . S
O668 Zn661 1.965 . S
O668 C676 1.303 . S
O669 Zn662 1.938 . S
O669 C676 1.247 . S
O670 Zn662 1.906 . S
O670 C678 1.304 . S
O671 Zn659 1.924 . S
O671 C679 1.311 . S
O672 Zn663 1.977 . S
O672 C678 1.272 . S
O673 Zn663 1.910 . S
O673 C679 1.231 . S
C674 O658 1.225 . S
C674 O680 1.298 . S
C675 O664 1.226 . S
C675 O665 1.307 . S
C676 O668 1.303 . S
C676 O669 1.247 . S
C677 O666 1.253 . S
C677 O667 1.283 . S
C678 O670 1.304 . S
C678 O672 1.272 . S
C679 O671 1.311 . S
C679 O673 1.231 . S
O680 Zn662 1.953 . S
O680 C674 1.298 . S
O681 Zn682 1.953 1_454 S
O681 C697 1.225 . S
Zn682 O681 1.953 1_656 S
Zn682 O683 1.949 1_656 S
Zn682 O689 1.919 . S
Zn682 O694 1.924 1_655 S
O683 Zn682 1.949 1_454 S
O683 Zn684 1.923 1_455 S
O683 Zn685 1.950 . S
O683 Zn686 1.945 1_554 S
Zn684 O683 1.923 1_655 S
Zn684 O687 1.933 . S
Zn684 O690 1.941 . S
Zn684 O691 1.965 . S
Zn685 O683 1.950 . S
Zn685 O692 1.938 . S
Zn685 O693 1.906 . S
Zn685 O703 1.953 . S
Zn686 O683 1.945 1_556 S
Zn686 O688 1.932 . S
Zn686 O695 1.982 . S
Zn686 O696 1.910 . S
O687 Zn684 1.933 . S
O687 C698 1.226 1_554 S
O688 Zn686 1.932 . S
O688 C698 1.307 1_455 S
O689 Zn682 1.919 . S
O689 C700 1.253 . S
O690 Zn684 1.941 . S
O690 C700 1.283 1_554 S
O691 Zn684 1.965 . S
O691 C699 1.303 . S
O692 Zn685 1.938 . S
O692 C699 1.247 1_455 S
O693 Zn685 1.906 . S
O693 C701 1.304 . S
O694 Zn682 1.924 1_455 S
O694 C702 1.311 . S
O695 Zn686 1.982 . S
O695 C701 1.258 1_556 S
O696 Zn686 1.910 . S
O696 C702 1.231 . S
C697 O681 1.225 . S
C697 O703 1.298 . S
C698 O687 1.226 1_556 S
C698 O688 1.307 1_655 S
C699 O691 1.303 . S
C699 O692 1.247 1_655 S
C700 O689 1.253 . S
C700 O690 1.283 1_556 S
C701 O693 1.304 . S
C701 O695 1.258 1_554 S
C702 O694 1.311 . S
C702 O696 1.231 . S
O703 Zn685 1.953 . S
O703 C697 1.298 . S
C352 C4 1.191 1_655 S
C19 C380 1.059 . S
C39 C398 1.480 . S
C424 C54 1.519 . S
C18 C447 1.389 1_455 S
C467 C40 1.312 . S
C495 C53 1.731 . S
C5 C513 0.867 . S
C61 C354 0.917 . S
C74 C376 1.210 . S
C400 C89 0.866 . S
C421 C109 1.403 . S
C68 C444 1.267 . S
C469 C81 1.663 . S
C491 C96 1.242 . S
C515 C102 1.487 . S
C355 C103 0.568 1_556 S
C538 C117 0.833 . S
C130 C562 0.996 . S
C586 C152 1.220 . S
C60 C516 1.081 . S
C401 C82 1.075 . S
C137 C607 1.466 . S
C632 C165 1.272 . S
C172 C353 1.405 . S
C630 C194 1.601 . S
C207 C399 1.115 . S
C215 C609 1.471 . S
C448 C186 1.494 . S
C560 C201 1.355 . S
C492 C221 1.421 . S
C652 C180 1.433 . S
C357 C236 1.453 . S
C242 C628 2.060 . S
C403 C264 1.734 1_565 S
C277 C606 1.745 . S
C229 C445 1.542 1_545 S
C249 C564 1.297 . S
C490 C257 1.727 1_545 S
C270 C656 1.638 . S
C278 C356 1.616 . S
C292 C541 1.746 1_554 S
C298 C471 1.979 . S
C313 C585 1.586 . S
C655 C228 1.736 . S
C402 C243 1.745 . S
C426 C305 1.395 . S
C378 C333 1.240 . S
C32 C674 1.191 . S
C633 C47 1.059 . S
C697 C11 1.480 . S
C26 C608 1.519 . S
C46 C539 1.389 . S
C559 C12 1.313 . S
C587 C25 1.731 . S
C651 C33 0.867 . S
C676 C159 0.914 . S
C116 C629 1.210 . S
C131 C699 0.867 . S
C605 C151 1.404 . S
C536 C166 1.267 . S
C123 C561 1.663 . S
C583 C138 1.240 . S
C144 C653 1.487 . S
C677 C145 0.568 . S
C446 C75 0.833 . S
C470 C88 0.998 . S
C110 C494 1.219 . S
C654 C158 1.081 . S
C124 C700 1.076 1_554 S
C423 C95 1.464 . S
C379 C67 1.272 . S
C200 C675 1.405 . S
C377 C222 1.601 . S
C698 C179 1.116 . S
C187 C425 1.471 . S
C214 C540 1.494 . S
C173 C468 1.356 . S
C193 C584 1.421 1_455 S
C208 C514 1.433 . S
C679 C334 1.453 . S
C284 C375 2.060 . S
C702 C306 1.734 . S
C319 C422 1.746 . S
C327 C537 1.542 . S
C472 C291 1.297 . S
C299 C582 1.727 . S
C518 C312 1.638 . S
C678 C320 1.613 . S
C449 C250 1.746 . S
C256 C563 1.979 . S
C493 C271 1.587 1_556 S
C517 C326 1.736 . S
C285 C701 1.745 1_556 S
C610 C263 1.395 . S
C631 C235 1.240 . S
