# Generated by pormake.
# Topology anh, (6,3)-cn, num edge types: 1
# Building blocks:
#     Node 0, Type 0, BuildingBlock: BETFAJ_clean_sbu_0, # of connection points: 6
#     Node 1, Type 0, BuildingBlock: BETFAJ_clean_sbu_0, # of connection points: 6
#     Node 2, Type 0, BuildingBlock: BETFAJ_clean_sbu_0, # of connection points: 6
#     Node 3, Type 1, BuildingBlock: OLANEW_clean_sbu_2, # of connection points: 3
#     Node 4, Type 1, BuildingBlock: OLANEW_clean_sbu_2, # of connection points: 3
#     Node 5, Type 1, BuildingBlock: OLANEW_clean_sbu_2, # of connection points: 3
#     Node 6, Type 1, BuildingBlock: OLANEW_clean_sbu_2, # of connection points: 3
#     Node 7, Type 1, BuildingBlock: OLANEW_clean_sbu_2, # of connection points: 3
#     Node 8, Type 1, BuildingBlock: OLANEW_clean_sbu_2, # of connection points: 3
#     Edge 9, Type (0, 1), BuildingBlock: AJUNOK_clean_linker_0, # of connection points: 2
#     Edge 10, Type (0, 1), BuildingBlock: AJUNOK_clean_linker_0, # of connection points: 2
#     Edge 11, Type (0, 1), BuildingBlock: AJUNOK_clean_linker_0, # of connection points: 2
#     Edge 12, Type (0, 1), BuildingBlock: AJUNOK_clean_linker_0, # of connection points: 2
#     Edge 13, Type (0, 1), BuildingBlock: AJUNOK_clean_linker_0, # of connection points: 2
#     Edge 14, Type (0, 1), BuildingBlock: AJUNOK_clean_linker_0, # of connection points: 2
#     Edge 15, Type (0, 1), BuildingBlock: AJUNOK_clean_linker_0, # of connection points: 2
#     Edge 16, Type (0, 1), BuildingBlock: AJUNOK_clean_linker_0, # of connection points: 2
#     Edge 17, Type (0, 1), BuildingBlock: AJUNOK_clean_linker_0, # of connection points: 2
#     Edge 18, Type (0, 1), BuildingBlock: AJUNOK_clean_linker_0, # of connection points: 2
#     Edge 19, Type (0, 1), BuildingBlock: AJUNOK_clean_linker_0, # of connection points: 2
#     Edge 20, Type (0, 1), BuildingBlock: AJUNOK_clean_linker_0, # of connection points: 2
#     Edge 21, Type (0, 1), BuildingBlock: AJUNOK_clean_linker_0, # of connection points: 2
#     Edge 22, Type (0, 1), BuildingBlock: AJUNOK_clean_linker_0, # of connection points: 2
#     Edge 23, Type (0, 1), BuildingBlock: AJUNOK_clean_linker_0, # of connection points: 2
#     Edge 24, Type (0, 1), BuildingBlock: AJUNOK_clean_linker_0, # of connection points: 2
#     Edge 25, Type (0, 1), BuildingBlock: AJUNOK_clean_linker_0, # of connection points: 2
#     Edge 26, Type (0, 1), BuildingBlock: AJUNOK_clean_linker_0, # of connection points: 2
# Relax obj value: 0.193
# Max RMSD: 0.193
# Mean RMSD: 0.123
data_MOF--net-anh--node1-BETFAJ_clean_sbu_0--node2-OLANEW_clean_sbu_2--edge1-AJUNOK_clean_linker_0
_symmetry_space_group_name_H-M    P1
_symmetry_Int_Tables_number       1
_symmetry_cell_setting            triclinic
loop_
_symmetry_equiv_pos_as_xyz
'x, y, z'
_cell_length_a     29.004504
_cell_length_b     33.715005
_cell_length_c     37.177412
_cell_angle_alpha  92.757703
_cell_angle_beta   89.656246
_cell_angle_gamma 131.59174
loop_
_atom_site_label
_atom_site_type_symbol
_atom_site_fract_x
_atom_site_fract_y
_atom_site_fract_z
_atom_type_partial_charge
Sm0 Sm 0.08289 0.49008 0.14589 0.0
Sm1 Sm 1.01367 0.53325 0.16585 0.0
C2 C 0.15335 0.47155 0.12215 0.0
C3 C 0.20817 0.48532 0.1392 0.0
C4 C 0.24794 0.4835 0.11926 0.0
C5 C 0.30048 0.49754 0.13607 0.0
C6 C 0.31328 0.51301 0.17303 0.0
C7 C 0.27343 0.51506 0.19275 0.0
C8 C 0.22143 0.50147 0.17596 0.0
C9 C 0.05958 0.49218 0.2173 0.0
C10 C 0.16416 0.61996 0.16201 0.0
C11 C 0.95587 0.5549 0.20491 0.0
C12 C 0.89433 0.53745 0.20614 0.0
C13 C 0.87517 0.54516 0.2383 0.0
C14 C 0.81665 0.52883 0.23997 0.0
C15 C 0.77645 0.50445 0.20946 0.0
C16 C 0.79558 0.49602 0.17739 0.0
C17 C 0.85401 0.51213 0.17581 0.0
C18 C 1.01479 0.51893 0.09182 0.0
C19 C 0.93396 0.40674 0.14502 0.0
O20 O 0.1599 0.51185 0.11254 0.0
O21 O 0.10187 0.43655 0.13857 0.0
O22 O 0.0757 0.5264 0.19542 0.0
O23 O 0.06 0.45688 0.20234 0.0
O24 O 0.16398 0.58137 0.15255 0.0
O25 O 0.11372 0.61139 0.16968 0.0
O26 O 0.95901 0.51938 0.2132 0.0
O27 O 0.98916 0.58224 0.17739 0.0
O28 O 0.03585 0.51033 0.11647 0.0
O29 O 0.98842 0.53516 0.10624 0.0
O30 O 0.93804 0.44263 0.16487 0.0
O31 O 0.98202 0.41813 0.12878 0.0
H32 H 0.23851 0.47149 0.0908 0.0
H33 H 0.33094 0.49609 0.12032 0.0
H34 H 0.2831 0.52807 0.22105 0.0
H35 H 0.19161 0.50382 0.19165 0.0
H36 H 0.90566 0.56415 0.26205 0.0
H37 H 0.80302 0.53575 0.265 0.0
H38 H 0.76615 0.47845 0.15323 0.0
H39 H 0.86804 0.50549 0.15083 0.0
Sm40 Sm 0.57821 0.00327 0.47414 0.0
Sm41 Sm 0.49921 0.03656 0.46642 0.0
C42 C 0.62466 0.95856 0.48555 0.0
C43 C 0.6084 0.9126 0.50282 0.0
C44 C 0.55396 0.87874 0.52183 0.0
C45 C 0.53792 0.83377 0.53666 0.0
C46 C 0.5761 0.82202 0.5326 0.0
C47 C 0.63059 0.85619 0.51353 0.0
C48 C 0.64661 0.90113 0.49882 0.0
C49 C 0.57285 0.03024 0.40649 0.0
C50 C 0.42616 0.91146 0.46749 0.0
C51 C 0.45248 0.07673 0.44324 0.0
C52 C 0.45525 0.12043 0.45649 0.0
C53 C 0.47947 0.16286 0.4346 0.0
C54 C 0.48722 0.20667 0.44763 0.0
C55 C 0.47023 0.20865 0.4827 0.0
C56 C 0.44503 0.16581 0.50441 0.0
C57 C 0.43778 0.1222 0.4915 0.0
C58 C 0.51364 0.02912 0.5389 0.0
C59 C 0.65087 0.12832 0.48196 0.0
O60 O 0.63694 -0.00307 0.50673 0.0
O61 O 0.59134 0.94762 0.45685 0.0
O62 O 0.52807 0.00345 0.42725 0.0
O63 O 0.62145 0.04198 0.42088 0.0
O64 O 0.47773 0.92588 0.48118 0.0
O65 O 0.4241 0.94637 0.455 0.0
O66 O 0.50451 0.09137 0.43202 0.0
O67 O 0.42102 0.03412 0.46186 0.0
O68 O 0.5348 0.02178 0.5124 0.0
O69 O 0.48339 0.04204 0.52721 0.0
O70 O 0.60012 0.11553 0.46848 0.0
O71 O 0.65281 0.09198 0.49103 0.0
H72 H 0.52371 0.88686 0.52493 0.0
H73 H 0.49514 0.80769 0.55069 0.0
H74 H 0.66097 0.84823 0.51013 0.0
H75 H 0.68864 0.92674 0.48403 0.0
H76 H 0.49355 0.16258 0.4076 0.0
H77 H 0.50672 0.23917 0.43035 0.0
H78 H 0.43251 0.16672 0.53175 0.0
H79 H 0.41968 0.09047 0.50924 0.0
Sm80 Sm 0.58371 0.55728 0.86573 0.0
Sm81 Sm 0.49493 0.44504 0.88535 0.0
C82 C 0.63904 0.64656 0.83331 0.0
C83 C 0.62406 0.67906 0.82413 0.0
C84 C 0.62108 0.68703 0.78781 0.0
C85 C 0.60368 0.71516 0.77826 0.0
C86 C 0.5897 0.73637 0.80492 0.0
C87 C 0.59352 0.7291 0.84131 0.0
C88 C 0.61036 0.70054 0.85086 0.0
C89 C 0.57647 0.54679 0.93889 0.0
C90 C 0.43817 0.4996 0.87881 0.0
C91 C 0.43522 0.34871 0.90728 0.0
C92 C 0.43345 0.30578 0.89321 0.0
C93 C 0.4745 0.30107 0.90718 0.0
C94 C 0.47866 0.26543 0.89062 0.0
C95 C 0.44154 0.23358 0.85995 0.0
C96 C 0.39872 0.23662 0.84693 0.0
C97 C 0.39444 0.27208 0.86347 0.0
C98 C 0.50497 0.4578 0.81233 0.0
C99 C 0.64381 0.50678 0.88062 0.0
O100 O 0.60651 0.60009 0.81592 0.0
O101 O 0.64884 0.64534 0.86739 0.0
O102 O 0.53102 0.51977 0.91679 0.0
O103 O 0.62757 0.58225 0.92285 0.0
O104 O 0.48842 0.53474 0.8607 0.0
O105 O 0.43355 0.4644 0.89693 0.0
O106 O 0.48737 0.39119 0.92247 0.0
O107 O 0.40984 0.36022 0.88642 0.0
O108 O 0.54911 0.48262 0.83507 0.0
O109 O 0.45301 0.4238 0.82763 0.0
O110 O 0.58993 0.4682 0.8944 0.0
O111 O 0.65176 0.54416 0.86342 0.0
H112 H 0.63136 0.6708 0.76675 0.0
H113 H 0.60107 0.72033 0.75003 0.0
H114 H 0.58187 0.74429 0.8623 0.0
H115 H 0.61163 0.6946 0.87909 0.0
H116 H 0.50491 0.3262 0.93016 0.0
H117 H 0.51245 0.26417 0.90102 0.0
H118 H 0.36913 0.21207 0.82355 0.0
H119 H 0.36184 0.27419 0.85215 0.0
O120 O 0.58162 0.08983 0.24268 0.0
Cd121 Cd 0.58492 0.09862 0.17745 0.0
O122 O 0.54666 0.01019 0.22864 0.0
Cd123 Cd 0.50357 0.92834 0.23685 0.0
O124 O 0.42829 0.84438 0.22127 0.0
C125 C 0.39095 0.83621 0.19759 0.0
O126 O 0.40204 0.87748 0.18498 0.0
C127 C 0.56268 0.0458 0.25266 0.0
C128 C 0.6965 0.19507 0.15826 0.0
O129 O 0.64996 0.19036 0.16588 0.0
O130 O 0.69007 0.1537 0.15942 0.0
O131 O 0.55259 0.4897 0.63893 0.0
Cd132 Cd 0.54903 0.49002 0.57315 0.0
O133 O 0.49341 0.50842 0.64836 0.0
Cd134 Cd 0.50234 0.53972 0.59615 0.0
O135 O 0.51887 0.60481 0.5698 0.0
C136 C 0.51687 0.63515 0.59006 0.0
O137 O 0.50443 0.62467 0.62411 0.0
C138 C 0.52204 0.49485 0.6601 0.0
C139 C 0.52051 0.39809 0.54193 0.0
O140 O 0.57659 0.44159 0.54712 0.0
O141 O 0.47797 0.39828 0.55101 0.0
O142 O 0.09068 0.49853 0.93161 0.0
Cd143 Cd 0.1267 0.48531 0.87512 0.0
O144 O 1.01465 0.49439 0.91424 0.0
Cd145 Cd 0.93831 0.49583 0.91622 0.0
O146 O 0.85583 0.48857 0.91191 0.0
C147 C 0.85729 0.52219 0.89618 0.0
O148 O 0.90944 0.56281 0.88257 0.0
C149 C 0.04896 0.50024 0.93943 0.0
C150 C 0.23147 0.49445 0.88006 0.0
O151 O 0.23695 0.53433 0.87333 0.0
O152 O 0.17701 0.45074 0.8856 0.0
O153 O 0.07071 0.55282 0.3894 0.0
Cd154 Cd 0.08805 0.58119 0.45332 0.0
O155 O 1.01306 0.46567 0.38922 0.0
Cd156 Cd 0.99139 0.44566 0.44552 0.0
O157 O 0.92219 0.37054 0.47139 0.0
C158 C 0.86712 0.35199 0.47066 0.0
O159 O 0.85662 0.38114 0.4579 0.0
C160 C 0.0424 0.50807 0.37245 0.0
C161 C 0.1983 0.68801 0.46127 0.0
O162 O 0.19783 0.64992 0.46338 0.0
O163 O 0.14632 0.67561 0.45615 0.0
O164 O 0.48085 0.92166 0.68786 0.0
Cd165 Cd 0.44953 0.8838 0.74672 0.0
O166 O 0.47703 0.9799 0.71132 0.0
Cd167 Cd 0.48277 0.04789 0.71697 0.0
O168 O 0.47693 0.10256 0.74546 0.0
C169 C 0.46987 0.09868 0.77929 0.0
O170 O 0.46733 0.06302 0.79466 0.0
C171 C 0.48643 0.9619 0.68419 0.0
C172 C 0.49902 0.83928 0.76495 0.0
O173 O 0.44784 0.81204 0.74682 0.0
O174 O 0.52697 0.88783 0.77419 0.0
O175 O 0.49513 0.50293 0.1063 0.0
Cd176 Cd 0.47196 0.48179 0.16958 0.0
O177 O 0.58469 0.58492 0.11447 0.0
Cd178 Cd 0.58095 0.59382 0.17246 0.0
O179 O 0.58431 0.60673 0.231 0.0
C180 C 0.53735 0.59181 0.24792 0.0
O181 O 0.54078 0.5972 0.28328 0.0
C182 C 0.54371 0.54492 0.09356 0.0
C183 C 0.55748 0.476 0.19503 0.0
O184 O 0.56458 0.51745 0.20101 0.0
O185 O 0.50759 0.43546 0.17857 0.0
C186 C 0.42762 0.56985 0.17718 0.0
C187 C 0.36945 0.52934 0.19099 0.0
C188 C 0.48178 0.58954 0.19561 0.0
C189 C 0.47961 0.56884 0.22818 0.0
H190 H 0.43135 0.58782 0.15266 0.0
H191 H 0.52562 0.62256 0.18491 0.0
S192 S 0.33846 0.45966 0.27415 0.0
N193 N 0.31253 0.46737 0.23817 0.0
N194 N 0.41445 0.50403 0.27264 0.0
C195 C 0.42167 0.5275 0.24183 0.0
C196 C 0.36655 0.50768 0.22319 0.0
C197 C 0.70229 0.22386 0.48064 0.0
C198 C 0.70767 0.18568 0.48445 0.0
C199 C 0.75426 0.27767 0.47803 0.0
C200 C 0.81423 0.29603 0.47907 0.0
H201 H 0.65733 0.21205 0.47863 0.0
H202 H 0.74698 0.30479 0.47401 0.0
S203 S 0.85446 0.21344 0.49229 0.0
N204 N 0.77833 0.17076 0.4919 0.0
N205 N 0.87626 0.27212 0.48704 0.0
C206 C 0.82069 0.25887 0.4849 0.0
C207 C 0.76743 0.20374 0.48758 0.0
C208 C 0.51919 0.73932 0.76964 0.0
C209 C 0.56877 0.7642 0.79462 0.0
C210 C 0.49725 0.76405 0.76015 0.0
C211 C 0.5244 0.81485 0.77506 0.0
H212 H 0.4965 0.69999 0.75777 0.0
H213 H 0.45859 0.74302 0.74098 0.0
S214 S 0.6576 0.89765 0.84068 0.0
N215 N 0.64577 0.84277 0.83333 0.0
N216 N 0.60486 0.88965 0.81559 0.0
C217 C 0.57477 0.8405 0.79973 0.0
C218 C 0.59679 0.81504 0.80954 0.0
C219 C 0.71655 0.5318 0.22334 0.0
C220 C 0.71718 0.49243 0.2101 0.0
C221 C 0.66341 0.52464 0.22018 0.0
C222 C 0.60871 0.47782 0.20357 0.0
H223 H 0.7583 0.56957 0.23472 0.0
H224 H 0.66625 0.55716 0.22952 0.0
S225 S 0.58407 0.35953 0.16912 0.0
N226 N 0.657 0.40269 0.18341 0.0
N227 N 0.55683 0.38919 0.17698 0.0
C228 C 0.6076 0.43674 0.1922 0.0
C229 C 0.66195 0.44412 0.19547 0.0
C230 C 0.31082 0.83914 0.46145 0.0
C231 C 0.36887 0.85427 0.46633 0.0
C232 C 0.25613 0.78552 0.46029 0.0
C233 C 0.25705 0.74461 0.46376 0.0
H234 H 0.30738 0.86894 0.45869 0.0
H235 H 0.21278 0.77618 0.45643 0.0
S236 S 0.39722 0.76268 0.47593 0.0
N237 N 0.42387 0.82353 0.47383 0.0
N238 N 0.32149 0.72318 0.47188 0.0
C239 C 0.31483 0.75916 0.46858 0.0
C240 C 0.37053 0.81378 0.46981 0.0
C241 C 0.4578 0.20239 0.80298 0.0
C242 C 0.44918 0.199 0.84034 0.0
C243 C 0.46493 0.17017 0.78362 0.0
C244 C 0.46342 0.13301 0.8008 0.0
H245 H 0.45952 0.23054 0.78862 0.0
H246 H 0.47148 0.17443 0.75489 0.0
S247 S 0.44043 0.10797 0.89835 0.0
N248 N 0.43847 0.1553 0.89384 0.0
N249 N 0.45198 0.09463 0.85771 0.0
C250 C 0.45479 0.12928 0.83828 0.0
C251 C 0.44774 0.16232 0.85798 0.0
C252 C 0.56044 0.7394 0.52597 0.0
C253 C 0.55913 0.77395 0.54771 0.0
C254 C 0.54603 0.69441 0.53974 0.0
C255 C 0.53005 0.68226 0.57591 0.0
H256 H 0.57249 0.74709 0.49798 0.0
H257 H 0.54791 0.66921 0.52186 0.0
S258 S 0.52128 0.76116 0.64429 0.0
N259 N 0.54158 0.79371 0.60725 0.0
N260 N 0.51412 0.70923 0.63328 0.0
C261 C 0.52839 0.71658 0.59793 0.0
C262 C 0.54294 0.76231 0.58381 0.0
C263 C 0.75562 0.55276 0.87342 0.0
C264 C 0.69674 0.50874 0.88483 0.0
C265 C 0.80658 0.55647 0.87731 0.0
C266 C 0.80147 0.51637 0.8928 0.0
H267 H 0.76283 0.58509 0.86145 0.0
H268 H 0.85056 0.59146 0.86807 0.0
S269 S 0.65728 0.39166 0.92628 0.0
N270 N 0.63623 0.42332 0.91182 0.0
N271 N 0.73179 0.43036 0.9191 0.0
C272 C 0.74279 0.47186 0.90419 0.0
C273 C 0.69067 0.46804 0.90022 0.0
C274 C 0.27523 0.6856 0.1825 0.0
C275 C 0.22361 0.67508 0.16719 0.0
C276 C 0.32954 0.7379 0.19192 0.0
C277 C 0.33445 0.78147 0.18573 0.0
H278 H 0.27284 0.65318 0.18857 0.0
H279 H 0.36767 0.74414 0.20449 0.0
S280 S 0.21341 0.77468 0.14346 0.0
N281 N 0.18158 0.71213 0.14445 0.0
N282 N 0.28353 0.81023 0.16148 0.0
C283 C 0.28379 0.77133 0.16904 0.0
C284 C 0.2284 0.71817 0.15997 0.0
C285 C 0.54008 0.30706 0.49561 0.0
C286 C 0.48115 0.2563 0.49707 0.0
C287 C 0.55223 0.35253 0.5101 0.0
C288 C 0.50573 0.34917 0.52623 0.0
H289 H 0.57744 0.31158 0.48374 0.0
H290 H 0.59856 0.39064 0.5086 0.0
S291 S 0.3428 0.2253 0.53553 0.0
N292 N 0.3754 0.20518 0.51507 0.0
N293 N 0.39776 0.29042 0.5421 0.0
C294 C 0.44624 0.29855 0.52734 0.0
C295 C 0.43412 0.25222 0.51288 0.0
C296 C 0.32948 0.45757 0.89318 0.0
C297 C 0.38699 0.50023 0.87943 0.0
C298 C 0.28002 0.45635 0.8935 0.0
C299 C 0.28578 0.49799 0.88047 0.0
H300 H 0.3221 0.42428 0.90345 0.0
H301 H 0.23676 0.42224 0.90407 0.0
S302 S 0.42691 0.61977 0.84214 0.0
N303 N 0.44682 0.58579 0.85272 0.0
N304 N 0.35444 0.58369 0.85366 0.0
C305 C 0.3433 0.54131 0.86705 0.0
C306 C 0.39359 0.54236 0.86642 0.0
C307 C 0.81991 0.34364 0.14973 0.0
C308 C 0.87336 0.35179 0.14294 0.0
C309 C 0.76276 0.2927 0.1532 0.0
C310 C 0.75654 0.24758 0.1503 0.0
H311 H 0.82234 0.3771 0.15332 0.0
H312 H 0.72356 0.28904 0.15937 0.0
S313 S 0.88151 0.24685 0.12971 0.0
N314 N 0.91595 0.31027 0.1311 0.0
N315 N 0.80831 0.21412 0.13771 0.0
C316 C 0.80909 0.25484 0.14183 0.0
C317 C 0.8675 0.30699 0.13806 0.0
C318 C 0.97619 0.49433 0.02744 0.0
C319 C 0.02423 0.51635 0.05304 0.0
C320 C 0.98435 0.48974 0.99059 0.0
C321 C 0.04137 0.50834 0.97803 0.0
H322 H 0.93145 0.47898 0.03608 0.0
H323 H 0.94506 0.46983 0.9722 0.0
S324 S 0.18372 0.57526 0.03456 0.0
N325 N 0.1315 0.5602 0.06352 0.0
N326 N 0.14797 0.55339 0.9946 0.0
C327 C 0.09033 0.53226 1.00359 0.0
C328 C 0.08152 0.53592 0.04098 0.0
C329 C 0.53898 0.04878 0.353 0.0
C330 C 0.56564 0.02991 0.36718 0.0
C331 C 0.53731 0.05316 0.31571 0.0
C332 C 0.56029 0.03703 0.29142 0.0
H333 H 0.52131 0.06196 0.37082 0.0
H334 H 0.51824 0.06954 0.30581 0.0
S335 S 0.63161 0.98215 0.31501 0.0
N336 N 0.61389 0.99355 0.35414 0.0
N337 N 0.60901 0.00026 0.28414 0.0
C338 C 0.58498 0.0163 0.30524 0.0
C339 C 0.5881 0.01313 0.34314 0.0
C340 C 0.46004 0.45218 0.75351 0.0
C341 C 0.51088 0.46711 0.77355 0.0
C342 C 0.46426 0.46148 0.71683 0.0
C343 C 0.519 0.48479 0.69865 0.0
H344 H 0.41686 0.43394 0.76638 0.0
H345 H 0.42412 0.44987 0.70252 0.0
S346 S 0.6653 0.53094 0.73895 0.0
N347 N 0.61788 0.50689 0.77279 0.0
N348 N 0.62526 0.52282 0.70342 0.0
C349 C 0.57001 0.49933 0.71827 0.0
C350 C 0.56613 0.49096 0.75587 0.0
C351 C 0.48116 0.02182 0.60225 0.0
C352 C 0.51374 0.01723 0.57676 0.0
C353 C 0.47457 0.00589 0.63747 0.0
C354 C 0.50041 0.98484 0.64856 0.0
H355 H 0.45877 0.03627 0.59468 0.0
H356 H 0.44654 0.00778 0.65547 0.0
S357 S 0.59553 0.96973 0.59356 0.0
N358 N 0.57582 -0.0063 0.56603 0.0
N359 N 0.56373 0.96393 0.63219 0.0
C360 C 0.53517 0.98203 0.62383 0.0
C361 C 0.5419 -0.0017 0.58797 0.0
C362 C 0.51166 0.5085 0.99298 0.0
C363 C 0.57 0.54654 0.97836 0.0
C364 C 0.50359 0.50833 0.03019 0.0
C365 C 0.5535 0.54647 0.05424 0.0
H366 H 0.47171 0.47861 0.97554 0.0
H367 H 0.45771 0.47828 0.04009 0.0
S368 S 0.7164 0.65349 0.02959 0.0
N369 N 0.67891 0.62237 0.99077 0.0
N370 N 0.66394 0.62247 0.06064 0.0
C371 C 0.61229 0.58451 0.03993 0.0
C372 C 0.62052 0.58439 1.00204 0.0
C373 C 0.03213 0.45481 0.2777 0.0
C374 C 0.05262 0.49674 0.25629 0.0
C375 C 0.02808 0.45867 0.31504 0.0
C376 C 0.04485 0.50481 0.33258 0.0
H377 H 0.01961 0.41879 0.2656 0.0
H378 H 1.0127 0.42537 0.3303 0.0
S379 S 0.09887 0.62515 0.28821 0.0
N380 N 0.08797 0.58525 0.25488 0.0
N381 N 0.08056 0.59274 0.32515 0.0
C382 C 0.06441 0.5468 0.3113 0.0
C383 C 0.06815 0.54265 0.27315 0.0
loop_
_geom_bond_atom_site_label_1
_geom_bond_atom_site_label_2
_geom_bond_distance
_geom_bond_site_symmetry_2
_ccdc_geom_bond_type
Sm0 C2 2.846 . S
Sm0 O20 2.543 . S
Sm0 O21 2.450 . S
Sm0 O22 2.681 . S
Sm0 O23 2.464 . S
Sm0 O24 2.396 . S
Sm0 O28 2.386 . S
Sm0 O31 2.408 1_455 S
Sm1 C11 2.846 . S
Sm1 O22 2.386 1_655 S
Sm1 O25 2.408 1_655 S
Sm1 O26 2.543 . S
Sm1 O27 2.450 . S
Sm1 O28 2.681 1_655 S
Sm1 O29 2.464 . S
Sm1 O30 2.396 . S
C2 Sm0 2.846 . S
C2 C3 1.506 . S
C2 O20 1.261 . S
C2 O21 1.242 . S
C3 C2 1.506 . S
C3 C4 1.358 . S
C3 C8 1.382 . S
C4 C3 1.358 . S
C4 C5 1.385 . S
C4 H32 0.930 . S
C5 C4 1.385 . S
C5 C6 1.395 . S
C5 H33 0.929 . S
C6 C5 1.395 . S
C6 C7 1.335 . S
C7 C6 1.335 . S
C7 C8 1.398 . S
C7 H34 0.930 . S
C8 C3 1.382 . S
C8 C7 1.398 . S
C8 H35 0.929 . S
C9 O22 1.271 . S
C9 O23 1.251 . S
C10 O24 1.252 . S
C10 O25 1.272 . S
C11 Sm1 2.846 . S
C11 C12 1.506 . S
C11 O26 1.261 . S
C11 O27 1.242 . S
C12 C11 1.506 . S
C12 C13 1.358 . S
C12 C17 1.382 . S
C13 C12 1.358 . S
C13 C14 1.385 . S
C13 H36 0.930 . S
C14 C13 1.385 . S
C14 C15 1.395 . S
C14 H37 0.929 . S
C15 C14 1.395 . S
C15 C16 1.335 . S
C16 C15 1.335 . S
C16 C17 1.398 . S
C16 H38 0.930 . S
C17 C12 1.382 . S
C17 C16 1.398 . S
C17 H39 0.929 . S
C18 O28 1.271 . S
C18 O29 1.251 1_455 S
C19 O30 1.252 . S
C19 O31 1.272 . S
O20 Sm0 2.543 . S
O20 C2 1.261 . S
O21 Sm0 2.450 . S
O21 C2 1.242 . S
O22 Sm0 2.681 . S
O22 Sm1 2.386 1_455 S
O22 C9 1.271 . S
O23 Sm0 2.464 . S
O23 C9 1.251 . S
O24 Sm0 2.396 . S
O24 C10 1.252 . S
O25 Sm1 2.408 1_455 S
O25 C10 1.272 . S
O26 Sm1 2.543 . S
O26 C11 1.261 . S
O27 Sm1 2.450 . S
O27 C11 1.242 . S
O28 Sm0 2.386 . S
O28 Sm1 2.681 1_455 S
O28 C18 1.271 . S
O29 Sm1 2.464 . S
O29 C18 1.251 1_655 S
O30 Sm1 2.396 . S
O30 C19 1.252 . S
O31 Sm0 2.408 1_655 S
O31 C19 1.272 . S
H32 C4 0.930 . S
H33 C5 0.929 . S
H34 C7 0.930 . S
H35 C8 0.929 . S
H36 C13 0.930 . S
H37 C14 0.929 . S
H38 C16 0.930 . S
H39 C17 0.929 . S
Sm40 C42 2.846 . S
Sm40 O60 2.543 . S
Sm40 O61 2.450 . S
Sm40 O62 2.681 1_565 S
Sm40 O63 2.464 . S
Sm40 O64 2.396 . S
Sm40 O68 2.388 1_565 S
Sm40 O71 2.408 1_565 S
Sm41 C51 2.846 . S
Sm41 O62 2.386 . S
Sm41 O65 2.408 1_545 S
Sm41 O66 2.543 . S
Sm41 O67 2.450 . S
Sm41 O68 2.679 . S
Sm41 O69 2.464 . S
Sm41 O70 2.396 . S
C42 Sm40 2.846 . S
C42 C43 1.506 . S
C42 O60 1.261 . S
C42 O61 1.242 . S
C43 C42 1.506 . S
C43 C44 1.358 . S
C43 C48 1.382 . S
C44 C43 1.358 . S
C44 C45 1.385 . S
C44 H72 0.930 . S
C45 C44 1.385 . S
C45 C46 1.395 . S
C45 H73 0.929 . S
C46 C45 1.395 . S
C46 C47 1.335 . S
C47 C46 1.335 . S
C47 C48 1.398 . S
C47 H74 0.930 . S
C48 C43 1.382 . S
C48 C47 1.398 . S
C48 H75 0.929 . S
C49 O62 1.271 . S
C49 O63 1.251 1_545 S
C50 O64 1.252 . S
C50 O65 1.272 . S
C51 Sm41 2.846 . S
C51 C52 1.506 . S
C51 O66 1.261 . S
C51 O67 1.242 . S
C52 C51 1.506 . S
C52 C53 1.358 . S
C52 C57 1.382 . S
C53 C52 1.358 . S
C53 C54 1.385 . S
C53 H76 0.930 . S
C54 C53 1.385 . S
C54 C55 1.395 . S
C54 H77 0.929 . S
C55 C54 1.395 . S
C55 C56 1.335 . S
C56 C55 1.335 . S
C56 C57 1.398 . S
C56 H78 0.930 . S
C57 C52 1.382 . S
C57 C56 1.398 . S
C57 H79 0.929 . S
C58 O68 1.270 . S
C58 O69 1.251 . S
C59 O70 1.252 . S
C59 O71 1.272 . S
O60 Sm40 2.543 . S
O60 C42 1.261 . S
O61 Sm40 2.450 . S
O61 C42 1.242 . S
O62 Sm40 2.681 1_545 S
O62 Sm41 2.386 . S
O62 C49 1.271 . S
O63 Sm40 2.464 . S
O63 C49 1.251 1_565 S
O64 Sm40 2.396 . S
O64 C50 1.252 . S
O65 Sm41 2.408 1_565 S
O65 C50 1.272 . S
O66 Sm41 2.543 . S
O66 C51 1.261 . S
O67 Sm41 2.450 . S
O67 C51 1.242 . S
O68 Sm40 2.388 1_545 S
O68 Sm41 2.679 . S
O68 C58 1.270 . S
O69 Sm41 2.464 . S
O69 C58 1.251 . S
O70 Sm41 2.396 . S
O70 C59 1.252 . S
O71 Sm40 2.408 1_545 S
O71 C59 1.272 . S
H72 C44 0.930 . S
H73 C45 0.929 . S
H74 C47 0.930 . S
H75 C48 0.929 . S
H76 C53 0.930 . S
H77 C54 0.929 . S
H78 C56 0.930 . S
H79 C57 0.929 . S
Sm80 C82 2.846 . S
Sm80 O100 2.543 . S
Sm80 O101 2.450 . S
Sm80 O102 2.681 . S
Sm80 O103 2.464 . S
Sm80 O104 2.396 . S
Sm80 O108 2.386 . S
Sm80 O111 2.408 . S
Sm81 C91 2.846 . S
Sm81 O102 2.386 . S
Sm81 O105 2.408 . S
Sm81 O106 2.543 . S
Sm81 O107 2.450 . S
Sm81 O108 2.681 . S
Sm81 O109 2.464 . S
Sm81 O110 2.396 . S
C82 Sm80 2.846 . S
C82 C83 1.506 . S
C82 O100 1.261 . S
C82 O101 1.242 . S
C83 C82 1.506 . S
C83 C84 1.358 . S
C83 C88 1.382 . S
C84 C83 1.358 . S
C84 C85 1.385 . S
C84 H112 0.930 . S
C85 C84 1.385 . S
C85 C86 1.395 . S
C85 H113 0.929 . S
C86 C85 1.395 . S
C86 C87 1.335 . S
C87 C86 1.335 . S
C87 C88 1.398 . S
C87 H114 0.930 . S
C88 C83 1.382 . S
C88 C87 1.398 . S
C88 H115 0.929 . S
C89 O102 1.271 . S
C89 O103 1.251 . S
C90 O104 1.252 . S
C90 O105 1.272 . S
C91 Sm81 2.846 . S
C91 C92 1.506 . S
C91 O106 1.261 . S
C91 O107 1.242 . S
C92 C91 1.506 . S
C92 C93 1.358 . S
C92 C97 1.382 . S
C93 C92 1.358 . S
C93 C94 1.385 . S
C93 H116 0.930 . S
C94 C93 1.385 . S
C94 C95 1.395 . S
C94 H117 0.929 . S
C95 C94 1.395 . S
C95 C96 1.335 . S
C96 C95 1.335 . S
C96 C97 1.398 . S
C96 H118 0.930 . S
C97 C92 1.382 . S
C97 C96 1.398 . S
C97 H119 0.929 . S
C98 O108 1.271 . S
C98 O109 1.251 . S
C99 O110 1.252 . S
C99 O111 1.272 . S
O100 Sm80 2.543 . S
O100 C82 1.261 . S
O101 Sm80 2.450 . S
O101 C82 1.242 . S
O102 Sm80 2.681 . S
O102 Sm81 2.386 . S
O102 C89 1.271 . S
O103 Sm80 2.464 . S
O103 C89 1.251 . S
O104 Sm80 2.396 . S
O104 C90 1.252 . S
O105 Sm81 2.408 . S
O105 C90 1.272 . S
O106 Sm81 2.543 . S
O106 C91 1.261 . S
O107 Sm81 2.450 . S
O107 C91 1.242 . S
O108 Sm80 2.386 . S
O108 Sm81 2.681 . S
O108 C98 1.271 . S
O109 Sm81 2.464 . S
O109 C98 1.251 . S
O110 Sm81 2.396 . S
O110 C99 1.252 . S
O111 Sm80 2.408 . S
O111 C99 1.272 . S
H112 C84 0.930 . S
H113 C85 0.929 . S
H114 C87 0.930 . S
H115 C88 0.929 . S
H116 C93 0.930 . S
H117 C94 0.929 . S
H118 C96 0.930 . S
H119 C97 0.929 . S
O120 Cd121 2.300 . S
O120 C127 1.275 . S
Cd121 O120 2.300 . S
Cd121 O129 2.381 . S
Cd121 O130 2.378 . S
O122 Cd123 2.385 . S
O122 C127 1.255 1_565 S
Cd123 O122 2.385 . S
Cd123 O124 2.317 . S
O124 Cd123 2.317 . S
O124 C125 1.232 . S
C125 O124 1.232 . S
C125 O126 1.218 . S
O126 C125 1.218 . S
C127 O120 1.275 . S
C127 O122 1.255 1_545 S
C128 O129 1.258 . S
C128 O130 1.256 . S
O129 Cd121 2.381 . S
O129 C128 1.258 . S
O130 Cd121 2.378 . S
O130 C128 1.256 . S
O131 Cd132 2.300 . S
O131 C138 1.275 . S
Cd132 O131 2.300 . S
Cd132 O140 2.381 . S
Cd132 O141 2.378 . S
O133 Cd134 2.385 . S
O133 C138 1.255 . S
Cd134 O133 2.385 . S
Cd134 O135 2.317 . S
O135 Cd134 2.317 . S
O135 C136 1.232 . S
C136 O135 1.232 . S
C136 O137 1.218 . S
O137 C136 1.218 . S
C138 O131 1.275 . S
C138 O133 1.255 . S
C139 O140 1.258 . S
C139 O141 1.256 . S
O140 Cd132 2.381 . S
O140 C139 1.258 . S
O141 Cd132 2.378 . S
O141 C139 1.256 . S
O142 Cd143 2.300 . S
O142 C149 1.275 . S
Cd143 O142 2.300 . S
Cd143 O151 2.381 . S
Cd143 O152 2.378 . S
O144 Cd145 2.385 . S
O144 C149 1.255 1_655 S
Cd145 O144 2.385 . S
Cd145 O146 2.317 . S
O146 Cd145 2.317 . S
O146 C147 1.232 . S
C147 O146 1.232 . S
C147 O148 1.218 . S
O148 C147 1.218 . S
C149 O142 1.275 . S
C149 O144 1.255 1_455 S
C150 O151 1.258 . S
C150 O152 1.256 . S
O151 Cd143 2.381 . S
O151 C150 1.258 . S
O152 Cd143 2.378 . S
O152 C150 1.256 . S
O153 Cd154 2.300 . S
O153 C160 1.275 1_455 S
Cd154 O153 2.300 . S
Cd154 O162 2.381 . S
Cd154 O163 2.378 . S
O155 Cd156 2.385 . S
O155 C160 1.255 . S
Cd156 O155 2.385 . S
Cd156 O157 2.317 . S
O157 Cd156 2.317 . S
O157 C158 1.232 . S
C158 O157 1.232 . S
C158 O159 1.218 . S
O159 C158 1.218 . S
C160 O153 1.275 1_655 S
C160 O155 1.255 . S
C161 O162 1.258 . S
C161 O163 1.256 . S
O162 Cd154 2.381 . S
O162 C161 1.258 . S
O163 Cd154 2.378 . S
O163 C161 1.256 . S
O164 Cd165 2.300 . S
O164 C171 1.275 1_565 S
Cd165 O164 2.300 . S
Cd165 O173 2.381 . S
Cd165 O174 2.378 . S
O166 Cd167 2.385 . S
O166 C171 1.255 . S
Cd167 O166 2.385 . S
Cd167 O168 2.317 . S
O168 Cd167 2.317 . S
O168 C169 1.232 . S
C169 O168 1.232 . S
C169 O170 1.218 . S
O170 C169 1.218 . S
C171 O164 1.275 1_545 S
C171 O166 1.255 . S
C172 O173 1.258 . S
C172 O174 1.256 . S
O173 Cd165 2.381 . S
O173 C172 1.258 . S
O174 Cd165 2.378 . S
O174 C172 1.256 . S
O175 Cd176 2.300 . S
O175 C182 1.275 . S
Cd176 O175 2.300 . S
Cd176 O184 2.381 . S
Cd176 O185 2.378 . S
O177 Cd178 2.385 . S
O177 C182 1.255 . S
Cd178 O177 2.385 . S
Cd178 O179 2.317 . S
O179 Cd178 2.317 . S
O179 C180 1.232 . S
C180 O179 1.232 . S
C180 O181 1.218 . S
O181 C180 1.218 . S
C182 O175 1.275 . S
C182 O177 1.255 . S
C183 O184 1.258 . S
C183 O185 1.256 . S
O184 Cd176 2.381 . S
O184 C183 1.258 . S
O185 Cd176 2.378 . S
O185 C183 1.256 . S
C186 C187 1.369 . S
C186 C188 1.419 . S
C186 H190 0.930 . S
C187 C186 1.369 . S
C187 C196 1.429 . S
C188 C186 1.419 . S
C188 C189 1.363 . S
C188 H191 0.929 . S
C189 C188 1.363 . S
C189 C195 1.428 . S
H190 C186 0.930 . S
H191 C188 0.929 . S
S192 N193 1.613 . S
S192 N194 1.610 . S
N193 S192 1.613 . S
N193 C196 1.350 . S
N194 S192 1.610 . S
N194 C195 1.351 . S
C195 C189 1.428 . S
C195 N194 1.351 . S
C195 C196 1.434 . S
C196 C187 1.429 . S
C196 N193 1.350 . S
C196 C195 1.434 . S
C197 C198 1.369 . S
C197 C199 1.419 . S
C197 H201 0.930 . S
C198 C197 1.369 . S
C198 C207 1.429 . S
C199 C197 1.419 . S
C199 C200 1.363 . S
C199 H202 0.929 . S
C200 C199 1.363 . S
C200 C206 1.428 . S
H201 C197 0.930 . S
H202 C199 0.929 . S
S203 N204 1.613 . S
S203 N205 1.610 . S
N204 S203 1.613 . S
N204 C207 1.350 . S
N205 S203 1.610 . S
N205 C206 1.351 . S
C206 C200 1.428 . S
C206 N205 1.351 . S
C206 C207 1.434 . S
C207 C198 1.429 . S
C207 N204 1.350 . S
C207 C206 1.434 . S
C208 C209 1.369 . S
C208 C210 1.419 . S
C208 H212 0.930 . S
C209 C208 1.369 . S
C209 C218 1.429 . S
C210 C208 1.419 . S
C210 C211 1.363 . S
C210 H213 0.929 . S
C211 C210 1.363 . S
C211 C217 1.428 . S
H212 C208 0.930 . S
H213 C210 0.929 . S
S214 N215 1.613 . S
S214 N216 1.610 . S
N215 S214 1.613 . S
N215 C218 1.350 . S
N216 S214 1.610 . S
N216 C217 1.351 . S
C217 C211 1.428 . S
C217 N216 1.351 . S
C217 C218 1.434 . S
C218 C209 1.429 . S
C218 N215 1.350 . S
C218 C217 1.434 . S
C219 C220 1.369 . S
C219 C221 1.419 . S
C219 H223 0.930 . S
C220 C219 1.369 . S
C220 C229 1.429 . S
C221 C219 1.419 . S
C221 C222 1.363 . S
C221 H224 0.929 . S
C222 C221 1.363 . S
C222 C228 1.428 . S
H223 C219 0.930 . S
H224 C221 0.929 . S
S225 N226 1.613 . S
S225 N227 1.610 . S
N226 S225 1.613 . S
N226 C229 1.350 . S
N227 S225 1.610 . S
N227 C228 1.351 . S
C228 C222 1.428 . S
C228 N227 1.351 . S
C228 C229 1.434 . S
C229 C220 1.429 . S
C229 N226 1.350 . S
C229 C228 1.434 . S
C230 C231 1.369 . S
C230 C232 1.419 . S
C230 H234 0.930 . S
C231 C230 1.369 . S
C231 C240 1.429 . S
C232 C230 1.419 . S
C232 C233 1.363 . S
C232 H235 0.929 . S
C233 C232 1.363 . S
C233 C239 1.428 . S
H234 C230 0.930 . S
H235 C232 0.929 . S
S236 N237 1.613 . S
S236 N238 1.610 . S
N237 S236 1.613 . S
N237 C240 1.350 . S
N238 S236 1.610 . S
N238 C239 1.351 . S
C239 C233 1.428 . S
C239 N238 1.351 . S
C239 C240 1.434 . S
C240 C231 1.429 . S
C240 N237 1.350 . S
C240 C239 1.434 . S
C241 C242 1.369 . S
C241 C243 1.419 . S
C241 H245 0.930 . S
C242 C241 1.369 . S
C242 C251 1.429 . S
C243 C241 1.419 . S
C243 C244 1.363 . S
C243 H246 0.929 . S
C244 C243 1.363 . S
C244 C250 1.428 . S
H245 C241 0.930 . S
H246 C243 0.929 . S
S247 N248 1.613 . S
S247 N249 1.610 . S
N248 S247 1.613 . S
N248 C251 1.350 . S
N249 S247 1.610 . S
N249 C250 1.351 . S
C250 C244 1.428 . S
C250 N249 1.351 . S
C250 C251 1.434 . S
C251 C242 1.429 . S
C251 N248 1.350 . S
C251 C250 1.434 . S
C252 C253 1.369 . S
C252 C254 1.419 . S
C252 H256 0.930 . S
C253 C252 1.369 . S
C253 C262 1.429 . S
C254 C252 1.419 . S
C254 C255 1.363 . S
C254 H257 0.929 . S
C255 C254 1.363 . S
C255 C261 1.428 . S
H256 C252 0.930 . S
H257 C254 0.929 . S
S258 N259 1.613 . S
S258 N260 1.610 . S
N259 S258 1.613 . S
N259 C262 1.350 . S
N260 S258 1.610 . S
N260 C261 1.351 . S
C261 C255 1.428 . S
C261 N260 1.351 . S
C261 C262 1.434 . S
C262 C253 1.429 . S
C262 N259 1.350 . S
C262 C261 1.434 . S
C263 C264 1.369 . S
C263 C265 1.419 . S
C263 H267 0.930 . S
C264 C263 1.369 . S
C264 C273 1.429 . S
C265 C263 1.419 . S
C265 C266 1.363 . S
C265 H268 0.929 . S
C266 C265 1.363 . S
C266 C272 1.428 . S
H267 C263 0.930 . S
H268 C265 0.929 . S
S269 N270 1.613 . S
S269 N271 1.610 . S
N270 S269 1.613 . S
N270 C273 1.350 . S
N271 S269 1.610 . S
N271 C272 1.351 . S
C272 C266 1.428 . S
C272 N271 1.351 . S
C272 C273 1.434 . S
C273 C264 1.429 . S
C273 N270 1.350 . S
C273 C272 1.434 . S
C274 C275 1.369 . S
C274 C276 1.419 . S
C274 H278 0.930 . S
C275 C274 1.369 . S
C275 C284 1.429 . S
C276 C274 1.419 . S
C276 C277 1.363 . S
C276 H279 0.929 . S
C277 C276 1.363 . S
C277 C283 1.428 . S
H278 C274 0.930 . S
H279 C276 0.929 . S
S280 N281 1.613 . S
S280 N282 1.610 . S
N281 S280 1.613 . S
N281 C284 1.350 . S
N282 S280 1.610 . S
N282 C283 1.351 . S
C283 C277 1.428 . S
C283 N282 1.351 . S
C283 C284 1.434 . S
C284 C275 1.429 . S
C284 N281 1.350 . S
C284 C283 1.434 . S
C285 C286 1.369 . S
C285 C287 1.419 . S
C285 H289 0.930 . S
C286 C285 1.369 . S
C286 C295 1.429 . S
C287 C285 1.419 . S
C287 C288 1.363 . S
C287 H290 0.929 . S
C288 C287 1.363 . S
C288 C294 1.428 . S
H289 C285 0.930 . S
H290 C287 0.929 . S
S291 N292 1.613 . S
S291 N293 1.610 . S
N292 S291 1.613 . S
N292 C295 1.350 . S
N293 S291 1.610 . S
N293 C294 1.351 . S
C294 C288 1.428 . S
C294 N293 1.351 . S
C294 C295 1.434 . S
C295 C286 1.429 . S
C295 N292 1.350 . S
C295 C294 1.434 . S
C296 C297 1.369 . S
C296 C298 1.419 . S
C296 H300 0.930 . S
C297 C296 1.369 . S
C297 C306 1.429 . S
C298 C296 1.419 . S
C298 C299 1.363 . S
C298 H301 0.929 . S
C299 C298 1.363 . S
C299 C305 1.428 . S
H300 C296 0.930 . S
H301 C298 0.929 . S
S302 N303 1.613 . S
S302 N304 1.610 . S
N303 S302 1.613 . S
N303 C306 1.350 . S
N304 S302 1.610 . S
N304 C305 1.351 . S
C305 C299 1.428 . S
C305 N304 1.351 . S
C305 C306 1.434 . S
C306 C297 1.429 . S
C306 N303 1.350 . S
C306 C305 1.434 . S
C307 C308 1.369 . S
C307 C309 1.419 . S
C307 H311 0.930 . S
C308 C307 1.369 . S
C308 C317 1.429 . S
C309 C307 1.419 . S
C309 C310 1.363 . S
C309 H312 0.929 . S
C310 C309 1.363 . S
C310 C316 1.428 . S
H311 C307 0.930 . S
H312 C309 0.929 . S
S313 N314 1.613 . S
S313 N315 1.610 . S
N314 S313 1.613 . S
N314 C317 1.350 . S
N315 S313 1.610 . S
N315 C316 1.351 . S
C316 C310 1.428 . S
C316 N315 1.351 . S
C316 C317 1.434 . S
C317 C308 1.429 . S
C317 N314 1.350 . S
C317 C316 1.434 . S
C318 C319 1.369 1_655 S
C318 C320 1.419 . S
C318 H322 0.930 . S
C319 C318 1.369 1_455 S
C319 C328 1.429 . S
C320 C318 1.419 . S
C320 C321 1.363 1_654 S
C320 H323 0.929 1_554 S
C321 C320 1.363 1_456 S
C321 C327 1.428 1_556 S
H322 C318 0.930 . S
H323 C320 0.929 1_556 S
S324 N325 1.613 . S
S324 N326 1.610 1_554 S
N325 S324 1.613 . S
N325 C328 1.350 . S
N326 S324 1.610 1_556 S
N326 C327 1.351 1_556 S
C327 C321 1.428 1_554 S
C327 N326 1.351 1_554 S
C327 C328 1.434 . S
C328 C319 1.429 . S
C328 N325 1.350 . S
C328 C327 1.434 . S
C329 C330 1.369 . S
C329 C331 1.419 . S
C329 H333 0.930 . S
C330 C329 1.369 . S
C330 C339 1.429 1_545 S
C331 C329 1.419 . S
C331 C332 1.363 . S
C331 H334 0.929 . S
C332 C331 1.363 . S
C332 C338 1.428 1_545 S
H333 C329 0.930 . S
H334 C331 0.929 . S
S335 N336 1.613 . S
S335 N337 1.610 . S
N336 S335 1.613 . S
N336 C339 1.350 . S
N337 S335 1.610 . S
N337 C338 1.351 . S
C338 C332 1.428 1_565 S
C338 N337 1.351 . S
C338 C339 1.434 . S
C339 C330 1.429 1_565 S
C339 N336 1.350 . S
C339 C338 1.434 . S
C340 C341 1.369 . S
C340 C342 1.419 . S
C340 H344 0.930 . S
C341 C340 1.369 . S
C341 C350 1.429 . S
C342 C340 1.419 . S
C342 C343 1.363 . S
C342 H345 0.929 . S
C343 C342 1.363 . S
C343 C349 1.428 . S
H344 C340 0.930 . S
H345 C342 0.929 . S
S346 N347 1.613 . S
S346 N348 1.610 . S
N347 S346 1.613 . S
N347 C350 1.350 . S
N348 S346 1.610 . S
N348 C349 1.351 . S
C349 C343 1.428 . S
C349 N348 1.351 . S
C349 C350 1.434 . S
C350 C341 1.429 . S
C350 N347 1.350 . S
C350 C349 1.434 . S
C351 C352 1.369 . S
C351 C353 1.419 . S
C351 H355 0.930 . S
C352 C351 1.369 . S
C352 C361 1.429 . S
C353 C351 1.419 . S
C353 C354 1.363 . S
C353 H356 0.929 . S
C354 C353 1.363 . S
C354 C360 1.428 . S
H355 C351 0.930 . S
H356 C353 0.929 . S
S357 N358 1.613 . S
S357 N359 1.610 . S
N358 S357 1.613 . S
N358 C361 1.350 1_565 S
N359 S357 1.610 . S
N359 C360 1.351 1_565 S
C360 C354 1.428 . S
C360 N359 1.351 1_545 S
C360 C361 1.434 . S
C361 C352 1.429 . S
C361 N358 1.350 1_545 S
C361 C360 1.434 . S
C362 C363 1.369 . S
C362 C364 1.419 . S
C362 H366 0.930 . S
C363 C362 1.369 . S
C363 C372 1.429 . S
C364 C362 1.419 . S
C364 C365 1.363 1_556 S
C364 H367 0.929 . S
C365 C364 1.363 1_554 S
C365 C371 1.428 . S
H366 C362 0.930 . S
H367 C364 0.929 . S
S368 N369 1.609 1_554 S
S368 N370 1.613 . S
N369 S368 1.609 1_556 S
N369 C372 1.350 . S
N370 S368 1.613 . S
N370 C371 1.351 . S
C371 C365 1.428 . S
C371 N370 1.351 . S
C371 C372 1.434 1_554 S
C372 C363 1.429 . S
C372 N369 1.350 . S
C372 C371 1.434 1_556 S
C373 C374 1.369 . S
C373 C375 1.419 . S
C373 H377 0.930 . S
C374 C373 1.369 . S
C374 C383 1.437 . S
C375 C373 1.419 . S
C375 C376 1.363 1_455 S
C375 H378 0.929 . S
C376 C375 1.363 1_655 S
C376 C382 1.428 . S
H377 C373 0.930 . S
H378 C375 0.929 . S
S379 N380 1.615 1_655 S
S379 N381 1.610 . S
N380 S379 1.615 1_455 S
N380 C383 1.341 . S
N381 S379 1.610 . S
N381 C382 1.351 . S
C382 C376 1.428 . S
C382 N381 1.351 . S
C382 C383 1.433 1_655 S
C383 C374 1.437 . S
C383 N380 1.341 . S
C383 C382 1.433 1_455 S
C187 C6 0.947 . S
C189 C180 0.769 . S
C198 C59 2.033 . S
C200 C158 1.753 . S
C209 C86 1.199 . S
C211 C172 1.175 . S
C220 C15 0.619 . S
C222 C183 0.472 . S
C233 C161 1.860 . S
C231 C50 1.949 . S
C244 C169 1.282 . S
C242 C95 1.412 . S
C253 C46 1.369 . S
C255 C136 1.179 . S
C264 C99 3.259 . S
C266 C147 2.911 . S
C275 C10 2.112 . S
C277 C125 1.766 . S
C288 C139 1.169 . S
C286 C55 1.158 . S
C299 C150 2.907 . S
C297 C90 2.991 . S
C308 C19 1.867 . S
C310 C128 1.833 . S
C321 C149 1.677 . S
C319 C18 1.680 . S
C330 C49 1.397 . S
C332 C127 1.375 . S
C341 C98 1.520 . S
C343 C138 1.474 . S
C354 C171 1.428 . S
C352 C58 1.450 . S
C365 C182 1.114 . S
C363 C89 1.189 . S
C374 C9 1.408 . S
C376 C160 1.362 . S
