# Generated by pormake.
# Topology ibd, (4,6)-cn, num edge types: 1
# Building blocks:
#     Node 0, Type 0, BuildingBlock: QUQFOY_clean_sbu_3, # of connection points: 4
#     Node 1, Type 0, BuildingBlock: QUQFOY_clean_sbu_3, # of connection points: 4
#     Node 2, Type 0, BuildingBlock: QUQFOY_clean_sbu_3, # of connection points: 4
#     Node 3, Type 0, BuildingBlock: QUQFOY_clean_sbu_3, # of connection points: 4
#     Node 4, Type 0, BuildingBlock: QUQFOY_clean_sbu_3, # of connection points: 4
#     Node 5, Type 0, BuildingBlock: QUQFOY_clean_sbu_3, # of connection points: 4
#     Node 6, Type 0, BuildingBlock: QUQFOY_clean_sbu_3, # of connection points: 4
#     Node 7, Type 0, BuildingBlock: QUQFOY_clean_sbu_3, # of connection points: 4
#     Node 8, Type 0, BuildingBlock: QUQFOY_clean_sbu_3, # of connection points: 4
#     Node 9, Type 0, BuildingBlock: QUQFOY_clean_sbu_3, # of connection points: 4
#     Node 10, Type 0, BuildingBlock: QUQFOY_clean_sbu_3, # of connection points: 4
#     Node 11, Type 0, BuildingBlock: QUQFOY_clean_sbu_3, # of connection points: 4
#     Node 12, Type 0, BuildingBlock: QUQFOY_clean_sbu_3, # of connection points: 4
#     Node 13, Type 0, BuildingBlock: QUQFOY_clean_sbu_3, # of connection points: 4
#     Node 14, Type 0, BuildingBlock: QUQFOY_clean_sbu_3, # of connection points: 4
#     Node 15, Type 0, BuildingBlock: QUQFOY_clean_sbu_3, # of connection points: 4
#     Node 16, Type 0, BuildingBlock: QUQFOY_clean_sbu_3, # of connection points: 4
#     Node 17, Type 0, BuildingBlock: QUQFOY_clean_sbu_3, # of connection points: 4
#     Node 18, Type 0, BuildingBlock: QUQFOY_clean_sbu_3, # of connection points: 4
#     Node 19, Type 0, BuildingBlock: QUQFOY_clean_sbu_3, # of connection points: 4
#     Node 20, Type 0, BuildingBlock: QUQFOY_clean_sbu_3, # of connection points: 4
#     Node 21, Type 0, BuildingBlock: QUQFOY_clean_sbu_3, # of connection points: 4
#     Node 22, Type 0, BuildingBlock: QUQFOY_clean_sbu_3, # of connection points: 4
#     Node 23, Type 0, BuildingBlock: QUQFOY_clean_sbu_3, # of connection points: 4
#     Node 24, Type 1, BuildingBlock: OJICUG_clean_sbu_0, # of connection points: 6
#     Node 25, Type 1, BuildingBlock: OJICUG_clean_sbu_0, # of connection points: 6
#     Node 26, Type 1, BuildingBlock: OJICUG_clean_sbu_0, # of connection points: 6
#     Node 27, Type 1, BuildingBlock: OJICUG_clean_sbu_0, # of connection points: 6
#     Node 28, Type 1, BuildingBlock: OJICUG_clean_sbu_0, # of connection points: 6
#     Node 29, Type 1, BuildingBlock: OJICUG_clean_sbu_0, # of connection points: 6
#     Node 30, Type 1, BuildingBlock: OJICUG_clean_sbu_0, # of connection points: 6
#     Node 31, Type 1, BuildingBlock: OJICUG_clean_sbu_0, # of connection points: 6
#     Node 32, Type 1, BuildingBlock: OJICUG_clean_sbu_0, # of connection points: 6
#     Node 33, Type 1, BuildingBlock: OJICUG_clean_sbu_0, # of connection points: 6
#     Node 34, Type 1, BuildingBlock: OJICUG_clean_sbu_0, # of connection points: 6
#     Node 35, Type 1, BuildingBlock: OJICUG_clean_sbu_0, # of connection points: 6
#     Node 36, Type 1, BuildingBlock: OJICUG_clean_sbu_0, # of connection points: 6
#     Node 37, Type 1, BuildingBlock: OJICUG_clean_sbu_0, # of connection points: 6
#     Node 38, Type 1, BuildingBlock: OJICUG_clean_sbu_0, # of connection points: 6
#     Node 39, Type 1, BuildingBlock: OJICUG_clean_sbu_0, # of connection points: 6
#     Edge 40, Type (0, 1), BuildingBlock: OJICUG_clean_linker_0, # of connection points: 2
#     Edge 41, Type (0, 1), BuildingBlock: OJICUG_clean_linker_0, # of connection points: 2
#     Edge 42, Type (0, 1), BuildingBlock: OJICUG_clean_linker_0, # of connection points: 2
#     Edge 43, Type (0, 1), BuildingBlock: OJICUG_clean_linker_0, # of connection points: 2
#     Edge 44, Type (0, 1), BuildingBlock: OJICUG_clean_linker_0, # of connection points: 2
#     Edge 45, Type (0, 1), BuildingBlock: OJICUG_clean_linker_0, # of connection points: 2
#     Edge 46, Type (0, 1), BuildingBlock: OJICUG_clean_linker_0, # of connection points: 2
#     Edge 47, Type (0, 1), BuildingBlock: OJICUG_clean_linker_0, # of connection points: 2
#     Edge 48, Type (0, 1), BuildingBlock: OJICUG_clean_linker_0, # of connection points: 2
#     Edge 49, Type (0, 1), BuildingBlock: OJICUG_clean_linker_0, # of connection points: 2
#     Edge 50, Type (0, 1), BuildingBlock: OJICUG_clean_linker_0, # of connection points: 2
#     Edge 51, Type (0, 1), BuildingBlock: OJICUG_clean_linker_0, # of connection points: 2
#     Edge 52, Type (0, 1), BuildingBlock: OJICUG_clean_linker_0, # of connection points: 2
#     Edge 53, Type (0, 1), BuildingBlock: OJICUG_clean_linker_0, # of connection points: 2
#     Edge 54, Type (0, 1), BuildingBlock: OJICUG_clean_linker_0, # of connection points: 2
#     Edge 55, Type (0, 1), BuildingBlock: OJICUG_clean_linker_0, # of connection points: 2
#     Edge 56, Type (0, 1), BuildingBlock: OJICUG_clean_linker_0, # of connection points: 2
#     Edge 57, Type (0, 1), BuildingBlock: OJICUG_clean_linker_0, # of connection points: 2
#     Edge 58, Type (0, 1), BuildingBlock: OJICUG_clean_linker_0, # of connection points: 2
#     Edge 59, Type (0, 1), BuildingBlock: OJICUG_clean_linker_0, # of connection points: 2
#     Edge 60, Type (0, 1), BuildingBlock: OJICUG_clean_linker_0, # of connection points: 2
#     Edge 61, Type (0, 1), BuildingBlock: OJICUG_clean_linker_0, # of connection points: 2
#     Edge 62, Type (0, 1), BuildingBlock: OJICUG_clean_linker_0, # of connection points: 2
#     Edge 63, Type (0, 1), BuildingBlock: OJICUG_clean_linker_0, # of connection points: 2
#     Edge 64, Type (0, 1), BuildingBlock: OJICUG_clean_linker_0, # of connection points: 2
#     Edge 65, Type (0, 1), BuildingBlock: OJICUG_clean_linker_0, # of connection points: 2
#     Edge 66, Type (0, 1), BuildingBlock: OJICUG_clean_linker_0, # of connection points: 2
#     Edge 67, Type (0, 1), BuildingBlock: OJICUG_clean_linker_0, # of connection points: 2
#     Edge 68, Type (0, 1), BuildingBlock: OJICUG_clean_linker_0, # of connection points: 2
#     Edge 69, Type (0, 1), BuildingBlock: OJICUG_clean_linker_0, # of connection points: 2
#     Edge 70, Type (0, 1), BuildingBlock: OJICUG_clean_linker_0, # of connection points: 2
#     Edge 71, Type (0, 1), BuildingBlock: OJICUG_clean_linker_0, # of connection points: 2
#     Edge 72, Type (0, 1), BuildingBlock: OJICUG_clean_linker_0, # of connection points: 2
#     Edge 73, Type (0, 1), BuildingBlock: OJICUG_clean_linker_0, # of connection points: 2
#     Edge 74, Type (0, 1), BuildingBlock: OJICUG_clean_linker_0, # of connection points: 2
#     Edge 75, Type (0, 1), BuildingBlock: OJICUG_clean_linker_0, # of connection points: 2
#     Edge 76, Type (0, 1), BuildingBlock: OJICUG_clean_linker_0, # of connection points: 2
#     Edge 77, Type (0, 1), BuildingBlock: OJICUG_clean_linker_0, # of connection points: 2
#     Edge 78, Type (0, 1), BuildingBlock: OJICUG_clean_linker_0, # of connection points: 2
#     Edge 79, Type (0, 1), BuildingBlock: OJICUG_clean_linker_0, # of connection points: 2
#     Edge 80, Type (0, 1), BuildingBlock: OJICUG_clean_linker_0, # of connection points: 2
#     Edge 81, Type (0, 1), BuildingBlock: OJICUG_clean_linker_0, # of connection points: 2
#     Edge 82, Type (0, 1), BuildingBlock: OJICUG_clean_linker_0, # of connection points: 2
#     Edge 83, Type (0, 1), BuildingBlock: OJICUG_clean_linker_0, # of connection points: 2
#     Edge 84, Type (0, 1), BuildingBlock: OJICUG_clean_linker_0, # of connection points: 2
#     Edge 85, Type (0, 1), BuildingBlock: OJICUG_clean_linker_0, # of connection points: 2
#     Edge 86, Type (0, 1), BuildingBlock: OJICUG_clean_linker_0, # of connection points: 2
#     Edge 87, Type (0, 1), BuildingBlock: OJICUG_clean_linker_0, # of connection points: 2
#     Edge 88, Type (0, 1), BuildingBlock: OJICUG_clean_linker_0, # of connection points: 2
#     Edge 89, Type (0, 1), BuildingBlock: OJICUG_clean_linker_0, # of connection points: 2
#     Edge 90, Type (0, 1), BuildingBlock: OJICUG_clean_linker_0, # of connection points: 2
#     Edge 91, Type (0, 1), BuildingBlock: OJICUG_clean_linker_0, # of connection points: 2
#     Edge 92, Type (0, 1), BuildingBlock: OJICUG_clean_linker_0, # of connection points: 2
#     Edge 93, Type (0, 1), BuildingBlock: OJICUG_clean_linker_0, # of connection points: 2
#     Edge 94, Type (0, 1), BuildingBlock: OJICUG_clean_linker_0, # of connection points: 2
#     Edge 95, Type (0, 1), BuildingBlock: OJICUG_clean_linker_0, # of connection points: 2
#     Edge 96, Type (0, 1), BuildingBlock: OJICUG_clean_linker_0, # of connection points: 2
#     Edge 97, Type (0, 1), BuildingBlock: OJICUG_clean_linker_0, # of connection points: 2
#     Edge 98, Type (0, 1), BuildingBlock: OJICUG_clean_linker_0, # of connection points: 2
#     Edge 99, Type (0, 1), BuildingBlock: OJICUG_clean_linker_0, # of connection points: 2
#     Edge 100, Type (0, 1), BuildingBlock: OJICUG_clean_linker_0, # of connection points: 2
#     Edge 101, Type (0, 1), BuildingBlock: OJICUG_clean_linker_0, # of connection points: 2
#     Edge 102, Type (0, 1), BuildingBlock: OJICUG_clean_linker_0, # of connection points: 2
#     Edge 103, Type (0, 1), BuildingBlock: OJICUG_clean_linker_0, # of connection points: 2
#     Edge 104, Type (0, 1), BuildingBlock: OJICUG_clean_linker_0, # of connection points: 2
#     Edge 105, Type (0, 1), BuildingBlock: OJICUG_clean_linker_0, # of connection points: 2
#     Edge 106, Type (0, 1), BuildingBlock: OJICUG_clean_linker_0, # of connection points: 2
#     Edge 107, Type (0, 1), BuildingBlock: OJICUG_clean_linker_0, # of connection points: 2
#     Edge 108, Type (0, 1), BuildingBlock: OJICUG_clean_linker_0, # of connection points: 2
#     Edge 109, Type (0, 1), BuildingBlock: OJICUG_clean_linker_0, # of connection points: 2
#     Edge 110, Type (0, 1), BuildingBlock: OJICUG_clean_linker_0, # of connection points: 2
#     Edge 111, Type (0, 1), BuildingBlock: OJICUG_clean_linker_0, # of connection points: 2
#     Edge 112, Type (0, 1), BuildingBlock: OJICUG_clean_linker_0, # of connection points: 2
#     Edge 113, Type (0, 1), BuildingBlock: OJICUG_clean_linker_0, # of connection points: 2
#     Edge 114, Type (0, 1), BuildingBlock: OJICUG_clean_linker_0, # of connection points: 2
#     Edge 115, Type (0, 1), BuildingBlock: OJICUG_clean_linker_0, # of connection points: 2
#     Edge 116, Type (0, 1), BuildingBlock: OJICUG_clean_linker_0, # of connection points: 2
#     Edge 117, Type (0, 1), BuildingBlock: OJICUG_clean_linker_0, # of connection points: 2
#     Edge 118, Type (0, 1), BuildingBlock: OJICUG_clean_linker_0, # of connection points: 2
#     Edge 119, Type (0, 1), BuildingBlock: OJICUG_clean_linker_0, # of connection points: 2
#     Edge 120, Type (0, 1), BuildingBlock: OJICUG_clean_linker_0, # of connection points: 2
#     Edge 121, Type (0, 1), BuildingBlock: OJICUG_clean_linker_0, # of connection points: 2
#     Edge 122, Type (0, 1), BuildingBlock: OJICUG_clean_linker_0, # of connection points: 2
#     Edge 123, Type (0, 1), BuildingBlock: OJICUG_clean_linker_0, # of connection points: 2
#     Edge 124, Type (0, 1), BuildingBlock: OJICUG_clean_linker_0, # of connection points: 2
#     Edge 125, Type (0, 1), BuildingBlock: OJICUG_clean_linker_0, # of connection points: 2
#     Edge 126, Type (0, 1), BuildingBlock: OJICUG_clean_linker_0, # of connection points: 2
#     Edge 127, Type (0, 1), BuildingBlock: OJICUG_clean_linker_0, # of connection points: 2
#     Edge 128, Type (0, 1), BuildingBlock: OJICUG_clean_linker_0, # of connection points: 2
#     Edge 129, Type (0, 1), BuildingBlock: OJICUG_clean_linker_0, # of connection points: 2
#     Edge 130, Type (0, 1), BuildingBlock: OJICUG_clean_linker_0, # of connection points: 2
#     Edge 131, Type (0, 1), BuildingBlock: OJICUG_clean_linker_0, # of connection points: 2
#     Edge 132, Type (0, 1), BuildingBlock: OJICUG_clean_linker_0, # of connection points: 2
#     Edge 133, Type (0, 1), BuildingBlock: OJICUG_clean_linker_0, # of connection points: 2
#     Edge 134, Type (0, 1), BuildingBlock: OJICUG_clean_linker_0, # of connection points: 2
#     Edge 135, Type (0, 1), BuildingBlock: OJICUG_clean_linker_0, # of connection points: 2
# Relax obj value: 0.375
# Max RMSD: 0.287
# Mean RMSD: 0.282
data_MOF--net-ibd--node1-QUQFOY_clean_sbu_3--node2-OJICUG_clean_sbu_0--edge1-OJICUG_clean_linker_0
_symmetry_space_group_name_H-M    P1
_symmetry_Int_Tables_number       1
_symmetry_cell_setting            triclinic
loop_
_symmetry_equiv_pos_as_xyz
'x, y, z'
_cell_length_a     37.911894
_cell_length_b     37.831456
_cell_length_c     37.829722
_cell_angle_alpha  90.306189
_cell_angle_beta   90.50373
_cell_angle_gamma 91.742757
loop_
_atom_site_label
_atom_site_type_symbol
_atom_site_fract_x
_atom_site_fract_y
_atom_site_fract_z
_atom_type_partial_charge
C0 C 0.92767 0.20138 0.38002 0.0
O1 O 0.90215 0.222 0.37614 0.0
Cd2 Cd 0.90778 0.27684 0.34597 0.0
O3 O 0.9566 0.20674 0.36388 0.0
Cd4 Cd -0.0212 0.24603 0.31666 0.0
C5 C -0.01101 0.30666 0.37935 0.0
O6 O 0.92405 0.26129 0.28791 0.0
O7 O 0.96873 0.29666 0.27865 0.0
O8 O -0.00663 0.19207 0.28658 0.0
C9 C 0.93678 0.28805 0.27203 0.0
O10 O 0.95557 0.3094 0.37758 0.0
C11 C 0.0243 0.20244 0.27818 0.0
O12 O 0.00462 0.28411 0.36062 0.0
O13 O 0.03425 0.23345 0.28772 0.0
C14 C -0.01949 0.80137 0.56835 0.0
O15 O 0.95152 0.8173 0.56933 0.0
Cd16 Cd 0.90546 0.80425 0.60917 0.0
O17 O -0.01228 0.77749 0.59059 0.0
Cd18 Cd 0.96053 0.74761 0.64076 0.0
C19 C 0.90001 0.71834 0.58054 0.0
O20 O 0.93719 0.8009 0.66323 0.0
O21 O 0.91473 0.75371 0.68654 0.0
O22 O 0.01836 0.74314 0.66906 0.0
C23 C 0.91713 0.78726 0.68608 0.0
O24 O 0.88478 0.74777 0.58328 0.0
C25 C 0.01506 0.7101 0.67465 0.0
O26 O 0.92822 0.71257 0.5976 0.0
O27 O -0.01377 0.69491 0.6649 0.0
C28 C 0.42066 0.65931 0.90788 0.0
O29 O 0.39694 0.68026 0.89809 0.0
Cd30 Cd 0.40521 0.72989 0.86074 0.0
O31 O 0.45165 0.6614 0.89525 0.0
Cd32 Cd 0.48149 0.69527 0.84877 0.0
C33 C 0.47882 0.76622 0.90259 0.0
O34 O 0.43013 0.70184 0.81108 0.0
O35 O 0.47741 0.73085 0.79598 0.0
O36 O 0.50784 0.64139 0.82929 0.0
C37 C 0.44577 0.72157 0.78903 0.0
O38 O 0.44582 0.76779 0.89637 0.0
C39 C 0.53796 0.65592 0.82384 0.0
O40 O 0.4971 0.74237 0.88867 0.0
O41 O 0.54238 0.68806 0.83305 0.0
C42 C 0.54721 0.26575 0.05746 0.0
O43 O 0.52634 0.28903 0.06824 0.0
Cd44 Cd 0.47127 0.27314 0.09439 0.0
O45 O 0.54374 0.2337 0.06722 0.0
Cd46 Cd 0.50948 0.19703 0.10884 0.0
C47 C 0.45583 0.19833 0.04062 0.0
O48 O 0.48245 0.24034 0.14479 0.0
O49 O 0.45394 0.19017 0.14138 0.0
O50 O 0.56094 0.18815 0.14412 0.0
C51 C 0.45566 0.22158 0.15332 0.0
O52 O 0.44883 0.22927 0.0516 0.0
C53 C 0.55653 0.15483 0.14665 0.0
O54 O 0.47932 0.17985 0.05523 0.0
O55 O 0.53106 0.14045 0.12912 0.0
C56 C 0.90575 0.69954 0.15965 0.0
O57 O 0.89599 0.73107 0.15559 0.0
Cd58 Cd 0.918 0.7749 0.11717 0.0
O59 O 0.93014 0.68688 0.14072 0.0
Cd60 Cd 0.96853 0.71253 0.09411 0.0
C61 C 0.00071 0.77147 0.15265 0.0
O62 O 0.92358 0.74326 0.06411 0.0
O63 O -0.02416 0.76399 0.05426 0.0
O64 O -0.0238 0.66213 0.05482 0.0
C65 C 0.94313 0.76445 0.04711 0.0
O66 O 0.97455 0.79064 0.14547 0.0
C67 C 0.00975 0.66513 0.05545 0.0
O68 O 0.00302 0.74073 0.13955 0.0
O69 O 0.02348 0.68793 0.0765 0.0
C70 C 0.53862 0.79112 0.32692 0.0
O71 O 0.53342 0.82273 0.33619 0.0
Cd72 Cd 0.47476 0.83062 0.35407 0.0
O73 O 0.51959 0.76605 0.33975 0.0
Cd74 Cd 0.47759 0.7622 0.39083 0.0
C75 C 0.42969 0.75612 0.32044 0.0
O76 O 0.47363 0.82169 0.41577 0.0
O77 O 0.42486 0.79102 0.41101 0.0
O78 O 0.51878 0.73145 0.42871 0.0
C79 C 0.44102 0.81868 0.4224 0.0
O80 O 0.43811 0.78886 0.31743 0.0
C81 C 0.49656 0.70775 0.43861 0.0
O82 O 0.44054 0.73849 0.3465 0.0
O83 O 0.46518 0.70982 0.42708 0.0
C84 C 0.412 0.26849 0.63432 0.0
O85 O 0.40786 0.30165 0.63229 0.0
Cd86 Cd 0.43864 0.34105 0.5939 0.0
O87 O 0.43505 0.25309 0.61576 0.0
Cd88 Cd 0.48049 0.27085 0.57226 0.0
C89 C 0.5179 0.32833 0.63223 0.0
O90 O 0.43669 0.30379 0.5432 0.0
O91 O 0.48731 0.30731 0.51821 0.0
O92 O 0.47889 0.21174 0.54495 0.0
C93 C 0.45456 0.31306 0.51679 0.0
O94 O 0.49419 0.35049 0.62567 0.0
C95 C 0.51226 0.21018 0.5425 0.0
O96 O 0.51738 0.29834 0.61707 0.0
O97 O 0.53043 0.23583 0.5556 0.0
C98 C 0.02542 0.28436 0.79558 0.0
O99 O 0.0034 0.30708 0.80503 0.0
Cd100 Cd 0.95247 0.29294 0.83669 0.0
O101 O 0.02379 0.25275 0.80726 0.0
Cd102 Cd -0.01118 0.2216 0.85397 0.0
C103 C 0.92755 0.21646 0.79143 0.0
O104 O -0.02046 0.27253 0.88922 0.0
O105 O 0.94083 0.23052 0.89626 0.0
O106 O 0.04133 0.19812 0.88094 0.0
C107 C 0.95421 0.25984 0.90684 0.0
O108 O 0.92309 0.24935 0.79641 0.0
C109 C 0.02683 0.1683 0.88802 0.0
O110 O 0.95005 0.19995 0.80936 0.0
O111 O -0.00462 0.16273 0.87721 0.0
C112 C 0.38774 0.90082 0.21104 0.0
O113 O 0.38279 0.88205 0.23837 0.0
Cd114 Cd 0.3539 0.90292 0.28893 0.0
O115 O 0.37697 0.93239 0.20952 0.0
Cd116 Cd 0.34202 0.97284 0.24552 0.0
C117 C 0.40363 -0.02181 0.30862 0.0
O118 O 0.30314 0.92499 0.25969 0.0
O119 O 0.29607 0.97217 0.29076 0.0
O120 O 0.3204 -0.00726 0.18898 0.0
C121 C 0.2845 0.94195 0.28085 0.0
O122 O 0.3952 0.94646 0.31685 0.0
C123 C 0.31343 0.02356 0.1997 0.0
O124 O 0.38898 -0.0068 0.28271 0.0
O125 O 0.32209 0.03154 0.23126 0.0
C126 C 0.28153 0.04862 0.54286 0.0
O127 O 0.29839 0.04476 0.51434 0.0
Cd128 Cd 0.27733 0.06454 0.45813 0.0
O129 O 0.25341 0.06607 0.54329 0.0
Cd130 Cd 0.22052 0.1008 0.50015 0.0
C131 C 0.19343 0.02823 0.45878 0.0
O132 O 0.26698 0.1259 0.46233 0.0
O133 O 0.21372 0.12709 0.4416 0.0
O134 O 0.2164 0.14904 0.54159 0.0
C135 C 0.24584 0.13692 0.43897 0.0
O136 O 0.22314 0.03052 0.44337 0.0
C137 C 0.1831 0.15099 0.53878 0.0
O138 O 0.18602 0.04891 0.48392 0.0
O139 O 0.1671 0.12796 0.51954 0.0
C140 C 0.15184 0.89069 0.71844 0.0
O141 O 0.15437 0.89012 0.75196 0.0
Cd142 Cd 0.1265 0.9293 0.79212 0.0
O143 O 0.13504 0.91493 0.70293 0.0
Cd144 Cd 0.102 0.96663 0.72222 0.0
C145 C 0.16412 0.00929 0.77079 0.0
O146 O 0.06965 0.93349 0.76644 0.0
O147 O 0.0601 -0.01071 0.76594 0.0
O148 O 0.06316 0.9637 0.67056 0.0
C149 C 0.05226 0.95894 0.77802 0.0
O150 O 0.15753 -0.01301 0.79513 0.0
C151 C 0.06792 -0.00386 0.66278 0.0
O152 O 0.15057 0.00533 0.74021 0.0
O153 O 0.09016 0.01383 0.68141 0.0
C154 C 0.33136 0.82412 -0.00386 0.0
O155 O 0.35342 0.82545 0.97113 0.0
Cd156 Cd 0.33553 0.85004 0.91616 0.0
O157 O 0.30153 0.83819 -0.00726 0.0
Cd158 Cd 0.27002 0.87458 0.95044 0.0
C159 C 0.25848 0.80396 0.89864 0.0
O160 O 0.32007 0.91044 0.93032 0.0
O161 O 0.27224 0.91283 0.89899 0.0
O162 O 0.25174 0.90521 0.00322 0.0
C163 C 0.30253 0.92588 0.90667 0.0
O164 O 0.29116 0.8069 0.8914 0.0
C165 C 0.21975 0.90728 -0.00646 0.0
O166 O 0.24466 0.82524 0.91997 0.0
O167 O 0.21124 0.89428 0.96357 0.0
C168 C 0.20675 0.30538 0.06398 0.0
O169 O 0.23943 0.30836 0.07149 0.0
Cd170 Cd 0.27979 0.35348 0.05247 0.0
O171 O 0.19209 0.32744 0.04373 0.0
Cd172 Cd 0.21474 0.37704 0.00927 0.0
C173 C 0.2744 0.32796 0.96753 0.0
O174 O 0.24654 0.40572 0.05782 0.0
O175 O 0.25689 0.42749 0.00633 0.0
O176 O 0.15954 0.4088 0.00444 0.0
C177 C 0.25979 0.43053 0.03963 0.0
O178 O 0.29596 0.33429 -0.0071 0.0
C179 C 0.1602 0.4091 0.9708 0.0
O180 O 0.24294 0.3381 0.96903 0.0
O181 O 0.18483 0.39279 0.95603 0.0
C182 C 0.64869 0.06466 0.04024 0.0
O183 O 0.6681 0.07414 0.06628 0.0
Cd184 Cd 0.71935 0.11203 0.06218 0.0
O185 O 0.65407 0.07767 0.00974 0.0
Cd186 Cd 0.69599 0.12465 -0.01049 0.0
C187 C 0.76455 0.07428 -0.00413 0.0
O188 O 0.70415 0.16808 0.0379 0.0
O189 O 0.74826 0.15983 0.00356 0.0
O190 O 0.6564 0.15634 0.95055 0.0
C191 C 0.73401 0.17875 0.02674 0.0
O192 O 0.76585 0.08224 0.02862 0.0
C193 C 0.67742 0.15579 0.92454 0.0
O194 O 0.73885 0.08327 0.97666 0.0
O195 O 0.70542 0.13881 0.92831 0.0
C196 C 0.15017 0.56001 0.19891 0.0
O197 O 0.14423 0.5423 0.17078 0.0
Cd198 Cd 0.11141 0.48801 0.16622 0.0
O199 O 0.13652 0.55055 0.22815 0.0
Cd200 Cd 0.09119 0.5051 0.24547 0.0
C201 C 0.14625 0.43925 0.23472 0.0
O202 O 0.05675 0.50215 0.19094 0.0
O203 O 0.04937 0.45842 0.22658 0.0
O204 O 0.06258 0.55194 0.27668 0.0
C205 C 0.04015 0.47375 0.19848 0.0
O206 O 0.14107 0.44318 0.20164 0.0
C207 C 0.05457 0.53362 0.30359 0.0
O208 O 0.13328 0.46037 0.25706 0.0
O209 O 0.06529 0.50217 0.30443 0.0
C210 C 0.7026 0.78053 0.57854 0.0
O211 O 0.73586 0.77942 0.58226 0.0
Cd212 Cd 0.77914 0.81743 0.55524 0.0
O213 O 0.6889 0.80337 0.55855 0.0
Cd214 Cd 0.7131 0.84815 0.51894 0.0
C215 C 0.75962 0.79463 0.47 0.0
O216 O 0.75945 0.87585 0.5549 0.0
O217 O 0.76327 0.88323 0.49836 0.0
O218 O 0.6712 0.89517 0.52657 0.0
C219 C 0.774 0.89166 0.52916 0.0
O220 O 0.78323 0.79833 0.494 0.0
C221 C 0.66065 0.89365 0.49462 0.0
O222 O 0.72879 0.806 0.47426 0.0
O223 O 0.67228 0.86899 0.47556 0.0
C224 C 0.91469 0.97237 0.16655 0.0
O225 O 0.91001 0.93976 0.15919 0.0
Cd226 Cd 0.8645 0.90098 0.18019 0.0
O227 O 0.89532 -0.0123 0.18903 0.0
Cd228 Cd 0.84697 0.96682 0.22783 0.0
C229 C 0.89044 0.90048 0.26565 0.0
O230 O 0.81516 0.93802 0.17994 0.0
O231 O 0.79514 0.92673 0.2319 0.0
O232 O 0.81574 0.02213 0.23327 0.0
C233 C 0.79076 0.92504 0.19871 0.0
O234 O 0.88349 0.88157 0.23842 0.0
C235 C 0.81508 0.02141 0.26688 0.0
O236 O 0.88272 0.93284 0.2665 0.0
O237 O 0.83233 -0.00257 0.28185 0.0
C238 C 0.23338 0.54477 0.50975 0.0
O239 O 0.26243 0.54286 0.5265 0.0
Cd240 Cd 0.31568 0.56986 0.50508 0.0
O241 O 0.23122 0.5627 0.48146 0.0
Cd242 Cd 0.26945 0.60316 0.44639 0.0
C243 C 0.31748 0.53537 0.4206 0.0
O244 O 0.29651 0.62915 0.49941 0.0
O245 O 0.31538 0.64994 0.44981 0.0
O246 O 0.21246 0.62929 0.43973 0.0
C247 C 0.31445 0.6525 0.48317 0.0
O248 O 0.32951 0.53555 0.45212 0.0
C249 C 0.21911 0.64337 0.41009 0.0
O250 O 0.29484 0.55753 0.41118 0.0
O251 O 0.24887 0.63755 0.39651 0.0
C252 C 0.41251 0.43788 0.69342 0.0
O253 O 0.41439 0.40489 0.68745 0.0
Cd254 Cd 0.37342 0.3607 0.70817 0.0
O255 O 0.38882 0.44987 0.71349 0.0
Cd256 Cd 0.34029 0.42455 0.74841 0.0
C257 C 0.39045 0.36894 0.79552 0.0
O258 O 0.32004 0.39029 0.69827 0.0
O259 O 0.29011 0.38206 0.74583 0.0
O260 O 0.30935 0.47985 0.74081 0.0
C261 C 0.29254 0.37783 0.71266 0.0
O262 O 0.38973 0.34812 0.76901 0.0
C263 C 0.30272 0.48357 0.77344 0.0
O264 O 0.37654 0.39896 0.79361 0.0
O265 O 0.31446 0.46042 0.79425 0.0
C266 C 0.66274 0.02461 0.67511 0.0
O267 O 0.65509 -0.00545 0.66155 0.0
Cd268 Cd 0.61493 0.95189 0.68484 0.0
O269 O 0.6468 0.03583 0.70226 0.0
Cd270 Cd 0.59634 0.01316 0.73716 0.0
C271 C 0.64708 0.95111 0.77027 0.0
O272 O 0.56305 -0.01537 0.68963 0.0
O273 O 0.54772 0.97001 0.74243 0.0
O274 O 0.56896 0.07026 0.73694 0.0
C275 C 0.54091 0.9694 0.7096 0.0
O276 O 0.64221 0.93498 0.7409 0.0
C277 C 0.56025 0.06841 0.76924 0.0
O278 O 0.63427 -0.01873 0.77552 0.0
O279 O 0.57204 0.04298 0.78708 0.0
C280 C 0.80239 0.57404 0.95312 0.0
O281 O 0.80082 0.57062 0.91969 0.0
Cd282 Cd 0.76243 0.60216 0.88125 0.0
O283 O 0.78157 0.59421 0.96931 0.0
Cd284 Cd 0.73196 0.62996 0.95245 0.0
C285 C 0.6882 0.5632 0.91092 0.0
O286 O 0.76455 0.65971 0.90683 0.0
O287 O 0.71023 0.67438 0.91114 0.0
O288 O 0.73849 0.66801 0.00469 0.0
C289 C 0.74072 0.68094 0.89884 0.0
O290 O 0.70604 0.56957 0.88326 0.0
C291 C 0.70628 0.66392 0.01336 0.0
O292 O 0.69492 0.5795 0.93958 0.0
O293 O 0.68725 0.64278 -0.0053 0.0
C294 C 0.9062 0.45128 0.6915 0.0
O295 O 0.90015 0.43093 0.7175 0.0
Cd296 Cd 0.86604 0.44619 0.76739 0.0
O297 O 0.89253 0.4815 0.68951 0.0
Cd298 Cd 0.84879 0.51451 0.72268 0.0
C299 C 0.90562 0.5269 0.78948 0.0
O300 O 0.81375 0.4629 0.73826 0.0
O301 O 0.79796 0.51137 0.76273 0.0
O302 O 0.82681 0.52492 0.66417 0.0
C303 C 0.79169 0.47878 0.75684 0.0
O304 O 0.89941 0.49445 0.79661 0.0
C305 C 0.81621 0.55569 0.67091 0.0
O306 O 0.8913 0.54109 0.76282 0.0
O307 O 0.82472 0.56891 0.70086 0.0
C308 C 0.77826 0.29764 0.50645 0.0
O309 O 0.79846 0.31031 0.4828 0.0
Cd310 Cd 0.78234 0.34795 0.43706 0.0
O311 O 0.74573 0.30542 0.50786 0.0
Cd312 Cd 0.7084 0.34744 0.47498 0.0
C313 C 0.71323 0.29869 0.40161 0.0
O314 O 0.7554 0.39014 0.47436 0.0
O315 O 0.71348 0.39995 0.43755 0.0
O316 O 0.67768 0.36254 0.52834 0.0
C317 C 0.74083 0.41137 0.45387 0.0
O318 O 0.74511 0.30951 0.39808 0.0
C319 C 0.64922 0.36989 0.51236 0.0
O320 O 0.69515 0.30804 0.42787 0.0
O321 O 0.64716 0.3625 0.47969 0.0
C322 C 0.65375 0.40344 0.1856 0.0
O323 O 0.65878 0.38691 0.21426 0.0
Cd324 Cd 0.62909 0.39605 0.26854 0.0
O325 O 0.6312 0.42754 0.18383 0.0
Cd326 Cd 0.59268 0.45353 0.22717 0.0
C327 C 0.65974 0.47964 0.28044 0.0
O328 O 0.56884 0.39875 0.25094 0.0
O329 O 0.55546 0.44613 0.27923 0.0
O330 O 0.54704 0.46446 0.18326 0.0
C331 C 0.54902 0.4136 0.27281 0.0
O332 O 0.65735 0.44918 0.29443 0.0
C333 C 0.54623 0.49733 0.1901 0.0
O334 O 0.64116 0.48711 0.25366 0.0
O335 O 0.56824 0.50975 0.21271 0.0
Sc336 Sc 0.07363 0.12021 0.08852 0.0
Sc337 Sc 0.11668 0.05344 0.13269 0.0
Sc338 Sc 0.15212 0.08987 0.0573 0.0
O339 O 0.11373 0.08759 0.09286 0.0
C340 C 0.08491 0.10536 0.00969 0.0
C341 C 0.03657 0.04814 0.11502 0.0
C342 C 0.14225 0.01002 0.06513 0.0
C343 C 0.0868 0.1221 0.16983 0.0
C344 C 0.14113 0.1686 0.07313 0.0
C345 C 0.19519 0.07476 0.12741 0.0
O346 O 0.06316 0.1036 0.035 0.0
O347 O 0.06512 0.03217 0.12046 0.0
O348 O 0.14109 0.03595 0.04398 0.0
O349 O 0.08237 0.13879 0.14123 0.0
O350 O 0.16262 0.1435 0.07184 0.0
O351 O 0.16828 0.07369 0.14713 0.0
O352 O 0.10774 0.16369 0.0715 0.0
O353 O 0.09467 0.08961 0.17088 0.0
O354 O 0.19269 0.07449 0.09392 0.0
O355 O 0.03563 0.08066 0.10659 0.0
O356 O 0.11806 0.10582 0.0148 0.0
O357 O 0.13918 0.01341 0.09858 0.0
Sc358 Sc 0.12595 0.83656 0.40383 0.0
Sc359 Sc 0.05757 0.79099 0.35936 0.0
Sc360 Sc 0.08066 0.87586 0.33544 0.0
O361 O 0.08844 0.83432 0.36623 0.0
C362 C 0.10535 0.91416 0.40733 0.0
C363 C 0.06003 0.80093 0.4412 0.0
C364 C 0.004 0.85331 0.34752 0.0
C365 C 0.13167 0.75849 0.3782 0.0
C366 C 0.16153 0.87466 0.33761 0.0
C367 C 0.06718 0.81148 0.28201 0.0
O368 O 0.10845 0.88588 0.42484 0.0
O369 O 0.04221 0.79532 0.41303 0.0
O370 O 0.02704 0.87802 0.35238 0.0
O371 O 0.14707 0.78797 0.38533 0.0
O372 O 0.13395 0.87443 0.31825 0.0
O373 O 0.07165 0.78717 0.3046 0.0
O374 O 0.16187 0.86505 0.3698 0.0
O375 O 0.09861 0.75509 0.37288 0.0
O376 O 0.06476 0.84374 0.29088 0.0
O377 O 0.09273 0.80956 0.44169 0.0
O378 O 0.09718 0.91389 0.37475 0.0
O379 O 0.01225 0.82105 0.34486 0.0
Sc380 Sc 0.39382 0.83161 0.60208 0.0
Sc381 Sc 0.30835 0.85644 0.57869 0.0
Sc382 Sc 0.34068 0.86842 0.66563 0.0
O383 O 0.34736 0.85187 0.61536 0.0
C384 C 0.38064 0.79923 0.67884 0.0
C385 C 0.34013 0.7812 0.56049 0.0
C386 C 0.26326 0.83832 0.64556 0.0
C387 C 0.37514 0.87488 0.53271 0.0
C388 C 0.42109 0.89086 0.65342 0.0
C389 C 0.30869 0.9298 0.62108 0.0
O390 O 0.39818 0.80367 0.6507 0.0
O391 O 0.3169 0.80458 0.55693 0.0
O392 O 0.28646 0.85189 0.66625 0.0
O393 O 0.39522 0.85726 0.55236 0.0
O394 O 0.39406 0.88741 0.67269 0.0
O395 O 0.29748 0.909 0.59662 0.0
O396 O 0.4235 0.87583 0.62354 0.0
O397 O 0.34281 0.87917 0.53939 0.0
O398 O 0.32768 0.92023 0.647 0.0
O399 O 0.36819 0.78568 0.57882 0.0
O400 O 0.35448 0.81792 0.68681 0.0
O401 O 0.26804 0.83457 0.61261 0.0
Sc402 Sc 0.34797 0.11582 0.78962 0.0
Sc403 Sc 0.38419 0.19029 0.83142 0.0
Sc404 Sc 0.31537 0.14311 0.87037 0.0
O405 O 0.34875 0.14991 0.83023 0.0
C406 C 0.26817 0.11724 0.8036 0.0
C407 C 0.36177 0.191 0.75298 0.0
C408 C 0.31703 0.2242 0.8675 0.0
C409 C 0.42875 0.12924 0.7995 0.0
C410 C 0.33422 0.06512 0.8554 0.0
C411 C 0.38689 0.16707 0.90928 0.0
O412 O 0.29234 0.12153 0.78073 0.0
O413 O 0.365 0.20854 0.78167 0.0
O414 O 0.29731 0.19637 0.86565 0.0
O415 O 0.4031 0.1069 0.7976 0.0
O416 O 0.33204 0.08982 0.87815 0.0
O417 O 0.40453 0.17298 0.88137 0.0
O418 O 0.33628 0.07071 0.82237 0.0
O419 O 0.42483 0.16191 0.80518 0.0
O420 O 0.35375 0.16092 0.90904 0.0
O421 O 0.35947 0.15733 0.75201 0.0
O422 O 0.27355 0.12294 0.83642 0.0
O423 O 0.34926 0.22449 0.85864 0.0
Sc424 Sc 0.6554 0.35476 0.88034 0.0
Sc425 Sc 0.5851 0.30626 0.84472 0.0
Sc426 Sc 0.59163 0.39718 0.83314 0.0
O427 O 0.61016 0.35264 0.85267 0.0
C428 C 0.62244 0.42877 0.89939 0.0
C429 C 0.60817 0.30808 0.92706 0.0
C430 C 0.52083 0.35466 0.85553 0.0
C431 C 0.65796 0.27783 0.84622 0.0
C432 C 0.67497 0.40263 0.81915 0.0
C433 C 0.57819 0.34511 0.76978 0.0
O434 O 0.64887 0.40906 0.89682 0.0
O435 O 0.59544 0.29154 0.89985 0.0
O436 O 0.53744 0.38158 0.84316 0.0
O437 O 0.66834 0.30042 0.86927 0.0
O438 O 0.64482 0.4168 0.82099 0.0
O439 O 0.57325 0.31838 0.78985 0.0
O440 O 0.68207 0.37383 0.83461 0.0
O441 O 0.63229 0.28387 0.82599 0.0
O442 O 0.58802 0.37548 0.78117 0.0
O443 O 0.62748 0.3361 0.92514 0.0
O444 O 0.5935 0.42106 0.88408 0.0
O445 O 0.53536 0.32544 0.8613 0.0
Sc446 Sc 0.88292 0.34381 0.08967 0.0
Sc447 Sc 0.85408 0.42535 0.11233 0.0
Sc448 Sc 0.81887 0.38192 0.03924 0.0
O449 O 0.8524 0.38398 0.07987 0.0
C450 C 0.88764 0.34538 0.00978 0.0
C451 C 0.93181 0.41175 0.11034 0.0
C452 C 0.84405 0.45955 0.03649 0.0
C453 C 0.8644 0.36108 0.16491 0.0
C454 C 0.81121 0.30534 0.06437 0.0
C455 C 0.77437 0.41164 0.10083 0.0
O456 O 0.90512 0.34851 0.03845 0.0
O457 O 0.90873 0.43399 0.10215 0.0
O458 O 0.84168 0.43022 0.02001 0.0
O459 O 0.85994 0.33836 0.14049 0.0
O460 O 0.79536 0.33367 0.05793 0.0
O461 O 0.79989 0.41478 0.12266 0.0
O462 O 0.84432 0.30477 0.07033 0.0
O463 O 0.8678 0.39402 0.15841 0.0
O464 O 0.7785 0.4096 0.06757 0.0
O465 O 0.92491 0.37849 0.11101 0.0
O466 O 0.85507 0.35252 0.00718 0.0
O467 O 0.84204 0.46169 0.07007 0.0
Sc468 Sc 0.85127 0.56887 0.3378 0.0
Sc469 Sc 0.88044 0.64926 0.37372 0.0
Sc470 Sc 0.80314 0.60973 0.40328 0.0
O471 O 0.84505 0.60918 0.37153 0.0
C472 C 0.77038 0.57235 0.33397 0.0
C473 C 0.87435 0.63555 0.29242 0.0
C474 C 0.80691 0.68779 0.38274 0.0
C475 C 0.92923 0.58291 0.36188 0.0
C476 C 0.82044 0.53174 0.40701 0.0
C477 C 0.86337 0.6439 0.45302 0.0
O478 O 0.79875 0.57355 0.31625 0.0
O479 O 0.87411 0.65739 0.3181 0.0
O480 O 0.78774 0.65961 0.3825 0.0
O481 O 0.90379 0.56062 0.35733 0.0
O482 O 0.81698 0.5599 0.42495 0.0
O483 O 0.8876 0.64322 0.42995 0.0
O484 O 0.83042 0.53159 0.37503 0.0
O485 O 0.92466 0.61598 0.36459 0.0
O486 O 0.83122 0.63667 0.44561 0.0
O487 O 0.87142 0.60225 0.29626 0.0
O488 O 0.7692 0.58211 0.36608 0.0
O489 O 0.84047 0.68728 0.38312 0.0
Sc490 Sc 0.87781 0.85516 0.87262 0.0
Sc491 Sc 0.81085 0.89293 0.91758 0.0
Sc492 Sc 0.84754 0.93458 0.84472 0.0
O493 O 0.84576 0.89467 0.87858 0.0
C494 C 0.92646 0.92262 0.85194 0.0
C495 C 0.87963 0.86017 0.95222 0.0
C496 C 0.83466 0.97053 0.92054 0.0
C497 C 0.80521 0.81661 0.89071 0.0
C498 C 0.8581 0.86722 0.79541 0.0
C499 C 0.7673 0.9221 0.85358 0.0
O500 O 0.92019 0.88936 0.85352 0.0
O501 O 0.84645 0.86496 0.95249 0.0
O502 O 0.83499 0.97198 0.88672 0.0
O503 O 0.83879 0.81615 0.88973 0.0
O504 O 0.86044 0.90076 0.7996 0.0
O505 O 0.77067 0.91955 0.88699 0.0
O506 O 0.85762 0.84611 0.82119 0.0
O507 O 0.78873 0.84442 0.8976 0.0
O508 O 0.79338 0.92408 0.83289 0.0
O509 O 0.89775 0.86364 0.92446 0.0
O510 O 0.90235 0.94499 0.85487 0.0
O511 O 0.83256 0.94153 0.93718 0.0
Sc512 Sc 0.83602 0.09571 0.54955 0.0
Sc513 Sc 0.91248 0.1379 0.58271 0.0
Sc514 Sc 0.87219 0.0671 0.62787 0.0
O515 O 0.87393 0.10029 0.58669 0.0
C516 C 0.79229 0.07772 0.61883 0.0
C517 C 0.84113 0.17699 0.56303 0.0
C518 C 0.89708 0.13942 0.66469 0.0
C519 C 0.90171 0.12095 0.50264 0.0
C520 C 0.85097 0.01738 0.56182 0.0
C521 C 0.95302 0.06962 0.60818 0.0
O522 O 0.79567 0.07866 0.58553 0.0
O523 O 0.87455 0.17687 0.56762 0.0
O524 O 0.88796 0.10691 0.66592 0.0
O525 O 0.8695 0.11254 0.50733 0.0
O526 O 0.85537 0.02321 0.59477 0.0
O527 O 0.95334 0.1016 0.59762 0.0
O528 O 0.84893 0.04209 0.53933 0.0
O529 O 0.92321 0.12597 0.52822 0.0
O530 O 0.92531 0.05313 0.61844 0.0
O531 O 0.82206 0.14898 0.5592 0.0
O532 O 0.81859 0.07893 0.63979 0.0
O533 O 0.90529 0.15498 0.63618 0.0
Sc534 Sc 0.61262 0.0416 0.33611 0.0
Sc535 Sc 0.64926 0.09495 0.40341 0.0
Sc536 Sc 0.57662 0.12283 0.35488 0.0
O537 O 0.61261 0.08637 0.36509 0.0
C538 C 0.5949 0.09867 0.278 0.0
C539 C 0.6933 0.06151 0.34084 0.0
C540 C 0.64709 0.16955 0.36808 0.0
C541 C 0.63004 0.01496 0.41428 0.0
C542 C 0.53212 0.04962 0.3479 0.0
C543 C 0.57952 0.1271 0.43751 0.0
O544 O 0.59866 0.06667 0.28687 0.0
O545 O 0.69143 0.07215 0.37277 0.0
O546 O 0.61415 0.16654 0.36151 0.0
O547 O 0.626 0.00997 0.38119 0.0
O548 O 0.53482 0.08326 0.34676 0.0
O549 O 0.61221 0.12002 0.43872 0.0
O550 O 0.55864 0.02995 0.34771 0.0
O551 O 0.63587 0.04539 0.42783 0.0
O552 O 0.56142 0.12546 0.40912 0.0
O553 O 0.66643 0.05177 0.32266 0.0
O554 O 0.58987 0.12323 0.30016 0.0
O555 O 0.66477 0.14466 0.38098 0.0
Sc556 Sc 0.6185 0.85256 0.06409 0.0
Sc557 Sc 0.55475 0.79799 0.10644 0.0
Sc558 Sc 0.57853 0.88075 0.14123 0.0
O559 O 0.5841 0.84364 0.10379 0.0
C560 C 0.66055 0.87958 0.1332 0.0
C561 C 0.62842 0.77107 0.07813 0.0
C562 C 0.57356 0.80909 0.18616 0.0
C563 C 0.55043 0.81807 0.02534 0.0
C564 C 0.59193 0.92996 0.07393 0.0
C565 C 0.5004 0.85639 0.12937 0.0
O566 O 0.6591 0.87222 0.10027 0.0
O567 O 0.59718 0.76548 0.08913 0.0
O568 O 0.57275 0.84243 0.18258 0.0
O569 O 0.58084 0.83337 0.02474 0.0
O570 O 0.58479 0.92484 0.10621 0.0
O571 O 0.50841 0.82432 0.12457 0.0
O572 O 0.60134 0.90523 0.05364 0.0
O573 O 0.53664 0.80529 0.05321 0.0
O574 O 0.52324 0.88152 0.13154 0.0
O575 O 0.64041 0.80154 0.0699 0.0
O576 O 0.63346 0.88175 0.15242 0.0
O577 O 0.57042 0.78769 0.16025 0.0
Sc578 Sc 0.31846 0.64036 0.09621 0.0
Sc579 Sc 0.40493 0.65684 0.122 0.0
Sc580 Sc 0.35138 0.59892 0.17132 0.0
O581 O 0.35806 0.6318 0.13015 0.0
C582 C 0.27526 0.63111 0.1677 0.0
C583 C 0.35187 0.715 0.09549 0.0
C584 C 0.38929 0.66987 0.20206 0.0
C585 C 0.3856 0.63142 0.0468 0.0
C586 C 0.3148 0.55733 0.10647 0.0
C587 C 0.4311 0.58547 0.1551 0.0
O588 O 0.27807 0.64025 0.13559 0.0
O589 O 0.38234 0.70225 0.09781 0.0
O590 O 0.37463 0.63925 0.20632 0.0
O591 O 0.35373 0.63973 0.05196 0.0
O592 O 0.32745 0.55777 0.13788 0.0
O593 O 0.43681 0.61646 0.14374 0.0
O594 O 0.31062 0.58501 0.08825 0.0
O595 O 0.40891 0.6322 0.0712 0.0
O596 O 0.40062 0.5738 0.16316 0.0
O597 O 0.32413 0.69665 0.10184 0.0
O598 O 0.30052 0.61799 0.1849 0.0
O599 O 0.40052 0.68124 0.17246 0.0
Sc600 Sc 0.11247 0.56932 0.82007 0.0
Sc601 Sc 0.15587 0.60313 0.89421 0.0
Sc602 Sc 0.09138 0.65118 0.85289 0.0
O603 O 0.12036 0.60817 0.85545 0.0
C604 C 0.10062 0.63931 0.77397 0.0
C605 C 0.19341 0.5699 0.82611 0.0
C606 C 0.16821 0.68204 0.8745 0.0
C607 C 0.12413 0.52698 0.8913 0.0
C608 C 0.03577 0.5887 0.83562 0.0
C609 C 0.09105 0.63576 0.93375 0.0
O610 O 0.09857 0.60582 0.77797 0.0
O611 O 0.19177 0.57631 0.85924 0.0
O612 O 0.13523 0.68582 0.8694 0.0
O613 O 0.1232 0.52754 0.85763 0.0
O614 O 0.04407 0.62161 0.83572 0.0
O615 O 0.12352 0.628 0.93394 0.0
O616 O 0.05855 0.56482 0.83497 0.0
O617 O 0.13128 0.55437 0.90974 0.0
O618 O 0.0742 0.64262 0.90564 0.0
O619 O 0.16693 0.57239 0.80542 0.0
O620 O 0.10698 0.66025 0.79967 0.0
O621 O 0.18145 0.65218 0.88036 0.0
Sc622 Sc 0.13289 0.36345 0.54984 0.0
Sc623 Sc 0.05417 0.3294 0.58343 0.0
Sc624 Sc 0.09374 0.40328 0.62181 0.0
O625 O 0.09356 0.36572 0.58442 0.0
C626 C 0.17064 0.37686 0.62451 0.0
C627 C 0.11877 0.28281 0.56331 0.0
C628 C 0.0686 0.33492 0.6632 0.0
C629 C 0.06241 0.34884 0.50402 0.0
C630 C 0.1299 0.44488 0.55757 0.0
C631 C 0.01553 0.40051 0.60537 0.0
O632 O 0.17245 0.37337 0.59097 0.0
O633 O 0.08571 0.28619 0.56599 0.0
O634 O 0.06979 0.36846 0.66038 0.0
O635 O 0.09599 0.35222 0.50657 0.0
O636 O 0.12007 0.44282 0.58955 0.0
O637 O 0.01675 0.36706 0.60191 0.0
O638 O 0.12995 0.41828 0.53707 0.0
O639 O 0.04236 0.3436 0.53039 0.0
O640 O 0.04315 0.4204 0.60473 0.0
O641 O 0.14011 0.30895 0.56028 0.0
O642 O 0.14296 0.38592 0.6403 0.0
O643 O 0.06645 0.31457 0.63645 0.0
Sc644 Sc 0.55377 0.60816 0.62123 0.0
Sc645 Sc 0.60523 0.53736 0.64637 0.0
Sc646 Sc 0.61951 0.5762 0.56628 0.0
O647 O 0.59175 0.57382 0.61108 0.0
C648 C 0.5464 0.60702 0.53897 0.0
C649 C 0.52235 0.53189 0.64415 0.0
C650 C 0.607 0.49632 0.57296 0.0
C651 C 0.58542 0.59866 0.69843 0.0
C652 C 0.62012 0.65439 0.59489 0.0
C653 C 0.67842 0.56215 0.62099 0.0
O654 O 0.53103 0.60597 0.56866 0.0
O655 O 0.55224 0.51762 0.64672 0.0
O656 O 0.60234 0.52292 0.55308 0.0
O657 O 0.57147 0.61729 0.67468 0.0
O658 O 0.63619 0.62869 0.58103 0.0
O659 O 0.65802 0.55878 0.64716 0.0
O660 O 0.58857 0.65217 0.60652 0.0
O661 O 0.59615 0.56793 0.69272 0.0
O662 O 0.66753 0.5573 0.58953 0.0
O663 O 0.51831 0.56468 0.63722 0.0
O664 O 0.57796 0.59769 0.5353 0.0
O665 O 0.61581 0.49969 0.60536 0.0
Sc666 Sc 0.29911 0.3278 0.35396 0.0
Sc667 Sc 0.33236 0.35866 0.27495 0.0
Sc668 Sc 0.36566 0.28403 0.31247 0.0
O669 O 0.33175 0.3231 0.31368 0.0
C670 C 0.37222 0.30905 0.39012 0.0
C671 C 0.32094 0.40644 0.34216 0.0
C672 C 0.41142 0.35023 0.28823 0.0
C673 C 0.25293 0.34919 0.28563 0.0
C674 C 0.29775 0.24666 0.34797 0.0
C675 C 0.34987 0.28599 0.23528 0.0
O676 O 0.33889 0.31255 0.3922 0.0
O677 O 0.31844 0.40289 0.30874 0.0
O678 O 0.40657 0.31673 0.28784 0.0
O679 O 0.25737 0.34595 0.31903 0.0
O680 O 0.33 0.2472 0.33879 0.0
O681 O 0.34902 0.31969 0.23633 0.0
O682 O 0.27947 0.27428 0.34809 0.0
O683 O 0.27808 0.34675 0.26375 0.0
O684 O 0.34421 0.26758 0.26265 0.0
O685 O 0.31829 0.38045 0.363 0.0
O686 O 0.38744 0.30102 0.36162 0.0
O687 O 0.38604 0.37131 0.28743 0.0
C688 C 0.07088 0.19658 0.23285 0.0
C689 C 0.04616 0.18051 0.2555 0.0
H690 H 0.10334 0.19014 0.18737 0.0
C691 C 0.03961 0.1438 0.25335 0.0
H692 H 0.0764 0.22483 0.23403 0.0
C693 C 0.05571 0.12384 0.22725 0.0
C694 C 0.07784 0.14056 0.20255 0.0
H695 H 0.02082 0.13082 0.27078 0.0
H696 H 0.04866 0.09596 0.22469 0.0
C697 C 0.08627 0.17679 0.20623 0.0
C698 C -0.01222 0.81675 0.50548 0.0
C699 C 0.00294 0.80563 0.53731 0.0
H700 H -0.00608 0.82282 0.44991 0.0
C701 C 0.03777 0.79395 0.53773 0.0
H702 H 0.96088 0.8256 0.50432 0.0
C703 C 0.05684 0.79256 0.50642 0.0
C704 C 0.04083 0.80195 0.47442 0.0
H705 H 0.04992 0.78516 0.56204 0.0
H706 H 0.08359 0.78329 0.50704 0.0
C707 C 0.00644 0.81455 0.47424 0.0
C708 C 0.44591 0.74557 0.72871 0.0
C709 C 0.42708 0.73684 0.75917 0.0
H710 H 0.4456 0.77122 0.67897 0.0
C711 C 0.39137 0.74522 0.76174 0.0
H712 H 0.47344 0.739 0.72617 0.0
C713 C 0.37534 0.76442 0.73489 0.0
C714 C 0.39476 0.77461 0.70498 0.0
H715 H 0.37646 0.73861 0.78521 0.0
H716 H 0.34828 0.77219 0.73803 0.0
C717 C 0.42981 0.76389 0.70166 0.0
C718 C 0.45683 0.17092 -0.01914 0.0
C719 C 0.4377 0.18532 0.00878 0.0
H720 H 0.45561 0.1544 0.92649 0.0
C721 C 0.40169 0.19129 0.00455 0.0
H722 H 0.48483 0.16658 -0.01631 0.0
C723 C 0.38503 0.18388 0.97244 0.0
C724 C 0.40438 0.17122 0.94378 0.0
H725 H 0.38664 0.20253 0.02585 0.0
H726 H 0.35731 0.18959 0.96961 0.0
C727 C 0.4403 0.16432 0.94825 0.0
C728 C 0.04207 0.75713 0.20154 0.0
C729 C 0.0254 0.78267 0.18091 0.0
H730 H 0.06858 0.74619 0.25026 0.0
C731 C 0.0284 0.81833 0.19078 0.0
H732 H 0.04031 0.72937 0.19435 0.0
C733 C 0.04499 0.82798 0.22245 0.0
C734 C 0.0582 0.802 0.24513 0.0
H735 H 0.01622 0.83855 0.17503 0.0
H736 H 0.04511 0.85559 0.23019 0.0
C737 C 0.05816 0.7667 0.23361 0.0
C738 C 0.38552 0.84501 0.44302 0.0
C739 C 0.42255 0.84571 0.44242 0.0
H740 H 0.33992 0.85776 0.47253 0.0
C741 C 0.44155 0.86912 0.46486 0.0
H742 H 0.37022 0.82805 0.42509 0.0
C743 C 0.4241 0.88639 0.49193 0.0
C744 C 0.38774 0.88 0.49662 0.0
H745 H 0.47012 0.87086 0.46423 0.0
H746 H 0.4397 0.9 0.51224 0.0
C747 C 0.36806 0.86276 0.46972 0.0
C748 C 0.39236 0.21114 0.66095 0.0
C749 C 0.39242 0.24823 0.66124 0.0
H750 H 0.38161 0.16371 0.68968 0.0
C751 C 0.37671 0.26591 0.68952 0.0
H752 H 0.40383 0.19682 0.63922 0.0
C753 C 0.36426 0.24702 0.71859 0.0
C754 C 0.36687 0.21011 0.71957 0.0
H755 H 0.37605 0.29449 0.6903 0.0
H756 H 0.35433 0.26147 0.74102 0.0
C757 C 0.37942 0.1922 0.68978 0.0
C758 C 0.07962 0.1474 0.92018 0.0
C759 C 0.04331 0.14422 0.91313 0.0
H760 H 0.12152 0.13662 0.95613 0.0
C761 C 0.02191 0.12256 0.93472 0.0
H762 H 0.09667 0.16376 0.90375 0.0
C763 C 0.03592 0.10762 0.96522 0.0
C764 C 0.07165 0.11353 0.97403 0.0
H765 H -0.00622 0.11962 0.9298 0.0
H766 H 0.0184 0.09321 -0.01713 0.0
C767 C 0.09378 0.13182 0.95021 0.0
C768 C 0.26612 0.0673 0.19678 0.0
C769 C 0.28978 0.04566 0.17907 0.0
H770 H 0.21681 0.09333 0.1941 0.0
C771 C 0.28545 0.03956 0.14268 0.0
H772 H 0.2689 0.07237 0.2249 0.0
C773 C 0.25595 0.05197 0.12499 0.0
C774 C 0.23006 0.06997 0.14369 0.0
H775 H 0.30347 0.02307 0.12846 0.0
H776 H 0.252 0.04481 0.09744 0.0
C777 C 0.23617 0.07903 0.17928 0.0
C778 C 0.16094 -0.00239 0.41029 0.0
C779 C 0.16702 0.00186 0.44656 0.0
H780 H 0.13516 0.96751 0.3696 0.0
C781 C 0.14881 -0.02001 0.47059 0.0
H782 H 0.17451 0.01452 0.39141 0.0
C783 C 0.12663 0.9523 0.45817 0.0
C784 C 0.12164 0.94712 0.42165 0.0
H785 H 0.15321 -0.01688 0.49879 0.0
H786 H 0.11455 0.93422 0.47693 0.0
C787 C 0.13802 0.97091 0.39795 0.0
C788 C 0.17337 0.86859 0.66029 0.0
C789 C 0.17246 0.86585 0.69733 0.0
H790 H 0.20335 0.85972 0.61365 0.0
C791 C 0.19564 0.84301 0.71434 0.0
H792 H 0.15524 0.88524 0.6463 0.0
C793 C 0.22301 0.8282 0.69555 0.0
C794 C 0.22735 0.83596 0.65959 0.0
H795 H 0.19499 0.83948 0.74273 0.0
H796 H 0.24319 0.81444 0.70999 0.0
C797 C 0.20062 0.85345 0.64143 0.0
C798 C 0.30275 0.97002 0.85835 0.0
C799 C 0.31463 0.95982 0.89185 0.0
H800 H 0.30046 0.01142 0.82029 0.0
C801 C 0.33541 -0.01638 0.91239 0.0
H802 H 0.28666 0.95207 0.84212 0.0
C803 C 0.34259 0.01789 0.90033 0.0
C804 C 0.32995 0.02834 0.86715 0.0
H805 H 0.34462 0.97633 0.93847 0.0
H806 H 0.35748 0.03636 0.91709 0.0
C807 C 0.31076 0.00387 0.84589 0.0
C808 C 0.24267 0.93279 0.33014 0.0
C809 C 0.2529 0.92526 0.29553 0.0
H810 H 0.20552 0.92136 0.37105 0.0
C811 C 0.23335 0.90055 0.27494 0.0
H812 H 0.25761 0.9517 0.34637 0.0
C813 C 0.20348 0.88376 0.28871 0.0
C814 C 0.1936 0.8908 0.3235 0.0
H815 H 0.24094 0.89457 0.24806 0.0
H816 H 0.18827 0.86515 0.27237 0.0
C817 C 0.21332 0.91524 0.34426 0.0
C818 C 0.32545 0.01579 0.57806 0.0
C819 C 0.29068 0.02675 0.57342 0.0
H820 H 0.35865 0.97619 0.59927 0.0
C821 C 0.26349 0.01058 0.59319 0.0
H822 H 0.34683 0.02797 0.56318 0.0
C823 C 0.27016 -0.01943 0.61318 0.0
C824 C 0.30426 0.96738 0.61457 0.0
H825 H 0.23642 0.01846 0.58997 0.0
H826 H 0.24821 0.96579 0.62466 0.0
C827 C 0.33225 -0.01358 0.59891 0.0
C828 C 0.20575 0.0576 0.75082 0.0
C829 C 0.18729 0.04044 0.7782 0.0
H830 H 0.24576 0.09621 0.73721 0.0
C831 C 0.19136 0.05308 0.8129 0.0
H832 H 0.20266 0.04864 0.72369 0.0
C833 C 0.21513 0.08093 0.8205 0.0
C834 C 0.23606 0.09615 0.79366 0.0
H835 H 0.17679 0.0409 0.83438 0.0
H836 H 0.21871 0.08879 0.84791 0.0
C837 C 0.23016 0.08507 0.75851 0.0
C838 C 0.16518 0.94171 -0.00186 0.0
C839 C 0.19459 0.92704 0.01462 0.0
H840 H 0.12496 -0.01998 0.00182 0.0
C841 C 0.20194 0.93484 0.0503 0.0
H842 H 0.15884 0.93593 0.97069 0.0
C843 C 0.182 0.95938 0.06834 0.0
C844 C 0.15502 -0.02314 0.0506 0.0
H845 H 0.22428 0.92349 0.06366 0.0
H846 H 0.18976 0.96695 0.09503 0.0
C847 C 0.14575 0.96681 0.01592 0.0
C848 C 0.20564 0.2445 0.08808 0.0
C849 C 0.18731 0.27265 0.07339 0.0
H850 H 0.20534 0.18926 0.09905 0.0
C851 C 0.15196 0.26721 0.06265 0.0
H852 H 0.23279 0.2479 0.09694 0.0
C853 C 0.13622 0.23347 0.0639 0.0
C854 C 0.15575 0.20482 0.07561 0.0
H855 H 0.13708 0.28852 0.05149 0.0
H856 H 0.10948 0.22956 0.05399 0.0
C857 C 0.19007 0.21082 0.08894 0.0
C858 C 0.63974 0.18835 0.88259 0.0
C859 C 0.67338 0.17996 0.89478 0.0
H860 H 0.60885 0.2258 0.85516 0.0
C861 C 0.70301 0.19993 0.88339 0.0
H862 H 0.61662 0.1733 0.89117 0.0
C863 C 0.69856 0.23067 0.86386 0.0
C864 C 0.66459 0.2408 0.85434 0.0
H865 H 0.72925 0.19398 0.89274 0.0
H866 H 0.72125 0.24792 0.85869 0.0
C867 C 0.63543 0.21825 0.86182 0.0
C868 C 0.00103 0.47628 0.1454 0.0
C869 C 0.01532 0.45675 0.17322 0.0
H870 H 0.96343 0.47696 0.10293 0.0
C871 C 0.00542 0.42093 0.17693 0.0
H872 H 0.00856 0.50387 0.14178 0.0
C873 C -0.01971 0.40533 0.15423 0.0
C874 C 0.96417 0.4255 0.1279 0.0
H875 H 0.01645 0.40514 0.19787 0.0
H876 H 0.97195 0.3781 0.15881 0.0
C877 C -0.02455 0.46084 0.12304 0.0
C878 C 0.80166 0.77659 0.42433 0.0
C879 C 0.7677 0.77403 0.43846 0.0
H880 H 0.84024 0.75194 0.39294 0.0
C881 C 0.74363 0.74798 0.42578 0.0
H882 H 0.8203 0.79711 0.43321 0.0
C883 C 0.75515 0.72153 0.40315 0.0
C884 C 0.79074 0.72128 0.39293 0.0
H885 H 0.71709 0.74595 0.43613 0.0
H886 H 0.73721 0.69956 0.39676 0.0
C887 C 0.81292 0.75074 0.40114 0.0
C888 C 0.97182 0.97374 0.13459 0.0
C889 C 0.94406 -0.00789 0.14985 0.0
H890 H 0.02301 -0.02274 0.11137 0.0
C891 C 0.9454 0.02923 0.15012 0.0
H892 H 0.97146 0.9451 0.13389 0.0
C893 C 0.97469 0.04763 0.13659 0.0
C894 C 0.0033 0.02914 0.1232 0.0
H895 H 0.92419 0.04403 0.16141 0.0
H896 H -0.02431 0.07624 0.13831 0.0
C897 C 0.00132 -0.00791 0.12166 0.0
C898 C 0.33653 0.68422 0.53706 0.0
C899 C 0.32558 0.68524 0.50154 0.0
H900 H 0.35036 0.71433 0.58366 0.0
C901 C 0.32075 0.71798 0.48523 0.0
H902 H 0.34016 0.65916 0.55013 0.0
C903 C 0.32521 0.74923 0.50468 0.0
C904 C 0.3355 0.74817 0.54037 0.0
H905 H 0.31187 0.71936 0.45798 0.0
H906 H 0.32062 0.77426 0.49187 0.0
C907 C 0.34209 0.71558 0.55621 0.0
C908 C 0.02335 0.58275 0.33217 0.0
C909 C 0.02853 0.54635 0.32884 0.0
H910 H -0.01204 0.62305 0.34644 0.0
C911 C 0.00401 0.52234 0.34379 0.0
H912 H 0.04209 0.60176 0.32111 0.0
C913 C 0.97254 0.53444 0.35769 0.0
C914 C 0.96557 0.57071 0.35738 0.0
H915 H 0.00747 0.49409 0.34162 0.0
H916 H 0.95267 0.51523 0.36625 0.0
C917 C -0.00772 0.59488 0.3467 0.0
C918 C 0.42951 0.32847 0.82822 0.0
C919 C 0.41533 0.36213 0.82464 0.0
H920 H 0.47482 0.29944 0.84253 0.0
C921 C 0.43179 0.39104 0.84235 0.0
H922 H 0.41693 0.3056 0.8155 0.0
C923 C 0.46527 0.38768 0.85722 0.0
C924 C 0.48207 0.35522 0.85531 0.0
H925 H 0.42114 0.41723 0.84068 0.0
H926 H 0.47946 0.41123 0.86664 0.0
C927 C 0.46268 0.32497 0.84383 0.0
C928 C 0.90354 0.84632 0.71121 0.0
C929 C 0.89597 0.80969 0.70897 0.0
H930 H 0.89641 0.89415 0.74048 0.0
C931 C 0.86951 0.79465 0.73017 0.0
H932 H 0.92346 0.85871 0.69463 0.0
C933 C 0.85344 0.81515 0.7557 0.0
C934 C 0.86407 0.85081 0.76081 0.0
H935 H 0.86255 0.76671 0.72835 0.0
H936 H 0.83489 0.80231 0.7735 0.0
C937 C 0.88768 0.8668 0.73705 0.0
C938 C 0.8919 0.1553 0.41057 0.0
C939 C 0.92447 0.17304 0.40615 0.0
H940 H 0.85972 0.12306 0.4439 0.0
C941 C 0.95215 0.16717 0.4301 0.0
H942 H 0.8704 0.15908 0.39204 0.0
C943 C 0.94594 0.14709 0.46047 0.0
C944 C 0.91212 0.13227 0.46678 0.0
H945 H -0.02242 0.18058 0.42699 0.0
H946 H 0.96677 0.14548 0.48012 0.0
C947 C 0.88594 0.1346 0.44032 0.0
C948 C 0.56464 0.10082 0.18334 0.0
C949 C 0.57541 0.1355 0.17435 0.0
H950 H 0.56294 0.06145 0.22397 0.0
C951 C 0.59903 0.15435 0.19681 0.0
H952 H 0.54666 0.08557 0.16638 0.0
C953 C 0.60771 0.14085 0.22978 0.0
C954 C 0.59361 0.10799 0.24044 0.0
H955 H 0.60827 0.18091 0.19041 0.0
H956 H 0.62356 0.15714 0.24787 0.0
C957 C 0.57388 0.08702 0.21626 0.0
C958 C 0.47639 0.79609 0.96111 0.0
C959 C 0.49543 0.78819 0.93058 0.0
H960 H 0.47923 0.81152 0.01559 0.0
C961 C 0.53197 0.79548 0.92992 0.0
H962 H 0.44822 0.79052 0.96232 0.0
C963 C 0.54965 0.80786 0.96022 0.0
C964 C 0.53111 0.81235 -0.00821 0.0
H965 H 0.54716 0.78965 0.90658 0.0
H966 H 0.5781 0.8114 0.95957 0.0
C967 C 0.49418 0.80773 -0.00835 0.0
C968 C 0.90689 0.21598 0.72893 0.0
C969 C 0.91133 0.19802 0.76092 0.0
H970 H 0.89942 0.21131 0.67297 0.0
C971 C 0.90689 0.16107 0.76166 0.0
H972 H 0.9105 0.24447 0.72768 0.0
C973 C 0.90059 0.1421 0.73049 0.0
C974 C 0.89916 0.15977 0.69799 0.0
H975 H 0.91017 0.14668 0.78611 0.0
H976 H 0.89876 0.1135 0.73173 0.0
C977 C 0.9011 0.19695 0.6976 0.0
C978 C 0.50892 0.16186 0.49717 0.0
C979 C 0.52915 0.18266 0.52111 0.0
H980 H 0.50911 0.12771 0.45191 0.0
C981 C 0.56613 0.18049 0.52074 0.0
H982 H 0.4804 0.16286 0.49684 0.0
C983 C 0.58263 0.16006 0.49516 0.0
C984 C 0.56245 0.14183 0.46919 0.0
H985 H 0.58242 0.19606 0.53904 0.0
H986 H 0.61119 0.16055 0.4943 0.0
C987 C 0.52541 0.14183 0.47132 0.0
C988 C 0.54553 0.76153 0.26852 0.0
C989 C 0.55856 0.7858 0.29415 0.0
H990 H 0.5403 0.74994 0.21308 0.0
C991 C 0.5839 0.81162 0.28433 0.0
H992 H 0.52588 0.74139 0.27537 0.0
C993 C 0.5919 0.81659 0.24882 0.0
C994 C 0.57483 0.79572 0.22264 0.0
H995 H 0.59463 0.83039 0.30363 0.0
H996 H 0.60898 0.83886 0.24164 0.0
C997 C 0.55363 0.76651 0.2328 0.0
C998 C 0.89103 0.79757 0.02734 0.0
C999 C 0.92765 0.79287 0.02648 0.0
H1000 H 0.84702 0.82372 0.00513 0.0
C1001 C 0.94885 0.81493 0.00533 0.0
H1002 H 0.87411 0.78136 0.04405 0.0
C1003 C 0.9333 0.83942 -0.01682 0.0
C1004 C 0.89636 0.84217 -0.018 0.0
H1005 H -0.0228 0.81218 0.00469 0.0
H1006 H 0.95004 0.85478 0.96557 0.0
C1007 C 0.87551 0.82219 0.00542 0.0
C1008 C 0.6956 0.91114 0.78577 0.0
C1009 C 0.67254 0.93753 0.79612 0.0
H1010 H 0.74416 0.88584 0.79635 0.0
C1011 C 0.67777 0.95443 0.82912 0.0
H1012 H 0.6922 0.89743 0.7607 0.0
C1013 C 0.70743 0.94733 0.84981 0.0
C1014 C 0.73223 0.92369 0.83737 0.0
H1015 H 0.66018 0.97465 0.83792 0.0
H1016 H 0.71231 0.96223 0.87399 0.0
C1017 C 0.7254 0.90457 0.80607 0.0
C1018 C 0.80932 0.94362 0.50804 0.0
C1019 C 0.80124 0.91937 0.53492 0.0
H1020 H 0.83239 -0.00591 0.49536 0.0
C1021 C 0.81651 0.9241 0.56853 0.0
H1022 H 0.79828 0.94017 0.48169 0.0
C1023 C 0.83639 0.95467 0.57628 0.0
C1024 C 0.84072 -0.01882 0.55064 0.0
H1025 H 0.81136 0.90523 0.58945 0.0
H1026 H 0.84581 0.95868 0.60317 0.0
C1027 C 0.82893 0.97444 0.51586 0.0
C1028 C 0.78793 0.03883 0.32416 0.0
C1029 C 0.78912 0.04145 0.28706 0.0
H1030 H 0.75632 0.04354 0.37069 0.0
C1031 C 0.76089 0.05664 0.26905 0.0
H1032 H 0.80942 0.02735 0.33877 0.0
C1033 C 0.73042 0.06511 0.28719 0.0
C1034 C 0.7279 0.05924 0.32373 0.0
H1035 H 0.76101 0.05916 0.24054 0.0
H1036 H 0.70808 0.07456 0.27228 0.0
C1037 C 0.75755 0.04794 0.34244 0.0
C1038 C 0.60906 0.02813 0.07816 0.0
C1039 C 0.62392 0.03437 0.04488 0.0
H1040 H 0.58583 -0.00972 0.11311 0.0
C1041 C 0.62067 0.00808 0.01861 0.0
H1042 H 0.61085 0.0482 0.0987 0.0
C1043 C 0.60688 0.97448 0.02698 0.0
C1044 C 0.59578 0.96697 0.06162 0.0
H1045 H 0.63188 0.01234 -0.00732 0.0
H1046 H 0.60757 0.95376 0.00715 0.0
C1047 C 0.59474 -0.00515 0.08635 0.0
C1048 C 0.71779 0.06139 0.68293 0.0
C1049 C 0.69253 0.04498 0.66047 0.0
H1050 H 0.76996 0.08454 0.68728 0.0
C1051 C 0.69842 0.04372 0.62402 0.0
H1052 H 0.71369 0.06244 0.71122 0.0
C1053 C 0.7301 0.05667 0.61032 0.0
C1054 C 0.75679 0.07038 0.63299 0.0
H1055 H 0.67911 0.0313 0.60627 0.0
H1056 H 0.73438 0.05389 0.58218 0.0
C1057 C 0.74998 0.07374 0.66929 0.0
C1058 C 0.63052 0.91975 0.443 0.0
C1059 C 0.64267 0.92325 0.47801 0.0
H1060 H 0.61684 0.94607 0.39536 0.0
C1061 C 0.64476 0.95696 0.49376 0.0
H1062 H 0.62832 0.89401 0.43032 0.0
C1063 C 0.63867 -0.01301 0.47356 0.0
C1064 C 0.63021 -0.01637 0.43741 0.0
H1065 H 0.65401 0.96042 0.52078 0.0
H1066 H 0.64271 0.01278 0.48576 0.0
C1067 C 0.62428 0.94966 0.42288 0.0
C1068 C 0.72954 0.90024 0.20311 0.0
C1069 C 0.7588 0.90932 0.18235 0.0
H1070 H 0.67537 0.88346 0.20372 0.0
C1071 C 0.75652 0.90564 0.14541 0.0
H1072 H 0.73072 0.90269 0.23165 0.0
C1073 C 0.72488 0.89463 0.12934 0.0
C1074 C 0.69501 0.88738 0.14998 0.0
H1075 H 0.77889 0.91223 0.12881 0.0
H1076 H 0.72352 0.89309 0.10075 0.0
C1077 C 0.69786 0.88941 0.18705 0.0
C1078 C 0.80852 0.02667 -0.00271 0.0
C1079 C 0.79206 0.05381 -0.0209 0.0
H1080 H 0.83635 -0.02132 -0.00745 0.0
C1081 C 0.79796 0.05808 0.94273 0.0
H1082 H 0.80473 0.02325 0.02543 0.0
C1083 C 0.81606 0.03284 0.92387 0.0
C1084 C 0.82811 0.00279 0.94116 0.0
H1085 H 0.78625 0.07953 0.92834 0.0
H1086 H 0.81743 0.03522 0.89539 0.0
C1087 C 0.82653 0.00121 -0.02163 0.0
C1088 C 0.73341 0.74599 0.89844 0.0
C1089 C 0.75142 0.71632 0.88675 0.0
H1090 H 0.73676 0.80154 0.90931 0.0
C1091 C 0.78452 0.72093 0.87085 0.0
H1092 H 0.70782 0.74307 0.91081 0.0
C1093 C 0.80129 0.75407 0.87059 0.0
C1094 C 0.78505 0.78314 0.88593 0.0
H1095 H 0.7987 0.69841 0.86123 0.0
H1096 H 0.8277 0.75652 0.85997 0.0
C1097 C 0.75017 0.77933 0.89801 0.0
C1098 C 0.37233 0.79015 0.03395 0.0
C1099 C 0.33844 0.80263 0.02757 0.0
H1100 H 0.40347 0.75321 0.06164 0.0
C1101 C 0.31037 0.79099 0.04906 0.0
H1102 H 0.39457 0.79918 0.01823 0.0
C1103 C 0.31532 0.76434 0.07375 0.0
C1104 C 0.34849 0.74926 0.07758 0.0
H1105 H 0.28399 0.80052 0.04506 0.0
H1106 H 0.29268 0.75398 0.08807 0.0
C1107 C 0.3774 0.7639 0.059 0.0
C1108 C 0.9433 0.5815 0.79956 0.0
C1109 C 0.93403 0.54647 0.80879 0.0
H1110 H -0.01678 0.62281 0.80139 0.0
C1111 C 0.95558 0.5285 0.83265 0.0
H1112 H 0.92698 0.59621 0.78156 0.0
C1113 C -0.01225 0.54363 0.8437 0.0
C1114 C -0.00135 0.57714 0.8315 0.0
H1115 H 0.94898 0.50169 0.84072 0.0
H1116 H 0.00506 0.52821 0.86008 0.0
C1117 C -0.02459 0.59682 0.81099 0.0
C1118 C 0.12845 0.18534 0.54601 0.0
C1119 C 0.16478 0.18189 0.55229 0.0
H1120 H 0.08511 0.22038 0.54468 0.0
C1121 C 0.18455 0.21056 0.56657 0.0
H1122 H 0.11255 0.16354 0.53516 0.0
C1123 C 0.16903 0.24302 0.57149 0.0
C1124 C 0.13337 0.24728 0.56261 0.0
H1125 H 0.21254 0.20862 0.57194 0.0
H1126 H 0.18532 0.26514 0.58107 0.0
C1127 C 0.11277 0.21784 0.55131 0.0
C1128 C -0.00209 -0.02183 0.80864 0.0
C1129 C 0.02337 0.95264 0.80303 0.0
H1130 H 0.94693 -0.0112 0.82921 0.0
C1131 C 0.01932 0.91937 0.81896 0.0
H1132 H 0.00064 0.00415 0.7969 0.0
C1133 C -0.01115 0.91062 0.83755 0.0
C1134 C 0.96175 0.93493 0.84038 0.0
H1135 H 0.03895 0.89941 0.81565 0.0
H1136 H -0.01427 0.88407 0.8479 0.0
C1137 C 0.96723 0.96937 0.82723 0.0
C1138 C 0.71864 0.24035 0.37282 0.0
C1139 C 0.69836 0.26996 0.37951 0.0
H1140 H 0.71789 0.18447 0.36393 0.0
C1141 C 0.6617 0.26774 0.37399 0.0
H1142 H 0.74697 0.2415 0.37699 0.0
C1143 C 0.64502 0.23523 0.36649 0.0
C1144 C 0.66485 0.20454 0.36499 0.0
H1145 H 0.64563 0.29044 0.37885 0.0
H1146 H 0.61645 0.23373 0.36538 0.0
C1147 C 0.70192 0.20767 0.36584 0.0
C1148 C 0.9536 0.46379 0.6477 0.0
C1149 C 0.92989 0.43971 0.66368 0.0
H1150 H -0.00016 0.47018 0.61598 0.0
C1151 C 0.93067 0.40378 0.65485 0.0
H1152 H 0.95312 0.49175 0.65398 0.0
C1153 C 0.95657 0.39158 0.63251 0.0
C1154 C -0.01719 0.41501 0.61944 0.0
H1155 H 0.91208 0.38489 0.66635 0.0
H1156 H 0.95748 0.36335 0.6278 0.0
C1157 C -0.01982 0.45147 0.62591 0.0
C1158 C 0.48526 0.50421 0.16688 0.0
C1159 C 0.51837 0.51945 0.17591 0.0
H1160 H 0.43125 0.51339 0.15379 0.0
C1161 C 0.5232 0.55635 0.17552 0.0
H1162 H 0.48085 0.47578 0.16728 0.0
C1163 C 0.49504 0.57778 0.1674 0.0
C1164 C 0.4614 0.56265 0.16036 0.0
H1165 H 0.54852 0.56866 0.18245 0.0
H1166 H 0.49927 0.60623 0.16813 0.0
C1167 C 0.45686 0.52568 0.15954 0.0
C1168 C 0.56024 0.60292 0.79342 0.0
C1169 C 0.56228 0.63959 0.79915 0.0
H1170 H 0.56713 0.56085 0.75634 0.0
C1171 C 0.57995 0.66139 0.77463 0.0
H1172 H 0.54681 0.58564 0.81205 0.0
C1173 C 0.59034 0.64747 0.74233 0.0
C1174 C 0.58442 0.61146 0.73495 0.0
H1175 H 0.5819 0.68979 0.77843 0.0
H1176 H 0.60056 0.66521 0.72221 0.0
C1177 C 0.57172 0.58882 0.76155 0.0
C1178 C 0.58247 0.30955 0.02283 0.0
C1179 C 0.57037 0.27457 0.0277 0.0
H1180 H 0.60446 0.34745 -0.01298 0.0
C1181 C 0.57491 0.24951 0.00066 0.0
H1182 H 0.57921 0.32929 0.04331 0.0
C1183 C 0.58847 0.26004 0.96807 0.0
C1184 C 0.59842 0.29556 0.96246 0.0
H1185 H 0.56552 0.22237 0.0037 0.0
H1186 H 0.59001 0.24071 0.94694 0.0
C1187 C 0.59677 0.31989 -0.00942 0.0
C1188 C 0.92595 0.34408 0.2398 0.0
C1189 C 0.91459 0.3098 0.24936 0.0
H1190 H 0.91746 0.38834 0.20619 0.0
C1191 C 0.88247 0.29583 0.23589 0.0
H1192 H 0.95035 0.35568 0.25032 0.0
C1193 C 0.86374 0.31445 0.2106 0.0
C1194 C 0.87657 0.34753 0.19897 0.0
H1195 H 0.87292 0.26962 0.24321 0.0
H1196 H 0.84052 0.30199 0.19842 0.0
C1197 C 0.90682 0.36301 0.21502 0.0
C1198 C 0.91413 0.67354 0.53476 0.0
C1199 C 0.88879 0.69361 0.55216 0.0
H1200 H 0.92611 0.64242 0.48912 0.0
C1201 C 0.85426 0.69388 0.53868 0.0
H1202 H 0.94109 0.67311 0.54443 0.0
C1203 C 0.84564 0.67588 0.50739 0.0
C1204 C 0.87162 0.65798 0.4886 0.0
H1205 H 0.83431 0.70919 0.55153 0.0
H1206 H 0.81909 0.67775 0.49689 0.0
C1207 C 0.90572 0.65623 0.50297 0.0
C1208 C 0.55453 0.30481 0.68109 0.0
C1209 C 0.54116 0.33415 0.66323 0.0
H1210 H 0.57628 0.2852 0.7293 0.0
C1211 C 0.54479 0.3678 0.67882 0.0
H1212 H 0.55214 0.27848 0.66977 0.0
C1213 C 0.55898 0.37161 0.7128 0.0
C1214 C 0.5692 0.34175 0.73194 0.0
H1215 H 0.53487 0.39086 0.6656 0.0
H1216 H 0.55981 0.39766 0.72486 0.0
C1217 C 0.56805 0.30853 0.71534 0.0
C1218 C 0.90035 0.27843 0.93802 0.0
C1219 C 0.9368 0.28205 0.93265 0.0
H1220 H 0.85586 0.29702 0.96617 0.0
C1221 C 0.95658 0.30836 0.95092 0.0
H1222 H 0.88459 0.25856 0.92382 0.0
C1223 C 0.94031 0.33009 0.97522 0.0
C1224 C 0.90392 0.32634 -0.01919 0.0
H1225 H -0.01524 0.31164 0.94694 0.0
H1226 H 0.95618 0.34947 -0.01002 0.0
C1227 C 0.88391 0.30076 0.96171 0.0
C1228 C 0.87226 0.69775 0.21571 0.0
C1229 C 0.89255 0.68002 0.19063 0.0
H1230 H 0.85119 0.69765 0.26786 0.0
C1231 C 0.9038 0.64579 0.19802 0.0
H1232 H 0.86293 0.72408 0.21085 0.0
C1233 C 0.8966 0.63049 0.23079 0.0
C1234 C 0.87864 0.64954 0.25665 0.0
H1235 H 0.91938 0.63147 0.17918 0.0
H1236 H 0.90656 0.60458 0.23651 0.0
C1237 C 0.86573 0.68281 0.24853 0.0
C1238 C 0.54134 0.66596 0.45935 0.0
C1239 C 0.50716 0.67867 0.46179 0.0
H1240 H 0.57982 0.63205 0.48048 0.0
C1241 C 0.48392 0.66395 0.48686 0.0
H1242 H 0.55954 0.67645 0.43983 0.0
C1243 C 0.4957 0.6387 0.51093 0.0
C1244 C 0.5306 0.62714 0.50954 0.0
H1245 H 0.45726 0.67323 0.48899 0.0
H1246 H 0.47801 0.62936 0.53141 0.0
C1247 C 0.55275 0.64014 0.48252 0.0
C1248 C 0.77662 0.55283 0.61837 0.0
C1249 C 0.78646 0.5693 0.65053 0.0
H1250 H 0.73384 0.53744 0.58368 0.0
C1251 C 0.76201 0.59006 0.66817 0.0
H1252 H 0.79513 0.53696 0.60406 0.0
C1253 C 0.72687 0.58933 0.65718 0.0
C1254 C 0.71612 0.56881 0.62781 0.0
H1255 H 0.76889 0.60338 0.69282 0.0
H1256 H 0.70772 0.60296 0.67292 0.0
C1257 C 0.74153 0.55274 0.60694 0.0
C1258 C 0.66544 0.50907 0.94029 0.0
C1259 C 0.664 0.53243 0.91157 0.0
H1260 H 0.65318 0.45665 0.95874 0.0
C1261 C 0.64317 0.52355 0.88195 0.0
H1262 H 0.68166 0.51542 0.96332 0.0
C1263 C 0.62577 0.49065 0.88009 0.0
C1264 C 0.63012 0.46596 0.9073 0.0
H1265 H 0.64183 0.54127 0.85959 0.0
H1266 H 0.61171 0.48331 0.85595 0.0
C1267 C 0.64913 0.47563 0.93785 0.0
C1268 C 0.70515 0.37416 0.15982 0.0
C1269 C 0.67899 0.39942 0.1567 0.0
H1270 H 0.75646 0.35889 0.1441 0.0
C1271 C 0.68149 0.42489 0.12971 0.0
H1272 H 0.70368 0.35385 0.17988 0.0
C1273 C 0.71178 0.42755 0.10902 0.0
C1274 C 0.73951 0.40484 0.11543 0.0
H1275 H 0.66151 0.44452 0.12649 0.0
H1276 H 0.71466 0.44887 0.09015 0.0
C1277 C 0.73536 0.37709 0.13952 0.0
C1278 C 0.76083 0.45147 0.40664 0.0
C1279 C 0.76049 0.44272 0.44245 0.0
H1280 H 0.78166 0.48592 0.36731 0.0
C1281 C 0.78134 0.46235 0.46685 0.0
H1282 H 0.74523 0.43629 0.38744 0.0
C1283 C 0.80189 0.49119 0.45549 0.0
C1284 C 0.80261 0.4996 0.41952 0.0
H1285 H 0.78139 0.45558 0.49464 0.0
H1286 H 0.81708 0.50686 0.47462 0.0
C1287 C 0.78216 0.47939 0.39517 0.0
C1288 C 0.73258 0.47782 0.7853 0.0
C1289 C 0.76135 0.45956 0.77214 0.0
H1290 H 0.68209 0.47385 0.81007 0.0
C1291 C 0.76093 0.42245 0.77333 0.0
H1292 H 0.73226 0.50646 0.78447 0.0
C1293 C 0.73252 0.40389 0.78815 0.0
C1294 C 0.70379 0.42209 0.80146 0.0
H1295 H 0.78281 0.40775 0.76331 0.0
H1296 H 0.73308 0.37529 0.78926 0.0
C1297 C 0.70383 0.45919 0.79961 0.0
C1298 C 0.82467 0.55275 0.01104 0.0
C1299 C 0.82348 0.54956 0.97403 0.0
H1300 H 0.83259 0.52654 0.06015 0.0
C1301 C 0.83674 0.51924 0.95796 0.0
H1302 H 0.81531 0.57615 0.02416 0.0
C1303 C 0.84643 0.49069 -0.0214 0.0
C1304 C 0.84322 0.49221 0.01555 0.0
H1305 H 0.83673 0.51624 0.92946 0.0
H1306 H 0.854 0.4666 0.96544 0.0
C1307 C 0.83456 0.52427 0.03169 0.0
C1308 C 0.7051 0.52766 0.27073 0.0
C1309 C 0.68576 0.5059 0.29411 0.0
H1310 H 0.7479 0.56571 0.26499 0.0
C1311 C 0.69271 0.5082 0.33043 0.0
H1312 H 0.70022 0.52608 0.2425 0.0
C1313 C 0.71893 0.53155 0.34325 0.0
C1314 C 0.73951 0.55218 0.31987 0.0
H1315 H 0.67808 0.49171 0.34889 0.0
H1316 H 0.72419 0.53213 0.37145 0.0
C1317 C 0.73227 0.55024 0.28349 0.0
C1318 C 0.61186 0.42204 0.50654 0.0
C1319 C 0.62552 0.39542 0.52809 0.0
H1320 H 0.59582 0.47576 0.50383 0.0
C1321 C 0.6251 0.39956 0.56484 0.0
H1322 H 0.61179 0.41942 0.478 0.0
C1323 C 0.61574 0.43167 0.5796 0.0
C1324 C 0.60733 0.46032 0.55773 0.0
H1325 H 0.63516 0.37925 0.58198 0.0
H1326 H 0.61803 0.43481 0.60801 0.0
C1327 C 0.60313 0.45452 0.52126 0.0
C1328 C 0.69616 0.71958 0.602 0.0
C1329 C 0.68029 0.75095 0.59151 0.0
H1330 H 0.68917 0.6641 0.61078 0.0
C1331 C 0.64336 0.75136 0.58751 0.0
H1332 H 0.72448 0.7184 0.60557 0.0
C1333 C 0.62308 0.72015 0.59084 0.0
C1334 C 0.63965 0.68826 0.59764 0.0
H1335 H 0.6304 0.77527 0.57971 0.0
H1336 H 0.59493 0.72054 0.58573 0.0
C1337 C 0.67603 0.68842 0.60466 0.0
C1338 C 0.20948 0.69909 0.37761 0.0
C1339 C 0.19535 0.66926 0.39498 0.0
H1340 H 0.20012 0.75142 0.3591 0.0
C1341 C 0.15919 0.66717 0.40248 0.0
H1342 H 0.23739 0.70132 0.37178 0.0
C1343 C 0.13779 0.69543 0.39455 0.0
C1344 C 0.15255 0.7265 0.37998 0.0
H1345 H 0.1478 0.64434 0.41586 0.0
H1346 H 0.11027 0.69388 0.40203 0.0
C1347 C 0.1883 0.72777 0.37061 0.0
C1348 C 0.50774 0.94241 0.65865 0.0
C1349 C 0.51022 0.94966 0.69506 0.0
H1350 H 0.47744 0.91787 0.6168 0.0
C1351 C 0.48303 0.93813 0.71745 0.0
H1352 H 0.52842 0.95108 0.64083 0.0
C1353 C 0.45378 0.91954 0.7037 0.0
C1354 C 0.45142 0.91181 0.66735 0.0
H1355 H 0.48427 0.94359 0.74559 0.0
H1356 H 0.43329 0.91075 0.7217 0.0
C1357 C 0.47864 0.9234 0.64492 0.0
C1358 C 0.3201 0.30335 0.92824 0.0
C1359 C 0.28463 0.30556 0.93764 0.0
H1360 H 0.35797 0.27675 0.89751 0.0
C1361 C 0.25904 0.28403 0.92006 0.0
H1362 H 0.34023 0.31991 0.94113 0.0
C1363 C 0.26914 0.25872 0.89543 0.0
C1364 C 0.30491 0.25515 0.88743 0.0
H1365 H 0.23139 0.28529 0.92683 0.0
H1366 H 0.24917 0.24104 0.88382 0.0
C1367 C 0.3301 0.27872 0.90302 0.0
C1368 C 0.43541 0.49934 0.68109 0.0
C1369 C 0.43854 0.46252 0.67746 0.0
H1370 H 0.45949 0.5506 0.67263 0.0
C1371 C 0.46741 0.44929 0.65923 0.0
H1372 H 0.41318 0.51031 0.69468 0.0
C1373 C 0.49365 0.47226 0.64667 0.0
C1374 C 0.49148 0.50893 0.65187 0.0
H1375 H 0.47042 0.42112 0.65563 0.0
H1376 H 0.51628 0.46116 0.63383 0.0
C1377 C 0.46166 0.52243 0.6682 0.0
C1378 C 0.7903 0.21037 0.04131 0.0
C1379 C 0.75329 0.20944 0.0418 0.0
H1380 H 0.8377 0.24138 0.04881 0.0
C1381 C 0.73536 0.23908 0.05357 0.0
H1382 H 0.80466 0.18762 0.03259 0.0
C1383 C 0.7543 0.27018 0.06239 0.0
C1384 C 0.79134 0.27161 0.06017 0.0
H1385 H 0.70678 0.23881 0.05409 0.0
H1386 H 0.73996 0.29336 0.06988 0.0
C1387 C 0.80919 0.24107 0.05076 0.0
C1388 C 0.52103 0.12004 0.76563 0.0
C1389 C 0.53087 0.08888 0.78258 0.0
H1390 H 0.48046 0.15773 0.75828 0.0
C1391 C 0.50826 0.07327 0.80769 0.0
H1392 H 0.53796 0.13238 0.74602 0.0
C1393 C 0.47508 0.0868 0.81348 0.0
C1394 C 0.46456 0.1168 0.79519 0.0
H1395 H 0.51502 0.04903 0.82093 0.0
H1396 H 0.45732 0.07339 0.83166 0.0
C1397 C 0.48818 0.13428 0.77236 0.0
C1398 C 0.92993 0.90967 0.31803 0.0
C1399 C 0.91236 0.88634 0.29424 0.0
H1400 H 0.97302 0.91724 0.35436 0.0
C1401 C 0.92 0.85032 0.29487 0.0
H1402 H 0.92415 0.93753 0.31864 0.0
C1403 C 0.94767 0.83862 0.31578 0.0
C1404 C 0.96842 0.86293 0.33587 0.0
H1405 H 0.90634 0.83161 0.27738 0.0
H1406 H 0.95472 0.81117 0.31353 0.0
C1407 C 0.95793 0.89808 0.33857 0.0
C1408 C 0.39864 0.2166 0.18585 0.0
C1409 C 0.42502 0.23767 0.16986 0.0
H1410 H 0.35297 0.21563 0.21876 0.0
C1411 C 0.42218 0.27457 0.17003 0.0
H1412 H 0.39996 0.18804 0.18554 0.0
C1413 C 0.39485 0.2903 0.18804 0.0
C1414 C 0.37029 0.26944 0.20696 0.0
H1415 H 0.44173 0.29144 0.1572 0.0
H1416 H 0.39478 0.31891 0.18941 0.0
C1417 C 0.37157 0.23238 0.20448 0.0
C1418 C 0.44081 0.63559 0.9652 0.0
C1419 C 0.41399 0.63824 0.93958 0.0
H1420 H 0.4527 0.63138 0.02033 0.0
C1421 C 0.37911 0.62903 0.94835 0.0
H1422 H 0.46801 0.64231 0.95892 0.0
C1423 C 0.37036 0.62268 -0.01663 0.0
C1424 C 0.39638 0.62591 0.00999 0.0
H1425 H 0.35813 0.63022 0.92878 0.0
H1426 H 0.34277 0.61857 -0.01013 0.0
C1427 C 0.432 0.62958 0.00042 0.0
C1428 C 0.07024 0.70892 0.71123 0.0
C1429 C 0.04226 0.6906 0.69396 0.0
H1430 H 0.11168 0.70658 0.74981 0.0
C1431 C 0.03875 0.65374 0.69789 0.0
H1432 H 0.07393 0.73726 0.70832 0.0
C1433 C 0.06072 0.63605 0.72125 0.0
C1434 C 0.08629 0.65502 0.7414 0.0
H1435 H 0.01776 0.63882 0.68443 0.0
H1436 H 0.05558 0.60811 0.7257 0.0
C1437 C 0.092 0.6913 0.73484 0.0
C1438 C 0.04611 0.32337 0.40918 0.0
C1439 C 0.00921 0.32602 0.40706 0.0
H1440 H 0.09228 0.32914 0.44187 0.0
C1441 C -0.00858 0.34285 0.4345 0.0
H1442 H 0.06062 0.31104 0.38813 0.0
C1443 C 0.00953 0.353 0.46524 0.0
C1444 C 0.04573 0.34683 0.46884 0.0
H1445 H 0.9631 0.34576 0.43345 0.0
H1446 H -0.00525 0.36368 0.48701 0.0
C1447 C 0.0643 0.33386 0.43987 0.0
C1448 C 0.41277 0.75082 0.25695 0.0
C1449 C 0.41214 0.73677 0.29115 0.0
H1450 H 0.40618 0.74047 0.2018 0.0
C1451 C 0.39973 0.70177 0.2962 0.0
H1452 H 0.42213 0.77772 0.25228 0.0
C1453 C 0.39078 0.68029 0.26729 0.0
C1454 C 0.39429 0.69345 0.23288 0.0
H1455 H 0.39864 0.69038 0.3224 0.0
H1456 H 0.3828 0.65297 0.27189 0.0
C1457 C 0.40404 0.72929 0.22803 0.0
C1458 C 0.0151 0.63546 -0.00287 0.0
C1459 C 0.03142 0.6489 0.02799 0.0
H1460 H 0.02142 0.62123 0.9429 0.0
C1461 C 0.06843 0.6532 0.02916 0.0
H1462 H -0.01332 0.63177 -0.00459 0.0
C1463 C 0.08843 0.64705 -0.00102 0.0
C1464 C 0.07156 0.63705 0.96719 0.0
H1465 H 0.08173 0.66341 0.05271 0.0
H1466 H 0.11668 0.65227 -4e-05 0.0
C1467 C 0.03496 0.62988 0.96692 0.0
C1468 C 0.04974 0.27034 0.73685 0.0
C1469 C 0.04788 0.2937 0.76563 0.0
H1470 H 0.05742 0.26528 0.68112 0.0
C1471 C 0.05922 0.32906 0.76175 0.0
H1472 H 0.04089 0.24296 0.73928 0.0
C1473 C 0.06833 0.34192 0.72863 0.0
C1474 C 0.06596 0.31962 0.69883 0.0
H1475 H 0.05817 0.34743 0.78377 0.0
H1476 H 0.07494 0.36984 0.72611 0.0
C1477 C 0.05865 0.28328 0.7035 0.0
C1478 C 0.4 0.32757 0.48444 0.0
C1479 C 0.43603 0.31993 0.4835 0.0
H1480 H 0.35139 0.32962 0.45576 0.0
C1481 C 0.45174 0.31231 0.45109 0.0
H1482 H 0.38733 0.3338 0.50918 0.0
C1483 C 0.43105 0.30955 0.42051 0.0
C1484 C 0.39439 0.31444 0.42195 0.0
H1485 H 0.47944 0.30623 0.4497 0.0
H1486 H 0.44365 0.30231 0.39604 0.0
C1487 C 0.37933 0.32478 0.45395 0.0
C1488 C 0.18905 0.39152 0.22348 0.0
C1489 C 0.16888 0.41079 0.24736 0.0
H1490 H 0.23111 0.35581 0.21692 0.0
C1491 C 0.1721 0.40407 0.28373 0.0
H1492 H 0.18674 0.39563 0.19525 0.0
C1493 C 0.19724 0.38091 0.29616 0.0
C1494 C 0.21989 0.36433 0.27246 0.0
H1495 H 0.15636 0.41793 0.30278 0.0
H1496 H 0.2006 0.37816 0.32447 0.0
C1497 C 0.21436 0.36852 0.23592 0.0
C1498 C 0.28176 0.46289 0.09356 0.0
C1499 C 0.27722 0.4615 0.05661 0.0
H1500 H 0.29758 0.49444 0.13854 0.0
C1501 C 0.28758 0.49076 0.03626 0.0
H1502 H 0.27414 0.44054 0.10988 0.0
C1503 C 0.30075 0.52147 0.05263 0.0
C1504 C 0.304 0.52348 0.08968 0.0
H1505 H 0.28455 0.49035 0.00776 0.0
H1506 H 0.30783 0.54391 0.03619 0.0
C1507 C 0.29524 0.49363 0.10999 0.0
C1508 C 0.25689 0.52846 0.76274 0.0
C1509 C 0.27936 0.51121 0.78631 0.0
H1510 H 0.21193 0.56086 0.75687 0.0
C1511 C 0.27649 0.51769 0.82272 0.0
H1512 H 0.25861 0.52404 0.7345 0.0
C1513 C 0.25006 0.53906 0.83553 0.0
C1514 C 0.22563 0.55394 0.81217 0.0
H1515 H 0.2937 0.505 0.84147 0.0
H1516 H 0.24751 0.54206 0.86388 0.0
C1517 C 0.2301 0.54947 0.77557 0.0
C1518 C 0.19812 0.51844 0.55868 0.0
C1519 C 0.20229 0.52461 0.52241 0.0
H1520 H 0.17043 0.48924 0.59845 0.0
C1521 C 0.17811 0.509 0.49825 0.0
H1522 H 0.21621 0.53058 0.57782 0.0
C1523 C 0.15221 0.48487 0.50996 0.0
C1524 C 0.14957 0.47686 0.54608 0.0
H1525 H 0.18076 0.51352 0.47012 0.0
H1526 H 0.13556 0.47104 0.49065 0.0
C1527 C 0.17163 0.49513 0.57048 0.0
C1528 C 0.179 0.60962 0.1667 0.0
C1529 C 0.17635 0.58937 0.19754 0.0
H1530 H 0.21245 0.64113 0.13376 0.0
C1531 C 0.20306 0.59247 0.22334 0.0
H1532 H 0.15827 0.60816 0.14677 0.0
C1533 C 0.23452 0.61102 0.21574 0.0
C1534 C 0.23932 0.62666 0.18233 0.0
H1535 H 0.20134 0.57735 0.24753 0.0
H1536 H 0.25627 0.60965 0.23439 0.0
C1537 C 0.21008 0.62864 0.15937 0.0
C1538 C 0.14043 0.43218 0.91276 0.0
C1539 C 0.13886 0.43336 0.94988 0.0
H1540 H 0.13657 0.4613 0.86464 0.0
C1541 C 0.12412 0.46263 0.96642 0.0
H1542 H 0.15123 0.40963 0.8993 0.0
C1543 C 0.11606 0.49232 0.94659 0.0
C1544 C 0.12228 0.49292 0.90999 0.0
H1545 H 0.12226 0.46412 -0.00506 0.0
H1546 H 0.10762 0.51576 0.96033 0.0
C1547 C 0.13208 0.46178 0.89288 0.0
C1548 C 0.26515 0.3675 0.65355 0.0
C1549 C 0.26165 0.36863 0.69054 0.0
H1550 H 0.23891 0.36964 0.60335 0.0
C1551 C 0.22797 0.36727 0.70539 0.0
H1552 H 0.29095 0.36805 0.64143 0.0
C1553 C 0.19831 0.3684 0.68362 0.0
C1554 C 0.20189 0.3708 0.64667 0.0
H1555 H 0.22453 0.36778 0.73378 0.0
H1556 H 0.17263 0.3689 0.69593 0.0
C1557 C 0.23543 0.36862 0.63172 0.0
C1558 C 0.34356 0.47669 0.40981 0.0
C1559 C 0.32517 0.50557 0.39674 0.0
H1560 H 0.35647 0.42263 0.40252 0.0
C1561 C 0.30977 0.50318 0.36273 0.0
H1562 H 0.35601 0.47768 0.43569 0.0
C1563 C 0.31025 0.47148 0.34352 0.0
C1564 C 0.32577 0.44174 0.3583 0.0
H1565 H 0.29562 0.5251 0.35179 0.0
H1566 H 0.29654 0.46959 0.3183 0.0
C1567 C 0.34363 0.44505 0.39089 0.0
C1568 C 0.29385 0.16363 0.4024 0.0
C1569 C 0.25797 0.16123 0.41103 0.0
H1570 H 0.3344 0.19188 0.37465 0.0
C1571 C 0.23435 0.18406 0.39469 0.0
H1572 H 0.31253 0.14605 0.41433 0.0
C1573 C 0.2469 0.21072 0.37219 0.0
C1574 C 0.28318 0.2145 0.36521 0.0
H1575 H 0.20648 0.18261 0.40081 0.0
H1576 H 0.22843 0.22927 0.36153 0.0
C1577 C 0.30629 0.18976 0.37942 0.0
C1578 C 0.77146 0.2423 0.54113 0.0
C1579 C 0.79267 0.27099 0.52999 0.0
H1580 H 0.77045 0.18947 0.56079 0.0
C1581 C 0.82921 0.27114 0.53642 0.0
H1582 H 0.74319 0.24176 0.53662 0.0
C1583 C 0.84484 0.24141 0.55025 0.0
C1584 C 0.82414 0.21098 0.55746 0.0
H1585 H 0.846 0.29337 0.52857 0.0
H1586 H 0.87334 0.24143 0.55265 0.0
C1587 C 0.78715 0.21233 0.55469 0.0
C1588 C 0.46077 -0.02181 0.34169 0.0
C1589 C 0.43323 -0.00299 0.3265 0.0
H1590 H 0.51409 -0.01968 0.36058 0.0
C1591 C 0.43649 0.034 0.32398 0.0
H1592 H 0.45882 0.94968 0.34408 0.0
C1593 C 0.46795 0.05158 0.33353 0.0
C1594 C 0.49681 0.03237 0.34537 0.0
H1595 H 0.41536 0.04918 0.31282 0.0
H1596 H 0.47032 0.07986 0.32937 0.0
C1597 C 0.49245 -0.00426 0.35089 0.0
C1598 C 0.65464 0.68034 0.04939 0.0
C1599 C 0.6898 0.68712 0.03938 0.0
H1600 H 0.6075 0.70172 0.07012 0.0
C1601 C 0.70642 0.71948 0.04884 0.0
H1602 H 0.64132 0.65541 0.04277 0.0
C1603 C 0.68695 0.74614 0.06418 0.0
C1604 C 0.6507 0.74068 0.07059 0.0
H1605 H 0.73356 0.72533 0.04166 0.0
H1606 H 0.69977 0.77174 0.06888 0.0
C1607 C 0.63525 0.70688 0.06505 0.0
C1608 C 0.48759 0.41637 0.29486 0.0
C1609 C 0.51561 0.39615 0.28313 0.0
H1610 H 0.4324 0.41763 0.30526 0.0
C1611 C 0.50985 0.35989 0.27622 0.0
H1612 H 0.4913 0.44438 0.30035 0.0
C1613 C 0.4761 0.34455 0.27889 0.0
C1614 C 0.44759 0.36536 0.28823 0.0
H1615 H 0.53112 0.34368 0.26727 0.0
H1616 H 0.47215 0.31682 0.27226 0.0
C1617 C 0.4538 0.40113 0.29721 0.0
C1618 C 0.25093 0.74068 0.88013 0.0
C1619 C 0.23645 0.77393 0.88552 0.0
H1620 H 0.24053 0.68519 0.87277 0.0
C1621 C 0.19968 0.77725 0.88349 0.0
H1622 H 0.27919 0.73743 0.88176 0.0
C1623 C 0.17759 0.74756 0.87832 0.0
C1624 C 0.19181 0.71384 0.87553 0.0
H1625 H 0.18788 0.80269 0.88736 0.0
H1626 H 0.14932 0.75092 0.87816 0.0
C1627 C 0.22875 0.71079 0.8754 0.0
C1628 C 0.42535 0.91041 0.15824 0.0
C1629 C 0.40937 0.88704 0.18238 0.0
H1630 H 0.46713 0.91844 0.12136 0.0
C1631 C 0.41791 0.85115 0.18174 0.0
H1632 H 0.41878 0.93808 0.15767 0.0
C1633 C 0.44521 0.83981 0.16052 0.0
C1634 C 0.4645 0.8644 0.14018 0.0
H1635 H 0.40532 0.83237 0.19951 0.0
H1636 H 0.45347 0.81275 0.16294 0.0
C1637 C 0.45292 0.89917 0.13736 0.0
C1638 C 0.0143 -0.0045 0.62451 0.0
C1639 C 0.04388 0.01408 0.63842 0.0
H1640 H 0.96207 -0.00106 0.60352 0.0
C1641 C 0.04628 0.05109 0.63477 0.0
H1642 H 0.01189 0.96697 0.62647 0.0
C1643 C 0.01766 0.06948 0.62153 0.0
C1644 C -0.01364 0.05101 0.612 0.0
H1645 H 0.06901 0.0661 0.6449 0.0
H1646 H 0.01894 0.09813 0.62179 0.0
C1647 C -0.0143 0.01384 0.61154 0.0
loop_
_geom_bond_atom_site_label_1
_geom_bond_atom_site_label_2
_geom_bond_distance
_geom_bond_site_symmetry_2
_ccdc_geom_bond_type
C0 O1 1.306 . S
C0 O3 1.160 . S
O1 C0 1.306 . S
O1 Cd2 2.228 . S
Cd2 O1 2.228 . S
Cd2 O6 2.273 . S
Cd2 O10 2.277 . S
O3 C0 1.160 . S
O3 Cd4 2.203 1_655 S
Cd4 O3 2.203 1_455 S
Cd4 O6 2.411 1_455 S
Cd4 O7 2.333 . S
Cd4 O8 2.352 . S
Cd4 O12 2.277 . S
Cd4 O13 2.356 . S
C5 O10 1.209 1_455 S
C5 O12 1.226 . S
O6 Cd2 2.273 . S
O6 Cd4 2.411 1_655 S
O6 C9 1.320 . S
O7 Cd4 2.333 . S
O7 C9 1.214 1_455 S
O8 Cd4 2.352 . S
O8 C11 1.258 . S
C9 O6 1.320 . S
C9 O7 1.214 1_655 S
O10 Cd2 2.277 . S
O10 C5 1.209 1_655 S
C11 O8 1.258 . S
C11 O13 1.282 . S
O12 Cd4 2.277 . S
O12 C5 1.226 . S
O13 Cd4 2.356 . S
O13 C11 1.282 . S
C14 O15 1.306 . S
C14 O17 1.160 . S
O15 C14 1.306 . S
O15 Cd16 2.228 1_455 S
Cd16 O15 2.228 1_655 S
Cd16 O20 2.273 . S
Cd16 O24 2.277 . S
O17 C14 1.160 . S
O17 Cd18 2.203 . S
Cd18 O17 2.203 . S
Cd18 O20 2.411 1_455 S
Cd18 O21 2.333 1_455 S
Cd18 O22 2.352 . S
Cd18 O26 2.277 1_455 S
Cd18 O27 2.356 . S
C19 O24 1.209 . S
C19 O26 1.226 . S
O20 Cd16 2.273 . S
O20 Cd18 2.411 1_655 S
O20 C23 1.320 . S
O21 Cd18 2.333 1_655 S
O21 C23 1.214 . S
O22 Cd18 2.352 . S
O22 C25 1.258 . S
C23 O20 1.320 . S
C23 O21 1.214 . S
O24 Cd16 2.277 . S
O24 C19 1.209 . S
C25 O22 1.258 . S
C25 O27 1.282 . S
O26 Cd18 2.277 1_655 S
O26 C19 1.226 . S
O27 Cd18 2.356 . S
O27 C25 1.282 . S
C28 O29 1.306 . S
C28 O31 1.160 . S
O29 C28 1.306 . S
O29 Cd30 2.228 . S
Cd30 O29 2.228 . S
Cd30 O34 2.273 . S
Cd30 O38 2.277 . S
O31 C28 1.160 . S
O31 Cd32 2.203 . S
Cd32 O31 2.203 . S
Cd32 O34 2.411 . S
Cd32 O35 2.333 . S
Cd32 O36 2.352 . S
Cd32 O40 2.277 . S
Cd32 O41 2.356 . S
C33 O38 1.209 . S
C33 O40 1.226 . S
O34 Cd30 2.273 . S
O34 Cd32 2.411 . S
O34 C37 1.320 . S
O35 Cd32 2.333 . S
O35 C37 1.214 . S
O36 Cd32 2.352 . S
O36 C39 1.258 . S
C37 O34 1.320 . S
C37 O35 1.214 . S
O38 Cd30 2.277 . S
O38 C33 1.209 . S
C39 O36 1.258 . S
C39 O41 1.282 . S
O40 Cd32 2.277 . S
O40 C33 1.226 . S
O41 Cd32 2.356 . S
O41 C39 1.282 . S
C42 O43 1.306 . S
C42 O45 1.160 . S
O43 C42 1.306 . S
O43 Cd44 2.228 . S
Cd44 O43 2.228 . S
Cd44 O48 2.273 . S
Cd44 O52 2.277 . S
O45 C42 1.160 . S
O45 Cd46 2.203 . S
Cd46 O45 2.203 . S
Cd46 O48 2.411 . S
Cd46 O49 2.333 . S
Cd46 O50 2.352 . S
Cd46 O54 2.277 . S
Cd46 O55 2.356 . S
C47 O52 1.209 . S
C47 O54 1.226 . S
O48 Cd44 2.273 . S
O48 Cd46 2.411 . S
O48 C51 1.320 . S
O49 Cd46 2.333 . S
O49 C51 1.214 . S
O50 Cd46 2.352 . S
O50 C53 1.258 . S
C51 O48 1.320 . S
C51 O49 1.214 . S
O52 Cd44 2.277 . S
O52 C47 1.209 . S
C53 O50 1.258 . S
C53 O55 1.282 . S
O54 Cd46 2.277 . S
O54 C47 1.226 . S
O55 Cd46 2.356 . S
O55 C53 1.282 . S
C56 O57 1.306 . S
C56 O59 1.160 . S
O57 C56 1.306 . S
O57 Cd58 2.228 . S
Cd58 O57 2.228 . S
Cd58 O62 2.273 . S
Cd58 O66 2.277 . S
O59 C56 1.160 . S
O59 Cd60 2.203 1_655 S
Cd60 O59 2.203 1_455 S
Cd60 O62 2.411 1_455 S
Cd60 O63 2.333 . S
Cd60 O64 2.352 . S
Cd60 O68 2.277 . S
Cd60 O69 2.356 . S
C61 O66 1.209 1_455 S
C61 O68 1.226 . S
O62 Cd58 2.273 . S
O62 Cd60 2.411 1_655 S
O62 C65 1.320 . S
O63 Cd60 2.333 . S
O63 C65 1.214 1_455 S
O64 Cd60 2.352 . S
O64 C67 1.258 . S
C65 O62 1.320 . S
C65 O63 1.214 1_655 S
O66 Cd58 2.277 . S
O66 C61 1.209 1_655 S
C67 O64 1.258 . S
C67 O69 1.282 . S
O68 Cd60 2.277 . S
O68 C61 1.226 . S
O69 Cd60 2.356 . S
O69 C67 1.282 . S
C70 O71 1.306 . S
C70 O73 1.160 . S
O71 C70 1.306 . S
O71 Cd72 2.228 . S
Cd72 O71 2.228 . S
Cd72 O76 2.273 . S
Cd72 O80 2.277 . S
O73 C70 1.160 . S
O73 Cd74 2.203 . S
Cd74 O73 2.203 . S
Cd74 O76 2.411 . S
Cd74 O77 2.333 . S
Cd74 O78 2.352 . S
Cd74 O82 2.277 . S
Cd74 O83 2.356 . S
C75 O80 1.209 . S
C75 O82 1.226 . S
O76 Cd72 2.273 . S
O76 Cd74 2.411 . S
O76 C79 1.320 . S
O77 Cd74 2.333 . S
O77 C79 1.214 . S
O78 Cd74 2.352 . S
O78 C81 1.258 . S
C79 O76 1.320 . S
C79 O77 1.214 . S
O80 Cd72 2.277 . S
O80 C75 1.209 . S
C81 O78 1.258 . S
C81 O83 1.282 . S
O82 Cd74 2.277 . S
O82 C75 1.226 . S
O83 Cd74 2.356 . S
O83 C81 1.282 . S
C84 O85 1.306 . S
C84 O87 1.160 . S
O85 C84 1.306 . S
O85 Cd86 2.228 . S
Cd86 O85 2.228 . S
Cd86 O90 2.273 . S
Cd86 O94 2.277 . S
O87 C84 1.160 . S
O87 Cd88 2.203 . S
Cd88 O87 2.203 . S
Cd88 O90 2.411 . S
Cd88 O91 2.333 . S
Cd88 O92 2.352 . S
Cd88 O96 2.277 . S
Cd88 O97 2.356 . S
C89 O94 1.209 . S
C89 O96 1.226 . S
O90 Cd86 2.273 . S
O90 Cd88 2.411 . S
O90 C93 1.320 . S
O91 Cd88 2.333 . S
O91 C93 1.214 . S
O92 Cd88 2.352 . S
O92 C95 1.258 . S
C93 O90 1.320 . S
C93 O91 1.214 . S
O94 Cd86 2.277 . S
O94 C89 1.209 . S
C95 O92 1.258 . S
C95 O97 1.282 . S
O96 Cd88 2.277 . S
O96 C89 1.226 . S
O97 Cd88 2.356 . S
O97 C95 1.282 . S
C98 O99 1.306 . S
C98 O101 1.160 . S
O99 C98 1.306 . S
O99 Cd100 2.228 1_455 S
Cd100 O99 2.228 1_655 S
Cd100 O104 2.273 . S
Cd100 O108 2.277 . S
O101 C98 1.160 . S
O101 Cd102 2.203 . S
Cd102 O101 2.203 . S
Cd102 O104 2.411 1_455 S
Cd102 O105 2.333 1_455 S
Cd102 O106 2.352 . S
Cd102 O110 2.277 1_455 S
Cd102 O111 2.356 . S
C103 O108 1.209 . S
C103 O110 1.226 . S
O104 Cd100 2.273 . S
O104 Cd102 2.411 1_655 S
O104 C107 1.320 . S
O105 Cd102 2.333 1_655 S
O105 C107 1.214 . S
O106 Cd102 2.352 . S
O106 C109 1.258 . S
C107 O104 1.320 . S
C107 O105 1.214 . S
O108 Cd100 2.277 . S
O108 C103 1.209 . S
C109 O106 1.258 . S
C109 O111 1.282 . S
O110 Cd102 2.277 1_655 S
O110 C103 1.226 . S
O111 Cd102 2.356 . S
O111 C109 1.282 . S
C112 O113 1.306 . S
C112 O115 1.174 . S
O113 C112 1.306 . S
O113 Cd114 2.228 . S
Cd114 O113 2.228 . S
Cd114 O118 2.273 . S
Cd114 O122 2.278 1_565 S
O115 C112 1.174 . S
O115 Cd116 2.199 1_565 S
Cd116 O115 2.199 1_545 S
Cd116 O118 2.411 1_545 S
Cd116 O119 2.333 . S
Cd116 O120 2.352 . S
Cd116 O124 2.277 . S
Cd116 O125 2.356 . S
C117 O122 1.208 . S
C117 O124 1.226 . S
O118 Cd114 2.273 . S
O118 Cd116 2.411 1_565 S
O118 C121 1.320 . S
O119 Cd116 2.333 . S
O119 C121 1.214 1_545 S
O120 Cd116 2.352 . S
O120 C123 1.258 . S
C121 O118 1.320 . S
C121 O119 1.214 1_565 S
O122 Cd114 2.278 1_545 S
O122 C117 1.208 . S
C123 O120 1.258 . S
C123 O125 1.282 . S
O124 Cd116 2.277 . S
O124 C117 1.226 . S
O125 Cd116 2.356 . S
O125 C123 1.282 . S
C126 O127 1.306 . S
C126 O129 1.160 . S
O127 C126 1.306 . S
O127 Cd128 2.228 . S
Cd128 O127 2.228 . S
Cd128 O132 2.273 . S
Cd128 O136 2.277 . S
O129 C126 1.160 . S
O129 Cd130 2.203 . S
Cd130 O129 2.203 . S
Cd130 O132 2.411 . S
Cd130 O133 2.333 . S
Cd130 O134 2.352 . S
Cd130 O138 2.277 . S
Cd130 O139 2.356 . S
C131 O136 1.209 . S
C131 O138 1.226 . S
O132 Cd128 2.273 . S
O132 Cd130 2.411 . S
O132 C135 1.320 . S
O133 Cd130 2.333 . S
O133 C135 1.214 . S
O134 Cd130 2.352 . S
O134 C137 1.258 . S
C135 O132 1.320 . S
C135 O133 1.214 . S
O136 Cd128 2.277 . S
O136 C131 1.209 . S
C137 O134 1.258 . S
C137 O139 1.282 . S
O138 Cd130 2.277 . S
O138 C131 1.226 . S
O139 Cd130 2.356 . S
O139 C137 1.282 . S
C140 O141 1.306 . S
C140 O143 1.160 . S
O141 C140 1.306 . S
O141 Cd142 2.228 . S
Cd142 O141 2.228 . S
Cd142 O146 2.273 . S
Cd142 O150 2.277 . S
O143 C140 1.160 . S
O143 Cd144 2.203 1_565 S
Cd144 O143 2.203 1_545 S
Cd144 O146 2.411 1_545 S
Cd144 O147 2.333 . S
Cd144 O148 2.352 . S
Cd144 O152 2.277 . S
Cd144 O153 2.356 . S
C145 O150 1.209 1_545 S
C145 O152 1.226 . S
O146 Cd142 2.273 . S
O146 Cd144 2.411 1_565 S
O146 C149 1.320 . S
O147 Cd144 2.333 . S
O147 C149 1.214 1_545 S
O148 Cd144 2.352 . S
O148 C151 1.258 . S
C149 O146 1.320 . S
C149 O147 1.214 1_565 S
O150 Cd142 2.277 . S
O150 C145 1.209 1_565 S
C151 O148 1.258 . S
C151 O153 1.282 . S
O152 Cd144 2.277 . S
O152 C145 1.226 . S
O153 Cd144 2.356 . S
O153 C151 1.282 . S
C154 O155 1.306 . S
C154 O157 1.160 . S
O155 C154 1.306 . S
O155 Cd156 2.228 1_554 S
Cd156 O155 2.228 1_556 S
Cd156 O160 2.273 . S
Cd156 O164 2.277 . S
O157 C154 1.160 . S
O157 Cd158 2.203 . S
Cd158 O157 2.203 . S
Cd158 O160 2.411 1_554 S
Cd158 O161 2.333 1_554 S
Cd158 O162 2.352 . S
Cd158 O166 2.277 1_554 S
Cd158 O167 2.356 . S
C159 O164 1.209 . S
C159 O166 1.226 . S
O160 Cd156 2.273 . S
O160 Cd158 2.411 1_556 S
O160 C163 1.320 . S
O161 Cd158 2.333 1_556 S
O161 C163 1.214 . S
O162 Cd158 2.352 . S
O162 C165 1.258 . S
C163 O160 1.320 . S
C163 O161 1.214 . S
O164 Cd156 2.277 . S
O164 C159 1.209 . S
C165 O162 1.258 . S
C165 O167 1.282 . S
O166 Cd158 2.277 1_556 S
O166 C159 1.226 . S
O167 Cd158 2.356 . S
O167 C165 1.282 . S
C168 O169 1.306 . S
C168 O171 1.160 . S
O169 C168 1.306 . S
O169 Cd170 2.228 . S
Cd170 O169 2.228 . S
Cd170 O174 2.273 . S
Cd170 O178 2.277 . S
O171 C168 1.160 . S
O171 Cd172 2.203 1_554 S
Cd172 O171 2.203 1_556 S
Cd172 O174 2.411 1_556 S
Cd172 O175 2.333 . S
Cd172 O176 2.350 1_556 S
Cd172 O180 2.277 . S
Cd172 O181 2.356 . S
C173 O178 1.209 1_556 S
C173 O180 1.226 . S
O174 Cd170 2.273 . S
O174 Cd172 2.411 1_554 S
O174 C177 1.320 . S
O175 Cd172 2.333 . S
O175 C177 1.214 1_556 S
O176 Cd172 2.350 1_554 S
O176 C179 1.250 1_554 S
C177 O174 1.320 . S
C177 O175 1.214 1_554 S
O178 Cd170 2.277 . S
O178 C173 1.209 1_554 S
C179 O176 1.250 1_556 S
C179 O181 1.282 . S
O180 Cd172 2.277 . S
O180 C173 1.226 . S
O181 Cd172 2.356 . S
O181 C179 1.282 . S
C182 O183 1.306 . S
C182 O185 1.160 . S
O183 C182 1.306 . S
O183 Cd184 2.228 . S
Cd184 O183 2.228 . S
Cd184 O188 2.273 . S
Cd184 O192 2.277 . S
O185 C182 1.160 . S
O185 Cd186 2.203 1_554 S
Cd186 O185 2.203 1_556 S
Cd186 O188 2.411 1_556 S
Cd186 O189 2.333 . S
Cd186 O190 2.352 . S
Cd186 O194 2.277 . S
Cd186 O195 2.356 . S
C187 O192 1.209 1_556 S
C187 O194 1.226 . S
O188 Cd184 2.273 . S
O188 Cd186 2.411 1_554 S
O188 C191 1.320 . S
O189 Cd186 2.333 . S
O189 C191 1.214 1_556 S
O190 Cd186 2.352 . S
O190 C193 1.258 . S
C191 O188 1.320 . S
C191 O189 1.214 1_554 S
O192 Cd184 2.277 . S
O192 C187 1.209 1_554 S
C193 O190 1.258 . S
C193 O195 1.282 . S
O194 Cd186 2.277 . S
O194 C187 1.226 . S
O195 Cd186 2.356 . S
O195 C193 1.282 . S
C196 O197 1.306 . S
C196 O199 1.160 . S
O197 C196 1.306 . S
O197 Cd198 2.228 . S
Cd198 O197 2.228 . S
Cd198 O202 2.273 . S
Cd198 O206 2.277 . S
O199 C196 1.160 . S
O199 Cd200 2.203 . S
Cd200 O199 2.203 . S
Cd200 O202 2.411 . S
Cd200 O203 2.333 . S
Cd200 O204 2.352 . S
Cd200 O208 2.277 . S
Cd200 O209 2.356 . S
C201 O206 1.209 . S
C201 O208 1.226 . S
O202 Cd198 2.273 . S
O202 Cd200 2.411 . S
O202 C205 1.320 . S
O203 Cd200 2.333 . S
O203 C205 1.214 . S
O204 Cd200 2.352 . S
O204 C207 1.258 . S
C205 O202 1.320 . S
C205 O203 1.214 . S
O206 Cd198 2.277 . S
O206 C201 1.209 . S
C207 O204 1.258 . S
C207 O209 1.282 . S
O208 Cd200 2.277 . S
O208 C201 1.226 . S
O209 Cd200 2.356 . S
O209 C207 1.282 . S
C210 O211 1.306 . S
C210 O213 1.160 . S
O211 C210 1.306 . S
O211 Cd212 2.228 . S
Cd212 O211 2.228 . S
Cd212 O216 2.273 . S
Cd212 O220 2.277 . S
O213 C210 1.160 . S
O213 Cd214 2.203 . S
Cd214 O213 2.203 . S
Cd214 O216 2.411 . S
Cd214 O217 2.333 . S
Cd214 O218 2.352 . S
Cd214 O222 2.277 . S
Cd214 O223 2.356 . S
C215 O220 1.209 . S
C215 O222 1.226 . S
O216 Cd212 2.273 . S
O216 Cd214 2.411 . S
O216 C219 1.320 . S
O217 Cd214 2.333 . S
O217 C219 1.214 . S
O218 Cd214 2.352 . S
O218 C221 1.258 . S
C219 O216 1.320 . S
C219 O217 1.214 . S
O220 Cd212 2.277 . S
O220 C215 1.209 . S
C221 O218 1.258 . S
C221 O223 1.282 . S
O222 Cd214 2.277 . S
O222 C215 1.226 . S
O223 Cd214 2.356 . S
O223 C221 1.282 . S
C224 O225 1.306 . S
C224 O227 1.160 . S
O225 C224 1.306 . S
O225 Cd226 2.228 1_545 S
Cd226 O225 2.228 1_565 S
Cd226 O230 2.273 . S
Cd226 O234 2.277 . S
O227 C224 1.160 . S
O227 Cd228 2.203 . S
Cd228 O227 2.203 . S
Cd228 O230 2.411 1_545 S
Cd228 O231 2.333 1_545 S
Cd228 O232 2.352 . S
Cd228 O236 2.277 1_545 S
Cd228 O237 2.356 . S
C229 O234 1.209 . S
C229 O236 1.226 . S
O230 Cd226 2.273 . S
O230 Cd228 2.411 1_565 S
O230 C233 1.320 . S
O231 Cd228 2.333 1_565 S
O231 C233 1.214 . S
O232 Cd228 2.352 . S
O232 C235 1.258 . S
C233 O230 1.320 . S
C233 O231 1.214 . S
O234 Cd226 2.277 . S
O234 C229 1.209 . S
C235 O232 1.258 . S
C235 O237 1.282 . S
O236 Cd228 2.277 1_565 S
O236 C229 1.226 . S
O237 Cd228 2.356 . S
O237 C235 1.282 . S
C238 O239 1.306 . S
C238 O241 1.160 . S
O239 C238 1.306 . S
O239 Cd240 2.228 . S
Cd240 O239 2.228 . S
Cd240 O244 2.273 . S
Cd240 O248 2.277 . S
O241 C238 1.160 . S
O241 Cd242 2.203 . S
Cd242 O241 2.203 . S
Cd242 O244 2.411 . S
Cd242 O245 2.333 . S
Cd242 O246 2.352 . S
Cd242 O250 2.277 . S
Cd242 O251 2.356 . S
C243 O248 1.209 . S
C243 O250 1.226 . S
O244 Cd240 2.273 . S
O244 Cd242 2.411 . S
O244 C247 1.320 . S
O245 Cd242 2.333 . S
O245 C247 1.214 . S
O246 Cd242 2.352 . S
O246 C249 1.258 . S
C247 O244 1.320 . S
C247 O245 1.214 . S
O248 Cd240 2.277 . S
O248 C243 1.209 . S
C249 O246 1.258 . S
C249 O251 1.282 . S
O250 Cd242 2.277 . S
O250 C243 1.226 . S
O251 Cd242 2.356 . S
O251 C249 1.282 . S
C252 O253 1.306 . S
C252 O255 1.160 . S
O253 C252 1.306 . S
O253 Cd254 2.228 . S
Cd254 O253 2.228 . S
Cd254 O258 2.273 . S
Cd254 O262 2.277 . S
O255 C252 1.160 . S
O255 Cd256 2.203 . S
Cd256 O255 2.203 . S
Cd256 O258 2.411 . S
Cd256 O259 2.333 . S
Cd256 O260 2.352 . S
Cd256 O264 2.277 . S
Cd256 O265 2.356 . S
C257 O262 1.209 . S
C257 O264 1.226 . S
O258 Cd254 2.273 . S
O258 Cd256 2.411 . S
O258 C261 1.320 . S
O259 Cd256 2.333 . S
O259 C261 1.214 . S
O260 Cd256 2.352 . S
O260 C263 1.258 . S
C261 O258 1.320 . S
C261 O259 1.214 . S
O262 Cd254 2.277 . S
O262 C257 1.209 . S
C263 O260 1.258 . S
C263 O265 1.282 . S
O264 Cd256 2.277 . S
O264 C257 1.226 . S
O265 Cd256 2.356 . S
O265 C263 1.282 . S
C266 O267 1.306 . S
C266 O269 1.160 . S
O267 C266 1.306 . S
O267 Cd268 2.228 1_545 S
Cd268 O267 2.228 1_565 S
Cd268 O272 2.273 . S
Cd268 O276 2.277 . S
O269 C266 1.160 . S
O269 Cd270 2.203 . S
Cd270 O269 2.203 . S
Cd270 O272 2.411 1_545 S
Cd270 O273 2.333 1_545 S
Cd270 O274 2.352 . S
Cd270 O278 2.277 1_545 S
Cd270 O279 2.356 . S
C271 O276 1.209 . S
C271 O278 1.226 . S
O272 Cd268 2.273 . S
O272 Cd270 2.411 1_565 S
O272 C275 1.320 . S
O273 Cd270 2.333 1_565 S
O273 C275 1.214 . S
O274 Cd270 2.352 . S
O274 C277 1.258 . S
C275 O272 1.320 . S
C275 O273 1.214 . S
O276 Cd268 2.277 . S
O276 C271 1.209 . S
C277 O274 1.258 . S
C277 O279 1.282 . S
O278 Cd270 2.277 1_565 S
O278 C271 1.226 . S
O279 Cd270 2.356 . S
O279 C277 1.282 . S
C280 O281 1.306 . S
C280 O283 1.160 . S
O281 C280 1.306 . S
O281 Cd282 2.228 1_554 S
Cd282 O281 2.228 1_556 S
Cd282 O286 2.273 . S
Cd282 O290 2.277 . S
O283 C280 1.160 . S
O283 Cd284 2.203 . S
Cd284 O283 2.203 . S
Cd284 O286 2.411 1_554 S
Cd284 O287 2.333 1_554 S
Cd284 O288 2.352 . S
Cd284 O292 2.277 1_554 S
Cd284 O293 2.356 . S
C285 O290 1.209 . S
C285 O292 1.226 . S
O286 Cd282 2.273 . S
O286 Cd284 2.411 1_556 S
O286 C289 1.320 . S
O287 Cd284 2.333 1_556 S
O287 C289 1.214 . S
O288 Cd284 2.352 . S
O288 C291 1.258 . S
C289 O286 1.320 . S
C289 O287 1.214 . S
O290 Cd282 2.277 . S
O290 C285 1.209 . S
C291 O288 1.258 . S
C291 O293 1.282 . S
O292 Cd284 2.277 1_556 S
O292 C285 1.226 . S
O293 Cd284 2.356 . S
O293 C291 1.282 . S
C294 O295 1.306 . S
C294 O297 1.160 . S
O295 C294 1.306 . S
O295 Cd296 2.228 . S
Cd296 O295 2.228 . S
Cd296 O300 2.273 . S
Cd296 O304 2.277 . S
O297 C294 1.160 . S
O297 Cd298 2.203 . S
Cd298 O297 2.203 . S
Cd298 O300 2.411 . S
Cd298 O301 2.333 . S
Cd298 O302 2.352 . S
Cd298 O306 2.277 . S
Cd298 O307 2.356 . S
C299 O304 1.209 . S
C299 O306 1.226 . S
O300 Cd296 2.273 . S
O300 Cd298 2.411 . S
O300 C303 1.320 . S
O301 Cd298 2.333 . S
O301 C303 1.214 . S
O302 Cd298 2.352 . S
O302 C305 1.258 . S
C303 O300 1.320 . S
C303 O301 1.214 . S
O304 Cd296 2.277 . S
O304 C299 1.209 . S
C305 O302 1.258 . S
C305 O307 1.282 . S
O306 Cd298 2.277 . S
O306 C299 1.226 . S
O307 Cd298 2.356 . S
O307 C305 1.282 . S
C308 O309 1.306 . S
C308 O311 1.160 . S
O309 C308 1.306 . S
O309 Cd310 2.228 . S
Cd310 O309 2.228 . S
Cd310 O314 2.273 . S
Cd310 O318 2.277 . S
O311 C308 1.160 . S
O311 Cd312 2.203 . S
Cd312 O311 2.203 . S
Cd312 O314 2.411 . S
Cd312 O315 2.333 . S
Cd312 O316 2.352 . S
Cd312 O320 2.277 . S
Cd312 O321 2.356 . S
C313 O318 1.209 . S
C313 O320 1.226 . S
O314 Cd310 2.273 . S
O314 Cd312 2.411 . S
O314 C317 1.320 . S
O315 Cd312 2.333 . S
O315 C317 1.214 . S
O316 Cd312 2.352 . S
O316 C319 1.258 . S
C317 O314 1.320 . S
C317 O315 1.214 . S
O318 Cd310 2.277 . S
O318 C313 1.209 . S
C319 O316 1.258 . S
C319 O321 1.282 . S
O320 Cd312 2.277 . S
O320 C313 1.226 . S
O321 Cd312 2.356 . S
O321 C319 1.282 . S
C322 O323 1.306 . S
C322 O325 1.160 . S
O323 C322 1.306 . S
O323 Cd324 2.228 . S
Cd324 O323 2.228 . S
Cd324 O328 2.273 . S
Cd324 O332 2.277 . S
O325 C322 1.160 . S
O325 Cd326 2.203 . S
Cd326 O325 2.203 . S
Cd326 O328 2.411 . S
Cd326 O329 2.333 . S
Cd326 O330 2.352 . S
Cd326 O334 2.277 . S
Cd326 O335 2.356 . S
C327 O332 1.209 . S
C327 O334 1.226 . S
O328 Cd324 2.273 . S
O328 Cd326 2.411 . S
O328 C331 1.320 . S
O329 Cd326 2.333 . S
O329 C331 1.214 . S
O330 Cd326 2.352 . S
O330 C333 1.258 . S
C331 O328 1.320 . S
C331 O329 1.214 . S
O332 Cd324 2.277 . S
O332 C327 1.209 . S
C333 O330 1.258 . S
C333 O335 1.282 . S
O334 Cd326 2.277 . S
O334 C327 1.226 . S
O335 Cd326 2.356 . S
O335 C333 1.282 . S
Sc336 O339 2.025 . S
Sc336 O346 2.105 . S
Sc336 O349 2.105 . S
Sc336 O352 2.105 . S
Sc336 O355 2.105 . S
Sc337 O339 2.025 . S
Sc337 O347 2.105 . S
Sc337 O351 2.105 . S
Sc337 O353 2.105 . S
Sc337 O357 2.105 . S
Sc338 O339 2.025 . S
Sc338 O348 2.105 . S
Sc338 O350 2.105 . S
Sc338 O354 2.105 . S
Sc338 O356 2.105 . S
O339 Sc336 2.025 . S
O339 Sc337 2.025 . S
O339 Sc338 2.025 . S
C340 O346 1.268 . S
C340 O356 1.268 . S
C341 O347 1.268 . S
C341 O355 1.268 . S
C342 O348 1.268 . S
C342 O357 1.268 . S
C343 O349 1.268 . S
C343 O353 1.268 . S
C344 O350 1.268 . S
C344 O352 1.268 . S
C345 O351 1.268 . S
C345 O354 1.268 . S
O346 Sc336 2.105 . S
O346 C340 1.268 . S
O347 Sc337 2.105 . S
O347 C341 1.268 . S
O348 Sc338 2.105 . S
O348 C342 1.268 . S
O349 Sc336 2.105 . S
O349 C343 1.268 . S
O350 Sc338 2.105 . S
O350 C344 1.268 . S
O351 Sc337 2.105 . S
O351 C345 1.268 . S
O352 Sc336 2.105 . S
O352 C344 1.268 . S
O353 Sc337 2.105 . S
O353 C343 1.268 . S
O354 Sc338 2.105 . S
O354 C345 1.268 . S
O355 Sc336 2.105 . S
O355 C341 1.268 . S
O356 Sc338 2.105 . S
O356 C340 1.268 . S
O357 Sc337 2.105 . S
O357 C342 1.268 . S
Sc358 O361 2.025 . S
Sc358 O368 2.105 . S
Sc358 O371 2.105 . S
Sc358 O374 2.105 . S
Sc358 O377 2.105 . S
Sc359 O361 2.025 . S
Sc359 O369 2.105 . S
Sc359 O373 2.105 . S
Sc359 O375 2.105 . S
Sc359 O379 2.105 . S
Sc360 O361 2.025 . S
Sc360 O370 2.105 . S
Sc360 O372 2.105 . S
Sc360 O376 2.105 . S
Sc360 O378 2.105 . S
O361 Sc358 2.025 . S
O361 Sc359 2.025 . S
O361 Sc360 2.025 . S
C362 O368 1.268 . S
C362 O378 1.268 . S
C363 O369 1.268 . S
C363 O377 1.268 . S
C364 O370 1.268 . S
C364 O379 1.268 . S
C365 O371 1.268 . S
C365 O375 1.268 . S
C366 O372 1.268 . S
C366 O374 1.268 . S
C367 O373 1.268 . S
C367 O376 1.268 . S
O368 Sc358 2.105 . S
O368 C362 1.268 . S
O369 Sc359 2.105 . S
O369 C363 1.268 . S
O370 Sc360 2.105 . S
O370 C364 1.268 . S
O371 Sc358 2.105 . S
O371 C365 1.268 . S
O372 Sc360 2.105 . S
O372 C366 1.268 . S
O373 Sc359 2.105 . S
O373 C367 1.268 . S
O374 Sc358 2.105 . S
O374 C366 1.268 . S
O375 Sc359 2.105 . S
O375 C365 1.268 . S
O376 Sc360 2.105 . S
O376 C367 1.268 . S
O377 Sc358 2.105 . S
O377 C363 1.268 . S
O378 Sc360 2.105 . S
O378 C362 1.268 . S
O379 Sc359 2.105 . S
O379 C364 1.268 . S
Sc380 O383 2.025 . S
Sc380 O390 2.105 . S
Sc380 O393 2.105 . S
Sc380 O396 2.105 . S
Sc380 O399 2.105 . S
Sc381 O383 2.025 . S
Sc381 O391 2.105 . S
Sc381 O395 2.105 . S
Sc381 O397 2.105 . S
Sc381 O401 2.105 . S
Sc382 O383 2.025 . S
Sc382 O392 2.105 . S
Sc382 O394 2.105 . S
Sc382 O398 2.105 . S
Sc382 O400 2.105 . S
O383 Sc380 2.025 . S
O383 Sc381 2.025 . S
O383 Sc382 2.025 . S
C384 O390 1.268 . S
C384 O400 1.268 . S
C385 O391 1.268 . S
C385 O399 1.268 . S
C386 O392 1.268 . S
C386 O401 1.268 . S
C387 O393 1.268 . S
C387 O397 1.268 . S
C388 O394 1.268 . S
C388 O396 1.268 . S
C389 O395 1.268 . S
C389 O398 1.268 . S
O390 Sc380 2.105 . S
O390 C384 1.268 . S
O391 Sc381 2.105 . S
O391 C385 1.268 . S
O392 Sc382 2.105 . S
O392 C386 1.268 . S
O393 Sc380 2.105 . S
O393 C387 1.268 . S
O394 Sc382 2.105 . S
O394 C388 1.268 . S
O395 Sc381 2.105 . S
O395 C389 1.268 . S
O396 Sc380 2.105 . S
O396 C388 1.268 . S
O397 Sc381 2.105 . S
O397 C387 1.268 . S
O398 Sc382 2.105 . S
O398 C389 1.268 . S
O399 Sc380 2.105 . S
O399 C385 1.268 . S
O400 Sc382 2.105 . S
O400 C384 1.268 . S
O401 Sc381 2.105 . S
O401 C386 1.268 . S
Sc402 O405 2.025 . S
Sc402 O412 2.105 . S
Sc402 O415 2.105 . S
Sc402 O418 2.105 . S
Sc402 O421 2.105 . S
Sc403 O405 2.025 . S
Sc403 O413 2.105 . S
Sc403 O417 2.105 . S
Sc403 O419 2.105 . S
Sc403 O423 2.105 . S
Sc404 O405 2.025 . S
Sc404 O414 2.105 . S
Sc404 O416 2.105 . S
Sc404 O420 2.105 . S
Sc404 O422 2.105 . S
O405 Sc402 2.025 . S
O405 Sc403 2.025 . S
O405 Sc404 2.025 . S
C406 O412 1.268 . S
C406 O422 1.268 . S
C407 O413 1.268 . S
C407 O421 1.268 . S
C408 O414 1.268 . S
C408 O423 1.268 . S
C409 O415 1.268 . S
C409 O419 1.268 . S
C410 O416 1.268 . S
C410 O418 1.268 . S
C411 O417 1.268 . S
C411 O420 1.268 . S
O412 Sc402 2.105 . S
O412 C406 1.268 . S
O413 Sc403 2.105 . S
O413 C407 1.268 . S
O414 Sc404 2.105 . S
O414 C408 1.268 . S
O415 Sc402 2.105 . S
O415 C409 1.268 . S
O416 Sc404 2.105 . S
O416 C410 1.268 . S
O417 Sc403 2.105 . S
O417 C411 1.268 . S
O418 Sc402 2.105 . S
O418 C410 1.268 . S
O419 Sc403 2.105 . S
O419 C409 1.268 . S
O420 Sc404 2.105 . S
O420 C411 1.268 . S
O421 Sc402 2.105 . S
O421 C407 1.268 . S
O422 Sc404 2.105 . S
O422 C406 1.268 . S
O423 Sc403 2.105 . S
O423 C408 1.268 . S
Sc424 O427 2.025 . S
Sc424 O434 2.105 . S
Sc424 O437 2.105 . S
Sc424 O440 2.105 . S
Sc424 O443 2.105 . S
Sc425 O427 2.025 . S
Sc425 O435 2.105 . S
Sc425 O439 2.105 . S
Sc425 O441 2.105 . S
Sc425 O445 2.105 . S
Sc426 O427 2.025 . S
Sc426 O436 2.105 . S
Sc426 O438 2.105 . S
Sc426 O442 2.105 . S
Sc426 O444 2.105 . S
O427 Sc424 2.025 . S
O427 Sc425 2.025 . S
O427 Sc426 2.025 . S
C428 O434 1.268 . S
C428 O444 1.268 . S
C429 O435 1.268 . S
C429 O443 1.268 . S
C430 O436 1.268 . S
C430 O445 1.268 . S
C431 O437 1.268 . S
C431 O441 1.268 . S
C432 O438 1.268 . S
C432 O440 1.268 . S
C433 O439 1.268 . S
C433 O442 1.268 . S
O434 Sc424 2.105 . S
O434 C428 1.268 . S
O435 Sc425 2.105 . S
O435 C429 1.268 . S
O436 Sc426 2.105 . S
O436 C430 1.268 . S
O437 Sc424 2.105 . S
O437 C431 1.268 . S
O438 Sc426 2.105 . S
O438 C432 1.268 . S
O439 Sc425 2.105 . S
O439 C433 1.268 . S
O440 Sc424 2.105 . S
O440 C432 1.268 . S
O441 Sc425 2.105 . S
O441 C431 1.268 . S
O442 Sc426 2.105 . S
O442 C433 1.268 . S
O443 Sc424 2.105 . S
O443 C429 1.268 . S
O444 Sc426 2.105 . S
O444 C428 1.268 . S
O445 Sc425 2.105 . S
O445 C430 1.268 . S
Sc446 O449 2.025 . S
Sc446 O456 2.105 . S
Sc446 O459 2.105 . S
Sc446 O462 2.105 . S
Sc446 O465 2.105 . S
Sc447 O449 2.025 . S
Sc447 O457 2.105 . S
Sc447 O461 2.105 . S
Sc447 O463 2.105 . S
Sc447 O467 2.105 . S
Sc448 O449 2.025 . S
Sc448 O458 2.105 . S
Sc448 O460 2.105 . S
Sc448 O464 2.105 . S
Sc448 O466 2.105 . S
O449 Sc446 2.025 . S
O449 Sc447 2.025 . S
O449 Sc448 2.025 . S
C450 O456 1.268 . S
C450 O466 1.268 . S
C451 O457 1.268 . S
C451 O465 1.268 . S
C452 O458 1.268 . S
C452 O467 1.268 . S
C453 O459 1.268 . S
C453 O463 1.268 . S
C454 O460 1.268 . S
C454 O462 1.268 . S
C455 O461 1.268 . S
C455 O464 1.268 . S
O456 Sc446 2.105 . S
O456 C450 1.268 . S
O457 Sc447 2.105 . S
O457 C451 1.268 . S
O458 Sc448 2.105 . S
O458 C452 1.268 . S
O459 Sc446 2.105 . S
O459 C453 1.268 . S
O460 Sc448 2.105 . S
O460 C454 1.268 . S
O461 Sc447 2.105 . S
O461 C455 1.268 . S
O462 Sc446 2.105 . S
O462 C454 1.268 . S
O463 Sc447 2.105 . S
O463 C453 1.268 . S
O464 Sc448 2.105 . S
O464 C455 1.268 . S
O465 Sc446 2.105 . S
O465 C451 1.268 . S
O466 Sc448 2.105 . S
O466 C450 1.268 . S
O467 Sc447 2.105 . S
O467 C452 1.268 . S
Sc468 O471 2.025 . S
Sc468 O478 2.105 . S
Sc468 O481 2.105 . S
Sc468 O484 2.105 . S
Sc468 O487 2.105 . S
Sc469 O471 2.025 . S
Sc469 O479 2.105 . S
Sc469 O483 2.105 . S
Sc469 O485 2.105 . S
Sc469 O489 2.105 . S
Sc470 O471 2.025 . S
Sc470 O480 2.105 . S
Sc470 O482 2.105 . S
Sc470 O486 2.105 . S
Sc470 O488 2.105 . S
O471 Sc468 2.025 . S
O471 Sc469 2.025 . S
O471 Sc470 2.025 . S
C472 O478 1.268 . S
C472 O488 1.268 . S
C473 O479 1.268 . S
C473 O487 1.268 . S
C474 O480 1.268 . S
C474 O489 1.268 . S
C475 O481 1.268 . S
C475 O485 1.268 . S
C476 O482 1.268 . S
C476 O484 1.268 . S
C477 O483 1.268 . S
C477 O486 1.268 . S
O478 Sc468 2.105 . S
O478 C472 1.268 . S
O479 Sc469 2.105 . S
O479 C473 1.268 . S
O480 Sc470 2.105 . S
O480 C474 1.268 . S
O481 Sc468 2.105 . S
O481 C475 1.268 . S
O482 Sc470 2.105 . S
O482 C476 1.268 . S
O483 Sc469 2.105 . S
O483 C477 1.268 . S
O484 Sc468 2.105 . S
O484 C476 1.268 . S
O485 Sc469 2.105 . S
O485 C475 1.268 . S
O486 Sc470 2.105 . S
O486 C477 1.268 . S
O487 Sc468 2.105 . S
O487 C473 1.268 . S
O488 Sc470 2.105 . S
O488 C472 1.268 . S
O489 Sc469 2.105 . S
O489 C474 1.268 . S
Sc490 O493 2.025 . S
Sc490 O500 2.105 . S
Sc490 O503 2.105 . S
Sc490 O506 2.105 . S
Sc490 O509 2.105 . S
Sc491 O493 2.025 . S
Sc491 O501 2.105 . S
Sc491 O505 2.105 . S
Sc491 O507 2.105 . S
Sc491 O511 2.105 . S
Sc492 O493 2.025 . S
Sc492 O502 2.105 . S
Sc492 O504 2.105 . S
Sc492 O508 2.105 . S
Sc492 O510 2.105 . S
O493 Sc490 2.025 . S
O493 Sc491 2.025 . S
O493 Sc492 2.025 . S
C494 O500 1.268 . S
C494 O510 1.268 . S
C495 O501 1.268 . S
C495 O509 1.268 . S
C496 O502 1.268 . S
C496 O511 1.268 . S
C497 O503 1.268 . S
C497 O507 1.268 . S
C498 O504 1.268 . S
C498 O506 1.268 . S
C499 O505 1.268 . S
C499 O508 1.268 . S
O500 Sc490 2.105 . S
O500 C494 1.268 . S
O501 Sc491 2.105 . S
O501 C495 1.268 . S
O502 Sc492 2.105 . S
O502 C496 1.268 . S
O503 Sc490 2.105 . S
O503 C497 1.268 . S
O504 Sc492 2.105 . S
O504 C498 1.268 . S
O505 Sc491 2.105 . S
O505 C499 1.268 . S
O506 Sc490 2.105 . S
O506 C498 1.268 . S
O507 Sc491 2.105 . S
O507 C497 1.268 . S
O508 Sc492 2.105 . S
O508 C499 1.268 . S
O509 Sc490 2.105 . S
O509 C495 1.268 . S
O510 Sc492 2.105 . S
O510 C494 1.268 . S
O511 Sc491 2.105 . S
O511 C496 1.268 . S
Sc512 O515 2.025 . S
Sc512 O522 2.105 . S
Sc512 O525 2.105 . S
Sc512 O528 2.105 . S
Sc512 O531 2.105 . S
Sc513 O515 2.025 . S
Sc513 O523 2.105 . S
Sc513 O527 2.105 . S
Sc513 O529 2.105 . S
Sc513 O533 2.105 . S
Sc514 O515 2.025 . S
Sc514 O524 2.105 . S
Sc514 O526 2.105 . S
Sc514 O530 2.105 . S
Sc514 O532 2.105 . S
O515 Sc512 2.025 . S
O515 Sc513 2.025 . S
O515 Sc514 2.025 . S
C516 O522 1.268 . S
C516 O532 1.268 . S
C517 O523 1.268 . S
C517 O531 1.268 . S
C518 O524 1.268 . S
C518 O533 1.268 . S
C519 O525 1.268 . S
C519 O529 1.268 . S
C520 O526 1.268 . S
C520 O528 1.268 . S
C521 O527 1.268 . S
C521 O530 1.268 . S
O522 Sc512 2.105 . S
O522 C516 1.268 . S
O523 Sc513 2.105 . S
O523 C517 1.268 . S
O524 Sc514 2.105 . S
O524 C518 1.268 . S
O525 Sc512 2.105 . S
O525 C519 1.268 . S
O526 Sc514 2.105 . S
O526 C520 1.268 . S
O527 Sc513 2.105 . S
O527 C521 1.268 . S
O528 Sc512 2.105 . S
O528 C520 1.268 . S
O529 Sc513 2.105 . S
O529 C519 1.268 . S
O530 Sc514 2.105 . S
O530 C521 1.268 . S
O531 Sc512 2.105 . S
O531 C517 1.268 . S
O532 Sc514 2.105 . S
O532 C516 1.268 . S
O533 Sc513 2.105 . S
O533 C518 1.268 . S
Sc534 O537 2.025 . S
Sc534 O544 2.105 . S
Sc534 O547 2.105 . S
Sc534 O550 2.105 . S
Sc534 O553 2.105 . S
Sc535 O537 2.025 . S
Sc535 O545 2.105 . S
Sc535 O549 2.105 . S
Sc535 O551 2.105 . S
Sc535 O555 2.105 . S
Sc536 O537 2.025 . S
Sc536 O546 2.105 . S
Sc536 O548 2.105 . S
Sc536 O552 2.105 . S
Sc536 O554 2.105 . S
O537 Sc534 2.025 . S
O537 Sc535 2.025 . S
O537 Sc536 2.025 . S
C538 O544 1.268 . S
C538 O554 1.268 . S
C539 O545 1.268 . S
C539 O553 1.268 . S
C540 O546 1.268 . S
C540 O555 1.268 . S
C541 O547 1.268 . S
C541 O551 1.268 . S
C542 O548 1.268 . S
C542 O550 1.268 . S
C543 O549 1.268 . S
C543 O552 1.268 . S
O544 Sc534 2.105 . S
O544 C538 1.268 . S
O545 Sc535 2.105 . S
O545 C539 1.268 . S
O546 Sc536 2.105 . S
O546 C540 1.268 . S
O547 Sc534 2.105 . S
O547 C541 1.268 . S
O548 Sc536 2.105 . S
O548 C542 1.268 . S
O549 Sc535 2.105 . S
O549 C543 1.268 . S
O550 Sc534 2.105 . S
O550 C542 1.268 . S
O551 Sc535 2.105 . S
O551 C541 1.268 . S
O552 Sc536 2.105 . S
O552 C543 1.268 . S
O553 Sc534 2.105 . S
O553 C539 1.268 . S
O554 Sc536 2.105 . S
O554 C538 1.268 . S
O555 Sc535 2.105 . S
O555 C540 1.268 . S
Sc556 O559 2.025 . S
Sc556 O566 2.105 . S
Sc556 O569 2.105 . S
Sc556 O572 2.105 . S
Sc556 O575 2.105 . S
Sc557 O559 2.025 . S
Sc557 O567 2.105 . S
Sc557 O571 2.105 . S
Sc557 O573 2.105 . S
Sc557 O577 2.105 . S
Sc558 O559 2.025 . S
Sc558 O568 2.105 . S
Sc558 O570 2.105 . S
Sc558 O574 2.105 . S
Sc558 O576 2.105 . S
O559 Sc556 2.025 . S
O559 Sc557 2.025 . S
O559 Sc558 2.025 . S
C560 O566 1.268 . S
C560 O576 1.268 . S
C561 O567 1.268 . S
C561 O575 1.268 . S
C562 O568 1.268 . S
C562 O577 1.268 . S
C563 O569 1.268 . S
C563 O573 1.268 . S
C564 O570 1.268 . S
C564 O572 1.268 . S
C565 O571 1.268 . S
C565 O574 1.268 . S
O566 Sc556 2.105 . S
O566 C560 1.268 . S
O567 Sc557 2.105 . S
O567 C561 1.268 . S
O568 Sc558 2.105 . S
O568 C562 1.268 . S
O569 Sc556 2.105 . S
O569 C563 1.268 . S
O570 Sc558 2.105 . S
O570 C564 1.268 . S
O571 Sc557 2.105 . S
O571 C565 1.268 . S
O572 Sc556 2.105 . S
O572 C564 1.268 . S
O573 Sc557 2.105 . S
O573 C563 1.268 . S
O574 Sc558 2.105 . S
O574 C565 1.268 . S
O575 Sc556 2.105 . S
O575 C561 1.268 . S
O576 Sc558 2.105 . S
O576 C560 1.268 . S
O577 Sc557 2.105 . S
O577 C562 1.268 . S
Sc578 O581 2.025 . S
Sc578 O588 2.105 . S
Sc578 O591 2.105 . S
Sc578 O594 2.105 . S
Sc578 O597 2.105 . S
Sc579 O581 2.025 . S
Sc579 O589 2.105 . S
Sc579 O593 2.105 . S
Sc579 O595 2.105 . S
Sc579 O599 2.105 . S
Sc580 O581 2.025 . S
Sc580 O590 2.105 . S
Sc580 O592 2.105 . S
Sc580 O596 2.105 . S
Sc580 O598 2.105 . S
O581 Sc578 2.025 . S
O581 Sc579 2.025 . S
O581 Sc580 2.025 . S
C582 O588 1.268 . S
C582 O598 1.268 . S
C583 O589 1.268 . S
C583 O597 1.268 . S
C584 O590 1.268 . S
C584 O599 1.268 . S
C585 O591 1.268 . S
C585 O595 1.268 . S
C586 O592 1.268 . S
C586 O594 1.268 . S
C587 O593 1.268 . S
C587 O596 1.268 . S
O588 Sc578 2.105 . S
O588 C582 1.268 . S
O589 Sc579 2.105 . S
O589 C583 1.268 . S
O590 Sc580 2.105 . S
O590 C584 1.268 . S
O591 Sc578 2.105 . S
O591 C585 1.268 . S
O592 Sc580 2.105 . S
O592 C586 1.268 . S
O593 Sc579 2.105 . S
O593 C587 1.268 . S
O594 Sc578 2.105 . S
O594 C586 1.268 . S
O595 Sc579 2.105 . S
O595 C585 1.268 . S
O596 Sc580 2.105 . S
O596 C587 1.268 . S
O597 Sc578 2.105 . S
O597 C583 1.268 . S
O598 Sc580 2.105 . S
O598 C582 1.268 . S
O599 Sc579 2.105 . S
O599 C584 1.268 . S
Sc600 O603 2.025 . S
Sc600 O610 2.105 . S
Sc600 O613 2.105 . S
Sc600 O616 2.105 . S
Sc600 O619 2.105 . S
Sc601 O603 2.025 . S
Sc601 O611 2.105 . S
Sc601 O615 2.105 . S
Sc601 O617 2.105 . S
Sc601 O621 2.105 . S
Sc602 O603 2.025 . S
Sc602 O612 2.105 . S
Sc602 O614 2.105 . S
Sc602 O618 2.105 . S
Sc602 O620 2.105 . S
O603 Sc600 2.025 . S
O603 Sc601 2.025 . S
O603 Sc602 2.025 . S
C604 O610 1.268 . S
C604 O620 1.268 . S
C605 O611 1.268 . S
C605 O619 1.268 . S
C606 O612 1.268 . S
C606 O621 1.268 . S
C607 O613 1.268 . S
C607 O617 1.268 . S
C608 O614 1.268 . S
C608 O616 1.268 . S
C609 O615 1.268 . S
C609 O618 1.268 . S
O610 Sc600 2.105 . S
O610 C604 1.268 . S
O611 Sc601 2.105 . S
O611 C605 1.268 . S
O612 Sc602 2.105 . S
O612 C606 1.268 . S
O613 Sc600 2.105 . S
O613 C607 1.268 . S
O614 Sc602 2.105 . S
O614 C608 1.268 . S
O615 Sc601 2.105 . S
O615 C609 1.268 . S
O616 Sc600 2.105 . S
O616 C608 1.268 . S
O617 Sc601 2.105 . S
O617 C607 1.268 . S
O618 Sc602 2.105 . S
O618 C609 1.268 . S
O619 Sc600 2.105 . S
O619 C605 1.268 . S
O620 Sc602 2.105 . S
O620 C604 1.268 . S
O621 Sc601 2.105 . S
O621 C606 1.268 . S
Sc622 O625 2.025 . S
Sc622 O632 2.105 . S
Sc622 O635 2.105 . S
Sc622 O638 2.105 . S
Sc622 O641 2.105 . S
Sc623 O625 2.025 . S
Sc623 O633 2.105 . S
Sc623 O637 2.105 . S
Sc623 O639 2.105 . S
Sc623 O643 2.105 . S
Sc624 O625 2.025 . S
Sc624 O634 2.105 . S
Sc624 O636 2.105 . S
Sc624 O640 2.105 . S
Sc624 O642 2.105 . S
O625 Sc622 2.025 . S
O625 Sc623 2.025 . S
O625 Sc624 2.025 . S
C626 O632 1.268 . S
C626 O642 1.268 . S
C627 O633 1.268 . S
C627 O641 1.268 . S
C628 O634 1.268 . S
C628 O643 1.268 . S
C629 O635 1.268 . S
C629 O639 1.268 . S
C630 O636 1.268 . S
C630 O638 1.268 . S
C631 O637 1.268 . S
C631 O640 1.268 . S
O632 Sc622 2.105 . S
O632 C626 1.268 . S
O633 Sc623 2.105 . S
O633 C627 1.268 . S
O634 Sc624 2.105 . S
O634 C628 1.268 . S
O635 Sc622 2.105 . S
O635 C629 1.268 . S
O636 Sc624 2.105 . S
O636 C630 1.268 . S
O637 Sc623 2.105 . S
O637 C631 1.268 . S
O638 Sc622 2.105 . S
O638 C630 1.268 . S
O639 Sc623 2.105 . S
O639 C629 1.268 . S
O640 Sc624 2.105 . S
O640 C631 1.268 . S
O641 Sc622 2.105 . S
O641 C627 1.268 . S
O642 Sc624 2.105 . S
O642 C626 1.268 . S
O643 Sc623 2.105 . S
O643 C628 1.268 . S
Sc644 O647 2.025 . S
Sc644 O654 2.105 . S
Sc644 O657 2.105 . S
Sc644 O660 2.105 . S
Sc644 O663 2.105 . S
Sc645 O647 2.025 . S
Sc645 O655 2.105 . S
Sc645 O659 2.105 . S
Sc645 O661 2.105 . S
Sc645 O665 2.105 . S
Sc646 O647 2.025 . S
Sc646 O656 2.105 . S
Sc646 O658 2.105 . S
Sc646 O662 2.105 . S
Sc646 O664 2.105 . S
O647 Sc644 2.025 . S
O647 Sc645 2.025 . S
O647 Sc646 2.025 . S
C648 O654 1.268 . S
C648 O664 1.268 . S
C649 O655 1.268 . S
C649 O663 1.268 . S
C650 O656 1.268 . S
C650 O665 1.268 . S
C651 O657 1.268 . S
C651 O661 1.268 . S
C652 O658 1.268 . S
C652 O660 1.268 . S
C653 O659 1.268 . S
C653 O662 1.268 . S
O654 Sc644 2.105 . S
O654 C648 1.268 . S
O655 Sc645 2.105 . S
O655 C649 1.268 . S
O656 Sc646 2.105 . S
O656 C650 1.268 . S
O657 Sc644 2.105 . S
O657 C651 1.268 . S
O658 Sc646 2.105 . S
O658 C652 1.268 . S
O659 Sc645 2.105 . S
O659 C653 1.268 . S
O660 Sc644 2.105 . S
O660 C652 1.268 . S
O661 Sc645 2.105 . S
O661 C651 1.268 . S
O662 Sc646 2.105 . S
O662 C653 1.268 . S
O663 Sc644 2.105 . S
O663 C649 1.268 . S
O664 Sc646 2.105 . S
O664 C648 1.268 . S
O665 Sc645 2.105 . S
O665 C650 1.268 . S
Sc666 O669 2.025 . S
Sc666 O676 2.105 . S
Sc666 O679 2.105 . S
Sc666 O682 2.105 . S
Sc666 O685 2.105 . S
Sc667 O669 2.025 . S
Sc667 O677 2.105 . S
Sc667 O681 2.105 . S
Sc667 O683 2.105 . S
Sc667 O687 2.105 . S
Sc668 O669 2.025 . S
Sc668 O678 2.105 . S
Sc668 O680 2.105 . S
Sc668 O684 2.105 . S
Sc668 O686 2.105 . S
O669 Sc666 2.025 . S
O669 Sc667 2.025 . S
O669 Sc668 2.025 . S
C670 O676 1.268 . S
C670 O686 1.268 . S
C671 O677 1.268 . S
C671 O685 1.268 . S
C672 O678 1.268 . S
C672 O687 1.268 . S
C673 O679 1.268 . S
C673 O683 1.268 . S
C674 O680 1.268 . S
C674 O682 1.268 . S
C675 O681 1.268 . S
C675 O684 1.268 . S
O676 Sc666 2.105 . S
O676 C670 1.268 . S
O677 Sc667 2.105 . S
O677 C671 1.268 . S
O678 Sc668 2.105 . S
O678 C672 1.268 . S
O679 Sc666 2.105 . S
O679 C673 1.268 . S
O680 Sc668 2.105 . S
O680 C674 1.268 . S
O681 Sc667 2.105 . S
O681 C675 1.268 . S
O682 Sc666 2.105 . S
O682 C674 1.268 . S
O683 Sc667 2.105 . S
O683 C673 1.268 . S
O684 Sc668 2.105 . S
O684 C675 1.268 . S
O685 Sc666 2.105 . S
O685 C671 1.268 . S
O686 Sc668 2.105 . S
O686 C670 1.268 . S
O687 Sc667 2.105 . S
O687 C672 1.268 . S
C688 C689 1.387 . S
C688 H692 0.950 . S
C688 C697 1.390 . S
C689 C688 1.387 . S
C689 C691 1.387 . S
H690 C697 0.950 . S
C691 C689 1.387 . S
C691 C693 1.390 . S
C691 H695 0.950 . S
H692 C688 0.950 . S
C693 C691 1.390 . S
C693 C694 1.387 . S
C693 H696 0.950 . S
C694 C693 1.387 . S
C694 C697 1.387 . S
H695 C691 0.950 . S
H696 C693 0.950 . S
C697 C688 1.390 . S
C697 H690 0.950 . S
C697 C694 1.387 . S
C698 C699 1.387 . S
C698 H702 0.950 . S
C698 C707 1.390 . S
C699 C698 1.387 . S
C699 C701 1.387 . S
H700 C707 0.950 . S
C701 C699 1.387 . S
C701 C703 1.390 . S
C701 H705 0.950 . S
H702 C698 0.950 . S
C703 C701 1.390 . S
C703 C704 1.387 . S
C703 H706 0.950 . S
C704 C703 1.387 . S
C704 C707 1.387 . S
H705 C701 0.950 . S
H706 C703 0.950 . S
C707 C698 1.390 . S
C707 H700 0.950 . S
C707 C704 1.387 . S
C708 C709 1.387 . S
C708 H712 0.950 . S
C708 C717 1.390 . S
C709 C708 1.387 . S
C709 C711 1.387 . S
H710 C717 0.950 . S
C711 C709 1.387 . S
C711 C713 1.390 . S
C711 H715 0.950 . S
H712 C708 0.950 . S
C713 C711 1.390 . S
C713 C714 1.387 . S
C713 H716 0.950 . S
C714 C713 1.387 . S
C714 C717 1.387 . S
H715 C711 0.950 . S
H716 C713 0.950 . S
C717 C708 1.390 . S
C717 H710 0.950 . S
C717 C714 1.387 . S
C718 C719 1.387 . S
C718 H722 0.950 . S
C718 C727 1.390 1_554 S
C719 C718 1.387 . S
C719 C721 1.387 . S
H720 C727 0.950 . S
C721 C719 1.387 . S
C721 C723 1.390 . S
C721 H725 0.950 . S
H722 C718 0.950 . S
C723 C721 1.390 . S
C723 C724 1.387 1_554 S
C723 H726 0.950 . S
C724 C723 1.387 1_556 S
C724 C727 1.387 . S
H725 C721 0.950 . S
H726 C723 0.950 . S
C727 C718 1.390 1_556 S
C727 H720 0.950 . S
C727 C724 1.387 . S
C728 C729 1.387 . S
C728 H732 0.950 . S
C728 C737 1.390 . S
C729 C728 1.387 . S
C729 C731 1.387 . S
H730 C737 0.950 . S
C731 C729 1.387 . S
C731 C733 1.390 . S
C731 H735 0.950 . S
H732 C728 0.950 . S
C733 C731 1.390 . S
C733 C734 1.387 . S
C733 H736 0.950 . S
C734 C733 1.387 . S
C734 C737 1.387 . S
H735 C731 0.950 . S
H736 C733 0.950 . S
C737 C728 1.390 . S
C737 H730 0.950 . S
C737 C734 1.387 . S
C738 C739 1.387 . S
C738 H742 0.950 . S
C738 C747 1.390 . S
C739 C738 1.387 . S
C739 C741 1.387 . S
H740 C747 0.950 . S
C741 C739 1.387 . S
C741 C743 1.390 . S
C741 H745 0.950 . S
H742 C738 0.950 . S
C743 C741 1.390 . S
C743 C744 1.387 . S
C743 H746 0.950 . S
C744 C743 1.387 . S
C744 C747 1.387 . S
H745 C741 0.950 . S
H746 C743 0.950 . S
C747 C738 1.390 . S
C747 H740 0.950 . S
C747 C744 1.387 . S
C748 C749 1.387 . S
C748 H752 0.950 . S
C748 C757 1.390 . S
C749 C748 1.387 . S
C749 C751 1.387 . S
H750 C757 0.950 . S
C751 C749 1.387 . S
C751 C753 1.390 . S
C751 H755 0.950 . S
H752 C748 0.950 . S
C753 C751 1.390 . S
C753 C754 1.387 . S
C753 H756 0.950 . S
C754 C753 1.387 . S
C754 C757 1.387 . S
H755 C751 0.950 . S
H756 C753 0.950 . S
C757 C748 1.390 . S
C757 H750 0.950 . S
C757 C754 1.387 . S
C758 C759 1.387 . S
C758 H762 0.950 . S
C758 C767 1.390 . S
C759 C758 1.387 . S
C759 C761 1.387 . S
H760 C767 0.950 . S
C761 C759 1.387 . S
C761 C763 1.390 1_556 S
C761 H765 0.950 . S
H762 C758 0.950 . S
C763 C761 1.390 1_554 S
C763 C764 1.387 . S
C763 H766 0.950 . S
C764 C763 1.387 . S
C764 C767 1.387 1_554 S
H765 C761 0.950 . S
H766 C763 0.950 . S
C767 C758 1.390 . S
C767 H760 0.950 . S
C767 C764 1.387 1_556 S
C768 C769 1.387 . S
C768 H772 0.950 . S
C768 C777 1.390 . S
C769 C768 1.387 . S
C769 C771 1.387 . S
H770 C777 0.950 . S
C771 C769 1.387 . S
C771 C773 1.390 . S
C771 H775 0.950 . S
H772 C768 0.950 . S
C773 C771 1.390 . S
C773 C774 1.387 . S
C773 H776 0.950 . S
C774 C773 1.387 . S
C774 C777 1.387 . S
H775 C771 0.950 . S
H776 C773 0.950 . S
C777 C768 1.390 . S
C777 H770 0.950 . S
C777 C774 1.387 . S
C778 C779 1.387 . S
C778 H782 0.950 . S
C778 C787 1.390 . S
C779 C778 1.387 . S
C779 C781 1.387 . S
H780 C787 0.950 . S
C781 C779 1.387 . S
C781 C783 1.390 . S
C781 H785 0.950 . S
H782 C778 0.950 . S
C783 C781 1.390 . S
C783 C784 1.387 1_545 S
C783 H786 0.950 1_545 S
C784 C783 1.387 1_565 S
C784 C787 1.387 1_565 S
H785 C781 0.950 . S
H786 C783 0.950 1_565 S
C787 C778 1.390 . S
C787 H780 0.950 . S
C787 C784 1.387 1_545 S
C788 C789 1.387 . S
C788 H792 0.950 . S
C788 C797 1.390 . S
C789 C788 1.387 . S
C789 C791 1.387 . S
H790 C797 0.950 . S
C791 C789 1.387 . S
C791 C793 1.390 . S
C791 H795 0.950 . S
H792 C788 0.950 . S
C793 C791 1.390 . S
C793 C794 1.387 . S
C793 H796 0.950 . S
C794 C793 1.387 . S
C794 C797 1.387 . S
H795 C791 0.950 . S
H796 C793 0.950 . S
C797 C788 1.390 . S
C797 H790 0.950 . S
C797 C794 1.387 . S
C798 C799 1.387 . S
C798 H802 0.950 . S
C798 C807 1.390 . S
C799 C798 1.387 . S
C799 C801 1.387 . S
H800 C807 0.950 . S
C801 C799 1.387 . S
C801 C803 1.390 1_565 S
C801 H805 0.950 . S
H802 C798 0.950 . S
C803 C801 1.390 1_545 S
C803 C804 1.387 . S
C803 H806 0.950 . S
C804 C803 1.387 . S
C804 C807 1.387 1_545 S
H805 C801 0.950 . S
H806 C803 0.950 . S
C807 C798 1.390 . S
C807 H800 0.950 . S
C807 C804 1.387 1_565 S
C808 C809 1.387 . S
C808 H812 0.950 . S
C808 C817 1.390 . S
C809 C808 1.387 . S
C809 C811 1.387 . S
H810 C817 0.950 . S
C811 C809 1.387 . S
C811 C813 1.390 . S
C811 H815 0.950 . S
H812 C808 0.950 . S
C813 C811 1.390 . S
C813 C814 1.387 . S
C813 H816 0.950 . S
C814 C813 1.387 . S
C814 C817 1.387 . S
H815 C811 0.950 . S
H816 C813 0.950 . S
C817 C808 1.390 . S
C817 H810 0.950 . S
C817 C814 1.387 . S
C818 C819 1.387 . S
C818 H822 0.950 . S
C818 C827 1.390 1_545 S
C819 C818 1.387 . S
C819 C821 1.387 . S
H820 C827 0.950 . S
C821 C819 1.387 . S
C821 C823 1.390 . S
C821 H825 0.950 . S
H822 C818 0.950 . S
C823 C821 1.390 . S
C823 C824 1.387 1_545 S
C823 H826 0.950 . S
C824 C823 1.387 1_565 S
C824 C827 1.387 . S
H825 C821 0.950 . S
H826 C823 0.950 . S
C827 C818 1.390 1_565 S
C827 H820 0.950 . S
C827 C824 1.387 . S
C828 C829 1.387 . S
C828 H832 0.950 . S
C828 C837 1.390 . S
C829 C828 1.387 . S
C829 C831 1.387 . S
H830 C837 0.950 . S
C831 C829 1.387 . S
C831 C833 1.390 . S
C831 H835 0.950 . S
H832 C828 0.950 . S
C833 C831 1.390 . S
C833 C834 1.387 . S
C833 H836 0.950 . S
C834 C833 1.387 . S
C834 C837 1.387 . S
H835 C831 0.950 . S
H836 C833 0.950 . S
C837 C828 1.390 . S
C837 H830 0.950 . S
C837 C834 1.387 . S
C838 C839 1.387 . S
C838 H842 0.950 . S
C838 C847 1.390 1_565 S
C839 C838 1.387 . S
C839 C841 1.387 . S
H840 C847 0.950 . S
C841 C839 1.387 . S
C841 C843 1.390 . S
C841 H845 0.950 . S
H842 C838 0.950 . S
C843 C841 1.390 . S
C843 C844 1.387 1_565 S
C843 H846 0.950 . S
C844 C843 1.387 1_545 S
C844 C847 1.387 . S
H845 C841 0.950 . S
H846 C843 0.950 . S
C847 C838 1.390 1_545 S
C847 H840 0.950 . S
C847 C844 1.387 . S
C848 C849 1.387 . S
C848 H852 0.950 . S
C848 C857 1.390 . S
C849 C848 1.387 . S
C849 C851 1.387 . S
H850 C857 0.950 . S
C851 C849 1.387 . S
C851 C853 1.390 . S
C851 H855 0.950 . S
H852 C848 0.950 . S
C853 C851 1.390 . S
C853 C854 1.387 . S
C853 H856 0.950 . S
C854 C853 1.387 . S
C854 C857 1.387 . S
H855 C851 0.950 . S
H856 C853 0.950 . S
C857 C848 1.390 . S
C857 H850 0.950 . S
C857 C854 1.387 . S
C858 C859 1.387 . S
C858 H862 0.950 . S
C858 C867 1.390 . S
C859 C858 1.387 . S
C859 C861 1.387 . S
H860 C867 0.950 . S
C861 C859 1.387 . S
C861 C863 1.390 . S
C861 H865 0.950 . S
H862 C858 0.950 . S
C863 C861 1.390 . S
C863 C864 1.387 . S
C863 H866 0.950 . S
C864 C863 1.387 . S
C864 C867 1.387 . S
H865 C861 0.950 . S
H866 C863 0.950 . S
C867 C858 1.390 . S
C867 H860 0.950 . S
C867 C864 1.387 . S
C868 C869 1.387 . S
C868 H872 0.950 . S
C868 C877 1.390 . S
C869 C868 1.387 . S
C869 C871 1.387 . S
H870 C877 0.951 . S
C871 C869 1.387 . S
C871 C873 1.390 . S
C871 H875 0.950 . S
H872 C868 0.950 . S
C873 C871 1.390 . S
C873 C874 1.387 1_455 S
C873 H876 0.950 . S
C874 C873 1.387 1_655 S
C874 C877 1.387 1_655 S
H875 C871 0.950 . S
H876 C873 0.950 . S
C877 C868 1.390 . S
C877 H870 0.951 . S
C877 C874 1.387 1_455 S
C878 C879 1.387 . S
C878 H882 0.950 . S
C878 C887 1.390 . S
C879 C878 1.387 . S
C879 C881 1.387 . S
H880 C887 0.950 . S
C881 C879 1.387 . S
C881 C883 1.390 . S
C881 H885 0.950 . S
H882 C878 0.950 . S
C883 C881 1.390 . S
C883 C884 1.387 . S
C883 H886 0.950 . S
C884 C883 1.387 . S
C884 C887 1.387 . S
H885 C881 0.950 . S
H886 C883 0.950 . S
C887 C878 1.390 . S
C887 H880 0.950 . S
C887 C884 1.387 . S
C888 C889 1.387 . S
C888 H892 0.950 . S
C888 C897 1.390 . S
C889 C888 1.387 . S
C889 C891 1.387 . S
H890 C897 0.950 1_455 S
C891 C889 1.387 . S
C891 C893 1.390 . S
C891 H895 0.950 . S
H892 C888 0.950 . S
C893 C891 1.390 . S
C893 C894 1.387 1_655 S
C893 H896 0.950 1_655 S
C894 C893 1.387 1_455 S
C894 C897 1.387 1_455 S
H895 C891 0.950 . S
H896 C893 0.950 1_455 S
C897 C888 1.390 . S
C897 H890 0.950 1_655 S
C897 C894 1.387 1_655 S
C898 C899 1.387 . S
C898 H902 0.950 . S
C898 C907 1.390 . S
C899 C898 1.387 . S
C899 C901 1.387 . S
H900 C907 0.950 . S
C901 C899 1.387 . S
C901 C903 1.390 . S
C901 H905 0.950 . S
H902 C898 0.950 . S
C903 C901 1.390 . S
C903 C904 1.387 . S
C903 H906 0.950 . S
C904 C903 1.387 . S
C904 C907 1.387 . S
H905 C901 0.950 . S
H906 C903 0.950 . S
C907 C898 1.390 . S
C907 H900 0.950 . S
C907 C904 1.387 . S
C908 C909 1.387 . S
C908 H912 0.950 . S
C908 C917 1.384 1_455 S
C909 C908 1.387 . S
C909 C911 1.387 . S
H910 C917 0.954 . S
C911 C909 1.387 . S
C911 C913 1.390 . S
C911 H915 0.950 . S
H912 C908 0.950 . S
C913 C911 1.390 . S
C913 C914 1.387 1_455 S
C913 H916 0.955 . S
C914 C913 1.387 1_655 S
C914 C917 1.390 . S
H915 C911 0.950 . S
H916 C913 0.955 . S
C917 C908 1.384 1_655 S
C917 H910 0.954 . S
C917 C914 1.390 . S
C918 C919 1.387 . S
C918 H922 0.950 . S
C918 C927 1.390 . S
C919 C918 1.387 . S
C919 C921 1.387 . S
H920 C927 0.950 . S
C921 C919 1.387 . S
C921 C923 1.390 . S
C921 H925 0.950 . S
H922 C918 0.950 . S
C923 C921 1.390 . S
C923 C924 1.387 . S
C923 H926 0.950 . S
C924 C923 1.387 . S
C924 C927 1.387 . S
H925 C921 0.950 . S
H926 C923 0.950 . S
C927 C918 1.390 . S
C927 H920 0.950 . S
C927 C924 1.387 . S
C928 C929 1.387 . S
C928 H932 0.950 . S
C928 C937 1.390 . S
C929 C928 1.387 . S
C929 C931 1.387 . S
H930 C937 0.950 . S
C931 C929 1.387 . S
C931 C933 1.390 . S
C931 H935 0.950 . S
H932 C928 0.950 . S
C933 C931 1.390 . S
C933 C934 1.387 . S
C933 H936 0.950 . S
C934 C933 1.387 . S
C934 C937 1.387 . S
H935 C931 0.950 . S
H936 C933 0.950 . S
C937 C928 1.390 . S
C937 H930 0.950 . S
C937 C934 1.387 . S
C938 C939 1.387 . S
C938 H942 0.950 . S
C938 C947 1.390 . S
C939 C938 1.387 . S
C939 C941 1.387 . S
H940 C947 0.950 . S
C941 C939 1.387 . S
C941 C943 1.390 . S
C941 H945 0.950 . S
H942 C938 0.950 . S
C943 C941 1.390 . S
C943 C944 1.387 . S
C943 H946 0.950 . S
C944 C943 1.387 . S
C944 C947 1.387 . S
H945 C941 0.950 . S
H946 C943 0.950 . S
C947 C938 1.390 . S
C947 H940 0.950 . S
C947 C944 1.387 . S
C948 C949 1.387 . S
C948 H952 0.950 . S
C948 C957 1.390 . S
C949 C948 1.387 . S
C949 C951 1.387 . S
H950 C957 0.950 . S
C951 C949 1.387 . S
C951 C953 1.390 . S
C951 H955 0.950 . S
H952 C948 0.950 . S
C953 C951 1.390 . S
C953 C954 1.387 . S
C953 H956 0.950 . S
C954 C953 1.387 . S
C954 C957 1.387 . S
H955 C951 0.950 . S
H956 C953 0.950 . S
C957 C948 1.390 . S
C957 H950 0.950 . S
C957 C954 1.387 . S
C958 C959 1.387 . S
C958 H962 0.950 . S
C958 C967 1.390 1_556 S
C959 C958 1.387 . S
C959 C961 1.387 . S
H960 C967 0.950 . S
C961 C959 1.387 . S
C961 C963 1.390 . S
C961 H965 0.950 . S
H962 C958 0.950 . S
C963 C961 1.390 . S
C963 C964 1.387 1_556 S
C963 H966 0.950 . S
C964 C963 1.387 1_554 S
C964 C967 1.387 . S
H965 C961 0.950 . S
H966 C963 0.950 . S
C967 C958 1.390 1_554 S
C967 H960 0.950 . S
C967 C964 1.387 . S
C968 C969 1.387 . S
C968 H972 0.950 . S
C968 C977 1.390 . S
C969 C968 1.387 . S
C969 C971 1.387 . S
H970 C977 0.950 . S
C971 C969 1.387 . S
C971 C973 1.390 . S
C971 H975 0.950 . S
H972 C968 0.950 . S
C973 C971 1.390 . S
C973 C974 1.387 . S
C973 H976 0.950 . S
C974 C973 1.387 . S
C974 C977 1.387 . S
H975 C971 0.950 . S
H976 C973 0.950 . S
C977 C968 1.390 . S
C977 H970 0.950 . S
C977 C974 1.387 . S
C978 C979 1.387 . S
C978 H982 0.950 . S
C978 C987 1.390 . S
C979 C978 1.387 . S
C979 C981 1.387 . S
H980 C987 0.950 . S
C981 C979 1.387 . S
C981 C983 1.390 . S
C981 H985 0.950 . S
H982 C978 0.950 . S
C983 C981 1.390 . S
C983 C984 1.387 . S
C983 H986 0.950 . S
C984 C983 1.387 . S
C984 C987 1.387 . S
H985 C981 0.950 . S
H986 C983 0.950 . S
C987 C978 1.390 . S
C987 H980 0.950 . S
C987 C984 1.387 . S
C988 C989 1.387 . S
C988 H992 0.950 . S
C988 C997 1.390 . S
C989 C988 1.387 . S
C989 C991 1.387 . S
H990 C997 0.950 . S
C991 C989 1.387 . S
C991 C993 1.390 . S
C991 H995 0.950 . S
H992 C988 0.950 . S
C993 C991 1.390 . S
C993 C994 1.387 . S
C993 H996 0.950 . S
C994 C993 1.387 . S
C994 C997 1.387 . S
H995 C991 0.950 . S
H996 C993 0.950 . S
C997 C988 1.390 . S
C997 H990 0.950 . S
C997 C994 1.387 . S
C998 C999 1.387 . S
C998 H1002 0.950 . S
C998 C1007 1.390 1_554 S
C999 C998 1.387 . S
C999 C1001 1.387 . S
H1000 C1007 0.950 . S
C1001 C999 1.387 . S
C1001 C1003 1.390 . S
C1001 H1005 0.950 . S
H1002 C998 0.950 . S
C1003 C1001 1.390 . S
C1003 C1004 1.387 1_554 S
C1003 H1006 0.950 . S
C1004 C1003 1.387 1_556 S
C1004 C1007 1.387 . S
H1005 C1001 0.950 . S
H1006 C1003 0.950 . S
C1007 C998 1.390 1_556 S
C1007 H1000 0.950 . S
C1007 C1004 1.387 . S
C1008 C1009 1.387 . S
C1008 H1012 0.950 . S
C1008 C1017 1.390 . S
C1009 C1008 1.387 . S
C1009 C1011 1.387 . S
H1010 C1017 0.950 . S
C1011 C1009 1.387 . S
C1011 C1013 1.390 . S
C1011 H1015 0.950 . S
H1012 C1008 0.950 . S
C1013 C1011 1.390 . S
C1013 C1014 1.387 . S
C1013 H1016 0.950 . S
C1014 C1013 1.387 . S
C1014 C1017 1.387 . S
H1015 C1011 0.950 . S
H1016 C1013 0.950 . S
C1017 C1008 1.390 . S
C1017 H1010 0.950 . S
C1017 C1014 1.387 . S
C1018 C1019 1.387 . S
C1018 H1022 0.950 . S
C1018 C1027 1.390 1_565 S
C1019 C1018 1.387 . S
C1019 C1021 1.387 . S
H1020 C1027 0.950 . S
C1021 C1019 1.387 . S
C1021 C1023 1.390 . S
C1021 H1025 0.950 . S
H1022 C1018 0.950 . S
C1023 C1021 1.390 . S
C1023 C1024 1.387 1_565 S
C1023 H1026 0.950 . S
C1024 C1023 1.387 1_545 S
C1024 C1027 1.387 . S
H1025 C1021 0.950 . S
H1026 C1023 0.950 . S
C1027 C1018 1.390 1_545 S
C1027 H1020 0.950 . S
C1027 C1024 1.387 . S
C1028 C1029 1.387 . S
C1028 H1032 0.950 . S
C1028 C1037 1.390 . S
C1029 C1028 1.387 . S
C1029 C1031 1.387 . S
H1030 C1037 0.950 . S
C1031 C1029 1.387 . S
C1031 C1033 1.390 . S
C1031 H1035 0.950 . S
H1032 C1028 0.950 . S
C1033 C1031 1.390 . S
C1033 C1034 1.387 . S
C1033 H1036 0.950 . S
C1034 C1033 1.387 . S
C1034 C1037 1.387 . S
H1035 C1031 0.950 . S
H1036 C1033 0.950 . S
C1037 C1028 1.390 . S
C1037 H1030 0.950 . S
C1037 C1034 1.387 . S
C1038 C1039 1.387 . S
C1038 H1042 0.950 . S
C1038 C1047 1.390 . S
C1039 C1038 1.387 . S
C1039 C1041 1.387 . S
H1040 C1047 0.950 . S
C1041 C1039 1.387 . S
C1041 C1043 1.390 . S
C1041 H1045 0.950 . S
H1042 C1038 0.950 . S
C1043 C1041 1.390 . S
C1043 C1044 1.387 1_545 S
C1043 H1046 0.950 1_545 S
C1044 C1043 1.387 1_565 S
C1044 C1047 1.387 1_565 S
H1045 C1041 0.950 . S
H1046 C1043 0.950 1_565 S
C1047 C1038 1.390 . S
C1047 H1040 0.950 . S
C1047 C1044 1.387 1_545 S
C1048 C1049 1.387 . S
C1048 H1052 0.950 . S
C1048 C1057 1.390 . S
C1049 C1048 1.387 . S
C1049 C1051 1.387 . S
H1050 C1057 0.950 . S
C1051 C1049 1.387 . S
C1051 C1053 1.390 . S
C1051 H1055 0.950 . S
H1052 C1048 0.950 . S
C1053 C1051 1.390 . S
C1053 C1054 1.387 . S
C1053 H1056 0.950 . S
C1054 C1053 1.387 . S
C1054 C1057 1.387 . S
H1055 C1051 0.950 . S
H1056 C1053 0.950 . S
C1057 C1048 1.390 . S
C1057 H1050 0.950 . S
C1057 C1054 1.387 . S
C1058 C1059 1.387 . S
C1058 H1062 0.950 . S
C1058 C1067 1.390 . S
C1059 C1058 1.387 . S
C1059 C1061 1.387 . S
H1060 C1067 0.950 . S
C1061 C1059 1.387 . S
C1061 C1063 1.390 1_565 S
C1061 H1065 0.950 . S
H1062 C1058 0.950 . S
C1063 C1061 1.390 1_545 S
C1063 C1064 1.387 . S
C1063 H1066 0.950 . S
C1064 C1063 1.387 . S
C1064 C1067 1.387 1_545 S
H1065 C1061 0.950 . S
H1066 C1063 0.950 . S
C1067 C1058 1.390 . S
C1067 H1060 0.950 . S
C1067 C1064 1.387 1_565 S
C1068 C1069 1.387 . S
C1068 H1072 0.950 . S
C1068 C1077 1.390 . S
C1069 C1068 1.387 . S
C1069 C1071 1.387 . S
H1070 C1077 0.950 . S
C1071 C1069 1.387 . S
C1071 C1073 1.390 . S
C1071 H1075 0.950 . S
H1072 C1068 0.950 . S
C1073 C1071 1.390 . S
C1073 C1074 1.387 . S
C1073 H1076 0.950 . S
C1074 C1073 1.387 . S
C1074 C1077 1.387 . S
H1075 C1071 0.950 . S
H1076 C1073 0.950 . S
C1077 C1068 1.390 . S
C1077 H1070 0.950 . S
C1077 C1074 1.387 . S
C1078 C1079 1.387 . S
C1078 H1082 0.950 1_556 S
C1078 C1087 1.390 1_545 S
C1079 C1078 1.387 . S
C1079 C1081 1.387 . S
H1080 C1087 0.950 . S
C1081 C1079 1.387 . S
C1081 C1083 1.390 . S
C1081 H1085 0.950 . S
H1082 C1078 0.950 1_554 S
C1083 C1081 1.390 . S
C1083 C1084 1.387 1_545 S
C1083 H1086 0.950 . S
C1084 C1083 1.387 1_565 S
C1084 C1087 1.387 . S
H1085 C1081 0.950 . S
H1086 C1083 0.950 . S
C1087 C1078 1.390 1_565 S
C1087 H1080 0.950 . S
C1087 C1084 1.387 . S
C1088 C1089 1.387 . S
C1088 H1092 0.950 . S
C1088 C1097 1.390 . S
C1089 C1088 1.387 . S
C1089 C1091 1.387 . S
H1090 C1097 0.950 . S
C1091 C1089 1.387 . S
C1091 C1093 1.390 . S
C1091 H1095 0.950 . S
H1092 C1088 0.950 . S
C1093 C1091 1.390 . S
C1093 C1094 1.387 . S
C1093 H1096 0.950 . S
C1094 C1093 1.387 . S
C1094 C1097 1.387 . S
H1095 C1091 0.950 . S
H1096 C1093 0.950 . S
C1097 C1088 1.390 . S
C1097 H1090 0.950 . S
C1097 C1094 1.387 . S
C1098 C1099 1.387 . S
C1098 H1102 0.950 . S
C1098 C1107 1.390 . S
C1099 C1098 1.387 . S
C1099 C1101 1.387 . S
H1100 C1107 0.950 . S
C1101 C1099 1.387 . S
C1101 C1103 1.390 . S
C1101 H1105 0.950 . S
H1102 C1098 0.950 . S
C1103 C1101 1.390 . S
C1103 C1104 1.387 . S
C1103 H1106 0.950 . S
C1104 C1103 1.387 . S
C1104 C1107 1.387 . S
H1105 C1101 0.950 . S
H1106 C1103 0.950 . S
C1107 C1098 1.390 . S
C1107 H1100 0.950 . S
C1107 C1104 1.387 . S
C1108 C1109 1.387 . S
C1108 H1112 0.950 . S
C1108 C1117 1.390 1_655 S
C1109 C1108 1.387 . S
C1109 C1111 1.387 . S
H1110 C1117 0.950 . S
C1111 C1109 1.387 . S
C1111 C1113 1.390 . S
C1111 H1115 0.950 . S
H1112 C1108 0.950 . S
C1113 C1111 1.390 . S
C1113 C1114 1.387 1_655 S
C1113 H1116 0.950 1_655 S
C1114 C1113 1.387 1_455 S
C1114 C1117 1.387 . S
H1115 C1111 0.950 . S
H1116 C1113 0.950 1_455 S
C1117 C1108 1.390 1_455 S
C1117 H1110 0.950 . S
C1117 C1114 1.387 . S
C1118 C1119 1.387 . S
C1118 H1122 0.950 . S
C1118 C1127 1.390 . S
C1119 C1118 1.387 . S
C1119 C1121 1.387 . S
H1120 C1127 0.950 . S
C1121 C1119 1.387 . S
C1121 C1123 1.390 . S
C1121 H1125 0.950 . S
H1122 C1118 0.950 . S
C1123 C1121 1.390 . S
C1123 C1124 1.387 . S
C1123 H1126 0.950 . S
C1124 C1123 1.387 . S
C1124 C1127 1.387 . S
H1125 C1121 0.950 . S
H1126 C1123 0.950 . S
C1127 C1118 1.390 . S
C1127 H1120 0.950 . S
C1127 C1124 1.387 . S
C1128 C1129 1.387 . S
C1128 H1132 0.950 . S
C1128 C1137 1.390 . S
C1129 C1128 1.387 . S
C1129 C1131 1.387 . S
H1130 C1137 0.950 . S
C1131 C1129 1.387 . S
C1131 C1133 1.376 1_455 S
C1131 H1135 0.950 . S
H1132 C1128 0.950 . S
C1133 C1131 1.376 1_655 S
C1133 C1134 1.390 . S
C1133 H1136 0.962 . S
C1134 C1133 1.390 . S
C1134 C1137 1.387 1_655 S
H1135 C1131 0.950 . S
H1136 C1133 0.962 . S
C1137 C1128 1.390 . S
C1137 H1130 0.950 . S
C1137 C1134 1.387 1_455 S
C1138 C1139 1.387 . S
C1138 H1142 0.950 . S
C1138 C1147 1.390 . S
C1139 C1138 1.387 . S
C1139 C1141 1.387 . S
H1140 C1147 0.950 . S
C1141 C1139 1.387 . S
C1141 C1143 1.390 . S
C1141 H1145 0.950 . S
H1142 C1138 0.950 . S
C1143 C1141 1.390 . S
C1143 C1144 1.387 . S
C1143 H1146 0.950 . S
C1144 C1143 1.387 . S
C1144 C1147 1.387 . S
H1145 C1141 0.950 . S
H1146 C1143 0.950 . S
C1147 C1138 1.390 . S
C1147 H1140 0.950 . S
C1147 C1144 1.387 . S
C1148 C1149 1.387 . S
C1148 H1152 0.950 . S
C1148 C1157 1.390 . S
C1149 C1148 1.387 . S
C1149 C1151 1.387 . S
H1150 C1157 0.950 1_455 S
C1151 C1149 1.387 . S
C1151 C1153 1.390 1_655 S
C1151 H1155 0.950 . S
H1152 C1148 0.950 . S
C1153 C1151 1.390 1_455 S
C1153 C1154 1.387 . S
C1153 H1156 0.950 . S
C1154 C1153 1.387 . S
C1154 C1157 1.387 1_455 S
H1155 C1151 0.950 . S
H1156 C1153 0.950 . S
C1157 C1148 1.390 . S
C1157 H1150 0.950 1_655 S
C1157 C1154 1.387 1_655 S
C1158 C1159 1.387 . S
C1158 H1162 0.950 . S
C1158 C1167 1.390 . S
C1159 C1158 1.387 . S
C1159 C1161 1.387 . S
H1160 C1167 0.950 . S
C1161 C1159 1.387 . S
C1161 C1163 1.390 . S
C1161 H1165 0.950 . S
H1162 C1158 0.950 . S
C1163 C1161 1.390 . S
C1163 C1164 1.387 . S
C1163 H1166 0.950 . S
C1164 C1163 1.387 . S
C1164 C1167 1.387 . S
H1165 C1161 0.950 . S
H1166 C1163 0.950 . S
C1167 C1158 1.390 . S
C1167 H1160 0.950 . S
C1167 C1164 1.387 . S
C1168 C1169 1.387 . S
C1168 H1172 0.950 . S
C1168 C1177 1.390 . S
C1169 C1168 1.387 . S
C1169 C1171 1.387 . S
H1170 C1177 0.950 . S
C1171 C1169 1.387 . S
C1171 C1173 1.390 . S
C1171 H1175 0.950 . S
H1172 C1168 0.950 . S
C1173 C1171 1.390 . S
C1173 C1174 1.387 . S
C1173 H1176 0.950 . S
C1174 C1173 1.387 . S
C1174 C1177 1.387 . S
H1175 C1171 0.950 . S
H1176 C1173 0.950 . S
C1177 C1168 1.390 . S
C1177 H1170 0.950 . S
C1177 C1174 1.387 . S
C1178 C1179 1.387 . S
C1178 H1182 0.950 . S
C1178 C1187 1.390 . S
C1179 C1178 1.387 . S
C1179 C1181 1.387 . S
H1180 C1187 0.950 . S
C1181 C1179 1.387 . S
C1181 C1183 1.390 1_554 S
C1181 H1185 0.950 . S
H1182 C1178 0.950 . S
C1183 C1181 1.390 1_556 S
C1183 C1184 1.387 . S
C1183 H1186 0.950 . S
C1184 C1183 1.387 . S
C1184 C1187 1.387 1_556 S
H1185 C1181 0.950 . S
H1186 C1183 0.950 . S
C1187 C1178 1.390 . S
C1187 H1180 0.950 . S
C1187 C1184 1.387 1_554 S
C1188 C1189 1.387 . S
C1188 H1192 0.950 . S
C1188 C1197 1.390 . S
C1189 C1188 1.387 . S
C1189 C1191 1.387 . S
H1190 C1197 0.950 . S
C1191 C1189 1.387 . S
C1191 C1193 1.390 . S
C1191 H1195 0.950 . S
H1192 C1188 0.950 . S
C1193 C1191 1.390 . S
C1193 C1194 1.387 . S
C1193 H1196 0.950 . S
C1194 C1193 1.387 . S
C1194 C1197 1.387 . S
H1195 C1191 0.950 . S
H1196 C1193 0.950 . S
C1197 C1188 1.390 . S
C1197 H1190 0.950 . S
C1197 C1194 1.387 . S
C1198 C1199 1.387 . S
C1198 H1202 0.950 . S
C1198 C1207 1.390 . S
C1199 C1198 1.387 . S
C1199 C1201 1.387 . S
H1200 C1207 0.950 . S
C1201 C1199 1.387 . S
C1201 C1203 1.390 . S
C1201 H1205 0.950 . S
H1202 C1198 0.950 . S
C1203 C1201 1.390 . S
C1203 C1204 1.387 . S
C1203 H1206 0.950 . S
C1204 C1203 1.387 . S
C1204 C1207 1.387 . S
H1205 C1201 0.950 . S
H1206 C1203 0.950 . S
C1207 C1198 1.390 . S
C1207 H1200 0.950 . S
C1207 C1204 1.387 . S
C1208 C1209 1.387 . S
C1208 H1212 0.950 . S
C1208 C1217 1.390 . S
C1209 C1208 1.387 . S
C1209 C1211 1.387 . S
H1210 C1217 0.950 . S
C1211 C1209 1.387 . S
C1211 C1213 1.390 . S
C1211 H1215 0.950 . S
H1212 C1208 0.950 . S
C1213 C1211 1.390 . S
C1213 C1214 1.387 . S
C1213 H1216 0.950 . S
C1214 C1213 1.387 . S
C1214 C1217 1.387 . S
H1215 C1211 0.950 . S
H1216 C1213 0.950 . S
C1217 C1208 1.390 . S
C1217 H1210 0.950 . S
C1217 C1214 1.387 . S
C1218 C1219 1.387 . S
C1218 H1222 0.950 . S
C1218 C1227 1.390 1_556 S
C1219 C1218 1.387 . S
C1219 C1221 1.387 . S
H1220 C1227 0.950 . S
C1221 C1219 1.387 . S
C1221 C1223 1.390 . S
C1221 H1225 0.950 . S
H1222 C1218 0.950 . S
C1223 C1221 1.390 . S
C1223 C1224 1.387 1_556 S
C1223 H1226 0.950 . S
C1224 C1223 1.387 1_554 S
C1224 C1227 1.387 . S
H1225 C1221 0.950 . S
H1226 C1223 0.950 . S
C1227 C1218 1.390 1_554 S
C1227 H1220 0.950 . S
C1227 C1224 1.387 . S
C1228 C1229 1.387 . S
C1228 H1232 0.950 . S
C1228 C1237 1.390 . S
C1229 C1228 1.387 . S
C1229 C1231 1.387 . S
H1230 C1237 0.950 . S
C1231 C1229 1.387 . S
C1231 C1233 1.390 . S
C1231 H1235 0.950 . S
H1232 C1228 0.950 . S
C1233 C1231 1.390 . S
C1233 C1234 1.387 . S
C1233 H1236 0.950 . S
C1234 C1233 1.387 . S
C1234 C1237 1.387 . S
H1235 C1231 0.950 . S
H1236 C1233 0.950 . S
C1237 C1228 1.390 . S
C1237 H1230 0.950 . S
C1237 C1234 1.387 . S
C1238 C1239 1.387 . S
C1238 H1242 0.950 . S
C1238 C1247 1.390 . S
C1239 C1238 1.387 . S
C1239 C1241 1.387 . S
H1240 C1247 0.950 . S
C1241 C1239 1.387 . S
C1241 C1243 1.390 . S
C1241 H1245 0.950 . S
H1242 C1238 0.950 . S
C1243 C1241 1.390 . S
C1243 C1244 1.387 . S
C1243 H1246 0.950 . S
C1244 C1243 1.387 . S
C1244 C1247 1.387 . S
H1245 C1241 0.950 . S
H1246 C1243 0.950 . S
C1247 C1238 1.390 . S
C1247 H1240 0.950 . S
C1247 C1244 1.387 . S
C1248 C1249 1.387 . S
C1248 H1252 0.950 . S
C1248 C1257 1.390 . S
C1249 C1248 1.387 . S
C1249 C1251 1.387 . S
H1250 C1257 0.950 . S
C1251 C1249 1.387 . S
C1251 C1253 1.390 . S
C1251 H1255 0.950 . S
H1252 C1248 0.950 . S
C1253 C1251 1.390 . S
C1253 C1254 1.387 . S
C1253 H1256 0.950 . S
C1254 C1253 1.387 . S
C1254 C1257 1.387 . S
H1255 C1251 0.950 . S
H1256 C1253 0.950 . S
C1257 C1248 1.390 . S
C1257 H1250 0.950 . S
C1257 C1254 1.387 . S
C1258 C1259 1.387 . S
C1258 H1262 0.950 . S
C1258 C1267 1.390 . S
C1259 C1258 1.387 . S
C1259 C1261 1.387 . S
H1260 C1267 0.950 . S
C1261 C1259 1.387 . S
C1261 C1263 1.390 . S
C1261 H1265 0.950 . S
H1262 C1258 0.950 . S
C1263 C1261 1.390 . S
C1263 C1264 1.387 . S
C1263 H1266 0.950 . S
C1264 C1263 1.387 . S
C1264 C1267 1.387 . S
H1265 C1261 0.950 . S
H1266 C1263 0.950 . S
C1267 C1258 1.390 . S
C1267 H1260 0.950 . S
C1267 C1264 1.387 . S
C1268 C1269 1.387 . S
C1268 H1272 0.950 . S
C1268 C1277 1.390 . S
C1269 C1268 1.387 . S
C1269 C1271 1.387 . S
H1270 C1277 0.950 . S
C1271 C1269 1.387 . S
C1271 C1273 1.390 . S
C1271 H1275 0.950 . S
H1272 C1268 0.950 . S
C1273 C1271 1.390 . S
C1273 C1274 1.387 . S
C1273 H1276 0.950 . S
C1274 C1273 1.387 . S
C1274 C1277 1.387 . S
H1275 C1271 0.950 . S
H1276 C1273 0.950 . S
C1277 C1268 1.390 . S
C1277 H1270 0.950 . S
C1277 C1274 1.387 . S
C1278 C1279 1.387 . S
C1278 H1282 0.950 . S
C1278 C1287 1.390 . S
C1279 C1278 1.387 . S
C1279 C1281 1.387 . S
H1280 C1287 0.950 . S
C1281 C1279 1.387 . S
C1281 C1283 1.390 . S
C1281 H1285 0.950 . S
H1282 C1278 0.950 . S
C1283 C1281 1.390 . S
C1283 C1284 1.387 . S
C1283 H1286 0.950 . S
C1284 C1283 1.387 . S
C1284 C1287 1.387 . S
H1285 C1281 0.950 . S
H1286 C1283 0.950 . S
C1287 C1278 1.390 . S
C1287 H1280 0.950 . S
C1287 C1284 1.387 . S
C1288 C1289 1.387 . S
C1288 H1292 0.950 . S
C1288 C1297 1.390 . S
C1289 C1288 1.387 . S
C1289 C1291 1.387 . S
H1290 C1297 0.950 . S
C1291 C1289 1.387 . S
C1291 C1293 1.390 . S
C1291 H1295 0.950 . S
H1292 C1288 0.950 . S
C1293 C1291 1.390 . S
C1293 C1294 1.387 . S
C1293 H1296 0.950 . S
C1294 C1293 1.387 . S
C1294 C1297 1.387 . S
H1295 C1291 0.950 . S
H1296 C1293 0.950 . S
C1297 C1288 1.390 . S
C1297 H1290 0.950 . S
C1297 C1294 1.387 . S
C1298 C1299 1.387 . S
C1298 H1302 0.950 . S
C1298 C1307 1.390 . S
C1299 C1298 1.387 . S
C1299 C1301 1.387 . S
H1300 C1307 0.950 . S
C1301 C1299 1.387 . S
C1301 C1303 1.390 . S
C1301 H1305 0.950 . S
H1302 C1298 0.950 . S
C1303 C1301 1.390 . S
C1303 C1304 1.387 . S
C1303 H1306 0.950 . S
C1304 C1303 1.387 . S
C1304 C1307 1.387 . S
H1305 C1301 0.950 . S
H1306 C1303 0.950 . S
C1307 C1298 1.390 . S
C1307 H1300 0.950 . S
C1307 C1304 1.387 . S
C1308 C1309 1.387 . S
C1308 H1312 0.950 . S
C1308 C1317 1.390 . S
C1309 C1308 1.387 . S
C1309 C1311 1.387 . S
H1310 C1317 0.950 . S
C1311 C1309 1.387 . S
C1311 C1313 1.390 . S
C1311 H1315 0.950 . S
H1312 C1308 0.950 . S
C1313 C1311 1.390 . S
C1313 C1314 1.387 . S
C1313 H1316 0.950 . S
C1314 C1313 1.387 . S
C1314 C1317 1.387 . S
H1315 C1311 0.950 . S
H1316 C1313 0.950 . S
C1317 C1308 1.390 . S
C1317 H1310 0.950 . S
C1317 C1314 1.387 . S
C1318 C1319 1.387 . S
C1318 H1322 0.950 . S
C1318 C1327 1.390 . S
C1319 C1318 1.387 . S
C1319 C1321 1.387 . S
H1320 C1327 0.950 . S
C1321 C1319 1.387 . S
C1321 C1323 1.390 . S
C1321 H1325 0.950 . S
H1322 C1318 0.950 . S
C1323 C1321 1.390 . S
C1323 C1324 1.387 . S
C1323 H1326 0.950 . S
C1324 C1323 1.387 . S
C1324 C1327 1.387 . S
H1325 C1321 0.950 . S
H1326 C1323 0.950 . S
C1327 C1318 1.390 . S
C1327 H1320 0.950 . S
C1327 C1324 1.387 . S
C1328 C1329 1.387 . S
C1328 H1332 0.950 . S
C1328 C1337 1.390 . S
C1329 C1328 1.387 . S
C1329 C1331 1.387 . S
H1330 C1337 0.950 . S
C1331 C1329 1.387 . S
C1331 C1333 1.390 . S
C1331 H1335 0.950 . S
H1332 C1328 0.950 . S
C1333 C1331 1.390 . S
C1333 C1334 1.387 . S
C1333 H1336 0.950 . S
C1334 C1333 1.387 . S
C1334 C1337 1.387 . S
H1335 C1331 0.950 . S
H1336 C1333 0.950 . S
C1337 C1328 1.390 . S
C1337 H1330 0.950 . S
C1337 C1334 1.387 . S
C1338 C1339 1.387 . S
C1338 H1342 0.950 . S
C1338 C1347 1.390 . S
C1339 C1338 1.387 . S
C1339 C1341 1.387 . S
H1340 C1347 0.950 . S
C1341 C1339 1.387 . S
C1341 C1343 1.390 . S
C1341 H1345 0.950 . S
H1342 C1338 0.950 . S
C1343 C1341 1.390 . S
C1343 C1344 1.387 . S
C1343 H1346 0.950 . S
C1344 C1343 1.387 . S
C1344 C1347 1.387 . S
H1345 C1341 0.950 . S
H1346 C1343 0.950 . S
C1347 C1338 1.390 . S
C1347 H1340 0.950 . S
C1347 C1344 1.387 . S
C1348 C1349 1.387 . S
C1348 H1352 0.950 . S
C1348 C1357 1.390 . S
C1349 C1348 1.387 . S
C1349 C1351 1.387 . S
H1350 C1357 0.950 . S
C1351 C1349 1.387 . S
C1351 C1353 1.390 . S
C1351 H1355 0.950 . S
H1352 C1348 0.950 . S
C1353 C1351 1.390 . S
C1353 C1354 1.387 . S
C1353 H1356 0.950 . S
C1354 C1353 1.387 . S
C1354 C1357 1.387 . S
H1355 C1351 0.950 . S
H1356 C1353 0.950 . S
C1357 C1348 1.390 . S
C1357 H1350 0.950 . S
C1357 C1354 1.387 . S
C1358 C1359 1.387 . S
C1358 H1362 0.950 . S
C1358 C1367 1.390 . S
C1359 C1358 1.387 . S
C1359 C1361 1.387 . S
H1360 C1367 0.950 . S
C1361 C1359 1.387 . S
C1361 C1363 1.390 . S
C1361 H1365 0.950 . S
H1362 C1358 0.950 . S
C1363 C1361 1.390 . S
C1363 C1364 1.387 . S
C1363 H1366 0.950 . S
C1364 C1363 1.387 . S
C1364 C1367 1.387 . S
H1365 C1361 0.950 . S
H1366 C1363 0.950 . S
C1367 C1358 1.390 . S
C1367 H1360 0.950 . S
C1367 C1364 1.387 . S
C1368 C1369 1.387 . S
C1368 H1372 0.950 . S
C1368 C1377 1.390 . S
C1369 C1368 1.387 . S
C1369 C1371 1.387 . S
H1370 C1377 0.950 . S
C1371 C1369 1.387 . S
C1371 C1373 1.390 . S
C1371 H1375 0.950 . S
H1372 C1368 0.950 . S
C1373 C1371 1.390 . S
C1373 C1374 1.387 . S
C1373 H1376 0.950 . S
C1374 C1373 1.387 . S
C1374 C1377 1.387 . S
H1375 C1371 0.950 . S
H1376 C1373 0.950 . S
C1377 C1368 1.390 . S
C1377 H1370 0.950 . S
C1377 C1374 1.387 . S
C1378 C1379 1.387 . S
C1378 H1382 0.950 . S
C1378 C1387 1.390 . S
C1379 C1378 1.387 . S
C1379 C1381 1.387 . S
H1380 C1387 0.950 . S
C1381 C1379 1.387 . S
C1381 C1383 1.390 . S
C1381 H1385 0.950 . S
H1382 C1378 0.950 . S
C1383 C1381 1.390 . S
C1383 C1384 1.387 . S
C1383 H1386 0.950 . S
C1384 C1383 1.387 . S
C1384 C1387 1.387 . S
H1385 C1381 0.950 . S
H1386 C1383 0.950 . S
C1387 C1378 1.390 . S
C1387 H1380 0.950 . S
C1387 C1384 1.387 . S
C1388 C1389 1.387 . S
C1388 H1392 0.950 . S
C1388 C1397 1.390 . S
C1389 C1388 1.387 . S
C1389 C1391 1.387 . S
H1390 C1397 0.950 . S
C1391 C1389 1.387 . S
C1391 C1393 1.390 . S
C1391 H1395 0.950 . S
H1392 C1388 0.950 . S
C1393 C1391 1.390 . S
C1393 C1394 1.387 . S
C1393 H1396 0.950 . S
C1394 C1393 1.387 . S
C1394 C1397 1.387 . S
H1395 C1391 0.950 . S
H1396 C1393 0.950 . S
C1397 C1388 1.390 . S
C1397 H1390 0.950 . S
C1397 C1394 1.387 . S
C1398 C1399 1.387 . S
C1398 H1402 0.950 . S
C1398 C1407 1.390 . S
C1399 C1398 1.387 . S
C1399 C1401 1.387 . S
H1400 C1407 0.950 . S
C1401 C1399 1.387 . S
C1401 C1403 1.390 1_655 S
C1401 H1405 0.950 . S
H1402 C1398 0.950 . S
C1403 C1401 1.390 1_455 S
C1403 C1404 1.387 . S
C1403 H1406 0.950 . S
C1404 C1403 1.387 . S
C1404 C1407 1.387 1_455 S
H1405 C1401 0.950 . S
H1406 C1403 0.950 . S
C1407 C1398 1.390 . S
C1407 H1400 0.950 . S
C1407 C1404 1.387 1_655 S
C1408 C1409 1.387 . S
C1408 H1412 0.950 . S
C1408 C1417 1.390 . S
C1409 C1408 1.387 . S
C1409 C1411 1.387 . S
H1410 C1417 0.950 . S
C1411 C1409 1.387 . S
C1411 C1413 1.390 . S
C1411 H1415 0.950 . S
H1412 C1408 0.950 . S
C1413 C1411 1.390 . S
C1413 C1414 1.387 . S
C1413 H1416 0.950 . S
C1414 C1413 1.387 . S
C1414 C1417 1.387 . S
H1415 C1411 0.950 . S
H1416 C1413 0.950 . S
C1417 C1408 1.390 . S
C1417 H1410 0.950 . S
C1417 C1414 1.387 . S
C1418 C1419 1.387 . S
C1418 H1422 0.950 . S
C1418 C1427 1.390 . S
C1419 C1418 1.387 . S
C1419 C1421 1.387 . S
H1420 C1427 0.950 1_554 S
C1421 C1419 1.387 . S
C1421 C1423 1.390 . S
C1421 H1425 0.950 . S
H1422 C1418 0.950 . S
C1423 C1421 1.390 . S
C1423 C1424 1.387 1_556 S
C1423 H1426 0.950 1_556 S
C1424 C1423 1.387 1_554 S
C1424 C1427 1.387 1_554 S
H1425 C1421 0.950 . S
H1426 C1423 0.950 1_554 S
C1427 C1418 1.390 . S
C1427 H1420 0.950 1_556 S
C1427 C1424 1.387 1_556 S
C1428 C1429 1.387 . S
C1428 H1432 0.950 . S
C1428 C1437 1.390 . S
C1429 C1428 1.387 . S
C1429 C1431 1.387 . S
H1430 C1437 0.950 . S
C1431 C1429 1.387 . S
C1431 C1433 1.390 . S
C1431 H1435 0.950 . S
H1432 C1428 0.950 . S
C1433 C1431 1.390 . S
C1433 C1434 1.387 . S
C1433 H1436 0.950 . S
C1434 C1433 1.387 . S
C1434 C1437 1.387 . S
H1435 C1431 0.950 . S
H1436 C1433 0.950 . S
C1437 C1428 1.390 . S
C1437 H1430 0.950 . S
C1437 C1434 1.387 . S
C1438 C1439 1.387 . S
C1438 H1442 0.950 . S
C1438 C1447 1.390 . S
C1439 C1438 1.387 . S
C1439 C1441 1.387 . S
H1440 C1447 0.950 . S
C1441 C1439 1.387 . S
C1441 C1443 1.390 . S
C1441 H1445 0.950 . S
H1442 C1438 0.950 . S
C1443 C1441 1.390 . S
C1443 C1444 1.387 . S
C1443 H1446 0.950 . S
C1444 C1443 1.387 . S
C1444 C1447 1.387 . S
H1445 C1441 0.950 . S
H1446 C1443 0.950 . S
C1447 C1438 1.390 . S
C1447 H1440 0.950 . S
C1447 C1444 1.387 . S
C1448 C1449 1.387 . S
C1448 H1452 0.950 . S
C1448 C1457 1.390 . S
C1449 C1448 1.387 . S
C1449 C1451 1.387 . S
H1450 C1457 0.950 . S
C1451 C1449 1.387 . S
C1451 C1453 1.390 . S
C1451 H1455 0.950 . S
H1452 C1448 0.950 . S
C1453 C1451 1.390 . S
C1453 C1454 1.387 . S
C1453 H1456 0.950 . S
C1454 C1453 1.387 . S
C1454 C1457 1.387 . S
H1455 C1451 0.950 . S
H1456 C1453 0.950 . S
C1457 C1448 1.390 . S
C1457 H1450 0.950 . S
C1457 C1454 1.387 . S
C1458 C1459 1.387 . S
C1458 H1462 0.950 . S
C1458 C1467 1.390 1_554 S
C1459 C1458 1.387 . S
C1459 C1461 1.387 . S
H1460 C1467 0.950 . S
C1461 C1459 1.387 . S
C1461 C1463 1.390 . S
C1461 H1465 0.950 . S
H1462 C1458 0.950 . S
C1463 C1461 1.390 . S
C1463 C1464 1.387 1_554 S
C1463 H1466 0.950 . S
C1464 C1463 1.387 1_556 S
C1464 C1467 1.387 . S
H1465 C1461 0.950 . S
H1466 C1463 0.950 . S
C1467 C1458 1.390 1_556 S
C1467 H1460 0.950 . S
C1467 C1464 1.387 . S
C1468 C1469 1.387 . S
C1468 H1472 0.950 . S
C1468 C1477 1.390 . S
C1469 C1468 1.387 . S
C1469 C1471 1.387 . S
H1470 C1477 0.950 . S
C1471 C1469 1.387 . S
C1471 C1473 1.390 . S
C1471 H1475 0.950 . S
H1472 C1468 0.950 . S
C1473 C1471 1.390 . S
C1473 C1474 1.387 . S
C1473 H1476 0.950 . S
C1474 C1473 1.387 . S
C1474 C1477 1.387 . S
H1475 C1471 0.950 . S
H1476 C1473 0.950 . S
C1477 C1468 1.390 . S
C1477 H1470 0.950 . S
C1477 C1474 1.387 . S
C1478 C1479 1.387 . S
C1478 H1482 0.950 . S
C1478 C1487 1.390 . S
C1479 C1478 1.387 . S
C1479 C1481 1.387 . S
H1480 C1487 0.950 . S
C1481 C1479 1.387 . S
C1481 C1483 1.390 . S
C1481 H1485 0.950 . S
H1482 C1478 0.950 . S
C1483 C1481 1.390 . S
C1483 C1484 1.387 . S
C1483 H1486 0.950 . S
C1484 C1483 1.387 . S
C1484 C1487 1.387 . S
H1485 C1481 0.950 . S
H1486 C1483 0.950 . S
C1487 C1478 1.390 . S
C1487 H1480 0.950 . S
C1487 C1484 1.387 . S
C1488 C1489 1.387 . S
C1488 H1492 0.950 . S
C1488 C1497 1.390 . S
C1489 C1488 1.387 . S
C1489 C1491 1.387 . S
H1490 C1497 0.950 . S
C1491 C1489 1.387 . S
C1491 C1493 1.390 . S
C1491 H1495 0.950 . S
H1492 C1488 0.950 . S
C1493 C1491 1.390 . S
C1493 C1494 1.387 . S
C1493 H1496 0.950 . S
C1494 C1493 1.387 . S
C1494 C1497 1.387 . S
H1495 C1491 0.950 . S
H1496 C1493 0.950 . S
C1497 C1488 1.390 . S
C1497 H1490 0.950 . S
C1497 C1494 1.387 . S
C1498 C1499 1.387 . S
C1498 H1502 0.950 . S
C1498 C1507 1.390 . S
C1499 C1498 1.387 . S
C1499 C1501 1.387 . S
H1500 C1507 0.950 . S
C1501 C1499 1.387 . S
C1501 C1503 1.390 . S
C1501 H1505 0.946 1_554 S
H1502 C1498 0.950 . S
C1503 C1501 1.390 . S
C1503 C1504 1.387 . S
C1503 H1506 0.950 . S
C1504 C1503 1.387 . S
C1504 C1507 1.387 . S
H1505 C1501 0.946 1_556 S
H1506 C1503 0.950 . S
C1507 C1498 1.390 . S
C1507 H1500 0.950 . S
C1507 C1504 1.387 . S
C1508 C1509 1.387 . S
C1508 H1512 0.950 . S
C1508 C1517 1.390 . S
C1509 C1508 1.387 . S
C1509 C1511 1.387 . S
H1510 C1517 0.950 . S
C1511 C1509 1.387 . S
C1511 C1513 1.390 . S
C1511 H1515 0.950 . S
H1512 C1508 0.950 . S
C1513 C1511 1.390 . S
C1513 C1514 1.387 . S
C1513 H1516 0.950 . S
C1514 C1513 1.387 . S
C1514 C1517 1.387 . S
H1515 C1511 0.950 . S
H1516 C1513 0.950 . S
C1517 C1508 1.390 . S
C1517 H1510 0.950 . S
C1517 C1514 1.387 . S
C1518 C1519 1.387 . S
C1518 H1522 0.950 . S
C1518 C1527 1.390 . S
C1519 C1518 1.387 . S
C1519 C1521 1.387 . S
H1520 C1527 0.950 . S
C1521 C1519 1.387 . S
C1521 C1523 1.390 . S
C1521 H1525 0.950 . S
H1522 C1518 0.950 . S
C1523 C1521 1.390 . S
C1523 C1524 1.387 . S
C1523 H1526 0.950 . S
C1524 C1523 1.387 . S
C1524 C1527 1.387 . S
H1525 C1521 0.950 . S
H1526 C1523 0.950 . S
C1527 C1518 1.390 . S
C1527 H1520 0.950 . S
C1527 C1524 1.387 . S
C1528 C1529 1.387 . S
C1528 H1532 0.950 . S
C1528 C1537 1.390 . S
C1529 C1528 1.387 . S
C1529 C1531 1.387 . S
H1530 C1537 0.950 . S
C1531 C1529 1.387 . S
C1531 C1533 1.390 . S
C1531 H1535 0.950 . S
H1532 C1528 0.950 . S
C1533 C1531 1.390 . S
C1533 C1534 1.387 . S
C1533 H1536 0.950 . S
C1534 C1533 1.387 . S
C1534 C1537 1.387 . S
H1535 C1531 0.950 . S
H1536 C1533 0.950 . S
C1537 C1528 1.390 . S
C1537 H1530 0.950 . S
C1537 C1534 1.387 . S
C1538 C1539 1.387 . S
C1538 H1542 0.950 . S
C1538 C1547 1.390 . S
C1539 C1538 1.387 . S
C1539 C1541 1.387 . S
H1540 C1547 0.950 . S
C1541 C1539 1.387 . S
C1541 C1543 1.390 . S
C1541 H1545 0.937 1_556 S
H1542 C1538 0.950 . S
C1543 C1541 1.390 . S
C1543 C1544 1.387 . S
C1543 H1546 0.950 . S
C1544 C1543 1.387 . S
C1544 C1547 1.387 . S
H1545 C1541 0.937 1_554 S
H1546 C1543 0.950 . S
C1547 C1538 1.390 . S
C1547 H1540 0.950 . S
C1547 C1544 1.387 . S
C1548 C1549 1.387 . S
C1548 H1552 0.950 . S
C1548 C1557 1.390 . S
C1549 C1548 1.387 . S
C1549 C1551 1.387 . S
H1550 C1557 0.950 . S
C1551 C1549 1.387 . S
C1551 C1553 1.390 . S
C1551 H1555 0.950 . S
H1552 C1548 0.950 . S
C1553 C1551 1.390 . S
C1553 C1554 1.387 . S
C1553 H1556 0.950 . S
C1554 C1553 1.387 . S
C1554 C1557 1.387 . S
H1555 C1551 0.950 . S
H1556 C1553 0.950 . S
C1557 C1548 1.390 . S
C1557 H1550 0.950 . S
C1557 C1554 1.387 . S
C1558 C1559 1.387 . S
C1558 H1562 0.950 . S
C1558 C1567 1.390 . S
C1559 C1558 1.387 . S
C1559 C1561 1.387 . S
H1560 C1567 0.950 . S
C1561 C1559 1.387 . S
C1561 C1563 1.390 . S
C1561 H1565 0.950 . S
H1562 C1558 0.950 . S
C1563 C1561 1.390 . S
C1563 C1564 1.387 . S
C1563 H1566 0.950 . S
C1564 C1563 1.387 . S
C1564 C1567 1.387 . S
H1565 C1561 0.950 . S
H1566 C1563 0.950 . S
C1567 C1558 1.390 . S
C1567 H1560 0.950 . S
C1567 C1564 1.387 . S
C1568 C1569 1.387 . S
C1568 H1572 0.950 . S
C1568 C1577 1.390 . S
C1569 C1568 1.387 . S
C1569 C1571 1.387 . S
H1570 C1577 0.950 . S
C1571 C1569 1.387 . S
C1571 C1573 1.390 . S
C1571 H1575 0.950 . S
H1572 C1568 0.950 . S
C1573 C1571 1.390 . S
C1573 C1574 1.387 . S
C1573 H1576 0.950 . S
C1574 C1573 1.387 . S
C1574 C1577 1.387 . S
H1575 C1571 0.950 . S
H1576 C1573 0.950 . S
C1577 C1568 1.390 . S
C1577 H1570 0.950 . S
C1577 C1574 1.387 . S
C1578 C1579 1.387 . S
C1578 H1582 0.950 . S
C1578 C1587 1.390 . S
C1579 C1578 1.387 . S
C1579 C1581 1.387 . S
H1580 C1587 0.950 . S
C1581 C1579 1.387 . S
C1581 C1583 1.390 . S
C1581 H1585 0.950 . S
H1582 C1578 0.950 . S
C1583 C1581 1.390 . S
C1583 C1584 1.387 . S
C1583 H1586 0.950 . S
C1584 C1583 1.387 . S
C1584 C1587 1.387 . S
H1585 C1581 0.950 . S
H1586 C1583 0.950 . S
C1587 C1578 1.390 . S
C1587 H1580 0.950 . S
C1587 C1584 1.387 . S
C1588 C1589 1.387 . S
C1588 H1592 0.950 . S
C1588 C1597 1.390 . S
C1589 C1588 1.387 . S
C1589 C1591 1.387 . S
H1590 C1597 0.950 . S
C1591 C1589 1.387 . S
C1591 C1593 1.390 . S
C1591 H1595 0.950 . S
H1592 C1588 0.950 . S
C1593 C1591 1.390 . S
C1593 C1594 1.387 . S
C1593 H1596 0.950 . S
C1594 C1593 1.387 . S
C1594 C1597 1.387 . S
H1595 C1591 0.950 . S
H1596 C1593 0.950 . S
C1597 C1588 1.390 . S
C1597 H1590 0.950 . S
C1597 C1594 1.387 . S
C1598 C1599 1.387 . S
C1598 H1602 0.950 . S
C1598 C1607 1.390 . S
C1599 C1598 1.387 . S
C1599 C1601 1.387 . S
H1600 C1607 0.950 . S
C1601 C1599 1.387 . S
C1601 C1603 1.390 . S
C1601 H1605 0.950 . S
H1602 C1598 0.950 . S
C1603 C1601 1.390 . S
C1603 C1604 1.387 . S
C1603 H1606 0.950 . S
C1604 C1603 1.387 . S
C1604 C1607 1.387 . S
H1605 C1601 0.950 . S
H1606 C1603 0.950 . S
C1607 C1598 1.390 . S
C1607 H1600 0.950 . S
C1607 C1604 1.387 . S
C1608 C1609 1.387 . S
C1608 H1612 0.950 . S
C1608 C1617 1.390 . S
C1609 C1608 1.387 . S
C1609 C1611 1.387 . S
H1610 C1617 0.950 . S
C1611 C1609 1.387 . S
C1611 C1613 1.390 . S
C1611 H1615 0.950 . S
H1612 C1608 0.950 . S
C1613 C1611 1.390 . S
C1613 C1614 1.387 . S
C1613 H1616 0.950 . S
C1614 C1613 1.387 . S
C1614 C1617 1.387 . S
H1615 C1611 0.950 . S
H1616 C1613 0.950 . S
C1617 C1608 1.390 . S
C1617 H1610 0.950 . S
C1617 C1614 1.387 . S
C1618 C1619 1.387 . S
C1618 H1622 0.950 . S
C1618 C1627 1.390 . S
C1619 C1618 1.387 . S
C1619 C1621 1.387 . S
H1620 C1627 0.950 . S
C1621 C1619 1.387 . S
C1621 C1623 1.390 . S
C1621 H1625 0.950 . S
H1622 C1618 0.950 . S
C1623 C1621 1.390 . S
C1623 C1624 1.387 . S
C1623 H1626 0.950 . S
C1624 C1623 1.387 . S
C1624 C1627 1.387 . S
H1625 C1621 0.950 . S
H1626 C1623 0.950 . S
C1627 C1618 1.390 . S
C1627 H1620 0.950 . S
C1627 C1624 1.387 . S
C1628 C1629 1.387 . S
C1628 H1632 0.945 1_565 S
C1628 C1637 1.390 . S
C1629 C1628 1.387 . S
C1629 C1631 1.387 . S
H1630 C1637 0.950 . S
C1631 C1629 1.387 . S
C1631 C1633 1.390 . S
C1631 H1635 0.950 . S
H1632 C1628 0.945 1_545 S
C1633 C1631 1.390 . S
C1633 C1634 1.387 . S
C1633 H1636 0.950 . S
C1634 C1633 1.387 . S
C1634 C1637 1.387 . S
H1635 C1631 0.950 . S
H1636 C1633 0.950 . S
C1637 C1628 1.390 . S
C1637 H1630 0.950 . S
C1637 C1634 1.387 . S
C1638 C1639 1.387 . S
C1638 H1642 0.950 . S
C1638 C1647 1.408 . S
C1639 C1638 1.387 . S
C1639 C1641 1.387 . S
H1640 C1647 0.940 1_655 S
C1641 C1639 1.387 . S
C1641 C1643 1.390 . S
C1641 H1645 0.950 . S
H1642 C1638 0.950 . S
C1643 C1641 1.390 . S
C1643 C1644 1.387 1_455 S
C1643 H1646 0.950 1_455 S
C1644 C1643 1.387 1_655 S
C1644 C1647 1.380 1_655 S
H1645 C1641 0.950 . S
H1646 C1643 0.950 1_655 S
C1647 C1638 1.408 . S
C1647 H1640 0.940 1_455 S
C1647 C1644 1.380 1_455 S
C694 C343 1.170 . S
C689 C11 1.227 . S
C699 C14 1.294 . S
C704 C363 1.251 . S
C714 C384 1.314 . S
C709 C37 1.378 . S
C724 C411 1.251 . S
C719 C47 1.335 . S
C734 C367 1.250 . S
C729 C61 1.332 . S
C739 C79 1.378 . S
C744 C387 1.309 . S
C754 C407 1.247 . S
C749 C84 1.294 . S
C759 C109 1.225 . S
C764 C340 1.164 . S
C769 C123 1.247 . S
C774 C345 1.190 . S
C784 C362 1.226 . S
C779 C131 1.314 . S
C794 C386 1.304 . S
C789 C140 1.358 . S
C804 C410 1.250 . S
C799 C163 1.311 . S
C814 C366 1.251 . S
C809 C121 1.312 . S
C824 C389 1.309 . S
C819 C126 1.357 . S
C829 C145 1.315 . S
C834 C406 1.230 . S
C844 C342 1.191 . S
C839 C165 1.248 . S
C849 C168 1.241 . S
C854 C344 1.196 . S
C859 C193 1.267 . S
C864 C431 1.211 . S
C874 C451 1.283 . S
C869 C205 1.351 . S
C884 C474 1.281 . S
C879 C215 1.368 . S
C889 C224 1.241 . S
C894 C341 1.196 . S
C899 C247 1.350 . S
C904 C385 1.281 . S
C914 C475 1.210 . S
C909 C207 1.269 . S
C924 C430 1.280 . S
C919 C257 1.367 . S
C934 C498 1.279 . S
C929 C23 1.310 . S
C944 C519 1.195 . S
C939 C0 1.236 . S
C949 C53 1.172 . S
C954 C538 1.140 . S
C959 C33 1.302 . S
C964 C563 1.255 . S
C969 C103 1.303 . S
C974 C518 1.256 . S
C979 C95 1.175 . S
C984 C543 1.136 . S
C994 C562 1.192 . S
C989 C70 1.238 . S
C999 C65 1.311 . S
C1004 C495 1.280 . S
C1009 C271 1.340 . S
C1014 C499 1.284 . S
C1024 C520 1.243 . S
C1019 C219 1.270 . S
C1034 C539 1.147 . S
C1029 C235 1.180 . S
C1044 C564 1.191 . S
C1039 C182 1.230 . S
C1054 C516 1.188 . S
C1049 C266 1.233 . S
C1064 C541 1.148 . S
C1059 C221 1.180 . S
C1074 C560 1.243 . S
C1069 C233 1.270 . S
C1079 C187 1.340 . S
C1084 C496 1.285 . S
C1094 C497 1.226 . S
C1089 C289 1.270 . S
C1099 C154 1.285 . S
C1104 C583 1.246 . S
C1114 C608 1.185 . S
C1109 C299 1.226 . S
C1119 C137 1.237 . S
C1124 C627 1.206 . S
C1134 C494 1.228 . S
C1129 C149 1.271 . S
C1144 C540 1.184 . S
C1139 C313 1.227 . S
C1154 C631 1.245 . S
C1149 C294 1.286 . S
C1159 C333 1.238 . S
C1164 C587 1.204 . S
C1169 C39 1.226 . S
C1174 C651 1.164 . S
C1179 C42 1.293 . S
C1184 C429 1.249 . S
C1194 C453 1.309 . S
C1189 C9 1.378 . S
C1199 C19 1.334 . S
C1204 C477 1.250 . S
C1209 C89 1.336 . S
C1214 C433 1.251 . S
C1219 C107 1.379 . S
C1224 C450 1.312 . S
C1234 C473 1.252 . S
C1229 C56 1.297 . S
C1244 C648 1.166 . S
C1239 C81 1.227 . S
C1254 C653 1.186 . S
C1249 C305 1.247 . S
C1264 C428 1.231 . S
C1259 C285 1.315 . S
C1274 C455 1.308 . S
C1269 C322 1.356 . S
C1279 C317 1.312 . S
C1284 C476 1.251 . S
C1294 C432 1.251 . S
C1289 C303 1.312 . S
C1299 C280 1.356 . S
C1304 C452 1.304 . S
C1314 C472 1.231 . S
C1309 C327 1.314 . S
C1319 C319 1.249 . S
C1324 C650 1.191 . S
C1334 C652 1.197 . S
C1329 C210 1.243 . S
C1339 C249 1.270 . S
C1344 C365 1.215 . S
C1354 C388 1.283 . S
C1349 C275 1.351 . S
C1359 C173 1.366 . S
C1364 C408 1.280 . S
C1374 C649 1.191 . S
C1369 C252 1.240 . S
C1384 C454 1.279 . S
C1379 C191 1.348 . S
C1394 C409 1.213 . S
C1389 C277 1.270 . S
C1404 C364 1.283 . S
C1399 C229 1.367 . S
C1409 C51 1.312 . S
C1414 C675 1.276 . S
C1419 C28 1.238 . S
C1424 C585 1.192 . S
C1429 C25 1.175 . S
C1434 C604 1.135 . S
C1444 C629 1.257 . S
C1439 C5 1.302 . S
C1454 C584 1.256 . S
C1449 C75 1.303 . S
C1459 C67 1.175 . S
C1464 C609 1.134 . S
C1474 C628 1.192 . S
C1469 C98 1.238 . S
C1479 C93 1.312 . S
C1484 C670 1.280 . S
C1494 C673 1.284 . S
C1489 C201 1.341 . S
C1499 C177 1.268 . S
C1504 C586 1.247 . S
C1509 C263 1.182 . S
C1514 C605 1.143 . S
C1524 C630 1.191 . S
C1519 C238 1.231 . S
C1534 C582 1.191 . S
C1529 C196 1.231 . S
C1539 C179 1.180 . S
C1544 C607 1.148 . S
C1554 C626 1.246 . S
C1549 C261 1.269 . S
C1564 C671 1.285 . S
C1559 C243 1.340 . S
C1574 C674 1.229 . S
C1569 C135 1.267 . S
C1584 C517 1.246 . S
C1579 C308 1.286 . S
C1589 C117 1.228 . S
C1594 C542 1.183 . S
C1599 C291 1.238 . S
C1604 C561 1.205 . S
C1614 C672 1.228 . S
C1609 C331 1.270 . S
C1624 C606 1.184 . S
C1619 C159 1.228 . S
C1634 C565 1.245 . S
C1629 C112 1.287 . S
C1644 C521 1.203 . S
C1639 C151 1.237 . S
