# Generated by pormake.
# Topology anh, (6,3)-cn, num edge types: 1
# Building blocks:
#     Node 0, Type 0, BuildingBlock: PAMTOO_clean_sbu_0, # of connection points: 6
#     Node 1, Type 0, BuildingBlock: PAMTOO_clean_sbu_0, # of connection points: 6
#     Node 2, Type 0, BuildingBlock: PAMTOO_clean_sbu_0, # of connection points: 6
#     Node 3, Type 1, BuildingBlock: OLANEW_clean_sbu_2, # of connection points: 3
#     Node 4, Type 1, BuildingBlock: OLANEW_clean_sbu_2, # of connection points: 3
#     Node 5, Type 1, BuildingBlock: OLANEW_clean_sbu_2, # of connection points: 3
#     Node 6, Type 1, BuildingBlock: OLANEW_clean_sbu_2, # of connection points: 3
#     Node 7, Type 1, BuildingBlock: OLANEW_clean_sbu_2, # of connection points: 3
#     Node 8, Type 1, BuildingBlock: OLANEW_clean_sbu_2, # of connection points: 3
#     Edge 9, Type (0, 1), BuildingBlock: XUDNAN_clean_linker_2, # of connection points: 2
#     Edge 10, Type (0, 1), BuildingBlock: XUDNAN_clean_linker_2, # of connection points: 2
#     Edge 11, Type (0, 1), BuildingBlock: XUDNAN_clean_linker_2, # of connection points: 2
#     Edge 12, Type (0, 1), BuildingBlock: XUDNAN_clean_linker_2, # of connection points: 2
#     Edge 13, Type (0, 1), BuildingBlock: XUDNAN_clean_linker_2, # of connection points: 2
#     Edge 14, Type (0, 1), BuildingBlock: XUDNAN_clean_linker_2, # of connection points: 2
#     Edge 15, Type (0, 1), BuildingBlock: XUDNAN_clean_linker_2, # of connection points: 2
#     Edge 16, Type (0, 1), BuildingBlock: XUDNAN_clean_linker_2, # of connection points: 2
#     Edge 17, Type (0, 1), BuildingBlock: XUDNAN_clean_linker_2, # of connection points: 2
#     Edge 18, Type (0, 1), BuildingBlock: XUDNAN_clean_linker_2, # of connection points: 2
#     Edge 19, Type (0, 1), BuildingBlock: XUDNAN_clean_linker_2, # of connection points: 2
#     Edge 20, Type (0, 1), BuildingBlock: XUDNAN_clean_linker_2, # of connection points: 2
#     Edge 21, Type (0, 1), BuildingBlock: XUDNAN_clean_linker_2, # of connection points: 2
#     Edge 22, Type (0, 1), BuildingBlock: XUDNAN_clean_linker_2, # of connection points: 2
#     Edge 23, Type (0, 1), BuildingBlock: XUDNAN_clean_linker_2, # of connection points: 2
#     Edge 24, Type (0, 1), BuildingBlock: XUDNAN_clean_linker_2, # of connection points: 2
#     Edge 25, Type (0, 1), BuildingBlock: XUDNAN_clean_linker_2, # of connection points: 2
#     Edge 26, Type (0, 1), BuildingBlock: XUDNAN_clean_linker_2, # of connection points: 2
# Relax obj value: 0.143
# Max RMSD: 0.145
# Mean RMSD: 0.115
data_MOF--net-anh--node1-PAMTOO_clean_sbu_0--node2-OLANEW_clean_sbu_2--edge1-XUDNAN_clean_linker_2
_symmetry_space_group_name_H-M    P1
_symmetry_Int_Tables_number       1
_symmetry_cell_setting            triclinic
loop_
_symmetry_equiv_pos_as_xyz
'x, y, z'
_cell_length_a     36.949385
_cell_length_b     32.845367
_cell_length_c     51.169142
_cell_angle_alpha  90.177457
_cell_angle_beta   95.643833
_cell_angle_gamma 106.99746
loop_
_atom_site_label
_atom_site_type_symbol
_atom_site_fract_x
_atom_site_fract_y
_atom_site_fract_z
_atom_type_partial_charge
Dy0 Dy 0.03738 0.57342 0.1344 0.0
Dy1 Dy 1.00746 0.4702 0.12142 0.0
C2 C 0.02661 0.53593 0.07637 0.0
O3 O 0.97389 0.55651 0.13639 0.0
O4 O 0.95619 0.49262 0.11308 0.0
O5 O 0.06509 0.63663 0.12202 0.0
O6 O 0.04461 0.62782 0.16041 0.0
O7 O 0.99422 0.4828 0.16162 0.0
O8 O 0.04519 0.54082 0.17183 0.0
O9 O 0.06987 0.48348 0.1329 0.0
O10 O 0.0905 0.55595 0.12804 0.0
O11 O 1.00635 0.40673 0.13279 0.0
O12 O 0.97277 0.41585 0.09732 0.0
C13 C 0.94748 0.52403 0.12435 0.0
O14 O 0.01751 0.56278 0.09164 0.0
O15 O 0.03155 0.50043 0.08552 0.0
C16 C 0.10258 0.68042 0.15665 0.0
C17 C 0.176 0.73056 0.17656 0.0
C18 C 0.1663 0.68582 0.17658 0.0
C19 C 0.12992 0.66099 0.16668 0.0
C20 C 0.11185 0.7249 0.15681 0.0
C21 C 0.14826 0.74982 0.16671 0.0
C22 C 0.06514 0.65429 0.14487 0.0
C23 C 0.01828 0.50855 0.17919 0.0
C24 C 0.09737 0.51899 0.13097 0.0
C25 C 0.94443 0.35997 0.12416 0.0
C26 C 0.87624 0.30783 0.14129 0.0
C27 C 0.89823 0.34428 0.15617 0.0
C28 C 0.93176 0.37019 0.1476 0.0
C29 C 0.92297 0.32344 0.10935 0.0
C30 C 0.88912 0.29753 0.11783 0.0
C31 C 0.97878 0.38883 0.11465 0.0
H32 H 0.18679 0.66996 0.18428 0.0
H33 H 0.12322 0.62658 0.1666 0.0
H34 H 0.09113 0.74034 0.14892 0.0
H35 H 0.15493 0.78415 0.16604 0.0
H36 H 0.88964 0.35286 0.17453 0.0
H37 H 0.94768 0.39845 0.15927 0.0
H38 H 0.93207 0.31532 0.09105 0.0
H39 H 0.87266 0.27001 0.10571 0.0
Dy40 Dy 0.49156 0.02208 0.51665 0.0
Dy41 Dy 0.58547 0.0468 0.52065 0.0
C42 C 0.54053 0.03513 0.57115 0.0
O43 O 0.50974 0.09238 0.51073 0.0
O44 O 0.57338 0.10868 0.52609 0.0
O45 O 0.43989 0.99639 0.53496 0.0
O46 O 0.43717 0.01649 0.49472 0.0
O47 O 0.56472 0.06015 0.47995 0.0
O48 O 0.50812 0.00787 0.47774 0.0
O49 O 0.56519 0.97694 0.51102 0.0
O50 O 0.50585 0.96169 0.52541 0.0
O51 O 0.63747 0.04948 0.50375 0.0
O52 O 0.63956 0.07184 0.54387 0.0
C53 C 0.54297 0.12014 0.51812 0.0
O54 O 0.51396 0.04701 0.55722 0.0
O55 O 0.56709 0.02458 0.55991 0.0
C56 C 0.39028 0.95495 0.50561 0.0
C57 C 0.33784 0.87389 0.49385 0.0
C58 C 0.32645 0.90667 0.50523 0.0
C59 C 0.35249 0.94685 0.51105 0.0
C60 C 0.40187 0.92253 0.49422 0.0
C61 C 0.37587 0.8824 0.48831 0.0
C62 C 0.41811 0.99623 0.5133 0.0
C63 C 0.53509 0.0343 0.46608 0.0
C64 C 0.53418 0.94953 0.51791 0.0
C65 C 0.68808 0.10931 0.51935 0.0
C66 C 0.74351 0.18723 0.51285 0.0
C67 C 0.70472 0.18267 0.50582 0.0
C68 C 0.67726 0.14397 0.50897 0.0
C69 C 0.72666 0.11348 0.52618 0.0
C70 C 0.75423 0.15212 0.52286 0.0
C71 C 0.65906 0.06963 0.52431 0.0
H72 H 0.2976 0.90106 0.51016 0.0
H73 H 0.34326 0.9714 0.52018 0.0
H74 H 0.43112 0.92818 0.4901 0.0
H75 H 0.38555 0.85813 0.47929 0.0
H76 H 0.69563 0.20893 0.49769 0.0
H77 H 0.64753 0.14111 0.5035 0.0
H78 H 0.73541 0.08705 0.53438 0.0
H79 H 0.78386 0.15478 0.52861 0.0
Dy80 Dy 0.55289 0.50789 0.86518 0.0
Dy81 Dy 0.45994 0.47276 0.85097 0.0
C82 C 0.51605 0.4903 0.80688 0.0
O83 O 0.5354 0.56515 0.85292 0.0
O84 O 0.47167 0.54241 0.85869 0.0
O85 O 0.60808 0.54565 0.8559 0.0
O86 O 0.60258 0.51075 0.89198 0.0
O87 O 0.47266 0.46488 0.89406 0.0
O88 O 0.52634 0.52129 0.90007 0.0
O89 O 0.47998 0.41603 0.84491 0.0
O90 O 0.53755 0.43759 0.87028 0.0
O91 O 0.40323 0.45408 0.86299 0.0
O92 O 0.41122 0.45097 0.8218 0.0
C93 C 0.50272 0.57273 0.85485 0.0
O94 O 0.54197 0.48256 0.82384 0.0
O95 O 0.48647 0.49921 0.81484 0.0
C96 C 0.6581 0.51849 0.87122 0.0
C97 C 0.72147 0.49291 0.86017 0.0
C98 C 0.68504 0.47178 0.84778 0.0
C99 C 0.65351 0.48442 0.85334 0.0
C100 C 0.69416 0.53916 0.88388 0.0
C101 C 0.72559 0.52652 0.87842 0.0
C102 C 0.62584 0.53362 0.87637 0.0
C103 C 0.49735 0.49425 0.90946 0.0
C104 C 0.51022 0.408 0.85677 0.0
C105 C 0.36043 0.47534 0.83253 0.0
C106 C 0.31084 0.52493 0.81927 0.0
C107 C 0.33703 0.53507 0.84194 0.0
C108 C 0.36174 0.51085 0.84836 0.0
C109 C 0.33448 0.46503 0.80988 0.0
C110 C 0.30997 0.48966 0.80324 0.0
C111 C 0.38716 0.45028 0.83889 0.0
H112 H 0.68098 0.44567 0.83375 0.0
H113 H 0.62567 0.46803 0.84348 0.0
H114 H 0.69812 0.56559 0.89767 0.0
H115 H 0.75334 0.54399 0.88792 0.0
H116 H 0.3381 0.56132 0.85514 0.0
H117 H 0.38179 0.51996 0.8658 0.0
H118 H 0.33337 0.4381 0.79722 0.0
H119 H 0.29056 0.4812 0.78547 0.0
O120 O 0.55957 0.14163 0.27803 0.0
Cd121 Cd 0.5618 0.16974 0.23376 0.0
O122 O 0.52304 0.08282 0.25831 0.0
Cd123 Cd 0.48698 0.01669 0.25288 0.0
O124 O 0.44452 0.95604 0.24112 0.0
C125 C 0.40977 0.95174 0.24378 0.0
O126 O 0.40065 0.98351 0.25424 0.0
C127 C 0.53886 0.10346 0.27956 0.0
C128 C 0.6321 0.18641 0.21389 0.0
O129 O 0.62302 0.21562 0.22602 0.0
O130 O 0.6082 0.14907 0.21159 0.0
O131 O 0.51746 0.4852 0.59809 0.0
Cd132 Cd 0.51076 0.48541 0.55017 0.0
O133 O 0.49209 0.53584 0.6074 0.0
Cd134 Cd 0.48995 0.56102 0.56798 0.0
O135 O 0.50097 0.61861 0.5449 0.0
C136 C 0.4819 0.64437 0.54842 0.0
O137 O 0.45484 0.63382 0.56416 0.0
C138 C 0.50651 0.50653 0.6148 0.0
C139 C 0.52598 0.41173 0.53307 0.0
O140 O 0.55237 0.44721 0.53679 0.0
O141 O 0.49199 0.41135 0.53649 0.0
O142 O 0.11007 0.71451 0.91578 0.0
Cd143 Cd 0.1261 0.757 0.87705 0.0
O144 O 0.08952 0.66032 0.88769 0.0
Cd145 Cd 0.05619 0.59499 0.87618 0.0
O146 O 1.00142 0.54629 0.87021 0.0
C147 C 0.98542 0.53274 0.84742 0.0
O148 O 1.00392 0.54572 0.82689 0.0
C149 C 0.09524 0.67472 0.91132 0.0
C150 C 0.1589 0.71201 0.84515 0.0
O151 O 0.1229 0.70635 0.84244 0.0
O152 O 0.17939 0.74024 0.86213 0.0
O153 O 0.04242 0.54668 0.38211 0.0
Cd154 Cd 0.05063 0.56064 0.42961 0.0
O155 O 0.98822 0.4968 0.38456 0.0
Cd156 Cd 0.98519 0.49901 0.42686 0.0
O157 O 0.95057 0.46476 0.45653 0.0
C158 C 0.94682 0.42508 0.45721 0.0
O159 O 0.96613 0.40891 0.44198 0.0
C160 C 0.01363 0.51853 0.37094 0.0
C161 C 0.12007 0.6208 0.44579 0.0
O162 O 0.11703 0.58092 0.44508 0.0
O163 O 0.09025 0.63216 0.43888 0.0
O164 O 0.43933 0.92435 0.74477 0.0
Cd165 Cd 0.41059 0.89747 0.78476 0.0
O166 O 0.4762 0.97761 0.76961 0.0
Cd167 Cd 0.51628 0.04097 0.77782 0.0
O168 O 0.5339 0.10584 0.79465 0.0
C169 C 0.50913 0.12585 0.79227 0.0
O170 O 0.47587 0.10724 0.77921 0.0
C171 C 0.4662 0.95908 0.74709 0.0
C172 C 0.43958 0.83402 0.80597 0.0
O173 O 0.40787 0.82438 0.79134 0.0
O174 O 0.45734 0.87353 0.81069 0.0
O175 O 0.56908 0.54617 0.10518 0.0
Cd176 Cd 0.61596 0.5558 0.14474 0.0
O177 O 0.51314 0.54297 0.11882 0.0
Cd178 Cd 0.45097 0.53776 0.11552 0.0
O179 O 0.38859 0.52451 0.11866 0.0
C180 C 0.37053 0.55227 0.11879 0.0
O181 O 0.38918 0.5926 0.11655 0.0
C182 C 0.53351 0.54186 0.10019 0.0
C183 C 0.6858 0.54008 0.13663 0.0
O184 O 0.65576 0.50988 0.14012 0.0
O185 O 0.68316 0.57813 0.13655 0.0
H186 H 0.16368 0.58431 0.12595 0.0
H187 H 0.12158 0.44792 0.13637 0.0
H188 H 0.1863 0.44218 0.13502 0.0
H189 H 0.23059 0.57988 0.0807 0.0
H190 H 0.26641 0.6274 0.0938 0.0
H191 H 0.2169 0.62148 0.09645 0.0
H192 H 0.23096 0.63377 0.14689 0.0
H193 H 0.28058 0.63999 0.1444 0.0
H194 H 0.25463 0.60085 0.16566 0.0
H195 H 0.25523 0.45021 0.13113 0.0
H196 H 0.32391 0.472 0.12602 0.0
H197 H 0.32252 0.60319 0.11833 0.0
C198 C 0.16807 0.55325 0.12811 0.0
C199 C 0.13718 0.51656 0.13126 0.0
C200 C 0.14445 0.4766 0.13394 0.0
C201 C 0.18125 0.47293 0.13319 0.0
C202 C 0.21086 0.5095 0.12981 0.0
C203 C 0.2048 0.54897 0.12742 0.0
C204 C 0.24171 0.58311 0.12367 0.0
C205 C 0.23871 0.6042 0.09707 0.0
C206 C 0.25261 0.61639 0.14651 0.0
C207 C 0.2693 0.55656 0.12412 0.0
C208 C 0.25083 0.51418 0.12771 0.0
C209 C 0.27004 0.48335 0.12842 0.0
C210 C 0.30913 0.49606 0.12544 0.0
C211 C 0.3289 0.53932 0.12178 0.0
C212 C 0.30845 0.56986 0.12115 0.0
H213 H 0.81152 0.20013 0.49231 0.0
H214 H 0.74093 0.26734 0.52571 0.0
H215 H 0.78835 0.33608 0.51868 0.0
H216 H 0.90389 0.2732 0.51864 0.0
H217 H 0.92579 0.26822 0.48931 0.0
H218 H 0.88777 0.2244 0.49897 0.0
H219 H 0.84979 0.22301 0.45343 0.0
H220 H 0.88765 0.26668 0.44362 0.0
H221 H 0.83994 0.27093 0.44199 0.0
H222 H 0.84194 0.39751 0.50573 0.0
H223 H 0.8957 0.44663 0.48593 0.0
H224 H 0.93089 0.33874 0.46111 0.0
C225 C 0.8064 0.22928 0.49861 0.0
C226 C 0.77264 0.22843 0.50964 0.0
C227 C 0.76651 0.26731 0.51706 0.0
C228 C 0.79341 0.30645 0.51334 0.0
C229 C 0.82629 0.30615 0.50223 0.0
C230 C 0.83283 0.26856 0.49495 0.0
C231 C 0.8692 0.27695 0.4819 0.0
C232 C 0.89839 0.25967 0.49818 0.0
C233 C 0.86114 0.2583 0.45356 0.0
C234 C 0.88171 0.32514 0.48246 0.0
C235 C 0.85688 0.34145 0.49456 0.0
C236 C 0.86176 0.38512 0.49641 0.0
C237 C 0.8924 0.41277 0.48513 0.0
C238 C 0.91755 0.39657 0.47199 0.0
C239 C 0.91236 0.35221 0.47115 0.0
H240 H 0.43877 0.59777 0.84229 0.0
H241 H 0.56157 0.6466 0.85887 0.0
H242 H 0.55814 0.71946 0.85054 0.0
H243 H 0.42957 0.66257 0.78923 0.0
H244 H 0.38572 0.67077 0.79725 0.0
H245 H 0.39718 0.62304 0.80696 0.0
H246 H 0.38944 0.63901 0.85509 0.0
H247 H 0.37881 0.68764 0.84609 0.0
H248 H 0.41716 0.68901 0.87095 0.0
H249 H 0.54165 0.78655 0.83937 0.0
H250 H 0.51366 0.84287 0.82367 0.0
H251 H 0.40206 0.74974 0.81213 0.0
C252 C 0.4649 0.62385 0.84455 0.0
C253 C 0.50045 0.61658 0.85138 0.0
C254 C 0.53403 0.65147 0.85368 0.0
C255 C 0.53237 0.69296 0.84907 0.0
C256 C 0.49694 0.69896 0.84205 0.0
C257 C 0.46382 0.66538 0.83971 0.0
C258 C 0.42962 0.68018 0.83063 0.0
C259 C 0.40936 0.65782 0.80446 0.0
C260 C 0.40212 0.67352 0.85196 0.0
C261 C 0.44887 0.72711 0.82736 0.0
C262 C 0.48758 0.73743 0.83463 0.0
C263 C 0.51138 0.7789 0.83362 0.0
C264 C 0.49522 0.81065 0.82472 0.0
C265 C 0.45578 0.80059 0.81656 0.0
C266 C 0.43236 0.75828 0.81805 0.0
H267 H 0.91279 0.58642 0.1354 0.0
H268 H 0.8881 0.45233 0.11367 0.0
H269 H 0.81986 0.44291 0.11423 0.0
H270 H 0.83921 0.57345 0.17902 0.0
H271 H 0.827 0.62083 0.16919 0.0
H272 H 0.87459 0.6179 0.16721 0.0
H273 H 0.86951 0.63503 0.11787 0.0
H274 H 0.8219 0.63803 0.1197 0.0
H275 H 0.83064 0.60234 0.09592 0.0
H276 H 0.75442 0.44624 0.11835 0.0
H277 H 0.69494 0.4633 0.12395 0.0
H278 H 0.75919 0.59567 0.14126 0.0
C279 C 0.893 0.55516 0.1307 0.0
C280 C 0.90618 0.52023 0.12436 0.0
C281 C 0.8791 0.47983 0.11833 0.0
C282 C 0.84007 0.474 0.11869 0.0
C283 C 0.82803 0.50886 0.1249 0.0
C284 C 0.85349 0.54876 0.13064 0.0
C285 C 0.83237 0.58073 0.1364 0.0
C286 C 0.84399 0.59932 0.16463 0.0
C287 C 0.839 0.61613 0.11627 0.0
C288 C 0.79129 0.55241 0.13309 0.0
C289 C 0.78966 0.51102 0.12662 0.0
C290 C 0.75528 0.47861 0.12323 0.0
C291 C 0.72158 0.48863 0.12651 0.0
C292 C 0.72217 0.53084 0.1329 0.0
C293 C 0.75766 0.56317 0.13611 0.0
H294 H 0.2625 0.85457 0.47442 0.0
H295 H 0.35056 0.79594 0.50008 0.0
H296 H 0.30476 0.72483 0.49017 0.0
H297 H 0.1863 0.77735 0.50199 0.0
H298 H 0.15124 0.7791 0.47525 0.0
H299 H 0.19128 0.82533 0.48387 0.0
H300 H 0.2091 0.82721 0.43605 0.0
H301 H 0.16917 0.78094 0.42728 0.0
H302 H 0.21641 0.78054 0.4215 0.0
H303 H 0.24903 0.65992 0.47751 0.0
H304 H 0.1876 0.60633 0.4634 0.0
H305 H 0.13588 0.70775 0.44731 0.0
C306 C 0.27216 0.82683 0.47821 0.0
C307 C 0.31025 0.83097 0.48797 0.0
C308 C 0.32173 0.79371 0.49223 0.0
C309 C 0.29585 0.75313 0.48682 0.0
C310 C 0.25854 0.75029 0.47725 0.0
C311 C 0.2467 0.78615 0.47305 0.0
C312 C 0.20499 0.77444 0.46281 0.0
C313 C 0.18211 0.78997 0.48214 0.0
C314 C 0.19962 0.79181 0.43527 0.0
C315 C 0.1952 0.72636 0.46185 0.0
C316 C 0.22645 0.71303 0.47023 0.0
C317 C 0.22434 0.66999 0.47094 0.0
C318 C 0.18933 0.6398 0.46288 0.0
C319 C 0.1569 0.65281 0.45428 0.0
C320 C 0.16007 0.69673 0.45382 0.0
H321 H 0.46213 0.33997 0.82757 0.0
H322 H 0.57064 0.38013 0.87592 0.0
H323 H 0.58203 0.31187 0.86521 0.0
H324 H 0.4373 0.22787 0.84348 0.0
H325 H 0.4161 0.21033 0.81059 0.0
H326 H 0.41577 0.26132 0.82343 0.0
H327 H 0.44879 0.29786 0.78365 0.0
H328 H 0.44961 0.24708 0.77082 0.0
H329 H 0.49324 0.28997 0.77678 0.0
H330 H 0.58303 0.24044 0.84714 0.0
H331 H 0.57201 0.17028 0.82488 0.0
H332 H 0.46301 0.17778 0.78851 0.0
C333 C 0.48806 0.33428 0.83628 0.0
C334 C 0.51538 0.36544 0.85271 0.0
C335 C 0.54911 0.35671 0.86341 0.0
C336 C 0.55592 0.31806 0.85738 0.0
C337 C 0.52871 0.28844 0.84068 0.0
C338 C 0.49533 0.296 0.83045 0.0
C339 C 0.47113 0.25957 0.81241 0.0
C340 C 0.43281 0.23853 0.82313 0.0
C341 C 0.46537 0.27453 0.78425 0.0
C342 C 0.49616 0.23035 0.81397 0.0
C343 C 0.52928 0.24753 0.83033 0.0
C344 C 0.55708 0.22657 0.83441 0.0
C345 C 0.55062 0.18681 0.82161 0.0
C346 C 0.51662 0.16846 0.805 0.0
C347 C 0.48924 0.19079 0.80115 0.0
H348 H 0.47775 0.88428 0.53554 0.0
H349 H 0.58368 0.91052 0.49974 0.0
H350 H 0.579 0.83397 0.50027 0.0
H351 H 0.49571 0.80819 0.57921 0.0
H352 H 0.44706 0.77485 0.57658 0.0
H353 H 0.45731 0.83105 0.57138 0.0
H354 H 0.41871 0.81522 0.52553 0.0
H355 H 0.40828 0.75885 0.53054 0.0
H356 H 0.43054 0.78148 0.50199 0.0
H357 H 0.56431 0.75491 0.50673 0.0
H358 H 0.5424 0.6804 0.52045 0.0
H359 H 0.4466 0.7065 0.55247 0.0
C360 C 0.49984 0.874 0.52756 0.0
C361 C 0.53108 0.90351 0.51756 0.0
C362 C 0.55947 0.88859 0.50752 0.0
C363 C 0.55698 0.84511 0.50763 0.0
C364 C 0.52593 0.81696 0.5178 0.0
C365 C 0.49791 0.83084 0.52762 0.0
C366 C 0.46855 0.79455 0.53875 0.0
C367 C 0.4671 0.80265 0.56822 0.0
C368 C 0.4292 0.78708 0.52327 0.0
C369 C 0.48484 0.75816 0.53416 0.0
C370 C 0.51768 0.77161 0.52175 0.0
C371 C 0.53849 0.74396 0.51629 0.0
C372 C 0.52579 0.70166 0.52414 0.0
C373 C 0.49277 0.68753 0.53754 0.0
C374 C 0.47183 0.71616 0.54217 0.0
H375 H 0.78197 0.48649 0.89345 0.0
H376 H 0.7388 0.47686 0.81104 0.0
H377 H 0.80031 0.47127 0.79904 0.0
H378 H 0.86752 0.55534 0.88653 0.0
H379 H 0.89479 0.53412 0.91111 0.0
H380 H 0.84516 0.52662 0.91348 0.0
H381 H 0.83324 0.44487 0.91465 0.0
H382 H 0.88311 0.45217 0.91233 0.0
H383 H 0.84784 0.41777 0.88878 0.0
H384 H 0.86946 0.48118 0.79568 0.0
H385 H 0.93968 0.50598 0.80127 0.0
H386 H 0.93783 0.50959 0.8859 0.0
C387 C 0.78515 0.48205 0.87291 0.0
C388 C 0.75562 0.48201 0.85318 0.0
C389 C 0.76083 0.47628 0.82652 0.0
C390 C 0.79571 0.47312 0.81951 0.0
C391 C 0.82486 0.47514 0.83943 0.0
C392 C 0.81974 0.47896 0.86564 0.0
C393 C 0.85668 0.48603 0.88308 0.0
C394 C 0.8666 0.52802 0.89948 0.0
C395 C 0.85511 0.44793 0.90075 0.0
C396 C 0.88387 0.48839 0.86251 0.0
C397 C 0.86493 0.48098 0.83748 0.0
C398 C 0.88453 0.48603 0.8152 0.0
C399 C 0.92445 0.50023 0.81857 0.0
C400 C 0.94427 0.50968 0.84402 0.0
C401 C 0.92358 0.50213 0.86619 0.0
H402 H 0.19687 0.80541 0.20607 0.0
H403 H 0.24366 0.71598 0.16872 0.0
H404 H 0.3086 0.76088 0.18387 0.0
H405 H 0.26581 0.89929 0.18888 0.0
H406 H 0.26737 0.92788 0.21929 0.0
H407 H 0.22462 0.88729 0.20691 0.0
H408 H 0.22562 0.84823 0.25079 0.0
H409 H 0.26844 0.88868 0.26331 0.0
H410 H 0.26745 0.83349 0.26274 0.0
H411 H 0.36856 0.81723 0.2015 0.0
H412 H 0.41891 0.88098 0.21993 0.0
H413 H 0.33269 0.93398 0.245 0.0
C414 C 0.22073 0.79525 0.20102 0.0
C415 C 0.21509 0.75704 0.18627 0.0
C416 C 0.24718 0.74473 0.18035 0.0
C417 C 0.28421 0.77014 0.18876 0.0
C418 C 0.2887 0.80772 0.20311 0.0
C419 C 0.25784 0.82022 0.20921 0.0
C420 C 0.27039 0.86266 0.2242 0.0
C421 C 0.25621 0.89626 0.2089 0.0
C422 C 0.25719 0.85796 0.25191 0.0
C423 C 0.31316 0.87241 0.22525 0.0
C424 C 0.32317 0.84022 0.21312 0.0
C425 C 0.36106 0.84255 0.21115 0.0
C426 C 0.38946 0.8789 0.22168 0.0
C427 C 0.37979 0.9125 0.23394 0.0
C428 C 0.34108 0.90884 0.23586 0.0
H429 H 0.48659 0.15977 0.51775 0.0
H430 H 0.60864 0.18511 0.51735 0.0
H431 H 0.61657 0.26213 0.51744 0.0
H432 H 0.47681 0.24828 0.4768 0.0
H433 H 0.44205 0.25965 0.49573 0.0
H434 H 0.44528 0.20608 0.49333 0.0
H435 H 0.45438 0.20388 0.54411 0.0
H436 H 0.45112 0.25734 0.54667 0.0
H437 H 0.49217 0.24463 0.56231 0.0
H438 H 0.61207 0.33623 0.51958 0.0
H439 H 0.59571 0.4029 0.526 0.0
H440 H 0.47681 0.33046 0.52629 0.0
C441 C 0.5149 0.18153 0.51731 0.0
C442 C 0.54696 0.16631 0.51738 0.0
C443 C 0.58362 0.19589 0.51729 0.0
C444 C 0.58844 0.23978 0.51722 0.0
C445 C 0.55636 0.25375 0.51738 0.0
C446 C 0.5203 0.22562 0.51756 0.0
C447 C 0.49098 0.24928 0.51948 0.0
C448 C 0.46207 0.24028 0.49486 0.0
C449 C 0.471 0.23812 0.54464 0.0
C450 C 0.5163 0.29499 0.52074 0.0
C451 C 0.55384 0.29679 0.51917 0.0
C452 C 0.58274 0.3353 0.52068 0.0
C453 C 0.57314 0.37302 0.52432 0.0
C454 C 0.53499 0.372 0.52661 0.0
C455 C 0.5062 0.33238 0.52443 0.0
H456 H 0.32383 0.61101 0.82726 0.0
H457 H 0.23587 0.49593 0.79852 0.0
H458 H 0.18906 0.53631 0.79414 0.0
H459 H 0.26836 0.64231 0.86902 0.0
H460 H 0.2892 0.69854 0.86495 0.0
H461 H 0.3162 0.66216 0.86024 0.0
H462 H 0.32664 0.6914 0.81299 0.0
H463 H 0.2988 0.72692 0.81829 0.0
H464 H 0.28581 0.69017 0.79034 0.0
H465 H 0.14994 0.58595 0.79944 0.0
H466 H 0.12168 0.63922 0.81588 0.0
H467 H 0.23447 0.72032 0.8439 0.0
C468 C 0.29486 0.59428 0.8197 0.0
C469 C 0.2837 0.55018 0.81322 0.0
C470 C 0.24547 0.52981 0.80316 0.0
C471 C 0.21856 0.5525 0.80066 0.0
C472 C 0.23029 0.59554 0.80826 0.0
C473 C 0.26759 0.6162 0.81758 0.0
C474 C 0.27199 0.66076 0.82794 0.0
C475 C 0.28734 0.66626 0.85725 0.0
C476 C 0.29731 0.6943 0.81141 0.0
C477 C 0.23107 0.66142 0.82395 0.0
C478 C 0.20755 0.62391 0.81201 0.0
C479 C 0.16816 0.61576 0.80835 0.0
C480 C 0.15236 0.64622 0.81777 0.0
C481 C 0.17591 0.68398 0.83109 0.0
C482 C 0.21578 0.69201 0.83353 0.0
H483 H 0.8229 0.33504 0.16427 0.0
H484 H 0.84703 0.22043 0.13854 0.0
H485 H 0.78696 0.1767 0.15403 0.0
H486 H 0.7846 0.29305 0.22369 0.0
H487 H 0.74916 0.32105 0.22146 0.0
H488 H 0.79335 0.34317 0.2075 0.0
H489 H 0.75621 0.34693 0.16233 0.0
H490 H 0.7119 0.32485 0.17614 0.0
H491 H 0.72204 0.29939 0.14764 0.0
H492 H 0.72411 0.14555 0.17264 0.0
H493 H 0.66376 0.12951 0.19302 0.0
H494 H 0.68286 0.26467 0.20817 0.0
C495 C 0.81586 0.30073 0.16207 0.0
C496 C 0.83983 0.28123 0.15018 0.0
C497 C 0.82896 0.2362 0.14726 0.0
C498 C 0.79502 0.21107 0.15616 0.0
C499 C 0.77231 0.23142 0.168 0.0
C500 C 0.78234 0.27523 0.17099 0.0
C501 C 0.75327 0.28935 0.18461 0.0
C502 C 0.77117 0.31304 0.21087 0.0
C503 C 0.73476 0.31674 0.1666 0.0
C504 C 0.72527 0.24658 0.18889 0.0
C505 C 0.73664 0.21354 0.17909 0.0
C506 C 0.71499 0.17117 0.18045 0.0
C507 C 0.68077 0.16238 0.19206 0.0
C508 C 0.66869 0.1958 0.20229 0.0
C509 C 0.69144 0.23838 0.20072 0.0
H510 H 0.02857 0.61145 0.053 0.0
H511 H 0.04166 0.48656 0.03797 0.0
H512 H 0.05831 0.5077 0.99339 0.0
H513 H 0.98851 0.62615 0.98673 0.0
H514 H 0.01368 0.68222 0.98755 0.0
H515 H 1.0002 0.65613 0.01754 0.0
H516 H 0.07045 0.68236 0.03786 0.0
H517 H 0.0842 0.70828 0.00791 0.0
H518 H 0.10674 0.66986 0.02108 0.0
H519 H 0.0775 0.54395 0.95161 0.0
H520 H 0.09658 0.59221 0.91526 0.0
H521 H 0.07035 0.69315 0.95734 0.0
C522 C 0.03435 0.58824 0.04024 0.0
C523 C 0.03363 0.54723 0.04897 0.0
C524 C 0.04191 0.5181 0.03171 0.0
C525 C 0.05139 0.52981 0.00635 0.0
C526 C 0.05243 0.57071 -0.00145 0.0
C527 C 0.04399 0.59942 0.01493 0.0
C528 C 0.04866 0.64198 0.0022 0.0
C529 C 0.01049 0.6522 -0.00173 0.0
C530 C 0.07934 0.67771 0.01822 0.0
C531 C 0.06154 0.63291 0.97619 0.0
C532 C 0.06331 0.59154 0.97442 0.0
C533 C 0.07553 0.57614 0.95256 0.0
C534 C 0.08592 0.60365 0.93189 0.0
C535 C 0.08382 0.64596 0.93314 0.0
C536 C 0.07181 0.66079 0.95573 0.0
H537 H 0.58395 0.08626 0.43436 0.0
H538 H 0.47644 0.98611 0.43203 0.0
H539 H 0.46721 0.99088 0.38395 0.0
H540 H 0.55403 0.14919 0.38564 0.0
H541 H 0.59845 0.16482 0.37122 0.0
H542 H 0.59794 0.15204 0.40539 0.0
H543 H 0.63247 0.09543 0.39786 0.0
H544 H 0.6332 0.10812 0.36364 0.0
H545 H 0.61233 0.05403 0.37286 0.0
H546 H 0.46698 0.01003 0.33677 0.0
H547 H 0.47706 0.0406 0.29331 0.0
H548 H 0.586 0.12593 0.32534 0.0
C549 C 0.55866 0.06501 0.42373 0.0
C550 C 0.53095 0.03579 0.43704 0.0
C551 C 0.49815 0.00874 0.42235 0.0
C552 C 0.49261 0.01116 0.39499 0.0
C553 C 0.52021 0.04061 0.38253 0.0
C554 C 0.5527 0.06689 0.39634 0.0
C555 C 0.57739 0.09654 0.37817 0.0
C556 C 0.58222 0.14342 0.38555 0.0
C557 C 0.61614 0.088 0.37813 0.0
C558 C 0.55338 0.0832 0.35208 0.0
C559 C 0.52057 0.05082 0.35505 0.0
C560 C 0.49305 0.0346 0.33404 0.0
C561 C 0.49931 0.05174 0.30925 0.0
C562 C 0.53304 0.08439 0.30557 0.0
C563 C 0.56024 0.10041 0.32741 0.0
H564 H 0.47965 0.52371 0.76701 0.0
H565 H 0.56113 0.4524 0.78266 0.0
H566 H 0.56646 0.44745 0.73509 0.0
H567 H 0.43178 0.46745 0.70722 0.0
H568 H 0.42605 0.51442 0.69134 0.0
H569 H 0.42815 0.51177 0.72659 0.0
H570 H 0.48421 0.58147 0.73133 0.0
H571 H 0.48222 0.58443 0.6961 0.0
H572 H 0.5261 0.58488 0.71509 0.0
H573 H 0.5617 0.44875 0.68584 0.0
H574 H 0.55072 0.46052 0.63849 0.0
H575 H 0.47434 0.53356 0.65514 0.0
C576 C 0.49855 0.50697 0.76042 0.0
C577 C 0.51988 0.48829 0.77849 0.0
C578 C 0.54461 0.46705 0.76915 0.0
C579 C 0.54771 0.46393 0.74218 0.0
C580 C 0.52619 0.48256 0.72487 0.0
C581 C 0.50237 0.50402 0.73362 0.0
C582 C 0.48319 0.52226 0.71099 0.0
C583 C 0.43972 0.5028 0.70892 0.0
C584 C 0.49463 0.57116 0.71353 0.0
C585 C 0.49984 0.50756 0.68813 0.0
C586 C 0.52432 0.48441 0.69655 0.0
C587 C 0.54272 0.46698 0.67901 0.0
C588 C 0.5362 0.47373 0.65214 0.0
C589 C 0.51177 0.49807 0.6431 0.0
C590 C 0.49334 0.51502 0.66142 0.0
H591 H 0.47602 0.0067 0.59521 0.0
H592 H 0.59894 0.04957 0.61073 0.0
H593 H 0.59338 0.0391 0.65838 0.0
H594 H 0.45277 0.05041 0.65406 0.0
H595 H 0.41268 0.00466 0.65792 0.0
H596 H 0.42657 0.01895 0.62563 0.0
H597 H 0.43248 0.94331 0.61755 0.0
H598 H 0.41853 0.92872 0.64976 0.0
H599 H 0.46267 0.92302 0.64051 0.0
H600 H 0.57346 0.02456 0.70456 0.0
H601 H 0.54177 0.99894 0.74443 0.0
H602 H 0.43251 0.95971 0.69735 0.0
C603 C 0.50175 0.01445 0.60871 0.0
C604 C 0.53791 0.02963 0.59954 0.0
C605 C 0.571 0.0382 0.61756 0.0
C606 C 0.56807 0.03251 0.64458 0.0
C607 C 0.53186 0.01745 0.65302 0.0
C608 C 0.49934 0.00791 0.63551 0.0
C609 C 0.46396 0.98896 0.64913 0.0
C610 C 0.43744 0.01746 0.64653 0.0
C611 C 0.44321 0.9433 0.63861 0.0
C612 C 0.48153 0.98935 0.67713 0.0
C613 C 0.52065 0.00662 0.67911 0.0
C614 C 0.54288 0.01088 0.7032 0.0
C615 C 0.52466 0.99654 0.72572 0.0
C616 C 0.4848 0.97749 0.72385 0.0
C617 C 0.46308 0.97403 0.69925 0.0
H618 H 0.5488 0.54373 0.94716 0.0
H619 H 0.43642 0.45214 0.93601 0.0
H620 H 0.43054 0.45853 0.9836 0.0
H621 H 0.57827 0.50588 0.00739 0.0
H622 H 0.60495 0.558 0.02085 0.0
H623 H 0.59856 0.54797 0.98587 0.0
H624 H 0.56951 0.61067 0.97962 0.0
H625 H 0.57558 0.62074 0.01464 0.0
H626 H 0.52925 0.61131 -0.00331 0.0
H627 H 0.43876 0.47374 0.03344 0.0
H628 H 0.46196 0.49237 0.08033 0.0
H629 H 0.56871 0.57323 0.05742 0.0
C630 C 0.52271 0.52521 0.95456 0.0
C631 C 0.49299 0.49755 0.9378 0.0
C632 C 0.45959 0.47356 0.94848 0.0
C633 C 0.45593 0.47715 0.97546 0.0
C634 C 0.48592 0.50483 0.99141 0.0
C635 C 0.51871 0.52825 0.98127 0.0
C636 C 0.54778 0.55402 0.00249 0.0
C637 C 0.58454 0.54065 0.00425 0.0
C638 C 0.55599 0.60203 -0.00191 0.0
C639 C 0.52657 0.54107 0.02633 0.0
C640 C 0.49073 0.51313 0.01967 0.0
C641 C 0.46661 0.49597 0.03879 0.0
C642 C 0.47984 0.50705 0.06537 0.0
C643 C 0.5169 0.53472 0.07246 0.0
C644 C 0.54014 0.55223 0.05258 0.0
H645 H 0.06217 0.55543 0.22199 0.0
H646 H 0.96217 0.44802 0.20015 0.0
H647 H 0.95119 0.43885 0.24665 0.0
H648 H 0.09352 0.51154 0.28232 0.0
H649 H 0.10931 0.56222 0.30001 0.0
H650 H 0.11018 0.55999 0.2649 0.0
H651 H 0.06893 0.61167 0.25962 0.0
H652 H 0.06783 0.61396 0.2947 0.0
H653 H 0.02395 0.59844 0.27332 0.0
H654 H 0.94939 0.44223 0.29481 0.0
H655 H 0.95773 0.45673 0.34253 0.0
H656 H 0.05923 0.56162 0.33411 0.0
C657 C 0.03812 0.52982 0.22701 0.0
C658 C 0.01309 0.5024 0.20736 0.0
C659 C 0.98186 0.46936 0.21477 0.0
C660 C 0.9753 0.46388 0.24117 0.0
C661 C 1.00027 0.49157 0.25999 0.0
C662 C 0.03116 0.52377 0.25336 0.0
C663 C 0.0533 0.54927 0.2776 0.0
C664 C 0.09399 0.54551 0.28143 0.0
C665 C 0.0535 0.59611 0.27622 0.0
C666 C 0.02977 0.52653 0.29878 0.0
C667 C 0.99936 0.49337 0.2881 0.0
C668 C 0.97317 0.46797 0.30348 0.0
C669 C 0.97819 0.47659 0.33059 0.0
C670 C 1.0092 0.51031 0.34215 0.0
C671 C 0.03534 0.53556 0.32593 0.0
loop_
_geom_bond_atom_site_label_1
_geom_bond_atom_site_label_2
_geom_bond_distance
_geom_bond_site_symmetry_2
_ccdc_geom_bond_type
Dy0 O3 2.307 1_455 S
Dy0 O5 2.395 . S
Dy0 O6 2.379 . S
Dy0 O8 2.339 . S
Dy0 O10 2.298 . S
Dy0 O14 2.275 . S
Dy0 C22 2.738 . S
Dy1 O4 2.298 . S
Dy1 O7 2.275 1_655 S
Dy1 O9 2.307 1_655 S
Dy1 O11 2.395 . S
Dy1 O12 2.379 . S
Dy1 O15 2.339 . S
Dy1 C31 2.738 . S
C2 O14 1.254 . S
C2 O15 1.257 1_455 S
O3 Dy0 2.307 1_655 S
O3 C13 1.266 . S
O4 Dy1 2.298 . S
O4 C13 1.236 . S
O5 Dy0 2.395 . S
O5 C22 1.255 . S
O6 Dy0 2.379 . S
O6 C22 1.249 . S
O7 Dy1 2.275 1_455 S
O7 C23 1.254 . S
O8 Dy0 2.339 . S
O8 C23 1.257 . S
O9 Dy1 2.307 1_455 S
O9 C24 1.266 . S
O10 Dy0 2.298 . S
O10 C24 1.236 . S
O11 Dy1 2.395 . S
O11 C31 1.255 . S
O12 Dy1 2.379 . S
O12 C31 1.249 . S
C13 O3 1.266 . S
C13 O4 1.236 . S
O14 Dy0 2.275 . S
O14 C2 1.254 . S
O15 Dy1 2.339 . S
O15 C2 1.257 1_655 S
C16 C19 1.344 . S
C16 C20 1.328 . S
C16 C22 1.516 . S
C17 C18 1.304 . S
C17 C21 1.323 . S
C18 C17 1.304 . S
C18 C19 1.371 . S
C18 H32 0.930 . S
C19 C16 1.344 . S
C19 C18 1.371 . S
C19 H33 0.931 . S
C20 C16 1.328 . S
C20 C21 1.433 . S
C20 H34 0.931 . S
C21 C17 1.323 . S
C21 C20 1.433 . S
C21 H35 0.933 . S
C22 Dy0 2.738 . S
C22 O5 1.255 . S
C22 O6 1.249 . S
C22 C16 1.516 . S
C23 O7 1.254 . S
C23 O8 1.257 . S
C24 O9 1.266 . S
C24 O10 1.236 . S
C25 C28 1.344 . S
C25 C29 1.328 . S
C25 C31 1.516 . S
C26 C27 1.304 . S
C26 C30 1.323 . S
C27 C26 1.304 . S
C27 C28 1.371 . S
C27 H36 0.930 . S
C28 C25 1.344 . S
C28 C27 1.371 . S
C28 H37 0.931 . S
C29 C25 1.328 . S
C29 C30 1.433 . S
C29 H38 0.931 . S
C30 C26 1.323 . S
C30 C29 1.433 . S
C30 H39 0.933 . S
C31 Dy1 2.738 . S
C31 O11 1.255 . S
C31 O12 1.249 . S
C31 C25 1.516 . S
H32 C18 0.930 . S
H33 C19 0.931 . S
H34 C20 0.931 . S
H35 C21 0.933 . S
H36 C27 0.930 . S
H37 C28 0.931 . S
H38 C29 0.931 . S
H39 C30 0.933 . S
Dy40 O43 2.307 . S
Dy40 O45 2.395 1_545 S
Dy40 O46 2.379 1_545 S
Dy40 O48 2.339 . S
Dy40 O50 2.298 1_545 S
Dy40 O54 2.275 . S
Dy40 C62 2.738 1_545 S
Dy41 O44 2.298 . S
Dy41 O47 2.275 . S
Dy41 O49 2.307 1_545 S
Dy41 O51 2.395 . S
Dy41 O52 2.379 . S
Dy41 O55 2.339 . S
Dy41 C71 2.738 . S
C42 O54 1.254 . S
C42 O55 1.257 . S
O43 Dy40 2.307 . S
O43 C53 1.266 . S
O44 Dy41 2.298 . S
O44 C53 1.236 . S
O45 Dy40 2.395 1_565 S
O45 C62 1.255 . S
O46 Dy40 2.379 1_565 S
O46 C62 1.249 . S
O47 Dy41 2.275 . S
O47 C63 1.254 . S
O48 Dy40 2.339 . S
O48 C63 1.257 . S
O49 Dy41 2.307 1_565 S
O49 C64 1.266 . S
O50 Dy40 2.298 1_565 S
O50 C64 1.236 . S
O51 Dy41 2.395 . S
O51 C71 1.255 . S
O52 Dy41 2.379 . S
O52 C71 1.249 . S
C53 O43 1.266 . S
C53 O44 1.236 . S
O54 Dy40 2.275 . S
O54 C42 1.254 . S
O55 Dy41 2.339 . S
O55 C42 1.257 . S
C56 C59 1.344 . S
C56 C60 1.328 . S
C56 C62 1.516 . S
C57 C58 1.304 . S
C57 C61 1.323 . S
C58 C57 1.304 . S
C58 C59 1.371 . S
C58 H72 0.930 . S
C59 C56 1.344 . S
C59 C58 1.371 . S
C59 H73 0.931 . S
C60 C56 1.328 . S
C60 C61 1.433 . S
C60 H74 0.931 . S
C61 C57 1.323 . S
C61 C60 1.433 . S
C61 H75 0.933 . S
C62 Dy40 2.738 1_565 S
C62 O45 1.255 . S
C62 O46 1.249 . S
C62 C56 1.516 . S
C63 O47 1.254 . S
C63 O48 1.257 . S
C64 O49 1.266 . S
C64 O50 1.236 . S
C65 C68 1.344 . S
C65 C69 1.328 . S
C65 C71 1.516 . S
C66 C67 1.304 . S
C66 C70 1.323 . S
C67 C66 1.304 . S
C67 C68 1.371 . S
C67 H76 0.930 . S
C68 C65 1.344 . S
C68 C67 1.371 . S
C68 H77 0.931 . S
C69 C65 1.328 . S
C69 C70 1.433 . S
C69 H78 0.931 . S
C70 C66 1.323 . S
C70 C69 1.433 . S
C70 H79 0.933 . S
C71 Dy41 2.738 . S
C71 O51 1.255 . S
C71 O52 1.249 . S
C71 C65 1.516 . S
H72 C58 0.930 . S
H73 C59 0.931 . S
H74 C60 0.931 . S
H75 C61 0.933 . S
H76 C67 0.930 . S
H77 C68 0.931 . S
H78 C69 0.931 . S
H79 C70 0.933 . S
Dy80 O83 2.307 . S
Dy80 O85 2.395 . S
Dy80 O86 2.379 . S
Dy80 O88 2.339 . S
Dy80 O90 2.298 . S
Dy80 O94 2.275 . S
Dy80 C102 2.738 . S
Dy81 O84 2.298 . S
Dy81 O87 2.275 . S
Dy81 O89 2.307 . S
Dy81 O91 2.395 . S
Dy81 O92 2.379 . S
Dy81 O95 2.339 . S
Dy81 C111 2.738 . S
C82 O94 1.254 . S
C82 O95 1.257 . S
O83 Dy80 2.307 . S
O83 C93 1.266 . S
O84 Dy81 2.298 . S
O84 C93 1.236 . S
O85 Dy80 2.395 . S
O85 C102 1.255 . S
O86 Dy80 2.379 . S
O86 C102 1.249 . S
O87 Dy81 2.275 . S
O87 C103 1.254 . S
O88 Dy80 2.339 . S
O88 C103 1.257 . S
O89 Dy81 2.307 . S
O89 C104 1.266 . S
O90 Dy80 2.298 . S
O90 C104 1.236 . S
O91 Dy81 2.395 . S
O91 C111 1.255 . S
O92 Dy81 2.379 . S
O92 C111 1.249 . S
C93 O83 1.266 . S
C93 O84 1.236 . S
O94 Dy80 2.275 . S
O94 C82 1.254 . S
O95 Dy81 2.339 . S
O95 C82 1.257 . S
C96 C99 1.344 . S
C96 C100 1.328 . S
C96 C102 1.516 . S
C97 C98 1.304 . S
C97 C101 1.323 . S
C98 C97 1.304 . S
C98 C99 1.371 . S
C98 H112 0.930 . S
C99 C96 1.344 . S
C99 C98 1.371 . S
C99 H113 0.931 . S
C100 C96 1.328 . S
C100 C101 1.433 . S
C100 H114 0.931 . S
C101 C97 1.323 . S
C101 C100 1.433 . S
C101 H115 0.933 . S
C102 Dy80 2.738 . S
C102 O85 1.255 . S
C102 O86 1.249 . S
C102 C96 1.516 . S
C103 O87 1.254 . S
C103 O88 1.257 . S
C104 O89 1.266 . S
C104 O90 1.236 . S
C105 C108 1.344 . S
C105 C109 1.328 . S
C105 C111 1.516 . S
C106 C107 1.304 . S
C106 C110 1.323 . S
C107 C106 1.304 . S
C107 C108 1.371 . S
C107 H116 0.930 . S
C108 C105 1.344 . S
C108 C107 1.371 . S
C108 H117 0.931 . S
C109 C105 1.328 . S
C109 C110 1.433 . S
C109 H118 0.931 . S
C110 C106 1.323 . S
C110 C109 1.433 . S
C110 H119 0.933 . S
C111 Dy81 2.738 . S
C111 O91 1.255 . S
C111 O92 1.249 . S
C111 C105 1.516 . S
H112 C98 0.930 . S
H113 C99 0.931 . S
H114 C100 0.931 . S
H115 C101 0.933 . S
H116 C107 0.930 . S
H117 C108 0.931 . S
H118 C109 0.931 . S
H119 C110 0.933 . S
O120 Cd121 2.300 . S
O120 C127 1.275 . S
Cd121 O120 2.300 . S
Cd121 O129 2.381 . S
Cd121 O130 2.378 . S
O122 Cd123 2.385 1_545 S
O122 C127 1.255 . S
Cd123 O122 2.385 1_565 S
Cd123 O124 2.317 . S
O124 Cd123 2.317 . S
O124 C125 1.232 . S
C125 O124 1.232 . S
C125 O126 1.218 . S
O126 C125 1.218 . S
C127 O120 1.275 . S
C127 O122 1.255 . S
C128 O129 1.258 . S
C128 O130 1.256 . S
O129 Cd121 2.381 . S
O129 C128 1.258 . S
O130 Cd121 2.378 . S
O130 C128 1.256 . S
O131 Cd132 2.300 . S
O131 C138 1.275 . S
Cd132 O131 2.300 . S
Cd132 O140 2.381 . S
Cd132 O141 2.378 . S
O133 Cd134 2.385 . S
O133 C138 1.255 . S
Cd134 O133 2.385 . S
Cd134 O135 2.317 . S
O135 Cd134 2.317 . S
O135 C136 1.232 . S
C136 O135 1.232 . S
C136 O137 1.218 . S
O137 C136 1.218 . S
C138 O131 1.275 . S
C138 O133 1.255 . S
C139 O140 1.258 . S
C139 O141 1.256 . S
O140 Cd132 2.381 . S
O140 C139 1.258 . S
O141 Cd132 2.378 . S
O141 C139 1.256 . S
O142 Cd143 2.300 . S
O142 C149 1.275 . S
Cd143 O142 2.300 . S
Cd143 O151 2.381 . S
Cd143 O152 2.378 . S
O144 Cd145 2.385 . S
O144 C149 1.255 1_655 S
Cd145 O144 2.385 . S
Cd145 O146 2.317 . S
O146 Cd145 2.317 . S
O146 C147 1.232 . S
C147 O146 1.232 . S
C147 O148 1.218 . S
O148 C147 1.218 . S
C149 O142 1.275 . S
C149 O144 1.255 1_455 S
C150 O151 1.258 . S
C150 O152 1.256 . S
O151 Cd143 2.381 . S
O151 C150 1.258 . S
O152 Cd143 2.378 . S
O152 C150 1.256 . S
O153 Cd154 2.300 . S
O153 C160 1.275 . S
Cd154 O153 2.300 . S
Cd154 O162 2.381 . S
Cd154 O163 2.378 . S
O155 Cd156 2.385 . S
O155 C160 1.255 1_655 S
Cd156 O155 2.385 . S
Cd156 O157 2.317 . S
O157 Cd156 2.317 . S
O157 C158 1.232 . S
C158 O157 1.232 . S
C158 O159 1.218 . S
O159 C158 1.218 . S
C160 O153 1.275 . S
C160 O155 1.255 1_455 S
C161 O162 1.258 . S
C161 O163 1.256 . S
O162 Cd154 2.381 . S
O162 C161 1.258 . S
O163 Cd154 2.378 . S
O163 C161 1.256 . S
O164 Cd165 2.300 . S
O164 C171 1.275 1_565 S
Cd165 O164 2.300 . S
Cd165 O173 2.381 . S
Cd165 O174 2.378 . S
O166 Cd167 2.385 . S
O166 C171 1.255 . S
Cd167 O166 2.385 . S
Cd167 O168 2.317 . S
O168 Cd167 2.317 . S
O168 C169 1.232 . S
C169 O168 1.232 . S
C169 O170 1.218 . S
O170 C169 1.218 . S
C171 O164 1.275 1_545 S
C171 O166 1.255 . S
C172 O173 1.258 . S
C172 O174 1.256 . S
O173 Cd165 2.381 . S
O173 C172 1.258 . S
O174 Cd165 2.378 . S
O174 C172 1.256 . S
O175 Cd176 2.300 . S
O175 C182 1.275 . S
Cd176 O175 2.300 . S
Cd176 O184 2.381 . S
Cd176 O185 2.378 . S
O177 Cd178 2.385 . S
O177 C182 1.255 . S
Cd178 O177 2.385 . S
Cd178 O179 2.317 . S
O179 Cd178 2.317 . S
O179 C180 1.232 . S
C180 O179 1.232 . S
C180 O181 1.218 . S
O181 C180 1.218 . S
C182 O175 1.275 . S
C182 O177 1.255 . S
C183 O184 1.258 . S
C183 O185 1.256 . S
O184 Cd176 2.381 . S
O184 C183 1.258 . S
O185 Cd176 2.378 . S
O185 C183 1.256 . S
H186 C198 0.930 . S
H187 C200 0.930 . S
H188 C201 0.930 . S
H189 C205 0.959 . S
H190 C205 0.959 . S
H191 C205 0.961 . S
H192 C206 0.960 . S
H193 C206 0.961 . S
H194 C206 0.959 . S
H195 C209 0.929 . S
H196 C210 0.931 . S
H197 C212 0.930 . S
C198 H186 0.930 . S
C198 C199 1.399 . S
C198 C203 1.399 . S
C199 C198 1.399 . S
C199 C200 1.376 . S
C200 H187 0.930 . S
C200 C199 1.376 . S
C200 C201 1.388 . S
C201 H188 0.930 . S
C201 C200 1.388 . S
C201 C202 1.390 . S
C202 C201 1.390 . S
C202 C203 1.394 . S
C202 C208 1.465 . S
C203 C198 1.399 . S
C203 C202 1.394 . S
C203 C204 1.516 . S
C204 C203 1.516 . S
C204 C205 1.502 . S
C204 C206 1.561 . S
C204 C207 1.526 . S
C205 H189 0.959 . S
C205 H190 0.959 . S
C205 H191 0.961 . S
C205 C204 1.502 . S
C206 H192 0.960 . S
C206 H193 0.961 . S
C206 H194 0.959 . S
C206 C204 1.561 . S
C207 C204 1.526 . S
C207 C208 1.396 . S
C207 C212 1.390 . S
C208 C202 1.465 . S
C208 C207 1.396 . S
C208 C209 1.399 . S
C209 H195 0.929 . S
C209 C208 1.399 . S
C209 C210 1.385 . S
C210 H196 0.931 . S
C210 C209 1.385 . S
C210 C211 1.389 . S
C211 C210 1.389 . S
C211 C212 1.387 . S
C212 H197 0.930 . S
C212 C207 1.390 . S
C212 C211 1.387 . S
H213 C225 0.930 . S
H214 C227 0.930 . S
H215 C228 0.930 . S
H216 C232 0.959 . S
H217 C232 0.959 . S
H218 C232 0.961 . S
H219 C233 0.960 . S
H220 C233 0.961 . S
H221 C233 0.959 . S
H222 C236 0.929 . S
H223 C237 0.931 . S
H224 C239 0.930 . S
C225 H213 0.930 . S
C225 C226 1.399 . S
C225 C230 1.399 . S
C226 C225 1.399 . S
C226 C227 1.376 . S
C227 H214 0.930 . S
C227 C226 1.376 . S
C227 C228 1.388 . S
C228 H215 0.930 . S
C228 C227 1.388 . S
C228 C229 1.390 . S
C229 C228 1.390 . S
C229 C230 1.394 . S
C229 C235 1.465 . S
C230 C225 1.399 . S
C230 C229 1.394 . S
C230 C231 1.516 . S
C231 C230 1.516 . S
C231 C232 1.502 . S
C231 C233 1.561 . S
C231 C234 1.526 . S
C232 H216 0.959 . S
C232 H217 0.959 . S
C232 H218 0.961 . S
C232 C231 1.502 . S
C233 H219 0.960 . S
C233 H220 0.961 . S
C233 H221 0.959 . S
C233 C231 1.561 . S
C234 C231 1.526 . S
C234 C235 1.396 . S
C234 C239 1.390 . S
C235 C229 1.465 . S
C235 C234 1.396 . S
C235 C236 1.399 . S
C236 H222 0.929 . S
C236 C235 1.399 . S
C236 C237 1.385 . S
C237 H223 0.931 . S
C237 C236 1.385 . S
C237 C238 1.389 . S
C238 C237 1.389 . S
C238 C239 1.387 . S
C239 H224 0.930 . S
C239 C234 1.390 . S
C239 C238 1.387 . S
H240 C252 0.930 . S
H241 C254 0.930 . S
H242 C255 0.930 . S
H243 C259 0.959 . S
H244 C259 0.959 . S
H245 C259 0.961 . S
H246 C260 0.960 . S
H247 C260 0.961 . S
H248 C260 0.959 . S
H249 C263 0.929 . S
H250 C264 0.931 . S
H251 C266 0.930 . S
C252 H240 0.930 . S
C252 C253 1.399 . S
C252 C257 1.399 . S
C253 C252 1.399 . S
C253 C254 1.376 . S
C254 H241 0.930 . S
C254 C253 1.376 . S
C254 C255 1.388 . S
C255 H242 0.930 . S
C255 C254 1.388 . S
C255 C256 1.390 . S
C256 C255 1.390 . S
C256 C257 1.394 . S
C256 C262 1.465 . S
C257 C252 1.399 . S
C257 C256 1.394 . S
C257 C258 1.516 . S
C258 C257 1.516 . S
C258 C259 1.502 . S
C258 C260 1.561 . S
C258 C261 1.526 . S
C259 H243 0.959 . S
C259 H244 0.959 . S
C259 H245 0.961 . S
C259 C258 1.502 . S
C260 H246 0.960 . S
C260 H247 0.961 . S
C260 H248 0.959 . S
C260 C258 1.561 . S
C261 C258 1.526 . S
C261 C262 1.396 . S
C261 C266 1.390 . S
C262 C256 1.465 . S
C262 C261 1.396 . S
C262 C263 1.399 . S
C263 H249 0.929 . S
C263 C262 1.399 . S
C263 C264 1.385 . S
C264 H250 0.931 . S
C264 C263 1.385 . S
C264 C265 1.389 . S
C265 C264 1.389 . S
C265 C266 1.387 . S
C266 H251 0.930 . S
C266 C261 1.390 . S
C266 C265 1.387 . S
H267 C279 0.930 . S
H268 C281 0.930 . S
H269 C282 0.930 . S
H270 C286 0.959 . S
H271 C286 0.959 . S
H272 C286 0.961 . S
H273 C287 0.960 . S
H274 C287 0.961 . S
H275 C287 0.959 . S
H276 C290 0.929 . S
H277 C291 0.931 . S
H278 C293 0.930 . S
C279 H267 0.930 . S
C279 C280 1.399 . S
C279 C284 1.399 . S
C280 C279 1.399 . S
C280 C281 1.376 . S
C281 H268 0.930 . S
C281 C280 1.376 . S
C281 C282 1.388 . S
C282 H269 0.930 . S
C282 C281 1.388 . S
C282 C283 1.390 . S
C283 C282 1.390 . S
C283 C284 1.394 . S
C283 C289 1.465 . S
C284 C279 1.399 . S
C284 C283 1.394 . S
C284 C285 1.516 . S
C285 C284 1.516 . S
C285 C286 1.502 . S
C285 C287 1.561 . S
C285 C288 1.526 . S
C286 H270 0.959 . S
C286 H271 0.959 . S
C286 H272 0.961 . S
C286 C285 1.502 . S
C287 H273 0.960 . S
C287 H274 0.961 . S
C287 H275 0.959 . S
C287 C285 1.561 . S
C288 C285 1.526 . S
C288 C289 1.396 . S
C288 C293 1.390 . S
C289 C283 1.465 . S
C289 C288 1.396 . S
C289 C290 1.399 . S
C290 H276 0.929 . S
C290 C289 1.399 . S
C290 C291 1.385 . S
C291 H277 0.931 . S
C291 C290 1.385 . S
C291 C292 1.389 . S
C292 C291 1.389 . S
C292 C293 1.387 . S
C293 H278 0.930 . S
C293 C288 1.390 . S
C293 C292 1.387 . S
H294 C306 0.930 . S
H295 C308 0.930 . S
H296 C309 0.930 . S
H297 C313 0.959 . S
H298 C313 0.959 . S
H299 C313 0.961 . S
H300 C314 0.960 . S
H301 C314 0.961 . S
H302 C314 0.959 . S
H303 C317 0.929 . S
H304 C318 0.931 . S
H305 C320 0.930 . S
C306 H294 0.930 . S
C306 C307 1.399 . S
C306 C311 1.399 . S
C307 C306 1.399 . S
C307 C308 1.376 . S
C308 H295 0.930 . S
C308 C307 1.376 . S
C308 C309 1.388 . S
C309 H296 0.930 . S
C309 C308 1.388 . S
C309 C310 1.390 . S
C310 C309 1.390 . S
C310 C311 1.394 . S
C310 C316 1.465 . S
C311 C306 1.399 . S
C311 C310 1.394 . S
C311 C312 1.516 . S
C312 C311 1.516 . S
C312 C313 1.502 . S
C312 C314 1.561 . S
C312 C315 1.526 . S
C313 H297 0.959 . S
C313 H298 0.959 . S
C313 H299 0.961 . S
C313 C312 1.502 . S
C314 H300 0.960 . S
C314 H301 0.961 . S
C314 H302 0.959 . S
C314 C312 1.561 . S
C315 C312 1.526 . S
C315 C316 1.396 . S
C315 C320 1.390 . S
C316 C310 1.465 . S
C316 C315 1.396 . S
C316 C317 1.399 . S
C317 H303 0.929 . S
C317 C316 1.399 . S
C317 C318 1.385 . S
C318 H304 0.931 . S
C318 C317 1.385 . S
C318 C319 1.389 . S
C319 C318 1.389 . S
C319 C320 1.387 . S
C320 H305 0.930 . S
C320 C315 1.390 . S
C320 C319 1.387 . S
H321 C333 0.930 . S
H322 C335 0.930 . S
H323 C336 0.930 . S
H324 C340 0.959 . S
H325 C340 0.959 . S
H326 C340 0.961 . S
H327 C341 0.960 . S
H328 C341 0.961 . S
H329 C341 0.959 . S
H330 C344 0.929 . S
H331 C345 0.931 . S
H332 C347 0.930 . S
C333 H321 0.930 . S
C333 C334 1.399 . S
C333 C338 1.399 . S
C334 C333 1.399 . S
C334 C335 1.376 . S
C335 H322 0.930 . S
C335 C334 1.376 . S
C335 C336 1.388 . S
C336 H323 0.930 . S
C336 C335 1.388 . S
C336 C337 1.390 . S
C337 C336 1.390 . S
C337 C338 1.394 . S
C337 C343 1.465 . S
C338 C333 1.399 . S
C338 C337 1.394 . S
C338 C339 1.516 . S
C339 C338 1.516 . S
C339 C340 1.502 . S
C339 C341 1.561 . S
C339 C342 1.526 . S
C340 H324 0.959 . S
C340 H325 0.959 . S
C340 H326 0.961 . S
C340 C339 1.502 . S
C341 H327 0.960 . S
C341 H328 0.961 . S
C341 H329 0.959 . S
C341 C339 1.561 . S
C342 C339 1.526 . S
C342 C343 1.396 . S
C342 C347 1.390 . S
C343 C337 1.465 . S
C343 C342 1.396 . S
C343 C344 1.399 . S
C344 H330 0.929 . S
C344 C343 1.399 . S
C344 C345 1.385 . S
C345 H331 0.931 . S
C345 C344 1.385 . S
C345 C346 1.389 . S
C346 C345 1.389 . S
C346 C347 1.387 . S
C347 H332 0.930 . S
C347 C342 1.390 . S
C347 C346 1.387 . S
H348 C360 0.930 . S
H349 C362 0.930 . S
H350 C363 0.930 . S
H351 C367 0.959 . S
H352 C367 0.959 . S
H353 C367 0.961 . S
H354 C368 0.960 . S
H355 C368 0.961 . S
H356 C368 0.959 . S
H357 C371 0.929 . S
H358 C372 0.931 . S
H359 C374 0.930 . S
C360 H348 0.930 . S
C360 C361 1.399 . S
C360 C365 1.399 . S
C361 C360 1.399 . S
C361 C362 1.376 . S
C362 H349 0.930 . S
C362 C361 1.376 . S
C362 C363 1.388 . S
C363 H350 0.930 . S
C363 C362 1.388 . S
C363 C364 1.390 . S
C364 C363 1.390 . S
C364 C365 1.394 . S
C364 C370 1.465 . S
C365 C360 1.399 . S
C365 C364 1.394 . S
C365 C366 1.516 . S
C366 C365 1.516 . S
C366 C367 1.502 . S
C366 C368 1.561 . S
C366 C369 1.526 . S
C367 H351 0.959 . S
C367 H352 0.959 . S
C367 H353 0.961 . S
C367 C366 1.502 . S
C368 H354 0.960 . S
C368 H355 0.961 . S
C368 H356 0.959 . S
C368 C366 1.561 . S
C369 C366 1.526 . S
C369 C370 1.396 . S
C369 C374 1.390 . S
C370 C364 1.465 . S
C370 C369 1.396 . S
C370 C371 1.399 . S
C371 H357 0.929 . S
C371 C370 1.399 . S
C371 C372 1.385 . S
C372 H358 0.931 . S
C372 C371 1.385 . S
C372 C373 1.389 . S
C373 C372 1.389 . S
C373 C374 1.387 . S
C374 H359 0.930 . S
C374 C369 1.390 . S
C374 C373 1.387 . S
H375 C387 0.930 . S
H376 C389 0.930 . S
H377 C390 0.930 . S
H378 C394 0.959 . S
H379 C394 0.959 . S
H380 C394 0.961 . S
H381 C395 0.960 . S
H382 C395 0.961 . S
H383 C395 0.959 . S
H384 C398 0.929 . S
H385 C399 0.931 . S
H386 C401 0.930 . S
C387 H375 0.930 . S
C387 C388 1.399 . S
C387 C392 1.399 . S
C388 C387 1.399 . S
C388 C389 1.376 . S
C389 H376 0.930 . S
C389 C388 1.376 . S
C389 C390 1.388 . S
C390 H377 0.930 . S
C390 C389 1.388 . S
C390 C391 1.390 . S
C391 C390 1.390 . S
C391 C392 1.394 . S
C391 C397 1.465 . S
C392 C387 1.399 . S
C392 C391 1.394 . S
C392 C393 1.516 . S
C393 C392 1.516 . S
C393 C394 1.502 . S
C393 C395 1.561 . S
C393 C396 1.526 . S
C394 H378 0.959 . S
C394 H379 0.959 . S
C394 H380 0.961 . S
C394 C393 1.502 . S
C395 H381 0.960 . S
C395 H382 0.961 . S
C395 H383 0.959 . S
C395 C393 1.561 . S
C396 C393 1.526 . S
C396 C397 1.396 . S
C396 C401 1.390 . S
C397 C391 1.465 . S
C397 C396 1.396 . S
C397 C398 1.399 . S
C398 H384 0.929 . S
C398 C397 1.399 . S
C398 C399 1.385 . S
C399 H385 0.931 . S
C399 C398 1.385 . S
C399 C400 1.389 . S
C400 C399 1.389 . S
C400 C401 1.387 . S
C401 H386 0.930 . S
C401 C396 1.390 . S
C401 C400 1.387 . S
H402 C414 0.930 . S
H403 C416 0.930 . S
H404 C417 0.930 . S
H405 C421 0.959 . S
H406 C421 0.959 . S
H407 C421 0.961 . S
H408 C422 0.960 . S
H409 C422 0.961 . S
H410 C422 0.959 . S
H411 C425 0.929 . S
H412 C426 0.931 . S
H413 C428 0.930 . S
C414 H402 0.930 . S
C414 C415 1.399 . S
C414 C419 1.399 . S
C415 C414 1.399 . S
C415 C416 1.376 . S
C416 H403 0.930 . S
C416 C415 1.376 . S
C416 C417 1.388 . S
C417 H404 0.930 . S
C417 C416 1.388 . S
C417 C418 1.390 . S
C418 C417 1.390 . S
C418 C419 1.394 . S
C418 C424 1.465 . S
C419 C414 1.399 . S
C419 C418 1.394 . S
C419 C420 1.516 . S
C420 C419 1.516 . S
C420 C421 1.502 . S
C420 C422 1.561 . S
C420 C423 1.526 . S
C421 H405 0.959 . S
C421 H406 0.959 . S
C421 H407 0.961 . S
C421 C420 1.502 . S
C422 H408 0.960 . S
C422 H409 0.961 . S
C422 H410 0.959 . S
C422 C420 1.561 . S
C423 C420 1.526 . S
C423 C424 1.396 . S
C423 C428 1.390 . S
C424 C418 1.465 . S
C424 C423 1.396 . S
C424 C425 1.399 . S
C425 H411 0.929 . S
C425 C424 1.399 . S
C425 C426 1.385 . S
C426 H412 0.931 . S
C426 C425 1.385 . S
C426 C427 1.389 . S
C427 C426 1.389 . S
C427 C428 1.387 . S
C428 H413 0.930 . S
C428 C423 1.390 . S
C428 C427 1.387 . S
H429 C441 0.930 . S
H430 C443 0.930 . S
H431 C444 0.930 . S
H432 C448 0.959 . S
H433 C448 0.959 . S
H434 C448 0.961 . S
H435 C449 0.960 . S
H436 C449 0.961 . S
H437 C449 0.959 . S
H438 C452 0.929 . S
H439 C453 0.931 . S
H440 C455 0.930 . S
C441 H429 0.930 . S
C441 C442 1.399 . S
C441 C446 1.399 . S
C442 C441 1.399 . S
C442 C443 1.376 . S
C443 H430 0.930 . S
C443 C442 1.376 . S
C443 C444 1.388 . S
C444 H431 0.930 . S
C444 C443 1.388 . S
C444 C445 1.390 . S
C445 C444 1.390 . S
C445 C446 1.394 . S
C445 C451 1.465 . S
C446 C441 1.399 . S
C446 C445 1.394 . S
C446 C447 1.516 . S
C447 C446 1.516 . S
C447 C448 1.502 . S
C447 C449 1.561 . S
C447 C450 1.526 . S
C448 H432 0.959 . S
C448 H433 0.959 . S
C448 H434 0.961 . S
C448 C447 1.502 . S
C449 H435 0.960 . S
C449 H436 0.961 . S
C449 H437 0.959 . S
C449 C447 1.561 . S
C450 C447 1.526 . S
C450 C451 1.396 . S
C450 C455 1.390 . S
C451 C445 1.465 . S
C451 C450 1.396 . S
C451 C452 1.399 . S
C452 H438 0.929 . S
C452 C451 1.399 . S
C452 C453 1.385 . S
C453 H439 0.931 . S
C453 C452 1.385 . S
C453 C454 1.389 . S
C454 C453 1.389 . S
C454 C455 1.387 . S
C455 H440 0.930 . S
C455 C450 1.390 . S
C455 C454 1.387 . S
H456 C468 0.930 . S
H457 C470 0.930 . S
H458 C471 0.930 . S
H459 C475 0.959 . S
H460 C475 0.959 . S
H461 C475 0.961 . S
H462 C476 0.960 . S
H463 C476 0.961 . S
H464 C476 0.959 . S
H465 C479 0.929 . S
H466 C480 0.931 . S
H467 C482 0.930 . S
C468 H456 0.930 . S
C468 C469 1.399 . S
C468 C473 1.399 . S
C469 C468 1.399 . S
C469 C470 1.376 . S
C470 H457 0.930 . S
C470 C469 1.376 . S
C470 C471 1.388 . S
C471 H458 0.930 . S
C471 C470 1.388 . S
C471 C472 1.390 . S
C472 C471 1.390 . S
C472 C473 1.394 . S
C472 C478 1.465 . S
C473 C468 1.399 . S
C473 C472 1.394 . S
C473 C474 1.516 . S
C474 C473 1.516 . S
C474 C475 1.502 . S
C474 C476 1.561 . S
C474 C477 1.526 . S
C475 H459 0.959 . S
C475 H460 0.959 . S
C475 H461 0.961 . S
C475 C474 1.502 . S
C476 H462 0.960 . S
C476 H463 0.961 . S
C476 H464 0.959 . S
C476 C474 1.561 . S
C477 C474 1.526 . S
C477 C478 1.396 . S
C477 C482 1.390 . S
C478 C472 1.465 . S
C478 C477 1.396 . S
C478 C479 1.399 . S
C479 H465 0.929 . S
C479 C478 1.399 . S
C479 C480 1.385 . S
C480 H466 0.931 . S
C480 C479 1.385 . S
C480 C481 1.389 . S
C481 C480 1.389 . S
C481 C482 1.387 . S
C482 H467 0.930 . S
C482 C477 1.390 . S
C482 C481 1.387 . S
H483 C495 0.930 . S
H484 C497 0.930 . S
H485 C498 0.930 . S
H486 C502 0.959 . S
H487 C502 0.959 . S
H488 C502 0.961 . S
H489 C503 0.960 . S
H490 C503 0.961 . S
H491 C503 0.959 . S
H492 C506 0.929 . S
H493 C507 0.931 . S
H494 C509 0.930 . S
C495 H483 0.930 . S
C495 C496 1.399 . S
C495 C500 1.399 . S
C496 C495 1.399 . S
C496 C497 1.376 . S
C497 H484 0.930 . S
C497 C496 1.376 . S
C497 C498 1.388 . S
C498 H485 0.930 . S
C498 C497 1.388 . S
C498 C499 1.390 . S
C499 C498 1.390 . S
C499 C500 1.394 . S
C499 C505 1.465 . S
C500 C495 1.399 . S
C500 C499 1.394 . S
C500 C501 1.516 . S
C501 C500 1.516 . S
C501 C502 1.502 . S
C501 C503 1.561 . S
C501 C504 1.526 . S
C502 H486 0.959 . S
C502 H487 0.959 . S
C502 H488 0.961 . S
C502 C501 1.502 . S
C503 H489 0.960 . S
C503 H490 0.961 . S
C503 H491 0.959 . S
C503 C501 1.561 . S
C504 C501 1.526 . S
C504 C505 1.396 . S
C504 C509 1.390 . S
C505 C499 1.465 . S
C505 C504 1.396 . S
C505 C506 1.399 . S
C506 H492 0.929 . S
C506 C505 1.399 . S
C506 C507 1.385 . S
C507 H493 0.931 . S
C507 C506 1.385 . S
C507 C508 1.389 . S
C508 C507 1.389 . S
C508 C509 1.387 . S
C509 H494 0.930 . S
C509 C504 1.390 . S
C509 C508 1.387 . S
H510 C522 0.930 . S
H511 C524 0.930 . S
H512 C525 0.930 . S
H513 C529 0.959 . S
H514 C529 0.959 . S
H515 C529 0.961 . S
H516 C530 0.960 . S
H517 C530 0.961 . S
H518 C530 0.959 . S
H519 C533 0.929 . S
H520 C534 0.931 . S
H521 C536 0.930 . S
C522 H510 0.930 . S
C522 C523 1.399 . S
C522 C527 1.399 . S
C523 C522 1.399 . S
C523 C524 1.376 . S
C524 H511 0.930 . S
C524 C523 1.376 . S
C524 C525 1.388 . S
C525 H512 0.930 . S
C525 C524 1.388 . S
C525 C526 1.390 . S
C526 C525 1.390 . S
C526 C527 1.394 . S
C526 C532 1.465 . S
C527 C522 1.399 . S
C527 C526 1.394 . S
C527 C528 1.516 . S
C528 C527 1.516 . S
C528 C529 1.502 1_455 S
C528 C530 1.561 . S
C528 C531 1.526 . S
C529 H513 0.959 . S
C529 H514 0.959 . S
C529 H515 0.961 . S
C529 C528 1.502 1_655 S
C530 H516 0.960 . S
C530 H517 0.961 . S
C530 H518 0.959 . S
C530 C528 1.561 . S
C531 C528 1.526 . S
C531 C532 1.396 . S
C531 C536 1.390 1_554 S
C532 C526 1.465 . S
C532 C531 1.396 . S
C532 C533 1.399 1_554 S
C533 H519 0.929 . S
C533 C532 1.399 1_556 S
C533 C534 1.385 . S
C534 H520 0.931 . S
C534 C533 1.385 . S
C534 C535 1.389 . S
C535 C534 1.389 . S
C535 C536 1.387 . S
C536 H521 0.930 . S
C536 C531 1.390 1_556 S
C536 C535 1.387 . S
H537 C549 0.930 . S
H538 C551 0.930 . S
H539 C552 0.930 . S
H540 C556 0.959 . S
H541 C556 0.959 . S
H542 C556 0.961 . S
H543 C557 0.960 . S
H544 C557 0.961 . S
H545 C557 0.959 . S
H546 C560 0.929 . S
H547 C561 0.931 1_565 S
H548 C563 0.930 . S
C549 H537 0.930 . S
C549 C550 1.399 . S
C549 C554 1.399 . S
C550 C549 1.399 . S
C550 C551 1.376 1_545 S
C551 H538 0.930 . S
C551 C550 1.376 1_565 S
C551 C552 1.388 . S
C552 H539 0.930 . S
C552 C551 1.388 . S
C552 C553 1.390 1_565 S
C553 C552 1.390 1_545 S
C553 C554 1.394 . S
C553 C559 1.465 . S
C554 C549 1.399 . S
C554 C553 1.394 . S
C554 C555 1.516 . S
C555 C554 1.516 . S
C555 C556 1.502 . S
C555 C557 1.561 . S
C555 C558 1.526 . S
C556 H540 0.959 . S
C556 H541 0.959 . S
C556 H542 0.961 . S
C556 C555 1.502 . S
C557 H543 0.960 . S
C557 H544 0.961 . S
C557 H545 0.959 . S
C557 C555 1.561 . S
C558 C555 1.526 . S
C558 C559 1.396 . S
C558 C563 1.390 . S
C559 C553 1.465 . S
C559 C558 1.396 . S
C559 C560 1.399 1_545 S
C560 H546 0.929 . S
C560 C559 1.399 1_565 S
C560 C561 1.385 1_565 S
C561 H547 0.931 1_545 S
C561 C560 1.385 1_545 S
C561 C562 1.389 . S
C562 C561 1.389 . S
C562 C563 1.387 . S
C563 H548 0.930 . S
C563 C558 1.390 . S
C563 C562 1.387 . S
H564 C576 0.930 . S
H565 C578 0.930 . S
H566 C579 0.930 . S
H567 C583 0.959 . S
H568 C583 0.959 . S
H569 C583 0.961 . S
H570 C584 0.960 . S
H571 C584 0.961 . S
H572 C584 0.959 . S
H573 C587 0.929 . S
H574 C588 0.931 . S
H575 C590 0.930 . S
C576 H564 0.930 . S
C576 C577 1.399 . S
C576 C581 1.399 . S
C577 C576 1.399 . S
C577 C578 1.376 . S
C578 H565 0.930 . S
C578 C577 1.376 . S
C578 C579 1.388 . S
C579 H566 0.930 . S
C579 C578 1.388 . S
C579 C580 1.390 . S
C580 C579 1.390 . S
C580 C581 1.394 . S
C580 C586 1.465 . S
C581 C576 1.399 . S
C581 C580 1.394 . S
C581 C582 1.516 . S
C582 C581 1.516 . S
C582 C583 1.502 . S
C582 C584 1.561 . S
C582 C585 1.526 . S
C583 H567 0.959 . S
C583 H568 0.959 . S
C583 H569 0.961 . S
C583 C582 1.502 . S
C584 H570 0.960 . S
C584 H571 0.961 . S
C584 H572 0.959 . S
C584 C582 1.561 . S
C585 C582 1.526 . S
C585 C586 1.396 . S
C585 C590 1.390 . S
C586 C580 1.465 . S
C586 C585 1.396 . S
C586 C587 1.399 . S
C587 H573 0.929 . S
C587 C586 1.399 . S
C587 C588 1.385 . S
C588 H574 0.931 . S
C588 C587 1.385 . S
C588 C589 1.389 . S
C589 C588 1.389 . S
C589 C590 1.387 . S
C590 H575 0.930 . S
C590 C585 1.390 . S
C590 C589 1.387 . S
H591 C603 0.930 . S
H592 C605 0.930 . S
H593 C606 0.930 . S
H594 C610 0.959 . S
H595 C610 0.959 . S
H596 C610 0.961 . S
H597 C611 0.960 . S
H598 C611 0.961 . S
H599 C611 0.959 . S
H600 C614 0.929 . S
H601 C615 0.931 . S
H602 C617 0.930 . S
C603 H591 0.930 . S
C603 C604 1.399 1_565 S
C603 C608 1.399 . S
C604 C603 1.399 1_545 S
C604 C605 1.376 . S
C605 H592 0.930 . S
C605 C604 1.376 . S
C605 C606 1.388 . S
C606 H593 0.930 . S
C606 C605 1.388 . S
C606 C607 1.390 . S
C607 C606 1.390 . S
C607 C608 1.394 1_545 S
C607 C613 1.465 . S
C608 C603 1.399 . S
C608 C607 1.394 1_565 S
C608 C609 1.516 . S
C609 C608 1.516 . S
C609 C610 1.502 . S
C609 C611 1.561 . S
C609 C612 1.526 . S
C610 H594 0.959 . S
C610 H595 0.959 . S
C610 H596 0.961 . S
C610 C609 1.502 . S
C611 H597 0.960 . S
C611 H598 0.961 . S
C611 H599 0.959 . S
C611 C609 1.561 . S
C612 C609 1.526 . S
C612 C613 1.396 1_565 S
C612 C617 1.390 . S
C613 C607 1.465 . S
C613 C612 1.396 1_545 S
C613 C614 1.399 . S
C614 H600 0.929 . S
C614 C613 1.399 . S
C614 C615 1.385 . S
C615 H601 0.931 . S
C615 C614 1.385 . S
C615 C616 1.389 . S
C616 C615 1.389 . S
C616 C617 1.387 1_545 S
C617 H602 0.930 . S
C617 C612 1.390 . S
C617 C616 1.387 1_565 S
H618 C630 0.930 . S
H619 C632 0.930 . S
H620 C633 0.930 . S
H621 C637 0.959 . S
H622 C637 0.959 . S
H623 C637 0.961 . S
H624 C638 0.960 . S
H625 C638 0.961 . S
H626 C638 0.959 . S
H627 C641 0.929 . S
H628 C642 0.931 . S
H629 C644 0.930 . S
C630 H618 0.930 . S
C630 C631 1.399 . S
C630 C635 1.399 . S
C631 C630 1.399 . S
C631 C632 1.376 . S
C632 H619 0.930 . S
C632 C631 1.376 . S
C632 C633 1.388 . S
C633 H620 0.930 . S
C633 C632 1.388 . S
C633 C634 1.390 . S
C634 C633 1.390 . S
C634 C635 1.394 . S
C634 C640 1.465 . S
C635 C630 1.399 . S
C635 C634 1.394 . S
C635 C636 1.516 . S
C636 C635 1.516 . S
C636 C637 1.502 . S
C636 C638 1.561 . S
C636 C639 1.526 1_556 S
C637 H621 0.959 . S
C637 H622 0.959 . S
C637 H623 0.961 . S
C637 C636 1.502 . S
C638 H624 0.960 . S
C638 H625 0.961 . S
C638 H626 0.959 . S
C638 C636 1.561 . S
C639 C636 1.526 1_554 S
C639 C640 1.396 1_554 S
C639 C644 1.390 . S
C640 C634 1.465 . S
C640 C639 1.396 1_556 S
C640 C641 1.399 1_556 S
C641 H627 0.929 . S
C641 C640 1.399 1_554 S
C641 C642 1.385 . S
C642 H628 0.931 . S
C642 C641 1.385 . S
C642 C643 1.389 . S
C643 C642 1.389 . S
C643 C644 1.387 . S
C644 H629 0.930 . S
C644 C639 1.390 . S
C644 C643 1.387 . S
H645 C657 0.930 . S
H646 C659 0.930 . S
H647 C660 0.930 . S
H648 C664 0.959 . S
H649 C664 0.959 . S
H650 C664 0.961 . S
H651 C665 0.960 . S
H652 C665 0.961 . S
H653 C665 0.959 . S
H654 C668 0.929 . S
H655 C669 0.931 . S
H656 C671 0.930 . S
C657 H645 0.930 . S
C657 C658 1.399 . S
C657 C662 1.399 . S
C658 C657 1.399 . S
C658 C659 1.376 1_455 S
C659 H646 0.930 . S
C659 C658 1.376 1_655 S
C659 C660 1.388 . S
C660 H647 0.930 . S
C660 C659 1.388 . S
C660 C661 1.390 . S
C661 C660 1.390 . S
C661 C662 1.394 1_655 S
C661 C667 1.465 . S
C662 C657 1.399 . S
C662 C661 1.394 1_455 S
C662 C663 1.516 . S
C663 C662 1.516 . S
C663 C664 1.502 . S
C663 C665 1.561 . S
C663 C666 1.526 . S
C664 H648 0.959 . S
C664 H649 0.959 . S
C664 H650 0.961 . S
C664 C663 1.502 . S
C665 H651 0.960 . S
C665 H652 0.961 . S
C665 H653 0.959 . S
C665 C663 1.561 . S
C666 C663 1.526 . S
C666 C667 1.396 1_455 S
C666 C671 1.390 . S
C667 C661 1.465 . S
C667 C666 1.396 1_655 S
C667 C668 1.399 . S
C668 H654 0.929 . S
C668 C667 1.399 . S
C668 C669 1.385 . S
C669 H655 0.931 . S
C669 C668 1.385 . S
C669 C670 1.389 . S
C670 C669 1.389 . S
C670 C671 1.387 1_655 S
C671 H656 0.930 . S
C671 C666 1.390 . S
C671 C670 1.387 1_455 S
C199 C24 3.138 . S
C211 C180 2.860 . S
C226 C66 1.229 . S
C238 C158 1.073 . S
C253 C93 1.683 . S
C265 C172 1.631 . S
C280 C13 2.946 . S
C292 C183 2.851 . S
C319 C161 0.991 . S
C307 C57 1.030 . S
C346 C169 1.715 . S
C334 C104 2.082 . S
C361 C64 2.062 . S
C373 C136 1.751 . S
C388 C97 0.563 . S
C400 C147 0.873 . S
C415 C17 1.386 . S
C427 C125 1.228 . S
C454 C139 1.659 . S
C442 C53 1.688 . S
C481 C150 0.206 . S
C469 C106 0.384 . S
C496 C26 1.071 . S
C508 C128 0.995 . S
C535 C149 1.109 . S
C523 C2 1.175 . S
C550 C63 1.472 . S
C562 C127 1.428 . S
C577 C82 1.461 . S
C589 C138 1.352 . S
C616 C171 1.399 . S
C604 C42 1.426 . S
C643 C182 1.694 . S
C631 C103 1.734 . S
C658 C23 1.542 . S
C670 C160 1.504 1_655 S
