# Generated by pormake.
# Topology gar, (4,6)-cn, num edge types: 1
# Building blocks:
#     Node 0, Type 0, BuildingBlock: AZAVOO_clean_sbu_0, # of connection points: 4
#     Node 1, Type 0, BuildingBlock: AZAVOO_clean_sbu_0, # of connection points: 4
#     Node 2, Type 0, BuildingBlock: AZAVOO_clean_sbu_0, # of connection points: 4
#     Node 3, Type 0, BuildingBlock: AZAVOO_clean_sbu_0, # of connection points: 4
#     Node 4, Type 0, BuildingBlock: AZAVOO_clean_sbu_0, # of connection points: 4
#     Node 5, Type 0, BuildingBlock: AZAVOO_clean_sbu_0, # of connection points: 4
#     Node 6, Type 0, BuildingBlock: AZAVOO_clean_sbu_0, # of connection points: 4
#     Node 7, Type 0, BuildingBlock: AZAVOO_clean_sbu_0, # of connection points: 4
#     Node 8, Type 0, BuildingBlock: AZAVOO_clean_sbu_0, # of connection points: 4
#     Node 9, Type 0, BuildingBlock: AZAVOO_clean_sbu_0, # of connection points: 4
#     Node 10, Type 0, BuildingBlock: AZAVOO_clean_sbu_0, # of connection points: 4
#     Node 11, Type 0, BuildingBlock: AZAVOO_clean_sbu_0, # of connection points: 4
#     Node 12, Type 0, BuildingBlock: AZAVOO_clean_sbu_0, # of connection points: 4
#     Node 13, Type 0, BuildingBlock: AZAVOO_clean_sbu_0, # of connection points: 4
#     Node 14, Type 0, BuildingBlock: AZAVOO_clean_sbu_0, # of connection points: 4
#     Node 15, Type 0, BuildingBlock: AZAVOO_clean_sbu_0, # of connection points: 4
#     Node 16, Type 0, BuildingBlock: AZAVOO_clean_sbu_0, # of connection points: 4
#     Node 17, Type 0, BuildingBlock: AZAVOO_clean_sbu_0, # of connection points: 4
#     Node 18, Type 0, BuildingBlock: AZAVOO_clean_sbu_0, # of connection points: 4
#     Node 19, Type 0, BuildingBlock: AZAVOO_clean_sbu_0, # of connection points: 4
#     Node 20, Type 0, BuildingBlock: AZAVOO_clean_sbu_0, # of connection points: 4
#     Node 21, Type 0, BuildingBlock: AZAVOO_clean_sbu_0, # of connection points: 4
#     Node 22, Type 0, BuildingBlock: AZAVOO_clean_sbu_0, # of connection points: 4
#     Node 23, Type 0, BuildingBlock: AZAVOO_clean_sbu_0, # of connection points: 4
#     Node 24, Type 1, BuildingBlock: PAMTUU_clean_sbu_0, # of connection points: 6
#     Node 25, Type 1, BuildingBlock: PAMTUU_clean_sbu_0, # of connection points: 6
#     Node 26, Type 1, BuildingBlock: PAMTUU_clean_sbu_0, # of connection points: 6
#     Node 27, Type 1, BuildingBlock: PAMTUU_clean_sbu_0, # of connection points: 6
#     Node 28, Type 1, BuildingBlock: PAMTUU_clean_sbu_0, # of connection points: 6
#     Node 29, Type 1, BuildingBlock: PAMTUU_clean_sbu_0, # of connection points: 6
#     Node 30, Type 1, BuildingBlock: PAMTUU_clean_sbu_0, # of connection points: 6
#     Node 31, Type 1, BuildingBlock: PAMTUU_clean_sbu_0, # of connection points: 6
#     Node 32, Type 1, BuildingBlock: PAMTUU_clean_sbu_0, # of connection points: 6
#     Node 33, Type 1, BuildingBlock: PAMTUU_clean_sbu_0, # of connection points: 6
#     Node 34, Type 1, BuildingBlock: PAMTUU_clean_sbu_0, # of connection points: 6
#     Node 35, Type 1, BuildingBlock: PAMTUU_clean_sbu_0, # of connection points: 6
#     Node 36, Type 1, BuildingBlock: PAMTUU_clean_sbu_0, # of connection points: 6
#     Node 37, Type 1, BuildingBlock: PAMTUU_clean_sbu_0, # of connection points: 6
#     Node 38, Type 1, BuildingBlock: PAMTUU_clean_sbu_0, # of connection points: 6
#     Node 39, Type 1, BuildingBlock: PAMTUU_clean_sbu_0, # of connection points: 6
#     Edge 40, Type (0, 1), BuildingBlock: XIVTED_clean_linker_0, # of connection points: 2
#     Edge 41, Type (0, 1), BuildingBlock: XIVTED_clean_linker_0, # of connection points: 2
#     Edge 42, Type (0, 1), BuildingBlock: XIVTED_clean_linker_0, # of connection points: 2
#     Edge 43, Type (0, 1), BuildingBlock: XIVTED_clean_linker_0, # of connection points: 2
#     Edge 44, Type (0, 1), BuildingBlock: XIVTED_clean_linker_0, # of connection points: 2
#     Edge 45, Type (0, 1), BuildingBlock: XIVTED_clean_linker_0, # of connection points: 2
#     Edge 46, Type (0, 1), BuildingBlock: XIVTED_clean_linker_0, # of connection points: 2
#     Edge 47, Type (0, 1), BuildingBlock: XIVTED_clean_linker_0, # of connection points: 2
#     Edge 48, Type (0, 1), BuildingBlock: XIVTED_clean_linker_0, # of connection points: 2
#     Edge 49, Type (0, 1), BuildingBlock: XIVTED_clean_linker_0, # of connection points: 2
#     Edge 50, Type (0, 1), BuildingBlock: XIVTED_clean_linker_0, # of connection points: 2
#     Edge 51, Type (0, 1), BuildingBlock: XIVTED_clean_linker_0, # of connection points: 2
#     Edge 52, Type (0, 1), BuildingBlock: XIVTED_clean_linker_0, # of connection points: 2
#     Edge 53, Type (0, 1), BuildingBlock: XIVTED_clean_linker_0, # of connection points: 2
#     Edge 54, Type (0, 1), BuildingBlock: XIVTED_clean_linker_0, # of connection points: 2
#     Edge 55, Type (0, 1), BuildingBlock: XIVTED_clean_linker_0, # of connection points: 2
#     Edge 56, Type (0, 1), BuildingBlock: XIVTED_clean_linker_0, # of connection points: 2
#     Edge 57, Type (0, 1), BuildingBlock: XIVTED_clean_linker_0, # of connection points: 2
#     Edge 58, Type (0, 1), BuildingBlock: XIVTED_clean_linker_0, # of connection points: 2
#     Edge 59, Type (0, 1), BuildingBlock: XIVTED_clean_linker_0, # of connection points: 2
#     Edge 60, Type (0, 1), BuildingBlock: XIVTED_clean_linker_0, # of connection points: 2
#     Edge 61, Type (0, 1), BuildingBlock: XIVTED_clean_linker_0, # of connection points: 2
#     Edge 62, Type (0, 1), BuildingBlock: XIVTED_clean_linker_0, # of connection points: 2
#     Edge 63, Type (0, 1), BuildingBlock: XIVTED_clean_linker_0, # of connection points: 2
#     Edge 64, Type (0, 1), BuildingBlock: XIVTED_clean_linker_0, # of connection points: 2
#     Edge 65, Type (0, 1), BuildingBlock: XIVTED_clean_linker_0, # of connection points: 2
#     Edge 66, Type (0, 1), BuildingBlock: XIVTED_clean_linker_0, # of connection points: 2
#     Edge 67, Type (0, 1), BuildingBlock: XIVTED_clean_linker_0, # of connection points: 2
#     Edge 68, Type (0, 1), BuildingBlock: XIVTED_clean_linker_0, # of connection points: 2
#     Edge 69, Type (0, 1), BuildingBlock: XIVTED_clean_linker_0, # of connection points: 2
#     Edge 70, Type (0, 1), BuildingBlock: XIVTED_clean_linker_0, # of connection points: 2
#     Edge 71, Type (0, 1), BuildingBlock: XIVTED_clean_linker_0, # of connection points: 2
#     Edge 72, Type (0, 1), BuildingBlock: XIVTED_clean_linker_0, # of connection points: 2
#     Edge 73, Type (0, 1), BuildingBlock: XIVTED_clean_linker_0, # of connection points: 2
#     Edge 74, Type (0, 1), BuildingBlock: XIVTED_clean_linker_0, # of connection points: 2
#     Edge 75, Type (0, 1), BuildingBlock: XIVTED_clean_linker_0, # of connection points: 2
#     Edge 76, Type (0, 1), BuildingBlock: XIVTED_clean_linker_0, # of connection points: 2
#     Edge 77, Type (0, 1), BuildingBlock: XIVTED_clean_linker_0, # of connection points: 2
#     Edge 78, Type (0, 1), BuildingBlock: XIVTED_clean_linker_0, # of connection points: 2
#     Edge 79, Type (0, 1), BuildingBlock: XIVTED_clean_linker_0, # of connection points: 2
#     Edge 80, Type (0, 1), BuildingBlock: XIVTED_clean_linker_0, # of connection points: 2
#     Edge 81, Type (0, 1), BuildingBlock: XIVTED_clean_linker_0, # of connection points: 2
#     Edge 82, Type (0, 1), BuildingBlock: XIVTED_clean_linker_0, # of connection points: 2
#     Edge 83, Type (0, 1), BuildingBlock: XIVTED_clean_linker_0, # of connection points: 2
#     Edge 84, Type (0, 1), BuildingBlock: XIVTED_clean_linker_0, # of connection points: 2
#     Edge 85, Type (0, 1), BuildingBlock: XIVTED_clean_linker_0, # of connection points: 2
#     Edge 86, Type (0, 1), BuildingBlock: XIVTED_clean_linker_0, # of connection points: 2
#     Edge 87, Type (0, 1), BuildingBlock: XIVTED_clean_linker_0, # of connection points: 2
#     Edge 88, Type (0, 1), BuildingBlock: XIVTED_clean_linker_0, # of connection points: 2
#     Edge 89, Type (0, 1), BuildingBlock: XIVTED_clean_linker_0, # of connection points: 2
#     Edge 90, Type (0, 1), BuildingBlock: XIVTED_clean_linker_0, # of connection points: 2
#     Edge 91, Type (0, 1), BuildingBlock: XIVTED_clean_linker_0, # of connection points: 2
#     Edge 92, Type (0, 1), BuildingBlock: XIVTED_clean_linker_0, # of connection points: 2
#     Edge 93, Type (0, 1), BuildingBlock: XIVTED_clean_linker_0, # of connection points: 2
#     Edge 94, Type (0, 1), BuildingBlock: XIVTED_clean_linker_0, # of connection points: 2
#     Edge 95, Type (0, 1), BuildingBlock: XIVTED_clean_linker_0, # of connection points: 2
#     Edge 96, Type (0, 1), BuildingBlock: XIVTED_clean_linker_0, # of connection points: 2
#     Edge 97, Type (0, 1), BuildingBlock: XIVTED_clean_linker_0, # of connection points: 2
#     Edge 98, Type (0, 1), BuildingBlock: XIVTED_clean_linker_0, # of connection points: 2
#     Edge 99, Type (0, 1), BuildingBlock: XIVTED_clean_linker_0, # of connection points: 2
#     Edge 100, Type (0, 1), BuildingBlock: XIVTED_clean_linker_0, # of connection points: 2
#     Edge 101, Type (0, 1), BuildingBlock: XIVTED_clean_linker_0, # of connection points: 2
#     Edge 102, Type (0, 1), BuildingBlock: XIVTED_clean_linker_0, # of connection points: 2
#     Edge 103, Type (0, 1), BuildingBlock: XIVTED_clean_linker_0, # of connection points: 2
#     Edge 104, Type (0, 1), BuildingBlock: XIVTED_clean_linker_0, # of connection points: 2
#     Edge 105, Type (0, 1), BuildingBlock: XIVTED_clean_linker_0, # of connection points: 2
#     Edge 106, Type (0, 1), BuildingBlock: XIVTED_clean_linker_0, # of connection points: 2
#     Edge 107, Type (0, 1), BuildingBlock: XIVTED_clean_linker_0, # of connection points: 2
#     Edge 108, Type (0, 1), BuildingBlock: XIVTED_clean_linker_0, # of connection points: 2
#     Edge 109, Type (0, 1), BuildingBlock: XIVTED_clean_linker_0, # of connection points: 2
#     Edge 110, Type (0, 1), BuildingBlock: XIVTED_clean_linker_0, # of connection points: 2
#     Edge 111, Type (0, 1), BuildingBlock: XIVTED_clean_linker_0, # of connection points: 2
#     Edge 112, Type (0, 1), BuildingBlock: XIVTED_clean_linker_0, # of connection points: 2
#     Edge 113, Type (0, 1), BuildingBlock: XIVTED_clean_linker_0, # of connection points: 2
#     Edge 114, Type (0, 1), BuildingBlock: XIVTED_clean_linker_0, # of connection points: 2
#     Edge 115, Type (0, 1), BuildingBlock: XIVTED_clean_linker_0, # of connection points: 2
#     Edge 116, Type (0, 1), BuildingBlock: XIVTED_clean_linker_0, # of connection points: 2
#     Edge 117, Type (0, 1), BuildingBlock: XIVTED_clean_linker_0, # of connection points: 2
#     Edge 118, Type (0, 1), BuildingBlock: XIVTED_clean_linker_0, # of connection points: 2
#     Edge 119, Type (0, 1), BuildingBlock: XIVTED_clean_linker_0, # of connection points: 2
#     Edge 120, Type (0, 1), BuildingBlock: XIVTED_clean_linker_0, # of connection points: 2
#     Edge 121, Type (0, 1), BuildingBlock: XIVTED_clean_linker_0, # of connection points: 2
#     Edge 122, Type (0, 1), BuildingBlock: XIVTED_clean_linker_0, # of connection points: 2
#     Edge 123, Type (0, 1), BuildingBlock: XIVTED_clean_linker_0, # of connection points: 2
#     Edge 124, Type (0, 1), BuildingBlock: XIVTED_clean_linker_0, # of connection points: 2
#     Edge 125, Type (0, 1), BuildingBlock: XIVTED_clean_linker_0, # of connection points: 2
#     Edge 126, Type (0, 1), BuildingBlock: XIVTED_clean_linker_0, # of connection points: 2
#     Edge 127, Type (0, 1), BuildingBlock: XIVTED_clean_linker_0, # of connection points: 2
#     Edge 128, Type (0, 1), BuildingBlock: XIVTED_clean_linker_0, # of connection points: 2
#     Edge 129, Type (0, 1), BuildingBlock: XIVTED_clean_linker_0, # of connection points: 2
#     Edge 130, Type (0, 1), BuildingBlock: XIVTED_clean_linker_0, # of connection points: 2
#     Edge 131, Type (0, 1), BuildingBlock: XIVTED_clean_linker_0, # of connection points: 2
#     Edge 132, Type (0, 1), BuildingBlock: XIVTED_clean_linker_0, # of connection points: 2
#     Edge 133, Type (0, 1), BuildingBlock: XIVTED_clean_linker_0, # of connection points: 2
#     Edge 134, Type (0, 1), BuildingBlock: XIVTED_clean_linker_0, # of connection points: 2
#     Edge 135, Type (0, 1), BuildingBlock: XIVTED_clean_linker_0, # of connection points: 2
# Relax obj value: 0.210
# Max RMSD: 0.345
# Mean RMSD: 0.203
data_MOF--net-gar--node1-AZAVOO_clean_sbu_0--node2-PAMTUU_clean_sbu_0--edge1-XIVTED_clean_linker_0
_symmetry_space_group_name_H-M    P1
_symmetry_Int_Tables_number       1
_symmetry_cell_setting            triclinic
loop_
_symmetry_equiv_pos_as_xyz
'x, y, z'
_cell_length_a     61.754164
_cell_length_b     55.613303
_cell_length_c     59.633453
_cell_angle_alpha  96.13197
_cell_angle_beta   93.54427
_cell_angle_gamma 108.64494
loop_
_atom_site_label
_atom_site_type_symbol
_atom_site_fract_x
_atom_site_fract_y
_atom_site_fract_z
_atom_type_partial_charge
Mg0 Mg 0.04726 0.27436 0.38019 0.0
O1 O 0.05265 0.31357 0.40777 0.0
O2 O 0.02069 0.30434 0.42561 0.0
Mg3 Mg 0.99593 0.2627 0.41383 0.0
C4 C 0.03991 0.32035 0.42211 0.0
C5 C 0.09682 0.27052 0.35431 0.0
O6 O 0.08115 0.24935 0.34436 0.0
O7 O 0.05052 0.24381 0.40743 0.0
O8 O 0.01888 0.23822 0.42514 0.0
O9 O 0.02332 0.28831 0.35411 0.0
O10 O 0.00807 0.26613 0.37955 0.0
C11 C 0.03704 0.23241 0.4218 0.0
C12 C 1.00459 0.27796 0.36297 0.0
O13 O 0.08966 0.28464 0.3692 0.0
Mg14 Mg 0.04712 0.80302 0.68444 0.0
O15 O 0.04934 0.7695 0.65574 0.0
O16 O 0.01476 0.75576 0.63613 0.0
Mg17 Mg 0.99315 0.78308 0.64477 0.0
C18 C 0.03434 0.75309 0.64082 0.0
C19 C 0.09822 0.7963 0.70534 0.0
O20 O 0.08335 0.77343 0.70582 0.0
O21 O 0.04956 0.83754 0.65938 0.0
O22 O 0.01798 0.82181 0.63479 0.0
O23 O 0.02428 0.81754 0.71128 0.0
O24 O 0.00784 0.79288 0.68108 0.0
C25 C 0.03682 0.8399 0.64202 0.0
C26 C 1.00491 0.80466 0.69981 0.0
O27 O 0.08998 0.81327 0.69803 0.0
Mg28 Mg 0.54864 0.77376 0.87852 0.0
O29 O 0.55484 0.81295 0.90596 0.0
O30 O 0.52409 0.80338 0.9255 0.0
Mg31 Mg 0.4977 0.76299 0.9125 0.0
C32 C 0.54308 0.81943 0.92146 0.0
C33 C 0.59821 0.76964 0.85302 0.0
O34 O 0.58273 0.74838 0.84299 0.0
O35 O 0.5517 0.74337 0.90605 0.0
O36 O 0.51995 0.73794 0.92355 0.0
O37 O 0.52505 0.78809 0.85246 0.0
O38 O 0.50966 0.76626 0.87807 0.0
C39 C 0.53807 0.73206 0.92036 0.0
C40 C 0.5063 0.77802 0.86139 0.0
O41 O 0.59088 0.78373 0.86775 0.0
Mg42 Mg 0.5451 0.30095 0.1818 0.0
O43 O 0.54666 0.26722 0.15289 0.0
O44 O 0.51391 0.25645 0.13045 0.0
Mg45 Mg 0.49165 0.28259 0.14136 0.0
C46 C 0.53284 0.2527 0.13606 0.0
C47 C 0.59491 0.29313 0.2052 0.0
O48 O 0.57884 0.27167 0.20762 0.0
O49 O 0.54845 0.33642 0.15711 0.0
O50 O 0.51647 0.32182 0.13305 0.0
O51 O 0.52194 0.31513 0.20871 0.0
O52 O 0.50567 0.29137 0.1781 0.0
C53 C 0.53556 0.33952 0.14019 0.0
C54 C 0.5026 0.30281 0.19699 0.0
O55 O 0.58791 0.30981 0.19566 0.0
Mg56 Mg 0.09332 0.81792 0.14175 0.0
O57 O 0.08559 0.77932 0.118 0.0
O58 O 0.04956 0.77028 0.10251 0.0
Mg59 Mg 0.03449 0.80126 0.11424 0.0
C60 C 0.06793 0.76461 0.10514 0.0
C61 C 0.13802 0.83027 0.1699 0.0
O62 O 0.12402 0.83822 0.18213 0.0
O63 O 0.09817 0.84237 0.11202 0.0
O64 O 0.06121 0.83153 0.09846 0.0
O65 O 0.07723 0.797 0.17001 0.0
O66 O 0.05835 0.81114 0.14493 0.0
C67 C 0.08234 0.84465 0.09827 0.0
C68 C 0.05808 0.79935 0.16232 0.0
O69 O 0.13119 0.82117 0.14921 0.0
Mg70 Mg 0.50343 0.76177 0.42008 0.0
O71 O 0.5098 0.79786 0.44615 0.0
O72 O 0.47983 0.78942 0.46678 0.0
Mg73 Mg 0.45364 0.75022 0.45192 0.0
C74 C 0.49909 0.80427 0.4622 0.0
C75 C 0.54125 0.76531 0.39125 0.0
O76 O 0.52161 0.75234 0.37922 0.0
O77 O 0.51001 0.73782 0.44675 0.0
O78 O 0.47745 0.72773 0.46333 0.0
O79 O 0.48755 0.77941 0.39549 0.0
O80 O 0.46764 0.7543 0.41862 0.0
C81 C 0.49713 0.72549 0.46051 0.0
C82 C 0.46803 0.76899 0.40314 0.0
O83 O 0.54083 0.77354 0.41191 0.0
Mg84 Mg 0.59555 0.32371 0.63861 0.0
O85 O 0.58939 0.28505 0.61615 0.0
O86 O 0.55396 0.27408 0.59858 0.0
Mg87 Mg 0.53688 0.30341 0.60963 0.0
C88 C 0.57281 0.26971 0.60245 0.0
C89 C 0.64094 0.33686 0.66687 0.0
O90 O 0.62716 0.34458 0.67961 0.0
O91 O 0.59972 0.34676 0.60792 0.0
O92 O 0.56282 0.33398 0.59364 0.0
O93 O 0.57953 0.30311 0.66709 0.0
O94 O 0.56028 0.31533 0.64083 0.0
C95 C 0.58375 0.34779 0.59358 0.0
C96 C 0.56012 0.30412 0.65857 0.0
O97 O 0.63374 0.32806 0.6462 0.0
Mg98 Mg 1.00107 0.25753 0.91724 0.0
O99 O 1.00599 0.29224 0.94424 0.0
O100 O 0.97431 0.28366 0.96223 0.0
Mg101 Mg 0.9501 0.24334 0.94731 0.0
C102 C 0.99401 0.29875 0.95897 0.0
C103 C 0.03996 0.26896 0.8892 0.0
O104 O 0.02071 0.25904 0.87579 0.0
O105 O 0.00775 0.23275 0.94327 0.0
O106 O 0.97487 0.22204 0.95929 0.0
O107 O 0.98485 0.27604 0.89332 0.0
O108 O 0.96503 0.24827 0.9146 0.0
C109 C 0.99472 0.22011 0.95678 0.0
C110 C 0.96527 0.26392 0.90002 0.0
O111 O 0.03879 0.27179 0.91049 0.0
Mg112 Mg 0.47268 0.07321 0.31925 0.0
O113 O 0.44698 0.03299 0.30385 0.0
O114 O 0.42451 0.02309 0.33216 0.0
Mg115 Mg 0.43581 0.05236 0.36374 0.0
C116 C 0.42975 0.01813 0.31218 0.0
C117 C 0.48258 0.07955 0.26605 0.0
O118 O 0.4917 0.09546 0.25179 0.0
O119 O 0.4436 0.08871 0.31442 0.0
O120 O 0.42212 0.07769 0.34277 0.0
O121 O 0.49798 0.0559 0.33248 0.0
O122 O 0.46914 0.0614 0.35021 0.0
C123 C 0.42633 0.08862 0.32502 0.0
C124 C 0.4859 0.05237 0.34959 0.0
O125 O 0.48497 0.08801 0.2869 0.0
Mg126 Mg 0.30017 0.20077 0.52011 0.0
O127 O 0.30356 0.22786 0.55392 0.0
O128 O 0.3397 0.25406 0.55865 0.0
Mg129 Mg 0.3583 0.24487 0.52766 0.0
C130 C 0.31998 0.24565 0.56592 0.0
C131 C 0.25331 0.16122 0.51596 0.0
O132 O 0.26739 0.14917 0.50915 0.0
O133 O 0.29922 0.22895 0.49415 0.0
O134 O 0.33645 0.25198 0.4971 0.0
O135 O 0.31185 0.17532 0.54052 0.0
O136 O 0.33553 0.20447 0.52316 0.0
C137 C 0.31616 0.24528 0.48681 0.0
C138 C 0.33257 0.18658 0.5359 0.0
O139 O 0.26125 0.18543 0.52116 0.0
Mg140 Mg 0.16055 0.02257 0.83315 0.0
O141 O 0.18671 0.06209 0.83529 0.0
O142 O 0.20757 0.0763 0.86883 0.0
Mg143 Mg 0.19672 0.04147 0.88759 0.0
C144 C 0.20195 0.07943 0.84868 0.0
C145 C 0.14834 0.04439 0.79269 0.0
O146 O 0.15036 0.06191 0.81001 0.0
O147 O 0.18953 0.00751 0.8269 0.0
O148 O 0.21136 0.02081 0.8601 0.0
O149 O 0.13635 0.03926 0.84755 0.0
O150 O 0.16255 0.02891 0.86807 0.0
C151 C 0.20762 0.00981 0.83963 0.0
C152 C 0.14759 0.04065 0.8669 0.0
O153 O 0.15177 0.02362 0.796 0.0
Mg154 Mg 0.32669 0.95851 0.01048 0.0
O155 O 0.31464 0.92752 0.97955 0.0
O156 O 0.34535 0.91581 0.97211 0.0
Mg157 Mg 0.37677 0.94105 0.99547 0.0
C158 C 0.32418 0.91359 0.96821 0.0
C159 C 0.29011 0.96529 0.038 0.0
O160 O 0.3094 0.97483 0.05142 0.0
O161 O 0.32877 0.92918 0.0335 0.0
O162 O 0.36089 0.92131 0.02506 0.0
O163 O 0.33578 0.98926 0.98783 0.0
O164 O 0.35863 0.96881 1.00036 0.0
C165 C 0.34377 0.91822 0.03671 0.0
C166 C 0.35514 0.98486 0.98781 0.0
O167 O 0.29062 0.95476 0.01817 0.0
Mg168 Mg 0.30141 0.37603 0.03927 0.0
O169 O 0.29662 0.34694 0.00619 0.0
O170 O 0.32661 0.33304 0.00944 0.0
Mg171 Mg 0.34918 0.35106 0.04337 0.0
C172 C 0.30877 0.33394 0.99793 0.0
C173 C 0.26782 0.40327 0.03304 0.0
O174 O 0.28845 0.42008 0.03855 0.0
O175 O 0.29059 0.34709 0.0659 0.0
O176 O 0.32332 0.33835 0.06986 0.0
O177 O 0.32344 0.4062 0.02024 0.0
O178 O 0.33728 0.38405 0.04214 0.0
C179 C 0.3039 0.3376 0.07666 0.0
C180 C 0.34101 0.40111 0.02863 0.0
O181 O 0.2655 0.37958 0.03215 0.0
Mg182 Mg 0.77706 0.11893 0.0498 0.0
O183 O 0.78457 0.14727 0.0827 0.0
O184 O 0.82055 0.17382 0.08241 0.0
Mg185 Mg 0.83485 0.1644 0.04952 0.0
C186 C 0.80201 0.16607 0.09185 0.0
C187 C 0.75233 0.08014 0.00679 0.0
O188 O 0.75019 0.0671 0.98661 0.0
O189 O 0.77147 0.14871 0.02946 0.0
O190 O 0.80725 0.17524 0.02875 0.0
O191 O 0.79356 0.09376 0.06661 0.0
O192 O 0.81213 0.12477 0.04847 0.0
C193 C 0.78561 0.16837 0.02308 0.0
C194 C 0.8126 0.10658 0.05966 0.0
O195 O 0.77212 0.09227 0.01675 0.0
Mg196 Mg 0.1464 0.50184 0.23495 0.0
O197 O 0.16918 0.54308 0.24888 0.0
O198 O 0.17764 0.54898 0.28667 0.0
Mg199 Mg 0.1673 0.50873 0.29711 0.0
C200 C 0.17829 0.55743 0.2675 0.0
C201 C 0.12362 0.51216 0.19495 0.0
O202 O 0.10734 0.49694 0.20498 0.0
O203 O 0.17916 0.49191 0.22821 0.0
O204 O 0.17935 0.49971 0.2644 0.0
O205 O 0.11649 0.50985 0.2491 0.0
O206 O 0.13915 0.49487 0.26923 0.0
C207 C 0.18946 0.49461 0.2478 0.0
C208 C 0.12219 0.50341 0.26809 0.0
O209 O 0.14441 0.51529 0.20124 0.0
Mg210 Mg 0.80066 0.87773 0.54117 0.0
O211 O 0.79776 0.85107 0.50663 0.0
O212 O 0.828 0.83759 0.51002 0.0
Mg213 Mg 0.84852 0.85325 0.54531 0.0
C214 C 0.81066 0.83913 0.49811 0.0
C215 C 0.7603 0.88975 0.51705 0.0
O216 O 0.77591 0.89559 0.50272 0.0
O217 O 0.78978 0.84736 0.56587 0.0
O218 O 0.8215 0.83664 0.57036 0.0
O219 O 0.82197 0.91016 0.52496 0.0
O220 O 0.83653 0.88657 0.54474 0.0
C221 C 0.80178 0.83613 0.57623 0.0
C222 C 0.83979 0.90481 0.53236 0.0
O223 O 0.76431 0.87936 0.53412 0.0
Mg224 Mg 0.94148 0.05664 0.23261 0.0
O225 O 0.91967 0.01456 0.22998 0.0
O226 O 0.90933 0.00546 0.26419 0.0
Mg227 Mg 0.92188 0.04285 0.28783 0.0
C228 C 0.90969 0.99894 0.24312 0.0
C229 C 0.94203 0.03283 0.18481 0.0
O230 O 0.94585 0.01564 0.19655 0.0
O231 O 0.9089 0.06647 0.23177 0.0
O232 O 0.89765 0.05559 0.26533 0.0
O233 O 0.97244 0.0467 0.2436 0.0
O234 O 0.94935 0.05792 0.26652 0.0
C235 C 0.89434 0.06311 0.24633 0.0
C236 C 0.96646 0.04988 0.26386 0.0
O237 O 0.93964 0.0528 0.19507 0.0
Mg238 Mg 0.27715 0.61875 0.54837 0.0
O239 O 0.28802 0.64933 0.57975 0.0
O240 O 0.3229 0.67622 0.57598 0.0
Mg241 Mg 0.33453 0.66308 0.5425 0.0
C242 C 0.30544 0.669 0.58709 0.0
C243 C 0.24846 0.56981 0.51431 0.0
O244 O 0.24537 0.55088 0.49796 0.0
O245 O 0.27061 0.64738 0.52649 0.0
O246 O 0.306 0.67322 0.52292 0.0
O247 O 0.29571 0.5949 0.56489 0.0
O248 O 0.31169 0.62363 0.54351 0.0
C249 C 0.28419 0.66637 0.51865 0.0
C250 C 0.31352 0.60645 0.55536 0.0
O251 O 0.26754 0.5879 0.51762 0.0
Mg252 Mg 0.4344 0.55647 0.73236 0.0
O253 O 0.41038 0.51442 0.72709 0.0
O254 O 0.4032 0.52352 0.76188 0.0
Mg255 Mg 0.40943 0.55138 0.79336 0.0
C256 C 0.39961 0.50769 0.74411 0.0
C257 C 0.46356 0.5644 0.69828 0.0
O258 O 0.47422 0.57924 0.71702 0.0
O259 O 0.40315 0.56957 0.72465 0.0
O260 O 0.40812 0.56259 0.75895 0.0
O261 O 0.46152 0.54425 0.7489 0.0
O262 O 0.43726 0.55665 0.76928 0.0
C263 C 0.39583 0.56816 0.74401 0.0
C264 C 0.45384 0.54729 0.76827 0.0
O265 O 0.44204 0.55328 0.69703 0.0
Mg266 Mg 0.64201 0.00712 0.73035 0.0
O267 O 0.6623 0.04765 0.74615 0.0
O268 O 0.66101 0.05277 0.78358 0.0
Mg269 Mg 0.64101 0.01311 0.79218 0.0
C270 C 0.66769 0.06154 0.76536 0.0
C271 C 0.65905 0.03042 0.68486 0.0
O272 O 0.674 0.0363 0.66991 0.0
O273 O 0.67111 0.99468 0.74282 0.0
O274 O 0.67103 1.0013 0.78056 0.0
O275 O 0.60924 0.01793 0.73076 0.0
O276 O 0.62279 1.00111 0.75779 0.0
C277 C 0.67978 0.9953 0.76287 0.0
C278 C 0.60761 0.01019 0.75044 0.0
O279 O 0.66169 0.0164 0.69947 0.0
Mg280 Mg 0.80224 0.69908 0.01998 0.0
O281 O 0.80421 0.72518 0.05421 0.0
O282 O 0.84057 0.75079 0.06026 0.0
Mg283 Mg 0.86016 0.7428 0.02966 0.0
C284 C 0.82055 0.74234 0.06693 0.0
C285 C 0.75558 0.65955 0.01297 0.0
O286 O 0.77012 0.64756 0.0076 0.0
O287 O 0.80232 0.72795 0.99455 0.0
O288 O 0.83959 0.75071 0.99824 0.0
O289 O 0.81227 0.67283 0.04052 0.0
O290 O 0.83744 0.70233 0.02474 0.0
C291 C 0.81949 0.74424 0.98754 0.0
C292 C 0.83342 0.68413 0.03726 0.0
O293 O 0.76328 0.68371 0.01859 0.0
Mg294 Mg 0.95777 0.57332 0.80543 0.0
O295 O 0.93445 0.53339 0.80924 0.0
O296 O 0.93367 0.52811 0.84582 0.0
Mg297 Mg 0.95777 0.56573 0.86572 0.0
C298 C 0.92727 0.51979 0.82486 0.0
C299 C 0.93841 0.55386 0.7529 0.0
O300 O 0.92368 0.55158 0.7353 0.0
O301 O 0.93184 0.58905 0.81902 0.0
O302 O 0.93094 0.58469 0.85592 0.0
O303 O 0.98724 0.55806 0.80418 0.0
O304 O 0.97658 0.57471 0.83534 0.0
C305 C 0.92388 0.59159 0.83793 0.0
C306 C 0.98943 0.56325 0.82604 0.0
O307 O 0.93842 0.56862 0.77062 0.0
Mg308 Mg 0.82663 0.45989 0.50851 0.0
O309 O 0.81458 0.42635 0.47993 0.0
O310 O 0.84517 0.41421 0.47323 0.0
Mg311 Mg 0.8765 0.44068 0.49589 0.0
C312 C 0.82395 0.41172 0.46935 0.0
C313 C 0.78694 0.46384 0.53436 0.0
O314 O 0.8041 0.47048 0.55044 0.0
O315 O 0.82852 0.43302 0.53434 0.0
O316 O 0.85996 0.42352 0.52604 0.0
O317 O 0.8356 0.48718 0.48263 0.0
O318 O 0.85861 0.46879 0.49843 0.0
C319 C 0.8432 0.42173 0.53795 0.0
C320 C 0.85482 0.48247 0.48358 0.0
O321 O 0.79028 0.45656 0.51437 0.0
Mg322 Mg 0.66275 0.51975 0.33382 0.0
O323 O 0.68816 0.55995 0.33595 0.0
O324 O 0.71165 0.57184 0.36811 0.0
Mg325 Mg 0.70312 0.53586 0.38532 0.0
C326 C 0.70428 0.57652 0.34915 0.0
C327 C 0.64543 0.54259 0.29658 0.0
O328 O 0.64836 0.55919 0.31482 0.0
O329 O 0.69086 0.50537 0.32334 0.0
O330 O 0.71562 0.51705 0.35469 0.0
O331 O 0.63996 0.53525 0.35178 0.0
O332 O 0.66781 0.52412 0.36874 0.0
C333 C 0.70997 0.50716 0.33394 0.0
C334 C 0.65307 0.53618 0.36982 0.0
O335 O 0.65063 0.52239 0.29799 0.0
Tb336 Tb 0.07486 0.05524 0.03784 0.0
Tb337 Tb 0.02329 0.01588 0.01359 0.0
C338 C 0.03261 0.04323 0.0612 0.0
C339 C 0.13596 0.06967 0.05195 0.0
C340 C 0.16775 0.04283 0.05336 0.0
C341 C 0.16148 0.05311 0.07353 0.0
C342 C 0.14569 0.06634 0.07281 0.0
C343 C 0.14344 0.06083 0.03183 0.0
C344 C 0.15895 0.04731 0.03252 0.0
C345 C 0.11619 0.07929 0.05126 0.0
O346 O 0.07074 0.01667 0.04686 0.0
O347 O 0.04268 0.98976 0.01905 0.0
O348 O 0.04364 0.02675 0.98588 0.0
O349 O 0.07511 0.02942 0.00859 0.0
O350 O 0.99291 0.99007 0.0223 0.0
O351 O 0.99434 1.00223 0.98925 0.0
O352 O 0.02257 0.05525 0.01672 0.0
O353 O 0.06097 0.07796 0.01706 0.0
O354 O 0.04998 0.06334 0.05914 0.0
O355 O 0.03123 0.02182 0.04946 0.0
C356 C 0.05919 0.99356 0.03579 0.0
O357 O 0.10677 0.07977 0.03112 0.0
O358 O 0.10075 0.07015 0.065 0.0
C359 C 0.06568 0.03068 0.98886 0.0
C360 C 0.96265 1.00291 0.00898 0.0
C361 C 0.92908 0.0258 0.01866 0.0
C362 C 0.92298 1.002 0.00481 0.0
C363 C 0.93977 0.99067 0.99985 0.0
C364 C 0.96843 0.02628 0.02322 0.0
C365 C 0.95195 0.03771 0.02783 0.0
C366 C 0.98097 0.99202 0.00424 0.0
C367 C 0.03917 0.07603 0.01351 0.0
H368 H 0.16811 0.05007 0.08985 0.0
H369 H 0.14039 0.0731 0.08857 0.0
H370 H 0.13686 0.06373 0.01549 0.0
H371 H 0.16397 0.04021 0.01672 0.0
H372 H 0.90536 0.99236 0.99767 0.0
H373 H 0.93491 0.97248 0.98902 0.0
H374 H 0.98571 0.03565 0.03112 0.0
H375 H 0.95706 0.05569 0.03903 0.0
Tb376 Tb 0.28985 0.79581 0.30314 0.0
Tb377 Tb 0.3144 0.78292 0.25808 0.0
C378 C 0.27191 0.80329 0.25516 0.0
C379 C 0.26347 0.78573 0.35637 0.0
C380 C 0.25402 0.757 0.39287 0.0
C381 C 0.24933 0.78019 0.39317 0.0
C382 C 0.25404 0.79445 0.37505 0.0
C383 C 0.26726 0.7621 0.35552 0.0
C384 C 0.26256 0.74783 0.3736 0.0
C385 C 0.27052 0.80184 0.3384 0.0
O386 O 0.26917 0.75843 0.28577 0.0
O387 O 0.29699 0.74628 0.269 0.0
O388 O 0.3383 0.78704 0.28763 0.0
O389 O 0.31262 0.77533 0.31369 0.0
O390 O 0.31218 0.76206 0.22604 0.0
O391 O 0.34442 0.78915 0.24161 0.0
O392 O 0.32325 0.82412 0.2627 0.0
O393 O 0.31786 0.83086 0.30046 0.0
O394 O 0.27629 0.81259 0.27677 0.0
O395 O 0.28224 0.78797 0.24579 0.0
C396 C 0.27658 0.74059 0.27625 0.0
O397 O 0.29262 0.81101 0.33736 0.0
O398 O 0.25946 0.79259 0.31841 0.0
C399 C 0.33328 0.77938 0.30729 0.0
C400 C 0.33536 0.78918 0.20318 0.0
C401 C 0.34094 0.81876 0.16721 0.0
C402 C 0.35546 0.80426 0.1711 0.0
C403 C 0.35268 0.78956 0.18901 0.0
C404 C 0.32099 0.80373 0.19945 0.0
C405 C 0.32362 0.81821 0.18157 0.0
C406 C 0.33312 0.77538 0.22293 0.0
C407 C 0.32676 0.83904 0.28206 0.0
H408 H 0.24252 0.78759 0.40767 0.0
H409 H 0.25089 0.81259 0.37588 0.0
H410 H 0.27454 0.75509 0.34117 0.0
H411 H 0.26664 0.73024 0.37294 0.0
H412 H 0.36915 0.80455 0.16052 0.0
H413 H 0.36418 0.77878 0.19197 0.0
H414 H 0.30774 0.80401 0.21047 0.0
H415 H 0.31188 0.82876 0.17889 0.0
Tb416 Tb 0.51693 0.03257 0.54649 0.0
Tb417 Tb 0.57193 0.03874 0.5434 0.0
C418 C 0.55014 0.04157 0.5886 0.0
C419 C 0.46324 0.04928 0.54777 0.0
C420 C 0.43913 0.08489 0.54778 0.0
C421 C 0.44144 0.07315 0.56713 0.0
C422 C 0.4532 0.05548 0.56706 0.0
C423 C 0.46134 0.06125 0.52845 0.0
C424 C 0.44938 0.07886 0.52846 0.0
C425 C 0.47569 0.03055 0.54847 0.0
O426 O 0.53508 0.07334 0.55505 0.0
O427 O 0.57143 0.07797 0.54388 0.0
O428 O 0.55447 0.02768 0.50928 0.0
O429 O 0.52838 0.04798 0.51608 0.0
O430 O 0.60143 0.03539 0.56005 0.0
O431 O 0.60194 0.04682 0.52648 0.0
O432 O 0.55379 0.9985 0.54602 0.0
O433 O 0.51745 0.99531 0.53161 0.0
O434 O 0.53089 0.02527 0.57834 0.0
O435 O 0.56683 0.05311 0.57705 0.0
C436 C 0.55565 0.08757 0.55094 0.0
O437 O 0.48374 0.02396 0.52992 0.0
O438 O 0.49035 0.03427 0.56624 0.0
C439 C 0.53878 0.03699 0.50191 0.0
C440 C 0.62532 0.02211 0.53596 0.0
C441 C 0.65041 0.98827 0.52721 0.0
C442 C 0.66078 0.01478 0.52717 0.0
C443 C 0.64834 0.03154 0.53158 0.0
C444 C 0.61468 0.9956 0.53536 0.0
C445 C 0.62714 0.97884 0.53112 0.0
C446 C 0.61319 0.04021 0.54267 0.0
C447 C 0.53336 0.98489 0.53581 0.0
H448 H 0.43421 0.07765 0.58247 0.0
H449 H 0.45451 0.04666 0.58221 0.0
H450 H 0.46894 0.05695 0.51329 0.0
H451 H 0.44776 0.08732 0.51317 0.0
H452 H 0.67872 0.02268 0.52446 0.0
H453 H 0.65687 0.05194 0.5321 0.0
H454 H 0.59687 0.98792 0.53865 0.0
H455 H 0.6186 0.95851 0.53099 0.0
Tb456 Tb 0.33212 0.28382 0.78547 0.0
Tb457 Tb 0.27851 0.28355 0.77697 0.0
C458 C 0.29056 0.2371 0.7872 0.0
C459 C 0.39048 0.28095 0.77591 0.0
C460 C 0.42563 0.28003 0.74815 0.0
C461 C 0.41934 0.26261 0.76395 0.0
C462 C 0.402 0.26314 0.77771 0.0
C463 C 0.39646 0.29827 0.76004 0.0
C464 C 0.41398 0.29788 0.74633 0.0
C465 C 0.37165 0.28005 0.79007 0.0
O466 O 0.32203 0.27184 0.74872 0.0
O467 O 0.2889 0.28227 0.74258 0.0
O468 O 0.30005 0.32362 0.78158 0.0
O469 O 0.33367 0.31807 0.77144 0.0
O470 O 0.24432 0.26085 0.77779 0.0
O471 O 0.25244 0.29889 0.76829 0.0
O472 O 0.28568 0.28787 0.81393 0.0
O473 O 0.3253 0.29945 0.81876 0.0
O474 O 0.30926 0.25226 0.79888 0.0
O475 O 0.28091 0.24542 0.77105 0.0
C476 C 0.30602 0.27552 0.73495 0.0
O477 O 0.3674 0.30138 0.79561 0.0
O478 O 0.35291 0.26058 0.78412 0.0
C479 C 0.32048 0.33221 0.7744 0.0
C480 C 0.21972 0.28414 0.78844 0.0
C481 C 0.18468 0.29024 0.81454 0.0
C482 C 0.18817 0.30059 0.79399 0.0
C483 C 0.20541 0.29743 0.78105 0.0
C484 C 0.21696 0.27466 0.80942 0.0
C485 C 0.19958 0.27765 0.82231 0.0
C486 C 0.23639 0.2791 0.77345 0.0
C487 C 0.30531 0.29626 0.82704 0.0
H488 H 0.42761 0.2483 0.76551 0.0
H489 H 0.39738 0.2494 0.78965 0.0
H490 H 0.3876 0.31201 0.75819 0.0
H491 H 0.41855 0.31173 0.7345 0.0
H492 H 0.17731 0.3108 0.78768 0.0
H493 H 0.20725 0.30493 0.76498 0.0
H494 H 0.22779 0.26435 0.81562 0.0
H495 H 0.19727 0.26919 0.8379 0.0
Tb496 Tb 0.04197 0.05312 0.55184 0.0
Tb497 Tb 0.05062 0.0208 0.507 0.0
C498 C 0.99995 0.01482 0.51954 0.0
C499 C 0.05055 0.08032 0.61146 0.0
C500 C 0.07305 0.0778 0.65297 0.0
C501 C 0.04907 0.07165 0.6504 0.0
C502 C 0.0379 0.07305 0.62978 0.0
C503 C 0.07463 0.08737 0.61433 0.0
C504 C 0.08579 0.08627 0.63499 0.0
C505 C 0.0384 0.07726 0.58887 0.0
O506 O 0.04779 0.01883 0.56489 0.0
O507 O 0.04987 0.99397 0.53227 0.0
O508 O 0.08364 0.03554 0.52693 0.0
O509 O 0.07792 0.07007 0.54643 0.0
O510 O 0.04338 0.98667 0.48484 0.0
O511 O 0.06883 0.02126 0.4783 0.0
O512 O 0.04953 0.05804 0.49574 0.0
O513 O 0.0354 0.07589 0.5255 0.0
O514 O 1.00736 0.03353 0.53633 0.0
O515 O 0.01362 0.0073 0.50668 0.0
C516 C 0.04894 0.9969 0.5545 0.0
O517 O 0.05064 0.0879 0.57337 0.0
O518 O 0.0252 0.05403 0.58134 0.0
C519 C 0.09173 0.05861 0.5381 0.0
C520 C 0.04424 0.9955 0.44746 0.0
C521 C 0.0238 0.99842 0.40494 0.0
C522 C 0.04499 0.994 0.40676 0.0
C523 C 0.05518 0.99259 0.42796 0.0
C524 C 0.02253 0.99852 0.44549 0.0
C525 C 0.01231 0.99972 0.42441 0.0
C526 C 0.05615 0.99803 0.47001 0.0
C527 C 0.04209 0.07654 0.50485 0.0
H528 H 0.03898 0.06519 0.66416 0.0
H529 H 0.01931 0.06738 0.62782 0.0
H530 H 0.08481 0.09271 0.60038 0.0
H531 H 0.10428 0.09082 0.63654 0.0
H532 H 0.05427 0.9931 0.39204 0.0
H533 H 0.07199 0.99036 0.42926 0.0
H534 H 0.01383 1.00092 0.46037 0.0
H535 H 0.9958 1.00272 0.42348 0.0
Tb536 Tb 0.31665 0.81625 0.77147 0.0
Tb537 Tb 0.28998 0.76284 0.78823 0.0
C538 C 0.30894 0.76385 0.7409 0.0
C539 C 0.32743 0.88213 0.76603 0.0
C540 C 0.31139 0.92286 0.77864 0.0
C541 C 0.32565 0.92421 0.76102 0.0
C542 C 0.33384 0.90389 0.75483 0.0
C543 C 0.31273 0.88074 0.78318 0.0
C544 C 0.30499 0.90099 0.78961 0.0
C545 C 0.33436 0.85977 0.75948 0.0
O546 O 0.27976 0.8147 0.7689 0.0
O547 O 0.26284 0.77152 0.76724 0.0
O548 O 0.28251 0.79105 0.81137 0.0
O549 O 0.31365 0.82524 0.80718 0.0
O550 O 0.26616 0.72581 0.7807 0.0
O551 O 0.28211 0.74067 0.81482 0.0
O552 O 0.32656 0.77164 0.803 0.0
O553 O 0.34551 0.80198 0.7814 0.0
O554 O 0.31086 0.78807 0.74175 0.0
O555 O 0.30523 0.75188 0.75875 0.0
C556 C 0.26112 0.79413 0.76419 0.0
O557 O 0.34335 0.85161 0.77619 0.0
O558 O 0.31858 0.84106 0.74686 0.0
C559 C 0.29662 0.81404 0.81851 0.0
C560 C 0.27639 0.69746 0.80161 0.0
C561 C 0.29077 0.65459 0.79446 0.0
C562 C 0.26762 0.6521 0.78936 0.0
C563 C 0.26043 0.67344 0.79307 0.0
C564 C 0.29939 0.69971 0.80751 0.0
C565 C 0.30647 0.67837 0.80411 0.0
C566 C 0.26978 0.72041 0.80102 0.0
C567 C 0.3462 0.7861 0.79641 0.0
H568 H 0.33045 0.94089 0.7522 0.0
H569 H 0.34483 0.90499 0.74124 0.0
H570 H 0.30691 0.86374 0.79138 0.0
H571 H 0.29351 0.89929 0.80283 0.0
H572 H 0.25531 0.63388 0.78185 0.0
H573 H 0.24269 0.67148 0.7882 0.0
H574 H 0.31212 0.71815 0.8137 0.0
H575 H 0.32451 0.68079 0.80778 0.0
Tb576 Tb 0.54907 0.02846 0.05223 0.0
Tb577 Tb 0.56033 0.05631 0.00738 0.0
C578 C 0.59796 0.06061 0.04461 0.0
C579 C 0.52545 1.00115 0.10486 0.0
C580 C 0.49827 0.99185 0.14142 0.0
C581 C 0.52237 0.99889 0.145 0.0
C582 C 0.53576 1.00332 0.1269 0.0
C583 C 0.50141 0.99399 0.1011 0.0
C584 C 0.48796 0.98927 0.11918 0.0
C585 C 0.54001 1.0045 0.08601 0.0
O586 O 0.55173 0.06869 0.06443 0.0
O587 O 0.54901 0.08361 0.03008 0.0
O588 O 0.52663 0.02827 0.00137 0.0
O589 O 0.51771 0.03301 0.03749 0.0
O590 O 0.58424 0.07198 0.98506 0.0
O591 O 0.54945 0.07301 0.98073 0.0
O592 O 0.56697 0.0194 0.99844 0.0
O593 O 0.54774 0.99711 0.02543 0.0
O594 O 0.58565 0.038 0.049 0.0
O595 O 0.58822 0.07401 0.03355 0.0
C596 C 0.54935 0.08675 0.05255 0.0
O597 O 0.52969 0.99605 0.0656 0.0
O598 O 0.55654 0.02631 0.08681 0.0
C599 C 0.51148 0.02809 0.01562 0.0
C600 C 0.56741 0.06817 0.94741 0.0
C601 C 0.56536 0.05324 0.90034 0.0
C602 C 0.55368 0.06972 0.90864 0.0
C603 C 0.55471 0.07711 0.93195 0.0
C604 C 0.57888 0.05144 0.93917 0.0
C605 C 0.5779 0.04411 0.91589 0.0
C606 C 0.56892 0.07693 0.97189 0.0
C607 C 0.55781 0.99741 0.00648 0.0
H608 H 0.53106 1.0017 0.16188 0.0
H609 H 0.55425 0.00852 0.13015 0.0
H610 H 0.49295 0.99189 0.08419 0.0
H611 H 0.46948 0.98365 0.11568 0.0
H612 H 0.54367 0.07683 0.89711 0.0
H613 H 0.54568 0.08997 0.93793 0.0
H614 H 0.58882 0.04418 0.95065 0.0
H615 H 0.58738 0.03169 0.91006 0.0
Tb616 Tb 0.29074 0.26155 0.2701 0.0
Tb617 Tb 0.31465 0.31941 0.29189 0.0
C618 C 0.29148 0.30457 0.24015 0.0
C619 C 0.28963 0.19633 0.25444 0.0
C620 C 0.31375 0.16216 0.26 0.0
C621 C 0.29029 0.15277 0.25216 0.0
C622 C 0.27827 0.1699 0.24921 0.0
C623 C 0.31317 0.20552 0.26182 0.0
C624 C 0.32518 0.18857 0.2644 0.0
C625 C 0.27697 0.21448 0.25458 0.0
O626 O 0.32754 0.27134 0.26106 0.0
O627 O 0.34537 0.3118 0.27955 0.0
O628 O 0.32562 0.29842 0.31644 0.0
O629 O 0.29624 0.26109 0.30691 0.0
O630 O 0.33503 0.35722 0.29013 0.0
O631 O 0.31926 0.34689 0.3204 0.0
O632 O 0.27764 0.3101 0.30009 0.0
O633 O 0.25964 0.27009 0.28042 0.0
O634 O 0.28005 0.28147 0.24429 0.0
O635 O 0.30627 0.32127 0.25583 0.0
C636 C 0.34642 0.2918 0.26608 0.0
O637 O 0.27387 0.22342 0.27471 0.0
O638 O 0.28431 0.23277 0.24222 0.0
C639 C 0.31228 0.27689 0.32195 0.0
C640 C 0.32056 0.38614 0.30913 0.0
C641 C 0.3037 0.42493 0.29882 0.0
C642 C 0.32611 0.43127 0.3093 0.0
C643 C 0.33461 0.41179 0.31433 0.0
C644 C 0.29769 0.38005 0.30011 0.0
C645 C 0.2893 0.39936 0.29499 0.0
C646 C 0.33031 0.36562 0.30978 0.0
C647 C 0.25854 0.29005 0.29407 0.0
H648 H 0.28127 0.13235 0.24889 0.0
H649 H 0.26004 0.16256 0.24367 0.0
H650 H 0.3221 0.22577 0.26649 0.0
H651 H 0.34317 0.19607 0.2709 0.0
H652 H 0.33731 0.45102 0.31239 0.0
H653 H 0.35237 0.41663 0.32118 0.0
H654 H 0.28671 0.36031 0.29586 0.0
H655 H 0.27186 0.39427 0.28711 0.0
Tb656 Tb 0.54679 0.55542 0.05208 0.0
Tb657 Tb 0.54831 0.52092 0.00656 0.0
C658 C 0.50219 0.51631 0.02559 0.0
C659 C 0.55294 0.57682 0.11249 0.0
C660 C 0.56473 0.56819 0.15635 0.0
C661 C 0.55327 0.58594 0.15319 0.0
C662 C 0.54732 0.59018 0.13127 0.0
C663 C 0.5641 0.55895 0.11575 0.0
C664 C 0.56992 0.55467 0.13739 0.0
C665 C 0.54869 0.58222 0.08947 0.0
O666 O 0.55563 0.5225 0.06455 0.0
O667 O 0.54406 0.49385 0.03222 0.0
O668 O 0.5831 0.53559 0.02325 0.0
O669 O 0.57878 0.5725 0.03816 0.0
O670 O 0.53666 0.48535 0.98608 0.0
O671 O 0.56376 0.51691 0.9766 0.0
O672 O 0.54961 0.55866 0.99518 0.0
O673 O 0.53652 0.57647 0.02576 0.0
O674 O 0.51375 0.52554 0.04548 0.0
O675 O 0.51259 0.51892 0.00707 0.0
C676 C 0.54991 0.49852 0.05438 0.0
O677 O 0.56601 0.58455 0.07754 0.0
O678 O 0.52945 0.5677 0.07802 0.0
C679 C 0.59206 0.55992 0.03089 0.0
C680 C 0.53667 0.49077 0.94771 0.0
C681 C 0.51551 0.49336 0.90556 0.0
C682 C 0.53724 0.49028 0.90708 0.0
C683 C 0.54779 0.48901 0.92813 0.0
C684 C 0.51442 0.49232 0.94597 0.0
C685 C 0.50385 0.49336 0.92504 0.0
C686 C 0.54917 0.49406 0.97005 0.0
C687 C 0.54251 0.57721 0.00474 0.0
H688 H 0.54915 0.59664 0.16762 0.0
H689 H 0.53882 0.60416 0.129 0.0
H690 H 0.56918 0.54894 0.10159 0.0
H691 H 0.57934 0.54144 0.13925 0.0
H692 H 0.54662 0.49037 0.89231 0.0
H693 H 0.56503 0.48794 0.92927 0.0
H694 H 0.50555 0.49384 0.96091 0.0
H695 H 0.48692 0.49529 0.92425 0.0
Tb696 Tb 0.81419 0.31509 0.27364 0.0
Tb697 Tb 0.78809 0.26194 0.29097 0.0
C698 C 0.80523 0.26315 0.24353 0.0
C699 C 0.82595 0.3801 0.26321 0.0
C700 C 0.80812 0.42046 0.26618 0.0
C701 C 0.82813 0.4227 0.25545 0.0
C702 C 0.83696 0.40235 0.25379 0.0
C703 C 0.80634 0.37837 0.27442 0.0
C704 C 0.79741 0.39831 0.27576 0.0
C705 C 0.83382 0.35794 0.26108 0.0
O706 O 0.77735 0.31312 0.2687 0.0
O707 O 0.75993 0.27046 0.27106 0.0
O708 O 0.77929 0.28913 0.31366 0.0
O709 O 0.8083 0.3252 0.30842 0.0
O710 O 0.76622 0.22391 0.28328 0.0
O711 O 0.78058 0.23989 0.31767 0.0
O712 O 0.8244 0.27281 0.30719 0.0
O713 O 0.84277 0.30016 0.2832 0.0
O714 O 0.80448 0.28637 0.24403 0.0
O715 O 0.80505 0.25266 0.26211 0.0
C716 C 0.7585 0.29264 0.26588 0.0
O717 O 0.83958 0.35136 0.28027 0.0
O718 O 0.82024 0.33826 0.24756 0.0
C719 C 0.7919 0.3129 0.32001 0.0
C720 C 0.7805 0.19899 0.30475 0.0
C721 C 0.80026 0.16016 0.29999 0.0
C722 C 0.7776 0.15469 0.30582 0.0
C723 C 0.76771 0.17412 0.30816 0.0
C724 C 0.80335 0.20461 0.29999 0.0
C725 C 0.81313 0.18546 0.29762 0.0
C726 C 0.77014 0.21902 0.30377 0.0
C727 C 0.84387 0.28587 0.29945 0.0
H728 H 0.83664 0.4399 0.2482 0.0
H729 H 0.85216 0.40388 0.24513 0.0
H730 H 0.79782 0.3615 0.28207 0.0
H731 H 0.78216 0.39652 0.28444 0.0
H732 H 0.76735 0.13534 0.30779 0.0
H733 H 0.74999 0.16959 0.31179 0.0
H734 H 0.81335 0.22364 0.29695 0.0
H735 H 0.83037 0.19033 0.2925 0.0
Tb736 Tb 0.04463 0.52442 0.55692 0.0
Tb737 Tb 0.05352 0.55607 0.51485 0.0
C738 C 0.09421 0.55398 0.54617 0.0
C739 C 0.03726 0.50239 0.61424 0.0
C740 C 0.03469 0.50652 0.66126 0.0
C741 C 0.03784 0.48474 0.6497 0.0
C742 C 0.03923 0.48276 0.62631 0.0
C743 C 0.03526 0.5247 0.6259 0.0
C744 C 0.034 0.52675 0.64926 0.0
C745 C 0.03566 0.49842 0.58943 0.0
O746 O 0.04131 0.56227 0.57018 0.0
O747 O 0.05953 0.58657 0.54372 0.0
O748 O 0.02063 0.55232 0.52632 0.0
O749 O 0.01435 0.51193 0.53203 0.0
O750 O 0.07192 0.58616 0.49801 0.0
O751 O 0.03804 0.56078 0.48415 0.0
O752 O 0.04763 0.51544 0.49949 0.0
O753 O 0.05378 0.49822 0.53158 0.0
O754 O 0.08069 0.54812 0.56232 0.0
O755 O 0.08619 0.55264 0.52509 0.0
C756 C 0.05042 0.58501 0.56322 0.0
O757 O 0.02099 0.50679 0.57877 0.0
O758 O 0.05501 0.50358 0.58038 0.0
C759 C 1.00644 0.5293 0.52512 0.0
C760 C 0.06449 0.57527 0.45842 0.0
C761 C 0.0761 0.56106 0.41557 0.0
C762 C 0.05671 0.56882 0.41756 0.0
C763 C 0.05097 0.57593 0.43891 0.0
C764 C 0.08431 0.5684 0.45645 0.0
C765 C 0.09017 0.56154 0.43515 0.0
C766 C 0.05638 0.57905 0.48056 0.0
C767 C 0.05107 0.49634 0.50925 0.0
H768 H 0.03834 0.4689 0.6586 0.0
H769 H 0.04093 0.46548 0.61751 0.0
H770 H 0.03371 0.54006 0.61685 0.0
H771 H 0.03107 0.54352 0.65769 0.0
H772 H 0.04547 0.56838 0.40273 0.0
H773 H 0.03547 0.58095 0.44023 0.0
H774 H 0.0949 0.56756 0.47133 0.0
H775 H 0.10544 0.55607 0.43404 0.0
Tb776 Tb 0.82992 0.78212 0.28575 0.0
Tb777 Tb 0.77996 0.79173 0.27687 0.0
C778 C 0.78347 0.74155 0.29291 0.0
C779 C 0.88614 0.77401 0.27748 0.0
C780 C 0.92175 0.77377 0.25015 0.0
C781 C 0.91752 0.75872 0.26797 0.0
C782 C 0.89989 0.7589 0.28153 0.0
C783 C 0.89006 0.78884 0.2596 0.0
C784 C 0.90778 0.78883 0.24614 0.0
C785 C 0.86742 0.77363 0.29161 0.0
O786 O 0.81754 0.76664 0.2499 0.0
O787 O 0.78866 0.78373 0.24243 0.0
O788 O 0.80658 0.82698 0.27245 0.0
O789 O 0.83722 0.81318 0.26588 0.0
O790 O 0.74518 0.77991 0.2639 0.0
O791 O 0.76171 0.8173 0.28298 0.0
O792 O 0.78667 0.79397 0.31367 0.0
O793 O 0.8259 0.80434 0.31719 0.0
O794 O 0.80492 0.75344 0.30068 0.0
O795 O 0.77221 0.75124 0.27909 0.0
C796 C 0.80314 0.77214 0.2355 0.0
O797 O 0.86487 0.79575 0.29778 0.0
O798 O 0.84782 0.75573 0.28477 0.0
C799 C 0.82641 0.82973 0.26438 0.0
C800 C 0.72271 0.79753 0.28688 0.0
C801 C 0.68502 0.79275 0.31254 0.0
C802 C 0.68596 0.80333 0.29206 0.0
C803 C 0.70463 0.80568 0.27938 0.0
C804 C 0.7221 0.78725 0.30743 0.0
C805 C 0.7034 0.78491 0.3202 0.0
C806 C 0.74237 0.80077 0.27347 0.0
C807 C 0.80654 0.80244 0.32627 0.0
H808 H 0.92766 0.74657 0.27131 0.0
H809 H 0.89691 0.74712 0.29511 0.0
H810 H 0.87947 0.80049 0.25609 0.0
H811 H 0.91071 0.80092 0.23279 0.0
H812 H 0.67229 0.80994 0.28587 0.0
H813 H 0.70497 0.81396 0.2637 0.0
H814 H 0.73604 0.781 0.31354 0.0
H815 H 0.70312 0.77652 0.3358 0.0
Tb816 Tb 0.78622 0.29339 0.80229 0.0
Tb817 Tb 0.81354 0.28516 0.75813 0.0
C818 C 0.76908 0.30059 0.75318 0.0
C819 C 0.76041 0.28063 0.85546 0.0
C820 C 0.75483 0.25349 0.89302 0.0
C821 C 0.74767 0.27506 0.89278 0.0
C822 C 0.75038 0.2885 0.87406 0.0
C823 C 0.76722 0.25886 0.85546 0.0
C824 C 0.76435 0.24531 0.87405 0.0
C825 C 0.76413 0.29531 0.83625 0.0
O826 O 0.78344 0.25339 0.79646 0.0
O827 O 0.78509 0.24999 0.75822 0.0
O828 O 0.82844 0.27094 0.78583 0.0
O829 O 0.82093 0.29652 0.81496 0.0
O830 O 0.81337 0.26916 0.72461 0.0
O831 O 0.84516 0.2916 0.74447 0.0
O832 O 0.82964 0.32464 0.77378 0.0
O833 O 0.801 0.33166 0.79375 0.0
O834 O 0.76358 0.2921 0.77248 0.0
O835 O 0.78938 0.30337 0.74619 0.0
C836 C 0.77856 0.23964 0.77646 0.0
O837 O 0.78517 0.31002 0.83537 0.0
O838 O 0.75496 0.28222 0.8166 0.0
C839 C 0.83281 0.28237 0.80685 0.0
C840 C 0.84068 0.29799 0.70664 0.0
C841 C 0.84771 0.32838 0.67124 0.0
C842 C 0.85808 0.30925 0.67226 0.0
C843 C 0.85446 0.29404 0.68981 0.0
C844 C 0.83127 0.31778 0.70629 0.0
C845 C 0.83456 0.33267 0.6887 0.0
C846 C 0.83522 0.28123 0.72426 0.0
C847 C 0.82057 0.34008 0.78499 0.0
H848 H 0.74018 0.28165 0.90715 0.0
H849 H 0.74495 0.30521 0.87423 0.0
H850 H 0.7751 0.25261 0.84124 0.0
H851 H 0.77034 0.22899 0.87392 0.0
H852 H 0.86869 0.30577 0.65934 0.0
H853 H 0.86206 0.27899 0.69003 0.0
H854 H 0.82079 0.32127 0.71933 0.0
H855 H 0.82599 0.34686 0.68841 0.0
Tb856 Tb 0.79208 0.75861 0.77077 0.0
Tb857 Tb 0.81526 0.81719 0.79081 0.0
C858 C 0.79224 0.8004 0.73893 0.0
C859 C 0.79239 0.69453 0.75825 0.0
C860 C 0.81917 0.66339 0.76547 0.0
C861 C 0.79745 0.65294 0.75293 0.0
C862 C 0.7841 0.66858 0.7492 0.0
C863 C 0.81422 0.70493 0.77022 0.0
C864 C 0.8275 0.6896 0.77372 0.0
C865 C 0.77869 0.71135 0.75646 0.0
O866 O 0.82918 0.76784 0.76304 0.0
O867 O 0.84573 0.81005 0.77767 0.0
O868 O 0.82663 0.79718 0.81623 0.0
O869 O 0.79763 0.75937 0.80769 0.0
O870 O 0.83528 0.85493 0.78818 0.0
O871 O 0.82041 0.84514 0.81901 0.0
O872 O 0.77848 0.80775 0.79951 0.0
O873 O 0.76087 0.76775 0.77973 0.0
O874 O 0.7831 0.77673 0.74292 0.0
O875 O 0.80479 0.81863 0.75497 0.0
C876 C 0.8474 0.78913 0.76626 0.0
O877 O 0.77435 0.72085 0.77587 0.0
O878 O 0.78637 0.7291 0.74368 0.0
C879 C 0.81361 0.77581 0.82239 0.0
C880 C 0.81854 0.8822 0.80622 0.0
C881 C 0.79372 0.91587 0.80312 0.0
C882 C 0.81472 0.92373 0.81688 0.0
C883 C 0.82713 0.90678 0.8185 0.0
C884 C 0.79776 0.87458 0.79239 0.0
C885 C 0.78552 0.89129 0.79075 0.0
C886 C 0.83034 0.86362 0.80763 0.0
C887 C 0.75952 0.78764 0.79328 0.0
H888 H 0.79069 0.63272 0.74651 0.0
H889 H 0.76723 0.66039 0.73987 0.0
H890 H 0.82069 0.72481 0.7777 0.0
H891 H 0.84384 0.69812 0.78401 0.0
H892 H 0.8213 0.94269 0.82648 0.0
H893 H 0.84319 0.91272 0.82929 0.0
H894 H 0.79098 0.85561 0.78279 0.0
H895 H 0.76968 0.88498 0.77957 0.0
Tb896 Tb 0.57124 0.554 0.53542 0.0
Tb897 Tb 0.52115 0.51826 0.509 0.0
C898 C 0.5293 0.54072 0.56089 0.0
C899 C 0.63021 0.56584 0.55186 0.0
C900 C 0.66421 0.54243 0.55021 0.0
C901 C 0.67002 0.56852 0.55884 0.0
C902 C 0.65304 0.58025 0.55954 0.0
C903 C 0.62446 0.53978 0.54362 0.0
C904 C 0.64126 0.52819 0.54275 0.0
C905 C 0.61198 0.57733 0.55132 0.0
O906 O 0.5637 0.51613 0.54629 0.0
O907 O 0.53875 0.49088 0.51607 0.0
O908 O 0.54556 0.52999 0.48402 0.0
O909 O 0.5742 0.52801 0.50788 0.0
O910 O 0.49167 0.48557 0.50559 0.0
O911 O 0.49483 0.51425 0.48329 0.0
O912 O 0.52023 0.55715 0.51662 0.0
O913 O 0.55845 0.5779 0.51517 0.0
O914 O 0.5467 0.56001 0.55702 0.0
O915 O 0.51884 0.52124 0.54525 0.0
C916 C 0.55319 0.49356 0.53423 0.0
O917 O 0.6039 0.57862 0.53089 0.0
O918 O 0.59557 0.56787 0.56392 0.0
C919 C 0.56666 0.52999 0.48773 0.0
C920 C 0.45986 0.49929 0.49869 0.0
C921 C 0.42427 0.51721 0.51236 0.0
C922 C 0.42438 0.50781 0.4895 0.0
C923 C 0.44209 0.49891 0.48271 0.0
C924 C 0.45918 0.50765 0.52165 0.0
C925 C 0.44153 0.5164 0.52842 0.0
C926 C 0.48078 0.49498 0.49132 0.0
C927 C 0.53704 0.57758 0.5133 0.0
H928 H 0.68767 0.57988 0.56459 0.0
H929 H 0.65771 0.60043 0.56584 0.0
H930 H 0.60693 0.52834 0.53765 0.0
H931 H 0.63625 0.50799 0.53636 0.0
H932 H 0.41117 0.50805 0.4768 0.0
H933 H 0.44244 0.49281 0.46491 0.0
H934 H 0.47289 0.5086 0.53428 0.0
H935 H 0.44213 0.52388 0.54607 0.0
Tb936 Tb 0.01808 0.53445 0.02357 0.0
Tb937 Tb 0.07228 0.54215 0.01444 0.0
C938 C 0.05666 0.54061 0.06113 0.0
C939 C 0.96649 0.55156 0.03706 0.0
C940 C 0.94242 0.58626 0.04765 0.0
C941 C 0.93765 0.56334 0.05741 0.0
C942 C 0.94949 0.54614 0.05207 0.0
C943 C 0.97206 0.57493 0.02814 0.0
C944 C 0.96011 0.59199 0.03327 0.0
C945 C 0.97751 0.53235 0.03 0.0
O946 O 0.03446 0.57499 0.02155 0.0
O947 O 0.07281 0.58004 0.02964 0.0
O948 O 0.05641 0.55419 0.9866 0.0
O949 O 0.02061 0.52573 0.98757 0.0
O950 O 0.10701 0.55262 0.02705 0.0
O951 O 0.09584 0.53758 0.99177 0.0
O952 O 0.05273 0.50182 0.0038 0.0
O953 O 0.02072 0.49623 0.02334 0.0
O954 O 0.03958 0.54858 0.05552 0.0
O955 O 0.06445 0.52776 0.04593 0.0
C956 C 0.05571 0.58944 0.02883 0.0
O957 O 0.98566 0.53369 0.01035 0.0
O958 O 0.99155 0.52822 0.04521 0.0
C959 C 0.0364 0.53992 0.97634 0.0
C960 C 0.12556 0.52544 0.00891 0.0
C961 C 0.1515 0.49173 0.00996 0.0
C962 C 0.14926 0.50338 0.99051 0.0
C963 C 0.13654 0.5201 0.99005 0.0
C964 C 0.12707 0.51321 0.02814 0.0
C965 C 0.13995 0.49655 0.02867 0.0
C966 C 0.11262 0.54365 0.00795 0.0
C967 C 0.03445 0.48692 0.01177 0.0
H968 H 0.92455 0.55846 0.06897 0.0
H969 H 0.94506 0.52834 0.05932 0.0
H970 H 0.98522 0.57972 0.01661 0.0
H971 H 0.96419 0.60918 0.02516 0.0
H972 H 0.1575 0.49974 0.97562 0.0
H973 H 0.1354 0.52904 0.97494 0.0
H974 H 0.11856 0.51673 0.04289 0.0
H975 H 0.14142 0.48808 0.04398 0.0
H976 H 0.96886 0.18274 0.98017 0.0
H977 H 0.06787 0.12048 0.00106 0.0
H978 H 0.03672 0.21264 0.95867 0.0
H979 H 0.99663 0.08223 0.00939 0.0
H980 H 0.0576 0.15646 0.98905 0.0
H981 H 0.97972 0.14831 0.99487 0.0
C982 C 0.98614 0.18231 0.97875 0.0
C983 C 1.00186 0.20073 0.96806 0.0
C984 C 0.04421 0.14022 0.99353 0.0
C985 C 0.01438 0.16107 0.98485 0.0
C986 C 0.05007 0.11963 0.00046 0.0
C987 C 0.03314 0.09819 0.00633 0.0
C988 C 0.02123 0.13959 0.99256 0.0
C989 C 0.01033 0.09828 0.00505 0.0
C990 C 0.99227 0.16249 0.98705 0.0
C991 C 0.02396 0.19893 0.96669 0.0
N992 N 1.00508 0.11862 0.99837 0.0
N993 N 0.02952 0.17949 0.97492 0.0
H994 H 0.15541 0.84737 0.21391 0.0
H995 H 0.25972 0.79143 0.20904 0.0
H996 H 0.17031 0.81098 0.15189 0.0
H997 H 0.24341 0.82938 0.26949 0.0
H998 H 0.22876 0.80013 0.18711 0.0
H999 H 0.18912 0.84275 0.23365 0.0
C1000 C 0.1659 0.83859 0.20432 0.0
C1001 C 0.15989 0.82948 0.18114 0.0
C1002 C 0.23206 0.80662 0.20516 0.0
C1003 C 0.19882 0.82396 0.20392 0.0
C1004 C 0.24972 0.80165 0.21771 0.0
C1005 C 0.25415 0.80954 0.24123 0.0
C1006 C 0.21866 0.81949 0.21619 0.0
C1007 C 0.24069 0.82286 0.25145 0.0
C1008 C 0.18522 0.83591 0.21569 0.0
C1009 C 0.17426 0.81826 0.16976 0.0
N1010 N 0.22356 0.82727 0.23892 0.0
N1011 N 0.19301 0.81568 0.18129 0.0
H1012 H 0.51348 0.84811 0.44299 0.0
H1013 H 0.55206 0.95036 0.55179 0.0
H1014 H 0.50264 0.82086 0.50775 0.0
H1015 H 0.50507 0.9577 0.49842 0.0
H1016 H 0.54525 0.90582 0.53466 0.0
H1017 H 0.52233 0.89221 0.46177 0.0
C1018 C 0.51352 0.85149 0.46123 0.0
C1019 C 0.5075 0.8309 0.4739 0.0
C1020 C 0.53642 0.91728 0.52688 0.0
C1021 C 0.51788 0.88111 0.49538 0.0
C1022 C 0.54027 0.9426 0.53658 0.0
C1023 C 0.52887 0.95764 0.52668 0.0
C1024 C 0.52178 0.90739 0.50673 0.0
C1025 C 0.51394 0.9467 0.50682 0.0
C1026 C 0.51836 0.87655 0.47185 0.0
C1027 C 0.5073 0.83627 0.49744 0.0
N1028 N 0.51106 0.92238 0.49734 0.0
N1029 N 0.51261 0.86093 0.5075 0.0
H1030 H 0.51691 0.30234 0.64323 0.0
H1031 H 0.46614 0.27216 0.76045 0.0
H1032 H 0.55443 0.28433 0.69889 0.0
H1033 H 0.42812 0.28695 0.7033 0.0
H1034 H 0.49722 0.27246 0.73707 0.0
H1035 H 0.48294 0.29211 0.66351 0.0
C1036 C 0.51797 0.29581 0.65956 0.0
C1037 C 0.53867 0.29432 0.66938 0.0
C1038 C 0.48203 0.27549 0.7296 0.0
C1039 C 0.49973 0.28315 0.69308 0.0
C1040 C 0.46419 0.27523 0.74292 0.0
C1041 C 0.44447 0.27967 0.73389 0.0
C1042 C 0.48026 0.28038 0.70708 0.0
C1043 C 0.44315 0.28391 0.71113 0.0
C1044 C 0.49849 0.2901 0.67123 0.0
C1045 C 0.53887 0.28585 0.69071 0.0
N1046 N 0.46084 0.28429 0.69856 0.0
N1047 N 0.51975 0.28088 0.70198 0.0
H1048 H 0.05424 0.89262 0.65987 0.0
H1049 H 0.04747 0.94711 0.53864 0.0
H1050 H 0.03062 0.84395 0.59614 0.0
H1051 H 0.05007 0.9938 0.60181 0.0
H1052 H 0.04612 0.91096 0.55956 0.0
H1053 H 0.05758 0.93035 0.63986 0.0
C1054 C 0.05022 0.88967 0.64165 0.0
C1055 C 0.0424 0.86437 0.62998 0.0
C1056 C 0.04702 0.92905 0.569 0.0
C1057 C 0.04622 0.90862 0.60636 0.0
C1058 C 0.04785 0.95007 0.55692 0.0
C1059 C 0.04889 0.97433 0.56802 0.0
C1060 C 0.04748 0.93155 0.5929 0.0
C1061 C 0.04931 0.97595 0.59204 0.0
C1062 C 0.05192 0.91147 0.63013 0.0
C1063 C 0.03692 0.86262 0.60623 0.0
N1064 N 0.0487 0.95527 0.60341 0.0
N1065 N 0.03908 0.88397 0.59549 0.0
H1066 H 0.49573 0.80493 0.82747 0.0
H1067 H 0.35599 0.7571 0.82935 0.0
H1068 H 0.46144 0.75531 0.87418 0.0
H1069 H 0.39153 0.81157 0.78681 0.0
H1070 H 0.39332 0.75541 0.84513 0.0
H1071 H 0.45833 0.80687 0.81238 0.0
C1072 C 0.48047 0.79442 0.83478 0.0
C1073 C 0.48259 0.77999 0.85254 0.0
C1074 C 0.39311 0.76778 0.83234 0.0
C1075 C 0.43812 0.78199 0.83451 0.0
C1076 C 0.37148 0.76878 0.82314 0.0
C1077 C 0.36976 0.78456 0.80635 0.0
C1078 C 0.41405 0.78256 0.82497 0.0
C1079 C 0.39124 0.79902 0.79954 0.0
C1080 C 0.4588 0.79554 0.82596 0.0
C1081 C 0.4614 0.76688 0.86071 0.0
N1082 N 0.41195 0.79762 0.80866 0.0
N1083 N 0.44054 0.76815 0.85175 0.0
H1084 H 0.5607 0.22476 0.15017 0.0
H1085 H 0.53425 0.12378 0.03496 0.0
H1086 H 0.51501 0.22617 0.09317 0.0
H1087 H 0.55955 0.10736 0.09847 0.0
H1088 H 0.53113 0.16356 0.05468 0.0
H1089 H 0.56471 0.18512 0.13065 0.0
C1090 C 0.55173 0.2171 0.13345 0.0
C1091 C 0.53753 0.22947 0.12352 0.0
C1092 C 0.53739 0.15133 0.06439 0.0
C1093 C 0.5422 0.18325 0.10062 0.0
C1094 C 0.53923 0.1284 0.05304 0.0
C1095 C 0.54715 0.11156 0.06479 0.0
C1096 C 0.54391 0.15838 0.08791 0.0
C1097 C 0.55324 0.11926 0.08841 0.0
C1098 C 0.55391 0.19416 0.12231 0.0
C1099 C 0.5262 0.2178 0.10178 0.0
N1100 N 0.55166 0.14186 0.09897 0.0
N1101 N 0.52888 0.19582 0.09121 0.0
H1102 H 0.11247 0.23963 0.32478 0.0
H1103 H 0.24716 0.32633 0.3244 0.0
H1104 H 0.13988 0.31324 0.36587 0.0
H1105 H 0.21504 0.25186 0.28597 0.0
H1106 H 0.21004 0.32348 0.33959 0.0
H1107 H 0.1499 0.24525 0.31124 0.0
C1108 C 0.12622 0.2572 0.3312 0.0
C1109 C 0.12186 0.27584 0.34692 0.0
C1110 C 0.21098 0.30772 0.3278 0.0
C1111 C 0.16705 0.28259 0.33051 0.0
C1112 C 0.23247 0.30934 0.31892 0.0
C1113 C 0.23511 0.28939 0.30341 0.0
C1114 C 0.19114 0.28587 0.32145 0.0
C1115 C 0.21467 0.26802 0.29759 0.0
C1116 C 0.14806 0.26036 0.32321 0.0
C1117 C 0.14151 0.29798 0.35395 0.0
N1118 N 0.19419 0.26696 0.30641 0.0
N1119 N 0.16279 0.30063 0.34581 0.0
H1120 H 0.94652 0.99283 0.15743 0.0
H1121 H 0.02133 0.08389 0.0824 0.0
H1122 H 0.94445 0.06977 0.15744 0.0
H1123 H 1.00021 1.0012 0.06987 0.0
H1124 H 0.98927 0.07982 0.10611 0.0
H1125 H 0.96114 0.99479 0.12078 0.0
C1126 C 0.94866 0.00994 0.14944 0.0
C1127 C 0.94505 0.03146 0.16069 0.0
C1128 C 0.99161 0.06272 0.0977 0.0
C1129 C 0.96226 0.03421 0.11903 0.0
C1130 C 0.01005 0.06508 0.08464 0.0
C1131 C 0.01392 0.04294 0.07502 0.0
C1132 C 0.97744 0.03812 0.10093 0.0
C1133 C 0.99832 0.01891 0.07742 0.0
C1134 C 0.95698 0.01111 0.12844 0.0
C1135 C 0.9477 0.05302 0.14946 0.0
N1136 N 0.98096 0.01719 0.09026 0.0
N1137 N 0.95687 0.05419 0.1294 0.0
H1138 H 0.24616 0.64683 0.48775 0.0
H1139 H 0.26754 0.77874 0.43687 0.0
H1140 H 0.30082 0.71686 0.5136 0.0
H1141 H 0.23735 0.70526 0.39563 0.0
H1142 H 0.2701 0.75691 0.46983 0.0
H1143 H 0.23386 0.66902 0.45843 0.0
C1144 C 0.25527 0.66698 0.48751 0.0
C1145 C 0.27465 0.68005 0.50293 0.0
C1146 C 0.26266 0.74559 0.45361 0.0
C1147 C 0.26058 0.7054 0.46986 0.0
C1148 C 0.26099 0.75801 0.43481 0.0
C1149 C 0.25241 0.74381 0.41339 0.0
C1150 C 0.25559 0.71877 0.45106 0.0
C1151 C 0.24443 0.71694 0.41177 0.0
C1152 C 0.24833 0.67953 0.47076 0.0
C1153 C 0.28596 0.70606 0.50185 0.0
N1154 N 0.24635 0.70525 0.43035 0.0
N1155 N 0.27877 0.71788 0.48557 0.0
H1156 H 0.65679 0.07698 0.67754 0.0
H1157 H 0.53619 0.00713 0.61869 0.0
H1158 H 0.61521 1.00113 0.68759 0.0
H1159 H 0.57501 0.08586 0.61458 0.0
H1160 H 0.5573 0.01056 0.65559 0.0
H1161 H 0.62197 0.08633 0.6662 0.0
C1162 C 0.64019 0.06258 0.67793 0.0
C1163 C 0.63863 0.03825 0.68325 0.0
C1164 C 0.56071 0.02739 0.64701 0.0
C1165 C 0.59887 0.04829 0.66967 0.0
C1166 C 0.54853 0.02541 0.626 0.0
C1167 C 0.55484 0.04585 0.61332 0.0
C1168 C 0.57943 0.04972 0.65474 0.0
C1169 C 0.5705 0.06931 0.62359 0.0
C1170 C 0.62029 0.06788 0.67158 0.0
C1171 C 0.61694 0.02014 0.68357 0.0
N1172 N 0.58284 0.07043 0.64346 0.0
N1173 N 0.59785 0.02533 0.67637 0.0
H1174 H 0.33358 0.30885 0.9738 0.0
H1175 H 0.27061 0.30461 0.85052 0.0
H1176 H 0.27595 0.336 0.96466 0.0
H1177 H 0.33794 0.29777 0.86149 0.0
H1178 H 0.26935 0.31103 0.89178 0.0
H1179 H 0.33184 0.2987 0.93275 0.0
C1180 C 0.32026 0.31235 0.96327 0.0
C1181 C 0.30492 0.32347 0.97307 0.0
C1182 C 0.28441 0.30815 0.88517 0.0
C1183 C 0.30304 0.31193 0.92534 0.0
C1184 C 0.28518 0.30449 0.86154 0.0
C1185 C 0.30456 0.30091 0.85228 0.0
C1186 C 0.30297 0.3078 0.8999 0.0
C1187 C 0.32278 0.30082 0.86765 0.0
C1188 C 0.31943 0.30668 0.93967 0.0
C1189 C 0.28816 0.32747 0.95813 0.0
N1190 N 0.32148 0.30408 0.89052 0.0
N1191 N 0.28773 0.32182 0.93513 0.0
H1192 H 0.99 0.01529 0.26469 0.0
H1193 H 1.00607 0.03653 0.40013 0.0
H1194 H 0.96614 0.06714 0.30758 0.0
H1195 H 0.02207 0.97544 0.3612 0.0
H1196 H 0.99283 0.04851 0.36539 0.0
H1197 H 1.00403 1.00127 0.29893 0.0
C1198 C 0.98798 0.02388 0.28127 0.0
C1199 C 0.97696 0.04236 0.28345 0.0
C1200 C 0.99908 0.03236 0.3643 0.0
C1201 C 0.9926 0.02649 0.32218 0.0
C1202 C 1.00648 0.02535 0.38422 0.0
C1203 C 0.01494 0.00475 0.38357 0.0
C1204 C 1.00024 0.01884 0.3434 0.0
C1205 C 0.01573 0.99151 0.36238 0.0
C1206 C 0.99577 0.01576 0.3007 0.0
C1207 C 0.97444 0.05273 0.30517 0.0
N1208 N 0.00844 0.9988 0.34302 0.0
N1209 N 0.98217 0.04464 0.32363 0.0
H1210 H 0.33294 0.7177 0.6039 0.0
H1211 H 0.29299 0.71186 0.72845 0.0
H1212 H 0.27903 0.65326 0.62153 0.0
H1213 H 0.32617 0.78294 0.7029 0.0
H1214 H 0.2919 0.68867 0.69086 0.0
H1215 H 0.33443 0.7407 0.64157 0.0
C1216 C 0.3214 0.70838 0.61568 0.0
C1217 C 0.30584 0.68349 0.60953 0.0
C1218 C 0.29945 0.70934 0.69354 0.0
C1219 C 0.30768 0.70964 0.65278 0.0
C1220 C 0.30025 0.72257 0.71501 0.0
C1221 C 0.30969 0.74939 0.71881 0.0
C1222 C 0.30847 0.72298 0.67585 0.0
C1223 C 0.31866 0.76228 0.70071 0.0
C1224 C 0.32224 0.72155 0.63716 0.0
C1225 C 0.29123 0.67245 0.62549 0.0
N1226 N 0.3179 0.74895 0.68004 0.0
N1227 N 0.29262 0.68552 0.64645 0.0
H1228 H 0.58164 0.97569 0.77429 0.0
H1229 H 0.56899 0.08381 0.8665 0.0
H1230 H 0.59884 0.05473 0.76365 0.0
H1231 H 0.56114 0.00621 0.87772 0.0
H1232 H 0.57197 0.07217 0.82628 0.0
H1233 H 0.56514 0.98502 0.80886 0.0
C1234 C 0.58116 0.99489 0.7789 0.0
C1235 C 0.59143 0.01446 0.76615 0.0
C1236 C 0.56935 0.05766 0.83752 0.0
C1237 C 0.5735 0.02563 0.80625 0.0
C1238 C 0.56756 0.06424 0.86046 0.0
C1239 C 0.56509 0.04602 0.87558 0.0
C1240 C 0.56857 0.03267 0.82964 0.0
C1241 C 0.5635 0.02102 0.86681 0.0
C1242 C 0.57199 1.0003 0.79878 0.0
C1243 C 0.59077 0.0391 0.77295 0.0
N1244 N 0.56543 0.01516 0.8445 0.0
N1245 N 0.58233 0.04414 0.79285 0.0
H1246 H 0.33586 0.33845 0.11056 0.0
H1247 H 0.25752 0.28104 0.20455 0.0
H1248 H 0.26272 0.32171 0.0971 0.0
H1249 H 0.32239 0.34191 0.2208 0.0
H1250 H 0.25836 0.28869 0.16453 0.0
H1251 H 0.33091 0.33176 0.14982 0.0
C1252 C 0.3186 0.33291 0.11566 0.0
C1253 C 0.29966 0.3305 0.1001 0.0
C1254 C 0.27222 0.30054 0.17697 0.0
C1255 C 0.29393 0.32264 0.14582 0.0
C1256 C 0.27179 0.29622 0.19985 0.0
C1257 C 0.28988 0.31091 0.21632 0.0
C1258 C 0.29121 0.31916 0.17028 0.0
C1259 C 0.30795 0.33017 0.20896 0.0
C1260 C 0.31588 0.32935 0.1383 0.0
C1261 C 0.27784 0.3237 0.10829 0.0
N1262 N 0.30831 0.3334 0.1866 0.0
N1263 N 0.27554 0.31976 0.1305 0.0
H1264 H 0.28606 0.99569 0.07546 0.0
H1265 H 0.16304 0.99738 0.0275 0.0
H1266 H 0.24704 0.94794 0.015 0.0
H1267 H 0.20761 0.05292 0.08085 0.0
H1268 H 0.19019 0.97353 0.0272 0.0
H1269 H 0.25376 0.01068 0.08244 0.0
C1270 C 0.27055 0.98801 0.06384 0.0
C1271 C 0.26937 0.97089 0.04438 0.0
C1272 C 0.19395 0.99086 0.03906 0.0
C1273 C 0.23241 0.98814 0.0522 0.0
C1274 C 0.17856 1.00455 0.03914 0.0
C1275 C 0.18329 0.02737 0.05399 0.0
C1276 C 0.21427 1.00015 0.05385 0.0
C1277 C 0.20332 0.03543 0.06912 0.0
C1278 C 0.25214 0.99668 0.0678 0.0
C1279 C 0.24879 0.96147 0.03001 0.0
N1280 N 0.21819 0.02197 0.06851 0.0
N1281 N 0.23118 0.97046 0.03407 0.0
H1282 H 0.73518 0.60762 0.00492 0.0
H1283 H 0.61336 0.61149 0.03976 0.0
H1284 H 0.72045 0.67743 0.02403 0.0
H1285 H 0.62603 0.54135 0.01673 0.0
H1286 H 0.6527 0.63566 0.03448 0.0
H1287 H 0.6955 0.58297 0.00914 0.0
C1288 C 0.72357 0.61781 0.00986 0.0
C1289 C 0.73119 0.64468 0.01417 0.0
C1290 C 0.64696 0.61499 0.03062 0.0
C1291 C 0.68568 0.61646 0.01914 0.0
C1292 C 0.62447 0.60109 0.03372 0.0
C1293 C 0.61636 0.57427 0.02873 0.0
C1294 C 0.66163 0.60206 0.02256 0.0
C1295 C 0.63156 0.56198 0.02082 0.0
C1296 C 0.7009 0.60367 0.01231 0.0
C1297 C 0.71535 0.65677 0.02057 0.0
N1298 N 0.65351 0.57599 0.01799 0.0
N1299 N 0.69337 0.64256 0.02292 0.0
H1300 H 0.75524 0.51538 0.34733 0.0
H1301 H 0.76795 0.42008 0.24533 0.0
H1302 H 0.70252 0.48011 0.29161 0.0
H1303 H 0.82472 0.46575 0.29369 0.0
H1304 H 0.74541 0.44659 0.2588 0.0
H1305 H 0.78227 0.501 0.32595 0.0
C1306 C 0.74934 0.5046 0.33062 0.0
C1307 C 0.72652 0.4986 0.32137 0.0
C1308 C 0.76302 0.45139 0.26606 0.0
C1309 C 0.75737 0.48239 0.29675 0.0
C1310 C 0.77591 0.43644 0.25819 0.0
C1311 C 0.7981 0.44101 0.26844 0.0
C1312 C 0.77232 0.47058 0.28463 0.0
C1313 C 0.80766 0.46193 0.28533 0.0
C1314 C 0.76485 0.49664 0.31832 0.0
C1315 C 0.71991 0.48497 0.2995 0.0
N1316 N 0.79451 0.47572 0.29329 0.0
N1317 N 0.73522 0.47711 0.28802 0.0
H1318 H 0.87731 0.53272 0.48237 0.0
H1319 H 0.97844 0.48254 0.50347 0.0
H1320 H 0.87527 0.45711 0.45524 0.0
H1321 H 0.98495 0.56263 0.51469 0.0
H1322 H 0.94274 0.47431 0.47905 0.0
H1323 H 0.91903 0.54723 0.48374 0.0
C1324 C 0.8856 0.51953 0.47539 0.0
C1325 C 0.87322 0.49349 0.46977 0.0
C1326 C 0.95218 0.49375 0.48661 0.0
C1327 C 0.92057 0.50929 0.47246 0.0
C1328 C 0.97227 0.49831 0.50087 0.0
C1329 C 0.9843 0.52315 0.51143 0.0
C1330 C 0.94402 0.51416 0.48324 0.0
C1331 C 0.97598 0.54309 0.50708 0.0
C1332 C 0.90952 0.52764 0.47663 0.0
C1333 C 0.8846 0.47722 0.46058 0.0
N1334 N 0.95623 0.53812 0.49354 0.0
N1335 N 0.90786 0.48503 0.46322 0.0
H1336 H 0.42582 0.1063 0.28402 0.0
H1337 H 0.30825 0.1356 0.29579 0.0
H1338 H 0.38793 0.09412 0.34269 0.0
H1339 H 0.34852 0.15217 0.23945 0.0
H1340 H 0.33509 0.11594 0.31144 0.0
H1341 H 0.39616 0.12012 0.26617 0.0
C1342 C 0.41138 0.10676 0.29328 0.0
C1343 C 0.40943 0.09914 0.31498 0.0
C1344 C 0.33783 0.12338 0.29542 0.0
C1345 C 0.37522 0.11469 0.29442 0.0
C1346 C 0.32238 0.13426 0.28639 0.0
C1347 C 0.32621 0.14507 0.26627 0.0
C1348 C 0.35717 0.12345 0.28415 0.0
C1349 C 0.34503 0.14371 0.25493 0.0
C1350 C 0.39435 0.11449 0.28297 0.0
C1351 C 0.39017 0.09988 0.32598 0.0
N1352 N 0.35994 0.1332 0.26411 0.0
N1353 N 0.3738 0.10754 0.31556 0.0
H1354 H 0.33176 0.15137 0.56459 0.0
H1355 H 0.44747 0.12947 0.52819 0.0
H1356 H 0.37555 0.19802 0.521 0.0
H1357 H 0.3992 0.08069 0.56707 0.0
H1358 H 0.42385 0.15753 0.5281 0.0
H1359 H 0.35943 0.12902 0.56952 0.0
C1360 C 0.34739 0.15719 0.5563 0.0
C1361 C 0.35122 0.17644 0.54218 0.0
C1362 C 0.41857 0.14077 0.53677 0.0
C1363 C 0.38295 0.15051 0.54744 0.0
C1364 C 0.43195 0.12462 0.53669 0.0
C1365 C 0.4254 0.10262 0.5477 0.0
C1366 C 0.39849 0.13488 0.54791 0.0
C1367 C 0.40524 0.09758 0.55868 0.0
C1368 C 0.36317 0.1443 0.55903 0.0
C1369 C 0.37186 0.18322 0.53198 0.0
N1370 N 0.39256 0.1135 0.55845 0.0
N1371 N 0.38685 0.17006 0.53459 0.0
H1372 H 0.69022 0.59472 0.31215 0.0
H1373 H 0.79895 0.72127 0.32757 0.0
H1374 H 0.74235 0.61565 0.36918 0.0
H1375 H 0.74067 0.70743 0.2781 0.0
H1376 H 0.77893 0.68194 0.34227 0.0
H1377 H 0.70878 0.63544 0.29896 0.0
C1378 C 0.70552 0.60791 0.322 0.0
C1379 C 0.71482 0.6017 0.34179 0.0
C1380 C 0.77049 0.68751 0.32824 0.0
C1381 C 0.73619 0.64832 0.32661 0.0
C1382 C 0.78195 0.7099 0.31972 0.0
C1383 C 0.77147 0.71754 0.30148 0.0
C1384 C 0.74846 0.67255 0.31837 0.0
C1385 C 0.74936 0.70219 0.29216 0.0
C1386 C 0.71608 0.6312 0.31442 0.0
C1387 C 0.73463 0.61962 0.35382 0.0
N1388 N 0.73859 0.68028 0.30067 0.0
N1389 N 0.74476 0.64212 0.34594 0.0
H1390 H 0.91815 0.49109 0.78312 0.0
H1391 H 0.81716 0.37555 0.81885 0.0
H1392 H 0.89862 0.4892 0.85139 0.0
H1393 H 0.85456 0.36716 0.76133 0.0
H1394 H 0.84226 0.42011 0.8281 0.0
H1395 H 0.89048 0.44814 0.77225 0.0
C1396 C 0.90802 0.48167 0.79583 0.0
C1397 C 0.91078 0.4937 0.81825 0.0
C1398 C 0.84485 0.40851 0.81339 0.0
C1399 C 0.87896 0.4447 0.8058 0.0
C1400 C 0.83045 0.38317 0.808 0.0
C1401 C 0.83389 0.36763 0.78937 0.0
C1402 C 0.86256 0.41842 0.79987 0.0
C1403 C 0.85145 0.37844 0.77597 0.0
C1404 C 0.89228 0.45715 0.7896 0.0
C1405 C 0.8972 0.48055 0.83398 0.0
N1406 N 0.86515 0.4032 0.78148 0.0
N1407 N 0.88179 0.45676 0.82743 0.0
H1408 H 0.1119 0.89398 0.1093 0.0
H1409 H 0.03864 0.94242 0.02004 0.0
H1410 H 0.06161 0.84427 0.05671 0.0
H1411 H 0.09385 0.9941 0.06731 0.0
H1412 H 0.04875 0.90644 0.03208 0.0
H1413 H 0.10882 0.93115 0.09212 0.0
C1414 C 0.10089 0.89084 0.09366 0.0
C1415 C 0.08695 0.866 0.08444 0.0
C1416 C 0.05882 0.92567 0.03968 0.0
C1417 C 0.08273 0.90834 0.06514 0.0
C1418 C 0.05299 0.94627 0.03282 0.0
C1419 C 0.06539 0.97142 0.04257 0.0
C1420 C 0.07718 0.93011 0.05652 0.0
C1421 C 0.08374 0.97508 0.05926 0.0
C1422 C 0.09886 0.91208 0.08404 0.0
C1423 C 0.07261 0.8631 0.06442 0.0
N1424 N 0.089 0.95469 0.06576 0.0
N1425 N 0.07064 0.88395 0.05566 0.0
H1426 H 0.92258 0.2278 0.89077 0.0
H1427 H 0.86139 0.31829 0.83953 0.0
H1428 H 0.96009 0.30666 0.8854 0.0
H1429 H 0.84687 0.24046 0.80827 0.0
H1430 H 0.89277 0.31395 0.86433 0.0
H1431 H 0.88922 0.23183 0.86857 0.0
C1432 C 0.9236 0.24607 0.88533 0.0
C1433 C 0.94403 0.26695 0.88989 0.0
C1434 C 0.88262 0.29783 0.8521 0.0
C1435 C 0.90617 0.27167 0.86483 0.0
C1436 C 0.86473 0.30024 0.83801 0.0
C1437 C 0.85164 0.27971 0.82182 0.0
C1438 C 0.88699 0.2745 0.85042 0.0
C1439 C 0.85673 0.25678 0.82044 0.0
C1440 C 0.90472 0.24826 0.87252 0.0
C1441 C 0.94463 0.29012 0.8822 0.0
N1442 N 0.87392 0.25468 0.83473 0.0
N1443 N 0.92593 0.29191 0.87014 0.0
H1444 H 0.60473 0.2461 0.61277 0.0
H1445 H 0.5262 0.11358 0.54388 0.0
H1446 H 0.5442 0.23677 0.56783 0.0
H1447 H 0.59651 0.12499 0.56801 0.0
H1448 H 0.53298 0.15909 0.55399 0.0
H1449 H 0.60307 0.2025 0.59774 0.0
C1450 C 0.59133 0.23511 0.59955 0.0
C1451 C 0.57439 0.24504 0.59177 0.0
C1452 C 0.54709 0.15184 0.55688 0.0
C1453 C 0.57234 0.1953 0.57475 0.0
C1454 C 0.54318 0.1258 0.55114 0.0
C1455 C 0.56085 0.11558 0.55502 0.0
C1456 C 0.56873 0.16789 0.56705 0.0
C1457 C 0.58253 0.13227 0.56452 0.0
C1458 C 0.59039 0.21024 0.59102 0.0
C1459 C 0.55744 0.22989 0.57464 0.0
N1460 N 0.58583 0.15766 0.57051 0.0
N1461 N 0.55674 0.20581 0.56692 0.0
H1462 H 0.54575 0.75319 0.34685 0.0
H1463 H 0.68323 0.80155 0.35875 0.0
H1464 H 0.58613 0.78793 0.41074 0.0
H1465 H 0.63996 0.77563 0.29538 0.0
H1466 H 0.64868 0.79542 0.37886 0.0
H1467 H 0.58078 0.76011 0.32854 0.0
C1468 C 0.56203 0.76231 0.3571 0.0
C1469 C 0.56294 0.76998 0.38043 0.0
C1470 C 0.64683 0.79117 0.36055 0.0
C1471 C 0.60351 0.778 0.35934 0.0
C1472 C 0.6665 0.79451 0.34908 0.0
C1473 C 0.66451 0.7892 0.32531 0.0
C1474 C 0.62504 0.78225 0.34816 0.0
C1475 C 0.64241 0.78035 0.31365 0.0
C1476 C 0.58212 0.76631 0.34656 0.0
C1477 C 0.58464 0.78174 0.39271 0.0
N1478 N 0.62364 0.77713 0.32517 0.0
N1479 N 0.60412 0.78536 0.38202 0.0
H1480 H 0.0637 0.1996 0.41238 0.0
H1481 H 0.02416 0.11589 0.51647 0.0
H1482 H 0.01782 0.21322 0.45985 0.0
H1483 H 0.05934 0.0909 0.46337 0.0
H1484 H 0.02424 0.15267 0.49701 0.0
H1485 H 0.06516 0.16237 0.43127 0.0
C1486 C 0.05414 0.19522 0.42689 0.0
C1487 C 0.0407 0.21046 0.43425 0.0
C1488 C 0.03197 0.13924 0.48944 0.0
C1489 C 0.04225 0.16663 0.45645 0.0
C1490 C 0.03192 0.11787 0.50068 0.0
C1491 C 0.04165 0.09939 0.49192 0.0
C1492 C 0.04207 0.14322 0.4689 0.0
C1493 C 0.05144 0.10404 0.47115 0.0
C1494 C 0.05486 0.17357 0.43768 0.0
C1495 C 0.02856 0.20271 0.45317 0.0
N1496 N 0.05146 0.12515 0.46063 0.0
N1497 N 0.0297 0.18193 0.46336 0.0
H1498 H 0.60959 0.25914 0.22708 0.0
H1499 H 0.74767 0.33329 0.24846 0.0
H1500 H 0.63917 0.33244 0.2042 0.0
H1501 H 0.71423 0.2563 0.26182 0.0
H1502 H 0.70992 0.33521 0.23377 0.0
H1503 H 0.64771 0.25998 0.2409 0.0
C1504 C 0.62398 0.27565 0.22479 0.0
C1505 C 0.62011 0.29572 0.214 0.0
C1506 C 0.71074 0.31786 0.2399 0.0
C1507 C 0.66593 0.2967 0.23068 0.0
C1508 C 0.73255 0.31669 0.24843 0.0
C1509 C 0.73492 0.29451 0.25668 0.0
C1510 C 0.69036 0.29676 0.23952 0.0
C1511 C 0.71401 0.27392 0.25583 0.0
C1512 C 0.64618 0.27601 0.23288 0.0
C1513 C 0.64048 0.31633 0.2122 0.0
N1514 N 0.69317 0.27563 0.24767 0.0
N1515 N 0.66211 0.31624 0.22033 0.0
H1516 H 0.57023 0.86748 0.91024 0.0
H1517 H 0.54062 0.94883 0.01885 0.0
H1518 H 0.52988 0.83445 0.96247 0.0
H1519 H 0.57497 0.98623 0.96506 0.0
H1520 H 0.53937 0.90757 0.99901 0.0
H1521 H 0.57514 0.91069 0.93018 0.0
C1522 C 0.56272 0.86909 0.92603 0.0
C1523 C 0.54965 0.84663 0.93447 0.0
C1524 C 0.54726 0.92468 0.9914 0.0
C1525 C 0.55506 0.89688 0.95762 0.0
C1526 C 0.54801 0.94859 0.00286 0.0
C1527 C 0.5579 0.97174 0.99393 0.0
C1528 C 0.55647 0.92304 0.97043 0.0
C1529 C 0.56713 0.9693 0.97292 0.0
C1530 C 0.56537 0.89397 0.93738 0.0
C1531 C 0.54012 0.85069 0.95498 0.0
N1532 N 0.56617 0.94569 0.96203 0.0
N1533 N 0.54299 0.87482 0.96557 0.0
H1534 H 0.99459 0.83462 0.73569 0.0
H1535 H 0.85826 0.7534 0.73517 0.0
H1536 H 0.96 0.77028 0.68506 0.0
H1537 H 0.89061 0.82768 0.77392 0.0
H1538 H 0.89485 0.75706 0.7187 0.0
H1539 H 0.95767 0.83064 0.75111 0.0
C1540 C 0.97932 0.81966 0.72757 0.0
C1541 C 0.98117 0.80302 0.70857 0.0
C1542 C 0.89407 0.77261 0.73084 0.0
C1543 C 0.93742 0.7978 0.72714 0.0
C1544 C 0.87292 0.77048 0.74048 0.0
C1545 C 0.87055 0.79017 0.75638 0.0
C1546 C 0.91385 0.79455 0.73703 0.0
C1547 C 0.89088 0.81174 0.76196 0.0
C1548 C 0.95794 0.81734 0.73658 0.0
C1549 C 0.96006 0.78394 0.69944 0.0
N1550 N 0.91116 0.8132 0.75259 0.0
N1551 N 0.93956 0.78183 0.70874 0.0
H1552 H 0.11731 0.06718 0.86922 0.0
H1553 H 0.10954 0.03295 0.98902 0.0
H1554 H 0.16903 0.04942 0.90994 0.0
H1555 H 0.05753 0.05492 0.953 0.0
H1556 H 0.13753 0.05565 0.96584 0.0
H1557 H 0.10303 0.08093 0.90376 0.0
C1558 C 0.12602 0.06672 0.88542 0.0
C1559 C 0.14341 0.05558 0.88684 0.0
C1560 C 0.12008 0.05578 0.9629 0.0
C1561 C 0.12729 0.07122 0.92601 0.0
C1562 C 0.10402 0.04261 0.97608 0.0
C1563 C 0.08118 0.04171 0.97256 0.0
C1564 C 0.11295 0.06654 0.94482 0.0
C1565 C 0.07488 0.05442 0.9556 0.0
C1566 C 0.11799 0.07482 0.90511 0.0
C1567 C 0.1549 0.05672 0.90803 0.0
N1568 N 0.09067 0.06587 0.94185 0.0
N1569 N 0.14628 0.06384 0.92689 0.0
H1570 H 0.82585 0.42904 0.57833 0.0
H1571 H 0.8481 0.31057 0.62659 0.0
H1572 H 0.85768 0.38088 0.54095 0.0
H1573 H 0.84989 0.3785 0.67039 0.0
H1574 H 0.84633 0.33287 0.59385 0.0
H1575 H 0.82777 0.40648 0.61127 0.0
C1576 C 0.83293 0.41351 0.57699 0.0
C1577 C 0.84169 0.4068 0.55703 0.0
C1578 C 0.8472 0.34285 0.61068 0.0
C1579 C 0.84394 0.38118 0.59429 0.0
C1580 C 0.84846 0.33025 0.62942 0.0
C1581 C 0.84904 0.34257 0.65138 0.0
C1582 C 0.84613 0.36777 0.61385 0.0
C1583 C 0.84894 0.36798 0.65381 0.0
C1584 C 0.83423 0.40088 0.59578 0.0
C1585 C 0.85088 0.38672 0.55614 0.0
N1586 N 0.84726 0.37966 0.63524 0.0
N1587 N 0.85171 0.37455 0.57451 0.0
H1588 H 0.45768 0.0293 0.37995 0.0
H1589 H 0.55902 0.02217 0.46536 0.0
H1590 H 0.52682 0.04547 0.36137 0.0
H1591 H 0.49959 0.04196 0.48355 0.0
H1592 H 0.54424 0.01647 0.42508 0.0
H1593 H 0.4695 0.01737 0.41554 0.0
C1594 C 0.47531 0.03013 0.38326 0.0
C1595 C 0.49155 0.03945 0.3682 0.0
C1596 C 0.5345 0.02184 0.43806 0.0
C1597 C 0.50515 0.02572 0.40878 0.0
C1598 C 0.54292 0.02522 0.4609 0.0
C1599 C 0.53072 0.03302 0.47771 0.0
C1600 C 0.51363 0.02581 0.43234 0.0
C1601 C 0.5098 0.03638 0.47117 0.0
C1602 C 0.48202 0.02316 0.40351 0.0
C1603 C 0.51394 0.03896 0.37288 0.0
N1604 N 0.50198 0.0328 0.44902 0.0
N1605 N 0.52031 0.03278 0.39313 0.0
H1606 H 0.85389 0.76545 0.10247 0.0
H1607 H 0.77035 0.76718 0.19994 0.0
H1608 H 0.78021 0.73474 0.08786 0.0
H1609 H 0.83928 0.76571 0.2134 0.0
H1610 H 0.7739 0.76092 0.15901 0.0
H1611 H 0.84923 0.7721 0.14286 0.0
C1612 C 0.83666 0.76047 0.10761 0.0
C1613 C 0.81743 0.74956 0.09138 0.0
C1614 C 0.7882 0.76185 0.17092 0.0
C1615 C 0.81199 0.75721 0.13827 0.0
C1616 C 0.78621 0.76544 0.19436 0.0
C1617 C 0.80446 0.76679 0.21039 0.0
C1618 C 0.80883 0.76023 0.16321 0.0
C1619 C 0.82461 0.76451 0.20188 0.0
C1620 C 0.83405 0.76408 0.13084 0.0
C1621 C 0.7956 0.74326 0.09953 0.0
N1622 N 0.82629 0.7616 0.17905 0.0
N1623 N 0.79349 0.74726 0.12227 0.0
H1624 H 0.12335 0.00822 0.75792 0.0
H1625 H 0.11133 0.11069 0.67836 0.0
H1626 H 0.15435 0.0898 0.77717 0.0
H1627 H 0.06163 0.03497 0.67388 0.0
H1628 H 0.13193 0.10198 0.7113 0.0
H1629 H 0.10553 0.01628 0.72284 0.0
C1630 C 0.12671 0.02776 0.75452 0.0
C1631 C 0.14017 0.0484 0.77032 0.0
C1632 C 0.11646 0.08733 0.70313 0.0
C1633 C 0.11998 0.05769 0.7307 0.0
C1634 C 0.10476 0.09229 0.68443 0.0
C1635 C 0.08475 0.07356 0.67366 0.0
C1636 C 0.10821 0.06337 0.71079 0.0
C1637 C 0.07685 0.05 0.68201 0.0
C1638 C 0.1164 0.03235 0.73471 0.0
C1639 C 0.14389 0.0734 0.76538 0.0
N1640 N 0.0887 0.04549 0.70009 0.0
N1641 N 0.1338 0.07738 0.74596 0.0
H1642 H 0.7931 0.41812 0.43796 0.0
H1643 H 0.78089 0.29005 0.35758 0.0
H1644 H 0.8257 0.36406 0.45648 0.0
H1645 H 0.79703 0.36324 0.33277 0.0
H1646 H 0.78154 0.31131 0.39591 0.0
H1647 H 0.77835 0.3913 0.40122 0.0
C1648 C 0.7965 0.4002 0.43456 0.0
C1649 C 0.81074 0.39325 0.45 0.0
C1650 C 0.7844 0.32252 0.38193 0.0
C1651 C 0.79386 0.36278 0.40862 0.0
C1652 C 0.78401 0.31051 0.36014 0.0
C1653 C 0.78914 0.32508 0.34218 0.0
C1654 C 0.78935 0.34909 0.38553 0.0
C1655 C 0.79326 0.3515 0.34632 0.0
C1656 C 0.78824 0.38511 0.41365 0.0
C1657 C 0.8149 0.37006 0.44483 0.0
N1658 N 0.79333 0.36276 0.3677 0.0
N1659 N 0.80657 0.35562 0.42443 0.0
H1660 H 0.4966 0.0391 0.27288 0.0
H1661 H 0.45965 0.00551 0.14646 0.0
H1662 H 0.4434 0.05972 0.23798 0.0
H1663 H 0.50486 0.97331 0.18158 0.0
H1664 H 0.44311 0.01174 0.18141 0.0
H1665 H 0.48919 1.00205 0.24389 0.0
C1666 C 0.4825 0.03497 0.25973 0.0
C1667 C 0.47094 0.05261 0.25727 0.0
C1668 C 0.45631 1.00278 0.18149 0.0
C1669 C 0.46304 0.01127 0.22373 0.0
C1670 C 0.46577 0.99907 0.16134 0.0
C1671 C 0.4844 0.98979 0.16113 0.0
C1672 C 0.46604 0.99803 0.20179 0.0
C1673 C 0.49133 0.98177 0.18114 0.0
C1674 C 0.4784 0.01397 0.24302 0.0
C1675 C 0.45293 0.04666 0.24005 0.0
N1676 N 0.48265 0.9868 0.20082 0.0
N1677 N 0.44992 0.02684 0.22352 0.0
H1678 H 0.78232 0.72614 0.95471 0.0
H1679 H 0.84673 0.80315 0.85746 0.0
H1680 H 0.85146 0.77944 0.96639 0.0
H1681 H 0.78413 0.73869 0.84371 0.0
H1682 H 0.84753 0.79733 0.89772 0.0
H1683 H 0.78104 0.73386 0.91502 0.0
C1684 C 0.79713 0.73983 0.94915 0.0
C1685 C 0.81704 0.75214 0.96429 0.0
C1686 C 0.83365 0.78438 0.8859 0.0
C1687 C 0.81573 0.76088 0.91819 0.0
C1688 C 0.83322 0.78764 0.86279 0.0
C1689 C 0.81542 0.7713 0.84685 0.0
C1690 C 0.81601 0.76481 0.89348 0.0
C1691 C 0.79834 0.75168 0.85512 0.0
C1692 C 0.79644 0.74405 0.92629 0.0
C1693 C 0.83568 0.76946 0.95561 0.0
N1694 N 0.79901 0.74911 0.8777 0.0
N1695 N 0.83458 0.77323 0.93331 0.0
H1696 H 0.81476 0.06159 0.07225 0.0
H1697 H 0.93255 0.07582 0.01783 0.0
H1698 H 0.85528 0.13027 0.04727 0.0
H1699 H 0.88693 1.00413 0.03332 0.0
H1700 H 0.90629 0.09728 0.03199 0.0
H1701 H 0.84397 0.04205 0.06335 0.0
C1702 C 0.83006 0.07279 0.0654 0.0
C1703 C 0.83247 0.09744 0.06015 0.0
C1704 C 0.90198 0.07685 0.03228 0.0
C1705 C 0.86563 0.07507 0.04956 0.0
C1706 C 0.91691 0.06459 0.02414 0.0
C1707 C 0.91189 0.03819 0.02451 0.0
C1708 C 0.88191 0.06263 0.04095 0.0
C1709 C 0.89132 0.02448 0.03261 0.0
C1710 C 0.84659 0.06151 0.06009 0.0
C1711 C 0.85262 0.1111 0.05133 0.0
N1712 N 0.8771 0.0369 0.04064 0.0
N1713 N 0.86833 0.09961 0.04605 0.0
H1714 H 0.35503 0.43446 0.99734 0.0
H1715 H 0.47999 0.49548 0.06035 0.0
H1716 H 0.38088 0.40168 0.05113 0.0
H1717 H 0.4691 0.49954 0.9888 0.0
H1718 H 0.44096 0.46622 0.05885 0.0
H1719 H 0.3945 0.46251 0.99476 0.0
C1720 C 0.369 0.43293 0.00838 0.0
C1721 C 0.36468 0.41577 0.02453 0.0
C1722 C 0.44708 0.47351 0.04347 0.0
C1723 C 0.40942 0.44801 0.02198 0.0
C1724 C 0.46933 0.49042 0.04431 0.0
C1725 C 0.47787 0.5 0.02464 0.0
C1726 C 0.43298 0.46631 0.0229 0.0
C1727 C 0.46318 0.49254 0.00434 0.0
C1728 C 0.39143 0.44891 0.00688 0.0
C1729 C 0.38337 0.41458 0.03843 0.0
N1730 N 0.4413 0.47618 0.00399 0.0
N1731 N 0.40484 0.43073 0.03705 0.0
H1732 H 0.36661 0.58292 0.7164 0.0
H1733 H 0.31745 0.6354 0.82026 0.0
H1734 H 0.37546 0.5618 0.7831 0.0
H1735 H 0.28438 0.62701 0.75268 0.0
H1736 H 0.33763 0.60638 0.8066 0.0
H1737 H 0.33452 0.59655 0.72813 0.0
C1738 C 0.3616 0.58081 0.73336 0.0
C1739 C 0.37417 0.5721 0.74907 0.0
C1740 C 0.3255 0.61032 0.79484 0.0
C1741 C 0.33783 0.58751 0.76249 0.0
C1742 C 0.31408 0.62689 0.80265 0.0
C1743 C 0.29934 0.63345 0.78753 0.0
C1744 C 0.32253 0.60077 0.77168 0.0
C1745 C 0.29555 0.62216 0.76483 0.0
C1746 C 0.34327 0.58845 0.74 0.0
C1747 C 0.36674 0.56919 0.77067 0.0
N1748 N 0.30747 0.60668 0.75742 0.0
N1749 N 0.34933 0.57736 0.7769 0.0
H1750 H 0.21898 0.53056 0.53235 0.0
H1751 H 0.12526 0.59466 0.53273 0.0
H1752 H 0.23436 0.61046 0.52562 0.0
H1753 H 0.11943 0.53091 0.56988 0.0
H1754 H 0.16647 0.60261 0.5331 0.0
H1755 H 0.18376 0.53092 0.54914 0.0
C1756 C 0.21515 0.54829 0.5349 0.0
C1757 C 0.22951 0.57057 0.52774 0.0
C1758 C 0.15637 0.58727 0.54172 0.0
C1759 C 0.18935 0.57105 0.54633 0.0
C1760 C 0.13289 0.58275 0.54147 0.0
C1761 C 0.11917 0.56206 0.55117 0.0
C1762 C 0.166 0.5704 0.55105 0.0
C1763 C 0.12964 0.54706 0.56225 0.0
C1764 C 0.1952 0.54856 0.54457 0.0
C1765 C 0.22394 0.59308 0.53133 0.0
N1766 N 0.15248 0.55111 0.5614 0.0
N1767 N 0.20404 0.59265 0.53996 0.0
H1768 H 0.68903 0.95567 0.73975 0.0
H1769 H 0.80859 0.96604 0.79551 0.0
H1770 H 0.71711 0.01944 0.79294 0.0
H1771 H 0.74789 0.90396 0.80477 0.0
H1772 H 0.78368 0.99026 0.7834 0.0
H1773 H 0.72098 0.94027 0.74985 0.0
C1774 C 0.70227 0.96671 0.75312 0.0
C1775 C 0.70047 0.98841 0.76595 0.0
C1776 C 0.7761 0.97141 0.78832 0.0
C1777 C 0.73669 0.97154 0.77694 0.0
C1778 C 0.79014 0.9578 0.79543 0.0
C1779 C 0.78012 0.93292 0.80074 0.0
C1780 C 0.75226 0.95959 0.78626 0.0
C1781 C 0.75618 0.92288 0.80029 0.0
C1782 C 0.72033 0.95801 0.7588 0.0
C1783 C 0.7179 1.00226 0.78311 0.0
N1784 N 0.74298 0.93609 0.79268 0.0
N1785 N 0.73539 0.99342 0.78834 0.0
H1786 H 0.74953 0.91695 0.48505 0.0
H1787 H 0.65065 0.94864 0.55085 0.0
H1788 H 0.72657 0.88558 0.54593 0.0
H1789 H 0.6815 0.98801 0.49632 0.0
H1790 H 0.67468 0.92128 0.54641 0.0
H1791 H 0.72079 0.9385 0.48586 0.0
C1792 C 0.73824 0.91429 0.49844 0.0
C1793 C 0.74065 0.89958 0.51557 0.0
C1794 C 0.67609 0.9358 0.53533 0.0
C1795 C 0.70772 0.92448 0.51667 0.0
C1796 C 0.66229 0.95134 0.53776 0.0
C1797 C 0.66409 0.9707 0.52396 0.0
C1798 C 0.69174 0.93952 0.51887 0.0
C1799 C 0.67972 0.97354 0.50751 0.0
C1800 C 0.72189 0.92674 0.49894 0.0
C1801 C 0.72544 0.89682 0.53243 0.0
N1802 N 0.69294 0.95817 0.50545 0.0
N1803 N 0.70974 0.90932 0.53265 0.0
H1804 H 0.3687 0.49406 0.77419 0.0
H1805 H 0.35477 0.3494 0.74818 0.0
H1806 H 0.39431 0.46337 0.71579 0.0
H1807 H 0.30566 0.37359 0.78526 0.0
H1808 H 0.37041 0.39185 0.73782 0.0
H1809 H 0.34598 0.451 0.77956 0.0
C1810 C 0.36921 0.4782 0.76222 0.0
C1811 C 0.38352 0.48211 0.7446 0.0
C1812 C 0.35601 0.38785 0.74795 0.0
C1813 C 0.35752 0.43296 0.75071 0.0
C1814 C 0.34717 0.36365 0.75413 0.0
C1815 C 0.32896 0.358 0.76779 0.0
C1816 C 0.34679 0.40675 0.75559 0.0
C1817 C 0.31974 0.37724 0.77474 0.0
C1818 C 0.35613 0.45369 0.76528 0.0
C1819 C 0.3835 0.46107 0.72957 0.0
N1820 N 0.32899 0.40105 0.76875 0.0
N1821 N 0.37085 0.43719 0.73318 0.0
H1822 H 0.20554 0.57777 0.23528 0.0
H1823 H 0.23525 0.7219 0.293 0.0
H1824 H 0.18057 0.59851 0.29795 0.0
H1825 H 0.28243 0.69807 0.25275 0.0
H1826 H 0.20998 0.67758 0.28882 0.0
H1827 H 0.22905 0.62284 0.23569 0.0
C1828 C 0.20481 0.5919 0.24895 0.0
C1829 C 0.19119 0.58457 0.26667 0.0
C1830 C 0.22588 0.68207 0.28094 0.0
C1831 C 0.21766 0.63577 0.26708 0.0
C1832 C 0.24034 0.70738 0.28327 0.0
C1833 C 0.26117 0.71371 0.27343 0.0
C1834 C 0.23213 0.6629 0.26853 0.0
C1835 C 0.26667 0.69401 0.26083 0.0
C1836 C 0.21829 0.61747 0.24924 0.0
C1837 C 0.19098 0.60344 0.28409 0.0
N1838 N 0.2522 0.66941 0.25872 0.0
N1839 N 0.20394 0.62823 0.2838 0.0
H1840 H 0.47354 0.69263 0.48894 0.0
H1841 H 0.56486 0.61771 0.49471 0.0
H1842 H 0.53668 0.71336 0.4571 0.0
H1843 H 0.49754 0.58973 0.51775 0.0
H1844 H 0.55612 0.65503 0.48399 0.0
H1845 H 0.48363 0.65754 0.50326 0.0
C1846 C 0.48963 0.69003 0.48513 0.0
C1847 C 0.5042 0.70604 0.47165 0.0
C1848 C 0.54327 0.64082 0.49149 0.0
C1849 C 0.51576 0.66562 0.4879 0.0
C1850 C 0.54828 0.6195 0.49768 0.0
C1851 C 0.53192 0.60053 0.50718 0.0
C1852 C 0.5218 0.64344 0.49498 0.0
C1853 C 0.51064 0.60382 0.5104 0.0
C1854 C 0.49532 0.66986 0.49323 0.0
C1855 C 0.52483 0.7016 0.46735 0.0
N1856 N 0.50621 0.62487 0.50436 0.0
N1857 N 0.52991 0.6818 0.47533 0.0
H1858 H 0.67278 0.31765 0.6476 0.0
H1859 H 0.7328 0.31292 0.76809 0.0
H1860 H 0.65861 0.35197 0.711 0.0
H1861 H 0.76599 0.30514 0.70742 0.0
H1862 H 0.70386 0.32427 0.74621 0.0
H1863 H 0.70592 0.31077 0.66775 0.0
C1864 C 0.67676 0.32402 0.66564 0.0
C1865 C 0.66271 0.33522 0.67762 0.0
C1866 C 0.71748 0.3202 0.7376 0.0
C1867 C 0.70025 0.32707 0.70071 0.0
C1868 C 0.73399 0.31353 0.75009 0.0
C1869 C 0.75182 0.30792 0.73958 0.0
C1870 C 0.71843 0.32094 0.71421 0.0
C1871 C 0.75252 0.30933 0.7162 0.0
C1872 C 0.69564 0.32006 0.6771 0.0
C1873 C 0.66873 0.34308 0.70099 0.0
N1874 N 0.7359 0.31546 0.70421 0.0
N1875 N 0.6868 0.3386 0.71173 0.0
H1876 H 0.03512 0.33664 0.95729 0.0
H1877 H 0.99667 0.44832 0.02159 0.0
H1878 H 0.9709 0.32254 0.98692 0.0
H1879 H 0.06019 0.46093 0.99085 0.0
H1880 H 0.98798 0.40203 0.0117 0.0
H1881 H 0.04579 0.38184 0.97244 0.0
C1882 C 0.02334 0.34293 0.96719 0.0
C1883 C 1.00199 0.3256 0.97067 0.0
C1884 C 1.00386 0.41496 0.00722 0.0
C1885 C 0.01407 0.37774 0.98794 0.0
C1886 C 0.00884 0.44142 0.01286 0.0
C1887 C 0.02912 0.45869 0.00691 0.0
C1888 C 0.01927 0.40563 0.99554 0.0
C1889 C 0.04424 0.4485 0.99566 0.0
C1890 C 0.02943 0.36885 0.9758 0.0
C1891 C 0.98752 0.33509 0.98373 0.0
N1892 N 0.03897 0.42276 0.9903 0.0
N1893 N 0.99373 0.36049 0.99171 0.0
H1894 H 0.05267 0.77847 0.20211 0.0
H1895 H 0.9224 0.77577 0.20434 0.0
H1896 H 0.01532 0.80046 0.14884 0.0
H1897 H 0.96463 0.77226 0.26359 0.0
H1898 H 0.95455 0.77827 0.18184 0.0
H1899 H 0.01849 0.7689 0.2228 0.0
C1900 C 0.03721 0.78089 0.19458 0.0
C1901 C 0.03689 0.79028 0.17368 0.0
C1902 C 0.95673 0.77682 0.19975 0.0
C1903 C 0.99786 0.77953 0.19728 0.0
C1904 C 0.93842 0.77557 0.21266 0.0
C1905 C 0.94081 0.77401 0.23599 0.0
C1906 C 0.9776 0.77639 0.21016 0.0
C1907 C 0.96186 0.77319 0.24566 0.0
C1908 C 0.01776 0.77556 0.20645 0.0
C1909 C 0.01641 0.79317 0.1648 0.0
N1910 N 0.97946 0.77448 0.23272 0.0
N1911 N 0.99778 0.78793 0.17668 0.0
H1912 H 0.56406 0.39146 0.15511 0.0
H1913 H 0.53279 0.44608 0.03966 0.0
H1914 H 0.519 0.34518 0.0975 0.0
H1915 H 0.56547 0.49755 0.10027 0.0
H1916 H 0.53096 0.40967 0.0602 0.0
H1917 H 0.56826 0.42987 0.13568 0.0
C1918 C 0.55525 0.38904 0.13834 0.0
C1919 C 0.54116 0.36419 0.12827 0.0
C1920 C 0.53864 0.42885 0.06918 0.0
C1921 C 0.54595 0.40925 0.10539 0.0
C1922 C 0.53976 0.45002 0.05729 0.0
C1923 C 0.54937 0.47573 0.06778 0.0
C1924 C 0.54739 0.43249 0.09223 0.0
C1925 C 0.55787 0.47853 0.091 0.0
C1926 C 0.55754 0.41129 0.1272 0.0
C1927 C 0.53012 0.36335 0.1064 0.0
N1928 N 0.55677 0.45755 0.10217 0.0
N1929 N 0.53279 0.38497 0.096 0.0
H1930 H 0.99363 0.30462 0.32901 0.0
H1931 H 0.8541 0.25788 0.33307 0.0
H1932 H 0.9599 0.25529 0.37616 0.0
H1933 H 0.88899 0.31045 0.28875 0.0
H1934 H 0.89158 0.25614 0.34844 0.0
H1935 H 0.9561 0.30651 0.31426 0.0
C1936 C 0.97847 0.29417 0.33648 0.0
C1937 C 0.98079 0.27983 0.35426 0.0
C1938 C 0.89119 0.26813 0.33536 0.0
C1939 C 0.93615 0.2818 0.33667 0.0
C1940 C 0.86948 0.26917 0.32642 0.0
C1941 C 0.86752 0.28443 0.30926 0.0
C1942 C 0.91199 0.28239 0.32738 0.0
C1943 C 0.88887 0.29833 0.3018 0.0
C1944 C 0.95671 0.29525 0.32786 0.0
C1945 C 0.9597 0.26679 0.36266 0.0
N1946 N 0.90966 0.29696 0.31073 0.0
N1947 N 0.93877 0.26805 0.35392 0.0
H1948 H 0.0748 0.74516 0.62753 0.0
H1949 H 0.02057 0.59142 0.59498 0.0
H1950 H 1.00285 0.70464 0.62921 0.0
H1951 H 0.07709 0.63561 0.5618 0.0
H1952 H 0.01727 0.63169 0.61376 0.0
H1953 H 0.07936 0.70504 0.60947 0.0
C1954 C 0.05996 0.72794 0.62427 0.0
C1955 C 0.03832 0.72879 0.62994 0.0
C1956 C 0.03051 0.63262 0.60248 0.0
C1957 C 0.04363 0.68196 0.60961 0.0
C1958 C 0.03251 0.60947 0.59177 0.0
C1959 C 0.04919 0.60962 0.57657 0.0
C1960 C 0.04561 0.6566 0.59863 0.0
C1961 C 0.06392 0.6341 0.57324 0.0
C1962 C 0.06257 0.70491 0.61385 0.0
C1963 C 0.01986 0.70539 0.62508 0.0
N1964 N 0.06192 0.65627 0.58417 0.0
N1965 N 0.02296 0.68325 0.61558 0.0
H1966 H 0.64048 0.81266 0.86523 0.0
H1967 H 0.71658 0.74912 0.78447 0.0
H1968 H 0.61468 0.7392 0.82376 0.0
H1969 H 0.74724 0.82357 0.82341 0.0
H1970 H 0.67978 0.74648 0.79927 0.0
H1971 H 0.67889 0.81823 0.85151 0.0
C1972 C 0.64256 0.7976 0.85338 0.0
C1973 C 0.62333 0.77527 0.84599 0.0
C1974 C 0.69441 0.76354 0.80469 0.0
C1975 C 0.66853 0.78172 0.82972 0.0
C1976 C 0.71581 0.76514 0.79605 0.0
C1977 C 0.73591 0.7867 0.80225 0.0
C1978 C 0.69208 0.78359 0.8201 0.0
C1979 C 0.73275 0.80645 0.81771 0.0
C1980 C 0.66481 0.80085 0.84541 0.0
C1981 C 0.62821 0.75687 0.83036 0.0
N1982 N 0.71171 0.80442 0.82591 0.0
N1983 N 0.64965 0.76048 0.82304 0.0
H1984 H 0.50944 0.58504 0.69512 0.0
H1985 H 0.49781 0.5013 0.57676 0.0
H1986 H 0.4482 0.52454 0.66429 0.0
H1987 H 0.54898 0.57561 0.59806 0.0
H1988 H 0.48741 0.50008 0.61548 0.0
H1989 H 0.53112 0.57174 0.66619 0.0
C1990 C 0.50059 0.56898 0.68227 0.0
C1991 C 0.47686 0.55654 0.68137 0.0
C1992 C 0.50109 0.51647 0.61163 0.0
C1993 C 0.50144 0.54112 0.64885 0.0
C1994 C 0.50682 0.51736 0.58955 0.0
C1995 C 0.52349 0.53916 0.58409 0.0
C1996 C 0.51192 0.53766 0.62806 0.0
C1997 C 0.53537 0.55889 0.60142 0.0
C1998 C 0.51299 0.56124 0.66602 0.0
C1999 C 0.46631 0.5353 0.66496 0.0
N2000 N 0.52904 0.55788 0.62266 0.0
N2001 N 0.47866 0.52845 0.64907 0.0
H2002 H 0.80338 0.21885 0.01779 0.0
H2003 H 0.74008 0.20201 0.89605 0.0
H2004 H 0.7486 0.14917 0.99117 0.0
H2005 H 0.76857 0.276 0.93669 0.0
H2006 H 0.74369 0.18161 0.92994 0.0
H2007 H 0.79167 0.24009 0.98765 0.0
C2008 C 0.78874 0.20814 0.00573 0.0
C2009 C 0.777 0.18225 0.00686 0.0
C2010 C 0.74877 0.2023 0.93147 0.0
C2011 C 0.76383 0.20617 0.97218 0.0
C2012 C 0.74684 0.21391 0.91216 0.0
C2013 C 0.75414 0.24071 0.91361 0.0
C2014 C 0.7585 0.21764 0.9522 0.0
C2015 C 0.76263 0.25529 0.93488 0.0
C2016 C 0.78202 0.22025 0.9886 0.0
C2017 C 0.75806 0.16921 0.99089 0.0
N2018 N 0.76491 0.24357 0.95329 0.0
N2019 N 0.7523 0.1812 0.97391 0.0
H2020 H 0.15087 0.53951 0.16573 0.0
H2021 H 0.04204 0.55545 0.10116 0.0
H2022 H 0.08366 0.52239 0.18956 0.0
H2023 H 0.10162 0.54732 0.07122 0.0
H2024 H 0.06356 0.56361 0.13879 0.0
H2025 H 0.13895 0.56238 0.13706 0.0
C2026 C 0.1337 0.54077 0.16503 0.0
C2027 C 0.11779 0.52802 0.17912 0.0
C2028 C 0.072 0.56062 0.12386 0.0
C2029 C 0.10429 0.55426 0.14696 0.0
C2030 C 0.05971 0.55577 0.10252 0.0
C2031 C 0.06978 0.5494 0.08338 0.0
C2032 C 0.09431 0.5591 0.12569 0.0
C2033 C 0.09291 0.55094 0.08574 0.0
C2034 C 0.12701 0.55403 0.14891 0.0
C2035 C 0.09606 0.53095 0.17819 0.0
N2036 N 0.10431 0.55521 0.1066 0.0
N2037 N 0.08976 0.54341 0.16203 0.0
H2038 H 0.84097 0.82389 0.47299 0.0
H2039 H 0.77059 0.80485 0.3508 0.0
H2040 H 0.77554 0.83613 0.46496 0.0
H2041 H 0.84256 0.81318 0.36003 0.0
H2042 H 0.77051 0.81248 0.39208 0.0
H2043 H 0.83991 0.81556 0.43187 0.0
C2044 C 0.82611 0.82444 0.46269 0.0
C2045 C 0.80822 0.83064 0.47287 0.0
C2046 C 0.78635 0.81275 0.3851 0.0
C2047 C 0.80705 0.8211 0.42495 0.0
C2048 C 0.78645 0.80838 0.36142 0.0
C2049 C 0.80667 0.80839 0.3516 0.0
C2050 C 0.80653 0.81689 0.39942 0.0
C2051 C 0.82656 0.81305 0.36656 0.0
C2052 C 0.82566 0.81986 0.43902 0.0
C2053 C 0.7897 0.83132 0.45815 0.0
N2054 N 0.82594 0.81693 0.38954 0.0
N2055 N 0.78958 0.82658 0.43508 0.0
H2056 H 0.44743 0.55871 0.81223 0.0
H2057 H 0.51401 0.47124 0.86166 0.0
H2058 H 0.47972 0.51556 0.76937 0.0
H2059 H 0.49618 0.53029 0.90166 0.0
H2060 H 0.49848 0.48328 0.82724 0.0
H2061 H 0.46135 0.54365 0.84507 0.0
C2062 C 0.4573 0.54588 0.80971 0.0
C2063 C 0.46236 0.5383 0.78811 0.0
C2064 C 0.49796 0.49346 0.84361 0.0
C2065 C 0.47881 0.52136 0.82568 0.0
C2066 C 0.50681 0.48665 0.86317 0.0
C2067 C 0.50603 0.49955 0.88449 0.0
C2068 C 0.48836 0.51323 0.8456 0.0
C2069 C 0.49656 0.51938 0.88562 0.0
C2070 C 0.46544 0.53745 0.8285 0.0
C2071 C 0.4756 0.52198 0.78586 0.0
N2072 N 0.48807 0.52556 0.86646 0.0
N2073 N 0.48343 0.514 0.8045 0.0
H2074 H 0.7663 0.17898 0.10856 0.0
H2075 H 0.82414 0.22536 0.23449 0.0
H2076 H 0.83616 0.18262 0.12637 0.0
H2077 H 0.78501 0.2667 0.20277 0.0
H2078 H 0.82274 0.20054 0.19739 0.0
H2079 H 0.76669 0.20252 0.14611 0.0
C2080 C 0.78158 0.18452 0.12047 0.0
C2081 C 0.80126 0.17903 0.11449 0.0
C2082 C 0.81447 0.21505 0.19869 0.0
C2083 C 0.80162 0.20516 0.15715 0.0
C2084 C 0.81522 0.22912 0.21973 0.0
C2085 C 0.80483 0.24816 0.22153 0.0
C2086 C 0.80263 0.21959 0.1796 0.0
C2087 C 0.79345 0.25234 0.20197 0.0
C2088 C 0.78183 0.19799 0.14171 0.0
C2089 C 0.82072 0.18671 0.13037 0.0
N2090 N 0.79245 0.23797 0.18179 0.0
N2091 N 0.82036 0.19921 0.15111 0.0
H2092 H 0.09612 0.53457 0.27423 0.0
H2093 H 0.08937 0.51933 0.40531 0.0
H2094 H 0.12612 0.48659 0.30877 0.0
H2095 H 0.07355 0.57977 0.37516 0.0
H2096 H 0.09839 0.50347 0.36867 0.0
H2097 H 0.08275 0.54744 0.30986 0.0
C2098 C 0.09969 0.52658 0.28927 0.0
C2099 C 0.11235 0.50967 0.28871 0.0
C2100 C 0.09295 0.5202 0.37006 0.0
C2101 C 0.09729 0.52429 0.32924 0.0
C2102 C 0.08796 0.52937 0.39098 0.0
C2103 C 0.08105 0.55112 0.39328 0.0
C2104 C 0.0909 0.53278 0.35129 0.0
C2105 C 0.0788 0.56292 0.37405 0.0
C2106 C 0.09218 0.53402 0.30957 0.0
C2107 C 0.11661 0.4999 0.30859 0.0
N2108 N 0.08382 0.55363 0.35378 0.0
N2109 N 0.10914 0.50744 0.32812 0.0
H2110 H 0.80995 0.79661 0.59572 0.0
H2111 H 0.7966 0.84643 0.72205 0.0
H2112 H 0.78069 0.85683 0.60868 0.0
H2113 H 0.78393 0.76623 0.7003 0.0
H2114 H 0.79577 0.85365 0.68186 0.0
H2115 H 0.80529 0.78752 0.63495 0.0
C2116 C 0.80217 0.80763 0.60665 0.0
C2117 C 0.79535 0.82724 0.59859 0.0
C2118 C 0.79298 0.83446 0.68597 0.0
C2119 C 0.791 0.81772 0.64411 0.0
C2120 C 0.79347 0.83032 0.70892 0.0
C2121 C 0.79013 0.80562 0.71477 0.0
C2122 C 0.78987 0.81392 0.66868 0.0
C2123 C 0.78634 0.78557 0.69682 0.0
C2124 C 0.79963 0.80252 0.62912 0.0
C2125 C 0.78578 0.84119 0.61388 0.0
N2126 N 0.78664 0.7902 0.6748 0.0
N2127 N 0.78425 0.83648 0.6359 0.0
H2128 H 0.74905 0.45474 0.50431 0.0
H2129 H 0.69814 0.54476 0.58287 0.0
H2130 H 0.77684 0.48685 0.5733 0.0
H2131 H 0.66982 0.51095 0.51445 0.0
H2132 H 0.72585 0.52166 0.58059 0.0
H2133 H 0.71761 0.47181 0.50905 0.0
C2134 C 0.74836 0.46507 0.52057 0.0
C2135 C 0.76579 0.46977 0.53833 0.0
C2136 C 0.71353 0.51925 0.5661 0.0
C2137 C 0.73006 0.48964 0.54376 0.0
C2138 C 0.69791 0.53261 0.56734 0.0
C2139 C 0.68178 0.52973 0.54882 0.0
C2140 C 0.71306 0.5031 0.54614 0.0
C2141 C 0.6819 0.51349 0.52917 0.0
C2142 C 0.73046 0.47491 0.52324 0.0
C2143 C 0.76391 0.48304 0.55908 0.0
N2144 N 0.69735 0.50083 0.52833 0.0
N2145 N 0.7465 0.49281 0.56114 0.0
H2146 H 0.23196 0.10975 0.50527 0.0
H2147 H 0.11425 0.10906 0.5549 0.0
H2148 H 0.22029 0.17835 0.53468 0.0
H2149 H 0.1256 0.04201 0.52136 0.0
H2150 H 0.15375 0.13436 0.55023 0.0
H2151 H 0.19358 0.08459 0.51278 0.0
C2152 C 0.22129 0.11959 0.51323 0.0
C2153 C 0.22941 0.14627 0.51932 0.0
C2154 C 0.14763 0.11408 0.54404 0.0
C2155 C 0.18525 0.11735 0.52815 0.0
C2156 C 0.1251 0.09955 0.54682 0.0
C2157 C 0.11648 0.07333 0.53839 0.0
C2158 C 0.16169 0.10233 0.53279 0.0
C2159 C 0.1314 0.06214 0.52806 0.0
C2160 C 0.19934 0.10514 0.51758 0.0
C2161 C 0.21473 0.15785 0.52963 0.0
N2162 N 0.15318 0.07671 0.52545 0.0
N2163 N 0.19336 0.14332 0.53375 0.0
H2164 H 0.24807 0.01016 0.86136 0.0
H2165 H 0.28391 0.94089 0.75248 0.0
H2166 H 0.20803 0.98923 0.79594 0.0
H2167 H 0.31626 0.94958 0.82037 0.0
H2168 H 0.26073 0.96675 0.76649 0.0
H2169 H 0.27739 0.99512 0.84507 0.0
C2170 C 0.24541 1.00238 0.84358 0.0
C2171 C 0.2254 1.00061 0.83006 0.0
C2172 C 0.27324 0.96343 0.77823 0.0
C2173 C 0.25901 0.98363 0.8113 0.0
C2174 C 0.2866 0.94898 0.77019 0.0
C2175 C 0.30188 0.94328 0.78538 0.0
C2176 C 0.27533 0.97208 0.80154 0.0
C2177 C 0.30457 0.95368 0.80822 0.0
C2178 C 0.26222 0.99391 0.83427 0.0
C2179 C 0.22304 0.99065 0.80707 0.0
N2180 N 0.29123 0.9674 0.81568 0.0
N2181 N 0.23962 0.98241 0.79842 0.0
H2182 H 0.37728 0.96665 0.95595 0.0
H2183 H 0.48074 0.04651 0.03628 0.0
H2184 H 0.37738 0.03567 0.99624 0.0
H2185 H 0.49025 0.00615 0.97369 0.0
H2186 H 0.44304 0.04483 0.01959 0.0
H2187 H 0.41889 0.98431 0.9565 0.0
C2188 C 0.38601 0.98619 0.96376 0.0
C2189 C 0.37424 0.99962 0.97651 0.0
C2190 C 0.45354 0.0367 0.00938 0.0
C2191 C 0.42153 0.01921 0.97839 0.0
C2192 C 0.4748 0.0372 0.01907 0.0
C2193 C 0.48831 0.02605 0.00644 0.0
C2194 C 0.44563 0.0245 0.98713 0.0
C2195 C 0.48014 0.01473 0.98404 0.0
C2196 C 0.40979 0.99615 0.96437 0.0
C2197 C 0.3861 0.02472 0.98646 0.0
N2198 N 0.45911 0.01386 0.97518 0.0
N2199 N 0.40938 0.0334 0.98807 0.0
H2200 H 0.9277 0.64131 0.84181 0.0
H2201 H 0.80307 0.61822 0.78299 0.0
H2202 H 0.87856 0.56507 0.83054 0.0
H2203 H 0.8652 0.6726 0.76584 0.0
H2204 H 0.82658 0.5998 0.80595 0.0
H2205 H 0.89948 0.65703 0.82321 0.0
C2206 C 0.91052 0.62817 0.83643 0.0
C2207 C 0.90516 0.60204 0.83777 0.0
C2208 C 0.83492 0.6156 0.79692 0.0
C2209 C 0.87353 0.61936 0.81558 0.0
C2210 C 0.82161 0.6258 0.78355 0.0
C2211 C 0.83229 0.64724 0.77292 0.0
C2212 C 0.85882 0.62735 0.79982 0.0
C2213 C 0.85633 0.65643 0.77423 0.0
C2214 C 0.89466 0.63696 0.82537 0.0
C2215 C 0.88298 0.58547 0.83001 0.0
N2216 N 0.86882 0.64678 0.78789 0.0
N2217 N 0.86792 0.59434 0.8188 0.0
H2218 H 0.82827 0.64308 0.06011 0.0
H2219 H 0.95554 0.63904 0.05022 0.0
H2220 H 0.87952 0.70076 0.03122 0.0
H2221 H 0.89624 0.57239 0.05274 0.0
H2222 H 0.93055 0.6655 0.05158 0.0
H2223 H 0.85613 0.62127 0.0667 0.0
C2224 C 0.84551 0.65144 0.05548 0.0
C2225 C 0.85148 0.67367 0.04484 0.0
C2226 C 0.92315 0.6451 0.05203 0.0
C2227 C 0.88348 0.64859 0.05232 0.0
C2228 C 0.93735 0.6299 0.05113 0.0
C2229 C 0.92807 0.60323 0.05112 0.0
C2230 C 0.89953 0.63369 0.05327 0.0
C2231 C 0.90439 0.59278 0.05297 0.0
C2232 C 0.86137 0.63885 0.05916 0.0
C2233 C 0.87414 0.68359 0.03933 0.0
N2234 N 0.891 0.60799 0.05389 0.0
N2235 N 0.88931 0.67086 0.04297 0.0
H2236 H 0.19667 0.09059 0.80568 0.0
H2237 H 0.2956 0.22596 0.82986 0.0
H2238 H 0.23428 0.12278 0.87146 0.0
H2239 H 0.2564 0.19551 0.76465 0.0
H2240 H 0.27307 0.18828 0.84533 0.0
H2241 H 0.21778 0.12912 0.79055 0.0
C2242 C 0.20927 0.10583 0.81703 0.0
C2243 C 0.21383 0.10339 0.8399 0.0
C2244 C 0.26944 0.1897 0.82761 0.0
C2245 C 0.23815 0.14751 0.82251 0.0
C2246 C 0.2824 0.21111 0.8187 0.0
C2247 C 0.27788 0.21361 0.79589 0.0
C2248 C 0.25197 0.17056 0.81356 0.0
C2249 C 0.26033 0.19416 0.78233 0.0
C2250 C 0.22136 0.12782 0.80831 0.0
C2251 C 0.23035 0.12377 0.85371 0.0
N2252 N 0.248 0.17328 0.79138 0.0
N2253 N 0.24201 0.14501 0.84474 0.0
H2254 H 0.44172 0.97913 0.2896 0.0
H2255 H 0.32068 0.88095 0.30514 0.0
H2256 H 0.38363 1.00186 0.30661 0.0
H2257 H 0.36561 0.85822 0.26122 0.0
H2258 H 0.34509 0.92561 0.3069 0.0
H2259 H 0.41556 0.93482 0.27857 0.0
C2260 C 0.4234 0.97494 0.29021 0.0
C2261 C 0.41472 0.99397 0.29908 0.0
C2262 C 0.34959 0.9109 0.29676 0.0
C2263 C 0.38507 0.94375 0.28727 0.0
C2264 C 0.33574 0.88544 0.29592 0.0
C2265 C 0.3412 0.86603 0.28305 0.0
C2266 C 0.36937 0.91694 0.28512 0.0
C2267 C 0.36081 0.87279 0.27123 0.0
C2268 C 0.40854 0.9497 0.28416 0.0
C2269 C 0.39095 0.9876 0.29999 0.0
N2270 N 0.37442 0.89771 0.27278 0.0
N2271 N 0.37702 0.963 0.29452 0.0
H2272 H 0.61264 0.39741 0.60362 0.0
H2273 H 0.53676 0.44311 0.51446 0.0
H2274 H 0.56236 0.34599 0.5519 0.0
H2275 H 0.58607 0.49408 0.56739 0.0
H2276 H 0.5494 0.40784 0.5247 0.0
H2277 H 0.60804 0.43376 0.58631 0.0
C2278 C 0.60132 0.39374 0.58811 0.0
C2279 C 0.58775 0.36866 0.57927 0.0
C2280 C 0.55753 0.42679 0.53398 0.0
C2281 C 0.58175 0.41008 0.55983 0.0
C2282 C 0.5502 0.44692 0.52821 0.0
C2283 C 0.56013 0.4716 0.5402 0.0
C2284 C 0.57493 0.43136 0.55186 0.0
C2285 C 0.57767 0.47537 0.55776 0.0
C2286 C 0.59839 0.4145 0.57843 0.0
C2287 C 0.57304 0.36506 0.55935 0.0
N2288 N 0.58441 0.45551 0.56309 0.0
N2289 N 0.57014 0.3855 0.55054 0.0
H2290 H 0.46616 0.80445 0.37594 0.0
H2291 H 0.32988 0.75664 0.34657 0.0
H2292 H 0.42233 0.74218 0.40658 0.0
H2293 H 0.37924 0.79723 0.30392 0.0
H2294 H 0.36187 0.75502 0.37257 0.0
H2295 H 0.43264 0.8072 0.35429 0.0
C2296 C 0.44941 0.79146 0.3783 0.0
C2297 C 0.4471 0.77286 0.39294 0.0
C2298 C 0.36556 0.76421 0.35747 0.0
C2299 C 0.40841 0.77576 0.36781 0.0
C2300 C 0.34737 0.76515 0.34265 0.0
C2301 C 0.35187 0.77704 0.32298 0.0
C2302 C 0.38831 0.77566 0.35273 0.0
C2303 C 0.37485 0.78774 0.31874 0.0
C2304 C 0.43024 0.79296 0.3658 0.0
C2305 C 0.42486 0.75677 0.39543 0.0
N2306 N 0.3921 0.78691 0.33351 0.0
N2307 N 0.4063 0.75843 0.38281 0.0
H2308 H 0.03037 0.72359 0.08944 0.0
H2309 H 0.09665 0.62798 0.04519 0.0
H2310 H 0.10444 0.74738 0.09553 0.0
H2311 H 0.02337 0.6126 0.03524 0.0
H2312 H 0.10108 0.67122 0.06398 0.0
H2313 H 0.02867 0.68216 0.07077 0.0
C2314 C 0.04638 0.72021 0.08666 0.0
C2315 C 0.0676 0.73927 0.09387 0.0
C2316 C 0.0841 0.65833 0.05753 0.0
C2317 C 0.06576 0.69117 0.07214 0.0
C2318 C 0.08154 0.63368 0.04673 0.0
C2319 C 0.0596 0.61652 0.03842 0.0
C2320 C 0.06454 0.66571 0.0602 0.0
C2321 C 0.04067 0.625 0.04109 0.0
C2322 C 0.04539 0.69636 0.07596 0.0
C2323 C 0.08771 0.7333 0.09018 0.0
N2324 N 0.0436 0.64877 0.05176 0.0
N2325 N 0.08631 0.70977 0.07946 0.0
H2326 H 0.04631 0.26994 0.84468 0.0
H2327 H 0.18193 0.29726 0.86078 0.0
H2328 H 0.08406 0.28343 0.91075 0.0
H2329 H 0.14127 0.28423 0.79634 0.0
H2330 H 0.14747 0.29503 0.88003 0.0
H2331 H 0.08203 0.27827 0.82742 0.0
C2332 C 0.06218 0.27475 0.85562 0.0
C2333 C 0.06213 0.27575 0.87922 0.0
C2334 C 0.14622 0.2929 0.86169 0.0
C2335 C 0.10346 0.28528 0.85938 0.0
C2336 C 0.16584 0.29403 0.85067 0.0
C2337 C 0.16457 0.29091 0.82685 0.0
C2338 C 0.12518 0.2885 0.84877 0.0
C2339 C 0.14329 0.28714 0.81468 0.0
C2340 C 0.08266 0.27955 0.84571 0.0
C2341 C 0.08332 0.28234 0.89247 0.0
N2342 N 0.12453 0.28593 0.82576 0.0
N2343 N 0.10318 0.28668 0.88235 0.0
H2344 H 0.5653 0.69965 0.91211 0.0
H2345 H 0.5238 0.61616 0.01594 0.0
H2346 H 0.51796 0.71299 0.958 0.0
H2347 H 0.56044 0.59181 0.96389 0.0
H2348 H 0.52395 0.65285 0.99618 0.0
H2349 H 0.56656 0.66274 0.93155 0.0
C2350 C 0.55537 0.69527 0.92637 0.0
C2351 C 0.54158 0.7103 0.93311 0.0
C2352 C 0.532 0.63957 0.98893 0.0
C2353 C 0.54288 0.66689 0.95595 0.0
C2354 C 0.53191 0.61829 1.00035 0.0
C2355 C 0.542 0.60004 0.99191 0.0
C2356 C 0.54256 0.64365 0.96863 0.0
C2357 C 0.55222 0.60479 0.97138 0.0
C2358 C 0.55597 0.67381 0.93749 0.0
C2359 C 0.52898 0.70259 0.95178 0.0
N2360 N 0.55231 0.62579 0.96073 0.0
N2361 N 0.53 0.68199 0.96228 0.0
H2362 H 0.13657 0.84028 0.72559 0.0
H2363 H 0.22121 0.75542 0.74473 0.0
H2364 H 0.1193 0.75967 0.70302 0.0
H2365 H 0.24602 0.83726 0.7628 0.0
H2366 H 0.18398 0.7579 0.73046 0.0
H2367 H 0.17566 0.84114 0.73978 0.0
C2368 C 0.14084 0.82283 0.72317 0.0
C2369 C 0.12387 0.79985 0.71263 0.0
C2370 C 0.19742 0.77547 0.73755 0.0
C2371 C 0.16953 0.80064 0.72948 0.0
C2372 C 0.21902 0.77404 0.74586 0.0
C2373 C 0.23756 0.79608 0.75525 0.0
C2374 C 0.19331 0.79917 0.7385 0.0
C2375 C 0.23275 0.81954 0.75578 0.0
C2376 C 0.16337 0.82329 0.73152 0.0
C2377 C 0.13116 0.77799 0.71085 0.0
N2378 N 0.21145 0.8204 0.74776 0.0
N2379 N 0.15282 0.77897 0.71899 0.0
H2380 H 0.01309 0.35048 0.41657 0.0
H2381 H 0.07311 0.46207 0.5204 0.0
H2382 H 0.07638 0.35393 0.45334 0.0
H2383 H 0.02971 0.47286 0.46578 0.0
H2384 H 0.07258 0.42154 0.49873 0.0
H2385 H 0.01681 0.39299 0.43622 0.0
C2386 C 0.02805 0.36028 0.42854 0.0
C2387 C 0.04465 0.34825 0.43265 0.0
C2388 C 0.06322 0.43273 0.49136 0.0
C2389 C 0.04864 0.39776 0.45645 0.0
C2390 C 0.06345 0.45609 0.50384 0.0
C2391 C 0.05152 0.47159 0.49517 0.0
C2392 C 0.05042 0.42376 0.46995 0.0
C2393 C 0.03939 0.46214 0.4734 0.0
C2394 C 0.0301 0.38475 0.43991 0.0
C2395 C 0.0633 0.36222 0.44898 0.0
N2396 N 0.03894 0.43905 0.46189 0.0
N2397 N 0.06461 0.3858 0.46029 0.0
H2398 H 0.45737 0.26997 0.18112 0.0
H2399 H 0.39032 0.32895 0.27552 0.0
H2400 H 0.49227 0.33182 0.23387 0.0
H2401 H 0.35677 0.25762 0.2326 0.0
H2402 H 0.42643 0.33156 0.25893 0.0
H2403 H 0.42064 0.26664 0.19725 0.0
C2404 C 0.45754 0.28314 0.19592 0.0
C2405 C 0.47878 0.30141 0.2057 0.0
C2406 C 0.41129 0.31522 0.25304 0.0
C2407 C 0.43534 0.29756 0.22488 0.0
C2408 C 0.39029 0.31363 0.26267 0.0
C2409 C 0.3696 0.29288 0.25596 0.0
C2410 C 0.41249 0.29612 0.23589 0.0
C2411 C 0.37172 0.27405 0.23883 0.0
C2412 C 0.43625 0.28108 0.20533 0.0
C2413 C 0.47691 0.31743 0.22526 0.0
N2414 N 0.39228 0.27619 0.22957 0.0
N2415 N 0.45609 0.31522 0.23387 0.0
H2416 H 0.63091 0.57129 0.37442 0.0
H2417 H 0.60971 0.52817 0.49155 0.0
H2418 H 0.67215 0.53696 0.4126 0.0
H2419 H 0.56433 0.55584 0.45136 0.0
H2420 H 0.64077 0.54819 0.47004 0.0
H2421 H 0.61745 0.58503 0.40942 0.0
C2422 C 0.63751 0.5671 0.39028 0.0
C2423 C 0.65127 0.55136 0.39068 0.0
C2424 C 0.62412 0.55013 0.46595 0.0
C2425 C 0.63588 0.56669 0.43029 0.0
C2426 C 0.60622 0.53835 0.47799 0.0
C2427 C 0.58422 0.5397 0.47268 0.0
C2428 C 0.61984 0.56239 0.44771 0.0
C2429 C 0.58084 0.55353 0.45534 0.0
C2430 C 0.62996 0.57515 0.41024 0.0
C2431 C 0.66051 0.54787 0.41155 0.0
N2432 N 0.59846 0.56399 0.44309 0.0
N2433 N 0.65205 0.55482 0.43064 0.0
H2434 H 0.32171 0.9207 0.07479 0.0
H2435 H 0.35098 0.80625 0.12422 0.0
H2436 H 0.36278 0.88073 0.04127 0.0
H2437 H 0.33615 0.86603 0.16642 0.0
H2438 H 0.3518 0.83034 0.09215 0.0
H2439 H 0.32208 0.89692 0.10697 0.0
C2440 C 0.33058 0.90672 0.0741 0.0
C2441 C 0.34223 0.90263 0.05538 0.0
C2442 C 0.34847 0.83817 0.10849 0.0
C2443 C 0.34276 0.87554 0.09201 0.0
C2444 C 0.34815 0.82454 0.12684 0.0
C2445 C 0.34328 0.834 0.14803 0.0
C2446 C 0.34363 0.86124 0.11129 0.0
C2447 C 0.33943 0.85768 0.15029 0.0
C2448 C 0.33096 0.89336 0.09253 0.0
C2449 C 0.35366 0.88451 0.05544 0.0
N2450 N 0.33949 0.87038 0.13209 0.0
N2451 N 0.35357 0.87153 0.07347 0.0
H2452 H 0.03223 0.58772 0.84651 0.0
H2453 H 0.99883 0.50931 0.94814 0.0
H2454 H 0.97587 0.51689 0.84029 0.0
H2455 H 0.06463 0.56796 0.9483 0.0
H2456 H 0.99195 0.50908 0.90736 0.0
H2457 H 0.04751 0.57744 0.88169 0.0
C2458 C 0.02371 0.56943 0.8521 0.0
C2459 C 1.00302 0.55293 0.84062 0.0
C2460 C 0.00803 0.52174 0.91627 0.0
C2461 C 0.01942 0.54169 0.88122 0.0
C2462 C 0.01187 0.52205 0.93958 0.0
C2463 C 0.03218 0.53893 0.95166 0.0
C2464 C 0.02452 0.53864 0.90505 0.0
C2465 C 0.0486 0.55482 0.9397 0.0
C2466 C 0.03222 0.56368 0.87229 0.0
C2467 C 0.99207 0.52985 0.84871 0.0
N2468 N 0.04429 0.55449 0.91708 0.0
N2469 N 1.00015 0.52512 0.86887 0.0
H2470 H 0.35341 0.27503 0.59966 0.0
H2471 H 0.27098 0.26296 0.70023 0.0
H2472 H 0.28055 0.23437 0.58838 0.0
H2473 H 0.34434 0.28085 0.71187 0.0
H2474 H 0.27374 0.2577 0.65915 0.0
H2475 H 0.34987 0.28321 0.64019 0.0
C2476 C 0.33655 0.26812 0.60554 0.0
C2477 C 0.31726 0.25391 0.59024 0.0
C2478 C 0.28924 0.26279 0.67068 0.0
C2479 C 0.31313 0.26323 0.63727 0.0
C2480 C 0.2877 0.26584 0.69421 0.0
C2481 C 0.30742 0.27212 0.70975 0.0
C2482 C 0.31076 0.26658 0.66236 0.0
C2483 C 0.32859 0.27564 0.7007 0.0
C2484 C 0.3346 0.27266 0.62886 0.0
C2485 C 0.29596 0.2454 0.59931 0.0
N2486 N 0.32969 0.27298 0.67776 0.0
N2487 N 0.2945 0.25016 0.62208 0.0
H2488 H 0.62808 0.50837 0.25818 0.0
H2489 H 0.58623 0.60519 0.19196 0.0
H2490 H 0.63697 0.58581 0.28748 0.0
H2491 H 0.56267 0.52335 0.17203 0.0
H2492 H 0.60589 0.59925 0.22677 0.0
H2493 H 0.60638 0.5146 0.22491 0.0
C2494 C 0.62559 0.52672 0.25752 0.0
C2495 C 0.63417 0.54655 0.27558 0.0
C2496 C 0.5962 0.58259 0.21486 0.0
C2497 C 0.60929 0.55372 0.23788 0.0
C2498 C 0.5848 0.58596 0.19515 0.0
C2499 C 0.573 0.56473 0.17909 0.0
C2500 C 0.59587 0.55789 0.2183 0.0
C2501 C 0.57192 0.54024 0.18386 0.0
C2502 C 0.61307 0.5302 0.23866 0.0
C2503 C 0.63048 0.56995 0.27394 0.0
N2504 N 0.58345 0.53751 0.20294 0.0
N2505 N 0.61827 0.5729 0.25539 0.0
H2506 H 0.30249 0.9259 0.9326 0.0
H2507 H 0.27905 0.79242 0.85526 0.0
H2508 H 0.31836 0.863 0.95777 0.0
H2509 H 0.30865 0.86547 0.83163 0.0
H2510 H 0.27892 0.81495 0.893 0.0
H2511 H 0.2895 0.89983 0.89529 0.0
C2512 C 0.30242 0.90627 0.93042 0.0
C2513 C 0.31139 0.89639 0.94804 0.0
C2514 C 0.28501 0.82591 0.87934 0.0
C2515 C 0.29662 0.86679 0.90594 0.0
C2516 C 0.28507 0.81317 0.85789 0.0
C2517 C 0.29405 0.82718 0.84042 0.0
C2518 C 0.29339 0.85273 0.88302 0.0
C2519 C 0.30176 0.85399 0.84468 0.0
C2520 C 0.29522 0.89157 0.90921 0.0
C2521 C 0.31149 0.87113 0.94444 0.0
N2522 N 0.30126 0.86594 0.8656 0.0
N2523 N 0.30428 0.85712 0.92367 0.0
H2524 H 0.93122 0.50381 0.73802 0.0
H2525 H 0.05245 0.54439 0.69711 0.0
H2526 H 0.98446 0.57526 0.76248 0.0
H2527 H 1.00189 0.46958 0.67832 0.0
H2528 H 0.03295 0.55041 0.73058 0.0
H2529 H 0.96044 0.48566 0.72576 0.0
C2530 C 0.94919 0.51538 0.74135 0.0
C2531 C 0.95562 0.541 0.75104 0.0
C2532 C 0.02644 0.53234 0.71954 0.0
C2533 C 0.989 0.5209 0.73648 0.0
C2534 C 0.03763 0.52893 0.70047 0.0
C2535 C 0.02834 0.50679 0.68471 0.0
C2536 C 1.00549 0.51379 0.72237 0.0
C2537 C 0.00938 0.48711 0.68994 0.0
C2538 C 0.96589 0.50507 0.73442 0.0
C2539 C 0.97897 0.55536 0.75505 0.0
N2540 N 0.99814 0.49137 0.708 0.0
N2541 N 0.99485 0.54528 0.74731 0.0
H2542 H 0.27947 0.22539 0.45347 0.0
H2543 H 0.34494 0.30355 0.35738 0.0
H2544 H 0.34723 0.28165 0.46616 0.0
H2545 H 0.28222 0.23934 0.34249 0.0
H2546 H 0.34491 0.29754 0.3975 0.0
H2547 H 0.27851 0.23281 0.41364 0.0
C2548 C 0.29399 0.23968 0.4481 0.0
C2549 C 0.31345 0.25292 0.46354 0.0
C2550 C 0.33118 0.28467 0.38547 0.0
C2551 C 0.31258 0.26124 0.41738 0.0
C2552 C 0.33123 0.28802 0.36244 0.0
C2553 C 0.31364 0.27185 0.34623 0.0
C2554 C 0.31327 0.26512 0.39272 0.0
C2555 C 0.29629 0.2522 0.35414 0.0
C2556 C 0.29352 0.24371 0.42518 0.0
C2557 C 0.3318 0.27094 0.45513 0.0
N2558 N 0.2965 0.2495 0.37669 0.0
N2559 N 0.33093 0.27446 0.4328 0.0
H2560 H 0.32145 0.56821 0.57657 0.0
H2561 H 0.41084 0.55179 0.49087 0.0
H2562 H 0.34993 0.62244 0.53069 0.0
H2563 H 0.40048 0.51254 0.54998 0.0
H2564 H 0.38613 0.57576 0.50411 0.0
H2565 H 0.34941 0.54674 0.56732 0.0
C2566 C 0.33388 0.57592 0.56493 0.0
C2567 C 0.33324 0.597 0.55422 0.0
C2568 C 0.38929 0.56194 0.51422 0.0
C2569 C 0.36473 0.57221 0.54317 0.0
C2570 C 0.40313 0.54799 0.5065 0.0
C2571 C 0.40764 0.53007 0.5193 0.0
C2572 C 0.37971 0.55783 0.53481 0.0
C2573 C 0.39752 0.52628 0.53966 0.0
C2574 C 0.34972 0.56358 0.55956 0.0
C2575 C 0.34971 0.60618 0.53926 0.0
N2576 N 0.38394 0.54 0.54677 0.0
N2577 N 0.36454 0.59349 0.53392 0.0
H2578 H 0.87928 0.89221 0.53539 0.0
H2579 H 0.96332 0.03066 0.52856 0.0
H2580 H 0.85307 0.95197 0.51851 0.0
H2581 H 0.98102 0.96373 0.50562 0.0
H2582 H 0.92339 1.00314 0.52912 0.0
H2583 H 0.91789 0.91909 0.5291 0.0
C2584 C 0.88161 0.91088 0.53024 0.0
C2585 C 0.86297 0.91986 0.5274 0.0
C2586 C 0.93601 0.99461 0.52368 0.0
C2587 C 0.90695 0.95072 0.52059 0.0
C2588 C 0.95871 0.01025 0.52333 0.0
C2589 C 0.97537 0.99944 0.51686 0.0
C2590 C 0.9302 0.96798 0.51818 0.0
C2591 C 0.9686 0.97286 0.51042 0.0
C2592 C 0.90359 0.92614 0.52658 0.0
C2593 C 0.86697 0.94426 0.52075 0.0
N2594 N 0.94659 0.95795 0.5116 0.0
N2595 N 0.8886 0.959 0.51784 0.0
H2596 H 0.89511 0.10905 0.23522 0.0
H2597 H 0.77828 0.11322 0.27494 0.0
H2598 H 0.8501 0.03808 0.25263 0.0
H2599 H 0.84431 0.16079 0.309 0.0
H2600 H 0.79725 0.08558 0.25529 0.0
H2601 H 0.86753 0.13006 0.2469 0.0
C2602 C 0.87887 0.09765 0.24038 0.0
C2603 C 0.8748 0.07209 0.24344 0.0
C2604 C 0.80734 0.10207 0.26719 0.0
C2605 C 0.84377 0.09568 0.25674 0.0
C2606 C 0.79661 0.11756 0.27868 0.0
C2607 C 0.80986 0.13969 0.29321 0.0
C2608 C 0.8313 0.10936 0.26998 0.0
C2609 C 0.83355 0.14441 0.29738 0.0
C2610 C 0.86338 0.10965 0.24728 0.0
C2611 C 0.85372 0.05802 0.25041 0.0
N2612 N 0.84363 0.12971 0.28536 0.0
N2613 N 0.83896 0.07017 0.25732 0.0
H2614 H 0.74167 0.0707 0.04923 0.0
H2615 H 0.62732 0.10556 0.03503 0.0
H2616 H 0.71741 0.09335 0.9882 0.0
H2617 H 0.62627 0.03593 0.06164 0.0
H2618 H 0.66813 0.11518 0.03119 0.0
H2619 H 0.70598 0.07085 0.06564 0.0
C2620 C 0.72892 0.07601 0.03949 0.0
C2621 C 0.73204 0.08172 0.01733 0.0
C2622 C 0.659 0.09813 0.03837 0.0
C2623 C 0.69229 0.0828 0.03604 0.0
C2624 C 0.63574 0.09254 0.04057 0.0
C2625 C 0.62323 0.06941 0.04795 0.0
C2626 C 0.66986 0.08071 0.0439 0.0
C2627 C 0.63521 0.05366 0.05539 0.0
C2628 C 0.70876 0.07611 0.04881 0.0
C2629 C 0.71531 0.08853 0.00524 0.0
N2630 N 0.65795 0.05939 0.05282 0.0
N2631 N 0.69608 0.08897 0.01481 0.0
H2632 H 0.21309 0.47305 0.21872 0.0
H2633 H 0.29594 0.46552 0.32249 0.0
H2634 H 0.2176 0.51143 0.28661 0.0
H2635 H 0.2923 0.42709 0.25498 0.0
H2636 H 0.27401 0.49103 0.30746 0.0
H2637 H 0.24856 0.46424 0.22926 0.0
C2638 C 0.22176 0.47996 0.23567 0.0
C2639 C 0.21224 0.49234 0.252 0.0
C2640 C 0.27848 0.47747 0.29581 0.0
C2641 C 0.25237 0.48244 0.26415 0.0
C2642 C 0.29104 0.46309 0.30441 0.0
C2643 C 0.29548 0.44422 0.28987 0.0
C2644 C 0.27029 0.47255 0.27263 0.0
C2645 C 0.28881 0.44141 0.26662 0.0
C2646 C 0.24194 0.47498 0.2417 0.0
C2647 C 0.22413 0.50121 0.27366 0.0
N2648 N 0.27617 0.45516 0.25871 0.0
N2649 N 0.2434 0.49575 0.27921 0.0
H2650 H 0.22127 0.3812 0.03681 0.0
H2651 H 0.19325 0.50075 0.9935 0.0
H2652 H 0.2708 0.44697 0.01579 0.0
H2653 H 0.14553 0.44714 0.02927 0.0
H2654 H 0.21943 0.47644 0.9964 0.0
H2655 H 0.19108 0.40058 0.02948 0.0
C2656 C 0.22571 0.3995 0.03043 0.0
C2657 C 0.24858 0.41262 0.02708 0.0
C2658 C 0.20321 0.46985 0.00358 0.0
C2659 C 0.21441 0.43465 0.01857 0.0
C2660 C 0.18809 0.48365 0.00175 0.0
C2661 C 0.16704 0.47604 0.01111 0.0
C2662 C 0.19748 0.44816 0.01496 0.0
C2663 C 0.16168 0.45392 0.02202 0.0
C2664 C 0.20857 0.41059 0.02637 0.0
C2665 C 0.25347 0.43631 0.01888 0.0
N2666 N 0.17682 0.44075 0.0237 0.0
N2667 N 0.23661 0.44648 0.01494 0.0
H2668 H 0.92675 0.96022 0.23308 0.0
H2669 H 0.80667 0.86387 0.25043 0.0
H2670 H 0.86399 0.97841 0.23242 0.0
H2671 H 0.8693 0.84497 0.25009 0.0
H2672 H 0.82518 0.90191 0.23296 0.0
H2673 H 0.90418 0.91453 0.22751 0.0
C2674 C 0.90816 0.95442 0.23105 0.0
C2675 C 0.89698 0.97262 0.23366 0.0
C2676 C 0.83481 0.8893 0.23649 0.0
C2677 C 0.87126 0.92107 0.22794 0.0
C2678 C 0.82432 0.86774 0.2467 0.0
C2679 C 0.83677 0.85184 0.25255 0.0
C2680 C 0.85801 0.8952 0.23253 0.0
C2681 C 0.85928 0.85717 0.24652 0.0
C2682 C 0.89528 0.92846 0.22794 0.0
C2683 C 0.87302 0.96461 0.23087 0.0
N2684 N 0.86934 0.8787 0.23723 0.0
N2685 N 0.86087 0.93931 0.22859 0.0
H2686 H 0.68216 0.08847 0.7301 0.0
H2687 H 0.76742 0.21047 0.81071 0.0
H2688 H 0.69034 0.09459 0.80319 0.0
H2689 H 0.75742 0.20679 0.73794 0.0
H2690 H 0.74109 0.16678 0.8078 0.0
H2691 H 0.71082 0.13092 0.73229 0.0
C2692 C 0.68987 0.09878 0.74663 0.0
C2693 C 0.68372 0.08797 0.76653 0.0
C2694 C 0.74468 0.17547 0.79245 0.0
C2695 C 0.71672 0.13649 0.76908 0.0
C2696 C 0.75976 0.20043 0.79408 0.0
C2697 C 0.76444 0.21239 0.77455 0.0
C2698 C 0.73406 0.16236 0.77113 0.0
C2699 C 0.75422 0.19833 0.75345 0.0
C2700 C 0.7063 0.12299 0.74784 0.0
C2701 C 0.69436 0.10222 0.78743 0.0
N2702 N 0.73935 0.17408 0.75231 0.0
N2703 N 0.71036 0.12571 0.78814 0.0
loop_
_geom_bond_atom_site_label_1
_geom_bond_atom_site_label_2
_geom_bond_distance
_geom_bond_site_symmetry_2
_ccdc_geom_bond_type
Mg0 O1 2.028 . S
Mg0 O7 1.986 . S
Mg0 O9 2.114 . S
Mg0 O10 2.251 1_455 S
Mg0 O13 2.010 . S
O1 Mg0 2.028 . S
O1 C4 1.250 . S
O2 Mg3 2.028 1_455 S
O2 C4 1.248 . S
Mg3 O2 2.028 1_655 S
Mg3 O8 2.032 1_655 S
Mg3 O10 2.079 . S
C4 O1 1.250 . S
C4 O2 1.248 . S
C5 O6 1.264 . S
C5 O13 1.249 . S
O6 C5 1.264 . S
O7 Mg0 1.986 . S
O7 C11 1.246 . S
O8 Mg3 2.032 1_455 S
O8 C11 1.259 . S
O9 Mg0 2.114 . S
O9 C12 1.252 1_455 S
O10 Mg0 2.251 1_655 S
O10 Mg3 2.079 . S
O10 C12 1.273 . S
C11 O7 1.246 . S
C11 O8 1.259 . S
C12 O9 1.252 1_655 S
C12 O10 1.273 . S
O13 Mg0 2.010 . S
O13 C5 1.249 . S
Mg14 O15 2.028 . S
Mg14 O21 1.986 . S
Mg14 O23 2.114 . S
Mg14 O24 2.251 . S
Mg14 O27 2.010 . S
O15 Mg14 2.028 . S
O15 C18 1.250 . S
O16 Mg17 2.055 . S
O16 C18 1.248 . S
Mg17 O16 2.055 . S
Mg17 O22 2.050 . S
Mg17 O24 2.085 . S
C18 O15 1.250 . S
C18 O16 1.248 . S
C19 O20 1.264 . S
C19 O27 1.249 . S
O20 C19 1.264 . S
O21 Mg14 1.986 . S
O21 C25 1.246 . S
O22 Mg17 2.050 . S
O22 C25 1.259 . S
O23 Mg14 2.114 . S
O23 C26 1.252 . S
O24 Mg14 2.251 . S
O24 Mg17 2.085 . S
O24 C26 1.273 . S
C25 O21 1.246 . S
C25 O22 1.259 . S
C26 O23 1.252 . S
C26 O24 1.273 . S
O27 Mg14 2.010 . S
O27 C19 1.249 . S
Mg28 O29 2.028 . S
Mg28 O35 1.986 . S
Mg28 O37 2.114 . S
Mg28 O38 2.251 . S
Mg28 O41 2.010 . S
O29 Mg28 2.028 . S
O29 C32 1.250 . S
O30 Mg31 2.028 . S
O30 C32 1.248 . S
Mg31 O30 2.028 . S
Mg31 O36 2.032 . S
Mg31 O38 2.079 . S
C32 O29 1.250 . S
C32 O30 1.248 . S
C33 O34 1.264 . S
C33 O41 1.249 . S
O34 C33 1.264 . S
O35 Mg28 1.986 . S
O35 C39 1.246 . S
O36 Mg31 2.032 . S
O36 C39 1.259 . S
O37 Mg28 2.114 . S
O37 C40 1.252 . S
O38 Mg28 2.251 . S
O38 Mg31 2.079 . S
O38 C40 1.273 . S
C39 O35 1.246 . S
C39 O36 1.259 . S
C40 O37 1.252 . S
C40 O38 1.273 . S
O41 Mg28 2.010 . S
O41 C33 1.249 . S
Mg42 O43 2.028 . S
Mg42 O49 1.986 . S
Mg42 O51 2.114 . S
Mg42 O52 2.251 . S
Mg42 O55 2.010 . S
O43 Mg42 2.028 . S
O43 C46 1.250 . S
O44 Mg45 2.028 . S
O44 C46 1.248 . S
Mg45 O44 2.028 . S
Mg45 O50 2.032 . S
Mg45 O52 2.079 . S
C46 O43 1.250 . S
C46 O44 1.248 . S
C47 O48 1.264 . S
C47 O55 1.249 . S
O48 C47 1.264 . S
O49 Mg42 1.986 . S
O49 C53 1.246 . S
O50 Mg45 2.032 . S
O50 C53 1.259 . S
O51 Mg42 2.114 . S
O51 C54 1.252 . S
O52 Mg42 2.251 . S
O52 Mg45 2.079 . S
O52 C54 1.273 . S
C53 O49 1.246 . S
C53 O50 1.259 . S
C54 O51 1.252 . S
C54 O52 1.273 . S
O55 Mg42 2.010 . S
O55 C47 1.249 . S
Mg56 O57 2.028 . S
Mg56 O63 1.986 . S
Mg56 O65 2.114 . S
Mg56 O66 2.251 . S
Mg56 O69 2.010 . S
O57 Mg56 2.028 . S
O57 C60 1.250 . S
O58 Mg59 2.028 . S
O58 C60 1.248 . S
Mg59 O58 2.028 . S
Mg59 O64 2.032 . S
Mg59 O66 2.079 . S
C60 O57 1.250 . S
C60 O58 1.248 . S
C61 O62 1.264 . S
C61 O69 1.249 . S
O62 C61 1.264 . S
O63 Mg56 1.986 . S
O63 C67 1.246 . S
O64 Mg59 2.032 . S
O64 C67 1.259 . S
O65 Mg56 2.114 . S
O65 C68 1.252 . S
O66 Mg56 2.251 . S
O66 Mg59 2.079 . S
O66 C68 1.273 . S
C67 O63 1.246 . S
C67 O64 1.259 . S
C68 O65 1.252 . S
C68 O66 1.273 . S
O69 Mg56 2.010 . S
O69 C61 1.249 . S
Mg70 O71 2.028 . S
Mg70 O77 1.986 . S
Mg70 O79 2.114 . S
Mg70 O80 2.251 . S
Mg70 O83 2.010 . S
O71 Mg70 2.028 . S
O71 C74 1.250 . S
O72 Mg73 2.028 . S
O72 C74 1.248 . S
Mg73 O72 2.028 . S
Mg73 O78 2.032 . S
Mg73 O80 2.079 . S
C74 O71 1.250 . S
C74 O72 1.248 . S
C75 O76 1.264 . S
C75 O83 1.249 . S
O76 C75 1.264 . S
O77 Mg70 1.986 . S
O77 C81 1.246 . S
O78 Mg73 2.032 . S
O78 C81 1.259 . S
O79 Mg70 2.114 . S
O79 C82 1.252 . S
O80 Mg70 2.251 . S
O80 Mg73 2.079 . S
O80 C82 1.273 . S
C81 O77 1.246 . S
C81 O78 1.259 . S
C82 O79 1.252 . S
C82 O80 1.273 . S
O83 Mg70 2.010 . S
O83 C75 1.249 . S
Mg84 O85 2.028 . S
Mg84 O91 1.986 . S
Mg84 O93 2.114 . S
Mg84 O94 2.251 . S
Mg84 O97 2.010 . S
O85 Mg84 2.028 . S
O85 C88 1.250 . S
O86 Mg87 2.028 . S
O86 C88 1.248 . S
Mg87 O86 2.028 . S
Mg87 O92 2.032 . S
Mg87 O94 2.079 . S
C88 O85 1.250 . S
C88 O86 1.248 . S
C89 O90 1.264 . S
C89 O97 1.249 . S
O90 C89 1.264 . S
O91 Mg84 1.986 . S
O91 C95 1.246 . S
O92 Mg87 2.032 . S
O92 C95 1.259 . S
O93 Mg84 2.114 . S
O93 C96 1.252 . S
O94 Mg84 2.251 . S
O94 Mg87 2.079 . S
O94 C96 1.273 . S
C95 O91 1.246 . S
C95 O92 1.259 . S
C96 O93 1.252 . S
C96 O94 1.273 . S
O97 Mg84 2.010 . S
O97 C89 1.249 . S
Mg98 O99 2.028 1_655 S
Mg98 O105 1.986 1_655 S
Mg98 O107 2.114 . S
Mg98 O108 2.251 . S
Mg98 O111 2.010 1_655 S
O99 Mg98 2.028 1_455 S
O99 C102 1.250 . S
O100 Mg101 2.028 . S
O100 C102 1.248 1_655 S
Mg101 O100 2.028 . S
Mg101 O106 2.032 . S
Mg101 O108 2.079 . S
C102 O99 1.250 . S
C102 O100 1.248 1_455 S
C103 O104 1.264 . S
C103 O111 1.249 . S
O104 C103 1.264 . S
O105 Mg98 1.986 1_455 S
O105 C109 1.246 1_455 S
O106 Mg101 2.032 . S
O106 C109 1.259 . S
O107 Mg98 2.114 . S
O107 C110 1.252 . S
O108 Mg98 2.251 . S
O108 Mg101 2.079 . S
O108 C110 1.273 . S
C109 O105 1.246 1_655 S
C109 O106 1.259 . S
C110 O107 1.252 . S
C110 O108 1.273 . S
O111 Mg98 2.010 1_455 S
O111 C103 1.249 . S
Mg112 O113 2.028 . S
Mg112 O119 1.986 . S
Mg112 O121 2.114 . S
Mg112 O122 2.251 . S
Mg112 O125 2.010 . S
O113 Mg112 2.028 . S
O113 C116 1.250 1_545 S
O114 Mg115 2.017 1_565 S
O114 C116 1.252 . S
Mg115 O114 2.017 1_545 S
Mg115 O120 2.032 . S
Mg115 O122 2.079 . S
C116 O113 1.250 1_565 S
C116 O114 1.252 . S
C117 O118 1.264 . S
C117 O125 1.249 . S
O118 C117 1.264 . S
O119 Mg112 1.986 . S
O119 C123 1.246 . S
O120 Mg115 2.032 . S
O120 C123 1.259 . S
O121 Mg112 2.114 . S
O121 C124 1.252 . S
O122 Mg112 2.251 . S
O122 Mg115 2.079 . S
O122 C124 1.273 . S
C123 O119 1.246 . S
C123 O120 1.259 . S
C124 O121 1.252 . S
C124 O122 1.273 . S
O125 Mg112 2.010 . S
O125 C117 1.249 . S
Mg126 O127 2.028 . S
Mg126 O133 1.986 . S
Mg126 O135 2.114 . S
Mg126 O136 2.251 . S
Mg126 O139 2.010 . S
O127 Mg126 2.028 . S
O127 C130 1.250 . S
O128 Mg129 2.028 . S
O128 C130 1.248 . S
Mg129 O128 2.028 . S
Mg129 O134 2.032 . S
Mg129 O136 2.079 . S
C130 O127 1.250 . S
C130 O128 1.248 . S
C131 O132 1.264 . S
C131 O139 1.249 . S
O132 C131 1.264 . S
O133 Mg126 1.986 . S
O133 C137 1.246 . S
O134 Mg129 2.032 . S
O134 C137 1.259 . S
O135 Mg126 2.114 . S
O135 C138 1.252 . S
O136 Mg126 2.251 . S
O136 Mg129 2.079 . S
O136 C138 1.273 . S
C137 O133 1.246 . S
C137 O134 1.259 . S
C138 O135 1.252 . S
C138 O136 1.273 . S
O139 Mg126 2.010 . S
O139 C131 1.249 . S
Mg140 O141 2.028 . S
Mg140 O147 1.986 . S
Mg140 O149 2.114 . S
Mg140 O150 2.251 . S
Mg140 O153 2.010 . S
O141 Mg140 2.028 . S
O141 C144 1.250 . S
O142 Mg143 2.028 . S
O142 C144 1.248 . S
Mg143 O142 2.028 . S
Mg143 O148 2.032 . S
Mg143 O150 2.079 . S
C144 O141 1.250 . S
C144 O142 1.248 . S
C145 O146 1.264 . S
C145 O153 1.249 . S
O146 C145 1.264 . S
O147 Mg140 1.986 . S
O147 C151 1.246 . S
O148 Mg143 2.032 . S
O148 C151 1.259 . S
O149 Mg140 2.114 . S
O149 C152 1.252 . S
O150 Mg140 2.251 . S
O150 Mg143 2.079 . S
O150 C152 1.273 . S
C151 O147 1.246 . S
C151 O148 1.259 . S
C152 O149 1.252 . S
C152 O150 1.273 . S
O153 Mg140 2.010 . S
O153 C145 1.249 . S
Mg154 O155 2.028 1_554 S
Mg154 O161 1.986 . S
Mg154 O163 2.114 1_554 S
Mg154 O164 2.251 . S
Mg154 O167 2.010 . S
O155 Mg154 2.028 1_556 S
O155 C158 1.250 . S
O156 Mg157 2.028 1_556 S
O156 C158 1.248 . S
Mg157 O156 2.028 1_554 S
Mg157 O162 2.032 . S
Mg157 O164 2.079 . S
C158 O155 1.250 . S
C158 O156 1.248 . S
C159 O160 1.264 . S
C159 O167 1.249 . S
O160 C159 1.264 . S
O161 Mg154 1.986 . S
O161 C165 1.246 . S
O162 Mg157 2.032 . S
O162 C165 1.259 . S
O163 Mg154 2.114 1_556 S
O163 C166 1.252 1_556 S
O164 Mg154 2.251 . S
O164 Mg157 2.079 . S
O164 C166 1.273 . S
C165 O161 1.246 . S
C165 O162 1.259 . S
C166 O163 1.252 1_554 S
C166 O164 1.273 . S
O167 Mg154 2.010 . S
O167 C159 1.249 . S
Mg168 O169 2.028 . S
Mg168 O175 1.986 . S
Mg168 O177 2.114 . S
Mg168 O178 2.251 . S
Mg168 O181 2.010 . S
O169 Mg168 2.028 . S
O169 C172 1.250 1_554 S
O170 Mg171 2.028 . S
O170 C172 1.248 1_554 S
Mg171 O170 2.028 . S
Mg171 O176 2.032 . S
Mg171 O178 2.079 . S
C172 O169 1.250 1_556 S
C172 O170 1.248 1_556 S
C173 O174 1.264 . S
C173 O181 1.249 . S
O174 C173 1.264 . S
O175 Mg168 1.986 . S
O175 C179 1.246 . S
O176 Mg171 2.032 . S
O176 C179 1.259 . S
O177 Mg168 2.114 . S
O177 C180 1.252 . S
O178 Mg168 2.251 . S
O178 Mg171 2.079 . S
O178 C180 1.273 . S
C179 O175 1.246 . S
C179 O176 1.259 . S
C180 O177 1.252 . S
C180 O178 1.273 . S
O181 Mg168 2.010 . S
O181 C173 1.249 . S
Mg182 O183 2.028 . S
Mg182 O189 1.986 . S
Mg182 O191 2.114 . S
Mg182 O192 2.251 . S
Mg182 O195 2.010 . S
O183 Mg182 2.028 . S
O183 C186 1.250 . S
O184 Mg185 2.028 . S
O184 C186 1.248 . S
Mg185 O184 2.028 . S
Mg185 O190 2.032 . S
Mg185 O192 2.079 . S
C186 O183 1.250 . S
C186 O184 1.248 . S
C187 O188 1.264 . S
C187 O195 1.249 . S
O188 C187 1.264 . S
O189 Mg182 1.986 . S
O189 C193 1.246 . S
O190 Mg185 2.032 . S
O190 C193 1.259 . S
O191 Mg182 2.114 . S
O191 C194 1.252 . S
O192 Mg182 2.251 . S
O192 Mg185 2.079 . S
O192 C194 1.273 . S
C193 O189 1.246 . S
C193 O190 1.259 . S
C194 O191 1.252 . S
C194 O192 1.273 . S
O195 Mg182 2.010 . S
O195 C187 1.249 . S
Mg196 O197 2.028 . S
Mg196 O203 1.986 . S
Mg196 O205 2.114 . S
Mg196 O206 2.251 . S
Mg196 O209 2.010 . S
O197 Mg196 2.028 . S
O197 C200 1.250 . S
O198 Mg199 2.028 . S
O198 C200 1.248 . S
Mg199 O198 2.028 . S
Mg199 O204 2.032 . S
Mg199 O206 2.079 . S
C200 O197 1.250 . S
C200 O198 1.248 . S
C201 O202 1.264 . S
C201 O209 1.249 . S
O202 C201 1.264 . S
O203 Mg196 1.986 . S
O203 C207 1.246 . S
O204 Mg199 2.032 . S
O204 C207 1.259 . S
O205 Mg196 2.114 . S
O205 C208 1.252 . S
O206 Mg196 2.251 . S
O206 Mg199 2.079 . S
O206 C208 1.273 . S
C207 O203 1.246 . S
C207 O204 1.259 . S
C208 O205 1.252 . S
C208 O206 1.273 . S
O209 Mg196 2.010 . S
O209 C201 1.249 . S
Mg210 O211 2.028 . S
Mg210 O217 1.986 . S
Mg210 O219 2.114 . S
Mg210 O220 2.251 . S
Mg210 O223 2.010 . S
O211 Mg210 2.028 . S
O211 C214 1.250 . S
O212 Mg213 2.028 . S
O212 C214 1.248 . S
Mg213 O212 2.028 . S
Mg213 O218 2.032 . S
Mg213 O220 2.079 . S
C214 O211 1.250 . S
C214 O212 1.248 . S
C215 O216 1.264 . S
C215 O223 1.249 . S
O216 C215 1.264 . S
O217 Mg210 1.986 . S
O217 C221 1.246 . S
O218 Mg213 2.032 . S
O218 C221 1.259 . S
O219 Mg210 2.114 . S
O219 C222 1.252 . S
O220 Mg210 2.251 . S
O220 Mg213 2.079 . S
O220 C222 1.273 . S
C221 O217 1.246 . S
C221 O218 1.259 . S
C222 O219 1.252 . S
C222 O220 1.273 . S
O223 Mg210 2.010 . S
O223 C215 1.249 . S
Mg224 O225 2.028 1_545 S
Mg224 O231 1.986 . S
Mg224 O233 2.114 . S
Mg224 O234 2.251 . S
Mg224 O237 2.010 . S
O225 Mg224 2.028 1_565 S
O225 C228 1.250 . S
O226 Mg227 2.028 1_565 S
O226 C228 1.248 . S
Mg227 O226 2.028 1_545 S
Mg227 O232 2.032 . S
Mg227 O234 2.079 . S
C228 O225 1.250 . S
C228 O226 1.248 . S
C229 O230 1.264 . S
C229 O237 1.249 . S
O230 C229 1.264 . S
O231 Mg224 1.986 . S
O231 C235 1.246 . S
O232 Mg227 2.032 . S
O232 C235 1.259 . S
O233 Mg224 2.114 . S
O233 C236 1.252 . S
O234 Mg224 2.251 . S
O234 Mg227 2.079 . S
O234 C236 1.273 . S
C235 O231 1.246 . S
C235 O232 1.259 . S
C236 O233 1.252 . S
C236 O234 1.273 . S
O237 Mg224 2.010 . S
O237 C229 1.249 . S
Mg238 O239 2.028 . S
Mg238 O245 1.986 . S
Mg238 O247 2.114 . S
Mg238 O248 2.251 . S
Mg238 O251 2.010 . S
O239 Mg238 2.028 . S
O239 C242 1.250 . S
O240 Mg241 2.028 . S
O240 C242 1.248 . S
Mg241 O240 2.028 . S
Mg241 O246 2.032 . S
Mg241 O248 2.079 . S
C242 O239 1.250 . S
C242 O240 1.248 . S
C243 O244 1.264 . S
C243 O251 1.249 . S
O244 C243 1.264 . S
O245 Mg238 1.986 . S
O245 C249 1.246 . S
O246 Mg241 2.032 . S
O246 C249 1.259 . S
O247 Mg238 2.114 . S
O247 C250 1.252 . S
O248 Mg238 2.251 . S
O248 Mg241 2.079 . S
O248 C250 1.273 . S
C249 O245 1.246 . S
C249 O246 1.259 . S
C250 O247 1.252 . S
C250 O248 1.273 . S
O251 Mg238 2.010 . S
O251 C243 1.249 . S
Mg252 O253 2.028 . S
Mg252 O259 1.986 . S
Mg252 O261 2.114 . S
Mg252 O262 2.251 . S
Mg252 O265 2.010 . S
O253 Mg252 2.028 . S
O253 C256 1.250 . S
O254 Mg255 2.028 . S
O254 C256 1.248 . S
Mg255 O254 2.028 . S
Mg255 O260 2.032 . S
Mg255 O262 2.079 . S
C256 O253 1.250 . S
C256 O254 1.248 . S
C257 O258 1.264 . S
C257 O265 1.249 . S
O258 C257 1.264 . S
O259 Mg252 1.986 . S
O259 C263 1.246 . S
O260 Mg255 2.032 . S
O260 C263 1.259 . S
O261 Mg252 2.114 . S
O261 C264 1.252 . S
O262 Mg252 2.251 . S
O262 Mg255 2.079 . S
O262 C264 1.273 . S
C263 O259 1.246 . S
C263 O260 1.259 . S
C264 O261 1.252 . S
C264 O262 1.273 . S
O265 Mg252 2.010 . S
O265 C257 1.249 . S
Mg266 O267 2.028 . S
Mg266 O273 1.986 . S
Mg266 O275 2.114 . S
Mg266 O276 2.251 . S
Mg266 O279 2.010 . S
O267 Mg266 2.028 . S
O267 C270 1.250 . S
O268 Mg269 2.028 . S
O268 C270 1.248 . S
Mg269 O268 2.028 . S
Mg269 O274 2.032 . S
Mg269 O276 2.079 . S
C270 O267 1.250 . S
C270 O268 1.248 . S
C271 O272 1.264 . S
C271 O279 1.249 . S
O272 C271 1.264 . S
O273 Mg266 1.986 . S
O273 C277 1.246 . S
O274 Mg269 2.032 . S
O274 C277 1.259 . S
O275 Mg266 2.114 . S
O275 C278 1.252 . S
O276 Mg266 2.251 . S
O276 Mg269 2.079 . S
O276 C278 1.273 . S
C277 O273 1.246 . S
C277 O274 1.259 . S
C278 O275 1.252 . S
C278 O276 1.273 . S
O279 Mg266 2.010 . S
O279 C271 1.249 . S
Mg280 O281 2.028 . S
Mg280 O287 1.986 . S
Mg280 O289 2.114 . S
Mg280 O290 2.251 . S
Mg280 O293 2.010 . S
O281 Mg280 2.028 . S
O281 C284 1.250 . S
O282 Mg283 2.028 . S
O282 C284 1.248 . S
Mg283 O282 2.028 . S
Mg283 O288 2.032 . S
Mg283 O290 2.079 . S
C284 O281 1.250 . S
C284 O282 1.248 . S
C285 O286 1.264 . S
C285 O293 1.249 . S
O286 C285 1.264 . S
O287 Mg280 1.986 . S
O287 C291 1.246 1_554 S
O288 Mg283 2.032 . S
O288 C291 1.259 1_554 S
O289 Mg280 2.114 . S
O289 C292 1.252 . S
O290 Mg280 2.251 . S
O290 Mg283 2.079 . S
O290 C292 1.273 . S
C291 O287 1.246 1_556 S
C291 O288 1.259 1_556 S
C292 O289 1.252 . S
C292 O290 1.273 . S
O293 Mg280 2.010 . S
O293 C285 1.249 . S
Mg294 O295 2.028 . S
Mg294 O301 1.986 . S
Mg294 O303 2.114 . S
Mg294 O304 2.251 . S
Mg294 O307 2.010 . S
O295 Mg294 2.028 . S
O295 C298 1.250 . S
O296 Mg297 2.028 . S
O296 C298 1.248 . S
Mg297 O296 2.028 . S
Mg297 O302 2.032 . S
Mg297 O304 2.079 . S
C298 O295 1.250 . S
C298 O296 1.248 . S
C299 O300 1.264 . S
C299 O307 1.249 . S
O300 C299 1.264 . S
O301 Mg294 1.986 . S
O301 C305 1.246 . S
O302 Mg297 2.032 . S
O302 C305 1.259 . S
O303 Mg294 2.114 . S
O303 C306 1.252 . S
O304 Mg294 2.251 . S
O304 Mg297 2.079 . S
O304 C306 1.273 . S
C305 O301 1.246 . S
C305 O302 1.259 . S
C306 O303 1.252 . S
C306 O304 1.273 . S
O307 Mg294 2.010 . S
O307 C299 1.249 . S
Mg308 O309 2.028 . S
Mg308 O315 1.986 . S
Mg308 O317 2.114 . S
Mg308 O318 2.251 . S
Mg308 O321 2.010 . S
O309 Mg308 2.028 . S
O309 C312 1.250 . S
O310 Mg311 2.028 . S
O310 C312 1.248 . S
Mg311 O310 2.028 . S
Mg311 O316 2.032 . S
Mg311 O318 2.079 . S
C312 O309 1.250 . S
C312 O310 1.248 . S
C313 O314 1.264 . S
C313 O321 1.249 . S
O314 C313 1.264 . S
O315 Mg308 1.986 . S
O315 C319 1.246 . S
O316 Mg311 2.032 . S
O316 C319 1.259 . S
O317 Mg308 2.114 . S
O317 C320 1.252 . S
O318 Mg308 2.251 . S
O318 Mg311 2.079 . S
O318 C320 1.273 . S
C319 O315 1.246 . S
C319 O316 1.259 . S
C320 O317 1.252 . S
C320 O318 1.273 . S
O321 Mg308 2.010 . S
O321 C313 1.249 . S
Mg322 O323 2.028 . S
Mg322 O329 1.986 . S
Mg322 O331 2.114 . S
Mg322 O332 2.251 . S
Mg322 O335 2.010 . S
O323 Mg322 2.028 . S
O323 C326 1.250 . S
O324 Mg325 2.028 . S
O324 C326 1.248 . S
Mg325 O324 2.028 . S
Mg325 O330 2.032 . S
Mg325 O332 2.079 . S
C326 O323 1.250 . S
C326 O324 1.248 . S
C327 O328 1.264 . S
C327 O335 1.249 . S
O328 C327 1.264 . S
O329 Mg322 1.986 . S
O329 C333 1.246 . S
O330 Mg325 2.032 . S
O330 C333 1.259 . S
O331 Mg322 2.114 . S
O331 C334 1.252 . S
O332 Mg322 2.251 . S
O332 Mg325 2.079 . S
O332 C334 1.273 . S
C333 O329 1.246 . S
C333 O330 1.259 . S
C334 O331 1.252 . S
C334 O332 1.273 . S
O335 Mg322 2.010 . S
O335 C327 1.249 . S
Tb336 C345 2.764 . S
Tb336 O346 2.325 . S
Tb336 O349 2.303 . S
Tb336 O353 2.322 . S
Tb336 O354 2.349 . S
Tb336 O357 2.415 . S
Tb336 O358 2.399 . S
Tb337 O347 2.322 1_545 S
Tb337 O348 2.349 1_554 S
Tb337 O350 2.415 1_455 S
Tb337 O351 2.399 1_454 S
Tb337 O352 2.325 . S
Tb337 O355 2.303 . S
Tb337 C366 2.764 1_455 S
C338 O354 1.261 . S
C338 O355 1.257 . S
C339 C342 1.358 . S
C339 C343 1.332 . S
C339 C345 1.504 . S
C340 C341 1.373 . S
C340 C344 1.308 . S
C341 C340 1.373 . S
C341 C342 1.429 . S
C341 H368 0.932 . S
C342 C339 1.358 . S
C342 C341 1.429 . S
C342 H369 0.930 . S
C343 C339 1.332 . S
C343 C344 1.394 . S
C343 H370 0.932 . S
C344 C340 1.308 . S
C344 C343 1.394 . S
C344 H371 0.929 . S
C345 Tb336 2.764 . S
C345 C339 1.504 . S
C345 O357 1.239 . S
C345 O358 1.263 . S
O346 Tb336 2.325 . S
O346 C356 1.236 1_545 S
O347 Tb337 2.322 1_565 S
O347 C356 1.257 . S
O348 Tb337 2.349 1_556 S
O348 C359 1.261 . S
O349 Tb336 2.303 . S
O349 C359 1.257 1_554 S
O350 Tb337 2.415 1_655 S
O350 C366 1.239 . S
O351 Tb337 2.399 1_656 S
O351 C366 1.263 1_556 S
O352 Tb337 2.325 . S
O352 C367 1.236 . S
O353 Tb336 2.322 . S
O353 C367 1.257 . S
O354 Tb336 2.349 . S
O354 C338 1.261 . S
O355 Tb337 2.303 . S
O355 C338 1.257 . S
C356 O346 1.236 1_565 S
C356 O347 1.257 . S
O357 Tb336 2.415 . S
O357 C345 1.239 . S
O358 Tb336 2.399 . S
O358 C345 1.263 . S
C359 O348 1.261 . S
C359 O349 1.257 1_556 S
C360 C363 1.358 . S
C360 C364 1.332 1_556 S
C360 C366 1.504 1_556 S
C361 C362 1.373 . S
C361 C365 1.308 1_556 S
C362 C361 1.373 . S
C362 C363 1.429 . S
C362 H372 0.932 . S
C363 C360 1.358 . S
C363 C362 1.429 . S
C363 H373 0.930 . S
C364 C360 1.332 1_554 S
C364 C365 1.394 . S
C364 H374 0.932 . S
C365 C361 1.308 1_554 S
C365 C364 1.394 . S
C365 H375 0.929 . S
C366 Tb337 2.764 1_655 S
C366 O350 1.239 . S
C366 O351 1.263 1_554 S
C366 C360 1.504 1_554 S
C367 O352 1.236 . S
C367 O353 1.257 . S
H368 C341 0.932 . S
H369 C342 0.930 . S
H370 C343 0.932 . S
H371 C344 0.929 . S
H372 C362 0.932 . S
H373 C363 0.930 . S
H374 C364 0.932 . S
H375 C365 0.929 . S
Tb376 C385 2.764 . S
Tb376 O386 2.325 . S
Tb376 O389 2.303 . S
Tb376 O393 2.322 . S
Tb376 O394 2.349 . S
Tb376 O397 2.415 . S
Tb376 O398 2.399 . S
Tb377 O387 2.322 . S
Tb377 O388 2.349 . S
Tb377 O390 2.415 . S
Tb377 O391 2.399 . S
Tb377 O392 2.325 . S
Tb377 O395 2.303 . S
Tb377 C406 2.764 . S
C378 O394 1.261 . S
C378 O395 1.257 . S
C379 C382 1.358 . S
C379 C383 1.332 . S
C379 C385 1.504 . S
C380 C381 1.373 . S
C380 C384 1.308 . S
C381 C380 1.373 . S
C381 C382 1.429 . S
C381 H408 0.932 . S
C382 C379 1.358 . S
C382 C381 1.429 . S
C382 H409 0.930 . S
C383 C379 1.332 . S
C383 C384 1.394 . S
C383 H410 0.932 . S
C384 C380 1.308 . S
C384 C383 1.394 . S
C384 H411 0.929 . S
C385 Tb376 2.764 . S
C385 C379 1.504 . S
C385 O397 1.239 . S
C385 O398 1.263 . S
O386 Tb376 2.325 . S
O386 C396 1.236 . S
O387 Tb377 2.322 . S
O387 C396 1.257 . S
O388 Tb377 2.349 . S
O388 C399 1.261 . S
O389 Tb376 2.303 . S
O389 C399 1.257 . S
O390 Tb377 2.415 . S
O390 C406 1.239 . S
O391 Tb377 2.399 . S
O391 C406 1.263 . S
O392 Tb377 2.325 . S
O392 C407 1.236 . S
O393 Tb376 2.322 . S
O393 C407 1.257 . S
O394 Tb376 2.349 . S
O394 C378 1.261 . S
O395 Tb377 2.303 . S
O395 C378 1.257 . S
C396 O386 1.236 . S
C396 O387 1.257 . S
O397 Tb376 2.415 . S
O397 C385 1.239 . S
O398 Tb376 2.399 . S
O398 C385 1.263 . S
C399 O388 1.261 . S
C399 O389 1.257 . S
C400 C403 1.358 . S
C400 C404 1.332 . S
C400 C406 1.504 . S
C401 C402 1.373 . S
C401 C405 1.308 . S
C402 C401 1.373 . S
C402 C403 1.429 . S
C402 H412 0.932 . S
C403 C400 1.358 . S
C403 C402 1.429 . S
C403 H413 0.930 . S
C404 C400 1.332 . S
C404 C405 1.394 . S
C404 H414 0.932 . S
C405 C401 1.308 . S
C405 C404 1.394 . S
C405 H415 0.929 . S
C406 Tb377 2.764 . S
C406 O390 1.239 . S
C406 O391 1.263 . S
C406 C400 1.504 . S
C407 O392 1.236 . S
C407 O393 1.257 . S
H408 C381 0.932 . S
H409 C382 0.930 . S
H410 C383 0.932 . S
H411 C384 0.929 . S
H412 C402 0.932 . S
H413 C403 0.930 . S
H414 C404 0.932 . S
H415 C405 0.929 . S
Tb416 C425 2.764 . S
Tb416 O426 2.325 . S
Tb416 O429 2.303 . S
Tb416 O433 2.322 1_545 S
Tb416 O434 2.349 . S
Tb416 O437 2.415 . S
Tb416 O438 2.399 . S
Tb417 O427 2.322 . S
Tb417 O428 2.349 . S
Tb417 O430 2.415 . S
Tb417 O431 2.399 . S
Tb417 O432 2.325 1_545 S
Tb417 O435 2.303 . S
Tb417 C446 2.764 . S
C418 O434 1.261 . S
C418 O435 1.257 . S
C419 C422 1.358 . S
C419 C423 1.332 . S
C419 C425 1.504 . S
C420 C421 1.373 . S
C420 C424 1.308 . S
C421 C420 1.373 . S
C421 C422 1.429 . S
C421 H448 0.932 . S
C422 C419 1.358 . S
C422 C421 1.429 . S
C422 H449 0.930 . S
C423 C419 1.332 . S
C423 C424 1.394 . S
C423 H450 0.932 . S
C424 C420 1.308 . S
C424 C423 1.394 . S
C424 H451 0.929 . S
C425 Tb416 2.764 . S
C425 C419 1.504 . S
C425 O437 1.239 . S
C425 O438 1.263 . S
O426 Tb416 2.325 . S
O426 C436 1.236 . S
O427 Tb417 2.322 . S
O427 C436 1.257 . S
O428 Tb417 2.349 . S
O428 C439 1.261 . S
O429 Tb416 2.303 . S
O429 C439 1.257 . S
O430 Tb417 2.415 . S
O430 C446 1.239 . S
O431 Tb417 2.399 . S
O431 C446 1.263 . S
O432 Tb417 2.325 1_565 S
O432 C447 1.236 . S
O433 Tb416 2.322 1_565 S
O433 C447 1.257 . S
O434 Tb416 2.349 . S
O434 C418 1.261 . S
O435 Tb417 2.303 . S
O435 C418 1.257 . S
C436 O426 1.236 . S
C436 O427 1.257 . S
O437 Tb416 2.415 . S
O437 C425 1.239 . S
O438 Tb416 2.399 . S
O438 C425 1.263 . S
C439 O428 1.261 . S
C439 O429 1.257 . S
C440 C443 1.358 . S
C440 C444 1.332 1_545 S
C440 C446 1.504 . S
C441 C442 1.373 . S
C441 C445 1.308 . S
C442 C441 1.373 . S
C442 C443 1.429 1_565 S
C442 H452 0.932 . S
C443 C440 1.358 . S
C443 C442 1.429 1_545 S
C443 H453 0.930 . S
C444 C440 1.332 1_565 S
C444 C445 1.394 . S
C444 H454 0.932 . S
C445 C441 1.308 . S
C445 C444 1.394 . S
C445 H455 0.929 . S
C446 Tb417 2.764 . S
C446 O430 1.239 . S
C446 O431 1.263 . S
C446 C440 1.504 . S
C447 O432 1.236 . S
C447 O433 1.257 . S
H448 C421 0.932 . S
H449 C422 0.930 . S
H450 C423 0.932 . S
H451 C424 0.929 . S
H452 C442 0.932 . S
H453 C443 0.930 . S
H454 C444 0.932 . S
H455 C445 0.929 . S
Tb456 C465 2.764 . S
Tb456 O466 2.325 . S
Tb456 O469 2.303 . S
Tb456 O473 2.322 . S
Tb456 O474 2.349 . S
Tb456 O477 2.415 . S
Tb456 O478 2.399 . S
Tb457 O467 2.322 . S
Tb457 O468 2.349 . S
Tb457 O470 2.415 . S
Tb457 O471 2.399 . S
Tb457 O472 2.325 . S
Tb457 O475 2.303 . S
Tb457 C486 2.764 . S
C458 O474 1.261 . S
C458 O475 1.257 . S
C459 C462 1.358 . S
C459 C463 1.332 . S
C459 C465 1.504 . S
C460 C461 1.373 . S
C460 C464 1.308 . S
C461 C460 1.373 . S
C461 C462 1.429 . S
C461 H488 0.932 . S
C462 C459 1.358 . S
C462 C461 1.429 . S
C462 H489 0.930 . S
C463 C459 1.332 . S
C463 C464 1.394 . S
C463 H490 0.932 . S
C464 C460 1.308 . S
C464 C463 1.394 . S
C464 H491 0.929 . S
C465 Tb456 2.764 . S
C465 C459 1.504 . S
C465 O477 1.239 . S
C465 O478 1.263 . S
O466 Tb456 2.325 . S
O466 C476 1.236 . S
O467 Tb457 2.322 . S
O467 C476 1.257 . S
O468 Tb457 2.349 . S
O468 C479 1.261 . S
O469 Tb456 2.303 . S
O469 C479 1.257 . S
O470 Tb457 2.415 . S
O470 C486 1.239 . S
O471 Tb457 2.399 . S
O471 C486 1.263 . S
O472 Tb457 2.325 . S
O472 C487 1.236 . S
O473 Tb456 2.322 . S
O473 C487 1.257 . S
O474 Tb456 2.349 . S
O474 C458 1.261 . S
O475 Tb457 2.303 . S
O475 C458 1.257 . S
C476 O466 1.236 . S
C476 O467 1.257 . S
O477 Tb456 2.415 . S
O477 C465 1.239 . S
O478 Tb456 2.399 . S
O478 C465 1.263 . S
C479 O468 1.261 . S
C479 O469 1.257 . S
C480 C483 1.358 . S
C480 C484 1.332 . S
C480 C486 1.504 . S
C481 C482 1.373 . S
C481 C485 1.308 . S
C482 C481 1.373 . S
C482 C483 1.429 . S
C482 H492 0.932 . S
C483 C480 1.358 . S
C483 C482 1.429 . S
C483 H493 0.930 . S
C484 C480 1.332 . S
C484 C485 1.394 . S
C484 H494 0.932 . S
C485 C481 1.308 . S
C485 C484 1.394 . S
C485 H495 0.929 . S
C486 Tb457 2.764 . S
C486 O470 1.239 . S
C486 O471 1.263 . S
C486 C480 1.504 . S
C487 O472 1.236 . S
C487 O473 1.257 . S
H488 C461 0.932 . S
H489 C462 0.930 . S
H490 C463 0.932 . S
H491 C464 0.929 . S
H492 C482 0.932 . S
H493 C483 0.930 . S
H494 C484 0.932 . S
H495 C485 0.929 . S
Tb496 C505 2.764 . S
Tb496 O506 2.325 . S
Tb496 O509 2.303 . S
Tb496 O513 2.322 . S
Tb496 O514 2.349 1_455 S
Tb496 O517 2.415 . S
Tb496 O518 2.399 . S
Tb497 O507 2.322 1_545 S
Tb497 O508 2.349 . S
Tb497 O510 2.415 . S
Tb497 O511 2.399 . S
Tb497 O512 2.325 . S
Tb497 O515 2.303 . S
Tb497 C526 2.764 . S
C498 O514 1.261 . S
C498 O515 1.257 1_655 S
C499 C502 1.358 . S
C499 C503 1.332 . S
C499 C505 1.504 . S
C500 C501 1.373 . S
C500 C504 1.308 . S
C501 C500 1.373 . S
C501 C502 1.429 . S
C501 H528 0.932 . S
C502 C499 1.358 . S
C502 C501 1.429 . S
C502 H529 0.930 . S
C503 C499 1.332 . S
C503 C504 1.394 . S
C503 H530 0.932 . S
C504 C500 1.308 . S
C504 C503 1.394 . S
C504 H531 0.929 . S
C505 Tb496 2.764 . S
C505 C499 1.504 . S
C505 O517 1.239 . S
C505 O518 1.263 . S
O506 Tb496 2.325 . S
O506 C516 1.236 1_545 S
O507 Tb497 2.322 1_565 S
O507 C516 1.257 . S
O508 Tb497 2.349 . S
O508 C519 1.261 . S
O509 Tb496 2.303 . S
O509 C519 1.257 . S
O510 Tb497 2.415 . S
O510 C526 1.239 . S
O511 Tb497 2.399 . S
O511 C526 1.263 . S
O512 Tb497 2.325 . S
O512 C527 1.236 . S
O513 Tb496 2.322 . S
O513 C527 1.257 . S
O514 Tb496 2.349 1_655 S
O514 C498 1.261 . S
O515 Tb497 2.303 . S
O515 C498 1.257 1_455 S
C516 O506 1.236 1_565 S
C516 O507 1.257 . S
O517 Tb496 2.415 . S
O517 C505 1.239 . S
O518 Tb496 2.399 . S
O518 C505 1.263 . S
C519 O508 1.261 . S
C519 O509 1.257 . S
C520 C523 1.358 . S
C520 C524 1.332 1_455 S
C520 C526 1.504 . S
C521 C522 1.373 1_655 S
C521 C525 1.308 . S
C522 C521 1.373 1_455 S
C522 C523 1.429 . S
C522 H532 0.932 . S
C523 C520 1.358 . S
C523 C522 1.429 . S
C523 H533 0.930 . S
C524 C520 1.332 1_655 S
C524 C525 1.394 . S
C524 H534 0.932 . S
C525 C521 1.308 . S
C525 C524 1.394 . S
C525 H535 0.929 . S
C526 Tb497 2.764 . S
C526 O510 1.239 . S
C526 O511 1.263 . S
C526 C520 1.504 . S
C527 O512 1.236 . S
C527 O513 1.257 . S
H528 C501 0.932 . S
H529 C502 0.930 . S
H530 C503 0.932 . S
H531 C504 0.929 . S
H532 C522 0.932 . S
H533 C523 0.930 . S
H534 C524 0.932 . S
H535 C525 0.929 . S
Tb536 C545 2.764 . S
Tb536 O546 2.325 . S
Tb536 O549 2.303 . S
Tb536 O553 2.322 . S
Tb536 O554 2.349 . S
Tb536 O557 2.415 . S
Tb536 O558 2.399 . S
Tb537 O547 2.322 . S
Tb537 O548 2.349 . S
Tb537 O550 2.415 . S
Tb537 O551 2.399 . S
Tb537 O552 2.325 . S
Tb537 O555 2.303 . S
Tb537 C566 2.764 . S
C538 O554 1.261 . S
C538 O555 1.257 . S
C539 C542 1.358 . S
C539 C543 1.332 . S
C539 C545 1.504 . S
C540 C541 1.373 . S
C540 C544 1.308 . S
C541 C540 1.373 . S
C541 C542 1.429 . S
C541 H568 0.932 . S
C542 C539 1.358 . S
C542 C541 1.429 . S
C542 H569 0.930 . S
C543 C539 1.332 . S
C543 C544 1.394 . S
C543 H570 0.932 . S
C544 C540 1.308 . S
C544 C543 1.394 . S
C544 H571 0.929 . S
C545 Tb536 2.764 . S
C545 C539 1.504 . S
C545 O557 1.239 . S
C545 O558 1.263 . S
O546 Tb536 2.325 . S
O546 C556 1.236 . S
O547 Tb537 2.322 . S
O547 C556 1.257 . S
O548 Tb537 2.349 . S
O548 C559 1.261 . S
O549 Tb536 2.303 . S
O549 C559 1.257 . S
O550 Tb537 2.415 . S
O550 C566 1.239 . S
O551 Tb537 2.399 . S
O551 C566 1.263 . S
O552 Tb537 2.325 . S
O552 C567 1.236 . S
O553 Tb536 2.322 . S
O553 C567 1.257 . S
O554 Tb536 2.349 . S
O554 C538 1.261 . S
O555 Tb537 2.303 . S
O555 C538 1.257 . S
C556 O546 1.236 . S
C556 O547 1.257 . S
O557 Tb536 2.415 . S
O557 C545 1.239 . S
O558 Tb536 2.399 . S
O558 C545 1.263 . S
C559 O548 1.261 . S
C559 O549 1.257 . S
C560 C563 1.358 . S
C560 C564 1.332 . S
C560 C566 1.504 . S
C561 C562 1.373 . S
C561 C565 1.308 . S
C562 C561 1.373 . S
C562 C563 1.429 . S
C562 H572 0.932 . S
C563 C560 1.358 . S
C563 C562 1.429 . S
C563 H573 0.930 . S
C564 C560 1.332 . S
C564 C565 1.394 . S
C564 H574 0.932 . S
C565 C561 1.308 . S
C565 C564 1.394 . S
C565 H575 0.929 . S
C566 Tb537 2.764 . S
C566 O550 1.239 . S
C566 O551 1.263 . S
C566 C560 1.504 . S
C567 O552 1.236 . S
C567 O553 1.257 . S
H568 C541 0.932 . S
H569 C542 0.930 . S
H570 C543 0.932 . S
H571 C544 0.929 . S
H572 C562 0.932 . S
H573 C563 0.930 . S
H574 C564 0.932 . S
H575 C565 0.929 . S
Tb576 C585 2.764 . S
Tb576 O586 2.325 . S
Tb576 O589 2.303 . S
Tb576 O593 2.322 1_545 S
Tb576 O594 2.349 . S
Tb576 O597 2.415 . S
Tb576 O598 2.399 . S
Tb577 O587 2.306 1_556 S
Tb577 O588 2.348 . S
Tb577 O590 2.431 . S
Tb577 O591 2.421 . S
Tb577 O592 2.325 . S
Tb577 O595 2.288 1_556 S
Tb577 C606 2.785 . S
C578 O594 1.261 . S
C578 O595 1.257 . S
C579 C582 1.358 . S
C579 C583 1.332 . S
C579 C585 1.504 . S
C580 C581 1.373 . S
C580 C584 1.308 . S
C581 C580 1.373 . S
C581 C582 1.429 . S
C581 H608 0.932 . S
C582 C579 1.358 . S
C582 C581 1.429 . S
C582 H609 0.930 . S
C583 C579 1.332 . S
C583 C584 1.394 . S
C583 H610 0.932 . S
C584 C580 1.308 . S
C584 C583 1.394 . S
C584 H611 0.929 . S
C585 Tb576 2.764 . S
C585 C579 1.504 . S
C585 O597 1.239 . S
C585 O598 1.263 . S
O586 Tb576 2.325 . S
O586 C596 1.236 . S
O587 Tb577 2.306 1_554 S
O587 C596 1.257 . S
O588 Tb577 2.348 . S
O588 C599 1.261 1_556 S
O589 Tb576 2.303 . S
O589 C599 1.257 . S
O590 Tb577 2.431 . S
O590 C606 1.239 . S
O591 Tb577 2.421 . S
O591 C606 1.263 . S
O592 Tb577 2.325 . S
O592 C607 1.236 1_546 S
O593 Tb576 2.322 1_565 S
O593 C607 1.257 . S
O594 Tb576 2.349 . S
O594 C578 1.261 . S
O595 Tb577 2.288 1_554 S
O595 C578 1.257 . S
C596 O586 1.236 . S
C596 O587 1.257 . S
O597 Tb576 2.415 . S
O597 C585 1.239 . S
O598 Tb576 2.399 . S
O598 C585 1.263 . S
C599 O588 1.261 1_554 S
C599 O589 1.257 . S
C600 C603 1.358 . S
C600 C604 1.332 . S
C600 C606 1.504 . S
C601 C602 1.373 . S
C601 C605 1.308 . S
C602 C601 1.373 . S
C602 C603 1.429 . S
C602 H612 0.932 . S
C603 C600 1.358 . S
C603 C602 1.429 . S
C603 H613 0.930 . S
C604 C600 1.332 . S
C604 C605 1.394 . S
C604 H614 0.932 . S
C605 C601 1.308 . S
C605 C604 1.394 . S
C605 H615 0.929 . S
C606 Tb577 2.785 . S
C606 O590 1.239 . S
C606 O591 1.263 . S
C606 C600 1.504 . S
C607 O592 1.236 1_564 S
C607 O593 1.257 . S
H608 C581 0.932 . S
H609 C582 0.930 . S
H610 C583 0.932 . S
H611 C584 0.929 . S
H612 C602 0.932 . S
H613 C603 0.930 . S
H614 C604 0.932 . S
H615 C605 0.929 . S
Tb616 C625 2.764 . S
Tb616 O626 2.325 . S
Tb616 O629 2.303 . S
Tb616 O633 2.322 . S
Tb616 O634 2.349 . S
Tb616 O637 2.415 . S
Tb616 O638 2.399 . S
Tb617 O627 2.322 . S
Tb617 O628 2.349 . S
Tb617 O630 2.415 . S
Tb617 O631 2.399 . S
Tb617 O632 2.325 . S
Tb617 O635 2.303 . S
Tb617 C646 2.764 . S
C618 O634 1.261 . S
C618 O635 1.257 . S
C619 C622 1.358 . S
C619 C623 1.332 . S
C619 C625 1.504 . S
C620 C621 1.373 . S
C620 C624 1.308 . S
C621 C620 1.373 . S
C621 C622 1.429 . S
C621 H648 0.932 . S
C622 C619 1.358 . S
C622 C621 1.429 . S
C622 H649 0.930 . S
C623 C619 1.332 . S
C623 C624 1.394 . S
C623 H650 0.932 . S
C624 C620 1.308 . S
C624 C623 1.394 . S
C624 H651 0.929 . S
C625 Tb616 2.764 . S
C625 C619 1.504 . S
C625 O637 1.239 . S
C625 O638 1.263 . S
O626 Tb616 2.325 . S
O626 C636 1.236 . S
O627 Tb617 2.322 . S
O627 C636 1.257 . S
O628 Tb617 2.349 . S
O628 C639 1.261 . S
O629 Tb616 2.303 . S
O629 C639 1.257 . S
O630 Tb617 2.415 . S
O630 C646 1.239 . S
O631 Tb617 2.399 . S
O631 C646 1.263 . S
O632 Tb617 2.325 . S
O632 C647 1.236 . S
O633 Tb616 2.322 . S
O633 C647 1.257 . S
O634 Tb616 2.349 . S
O634 C618 1.261 . S
O635 Tb617 2.303 . S
O635 C618 1.257 . S
C636 O626 1.236 . S
C636 O627 1.257 . S
O637 Tb616 2.415 . S
O637 C625 1.239 . S
O638 Tb616 2.399 . S
O638 C625 1.263 . S
C639 O628 1.261 . S
C639 O629 1.257 . S
C640 C643 1.358 . S
C640 C644 1.332 . S
C640 C646 1.504 . S
C641 C642 1.373 . S
C641 C645 1.308 . S
C642 C641 1.373 . S
C642 C643 1.429 . S
C642 H652 0.932 . S
C643 C640 1.358 . S
C643 C642 1.429 . S
C643 H653 0.930 . S
C644 C640 1.332 . S
C644 C645 1.394 . S
C644 H654 0.932 . S
C645 C641 1.308 . S
C645 C644 1.394 . S
C645 H655 0.929 . S
C646 Tb617 2.764 . S
C646 O630 1.239 . S
C646 O631 1.263 . S
C646 C640 1.504 . S
C647 O632 1.236 . S
C647 O633 1.257 . S
H648 C621 0.932 . S
H649 C622 0.930 . S
H650 C623 0.932 . S
H651 C624 0.929 . S
H652 C642 0.932 . S
H653 C643 0.930 . S
H654 C644 0.932 . S
H655 C645 0.929 . S
Tb656 C665 2.764 . S
Tb656 O666 2.325 . S
Tb656 O669 2.303 . S
Tb656 O673 2.322 . S
Tb656 O674 2.349 . S
Tb656 O677 2.415 . S
Tb656 O678 2.399 . S
Tb657 O667 2.322 1_556 S
Tb657 O668 2.349 1_556 S
Tb657 O670 2.415 . S
Tb657 O671 2.399 . S
Tb657 O672 2.325 . S
Tb657 O675 2.303 1_556 S
Tb657 C686 2.764 . S
C658 O674 1.261 . S
C658 O675 1.257 . S
C659 C662 1.358 . S
C659 C663 1.332 . S
C659 C665 1.504 . S
C660 C661 1.373 . S
C660 C664 1.308 . S
C661 C660 1.373 . S
C661 C662 1.429 . S
C661 H688 0.932 . S
C662 C659 1.358 . S
C662 C661 1.429 . S
C662 H689 0.930 . S
C663 C659 1.332 . S
C663 C664 1.394 . S
C663 H690 0.932 . S
C664 C660 1.308 . S
C664 C663 1.394 . S
C664 H691 0.929 . S
C665 Tb656 2.764 . S
C665 C659 1.504 . S
C665 O677 1.239 . S
C665 O678 1.263 . S
O666 Tb656 2.325 . S
O666 C676 1.236 . S
O667 Tb657 2.322 1_554 S
O667 C676 1.257 . S
O668 Tb657 2.349 1_554 S
O668 C679 1.261 . S
O669 Tb656 2.303 . S
O669 C679 1.257 . S
O670 Tb657 2.415 . S
O670 C686 1.239 . S
O671 Tb657 2.399 . S
O671 C686 1.263 . S
O672 Tb657 2.325 . S
O672 C687 1.236 1_556 S
O673 Tb656 2.322 . S
O673 C687 1.257 . S
O674 Tb656 2.349 . S
O674 C658 1.261 . S
O675 Tb657 2.303 1_554 S
O675 C658 1.257 . S
C676 O666 1.236 . S
C676 O667 1.257 . S
O677 Tb656 2.415 . S
O677 C665 1.239 . S
O678 Tb656 2.399 . S
O678 C665 1.263 . S
C679 O668 1.261 . S
C679 O669 1.257 . S
C680 C683 1.358 . S
C680 C684 1.332 . S
C680 C686 1.504 . S
C681 C682 1.373 . S
C681 C685 1.308 . S
C682 C681 1.373 . S
C682 C683 1.429 . S
C682 H692 0.932 . S
C683 C680 1.358 . S
C683 C682 1.429 . S
C683 H693 0.930 . S
C684 C680 1.332 . S
C684 C685 1.394 . S
C684 H694 0.932 . S
C685 C681 1.308 . S
C685 C684 1.394 . S
C685 H695 0.929 . S
C686 Tb657 2.764 . S
C686 O670 1.239 . S
C686 O671 1.263 . S
C686 C680 1.504 . S
C687 O672 1.236 1_554 S
C687 O673 1.257 . S
H688 C661 0.932 . S
H689 C662 0.930 . S
H690 C663 0.932 . S
H691 C664 0.929 . S
H692 C682 0.932 . S
H693 C683 0.930 . S
H694 C684 0.932 . S
H695 C685 0.929 . S
Tb696 C705 2.764 . S
Tb696 O706 2.325 . S
Tb696 O709 2.303 . S
Tb696 O713 2.322 . S
Tb696 O714 2.349 . S
Tb696 O717 2.415 . S
Tb696 O718 2.399 . S
Tb697 O707 2.322 . S
Tb697 O708 2.349 . S
Tb697 O710 2.415 . S
Tb697 O711 2.399 . S
Tb697 O712 2.325 . S
Tb697 O715 2.303 . S
Tb697 C726 2.764 . S
C698 O714 1.261 . S
C698 O715 1.257 . S
C699 C702 1.358 . S
C699 C703 1.332 . S
C699 C705 1.504 . S
C700 C701 1.373 . S
C700 C704 1.308 . S
C701 C700 1.373 . S
C701 C702 1.429 . S
C701 H728 0.932 . S
C702 C699 1.358 . S
C702 C701 1.429 . S
C702 H729 0.930 . S
C703 C699 1.332 . S
C703 C704 1.394 . S
C703 H730 0.932 . S
C704 C700 1.308 . S
C704 C703 1.394 . S
C704 H731 0.929 . S
C705 Tb696 2.764 . S
C705 C699 1.504 . S
C705 O717 1.239 . S
C705 O718 1.263 . S
O706 Tb696 2.325 . S
O706 C716 1.236 . S
O707 Tb697 2.322 . S
O707 C716 1.257 . S
O708 Tb697 2.349 . S
O708 C719 1.261 . S
O709 Tb696 2.303 . S
O709 C719 1.257 . S
O710 Tb697 2.415 . S
O710 C726 1.239 . S
O711 Tb697 2.399 . S
O711 C726 1.263 . S
O712 Tb697 2.325 . S
O712 C727 1.236 . S
O713 Tb696 2.322 . S
O713 C727 1.257 . S
O714 Tb696 2.349 . S
O714 C698 1.261 . S
O715 Tb697 2.303 . S
O715 C698 1.257 . S
C716 O706 1.236 . S
C716 O707 1.257 . S
O717 Tb696 2.415 . S
O717 C705 1.239 . S
O718 Tb696 2.399 . S
O718 C705 1.263 . S
C719 O708 1.261 . S
C719 O709 1.257 . S
C720 C723 1.358 . S
C720 C724 1.332 . S
C720 C726 1.504 . S
C721 C722 1.373 . S
C721 C725 1.308 . S
C722 C721 1.373 . S
C722 C723 1.429 . S
C722 H732 0.932 . S
C723 C720 1.358 . S
C723 C722 1.429 . S
C723 H733 0.930 . S
C724 C720 1.332 . S
C724 C725 1.394 . S
C724 H734 0.932 . S
C725 C721 1.308 . S
C725 C724 1.394 . S
C725 H735 0.929 . S
C726 Tb697 2.764 . S
C726 O710 1.239 . S
C726 O711 1.263 . S
C726 C720 1.504 . S
C727 O712 1.236 . S
C727 O713 1.257 . S
H728 C701 0.932 . S
H729 C702 0.930 . S
H730 C703 0.932 . S
H731 C704 0.929 . S
H732 C722 0.932 . S
H733 C723 0.930 . S
H734 C724 0.932 . S
H735 C725 0.929 . S
Tb736 C745 2.764 . S
Tb736 O746 2.325 . S
Tb736 O749 2.303 . S
Tb736 O753 2.322 . S
Tb736 O754 2.349 . S
Tb736 O757 2.415 . S
Tb736 O758 2.399 . S
Tb737 O747 2.322 . S
Tb737 O748 2.349 . S
Tb737 O750 2.415 . S
Tb737 O751 2.399 . S
Tb737 O752 2.325 . S
Tb737 O755 2.303 . S
Tb737 C766 2.764 . S
C738 O754 1.261 . S
C738 O755 1.257 . S
C739 C742 1.358 . S
C739 C743 1.358 . S
C739 C745 1.504 . S
C740 C741 1.373 . S
C740 C744 1.308 1_455 S
C741 C740 1.373 . S
C741 C742 1.429 . S
C741 H768 0.932 . S
C742 C739 1.358 . S
C742 C741 1.429 . S
C742 H769 0.930 . S
C743 C739 1.358 . S
C743 C744 1.384 1_455 S
C743 H770 0.916 1_455 S
C744 C740 1.308 1_655 S
C744 C743 1.384 1_655 S
C744 H771 0.929 . S
C745 Tb736 2.764 . S
C745 C739 1.504 . S
C745 O757 1.239 . S
C745 O758 1.263 . S
O746 Tb736 2.325 . S
O746 C756 1.236 . S
O747 Tb737 2.322 . S
O747 C756 1.257 . S
O748 Tb737 2.349 . S
O748 C759 1.261 1_455 S
O749 Tb736 2.303 . S
O749 C759 1.257 1_455 S
O750 Tb737 2.415 . S
O750 C766 1.239 . S
O751 Tb737 2.399 . S
O751 C766 1.263 . S
O752 Tb737 2.325 . S
O752 C767 1.236 . S
O753 Tb736 2.322 . S
O753 C767 1.257 . S
O754 Tb736 2.349 . S
O754 C738 1.261 . S
O755 Tb737 2.303 . S
O755 C738 1.257 . S
C756 O746 1.236 . S
C756 O747 1.257 . S
O757 Tb736 2.415 . S
O757 C745 1.239 . S
O758 Tb736 2.399 . S
O758 C745 1.263 . S
C759 O748 1.261 1_655 S
C759 O749 1.257 1_655 S
C760 C763 1.358 . S
C760 C764 1.332 . S
C760 C766 1.504 . S
C761 C762 1.373 . S
C761 C765 1.308 . S
C762 C761 1.373 . S
C762 C763 1.429 . S
C762 H772 0.932 . S
C763 C760 1.358 . S
C763 C762 1.429 . S
C763 H773 0.930 . S
C764 C760 1.332 . S
C764 C765 1.394 . S
C764 H774 0.932 . S
C765 C761 1.308 . S
C765 C764 1.394 . S
C765 H775 0.929 . S
C766 Tb737 2.764 . S
C766 O750 1.239 . S
C766 O751 1.263 . S
C766 C760 1.504 . S
C767 O752 1.236 . S
C767 O753 1.257 . S
H768 C741 0.932 . S
H769 C742 0.930 . S
H770 C743 0.916 1_655 S
H771 C744 0.929 . S
H772 C762 0.932 . S
H773 C763 0.930 . S
H774 C764 0.932 . S
H775 C765 0.929 . S
Tb776 C785 2.764 . S
Tb776 O786 2.325 . S
Tb776 O789 2.303 . S
Tb776 O793 2.322 . S
Tb776 O794 2.349 . S
Tb776 O797 2.415 . S
Tb776 O798 2.399 . S
Tb777 O787 2.322 . S
Tb777 O788 2.349 . S
Tb777 O790 2.415 . S
Tb777 O791 2.399 . S
Tb777 O792 2.325 . S
Tb777 O795 2.303 . S
Tb777 C806 2.764 . S
C778 O794 1.261 . S
C778 O795 1.257 . S
C779 C782 1.358 . S
C779 C783 1.332 . S
C779 C785 1.504 . S
C780 C781 1.373 . S
C780 C784 1.308 . S
C781 C780 1.373 . S
C781 C782 1.429 . S
C781 H808 0.932 . S
C782 C779 1.358 . S
C782 C781 1.429 . S
C782 H809 0.930 . S
C783 C779 1.332 . S
C783 C784 1.394 . S
C783 H810 0.932 . S
C784 C780 1.308 . S
C784 C783 1.394 . S
C784 H811 0.929 . S
C785 Tb776 2.764 . S
C785 C779 1.504 . S
C785 O797 1.239 . S
C785 O798 1.263 . S
O786 Tb776 2.325 . S
O786 C796 1.236 . S
O787 Tb777 2.322 . S
O787 C796 1.257 . S
O788 Tb777 2.349 . S
O788 C799 1.261 . S
O789 Tb776 2.303 . S
O789 C799 1.257 . S
O790 Tb777 2.415 . S
O790 C806 1.239 . S
O791 Tb777 2.399 . S
O791 C806 1.263 . S
O792 Tb777 2.325 . S
O792 C807 1.236 . S
O793 Tb776 2.322 . S
O793 C807 1.257 . S
O794 Tb776 2.349 . S
O794 C778 1.261 . S
O795 Tb777 2.303 . S
O795 C778 1.257 . S
C796 O786 1.236 . S
C796 O787 1.257 . S
O797 Tb776 2.415 . S
O797 C785 1.239 . S
O798 Tb776 2.399 . S
O798 C785 1.263 . S
C799 O788 1.261 . S
C799 O789 1.257 . S
C800 C803 1.358 . S
C800 C804 1.332 . S
C800 C806 1.504 . S
C801 C802 1.373 . S
C801 C805 1.308 . S
C802 C801 1.373 . S
C802 C803 1.429 . S
C802 H812 0.932 . S
C803 C800 1.358 . S
C803 C802 1.429 . S
C803 H813 0.930 . S
C804 C800 1.332 . S
C804 C805 1.394 . S
C804 H814 0.932 . S
C805 C801 1.308 . S
C805 C804 1.394 . S
C805 H815 0.929 . S
C806 Tb777 2.764 . S
C806 O790 1.239 . S
C806 O791 1.263 . S
C806 C800 1.504 . S
C807 O792 1.236 . S
C807 O793 1.257 . S
H808 C781 0.932 . S
H809 C782 0.930 . S
H810 C783 0.932 . S
H811 C784 0.929 . S
H812 C802 0.932 . S
H813 C803 0.930 . S
H814 C804 0.932 . S
H815 C805 0.929 . S
Tb816 C825 2.764 . S
Tb816 O826 2.325 . S
Tb816 O829 2.303 . S
Tb816 O833 2.322 . S
Tb816 O834 2.349 . S
Tb816 O837 2.415 . S
Tb816 O838 2.399 . S
Tb817 O827 2.322 . S
Tb817 O828 2.349 . S
Tb817 O830 2.415 . S
Tb817 O831 2.399 . S
Tb817 O832 2.325 . S
Tb817 O835 2.303 . S
Tb817 C846 2.764 . S
C818 O834 1.261 . S
C818 O835 1.257 . S
C819 C822 1.358 . S
C819 C823 1.332 . S
C819 C825 1.504 . S
C820 C821 1.373 . S
C820 C824 1.308 . S
C821 C820 1.373 . S
C821 C822 1.429 . S
C821 H848 0.932 . S
C822 C819 1.358 . S
C822 C821 1.429 . S
C822 H849 0.930 . S
C823 C819 1.332 . S
C823 C824 1.394 . S
C823 H850 0.932 . S
C824 C820 1.308 . S
C824 C823 1.394 . S
C824 H851 0.929 . S
C825 Tb816 2.764 . S
C825 C819 1.504 . S
C825 O837 1.239 . S
C825 O838 1.263 . S
O826 Tb816 2.325 . S
O826 C836 1.236 . S
O827 Tb817 2.322 . S
O827 C836 1.257 . S
O828 Tb817 2.349 . S
O828 C839 1.261 . S
O829 Tb816 2.303 . S
O829 C839 1.257 . S
O830 Tb817 2.415 . S
O830 C846 1.239 . S
O831 Tb817 2.399 . S
O831 C846 1.263 . S
O832 Tb817 2.325 . S
O832 C847 1.236 . S
O833 Tb816 2.322 . S
O833 C847 1.257 . S
O834 Tb816 2.349 . S
O834 C818 1.261 . S
O835 Tb817 2.303 . S
O835 C818 1.257 . S
C836 O826 1.236 . S
C836 O827 1.257 . S
O837 Tb816 2.415 . S
O837 C825 1.239 . S
O838 Tb816 2.399 . S
O838 C825 1.263 . S
C839 O828 1.261 . S
C839 O829 1.257 . S
C840 C843 1.358 . S
C840 C844 1.332 . S
C840 C846 1.504 . S
C841 C842 1.373 . S
C841 C845 1.308 . S
C842 C841 1.373 . S
C842 C843 1.429 . S
C842 H852 0.932 . S
C843 C840 1.358 . S
C843 C842 1.429 . S
C843 H853 0.930 . S
C844 C840 1.332 . S
C844 C845 1.394 . S
C844 H854 0.932 . S
C845 C841 1.308 . S
C845 C844 1.394 . S
C845 H855 0.929 . S
C846 Tb817 2.764 . S
C846 O830 1.239 . S
C846 O831 1.263 . S
C846 C840 1.504 . S
C847 O832 1.236 . S
C847 O833 1.257 . S
H848 C821 0.932 . S
H849 C822 0.930 . S
H850 C823 0.932 . S
H851 C824 0.929 . S
H852 C842 0.932 . S
H853 C843 0.930 . S
H854 C844 0.932 . S
H855 C845 0.929 . S
Tb856 C865 2.764 . S
Tb856 O866 2.325 . S
Tb856 O869 2.303 . S
Tb856 O873 2.322 . S
Tb856 O874 2.349 . S
Tb856 O877 2.415 . S
Tb856 O878 2.399 . S
Tb857 O867 2.322 . S
Tb857 O868 2.349 . S
Tb857 O870 2.415 . S
Tb857 O871 2.399 . S
Tb857 O872 2.325 . S
Tb857 O875 2.303 . S
Tb857 C886 2.764 . S
C858 O874 1.261 . S
C858 O875 1.257 . S
C859 C862 1.358 . S
C859 C863 1.332 . S
C859 C865 1.504 . S
C860 C861 1.373 . S
C860 C864 1.308 . S
C861 C860 1.373 . S
C861 C862 1.429 . S
C861 H888 0.932 . S
C862 C859 1.358 . S
C862 C861 1.429 . S
C862 H889 0.930 . S
C863 C859 1.332 . S
C863 C864 1.394 . S
C863 H890 0.932 . S
C864 C860 1.308 . S
C864 C863 1.394 . S
C864 H891 0.929 . S
C865 Tb856 2.764 . S
C865 C859 1.504 . S
C865 O877 1.239 . S
C865 O878 1.263 . S
O866 Tb856 2.325 . S
O866 C876 1.236 . S
O867 Tb857 2.322 . S
O867 C876 1.257 . S
O868 Tb857 2.349 . S
O868 C879 1.261 . S
O869 Tb856 2.303 . S
O869 C879 1.257 . S
O870 Tb857 2.415 . S
O870 C886 1.239 . S
O871 Tb857 2.399 . S
O871 C886 1.263 . S
O872 Tb857 2.325 . S
O872 C887 1.236 . S
O873 Tb856 2.322 . S
O873 C887 1.257 . S
O874 Tb856 2.349 . S
O874 C858 1.261 . S
O875 Tb857 2.303 . S
O875 C858 1.257 . S
C876 O866 1.236 . S
C876 O867 1.257 . S
O877 Tb856 2.415 . S
O877 C865 1.239 . S
O878 Tb856 2.399 . S
O878 C865 1.263 . S
C879 O868 1.261 . S
C879 O869 1.257 . S
C880 C883 1.358 . S
C880 C884 1.332 . S
C880 C886 1.504 . S
C881 C882 1.373 . S
C881 C885 1.308 . S
C882 C881 1.373 . S
C882 C883 1.429 . S
C882 H892 0.932 . S
C883 C880 1.358 . S
C883 C882 1.429 . S
C883 H893 0.930 . S
C884 C880 1.332 . S
C884 C885 1.394 . S
C884 H894 0.932 . S
C885 C881 1.308 . S
C885 C884 1.394 . S
C885 H895 0.929 . S
C886 Tb857 2.764 . S
C886 O870 1.239 . S
C886 O871 1.263 . S
C886 C880 1.504 . S
C887 O872 1.236 . S
C887 O873 1.257 . S
H888 C861 0.932 . S
H889 C862 0.930 . S
H890 C863 0.932 . S
H891 C864 0.929 . S
H892 C882 0.932 . S
H893 C883 0.930 . S
H894 C884 0.932 . S
H895 C885 0.929 . S
Tb896 C905 2.764 . S
Tb896 O906 2.325 . S
Tb896 O909 2.303 . S
Tb896 O913 2.322 . S
Tb896 O914 2.349 . S
Tb896 O917 2.415 . S
Tb896 O918 2.399 . S
Tb897 O907 2.322 . S
Tb897 O908 2.349 . S
Tb897 O910 2.415 . S
Tb897 O911 2.399 . S
Tb897 O912 2.325 . S
Tb897 O915 2.303 . S
Tb897 C926 2.764 . S
C898 O914 1.261 . S
C898 O915 1.257 . S
C899 C902 1.358 . S
C899 C903 1.332 . S
C899 C905 1.504 . S
C900 C901 1.373 . S
C900 C904 1.308 . S
C901 C900 1.373 . S
C901 C902 1.429 . S
C901 H928 0.932 . S
C902 C899 1.358 . S
C902 C901 1.429 . S
C902 H929 0.930 . S
C903 C899 1.332 . S
C903 C904 1.394 . S
C903 H930 0.932 . S
C904 C900 1.308 . S
C904 C903 1.394 . S
C904 H931 0.929 . S
C905 Tb896 2.764 . S
C905 C899 1.504 . S
C905 O917 1.239 . S
C905 O918 1.263 . S
O906 Tb896 2.325 . S
O906 C916 1.236 . S
O907 Tb897 2.322 . S
O907 C916 1.257 . S
O908 Tb897 2.349 . S
O908 C919 1.261 . S
O909 Tb896 2.303 . S
O909 C919 1.257 . S
O910 Tb897 2.415 . S
O910 C926 1.239 . S
O911 Tb897 2.399 . S
O911 C926 1.263 . S
O912 Tb897 2.325 . S
O912 C927 1.236 . S
O913 Tb896 2.322 . S
O913 C927 1.257 . S
O914 Tb896 2.349 . S
O914 C898 1.261 . S
O915 Tb897 2.303 . S
O915 C898 1.257 . S
C916 O906 1.236 . S
C916 O907 1.257 . S
O917 Tb896 2.415 . S
O917 C905 1.239 . S
O918 Tb896 2.399 . S
O918 C905 1.263 . S
C919 O908 1.261 . S
C919 O909 1.257 . S
C920 C923 1.358 . S
C920 C924 1.332 . S
C920 C926 1.504 . S
C921 C922 1.373 . S
C921 C925 1.308 . S
C922 C921 1.373 . S
C922 C923 1.429 . S
C922 H932 0.932 . S
C923 C920 1.358 . S
C923 C922 1.429 . S
C923 H933 0.930 . S
C924 C920 1.332 . S
C924 C925 1.394 . S
C924 H934 0.932 . S
C925 C921 1.308 . S
C925 C924 1.394 . S
C925 H935 0.929 . S
C926 Tb897 2.764 . S
C926 O910 1.239 . S
C926 O911 1.263 . S
C926 C920 1.504 . S
C927 O912 1.236 . S
C927 O913 1.257 . S
H928 C901 0.932 . S
H929 C902 0.930 . S
H930 C903 0.932 . S
H931 C904 0.929 . S
H932 C922 0.932 . S
H933 C923 0.930 . S
H934 C924 0.932 . S
H935 C925 0.929 . S
Tb936 C945 2.764 1_455 S
Tb936 O946 2.325 . S
Tb936 O949 2.303 . S
Tb936 O953 2.322 . S
Tb936 O954 2.349 . S
Tb936 O957 2.415 1_455 S
Tb936 O958 2.399 1_455 S
Tb937 O947 2.322 . S
Tb937 O948 2.349 1_554 S
Tb937 O950 2.415 . S
Tb937 O951 2.399 1_554 S
Tb937 O952 2.325 . S
Tb937 O955 2.303 . S
Tb937 C966 2.764 . S
C938 O954 1.261 . S
C938 O955 1.257 . S
C939 C942 1.358 . S
C939 C943 1.332 . S
C939 C945 1.504 . S
C940 C941 1.373 . S
C940 C944 1.308 . S
C941 C940 1.373 . S
C941 C942 1.429 . S
C941 H968 0.932 . S
C942 C939 1.358 . S
C942 C941 1.429 . S
C942 H969 0.930 . S
C943 C939 1.332 . S
C943 C944 1.394 . S
C943 H970 0.932 . S
C944 C940 1.308 . S
C944 C943 1.394 . S
C944 H971 0.929 . S
C945 Tb936 2.764 1_655 S
C945 C939 1.504 . S
C945 O957 1.239 . S
C945 O958 1.263 . S
O946 Tb936 2.325 . S
O946 C956 1.236 . S
O947 Tb937 2.322 . S
O947 C956 1.257 . S
O948 Tb937 2.349 1_556 S
O948 C959 1.261 . S
O949 Tb936 2.303 . S
O949 C959 1.257 1_554 S
O950 Tb937 2.415 . S
O950 C966 1.239 . S
O951 Tb937 2.399 1_556 S
O951 C966 1.263 1_556 S
O952 Tb937 2.325 . S
O952 C967 1.236 . S
O953 Tb936 2.322 . S
O953 C967 1.257 . S
O954 Tb936 2.349 . S
O954 C938 1.261 . S
O955 Tb937 2.303 . S
O955 C938 1.257 . S
C956 O946 1.236 . S
C956 O947 1.257 . S
O957 Tb936 2.415 1_655 S
O957 C945 1.239 . S
O958 Tb936 2.399 1_655 S
O958 C945 1.263 . S
C959 O948 1.261 . S
C959 O949 1.257 1_556 S
C960 C963 1.358 1_554 S
C960 C964 1.332 . S
C960 C966 1.504 . S
C961 C962 1.383 . S
C961 C965 1.296 1_556 S
C962 C961 1.383 . S
C962 C963 1.429 . S
C962 H972 0.932 . S
C963 C960 1.358 1_556 S
C963 C962 1.429 . S
C963 H973 0.930 . S
C964 C960 1.332 . S
C964 C965 1.394 . S
C964 H974 0.932 . S
C965 C961 1.296 1_554 S
C965 C964 1.394 . S
C965 H975 0.929 . S
C966 Tb937 2.764 . S
C966 O950 1.239 . S
C966 O951 1.263 1_554 S
C966 C960 1.504 . S
C967 O952 1.236 . S
C967 O953 1.257 . S
H968 C941 0.932 . S
H969 C942 0.930 . S
H970 C943 0.932 . S
H971 C944 0.929 . S
H972 C962 0.932 . S
H973 C963 0.930 . S
H974 C964 0.932 . S
H975 C965 0.929 . S
H976 C982 0.930 . S
H977 C986 0.930 . S
H978 C991 0.929 . S
H979 C989 0.929 . S
H980 C984 0.929 . S
H981 C990 0.937 1_554 S
C982 H976 0.930 . S
C982 C983 1.367 . S
C982 C990 1.402 . S
C983 C982 1.367 . S
C983 C991 1.433 1_655 S
C984 H980 0.929 . S
C984 C986 1.378 . S
C984 C988 1.350 . S
C985 C988 1.463 . S
C985 C990 1.319 1_455 S
C985 N993 1.427 . S
C986 H977 0.930 . S
C986 C984 1.378 . S
C986 C987 1.367 1_556 S
C987 C986 1.367 1_554 S
C987 C989 1.433 . S
C988 C984 1.350 . S
C988 C985 1.463 . S
C988 N992 1.427 1_556 S
C989 H979 0.929 . S
C989 C987 1.433 . S
C989 N992 1.384 . S
C990 H981 0.937 1_556 S
C990 C982 1.402 . S
C990 C985 1.319 1_655 S
C991 H978 0.929 . S
C991 C983 1.433 1_455 S
C991 N993 1.384 . S
N992 C988 1.427 1_554 S
N992 C989 1.384 . S
N993 C985 1.427 . S
N993 C991 1.384 . S
H994 C1000 0.930 . S
H995 C1004 0.930 . S
H996 C1009 0.929 . S
H997 C1007 0.929 . S
H998 C1002 0.929 . S
H999 C1008 0.929 . S
C1000 H994 0.930 . S
C1000 C1001 1.367 . S
C1000 C1008 1.378 . S
C1001 C1000 1.367 . S
C1001 C1009 1.433 . S
C1002 H998 0.929 . S
C1002 C1004 1.378 . S
C1002 C1006 1.350 . S
C1003 C1006 1.463 . S
C1003 C1008 1.350 . S
C1003 N1011 1.427 . S
C1004 H995 0.930 . S
C1004 C1002 1.378 . S
C1004 C1005 1.367 . S
C1005 C1004 1.367 . S
C1005 C1007 1.433 . S
C1006 C1002 1.350 . S
C1006 C1003 1.463 . S
C1006 N1010 1.427 . S
C1007 H997 0.929 . S
C1007 C1005 1.433 . S
C1007 N1010 1.384 . S
C1008 H999 0.929 . S
C1008 C1000 1.378 . S
C1008 C1003 1.350 . S
C1009 H996 0.929 . S
C1009 C1001 1.433 . S
C1009 N1011 1.384 . S
N1010 C1006 1.427 . S
N1010 C1007 1.384 . S
N1011 C1003 1.427 . S
N1011 C1009 1.384 . S
H1012 C1018 0.930 . S
H1013 C1022 0.930 . S
H1014 C1027 0.929 . S
H1015 C1025 0.929 . S
H1016 C1020 0.929 . S
H1017 C1026 0.929 . S
C1018 H1012 0.930 . S
C1018 C1019 1.367 . S
C1018 C1026 1.378 . S
C1019 C1018 1.367 . S
C1019 C1027 1.433 . S
C1020 H1016 0.929 . S
C1020 C1022 1.378 . S
C1020 C1024 1.350 . S
C1021 C1024 1.463 . S
C1021 C1026 1.350 . S
C1021 N1029 1.427 . S
C1022 H1013 0.930 . S
C1022 C1020 1.378 . S
C1022 C1023 1.367 . S
C1023 C1022 1.367 . S
C1023 C1025 1.433 . S
C1024 C1020 1.350 . S
C1024 C1021 1.463 . S
C1024 N1028 1.427 . S
C1025 H1015 0.929 . S
C1025 C1023 1.433 . S
C1025 N1028 1.384 . S
C1026 H1017 0.929 . S
C1026 C1018 1.378 . S
C1026 C1021 1.350 . S
C1027 H1014 0.929 . S
C1027 C1019 1.433 . S
C1027 N1029 1.384 . S
N1028 C1024 1.427 . S
N1028 C1025 1.384 . S
N1029 C1021 1.427 . S
N1029 C1027 1.384 . S
H1030 C1036 0.930 . S
H1031 C1040 0.930 . S
H1032 C1045 0.929 . S
H1033 C1043 0.929 . S
H1034 C1038 0.929 . S
H1035 C1044 0.929 . S
C1036 H1030 0.930 . S
C1036 C1037 1.367 . S
C1036 C1044 1.378 . S
C1037 C1036 1.367 . S
C1037 C1045 1.433 . S
C1038 H1034 0.929 . S
C1038 C1040 1.378 . S
C1038 C1042 1.350 . S
C1039 C1042 1.463 . S
C1039 C1044 1.350 . S
C1039 N1047 1.427 . S
C1040 H1031 0.930 . S
C1040 C1038 1.378 . S
C1040 C1041 1.367 . S
C1041 C1040 1.367 . S
C1041 C1043 1.433 . S
C1042 C1038 1.350 . S
C1042 C1039 1.463 . S
C1042 N1046 1.427 . S
C1043 H1033 0.929 . S
C1043 C1041 1.433 . S
C1043 N1046 1.384 . S
C1044 H1035 0.929 . S
C1044 C1036 1.378 . S
C1044 C1039 1.350 . S
C1045 H1032 0.929 . S
C1045 C1037 1.433 . S
C1045 N1047 1.384 . S
N1046 C1042 1.427 . S
N1046 C1043 1.384 . S
N1047 C1039 1.427 . S
N1047 C1045 1.384 . S
H1048 C1054 0.930 . S
H1049 C1058 0.930 . S
H1050 C1063 0.929 . S
H1051 C1061 0.929 . S
H1052 C1056 0.929 . S
H1053 C1062 0.929 . S
C1054 H1048 0.930 . S
C1054 C1055 1.367 . S
C1054 C1062 1.378 . S
C1055 C1054 1.367 . S
C1055 C1063 1.433 . S
C1056 H1052 0.929 . S
C1056 C1058 1.378 . S
C1056 C1060 1.350 . S
C1057 C1060 1.463 . S
C1057 C1062 1.350 . S
C1057 N1065 1.427 . S
C1058 H1049 0.930 . S
C1058 C1056 1.378 . S
C1058 C1059 1.367 . S
C1059 C1058 1.367 . S
C1059 C1061 1.433 . S
C1060 C1056 1.350 . S
C1060 C1057 1.463 . S
C1060 N1064 1.427 . S
C1061 H1051 0.929 . S
C1061 C1059 1.433 . S
C1061 N1064 1.384 . S
C1062 H1053 0.929 . S
C1062 C1054 1.378 . S
C1062 C1057 1.350 . S
C1063 H1050 0.929 . S
C1063 C1055 1.433 . S
C1063 N1065 1.384 . S
N1064 C1060 1.427 . S
N1064 C1061 1.384 . S
N1065 C1057 1.427 . S
N1065 C1063 1.384 . S
H1066 C1072 0.930 . S
H1067 C1076 0.930 . S
H1068 C1081 0.929 . S
H1069 C1079 0.929 . S
H1070 C1074 0.929 . S
H1071 C1080 0.929 . S
C1072 H1066 0.930 . S
C1072 C1073 1.367 . S
C1072 C1080 1.378 . S
C1073 C1072 1.367 . S
C1073 C1081 1.433 . S
C1074 H1070 0.929 . S
C1074 C1076 1.378 . S
C1074 C1078 1.350 . S
C1075 C1078 1.463 . S
C1075 C1080 1.350 . S
C1075 N1083 1.427 . S
C1076 H1067 0.930 . S
C1076 C1074 1.378 . S
C1076 C1077 1.367 . S
C1077 C1076 1.367 . S
C1077 C1079 1.433 . S
C1078 C1074 1.350 . S
C1078 C1075 1.463 . S
C1078 N1082 1.427 . S
C1079 H1069 0.929 . S
C1079 C1077 1.433 . S
C1079 N1082 1.384 . S
C1080 H1071 0.929 . S
C1080 C1072 1.378 . S
C1080 C1075 1.350 . S
C1081 H1068 0.929 . S
C1081 C1073 1.433 . S
C1081 N1083 1.384 . S
N1082 C1078 1.427 . S
N1082 C1079 1.384 . S
N1083 C1075 1.427 . S
N1083 C1081 1.384 . S
H1084 C1090 0.930 . S
H1085 C1094 0.930 . S
H1086 C1099 0.929 . S
H1087 C1097 0.929 . S
H1088 C1092 0.929 . S
H1089 C1098 0.929 . S
C1090 H1084 0.930 . S
C1090 C1091 1.367 . S
C1090 C1098 1.378 . S
C1091 C1090 1.367 . S
C1091 C1099 1.433 . S
C1092 H1088 0.929 . S
C1092 C1094 1.378 . S
C1092 C1096 1.350 . S
C1093 C1096 1.463 . S
C1093 C1098 1.350 . S
C1093 N1101 1.427 . S
C1094 H1085 0.930 . S
C1094 C1092 1.378 . S
C1094 C1095 1.367 . S
C1095 C1094 1.367 . S
C1095 C1097 1.433 . S
C1096 C1092 1.350 . S
C1096 C1093 1.463 . S
C1096 N1100 1.427 . S
C1097 H1087 0.929 . S
C1097 C1095 1.433 . S
C1097 N1100 1.384 . S
C1098 H1089 0.929 . S
C1098 C1090 1.378 . S
C1098 C1093 1.350 . S
C1099 H1086 0.929 . S
C1099 C1091 1.433 . S
C1099 N1101 1.384 . S
N1100 C1096 1.427 . S
N1100 C1097 1.384 . S
N1101 C1093 1.427 . S
N1101 C1099 1.384 . S
H1102 C1108 0.930 . S
H1103 C1112 0.930 . S
H1104 C1117 0.929 . S
H1105 C1115 0.929 . S
H1106 C1110 0.929 . S
H1107 C1116 0.929 . S
C1108 H1102 0.930 . S
C1108 C1109 1.367 . S
C1108 C1116 1.378 . S
C1109 C1108 1.367 . S
C1109 C1117 1.433 . S
C1110 H1106 0.929 . S
C1110 C1112 1.378 . S
C1110 C1114 1.350 . S
C1111 C1114 1.463 . S
C1111 C1116 1.350 . S
C1111 N1119 1.427 . S
C1112 H1103 0.930 . S
C1112 C1110 1.378 . S
C1112 C1113 1.367 . S
C1113 C1112 1.367 . S
C1113 C1115 1.433 . S
C1114 C1110 1.350 . S
C1114 C1111 1.463 . S
C1114 N1118 1.427 . S
C1115 H1105 0.929 . S
C1115 C1113 1.433 . S
C1115 N1118 1.384 . S
C1116 H1107 0.929 . S
C1116 C1108 1.378 . S
C1116 C1111 1.350 . S
C1117 H1104 0.929 . S
C1117 C1109 1.433 . S
C1117 N1119 1.384 . S
N1118 C1114 1.427 . S
N1118 C1115 1.384 . S
N1119 C1111 1.427 . S
N1119 C1117 1.384 . S
H1120 C1126 0.930 . S
H1121 C1130 0.930 . S
H1122 C1135 0.929 . S
H1123 C1133 0.929 . S
H1124 C1128 0.929 . S
H1125 C1134 0.929 . S
C1126 H1120 0.930 . S
C1126 C1127 1.367 1_565 S
C1126 C1134 1.378 . S
C1127 C1126 1.367 1_545 S
C1127 C1135 1.433 . S
C1128 H1124 0.929 . S
C1128 C1130 1.378 . S
C1128 C1132 1.350 1_455 S
C1129 C1132 1.463 . S
C1129 C1134 1.350 1_545 S
C1129 N1137 1.427 . S
C1130 H1121 0.930 . S
C1130 C1128 1.378 . S
C1130 C1131 1.367 . S
C1131 C1130 1.367 . S
C1131 C1133 1.433 . S
C1132 C1128 1.350 1_655 S
C1132 C1129 1.463 . S
C1132 N1136 1.427 . S
C1133 H1123 0.929 . S
C1133 C1131 1.433 . S
C1133 N1136 1.384 1_455 S
C1134 H1125 0.929 . S
C1134 C1126 1.378 . S
C1134 C1129 1.350 1_565 S
C1135 H1122 0.929 . S
C1135 C1127 1.433 . S
C1135 N1137 1.384 . S
N1136 C1132 1.427 . S
N1136 C1133 1.384 1_655 S
N1137 C1129 1.427 . S
N1137 C1135 1.384 . S
H1138 C1144 0.930 . S
H1139 C1148 0.930 . S
H1140 C1153 0.929 . S
H1141 C1151 0.929 . S
H1142 C1146 0.929 . S
H1143 C1152 0.929 . S
C1144 H1138 0.930 . S
C1144 C1145 1.367 . S
C1144 C1152 1.378 . S
C1145 C1144 1.367 . S
C1145 C1153 1.433 . S
C1146 H1142 0.929 . S
C1146 C1148 1.378 . S
C1146 C1150 1.350 . S
C1147 C1150 1.463 . S
C1147 C1152 1.350 . S
C1147 N1155 1.427 . S
C1148 H1139 0.930 . S
C1148 C1146 1.378 . S
C1148 C1149 1.367 . S
C1149 C1148 1.367 . S
C1149 C1151 1.433 . S
C1150 C1146 1.350 . S
C1150 C1147 1.463 . S
C1150 N1154 1.427 . S
C1151 H1141 0.929 . S
C1151 C1149 1.433 . S
C1151 N1154 1.384 . S
C1152 H1143 0.929 . S
C1152 C1144 1.378 . S
C1152 C1147 1.350 . S
C1153 H1140 0.929 . S
C1153 C1145 1.433 . S
C1153 N1155 1.384 . S
N1154 C1150 1.427 . S
N1154 C1151 1.384 . S
N1155 C1147 1.427 . S
N1155 C1153 1.384 . S
H1156 C1162 0.930 . S
H1157 C1166 0.930 . S
H1158 C1171 0.929 . S
H1159 C1169 0.929 . S
H1160 C1164 0.929 . S
H1161 C1170 0.929 . S
C1162 H1156 0.930 . S
C1162 C1163 1.367 . S
C1162 C1170 1.378 . S
C1163 C1162 1.367 . S
C1163 C1171 1.433 . S
C1164 H1160 0.929 . S
C1164 C1166 1.378 . S
C1164 C1168 1.350 . S
C1165 C1168 1.463 . S
C1165 C1170 1.350 . S
C1165 N1173 1.427 . S
C1166 H1157 0.930 . S
C1166 C1164 1.378 . S
C1166 C1167 1.367 . S
C1167 C1166 1.367 . S
C1167 C1169 1.433 . S
C1168 C1164 1.350 . S
C1168 C1165 1.463 . S
C1168 N1172 1.427 . S
C1169 H1159 0.929 . S
C1169 C1167 1.433 . S
C1169 N1172 1.384 . S
C1170 H1161 0.929 . S
C1170 C1162 1.378 . S
C1170 C1165 1.350 . S
C1171 H1158 0.929 . S
C1171 C1163 1.433 . S
C1171 N1173 1.384 . S
N1172 C1168 1.427 . S
N1172 C1169 1.384 . S
N1173 C1165 1.427 . S
N1173 C1171 1.384 . S
H1174 C1180 0.930 . S
H1175 C1184 0.930 . S
H1176 C1189 0.929 . S
H1177 C1187 0.929 . S
H1178 C1182 0.929 . S
H1179 C1188 0.929 . S
C1180 H1174 0.930 . S
C1180 C1181 1.367 . S
C1180 C1188 1.378 . S
C1181 C1180 1.367 . S
C1181 C1189 1.433 . S
C1182 H1178 0.929 . S
C1182 C1184 1.378 . S
C1182 C1186 1.350 . S
C1183 C1186 1.463 . S
C1183 C1188 1.350 . S
C1183 N1191 1.427 . S
C1184 H1175 0.930 . S
C1184 C1182 1.378 . S
C1184 C1185 1.367 . S
C1185 C1184 1.367 . S
C1185 C1187 1.433 . S
C1186 C1182 1.350 . S
C1186 C1183 1.463 . S
C1186 N1190 1.427 . S
C1187 H1177 0.929 . S
C1187 C1185 1.433 . S
C1187 N1190 1.384 . S
C1188 H1179 0.929 . S
C1188 C1180 1.378 . S
C1188 C1183 1.350 . S
C1189 H1176 0.929 . S
C1189 C1181 1.433 . S
C1189 N1191 1.384 . S
N1190 C1186 1.427 . S
N1190 C1187 1.384 . S
N1191 C1183 1.427 . S
N1191 C1189 1.384 . S
H1192 C1198 0.930 . S
H1193 C1202 0.930 1_455 S
H1194 C1207 0.929 . S
H1195 C1205 0.929 . S
H1196 C1200 0.929 . S
H1197 C1206 0.929 . S
C1198 H1192 0.930 . S
C1198 C1199 1.367 1_565 S
C1198 C1206 1.378 . S
C1199 C1198 1.367 1_545 S
C1199 C1207 1.433 . S
C1200 H1196 0.929 . S
C1200 C1202 1.378 . S
C1200 C1204 1.350 . S
C1201 C1204 1.463 . S
C1201 C1206 1.350 1_545 S
C1201 N1209 1.427 . S
C1202 H1193 0.930 1_655 S
C1202 C1200 1.378 . S
C1202 C1203 1.367 . S
C1203 C1202 1.367 . S
C1203 C1205 1.433 1_545 S
C1204 C1200 1.350 . S
C1204 C1201 1.463 . S
C1204 N1208 1.427 1_545 S
C1205 H1195 0.929 . S
C1205 C1203 1.433 1_565 S
C1205 N1208 1.384 . S
C1206 H1197 0.929 . S
C1206 C1198 1.378 . S
C1206 C1201 1.350 1_565 S
C1207 H1194 0.929 . S
C1207 C1199 1.433 . S
C1207 N1209 1.384 . S
N1208 C1204 1.427 1_565 S
N1208 C1205 1.384 . S
N1209 C1201 1.427 . S
N1209 C1207 1.384 . S
H1210 C1216 0.930 . S
H1211 C1220 0.930 . S
H1212 C1225 0.929 . S
H1213 C1223 0.929 . S
H1214 C1218 0.929 . S
H1215 C1224 0.929 . S
C1216 H1210 0.930 . S
C1216 C1217 1.367 . S
C1216 C1224 1.378 . S
C1217 C1216 1.367 . S
C1217 C1225 1.433 . S
C1218 H1214 0.929 . S
C1218 C1220 1.378 . S
C1218 C1222 1.350 . S
C1219 C1222 1.463 . S
C1219 C1224 1.350 . S
C1219 N1227 1.427 . S
C1220 H1211 0.930 . S
C1220 C1218 1.378 . S
C1220 C1221 1.367 . S
C1221 C1220 1.367 . S
C1221 C1223 1.433 . S
C1222 C1218 1.350 . S
C1222 C1219 1.463 . S
C1222 N1226 1.427 . S
C1223 H1213 0.929 . S
C1223 C1221 1.433 . S
C1223 N1226 1.384 . S
C1224 H1215 0.929 . S
C1224 C1216 1.378 . S
C1224 C1219 1.350 . S
C1225 H1212 0.929 . S
C1225 C1217 1.433 . S
C1225 N1227 1.384 . S
N1226 C1222 1.427 . S
N1226 C1223 1.384 . S
N1227 C1219 1.427 . S
N1227 C1225 1.384 . S
H1228 C1234 0.930 . S
H1229 C1238 0.930 . S
H1230 C1243 0.929 . S
H1231 C1241 0.929 . S
H1232 C1236 0.929 . S
H1233 C1242 0.929 . S
C1234 H1228 0.930 . S
C1234 C1235 1.367 . S
C1234 C1242 1.378 . S
C1235 C1234 1.367 . S
C1235 C1243 1.433 . S
C1236 H1232 0.929 . S
C1236 C1238 1.378 . S
C1236 C1240 1.350 . S
C1237 C1240 1.463 . S
C1237 C1242 1.350 . S
C1237 N1245 1.427 . S
C1238 H1229 0.930 . S
C1238 C1236 1.378 . S
C1238 C1239 1.367 . S
C1239 C1238 1.367 . S
C1239 C1241 1.433 . S
C1240 C1236 1.350 . S
C1240 C1237 1.463 . S
C1240 N1244 1.427 . S
C1241 H1231 0.929 . S
C1241 C1239 1.433 . S
C1241 N1244 1.384 . S
C1242 H1233 0.929 . S
C1242 C1234 1.378 . S
C1242 C1237 1.350 . S
C1243 H1230 0.929 . S
C1243 C1235 1.433 . S
C1243 N1245 1.384 . S
N1244 C1240 1.427 . S
N1244 C1241 1.384 . S
N1245 C1237 1.427 . S
N1245 C1243 1.384 . S
H1246 C1252 0.930 . S
H1247 C1256 0.930 . S
H1248 C1261 0.929 . S
H1249 C1259 0.929 . S
H1250 C1254 0.929 . S
H1251 C1260 0.929 . S
C1252 H1246 0.930 . S
C1252 C1253 1.367 . S
C1252 C1260 1.378 . S
C1253 C1252 1.367 . S
C1253 C1261 1.433 . S
C1254 H1250 0.929 . S
C1254 C1256 1.378 . S
C1254 C1258 1.350 . S
C1255 C1258 1.463 . S
C1255 C1260 1.350 . S
C1255 N1263 1.427 . S
C1256 H1247 0.930 . S
C1256 C1254 1.378 . S
C1256 C1257 1.367 . S
C1257 C1256 1.367 . S
C1257 C1259 1.433 . S
C1258 C1254 1.350 . S
C1258 C1255 1.463 . S
C1258 N1262 1.427 . S
C1259 H1249 0.929 . S
C1259 C1257 1.433 . S
C1259 N1262 1.384 . S
C1260 H1251 0.929 . S
C1260 C1252 1.378 . S
C1260 C1255 1.350 . S
C1261 H1248 0.929 . S
C1261 C1253 1.433 . S
C1261 N1263 1.384 . S
N1262 C1258 1.427 . S
N1262 C1259 1.384 . S
N1263 C1255 1.427 . S
N1263 C1261 1.384 . S
H1264 C1270 0.930 . S
H1265 C1274 0.930 . S
H1266 C1279 0.929 . S
H1267 C1277 0.929 . S
H1268 C1272 0.929 . S
H1269 C1278 0.929 1_545 S
C1270 H1264 0.930 . S
C1270 C1271 1.367 . S
C1270 C1278 1.378 . S
C1271 C1270 1.367 . S
C1271 C1279 1.433 1_554 S
C1272 H1268 0.929 . S
C1272 C1274 1.378 . S
C1272 C1276 1.350 . S
C1273 C1276 1.463 . S
C1273 C1278 1.350 . S
C1273 N1281 1.427 . S
C1274 H1265 0.930 . S
C1274 C1272 1.378 . S
C1274 C1275 1.367 1_565 S
C1275 C1274 1.367 1_545 S
C1275 C1277 1.433 . S
C1276 C1272 1.350 . S
C1276 C1273 1.463 . S
C1276 N1280 1.427 1_565 S
C1277 H1267 0.929 . S
C1277 C1275 1.433 . S
C1277 N1280 1.384 . S
C1278 H1269 0.929 1_565 S
C1278 C1270 1.378 . S
C1278 C1273 1.350 . S
C1279 H1266 0.929 . S
C1279 C1271 1.433 1_556 S
C1279 N1281 1.384 1_556 S
N1280 C1276 1.427 1_545 S
N1280 C1277 1.384 . S
N1281 C1273 1.427 . S
N1281 C1279 1.384 1_554 S
H1282 C1288 0.930 . S
H1283 C1292 0.930 . S
H1284 C1297 0.929 . S
H1285 C1295 0.929 . S
H1286 C1290 0.929 . S
H1287 C1296 0.929 . S
C1288 H1282 0.930 . S
C1288 C1289 1.367 . S
C1288 C1296 1.378 . S
C1289 C1288 1.367 . S
C1289 C1297 1.433 . S
C1290 H1286 0.929 . S
C1290 C1292 1.378 . S
C1290 C1294 1.350 . S
C1291 C1294 1.463 . S
C1291 C1296 1.350 . S
C1291 N1299 1.427 . S
C1292 H1283 0.930 . S
C1292 C1290 1.378 . S
C1292 C1293 1.367 . S
C1293 C1292 1.367 . S
C1293 C1295 1.433 . S
C1294 C1290 1.350 . S
C1294 C1291 1.463 . S
C1294 N1298 1.427 . S
C1295 H1285 0.929 . S
C1295 C1293 1.433 . S
C1295 N1298 1.384 . S
C1296 H1287 0.929 . S
C1296 C1288 1.378 . S
C1296 C1291 1.350 . S
C1297 H1284 0.929 . S
C1297 C1289 1.433 . S
C1297 N1299 1.384 . S
N1298 C1294 1.427 . S
N1298 C1295 1.384 . S
N1299 C1291 1.427 . S
N1299 C1297 1.384 . S
H1300 C1306 0.930 . S
H1301 C1310 0.930 . S
H1302 C1315 0.929 . S
H1303 C1313 0.929 . S
H1304 C1308 0.929 . S
H1305 C1314 0.929 . S
C1306 H1300 0.930 . S
C1306 C1307 1.367 . S
C1306 C1314 1.378 . S
C1307 C1306 1.367 . S
C1307 C1315 1.433 . S
C1308 H1304 0.929 . S
C1308 C1310 1.378 . S
C1308 C1312 1.350 . S
C1309 C1312 1.463 . S
C1309 C1314 1.350 . S
C1309 N1317 1.427 . S
C1310 H1301 0.930 . S
C1310 C1308 1.378 . S
C1310 C1311 1.367 . S
C1311 C1310 1.367 . S
C1311 C1313 1.433 . S
C1312 C1308 1.350 . S
C1312 C1309 1.463 . S
C1312 N1316 1.427 . S
C1313 H1303 0.929 . S
C1313 C1311 1.433 . S
C1313 N1316 1.384 . S
C1314 H1305 0.929 . S
C1314 C1306 1.378 . S
C1314 C1309 1.350 . S
C1315 H1302 0.929 . S
C1315 C1307 1.433 . S
C1315 N1317 1.384 . S
N1316 C1312 1.427 . S
N1316 C1313 1.384 . S
N1317 C1309 1.427 . S
N1317 C1315 1.384 . S
H1318 C1324 0.930 . S
H1319 C1328 0.930 . S
H1320 C1333 0.929 . S
H1321 C1331 0.929 . S
H1322 C1326 0.929 . S
H1323 C1332 0.929 . S
C1324 H1318 0.930 . S
C1324 C1325 1.367 . S
C1324 C1332 1.378 . S
C1325 C1324 1.367 . S
C1325 C1333 1.433 . S
C1326 H1322 0.929 . S
C1326 C1328 1.378 . S
C1326 C1330 1.350 . S
C1327 C1330 1.463 . S
C1327 C1332 1.350 . S
C1327 N1335 1.427 . S
C1328 H1319 0.930 . S
C1328 C1326 1.378 . S
C1328 C1329 1.367 . S
C1329 C1328 1.367 . S
C1329 C1331 1.433 . S
C1330 C1326 1.350 . S
C1330 C1327 1.463 . S
C1330 N1334 1.427 . S
C1331 H1321 0.929 . S
C1331 C1329 1.433 . S
C1331 N1334 1.384 . S
C1332 H1323 0.929 . S
C1332 C1324 1.378 . S
C1332 C1327 1.350 . S
C1333 H1320 0.929 . S
C1333 C1325 1.433 . S
C1333 N1335 1.384 . S
N1334 C1330 1.427 . S
N1334 C1331 1.384 . S
N1335 C1327 1.427 . S
N1335 C1333 1.384 . S
H1336 C1342 0.930 . S
H1337 C1346 0.930 . S
H1338 C1351 0.929 . S
H1339 C1349 0.929 . S
H1340 C1344 0.929 . S
H1341 C1350 0.929 . S
C1342 H1336 0.930 . S
C1342 C1343 1.367 . S
C1342 C1350 1.378 . S
C1343 C1342 1.367 . S
C1343 C1351 1.433 . S
C1344 H1340 0.929 . S
C1344 C1346 1.378 . S
C1344 C1348 1.350 . S
C1345 C1348 1.463 . S
C1345 C1350 1.350 . S
C1345 N1353 1.427 . S
C1346 H1337 0.930 . S
C1346 C1344 1.378 . S
C1346 C1347 1.367 . S
C1347 C1346 1.367 . S
C1347 C1349 1.433 . S
C1348 C1344 1.350 . S
C1348 C1345 1.463 . S
C1348 N1352 1.427 . S
C1349 H1339 0.929 . S
C1349 C1347 1.433 . S
C1349 N1352 1.384 . S
C1350 H1341 0.929 . S
C1350 C1342 1.378 . S
C1350 C1345 1.350 . S
C1351 H1338 0.929 . S
C1351 C1343 1.433 . S
C1351 N1353 1.384 . S
N1352 C1348 1.427 . S
N1352 C1349 1.384 . S
N1353 C1345 1.427 . S
N1353 C1351 1.384 . S
H1354 C1360 0.930 . S
H1355 C1364 0.930 . S
H1356 C1369 0.929 . S
H1357 C1367 0.929 . S
H1358 C1362 0.929 . S
H1359 C1368 0.929 . S
C1360 H1354 0.930 . S
C1360 C1361 1.367 . S
C1360 C1368 1.378 . S
C1361 C1360 1.367 . S
C1361 C1369 1.433 . S
C1362 H1358 0.929 . S
C1362 C1364 1.378 . S
C1362 C1366 1.350 . S
C1363 C1366 1.463 . S
C1363 C1368 1.350 . S
C1363 N1371 1.427 . S
C1364 H1355 0.930 . S
C1364 C1362 1.378 . S
C1364 C1365 1.367 . S
C1365 C1364 1.367 . S
C1365 C1367 1.433 . S
C1366 C1362 1.350 . S
C1366 C1363 1.463 . S
C1366 N1370 1.427 . S
C1367 H1357 0.929 . S
C1367 C1365 1.433 . S
C1367 N1370 1.384 . S
C1368 H1359 0.929 . S
C1368 C1360 1.378 . S
C1368 C1363 1.350 . S
C1369 H1356 0.929 . S
C1369 C1361 1.433 . S
C1369 N1371 1.384 . S
N1370 C1366 1.427 . S
N1370 C1367 1.384 . S
N1371 C1363 1.427 . S
N1371 C1369 1.384 . S
H1372 C1378 0.930 . S
H1373 C1382 0.930 . S
H1374 C1387 0.929 . S
H1375 C1385 0.929 . S
H1376 C1380 0.929 . S
H1377 C1386 0.929 . S
C1378 H1372 0.930 . S
C1378 C1379 1.367 . S
C1378 C1386 1.378 . S
C1379 C1378 1.367 . S
C1379 C1387 1.433 . S
C1380 H1376 0.929 . S
C1380 C1382 1.378 . S
C1380 C1384 1.350 . S
C1381 C1384 1.463 . S
C1381 C1386 1.350 . S
C1381 N1389 1.427 . S
C1382 H1373 0.930 . S
C1382 C1380 1.378 . S
C1382 C1383 1.367 . S
C1383 C1382 1.367 . S
C1383 C1385 1.433 . S
C1384 C1380 1.350 . S
C1384 C1381 1.463 . S
C1384 N1388 1.427 . S
C1385 H1375 0.929 . S
C1385 C1383 1.433 . S
C1385 N1388 1.384 . S
C1386 H1377 0.929 . S
C1386 C1378 1.378 . S
C1386 C1381 1.350 . S
C1387 H1374 0.929 . S
C1387 C1379 1.433 . S
C1387 N1389 1.384 . S
N1388 C1384 1.427 . S
N1388 C1385 1.384 . S
N1389 C1381 1.427 . S
N1389 C1387 1.384 . S
H1390 C1396 0.930 . S
H1391 C1400 0.930 . S
H1392 C1405 0.929 . S
H1393 C1403 0.929 . S
H1394 C1398 0.929 . S
H1395 C1404 0.929 . S
C1396 H1390 0.930 . S
C1396 C1397 1.367 . S
C1396 C1404 1.378 . S
C1397 C1396 1.367 . S
C1397 C1405 1.433 . S
C1398 H1394 0.929 . S
C1398 C1400 1.378 . S
C1398 C1402 1.350 . S
C1399 C1402 1.463 . S
C1399 C1404 1.350 . S
C1399 N1407 1.427 . S
C1400 H1391 0.930 . S
C1400 C1398 1.378 . S
C1400 C1401 1.367 . S
C1401 C1400 1.367 . S
C1401 C1403 1.433 . S
C1402 C1398 1.350 . S
C1402 C1399 1.463 . S
C1402 N1406 1.427 . S
C1403 H1393 0.929 . S
C1403 C1401 1.433 . S
C1403 N1406 1.384 . S
C1404 H1395 0.929 . S
C1404 C1396 1.378 . S
C1404 C1399 1.350 . S
C1405 H1392 0.929 . S
C1405 C1397 1.433 . S
C1405 N1407 1.384 . S
N1406 C1402 1.427 . S
N1406 C1403 1.384 . S
N1407 C1399 1.427 . S
N1407 C1405 1.384 . S
H1408 C1414 0.930 . S
H1409 C1418 0.930 . S
H1410 C1423 0.929 . S
H1411 C1421 0.929 . S
H1412 C1416 0.929 . S
H1413 C1422 0.929 . S
C1414 H1408 0.930 . S
C1414 C1415 1.367 . S
C1414 C1422 1.378 . S
C1415 C1414 1.367 . S
C1415 C1423 1.433 . S
C1416 H1412 0.929 . S
C1416 C1418 1.378 . S
C1416 C1420 1.350 . S
C1417 C1420 1.463 . S
C1417 C1422 1.350 . S
C1417 N1425 1.427 . S
C1418 H1409 0.930 . S
C1418 C1416 1.378 . S
C1418 C1419 1.367 . S
C1419 C1418 1.367 . S
C1419 C1421 1.433 . S
C1420 C1416 1.350 . S
C1420 C1417 1.463 . S
C1420 N1424 1.427 . S
C1421 H1411 0.929 . S
C1421 C1419 1.433 . S
C1421 N1424 1.384 . S
C1422 H1413 0.929 . S
C1422 C1414 1.378 . S
C1422 C1417 1.350 . S
C1423 H1410 0.929 . S
C1423 C1415 1.433 . S
C1423 N1425 1.384 . S
N1424 C1420 1.427 . S
N1424 C1421 1.384 . S
N1425 C1417 1.427 . S
N1425 C1423 1.384 . S
H1426 C1432 0.930 . S
H1427 C1436 0.930 . S
H1428 C1441 0.929 . S
H1429 C1439 0.929 . S
H1430 C1434 0.929 . S
H1431 C1440 0.929 . S
C1432 H1426 0.930 . S
C1432 C1433 1.367 . S
C1432 C1440 1.378 . S
C1433 C1432 1.367 . S
C1433 C1441 1.433 . S
C1434 H1430 0.929 . S
C1434 C1436 1.378 . S
C1434 C1438 1.350 . S
C1435 C1438 1.463 . S
C1435 C1440 1.350 . S
C1435 N1443 1.427 . S
C1436 H1427 0.930 . S
C1436 C1434 1.378 . S
C1436 C1437 1.367 . S
C1437 C1436 1.367 . S
C1437 C1439 1.433 . S
C1438 C1434 1.350 . S
C1438 C1435 1.463 . S
C1438 N1442 1.427 . S
C1439 H1429 0.929 . S
C1439 C1437 1.433 . S
C1439 N1442 1.384 . S
C1440 H1431 0.929 . S
C1440 C1432 1.378 . S
C1440 C1435 1.350 . S
C1441 H1428 0.929 . S
C1441 C1433 1.433 . S
C1441 N1443 1.384 . S
N1442 C1438 1.427 . S
N1442 C1439 1.384 . S
N1443 C1435 1.427 . S
N1443 C1441 1.384 . S
H1444 C1450 0.930 . S
H1445 C1454 0.930 . S
H1446 C1459 0.929 . S
H1447 C1457 0.929 . S
H1448 C1452 0.929 . S
H1449 C1458 0.929 . S
C1450 H1444 0.930 . S
C1450 C1451 1.367 . S
C1450 C1458 1.378 . S
C1451 C1450 1.367 . S
C1451 C1459 1.433 . S
C1452 H1448 0.929 . S
C1452 C1454 1.378 . S
C1452 C1456 1.350 . S
C1453 C1456 1.463 . S
C1453 C1458 1.350 . S
C1453 N1461 1.427 . S
C1454 H1445 0.930 . S
C1454 C1452 1.378 . S
C1454 C1455 1.367 . S
C1455 C1454 1.367 . S
C1455 C1457 1.433 . S
C1456 C1452 1.350 . S
C1456 C1453 1.463 . S
C1456 N1460 1.427 . S
C1457 H1447 0.929 . S
C1457 C1455 1.433 . S
C1457 N1460 1.384 . S
C1458 H1449 0.929 . S
C1458 C1450 1.378 . S
C1458 C1453 1.350 . S
C1459 H1446 0.929 . S
C1459 C1451 1.433 . S
C1459 N1461 1.384 . S
N1460 C1456 1.427 . S
N1460 C1457 1.384 . S
N1461 C1453 1.427 . S
N1461 C1459 1.384 . S
H1462 C1468 0.930 . S
H1463 C1472 0.930 . S
H1464 C1477 0.929 . S
H1465 C1475 0.929 . S
H1466 C1470 0.929 . S
H1467 C1476 0.929 . S
C1468 H1462 0.930 . S
C1468 C1469 1.367 . S
C1468 C1476 1.378 . S
C1469 C1468 1.367 . S
C1469 C1477 1.433 . S
C1470 H1466 0.929 . S
C1470 C1472 1.378 . S
C1470 C1474 1.350 . S
C1471 C1474 1.463 . S
C1471 C1476 1.350 . S
C1471 N1479 1.427 . S
C1472 H1463 0.930 . S
C1472 C1470 1.378 . S
C1472 C1473 1.367 . S
C1473 C1472 1.367 . S
C1473 C1475 1.433 . S
C1474 C1470 1.350 . S
C1474 C1471 1.463 . S
C1474 N1478 1.427 . S
C1475 H1465 0.929 . S
C1475 C1473 1.433 . S
C1475 N1478 1.384 . S
C1476 H1467 0.929 . S
C1476 C1468 1.378 . S
C1476 C1471 1.350 . S
C1477 H1464 0.929 . S
C1477 C1469 1.433 . S
C1477 N1479 1.384 . S
N1478 C1474 1.427 . S
N1478 C1475 1.384 . S
N1479 C1471 1.427 . S
N1479 C1477 1.384 . S
H1480 C1486 0.930 . S
H1481 C1490 0.930 . S
H1482 C1495 0.929 . S
H1483 C1493 0.929 . S
H1484 C1488 0.929 . S
H1485 C1494 0.929 . S
C1486 H1480 0.930 . S
C1486 C1487 1.367 . S
C1486 C1494 1.378 . S
C1487 C1486 1.367 . S
C1487 C1495 1.433 . S
C1488 H1484 0.929 . S
C1488 C1490 1.378 . S
C1488 C1492 1.350 . S
C1489 C1492 1.463 . S
C1489 C1494 1.350 . S
C1489 N1497 1.427 . S
C1490 H1481 0.930 . S
C1490 C1488 1.378 . S
C1490 C1491 1.367 . S
C1491 C1490 1.367 . S
C1491 C1493 1.433 . S
C1492 C1488 1.350 . S
C1492 C1489 1.463 . S
C1492 N1496 1.427 . S
C1493 H1483 0.929 . S
C1493 C1491 1.433 . S
C1493 N1496 1.384 . S
C1494 H1485 0.929 . S
C1494 C1486 1.378 . S
C1494 C1489 1.350 . S
C1495 H1482 0.929 . S
C1495 C1487 1.433 . S
C1495 N1497 1.384 . S
N1496 C1492 1.427 . S
N1496 C1493 1.384 . S
N1497 C1489 1.427 . S
N1497 C1495 1.384 . S
H1498 C1504 0.930 . S
H1499 C1508 0.930 . S
H1500 C1513 0.929 . S
H1501 C1511 0.929 . S
H1502 C1506 0.929 . S
H1503 C1512 0.929 . S
C1504 H1498 0.930 . S
C1504 C1505 1.367 . S
C1504 C1512 1.378 . S
C1505 C1504 1.367 . S
C1505 C1513 1.433 . S
C1506 H1502 0.929 . S
C1506 C1508 1.378 . S
C1506 C1510 1.350 . S
C1507 C1510 1.463 . S
C1507 C1512 1.350 . S
C1507 N1515 1.427 . S
C1508 H1499 0.930 . S
C1508 C1506 1.378 . S
C1508 C1509 1.367 . S
C1509 C1508 1.367 . S
C1509 C1511 1.433 . S
C1510 C1506 1.350 . S
C1510 C1507 1.463 . S
C1510 N1514 1.427 . S
C1511 H1501 0.929 . S
C1511 C1509 1.433 . S
C1511 N1514 1.384 . S
C1512 H1503 0.929 . S
C1512 C1504 1.378 . S
C1512 C1507 1.350 . S
C1513 H1500 0.929 . S
C1513 C1505 1.433 . S
C1513 N1515 1.384 . S
N1514 C1510 1.427 . S
N1514 C1511 1.384 . S
N1515 C1507 1.427 . S
N1515 C1513 1.384 . S
H1516 C1522 0.930 . S
H1517 C1526 0.930 1_554 S
H1518 C1531 0.929 . S
H1519 C1529 0.929 . S
H1520 C1524 0.929 . S
H1521 C1530 0.929 . S
C1522 H1516 0.930 . S
C1522 C1523 1.367 . S
C1522 C1530 1.378 . S
C1523 C1522 1.367 . S
C1523 C1531 1.433 . S
C1524 H1520 0.929 . S
C1524 C1526 1.378 . S
C1524 C1528 1.350 . S
C1525 C1528 1.463 . S
C1525 C1530 1.350 . S
C1525 N1533 1.427 . S
C1526 H1517 0.930 1_556 S
C1526 C1524 1.378 . S
C1526 C1527 1.367 . S
C1527 C1526 1.367 . S
C1527 C1529 1.433 . S
C1528 C1524 1.350 . S
C1528 C1525 1.463 . S
C1528 N1532 1.427 . S
C1529 H1519 0.929 . S
C1529 C1527 1.433 . S
C1529 N1532 1.384 . S
C1530 H1521 0.929 . S
C1530 C1522 1.378 . S
C1530 C1525 1.350 . S
C1531 H1518 0.929 . S
C1531 C1523 1.433 . S
C1531 N1533 1.384 . S
N1532 C1528 1.427 . S
N1532 C1529 1.384 . S
N1533 C1525 1.427 . S
N1533 C1531 1.384 . S
H1534 C1540 0.930 . S
H1535 C1544 0.930 . S
H1536 C1549 0.929 . S
H1537 C1547 0.929 . S
H1538 C1542 0.929 . S
H1539 C1548 0.929 . S
C1540 H1534 0.930 . S
C1540 C1541 1.367 . S
C1540 C1548 1.378 . S
C1541 C1540 1.367 . S
C1541 C1549 1.433 . S
C1542 H1538 0.929 . S
C1542 C1544 1.378 . S
C1542 C1546 1.350 . S
C1543 C1546 1.463 . S
C1543 C1548 1.350 . S
C1543 N1551 1.427 . S
C1544 H1535 0.930 . S
C1544 C1542 1.378 . S
C1544 C1545 1.367 . S
C1545 C1544 1.367 . S
C1545 C1547 1.433 . S
C1546 C1542 1.350 . S
C1546 C1543 1.463 . S
C1546 N1550 1.427 . S
C1547 H1537 0.929 . S
C1547 C1545 1.433 . S
C1547 N1550 1.384 . S
C1548 H1539 0.929 . S
C1548 C1540 1.378 . S
C1548 C1543 1.350 . S
C1549 H1536 0.929 . S
C1549 C1541 1.433 . S
C1549 N1551 1.384 . S
N1550 C1546 1.427 . S
N1550 C1547 1.384 . S
N1551 C1543 1.427 . S
N1551 C1549 1.384 . S
H1552 C1558 0.930 . S
H1553 C1562 0.930 1_565 S
H1554 C1567 0.929 . S
H1555 C1565 0.929 . S
H1556 C1560 0.929 . S
H1557 C1566 0.929 . S
C1558 H1552 0.930 . S
C1558 C1559 1.367 . S
C1558 C1566 1.378 . S
C1559 C1558 1.367 . S
C1559 C1567 1.433 . S
C1560 H1556 0.929 . S
C1560 C1562 1.378 . S
C1560 C1564 1.350 . S
C1561 C1564 1.463 . S
C1561 C1566 1.350 . S
C1561 N1569 1.427 . S
C1562 H1553 0.930 1_545 S
C1562 C1560 1.378 . S
C1562 C1563 1.367 . S
C1563 C1562 1.367 . S
C1563 C1565 1.433 . S
C1564 C1560 1.350 . S
C1564 C1561 1.463 . S
C1564 N1568 1.427 . S
C1565 H1555 0.929 . S
C1565 C1563 1.433 . S
C1565 N1568 1.384 . S
C1566 H1557 0.929 . S
C1566 C1558 1.378 . S
C1566 C1561 1.350 . S
C1567 H1554 0.929 . S
C1567 C1559 1.433 . S
C1567 N1569 1.384 . S
N1568 C1564 1.427 . S
N1568 C1565 1.384 . S
N1569 C1561 1.427 . S
N1569 C1567 1.384 . S
H1570 C1576 0.930 . S
H1571 C1580 0.930 . S
H1572 C1585 0.929 . S
H1573 C1583 0.929 . S
H1574 C1578 0.929 . S
H1575 C1584 0.929 . S
C1576 H1570 0.930 . S
C1576 C1577 1.367 . S
C1576 C1584 1.378 . S
C1577 C1576 1.367 . S
C1577 C1585 1.433 . S
C1578 H1574 0.929 . S
C1578 C1580 1.378 . S
C1578 C1582 1.350 . S
C1579 C1582 1.463 . S
C1579 C1584 1.350 . S
C1579 N1587 1.427 . S
C1580 H1571 0.930 . S
C1580 C1578 1.378 . S
C1580 C1581 1.367 . S
C1581 C1580 1.367 . S
C1581 C1583 1.433 . S
C1582 C1578 1.350 . S
C1582 C1579 1.463 . S
C1582 N1586 1.427 . S
C1583 H1573 0.929 . S
C1583 C1581 1.433 . S
C1583 N1586 1.384 . S
C1584 H1575 0.929 . S
C1584 C1576 1.378 . S
C1584 C1579 1.350 . S
C1585 H1572 0.929 . S
C1585 C1577 1.433 . S
C1585 N1587 1.384 . S
N1586 C1582 1.427 . S
N1586 C1583 1.384 . S
N1587 C1579 1.427 . S
N1587 C1585 1.384 . S
H1588 C1594 0.930 . S
H1589 C1598 0.930 . S
H1590 C1603 0.929 . S
H1591 C1601 0.929 . S
H1592 C1596 0.929 . S
H1593 C1602 0.929 . S
C1594 H1588 0.930 . S
C1594 C1595 1.367 . S
C1594 C1602 1.378 . S
C1595 C1594 1.367 . S
C1595 C1603 1.433 . S
C1596 H1592 0.929 . S
C1596 C1598 1.378 . S
C1596 C1600 1.350 . S
C1597 C1600 1.463 . S
C1597 C1602 1.350 . S
C1597 N1605 1.427 . S
C1598 H1589 0.930 . S
C1598 C1596 1.378 . S
C1598 C1599 1.367 . S
C1599 C1598 1.367 . S
C1599 C1601 1.433 . S
C1600 C1596 1.350 . S
C1600 C1597 1.463 . S
C1600 N1604 1.427 . S
C1601 H1591 0.929 . S
C1601 C1599 1.433 . S
C1601 N1604 1.384 . S
C1602 H1593 0.929 . S
C1602 C1594 1.378 . S
C1602 C1597 1.350 . S
C1603 H1590 0.929 . S
C1603 C1595 1.433 . S
C1603 N1605 1.384 . S
N1604 C1600 1.427 . S
N1604 C1601 1.384 . S
N1605 C1597 1.427 . S
N1605 C1603 1.384 . S
H1606 C1612 0.930 . S
H1607 C1616 0.930 . S
H1608 C1621 0.929 . S
H1609 C1619 0.929 . S
H1610 C1614 0.929 . S
H1611 C1620 0.929 . S
C1612 H1606 0.930 . S
C1612 C1613 1.367 . S
C1612 C1620 1.378 . S
C1613 C1612 1.367 . S
C1613 C1621 1.433 . S
C1614 H1610 0.929 . S
C1614 C1616 1.378 . S
C1614 C1618 1.350 . S
C1615 C1618 1.463 . S
C1615 C1620 1.350 . S
C1615 N1623 1.427 . S
C1616 H1607 0.930 . S
C1616 C1614 1.378 . S
C1616 C1617 1.367 . S
C1617 C1616 1.367 . S
C1617 C1619 1.433 . S
C1618 C1614 1.350 . S
C1618 C1615 1.463 . S
C1618 N1622 1.427 . S
C1619 H1609 0.929 . S
C1619 C1617 1.433 . S
C1619 N1622 1.384 . S
C1620 H1611 0.929 . S
C1620 C1612 1.378 . S
C1620 C1615 1.350 . S
C1621 H1608 0.929 . S
C1621 C1613 1.433 . S
C1621 N1623 1.384 . S
N1622 C1618 1.427 . S
N1622 C1619 1.384 . S
N1623 C1615 1.427 . S
N1623 C1621 1.384 . S
H1624 C1630 0.930 . S
H1625 C1634 0.930 . S
H1626 C1639 0.929 . S
H1627 C1637 0.929 . S
H1628 C1632 0.929 . S
H1629 C1638 0.929 . S
C1630 H1624 0.930 . S
C1630 C1631 1.367 . S
C1630 C1638 1.378 . S
C1631 C1630 1.367 . S
C1631 C1639 1.433 . S
C1632 H1628 0.929 . S
C1632 C1634 1.378 . S
C1632 C1636 1.350 . S
C1633 C1636 1.463 . S
C1633 C1638 1.350 . S
C1633 N1641 1.427 . S
C1634 H1625 0.930 . S
C1634 C1632 1.378 . S
C1634 C1635 1.367 . S
C1635 C1634 1.367 . S
C1635 C1637 1.433 . S
C1636 C1632 1.350 . S
C1636 C1633 1.463 . S
C1636 N1640 1.427 . S
C1637 H1627 0.929 . S
C1637 C1635 1.433 . S
C1637 N1640 1.384 . S
C1638 H1629 0.929 . S
C1638 C1630 1.378 . S
C1638 C1633 1.350 . S
C1639 H1626 0.929 . S
C1639 C1631 1.433 . S
C1639 N1641 1.384 . S
N1640 C1636 1.427 . S
N1640 C1637 1.384 . S
N1641 C1633 1.427 . S
N1641 C1639 1.384 . S
H1642 C1648 0.930 . S
H1643 C1652 0.930 . S
H1644 C1657 0.929 . S
H1645 C1655 0.929 . S
H1646 C1650 0.929 . S
H1647 C1656 0.929 . S
C1648 H1642 0.930 . S
C1648 C1649 1.367 . S
C1648 C1656 1.378 . S
C1649 C1648 1.367 . S
C1649 C1657 1.433 . S
C1650 H1646 0.929 . S
C1650 C1652 1.378 . S
C1650 C1654 1.350 . S
C1651 C1654 1.463 . S
C1651 C1656 1.350 . S
C1651 N1659 1.427 . S
C1652 H1643 0.930 . S
C1652 C1650 1.378 . S
C1652 C1653 1.367 . S
C1653 C1652 1.367 . S
C1653 C1655 1.433 . S
C1654 C1650 1.350 . S
C1654 C1651 1.463 . S
C1654 N1658 1.427 . S
C1655 H1645 0.929 . S
C1655 C1653 1.433 . S
C1655 N1658 1.384 . S
C1656 H1647 0.929 . S
C1656 C1648 1.378 . S
C1656 C1651 1.350 . S
C1657 H1644 0.929 . S
C1657 C1649 1.433 . S
C1657 N1659 1.384 . S
N1658 C1654 1.427 . S
N1658 C1655 1.384 . S
N1659 C1651 1.427 . S
N1659 C1657 1.384 . S
H1660 C1666 0.930 1_565 S
H1661 C1670 0.930 . S
H1662 C1675 0.929 . S
H1663 C1673 0.929 1_565 S
H1664 C1668 0.929 . S
H1665 C1674 0.929 1_565 S
C1666 H1660 0.930 1_545 S
C1666 C1667 1.367 . S
C1666 C1674 1.378 . S
C1667 C1666 1.367 . S
C1667 C1675 1.433 . S
C1668 H1664 0.929 . S
C1668 C1670 1.378 . S
C1668 C1672 1.350 . S
C1669 C1672 1.463 . S
C1669 C1674 1.350 . S
C1669 N1677 1.427 . S
C1670 H1661 0.930 . S
C1670 C1668 1.378 . S
C1670 C1671 1.367 . S
C1671 C1670 1.367 . S
C1671 C1673 1.433 . S
C1672 C1668 1.350 . S
C1672 C1669 1.463 . S
C1672 N1676 1.427 . S
C1673 H1663 0.929 1_545 S
C1673 C1671 1.433 . S
C1673 N1676 1.384 . S
C1674 H1665 0.929 1_545 S
C1674 C1666 1.378 . S
C1674 C1669 1.350 . S
C1675 H1662 0.929 . S
C1675 C1667 1.433 . S
C1675 N1677 1.384 . S
N1676 C1672 1.427 . S
N1676 C1673 1.384 . S
N1677 C1669 1.427 . S
N1677 C1675 1.384 . S
H1678 C1684 0.930 . S
H1679 C1688 0.930 . S
H1680 C1693 0.929 . S
H1681 C1691 0.929 . S
H1682 C1686 0.929 . S
H1683 C1692 0.929 . S
C1684 H1678 0.930 . S
C1684 C1685 1.367 . S
C1684 C1692 1.378 . S
C1685 C1684 1.367 . S
C1685 C1693 1.433 . S
C1686 H1682 0.929 . S
C1686 C1688 1.378 . S
C1686 C1690 1.350 . S
C1687 C1690 1.463 . S
C1687 C1692 1.350 . S
C1687 N1695 1.427 . S
C1688 H1679 0.930 . S
C1688 C1686 1.378 . S
C1688 C1689 1.367 . S
C1689 C1688 1.367 . S
C1689 C1691 1.433 . S
C1690 C1686 1.350 . S
C1690 C1687 1.463 . S
C1690 N1694 1.427 . S
C1691 H1681 0.929 . S
C1691 C1689 1.433 . S
C1691 N1694 1.384 . S
C1692 H1683 0.929 . S
C1692 C1684 1.378 . S
C1692 C1687 1.350 . S
C1693 H1680 0.929 . S
C1693 C1685 1.433 . S
C1693 N1695 1.384 . S
N1694 C1690 1.427 . S
N1694 C1691 1.384 . S
N1695 C1687 1.427 . S
N1695 C1693 1.384 . S
H1696 C1702 0.930 . S
H1697 C1706 0.930 . S
H1698 C1711 0.929 . S
H1699 C1709 0.929 . S
H1700 C1704 0.929 . S
H1701 C1710 0.929 . S
C1702 H1696 0.930 . S
C1702 C1703 1.367 . S
C1702 C1710 1.378 . S
C1703 C1702 1.367 . S
C1703 C1711 1.433 . S
C1704 H1700 0.929 . S
C1704 C1706 1.378 . S
C1704 C1708 1.350 . S
C1705 C1708 1.463 . S
C1705 C1710 1.350 . S
C1705 N1713 1.427 . S
C1706 H1697 0.930 . S
C1706 C1704 1.378 . S
C1706 C1707 1.367 1_554 S
C1707 C1706 1.367 1_556 S
C1707 C1709 1.433 . S
C1708 C1704 1.350 . S
C1708 C1705 1.463 . S
C1708 N1712 1.427 1_554 S
C1709 H1699 0.929 . S
C1709 C1707 1.433 . S
C1709 N1712 1.384 . S
C1710 H1701 0.929 . S
C1710 C1702 1.378 . S
C1710 C1705 1.350 . S
C1711 H1698 0.929 . S
C1711 C1703 1.433 . S
C1711 N1713 1.384 . S
N1712 C1708 1.427 1_556 S
N1712 C1709 1.384 . S
N1713 C1705 1.427 . S
N1713 C1711 1.384 . S
H1714 C1720 0.930 . S
H1715 C1724 0.930 . S
H1716 C1729 0.929 . S
H1717 C1727 0.929 . S
H1718 C1722 0.929 . S
H1719 C1728 0.929 . S
C1720 H1714 0.930 . S
C1720 C1721 1.367 . S
C1720 C1728 1.378 . S
C1721 C1720 1.367 . S
C1721 C1729 1.433 . S
C1722 H1718 0.929 . S
C1722 C1724 1.378 . S
C1722 C1726 1.350 . S
C1723 C1726 1.463 . S
C1723 C1728 1.350 . S
C1723 N1731 1.427 . S
C1724 H1715 0.930 . S
C1724 C1722 1.378 . S
C1724 C1725 1.367 . S
C1725 C1724 1.367 . S
C1725 C1727 1.433 . S
C1726 C1722 1.350 . S
C1726 C1723 1.463 . S
C1726 N1730 1.427 . S
C1727 H1717 0.929 . S
C1727 C1725 1.433 . S
C1727 N1730 1.384 . S
C1728 H1719 0.929 . S
C1728 C1720 1.378 . S
C1728 C1723 1.350 . S
C1729 H1716 0.929 . S
C1729 C1721 1.433 . S
C1729 N1731 1.384 . S
N1730 C1726 1.427 . S
N1730 C1727 1.384 . S
N1731 C1723 1.427 . S
N1731 C1729 1.384 . S
H1732 C1738 0.930 . S
H1733 C1742 0.930 . S
H1734 C1747 0.929 . S
H1735 C1745 0.929 . S
H1736 C1740 0.929 . S
H1737 C1746 0.929 . S
C1738 H1732 0.930 . S
C1738 C1739 1.367 . S
C1738 C1746 1.378 . S
C1739 C1738 1.367 . S
C1739 C1747 1.433 . S
C1740 H1736 0.929 . S
C1740 C1742 1.378 . S
C1740 C1744 1.350 . S
C1741 C1744 1.463 . S
C1741 C1746 1.350 . S
C1741 N1749 1.427 . S
C1742 H1733 0.930 . S
C1742 C1740 1.378 . S
C1742 C1743 1.367 . S
C1743 C1742 1.367 . S
C1743 C1745 1.433 . S
C1744 C1740 1.350 . S
C1744 C1741 1.463 . S
C1744 N1748 1.427 . S
C1745 H1735 0.929 . S
C1745 C1743 1.433 . S
C1745 N1748 1.384 . S
C1746 H1737 0.929 . S
C1746 C1738 1.378 . S
C1746 C1741 1.350 . S
C1747 H1734 0.929 . S
C1747 C1739 1.433 . S
C1747 N1749 1.384 . S
N1748 C1744 1.427 . S
N1748 C1745 1.384 . S
N1749 C1741 1.427 . S
N1749 C1747 1.384 . S
H1750 C1756 0.930 . S
H1751 C1760 0.930 . S
H1752 C1765 0.929 . S
H1753 C1763 0.929 . S
H1754 C1758 0.929 . S
H1755 C1764 0.929 . S
C1756 H1750 0.930 . S
C1756 C1757 1.367 . S
C1756 C1764 1.378 . S
C1757 C1756 1.367 . S
C1757 C1765 1.433 . S
C1758 H1754 0.929 . S
C1758 C1760 1.378 . S
C1758 C1762 1.350 . S
C1759 C1762 1.463 . S
C1759 C1764 1.350 . S
C1759 N1767 1.427 . S
C1760 H1751 0.930 . S
C1760 C1758 1.378 . S
C1760 C1761 1.367 . S
C1761 C1760 1.367 . S
C1761 C1763 1.433 . S
C1762 C1758 1.350 . S
C1762 C1759 1.463 . S
C1762 N1766 1.427 . S
C1763 H1753 0.929 . S
C1763 C1761 1.433 . S
C1763 N1766 1.384 . S
C1764 H1755 0.929 . S
C1764 C1756 1.378 . S
C1764 C1759 1.350 . S
C1765 H1752 0.929 . S
C1765 C1757 1.433 . S
C1765 N1767 1.384 . S
N1766 C1762 1.427 . S
N1766 C1763 1.384 . S
N1767 C1759 1.427 . S
N1767 C1765 1.384 . S
H1768 C1774 0.930 . S
H1769 C1778 0.930 . S
H1770 C1783 0.929 . S
H1771 C1781 0.929 . S
H1772 C1776 0.929 . S
H1773 C1782 0.929 . S
C1774 H1768 0.930 . S
C1774 C1775 1.367 . S
C1774 C1782 1.378 . S
C1775 C1774 1.367 . S
C1775 C1783 1.433 1_565 S
C1776 H1772 0.929 . S
C1776 C1778 1.378 . S
C1776 C1780 1.350 . S
C1777 C1780 1.463 . S
C1777 C1782 1.350 . S
C1777 N1785 1.427 . S
C1778 H1769 0.930 . S
C1778 C1776 1.378 . S
C1778 C1779 1.367 . S
C1779 C1778 1.367 . S
C1779 C1781 1.433 . S
C1780 C1776 1.350 . S
C1780 C1777 1.463 . S
C1780 N1784 1.427 . S
C1781 H1771 0.929 . S
C1781 C1779 1.433 . S
C1781 N1784 1.384 . S
C1782 H1773 0.929 . S
C1782 C1774 1.378 . S
C1782 C1777 1.350 . S
C1783 H1770 0.929 . S
C1783 C1775 1.433 1_545 S
C1783 N1785 1.384 1_545 S
N1784 C1780 1.427 . S
N1784 C1781 1.384 . S
N1785 C1777 1.427 . S
N1785 C1783 1.384 1_565 S
H1786 C1792 0.930 . S
H1787 C1796 0.930 . S
H1788 C1801 0.929 . S
H1789 C1799 0.929 . S
H1790 C1794 0.929 . S
H1791 C1800 0.929 . S
C1792 H1786 0.930 . S
C1792 C1793 1.367 . S
C1792 C1800 1.378 . S
C1793 C1792 1.367 . S
C1793 C1801 1.433 . S
C1794 H1790 0.929 . S
C1794 C1796 1.378 . S
C1794 C1798 1.350 . S
C1795 C1798 1.463 . S
C1795 C1800 1.350 . S
C1795 N1803 1.427 . S
C1796 H1787 0.930 . S
C1796 C1794 1.378 . S
C1796 C1797 1.367 . S
C1797 C1796 1.367 . S
C1797 C1799 1.433 . S
C1798 C1794 1.350 . S
C1798 C1795 1.463 . S
C1798 N1802 1.427 . S
C1799 H1789 0.929 . S
C1799 C1797 1.433 . S
C1799 N1802 1.384 . S
C1800 H1791 0.929 . S
C1800 C1792 1.378 . S
C1800 C1795 1.350 . S
C1801 H1788 0.929 . S
C1801 C1793 1.433 . S
C1801 N1803 1.384 . S
N1802 C1798 1.427 . S
N1802 C1799 1.384 . S
N1803 C1795 1.427 . S
N1803 C1801 1.384 . S
H1804 C1810 0.930 . S
H1805 C1814 0.930 . S
H1806 C1819 0.929 . S
H1807 C1817 0.929 . S
H1808 C1812 0.929 . S
H1809 C1818 0.929 . S
C1810 H1804 0.930 . S
C1810 C1811 1.367 . S
C1810 C1818 1.378 . S
C1811 C1810 1.367 . S
C1811 C1819 1.433 . S
C1812 H1808 0.929 . S
C1812 C1814 1.378 . S
C1812 C1816 1.350 . S
C1813 C1816 1.463 . S
C1813 C1818 1.350 . S
C1813 N1821 1.427 . S
C1814 H1805 0.930 . S
C1814 C1812 1.378 . S
C1814 C1815 1.367 . S
C1815 C1814 1.367 . S
C1815 C1817 1.433 . S
C1816 C1812 1.350 . S
C1816 C1813 1.463 . S
C1816 N1820 1.427 . S
C1817 H1807 0.929 . S
C1817 C1815 1.433 . S
C1817 N1820 1.384 . S
C1818 H1809 0.929 . S
C1818 C1810 1.378 . S
C1818 C1813 1.350 . S
C1819 H1806 0.929 . S
C1819 C1811 1.433 . S
C1819 N1821 1.384 . S
N1820 C1816 1.427 . S
N1820 C1817 1.384 . S
N1821 C1813 1.427 . S
N1821 C1819 1.384 . S
H1822 C1828 0.930 . S
H1823 C1832 0.930 . S
H1824 C1837 0.929 . S
H1825 C1835 0.929 . S
H1826 C1830 0.929 . S
H1827 C1836 0.929 . S
C1828 H1822 0.930 . S
C1828 C1829 1.367 . S
C1828 C1836 1.378 . S
C1829 C1828 1.367 . S
C1829 C1837 1.433 . S
C1830 H1826 0.929 . S
C1830 C1832 1.378 . S
C1830 C1834 1.350 . S
C1831 C1834 1.463 . S
C1831 C1836 1.350 . S
C1831 N1839 1.427 . S
C1832 H1823 0.930 . S
C1832 C1830 1.378 . S
C1832 C1833 1.367 . S
C1833 C1832 1.367 . S
C1833 C1835 1.433 . S
C1834 C1830 1.350 . S
C1834 C1831 1.463 . S
C1834 N1838 1.427 . S
C1835 H1825 0.929 . S
C1835 C1833 1.433 . S
C1835 N1838 1.384 . S
C1836 H1827 0.929 . S
C1836 C1828 1.378 . S
C1836 C1831 1.350 . S
C1837 H1824 0.929 . S
C1837 C1829 1.433 . S
C1837 N1839 1.384 . S
N1838 C1834 1.427 . S
N1838 C1835 1.384 . S
N1839 C1831 1.427 . S
N1839 C1837 1.384 . S
H1840 C1846 0.930 . S
H1841 C1850 0.930 . S
H1842 C1855 0.929 . S
H1843 C1853 0.929 . S
H1844 C1848 0.929 . S
H1845 C1854 0.929 . S
C1846 H1840 0.930 . S
C1846 C1847 1.367 . S
C1846 C1854 1.378 . S
C1847 C1846 1.367 . S
C1847 C1855 1.433 . S
C1848 H1844 0.929 . S
C1848 C1850 1.378 . S
C1848 C1852 1.350 . S
C1849 C1852 1.463 . S
C1849 C1854 1.350 . S
C1849 N1857 1.427 . S
C1850 H1841 0.930 . S
C1850 C1848 1.378 . S
C1850 C1851 1.367 . S
C1851 C1850 1.367 . S
C1851 C1853 1.433 . S
C1852 C1848 1.350 . S
C1852 C1849 1.463 . S
C1852 N1856 1.427 . S
C1853 H1843 0.929 . S
C1853 C1851 1.433 . S
C1853 N1856 1.384 . S
C1854 H1845 0.929 . S
C1854 C1846 1.378 . S
C1854 C1849 1.350 . S
C1855 H1842 0.929 . S
C1855 C1847 1.433 . S
C1855 N1857 1.384 . S
N1856 C1852 1.427 . S
N1856 C1853 1.384 . S
N1857 C1849 1.427 . S
N1857 C1855 1.384 . S
H1858 C1864 0.930 . S
H1859 C1868 0.930 . S
H1860 C1873 0.929 . S
H1861 C1871 0.929 . S
H1862 C1866 0.929 . S
H1863 C1872 0.929 . S
C1864 H1858 0.930 . S
C1864 C1865 1.367 . S
C1864 C1872 1.378 . S
C1865 C1864 1.367 . S
C1865 C1873 1.433 . S
C1866 H1862 0.929 . S
C1866 C1868 1.378 . S
C1866 C1870 1.350 . S
C1867 C1870 1.463 . S
C1867 C1872 1.350 . S
C1867 N1875 1.427 . S
C1868 H1859 0.930 . S
C1868 C1866 1.378 . S
C1868 C1869 1.367 . S
C1869 C1868 1.367 . S
C1869 C1871 1.433 . S
C1870 C1866 1.350 . S
C1870 C1867 1.463 . S
C1870 N1874 1.427 . S
C1871 H1861 0.929 . S
C1871 C1869 1.433 . S
C1871 N1874 1.384 . S
C1872 H1863 0.929 . S
C1872 C1864 1.378 . S
C1872 C1867 1.350 . S
C1873 H1860 0.929 . S
C1873 C1865 1.433 . S
C1873 N1875 1.384 . S
N1874 C1870 1.427 . S
N1874 C1871 1.384 . S
N1875 C1867 1.427 . S
N1875 C1873 1.384 . S
H1876 C1882 0.930 . S
H1877 C1886 0.930 1_655 S
H1878 C1891 0.929 . S
H1879 C1889 0.929 . S
H1880 C1884 0.929 1_655 S
H1881 C1890 0.929 . S
C1882 H1876 0.930 . S
C1882 C1883 1.367 . S
C1882 C1890 1.378 . S
C1883 C1882 1.367 . S
C1883 C1891 1.433 1_455 S
C1884 H1880 0.929 1_455 S
C1884 C1886 1.378 1_556 S
C1884 C1888 1.350 . S
C1885 C1888 1.463 . S
C1885 C1890 1.350 . S
C1885 N1893 1.427 1_455 S
C1886 H1877 0.930 1_455 S
C1886 C1884 1.378 1_554 S
C1886 C1887 1.367 . S
C1887 C1886 1.367 . S
C1887 C1889 1.433 . S
C1888 C1884 1.350 . S
C1888 C1885 1.463 . S
C1888 N1892 1.427 . S
C1889 H1879 0.929 . S
C1889 C1887 1.433 . S
C1889 N1892 1.384 1_554 S
C1890 H1881 0.929 . S
C1890 C1882 1.378 . S
C1890 C1885 1.350 . S
C1891 H1878 0.929 . S
C1891 C1883 1.433 1_655 S
C1891 N1893 1.384 . S
N1892 C1888 1.427 . S
N1892 C1889 1.384 1_556 S
N1893 C1885 1.427 1_655 S
N1893 C1891 1.384 . S
H1894 C1900 0.930 . S
H1895 C1904 0.930 . S
H1896 C1909 0.929 . S
H1897 C1907 0.929 . S
H1898 C1902 0.929 . S
H1899 C1908 0.929 . S
C1900 H1894 0.930 . S
C1900 C1901 1.367 . S
C1900 C1908 1.378 . S
C1901 C1900 1.367 . S
C1901 C1909 1.433 . S
C1902 H1898 0.929 . S
C1902 C1904 1.378 . S
C1902 C1906 1.350 . S
C1903 C1906 1.463 . S
C1903 C1908 1.350 1_655 S
C1903 N1911 1.427 . S
C1904 H1895 0.930 . S
C1904 C1902 1.378 . S
C1904 C1905 1.367 . S
C1905 C1904 1.367 . S
C1905 C1907 1.433 . S
C1906 C1902 1.350 . S
C1906 C1903 1.463 . S
C1906 N1910 1.427 . S
C1907 H1897 0.929 . S
C1907 C1905 1.433 . S
C1907 N1910 1.384 . S
C1908 H1899 0.929 . S
C1908 C1900 1.378 . S
C1908 C1903 1.350 1_455 S
C1909 H1896 0.929 . S
C1909 C1901 1.433 . S
C1909 N1911 1.384 1_455 S
N1910 C1906 1.427 . S
N1910 C1907 1.384 . S
N1911 C1903 1.427 . S
N1911 C1909 1.384 1_655 S
H1912 C1918 0.930 . S
H1913 C1922 0.930 . S
H1914 C1927 0.929 . S
H1915 C1925 0.929 . S
H1916 C1920 0.929 . S
H1917 C1926 0.929 . S
C1918 H1912 0.930 . S
C1918 C1919 1.367 . S
C1918 C1926 1.378 . S
C1919 C1918 1.367 . S
C1919 C1927 1.433 . S
C1920 H1916 0.929 . S
C1920 C1922 1.378 . S
C1920 C1924 1.350 . S
C1921 C1924 1.463 . S
C1921 C1926 1.350 . S
C1921 N1929 1.427 . S
C1922 H1913 0.930 . S
C1922 C1920 1.378 . S
C1922 C1923 1.367 . S
C1923 C1922 1.367 . S
C1923 C1925 1.433 . S
C1924 C1920 1.350 . S
C1924 C1921 1.463 . S
C1924 N1928 1.427 . S
C1925 H1915 0.929 . S
C1925 C1923 1.433 . S
C1925 N1928 1.384 . S
C1926 H1917 0.929 . S
C1926 C1918 1.378 . S
C1926 C1921 1.350 . S
C1927 H1914 0.929 . S
C1927 C1919 1.433 . S
C1927 N1929 1.384 . S
N1928 C1924 1.427 . S
N1928 C1925 1.384 . S
N1929 C1921 1.427 . S
N1929 C1927 1.384 . S
H1930 C1936 0.930 . S
H1931 C1940 0.930 . S
H1932 C1945 0.929 . S
H1933 C1943 0.929 . S
H1934 C1938 0.929 . S
H1935 C1944 0.929 . S
C1936 H1930 0.930 . S
C1936 C1937 1.367 . S
C1936 C1944 1.378 . S
C1937 C1936 1.367 . S
C1937 C1945 1.433 . S
C1938 H1934 0.929 . S
C1938 C1940 1.378 . S
C1938 C1942 1.350 . S
C1939 C1942 1.463 . S
C1939 C1944 1.350 . S
C1939 N1947 1.427 . S
C1940 H1931 0.930 . S
C1940 C1938 1.378 . S
C1940 C1941 1.367 . S
C1941 C1940 1.367 . S
C1941 C1943 1.433 . S
C1942 C1938 1.350 . S
C1942 C1939 1.463 . S
C1942 N1946 1.427 . S
C1943 H1933 0.929 . S
C1943 C1941 1.433 . S
C1943 N1946 1.384 . S
C1944 H1935 0.929 . S
C1944 C1936 1.378 . S
C1944 C1939 1.350 . S
C1945 H1932 0.929 . S
C1945 C1937 1.433 . S
C1945 N1947 1.384 . S
N1946 C1942 1.427 . S
N1946 C1943 1.384 . S
N1947 C1939 1.427 . S
N1947 C1945 1.384 . S
H1948 C1954 0.930 . S
H1949 C1958 0.930 . S
H1950 C1963 0.929 . S
H1951 C1961 0.929 . S
H1952 C1956 0.929 . S
H1953 C1962 0.929 . S
C1954 H1948 0.930 . S
C1954 C1955 1.367 . S
C1954 C1962 1.378 . S
C1955 C1954 1.367 . S
C1955 C1963 1.433 . S
C1956 H1952 0.929 . S
C1956 C1958 1.378 . S
C1956 C1960 1.350 . S
C1957 C1960 1.463 . S
C1957 C1962 1.350 . S
C1957 N1965 1.427 . S
C1958 H1949 0.930 . S
C1958 C1956 1.378 . S
C1958 C1959 1.367 . S
C1959 C1958 1.367 . S
C1959 C1961 1.433 . S
C1960 C1956 1.350 . S
C1960 C1957 1.463 . S
C1960 N1964 1.427 . S
C1961 H1951 0.929 . S
C1961 C1959 1.433 . S
C1961 N1964 1.384 . S
C1962 H1953 0.929 . S
C1962 C1954 1.378 . S
C1962 C1957 1.350 . S
C1963 H1950 0.929 . S
C1963 C1955 1.433 . S
C1963 N1965 1.384 . S
N1964 C1960 1.427 . S
N1964 C1961 1.384 . S
N1965 C1957 1.427 . S
N1965 C1963 1.384 . S
H1966 C1972 0.930 . S
H1967 C1976 0.930 . S
H1968 C1981 0.929 . S
H1969 C1979 0.929 . S
H1970 C1974 0.929 . S
H1971 C1980 0.929 . S
C1972 H1966 0.930 . S
C1972 C1973 1.367 . S
C1972 C1980 1.378 . S
C1973 C1972 1.367 . S
C1973 C1981 1.433 . S
C1974 H1970 0.929 . S
C1974 C1976 1.378 . S
C1974 C1978 1.350 . S
C1975 C1978 1.463 . S
C1975 C1980 1.350 . S
C1975 N1983 1.427 . S
C1976 H1967 0.930 . S
C1976 C1974 1.378 . S
C1976 C1977 1.367 . S
C1977 C1976 1.367 . S
C1977 C1979 1.433 . S
C1978 C1974 1.350 . S
C1978 C1975 1.463 . S
C1978 N1982 1.427 . S
C1979 H1969 0.929 . S
C1979 C1977 1.433 . S
C1979 N1982 1.384 . S
C1980 H1971 0.929 . S
C1980 C1972 1.378 . S
C1980 C1975 1.350 . S
C1981 H1968 0.929 . S
C1981 C1973 1.433 . S
C1981 N1983 1.384 . S
N1982 C1978 1.427 . S
N1982 C1979 1.384 . S
N1983 C1975 1.427 . S
N1983 C1981 1.384 . S
H1984 C1990 0.930 . S
H1985 C1994 0.930 . S
H1986 C1999 0.929 . S
H1987 C1997 0.929 . S
H1988 C1992 0.929 . S
H1989 C1998 0.929 . S
C1990 H1984 0.930 . S
C1990 C1991 1.367 . S
C1990 C1998 1.378 . S
C1991 C1990 1.367 . S
C1991 C1999 1.433 . S
C1992 H1988 0.929 . S
C1992 C1994 1.378 . S
C1992 C1996 1.350 . S
C1993 C1996 1.463 . S
C1993 C1998 1.350 . S
C1993 N2001 1.427 . S
C1994 H1985 0.930 . S
C1994 C1992 1.378 . S
C1994 C1995 1.367 . S
C1995 C1994 1.367 . S
C1995 C1997 1.433 . S
C1996 C1992 1.350 . S
C1996 C1993 1.463 . S
C1996 N2000 1.427 . S
C1997 H1987 0.929 . S
C1997 C1995 1.433 . S
C1997 N2000 1.384 . S
C1998 H1989 0.929 . S
C1998 C1990 1.378 . S
C1998 C1993 1.350 . S
C1999 H1986 0.929 . S
C1999 C1991 1.433 . S
C1999 N2001 1.384 . S
N2000 C1996 1.427 . S
N2000 C1997 1.384 . S
N2001 C1993 1.427 . S
N2001 C1999 1.384 . S
H2002 C2008 0.930 . S
H2003 C2012 0.930 . S
H2004 C2017 0.938 . S
H2005 C2015 0.929 . S
H2006 C2010 0.929 . S
H2007 C2016 0.929 . S
C2008 H2002 0.930 . S
C2008 C2009 1.367 . S
C2008 C2016 1.378 1_554 S
C2009 C2008 1.367 . S
C2009 C2017 1.433 1_554 S
C2010 H2006 0.929 . S
C2010 C2012 1.378 . S
C2010 C2014 1.350 . S
C2011 C2014 1.463 . S
C2011 C2016 1.350 . S
C2011 N2019 1.427 . S
C2012 H2003 0.930 . S
C2012 C2010 1.378 . S
C2012 C2013 1.367 . S
C2013 C2012 1.367 . S
C2013 C2015 1.433 . S
C2014 C2010 1.350 . S
C2014 C2011 1.463 . S
C2014 N2018 1.427 . S
C2015 H2005 0.929 . S
C2015 C2013 1.433 . S
C2015 N2018 1.384 . S
C2016 H2007 0.929 . S
C2016 C2008 1.378 1_556 S
C2016 C2011 1.350 . S
C2017 H2004 0.938 . S
C2017 C2009 1.433 1_556 S
C2017 N2019 1.384 . S
N2018 C2014 1.427 . S
N2018 C2015 1.384 . S
N2019 C2011 1.427 . S
N2019 C2017 1.384 . S
H2020 C2026 0.930 . S
H2021 C2030 0.930 . S
H2022 C2035 0.929 . S
H2023 C2033 0.929 . S
H2024 C2028 0.929 . S
H2025 C2034 0.929 . S
C2026 H2020 0.930 . S
C2026 C2027 1.367 . S
C2026 C2034 1.378 . S
C2027 C2026 1.367 . S
C2027 C2035 1.433 . S
C2028 H2024 0.929 . S
C2028 C2030 1.378 . S
C2028 C2032 1.350 . S
C2029 C2032 1.463 . S
C2029 C2034 1.350 . S
C2029 N2037 1.427 . S
C2030 H2021 0.930 . S
C2030 C2028 1.378 . S
C2030 C2031 1.367 . S
C2031 C2030 1.367 . S
C2031 C2033 1.433 . S
C2032 C2028 1.350 . S
C2032 C2029 1.463 . S
C2032 N2036 1.427 . S
C2033 H2023 0.929 . S
C2033 C2031 1.433 . S
C2033 N2036 1.384 . S
C2034 H2025 0.929 . S
C2034 C2026 1.378 . S
C2034 C2029 1.350 . S
C2035 H2022 0.929 . S
C2035 C2027 1.433 . S
C2035 N2037 1.384 . S
N2036 C2032 1.427 . S
N2036 C2033 1.384 . S
N2037 C2029 1.427 . S
N2037 C2035 1.384 . S
H2038 C2044 0.930 . S
H2039 C2048 0.930 . S
H2040 C2053 0.929 . S
H2041 C2051 0.929 . S
H2042 C2046 0.929 . S
H2043 C2052 0.929 . S
C2044 H2038 0.930 . S
C2044 C2045 1.367 . S
C2044 C2052 1.378 . S
C2045 C2044 1.367 . S
C2045 C2053 1.433 . S
C2046 H2042 0.929 . S
C2046 C2048 1.378 . S
C2046 C2050 1.350 . S
C2047 C2050 1.463 . S
C2047 C2052 1.350 . S
C2047 N2055 1.427 . S
C2048 H2039 0.930 . S
C2048 C2046 1.378 . S
C2048 C2049 1.367 . S
C2049 C2048 1.367 . S
C2049 C2051 1.433 . S
C2050 C2046 1.350 . S
C2050 C2047 1.463 . S
C2050 N2054 1.427 . S
C2051 H2041 0.929 . S
C2051 C2049 1.433 . S
C2051 N2054 1.384 . S
C2052 H2043 0.929 . S
C2052 C2044 1.378 . S
C2052 C2047 1.350 . S
C2053 H2040 0.929 . S
C2053 C2045 1.433 . S
C2053 N2055 1.384 . S
N2054 C2050 1.427 . S
N2054 C2051 1.384 . S
N2055 C2047 1.427 . S
N2055 C2053 1.384 . S
H2056 C2062 0.930 . S
H2057 C2066 0.930 . S
H2058 C2071 0.929 . S
H2059 C2069 0.929 . S
H2060 C2064 0.929 . S
H2061 C2070 0.929 . S
C2062 H2056 0.930 . S
C2062 C2063 1.367 . S
C2062 C2070 1.378 . S
C2063 C2062 1.367 . S
C2063 C2071 1.433 . S
C2064 H2060 0.929 . S
C2064 C2066 1.378 . S
C2064 C2068 1.350 . S
C2065 C2068 1.463 . S
C2065 C2070 1.350 . S
C2065 N2073 1.427 . S
C2066 H2057 0.930 . S
C2066 C2064 1.378 . S
C2066 C2067 1.367 . S
C2067 C2066 1.367 . S
C2067 C2069 1.433 . S
C2068 C2064 1.350 . S
C2068 C2065 1.463 . S
C2068 N2072 1.427 . S
C2069 H2059 0.929 . S
C2069 C2067 1.433 . S
C2069 N2072 1.384 . S
C2070 H2061 0.929 . S
C2070 C2062 1.378 . S
C2070 C2065 1.350 . S
C2071 H2058 0.929 . S
C2071 C2063 1.433 . S
C2071 N2073 1.384 . S
N2072 C2068 1.427 . S
N2072 C2069 1.384 . S
N2073 C2065 1.427 . S
N2073 C2071 1.384 . S
H2074 C2080 0.930 . S
H2075 C2084 0.930 . S
H2076 C2089 0.929 . S
H2077 C2087 0.929 . S
H2078 C2082 0.929 . S
H2079 C2088 0.929 . S
C2080 H2074 0.930 . S
C2080 C2081 1.367 . S
C2080 C2088 1.378 . S
C2081 C2080 1.367 . S
C2081 C2089 1.433 . S
C2082 H2078 0.929 . S
C2082 C2084 1.378 . S
C2082 C2086 1.350 . S
C2083 C2086 1.463 . S
C2083 C2088 1.350 . S
C2083 N2091 1.427 . S
C2084 H2075 0.930 . S
C2084 C2082 1.378 . S
C2084 C2085 1.367 . S
C2085 C2084 1.367 . S
C2085 C2087 1.433 . S
C2086 C2082 1.350 . S
C2086 C2083 1.463 . S
C2086 N2090 1.427 . S
C2087 H2077 0.929 . S
C2087 C2085 1.433 . S
C2087 N2090 1.384 . S
C2088 H2079 0.929 . S
C2088 C2080 1.378 . S
C2088 C2083 1.350 . S
C2089 H2076 0.929 . S
C2089 C2081 1.433 . S
C2089 N2091 1.384 . S
N2090 C2086 1.427 . S
N2090 C2087 1.384 . S
N2091 C2083 1.427 . S
N2091 C2089 1.384 . S
H2092 C2098 0.930 . S
H2093 C2102 0.930 . S
H2094 C2107 0.929 . S
H2095 C2105 0.929 . S
H2096 C2100 0.929 . S
H2097 C2106 0.929 . S
C2098 H2092 0.930 . S
C2098 C2099 1.367 . S
C2098 C2106 1.378 . S
C2099 C2098 1.367 . S
C2099 C2107 1.433 . S
C2100 H2096 0.929 . S
C2100 C2102 1.378 . S
C2100 C2104 1.350 . S
C2101 C2104 1.463 . S
C2101 C2106 1.350 . S
C2101 N2109 1.427 . S
C2102 H2093 0.930 . S
C2102 C2100 1.378 . S
C2102 C2103 1.367 . S
C2103 C2102 1.367 . S
C2103 C2105 1.433 . S
C2104 C2100 1.350 . S
C2104 C2101 1.463 . S
C2104 N2108 1.427 . S
C2105 H2095 0.929 . S
C2105 C2103 1.433 . S
C2105 N2108 1.384 . S
C2106 H2097 0.929 . S
C2106 C2098 1.378 . S
C2106 C2101 1.350 . S
C2107 H2094 0.929 . S
C2107 C2099 1.433 . S
C2107 N2109 1.384 . S
N2108 C2104 1.427 . S
N2108 C2105 1.384 . S
N2109 C2101 1.427 . S
N2109 C2107 1.384 . S
H2110 C2116 0.930 . S
H2111 C2120 0.930 . S
H2112 C2125 0.929 . S
H2113 C2123 0.929 . S
H2114 C2118 0.929 . S
H2115 C2124 0.929 . S
C2116 H2110 0.930 . S
C2116 C2117 1.367 . S
C2116 C2124 1.378 . S
C2117 C2116 1.367 . S
C2117 C2125 1.433 . S
C2118 H2114 0.929 . S
C2118 C2120 1.378 . S
C2118 C2122 1.350 . S
C2119 C2122 1.463 . S
C2119 C2124 1.350 . S
C2119 N2127 1.427 . S
C2120 H2111 0.930 . S
C2120 C2118 1.378 . S
C2120 C2121 1.367 . S
C2121 C2120 1.367 . S
C2121 C2123 1.433 . S
C2122 C2118 1.350 . S
C2122 C2119 1.463 . S
C2122 N2126 1.427 . S
C2123 H2113 0.929 . S
C2123 C2121 1.433 . S
C2123 N2126 1.384 . S
C2124 H2115 0.929 . S
C2124 C2116 1.378 . S
C2124 C2119 1.350 . S
C2125 H2112 0.929 . S
C2125 C2117 1.433 . S
C2125 N2127 1.384 . S
N2126 C2122 1.427 . S
N2126 C2123 1.384 . S
N2127 C2119 1.427 . S
N2127 C2125 1.384 . S
H2128 C2134 0.930 . S
H2129 C2138 0.930 . S
H2130 C2143 0.929 . S
H2131 C2141 0.929 . S
H2132 C2136 0.929 . S
H2133 C2142 0.929 . S
C2134 H2128 0.930 . S
C2134 C2135 1.367 . S
C2134 C2142 1.378 . S
C2135 C2134 1.367 . S
C2135 C2143 1.433 . S
C2136 H2132 0.929 . S
C2136 C2138 1.378 . S
C2136 C2140 1.350 . S
C2137 C2140 1.463 . S
C2137 C2142 1.350 . S
C2137 N2145 1.427 . S
C2138 H2129 0.930 . S
C2138 C2136 1.378 . S
C2138 C2139 1.367 . S
C2139 C2138 1.367 . S
C2139 C2141 1.433 . S
C2140 C2136 1.350 . S
C2140 C2137 1.463 . S
C2140 N2144 1.427 . S
C2141 H2131 0.929 . S
C2141 C2139 1.433 . S
C2141 N2144 1.384 . S
C2142 H2133 0.929 . S
C2142 C2134 1.378 . S
C2142 C2137 1.350 . S
C2143 H2130 0.929 . S
C2143 C2135 1.433 . S
C2143 N2145 1.384 . S
N2144 C2140 1.427 . S
N2144 C2141 1.384 . S
N2145 C2137 1.427 . S
N2145 C2143 1.384 . S
H2146 C2152 0.930 . S
H2147 C2156 0.930 . S
H2148 C2161 0.929 . S
H2149 C2159 0.929 . S
H2150 C2154 0.929 . S
H2151 C2160 0.929 . S
C2152 H2146 0.930 . S
C2152 C2153 1.367 . S
C2152 C2160 1.378 . S
C2153 C2152 1.367 . S
C2153 C2161 1.433 . S
C2154 H2150 0.929 . S
C2154 C2156 1.378 . S
C2154 C2158 1.350 . S
C2155 C2158 1.463 . S
C2155 C2160 1.350 . S
C2155 N2163 1.427 . S
C2156 H2147 0.930 . S
C2156 C2154 1.378 . S
C2156 C2157 1.367 . S
C2157 C2156 1.367 . S
C2157 C2159 1.433 . S
C2158 C2154 1.350 . S
C2158 C2155 1.463 . S
C2158 N2162 1.427 . S
C2159 H2149 0.929 . S
C2159 C2157 1.433 . S
C2159 N2162 1.384 . S
C2160 H2151 0.929 . S
C2160 C2152 1.378 . S
C2160 C2155 1.350 . S
C2161 H2148 0.929 . S
C2161 C2153 1.433 . S
C2161 N2163 1.384 . S
N2162 C2158 1.427 . S
N2162 C2159 1.384 . S
N2163 C2155 1.427 . S
N2163 C2161 1.384 . S
H2164 C2170 0.934 . S
H2165 C2174 0.930 . S
H2166 C2179 0.929 . S
H2167 C2177 0.929 . S
H2168 C2172 0.929 . S
H2169 C2178 0.929 . S
C2170 H2164 0.934 . S
C2170 C2171 1.332 1_565 S
C2170 C2178 1.410 . S
C2171 C2170 1.332 1_545 S
C2171 C2179 1.433 . S
C2172 H2168 0.929 . S
C2172 C2174 1.378 . S
C2172 C2176 1.350 . S
C2173 C2176 1.463 . S
C2173 C2178 1.350 . S
C2173 N2181 1.427 . S
C2174 H2165 0.930 . S
C2174 C2172 1.378 . S
C2174 C2175 1.367 . S
C2175 C2174 1.367 . S
C2175 C2177 1.433 . S
C2176 C2172 1.350 . S
C2176 C2173 1.463 . S
C2176 N2180 1.427 . S
C2177 H2167 0.929 . S
C2177 C2175 1.433 . S
C2177 N2180 1.384 . S
C2178 H2169 0.929 . S
C2178 C2170 1.410 . S
C2178 C2173 1.350 . S
C2179 H2166 0.929 . S
C2179 C2171 1.433 . S
C2179 N2181 1.384 1_545 S
N2180 C2176 1.427 . S
N2180 C2177 1.384 . S
N2181 C2173 1.427 . S
N2181 C2179 1.384 1_565 S
H2182 C2188 0.930 . S
H2183 C2192 0.930 . S
H2184 C2197 0.929 . S
H2185 C2195 0.929 1_556 S
H2186 C2190 0.929 . S
H2187 C2196 0.929 . S
C2188 H2182 0.930 . S
C2188 C2189 1.350 1_556 S
C2188 C2196 1.378 . S
C2189 C2188 1.350 1_554 S
C2189 C2197 1.452 . S
C2190 H2186 0.929 . S
C2190 C2192 1.378 . S
C2190 C2194 1.350 1_545 S
C2191 C2194 1.463 . S
C2191 C2196 1.350 1_554 S
C2191 N2199 1.427 . S
C2192 H2183 0.930 . S
C2192 C2190 1.378 . S
C2192 C2193 1.367 . S
C2193 C2192 1.367 . S
C2193 C2195 1.433 1_545 S
C2194 C2190 1.350 1_565 S
C2194 C2191 1.463 . S
C2194 N2198 1.427 1_554 S
C2195 H2185 0.929 1_554 S
C2195 C2193 1.433 1_565 S
C2195 N2198 1.384 1_554 S
C2196 H2187 0.929 . S
C2196 C2188 1.378 . S
C2196 C2191 1.350 1_556 S
C2197 H2184 0.929 . S
C2197 C2189 1.452 . S
C2197 N2199 1.384 . S
N2198 C2194 1.427 1_556 S
N2198 C2195 1.384 1_556 S
N2199 C2191 1.427 . S
N2199 C2197 1.384 . S
H2200 C2206 0.930 . S
H2201 C2210 0.930 . S
H2202 C2215 0.929 . S
H2203 C2213 0.929 . S
H2204 C2208 0.929 . S
H2205 C2214 0.929 . S
C2206 H2200 0.930 . S
C2206 C2207 1.367 . S
C2206 C2214 1.378 . S
C2207 C2206 1.367 . S
C2207 C2215 1.433 . S
C2208 H2204 0.929 . S
C2208 C2210 1.378 . S
C2208 C2212 1.350 . S
C2209 C2212 1.463 . S
C2209 C2214 1.350 . S
C2209 N2217 1.427 . S
C2210 H2201 0.930 . S
C2210 C2208 1.378 . S
C2210 C2211 1.367 . S
C2211 C2210 1.367 . S
C2211 C2213 1.433 . S
C2212 C2208 1.350 . S
C2212 C2209 1.463 . S
C2212 N2216 1.427 . S
C2213 H2203 0.929 . S
C2213 C2211 1.433 . S
C2213 N2216 1.384 . S
C2214 H2205 0.929 . S
C2214 C2206 1.378 . S
C2214 C2209 1.350 . S
C2215 H2202 0.929 . S
C2215 C2207 1.433 . S
C2215 N2217 1.384 . S
N2216 C2212 1.427 . S
N2216 C2213 1.384 . S
N2217 C2209 1.427 . S
N2217 C2215 1.384 . S
H2218 C2224 0.930 . S
H2219 C2228 0.930 . S
H2220 C2233 0.929 . S
H2221 C2231 0.929 . S
H2222 C2226 0.929 . S
H2223 C2232 0.929 . S
C2224 H2218 0.930 . S
C2224 C2225 1.367 . S
C2224 C2232 1.378 . S
C2225 C2224 1.367 . S
C2225 C2233 1.433 . S
C2226 H2222 0.929 . S
C2226 C2228 1.378 . S
C2226 C2230 1.350 . S
C2227 C2230 1.463 . S
C2227 C2232 1.350 . S
C2227 N2235 1.427 . S
C2228 H2219 0.930 . S
C2228 C2226 1.378 . S
C2228 C2229 1.367 . S
C2229 C2228 1.367 . S
C2229 C2231 1.433 . S
C2230 C2226 1.350 . S
C2230 C2227 1.463 . S
C2230 N2234 1.427 . S
C2231 H2221 0.929 . S
C2231 C2229 1.433 . S
C2231 N2234 1.384 . S
C2232 H2223 0.929 . S
C2232 C2224 1.378 . S
C2232 C2227 1.350 . S
C2233 H2220 0.929 . S
C2233 C2225 1.433 . S
C2233 N2235 1.384 . S
N2234 C2230 1.427 . S
N2234 C2231 1.384 . S
N2235 C2227 1.427 . S
N2235 C2233 1.384 . S
H2236 C2242 0.930 . S
H2237 C2246 0.930 . S
H2238 C2251 0.929 . S
H2239 C2249 0.929 . S
H2240 C2244 0.929 . S
H2241 C2250 0.929 . S
C2242 H2236 0.930 . S
C2242 C2243 1.367 . S
C2242 C2250 1.378 . S
C2243 C2242 1.367 . S
C2243 C2251 1.433 . S
C2244 H2240 0.929 . S
C2244 C2246 1.378 . S
C2244 C2248 1.350 . S
C2245 C2248 1.463 . S
C2245 C2250 1.350 . S
C2245 N2253 1.427 . S
C2246 H2237 0.930 . S
C2246 C2244 1.378 . S
C2246 C2247 1.367 . S
C2247 C2246 1.367 . S
C2247 C2249 1.433 . S
C2248 C2244 1.350 . S
C2248 C2245 1.463 . S
C2248 N2252 1.427 . S
C2249 H2239 0.929 . S
C2249 C2247 1.433 . S
C2249 N2252 1.384 . S
C2250 H2241 0.929 . S
C2250 C2242 1.378 . S
C2250 C2245 1.350 . S
C2251 H2238 0.929 . S
C2251 C2243 1.433 . S
C2251 N2253 1.384 . S
N2252 C2248 1.427 . S
N2252 C2249 1.384 . S
N2253 C2245 1.427 . S
N2253 C2251 1.384 . S
H2254 C2260 0.930 . S
H2255 C2264 0.930 . S
H2256 C2269 0.929 . S
H2257 C2267 0.929 . S
H2258 C2262 0.929 . S
H2259 C2268 0.929 . S
C2260 H2254 0.930 . S
C2260 C2261 1.367 . S
C2260 C2268 1.378 . S
C2261 C2260 1.367 . S
C2261 C2269 1.433 . S
C2262 H2258 0.929 . S
C2262 C2264 1.378 . S
C2262 C2266 1.350 . S
C2263 C2266 1.463 . S
C2263 C2268 1.350 . S
C2263 N2271 1.427 . S
C2264 H2255 0.930 . S
C2264 C2262 1.378 . S
C2264 C2265 1.367 . S
C2265 C2264 1.367 . S
C2265 C2267 1.433 . S
C2266 C2262 1.350 . S
C2266 C2263 1.463 . S
C2266 N2270 1.427 . S
C2267 H2257 0.929 . S
C2267 C2265 1.433 . S
C2267 N2270 1.384 . S
C2268 H2259 0.929 . S
C2268 C2260 1.378 . S
C2268 C2263 1.350 . S
C2269 H2256 0.929 . S
C2269 C2261 1.433 . S
C2269 N2271 1.384 . S
N2270 C2266 1.427 . S
N2270 C2267 1.384 . S
N2271 C2263 1.427 . S
N2271 C2269 1.384 . S
H2272 C2278 0.930 . S
H2273 C2282 0.930 . S
H2274 C2287 0.929 . S
H2275 C2285 0.929 . S
H2276 C2280 0.929 . S
H2277 C2286 0.929 . S
C2278 H2272 0.930 . S
C2278 C2279 1.367 . S
C2278 C2286 1.378 . S
C2279 C2278 1.367 . S
C2279 C2287 1.433 . S
C2280 H2276 0.929 . S
C2280 C2282 1.378 . S
C2280 C2284 1.350 . S
C2281 C2284 1.463 . S
C2281 C2286 1.350 . S
C2281 N2289 1.427 . S
C2282 H2273 0.930 . S
C2282 C2280 1.378 . S
C2282 C2283 1.367 . S
C2283 C2282 1.367 . S
C2283 C2285 1.433 . S
C2284 C2280 1.350 . S
C2284 C2281 1.463 . S
C2284 N2288 1.427 . S
C2285 H2275 0.929 . S
C2285 C2283 1.433 . S
C2285 N2288 1.384 . S
C2286 H2277 0.929 . S
C2286 C2278 1.378 . S
C2286 C2281 1.350 . S
C2287 H2274 0.929 . S
C2287 C2279 1.433 . S
C2287 N2289 1.384 . S
N2288 C2284 1.427 . S
N2288 C2285 1.384 . S
N2289 C2281 1.427 . S
N2289 C2287 1.384 . S
H2290 C2296 0.930 . S
H2291 C2300 0.930 . S
H2292 C2305 0.929 . S
H2293 C2303 0.929 . S
H2294 C2298 0.929 . S
H2295 C2304 0.929 . S
C2296 H2290 0.930 . S
C2296 C2297 1.367 . S
C2296 C2304 1.378 . S
C2297 C2296 1.367 . S
C2297 C2305 1.433 . S
C2298 H2294 0.929 . S
C2298 C2300 1.378 . S
C2298 C2302 1.350 . S
C2299 C2302 1.463 . S
C2299 C2304 1.350 . S
C2299 N2307 1.427 . S
C2300 H2291 0.930 . S
C2300 C2298 1.378 . S
C2300 C2301 1.367 . S
C2301 C2300 1.367 . S
C2301 C2303 1.433 . S
C2302 C2298 1.350 . S
C2302 C2299 1.463 . S
C2302 N2306 1.427 . S
C2303 H2293 0.929 . S
C2303 C2301 1.433 . S
C2303 N2306 1.384 . S
C2304 H2295 0.929 . S
C2304 C2296 1.378 . S
C2304 C2299 1.350 . S
C2305 H2292 0.929 . S
C2305 C2297 1.433 . S
C2305 N2307 1.384 . S
N2306 C2302 1.427 . S
N2306 C2303 1.384 . S
N2307 C2299 1.427 . S
N2307 C2305 1.384 . S
H2308 C2314 0.930 . S
H2309 C2318 0.930 . S
H2310 C2323 0.929 . S
H2311 C2321 0.929 . S
H2312 C2316 0.929 . S
H2313 C2322 0.929 . S
C2314 H2308 0.930 . S
C2314 C2315 1.367 . S
C2314 C2322 1.378 . S
C2315 C2314 1.367 . S
C2315 C2323 1.433 . S
C2316 H2312 0.929 . S
C2316 C2318 1.378 . S
C2316 C2320 1.350 . S
C2317 C2320 1.463 . S
C2317 C2322 1.350 . S
C2317 N2325 1.427 . S
C2318 H2309 0.930 . S
C2318 C2316 1.378 . S
C2318 C2319 1.367 . S
C2319 C2318 1.367 . S
C2319 C2321 1.433 . S
C2320 C2316 1.350 . S
C2320 C2317 1.463 . S
C2320 N2324 1.427 . S
C2321 H2311 0.929 . S
C2321 C2319 1.433 . S
C2321 N2324 1.384 . S
C2322 H2313 0.929 . S
C2322 C2314 1.378 . S
C2322 C2317 1.350 . S
C2323 H2310 0.929 . S
C2323 C2315 1.433 . S
C2323 N2325 1.384 . S
N2324 C2320 1.427 . S
N2324 C2321 1.384 . S
N2325 C2317 1.427 . S
N2325 C2323 1.384 . S
H2326 C2332 0.930 . S
H2327 C2336 0.930 . S
H2328 C2341 0.929 . S
H2329 C2339 0.929 . S
H2330 C2334 0.929 . S
H2331 C2340 0.929 . S
C2332 H2326 0.930 . S
C2332 C2333 1.367 . S
C2332 C2340 1.378 . S
C2333 C2332 1.367 . S
C2333 C2341 1.433 . S
C2334 H2330 0.929 . S
C2334 C2336 1.378 . S
C2334 C2338 1.350 . S
C2335 C2338 1.463 . S
C2335 C2340 1.350 . S
C2335 N2343 1.427 . S
C2336 H2327 0.930 . S
C2336 C2334 1.378 . S
C2336 C2337 1.367 . S
C2337 C2336 1.367 . S
C2337 C2339 1.433 . S
C2338 C2334 1.350 . S
C2338 C2335 1.463 . S
C2338 N2342 1.427 . S
C2339 H2329 0.929 . S
C2339 C2337 1.433 . S
C2339 N2342 1.384 . S
C2340 H2331 0.929 . S
C2340 C2332 1.378 . S
C2340 C2335 1.350 . S
C2341 H2328 0.929 . S
C2341 C2333 1.433 . S
C2341 N2343 1.384 . S
N2342 C2338 1.427 . S
N2342 C2339 1.384 . S
N2343 C2335 1.427 . S
N2343 C2341 1.384 . S
H2344 C2350 0.930 . S
H2345 C2354 0.930 . S
H2346 C2359 0.929 . S
H2347 C2357 0.929 . S
H2348 C2352 0.929 . S
H2349 C2358 0.929 . S
C2350 H2344 0.930 . S
C2350 C2351 1.367 . S
C2350 C2358 1.378 . S
C2351 C2350 1.367 . S
C2351 C2359 1.433 . S
C2352 H2348 0.929 . S
C2352 C2354 1.378 . S
C2352 C2356 1.350 . S
C2353 C2356 1.463 . S
C2353 C2358 1.350 . S
C2353 N2361 1.427 . S
C2354 H2345 0.930 . S
C2354 C2352 1.378 . S
C2354 C2355 1.367 . S
C2355 C2354 1.367 . S
C2355 C2357 1.433 . S
C2356 C2352 1.350 . S
C2356 C2353 1.463 . S
C2356 N2360 1.427 . S
C2357 H2347 0.929 . S
C2357 C2355 1.433 . S
C2357 N2360 1.384 . S
C2358 H2349 0.929 . S
C2358 C2350 1.378 . S
C2358 C2353 1.350 . S
C2359 H2346 0.929 . S
C2359 C2351 1.433 . S
C2359 N2361 1.384 . S
N2360 C2356 1.427 . S
N2360 C2357 1.384 . S
N2361 C2353 1.427 . S
N2361 C2359 1.384 . S
H2362 C2368 0.930 . S
H2363 C2372 0.930 . S
H2364 C2377 0.929 . S
H2365 C2375 0.929 . S
H2366 C2370 0.929 . S
H2367 C2376 0.929 . S
C2368 H2362 0.930 . S
C2368 C2369 1.367 . S
C2368 C2376 1.378 . S
C2369 C2368 1.367 . S
C2369 C2377 1.433 . S
C2370 H2366 0.929 . S
C2370 C2372 1.378 . S
C2370 C2374 1.350 . S
C2371 C2374 1.463 . S
C2371 C2376 1.350 . S
C2371 N2379 1.427 . S
C2372 H2363 0.930 . S
C2372 C2370 1.378 . S
C2372 C2373 1.367 . S
C2373 C2372 1.367 . S
C2373 C2375 1.433 . S
C2374 C2370 1.350 . S
C2374 C2371 1.463 . S
C2374 N2378 1.427 . S
C2375 H2365 0.929 . S
C2375 C2373 1.433 . S
C2375 N2378 1.384 . S
C2376 H2367 0.929 . S
C2376 C2368 1.378 . S
C2376 C2371 1.350 . S
C2377 H2364 0.929 . S
C2377 C2369 1.433 . S
C2377 N2379 1.384 . S
N2378 C2374 1.427 . S
N2378 C2375 1.384 . S
N2379 C2371 1.427 . S
N2379 C2377 1.384 . S
H2380 C2386 0.930 . S
H2381 C2390 0.930 . S
H2382 C2395 0.929 . S
H2383 C2393 0.929 . S
H2384 C2388 0.929 . S
H2385 C2394 0.929 . S
C2386 H2380 0.930 . S
C2386 C2387 1.367 . S
C2386 C2394 1.378 . S
C2387 C2386 1.367 . S
C2387 C2395 1.433 . S
C2388 H2384 0.929 . S
C2388 C2390 1.378 . S
C2388 C2392 1.350 . S
C2389 C2392 1.463 . S
C2389 C2394 1.350 . S
C2389 N2397 1.427 . S
C2390 H2381 0.930 . S
C2390 C2388 1.378 . S
C2390 C2391 1.367 . S
C2391 C2390 1.367 . S
C2391 C2393 1.433 . S
C2392 C2388 1.350 . S
C2392 C2389 1.463 . S
C2392 N2396 1.427 . S
C2393 H2383 0.929 . S
C2393 C2391 1.433 . S
C2393 N2396 1.384 . S
C2394 H2385 0.929 . S
C2394 C2386 1.378 . S
C2394 C2389 1.350 . S
C2395 H2382 0.929 . S
C2395 C2387 1.433 . S
C2395 N2397 1.384 . S
N2396 C2392 1.427 . S
N2396 C2393 1.384 . S
N2397 C2389 1.427 . S
N2397 C2395 1.384 . S
H2398 C2404 0.930 . S
H2399 C2408 0.930 . S
H2400 C2413 0.929 . S
H2401 C2411 0.929 . S
H2402 C2406 0.929 . S
H2403 C2412 0.929 . S
C2404 H2398 0.930 . S
C2404 C2405 1.367 . S
C2404 C2412 1.378 . S
C2405 C2404 1.367 . S
C2405 C2413 1.433 . S
C2406 H2402 0.929 . S
C2406 C2408 1.378 . S
C2406 C2410 1.350 . S
C2407 C2410 1.463 . S
C2407 C2412 1.350 . S
C2407 N2415 1.427 . S
C2408 H2399 0.930 . S
C2408 C2406 1.378 . S
C2408 C2409 1.367 . S
C2409 C2408 1.367 . S
C2409 C2411 1.433 . S
C2410 C2406 1.350 . S
C2410 C2407 1.463 . S
C2410 N2414 1.427 . S
C2411 H2401 0.929 . S
C2411 C2409 1.433 . S
C2411 N2414 1.384 . S
C2412 H2403 0.929 . S
C2412 C2404 1.378 . S
C2412 C2407 1.350 . S
C2413 H2400 0.929 . S
C2413 C2405 1.433 . S
C2413 N2415 1.384 . S
N2414 C2410 1.427 . S
N2414 C2411 1.384 . S
N2415 C2407 1.427 . S
N2415 C2413 1.384 . S
H2416 C2422 0.930 . S
H2417 C2426 0.930 . S
H2418 C2431 0.929 . S
H2419 C2429 0.929 . S
H2420 C2424 0.929 . S
H2421 C2430 0.929 . S
C2422 H2416 0.930 . S
C2422 C2423 1.367 . S
C2422 C2430 1.378 . S
C2423 C2422 1.367 . S
C2423 C2431 1.433 . S
C2424 H2420 0.929 . S
C2424 C2426 1.378 . S
C2424 C2428 1.350 . S
C2425 C2428 1.463 . S
C2425 C2430 1.350 . S
C2425 N2433 1.427 . S
C2426 H2417 0.930 . S
C2426 C2424 1.378 . S
C2426 C2427 1.367 . S
C2427 C2426 1.367 . S
C2427 C2429 1.433 . S
C2428 C2424 1.350 . S
C2428 C2425 1.463 . S
C2428 N2432 1.427 . S
C2429 H2419 0.929 . S
C2429 C2427 1.433 . S
C2429 N2432 1.384 . S
C2430 H2421 0.929 . S
C2430 C2422 1.378 . S
C2430 C2425 1.350 . S
C2431 H2418 0.929 . S
C2431 C2423 1.433 . S
C2431 N2433 1.384 . S
N2432 C2428 1.427 . S
N2432 C2429 1.384 . S
N2433 C2425 1.427 . S
N2433 C2431 1.384 . S
H2434 C2440 0.930 . S
H2435 C2444 0.930 . S
H2436 C2449 0.929 . S
H2437 C2447 0.929 . S
H2438 C2442 0.929 . S
H2439 C2448 0.929 . S
C2440 H2434 0.930 . S
C2440 C2441 1.367 . S
C2440 C2448 1.378 . S
C2441 C2440 1.367 . S
C2441 C2449 1.433 . S
C2442 H2438 0.929 . S
C2442 C2444 1.378 . S
C2442 C2446 1.350 . S
C2443 C2446 1.463 . S
C2443 C2448 1.350 . S
C2443 N2451 1.427 . S
C2444 H2435 0.930 . S
C2444 C2442 1.378 . S
C2444 C2445 1.367 . S
C2445 C2444 1.367 . S
C2445 C2447 1.433 . S
C2446 C2442 1.350 . S
C2446 C2443 1.463 . S
C2446 N2450 1.427 . S
C2447 H2437 0.929 . S
C2447 C2445 1.433 . S
C2447 N2450 1.384 . S
C2448 H2439 0.929 . S
C2448 C2440 1.378 . S
C2448 C2443 1.350 . S
C2449 H2436 0.929 . S
C2449 C2441 1.433 . S
C2449 N2451 1.384 . S
N2450 C2446 1.427 . S
N2450 C2447 1.384 . S
N2451 C2443 1.427 . S
N2451 C2449 1.384 . S
H2452 C2458 0.922 1_455 S
H2453 C2462 0.930 1_655 S
H2454 C2467 0.929 . S
H2455 C2465 0.929 . S
H2456 C2460 0.929 . S
H2457 C2466 0.929 . S
C2458 H2452 0.922 1_655 S
C2458 C2459 1.367 . S
C2458 C2466 1.378 1_655 S
C2459 C2458 1.367 . S
C2459 C2467 1.433 . S
C2460 H2456 0.929 . S
C2460 C2462 1.378 1_655 S
C2460 C2464 1.350 1_655 S
C2461 C2464 1.463 1_655 S
C2461 C2466 1.350 1_655 S
C2461 N2469 1.427 . S
C2462 H2453 0.930 1_455 S
C2462 C2460 1.378 1_455 S
C2462 C2463 1.367 . S
C2463 C2462 1.367 . S
C2463 C2465 1.433 . S
C2464 C2460 1.350 1_455 S
C2464 C2461 1.463 1_455 S
C2464 N2468 1.427 . S
C2465 H2455 0.929 . S
C2465 C2463 1.433 . S
C2465 N2468 1.384 . S
C2466 H2457 0.929 . S
C2466 C2458 1.378 1_455 S
C2466 C2461 1.350 1_455 S
C2467 H2454 0.929 . S
C2467 C2459 1.433 . S
C2467 N2469 1.384 . S
N2468 C2464 1.427 . S
N2468 C2465 1.384 . S
N2469 C2461 1.427 . S
N2469 C2467 1.384 . S
H2470 C2476 0.930 . S
H2471 C2480 0.930 . S
H2472 C2485 0.929 . S
H2473 C2483 0.929 . S
H2474 C2478 0.929 . S
H2475 C2484 0.929 . S
C2476 H2470 0.930 . S
C2476 C2477 1.367 . S
C2476 C2484 1.378 . S
C2477 C2476 1.367 . S
C2477 C2485 1.433 . S
C2478 H2474 0.929 . S
C2478 C2480 1.378 . S
C2478 C2482 1.350 . S
C2479 C2482 1.463 . S
C2479 C2484 1.350 . S
C2479 N2487 1.427 . S
C2480 H2471 0.930 . S
C2480 C2478 1.378 . S
C2480 C2481 1.367 . S
C2481 C2480 1.367 . S
C2481 C2483 1.433 . S
C2482 C2478 1.350 . S
C2482 C2479 1.463 . S
C2482 N2486 1.427 . S
C2483 H2473 0.929 . S
C2483 C2481 1.433 . S
C2483 N2486 1.384 . S
C2484 H2475 0.929 . S
C2484 C2476 1.378 . S
C2484 C2479 1.350 . S
C2485 H2472 0.929 . S
C2485 C2477 1.433 . S
C2485 N2487 1.384 . S
N2486 C2482 1.427 . S
N2486 C2483 1.384 . S
N2487 C2479 1.427 . S
N2487 C2485 1.384 . S
H2488 C2494 0.930 . S
H2489 C2498 0.930 . S
H2490 C2503 0.929 . S
H2491 C2501 0.929 . S
H2492 C2496 0.929 . S
H2493 C2502 0.929 . S
C2494 H2488 0.930 . S
C2494 C2495 1.367 . S
C2494 C2502 1.378 . S
C2495 C2494 1.367 . S
C2495 C2503 1.433 . S
C2496 H2492 0.929 . S
C2496 C2498 1.378 . S
C2496 C2500 1.350 . S
C2497 C2500 1.463 . S
C2497 C2502 1.350 . S
C2497 N2505 1.427 . S
C2498 H2489 0.930 . S
C2498 C2496 1.378 . S
C2498 C2499 1.367 . S
C2499 C2498 1.367 . S
C2499 C2501 1.433 . S
C2500 C2496 1.350 . S
C2500 C2497 1.463 . S
C2500 N2504 1.427 . S
C2501 H2491 0.929 . S
C2501 C2499 1.433 . S
C2501 N2504 1.384 . S
C2502 H2493 0.929 . S
C2502 C2494 1.378 . S
C2502 C2497 1.350 . S
C2503 H2490 0.929 . S
C2503 C2495 1.433 . S
C2503 N2505 1.384 . S
N2504 C2500 1.427 . S
N2504 C2501 1.384 . S
N2505 C2497 1.427 . S
N2505 C2503 1.384 . S
H2506 C2512 0.930 . S
H2507 C2516 0.930 . S
H2508 C2521 0.929 . S
H2509 C2519 0.929 . S
H2510 C2514 0.929 . S
H2511 C2520 0.929 . S
C2512 H2506 0.930 . S
C2512 C2513 1.367 . S
C2512 C2520 1.378 . S
C2513 C2512 1.367 . S
C2513 C2521 1.433 . S
C2514 H2510 0.929 . S
C2514 C2516 1.378 . S
C2514 C2518 1.350 . S
C2515 C2518 1.463 . S
C2515 C2520 1.350 . S
C2515 N2523 1.427 . S
C2516 H2507 0.930 . S
C2516 C2514 1.378 . S
C2516 C2517 1.367 . S
C2517 C2516 1.367 . S
C2517 C2519 1.433 . S
C2518 C2514 1.350 . S
C2518 C2515 1.463 . S
C2518 N2522 1.427 . S
C2519 H2509 0.929 . S
C2519 C2517 1.433 . S
C2519 N2522 1.384 . S
C2520 H2511 0.929 . S
C2520 C2512 1.378 . S
C2520 C2515 1.350 . S
C2521 H2508 0.929 . S
C2521 C2513 1.433 . S
C2521 N2523 1.384 . S
N2522 C2518 1.427 . S
N2522 C2519 1.384 . S
N2523 C2515 1.427 . S
N2523 C2521 1.384 . S
H2524 C2530 0.930 . S
H2525 C2534 0.930 . S
H2526 C2539 0.932 . S
H2527 C2537 0.929 . S
H2528 C2532 0.929 . S
H2529 C2538 0.929 . S
C2530 H2524 0.930 . S
C2530 C2531 1.367 . S
C2530 C2538 1.378 . S
C2531 C2530 1.367 . S
C2531 C2539 1.433 . S
C2532 H2528 0.929 . S
C2532 C2534 1.378 . S
C2532 C2536 1.350 1_455 S
C2533 C2536 1.463 . S
C2533 C2538 1.350 . S
C2533 N2541 1.427 . S
C2534 H2525 0.930 . S
C2534 C2532 1.378 . S
C2534 C2535 1.367 . S
C2535 C2534 1.367 . S
C2535 C2537 1.433 1_455 S
C2536 C2532 1.350 1_655 S
C2536 C2533 1.463 . S
C2536 N2540 1.427 . S
C2537 H2527 0.929 . S
C2537 C2535 1.433 1_655 S
C2537 N2540 1.384 . S
C2538 H2529 0.929 . S
C2538 C2530 1.378 . S
C2538 C2533 1.350 . S
C2539 H2526 0.932 . S
C2539 C2531 1.433 . S
C2539 N2541 1.384 . S
N2540 C2536 1.427 . S
N2540 C2537 1.384 . S
N2541 C2533 1.427 . S
N2541 C2539 1.384 . S
H2542 C2548 0.930 . S
H2543 C2552 0.930 . S
H2544 C2557 0.929 . S
H2545 C2555 0.929 . S
H2546 C2550 0.929 . S
H2547 C2556 0.929 . S
C2548 H2542 0.930 . S
C2548 C2549 1.367 . S
C2548 C2556 1.378 . S
C2549 C2548 1.367 . S
C2549 C2557 1.433 . S
C2550 H2546 0.929 . S
C2550 C2552 1.378 . S
C2550 C2554 1.350 . S
C2551 C2554 1.463 . S
C2551 C2556 1.350 . S
C2551 N2559 1.427 . S
C2552 H2543 0.930 . S
C2552 C2550 1.378 . S
C2552 C2553 1.367 . S
C2553 C2552 1.367 . S
C2553 C2555 1.433 . S
C2554 C2550 1.350 . S
C2554 C2551 1.463 . S
C2554 N2558 1.427 . S
C2555 H2545 0.929 . S
C2555 C2553 1.433 . S
C2555 N2558 1.384 . S
C2556 H2547 0.929 . S
C2556 C2548 1.378 . S
C2556 C2551 1.350 . S
C2557 H2544 0.929 . S
C2557 C2549 1.433 . S
C2557 N2559 1.384 . S
N2558 C2554 1.427 . S
N2558 C2555 1.384 . S
N2559 C2551 1.427 . S
N2559 C2557 1.384 . S
H2560 C2566 0.930 . S
H2561 C2570 0.930 . S
H2562 C2575 0.929 . S
H2563 C2573 0.929 . S
H2564 C2568 0.929 . S
H2565 C2574 0.929 . S
C2566 H2560 0.930 . S
C2566 C2567 1.367 . S
C2566 C2574 1.378 . S
C2567 C2566 1.367 . S
C2567 C2575 1.433 . S
C2568 H2564 0.929 . S
C2568 C2570 1.378 . S
C2568 C2572 1.350 . S
C2569 C2572 1.463 . S
C2569 C2574 1.350 . S
C2569 N2577 1.427 . S
C2570 H2561 0.930 . S
C2570 C2568 1.378 . S
C2570 C2571 1.367 . S
C2571 C2570 1.367 . S
C2571 C2573 1.433 . S
C2572 C2568 1.350 . S
C2572 C2569 1.463 . S
C2572 N2576 1.427 . S
C2573 H2563 0.929 . S
C2573 C2571 1.433 . S
C2573 N2576 1.384 . S
C2574 H2565 0.929 . S
C2574 C2566 1.378 . S
C2574 C2569 1.350 . S
C2575 H2562 0.929 . S
C2575 C2567 1.433 . S
C2575 N2577 1.384 . S
N2576 C2572 1.427 . S
N2576 C2573 1.384 . S
N2577 C2569 1.427 . S
N2577 C2575 1.384 . S
H2578 C2584 0.930 . S
H2579 C2588 0.930 . S
H2580 C2593 0.929 . S
H2581 C2591 0.929 . S
H2582 C2586 0.934 . S
H2583 C2592 0.929 . S
C2584 H2578 0.930 . S
C2584 C2585 1.367 . S
C2584 C2592 1.378 . S
C2585 C2584 1.367 . S
C2585 C2593 1.433 . S
C2586 H2582 0.934 . S
C2586 C2588 1.378 1_565 S
C2586 C2590 1.350 . S
C2587 C2590 1.463 . S
C2587 C2592 1.350 . S
C2587 N2595 1.427 . S
C2588 H2579 0.930 . S
C2588 C2586 1.378 1_545 S
C2588 C2589 1.367 . S
C2589 C2588 1.367 . S
C2589 C2591 1.433 1_545 S
C2590 C2586 1.350 . S
C2590 C2587 1.463 . S
C2590 N2594 1.427 . S
C2591 H2581 0.929 . S
C2591 C2589 1.433 1_565 S
C2591 N2594 1.384 . S
C2592 H2583 0.929 . S
C2592 C2584 1.378 . S
C2592 C2587 1.350 . S
C2593 H2580 0.929 . S
C2593 C2585 1.433 . S
C2593 N2595 1.384 . S
N2594 C2590 1.427 . S
N2594 C2591 1.384 . S
N2595 C2587 1.427 . S
N2595 C2593 1.384 . S
H2596 C2602 0.930 . S
H2597 C2606 0.930 . S
H2598 C2611 0.929 . S
H2599 C2609 0.929 . S
H2600 C2604 0.929 . S
H2601 C2610 0.929 . S
C2602 H2596 0.930 . S
C2602 C2603 1.367 . S
C2602 C2610 1.378 . S
C2603 C2602 1.367 . S
C2603 C2611 1.433 . S
C2604 H2600 0.929 . S
C2604 C2606 1.378 . S
C2604 C2608 1.350 . S
C2605 C2608 1.463 . S
C2605 C2610 1.350 . S
C2605 N2613 1.427 . S
C2606 H2597 0.930 . S
C2606 C2604 1.378 . S
C2606 C2607 1.367 . S
C2607 C2606 1.367 . S
C2607 C2609 1.433 . S
C2608 C2604 1.350 . S
C2608 C2605 1.463 . S
C2608 N2612 1.427 . S
C2609 H2599 0.929 . S
C2609 C2607 1.433 . S
C2609 N2612 1.384 . S
C2610 H2601 0.929 . S
C2610 C2602 1.378 . S
C2610 C2605 1.350 . S
C2611 H2598 0.929 . S
C2611 C2603 1.433 . S
C2611 N2613 1.384 . S
N2612 C2608 1.427 . S
N2612 C2609 1.384 . S
N2613 C2605 1.427 . S
N2613 C2611 1.384 . S
H2614 C2620 0.930 . S
H2615 C2624 0.930 . S
H2616 C2629 0.929 . S
H2617 C2627 0.929 . S
H2618 C2622 0.929 . S
H2619 C2628 0.929 . S
C2620 H2614 0.930 . S
C2620 C2621 1.367 . S
C2620 C2628 1.378 . S
C2621 C2620 1.367 . S
C2621 C2629 1.433 . S
C2622 H2618 0.929 . S
C2622 C2624 1.378 . S
C2622 C2626 1.350 . S
C2623 C2626 1.463 . S
C2623 C2628 1.350 . S
C2623 N2631 1.427 . S
C2624 H2615 0.930 . S
C2624 C2622 1.378 . S
C2624 C2625 1.367 . S
C2625 C2624 1.367 . S
C2625 C2627 1.433 . S
C2626 C2622 1.350 . S
C2626 C2623 1.463 . S
C2626 N2630 1.427 . S
C2627 H2617 0.929 . S
C2627 C2625 1.433 . S
C2627 N2630 1.384 . S
C2628 H2619 0.929 . S
C2628 C2620 1.378 . S
C2628 C2623 1.350 . S
C2629 H2616 0.929 . S
C2629 C2621 1.433 . S
C2629 N2631 1.384 . S
N2630 C2626 1.427 . S
N2630 C2627 1.384 . S
N2631 C2623 1.427 . S
N2631 C2629 1.384 . S
H2632 C2638 0.930 . S
H2633 C2642 0.930 . S
H2634 C2647 0.929 . S
H2635 C2645 0.929 . S
H2636 C2640 0.929 . S
H2637 C2646 0.929 . S
C2638 H2632 0.930 . S
C2638 C2639 1.367 . S
C2638 C2646 1.378 . S
C2639 C2638 1.367 . S
C2639 C2647 1.433 . S
C2640 H2636 0.929 . S
C2640 C2642 1.378 . S
C2640 C2644 1.350 . S
C2641 C2644 1.463 . S
C2641 C2646 1.350 . S
C2641 N2649 1.427 . S
C2642 H2633 0.930 . S
C2642 C2640 1.378 . S
C2642 C2643 1.367 . S
C2643 C2642 1.367 . S
C2643 C2645 1.433 . S
C2644 C2640 1.350 . S
C2644 C2641 1.463 . S
C2644 N2648 1.427 . S
C2645 H2635 0.929 . S
C2645 C2643 1.433 . S
C2645 N2648 1.384 . S
C2646 H2637 0.929 . S
C2646 C2638 1.378 . S
C2646 C2641 1.350 . S
C2647 H2634 0.929 . S
C2647 C2639 1.433 . S
C2647 N2649 1.384 . S
N2648 C2644 1.427 . S
N2648 C2645 1.384 . S
N2649 C2641 1.427 . S
N2649 C2647 1.384 . S
H2650 C2656 0.930 . S
H2651 C2660 0.930 . S
H2652 C2665 0.929 1_556 S
H2653 C2663 0.929 . S
H2654 C2658 0.929 . S
H2655 C2664 0.929 . S
C2656 H2650 0.930 . S
C2656 C2657 1.367 . S
C2656 C2664 1.378 . S
C2657 C2656 1.367 . S
C2657 C2665 1.433 . S
C2658 H2654 0.929 . S
C2658 C2660 1.378 . S
C2658 C2662 1.350 1_556 S
C2659 C2662 1.463 . S
C2659 C2664 1.350 . S
C2659 N2667 1.431 . S
C2660 H2651 0.930 . S
C2660 C2658 1.378 . S
C2660 C2661 1.367 . S
C2661 C2660 1.367 . S
C2661 C2663 1.433 1_556 S
C2662 C2658 1.350 1_554 S
C2662 C2659 1.463 . S
C2662 N2666 1.427 . S
C2663 H2653 0.929 . S
C2663 C2661 1.433 1_554 S
C2663 N2666 1.384 . S
C2664 H2655 0.929 . S
C2664 C2656 1.378 . S
C2664 C2659 1.350 . S
C2665 H2652 0.929 1_554 S
C2665 C2657 1.433 . S
C2665 N2667 1.385 . S
N2666 C2662 1.427 . S
N2666 C2663 1.384 . S
N2667 C2659 1.431 . S
N2667 C2665 1.385 . S
H2668 C2674 0.930 . S
H2669 C2678 0.930 . S
H2670 C2683 0.929 . S
H2671 C2681 0.929 . S
H2672 C2676 0.929 . S
H2673 C2682 0.929 . S
C2674 H2668 0.930 . S
C2674 C2675 1.367 . S
C2674 C2682 1.378 . S
C2675 C2674 1.367 . S
C2675 C2683 1.433 . S
C2676 H2672 0.929 . S
C2676 C2678 1.378 . S
C2676 C2680 1.350 . S
C2677 C2680 1.463 . S
C2677 C2682 1.350 . S
C2677 N2685 1.427 . S
C2678 H2669 0.930 . S
C2678 C2676 1.378 . S
C2678 C2679 1.367 . S
C2679 C2678 1.367 . S
C2679 C2681 1.433 . S
C2680 C2676 1.350 . S
C2680 C2677 1.463 . S
C2680 N2684 1.427 . S
C2681 H2671 0.929 . S
C2681 C2679 1.433 . S
C2681 N2684 1.384 . S
C2682 H2673 0.929 . S
C2682 C2674 1.378 . S
C2682 C2677 1.350 . S
C2683 H2670 0.929 . S
C2683 C2675 1.433 . S
C2683 N2685 1.384 . S
N2684 C2680 1.427 . S
N2684 C2681 1.384 . S
N2685 C2677 1.427 . S
N2685 C2683 1.384 . S
H2686 C2692 0.930 . S
H2687 C2696 0.930 . S
H2688 C2701 0.929 . S
H2689 C2699 0.929 . S
H2690 C2694 0.929 . S
H2691 C2700 0.929 . S
C2692 H2686 0.930 . S
C2692 C2693 1.367 . S
C2692 C2700 1.378 . S
C2693 C2692 1.367 . S
C2693 C2701 1.433 . S
C2694 H2690 0.929 . S
C2694 C2696 1.378 . S
C2694 C2698 1.350 . S
C2695 C2698 1.463 . S
C2695 C2700 1.350 . S
C2695 N2703 1.427 . S
C2696 H2687 0.930 . S
C2696 C2694 1.378 . S
C2696 C2697 1.367 . S
C2697 C2696 1.367 . S
C2697 C2699 1.433 . S
C2698 C2694 1.350 . S
C2698 C2695 1.463 . S
C2698 N2702 1.427 . S
C2699 H2689 0.929 . S
C2699 C2697 1.433 . S
C2699 N2702 1.384 . S
C2700 H2691 0.929 . S
C2700 C2692 1.378 . S
C2700 C2695 1.350 . S
C2701 H2688 0.929 . S
C2701 C2693 1.433 . S
C2701 N2703 1.384 . S
N2702 C2698 1.427 . S
N2702 C2699 1.384 . S
N2703 C2695 1.427 . S
N2703 C2701 1.384 . S
C983 C109 2.085 . S
C987 C367 2.035 . S
C1001 C61 1.538 . S
C1005 C378 1.750 . S
C1019 C74 1.651 . S
C1023 C447 1.674 . S
C1041 C460 1.207 . S
C1037 C96 1.220 . S
C1055 C25 2.411 . S
C1059 C516 2.424 . S
C1077 C567 2.094 . S
C1073 C40 2.109 . S
C1095 C596 2.425 . S
C1091 C46 2.425 . S
C1109 C5 2.080 . S
C1113 C647 2.418 . S
C1131 C338 1.121 . S
C1127 C229 0.924 . S
C1145 C249 0.922 . S
C1149 C380 0.894 . S
C1167 C418 0.888 . S
C1163 C271 0.852 . S
C1185 C487 1.819 . S
C1181 C172 1.740 . S
C1199 C236 0.564 . S
C1203 C521 0.571 . S
C1221 C538 1.534 . S
C1217 C242 1.502 . S
C1239 C601 0.356 . S
C1235 C278 0.315 . S
C1257 C618 2.137 . S
C1253 C179 2.152 . S
C1275 C340 1.589 . S
C1271 C159 1.221 . S
C1289 C285 1.305 . S
C1293 C679 1.491 . S
C1311 C700 1.295 . S
C1307 C333 1.387 . S
C1329 C759 0.412 . S
C1325 C320 0.416 . S
C1343 C123 0.968 . S
C1347 C620 0.929 . S
C1361 C138 1.412 . S
C1365 C420 1.371 . S
C1379 C326 0.975 . S
C1383 C778 0.969 . S
C1401 C847 0.990 . S
C1397 C298 1.006 . S
C1419 C356 2.042 . S
C1415 C67 1.988 . S
C1437 C839 1.666 . S
C1433 C110 1.670 . S
C1451 C88 1.672 . S
C1455 C436 1.672 . S
C1469 C75 0.979 . S
C1473 C801 1.138 . S
C1491 C527 2.337 . S
C1487 C11 2.363 . S
C1505 C47 1.983 . S
C1509 C716 2.096 . S
C1527 C607 2.300 1_556 S
C1523 C32 2.233 . S
C1545 C876 2.445 . S
C1541 C26 2.492 1_655 S
C1563 C359 1.262 . S
C1559 C152 1.262 . S
C1581 C841 0.919 . S
C1577 C319 0.922 . S
C1595 C124 0.848 . S
C1599 C439 0.836 . S
C1613 C284 1.797 . S
C1617 C796 1.825 . S
C1631 C145 0.629 . S
C1635 C500 0.552 . S
C1653 C719 1.405 . S
C1649 C312 1.394 . S
C1667 C117 0.721 . S
C1671 C580 0.193 . S
C1685 C291 2.049 . S
C1689 C879 2.035 . S
C1703 C194 1.812 . S
C1707 C361 1.711 . S
C1721 C180 1.494 . S
C1725 C658 1.449 . S
C1739 C263 1.279 . S
C1743 C561 1.283 . S
C1757 C243 0.730 . S
C1761 C738 0.426 . S
C1779 C881 1.014 . S
C1775 C277 0.994 1_565 S
C1793 C215 1.229 . S
C1797 C441 1.357 . S
C1815 C479 0.868 . S
C1811 C256 0.812 . S
C1833 C396 1.057 . S
C1829 C200 1.049 . S
C1847 C81 2.084 . S
C1851 C927 2.038 . S
C1869 C818 1.748 . S
C1865 C89 1.551 . S
C1883 C102 1.659 . S
C1887 C967 1.672 . S
C1901 C68 1.221 . S
C1905 C780 1.199 . S
C1919 C53 2.416 . S
C1923 C676 2.420 . S
C1941 C727 2.093 . S
C1937 C12 2.109 . S
C1959 C756 2.427 . S
C1955 C18 2.425 . S
C1977 C887 2.421 . S
C1973 C33 2.099 . S
C1995 C898 1.114 . S
C1991 C257 0.878 . S
C2009 C193 0.926 . S
C2013 C820 0.906 . S
C2031 C938 0.883 . S
C2027 C201 0.824 . S
C2049 C807 1.820 . S
C2045 C214 1.740 . S
C2067 C681 0.589 . S
C2063 C264 0.573 . S
C2081 C186 1.512 . S
C2085 C698 1.539 . S
C2103 C761 0.331 . S
C2099 C208 0.327 . S
C2117 C221 2.156 . S
C2121 C858 2.140 . S
C2139 C900 1.607 . S
C2135 C313 1.253 . S
C2153 C131 1.298 . S
C2157 C519 1.493 . S
C2175 C540 1.302 . S
C2171 C151 1.390 . S
C2193 C599 0.432 . S
C2189 C166 0.411 . S
C2211 C860 0.956 . S
C2207 C305 0.980 . S
C2225 C292 1.415 . S
C2229 C940 1.379 . S
C2247 C458 0.973 . S
C2243 C144 0.973 . S
C2265 C407 1.000 . S
C2261 C116 1.004 . S
C2279 C95 1.988 . S
C2283 C916 2.042 . S
C2301 C399 1.670 . S
C2297 C82 1.659 . S
C2315 C60 1.666 . S
C2319 C956 1.674 . S
C2333 C103 0.979 . S
C2337 C481 1.132 . S
C2351 C39 2.363 . S
C2355 C687 2.338 1_556 S
C2373 C556 2.099 . S
C2369 C19 1.977 . S
C2387 C4 2.227 . S
C2391 C767 2.302 . S
C2405 C54 2.496 . S
C2409 C636 2.447 . S
C2427 C919 1.262 . S
C2423 C334 1.262 . S
C2441 C165 0.923 . S
C2445 C401 0.918 . S
C2463 C959 0.844 . S
C2459 C306 0.850 . S
C2477 C130 1.797 . S
C2481 C476 1.824 . S
C2495 C327 0.632 . S
C2499 C660 0.559 . S
C2517 C559 1.407 . S
C2513 C158 1.392 . S
C2531 C299 0.713 . S
C2535 C740 0.223 . S
C2553 C639 2.037 . S
C2549 C137 2.051 . S
C2571 C921 1.729 . S
C2567 C250 1.823 . S
C2589 C498 1.458 . S
C2585 C222 1.495 . S
C2603 C235 1.261 . S
C2607 C721 1.271 . S
C2625 C578 0.427 . S
C2621 C187 0.737 . S
C2639 C207 1.000 . S
C2643 C641 1.016 . S
C2657 C173 1.216 . S
C2661 C961 1.373 . S
C2679 C799 0.863 . S
C2675 C228 0.842 . S
C2697 C836 1.069 . S
C2693 C270 1.059 . S
