# Generated by pormake.
# Topology gar, (4,6)-cn, num edge types: 1
# Building blocks:
#     Node 0, Type 0, BuildingBlock: QUQFOY_clean_sbu_1, # of connection points: 4
#     Node 1, Type 0, BuildingBlock: QUQFOY_clean_sbu_1, # of connection points: 4
#     Node 2, Type 0, BuildingBlock: QUQFOY_clean_sbu_1, # of connection points: 4
#     Node 3, Type 0, BuildingBlock: QUQFOY_clean_sbu_1, # of connection points: 4
#     Node 4, Type 0, BuildingBlock: QUQFOY_clean_sbu_1, # of connection points: 4
#     Node 5, Type 0, BuildingBlock: QUQFOY_clean_sbu_1, # of connection points: 4
#     Node 6, Type 0, BuildingBlock: QUQFOY_clean_sbu_1, # of connection points: 4
#     Node 7, Type 0, BuildingBlock: QUQFOY_clean_sbu_1, # of connection points: 4
#     Node 8, Type 0, BuildingBlock: QUQFOY_clean_sbu_1, # of connection points: 4
#     Node 9, Type 0, BuildingBlock: QUQFOY_clean_sbu_1, # of connection points: 4
#     Node 10, Type 0, BuildingBlock: QUQFOY_clean_sbu_1, # of connection points: 4
#     Node 11, Type 0, BuildingBlock: QUQFOY_clean_sbu_1, # of connection points: 4
#     Node 12, Type 0, BuildingBlock: QUQFOY_clean_sbu_1, # of connection points: 4
#     Node 13, Type 0, BuildingBlock: QUQFOY_clean_sbu_1, # of connection points: 4
#     Node 14, Type 0, BuildingBlock: QUQFOY_clean_sbu_1, # of connection points: 4
#     Node 15, Type 0, BuildingBlock: QUQFOY_clean_sbu_1, # of connection points: 4
#     Node 16, Type 0, BuildingBlock: QUQFOY_clean_sbu_1, # of connection points: 4
#     Node 17, Type 0, BuildingBlock: QUQFOY_clean_sbu_1, # of connection points: 4
#     Node 18, Type 0, BuildingBlock: QUQFOY_clean_sbu_1, # of connection points: 4
#     Node 19, Type 0, BuildingBlock: QUQFOY_clean_sbu_1, # of connection points: 4
#     Node 20, Type 0, BuildingBlock: QUQFOY_clean_sbu_1, # of connection points: 4
#     Node 21, Type 0, BuildingBlock: QUQFOY_clean_sbu_1, # of connection points: 4
#     Node 22, Type 0, BuildingBlock: QUQFOY_clean_sbu_1, # of connection points: 4
#     Node 23, Type 0, BuildingBlock: QUQFOY_clean_sbu_1, # of connection points: 4
#     Node 24, Type 1, BuildingBlock: NUHQIS_clean_sbu_0, # of connection points: 6
#     Node 25, Type 1, BuildingBlock: NUHQIS_clean_sbu_0, # of connection points: 6
#     Node 26, Type 1, BuildingBlock: NUHQIS_clean_sbu_0, # of connection points: 6
#     Node 27, Type 1, BuildingBlock: NUHQIS_clean_sbu_0, # of connection points: 6
#     Node 28, Type 1, BuildingBlock: NUHQIS_clean_sbu_0, # of connection points: 6
#     Node 29, Type 1, BuildingBlock: NUHQIS_clean_sbu_0, # of connection points: 6
#     Node 30, Type 1, BuildingBlock: NUHQIS_clean_sbu_0, # of connection points: 6
#     Node 31, Type 1, BuildingBlock: NUHQIS_clean_sbu_0, # of connection points: 6
#     Node 32, Type 1, BuildingBlock: NUHQIS_clean_sbu_0, # of connection points: 6
#     Node 33, Type 1, BuildingBlock: NUHQIS_clean_sbu_0, # of connection points: 6
#     Node 34, Type 1, BuildingBlock: NUHQIS_clean_sbu_0, # of connection points: 6
#     Node 35, Type 1, BuildingBlock: NUHQIS_clean_sbu_0, # of connection points: 6
#     Node 36, Type 1, BuildingBlock: NUHQIS_clean_sbu_0, # of connection points: 6
#     Node 37, Type 1, BuildingBlock: NUHQIS_clean_sbu_0, # of connection points: 6
#     Node 38, Type 1, BuildingBlock: NUHQIS_clean_sbu_0, # of connection points: 6
#     Node 39, Type 1, BuildingBlock: NUHQIS_clean_sbu_0, # of connection points: 6
#     Edge 40, Type (0, 1), BuildingBlock: XIVTED_clean_linker_0, # of connection points: 2
#     Edge 41, Type (0, 1), BuildingBlock: XIVTED_clean_linker_0, # of connection points: 2
#     Edge 42, Type (0, 1), BuildingBlock: XIVTED_clean_linker_0, # of connection points: 2
#     Edge 43, Type (0, 1), BuildingBlock: XIVTED_clean_linker_0, # of connection points: 2
#     Edge 44, Type (0, 1), BuildingBlock: XIVTED_clean_linker_0, # of connection points: 2
#     Edge 45, Type (0, 1), BuildingBlock: XIVTED_clean_linker_0, # of connection points: 2
#     Edge 46, Type (0, 1), BuildingBlock: XIVTED_clean_linker_0, # of connection points: 2
#     Edge 47, Type (0, 1), BuildingBlock: XIVTED_clean_linker_0, # of connection points: 2
#     Edge 48, Type (0, 1), BuildingBlock: XIVTED_clean_linker_0, # of connection points: 2
#     Edge 49, Type (0, 1), BuildingBlock: XIVTED_clean_linker_0, # of connection points: 2
#     Edge 50, Type (0, 1), BuildingBlock: XIVTED_clean_linker_0, # of connection points: 2
#     Edge 51, Type (0, 1), BuildingBlock: XIVTED_clean_linker_0, # of connection points: 2
#     Edge 52, Type (0, 1), BuildingBlock: XIVTED_clean_linker_0, # of connection points: 2
#     Edge 53, Type (0, 1), BuildingBlock: XIVTED_clean_linker_0, # of connection points: 2
#     Edge 54, Type (0, 1), BuildingBlock: XIVTED_clean_linker_0, # of connection points: 2
#     Edge 55, Type (0, 1), BuildingBlock: XIVTED_clean_linker_0, # of connection points: 2
#     Edge 56, Type (0, 1), BuildingBlock: XIVTED_clean_linker_0, # of connection points: 2
#     Edge 57, Type (0, 1), BuildingBlock: XIVTED_clean_linker_0, # of connection points: 2
#     Edge 58, Type (0, 1), BuildingBlock: XIVTED_clean_linker_0, # of connection points: 2
#     Edge 59, Type (0, 1), BuildingBlock: XIVTED_clean_linker_0, # of connection points: 2
#     Edge 60, Type (0, 1), BuildingBlock: XIVTED_clean_linker_0, # of connection points: 2
#     Edge 61, Type (0, 1), BuildingBlock: XIVTED_clean_linker_0, # of connection points: 2
#     Edge 62, Type (0, 1), BuildingBlock: XIVTED_clean_linker_0, # of connection points: 2
#     Edge 63, Type (0, 1), BuildingBlock: XIVTED_clean_linker_0, # of connection points: 2
#     Edge 64, Type (0, 1), BuildingBlock: XIVTED_clean_linker_0, # of connection points: 2
#     Edge 65, Type (0, 1), BuildingBlock: XIVTED_clean_linker_0, # of connection points: 2
#     Edge 66, Type (0, 1), BuildingBlock: XIVTED_clean_linker_0, # of connection points: 2
#     Edge 67, Type (0, 1), BuildingBlock: XIVTED_clean_linker_0, # of connection points: 2
#     Edge 68, Type (0, 1), BuildingBlock: XIVTED_clean_linker_0, # of connection points: 2
#     Edge 69, Type (0, 1), BuildingBlock: XIVTED_clean_linker_0, # of connection points: 2
#     Edge 70, Type (0, 1), BuildingBlock: XIVTED_clean_linker_0, # of connection points: 2
#     Edge 71, Type (0, 1), BuildingBlock: XIVTED_clean_linker_0, # of connection points: 2
#     Edge 72, Type (0, 1), BuildingBlock: XIVTED_clean_linker_0, # of connection points: 2
#     Edge 73, Type (0, 1), BuildingBlock: XIVTED_clean_linker_0, # of connection points: 2
#     Edge 74, Type (0, 1), BuildingBlock: XIVTED_clean_linker_0, # of connection points: 2
#     Edge 75, Type (0, 1), BuildingBlock: XIVTED_clean_linker_0, # of connection points: 2
#     Edge 76, Type (0, 1), BuildingBlock: XIVTED_clean_linker_0, # of connection points: 2
#     Edge 77, Type (0, 1), BuildingBlock: XIVTED_clean_linker_0, # of connection points: 2
#     Edge 78, Type (0, 1), BuildingBlock: XIVTED_clean_linker_0, # of connection points: 2
#     Edge 79, Type (0, 1), BuildingBlock: XIVTED_clean_linker_0, # of connection points: 2
#     Edge 80, Type (0, 1), BuildingBlock: XIVTED_clean_linker_0, # of connection points: 2
#     Edge 81, Type (0, 1), BuildingBlock: XIVTED_clean_linker_0, # of connection points: 2
#     Edge 82, Type (0, 1), BuildingBlock: XIVTED_clean_linker_0, # of connection points: 2
#     Edge 83, Type (0, 1), BuildingBlock: XIVTED_clean_linker_0, # of connection points: 2
#     Edge 84, Type (0, 1), BuildingBlock: XIVTED_clean_linker_0, # of connection points: 2
#     Edge 85, Type (0, 1), BuildingBlock: XIVTED_clean_linker_0, # of connection points: 2
#     Edge 86, Type (0, 1), BuildingBlock: XIVTED_clean_linker_0, # of connection points: 2
#     Edge 87, Type (0, 1), BuildingBlock: XIVTED_clean_linker_0, # of connection points: 2
#     Edge 88, Type (0, 1), BuildingBlock: XIVTED_clean_linker_0, # of connection points: 2
#     Edge 89, Type (0, 1), BuildingBlock: XIVTED_clean_linker_0, # of connection points: 2
#     Edge 90, Type (0, 1), BuildingBlock: XIVTED_clean_linker_0, # of connection points: 2
#     Edge 91, Type (0, 1), BuildingBlock: XIVTED_clean_linker_0, # of connection points: 2
#     Edge 92, Type (0, 1), BuildingBlock: XIVTED_clean_linker_0, # of connection points: 2
#     Edge 93, Type (0, 1), BuildingBlock: XIVTED_clean_linker_0, # of connection points: 2
#     Edge 94, Type (0, 1), BuildingBlock: XIVTED_clean_linker_0, # of connection points: 2
#     Edge 95, Type (0, 1), BuildingBlock: XIVTED_clean_linker_0, # of connection points: 2
#     Edge 96, Type (0, 1), BuildingBlock: XIVTED_clean_linker_0, # of connection points: 2
#     Edge 97, Type (0, 1), BuildingBlock: XIVTED_clean_linker_0, # of connection points: 2
#     Edge 98, Type (0, 1), BuildingBlock: XIVTED_clean_linker_0, # of connection points: 2
#     Edge 99, Type (0, 1), BuildingBlock: XIVTED_clean_linker_0, # of connection points: 2
#     Edge 100, Type (0, 1), BuildingBlock: XIVTED_clean_linker_0, # of connection points: 2
#     Edge 101, Type (0, 1), BuildingBlock: XIVTED_clean_linker_0, # of connection points: 2
#     Edge 102, Type (0, 1), BuildingBlock: XIVTED_clean_linker_0, # of connection points: 2
#     Edge 103, Type (0, 1), BuildingBlock: XIVTED_clean_linker_0, # of connection points: 2
#     Edge 104, Type (0, 1), BuildingBlock: XIVTED_clean_linker_0, # of connection points: 2
#     Edge 105, Type (0, 1), BuildingBlock: XIVTED_clean_linker_0, # of connection points: 2
#     Edge 106, Type (0, 1), BuildingBlock: XIVTED_clean_linker_0, # of connection points: 2
#     Edge 107, Type (0, 1), BuildingBlock: XIVTED_clean_linker_0, # of connection points: 2
#     Edge 108, Type (0, 1), BuildingBlock: XIVTED_clean_linker_0, # of connection points: 2
#     Edge 109, Type (0, 1), BuildingBlock: XIVTED_clean_linker_0, # of connection points: 2
#     Edge 110, Type (0, 1), BuildingBlock: XIVTED_clean_linker_0, # of connection points: 2
#     Edge 111, Type (0, 1), BuildingBlock: XIVTED_clean_linker_0, # of connection points: 2
#     Edge 112, Type (0, 1), BuildingBlock: XIVTED_clean_linker_0, # of connection points: 2
#     Edge 113, Type (0, 1), BuildingBlock: XIVTED_clean_linker_0, # of connection points: 2
#     Edge 114, Type (0, 1), BuildingBlock: XIVTED_clean_linker_0, # of connection points: 2
#     Edge 115, Type (0, 1), BuildingBlock: XIVTED_clean_linker_0, # of connection points: 2
#     Edge 116, Type (0, 1), BuildingBlock: XIVTED_clean_linker_0, # of connection points: 2
#     Edge 117, Type (0, 1), BuildingBlock: XIVTED_clean_linker_0, # of connection points: 2
#     Edge 118, Type (0, 1), BuildingBlock: XIVTED_clean_linker_0, # of connection points: 2
#     Edge 119, Type (0, 1), BuildingBlock: XIVTED_clean_linker_0, # of connection points: 2
#     Edge 120, Type (0, 1), BuildingBlock: XIVTED_clean_linker_0, # of connection points: 2
#     Edge 121, Type (0, 1), BuildingBlock: XIVTED_clean_linker_0, # of connection points: 2
#     Edge 122, Type (0, 1), BuildingBlock: XIVTED_clean_linker_0, # of connection points: 2
#     Edge 123, Type (0, 1), BuildingBlock: XIVTED_clean_linker_0, # of connection points: 2
#     Edge 124, Type (0, 1), BuildingBlock: XIVTED_clean_linker_0, # of connection points: 2
#     Edge 125, Type (0, 1), BuildingBlock: XIVTED_clean_linker_0, # of connection points: 2
#     Edge 126, Type (0, 1), BuildingBlock: XIVTED_clean_linker_0, # of connection points: 2
#     Edge 127, Type (0, 1), BuildingBlock: XIVTED_clean_linker_0, # of connection points: 2
#     Edge 128, Type (0, 1), BuildingBlock: XIVTED_clean_linker_0, # of connection points: 2
#     Edge 129, Type (0, 1), BuildingBlock: XIVTED_clean_linker_0, # of connection points: 2
#     Edge 130, Type (0, 1), BuildingBlock: XIVTED_clean_linker_0, # of connection points: 2
#     Edge 131, Type (0, 1), BuildingBlock: XIVTED_clean_linker_0, # of connection points: 2
#     Edge 132, Type (0, 1), BuildingBlock: XIVTED_clean_linker_0, # of connection points: 2
#     Edge 133, Type (0, 1), BuildingBlock: XIVTED_clean_linker_0, # of connection points: 2
#     Edge 134, Type (0, 1), BuildingBlock: XIVTED_clean_linker_0, # of connection points: 2
#     Edge 135, Type (0, 1), BuildingBlock: XIVTED_clean_linker_0, # of connection points: 2
# Relax obj value: 0.224
# Max RMSD: 0.326
# Mean RMSD: 0.172
data_MOF--net-gar--node1-QUQFOY_clean_sbu_1--node2-NUHQIS_clean_sbu_0--edge1-XIVTED_clean_linker_0
_symmetry_space_group_name_H-M    P1
_symmetry_Int_Tables_number       1
_symmetry_cell_setting            triclinic
loop_
_symmetry_equiv_pos_as_xyz
'x, y, z'
_cell_length_a     58.702303
_cell_length_b     61.316988
_cell_length_c     58.7546
_cell_angle_alpha  94.512099
_cell_angle_beta   96.444569
_cell_angle_gamma 102.2273
loop_
_atom_site_label
_atom_site_type_symbol
_atom_site_fract_x
_atom_site_fract_y
_atom_site_fract_z
_atom_type_partial_charge
O0 O 0.07998 0.24938 0.42083 0.0
Cd1 Cd 0.08409 0.27138 0.3929 0.0
Cd2 Cd 0.06077 0.3003 0.43843 0.0
O3 O 0.06688 0.2666 0.45044 0.0
O4 O 0.10286 0.25872 0.36756 0.0
O5 O 0.118 0.29047 0.38795 0.0
C6 C 0.12059 0.27569 0.37204 0.0
C7 C 0.06426 0.3399 0.45902 0.0
C8 C 0.07329 0.24897 0.44115 0.0
C9 C 0.03416 0.28729 0.38571 0.0
O10 O 0.03694 0.29551 0.40693 0.0
O11 O 0.05015 0.27824 0.37769 0.0
O12 O 0.04714 0.323 0.46025 0.0
O13 O 0.0805 0.33444 0.44801 0.0
O14 O 0.04776 0.76008 0.6481 0.0
Cd15 Cd 0.04773 0.78718 0.67456 0.0
Cd16 Cd 0.07484 0.81347 0.63197 0.0
O17 O 0.06337 0.77634 0.61864 0.0
O18 O 0.02592 0.77697 0.70054 0.0
O19 O 1.01733 0.80083 0.67762 0.0
C20 C 1.01155 0.78947 0.69454 0.0
C21 C 0.07355 0.85076 0.6137 0.0
C22 C 0.05494 0.75819 0.62811 0.0
C23 C 0.10349 0.80868 0.68088 0.0
O24 O 0.1021 0.81453 0.66021 0.0
O25 O 0.08462 0.80038 0.68965 0.0
O26 O 0.08704 0.83751 0.60818 0.0
O27 O 0.06002 0.84289 0.62852 0.0
O28 O 0.6224 0.78853 0.91035 0.0
Cd29 Cd 0.59875 0.78471 0.93757 0.0
Cd30 Cd 0.57053 0.80628 0.89156 0.0
O31 O 0.60309 0.79947 0.87964 0.0
O32 O 0.6096 0.76329 0.9627 0.0
O33 O 0.5781 0.75082 0.93882 0.0
C34 C 0.59238 0.7463 0.95534 0.0
C35 C 0.53126 0.80145 0.86804 0.0
C36 C 0.62171 0.79389 0.88936 0.0
C37 C 0.58341 0.8346 0.9418 0.0
O38 O 0.57575 0.83133 0.92018 0.0
O39 O 0.59157 0.81877 0.9516 0.0
O40 O 0.54901 0.81735 0.86598 0.0
O41 O 0.53579 0.78737 0.88223 0.0
O42 O 0.55679 0.24963 0.14545 0.0
Cd43 Cd 0.55572 0.2768 0.17199 0.0
Cd44 Cd 0.5842 0.30348 0.13088 0.0
O45 O 0.57394 0.26626 0.11693 0.0
O46 O 0.53252 0.26705 0.19708 0.0
O47 O 0.52545 0.29114 0.17384 0.0
C48 C 0.51875 0.27995 0.19061 0.0
C49 C 0.58194 0.34081 0.11284 0.0
C50 C 0.56494 0.24791 0.12587 0.0
C51 C 0.61139 0.29912 0.18091 0.0
O52 O 0.61061 0.30516 0.16032 0.0
O53 O 0.59215 0.2902 0.18874 0.0
O54 O 0.59817 0.32981 0.11003 0.0
O55 O 0.56634 0.33066 0.12467 0.0
O56 O 0.13492 0.84166 0.19121 0.0
Cd57 Cd 0.13527 0.87479 0.20093 0.0
Cd58 Cd 0.14877 0.88116 0.16122 0.0
O59 O 0.13856 0.84723 0.15516 0.0
O60 O 0.11823 0.8729 0.228 0.0
O61 O 0.10418 0.88327 0.19494 0.0
C62 C 0.10126 0.87835 0.21553 0.0
C63 C 0.13067 0.90056 0.13588 0.0
C64 C 0.13462 0.83399 0.17047 0.0
C65 C 0.18397 0.90062 0.20179 0.0
O66 O 0.18088 0.89506 0.18019 0.0
O67 O 0.16676 0.89623 0.21321 0.0
O68 O 0.14812 0.89227 0.1307 0.0
O69 O 0.12413 0.89846 0.15603 0.0
O70 O 0.56339 0.73602 0.40548 0.0
Cd71 Cd 0.53163 0.73329 0.41844 0.0
Cd72 Cd 0.51984 0.73704 0.3755 0.0
O73 O 0.54654 0.72139 0.37094 0.0
O74 O 0.5399 0.72849 0.45086 0.0
O75 O 0.51526 0.70307 0.42572 0.0
C76 C 0.5266 0.70869 0.44622 0.0
C77 C 0.48409 0.72635 0.35267 0.0
C78 C 0.56482 0.72719 0.38557 0.0
C79 C 0.52136 0.77554 0.40769 0.0
O80 O 0.52771 0.77054 0.38839 0.0
O81 O 0.51722 0.76068 0.42138 0.0
O82 O 0.50263 0.73618 0.34451 0.0
O83 O 0.48623 0.72125 0.37363 0.0
O84 O 0.64755 0.34452 0.67833 0.0
Cd85 Cd 0.64387 0.37477 0.69348 0.0
Cd86 Cd 0.6552 0.38728 0.6545 0.0
O87 O 0.6471 0.3539 0.64298 0.0
O88 O 0.63077 0.36491 0.72151 0.0
O89 O 0.61099 0.37898 0.69421 0.0
C90 C 0.61147 0.36984 0.71324 0.0
C91 C 0.63084 0.40876 0.63959 0.0
C92 C 0.64641 0.33908 0.65689 0.0
C93 C 0.69076 0.40416 0.6954 0.0
O94 O 0.6878 0.40015 0.67356 0.0
O95 O 0.67354 0.39838 0.70654 0.0
O96 O 0.64744 0.40422 0.62859 0.0
O97 O 0.62882 0.40179 0.6596 0.0
O98 O 0.0297 0.19269 0.90254 0.0
Cd99 Cd 0.02793 0.21263 0.87641 0.0
Cd100 Cd 1.02314 0.24454 0.90885 0.0
O101 O 0.03483 0.22191 0.9284 0.0
O102 O 0.05101 0.2089 0.8552 0.0
O103 O 0.05343 0.2398 0.87876 0.0
C104 C 0.06205 0.22904 0.86331 0.0
C105 C 0.03712 0.28075 0.92648 0.0
C106 C 0.03498 0.20152 0.92322 0.0
C107 C 0.9836 0.22691 0.86938 0.0
O108 O 0.99051 0.23807 0.88902 0.0
O109 O 0.99647 0.21558 0.86009 0.0
O110 O 1.02055 0.26692 0.93384 0.0
O111 O 0.04534 0.27438 0.90825 0.0
O112 O 0.51545 0.09324 0.28918 0.0
Cd113 Cd 0.50344 0.09836 0.32039 0.0
Cd114 Cd 0.54749 0.10144 0.32881 0.0
O115 O 0.55088 0.1142 0.29837 0.0
O116 O 0.48995 0.12555 0.32556 0.0
O117 O 0.46936 0.09231 0.30967 0.0
C118 C 0.47025 0.11313 0.31555 0.0
C119 C 0.56505 0.11754 0.36441 0.0
C120 C 0.5348 0.10302 0.28313 0.0
C121 C 0.5164 0.06015 0.33659 0.0
O122 O 0.5343 0.06718 0.32674 0.0
O123 O 0.50383 0.07369 0.34202 0.0
O124 O 0.57685 0.10883 0.35024 0.0
O125 O 0.54382 0.11905 0.35716 0.0
O126 O 0.35211 0.17912 0.56985 0.0
Cd127 Cd 0.35082 0.15086 0.54533 0.0
Cd128 Cd 0.32496 0.18764 0.5149 0.0
O129 O 0.33517 0.20336 0.55097 0.0
O130 O 0.37146 0.12921 0.55961 0.0
O131 O 0.38155 0.14696 0.53058 0.0
C132 C 0.38664 0.13354 0.54531 0.0
C133 C 0.32748 0.20552 0.47723 0.0
C134 C 0.34446 0.19735 0.56997 0.0
C135 C 0.29518 0.14003 0.52483 0.0
O136 O 0.29748 0.15858 0.51551 0.0
O137 O 0.31333 0.1343 0.5354 0.0
O138 O 0.31327 0.20931 0.49162 0.0
O139 O 0.34092 0.19247 0.48417 0.0
O140 O 0.21235 0.08453 0.82815 0.0
Cd141 Cd 0.23605 0.08338 0.85632 0.0
Cd142 Cd 0.20362 0.09582 0.87545 0.0
O143 O 0.18143 0.08705 0.84516 0.0
O144 O 0.25897 0.07149 0.83995 0.0
O145 O 0.23844 0.05265 0.86432 0.0
C146 C 0.25296 0.05326 0.84935 0.0
C147 C 0.19842 0.07686 0.90679 0.0
C148 C 0.19058 0.08428 0.82691 0.0
C149 C 0.24815 0.12914 0.87971 0.0
O150 O 0.22618 0.12658 0.8799 0.0
O151 O 0.25652 0.11255 0.87339 0.0
O152 O 0.18733 0.09251 0.90261 0.0
O153 O 0.21217 0.07151 0.8927 0.0
O154 O 0.32362 0.88024 0.07605 0.0
Cd155 Cd 0.32561 0.90242 0.05124 0.0
Cd156 Cd 0.34323 0.86592 0.03039 0.0
O157 O 0.33383 0.85063 0.05984 0.0
O158 O 0.31676 0.92786 0.06895 0.0
O159 O 0.29655 0.91157 0.036 0.0
C160 C 0.29941 0.92676 0.0532 0.0
C161 C 0.32883 0.85145 0.9917 0.0
C162 C 0.32726 0.86058 0.07701 0.0
C163 C 0.37626 0.91113 0.04038 0.0
O164 O 0.37449 0.89022 0.03523 0.0
O165 O 0.35859 0.91855 0.04532 0.0
O166 O 0.3441 0.84323 1.00382 0.0
O167 O 0.32077 0.86715 1.00189 0.0
O168 O 0.30232 0.4101 0.08238 0.0
Cd169 Cd 0.30201 0.43842 0.06169 0.0
Cd170 Cd 0.32265 0.39582 0.02971 0.0
O171 O 0.31342 0.38219 0.06237 0.0
O172 O 0.28306 0.46043 0.0775 0.0
O173 O 0.27054 0.44401 0.04306 0.0
C174 C 0.26697 0.45727 0.05989 0.0
C175 C 0.31991 0.37531 0.99023 0.0
C176 C 0.307 0.39034 0.08114 0.0
C177 C 0.35368 0.44656 0.04421 0.0
O178 O 0.3492 0.42606 0.03524 0.0
O179 O 0.33788 0.45433 0.05416 0.0
O180 O 0.33537 0.37388 1.00722 0.0
O181 O 0.30499 0.387 0.99562 0.0
O182 O 0.81796 0.21188 0.06262 0.0
Cd183 Cd 0.81267 0.19248 0.03138 0.0
Cd184 Cd 0.78688 0.22491 0.02035 0.0
O185 O 0.80036 0.23926 0.05421 0.0
O186 O 0.82816 0.16799 0.0402 0.0
O187 O 0.8397 0.1894 0.0134 0.0
C188 C 0.84186 0.17269 0.02487 0.0
C189 C 0.79349 0.24087 0.98601 0.0
C190 C 0.81197 0.22997 0.06879 0.0
C191 C 0.75991 0.17759 0.01654 0.0
O192 O 0.75834 0.19793 0.01654 0.0
O193 O 0.77978 0.17272 0.02087 0.0
O194 O 0.77837 0.24638 0.99846 0.0
O195 O 0.8061 0.22751 0.99395 0.0
O196 O 0.12243 0.43683 0.2231 0.0
Cd197 Cd 0.14262 0.46033 0.24876 0.0
Cd198 Cd 0.09175 0.47778 0.24596 0.0
O199 O 0.09512 0.4455 0.24057 0.0
O200 O 0.17502 0.45592 0.25289 0.0
O201 O 0.15168 0.45208 0.28028 0.0
C202 C 0.17209 0.45238 0.27384 0.0
C203 C 0.07845 0.49249 0.27739 0.0
C204 C 0.10212 0.44086 0.22155 0.0
C205 C 0.13547 0.50814 0.23695 0.0
O206 O 0.11318 0.50283 0.23213 0.0
O207 O 0.14714 0.49431 0.24459 0.0
O208 O 0.06454 0.48674 0.25817 0.0
O209 O 0.09885 0.48756 0.27903 0.0
O210 O 0.80312 0.91394 0.59094 0.0
Cd211 Cd 0.80178 0.94008 0.56756 0.0
Cd212 Cd 0.823 0.89755 0.53871 0.0
O213 O 0.81445 0.88541 0.57234 0.0
O214 O 0.78294 0.9636 0.58024 0.0
O215 O 0.76887 0.94162 0.54887 0.0
C216 C 0.76583 0.95725 0.56359 0.0
C217 C 0.81949 0.87591 0.49984 0.0
C218 C 0.80808 0.89432 0.59079 0.0
C219 C 0.85291 0.94876 0.54918 0.0
O220 O 0.84924 0.92787 0.54186 0.0
O221 O 0.83677 0.95647 0.55851 0.0
O222 O 0.83561 0.87536 0.51655 0.0
O223 O 0.80424 0.88719 0.50531 0.0
O224 O 0.90386 0.02042 0.16086 0.0
Cd225 Cd 0.88189 1.00806 0.18391 0.0
Cd226 Cd 0.92195 1.0074 0.21203 0.0
O227 O 0.93406 0.02766 0.18825 0.0
O228 O 0.85716 0.02542 0.18581 0.0
O229 O 0.88666 0.02703 0.21368 0.0
C230 C 0.86841 0.03406 0.20577 0.0
C231 C 0.94568 0.01637 0.24726 0.0
C232 C 0.92509 0.02985 0.16818 0.0
C233 C 0.8867 0.96352 0.19433 0.0
O234 O 0.90703 0.97384 0.20388 0.0
O235 O 0.87211 0.97423 0.18574 0.0
O236 O 0.9521 1.00614 0.22998 0.0
O237 O 0.92528 0.02126 0.24474 0.0
O238 O 0.3156 0.70751 0.56025 0.0
Cd239 Cd 0.31027 0.68678 0.52978 0.0
Cd240 Cd 0.28799 0.71939 0.51489 0.0
O241 O 0.30089 0.73549 0.54829 0.0
O242 O 0.32943 0.66465 0.5382 0.0
O243 O 0.33624 0.68574 0.50989 0.0
C244 C 0.34182 0.67057 0.52208 0.0
C245 C 0.29556 0.73412 0.47998 0.0
C246 C 0.3108 0.72657 0.56444 0.0
C247 C 0.2579 0.67318 0.51423 0.0
O248 O 0.25815 0.69369 0.51195 0.0
O249 O 0.27691 0.66709 0.52019 0.0
O250 O 0.28157 0.7414 0.49266 0.0
O251 O 0.30643 0.71942 0.48781 0.0
O252 O 0.41826 0.52912 0.66565 0.0
Cd253 Cd 0.39233 0.5184 0.68536 0.0
Cd254 Cd 0.43068 0.52383 0.72398 0.0
O255 O 0.44466 0.53756 0.69666 0.0
O256 O 0.36688 0.53515 0.68226 0.0
O257 O 0.39387 0.53945 0.71302 0.0
C258 C 0.37591 0.54519 0.70246 0.0
C259 C 0.45902 0.53082 0.75628 0.0
C260 C 0.43897 0.53798 0.67527 0.0
C261 C 0.39225 0.47937 0.70971 0.0
O262 O 0.40905 0.49263 0.72272 0.0
O263 O 0.38286 0.48552 0.69149 0.0
O264 O 0.45946 0.51657 0.7392 0.0
O265 O 0.44216 0.54138 0.7552 0.0
O266 O 0.60739 0.9409 0.72094 0.0
Cd267 Cd 0.63355 0.9635 0.74268 0.0
Cd268 Cd 0.58914 0.99035 0.74428 0.0
O269 O 0.58574 0.95647 0.74075 0.0
O270 O 0.66339 0.95372 0.74354 0.0
O271 O 0.64471 0.95678 0.77415 0.0
C272 C 0.66299 0.95312 0.76541 0.0
C273 C 0.58369 1.01123 0.77623 0.0
C274 C 0.58918 0.94875 0.72112 0.0
C275 C 0.63331 1.01234 0.72885 0.0
O276 O 0.61111 1.01002 0.72569 0.0
O277 O 0.64281 0.99707 0.7366 0.0
O278 O 0.56729 1.00594 0.75879 0.0
O279 O 0.60189 1.00255 0.77615 0.0
O280 O 0.8525 0.67986 0.07926 0.0
Cd281 Cd 0.85303 0.65238 0.05416 0.0
Cd282 Cd 0.82656 0.68949 0.02411 0.0
O283 O 0.83605 0.7045 0.06051 0.0
O284 O 0.87363 0.6304 0.06796 0.0
O285 O 0.88476 0.64991 0.04043 0.0
C286 C 0.88943 0.63573 0.05446 0.0
C287 C 0.82885 0.70833 0.98701 0.0
C288 C 0.84469 0.69805 0.07956 0.0
C289 C 0.79788 0.6406 0.03192 0.0
O290 O 0.79979 0.65962 0.02356 0.0
O291 O 0.81611 0.63505 0.04251 0.0
O292 O 0.81445 0.71146 1.00143 0.0
O293 O 0.8426 0.69545 0.99362 0.0
O294 O 1.02288 0.61105 0.78668 0.0
Cd295 Cd 1.007 0.61469 0.81597 0.0
Cd296 Cd 0.05007 0.60772 0.82817 0.0
O297 O 0.05976 0.62373 0.80089 0.0
O298 O 0.97456 0.60997 0.80001 0.0
O299 O 0.99172 0.64087 0.82247 0.0
C300 C 0.97346 0.62931 0.8092 0.0
C301 C 0.0694 0.6143 0.86465 0.0
C302 C 0.0443 0.61684 0.78357 0.0
C303 C 1.0106 0.57134 0.82963 0.0
O304 O 0.03004 0.57545 0.8216 0.0
O305 O 1.00091 0.58741 0.83456 0.0
O306 O 0.078 0.60466 0.84835 0.0
O307 O 0.05113 0.62251 0.8594 0.0
O308 O 0.82307 0.37971 0.58099 0.0
Cd309 Cd 0.82294 0.40171 0.55617 0.0
Cd310 Cd 0.84339 0.36649 0.53573 0.0
O311 O 0.83511 0.35098 0.56523 0.0
O312 O 0.815 0.42659 0.57543 0.0
O313 O 0.79271 0.41044 0.54345 0.0
C314 C 0.79663 0.42543 0.56094 0.0
C315 C 0.82999 0.3507 0.49738 0.0
C316 C 0.82798 0.36058 0.58225 0.0
C317 C 0.87313 0.41319 0.5442 0.0
O318 O 0.87315 0.39249 0.54017 0.0
O319 O 0.85463 0.41929 0.5487 0.0
O320 O 0.84624 0.34404 0.50987 0.0
O321 O 0.82045 0.36558 0.50704 0.0
O322 O 0.72914 0.57674 0.32548 0.0
Cd323 Cd 0.74691 0.5794 0.35815 0.0
Cd324 Cd 0.70653 0.5769 0.37081 0.0
O325 O 0.69539 0.56351 0.33752 0.0
O326 O 0.77666 0.57102 0.35309 0.0
O327 O 0.74905 0.55047 0.37028 0.0
C328 C 0.7687 0.5527 0.3618 0.0
C329 C 0.68937 0.5559 0.39774 0.0
C330 C 0.70751 0.56724 0.32115 0.0
C331 C 0.73996 0.62117 0.38015 0.0
O332 O 0.71829 0.61145 0.3768 0.0
O333 O 0.75537 0.60991 0.37716 0.0
O334 O 0.67807 0.56789 0.38571 0.0
O335 O 0.71111 0.55665 0.39528 0.0
Tb336 Tb 0.05117 0.04641 0.02543 0.0
Eu337 Eu 0.10456 0.07142 0.06562 0.0
C338 C 0.09593 0.04299 0.0114 0.0
C339 C 0.07931 0.0175 0.05638 0.0
C340 C 0.99114 0.04955 1.00586 0.0
C341 C 0.95261 0.0554 0.99188 0.0
C342 C 0.9693 0.04208 0.99216 0.0
C343 C 0.99607 0.07032 0.01931 0.0
C344 C 0.97961 0.08371 0.01886 0.0
C345 C 0.95774 0.07644 1.00509 0.0
C346 C 1.00925 0.03628 1.00598 0.0
O347 O 0.05059 0.06967 0.05525 0.0
O348 O 0.07581 0.06894 0.08749 0.0
O349 O 0.09187 0.10007 0.05073 0.0
O350 O 0.06606 0.08067 0.01842 0.0
C351 C 0.05427 0.06648 0.07708 0.0
O352 O 0.13243 0.0732 0.09417 0.0
O353 O 0.14063 0.08873 0.06321 0.0
O354 O 0.09906 0.05358 0.03163 0.0
O355 O 0.0742 0.03528 1.00253 0.0
O356 O 0.05953 0.01954 0.04459 0.0
O357 O 0.0978 0.03394 0.06346 0.0
C358 C 0.07821 0.09925 0.03106 0.0
O359 O 0.02717 0.04443 0.99556 0.0
O360 O 1.01598 0.03022 0.02599 0.0
C361 C 0.16606 0.06692 0.07834 0.0
C362 C 0.19756 0.03855 0.07134 0.0
C363 C 0.20507 0.05912 0.08548 0.0
C364 C 0.18945 0.07321 0.0889 0.0
C365 C 0.15865 0.04652 0.06416 0.0
C366 C 0.17415 0.03255 0.06064 0.0
C367 C 0.14899 0.08112 0.08183 0.0
H368 H 0.93585 0.04942 0.98112 0.0
H369 H 0.96522 0.02608 0.98166 0.0
H370 H 1.0127 0.07617 0.0302 0.0
H371 H 0.98388 0.09962 0.02955 0.0
H372 H 0.22305 0.06439 0.09382 0.0
H373 H 0.1956 0.0889 0.09984 0.0
H374 H 0.14072 0.04128 0.05581 0.0
H375 H 0.16755 0.01677 0.04994 0.0
Tb376 Tb 0.32729 0.81788 0.28973 0.0
Eu377 Eu 0.29259 0.77037 0.26364 0.0
C378 C 0.27788 0.81653 0.27055 0.0
C379 C 0.30198 0.78098 0.31972 0.0
C380 C 0.37226 0.87274 0.30749 0.0
C381 C 0.38907 0.91008 0.29779 0.0
C382 C 0.36996 0.89183 0.29642 0.0
C383 C 0.39419 0.87205 0.3194 0.0
C384 C 0.41321 0.89034 0.3209 0.0
C385 C 0.41067 0.90967 0.31052 0.0
C386 C 0.35135 0.85504 0.30928 0.0
O387 O 0.35058 0.79644 0.28062 0.0
O388 O 0.3257 0.7616 0.27908 0.0
O389 O 0.31339 0.7851 0.23622 0.0
O390 O 0.32627 0.82171 0.25284 0.0
C391 C 0.34687 0.77465 0.28176 0.0
O392 O 0.28477 0.7383 0.24225 0.0
O393 O 0.25631 0.75208 0.25402 0.0
O394 O 0.27847 0.80033 0.25502 0.0
O395 O 0.2907 0.81808 0.2904 0.0
O396 O 0.31883 0.79854 0.31827 0.0
O397 O 0.28827 0.76939 0.30152 0.0
C398 C 0.32225 0.80648 0.23479 0.0
O399 O 0.33292 0.85302 0.29396 0.0
O400 O 0.35489 0.8356 0.31437 0.0
C401 C 0.24911 0.71253 0.24661 0.0
C402 C 0.22269 0.66876 0.24877 0.0
C403 C 0.24742 0.67323 0.25126 0.0
C404 C 0.26053 0.69491 0.25018 0.0
C405 C 0.22448 0.70821 0.24472 0.0
C406 C 0.2114 0.68659 0.24589 0.0
C407 C 0.26213 0.7351 0.24311 0.0
H408 H 0.38663 0.92494 0.28988 0.0
H409 H 0.35317 0.89304 0.28746 0.0
H410 H 0.39648 0.85771 0.32834 0.0
H411 H 0.42975 0.88964 0.33071 0.0
H412 H 0.25667 0.65983 0.25324 0.0
H413 H 0.2795 0.69771 0.2516 0.0
H414 H 0.21527 0.72152 0.24186 0.0
H415 H 0.19242 0.68382 0.24428 0.0
Tb416 Tb 0.56098 0.0252 0.54417 0.0
Eu417 Eu 0.59616 0.07267 0.56089 0.0
C418 C 0.57143 0.04343 0.59759 0.0
C419 C 0.53787 0.0678 0.55326 0.0
C420 C 0.53468 0.9672 0.5146 0.0
C421 C 0.52705 0.92662 0.51017 0.0
C422 C 0.52859 0.94666 0.52372 0.0
C423 C 0.53989 0.9675 0.49184 0.0
C424 C 0.53822 0.94738 0.47819 0.0
C425 C 0.53134 0.92675 0.48712 0.0
C426 C 0.53421 0.98781 0.52886 0.0
O427 O 0.56306 0.04569 0.51573 0.0
O428 O 0.60138 0.06069 0.52541 0.0
O429 O 0.61996 0.04767 0.5659 0.0
O430 O 0.59689 0.01754 0.54263 0.0
C431 C 0.58298 0.05608 0.50995 0.0
O432 O 0.61095 0.10522 0.55017 0.0
O433 O 0.62401 0.09637 0.58348 0.0
O434 O 0.58376 0.06301 0.59404 0.0
O435 O 0.56276 0.0271 0.58115 0.0
O436 O 0.53571 0.04584 0.55346 0.0
O437 O 0.55911 0.08088 0.55338 0.0
C438 C 0.61756 0.02753 0.55484 0.0
O439 O 0.54731 0.99156 0.54875 0.0
O440 O 0.53507 1.00601 0.51869 0.0
C441 C 0.62557 0.13443 0.5798 0.0
C442 C 0.62775 0.17814 0.59915 0.0
C443 C 0.64849 0.17093 0.59618 0.0
C444 C 0.64738 0.14921 0.5865 0.0
C445 C 0.60477 0.14143 0.58286 0.0
C446 C 0.60586 0.16326 0.5924 0.0
C447 C 0.62495 0.11189 0.56945 0.0
H448 H 0.52223 0.91099 0.51768 0.0
H449 H 0.52461 0.94611 0.54127 0.0
H450 H 0.54473 0.98318 0.48442 0.0
H451 H 0.54155 0.94796 0.46046 0.0
H452 H 0.66555 0.18223 0.60098 0.0
H453 H 0.66355 0.14398 0.58412 0.0
H454 H 0.58779 0.13006 0.5778 0.0
H455 H 0.58966 0.16846 0.59467 0.0
Tb456 Tb 0.30573 0.29202 0.77024 0.0
Eu457 Eu 0.35738 0.28479 0.78732 0.0
C458 C 0.34959 0.32656 0.76108 0.0
C459 C 0.33349 0.26868 0.73384 0.0
C460 C 0.24619 0.298 0.77309 0.0
C461 C 0.2051 0.29623 0.77617 0.0
C462 C 0.22378 0.29925 0.76309 0.0
C463 C 0.25012 0.29484 0.79647 0.0
C464 C 0.23151 0.29166 0.80944 0.0
C465 C 0.20876 0.29171 0.79922 0.0
C466 C 0.26513 0.29795 0.75903 0.0
O467 O 0.30032 0.26794 0.79516 0.0
O468 O 0.3322 0.25303 0.79154 0.0
O469 O 0.34432 0.29555 0.82089 0.0
O470 O 0.3153 0.31178 0.80527 0.0
C471 C 0.3121 0.25251 0.79918 0.0
O472 O 0.38254 0.2633 0.78837 0.0
O473 O 0.39208 0.29643 0.80723 0.0
O474 O 0.36219 0.32024 0.77809 0.0
O475 O 0.32894 0.31455 0.75235 0.0
O476 O 0.313 0.26995 0.74089 0.0
O477 O 0.35318 0.27641 0.74806 0.0
C478 C 0.32899 0.3082 0.82363 0.0
O479 O 0.28359 0.31436 0.76485 0.0
O480 O 0.27079 0.27854 0.75593 0.0
C481 C 0.42125 0.28381 0.78971 0.0
C482 C 0.46294 0.29929 0.77114 0.0
C483 C 0.46356 0.29654 0.79474 0.0
C484 C 0.44282 0.28884 0.80395 0.0
C485 C 0.42058 0.28572 0.76602 0.0
C486 C 0.4413 0.29328 0.75678 0.0
C487 C 0.39943 0.27886 0.7999 0.0
H488 H 0.18761 0.29612 0.76794 0.0
H489 H 0.22056 0.30163 0.74504 0.0
H490 H 0.26739 0.29389 0.80443 0.0
H491 H 0.23471 0.28831 0.82722 0.0
H492 H 0.47994 0.30129 0.80629 0.0
H493 H 0.44351 0.28763 0.82231 0.0
H494 H 0.40399 0.28203 0.75479 0.0
H495 H 0.44032 0.29489 0.73849 0.0
Tb496 Tb 0.06967 0.03975 0.50921 0.0
Eu497 Eu 0.07301 0.06379 0.55848 0.0
C498 C 0.1211 0.06572 0.53453 0.0
C499 C 0.07634 1.00962 0.55184 0.0
C500 C 0.05615 0.02746 0.4459 0.0
C501 C 0.06245 0.0331 0.40648 0.0
C502 C 0.07062 0.02842 0.42842 0.0
C503 C 0.03368 0.03198 0.44135 0.0
C504 C 0.02544 0.03639 0.41945 0.0
C505 C 0.03957 0.03665 0.40166 0.0
C506 C 0.06418 0.02103 0.4685 0.0
O507 O 0.03447 0.02642 0.5198 0.0
O508 O 0.03311 0.05363 0.54765 0.0
O509 O 0.07165 0.09349 0.53616 0.0
O510 O 0.06362 0.07384 0.50049 0.0
C511 C 1.02233 0.03545 0.53404 0.0
O512 O 0.05862 0.0663 0.59097 0.0
O513 O 0.08986 0.09027 0.58589 0.0
O514 O 0.11205 0.06616 0.55412 0.0
O515 O 0.10713 0.05774 0.51517 0.0
O516 O 0.07944 1.01291 0.53014 0.0
O517 O 0.0725 0.02657 0.56532 0.0
C518 C 0.06741 0.0935 0.51349 0.0
O519 O 0.08432 0.03245 0.47903 0.0
O520 O 0.04854 0.01756 0.48254 0.0
C521 C 0.08666 0.07975 0.62367 0.0
C522 C 0.10656 0.07415 0.66812 0.0
C523 C 0.08209 0.06813 0.6618 0.0
C524 C 0.07224 0.07099 0.6398 0.0
C525 C 0.11115 0.08574 0.62995 0.0
C526 C 0.12098 0.08298 0.65197 0.0
C527 C 0.07587 0.08257 0.60054 0.0
H528 H 0.07388 0.0335 0.39321 0.0
H529 H 0.08807 0.02516 0.43162 0.0
H530 H 1.0221 0.03151 0.45451 0.0
H531 H 1.0076 0.03863 0.4163 0.0
H532 H 0.07055 0.06111 0.6738 0.0
H533 H 0.0533 0.0663 0.63538 0.0
H534 H 0.12274 0.09266 0.61795 0.0
H535 H 0.13988 0.08817 0.65648 0.0
Tb536 Tb 0.30643 0.77411 0.77959 0.0
Eu537 Eu 0.32414 0.82517 0.77114 0.0
C538 C 0.30801 0.81193 0.81985 0.0
C539 C 0.26858 0.80206 0.76055 0.0
C540 C 0.30491 0.71458 0.78168 0.0
C541 C 0.30483 0.67511 0.78188 0.0
C542 C 0.29486 0.69327 0.78745 0.0
C543 C 0.32547 0.71785 0.77113 0.0
C544 C 0.33528 0.69972 0.76537 0.0
C545 C 0.32478 0.67815 0.7703 0.0
C546 C 0.29362 0.73331 0.78573 0.0
O547 O 0.32347 0.77208 0.74838 0.0
O548 O 0.31859 0.80534 0.7364 0.0
O549 O 0.35862 0.81348 0.77834 0.0
O550 O 0.3441 0.78191 0.79509 0.0
C551 C 0.32205 0.78517 0.73186 0.0
O552 O 0.32333 0.85153 0.74851 0.0
O553 O 0.3459 0.85876 0.78112 0.0
O554 O 0.32139 0.82651 0.80912 0.0
O555 O 0.29682 0.79222 0.80935 0.0
O556 O 0.27513 0.78266 0.75998 0.0
O557 O 0.28405 0.82053 0.76931 0.0
C558 C 0.36225 0.79732 0.79093 0.0
O559 O 0.30483 0.74883 0.80187 0.0
O560 O 0.28674 0.74182 0.76726 0.0
C561 C 0.32435 0.88483 0.77053 0.0
C562 C 0.30169 0.91836 0.78461 0.0
C563 C 0.32087 0.92339 0.77202 0.0
C564 C 0.33213 0.90664 0.76496 0.0
C565 C 0.30504 0.87967 0.78274 0.0
C566 C 0.29371 0.89627 0.78964 0.0
C567 C 0.33599 0.86708 0.76391 0.0
H568 H 0.29638 0.65856 0.78569 0.0
H569 H 0.27903 0.69059 0.79569 0.0
H570 H 0.33356 0.73431 0.76681 0.0
H571 H 0.35079 0.70246 0.75663 0.0
H572 H 0.32758 0.94037 0.76819 0.0
H573 H 0.34702 0.91075 0.7555 0.0
H574 H 0.29888 0.86281 0.78716 0.0
H575 H 0.27882 0.89186 0.79904 0.0
Tb576 Tb 0.58672 0.03538 0.05649 0.0
Eu577 Eu 0.55927 0.04539 0.01054 0.0
C578 C 0.57689 0.99728 0.01305 0.0
C579 C 0.61541 0.06048 0.01987 0.0
C580 C 0.59897 0.01843 0.1143 0.0
C581 C 0.60774 0.01482 0.15477 0.0
C582 C 0.61497 0.01625 0.13301 0.0
C583 C 0.57523 0.01656 0.11675 0.0
C584 C 0.56804 0.01531 0.13841 0.0
C585 C 0.58462 0.0161 0.15788 0.0
C586 C 0.60725 0.02506 0.09293 0.0
O587 O 0.57485 0.06739 0.06767 0.0
O588 O 0.56984 0.07999 0.03247 0.0
O589 O 0.53086 0.03486 0.03228 0.0
O590 O 0.55096 0.01584 0.05612 0.0
C591 C 0.57215 0.08424 0.05514 0.0
O592 O 0.54021 0.06725 0.99241 0.0
O593 O 0.54378 0.03611 0.97475 0.0
O594 O 0.56059 1.00742 1.00408 0.0
O595 O 0.59196 1.00833 0.03083 0.0
O596 O 0.61473 0.05529 0.04102 0.0
O597 O 0.59677 0.05589 1.0044 0.0
C598 C 0.53113 0.01991 0.04687 0.0
O599 O 0.5983 1.01099 0.07493 0.0
O600 O 0.60676 0.04554 0.08896 0.0
C601 C 0.54867 0.06788 0.9545 0.0
C602 C 0.56641 0.08778 0.91678 0.0
C603 C 0.54568 0.09218 0.92425 0.0
C604 C 0.53675 0.08208 0.94289 0.0
C605 C 0.57062 0.06553 0.94877 0.0
C606 C 0.57935 0.07526 0.93005 0.0
C607 C 0.53849 0.05553 0.97263 0.0
H608 H 0.62073 0.01488 0.16942 0.0
H609 H 0.6333 0.01722 0.13113 0.0
H610 H 0.56264 0.01792 0.10227 0.0
H611 H 0.5501 0.01632 0.14004 0.0
H612 H 0.53561 0.10227 0.91486 0.0
H613 H 0.52015 0.08469 0.94766 0.0
H614 H 0.58051 0.05517 0.95799 0.0
H615 H 0.59528 0.07125 0.92501 0.0
Tb616 Tb 0.32863 0.31397 0.28804 0.0
Eu617 Eu 0.30699 0.26586 0.26135 0.0
C618 C 0.32484 0.2717 0.31797 0.0
C619 C 0.36374 0.28926 0.26139 0.0
C620 C 0.32865 0.36694 0.32186 0.0
C621 C 0.32592 0.40283 0.34082 0.0
C622 C 0.33951 0.38865 0.33204 0.0
C623 C 0.30449 0.35914 0.32216 0.0
C624 C 0.29099 0.37306 0.33082 0.0
C625 C 0.30131 0.3954 0.3394 0.0
C626 C 0.34103 0.35382 0.30744 0.0
O627 O 0.32274 0.3212 0.25128 0.0
O628 O 0.29892 0.28867 0.2333 0.0
O629 O 0.27391 0.27282 0.27519 0.0
O630 O 0.2913 0.30618 0.29645 0.0
C631 C 0.30968 0.30983 0.23248 0.0
O632 O 0.3023 0.2418 0.23077 0.0
O633 O 0.28878 0.23086 0.26147 0.0
O634 O 0.32151 0.25879 0.29811 0.0
O635 O 0.32645 0.29347 0.31758 0.0
O636 O 0.36177 0.30451 0.27811 0.0
O637 O 0.34478 0.27421 0.25204 0.0
C638 C 0.27261 0.28935 0.29042 0.0
O639 O 0.34785 0.3369 0.31593 0.0
O640 O 0.33052 0.34822 0.28646 0.0
C641 C 0.31123 0.20943 0.2437 0.0
C642 C 0.34393 0.18227 0.24876 0.0
C643 C 0.32159 0.17355 0.23607 0.0
C644 C 0.30527 0.18722 0.23338 0.0
C645 C 0.33337 0.21782 0.25657 0.0
C646 C 0.34955 0.20448 0.25899 0.0
C647 C 0.2952 0.22467 0.24194 0.0
H648 H 0.33442 0.41995 0.34742 0.0
H649 H 0.35816 0.3951 0.33192 0.0
H650 H 0.29559 0.34287 0.31393 0.0
H651 H 0.2721 0.36681 0.32875 0.0
H652 H 0.31688 0.15634 0.22824 0.0
H653 H 0.28815 0.18051 0.22349 0.0
H654 H 0.33812 0.23476 0.26505 0.0
H655 H 0.36634 0.21144 0.26943 0.0
Tb656 Tb 0.5737 0.53202 0.01138 0.0
Eu657 Eu 0.57871 0.55418 0.06157 0.0
C658 C 0.62542 0.5581 0.03653 0.0
C659 C 0.58114 0.49993 0.05298 0.0
C660 C 0.57027 0.52516 0.94781 0.0
C661 C 0.57621 0.52009 0.90778 0.0
C662 C 0.57944 0.51437 0.93027 0.0
C663 C 0.55975 0.54313 0.94305 0.0
C664 C 0.55603 0.5485 0.92055 0.0
C665 C 0.56318 0.53629 0.90241 0.0
C666 C 0.56895 0.51582 0.97001 0.0
O667 O 0.53879 0.51815 0.02202 0.0
O668 O 0.53856 0.54478 0.05087 0.0
O669 O 0.58063 0.58523 0.04075 0.0
O670 O 0.56903 0.56692 1.00469 0.0
C671 C 0.52712 0.52719 0.03668 0.0
O672 O 0.56598 0.55428 0.095 0.0
O673 O 0.59426 0.58114 0.08882 0.0
O674 O 0.61715 0.55607 0.05638 0.0
O675 O 0.61073 0.55196 0.01723 0.0
O676 O 0.57893 0.50243 0.03055 0.0
O677 O 0.58221 0.51773 0.06785 0.0
C678 C 0.57531 0.58623 0.01837 0.0
O679 O 0.5885 0.51842 0.98392 0.0
O680 O 0.55171 0.51961 0.98076 0.0
C681 C 0.59605 0.56819 0.12516 0.0
C682 C 0.62149 0.56 0.1656 0.0
C683 C 0.60332 0.57161 0.16671 0.0
C684 C 0.59067 0.57569 0.14656 0.0
C685 C 0.61409 0.55651 0.12393 0.0
C686 C 0.62682 0.55254 0.14405 0.0
C687 C 0.58224 0.57161 0.1041 0.0
H688 H 0.58274 0.51089 0.89441 0.0
H689 H 0.58795 0.5007 0.93372 0.0
H690 H 0.55285 0.55201 0.9564 0.0
H691 H 0.5459 0.56103 0.91731 0.0
H692 H 0.59909 0.57776 0.18316 0.0
H693 H 0.57668 0.5846 0.14768 0.0
H694 H 0.61819 0.55038 0.10742 0.0
H695 H 0.64061 0.5434 0.14278 0.0
Tb696 Tb 0.81485 0.2695 0.28585 0.0
Eu697 Eu 0.83209 0.32181 0.27906 0.0
C698 C 0.81392 0.30792 0.32665 0.0
C699 C 0.77666 0.29746 0.26581 0.0
C700 C 0.8105 0.20876 0.28613 0.0
C701 C 0.826 0.17737 0.2988 0.0
C702 C 0.81602 0.1957 0.30363 0.0
C703 C 0.81502 0.20323 0.26371 0.0
C704 C 0.82469 0.18483 0.25883 0.0
C705 C 0.83045 0.17174 0.2763 0.0
C706 C 0.80119 0.2287 0.29167 0.0
O707 O 0.82991 0.26732 0.25358 0.0
O708 O 0.82996 0.30285 0.24437 0.0
O709 O 0.86642 0.31186 0.29306 0.0
O710 O 0.85332 0.27459 0.29739 0.0
C711 C 0.83092 0.28208 0.23847 0.0
O712 O 0.83017 0.34874 0.25731 0.0
O713 O 0.85575 0.35467 0.28782 0.0
O714 O 0.82324 0.32418 0.31509 0.0
O715 O 0.80804 0.28682 0.31767 0.0
O716 O 0.78352 0.27821 0.26632 0.0
O717 O 0.79168 0.31635 0.27435 0.0
C718 C 0.8706 0.29277 0.29968 0.0
O719 O 0.81433 0.24361 0.30735 0.0
O720 O 0.79287 0.23798 0.27434 0.0
C721 C 0.83672 0.38325 0.27924 0.0
C722 C 0.82057 0.42063 0.2955 0.0
C723 C 0.83647 0.42263 0.27914 0.0
C724 C 0.84453 0.40397 0.27105 0.0
C725 C 0.82046 0.38106 0.29509 0.0
C726 C 0.81252 0.39961 0.30323 0.0
C727 C 0.84529 0.36369 0.27151 0.0
H728 H 0.8304 0.16777 0.31269 0.0
H729 H 0.81286 0.19985 0.3211 0.0
H730 H 0.81113 0.21309 0.24987 0.0
H731 H 0.82729 0.18072 0.24118 0.0
H732 H 0.84272 0.43858 0.27268 0.0
H733 H 0.85692 0.40575 0.25861 0.0
H734 H 0.81419 0.36505 0.30144 0.0
H735 H 0.80058 0.39758 0.31608 0.0
Tb736 Tb 0.07728 0.5463 0.56134 0.0
Eu737 Eu 0.04872 0.5555 0.51563 0.0
C738 C 0.06494 0.50723 0.51886 0.0
C739 C 0.10505 0.5695 0.5237 0.0
C740 C 0.09058 0.52542 0.61712 0.0
C741 C 0.10011 0.51495 0.65521 0.0
C742 C 0.10663 0.51957 0.63367 0.0
C743 C 0.06715 0.52347 0.62087 0.0
C744 C 0.06073 0.51922 0.64241 0.0
C745 C 0.0778 0.51706 0.66046 0.0
C746 C 0.09872 0.53601 0.59729 0.0
O747 O 0.06593 0.57849 0.57245 0.0
O748 O 0.0586 0.59014 0.53706 0.0
O749 O 1.02147 0.54634 0.5391 0.0
O750 O 0.04193 0.52634 0.56128 0.0
C751 C 0.0621 0.59482 0.55968 0.0
O752 O 0.03398 0.57895 0.49562 0.0
O753 O 0.0278 0.54416 0.48214 0.0
O754 O 0.04825 0.51717 0.5106 0.0
O755 O 0.08129 0.51891 0.53532 0.0
O756 O 0.10427 0.56699 0.54551 0.0
O757 O 0.08634 0.56319 0.50826 0.0
C758 C 1.02195 0.53072 0.55294 0.0
O759 O 0.09351 0.52335 0.57791 0.0
O760 O 0.09422 0.55569 0.59515 0.0
C761 C 0.03466 0.5711 0.45632 0.0
C762 C 0.0486 0.57833 0.41296 0.0
C763 C 0.02744 0.58333 0.41855 0.0
C764 C 1.02044 0.57959 0.44013 0.0
C765 C 0.05675 0.56819 0.45164 0.0
C766 C 0.06366 0.57171 0.43013 0.0
C767 C 0.02634 0.56434 0.47772 0.0
H768 H 0.11335 0.51239 0.6685 0.0
H769 H 0.12464 0.52034 0.63064 0.0
H770 H 0.05441 0.52739 0.60792 0.0
H771 H 0.04325 0.52067 0.64549 0.0
H772 H 1.01569 0.58885 0.40582 0.0
H773 H 1.00354 0.58238 0.44379 0.0
H774 H 0.06808 0.56193 0.46414 0.0
H775 H 0.07995 0.56742 0.4265 0.0
Tb776 Tb 0.80222 0.7908 0.28018 0.0
Eu777 Eu 0.85473 0.78516 0.29636 0.0
C778 C 0.84465 0.82559 0.26909 0.0
C779 C 0.82976 0.76736 0.24365 0.0
C780 C 0.74071 0.79006 0.28161 0.0
C781 C 0.69902 0.77662 0.28269 0.0
C782 C 0.7177 0.78362 0.27021 0.0
C783 C 0.74483 0.78998 0.30557 0.0
C784 C 0.72631 0.78303 0.31799 0.0
C785 C 0.70326 0.77595 0.30667 0.0
C786 C 0.76074 0.79458 0.26861 0.0
O787 O 0.79671 0.75875 0.29436 0.0
O788 O 0.83219 0.76195 0.31642 0.0
O789 O 0.84665 0.80727 0.32659 0.0
O790 O 0.80656 0.8009 0.31816 0.0
C791 C 0.80981 0.75272 0.31123 0.0
O792 O 0.88073 0.76447 0.29914 0.0
O793 O 0.89035 0.79968 0.3126 0.0
O794 O 0.85804 0.81114 0.27122 0.0
O795 O 0.825 0.82286 0.27799 0.0
O796 O 0.81469 0.78029 0.24712 0.0
O797 O 0.84369 0.76354 0.26147 0.0
C798 C 0.82602 0.80871 0.33289 0.0
O799 O 0.77782 0.81131 0.27757 0.0
O800 O 0.76852 0.77696 0.26236 0.0
C801 C 0.9178 0.78553 0.29422 0.0
C802 C 0.95688 0.80311 0.2727 0.0
C803 C 0.95991 0.79512 0.29441 0.0
C804 C 0.94044 0.78652 0.30519 0.0
C805 C 0.91463 0.79171 0.2718 0.0
C806 C 0.93405 0.80048 0.2611 0.0
C807 C 0.89784 0.78161 0.30719 0.0
H808 H 0.68134 0.77145 0.27358 0.0
H809 H 0.71428 0.78343 0.25168 0.0
H810 H 0.76247 0.79462 0.31468 0.0
H811 H 0.73021 0.78238 0.33636 0.0
H812 H 0.97733 0.79648 0.30352 0.0
H813 H 0.94307 0.78178 0.32251 0.0
H814 H 0.89715 0.7911 0.26319 0.0
H815 H 0.93111 0.80657 0.24445 0.0
Tb816 Tb 0.83288 0.31923 0.79508 0.0
Eu817 Eu 0.79515 0.2734 0.76986 0.0
C818 C 0.78403 0.32149 0.7729 0.0
C819 C 0.80487 0.28467 0.82501 0.0
C820 C 0.87621 0.37543 0.8128 0.0
C821 C 0.88275 0.4156 0.81028 0.0
C822 C 0.8674 0.3947 0.80946 0.0
C823 C 0.90066 0.37736 0.81609 0.0
C824 C 0.91601 0.39826 0.81685 0.0
C825 C 0.90719 0.41766 0.81456 0.0
C826 C 0.86037 0.35414 0.81622 0.0
O827 O 0.85263 0.29487 0.7841 0.0
O828 O 0.82589 0.26291 0.78817 0.0
O829 O 0.81709 0.28787 0.74281 0.0
O830 O 0.83141 0.32452 0.75875 0.0
C831 C 0.84766 0.27386 0.78853 0.0
O832 O 0.78849 0.24269 0.74648 0.0
O833 O 0.75951 0.25297 0.76142 0.0
O834 O 0.78227 0.30324 0.75921 0.0
O835 O 0.79729 0.32459 0.79282 0.0
O836 O 0.82471 0.29834 0.82253 0.0
O837 O 0.78851 0.27648 0.80735 0.0
C838 C 0.82653 0.30907 0.74091 0.0
O839 O 0.83789 0.35215 0.81062 0.0
O840 O 0.8668 0.33555 0.8108 0.0
C841 C 0.75447 0.21434 0.7478 0.0
C842 C 0.72952 0.16947 0.74486 0.0
C843 C 0.737 0.17876 0.72515 0.0
C844 C 0.74938 0.20097 0.72664 0.0
C845 C 0.74766 0.20506 0.76774 0.0
C846 C 0.73531 0.18266 0.76628 0.0
C847 C 0.76597 0.23804 0.74792 0.0
H848 H 0.87546 0.43024 0.80811 0.0
H849 H 0.84865 0.39384 0.80708 0.0
H850 H 0.90795 0.36286 0.81907 0.0
H851 H 0.93475 0.39934 0.82039 0.0
H852 H 0.73316 0.16885 0.70852 0.0
H853 H 0.75464 0.20785 0.71111 0.0
H854 H 0.75154 0.21516 0.78426 0.0
H855 H 0.72971 0.17586 0.78172 0.0
Tb856 Tb 0.82742 0.82051 0.80067 0.0
Eu857 Eu 0.80266 0.77333 0.77362 0.0
C858 C 0.82489 0.77724 0.82942 0.0
C859 C 0.86003 0.79443 0.77248 0.0
C860 C 0.82715 0.8758 0.82596 0.0
C861 C 0.82162 0.91158 0.84255 0.0
C862 C 0.83647 0.89693 0.83833 0.0
C863 C 0.803 0.86937 0.81822 0.0
C864 C 0.78823 0.88353 0.82293 0.0
C865 C 0.79735 0.90481 0.83494 0.0
C866 C 0.84192 0.8602 0.82018 0.0
O867 O 0.81653 0.82942 0.76505 0.0
O868 O 0.79866 0.79577 0.74448 0.0
O869 O 0.77066 0.78474 0.7862 0.0
O870 O 0.79132 0.81381 0.81197 0.0
C871 C 0.80678 0.81763 0.74504 0.0
O872 O 0.80051 0.74697 0.74572 0.0
O873 O 0.7767 0.74154 0.77102 0.0
O874 O 0.81496 0.76444 0.81013 0.0
O875 O 0.83219 0.79912 0.8289 0.0
O876 O 0.85915 0.81025 0.78898 0.0
O877 O 0.84062 0.7793 0.76424 0.0
C878 C 0.77112 0.79957 0.80394 0.0
O879 O 0.8393 0.84248 0.83114 0.0
O880 O 0.84111 0.85473 0.79828 0.0
C881 C 0.79539 0.71239 0.76061 0.0
C882 C 0.82676 0.6853 0.7734 0.0
C883 C 0.82049 0.68753 0.75003 0.0
C884 C 0.80487 0.70097 0.74368 0.0
C885 C 0.79977 0.70822 0.78372 0.0
C886 C 0.81531 0.69478 0.79004 0.0
C887 C 0.78619 0.73215 0.75503 0.0
H888 H 0.82901 0.92818 0.85139 0.0
H889 H 0.85515 0.90224 0.84422 0.0
H890 H 0.79558 0.85363 0.80782 0.0
H891 H 0.76975 0.87825 0.81613 0.0
H892 H 0.82907 0.68043 0.73682 0.0
H893 H 0.80185 0.70403 0.7258 0.0
H894 H 0.79271 0.71672 0.79723 0.0
H895 H 0.81946 0.69292 0.80812 0.0
Tb896 Tb 0.56194 0.55672 0.53246 0.0
Eu897 Eu 0.61275 0.5752 0.56792 0.0
C898 C 0.60586 0.53873 0.52245 0.0
C899 C 0.57707 0.52739 0.57085 0.0
C900 C 0.50769 0.56665 0.50276 0.0
C901 C 0.46896 0.57247 0.48929 0.0
C902 C 0.48561 0.5591 0.48948 0.0
C903 C 0.51324 0.58803 0.51516 0.0
C904 C 0.4966 0.60125 0.51518 0.0
C905 C 0.47412 0.59343 0.50262 0.0
C906 C 0.52422 0.55173 0.50535 0.0
O907 O 0.55725 0.58212 0.55833 0.0
O908 O 0.58418 0.57951 0.5889 0.0
O909 O 0.60171 0.60476 0.55343 0.0
O910 O 0.58878 0.58185 0.5212 0.0
C911 C 0.56394 0.58352 0.58056 0.0
O912 O 0.63662 0.57585 0.59946 0.0
O913 O 0.64861 0.5954 0.57218 0.0
O914 O 0.61921 0.556 0.53588 0.0
O915 O 0.58277 0.53391 0.52085 0.0
O916 O 0.55994 0.53166 0.55668 0.0
O917 O 0.59857 0.53985 0.5747 0.0
C918 C 0.59338 0.60212 0.53163 0.0
O919 O 0.54502 0.55924 0.49957 0.0
O920 O 0.52558 0.5434 0.52505 0.0
C921 C 0.67379 0.57385 0.58908 0.0
C922 C 0.70301 0.54299 0.58447 0.0
C923 C 0.69701 0.54933 0.60618 0.0
C924 C 0.68252 0.56461 0.60844 0.0
C925 C 0.68078 0.56834 0.56761 0.0
C926 C 0.69524 0.55315 0.56536 0.0
C927 C 0.6548 0.58619 0.59055 0.0
H928 H 0.45171 0.566 0.47957 0.0
H929 H 0.48099 0.54262 0.47987 0.0
H930 H 0.53023 0.59423 0.52542 0.0
H931 H 0.50114 0.61743 0.5254 0.0
H932 H 0.70259 0.54173 0.62124 0.0
H933 H 0.67723 0.56839 0.62512 0.0
H934 H 0.67431 0.57502 0.55225 0.0
H935 H 0.69991 0.549 0.54849 0.0
Tb936 Tb 0.06396 0.52634 0.05343 0.0
Eu937 Eu 0.09849 0.57362 0.06781 0.0
C938 C 0.0779 0.54279 0.10414 0.0
C939 C 0.04064 0.56974 0.0615 0.0
C940 C 0.0435 0.46751 0.03038 0.0
C941 C 0.03657 0.42711 0.02421 0.0
C942 C 0.03116 0.44635 0.03439 0.0
C943 C 0.06134 0.46939 0.01615 0.0
C944 C 0.06665 0.45015 1.00582 0.0
C945 C 0.0544 0.42886 0.00989 0.0
C946 C 0.0389 0.48753 0.0424 0.0
O947 O 0.07774 0.53686 0.0221 0.0
O948 O 0.08155 0.57402 0.0323 0.0
O949 O 0.12239 0.55119 0.05449 0.0
O950 O 0.09949 0.51831 0.06185 0.0
C951 C 0.07882 0.55725 0.01653 0.0
O952 O 0.11838 0.60613 0.06034 0.0
O953 O 0.12289 0.59563 0.09456 0.0
O954 O 0.09737 0.55402 0.09827 0.0
O955 O 0.05958 0.53618 0.08856 0.0
O956 O 0.03849 0.54883 0.05209 0.0
O957 O 0.06175 0.58161 0.07109 0.0
C958 C 0.12027 0.52978 0.05781 0.0
O959 O 0.05156 0.49397 0.06241 0.0
O960 O 0.03805 0.50424 0.03013 0.0
C961 C 0.12422 0.63391 0.09198 0.0
C962 C 0.11849 0.67551 0.11099 0.0
C963 C 0.12692 0.67361 0.08962 0.0
C964 C 0.12986 0.65295 0.08023 0.0
C965 C 0.11568 0.63585 0.11332 0.0
C966 C 0.11293 0.65649 0.12277 0.0
C967 C 0.12708 0.61214 0.08188 0.0
H968 H 0.02666 0.41085 0.02735 0.0
H969 H 1.01753 0.44471 0.04554 0.0
H970 H 0.07132 0.48571 0.01326 0.0
H971 H 0.08054 0.4519 0.99497 0.0
H972 H 0.13161 0.68817 0.08038 0.0
H973 H 0.13653 0.65183 0.06381 0.0
H974 H 0.11107 0.62144 0.12279 0.0
H975 H 0.10626 0.65756 0.13919 0.0
H976 H 1.01706 0.15769 0.92764 0.0
H977 H 0.11001 0.13593 0.02102 0.0
H978 H 0.06868 0.21596 0.96007 0.0
H979 H 0.03615 0.10908 0.022 0.0
H980 H 0.09969 0.1647 0.99704 0.0
H981 H 0.02834 0.13657 0.95914 0.0
C982 C 0.03083 0.16593 0.94135 0.0
C983 C 0.04194 0.18846 0.94149 0.0
C984 C 0.08588 0.15278 1.00311 0.0
C985 C 0.05503 0.16462 0.97704 0.0
C986 C 0.09173 0.13657 0.01678 0.0
C987 C 0.07377 0.12003 0.02291 0.0
C988 C 0.06209 0.15182 0.99554 0.0
C989 C 0.05036 0.12129 0.01704 0.0
C990 C 0.03712 0.15403 0.95931 0.0
C991 C 0.05965 0.19856 0.95962 0.0
N992 N 0.04512 0.1366 1.00322 0.0
N993 N 0.06594 0.18645 0.97669 0.0
H994 H 0.22543 0.90147 0.1842 0.0
H995 H 0.26582 0.85013 0.29694 0.0
H996 H 0.19748 0.91004 0.24838 0.0
H997 H 0.27445 0.82898 0.22721 0.0
H998 H 0.25314 0.88312 0.28324 0.0
H999 H 0.258 0.8891 0.20471 0.0
C1000 C 0.2266 0.90167 0.20276 0.0
C1001 C 0.20797 0.90542 0.21441 0.0
C1002 C 0.25818 0.87137 0.27108 0.0
C1003 C 0.24475 0.89084 0.23773 0.0
C1004 C 0.26511 0.85249 0.27882 0.0
C1005 C 0.27035 0.83649 0.26304 0.0
C1006 C 0.25693 0.87431 0.24753 0.0
C1007 C 0.26976 0.84051 0.23984 0.0
C1008 C 0.24512 0.89436 0.21443 0.0
C1009 C 0.21093 0.9062 0.23855 0.0
N1010 N 0.26299 0.85893 0.23278 0.0
N1011 N 0.2285 0.89804 0.24938 0.0
H1012 H 0.54448 0.81476 0.39337 0.0
H1013 H 0.49554 0.88999 0.48521 0.0
H1014 H 0.49536 0.78857 0.43927 0.0
H1015 H 0.55861 0.9149 0.45519 0.0
H1016 H 0.4907 0.85395 0.46261 0.0
H1017 H 0.54514 0.85297 0.41001 0.0
C1018 C 0.53358 0.8171 0.40666 0.0
C1019 C 0.51999 0.7986 0.41514 0.0
C1020 C 0.50557 0.8673 0.46089 0.0
C1021 C 0.52063 0.84185 0.43404 0.0
C1022 C 0.50843 0.88784 0.4739 0.0
C1023 C 0.52774 0.90532 0.47237 0.0
C1024 C 0.52208 0.86419 0.44615 0.0
C1025 C 0.54348 0.90182 0.45688 0.0
C1026 C 0.53407 0.83881 0.41621 0.0
C1027 C 0.50627 0.80241 0.43244 0.0
N1028 N 0.54041 0.88153 0.44444 0.0
N1029 N 0.507 0.82361 0.44136 0.0
H1030 H 0.60715 0.34841 0.75189 0.0
H1031 H 0.46766 0.33051 0.74021 0.0
H1032 H 0.56693 0.37451 0.69862 0.0
H1033 H 0.5074 0.29245 0.78136 0.0
H1034 H 0.5039 0.34947 0.72694 0.0
H1035 H 0.57081 0.33163 0.76615 0.0
C1036 C 0.59068 0.35088 0.74337 0.0
C1037 C 0.59002 0.36277 0.72396 0.0
C1038 C 0.50465 0.33693 0.73882 0.0
C1039 C 0.54836 0.34336 0.74005 0.0
C1040 C 0.48397 0.32594 0.74625 0.0
C1041 C 0.48453 0.30986 0.76192 0.0
C1042 C 0.52604 0.33191 0.74726 0.0
C1043 C 0.50621 0.30496 0.76954 0.0
C1044 C 0.56993 0.34114 0.75143 0.0
C1045 C 0.5682 0.36543 0.71362 0.0
N1046 N 0.52613 0.31601 0.76218 0.0
N1047 N 0.54815 0.35566 0.72174 0.0
H1048 H 0.09538 0.86975 0.57694 0.0
H1049 H 0.06288 0.99334 0.59314 0.0
H1050 H 0.05304 0.88675 0.62783 0.0
H1051 H 0.08991 0.97082 0.53263 0.0
H1052 H 0.06193 0.95633 0.60731 0.0
H1053 H 0.09619 0.90662 0.5623 0.0
C1054 C 0.08616 0.88103 0.58522 0.0
C1055 C 0.07399 0.87413 0.60396 0.0
C1056 C 0.06817 0.95932 0.59093 0.0
C1057 C 0.07524 0.91821 0.58684 0.0
C1058 C 0.06881 0.98085 0.58268 0.0
C1059 C 0.07657 0.98621 0.5613 0.0
C1060 C 0.07563 0.94208 0.57821 0.0
C1061 C 0.08376 0.9683 0.54912 0.0
C1062 C 0.08666 0.90244 0.57667 0.0
C1063 C 0.06264 0.89047 0.61342 0.0
N1064 N 0.08324 0.94767 0.55764 0.0
N1065 N 0.06368 0.91122 0.60503 0.0
H1066 H 0.51611 0.82975 0.83772 0.0
H1067 H 0.37768 0.76703 0.8188 0.0
H1068 H 0.48904 0.77046 0.86957 0.0
H1069 H 0.40497 0.82682 0.78778 0.0
H1070 H 0.41781 0.76749 0.83664 0.0
H1071 H 0.47615 0.82844 0.81892 0.0
C1072 C 0.50188 0.81632 0.84076 0.0
C1073 C 0.50652 0.80015 0.85545 0.0
C1074 C 0.41512 0.78052 0.8259 0.0
C1075 C 0.45965 0.7986 0.83358 0.0
C1076 C 0.392 0.78027 0.81556 0.0
C1077 C 0.38735 0.79689 0.80145 0.0
C1078 C 0.43436 0.79755 0.82239 0.0
C1079 C 0.4072 0.81353 0.79831 0.0
C1080 C 0.47884 0.81562 0.82994 0.0
C1081 C 0.48679 0.78333 0.85848 0.0
N1082 N 0.42946 0.81342 0.80857 0.0
N1083 N 0.46457 0.78304 0.8478 0.0
H1084 H 0.5546 0.20626 0.14386 0.0
H1085 H 0.57465 0.1243 0.03432 0.0
H1086 H 0.57673 0.23222 0.08207 0.0
H1087 H 0.56774 0.1015 0.10107 0.0
H1088 H 0.57308 0.16229 0.05024 0.0
H1089 H 0.55669 0.16845 0.128 0.0
C1090 C 0.55975 0.20431 0.12683 0.0
C1091 C 0.5653 0.22358 0.11468 0.0
C1092 C 0.5719 0.14914 0.06159 0.0
C1093 C 0.56775 0.17821 0.09561 0.0
C1094 C 0.57278 0.12698 0.05238 0.0
C1095 C 0.57143 0.10858 0.06594 0.0
C1096 C 0.56921 0.15401 0.08498 0.0
C1097 C 0.569 0.11438 0.08941 0.0
C1098 C 0.56105 0.18225 0.1177 0.0
C1099 C 0.57206 0.21866 0.09258 0.0
N1100 N 0.56786 0.13599 0.09785 0.0
N1101 N 0.57292 0.19701 0.08401 0.0
H1102 H 0.13104 0.24682 0.33718 0.0
H1103 H 0.26229 0.3191 0.32499 0.0
H1104 H 0.16222 0.30973 0.37782 0.0
H1105 H 0.22988 0.25703 0.28337 0.0
H1106 H 0.2266 0.31631 0.34399 0.0
H1107 H 0.16652 0.25038 0.31769 0.0
C1108 C 0.14522 0.26147 0.34214 0.0
C1109 C 0.14292 0.27794 0.35955 0.0
C1110 C 0.22712 0.30328 0.33064 0.0
C1111 C 0.18491 0.28222 0.33659 0.0
C1112 C 0.24775 0.30493 0.31951 0.0
C1113 C 0.24978 0.28847 0.30193 0.0
C1114 C 0.20765 0.28487 0.32464 0.0
C1115 C 0.22974 0.27041 0.29647 0.0
C1116 C 0.16575 0.2635 0.33084 0.0
C1117 C 0.16258 0.29643 0.36471 0.0
N1118 N 0.20999 0.26915 0.30758 0.0
N1119 N 0.18232 0.29798 0.3535 0.0
H1120 H 0.92008 0.02626 0.12103 0.0
H1121 H 0.05555 0.0816 0.12262 0.0
H1122 H 0.96551 0.06103 0.18175 0.0
H1123 H 1.00845 0.0505 0.06163 0.0
H1124 H 1.0216 0.07904 0.14386 0.0
H1125 H 0.95072 0.04066 0.09765 0.0
C1126 C 0.93628 0.03732 0.12933 0.0
C1127 C 0.9406 0.04204 0.1533 0.0
C1128 C 1.01873 0.07295 0.12574 0.0
C1129 C 0.97567 0.05822 0.12699 0.0
C1130 C 0.03808 0.07427 0.11373 0.0
C1131 C 0.03467 0.06608 0.09042 0.0
C1132 C 0.99608 0.06302 0.11432 0.0
C1133 C 1.01178 0.05704 0.07953 0.0
C1134 C 0.95382 0.04545 0.11606 0.0
C1135 C 0.96179 0.05655 0.1633 0.0
N1136 N 0.99335 0.05552 0.09161 0.0
N1137 N 0.97875 0.06384 0.15012 0.0
H1138 H 0.30817 0.71163 0.44282 0.0
H1139 H 0.30841 0.80799 0.36009 0.0
H1140 H 0.28713 0.77268 0.4635 0.0
H1141 H 0.28988 0.73828 0.33279 0.0
H1142 H 0.30692 0.79669 0.39909 0.0
H1143 H 0.30836 0.72247 0.4034 0.0
C1144 C 0.30387 0.72743 0.43916 0.0
C1145 C 0.2977 0.74131 0.45654 0.0
C1146 C 0.30304 0.78387 0.38456 0.0
C1147 C 0.29801 0.75382 0.41152 0.0
C1148 C 0.30389 0.79028 0.3623 0.0
C1149 C 0.2991 0.77405 0.34312 0.0
C1150 C 0.29803 0.76101 0.38786 0.0
C1151 C 0.29342 0.75134 0.34706 0.0
C1152 C 0.30377 0.73348 0.41662 0.0
C1153 C 0.29201 0.76147 0.45068 0.0
N1154 N 0.29334 0.74547 0.369 0.0
N1155 N 0.29249 0.7672 0.42876 0.0
H1156 H 0.61754 0.9641 0.68903 0.0
H1157 H 0.53387 0.02047 0.61534 0.0
H1158 H 0.54949 0.96419 0.71039 0.0
H1159 H 0.60776 0.05087 0.63198 0.0
H1160 H 0.53662 0.99819 0.64802 0.0
H1161 H 0.61179 0.99223 0.6632 0.0
C1162 C 0.60114 0.96963 0.68793 0.0
C1163 C 0.58395 0.96187 0.70198 0.0
C1164 C 0.55203 1.01026 0.64491 0.0
C1165 C 0.57755 0.99424 0.67269 0.0
C1166 C 0.55043 0.02307 0.62648 0.0
C1167 C 0.57066 0.03736 0.62109 0.0
C1168 C 0.57412 1.01135 0.65731 0.0
C1169 C 0.59179 0.04007 0.63574 0.0
C1170 C 0.59811 0.98599 0.67351 0.0
C1171 C 0.56315 0.96983 0.69986 0.0
N1172 N 0.59317 0.02661 0.65286 0.0
N1173 N 0.56046 0.98562 0.68542 0.0
H1174 H 0.29067 0.37698 0.94951 0.0
H1175 H 0.35578 0.30554 0.86509 0.0
H1176 H 0.34974 0.34968 0.97334 0.0
H1177 H 0.29813 0.33398 0.83939 0.0
H1178 H 0.35314 0.32105 0.90425 0.0
H1179 H 0.29233 0.36126 0.90989 0.0
C1180 C 0.30397 0.36762 0.94662 0.0
C1181 C 0.32002 0.36483 0.96545 0.0
C1182 C 0.34102 0.32401 0.89016 0.0
C1183 C 0.32213 0.34645 0.919 0.0
C1184 C 0.34251 0.31507 0.86747 0.0
C1185 C 0.32727 0.31828 0.84819 0.0
C1186 C 0.32403 0.33652 0.89439 0.0
C1187 C 0.31048 0.33092 0.85324 0.0
C1188 C 0.30494 0.35861 0.92373 0.0
C1189 C 0.33683 0.35245 0.95986 0.0
N1190 N 0.30936 0.33942 0.8755 0.0
N1191 N 0.33739 0.3439 0.93754 0.0
H1192 H 0.98834 1.00626 0.25743 0.0
H1193 H 1.00952 0.06311 0.38714 0.0
H1194 H 0.93915 0.03997 0.28674 0.0
H1195 H 0.04613 1.01394 0.36184 0.0
H1196 H 0.98812 0.06088 0.34856 0.0
H1197 H 1.01411 0.01504 0.29392 0.0
C1198 C 0.98297 0.01557 0.27155 0.0
C1199 C 0.96146 0.02221 0.26916 0.0
C1200 C 1.00105 0.0508 0.35147 0.0
C1201 C 0.99096 0.03238 0.31093 0.0
C1202 C 1.01323 0.05201 0.37346 0.0
C1203 C 0.02945 0.03847 0.37783 0.0
C1204 C 1.00528 0.03611 0.33373 0.0
C1205 C 0.03396 0.02482 0.35932 0.0
C1206 C 0.99772 0.02059 0.29236 0.0
C1207 C 0.9555 0.03437 0.28796 0.0
N1208 N 1.02179 0.02387 0.33812 0.0
N1209 N 0.97018 0.03901 0.30816 0.0
H1210 H 0.3023 0.76692 0.582 0.0
H1211 H 0.33046 0.74486 0.71421 0.0
H1212 H 0.32899 0.71013 0.60283 0.0
H1213 H 0.31549 0.80688 0.69344 0.0
H1214 H 0.32967 0.73164 0.67352 0.0
H1215 H 0.3068 0.78182 0.62267 0.0
C1216 C 0.30929 0.75767 0.59503 0.0
C1217 C 0.31522 0.73718 0.5888 0.0
C1218 C 0.32669 0.7482 0.6779 0.0
C1219 C 0.32015 0.75404 0.63559 0.0
C1220 C 0.32715 0.75576 0.70117 0.0
C1221 C 0.32305 0.77705 0.70742 0.0
C1222 C 0.32188 0.7619 0.66063 0.0
C1223 C 0.31879 0.79036 0.68961 0.0
C1224 C 0.31181 0.76617 0.6183 0.0
C1225 C 0.32413 0.72596 0.60663 0.0
N1226 N 0.31819 0.78255 0.66715 0.0
N1227 N 0.32615 0.73442 0.62908 0.0
H1228 H 0.61804 0.02981 0.81174 0.0
H1229 H 0.53504 0.08593 0.87797 0.0
H1230 H 0.54808 0.03267 0.78229 0.0
H1231 H 0.60961 0.09708 0.90058 0.0
H1232 H 0.5418 0.07479 0.83945 0.0
H1233 H 0.61717 0.05935 0.84162 0.0
C1234 C 0.60244 0.03661 0.8116 0.0
C1235 C 0.58286 0.02843 0.79482 0.0
C1236 C 0.55682 0.08014 0.85269 0.0
C1237 C 0.58192 0.06254 0.82876 0.0
C1238 C 0.55302 0.08687 0.87483 0.0
C1239 C 0.57164 0.09125 0.893 0.0
C1240 C 0.57923 0.07736 0.84887 0.0
C1241 C 0.59451 0.09252 0.88739 0.0
C1242 C 0.6021 0.05373 0.82848 0.0
C1243 C 0.56336 0.03819 0.79517 0.0
N1244 N 0.59759 0.0847 0.86596 0.0
N1245 N 0.56327 0.05457 0.81208 0.0
H1246 H 0.30723 0.34477 0.08622 0.0
H1247 H 0.31881 0.3555 0.22632 0.0
H1248 H 0.30538 0.40565 0.12704 0.0
H1249 H 0.29712 0.29124 0.18591 0.0
H1250 H 0.3174 0.37394 0.19059 0.0
H1251 H 0.3069 0.32528 0.12156 0.0
C1252 C 0.30671 0.35421 0.10245 0.0
C1253 C 0.30619 0.37727 0.1029 0.0
C1254 C 0.31288 0.3558 0.18937 0.0
C1255 C 0.3063 0.35449 0.14465 0.0
C1256 C 0.31369 0.34508 0.21003 0.0
C1257 C 0.30793 0.32141 0.20985 0.0
C1258 C 0.30678 0.34313 0.16751 0.0
C1259 C 0.30156 0.30939 0.18754 0.0
C1260 C 0.30651 0.3429 0.12286 0.0
C1261 C 0.30564 0.38801 0.12512 0.0
N1262 N 0.30137 0.32021 0.16768 0.0
N1263 N 0.30591 0.3768 0.14464 0.0
H1264 H 0.26407 0.93315 0.02103 0.0
H1265 H 0.23029 0.0286 0.10374 0.0
H1266 H 0.2993 0.95693 0.08975 0.0
H1267 H 0.20129 1.01254 0.03205 0.0
H1268 H 0.25486 1.00148 0.09899 0.0
H1269 H 0.23955 0.96078 0.0249 0.0
C1270 C 0.2666 0.9441 0.03692 0.0
C1271 C 0.28379 0.94273 0.05507 0.0
C1272 C 0.24319 1.00393 0.08425 0.0
C1273 C 0.25588 0.97433 0.05962 0.0
C1274 C 0.22925 0.01958 0.08692 0.0
C1275 C 0.21362 0.02294 0.0683 0.0
C1276 C 0.24154 0.99141 0.06279 0.0
C1277 C 0.2128 1.01033 0.04701 0.0
C1278 C 0.25267 0.95991 0.0391 0.0
C1279 C 0.28633 0.95739 0.07526 0.0
N1280 N 0.22649 0.99511 0.04486 0.0
N1281 N 0.27256 0.9725 0.07698 0.0
H1282 H 0.75782 0.63925 1.00134 0.0
H1283 H 0.66384 0.56525 0.07119 0.0
H1284 H 0.78006 0.60884 0.06109 0.0
H1285 H 0.64726 0.57582 1.00021 0.0
H1286 H 0.70534 0.58332 0.06958 0.0
H1287 H 0.71719 0.6187 1.00216 0.0
C1288 C 0.75435 0.6281 0.01457 0.0
C1289 C 0.77303 0.62585 0.03099 0.0
C1290 C 0.69268 0.58163 0.0543 0.0
C1291 C 0.72531 0.60227 0.03245 0.0
C1292 C 0.66877 0.57126 0.0552 0.0
C1293 C 0.65149 0.56864 0.03577 0.0
C1294 C 0.69981 0.59014 0.03395 0.0
C1295 C 0.65956 0.5771 0.01568 0.0
C1296 C 0.7309 0.61632 0.01504 0.0
C1297 C 0.76671 0.6111 0.04777 0.0
N1298 N 0.68273 0.58748 0.01539 0.0
N1299 N 0.74365 0.60023 0.04819 0.0
H1300 H 0.81221 0.55313 0.34951 0.0
H1301 H 0.77683 0.42342 0.30555 0.0
H1302 H 0.74963 0.50862 0.36488 0.0
H1303 H 0.8476 0.46286 0.3085 0.0
H1304 H 0.76601 0.45525 0.32569 0.0
H1305 H 0.82581 0.52066 0.33427 0.0
C1306 C 0.8016 0.53648 0.35017 0.0
C1307 C 0.7797 0.53352 0.35829 0.0
C1308 C 0.78393 0.4569 0.32201 0.0
C1309 C 0.79483 0.49649 0.34042 0.0
C1310 C 0.7901 0.43878 0.31047 0.0
C1311 C 0.8132 0.44045 0.30553 0.0
C1312 C 0.80093 0.47691 0.32845 0.0
C1313 C 0.82955 0.46091 0.3118 0.0
C1314 C 0.8093 0.51799 0.34135 0.0
C1315 C 0.76663 0.51164 0.35877 0.0
N1316 N 0.82309 0.47838 0.32298 0.0
N1317 N 0.77423 0.49392 0.34956 0.0
H1318 H 0.87687 0.45782 0.54052 0.0
H1319 H 1.01653 0.49064 0.57146 0.0
H1320 H 0.91899 0.40865 0.5501 0.0
H1321 H 0.97668 0.53436 0.53947 0.0
H1322 H 0.98025 0.46197 0.5695 0.0
H1323 H 0.91276 0.48724 0.54474 0.0
C1324 C 0.89369 0.45318 0.54342 0.0
C1325 C 0.89493 0.4307 0.54493 0.0
C1326 C 0.97946 0.4779 0.56306 0.0
C1327 C 0.9361 0.46444 0.55014 0.0
C1328 C 1.00013 0.4944 0.56437 0.0
C1329 C 0.99971 0.51496 0.55551 0.0
C1330 C 0.95815 0.48205 0.55306 0.0
C1331 C 0.97788 0.51876 0.54645 0.0
C1332 C 0.91416 0.47002 0.54584 0.0
C1333 C 0.91723 0.42572 0.54867 0.0
N1334 N 0.95799 0.50243 0.5454 0.0
N1335 N 0.93696 0.4425 0.55132 0.0
H1336 H 0.42449 0.09097 0.30413 0.0
H1337 H 0.39025 0.19306 0.24378 0.0
H1338 H 0.4705 0.15665 0.30895 0.0
H1339 H 0.33737 0.14085 0.26447 0.0
H1340 H 0.42073 0.17544 0.26078 0.0
H1341 H 0.39266 0.10576 0.28487 0.0
C1342 C 0.42776 0.10859 0.30145 0.0
C1343 C 0.45009 0.12267 0.30812 0.0
C1344 C 0.40245 0.1677 0.26139 0.0
C1345 C 0.41418 0.13934 0.28558 0.0
C1346 C 0.38509 0.17758 0.25151 0.0
C1347 C 0.36137 0.16849 0.25307 0.0
C1348 C 0.39601 0.1485 0.2727 0.0
C1349 C 0.3555 0.14832 0.26295 0.0
C1350 C 0.40967 0.11692 0.29037 0.0
C1351 C 0.45349 0.14529 0.30421 0.0
N1352 N 0.37281 0.13904 0.27268 0.0
N1353 N 0.43576 0.15288 0.29291 0.0
H1354 H 0.4274 0.14683 0.52443 0.0
H1355 H 0.49304 0.04896 0.56377 0.0
H1356 H 0.39837 0.09802 0.5682 0.0
H1357 H 0.53069 0.10965 0.54088 0.0
H1358 H 0.45753 0.06451 0.56209 0.0
H1359 H 0.46339 0.13186 0.52665 0.0
C1360 C 0.42835 0.1329 0.53446 0.0
C1361 C 0.40916 0.12394 0.54611 0.0
C1362 C 0.4735 0.07454 0.55742 0.0
C1363 C 0.45136 0.10607 0.54854 0.0
C1364 C 0.49405 0.06557 0.55835 0.0
C1365 C 0.5156 0.07777 0.5526 0.0
C1366 C 0.47364 0.096 0.55015 0.0
C1367 C 0.51497 0.09935 0.5457 0.0
C1368 C 0.4492 0.12432 0.53579 0.0
C1369 C 0.41225 0.10579 0.55884 0.0
N1370 N 0.49465 0.10751 0.54452 0.0
N1371 N 0.43248 0.09754 0.55952 0.0
H1372 H 0.71372 0.65038 0.36515 0.0
H1373 H 0.83115 0.73572 0.34738 0.0
H1374 H 0.78316 0.64765 0.39607 0.0
H1375 H 0.76304 0.73274 0.30917 0.0
H1376 H 0.81252 0.70903 0.37197 0.0
H1377 H 0.72998 0.68699 0.35291 0.0
C1378 C 0.73222 0.65787 0.37017 0.0
C1379 C 0.74725 0.64576 0.38114 0.0
C1380 C 0.80162 0.71429 0.35828 0.0
C1381 C 0.76598 0.68723 0.36672 0.0
C1382 C 0.81227 0.72941 0.34409 0.0
C1383 C 0.79871 0.73612 0.32584 0.0
C1384 C 0.77722 0.70575 0.35421 0.0
C1385 C 0.77427 0.72768 0.32272 0.0
C1386 C 0.74155 0.67864 0.36289 0.0
C1387 C 0.77106 0.65627 0.38722 0.0
N1388 N 0.76432 0.71277 0.33666 0.0
N1389 N 0.7798 0.67621 0.37949 0.0
H1390 H 1.0218 0.53248 0.81292 0.0
H1391 H 0.90166 0.45535 0.83926 0.0
H1392 H 0.97039 0.55714 0.84863 0.0
H1393 H 0.94971 0.43089 0.79867 0.0
H1394 H 0.92844 0.49215 0.84555 0.0
H1395 H 0.99779 0.49438 0.8109 0.0
C1396 C 1.00562 0.52986 0.82059 0.0
C1397 C 0.99796 0.54803 0.83077 0.0
C1398 C 0.93316 0.47877 0.83526 0.0
C1399 C 0.97039 0.50459 0.82836 0.0
C1400 C 0.91777 0.45779 0.83149 0.0
C1401 C 0.92333 0.44011 0.81818 0.0
C1402 C 0.95431 0.48216 0.82563 0.0
C1403 C 0.94477 0.44407 0.80907 0.0
C1404 C 0.99188 0.50812 0.81933 0.0
C1405 C 0.97687 0.54366 0.84043 0.0
N1406 N 0.95945 0.46472 0.81288 0.0
N1407 N 0.96376 0.52241 0.83885 0.0
H1408 H 0.14333 0.91154 0.09434 0.0
H1409 H 0.04798 0.98557 0.07357 0.0
H1410 H 0.0908 0.91625 0.13932 0.0
H1411 H 0.11641 0.99924 0.05072 0.0
H1412 H 0.05618 0.95105 0.0881 0.0
H1413 H 0.12577 0.93463 0.06866 0.0
C1414 C 0.12796 0.91725 0.0987 0.0
C1415 C 0.11883 0.91251 0.11925 0.0
C1416 C 0.06913 0.96144 0.07947 0.0
C1417 C 0.09865 0.93862 0.08992 0.0
C1418 C 0.06445 0.98095 0.07117 0.0
C1419 C 0.08178 0.99517 0.06143 0.0
C1420 C 0.09105 0.95624 0.07753 0.0
C1421 C 0.10285 0.98875 0.05858 0.0
C1422 C 0.11794 0.93033 0.08401 0.0
C1423 C 0.09867 0.91998 0.12387 0.0
N1424 N 0.107 0.96976 0.06678 0.0
N1425 N 0.08936 0.93295 0.1094 0.0
H1426 H 0.94373 0.233 0.88622 0.0
H1427 H 0.89298 0.2822 0.77882 0.0
H1428 H 0.97415 0.22725 0.82308 0.0
H1429 H 0.84584 0.24295 0.81921 0.0
H1430 H 0.92535 0.26726 0.79719 0.0
H1431 H 0.90915 0.24163 0.86438 0.0
C1432 C 0.94294 0.23328 0.86773 0.0
C1433 C 0.96161 0.2293 0.85632 0.0
C1434 C 0.90779 0.26174 0.80169 0.0
C1435 C 0.92281 0.23972 0.83162 0.0
C1436 C 0.88944 0.27025 0.79132 0.0
C1437 C 0.8668 0.26359 0.79741 0.0
C1438 C 0.90345 0.2471 0.81867 0.0
C1439 C 0.86303 0.24824 0.81383 0.0
C1440 C 0.92331 0.23816 0.85534 0.0
C1441 C 0.95993 0.22999 0.8324 0.0
N1442 N 0.8813 0.24075 0.8242 0.0
N1443 N 0.94098 0.23552 0.82082 0.0
H1444 H 0.62835 0.31889 0.61367 0.0
H1445 H 0.6555 0.20076 0.63764 0.0
H1446 H 0.65731 0.30541 0.6806 0.0
H1447 H 0.60337 0.20807 0.58257 0.0
H1448 H 0.65957 0.24008 0.65212 0.0
H1449 H 0.62235 0.27906 0.60011 0.0
C1450 C 0.63359 0.30756 0.62544 0.0
C1451 C 0.64342 0.31538 0.64824 0.0
C1452 C 0.64712 0.23302 0.63697 0.0
C1453 C 0.63666 0.27006 0.6329 0.0
C1454 C 0.64487 0.21069 0.62868 0.0
C1455 C 0.62914 0.20132 0.60889 0.0
C1456 C 0.63377 0.24609 0.62519 0.0
C1457 C 0.6156 0.21472 0.59797 0.0
C1458 C 0.62999 0.28487 0.61776 0.0
C1459 C 0.64965 0.30001 0.66289 0.0
N1460 N 0.61837 0.23657 0.60616 0.0
N1461 N 0.64631 0.27806 0.65491 0.0
H1462 H 0.57426 0.7051 0.34683 0.0
H1463 H 0.69574 0.79196 0.34932 0.0
H1464 H 0.60767 0.75171 0.40603 0.0
H1465 H 0.66747 0.73894 0.29426 0.0
H1466 H 0.66502 0.77559 0.37159 0.0
H1467 H 0.61022 0.71425 0.32911 0.0
C1468 C 0.58935 0.71692 0.3563 0.0
C1469 C 0.58787 0.72803 0.3777 0.0
C1470 C 0.66561 0.76744 0.3547 0.0
C1471 C 0.62881 0.73892 0.35736 0.0
C1472 C 0.6831 0.77681 0.34196 0.0
C1473 C 0.68405 0.76685 0.31986 0.0
C1474 C 0.64884 0.74806 0.34521 0.0
C1475 C 0.6671 0.74739 0.31105 0.0
C1476 C 0.60985 0.72221 0.34614 0.0
C1477 C 0.608 0.74295 0.38938 0.0
N1478 N 0.65011 0.73868 0.32373 0.0
N1479 N 0.62754 0.74831 0.37883 0.0
H1480 H 0.06567 0.23823 0.48705 0.0
H1481 H 0.06664 0.10374 0.46695 0.0
H1482 H 0.07831 0.20644 0.42325 0.0
H1483 H 0.06858 0.13732 0.53441 0.0
H1484 H 0.06814 0.13997 0.45071 0.0
H1485 H 0.06414 0.2022 0.50406 0.0
C1486 C 0.06816 0.22392 0.47638 0.0
C1487 C 0.07229 0.22648 0.4532 0.0
C1488 C 0.06816 0.13961 0.4691 0.0
C1489 C 0.07011 0.18335 0.47328 0.0
C1490 C 0.06721 0.11851 0.47858 0.0
C1491 C 0.06736 0.1164 0.50255 0.0
C1492 C 0.06903 0.15979 0.48321 0.0
C1493 C 0.06833 0.13717 0.51596 0.0
C1494 C 0.06726 0.20297 0.4863 0.0
C1495 C 0.07519 0.20629 0.44105 0.0
N1496 N 0.06899 0.15733 0.50632 0.0
N1497 N 0.07396 0.18626 0.45094 0.0
H1498 H 0.62649 0.30671 0.22891 0.0
H1499 H 0.74977 0.27008 0.22806 0.0
H1500 H 0.65261 0.29325 0.1649 0.0
H1501 H 0.74613 0.32564 0.27597 0.0
H1502 H 0.71077 0.2713 0.20826 0.0
H1503 H 0.66581 0.30714 0.24972 0.0
C1504 C 0.64033 0.30386 0.2191 0.0
C1505 C 0.6357 0.30019 0.19476 0.0
C1506 C 0.71837 0.28319 0.22318 0.0
C1507 C 0.68136 0.29981 0.21903 0.0
C1508 C 0.7408 0.28245 0.23468 0.0
C1509 C 0.75185 0.29777 0.25401 0.0
C1510 C 0.70583 0.29885 0.23123 0.0
C1511 C 0.73878 0.31344 0.26126 0.0
C1512 C 0.66296 0.30414 0.2311 0.0
C1513 C 0.6549 0.29645 0.18349 0.0
N1514 N 0.71667 0.31336 0.25021 0.0
N1515 N 0.67634 0.29603 0.19553 0.0
H1516 H 0.55852 0.86569 0.92664 0.0
H1517 H 0.60538 0.96854 0.02968 0.0
H1518 H 0.60572 0.85895 0.9859 0.0
H1519 H 0.55174 0.96899 0.97362 0.0
H1520 H 0.60705 0.93021 0.01448 0.0
H1521 H 0.55719 0.90309 0.94345 0.0
C1522 C 0.56869 0.87178 0.94331 0.0
C1523 C 0.58222 0.85798 0.95443 0.0
C1524 C 0.59488 0.93856 1.00538 0.0
C1525 C 0.58085 0.90311 0.97451 0.0
C1526 C 0.59391 0.96085 0.01412 0.0
C1527 C 0.57839 0.97302 1.00324 0.0
C1528 C 0.58035 0.92745 0.98509 0.0
C1529 C 0.56412 0.96108 0.98303 0.0
C1530 C 0.56786 0.89363 0.95302 0.0
C1531 C 0.59478 0.86808 0.97622 0.0
N1532 N 0.56554 0.93958 0.97486 0.0
N1533 N 0.59386 0.88959 0.98523 0.0
H1534 H 0.96855 0.79828 0.6764 0.0
H1535 H 0.90772 0.80759 0.79253 0.0
H1536 H 1.00258 0.78308 0.74003 0.0
H1537 H 0.86605 0.78011 0.72766 0.0
H1538 H 0.94372 0.80607 0.77462 0.0
H1539 H 0.93294 0.79906 0.69499 0.0
C1540 C 0.96879 0.79523 0.69432 0.0
C1541 C 0.98923 0.79049 0.70629 0.0
C1542 C 0.92672 0.80037 0.76423 0.0
C1543 C 0.94756 0.79206 0.72846 0.0
C1544 C 0.90592 0.80128 0.77454 0.0
C1545 C 0.88313 0.79383 0.76196 0.0
C1546 C 0.9254 0.7927 0.74063 0.0
C1547 C 0.88277 0.78592 0.73849 0.0
C1548 C 0.94817 0.79562 0.705 0.0
C1549 C 0.98764 0.78669 0.72969 0.0
N1550 N 0.90316 0.78587 0.72876 0.0
N1551 N 0.96767 0.78783 0.73985 0.0
H1552 H 0.18123 0.03235 0.9084 0.0
H1553 H 0.1393 0.06798 0.02423 0.0
H1554 H 0.20634 0.09543 0.9507 0.0
H1555 H 0.10004 1.01354 0.97478 0.0
H1556 H 0.17395 0.06802 1.006 0.0
H1557 H 0.16287 0.01626 0.94067 0.0
C1558 C 0.18367 0.04245 0.92483 0.0
C1559 C 0.19468 0.06523 0.92709 0.0
C1560 C 0.15799 0.05568 0.99933 0.0
C1561 C 0.17392 0.0473 0.9634 0.0
C1562 C 0.13808 0.05563 0.00972 0.0
C1563 C 0.11667 0.04099 1.00065 0.0
C1564 C 0.15632 0.04155 0.97907 0.0
C1565 C 0.11611 0.02554 0.98176 0.0
C1566 C 0.17318 0.03334 0.94312 0.0
C1567 C 0.19752 0.07785 0.94843 0.0
N1568 N 0.13568 0.02653 0.97117 0.0
N1569 N 0.18681 0.06879 0.96576 0.0
H1570 H 0.83578 0.31936 0.59381 0.0
H1571 H 0.83381 0.35168 0.72817 0.0
H1572 H 0.81856 0.37997 0.62244 0.0
H1573 H 0.82492 0.28275 0.70011 0.0
H1574 H 0.8343 0.36305 0.68939 0.0
H1575 H 0.8367 0.306 0.63237 0.0
C1576 C 0.83206 0.32978 0.60805 0.0
C1577 C 0.82708 0.35085 0.60472 0.0
C1578 C 0.83237 0.34543 0.69168 0.0
C1579 C 0.82857 0.33588 0.64884 0.0
C1580 C 0.83229 0.33892 0.71391 0.0
C1581 C 0.82932 0.31619 0.71753 0.0
C1582 C 0.82972 0.32919 0.67273 0.0
C1583 C 0.82719 0.30046 0.69817 0.0
C1584 C 0.83263 0.32216 0.63004 0.0
C1585 C 0.82248 0.36363 0.62395 0.0
N1586 N 0.82745 0.30724 0.6766 0.0
N1587 N 0.82351 0.35603 0.64504 0.0
H1588 H 0.54102 0.12712 0.39967 0.0
H1589 H 0.62097 0.0752 0.48956 0.0
H1590 H 0.60762 0.11345 0.38575 0.0
H1591 H 0.54548 0.06567 0.48446 0.0
H1592 H 0.62074 0.09854 0.45743 0.0
H1593 H 0.54837 0.11659 0.4385 0.0
C1594 C 0.55757 0.12267 0.405 0.0
C1595 C 0.57338 0.12039 0.38925 0.0
C1596 C 0.60431 0.09137 0.46352 0.0
C1597 C 0.5816 0.10799 0.43334 0.0
C1598 C 0.60439 0.07794 0.48162 0.0
C1599 C 0.58318 0.06831 0.48943 0.0
C1600 C 0.58294 0.09546 0.45361 0.0
C1601 C 0.56219 0.0725 0.47877 0.0
C1602 C 0.56161 0.11641 0.42708 0.0
C1603 C 0.59469 0.11487 0.39723 0.0
N1604 N 0.56262 0.08583 0.46144 0.0
N1605 N 0.59797 0.10829 0.41865 0.0
H1606 H 0.82179 0.73269 0.09121 0.0
H1607 H 0.85707 0.73785 0.23005 0.0
H1608 H 0.86457 0.69166 0.12325 0.0
H1609 H 0.80777 0.774 0.2003 0.0
H1610 H 0.86109 0.72249 0.19119 0.0
H1611 H 0.81791 0.74946 0.12986 0.0
C1612 C 0.83066 0.72729 0.10619 0.0
C1613 C 0.84374 0.71054 0.10328 0.0
C1614 C 0.84933 0.73375 0.193 0.0
C1615 C 0.83907 0.73 0.14864 0.0
C1616 C 0.84696 0.74264 0.21546 0.0
C1617 C 0.83189 0.75742 0.21915 0.0
C1618 C 0.83675 0.73953 0.17328 0.0
C1619 C 0.81954 0.7627 0.19887 0.0
C1620 C 0.82828 0.73687 0.12849 0.0
C1621 C 0.85438 0.70442 0.124 0.0
N1622 N 0.82226 0.75393 0.17718 0.0
N1623 N 0.85185 0.71399 0.14533 0.0
H1624 H 0.14405 0.08547 0.81609 0.0
H1625 H 0.14654 0.05951 0.6809 0.0
H1626 H 0.20467 0.07385 0.78566 0.0
H1627 H 0.09049 0.0837 0.70896 0.0
H1628 H 0.16551 0.05926 0.71994 0.0
H1629 H 0.1216 0.07967 0.77747 0.0
C1630 C 0.15261 0.08168 0.80134 0.0
C1631 C 0.17632 0.0804 0.80407 0.0
C1632 C 0.14899 0.06451 0.71757 0.0
C1633 C 0.15083 0.07362 0.7601 0.0
C1634 C 0.13821 0.06475 0.69529 0.0
C1635 C 0.11708 0.07194 0.69168 0.0
C1636 C 0.13858 0.07152 0.73641 0.0
C1637 C 0.10675 0.07798 0.71096 0.0
C1638 C 0.13981 0.07835 0.77935 0.0
C1639 C 0.1865 0.07524 0.7844 0.0
N1640 N 0.11771 0.0778 0.73254 0.0
N1641 N 0.17372 0.07212 0.76327 0.0
H1642 H 0.83756 0.3126 0.47462 0.0
H1643 H 0.81259 0.3487 0.34904 0.0
H1644 H 0.80882 0.37054 0.46304 0.0
H1645 H 0.81091 0.27986 0.36091 0.0
H1646 H 0.81347 0.35809 0.39055 0.0
H1647 H 0.8304 0.30121 0.43303 0.0
C1648 C 0.82956 0.32284 0.46336 0.0
C1649 C 0.82375 0.34255 0.47241 0.0
C1650 C 0.81264 0.34089 0.38403 0.0
C1651 C 0.81592 0.32981 0.4246 0.0
C1652 C 0.81215 0.3355 0.36031 0.0
C1653 C 0.81163 0.31341 0.35136 0.0
C1654 C 0.81316 0.32422 0.39907 0.0
C1655 C 0.81115 0.29706 0.36692 0.0
C1656 C 0.82544 0.3163 0.4396 0.0
C1657 C 0.81346 0.35516 0.45689 0.0
N1658 N 0.81225 0.30285 0.38997 0.0
N1659 N 0.81017 0.34875 0.43377 0.0
H1660 H 0.506 0.07512 0.24819 0.0
H1661 H 0.61359 0.04744 0.18967 0.0
H1662 H 0.57808 0.11105 0.26836 0.0
H1663 H 0.54345 1.00529 0.17701 0.0
H1664 H 0.60115 0.07045 0.21908 0.0
H1665 H 0.51902 0.05145 0.2194 0.0
C1666 C 0.5245 0.07841 0.24618 0.0
C1667 C 0.54108 0.09472 0.26108 0.0
C1668 C 0.58853 0.05601 0.2101 0.0
C1669 C 0.55605 0.06738 0.22864 0.0
C1670 C 0.59573 0.04249 0.19356 0.0
C1671 C 0.5794 0.02457 0.18049 0.0
C1672 C 0.56481 0.05167 0.21348 0.0
C1673 C 0.55646 0.01928 0.18629 0.0
C1674 C 0.53194 0.06464 0.23 0.0
C1675 C 0.56474 0.09845 0.25748 0.0
N1676 N 0.54969 0.03308 0.2021 0.0
N1677 N 0.57159 0.0846 0.24182 0.0
H1678 H 0.84482 0.69401 0.94638 0.0
H1679 H 0.82828 0.79803 0.87401 0.0
H1680 H 0.81324 0.74616 0.9731 0.0
H1681 H 0.82523 0.73282 0.83927 0.0
H1682 H 0.82905 0.78179 0.91108 0.0
H1683 H 0.84397 0.70975 0.90891 0.0
C1684 C 0.83783 0.70886 0.94461 0.0
C1685 C 0.8291 0.7185 0.9636 0.0
C1686 C 0.82833 0.77096 0.89543 0.0
C1687 C 0.8285 0.73734 0.91971 0.0
C1688 C 0.82803 0.78032 0.87399 0.0
C1689 C 0.82678 0.76709 0.8528 0.0
C1690 C 0.82801 0.74795 0.89651 0.0
C1691 C 0.82623 0.74404 0.8547 0.0
C1692 C 0.83726 0.71786 0.92293 0.0
C1693 C 0.82019 0.73782 0.95943 0.0
N1694 N 0.8271 0.73545 0.87582 0.0
N1695 N 0.82039 0.74655 0.93842 0.0
H1696 H 0.84087 0.13084 0.03716 0.0
H1697 H 0.96474 0.12144 1.00082 0.0
H1698 H 0.88093 0.18222 1.00223 0.0
H1699 H 0.91116 0.06384 0.00982 0.0
H1700 H 0.93614 0.14515 1.00383 0.0
H1701 H 0.86841 0.10724 0.03021 0.0
C1702 C 0.85553 0.1372 0.02805 0.0
C1703 C 0.85869 0.15858 0.02034 0.0
C1704 C 0.93062 0.12729 1.00491 0.0
C1705 C 0.89038 0.13156 0.01238 0.0
C1706 C 0.94691 0.11379 1.00331 0.0
C1707 C 0.94025 0.09067 1.00512 0.0
C1708 C 0.90767 0.11762 0.00875 0.0
C1709 C 0.91694 0.08156 0.00817 0.0
C1710 C 0.87117 0.12362 0.02396 0.0
C1711 C 0.87789 0.16583 0.00845 0.0
N1712 N 0.90156 0.0951 0.01013 0.0
N1713 N 0.8932 0.15239 1.005 0.0
H1714 H 0.37777 0.48918 0.06715 0.0
H1715 H 0.49873 0.48909 0.01124 0.0
H1716 H 0.38773 0.43654 0.01882 0.0
H1717 H 0.49484 0.54034 0.06421 0.0
H1718 H 0.45757 0.47127 0.01309 0.0
H1719 H 0.41886 0.50935 0.06564 0.0
C1720 C 0.38831 0.48182 0.05608 0.0
C1721 C 0.37857 0.46079 0.0431 0.0
C1722 C 0.46554 0.48644 0.02435 0.0
C1723 C 0.42654 0.48421 0.04131 0.0
C1724 C 0.48934 0.4968 0.02327 0.0
C1725 C 0.50096 0.51657 0.03753 0.0
C1726 C 0.4524 0.49562 0.0398 0.0
C1727 C 0.4871 0.52527 0.05274 0.0
C1728 C 0.41202 0.49341 0.0553 0.0
C1729 C 0.39384 0.45249 0.02929 0.0
N1730 N 0.46389 0.51488 0.05344 0.0
N1731 N 0.41654 0.46402 0.0288 0.0
H1732 H 0.34922 0.57061 0.68067 0.0
H1733 H 0.33519 0.64388 0.79375 0.0
H1734 H 0.38249 0.56194 0.74768 0.0
H1735 H 0.33325 0.66811 0.72674 0.0
H1736 H 0.34732 0.61056 0.77759 0.0
H1737 H 0.33707 0.60326 0.69782 0.0
C1738 C 0.35372 0.57544 0.69903 0.0
C1739 C 0.36685 0.56365 0.71282 0.0
C1740 C 0.34433 0.62328 0.76653 0.0
C1741 C 0.35308 0.60078 0.73244 0.0
C1742 C 0.3374 0.64216 0.77569 0.0
C1743 C 0.33333 0.65864 0.7615 0.0
C1744 C 0.34665 0.6208 0.743 0.0
C1745 C 0.33645 0.65581 0.73824 0.0
C1746 C 0.34697 0.59413 0.70875 0.0
C1747 C 0.37243 0.57069 0.73648 0.0
N1748 N 0.34275 0.63712 0.72964 0.0
N1749 N 0.36542 0.58881 0.74561 0.0
H1750 H 0.21386 0.67791 0.49669 0.0
H1751 H 0.14859 0.56703 0.54244 0.0
H1752 H 0.25036 0.62987 0.52483 0.0
H1753 H 0.11292 0.59893 0.49097 0.0
H1754 H 0.18603 0.59056 0.53648 0.0
H1755 H 0.17654 0.65024 0.49469 0.0
C1756 C 0.21408 0.66153 0.50228 0.0
C1757 C 0.2353 0.6563 0.51113 0.0
C1758 C 0.1701 0.59223 0.5262 0.0
C1759 C 0.19274 0.62472 0.509 0.0
C1760 C 0.14873 0.57881 0.5296 0.0
C1761 C 0.12769 0.58109 0.51718 0.0
C1762 C 0.17047 0.60849 0.51063 0.0
C1763 C 0.12883 0.5966 0.50078 0.0
C1764 C 0.19279 0.64573 0.50103 0.0
C1765 C 0.2345 0.63475 0.51799 0.0
N1766 N 0.14988 0.61005 0.49824 0.0
N1767 N 0.21358 0.6199 0.51704 0.0
H1768 H 0.70773 0.96083 0.75546 0.0
H1769 H 0.75637 0.89913 0.85365 0.0
H1770 H 0.66587 0.9395 0.80891 0.0
H1771 H 0.80146 0.94452 0.81677 0.0
H1772 H 0.72375 0.9164 0.84129 0.0
H1773 H 0.74261 0.95646 0.77954 0.0
C1774 C 0.70589 0.95514 0.77229 0.0
C1775 C 0.68387 0.95015 0.7801 0.0
C1776 C 0.74097 0.92315 0.83658 0.0
C1777 C 0.72382 0.94526 0.80787 0.0
C1778 C 0.7596 0.91343 0.84379 0.0
C1779 C 0.78146 0.92036 0.83599 0.0
C1780 C 0.74425 0.93951 0.82114 0.0
C1781 C 0.78483 0.93875 0.8231 0.0
C1782 C 0.72588 0.95295 0.78618 0.0
C1783 C 0.68255 0.94329 0.80222 0.0
N1784 N 0.7662 0.94732 0.81552 0.0
N1785 N 0.70227 0.94067 0.81525 0.0
H1786 H 0.72399 0.9444 0.53266 0.0
H1787 H 0.66135 0.04187 0.58158 0.0
H1788 H 0.75584 0.99338 0.59008 0.0
H1789 H 0.62441 0.98789 0.53074 0.0
H1790 H 0.69597 0.02523 0.58348 0.0
H1791 H 0.68865 0.96039 0.53033 0.0
C1792 C 0.72378 0.95854 0.54482 0.0
C1793 C 0.74358 0.96728 0.56164 0.0
C1794 C 0.68038 0.01689 0.57186 0.0
C1795 C 0.70207 0.98622 0.55891 0.0
C1796 C 0.66029 0.02649 0.57071 0.0
C1797 C 0.6392 0.01657 0.55596 0.0
C1798 C 0.68023 0.99692 0.55804 0.0
C1799 C 0.6398 0.99646 0.54249 0.0
C1800 C 0.70331 0.96772 0.54347 0.0
C1801 C 0.74146 0.98575 0.57676 0.0
N1802 N 0.65966 0.98754 0.5438 0.0
N1803 N 0.72151 0.99444 0.57498 0.0
H1804 H 0.36251 0.44248 0.68416 0.0
H1805 H 0.38537 0.36145 0.78055 0.0
H1806 H 0.40481 0.46424 0.75034 0.0
H1807 H 0.33223 0.34075 0.72127 0.0
H1808 H 0.39564 0.39853 0.76719 0.0
H1809 H 0.35295 0.40424 0.69556 0.0
C1810 C 0.36965 0.43926 0.70106 0.0
C1811 C 0.38462 0.45651 0.71622 0.0
C1812 C 0.38179 0.38583 0.75705 0.0
C1813 C 0.37405 0.41311 0.7292 0.0
C1814 C 0.37606 0.36464 0.7646 0.0
C1815 C 0.35783 0.34813 0.7521 0.0
C1816 C 0.36928 0.39043 0.73681 0.0
C1817 C 0.34627 0.35314 0.73156 0.0
C1818 C 0.36429 0.41749 0.70751 0.0
C1819 C 0.39341 0.45145 0.73794 0.0
N1820 N 0.35213 0.37391 0.72457 0.0
N1821 N 0.38807 0.43024 0.74371 0.0
H1822 H 0.11885 0.54243 0.21804 0.0
H1823 H 0.23175 0.63579 0.2751 0.0
H1824 H 0.18048 0.52775 0.25558 0.0
H1825 H 0.18176 0.64851 0.22082 0.0
H1826 H 0.21012 0.59677 0.27162 0.0
H1827 H 0.13914 0.58213 0.2216 0.0
C1828 C 0.13667 0.54748 0.22683 0.0
C1829 C 0.14799 0.53169 0.23647 0.0
C1830 C 0.20389 0.60812 0.26047 0.0
C1831 C 0.17102 0.57698 0.24094 0.0
C1832 C 0.21626 0.63039 0.26242 0.0
C1833 C 0.20873 0.64543 0.24808 0.0
C1834 C 0.18376 0.6008 0.24413 0.0
C1835 C 0.18814 0.63758 0.23236 0.0
C1836 C 0.14819 0.57012 0.2289 0.0
C1837 C 0.17107 0.53922 0.24773 0.0
N1838 N 0.1764 0.61577 0.23075 0.0
N1839 N 0.18172 0.56131 0.24979 0.0
H1840 H 0.50998 0.66322 0.43886 0.0
H1841 H 0.58694 0.64182 0.55231 0.0
H1842 H 0.54561 0.71646 0.49143 0.0
H1843 H 0.57193 0.59925 0.48783 0.0
H1844 H 0.56336 0.6665 0.53514 0.0
H1845 H 0.52191 0.63595 0.46315 0.0
C1846 C 0.51977 0.66913 0.45574 0.0
C1847 C 0.52745 0.69212 0.46289 0.0
C1848 C 0.5652 0.65164 0.52491 0.0
C1849 C 0.54146 0.66122 0.49039 0.0
C1850 C 0.57885 0.63776 0.53456 0.0
C1851 C 0.58152 0.61858 0.5214 0.0
C1852 C 0.55408 0.64608 0.50213 0.0
C1853 C 0.57039 0.61388 0.49861 0.0
C1854 C 0.52674 0.6536 0.46949 0.0
C1855 C 0.53986 0.69887 0.48505 0.0
N1856 N 0.55713 0.6275 0.48972 0.0
N1857 N 0.54692 0.68348 0.4979 0.0
H1858 H 0.70406 0.41577 0.74173 0.0
H1859 H 0.78079 0.32937 0.72817 0.0
H1860 H 0.73177 0.40065 0.67883 0.0
H1861 H 0.77173 0.35765 0.79527 0.0
H1862 H 0.76849 0.36044 0.71119 0.0
H1863 H 0.73542 0.40248 0.76332 0.0
C1864 C 0.71733 0.41056 0.73253 0.0
C1865 C 0.7146 0.4082 0.70832 0.0
C1866 C 0.76936 0.36011 0.72967 0.0
C1867 C 0.75011 0.39256 0.73284 0.0
C1868 C 0.77605 0.34213 0.73936 0.0
C1869 C 0.77659 0.34063 0.76309 0.0
C1870 C 0.76244 0.3765 0.74366 0.0
C1871 C 0.77104 0.35802 0.77682 0.0
C1872 C 0.73516 0.40278 0.74489 0.0
C1873 C 0.73267 0.40201 0.69741 0.0
N1874 N 0.76365 0.37505 0.76682 0.0
N1875 N 0.74921 0.39359 0.70967 0.0
H1876 H 0.05839 0.31957 0.91 0.0
H1877 H 0.06021 0.39146 0.02983 0.0
H1878 H 0.03715 0.29226 0.97178 0.0
H1879 H 0.06054 0.41989 0.96494 0.0
H1880 H 0.06306 0.35574 0.01023 0.0
H1881 H 0.06987 0.35716 0.9315 0.0
C1882 C 0.05646 0.32149 0.92812 0.0
C1883 C 0.04641 0.30303 0.93911 0.0
C1884 C 0.06278 0.36986 1.00031 0.0
C1885 C 0.05969 0.34542 0.96363 0.0
C1886 C 0.06107 0.39018 0.01147 0.0
C1887 C 0.05962 0.40839 0.99885 0.0
C1888 C 0.06285 0.36774 0.97636 0.0
C1889 C 0.06146 0.40612 0.97522 0.0
C1890 C 0.06297 0.34283 0.94032 0.0
C1891 C 0.04437 0.30621 0.96259 0.0
N1892 N 0.06262 0.38598 0.9646 0.0
N1893 N 0.05084 0.32703 0.97404 0.0
H1894 H 0.09217 0.88269 0.25969 0.0
H1895 H 0.96595 0.80275 0.22774 0.0
H1896 H 0.05821 0.86571 0.18963 0.0
H1897 H 0.99352 0.83443 0.29645 0.0
H1898 H 0.99886 0.82657 0.21305 0.0
H1899 H 0.055 0.86729 0.27335 0.0
C1900 C 0.07666 0.87623 0.24721 0.0
C1901 C 0.07816 0.87528 0.22357 0.0
C1902 C 0.99759 0.82836 0.23132 0.0
C1903 C 0.03586 0.85694 0.23894 0.0
C1904 C 0.97889 0.81471 0.23972 0.0
C1905 C 0.97717 0.81639 0.2634 0.0
C1906 C 1.01468 0.84366 0.24675 0.0
C1907 C 0.99446 0.83212 0.27815 0.0
C1908 C 0.05549 0.86731 0.25498 0.0
C1909 C 0.05767 0.86676 0.20804 0.0
N1910 N 1.01254 0.84505 0.26959 0.0
N1911 N 0.03737 0.85743 0.21601 0.0
H1912 H 0.54382 0.35889 0.09497 0.0
H1913 H 0.60762 0.48863 0.09194 0.0
H1914 H 0.6192 0.37778 0.10908 0.0
H1915 H 0.55618 0.45602 0.0349 0.0
H1916 H 0.60837 0.45146 0.10546 0.0
H1917 H 0.54378 0.39571 0.08028 0.0
C1918 C 0.56048 0.37061 0.09516 0.0
C1919 C 0.58157 0.36422 0.10345 0.0
C1920 C 0.59685 0.45228 0.08997 0.0
C1921 C 0.58155 0.40834 0.08685 0.0
C1922 C 0.59636 0.47383 0.0821 0.0
C1923 C 0.58199 0.47637 0.06175 0.0
C1924 C 0.5821 0.43224 0.07828 0.0
C1925 C 0.56788 0.45569 0.05041 0.0
C1926 C 0.56042 0.39195 0.0866 0.0
C1927 C 0.60233 0.3811 0.1029 0.0
N1928 N 0.56805 0.43512 0.05885 0.0
N1929 N 0.60172 0.40194 0.09529 0.0
H1930 H 1.00794 0.25772 0.34801 0.0
H1931 H 0.90702 0.32778 0.32096 0.0
H1932 H 1.00627 0.31847 0.38916 0.0
H1933 H 0.89195 0.25606 0.30485 0.0
H1934 H 0.94602 0.32644 0.34045 0.0
H1935 H 0.96913 0.25848 0.32696 0.0
C1936 C 0.99974 0.27142 0.35252 0.0
C1937 C 1.01104 0.2881 0.37067 0.0
C1938 C 0.93431 0.31094 0.33258 0.0
C1939 C 0.9658 0.2892 0.34595 0.0
C1940 C 0.91182 0.31169 0.32123 0.0
C1941 C 0.89552 0.29202 0.31091 0.0
C1942 C 0.9415 0.29041 0.33347 0.0
C1943 C 0.90345 0.27178 0.31237 0.0
C1944 C 0.97729 0.27174 0.3405 0.0
C1945 C 0.99874 0.30515 0.3755 0.0
N1946 N 0.9256 0.27156 0.32309 0.0
N1947 N 0.97732 0.30534 0.36329 0.0
H1948 H 0.04573 0.71722 0.64712 0.0
H1949 H 0.06292 0.63395 0.53788 0.0
H1950 H 0.06525 0.74208 0.58397 0.0
H1951 H 0.05944 0.61271 0.60568 0.0
H1952 H 0.06129 0.67204 0.55328 0.0
H1953 H 0.04787 0.67934 0.63173 0.0
C1954 C 0.0503 0.71498 0.62988 0.0
C1955 C 0.05511 0.7339 0.61717 0.0
C1956 C 0.06088 0.65919 0.56496 0.0
C1957 C 0.05763 0.6886 0.59874 0.0
C1958 C 0.0618 0.63702 0.55607 0.0
C1959 C 0.06141 0.6191 0.57013 0.0
C1960 C 0.05913 0.66447 0.58849 0.0
C1961 C 0.05992 0.62528 0.59371 0.0
C1962 C 0.05163 0.69292 0.62104 0.0
C1963 C 0.06116 0.72873 0.59486 0.0
N1964 N 0.05871 0.6469 0.60185 0.0
N1965 N 0.06207 0.70706 0.58657 0.0
H1966 H 0.62477 0.79092 0.84165 0.0
H1967 H 0.76733 0.81761 0.84841 0.0
H1968 H 0.66962 0.7983 0.90619 0.0
H1969 H 0.72284 0.78113 0.78832 0.0
H1970 H 0.73234 0.81584 0.86849 0.0
H1971 H 0.65956 0.79212 0.82123 0.0
C1972 C 0.64181 0.79282 0.85173 0.0
C1973 C 0.64349 0.79432 0.87612 0.0
C1974 C 0.73006 0.80826 0.85088 0.0
C1975 C 0.68476 0.79636 0.85208 0.0
C1976 C 0.75029 0.80936 0.83916 0.0
C1977 C 0.74878 0.79958 0.81617 0.0
C1978 C 0.70727 0.79772 0.83978 0.0
C1979 C 0.72555 0.78904 0.80583 0.0
C1980 C 0.66192 0.79348 0.83987 0.0
C1981 C 0.66674 0.79684 0.88756 0.0
N1982 N 0.70615 0.78862 0.81742 0.0
N1983 N 0.68601 0.79799 0.87568 0.0
H1984 H 0.48507 0.55532 0.69102 0.0
H1985 H 0.51885 0.58809 0.56903 0.0
H1986 H 0.43438 0.54661 0.62984 0.0
H1987 H 0.56909 0.58433 0.62747 0.0
H1988 H 0.48758 0.58174 0.59334 0.0
H1989 H 0.51543 0.57354 0.66976 0.0
C1990 C 0.48025 0.5573 0.67308 0.0
C1991 C 0.45712 0.54921 0.6621 0.0
C1992 C 0.50551 0.5827 0.6009 0.0
C1993 C 0.49204 0.57024 0.63766 0.0
C1994 C 0.52344 0.58647 0.5871 0.0
C1995 C 0.54656 0.58618 0.59614 0.0
C1996 C 0.51083 0.57872 0.62384 0.0
C1997 C 0.55147 0.58431 0.6197 0.0
C1998 C 0.49766 0.5678 0.66098 0.0
C1999 C 0.45202 0.55239 0.63888 0.0
N2000 N 0.53364 0.58028 0.63267 0.0
N2001 N 0.46944 0.56257 0.62733 0.0
H2002 H 0.76107 0.25713 0.95885 0.0
H2003 H 0.84009 0.28252 0.85834 0.0
H2004 H 0.82916 0.24099 0.95948 0.0
H2005 H 0.76442 0.27009 0.84504 0.0
H2006 H 0.83714 0.27209 0.89724 0.0
H2007 H 0.76281 0.26684 0.91921 0.0
C2008 C 0.7765 0.25584 0.95077 0.0
C2009 C 0.79508 0.24832 0.96261 0.0
C2010 C 0.82115 0.27156 0.88585 0.0
C2011 C 0.79712 0.25946 0.91723 0.0
C2012 C 0.82278 0.27762 0.8636 0.0
C2013 C 0.80244 0.27729 0.84834 0.0
C2014 C 0.79902 0.26543 0.89328 0.0
C2015 C 0.78054 0.27054 0.85619 0.0
C2016 C 0.77735 0.2612 0.92807 0.0
C2017 C 0.81447 0.24674 0.9511 0.0
N2018 N 0.7794 0.26509 0.87822 0.0
N2019 N 0.81505 0.2524 0.92917 0.0
H2020 H 0.05933 0.44941 0.2077 0.0
H2021 H 0.11504 0.54865 0.13799 0.0
H2022 H 0.13144 0.46369 0.19391 0.0
H2023 H 0.04255 0.51323 0.11974 0.0
H2024 H 0.11934 0.52404 0.16806 0.0
H2025 H 0.05127 0.47759 0.18221 0.0
C2026 C 0.07329 0.45815 0.19897 0.0
C2027 C 0.09604 0.45419 0.20288 0.0
C2028 C 0.10244 0.52187 0.1576 0.0
C2029 C 0.08719 0.48672 0.1747 0.0
C2030 C 0.09988 0.536 0.14059 0.0
C2031 C 0.0786 0.53249 0.12591 0.0
C2032 C 0.08354 0.5043 0.16001 0.0
C2033 C 0.05941 0.51615 0.13039 0.0
C2034 C 0.06875 0.47431 0.18472 0.0
C2035 C 0.11361 0.46604 0.19133 0.0
N2036 N 0.06242 0.50235 0.14692 0.0
N2037 N 0.10887 0.482 0.178 0.0
H2038 H 0.78535 0.87022 0.46113 0.0
H2039 H 0.8613 0.82047 0.37045 0.0
H2040 H 0.85353 0.85703 0.48118 0.0
H2041 H 0.78799 0.81999 0.35276 0.0
H2042 H 0.85932 0.83579 0.40993 0.0
H2043 H 0.78639 0.85412 0.4215 0.0
C2044 C 0.80056 0.86391 0.4574 0.0
C2045 C 0.81931 0.8651 0.47517 0.0
C2046 C 0.8436 0.8324 0.3975 0.0
C2047 C 0.8208 0.84657 0.42869 0.0
C2048 C 0.84471 0.8236 0.37466 0.0
C2049 C 0.82482 0.8187 0.35757 0.0
C2050 C 0.82244 0.83685 0.40398 0.0
C2051 C 0.80393 0.82331 0.36487 0.0
C2052 C 0.80114 0.85465 0.43453 0.0
C2053 C 0.83848 0.85654 0.46855 0.0
N2054 N 0.80336 0.83209 0.38714 0.0
N2055 N 0.83874 0.84792 0.4462 0.0
H2056 H 0.46806 0.5635 0.79302 0.0
H2057 H 0.55029 0.50259 0.86687 0.0
H2058 H 0.49142 0.50593 0.76523 0.0
H2059 H 0.55358 0.5734 0.88252 0.0
H2060 H 0.52831 0.50354 0.82975 0.0
H2061 H 0.49792 0.56738 0.82683 0.0
C2062 C 0.47951 0.55178 0.79399 0.0
C2063 C 0.47719 0.53429 0.77643 0.0
C2064 C 0.53415 0.51897 0.84117 0.0
C2065 C 0.51108 0.53859 0.81474 0.0
C2066 C 0.54701 0.51854 0.8624 0.0
C2067 C 0.5538 0.53793 0.87817 0.0
C2068 C 0.5275 0.53877 0.83571 0.0
C2069 C 0.54826 0.55788 0.87126 0.0
C2070 C 0.4966 0.5541 0.81314 0.0
C2071 C 0.49253 0.51963 0.7784 0.0
N2072 N 0.53504 0.5577 0.85069 0.0
N2073 N 0.50865 0.52197 0.79732 0.0
H2074 H 0.8311 0.2106 0.10444 0.0
H2075 H 0.82757 0.30745 0.20246 0.0
H2076 H 0.80472 0.26939 0.09027 0.0
H2077 H 0.83413 0.24101 0.21723 0.0
H2078 H 0.82441 0.29568 0.16144 0.0
H2079 H 0.83737 0.22349 0.14543 0.0
C2080 C 0.82677 0.22635 0.10986 0.0
C2081 C 0.8173 0.2389 0.09366 0.0
C2082 C 0.82665 0.28369 0.17362 0.0
C2083 C 0.82456 0.25378 0.14103 0.0
C2084 C 0.8286 0.2904 0.19717 0.0
C2085 C 0.83115 0.27521 0.21355 0.0
C2086 C 0.82745 0.26163 0.16613 0.0
C2087 C 0.83222 0.25334 0.20536 0.0
C2088 C 0.83029 0.23362 0.13339 0.0
C2089 C 0.81203 0.25913 0.10199 0.0
N2090 N 0.83038 0.24722 0.18226 0.0
N2091 N 0.81575 0.26593 0.12506 0.0
H2092 H 0.03698 0.50557 0.28067 0.0
H2093 H 0.09068 0.58741 0.3952 0.0
H2094 H 0.10744 0.51347 0.31575 0.0
H2095 H 1.01612 0.5613 0.37531 0.0
H2096 H 0.09796 0.56933 0.35902 0.0
H2097 H 0.0299 0.53334 0.30983 0.0
C2098 C 0.05086 0.51298 0.29458 0.0
C2099 C 0.07272 0.50703 0.29598 0.0
C2100 C 0.08 0.56803 0.36243 0.0
C2101 C 0.06502 0.53915 0.32869 0.0
C2102 C 0.07581 0.57839 0.383 0.0
C2103 C 0.05281 0.57521 0.38867 0.0
C2104 C 0.06102 0.55468 0.34743 0.0
C2105 C 0.03418 0.56403 0.37188 0.0
C2106 C 0.04689 0.52896 0.31101 0.0
C2107 C 0.09022 0.51736 0.31415 0.0
N2108 N 0.03872 0.55374 0.35217 0.0
N2109 N 0.08599 0.53295 0.32979 0.0
H2110 H 0.80919 0.84936 0.59814 0.0
H2111 H 0.81406 0.86354 0.73819 0.0
H2112 H 0.80524 0.91111 0.63605 0.0
H2113 H 0.79797 0.79878 0.69874 0.0
H2114 H 0.8139 0.88133 0.70189 0.0
H2115 H 0.80818 0.8312 0.63426 0.0
C2116 C 0.80811 0.85928 0.61389 0.0
C2117 C 0.80718 0.88217 0.61323 0.0
C2118 C 0.81032 0.8632 0.70103 0.0
C2119 C 0.8064 0.86091 0.65603 0.0
C2120 C 0.81038 0.85287 0.72204 0.0
C2121 C 0.8058 0.82923 0.7223 0.0
C2122 C 0.80612 0.85018 0.67933 0.0
C2123 C 0.80139 0.81691 0.70009 0.0
C2124 C 0.8075 0.84874 0.63479 0.0
C2125 C 0.80585 0.89356 0.63496 0.0
N2126 N 0.80183 0.82734 0.68 0.0
N2127 N 0.80568 0.88306 0.65498 0.0
H2128 H 0.7576 0.43014 0.53262 0.0
H2129 H 0.74065 0.53604 0.61297 0.0
H2130 H 0.80083 0.45718 0.59717 0.0
H2131 H 0.69585 0.50911 0.54925 0.0
H2132 H 0.76225 0.50649 0.60769 0.0
H2133 H 0.73399 0.45821 0.53855 0.0
C2134 C 0.76205 0.44188 0.54806 0.0
C2135 C 0.78126 0.44136 0.56436 0.0
C2136 C 0.74769 0.50703 0.59484 0.0
C2137 C 0.75447 0.47349 0.57123 0.0
C2138 C 0.73529 0.52387 0.59792 0.0
C2139 C 0.71647 0.52518 0.58149 0.0
C2140 C 0.74127 0.4913 0.5752 0.0
C2141 C 0.7105 0.50903 0.56217 0.0
C2142 C 0.74861 0.45791 0.55143 0.0
C2143 C 0.78624 0.45698 0.58406 0.0
N2144 N 0.72286 0.49279 0.55955 0.0
N2145 N 0.77301 0.47239 0.58689 0.0
H2146 H 0.25516 0.13732 0.49379 0.0
H2147 H 0.15934 0.07563 0.57 0.0
H2148 H 0.27674 0.11203 0.5571 0.0
H2149 H 0.1438 0.07822 0.497 0.0
H2150 H 0.20125 0.09161 0.56749 0.0
H2151 H 0.2142 0.11876 0.49622 0.0
C2152 C 0.25147 0.12769 0.50815 0.0
C2153 C 0.27007 0.12624 0.52506 0.0
C2154 C 0.18871 0.08863 0.55199 0.0
C2155 C 0.22195 0.10509 0.52841 0.0
C2156 C 0.16456 0.07947 0.55341 0.0
C2157 C 0.14743 0.07523 0.53368 0.0
C2158 C 0.19622 0.0943 0.53075 0.0
C2159 C 0.15592 0.08086 0.51278 0.0
C2160 C 0.22783 0.11706 0.50956 0.0
C2161 C 0.26345 0.11352 0.54334 0.0
N2162 N 0.17927 0.09013 0.51196 0.0
N2163 N 0.24021 0.1038 0.54463 0.0
H2164 H 0.27644 0.04836 0.81281 0.0
H2165 H 0.28768 0.92414 0.8271 0.0
H2166 H 0.24577 1.01218 0.86621 0.0
H2167 H 0.29132 0.9534 0.76271 0.0
H2168 H 0.27375 0.95614 0.84305 0.0
H2169 H 0.28517 1.01409 0.79615 0.0
C2170 C 0.27177 0.03323 0.82121 0.0
C2171 C 0.26048 0.03309 0.841 0.0
C2172 C 0.27737 0.95538 0.82537 0.0
C2173 C 0.27023 0.99377 0.82182 0.0
C2174 C 0.2852 0.93712 0.8162 0.0
C2175 C 0.29096 0.93632 0.79363 0.0
C2176 C 0.27564 0.973 0.81195 0.0
C2177 C 0.28765 0.95366 0.78036 0.0
C2178 C 0.27653 1.01362 0.81151 0.0
C2179 C 0.25462 1.01296 0.85099 0.0
N2180 N 0.28044 0.97146 0.78983 0.0
N2181 N 0.25968 0.994 0.84131 0.0
H2182 H 0.38385 0.9565 0.03987 0.0
H2183 H 0.52399 0.9787 0.06333 0.0
H2184 H 0.4208 0.90281 0.04402 0.0
H2185 H 0.48673 0.02682 0.0367 0.0
H2186 H 0.4863 0.95198 0.06244 0.0
H2187 H 0.42146 0.9835 0.0439 0.0
C2188 C 0.39989 0.95036 0.04158 0.0
C2189 C 0.39914 0.92731 0.04154 0.0
C2190 C 0.48642 0.96846 0.05696 0.0
C2191 C 0.44238 0.95831 0.04649 0.0
C2192 C 0.50789 0.98381 0.05768 0.0
C2193 C 0.50853 1.00503 0.05 0.0
C2194 C 0.46544 0.97448 0.04878 0.0
C2195 C 0.4871 1.01063 0.04269 0.0
C2196 C 0.42137 0.96582 0.04389 0.0
C2197 C 0.42054 0.92039 0.0438 0.0
N2198 N 0.46646 0.99545 0.04223 0.0
N2199 N 0.44133 0.93585 0.04631 0.0
H2200 H 0.93429 0.60887 0.7799 0.0
H2201 H 0.86242 0.70226 0.80824 0.0
H2202 H 0.96294 0.66801 0.82781 0.0
H2203 H 0.83822 0.64737 0.75443 0.0
H2204 H 0.898 0.68851 0.81791 0.0
H2205 H 0.898 0.62162 0.7723 0.0
C2206 C 0.93296 0.6246 0.78884 0.0
C2207 C 0.9517 0.63744 0.80452 0.0
C2208 C 0.88486 0.67939 0.80409 0.0
C2209 C 0.91001 0.65211 0.79589 0.0
C2210 C 0.86442 0.68707 0.7987 0.0
C2211 C 0.84726 0.67581 0.78059 0.0
C2212 C 0.88816 0.66029 0.79128 0.0
C2213 C 0.85104 0.65658 0.76845 0.0
C2214 C 0.91219 0.63186 0.78447 0.0
C2215 C 0.94894 0.65764 0.81557 0.0
N2216 N 0.87112 0.64943 0.77402 0.0
N2217 N 0.9284 0.66437 0.81105 0.0
H2218 H 0.93282 0.65308 0.03952 0.0
H2219 H 0.9935 0.54795 0.05976 0.0
H2220 H 0.89876 0.59644 0.07144 0.0
H2221 H 0.03583 0.61473 0.06177 0.0
H2222 H 0.95802 0.56358 0.05849 0.0
H2223 H 0.96889 0.63815 0.04182 0.0
C2224 C 0.93268 0.63744 0.04693 0.0
C2225 C 0.91207 0.62628 0.0553 0.0
C2226 C 0.97501 0.57492 0.05922 0.0
C2227 C 0.95431 0.60841 0.0576 0.0
C2228 C 0.99555 0.56593 0.05992 0.0
C2229 C 1.01838 0.57977 0.06108 0.0
C2230 C 0.97652 0.59821 0.05892 0.0
C2231 C 1.01906 0.60307 0.06113 0.0
C2232 C 0.95357 0.6289 0.04832 0.0
C2233 C 0.91379 0.60598 0.06474 0.0
N2234 N 0.99877 0.61134 0.05981 0.0
N2235 N 0.93405 0.59777 0.06536 0.0
H2236 H 0.29543 0.14111 0.8776 0.0
H2237 H 0.27459 0.25016 0.82321 0.0
H2238 H 0.23455 0.16907 0.88407 0.0
H2239 H 0.33335 0.21965 0.81403 0.0
H2240 H 0.26403 0.22544 0.85265 0.0
H2241 H 0.31499 0.17581 0.864 0.0
C2242 C 0.28643 0.15479 0.87684 0.0
C2243 C 0.26295 0.15188 0.88094 0.0
C2244 C 0.27932 0.22425 0.8443 0.0
C2245 C 0.28496 0.19126 0.86493 0.0
C2246 C 0.28519 0.23816 0.82727 0.0
C2247 C 0.30461 0.23664 0.81582 0.0
C2248 C 0.29287 0.20862 0.84981 0.0
C2249 C 0.31799 0.22113 0.82213 0.0
C2250 C 0.29755 0.17455 0.86889 0.0
C2251 C 0.25241 0.17036 0.88033 0.0
N2252 N 0.31174 0.20758 0.83859 0.0
N2253 N 0.26325 0.1891 0.87172 0.0
H2254 H 0.49071 0.0388 0.36746 0.0
H2255 H 0.42926 0.93632 0.27888 0.0
H2256 H 0.51892 0.02704 0.30405 0.0
H2257 H 0.43505 0.92942 0.35168 0.0
H2258 H 0.45944 0.97145 0.2869 0.0
H2259 H 0.46787 0.99989 0.36194 0.0
C2260 C 0.49246 0.02784 0.35268 0.0
C2261 C 0.50673 0.03597 0.33625 0.0
C2262 C 0.45431 0.96201 0.30103 0.0
C2263 C 0.48018 0.99207 0.32942 0.0
C2264 C 0.43706 0.94214 0.29649 0.0
C2265 C 0.42984 0.93002 0.31466 0.0
C2266 C 0.46387 0.96998 0.32391 0.0
C2267 C 0.44037 0.93821 0.33721 0.0
C2268 C 0.47945 1.00575 0.34951 0.0
C2269 C 0.50829 0.02127 0.31723 0.0
N2270 N 0.45666 0.95789 0.34125 0.0
N2271 N 0.49473 1.0001 0.31405 0.0
H2272 H 0.61937 0.41266 0.5942 0.0
H2273 H 0.58425 0.52415 0.61645 0.0
H2274 H 0.60529 0.43388 0.66199 0.0
H2275 H 0.56191 0.48454 0.55076 0.0
H2276 H 0.58832 0.49025 0.63428 0.0
H2277 H 0.59563 0.43726 0.57784 0.0
C2278 C 0.6111 0.42239 0.60559 0.0
C2279 C 0.61467 0.42172 0.62948 0.0
C2280 C 0.58178 0.48879 0.61611 0.0
C2281 C 0.58765 0.44984 0.61097 0.0
C2282 C 0.57949 0.5081 0.60599 0.0
C2283 C 0.57291 0.50689 0.58222 0.0
C2284 C 0.57832 0.46845 0.6021 0.0
C2285 C 0.56702 0.48593 0.5692 0.0
C2286 C 0.59733 0.4362 0.59624 0.0
C2287 C 0.60319 0.43424 0.64349 0.0
N2288 N 0.57051 0.46748 0.57922 0.0
N2289 N 0.5906 0.44825 0.63406 0.0
H2290 H 0.4727 0.72331 0.30602 0.0
H2291 H 0.38645 0.79518 0.31018 0.0
H2292 H 0.44336 0.72761 0.36994 0.0
H2293 H 0.35267 0.73218 0.27022 0.0
H2294 H 0.41784 0.77777 0.32599 0.0
H2295 H 0.43702 0.73171 0.28589 0.0
C2296 C 0.45845 0.7253 0.31565 0.0
C2297 C 0.46088 0.72482 0.33964 0.0
C2298 C 0.40361 0.76794 0.31356 0.0
C2299 C 0.4209 0.73488 0.31699 0.0
C2300 C 0.38589 0.77782 0.3044 0.0
C2301 C 0.36706 0.76502 0.2889 0.0
C2302 C 0.40267 0.74536 0.30674 0.0
C2303 C 0.36695 0.74249 0.28223 0.0
C2304 C 0.43826 0.73009 0.30419 0.0
C2305 C 0.44207 0.7277 0.35142 0.0
N2306 N 0.38468 0.73328 0.29114 0.0
N2307 N 0.42306 0.73328 0.34005 0.0
H2308 H 0.13705 0.79995 0.19771 0.0
H2309 H 0.0984 0.70609 0.08996 0.0
H2310 H 0.11818 0.81292 0.12769 0.0
H2311 H 0.13293 0.6945 0.15525 0.0
H2312 H 0.09786 0.74383 0.10619 0.0
H2313 H 0.12844 0.75965 0.18479 0.0
C2314 C 0.13098 0.7943 0.17969 0.0
C2315 C 0.12872 0.80971 0.16364 0.0
C2316 C 0.10543 0.73299 0.11702 0.0
C2317 C 0.1186 0.76404 0.14892 0.0
C2318 C 0.10581 0.71154 0.10774 0.0
C2319 C 0.11607 0.69744 0.12122 0.0
C2320 C 0.11557 0.74039 0.13986 0.0
C2321 C 0.12491 0.70498 0.14432 0.0
C2322 C 0.12607 0.77139 0.17235 0.0
C2323 C 0.12062 0.80161 0.14055 0.0
N2324 N 0.12471 0.72612 0.1529 0.0
N2325 N 0.11593 0.77933 0.13387 0.0
H2326 H 0.08199 0.27371 0.8652 0.0
H2327 H 0.19949 0.2541 0.82088 0.0
H2328 H 0.0924 0.20797 0.84361 0.0
H2329 H 0.1722 0.31202 0.80521 0.0
H2330 H 0.1643 0.23967 0.83849 0.0
H2331 H 0.11912 0.29057 0.85153 0.0
C2332 C 0.09214 0.26287 0.85765 0.0
C2333 C 0.08418 0.23946 0.85533 0.0
C2334 C 0.16614 0.25561 0.83135 0.0
C2335 C 0.12642 0.25849 0.84026 0.0
C2336 C 0.18621 0.26392 0.82151 0.0
C2337 C 0.18859 0.28423 0.81165 0.0
C2338 C 0.14852 0.26784 0.83156 0.0
C2339 C 0.17082 0.29622 0.81257 0.0
C2340 C 0.11317 0.27247 0.84985 0.0
C2341 C 0.09787 0.2261 0.84548 0.0
N2342 N 0.15141 0.28783 0.82244 0.0
N2343 N 0.11846 0.23582 0.83841 0.0
H2344 H 0.6152 0.73322 0.99545 0.0
H2345 H 0.55906 0.59752 0.97418 0.0
H2346 H 0.56302 0.70376 0.93783 0.0
H2347 H 0.59578 0.63022 0.03946 0.0
H2348 H 0.5625 0.63472 0.95952 0.0
H2349 H 0.61077 0.69605 0.01014 0.0
C2350 C 0.60274 0.71911 0.98568 0.0
C2351 C 0.58949 0.72264 0.96504 0.0
C2352 C 0.56984 0.63393 0.9771 0.0
C2353 C 0.58445 0.67817 0.98225 0.0
C2354 C 0.56786 0.61232 0.98565 0.0
C2355 C 0.57691 0.60975 0.00855 0.0
C2356 C 0.58147 0.65407 0.99104 0.0
C2357 C 0.5882 0.63049 0.02186 0.0
C2358 C 0.60019 0.69752 0.99426 0.0
C2359 C 0.57376 0.70274 0.95375 0.0
N2360 N 0.5902 0.65113 0.01305 0.0
N2361 N 0.5719 0.68194 0.96224 0.0
H2362 H 0.14289 0.80168 0.66243 0.0
H2363 H 0.24043 0.83136 0.77317 0.0
H2364 H 0.12081 0.81547 0.72847 0.0
H2365 H 0.23941 0.77579 0.72326 0.0
H2366 H 0.20067 0.83309 0.75535 0.0
H2367 H 0.18159 0.79961 0.68193 0.0
C2368 C 0.14612 0.80459 0.68104 0.0
C2369 C 0.12801 0.80889 0.69353 0.0
C2370 C 0.20909 0.82047 0.74832 0.0
C2371 C 0.17354 0.80692 0.7164 0.0
C2372 C 0.23198 0.81948 0.75849 0.0
C2373 C 0.24371 0.80324 0.75004 0.0
C2374 C 0.19773 0.80571 0.72876 0.0
C2375 C 0.23137 0.78849 0.73075 0.0
C2376 C 0.16839 0.80324 0.69222 0.0
C2377 C 0.13383 0.81215 0.71782 0.0
N2378 N 0.20956 0.79029 0.72072 0.0
N2379 N 0.15593 0.81142 0.72829 0.0
H2380 H 0.02717 0.35918 0.47078 0.0
H2381 H 0.1022 0.48463 0.52134 0.0
H2382 H 0.10176 0.37843 0.46929 0.0
H2383 H 0.02863 0.47205 0.49546 0.0
H2384 H 0.10242 0.44559 0.5073 0.0
H2385 H 0.02727 0.39841 0.48424 0.0
C2386 C 0.04373 0.37144 0.4734 0.0
C2387 C 0.0645 0.36458 0.46864 0.0
C2388 C 0.08615 0.45124 0.5046 0.0
C2389 C 0.06477 0.41107 0.48492 0.0
C2390 C 0.08597 0.47386 0.51274 0.0
C2391 C 0.06539 0.48259 0.50972 0.0
C2392 C 0.06542 0.43613 0.4936 0.0
C2393 C 0.04514 0.46686 0.4983 0.0
C2394 C 0.04372 0.39419 0.4811 0.0
C2395 C 0.08514 0.38218 0.47252 0.0
N2396 N 0.04565 0.44488 0.49106 0.0
N2397 N 0.08473 0.40403 0.48046 0.0
H2398 H 0.50844 0.27356 0.23563 0.0
H2399 H 0.37084 0.27648 0.21678 0.0
H2400 H 0.4766 0.29055 0.17184 0.0
H2401 H 0.41151 0.30065 0.28289 0.0
H2402 H 0.40738 0.27503 0.2004 0.0
H2403 H 0.4727 0.27688 0.25315 0.0
C2404 C 0.49403 0.27791 0.22511 0.0
C2405 C 0.49627 0.2818 0.20188 0.0
C2406 C 0.40849 0.28067 0.21851 0.0
C2407 C 0.45386 0.28512 0.22229 0.0
C2408 C 0.38736 0.28149 0.22807 0.0
C2409 C 0.38733 0.28888 0.25156 0.0
C2410 C 0.4306 0.28651 0.23236 0.0
C2411 C 0.41 0.29501 0.26475 0.0
C2412 C 0.47343 0.2799 0.23531 0.0
C2413 C 0.47636 0.28743 0.1897 0.0
N2414 N 0.43027 0.2934 0.25518 0.0
N2415 N 0.45633 0.28856 0.19977 0.0
H2416 H 0.64295 0.53683 0.39437 0.0
H2417 H 0.65166 0.53534 0.5262 0.0
H2418 H 0.70878 0.54332 0.43787 0.0
H2419 H 0.58631 0.5162 0.48041 0.0
H2420 H 0.67279 0.52787 0.4941 0.0
H2421 H 0.62214 0.51954 0.42422 0.0
C2422 C 0.65302 0.53434 0.41019 0.0
C2423 C 0.67748 0.54208 0.41407 0.0
C2424 C 0.65378 0.52469 0.49113 0.0
C2425 C 0.65383 0.52267 0.44849 0.0
C2426 C 0.64171 0.52899 0.50947 0.0
C2427 C 0.61733 0.52724 0.50567 0.0
C2428 C 0.64136 0.51907 0.46887 0.0
C2429 C 0.60519 0.51831 0.48393 0.0
C2430 C 0.64116 0.52431 0.42719 0.0
C2431 C 0.68981 0.53793 0.4345 0.0
N2432 N 0.61742 0.51517 0.46613 0.0
N2433 N 0.67778 0.52902 0.45128 0.0
H2434 H 0.33403 0.81895 0.08835 0.0
H2435 H 0.32817 0.84931 0.22257 0.0
H2436 H 0.31718 0.87966 0.11713 0.0
H2437 H 0.32256 0.78112 0.19381 0.0
H2438 H 0.32932 0.86136 0.18408 0.0
H2439 H 0.33393 0.80511 0.12664 0.0
C2440 C 0.33015 0.8293 0.10256 0.0
C2441 C 0.32559 0.85055 0.09933 0.0
C2442 C 0.32795 0.84375 0.18614 0.0
C2443 C 0.32591 0.83498 0.14325 0.0
C2444 C 0.32748 0.83685 0.20822 0.0
C2445 C 0.32527 0.81412 0.21159 0.0
C2446 C 0.32643 0.82792 0.16705 0.0
C2447 C 0.32422 0.79881 0.1921 0.0
C2448 C 0.33016 0.8214 0.12443 0.0
C2449 C 0.3208 0.8632 0.11856 0.0
N2450 N 0.32483 0.80597 0.17069 0.0
N2451 N 0.32124 0.85532 0.13954 0.0
H2452 H 0.05317 0.62999 0.90294 0.0
H2453 H 0.1042 0.54674 0.98252 0.0
H2454 H 0.10159 0.59103 0.881 0.0
H2455 H 0.04929 0.58037 0.99745 0.0
H2456 H 0.10576 0.56376 0.94593 0.0
H2457 H 0.0561 0.61524 0.94009 0.0
C2458 C 0.06489 0.61876 0.90614 0.0
C2459 C 0.0768 0.6114 0.88874 0.0
C2460 C 0.09319 0.56715 0.95713 0.0
C2461 C 0.07971 0.59391 0.93095 0.0
C2462 C 0.09208 0.55719 0.97771 0.0
C2463 C 0.07652 0.56222 0.99266 0.0
C2464 C 0.07866 0.58211 0.95185 0.0
C2465 C 0.0615 0.57619 0.9862 0.0
C2466 C 0.06632 0.61008 0.92726 0.0
C2467 C 0.09187 0.59693 0.89389 0.0
N2468 N 0.06301 0.58574 0.96631 0.0
N2469 N 0.0926 0.58832 0.91447 0.0
H2470 H 0.37306 0.19836 0.6113 0.0
H2471 H 0.29957 0.26004 0.69461 0.0
H2472 H 0.31495 0.22523 0.58378 0.0
H2473 H 0.37034 0.25394 0.71593 0.0
H2474 H 0.30266 0.24458 0.65524 0.0
H2475 H 0.3705 0.21567 0.64985 0.0
C2476 C 0.35984 0.20807 0.61315 0.0
C2477 C 0.34445 0.21032 0.59357 0.0
C2478 C 0.31755 0.24659 0.66849 0.0
C2479 C 0.34086 0.23007 0.63899 0.0
C2480 C 0.31576 0.25541 0.69123 0.0
C2481 C 0.33468 0.25853 0.70923 0.0
C2482 C 0.33829 0.2402 0.66325 0.0
C2483 C 0.35516 0.25207 0.70306 0.0
C2484 C 0.35835 0.21798 0.63544 0.0
C2485 C 0.32757 0.2231 0.59786 0.0
N2486 N 0.35629 0.24321 0.68102 0.0
N2487 N 0.32612 0.23214 0.61981 0.0
H2488 H 0.66259 0.54406 0.30659 0.0
H2489 H 0.66918 0.5664 0.17538 0.0
H2490 H 0.72621 0.57649 0.28134 0.0
H2491 H 0.60466 0.5448 0.20417 0.0
H2492 H 0.69147 0.56325 0.21229 0.0
H2493 H 0.64246 0.5373 0.26735 0.0
C2494 C 0.67238 0.54966 0.29276 0.0
C2495 C 0.696 0.56125 0.29726 0.0
C2496 C 0.67244 0.55901 0.21044 0.0
C2497 C 0.67301 0.55359 0.25231 0.0
C2498 C 0.65974 0.5607 0.18941 0.0
C2499 C 0.6351 0.55615 0.18694 0.0
C2500 C 0.66035 0.55266 0.22901 0.0
C2501 C 0.62367 0.5489 0.20558 0.0
C2502 C 0.66087 0.54576 0.27035 0.0
C2503 C 0.7079 0.56776 0.27864 0.0
N2504 N 0.63641 0.54753 0.22591 0.0
N2505 N 0.69618 0.56405 0.25693 0.0
H2506 H 0.33212 0.81216 0.96771 0.0
H2507 H 0.31416 0.85349 0.84382 0.0
H2508 H 0.31081 0.87429 0.95817 0.0
H2509 H 0.3002 0.78304 0.85305 0.0
H2510 H 0.31639 0.86238 0.8856 0.0
H2511 H 0.32402 0.80186 0.92587 0.0
C2512 C 0.32557 0.82357 0.95686 0.0
C2513 C 0.32208 0.84411 0.96656 0.0
C2514 C 0.3126 0.84497 0.87845 0.0
C2515 C 0.31328 0.8326 0.9185 0.0
C2516 C 0.31135 0.83987 0.8546 0.0
C2517 C 0.30688 0.81746 0.84483 0.0
C2518 C 0.31002 0.82759 0.89285 0.0
C2519 C 0.30346 0.80054 0.85975 0.0
C2520 C 0.32091 0.81765 0.93297 0.0
C2521 C 0.31361 0.85823 0.95154 0.0
N2522 N 0.30544 0.80595 0.88298 0.0
N2523 N 0.30982 0.85237 0.9283 0.0
H2524 H 0.08876 0.6151 0.77466 0.0
H2525 H 0.0376 0.50923 0.68178 0.0
H2526 H 1.01558 0.59353 0.7458 0.0
H2527 H 0.11104 0.54315 0.69352 0.0
H2528 H 0.03003 0.53541 0.71205 0.0
H2529 H 0.098 0.5864 0.74833 0.0
C2530 C 0.07472 0.60478 0.76239 0.0
C2531 C 0.05127 0.60641 0.7628 0.0
C2532 C 0.04785 0.5368 0.70815 0.0
C2533 C 0.06163 0.57313 0.73336 0.0
C2534 C 0.05224 0.52171 0.69109 0.0
C2535 C 0.07479 0.52456 0.68431 0.0
C2536 C 0.06625 0.55442 0.71871 0.0
C2537 C 0.09324 0.54044 0.69767 0.0
C2538 C 0.07997 0.58815 0.74766 0.0
C2539 C 0.03386 0.59265 0.74637 0.0
N2540 N 0.08846 0.55513 0.7139 0.0
N2541 N 0.03933 0.57627 0.73259 0.0
H2542 H 0.34597 0.19188 0.43779 0.0
H2543 H 0.3205 0.29114 0.36134 0.0
H2544 H 0.30976 0.24161 0.46151 0.0
H2545 H 0.33164 0.22923 0.32962 0.0
H2546 H 0.32114 0.27552 0.39865 0.0
H2547 H 0.34544 0.20692 0.39995 0.0
C2548 C 0.33799 0.20604 0.43529 0.0
C2549 C 0.3279 0.21523 0.45357 0.0
C2550 C 0.32351 0.26525 0.38363 0.0
C2551 C 0.32753 0.2332 0.40918 0.0
C2552 C 0.32325 0.27428 0.36202 0.0
C2553 C 0.32604 0.2618 0.34155 0.0
C2554 C 0.32706 0.24337 0.38571 0.0
C2555 C 0.32937 0.23984 0.34443 0.0
C2556 C 0.33762 0.21464 0.41338 0.0
C2557 C 0.3178 0.23365 0.44844 0.0
N2558 N 0.32996 0.23159 0.36574 0.0
N2559 N 0.31808 0.24195 0.42722 0.0
H2560 H 0.36485 0.6698 0.48374 0.0
H2561 H 0.462 0.61091 0.54231 0.0
H2562 H 0.36459 0.64799 0.5518 0.0
H2563 H 0.444 0.60485 0.46853 0.0
H2564 H 0.43047 0.63072 0.5466 0.0
H2565 H 0.39784 0.65177 0.47826 0.0
C2566 C 0.37177 0.66132 0.49752 0.0
C2567 C 0.36193 0.66033 0.51823 0.0
C2568 C 0.43345 0.62513 0.52946 0.0
C2569 C 0.39963 0.64005 0.5122 0.0
C2570 C 0.45153 0.61397 0.527 0.0
C2571 C 0.4556 0.60627 0.50503 0.0
C2572 C 0.41947 0.62893 0.50981 0.0
C2573 C 0.44131 0.61043 0.48577 0.0
C2574 C 0.39048 0.65099 0.49435 0.0
C2575 C 0.37152 0.64908 0.53551 0.0
N2576 N 0.4239 0.6216 0.48858 0.0
N2577 N 0.38989 0.63951 0.53216 0.0
H2578 H 0.87525 0.99298 0.56891 0.0
H2579 H 0.99509 0.99586 0.51016 0.0
H2580 H 0.88709 0.93874 0.52387 0.0
H2581 H 0.9899 0.04795 0.56163 0.0
H2582 H 0.95477 0.97644 0.51365 0.0
H2583 H 0.91526 0.01454 0.56532 0.0
C2584 C 0.88599 0.98554 0.55814 0.0
C2585 C 0.87711 0.96365 0.54673 0.0
C2586 C 0.96228 0.99215 0.52421 0.0
C2587 C 0.92383 0.98873 0.54246 0.0
C2588 C 0.98557 1.00343 0.52216 0.0
C2589 C 0.99656 0.02392 0.53552 0.0
C2590 C 0.94906 1.0011 0.53974 0.0
C2591 C 0.98262 0.03237 0.5508 0.0
C2592 C 0.90908 0.99793 0.55616 0.0
C2593 C 0.89258 0.95532 0.53318 0.0
N2594 N 0.95993 0.02109 0.55244 0.0
N2595 N 0.91467 0.96767 0.53146 0.0
H2596 H 0.84995 0.06648 0.18716 0.0
H2597 H 0.82147 0.13077 0.2937 0.0
H2598 H 0.87373 0.04542 0.25235 0.0
H2599 H 0.86151 0.16712 0.24573 0.0
H2600 H 0.83274 0.09653 0.27905 0.0
H2601 H 0.84401 0.1008 0.20755 0.0
C2602 C 0.85348 0.06892 0.20579 0.0
C2603 C 0.86219 0.05319 0.21819 0.0
C2604 C 0.83922 0.11217 0.27208 0.0
C2605 C 0.85537 0.09204 0.24136 0.0
C2606 C 0.83294 0.13172 0.28044 0.0
C2607 C 0.84006 0.15179 0.27053 0.0
C2608 C 0.85217 0.11275 0.25346 0.0
C2609 C 0.85482 0.15189 0.25328 0.0
C2610 C 0.85037 0.08852 0.21731 0.0
C2611 C 0.86692 0.05725 0.24229 0.0
N2612 N 0.85993 0.13253 0.2449 0.0
N2613 N 0.86321 0.07631 0.25325 0.0
H2614 H 0.71434 0.17931 1.00082 0.0
H2615 H 0.65999 0.06135 0.03918 0.0
H2616 H 0.75699 0.1338 0.0237 0.0
H2617 H 0.62078 0.09153 0.98879 0.0
H2618 H 0.69566 0.08863 0.03474 0.0
H2619 H 0.67932 0.1485 0.99735 0.0
C2620 C 0.71637 0.16286 1.00496 0.0
C2621 C 0.7386 0.15918 0.01273 0.0
C2622 C 0.67933 0.08908 0.02438 0.0
C2623 C 0.6988 0.12411 0.00895 0.0
C2624 C 0.659 0.07352 0.02691 0.0
C2625 C 0.63747 0.07424 0.01436 0.0
C2626 C 0.67803 0.10582 0.00961 0.0
C2627 C 0.63711 0.09037 0.9987 0.0
C2628 C 0.69643 0.1453 1.00285 0.0
C2629 C 0.74023 0.13749 0.01772 0.0
N2630 N 0.65706 0.10583 0.99705 0.0
N2631 N 0.72059 0.12088 0.01602 0.0
H2632 H 0.21831 0.4686 0.27174 0.0
H2633 H 0.25973 0.38946 0.35817 0.0
H2634 H 0.17123 0.43033 0.3128 0.0
H2635 H 0.30673 0.4374 0.32535 0.0
H2636 H 0.22839 0.40906 0.34834 0.0
H2637 H 0.25165 0.46192 0.29648 0.0
C2638 C 0.21503 0.45879 0.28607 0.0
C2639 C 0.19204 0.44956 0.28998 0.0
C2640 C 0.24575 0.41568 0.3439 0.0
C2641 C 0.23018 0.44168 0.3184 0.0
C2642 C 0.26369 0.40453 0.34955 0.0
C2643 C 0.28571 0.41136 0.34192 0.0
C2644 C 0.24993 0.43373 0.3305 0.0
C2645 C 0.29001 0.43129 0.33134 0.0
C2646 C 0.23409 0.45514 0.30035 0.0
C2647 C 0.18875 0.43748 0.30908 0.0
N2648 N 0.27211 0.44144 0.32544 0.0
N2649 N 0.20766 0.43347 0.32237 0.0
H2650 H 0.24044 0.46985 0.0223 0.0
H2651 H 0.13286 0.49747 0.08489 0.0
H2652 H 0.24285 0.46985 0.09573 0.0
H2653 H 0.15775 0.53636 0.03125 0.0
H2654 H 0.16777 0.48079 0.08577 0.0
H2655 H 0.20612 0.4874 0.02166 0.0
C2656 C 0.23385 0.47337 0.03836 0.0
C2657 C 0.24526 0.46816 0.05914 0.0
C2658 C 0.16564 0.4929 0.07371 0.0
C2659 C 0.20444 0.48814 0.05837 0.0
C2660 C 0.14545 0.50248 0.0731 0.0
C2661 C 0.14177 0.51869 0.05799 0.0
C2662 C 0.1825 0.49864 0.05851 0.0
C2663 C 0.15938 0.52418 0.04335 0.0
C2664 C 0.21407 0.48356 0.03796 0.0
C2665 C 0.23522 0.47346 0.0792 0.0
N2666 N 0.17841 0.51411 0.04377 0.0
N2667 N 0.21558 0.48268 0.07825 0.0
H2668 H 0.9148 0.93386 0.20083 0.0
H2669 H 0.81687 0.8538 0.25558 0.0
H2670 H 0.84211 0.93871 0.19407 0.0
H2671 H 0.88495 0.83931 0.24945 0.0
H2672 H 0.82547 0.8837 0.23102 0.0
H2673 H 0.90368 0.89728 0.21501 0.0
C2674 C 0.8964 0.92696 0.20185 0.0
C2675 C 0.87937 0.93945 0.1967 0.0
C2676 C 0.83851 0.87392 0.23489 0.0
C2677 C 0.86665 0.89793 0.21334 0.0
C2678 C 0.83372 0.85696 0.24915 0.0
C2679 C 0.85038 0.84422 0.25485 0.0
C2680 C 0.86023 0.87843 0.22642 0.0
C2681 C 0.87173 0.8489 0.24569 0.0
C2682 C 0.89008 0.90611 0.21 0.0
C2683 C 0.8558 0.92968 0.19803 0.0
N2684 N 0.87615 0.86581 0.23205 0.0
N2685 N 0.85018 0.90965 0.2067 0.0
H2686 H 0.62174 0.04757 0.70761 0.0
H2687 H 0.7349 0.13579 0.77165 0.0
H2688 H 0.67894 0.02822 0.74801 0.0
H2689 H 0.69166 0.15042 0.71299 0.0
H2690 H 0.71194 0.09694 0.76618 0.0
H2691 H 0.64526 0.0861 0.71131 0.0
C2692 C 0.63934 0.05134 0.71697 0.0
C2693 C 0.64839 0.03465 0.7275 0.0
C2694 C 0.70756 0.10867 0.75448 0.0
C2695 C 0.67506 0.07866 0.73224 0.0
C2696 C 0.7205 0.13083 0.75772 0.0
C2697 C 0.71524 0.14622 0.74264 0.0
C2698 C 0.68908 0.102 0.73623 0.0
C2699 C 0.69647 0.13895 0.72479 0.0
C2700 C 0.6527 0.07332 0.71913 0.0
C2701 C 0.67128 0.04049 0.73948 0.0
N2702 N 0.68401 0.11737 0.72211 0.0
N2703 N 0.68372 0.06206 0.74175 0.0
loop_
_geom_bond_atom_site_label_1
_geom_bond_atom_site_label_2
_geom_bond_distance
_geom_bond_site_symmetry_2
_ccdc_geom_bond_type
O0 Cd1 2.223 . S
O0 C8 1.315 . S
Cd1 O0 2.223 . S
Cd1 O4 2.297 . S
Cd1 O5 2.439 . S
Cd1 O11 2.240 . S
Cd2 O3 2.240 . S
Cd2 O10 2.223 . S
Cd2 O12 2.297 . S
Cd2 O13 2.439 . S
O3 Cd2 2.240 . S
O3 C8 1.279 . S
O4 Cd1 2.297 . S
O4 C6 1.247 . S
O5 Cd1 2.439 . S
O5 C6 1.208 . S
C6 O4 1.247 . S
C6 O5 1.208 . S
C7 O12 1.247 . S
C7 O13 1.208 . S
C8 O0 1.315 . S
C8 O3 1.279 . S
C9 O10 1.315 . S
C9 O11 1.279 . S
O10 Cd2 2.223 . S
O10 C9 1.315 . S
O11 Cd1 2.240 . S
O11 C9 1.279 . S
O12 Cd2 2.297 . S
O12 C7 1.247 . S
O13 Cd2 2.439 . S
O13 C7 1.208 . S
O14 Cd15 2.223 . S
O14 C22 1.315 . S
Cd15 O14 2.223 . S
Cd15 O18 2.297 . S
Cd15 O19 2.439 . S
Cd15 O25 2.240 . S
Cd16 O17 2.240 . S
Cd16 O24 2.223 . S
Cd16 O26 2.297 . S
Cd16 O27 2.439 . S
O17 Cd16 2.240 . S
O17 C22 1.279 . S
O18 Cd15 2.297 . S
O18 C20 1.247 1_455 S
O19 Cd15 2.439 . S
O19 C20 1.208 1_455 S
C20 O18 1.247 1_655 S
C20 O19 1.208 1_655 S
C21 O26 1.247 . S
C21 O27 1.208 . S
C22 O14 1.315 . S
C22 O17 1.279 . S
C23 O24 1.315 . S
C23 O25 1.279 . S
O24 Cd16 2.223 . S
O24 C23 1.315 . S
O25 Cd15 2.240 . S
O25 C23 1.279 . S
O26 Cd16 2.297 . S
O26 C21 1.247 . S
O27 Cd16 2.439 . S
O27 C21 1.208 . S
O28 Cd29 2.223 . S
O28 C36 1.315 . S
Cd29 O28 2.223 . S
Cd29 O32 2.297 . S
Cd29 O33 2.439 . S
Cd29 O39 2.240 . S
Cd30 O31 2.240 . S
Cd30 O38 2.223 . S
Cd30 O40 2.297 . S
Cd30 O41 2.439 . S
O31 Cd30 2.240 . S
O31 C36 1.279 . S
O32 Cd29 2.297 . S
O32 C34 1.247 . S
O33 Cd29 2.439 . S
O33 C34 1.208 . S
C34 O32 1.247 . S
C34 O33 1.208 . S
C35 O40 1.247 . S
C35 O41 1.208 . S
C36 O28 1.315 . S
C36 O31 1.279 . S
C37 O38 1.315 . S
C37 O39 1.279 . S
O38 Cd30 2.223 . S
O38 C37 1.315 . S
O39 Cd29 2.240 . S
O39 C37 1.279 . S
O40 Cd30 2.297 . S
O40 C35 1.247 . S
O41 Cd30 2.439 . S
O41 C35 1.208 . S
O42 Cd43 2.223 . S
O42 C50 1.315 . S
Cd43 O42 2.223 . S
Cd43 O46 2.297 . S
Cd43 O47 2.439 . S
Cd43 O53 2.240 . S
Cd44 O45 2.240 . S
Cd44 O52 2.223 . S
Cd44 O54 2.297 . S
Cd44 O55 2.439 . S
O45 Cd44 2.240 . S
O45 C50 1.279 . S
O46 Cd43 2.297 . S
O46 C48 1.247 . S
O47 Cd43 2.439 . S
O47 C48 1.208 . S
C48 O46 1.247 . S
C48 O47 1.208 . S
C49 O54 1.247 . S
C49 O55 1.208 . S
C50 O42 1.315 . S
C50 O45 1.279 . S
C51 O52 1.315 . S
C51 O53 1.279 . S
O52 Cd44 2.223 . S
O52 C51 1.315 . S
O53 Cd43 2.240 . S
O53 C51 1.279 . S
O54 Cd44 2.297 . S
O54 C49 1.247 . S
O55 Cd44 2.439 . S
O55 C49 1.208 . S
O56 Cd57 2.223 . S
O56 C64 1.315 . S
Cd57 O56 2.223 . S
Cd57 O60 2.297 . S
Cd57 O61 2.439 . S
Cd57 O67 2.240 . S
Cd58 O59 2.240 . S
Cd58 O66 2.223 . S
Cd58 O68 2.297 . S
Cd58 O69 2.439 . S
O59 Cd58 2.240 . S
O59 C64 1.279 . S
O60 Cd57 2.297 . S
O60 C62 1.247 . S
O61 Cd57 2.439 . S
O61 C62 1.208 . S
C62 O60 1.247 . S
C62 O61 1.208 . S
C63 O68 1.247 . S
C63 O69 1.208 . S
C64 O56 1.315 . S
C64 O59 1.279 . S
C65 O66 1.315 . S
C65 O67 1.279 . S
O66 Cd58 2.223 . S
O66 C65 1.315 . S
O67 Cd57 2.240 . S
O67 C65 1.279 . S
O68 Cd58 2.297 . S
O68 C63 1.247 . S
O69 Cd58 2.439 . S
O69 C63 1.208 . S
O70 Cd71 2.223 . S
O70 C78 1.315 . S
Cd71 O70 2.223 . S
Cd71 O74 2.297 . S
Cd71 O75 2.439 . S
Cd71 O81 2.240 . S
Cd72 O73 2.240 . S
Cd72 O80 2.223 . S
Cd72 O82 2.297 . S
Cd72 O83 2.439 . S
O73 Cd72 2.240 . S
O73 C78 1.279 . S
O74 Cd71 2.297 . S
O74 C76 1.247 . S
O75 Cd71 2.439 . S
O75 C76 1.208 . S
C76 O74 1.247 . S
C76 O75 1.208 . S
C77 O82 1.247 . S
C77 O83 1.208 . S
C78 O70 1.315 . S
C78 O73 1.279 . S
C79 O80 1.315 . S
C79 O81 1.279 . S
O80 Cd72 2.223 . S
O80 C79 1.315 . S
O81 Cd71 2.240 . S
O81 C79 1.279 . S
O82 Cd72 2.297 . S
O82 C77 1.247 . S
O83 Cd72 2.439 . S
O83 C77 1.208 . S
O84 Cd85 2.223 . S
O84 C92 1.315 . S
Cd85 O84 2.223 . S
Cd85 O88 2.297 . S
Cd85 O89 2.439 . S
Cd85 O95 2.240 . S
Cd86 O87 2.240 . S
Cd86 O94 2.223 . S
Cd86 O96 2.297 . S
Cd86 O97 2.439 . S
O87 Cd86 2.240 . S
O87 C92 1.279 . S
O88 Cd85 2.297 . S
O88 C90 1.247 . S
O89 Cd85 2.439 . S
O89 C90 1.208 . S
C90 O88 1.247 . S
C90 O89 1.208 . S
C91 O96 1.247 . S
C91 O97 1.208 . S
C92 O84 1.315 . S
C92 O87 1.279 . S
C93 O94 1.315 . S
C93 O95 1.279 . S
O94 Cd86 2.223 . S
O94 C93 1.315 . S
O95 Cd85 2.240 . S
O95 C93 1.279 . S
O96 Cd86 2.297 . S
O96 C91 1.247 . S
O97 Cd86 2.439 . S
O97 C91 1.208 . S
O98 Cd99 2.223 1_655 S
O98 C106 1.315 . S
Cd99 O98 2.223 1_455 S
Cd99 O102 2.297 . S
Cd99 O103 2.439 . S
Cd99 O109 2.240 1_455 S
Cd100 O101 2.240 1_655 S
Cd100 O108 2.223 . S
Cd100 O110 2.297 . S
Cd100 O111 2.439 1_655 S
O101 Cd100 2.240 1_455 S
O101 C106 1.279 1_455 S
O102 Cd99 2.297 . S
O102 C104 1.247 . S
O103 Cd99 2.439 . S
O103 C104 1.208 . S
C104 O102 1.247 . S
C104 O103 1.208 . S
C105 O110 1.222 1_455 S
C105 O111 1.234 . S
C106 O98 1.315 . S
C106 O101 1.279 1_655 S
C107 O108 1.315 . S
C107 O109 1.279 . S
O108 Cd100 2.223 . S
O108 C107 1.315 . S
O109 Cd99 2.240 1_655 S
O109 C107 1.279 . S
O110 Cd100 2.297 . S
O110 C105 1.222 1_655 S
O111 Cd100 2.439 1_455 S
O111 C105 1.234 . S
O112 Cd113 2.223 . S
O112 C120 1.315 . S
Cd113 O112 2.223 . S
Cd113 O116 2.297 . S
Cd113 O117 2.439 . S
Cd113 O123 2.240 . S
Cd114 O115 2.240 . S
Cd114 O122 2.223 . S
Cd114 O124 2.297 . S
Cd114 O125 2.439 . S
O115 Cd114 2.240 . S
O115 C120 1.279 . S
O116 Cd113 2.297 . S
O116 C118 1.247 . S
O117 Cd113 2.439 . S
O117 C118 1.208 . S
C118 O116 1.247 . S
C118 O117 1.208 . S
C119 O124 1.247 . S
C119 O125 1.208 . S
C120 O112 1.315 . S
C120 O115 1.279 . S
C121 O122 1.315 . S
C121 O123 1.279 . S
O122 Cd114 2.223 . S
O122 C121 1.315 . S
O123 Cd113 2.240 . S
O123 C121 1.279 . S
O124 Cd114 2.297 . S
O124 C119 1.247 . S
O125 Cd114 2.439 . S
O125 C119 1.208 . S
O126 Cd127 2.223 . S
O126 C134 1.315 . S
Cd127 O126 2.223 . S
Cd127 O130 2.297 . S
Cd127 O131 2.439 . S
Cd127 O137 2.240 . S
Cd128 O129 2.240 . S
Cd128 O136 2.223 . S
Cd128 O138 2.297 . S
Cd128 O139 2.439 . S
O129 Cd128 2.240 . S
O129 C134 1.279 . S
O130 Cd127 2.297 . S
O130 C132 1.247 . S
O131 Cd127 2.439 . S
O131 C132 1.208 . S
C132 O130 1.247 . S
C132 O131 1.208 . S
C133 O138 1.247 . S
C133 O139 1.208 . S
C134 O126 1.315 . S
C134 O129 1.279 . S
C135 O136 1.315 . S
C135 O137 1.279 . S
O136 Cd128 2.223 . S
O136 C135 1.315 . S
O137 Cd127 2.240 . S
O137 C135 1.279 . S
O138 Cd128 2.297 . S
O138 C133 1.247 . S
O139 Cd128 2.439 . S
O139 C133 1.208 . S
O140 Cd141 2.223 . S
O140 C148 1.315 . S
Cd141 O140 2.223 . S
Cd141 O144 2.297 . S
Cd141 O145 2.439 . S
Cd141 O151 2.240 . S
Cd142 O143 2.240 . S
Cd142 O150 2.223 . S
Cd142 O152 2.297 . S
Cd142 O153 2.439 . S
O143 Cd142 2.240 . S
O143 C148 1.279 . S
O144 Cd141 2.297 . S
O144 C146 1.247 . S
O145 Cd141 2.439 . S
O145 C146 1.208 . S
C146 O144 1.247 . S
C146 O145 1.208 . S
C147 O152 1.247 . S
C147 O153 1.208 . S
C148 O140 1.315 . S
C148 O143 1.279 . S
C149 O150 1.315 . S
C149 O151 1.279 . S
O150 Cd142 2.223 . S
O150 C149 1.315 . S
O151 Cd141 2.240 . S
O151 C149 1.279 . S
O152 Cd142 2.297 . S
O152 C147 1.247 . S
O153 Cd142 2.439 . S
O153 C147 1.208 . S
O154 Cd155 2.223 . S
O154 C162 1.315 . S
Cd155 O154 2.223 . S
Cd155 O158 2.297 . S
Cd155 O159 2.439 . S
Cd155 O165 2.240 . S
Cd156 O157 2.240 . S
Cd156 O164 2.223 . S
Cd156 O166 2.297 1_554 S
Cd156 O167 2.440 . S
O157 Cd156 2.240 . S
O157 C162 1.279 . S
O158 Cd155 2.297 . S
O158 C160 1.247 . S
O159 Cd155 2.439 . S
O159 C160 1.208 . S
C160 O158 1.247 . S
C160 O159 1.208 . S
C161 O166 1.247 . S
C161 O167 1.207 1_556 S
C162 O154 1.315 . S
C162 O157 1.279 . S
C163 O164 1.315 . S
C163 O165 1.279 . S
O164 Cd156 2.223 . S
O164 C163 1.315 . S
O165 Cd155 2.240 . S
O165 C163 1.279 . S
O166 Cd156 2.297 1_556 S
O166 C161 1.247 . S
O167 Cd156 2.440 . S
O167 C161 1.207 1_554 S
O168 Cd169 2.223 . S
O168 C176 1.315 . S
Cd169 O168 2.223 . S
Cd169 O172 2.297 . S
Cd169 O173 2.439 . S
Cd169 O179 2.240 . S
Cd170 O171 2.240 . S
Cd170 O178 2.223 . S
Cd170 O180 2.297 1_554 S
Cd170 O181 2.439 1_554 S
O171 Cd170 2.240 . S
O171 C176 1.279 . S
O172 Cd169 2.297 . S
O172 C174 1.247 . S
O173 Cd169 2.439 . S
O173 C174 1.208 . S
C174 O172 1.247 . S
C174 O173 1.208 . S
C175 O180 1.247 . S
C175 O181 1.208 . S
C176 O168 1.315 . S
C176 O171 1.279 . S
C177 O178 1.315 . S
C177 O179 1.279 . S
O178 Cd170 2.223 . S
O178 C177 1.315 . S
O179 Cd169 2.240 . S
O179 C177 1.279 . S
O180 Cd170 2.297 1_556 S
O180 C175 1.247 . S
O181 Cd170 2.439 1_556 S
O181 C175 1.208 . S
O182 Cd183 2.223 . S
O182 C190 1.315 . S
Cd183 O182 2.223 . S
Cd183 O186 2.297 . S
Cd183 O187 2.439 1_554 S
Cd183 O193 2.240 1_554 S
Cd184 O185 2.240 1_556 S
Cd184 O192 2.206 1_556 S
Cd184 O194 2.297 . S
Cd184 O195 2.439 . S
O185 Cd184 2.240 1_554 S
O185 C190 1.279 . S
O186 Cd183 2.297 . S
O186 C188 1.247 . S
O187 Cd183 2.439 1_556 S
O187 C188 1.208 1_556 S
C188 O186 1.247 . S
C188 O187 1.208 1_554 S
C189 O194 1.247 . S
C189 O195 1.208 . S
C190 O182 1.315 . S
C190 O185 1.279 . S
C191 O192 1.313 1_556 S
C191 O193 1.279 . S
O192 Cd184 2.206 1_554 S
O192 C191 1.313 1_554 S
O193 Cd183 2.240 1_556 S
O193 C191 1.279 . S
O194 Cd184 2.297 . S
O194 C189 1.247 . S
O195 Cd184 2.439 . S
O195 C189 1.208 . S
O196 Cd197 2.223 . S
O196 C204 1.315 . S
Cd197 O196 2.223 . S
Cd197 O200 2.297 . S
Cd197 O201 2.439 . S
Cd197 O207 2.240 . S
Cd198 O199 2.240 . S
Cd198 O206 2.223 . S
Cd198 O208 2.297 . S
Cd198 O209 2.439 . S
O199 Cd198 2.240 . S
O199 C204 1.279 . S
O200 Cd197 2.297 . S
O200 C202 1.247 . S
O201 Cd197 2.439 . S
O201 C202 1.208 . S
C202 O200 1.247 . S
C202 O201 1.208 . S
C203 O208 1.247 . S
C203 O209 1.208 . S
C204 O196 1.315 . S
C204 O199 1.279 . S
C205 O206 1.315 . S
C205 O207 1.279 . S
O206 Cd198 2.223 . S
O206 C205 1.315 . S
O207 Cd197 2.240 . S
O207 C205 1.279 . S
O208 Cd198 2.297 . S
O208 C203 1.247 . S
O209 Cd198 2.439 . S
O209 C203 1.208 . S
O210 Cd211 2.223 . S
O210 C218 1.315 . S
Cd211 O210 2.223 . S
Cd211 O214 2.297 . S
Cd211 O215 2.439 . S
Cd211 O221 2.240 . S
Cd212 O213 2.240 . S
Cd212 O220 2.223 . S
Cd212 O222 2.297 . S
Cd212 O223 2.439 . S
O213 Cd212 2.240 . S
O213 C218 1.279 . S
O214 Cd211 2.297 . S
O214 C216 1.247 . S
O215 Cd211 2.439 . S
O215 C216 1.208 . S
C216 O214 1.247 . S
C216 O215 1.208 . S
C217 O222 1.247 . S
C217 O223 1.208 . S
C218 O210 1.315 . S
C218 O213 1.279 . S
C219 O220 1.315 . S
C219 O221 1.279 . S
O220 Cd212 2.223 . S
O220 C219 1.315 . S
O221 Cd211 2.240 . S
O221 C219 1.279 . S
O222 Cd212 2.297 . S
O222 C217 1.247 . S
O223 Cd212 2.439 . S
O223 C217 1.208 . S
O224 Cd225 2.216 1_565 S
O224 C232 1.315 . S
Cd225 O224 2.216 1_545 S
Cd225 O228 2.322 . S
Cd225 O229 2.459 . S
Cd225 O235 2.219 1_545 S
Cd226 O227 2.240 1_565 S
Cd226 O234 2.223 . S
Cd226 O236 2.297 . S
Cd226 O237 2.439 1_565 S
O227 Cd226 2.240 1_545 S
O227 C232 1.279 1_545 S
O228 Cd225 2.322 . S
O228 C230 1.247 . S
O229 Cd225 2.459 . S
O229 C230 1.208 . S
C230 O228 1.247 . S
C230 O229 1.208 . S
C231 O236 1.247 . S
C231 O237 1.208 1_565 S
C232 O224 1.315 . S
C232 O227 1.279 1_565 S
C233 O234 1.315 . S
C233 O235 1.279 . S
O234 Cd226 2.223 . S
O234 C233 1.315 . S
O235 Cd225 2.219 1_565 S
O235 C233 1.279 . S
O236 Cd226 2.297 . S
O236 C231 1.247 . S
O237 Cd226 2.439 1_545 S
O237 C231 1.208 1_545 S
O238 Cd239 2.223 . S
O238 C246 1.315 . S
Cd239 O238 2.223 . S
Cd239 O242 2.297 . S
Cd239 O243 2.439 . S
Cd239 O249 2.240 . S
Cd240 O241 2.240 . S
Cd240 O248 2.223 . S
Cd240 O250 2.297 . S
Cd240 O251 2.439 . S
O241 Cd240 2.240 . S
O241 C246 1.279 . S
O242 Cd239 2.297 . S
O242 C244 1.247 . S
O243 Cd239 2.439 . S
O243 C244 1.208 . S
C244 O242 1.247 . S
C244 O243 1.208 . S
C245 O250 1.247 . S
C245 O251 1.208 . S
C246 O238 1.315 . S
C246 O241 1.279 . S
C247 O248 1.315 . S
C247 O249 1.279 . S
O248 Cd240 2.223 . S
O248 C247 1.315 . S
O249 Cd239 2.240 . S
O249 C247 1.279 . S
O250 Cd240 2.297 . S
O250 C245 1.247 . S
O251 Cd240 2.439 . S
O251 C245 1.208 . S
O252 Cd253 2.223 . S
O252 C260 1.315 . S
Cd253 O252 2.223 . S
Cd253 O256 2.297 . S
Cd253 O257 2.439 . S
Cd253 O263 2.240 . S
Cd254 O255 2.240 . S
Cd254 O262 2.223 . S
Cd254 O264 2.297 . S
Cd254 O265 2.439 . S
O255 Cd254 2.240 . S
O255 C260 1.279 . S
O256 Cd253 2.297 . S
O256 C258 1.247 . S
O257 Cd253 2.439 . S
O257 C258 1.208 . S
C258 O256 1.247 . S
C258 O257 1.208 . S
C259 O264 1.247 . S
C259 O265 1.208 . S
C260 O252 1.315 . S
C260 O255 1.279 . S
C261 O262 1.315 . S
C261 O263 1.279 . S
O262 Cd254 2.223 . S
O262 C261 1.315 . S
O263 Cd253 2.240 . S
O263 C261 1.279 . S
O264 Cd254 2.297 . S
O264 C259 1.247 . S
O265 Cd254 2.439 . S
O265 C259 1.208 . S
O266 Cd267 2.235 . S
O266 C274 1.316 . S
Cd267 O266 2.235 . S
Cd267 O270 2.267 1_545 S
Cd267 O271 2.412 1_545 S
Cd267 O277 2.266 . S
Cd268 O269 2.240 1_545 S
Cd268 O276 2.223 . S
Cd268 O278 2.297 . S
Cd268 O279 2.439 1_545 S
O269 Cd268 2.240 1_565 S
O269 C274 1.264 1_565 S
O270 Cd267 2.267 1_565 S
O270 C272 1.247 . S
O271 Cd267 2.412 1_565 S
O271 C272 1.208 . S
C272 O270 1.247 . S
C272 O271 1.208 . S
C273 O278 1.247 . S
C273 O279 1.208 1_545 S
C274 O266 1.316 . S
C274 O269 1.264 1_545 S
C275 O276 1.315 . S
C275 O277 1.279 . S
O276 Cd268 2.223 . S
O276 C275 1.315 . S
O277 Cd267 2.266 . S
O277 C275 1.279 . S
O278 Cd268 2.297 . S
O278 C273 1.247 . S
O279 Cd268 2.439 1_565 S
O279 C273 1.208 1_565 S
O280 Cd281 2.223 . S
O280 C288 1.315 . S
Cd281 O280 2.223 . S
Cd281 O284 2.297 . S
Cd281 O285 2.439 . S
Cd281 O291 2.240 . S
Cd282 O283 2.240 . S
Cd282 O290 2.223 . S
Cd282 O292 2.297 1_554 S
Cd282 O293 2.439 1_554 S
O283 Cd282 2.240 . S
O283 C288 1.279 . S
O284 Cd281 2.297 . S
O284 C286 1.247 . S
O285 Cd281 2.439 . S
O285 C286 1.208 . S
C286 O284 1.247 . S
C286 O285 1.208 . S
C287 O292 1.247 . S
C287 O293 1.208 . S
C288 O280 1.315 . S
C288 O283 1.279 . S
C289 O290 1.315 . S
C289 O291 1.279 . S
O290 Cd282 2.223 . S
O290 C289 1.315 . S
O291 Cd281 2.240 . S
O291 C289 1.279 . S
O292 Cd282 2.297 1_556 S
O292 C287 1.247 . S
O293 Cd282 2.439 1_556 S
O293 C287 1.208 . S
O294 Cd295 2.223 . S
O294 C302 1.297 1_655 S
Cd295 O294 2.223 . S
Cd295 O298 2.297 . S
Cd295 O299 2.439 . S
Cd295 O305 2.240 . S
Cd296 O297 2.240 . S
Cd296 O304 2.223 . S
Cd296 O306 2.297 . S
Cd296 O307 2.439 . S
O297 Cd296 2.240 . S
O297 C302 1.283 . S
O298 Cd295 2.297 . S
O298 C300 1.247 . S
O299 Cd295 2.439 . S
O299 C300 1.208 . S
C300 O298 1.247 . S
C300 O299 1.208 . S
C301 O306 1.247 . S
C301 O307 1.208 . S
C302 O294 1.297 1_455 S
C302 O297 1.283 . S
C303 O304 1.315 1_655 S
C303 O305 1.279 . S
O304 Cd296 2.223 . S
O304 C303 1.315 1_455 S
O305 Cd295 2.240 . S
O305 C303 1.279 . S
O306 Cd296 2.297 . S
O306 C301 1.247 . S
O307 Cd296 2.439 . S
O307 C301 1.208 . S
O308 Cd309 2.223 . S
O308 C316 1.315 . S
Cd309 O308 2.223 . S
Cd309 O312 2.297 . S
Cd309 O313 2.439 . S
Cd309 O319 2.240 . S
Cd310 O311 2.240 . S
Cd310 O318 2.223 . S
Cd310 O320 2.297 . S
Cd310 O321 2.439 . S
O311 Cd310 2.240 . S
O311 C316 1.279 . S
O312 Cd309 2.297 . S
O312 C314 1.247 . S
O313 Cd309 2.439 . S
O313 C314 1.208 . S
C314 O312 1.247 . S
C314 O313 1.208 . S
C315 O320 1.247 . S
C315 O321 1.208 . S
C316 O308 1.315 . S
C316 O311 1.279 . S
C317 O318 1.315 . S
C317 O319 1.279 . S
O318 Cd310 2.223 . S
O318 C317 1.315 . S
O319 Cd309 2.240 . S
O319 C317 1.279 . S
O320 Cd310 2.297 . S
O320 C315 1.247 . S
O321 Cd310 2.439 . S
O321 C315 1.208 . S
O322 Cd323 2.223 . S
O322 C330 1.315 . S
Cd323 O322 2.223 . S
Cd323 O326 2.297 . S
Cd323 O327 2.439 . S
Cd323 O333 2.240 . S
Cd324 O325 2.240 . S
Cd324 O332 2.223 . S
Cd324 O334 2.297 . S
Cd324 O335 2.439 . S
O325 Cd324 2.240 . S
O325 C330 1.279 . S
O326 Cd323 2.297 . S
O326 C328 1.247 . S
O327 Cd323 2.439 . S
O327 C328 1.208 . S
C328 O326 1.247 . S
C328 O327 1.208 . S
C329 O334 1.247 . S
C329 O335 1.208 . S
C330 O322 1.315 . S
C330 O325 1.279 . S
C331 O332 1.315 . S
C331 O333 1.279 . S
O332 Cd324 2.223 . S
O332 C331 1.315 . S
O333 Cd323 2.240 . S
O333 C331 1.279 . S
O334 Cd324 2.297 . S
O334 C329 1.247 . S
O335 Cd324 2.439 . S
O335 C329 1.208 . S
Tb336 C346 2.825 1_455 S
Tb336 O347 2.347 . S
Tb336 O350 2.366 . S
Tb336 O355 2.418 1_554 S
Tb336 O356 2.384 . S
Tb336 O359 2.479 1_454 S
Tb336 O360 2.471 1_455 S
Eu337 O348 2.418 . S
Eu337 O349 2.384 . S
Eu337 O352 2.479 . S
Eu337 O353 2.471 . S
Eu337 O354 2.347 . S
Eu337 O357 2.366 . S
Eu337 C367 2.825 . S
C338 O354 1.216 1_556 S
C338 O355 1.278 . S
C339 O356 1.255 . S
C339 O357 1.265 . S
C340 C342 1.380 . S
C340 C343 1.374 1_556 S
C340 C346 1.507 1_556 S
C341 C342 1.384 . S
C341 C345 1.387 . S
C341 H368 0.930 . S
C342 C340 1.380 . S
C342 C341 1.384 . S
C342 H369 0.931 . S
C343 C340 1.374 1_554 S
C343 C344 1.390 . S
C343 H370 0.930 . S
C344 C343 1.390 . S
C344 C345 1.391 1_554 S
C344 H371 0.930 . S
C345 C341 1.387 . S
C345 C344 1.391 1_556 S
C346 Tb336 2.825 1_655 S
C346 C340 1.507 1_554 S
C346 O359 1.238 1_554 S
C346 O360 1.247 . S
O347 Tb336 2.347 . S
O347 C351 1.259 . S
O348 Eu337 2.418 . S
O348 C351 1.265 . S
O349 Eu337 2.384 . S
O349 C358 1.255 . S
O350 Tb336 2.366 . S
O350 C358 1.265 . S
C351 O347 1.259 . S
C351 O348 1.265 . S
O352 Eu337 2.479 . S
O352 C367 1.238 . S
O353 Eu337 2.471 . S
O353 C367 1.247 . S
O354 Eu337 2.347 . S
O354 C338 1.216 1_554 S
O355 Tb336 2.418 1_556 S
O355 C338 1.278 . S
O356 Tb336 2.384 . S
O356 C339 1.255 . S
O357 Eu337 2.366 . S
O357 C339 1.265 . S
C358 O349 1.255 . S
C358 O350 1.265 . S
O359 Tb336 2.479 1_656 S
O359 C346 1.238 1_556 S
O360 Tb336 2.471 1_655 S
O360 C346 1.247 . S
C361 C364 1.380 . S
C361 C365 1.374 . S
C361 C367 1.507 . S
C362 C363 1.387 . S
C362 C366 1.391 . S
C363 C362 1.387 . S
C363 C364 1.384 . S
C363 H372 0.930 . S
C364 C361 1.380 . S
C364 C363 1.384 . S
C364 H373 0.931 . S
C365 C361 1.374 . S
C365 C366 1.390 . S
C365 H374 0.930 . S
C366 C362 1.391 . S
C366 C365 1.390 . S
C366 H375 0.930 . S
C367 Eu337 2.825 . S
C367 O352 1.238 . S
C367 O353 1.247 . S
C367 C361 1.507 . S
H368 C341 0.930 . S
H369 C342 0.931 . S
H370 C343 0.930 . S
H371 C344 0.930 . S
H372 C363 0.930 . S
H373 C364 0.931 . S
H374 C365 0.930 . S
H375 C366 0.930 . S
Tb376 C386 2.825 . S
Tb376 O387 2.347 . S
Tb376 O390 2.366 . S
Tb376 O395 2.418 . S
Tb376 O396 2.384 . S
Tb376 O399 2.479 . S
Tb376 O400 2.471 . S
Eu377 O388 2.418 . S
Eu377 O389 2.384 . S
Eu377 O392 2.479 . S
Eu377 O393 2.471 . S
Eu377 O394 2.347 . S
Eu377 O397 2.366 . S
Eu377 C407 2.825 . S
C378 O394 1.259 . S
C378 O395 1.265 . S
C379 O396 1.255 . S
C379 O397 1.265 . S
C380 C382 1.380 . S
C380 C383 1.374 . S
C380 C386 1.507 . S
C381 C382 1.384 . S
C381 C385 1.387 . S
C381 H408 0.930 . S
C382 C380 1.380 . S
C382 C381 1.384 . S
C382 H409 0.931 . S
C383 C380 1.374 . S
C383 C384 1.390 . S
C383 H410 0.930 . S
C384 C383 1.390 . S
C384 C385 1.391 . S
C384 H411 0.930 . S
C385 C381 1.387 . S
C385 C384 1.391 . S
C386 Tb376 2.825 . S
C386 C380 1.507 . S
C386 O399 1.238 . S
C386 O400 1.247 . S
O387 Tb376 2.347 . S
O387 C391 1.259 . S
O388 Eu377 2.418 . S
O388 C391 1.265 . S
O389 Eu377 2.384 . S
O389 C398 1.255 . S
O390 Tb376 2.366 . S
O390 C398 1.265 . S
C391 O387 1.259 . S
C391 O388 1.265 . S
O392 Eu377 2.479 . S
O392 C407 1.238 . S
O393 Eu377 2.471 . S
O393 C407 1.247 . S
O394 Eu377 2.347 . S
O394 C378 1.259 . S
O395 Tb376 2.418 . S
O395 C378 1.265 . S
O396 Tb376 2.384 . S
O396 C379 1.255 . S
O397 Eu377 2.366 . S
O397 C379 1.265 . S
C398 O389 1.255 . S
C398 O390 1.265 . S
O399 Tb376 2.479 . S
O399 C386 1.238 . S
O400 Tb376 2.471 . S
O400 C386 1.247 . S
C401 C404 1.380 . S
C401 C405 1.374 . S
C401 C407 1.507 . S
C402 C403 1.387 . S
C402 C406 1.391 . S
C403 C402 1.387 . S
C403 C404 1.384 . S
C403 H412 0.930 . S
C404 C401 1.380 . S
C404 C403 1.384 . S
C404 H413 0.931 . S
C405 C401 1.374 . S
C405 C406 1.390 . S
C405 H414 0.930 . S
C406 C402 1.391 . S
C406 C405 1.390 . S
C406 H415 0.930 . S
C407 Eu377 2.825 . S
C407 O392 1.238 . S
C407 O393 1.247 . S
C407 C401 1.507 . S
H408 C381 0.930 . S
H409 C382 0.931 . S
H410 C383 0.930 . S
H411 C384 0.930 . S
H412 C403 0.930 . S
H413 C404 0.931 . S
H414 C405 0.930 . S
H415 C406 0.930 . S
Tb416 C426 2.825 1_545 S
Tb416 O427 2.347 . S
Tb416 O430 2.366 . S
Tb416 O435 2.418 . S
Tb416 O436 2.384 . S
Tb416 O439 2.479 1_545 S
Tb416 O440 2.471 1_545 S
Eu417 O428 2.418 . S
Eu417 O429 2.384 . S
Eu417 O432 2.479 . S
Eu417 O433 2.471 . S
Eu417 O434 2.347 . S
Eu417 O437 2.366 . S
Eu417 C447 2.825 . S
C418 O434 1.259 . S
C418 O435 1.265 . S
C419 O436 1.255 . S
C419 O437 1.265 . S
C420 C422 1.380 . S
C420 C423 1.374 . S
C420 C426 1.507 . S
C421 C422 1.384 . S
C421 C425 1.387 . S
C421 H448 0.930 . S
C422 C420 1.380 . S
C422 C421 1.384 . S
C422 H449 0.931 . S
C423 C420 1.374 . S
C423 C424 1.390 . S
C423 H450 0.930 . S
C424 C423 1.390 . S
C424 C425 1.391 . S
C424 H451 0.930 . S
C425 C421 1.387 . S
C425 C424 1.391 . S
C426 Tb416 2.825 1_565 S
C426 C420 1.507 . S
C426 O439 1.238 . S
C426 O440 1.247 . S
O427 Tb416 2.347 . S
O427 C431 1.259 . S
O428 Eu417 2.418 . S
O428 C431 1.265 . S
O429 Eu417 2.384 . S
O429 C438 1.255 . S
O430 Tb416 2.366 . S
O430 C438 1.265 . S
C431 O427 1.259 . S
C431 O428 1.265 . S
O432 Eu417 2.479 . S
O432 C447 1.238 . S
O433 Eu417 2.471 . S
O433 C447 1.247 . S
O434 Eu417 2.347 . S
O434 C418 1.259 . S
O435 Tb416 2.418 . S
O435 C418 1.265 . S
O436 Tb416 2.384 . S
O436 C419 1.255 . S
O437 Eu417 2.366 . S
O437 C419 1.265 . S
C438 O429 1.255 . S
C438 O430 1.265 . S
O439 Tb416 2.479 1_565 S
O439 C426 1.238 . S
O440 Tb416 2.471 1_565 S
O440 C426 1.247 . S
C441 C444 1.380 . S
C441 C445 1.374 . S
C441 C447 1.507 . S
C442 C443 1.387 . S
C442 C446 1.391 . S
C443 C442 1.387 . S
C443 C444 1.384 . S
C443 H452 0.930 . S
C444 C441 1.380 . S
C444 C443 1.384 . S
C444 H453 0.931 . S
C445 C441 1.374 . S
C445 C446 1.390 . S
C445 H454 0.930 . S
C446 C442 1.391 . S
C446 C445 1.390 . S
C446 H455 0.930 . S
C447 Eu417 2.825 . S
C447 O432 1.238 . S
C447 O433 1.247 . S
C447 C441 1.507 . S
H448 C421 0.930 . S
H449 C422 0.931 . S
H450 C423 0.930 . S
H451 C424 0.930 . S
H452 C443 0.930 . S
H453 C444 0.931 . S
H454 C445 0.930 . S
H455 C446 0.930 . S
Tb456 C466 2.825 . S
Tb456 O467 2.347 . S
Tb456 O470 2.366 . S
Tb456 O475 2.418 . S
Tb456 O476 2.384 . S
Tb456 O479 2.479 . S
Tb456 O480 2.471 . S
Eu457 O468 2.418 . S
Eu457 O469 2.384 . S
Eu457 O472 2.479 . S
Eu457 O473 2.471 . S
Eu457 O474 2.347 . S
Eu457 O477 2.366 . S
Eu457 C487 2.825 . S
C458 O474 1.259 . S
C458 O475 1.265 . S
C459 O476 1.255 . S
C459 O477 1.265 . S
C460 C462 1.380 . S
C460 C463 1.374 . S
C460 C466 1.507 . S
C461 C462 1.384 . S
C461 C465 1.387 . S
C461 H488 0.930 . S
C462 C460 1.380 . S
C462 C461 1.384 . S
C462 H489 0.931 . S
C463 C460 1.374 . S
C463 C464 1.390 . S
C463 H490 0.930 . S
C464 C463 1.390 . S
C464 C465 1.391 . S
C464 H491 0.930 . S
C465 C461 1.387 . S
C465 C464 1.391 . S
C466 Tb456 2.825 . S
C466 C460 1.507 . S
C466 O479 1.238 . S
C466 O480 1.247 . S
O467 Tb456 2.347 . S
O467 C471 1.259 . S
O468 Eu457 2.418 . S
O468 C471 1.265 . S
O469 Eu457 2.384 . S
O469 C478 1.255 . S
O470 Tb456 2.366 . S
O470 C478 1.265 . S
C471 O467 1.259 . S
C471 O468 1.265 . S
O472 Eu457 2.479 . S
O472 C487 1.238 . S
O473 Eu457 2.471 . S
O473 C487 1.247 . S
O474 Eu457 2.347 . S
O474 C458 1.259 . S
O475 Tb456 2.418 . S
O475 C458 1.265 . S
O476 Tb456 2.384 . S
O476 C459 1.255 . S
O477 Eu457 2.366 . S
O477 C459 1.265 . S
C478 O469 1.255 . S
C478 O470 1.265 . S
O479 Tb456 2.479 . S
O479 C466 1.238 . S
O480 Tb456 2.471 . S
O480 C466 1.247 . S
C481 C484 1.380 . S
C481 C485 1.374 . S
C481 C487 1.507 . S
C482 C483 1.387 . S
C482 C486 1.391 . S
C483 C482 1.387 . S
C483 C484 1.384 . S
C483 H492 0.930 . S
C484 C481 1.380 . S
C484 C483 1.384 . S
C484 H493 0.931 . S
C485 C481 1.374 . S
C485 C486 1.390 . S
C485 H494 0.930 . S
C486 C482 1.391 . S
C486 C485 1.390 . S
C486 H495 0.930 . S
C487 Eu457 2.825 . S
C487 O472 1.238 . S
C487 O473 1.247 . S
C487 C481 1.507 . S
H488 C461 0.930 . S
H489 C462 0.931 . S
H490 C463 0.930 . S
H491 C464 0.930 . S
H492 C483 0.930 . S
H493 C484 0.931 . S
H494 C485 0.930 . S
H495 C486 0.930 . S
Tb496 C506 2.825 . S
Tb496 O507 2.347 . S
Tb496 O510 2.366 . S
Tb496 O515 2.418 . S
Tb496 O516 2.384 1_545 S
Tb496 O519 2.479 . S
Tb496 O520 2.471 . S
Eu497 O508 2.418 . S
Eu497 O509 2.384 . S
Eu497 O512 2.479 . S
Eu497 O513 2.471 . S
Eu497 O514 2.347 . S
Eu497 O517 2.366 . S
Eu497 C527 2.825 . S
C498 O514 1.259 . S
C498 O515 1.265 . S
C499 O516 1.255 . S
C499 O517 1.265 1_565 S
C500 C502 1.380 . S
C500 C503 1.374 . S
C500 C506 1.507 . S
C501 C502 1.384 . S
C501 C505 1.387 . S
C501 H528 0.930 . S
C502 C500 1.380 . S
C502 C501 1.384 . S
C502 H529 0.931 . S
C503 C500 1.374 . S
C503 C504 1.390 1_455 S
C503 H530 0.930 1_455 S
C504 C503 1.390 1_655 S
C504 C505 1.391 1_655 S
C504 H531 0.930 . S
C505 C501 1.387 . S
C505 C504 1.391 1_455 S
C506 Tb496 2.825 . S
C506 C500 1.507 . S
C506 O519 1.238 . S
C506 O520 1.247 . S
O507 Tb496 2.347 . S
O507 C511 1.259 . S
O508 Eu497 2.418 . S
O508 C511 1.265 . S
O509 Eu497 2.384 . S
O509 C518 1.255 . S
O510 Tb496 2.366 . S
O510 C518 1.265 . S
C511 O507 1.259 . S
C511 O508 1.265 . S
O512 Eu497 2.479 . S
O512 C527 1.238 . S
O513 Eu497 2.471 . S
O513 C527 1.247 . S
O514 Eu497 2.347 . S
O514 C498 1.259 . S
O515 Tb496 2.418 . S
O515 C498 1.265 . S
O516 Tb496 2.384 1_565 S
O516 C499 1.255 . S
O517 Eu497 2.366 . S
O517 C499 1.265 1_545 S
C518 O509 1.255 . S
C518 O510 1.265 . S
O519 Tb496 2.479 . S
O519 C506 1.238 . S
O520 Tb496 2.471 . S
O520 C506 1.247 . S
C521 C524 1.380 . S
C521 C525 1.374 . S
C521 C527 1.507 . S
C522 C523 1.387 . S
C522 C526 1.391 . S
C523 C522 1.387 . S
C523 C524 1.384 . S
C523 H532 0.930 . S
C524 C521 1.380 . S
C524 C523 1.384 . S
C524 H533 0.931 . S
C525 C521 1.374 . S
C525 C526 1.390 . S
C525 H534 0.930 . S
C526 C522 1.391 . S
C526 C525 1.390 . S
C526 H535 0.930 . S
C527 Eu497 2.825 . S
C527 O512 1.238 . S
C527 O513 1.247 . S
C527 C521 1.507 . S
H528 C501 0.930 . S
H529 C502 0.931 . S
H530 C503 0.930 1_655 S
H531 C504 0.930 . S
H532 C523 0.930 . S
H533 C524 0.931 . S
H534 C525 0.930 . S
H535 C526 0.930 . S
Tb536 C546 2.825 . S
Tb536 O547 2.347 . S
Tb536 O550 2.366 . S
Tb536 O555 2.418 . S
Tb536 O556 2.384 . S
Tb536 O559 2.479 . S
Tb536 O560 2.471 . S
Eu537 O548 2.418 . S
Eu537 O549 2.384 . S
Eu537 O552 2.479 . S
Eu537 O553 2.471 . S
Eu537 O554 2.347 . S
Eu537 O557 2.366 . S
Eu537 C567 2.825 . S
C538 O554 1.259 . S
C538 O555 1.265 . S
C539 O556 1.255 . S
C539 O557 1.265 . S
C540 C542 1.380 . S
C540 C543 1.374 . S
C540 C546 1.507 . S
C541 C542 1.384 . S
C541 C545 1.387 . S
C541 H568 0.930 . S
C542 C540 1.380 . S
C542 C541 1.384 . S
C542 H569 0.931 . S
C543 C540 1.374 . S
C543 C544 1.390 . S
C543 H570 0.930 . S
C544 C543 1.390 . S
C544 C545 1.391 . S
C544 H571 0.930 . S
C545 C541 1.387 . S
C545 C544 1.391 . S
C546 Tb536 2.825 . S
C546 C540 1.507 . S
C546 O559 1.238 . S
C546 O560 1.247 . S
O547 Tb536 2.347 . S
O547 C551 1.259 . S
O548 Eu537 2.418 . S
O548 C551 1.265 . S
O549 Eu537 2.384 . S
O549 C558 1.255 . S
O550 Tb536 2.366 . S
O550 C558 1.265 . S
C551 O547 1.259 . S
C551 O548 1.265 . S
O552 Eu537 2.479 . S
O552 C567 1.238 . S
O553 Eu537 2.471 . S
O553 C567 1.247 . S
O554 Eu537 2.347 . S
O554 C538 1.259 . S
O555 Tb536 2.418 . S
O555 C538 1.265 . S
O556 Tb536 2.384 . S
O556 C539 1.255 . S
O557 Eu537 2.366 . S
O557 C539 1.265 . S
C558 O549 1.255 . S
C558 O550 1.265 . S
O559 Tb536 2.479 . S
O559 C546 1.238 . S
O560 Tb536 2.471 . S
O560 C546 1.247 . S
C561 C564 1.380 . S
C561 C565 1.374 . S
C561 C567 1.507 . S
C562 C563 1.387 . S
C562 C566 1.391 . S
C563 C562 1.387 . S
C563 C564 1.384 . S
C563 H572 0.930 . S
C564 C561 1.380 . S
C564 C563 1.384 . S
C564 H573 0.931 . S
C565 C561 1.374 . S
C565 C566 1.390 . S
C565 H574 0.930 . S
C566 C562 1.391 . S
C566 C565 1.390 . S
C566 H575 0.930 . S
C567 Eu537 2.825 . S
C567 O552 1.238 . S
C567 O553 1.247 . S
C567 C561 1.507 . S
H568 C541 0.930 . S
H569 C542 0.931 . S
H570 C543 0.930 . S
H571 C544 0.930 . S
H572 C563 0.930 . S
H573 C564 0.931 . S
H574 C565 0.930 . S
H575 C566 0.930 . S
Tb576 C586 2.825 . S
Tb576 O587 2.347 . S
Tb576 O590 2.366 . S
Tb576 O595 2.418 1_545 S
Tb576 O596 2.384 . S
Tb576 O599 2.479 . S
Tb576 O600 2.471 . S
Eu577 O588 2.428 . S
Eu577 O589 2.403 . S
Eu577 O592 2.454 1_554 S
Eu577 O593 2.448 1_554 S
Eu577 O594 2.360 . S
Eu577 O597 2.368 . S
Eu577 C607 2.799 1_554 S
C578 O594 1.259 1_565 S
C578 O595 1.265 . S
C579 O596 1.255 . S
C579 O597 1.265 . S
C580 C582 1.383 1_545 S
C580 C583 1.374 . S
C580 C586 1.507 . S
C581 C582 1.384 . S
C581 C585 1.387 1_565 S
C581 H608 0.930 . S
C582 C580 1.383 1_565 S
C582 C581 1.384 . S
C582 H609 0.928 . S
C583 C580 1.374 . S
C583 C584 1.390 . S
C583 H610 0.930 . S
C584 C583 1.390 . S
C584 C585 1.391 . S
C584 H611 0.930 . S
C585 C581 1.387 1_545 S
C585 C584 1.391 . S
C586 Tb576 2.825 . S
C586 C580 1.507 . S
C586 O599 1.238 . S
C586 O600 1.247 . S
O587 Tb576 2.347 . S
O587 C591 1.259 . S
O588 Eu577 2.428 . S
O588 C591 1.265 . S
O589 Eu577 2.403 . S
O589 C598 1.255 . S
O590 Tb576 2.366 . S
O590 C598 1.265 . S
C591 O587 1.259 . S
C591 O588 1.265 . S
O592 Eu577 2.454 1_556 S
O592 C607 1.238 . S
O593 Eu577 2.448 1_556 S
O593 C607 1.247 . S
O594 Eu577 2.360 . S
O594 C578 1.259 1_545 S
O595 Tb576 2.418 1_565 S
O595 C578 1.265 . S
O596 Tb576 2.384 . S
O596 C579 1.255 . S
O597 Eu577 2.368 . S
O597 C579 1.265 . S
C598 O589 1.255 . S
C598 O590 1.265 . S
O599 Tb576 2.479 . S
O599 C586 1.238 . S
O600 Tb576 2.471 . S
O600 C586 1.247 . S
C601 C604 1.380 . S
C601 C605 1.374 . S
C601 C607 1.507 . S
C602 C603 1.387 . S
C602 C606 1.391 . S
C603 C602 1.387 . S
C603 C604 1.384 . S
C603 H612 0.930 . S
C604 C601 1.380 . S
C604 C603 1.384 . S
C604 H613 0.931 . S
C605 C601 1.374 . S
C605 C606 1.390 . S
C605 H614 0.930 . S
C606 C602 1.391 . S
C606 C605 1.390 . S
C606 H615 0.930 . S
C607 Eu577 2.799 1_556 S
C607 O592 1.238 . S
C607 O593 1.247 . S
C607 C601 1.507 . S
H608 C581 0.930 . S
H609 C582 0.928 . S
H610 C583 0.930 . S
H611 C584 0.930 . S
H612 C603 0.930 . S
H613 C604 0.931 . S
H614 C605 0.930 . S
H615 C606 0.930 . S
Tb616 C626 2.825 . S
Tb616 O627 2.347 . S
Tb616 O630 2.366 . S
Tb616 O635 2.418 . S
Tb616 O636 2.384 . S
Tb616 O639 2.479 . S
Tb616 O640 2.471 . S
Eu617 O628 2.418 . S
Eu617 O629 2.384 . S
Eu617 O632 2.479 . S
Eu617 O633 2.471 . S
Eu617 O634 2.347 . S
Eu617 O637 2.366 . S
Eu617 C647 2.825 . S
C618 O634 1.259 . S
C618 O635 1.265 . S
C619 O636 1.255 . S
C619 O637 1.265 . S
C620 C622 1.380 . S
C620 C623 1.374 . S
C620 C626 1.507 . S
C621 C622 1.384 . S
C621 C625 1.387 . S
C621 H648 0.930 . S
C622 C620 1.380 . S
C622 C621 1.384 . S
C622 H649 0.931 . S
C623 C620 1.374 . S
C623 C624 1.390 . S
C623 H650 0.930 . S
C624 C623 1.390 . S
C624 C625 1.391 . S
C624 H651 0.930 . S
C625 C621 1.387 . S
C625 C624 1.391 . S
C626 Tb616 2.825 . S
C626 C620 1.507 . S
C626 O639 1.238 . S
C626 O640 1.247 . S
O627 Tb616 2.347 . S
O627 C631 1.259 . S
O628 Eu617 2.418 . S
O628 C631 1.265 . S
O629 Eu617 2.384 . S
O629 C638 1.255 . S
O630 Tb616 2.366 . S
O630 C638 1.265 . S
C631 O627 1.259 . S
C631 O628 1.265 . S
O632 Eu617 2.479 . S
O632 C647 1.238 . S
O633 Eu617 2.471 . S
O633 C647 1.247 . S
O634 Eu617 2.347 . S
O634 C618 1.259 . S
O635 Tb616 2.418 . S
O635 C618 1.265 . S
O636 Tb616 2.384 . S
O636 C619 1.255 . S
O637 Eu617 2.366 . S
O637 C619 1.265 . S
C638 O629 1.255 . S
C638 O630 1.265 . S
O639 Tb616 2.479 . S
O639 C626 1.238 . S
O640 Tb616 2.471 . S
O640 C626 1.247 . S
C641 C644 1.380 . S
C641 C645 1.374 . S
C641 C647 1.507 . S
C642 C643 1.387 . S
C642 C646 1.391 . S
C643 C642 1.387 . S
C643 C644 1.384 . S
C643 H652 0.930 . S
C644 C641 1.380 . S
C644 C643 1.384 . S
C644 H653 0.931 . S
C645 C641 1.374 . S
C645 C646 1.390 . S
C645 H654 0.930 . S
C646 C642 1.391 . S
C646 C645 1.390 . S
C646 H655 0.930 . S
C647 Eu617 2.825 . S
C647 O632 1.238 . S
C647 O633 1.247 . S
C647 C641 1.507 . S
H648 C621 0.930 . S
H649 C622 0.931 . S
H650 C623 0.930 . S
H651 C624 0.930 . S
H652 C643 0.930 . S
H653 C644 0.931 . S
H654 C645 0.930 . S
H655 C646 0.930 . S
Tb656 C666 2.825 1_554 S
Tb656 O667 2.347 . S
Tb656 O670 2.366 . S
Tb656 O675 2.418 . S
Tb656 O676 2.384 . S
Tb656 O679 2.479 1_554 S
Tb656 O680 2.471 1_554 S
Eu657 O668 2.418 . S
Eu657 O669 2.384 . S
Eu657 O672 2.479 . S
Eu657 O673 2.471 . S
Eu657 O674 2.347 . S
Eu657 O677 2.366 . S
Eu657 C687 2.825 . S
C658 O674 1.259 . S
C658 O675 1.265 . S
C659 O676 1.255 . S
C659 O677 1.265 . S
C660 C662 1.380 . S
C660 C663 1.374 . S
C660 C666 1.507 . S
C661 C662 1.384 . S
C661 C665 1.387 . S
C661 H688 0.930 . S
C662 C660 1.380 . S
C662 C661 1.384 . S
C662 H689 0.931 . S
C663 C660 1.374 . S
C663 C664 1.390 . S
C663 H690 0.930 . S
C664 C663 1.390 . S
C664 C665 1.391 . S
C664 H691 0.930 . S
C665 C661 1.387 . S
C665 C664 1.391 . S
C666 Tb656 2.825 1_556 S
C666 C660 1.507 . S
C666 O679 1.238 . S
C666 O680 1.247 . S
O667 Tb656 2.347 . S
O667 C671 1.259 . S
O668 Eu657 2.418 . S
O668 C671 1.265 . S
O669 Eu657 2.384 . S
O669 C678 1.255 . S
O670 Tb656 2.366 . S
O670 C678 1.265 . S
C671 O667 1.259 . S
C671 O668 1.265 . S
O672 Eu657 2.479 . S
O672 C687 1.238 . S
O673 Eu657 2.471 . S
O673 C687 1.247 . S
O674 Eu657 2.347 . S
O674 C658 1.259 . S
O675 Tb656 2.418 . S
O675 C658 1.265 . S
O676 Tb656 2.384 . S
O676 C659 1.255 . S
O677 Eu657 2.366 . S
O677 C659 1.265 . S
C678 O669 1.255 . S
C678 O670 1.265 . S
O679 Tb656 2.479 1_556 S
O679 C666 1.238 . S
O680 Tb656 2.471 1_556 S
O680 C666 1.247 . S
C681 C684 1.380 . S
C681 C685 1.374 . S
C681 C687 1.507 . S
C682 C683 1.387 . S
C682 C686 1.391 . S
C683 C682 1.387 . S
C683 C684 1.384 . S
C683 H692 0.930 . S
C684 C681 1.380 . S
C684 C683 1.384 . S
C684 H693 0.931 . S
C685 C681 1.374 . S
C685 C686 1.390 . S
C685 H694 0.930 . S
C686 C682 1.391 . S
C686 C685 1.390 . S
C686 H695 0.930 . S
C687 Eu657 2.825 . S
C687 O672 1.238 . S
C687 O673 1.247 . S
C687 C681 1.507 . S
H688 C661 0.930 . S
H689 C662 0.931 . S
H690 C663 0.930 . S
H691 C664 0.930 . S
H692 C683 0.930 . S
H693 C684 0.931 . S
H694 C685 0.930 . S
H695 C686 0.930 . S
Tb696 C706 2.825 . S
Tb696 O707 2.347 . S
Tb696 O710 2.366 . S
Tb696 O715 2.418 . S
Tb696 O716 2.384 . S
Tb696 O719 2.479 . S
Tb696 O720 2.471 . S
Eu697 O708 2.418 . S
Eu697 O709 2.384 . S
Eu697 O712 2.479 . S
Eu697 O713 2.471 . S
Eu697 O714 2.347 . S
Eu697 O717 2.366 . S
Eu697 C727 2.825 . S
C698 O714 1.259 . S
C698 O715 1.265 . S
C699 O716 1.255 . S
C699 O717 1.265 . S
C700 C702 1.380 . S
C700 C703 1.374 . S
C700 C706 1.507 . S
C701 C702 1.384 . S
C701 C705 1.387 . S
C701 H728 0.930 . S
C702 C700 1.380 . S
C702 C701 1.384 . S
C702 H729 0.931 . S
C703 C700 1.374 . S
C703 C704 1.390 . S
C703 H730 0.930 . S
C704 C703 1.390 . S
C704 C705 1.391 . S
C704 H731 0.930 . S
C705 C701 1.387 . S
C705 C704 1.391 . S
C706 Tb696 2.825 . S
C706 C700 1.507 . S
C706 O719 1.238 . S
C706 O720 1.247 . S
O707 Tb696 2.347 . S
O707 C711 1.259 . S
O708 Eu697 2.418 . S
O708 C711 1.265 . S
O709 Eu697 2.384 . S
O709 C718 1.255 . S
O710 Tb696 2.366 . S
O710 C718 1.265 . S
C711 O707 1.259 . S
C711 O708 1.265 . S
O712 Eu697 2.479 . S
O712 C727 1.238 . S
O713 Eu697 2.471 . S
O713 C727 1.247 . S
O714 Eu697 2.347 . S
O714 C698 1.259 . S
O715 Tb696 2.418 . S
O715 C698 1.265 . S
O716 Tb696 2.384 . S
O716 C699 1.255 . S
O717 Eu697 2.366 . S
O717 C699 1.265 . S
C718 O709 1.255 . S
C718 O710 1.265 . S
O719 Tb696 2.479 . S
O719 C706 1.238 . S
O720 Tb696 2.471 . S
O720 C706 1.247 . S
C721 C724 1.380 . S
C721 C725 1.374 . S
C721 C727 1.507 . S
C722 C723 1.387 . S
C722 C726 1.391 . S
C723 C722 1.387 . S
C723 C724 1.384 . S
C723 H732 0.930 . S
C724 C721 1.380 . S
C724 C723 1.384 . S
C724 H733 0.931 . S
C725 C721 1.374 . S
C725 C726 1.390 . S
C725 H734 0.930 . S
C726 C722 1.391 . S
C726 C725 1.390 . S
C726 H735 0.930 . S
C727 Eu697 2.825 . S
C727 O712 1.238 . S
C727 O713 1.247 . S
C727 C721 1.507 . S
H728 C701 0.930 . S
H729 C702 0.931 . S
H730 C703 0.930 . S
H731 C704 0.930 . S
H732 C723 0.930 . S
H733 C724 0.931 . S
H734 C725 0.930 . S
H735 C726 0.930 . S
Tb736 C746 2.825 . S
Tb736 O747 2.347 . S
Tb736 O750 2.366 . S
Tb736 O755 2.418 . S
Tb736 O756 2.384 . S
Tb736 O759 2.479 . S
Tb736 O760 2.471 . S
Eu737 O748 2.418 . S
Eu737 O749 2.384 1_455 S
Eu737 O752 2.479 . S
Eu737 O753 2.471 . S
Eu737 O754 2.347 . S
Eu737 O757 2.366 . S
Eu737 C767 2.825 . S
C738 O754 1.259 . S
C738 O755 1.265 . S
C739 O756 1.255 . S
C739 O757 1.265 . S
C740 C742 1.380 . S
C740 C743 1.374 . S
C740 C746 1.507 . S
C741 C742 1.384 . S
C741 C745 1.387 . S
C741 H768 0.930 . S
C742 C740 1.380 . S
C742 C741 1.384 . S
C742 H769 0.931 . S
C743 C740 1.374 . S
C743 C744 1.390 . S
C743 H770 0.930 . S
C744 C743 1.390 . S
C744 C745 1.391 . S
C744 H771 0.930 1_455 S
C745 C741 1.387 . S
C745 C744 1.391 . S
C746 Tb736 2.825 . S
C746 C740 1.507 . S
C746 O759 1.238 . S
C746 O760 1.247 . S
O747 Tb736 2.347 . S
O747 C751 1.259 . S
O748 Eu737 2.418 . S
O748 C751 1.265 . S
O749 Eu737 2.384 1_655 S
O749 C758 1.255 . S
O750 Tb736 2.366 . S
O750 C758 1.265 1_455 S
C751 O747 1.259 . S
C751 O748 1.265 . S
O752 Eu737 2.479 . S
O752 C767 1.238 . S
O753 Eu737 2.471 . S
O753 C767 1.247 . S
O754 Eu737 2.347 . S
O754 C738 1.259 . S
O755 Tb736 2.418 . S
O755 C738 1.265 . S
O756 Tb736 2.384 . S
O756 C739 1.255 . S
O757 Eu737 2.366 . S
O757 C739 1.265 . S
C758 O749 1.255 . S
C758 O750 1.265 1_655 S
O759 Tb736 2.479 . S
O759 C746 1.238 . S
O760 Tb736 2.471 . S
O760 C746 1.247 . S
C761 C764 1.380 . S
C761 C765 1.374 . S
C761 C767 1.507 . S
C762 C763 1.387 . S
C762 C766 1.391 . S
C763 C762 1.387 . S
C763 C764 1.384 . S
C763 H772 0.930 . S
C764 C761 1.380 . S
C764 C763 1.384 . S
C764 H773 0.931 . S
C765 C761 1.374 . S
C765 C766 1.390 . S
C765 H774 0.930 . S
C766 C762 1.391 . S
C766 C765 1.390 . S
C766 H775 0.930 . S
C767 Eu737 2.825 . S
C767 O752 1.238 . S
C767 O753 1.247 . S
C767 C761 1.507 . S
H768 C741 0.930 . S
H769 C742 0.931 . S
H770 C743 0.930 . S
H771 C744 0.930 1_655 S
H772 C763 0.930 . S
H773 C764 0.931 . S
H774 C765 0.930 . S
H775 C766 0.930 . S
Tb776 C786 2.825 . S
Tb776 O787 2.347 . S
Tb776 O790 2.366 . S
Tb776 O795 2.418 . S
Tb776 O796 2.384 . S
Tb776 O799 2.479 . S
Tb776 O800 2.471 . S
Eu777 O788 2.418 . S
Eu777 O789 2.384 . S
Eu777 O792 2.479 . S
Eu777 O793 2.471 . S
Eu777 O794 2.347 . S
Eu777 O797 2.366 . S
Eu777 C807 2.825 . S
C778 O794 1.259 . S
C778 O795 1.265 . S
C779 O796 1.255 . S
C779 O797 1.265 . S
C780 C782 1.380 . S
C780 C783 1.374 . S
C780 C786 1.507 . S
C781 C782 1.384 . S
C781 C785 1.387 . S
C781 H808 0.930 . S
C782 C780 1.380 . S
C782 C781 1.384 . S
C782 H809 0.931 . S
C783 C780 1.374 . S
C783 C784 1.390 . S
C783 H810 0.930 . S
C784 C783 1.390 . S
C784 C785 1.391 . S
C784 H811 0.930 . S
C785 C781 1.387 . S
C785 C784 1.391 . S
C786 Tb776 2.825 . S
C786 C780 1.507 . S
C786 O799 1.238 . S
C786 O800 1.247 . S
O787 Tb776 2.347 . S
O787 C791 1.259 . S
O788 Eu777 2.418 . S
O788 C791 1.265 . S
O789 Eu777 2.384 . S
O789 C798 1.255 . S
O790 Tb776 2.366 . S
O790 C798 1.265 . S
C791 O787 1.259 . S
C791 O788 1.265 . S
O792 Eu777 2.479 . S
O792 C807 1.238 . S
O793 Eu777 2.471 . S
O793 C807 1.247 . S
O794 Eu777 2.347 . S
O794 C778 1.259 . S
O795 Tb776 2.418 . S
O795 C778 1.265 . S
O796 Tb776 2.384 . S
O796 C779 1.255 . S
O797 Eu777 2.366 . S
O797 C779 1.265 . S
C798 O789 1.255 . S
C798 O790 1.265 . S
O799 Tb776 2.479 . S
O799 C786 1.238 . S
O800 Tb776 2.471 . S
O800 C786 1.247 . S
C801 C804 1.380 . S
C801 C805 1.374 . S
C801 C807 1.507 . S
C802 C803 1.387 . S
C802 C806 1.391 . S
C803 C802 1.387 . S
C803 C804 1.384 . S
C803 H812 0.930 . S
C804 C801 1.380 . S
C804 C803 1.384 . S
C804 H813 0.931 . S
C805 C801 1.374 . S
C805 C806 1.390 . S
C805 H814 0.930 . S
C806 C802 1.391 . S
C806 C805 1.390 . S
C806 H815 0.930 . S
C807 Eu777 2.825 . S
C807 O792 1.238 . S
C807 O793 1.247 . S
C807 C801 1.507 . S
H808 C781 0.930 . S
H809 C782 0.931 . S
H810 C783 0.930 . S
H811 C784 0.930 . S
H812 C803 0.930 . S
H813 C804 0.931 . S
H814 C805 0.930 . S
H815 C806 0.930 . S
Tb816 C826 2.825 . S
Tb816 O827 2.347 . S
Tb816 O830 2.366 . S
Tb816 O835 2.418 . S
Tb816 O836 2.384 . S
Tb816 O839 2.479 . S
Tb816 O840 2.471 . S
Eu817 O828 2.418 . S
Eu817 O829 2.384 . S
Eu817 O832 2.479 . S
Eu817 O833 2.471 . S
Eu817 O834 2.347 . S
Eu817 O837 2.366 . S
Eu817 C847 2.825 . S
C818 O834 1.259 . S
C818 O835 1.265 . S
C819 O836 1.255 . S
C819 O837 1.265 . S
C820 C822 1.380 . S
C820 C823 1.374 . S
C820 C826 1.507 . S
C821 C822 1.384 . S
C821 C825 1.387 . S
C821 H848 0.930 . S
C822 C820 1.380 . S
C822 C821 1.384 . S
C822 H849 0.931 . S
C823 C820 1.374 . S
C823 C824 1.390 . S
C823 H850 0.930 . S
C824 C823 1.390 . S
C824 C825 1.391 . S
C824 H851 0.930 . S
C825 C821 1.387 . S
C825 C824 1.391 . S
C826 Tb816 2.825 . S
C826 C820 1.507 . S
C826 O839 1.238 . S
C826 O840 1.247 . S
O827 Tb816 2.347 . S
O827 C831 1.259 . S
O828 Eu817 2.418 . S
O828 C831 1.265 . S
O829 Eu817 2.384 . S
O829 C838 1.255 . S
O830 Tb816 2.366 . S
O830 C838 1.265 . S
C831 O827 1.259 . S
C831 O828 1.265 . S
O832 Eu817 2.479 . S
O832 C847 1.238 . S
O833 Eu817 2.471 . S
O833 C847 1.247 . S
O834 Eu817 2.347 . S
O834 C818 1.259 . S
O835 Tb816 2.418 . S
O835 C818 1.265 . S
O836 Tb816 2.384 . S
O836 C819 1.255 . S
O837 Eu817 2.366 . S
O837 C819 1.265 . S
C838 O829 1.255 . S
C838 O830 1.265 . S
O839 Tb816 2.479 . S
O839 C826 1.238 . S
O840 Tb816 2.471 . S
O840 C826 1.247 . S
C841 C844 1.380 . S
C841 C845 1.374 . S
C841 C847 1.507 . S
C842 C843 1.387 . S
C842 C846 1.391 . S
C843 C842 1.387 . S
C843 C844 1.384 . S
C843 H852 0.930 . S
C844 C841 1.380 . S
C844 C843 1.384 . S
C844 H853 0.931 . S
C845 C841 1.374 . S
C845 C846 1.390 . S
C845 H854 0.930 . S
C846 C842 1.391 . S
C846 C845 1.390 . S
C846 H855 0.930 . S
C847 Eu817 2.825 . S
C847 O832 1.238 . S
C847 O833 1.247 . S
C847 C841 1.507 . S
H848 C821 0.930 . S
H849 C822 0.931 . S
H850 C823 0.930 . S
H851 C824 0.930 . S
H852 C843 0.930 . S
H853 C844 0.931 . S
H854 C845 0.930 . S
H855 C846 0.930 . S
Tb856 C866 2.825 . S
Tb856 O867 2.347 . S
Tb856 O870 2.366 . S
Tb856 O875 2.418 . S
Tb856 O876 2.384 . S
Tb856 O879 2.479 . S
Tb856 O880 2.471 . S
Eu857 O868 2.418 . S
Eu857 O869 2.384 . S
Eu857 O872 2.479 . S
Eu857 O873 2.471 . S
Eu857 O874 2.347 . S
Eu857 O877 2.366 . S
Eu857 C887 2.825 . S
C858 O874 1.259 . S
C858 O875 1.265 . S
C859 O876 1.255 . S
C859 O877 1.265 . S
C860 C862 1.380 . S
C860 C863 1.374 . S
C860 C866 1.507 . S
C861 C862 1.384 . S
C861 C865 1.387 . S
C861 H888 0.930 . S
C862 C860 1.380 . S
C862 C861 1.384 . S
C862 H889 0.931 . S
C863 C860 1.374 . S
C863 C864 1.390 . S
C863 H890 0.930 . S
C864 C863 1.390 . S
C864 C865 1.391 . S
C864 H891 0.930 . S
C865 C861 1.387 . S
C865 C864 1.391 . S
C866 Tb856 2.825 . S
C866 C860 1.507 . S
C866 O879 1.238 . S
C866 O880 1.247 . S
O867 Tb856 2.347 . S
O867 C871 1.259 . S
O868 Eu857 2.418 . S
O868 C871 1.265 . S
O869 Eu857 2.384 . S
O869 C878 1.255 . S
O870 Tb856 2.366 . S
O870 C878 1.265 . S
C871 O867 1.259 . S
C871 O868 1.265 . S
O872 Eu857 2.479 . S
O872 C887 1.238 . S
O873 Eu857 2.471 . S
O873 C887 1.247 . S
O874 Eu857 2.347 . S
O874 C858 1.259 . S
O875 Tb856 2.418 . S
O875 C858 1.265 . S
O876 Tb856 2.384 . S
O876 C859 1.255 . S
O877 Eu857 2.366 . S
O877 C859 1.265 . S
C878 O869 1.255 . S
C878 O870 1.265 . S
O879 Tb856 2.479 . S
O879 C866 1.238 . S
O880 Tb856 2.471 . S
O880 C866 1.247 . S
C881 C884 1.380 . S
C881 C885 1.374 . S
C881 C887 1.507 . S
C882 C883 1.387 . S
C882 C886 1.391 . S
C883 C882 1.387 . S
C883 C884 1.384 . S
C883 H892 0.930 . S
C884 C881 1.380 . S
C884 C883 1.384 . S
C884 H893 0.931 . S
C885 C881 1.374 . S
C885 C886 1.390 . S
C885 H894 0.930 . S
C886 C882 1.391 . S
C886 C885 1.390 . S
C886 H895 0.930 . S
C887 Eu857 2.825 . S
C887 O872 1.238 . S
C887 O873 1.247 . S
C887 C881 1.507 . S
H888 C861 0.930 . S
H889 C862 0.931 . S
H890 C863 0.930 . S
H891 C864 0.930 . S
H892 C883 0.930 . S
H893 C884 0.931 . S
H894 C885 0.930 . S
H895 C886 0.930 . S
Tb896 C906 2.825 . S
Tb896 O907 2.347 . S
Tb896 O910 2.366 . S
Tb896 O915 2.418 . S
Tb896 O916 2.384 . S
Tb896 O919 2.479 . S
Tb896 O920 2.471 . S
Eu897 O908 2.418 . S
Eu897 O909 2.384 . S
Eu897 O912 2.479 . S
Eu897 O913 2.471 . S
Eu897 O914 2.347 . S
Eu897 O917 2.366 . S
Eu897 C927 2.825 . S
C898 O914 1.259 . S
C898 O915 1.265 . S
C899 O916 1.255 . S
C899 O917 1.265 . S
C900 C902 1.380 . S
C900 C903 1.374 . S
C900 C906 1.507 . S
C901 C902 1.384 . S
C901 C905 1.387 . S
C901 H928 0.930 . S
C902 C900 1.380 . S
C902 C901 1.384 . S
C902 H929 0.931 . S
C903 C900 1.374 . S
C903 C904 1.390 . S
C903 H930 0.930 . S
C904 C903 1.390 . S
C904 C905 1.391 . S
C904 H931 0.930 . S
C905 C901 1.387 . S
C905 C904 1.391 . S
C906 Tb896 2.825 . S
C906 C900 1.507 . S
C906 O919 1.238 . S
C906 O920 1.247 . S
O907 Tb896 2.347 . S
O907 C911 1.259 . S
O908 Eu897 2.418 . S
O908 C911 1.265 . S
O909 Eu897 2.384 . S
O909 C918 1.255 . S
O910 Tb896 2.366 . S
O910 C918 1.265 . S
C911 O907 1.259 . S
C911 O908 1.265 . S
O912 Eu897 2.479 . S
O912 C927 1.238 . S
O913 Eu897 2.471 . S
O913 C927 1.247 . S
O914 Eu897 2.347 . S
O914 C898 1.259 . S
O915 Tb896 2.418 . S
O915 C898 1.265 . S
O916 Tb896 2.384 . S
O916 C899 1.255 . S
O917 Eu897 2.366 . S
O917 C899 1.265 . S
C918 O909 1.255 . S
C918 O910 1.265 . S
O919 Tb896 2.479 . S
O919 C906 1.238 . S
O920 Tb896 2.471 . S
O920 C906 1.247 . S
C921 C924 1.380 . S
C921 C925 1.374 . S
C921 C927 1.507 . S
C922 C923 1.387 . S
C922 C926 1.391 . S
C923 C922 1.387 . S
C923 C924 1.384 . S
C923 H932 0.930 . S
C924 C921 1.380 . S
C924 C923 1.384 . S
C924 H933 0.931 . S
C925 C921 1.374 . S
C925 C926 1.390 . S
C925 H934 0.930 . S
C926 C922 1.391 . S
C926 C925 1.390 . S
C926 H935 0.930 . S
C927 Eu897 2.825 . S
C927 O912 1.238 . S
C927 O913 1.247 . S
C927 C921 1.507 . S
H928 C901 0.930 . S
H929 C902 0.931 . S
H930 C903 0.930 . S
H931 C904 0.930 . S
H932 C923 0.930 . S
H933 C924 0.931 . S
H934 C925 0.930 . S
H935 C926 0.930 . S
Tb936 C946 2.825 . S
Tb936 O947 2.347 . S
Tb936 O950 2.366 . S
Tb936 O955 2.418 . S
Tb936 O956 2.384 . S
Tb936 O959 2.479 . S
Tb936 O960 2.471 . S
Eu937 O948 2.418 . S
Eu937 O949 2.384 . S
Eu937 O952 2.479 . S
Eu937 O953 2.471 . S
Eu937 O954 2.347 . S
Eu937 O957 2.366 . S
Eu937 C967 2.825 . S
C938 O954 1.259 . S
C938 O955 1.265 . S
C939 O956 1.255 . S
C939 O957 1.265 . S
C940 C942 1.380 . S
C940 C943 1.374 1_554 S
C940 C946 1.507 . S
C941 C942 1.384 . S
C941 C945 1.387 1_554 S
C941 H968 0.930 . S
C942 C940 1.380 . S
C942 C941 1.384 . S
C942 H969 0.931 . S
C943 C940 1.374 1_556 S
C943 C944 1.390 . S
C943 H970 0.930 . S
C944 C943 1.390 . S
C944 C945 1.391 . S
C944 H971 0.930 . S
C945 C941 1.387 1_556 S
C945 C944 1.391 . S
C946 Tb936 2.825 . S
C946 C940 1.507 . S
C946 O959 1.238 . S
C946 O960 1.247 . S
O947 Tb936 2.347 . S
O947 C951 1.259 . S
O948 Eu937 2.418 . S
O948 C951 1.265 . S
O949 Eu937 2.384 . S
O949 C958 1.255 . S
O950 Tb936 2.366 . S
O950 C958 1.265 . S
C951 O947 1.259 . S
C951 O948 1.265 . S
O952 Eu937 2.479 . S
O952 C967 1.238 . S
O953 Eu937 2.471 . S
O953 C967 1.247 . S
O954 Eu937 2.347 . S
O954 C938 1.259 . S
O955 Tb936 2.418 . S
O955 C938 1.265 . S
O956 Tb936 2.384 . S
O956 C939 1.255 . S
O957 Eu937 2.366 . S
O957 C939 1.265 . S
C958 O949 1.255 . S
C958 O950 1.265 . S
O959 Tb936 2.479 . S
O959 C946 1.238 . S
O960 Tb936 2.471 . S
O960 C946 1.247 . S
C961 C964 1.380 . S
C961 C965 1.374 . S
C961 C967 1.507 . S
C962 C963 1.387 . S
C962 C966 1.391 . S
C963 C962 1.387 . S
C963 C964 1.384 . S
C963 H972 0.930 . S
C964 C961 1.380 . S
C964 C963 1.384 . S
C964 H973 0.931 . S
C965 C961 1.374 . S
C965 C966 1.390 . S
C965 H974 0.930 . S
C966 C962 1.391 . S
C966 C965 1.390 . S
C966 H975 0.930 . S
C967 Eu937 2.825 . S
C967 O952 1.238 . S
C967 O953 1.247 . S
C967 C961 1.507 . S
H968 C941 0.930 . S
H969 C942 0.931 . S
H970 C943 0.930 . S
H971 C944 0.930 . S
H972 C963 0.930 . S
H973 C964 0.931 . S
H974 C965 0.930 . S
H975 C966 0.930 . S
H976 C982 0.930 . S
H977 C986 0.930 . S
H978 C991 0.929 . S
H979 C989 0.929 . S
H980 C984 0.929 . S
H981 C990 0.929 . S
C982 H976 0.930 . S
C982 C983 1.367 . S
C982 C990 1.378 . S
C983 C982 1.367 . S
C983 C991 1.433 1_655 S
C984 H980 0.929 . S
C984 C986 1.378 1_556 S
C984 C988 1.350 . S
C985 C988 1.463 . S
C985 C990 1.350 1_455 S
C985 N993 1.427 . S
C986 H977 0.930 . S
C986 C984 1.378 1_554 S
C986 C987 1.367 . S
C987 C986 1.367 . S
C987 C989 1.433 1_554 S
C988 C984 1.350 . S
C988 C985 1.463 . S
C988 N992 1.427 . S
C989 H979 0.929 . S
C989 C987 1.433 1_556 S
C989 N992 1.384 . S
C990 H981 0.929 . S
C990 C982 1.378 . S
C990 C985 1.350 1_655 S
C991 H978 0.929 . S
C991 C983 1.433 1_455 S
C991 N993 1.384 . S
N992 C988 1.427 . S
N992 C989 1.384 . S
N993 C985 1.427 . S
N993 C991 1.384 . S
H994 C1000 0.930 . S
H995 C1004 0.930 . S
H996 C1009 0.929 . S
H997 C1007 0.929 . S
H998 C1002 0.929 . S
H999 C1008 0.929 . S
C1000 H994 0.930 . S
C1000 C1001 1.367 . S
C1000 C1008 1.378 . S
C1001 C1000 1.367 . S
C1001 C1009 1.433 . S
C1002 H998 0.929 . S
C1002 C1004 1.378 . S
C1002 C1006 1.350 . S
C1003 C1006 1.463 . S
C1003 C1008 1.350 . S
C1003 N1011 1.427 . S
C1004 H995 0.930 . S
C1004 C1002 1.378 . S
C1004 C1005 1.367 . S
C1005 C1004 1.367 . S
C1005 C1007 1.433 . S
C1006 C1002 1.350 . S
C1006 C1003 1.463 . S
C1006 N1010 1.427 . S
C1007 H997 0.929 . S
C1007 C1005 1.433 . S
C1007 N1010 1.384 . S
C1008 H999 0.929 . S
C1008 C1000 1.378 . S
C1008 C1003 1.350 . S
C1009 H996 0.929 . S
C1009 C1001 1.433 . S
C1009 N1011 1.384 . S
N1010 C1006 1.427 . S
N1010 C1007 1.384 . S
N1011 C1003 1.427 . S
N1011 C1009 1.384 . S
H1012 C1018 0.930 . S
H1013 C1022 0.930 . S
H1014 C1027 0.929 . S
H1015 C1025 0.929 . S
H1016 C1020 0.929 . S
H1017 C1026 0.929 . S
C1018 H1012 0.930 . S
C1018 C1019 1.367 . S
C1018 C1026 1.378 . S
C1019 C1018 1.367 . S
C1019 C1027 1.433 . S
C1020 H1016 0.929 . S
C1020 C1022 1.378 . S
C1020 C1024 1.350 . S
C1021 C1024 1.463 . S
C1021 C1026 1.350 . S
C1021 N1029 1.427 . S
C1022 H1013 0.930 . S
C1022 C1020 1.378 . S
C1022 C1023 1.367 . S
C1023 C1022 1.367 . S
C1023 C1025 1.433 . S
C1024 C1020 1.350 . S
C1024 C1021 1.463 . S
C1024 N1028 1.427 . S
C1025 H1015 0.929 . S
C1025 C1023 1.433 . S
C1025 N1028 1.384 . S
C1026 H1017 0.929 . S
C1026 C1018 1.378 . S
C1026 C1021 1.350 . S
C1027 H1014 0.929 . S
C1027 C1019 1.433 . S
C1027 N1029 1.384 . S
N1028 C1024 1.427 . S
N1028 C1025 1.384 . S
N1029 C1021 1.427 . S
N1029 C1027 1.384 . S
H1030 C1036 0.930 . S
H1031 C1040 0.930 . S
H1032 C1045 0.929 . S
H1033 C1043 0.929 . S
H1034 C1038 0.929 . S
H1035 C1044 0.929 . S
C1036 H1030 0.930 . S
C1036 C1037 1.367 . S
C1036 C1044 1.378 . S
C1037 C1036 1.367 . S
C1037 C1045 1.433 . S
C1038 H1034 0.929 . S
C1038 C1040 1.378 . S
C1038 C1042 1.350 . S
C1039 C1042 1.463 . S
C1039 C1044 1.350 . S
C1039 N1047 1.427 . S
C1040 H1031 0.930 . S
C1040 C1038 1.378 . S
C1040 C1041 1.367 . S
C1041 C1040 1.367 . S
C1041 C1043 1.433 . S
C1042 C1038 1.350 . S
C1042 C1039 1.463 . S
C1042 N1046 1.427 . S
C1043 H1033 0.929 . S
C1043 C1041 1.433 . S
C1043 N1046 1.384 . S
C1044 H1035 0.929 . S
C1044 C1036 1.378 . S
C1044 C1039 1.350 . S
C1045 H1032 0.929 . S
C1045 C1037 1.433 . S
C1045 N1047 1.384 . S
N1046 C1042 1.427 . S
N1046 C1043 1.384 . S
N1047 C1039 1.427 . S
N1047 C1045 1.384 . S
H1048 C1054 0.930 . S
H1049 C1058 0.930 . S
H1050 C1063 0.929 . S
H1051 C1061 0.929 . S
H1052 C1056 0.929 . S
H1053 C1062 0.929 . S
C1054 H1048 0.930 . S
C1054 C1055 1.367 . S
C1054 C1062 1.378 . S
C1055 C1054 1.367 . S
C1055 C1063 1.433 . S
C1056 H1052 0.929 . S
C1056 C1058 1.378 . S
C1056 C1060 1.350 . S
C1057 C1060 1.463 . S
C1057 C1062 1.350 . S
C1057 N1065 1.427 . S
C1058 H1049 0.930 . S
C1058 C1056 1.378 . S
C1058 C1059 1.367 . S
C1059 C1058 1.367 . S
C1059 C1061 1.433 . S
C1060 C1056 1.350 . S
C1060 C1057 1.463 . S
C1060 N1064 1.427 . S
C1061 H1051 0.929 . S
C1061 C1059 1.433 . S
C1061 N1064 1.384 . S
C1062 H1053 0.929 . S
C1062 C1054 1.378 . S
C1062 C1057 1.350 . S
C1063 H1050 0.929 . S
C1063 C1055 1.433 . S
C1063 N1065 1.384 . S
N1064 C1060 1.427 . S
N1064 C1061 1.384 . S
N1065 C1057 1.427 . S
N1065 C1063 1.384 . S
H1066 C1072 0.930 . S
H1067 C1076 0.930 . S
H1068 C1081 0.929 . S
H1069 C1079 0.929 . S
H1070 C1074 0.929 . S
H1071 C1080 0.929 . S
C1072 H1066 0.930 . S
C1072 C1073 1.367 . S
C1072 C1080 1.378 . S
C1073 C1072 1.367 . S
C1073 C1081 1.433 . S
C1074 H1070 0.929 . S
C1074 C1076 1.378 . S
C1074 C1078 1.350 . S
C1075 C1078 1.463 . S
C1075 C1080 1.350 . S
C1075 N1083 1.427 . S
C1076 H1067 0.930 . S
C1076 C1074 1.378 . S
C1076 C1077 1.367 . S
C1077 C1076 1.367 . S
C1077 C1079 1.433 . S
C1078 C1074 1.350 . S
C1078 C1075 1.463 . S
C1078 N1082 1.427 . S
C1079 H1069 0.929 . S
C1079 C1077 1.433 . S
C1079 N1082 1.384 . S
C1080 H1071 0.929 . S
C1080 C1072 1.378 . S
C1080 C1075 1.350 . S
C1081 H1068 0.929 . S
C1081 C1073 1.433 . S
C1081 N1083 1.384 . S
N1082 C1078 1.427 . S
N1082 C1079 1.384 . S
N1083 C1075 1.427 . S
N1083 C1081 1.384 . S
H1084 C1090 0.930 . S
H1085 C1094 0.930 . S
H1086 C1099 0.929 . S
H1087 C1097 0.929 . S
H1088 C1092 0.929 . S
H1089 C1098 0.929 . S
C1090 H1084 0.930 . S
C1090 C1091 1.367 . S
C1090 C1098 1.378 . S
C1091 C1090 1.367 . S
C1091 C1099 1.433 . S
C1092 H1088 0.929 . S
C1092 C1094 1.378 . S
C1092 C1096 1.350 . S
C1093 C1096 1.463 . S
C1093 C1098 1.350 . S
C1093 N1101 1.427 . S
C1094 H1085 0.930 . S
C1094 C1092 1.378 . S
C1094 C1095 1.367 . S
C1095 C1094 1.367 . S
C1095 C1097 1.433 . S
C1096 C1092 1.350 . S
C1096 C1093 1.463 . S
C1096 N1100 1.427 . S
C1097 H1087 0.929 . S
C1097 C1095 1.433 . S
C1097 N1100 1.384 . S
C1098 H1089 0.929 . S
C1098 C1090 1.378 . S
C1098 C1093 1.350 . S
C1099 H1086 0.929 . S
C1099 C1091 1.433 . S
C1099 N1101 1.384 . S
N1100 C1096 1.427 . S
N1100 C1097 1.384 . S
N1101 C1093 1.427 . S
N1101 C1099 1.384 . S
H1102 C1108 0.930 . S
H1103 C1112 0.930 . S
H1104 C1117 0.929 . S
H1105 C1115 0.929 . S
H1106 C1110 0.929 . S
H1107 C1116 0.929 . S
C1108 H1102 0.930 . S
C1108 C1109 1.367 . S
C1108 C1116 1.378 . S
C1109 C1108 1.367 . S
C1109 C1117 1.433 . S
C1110 H1106 0.929 . S
C1110 C1112 1.378 . S
C1110 C1114 1.350 . S
C1111 C1114 1.463 . S
C1111 C1116 1.350 . S
C1111 N1119 1.427 . S
C1112 H1103 0.930 . S
C1112 C1110 1.378 . S
C1112 C1113 1.367 . S
C1113 C1112 1.367 . S
C1113 C1115 1.433 . S
C1114 C1110 1.350 . S
C1114 C1111 1.463 . S
C1114 N1118 1.427 . S
C1115 H1105 0.929 . S
C1115 C1113 1.433 . S
C1115 N1118 1.384 . S
C1116 H1107 0.929 . S
C1116 C1108 1.378 . S
C1116 C1111 1.350 . S
C1117 H1104 0.929 . S
C1117 C1109 1.433 . S
C1117 N1119 1.384 . S
N1118 C1114 1.427 . S
N1118 C1115 1.384 . S
N1119 C1111 1.427 . S
N1119 C1117 1.384 . S
H1120 C1126 0.930 . S
H1121 C1130 0.930 . S
H1122 C1135 0.929 . S
H1123 C1133 0.929 . S
H1124 C1128 0.929 . S
H1125 C1134 0.929 . S
C1126 H1120 0.930 . S
C1126 C1127 1.367 1_565 S
C1126 C1134 1.378 . S
C1127 C1126 1.367 1_545 S
C1127 C1135 1.433 . S
C1128 H1124 0.929 . S
C1128 C1130 1.378 1_655 S
C1128 C1132 1.350 . S
C1129 C1132 1.463 . S
C1129 C1134 1.350 1_545 S
C1129 N1137 1.427 . S
C1130 H1121 0.930 . S
C1130 C1128 1.378 1_455 S
C1130 C1131 1.367 . S
C1131 C1130 1.367 . S
C1131 C1133 1.433 . S
C1132 C1128 1.350 . S
C1132 C1129 1.463 . S
C1132 N1136 1.427 . S
C1133 H1123 0.929 . S
C1133 C1131 1.433 . S
C1133 N1136 1.384 1_455 S
C1134 H1125 0.929 . S
C1134 C1126 1.378 . S
C1134 C1129 1.350 1_565 S
C1135 H1122 0.929 . S
C1135 C1127 1.433 . S
C1135 N1137 1.384 . S
N1136 C1132 1.427 . S
N1136 C1133 1.384 1_655 S
N1137 C1129 1.427 . S
N1137 C1135 1.384 . S
H1138 C1144 0.930 . S
H1139 C1148 0.930 . S
H1140 C1153 0.929 . S
H1141 C1151 0.929 . S
H1142 C1146 0.929 . S
H1143 C1152 0.929 . S
C1144 H1138 0.930 . S
C1144 C1145 1.367 . S
C1144 C1152 1.378 . S
C1145 C1144 1.367 . S
C1145 C1153 1.433 . S
C1146 H1142 0.929 . S
C1146 C1148 1.378 . S
C1146 C1150 1.350 . S
C1147 C1150 1.463 . S
C1147 C1152 1.350 . S
C1147 N1155 1.427 . S
C1148 H1139 0.930 . S
C1148 C1146 1.378 . S
C1148 C1149 1.367 . S
C1149 C1148 1.367 . S
C1149 C1151 1.433 . S
C1150 C1146 1.350 . S
C1150 C1147 1.463 . S
C1150 N1154 1.427 . S
C1151 H1141 0.929 . S
C1151 C1149 1.433 . S
C1151 N1154 1.384 . S
C1152 H1143 0.929 . S
C1152 C1144 1.378 . S
C1152 C1147 1.350 . S
C1153 H1140 0.929 . S
C1153 C1145 1.433 . S
C1153 N1155 1.384 . S
N1154 C1150 1.427 . S
N1154 C1151 1.384 . S
N1155 C1147 1.427 . S
N1155 C1153 1.384 . S
H1156 C1162 0.930 . S
H1157 C1166 0.930 . S
H1158 C1171 0.929 . S
H1159 C1169 0.929 . S
H1160 C1164 0.929 1_565 S
H1161 C1170 0.929 . S
C1162 H1156 0.930 . S
C1162 C1163 1.389 . S
C1162 C1170 1.378 . S
C1163 C1162 1.389 . S
C1163 C1171 1.424 1_545 S
C1164 H1160 0.929 1_545 S
C1164 C1166 1.378 . S
C1164 C1168 1.350 . S
C1165 C1168 1.463 . S
C1165 C1170 1.350 . S
C1165 N1173 1.427 1_545 S
C1166 H1157 0.930 . S
C1166 C1164 1.378 . S
C1166 C1167 1.367 . S
C1167 C1166 1.367 . S
C1167 C1169 1.433 . S
C1168 C1164 1.350 . S
C1168 C1165 1.463 . S
C1168 N1172 1.427 . S
C1169 H1159 0.929 . S
C1169 C1167 1.433 . S
C1169 N1172 1.384 . S
C1170 H1161 0.929 . S
C1170 C1162 1.378 . S
C1170 C1165 1.350 . S
C1171 H1158 0.929 . S
C1171 C1163 1.424 1_565 S
C1171 N1173 1.384 . S
N1172 C1168 1.427 . S
N1172 C1169 1.384 . S
N1173 C1165 1.427 1_565 S
N1173 C1171 1.384 . S
H1174 C1180 0.930 . S
H1175 C1184 0.930 . S
H1176 C1189 0.929 . S
H1177 C1187 0.929 . S
H1178 C1182 0.929 . S
H1179 C1188 0.929 . S
C1180 H1174 0.930 . S
C1180 C1181 1.367 . S
C1180 C1188 1.378 . S
C1181 C1180 1.367 . S
C1181 C1189 1.433 . S
C1182 H1178 0.929 . S
C1182 C1184 1.378 . S
C1182 C1186 1.350 . S
C1183 C1186 1.463 . S
C1183 C1188 1.350 . S
C1183 N1191 1.427 . S
C1184 H1175 0.930 . S
C1184 C1182 1.378 . S
C1184 C1185 1.367 . S
C1185 C1184 1.367 . S
C1185 C1187 1.433 . S
C1186 C1182 1.350 . S
C1186 C1183 1.463 . S
C1186 N1190 1.427 . S
C1187 H1177 0.929 . S
C1187 C1185 1.433 . S
C1187 N1190 1.384 . S
C1188 H1179 0.929 . S
C1188 C1180 1.378 . S
C1188 C1183 1.350 . S
C1189 H1176 0.929 . S
C1189 C1181 1.433 . S
C1189 N1191 1.384 . S
N1190 C1186 1.427 . S
N1190 C1187 1.384 . S
N1191 C1183 1.427 . S
N1191 C1189 1.384 . S
H1192 C1198 0.930 . S
H1193 C1202 0.930 . S
H1194 C1207 0.929 . S
H1195 C1205 0.929 . S
H1196 C1200 0.929 . S
H1197 C1206 0.929 . S
C1198 H1192 0.930 . S
C1198 C1199 1.367 . S
C1198 C1206 1.378 . S
C1199 C1198 1.367 . S
C1199 C1207 1.433 1_565 S
C1200 H1196 0.929 . S
C1200 C1202 1.378 . S
C1200 C1204 1.350 . S
C1201 C1204 1.463 . S
C1201 C1206 1.350 1_545 S
C1201 N1209 1.427 . S
C1202 H1193 0.930 . S
C1202 C1200 1.378 . S
C1202 C1203 1.367 1_655 S
C1203 C1202 1.367 1_455 S
C1203 C1205 1.433 . S
C1204 C1200 1.350 . S
C1204 C1201 1.463 . S
C1204 N1208 1.427 . S
C1205 H1195 0.929 . S
C1205 C1203 1.433 . S
C1205 N1208 1.384 1_455 S
C1206 H1197 0.929 . S
C1206 C1198 1.378 . S
C1206 C1201 1.350 1_565 S
C1207 H1194 0.929 . S
C1207 C1199 1.433 1_545 S
C1207 N1209 1.384 . S
N1208 C1204 1.427 . S
N1208 C1205 1.384 1_655 S
N1209 C1201 1.427 . S
N1209 C1207 1.384 . S
H1210 C1216 0.930 . S
H1211 C1220 0.930 . S
H1212 C1225 0.929 . S
H1213 C1223 0.929 . S
H1214 C1218 0.929 . S
H1215 C1224 0.929 . S
C1216 H1210 0.930 . S
C1216 C1217 1.367 . S
C1216 C1224 1.378 . S
C1217 C1216 1.367 . S
C1217 C1225 1.433 . S
C1218 H1214 0.929 . S
C1218 C1220 1.378 . S
C1218 C1222 1.350 . S
C1219 C1222 1.463 . S
C1219 C1224 1.350 . S
C1219 N1227 1.427 . S
C1220 H1211 0.930 . S
C1220 C1218 1.378 . S
C1220 C1221 1.367 . S
C1221 C1220 1.367 . S
C1221 C1223 1.433 . S
C1222 C1218 1.350 . S
C1222 C1219 1.463 . S
C1222 N1226 1.427 . S
C1223 H1213 0.929 . S
C1223 C1221 1.433 . S
C1223 N1226 1.384 . S
C1224 H1215 0.929 . S
C1224 C1216 1.378 . S
C1224 C1219 1.350 . S
C1225 H1212 0.929 . S
C1225 C1217 1.433 . S
C1225 N1227 1.384 . S
N1226 C1222 1.427 . S
N1226 C1223 1.384 . S
N1227 C1219 1.427 . S
N1227 C1225 1.384 . S
H1228 C1234 0.930 . S
H1229 C1238 0.930 . S
H1230 C1243 0.929 . S
H1231 C1241 0.929 . S
H1232 C1236 0.929 . S
H1233 C1242 0.929 . S
C1234 H1228 0.930 . S
C1234 C1235 1.367 1_565 S
C1234 C1242 1.378 1_565 S
C1235 C1234 1.367 1_545 S
C1235 C1243 1.433 . S
C1236 H1232 0.929 . S
C1236 C1238 1.378 . S
C1236 C1240 1.350 . S
C1237 C1240 1.463 . S
C1237 C1242 1.350 . S
C1237 N1245 1.427 . S
C1238 H1229 0.930 . S
C1238 C1236 1.378 . S
C1238 C1239 1.367 . S
C1239 C1238 1.367 . S
C1239 C1241 1.433 . S
C1240 C1236 1.350 . S
C1240 C1237 1.463 . S
C1240 N1244 1.427 . S
C1241 H1231 0.929 . S
C1241 C1239 1.433 . S
C1241 N1244 1.384 . S
C1242 H1233 0.929 . S
C1242 C1234 1.378 1_545 S
C1242 C1237 1.350 . S
C1243 H1230 0.929 . S
C1243 C1235 1.433 . S
C1243 N1245 1.384 . S
N1244 C1240 1.427 . S
N1244 C1241 1.384 . S
N1245 C1237 1.427 . S
N1245 C1243 1.384 . S
H1246 C1252 0.930 . S
H1247 C1256 0.930 . S
H1248 C1261 0.929 . S
H1249 C1259 0.929 . S
H1250 C1254 0.929 . S
H1251 C1260 0.929 . S
C1252 H1246 0.930 . S
C1252 C1253 1.367 . S
C1252 C1260 1.378 . S
C1253 C1252 1.367 . S
C1253 C1261 1.433 . S
C1254 H1250 0.929 . S
C1254 C1256 1.378 . S
C1254 C1258 1.350 . S
C1255 C1258 1.463 . S
C1255 C1260 1.350 . S
C1255 N1263 1.427 . S
C1256 H1247 0.930 . S
C1256 C1254 1.378 . S
C1256 C1257 1.367 . S
C1257 C1256 1.367 . S
C1257 C1259 1.433 . S
C1258 C1254 1.350 . S
C1258 C1255 1.463 . S
C1258 N1262 1.427 . S
C1259 H1249 0.929 . S
C1259 C1257 1.433 . S
C1259 N1262 1.384 . S
C1260 H1251 0.929 . S
C1260 C1252 1.378 . S
C1260 C1255 1.350 . S
C1261 H1248 0.929 . S
C1261 C1253 1.433 . S
C1261 N1263 1.384 . S
N1262 C1258 1.427 . S
N1262 C1259 1.384 . S
N1263 C1255 1.427 . S
N1263 C1261 1.384 . S
H1264 C1270 0.930 . S
H1265 C1274 0.930 . S
H1266 C1279 0.929 . S
H1267 C1277 0.929 1_545 S
H1268 C1272 0.929 . S
H1269 C1278 0.929 . S
C1270 H1264 0.930 . S
C1270 C1271 1.367 . S
C1270 C1278 1.378 . S
C1271 C1270 1.367 . S
C1271 C1279 1.433 . S
C1272 H1268 0.929 . S
C1272 C1274 1.378 . S
C1272 C1276 1.350 . S
C1273 C1276 1.463 . S
C1273 C1278 1.350 . S
C1273 N1281 1.427 . S
C1274 H1265 0.930 . S
C1274 C1272 1.378 . S
C1274 C1275 1.367 . S
C1275 C1274 1.367 . S
C1275 C1277 1.433 . S
C1276 C1272 1.350 . S
C1276 C1273 1.463 . S
C1276 N1280 1.427 . S
C1277 H1267 0.929 1_565 S
C1277 C1275 1.433 . S
C1277 N1280 1.384 . S
C1278 H1269 0.929 . S
C1278 C1270 1.378 . S
C1278 C1273 1.350 . S
C1279 H1266 0.929 . S
C1279 C1271 1.433 . S
C1279 N1281 1.384 . S
N1280 C1276 1.427 . S
N1280 C1277 1.384 . S
N1281 C1273 1.427 . S
N1281 C1279 1.384 . S
H1282 C1288 0.960 . S
H1283 C1292 0.930 . S
H1284 C1297 0.929 . S
H1285 C1295 0.929 . S
H1286 C1290 0.929 . S
H1287 C1296 0.929 . S
C1288 H1282 0.960 . S
C1288 C1289 1.367 . S
C1288 C1296 1.378 . S
C1289 C1288 1.367 . S
C1289 C1297 1.433 . S
C1290 H1286 0.929 . S
C1290 C1292 1.378 . S
C1290 C1294 1.350 . S
C1291 C1294 1.463 . S
C1291 C1296 1.350 . S
C1291 N1299 1.427 . S
C1292 H1283 0.930 . S
C1292 C1290 1.378 . S
C1292 C1293 1.367 . S
C1293 C1292 1.367 . S
C1293 C1295 1.433 . S
C1294 C1290 1.350 . S
C1294 C1291 1.463 . S
C1294 N1298 1.427 . S
C1295 H1285 0.929 . S
C1295 C1293 1.433 . S
C1295 N1298 1.384 . S
C1296 H1287 0.929 . S
C1296 C1288 1.378 . S
C1296 C1291 1.350 . S
C1297 H1284 0.929 . S
C1297 C1289 1.433 . S
C1297 N1299 1.384 . S
N1298 C1294 1.427 . S
N1298 C1295 1.384 . S
N1299 C1291 1.427 . S
N1299 C1297 1.384 . S
H1300 C1306 0.930 . S
H1301 C1310 0.930 . S
H1302 C1315 0.929 . S
H1303 C1313 0.929 . S
H1304 C1308 0.929 . S
H1305 C1314 0.929 . S
C1306 H1300 0.930 . S
C1306 C1307 1.367 . S
C1306 C1314 1.378 . S
C1307 C1306 1.367 . S
C1307 C1315 1.433 . S
C1308 H1304 0.929 . S
C1308 C1310 1.378 . S
C1308 C1312 1.350 . S
C1309 C1312 1.463 . S
C1309 C1314 1.350 . S
C1309 N1317 1.427 . S
C1310 H1301 0.930 . S
C1310 C1308 1.378 . S
C1310 C1311 1.367 . S
C1311 C1310 1.367 . S
C1311 C1313 1.433 . S
C1312 C1308 1.350 . S
C1312 C1309 1.463 . S
C1312 N1316 1.427 . S
C1313 H1303 0.929 . S
C1313 C1311 1.433 . S
C1313 N1316 1.384 . S
C1314 H1305 0.929 . S
C1314 C1306 1.378 . S
C1314 C1309 1.350 . S
C1315 H1302 0.929 . S
C1315 C1307 1.433 . S
C1315 N1317 1.384 . S
N1316 C1312 1.427 . S
N1316 C1313 1.384 . S
N1317 C1309 1.427 . S
N1317 C1315 1.384 . S
H1318 C1324 0.930 . S
H1319 C1328 0.930 . S
H1320 C1333 0.929 . S
H1321 C1331 0.929 . S
H1322 C1326 0.929 . S
H1323 C1332 0.929 . S
C1324 H1318 0.930 . S
C1324 C1325 1.367 . S
C1324 C1332 1.378 . S
C1325 C1324 1.367 . S
C1325 C1333 1.433 . S
C1326 H1322 0.929 . S
C1326 C1328 1.378 . S
C1326 C1330 1.350 . S
C1327 C1330 1.463 . S
C1327 C1332 1.350 . S
C1327 N1335 1.427 . S
C1328 H1319 0.930 . S
C1328 C1326 1.378 . S
C1328 C1329 1.367 . S
C1329 C1328 1.367 . S
C1329 C1331 1.433 . S
C1330 C1326 1.350 . S
C1330 C1327 1.463 . S
C1330 N1334 1.427 . S
C1331 H1321 0.929 . S
C1331 C1329 1.433 . S
C1331 N1334 1.384 . S
C1332 H1323 0.929 . S
C1332 C1324 1.378 . S
C1332 C1327 1.350 . S
C1333 H1320 0.929 . S
C1333 C1325 1.433 . S
C1333 N1335 1.384 . S
N1334 C1330 1.427 . S
N1334 C1331 1.384 . S
N1335 C1327 1.427 . S
N1335 C1333 1.384 . S
H1336 C1342 0.930 . S
H1337 C1346 0.930 . S
H1338 C1351 0.929 . S
H1339 C1349 0.929 . S
H1340 C1344 0.929 . S
H1341 C1350 0.929 . S
C1342 H1336 0.930 . S
C1342 C1343 1.367 . S
C1342 C1350 1.378 . S
C1343 C1342 1.367 . S
C1343 C1351 1.433 . S
C1344 H1340 0.929 . S
C1344 C1346 1.378 . S
C1344 C1348 1.350 . S
C1345 C1348 1.463 . S
C1345 C1350 1.350 . S
C1345 N1353 1.427 . S
C1346 H1337 0.930 . S
C1346 C1344 1.378 . S
C1346 C1347 1.367 . S
C1347 C1346 1.367 . S
C1347 C1349 1.433 . S
C1348 C1344 1.350 . S
C1348 C1345 1.463 . S
C1348 N1352 1.427 . S
C1349 H1339 0.929 . S
C1349 C1347 1.433 . S
C1349 N1352 1.384 . S
C1350 H1341 0.929 . S
C1350 C1342 1.378 . S
C1350 C1345 1.350 . S
C1351 H1338 0.929 . S
C1351 C1343 1.433 . S
C1351 N1353 1.384 . S
N1352 C1348 1.427 . S
N1352 C1349 1.384 . S
N1353 C1345 1.427 . S
N1353 C1351 1.384 . S
H1354 C1360 0.930 . S
H1355 C1364 0.930 . S
H1356 C1369 0.929 . S
H1357 C1367 0.929 . S
H1358 C1362 0.929 . S
H1359 C1368 0.929 . S
C1360 H1354 0.930 . S
C1360 C1361 1.367 . S
C1360 C1368 1.378 . S
C1361 C1360 1.367 . S
C1361 C1369 1.433 . S
C1362 H1358 0.929 . S
C1362 C1364 1.378 . S
C1362 C1366 1.350 . S
C1363 C1366 1.463 . S
C1363 C1368 1.350 . S
C1363 N1371 1.427 . S
C1364 H1355 0.930 . S
C1364 C1362 1.378 . S
C1364 C1365 1.367 . S
C1365 C1364 1.367 . S
C1365 C1367 1.433 . S
C1366 C1362 1.350 . S
C1366 C1363 1.463 . S
C1366 N1370 1.427 . S
C1367 H1357 0.929 . S
C1367 C1365 1.433 . S
C1367 N1370 1.384 . S
C1368 H1359 0.929 . S
C1368 C1360 1.378 . S
C1368 C1363 1.350 . S
C1369 H1356 0.929 . S
C1369 C1361 1.433 . S
C1369 N1371 1.384 . S
N1370 C1366 1.427 . S
N1370 C1367 1.384 . S
N1371 C1363 1.427 . S
N1371 C1369 1.384 . S
H1372 C1378 0.930 . S
H1373 C1382 0.930 . S
H1374 C1387 0.929 . S
H1375 C1385 0.929 . S
H1376 C1380 0.929 . S
H1377 C1386 0.929 . S
C1378 H1372 0.930 . S
C1378 C1379 1.367 . S
C1378 C1386 1.378 . S
C1379 C1378 1.367 . S
C1379 C1387 1.433 . S
C1380 H1376 0.929 . S
C1380 C1382 1.378 . S
C1380 C1384 1.350 . S
C1381 C1384 1.463 . S
C1381 C1386 1.350 . S
C1381 N1389 1.427 . S
C1382 H1373 0.930 . S
C1382 C1380 1.378 . S
C1382 C1383 1.367 . S
C1383 C1382 1.367 . S
C1383 C1385 1.433 . S
C1384 C1380 1.350 . S
C1384 C1381 1.463 . S
C1384 N1388 1.427 . S
C1385 H1375 0.929 . S
C1385 C1383 1.433 . S
C1385 N1388 1.384 . S
C1386 H1377 0.929 . S
C1386 C1378 1.378 . S
C1386 C1381 1.350 . S
C1387 H1374 0.929 . S
C1387 C1379 1.433 . S
C1387 N1389 1.384 . S
N1388 C1384 1.427 . S
N1388 C1385 1.384 . S
N1389 C1381 1.427 . S
N1389 C1387 1.384 . S
H1390 C1396 0.930 . S
H1391 C1400 0.930 . S
H1392 C1405 0.929 . S
H1393 C1403 0.929 . S
H1394 C1398 0.929 . S
H1395 C1404 0.929 . S
C1396 H1390 0.930 . S
C1396 C1397 1.367 . S
C1396 C1404 1.378 . S
C1397 C1396 1.367 . S
C1397 C1405 1.433 . S
C1398 H1394 0.929 . S
C1398 C1400 1.378 . S
C1398 C1402 1.350 . S
C1399 C1402 1.463 . S
C1399 C1404 1.350 . S
C1399 N1407 1.427 . S
C1400 H1391 0.930 . S
C1400 C1398 1.378 . S
C1400 C1401 1.367 . S
C1401 C1400 1.367 . S
C1401 C1403 1.433 . S
C1402 C1398 1.350 . S
C1402 C1399 1.463 . S
C1402 N1406 1.427 . S
C1403 H1393 0.929 . S
C1403 C1401 1.433 . S
C1403 N1406 1.384 . S
C1404 H1395 0.929 . S
C1404 C1396 1.378 . S
C1404 C1399 1.350 . S
C1405 H1392 0.929 . S
C1405 C1397 1.433 . S
C1405 N1407 1.384 . S
N1406 C1402 1.427 . S
N1406 C1403 1.384 . S
N1407 C1399 1.427 . S
N1407 C1405 1.384 . S
H1408 C1414 0.930 . S
H1409 C1418 0.930 . S
H1410 C1423 0.929 . S
H1411 C1421 0.929 1_545 S
H1412 C1416 0.929 . S
H1413 C1422 0.929 . S
C1414 H1408 0.930 . S
C1414 C1415 1.367 . S
C1414 C1422 1.378 . S
C1415 C1414 1.367 . S
C1415 C1423 1.433 . S
C1416 H1412 0.929 . S
C1416 C1418 1.378 . S
C1416 C1420 1.350 . S
C1417 C1420 1.463 . S
C1417 C1422 1.350 . S
C1417 N1425 1.427 . S
C1418 H1409 0.930 . S
C1418 C1416 1.378 . S
C1418 C1419 1.367 . S
C1419 C1418 1.367 . S
C1419 C1421 1.433 . S
C1420 C1416 1.350 . S
C1420 C1417 1.463 . S
C1420 N1424 1.427 . S
C1421 H1411 0.929 1_565 S
C1421 C1419 1.433 . S
C1421 N1424 1.384 . S
C1422 H1413 0.929 . S
C1422 C1414 1.378 . S
C1422 C1417 1.350 . S
C1423 H1410 0.929 . S
C1423 C1415 1.433 . S
C1423 N1425 1.384 . S
N1424 C1420 1.427 . S
N1424 C1421 1.384 . S
N1425 C1417 1.427 . S
N1425 C1423 1.384 . S
H1426 C1432 0.930 . S
H1427 C1436 0.930 . S
H1428 C1441 0.929 . S
H1429 C1439 0.929 . S
H1430 C1434 0.929 . S
H1431 C1440 0.929 . S
C1432 H1426 0.930 . S
C1432 C1433 1.367 . S
C1432 C1440 1.378 . S
C1433 C1432 1.367 . S
C1433 C1441 1.433 . S
C1434 H1430 0.929 . S
C1434 C1436 1.378 . S
C1434 C1438 1.350 . S
C1435 C1438 1.463 . S
C1435 C1440 1.350 . S
C1435 N1443 1.427 . S
C1436 H1427 0.930 . S
C1436 C1434 1.378 . S
C1436 C1437 1.367 . S
C1437 C1436 1.367 . S
C1437 C1439 1.433 . S
C1438 C1434 1.350 . S
C1438 C1435 1.463 . S
C1438 N1442 1.427 . S
C1439 H1429 0.929 . S
C1439 C1437 1.433 . S
C1439 N1442 1.384 . S
C1440 H1431 0.929 . S
C1440 C1432 1.378 . S
C1440 C1435 1.350 . S
C1441 H1428 0.929 . S
C1441 C1433 1.433 . S
C1441 N1443 1.384 . S
N1442 C1438 1.427 . S
N1442 C1439 1.384 . S
N1443 C1435 1.427 . S
N1443 C1441 1.384 . S
H1444 C1450 0.930 . S
H1445 C1454 0.930 . S
H1446 C1459 0.929 . S
H1447 C1457 0.929 . S
H1448 C1452 0.929 . S
H1449 C1458 0.929 . S
C1450 H1444 0.930 . S
C1450 C1451 1.367 . S
C1450 C1458 1.378 . S
C1451 C1450 1.367 . S
C1451 C1459 1.433 . S
C1452 H1448 0.929 . S
C1452 C1454 1.378 . S
C1452 C1456 1.350 . S
C1453 C1456 1.463 . S
C1453 C1458 1.350 . S
C1453 N1461 1.427 . S
C1454 H1445 0.930 . S
C1454 C1452 1.378 . S
C1454 C1455 1.367 . S
C1455 C1454 1.367 . S
C1455 C1457 1.433 . S
C1456 C1452 1.350 . S
C1456 C1453 1.463 . S
C1456 N1460 1.427 . S
C1457 H1447 0.929 . S
C1457 C1455 1.433 . S
C1457 N1460 1.384 . S
C1458 H1449 0.929 . S
C1458 C1450 1.378 . S
C1458 C1453 1.350 . S
C1459 H1446 0.929 . S
C1459 C1451 1.433 . S
C1459 N1461 1.384 . S
N1460 C1456 1.427 . S
N1460 C1457 1.384 . S
N1461 C1453 1.427 . S
N1461 C1459 1.384 . S
H1462 C1468 0.930 . S
H1463 C1472 0.930 . S
H1464 C1477 0.929 . S
H1465 C1475 0.929 . S
H1466 C1470 0.929 . S
H1467 C1476 0.929 . S
C1468 H1462 0.930 . S
C1468 C1469 1.367 . S
C1468 C1476 1.378 . S
C1469 C1468 1.367 . S
C1469 C1477 1.433 . S
C1470 H1466 0.929 . S
C1470 C1472 1.378 . S
C1470 C1474 1.350 . S
C1471 C1474 1.463 . S
C1471 C1476 1.350 . S
C1471 N1479 1.427 . S
C1472 H1463 0.930 . S
C1472 C1470 1.378 . S
C1472 C1473 1.367 . S
C1473 C1472 1.367 . S
C1473 C1475 1.433 . S
C1474 C1470 1.350 . S
C1474 C1471 1.463 . S
C1474 N1478 1.427 . S
C1475 H1465 0.929 . S
C1475 C1473 1.433 . S
C1475 N1478 1.384 . S
C1476 H1467 0.929 . S
C1476 C1468 1.378 . S
C1476 C1471 1.350 . S
C1477 H1464 0.929 . S
C1477 C1469 1.433 . S
C1477 N1479 1.384 . S
N1478 C1474 1.427 . S
N1478 C1475 1.384 . S
N1479 C1471 1.427 . S
N1479 C1477 1.384 . S
H1480 C1486 0.930 . S
H1481 C1490 0.930 . S
H1482 C1495 0.929 . S
H1483 C1493 0.929 . S
H1484 C1488 0.929 . S
H1485 C1494 0.929 . S
C1486 H1480 0.930 . S
C1486 C1487 1.367 . S
C1486 C1494 1.378 . S
C1487 C1486 1.367 . S
C1487 C1495 1.433 . S
C1488 H1484 0.929 . S
C1488 C1490 1.378 . S
C1488 C1492 1.350 . S
C1489 C1492 1.463 . S
C1489 C1494 1.350 . S
C1489 N1497 1.427 . S
C1490 H1481 0.930 . S
C1490 C1488 1.378 . S
C1490 C1491 1.367 . S
C1491 C1490 1.367 . S
C1491 C1493 1.433 . S
C1492 C1488 1.350 . S
C1492 C1489 1.463 . S
C1492 N1496 1.427 . S
C1493 H1483 0.929 . S
C1493 C1491 1.433 . S
C1493 N1496 1.384 . S
C1494 H1485 0.929 . S
C1494 C1486 1.378 . S
C1494 C1489 1.350 . S
C1495 H1482 0.929 . S
C1495 C1487 1.433 . S
C1495 N1497 1.384 . S
N1496 C1492 1.427 . S
N1496 C1493 1.384 . S
N1497 C1489 1.427 . S
N1497 C1495 1.384 . S
H1498 C1504 0.930 . S
H1499 C1508 0.930 . S
H1500 C1513 0.929 . S
H1501 C1511 0.929 . S
H1502 C1506 0.929 . S
H1503 C1512 0.929 . S
C1504 H1498 0.930 . S
C1504 C1505 1.367 . S
C1504 C1512 1.378 . S
C1505 C1504 1.367 . S
C1505 C1513 1.433 . S
C1506 H1502 0.929 . S
C1506 C1508 1.378 . S
C1506 C1510 1.350 . S
C1507 C1510 1.463 . S
C1507 C1512 1.350 . S
C1507 N1515 1.427 . S
C1508 H1499 0.930 . S
C1508 C1506 1.378 . S
C1508 C1509 1.367 . S
C1509 C1508 1.367 . S
C1509 C1511 1.433 . S
C1510 C1506 1.350 . S
C1510 C1507 1.463 . S
C1510 N1514 1.427 . S
C1511 H1501 0.929 . S
C1511 C1509 1.433 . S
C1511 N1514 1.384 . S
C1512 H1503 0.929 . S
C1512 C1504 1.378 . S
C1512 C1507 1.350 . S
C1513 H1500 0.929 . S
C1513 C1505 1.433 . S
C1513 N1515 1.384 . S
N1514 C1510 1.427 . S
N1514 C1511 1.384 . S
N1515 C1507 1.427 . S
N1515 C1513 1.384 . S
H1516 C1522 0.930 . S
H1517 C1526 0.930 . S
H1518 C1531 0.929 . S
H1519 C1529 0.929 . S
H1520 C1524 0.929 1_554 S
H1521 C1530 0.929 . S
C1522 H1516 0.930 . S
C1522 C1523 1.367 . S
C1522 C1530 1.378 . S
C1523 C1522 1.367 . S
C1523 C1531 1.433 . S
C1524 H1520 0.929 1_556 S
C1524 C1526 1.378 1_556 S
C1524 C1528 1.350 . S
C1525 C1528 1.463 . S
C1525 C1530 1.350 . S
C1525 N1533 1.427 . S
C1526 H1517 0.930 . S
C1526 C1524 1.378 1_554 S
C1526 C1527 1.367 1_554 S
C1527 C1526 1.367 1_556 S
C1527 C1529 1.433 . S
C1528 C1524 1.350 . S
C1528 C1525 1.463 . S
C1528 N1532 1.427 . S
C1529 H1519 0.929 . S
C1529 C1527 1.433 . S
C1529 N1532 1.384 . S
C1530 H1521 0.929 . S
C1530 C1522 1.378 . S
C1530 C1525 1.350 . S
C1531 H1518 0.929 . S
C1531 C1523 1.433 . S
C1531 N1533 1.384 . S
N1532 C1528 1.427 . S
N1532 C1529 1.384 . S
N1533 C1525 1.427 . S
N1533 C1531 1.384 . S
H1534 C1540 0.930 . S
H1535 C1544 0.930 . S
H1536 C1549 0.929 . S
H1537 C1547 0.929 . S
H1538 C1542 0.929 . S
H1539 C1548 0.929 . S
C1540 H1534 0.930 . S
C1540 C1541 1.367 . S
C1540 C1548 1.378 . S
C1541 C1540 1.367 . S
C1541 C1549 1.433 . S
C1542 H1538 0.929 . S
C1542 C1544 1.378 . S
C1542 C1546 1.350 . S
C1543 C1546 1.463 . S
C1543 C1548 1.350 . S
C1543 N1551 1.427 . S
C1544 H1535 0.930 . S
C1544 C1542 1.378 . S
C1544 C1545 1.367 . S
C1545 C1544 1.367 . S
C1545 C1547 1.433 . S
C1546 C1542 1.350 . S
C1546 C1543 1.463 . S
C1546 N1550 1.427 . S
C1547 H1537 0.929 . S
C1547 C1545 1.433 . S
C1547 N1550 1.384 . S
C1548 H1539 0.929 . S
C1548 C1540 1.378 . S
C1548 C1543 1.350 . S
C1549 H1536 0.929 . S
C1549 C1541 1.433 . S
C1549 N1551 1.384 . S
N1550 C1546 1.427 . S
N1550 C1547 1.384 . S
N1551 C1543 1.427 . S
N1551 C1549 1.384 . S
H1552 C1558 0.930 . S
H1553 C1562 0.930 . S
H1554 C1567 0.929 . S
H1555 C1565 0.929 . S
H1556 C1560 0.929 . S
H1557 C1566 0.929 . S
C1558 H1552 0.930 . S
C1558 C1559 1.367 . S
C1558 C1566 1.378 . S
C1559 C1558 1.367 . S
C1559 C1567 1.433 . S
C1560 H1556 0.929 . S
C1560 C1562 1.378 . S
C1560 C1564 1.350 . S
C1561 C1564 1.463 . S
C1561 C1566 1.350 . S
C1561 N1569 1.427 . S
C1562 H1553 0.930 . S
C1562 C1560 1.378 . S
C1562 C1563 1.367 . S
C1563 C1562 1.367 . S
C1563 C1565 1.433 . S
C1564 C1560 1.350 . S
C1564 C1561 1.463 . S
C1564 N1568 1.427 . S
C1565 H1555 0.929 . S
C1565 C1563 1.433 . S
C1565 N1568 1.384 . S
C1566 H1557 0.929 . S
C1566 C1558 1.378 . S
C1566 C1561 1.350 . S
C1567 H1554 0.929 . S
C1567 C1559 1.433 . S
C1567 N1569 1.384 . S
N1568 C1564 1.427 . S
N1568 C1565 1.384 . S
N1569 C1561 1.427 . S
N1569 C1567 1.384 . S
H1570 C1576 0.930 . S
H1571 C1580 0.930 . S
H1572 C1585 0.929 . S
H1573 C1583 0.929 . S
H1574 C1578 0.929 . S
H1575 C1584 0.929 . S
C1576 H1570 0.930 . S
C1576 C1577 1.367 . S
C1576 C1584 1.378 . S
C1577 C1576 1.367 . S
C1577 C1585 1.433 . S
C1578 H1574 0.929 . S
C1578 C1580 1.378 . S
C1578 C1582 1.350 . S
C1579 C1582 1.463 . S
C1579 C1584 1.350 . S
C1579 N1587 1.427 . S
C1580 H1571 0.930 . S
C1580 C1578 1.378 . S
C1580 C1581 1.367 . S
C1581 C1580 1.367 . S
C1581 C1583 1.433 . S
C1582 C1578 1.350 . S
C1582 C1579 1.463 . S
C1582 N1586 1.427 . S
C1583 H1573 0.929 . S
C1583 C1581 1.433 . S
C1583 N1586 1.384 . S
C1584 H1575 0.929 . S
C1584 C1576 1.378 . S
C1584 C1579 1.350 . S
C1585 H1572 0.929 . S
C1585 C1577 1.433 . S
C1585 N1587 1.384 . S
N1586 C1582 1.427 . S
N1586 C1583 1.384 . S
N1587 C1579 1.427 . S
N1587 C1585 1.384 . S
H1588 C1594 0.930 . S
H1589 C1598 0.930 . S
H1590 C1603 0.929 . S
H1591 C1601 0.929 . S
H1592 C1596 0.929 . S
H1593 C1602 0.929 . S
C1594 H1588 0.930 . S
C1594 C1595 1.367 . S
C1594 C1602 1.378 . S
C1595 C1594 1.367 . S
C1595 C1603 1.433 . S
C1596 H1592 0.929 . S
C1596 C1598 1.378 . S
C1596 C1600 1.350 . S
C1597 C1600 1.463 . S
C1597 C1602 1.350 . S
C1597 N1605 1.427 . S
C1598 H1589 0.930 . S
C1598 C1596 1.378 . S
C1598 C1599 1.367 . S
C1599 C1598 1.367 . S
C1599 C1601 1.433 . S
C1600 C1596 1.350 . S
C1600 C1597 1.463 . S
C1600 N1604 1.427 . S
C1601 H1591 0.929 . S
C1601 C1599 1.433 . S
C1601 N1604 1.384 . S
C1602 H1593 0.929 . S
C1602 C1594 1.378 . S
C1602 C1597 1.350 . S
C1603 H1590 0.929 . S
C1603 C1595 1.433 . S
C1603 N1605 1.384 . S
N1604 C1600 1.427 . S
N1604 C1601 1.384 . S
N1605 C1597 1.427 . S
N1605 C1603 1.384 . S
H1606 C1612 0.930 . S
H1607 C1616 0.930 . S
H1608 C1621 0.929 . S
H1609 C1619 0.929 . S
H1610 C1614 0.929 . S
H1611 C1620 0.929 . S
C1612 H1606 0.930 . S
C1612 C1613 1.367 . S
C1612 C1620 1.378 . S
C1613 C1612 1.367 . S
C1613 C1621 1.433 . S
C1614 H1610 0.929 . S
C1614 C1616 1.378 . S
C1614 C1618 1.350 . S
C1615 C1618 1.463 . S
C1615 C1620 1.350 . S
C1615 N1623 1.427 . S
C1616 H1607 0.930 . S
C1616 C1614 1.378 . S
C1616 C1617 1.367 . S
C1617 C1616 1.367 . S
C1617 C1619 1.433 . S
C1618 C1614 1.350 . S
C1618 C1615 1.463 . S
C1618 N1622 1.427 . S
C1619 H1609 0.929 . S
C1619 C1617 1.433 . S
C1619 N1622 1.384 . S
C1620 H1611 0.929 . S
C1620 C1612 1.378 . S
C1620 C1615 1.350 . S
C1621 H1608 0.929 . S
C1621 C1613 1.433 . S
C1621 N1623 1.384 . S
N1622 C1618 1.427 . S
N1622 C1619 1.384 . S
N1623 C1615 1.427 . S
N1623 C1621 1.384 . S
H1624 C1630 0.930 . S
H1625 C1634 0.930 . S
H1626 C1639 0.929 . S
H1627 C1637 0.929 . S
H1628 C1632 0.929 . S
H1629 C1638 0.929 . S
C1630 H1624 0.930 . S
C1630 C1631 1.367 . S
C1630 C1638 1.378 . S
C1631 C1630 1.367 . S
C1631 C1639 1.433 . S
C1632 H1628 0.929 . S
C1632 C1634 1.378 . S
C1632 C1636 1.350 . S
C1633 C1636 1.463 . S
C1633 C1638 1.350 . S
C1633 N1641 1.427 . S
C1634 H1625 0.930 . S
C1634 C1632 1.378 . S
C1634 C1635 1.367 . S
C1635 C1634 1.367 . S
C1635 C1637 1.433 . S
C1636 C1632 1.350 . S
C1636 C1633 1.463 . S
C1636 N1640 1.427 . S
C1637 H1627 0.929 . S
C1637 C1635 1.433 . S
C1637 N1640 1.384 . S
C1638 H1629 0.929 . S
C1638 C1630 1.378 . S
C1638 C1633 1.350 . S
C1639 H1626 0.929 . S
C1639 C1631 1.433 . S
C1639 N1641 1.384 . S
N1640 C1636 1.427 . S
N1640 C1637 1.384 . S
N1641 C1633 1.427 . S
N1641 C1639 1.384 . S
H1642 C1648 0.930 . S
H1643 C1652 0.930 . S
H1644 C1657 0.929 . S
H1645 C1655 0.929 . S
H1646 C1650 0.929 . S
H1647 C1656 0.929 . S
C1648 H1642 0.930 . S
C1648 C1649 1.367 . S
C1648 C1656 1.378 . S
C1649 C1648 1.367 . S
C1649 C1657 1.433 . S
C1650 H1646 0.929 . S
C1650 C1652 1.378 . S
C1650 C1654 1.350 . S
C1651 C1654 1.463 . S
C1651 C1656 1.350 . S
C1651 N1659 1.427 . S
C1652 H1643 0.930 . S
C1652 C1650 1.378 . S
C1652 C1653 1.367 . S
C1653 C1652 1.367 . S
C1653 C1655 1.433 . S
C1654 C1650 1.350 . S
C1654 C1651 1.463 . S
C1654 N1658 1.427 . S
C1655 H1645 0.929 . S
C1655 C1653 1.433 . S
C1655 N1658 1.384 . S
C1656 H1647 0.929 . S
C1656 C1648 1.378 . S
C1656 C1651 1.350 . S
C1657 H1644 0.929 . S
C1657 C1649 1.433 . S
C1657 N1659 1.384 . S
N1658 C1654 1.427 . S
N1658 C1655 1.384 . S
N1659 C1651 1.427 . S
N1659 C1657 1.384 . S
H1660 C1666 0.930 . S
H1661 C1670 0.930 . S
H1662 C1675 0.929 . S
H1663 C1673 0.929 . S
H1664 C1668 0.929 . S
H1665 C1674 0.929 . S
C1666 H1660 0.930 . S
C1666 C1667 1.367 . S
C1666 C1674 1.378 . S
C1667 C1666 1.367 . S
C1667 C1675 1.433 . S
C1668 H1664 0.929 . S
C1668 C1670 1.378 . S
C1668 C1672 1.350 . S
C1669 C1672 1.463 . S
C1669 C1674 1.350 . S
C1669 N1677 1.427 . S
C1670 H1661 0.930 . S
C1670 C1668 1.378 . S
C1670 C1671 1.367 . S
C1671 C1670 1.367 . S
C1671 C1673 1.433 1_545 S
C1672 C1668 1.350 . S
C1672 C1669 1.463 . S
C1672 N1676 1.427 . S
C1673 H1663 0.929 . S
C1673 C1671 1.433 1_565 S
C1673 N1676 1.384 1_565 S
C1674 H1665 0.929 . S
C1674 C1666 1.378 . S
C1674 C1669 1.350 . S
C1675 H1662 0.929 . S
C1675 C1667 1.433 . S
C1675 N1677 1.384 . S
N1676 C1672 1.427 . S
N1676 C1673 1.384 1_545 S
N1677 C1669 1.427 . S
N1677 C1675 1.384 . S
H1678 C1684 0.930 . S
H1679 C1688 0.930 . S
H1680 C1693 0.929 . S
H1681 C1691 0.929 . S
H1682 C1686 0.929 . S
H1683 C1692 0.929 . S
C1684 H1678 0.930 . S
C1684 C1685 1.367 . S
C1684 C1692 1.378 . S
C1685 C1684 1.367 . S
C1685 C1693 1.433 . S
C1686 H1682 0.929 . S
C1686 C1688 1.378 . S
C1686 C1690 1.350 . S
C1687 C1690 1.463 . S
C1687 C1692 1.350 . S
C1687 N1695 1.427 . S
C1688 H1679 0.930 . S
C1688 C1686 1.378 . S
C1688 C1689 1.367 . S
C1689 C1688 1.367 . S
C1689 C1691 1.433 . S
C1690 C1686 1.350 . S
C1690 C1687 1.463 . S
C1690 N1694 1.427 . S
C1691 H1681 0.929 . S
C1691 C1689 1.433 . S
C1691 N1694 1.384 . S
C1692 H1683 0.929 . S
C1692 C1684 1.378 . S
C1692 C1687 1.350 . S
C1693 H1680 0.929 . S
C1693 C1685 1.433 . S
C1693 N1695 1.384 . S
N1694 C1690 1.427 . S
N1694 C1691 1.384 . S
N1695 C1687 1.427 . S
N1695 C1693 1.384 . S
H1696 C1702 0.930 . S
H1697 C1706 0.930 . S
H1698 C1711 0.929 . S
H1699 C1709 0.929 . S
H1700 C1704 0.929 . S
H1701 C1710 0.929 . S
C1702 H1696 0.930 . S
C1702 C1703 1.367 . S
C1702 C1710 1.378 . S
C1703 C1702 1.367 . S
C1703 C1711 1.433 1_554 S
C1704 H1700 0.929 . S
C1704 C1706 1.378 . S
C1704 C1708 1.350 . S
C1705 C1708 1.460 1_554 S
C1705 C1710 1.356 . S
C1705 N1713 1.423 1_554 S
C1706 H1697 0.930 . S
C1706 C1704 1.378 . S
C1706 C1707 1.367 . S
C1707 C1706 1.367 . S
C1707 C1709 1.433 1_556 S
C1708 C1704 1.350 . S
C1708 C1705 1.460 1_556 S
C1708 N1712 1.427 1_556 S
C1709 H1699 0.929 . S
C1709 C1707 1.433 1_554 S
C1709 N1712 1.384 . S
C1710 H1701 0.929 . S
C1710 C1702 1.378 . S
C1710 C1705 1.356 . S
C1711 H1698 0.929 . S
C1711 C1703 1.433 1_556 S
C1711 N1713 1.384 . S
N1712 C1708 1.427 1_554 S
N1712 C1709 1.384 . S
N1713 C1705 1.423 1_556 S
N1713 C1711 1.384 . S
H1714 C1720 0.930 . S
H1715 C1724 0.930 . S
H1716 C1729 0.929 . S
H1717 C1727 0.929 . S
H1718 C1722 0.929 . S
H1719 C1728 0.929 . S
C1720 H1714 0.930 . S
C1720 C1721 1.367 . S
C1720 C1728 1.378 . S
C1721 C1720 1.367 . S
C1721 C1729 1.433 . S
C1722 H1718 0.929 . S
C1722 C1724 1.378 . S
C1722 C1726 1.350 . S
C1723 C1726 1.463 . S
C1723 C1728 1.350 . S
C1723 N1731 1.427 . S
C1724 H1715 0.930 . S
C1724 C1722 1.378 . S
C1724 C1725 1.367 . S
C1725 C1724 1.367 . S
C1725 C1727 1.433 . S
C1726 C1722 1.350 . S
C1726 C1723 1.463 . S
C1726 N1730 1.427 . S
C1727 H1717 0.929 . S
C1727 C1725 1.433 . S
C1727 N1730 1.384 . S
C1728 H1719 0.929 . S
C1728 C1720 1.378 . S
C1728 C1723 1.350 . S
C1729 H1716 0.929 . S
C1729 C1721 1.433 . S
C1729 N1731 1.384 . S
N1730 C1726 1.427 . S
N1730 C1727 1.384 . S
N1731 C1723 1.427 . S
N1731 C1729 1.384 . S
H1732 C1738 0.930 . S
H1733 C1742 0.930 . S
H1734 C1747 0.929 . S
H1735 C1745 0.929 . S
H1736 C1740 0.929 . S
H1737 C1746 0.929 . S
C1738 H1732 0.930 . S
C1738 C1739 1.367 . S
C1738 C1746 1.378 . S
C1739 C1738 1.367 . S
C1739 C1747 1.433 . S
C1740 H1736 0.929 . S
C1740 C1742 1.378 . S
C1740 C1744 1.350 . S
C1741 C1744 1.463 . S
C1741 C1746 1.350 . S
C1741 N1749 1.427 . S
C1742 H1733 0.930 . S
C1742 C1740 1.378 . S
C1742 C1743 1.367 . S
C1743 C1742 1.367 . S
C1743 C1745 1.433 . S
C1744 C1740 1.350 . S
C1744 C1741 1.463 . S
C1744 N1748 1.427 . S
C1745 H1735 0.929 . S
C1745 C1743 1.433 . S
C1745 N1748 1.384 . S
C1746 H1737 0.929 . S
C1746 C1738 1.378 . S
C1746 C1741 1.350 . S
C1747 H1734 0.929 . S
C1747 C1739 1.433 . S
C1747 N1749 1.384 . S
N1748 C1744 1.427 . S
N1748 C1745 1.384 . S
N1749 C1741 1.427 . S
N1749 C1747 1.384 . S
H1750 C1756 0.930 . S
H1751 C1760 0.930 . S
H1752 C1765 0.929 . S
H1753 C1763 0.929 . S
H1754 C1758 0.929 . S
H1755 C1764 0.929 . S
C1756 H1750 0.930 . S
C1756 C1757 1.367 . S
C1756 C1764 1.378 . S
C1757 C1756 1.367 . S
C1757 C1765 1.433 . S
C1758 H1754 0.929 . S
C1758 C1760 1.378 . S
C1758 C1762 1.350 . S
C1759 C1762 1.463 . S
C1759 C1764 1.350 . S
C1759 N1767 1.427 . S
C1760 H1751 0.930 . S
C1760 C1758 1.378 . S
C1760 C1761 1.367 . S
C1761 C1760 1.367 . S
C1761 C1763 1.433 . S
C1762 C1758 1.350 . S
C1762 C1759 1.463 . S
C1762 N1766 1.427 . S
C1763 H1753 0.929 . S
C1763 C1761 1.433 . S
C1763 N1766 1.384 . S
C1764 H1755 0.929 . S
C1764 C1756 1.378 . S
C1764 C1759 1.350 . S
C1765 H1752 0.929 . S
C1765 C1757 1.433 . S
C1765 N1767 1.384 . S
N1766 C1762 1.427 . S
N1766 C1763 1.384 . S
N1767 C1759 1.427 . S
N1767 C1765 1.384 . S
H1768 C1774 0.930 . S
H1769 C1778 0.930 . S
H1770 C1783 0.929 . S
H1771 C1781 0.929 . S
H1772 C1776 0.929 . S
H1773 C1782 0.929 . S
C1774 H1768 0.930 . S
C1774 C1775 1.367 . S
C1774 C1782 1.378 . S
C1775 C1774 1.367 . S
C1775 C1783 1.433 . S
C1776 H1772 0.929 . S
C1776 C1778 1.378 . S
C1776 C1780 1.350 . S
C1777 C1780 1.463 . S
C1777 C1782 1.350 . S
C1777 N1785 1.427 . S
C1778 H1769 0.930 . S
C1778 C1776 1.378 . S
C1778 C1779 1.367 . S
C1779 C1778 1.367 . S
C1779 C1781 1.433 . S
C1780 C1776 1.350 . S
C1780 C1777 1.463 . S
C1780 N1784 1.427 . S
C1781 H1771 0.929 . S
C1781 C1779 1.433 . S
C1781 N1784 1.384 . S
C1782 H1773 0.929 . S
C1782 C1774 1.378 . S
C1782 C1777 1.350 . S
C1783 H1770 0.929 . S
C1783 C1775 1.433 . S
C1783 N1785 1.384 . S
N1784 C1780 1.427 . S
N1784 C1781 1.384 . S
N1785 C1777 1.427 . S
N1785 C1783 1.384 . S
H1786 C1792 0.930 . S
H1787 C1796 0.930 . S
H1788 C1801 0.929 . S
H1789 C1799 0.929 . S
H1790 C1794 0.923 1_545 S
H1791 C1800 0.929 . S
C1792 H1786 0.930 . S
C1792 C1793 1.367 . S
C1792 C1800 1.378 . S
C1793 C1792 1.367 . S
C1793 C1801 1.433 . S
C1794 H1790 0.923 1_565 S
C1794 C1796 1.378 1_565 S
C1794 C1798 1.350 . S
C1795 C1798 1.463 . S
C1795 C1800 1.350 . S
C1795 N1803 1.427 . S
C1796 H1787 0.930 . S
C1796 C1794 1.378 1_545 S
C1796 C1797 1.367 1_545 S
C1797 C1796 1.367 1_565 S
C1797 C1799 1.433 . S
C1798 C1794 1.350 . S
C1798 C1795 1.463 . S
C1798 N1802 1.427 . S
C1799 H1789 0.929 . S
C1799 C1797 1.433 . S
C1799 N1802 1.384 . S
C1800 H1791 0.929 . S
C1800 C1792 1.378 . S
C1800 C1795 1.350 . S
C1801 H1788 0.929 . S
C1801 C1793 1.433 . S
C1801 N1803 1.384 . S
N1802 C1798 1.427 . S
N1802 C1799 1.384 . S
N1803 C1795 1.427 . S
N1803 C1801 1.384 . S
H1804 C1810 0.930 . S
H1805 C1814 0.930 . S
H1806 C1819 0.929 . S
H1807 C1817 0.929 . S
H1808 C1812 0.929 . S
H1809 C1818 0.929 . S
C1810 H1804 0.930 . S
C1810 C1811 1.367 . S
C1810 C1818 1.378 . S
C1811 C1810 1.367 . S
C1811 C1819 1.433 . S
C1812 H1808 0.929 . S
C1812 C1814 1.378 . S
C1812 C1816 1.350 . S
C1813 C1816 1.463 . S
C1813 C1818 1.350 . S
C1813 N1821 1.427 . S
C1814 H1805 0.930 . S
C1814 C1812 1.378 . S
C1814 C1815 1.367 . S
C1815 C1814 1.367 . S
C1815 C1817 1.433 . S
C1816 C1812 1.350 . S
C1816 C1813 1.463 . S
C1816 N1820 1.427 . S
C1817 H1807 0.929 . S
C1817 C1815 1.433 . S
C1817 N1820 1.384 . S
C1818 H1809 0.929 . S
C1818 C1810 1.378 . S
C1818 C1813 1.350 . S
C1819 H1806 0.929 . S
C1819 C1811 1.433 . S
C1819 N1821 1.384 . S
N1820 C1816 1.427 . S
N1820 C1817 1.384 . S
N1821 C1813 1.427 . S
N1821 C1819 1.384 . S
H1822 C1828 0.930 . S
H1823 C1832 0.930 . S
H1824 C1837 0.929 . S
H1825 C1835 0.929 . S
H1826 C1830 0.929 . S
H1827 C1836 0.929 . S
C1828 H1822 0.930 . S
C1828 C1829 1.367 . S
C1828 C1836 1.378 . S
C1829 C1828 1.367 . S
C1829 C1837 1.433 . S
C1830 H1826 0.929 . S
C1830 C1832 1.378 . S
C1830 C1834 1.350 . S
C1831 C1834 1.463 . S
C1831 C1836 1.350 . S
C1831 N1839 1.427 . S
C1832 H1823 0.930 . S
C1832 C1830 1.378 . S
C1832 C1833 1.367 . S
C1833 C1832 1.367 . S
C1833 C1835 1.433 . S
C1834 C1830 1.350 . S
C1834 C1831 1.463 . S
C1834 N1838 1.427 . S
C1835 H1825 0.929 . S
C1835 C1833 1.433 . S
C1835 N1838 1.384 . S
C1836 H1827 0.929 . S
C1836 C1828 1.378 . S
C1836 C1831 1.350 . S
C1837 H1824 0.929 . S
C1837 C1829 1.433 . S
C1837 N1839 1.384 . S
N1838 C1834 1.427 . S
N1838 C1835 1.384 . S
N1839 C1831 1.427 . S
N1839 C1837 1.384 . S
H1840 C1846 0.930 . S
H1841 C1850 0.930 . S
H1842 C1855 0.929 . S
H1843 C1853 0.929 . S
H1844 C1848 0.929 . S
H1845 C1854 0.929 . S
C1846 H1840 0.930 . S
C1846 C1847 1.367 . S
C1846 C1854 1.378 . S
C1847 C1846 1.367 . S
C1847 C1855 1.433 . S
C1848 H1844 0.929 . S
C1848 C1850 1.378 . S
C1848 C1852 1.350 . S
C1849 C1852 1.463 . S
C1849 C1854 1.350 . S
C1849 N1857 1.427 . S
C1850 H1841 0.930 . S
C1850 C1848 1.378 . S
C1850 C1851 1.367 . S
C1851 C1850 1.367 . S
C1851 C1853 1.433 . S
C1852 C1848 1.350 . S
C1852 C1849 1.463 . S
C1852 N1856 1.427 . S
C1853 H1843 0.929 . S
C1853 C1851 1.433 . S
C1853 N1856 1.384 . S
C1854 H1845 0.929 . S
C1854 C1846 1.378 . S
C1854 C1849 1.350 . S
C1855 H1842 0.929 . S
C1855 C1847 1.433 . S
C1855 N1857 1.384 . S
N1856 C1852 1.427 . S
N1856 C1853 1.384 . S
N1857 C1849 1.427 . S
N1857 C1855 1.384 . S
H1858 C1864 0.930 . S
H1859 C1868 0.930 . S
H1860 C1873 0.929 . S
H1861 C1871 0.929 . S
H1862 C1866 0.929 . S
H1863 C1872 0.929 . S
C1864 H1858 0.930 . S
C1864 C1865 1.367 . S
C1864 C1872 1.378 . S
C1865 C1864 1.367 . S
C1865 C1873 1.433 . S
C1866 H1862 0.929 . S
C1866 C1868 1.378 . S
C1866 C1870 1.350 . S
C1867 C1870 1.463 . S
C1867 C1872 1.350 . S
C1867 N1875 1.427 . S
C1868 H1859 0.930 . S
C1868 C1866 1.378 . S
C1868 C1869 1.367 . S
C1869 C1868 1.367 . S
C1869 C1871 1.433 . S
C1870 C1866 1.350 . S
C1870 C1867 1.463 . S
C1870 N1874 1.427 . S
C1871 H1861 0.929 . S
C1871 C1869 1.433 . S
C1871 N1874 1.384 . S
C1872 H1863 0.929 . S
C1872 C1864 1.378 . S
C1872 C1867 1.350 . S
C1873 H1860 0.929 . S
C1873 C1865 1.433 . S
C1873 N1875 1.384 . S
N1874 C1870 1.427 . S
N1874 C1871 1.384 . S
N1875 C1867 1.427 . S
N1875 C1873 1.384 . S
H1876 C1882 0.930 . S
H1877 C1886 0.889 1_554 S
H1878 C1891 0.929 . S
H1879 C1889 0.929 . S
H1880 C1884 0.929 . S
H1881 C1890 0.929 . S
C1882 H1876 0.930 . S
C1882 C1883 1.367 1_655 S
C1882 C1890 1.378 . S
C1883 C1882 1.367 1_455 S
C1883 C1891 1.433 . S
C1884 H1880 0.929 . S
C1884 C1886 1.405 . S
C1884 C1888 1.350 . S
C1885 C1888 1.463 . S
C1885 C1890 1.350 1_455 S
C1885 N1893 1.427 . S
C1886 H1877 0.889 1_556 S
C1886 C1884 1.405 . S
C1886 C1887 1.383 . S
C1887 C1886 1.383 . S
C1887 C1889 1.433 . S
C1888 C1884 1.350 . S
C1888 C1885 1.463 . S
C1888 N1892 1.427 . S
C1889 H1879 0.929 . S
C1889 C1887 1.433 . S
C1889 N1892 1.384 . S
C1890 H1881 0.929 . S
C1890 C1882 1.378 . S
C1890 C1885 1.350 1_655 S
C1891 H1878 0.929 . S
C1891 C1883 1.433 . S
C1891 N1893 1.384 . S
N1892 C1888 1.427 . S
N1892 C1889 1.384 . S
N1893 C1885 1.427 . S
N1893 C1891 1.384 . S
H1894 C1900 0.930 . S
H1895 C1904 0.930 . S
H1896 C1909 0.929 . S
H1897 C1907 0.929 . S
H1898 C1902 0.929 . S
H1899 C1908 0.929 . S
C1900 H1894 0.930 . S
C1900 C1901 1.367 . S
C1900 C1908 1.378 . S
C1901 C1900 1.367 . S
C1901 C1909 1.433 . S
C1902 H1898 0.929 . S
C1902 C1904 1.378 . S
C1902 C1906 1.350 . S
C1903 C1906 1.463 . S
C1903 C1908 1.350 1_655 S
C1903 N1911 1.427 . S
C1904 H1895 0.930 . S
C1904 C1902 1.378 . S
C1904 C1905 1.367 . S
C1905 C1904 1.367 . S
C1905 C1907 1.433 . S
C1906 C1902 1.350 . S
C1906 C1903 1.463 . S
C1906 N1910 1.427 . S
C1907 H1897 0.929 . S
C1907 C1905 1.433 . S
C1907 N1910 1.384 . S
C1908 H1899 0.929 . S
C1908 C1900 1.378 . S
C1908 C1903 1.350 1_455 S
C1909 H1896 0.929 . S
C1909 C1901 1.433 . S
C1909 N1911 1.384 1_455 S
N1910 C1906 1.427 . S
N1910 C1907 1.384 . S
N1911 C1903 1.427 . S
N1911 C1909 1.384 1_655 S
H1912 C1918 0.930 . S
H1913 C1922 0.930 . S
H1914 C1927 0.929 . S
H1915 C1925 0.929 . S
H1916 C1920 0.929 . S
H1917 C1926 0.929 . S
C1918 H1912 0.930 . S
C1918 C1919 1.367 . S
C1918 C1926 1.378 . S
C1919 C1918 1.367 . S
C1919 C1927 1.433 . S
C1920 H1916 0.929 . S
C1920 C1922 1.378 . S
C1920 C1924 1.350 . S
C1921 C1924 1.463 . S
C1921 C1926 1.350 . S
C1921 N1929 1.427 . S
C1922 H1913 0.930 . S
C1922 C1920 1.378 . S
C1922 C1923 1.367 . S
C1923 C1922 1.367 . S
C1923 C1925 1.433 . S
C1924 C1920 1.350 . S
C1924 C1921 1.463 . S
C1924 N1928 1.427 . S
C1925 H1915 0.929 . S
C1925 C1923 1.433 . S
C1925 N1928 1.384 . S
C1926 H1917 0.929 . S
C1926 C1918 1.378 . S
C1926 C1921 1.350 . S
C1927 H1914 0.929 . S
C1927 C1919 1.433 . S
C1927 N1929 1.384 . S
N1928 C1924 1.427 . S
N1928 C1925 1.384 . S
N1929 C1921 1.427 . S
N1929 C1927 1.384 . S
H1930 C1936 0.930 . S
H1931 C1940 0.930 . S
H1932 C1945 0.929 . S
H1933 C1943 0.929 . S
H1934 C1938 0.929 . S
H1935 C1944 0.929 . S
C1936 H1930 0.930 . S
C1936 C1937 1.367 . S
C1936 C1944 1.378 . S
C1937 C1936 1.367 . S
C1937 C1945 1.433 . S
C1938 H1934 0.929 . S
C1938 C1940 1.378 . S
C1938 C1942 1.350 . S
C1939 C1942 1.463 . S
C1939 C1944 1.350 . S
C1939 N1947 1.427 . S
C1940 H1931 0.930 . S
C1940 C1938 1.378 . S
C1940 C1941 1.367 . S
C1941 C1940 1.367 . S
C1941 C1943 1.433 . S
C1942 C1938 1.350 . S
C1942 C1939 1.463 . S
C1942 N1946 1.427 . S
C1943 H1933 0.929 . S
C1943 C1941 1.433 . S
C1943 N1946 1.384 . S
C1944 H1935 0.929 . S
C1944 C1936 1.378 . S
C1944 C1939 1.350 . S
C1945 H1932 0.929 . S
C1945 C1937 1.433 . S
C1945 N1947 1.384 . S
N1946 C1942 1.427 . S
N1946 C1943 1.384 . S
N1947 C1939 1.427 . S
N1947 C1945 1.384 . S
H1948 C1954 0.930 . S
H1949 C1958 0.930 . S
H1950 C1963 0.929 . S
H1951 C1961 0.929 . S
H1952 C1956 0.929 . S
H1953 C1962 0.929 . S
C1954 H1948 0.930 . S
C1954 C1955 1.367 . S
C1954 C1962 1.378 . S
C1955 C1954 1.367 . S
C1955 C1963 1.433 . S
C1956 H1952 0.929 . S
C1956 C1958 1.378 . S
C1956 C1960 1.350 . S
C1957 C1960 1.463 . S
C1957 C1962 1.350 . S
C1957 N1965 1.427 . S
C1958 H1949 0.930 . S
C1958 C1956 1.378 . S
C1958 C1959 1.367 . S
C1959 C1958 1.367 . S
C1959 C1961 1.433 . S
C1960 C1956 1.350 . S
C1960 C1957 1.463 . S
C1960 N1964 1.427 . S
C1961 H1951 0.929 . S
C1961 C1959 1.433 . S
C1961 N1964 1.384 . S
C1962 H1953 0.929 . S
C1962 C1954 1.378 . S
C1962 C1957 1.350 . S
C1963 H1950 0.929 . S
C1963 C1955 1.433 . S
C1963 N1965 1.384 . S
N1964 C1960 1.427 . S
N1964 C1961 1.384 . S
N1965 C1957 1.427 . S
N1965 C1963 1.384 . S
H1966 C1972 0.930 . S
H1967 C1976 0.930 . S
H1968 C1981 0.929 . S
H1969 C1979 0.929 . S
H1970 C1974 0.929 . S
H1971 C1980 0.929 . S
C1972 H1966 0.930 . S
C1972 C1973 1.367 . S
C1972 C1980 1.378 . S
C1973 C1972 1.367 . S
C1973 C1981 1.433 . S
C1974 H1970 0.929 . S
C1974 C1976 1.378 . S
C1974 C1978 1.350 . S
C1975 C1978 1.463 . S
C1975 C1980 1.350 . S
C1975 N1983 1.427 . S
C1976 H1967 0.930 . S
C1976 C1974 1.378 . S
C1976 C1977 1.367 . S
C1977 C1976 1.367 . S
C1977 C1979 1.433 . S
C1978 C1974 1.350 . S
C1978 C1975 1.463 . S
C1978 N1982 1.427 . S
C1979 H1969 0.929 . S
C1979 C1977 1.433 . S
C1979 N1982 1.384 . S
C1980 H1971 0.929 . S
C1980 C1972 1.378 . S
C1980 C1975 1.350 . S
C1981 H1968 0.929 . S
C1981 C1973 1.433 . S
C1981 N1983 1.384 . S
N1982 C1978 1.427 . S
N1982 C1979 1.384 . S
N1983 C1975 1.427 . S
N1983 C1981 1.384 . S
H1984 C1990 0.930 . S
H1985 C1994 0.930 . S
H1986 C1999 0.929 . S
H1987 C1997 0.929 . S
H1988 C1992 0.929 . S
H1989 C1998 0.929 . S
C1990 H1984 0.930 . S
C1990 C1991 1.367 . S
C1990 C1998 1.378 . S
C1991 C1990 1.367 . S
C1991 C1999 1.433 . S
C1992 H1988 0.929 . S
C1992 C1994 1.378 . S
C1992 C1996 1.350 . S
C1993 C1996 1.463 . S
C1993 C1998 1.350 . S
C1993 N2001 1.427 . S
C1994 H1985 0.930 . S
C1994 C1992 1.378 . S
C1994 C1995 1.367 . S
C1995 C1994 1.367 . S
C1995 C1997 1.433 . S
C1996 C1992 1.350 . S
C1996 C1993 1.463 . S
C1996 N2000 1.427 . S
C1997 H1987 0.929 . S
C1997 C1995 1.433 . S
C1997 N2000 1.384 . S
C1998 H1989 0.929 . S
C1998 C1990 1.378 . S
C1998 C1993 1.350 . S
C1999 H1986 0.929 . S
C1999 C1991 1.433 . S
C1999 N2001 1.384 . S
N2000 C1996 1.427 . S
N2000 C1997 1.384 . S
N2001 C1993 1.427 . S
N2001 C1999 1.384 . S
H2002 C2008 0.930 . S
H2003 C2012 0.930 . S
H2004 C2017 0.929 . S
H2005 C2015 0.929 . S
H2006 C2010 0.929 . S
H2007 C2016 0.929 . S
C2008 H2002 0.930 . S
C2008 C2009 1.367 . S
C2008 C2016 1.378 . S
C2009 C2008 1.367 . S
C2009 C2017 1.433 . S
C2010 H2006 0.929 . S
C2010 C2012 1.378 . S
C2010 C2014 1.350 . S
C2011 C2014 1.463 . S
C2011 C2016 1.350 . S
C2011 N2019 1.427 . S
C2012 H2003 0.930 . S
C2012 C2010 1.378 . S
C2012 C2013 1.367 . S
C2013 C2012 1.367 . S
C2013 C2015 1.433 . S
C2014 C2010 1.350 . S
C2014 C2011 1.463 . S
C2014 N2018 1.427 . S
C2015 H2005 0.929 . S
C2015 C2013 1.433 . S
C2015 N2018 1.384 . S
C2016 H2007 0.929 . S
C2016 C2008 1.378 . S
C2016 C2011 1.350 . S
C2017 H2004 0.929 . S
C2017 C2009 1.433 . S
C2017 N2019 1.384 . S
N2018 C2014 1.427 . S
N2018 C2015 1.384 . S
N2019 C2011 1.427 . S
N2019 C2017 1.384 . S
H2020 C2026 0.930 . S
H2021 C2030 0.930 . S
H2022 C2035 0.929 . S
H2023 C2033 0.929 . S
H2024 C2028 0.929 . S
H2025 C2034 0.929 . S
C2026 H2020 0.930 . S
C2026 C2027 1.367 . S
C2026 C2034 1.378 . S
C2027 C2026 1.367 . S
C2027 C2035 1.433 . S
C2028 H2024 0.929 . S
C2028 C2030 1.378 . S
C2028 C2032 1.350 . S
C2029 C2032 1.463 . S
C2029 C2034 1.350 . S
C2029 N2037 1.427 . S
C2030 H2021 0.930 . S
C2030 C2028 1.378 . S
C2030 C2031 1.367 . S
C2031 C2030 1.367 . S
C2031 C2033 1.433 . S
C2032 C2028 1.350 . S
C2032 C2029 1.463 . S
C2032 N2036 1.427 . S
C2033 H2023 0.929 . S
C2033 C2031 1.433 . S
C2033 N2036 1.384 . S
C2034 H2025 0.929 . S
C2034 C2026 1.378 . S
C2034 C2029 1.350 . S
C2035 H2022 0.929 . S
C2035 C2027 1.433 . S
C2035 N2037 1.384 . S
N2036 C2032 1.427 . S
N2036 C2033 1.384 . S
N2037 C2029 1.427 . S
N2037 C2035 1.384 . S
H2038 C2044 0.930 . S
H2039 C2048 0.930 . S
H2040 C2053 0.929 . S
H2041 C2051 0.929 . S
H2042 C2046 0.929 . S
H2043 C2052 0.929 . S
C2044 H2038 0.930 . S
C2044 C2045 1.367 . S
C2044 C2052 1.378 . S
C2045 C2044 1.367 . S
C2045 C2053 1.433 . S
C2046 H2042 0.929 . S
C2046 C2048 1.378 . S
C2046 C2050 1.350 . S
C2047 C2050 1.463 . S
C2047 C2052 1.350 . S
C2047 N2055 1.427 . S
C2048 H2039 0.930 . S
C2048 C2046 1.378 . S
C2048 C2049 1.367 . S
C2049 C2048 1.367 . S
C2049 C2051 1.433 . S
C2050 C2046 1.350 . S
C2050 C2047 1.463 . S
C2050 N2054 1.427 . S
C2051 H2041 0.929 . S
C2051 C2049 1.433 . S
C2051 N2054 1.384 . S
C2052 H2043 0.929 . S
C2052 C2044 1.378 . S
C2052 C2047 1.350 . S
C2053 H2040 0.929 . S
C2053 C2045 1.433 . S
C2053 N2055 1.384 . S
N2054 C2050 1.427 . S
N2054 C2051 1.384 . S
N2055 C2047 1.427 . S
N2055 C2053 1.384 . S
H2056 C2062 0.930 . S
H2057 C2066 0.930 . S
H2058 C2071 0.929 . S
H2059 C2069 0.929 . S
H2060 C2064 0.929 . S
H2061 C2070 0.929 . S
C2062 H2056 0.930 . S
C2062 C2063 1.367 . S
C2062 C2070 1.378 . S
C2063 C2062 1.367 . S
C2063 C2071 1.433 . S
C2064 H2060 0.929 . S
C2064 C2066 1.378 . S
C2064 C2068 1.350 . S
C2065 C2068 1.463 . S
C2065 C2070 1.350 . S
C2065 N2073 1.427 . S
C2066 H2057 0.930 . S
C2066 C2064 1.378 . S
C2066 C2067 1.367 . S
C2067 C2066 1.367 . S
C2067 C2069 1.433 . S
C2068 C2064 1.350 . S
C2068 C2065 1.463 . S
C2068 N2072 1.427 . S
C2069 H2059 0.929 . S
C2069 C2067 1.433 . S
C2069 N2072 1.384 . S
C2070 H2061 0.929 . S
C2070 C2062 1.378 . S
C2070 C2065 1.350 . S
C2071 H2058 0.929 . S
C2071 C2063 1.433 . S
C2071 N2073 1.384 . S
N2072 C2068 1.427 . S
N2072 C2069 1.384 . S
N2073 C2065 1.427 . S
N2073 C2071 1.384 . S
H2074 C2080 0.930 . S
H2075 C2084 0.930 . S
H2076 C2089 0.929 . S
H2077 C2087 0.929 . S
H2078 C2082 0.929 . S
H2079 C2088 0.929 . S
C2080 H2074 0.930 . S
C2080 C2081 1.367 . S
C2080 C2088 1.378 . S
C2081 C2080 1.367 . S
C2081 C2089 1.433 . S
C2082 H2078 0.929 . S
C2082 C2084 1.378 . S
C2082 C2086 1.350 . S
C2083 C2086 1.463 . S
C2083 C2088 1.350 . S
C2083 N2091 1.427 . S
C2084 H2075 0.930 . S
C2084 C2082 1.378 . S
C2084 C2085 1.367 . S
C2085 C2084 1.367 . S
C2085 C2087 1.433 . S
C2086 C2082 1.350 . S
C2086 C2083 1.463 . S
C2086 N2090 1.427 . S
C2087 H2077 0.929 . S
C2087 C2085 1.433 . S
C2087 N2090 1.384 . S
C2088 H2079 0.929 . S
C2088 C2080 1.378 . S
C2088 C2083 1.350 . S
C2089 H2076 0.929 . S
C2089 C2081 1.433 . S
C2089 N2091 1.384 . S
N2090 C2086 1.427 . S
N2090 C2087 1.384 . S
N2091 C2083 1.427 . S
N2091 C2089 1.384 . S
H2092 C2098 0.930 . S
H2093 C2102 0.930 . S
H2094 C2107 0.929 . S
H2095 C2105 0.929 . S
H2096 C2100 0.929 . S
H2097 C2106 0.929 . S
C2098 H2092 0.930 . S
C2098 C2099 1.367 . S
C2098 C2106 1.378 . S
C2099 C2098 1.367 . S
C2099 C2107 1.433 . S
C2100 H2096 0.929 . S
C2100 C2102 1.378 . S
C2100 C2104 1.350 . S
C2101 C2104 1.463 . S
C2101 C2106 1.350 . S
C2101 N2109 1.427 . S
C2102 H2093 0.930 . S
C2102 C2100 1.378 . S
C2102 C2103 1.367 . S
C2103 C2102 1.367 . S
C2103 C2105 1.433 . S
C2104 C2100 1.350 . S
C2104 C2101 1.463 . S
C2104 N2108 1.427 . S
C2105 H2095 0.929 . S
C2105 C2103 1.433 . S
C2105 N2108 1.384 . S
C2106 H2097 0.929 . S
C2106 C2098 1.378 . S
C2106 C2101 1.350 . S
C2107 H2094 0.929 . S
C2107 C2099 1.433 . S
C2107 N2109 1.384 . S
N2108 C2104 1.427 . S
N2108 C2105 1.384 . S
N2109 C2101 1.427 . S
N2109 C2107 1.384 . S
H2110 C2116 0.930 . S
H2111 C2120 0.930 . S
H2112 C2125 0.929 . S
H2113 C2123 0.929 . S
H2114 C2118 0.929 . S
H2115 C2124 0.929 . S
C2116 H2110 0.930 . S
C2116 C2117 1.367 . S
C2116 C2124 1.378 . S
C2117 C2116 1.367 . S
C2117 C2125 1.433 . S
C2118 H2114 0.929 . S
C2118 C2120 1.378 . S
C2118 C2122 1.350 . S
C2119 C2122 1.463 . S
C2119 C2124 1.350 . S
C2119 N2127 1.427 . S
C2120 H2111 0.930 . S
C2120 C2118 1.378 . S
C2120 C2121 1.367 . S
C2121 C2120 1.367 . S
C2121 C2123 1.433 . S
C2122 C2118 1.350 . S
C2122 C2119 1.463 . S
C2122 N2126 1.427 . S
C2123 H2113 0.929 . S
C2123 C2121 1.433 . S
C2123 N2126 1.384 . S
C2124 H2115 0.929 . S
C2124 C2116 1.378 . S
C2124 C2119 1.350 . S
C2125 H2112 0.929 . S
C2125 C2117 1.433 . S
C2125 N2127 1.384 . S
N2126 C2122 1.427 . S
N2126 C2123 1.384 . S
N2127 C2119 1.427 . S
N2127 C2125 1.384 . S
H2128 C2134 0.930 . S
H2129 C2138 0.930 . S
H2130 C2143 0.929 . S
H2131 C2141 0.929 . S
H2132 C2136 0.929 . S
H2133 C2142 0.929 . S
C2134 H2128 0.930 . S
C2134 C2135 1.367 . S
C2134 C2142 1.378 . S
C2135 C2134 1.367 . S
C2135 C2143 1.433 . S
C2136 H2132 0.929 . S
C2136 C2138 1.378 . S
C2136 C2140 1.350 . S
C2137 C2140 1.463 . S
C2137 C2142 1.350 . S
C2137 N2145 1.427 . S
C2138 H2129 0.930 . S
C2138 C2136 1.378 . S
C2138 C2139 1.367 . S
C2139 C2138 1.367 . S
C2139 C2141 1.433 . S
C2140 C2136 1.350 . S
C2140 C2137 1.463 . S
C2140 N2144 1.427 . S
C2141 H2131 0.929 . S
C2141 C2139 1.433 . S
C2141 N2144 1.384 . S
C2142 H2133 0.929 . S
C2142 C2134 1.378 . S
C2142 C2137 1.350 . S
C2143 H2130 0.929 . S
C2143 C2135 1.433 . S
C2143 N2145 1.384 . S
N2144 C2140 1.427 . S
N2144 C2141 1.384 . S
N2145 C2137 1.427 . S
N2145 C2143 1.384 . S
H2146 C2152 0.930 . S
H2147 C2156 0.930 . S
H2148 C2161 0.929 . S
H2149 C2159 0.929 . S
H2150 C2154 0.929 . S
H2151 C2160 0.929 . S
C2152 H2146 0.930 . S
C2152 C2153 1.367 . S
C2152 C2160 1.378 . S
C2153 C2152 1.367 . S
C2153 C2161 1.433 . S
C2154 H2150 0.929 . S
C2154 C2156 1.378 . S
C2154 C2158 1.350 . S
C2155 C2158 1.463 . S
C2155 C2160 1.350 . S
C2155 N2163 1.427 . S
C2156 H2147 0.930 . S
C2156 C2154 1.378 . S
C2156 C2157 1.367 . S
C2157 C2156 1.367 . S
C2157 C2159 1.433 . S
C2158 C2154 1.350 . S
C2158 C2155 1.463 . S
C2158 N2162 1.427 . S
C2159 H2149 0.929 . S
C2159 C2157 1.433 . S
C2159 N2162 1.384 . S
C2160 H2151 0.929 . S
C2160 C2152 1.378 . S
C2160 C2155 1.350 . S
C2161 H2148 0.929 . S
C2161 C2153 1.433 . S
C2161 N2163 1.384 . S
N2162 C2158 1.427 . S
N2162 C2159 1.384 . S
N2163 C2155 1.427 . S
N2163 C2161 1.384 . S
H2164 C2170 0.930 1_545 S
H2165 C2174 0.930 . S
H2166 C2179 0.929 . S
H2167 C2177 0.929 . S
H2168 C2172 0.929 . S
H2169 C2178 0.929 . S
C2170 H2164 0.930 1_565 S
C2170 C2171 1.367 . S
C2170 C2178 1.378 . S
C2171 C2170 1.367 . S
C2171 C2179 1.433 . S
C2172 H2168 0.929 . S
C2172 C2174 1.378 . S
C2172 C2176 1.350 . S
C2173 C2176 1.463 . S
C2173 C2178 1.350 . S
C2173 N2181 1.427 . S
C2174 H2165 0.930 . S
C2174 C2172 1.378 . S
C2174 C2175 1.367 . S
C2175 C2174 1.367 . S
C2175 C2177 1.433 . S
C2176 C2172 1.350 . S
C2176 C2173 1.463 . S
C2176 N2180 1.427 . S
C2177 H2167 0.929 . S
C2177 C2175 1.433 . S
C2177 N2180 1.384 . S
C2178 H2169 0.929 . S
C2178 C2170 1.378 . S
C2178 C2173 1.350 . S
C2179 H2166 0.929 . S
C2179 C2171 1.433 . S
C2179 N2181 1.384 . S
N2180 C2176 1.427 . S
N2180 C2177 1.384 . S
N2181 C2173 1.427 . S
N2181 C2179 1.384 . S
H2182 C2188 0.930 . S
H2183 C2192 0.930 . S
H2184 C2197 0.929 . S
H2185 C2195 0.929 1_545 S
H2186 C2190 0.929 . S
H2187 C2196 0.929 . S
C2188 H2182 0.930 . S
C2188 C2189 1.367 . S
C2188 C2196 1.378 . S
C2189 C2188 1.367 . S
C2189 C2197 1.433 . S
C2190 H2186 0.929 . S
C2190 C2192 1.378 . S
C2190 C2194 1.350 . S
C2191 C2194 1.463 . S
C2191 C2196 1.350 . S
C2191 N2199 1.427 . S
C2192 H2183 0.930 . S
C2192 C2190 1.378 . S
C2192 C2193 1.367 . S
C2193 C2192 1.367 . S
C2193 C2195 1.433 . S
C2194 C2190 1.350 . S
C2194 C2191 1.463 . S
C2194 N2198 1.427 . S
C2195 H2185 0.929 1_565 S
C2195 C2193 1.433 . S
C2195 N2198 1.384 . S
C2196 H2187 0.929 . S
C2196 C2188 1.378 . S
C2196 C2191 1.350 . S
C2197 H2184 0.929 . S
C2197 C2189 1.433 . S
C2197 N2199 1.384 . S
N2198 C2194 1.427 . S
N2198 C2195 1.384 . S
N2199 C2191 1.427 . S
N2199 C2197 1.384 . S
H2200 C2206 0.930 . S
H2201 C2210 0.930 . S
H2202 C2215 0.929 . S
H2203 C2213 0.929 . S
H2204 C2208 0.929 . S
H2205 C2214 0.929 . S
C2206 H2200 0.930 . S
C2206 C2207 1.367 . S
C2206 C2214 1.378 . S
C2207 C2206 1.367 . S
C2207 C2215 1.433 . S
C2208 H2204 0.929 . S
C2208 C2210 1.378 . S
C2208 C2212 1.350 . S
C2209 C2212 1.463 . S
C2209 C2214 1.350 . S
C2209 N2217 1.427 . S
C2210 H2201 0.930 . S
C2210 C2208 1.378 . S
C2210 C2211 1.367 . S
C2211 C2210 1.367 . S
C2211 C2213 1.433 . S
C2212 C2208 1.350 . S
C2212 C2209 1.463 . S
C2212 N2216 1.427 . S
C2213 H2203 0.929 . S
C2213 C2211 1.433 . S
C2213 N2216 1.384 . S
C2214 H2205 0.929 . S
C2214 C2206 1.378 . S
C2214 C2209 1.350 . S
C2215 H2202 0.929 . S
C2215 C2207 1.433 . S
C2215 N2217 1.384 . S
N2216 C2212 1.427 . S
N2216 C2213 1.384 . S
N2217 C2209 1.427 . S
N2217 C2215 1.384 . S
H2218 C2224 0.930 . S
H2219 C2228 0.930 . S
H2220 C2233 0.929 . S
H2221 C2231 0.929 1_455 S
H2222 C2226 0.929 . S
H2223 C2232 0.929 . S
C2224 H2218 0.930 . S
C2224 C2225 1.367 . S
C2224 C2232 1.378 . S
C2225 C2224 1.367 . S
C2225 C2233 1.433 . S
C2226 H2222 0.929 . S
C2226 C2228 1.378 . S
C2226 C2230 1.350 . S
C2227 C2230 1.463 . S
C2227 C2232 1.350 . S
C2227 N2235 1.427 . S
C2228 H2219 0.930 . S
C2228 C2226 1.378 . S
C2228 C2229 1.367 . S
C2229 C2228 1.367 . S
C2229 C2231 1.433 . S
C2230 C2226 1.350 . S
C2230 C2227 1.463 . S
C2230 N2234 1.427 . S
C2231 H2221 0.929 1_655 S
C2231 C2229 1.433 . S
C2231 N2234 1.384 . S
C2232 H2223 0.929 . S
C2232 C2224 1.378 . S
C2232 C2227 1.350 . S
C2233 H2220 0.929 . S
C2233 C2225 1.433 . S
C2233 N2235 1.384 . S
N2234 C2230 1.427 . S
N2234 C2231 1.384 . S
N2235 C2227 1.427 . S
N2235 C2233 1.384 . S
H2236 C2242 0.930 . S
H2237 C2246 0.930 . S
H2238 C2251 0.929 . S
H2239 C2249 0.929 . S
H2240 C2244 0.929 . S
H2241 C2250 0.929 . S
C2242 H2236 0.930 . S
C2242 C2243 1.367 . S
C2242 C2250 1.378 . S
C2243 C2242 1.367 . S
C2243 C2251 1.433 . S
C2244 H2240 0.929 . S
C2244 C2246 1.378 . S
C2244 C2248 1.350 . S
C2245 C2248 1.463 . S
C2245 C2250 1.350 . S
C2245 N2253 1.427 . S
C2246 H2237 0.930 . S
C2246 C2244 1.378 . S
C2246 C2247 1.367 . S
C2247 C2246 1.367 . S
C2247 C2249 1.433 . S
C2248 C2244 1.350 . S
C2248 C2245 1.463 . S
C2248 N2252 1.427 . S
C2249 H2239 0.929 . S
C2249 C2247 1.433 . S
C2249 N2252 1.384 . S
C2250 H2241 0.929 . S
C2250 C2242 1.378 . S
C2250 C2245 1.350 . S
C2251 H2238 0.929 . S
C2251 C2243 1.433 . S
C2251 N2253 1.384 . S
N2252 C2248 1.427 . S
N2252 C2249 1.384 . S
N2253 C2245 1.427 . S
N2253 C2251 1.384 . S
H2254 C2260 0.930 . S
H2255 C2264 0.930 . S
H2256 C2269 0.929 . S
H2257 C2267 0.929 . S
H2258 C2262 0.929 . S
H2259 C2268 0.929 . S
C2260 H2254 0.930 . S
C2260 C2261 1.367 . S
C2260 C2268 1.378 1_545 S
C2261 C2260 1.367 . S
C2261 C2269 1.433 . S
C2262 H2258 0.929 . S
C2262 C2264 1.378 . S
C2262 C2266 1.350 . S
C2263 C2266 1.463 . S
C2263 C2268 1.350 . S
C2263 N2271 1.427 . S
C2264 H2255 0.930 . S
C2264 C2262 1.378 . S
C2264 C2265 1.367 . S
C2265 C2264 1.367 . S
C2265 C2267 1.433 . S
C2266 C2262 1.350 . S
C2266 C2263 1.463 . S
C2266 N2270 1.427 . S
C2267 H2257 0.929 . S
C2267 C2265 1.433 . S
C2267 N2270 1.384 . S
C2268 H2259 0.929 . S
C2268 C2260 1.378 1_565 S
C2268 C2263 1.350 . S
C2269 H2256 0.929 . S
C2269 C2261 1.433 . S
C2269 N2271 1.384 1_545 S
N2270 C2266 1.427 . S
N2270 C2267 1.384 . S
N2271 C2263 1.427 . S
N2271 C2269 1.384 1_565 S
H2272 C2278 0.930 . S
H2273 C2282 0.930 . S
H2274 C2287 0.929 . S
H2275 C2285 0.929 . S
H2276 C2280 0.929 . S
H2277 C2286 0.929 . S
C2278 H2272 0.930 . S
C2278 C2279 1.367 . S
C2278 C2286 1.378 . S
C2279 C2278 1.367 . S
C2279 C2287 1.433 . S
C2280 H2276 0.929 . S
C2280 C2282 1.378 . S
C2280 C2284 1.350 . S
C2281 C2284 1.463 . S
C2281 C2286 1.350 . S
C2281 N2289 1.427 . S
C2282 H2273 0.930 . S
C2282 C2280 1.378 . S
C2282 C2283 1.367 . S
C2283 C2282 1.367 . S
C2283 C2285 1.433 . S
C2284 C2280 1.350 . S
C2284 C2281 1.463 . S
C2284 N2288 1.427 . S
C2285 H2275 0.929 . S
C2285 C2283 1.433 . S
C2285 N2288 1.384 . S
C2286 H2277 0.929 . S
C2286 C2278 1.378 . S
C2286 C2281 1.350 . S
C2287 H2274 0.929 . S
C2287 C2279 1.433 . S
C2287 N2289 1.384 . S
N2288 C2284 1.427 . S
N2288 C2285 1.384 . S
N2289 C2281 1.427 . S
N2289 C2287 1.384 . S
H2290 C2296 0.930 . S
H2291 C2300 0.930 . S
H2292 C2305 0.929 . S
H2293 C2303 0.929 . S
H2294 C2298 0.929 . S
H2295 C2304 0.929 . S
C2296 H2290 0.930 . S
C2296 C2297 1.367 . S
C2296 C2304 1.378 . S
C2297 C2296 1.367 . S
C2297 C2305 1.433 . S
C2298 H2294 0.929 . S
C2298 C2300 1.378 . S
C2298 C2302 1.350 . S
C2299 C2302 1.463 . S
C2299 C2304 1.350 . S
C2299 N2307 1.427 . S
C2300 H2291 0.930 . S
C2300 C2298 1.378 . S
C2300 C2301 1.367 . S
C2301 C2300 1.367 . S
C2301 C2303 1.433 . S
C2302 C2298 1.350 . S
C2302 C2299 1.463 . S
C2302 N2306 1.427 . S
C2303 H2293 0.929 . S
C2303 C2301 1.433 . S
C2303 N2306 1.384 . S
C2304 H2295 0.929 . S
C2304 C2296 1.378 . S
C2304 C2299 1.350 . S
C2305 H2292 0.929 . S
C2305 C2297 1.433 . S
C2305 N2307 1.384 . S
N2306 C2302 1.427 . S
N2306 C2303 1.384 . S
N2307 C2299 1.427 . S
N2307 C2305 1.384 . S
H2308 C2314 0.930 . S
H2309 C2318 0.930 . S
H2310 C2323 0.929 . S
H2311 C2321 0.929 . S
H2312 C2316 0.929 . S
H2313 C2322 0.929 . S
C2314 H2308 0.930 . S
C2314 C2315 1.367 . S
C2314 C2322 1.378 . S
C2315 C2314 1.367 . S
C2315 C2323 1.433 . S
C2316 H2312 0.929 . S
C2316 C2318 1.378 . S
C2316 C2320 1.350 . S
C2317 C2320 1.463 . S
C2317 C2322 1.350 . S
C2317 N2325 1.427 . S
C2318 H2309 0.930 . S
C2318 C2316 1.378 . S
C2318 C2319 1.367 . S
C2319 C2318 1.367 . S
C2319 C2321 1.433 . S
C2320 C2316 1.350 . S
C2320 C2317 1.463 . S
C2320 N2324 1.427 . S
C2321 H2311 0.929 . S
C2321 C2319 1.433 . S
C2321 N2324 1.384 . S
C2322 H2313 0.929 . S
C2322 C2314 1.378 . S
C2322 C2317 1.350 . S
C2323 H2310 0.929 . S
C2323 C2315 1.433 . S
C2323 N2325 1.384 . S
N2324 C2320 1.427 . S
N2324 C2321 1.384 . S
N2325 C2317 1.427 . S
N2325 C2323 1.384 . S
H2326 C2332 0.930 . S
H2327 C2336 0.930 . S
H2328 C2341 0.929 . S
H2329 C2339 0.929 . S
H2330 C2334 0.929 . S
H2331 C2340 0.929 . S
C2332 H2326 0.930 . S
C2332 C2333 1.367 . S
C2332 C2340 1.378 . S
C2333 C2332 1.367 . S
C2333 C2341 1.433 . S
C2334 H2330 0.929 . S
C2334 C2336 1.378 . S
C2334 C2338 1.350 . S
C2335 C2338 1.463 . S
C2335 C2340 1.350 . S
C2335 N2343 1.427 . S
C2336 H2327 0.930 . S
C2336 C2334 1.378 . S
C2336 C2337 1.367 . S
C2337 C2336 1.367 . S
C2337 C2339 1.433 . S
C2338 C2334 1.350 . S
C2338 C2335 1.463 . S
C2338 N2342 1.427 . S
C2339 H2329 0.929 . S
C2339 C2337 1.433 . S
C2339 N2342 1.384 . S
C2340 H2331 0.929 . S
C2340 C2332 1.378 . S
C2340 C2335 1.350 . S
C2341 H2328 0.929 . S
C2341 C2333 1.433 . S
C2341 N2343 1.384 . S
N2342 C2338 1.427 . S
N2342 C2339 1.384 . S
N2343 C2335 1.427 . S
N2343 C2341 1.384 . S
H2344 C2350 0.930 . S
H2345 C2354 0.930 . S
H2346 C2359 0.929 . S
H2347 C2357 0.929 . S
H2348 C2352 0.929 . S
H2349 C2358 0.929 . S
C2350 H2344 0.930 . S
C2350 C2351 1.367 . S
C2350 C2358 1.378 . S
C2351 C2350 1.367 . S
C2351 C2359 1.433 . S
C2352 H2348 0.929 . S
C2352 C2354 1.378 . S
C2352 C2356 1.350 . S
C2353 C2356 1.463 . S
C2353 C2358 1.350 . S
C2353 N2361 1.427 . S
C2354 H2345 0.930 . S
C2354 C2352 1.378 . S
C2354 C2355 1.367 . S
C2355 C2354 1.367 . S
C2355 C2357 1.433 1_556 S
C2356 C2352 1.350 . S
C2356 C2353 1.463 . S
C2356 N2360 1.427 . S
C2357 H2347 0.929 . S
C2357 C2355 1.433 1_554 S
C2357 N2360 1.384 1_554 S
C2358 H2349 0.929 . S
C2358 C2350 1.378 . S
C2358 C2353 1.350 . S
C2359 H2346 0.929 . S
C2359 C2351 1.433 . S
C2359 N2361 1.384 . S
N2360 C2356 1.427 . S
N2360 C2357 1.384 1_556 S
N2361 C2353 1.427 . S
N2361 C2359 1.384 . S
H2362 C2368 0.930 . S
H2363 C2372 0.930 . S
H2364 C2377 0.929 . S
H2365 C2375 0.929 . S
H2366 C2370 0.929 . S
H2367 C2376 0.929 . S
C2368 H2362 0.930 . S
C2368 C2369 1.367 . S
C2368 C2376 1.378 . S
C2369 C2368 1.367 . S
C2369 C2377 1.433 . S
C2370 H2366 0.929 . S
C2370 C2372 1.378 . S
C2370 C2374 1.350 . S
C2371 C2374 1.463 . S
C2371 C2376 1.350 . S
C2371 N2379 1.427 . S
C2372 H2363 0.930 . S
C2372 C2370 1.378 . S
C2372 C2373 1.367 . S
C2373 C2372 1.367 . S
C2373 C2375 1.433 . S
C2374 C2370 1.350 . S
C2374 C2371 1.463 . S
C2374 N2378 1.427 . S
C2375 H2365 0.929 . S
C2375 C2373 1.433 . S
C2375 N2378 1.384 . S
C2376 H2367 0.929 . S
C2376 C2368 1.378 . S
C2376 C2371 1.350 . S
C2377 H2364 0.929 . S
C2377 C2369 1.433 . S
C2377 N2379 1.384 . S
N2378 C2374 1.427 . S
N2378 C2375 1.384 . S
N2379 C2371 1.427 . S
N2379 C2377 1.384 . S
H2380 C2386 0.930 . S
H2381 C2390 0.930 . S
H2382 C2395 0.929 . S
H2383 C2393 0.929 . S
H2384 C2388 0.929 . S
H2385 C2394 0.929 . S
C2386 H2380 0.930 . S
C2386 C2387 1.367 . S
C2386 C2394 1.378 . S
C2387 C2386 1.367 . S
C2387 C2395 1.433 . S
C2388 H2384 0.929 . S
C2388 C2390 1.378 . S
C2388 C2392 1.350 . S
C2389 C2392 1.463 . S
C2389 C2394 1.350 . S
C2389 N2397 1.427 . S
C2390 H2381 0.930 . S
C2390 C2388 1.378 . S
C2390 C2391 1.367 . S
C2391 C2390 1.367 . S
C2391 C2393 1.433 . S
C2392 C2388 1.350 . S
C2392 C2389 1.463 . S
C2392 N2396 1.427 . S
C2393 H2383 0.929 . S
C2393 C2391 1.433 . S
C2393 N2396 1.384 . S
C2394 H2385 0.929 . S
C2394 C2386 1.378 . S
C2394 C2389 1.350 . S
C2395 H2382 0.929 . S
C2395 C2387 1.433 . S
C2395 N2397 1.384 . S
N2396 C2392 1.427 . S
N2396 C2393 1.384 . S
N2397 C2389 1.427 . S
N2397 C2395 1.384 . S
H2398 C2404 0.930 . S
H2399 C2408 0.930 . S
H2400 C2413 0.929 . S
H2401 C2411 0.929 . S
H2402 C2406 0.929 . S
H2403 C2412 0.929 . S
C2404 H2398 0.930 . S
C2404 C2405 1.367 . S
C2404 C2412 1.378 . S
C2405 C2404 1.367 . S
C2405 C2413 1.433 . S
C2406 H2402 0.929 . S
C2406 C2408 1.378 . S
C2406 C2410 1.350 . S
C2407 C2410 1.463 . S
C2407 C2412 1.350 . S
C2407 N2415 1.427 . S
C2408 H2399 0.930 . S
C2408 C2406 1.378 . S
C2408 C2409 1.367 . S
C2409 C2408 1.367 . S
C2409 C2411 1.433 . S
C2410 C2406 1.350 . S
C2410 C2407 1.463 . S
C2410 N2414 1.427 . S
C2411 H2401 0.929 . S
C2411 C2409 1.433 . S
C2411 N2414 1.384 . S
C2412 H2403 0.929 . S
C2412 C2404 1.378 . S
C2412 C2407 1.350 . S
C2413 H2400 0.929 . S
C2413 C2405 1.433 . S
C2413 N2415 1.384 . S
N2414 C2410 1.427 . S
N2414 C2411 1.384 . S
N2415 C2407 1.427 . S
N2415 C2413 1.384 . S
H2416 C2422 0.930 . S
H2417 C2426 0.930 . S
H2418 C2431 0.929 . S
H2419 C2429 0.929 . S
H2420 C2424 0.929 . S
H2421 C2430 0.929 . S
C2422 H2416 0.930 . S
C2422 C2423 1.367 . S
C2422 C2430 1.378 . S
C2423 C2422 1.367 . S
C2423 C2431 1.433 . S
C2424 H2420 0.929 . S
C2424 C2426 1.378 . S
C2424 C2428 1.350 . S
C2425 C2428 1.463 . S
C2425 C2430 1.350 . S
C2425 N2433 1.427 . S
C2426 H2417 0.930 . S
C2426 C2424 1.378 . S
C2426 C2427 1.367 . S
C2427 C2426 1.367 . S
C2427 C2429 1.433 . S
C2428 C2424 1.350 . S
C2428 C2425 1.463 . S
C2428 N2432 1.427 . S
C2429 H2419 0.929 . S
C2429 C2427 1.433 . S
C2429 N2432 1.384 . S
C2430 H2421 0.929 . S
C2430 C2422 1.378 . S
C2430 C2425 1.350 . S
C2431 H2418 0.929 . S
C2431 C2423 1.433 . S
C2431 N2433 1.384 . S
N2432 C2428 1.427 . S
N2432 C2429 1.384 . S
N2433 C2425 1.427 . S
N2433 C2431 1.384 . S
H2434 C2440 0.930 . S
H2435 C2444 0.930 . S
H2436 C2449 0.929 . S
H2437 C2447 0.929 . S
H2438 C2442 0.929 . S
H2439 C2448 0.929 . S
C2440 H2434 0.930 . S
C2440 C2441 1.367 . S
C2440 C2448 1.378 . S
C2441 C2440 1.367 . S
C2441 C2449 1.433 . S
C2442 H2438 0.929 . S
C2442 C2444 1.378 . S
C2442 C2446 1.350 . S
C2443 C2446 1.463 . S
C2443 C2448 1.350 . S
C2443 N2451 1.427 . S
C2444 H2435 0.930 . S
C2444 C2442 1.378 . S
C2444 C2445 1.367 . S
C2445 C2444 1.367 . S
C2445 C2447 1.433 . S
C2446 C2442 1.350 . S
C2446 C2443 1.463 . S
C2446 N2450 1.427 . S
C2447 H2437 0.929 . S
C2447 C2445 1.433 . S
C2447 N2450 1.384 . S
C2448 H2439 0.929 . S
C2448 C2440 1.378 . S
C2448 C2443 1.350 . S
C2449 H2436 0.929 . S
C2449 C2441 1.433 . S
C2449 N2451 1.384 . S
N2450 C2446 1.427 . S
N2450 C2447 1.384 . S
N2451 C2443 1.427 . S
N2451 C2449 1.384 . S
H2452 C2458 0.930 1_655 S
H2453 C2462 0.930 . S
H2454 C2467 0.929 . S
H2455 C2465 0.934 . S
H2456 C2460 0.929 . S
H2457 C2466 0.929 1_655 S
C2458 H2452 0.930 1_455 S
C2458 C2459 1.367 . S
C2458 C2466 1.378 . S
C2459 C2458 1.367 . S
C2459 C2467 1.433 . S
C2460 H2456 0.929 . S
C2460 C2462 1.378 . S
C2460 C2464 1.350 . S
C2461 C2464 1.463 . S
C2461 C2466 1.350 . S
C2461 N2469 1.427 . S
C2462 H2453 0.930 . S
C2462 C2460 1.378 . S
C2462 C2463 1.368 . S
C2463 C2462 1.368 . S
C2463 C2465 1.434 . S
C2464 C2460 1.350 . S
C2464 C2461 1.463 . S
C2464 N2468 1.427 . S
C2465 H2455 0.934 . S
C2465 C2463 1.434 . S
C2465 N2468 1.384 . S
C2466 H2457 0.929 1_455 S
C2466 C2458 1.378 . S
C2466 C2461 1.350 . S
C2467 H2454 0.929 . S
C2467 C2459 1.433 . S
C2467 N2469 1.384 . S
N2468 C2464 1.427 . S
N2468 C2465 1.384 . S
N2469 C2461 1.427 . S
N2469 C2467 1.384 . S
H2470 C2476 0.930 . S
H2471 C2480 0.930 . S
H2472 C2485 0.929 . S
H2473 C2483 0.929 . S
H2474 C2478 0.929 . S
H2475 C2484 0.929 . S
C2476 H2470 0.930 . S
C2476 C2477 1.367 . S
C2476 C2484 1.378 . S
C2477 C2476 1.367 . S
C2477 C2485 1.433 . S
C2478 H2474 0.929 . S
C2478 C2480 1.378 . S
C2478 C2482 1.350 . S
C2479 C2482 1.463 . S
C2479 C2484 1.350 . S
C2479 N2487 1.427 . S
C2480 H2471 0.930 . S
C2480 C2478 1.378 . S
C2480 C2481 1.367 . S
C2481 C2480 1.367 . S
C2481 C2483 1.433 . S
C2482 C2478 1.350 . S
C2482 C2479 1.463 . S
C2482 N2486 1.427 . S
C2483 H2473 0.929 . S
C2483 C2481 1.433 . S
C2483 N2486 1.384 . S
C2484 H2475 0.929 . S
C2484 C2476 1.378 . S
C2484 C2479 1.350 . S
C2485 H2472 0.929 . S
C2485 C2477 1.433 . S
C2485 N2487 1.384 . S
N2486 C2482 1.427 . S
N2486 C2483 1.384 . S
N2487 C2479 1.427 . S
N2487 C2485 1.384 . S
H2488 C2494 0.930 . S
H2489 C2498 0.930 . S
H2490 C2503 0.929 . S
H2491 C2501 0.929 . S
H2492 C2496 0.929 . S
H2493 C2502 0.929 . S
C2494 H2488 0.930 . S
C2494 C2495 1.367 . S
C2494 C2502 1.378 . S
C2495 C2494 1.367 . S
C2495 C2503 1.433 . S
C2496 H2492 0.929 . S
C2496 C2498 1.378 . S
C2496 C2500 1.350 . S
C2497 C2500 1.463 . S
C2497 C2502 1.350 . S
C2497 N2505 1.427 . S
C2498 H2489 0.930 . S
C2498 C2496 1.378 . S
C2498 C2499 1.367 . S
C2499 C2498 1.367 . S
C2499 C2501 1.433 . S
C2500 C2496 1.350 . S
C2500 C2497 1.463 . S
C2500 N2504 1.427 . S
C2501 H2491 0.929 . S
C2501 C2499 1.433 . S
C2501 N2504 1.384 . S
C2502 H2493 0.929 . S
C2502 C2494 1.378 . S
C2502 C2497 1.350 . S
C2503 H2490 0.929 . S
C2503 C2495 1.433 . S
C2503 N2505 1.384 . S
N2504 C2500 1.427 . S
N2504 C2501 1.384 . S
N2505 C2497 1.427 . S
N2505 C2503 1.384 . S
H2506 C2512 0.930 . S
H2507 C2516 0.930 . S
H2508 C2521 0.929 . S
H2509 C2519 0.929 . S
H2510 C2514 0.929 . S
H2511 C2520 0.929 . S
C2512 H2506 0.930 . S
C2512 C2513 1.367 . S
C2512 C2520 1.378 . S
C2513 C2512 1.367 . S
C2513 C2521 1.433 . S
C2514 H2510 0.929 . S
C2514 C2516 1.378 . S
C2514 C2518 1.350 . S
C2515 C2518 1.463 . S
C2515 C2520 1.350 . S
C2515 N2523 1.427 . S
C2516 H2507 0.930 . S
C2516 C2514 1.378 . S
C2516 C2517 1.367 . S
C2517 C2516 1.367 . S
C2517 C2519 1.433 . S
C2518 C2514 1.350 . S
C2518 C2515 1.463 . S
C2518 N2522 1.427 . S
C2519 H2509 0.929 . S
C2519 C2517 1.433 . S
C2519 N2522 1.384 . S
C2520 H2511 0.929 . S
C2520 C2512 1.378 . S
C2520 C2515 1.350 . S
C2521 H2508 0.929 . S
C2521 C2513 1.433 . S
C2521 N2523 1.384 . S
N2522 C2518 1.427 . S
N2522 C2519 1.384 . S
N2523 C2515 1.427 . S
N2523 C2521 1.384 . S
H2524 C2530 0.930 . S
H2525 C2534 0.930 . S
H2526 C2539 0.929 . S
H2527 C2537 0.929 . S
H2528 C2532 0.929 . S
H2529 C2538 0.929 . S
C2530 H2524 0.930 . S
C2530 C2531 1.367 . S
C2530 C2538 1.378 . S
C2531 C2530 1.367 . S
C2531 C2539 1.433 1_455 S
C2532 H2528 0.929 . S
C2532 C2534 1.378 . S
C2532 C2536 1.350 1_655 S
C2533 C2536 1.463 . S
C2533 C2538 1.350 . S
C2533 N2541 1.427 1_455 S
C2534 H2525 0.930 . S
C2534 C2532 1.378 . S
C2534 C2535 1.367 1_655 S
C2535 C2534 1.367 1_455 S
C2535 C2537 1.433 . S
C2536 C2532 1.350 1_455 S
C2536 C2533 1.463 . S
C2536 N2540 1.427 . S
C2537 H2527 0.929 . S
C2537 C2535 1.433 . S
C2537 N2540 1.384 . S
C2538 H2529 0.929 . S
C2538 C2530 1.378 . S
C2538 C2533 1.350 . S
C2539 H2526 0.929 . S
C2539 C2531 1.433 1_655 S
C2539 N2541 1.384 . S
N2540 C2536 1.427 . S
N2540 C2537 1.384 . S
N2541 C2533 1.427 1_655 S
N2541 C2539 1.384 . S
H2542 C2548 0.930 . S
H2543 C2552 0.930 . S
H2544 C2557 0.929 . S
H2545 C2555 0.929 . S
H2546 C2550 0.929 . S
H2547 C2556 0.929 . S
C2548 H2542 0.930 . S
C2548 C2549 1.367 . S
C2548 C2556 1.378 . S
C2549 C2548 1.367 . S
C2549 C2557 1.433 . S
C2550 H2546 0.929 . S
C2550 C2552 1.378 . S
C2550 C2554 1.350 . S
C2551 C2554 1.463 . S
C2551 C2556 1.350 . S
C2551 N2559 1.427 . S
C2552 H2543 0.930 . S
C2552 C2550 1.378 . S
C2552 C2553 1.367 . S
C2553 C2552 1.367 . S
C2553 C2555 1.433 . S
C2554 C2550 1.350 . S
C2554 C2551 1.463 . S
C2554 N2558 1.427 . S
C2555 H2545 0.929 . S
C2555 C2553 1.433 . S
C2555 N2558 1.384 . S
C2556 H2547 0.929 . S
C2556 C2548 1.378 . S
C2556 C2551 1.350 . S
C2557 H2544 0.929 . S
C2557 C2549 1.433 . S
C2557 N2559 1.384 . S
N2558 C2554 1.427 . S
N2558 C2555 1.384 . S
N2559 C2551 1.427 . S
N2559 C2557 1.384 . S
H2560 C2566 0.930 . S
H2561 C2570 0.930 . S
H2562 C2575 0.929 . S
H2563 C2573 0.929 . S
H2564 C2568 0.929 . S
H2565 C2574 0.929 . S
C2566 H2560 0.930 . S
C2566 C2567 1.367 . S
C2566 C2574 1.378 . S
C2567 C2566 1.367 . S
C2567 C2575 1.433 . S
C2568 H2564 0.929 . S
C2568 C2570 1.378 . S
C2568 C2572 1.350 . S
C2569 C2572 1.463 . S
C2569 C2574 1.350 . S
C2569 N2577 1.427 . S
C2570 H2561 0.930 . S
C2570 C2568 1.378 . S
C2570 C2571 1.367 . S
C2571 C2570 1.367 . S
C2571 C2573 1.433 . S
C2572 C2568 1.350 . S
C2572 C2569 1.463 . S
C2572 N2576 1.427 . S
C2573 H2563 0.929 . S
C2573 C2571 1.433 . S
C2573 N2576 1.384 . S
C2574 H2565 0.929 . S
C2574 C2566 1.378 . S
C2574 C2569 1.350 . S
C2575 H2562 0.929 . S
C2575 C2567 1.433 . S
C2575 N2577 1.384 . S
N2576 C2572 1.427 . S
N2576 C2573 1.384 . S
N2577 C2569 1.427 . S
N2577 C2575 1.384 . S
H2578 C2584 0.930 . S
H2579 C2588 0.930 . S
H2580 C2593 0.929 . S
H2581 C2591 0.929 . S
H2582 C2586 0.929 . S
H2583 C2592 0.929 . S
C2584 H2578 0.930 . S
C2584 C2585 1.367 . S
C2584 C2592 1.378 . S
C2585 C2584 1.367 . S
C2585 C2593 1.433 . S
C2586 H2582 0.929 . S
C2586 C2588 1.378 . S
C2586 C2590 1.350 . S
C2587 C2590 1.463 . S
C2587 C2592 1.350 . S
C2587 N2595 1.427 . S
C2588 H2579 0.930 . S
C2588 C2586 1.378 . S
C2588 C2589 1.367 . S
C2589 C2588 1.367 . S
C2589 C2591 1.433 . S
C2590 C2586 1.350 . S
C2590 C2587 1.463 . S
C2590 N2594 1.427 . S
C2591 H2581 0.929 . S
C2591 C2589 1.433 . S
C2591 N2594 1.384 . S
C2592 H2583 0.929 . S
C2592 C2584 1.378 . S
C2592 C2587 1.350 . S
C2593 H2580 0.929 . S
C2593 C2585 1.433 . S
C2593 N2595 1.384 . S
N2594 C2590 1.427 . S
N2594 C2591 1.384 . S
N2595 C2587 1.427 . S
N2595 C2593 1.384 . S
H2596 C2602 0.930 . S
H2597 C2606 0.930 . S
H2598 C2611 0.929 . S
H2599 C2609 0.929 . S
H2600 C2604 0.929 . S
H2601 C2610 0.929 . S
C2602 H2596 0.930 . S
C2602 C2603 1.367 . S
C2602 C2610 1.378 . S
C2603 C2602 1.367 . S
C2603 C2611 1.433 . S
C2604 H2600 0.929 . S
C2604 C2606 1.378 . S
C2604 C2608 1.350 . S
C2605 C2608 1.463 . S
C2605 C2610 1.350 . S
C2605 N2613 1.427 . S
C2606 H2597 0.930 . S
C2606 C2604 1.378 . S
C2606 C2607 1.367 . S
C2607 C2606 1.367 . S
C2607 C2609 1.433 . S
C2608 C2604 1.350 . S
C2608 C2605 1.463 . S
C2608 N2612 1.427 . S
C2609 H2599 0.929 . S
C2609 C2607 1.433 . S
C2609 N2612 1.384 . S
C2610 H2601 0.929 . S
C2610 C2602 1.378 . S
C2610 C2605 1.350 . S
C2611 H2598 0.929 . S
C2611 C2603 1.433 . S
C2611 N2613 1.384 . S
N2612 C2608 1.427 . S
N2612 C2609 1.384 . S
N2613 C2605 1.427 . S
N2613 C2611 1.384 . S
H2614 C2620 0.930 . S
H2615 C2624 0.930 . S
H2616 C2629 0.929 . S
H2617 C2627 0.929 . S
H2618 C2622 0.929 . S
H2619 C2628 0.928 . S
C2620 H2614 0.930 . S
C2620 C2621 1.367 1_556 S
C2620 C2628 1.378 1_556 S
C2621 C2620 1.367 1_554 S
C2621 C2629 1.433 . S
C2622 H2618 0.929 . S
C2622 C2624 1.378 . S
C2622 C2626 1.350 . S
C2623 C2626 1.463 . S
C2623 C2628 1.350 . S
C2623 N2631 1.427 . S
C2624 H2615 0.930 . S
C2624 C2622 1.378 . S
C2624 C2625 1.367 . S
C2625 C2624 1.367 . S
C2625 C2627 1.433 . S
C2626 C2622 1.350 . S
C2626 C2623 1.463 . S
C2626 N2630 1.427 . S
C2627 H2617 0.929 . S
C2627 C2625 1.433 . S
C2627 N2630 1.384 . S
C2628 H2619 0.928 . S
C2628 C2620 1.378 1_554 S
C2628 C2623 1.350 . S
C2629 H2616 0.929 . S
C2629 C2621 1.433 . S
C2629 N2631 1.384 . S
N2630 C2626 1.427 . S
N2630 C2627 1.384 . S
N2631 C2623 1.427 . S
N2631 C2629 1.384 . S
H2632 C2638 0.930 . S
H2633 C2642 0.930 . S
H2634 C2647 0.929 . S
H2635 C2645 0.929 . S
H2636 C2640 0.929 . S
H2637 C2646 0.929 . S
C2638 H2632 0.930 . S
C2638 C2639 1.367 . S
C2638 C2646 1.378 . S
C2639 C2638 1.367 . S
C2639 C2647 1.433 . S
C2640 H2636 0.929 . S
C2640 C2642 1.378 . S
C2640 C2644 1.350 . S
C2641 C2644 1.463 . S
C2641 C2646 1.350 . S
C2641 N2649 1.427 . S
C2642 H2633 0.930 . S
C2642 C2640 1.378 . S
C2642 C2643 1.367 . S
C2643 C2642 1.367 . S
C2643 C2645 1.433 . S
C2644 C2640 1.350 . S
C2644 C2641 1.463 . S
C2644 N2648 1.427 . S
C2645 H2635 0.929 . S
C2645 C2643 1.433 . S
C2645 N2648 1.384 . S
C2646 H2637 0.929 . S
C2646 C2638 1.378 . S
C2646 C2641 1.350 . S
C2647 H2634 0.929 . S
C2647 C2639 1.433 . S
C2647 N2649 1.384 . S
N2648 C2644 1.427 . S
N2648 C2645 1.384 . S
N2649 C2641 1.427 . S
N2649 C2647 1.384 . S
H2650 C2656 0.930 . S
H2651 C2660 0.930 . S
H2652 C2665 0.929 . S
H2653 C2663 0.929 . S
H2654 C2658 0.929 . S
H2655 C2664 0.929 . S
C2656 H2650 0.930 . S
C2656 C2657 1.367 . S
C2656 C2664 1.378 . S
C2657 C2656 1.367 . S
C2657 C2665 1.433 . S
C2658 H2654 0.929 . S
C2658 C2660 1.378 . S
C2658 C2662 1.350 . S
C2659 C2662 1.463 . S
C2659 C2664 1.350 . S
C2659 N2667 1.427 . S
C2660 H2651 0.930 . S
C2660 C2658 1.378 . S
C2660 C2661 1.367 . S
C2661 C2660 1.367 . S
C2661 C2663 1.433 . S
C2662 C2658 1.350 . S
C2662 C2659 1.463 . S
C2662 N2666 1.427 . S
C2663 H2653 0.929 . S
C2663 C2661 1.433 . S
C2663 N2666 1.384 . S
C2664 H2655 0.929 . S
C2664 C2656 1.378 . S
C2664 C2659 1.350 . S
C2665 H2652 0.929 . S
C2665 C2657 1.433 . S
C2665 N2667 1.384 . S
N2666 C2662 1.427 . S
N2666 C2663 1.384 . S
N2667 C2659 1.427 . S
N2667 C2665 1.384 . S
H2668 C2674 0.930 . S
H2669 C2678 0.930 . S
H2670 C2683 0.929 . S
H2671 C2681 0.929 . S
H2672 C2676 0.929 . S
H2673 C2682 0.929 . S
C2674 H2668 0.930 . S
C2674 C2675 1.367 . S
C2674 C2682 1.378 . S
C2675 C2674 1.367 . S
C2675 C2683 1.433 . S
C2676 H2672 0.929 . S
C2676 C2678 1.378 . S
C2676 C2680 1.350 . S
C2677 C2680 1.463 . S
C2677 C2682 1.350 . S
C2677 N2685 1.427 . S
C2678 H2669 0.930 . S
C2678 C2676 1.378 . S
C2678 C2679 1.367 . S
C2679 C2678 1.367 . S
C2679 C2681 1.433 . S
C2680 C2676 1.350 . S
C2680 C2677 1.463 . S
C2680 N2684 1.427 . S
C2681 H2671 0.929 . S
C2681 C2679 1.433 . S
C2681 N2684 1.384 . S
C2682 H2673 0.929 . S
C2682 C2674 1.378 . S
C2682 C2677 1.350 . S
C2683 H2670 0.929 . S
C2683 C2675 1.433 . S
C2683 N2685 1.384 . S
N2684 C2680 1.427 . S
N2684 C2681 1.384 . S
N2685 C2677 1.427 . S
N2685 C2683 1.384 . S
H2686 C2692 0.930 . S
H2687 C2696 0.930 . S
H2688 C2701 0.929 . S
H2689 C2699 0.929 . S
H2690 C2694 0.929 . S
H2691 C2700 0.929 . S
C2692 H2686 0.930 . S
C2692 C2693 1.367 . S
C2692 C2700 1.378 . S
C2693 C2692 1.367 . S
C2693 C2701 1.433 . S
C2694 H2690 0.929 . S
C2694 C2696 1.378 . S
C2694 C2698 1.350 . S
C2695 C2698 1.463 . S
C2695 C2700 1.350 . S
C2695 N2703 1.427 . S
C2696 H2687 0.930 . S
C2696 C2694 1.378 . S
C2696 C2697 1.367 . S
C2697 C2696 1.367 . S
C2697 C2699 1.433 . S
C2698 C2694 1.350 . S
C2698 C2695 1.463 . S
C2698 N2702 1.427 . S
C2699 H2689 0.929 . S
C2699 C2697 1.433 . S
C2699 N2702 1.384 . S
C2700 H2691 0.929 . S
C2700 C2692 1.378 . S
C2700 C2695 1.350 . S
C2701 H2688 0.929 . S
C2701 C2693 1.433 . S
C2701 N2703 1.384 . S
N2702 C2698 1.427 . S
N2702 C2699 1.384 . S
N2703 C2695 1.427 . S
N2703 C2701 1.384 . S
C983 C106 2.251 . S
C987 C358 2.249 . S
C1001 C65 1.154 . S
C1005 C378 1.121 . S
C1019 C79 1.037 . S
C1023 C425 1.025 . S
C1041 C482 0.854 . S
C1037 C90 0.858 . S
C1055 C21 2.358 . S
C1059 C499 2.389 . S
C1077 C558 1.835 . S
C1073 C35 1.790 . S
C1095 C591 2.758 . S
C1091 C50 2.757 . S
C1109 C6 2.475 . S
C1113 C638 2.515 . S
C1131 C351 1.938 . S
C1127 C232 1.908 1_545 S
C1145 C245 1.500 . S
C1149 C379 1.512 . S
C1167 C418 0.508 . S
C1163 C274 0.503 . S
C1185 C478 2.243 . S
C1181 C175 2.164 . S
C1199 C231 0.428 . S
C1203 C505 0.409 . S
C1221 C551 2.264 . S
C1217 C246 2.245 . S
C1239 C602 0.522 . S
C1235 C273 0.467 . S
C1257 C631 2.532 . S
C1253 C176 2.532 . S
C1275 C362 1.953 1_565 S
C1271 C160 1.885 . S
C1289 C289 2.201 . S
C1293 C658 2.174 . S
C1311 C722 1.349 . S
C1307 C328 1.310 . S
C1329 C758 1.487 . S
C1325 C317 1.495 . S
C1343 C118 1.353 . S
C1347 C642 1.494 . S
C1361 C132 2.608 . S
C1365 C419 2.659 . S
C1379 C331 1.512 . S
C1383 C791 1.517 . S
C1401 C825 0.580 . S
C1397 C303 0.572 . S
C1419 C339 1.810 1_565 S
C1415 C63 1.768 . S
C1437 C831 1.634 . S
C1433 C107 1.614 . S
C1451 C92 0.851 . S
C1455 C442 0.858 . S
C1469 C78 1.203 . S
C1473 C785 1.193 . S
C1491 C518 3.006 . S
C1487 C8 2.986 . S
C1505 C51 1.925 . S
C1509 C699 1.917 . S
C1527 C578 3.072 1_556 S
C1523 C37 3.023 . S
C1545 C859 2.375 . S
C1541 C20 2.362 . S
C1563 C338 1.575 . S
C1559 C147 1.460 . S
C1581 C838 1.616 . S
C1577 C316 1.621 . S
C1595 C119 0.515 . S
C1599 C431 0.515 . S
C1613 C288 2.311 . S
C1617 C779 2.316 . S
C1631 C148 0.561 . S
C1635 C522 0.551 . S
C1653 C698 2.261 . S
C1649 C315 2.243 . S
C1667 C120 0.526 . S
C1671 C585 0.553 . S
C1685 C287 2.325 . S
C1689 C858 2.381 . S
C1703 C188 1.557 . S
C1707 C345 1.591 . S
C1721 C177 2.424 . S
C1725 C671 2.426 . S
C1739 C258 1.304 . S
C1743 C545 1.306 . S
C1757 C247 1.682 . S
C1761 C739 1.670 . S
C1779 C865 1.295 . S
C1775 C272 1.226 . S
C1793 C216 2.340 . S
C1797 C438 2.390 1_565 S
C1815 C458 1.795 . S
C1811 C261 1.718 . S
C1833 C402 0.449 . S
C1829 C205 0.447 . S
C1847 C76 1.810 . S
C1851 C918 1.900 . S
C1869 C818 1.216 . S
C1865 C93 1.251 . S
C1883 C105 0.692 . S
C1887 C945 0.686 . S
C1901 C62 0.851 . S
C1905 C802 0.863 . S
C1919 C49 2.323 . S
C1923 C659 2.352 . S
C1941 C718 2.231 . S
C1937 C9 2.219 1_655 S
C1959 C751 2.670 . S
C1955 C22 2.669 . S
C1977 C878 2.843 . S
C1973 C36 2.867 . S
C1995 C911 1.827 . S
C1991 C260 1.796 . S
C2009 C189 1.397 . S
C2013 C819 1.410 . S
C2031 C938 0.462 . S
C2027 C204 0.433 . S
C2049 C798 1.949 . S
C2045 C217 1.893 . S
C2067 C665 0.446 . S
C2063 C259 0.508 . S
C2081 C190 2.345 . S
C2085 C711 2.365 . S
C2103 C762 0.493 . S
C2099 C203 0.449 . S
C2117 C218 2.555 . S
C2121 C871 2.555 . S
C2139 C922 1.948 . S
C2135 C314 1.877 . S
C2153 C135 2.279 . S
C2157 C498 2.256 . S
C2175 C562 1.304 . S
C2171 C146 1.268 1_565 S
C2193 C598 1.561 1_565 S
C2189 C163 1.557 . S
C2211 C882 1.475 . S
C2207 C300 1.348 . S
C2225 C286 2.495 . S
C2229 C939 2.556 1_655 S
C2247 C471 1.401 . S
C2243 C149 1.398 . S
C2265 C385 0.623 . S
C2261 C121 0.587 . S
C2279 C91 1.718 . S
C2283 C899 1.767 . S
C2301 C391 1.249 . S
C2297 C77 1.196 . S
C2315 C64 0.869 . S
C2319 C962 0.875 . S
C2333 C104 0.919 . S
C2337 C465 0.910 . S
C2351 C34 2.598 . S
C2355 C678 2.639 1_556 S
C2373 C539 1.889 . S
C2369 C23 1.884 . S
C2387 C7 2.595 . S
C2391 C738 2.665 . S
C2405 C48 2.314 . S
C2409 C619 2.331 . S
C2427 C898 1.511 . S
C2423 C329 1.422 . S
C2441 C162 1.624 . S
C2445 C398 1.633 . S
C2463 C951 0.593 1_556 S
C2459 C301 0.595 . S
C2477 C134 2.253 . S
C2481 C459 2.259 . S
C2495 C330 0.589 . S
C2499 C682 0.580 . S
C2517 C538 2.243 . S
C2513 C161 2.230 . S
C2531 C302 0.597 . S
C2535 C745 0.583 . S
C2553 C618 2.341 . S
C2549 C133 2.289 . S
C2571 C905 1.729 . S
C2567 C244 1.700 . S
C2589 C511 2.412 1_665 S
C2585 C219 2.414 . S
C2603 C230 1.198 . S
C2607 C705 1.184 . S
C2625 C579 1.642 . S
C2621 C191 1.662 1_554 S
C2639 C202 1.326 . S
C2643 C625 1.406 . S
C2657 C174 2.650 . S
C2661 C958 2.714 . S
C2679 C778 1.733 . S
C2675 C233 1.648 . S
C2697 C842 0.511 . S
C2693 C275 0.508 . S
