# Generated by pormake.
# Topology iac, (4,6)-cn, num edge types: 1
# Building blocks:
#     Node 0, Type 0, BuildingBlock: TATPOV_clean_sbu_0, # of connection points: 4
#     Node 1, Type 0, BuildingBlock: TATPOV_clean_sbu_0, # of connection points: 4
#     Node 2, Type 0, BuildingBlock: TATPOV_clean_sbu_0, # of connection points: 4
#     Node 3, Type 0, BuildingBlock: TATPOV_clean_sbu_0, # of connection points: 4
#     Node 4, Type 0, BuildingBlock: TATPOV_clean_sbu_0, # of connection points: 4
#     Node 5, Type 0, BuildingBlock: TATPOV_clean_sbu_0, # of connection points: 4
#     Node 6, Type 0, BuildingBlock: TATPOV_clean_sbu_0, # of connection points: 4
#     Node 7, Type 0, BuildingBlock: TATPOV_clean_sbu_0, # of connection points: 4
#     Node 8, Type 0, BuildingBlock: TATPOV_clean_sbu_0, # of connection points: 4
#     Node 9, Type 0, BuildingBlock: TATPOV_clean_sbu_0, # of connection points: 4
#     Node 10, Type 0, BuildingBlock: TATPOV_clean_sbu_0, # of connection points: 4
#     Node 11, Type 0, BuildingBlock: TATPOV_clean_sbu_0, # of connection points: 4
#     Node 12, Type 0, BuildingBlock: TATPOV_clean_sbu_0, # of connection points: 4
#     Node 13, Type 0, BuildingBlock: TATPOV_clean_sbu_0, # of connection points: 4
#     Node 14, Type 0, BuildingBlock: TATPOV_clean_sbu_0, # of connection points: 4
#     Node 15, Type 0, BuildingBlock: TATPOV_clean_sbu_0, # of connection points: 4
#     Node 16, Type 0, BuildingBlock: TATPOV_clean_sbu_0, # of connection points: 4
#     Node 17, Type 0, BuildingBlock: TATPOV_clean_sbu_0, # of connection points: 4
#     Node 18, Type 0, BuildingBlock: TATPOV_clean_sbu_0, # of connection points: 4
#     Node 19, Type 0, BuildingBlock: TATPOV_clean_sbu_0, # of connection points: 4
#     Node 20, Type 0, BuildingBlock: TATPOV_clean_sbu_0, # of connection points: 4
#     Node 21, Type 0, BuildingBlock: TATPOV_clean_sbu_0, # of connection points: 4
#     Node 22, Type 0, BuildingBlock: TATPOV_clean_sbu_0, # of connection points: 4
#     Node 23, Type 0, BuildingBlock: TATPOV_clean_sbu_0, # of connection points: 4
#     Node 24, Type 1, BuildingBlock: CIFDUS_clean_sbu_1, # of connection points: 6
#     Node 25, Type 1, BuildingBlock: CIFDUS_clean_sbu_1, # of connection points: 6
#     Node 26, Type 1, BuildingBlock: CIFDUS_clean_sbu_1, # of connection points: 6
#     Node 27, Type 1, BuildingBlock: CIFDUS_clean_sbu_1, # of connection points: 6
#     Node 28, Type 1, BuildingBlock: CIFDUS_clean_sbu_1, # of connection points: 6
#     Node 29, Type 1, BuildingBlock: CIFDUS_clean_sbu_1, # of connection points: 6
#     Node 30, Type 1, BuildingBlock: CIFDUS_clean_sbu_1, # of connection points: 6
#     Node 31, Type 1, BuildingBlock: CIFDUS_clean_sbu_1, # of connection points: 6
#     Node 32, Type 1, BuildingBlock: CIFDUS_clean_sbu_1, # of connection points: 6
#     Node 33, Type 1, BuildingBlock: CIFDUS_clean_sbu_1, # of connection points: 6
#     Node 34, Type 1, BuildingBlock: CIFDUS_clean_sbu_1, # of connection points: 6
#     Node 35, Type 1, BuildingBlock: CIFDUS_clean_sbu_1, # of connection points: 6
#     Node 36, Type 1, BuildingBlock: CIFDUS_clean_sbu_1, # of connection points: 6
#     Node 37, Type 1, BuildingBlock: CIFDUS_clean_sbu_1, # of connection points: 6
#     Node 38, Type 1, BuildingBlock: CIFDUS_clean_sbu_1, # of connection points: 6
#     Node 39, Type 1, BuildingBlock: CIFDUS_clean_sbu_1, # of connection points: 6
#     Edge 40, Type (0, 1), BuildingBlock: XUDNAN_clean_linker_2, # of connection points: 2
#     Edge 41, Type (0, 1), BuildingBlock: XUDNAN_clean_linker_2, # of connection points: 2
#     Edge 42, Type (0, 1), BuildingBlock: XUDNAN_clean_linker_2, # of connection points: 2
#     Edge 43, Type (0, 1), BuildingBlock: XUDNAN_clean_linker_2, # of connection points: 2
#     Edge 44, Type (0, 1), BuildingBlock: XUDNAN_clean_linker_2, # of connection points: 2
#     Edge 45, Type (0, 1), BuildingBlock: XUDNAN_clean_linker_2, # of connection points: 2
#     Edge 46, Type (0, 1), BuildingBlock: XUDNAN_clean_linker_2, # of connection points: 2
#     Edge 47, Type (0, 1), BuildingBlock: XUDNAN_clean_linker_2, # of connection points: 2
#     Edge 48, Type (0, 1), BuildingBlock: XUDNAN_clean_linker_2, # of connection points: 2
#     Edge 49, Type (0, 1), BuildingBlock: XUDNAN_clean_linker_2, # of connection points: 2
#     Edge 50, Type (0, 1), BuildingBlock: XUDNAN_clean_linker_2, # of connection points: 2
#     Edge 51, Type (0, 1), BuildingBlock: XUDNAN_clean_linker_2, # of connection points: 2
#     Edge 52, Type (0, 1), BuildingBlock: XUDNAN_clean_linker_2, # of connection points: 2
#     Edge 53, Type (0, 1), BuildingBlock: XUDNAN_clean_linker_2, # of connection points: 2
#     Edge 54, Type (0, 1), BuildingBlock: XUDNAN_clean_linker_2, # of connection points: 2
#     Edge 55, Type (0, 1), BuildingBlock: XUDNAN_clean_linker_2, # of connection points: 2
#     Edge 56, Type (0, 1), BuildingBlock: XUDNAN_clean_linker_2, # of connection points: 2
#     Edge 57, Type (0, 1), BuildingBlock: XUDNAN_clean_linker_2, # of connection points: 2
#     Edge 58, Type (0, 1), BuildingBlock: XUDNAN_clean_linker_2, # of connection points: 2
#     Edge 59, Type (0, 1), BuildingBlock: XUDNAN_clean_linker_2, # of connection points: 2
#     Edge 60, Type (0, 1), BuildingBlock: XUDNAN_clean_linker_2, # of connection points: 2
#     Edge 61, Type (0, 1), BuildingBlock: XUDNAN_clean_linker_2, # of connection points: 2
#     Edge 62, Type (0, 1), BuildingBlock: XUDNAN_clean_linker_2, # of connection points: 2
#     Edge 63, Type (0, 1), BuildingBlock: XUDNAN_clean_linker_2, # of connection points: 2
#     Edge 64, Type (0, 1), BuildingBlock: XUDNAN_clean_linker_2, # of connection points: 2
#     Edge 65, Type (0, 1), BuildingBlock: XUDNAN_clean_linker_2, # of connection points: 2
#     Edge 66, Type (0, 1), BuildingBlock: XUDNAN_clean_linker_2, # of connection points: 2
#     Edge 67, Type (0, 1), BuildingBlock: XUDNAN_clean_linker_2, # of connection points: 2
#     Edge 68, Type (0, 1), BuildingBlock: XUDNAN_clean_linker_2, # of connection points: 2
#     Edge 69, Type (0, 1), BuildingBlock: XUDNAN_clean_linker_2, # of connection points: 2
#     Edge 70, Type (0, 1), BuildingBlock: XUDNAN_clean_linker_2, # of connection points: 2
#     Edge 71, Type (0, 1), BuildingBlock: XUDNAN_clean_linker_2, # of connection points: 2
#     Edge 72, Type (0, 1), BuildingBlock: XUDNAN_clean_linker_2, # of connection points: 2
#     Edge 73, Type (0, 1), BuildingBlock: XUDNAN_clean_linker_2, # of connection points: 2
#     Edge 74, Type (0, 1), BuildingBlock: XUDNAN_clean_linker_2, # of connection points: 2
#     Edge 75, Type (0, 1), BuildingBlock: XUDNAN_clean_linker_2, # of connection points: 2
#     Edge 76, Type (0, 1), BuildingBlock: XUDNAN_clean_linker_2, # of connection points: 2
#     Edge 77, Type (0, 1), BuildingBlock: XUDNAN_clean_linker_2, # of connection points: 2
#     Edge 78, Type (0, 1), BuildingBlock: XUDNAN_clean_linker_2, # of connection points: 2
#     Edge 79, Type (0, 1), BuildingBlock: XUDNAN_clean_linker_2, # of connection points: 2
#     Edge 80, Type (0, 1), BuildingBlock: XUDNAN_clean_linker_2, # of connection points: 2
#     Edge 81, Type (0, 1), BuildingBlock: XUDNAN_clean_linker_2, # of connection points: 2
#     Edge 82, Type (0, 1), BuildingBlock: XUDNAN_clean_linker_2, # of connection points: 2
#     Edge 83, Type (0, 1), BuildingBlock: XUDNAN_clean_linker_2, # of connection points: 2
#     Edge 84, Type (0, 1), BuildingBlock: XUDNAN_clean_linker_2, # of connection points: 2
#     Edge 85, Type (0, 1), BuildingBlock: XUDNAN_clean_linker_2, # of connection points: 2
#     Edge 86, Type (0, 1), BuildingBlock: XUDNAN_clean_linker_2, # of connection points: 2
#     Edge 87, Type (0, 1), BuildingBlock: XUDNAN_clean_linker_2, # of connection points: 2
#     Edge 88, Type (0, 1), BuildingBlock: XUDNAN_clean_linker_2, # of connection points: 2
#     Edge 89, Type (0, 1), BuildingBlock: XUDNAN_clean_linker_2, # of connection points: 2
#     Edge 90, Type (0, 1), BuildingBlock: XUDNAN_clean_linker_2, # of connection points: 2
#     Edge 91, Type (0, 1), BuildingBlock: XUDNAN_clean_linker_2, # of connection points: 2
#     Edge 92, Type (0, 1), BuildingBlock: XUDNAN_clean_linker_2, # of connection points: 2
#     Edge 93, Type (0, 1), BuildingBlock: XUDNAN_clean_linker_2, # of connection points: 2
#     Edge 94, Type (0, 1), BuildingBlock: XUDNAN_clean_linker_2, # of connection points: 2
#     Edge 95, Type (0, 1), BuildingBlock: XUDNAN_clean_linker_2, # of connection points: 2
#     Edge 96, Type (0, 1), BuildingBlock: XUDNAN_clean_linker_2, # of connection points: 2
#     Edge 97, Type (0, 1), BuildingBlock: XUDNAN_clean_linker_2, # of connection points: 2
#     Edge 98, Type (0, 1), BuildingBlock: XUDNAN_clean_linker_2, # of connection points: 2
#     Edge 99, Type (0, 1), BuildingBlock: XUDNAN_clean_linker_2, # of connection points: 2
#     Edge 100, Type (0, 1), BuildingBlock: XUDNAN_clean_linker_2, # of connection points: 2
#     Edge 101, Type (0, 1), BuildingBlock: XUDNAN_clean_linker_2, # of connection points: 2
#     Edge 102, Type (0, 1), BuildingBlock: XUDNAN_clean_linker_2, # of connection points: 2
#     Edge 103, Type (0, 1), BuildingBlock: XUDNAN_clean_linker_2, # of connection points: 2
#     Edge 104, Type (0, 1), BuildingBlock: XUDNAN_clean_linker_2, # of connection points: 2
#     Edge 105, Type (0, 1), BuildingBlock: XUDNAN_clean_linker_2, # of connection points: 2
#     Edge 106, Type (0, 1), BuildingBlock: XUDNAN_clean_linker_2, # of connection points: 2
#     Edge 107, Type (0, 1), BuildingBlock: XUDNAN_clean_linker_2, # of connection points: 2
#     Edge 108, Type (0, 1), BuildingBlock: XUDNAN_clean_linker_2, # of connection points: 2
#     Edge 109, Type (0, 1), BuildingBlock: XUDNAN_clean_linker_2, # of connection points: 2
#     Edge 110, Type (0, 1), BuildingBlock: XUDNAN_clean_linker_2, # of connection points: 2
#     Edge 111, Type (0, 1), BuildingBlock: XUDNAN_clean_linker_2, # of connection points: 2
#     Edge 112, Type (0, 1), BuildingBlock: XUDNAN_clean_linker_2, # of connection points: 2
#     Edge 113, Type (0, 1), BuildingBlock: XUDNAN_clean_linker_2, # of connection points: 2
#     Edge 114, Type (0, 1), BuildingBlock: XUDNAN_clean_linker_2, # of connection points: 2
#     Edge 115, Type (0, 1), BuildingBlock: XUDNAN_clean_linker_2, # of connection points: 2
#     Edge 116, Type (0, 1), BuildingBlock: XUDNAN_clean_linker_2, # of connection points: 2
#     Edge 117, Type (0, 1), BuildingBlock: XUDNAN_clean_linker_2, # of connection points: 2
#     Edge 118, Type (0, 1), BuildingBlock: XUDNAN_clean_linker_2, # of connection points: 2
#     Edge 119, Type (0, 1), BuildingBlock: XUDNAN_clean_linker_2, # of connection points: 2
#     Edge 120, Type (0, 1), BuildingBlock: XUDNAN_clean_linker_2, # of connection points: 2
#     Edge 121, Type (0, 1), BuildingBlock: XUDNAN_clean_linker_2, # of connection points: 2
#     Edge 122, Type (0, 1), BuildingBlock: XUDNAN_clean_linker_2, # of connection points: 2
#     Edge 123, Type (0, 1), BuildingBlock: XUDNAN_clean_linker_2, # of connection points: 2
#     Edge 124, Type (0, 1), BuildingBlock: XUDNAN_clean_linker_2, # of connection points: 2
#     Edge 125, Type (0, 1), BuildingBlock: XUDNAN_clean_linker_2, # of connection points: 2
#     Edge 126, Type (0, 1), BuildingBlock: XUDNAN_clean_linker_2, # of connection points: 2
#     Edge 127, Type (0, 1), BuildingBlock: XUDNAN_clean_linker_2, # of connection points: 2
#     Edge 128, Type (0, 1), BuildingBlock: XUDNAN_clean_linker_2, # of connection points: 2
#     Edge 129, Type (0, 1), BuildingBlock: XUDNAN_clean_linker_2, # of connection points: 2
#     Edge 130, Type (0, 1), BuildingBlock: XUDNAN_clean_linker_2, # of connection points: 2
#     Edge 131, Type (0, 1), BuildingBlock: XUDNAN_clean_linker_2, # of connection points: 2
#     Edge 132, Type (0, 1), BuildingBlock: XUDNAN_clean_linker_2, # of connection points: 2
#     Edge 133, Type (0, 1), BuildingBlock: XUDNAN_clean_linker_2, # of connection points: 2
#     Edge 134, Type (0, 1), BuildingBlock: XUDNAN_clean_linker_2, # of connection points: 2
#     Edge 135, Type (0, 1), BuildingBlock: XUDNAN_clean_linker_2, # of connection points: 2
# Relax obj value: 0.110
# Max RMSD: 0.176
# Mean RMSD: 0.129
data_MOF--net-iac--node1-TATPOV_clean_sbu_0--node2-CIFDUS_clean_sbu_1--edge1-XUDNAN_clean_linker_2
_symmetry_space_group_name_H-M    P1
_symmetry_Int_Tables_number       1
_symmetry_cell_setting            triclinic
loop_
_symmetry_equiv_pos_as_xyz
'x, y, z'
_cell_length_a     54.393114
_cell_length_b     54.109702
_cell_length_c     54.783507
_cell_angle_alpha  90.275603
_cell_angle_beta   90.342042
_cell_angle_gamma 91.662635
loop_
_atom_site_label
_atom_site_type_symbol
_atom_site_fract_x
_atom_site_fract_y
_atom_site_fract_z
_atom_type_partial_charge
Zn0 Zn 0.03202 0.25592 0.09294 0.0
Zn1 Zn 0.98996 0.24413 0.11639 0.0
O2 O 0.98536 0.27901 0.10177 0.0
O3 O 0.01862 0.28783 0.0805 0.0
O4 O 0.95574 0.23874 0.13035 0.0
O5 O 0.02832 0.2253 0.07213 0.0
O6 O -0.00535 0.21492 0.09236 0.0
C7 C -0.00253 0.29349 0.08773 0.0
C8 C 0.03805 0.2456 0.14512 0.0
O9 O 0.01485 0.2414 0.1449 0.0
O10 O 0.0491 0.25278 0.12599 0.0
C11 C 0.94841 0.25377 0.14652 0.0
O12 O 0.96405 0.2705 0.15541 0.0
C13 C 0.01071 0.21011 0.07621 0.0
Zn14 Zn 0.9715 0.73803 0.41173 0.0
Zn15 Zn 0.00343 0.74472 0.37762 0.0
O16 O 0.00014 0.7779 0.395 0.0
O17 O 0.98197 0.76831 0.4296 0.0
O18 O 0.03069 0.74934 0.35364 0.0
O19 O 0.98368 0.7052 0.42056 0.0
O20 O 0.01478 0.71445 0.39634 0.0
C21 C 0.9916 0.78429 0.41559 0.0
C22 C 0.95077 0.73962 0.36381 0.0
O23 O 0.97296 0.73792 0.35697 0.0
O24 O 0.94548 0.74161 0.38615 0.0
C25 C 0.03118 0.76096 0.33353 0.0
O26 O 0.01194 0.77325 0.32646 0.0
C27 C 0.00436 0.70027 0.41179 0.0
Zn28 Zn 0.49056 0.71122 0.65057 0.0
Zn29 Zn 0.49734 0.75042 0.62139 0.0
O30 O 0.46041 0.74955 0.63007 0.0
O31 O 0.45401 0.71688 0.65323 0.0
O32 O 0.49901 0.784 0.6044 0.0
O33 O 0.51564 0.72375 0.67495 0.0
O34 O 0.52286 0.75489 0.64991 0.0
C35 C 0.44593 0.73549 0.64222 0.0
C36 C 0.50953 0.69912 0.60237 0.0
O37 O 0.50718 0.72204 0.59737 0.0
O38 O 0.50381 0.69089 0.62323 0.0
C39 C 0.49191 0.78928 0.58288 0.0
O40 O 0.48485 0.7714 0.56788 0.0
C41 C 0.52794 0.74308 0.66937 0.0
Zn42 Zn 0.47278 0.24814 0.9052 0.0
Zn43 Zn 0.49834 0.24645 0.86731 0.0
O44 O 0.50664 0.27901 0.88593 0.0
O45 O 0.49299 0.27283 0.92301 0.0
O46 O 0.52414 0.24628 0.84046 0.0
O47 O 0.47498 0.21382 0.91506 0.0
O48 O 0.5014 0.21254 0.88477 0.0
C49 C 0.5041 0.28647 0.9078 0.0
C50 C 0.44516 0.25703 0.86157 0.0
O51 O 0.46455 0.24987 0.85097 0.0
O52 O 0.44465 0.25931 0.88456 0.0
C53 C 0.53184 0.2665 0.83098 0.0
O54 O 0.52174 0.28722 0.83763 0.0
C55 C 0.49052 0.20225 0.90284 0.0
Zn56 Zn 0.08939 0.0247 0.25176 0.0
Zn57 Zn 0.11763 0.99309 0.24584 0.0
O58 O 0.10343 0.98533 0.28044 0.0
O59 O 0.08795 0.02151 0.28797 0.0
O60 O 0.13678 0.96183 0.2395 0.0
O61 O 0.0616 0.01322 0.2309 0.0
O62 O 0.09214 0.99214 0.21641 0.0
C63 C 0.09402 0.00047 0.29536 0.0
C64 C 0.13429 0.04711 0.24195 0.0
O65 O 0.1412 0.02533 0.24726 0.0
O66 O 0.11175 0.05048 0.23801 0.0
C67 C 0.14949 0.95075 0.25548 0.0
O68 O 0.15377 0.96144 0.27672 0.0
C69 C 0.07026 -2e-05 0.21417 0.0
Zn70 Zn 0.26716 0.83876 0.48137 0.0
Zn71 Zn 0.23542 0.87252 0.49709 0.0
O72 O 0.22301 0.86453 0.46245 0.0
O73 O 0.24712 0.83431 0.45179 0.0
O74 O 0.21149 0.89785 0.50792 0.0
O75 O 0.26052 0.8176 0.51002 0.0
O76 O 0.23294 0.84415 0.52195 0.0
C77 C 0.22943 0.84822 0.44727 0.0
C78 C 0.28945 0.88579 0.49134 0.0
O79 O 0.26824 0.89129 0.49882 0.0
O80 O 0.29351 0.86483 0.48222 0.0
C81 C 0.20546 0.91411 0.49246 0.0
O82 O 0.21541 0.91406 0.47068 0.0
C83 C 0.24423 0.824 0.52493 0.0
Zn84 Zn 0.40276 0.96711 0.73368 0.0
Zn85 Zn 0.37739 0.00596 0.7407 0.0
O86 O 0.39342 0.00511 0.7743 0.0
O87 O 0.40729 0.96745 0.77033 0.0
O88 O 0.35497 0.03473 0.74169 0.0
O89 O 0.42608 0.98312 0.71038 0.0
O90 O 0.40012 0.01352 0.71128 0.0
C91 C 0.40253 0.98591 0.78361 0.0
C92 C 0.35399 0.95488 0.7293 0.0
O93 O 0.35323 0.9764 0.73862 0.0
O94 O 0.37393 0.9472 0.72078 0.0
C95 C 0.33857 0.03657 0.75799 0.0
O96 O 0.33678 0.01971 0.77511 0.0
C97 C 0.41886 0.00343 0.70206 0.0
Zn98 Zn 0.22723 0.1622 -0.00052 0.0
Zn99 Zn 0.25591 0.1236 -0.00664 0.0
O100 O 0.26194 0.14567 0.9628 0.0
O101 O 0.24039 0.17886 0.96952 0.0
O102 O 0.28319 0.09859 0.99007 0.0
O103 O 0.24166 0.17131 0.03182 0.0
O104 O 0.26551 0.13937 0.02723 0.0
C105 C 0.25519 0.1671 0.95645 0.0
C106 C 0.20023 0.11473 -0.0035 0.0
O107 O 0.2213 0.10512 -0.00617 0.0
O108 O 0.19854 0.13793 -0.00132 0.0
C109 C 0.29079 0.08899 0.97032 0.0
O110 O 0.27884 0.09288 0.94985 0.0
C111 C 0.25837 0.15774 0.03977 0.0
Zn112 Zn 0.76998 0.34015 -0.00261 0.0
Zn113 Zn 0.73847 0.37212 0.00129 0.0
O114 O 0.73311 0.35929 0.96611 0.0
O115 O 0.75373 0.32522 0.96915 0.0
O116 O 0.71203 0.39645 0.00678 0.0
O117 O 0.7652 0.32366 0.02864 0.0
O118 O 0.73277 0.34721 0.02926 0.0
C119 C 0.74003 0.33901 0.95695 0.0
C120 C 0.79179 0.38734 -0.00143 0.0
O121 O 0.77021 0.39297 0.00492 0.0
O122 O 0.79648 0.36551 -0.00768 0.0
C123 C 0.70202 0.40925 -0.00972 0.0
O124 O 0.7089 0.40681 0.96747 0.0
C125 C 0.74522 0.32977 0.03813 0.0
Zn126 Zn 0.90909 0.46703 0.24076 0.0
Zn127 Zn 0.87863 0.50329 0.23776 0.0
O128 O 0.88953 0.50838 0.2734 0.0
O129 O 0.91091 0.47459 0.27657 0.0
O130 O 0.85486 0.53038 0.2309 0.0
O131 O 0.93304 0.48172 0.21717 0.0
O132 O 0.90484 0.50931 0.21086 0.0
C133 C 0.90127 0.49317 0.28637 0.0
C134 C 0.86174 0.44843 0.23277 0.0
O135 O 0.85756 0.47129 0.23594 0.0
O136 O 0.8836 0.44141 0.23062 0.0
C137 C 0.84228 0.54194 0.24653 0.0
O138 O 0.8439 0.5361 0.26972 0.0
C139 C 0.92548 0.50013 0.20551 0.0
Zn140 Zn 0.72474 0.66146 0.49707 0.0
Zn141 Zn 0.75322 0.62203 0.49207 0.0
O142 O 0.7627 0.64458 0.46306 0.0
O143 O 0.74041 0.67764 0.46742 0.0
O144 O 0.78 0.59702 0.49103 0.0
O145 O 0.73856 0.6694 0.53034 0.0
O146 O 0.75848 0.63467 0.52765 0.0
C147 C 0.75639 0.66583 0.45583 0.0
C148 C 0.69818 0.61378 0.48851 0.0
O149 O 0.71948 0.6047 0.48638 0.0
O150 O 0.69586 0.6365 0.49358 0.0
C151 C 0.78798 0.58533 0.47266 0.0
O152 O 0.7766 0.5869 0.45153 0.0
C153 C 0.75231 0.65359 0.53983 0.0
Zn154 Zn 0.58924 0.52965 0.74749 0.0
Zn155 Zn 0.61954 0.49233 0.74432 0.0
O156 O 0.60258 0.48579 0.77712 0.0
O157 O 0.57788 0.51722 0.78037 0.0
O158 O 0.6382 0.46046 0.74032 0.0
O159 O 0.57075 0.52157 0.71701 0.0
O160 O 0.59591 0.49051 0.71406 0.0
C161 C 0.58661 0.49761 0.78891 0.0
C162 C 0.63991 0.54605 0.74664 0.0
O163 O 0.6444 0.52294 0.74689 0.0
O164 O 0.61798 0.55311 0.74589 0.0
C165 C 0.65387 0.45142 0.75489 0.0
O166 O 0.66167 0.46445 0.77384 0.0
C167 C 0.578 0.50277 0.70571 0.0
Zn168 Zn 0.96359 0.74174 0.89807 0.0
Zn169 Zn 0.00441 0.74751 0.8706 0.0
O170 O 0.00179 0.78054 0.88883 0.0
O171 O 0.97017 0.77564 0.91349 0.0
O172 O 0.03802 0.74921 0.85537 0.0
O173 O 0.9757 0.71016 0.91332 0.0
O174 O 0.00809 0.7151 0.88979 0.0
C175 C 0.9874 0.78916 0.90486 0.0
C176 C 0.95537 0.74412 0.84476 0.0
O177 O 0.97865 0.74681 0.84308 0.0
O178 O 0.94523 0.741 0.86536 0.0
C179 C 0.0432 0.73781 0.83582 0.0
O180 O 0.02554 0.72652 0.82324 0.0
C181 C -0.00386 0.70277 0.90572 0.0
Zn182 Zn 0.02838 0.24915 0.59421 0.0
Zn183 Zn 0.99029 0.24608 0.62333 0.0
O184 O 0.98469 0.27653 0.60166 0.0
O185 O 0.01303 0.27407 0.57321 0.0
O186 O 0.96199 0.24562 0.64683 0.0
O187 O 0.02266 0.21317 0.58722 0.0
O188 O 0.98714 0.2128 0.60632 0.0
C189 C -0.00571 0.28415 0.58179 0.0
C190 C 0.04305 0.25207 0.64259 0.0
O191 O 0.02055 0.24577 0.64536 0.0
O192 O 0.05095 0.25863 0.62188 0.0
C193 C 0.96202 0.26036 0.66497 0.0
O194 O 0.98055 0.27625 0.66786 0.0
C195 C 0.00315 0.20182 0.59376 0.0
Zn196 Zn 0.45717 0.24183 0.39542 0.0
Zn197 Zn 0.49727 0.25409 0.37001 0.0
O198 O 0.4939 0.2851 0.39209 0.0
O199 O 0.45888 0.27606 0.41053 0.0
O200 O 0.52949 0.25797 0.35142 0.0
O201 O 0.47289 0.21271 0.4117 0.0
O202 O 0.50297 0.21969 0.38579 0.0
C203 C 0.47644 0.29129 0.4062 0.0
C204 C 0.44786 0.24668 0.34396 0.0
O205 O 0.47003 0.25475 0.34399 0.0
O206 O 0.43839 0.23778 0.36321 0.0
C207 C 0.53033 0.25823 0.3282 0.0
O208 O 0.50975 0.25941 0.31569 0.0
C209 C 0.49289 0.2063 0.40223 0.0
Zn210 Zn 0.50464 0.71691 0.16702 0.0
Zn211 Zn 0.50124 0.74376 0.13146 0.0
O212 O 0.46716 0.74665 0.14831 0.0
O213 O 0.46907 0.71326 0.17086 0.0
O214 O 0.50282 0.76868 0.10445 0.0
O215 O 0.52419 0.74133 0.18732 0.0
O216 O 0.53337 0.75137 0.15001 0.0
C217 C 0.45676 0.73044 0.16194 0.0
C218 C 0.51566 0.69161 0.12415 0.0
O219 O 0.50509 0.71019 0.11498 0.0
O220 O 0.5208 0.69133 0.14668 0.0
C221 C 0.48459 0.77557 0.09192 0.0
O222 O 0.46261 0.76596 0.09629 0.0
C223 C 0.5396 0.75013 0.17234 0.0
Zn224 Zn 0.90528 0.96636 0.74068 0.0
Zn225 Zn 0.87626 0.00441 0.74121 0.0
O226 O 0.90234 0.00949 0.76887 0.0
O227 O 0.92815 0.97899 0.76662 0.0
O228 O 0.85655 0.03518 0.7473 0.0
O229 O 0.91086 0.97256 0.70497 0.0
O230 O 0.88907 0.00627 0.70526 0.0
C231 C 0.92129 -0.00138 0.77674 0.0
C232 C 0.85594 0.95203 0.75218 0.0
O233 O 0.85177 0.9746 0.74724 0.0
O234 O 0.87755 0.94413 0.75146 0.0
C235 C 0.83648 0.04254 0.73822 0.0
O236 O 0.82474 0.02919 0.72155 0.0
C237 C 0.90232 0.99094 0.69386 0.0
Zn238 Zn 0.71601 0.15117 0.49236 0.0
Zn239 Zn 0.7478 0.12209 0.49414 0.0
O240 O 0.75789 0.14918 0.46888 0.0
O241 O 0.73564 0.18005 0.48101 0.0
O242 O 0.77517 0.09824 0.49583 0.0
O243 O 0.70802 0.1486 0.52751 0.0
O244 O 0.74481 0.13307 0.52976 0.0
C245 C 0.75223 0.1719 0.46742 0.0
C246 C 0.69948 0.10831 0.47129 0.0
O247 O 0.71769 0.10117 0.48382 0.0
O248 O 0.69681 0.13111 0.46781 0.0
C249 C 0.78357 0.08693 0.47749 0.0
O250 O 0.77461 0.09129 0.45566 0.0
C251 C 0.72595 0.14153 0.54015 0.0
Zn252 Zn 0.58535 0.03762 0.23378 0.0
Zn253 Zn 0.61891 0.98913 0.24263 0.0
O254 O 0.59599 0.98543 0.27122 0.0
O255 O 0.57498 0.0193 0.26514 0.0
O256 O 0.64086 0.95972 0.24387 0.0
O257 O 0.60699 0.02636 0.20533 0.0
O258 O 0.59967 0.98706 0.20971 0.0
C259 C 0.57945 0.00022 0.27764 0.0
C260 C 0.63962 0.04055 0.23754 0.0
O261 O 0.64065 0.02049 0.24939 0.0
O262 O 0.62167 0.04401 0.22311 0.0
C263 C 0.65878 0.95936 0.25886 0.0
O264 O 0.66312 0.97863 0.27309 0.0
C265 C 0.59936 0.00609 0.19627 0.0
Zn266 Zn 0.76275 0.82792 0.00632 0.0
Zn267 Zn 0.73166 0.86592 0.00983 0.0
O268 O 0.72503 0.85045 0.97551 0.0
O269 O 0.75087 0.81998 0.97218 0.0
O270 O 0.70501 0.89093 0.01138 0.0
O271 O 0.74591 0.8123 0.03616 0.0
O272 O 0.72344 0.84528 0.03978 0.0
C273 C 0.7341 0.83291 0.96319 0.0
C274 C 0.78716 0.8766 0.01276 0.0
O275 O 0.76531 0.88463 0.01349 0.0
O276 O 0.79078 0.85372 0.00994 0.0
C277 C 0.70583 0.90849 -0.00382 0.0
O278 O 0.725 0.91067 0.98178 0.0
C279 C 0.72993 0.82437 0.04754 0.0
Zn280 Zn 0.22678 0.66316 -0.00908 0.0
Zn281 Zn 0.25475 0.62551 -0.00632 0.0
O282 O 0.26282 0.64576 0.96308 0.0
O283 O 0.24641 0.68222 0.96673 0.0
O284 O 0.28022 0.59959 -0.00624 0.0
O285 O 0.23035 0.66889 0.02644 0.0
O286 O 0.25876 0.64081 0.02747 0.0
C287 C 0.2595 0.66747 0.95497 0.0
C288 C 0.20188 0.6165 0.98268 0.0
O289 O 0.22179 0.60759 -0.00949 0.0
O290 O 0.20021 0.63947 0.97907 0.0
C291 C 0.27837 0.57807 0.98441 0.0
O292 O 0.25786 0.5709 0.97337 0.0
C293 C 0.24614 0.65696 0.03816 0.0
Zn294 Zn 0.08235 0.5186 0.74495 0.0
Zn295 Zn 0.12017 0.48977 0.74414 0.0
O296 O 0.0983 0.48023 0.77409 0.0
O297 O 0.06493 0.5022 0.77265 0.0
O298 O 0.14594 0.46364 0.74503 0.0
O299 O 0.07519 0.51122 0.70976 0.0
O300 O 0.10651 0.4864 0.70908 0.0
C301 C 0.07766 0.48617 0.78313 0.0
C302 C 0.12909 0.54443 0.7524 0.0
O303 O 0.13845 0.52343 0.74855 0.0
O304 O 0.10598 0.54657 0.7527 0.0
C305 C 0.15759 0.46028 0.76483 0.0
O306 O 0.15363 0.47506 0.78341 0.0
C307 C 0.08899 0.49694 0.69813 0.0
Zn308 Zn 0.25834 0.33701 0.506 0.0
Zn309 Zn 0.22948 0.37598 0.50737 0.0
O310 O 0.22629 0.36065 0.47237 0.0
O311 O 0.24571 0.32553 0.47297 0.0
O312 O 0.20137 0.39961 0.50804 0.0
O313 O 0.24383 0.32301 0.5373 0.0
O314 O 0.22178 0.35637 0.53876 0.0
C315 C 0.23273 0.34085 0.46173 0.0
C316 C 0.28376 0.38623 0.51081 0.0
O317 O 0.26227 0.39501 0.51191 0.0
O318 O 0.2866 0.36321 0.50772 0.0
C319 C 0.201 0.42272 0.50413 0.0
O320 O 0.22149 0.43479 0.49856 0.0
C321 C 0.2285 0.33622 0.54825 0.0
Zn322 Zn 0.41187 0.46238 0.23686 0.0
Zn323 Zn 0.37867 0.49927 0.23366 0.0
O324 O 0.3986 0.50679 0.26533 0.0
O325 O 0.42311 0.47527 0.26942 0.0
O326 O 0.35602 0.52847 0.22995 0.0
O327 O 0.42835 0.47578 0.20643 0.0
O328 O 0.39905 0.50277 0.20237 0.0
C329 C 0.41481 0.49532 0.2774 0.0
C330 C 0.36122 0.44476 0.23758 0.0
O331 O 0.35626 0.46767 0.23657 0.0
O332 O 0.38322 0.43783 0.23669 0.0
C333 C 0.34931 0.54088 0.24838 0.0
O334 O 0.35556 0.53343 0.27028 0.0
C335 C 0.41863 0.49312 0.19472 0.0
O336 O 0.02423 0.01898 -0.00847 0.0
Mn337 Mn 0.99131 -0.0022 -0.00436 0.0
O338 O 0.05542 0.99257 0.98946 0.0
Mn339 Mn 0.03731 0.96569 0.00114 0.0
O340 O 0.95845 0.97642 0.00091 0.0
O341 O 0.97444 0.02892 0.00447 0.0
Mn342 Mn 0.94488 0.02995 -0.00849 0.0
O343 O 0.9825 0.00309 0.95879 0.0
O344 O 0.92776 0.00332 0.00462 0.0
O345 O 5e-05 0.99299 0.03249 0.0
O346 O 0.03123 0.96659 0.03445 0.0
O347 O 0.94981 0.0593 0.00853 0.0
O348 O 0.9506 0.02902 0.95818 0.0
C349 C 0.01281 0.9456 0.97704 0.0
C350 C 0.04719 0.01435 0.98861 0.0
C351 C 0.93595 0.98155 0.00572 0.0
C352 C 0.97134 0.05081 0.01295 0.0
C353 C 0.96688 0.01642 0.94748 0.0
C354 C 0.01547 0.98023 0.04467 0.0
O355 O 0.00834 0.96673 0.9867 0.0
O356 O 0.03382 0.93684 0.9832 0.0
O357 O 0.28342 0.7495 0.24402 0.0
Mn358 Mn 0.24575 0.74624 0.24945 0.0
O359 O 0.29118 0.78162 0.21929 0.0
Mn360 Mn 0.25933 0.78186 0.20748 0.0
O361 O 0.20771 0.74306 0.25455 0.0
O362 O 0.25225 0.71257 0.2652 0.0
Mn363 Mn 0.23489 0.71329 0.29222 0.0
O364 O 0.24918 0.7659 0.28195 0.0
O365 O 0.20209 0.71567 0.28461 0.0
O366 O 0.24273 0.72748 0.2169 0.0
O367 O 0.25105 0.75523 0.18722 0.0
O368 O 0.24847 0.68339 0.29326 0.0
O369 O 0.24788 0.73797 0.31178 0.0
C370 C 0.23135 0.8002 0.22703 0.0
C371 C 0.2984 0.76411 0.23272 0.0
C372 C 0.19367 0.73042 0.26884 0.0
C373 C 0.25832 0.69069 0.27293 0.0
C374 C 0.25041 0.76013 0.30451 0.0
C375 C 0.24548 0.73343 0.19453 0.0
O376 O 0.23987 0.77894 0.23299 0.0
O377 O 0.24132 0.81007 0.20789 0.0
O378 O 0.46297 0.97803 0.4876 0.0
Mn379 Mn 0.49444 0.00017 0.49037 0.0
O380 O 0.4322 0.00204 0.47567 0.0
Mn381 Mn 0.44739 0.03094 0.48681 0.0
O382 O 0.52565 0.02273 0.49341 0.0
O383 O 0.51147 0.96987 0.50321 0.0
Mn384 Mn 0.54181 0.97109 0.49164 0.0
O385 O 0.50425 0.99097 0.45517 0.0
O386 O 0.55678 -0.00079 0.50466 0.0
O387 O 0.48405 0.01017 0.52553 0.0
O388 O 0.45089 0.03401 0.52048 0.0
O389 O 0.53952 0.94239 0.50914 0.0
O390 O 0.53943 0.97036 0.4576 0.0
C391 C 0.47447 0.05046 0.4656 0.0
C392 C 0.44088 0.98099 0.48031 0.0
C393 C 0.54779 0.02024 0.50072 0.0
C394 C 0.51712 0.94887 0.51285 0.0
C395 C 0.52226 0.98005 0.4452 0.0
C396 C 0.46704 0.02391 0.53389 0.0
O397 O 0.47777 0.02972 0.47653 0.0
O398 O 0.45237 0.05843 0.46747 0.0
O399 O 0.27512 0.25458 0.76708 0.0
Mn400 Mn 0.24133 0.24542 0.75094 0.0
O401 O 0.30371 0.25065 0.73765 0.0
Mn402 Mn 0.2829 0.23803 0.71343 0.0
O403 O 0.20794 0.23604 0.73411 0.0
O404 O 0.22801 0.23779 0.78401 0.0
Mn405 Mn 0.1973 0.24629 0.78666 0.0
O406 O 0.23067 0.28203 0.75466 0.0
O407 O 0.18064 0.2272 0.76357 0.0
O408 O 0.25123 0.20851 0.74841 0.0
O409 O 0.27596 0.20446 0.71614 0.0
O410 O 0.20623 0.23364 0.81666 0.0
O411 O 0.19907 0.28028 0.78145 0.0
C412 C 0.25668 0.26107 0.69581 0.0
C413 C 0.29745 0.25566 0.75952 0.0
C414 C 0.18716 0.2271 0.74133 0.0
C415 C 0.22739 0.23115 0.80648 0.0
C416 C 0.21406 0.29225 0.76764 0.0
C417 C 0.26356 0.1952 0.7337 0.0
O418 O 0.25484 0.25289 0.71778 0.0
O419 O 0.27642 0.25455 0.68473 0.0
O420 O 0.98721 0.96652 0.46512 0.0
Mn421 Mn -0.00647 -0.00519 0.48994 0.0
O422 O -0.00724 0.93097 0.48517 0.0
Mn423 Mn 0.00311 0.94524 0.51425 0.0
O424 O -0.00143 0.02383 0.51428 0.0
O425 O 0.00136 0.01681 0.46173 0.0
Mn426 Mn 0.98541 0.04444 0.46284 0.0
O427 O 0.95625 0.00245 0.48773 0.0
O428 O -0.00472 0.05883 0.49224 0.0
O429 O 0.0313 0.9882 0.49219 0.0
O430 O 0.03562 0.9554 0.51659 0.0
O431 O 0.00539 0.04609 0.43546 0.0
O432 O 0.9526 0.03408 0.46144 0.0
C433 C 0.97703 0.96132 0.5379 0.0
C434 C 0.98702 0.94298 0.46617 0.0
C435 C -0.00095 0.04741 0.5122 0.0
C436 C 0.01213 0.02443 0.44222 0.0
C437 C 0.94326 0.01711 0.47493 0.0
C438 C 0.04455 0.97362 0.50473 0.0
O439 O 0.98553 0.97198 0.51836 0.0
O440 O 0.98551 0.9396 0.54202 0.0
O441 O 0.26719 0.78122 0.7459 0.0
Mn442 Mn 0.24868 0.74723 0.74019 0.0
O443 O 0.23817 0.80965 0.75085 0.0
Mn444 Mn 0.21327 0.79064 0.73685 0.0
O445 O 0.23078 0.71346 0.73542 0.0
O446 O 0.28044 0.7328 0.72899 0.0
Mn447 Mn 0.28633 0.70606 0.74572 0.0
O448 O 0.25445 0.73742 0.77668 0.0
O449 O 0.25938 0.68447 0.74038 0.0
O450 O 0.24234 0.75595 0.70408 0.0
O451 O 0.2149 0.78619 0.70335 0.0
O452 O 0.31156 0.70904 0.7237 0.0
O453 O 0.29005 0.71772 0.77712 0.0
C454 C 0.19436 0.76387 0.75854 0.0
C455 C 0.26039 0.80304 0.75161 0.0
C456 C 0.2372 0.69088 0.73691 0.0
C457 C 0.30011 0.72845 0.71677 0.0
C458 C 0.27192 0.7269 0.7881 0.0
C459 C 0.22867 0.77093 0.69259 0.0
O460 O 0.21617 0.76118 0.74986 0.0
O461 O 0.18439 0.78459 0.75314 0.0
O462 O 0.47172 0.97436 0.96245 0.0
Mn463 Mn 0.4917 0.98663 -0.00743 0.0
O464 O 0.48994 -0.00034 0.93693 0.0
Mn465 Mn 0.51856 0.00072 0.95536 0.0
O466 O 0.51026 -0.00177 0.02414 0.0
O467 O 0.45862 0.99302 0.00793 0.0
Mn468 Mn 0.45755 0.97858 0.03667 0.0
O469 O 0.49167 0.95011 0.00474 0.0
O470 O 0.48281 0.99346 0.05468 0.0
O471 O 0.49019 0.0242 0.98098 0.0
O472 O 0.52725 0.03078 0.96806 0.0
O473 O 0.42803 -0.00608 0.03337 0.0
O474 O 0.46035 0.94509 0.0309 0.0
C475 C 0.544 0.97604 0.96067 0.0
C476 C 0.47203 0.98555 0.94221 0.0
C477 C 0.50395 -4e-05 0.04661 0.0
C478 C 0.43678 0.00082 0.0125 0.0
C479 C 0.47759 0.93643 0.01808 0.0
C480 C 0.50726 0.03953 0.97443 0.0
O481 O 0.52685 0.97841 0.97773 0.0
O482 O 0.54135 0.98596 0.93934 0.0
O483 O 0.27966 0.25473 0.2529 0.0
Mn484 Mn 0.24137 0.2497 0.24747 0.0
O485 O 0.28998 0.22651 0.28113 0.0
Mn486 Mn 0.2587 0.21907 0.29207 0.0
O487 O 0.20307 0.24337 0.24244 0.0
O488 O 0.24148 0.28254 0.22917 0.0
Mn489 Mn 0.22178 0.2775 0.20362 0.0
O490 O 0.24909 0.23049 0.21518 0.0
O491 O 0.19045 0.27013 0.21431 0.0
O492 O 0.23499 0.26895 0.28023 0.0
O493 O 0.2444 0.24331 0.31111 0.0
O494 O 0.23223 0.30952 0.20095 0.0
O495 O 0.23656 0.25427 0.18419 0.0
C496 C 0.23539 0.19472 0.27038 0.0
C497 C 0.29571 0.24296 0.26538 0.0
C498 C 0.18595 0.25352 0.23006 0.0
C499 C 0.24491 0.30472 0.22037 0.0
C500 C 0.24712 0.23529 0.19232 0.0
C501 C 0.23651 0.26378 0.30315 0.0
O502 O 0.24119 0.21733 0.26514 0.0
O503 O 0.24546 0.18717 0.29032 0.0
O504 O 0.49012 0.47079 0.96752 0.0
Mn505 Mn 0.49514 0.50228 0.98914 0.0
O506 O 0.48162 0.43903 -0.00732 0.0
Mn507 Mn 0.49636 0.45387 0.01959 0.0
O508 O 0.50119 0.53384 0.0105 0.0
O509 O 0.50365 0.52113 0.95889 0.0
Mn510 Mn 0.48938 0.54995 0.95829 0.0
O511 O 0.45826 0.51011 0.98457 0.0
O512 O 0.50207 0.56658 0.98523 0.0
O513 O 0.53175 0.49334 -0.00567 0.0
O514 O 0.53026 0.45899 0.01793 0.0
O515 O 0.50715 0.54774 0.92966 0.0
O516 O 0.45578 0.54277 0.9594 0.0
C517 C 0.47803 0.48079 0.04121 0.0
C518 C 0.48358 0.44819 0.97139 0.0
C519 C 0.5047 0.55702 0.00628 0.0
C520 C 0.51285 0.52629 0.93791 0.0
C521 C 0.44593 0.52555 0.97218 0.0
C522 C 0.54203 0.47618 0.00657 0.0
O523 O 0.48578 0.484 0.01933 0.0
O524 O 0.48069 0.45856 0.04913 0.0
O525 O 0.76376 0.28519 0.25906 0.0
Mn526 Mn 0.74593 0.25064 0.25211 0.0
O527 O 0.73425 0.31082 0.26958 0.0
Mn528 Mn 0.71169 0.29382 0.25075 0.0
O529 O 0.72893 0.21634 0.24551 0.0
O530 O 0.77924 0.23786 0.2427 0.0
Mn531 Mn 0.78268 0.20869 0.25635 0.0
O532 O 0.7512 0.24152 0.28865 0.0
O533 O 0.7582 0.18801 0.24347 0.0
O534 O 0.74039 0.25972 0.21614 0.0
O535 O 0.71712 0.29352 0.21731 0.0
O536 O 0.81123 0.21457 0.23952 0.0
O537 O 0.78109 0.21362 0.28961 0.0
C538 C 0.68904 0.26621 0.26643 0.0
C539 C 0.75676 0.30575 0.26821 0.0
C540 C 0.73585 0.19417 0.24174 0.0
C541 C 0.80075 0.23477 0.23325 0.0
C542 C 0.76575 0.22736 0.30021 0.0
C543 C 0.72908 0.27725 0.2058 0.0
O544 O 0.7118 0.26279 0.26036 0.0
O545 O 0.68102 0.28819 0.26271 0.0
O546 O 0.96476 0.48823 0.46542 0.0
Mn547 Mn 0.99106 0.49136 0.49319 0.0
O548 O 0.98086 0.46634 0.43505 0.0
Mn549 Mn 0.0119 0.47953 0.4417 0.0
O550 O 0.01828 0.49476 0.52039 0.0
O551 O 0.96499 0.50799 0.51365 0.0
Mn552 Mn 0.96949 0.49875 0.54422 0.0
O553 O 0.97959 0.45774 0.50687 0.0
O554 O 0.00027 0.51056 0.55332 0.0
O555 O 0.00312 0.52434 0.47847 0.0
O556 O 0.01441 0.51404 0.43993 0.0
O557 O 0.94301 0.51892 0.54494 0.0
O558 O 0.96478 0.46443 0.54449 0.0
C559 C 0.03675 0.46503 0.46869 0.0
C560 C 0.96262 0.47634 0.44516 0.0
C561 C 0.01938 0.50458 0.54172 0.0
C562 C 0.94598 0.51965 0.52152 0.0
C563 C 0.97004 0.45003 0.52683 0.0
C564 C 0.01118 0.52978 0.45711 0.0
O565 O 0.01576 0.47431 0.47297 0.0
O566 O 0.0408 0.4623 0.44563 0.0
O567 O 0.78391 0.75431 0.26882 0.0
Mn568 Mn 0.75114 0.74914 0.24962 0.0
O569 O 0.8125 0.76629 0.24135 0.0
Mn570 Mn 0.79593 0.75399 0.21418 0.0
O571 O 0.7193 0.74311 0.22927 0.0
O572 O 0.73566 0.73593 0.2802 0.0
Mn573 Mn 0.70442 0.74381 0.28111 0.0
O574 O 0.73994 0.78419 0.25877 0.0
O575 O 0.6904 0.7279 0.25441 0.0
O576 O 0.76248 0.71397 0.24034 0.0
O577 O 0.79276 0.71955 0.21256 0.0
O578 O 0.71069 0.72706 0.30972 0.0
O579 O 0.70465 0.77838 0.27984 0.0
C580 C 0.76565 0.77377 0.19881 0.0
C581 C 0.80584 0.76142 0.26312 0.0
C582 C 0.69861 0.73215 0.23313 0.0
C583 C 0.73283 0.72607 0.30139 0.0
C584 C 0.72111 0.79231 0.26989 0.0
C585 C 0.7784 0.70569 0.22535 0.0
O586 O 0.76589 0.76284 0.21946 0.0
O587 O 0.78655 0.77327 0.18776 0.0
O588 O 0.78448 0.24655 0.74274 0.0
Mn589 Mn 0.74596 0.24719 0.74626 0.0
O590 O 0.79493 0.27516 0.71449 0.0
Mn591 Mn 0.76363 0.27896 0.70216 0.0
O592 O 0.70732 0.24987 0.74924 0.0
O593 O 0.74866 0.21414 0.76549 0.0
Mn594 Mn 0.72413 0.21865 0.78634 0.0
O595 O 0.75032 0.26832 0.77717 0.0
O596 O 0.6939 0.21845 0.77154 0.0
O597 O 0.74152 0.22673 0.71451 0.0
O598 O 0.75109 0.25273 0.68365 0.0
O599 O 0.73489 0.18931 0.79529 0.0
O600 O 0.73159 0.24563 0.8061 0.0
C601 C 0.73836 0.30119 0.72182 0.0
C602 C 0.8005 0.25949 0.73072 0.0
C603 C 0.68958 0.23667 0.75812 0.0
C604 C 0.75032 0.19327 0.77767 0.0
C605 C 0.7428 0.2652 0.7989 0.0
C606 C 0.74345 0.23178 0.69176 0.0
O607 O 0.7446 0.27921 0.72784 0.0
O608 O 0.74898 0.30943 0.70232 0.0
O609 O 0.78592 0.75255 0.75491 0.0
Mn610 Mn 0.74739 0.74965 0.74876 0.0
O611 O 0.79542 0.72313 0.7815 0.0
Mn612 Mn 0.76373 0.72005 0.79239 0.0
O613 O 0.70892 0.74797 0.74243 0.0
O614 O 0.75132 0.78281 0.73071 0.0
Mn615 Mn 0.7354 0.77696 0.70281 0.0
O616 O 0.75461 0.72828 0.71733 0.0
O617 O 0.70271 0.77153 0.70944 0.0
O618 O 0.74023 0.76963 0.78073 0.0
O619 O 0.75221 0.74539 0.81167 0.0
O620 O 0.74631 0.8085 0.69998 0.0
O621 O 0.75103 0.75327 0.68529 0.0
C622 C 0.73794 0.69518 0.77617 0.0
C623 C 0.80179 0.7398 0.76647 0.0
C624 C 0.69467 0.7585 0.72701 0.0
C625 C 0.75534 0.80489 0.72158 0.0
C626 C 0.75687 0.73278 0.69443 0.0
C627 C 0.74274 0.76502 0.8036 0.0
O628 O 0.74349 0.71684 0.767 0.0
O629 O 0.75002 0.68936 0.79567 0.0
O630 O 0.5208 0.52503 0.48731 0.0
Mn631 Mn 0.48809 0.50452 0.49435 0.0
O632 O 0.55145 0.49798 0.48816 0.0
Mn633 Mn 0.53245 0.47141 0.49855 0.0
O634 O 0.45538 0.48371 0.50158 0.0
O635 O 0.47293 0.53696 0.50389 0.0
Mn636 Mn 0.44229 0.53652 0.49311 0.0
O637 O 0.47716 0.50962 0.45811 0.0
O638 O 0.42582 0.51095 0.50859 0.0
O639 O 0.49841 0.49958 0.53113 0.0
O640 O 0.52609 0.46957 0.53141 0.0
O641 O 0.44711 0.56676 0.50769 0.0
O642 O 0.44459 0.53449 0.45948 0.0
C643 C 0.50935 0.45132 0.47401 0.0
C644 C 0.54355 0.51961 0.48499 0.0
C645 C 0.43357 0.48903 0.50852 0.0
C646 C 0.46936 0.55949 0.51098 0.0
C647 C 0.46039 0.52225 0.44776 0.0
C648 C 0.51184 0.48406 0.54239 0.0
O649 O 0.50362 0.47242 0.48361 0.0
O650 O 0.53074 0.44336 0.48017 0.0
O651 O 0.9685 0.47397 -0.00666 0.0
Mn652 Mn 0.00097 0.49526 -0.00505 0.0
O653 O 0.9382 0.4989 0.98233 0.0
Mn654 Mn 0.9552 0.52714 -0.00794 0.0
O655 O 0.03329 0.51624 -0.00298 0.0
O656 O 0.01636 0.46635 0.01079 0.0
Mn657 Mn 0.04731 0.46412 0.00274 0.0
O658 O 0.01196 0.48245 0.96061 0.0
O659 O 0.06248 0.49313 0.01362 0.0
O660 O 0.99161 0.50751 0.02933 0.0
O661 O 0.95878 0.53146 0.02581 0.0
O662 O 0.03991 0.43716 0.02231 0.0
O663 O 0.04592 0.46063 0.96897 0.0
C664 C 0.98063 0.54533 0.96833 0.0
C665 C 0.94623 0.47761 0.98689 0.0
C666 C 0.05489 0.51373 0.00595 0.0
C667 C 0.01796 0.44572 0.02218 0.0
C668 C 0.03026 0.46932 0.95397 0.0
C669 C 0.97531 0.52126 0.03865 0.0
O670 O 0.98513 0.52506 0.97987 0.0
O671 O 0.9587 0.55345 0.97135 0.0
H672 H 0.99184 0.16623 0.09331 0.0
H673 H 0.02984 0.19905 0.03156 0.0
H674 H 0.03206 0.15781 0.01214 0.0
H675 H 0.02658 0.10771 0.09247 0.0
H676 H -1e-05 0.08941 0.10151 0.0
H677 H 0.00367 0.12105 0.11173 0.0
H678 H 0.96107 0.13143 0.09338 0.0
H679 H 0.95706 0.09974 0.08403 0.0
H680 H 0.95464 0.12404 0.0618 0.0
H681 H 0.02642 0.11387 -0.00222 0.0
H682 H 0.00793 0.0729 0.98731 0.0
H683 H 0.97504 0.06843 0.05882 0.0
C684 C 0.00062 0.16471 0.0757 0.0
C685 C 0.01054 0.18578 0.06385 0.0
C686 C 0.02214 0.18307 0.04094 0.0
C687 C 0.02373 0.15971 0.02991 0.0
C688 C 0.01416 0.13917 0.04231 0.0
C689 C 0.00277 0.14149 0.06467 0.0
C690 C -0.00756 0.11687 0.07344 0.0
C691 C 0.00651 0.10826 0.09614 0.0
C692 C 0.96466 0.1181 0.07842 0.0
C693 C -0.00213 0.10073 0.05158 0.0
C694 C 0.01133 0.11368 0.03421 0.0
C695 C 0.01641 0.10338 0.01145 0.0
C696 C 0.0061 0.07997 0.00573 0.0
C697 C 0.99076 0.06741 0.02261 0.0
C698 C 0.98758 0.07736 0.04612 0.0
H699 H 0.06903 0.73017 0.33994 0.0
H700 H 0.04293 0.78734 0.29179 0.0
H701 H 0.0806 0.78365 0.26675 0.0
H702 H 0.13137 0.74921 0.33994 0.0
H703 H 0.14227 0.71812 0.34117 0.0
H704 H 0.1129 0.72507 0.35398 0.0
H705 H 0.09206 0.69102 0.32668 0.0
H706 H 0.12139 0.68412 0.31361 0.0
H707 H 0.09609 0.6921 0.29405 0.0
H708 H 0.12375 0.7752 0.24913 0.0
H709 H 0.16656 0.76278 0.24114 0.0
H710 H 0.16076 0.70983 0.30026 0.0
C711 C 0.07103 0.74193 0.32409 0.0
C712 C 0.0531 0.75912 0.31788 0.0
C713 C 0.0565 0.77403 0.29689 0.0
C714 C 0.07779 0.77202 0.28256 0.0
C715 C 0.09518 0.75483 0.28938 0.0
C716 C 0.0918 0.74002 0.30964 0.0
C717 C 0.11318 0.7235 0.31392 0.0
C718 C 0.12566 0.72934 0.3387 0.0
C719 C 0.10519 0.69606 0.31193 0.0
C720 C 0.12935 0.73128 0.29294 0.0
C721 C 0.11896 0.74944 0.27893 0.0
C722 C 0.13183 0.76068 0.25977 0.0
C723 C 0.1561 0.75348 0.2553 0.0
C724 C 0.16704 0.73521 0.26992 0.0
C725 C 0.15302 0.72361 0.28843 0.0
H726 H 0.49364 0.80906 0.53675 0.0
H727 H 0.48487 0.82895 0.61288 0.0
H728 H 0.48087 0.87274 0.60131 0.0
H729 H 0.53241 0.85932 0.5229 0.0
H730 H 0.52083 0.86323 0.4923 0.0
H731 H 0.51883 0.83337 0.50643 0.0
H732 H 0.47178 0.83179 0.49836 0.0
H733 H 0.4737 0.86202 0.48469 0.0
H734 H 0.45314 0.85624 0.50984 0.0
H735 H 0.48233 0.91506 0.58201 0.0
H736 H 0.49544 0.95155 0.55766 0.0
H737 H 0.50381 0.9045 0.49443 0.0
C738 C 0.49042 0.82259 0.55091 0.0
C739 C 0.48945 0.81555 0.5757 0.0
C740 C 0.48577 0.8339 0.59376 0.0
C741 C 0.48319 0.85881 0.58734 0.0
C742 C 0.48439 0.86522 0.56274 0.0
C743 C 0.48821 0.84763 0.54483 0.0
C744 C 0.49213 0.85965 0.52018 0.0
C745 C 0.51755 0.85354 0.50987 0.0
C746 C 0.47145 0.85196 0.50221 0.0
C747 C 0.49072 0.88676 0.52713 0.0
C748 C 0.48557 0.88964 0.55164 0.0
C749 C 0.48584 0.91303 0.56269 0.0
C750 C 0.49296 0.93377 0.54868 0.0
C751 C 0.49983 0.93087 0.52404 0.0
C752 C 0.49765 0.90725 0.51299 0.0
H753 H 0.42812 0.23423 0.81987 0.0
H754 H 0.41157 0.29136 0.8726 0.0
H755 H 0.37188 0.29807 0.85188 0.0
H756 H 0.40046 0.26143 0.76663 0.0
H757 H 0.38806 0.23232 0.75524 0.0
H758 H 0.41572 0.23311 0.77348 0.0
H759 H 0.39541 0.20179 0.80349 0.0
H760 H 0.36762 0.20117 0.78544 0.0
H761 H 0.36651 0.20894 0.81742 0.0
H762 H 0.3327 0.29646 0.82711 0.0
H763 H 0.29822 0.28852 0.79791 0.0
H764 H 0.34099 0.23307 0.76145 0.0
C765 C 0.41632 0.24846 0.8267 0.0
C766 C 0.42282 0.26241 0.84764 0.0
C767 C 0.40676 0.28048 0.85652 0.0
C768 C 0.38423 0.28442 0.84492 0.0
C769 C 0.378 0.26994 0.82463 0.0
C770 C 0.39359 0.25237 0.81555 0.0
C771 C 0.38198 0.23845 0.79425 0.0
C772 C 0.39748 0.24154 0.77103 0.0
C773 C 0.37763 0.21097 0.80053 0.0
C774 C 0.35792 0.25157 0.79223 0.0
C775 C 0.35568 0.26934 0.81018 0.0
C776 C 0.33435 0.28284 0.81273 0.0
C777 C 0.31491 0.27823 0.79619 0.0
C778 C 0.31734 0.26066 0.77723 0.0
C779 C 0.33902 0.24713 0.7754 0.0
H780 H 0.01816 0.82595 0.40257 0.0
H781 H 0.95006 0.80032 0.43608 0.0
H782 H 0.93568 0.84274 0.43748 0.0
H783 H 0.02845 0.87407 0.44041 0.0
H784 H 0.04117 0.89526 0.41815 0.0
H785 H 0.04269 0.86265 0.41309 0.0
H786 H 0.02078 0.86844 0.37132 0.0
H787 H 0.01828 0.90113 0.37715 0.0
H788 H 0.99114 0.88244 0.37026 0.0
H789 H 0.93046 0.88614 0.44106 0.0
H790 H 0.9408 0.92601 0.46055 0.0
H791 H 0.01314 0.92577 0.42847 0.0
C792 C 0.00015 0.82947 0.40993 0.0
C793 C 0.98523 0.81007 0.41921 0.0
C794 C 0.96192 0.81506 0.42909 0.0
C795 C 0.95327 0.83902 0.42932 0.0
C796 C 0.9682 0.85787 0.4198 0.0
C797 C 0.9915 0.85353 0.41098 0.0
C798 C 0.00594 0.87749 0.40723 0.0
C799 C 0.031 0.87735 0.42055 0.0
C800 C 0.00922 0.88268 0.37986 0.0
C801 C 0.98837 0.8955 0.41849 0.0
C802 C 0.96584 0.88402 0.42344 0.0
C803 C 0.94772 0.89556 0.43685 0.0
C804 C 0.95367 0.91826 0.44778 0.0
C805 C 0.97761 0.92859 0.44559 0.0
C806 C -0.00549 0.91824 0.42947 0.0
H807 H 0.42302 0.76929 0.6702 0.0
H808 H 0.40974 0.71095 0.61716 0.0
H809 H 0.36489 0.71462 0.62247 0.0
H810 H 0.38393 0.74899 0.71128 0.0
H811 H 0.37285 0.77828 0.72177 0.0
H812 H 0.40244 0.77695 0.70783 0.0
H813 H 0.3893 0.80955 0.67607 0.0
H814 H 0.35953 0.81058 0.69027 0.0
H815 H 0.36181 0.80403 0.65809 0.0
H816 H 0.32346 0.71806 0.63908 0.0
H817 H 0.2917 0.71413 0.6706 0.0
H818 H 0.33073 0.7686 0.71508 0.0
C819 C 0.41046 0.75814 0.65903 0.0
C820 C 0.4195 0.74028 0.64288 0.0
C821 C 0.40293 0.72509 0.62922 0.0
C822 C 0.37746 0.72725 0.63198 0.0
C823 C 0.36889 0.7447 0.64851 0.0
C824 C 0.38494 0.75984 0.66193 0.0
C825 C 0.3715 0.77328 0.68196 0.0
C826 C 0.38337 0.76906 0.70718 0.0
C827 C 0.37047 0.80101 0.67623 0.0
C828 C 0.34611 0.76103 0.67968 0.0
C829 C 0.34458 0.74594 0.65917 0.0
C830 C 0.32418 0.73032 0.65476 0.0
C831 C 0.30596 0.72841 0.67265 0.0
C832 C 0.30858 0.74153 0.69491 0.0
C833 C 0.32792 0.75925 0.69772 0.0
H834 H 0.4864 0.18178 0.94783 0.0
H835 H 0.50393 0.16498 0.87243 0.0
H836 H 0.50619 0.12068 0.88288 0.0
H837 H 0.52768 0.13852 0.97449 0.0
H838 H 0.50742 0.13069 -0.00062 0.0
H839 H 0.5065 0.16086 0.98574 0.0
H840 H 0.45979 0.15408 0.97751 0.0
H841 H 0.46068 0.12369 -0.00926 0.0
H842 H 0.44911 0.12746 0.96013 0.0
H843 H 0.50478 0.07924 0.90058 0.0
H844 H 0.50781 0.04236 0.9259 0.0
H845 H 0.49315 0.0855 -0.00905 0.0
C846 C 0.4908 0.16873 0.93356 0.0
C847 C 0.49483 0.17653 0.90929 0.0
C848 C 0.50089 0.15921 0.89111 0.0
C849 C 0.50194 0.1341 0.89683 0.0
C850 C 0.49717 0.12695 0.9208 0.0
C851 C 0.49228 0.14373 0.93902 0.0
C852 C 0.48926 0.13123 0.96358 0.0
C853 C 0.50889 0.14089 0.98187 0.0
C854 C 0.46316 0.13431 0.97357 0.0
C855 C 0.49341 0.10469 0.95632 0.0
C856 C 0.49736 0.10278 0.93142 0.0
C857 C 0.50177 0.08046 0.92006 0.0
C858 C 0.50323 0.0596 0.93462 0.0
C859 C 0.50052 0.0612 0.96031 0.0
C860 C 0.49497 0.08387 0.97134 0.0
H861 H 0.05664 0.27654 0.1804 0.0
H862 H 0.05545 0.20058 0.15559 0.0
H863 H 0.08899 0.19134 0.18456 0.0
H864 H 0.11656 0.28596 0.18229 0.0
H865 H 0.11864 0.30469 0.20958 0.0
H866 H 0.09061 0.30333 0.19226 0.0
H867 H 0.06677 0.28913 0.23087 0.0
H868 H 0.09504 0.29032 0.2483 0.0
H869 H 0.07641 0.26225 0.24725 0.0
H870 H 0.12819 0.19284 0.20922 0.0
H871 H 0.16955 0.20565 0.22444 0.0
H872 H 0.14514 0.2804 0.23392 0.0
C873 C 0.06266 0.25772 0.18212 0.0
C874 C 0.05312 0.23907 0.16644 0.0
C875 C 0.06209 0.21487 0.16811 0.0
C876 C 0.08113 0.20948 0.18453 0.0
C877 C 0.09076 0.22846 0.19942 0.0
C878 C 0.08152 0.25205 0.19861 0.0
C879 C 0.09718 0.26998 0.21379 0.0
C880 C 0.10629 0.29226 0.19855 0.0
C881 C 0.083 0.27842 0.23639 0.0
C882 C 0.11802 0.25352 0.2211 0.0
C883 C 0.11354 0.22935 0.2136 0.0
C884 C 0.13153 0.21151 0.21584 0.0
C885 C 0.15497 0.21887 0.22474 0.0
C886 C 0.16028 0.24391 0.23078 0.0
C887 C 0.14122 0.26103 0.23004 0.0
H888 H 0.0798 0.96934 0.17501 0.0
H889 H 0.02851 0.02339 0.20114 0.0
H890 H 0.0067 0.02156 0.16174 0.0
H891 H 0.08529 0.99137 0.11564 0.0
H892 H 0.08614 0.96149 0.10102 0.0
H893 H 0.09645 0.96515 0.13212 0.0
H894 H 0.06557 0.93048 0.14557 0.0
H895 H 0.05516 0.92674 0.11443 0.0
H896 H 0.0334 0.93298 0.1382 0.0
H897 H -0.00707 0.01734 0.11822 0.0
H898 H 0.98763 0.00976 0.074 0.0
H899 H 0.0466 0.95731 0.07642 0.0
C900 C 0.0637 0.98041 0.17259 0.0
C901 C 0.05588 -0.00359 0.19127 0.0
C902 C 0.03481 0.01079 0.18726 0.0
C903 C 0.02224 0.00992 0.16489 0.0
C904 C 0.03062 -0.00572 0.14674 0.0
C905 C 0.05066 0.97953 0.1504 0.0
C906 C 0.05637 0.96506 0.12749 0.0
C907 C 0.08262 0.97115 0.11855 0.0
C908 C 0.05239 0.93716 0.13168 0.0
C909 C 0.03714 0.97482 0.11017 0.0
C910 C 0.02229 0.99146 0.12169 0.0
C911 C 0.00415 0.00398 0.10907 0.0
C912 C 0.00127 -0.00045 0.08393 0.0
C913 C 0.01653 0.98279 0.07165 0.0
C914 C 0.0344 0.97004 0.08519 0.0
H915 H 0.20715 0.80746 0.43125 0.0
H916 H 0.22964 0.8814 0.41006 0.0
H917 H 0.23401 0.86736 0.36729 0.0
H918 H 0.25452 0.78452 0.40561 0.0
H919 H 0.24143 0.75494 0.3964 0.0
H920 H 0.22874 0.77105 0.42185 0.0
H921 H 0.18536 0.77095 0.40188 0.0
H922 H 0.19737 0.75304 0.3771 0.0
H923 H 0.18196 0.78139 0.37086 0.0
H924 H 0.24643 0.84261 0.32974 0.0
H925 H 0.25857 0.81069 0.2997 0.0
H926 H 0.23634 0.75349 0.35107 0.0
C927 C 0.21102 0.82098 0.41713 0.0
C928 C 0.21775 0.84535 0.42348 0.0
C929 C 0.22387 0.86269 0.40514 0.0
C930 C 0.22682 0.85473 0.38093 0.0
C931 C 0.22365 0.82953 0.37589 0.0
C932 C 0.21545 0.81297 0.39354 0.0
C933 C 0.2192 0.78655 0.38605 0.0
C934 C 0.23702 0.77354 0.40351 0.0
C935 C 0.1945 0.77215 0.38382 0.0
C936 C 0.23079 0.79072 0.36159 0.0
C937 C 0.23301 0.81542 0.35565 0.0
C938 C 0.24404 0.82318 0.33393 0.0
C939 C 0.25134 0.80502 0.31724 0.0
C940 C 0.24839 0.77962 0.32304 0.0
C941 C 0.23893 0.77269 0.34593 0.0
H942 H 0.44607 0.97862 0.66897 0.0
H943 H 0.41632 0.05059 0.68426 0.0
H944 H 0.43115 0.0655 0.6442 0.0
H945 H 0.50026 -0.00074 0.6328 0.0
H946 H 0.49638 0.97375 0.61169 0.0
H947 H 0.48723 0.97013 0.64307 0.0
H948 H 0.44338 0.9563 0.6288 0.0
H949 H 0.45244 0.95997 0.59749 0.0
H950 H 0.42637 0.97616 0.60896 0.0
H951 H 0.44393 0.07066 0.60086 0.0
H952 H 0.45338 0.06576 0.55711 0.0
H953 H 0.47465 0.99033 0.56998 0.0
C954 C 0.44338 -0.00222 0.66427 0.0
C955 C 0.43038 0.01361 0.67984 0.0
C956 C 0.42645 0.03827 0.67266 0.0
C957 C 0.43487 0.04689 0.65001 0.0
C958 C 0.44707 0.03057 0.63482 0.0
C959 C 0.45133 0.00652 0.64165 0.0
C960 C 0.46218 0.99181 0.62095 0.0
C961 C 0.48806 0.98324 0.62753 0.0
C962 C 0.44507 0.96977 0.61363 0.0
C963 C 0.46308 0.01126 0.60123 0.0
C964 C 0.45443 0.03352 0.60966 0.0
C965 C 0.45121 0.05352 0.59419 0.0
C966 C 0.45655 0.05054 0.5694 0.0
C967 C 0.46507 0.02778 0.56039 0.0
C968 C 0.46889 0.00811 0.5766 0.0
H969 H 0.25639 0.14612 0.91113 0.0
H970 H 0.27164 0.21436 0.95057 0.0
H971 H 0.27958 0.23599 0.91177 0.0
H972 H 0.29819 0.16057 0.85507 0.0
H973 H 0.27541 0.14684 0.83476 0.0
H974 H 0.27946 0.13455 0.86504 0.0
H975 H 0.23317 0.14029 0.87398 0.0
H976 H 0.22915 0.15197 0.84375 0.0
H977 H 0.22025 0.1703 0.86965 0.0
H978 H 0.27749 0.25202 0.87012 0.0
H979 H 0.25799 0.26237 0.83092 0.0
H980 H 0.2408 0.18503 0.81768 0.0
C981 C 0.26262 0.16531 0.91146 0.0
C982 C 0.26408 0.17852 0.93368 0.0
C983 C 0.27093 0.20391 0.93365 0.0
C984 C 0.27569 0.21626 0.9117 0.0
C985 C 0.27333 0.20302 0.88987 0.0
C986 C 0.26677 0.17807 0.88955 0.0
C987 C 0.26015 0.16945 0.86388 0.0
C988 C 0.27946 0.1518 0.85412 0.0
C989 C 0.23414 0.15734 0.86278 0.0
C990 C 0.26155 0.19385 0.8504 0.0
C991 C 0.27071 0.21269 0.86538 0.0
C992 C 0.27099 0.23735 0.85801 0.0
C993 C 0.26008 0.2431 0.83559 0.0
C994 C 0.24861 0.22434 0.82119 0.0
C995 C 0.2505 0.19941 0.828 0.0
H996 H 0.1012 0.03047 0.33412 0.0
H997 H 0.07518 0.95683 0.31392 0.0
H998 H 0.05853 0.95086 0.35562 0.0
H999 H 0.11411 0.01653 0.40188 0.0
H1000 H 0.10378 0.04672 0.41034 0.0
H1001 H 0.1193 0.04235 0.38171 0.0
H1002 H 0.08256 0.06109 0.35872 0.0
H1003 H 0.06698 0.06549 0.38703 0.0
H1004 H 0.0521 0.04778 0.36291 0.0
H1005 H 0.03588 0.95749 0.39515 0.0
H1006 H 0.01073 0.97564 0.42761 0.0
H1007 H 0.0532 0.04413 0.42281 0.0
C1008 C 0.0929 0.01271 0.33888 0.0
C1009 C 0.08946 -0.00593 0.32106 0.0
C1010 C 0.07824 0.97117 0.32755 0.0
C1011 C 0.06877 0.96767 0.35119 0.0
C1012 C 0.07137 0.98701 0.36813 0.0
C1013 C 0.08373 0.00891 0.36233 0.0
C1014 C 0.08121 0.02818 0.38216 0.0
C1015 C 0.10608 0.03376 0.39477 0.0
C1016 C 0.07003 0.05199 0.37209 0.0
C1017 C 0.06374 0.01457 0.39908 0.0
C1018 C 0.05878 0.99058 0.3912 0.0
C1019 C 0.04041 0.97585 0.40206 0.0
C1020 C 0.02629 0.98619 0.42076 0.0
C1021 C 0.03058 0.01098 0.42822 0.0
C1022 C 0.05008 0.02489 0.41783 0.0
H1023 H 0.2165 0.83539 0.56453 0.0
H1024 H 0.26324 0.7789 0.53507 0.0
H1025 H 0.26071 0.75636 0.57398 0.0
H1026 H 0.24372 0.83802 0.62136 0.0
H1027 H 0.21584 0.84305 0.63805 0.0
H1028 H 0.21823 0.85276 0.6068 0.0
H1029 H 0.17897 0.82653 0.59568 0.0
H1030 H 0.17636 0.81684 0.62702 0.0
H1031 H 0.17755 0.79406 0.60297 0.0
H1032 H 0.25747 0.74296 0.61755 0.0
H1033 H 0.2526 0.73919 0.66218 0.0
H1034 H 0.20799 0.8045 0.66245 0.0
C1035 C 0.22563 0.81794 0.566 0.0
C1036 C 0.23995 0.80886 0.54679 0.0
C1037 C 0.25206 0.78617 0.54958 0.0
C1038 C 0.2507 0.77318 0.57157 0.0
C1039 C 0.23701 0.78306 0.59043 0.0
C1040 C 0.22454 0.80481 0.58779 0.0
C1041 C 0.21296 0.81267 0.61142 0.0
C1042 C 0.22332 0.83812 0.6199 0.0
C1043 C 0.18478 0.81251 0.60913 0.0
C1044 C 0.22136 0.7923 0.62791 0.0
C1045 C 0.23507 0.77527 0.6155 0.0
C1046 C 0.24636 0.75589 0.6274 0.0
C1047 C 0.2436 0.75399 0.65274 0.0
C1048 C 0.22983 0.7715 0.66577 0.0
C1049 C 0.21832 0.7906 0.65302 0.0
H1050 H 0.41666 0.02165 0.81685 0.0
H1051 H 0.39379 0.94453 0.80989 0.0
H1052 H 0.3998 0.93883 0.85406 0.0
H1053 H 0.4652 0.0118 0.85335 0.0
H1054 H 0.46292 0.03899 0.87226 0.0
H1055 H 0.45049 0.03888 0.84187 0.0
H1056 H 0.40798 0.05052 0.85911 0.0
H1057 H 0.42049 0.05035 0.88968 0.0
H1058 H 0.39366 0.03143 0.88221 0.0
H1059 H 0.41499 0.93913 0.89651 0.0
H1060 H 0.44249 0.94464 0.93247 0.0
H1061 H 0.45667 0.02096 0.912 0.0
C1062 C 0.41225 0.00383 0.82489 0.0
C1063 C 0.40482 0.98354 0.81019 0.0
C1064 C 0.39972 0.96026 0.82098 0.0
C1065 C 0.4027 0.95693 0.84608 0.0
C1066 C 0.41081 0.97706 0.86014 0.0
C1067 C 0.4156 0.00011 0.84995 0.0
C1068 C 0.42829 0.0174 0.8681 0.0
C1069 C 0.45319 0.02731 0.85831 0.0
C1070 C 0.4116 0.03868 0.87519 0.0
C1071 C 0.43156 -0.00011 0.88924 0.0
C1072 C 0.42044 0.97703 0.88476 0.0
C1073 C 0.42337 0.95708 0.90052 0.0
C1074 C 0.43901 0.96028 0.92082 0.0
C1075 C 0.45177 0.98306 0.92457 0.0
C1076 C 0.44709 0.00331 0.9093 0.0
H1077 H 0.24082 0.14229 0.08333 0.0
H1078 H 0.29706 0.18872 0.04989 0.0
H1079 H 0.30664 0.20805 0.08995 0.0
H1080 H 0.21588 0.18469 0.11746 0.0
H1081 H 0.20964 0.16662 0.14442 0.0
H1082 H 0.21213 0.15151 0.11538 0.0
H1083 H 0.24604 0.12398 0.13269 0.0
H1084 H 0.24398 0.13914 0.16197 0.0
H1085 H 0.27312 0.13806 0.14665 0.0
H1086 H 0.30299 0.22882 0.12982 0.0
H1087 H 0.28717 0.24891 0.16684 0.0
H1088 H 0.23356 0.18905 0.17577 0.0
C1089 C 0.25609 0.1555 0.0849 0.0
C1090 C 0.26885 0.16353 0.06392 0.0
C1091 C 0.28778 0.18182 0.06604 0.0
C1092 C 0.29326 0.19289 0.0887 0.0
C1093 C 0.27971 0.18529 0.10903 0.0
C1094 C 0.26176 0.16667 0.10746 0.0
C1095 C 0.24749 0.16441 0.13111 0.0
C1096 C 0.21966 0.16699 0.12681 0.0
C1097 C 0.25299 0.13993 0.14385 0.0
C1098 C 0.25851 0.18617 0.14532 0.0
C1099 C 0.27764 0.19744 0.13254 0.0
C1100 C 0.28869 0.21966 0.14039 0.0
C1101 C 0.2796 0.23096 0.16138 0.0
C1102 C 0.25969 0.22007 0.1743 0.0
C1103 C 0.24943 0.19712 0.16661 0.0
H1104 H 0.1816 0.07535 0.96823 0.0
H1105 H 0.16666 0.12095 0.03146 0.0
H1106 H 0.12503 0.10214 0.03425 0.0
H1107 H 0.12142 0.07882 0.94171 0.0
H1108 H 0.11964 0.04733 0.93084 0.0
H1109 H 0.14913 0.06312 0.93399 0.0
H1110 H 0.16457 0.02851 0.96225 0.0
H1111 H 0.13538 0.01233 0.95854 0.0
H1112 H 0.14681 0.01982 0.98871 0.0
H1113 H 0.08412 0.08131 0.02868 0.0
H1114 H 0.04856 0.05331 0.01977 0.0
H1115 H 0.08901 0.01976 0.96091 0.0
C1116 C 0.1697 0.08087 0.98293 0.0
C1117 C 0.17731 0.09964 -0.00036 0.0
C1118 C 0.16111 0.10671 0.01842 0.0
C1119 C 0.13738 0.09622 0.02009 0.0
C1120 C 0.12993 0.07865 0.00278 0.0
C1121 C 0.14566 0.07056 0.98484 0.0
C1122 C 0.13263 0.05136 0.9686 0.0
C1123 C 0.13059 0.06072 0.94223 0.0
C1124 C 0.14562 0.02653 0.96961 0.0
C1125 C 0.10747 0.04971 0.98057 0.0
C1126 C 0.1062 0.0661 -0.00012 0.0
C1127 C 0.08486 0.06837 0.0136 0.0
C1128 C 0.06456 0.0527 0.00813 0.0
C1129 C 0.06582 0.03479 0.98934 0.0
C1130 C 0.08745 0.03359 0.97514 0.0
H1131 H 0.66926 0.43145 0.95956 0.0
H1132 H 0.68891 0.42351 0.03601 0.0
H1133 H 0.65303 0.44737 0.04773 0.0
H1134 H 0.6424 0.49493 0.96552 0.0
H1135 H 0.61808 0.48747 0.94401 0.0
H1136 H 0.64772 0.47376 0.94072 0.0
H1137 H 0.62722 0.43 0.94125 0.0
H1138 H 0.5976 0.44352 0.94407 0.0
H1139 H 0.60743 0.42132 0.96627 0.0
H1140 H 0.61259 0.46535 0.05182 0.0
H1141 H 0.56889 0.47569 0.0479 0.0
H1142 H 0.57467 0.47342 0.9691 0.0
C1143 C 0.66638 0.43538 0.97871 0.0
C1144 C 0.68194 0.42574 -0.00314 0.0
C1145 C 0.67727 0.43075 0.02178 0.0
C1146 C 0.65704 0.44446 0.02863 0.0
C1147 C 0.64174 0.45324 0.01036 0.0
C1148 C 0.64614 0.44903 0.98589 0.0
C1149 C 0.62522 0.45809 0.97016 0.0
C1150 C 0.63389 0.47986 0.95415 0.0
C1151 C 0.61369 0.43697 0.95454 0.0
C1152 C 0.60775 0.46658 0.98974 0.0
C1153 C 0.61799 0.46414 0.01277 0.0
C1154 C 0.60459 0.46805 0.03393 0.0
C1155 C 0.57984 0.47388 0.03156 0.0
C1156 C 0.56886 0.47581 0.00824 0.0
C1157 C 0.58308 0.47288 0.98706 0.0
H1158 H 0.86182 0.39847 0.2231 0.0
H1159 H 0.81802 0.45608 0.25511 0.0
H1160 H 0.7903 0.42435 0.27282 0.0
H1161 H 0.81092 0.35638 0.20695 0.0
H1162 H 0.82786 0.32926 0.21449 0.0
H1163 H 0.84396 0.35681 0.20434 0.0
H1164 H 0.87056 0.35434 0.24312 0.0
H1165 H 0.85278 0.32899 0.25616 0.0
H1166 H 0.85662 0.35758 0.27269 0.0
H1167 H 0.7698 0.3872 0.29014 0.0
H1168 H 0.74897 0.34677 0.2954 0.0
H1169 H 0.80344 0.31268 0.24946 0.0
C1170 C 0.84606 0.40441 0.23335 0.0
C1171 C 0.84215 0.42977 0.23778 0.0
C1172 C 0.82136 0.4368 0.25134 0.0
C1173 C 0.80571 0.41891 0.26182 0.0
C1174 C 0.81088 0.39414 0.25822 0.0
C1175 C 0.82994 0.38679 0.2436 0.0
C1176 C 0.83064 0.35883 0.24197 0.0
C1177 C 0.82818 0.3498 0.21536 0.0
C1178 C 0.85408 0.34939 0.25415 0.0
C1179 C 0.80821 0.35174 0.2569 0.0
C1180 C 0.79792 0.37243 0.26705 0.0
C1181 C 0.77739 0.37088 0.28195 0.0
C1182 C 0.7658 0.34777 0.28492 0.0
C1183 C 0.77426 0.3267 0.27232 0.0
C1184 C 0.79655 0.32844 0.25927 0.0
H1185 H 0.82379 0.59334 0.50712 0.0
H1186 H 0.80626 0.54965 0.44238 0.0
H1187 H 0.84676 0.52995 0.44554 0.0
H1188 H 0.8879 0.60473 0.49345 0.0
H1189 H 0.89759 0.60271 0.52489 0.0
H1190 H 0.86727 0.61312 0.51757 0.0
H1191 H 0.84785 0.57888 0.5449 0.0
H1192 H 0.87811 0.56866 0.55254 0.0
H1193 H 0.8556 0.54711 0.53975 0.0
H1194 H 0.88744 0.51196 0.45905 0.0
H1195 H 0.92524 0.4993 0.48005 0.0
H1196 H 0.91859 0.55911 0.53181 0.0
C1197 C 0.82837 0.57955 0.49363 0.0
C1198 C 0.81177 0.57282 0.47462 0.0
C1199 C 0.81867 0.55498 0.45715 0.0
C1200 C 0.84163 0.54376 0.45878 0.0
C1201 C 0.85762 0.55098 0.47771 0.0
C1202 C 0.85131 0.56863 0.49468 0.0
C1203 C 0.87164 0.57321 0.51328 0.0
C1204 C 0.88169 0.60004 0.51221 0.0
C1205 C 0.86277 0.56656 0.53914 0.0
C1206 C 0.8904 0.55526 0.50426 0.0
C1207 C 0.88193 0.54239 0.48389 0.0
C1208 C 0.89483 0.52276 0.47421 0.0
C1209 C 0.9168 0.51608 0.48578 0.0
C1210 C 0.92611 0.52948 0.50618 0.0
C1211 C 0.91265 0.54937 0.51538 0.0
H1212 H 0.18021 0.06488 0.22409 0.0
H1213 H 0.12091 0.08087 0.27397 0.0
H1214 H 0.13751 0.12302 0.27979 0.0
H1215 H 0.22745 0.09936 0.25949 0.0
H1216 H 0.24369 0.11059 0.23297 0.0
H1217 H 0.22655 0.08165 0.2315 0.0
H1218 H 0.20273 0.09815 0.19425 0.0
H1219 H 0.21891 0.12765 0.19648 0.0
H1220 H 0.18581 0.12617 0.19721 0.0
H1221 H 0.15724 0.16389 0.27824 0.0
H1222 H 0.18798 0.19808 0.28132 0.0
H1223 H 0.23833 0.15645 0.23732 0.0
C1224 C 0.1711 0.0772 0.23652 0.0
C1225 C 0.14895 0.06975 0.24824 0.0
C1226 C 0.13762 0.08635 0.26447 0.0
C1227 C 0.14673 0.11044 0.26773 0.0
C1228 C 0.1676 0.11782 0.25498 0.0
C1229 C 0.18039 0.10159 0.24053 0.0
C1230 C 0.20374 0.11435 0.231 0.0
C1231 C 0.22672 0.10068 0.23925 0.0
C1232 C 0.20272 0.11669 0.20306 0.0
C1233 C 0.20224 0.13968 0.24317 0.0
C1234 C 0.1805 0.14147 0.25582 0.0
C1235 C 0.17444 0.16279 0.26852 0.0
C1236 C 0.19184 0.18227 0.26989 0.0
C1237 C 0.2152 0.18001 0.25922 0.0
C1238 C 0.22026 0.15882 0.24502 0.0
H1239 H 0.31713 0.90545 0.45544 0.0
H1240 H 0.30852 0.90314 0.53398 0.0
H1241 H 0.34944 0.92396 0.53926 0.0
H1242 H 0.3801 0.89398 0.45312 0.0
H1243 H 0.3871 0.91533 0.42881 0.0
H1244 H 0.35683 0.90113 0.4309 0.0
H1245 H 0.33693 0.94407 0.43198 0.0
H1246 H 0.36702 0.95836 0.42881 0.0
H1247 H 0.34773 0.96686 0.45396 0.0
H1248 H 0.39259 0.93999 0.53574 0.0
H1249 H 0.431 0.96224 0.5242 0.0
H1250 H 0.40953 0.95793 0.44793 0.0
C1251 C 0.32372 0.90997 0.47367 0.0
C1252 C 0.31013 0.90299 0.49437 0.0
C1253 C 0.31892 0.90879 0.51804 0.0
C1254 C 0.34213 0.92022 0.52116 0.0
C1255 C 0.35572 0.92586 0.50033 0.0
C1256 C 0.34649 0.92184 0.47705 0.0
C1257 C 0.36438 0.9306 0.45775 0.0
C1258 C 0.37258 0.90897 0.44171 0.0
C1259 C 0.35336 0.95121 0.44222 0.0
C1260 C 0.38515 0.94026 0.47385 0.0
C1261 C 0.38008 0.93654 0.49831 0.0
C1262 C 0.39671 0.94326 0.5167 0.0
C1263 C 0.41853 0.95551 0.50997 0.0
C1264 C 0.42294 0.96138 0.48524 0.0
C1265 C 0.40647 0.95319 0.46688 0.0
H1266 H 0.81924 0.57608 0.27532 0.0
H1267 H 0.83255 0.55599 0.19978 0.0
H1268 H 0.81202 0.59347 0.18621 0.0
H1269 H 0.75838 0.6054 0.2642 0.0
H1270 H 0.76472 0.62946 0.28642 0.0
H1271 H 0.7772 0.59925 0.29055 0.0
H1272 H 0.8211 0.61879 0.29374 0.0
H1273 H 0.80874 0.64898 0.28982 0.0
H1274 H 0.83233 0.63853 0.26956 0.0
H1275 H 0.79638 0.63537 0.18078 0.0
H1276 H 0.7852 0.67917 0.18394 0.0
H1277 H 0.78002 0.6723 0.26257 0.0
C1278 C 0.81727 0.57926 0.25591 0.0
C1279 C 0.8275 0.56305 0.23861 0.0
C1280 C 0.82489 0.56809 0.21339 0.0
C1281 C 0.81314 0.58929 0.20547 0.0
C1282 C 0.80384 0.6052 0.22295 0.0
C1283 C 0.80551 0.6004 0.24766 0.0
C1284 C 0.79575 0.62165 0.26262 0.0
C1285 C 0.77263 0.61344 0.27678 0.0
C1286 C 0.81568 0.63263 0.27994 0.0
C1287 C 0.7895 0.63955 0.24245 0.0
C1288 C 0.79403 0.62951 0.21971 0.0
C1289 C 0.79215 0.64327 0.19839 0.0
C1290 C 0.78589 0.6681 0.20035 0.0
C1291 C 0.7814 0.67882 0.22341 0.0
C1292 C 0.78266 0.66423 0.24467 0.0
H1293 H 0.69603 0.42956 0.77133 0.0
H1294 H 0.62816 0.41439 0.7313 0.0
H1295 H 0.63972 0.37102 0.72575 0.0
H1296 H 0.73311 0.39554 0.73283 0.0
H1297 H 0.75301 0.38432 0.7565 0.0
H1298 H 0.73762 0.41296 0.76073 0.0
H1299 H 0.71864 0.39616 0.80085 0.0
H1300 H 0.73386 0.36733 0.79646 0.0
H1301 H 0.70098 0.36745 0.80037 0.0
H1302 H 0.66008 0.33096 0.72048 0.0
H1303 H 0.6899 0.29845 0.71207 0.0
H1304 H 0.74516 0.33878 0.75457 0.0
C1305 C 0.68346 0.41696 0.76176 0.0
C1306 C 0.66115 0.42536 0.75181 0.0
C1307 C 0.64539 0.40845 0.73899 0.0
C1308 C 0.65167 0.38367 0.73598 0.0
C1309 C 0.67384 0.376 0.74581 0.0
C1310 C 0.68964 0.39216 0.75826 0.0
C1311 C 0.71365 0.37989 0.76442 0.0
C1312 C 0.73563 0.39401 0.75292 0.0
C1313 C 0.71696 0.37757 0.79218 0.0
C1314 C 0.70923 0.35469 0.75258 0.0
C1315 C 0.68585 0.35264 0.74257 0.0
C1316 C 0.6782 0.33208 0.72874 0.0
C1317 C 0.69515 0.31361 0.72419 0.0
C1318 C 0.71933 0.31565 0.73364 0.0
C1319 C 0.72633 0.33624 0.7483 0.0
H1320 H 0.97179 0.81233 0.94654 0.0
H1321 H 0.00539 0.82639 0.87617 0.0
H1322 H 0.0046 0.87126 0.88406 0.0
H1323 H 0.93372 0.86865 0.94915 0.0
H1324 H 0.93977 0.87322 0.9813 0.0
H1325 H 0.93872 0.84243 0.96854 0.0
H1326 H 0.98257 0.8348 0.98536 0.0
H1327 H 0.9831 0.86517 -0.00132 0.0
H1328 H 0.00724 0.85651 0.97819 0.0
H1329 H 0.00358 0.91402 0.90055 0.0
H1330 H 0.01217 0.94953 0.92802 0.0
H1331 H 0.98107 0.90837 0.98839 0.0
C1332 C 0.9787 0.82492 0.93271 0.0
C1333 C 0.98852 0.8159 0.9107 0.0
C1334 C -0.00214 0.83288 0.89322 0.0
C1335 C -0.0029 0.85843 0.89736 0.0
C1336 C 0.98704 0.86679 0.91912 0.0
C1337 C 0.97852 0.85052 0.93676 0.0
C1338 C 0.97218 0.86409 0.96004 0.0
C1339 C 0.94444 0.86197 0.96504 0.0
C1340 C 0.98719 0.85459 0.98183 0.0
C1341 C 0.97982 0.89034 0.95322 0.0
C1342 C 0.98725 0.89165 0.92913 0.0
C1343 C -0.00259 0.91335 0.91929 0.0
C1344 C 0.00195 0.93358 0.93493 0.0
C1345 C -0.0033 0.93172 0.96007 0.0
C1346 C 0.98427 0.91044 0.969 0.0
H1347 H 0.92179 0.22856 0.66521 0.0
H1348 H 0.95503 0.29151 0.70367 0.0
H1349 H 0.91927 0.29239 0.7311 0.0
H1350 H 0.86277 0.24918 0.66429 0.0
H1351 H 0.8478 0.21939 0.66872 0.0
H1352 H 0.87763 0.22136 0.6549 0.0
H1353 H 0.89418 0.19181 0.68785 0.0
H1354 H 0.86433 0.19015 0.70202 0.0
H1355 H 0.89107 0.19958 0.7197 0.0
H1356 H 0.8778 0.29048 0.75012 0.0
H1357 H 0.83296 0.28747 0.75727 0.0
H1358 H 0.82684 0.22511 0.70773 0.0
C1359 C 0.92179 0.24221 0.67972 0.0
C1360 C 0.94128 0.2599 0.68235 0.0
C1361 C 0.94041 0.27767 0.70137 0.0
C1362 C 0.92023 0.27821 0.71716 0.0
C1363 C 0.90121 0.26065 0.71395 0.0
C1364 C 0.90184 0.24292 0.69572 0.0
C1365 C 0.87797 0.22778 0.6945 0.0
C1366 C 0.86583 0.22957 0.66911 0.0
C1367 C 0.88215 0.20073 0.70143 0.0
C1368 C 0.86329 0.24071 0.71393 0.0
C1369 C 0.87724 0.25922 0.72537 0.0
C1370 C 0.8669 0.27556 0.74191 0.0
C1371 C 0.84149 0.27361 0.74606 0.0
C1372 C 0.82685 0.25543 0.73379 0.0
C1373 C 0.83799 0.23832 0.71821 0.0
H1374 H 0.49775 0.18691 0.44769 0.0
H1375 H 0.50922 0.17087 0.37124 0.0
H1376 H 0.51726 0.1273 0.38139 0.0
H1377 H 0.54526 0.1396 0.47111 0.0
H1378 H 0.52624 0.13302 0.49723 0.0
H1379 H 0.52761 0.16376 0.48461 0.0
H1380 H 0.48013 0.16268 0.47978 0.0
H1381 H 0.47874 0.1323 0.49255 0.0
H1382 H 0.46533 0.13762 0.46292 0.0
H1383 H 0.51236 0.08443 0.39846 0.0
H1384 H 0.49598 0.04791 0.42072 0.0
H1385 H 0.49239 0.09155 0.4867 0.0
C1386 C 0.50298 0.17437 0.43329 0.0
C1387 C 0.50299 0.18212 0.40875 0.0
C1388 C 0.50949 0.1653 0.3902 0.0
C1389 C 0.51414 0.14053 0.39584 0.0
C1390 C 0.51312 0.13313 0.42022 0.0
C1391 C 0.5084 0.14982 0.43874 0.0
C1392 C 0.50569 0.13689 0.46307 0.0
C1393 C 0.5275 0.14373 0.48 0.0
C1394 C 0.48101 0.1427 0.47525 0.0
C1395 C 0.50669 0.11013 0.45495 0.0
C1396 C 0.51181 0.10824 0.43029 0.0
C1397 C 0.50943 0.08558 0.41794 0.0
C1398 C 0.50033 0.06479 0.43074 0.0
C1399 C 0.49384 0.06686 0.45557 0.0
C1400 C 0.49836 0.0894 0.46799 0.0
H1401 H 0.58119 0.78094 0.17418 0.0
H1402 H 0.55491 0.70476 0.17969 0.0
H1403 H 0.59718 0.69094 0.18344 0.0
H1404 H 0.64288 0.76783 0.14419 0.0
H1405 H 0.65886 0.79096 0.16254 0.0
H1406 H 0.62725 0.79516 0.15369 0.0
H1407 H 0.61505 0.80041 0.1992 0.0
H1408 H 0.64666 0.797 0.20772 0.0
H1409 H 0.62325 0.77694 0.2208 0.0
H1410 H 0.63909 0.68527 0.19383 0.0
H1411 H 0.67768 0.6891 0.21745 0.0
H1412 H 0.67956 0.76822 0.20624 0.0
C1413 C 0.58464 0.76142 0.17587 0.0
C1414 C 0.56509 0.74382 0.17665 0.0
C1415 C 0.56984 0.71843 0.17917 0.0
C1416 C 0.59378 0.71036 0.18086 0.0
C1417 C 0.61285 0.72794 0.18019 0.0
C1418 C 0.60869 0.75302 0.17822 0.0
C1419 C 0.6322 0.7681 0.18275 0.0
C1420 C 0.64079 0.78129 0.15939 0.0
C1421 C 0.6291 0.78667 0.20388 0.0
C1422 C 0.64943 0.74763 0.1895 0.0
C1423 C 0.63811 0.72456 0.18672 0.0
C1424 C 0.64858 0.70306 0.19541 0.0
C1425 C 0.67043 0.70532 0.20876 0.0
C1426 C 0.68144 0.72883 0.21295 0.0
C1427 C 0.67168 0.75003 0.20221 0.0
H1428 H 0.03583 0.17295 0.57059 0.0
H1429 H 0.96369 0.17095 0.60418 0.0
H1430 H 0.95931 0.12642 0.59446 0.0
H1431 H 0.02071 0.13758 0.52127 0.0
H1432 H 0.0495 0.12199 0.51959 0.0
H1433 H 0.04851 0.15212 0.53327 0.0
H1434 H 0.06802 0.13489 0.57279 0.0
H1435 H 0.06862 0.10446 0.55926 0.0
H1436 H 0.0534 0.10897 0.58802 0.0
H1437 H 0.95978 0.08521 0.57545 0.0
H1438 H 0.96333 0.05176 0.54535 0.0
H1439 H 0.03572 0.07947 0.52535 0.0
C1440 C 0.01924 0.16311 0.57629 0.0
C1441 C 9e-05 0.17534 0.58815 0.0
C1442 C 0.9786 0.16187 0.59509 0.0
C1443 C 0.97609 0.13655 0.58992 0.0
C1444 C -0.00462 0.12507 0.57815 0.0
C1445 C 0.01651 0.13796 0.57136 0.0
C1446 C 0.03314 0.12228 0.55615 0.0
C1447 C 0.03822 0.1342 0.5311 0.0
C1448 C 0.05722 0.11735 0.56988 0.0
C1449 C 0.01724 0.09904 0.55392 0.0
C1450 C -0.00409 0.10071 0.56747 0.0
C1451 C 0.97681 0.08312 0.56562 0.0
C1452 C 0.97911 0.06392 0.54876 0.0
C1453 C 0.00036 0.06248 0.53422 0.0
C1454 C 0.01989 0.07976 0.53724 0.0
H1455 H 0.57704 0.25562 0.34775 0.0
H1456 H 0.53645 0.25033 0.27936 0.0
H1457 H 0.57441 0.23973 0.25795 0.0
H1458 H 0.62877 0.28597 0.32472 0.0
H1459 H 0.65046 0.27032 0.34379 0.0
H1460 H 0.61938 0.27357 0.35382 0.0
H1461 H 0.61586 0.22598 0.35923 0.0
H1462 H 0.64676 0.22269 0.34813 0.0
H1463 H 0.62151 0.20599 0.33358 0.0
H1464 H 0.61664 0.23226 0.24332 0.0
H1465 H 0.66047 0.24053 0.23482 0.0
H1466 H 0.67451 0.25282 0.3117 0.0
C1467 C 0.57609 0.25195 0.32832 0.0
C1468 C 0.55365 0.25348 0.31533 0.0
C1469 C 0.55333 0.24905 0.28981 0.0
C1470 C 0.57476 0.24267 0.2775 0.0
C1471 C 0.59646 0.24071 0.29091 0.0
C1472 C 0.59742 0.24576 0.31566 0.0
C1473 C 0.62366 0.24558 0.32514 0.0
C1474 C 0.63099 0.27034 0.33756 0.0
C1475 C 0.62715 0.22376 0.34256 0.0
C1476 C 0.63746 0.24165 0.3015 0.0
C1477 C 0.62129 0.23744 0.28223 0.0
C1478 C 0.62949 0.23515 0.2583 0.0
C1479 C 0.65455 0.23944 0.25365 0.0
C1480 C 0.67086 0.24684 0.2727 0.0
C1481 C 0.66255 0.24626 0.29703 0.0
H1482 H 0.44908 0.80424 0.07218 0.0
H1483 H 0.52785 0.79376 0.07294 0.0
H1484 H 0.53394 0.83111 0.04775 0.0
H1485 H 0.44519 0.83207 0.00949 0.0
H1486 H 0.42235 0.85337 0.01935 0.0
H1487 H 0.42381 0.82325 0.03313 0.0
H1488 H 0.42779 0.84376 0.0759 0.0
H1489 H 0.42646 0.87383 0.06231 0.0
H1490 H 0.45218 0.86639 0.08156 0.0
H1491 H 0.53196 0.87216 0.02684 0.0
H1492 H 0.5222 0.9147 0.01457 0.0
H1493 H 0.44503 0.89905 0.02915 0.0
C1494 C 0.46753 0.80936 0.06641 0.0
C1495 C 0.48795 0.79601 0.07435 0.0
C1496 C 0.5119 0.80367 0.06696 0.0
C1497 C 0.51554 0.82478 0.05253 0.0
C1498 C 0.49505 0.83795 0.04556 0.0
C1499 C 0.4715 0.83051 0.05224 0.0
C1500 C 0.45291 0.84946 0.04508 0.0
C1501 C 0.43501 0.8389 0.0256 0.0
C1502 C 0.43904 0.85892 0.06755 0.0
C1503 C 0.46982 0.86928 0.0345 0.0
C1504 C 0.49397 0.86203 0.03423 0.0
C1505 C 0.51306 0.87788 0.02658 0.0
C1506 C 0.50736 0.90198 0.01959 0.0
C1507 C 0.48287 0.91004 0.02088 0.0
C1508 C 0.46388 0.89327 0.02787 0.0
H1509 H 0.92954 0.70942 0.81837 0.0
H1510 H 0.94366 0.78814 0.82557 0.0
H1511 H 0.90921 0.79607 0.79719 0.0
H1512 H 0.90691 0.71154 0.75122 0.0
H1513 H 0.88456 0.6871 0.7571 0.0
H1514 H 0.91377 0.68771 0.77289 0.0
H1515 H 0.89112 0.68631 0.81441 0.0
H1516 H 0.86207 0.68568 0.7988 0.0
H1517 H 0.86893 0.70947 0.82118 0.0
H1518 H 0.86801 0.7953 0.77576 0.0
H1519 H 0.82468 0.78571 0.76402 0.0
H1520 H 0.83856 0.70751 0.76894 0.0
C1521 C 0.92605 0.7282 0.8129 0.0
C1522 C 0.93944 0.74817 0.82349 0.0
C1523 C 0.93392 0.77264 0.81695 0.0
C1524 C 0.91439 0.77728 0.80088 0.0
C1525 C 0.90091 0.75718 0.79115 0.0
C1526 C 0.90686 0.73306 0.79655 0.0
C1527 C 0.88788 0.71482 0.78623 0.0
C1528 C 0.89895 0.69938 0.76564 0.0
C1529 C 0.87685 0.69813 0.80636 0.0
C1530 C 0.86923 0.73241 0.77618 0.0
C1531 C 0.8773 0.75678 0.77846 0.0
C1532 C 0.86181 0.77628 0.77315 0.0
C1533 C 0.83724 0.77071 0.76634 0.0
C1534 C 0.82844 0.74587 0.76532 0.0
C1535 C 0.845 0.72664 0.76918 0.0
H1536 H 0.93255 0.969 0.81438 0.0
H1537 H 0.93437 0.04566 0.79184 0.0
H1538 H 0.95153 0.058 0.83237 0.0
H1539 H 0.91066 0.98247 0.8737 0.0
H1540 H 0.92659 0.95767 0.88815 0.0
H1541 H 0.91748 0.955 0.8566 0.0
H1542 H 0.96259 0.94688 0.84476 0.0
H1543 H 0.97189 0.94977 0.87629 0.0
H1544 H 0.9866 0.96892 0.85347 0.0
H1545 H 0.96549 0.06192 0.87608 0.0
H1546 H 0.97226 0.05783 0.92056 0.0
H1547 H 0.96039 0.97852 0.91479 0.0
C1548 C 0.93721 0.98831 0.81781 0.0
C1549 C 0.93287 0.0064 0.79995 0.0
C1550 C 0.938 0.0316 0.80529 0.0
C1551 C 0.94778 0.03869 0.82816 0.0
C1552 C 0.95177 0.02034 0.84548 0.0
C1553 C 0.94632 -0.00431 0.84065 0.0
C1554 C 0.94942 0.97992 0.86317 0.0
C1555 C 0.92457 0.96807 0.87086 0.0
C1556 C 0.96879 0.96022 0.85917 0.0
C1557 C 0.95819 -0.0006 0.88136 0.0
C1558 C 0.95937 0.02261 0.8708 0.0
C1559 C 0.965 0.04383 0.88444 0.0
C1560 C 0.96888 0.04135 0.9096 0.0
C1561 C 0.96736 0.01784 0.92075 0.0
C1562 C 0.96246 -0.00344 0.90643 0.0
H1563 H 0.71756 0.18619 0.55785 0.0
H1564 H 0.73754 0.11258 0.57959 0.0
H1565 H 0.73973 0.12652 0.62301 0.0
H1566 H 0.76048 0.21608 0.59696 0.0
H1567 H 0.74147 0.24228 0.60221 0.0
H1568 H 0.73869 0.22523 0.57404 0.0
H1569 H 0.69198 0.21799 0.58176 0.0
H1570 H 0.69465 0.23492 0.61008 0.0
H1571 H 0.68191 0.20377 0.60982 0.0
H1572 H 0.74103 0.1501 0.66385 0.0
H1573 H 0.74608 0.1814 0.6969 0.0
H1574 H 0.72743 0.23902 0.64582 0.0
C1575 C 0.72186 0.17288 0.57186 0.0
C1576 C 0.72684 0.14833 0.56587 0.0
C1577 C 0.73342 0.13148 0.58425 0.0
C1578 C 0.73456 0.13921 0.60879 0.0
C1579 C 0.72953 0.16382 0.61413 0.0
C1580 C 0.72371 0.1804 0.596 0.0
C1581 C 0.72198 0.20637 0.60553 0.0
C1582 C 0.74183 0.22348 0.59401 0.0
C1583 C 0.69608 0.21633 0.60157 0.0
C1584 C 0.72726 0.20195 0.63208 0.0
C1585 C 0.7314 0.17735 0.63692 0.0
C1586 C 0.7377 0.16937 0.66025 0.0
C1587 C 0.74044 0.18719 0.67887 0.0
C1588 C 0.73725 0.21251 0.67371 0.0
C1589 C 0.73005 0.21976 0.65021 0.0
H1590 H 0.59215 0.97273 0.3178 0.0
H1591 H 0.53514 0.01911 0.28884 0.0
H1592 H 0.5125 0.01532 0.32743 0.0
H1593 H 0.55126 0.93196 0.35465 0.0
H1594 H 0.57306 0.93034 0.37946 0.0
H1595 H 0.58378 0.93432 0.34861 0.0
H1596 H 0.60853 0.97392 0.36175 0.0
H1597 H 0.59796 0.96999 0.39258 0.0
H1598 H 0.59286 -0.00143 0.37682 0.0
H1599 H 0.49702 0.00864 0.36927 0.0
H1600 H 0.49088 0.00176 0.41314 0.0
H1601 H 0.55848 0.96092 0.41621 0.0
C1602 C 0.57463 0.9816 0.31943 0.0
C1603 C 0.56526 -0.00403 0.30022 0.0
C1604 C 0.54261 0.00788 0.30326 0.0
C1605 C 0.52954 0.00577 0.32508 0.0
C1606 C 0.53935 0.99172 0.34375 0.0
C1607 C 0.56141 0.97991 0.34128 0.0
C1608 C 0.56867 0.96758 0.36495 0.0
C1609 C 0.56923 0.93937 0.36172 0.0
C1610 C 0.59347 0.97816 0.37459 0.0
C1611 C 0.54757 0.97489 0.38118 0.0
C1612 C 0.53068 0.98842 0.36839 0.0
C1613 C 0.51001 -0.00208 0.37948 0.0
C1614 C 0.50672 -0.0061 0.40447 0.0
C1615 C 0.52423 0.98085 0.41825 0.0
C1616 C 0.54467 0.97084 0.40623 0.0
H1617 H 0.7332 0.84975 0.08984 0.0
H1618 H 0.70963 0.7792 0.05911 0.0
H1619 H 0.70195 0.76305 0.10062 0.0
H1620 H 0.77016 0.82676 0.12997 0.0
H1621 H 0.76581 0.84856 0.15447 0.0
H1622 H 0.7597 0.85743 0.1237 0.0
H1623 H 0.71542 0.8688 0.13605 0.0
H1624 H 0.7216 0.85945 0.167 0.0
H1625 H 0.69565 0.84603 0.15059 0.0
H1626 H 0.7062 0.75156 0.1436 0.0
H1627 H 0.73004 0.7431 0.18078 0.0
H1628 H 0.75462 0.81961 0.18445 0.0
C1629 C 0.72524 0.83131 0.09201 0.0
C1630 C 0.72137 0.81581 0.07154 0.0
C1631 C 0.71224 0.79138 0.07472 0.0
C1632 C 0.7076 0.78222 0.09822 0.0
C1633 C 0.71259 0.79762 0.11833 0.0
C1634 C 0.72145 0.82169 0.11541 0.0
C1635 C 0.73144 0.83231 0.13926 0.0
C1636 C 0.75835 0.84176 0.13667 0.0
C1637 C 0.71504 0.85286 0.14878 0.0
C1638 C 0.72926 0.80969 0.15536 0.0
C1639 C 0.71676 0.7904 0.14347 0.0
C1640 C 0.7154 0.76667 0.15333 0.0
C1641 C 0.72878 0.76203 0.17467 0.0
C1642 C 0.74352 0.78095 0.18563 0.0
C1643 C 0.74263 0.80524 0.17673 0.0
H1644 H 0.90849 0.95332 0.66239 0.0
H1645 H 0.90828 0.03331 0.66577 0.0
H1646 H 0.92227 0.03516 0.62258 0.0
H1647 H 0.96202 0.94825 0.63089 0.0
H1648 H 0.95206 0.92152 0.6133 0.0
H1649 H 0.93874 0.92716 0.64263 0.0
H1650 H 0.89519 0.92607 0.62291 0.0
H1651 H 0.90851 0.9205 0.59342 0.0
H1652 H 0.88876 0.94632 0.59777 0.0
H1653 H 0.94195 0.02712 0.57997 0.0
H1654 H 0.96485 0.01008 0.54461 0.0
H1655 H 0.95023 0.93608 0.57101 0.0
C1656 C 0.91089 0.97129 0.65395 0.0
C1657 C 0.90737 0.99317 0.66739 0.0
C1658 C 0.9107 0.0163 0.65569 0.0
C1659 C 0.91864 0.01748 0.63119 0.0
C1660 C 0.92259 -0.00464 0.61865 0.0
C1661 C 0.91845 0.97271 0.62974 0.0
C1662 C 0.92572 0.95152 0.6136 0.0
C1663 C 0.94583 0.93624 0.62583 0.0
C1664 C 0.90319 0.93515 0.60651 0.0
C1665 C 0.93555 0.96562 0.59193 0.0
C1666 C 0.93343 0.99087 0.59475 0.0
C1667 C 0.94332 0.00735 0.57754 0.0
C1668 C 0.95628 -0.00233 0.55754 0.0
C1669 C 0.95947 0.97198 0.55526 0.0
C1670 C 0.94813 0.95589 0.57222 0.0
H1671 H 0.77277 0.1558 0.42526 0.0
H1672 H 0.74685 0.22159 0.46142 0.0
H1673 H 0.74889 0.24416 0.42242 0.0
H1674 H 0.81413 0.18683 0.38114 0.0
H1675 H 0.80567 0.16503 0.35734 0.0
H1676 H 0.80532 0.15544 0.38878 0.0
H1677 H 0.75977 0.14062 0.38359 0.0
H1678 H 0.75983 0.15064 0.35234 0.0
H1679 H 0.73735 0.16216 0.37322 0.0
H1680 H 0.74815 0.25758 0.37821 0.0
H1681 H 0.74999 0.26208 0.33315 0.0
H1682 H 0.77669 0.1875 0.32723 0.0
C1683 C 0.76851 0.17523 0.42524 0.0
C1684 C 0.75989 0.187 0.44637 0.0
C1685 C 0.75374 0.21228 0.44541 0.0
C1686 C 0.75468 0.22522 0.42334 0.0
C1687 C 0.76197 0.21263 0.40252 0.0
C1688 C 0.76917 0.18832 0.40339 0.0
C1689 C 0.77454 0.1784 0.37827 0.0
C1690 C 0.80153 0.171 0.37627 0.0
C1691 C 0.75682 0.15668 0.37147 0.0
C1692 C 0.76944 0.20093 0.36318 0.0
C1693 C 0.76191 0.22045 0.37733 0.0
C1694 C 0.75456 0.24261 0.36697 0.0
C1695 C 0.75553 0.24497 0.34145 0.0
C1696 C 0.764 0.22534 0.32689 0.0
C1697 C 0.77081 0.20309 0.33798 0.0
H1698 H 0.59481 0.97449 0.15632 0.0
H1699 H 0.56706 0.04174 0.18823 0.0
H1700 H 0.54402 0.04987 0.1507 0.0
H1701 H 0.60175 -0.00233 0.09504 0.0
H1702 H 0.59103 0.96961 0.08007 0.0
H1703 H 0.60583 0.96822 0.10954 0.0
H1704 H 0.56795 0.94447 0.12735 0.0
H1705 H 0.55352 0.94511 0.09772 0.0
H1706 H 0.53785 0.95719 0.1239 0.0
H1707 H 0.52433 0.05159 0.11077 0.0
H1708 H 0.5029 0.04271 0.07172 0.0
H1709 H 0.54276 0.97498 0.06406 0.0
C1710 C 0.58359 0.99067 0.15538 0.0
C1711 C 0.58294 0.00766 0.17497 0.0
C1712 C 0.56809 0.02869 0.17323 0.0
C1713 C 0.55503 0.03358 0.15197 0.0
C1714 C 0.55691 0.01725 0.13253 0.0
C1715 C 0.57029 -0.00407 0.13405 0.0
C1716 C 0.56805 0.98113 0.11051 0.0
C1717 C 0.59317 0.97904 0.09806 0.0
C1718 C 0.55612 0.95546 0.11516 0.0
C1719 C 0.55115 -0.00262 0.09589 0.0
C1720 C 0.54534 0.01831 0.10892 0.0
C1721 C 0.52889 0.03546 0.10016 0.0
C1722 C 0.51701 0.03044 0.07794 0.0
C1723 C 0.52184 0.00863 0.06485 0.0
C1724 C 0.53961 0.99225 0.07346 0.0
H1725 H 0.76049 0.84323 0.9227 0.0
H1726 H 0.69135 0.8107 0.94701 0.0
H1727 H 0.68217 0.79628 0.90478 0.0
H1728 H 0.73734 0.86063 0.85874 0.0
H1729 H 0.76669 0.8538 0.84561 0.0
H1730 H 0.76516 0.86597 0.87626 0.0
H1731 H 0.78924 0.82869 0.8922 0.0
H1732 H 0.79081 0.81644 0.86178 0.0
H1733 H 0.7777 0.79773 0.88583 0.0
H1734 H 0.68442 0.77899 0.86241 0.0
H1735 H 0.69794 0.75999 0.8238 0.0
H1736 H 0.76531 0.8044 0.82646 0.0
C1737 C 0.74303 0.83387 0.91879 0.0
C1738 C 0.7264 0.82831 0.93776 0.0
C1739 C 0.70401 0.81549 0.93247 0.0
C1740 C 0.69868 0.80731 0.90857 0.0
C1741 C 0.71576 0.81258 0.89021 0.0
C1742 C 0.73733 0.82595 0.895 0.0
C1743 C 0.75381 0.82695 0.87278 0.0
C1744 C 0.75587 0.85341 0.86276 0.0
C1745 C 0.77938 0.81682 0.8785 0.0
C1746 C 0.73924 0.81019 0.85543 0.0
C1747 C 0.71694 0.80278 0.86553 0.0
C1748 C 0.70141 0.78532 0.85401 0.0
C1749 C 0.70915 0.77469 0.83206 0.0
C1750 C 0.73222 0.78145 0.82194 0.0
C1751 C 0.74717 0.79979 0.83344 0.0
H1752 H 0.82583 0.88401 0.98171 0.0
H1753 H 0.79691 0.90711 0.05144 0.0
H1754 H 0.83489 0.93248 0.05913 0.0
H1755 H 0.89008 0.88145 -0.00247 0.0
H1756 H 0.9005 0.89503 0.96928 0.0
H1757 H 0.87184 0.87754 0.9701 0.0
H1758 H 0.84945 0.91514 0.95224 0.0
H1759 H 0.87826 0.93235 0.95139 0.0
H1760 H 0.85249 0.9447 0.96744 0.0
H1761 H 0.87583 0.9549 0.05936 0.0
H1762 H 0.91384 0.97873 0.04939 0.0
H1763 H 0.91589 0.94304 0.97852 0.0
C1764 C 0.82759 0.89448 -0.00144 0.0
C1765 C 0.80865 0.89359 0.01613 0.0
C1766 C 0.81125 0.90771 0.0378 0.0
C1767 C 0.83283 0.92193 0.04238 0.0
C1768 C 0.85139 0.92215 0.02488 0.0
C1769 C 0.84874 0.90931 0.00311 0.0
C1770 C 0.87052 0.91449 0.98646 0.0
C1771 C 0.88403 0.89068 0.98052 0.0
C1772 C 0.86218 0.92744 0.963 0.0
C1773 C 0.88614 0.93179 0.00249 0.0
C1774 C 0.87479 0.93572 0.02467 0.0
C1775 C 0.88495 0.95183 0.04215 0.0
C1776 C 0.90665 0.9651 0.03644 0.0
C1777 C 0.91806 0.96219 0.0135 0.0
C1778 C 0.908 0.94489 -0.00348 0.0
H1779 H 0.32232 0.5877 0.00699 0.0
H1780 H 0.28392 0.53344 0.96102 0.0
H1781 H 0.32236 0.5104 0.95702 0.0
H1782 H 0.37465 0.59211 0.97369 0.0
H1783 H 0.39562 0.59561 -0.00085 0.0
H1784 H 0.36441 0.60509 0.00212 0.0
H1785 H 0.35855 0.57653 0.03965 0.0
H1786 H 0.38993 0.56709 0.03689 0.0
H1787 H 0.36522 0.54418 0.03706 0.0
H1788 H 0.36639 0.49637 0.95402 0.0
H1789 H 0.41188 0.49331 0.95185 0.0
H1790 H 0.4205 0.55773 -0.00142 0.0
C1791 C 0.32176 0.57066 -0.00347 0.0
C1792 C 0.30014 0.56236 0.9843 0.0
C1793 C 0.30028 0.54008 0.97063 0.0
C1794 C 0.322 0.52685 0.96832 0.0
C1795 C 0.34324 0.53604 0.98002 0.0
C1796 C 0.34316 0.55736 -0.00595 0.0
C1797 C 0.36871 0.56487 0.00281 0.0
C1798 C 0.37627 0.59095 -0.00611 0.0
C1799 C 0.37071 0.56305 0.03076 0.0
C1800 C 0.3834 0.54522 -0.00952 0.0
C1801 C 0.36844 0.52834 0.9779 0.0
C1802 C 0.37822 0.50927 0.96407 0.0
C1803 C 0.40394 0.50768 0.96287 0.0
C1804 C 0.41925 0.52535 0.97506 0.0
C1805 C 0.40891 0.54403 0.98924 0.0
H1806 H 0.17416 0.55543 0.73166 0.0
H1807 H 0.11802 0.58483 0.77877 0.0
H1808 H 0.13937 0.62552 0.77864 0.0
H1809 H 0.22656 0.59092 0.75796 0.0
H1810 H 0.24097 0.59602 0.72879 0.0
H1811 H 0.2221 0.56859 0.73367 0.0
H1812 H 0.1955 0.57967 0.69609 0.0
H1813 H 0.21402 0.60737 0.69139 0.0
H1814 H 0.18123 0.60931 0.69501 0.0
H1815 H 0.16375 0.6634 0.7707 0.0
H1816 H 0.1944 0.69596 0.76055 0.0
H1817 H 0.23639 0.64285 0.71983 0.0
C1818 C 0.1668 0.5703 0.74243 0.0
C1819 C 0.14449 0.56707 0.75528 0.0
C1820 C 0.13506 0.58702 0.76877 0.0
C1821 C 0.14698 0.6102 0.76875 0.0
C1822 C 0.16833 0.61312 0.75514 0.0
C1823 C 0.17848 0.59375 0.74254 0.0
C1824 C 0.2014 0.60237 0.72899 0.0
C1825 C 0.2241 0.58866 0.7379 0.0
C1826 C 0.19782 0.5995 0.70123 0.0
C1827 C 0.20265 0.62942 0.7364 0.0
C1828 C 0.18302 0.63521 0.75103 0.0
C1829 C 0.17935 0.65911 0.75943 0.0
C1830 C 0.19668 0.67753 0.75331 0.0
C1831 C 0.21757 0.67188 0.73929 0.0
C1832 C 0.22052 0.64756 0.73056 0.0
H1833 H 0.15525 0.40195 0.51207 0.0
H1834 H 0.19276 0.47215 0.49746 0.0
H1835 H 0.15269 0.49253 0.49643 0.0
H1836 H 0.10847 0.40773 0.47172 0.0
H1837 H 0.08484 0.39332 0.49022 0.0
H1838 H 0.11638 0.38562 0.4948 0.0
H1839 H 0.11286 0.39785 0.54051 0.0
H1840 H 0.08128 0.40608 0.5358 0.0
H1841 H 0.10307 0.42834 0.54859 0.0
H1842 H 0.10865 0.50431 0.49237 0.0
H1843 H 0.06532 0.50507 0.47871 0.0
H1844 H 0.05661 0.42691 0.49351 0.0
C1845 C 0.15514 0.42174 0.50925 0.0
C1846 C 0.17723 0.43549 0.50509 0.0
C1847 C 0.17615 0.46125 0.50094 0.0
C1848 C 0.15346 0.47303 0.50054 0.0
C1849 C 0.13201 0.45886 0.50452 0.0
C1850 C 0.13268 0.43371 0.50867 0.0
C1851 C 0.107 0.42206 0.50922 0.0
C1852 C 0.10402 0.40097 0.49035 0.0
C1853 C 0.10068 0.41304 0.53506 0.0
C1854 C 0.09187 0.44411 0.50256 0.0
C1855 C 0.1065 0.46544 0.50123 0.0
C1856 C 0.09698 0.48785 0.49382 0.0
C1857 C 0.07231 0.48817 0.48629 0.0
C1858 C 0.05768 0.46614 0.48568 0.0
C1859 C 0.06729 0.44407 0.49467 0.0
H1860 H 0.82023 0.93755 0.72029 0.0
H1861 H 0.84921 0.92359 0.79242 0.0
H1862 H 0.82349 0.88512 0.79493 0.0
H1863 H 0.75722 0.90924 0.72778 0.0
H1864 H 0.75784 0.8962 0.69746 0.0
H1865 H 0.77427 0.92487 0.704 0.0
H1866 H 0.81417 0.90589 0.68761 0.0
H1867 H 0.79807 0.87701 0.6816 0.0
H1868 H 0.82501 0.87778 0.70092 0.0
H1869 H 0.79858 0.84452 0.78651 0.0
H1870 H 0.77597 0.80798 0.76852 0.0
H1871 H 0.76611 0.84919 0.70155 0.0
C1872 C 0.82009 0.92703 0.73707 0.0
C1873 C 0.83592 0.93379 0.7565 0.0
C1874 C 0.83655 0.9189 0.77766 0.0
C1875 C 0.82214 0.89697 0.77915 0.0
C1876 C 0.8075 0.89006 0.75913 0.0
C1877 C 0.80629 0.90486 0.73856 0.0
C1878 C 0.79195 0.89204 0.71827 0.0
C1879 C 0.76895 0.90645 0.7115 0.0
C1880 C 0.80827 0.88794 0.6958 0.0
C1881 C 0.78524 0.86785 0.73054 0.0
C1882 C 0.7942 0.8668 0.7541 0.0
C1883 C 0.79118 0.84534 0.76816 0.0
C1884 C 0.77843 0.82463 0.75783 0.0
C1885 C 0.76908 0.82567 0.73371 0.0
C1886 C 0.7727 0.84766 0.72016 0.0
H1887 H 0.68333 0.07292 0.50232 0.0
H1888 H 0.66593 0.10952 0.43436 0.0
H1889 H 0.62283 0.09408 0.43739 0.0
H1890 H 0.64174 0.0185 0.49536 0.0
H1891 H 0.63426 0.01883 0.52738 0.0
H1892 H 0.66395 0.03016 0.51745 0.0
H1893 H 0.65603 0.07141 0.54002 0.0
H1894 H 0.6257 0.06066 0.54875 0.0
H1895 H 0.62959 0.08897 0.53183 0.0
H1896 H 0.58127 0.07942 0.45041 0.0
H1897 H 0.54558 0.05585 0.46631 0.0
H1898 H 0.5901 0.02965 0.52631 0.0
C1899 C 0.67074 0.07667 0.48748 0.0
C1900 C 0.67778 0.09214 0.46797 0.0
C1901 C 0.66071 0.09743 0.44929 0.0
C1902 C 0.63621 0.08911 0.45108 0.0
C1903 C 0.62935 0.07577 0.47172 0.0
C1904 C 0.6462 0.06893 0.48923 0.0
C1905 C 0.63392 0.05523 0.51003 0.0
C1906 C 0.64406 0.02913 0.51268 0.0
C1907 C 0.63647 0.06995 0.53407 0.0
C1908 C 0.60764 0.05463 0.50097 0.0
C1909 C 0.60531 0.06731 0.47927 0.0
C1910 C 0.58284 0.06926 0.46729 0.0
C1911 C 0.56258 0.05614 0.4767 0.0
C1912 C 0.56528 0.04093 0.49744 0.0
C1913 C 0.58768 0.04126 0.51046 0.0
H1914 H 0.17004 0.42549 0.73023 0.0
H1915 H 0.17893 0.44478 0.80692 0.0
H1916 H 0.19971 0.40574 0.81407 0.0
H1917 H 0.15538 0.3639 0.73724 0.0
H1918 H 0.17265 0.35247 0.71178 0.0
H1919 H 0.16184 0.38355 0.71142 0.0
H1920 H 0.20629 0.40035 0.70458 0.0
H1921 H 0.21722 0.3692 0.70489 0.0
H1922 H 0.23033 0.39208 0.72554 0.0
H1923 H 0.21329 0.36311 0.81475 0.0
H1924 H 0.22044 0.31878 0.80858 0.0
H1925 H 0.20485 0.32604 0.73131 0.0
C1926 C 0.17692 0.42175 0.74839 0.0
C1927 C 0.17287 0.43828 0.76803 0.0
C1928 C 0.18191 0.43257 0.79156 0.0
C1929 C 0.19382 0.41043 0.79581 0.0
C1930 C 0.19699 0.39431 0.77627 0.0
C1931 C 0.18915 0.39972 0.75292 0.0
C1932 C 0.19349 0.37822 0.73562 0.0
C1933 C 0.1694 0.36899 0.72331 0.0
C1934 C 0.21299 0.3854 0.71653 0.0
C1935 C 0.20329 0.35932 0.75334 0.0
C1936 C 0.20561 0.36933 0.77656 0.0
C1937 C 0.21221 0.35521 0.79658 0.0
C1938 C 0.21618 0.33009 0.79292 0.0
C1939 C 0.21363 0.31932 0.76946 0.0
C1940 C 0.2076 0.33414 0.74927 0.0
H1941 H 0.33819 0.57373 0.2841 0.0
H1942 H 0.33143 0.56177 0.20599 0.0
H1943 H 0.31084 0.60193 0.20198 0.0
H1944 H 0.2803 0.60048 0.29233 0.0
H1945 H 0.2915 0.62163 0.31564 0.0
H1946 H 0.30605 0.59254 0.31131 0.0
H1947 H 0.348 0.61584 0.30563 0.0
H1948 H 0.33343 0.64504 0.30951 0.0
H1949 H 0.35104 0.63923 0.28242 0.0
H1950 H 0.28781 0.64346 0.20799 0.0
H1951 H 0.26452 0.67912 0.22392 0.0
H1952 H 0.29054 0.66352 0.29682 0.0
C1953 C 0.33249 0.57946 0.26607 0.0
C1954 C 0.3364 0.56452 0.24539 0.0
C1955 C 0.32859 0.57288 0.22216 0.0
C1956 C 0.31697 0.59573 0.21969 0.0
C1957 C 0.31357 0.61011 0.24059 0.0
C1958 C 0.3212 0.60212 0.26329 0.0
C1959 C 0.31492 0.62013 0.28321 0.0
C1960 C 0.29714 0.60798 0.30169 0.0
C1961 C 0.33825 0.63068 0.29593 0.0
C1962 C 0.30245 0.6396 0.26834 0.0
C1963 C 0.30162 0.63375 0.24376 0.0
C1964 C 0.28887 0.64838 0.22715 0.0
C1965 C 0.27599 0.66883 0.23617 0.0
C1966 C 0.27626 0.67436 0.26141 0.0
C1967 C 0.29037 0.65999 0.27732 0.0
H1968 H 0.49391 0.69313 0.55512 0.0
H1969 H 0.54155 0.66262 0.61005 0.0
H1970 H 0.5452 0.62461 0.58554 0.0
H1971 H 0.45909 0.64391 0.54757 0.0
H1972 H 0.45384 0.64558 0.5151 0.0
H1973 H 0.46177 0.67313 0.53195 0.0
H1974 H 0.49902 0.68164 0.50361 0.0
H1975 H 0.491 0.65402 0.48644 0.0
H1976 H 0.52143 0.65813 0.49929 0.0
H1977 H 0.53453 0.5862 0.56142 0.0
H1978 H 0.51049 0.55266 0.54019 0.0
H1979 H 0.47021 0.60777 0.50082 0.0
C1980 C 0.5063 0.67904 0.56112 0.0
C1981 C 0.51775 0.68089 0.58419 0.0
C1982 C 0.53289 0.66162 0.59219 0.0
C1983 C 0.53512 0.63995 0.57835 0.0
C1984 C 0.5222 0.63779 0.55638 0.0
C1985 C 0.50843 0.65708 0.54755 0.0
C1986 C 0.49279 0.64866 0.52596 0.0
C1987 C 0.46528 0.65306 0.53045 0.0
C1988 C 0.5016 0.66137 0.50243 0.0
C1989 C 0.49822 0.62135 0.52547 0.0
C1990 C 0.51584 0.61542 0.54254 0.0
C1991 C 0.52123 0.59073 0.54749 0.0
C1992 C 0.50754 0.57173 0.53541 0.0
C1993 C 0.48852 0.57771 0.51902 0.0
C1994 C 0.48478 0.60274 0.51324 0.0
H1995 H 0.5552 0.22722 0.81013 0.0
H1996 H 0.55789 0.30732 0.81521 0.0
H1997 H 0.59596 0.30861 0.791 0.0
H1998 H 0.61752 0.21864 0.81783 0.0
H1999 H 0.61946 0.19329 0.79652 0.0
H2000 H 0.59088 0.19897 0.81155 0.0
H2001 H 0.56908 0.20174 0.76947 0.0
H2002 H 0.59775 0.19627 0.75428 0.0
H2003 H 0.58067 0.22337 0.7471 0.0
H2004 H 0.63666 0.30098 0.77154 0.0
H2005 H 0.67654 0.28474 0.75913 0.0
H2006 H 0.64659 0.20998 0.76367 0.0
C2007 C 0.5635 0.24505 0.80571 0.0
C2008 C 0.55342 0.26716 0.81449 0.0
C2009 C 0.56507 0.29011 0.80854 0.0
C2010 C 0.58672 0.29106 0.79472 0.0
C2011 C 0.59633 0.26892 0.78659 0.0
C2012 C 0.585 0.24635 0.7917 0.0
C2013 C 0.60003 0.2252 0.78232 0.0
C2014 C 0.60741 0.20803 0.8033 0.0
C2015 C 0.58604 0.21079 0.76209 0.0
C2016 C 0.6221 0.23935 0.77212 0.0
C2017 C 0.61946 0.26458 0.77443 0.0
C2018 C 0.63854 0.28131 0.76874 0.0
C2019 C 0.66108 0.27198 0.76115 0.0
C2020 C 0.66437 0.24622 0.75912 0.0
C2021 C 0.64434 0.2298 0.76413 0.0
H2022 H -0.00303 0.31095 0.04169 0.0
H2023 H 0.97556 0.3288 0.11544 0.0
H2024 H 0.96594 0.37127 0.10238 0.0
H2025 H 0.0285 0.36121 0.02899 0.0
H2026 H 0.01906 0.36454 -0.00241 0.0
H2027 H 0.01751 0.33474 0.01151 0.0
H2028 H 0.97119 0.33068 0.00028 0.0
H2029 H 0.97264 0.36091 0.98654 0.0
H2030 H 0.95048 0.35411 0.01008 0.0
H2031 H 0.9709 0.41359 0.0842 0.0
H2032 H 0.98965 0.44979 0.06313 0.0
H2033 H 0.00312 0.40432 -5e-05 0.0
C2034 C 0.98934 0.32362 0.0548 0.0
C2035 C 0.98704 0.31687 0.07948 0.0
C2036 C 0.97724 0.33372 0.09637 0.0
C2037 C 0.97163 0.35781 0.08904 0.0
C2038 C 0.97507 0.36435 0.06461 0.0
C2039 C 0.98309 0.3474 0.0476 0.0
C2040 C 0.98843 0.35952 0.02332 0.0
C2041 C 0.01493 0.35474 0.01492 0.0
C2042 C 0.96955 0.35079 0.00392 0.0
C2043 C 0.98495 0.38637 0.03003 0.0
C2044 C 0.97646 0.38885 0.0537 0.0
C2045 C 0.97652 0.41193 0.06536 0.0
C2046 C 0.98702 0.43252 0.05324 0.0
C2047 C -0.00283 0.42973 0.02978 0.0
C2048 C -0.00548 0.40688 0.01753 0.0
H2049 H 0.9136 0.77164 0.36182 0.0
H2050 H 0.94364 0.70764 0.326 0.0
H2051 H 0.90734 0.70507 0.29849 0.0
H2052 H 0.85016 0.75365 0.35929 0.0
H2053 H 0.83945 0.78399 0.35208 0.0
H2054 H 0.86744 0.78079 0.36938 0.0
H2055 H 0.8916 0.80728 0.33781 0.0
H2056 H 0.8636 0.81106 0.32071 0.0
H2057 H 0.89016 0.79873 0.30598 0.0
H2058 H 0.86762 0.70764 0.27747 0.0
H2059 H 0.82964 0.72012 0.25691 0.0
H2060 H 0.8264 0.7848 0.30375 0.0
C2061 C 0.91243 0.75716 0.34808 0.0
C2062 C 0.9309 0.73956 0.34596 0.0
C2063 C 0.92941 0.72114 0.32768 0.0
C2064 C 0.90889 0.71947 0.31224 0.0
C2065 C 0.89058 0.7367 0.3152 0.0
C2066 C 0.89242 0.75564 0.33213 0.0
C2067 C 0.87088 0.77268 0.33035 0.0
C2068 C 0.85611 0.77276 0.3542 0.0
C2069 C 0.87958 0.79899 0.32328 0.0
C2070 C 0.85645 0.76013 0.30988 0.0
C2071 C 0.86805 0.73914 0.30186 0.0
C2072 C 0.85848 0.72413 0.28333 0.0
C2073 C 0.83697 0.73129 0.2719 0.0
C2074 C 0.82558 0.75338 0.27884 0.0
C2075 C 0.83495 0.7678 0.29837 0.0
H2076 H 0.47361 0.311 0.93671 0.0
H2077 H 0.53644 0.32174 0.8891 0.0
H2078 H 0.53361 0.36728 0.89452 0.0
H2079 H 0.4398 0.36245 0.91358 0.0
H2080 H 0.42703 0.36929 0.94306 0.0
H2081 H 0.43435 0.33797 0.93525 0.0
H2082 H 0.46247 0.33503 0.97355 0.0
H2083 H 0.45448 0.36588 0.98189 0.0
H2084 H 0.48635 0.35833 0.97859 0.0
H2085 H 0.52656 0.41054 0.9102 0.0
H2086 H 0.51711 0.44678 0.93528 0.0
H2087 H 0.45419 0.40764 0.96572 0.0
C2088 C 0.48712 0.32282 0.92767 0.0
C2089 C 0.5057 0.31301 0.91304 0.0
C2090 C 0.52242 0.32909 0.90082 0.0
C2091 C 0.52069 0.35483 0.90352 0.0
C2092 C 0.50158 0.36383 0.91767 0.0
C2093 C 0.48507 0.34819 0.92938 0.0
C2094 C 0.46639 0.36198 0.94385 0.0
C2095 C 0.44035 0.35767 0.93329 0.0
C2096 C 0.46752 0.3549 0.97107 0.0
C2097 C 0.47566 0.38809 0.9396 0.0
C2098 C 0.49587 0.38888 0.92429 0.0
C2099 C 0.51007 0.41042 0.92118 0.0
C2100 C 0.50422 0.43123 0.93502 0.0
C2101 C 0.48405 0.43043 0.9512 0.0
C2102 C 0.46899 0.40897 0.95259 0.0
H2103 H 0.92963 0.27191 0.18888 0.0
H2104 H 0.90812 0.23581 0.12092 0.0
H2105 H 0.8644 0.23736 0.13299 0.0
H2106 H 0.88918 0.23822 0.22534 0.0
H2107 H 0.88321 0.26345 0.24589 0.0
H2108 H 0.91177 0.26292 0.2297 0.0
H2109 H 0.90317 0.3064 0.21191 0.0
H2110 H 0.87462 0.30635 0.2283 0.0
H2111 H 0.87469 0.31119 0.1958 0.0
H2112 H 0.82343 0.23973 0.15396 0.0
H2113 H 0.79103 0.23383 0.18494 0.0
H2114 H 0.83933 0.26659 0.23983 0.0
C2115 C 0.91568 0.26468 0.17636 0.0
C2116 C 0.92224 0.25395 0.15388 0.0
C2117 C 0.90351 0.24414 0.13825 0.0
C2118 C 0.8786 0.24525 0.14482 0.0
C2119 C 0.87272 0.25614 0.16711 0.0
C2120 C 0.89082 0.26525 0.18282 0.0
C2121 C 0.88013 0.27285 0.20706 0.0
C2122 C 0.89174 0.25849 0.22822 0.0
C2123 C 0.88335 0.30088 0.21095 0.0
C2124 C 0.85329 0.26544 0.20311 0.0
C2125 C 0.84919 0.2568 0.17956 0.0
C2126 C 0.82633 0.24686 0.17227 0.0
C2127 C 0.80783 0.24392 0.18991 0.0
C2128 C 0.81255 0.25035 0.21457 0.0
C2129 C 0.83501 0.2625 0.22088 0.0
H2130 H 0.9898 0.65683 0.39235 0.0
H2131 H 0.04017 0.69086 0.44487 0.0
H2132 H 0.05099 0.64937 0.45996 0.0
H2133 H 0.96565 0.6128 0.43011 0.0
H2134 H 0.96254 0.58834 0.40777 0.0
H2135 H 0.96196 0.62005 0.39823 0.0
H2136 H -0.00204 0.61295 0.36853 0.0
H2137 H -0.00162 0.58101 0.37767 0.0
H2138 H 0.02603 0.60011 0.37983 0.0
H2139 H 0.04984 0.60563 0.47411 0.0
H2140 H 0.04093 0.56141 0.48317 0.0
H2141 H -0.00682 0.55595 0.41968 0.0
C2142 C 0.00382 0.65532 0.40637 0.0
C2143 C 0.01461 0.67652 0.41736 0.0
C2144 C 0.03224 0.67446 0.43614 0.0
C2145 C 0.03837 0.6511 0.44477 0.0
C2146 C 0.02678 0.63036 0.4341 0.0
C2147 C 0.01022 0.63223 0.41497 0.0
C2148 C -0.00129 0.60741 0.40808 0.0
C2149 C 0.97056 0.60716 0.41126 0.0
C2150 C 0.00571 0.59993 0.38198 0.0
C2151 C 0.01082 0.59138 0.42682 0.0
C2152 C 0.02685 0.60493 0.44174 0.0
C2153 C 0.03794 0.59463 0.46215 0.0
C2154 C 0.03265 0.56973 0.46728 0.0
C2155 C 0.01676 0.55564 0.45181 0.0
C2156 C 0.0059 0.56645 0.4313 0.0
H2157 H 0.56224 0.71192 0.68624 0.0
H2158 H 0.54436 0.78937 0.68369 0.0
H2159 H 0.58285 0.80009 0.70637 0.0
H2160 H 0.59512 0.71181 0.74579 0.0
H2161 H 0.61824 0.69141 0.73473 0.0
H2162 H 0.58744 0.68932 0.72237 0.0
H2163 H 0.60446 0.69549 0.67867 0.0
H2164 H 0.63522 0.69719 0.69086 0.0
H2165 H 0.62415 0.72203 0.67234 0.0
H2166 H 0.62399 0.80256 0.72669 0.0
H2167 H 0.66803 0.7982 0.73588 0.0
H2168 H 0.66131 0.71943 0.72205 0.0
C2169 C 0.56616 0.73107 0.6911 0.0
C2170 C 0.55011 0.74983 0.68389 0.0
C2171 C 0.55627 0.77477 0.68946 0.0
C2172 C 0.57796 0.78094 0.70246 0.0
C2173 C 0.59344 0.76197 0.70934 0.0
C2174 C 0.58805 0.73757 0.70341 0.0
C2175 C 0.6094 0.72117 0.70954 0.0
C2176 C 0.60211 0.70231 0.72929 0.0
C2177 C 0.61887 0.70823 0.68648 0.0
C2178 C 0.62797 0.74024 0.71934 0.0
C2179 C 0.618 0.76352 0.71978 0.0
C2180 C 0.63186 0.78442 0.72671 0.0
C2181 C 0.65681 0.78173 0.73209 0.0
C2182 C 0.66782 0.75842 0.73018 0.0
C2183 C 0.65308 0.73725 0.72451 0.0
H2184 H 0.56051 0.53278 0.67026 0.0
H2185 H 0.56701 0.45574 0.69003 0.0
H2186 H 0.54372 0.44328 0.65275 0.0
H2187 H 0.49968 0.52876 0.64133 0.0
H2188 H 0.5082 0.54967 0.61708 0.0
H2189 H 0.5228 0.55277 0.64661 0.0
H2190 H 0.5657 0.5493 0.62674 0.0
H2191 H 0.5512 0.54673 0.59721 0.0
H2192 H 0.57166 0.52318 0.60733 0.0
H2193 H 0.52195 0.43915 0.61287 0.0
H2194 H 0.50922 0.44289 0.56981 0.0
H2195 H 0.51803 0.5226 0.57473 0.0
C2196 C 0.55673 0.5133 0.66681 0.0
C2197 C 0.56523 0.49515 0.68301 0.0
C2198 C 0.5606 0.46984 0.67775 0.0
C2199 C 0.54718 0.46266 0.65682 0.0
C2200 C 0.53885 0.48104 0.64128 0.0
C2201 C 0.54386 0.50582 0.64575 0.0
C2202 C 0.5354 0.52169 0.62473 0.0
C2203 C 0.51531 0.53926 0.63294 0.0
C2204 C 0.55729 0.53605 0.61333 0.0
C2205 C 0.52509 0.5019 0.60754 0.0
C2206 C 0.52682 0.47864 0.61774 0.0
C2207 C 0.52026 0.45724 0.6048 0.0
C2208 C 0.51297 0.45955 0.58042 0.0
C2209 C 0.51238 0.48304 0.5692 0.0
C2210 C 0.51761 0.50454 0.58316 0.0
H2211 H 0.75941 0.30064 0.9334 0.0
H2212 H 0.71448 0.36464 0.92161 0.0
H2213 H 0.71548 0.35645 0.87689 0.0
H2214 H 0.79862 0.31097 0.88147 0.0
H2215 H 0.80151 0.27829 0.8761 0.0
H2216 H 0.79716 0.2897 0.90668 0.0
H2217 H 0.75851 0.2608 0.91184 0.0
H2218 H 0.76332 0.24877 0.88173 0.0
H2219 H 0.73415 0.26166 0.88942 0.0
H2220 H 0.71972 0.33856 0.83383 0.0
H2221 H 0.72349 0.31095 0.79778 0.0
H2222 H 0.76859 0.26216 0.83998 0.0
C2223 C 0.74959 0.31307 0.92164 0.0
C2224 C 0.73678 0.33324 0.93094 0.0
C2225 C 0.72428 0.34894 0.91475 0.0
C2226 C 0.72506 0.34464 0.88942 0.0
C2227 C 0.73888 0.32503 0.88095 0.0
C2228 C 0.75083 0.30958 0.89676 0.0
C2229 C 0.76393 0.28933 0.88383 0.0
C2230 C 0.79196 0.29227 0.88722 0.0
C2231 C 0.75438 0.26365 0.89219 0.0
C2232 C 0.75642 0.29479 0.85808 0.0
C2233 C 0.74237 0.31572 0.85651 0.0
C2234 C 0.7312 0.32259 0.8347 0.0
C2235 C 0.73352 0.30698 0.81438 0.0
C2236 C 0.74663 0.28493 0.81653 0.0
C2237 C 0.75901 0.27934 0.83812 0.0
H2238 H 0.90898 0.52668 0.16647 0.0
H2239 H 0.97391 0.49294 0.19641 0.0
H2240 H -0.00388 0.50156 0.15824 0.0
H2241 H 0.91201 0.50106 0.11038 0.0
H2242 H 0.90207 0.52723 0.09306 0.0
H2243 H 0.89288 0.52379 0.12432 0.0
H2244 H 0.91156 0.56724 0.13462 0.0
H2245 H 0.92068 0.57093 0.10321 0.0
H2246 H 0.94323 0.57439 0.12732 0.0
H2247 H 0.0088 0.50684 0.11549 0.0
H2248 H 0.01134 0.50856 0.07076 0.0
H2249 H 0.93824 0.53867 0.06751 0.0
C2250 C 0.92816 0.52199 0.16529 0.0
C2251 C 0.93978 0.50929 0.18443 0.0
C2252 C 0.96468 0.50276 0.18199 0.0
C2253 C 0.9775 0.50771 0.16042 0.0
C2254 C 0.96524 0.51935 0.1415 0.0
C2255 C 0.9412 0.52664 0.14374 0.0
C2256 C 0.93139 0.53603 0.11963 0.0
C2257 C 0.90824 0.52113 0.11137 0.0
C2258 C 0.92642 0.5638 0.1213 0.0
C2259 C 0.95309 0.53128 0.1032 0.0
C2260 C 0.97262 0.52227 0.11636 0.0
C2261 C -0.00613 0.51441 0.10504 0.0
C2262 C -0.00494 0.51535 0.07956 0.0
C2263 C 0.97502 0.52386 0.06557 0.0
C2264 C 0.95403 0.5325 0.07768 0.0
H2265 H 0.75343 0.64356 0.41154 0.0
H2266 H 0.77752 0.7113 0.44771 0.0
H2267 H 0.78622 0.73046 0.40764 0.0
H2268 H 0.7932 0.64961 0.35376 0.0
H2269 H 0.76794 0.63822 0.33505 0.0
H2270 H 0.77151 0.62705 0.36581 0.0
H2271 H 0.72713 0.63995 0.37593 0.0
H2272 H 0.7235 0.65067 0.34528 0.0
H2273 H 0.71848 0.6714 0.37052 0.0
H2274 H 0.7853 0.74459 0.36452 0.0
H2275 H 0.76714 0.75489 0.32454 0.0
H2276 H 0.73984 0.67951 0.31637 0.0
C2277 C 0.7617 0.662 0.41088 0.0
C2278 C 0.76561 0.67578 0.43253 0.0
C2279 C 0.77502 0.70034 0.43123 0.0
C2280 C 0.78016 0.71126 0.40855 0.0
C2281 C 0.77543 0.69747 0.38733 0.0
C2282 C 0.76612 0.67338 0.38833 0.0
C2283 C 0.75739 0.66444 0.36339 0.0
C2284 C 0.77348 0.6436 0.35395 0.0
C2285 C 0.73002 0.65617 0.36382 0.0
C2286 C 0.76157 0.68776 0.34859 0.0
C2287 C 0.77322 0.70619 0.36238 0.0
C2288 C 0.7767 0.73015 0.3534 0.0
C2289 C 0.76657 0.73583 0.33053 0.0
C2290 C 0.75267 0.71777 0.31732 0.0
C2291 C 0.75122 0.69327 0.32586 0.0
H2292 H 0.60238 0.51803 0.83116 0.0
H2293 H 0.55328 0.46133 0.80106 0.0
H2294 H 0.53471 0.45497 0.84184 0.0
H2295 H 0.60752 0.48987 0.89598 0.0
H2296 H 0.60802 0.52043 0.90924 0.0
H2297 H 0.62189 0.51537 0.87989 0.0
H2298 H 0.59493 0.54927 0.86119 0.0
H2299 H 0.58112 0.55431 0.89031 0.0
H2300 H 0.56195 0.5467 0.86422 0.0
H2301 H 0.51472 0.46298 0.88155 0.0
H2302 H 0.49593 0.48384 0.91678 0.0
H2303 H 0.55916 0.53367 0.9225 0.0
C2304 C 0.58852 0.50349 0.8336 0.0
C2305 C 0.57939 0.48982 0.81343 0.0
C2306 C 0.5607 0.47154 0.81663 0.0
C2307 C 0.55016 0.4678 0.8397 0.0
C2308 C 0.55892 0.48226 0.85927 0.0
C2309 C 0.57806 0.49945 0.85653 0.0
C2310 C 0.58165 0.51524 0.87922 0.0
C2311 C 0.60623 0.50989 0.89183 0.0
C2312 C 0.57977 0.54299 0.87336 0.0
C2313 C 0.56019 0.50583 0.89431 0.0
C2314 C 0.54768 0.48631 0.88284 0.0
C2315 C 0.52495 0.47741 0.89128 0.0
C2316 C 0.51445 0.4892 0.91139 0.0
C2317 C 0.52683 0.50936 0.9229 0.0
C2318 C 0.55015 0.51734 0.91467 0.0
H2319 H 0.75293 0.34872 0.08274 0.0
H2320 H 0.72352 0.28445 0.0439 0.0
H2321 H 0.71688 0.26274 0.08328 0.0
H2322 H 0.7859 0.31405 0.12745 0.0
H2323 H 0.78077 0.33582 0.15175 0.0
H2324 H 0.78234 0.34631 0.12062 0.0
H2325 H 0.73937 0.36547 0.12471 0.0
H2326 H 0.73785 0.3553 0.1559 0.0
H2327 H 0.71366 0.34638 0.1347 0.0
H2328 H 0.71532 0.24796 0.12688 0.0
H2329 H 0.71568 0.24241 0.17188 0.0
H2330 H 0.74585 0.31688 0.18109 0.0
C2331 C 0.74457 0.33029 0.08273 0.0
C2332 C 0.73803 0.31824 0.06085 0.0
C2333 C 0.72802 0.29388 0.06091 0.0
C2334 C 0.72444 0.28146 0.08302 0.0
C2335 C 0.73144 0.29372 0.1045 0.0
C2336 C 0.74124 0.31762 0.1045 0.0
C2337 C 0.7479 0.32651 0.12986 0.0
C2338 C 0.77588 0.33092 0.13256 0.0
C2339 C 0.73383 0.34978 0.13669 0.0
C2340 C 0.73928 0.30432 0.14429 0.0
C2341 C 0.73041 0.28533 0.12939 0.0
C2342 C 0.72208 0.26272 0.13875 0.0
C2343 C 0.72241 0.25969 0.16414 0.0
C2344 C 0.73054 0.2794 0.17945 0.0
C2345 C 0.73927 0.30178 0.16948 0.0
H2346 H 0.90688 0.45571 0.31791 0.0
H2347 H 0.89674 0.53482 0.31526 0.0
H2348 H 0.90119 0.53695 0.36036 0.0
H2349 H 0.87686 0.44487 0.37946 0.0
H2350 H 0.89895 0.4218 0.38678 0.0
H2351 H 0.88916 0.42591 0.35559 0.0
H2352 H 0.93457 0.43257 0.34237 0.0
H2353 H 0.94441 0.42825 0.37327 0.0
H2354 H 0.95335 0.45616 0.35737 0.0
H2355 H 0.91533 0.53148 0.40345 0.0
H2356 H 0.94029 0.51996 0.43896 0.0
H2357 H 0.93996 0.44406 0.41374 0.0
C2358 C 0.90514 0.47347 0.32683 0.0
C2359 C 0.90182 0.49517 0.3132 0.0
C2360 C 0.89938 0.518 0.32547 0.0
C2361 C 0.90163 0.51929 0.35104 0.0
C2362 C 0.90562 0.49749 0.36391 0.0
C2363 C 0.90709 0.47496 0.35212 0.0
C2364 C 0.91482 0.45476 0.36922 0.0
C2365 C 0.89368 0.43572 0.37299 0.0
C2366 C 0.93817 0.44224 0.36002 0.0
C2367 C 0.9197 0.46978 0.39213 0.0
C2368 C 0.91338 0.49422 0.38904 0.0
C2369 C 0.91949 0.51228 0.40642 0.0
C2370 C 0.93348 0.5055 0.42673 0.0
C2371 C 0.9413 0.48092 0.42939 0.0
C2372 C 0.93342 0.46273 0.41244 0.0
H2373 H 0.77257 0.69537 0.55904 0.0
H2374 H 0.74942 0.62072 0.57772 0.0
H2375 H 0.75577 0.63058 0.6217 0.0
H2376 H 0.8195 0.704 0.61041 0.0
H2377 H 0.81172 0.736 0.61366 0.0
H2378 H 0.81003 0.72128 0.58409 0.0
H2379 H 0.76454 0.73382 0.57972 0.0
H2380 H 0.76612 0.74848 0.60912 0.0
H2381 H 0.74285 0.72481 0.60304 0.0
H2382 H 0.75613 0.65197 0.66365 0.0
H2383 H 0.752 0.68178 0.69788 0.0
H2384 H 0.7783 0.74092 0.6509 0.0
C2385 C 0.76973 0.68089 0.5724 0.0
C2386 C 0.76068 0.65735 0.56523 0.0
C2387 C 0.75673 0.63881 0.58302 0.0
C2388 C 0.76029 0.64427 0.60798 0.0
C2389 C 0.76849 0.6681 0.61462 0.0
C2390 C 0.77373 0.68589 0.59715 0.0
C2391 C 0.77994 0.71072 0.60863 0.0
C2392 C 0.8069 0.71844 0.60392 0.0
C2393 C 0.76231 0.73059 0.5996 0.0
C2394 C 0.77584 0.70466 0.63519 0.0
C2395 C 0.76957 0.67997 0.63856 0.0
C2396 C 0.76175 0.67116 0.6613 0.0
C2397 C 0.7595 0.68817 0.6807 0.0
C2398 C 0.76483 0.71363 0.67702 0.0
C2399 C 0.7742 0.72154 0.65431 0.0
H2400 H 0.6574 0.60863 0.51719 0.0
H2401 H 0.68861 0.5849 0.44866 0.0
H2402 H 0.64934 0.56299 0.43801 0.0
H2403 H 0.62513 0.54992 0.52814 0.0
H2404 H 0.59959 0.56407 0.54301 0.0
H2405 H 0.62966 0.57882 0.54427 0.0
H2406 H 0.6113 0.61857 0.52645 0.0
H2407 H 0.58131 0.60362 0.5245 0.0
H2408 H 0.5951 0.61708 0.49764 0.0
H2409 H 0.60704 0.54405 0.43471 0.0
H2410 H 0.56717 0.52244 0.44212 0.0
H2411 H 0.56361 0.55646 0.51367 0.0
C2412 C 0.65586 0.59875 0.49997 0.0
C2413 C 0.67582 0.5985 0.48358 0.0
C2414 C 0.67348 0.58515 0.46142 0.0
C2415 C 0.6512 0.57293 0.45515 0.0
C2416 C 0.63165 0.57391 0.47147 0.0
C2417 C 0.63396 0.58588 0.49374 0.0
C2418 C 0.6109 0.58209 0.50894 0.0
C2419 C 0.61666 0.56788 0.53247 0.0
C2420 C 0.59895 0.60682 0.51471 0.0
C2421 C 0.59509 0.56649 0.49152 0.0
C2422 C 0.60736 0.5623 0.46989 0.0
C2423 C 0.59718 0.54737 0.45145 0.0
C2424 C 0.57443 0.5354 0.45568 0.0
C2425 C 0.56214 0.53845 0.4781 0.0
C2426 C 0.57225 0.55468 0.496 0.0
H2427 H 0.17295 0.93355 0.46039 0.0
H2428 H 0.1928 0.93201 0.53711 0.0
H2429 H 0.15696 0.95715 0.54683 0.0
H2430 H 0.14366 -0.00346 0.45993 0.0
H2431 H 0.11958 0.98554 0.43952 0.0
H2432 H 0.14989 0.97303 0.43756 0.0
H2433 H 0.13131 0.92877 0.44289 0.0
H2434 H 0.10112 0.94116 0.4446 0.0
H2435 H 0.11219 0.92204 0.46894 0.0
H2436 H 0.11643 0.97531 0.54933 0.0
H2437 H 0.07192 0.98161 0.54513 0.0
H2438 H 0.07676 0.97104 0.46696 0.0
C2439 C 0.1702 0.93934 0.4791 0.0
C2440 C 0.18575 0.93128 0.49801 0.0
C2441 C 0.18115 0.93825 0.5224 0.0
C2442 C 0.16099 0.9527 0.52803 0.0
C2443 C 0.1456 0.9599 0.50905 0.0
C2444 C 0.14986 0.95337 0.48504 0.0
C2445 C 0.12834 0.95972 0.46871 0.0
C2446 C 0.13582 0.97992 0.45035 0.0
C2447 C 0.11761 0.93654 0.45554 0.0
C2448 C 0.11072 0.96947 0.48753 0.0
C2449 C 0.12143 0.97017 0.51054 0.0
C2450 C 0.10803 0.97552 0.53138 0.0
C2451 C 0.0828 0.9791 0.52885 0.0
C2452 C 0.07131 0.97731 0.5057 0.0
C2453 C 0.0855 0.97341 0.48467 0.0
H2454 H 0.33649 0.91695 0.70057 0.0
H2455 H 0.33026 0.95043 0.77226 0.0
H2456 H 0.30819 0.91301 0.78706 0.0
H2457 H 0.27394 0.88478 0.70342 0.0
H2458 H 0.28456 0.85899 0.68587 0.0
H2459 H 0.29749 0.88954 0.68078 0.0
H2460 H 0.34102 0.87261 0.68855 0.0
H2461 H 0.32789 0.84235 0.69441 0.0
H2462 H 0.34745 0.8574 0.71702 0.0
H2463 H 0.2903 0.87071 0.79494 0.0
H2464 H 0.27011 0.82908 0.79312 0.0
H2465 H 0.28846 0.82324 0.71655 0.0
C2466 C 0.32966 0.91664 0.7191 0.0
C2467 C 0.33481 0.93644 0.73526 0.0
C2468 C 0.32597 0.93553 0.7595 0.0
C2469 C 0.31375 0.91425 0.76816 0.0
C2470 C 0.31012 0.89444 0.75212 0.0
C2471 C 0.31695 0.89578 0.72788 0.0
C2472 C 0.31036 0.87208 0.71435 0.0
C2473 C 0.2904 0.87662 0.69497 0.0
C2474 C 0.33307 0.86044 0.70294 0.0
C2475 C 0.30027 0.85667 0.73514 0.0
C2476 C 0.30006 0.86998 0.75674 0.0
C2477 C 0.2904 0.86005 0.77818 0.0
C2478 C 0.27936 0.83636 0.77712 0.0
C2479 C 0.27864 0.82295 0.75493 0.0
C2480 C 0.28983 0.83287 0.73393 0.0
H2481 H 0.32775 0.09116 0.00452 0.0
H2482 H 0.3072 0.05684 0.93539 0.0
H2483 H 0.34653 0.03486 0.9351 0.0
H2484 H 0.39429 0.09845 -0.00935 0.0
H2485 H 0.40309 0.09237 0.02176 0.0
H2486 H 0.37439 0.10695 0.01532 0.0
H2487 H 0.35072 0.07267 0.03933 0.0
H2488 H 0.37935 0.05841 0.04614 0.0
H2489 H 0.3549 0.04071 0.03133 0.0
H2490 H 0.3868 0.01331 0.94483 0.0
H2491 H 0.42163 0.99287 0.96517 0.0
H2492 H 0.41641 0.04315 0.02632 0.0
C2493 C 0.33153 0.0791 0.98925 0.0
C2494 C 0.31428 0.07558 0.97006 0.0
C2495 C 0.3201 0.0598 0.95032 0.0
C2496 C 0.34249 0.04736 0.94993 0.0
C2497 C 0.35913 0.05129 0.96915 0.0
C2498 C 0.3539 0.06693 0.98837 0.0
C2499 C 0.37418 0.06721 0.00742 0.0
C2500 C 0.38725 0.09277 0.00886 0.0
C2501 C 0.36419 0.05925 0.03252 0.0
C2502 C 0.39095 0.04817 -0.0033 0.0
C2503 C 0.38239 0.03956 0.97432 0.0
C2504 C 0.39395 0.02039 0.96205 0.0
C2505 C 0.41401 0.0091 0.97348 0.0
C2506 C 0.42219 0.01704 -0.00317 0.0
C2507 C 0.41096 0.03728 0.00809 0.0
H2508 H 0.67509 0.57224 0.71923 0.0
H2509 H 0.64378 0.56406 0.79149 0.0
H2510 H 0.66104 0.6049 0.80326 0.0
H2511 H 0.73369 0.60366 0.74268 0.0
H2512 H 0.73643 0.62321 0.71621 0.0
H2513 H 0.72207 0.59289 0.7135 0.0
H2514 H 0.68362 0.61287 0.69487 0.0
H2515 H 0.69756 0.6433 0.69852 0.0
H2516 H 0.66803 0.63621 0.71194 0.0
H2517 H 0.67437 0.64832 0.80505 0.0
H2518 H 0.69951 0.6867 0.80457 0.0
H2519 H 0.72971 0.66608 0.73454 0.0
C2520 C 0.67288 0.57868 0.73781 0.0
C2521 C 0.65823 0.56499 0.7546 0.0
C2522 C 0.6552 0.57417 0.77856 0.0
C2523 C 0.66454 0.59752 0.78526 0.0
C2524 C 0.67751 0.61127 0.76798 0.0
C2525 C 0.68306 0.60183 0.74526 0.0
C2526 C 0.69923 0.62031 0.73122 0.0
C2527 C 0.72436 0.60937 0.72558 0.0
C2528 C 0.68633 0.62866 0.70774 0.0
C2529 C 0.70158 0.64148 0.74967 0.0
C2530 C 0.68781 0.63602 0.77016 0.0
C2531 C 0.6857 0.65264 0.78938 0.0
C2532 C 0.69974 0.6746 0.78874 0.0
C2533 C 0.71643 0.6794 0.76953 0.0
C2534 C 0.7167 0.66313 0.74918 0.0
H2535 H 0.82297 0.4006 0.96251 0.0
H2536 H 0.80682 0.41258 0.03895 0.0
H2537 H 0.84739 0.43393 0.04453 0.0
H2538 H 0.88514 0.38857 0.96824 0.0
H2539 H 0.89513 0.40533 0.94156 0.0
H2540 H 0.86434 0.39227 0.94286 0.0
H2541 H 0.84596 0.43509 0.93476 0.0
H2542 H 0.87667 0.44812 0.93239 0.0
H2543 H 0.85535 0.4611 0.95365 0.0
H2544 H 0.89124 0.44811 0.04284 0.0
H2545 H 0.93161 0.46673 0.03186 0.0
H2546 H 0.91751 0.44968 0.9556 0.0
C2547 C 0.82781 0.40841 0.9802 0.0
C2548 C 0.81217 0.4052 0.00037 0.0
C2549 C 0.81874 0.4153 0.02336 0.0
C2550 C 0.84176 0.42707 0.02671 0.0
C2551 C 0.85741 0.42884 0.00671 0.0
C2552 C 0.85037 0.42075 0.98368 0.0
C2553 C 0.87034 0.42573 0.9651 0.0
C2554 C 0.87926 0.40153 0.95379 0.0
C2555 C 0.86156 0.44359 0.94532 0.0
C2556 C 0.88987 0.43763 0.98139 0.0
C2557 C 0.88225 0.43851 0.00543 0.0
C2558 C 0.89734 0.44783 0.02408 0.0
C2559 C 0.92031 0.45793 0.01775 0.0
C2560 C 0.92748 0.45912 -0.00698 0.0
C2561 C 0.91245 0.44839 0.97465 0.0
H2562 H 0.33297 0.07002 0.72139 0.0
H2563 H 0.30602 0.05037 0.79334 0.0
H2564 H 0.27917 0.0865 0.79277 0.0
H2565 H 0.33709 0.13331 0.73062 0.0
H2566 H 0.32736 0.14131 0.70023 0.0
H2567 H 0.34212 0.11251 0.70544 0.0
H2568 H 0.30479 0.08884 0.68576 0.0
H2569 H 0.28982 0.11766 0.68064 0.0
H2570 H 0.27437 0.09337 0.69753 0.0
H2571 H 0.25855 0.12725 0.78588 0.0
H2572 H 0.24709 0.16932 0.77382 0.0
H2573 H 0.2871 0.16111 0.70605 0.0
C2574 C 0.32121 0.07309 0.73693 0.0
C2575 C 0.32161 0.05741 0.75743 0.0
C2576 C 0.30596 0.06212 0.7774 0.0
C2577 C 0.29058 0.08253 0.7772 0.0
C2578 C 0.29083 0.09777 0.75674 0.0
C2579 C 0.30567 0.09316 0.73693 0.0
C2580 C 0.30384 0.1131 0.71784 0.0
C2581 C 0.32909 0.1258 0.71329 0.0
C2582 C 0.29253 0.10261 0.69404 0.0
C2583 C 0.28646 0.13025 0.73044 0.0
C2584 C 0.2788 0.12096 0.75268 0.0
C2585 C 0.26411 0.1345 0.76831 0.0
C2586 C 0.25767 0.1584 0.76129 0.0
C2587 C 0.26618 0.16858 0.73897 0.0
C2588 C 0.28011 0.15389 0.72313 0.0
H2589 H 0.18652 0.92535 0.27776 0.0
H2590 H 0.12775 0.9171 0.22421 0.0
H2591 H 0.1375 0.87317 0.21874 0.0
H2592 H 0.22906 0.89039 0.24616 0.0
H2593 H 0.24236 0.87686 0.27302 0.0
H2594 H 0.22819 0.90636 0.27509 0.0
H2595 H 0.20017 0.88897 0.30935 0.0
H2596 H 0.21346 0.85898 0.30657 0.0
H2597 H 0.18074 0.862 0.3035 0.0
H2598 H 0.15511 0.83126 0.21674 0.0
H2599 H 0.18443 0.79772 0.21176 0.0
H2600 H 0.23322 0.83298 0.26484 0.0
C2601 C 0.17556 0.9142 0.26508 0.0
C2602 C 0.15628 0.92465 0.25151 0.0
C2603 C 0.14263 0.90956 0.23478 0.0
C2604 C 0.14782 0.88447 0.23179 0.0
C2605 C 0.16681 0.87467 0.24556 0.0
C2606 C 0.18079 0.88917 0.26154 0.0
C2607 C 0.20203 0.87486 0.27188 0.0
C2608 C 0.22687 0.88788 0.26617 0.0
C2609 C 0.1989 0.87099 0.29947 0.0
C2610 C 0.19869 0.85055 0.25809 0.0
C2611 C 0.17759 0.85049 0.24385 0.0
C2612 C 0.17143 0.83092 0.22812 0.0
C2613 C 0.18802 0.81173 0.22564 0.0
C2614 C 0.2106 0.81239 0.23854 0.0
C2615 C 0.21554 0.83151 0.25567 0.0
H2616 H 0.50903 0.33052 0.39906 0.0
H2617 H 0.44042 0.31039 0.43491 0.0
H2618 H 0.43668 0.35337 0.4492 0.0
H2619 H 0.53184 0.36944 0.4456 0.0
H2620 H 0.54652 0.39124 0.42519 0.0
H2621 H 0.54186 0.35958 0.41589 0.0
H2622 H 0.51856 0.37441 0.37735 0.0
H2623 H 0.52259 0.40614 0.38713 0.0
H2624 H 0.49217 0.39351 0.38084 0.0
H2625 H 0.44279 0.39761 0.46358 0.0
H2626 H 0.46101 0.43671 0.48024 0.0
H2627 H 0.52413 0.42854 0.43355 0.0
C2628 C 0.49313 0.33516 0.40977 0.0
C2629 C 0.47507 0.31697 0.4158 0.0
C2630 C 0.4546 0.3239 0.43002 0.0
C2631 C 0.45214 0.34839 0.43804 0.0
C2632 C 0.47016 0.36592 0.43157 0.0
C2633 C 0.49034 0.35954 0.41788 0.0
C2634 C 0.50831 0.3812 0.41534 0.0
C2635 C 0.53361 0.37499 0.42616 0.0
C2636 C 0.51052 0.38929 0.38857 0.0
C2637 C 0.49559 0.40047 0.4305 0.0
C2638 C 0.47333 0.39156 0.43936 0.0
C2639 C 0.45984 0.40507 0.45623 0.0
C2640 C 0.47013 0.42746 0.46541 0.0
C2641 C 0.4937 0.43577 0.45778 0.0
C2642 C 0.50575 0.42284 0.43912 0.0
H2643 H 0.4292 0.77175 0.16909 0.0
H2644 H 0.42658 0.69153 0.17172 0.0
H2645 H 0.38714 0.69229 0.19327 0.0
H2646 H 0.40561 0.78216 0.22723 0.0
H2647 H 0.38677 0.8078 0.21925 0.0
H2648 H 0.41395 0.80169 0.20185 0.0
H2649 H 0.3884 0.79868 0.16182 0.0
H2650 H 0.36131 0.80581 0.1789 0.0
H2651 H 0.36168 0.77822 0.16035 0.0
H2652 H 0.35177 0.70123 0.21886 0.0
H2653 H 0.31487 0.71753 0.23788 0.0
H2654 H 0.33835 0.79209 0.21755 0.0
C2655 C 0.41989 0.75442 0.17358 0.0
C2656 C 0.43093 0.7316 0.16911 0.0
C2657 C 0.41845 0.70921 0.17535 0.0
C2658 C 0.39615 0.70942 0.18769 0.0
C2659 C 0.38654 0.73218 0.1934 0.0
C2660 C 0.39741 0.75427 0.18591 0.0
C2661 C 0.38282 0.77605 0.19447 0.0
C2662 C 0.39821 0.79292 0.21172 0.0
C2663 C 0.37295 0.79054 0.17258 0.0
C2664 C 0.36229 0.76262 0.20808 0.0
C2665 C 0.3652 0.73737 0.20759 0.0
C2666 C 0.34902 0.72096 0.21918 0.0
C2667 C 0.32829 0.73048 0.23028 0.0
C2668 C 0.32371 0.7561 0.22914 0.0
C2669 C 0.34146 0.77245 0.21877 0.0
H2670 H 0.98508 0.65776 0.88643 0.0
H2671 H 0.02637 0.69444 0.94449 0.0
H2672 H 0.0371 0.65372 0.9615 0.0
H2673 H 0.95704 0.61472 0.92085 0.0
H2674 H 0.95757 0.5897 0.89901 0.0
H2675 H 0.95868 0.62103 0.88859 0.0
H2676 H -0.00102 0.61232 0.86541 0.0
H2677 H -0.00187 0.58091 0.87633 0.0
H2678 H 0.02496 0.60053 0.88178 0.0
H2679 H 0.03527 0.61044 0.97687 0.0
H2680 H 0.01851 0.56999 -0.00947 0.0
H2681 H 0.98011 0.56037 0.9218 0.0
C2682 C -0.00289 0.65703 0.90222 0.0
C2683 C 0.00522 0.67893 0.91409 0.0
C2684 C 0.02031 0.67767 0.93508 0.0
C2685 C 0.0266 0.65465 0.9447 0.0
C2686 C 0.01786 0.63316 0.93289 0.0
C2687 C 0.00355 0.6342 0.91194 0.0
C2688 C -0.00666 0.60884 0.90479 0.0
C2689 C 0.965 0.60857 0.90326 0.0
C2690 C 0.00453 0.60014 0.88064 0.0
C2691 C 0.00242 0.59366 0.926 0.0
C2692 C 0.01726 0.60781 0.94162 0.0
C2693 C 0.02452 0.59892 0.96436 0.0
C2694 C 0.01518 0.57573 0.97191 0.0
C2695 C -0.00098 0.56165 0.95669 0.0
C2696 C -0.00643 0.57025 0.9331 0.0
H2697 H 0.08562 0.2772 0.65421 0.0
H2698 H 0.04146 0.21167 0.67157 0.0
H2699 H 0.07604 0.19534 0.69539 0.0
H2700 H 0.14222 0.25019 0.64658 0.0
H2701 H 0.16033 0.274 0.66204 0.0
H2702 H 0.13182 0.28153 0.64736 0.0
H2703 H 0.1152 0.29942 0.68793 0.0
H2704 H 0.14418 0.29295 0.70223 0.0
H2705 H 0.11594 0.28084 0.71513 0.0
H2706 H 0.11568 0.18586 0.71638 0.0
H2707 H 0.15552 0.18716 0.73864 0.0
H2708 H 0.17394 0.25796 0.70588 0.0
C2709 C 0.08313 0.25971 0.66354 0.0
C2710 C 0.06103 0.24571 0.6613 0.0
C2711 C 0.05822 0.22283 0.67355 0.0
C2712 C 0.07783 0.21325 0.68678 0.0
C2713 C 0.09981 0.22705 0.6878 0.0
C2714 C 0.10232 0.2501 0.67715 0.0
C2715 C 0.1275 0.26165 0.68188 0.0
C2716 C 0.14126 0.26715 0.65803 0.0
C2717 C 0.12559 0.28509 0.69773 0.0
C2718 C 0.13912 0.24104 0.6959 0.0
C2719 C 0.12282 0.22129 0.69932 0.0
C2720 C 0.12871 0.20108 0.71367 0.0
C2721 C 0.15135 0.20182 0.72601 0.0
C2722 C 0.16773 0.22238 0.72337 0.0
C2723 C 0.16201 0.24165 0.70738 0.0
H2724 H 0.50808 0.68578 0.07509 0.0
H2725 H 0.53305 0.64747 0.13976 0.0
H2726 H 0.53612 0.60905 0.11579 0.0
H2727 H 0.47017 0.63861 0.05266 0.0
H2728 H 0.47708 0.64373 0.02091 0.0
H2729 H 0.47974 0.66897 0.04232 0.0
H2730 H 0.52515 0.67708 0.02968 0.0
H2731 H 0.52254 0.65196 0.00802 0.0
H2732 H 0.54645 0.65219 0.03095 0.0
H2733 H 0.53209 0.57381 0.08585 0.0
H2734 H 0.52324 0.54515 0.05135 0.0
H2735 H 0.50092 0.60697 0.00705 0.0
C2736 C 0.51466 0.66945 0.08411 0.0
C2737 C 0.52026 0.66958 0.10924 0.0
C2738 C 0.52869 0.64779 0.12045 0.0
C2739 C 0.53053 0.62588 0.10702 0.0
C2740 C 0.52419 0.6262 0.08239 0.0
C2741 C 0.51672 0.6475 0.07098 0.0
C2742 C 0.50959 0.64265 0.0447 0.0
C2743 C 0.48254 0.64885 0.03989 0.0
C2744 C 0.52698 0.65681 0.02732 0.0
C2745 C 0.51339 0.61517 0.04338 0.0
C2746 C 0.522 0.60598 0.06518 0.0
C2747 C 0.52561 0.58083 0.06857 0.0
C2748 C 0.52028 0.56466 0.04904 0.0
C2749 C 0.51125 0.5738 0.02665 0.0
C2750 C 0.50804 0.5994 0.02385 0.0
H2751 H 0.06109 0.73076 0.78988 0.0
H2752 H 0.0838 0.73999 0.86542 0.0
H2753 H 0.12722 0.73619 0.85339 0.0
H2754 H 0.11061 0.68871 0.76984 0.0
H2755 H 0.11379 0.70419 0.74092 0.0
H2756 H 0.08433 0.70261 0.75584 0.0
H2757 H 0.08184 0.75044 0.75452 0.0
H2758 H 0.11078 0.75187 0.739 0.0
H2759 H 0.10695 0.76914 0.76688 0.0
H2760 H 0.16813 0.7367 0.83288 0.0
H2761 H 0.20202 0.74947 0.80536 0.0
H2762 H 0.15311 0.74067 0.74328 0.0
C2763 C 0.0752 0.73139 0.80391 0.0
C2764 C 0.06913 0.7354 0.82857 0.0
C2765 C 0.08809 0.7369 0.84639 0.0
C2766 C 0.11278 0.73442 0.83977 0.0
C2767 C 0.11824 0.73052 0.81524 0.0
C2768 C 0.09996 0.72938 0.79754 0.0
C2769 C 0.11077 0.7292 0.77217 0.0
C2770 C 0.1045 0.70471 0.75892 0.0
C2771 C 0.10209 0.75149 0.75729 0.0
C2772 C 0.13794 0.73143 0.77832 0.0
C2773 C 0.14197 0.73131 0.80327 0.0
C2774 C 0.16531 0.73621 0.81331 0.0
C2775 C 0.18458 0.74314 0.79757 0.0
C2776 C 0.18012 0.74539 0.7723 0.0
C2777 C 0.15702 0.73808 0.7625 0.0
H2778 H 0.97605 0.32596 0.60175 0.0
H2779 H -0.00803 0.29023 0.53285 0.0
H2780 H 0.98052 0.32783 0.51075 0.0
H2781 H 0.92509 0.3656 0.57966 0.0
H2782 H 0.93569 0.39142 0.59821 0.0
H2783 H 0.94027 0.36025 0.60841 0.0
H2784 H 0.98707 0.36982 0.61276 0.0
H2785 H 0.98264 0.40092 0.6026 0.0
H2786 H 0.00392 0.38161 0.58685 0.0
H2787 H 0.97279 0.36982 0.49663 0.0
H2788 H 0.97156 0.41481 0.49114 0.0
H2789 H 0.96219 0.42442 0.5693 0.0
C2790 C 0.97619 0.32587 0.58197 0.0
C2791 C 0.98435 0.30526 0.56885 0.0
C2792 C 0.98543 0.3059 0.54308 0.0
C2793 C 0.97886 0.32706 0.53041 0.0
C2794 C 0.97143 0.34738 0.54385 0.0
C2795 C 0.97016 0.34707 0.56906 0.0
C2796 C 0.96502 0.37245 0.57922 0.0
C2797 C 0.94002 0.37242 0.59213 0.0
C2798 C 0.98591 0.38173 0.59635 0.0
C2799 C 0.96441 0.38717 0.55582 0.0
C2800 C 0.96765 0.37221 0.53564 0.0
C2801 C 0.96981 0.38173 0.5122 0.0
C2802 C 0.96919 0.40733 0.50931 0.0
C2803 C 0.96672 0.42311 0.52981 0.0
C2804 C 0.96366 0.4128 0.55326 0.0
H2805 H 0.42065 0.21188 0.31929 0.0
H2806 H 0.43837 0.29026 0.32201 0.0
H2807 H 0.40476 0.29799 0.29254 0.0
H2808 H 0.40021 0.21099 0.25151 0.0
H2809 H 0.37678 0.18778 0.25809 0.0
H2810 H 0.40551 0.18821 0.27471 0.0
H2811 H 0.38174 0.19013 0.31558 0.0
H2812 H 0.35319 0.1896 0.29913 0.0
H2813 H 0.36026 0.21446 0.32028 0.0
H2814 H 0.36296 0.29761 0.27179 0.0
H2815 H 0.31924 0.28862 0.26093 0.0
H2816 H 0.33169 0.2103 0.26752 0.0
C2817 C 0.41803 0.23049 0.31276 0.0
C2818 C 0.43201 0.25046 0.32256 0.0
C2819 C 0.42798 0.27472 0.31425 0.0
C2820 C 0.40896 0.27925 0.29752 0.0
C2821 C 0.39478 0.25918 0.2887 0.0
C2822 C 0.39965 0.23516 0.29555 0.0
C2823 C 0.38038 0.21705 0.28568 0.0
C2824 C 0.39138 0.20001 0.26634 0.0
C2825 C 0.36818 0.20197 0.3064 0.0
C2826 C 0.36274 0.23472 0.27414 0.0
C2827 C 0.37143 0.25896 0.27555 0.0
C2828 C 0.35635 0.27866 0.26971 0.0
C2829 C 0.33156 0.27345 0.26341 0.0
C2830 C 0.32229 0.24876 0.26322 0.0
C2831 C 0.33851 0.22931 0.26719 0.0
H2832 H 0.43044 0.46813 0.31581 0.0
H2833 H 0.41827 0.54347 0.29297 0.0
H2834 H 0.43323 0.55875 0.33326 0.0
H2835 H 0.40823 0.47689 0.37618 0.0
H2836 H 0.42948 0.45606 0.38995 0.0
H2837 H 0.41983 0.45146 0.35873 0.0
H2838 H 0.46542 0.45269 0.34521 0.0
H2839 H 0.47517 0.45754 0.3764 0.0
H2840 H 0.48492 0.47908 0.35313 0.0
H2841 H 0.44716 0.56548 0.37632 0.0
H2842 H 0.45638 0.5633 0.42045 0.0
H2843 H 0.45943 0.48348 0.41547 0.0
C2844 C 0.43129 0.48788 0.31918 0.0
C2845 C 0.42357 0.50473 0.30127 0.0
C2846 C 0.42421 0.53035 0.3065 0.0
C2847 C 0.4328 0.53915 0.32922 0.0
C2848 C 0.44035 0.52202 0.34647 0.0
C2849 C 0.4394 0.4969 0.34184 0.0
C2850 C 0.44646 0.48225 0.36419 0.0
C2851 C 0.42471 0.4657 0.37277 0.0
C2852 C 0.46937 0.467 0.35944 0.0
C2853 C 0.45191 0.5031 0.3821 0.0
C2854 C 0.44828 0.52588 0.37146 0.0
C2855 C 0.45034 0.54781 0.38477 0.0
C2856 C 0.45559 0.5464 0.40974 0.0
C2857 C 0.45892 0.52327 0.42104 0.0
C2858 C 0.45762 0.5014 0.40699 0.0
H2859 H 0.21294 0.67839 0.06714 0.0
H2860 H 0.284 0.64397 0.06857 0.0
H2861 H 0.28762 0.65313 0.11281 0.0
H2862 H 0.22835 0.72762 0.10154 0.0
H2863 H 0.19952 0.72959 0.1174 0.0
H2864 H 0.2003 0.71556 0.08771 0.0
H2865 H 0.17979 0.67546 0.1049 0.0
H2866 H 0.17891 0.68942 0.13483 0.0
H2867 H 0.19358 0.66028 0.13056 0.0
H2868 H 0.28661 0.67243 0.15408 0.0
H2869 H 0.28178 0.70144 0.1886 0.0
H2870 H 0.21138 0.72291 0.15975 0.0
C2871 C 0.22911 0.67239 0.07681 0.0
C2872 C 0.24831 0.66073 0.06457 0.0
C2873 C 0.26912 0.653 0.07777 0.0
C2874 C 0.2712 0.65791 0.10285 0.0
C2875 C 0.25207 0.67002 0.11428 0.0
C2876 C 0.23134 0.67697 0.10165 0.0
C2877 C 0.21479 0.69247 0.11706 0.0
C2878 C 0.21053 0.7178 0.10523 0.0
C2879 C 0.19032 0.67857 0.12215 0.0
C2880 C 0.23032 0.69483 0.13984 0.0
C2881 C 0.25138 0.68108 0.13823 0.0
C2882 C 0.26987 0.6826 0.15591 0.0
C2883 C 0.267 0.69902 0.17538 0.0
C2884 C 0.24593 0.71361 0.17671 0.0
C2885 C 0.22722 0.71125 0.15914 0.0
H2886 H 0.04293 0.50505 0.81347 0.0
H2887 H 0.09576 0.44667 0.8079 0.0
H2888 H 0.08556 0.43351 0.84985 0.0
H2889 H 0.05769 0.52199 0.87375 0.0
H2890 H 0.02671 0.52879 0.88251 0.0
H2891 H 0.03586 0.53176 0.85113 0.0
H2892 H 0.0001 0.50177 0.83802 0.0
H2893 H 0.99088 0.49868 0.86944 0.0
H2894 H -0.00252 0.47157 0.85167 0.0
H2895 H 0.07179 0.42832 0.89268 0.0
H2896 H 0.05763 0.43278 0.93487 0.0
H2897 H 0.01464 0.49574 0.91379 0.0
C2898 C 0.05192 0.48909 0.82082 0.0
C2899 C 0.06985 0.47657 0.80722 0.0
C2900 C 0.08174 0.4563 0.81783 0.0
C2901 C 0.07604 0.44869 0.84162 0.0
C2902 C 0.05849 0.4616 0.85459 0.0
C2903 C 0.04667 0.48145 0.84465 0.0
C2904 C 0.0301 0.49344 0.86323 0.0
C2905 C 0.03808 0.52059 0.86793 0.0
C2906 C 0.00303 0.49123 0.8551 0.0
C2907 C 0.03483 0.47751 0.88535 0.0
C2908 C 0.05098 0.45905 0.87975 0.0
C2909 C 0.05902 0.44258 0.89724 0.0
C2910 C 0.05085 0.44534 0.92121 0.0
C2911 C 0.03497 0.46463 0.92773 0.0
C2912 C 0.02643 0.48059 0.90936 0.0
H2913 H 0.21845 0.29032 0.56642 0.0
H2914 H 0.22358 0.36764 0.58689 0.0
H2915 H 0.22039 0.3562 0.63045 0.0
H2916 H 0.17549 0.27181 0.6184 0.0
H2917 H 0.18975 0.24246 0.62282 0.0
H2918 H 0.1875 0.25551 0.59265 0.0
H2919 H 0.234 0.25453 0.58573 0.0
H2920 H 0.2372 0.23958 0.61459 0.0
H2921 H 0.25475 0.26764 0.60844 0.0
H2922 H 0.22758 0.33591 0.67101 0.0
H2923 H 0.24414 0.30902 0.70328 0.0
H2924 H 0.23092 0.24511 0.65703 0.0
C2925 C 0.2179 0.30481 0.58009 0.0
C2926 C 0.2211 0.32978 0.5734 0.0
C2927 C 0.22071 0.34837 0.59167 0.0
C2928 C 0.21888 0.34203 0.61647 0.0
C2929 C 0.2166 0.31706 0.62262 0.0
C2930 C 0.21551 0.29878 0.60482 0.0
C2931 C 0.2157 0.2733 0.61599 0.0
C2932 C 0.19062 0.25996 0.61227 0.0
C2933 C 0.23667 0.25791 0.60559 0.0
C2934 C 0.21992 0.28003 0.6426 0.0
C2935 C 0.21954 0.30535 0.64631 0.0
C2936 C 0.22694 0.31604 0.66859 0.0
C2937 C 0.23617 0.30066 0.68694 0.0
C2938 C 0.23805 0.27503 0.6827 0.0
C2939 C 0.22866 0.26456 0.66087 0.0
H2940 H 0.39766 0.50235 0.15048 0.0
H2941 H 0.46713 0.50421 0.18944 0.0
H2942 H 0.48869 0.5165 0.15173 0.0
H2943 H 0.41682 0.471 0.103 0.0
H2944 H 0.39943 0.48605 0.0795 0.0
H2945 H 0.38877 0.48632 0.11034 0.0
H2946 H 0.38819 0.53423 0.10905 0.0
H2947 H 0.39948 0.53388 0.07814 0.0
H2948 H 0.41579 0.55162 0.10132 0.0
H2949 H 0.5036 0.51997 0.11015 0.0
H2950 H 0.51158 0.50467 0.06876 0.0
H2951 H 0.43351 0.49716 0.05481 0.0
C2952 C 0.41728 0.50637 0.15107 0.0
C2953 C 0.4308 0.50281 0.17272 0.0
C2954 C 0.45653 0.50712 0.17294 0.0
C2955 C 0.46884 0.51445 0.15169 0.0
C2956 C 0.45517 0.51717 0.13028 0.0
C2957 C 0.42992 0.51298 0.12973 0.0
C2958 C 0.4204 0.51154 0.10366 0.0
C2959 C 0.40553 0.48728 0.09887 0.0
C2960 C 0.40505 0.53416 0.0977 0.0
C2961 C 0.44447 0.51257 0.08981 0.0
C2962 C 0.4641 0.51771 0.10544 0.0
C2963 C 0.48839 0.51666 0.09763 0.0
C2964 C 0.4928 0.50821 0.07395 0.0
C2965 C 0.47309 0.50059 0.05856 0.0
C2966 C 0.4487 0.50401 0.06603 0.0
H2967 H 0.26144 0.71296 0.93284 0.0
H2968 H 0.26929 0.63433 0.91931 0.0
H2969 H 0.26919 0.6419 0.8752 0.0
H2970 H 0.2217 0.7249 0.88233 0.0
H2971 H 0.23578 0.75446 0.87494 0.0
H2972 H 0.23644 0.74345 0.90592 0.0
H2973 H 0.28398 0.74816 0.90692 0.0
H2974 H 0.28342 0.75971 0.87616 0.0
H2975 H 0.3017 0.73347 0.88355 0.0
H2976 H 0.26472 0.65643 0.83378 0.0
H2977 H 0.26666 0.67872 0.79497 0.0
H2978 H 0.26486 0.74893 0.83355 0.0
C2979 C 0.26367 0.69745 0.92056 0.0
C2980 C 0.26535 0.67306 0.92946 0.0
C2981 C 0.2682 0.65319 0.91292 0.0
C2982 C 0.26779 0.65723 0.88783 0.0
C2983 C 0.26498 0.68126 0.87966 0.0
C2984 C 0.26374 0.70119 0.89535 0.0
C2985 C 0.26203 0.72525 0.88138 0.0
C2986 C 0.23753 0.73774 0.88645 0.0
C2987 C 0.28411 0.74267 0.88735 0.0
C2988 C 0.26294 0.71561 0.85538 0.0
C2989 C 0.26385 0.69006 0.8551 0.0
C2990 C 0.26444 0.67642 0.83367 0.0
C2991 C 0.26554 0.68924 0.81181 0.0
C2992 C 0.26647 0.7154 0.81156 0.0
C2993 C 0.26432 0.72891 0.83347 0.0
H2994 H 0.0699 0.53149 0.66888 0.0
H2995 H 0.10311 0.45966 0.66693 0.0
H2996 H 0.09771 0.45842 0.62185 0.0
H2997 H 0.02409 0.51943 0.62823 0.0
H2998 H 0.02483 0.54982 0.61483 0.0
H2999 H 0.03531 0.54587 0.64559 0.0
H3000 H 0.07722 0.56674 0.63404 0.0
H3001 H 0.06694 0.5701 0.60292 0.0
H3002 H 0.09489 0.5542 0.60941 0.0
H3003 H 0.08189 0.46241 0.5783 0.0
H3004 H 0.05435 0.46923 0.54306 0.0
H3005 H 0.0345 0.53969 0.57367 0.0
C3006 C 0.0763 0.51555 0.65899 0.0
C3007 C 0.0866 0.49552 0.67132 0.0
C3008 C 0.09504 0.47516 0.65773 0.0
C3009 C 0.09227 0.47445 0.63216 0.0
C3010 C 0.08175 0.49457 0.62055 0.0
C3011 C 0.0741 0.51481 0.63368 0.0
C3012 C 0.06102 0.53296 0.61777 0.0
C3013 C 0.03478 0.53723 0.62715 0.0
C3014 C 0.07592 0.55745 0.61592 0.0
C3015 C 0.06084 0.51905 0.59381 0.0
C3016 C 0.07346 0.49723 0.59545 0.0
C3017 C 0.07256 0.47971 0.57661 0.0
C3018 C 0.05704 0.48382 0.5565 0.0
C3019 C 0.0425 0.50506 0.55578 0.0
C3020 C 0.04581 0.52354 0.57374 0.0
H3021 H 0.2047 0.3055 0.43744 0.0
H3022 H 0.25482 0.36803 0.42664 0.0
H3023 H 0.25645 0.35844 0.38249 0.0
H3024 H 0.23004 0.26429 0.39999 0.0
H3025 H 0.20225 0.25084 0.38683 0.0
H3026 H 0.20145 0.2651 0.41646 0.0
H3027 H 0.16735 0.29401 0.40167 0.0
H3028 H 0.16799 0.27968 0.37188 0.0
H3029 H 0.17239 0.31268 0.37491 0.0
H3030 H 0.2581 0.33807 0.34151 0.0
H3031 H 0.25887 0.30916 0.3067 0.0
H3032 H 0.20634 0.26048 0.34286 0.0
C3033 C 0.21522 0.31763 0.42551 0.0
C3034 C 0.22931 0.33774 0.43517 0.0
C3035 C 0.24346 0.35292 0.41934 0.0
C3036 C 0.2445 0.34758 0.39428 0.0
C3037 C 0.23074 0.32735 0.38525 0.0
C3038 C 0.21591 0.3129 0.40027 0.0
C3039 C 0.20421 0.29134 0.38616 0.0
C3040 C 0.20986 0.26643 0.39807 0.0
C3041 C 0.17633 0.29463 0.38351 0.0
C3042 C 0.21679 0.29443 0.36167 0.0
C3043 C 0.23132 0.31582 0.36127 0.0
C3044 C 0.24609 0.32177 0.3413 0.0
C3045 C 0.24623 0.30535 0.32139 0.0
C3046 C 0.23193 0.28311 0.32162 0.0
C3047 C 0.21686 0.27775 0.34195 0.0
H3048 H 0.32309 0.39356 0.4805 0.0
H3049 H 0.29368 0.41487 0.5506 0.0
H3050 H 0.33204 0.43908 0.55968 0.0
H3051 H 0.38711 0.38918 0.49723 0.0
H3052 H 0.39826 0.40342 0.46958 0.0
H3053 H 0.36928 0.38647 0.46943 0.0
H3054 H 0.34772 0.42496 0.45247 0.0
H3055 H 0.37678 0.44175 0.45249 0.0
H3056 H 0.35099 0.45399 0.4686 0.0
H3057 H 0.37293 0.46114 0.56099 0.0
H3058 H 0.41103 0.48524 0.55201 0.0
H3059 H 0.41387 0.45134 0.48033 0.0
C3060 C 0.32486 0.40336 0.49774 0.0
C3061 C 0.30566 0.40237 0.51499 0.0
C3062 C 0.30825 0.41561 0.53719 0.0
C3063 C 0.33002 0.42915 0.54256 0.0
C3064 C 0.34881 0.42956 0.52533 0.0
C3065 C 0.34624 0.41753 0.50311 0.0
C3066 C 0.3683 0.4229 0.48691 0.0
C3067 C 0.38152 0.39906 0.48043 0.0
C3068 C 0.36048 0.43673 0.46376 0.0
C3069 C 0.3839 0.43947 0.50368 0.0
C3070 C 0.37233 0.44283 0.52584 0.0
C3071 C 0.38227 0.45848 0.54383 0.0
C3072 C 0.404 0.47191 0.53868 0.0
C3073 C 0.41564 0.46957 0.5158 0.0
C3074 C 0.40583 0.45267 0.49831 0.0
H3075 H 0.8144 0.06937 0.44261 0.0
H3076 H 0.79904 0.06636 0.52017 0.0
H3077 H 0.83505 0.0404 0.52643 0.0
H3078 H 0.8407 0.00594 0.43698 0.0
H3079 H 0.86368 0.01684 0.41572 0.0
H3080 H 0.83401 0.03086 0.41649 0.0
H3081 H 0.85512 0.07396 0.42325 0.0
H3082 H 0.88471 0.06013 0.42232 0.0
H3083 H 0.87635 0.07842 0.44841 0.0
H3084 H 0.87509 0.01904 0.52512 0.0
H3085 H 0.91819 0.0085 0.51707 0.0
H3086 H 0.90846 0.02718 0.44084 0.0
C3087 C 0.81822 0.06265 0.46078 0.0
C3088 C 0.80383 0.06967 0.48085 0.0
C3089 C 0.80978 0.06109 0.5045 0.0
C3090 C 0.83007 0.04615 0.50821 0.0
C3091 C 0.84418 0.0399 0.48809 0.0
C3092 C 0.83857 0.04797 0.46484 0.0
C3093 C 0.85844 0.04155 0.44688 0.0
C3094 C 0.84861 0.02267 0.4279 0.0
C3095 C 0.86929 0.06491 0.43452 0.0
C3096 C 0.87678 0.03 0.46393 0.0
C3097 C 0.86783 0.02834 0.48745 0.0
C3098 C 0.88214 0.01984 0.50671 0.0
C3099 C 0.90656 0.01379 0.50196 0.0
C3100 C 0.91646 0.01696 0.47832 0.0
C3101 C 0.90115 0.02437 0.459 0.0
H3102 H 0.68776 0.05404 0.22795 0.0
H3103 H 0.62072 0.07771 0.26223 0.0
H3104 H 0.63726 0.12052 0.26417 0.0
H3105 H 0.72953 0.09711 0.26397 0.0
H3106 H 0.74969 0.10222 0.23838 0.0
H3107 H 0.73322 0.07305 0.24151 0.0
H3108 H 0.71515 0.0785 0.19804 0.0
H3109 H 0.73085 0.1081 0.19515 0.0
H3110 H 0.69795 0.10563 0.1912 0.0
H3111 H 0.65821 0.16084 0.25789 0.0
H3112 H 0.68729 0.19617 0.25338 0.0
H3113 H 0.74209 0.14688 0.22505 0.0
C3114 C 0.67717 0.06813 0.23681 0.0
C3115 C 0.65323 0.06281 0.24535 0.0
C3116 C 0.63934 0.08163 0.25609 0.0
C3117 C 0.6484 0.10597 0.25695 0.0
C3118 C 0.67154 0.11102 0.24729 0.0
C3119 C 0.68617 0.09263 0.23821 0.0
C3120 C 0.71048 0.10341 0.22925 0.0
C3121 C 0.732 0.09335 0.24417 0.0
C3122 C 0.71378 0.09862 0.20178 0.0
C3123 C 0.70692 0.1306 0.23447 0.0
C3124 C 0.68412 0.13454 0.24444 0.0
C3125 C 0.67631 0.15805 0.25046 0.0
C3126 C 0.69287 0.17804 0.24757 0.0
C3127 C 0.71701 0.17424 0.23911 0.0
C3128 C 0.72379 0.15031 0.23172 0.0
H3129 H 0.6595 0.90436 0.01725 0.0
H3130 H 0.70324 0.94768 0.96583 0.0
H3131 H 0.6668 0.97063 0.9545 0.0
H3132 H 0.60643 0.89747 0.98197 0.0
H3133 H 0.58434 0.90161 0.00595 0.0
H3134 H 0.61424 0.89004 0.01307 0.0
H3135 H 0.6217 0.92544 0.04446 0.0
H3136 H 0.59165 0.93694 0.03762 0.0
H3137 H 0.61849 0.95704 0.03499 0.0
H3138 H 0.62703 0.98508 0.94477 0.0
H3139 H 0.58432 -0.00586 0.93822 0.0
H3140 H 0.56262 0.94332 -0.00377 0.0
C3141 C 0.66145 0.91909 0.00404 0.0
C3142 C 0.68432 0.9242 -0.00764 0.0
C3143 C 0.68607 0.9434 0.975 0.0
C3144 C 0.66544 0.9566 0.96847 0.0
C3145 C 0.64316 0.95066 0.97967 0.0
C3146 C 0.64086 0.93274 -0.00265 0.0
C3147 C 0.61409 0.92975 0.00543 0.0
C3148 C 0.6042 0.90313 0.00135 0.0
C3149 C 0.61132 0.93777 0.03222 0.0
C3150 C 0.60169 0.94778 0.98836 0.0
C3151 C 0.61922 0.95966 0.97406 0.0
C3152 C 0.61313 0.97618 0.95602 0.0
C3153 C 0.58849 0.98092 0.95233 0.0
C3154 C 0.56968 0.96921 0.96648 0.0
C3155 C 0.57643 0.95257 0.98512 0.0
H3156 H 0.33174 0.42344 0.20277 0.0
H3157 H 0.34857 0.4223 0.28004 0.0
H3158 H 0.32065 0.38557 0.28512 0.0
H3159 H 0.26723 0.40363 0.20638 0.0
H3160 H 0.26888 0.38493 0.17915 0.0
H3161 H 0.28868 0.41196 0.18263 0.0
H3162 H 0.32659 0.38492 0.17536 0.0
H3163 H 0.30689 0.35775 0.17237 0.0
H3164 H 0.33141 0.35856 0.19464 0.0
H3165 H 0.29297 0.34595 0.28035 0.0
H3166 H 0.26515 0.311 0.26649 0.0
H3167 H 0.26697 0.33997 0.19311 0.0
C3168 C 0.32895 0.41581 0.22082 0.0
C3169 C 0.34171 0.4258 0.24112 0.0
C3170 C 0.33844 0.41497 0.26439 0.0
C3171 C 0.3228 0.39406 0.26739 0.0
C3172 C 0.3108 0.38416 0.24684 0.0
C3173 C 0.31357 0.39491 0.22406 0.0
C3174 C 0.29956 0.38037 0.20467 0.0
C3175 C 0.27991 0.39617 0.19251 0.0
C3176 C 0.31717 0.36978 0.18564 0.0
C3177 C 0.28809 0.36006 0.22004 0.0
C3178 C 0.29497 0.36211 0.24428 0.0
C3179 C 0.2872 0.34448 0.26145 0.0
C3180 C 0.2715 0.32472 0.25359 0.0
C3181 C 0.26348 0.32323 0.22908 0.0
C3182 C 0.27233 0.34091 0.21218 0.0
H3183 H 0.18764 0.57859 0.01226 0.0
H3184 H 0.16585 0.62064 0.94885 0.0
H3185 H 0.125 0.59958 0.9492 0.0
H3186 H 0.15358 0.52091 -0.00305 0.0
H3187 H 0.14524 0.51517 0.02825 0.0
H3188 H 0.17351 0.53178 0.02139 0.0
H3189 H 0.15983 0.56785 0.04898 0.0
H3190 H 0.13122 0.55164 0.05536 0.0
H3191 H 0.13104 0.58235 0.04277 0.0
H3192 H 0.08705 0.5756 0.95684 0.0
H3193 H 0.05401 0.54681 0.96939 0.0
H3194 H 0.09852 0.52266 0.03027 0.0
C3195 C 0.17445 0.58277 -0.00192 0.0
C3196 C 0.17969 0.60092 0.98035 0.0
C3197 C 0.16197 0.6066 0.96243 0.0
C3198 C 0.1388 0.59487 0.96257 0.0
C3199 C 0.13377 0.57784 0.98093 0.0
C3200 C 0.15105 0.57155 -0.00177 0.0
C3201 C 0.14039 0.55338 0.01653 0.0
C3202 C 0.15399 0.52886 0.01571 0.0
C3203 C 0.14064 0.56448 0.04244 0.0
C3204 C 0.11446 0.5504 0.00663 0.0
C3205 C 0.11113 0.56478 0.98616 0.0
C3206 C 0.08919 0.56458 0.9731 0.0
C3207 C 0.07028 0.54861 0.98074 0.0
C3208 C 0.07327 0.53344 0.00146 0.0
C3209 C 0.09556 0.53456 0.01475 0.0
H3210 H 0.65178 0.91458 0.23561 0.0
H3211 H 0.69911 0.95343 0.28811 0.0
H3212 H 0.72217 0.91539 0.29452 0.0
H3213 H 0.64613 0.85899 0.26709 0.0
H3214 H 0.64694 0.83923 0.24053 0.0
H3215 H 0.63584 0.8701 0.23789 0.0
H3216 H 0.66785 0.87963 0.2041 0.0
H3217 H 0.67896 0.84868 0.20664 0.0
H3218 H 0.69997 0.87484 0.21009 0.0
H3219 H 0.73871 0.87262 0.29699 0.0
H3220 H 0.74647 0.82761 0.29606 0.0
H3221 H 0.68743 0.81654 0.24339 0.0
C3222 C 0.66723 0.91521 0.24817 0.0
C3223 C 0.67366 0.93702 0.26132 0.0
C3224 C 0.69385 0.93698 0.27778 0.0
C3225 C 0.70713 0.91548 0.2815 0.0
C3226 C 0.70005 0.8942 0.26855 0.0
C3227 C 0.68064 0.8939 0.25213 0.0
C3228 C 0.67591 0.86824 0.24157 0.0
C3229 C 0.64965 0.85858 0.24713 0.0
C3230 C 0.68098 0.86784 0.21397 0.0
C3231 C 0.69499 0.85401 0.25545 0.0
C3232 C 0.70912 0.8694 0.27049 0.0
C3233 C 0.72784 0.8604 0.28522 0.0
C3234 C 0.7321 0.83494 0.28465 0.0
C3235 C 0.71737 0.81898 0.26983 0.0
C3236 C 0.69875 0.82858 0.25497 0.0
H3237 H 0.8189 0.08213 0.71265 0.0
H3238 H 0.83032 0.05417 0.78577 0.0
H3239 H 0.81384 0.09248 0.80308 0.0
H3240 H 0.83632 0.14738 0.72957 0.0
H3241 H 0.8145 0.16031 0.7087 0.0
H3242 H 0.82823 0.13117 0.70173 0.0
H3243 H 0.78495 0.11024 0.69727 0.0
H3244 H 0.77119 0.13933 0.70387 0.0
H3245 H 0.76334 0.11252 0.72197 0.0
H3246 H 0.79596 0.13243 0.81255 0.0
H3247 H 0.77248 0.17029 0.81437 0.0
H3248 H 0.77158 0.17419 0.73524 0.0
C3249 C 0.81785 0.08422 0.73228 0.0
C3250 C 0.82581 0.06531 0.74797 0.0
C3251 C 0.82446 0.06858 0.77354 0.0
C3252 C 0.81526 0.09029 0.7835 0.0
C3253 C 0.80804 0.10882 0.76763 0.0
C3254 C 0.80918 0.10615 0.74259 0.0
C3255 C 0.7998 0.12904 0.72988 0.0
C3256 C 0.82096 0.14278 0.71668 0.0
C3257 C 0.77854 0.12238 0.71222 0.0
C3258 C 0.79128 0.14404 0.75165 0.0
C3259 C 0.79722 0.13226 0.77319 0.0
C3260 C 0.79128 0.14186 0.79585 0.0
C3261 C 0.77793 0.16346 0.79663 0.0
C3262 C 0.77007 0.17518 0.77494 0.0
C3263 C 0.77759 0.16584 0.75208 0.0
loop_
_geom_bond_atom_site_label_1
_geom_bond_atom_site_label_2
_geom_bond_distance
_geom_bond_site_symmetry_2
_ccdc_geom_bond_type
Zn0 O3 2.031 . S
Zn0 O5 2.049 . S
Zn0 O10 2.067 . S
Zn1 O2 1.962 . S
Zn1 O4 1.986 . S
Zn1 O6 2.006 . S
Zn1 O9 1.943 1_655 S
O2 Zn1 1.962 . S
O2 C7 1.254 1_655 S
O3 Zn0 2.031 . S
O3 C7 1.269 . S
O4 Zn1 1.986 . S
O4 C11 1.262 . S
O5 Zn0 2.049 . S
O5 C13 1.260 . S
O6 Zn1 2.006 . S
O6 C13 1.239 1_655 S
C7 O2 1.254 1_455 S
C7 O3 1.269 . S
C8 O9 1.249 . S
C8 O10 1.270 . S
O9 Zn1 1.943 1_455 S
O9 C8 1.249 . S
O10 Zn0 2.067 . S
O10 C8 1.270 . S
C11 O4 1.262 . S
C11 O12 1.232 . S
O12 C11 1.232 . S
C13 O5 1.260 . S
C13 O6 1.239 1_455 S
Zn14 O17 2.031 . S
Zn14 O19 2.049 . S
Zn14 O24 2.067 . S
Zn15 O16 1.962 . S
Zn15 O18 1.986 . S
Zn15 O20 1.996 . S
Zn15 O23 1.943 1_455 S
O16 Zn15 1.962 . S
O16 C21 1.257 . S
O17 Zn14 2.031 . S
O17 C21 1.266 1_655 S
O18 Zn15 1.986 . S
O18 C25 1.262 . S
O19 Zn14 2.049 . S
O19 C27 1.260 . S
O20 Zn15 1.996 . S
O20 C27 1.257 1_455 S
C21 O16 1.257 . S
C21 O17 1.266 1_455 S
C22 O23 1.249 . S
C22 O24 1.270 . S
O23 Zn15 1.943 1_655 S
O23 C22 1.249 . S
O24 Zn14 2.067 . S
O24 C22 1.270 . S
C25 O18 1.262 . S
C25 O26 1.232 . S
O26 C25 1.232 . S
C27 O19 1.260 . S
C27 O20 1.257 1_655 S
Zn28 O31 2.031 . S
Zn28 O33 2.049 . S
Zn28 O38 2.067 . S
Zn29 O30 1.962 . S
Zn29 O32 1.986 . S
Zn29 O34 1.996 . S
Zn29 O37 1.943 . S
O30 Zn29 1.962 . S
O30 C35 1.254 . S
O31 Zn28 2.031 . S
O31 C35 1.269 . S
O32 Zn29 1.986 . S
O32 C39 1.262 . S
O33 Zn28 2.049 . S
O33 C41 1.260 . S
O34 Zn29 1.996 . S
O34 C41 1.257 . S
C35 O30 1.254 . S
C35 O31 1.269 . S
C36 O37 1.249 . S
C36 O38 1.270 . S
O37 Zn29 1.943 . S
O37 C36 1.249 . S
O38 Zn28 2.067 . S
O38 C36 1.270 . S
C39 O32 1.262 . S
C39 O40 1.232 . S
O40 C39 1.232 . S
C41 O33 1.260 . S
C41 O34 1.257 . S
Zn42 O45 2.031 . S
Zn42 O47 2.049 . S
Zn42 O52 2.067 . S
Zn43 O44 1.962 . S
Zn43 O46 1.986 . S
Zn43 O48 1.996 . S
Zn43 O51 1.943 . S
O44 Zn43 1.962 . S
O44 C49 1.254 . S
O45 Zn42 2.031 . S
O45 C49 1.269 . S
O46 Zn43 1.986 . S
O46 C53 1.262 . S
O47 Zn42 2.049 . S
O47 C55 1.260 . S
O48 Zn43 1.996 . S
O48 C55 1.257 . S
C49 O44 1.254 . S
C49 O45 1.269 . S
C50 O51 1.249 . S
C50 O52 1.270 . S
O51 Zn43 1.943 . S
O51 C50 1.249 . S
O52 Zn42 2.067 . S
O52 C50 1.270 . S
C53 O46 1.262 . S
C53 O54 1.232 . S
O54 C53 1.232 . S
C55 O47 1.260 . S
C55 O48 1.257 . S
Zn56 O59 2.031 . S
Zn56 O61 2.049 . S
Zn56 O66 2.067 . S
Zn57 O58 1.962 . S
Zn57 O60 1.986 . S
Zn57 O62 2.006 . S
Zn57 O65 1.943 1_565 S
O58 Zn57 1.962 . S
O58 C63 1.254 1_565 S
O59 Zn56 2.031 . S
O59 C63 1.269 . S
O60 Zn57 1.986 . S
O60 C67 1.262 . S
O61 Zn56 2.049 . S
O61 C69 1.260 . S
O62 Zn57 2.006 . S
O62 C69 1.237 1_565 S
C63 O58 1.254 1_545 S
C63 O59 1.269 . S
C64 O65 1.249 . S
C64 O66 1.270 . S
O65 Zn57 1.943 1_545 S
O65 C64 1.249 . S
O66 Zn56 2.067 . S
O66 C64 1.270 . S
C67 O60 1.262 . S
C67 O68 1.232 . S
O68 C67 1.232 . S
C69 O61 1.260 . S
C69 O62 1.237 1_545 S
Zn70 O73 2.031 . S
Zn70 O75 2.049 . S
Zn70 O80 2.067 . S
Zn71 O72 1.962 . S
Zn71 O74 1.986 . S
Zn71 O76 1.996 . S
Zn71 O79 1.943 . S
O72 Zn71 1.962 . S
O72 C77 1.254 . S
O73 Zn70 2.031 . S
O73 C77 1.269 . S
O74 Zn71 1.986 . S
O74 C81 1.262 . S
O75 Zn70 2.049 . S
O75 C83 1.260 . S
O76 Zn71 1.996 . S
O76 C83 1.257 . S
C77 O72 1.254 . S
C77 O73 1.269 . S
C78 O79 1.249 . S
C78 O80 1.270 . S
O79 Zn71 1.943 . S
O79 C78 1.249 . S
O80 Zn70 2.067 . S
O80 C78 1.270 . S
C81 O74 1.262 . S
C81 O82 1.232 . S
O82 C81 1.232 . S
C83 O75 1.260 . S
C83 O76 1.257 . S
Zn84 O87 2.031 . S
Zn84 O89 2.049 . S
Zn84 O94 2.067 . S
Zn85 O86 1.962 . S
Zn85 O88 1.986 . S
Zn85 O90 1.996 . S
Zn85 O93 1.943 1_545 S
O86 Zn85 1.962 . S
O86 C91 1.259 1_545 S
O87 Zn84 2.031 . S
O87 C91 1.265 . S
O88 Zn85 1.986 . S
O88 C95 1.262 . S
O89 Zn84 2.049 . S
O89 C97 1.260 . S
O90 Zn85 1.996 . S
O90 C97 1.257 1_545 S
C91 O86 1.259 1_565 S
C91 O87 1.265 . S
C92 O93 1.249 . S
C92 O94 1.270 . S
O93 Zn85 1.943 1_565 S
O93 C92 1.249 . S
O94 Zn84 2.067 . S
O94 C92 1.270 . S
C95 O88 1.262 . S
C95 O96 1.232 . S
O96 C95 1.232 . S
C97 O89 1.260 . S
C97 O90 1.257 1_565 S
Zn98 O101 2.031 1_554 S
Zn98 O103 2.049 . S
Zn98 O108 2.067 . S
Zn99 O100 1.962 1_554 S
Zn99 O102 1.986 . S
Zn99 O104 1.996 . S
Zn99 O107 1.943 . S
O100 Zn99 1.962 1_556 S
O100 C105 1.254 . S
O101 Zn98 2.031 1_556 S
O101 C105 1.269 . S
O102 Zn99 1.986 . S
O102 C109 1.262 . S
O103 Zn98 2.049 . S
O103 C111 1.260 . S
O104 Zn99 1.996 . S
O104 C111 1.257 . S
C105 O100 1.254 . S
C105 O101 1.269 . S
C106 O107 1.249 . S
C106 O108 1.270 . S
O107 Zn99 1.943 . S
O107 C106 1.249 . S
O108 Zn98 2.067 . S
O108 C106 1.270 . S
C109 O102 1.262 . S
C109 O110 1.232 1_554 S
O110 C109 1.232 1_556 S
C111 O103 1.260 . S
C111 O104 1.257 . S
Zn112 O115 2.031 1_554 S
Zn112 O117 2.049 . S
Zn112 O122 2.067 . S
Zn113 O114 1.962 1_554 S
Zn113 O116 1.986 . S
Zn113 O118 1.996 . S
Zn113 O121 1.943 . S
O114 Zn113 1.962 1_556 S
O114 C119 1.254 . S
O115 Zn112 2.031 1_556 S
O115 C119 1.269 . S
O116 Zn113 1.986 . S
O116 C123 1.262 . S
O117 Zn112 2.049 . S
O117 C125 1.260 . S
O118 Zn113 1.996 . S
O118 C125 1.257 . S
C119 O114 1.254 . S
C119 O115 1.269 . S
C120 O121 1.249 . S
C120 O122 1.270 . S
O121 Zn113 1.943 . S
O121 C120 1.249 . S
O122 Zn112 2.067 . S
O122 C120 1.270 . S
C123 O116 1.262 . S
C123 O124 1.232 1_554 S
O124 C123 1.232 1_556 S
C125 O117 1.260 . S
C125 O118 1.257 . S
Zn126 O129 2.031 . S
Zn126 O131 2.049 . S
Zn126 O136 2.067 . S
Zn127 O128 1.962 . S
Zn127 O130 1.986 . S
Zn127 O132 1.996 . S
Zn127 O135 1.943 . S
O128 Zn127 1.962 . S
O128 C133 1.254 . S
O129 Zn126 2.031 . S
O129 C133 1.269 . S
O130 Zn127 1.986 . S
O130 C137 1.262 . S
O131 Zn126 2.049 . S
O131 C139 1.260 . S
O132 Zn127 1.996 . S
O132 C139 1.257 . S
C133 O128 1.254 . S
C133 O129 1.269 . S
C134 O135 1.249 . S
C134 O136 1.270 . S
O135 Zn127 1.943 . S
O135 C134 1.249 . S
O136 Zn126 2.067 . S
O136 C134 1.270 . S
C137 O130 1.262 . S
C137 O138 1.232 . S
O138 C137 1.232 . S
C139 O131 1.260 . S
C139 O132 1.257 . S
Zn140 O143 2.031 . S
Zn140 O145 2.049 . S
Zn140 O150 2.067 . S
Zn141 O142 1.962 . S
Zn141 O144 1.986 . S
Zn141 O146 1.996 . S
Zn141 O149 1.943 . S
O142 Zn141 1.962 . S
O142 C147 1.254 . S
O143 Zn140 2.031 . S
O143 C147 1.269 . S
O144 Zn141 1.986 . S
O144 C151 1.262 . S
O145 Zn140 2.049 . S
O145 C153 1.260 . S
O146 Zn141 1.996 . S
O146 C153 1.257 . S
C147 O142 1.254 . S
C147 O143 1.269 . S
C148 O149 1.249 . S
C148 O150 1.270 . S
O149 Zn141 1.943 . S
O149 C148 1.249 . S
O150 Zn140 2.067 . S
O150 C148 1.270 . S
C151 O144 1.262 . S
C151 O152 1.232 . S
O152 C151 1.232 . S
C153 O145 1.260 . S
C153 O146 1.257 . S
Zn154 O157 2.031 . S
Zn154 O159 2.049 . S
Zn154 O164 2.067 . S
Zn155 O156 1.962 . S
Zn155 O158 1.986 . S
Zn155 O160 1.996 . S
Zn155 O163 1.943 . S
O156 Zn155 1.962 . S
O156 C161 1.254 . S
O157 Zn154 2.031 . S
O157 C161 1.269 . S
O158 Zn155 1.986 . S
O158 C165 1.262 . S
O159 Zn154 2.049 . S
O159 C167 1.260 . S
O160 Zn155 1.996 . S
O160 C167 1.257 . S
C161 O156 1.254 . S
C161 O157 1.269 . S
C162 O163 1.249 . S
C162 O164 1.270 . S
O163 Zn155 1.943 . S
O163 C162 1.249 . S
O164 Zn154 2.067 . S
O164 C162 1.270 . S
C165 O158 1.262 . S
C165 O166 1.232 . S
O166 C165 1.232 . S
C167 O159 1.260 . S
C167 O160 1.257 . S
Zn168 O171 2.031 . S
Zn168 O173 2.049 . S
Zn168 O178 2.067 . S
Zn169 O170 1.962 . S
Zn169 O172 1.986 . S
Zn169 O174 1.996 . S
Zn169 O177 1.943 1_455 S
O170 Zn169 1.962 . S
O170 C175 1.254 . S
O171 Zn168 2.031 . S
O171 C175 1.269 1_655 S
O172 Zn169 1.986 . S
O172 C179 1.262 . S
O173 Zn168 2.049 . S
O173 C181 1.260 . S
O174 Zn169 1.996 . S
O174 C181 1.257 1_455 S
C175 O170 1.254 . S
C175 O171 1.269 1_455 S
C176 O177 1.249 . S
C176 O178 1.270 . S
O177 Zn169 1.943 1_655 S
O177 C176 1.249 . S
O178 Zn168 2.067 . S
O178 C176 1.270 . S
C179 O172 1.262 . S
C179 O180 1.232 . S
O180 C179 1.232 . S
C181 O173 1.260 . S
C181 O174 1.257 1_655 S
Zn182 O185 2.031 . S
Zn182 O187 2.049 . S
Zn182 O192 2.067 . S
Zn183 O184 1.962 . S
Zn183 O186 1.986 . S
Zn183 O188 1.994 1_655 S
Zn183 O191 1.943 1_655 S
O184 Zn183 1.962 . S
O184 C189 1.254 1_655 S
O185 Zn182 2.031 . S
O185 C189 1.269 . S
O186 Zn183 1.986 . S
O186 C193 1.262 . S
O187 Zn182 2.049 . S
O187 C195 1.260 . S
O188 Zn183 1.994 1_455 S
O188 C195 1.260 . S
C189 O184 1.254 1_455 S
C189 O185 1.269 . S
C190 O191 1.249 . S
C190 O192 1.270 . S
O191 Zn183 1.943 1_455 S
O191 C190 1.249 . S
O192 Zn182 2.067 . S
O192 C190 1.270 . S
C193 O186 1.262 . S
C193 O194 1.232 . S
O194 C193 1.232 . S
C195 O187 1.260 . S
C195 O188 1.260 . S
Zn196 O199 2.031 . S
Zn196 O201 2.049 . S
Zn196 O206 2.067 . S
Zn197 O198 1.962 . S
Zn197 O200 1.986 . S
Zn197 O202 1.996 . S
Zn197 O205 1.943 . S
O198 Zn197 1.962 . S
O198 C203 1.254 . S
O199 Zn196 2.031 . S
O199 C203 1.269 . S
O200 Zn197 1.986 . S
O200 C207 1.262 . S
O201 Zn196 2.049 . S
O201 C209 1.260 . S
O202 Zn197 1.996 . S
O202 C209 1.257 . S
C203 O198 1.254 . S
C203 O199 1.269 . S
C204 O205 1.249 . S
C204 O206 1.270 . S
O205 Zn197 1.943 . S
O205 C204 1.249 . S
O206 Zn196 2.067 . S
O206 C204 1.270 . S
C207 O200 1.262 . S
C207 O208 1.232 . S
O208 C207 1.232 . S
C209 O201 1.260 . S
C209 O202 1.257 . S
Zn210 O213 2.031 . S
Zn210 O215 2.049 . S
Zn210 O220 2.067 . S
Zn211 O212 1.962 . S
Zn211 O214 1.986 . S
Zn211 O216 1.996 . S
Zn211 O219 1.943 . S
O212 Zn211 1.962 . S
O212 C217 1.254 . S
O213 Zn210 2.031 . S
O213 C217 1.269 . S
O214 Zn211 1.986 . S
O214 C221 1.262 . S
O215 Zn210 2.049 . S
O215 C223 1.260 . S
O216 Zn211 1.996 . S
O216 C223 1.257 . S
C217 O212 1.254 . S
C217 O213 1.269 . S
C218 O219 1.249 . S
C218 O220 1.270 . S
O219 Zn211 1.943 . S
O219 C218 1.249 . S
O220 Zn210 2.067 . S
O220 C218 1.270 . S
C221 O214 1.262 . S
C221 O222 1.232 . S
O222 C221 1.232 . S
C223 O215 1.260 . S
C223 O216 1.257 . S
Zn224 O227 2.031 . S
Zn224 O229 2.049 . S
Zn224 O234 2.067 . S
Zn225 O226 1.962 . S
Zn225 O228 1.986 . S
Zn225 O230 1.996 . S
Zn225 O233 1.943 1_545 S
O226 Zn225 1.962 . S
O226 C231 1.254 1_545 S
O227 Zn224 2.031 . S
O227 C231 1.269 . S
O228 Zn225 1.986 . S
O228 C235 1.262 . S
O229 Zn224 2.049 . S
O229 C237 1.260 . S
O230 Zn225 1.996 . S
O230 C237 1.257 1_545 S
C231 O226 1.254 1_565 S
C231 O227 1.269 . S
C232 O233 1.249 . S
C232 O234 1.270 . S
O233 Zn225 1.943 1_565 S
O233 C232 1.249 . S
O234 Zn224 2.067 . S
O234 C232 1.270 . S
C235 O228 1.262 . S
C235 O236 1.232 . S
O236 C235 1.232 . S
C237 O229 1.260 . S
C237 O230 1.257 1_565 S
Zn238 O241 2.031 . S
Zn238 O243 2.049 . S
Zn238 O248 2.067 . S
Zn239 O240 1.962 . S
Zn239 O242 1.986 . S
Zn239 O244 1.996 . S
Zn239 O247 1.943 . S
O240 Zn239 1.962 . S
O240 C245 1.254 . S
O241 Zn238 2.031 . S
O241 C245 1.269 . S
O242 Zn239 1.986 . S
O242 C249 1.262 . S
O243 Zn238 2.049 . S
O243 C251 1.260 . S
O244 Zn239 1.996 . S
O244 C251 1.257 . S
C245 O240 1.254 . S
C245 O241 1.269 . S
C246 O247 1.249 . S
C246 O248 1.270 . S
O247 Zn239 1.943 . S
O247 C246 1.249 . S
O248 Zn238 2.067 . S
O248 C246 1.270 . S
C249 O242 1.262 . S
C249 O250 1.232 . S
O250 C249 1.232 . S
C251 O243 1.260 . S
C251 O244 1.257 . S
Zn252 O255 2.031 . S
Zn252 O257 2.049 . S
Zn252 O262 2.067 . S
Zn253 O254 1.962 . S
Zn253 O256 1.986 . S
Zn253 O258 1.994 1_565 S
Zn253 O261 1.943 1_565 S
O254 Zn253 1.962 . S
O254 C259 1.254 1_565 S
O255 Zn252 2.031 . S
O255 C259 1.269 . S
O256 Zn253 1.986 . S
O256 C263 1.262 . S
O257 Zn252 2.049 . S
O257 C265 1.260 . S
O258 Zn253 1.994 1_545 S
O258 C265 1.262 . S
C259 O254 1.254 1_545 S
C259 O255 1.269 . S
C260 O261 1.249 . S
C260 O262 1.270 . S
O261 Zn253 1.943 1_545 S
O261 C260 1.249 . S
O262 Zn252 2.067 . S
O262 C260 1.270 . S
C263 O256 1.262 . S
C263 O264 1.232 . S
O264 C263 1.232 . S
C265 O257 1.260 . S
C265 O258 1.262 . S
Zn266 O269 2.031 1_554 S
Zn266 O271 2.049 . S
Zn266 O276 2.067 . S
Zn267 O268 1.962 1_554 S
Zn267 O270 1.986 . S
Zn267 O272 1.996 . S
Zn267 O275 1.943 . S
O268 Zn267 1.962 1_556 S
O268 C273 1.254 . S
O269 Zn266 2.031 1_556 S
O269 C273 1.269 . S
O270 Zn267 1.986 . S
O270 C277 1.262 . S
O271 Zn266 2.049 . S
O271 C279 1.260 . S
O272 Zn267 1.996 . S
O272 C279 1.257 . S
C273 O268 1.254 . S
C273 O269 1.269 . S
C274 O275 1.249 . S
C274 O276 1.270 . S
O275 Zn267 1.943 . S
O275 C274 1.249 . S
O276 Zn266 2.067 . S
O276 C274 1.270 . S
C277 O270 1.262 . S
C277 O278 1.232 1_554 S
O278 C277 1.232 1_556 S
C279 O271 1.260 . S
C279 O272 1.257 . S
Zn280 O283 2.031 1_554 S
Zn280 O285 2.049 . S
Zn280 O290 2.067 . S
Zn281 O282 1.935 1_554 S
Zn281 O284 2.000 . S
Zn281 O286 2.018 . S
Zn281 O289 1.945 . S
O282 Zn281 1.935 1_556 S
O282 C287 1.254 . S
O283 Zn280 2.031 1_556 S
O283 C287 1.269 . S
O284 Zn281 2.000 . S
O284 C291 1.289 . S
O285 Zn280 2.049 . S
O285 C293 1.260 . S
O286 Zn281 2.018 . S
O286 C293 1.257 . S
C287 O282 1.254 . S
C287 O283 1.269 . S
C288 O289 1.249 . S
C288 O290 1.270 . S
O289 Zn281 1.945 . S
O289 C288 1.249 . S
O290 Zn280 2.067 . S
O290 C288 1.270 . S
C291 O284 1.289 . S
C291 O292 1.200 1_554 S
O292 C291 1.200 1_556 S
C293 O285 1.260 . S
C293 O286 1.257 . S
Zn294 O297 2.031 . S
Zn294 O299 2.049 . S
Zn294 O304 2.067 . S
Zn295 O296 1.962 . S
Zn295 O298 1.986 . S
Zn295 O300 1.996 . S
Zn295 O303 1.943 . S
O296 Zn295 1.962 . S
O296 C301 1.254 . S
O297 Zn294 2.031 . S
O297 C301 1.269 . S
O298 Zn295 1.986 . S
O298 C305 1.262 . S
O299 Zn294 2.049 . S
O299 C307 1.260 . S
O300 Zn295 1.996 . S
O300 C307 1.257 . S
C301 O296 1.254 . S
C301 O297 1.269 . S
C302 O303 1.249 . S
C302 O304 1.270 . S
O303 Zn295 1.943 . S
O303 C302 1.249 . S
O304 Zn294 2.067 . S
O304 C302 1.270 . S
C305 O298 1.262 . S
C305 O306 1.232 . S
O306 C305 1.232 . S
C307 O299 1.260 . S
C307 O300 1.257 . S
Zn308 O311 2.031 . S
Zn308 O313 2.049 . S
Zn308 O318 2.067 . S
Zn309 O310 1.962 . S
Zn309 O312 1.986 . S
Zn309 O314 1.996 . S
Zn309 O317 1.943 . S
O310 Zn309 1.962 . S
O310 C315 1.254 . S
O311 Zn308 2.031 . S
O311 C315 1.269 . S
O312 Zn309 1.986 . S
O312 C319 1.262 . S
O313 Zn308 2.049 . S
O313 C321 1.260 . S
O314 Zn309 1.996 . S
O314 C321 1.257 . S
C315 O310 1.254 . S
C315 O311 1.269 . S
C316 O317 1.249 . S
C316 O318 1.270 . S
O317 Zn309 1.943 . S
O317 C316 1.249 . S
O318 Zn308 2.067 . S
O318 C316 1.270 . S
C319 O312 1.262 . S
C319 O320 1.232 . S
O320 C319 1.232 . S
C321 O313 1.260 . S
C321 O314 1.257 . S
Zn322 O325 2.031 . S
Zn322 O327 2.049 . S
Zn322 O332 2.067 . S
Zn323 O324 1.962 . S
Zn323 O326 1.986 . S
Zn323 O328 1.996 . S
Zn323 O331 1.943 . S
O324 Zn323 1.962 . S
O324 C329 1.254 . S
O325 Zn322 2.031 . S
O325 C329 1.269 . S
O326 Zn323 1.986 . S
O326 C333 1.262 . S
O327 Zn322 2.049 . S
O327 C335 1.260 . S
O328 Zn323 1.996 . S
O328 C335 1.257 . S
C329 O324 1.254 . S
C329 O325 1.269 . S
C330 O331 1.249 . S
C330 O332 1.270 . S
O331 Zn323 1.943 . S
O331 C330 1.249 . S
O332 Zn322 2.067 . S
O332 C330 1.270 . S
C333 O326 1.262 . S
C333 O334 1.232 . S
O334 C333 1.232 . S
C335 O327 1.260 . S
C335 O328 1.257 . S
O336 Mn337 2.187 1_556 S
O336 C350 1.246 . S
Mn337 O336 2.187 1_554 S
Mn337 O340 2.137 1_445 S
Mn337 O341 2.259 1_455 S
Mn337 O343 2.164 1_454 S
Mn337 O345 2.154 1_545 S
Mn337 O355 2.182 1_544 S
O338 Mn339 2.087 1_556 S
O338 C350 1.256 1_565 S
Mn339 O338 2.087 1_554 S
Mn339 O346 2.089 . S
Mn339 O355 2.290 1_554 S
Mn339 O356 2.251 1_554 S
O340 Mn337 2.137 1_665 S
O340 C351 1.239 . S
O341 Mn337 2.259 1_655 S
O341 Mn342 2.290 1_554 S
O341 C352 1.278 . S
Mn342 O341 2.290 1_556 S
Mn342 O344 2.088 1_556 S
Mn342 O347 2.251 1_556 S
Mn342 O348 2.087 . S
O343 Mn337 2.164 1_656 S
O343 C353 1.244 . S
O344 Mn342 2.088 1_554 S
O344 C351 1.259 1_545 S
O345 Mn337 2.154 1_565 S
O345 C354 1.239 . S
O346 Mn339 2.089 . S
O346 C354 1.256 . S
O347 Mn342 2.251 1_554 S
O347 C352 1.241 . S
O348 Mn342 2.087 . S
O348 C353 1.256 . S
C349 O355 1.278 . S
C349 O356 1.241 . S
C350 O336 1.246 . S
C350 O338 1.256 1_545 S
C351 O340 1.239 . S
C351 O344 1.259 1_565 S
C352 O341 1.278 . S
C352 O347 1.241 . S
C353 O343 1.244 . S
C353 O348 1.256 . S
C354 O345 1.239 . S
C354 O346 1.256 . S
O355 Mn337 2.182 1_566 S
O355 Mn339 2.290 1_556 S
O355 C349 1.278 . S
O356 Mn339 2.251 1_556 S
O356 C349 1.241 . S
O357 Mn358 2.163 . S
O357 C371 1.244 . S
Mn358 O357 2.163 . S
Mn358 O361 2.160 . S
Mn358 O362 2.221 . S
Mn358 O364 2.163 . S
Mn358 O366 2.160 . S
Mn358 O376 2.221 . S
O359 Mn360 2.087 . S
O359 C371 1.256 . S
Mn360 O359 2.087 . S
Mn360 O367 2.089 . S
Mn360 O376 2.290 . S
Mn360 O377 2.251 . S
O361 Mn358 2.160 . S
O361 C372 1.239 . S
O362 Mn358 2.221 . S
O362 Mn363 2.290 . S
O362 C373 1.278 . S
Mn363 O362 2.290 . S
Mn363 O365 2.089 . S
Mn363 O368 2.251 . S
Mn363 O369 2.087 . S
O364 Mn358 2.163 . S
O364 C374 1.244 . S
O365 Mn363 2.089 . S
O365 C372 1.256 . S
O366 Mn358 2.160 . S
O366 C375 1.239 . S
O367 Mn360 2.089 . S
O367 C375 1.256 . S
O368 Mn363 2.251 . S
O368 C373 1.241 . S
O369 Mn363 2.087 . S
O369 C374 1.256 . S
C370 O376 1.278 . S
C370 O377 1.241 . S
C371 O357 1.244 . S
C371 O359 1.256 . S
C372 O361 1.239 . S
C372 O365 1.256 . S
C373 O362 1.278 . S
C373 O368 1.241 . S
C374 O364 1.244 . S
C374 O369 1.256 . S
C375 O366 1.239 . S
C375 O367 1.256 . S
O376 Mn358 2.221 . S
O376 Mn360 2.290 . S
O376 C370 1.278 . S
O377 Mn360 2.251 . S
O377 C370 1.241 . S
O378 Mn379 2.163 1_565 S
O378 C392 1.244 . S
Mn379 O378 2.163 1_545 S
Mn379 O382 2.160 . S
Mn379 O383 2.221 1_545 S
Mn379 O385 2.163 . S
Mn379 O387 2.160 . S
Mn379 O397 2.221 . S
O380 Mn381 2.087 . S
O380 C392 1.256 1_545 S
Mn381 O380 2.087 . S
Mn381 O388 2.089 . S
Mn381 O397 2.290 . S
Mn381 O398 2.251 . S
O382 Mn379 2.160 . S
O382 C393 1.239 . S
O383 Mn379 2.221 1_565 S
O383 Mn384 2.290 . S
O383 C394 1.278 . S
Mn384 O383 2.290 . S
Mn384 O386 2.089 1_565 S
Mn384 O389 2.251 . S
Mn384 O390 2.087 . S
O385 Mn379 2.163 . S
O385 C395 1.244 1_545 S
O386 Mn384 2.089 1_545 S
O386 C393 1.256 . S
O387 Mn379 2.160 . S
O387 C396 1.239 . S
O388 Mn381 2.089 . S
O388 C396 1.256 . S
O389 Mn384 2.251 . S
O389 C394 1.241 . S
O390 Mn384 2.087 . S
O390 C395 1.256 . S
C391 O397 1.278 . S
C391 O398 1.241 . S
C392 O378 1.244 . S
C392 O380 1.256 1_565 S
C393 O382 1.239 . S
C393 O386 1.256 . S
C394 O383 1.278 . S
C394 O389 1.241 . S
C395 O385 1.244 1_565 S
C395 O390 1.256 . S
C396 O387 1.239 . S
C396 O388 1.256 . S
O397 Mn379 2.221 . S
O397 Mn381 2.290 . S
O397 C391 1.278 . S
O398 Mn381 2.251 . S
O398 C391 1.241 . S
O399 Mn400 2.163 . S
O399 C413 1.244 . S
Mn400 O399 2.163 . S
Mn400 O403 2.160 . S
Mn400 O404 2.221 . S
Mn400 O406 2.163 . S
Mn400 O408 2.160 . S
Mn400 O418 2.221 . S
O401 Mn402 2.087 . S
O401 C413 1.256 . S
Mn402 O401 2.087 . S
Mn402 O409 2.089 . S
Mn402 O418 2.290 . S
Mn402 O419 2.251 . S
O403 Mn400 2.160 . S
O403 C414 1.239 . S
O404 Mn400 2.221 . S
O404 Mn405 2.290 . S
O404 C415 1.278 . S
Mn405 O404 2.290 . S
Mn405 O407 2.089 . S
Mn405 O410 2.251 . S
Mn405 O411 2.087 . S
O406 Mn400 2.163 . S
O406 C416 1.244 . S
O407 Mn405 2.089 . S
O407 C414 1.256 . S
O408 Mn400 2.160 . S
O408 C417 1.239 . S
O409 Mn402 2.089 . S
O409 C417 1.256 . S
O410 Mn405 2.251 . S
O410 C415 1.241 . S
O411 Mn405 2.087 . S
O411 C416 1.256 . S
C412 O418 1.278 . S
C412 O419 1.241 . S
C413 O399 1.244 . S
C413 O401 1.256 . S
C414 O403 1.239 . S
C414 O407 1.256 . S
C415 O404 1.278 . S
C415 O410 1.241 . S
C416 O406 1.244 . S
C416 O411 1.256 . S
C417 O408 1.239 . S
C417 O409 1.256 . S
O418 Mn400 2.221 . S
O418 Mn402 2.290 . S
O418 C412 1.278 . S
O419 Mn402 2.251 . S
O419 C412 1.241 . S
O420 Mn421 2.163 1_665 S
O420 C434 1.244 . S
Mn421 O420 2.163 1_445 S
Mn421 O424 2.160 . S
Mn421 O425 2.221 . S
Mn421 O427 2.163 1_455 S
Mn421 O429 2.160 1_545 S
Mn421 O439 2.221 1_445 S
O422 Mn423 2.087 1_655 S
O422 C434 1.256 . S
Mn423 O422 2.087 1_455 S
Mn423 O430 2.089 . S
Mn423 O439 2.290 1_455 S
Mn423 O440 2.251 1_455 S
O424 Mn421 2.160 . S
O424 C435 1.239 . S
O425 Mn421 2.221 . S
O425 Mn426 2.290 1_455 S
O425 C436 1.278 . S
Mn426 O425 2.290 1_655 S
Mn426 O428 2.089 1_655 S
Mn426 O431 2.251 1_655 S
Mn426 O432 2.087 . S
O427 Mn421 2.163 1_655 S
O427 C437 1.244 . S
O428 Mn426 2.089 1_455 S
O428 C435 1.256 . S
O429 Mn421 2.160 1_565 S
O429 C438 1.239 . S
O430 Mn423 2.089 . S
O430 C438 1.256 . S
O431 Mn426 2.251 1_455 S
O431 C436 1.241 . S
O432 Mn426 2.087 . S
O432 C437 1.256 . S
C433 O439 1.278 . S
C433 O440 1.241 . S
C434 O420 1.244 . S
C434 O422 1.256 . S
C435 O424 1.239 . S
C435 O428 1.256 . S
C436 O425 1.278 . S
C436 O431 1.241 . S
C437 O427 1.244 . S
C437 O432 1.256 . S
C438 O429 1.239 . S
C438 O430 1.256 . S
O439 Mn421 2.221 1_665 S
O439 Mn423 2.290 1_655 S
O439 C433 1.278 . S
O440 Mn423 2.251 1_655 S
O440 C433 1.241 . S
O441 Mn442 2.163 . S
O441 C455 1.244 . S
Mn442 O441 2.163 . S
Mn442 O445 2.160 . S
Mn442 O446 2.221 . S
Mn442 O448 2.163 . S
Mn442 O450 2.160 . S
Mn442 O460 2.221 . S
O443 Mn444 2.087 . S
O443 C455 1.256 . S
Mn444 O443 2.087 . S
Mn444 O451 2.089 . S
Mn444 O460 2.290 . S
Mn444 O461 2.251 . S
O445 Mn442 2.160 . S
O445 C456 1.239 . S
O446 Mn442 2.221 . S
O446 Mn447 2.290 . S
O446 C457 1.278 . S
Mn447 O446 2.290 . S
Mn447 O449 2.089 . S
Mn447 O452 2.251 . S
Mn447 O453 2.087 . S
O448 Mn442 2.163 . S
O448 C458 1.244 . S
O449 Mn447 2.089 . S
O449 C456 1.256 . S
O450 Mn442 2.160 . S
O450 C459 1.239 . S
O451 Mn444 2.089 . S
O451 C459 1.256 . S
O452 Mn447 2.251 . S
O452 C457 1.241 . S
O453 Mn447 2.087 . S
O453 C458 1.256 . S
C454 O460 1.278 . S
C454 O461 1.241 . S
C455 O441 1.244 . S
C455 O443 1.256 . S
C456 O445 1.239 . S
C456 O449 1.256 . S
C457 O446 1.278 . S
C457 O452 1.241 . S
C458 O448 1.244 . S
C458 O453 1.256 . S
C459 O450 1.239 . S
C459 O451 1.256 . S
O460 Mn442 2.221 . S
O460 Mn444 2.290 . S
O460 C454 1.278 . S
O461 Mn444 2.251 . S
O461 C454 1.241 . S
O462 Mn463 2.163 1_566 S
O462 C476 1.244 . S
Mn463 O462 2.163 1_544 S
Mn463 O466 2.160 . S
Mn463 O467 2.221 . S
Mn463 O469 2.163 1_545 S
Mn463 O471 2.160 1_554 S
Mn463 O481 2.221 1_544 S
O464 Mn465 2.087 1_565 S
O464 C476 1.256 . S
Mn465 O464 2.087 1_545 S
Mn465 O472 2.089 . S
Mn465 O481 2.290 1_545 S
Mn465 O482 2.251 1_545 S
O466 Mn463 2.160 . S
O466 C477 1.239 . S
O467 Mn463 2.221 . S
O467 Mn468 2.290 1_545 S
O467 C478 1.278 . S
Mn468 O467 2.290 1_565 S
Mn468 O470 2.087 1_565 S
Mn468 O473 2.251 1_565 S
Mn468 O474 2.087 . S
O469 Mn463 2.163 1_565 S
O469 C479 1.244 . S
O470 Mn468 2.087 1_545 S
O470 C477 1.263 . S
O471 Mn463 2.160 1_556 S
O471 C480 1.239 . S
O472 Mn465 2.089 . S
O472 C480 1.256 . S
O473 Mn468 2.251 1_545 S
O473 C478 1.241 . S
O474 Mn468 2.087 . S
O474 C479 1.256 . S
C475 O481 1.278 . S
C475 O482 1.241 . S
C476 O462 1.244 . S
C476 O464 1.256 . S
C477 O466 1.239 . S
C477 O470 1.263 . S
C478 O467 1.278 . S
C478 O473 1.241 . S
C479 O469 1.244 . S
C479 O474 1.256 . S
C480 O471 1.239 . S
C480 O472 1.256 . S
O481 Mn463 2.221 1_566 S
O481 Mn465 2.290 1_565 S
O481 C475 1.278 . S
O482 Mn465 2.251 1_565 S
O482 C475 1.241 . S
O483 Mn484 2.163 . S
O483 C497 1.244 . S
Mn484 O483 2.163 . S
Mn484 O487 2.160 . S
Mn484 O488 2.221 . S
Mn484 O490 2.163 . S
Mn484 O492 2.160 . S
Mn484 O502 2.221 . S
O485 Mn486 2.087 . S
O485 C497 1.256 . S
Mn486 O485 2.087 . S
Mn486 O493 2.089 . S
Mn486 O502 2.290 . S
Mn486 O503 2.251 . S
O487 Mn484 2.160 . S
O487 C498 1.239 . S
O488 Mn484 2.221 . S
O488 Mn489 2.290 . S
O488 C499 1.278 . S
Mn489 O488 2.290 . S
Mn489 O491 2.089 . S
Mn489 O494 2.251 . S
Mn489 O495 2.087 . S
O490 Mn484 2.163 . S
O490 C500 1.244 . S
O491 Mn489 2.089 . S
O491 C498 1.256 . S
O492 Mn484 2.160 . S
O492 C501 1.239 . S
O493 Mn486 2.089 . S
O493 C501 1.256 . S
O494 Mn489 2.251 . S
O494 C499 1.241 . S
O495 Mn489 2.087 . S
O495 C500 1.256 . S
C496 O502 1.278 . S
C496 O503 1.241 . S
C497 O483 1.244 . S
C497 O485 1.256 . S
C498 O487 1.239 . S
C498 O491 1.256 . S
C499 O488 1.278 . S
C499 O494 1.241 . S
C500 O490 1.244 . S
C500 O495 1.256 . S
C501 O492 1.239 . S
C501 O493 1.256 . S
O502 Mn484 2.221 . S
O502 Mn486 2.290 . S
O502 C496 1.278 . S
O503 Mn486 2.251 . S
O503 C496 1.241 . S
O504 Mn505 2.163 1_556 S
O504 C518 1.244 . S
Mn505 O504 2.163 1_554 S
Mn505 O508 2.160 . S
Mn505 O509 2.221 1_554 S
Mn505 O511 2.163 . S
Mn505 O513 2.160 . S
Mn505 O523 2.221 . S
O506 Mn507 2.087 . S
O506 C518 1.256 1_554 S
Mn507 O506 2.087 . S
Mn507 O514 2.089 . S
Mn507 O523 2.290 . S
Mn507 O524 2.251 . S
O508 Mn505 2.160 . S
O508 C519 1.239 . S
O509 Mn505 2.221 1_556 S
O509 Mn510 2.290 . S
O509 C520 1.278 . S
Mn510 O509 2.290 . S
Mn510 O512 2.089 1_556 S
Mn510 O515 2.251 . S
Mn510 O516 2.087 . S
O511 Mn505 2.163 . S
O511 C521 1.244 1_554 S
O512 Mn510 2.089 1_554 S
O512 C519 1.256 . S
O513 Mn505 2.160 . S
O513 C522 1.239 . S
O514 Mn507 2.089 . S
O514 C522 1.256 . S
O515 Mn510 2.251 . S
O515 C520 1.241 . S
O516 Mn510 2.087 . S
O516 C521 1.256 . S
C517 O523 1.278 . S
C517 O524 1.241 . S
C518 O504 1.244 . S
C518 O506 1.256 1_556 S
C519 O508 1.239 . S
C519 O512 1.256 . S
C520 O509 1.278 . S
C520 O515 1.241 . S
C521 O511 1.244 1_556 S
C521 O516 1.256 . S
C522 O513 1.239 . S
C522 O514 1.256 . S
O523 Mn505 2.221 . S
O523 Mn507 2.290 . S
O523 C517 1.278 . S
O524 Mn507 2.251 . S
O524 C517 1.241 . S
O525 Mn526 2.163 . S
O525 C539 1.244 . S
Mn526 O525 2.163 . S
Mn526 O529 2.160 . S
Mn526 O530 2.221 . S
Mn526 O532 2.163 . S
Mn526 O534 2.160 . S
Mn526 O544 2.221 . S
O527 Mn528 2.087 . S
O527 C539 1.256 . S
Mn528 O527 2.087 . S
Mn528 O535 2.089 . S
Mn528 O544 2.290 . S
Mn528 O545 2.251 . S
O529 Mn526 2.160 . S
O529 C540 1.239 . S
O530 Mn526 2.221 . S
O530 Mn531 2.290 . S
O530 C541 1.278 . S
Mn531 O530 2.290 . S
Mn531 O533 2.089 . S
Mn531 O536 2.251 . S
Mn531 O537 2.087 . S
O532 Mn526 2.163 . S
O532 C542 1.244 . S
O533 Mn531 2.089 . S
O533 C540 1.256 . S
O534 Mn526 2.160 . S
O534 C543 1.239 . S
O535 Mn528 2.089 . S
O535 C543 1.256 . S
O536 Mn531 2.251 . S
O536 C541 1.241 . S
O537 Mn531 2.087 . S
O537 C542 1.256 . S
C538 O544 1.278 . S
C538 O545 1.241 . S
C539 O525 1.244 . S
C539 O527 1.256 . S
C540 O529 1.239 . S
C540 O533 1.256 . S
C541 O530 1.278 . S
C541 O536 1.241 . S
C542 O532 1.244 . S
C542 O537 1.256 . S
C543 O534 1.239 . S
C543 O535 1.256 . S
O544 Mn526 2.221 . S
O544 Mn528 2.290 . S
O544 C538 1.278 . S
O545 Mn528 2.251 . S
O545 C538 1.241 . S
O546 Mn547 2.163 1_655 S
O546 C560 1.244 . S
Mn547 O546 2.163 1_455 S
Mn547 O550 2.160 . S
Mn547 O551 2.221 1_455 S
Mn547 O553 2.164 . S
Mn547 O555 2.160 . S
Mn547 O565 2.221 . S
O548 Mn549 2.087 . S
O548 C560 1.256 1_455 S
Mn549 O548 2.087 . S
Mn549 O556 2.089 . S
Mn549 O565 2.290 . S
Mn549 O566 2.251 . S
O550 Mn547 2.160 . S
O550 C561 1.239 . S
O551 Mn547 2.221 1_655 S
O551 Mn552 2.290 . S
O551 C562 1.278 . S
Mn552 O551 2.290 . S
Mn552 O554 2.078 1_655 S
Mn552 O557 2.251 . S
Mn552 O558 2.087 . S
O553 Mn547 2.164 . S
O553 C563 1.225 1_455 S
O554 Mn552 2.078 1_455 S
O554 C561 1.264 . S
O555 Mn547 2.160 . S
O555 C564 1.239 . S
O556 Mn549 2.089 . S
O556 C564 1.256 . S
O557 Mn552 2.251 . S
O557 C562 1.241 . S
O558 Mn552 2.087 . S
O558 C563 1.256 . S
C559 O565 1.278 . S
C559 O566 1.241 . S
C560 O546 1.244 . S
C560 O548 1.256 1_655 S
C561 O550 1.239 . S
C561 O554 1.264 . S
C562 O551 1.278 . S
C562 O557 1.241 . S
C563 O553 1.225 1_655 S
C563 O558 1.256 . S
C564 O555 1.239 . S
C564 O556 1.256 . S
O565 Mn547 2.221 . S
O565 Mn549 2.290 . S
O565 C559 1.278 . S
O566 Mn549 2.251 . S
O566 C559 1.241 . S
O567 Mn568 2.163 . S
O567 C581 1.244 . S
Mn568 O567 2.163 . S
Mn568 O571 2.160 . S
Mn568 O572 2.221 . S
Mn568 O574 2.163 . S
Mn568 O576 2.160 . S
Mn568 O586 2.221 . S
O569 Mn570 2.087 . S
O569 C581 1.256 . S
Mn570 O569 2.087 . S
Mn570 O577 2.089 . S
Mn570 O586 2.290 . S
Mn570 O587 2.251 . S
O571 Mn568 2.160 . S
O571 C582 1.239 . S
O572 Mn568 2.221 . S
O572 Mn573 2.290 . S
O572 C583 1.278 . S
Mn573 O572 2.290 . S
Mn573 O575 2.089 . S
Mn573 O578 2.251 . S
Mn573 O579 2.087 . S
O574 Mn568 2.163 . S
O574 C584 1.244 . S
O575 Mn573 2.089 . S
O575 C582 1.256 . S
O576 Mn568 2.160 . S
O576 C585 1.239 . S
O577 Mn570 2.089 . S
O577 C585 1.256 . S
O578 Mn573 2.251 . S
O578 C583 1.241 . S
O579 Mn573 2.087 . S
O579 C584 1.256 . S
C580 O586 1.278 . S
C580 O587 1.241 . S
C581 O567 1.244 . S
C581 O569 1.256 . S
C582 O571 1.239 . S
C582 O575 1.256 . S
C583 O572 1.278 . S
C583 O578 1.241 . S
C584 O574 1.244 . S
C584 O579 1.256 . S
C585 O576 1.239 . S
C585 O577 1.256 . S
O586 Mn568 2.221 . S
O586 Mn570 2.290 . S
O586 C580 1.278 . S
O587 Mn570 2.251 . S
O587 C580 1.241 . S
O588 Mn589 2.163 . S
O588 C602 1.244 . S
Mn589 O588 2.163 . S
Mn589 O592 2.160 . S
Mn589 O593 2.221 . S
Mn589 O595 2.163 . S
Mn589 O597 2.160 . S
Mn589 O607 2.221 . S
O590 Mn591 2.087 . S
O590 C602 1.256 . S
Mn591 O590 2.087 . S
Mn591 O598 2.089 . S
Mn591 O607 2.290 . S
Mn591 O608 2.251 . S
O592 Mn589 2.160 . S
O592 C603 1.239 . S
O593 Mn589 2.221 . S
O593 Mn594 2.290 . S
O593 C604 1.278 . S
Mn594 O593 2.290 . S
Mn594 O596 2.089 . S
Mn594 O599 2.251 . S
Mn594 O600 2.087 . S
O595 Mn589 2.163 . S
O595 C605 1.244 . S
O596 Mn594 2.089 . S
O596 C603 1.256 . S
O597 Mn589 2.160 . S
O597 C606 1.239 . S
O598 Mn591 2.089 . S
O598 C606 1.256 . S
O599 Mn594 2.251 . S
O599 C604 1.241 . S
O600 Mn594 2.087 . S
O600 C605 1.256 . S
C601 O607 1.278 . S
C601 O608 1.241 . S
C602 O588 1.244 . S
C602 O590 1.256 . S
C603 O592 1.239 . S
C603 O596 1.256 . S
C604 O593 1.278 . S
C604 O599 1.241 . S
C605 O595 1.244 . S
C605 O600 1.256 . S
C606 O597 1.239 . S
C606 O598 1.256 . S
O607 Mn589 2.221 . S
O607 Mn591 2.290 . S
O607 C601 1.278 . S
O608 Mn591 2.251 . S
O608 C601 1.241 . S
O609 Mn610 2.163 . S
O609 C623 1.244 . S
Mn610 O609 2.163 . S
Mn610 O613 2.160 . S
Mn610 O614 2.221 . S
Mn610 O616 2.163 . S
Mn610 O618 2.160 . S
Mn610 O628 2.221 . S
O611 Mn612 2.087 . S
O611 C623 1.256 . S
Mn612 O611 2.087 . S
Mn612 O619 2.089 . S
Mn612 O628 2.290 . S
Mn612 O629 2.251 . S
O613 Mn610 2.160 . S
O613 C624 1.239 . S
O614 Mn610 2.221 . S
O614 Mn615 2.290 . S
O614 C625 1.278 . S
Mn615 O614 2.290 . S
Mn615 O617 2.089 . S
Mn615 O620 2.251 . S
Mn615 O621 2.087 . S
O616 Mn610 2.163 . S
O616 C626 1.244 . S
O617 Mn615 2.089 . S
O617 C624 1.256 . S
O618 Mn610 2.160 . S
O618 C627 1.239 . S
O619 Mn612 2.089 . S
O619 C627 1.256 . S
O620 Mn615 2.251 . S
O620 C625 1.241 . S
O621 Mn615 2.087 . S
O621 C626 1.256 . S
C622 O628 1.278 . S
C622 O629 1.241 . S
C623 O609 1.244 . S
C623 O611 1.256 . S
C624 O613 1.239 . S
C624 O617 1.256 . S
C625 O614 1.278 . S
C625 O620 1.241 . S
C626 O616 1.244 . S
C626 O621 1.256 . S
C627 O618 1.239 . S
C627 O619 1.256 . S
O628 Mn610 2.221 . S
O628 Mn612 2.290 . S
O628 C622 1.278 . S
O629 Mn612 2.251 . S
O629 C622 1.241 . S
O630 Mn631 2.163 . S
O630 C644 1.244 . S
Mn631 O630 2.163 . S
Mn631 O634 2.160 . S
Mn631 O635 2.221 . S
Mn631 O637 2.163 . S
Mn631 O639 2.160 . S
Mn631 O649 2.221 . S
O632 Mn633 2.087 . S
O632 C644 1.256 . S
Mn633 O632 2.087 . S
Mn633 O640 2.089 . S
Mn633 O649 2.290 . S
Mn633 O650 2.251 . S
O634 Mn631 2.160 . S
O634 C645 1.239 . S
O635 Mn631 2.221 . S
O635 Mn636 2.290 . S
O635 C646 1.278 . S
Mn636 O635 2.290 . S
Mn636 O638 2.089 . S
Mn636 O641 2.251 . S
Mn636 O642 2.087 . S
O637 Mn631 2.163 . S
O637 C647 1.244 . S
O638 Mn636 2.089 . S
O638 C645 1.256 . S
O639 Mn631 2.160 . S
O639 C648 1.239 . S
O640 Mn633 2.089 . S
O640 C648 1.256 . S
O641 Mn636 2.251 . S
O641 C646 1.241 . S
O642 Mn636 2.087 . S
O642 C647 1.256 . S
C643 O649 1.278 . S
C643 O650 1.241 . S
C644 O630 1.244 . S
C644 O632 1.256 . S
C645 O634 1.239 . S
C645 O638 1.256 . S
C646 O635 1.278 . S
C646 O641 1.241 . S
C647 O637 1.244 . S
C647 O642 1.256 . S
C648 O639 1.239 . S
C648 O640 1.256 . S
O649 Mn631 2.221 . S
O649 Mn633 2.290 . S
O649 C643 1.278 . S
O650 Mn633 2.251 . S
O650 C643 1.241 . S
O651 Mn652 2.160 1_656 S
O651 C665 1.246 . S
Mn652 O651 2.160 1_454 S
Mn652 O655 2.160 . S
Mn652 O656 2.221 . S
Mn652 O658 2.163 1_554 S
Mn652 O660 2.160 1_455 S
Mn652 O670 2.221 1_454 S
O653 Mn654 2.087 1_556 S
O653 C665 1.256 . S
Mn654 O653 2.087 1_554 S
Mn654 O661 2.089 . S
Mn654 O670 2.290 1_554 S
Mn654 O671 2.251 1_554 S
O655 Mn652 2.160 . S
O655 C666 1.239 . S
O656 Mn652 2.221 . S
O656 Mn657 2.290 1_554 S
O656 C667 1.278 . S
Mn657 O656 2.290 1_556 S
Mn657 O659 2.086 1_556 S
Mn657 O662 2.251 1_556 S
Mn657 O663 2.087 . S
O658 Mn652 2.163 1_556 S
O658 C668 1.244 . S
O659 Mn657 2.086 1_554 S
O659 C666 1.265 . S
O660 Mn652 2.160 1_655 S
O660 C669 1.239 . S
O661 Mn654 2.089 . S
O661 C669 1.256 . S
O662 Mn657 2.251 1_554 S
O662 C667 1.241 . S
O663 Mn657 2.087 . S
O663 C668 1.256 . S
C664 O670 1.278 . S
C664 O671 1.241 . S
C665 O651 1.246 . S
C665 O653 1.256 . S
C666 O655 1.239 . S
C666 O659 1.265 . S
C667 O656 1.278 . S
C667 O662 1.241 . S
C668 O658 1.244 . S
C668 O663 1.256 . S
C669 O660 1.239 . S
C669 O661 1.256 . S
O670 Mn652 2.221 1_656 S
O670 Mn654 2.290 1_556 S
O670 C664 1.278 . S
O671 Mn654 2.251 1_556 S
O671 C664 1.241 . S
H672 C684 0.930 . S
H673 C686 0.930 . S
H674 C687 0.930 . S
H675 C691 0.959 . S
H676 C691 0.959 . S
H677 C691 0.961 . S
H678 C692 0.960 . S
H679 C692 0.961 . S
H680 C692 0.959 . S
H681 C695 0.929 . S
H682 C696 0.931 1_556 S
H683 C698 0.930 . S
C684 H672 0.930 . S
C684 C685 1.404 . S
C684 C689 1.399 . S
C685 C684 1.404 . S
C685 C686 1.370 1_455 S
C686 H673 0.930 . S
C686 C685 1.370 1_655 S
C686 C687 1.388 . S
C687 H674 0.930 . S
C687 C686 1.388 . S
C687 C688 1.390 . S
C688 C687 1.390 . S
C688 C689 1.394 1_655 S
C688 C694 1.465 . S
C689 C684 1.399 . S
C689 C688 1.394 1_455 S
C689 C690 1.516 . S
C690 C689 1.516 . S
C690 C691 1.502 . S
C690 C692 1.561 1_455 S
C690 C693 1.526 . S
C691 H675 0.959 . S
C691 H676 0.959 . S
C691 H677 0.961 . S
C691 C690 1.502 . S
C692 H678 0.960 . S
C692 H679 0.961 . S
C692 H680 0.959 . S
C692 C690 1.561 1_655 S
C693 C690 1.526 . S
C693 C694 1.396 1_455 S
C693 C698 1.390 . S
C694 C688 1.465 . S
C694 C693 1.396 1_655 S
C694 C695 1.399 . S
C695 H681 0.929 . S
C695 C694 1.399 . S
C695 C696 1.385 . S
C696 H682 0.931 1_554 S
C696 C695 1.385 . S
C696 C697 1.389 . S
C697 C696 1.389 . S
C697 C698 1.387 1_655 S
C698 H683 0.930 . S
C698 C693 1.390 . S
C698 C697 1.387 1_455 S
H699 C711 0.930 . S
H700 C713 0.930 . S
H701 C714 0.930 . S
H702 C718 0.959 . S
H703 C718 0.959 . S
H704 C718 0.961 . S
H705 C719 0.960 . S
H706 C719 0.961 . S
H707 C719 0.959 . S
H708 C722 0.929 . S
H709 C723 0.931 . S
H710 C725 0.930 . S
C711 H699 0.930 . S
C711 C712 1.399 . S
C711 C716 1.399 . S
C712 C711 1.399 . S
C712 C713 1.376 . S
C713 H700 0.930 . S
C713 C712 1.376 . S
C713 C714 1.388 . S
C714 H701 0.930 . S
C714 C713 1.388 . S
C714 C715 1.390 . S
C715 C714 1.390 . S
C715 C716 1.394 . S
C715 C721 1.465 . S
C716 C711 1.399 . S
C716 C715 1.394 . S
C716 C717 1.516 . S
C717 C716 1.516 . S
C717 C718 1.502 . S
C717 C719 1.561 . S
C717 C720 1.526 . S
C718 H702 0.959 . S
C718 H703 0.959 . S
C718 H704 0.961 . S
C718 C717 1.502 . S
C719 H705 0.960 . S
C719 H706 0.961 . S
C719 H707 0.959 . S
C719 C717 1.561 . S
C720 C717 1.526 . S
C720 C721 1.396 . S
C720 C725 1.390 . S
C721 C715 1.465 . S
C721 C720 1.396 . S
C721 C722 1.399 . S
C722 H708 0.929 . S
C722 C721 1.399 . S
C722 C723 1.385 . S
C723 H709 0.931 . S
C723 C722 1.385 . S
C723 C724 1.389 . S
C724 C723 1.389 . S
C724 C725 1.387 . S
C725 H710 0.930 . S
C725 C720 1.390 . S
C725 C724 1.387 . S
H726 C738 0.930 . S
H727 C740 0.930 . S
H728 C741 0.930 . S
H729 C745 0.959 . S
H730 C745 0.959 . S
H731 C745 0.961 . S
H732 C746 0.960 . S
H733 C746 0.961 . S
H734 C746 0.959 . S
H735 C749 0.929 . S
H736 C750 0.931 . S
H737 C752 0.930 . S
C738 H726 0.930 . S
C738 C739 1.399 . S
C738 C743 1.399 . S
C739 C738 1.399 . S
C739 C740 1.376 . S
C740 H727 0.930 . S
C740 C739 1.376 . S
C740 C741 1.388 . S
C741 H728 0.930 . S
C741 C740 1.388 . S
C741 C742 1.390 . S
C742 C741 1.390 . S
C742 C743 1.394 . S
C742 C748 1.465 . S
C743 C738 1.399 . S
C743 C742 1.394 . S
C743 C744 1.516 . S
C744 C743 1.516 . S
C744 C745 1.502 . S
C744 C746 1.561 . S
C744 C747 1.526 . S
C745 H729 0.959 . S
C745 H730 0.959 . S
C745 H731 0.961 . S
C745 C744 1.502 . S
C746 H732 0.960 . S
C746 H733 0.961 . S
C746 H734 0.959 . S
C746 C744 1.561 . S
C747 C744 1.526 . S
C747 C748 1.396 . S
C747 C752 1.390 . S
C748 C742 1.465 . S
C748 C747 1.396 . S
C748 C749 1.399 . S
C749 H735 0.929 . S
C749 C748 1.399 . S
C749 C750 1.385 . S
C750 H736 0.931 . S
C750 C749 1.385 . S
C750 C751 1.389 . S
C751 C750 1.389 . S
C751 C752 1.387 . S
C752 H737 0.930 . S
C752 C747 1.390 . S
C752 C751 1.387 . S
H753 C765 0.930 . S
H754 C767 0.930 . S
H755 C768 0.930 . S
H756 C772 0.959 . S
H757 C772 0.959 . S
H758 C772 0.961 . S
H759 C773 0.960 . S
H760 C773 0.961 . S
H761 C773 0.959 . S
H762 C776 0.929 . S
H763 C777 0.931 . S
H764 C779 0.930 . S
C765 H753 0.930 . S
C765 C766 1.399 . S
C765 C770 1.399 . S
C766 C765 1.399 . S
C766 C767 1.376 . S
C767 H754 0.930 . S
C767 C766 1.376 . S
C767 C768 1.388 . S
C768 H755 0.930 . S
C768 C767 1.388 . S
C768 C769 1.390 . S
C769 C768 1.390 . S
C769 C770 1.394 . S
C769 C775 1.465 . S
C770 C765 1.399 . S
C770 C769 1.394 . S
C770 C771 1.516 . S
C771 C770 1.516 . S
C771 C772 1.502 . S
C771 C773 1.561 . S
C771 C774 1.526 . S
C772 H756 0.959 . S
C772 H757 0.959 . S
C772 H758 0.961 . S
C772 C771 1.502 . S
C773 H759 0.960 . S
C773 H760 0.961 . S
C773 H761 0.959 . S
C773 C771 1.561 . S
C774 C771 1.526 . S
C774 C775 1.396 . S
C774 C779 1.390 . S
C775 C769 1.465 . S
C775 C774 1.396 . S
C775 C776 1.399 . S
C776 H762 0.929 . S
C776 C775 1.399 . S
C776 C777 1.385 . S
C777 H763 0.931 . S
C777 C776 1.385 . S
C777 C778 1.389 . S
C778 C777 1.389 . S
C778 C779 1.387 . S
C779 H764 0.930 . S
C779 C774 1.390 . S
C779 C778 1.387 . S
H780 C792 0.930 . S
H781 C794 0.930 . S
H782 C795 0.930 . S
H783 C799 0.959 . S
H784 C799 0.959 . S
H785 C799 0.961 . S
H786 C800 0.960 . S
H787 C800 0.961 . S
H788 C800 0.959 . S
H789 C803 0.929 . S
H790 C804 0.931 . S
H791 C806 0.939 . S
C792 H780 0.930 . S
C792 C793 1.399 1_455 S
C792 C797 1.399 . S
C793 C792 1.399 1_655 S
C793 C794 1.376 . S
C794 H781 0.930 . S
C794 C793 1.376 . S
C794 C795 1.388 . S
C795 H782 0.930 . S
C795 C794 1.388 . S
C795 C796 1.390 . S
C796 C795 1.390 . S
C796 C797 1.394 1_655 S
C796 C802 1.465 . S
C797 C792 1.399 . S
C797 C796 1.394 1_455 S
C797 C798 1.516 . S
C798 C797 1.516 . S
C798 C799 1.502 . S
C798 C800 1.561 1_455 S
C798 C801 1.515 1_455 S
C799 H783 0.959 . S
C799 H784 0.959 . S
C799 H785 0.961 . S
C799 C798 1.502 . S
C800 H786 0.960 . S
C800 H787 0.961 . S
C800 H788 0.959 . S
C800 C798 1.561 1_655 S
C801 C798 1.515 1_655 S
C801 C802 1.411 . S
C801 C806 1.390 1_655 S
C802 C796 1.465 . S
C802 C801 1.411 . S
C802 C803 1.399 . S
C803 H789 0.929 . S
C803 C802 1.399 . S
C803 C804 1.385 . S
C804 H790 0.931 . S
C804 C803 1.385 . S
C804 C805 1.389 . S
C805 C804 1.389 . S
C805 C806 1.378 1_655 S
C806 H791 0.939 . S
C806 C801 1.390 1_455 S
C806 C805 1.378 1_455 S
H807 C819 0.930 . S
H808 C821 0.930 . S
H809 C822 0.930 . S
H810 C826 0.959 . S
H811 C826 0.959 . S
H812 C826 0.961 . S
H813 C827 0.960 . S
H814 C827 0.961 . S
H815 C827 0.959 . S
H816 C830 0.929 . S
H817 C831 0.931 . S
H818 C833 0.930 . S
C819 H807 0.930 . S
C819 C820 1.399 . S
C819 C824 1.399 . S
C820 C819 1.399 . S
C820 C821 1.376 . S
C821 H808 0.930 . S
C821 C820 1.376 . S
C821 C822 1.388 . S
C822 H809 0.930 . S
C822 C821 1.388 . S
C822 C823 1.390 . S
C823 C822 1.390 . S
C823 C824 1.394 . S
C823 C829 1.465 . S
C824 C819 1.399 . S
C824 C823 1.394 . S
C824 C825 1.516 . S
C825 C824 1.516 . S
C825 C826 1.502 . S
C825 C827 1.561 . S
C825 C828 1.526 . S
C826 H810 0.959 . S
C826 H811 0.959 . S
C826 H812 0.961 . S
C826 C825 1.502 . S
C827 H813 0.960 . S
C827 H814 0.961 . S
C827 H815 0.959 . S
C827 C825 1.561 . S
C828 C825 1.526 . S
C828 C829 1.396 . S
C828 C833 1.390 . S
C829 C823 1.465 . S
C829 C828 1.396 . S
C829 C830 1.399 . S
C830 H816 0.929 . S
C830 C829 1.399 . S
C830 C831 1.385 . S
C831 H817 0.931 . S
C831 C830 1.385 . S
C831 C832 1.389 . S
C832 C831 1.389 . S
C832 C833 1.387 . S
C833 H818 0.930 . S
C833 C828 1.390 . S
C833 C832 1.387 . S
H834 C846 0.930 . S
H835 C848 0.930 . S
H836 C849 0.930 . S
H837 C853 0.959 . S
H838 C853 0.959 1_554 S
H839 C853 0.961 . S
H840 C854 0.960 . S
H841 C854 0.961 1_554 S
H842 C854 0.959 . S
H843 C857 0.929 . S
H844 C858 0.931 . S
H845 C860 0.930 . S
C846 H834 0.930 . S
C846 C847 1.399 . S
C846 C851 1.399 . S
C847 C846 1.399 . S
C847 C848 1.376 . S
C848 H835 0.930 . S
C848 C847 1.376 . S
C848 C849 1.388 . S
C849 H836 0.930 . S
C849 C848 1.388 . S
C849 C850 1.390 . S
C850 C849 1.390 . S
C850 C851 1.394 . S
C850 C856 1.465 . S
C851 C846 1.399 . S
C851 C850 1.394 . S
C851 C852 1.516 . S
C852 C851 1.516 . S
C852 C853 1.502 . S
C852 C854 1.561 . S
C852 C855 1.526 . S
C853 H837 0.959 . S
C853 H838 0.959 1_556 S
C853 H839 0.961 . S
C853 C852 1.502 . S
C854 H840 0.960 . S
C854 H841 0.961 1_556 S
C854 H842 0.959 . S
C854 C852 1.561 . S
C855 C852 1.526 . S
C855 C856 1.396 . S
C855 C860 1.390 . S
C856 C850 1.465 . S
C856 C855 1.396 . S
C856 C857 1.399 . S
C857 H843 0.929 . S
C857 C856 1.399 . S
C857 C858 1.385 . S
C858 H844 0.931 . S
C858 C857 1.385 . S
C858 C859 1.389 . S
C859 C858 1.389 . S
C859 C860 1.387 . S
C860 H845 0.930 . S
C860 C855 1.390 . S
C860 C859 1.387 . S
H861 C873 0.930 . S
H862 C875 0.930 . S
H863 C876 0.930 . S
H864 C880 0.959 . S
H865 C880 0.959 . S
H866 C880 0.961 . S
H867 C881 0.960 . S
H868 C881 0.961 . S
H869 C881 0.959 . S
H870 C884 0.929 . S
H871 C885 0.931 . S
H872 C887 0.930 . S
C873 H861 0.930 . S
C873 C874 1.399 . S
C873 C878 1.399 . S
C874 C873 1.399 . S
C874 C875 1.376 . S
C875 H862 0.930 . S
C875 C874 1.376 . S
C875 C876 1.388 . S
C876 H863 0.930 . S
C876 C875 1.388 . S
C876 C877 1.390 . S
C877 C876 1.390 . S
C877 C878 1.394 . S
C877 C883 1.465 . S
C878 C873 1.399 . S
C878 C877 1.394 . S
C878 C879 1.516 . S
C879 C878 1.516 . S
C879 C880 1.502 . S
C879 C881 1.561 . S
C879 C882 1.526 . S
C880 H864 0.959 . S
C880 H865 0.959 . S
C880 H866 0.961 . S
C880 C879 1.502 . S
C881 H867 0.960 . S
C881 H868 0.961 . S
C881 H869 0.959 . S
C881 C879 1.561 . S
C882 C879 1.526 . S
C882 C883 1.396 . S
C882 C887 1.390 . S
C883 C877 1.465 . S
C883 C882 1.396 . S
C883 C884 1.399 . S
C884 H870 0.929 . S
C884 C883 1.399 . S
C884 C885 1.385 . S
C885 H871 0.931 . S
C885 C884 1.385 . S
C885 C886 1.389 . S
C886 C885 1.389 . S
C886 C887 1.387 . S
C887 H872 0.930 . S
C887 C882 1.390 . S
C887 C886 1.387 . S
H888 C900 0.930 . S
H889 C902 0.930 . S
H890 C903 0.930 . S
H891 C907 0.959 . S
H892 C907 0.959 . S
H893 C907 0.961 . S
H894 C908 0.960 . S
H895 C908 0.961 . S
H896 C908 0.959 . S
H897 C911 0.929 . S
H898 C912 0.931 . S
H899 C914 0.930 . S
C900 H888 0.930 . S
C900 C901 1.399 1_565 S
C900 C905 1.399 . S
C901 C900 1.399 1_545 S
C901 C902 1.376 . S
C902 H889 0.930 . S
C902 C901 1.376 . S
C902 C903 1.388 . S
C903 H890 0.930 . S
C903 C902 1.388 . S
C903 C904 1.390 . S
C904 C903 1.390 . S
C904 C905 1.394 1_545 S
C904 C910 1.465 . S
C905 C900 1.399 . S
C905 C904 1.394 1_565 S
C905 C906 1.516 . S
C906 C905 1.516 . S
C906 C907 1.502 . S
C906 C908 1.561 . S
C906 C909 1.526 . S
C907 H891 0.959 . S
C907 H892 0.959 . S
C907 H893 0.961 . S
C907 C906 1.502 . S
C908 H894 0.960 . S
C908 H895 0.961 . S
C908 H896 0.959 . S
C908 C906 1.561 . S
C909 C906 1.526 . S
C909 C910 1.396 1_565 S
C909 C914 1.390 . S
C910 C904 1.465 . S
C910 C909 1.396 1_545 S
C910 C911 1.399 . S
C911 H897 0.929 . S
C911 C910 1.399 . S
C911 C912 1.385 . S
C912 H898 0.931 . S
C912 C911 1.385 . S
C912 C913 1.389 1_545 S
C913 C912 1.389 1_565 S
C913 C914 1.387 . S
C914 H899 0.930 . S
C914 C909 1.390 . S
C914 C913 1.387 . S
H915 C927 0.930 . S
H916 C929 0.930 . S
H917 C930 0.930 . S
H918 C934 0.959 . S
H919 C934 0.959 . S
H920 C934 0.961 . S
H921 C935 0.960 . S
H922 C935 0.961 . S
H923 C935 0.959 . S
H924 C938 0.929 . S
H925 C939 0.931 . S
H926 C941 0.930 . S
C927 H915 0.930 . S
C927 C928 1.399 . S
C927 C932 1.399 . S
C928 C927 1.399 . S
C928 C929 1.376 . S
C929 H916 0.930 . S
C929 C928 1.376 . S
C929 C930 1.388 . S
C930 H917 0.930 . S
C930 C929 1.388 . S
C930 C931 1.390 . S
C931 C930 1.390 . S
C931 C932 1.394 . S
C931 C937 1.465 . S
C932 C927 1.399 . S
C932 C931 1.394 . S
C932 C933 1.516 . S
C933 C932 1.516 . S
C933 C934 1.502 . S
C933 C935 1.561 . S
C933 C936 1.526 . S
C934 H918 0.959 . S
C934 H919 0.959 . S
C934 H920 0.961 . S
C934 C933 1.502 . S
C935 H921 0.960 . S
C935 H922 0.961 . S
C935 H923 0.959 . S
C935 C933 1.561 . S
C936 C933 1.526 . S
C936 C937 1.396 . S
C936 C941 1.390 . S
C937 C931 1.465 . S
C937 C936 1.396 . S
C937 C938 1.399 . S
C938 H924 0.929 . S
C938 C937 1.399 . S
C938 C939 1.385 . S
C939 H925 0.931 . S
C939 C938 1.385 . S
C939 C940 1.389 . S
C940 C939 1.389 . S
C940 C941 1.387 . S
C941 H926 0.930 . S
C941 C936 1.390 . S
C941 C940 1.387 . S
H942 C954 0.930 . S
H943 C956 0.930 . S
H944 C957 0.930 . S
H945 C961 0.959 . S
H946 C961 0.959 . S
H947 C961 0.961 . S
H948 C962 0.960 . S
H949 C962 0.961 . S
H950 C962 0.959 . S
H951 C965 0.929 . S
H952 C966 0.931 . S
H953 C968 0.930 1_565 S
C954 H942 0.930 . S
C954 C955 1.399 1_565 S
C954 C959 1.399 . S
C955 C954 1.399 1_545 S
C955 C956 1.376 . S
C956 H943 0.930 . S
C956 C955 1.376 . S
C956 C957 1.388 . S
C957 H944 0.930 . S
C957 C956 1.388 . S
C957 C958 1.390 . S
C958 C957 1.390 . S
C958 C959 1.394 1_545 S
C958 C964 1.465 . S
C959 C954 1.399 . S
C959 C958 1.394 1_565 S
C959 C960 1.516 . S
C960 C959 1.516 . S
C960 C961 1.502 . S
C960 C962 1.561 . S
C960 C963 1.526 1_565 S
C961 H945 0.959 . S
C961 H946 0.959 . S
C961 H947 0.961 . S
C961 C960 1.502 . S
C962 H948 0.960 . S
C962 H949 0.961 . S
C962 H950 0.959 . S
C962 C960 1.561 . S
C963 C960 1.526 1_545 S
C963 C964 1.396 . S
C963 C968 1.390 . S
C964 C958 1.465 . S
C964 C963 1.396 . S
C964 C965 1.399 . S
C965 H951 0.929 . S
C965 C964 1.399 . S
C965 C966 1.385 . S
C966 H952 0.931 . S
C966 C965 1.385 . S
C966 C967 1.389 . S
C967 C966 1.389 . S
C967 C968 1.387 . S
C968 H953 0.930 1_545 S
C968 C963 1.390 . S
C968 C967 1.387 . S
H969 C981 0.930 . S
H970 C983 0.930 . S
H971 C984 0.930 . S
H972 C988 0.959 . S
H973 C988 0.959 . S
H974 C988 0.961 . S
H975 C989 0.960 . S
H976 C989 0.961 . S
H977 C989 0.959 . S
H978 C992 0.929 . S
H979 C993 0.931 . S
H980 C995 0.930 . S
C981 H969 0.930 . S
C981 C982 1.399 . S
C981 C986 1.399 . S
C982 C981 1.399 . S
C982 C983 1.376 . S
C983 H970 0.930 . S
C983 C982 1.376 . S
C983 C984 1.388 . S
C984 H971 0.930 . S
C984 C983 1.388 . S
C984 C985 1.390 . S
C985 C984 1.390 . S
C985 C986 1.394 . S
C985 C991 1.465 . S
C986 C981 1.399 . S
C986 C985 1.394 . S
C986 C987 1.516 . S
C987 C986 1.516 . S
C987 C988 1.502 . S
C987 C989 1.561 . S
C987 C990 1.526 . S
C988 H972 0.959 . S
C988 H973 0.959 . S
C988 H974 0.961 . S
C988 C987 1.502 . S
C989 H975 0.960 . S
C989 H976 0.961 . S
C989 H977 0.959 . S
C989 C987 1.561 . S
C990 C987 1.526 . S
C990 C991 1.396 . S
C990 C995 1.390 . S
C991 C985 1.465 . S
C991 C990 1.396 . S
C991 C992 1.399 . S
C992 H978 0.929 . S
C992 C991 1.399 . S
C992 C993 1.385 . S
C993 H979 0.931 . S
C993 C992 1.385 . S
C993 C994 1.389 . S
C994 C993 1.389 . S
C994 C995 1.387 . S
C995 H980 0.930 . S
C995 C990 1.390 . S
C995 C994 1.387 . S
H996 C1008 0.930 . S
H997 C1010 0.930 . S
H998 C1011 0.930 . S
H999 C1015 0.959 . S
H1000 C1015 0.959 . S
H1001 C1015 0.961 . S
H1002 C1016 0.960 . S
H1003 C1016 0.961 . S
H1004 C1016 0.959 . S
H1005 C1019 0.929 . S
H1006 C1020 0.931 . S
H1007 C1022 0.930 . S
C1008 H996 0.930 . S
C1008 C1009 1.399 . S
C1008 C1013 1.399 . S
C1009 C1008 1.399 . S
C1009 C1010 1.376 1_545 S
C1010 H997 0.930 . S
C1010 C1009 1.376 1_565 S
C1010 C1011 1.388 . S
C1011 H998 0.930 . S
C1011 C1010 1.388 . S
C1011 C1012 1.390 . S
C1012 C1011 1.390 . S
C1012 C1013 1.394 1_565 S
C1012 C1018 1.465 . S
C1013 C1008 1.399 . S
C1013 C1012 1.394 1_545 S
C1013 C1014 1.516 . S
C1014 C1013 1.516 . S
C1014 C1015 1.502 . S
C1014 C1016 1.561 . S
C1014 C1017 1.526 . S
C1015 H999 0.959 . S
C1015 H1000 0.959 . S
C1015 H1001 0.961 . S
C1015 C1014 1.502 . S
C1016 H1002 0.960 . S
C1016 H1003 0.961 . S
C1016 H1004 0.959 . S
C1016 C1014 1.561 . S
C1017 C1014 1.526 . S
C1017 C1018 1.396 1_545 S
C1017 C1022 1.390 . S
C1018 C1012 1.465 . S
C1018 C1017 1.396 1_565 S
C1018 C1019 1.399 . S
C1019 H1005 0.929 . S
C1019 C1018 1.399 . S
C1019 C1020 1.385 . S
C1020 H1006 0.931 . S
C1020 C1019 1.385 . S
C1020 C1021 1.389 1_565 S
C1021 C1020 1.389 1_545 S
C1021 C1022 1.387 . S
C1022 H1007 0.930 . S
C1022 C1017 1.390 . S
C1022 C1021 1.387 . S
H1023 C1035 0.930 . S
H1024 C1037 0.930 . S
H1025 C1038 0.930 . S
H1026 C1042 0.959 . S
H1027 C1042 0.959 . S
H1028 C1042 0.961 . S
H1029 C1043 0.960 . S
H1030 C1043 0.961 . S
H1031 C1043 0.959 . S
H1032 C1046 0.929 . S
H1033 C1047 0.931 . S
H1034 C1049 0.930 . S
C1035 H1023 0.930 . S
C1035 C1036 1.399 . S
C1035 C1040 1.399 . S
C1036 C1035 1.399 . S
C1036 C1037 1.376 . S
C1037 H1024 0.930 . S
C1037 C1036 1.376 . S
C1037 C1038 1.388 . S
C1038 H1025 0.930 . S
C1038 C1037 1.388 . S
C1038 C1039 1.390 . S
C1039 C1038 1.390 . S
C1039 C1040 1.394 . S
C1039 C1045 1.465 . S
C1040 C1035 1.399 . S
C1040 C1039 1.394 . S
C1040 C1041 1.516 . S
C1041 C1040 1.516 . S
C1041 C1042 1.502 . S
C1041 C1043 1.561 . S
C1041 C1044 1.526 . S
C1042 H1026 0.959 . S
C1042 H1027 0.959 . S
C1042 H1028 0.961 . S
C1042 C1041 1.502 . S
C1043 H1029 0.960 . S
C1043 H1030 0.961 . S
C1043 H1031 0.959 . S
C1043 C1041 1.561 . S
C1044 C1041 1.526 . S
C1044 C1045 1.396 . S
C1044 C1049 1.390 . S
C1045 C1039 1.465 . S
C1045 C1044 1.396 . S
C1045 C1046 1.399 . S
C1046 H1032 0.929 . S
C1046 C1045 1.399 . S
C1046 C1047 1.385 . S
C1047 H1033 0.931 . S
C1047 C1046 1.385 . S
C1047 C1048 1.389 . S
C1048 C1047 1.389 . S
C1048 C1049 1.387 . S
C1049 H1034 0.930 . S
C1049 C1044 1.390 . S
C1049 C1048 1.387 . S
H1050 C1062 0.930 . S
H1051 C1064 0.930 . S
H1052 C1065 0.930 . S
H1053 C1069 0.959 . S
H1054 C1069 0.959 . S
H1055 C1069 0.961 . S
H1056 C1070 0.960 . S
H1057 C1070 0.961 . S
H1058 C1070 0.959 . S
H1059 C1073 0.929 . S
H1060 C1074 0.931 . S
H1061 C1076 0.930 . S
C1062 H1050 0.930 . S
C1062 C1063 1.399 1_545 S
C1062 C1067 1.399 . S
C1063 C1062 1.399 1_565 S
C1063 C1064 1.376 . S
C1064 H1051 0.930 . S
C1064 C1063 1.376 . S
C1064 C1065 1.388 . S
C1065 H1052 0.930 . S
C1065 C1064 1.388 . S
C1065 C1066 1.390 . S
C1066 C1065 1.390 . S
C1066 C1067 1.394 1_565 S
C1066 C1072 1.465 . S
C1067 C1062 1.399 . S
C1067 C1066 1.394 1_545 S
C1067 C1068 1.516 . S
C1068 C1067 1.516 . S
C1068 C1069 1.502 . S
C1068 C1070 1.561 . S
C1068 C1071 1.526 . S
C1069 H1053 0.959 . S
C1069 H1054 0.959 . S
C1069 H1055 0.961 . S
C1069 C1068 1.502 . S
C1070 H1056 0.960 . S
C1070 H1057 0.961 . S
C1070 H1058 0.959 . S
C1070 C1068 1.561 . S
C1071 C1068 1.526 . S
C1071 C1072 1.396 1_545 S
C1071 C1076 1.390 . S
C1072 C1066 1.465 . S
C1072 C1071 1.396 1_565 S
C1072 C1073 1.399 . S
C1073 H1059 0.929 . S
C1073 C1072 1.399 . S
C1073 C1074 1.385 . S
C1074 H1060 0.931 . S
C1074 C1073 1.385 . S
C1074 C1075 1.389 . S
C1075 C1074 1.389 . S
C1075 C1076 1.387 1_565 S
C1076 H1061 0.930 . S
C1076 C1071 1.390 . S
C1076 C1075 1.387 1_545 S
H1077 C1089 0.930 . S
H1078 C1091 0.930 . S
H1079 C1092 0.930 . S
H1080 C1096 0.959 . S
H1081 C1096 0.959 . S
H1082 C1096 0.961 . S
H1083 C1097 0.960 . S
H1084 C1097 0.961 . S
H1085 C1097 0.959 . S
H1086 C1100 0.929 . S
H1087 C1101 0.931 . S
H1088 C1103 0.930 . S
C1089 H1077 0.930 . S
C1089 C1090 1.399 . S
C1089 C1094 1.399 . S
C1090 C1089 1.399 . S
C1090 C1091 1.376 . S
C1091 H1078 0.930 . S
C1091 C1090 1.376 . S
C1091 C1092 1.388 . S
C1092 H1079 0.930 . S
C1092 C1091 1.388 . S
C1092 C1093 1.390 . S
C1093 C1092 1.390 . S
C1093 C1094 1.394 . S
C1093 C1099 1.465 . S
C1094 C1089 1.399 . S
C1094 C1093 1.394 . S
C1094 C1095 1.516 . S
C1095 C1094 1.516 . S
C1095 C1096 1.502 . S
C1095 C1097 1.561 . S
C1095 C1098 1.526 . S
C1096 H1080 0.959 . S
C1096 H1081 0.959 . S
C1096 H1082 0.961 . S
C1096 C1095 1.502 . S
C1097 H1083 0.960 . S
C1097 H1084 0.961 . S
C1097 H1085 0.959 . S
C1097 C1095 1.561 . S
C1098 C1095 1.526 . S
C1098 C1099 1.396 . S
C1098 C1103 1.390 . S
C1099 C1093 1.465 . S
C1099 C1098 1.396 . S
C1099 C1100 1.399 . S
C1100 H1086 0.929 . S
C1100 C1099 1.399 . S
C1100 C1101 1.385 . S
C1101 H1087 0.931 . S
C1101 C1100 1.385 . S
C1101 C1102 1.389 . S
C1102 C1101 1.389 . S
C1102 C1103 1.387 . S
C1103 H1088 0.930 . S
C1103 C1098 1.390 . S
C1103 C1102 1.387 . S
H1104 C1116 0.930 . S
H1105 C1118 0.930 . S
H1106 C1119 0.930 . S
H1107 C1123 0.959 . S
H1108 C1123 0.959 . S
H1109 C1123 0.961 . S
H1110 C1124 0.960 . S
H1111 C1124 0.961 . S
H1112 C1124 0.959 . S
H1113 C1127 0.929 . S
H1114 C1128 0.931 . S
H1115 C1130 0.930 . S
C1116 H1104 0.930 . S
C1116 C1117 1.399 1_556 S
C1116 C1121 1.399 . S
C1117 C1116 1.399 1_554 S
C1117 C1118 1.376 . S
C1118 H1105 0.930 . S
C1118 C1117 1.376 . S
C1118 C1119 1.388 . S
C1119 H1106 0.930 . S
C1119 C1118 1.388 . S
C1119 C1120 1.390 . S
C1120 C1119 1.390 . S
C1120 C1121 1.394 1_554 S
C1120 C1126 1.465 . S
C1121 C1116 1.399 . S
C1121 C1120 1.394 1_556 S
C1121 C1122 1.516 . S
C1122 C1121 1.516 . S
C1122 C1123 1.502 . S
C1122 C1124 1.561 . S
C1122 C1125 1.526 . S
C1123 H1107 0.959 . S
C1123 H1108 0.959 . S
C1123 H1109 0.961 . S
C1123 C1122 1.502 . S
C1124 H1110 0.960 . S
C1124 H1111 0.961 . S
C1124 H1112 0.959 . S
C1124 C1122 1.561 . S
C1125 C1122 1.526 . S
C1125 C1126 1.396 1_556 S
C1125 C1130 1.390 . S
C1126 C1120 1.465 . S
C1126 C1125 1.396 1_554 S
C1126 C1127 1.399 . S
C1127 H1113 0.929 . S
C1127 C1126 1.399 . S
C1127 C1128 1.385 . S
C1128 H1114 0.931 . S
C1128 C1127 1.385 . S
C1128 C1129 1.357 1_554 S
C1129 C1128 1.357 1_556 S
C1129 C1130 1.411 . S
C1130 H1115 0.930 . S
C1130 C1125 1.390 . S
C1130 C1129 1.411 . S
H1131 C1143 0.930 . S
H1132 C1145 0.930 . S
H1133 C1146 0.930 . S
H1134 C1150 0.959 . S
H1135 C1150 0.959 . S
H1136 C1150 0.961 . S
H1137 C1151 0.960 . S
H1138 C1151 0.961 . S
H1139 C1151 0.959 . S
H1140 C1154 0.929 . S
H1141 C1155 0.931 . S
H1142 C1157 0.895 1_556 S
C1143 H1131 0.930 . S
C1143 C1144 1.399 1_556 S
C1143 C1148 1.402 . S
C1144 C1143 1.399 1_554 S
C1144 C1145 1.376 . S
C1145 H1132 0.930 . S
C1145 C1144 1.376 . S
C1145 C1146 1.388 . S
C1146 H1133 0.930 . S
C1146 C1145 1.388 . S
C1146 C1147 1.390 . S
C1147 C1146 1.390 . S
C1147 C1148 1.383 1_554 S
C1147 C1153 1.465 . S
C1148 C1143 1.402 . S
C1148 C1147 1.383 1_556 S
C1148 C1149 1.523 . S
C1149 C1148 1.523 . S
C1149 C1150 1.502 . S
C1149 C1151 1.561 . S
C1149 C1152 1.526 1_556 S
C1150 H1134 0.959 . S
C1150 H1135 0.959 . S
C1150 H1136 0.961 . S
C1150 C1149 1.502 . S
C1151 H1137 0.960 . S
C1151 H1138 0.961 . S
C1151 H1139 0.959 . S
C1151 C1149 1.561 . S
C1152 C1149 1.526 1_554 S
C1152 C1153 1.396 . S
C1152 C1157 1.394 . S
C1153 C1147 1.465 . S
C1153 C1152 1.396 . S
C1153 C1154 1.399 . S
C1154 H1140 0.929 . S
C1154 C1153 1.399 . S
C1154 C1155 1.385 . S
C1155 H1141 0.931 . S
C1155 C1154 1.385 . S
C1155 C1156 1.389 . S
C1156 C1155 1.389 . S
C1156 C1157 1.419 . S
C1157 H1142 0.895 1_554 S
C1157 C1152 1.394 . S
C1157 C1156 1.419 . S
H1158 C1170 0.930 . S
H1159 C1172 0.930 . S
H1160 C1173 0.930 . S
H1161 C1177 0.959 . S
H1162 C1177 0.959 . S
H1163 C1177 0.961 . S
H1164 C1178 0.960 . S
H1165 C1178 0.961 . S
H1166 C1178 0.959 . S
H1167 C1181 0.929 . S
H1168 C1182 0.931 . S
H1169 C1184 0.930 . S
C1170 H1158 0.930 . S
C1170 C1171 1.399 . S
C1170 C1175 1.399 . S
C1171 C1170 1.399 . S
C1171 C1172 1.376 . S
C1172 H1159 0.930 . S
C1172 C1171 1.376 . S
C1172 C1173 1.388 . S
C1173 H1160 0.930 . S
C1173 C1172 1.388 . S
C1173 C1174 1.390 . S
C1174 C1173 1.390 . S
C1174 C1175 1.394 . S
C1174 C1180 1.465 . S
C1175 C1170 1.399 . S
C1175 C1174 1.394 . S
C1175 C1176 1.516 . S
C1176 C1175 1.516 . S
C1176 C1177 1.502 . S
C1176 C1178 1.561 . S
C1176 C1179 1.526 . S
C1177 H1161 0.959 . S
C1177 H1162 0.959 . S
C1177 H1163 0.961 . S
C1177 C1176 1.502 . S
C1178 H1164 0.960 . S
C1178 H1165 0.961 . S
C1178 H1166 0.959 . S
C1178 C1176 1.561 . S
C1179 C1176 1.526 . S
C1179 C1180 1.396 . S
C1179 C1184 1.390 . S
C1180 C1174 1.465 . S
C1180 C1179 1.396 . S
C1180 C1181 1.399 . S
C1181 H1167 0.929 . S
C1181 C1180 1.399 . S
C1181 C1182 1.385 . S
C1182 H1168 0.931 . S
C1182 C1181 1.385 . S
C1182 C1183 1.389 . S
C1183 C1182 1.389 . S
C1183 C1184 1.387 . S
C1184 H1169 0.930 . S
C1184 C1179 1.390 . S
C1184 C1183 1.387 . S
H1185 C1197 0.930 . S
H1186 C1199 0.930 . S
H1187 C1200 0.930 . S
H1188 C1204 0.959 . S
H1189 C1204 0.959 . S
H1190 C1204 0.961 . S
H1191 C1205 0.960 . S
H1192 C1205 0.961 . S
H1193 C1205 0.959 . S
H1194 C1208 0.929 . S
H1195 C1209 0.931 . S
H1196 C1211 0.930 . S
C1197 H1185 0.930 . S
C1197 C1198 1.399 . S
C1197 C1202 1.399 . S
C1198 C1197 1.399 . S
C1198 C1199 1.376 . S
C1199 H1186 0.930 . S
C1199 C1198 1.376 . S
C1199 C1200 1.388 . S
C1200 H1187 0.930 . S
C1200 C1199 1.388 . S
C1200 C1201 1.390 . S
C1201 C1200 1.390 . S
C1201 C1202 1.394 . S
C1201 C1207 1.465 . S
C1202 C1197 1.399 . S
C1202 C1201 1.394 . S
C1202 C1203 1.516 . S
C1203 C1202 1.516 . S
C1203 C1204 1.502 . S
C1203 C1205 1.561 . S
C1203 C1206 1.526 . S
C1204 H1188 0.959 . S
C1204 H1189 0.959 . S
C1204 H1190 0.961 . S
C1204 C1203 1.502 . S
C1205 H1191 0.960 . S
C1205 H1192 0.961 . S
C1205 H1193 0.959 . S
C1205 C1203 1.561 . S
C1206 C1203 1.526 . S
C1206 C1207 1.396 . S
C1206 C1211 1.390 . S
C1207 C1201 1.465 . S
C1207 C1206 1.396 . S
C1207 C1208 1.399 . S
C1208 H1194 0.929 . S
C1208 C1207 1.399 . S
C1208 C1209 1.385 . S
C1209 H1195 0.931 . S
C1209 C1208 1.385 . S
C1209 C1210 1.389 . S
C1210 C1209 1.389 . S
C1210 C1211 1.387 . S
C1211 H1196 0.930 . S
C1211 C1206 1.390 . S
C1211 C1210 1.387 . S
H1212 C1224 0.930 . S
H1213 C1226 0.930 . S
H1214 C1227 0.930 . S
H1215 C1231 0.959 . S
H1216 C1231 0.959 . S
H1217 C1231 0.961 . S
H1218 C1232 0.960 . S
H1219 C1232 0.961 . S
H1220 C1232 0.959 . S
H1221 C1235 0.929 . S
H1222 C1236 0.931 . S
H1223 C1238 0.930 . S
C1224 H1212 0.930 . S
C1224 C1225 1.399 . S
C1224 C1229 1.399 . S
C1225 C1224 1.399 . S
C1225 C1226 1.376 . S
C1226 H1213 0.930 . S
C1226 C1225 1.376 . S
C1226 C1227 1.388 . S
C1227 H1214 0.930 . S
C1227 C1226 1.388 . S
C1227 C1228 1.390 . S
C1228 C1227 1.390 . S
C1228 C1229 1.394 . S
C1228 C1234 1.465 . S
C1229 C1224 1.399 . S
C1229 C1228 1.394 . S
C1229 C1230 1.516 . S
C1230 C1229 1.516 . S
C1230 C1231 1.502 . S
C1230 C1232 1.561 . S
C1230 C1233 1.526 . S
C1231 H1215 0.959 . S
C1231 H1216 0.959 . S
C1231 H1217 0.961 . S
C1231 C1230 1.502 . S
C1232 H1218 0.960 . S
C1232 H1219 0.961 . S
C1232 H1220 0.959 . S
C1232 C1230 1.561 . S
C1233 C1230 1.526 . S
C1233 C1234 1.396 . S
C1233 C1238 1.390 . S
C1234 C1228 1.465 . S
C1234 C1233 1.396 . S
C1234 C1235 1.399 . S
C1235 H1221 0.929 . S
C1235 C1234 1.399 . S
C1235 C1236 1.385 . S
C1236 H1222 0.931 . S
C1236 C1235 1.385 . S
C1236 C1237 1.389 . S
C1237 C1236 1.389 . S
C1237 C1238 1.387 . S
C1238 H1223 0.930 . S
C1238 C1233 1.390 . S
C1238 C1237 1.387 . S
H1239 C1251 0.930 . S
H1240 C1253 0.930 . S
H1241 C1254 0.930 . S
H1242 C1258 0.959 . S
H1243 C1258 0.959 . S
H1244 C1258 0.961 . S
H1245 C1259 0.960 . S
H1246 C1259 0.961 . S
H1247 C1259 0.959 . S
H1248 C1262 0.929 . S
H1249 C1263 0.931 . S
H1250 C1265 0.930 . S
C1251 H1239 0.930 . S
C1251 C1252 1.399 . S
C1251 C1256 1.399 . S
C1252 C1251 1.399 . S
C1252 C1253 1.376 . S
C1253 H1240 0.930 . S
C1253 C1252 1.376 . S
C1253 C1254 1.388 . S
C1254 H1241 0.930 . S
C1254 C1253 1.388 . S
C1254 C1255 1.390 . S
C1255 C1254 1.390 . S
C1255 C1256 1.394 . S
C1255 C1261 1.465 . S
C1256 C1251 1.399 . S
C1256 C1255 1.394 . S
C1256 C1257 1.516 . S
C1257 C1256 1.516 . S
C1257 C1258 1.502 . S
C1257 C1259 1.561 . S
C1257 C1260 1.526 . S
C1258 H1242 0.959 . S
C1258 H1243 0.959 . S
C1258 H1244 0.961 . S
C1258 C1257 1.502 . S
C1259 H1245 0.960 . S
C1259 H1246 0.961 . S
C1259 H1247 0.959 . S
C1259 C1257 1.561 . S
C1260 C1257 1.526 . S
C1260 C1261 1.396 . S
C1260 C1265 1.390 . S
C1261 C1255 1.465 . S
C1261 C1260 1.396 . S
C1261 C1262 1.399 . S
C1262 H1248 0.929 . S
C1262 C1261 1.399 . S
C1262 C1263 1.385 . S
C1263 H1249 0.931 . S
C1263 C1262 1.385 . S
C1263 C1264 1.389 . S
C1264 C1263 1.389 . S
C1264 C1265 1.387 . S
C1265 H1250 0.930 . S
C1265 C1260 1.390 . S
C1265 C1264 1.387 . S
H1266 C1278 0.930 . S
H1267 C1280 0.930 . S
H1268 C1281 0.930 . S
H1269 C1285 0.959 . S
H1270 C1285 0.959 . S
H1271 C1285 0.961 . S
H1272 C1286 0.960 . S
H1273 C1286 0.961 . S
H1274 C1286 0.959 . S
H1275 C1289 0.929 . S
H1276 C1290 0.931 . S
H1277 C1292 0.930 . S
C1278 H1266 0.930 . S
C1278 C1279 1.399 . S
C1278 C1283 1.399 . S
C1279 C1278 1.399 . S
C1279 C1280 1.376 . S
C1280 H1267 0.930 . S
C1280 C1279 1.376 . S
C1280 C1281 1.388 . S
C1281 H1268 0.930 . S
C1281 C1280 1.388 . S
C1281 C1282 1.390 . S
C1282 C1281 1.390 . S
C1282 C1283 1.394 . S
C1282 C1288 1.465 . S
C1283 C1278 1.399 . S
C1283 C1282 1.394 . S
C1283 C1284 1.516 . S
C1284 C1283 1.516 . S
C1284 C1285 1.502 . S
C1284 C1286 1.561 . S
C1284 C1287 1.526 . S
C1285 H1269 0.959 . S
C1285 H1270 0.959 . S
C1285 H1271 0.961 . S
C1285 C1284 1.502 . S
C1286 H1272 0.960 . S
C1286 H1273 0.961 . S
C1286 H1274 0.959 . S
C1286 C1284 1.561 . S
C1287 C1284 1.526 . S
C1287 C1288 1.396 . S
C1287 C1292 1.390 . S
C1288 C1282 1.465 . S
C1288 C1287 1.396 . S
C1288 C1289 1.399 . S
C1289 H1275 0.929 . S
C1289 C1288 1.399 . S
C1289 C1290 1.385 . S
C1290 H1276 0.931 . S
C1290 C1289 1.385 . S
C1290 C1291 1.389 . S
C1291 C1290 1.389 . S
C1291 C1292 1.387 . S
C1292 H1277 0.930 . S
C1292 C1287 1.390 . S
C1292 C1291 1.387 . S
H1293 C1305 0.930 . S
H1294 C1307 0.930 . S
H1295 C1308 0.930 . S
H1296 C1312 0.959 . S
H1297 C1312 0.959 . S
H1298 C1312 0.961 . S
H1299 C1313 0.960 . S
H1300 C1313 0.961 . S
H1301 C1313 0.959 . S
H1302 C1316 0.929 . S
H1303 C1317 0.931 . S
H1304 C1319 0.930 . S
C1305 H1293 0.930 . S
C1305 C1306 1.399 . S
C1305 C1310 1.399 . S
C1306 C1305 1.399 . S
C1306 C1307 1.376 . S
C1307 H1294 0.930 . S
C1307 C1306 1.376 . S
C1307 C1308 1.388 . S
C1308 H1295 0.930 . S
C1308 C1307 1.388 . S
C1308 C1309 1.390 . S
C1309 C1308 1.390 . S
C1309 C1310 1.394 . S
C1309 C1315 1.465 . S
C1310 C1305 1.399 . S
C1310 C1309 1.394 . S
C1310 C1311 1.516 . S
C1311 C1310 1.516 . S
C1311 C1312 1.502 . S
C1311 C1313 1.561 . S
C1311 C1314 1.526 . S
C1312 H1296 0.959 . S
C1312 H1297 0.959 . S
C1312 H1298 0.961 . S
C1312 C1311 1.502 . S
C1313 H1299 0.960 . S
C1313 H1300 0.961 . S
C1313 H1301 0.959 . S
C1313 C1311 1.561 . S
C1314 C1311 1.526 . S
C1314 C1315 1.396 . S
C1314 C1319 1.390 . S
C1315 C1309 1.465 . S
C1315 C1314 1.396 . S
C1315 C1316 1.399 . S
C1316 H1302 0.929 . S
C1316 C1315 1.399 . S
C1316 C1317 1.385 . S
C1317 H1303 0.931 . S
C1317 C1316 1.385 . S
C1317 C1318 1.389 . S
C1318 C1317 1.389 . S
C1318 C1319 1.387 . S
C1319 H1304 0.930 . S
C1319 C1314 1.390 . S
C1319 C1318 1.387 . S
H1320 C1332 0.930 . S
H1321 C1334 0.930 . S
H1322 C1335 0.930 . S
H1323 C1339 0.959 . S
H1324 C1339 0.959 . S
H1325 C1339 0.961 . S
H1326 C1340 0.969 . S
H1327 C1340 0.967 1_554 S
H1328 C1340 0.959 . S
H1329 C1343 0.929 . S
H1330 C1344 0.931 . S
H1331 C1346 0.930 1_655 S
C1332 H1320 0.930 . S
C1332 C1333 1.399 1_655 S
C1332 C1337 1.399 1_655 S
C1333 C1332 1.399 1_455 S
C1333 C1334 1.376 . S
C1334 H1321 0.930 . S
C1334 C1333 1.376 . S
C1334 C1335 1.388 . S
C1335 H1322 0.930 . S
C1335 C1334 1.388 . S
C1335 C1336 1.390 . S
C1336 C1335 1.390 . S
C1336 C1337 1.394 . S
C1336 C1342 1.465 . S
C1337 C1332 1.399 1_455 S
C1337 C1336 1.394 . S
C1337 C1338 1.516 1_455 S
C1338 C1337 1.516 1_655 S
C1338 C1339 1.502 . S
C1338 C1340 1.561 1_655 S
C1338 C1341 1.526 1_655 S
C1339 H1323 0.959 . S
C1339 H1324 0.959 . S
C1339 H1325 0.961 . S
C1339 C1338 1.502 . S
C1340 H1326 0.969 . S
C1340 H1327 0.967 1_556 S
C1340 H1328 0.959 . S
C1340 C1338 1.561 1_455 S
C1341 C1338 1.526 1_455 S
C1341 C1342 1.396 . S
C1341 C1346 1.390 . S
C1342 C1336 1.465 . S
C1342 C1341 1.396 . S
C1342 C1343 1.399 . S
C1343 H1329 0.929 . S
C1343 C1342 1.399 . S
C1343 C1344 1.385 . S
C1344 H1330 0.931 . S
C1344 C1343 1.385 . S
C1344 C1345 1.389 . S
C1345 C1344 1.389 . S
C1345 C1346 1.387 . S
C1346 H1331 0.930 1_455 S
C1346 C1341 1.390 . S
C1346 C1345 1.387 . S
H1347 C1359 0.930 . S
H1348 C1361 0.930 . S
H1349 C1362 0.930 . S
H1350 C1366 0.959 . S
H1351 C1366 0.959 . S
H1352 C1366 0.961 . S
H1353 C1367 0.960 . S
H1354 C1367 0.961 . S
H1355 C1367 0.959 . S
H1356 C1370 0.929 . S
H1357 C1371 0.931 . S
H1358 C1373 0.930 . S
C1359 H1347 0.930 . S
C1359 C1360 1.399 . S
C1359 C1364 1.399 . S
C1360 C1359 1.399 . S
C1360 C1361 1.376 . S
C1361 H1348 0.930 . S
C1361 C1360 1.376 . S
C1361 C1362 1.388 . S
C1362 H1349 0.930 . S
C1362 C1361 1.388 . S
C1362 C1363 1.390 . S
C1363 C1362 1.390 . S
C1363 C1364 1.394 . S
C1363 C1369 1.465 . S
C1364 C1359 1.399 . S
C1364 C1363 1.394 . S
C1364 C1365 1.516 . S
C1365 C1364 1.516 . S
C1365 C1366 1.502 . S
C1365 C1367 1.561 . S
C1365 C1368 1.526 . S
C1366 H1350 0.959 . S
C1366 H1351 0.959 . S
C1366 H1352 0.961 . S
C1366 C1365 1.502 . S
C1367 H1353 0.960 . S
C1367 H1354 0.961 . S
C1367 H1355 0.959 . S
C1367 C1365 1.561 . S
C1368 C1365 1.526 . S
C1368 C1369 1.396 . S
C1368 C1373 1.390 . S
C1369 C1363 1.465 . S
C1369 C1368 1.396 . S
C1369 C1370 1.399 . S
C1370 H1356 0.929 . S
C1370 C1369 1.399 . S
C1370 C1371 1.385 . S
C1371 H1357 0.931 . S
C1371 C1370 1.385 . S
C1371 C1372 1.389 . S
C1372 C1371 1.389 . S
C1372 C1373 1.387 . S
C1373 H1358 0.930 . S
C1373 C1368 1.390 . S
C1373 C1372 1.387 . S
H1374 C1386 0.930 . S
H1375 C1388 0.930 . S
H1376 C1389 0.930 . S
H1377 C1393 0.959 . S
H1378 C1393 0.959 . S
H1379 C1393 0.961 . S
H1380 C1394 0.960 . S
H1381 C1394 0.961 . S
H1382 C1394 0.959 . S
H1383 C1397 0.929 . S
H1384 C1398 0.931 . S
H1385 C1400 0.930 . S
C1386 H1374 0.930 . S
C1386 C1387 1.399 . S
C1386 C1391 1.399 . S
C1387 C1386 1.399 . S
C1387 C1388 1.376 . S
C1388 H1375 0.930 . S
C1388 C1387 1.376 . S
C1388 C1389 1.388 . S
C1389 H1376 0.930 . S
C1389 C1388 1.388 . S
C1389 C1390 1.390 . S
C1390 C1389 1.390 . S
C1390 C1391 1.394 . S
C1390 C1396 1.465 . S
C1391 C1386 1.399 . S
C1391 C1390 1.394 . S
C1391 C1392 1.516 . S
C1392 C1391 1.516 . S
C1392 C1393 1.502 . S
C1392 C1394 1.561 . S
C1392 C1395 1.526 . S
C1393 H1377 0.959 . S
C1393 H1378 0.959 . S
C1393 H1379 0.961 . S
C1393 C1392 1.502 . S
C1394 H1380 0.960 . S
C1394 H1381 0.961 . S
C1394 H1382 0.959 . S
C1394 C1392 1.561 . S
C1395 C1392 1.526 . S
C1395 C1396 1.396 . S
C1395 C1400 1.390 . S
C1396 C1390 1.465 . S
C1396 C1395 1.396 . S
C1396 C1397 1.399 . S
C1397 H1383 0.929 . S
C1397 C1396 1.399 . S
C1397 C1398 1.385 . S
C1398 H1384 0.931 . S
C1398 C1397 1.385 . S
C1398 C1399 1.389 . S
C1399 C1398 1.389 . S
C1399 C1400 1.387 . S
C1400 H1385 0.930 . S
C1400 C1395 1.390 . S
C1400 C1399 1.387 . S
H1401 C1413 0.930 . S
H1402 C1415 0.930 . S
H1403 C1416 0.930 . S
H1404 C1420 0.959 . S
H1405 C1420 0.959 . S
H1406 C1420 0.961 . S
H1407 C1421 0.960 . S
H1408 C1421 0.961 . S
H1409 C1421 0.959 . S
H1410 C1424 0.929 . S
H1411 C1425 0.931 . S
H1412 C1427 0.930 . S
C1413 H1401 0.930 . S
C1413 C1414 1.399 . S
C1413 C1418 1.399 . S
C1414 C1413 1.399 . S
C1414 C1415 1.376 . S
C1415 H1402 0.930 . S
C1415 C1414 1.376 . S
C1415 C1416 1.388 . S
C1416 H1403 0.930 . S
C1416 C1415 1.388 . S
C1416 C1417 1.390 . S
C1417 C1416 1.390 . S
C1417 C1418 1.394 . S
C1417 C1423 1.465 . S
C1418 C1413 1.399 . S
C1418 C1417 1.394 . S
C1418 C1419 1.516 . S
C1419 C1418 1.516 . S
C1419 C1420 1.502 . S
C1419 C1421 1.561 . S
C1419 C1422 1.526 . S
C1420 H1404 0.959 . S
C1420 H1405 0.959 . S
C1420 H1406 0.961 . S
C1420 C1419 1.502 . S
C1421 H1407 0.960 . S
C1421 H1408 0.961 . S
C1421 H1409 0.959 . S
C1421 C1419 1.561 . S
C1422 C1419 1.526 . S
C1422 C1423 1.396 . S
C1422 C1427 1.390 . S
C1423 C1417 1.465 . S
C1423 C1422 1.396 . S
C1423 C1424 1.399 . S
C1424 H1410 0.929 . S
C1424 C1423 1.399 . S
C1424 C1425 1.385 . S
C1425 H1411 0.931 . S
C1425 C1424 1.385 . S
C1425 C1426 1.389 . S
C1426 C1425 1.389 . S
C1426 C1427 1.387 . S
C1427 H1412 0.930 . S
C1427 C1422 1.390 . S
C1427 C1426 1.387 . S
H1428 C1440 0.930 . S
H1429 C1442 0.930 . S
H1430 C1443 0.930 . S
H1431 C1447 0.959 . S
H1432 C1447 0.959 . S
H1433 C1447 0.961 . S
H1434 C1448 0.960 . S
H1435 C1448 0.961 . S
H1436 C1448 0.959 . S
H1437 C1451 0.929 . S
H1438 C1452 0.931 . S
H1439 C1454 0.930 . S
C1440 H1428 0.930 . S
C1440 C1441 1.399 . S
C1440 C1445 1.399 . S
C1441 C1440 1.399 . S
C1441 C1442 1.376 1_455 S
C1442 H1429 0.930 . S
C1442 C1441 1.376 1_655 S
C1442 C1443 1.388 . S
C1443 H1430 0.930 . S
C1443 C1442 1.388 . S
C1443 C1444 1.390 . S
C1444 C1443 1.390 . S
C1444 C1445 1.394 1_655 S
C1444 C1450 1.465 . S
C1445 C1440 1.399 . S
C1445 C1444 1.394 1_455 S
C1445 C1446 1.516 . S
C1446 C1445 1.516 . S
C1446 C1447 1.502 . S
C1446 C1448 1.561 . S
C1446 C1449 1.526 . S
C1447 H1431 0.959 . S
C1447 H1432 0.959 . S
C1447 H1433 0.961 . S
C1447 C1446 1.502 . S
C1448 H1434 0.960 . S
C1448 H1435 0.961 . S
C1448 H1436 0.959 . S
C1448 C1446 1.561 . S
C1449 C1446 1.526 . S
C1449 C1450 1.396 1_455 S
C1449 C1454 1.390 . S
C1450 C1444 1.465 . S
C1450 C1449 1.396 1_655 S
C1450 C1451 1.399 . S
C1451 H1437 0.929 . S
C1451 C1450 1.399 . S
C1451 C1452 1.385 . S
C1452 H1438 0.931 . S
C1452 C1451 1.385 . S
C1452 C1453 1.389 1_655 S
C1453 C1452 1.389 1_455 S
C1453 C1454 1.387 . S
C1454 H1439 0.930 . S
C1454 C1449 1.390 . S
C1454 C1453 1.387 . S
H1455 C1467 0.930 . S
H1456 C1469 0.930 . S
H1457 C1470 0.930 . S
H1458 C1474 0.959 . S
H1459 C1474 0.959 . S
H1460 C1474 0.961 . S
H1461 C1475 0.960 . S
H1462 C1475 0.961 . S
H1463 C1475 0.959 . S
H1464 C1478 0.929 . S
H1465 C1479 0.931 . S
H1466 C1481 0.930 . S
C1467 H1455 0.930 . S
C1467 C1468 1.399 . S
C1467 C1472 1.399 . S
C1468 C1467 1.399 . S
C1468 C1469 1.376 . S
C1469 H1456 0.930 . S
C1469 C1468 1.376 . S
C1469 C1470 1.388 . S
C1470 H1457 0.930 . S
C1470 C1469 1.388 . S
C1470 C1471 1.390 . S
C1471 C1470 1.390 . S
C1471 C1472 1.394 . S
C1471 C1477 1.465 . S
C1472 C1467 1.399 . S
C1472 C1471 1.394 . S
C1472 C1473 1.516 . S
C1473 C1472 1.516 . S
C1473 C1474 1.502 . S
C1473 C1475 1.561 . S
C1473 C1476 1.526 . S
C1474 H1458 0.959 . S
C1474 H1459 0.959 . S
C1474 H1460 0.961 . S
C1474 C1473 1.502 . S
C1475 H1461 0.960 . S
C1475 H1462 0.961 . S
C1475 H1463 0.959 . S
C1475 C1473 1.561 . S
C1476 C1473 1.526 . S
C1476 C1477 1.396 . S
C1476 C1481 1.390 . S
C1477 C1471 1.465 . S
C1477 C1476 1.396 . S
C1477 C1478 1.399 . S
C1478 H1464 0.929 . S
C1478 C1477 1.399 . S
C1478 C1479 1.385 . S
C1479 H1465 0.931 . S
C1479 C1478 1.385 . S
C1479 C1480 1.389 . S
C1480 C1479 1.389 . S
C1480 C1481 1.387 . S
C1481 H1466 0.930 . S
C1481 C1476 1.390 . S
C1481 C1480 1.387 . S
H1482 C1494 0.930 . S
H1483 C1496 0.930 . S
H1484 C1497 0.930 . S
H1485 C1501 0.959 . S
H1486 C1501 0.959 . S
H1487 C1501 0.961 . S
H1488 C1502 0.960 . S
H1489 C1502 0.961 . S
H1490 C1502 0.959 . S
H1491 C1505 0.929 . S
H1492 C1506 0.931 . S
H1493 C1508 0.930 . S
C1494 H1482 0.930 . S
C1494 C1495 1.399 . S
C1494 C1499 1.399 . S
C1495 C1494 1.399 . S
C1495 C1496 1.376 . S
C1496 H1483 0.930 . S
C1496 C1495 1.376 . S
C1496 C1497 1.388 . S
C1497 H1484 0.930 . S
C1497 C1496 1.388 . S
C1497 C1498 1.390 . S
C1498 C1497 1.390 . S
C1498 C1499 1.394 . S
C1498 C1504 1.465 . S
C1499 C1494 1.399 . S
C1499 C1498 1.394 . S
C1499 C1500 1.516 . S
C1500 C1499 1.516 . S
C1500 C1501 1.502 . S
C1500 C1502 1.561 . S
C1500 C1503 1.526 . S
C1501 H1485 0.959 . S
C1501 H1486 0.959 . S
C1501 H1487 0.961 . S
C1501 C1500 1.502 . S
C1502 H1488 0.960 . S
C1502 H1489 0.961 . S
C1502 H1490 0.959 . S
C1502 C1500 1.561 . S
C1503 C1500 1.526 . S
C1503 C1504 1.396 . S
C1503 C1508 1.390 . S
C1504 C1498 1.465 . S
C1504 C1503 1.396 . S
C1504 C1505 1.399 . S
C1505 H1491 0.929 . S
C1505 C1504 1.399 . S
C1505 C1506 1.385 . S
C1506 H1492 0.931 . S
C1506 C1505 1.385 . S
C1506 C1507 1.389 . S
C1507 C1506 1.389 . S
C1507 C1508 1.387 . S
C1508 H1493 0.930 . S
C1508 C1503 1.390 . S
C1508 C1507 1.387 . S
H1509 C1521 0.930 . S
H1510 C1523 0.930 . S
H1511 C1524 0.930 . S
H1512 C1528 0.959 . S
H1513 C1528 0.959 . S
H1514 C1528 0.961 . S
H1515 C1529 0.960 . S
H1516 C1529 0.961 . S
H1517 C1529 0.959 . S
H1518 C1532 0.929 . S
H1519 C1533 0.931 . S
H1520 C1535 0.930 . S
C1521 H1509 0.930 . S
C1521 C1522 1.399 . S
C1521 C1526 1.399 . S
C1522 C1521 1.399 . S
C1522 C1523 1.376 . S
C1523 H1510 0.930 . S
C1523 C1522 1.376 . S
C1523 C1524 1.388 . S
C1524 H1511 0.930 . S
C1524 C1523 1.388 . S
C1524 C1525 1.390 . S
C1525 C1524 1.390 . S
C1525 C1526 1.394 . S
C1525 C1531 1.465 . S
C1526 C1521 1.399 . S
C1526 C1525 1.394 . S
C1526 C1527 1.516 . S
C1527 C1526 1.516 . S
C1527 C1528 1.502 . S
C1527 C1529 1.561 . S
C1527 C1530 1.526 . S
C1528 H1512 0.959 . S
C1528 H1513 0.959 . S
C1528 H1514 0.961 . S
C1528 C1527 1.502 . S
C1529 H1515 0.960 . S
C1529 H1516 0.961 . S
C1529 H1517 0.959 . S
C1529 C1527 1.561 . S
C1530 C1527 1.526 . S
C1530 C1531 1.396 . S
C1530 C1535 1.390 . S
C1531 C1525 1.465 . S
C1531 C1530 1.396 . S
C1531 C1532 1.399 . S
C1532 H1518 0.929 . S
C1532 C1531 1.399 . S
C1532 C1533 1.385 . S
C1533 H1519 0.931 . S
C1533 C1532 1.385 . S
C1533 C1534 1.389 . S
C1534 C1533 1.389 . S
C1534 C1535 1.387 . S
C1535 H1520 0.930 . S
C1535 C1530 1.390 . S
C1535 C1534 1.387 . S
H1536 C1548 0.930 . S
H1537 C1550 0.930 . S
H1538 C1551 0.930 . S
H1539 C1555 0.959 . S
H1540 C1555 0.959 . S
H1541 C1555 0.961 . S
H1542 C1556 0.960 . S
H1543 C1556 0.961 . S
H1544 C1556 0.959 . S
H1545 C1559 0.929 . S
H1546 C1560 0.931 . S
H1547 C1562 0.930 . S
C1548 H1536 0.930 . S
C1548 C1549 1.414 . S
C1548 C1553 1.399 . S
C1549 C1548 1.414 . S
C1549 C1550 1.357 1_565 S
C1550 H1537 0.930 . S
C1550 C1549 1.357 1_545 S
C1550 C1551 1.388 . S
C1551 H1538 0.930 . S
C1551 C1550 1.388 . S
C1551 C1552 1.390 . S
C1552 C1551 1.390 . S
C1552 C1553 1.394 1_545 S
C1552 C1558 1.465 . S
C1553 C1548 1.399 . S
C1553 C1552 1.394 1_565 S
C1553 C1554 1.516 . S
C1554 C1553 1.516 . S
C1554 C1555 1.502 . S
C1554 C1556 1.561 . S
C1554 C1557 1.526 . S
C1555 H1539 0.959 . S
C1555 H1540 0.959 . S
C1555 H1541 0.961 . S
C1555 C1554 1.502 . S
C1556 H1542 0.960 . S
C1556 H1543 0.961 . S
C1556 H1544 0.959 . S
C1556 C1554 1.561 . S
C1557 C1554 1.526 . S
C1557 C1558 1.396 1_565 S
C1557 C1562 1.390 . S
C1558 C1552 1.465 . S
C1558 C1557 1.396 1_545 S
C1558 C1559 1.399 . S
C1559 H1545 0.929 . S
C1559 C1558 1.399 . S
C1559 C1560 1.385 . S
C1560 H1546 0.931 . S
C1560 C1559 1.385 . S
C1560 C1561 1.389 . S
C1561 C1560 1.389 . S
C1561 C1562 1.387 1_545 S
C1562 H1547 0.930 . S
C1562 C1557 1.390 . S
C1562 C1561 1.387 1_565 S
H1563 C1575 0.930 . S
H1564 C1577 0.930 . S
H1565 C1578 0.930 . S
H1566 C1582 0.959 . S
H1567 C1582 0.959 . S
H1568 C1582 0.961 . S
H1569 C1583 0.960 . S
H1570 C1583 0.961 . S
H1571 C1583 0.959 . S
H1572 C1586 0.929 . S
H1573 C1587 0.931 . S
H1574 C1589 0.930 . S
C1575 H1563 0.930 . S
C1575 C1576 1.399 . S
C1575 C1580 1.399 . S
C1576 C1575 1.399 . S
C1576 C1577 1.376 . S
C1577 H1564 0.930 . S
C1577 C1576 1.376 . S
C1577 C1578 1.388 . S
C1578 H1565 0.930 . S
C1578 C1577 1.388 . S
C1578 C1579 1.390 . S
C1579 C1578 1.390 . S
C1579 C1580 1.394 . S
C1579 C1585 1.465 . S
C1580 C1575 1.399 . S
C1580 C1579 1.394 . S
C1580 C1581 1.516 . S
C1581 C1580 1.516 . S
C1581 C1582 1.502 . S
C1581 C1583 1.561 . S
C1581 C1584 1.526 . S
C1582 H1566 0.959 . S
C1582 H1567 0.959 . S
C1582 H1568 0.961 . S
C1582 C1581 1.502 . S
C1583 H1569 0.960 . S
C1583 H1570 0.961 . S
C1583 H1571 0.959 . S
C1583 C1581 1.561 . S
C1584 C1581 1.526 . S
C1584 C1585 1.396 . S
C1584 C1589 1.390 . S
C1585 C1579 1.465 . S
C1585 C1584 1.396 . S
C1585 C1586 1.399 . S
C1586 H1572 0.929 . S
C1586 C1585 1.399 . S
C1586 C1587 1.385 . S
C1587 H1573 0.931 . S
C1587 C1586 1.385 . S
C1587 C1588 1.389 . S
C1588 C1587 1.389 . S
C1588 C1589 1.387 . S
C1589 H1574 0.930 . S
C1589 C1584 1.390 . S
C1589 C1588 1.387 . S
H1590 C1602 0.930 . S
H1591 C1604 0.930 . S
H1592 C1605 0.930 . S
H1593 C1609 0.959 . S
H1594 C1609 0.959 . S
H1595 C1609 0.961 . S
H1596 C1610 0.960 . S
H1597 C1610 0.961 . S
H1598 C1610 0.959 . S
H1599 C1613 0.929 . S
H1600 C1614 0.931 . S
H1601 C1616 0.930 . S
C1602 H1590 0.930 . S
C1602 C1603 1.399 1_565 S
C1602 C1607 1.399 . S
C1603 C1602 1.399 1_545 S
C1603 C1604 1.376 . S
C1604 H1591 0.930 . S
C1604 C1603 1.376 . S
C1604 C1605 1.388 . S
C1605 H1592 0.930 . S
C1605 C1604 1.388 . S
C1605 C1606 1.390 . S
C1606 C1605 1.390 . S
C1606 C1607 1.394 1_545 S
C1606 C1612 1.465 . S
C1607 C1602 1.399 . S
C1607 C1606 1.394 1_565 S
C1607 C1608 1.516 . S
C1608 C1607 1.516 . S
C1608 C1609 1.502 . S
C1608 C1610 1.561 . S
C1608 C1611 1.526 . S
C1609 H1593 0.959 . S
C1609 H1594 0.959 . S
C1609 H1595 0.961 . S
C1609 C1608 1.502 . S
C1610 H1596 0.960 . S
C1610 H1597 0.961 . S
C1610 H1598 0.959 . S
C1610 C1608 1.561 . S
C1611 C1608 1.526 . S
C1611 C1612 1.396 1_565 S
C1611 C1616 1.390 . S
C1612 C1606 1.465 . S
C1612 C1611 1.396 1_545 S
C1612 C1613 1.399 . S
C1613 H1599 0.929 . S
C1613 C1612 1.399 . S
C1613 C1614 1.385 . S
C1614 H1600 0.931 . S
C1614 C1613 1.385 . S
C1614 C1615 1.389 . S
C1615 C1614 1.389 . S
C1615 C1616 1.387 1_545 S
C1616 H1601 0.930 . S
C1616 C1611 1.390 . S
C1616 C1615 1.387 1_565 S
H1617 C1629 0.930 . S
H1618 C1631 0.930 . S
H1619 C1632 0.930 . S
H1620 C1636 0.959 . S
H1621 C1636 0.959 . S
H1622 C1636 0.961 . S
H1623 C1637 0.960 . S
H1624 C1637 0.961 . S
H1625 C1637 0.959 . S
H1626 C1640 0.929 . S
H1627 C1641 0.931 . S
H1628 C1643 0.930 . S
C1629 H1617 0.930 . S
C1629 C1630 1.399 . S
C1629 C1634 1.399 . S
C1630 C1629 1.399 . S
C1630 C1631 1.376 . S
C1631 H1618 0.930 . S
C1631 C1630 1.376 . S
C1631 C1632 1.388 . S
C1632 H1619 0.930 . S
C1632 C1631 1.388 . S
C1632 C1633 1.390 . S
C1633 C1632 1.390 . S
C1633 C1634 1.394 . S
C1633 C1639 1.465 . S
C1634 C1629 1.399 . S
C1634 C1633 1.394 . S
C1634 C1635 1.516 . S
C1635 C1634 1.516 . S
C1635 C1636 1.502 . S
C1635 C1637 1.561 . S
C1635 C1638 1.526 . S
C1636 H1620 0.959 . S
C1636 H1621 0.959 . S
C1636 H1622 0.961 . S
C1636 C1635 1.502 . S
C1637 H1623 0.960 . S
C1637 H1624 0.961 . S
C1637 H1625 0.959 . S
C1637 C1635 1.561 . S
C1638 C1635 1.526 . S
C1638 C1639 1.396 . S
C1638 C1643 1.390 . S
C1639 C1633 1.465 . S
C1639 C1638 1.396 . S
C1639 C1640 1.399 . S
C1640 H1626 0.929 . S
C1640 C1639 1.399 . S
C1640 C1641 1.385 . S
C1641 H1627 0.931 . S
C1641 C1640 1.385 . S
C1641 C1642 1.389 . S
C1642 C1641 1.389 . S
C1642 C1643 1.387 . S
C1643 H1628 0.930 . S
C1643 C1638 1.390 . S
C1643 C1642 1.387 . S
H1644 C1656 0.930 . S
H1645 C1658 0.930 . S
H1646 C1659 0.930 . S
H1647 C1663 0.959 . S
H1648 C1663 0.959 . S
H1649 C1663 0.961 . S
H1650 C1664 0.960 . S
H1651 C1664 0.961 . S
H1652 C1664 0.959 . S
H1653 C1667 0.929 . S
H1654 C1668 0.931 . S
H1655 C1670 0.930 . S
C1656 H1644 0.930 . S
C1656 C1657 1.375 1_565 S
C1656 C1661 1.399 . S
C1657 C1656 1.375 1_545 S
C1657 C1658 1.404 . S
C1658 H1645 0.930 . S
C1658 C1657 1.404 . S
C1658 C1659 1.388 . S
C1659 H1646 0.930 . S
C1659 C1658 1.388 . S
C1659 C1660 1.390 . S
C1660 C1659 1.390 . S
C1660 C1661 1.394 1_545 S
C1660 C1666 1.465 . S
C1661 C1656 1.399 . S
C1661 C1660 1.394 1_565 S
C1661 C1662 1.516 . S
C1662 C1661 1.516 . S
C1662 C1663 1.502 . S
C1662 C1664 1.561 . S
C1662 C1665 1.526 . S
C1663 H1647 0.959 . S
C1663 H1648 0.959 . S
C1663 H1649 0.961 . S
C1663 C1662 1.502 . S
C1664 H1650 0.960 . S
C1664 H1651 0.961 . S
C1664 H1652 0.959 . S
C1664 C1662 1.561 . S
C1665 C1662 1.526 . S
C1665 C1666 1.396 1_565 S
C1665 C1670 1.390 . S
C1666 C1660 1.465 . S
C1666 C1665 1.396 1_545 S
C1666 C1667 1.399 . S
C1667 H1653 0.929 . S
C1667 C1666 1.399 . S
C1667 C1668 1.385 . S
C1668 H1654 0.931 . S
C1668 C1667 1.385 . S
C1668 C1669 1.389 1_545 S
C1669 C1668 1.389 1_565 S
C1669 C1670 1.387 . S
C1670 H1655 0.930 . S
C1670 C1665 1.390 . S
C1670 C1669 1.387 . S
H1671 C1683 0.930 . S
H1672 C1685 0.930 . S
H1673 C1686 0.930 . S
H1674 C1690 0.959 . S
H1675 C1690 0.959 . S
H1676 C1690 0.961 . S
H1677 C1691 0.960 . S
H1678 C1691 0.961 . S
H1679 C1691 0.959 . S
H1680 C1694 0.929 . S
H1681 C1695 0.931 . S
H1682 C1697 0.930 . S
C1683 H1671 0.930 . S
C1683 C1684 1.399 . S
C1683 C1688 1.399 . S
C1684 C1683 1.399 . S
C1684 C1685 1.376 . S
C1685 H1672 0.930 . S
C1685 C1684 1.376 . S
C1685 C1686 1.388 . S
C1686 H1673 0.930 . S
C1686 C1685 1.388 . S
C1686 C1687 1.390 . S
C1687 C1686 1.390 . S
C1687 C1688 1.394 . S
C1687 C1693 1.465 . S
C1688 C1683 1.399 . S
C1688 C1687 1.394 . S
C1688 C1689 1.516 . S
C1689 C1688 1.516 . S
C1689 C1690 1.502 . S
C1689 C1691 1.561 . S
C1689 C1692 1.526 . S
C1690 H1674 0.959 . S
C1690 H1675 0.959 . S
C1690 H1676 0.961 . S
C1690 C1689 1.502 . S
C1691 H1677 0.960 . S
C1691 H1678 0.961 . S
C1691 H1679 0.959 . S
C1691 C1689 1.561 . S
C1692 C1689 1.526 . S
C1692 C1693 1.396 . S
C1692 C1697 1.390 . S
C1693 C1687 1.465 . S
C1693 C1692 1.396 . S
C1693 C1694 1.399 . S
C1694 H1680 0.929 . S
C1694 C1693 1.399 . S
C1694 C1695 1.385 . S
C1695 H1681 0.931 . S
C1695 C1694 1.385 . S
C1695 C1696 1.389 . S
C1696 C1695 1.389 . S
C1696 C1697 1.387 . S
C1697 H1682 0.930 . S
C1697 C1692 1.390 . S
C1697 C1696 1.387 . S
H1698 C1710 0.930 . S
H1699 C1712 0.930 . S
H1700 C1713 0.930 . S
H1701 C1717 0.959 . S
H1702 C1717 0.959 . S
H1703 C1717 0.961 . S
H1704 C1718 0.960 . S
H1705 C1718 0.961 . S
H1706 C1718 0.959 . S
H1707 C1721 0.929 . S
H1708 C1722 0.931 . S
H1709 C1724 0.930 . S
C1710 H1698 0.930 . S
C1710 C1711 1.399 1_565 S
C1710 C1715 1.399 . S
C1711 C1710 1.399 1_545 S
C1711 C1712 1.376 . S
C1712 H1699 0.930 . S
C1712 C1711 1.376 . S
C1712 C1713 1.388 . S
C1713 H1700 0.930 . S
C1713 C1712 1.388 . S
C1713 C1714 1.390 . S
C1714 C1713 1.390 . S
C1714 C1715 1.394 1_545 S
C1714 C1720 1.465 . S
C1715 C1710 1.399 . S
C1715 C1714 1.394 1_565 S
C1715 C1716 1.516 . S
C1716 C1715 1.516 . S
C1716 C1717 1.502 . S
C1716 C1718 1.561 . S
C1716 C1719 1.536 . S
C1717 H1701 0.959 . S
C1717 H1702 0.959 . S
C1717 H1703 0.961 . S
C1717 C1716 1.502 . S
C1718 H1704 0.960 . S
C1718 H1705 0.961 . S
C1718 H1706 0.959 . S
C1718 C1716 1.561 . S
C1719 C1716 1.536 . S
C1719 C1720 1.384 1_565 S
C1719 C1724 1.391 . S
C1720 C1714 1.465 . S
C1720 C1719 1.384 1_545 S
C1720 C1721 1.399 . S
C1721 H1707 0.929 . S
C1721 C1720 1.399 . S
C1721 C1722 1.385 . S
C1722 H1708 0.931 . S
C1722 C1721 1.385 . S
C1722 C1723 1.389 . S
C1723 C1722 1.389 . S
C1723 C1724 1.387 1_545 S
C1724 H1709 0.930 . S
C1724 C1719 1.391 . S
C1724 C1723 1.387 1_565 S
H1725 C1737 0.930 . S
H1726 C1739 0.930 . S
H1727 C1740 0.930 . S
H1728 C1744 0.959 . S
H1729 C1744 0.959 . S
H1730 C1744 0.961 . S
H1731 C1745 0.960 . S
H1732 C1745 0.961 . S
H1733 C1745 0.959 . S
H1734 C1748 0.929 . S
H1735 C1749 0.931 . S
H1736 C1751 0.930 . S
C1737 H1725 0.930 . S
C1737 C1738 1.399 . S
C1737 C1742 1.399 . S
C1738 C1737 1.399 . S
C1738 C1739 1.376 . S
C1739 H1726 0.930 . S
C1739 C1738 1.376 . S
C1739 C1740 1.388 . S
C1740 H1727 0.930 . S
C1740 C1739 1.388 . S
C1740 C1741 1.390 . S
C1741 C1740 1.390 . S
C1741 C1742 1.394 . S
C1741 C1747 1.465 . S
C1742 C1737 1.399 . S
C1742 C1741 1.394 . S
C1742 C1743 1.516 . S
C1743 C1742 1.516 . S
C1743 C1744 1.502 . S
C1743 C1745 1.561 . S
C1743 C1746 1.526 . S
C1744 H1728 0.959 . S
C1744 H1729 0.959 . S
C1744 H1730 0.961 . S
C1744 C1743 1.502 . S
C1745 H1731 0.960 . S
C1745 H1732 0.961 . S
C1745 H1733 0.959 . S
C1745 C1743 1.561 . S
C1746 C1743 1.526 . S
C1746 C1747 1.396 . S
C1746 C1751 1.390 . S
C1747 C1741 1.465 . S
C1747 C1746 1.396 . S
C1747 C1748 1.399 . S
C1748 H1734 0.929 . S
C1748 C1747 1.399 . S
C1748 C1749 1.385 . S
C1749 H1735 0.931 . S
C1749 C1748 1.385 . S
C1749 C1750 1.389 . S
C1750 C1749 1.389 . S
C1750 C1751 1.387 . S
C1751 H1736 0.930 . S
C1751 C1746 1.390 . S
C1751 C1750 1.387 . S
H1752 C1764 0.930 . S
H1753 C1766 0.930 . S
H1754 C1767 0.930 . S
H1755 C1771 0.959 . S
H1756 C1771 0.959 . S
H1757 C1771 0.961 . S
H1758 C1772 0.960 . S
H1759 C1772 0.961 . S
H1760 C1772 0.959 . S
H1761 C1775 0.929 . S
H1762 C1776 0.931 . S
H1763 C1778 0.930 . S
C1764 H1752 0.930 . S
C1764 C1765 1.399 1_556 S
C1764 C1769 1.403 . S
C1765 C1764 1.399 1_554 S
C1765 C1766 1.376 . S
C1766 H1753 0.930 . S
C1766 C1765 1.376 . S
C1766 C1767 1.388 . S
C1767 H1754 0.930 . S
C1767 C1766 1.388 . S
C1767 C1768 1.390 . S
C1768 C1767 1.390 . S
C1768 C1769 1.376 1_554 S
C1768 C1774 1.465 . S
C1769 C1764 1.403 . S
C1769 C1768 1.376 1_556 S
C1769 C1770 1.529 . S
C1770 C1769 1.529 . S
C1770 C1771 1.502 . S
C1770 C1772 1.561 . S
C1770 C1773 1.526 1_556 S
C1771 H1755 0.959 . S
C1771 H1756 0.959 . S
C1771 H1757 0.961 . S
C1771 C1770 1.502 . S
C1772 H1758 0.960 . S
C1772 H1759 0.961 . S
C1772 H1760 0.959 . S
C1772 C1770 1.561 . S
C1773 C1770 1.526 1_554 S
C1773 C1774 1.396 . S
C1773 C1778 1.390 1_554 S
C1774 C1768 1.465 . S
C1774 C1773 1.396 . S
C1774 C1775 1.399 . S
C1775 H1761 0.929 . S
C1775 C1774 1.399 . S
C1775 C1776 1.385 . S
C1776 H1762 0.931 . S
C1776 C1775 1.385 . S
C1776 C1777 1.389 . S
C1777 C1776 1.389 . S
C1777 C1778 1.387 1_554 S
C1778 H1763 0.930 . S
C1778 C1773 1.390 1_556 S
C1778 C1777 1.387 1_556 S
H1779 C1791 0.930 . S
H1780 C1793 0.930 . S
H1781 C1794 0.930 . S
H1782 C1798 0.959 . S
H1783 C1798 0.959 . S
H1784 C1798 0.961 . S
H1785 C1799 0.960 . S
H1786 C1799 0.961 . S
H1787 C1799 0.959 . S
H1788 C1802 0.929 . S
H1789 C1803 0.931 . S
H1790 C1805 0.930 . S
C1791 H1779 0.930 . S
C1791 C1792 1.399 . S
C1791 C1796 1.399 . S
C1792 C1791 1.399 . S
C1792 C1793 1.376 1_554 S
C1793 H1780 0.930 . S
C1793 C1792 1.376 1_556 S
C1793 C1794 1.388 . S
C1794 H1781 0.930 . S
C1794 C1793 1.388 . S
C1794 C1795 1.390 . S
C1795 C1794 1.390 . S
C1795 C1796 1.394 1_556 S
C1795 C1801 1.465 . S
C1796 C1791 1.399 . S
C1796 C1795 1.394 1_554 S
C1796 C1797 1.516 . S
C1797 C1796 1.516 . S
C1797 C1798 1.502 . S
C1797 C1799 1.561 . S
C1797 C1800 1.526 . S
C1798 H1782 0.959 . S
C1798 H1783 0.959 . S
C1798 H1784 0.961 . S
C1798 C1797 1.502 . S
C1799 H1785 0.960 . S
C1799 H1786 0.961 . S
C1799 H1787 0.959 . S
C1799 C1797 1.561 . S
C1800 C1797 1.526 . S
C1800 C1801 1.396 1_554 S
C1800 C1805 1.390 . S
C1801 C1795 1.465 . S
C1801 C1800 1.396 1_556 S
C1801 C1802 1.399 . S
C1802 H1788 0.929 . S
C1802 C1801 1.399 . S
C1802 C1803 1.385 . S
C1803 H1789 0.931 . S
C1803 C1802 1.385 . S
C1803 C1804 1.389 . S
C1804 C1803 1.389 . S
C1804 C1805 1.387 1_556 S
C1805 H1790 0.930 . S
C1805 C1800 1.390 . S
C1805 C1804 1.387 1_554 S
H1806 C1818 0.930 . S
H1807 C1820 0.930 . S
H1808 C1821 0.930 . S
H1809 C1825 0.959 . S
H1810 C1825 0.959 . S
H1811 C1825 0.961 . S
H1812 C1826 0.960 . S
H1813 C1826 0.961 . S
H1814 C1826 0.959 . S
H1815 C1829 0.929 . S
H1816 C1830 0.931 . S
H1817 C1832 0.930 . S
C1818 H1806 0.930 . S
C1818 C1819 1.399 . S
C1818 C1823 1.399 . S
C1819 C1818 1.399 . S
C1819 C1820 1.376 . S
C1820 H1807 0.930 . S
C1820 C1819 1.376 . S
C1820 C1821 1.388 . S
C1821 H1808 0.930 . S
C1821 C1820 1.388 . S
C1821 C1822 1.390 . S
C1822 C1821 1.390 . S
C1822 C1823 1.394 . S
C1822 C1828 1.465 . S
C1823 C1818 1.399 . S
C1823 C1822 1.394 . S
C1823 C1824 1.516 . S
C1824 C1823 1.516 . S
C1824 C1825 1.502 . S
C1824 C1826 1.561 . S
C1824 C1827 1.526 . S
C1825 H1809 0.959 . S
C1825 H1810 0.959 . S
C1825 H1811 0.961 . S
C1825 C1824 1.502 . S
C1826 H1812 0.960 . S
C1826 H1813 0.961 . S
C1826 H1814 0.959 . S
C1826 C1824 1.561 . S
C1827 C1824 1.526 . S
C1827 C1828 1.396 . S
C1827 C1832 1.390 . S
C1828 C1822 1.465 . S
C1828 C1827 1.396 . S
C1828 C1829 1.399 . S
C1829 H1815 0.929 . S
C1829 C1828 1.399 . S
C1829 C1830 1.385 . S
C1830 H1816 0.931 . S
C1830 C1829 1.385 . S
C1830 C1831 1.389 . S
C1831 C1830 1.389 . S
C1831 C1832 1.387 . S
C1832 H1817 0.930 . S
C1832 C1827 1.390 . S
C1832 C1831 1.387 . S
H1833 C1845 0.930 . S
H1834 C1847 0.930 . S
H1835 C1848 0.930 . S
H1836 C1852 0.959 . S
H1837 C1852 0.959 . S
H1838 C1852 0.961 . S
H1839 C1853 0.960 . S
H1840 C1853 0.961 . S
H1841 C1853 0.959 . S
H1842 C1856 0.929 . S
H1843 C1857 0.931 . S
H1844 C1859 0.930 . S
C1845 H1833 0.930 . S
C1845 C1846 1.399 . S
C1845 C1850 1.399 . S
C1846 C1845 1.399 . S
C1846 C1847 1.376 . S
C1847 H1834 0.930 . S
C1847 C1846 1.376 . S
C1847 C1848 1.388 . S
C1848 H1835 0.930 . S
C1848 C1847 1.388 . S
C1848 C1849 1.390 . S
C1849 C1848 1.390 . S
C1849 C1850 1.394 . S
C1849 C1855 1.465 . S
C1850 C1845 1.399 . S
C1850 C1849 1.394 . S
C1850 C1851 1.516 . S
C1851 C1850 1.516 . S
C1851 C1852 1.502 . S
C1851 C1853 1.561 . S
C1851 C1854 1.526 . S
C1852 H1836 0.959 . S
C1852 H1837 0.959 . S
C1852 H1838 0.961 . S
C1852 C1851 1.502 . S
C1853 H1839 0.960 . S
C1853 H1840 0.961 . S
C1853 H1841 0.959 . S
C1853 C1851 1.561 . S
C1854 C1851 1.526 . S
C1854 C1855 1.396 . S
C1854 C1859 1.390 . S
C1855 C1849 1.465 . S
C1855 C1854 1.396 . S
C1855 C1856 1.399 . S
C1856 H1842 0.929 . S
C1856 C1855 1.399 . S
C1856 C1857 1.385 . S
C1857 H1843 0.931 . S
C1857 C1856 1.385 . S
C1857 C1858 1.389 . S
C1858 C1857 1.389 . S
C1858 C1859 1.387 . S
C1859 H1844 0.930 . S
C1859 C1854 1.390 . S
C1859 C1858 1.387 . S
H1860 C1872 0.930 . S
H1861 C1874 0.930 . S
H1862 C1875 0.930 . S
H1863 C1879 0.959 . S
H1864 C1879 0.959 . S
H1865 C1879 0.961 . S
H1866 C1880 0.960 . S
H1867 C1880 0.961 . S
H1868 C1880 0.959 . S
H1869 C1883 0.929 . S
H1870 C1884 0.931 . S
H1871 C1886 0.930 . S
C1872 H1860 0.930 . S
C1872 C1873 1.399 . S
C1872 C1877 1.399 . S
C1873 C1872 1.399 . S
C1873 C1874 1.376 . S
C1874 H1861 0.930 . S
C1874 C1873 1.376 . S
C1874 C1875 1.388 . S
C1875 H1862 0.930 . S
C1875 C1874 1.388 . S
C1875 C1876 1.390 . S
C1876 C1875 1.390 . S
C1876 C1877 1.394 . S
C1876 C1882 1.465 . S
C1877 C1872 1.399 . S
C1877 C1876 1.394 . S
C1877 C1878 1.516 . S
C1878 C1877 1.516 . S
C1878 C1879 1.502 . S
C1878 C1880 1.561 . S
C1878 C1881 1.526 . S
C1879 H1863 0.959 . S
C1879 H1864 0.959 . S
C1879 H1865 0.961 . S
C1879 C1878 1.502 . S
C1880 H1866 0.960 . S
C1880 H1867 0.961 . S
C1880 H1868 0.959 . S
C1880 C1878 1.561 . S
C1881 C1878 1.526 . S
C1881 C1882 1.396 . S
C1881 C1886 1.390 . S
C1882 C1876 1.465 . S
C1882 C1881 1.396 . S
C1882 C1883 1.399 . S
C1883 H1869 0.929 . S
C1883 C1882 1.399 . S
C1883 C1884 1.385 . S
C1884 H1870 0.931 . S
C1884 C1883 1.385 . S
C1884 C1885 1.389 . S
C1885 C1884 1.389 . S
C1885 C1886 1.387 . S
C1886 H1871 0.930 . S
C1886 C1881 1.390 . S
C1886 C1885 1.387 . S
H1887 C1899 0.930 . S
H1888 C1901 0.930 . S
H1889 C1902 0.930 . S
H1890 C1906 0.959 . S
H1891 C1906 0.959 . S
H1892 C1906 0.961 . S
H1893 C1907 0.960 . S
H1894 C1907 0.961 . S
H1895 C1907 0.959 . S
H1896 C1910 0.929 . S
H1897 C1911 0.931 . S
H1898 C1913 0.930 . S
C1899 H1887 0.930 . S
C1899 C1900 1.399 . S
C1899 C1904 1.399 . S
C1900 C1899 1.399 . S
C1900 C1901 1.376 . S
C1901 H1888 0.930 . S
C1901 C1900 1.376 . S
C1901 C1902 1.388 . S
C1902 H1889 0.930 . S
C1902 C1901 1.388 . S
C1902 C1903 1.390 . S
C1903 C1902 1.390 . S
C1903 C1904 1.394 . S
C1903 C1909 1.465 . S
C1904 C1899 1.399 . S
C1904 C1903 1.394 . S
C1904 C1905 1.516 . S
C1905 C1904 1.516 . S
C1905 C1906 1.502 . S
C1905 C1907 1.561 . S
C1905 C1908 1.526 . S
C1906 H1890 0.959 . S
C1906 H1891 0.959 . S
C1906 H1892 0.961 . S
C1906 C1905 1.502 . S
C1907 H1893 0.960 . S
C1907 H1894 0.961 . S
C1907 H1895 0.959 . S
C1907 C1905 1.561 . S
C1908 C1905 1.526 . S
C1908 C1909 1.396 . S
C1908 C1913 1.390 . S
C1909 C1903 1.465 . S
C1909 C1908 1.396 . S
C1909 C1910 1.399 . S
C1910 H1896 0.929 . S
C1910 C1909 1.399 . S
C1910 C1911 1.385 . S
C1911 H1897 0.931 . S
C1911 C1910 1.385 . S
C1911 C1912 1.389 . S
C1912 C1911 1.389 . S
C1912 C1913 1.387 . S
C1913 H1898 0.930 . S
C1913 C1908 1.390 . S
C1913 C1912 1.387 . S
H1914 C1926 0.930 . S
H1915 C1928 0.930 . S
H1916 C1929 0.930 . S
H1917 C1933 0.959 . S
H1918 C1933 0.959 . S
H1919 C1933 0.961 . S
H1920 C1934 0.960 . S
H1921 C1934 0.961 . S
H1922 C1934 0.959 . S
H1923 C1937 0.929 . S
H1924 C1938 0.931 . S
H1925 C1940 0.930 . S
C1926 H1914 0.930 . S
C1926 C1927 1.399 . S
C1926 C1931 1.399 . S
C1927 C1926 1.399 . S
C1927 C1928 1.376 . S
C1928 H1915 0.930 . S
C1928 C1927 1.376 . S
C1928 C1929 1.388 . S
C1929 H1916 0.930 . S
C1929 C1928 1.388 . S
C1929 C1930 1.390 . S
C1930 C1929 1.390 . S
C1930 C1931 1.394 . S
C1930 C1936 1.465 . S
C1931 C1926 1.399 . S
C1931 C1930 1.394 . S
C1931 C1932 1.516 . S
C1932 C1931 1.516 . S
C1932 C1933 1.502 . S
C1932 C1934 1.561 . S
C1932 C1935 1.526 . S
C1933 H1917 0.959 . S
C1933 H1918 0.959 . S
C1933 H1919 0.961 . S
C1933 C1932 1.502 . S
C1934 H1920 0.960 . S
C1934 H1921 0.961 . S
C1934 H1922 0.959 . S
C1934 C1932 1.561 . S
C1935 C1932 1.526 . S
C1935 C1936 1.396 . S
C1935 C1940 1.390 . S
C1936 C1930 1.465 . S
C1936 C1935 1.396 . S
C1936 C1937 1.399 . S
C1937 H1923 0.929 . S
C1937 C1936 1.399 . S
C1937 C1938 1.385 . S
C1938 H1924 0.931 . S
C1938 C1937 1.385 . S
C1938 C1939 1.389 . S
C1939 C1938 1.389 . S
C1939 C1940 1.387 . S
C1940 H1925 0.930 . S
C1940 C1935 1.390 . S
C1940 C1939 1.387 . S
H1941 C1953 0.930 . S
H1942 C1955 0.930 . S
H1943 C1956 0.930 . S
H1944 C1960 0.959 . S
H1945 C1960 0.959 . S
H1946 C1960 0.961 . S
H1947 C1961 0.960 . S
H1948 C1961 0.961 . S
H1949 C1961 0.959 . S
H1950 C1964 0.929 . S
H1951 C1965 0.931 . S
H1952 C1967 0.930 . S
C1953 H1941 0.930 . S
C1953 C1954 1.399 . S
C1953 C1958 1.399 . S
C1954 C1953 1.399 . S
C1954 C1955 1.376 . S
C1955 H1942 0.930 . S
C1955 C1954 1.376 . S
C1955 C1956 1.388 . S
C1956 H1943 0.930 . S
C1956 C1955 1.388 . S
C1956 C1957 1.390 . S
C1957 C1956 1.390 . S
C1957 C1958 1.394 . S
C1957 C1963 1.465 . S
C1958 C1953 1.399 . S
C1958 C1957 1.394 . S
C1958 C1959 1.516 . S
C1959 C1958 1.516 . S
C1959 C1960 1.502 . S
C1959 C1961 1.561 . S
C1959 C1962 1.526 . S
C1960 H1944 0.959 . S
C1960 H1945 0.959 . S
C1960 H1946 0.961 . S
C1960 C1959 1.502 . S
C1961 H1947 0.960 . S
C1961 H1948 0.961 . S
C1961 H1949 0.959 . S
C1961 C1959 1.561 . S
C1962 C1959 1.526 . S
C1962 C1963 1.396 . S
C1962 C1967 1.390 . S
C1963 C1957 1.465 . S
C1963 C1962 1.396 . S
C1963 C1964 1.399 . S
C1964 H1950 0.929 . S
C1964 C1963 1.399 . S
C1964 C1965 1.385 . S
C1965 H1951 0.931 . S
C1965 C1964 1.385 . S
C1965 C1966 1.389 . S
C1966 C1965 1.389 . S
C1966 C1967 1.387 . S
C1967 H1952 0.930 . S
C1967 C1962 1.390 . S
C1967 C1966 1.387 . S
H1968 C1980 0.930 . S
H1969 C1982 0.930 . S
H1970 C1983 0.930 . S
H1971 C1987 0.959 . S
H1972 C1987 0.959 . S
H1973 C1987 0.961 . S
H1974 C1988 0.960 . S
H1975 C1988 0.961 . S
H1976 C1988 0.959 . S
H1977 C1991 0.929 . S
H1978 C1992 0.931 . S
H1979 C1994 0.930 . S
C1980 H1968 0.930 . S
C1980 C1981 1.399 . S
C1980 C1985 1.399 . S
C1981 C1980 1.399 . S
C1981 C1982 1.376 . S
C1982 H1969 0.930 . S
C1982 C1981 1.376 . S
C1982 C1983 1.388 . S
C1983 H1970 0.930 . S
C1983 C1982 1.388 . S
C1983 C1984 1.390 . S
C1984 C1983 1.390 . S
C1984 C1985 1.394 . S
C1984 C1990 1.465 . S
C1985 C1980 1.399 . S
C1985 C1984 1.394 . S
C1985 C1986 1.516 . S
C1986 C1985 1.516 . S
C1986 C1987 1.502 . S
C1986 C1988 1.561 . S
C1986 C1989 1.526 . S
C1987 H1971 0.959 . S
C1987 H1972 0.959 . S
C1987 H1973 0.961 . S
C1987 C1986 1.502 . S
C1988 H1974 0.960 . S
C1988 H1975 0.961 . S
C1988 H1976 0.959 . S
C1988 C1986 1.561 . S
C1989 C1986 1.526 . S
C1989 C1990 1.396 . S
C1989 C1994 1.390 . S
C1990 C1984 1.465 . S
C1990 C1989 1.396 . S
C1990 C1991 1.399 . S
C1991 H1977 0.929 . S
C1991 C1990 1.399 . S
C1991 C1992 1.385 . S
C1992 H1978 0.931 . S
C1992 C1991 1.385 . S
C1992 C1993 1.389 . S
C1993 C1992 1.389 . S
C1993 C1994 1.387 . S
C1994 H1979 0.930 . S
C1994 C1989 1.390 . S
C1994 C1993 1.387 . S
H1995 C2007 0.930 . S
H1996 C2009 0.930 . S
H1997 C2010 0.930 . S
H1998 C2014 0.959 . S
H1999 C2014 0.959 . S
H2000 C2014 0.961 . S
H2001 C2015 0.960 . S
H2002 C2015 0.961 . S
H2003 C2015 0.959 . S
H2004 C2018 0.929 . S
H2005 C2019 0.931 . S
H2006 C2021 0.930 . S
C2007 H1995 0.930 . S
C2007 C2008 1.399 . S
C2007 C2012 1.399 . S
C2008 C2007 1.399 . S
C2008 C2009 1.376 . S
C2009 H1996 0.930 . S
C2009 C2008 1.376 . S
C2009 C2010 1.388 . S
C2010 H1997 0.930 . S
C2010 C2009 1.388 . S
C2010 C2011 1.390 . S
C2011 C2010 1.390 . S
C2011 C2012 1.394 . S
C2011 C2017 1.465 . S
C2012 C2007 1.399 . S
C2012 C2011 1.394 . S
C2012 C2013 1.516 . S
C2013 C2012 1.516 . S
C2013 C2014 1.502 . S
C2013 C2015 1.561 . S
C2013 C2016 1.526 . S
C2014 H1998 0.959 . S
C2014 H1999 0.959 . S
C2014 H2000 0.961 . S
C2014 C2013 1.502 . S
C2015 H2001 0.960 . S
C2015 H2002 0.961 . S
C2015 H2003 0.959 . S
C2015 C2013 1.561 . S
C2016 C2013 1.526 . S
C2016 C2017 1.396 . S
C2016 C2021 1.390 . S
C2017 C2011 1.465 . S
C2017 C2016 1.396 . S
C2017 C2018 1.399 . S
C2018 H2004 0.929 . S
C2018 C2017 1.399 . S
C2018 C2019 1.385 . S
C2019 H2005 0.931 . S
C2019 C2018 1.385 . S
C2019 C2020 1.389 . S
C2020 C2019 1.389 . S
C2020 C2021 1.387 . S
C2021 H2006 0.930 . S
C2021 C2016 1.390 . S
C2021 C2020 1.387 . S
H2022 C2034 0.930 . S
H2023 C2036 0.930 . S
H2024 C2037 0.930 . S
H2025 C2041 0.959 . S
H2026 C2041 0.959 . S
H2027 C2041 0.961 . S
H2028 C2042 0.960 . S
H2029 C2042 0.961 1_556 S
H2030 C2042 0.959 1_655 S
H2031 C2045 0.929 . S
H2032 C2046 0.931 . S
H2033 C2048 0.930 . S
C2034 H2022 0.930 . S
C2034 C2035 1.399 . S
C2034 C2039 1.399 . S
C2035 C2034 1.399 . S
C2035 C2036 1.376 1_455 S
C2036 H2023 0.930 . S
C2036 C2035 1.376 1_655 S
C2036 C2037 1.388 . S
C2037 H2024 0.930 . S
C2037 C2036 1.388 . S
C2037 C2038 1.390 1_655 S
C2038 C2037 1.390 1_455 S
C2038 C2039 1.394 . S
C2038 C2044 1.465 . S
C2039 C2034 1.399 . S
C2039 C2038 1.394 . S
C2039 C2040 1.516 . S
C2040 C2039 1.516 . S
C2040 C2041 1.502 . S
C2040 C2042 1.561 . S
C2040 C2043 1.526 . S
C2041 H2025 0.959 . S
C2041 H2026 0.959 . S
C2041 H2027 0.961 . S
C2041 C2040 1.502 . S
C2042 H2028 0.960 . S
C2042 H2029 0.961 1_554 S
C2042 H2030 0.959 1_455 S
C2042 C2040 1.561 . S
C2043 C2040 1.526 . S
C2043 C2044 1.396 . S
C2043 C2048 1.390 . S
C2044 C2038 1.465 . S
C2044 C2043 1.396 . S
C2044 C2045 1.399 1_455 S
C2045 H2031 0.929 . S
C2045 C2044 1.399 1_655 S
C2045 C2046 1.385 . S
C2046 H2032 0.931 . S
C2046 C2045 1.385 . S
C2046 C2047 1.389 1_655 S
C2047 C2046 1.389 1_455 S
C2047 C2048 1.387 . S
C2048 H2033 0.930 . S
C2048 C2043 1.390 . S
C2048 C2047 1.387 . S
H2049 C2061 0.930 . S
H2050 C2063 0.930 . S
H2051 C2064 0.930 . S
H2052 C2068 0.959 . S
H2053 C2068 0.959 . S
H2054 C2068 0.961 . S
H2055 C2069 0.960 . S
H2056 C2069 0.961 . S
H2057 C2069 0.959 . S
H2058 C2072 0.929 . S
H2059 C2073 0.931 . S
H2060 C2075 0.930 . S
C2061 H2049 0.930 . S
C2061 C2062 1.399 . S
C2061 C2066 1.399 . S
C2062 C2061 1.399 . S
C2062 C2063 1.376 . S
C2063 H2050 0.930 . S
C2063 C2062 1.376 . S
C2063 C2064 1.388 . S
C2064 H2051 0.930 . S
C2064 C2063 1.388 . S
C2064 C2065 1.390 . S
C2065 C2064 1.390 . S
C2065 C2066 1.394 . S
C2065 C2071 1.465 . S
C2066 C2061 1.399 . S
C2066 C2065 1.394 . S
C2066 C2067 1.516 . S
C2067 C2066 1.516 . S
C2067 C2068 1.502 . S
C2067 C2069 1.561 . S
C2067 C2070 1.526 . S
C2068 H2052 0.959 . S
C2068 H2053 0.959 . S
C2068 H2054 0.961 . S
C2068 C2067 1.502 . S
C2069 H2055 0.960 . S
C2069 H2056 0.961 . S
C2069 H2057 0.959 . S
C2069 C2067 1.561 . S
C2070 C2067 1.526 . S
C2070 C2071 1.396 . S
C2070 C2075 1.390 . S
C2071 C2065 1.465 . S
C2071 C2070 1.396 . S
C2071 C2072 1.399 . S
C2072 H2058 0.929 . S
C2072 C2071 1.399 . S
C2072 C2073 1.385 . S
C2073 H2059 0.931 . S
C2073 C2072 1.385 . S
C2073 C2074 1.389 . S
C2074 C2073 1.389 . S
C2074 C2075 1.387 . S
C2075 H2060 0.930 . S
C2075 C2070 1.390 . S
C2075 C2074 1.387 . S
H2076 C2088 0.930 . S
H2077 C2090 0.930 . S
H2078 C2091 0.930 . S
H2079 C2095 0.959 . S
H2080 C2095 0.959 . S
H2081 C2095 0.961 . S
H2082 C2096 0.960 . S
H2083 C2096 0.961 1_554 S
H2084 C2096 0.959 . S
H2085 C2099 0.929 . S
H2086 C2100 0.931 . S
H2087 C2102 0.930 . S
C2088 H2076 0.930 . S
C2088 C2089 1.399 . S
C2088 C2093 1.399 . S
C2089 C2088 1.399 . S
C2089 C2090 1.376 . S
C2090 H2077 0.930 . S
C2090 C2089 1.376 . S
C2090 C2091 1.388 . S
C2091 H2078 0.930 . S
C2091 C2090 1.388 . S
C2091 C2092 1.390 . S
C2092 C2091 1.390 . S
C2092 C2093 1.394 . S
C2092 C2098 1.465 . S
C2093 C2088 1.399 . S
C2093 C2092 1.394 . S
C2093 C2094 1.516 . S
C2094 C2093 1.516 . S
C2094 C2095 1.502 . S
C2094 C2096 1.561 . S
C2094 C2097 1.526 . S
C2095 H2079 0.959 . S
C2095 H2080 0.959 . S
C2095 H2081 0.961 . S
C2095 C2094 1.502 . S
C2096 H2082 0.960 . S
C2096 H2083 0.961 1_556 S
C2096 H2084 0.959 . S
C2096 C2094 1.561 . S
C2097 C2094 1.526 . S
C2097 C2098 1.396 . S
C2097 C2102 1.390 . S
C2098 C2092 1.465 . S
C2098 C2097 1.396 . S
C2098 C2099 1.399 . S
C2099 H2085 0.929 . S
C2099 C2098 1.399 . S
C2099 C2100 1.385 . S
C2100 H2086 0.931 . S
C2100 C2099 1.385 . S
C2100 C2101 1.389 . S
C2101 C2100 1.389 . S
C2101 C2102 1.387 . S
C2102 H2087 0.930 . S
C2102 C2097 1.390 . S
C2102 C2101 1.387 . S
H2103 C2115 0.930 . S
H2104 C2117 0.930 . S
H2105 C2118 0.930 . S
H2106 C2122 0.959 . S
H2107 C2122 0.959 . S
H2108 C2122 0.961 . S
H2109 C2123 0.960 . S
H2110 C2123 0.961 . S
H2111 C2123 0.959 . S
H2112 C2126 0.929 . S
H2113 C2127 0.931 . S
H2114 C2129 0.930 . S
C2115 H2103 0.930 . S
C2115 C2116 1.399 . S
C2115 C2120 1.399 . S
C2116 C2115 1.399 . S
C2116 C2117 1.376 . S
C2117 H2104 0.930 . S
C2117 C2116 1.376 . S
C2117 C2118 1.388 . S
C2118 H2105 0.930 . S
C2118 C2117 1.388 . S
C2118 C2119 1.390 . S
C2119 C2118 1.390 . S
C2119 C2120 1.394 . S
C2119 C2125 1.465 . S
C2120 C2115 1.399 . S
C2120 C2119 1.394 . S
C2120 C2121 1.516 . S
C2121 C2120 1.516 . S
C2121 C2122 1.502 . S
C2121 C2123 1.561 . S
C2121 C2124 1.526 . S
C2122 H2106 0.959 . S
C2122 H2107 0.959 . S
C2122 H2108 0.961 . S
C2122 C2121 1.502 . S
C2123 H2109 0.960 . S
C2123 H2110 0.961 . S
C2123 H2111 0.959 . S
C2123 C2121 1.561 . S
C2124 C2121 1.526 . S
C2124 C2125 1.396 . S
C2124 C2129 1.390 . S
C2125 C2119 1.465 . S
C2125 C2124 1.396 . S
C2125 C2126 1.399 . S
C2126 H2112 0.929 . S
C2126 C2125 1.399 . S
C2126 C2127 1.385 . S
C2127 H2113 0.931 . S
C2127 C2126 1.385 . S
C2127 C2128 1.389 . S
C2128 C2127 1.389 . S
C2128 C2129 1.387 . S
C2129 H2114 0.930 . S
C2129 C2124 1.390 . S
C2129 C2128 1.387 . S
H2130 C2142 0.930 . S
H2131 C2144 0.930 . S
H2132 C2145 0.930 . S
H2133 C2149 0.959 . S
H2134 C2149 0.959 . S
H2135 C2149 0.961 . S
H2136 C2150 0.947 1_655 S
H2137 C2150 0.952 1_655 S
H2138 C2150 0.959 . S
H2139 C2153 0.929 . S
H2140 C2154 0.931 . S
H2141 C2156 0.930 1_655 S
C2142 H2130 0.930 . S
C2142 C2143 1.399 1_655 S
C2142 C2147 1.391 1_655 S
C2143 C2142 1.399 1_455 S
C2143 C2144 1.376 . S
C2144 H2131 0.930 . S
C2144 C2143 1.376 . S
C2144 C2145 1.388 . S
C2145 H2132 0.930 . S
C2145 C2144 1.388 . S
C2145 C2146 1.390 . S
C2146 C2145 1.390 . S
C2146 C2147 1.414 . S
C2146 C2152 1.465 . S
C2147 C2142 1.391 1_455 S
C2147 C2146 1.414 . S
C2147 C2148 1.508 1_455 S
C2148 C2147 1.508 1_655 S
C2148 C2149 1.502 . S
C2148 C2150 1.561 1_655 S
C2148 C2151 1.526 1_655 S
C2149 H2133 0.959 . S
C2149 H2134 0.959 . S
C2149 H2135 0.961 . S
C2149 C2148 1.502 . S
C2150 H2136 0.947 1_455 S
C2150 H2137 0.952 1_455 S
C2150 H2138 0.959 . S
C2150 C2148 1.561 1_455 S
C2151 C2148 1.526 1_455 S
C2151 C2152 1.396 . S
C2151 C2156 1.390 . S
C2152 C2146 1.465 . S
C2152 C2151 1.396 . S
C2152 C2153 1.399 . S
C2153 H2139 0.929 . S
C2153 C2152 1.399 . S
C2153 C2154 1.385 . S
C2154 H2140 0.931 . S
C2154 C2153 1.385 . S
C2154 C2155 1.389 . S
C2155 C2154 1.389 . S
C2155 C2156 1.387 . S
C2156 H2141 0.930 1_455 S
C2156 C2151 1.390 . S
C2156 C2155 1.387 . S
H2157 C2169 0.930 . S
H2158 C2171 0.930 . S
H2159 C2172 0.930 . S
H2160 C2176 0.959 . S
H2161 C2176 0.959 . S
H2162 C2176 0.961 . S
H2163 C2177 0.960 . S
H2164 C2177 0.961 . S
H2165 C2177 0.959 . S
H2166 C2180 0.929 . S
H2167 C2181 0.931 . S
H2168 C2183 0.930 . S
C2169 H2157 0.930 . S
C2169 C2170 1.399 . S
C2169 C2174 1.399 . S
C2170 C2169 1.399 . S
C2170 C2171 1.376 . S
C2171 H2158 0.930 . S
C2171 C2170 1.376 . S
C2171 C2172 1.388 . S
C2172 H2159 0.930 . S
C2172 C2171 1.388 . S
C2172 C2173 1.390 . S
C2173 C2172 1.390 . S
C2173 C2174 1.394 . S
C2173 C2179 1.465 . S
C2174 C2169 1.399 . S
C2174 C2173 1.394 . S
C2174 C2175 1.516 . S
C2175 C2174 1.516 . S
C2175 C2176 1.502 . S
C2175 C2177 1.561 . S
C2175 C2178 1.526 . S
C2176 H2160 0.959 . S
C2176 H2161 0.959 . S
C2176 H2162 0.961 . S
C2176 C2175 1.502 . S
C2177 H2163 0.960 . S
C2177 H2164 0.961 . S
C2177 H2165 0.959 . S
C2177 C2175 1.561 . S
C2178 C2175 1.526 . S
C2178 C2179 1.396 . S
C2178 C2183 1.390 . S
C2179 C2173 1.465 . S
C2179 C2178 1.396 . S
C2179 C2180 1.399 . S
C2180 H2166 0.929 . S
C2180 C2179 1.399 . S
C2180 C2181 1.385 . S
C2181 H2167 0.931 . S
C2181 C2180 1.385 . S
C2181 C2182 1.389 . S
C2182 C2181 1.389 . S
C2182 C2183 1.387 . S
C2183 H2168 0.930 . S
C2183 C2178 1.390 . S
C2183 C2182 1.387 . S
H2184 C2196 0.930 . S
H2185 C2198 0.930 . S
H2186 C2199 0.930 . S
H2187 C2203 0.959 . S
H2188 C2203 0.959 . S
H2189 C2203 0.961 . S
H2190 C2204 0.960 . S
H2191 C2204 0.961 . S
H2192 C2204 0.959 . S
H2193 C2207 0.929 . S
H2194 C2208 0.931 . S
H2195 C2210 0.930 . S
C2196 H2184 0.930 . S
C2196 C2197 1.399 . S
C2196 C2201 1.399 . S
C2197 C2196 1.399 . S
C2197 C2198 1.376 . S
C2198 H2185 0.930 . S
C2198 C2197 1.376 . S
C2198 C2199 1.388 . S
C2199 H2186 0.930 . S
C2199 C2198 1.388 . S
C2199 C2200 1.390 . S
C2200 C2199 1.390 . S
C2200 C2201 1.394 . S
C2200 C2206 1.465 . S
C2201 C2196 1.399 . S
C2201 C2200 1.394 . S
C2201 C2202 1.516 . S
C2202 C2201 1.516 . S
C2202 C2203 1.502 . S
C2202 C2204 1.561 . S
C2202 C2205 1.526 . S
C2203 H2187 0.959 . S
C2203 H2188 0.959 . S
C2203 H2189 0.961 . S
C2203 C2202 1.502 . S
C2204 H2190 0.960 . S
C2204 H2191 0.961 . S
C2204 H2192 0.959 . S
C2204 C2202 1.561 . S
C2205 C2202 1.526 . S
C2205 C2206 1.396 . S
C2205 C2210 1.390 . S
C2206 C2200 1.465 . S
C2206 C2205 1.396 . S
C2206 C2207 1.399 . S
C2207 H2193 0.929 . S
C2207 C2206 1.399 . S
C2207 C2208 1.385 . S
C2208 H2194 0.931 . S
C2208 C2207 1.385 . S
C2208 C2209 1.389 . S
C2209 C2208 1.389 . S
C2209 C2210 1.387 . S
C2210 H2195 0.930 . S
C2210 C2205 1.390 . S
C2210 C2209 1.387 . S
H2211 C2223 0.930 . S
H2212 C2225 0.930 . S
H2213 C2226 0.930 . S
H2214 C2230 0.959 . S
H2215 C2230 0.959 . S
H2216 C2230 0.961 . S
H2217 C2231 0.960 . S
H2218 C2231 0.961 . S
H2219 C2231 0.959 . S
H2220 C2234 0.929 . S
H2221 C2235 0.931 . S
H2222 C2237 0.930 . S
C2223 H2211 0.930 . S
C2223 C2224 1.399 . S
C2223 C2228 1.399 . S
C2224 C2223 1.399 . S
C2224 C2225 1.376 . S
C2225 H2212 0.930 . S
C2225 C2224 1.376 . S
C2225 C2226 1.388 . S
C2226 H2213 0.930 . S
C2226 C2225 1.388 . S
C2226 C2227 1.390 . S
C2227 C2226 1.390 . S
C2227 C2228 1.394 . S
C2227 C2233 1.465 . S
C2228 C2223 1.399 . S
C2228 C2227 1.394 . S
C2228 C2229 1.516 . S
C2229 C2228 1.516 . S
C2229 C2230 1.502 . S
C2229 C2231 1.561 . S
C2229 C2232 1.526 . S
C2230 H2214 0.959 . S
C2230 H2215 0.959 . S
C2230 H2216 0.961 . S
C2230 C2229 1.502 . S
C2231 H2217 0.960 . S
C2231 H2218 0.961 . S
C2231 H2219 0.959 . S
C2231 C2229 1.561 . S
C2232 C2229 1.526 . S
C2232 C2233 1.396 . S
C2232 C2237 1.390 . S
C2233 C2227 1.465 . S
C2233 C2232 1.396 . S
C2233 C2234 1.399 . S
C2234 H2220 0.929 . S
C2234 C2233 1.399 . S
C2234 C2235 1.385 . S
C2235 H2221 0.931 . S
C2235 C2234 1.385 . S
C2235 C2236 1.389 . S
C2236 C2235 1.389 . S
C2236 C2237 1.387 . S
C2237 H2222 0.930 . S
C2237 C2232 1.390 . S
C2237 C2236 1.387 . S
H2238 C2250 0.930 . S
H2239 C2252 0.930 . S
H2240 C2253 0.930 . S
H2241 C2257 0.959 . S
H2242 C2257 0.959 . S
H2243 C2257 0.961 . S
H2244 C2258 0.960 . S
H2245 C2258 0.961 . S
H2246 C2258 0.959 . S
H2247 C2261 0.929 . S
H2248 C2262 0.931 . S
H2249 C2264 0.930 . S
C2250 H2238 0.930 . S
C2250 C2251 1.399 . S
C2250 C2255 1.399 . S
C2251 C2250 1.399 . S
C2251 C2252 1.376 . S
C2252 H2239 0.930 . S
C2252 C2251 1.376 . S
C2252 C2253 1.388 . S
C2253 H2240 0.930 . S
C2253 C2252 1.388 . S
C2253 C2254 1.390 . S
C2254 C2253 1.390 . S
C2254 C2255 1.394 . S
C2254 C2260 1.465 . S
C2255 C2250 1.399 . S
C2255 C2254 1.394 . S
C2255 C2256 1.516 . S
C2256 C2255 1.516 . S
C2256 C2257 1.502 . S
C2256 C2258 1.561 . S
C2256 C2259 1.526 . S
C2257 H2241 0.959 . S
C2257 H2242 0.959 . S
C2257 H2243 0.961 . S
C2257 C2256 1.502 . S
C2258 H2244 0.960 . S
C2258 H2245 0.961 . S
C2258 H2246 0.959 . S
C2258 C2256 1.561 . S
C2259 C2256 1.526 . S
C2259 C2260 1.396 . S
C2259 C2264 1.390 . S
C2260 C2254 1.465 . S
C2260 C2259 1.396 . S
C2260 C2261 1.399 . S
C2261 H2247 0.929 . S
C2261 C2260 1.399 . S
C2261 C2262 1.385 . S
C2262 H2248 0.931 . S
C2262 C2261 1.385 . S
C2262 C2263 1.389 . S
C2263 C2262 1.389 . S
C2263 C2264 1.387 . S
C2264 H2249 0.930 . S
C2264 C2259 1.390 . S
C2264 C2263 1.387 . S
H2265 C2277 0.930 . S
H2266 C2279 0.930 . S
H2267 C2280 0.930 . S
H2268 C2284 0.959 . S
H2269 C2284 0.959 . S
H2270 C2284 0.961 . S
H2271 C2285 0.960 . S
H2272 C2285 0.961 . S
H2273 C2285 0.959 . S
H2274 C2288 0.929 . S
H2275 C2289 0.931 . S
H2276 C2291 0.930 . S
C2277 H2265 0.930 . S
C2277 C2278 1.399 . S
C2277 C2282 1.399 . S
C2278 C2277 1.399 . S
C2278 C2279 1.376 . S
C2279 H2266 0.930 . S
C2279 C2278 1.376 . S
C2279 C2280 1.388 . S
C2280 H2267 0.930 . S
C2280 C2279 1.388 . S
C2280 C2281 1.390 . S
C2281 C2280 1.390 . S
C2281 C2282 1.394 . S
C2281 C2287 1.465 . S
C2282 C2277 1.399 . S
C2282 C2281 1.394 . S
C2282 C2283 1.516 . S
C2283 C2282 1.516 . S
C2283 C2284 1.502 . S
C2283 C2285 1.561 . S
C2283 C2286 1.526 . S
C2284 H2268 0.959 . S
C2284 H2269 0.959 . S
C2284 H2270 0.961 . S
C2284 C2283 1.502 . S
C2285 H2271 0.960 . S
C2285 H2272 0.961 . S
C2285 H2273 0.959 . S
C2285 C2283 1.561 . S
C2286 C2283 1.526 . S
C2286 C2287 1.396 . S
C2286 C2291 1.390 . S
C2287 C2281 1.465 . S
C2287 C2286 1.396 . S
C2287 C2288 1.399 . S
C2288 H2274 0.929 . S
C2288 C2287 1.399 . S
C2288 C2289 1.385 . S
C2289 H2275 0.931 . S
C2289 C2288 1.385 . S
C2289 C2290 1.389 . S
C2290 C2289 1.389 . S
C2290 C2291 1.387 . S
C2291 H2276 0.930 . S
C2291 C2286 1.390 . S
C2291 C2290 1.387 . S
H2292 C2304 0.930 . S
H2293 C2306 0.930 . S
H2294 C2307 0.930 . S
H2295 C2311 0.959 . S
H2296 C2311 0.959 . S
H2297 C2311 0.961 . S
H2298 C2312 0.960 . S
H2299 C2312 0.961 . S
H2300 C2312 0.959 . S
H2301 C2315 0.929 . S
H2302 C2316 0.931 . S
H2303 C2318 0.930 . S
C2304 H2292 0.930 . S
C2304 C2305 1.399 . S
C2304 C2309 1.399 . S
C2305 C2304 1.399 . S
C2305 C2306 1.376 . S
C2306 H2293 0.930 . S
C2306 C2305 1.376 . S
C2306 C2307 1.388 . S
C2307 H2294 0.930 . S
C2307 C2306 1.388 . S
C2307 C2308 1.390 . S
C2308 C2307 1.390 . S
C2308 C2309 1.394 . S
C2308 C2314 1.465 . S
C2309 C2304 1.399 . S
C2309 C2308 1.394 . S
C2309 C2310 1.516 . S
C2310 C2309 1.516 . S
C2310 C2311 1.502 . S
C2310 C2312 1.561 . S
C2310 C2313 1.526 . S
C2311 H2295 0.959 . S
C2311 H2296 0.959 . S
C2311 H2297 0.961 . S
C2311 C2310 1.502 . S
C2312 H2298 0.960 . S
C2312 H2299 0.961 . S
C2312 H2300 0.959 . S
C2312 C2310 1.561 . S
C2313 C2310 1.526 . S
C2313 C2314 1.396 . S
C2313 C2318 1.390 . S
C2314 C2308 1.465 . S
C2314 C2313 1.396 . S
C2314 C2315 1.399 . S
C2315 H2301 0.929 . S
C2315 C2314 1.399 . S
C2315 C2316 1.385 . S
C2316 H2302 0.931 . S
C2316 C2315 1.385 . S
C2316 C2317 1.389 . S
C2317 C2316 1.389 . S
C2317 C2318 1.387 . S
C2318 H2303 0.930 . S
C2318 C2313 1.390 . S
C2318 C2317 1.387 . S
H2319 C2331 0.930 . S
H2320 C2333 0.930 . S
H2321 C2334 0.930 . S
H2322 C2338 0.959 . S
H2323 C2338 0.959 . S
H2324 C2338 0.961 . S
H2325 C2339 0.960 . S
H2326 C2339 0.961 . S
H2327 C2339 0.959 . S
H2328 C2342 0.929 . S
H2329 C2343 0.931 . S
H2330 C2345 0.930 . S
C2331 H2319 0.930 . S
C2331 C2332 1.399 . S
C2331 C2336 1.399 . S
C2332 C2331 1.399 . S
C2332 C2333 1.376 . S
C2333 H2320 0.930 . S
C2333 C2332 1.376 . S
C2333 C2334 1.388 . S
C2334 H2321 0.930 . S
C2334 C2333 1.388 . S
C2334 C2335 1.390 . S
C2335 C2334 1.390 . S
C2335 C2336 1.394 . S
C2335 C2341 1.465 . S
C2336 C2331 1.399 . S
C2336 C2335 1.394 . S
C2336 C2337 1.516 . S
C2337 C2336 1.516 . S
C2337 C2338 1.502 . S
C2337 C2339 1.561 . S
C2337 C2340 1.526 . S
C2338 H2322 0.959 . S
C2338 H2323 0.959 . S
C2338 H2324 0.961 . S
C2338 C2337 1.502 . S
C2339 H2325 0.960 . S
C2339 H2326 0.961 . S
C2339 H2327 0.959 . S
C2339 C2337 1.561 . S
C2340 C2337 1.526 . S
C2340 C2341 1.396 . S
C2340 C2345 1.390 . S
C2341 C2335 1.465 . S
C2341 C2340 1.396 . S
C2341 C2342 1.399 . S
C2342 H2328 0.929 . S
C2342 C2341 1.399 . S
C2342 C2343 1.385 . S
C2343 H2329 0.931 . S
C2343 C2342 1.385 . S
C2343 C2344 1.389 . S
C2344 C2343 1.389 . S
C2344 C2345 1.387 . S
C2345 H2330 0.930 . S
C2345 C2340 1.390 . S
C2345 C2344 1.387 . S
H2346 C2358 0.930 . S
H2347 C2360 0.930 . S
H2348 C2361 0.930 . S
H2349 C2365 0.959 . S
H2350 C2365 0.959 . S
H2351 C2365 0.961 . S
H2352 C2366 0.960 . S
H2353 C2366 0.961 . S
H2354 C2366 0.959 . S
H2355 C2369 0.929 . S
H2356 C2370 0.931 . S
H2357 C2372 0.930 . S
C2358 H2346 0.930 . S
C2358 C2359 1.399 . S
C2358 C2363 1.399 . S
C2359 C2358 1.399 . S
C2359 C2360 1.376 . S
C2360 H2347 0.930 . S
C2360 C2359 1.376 . S
C2360 C2361 1.388 . S
C2361 H2348 0.930 . S
C2361 C2360 1.388 . S
C2361 C2362 1.390 . S
C2362 C2361 1.390 . S
C2362 C2363 1.394 . S
C2362 C2368 1.465 . S
C2363 C2358 1.399 . S
C2363 C2362 1.394 . S
C2363 C2364 1.516 . S
C2364 C2363 1.516 . S
C2364 C2365 1.502 . S
C2364 C2366 1.561 . S
C2364 C2367 1.526 . S
C2365 H2349 0.959 . S
C2365 H2350 0.959 . S
C2365 H2351 0.961 . S
C2365 C2364 1.502 . S
C2366 H2352 0.960 . S
C2366 H2353 0.961 . S
C2366 H2354 0.959 . S
C2366 C2364 1.561 . S
C2367 C2364 1.526 . S
C2367 C2368 1.396 . S
C2367 C2372 1.390 . S
C2368 C2362 1.465 . S
C2368 C2367 1.396 . S
C2368 C2369 1.399 . S
C2369 H2355 0.929 . S
C2369 C2368 1.399 . S
C2369 C2370 1.385 . S
C2370 H2356 0.931 . S
C2370 C2369 1.385 . S
C2370 C2371 1.389 . S
C2371 C2370 1.389 . S
C2371 C2372 1.387 . S
C2372 H2357 0.930 . S
C2372 C2367 1.390 . S
C2372 C2371 1.387 . S
H2373 C2385 0.930 . S
H2374 C2387 0.930 . S
H2375 C2388 0.930 . S
H2376 C2392 0.959 . S
H2377 C2392 0.959 . S
H2378 C2392 0.961 . S
H2379 C2393 0.960 . S
H2380 C2393 0.961 . S
H2381 C2393 0.959 . S
H2382 C2396 0.929 . S
H2383 C2397 0.931 . S
H2384 C2399 0.930 . S
C2385 H2373 0.930 . S
C2385 C2386 1.399 . S
C2385 C2390 1.399 . S
C2386 C2385 1.399 . S
C2386 C2387 1.376 . S
C2387 H2374 0.930 . S
C2387 C2386 1.376 . S
C2387 C2388 1.388 . S
C2388 H2375 0.930 . S
C2388 C2387 1.388 . S
C2388 C2389 1.390 . S
C2389 C2388 1.390 . S
C2389 C2390 1.394 . S
C2389 C2395 1.465 . S
C2390 C2385 1.399 . S
C2390 C2389 1.394 . S
C2390 C2391 1.516 . S
C2391 C2390 1.516 . S
C2391 C2392 1.502 . S
C2391 C2393 1.561 . S
C2391 C2394 1.526 . S
C2392 H2376 0.959 . S
C2392 H2377 0.959 . S
C2392 H2378 0.961 . S
C2392 C2391 1.502 . S
C2393 H2379 0.960 . S
C2393 H2380 0.961 . S
C2393 H2381 0.959 . S
C2393 C2391 1.561 . S
C2394 C2391 1.526 . S
C2394 C2395 1.396 . S
C2394 C2399 1.390 . S
C2395 C2389 1.465 . S
C2395 C2394 1.396 . S
C2395 C2396 1.399 . S
C2396 H2382 0.929 . S
C2396 C2395 1.399 . S
C2396 C2397 1.385 . S
C2397 H2383 0.931 . S
C2397 C2396 1.385 . S
C2397 C2398 1.389 . S
C2398 C2397 1.389 . S
C2398 C2399 1.387 . S
C2399 H2384 0.930 . S
C2399 C2394 1.390 . S
C2399 C2398 1.387 . S
H2400 C2412 0.930 . S
H2401 C2414 0.930 . S
H2402 C2415 0.930 . S
H2403 C2419 0.959 . S
H2404 C2419 0.959 . S
H2405 C2419 0.961 . S
H2406 C2420 0.960 . S
H2407 C2420 0.961 . S
H2408 C2420 0.959 . S
H2409 C2423 0.929 . S
H2410 C2424 0.931 . S
H2411 C2426 0.930 . S
C2412 H2400 0.930 . S
C2412 C2413 1.399 . S
C2412 C2417 1.399 . S
C2413 C2412 1.399 . S
C2413 C2414 1.376 . S
C2414 H2401 0.930 . S
C2414 C2413 1.376 . S
C2414 C2415 1.388 . S
C2415 H2402 0.930 . S
C2415 C2414 1.388 . S
C2415 C2416 1.390 . S
C2416 C2415 1.390 . S
C2416 C2417 1.394 . S
C2416 C2422 1.465 . S
C2417 C2412 1.399 . S
C2417 C2416 1.394 . S
C2417 C2418 1.516 . S
C2418 C2417 1.516 . S
C2418 C2419 1.502 . S
C2418 C2420 1.561 . S
C2418 C2421 1.526 . S
C2419 H2403 0.959 . S
C2419 H2404 0.959 . S
C2419 H2405 0.961 . S
C2419 C2418 1.502 . S
C2420 H2406 0.960 . S
C2420 H2407 0.961 . S
C2420 H2408 0.959 . S
C2420 C2418 1.561 . S
C2421 C2418 1.526 . S
C2421 C2422 1.396 . S
C2421 C2426 1.390 . S
C2422 C2416 1.465 . S
C2422 C2421 1.396 . S
C2422 C2423 1.399 . S
C2423 H2409 0.929 . S
C2423 C2422 1.399 . S
C2423 C2424 1.385 . S
C2424 H2410 0.931 . S
C2424 C2423 1.385 . S
C2424 C2425 1.389 . S
C2425 C2424 1.389 . S
C2425 C2426 1.387 . S
C2426 H2411 0.930 . S
C2426 C2421 1.390 . S
C2426 C2425 1.387 . S
H2427 C2439 0.930 . S
H2428 C2441 0.930 . S
H2429 C2442 0.930 . S
H2430 C2446 0.959 . S
H2431 C2446 0.959 . S
H2432 C2446 0.961 . S
H2433 C2447 0.960 . S
H2434 C2447 0.961 . S
H2435 C2447 0.959 . S
H2436 C2450 0.929 . S
H2437 C2451 0.931 . S
H2438 C2453 0.930 . S
C2439 H2427 0.930 . S
C2439 C2440 1.399 . S
C2439 C2444 1.399 . S
C2440 C2439 1.399 . S
C2440 C2441 1.376 . S
C2441 H2428 0.930 . S
C2441 C2440 1.376 . S
C2441 C2442 1.388 . S
C2442 H2429 0.930 . S
C2442 C2441 1.388 . S
C2442 C2443 1.390 . S
C2443 C2442 1.390 . S
C2443 C2444 1.394 . S
C2443 C2449 1.465 . S
C2444 C2439 1.399 . S
C2444 C2443 1.394 . S
C2444 C2445 1.516 . S
C2445 C2444 1.516 . S
C2445 C2446 1.502 . S
C2445 C2447 1.561 . S
C2445 C2448 1.526 . S
C2446 H2430 0.959 . S
C2446 H2431 0.959 . S
C2446 H2432 0.961 . S
C2446 C2445 1.502 . S
C2447 H2433 0.960 . S
C2447 H2434 0.961 . S
C2447 H2435 0.959 . S
C2447 C2445 1.561 . S
C2448 C2445 1.526 . S
C2448 C2449 1.396 . S
C2448 C2453 1.390 . S
C2449 C2443 1.465 . S
C2449 C2448 1.396 . S
C2449 C2450 1.399 . S
C2450 H2436 0.929 . S
C2450 C2449 1.399 . S
C2450 C2451 1.385 . S
C2451 H2437 0.931 . S
C2451 C2450 1.385 . S
C2451 C2452 1.389 . S
C2452 C2451 1.389 . S
C2452 C2453 1.387 . S
C2453 H2438 0.930 . S
C2453 C2448 1.390 . S
C2453 C2452 1.387 . S
H2454 C2466 0.930 . S
H2455 C2468 0.930 . S
H2456 C2469 0.930 . S
H2457 C2473 0.959 . S
H2458 C2473 0.959 . S
H2459 C2473 0.961 . S
H2460 C2474 0.960 . S
H2461 C2474 0.961 . S
H2462 C2474 0.959 . S
H2463 C2477 0.929 . S
H2464 C2478 0.931 . S
H2465 C2480 0.930 . S
C2466 H2454 0.930 . S
C2466 C2467 1.399 . S
C2466 C2471 1.399 . S
C2467 C2466 1.399 . S
C2467 C2468 1.376 . S
C2468 H2455 0.930 . S
C2468 C2467 1.376 . S
C2468 C2469 1.388 . S
C2469 H2456 0.930 . S
C2469 C2468 1.388 . S
C2469 C2470 1.390 . S
C2470 C2469 1.390 . S
C2470 C2471 1.394 . S
C2470 C2476 1.465 . S
C2471 C2466 1.399 . S
C2471 C2470 1.394 . S
C2471 C2472 1.516 . S
C2472 C2471 1.516 . S
C2472 C2473 1.502 . S
C2472 C2474 1.561 . S
C2472 C2475 1.526 . S
C2473 H2457 0.959 . S
C2473 H2458 0.959 . S
C2473 H2459 0.961 . S
C2473 C2472 1.502 . S
C2474 H2460 0.960 . S
C2474 H2461 0.961 . S
C2474 H2462 0.959 . S
C2474 C2472 1.561 . S
C2475 C2472 1.526 . S
C2475 C2476 1.396 . S
C2475 C2480 1.390 . S
C2476 C2470 1.465 . S
C2476 C2475 1.396 . S
C2476 C2477 1.399 . S
C2477 H2463 0.929 . S
C2477 C2476 1.399 . S
C2477 C2478 1.385 . S
C2478 H2464 0.931 . S
C2478 C2477 1.385 . S
C2478 C2479 1.389 . S
C2479 C2478 1.389 . S
C2479 C2480 1.387 . S
C2480 H2465 0.930 . S
C2480 C2475 1.390 . S
C2480 C2479 1.387 . S
H2481 C2493 0.930 . S
H2482 C2495 0.930 . S
H2483 C2496 0.930 . S
H2484 C2500 0.959 . S
H2485 C2500 0.959 . S
H2486 C2500 0.961 . S
H2487 C2501 0.960 . S
H2488 C2501 0.961 . S
H2489 C2501 0.959 . S
H2490 C2504 0.929 . S
H2491 C2505 0.952 . S
H2492 C2507 0.930 . S
C2493 H2481 0.930 . S
C2493 C2494 1.399 . S
C2493 C2498 1.399 . S
C2494 C2493 1.399 . S
C2494 C2495 1.376 1_554 S
C2495 H2482 0.930 . S
C2495 C2494 1.376 1_556 S
C2495 C2496 1.388 . S
C2496 H2483 0.930 . S
C2496 C2495 1.388 . S
C2496 C2497 1.390 1_556 S
C2497 C2496 1.390 1_554 S
C2497 C2498 1.394 . S
C2497 C2503 1.465 . S
C2498 C2493 1.399 . S
C2498 C2497 1.394 . S
C2498 C2499 1.516 . S
C2499 C2498 1.516 . S
C2499 C2500 1.502 . S
C2499 C2501 1.561 . S
C2499 C2502 1.526 . S
C2500 H2484 0.959 . S
C2500 H2485 0.959 . S
C2500 H2486 0.961 . S
C2500 C2499 1.502 . S
C2501 H2487 0.960 . S
C2501 H2488 0.961 . S
C2501 H2489 0.959 . S
C2501 C2499 1.561 . S
C2502 C2499 1.526 . S
C2502 C2503 1.396 . S
C2502 C2507 1.390 . S
C2503 C2497 1.465 . S
C2503 C2502 1.396 . S
C2503 C2504 1.399 1_554 S
C2504 H2490 0.929 . S
C2504 C2503 1.399 1_556 S
C2504 C2505 1.385 . S
C2505 H2491 0.952 . S
C2505 C2504 1.385 . S
C2505 C2506 1.389 1_556 S
C2506 C2505 1.389 1_554 S
C2506 C2507 1.387 . S
C2507 H2492 0.930 . S
C2507 C2502 1.390 . S
C2507 C2506 1.387 . S
H2508 C2520 0.930 . S
H2509 C2522 0.930 . S
H2510 C2523 0.930 . S
H2511 C2527 0.959 . S
H2512 C2527 0.959 . S
H2513 C2527 0.961 . S
H2514 C2528 0.960 . S
H2515 C2528 0.961 . S
H2516 C2528 0.959 . S
H2517 C2531 0.929 . S
H2518 C2532 0.931 . S
H2519 C2534 0.930 . S
C2520 H2508 0.930 . S
C2520 C2521 1.399 . S
C2520 C2525 1.399 . S
C2521 C2520 1.399 . S
C2521 C2522 1.376 . S
C2522 H2509 0.930 . S
C2522 C2521 1.376 . S
C2522 C2523 1.388 . S
C2523 H2510 0.930 . S
C2523 C2522 1.388 . S
C2523 C2524 1.390 . S
C2524 C2523 1.390 . S
C2524 C2525 1.394 . S
C2524 C2530 1.465 . S
C2525 C2520 1.399 . S
C2525 C2524 1.394 . S
C2525 C2526 1.516 . S
C2526 C2525 1.516 . S
C2526 C2527 1.502 . S
C2526 C2528 1.561 . S
C2526 C2529 1.526 . S
C2527 H2511 0.959 . S
C2527 H2512 0.959 . S
C2527 H2513 0.961 . S
C2527 C2526 1.502 . S
C2528 H2514 0.960 . S
C2528 H2515 0.961 . S
C2528 H2516 0.959 . S
C2528 C2526 1.561 . S
C2529 C2526 1.526 . S
C2529 C2530 1.396 . S
C2529 C2534 1.390 . S
C2530 C2524 1.465 . S
C2530 C2529 1.396 . S
C2530 C2531 1.399 . S
C2531 H2517 0.929 . S
C2531 C2530 1.399 . S
C2531 C2532 1.385 . S
C2532 H2518 0.931 . S
C2532 C2531 1.385 . S
C2532 C2533 1.389 . S
C2533 C2532 1.389 . S
C2533 C2534 1.387 . S
C2534 H2519 0.930 . S
C2534 C2529 1.390 . S
C2534 C2533 1.387 . S
H2535 C2547 0.930 . S
H2536 C2549 0.930 . S
H2537 C2550 0.930 . S
H2538 C2554 0.959 . S
H2539 C2554 0.959 . S
H2540 C2554 0.961 . S
H2541 C2555 0.960 . S
H2542 C2555 0.961 . S
H2543 C2555 0.959 . S
H2544 C2558 0.929 . S
H2545 C2559 0.931 . S
H2546 C2561 0.930 . S
C2547 H2535 0.930 . S
C2547 C2548 1.399 1_556 S
C2547 C2552 1.399 . S
C2548 C2547 1.399 1_554 S
C2548 C2549 1.376 . S
C2549 H2536 0.930 . S
C2549 C2548 1.376 . S
C2549 C2550 1.388 . S
C2550 H2537 0.930 . S
C2550 C2549 1.388 . S
C2550 C2551 1.390 . S
C2551 C2550 1.390 . S
C2551 C2552 1.394 1_554 S
C2551 C2557 1.465 . S
C2552 C2547 1.399 . S
C2552 C2551 1.394 1_556 S
C2552 C2553 1.516 . S
C2553 C2552 1.516 . S
C2553 C2554 1.502 . S
C2553 C2555 1.561 . S
C2553 C2556 1.526 . S
C2554 H2538 0.959 . S
C2554 H2539 0.959 . S
C2554 H2540 0.961 . S
C2554 C2553 1.502 . S
C2555 H2541 0.960 . S
C2555 H2542 0.961 . S
C2555 H2543 0.959 . S
C2555 C2553 1.561 . S
C2556 C2553 1.526 . S
C2556 C2557 1.396 1_556 S
C2556 C2561 1.390 . S
C2557 C2551 1.465 . S
C2557 C2556 1.396 1_554 S
C2557 C2558 1.399 . S
C2558 H2544 0.929 . S
C2558 C2557 1.399 . S
C2558 C2559 1.385 . S
C2559 H2545 0.931 . S
C2559 C2558 1.385 . S
C2559 C2560 1.389 1_554 S
C2560 C2559 1.389 1_556 S
C2560 C2561 1.387 . S
C2561 H2546 0.930 . S
C2561 C2556 1.390 . S
C2561 C2560 1.387 . S
H2562 C2574 0.930 . S
H2563 C2576 0.930 . S
H2564 C2577 0.930 . S
H2565 C2581 0.959 . S
H2566 C2581 0.959 . S
H2567 C2581 0.961 . S
H2568 C2582 0.960 . S
H2569 C2582 0.961 . S
H2570 C2582 0.959 . S
H2571 C2585 0.929 . S
H2572 C2586 0.931 . S
H2573 C2588 0.930 . S
C2574 H2562 0.930 . S
C2574 C2575 1.399 . S
C2574 C2579 1.399 . S
C2575 C2574 1.399 . S
C2575 C2576 1.376 . S
C2576 H2563 0.930 . S
C2576 C2575 1.376 . S
C2576 C2577 1.388 . S
C2577 H2564 0.930 . S
C2577 C2576 1.388 . S
C2577 C2578 1.390 . S
C2578 C2577 1.390 . S
C2578 C2579 1.394 . S
C2578 C2584 1.465 . S
C2579 C2574 1.399 . S
C2579 C2578 1.394 . S
C2579 C2580 1.516 . S
C2580 C2579 1.516 . S
C2580 C2581 1.502 . S
C2580 C2582 1.561 . S
C2580 C2583 1.526 . S
C2581 H2565 0.959 . S
C2581 H2566 0.959 . S
C2581 H2567 0.961 . S
C2581 C2580 1.502 . S
C2582 H2568 0.960 . S
C2582 H2569 0.961 . S
C2582 H2570 0.959 . S
C2582 C2580 1.561 . S
C2583 C2580 1.526 . S
C2583 C2584 1.396 . S
C2583 C2588 1.390 . S
C2584 C2578 1.465 . S
C2584 C2583 1.396 . S
C2584 C2585 1.399 . S
C2585 H2571 0.929 . S
C2585 C2584 1.399 . S
C2585 C2586 1.385 . S
C2586 H2572 0.931 . S
C2586 C2585 1.385 . S
C2586 C2587 1.389 . S
C2587 C2586 1.389 . S
C2587 C2588 1.387 . S
C2588 H2573 0.930 . S
C2588 C2583 1.390 . S
C2588 C2587 1.387 . S
H2589 C2601 0.930 . S
H2590 C2603 0.930 . S
H2591 C2604 0.930 . S
H2592 C2608 0.959 . S
H2593 C2608 0.959 . S
H2594 C2608 0.961 . S
H2595 C2609 0.960 . S
H2596 C2609 0.961 . S
H2597 C2609 0.959 . S
H2598 C2612 0.929 . S
H2599 C2613 0.931 . S
H2600 C2615 0.930 . S
C2601 H2589 0.930 . S
C2601 C2602 1.399 . S
C2601 C2606 1.399 . S
C2602 C2601 1.399 . S
C2602 C2603 1.376 . S
C2603 H2590 0.930 . S
C2603 C2602 1.376 . S
C2603 C2604 1.388 . S
C2604 H2591 0.930 . S
C2604 C2603 1.388 . S
C2604 C2605 1.390 . S
C2605 C2604 1.390 . S
C2605 C2606 1.394 . S
C2605 C2611 1.465 . S
C2606 C2601 1.399 . S
C2606 C2605 1.394 . S
C2606 C2607 1.516 . S
C2607 C2606 1.516 . S
C2607 C2608 1.502 . S
C2607 C2609 1.561 . S
C2607 C2610 1.526 . S
C2608 H2592 0.959 . S
C2608 H2593 0.959 . S
C2608 H2594 0.961 . S
C2608 C2607 1.502 . S
C2609 H2595 0.960 . S
C2609 H2596 0.961 . S
C2609 H2597 0.959 . S
C2609 C2607 1.561 . S
C2610 C2607 1.526 . S
C2610 C2611 1.396 . S
C2610 C2615 1.390 . S
C2611 C2605 1.465 . S
C2611 C2610 1.396 . S
C2611 C2612 1.399 . S
C2612 H2598 0.929 . S
C2612 C2611 1.399 . S
C2612 C2613 1.385 . S
C2613 H2599 0.931 . S
C2613 C2612 1.385 . S
C2613 C2614 1.389 . S
C2614 C2613 1.389 . S
C2614 C2615 1.387 . S
C2615 H2600 0.930 . S
C2615 C2610 1.390 . S
C2615 C2614 1.387 . S
H2616 C2628 0.930 . S
H2617 C2630 0.930 . S
H2618 C2631 0.930 . S
H2619 C2635 0.959 . S
H2620 C2635 0.959 . S
H2621 C2635 0.961 . S
H2622 C2636 0.960 . S
H2623 C2636 0.961 . S
H2624 C2636 0.959 . S
H2625 C2639 0.929 . S
H2626 C2640 0.931 . S
H2627 C2642 0.930 . S
C2628 H2616 0.930 . S
C2628 C2629 1.399 . S
C2628 C2633 1.399 . S
C2629 C2628 1.399 . S
C2629 C2630 1.376 . S
C2630 H2617 0.930 . S
C2630 C2629 1.376 . S
C2630 C2631 1.388 . S
C2631 H2618 0.930 . S
C2631 C2630 1.388 . S
C2631 C2632 1.390 . S
C2632 C2631 1.390 . S
C2632 C2633 1.394 . S
C2632 C2638 1.465 . S
C2633 C2628 1.399 . S
C2633 C2632 1.394 . S
C2633 C2634 1.516 . S
C2634 C2633 1.516 . S
C2634 C2635 1.502 . S
C2634 C2636 1.561 . S
C2634 C2637 1.526 . S
C2635 H2619 0.959 . S
C2635 H2620 0.959 . S
C2635 H2621 0.961 . S
C2635 C2634 1.502 . S
C2636 H2622 0.960 . S
C2636 H2623 0.961 . S
C2636 H2624 0.959 . S
C2636 C2634 1.561 . S
C2637 C2634 1.526 . S
C2637 C2638 1.396 . S
C2637 C2642 1.390 . S
C2638 C2632 1.465 . S
C2638 C2637 1.396 . S
C2638 C2639 1.399 . S
C2639 H2625 0.929 . S
C2639 C2638 1.399 . S
C2639 C2640 1.385 . S
C2640 H2626 0.931 . S
C2640 C2639 1.385 . S
C2640 C2641 1.389 . S
C2641 C2640 1.389 . S
C2641 C2642 1.387 . S
C2642 H2627 0.930 . S
C2642 C2637 1.390 . S
C2642 C2641 1.387 . S
H2643 C2655 0.930 . S
H2644 C2657 0.930 . S
H2645 C2658 0.930 . S
H2646 C2662 0.959 . S
H2647 C2662 0.959 . S
H2648 C2662 0.961 . S
H2649 C2663 0.960 . S
H2650 C2663 0.961 . S
H2651 C2663 0.959 . S
H2652 C2666 0.929 . S
H2653 C2667 0.931 . S
H2654 C2669 0.930 . S
C2655 H2643 0.930 . S
C2655 C2656 1.399 . S
C2655 C2660 1.399 . S
C2656 C2655 1.399 . S
C2656 C2657 1.376 . S
C2657 H2644 0.930 . S
C2657 C2656 1.376 . S
C2657 C2658 1.388 . S
C2658 H2645 0.930 . S
C2658 C2657 1.388 . S
C2658 C2659 1.390 . S
C2659 C2658 1.390 . S
C2659 C2660 1.394 . S
C2659 C2665 1.465 . S
C2660 C2655 1.399 . S
C2660 C2659 1.394 . S
C2660 C2661 1.516 . S
C2661 C2660 1.516 . S
C2661 C2662 1.502 . S
C2661 C2663 1.561 . S
C2661 C2664 1.526 . S
C2662 H2646 0.959 . S
C2662 H2647 0.959 . S
C2662 H2648 0.961 . S
C2662 C2661 1.502 . S
C2663 H2649 0.960 . S
C2663 H2650 0.961 . S
C2663 H2651 0.959 . S
C2663 C2661 1.561 . S
C2664 C2661 1.526 . S
C2664 C2665 1.396 . S
C2664 C2669 1.390 . S
C2665 C2659 1.465 . S
C2665 C2664 1.396 . S
C2665 C2666 1.399 . S
C2666 H2652 0.929 . S
C2666 C2665 1.399 . S
C2666 C2667 1.385 . S
C2667 H2653 0.931 . S
C2667 C2666 1.385 . S
C2667 C2668 1.389 . S
C2668 C2667 1.389 . S
C2668 C2669 1.387 . S
C2669 H2654 0.930 . S
C2669 C2664 1.390 . S
C2669 C2668 1.387 . S
H2670 C2682 0.930 . S
H2671 C2684 0.930 . S
H2672 C2685 0.930 . S
H2673 C2689 0.959 . S
H2674 C2689 0.959 . S
H2675 C2689 0.961 . S
H2676 C2690 0.960 . S
H2677 C2690 0.961 . S
H2678 C2690 0.959 1_455 S
H2679 C2693 0.929 . S
H2680 C2694 0.931 . S
H2681 C2696 0.930 . S
C2682 H2670 0.930 . S
C2682 C2683 1.399 1_655 S
C2682 C2687 1.399 . S
C2683 C2682 1.399 1_455 S
C2683 C2684 1.376 . S
C2684 H2671 0.930 . S
C2684 C2683 1.376 . S
C2684 C2685 1.388 . S
C2685 H2672 0.930 . S
C2685 C2684 1.388 . S
C2685 C2686 1.390 . S
C2686 C2685 1.390 . S
C2686 C2687 1.394 1_455 S
C2686 C2692 1.465 . S
C2687 C2682 1.399 . S
C2687 C2686 1.394 1_655 S
C2687 C2688 1.516 . S
C2688 C2687 1.516 . S
C2688 C2689 1.502 . S
C2688 C2690 1.561 . S
C2688 C2691 1.526 . S
C2689 H2673 0.959 . S
C2689 H2674 0.959 . S
C2689 H2675 0.961 . S
C2689 C2688 1.502 . S
C2690 H2676 0.960 . S
C2690 H2677 0.961 . S
C2690 H2678 0.959 1_655 S
C2690 C2688 1.561 . S
C2691 C2688 1.526 . S
C2691 C2692 1.396 1_655 S
C2691 C2696 1.390 . S
C2692 C2686 1.465 . S
C2692 C2691 1.396 1_455 S
C2692 C2693 1.399 . S
C2693 H2679 0.929 . S
C2693 C2692 1.399 . S
C2693 C2694 1.385 . S
C2694 H2680 0.931 . S
C2694 C2693 1.385 . S
C2694 C2695 1.389 1_455 S
C2695 C2694 1.389 1_655 S
C2695 C2696 1.387 . S
C2696 H2681 0.930 . S
C2696 C2691 1.390 . S
C2696 C2695 1.387 . S
H2697 C2709 0.930 . S
H2698 C2711 0.930 . S
H2699 C2712 0.930 . S
H2700 C2716 0.959 . S
H2701 C2716 0.959 . S
H2702 C2716 0.961 . S
H2703 C2717 0.960 . S
H2704 C2717 0.961 . S
H2705 C2717 0.959 . S
H2706 C2720 0.929 . S
H2707 C2721 0.931 . S
H2708 C2723 0.930 . S
C2709 H2697 0.930 . S
C2709 C2710 1.399 . S
C2709 C2714 1.399 . S
C2710 C2709 1.399 . S
C2710 C2711 1.376 . S
C2711 H2698 0.930 . S
C2711 C2710 1.376 . S
C2711 C2712 1.388 . S
C2712 H2699 0.930 . S
C2712 C2711 1.388 . S
C2712 C2713 1.390 . S
C2713 C2712 1.390 . S
C2713 C2714 1.394 . S
C2713 C2719 1.465 . S
C2714 C2709 1.399 . S
C2714 C2713 1.394 . S
C2714 C2715 1.516 . S
C2715 C2714 1.516 . S
C2715 C2716 1.502 . S
C2715 C2717 1.561 . S
C2715 C2718 1.526 . S
C2716 H2700 0.959 . S
C2716 H2701 0.959 . S
C2716 H2702 0.961 . S
C2716 C2715 1.502 . S
C2717 H2703 0.960 . S
C2717 H2704 0.961 . S
C2717 H2705 0.959 . S
C2717 C2715 1.561 . S
C2718 C2715 1.526 . S
C2718 C2719 1.396 . S
C2718 C2723 1.390 . S
C2719 C2713 1.465 . S
C2719 C2718 1.396 . S
C2719 C2720 1.399 . S
C2720 H2706 0.929 . S
C2720 C2719 1.399 . S
C2720 C2721 1.385 . S
C2721 H2707 0.931 . S
C2721 C2720 1.385 . S
C2721 C2722 1.389 . S
C2722 C2721 1.389 . S
C2722 C2723 1.387 . S
C2723 H2708 0.930 . S
C2723 C2718 1.390 . S
C2723 C2722 1.387 . S
H2724 C2736 0.930 . S
H2725 C2738 0.930 . S
H2726 C2739 0.930 . S
H2727 C2743 0.959 . S
H2728 C2743 0.959 . S
H2729 C2743 0.961 . S
H2730 C2744 0.960 . S
H2731 C2744 0.961 . S
H2732 C2744 0.959 . S
H2733 C2747 0.929 . S
H2734 C2748 0.931 . S
H2735 C2750 0.930 . S
C2736 H2724 0.930 . S
C2736 C2737 1.399 . S
C2736 C2741 1.399 . S
C2737 C2736 1.399 . S
C2737 C2738 1.376 . S
C2738 H2725 0.930 . S
C2738 C2737 1.376 . S
C2738 C2739 1.388 . S
C2739 H2726 0.930 . S
C2739 C2738 1.388 . S
C2739 C2740 1.390 . S
C2740 C2739 1.390 . S
C2740 C2741 1.394 . S
C2740 C2746 1.465 . S
C2741 C2736 1.399 . S
C2741 C2740 1.394 . S
C2741 C2742 1.516 . S
C2742 C2741 1.516 . S
C2742 C2743 1.502 . S
C2742 C2744 1.561 . S
C2742 C2745 1.526 . S
C2743 H2727 0.959 . S
C2743 H2728 0.959 . S
C2743 H2729 0.961 . S
C2743 C2742 1.502 . S
C2744 H2730 0.960 . S
C2744 H2731 0.961 . S
C2744 H2732 0.959 . S
C2744 C2742 1.561 . S
C2745 C2742 1.526 . S
C2745 C2746 1.396 . S
C2745 C2750 1.390 . S
C2746 C2740 1.465 . S
C2746 C2745 1.396 . S
C2746 C2747 1.399 . S
C2747 H2733 0.929 . S
C2747 C2746 1.399 . S
C2747 C2748 1.385 . S
C2748 H2734 0.931 . S
C2748 C2747 1.385 . S
C2748 C2749 1.389 . S
C2749 C2748 1.389 . S
C2749 C2750 1.387 . S
C2750 H2735 0.930 . S
C2750 C2745 1.390 . S
C2750 C2749 1.387 . S
H2751 C2763 0.930 . S
H2752 C2765 0.930 . S
H2753 C2766 0.930 . S
H2754 C2770 0.959 . S
H2755 C2770 0.959 . S
H2756 C2770 0.961 . S
H2757 C2771 0.960 . S
H2758 C2771 0.961 . S
H2759 C2771 0.959 . S
H2760 C2774 0.929 . S
H2761 C2775 0.931 . S
H2762 C2777 0.930 . S
C2763 H2751 0.930 . S
C2763 C2764 1.399 . S
C2763 C2768 1.399 . S
C2764 C2763 1.399 . S
C2764 C2765 1.376 . S
C2765 H2752 0.930 . S
C2765 C2764 1.376 . S
C2765 C2766 1.388 . S
C2766 H2753 0.930 . S
C2766 C2765 1.388 . S
C2766 C2767 1.390 . S
C2767 C2766 1.390 . S
C2767 C2768 1.394 . S
C2767 C2773 1.465 . S
C2768 C2763 1.399 . S
C2768 C2767 1.394 . S
C2768 C2769 1.516 . S
C2769 C2768 1.516 . S
C2769 C2770 1.502 . S
C2769 C2771 1.561 . S
C2769 C2772 1.526 . S
C2770 H2754 0.959 . S
C2770 H2755 0.959 . S
C2770 H2756 0.961 . S
C2770 C2769 1.502 . S
C2771 H2757 0.960 . S
C2771 H2758 0.961 . S
C2771 H2759 0.959 . S
C2771 C2769 1.561 . S
C2772 C2769 1.526 . S
C2772 C2773 1.396 . S
C2772 C2777 1.390 . S
C2773 C2767 1.465 . S
C2773 C2772 1.396 . S
C2773 C2774 1.399 . S
C2774 H2760 0.929 . S
C2774 C2773 1.399 . S
C2774 C2775 1.385 . S
C2775 H2761 0.931 . S
C2775 C2774 1.385 . S
C2775 C2776 1.389 . S
C2776 C2775 1.389 . S
C2776 C2777 1.387 . S
C2777 H2762 0.930 . S
C2777 C2772 1.390 . S
C2777 C2776 1.387 . S
H2778 C2790 0.951 . S
H2779 C2792 0.930 . S
H2780 C2793 0.930 . S
H2781 C2797 0.959 . S
H2782 C2797 0.959 . S
H2783 C2797 0.961 . S
H2784 C2798 0.960 . S
H2785 C2798 0.961 1_655 S
H2786 C2798 0.959 . S
H2787 C2801 0.929 . S
H2788 C2802 0.931 . S
H2789 C2804 0.930 . S
C2790 H2778 0.951 . S
C2790 C2791 1.378 1_655 S
C2790 C2795 1.399 . S
C2791 C2790 1.378 1_455 S
C2791 C2792 1.376 . S
C2792 H2779 0.930 . S
C2792 C2791 1.376 . S
C2792 C2793 1.388 . S
C2793 H2780 0.930 . S
C2793 C2792 1.388 . S
C2793 C2794 1.390 . S
C2794 C2793 1.390 . S
C2794 C2795 1.385 1_455 S
C2794 C2800 1.465 . S
C2795 C2790 1.399 . S
C2795 C2794 1.385 1_655 S
C2795 C2796 1.525 . S
C2796 C2795 1.525 . S
C2796 C2797 1.502 . S
C2796 C2798 1.561 1_655 S
C2796 C2799 1.526 . S
C2797 H2781 0.959 . S
C2797 H2782 0.959 . S
C2797 H2783 0.961 . S
C2797 C2796 1.502 . S
C2798 H2784 0.960 . S
C2798 H2785 0.961 1_455 S
C2798 H2786 0.959 . S
C2798 C2796 1.561 1_455 S
C2799 C2796 1.526 . S
C2799 C2800 1.396 1_655 S
C2799 C2804 1.390 . S
C2800 C2794 1.465 . S
C2800 C2799 1.396 1_455 S
C2800 C2801 1.399 . S
C2801 H2787 0.929 . S
C2801 C2800 1.399 . S
C2801 C2802 1.385 . S
C2802 H2788 0.931 . S
C2802 C2801 1.385 . S
C2802 C2803 1.389 1_455 S
C2803 C2802 1.389 1_655 S
C2803 C2804 1.387 . S
C2804 H2789 0.930 . S
C2804 C2799 1.390 . S
C2804 C2803 1.387 . S
H2805 C2817 0.930 . S
H2806 C2819 0.930 . S
H2807 C2820 0.930 . S
H2808 C2824 0.959 . S
H2809 C2824 0.959 . S
H2810 C2824 0.961 . S
H2811 C2825 0.960 . S
H2812 C2825 0.961 . S
H2813 C2825 0.959 . S
H2814 C2828 0.929 . S
H2815 C2829 0.931 . S
H2816 C2831 0.930 . S
C2817 H2805 0.930 . S
C2817 C2818 1.399 . S
C2817 C2822 1.399 . S
C2818 C2817 1.399 . S
C2818 C2819 1.376 . S
C2819 H2806 0.930 . S
C2819 C2818 1.376 . S
C2819 C2820 1.388 . S
C2820 H2807 0.930 . S
C2820 C2819 1.388 . S
C2820 C2821 1.390 . S
C2821 C2820 1.390 . S
C2821 C2822 1.394 . S
C2821 C2827 1.465 . S
C2822 C2817 1.399 . S
C2822 C2821 1.394 . S
C2822 C2823 1.516 . S
C2823 C2822 1.516 . S
C2823 C2824 1.502 . S
C2823 C2825 1.561 . S
C2823 C2826 1.526 . S
C2824 H2808 0.959 . S
C2824 H2809 0.959 . S
C2824 H2810 0.961 . S
C2824 C2823 1.502 . S
C2825 H2811 0.960 . S
C2825 H2812 0.961 . S
C2825 H2813 0.959 . S
C2825 C2823 1.561 . S
C2826 C2823 1.526 . S
C2826 C2827 1.396 . S
C2826 C2831 1.390 . S
C2827 C2821 1.465 . S
C2827 C2826 1.396 . S
C2827 C2828 1.399 . S
C2828 H2814 0.929 . S
C2828 C2827 1.399 . S
C2828 C2829 1.385 . S
C2829 H2815 0.931 . S
C2829 C2828 1.385 . S
C2829 C2830 1.389 . S
C2830 C2829 1.389 . S
C2830 C2831 1.387 . S
C2831 H2816 0.930 . S
C2831 C2826 1.390 . S
C2831 C2830 1.387 . S
H2832 C2844 0.930 . S
H2833 C2846 0.930 . S
H2834 C2847 0.930 . S
H2835 C2851 0.959 . S
H2836 C2851 0.959 . S
H2837 C2851 0.961 . S
H2838 C2852 0.960 . S
H2839 C2852 0.961 . S
H2840 C2852 0.959 . S
H2841 C2855 0.929 . S
H2842 C2856 0.931 . S
H2843 C2858 0.930 . S
C2844 H2832 0.930 . S
C2844 C2845 1.399 . S
C2844 C2849 1.399 . S
C2845 C2844 1.399 . S
C2845 C2846 1.376 . S
C2846 H2833 0.930 . S
C2846 C2845 1.376 . S
C2846 C2847 1.388 . S
C2847 H2834 0.930 . S
C2847 C2846 1.388 . S
C2847 C2848 1.390 . S
C2848 C2847 1.390 . S
C2848 C2849 1.394 . S
C2848 C2854 1.465 . S
C2849 C2844 1.399 . S
C2849 C2848 1.394 . S
C2849 C2850 1.516 . S
C2850 C2849 1.516 . S
C2850 C2851 1.502 . S
C2850 C2852 1.561 . S
C2850 C2853 1.526 . S
C2851 H2835 0.959 . S
C2851 H2836 0.959 . S
C2851 H2837 0.961 . S
C2851 C2850 1.502 . S
C2852 H2838 0.960 . S
C2852 H2839 0.961 . S
C2852 H2840 0.959 . S
C2852 C2850 1.561 . S
C2853 C2850 1.526 . S
C2853 C2854 1.396 . S
C2853 C2858 1.390 . S
C2854 C2848 1.465 . S
C2854 C2853 1.396 . S
C2854 C2855 1.399 . S
C2855 H2841 0.929 . S
C2855 C2854 1.399 . S
C2855 C2856 1.385 . S
C2856 H2842 0.931 . S
C2856 C2855 1.385 . S
C2856 C2857 1.389 . S
C2857 C2856 1.389 . S
C2857 C2858 1.387 . S
C2858 H2843 0.930 . S
C2858 C2853 1.390 . S
C2858 C2857 1.387 . S
H2859 C2871 0.930 . S
H2860 C2873 0.930 . S
H2861 C2874 0.930 . S
H2862 C2878 0.959 . S
H2863 C2878 0.959 . S
H2864 C2878 0.961 . S
H2865 C2879 0.960 . S
H2866 C2879 0.961 . S
H2867 C2879 0.959 . S
H2868 C2882 0.929 . S
H2869 C2883 0.931 . S
H2870 C2885 0.930 . S
C2871 H2859 0.930 . S
C2871 C2872 1.399 . S
C2871 C2876 1.399 . S
C2872 C2871 1.399 . S
C2872 C2873 1.376 . S
C2873 H2860 0.930 . S
C2873 C2872 1.376 . S
C2873 C2874 1.388 . S
C2874 H2861 0.930 . S
C2874 C2873 1.388 . S
C2874 C2875 1.390 . S
C2875 C2874 1.390 . S
C2875 C2876 1.394 . S
C2875 C2881 1.465 . S
C2876 C2871 1.399 . S
C2876 C2875 1.394 . S
C2876 C2877 1.516 . S
C2877 C2876 1.516 . S
C2877 C2878 1.502 . S
C2877 C2879 1.561 . S
C2877 C2880 1.526 . S
C2878 H2862 0.959 . S
C2878 H2863 0.959 . S
C2878 H2864 0.961 . S
C2878 C2877 1.502 . S
C2879 H2865 0.960 . S
C2879 H2866 0.961 . S
C2879 H2867 0.959 . S
C2879 C2877 1.561 . S
C2880 C2877 1.526 . S
C2880 C2881 1.396 . S
C2880 C2885 1.390 . S
C2881 C2875 1.465 . S
C2881 C2880 1.396 . S
C2881 C2882 1.399 . S
C2882 H2868 0.929 . S
C2882 C2881 1.399 . S
C2882 C2883 1.385 . S
C2883 H2869 0.931 . S
C2883 C2882 1.385 . S
C2883 C2884 1.389 . S
C2884 C2883 1.389 . S
C2884 C2885 1.387 . S
C2885 H2870 0.930 . S
C2885 C2880 1.390 . S
C2885 C2884 1.387 . S
H2886 C2898 0.930 . S
H2887 C2900 0.930 . S
H2888 C2901 0.930 . S
H2889 C2905 0.959 . S
H2890 C2905 0.959 . S
H2891 C2905 0.961 . S
H2892 C2906 0.960 . S
H2893 C2906 0.961 . S
H2894 C2906 0.959 . S
H2895 C2909 0.929 . S
H2896 C2910 0.931 . S
H2897 C2912 0.930 . S
C2898 H2886 0.930 . S
C2898 C2899 1.399 . S
C2898 C2903 1.399 . S
C2899 C2898 1.399 . S
C2899 C2900 1.376 . S
C2900 H2887 0.930 . S
C2900 C2899 1.376 . S
C2900 C2901 1.388 . S
C2901 H2888 0.930 . S
C2901 C2900 1.388 . S
C2901 C2902 1.390 . S
C2902 C2901 1.390 . S
C2902 C2903 1.394 . S
C2902 C2908 1.465 . S
C2903 C2898 1.399 . S
C2903 C2902 1.394 . S
C2903 C2904 1.516 . S
C2904 C2903 1.516 . S
C2904 C2905 1.502 . S
C2904 C2906 1.561 . S
C2904 C2907 1.526 . S
C2905 H2889 0.959 . S
C2905 H2890 0.959 . S
C2905 H2891 0.961 . S
C2905 C2904 1.502 . S
C2906 H2892 0.960 . S
C2906 H2893 0.961 . S
C2906 H2894 0.959 . S
C2906 C2904 1.561 . S
C2907 C2904 1.526 . S
C2907 C2908 1.396 . S
C2907 C2912 1.390 . S
C2908 C2902 1.465 . S
C2908 C2907 1.396 . S
C2908 C2909 1.399 . S
C2909 H2895 0.929 . S
C2909 C2908 1.399 . S
C2909 C2910 1.385 . S
C2910 H2896 0.931 . S
C2910 C2909 1.385 . S
C2910 C2911 1.389 . S
C2911 C2910 1.389 . S
C2911 C2912 1.387 . S
C2912 H2897 0.930 . S
C2912 C2907 1.390 . S
C2912 C2911 1.387 . S
H2913 C2925 0.930 . S
H2914 C2927 0.930 . S
H2915 C2928 0.930 . S
H2916 C2932 0.959 . S
H2917 C2932 0.959 . S
H2918 C2932 0.961 . S
H2919 C2933 0.960 . S
H2920 C2933 0.961 . S
H2921 C2933 0.959 . S
H2922 C2936 0.929 . S
H2923 C2937 0.931 . S
H2924 C2939 0.930 . S
C2925 H2913 0.930 . S
C2925 C2926 1.399 . S
C2925 C2930 1.399 . S
C2926 C2925 1.399 . S
C2926 C2927 1.376 . S
C2927 H2914 0.930 . S
C2927 C2926 1.376 . S
C2927 C2928 1.388 . S
C2928 H2915 0.930 . S
C2928 C2927 1.388 . S
C2928 C2929 1.390 . S
C2929 C2928 1.390 . S
C2929 C2930 1.394 . S
C2929 C2935 1.465 . S
C2930 C2925 1.399 . S
C2930 C2929 1.394 . S
C2930 C2931 1.516 . S
C2931 C2930 1.516 . S
C2931 C2932 1.502 . S
C2931 C2933 1.561 . S
C2931 C2934 1.526 . S
C2932 H2916 0.959 . S
C2932 H2917 0.959 . S
C2932 H2918 0.961 . S
C2932 C2931 1.502 . S
C2933 H2919 0.960 . S
C2933 H2920 0.961 . S
C2933 H2921 0.959 . S
C2933 C2931 1.561 . S
C2934 C2931 1.526 . S
C2934 C2935 1.396 . S
C2934 C2939 1.390 . S
C2935 C2929 1.465 . S
C2935 C2934 1.396 . S
C2935 C2936 1.399 . S
C2936 H2922 0.929 . S
C2936 C2935 1.399 . S
C2936 C2937 1.385 . S
C2937 H2923 0.931 . S
C2937 C2936 1.385 . S
C2937 C2938 1.389 . S
C2938 C2937 1.389 . S
C2938 C2939 1.387 . S
C2939 H2924 0.930 . S
C2939 C2934 1.390 . S
C2939 C2938 1.387 . S
H2940 C2952 0.930 . S
H2941 C2954 0.930 . S
H2942 C2955 0.930 . S
H2943 C2959 0.959 . S
H2944 C2959 0.959 . S
H2945 C2959 0.961 . S
H2946 C2960 0.960 . S
H2947 C2960 0.961 . S
H2948 C2960 0.959 . S
H2949 C2963 0.929 . S
H2950 C2964 0.931 . S
H2951 C2966 0.930 . S
C2952 H2940 0.930 . S
C2952 C2953 1.399 . S
C2952 C2957 1.399 . S
C2953 C2952 1.399 . S
C2953 C2954 1.376 . S
C2954 H2941 0.930 . S
C2954 C2953 1.376 . S
C2954 C2955 1.388 . S
C2955 H2942 0.930 . S
C2955 C2954 1.388 . S
C2955 C2956 1.390 . S
C2956 C2955 1.390 . S
C2956 C2957 1.394 . S
C2956 C2962 1.465 . S
C2957 C2952 1.399 . S
C2957 C2956 1.394 . S
C2957 C2958 1.516 . S
C2958 C2957 1.516 . S
C2958 C2959 1.502 . S
C2958 C2960 1.561 . S
C2958 C2961 1.526 . S
C2959 H2943 0.959 . S
C2959 H2944 0.959 . S
C2959 H2945 0.961 . S
C2959 C2958 1.502 . S
C2960 H2946 0.960 . S
C2960 H2947 0.961 . S
C2960 H2948 0.959 . S
C2960 C2958 1.561 . S
C2961 C2958 1.526 . S
C2961 C2962 1.396 . S
C2961 C2966 1.390 . S
C2962 C2956 1.465 . S
C2962 C2961 1.396 . S
C2962 C2963 1.399 . S
C2963 H2949 0.929 . S
C2963 C2962 1.399 . S
C2963 C2964 1.385 . S
C2964 H2950 0.931 . S
C2964 C2963 1.385 . S
C2964 C2965 1.389 . S
C2965 C2964 1.389 . S
C2965 C2966 1.387 . S
C2966 H2951 0.930 . S
C2966 C2961 1.390 . S
C2966 C2965 1.387 . S
H2967 C2979 0.930 . S
H2968 C2981 0.930 . S
H2969 C2982 0.930 . S
H2970 C2986 0.959 . S
H2971 C2986 0.959 . S
H2972 C2986 0.961 . S
H2973 C2987 0.960 . S
H2974 C2987 0.961 . S
H2975 C2987 0.959 . S
H2976 C2990 0.929 . S
H2977 C2991 0.931 . S
H2978 C2993 0.930 . S
C2979 H2967 0.930 . S
C2979 C2980 1.399 . S
C2979 C2984 1.399 . S
C2980 C2979 1.399 . S
C2980 C2981 1.376 . S
C2981 H2968 0.930 . S
C2981 C2980 1.376 . S
C2981 C2982 1.388 . S
C2982 H2969 0.930 . S
C2982 C2981 1.388 . S
C2982 C2983 1.390 . S
C2983 C2982 1.390 . S
C2983 C2984 1.394 . S
C2983 C2989 1.465 . S
C2984 C2979 1.399 . S
C2984 C2983 1.394 . S
C2984 C2985 1.516 . S
C2985 C2984 1.516 . S
C2985 C2986 1.502 . S
C2985 C2987 1.561 . S
C2985 C2988 1.526 . S
C2986 H2970 0.959 . S
C2986 H2971 0.959 . S
C2986 H2972 0.961 . S
C2986 C2985 1.502 . S
C2987 H2973 0.960 . S
C2987 H2974 0.961 . S
C2987 H2975 0.959 . S
C2987 C2985 1.561 . S
C2988 C2985 1.526 . S
C2988 C2989 1.396 . S
C2988 C2993 1.390 . S
C2989 C2983 1.465 . S
C2989 C2988 1.396 . S
C2989 C2990 1.399 . S
C2990 H2976 0.929 . S
C2990 C2989 1.399 . S
C2990 C2991 1.385 . S
C2991 H2977 0.931 . S
C2991 C2990 1.385 . S
C2991 C2992 1.389 . S
C2992 C2991 1.389 . S
C2992 C2993 1.387 . S
C2993 H2978 0.930 . S
C2993 C2988 1.390 . S
C2993 C2992 1.387 . S
H2994 C3006 0.930 . S
H2995 C3008 0.930 . S
H2996 C3009 0.930 . S
H2997 C3013 0.959 . S
H2998 C3013 0.959 . S
H2999 C3013 0.961 . S
H3000 C3014 0.960 . S
H3001 C3014 0.961 . S
H3002 C3014 0.959 . S
H3003 C3017 0.929 . S
H3004 C3018 0.931 . S
H3005 C3020 0.930 . S
C3006 H2994 0.930 . S
C3006 C3007 1.399 . S
C3006 C3011 1.399 . S
C3007 C3006 1.399 . S
C3007 C3008 1.376 . S
C3008 H2995 0.930 . S
C3008 C3007 1.376 . S
C3008 C3009 1.388 . S
C3009 H2996 0.930 . S
C3009 C3008 1.388 . S
C3009 C3010 1.390 . S
C3010 C3009 1.390 . S
C3010 C3011 1.394 . S
C3010 C3016 1.465 . S
C3011 C3006 1.399 . S
C3011 C3010 1.394 . S
C3011 C3012 1.516 . S
C3012 C3011 1.516 . S
C3012 C3013 1.502 . S
C3012 C3014 1.561 . S
C3012 C3015 1.526 . S
C3013 H2997 0.959 . S
C3013 H2998 0.959 . S
C3013 H2999 0.961 . S
C3013 C3012 1.502 . S
C3014 H3000 0.960 . S
C3014 H3001 0.961 . S
C3014 H3002 0.959 . S
C3014 C3012 1.561 . S
C3015 C3012 1.526 . S
C3015 C3016 1.396 . S
C3015 C3020 1.390 . S
C3016 C3010 1.465 . S
C3016 C3015 1.396 . S
C3016 C3017 1.399 . S
C3017 H3003 0.929 . S
C3017 C3016 1.399 . S
C3017 C3018 1.385 . S
C3018 H3004 0.931 . S
C3018 C3017 1.385 . S
C3018 C3019 1.389 . S
C3019 C3018 1.389 . S
C3019 C3020 1.387 . S
C3020 H3005 0.930 . S
C3020 C3015 1.390 . S
C3020 C3019 1.387 . S
H3021 C3033 0.930 . S
H3022 C3035 0.930 . S
H3023 C3036 0.930 . S
H3024 C3040 0.959 . S
H3025 C3040 0.959 . S
H3026 C3040 0.961 . S
H3027 C3041 0.960 . S
H3028 C3041 0.961 . S
H3029 C3041 0.959 . S
H3030 C3044 0.929 . S
H3031 C3045 0.931 . S
H3032 C3047 0.930 . S
C3033 H3021 0.930 . S
C3033 C3034 1.399 . S
C3033 C3038 1.399 . S
C3034 C3033 1.399 . S
C3034 C3035 1.376 . S
C3035 H3022 0.930 . S
C3035 C3034 1.376 . S
C3035 C3036 1.388 . S
C3036 H3023 0.930 . S
C3036 C3035 1.388 . S
C3036 C3037 1.390 . S
C3037 C3036 1.390 . S
C3037 C3038 1.394 . S
C3037 C3043 1.465 . S
C3038 C3033 1.399 . S
C3038 C3037 1.394 . S
C3038 C3039 1.516 . S
C3039 C3038 1.516 . S
C3039 C3040 1.502 . S
C3039 C3041 1.561 . S
C3039 C3042 1.526 . S
C3040 H3024 0.959 . S
C3040 H3025 0.959 . S
C3040 H3026 0.961 . S
C3040 C3039 1.502 . S
C3041 H3027 0.960 . S
C3041 H3028 0.961 . S
C3041 H3029 0.959 . S
C3041 C3039 1.561 . S
C3042 C3039 1.526 . S
C3042 C3043 1.396 . S
C3042 C3047 1.390 . S
C3043 C3037 1.465 . S
C3043 C3042 1.396 . S
C3043 C3044 1.399 . S
C3044 H3030 0.929 . S
C3044 C3043 1.399 . S
C3044 C3045 1.385 . S
C3045 H3031 0.931 . S
C3045 C3044 1.385 . S
C3045 C3046 1.389 . S
C3046 C3045 1.389 . S
C3046 C3047 1.387 . S
C3047 H3032 0.930 . S
C3047 C3042 1.390 . S
C3047 C3046 1.387 . S
H3048 C3060 0.930 . S
H3049 C3062 0.930 . S
H3050 C3063 0.930 . S
H3051 C3067 0.959 . S
H3052 C3067 0.959 . S
H3053 C3067 0.961 . S
H3054 C3068 0.960 . S
H3055 C3068 0.961 . S
H3056 C3068 0.959 . S
H3057 C3071 0.929 . S
H3058 C3072 0.931 . S
H3059 C3074 0.930 . S
C3060 H3048 0.930 . S
C3060 C3061 1.399 . S
C3060 C3065 1.399 . S
C3061 C3060 1.399 . S
C3061 C3062 1.376 . S
C3062 H3049 0.930 . S
C3062 C3061 1.376 . S
C3062 C3063 1.388 . S
C3063 H3050 0.930 . S
C3063 C3062 1.388 . S
C3063 C3064 1.390 . S
C3064 C3063 1.390 . S
C3064 C3065 1.394 . S
C3064 C3070 1.465 . S
C3065 C3060 1.399 . S
C3065 C3064 1.394 . S
C3065 C3066 1.516 . S
C3066 C3065 1.516 . S
C3066 C3067 1.502 . S
C3066 C3068 1.561 . S
C3066 C3069 1.526 . S
C3067 H3051 0.959 . S
C3067 H3052 0.959 . S
C3067 H3053 0.961 . S
C3067 C3066 1.502 . S
C3068 H3054 0.960 . S
C3068 H3055 0.961 . S
C3068 H3056 0.959 . S
C3068 C3066 1.561 . S
C3069 C3066 1.526 . S
C3069 C3070 1.396 . S
C3069 C3074 1.390 . S
C3070 C3064 1.465 . S
C3070 C3069 1.396 . S
C3070 C3071 1.399 . S
C3071 H3057 0.929 . S
C3071 C3070 1.399 . S
C3071 C3072 1.385 . S
C3072 H3058 0.931 . S
C3072 C3071 1.385 . S
C3072 C3073 1.389 . S
C3073 C3072 1.389 . S
C3073 C3074 1.387 . S
C3074 H3059 0.930 . S
C3074 C3069 1.390 . S
C3074 C3073 1.387 . S
H3075 C3087 0.930 . S
H3076 C3089 0.930 . S
H3077 C3090 0.930 . S
H3078 C3094 0.959 . S
H3079 C3094 0.959 . S
H3080 C3094 0.961 . S
H3081 C3095 0.960 . S
H3082 C3095 0.961 . S
H3083 C3095 0.959 . S
H3084 C3098 0.929 . S
H3085 C3099 0.931 . S
H3086 C3101 0.930 . S
C3087 H3075 0.930 . S
C3087 C3088 1.399 . S
C3087 C3092 1.399 . S
C3088 C3087 1.399 . S
C3088 C3089 1.376 . S
C3089 H3076 0.930 . S
C3089 C3088 1.376 . S
C3089 C3090 1.388 . S
C3090 H3077 0.930 . S
C3090 C3089 1.388 . S
C3090 C3091 1.390 . S
C3091 C3090 1.390 . S
C3091 C3092 1.394 . S
C3091 C3097 1.465 . S
C3092 C3087 1.399 . S
C3092 C3091 1.394 . S
C3092 C3093 1.516 . S
C3093 C3092 1.516 . S
C3093 C3094 1.502 . S
C3093 C3095 1.561 . S
C3093 C3096 1.526 . S
C3094 H3078 0.959 . S
C3094 H3079 0.959 . S
C3094 H3080 0.961 . S
C3094 C3093 1.502 . S
C3095 H3081 0.960 . S
C3095 H3082 0.961 . S
C3095 H3083 0.959 . S
C3095 C3093 1.561 . S
C3096 C3093 1.526 . S
C3096 C3097 1.396 . S
C3096 C3101 1.390 . S
C3097 C3091 1.465 . S
C3097 C3096 1.396 . S
C3097 C3098 1.399 . S
C3098 H3084 0.929 . S
C3098 C3097 1.399 . S
C3098 C3099 1.385 . S
C3099 H3085 0.931 . S
C3099 C3098 1.385 . S
C3099 C3100 1.389 . S
C3100 C3099 1.389 . S
C3100 C3101 1.387 . S
C3101 H3086 0.930 . S
C3101 C3096 1.390 . S
C3101 C3100 1.387 . S
H3102 C3114 0.930 . S
H3103 C3116 0.930 . S
H3104 C3117 0.930 . S
H3105 C3121 0.959 . S
H3106 C3121 0.959 . S
H3107 C3121 0.961 . S
H3108 C3122 0.960 . S
H3109 C3122 0.961 . S
H3110 C3122 0.959 . S
H3111 C3125 0.929 . S
H3112 C3126 0.931 . S
H3113 C3128 0.930 . S
C3114 H3102 0.930 . S
C3114 C3115 1.399 . S
C3114 C3119 1.399 . S
C3115 C3114 1.399 . S
C3115 C3116 1.376 . S
C3116 H3103 0.930 . S
C3116 C3115 1.376 . S
C3116 C3117 1.388 . S
C3117 H3104 0.930 . S
C3117 C3116 1.388 . S
C3117 C3118 1.390 . S
C3118 C3117 1.390 . S
C3118 C3119 1.394 . S
C3118 C3124 1.465 . S
C3119 C3114 1.399 . S
C3119 C3118 1.394 . S
C3119 C3120 1.516 . S
C3120 C3119 1.516 . S
C3120 C3121 1.502 . S
C3120 C3122 1.561 . S
C3120 C3123 1.526 . S
C3121 H3105 0.959 . S
C3121 H3106 0.959 . S
C3121 H3107 0.961 . S
C3121 C3120 1.502 . S
C3122 H3108 0.960 . S
C3122 H3109 0.961 . S
C3122 H3110 0.959 . S
C3122 C3120 1.561 . S
C3123 C3120 1.526 . S
C3123 C3124 1.396 . S
C3123 C3128 1.390 . S
C3124 C3118 1.465 . S
C3124 C3123 1.396 . S
C3124 C3125 1.399 . S
C3125 H3111 0.929 . S
C3125 C3124 1.399 . S
C3125 C3126 1.385 . S
C3126 H3112 0.931 . S
C3126 C3125 1.385 . S
C3126 C3127 1.389 . S
C3127 C3126 1.389 . S
C3127 C3128 1.387 . S
C3128 H3113 0.930 . S
C3128 C3123 1.390 . S
C3128 C3127 1.387 . S
H3129 C3141 0.930 . S
H3130 C3143 0.930 . S
H3131 C3144 0.930 . S
H3132 C3148 0.959 . S
H3133 C3148 0.959 . S
H3134 C3148 0.961 . S
H3135 C3149 0.960 . S
H3136 C3149 0.961 . S
H3137 C3149 0.959 . S
H3138 C3152 0.929 . S
H3139 C3153 0.931 . S
H3140 C3155 0.930 . S
C3141 H3129 0.930 . S
C3141 C3142 1.399 . S
C3141 C3146 1.399 . S
C3142 C3141 1.399 . S
C3142 C3143 1.376 1_554 S
C3143 H3130 0.930 . S
C3143 C3142 1.376 1_556 S
C3143 C3144 1.388 . S
C3144 H3131 0.930 . S
C3144 C3143 1.388 . S
C3144 C3145 1.390 . S
C3145 C3144 1.390 . S
C3145 C3146 1.394 1_556 S
C3145 C3151 1.465 . S
C3146 C3141 1.399 . S
C3146 C3145 1.394 1_554 S
C3146 C3147 1.516 . S
C3147 C3146 1.516 . S
C3147 C3148 1.502 . S
C3147 C3149 1.561 . S
C3147 C3150 1.526 . S
C3148 H3132 0.959 . S
C3148 H3133 0.959 . S
C3148 H3134 0.961 . S
C3148 C3147 1.502 . S
C3149 H3135 0.960 . S
C3149 H3136 0.961 . S
C3149 H3137 0.959 . S
C3149 C3147 1.561 . S
C3150 C3147 1.526 . S
C3150 C3151 1.396 1_554 S
C3150 C3155 1.390 . S
C3151 C3145 1.465 . S
C3151 C3150 1.396 1_556 S
C3151 C3152 1.399 . S
C3152 H3138 0.929 . S
C3152 C3151 1.399 . S
C3152 C3153 1.385 . S
C3153 H3139 0.931 . S
C3153 C3152 1.385 . S
C3153 C3154 1.389 . S
C3154 C3153 1.389 . S
C3154 C3155 1.387 1_556 S
C3155 H3140 0.930 . S
C3155 C3150 1.390 . S
C3155 C3154 1.387 1_554 S
H3156 C3168 0.930 . S
H3157 C3170 0.930 . S
H3158 C3171 0.930 . S
H3159 C3175 0.959 . S
H3160 C3175 0.959 . S
H3161 C3175 0.961 . S
H3162 C3176 0.960 . S
H3163 C3176 0.961 . S
H3164 C3176 0.959 . S
H3165 C3179 0.929 . S
H3166 C3180 0.931 . S
H3167 C3182 0.930 . S
C3168 H3156 0.930 . S
C3168 C3169 1.399 . S
C3168 C3173 1.399 . S
C3169 C3168 1.399 . S
C3169 C3170 1.376 . S
C3170 H3157 0.930 . S
C3170 C3169 1.376 . S
C3170 C3171 1.388 . S
C3171 H3158 0.930 . S
C3171 C3170 1.388 . S
C3171 C3172 1.390 . S
C3172 C3171 1.390 . S
C3172 C3173 1.394 . S
C3172 C3178 1.465 . S
C3173 C3168 1.399 . S
C3173 C3172 1.394 . S
C3173 C3174 1.516 . S
C3174 C3173 1.516 . S
C3174 C3175 1.502 . S
C3174 C3176 1.561 . S
C3174 C3177 1.526 . S
C3175 H3159 0.959 . S
C3175 H3160 0.959 . S
C3175 H3161 0.961 . S
C3175 C3174 1.502 . S
C3176 H3162 0.960 . S
C3176 H3163 0.961 . S
C3176 H3164 0.959 . S
C3176 C3174 1.561 . S
C3177 C3174 1.526 . S
C3177 C3178 1.396 . S
C3177 C3182 1.390 . S
C3178 C3172 1.465 . S
C3178 C3177 1.396 . S
C3178 C3179 1.399 . S
C3179 H3165 0.929 . S
C3179 C3178 1.399 . S
C3179 C3180 1.385 . S
C3180 H3166 0.931 . S
C3180 C3179 1.385 . S
C3180 C3181 1.389 . S
C3181 C3180 1.389 . S
C3181 C3182 1.387 . S
C3182 H3167 0.930 . S
C3182 C3177 1.390 . S
C3182 C3181 1.387 . S
H3183 C3195 0.930 . S
H3184 C3197 0.930 . S
H3185 C3198 0.930 . S
H3186 C3202 0.959 . S
H3187 C3202 0.959 . S
H3188 C3202 0.961 . S
H3189 C3203 0.960 . S
H3190 C3203 0.961 . S
H3191 C3203 0.959 . S
H3192 C3206 0.929 . S
H3193 C3207 0.931 . S
H3194 C3209 0.930 . S
C3195 H3183 0.930 . S
C3195 C3196 1.374 1_554 S
C3195 C3200 1.399 . S
C3196 C3195 1.374 1_556 S
C3196 C3197 1.402 . S
C3197 H3184 0.930 . S
C3197 C3196 1.402 . S
C3197 C3198 1.388 . S
C3198 H3185 0.930 . S
C3198 C3197 1.388 . S
C3198 C3199 1.409 . S
C3199 C3198 1.409 . S
C3199 C3200 1.375 1_556 S
C3199 C3205 1.462 1_556 S
C3200 C3195 1.399 . S
C3200 C3199 1.375 1_554 S
C3200 C3201 1.516 . S
C3201 C3200 1.516 . S
C3201 C3202 1.502 . S
C3201 C3203 1.561 . S
C3201 C3204 1.526 . S
C3202 H3186 0.959 . S
C3202 H3187 0.959 . S
C3202 H3188 0.961 . S
C3202 C3201 1.502 . S
C3203 H3189 0.960 . S
C3203 H3190 0.961 . S
C3203 H3191 0.959 . S
C3203 C3201 1.561 . S
C3204 C3201 1.526 . S
C3204 C3205 1.396 . S
C3204 C3209 1.390 . S
C3205 C3199 1.462 1_554 S
C3205 C3204 1.396 . S
C3205 C3206 1.399 1_554 S
C3206 H3192 0.929 . S
C3206 C3205 1.399 1_556 S
C3206 C3207 1.385 . S
C3207 H3193 0.931 . S
C3207 C3206 1.385 . S
C3207 C3208 1.389 1_556 S
C3208 C3207 1.389 1_554 S
C3208 C3209 1.387 . S
C3209 H3194 0.930 . S
C3209 C3204 1.390 . S
C3209 C3208 1.387 . S
H3210 C3222 0.930 . S
H3211 C3224 0.930 . S
H3212 C3225 0.930 . S
H3213 C3229 0.959 . S
H3214 C3229 0.959 . S
H3215 C3229 0.961 . S
H3216 C3230 0.960 . S
H3217 C3230 0.961 . S
H3218 C3230 0.959 . S
H3219 C3233 0.929 . S
H3220 C3234 0.931 . S
H3221 C3236 0.930 . S
C3222 H3210 0.930 . S
C3222 C3223 1.399 . S
C3222 C3227 1.399 . S
C3223 C3222 1.399 . S
C3223 C3224 1.376 . S
C3224 H3211 0.930 . S
C3224 C3223 1.376 . S
C3224 C3225 1.388 . S
C3225 H3212 0.930 . S
C3225 C3224 1.388 . S
C3225 C3226 1.390 . S
C3226 C3225 1.390 . S
C3226 C3227 1.394 . S
C3226 C3232 1.465 . S
C3227 C3222 1.399 . S
C3227 C3226 1.394 . S
C3227 C3228 1.516 . S
C3228 C3227 1.516 . S
C3228 C3229 1.502 . S
C3228 C3230 1.561 . S
C3228 C3231 1.526 . S
C3229 H3213 0.959 . S
C3229 H3214 0.959 . S
C3229 H3215 0.961 . S
C3229 C3228 1.502 . S
C3230 H3216 0.960 . S
C3230 H3217 0.961 . S
C3230 H3218 0.959 . S
C3230 C3228 1.561 . S
C3231 C3228 1.526 . S
C3231 C3232 1.396 . S
C3231 C3236 1.390 . S
C3232 C3226 1.465 . S
C3232 C3231 1.396 . S
C3232 C3233 1.399 . S
C3233 H3219 0.929 . S
C3233 C3232 1.399 . S
C3233 C3234 1.385 . S
C3234 H3220 0.931 . S
C3234 C3233 1.385 . S
C3234 C3235 1.389 . S
C3235 C3234 1.389 . S
C3235 C3236 1.387 . S
C3236 H3221 0.930 . S
C3236 C3231 1.390 . S
C3236 C3235 1.387 . S
H3237 C3249 0.930 . S
H3238 C3251 0.930 . S
H3239 C3252 0.930 . S
H3240 C3256 0.959 . S
H3241 C3256 0.959 . S
H3242 C3256 0.961 . S
H3243 C3257 0.960 . S
H3244 C3257 0.961 . S
H3245 C3257 0.959 . S
H3246 C3260 0.929 . S
H3247 C3261 0.931 . S
H3248 C3263 0.930 . S
C3249 H3237 0.930 . S
C3249 C3250 1.399 . S
C3249 C3254 1.399 . S
C3250 C3249 1.399 . S
C3250 C3251 1.376 . S
C3251 H3238 0.930 . S
C3251 C3250 1.376 . S
C3251 C3252 1.388 . S
C3252 H3239 0.930 . S
C3252 C3251 1.388 . S
C3252 C3253 1.390 . S
C3253 C3252 1.390 . S
C3253 C3254 1.394 . S
C3253 C3259 1.465 . S
C3254 C3249 1.399 . S
C3254 C3253 1.394 . S
C3254 C3255 1.516 . S
C3255 C3254 1.516 . S
C3255 C3256 1.502 . S
C3255 C3257 1.561 . S
C3255 C3258 1.526 . S
C3256 H3240 0.959 . S
C3256 H3241 0.959 . S
C3256 H3242 0.961 . S
C3256 C3255 1.502 . S
C3257 H3243 0.960 . S
C3257 H3244 0.961 . S
C3257 H3245 0.959 . S
C3257 C3255 1.561 . S
C3258 C3255 1.526 . S
C3258 C3259 1.396 . S
C3258 C3263 1.390 . S
C3259 C3253 1.465 . S
C3259 C3258 1.396 . S
C3259 C3260 1.399 . S
C3260 H3246 0.929 . S
C3260 C3259 1.399 . S
C3260 C3261 1.385 . S
C3261 H3247 0.931 . S
C3261 C3260 1.385 . S
C3261 C3262 1.389 . S
C3262 C3261 1.389 . S
C3262 C3263 1.387 . S
C3263 H3248 0.930 . S
C3263 C3258 1.390 . S
C3263 C3262 1.387 . S
C697 C352 1.134 . S
C685 C13 1.252 . S
C712 C25 1.148 . S
C724 C372 1.150 . S
C739 C39 1.221 . S
C751 C394 1.196 . S
C778 C413 1.427 . S
C766 C50 1.372 . S
C793 C21 1.288 1_655 S
C805 C434 1.239 . S
C832 C457 1.179 . S
C820 C35 1.347 . S
C859 C480 1.091 . S
C847 C55 1.142 . S
C874 C8 1.312 . S
C886 C498 1.316 . S
C901 C69 1.148 . S
C913 C354 1.244 . S
C928 C77 1.351 . S
C940 C374 1.346 . S
C967 C396 1.154 . S
C955 C97 1.209 1_545 S
C994 C415 1.198 . S
C982 C105 1.367 . S
C1009 C63 1.406 . S
C1021 C436 1.345 . S
C1048 C459 1.178 . S
C1036 C83 1.082 . S
C1075 C476 1.314 . S
C1063 C91 1.320 . S
C1102 C500 1.226 . S
C1090 C111 1.229 . S
C1129 C350 1.298 . S
C1117 C106 1.281 . S
C1156 C522 1.100 . S
C1144 C123 1.139 . S
C1171 C134 1.356 . S
C1183 C539 1.295 . S
C1210 C562 1.241 . S
C1198 C151 1.308 . S
C1225 C64 1.328 . S
C1237 C496 1.253 . S
C1264 C392 1.308 . S
C1252 C78 1.351 . S
C1279 C137 1.105 . S
C1291 C585 1.055 . S
C1318 C601 1.137 . S
C1306 C165 1.249 . S
C1333 C175 1.237 . S
C1345 C349 1.116 . S
C1372 C602 1.096 . S
C1360 C193 1.095 . S
C1387 C209 1.190 . S
C1399 C391 1.159 . S
C1414 C223 0.984 . S
C1426 C582 1.113 . S
C1453 C435 1.068 . S
C1441 C195 1.128 . S
C1480 C538 1.017 . S
C1468 C207 1.185 . S
C1507 C479 1.123 . S
C1495 C221 1.128 . S
C1534 C623 1.321 . S
C1522 C176 1.268 . S
C1561 C353 1.236 . S
C1549 C231 1.254 . S
C1576 C251 1.102 . S
C1588 C606 1.157 . S
C1615 C395 1.221 1_545 S
C1603 C259 1.220 . S
C1630 C279 1.219 . S
C1642 C580 1.178 . S
C1657 C237 1.296 1_545 S
C1669 C433 1.280 . S
C1684 C245 1.234 . S
C1696 C542 1.248 . S
C1723 C477 1.116 . S
C1711 C265 1.018 . S
C1738 C273 1.166 . S
C1750 C627 1.106 . S
C1765 C274 1.221 . S
C1777 C351 1.201 . S
C1792 C291 1.133 . S
C1804 C521 1.125 . S
C1819 C302 1.136 . S
C1831 C456 1.161 . S
C1846 C319 1.140 . S
C1858 C559 1.011 . S
C1885 C625 1.251 . S
C1873 C232 1.238 . S
C1912 C393 1.173 . S
C1900 C246 1.204 . S
C1939 C416 1.094 . S
C1927 C305 1.100 . S
C1966 C373 1.192 . S
C1954 C333 1.203 . S
C1981 C36 1.303 . S
C1993 C646 1.315 . S
C2020 C603 1.073 . S
C2008 C53 1.097 . S
C2047 C667 1.263 . S
C2035 C7 1.326 . S
C2062 C22 1.390 . S
C2074 C581 1.321 . S
C2089 C49 1.346 . S
C2101 C518 1.325 . S
C2128 C541 1.162 . S
C2116 C11 1.269 . S
C2155 C564 1.180 . S
C2143 C27 1.156 1_455 S
C2182 C624 1.228 . S
C2170 C41 1.286 . S
C2209 C648 1.215 . S
C2197 C167 1.266 . S
C2224 C119 1.360 . S
C2236 C605 1.338 . S
C2251 C139 1.114 . S
C2263 C669 1.209 . S
C2290 C583 1.221 . S
C2278 C147 1.374 . S
C2317 C520 1.321 . S
C2305 C161 1.393 . S
C2332 C125 1.121 . S
C2344 C543 1.161 . S
C2371 C560 1.253 . S
C2359 C133 1.319 . S
C2386 C153 1.219 . S
C2398 C626 1.268 . S
C2425 C644 1.341 . S
C2413 C148 1.348 . S
C2452 C438 1.066 . S
C2440 C81 1.111 . S
C2479 C455 1.385 . S
C2467 C92 1.339 . S
C2494 C109 1.290 . S
C2506 C478 1.207 . S
C2533 C622 1.195 . S
C2521 C162 1.311 . S
C2548 C120 1.385 . S
C2560 C665 1.342 . S
C2587 C417 1.134 . S
C2575 C95 1.134 . S
C2614 C370 1.144 . S
C2602 C67 1.274 . S
C2629 C203 1.250 . S
C2641 C643 1.203 . S
C2668 C371 1.222 . S
C2656 C217 1.253 . S
C2695 C664 1.179 . S
C2683 C181 1.231 1_455 S
C2710 C190 1.179 . S
C2722 C414 1.250 . S
C2737 C218 1.163 . S
C2749 C519 1.264 . S
C2764 C179 1.151 . S
C2776 C454 1.110 . S
C2791 C189 1.266 . S
C2803 C563 1.276 . S
C2818 C204 1.296 . S
C2830 C497 1.340 . S
C2857 C647 1.264 . S
C2845 C329 1.280 . S
C2872 C293 1.108 . S
C2884 C375 1.055 . S
C2911 C668 1.186 . S
C2899 C301 1.241 . S
C2926 C321 1.140 . S
C2938 C412 1.127 . S
C2953 C335 1.158 . S
C2965 C517 1.097 . S
C2992 C458 1.211 . S
C2980 C287 1.263 . S
C3007 C307 1.104 . S
C3019 C561 1.053 . S
C3046 C501 1.142 . S
C3034 C315 1.203 . S
C3073 C645 1.201 . S
C3061 C316 1.179 . S
C3100 C437 1.194 . S
C3088 C249 1.200 . S
C3115 C260 1.131 . S
C3127 C540 1.218 . S
C3154 C475 1.099 . S
C3142 C277 1.221 . S
C3181 C499 1.230 . S
C3169 C330 1.216 . S
C3196 C288 1.125 1_556 S
C3208 C666 1.184 . S
C3235 C584 1.209 . S
C3223 C263 1.210 . S
C3262 C604 1.140 . S
C3250 C235 1.272 . S
