# Generated by pormake.
# Topology gar, (4,6)-cn, num edge types: 1
# Building blocks:
#     Node 0, Type 0, BuildingBlock: NAHDIM_clean_sbu_0, # of connection points: 4
#     Node 1, Type 0, BuildingBlock: NAHDIM_clean_sbu_0, # of connection points: 4
#     Node 2, Type 0, BuildingBlock: NAHDIM_clean_sbu_0, # of connection points: 4
#     Node 3, Type 0, BuildingBlock: NAHDIM_clean_sbu_0, # of connection points: 4
#     Node 4, Type 0, BuildingBlock: NAHDIM_clean_sbu_0, # of connection points: 4
#     Node 5, Type 0, BuildingBlock: NAHDIM_clean_sbu_0, # of connection points: 4
#     Node 6, Type 0, BuildingBlock: NAHDIM_clean_sbu_0, # of connection points: 4
#     Node 7, Type 0, BuildingBlock: NAHDIM_clean_sbu_0, # of connection points: 4
#     Node 8, Type 0, BuildingBlock: NAHDIM_clean_sbu_0, # of connection points: 4
#     Node 9, Type 0, BuildingBlock: NAHDIM_clean_sbu_0, # of connection points: 4
#     Node 10, Type 0, BuildingBlock: NAHDIM_clean_sbu_0, # of connection points: 4
#     Node 11, Type 0, BuildingBlock: NAHDIM_clean_sbu_0, # of connection points: 4
#     Node 12, Type 0, BuildingBlock: NAHDIM_clean_sbu_0, # of connection points: 4
#     Node 13, Type 0, BuildingBlock: NAHDIM_clean_sbu_0, # of connection points: 4
#     Node 14, Type 0, BuildingBlock: NAHDIM_clean_sbu_0, # of connection points: 4
#     Node 15, Type 0, BuildingBlock: NAHDIM_clean_sbu_0, # of connection points: 4
#     Node 16, Type 0, BuildingBlock: NAHDIM_clean_sbu_0, # of connection points: 4
#     Node 17, Type 0, BuildingBlock: NAHDIM_clean_sbu_0, # of connection points: 4
#     Node 18, Type 0, BuildingBlock: NAHDIM_clean_sbu_0, # of connection points: 4
#     Node 19, Type 0, BuildingBlock: NAHDIM_clean_sbu_0, # of connection points: 4
#     Node 20, Type 0, BuildingBlock: NAHDIM_clean_sbu_0, # of connection points: 4
#     Node 21, Type 0, BuildingBlock: NAHDIM_clean_sbu_0, # of connection points: 4
#     Node 22, Type 0, BuildingBlock: NAHDIM_clean_sbu_0, # of connection points: 4
#     Node 23, Type 0, BuildingBlock: NAHDIM_clean_sbu_0, # of connection points: 4
#     Node 24, Type 1, BuildingBlock: PAMTUU_clean_sbu_0, # of connection points: 6
#     Node 25, Type 1, BuildingBlock: PAMTUU_clean_sbu_0, # of connection points: 6
#     Node 26, Type 1, BuildingBlock: PAMTUU_clean_sbu_0, # of connection points: 6
#     Node 27, Type 1, BuildingBlock: PAMTUU_clean_sbu_0, # of connection points: 6
#     Node 28, Type 1, BuildingBlock: PAMTUU_clean_sbu_0, # of connection points: 6
#     Node 29, Type 1, BuildingBlock: PAMTUU_clean_sbu_0, # of connection points: 6
#     Node 30, Type 1, BuildingBlock: PAMTUU_clean_sbu_0, # of connection points: 6
#     Node 31, Type 1, BuildingBlock: PAMTUU_clean_sbu_0, # of connection points: 6
#     Node 32, Type 1, BuildingBlock: PAMTUU_clean_sbu_0, # of connection points: 6
#     Node 33, Type 1, BuildingBlock: PAMTUU_clean_sbu_0, # of connection points: 6
#     Node 34, Type 1, BuildingBlock: PAMTUU_clean_sbu_0, # of connection points: 6
#     Node 35, Type 1, BuildingBlock: PAMTUU_clean_sbu_0, # of connection points: 6
#     Node 36, Type 1, BuildingBlock: PAMTUU_clean_sbu_0, # of connection points: 6
#     Node 37, Type 1, BuildingBlock: PAMTUU_clean_sbu_0, # of connection points: 6
#     Node 38, Type 1, BuildingBlock: PAMTUU_clean_sbu_0, # of connection points: 6
#     Node 39, Type 1, BuildingBlock: PAMTUU_clean_sbu_0, # of connection points: 6
#     Edge 40, Type (0, 1), BuildingBlock: XIVTED_clean_linker_0, # of connection points: 2
#     Edge 41, Type (0, 1), BuildingBlock: XIVTED_clean_linker_0, # of connection points: 2
#     Edge 42, Type (0, 1), BuildingBlock: XIVTED_clean_linker_0, # of connection points: 2
#     Edge 43, Type (0, 1), BuildingBlock: XIVTED_clean_linker_0, # of connection points: 2
#     Edge 44, Type (0, 1), BuildingBlock: XIVTED_clean_linker_0, # of connection points: 2
#     Edge 45, Type (0, 1), BuildingBlock: XIVTED_clean_linker_0, # of connection points: 2
#     Edge 46, Type (0, 1), BuildingBlock: XIVTED_clean_linker_0, # of connection points: 2
#     Edge 47, Type (0, 1), BuildingBlock: XIVTED_clean_linker_0, # of connection points: 2
#     Edge 48, Type (0, 1), BuildingBlock: XIVTED_clean_linker_0, # of connection points: 2
#     Edge 49, Type (0, 1), BuildingBlock: XIVTED_clean_linker_0, # of connection points: 2
#     Edge 50, Type (0, 1), BuildingBlock: XIVTED_clean_linker_0, # of connection points: 2
#     Edge 51, Type (0, 1), BuildingBlock: XIVTED_clean_linker_0, # of connection points: 2
#     Edge 52, Type (0, 1), BuildingBlock: XIVTED_clean_linker_0, # of connection points: 2
#     Edge 53, Type (0, 1), BuildingBlock: XIVTED_clean_linker_0, # of connection points: 2
#     Edge 54, Type (0, 1), BuildingBlock: XIVTED_clean_linker_0, # of connection points: 2
#     Edge 55, Type (0, 1), BuildingBlock: XIVTED_clean_linker_0, # of connection points: 2
#     Edge 56, Type (0, 1), BuildingBlock: XIVTED_clean_linker_0, # of connection points: 2
#     Edge 57, Type (0, 1), BuildingBlock: XIVTED_clean_linker_0, # of connection points: 2
#     Edge 58, Type (0, 1), BuildingBlock: XIVTED_clean_linker_0, # of connection points: 2
#     Edge 59, Type (0, 1), BuildingBlock: XIVTED_clean_linker_0, # of connection points: 2
#     Edge 60, Type (0, 1), BuildingBlock: XIVTED_clean_linker_0, # of connection points: 2
#     Edge 61, Type (0, 1), BuildingBlock: XIVTED_clean_linker_0, # of connection points: 2
#     Edge 62, Type (0, 1), BuildingBlock: XIVTED_clean_linker_0, # of connection points: 2
#     Edge 63, Type (0, 1), BuildingBlock: XIVTED_clean_linker_0, # of connection points: 2
#     Edge 64, Type (0, 1), BuildingBlock: XIVTED_clean_linker_0, # of connection points: 2
#     Edge 65, Type (0, 1), BuildingBlock: XIVTED_clean_linker_0, # of connection points: 2
#     Edge 66, Type (0, 1), BuildingBlock: XIVTED_clean_linker_0, # of connection points: 2
#     Edge 67, Type (0, 1), BuildingBlock: XIVTED_clean_linker_0, # of connection points: 2
#     Edge 68, Type (0, 1), BuildingBlock: XIVTED_clean_linker_0, # of connection points: 2
#     Edge 69, Type (0, 1), BuildingBlock: XIVTED_clean_linker_0, # of connection points: 2
#     Edge 70, Type (0, 1), BuildingBlock: XIVTED_clean_linker_0, # of connection points: 2
#     Edge 71, Type (0, 1), BuildingBlock: XIVTED_clean_linker_0, # of connection points: 2
#     Edge 72, Type (0, 1), BuildingBlock: XIVTED_clean_linker_0, # of connection points: 2
#     Edge 73, Type (0, 1), BuildingBlock: XIVTED_clean_linker_0, # of connection points: 2
#     Edge 74, Type (0, 1), BuildingBlock: XIVTED_clean_linker_0, # of connection points: 2
#     Edge 75, Type (0, 1), BuildingBlock: XIVTED_clean_linker_0, # of connection points: 2
#     Edge 76, Type (0, 1), BuildingBlock: XIVTED_clean_linker_0, # of connection points: 2
#     Edge 77, Type (0, 1), BuildingBlock: XIVTED_clean_linker_0, # of connection points: 2
#     Edge 78, Type (0, 1), BuildingBlock: XIVTED_clean_linker_0, # of connection points: 2
#     Edge 79, Type (0, 1), BuildingBlock: XIVTED_clean_linker_0, # of connection points: 2
#     Edge 80, Type (0, 1), BuildingBlock: XIVTED_clean_linker_0, # of connection points: 2
#     Edge 81, Type (0, 1), BuildingBlock: XIVTED_clean_linker_0, # of connection points: 2
#     Edge 82, Type (0, 1), BuildingBlock: XIVTED_clean_linker_0, # of connection points: 2
#     Edge 83, Type (0, 1), BuildingBlock: XIVTED_clean_linker_0, # of connection points: 2
#     Edge 84, Type (0, 1), BuildingBlock: XIVTED_clean_linker_0, # of connection points: 2
#     Edge 85, Type (0, 1), BuildingBlock: XIVTED_clean_linker_0, # of connection points: 2
#     Edge 86, Type (0, 1), BuildingBlock: XIVTED_clean_linker_0, # of connection points: 2
#     Edge 87, Type (0, 1), BuildingBlock: XIVTED_clean_linker_0, # of connection points: 2
#     Edge 88, Type (0, 1), BuildingBlock: XIVTED_clean_linker_0, # of connection points: 2
#     Edge 89, Type (0, 1), BuildingBlock: XIVTED_clean_linker_0, # of connection points: 2
#     Edge 90, Type (0, 1), BuildingBlock: XIVTED_clean_linker_0, # of connection points: 2
#     Edge 91, Type (0, 1), BuildingBlock: XIVTED_clean_linker_0, # of connection points: 2
#     Edge 92, Type (0, 1), BuildingBlock: XIVTED_clean_linker_0, # of connection points: 2
#     Edge 93, Type (0, 1), BuildingBlock: XIVTED_clean_linker_0, # of connection points: 2
#     Edge 94, Type (0, 1), BuildingBlock: XIVTED_clean_linker_0, # of connection points: 2
#     Edge 95, Type (0, 1), BuildingBlock: XIVTED_clean_linker_0, # of connection points: 2
#     Edge 96, Type (0, 1), BuildingBlock: XIVTED_clean_linker_0, # of connection points: 2
#     Edge 97, Type (0, 1), BuildingBlock: XIVTED_clean_linker_0, # of connection points: 2
#     Edge 98, Type (0, 1), BuildingBlock: XIVTED_clean_linker_0, # of connection points: 2
#     Edge 99, Type (0, 1), BuildingBlock: XIVTED_clean_linker_0, # of connection points: 2
#     Edge 100, Type (0, 1), BuildingBlock: XIVTED_clean_linker_0, # of connection points: 2
#     Edge 101, Type (0, 1), BuildingBlock: XIVTED_clean_linker_0, # of connection points: 2
#     Edge 102, Type (0, 1), BuildingBlock: XIVTED_clean_linker_0, # of connection points: 2
#     Edge 103, Type (0, 1), BuildingBlock: XIVTED_clean_linker_0, # of connection points: 2
#     Edge 104, Type (0, 1), BuildingBlock: XIVTED_clean_linker_0, # of connection points: 2
#     Edge 105, Type (0, 1), BuildingBlock: XIVTED_clean_linker_0, # of connection points: 2
#     Edge 106, Type (0, 1), BuildingBlock: XIVTED_clean_linker_0, # of connection points: 2
#     Edge 107, Type (0, 1), BuildingBlock: XIVTED_clean_linker_0, # of connection points: 2
#     Edge 108, Type (0, 1), BuildingBlock: XIVTED_clean_linker_0, # of connection points: 2
#     Edge 109, Type (0, 1), BuildingBlock: XIVTED_clean_linker_0, # of connection points: 2
#     Edge 110, Type (0, 1), BuildingBlock: XIVTED_clean_linker_0, # of connection points: 2
#     Edge 111, Type (0, 1), BuildingBlock: XIVTED_clean_linker_0, # of connection points: 2
#     Edge 112, Type (0, 1), BuildingBlock: XIVTED_clean_linker_0, # of connection points: 2
#     Edge 113, Type (0, 1), BuildingBlock: XIVTED_clean_linker_0, # of connection points: 2
#     Edge 114, Type (0, 1), BuildingBlock: XIVTED_clean_linker_0, # of connection points: 2
#     Edge 115, Type (0, 1), BuildingBlock: XIVTED_clean_linker_0, # of connection points: 2
#     Edge 116, Type (0, 1), BuildingBlock: XIVTED_clean_linker_0, # of connection points: 2
#     Edge 117, Type (0, 1), BuildingBlock: XIVTED_clean_linker_0, # of connection points: 2
#     Edge 118, Type (0, 1), BuildingBlock: XIVTED_clean_linker_0, # of connection points: 2
#     Edge 119, Type (0, 1), BuildingBlock: XIVTED_clean_linker_0, # of connection points: 2
#     Edge 120, Type (0, 1), BuildingBlock: XIVTED_clean_linker_0, # of connection points: 2
#     Edge 121, Type (0, 1), BuildingBlock: XIVTED_clean_linker_0, # of connection points: 2
#     Edge 122, Type (0, 1), BuildingBlock: XIVTED_clean_linker_0, # of connection points: 2
#     Edge 123, Type (0, 1), BuildingBlock: XIVTED_clean_linker_0, # of connection points: 2
#     Edge 124, Type (0, 1), BuildingBlock: XIVTED_clean_linker_0, # of connection points: 2
#     Edge 125, Type (0, 1), BuildingBlock: XIVTED_clean_linker_0, # of connection points: 2
#     Edge 126, Type (0, 1), BuildingBlock: XIVTED_clean_linker_0, # of connection points: 2
#     Edge 127, Type (0, 1), BuildingBlock: XIVTED_clean_linker_0, # of connection points: 2
#     Edge 128, Type (0, 1), BuildingBlock: XIVTED_clean_linker_0, # of connection points: 2
#     Edge 129, Type (0, 1), BuildingBlock: XIVTED_clean_linker_0, # of connection points: 2
#     Edge 130, Type (0, 1), BuildingBlock: XIVTED_clean_linker_0, # of connection points: 2
#     Edge 131, Type (0, 1), BuildingBlock: XIVTED_clean_linker_0, # of connection points: 2
#     Edge 132, Type (0, 1), BuildingBlock: XIVTED_clean_linker_0, # of connection points: 2
#     Edge 133, Type (0, 1), BuildingBlock: XIVTED_clean_linker_0, # of connection points: 2
#     Edge 134, Type (0, 1), BuildingBlock: XIVTED_clean_linker_0, # of connection points: 2
#     Edge 135, Type (0, 1), BuildingBlock: XIVTED_clean_linker_0, # of connection points: 2
# Relax obj value: 0.194
# Max RMSD: 0.333
# Mean RMSD: 0.187
data_MOF--net-gar--node1-NAHDIM_clean_sbu_0--node2-PAMTUU_clean_sbu_0--edge1-XIVTED_clean_linker_0
_symmetry_space_group_name_H-M    P1
_symmetry_Int_Tables_number       1
_symmetry_cell_setting            triclinic
loop_
_symmetry_equiv_pos_as_xyz
'x, y, z'
_cell_length_a     60.021347
_cell_length_b     55.862602
_cell_length_c     58.281413
_cell_angle_alpha  93.561771
_cell_angle_beta   93.937028
_cell_angle_gamma 107.42821
loop_
_atom_site_label
_atom_site_type_symbol
_atom_site_fract_x
_atom_site_fract_y
_atom_site_fract_z
_atom_type_partial_charge
C0 C 0.11403 0.28866 0.37266 0.0
O1 O 0.10474 0.26591 0.37903 0.0
O2 O 0.0646 0.26314 0.41217 0.0
Zn3 Zn 0.06944 0.29845 0.3948 0.0
O4 O 0.07244 0.3314 0.41886 0.0
C5 C 1.0168 0.29348 0.38066 0.0
O6 O 1.01622 0.29181 0.40301 0.0
O7 O 0.10279 0.30487 0.37666 0.0
C8 C 0.06776 0.35093 0.41167 0.0
O9 O 0.06199 0.35042 0.38945 0.0
C10 C 0.07336 0.26034 0.43236 0.0
O11 O 0.08628 0.28078 0.44488 0.0
O12 O 0.03677 0.29566 0.37238 0.0
C13 C 1.00763 0.80115 0.68869 0.0
O14 O 1.00232 0.79237 0.66692 0.0
O15 O 0.05264 0.77548 0.65244 0.0
Zn16 Zn 0.05982 0.81117 0.6736 0.0
O17 O 0.06201 0.8445 0.65372 0.0
C18 C 0.10399 0.79785 0.69645 0.0
O19 O 0.09035 0.77475 0.69065 0.0
O20 O 0.02982 0.8093 0.69589 0.0
C21 C 0.06372 0.84787 0.63207 0.0
O22 O 0.0647 0.82876 0.61828 0.0
C23 C 0.06683 0.76995 0.63889 0.0
O24 O 0.08636 0.78769 0.63628 0.0
O25 O 0.09524 0.81595 0.69229 0.0
C26 C 0.62225 0.81166 0.8807 0.0
O27 O 0.62649 0.82761 0.89919 0.0
O28 O 0.56295 0.7597 0.91259 0.0
Zn29 Zn 0.56849 0.79489 0.89494 0.0
O30 O 0.57292 0.82815 0.91914 0.0
C31 C 0.5153 0.78952 0.88037 0.0
O32 O 0.51387 0.78628 0.90242 0.0
O33 O 0.60065 0.79772 0.8755 0.0
C34 C 0.56653 0.84708 0.91288 0.0
O35 O 0.55836 0.84605 0.89123 0.0
C36 C 0.57282 0.7567 0.93218 0.0
O37 O 0.58729 0.77686 0.94389 0.0
O38 O 0.5357 0.7927 0.8727 0.0
C39 C 0.50747 0.29762 0.1886 0.0
O40 O 0.50228 0.28863 0.16687 0.0
O41 O 0.55289 0.27196 0.15304 0.0
Zn42 Zn 0.55967 0.30791 0.17369 0.0
O43 O 0.56155 0.34098 0.15362 0.0
C44 C 0.60382 0.29538 0.19711 0.0
O45 O 0.59018 0.27215 0.19194 0.0
O46 O 0.52963 0.30599 0.19587 0.0
C47 C 0.56538 0.34539 0.13248 0.0
O48 O 0.56915 0.32748 0.11907 0.0
C49 C 0.56713 0.26631 0.13963 0.0
O50 O 0.58652 0.28409 0.13671 0.0
O51 O 0.59504 0.31329 0.1924 0.0
C52 C 0.06952 0.82359 0.14877 0.0
O53 O 0.06614 0.83058 0.12803 0.0
O54 O 0.10114 0.78993 0.11041 0.0
Zn55 Zn 0.11212 0.82181 0.13148 0.0
O56 O 0.11412 0.85243 0.11465 0.0
C57 C 0.14653 0.80417 0.15424 0.0
O58 O 0.12973 0.78272 0.14949 0.0
O59 O 0.08853 0.81905 0.15454 0.0
C60 C 0.12006 0.87363 0.12644 0.0
O61 O 0.12579 0.87469 0.14873 0.0
C62 C 0.11434 0.78293 0.09713 0.0
O63 O 0.13552 0.79807 0.09541 0.0
O64 O 0.14314 0.82436 0.14822 0.0
C65 C 0.5753 0.78896 0.42532 0.0
O66 O 0.57907 0.78533 0.44712 0.0
O67 O 0.52939 0.75508 0.45647 0.0
Zn68 Zn 0.52859 0.78336 0.43739 0.0
O69 O 0.53258 0.81543 0.45702 0.0
C70 C 0.47866 0.76901 0.42149 0.0
O71 O 0.47491 0.7686 0.44343 0.0
O72 O 0.55508 0.7891 0.41756 0.0
C73 C 0.52317 0.83144 0.44978 0.0
O74 O 0.51026 0.82628 0.42992 0.0
C75 C 0.52011 0.7325 0.44794 0.0
O76 O 0.50883 0.72813 0.42725 0.0
O77 O 0.49949 0.77439 0.4158 0.0
C78 C 0.56188 0.30714 0.64893 0.0
O79 O 0.55821 0.29455 0.62852 0.0
O80 O 0.6016 0.29123 0.61626 0.0
Zn81 Zn 0.60915 0.3234 0.63661 0.0
O82 O 0.61396 0.35377 0.61901 0.0
C83 C 0.65839 0.33369 0.65281 0.0
O84 O 0.66281 0.34335 0.63302 0.0
O85 O 0.5824 0.32116 0.656 0.0
C86 C 0.62036 0.3751 0.6306 0.0
O87 O 0.62479 0.37615 0.6531 0.0
C88 C 0.61528 0.28569 0.60263 0.0
O89 O 0.63527 0.30258 0.59983 0.0
O90 O 0.63733 0.32535 0.65773 0.0
C91 C 0.06697 0.27925 0.9204 0.0
O92 O 0.06683 0.26603 0.93829 0.0
O93 O 1.02262 0.25225 0.95421 0.0
Zn94 Zn 1.02198 0.28021 0.93436 0.0
O95 O 1.02335 0.31178 0.95356 0.0
C96 C 0.97284 0.26592 0.92012 0.0
O97 O 0.97132 0.26812 0.94249 0.0
O98 O 0.04973 0.28739 0.91554 0.0
C99 C 0.04199 0.32387 0.96605 0.0
O100 O 0.05986 0.31484 0.96689 0.0
C101 C 1.01267 0.22943 0.94665 0.0
O102 O 1.00064 0.22435 0.92631 0.0
O103 O 0.99289 0.27012 0.91261 0.0
C104 C 0.427 0.08415 0.27979 0.0
O105 O 0.43765 0.07488 0.26417 0.0
O106 O 0.48565 0.08372 0.28686 0.0
Zn107 Zn 0.46032 0.07128 0.30801 0.0
O108 O 0.47369 0.07911 0.34087 0.0
C109 C 0.44545 0.0203 0.28457 0.0
O110 O 0.45527 0.03083 0.26674 0.0
O111 O 0.43436 0.0857 0.30096 0.0
C112 C 0.48824 0.06735 0.34588 0.0
O113 O 0.49265 0.05233 0.32975 0.0
C114 C 0.50631 0.09794 0.29329 0.0
O115 O 0.51243 0.10575 0.31517 0.0
O116 O 0.44615 0.03382 0.30309 0.0
C117 C 0.36121 0.20032 0.54207 0.0
O118 O 0.36873 0.22438 0.54928 0.0
O119 O 0.32379 0.23477 0.55975 0.0
Zn120 Zn 0.31842 0.21169 0.53019 0.0
O121 O 0.32312 0.22921 0.50057 0.0
C122 C 0.27819 0.17542 0.54492 0.0
O123 O 0.29226 0.17809 0.56383 0.0
O124 O 0.34029 0.19082 0.53299 0.0
C125 C 0.32135 0.21495 0.48215 0.0
O126 O 0.31696 0.19063 0.48368 0.0
C127 C 0.30711 0.24086 0.56831 0.0
O128 O 0.28654 0.23459 0.55634 0.0
O129 O 0.28561 0.18795 0.52803 0.0
C130 C 0.23255 0.02556 0.80779 0.0
O131 O 0.22364 0.03994 0.79542 0.0
O132 O 0.17312 0.02275 0.80516 0.0
Zn133 Zn 0.19615 0.02936 0.8329 0.0
O134 O 0.18105 0.01527 0.86034 0.0
C135 C 0.19911 0.08261 0.84129 0.0
O136 O 0.17622 0.07493 0.84168 0.0
O137 O 0.22285 0.01703 0.82555 0.0
C138 C 0.19175 0.02333 0.88015 0.0
O139 O 0.21314 0.03906 0.8817 0.0
C140 C 0.15213 0.0232 0.80559 0.0
O141 O 0.14387 0.02612 0.82552 0.0
O142 O 0.21009 0.06657 0.8387 0.0
C143 C 0.27344 0.96039 0.03533 0.0
O144 O 0.27854 0.94468 0.04912 0.0
O145 O 0.29237 0.90704 0.0212 0.0
Zn146 Zn 0.29676 0.93748 0.00337 0.0
O147 O 0.29004 0.92708 0.96958 0.0
C148 C 0.34202 0.95933 0.02803 0.0
O149 O 0.33141 0.94797 0.04513 0.0
O150 O 0.27849 0.95975 0.01453 0.0
C151 C 0.27448 0.90684 0.96158 0.0
O152 O 0.26086 0.89317 0.97571 0.0
C153 C 0.30576 0.8936 0.01772 0.0
O154 O 0.32041 0.89918 1.0017 0.0
O155 O 0.33054 0.95765 0.00856 0.0
C156 C 0.27261 0.39046 0.03906 0.0
O157 O 0.26261 0.36676 0.04246 0.0
O158 O 0.31126 0.35971 0.06923 0.0
Zn159 Zn 0.31549 0.37647 0.03916 0.0
O160 O 0.30822 0.35312 0.00983 0.0
C161 C 0.35408 0.42313 0.04299 0.0
O162 O 0.33781 0.43341 0.04808 0.0
O163 O 0.29447 0.39818 0.0371 0.0
C164 C 0.32406 0.34549 1.00122 0.0
O165 O 0.34449 0.35018 0.01318 0.0
C166 C 0.3152 0.37533 0.08701 0.0
O167 O 0.32151 0.3995 0.08417 0.0
O168 O 0.34869 0.39931 0.03919 0.0
C169 C 0.83914 0.10811 0.03672 0.0
O170 O 0.82701 0.11595 0.02084 0.0
O171 O 0.83146 0.15658 0.09782 0.0
Zn172 Zn 0.82717 0.14494 0.06412 0.0
O173 O 0.83743 0.17404 0.04486 0.0
C174 C 0.78068 0.11146 0.0648 0.0
O175 O 0.79047 0.10262 0.08181 0.0
O176 O 0.84252 0.11863 0.05716 0.0
C177 C 0.82678 0.19043 0.04735 0.0
O178 O 0.81224 0.18837 0.0635 0.0
C179 C 0.8486 0.17535 0.10604 0.0
O180 O 0.86441 0.1864 0.09241 0.0
O181 O 0.7931 0.12964 0.05481 0.0
C182 C 0.21143 0.48498 0.28442 0.0
O183 O 0.18964 0.48109 0.28927 0.0
O184 O 0.18085 0.49297 0.21924 0.0
Zn185 Zn 0.19835 0.51208 0.24833 0.0
O186 O 0.177 0.52153 0.26953 0.0
C187 C 0.20931 0.56135 0.23477 0.0
O188 O 0.1863 0.55471 0.23196 0.0
O189 O 0.2182 0.49563 0.26639 0.0
C190 C 0.18766 0.53767 0.28606 0.0
O191 O 0.2107 0.54558 0.28812 0.0
C192 C 0.15862 0.4844 0.21748 0.0
O193 O 0.14755 0.48405 0.2362 0.0
O194 O 0.21919 0.54507 0.24026 0.0
C195 C 0.79305 0.90867 0.52343 0.0
O196 O 0.80596 0.90783 0.50626 0.0
O197 O 0.81775 0.861 0.57134 0.0
Zn198 Zn 0.81807 0.87702 0.54116 0.0
O199 O 0.81149 0.85338 0.512 0.0
C200 C 0.85593 0.92462 0.54871 0.0
O201 O 0.84146 0.93234 0.56102 0.0
O202 O 0.79481 0.89624 0.54062 0.0
C203 C 0.82867 0.84905 0.50279 0.0
O204 O 0.84956 0.85701 0.51419 0.0
C205 C 0.79888 0.85279 0.58099 0.0
O206 O 0.77892 0.85245 0.56997 0.0
O207 O 0.84971 0.9021 0.53956 0.0
C208 C 0.92873 0.09166 0.28366 0.0
O209 O 0.93958 0.08065 0.29797 0.0
O210 O 0.95683 0.07566 0.21761 0.0
Zn211 Zn 0.95329 0.07221 0.25098 0.0
O212 O 0.98482 0.08191 0.26902 0.0
C213 C 0.93767 0.0182 0.24057 0.0
O214 O 0.94924 0.02333 0.22224 0.0
O215 O 0.93286 0.09159 0.26258 0.0
C216 C 0.99976 0.07174 0.2621 0.0
O217 O 0.99456 0.05698 0.2428 0.0
C218 C 0.96952 0.09546 0.20995 0.0
O219 O 0.97996 0.11532 0.22439 0.0
O220 O 0.93717 0.03604 0.25492 0.0
C221 C 0.34148 0.61038 0.53318 0.0
O222 O 0.32941 0.61789 0.51701 0.0
O223 O 0.33435 0.66109 0.5931 0.0
Zn224 Zn 0.32778 0.64633 0.56012 0.0
O225 O 0.33508 0.67326 0.53809 0.0
C226 C 0.28064 0.6198 0.56957 0.0
O227 O 0.2902 0.62074 0.59071 0.0
O228 O 0.34403 0.62065 0.55365 0.0
C229 C 0.32235 0.6878 0.53825 0.0
O230 O 0.30706 0.68558 0.5537 0.0
C231 C 0.34854 0.68282 0.59919 0.0
O232 O 0.36064 0.69578 0.58368 0.0
O233 O 0.29346 0.62909 0.55394 0.0
C234 C 0.43777 0.59668 0.78299 0.0
O235 O 0.456 0.5967 0.79683 0.0
O236 O 0.45899 0.56978 0.71778 0.0
Zn237 Zn 0.45509 0.56636 0.75109 0.0
O238 O 0.48646 0.576 0.76955 0.0
C239 C 0.44635 0.51256 0.75586 0.0
O240 O 0.46913 0.51729 0.75587 0.0
O241 O 0.4349 0.58617 0.76259 0.0
C242 C 0.50417 0.57151 0.76168 0.0
O243 O 0.50235 0.56114 0.7405 0.0
C244 C 0.46976 0.59029 0.70985 0.0
O245 O 0.47821 0.61081 0.72399 0.0
O246 O 0.4374 0.53037 0.75423 0.0
C247 C 0.68673 0.97575 0.80332 0.0
O248 O 0.6733 0.98543 0.81535 0.0
O249 O 0.65727 0.98274 0.73193 0.0
Zn250 Zn 0.66266 0.99073 0.76611 0.0
O251 O 0.63222 0.98418 0.77997 0.0
C252 C 0.69808 0.03617 0.76197 0.0
O253 O 0.7052 0.02065 0.74859 0.0
O254 O 0.68392 0.97406 0.7814 0.0
C255 C 0.61887 0.9966 0.77298 0.0
O256 O 0.6252 1.01158 0.7565 0.0
C257 C 0.63835 0.9677 0.72196 0.0
O258 O 0.62266 0.95422 0.7345 0.0
O259 O 0.67939 0.02765 0.77175 0.0
C260 C 0.86079 0.70042 0.04016 0.0
O261 O 0.86896 0.72465 0.04654 0.0
O262 O 0.82491 0.73488 0.06097 0.0
Zn263 Zn 0.8183 0.71276 0.0308 0.0
O264 O 0.82306 0.73119 1.00167 0.0
C265 C 0.77759 0.67774 0.046 0.0
O266 O 0.79166 0.68044 0.06492 0.0
O267 O 0.83943 0.691 0.03238 0.0
C268 C 0.82116 0.71731 0.98299 0.0
O269 O 0.81659 0.6929 0.98405 0.0
C270 C 0.80954 0.74315 0.06975 0.0
O271 O 0.78937 0.73982 0.0577 0.0
O272 O 0.78517 0.68987 0.02894 0.0
C273 C 0.91714 0.57438 0.7774 0.0
O274 O 0.92821 0.56461 0.76255 0.0
O275 O 0.96695 0.55397 0.78975 0.0
Zn276 Zn 0.94005 0.55079 0.80886 0.0
O277 O 0.95395 0.55949 0.84147 0.0
C278 C 0.91841 0.50134 0.78678 0.0
O279 O 0.93063 0.51104 0.76991 0.0
O280 O 0.92046 0.57193 0.79877 0.0
C281 C 0.96835 0.54744 0.8461 0.0
O282 O 0.971 0.53094 0.83028 0.0
C283 C 0.98452 0.57353 0.79011 0.0
O284 O 0.98485 0.59437 0.80206 0.0
O285 O 0.91967 0.51493 0.8054 0.0
C286 C 0.78587 0.47049 0.53349 0.0
O287 O 0.80616 0.47179 0.54436 0.0
O288 O 0.7947 0.40681 0.52964 0.0
Zn289 Zn 0.79588 0.43165 0.50617 0.0
O290 O 0.78446 0.41421 0.47457 0.0
C291 C 0.8397 0.47311 0.5029 0.0
O292 O 0.82679 0.4878 0.49829 0.0
O293 O 0.77781 0.45468 0.51602 0.0
C294 C 0.78936 0.4267 0.45712 0.0
O295 O 0.79992 0.45106 0.46033 0.0
C296 C 0.80134 0.38755 0.52546 0.0
O297 O 0.8068 0.38258 0.50462 0.0
O298 O 0.82995 0.45026 0.50631 0.0
C299 C 0.73725 0.53092 0.31017 0.0
O300 O 0.72963 0.54691 0.29875 0.0
O301 O 0.67807 0.52895 0.30682 0.0
Zn302 Zn 0.70069 0.53505 0.33491 0.0
O303 O 0.68498 0.52056 0.36194 0.0
C304 C 0.70285 0.58755 0.33927 0.0
O305 O 0.68007 0.57877 0.33414 0.0
O306 O 0.72696 0.52195 0.3275 0.0
C307 C 0.69615 0.52622 0.38179 0.0
O308 O 0.71833 0.53985 0.38364 0.0
C309 C 0.65642 0.52693 0.30671 0.0
O310 O 0.64695 0.52705 0.32637 0.0
O311 O 0.71469 0.57229 0.34144 0.0
Tb312 Tb 0.09142 0.07409 0.05064 0.0
Tb313 Tb 0.04473 0.03124 0.02401 0.0
C314 C 0.04261 0.06337 0.06962 0.0
C315 C 0.1521 0.10115 0.07495 0.0
C316 C 0.19133 0.08336 0.07945 0.0
C317 C 0.17789 0.08397 0.09819 0.0
C318 C 0.15844 0.09279 0.09596 0.0
C319 C 0.16697 0.10297 0.0571 0.0
C320 C 0.18626 0.09404 0.05927 0.0
C321 C 0.12867 0.10441 0.07048 0.0
O322 O 0.08708 0.0392 0.06717 0.0
O323 O 0.06822 1.01128 0.03648 0.0
O324 O 0.07119 0.03931 0.99963 0.0
O325 O 0.10422 0.05294 0.02514 0.0
O326 O 1.01953 0.99593 0.02422 0.0
O327 O 1.01988 0.0183 0.99525 0.0
O328 O 0.03879 0.06709 0.01958 0.0
O329 O 0.07711 0.09245 0.02407 0.0
O330 O 0.06182 0.08075 0.06575 0.0
O331 O 0.03598 0.04088 0.05835 0.0
C332 C 0.08086 0.01651 0.0564 0.0
O333 O 0.12156 0.10459 0.04884 0.0
O334 O 0.11201 0.09049 0.08154 0.0
C335 C 0.09383 0.0438 0.00456 0.0
C336 C 0.98325 0.99671 0.0069 0.0
C337 C 0.93768 1.00051 0.00828 0.0
C338 C 0.94457 0.99118 0.98785 0.0
C339 C 0.96724 0.98928 0.98719 0.0
C340 C 0.97604 1.00488 0.02755 0.0
C341 C 0.95348 1.00667 0.02826 0.0
C342 C 1.00806 0.99886 0.0053 0.0
C343 C 0.05489 0.08838 0.01709 0.0
H344 H 0.18167 0.07644 0.11417 0.0
H345 H 0.14757 0.09162 0.1102 0.0
H346 H 0.16284 0.10968 0.04078 0.0
H347 H 0.19607 0.09381 0.04439 0.0
H348 H 0.93274 0.98622 0.97222 0.0
H349 H 0.97259 0.98306 0.97107 0.0
H350 H 0.98818 1.01106 0.04291 0.0
H351 H 0.94899 0.01445 0.04415 0.0
Tb352 Tb 0.31008 0.79624 0.29624 0.0
Tb353 Tb 0.33826 0.78595 0.25208 0.0
C354 C 0.29168 0.80115 0.24661 0.0
C355 C 0.29117 0.79119 0.35419 0.0
C356 C 0.29884 0.77269 0.39693 0.0
C357 C 0.29256 0.79498 0.39602 0.0
C358 C 0.28884 0.80421 0.37477 0.0
C359 C 0.29677 0.76859 0.35501 0.0
C360 C 0.30049 0.75939 0.37616 0.0
C361 C 0.29064 0.80255 0.3322 0.0
O362 O 0.29155 0.75893 0.27926 0.0
O363 O 0.32289 0.74986 0.26497 0.0
O364 O 0.36161 0.78763 0.2829 0.0
O365 O 0.33378 0.77654 0.30874 0.0
O366 O 0.33821 0.76344 0.22188 0.0
O367 O 0.36747 0.79649 0.23279 0.0
O368 O 0.34303 0.82594 0.2559 0.0
O369 O 0.3405 0.82899 0.29474 0.0
O370 O 0.29548 0.81165 0.26786 0.0
O371 O 0.30355 0.78643 0.23902 0.0
C372 C 0.30139 0.74261 0.27084 0.0
O373 O 0.31084 0.81721 0.32761 0.0
O374 O 0.27988 0.78731 0.3143 0.0
C375 C 0.35514 0.77975 0.30296 0.0
C376 C 0.35375 0.78933 0.1935 0.0
C377 C 0.34161 0.80448 0.15047 0.0
C378 C 0.35304 0.7859 0.15171 0.0
C379 C 0.35897 0.77827 0.17314 0.0
C380 C 0.34291 0.80829 0.1923 0.0
C381 C 0.33699 0.81586 0.17104 0.0
C382 C 0.35704 0.77957 0.21585 0.0
C383 C 0.34777 0.83921 0.27588 0.0
H384 H 0.29133 0.80575 0.41173 0.0
H385 H 0.28487 0.82188 0.37445 0.0
H386 H 0.29888 0.75838 0.3393 0.0
H387 H 0.3049 0.74196 0.37623 0.0
H388 H 0.35673 0.77675 0.13613 0.0
H389 H 0.36704 0.76336 0.17379 0.0
H390 H 0.3385 0.81687 0.20783 0.0
H391 H 0.32863 0.83055 0.17071 0.0
Tb392 Tb 0.55023 0.04924 0.55175 0.0
Tb393 Tb 0.6034 0.05931 0.53485 0.0
C394 C 0.58933 0.03526 0.5808 0.0
C395 C 0.4953 0.06065 0.56524 0.0
C396 C 0.46644 0.0921 0.56344 0.0
C397 C 0.45762 0.06721 0.56948 0.0
C398 C 0.47196 0.05161 0.57035 0.0
C399 C 0.50433 0.08555 0.55958 0.0
C400 C 0.49004 0.10117 0.55872 0.0
C401 C 0.50989 0.04383 0.56465 0.0
O402 O 0.57179 0.08594 0.56736 0.0
O403 O 0.59879 0.09608 0.54082 0.0
O404 O 0.58009 0.05935 0.50483 0.0
O405 O 0.55136 0.07109 0.52217 0.0
O406 O 0.63973 0.07635 0.54178 0.0
O407 O 0.62511 0.05456 0.50942 0.0
O408 O 0.58802 0.0187 0.53238 0.0
O409 O 0.5492 0.01705 0.52829 0.0
O410 O 0.56707 0.02818 0.57319 0.0
O411 O 0.60505 0.05231 0.57105 0.0
C412 C 0.58744 0.1027 0.55726 0.0
O413 O 0.51374 0.03651 0.54404 0.0
O414 O 0.52903 0.05089 0.57865 0.0
C415 C 0.56219 0.06827 0.50388 0.0
C416 C 0.66085 0.05161 0.52518 0.0
C417 C 0.69139 0.02206 0.5271 0.0
C418 C 0.69726 0.04453 0.51605 0.0
C419 C 0.68206 0.05918 0.51508 0.0
C420 C 0.65508 0.02953 0.53663 0.0
C421 C 0.67023 0.01485 0.53759 0.0
C422 C 0.64419 0.06597 0.52269 0.0
C423 C 0.56588 1.0065 0.52607 0.0
H424 H 0.43961 0.05979 0.57347 0.0
H425 H 0.46476 0.0324 0.57472 0.0
H426 H 0.52232 0.09273 0.55541 0.0
H427 H 0.49729 0.1201 0.55372 0.0
H428 H 0.71357 0.05076 0.5081 0.0
H429 H 0.6867 0.0762 0.50617 0.0
H430 H 0.63864 0.02339 0.54442 0.0
H431 H 0.66504 0.99751 0.54596 0.0
Tb432 Tb 0.33773 0.28425 0.78814 0.0
Tb433 Tb 0.29176 0.30453 0.78064 0.0
C434 C 0.28706 0.25056 0.79449 0.0
C435 C 0.39471 0.27427 0.78051 0.0
C436 C 0.43376 0.28297 0.75465 0.0
C437 C 0.42494 0.25983 0.76413 0.0
C438 C 0.40557 0.25554 0.77703 0.0
C439 C 0.40367 0.29755 0.77137 0.0
C440 C 0.42317 0.30193 0.75867 0.0
C441 C 0.37299 0.26864 0.79199 0.0
O442 O 0.33405 0.28986 0.75167 0.0
O443 O 0.29457 0.28441 0.74825 0.0
O444 O 0.32061 0.33286 0.76825 0.0
O445 O 0.35122 0.32487 0.7889 0.0
O446 O 0.25662 0.29678 0.76763 0.0
O447 O 0.27636 0.33356 0.78383 0.0
O448 O 0.30607 0.31618 0.81641 0.0
O449 O 0.3263 0.28769 0.8224 0.0
O450 O 0.30655 0.25186 0.78504 0.0
O451 O 0.28012 0.27046 0.79811 0.0
C452 C 0.31403 0.28492 0.73896 0.0
O453 O 0.37033 0.28694 0.80545 0.0
O454 O 0.35399 0.25716 0.77863 0.0
C455 C 0.34259 0.33967 0.77688 0.0
C456 C 0.23692 0.31744 0.79111 0.0
C457 C 0.19991 0.3116 0.81953 0.0
C458 C 0.22191 0.31053 0.82852 0.0
C459 C 0.24019 0.31327 0.8144 0.0
C460 C 0.21521 0.31896 0.78208 0.0
C461 C 0.19681 0.31607 0.79618 0.0
C462 C 0.25567 0.3186 0.77601 0.0
C463 C 0.31655 0.30434 0.83029 0.0
H464 H 0.4329 0.24498 0.76139 0.0
H465 H 0.39873 0.23742 0.78383 0.0
H466 H 0.39526 0.3121 0.77358 0.0
H467 H 0.42944 0.31981 0.75131 0.0
H468 H 0.22503 0.30751 0.84648 0.0
H469 H 0.25682 0.31181 0.82159 0.0
H470 H 0.21236 0.3219 0.76405 0.0
H471 H 0.18 0.31666 0.78864 0.0
Tb472 Tb 0.06169 0.06661 0.55503 0.0
Tb473 Tb 0.06525 0.03768 0.50626 0.0
C474 C 1.01766 0.03203 0.52628 0.0
C475 C 0.06834 0.08094 0.61683 0.0
C476 C 0.08361 0.06727 0.65934 0.0
C477 C 0.0717 0.08548 0.65869 0.0
C478 C 0.06406 0.09224 0.63749 0.0
C479 C 0.08016 0.0628 0.61746 0.0
C480 C 0.08758 0.05591 0.63846 0.0
C481 C 0.05989 0.08689 0.5944 0.0
O482 O 0.05887 0.02787 0.56397 0.0
O483 O 0.07199 1.01217 0.53195 0.0
O484 O 0.09785 0.06735 0.51515 0.0
O485 O 0.0978 0.06641 0.55395 0.0
O486 O 0.04922 0.01939 0.47428 0.0
O487 O 0.08564 0.02355 0.48427 0.0
O488 O 0.05711 0.07218 0.49611 0.0
O489 O 0.06604 0.09642 0.53083 0.0
O490 O 1.02687 0.05461 0.53681 0.0
O491 O 0.03098 0.01995 0.51726 0.0
C492 C 0.06578 1.01007 0.55334 0.0
O493 O 0.07616 0.09625 0.58087 0.0
O494 O 0.04263 0.06883 0.58351 0.0
C495 C 0.10917 0.07196 0.53566 0.0
C496 C 0.075 0.02748 0.44538 0.0
C497 C 0.08092 0.04458 0.40105 0.0
C498 C 0.08493 0.0218 0.40618 0.0
C499 C 0.08181 1.01323 0.42815 0.0
C500 C 0.07265 0.05099 0.44086 0.0
C501 C 0.07539 0.05938 0.41892 0.0
C502 C 0.06887 0.01727 0.4675 0.0
C503 C 0.06145 0.09434 0.5081 0.0
H504 H 0.06855 0.09468 0.6745 0.0
H505 H 0.05484 0.10621 0.63723 0.0
H506 H 0.08354 0.05381 0.60164 0.0
H507 H 0.09623 0.04145 0.63828 0.0
H508 H 0.0897 1.01015 0.39304 0.0
H509 H 0.08399 0.99516 0.43147 0.0
H510 H 0.06761 0.06237 0.45401 0.0
H511 H 0.07177 0.0768 0.41577 0.0
Tb512 Tb 0.32741 0.82363 0.76977 0.0
Tb513 Tb 0.30085 0.77189 0.791 0.0
C514 C 0.32325 0.77165 0.74408 0.0
C515 C 0.34834 0.89067 0.7597 0.0
C516 C 0.34289 0.93851 0.7685 0.0
C517 C 0.35008 0.93176 0.74722 0.0
C518 C 0.35283 0.90794 0.74287 0.0
C519 C 0.34195 0.89768 0.78118 0.0
C520 C 0.33934 0.92138 0.78558 0.0
C521 C 0.34878 0.86486 0.75448 0.0
O522 O 0.28944 0.82103 0.76401 0.0
O523 O 0.27319 0.77878 0.76738 0.0
O524 O 0.29031 0.80081 0.80955 0.0
O525 O 0.32183 0.83455 0.80481 0.0
O526 O 0.27945 0.73429 0.78642 0.0
O527 O 0.29218 0.75267 0.82052 0.0
O528 O 0.33715 0.78329 0.80833 0.0
O529 O 0.3561 0.80842 0.78179 0.0
O530 O 0.32232 0.79452 0.74206 0.0
O531 O 0.31929 0.76087 0.76336 0.0
C532 C 0.27094 0.80047 0.76128 0.0
O533 O 0.35734 0.85509 0.77134 0.0
O534 O 0.32939 0.84924 0.74442 0.0
C535 C 0.30345 0.82393 0.81561 0.0
C536 C 0.29143 0.71025 0.81397 0.0
C537 C 0.31631 0.67542 0.82098 0.0
C538 C 0.31703 0.6941 0.83855 0.0
C539 C 0.30467 0.71135 0.8351 0.0
C540 C 0.28903 0.6902 0.79727 0.0
C541 C 0.30144 0.67306 0.80068 0.0
C542 C 0.28232 0.73121 0.80833 0.0
C543 C 0.35695 0.79534 0.79982 0.0
H544 H 0.35291 0.9446 0.73377 0.0
H545 H 0.35773 0.90274 0.72617 0.0
H546 H 0.33819 0.88451 0.7943 0.0
H547 H 0.33323 0.92567 0.80193 0.0
H548 H 0.32792 0.69607 0.85459 0.0
H549 H 0.30647 0.72627 0.84853 0.0
H550 H 0.27866 0.68858 0.78096 0.0
H551 H 0.30054 0.65903 0.78668 0.0
Tb552 Tb 0.56442 0.03793 0.06058 0.0
Tb553 Tb 0.55873 0.06145 0.01216 0.0
C554 C 0.60692 0.06677 0.03714 0.0
C555 C 0.58023 0.03778 0.12176 0.0
C556 C 0.58721 0.0673 0.16393 0.0
C557 C 0.59322 0.07874 0.14348 0.0
C558 C 0.58972 0.06407 0.12253 0.0
C559 C 0.57602 0.02616 0.14228 0.0
C560 C 0.57959 0.04083 0.16329 0.0
C561 C 0.57146 0.02317 0.09953 0.0
O562 O 0.55641 0.07353 0.07032 0.0
O563 O 0.56633 0.09416 0.03784 0.0
O564 O 0.5258 0.05283 0.0279 0.0
O565 O 0.52918 0.01901 0.04573 0.0
O566 O 0.57145 0.08613 0.98694 0.0
O567 O 0.53542 0.06246 0.98413 0.0
O568 O 0.55526 0.02173 1.00147 0.0
O569 O 0.57007 1.00976 0.03483 0.0
O570 O 0.59621 0.06691 0.05582 0.0
O571 O 0.59477 0.06053 0.01698 0.0
C572 C 0.56123 0.09449 0.05955 0.0
O573 O 0.55116 0.02449 0.09121 0.0
O574 O 0.5864 0.02613 0.08392 0.0
C575 C 0.51615 0.03152 0.03657 0.0
C576 C 0.55327 0.06872 0.95007 0.0
C577 C 0.55186 0.04725 0.90493 0.0
C578 C 0.5409 0.06587 0.90926 0.0
C579 C 0.54155 0.07648 0.93174 0.0
C580 C 0.56441 0.05037 0.94583 0.0
C581 C 0.56379 0.03979 0.92344 0.0
C582 C 0.55175 0.07772 0.9738 0.0
C583 C 0.56313 1.00541 0.01246 0.0
H584 H 0.59923 0.09906 0.14351 0.0
H585 H 0.59301 0.07333 0.10676 0.0
H586 H 0.56855 1.0059 0.14191 0.0
H587 H 0.57453 0.03149 0.17871 0.0
H588 H 0.5315 0.0719 0.89536 0.0
H589 H 0.53254 0.09036 0.93489 0.0
H590 H 0.57331 0.04397 0.95989 0.0
H591 H 0.57284 0.0259 0.92063 0.0
Tb592 Tb 0.30234 0.27301 0.27434 0.0
Tb593 Tb 0.32847 0.32847 0.29888 0.0
C594 C 0.30792 0.3201 0.24769 0.0
C595 C 0.29009 0.20805 0.24779 0.0
C596 C 0.30782 0.16719 0.24175 0.0
C597 C 0.28522 0.16347 0.24884 0.0
C598 C 0.27638 0.1838 0.25177 0.0
C599 C 0.31218 0.21157 0.23957 0.0
C600 C 0.32091 0.19126 0.23644 0.0
C601 C 0.2822 0.22972 0.25437 0.0
O602 O 0.338 0.28164 0.2619 0.0
O603 O 0.35812 0.31604 0.2868 0.0
O604 O 0.31959 0.30315 0.32563 0.0
O605 O 0.32165 0.26771 0.30583 0.0
O606 O 0.33547 0.36754 0.30074 0.0
O607 O 0.35265 0.35025 0.32571 0.0
O608 O 0.29048 0.32402 0.30294 0.0
O609 O 0.27503 0.28125 0.29446 0.0
O610 O 0.29262 0.29966 0.25325 0.0
O611 O 0.32609 0.33211 0.26208 0.0
C612 C 0.35806 0.29865 0.27015 0.0
O613 O 0.28286 0.23522 0.27651 0.0
O614 O 0.29046 0.24978 0.24355 0.0
C615 C 0.32243 0.28088 0.32548 0.0
C616 C 0.34159 0.3854 0.33863 0.0
C617 C 0.32245 0.41917 0.36157 0.0
C618 C 0.34659 0.42627 0.35847 0.0
C619 C 0.35599 0.40959 0.3466 0.0
C620 C 0.31875 0.37689 0.34527 0.0
C621 C 0.30919 0.39364 0.35659 0.0
C622 C 0.34859 0.37093 0.32022 0.0
C623 C 0.2727 0.3029 0.30277 0.0
H624 H 0.2748 0.14507 0.253 0.0
H625 H 0.2593 0.1808 0.25814 0.0
H626 H 0.32317 0.23017 0.23656 0.0
H627 H 0.33855 0.19477 0.23134 0.0
H628 H 0.35764 0.44545 0.363 0.0
H629 H 0.37387 0.41625 0.34201 0.0
H630 H 0.30755 0.35803 0.33962 0.0
H631 H 0.29064 0.38708 0.35878 0.0
Tb632 Tb 0.56189 0.5628 0.05443 0.0
Tb633 Tb 0.56665 0.53462 0.00569 0.0
C634 C 0.51871 0.52723 0.02536 0.0
C635 C 0.56839 0.57748 0.11619 0.0
C636 C 0.58575 0.56595 0.15877 0.0
C637 C 0.57224 0.58265 0.15805 0.0
C638 C 0.5636 0.58839 0.13683 0.0
C639 C 0.58167 0.5607 0.1169 0.0
C640 C 0.59018 0.55491 0.13794 0.0
C641 C 0.55925 0.58266 0.09374 0.0
O642 O 0.55989 0.52424 0.06331 0.0
O643 O 0.57375 0.50931 0.03138 0.0
O644 O 0.59875 0.56489 0.01495 0.0
O645 O 0.59835 0.5638 0.05373 0.0
O646 O 0.55119 0.51635 0.97352 0.0
O647 O 0.58768 0.52121 0.98393 0.0
O648 O 0.55769 0.56869 0.99554 0.0
O649 O 0.56583 0.59269 0.03036 0.0
O650 O 0.52729 0.54999 0.0357 0.0
O651 O 0.53258 0.51575 0.01654 0.0
C652 C 0.56727 0.50682 0.05265 0.0
O653 O 0.57516 0.59281 0.08011 0.0
O654 O 0.54262 0.56385 0.08298 0.0
C655 C 0.60984 0.56979 0.03558 0.0
C656 C 0.57732 0.52508 0.94494 0.0
C657 C 0.58363 0.54243 0.90073 0.0
C658 C 0.58809 0.5199 0.90599 0.0
C659 C 0.58479 0.51122 0.92791 0.0
C660 C 0.57446 0.54835 0.94032 0.0
C661 C 0.57739 0.55685 0.91843 0.0
C662 C 0.57109 0.5147 0.96698 0.0
C663 C 0.5615 0.5907 0.00762 0.0
H664 H 0.56867 0.59154 0.17384 0.0
H665 H 0.55326 0.60129 0.13651 0.0
H666 H 0.58542 0.55198 0.10111 0.0
H667 H 0.60011 0.5416 0.13788 0.0
H668 H 0.59339 0.50854 0.893 0.0
H669 H 0.58736 0.49334 0.93131 0.0
H670 H 0.5689 0.55944 0.95332 0.0
H671 H 0.57339 0.57405 0.91518 0.0
Tb672 Tb 0.82782 0.32384 0.26806 0.0
Tb673 Tb 0.80191 0.27468 0.29373 0.0
C674 C 0.82339 0.2697 0.24692 0.0
C675 C 0.84541 0.38813 0.2484 0.0
C676 C 0.83751 0.43512 0.25472 0.0
C677 C 0.85878 0.43208 0.26348 0.0
C678 C 0.86276 0.40879 0.26021 0.0
C679 C 0.82488 0.39169 0.23819 0.0
C680 C 0.821 0.41501 0.24128 0.0
C681 C 0.84806 0.36276 0.24873 0.0
O682 O 0.7899 0.32124 0.26283 0.0
O683 O 0.77381 0.27976 0.26943 0.0
O684 O 0.79235 0.30532 0.31047 0.0
O685 O 0.82312 0.33825 0.30224 0.0
O686 O 0.78082 0.23696 0.29208 0.0
O687 O 0.79356 0.25872 0.32487 0.0
O688 O 0.83877 0.28694 0.30973 0.0
O689 O 0.85685 0.30984 0.28133 0.0
O690 O 0.82233 0.29212 0.24295 0.0
O691 O 0.81957 0.26075 0.26701 0.0
C692 C 0.77141 0.30079 0.26174 0.0
O693 O 0.85566 0.3573 0.2686 0.0
O694 O 0.83085 0.34405 0.23864 0.0
C695 C 0.80551 0.32876 0.31441 0.0
C696 C 0.79308 0.21631 0.32189 0.0
C697 C 0.81396 0.17794 0.32725 0.0
C698 C 0.79008 0.17193 0.31942 0.0
C699 C 0.77971 0.19102 0.31678 0.0
C700 C 0.81646 0.22219 0.33128 0.0
C701 C 0.82677 0.20316 0.33405 0.0
C702 C 0.78371 0.2363 0.3144 0.0
C703 C 0.8582 0.2981 0.30017 0.0
H704 H 0.87186 0.44738 0.27373 0.0
H705 H 0.87888 0.40657 0.26797 0.0
H706 H 0.81124 0.3762 0.22881 0.0
H707 H 0.80434 0.41673 0.23452 0.0
H708 H 0.7798 0.15261 0.31418 0.0
H709 H 0.76166 0.18613 0.30949 0.0
H710 H 0.82725 0.24158 0.3352 0.0
H711 H 0.84527 0.20845 0.33981 0.0
Tb712 Tb 0.0595 0.54166 0.55505 0.0
Tb713 Tb 0.06174 0.56867 0.50763 0.0
C714 C 0.10638 0.57044 0.53768 0.0
C715 C 0.06588 0.53312 0.617 0.0
C716 C 0.07302 0.55047 0.66407 0.0
C717 C 0.0787 0.52878 0.65644 0.0
C718 C 0.07498 0.52008 0.63307 0.0
C719 C 0.06209 0.55588 0.62422 0.0
C720 C 0.06549 0.56441 0.64755 0.0
C721 C 0.05966 0.5225 0.59295 0.0
O722 O 0.05241 0.57756 0.56519 0.0
O723 O 0.06674 0.59967 0.5347 0.0
O724 O 1.02642 0.56079 0.51782 0.0
O725 O 1.02603 0.52539 0.53503 0.0
O726 O 0.07715 0.59943 0.48919 0.0
O727 O 0.04694 0.56924 0.47403 0.0
O728 O 0.05865 0.52919 0.49581 0.0
O729 O 0.06686 0.51402 0.53015 0.0
O730 O 0.09366 0.56899 0.55512 0.0
O731 O 0.09641 0.56561 0.51653 0.0
C732 C 0.05933 0.59912 0.55554 0.0
O733 O 0.04116 0.52632 0.58262 0.0
O734 O 0.07697 0.52634 0.57992 0.0
C735 C 1.01486 0.53909 0.52469 0.0
C736 C 0.07574 0.5875 0.4499 0.0
C737 C 0.09925 0.58342 0.41064 0.0
C738 C 0.08003 0.59289 0.40935 0.0
C739 C 0.06838 0.59502 0.42896 0.0
C740 C 0.09468 0.5777 0.45113 0.0
C741 C 0.10643 0.5758 0.43167 0.0
C742 C 0.06355 0.58949 0.47043 0.0
C743 C 0.06334 0.51131 0.50735 0.0
H744 H 0.08501 0.51789 0.66862 0.0
H745 H 0.07845 0.50273 0.62766 0.0
H746 H 0.05547 0.5665 0.61198 0.0
H747 H 0.06068 0.58103 0.65267 0.0
H748 H 0.07422 0.59886 0.39328 0.0
H749 H 0.05368 0.60249 0.42781 0.0
H750 H 0.10037 0.5715 0.46714 0.0
H751 H 0.12092 0.56801 0.43298 0.0
Tb752 Tb 0.84446 0.79169 0.2896 0.0
Tb753 Tb 0.79727 0.80966 0.28219 0.0
C754 C 0.79501 0.75617 0.2977 0.0
C755 C 0.90047 0.7814 0.27902 0.0
C756 C 0.93772 0.78986 0.25072 0.0
C757 C 0.9417 0.78816 0.27456 0.0
C758 C 0.92318 0.78395 0.2886 0.0
C759 C 0.89632 0.7827 0.25522 0.0
C760 C 0.91475 0.78671 0.24117 0.0
C761 C 0.8816 0.77959 0.29409 0.0
O762 O 0.82899 0.77765 0.25449 0.0
O763 O 0.80836 0.80555 0.24791 0.0
O764 O 0.8276 0.8431 0.28497 0.0
O765 O 0.85439 0.82535 0.27147 0.0
O766 O 0.76366 0.80406 0.26573 0.0
O767 O 0.78019 0.83645 0.2899 0.0
O768 O 0.80207 0.80645 0.31897 0.0
O769 O 0.84166 0.81223 0.32183 0.0
O770 O 0.81741 0.76407 0.30473 0.0
O771 O 0.78512 0.7692 0.28466 0.0
C772 C 0.81802 0.78874 0.24032 0.0
O773 O 0.87987 0.80118 0.30217 0.0
O774 O 0.86119 0.76376 0.28657 0.0
C775 C 0.8473 0.84503 0.27573 0.0
C776 C 0.74016 0.8173 0.29103 0.0
C777 C 0.70299 0.8092 0.3193 0.0
C778 C 0.70588 0.82724 0.30303 0.0
C779 C 0.72441 0.83129 0.28901 0.0
C780 C 0.73707 0.79891 0.30685 0.0
C781 C 0.7186 0.79485 0.32084 0.0
C782 C 0.7608 0.82307 0.27801 0.0
C783 C 0.8223 0.81175 0.33135 0.0
H784 H 0.95921 0.79084 0.28252 0.0
H785 H 0.92668 0.78333 0.307 0.0
H786 H 0.8789 0.78106 0.24757 0.0
H787 H 0.911 0.78751 0.22284 0.0
H788 H 0.69428 0.83876 0.30164 0.0
H789 H 0.72675 0.84571 0.27701 0.0
H790 H 0.74921 0.78803 0.30867 0.0
H791 H 0.71663 0.78058 0.33296 0.0
Tb792 Tb 0.79322 0.27408 0.80046 0.0
Tb793 Tb 0.82156 0.26468 0.75578 0.0
C794 C 0.77514 0.27956 0.7503 0.0
C795 C 0.77905 0.27357 0.85984 0.0
C796 C 0.79407 0.26387 0.90415 0.0
C797 C 0.78292 0.28252 0.90145 0.0
C798 C 0.77552 0.28738 0.87941 0.0
C799 C 0.78969 0.2546 0.8625 0.0
C800 C 0.79702 0.24971 0.88443 0.0
C801 C 0.77461 0.28095 0.8367 0.0
O802 O 0.7889 0.23398 0.79683 0.0
O803 O 0.79364 0.23017 0.75822 0.0
O804 O 0.83752 0.25057 0.78441 0.0
O805 O 0.82789 0.27429 0.81354 0.0
O806 O 0.81991 0.2474 0.72246 0.0
O807 O 0.85269 0.27159 0.73931 0.0
O808 O 0.83853 0.30286 0.77079 0.0
O809 O 0.80765 0.3106 0.78755 0.0
O810 O 0.76922 0.27071 0.7701 0.0
O811 O 0.79636 0.28318 0.74386 0.0
C812 C 0.78618 0.22027 0.77714 0.0
O813 O 0.79249 0.2976 0.82967 0.0
O814 O 0.76488 0.26261 0.82075 0.0
C815 C 0.84024 0.26013 0.80597 0.0
C816 C 0.84399 0.2754 0.70009 0.0
C817 C 0.84194 0.30175 0.66074 0.0
C818 C 0.84905 0.27988 0.65947 0.0
C819 C 0.84996 0.26672 0.67902 0.0
C820 C 0.83774 0.29765 0.70162 0.0
C821 C 0.83664 0.31064 0.68216 0.0
C822 C 0.84149 0.26009 0.71982 0.0
C823 C 0.82819 0.31853 0.77944 0.0
H824 H 0.78055 0.29385 0.91629 0.0
H825 H 0.76772 0.3024 0.8776 0.0
H826 H 0.7929 0.24399 0.84755 0.0
H827 H 0.80515 0.23491 0.8859 0.0
H828 H 0.85353 0.27269 0.64332 0.0
H829 H 0.85466 0.24945 0.67755 0.0
H830 H 0.83283 0.30449 0.71772 0.0
H831 H 0.83064 0.32706 0.68379 0.0
Tb832 Tb 0.80306 0.77726 0.77602 0.0
Tb833 Tb 0.82975 0.83289 0.79972 0.0
C834 C 0.80815 0.82331 0.74912 0.0
C835 C 0.79176 0.71326 0.74816 0.0
C836 C 0.80972 0.67281 0.74025 0.0
C837 C 0.78592 0.66832 0.74376 0.0
C838 C 0.77699 0.68846 0.74769 0.0
C839 C 0.81522 0.71777 0.74354 0.0
C840 C 0.8241 0.6977 0.73951 0.0
C841 C 0.78324 0.73424 0.75543 0.0
O842 O 0.83866 0.78609 0.76315 0.0
O843 O 0.85931 0.81999 0.7883 0.0
O844 O 0.82201 0.80843 0.82732 0.0
O845 O 0.82202 0.77195 0.80768 0.0
O846 O 0.83609 0.87178 0.79985 0.0
O847 O 0.85406 0.85624 0.82563 0.0
O848 O 0.7919 0.82813 0.80477 0.0
O849 O 0.77567 0.7854 0.79614 0.0
O850 O 0.79243 0.80425 0.75624 0.0
O851 O 0.82721 0.8347 0.76255 0.0
C852 C 0.85895 0.8027 0.77147 0.0
O853 O 0.78413 0.7392 0.77768 0.0
O854 O 0.79101 0.75463 0.74493 0.0
C855 C 0.82365 0.78563 0.82723 0.0
C856 C 0.84214 0.89131 0.83706 0.0
C857 C 0.82011 0.92336 0.85834 0.0
C858 C 0.8434 0.93291 0.85265 0.0
C859 C 0.85421 0.91698 0.84169 0.0
C860 C 0.82054 0.88117 0.84599 0.0
C861 C 0.80955 0.89707 0.85654 0.0
C862 C 0.84944 0.87636 0.81926 0.0
C863 C 0.77386 0.80722 0.80467 0.0
H864 H 0.77445 0.6493 0.74432 0.0
H865 H 0.75884 0.68472 0.75124 0.0
H866 H 0.82694 0.7368 0.744 0.0
H867 H 0.84259 0.7018 0.73726 0.0
H868 H 0.85233 0.95298 0.85448 0.0
H869 H 0.87106 0.92502 0.83512 0.0
H870 H 0.81112 0.86127 0.84276 0.0
H871 H 0.79171 0.88885 0.86071 0.0
Tb872 Tb 0.5947 0.57523 0.55327 0.0
Tb873 Tb 0.54916 0.53272 0.52446 0.0
C874 C 0.54483 0.5641 0.56956 0.0
C875 C 0.65222 0.59823 0.58409 0.0
C876 C 0.68887 0.57659 0.58721 0.0
C877 C 0.69173 0.59904 0.5765 0.0
C878 C 0.67349 0.6098 0.57497 0.0
C879 C 0.65049 0.57743 0.59706 0.0
C880 C 0.66869 0.56676 0.59863 0.0
C881 C 0.63088 0.60424 0.5759 0.0
O882 O 0.58929 0.54 0.56937 0.0
O883 O 0.57199 0.51248 0.53792 0.0
O884 O 0.57693 0.54061 0.50151 0.0
O885 O 0.60875 0.55441 0.52853 0.0
O886 O 0.52364 0.49744 0.52343 0.0
O887 O 0.52525 0.52059 0.4949 0.0
O888 O 0.54409 0.5689 0.51954 0.0
O889 O 0.58235 0.59433 0.52611 0.0
O890 O 0.56402 0.58179 0.56622 0.0
O891 O 0.53905 0.54164 0.55835 0.0
C892 C 0.58382 0.51754 0.55828 0.0
O893 O 0.62712 0.60329 0.55349 0.0
O894 O 0.61175 0.59305 0.58526 0.0
C895 C 0.59941 0.54534 0.50758 0.0
C896 C 0.48802 0.49939 0.50545 0.0
C897 C 0.44283 0.50452 0.50612 0.0
C898 C 0.45003 0.49564 0.48566 0.0
C899 C 0.47251 0.49309 0.48535 0.0
C900 C 0.48044 0.50709 0.52609 0.0
C901 C 0.45808 0.50954 0.52645 0.0
C902 C 0.5128 0.50103 0.50438 0.0
C903 C 0.56049 0.5902 0.51777 0.0
H904 H 0.70711 0.60698 0.56752 0.0
H905 H 0.67523 0.62583 0.56491 0.0
H906 H 0.63441 0.5681 0.60445 0.0
H907 H 0.66623 0.54967 0.60731 0.0
H908 H 0.43861 0.49152 0.46976 0.0
H909 H 0.47814 0.48728 0.46922 0.0
H910 H 0.49218 0.5124 0.54177 0.0
H911 H 0.45338 0.51694 0.5424 0.0
Tb912 Tb 0.04526 0.54462 0.04958 0.0
Tb913 Tb 0.09788 0.55544 0.0313 0.0
C914 C 0.08641 0.53566 0.0797 0.0
C915 C 0.99022 0.55563 0.06228 0.0
C916 C 0.9614 0.58705 0.0594 0.0
C917 C 0.95274 0.56265 0.06664 0.0
C918 C 0.96708 0.54706 0.06806 0.0
C919 C 0.99902 0.57998 0.05523 0.0
C920 C 0.98474 0.59557 0.05382 0.0
C921 C 1.00501 0.53901 0.06268 0.0
O922 O 0.06581 0.58293 0.0625 0.0
O923 O 0.09224 0.59181 0.03522 0.0
O924 O 0.07311 0.55148 1.00137 0.0
O925 O 0.04499 0.56415 0.01873 0.0
O926 O 0.13413 0.57386 0.03642 0.0
O927 O 0.1189 0.54899 0.0058 0.0
O928 O 0.08469 0.5152 0.03299 0.0
O929 O 0.04521 0.51038 0.02923 0.0
O930 O 0.06392 0.52733 0.07311 0.0
O931 O 0.10121 0.55177 0.0682 0.0
C932 C 0.08108 0.59916 0.05147 0.0
O933 O 1.00874 0.53056 0.0424 0.0
O934 O 1.02429 0.54712 0.07645 0.0
C935 C 0.05489 0.55987 1.00024 0.0
C936 C 0.15432 0.54667 0.02274 0.0
C937 C 0.18214 0.51453 0.02809 0.0
C938 C 0.18746 0.53328 0.0125 0.0
C939 C 0.17358 0.54922 0.00981 0.0
C940 C 0.14928 0.52841 0.03868 0.0
C941 C 0.16311 0.51254 0.04141 0.0
C942 C 0.1382 0.56135 0.01836 0.0
C943 C 0.06289 0.50113 0.02795 0.0
H944 H 0.93491 0.55566 0.07128 0.0
H945 H 0.96006 0.52826 0.07349 0.0
H946 H 1.01685 0.5868 0.05052 0.0
H947 H 0.99184 0.61409 0.04786 0.0
H948 H 0.20186 0.53509 0.00184 0.0
H949 H 0.1775 0.56306 0.99726 0.0
H950 H 0.1343 0.52607 0.04866 0.0
H951 H 0.15877 0.49856 0.0538 0.0
H952 H 0.04517 0.23333 0.98306 0.0
H953 H 1.01314 0.08516 0.993 0.0
H954 H 0.99034 0.17882 0.93867 0.0
H955 H 0.08 0.13826 0.0188 0.0
H956 H 1.00135 0.11961 0.9773 0.0
H957 H 0.05462 0.19888 1.00119 0.0
C958 C 0.03494 0.21413 0.9773 0.0
C959 C 1.01701 0.20891 0.95924 0.0
C960 C 1.01859 0.12366 0.98638 0.0
C961 C 0.02781 0.16947 0.97986 0.0
C962 C 1.02534 0.10405 0.99537 0.0
C963 C 0.04764 0.10884 0.00713 0.0
C964 C 0.03415 0.14826 0.98946 0.0
C965 C 0.06272 0.13367 0.0097 0.0
C966 C 0.04046 0.19449 0.98755 0.0
C967 C 1.00439 0.18366 0.95244 0.0
N968 N 0.05566 0.15247 1.001 0.0
N969 N 1.01005 0.16484 0.96275 0.0
H970 H 0.16447 0.76508 0.15789 0.0
H971 H 0.26868 0.83653 0.25153 0.0
H972 H 0.17958 0.84436 0.17822 0.0
H973 H 0.27014 0.77223 0.2072 0.0
H974 H 0.23427 0.83865 0.22753 0.0
H975 H 0.20138 0.76586 0.1789 0.0
C976 C 0.17558 0.78265 0.16678 0.0
C977 C 0.169 0.80468 0.1664 0.0
C978 C 0.24231 0.82425 0.223 0.0
C979 C 0.21104 0.80564 0.19054 0.0
C980 C 0.26185 0.82297 0.2367 0.0
C981 C 0.27218 0.80409 0.23141 0.0
C982 C 0.23284 0.80624 0.20422 0.0
C983 C 0.26273 0.78709 0.21192 0.0
C984 C 0.19667 0.78311 0.17864 0.0
C985 C 0.18409 0.82698 0.17808 0.0
N986 N 0.2434 0.78838 0.19918 0.0
N987 N 0.20436 0.82685 0.18991 0.0
H988 H 0.50022 0.86632 0.44368 0.0
H989 H 0.59275 0.97454 0.52661 0.0
H990 H 0.55735 0.85327 0.48488 0.0
H991 H 0.52421 0.97838 0.50296 0.0
H992 H 0.58156 0.93103 0.50942 0.0
H993 H 0.51007 0.90852 0.4634 0.0
C994 C 0.51477 0.8723 0.45695 0.0
C995 C 0.52803 0.85631 0.46263 0.0
C996 C 0.56896 0.9414 0.50813 0.0
C997 C 0.53951 0.90462 0.48508 0.0
C998 C 0.57536 0.96625 0.51782 0.0
C999 C 0.55939 0.98012 0.51617 0.0
C1000 C 0.54658 0.93051 0.49645 0.0
C1001 C 0.53706 0.96839 0.50469 0.0
C1002 C 0.52035 0.89636 0.46824 0.0
C1003 C 0.54665 0.86499 0.48002 0.0
N1004 N 0.53138 0.94431 0.49513 0.0
N1005 N 0.55198 0.88868 0.49051 0.0
H1006 H 0.51824 0.27262 0.64271 0.0
H1007 H 0.47277 0.32403 0.75558 0.0
H1008 H 0.56167 0.33462 0.68943 0.0
H1009 H 0.43865 0.25101 0.71939 0.0
H1010 H 0.50398 0.33057 0.7295 0.0
H1011 H 0.48705 0.26688 0.66856 0.0
C1012 C 0.52118 0.2851 0.65835 0.0
C1013 C 0.5426 0.30409 0.66397 0.0
C1014 C 0.4897 0.31308 0.72735 0.0
C1015 C 0.507 0.29761 0.69358 0.0
C1016 C 0.47189 0.30939 0.74214 0.0
C1017 C 0.45321 0.28691 0.73965 0.0
C1018 C 0.48862 0.29428 0.70978 0.0
C1019 C 0.45292 0.26848 0.72206 0.0
C1020 C 0.50341 0.28173 0.67315 0.0
C1021 C 0.54546 0.31968 0.68449 0.0
N1022 N 0.47031 0.27262 0.70772 0.0
N1023 N 0.52783 0.31612 0.69855 0.0
H1024 H 0.07094 0.85976 0.58743 0.0
H1025 H 0.05738 1.00001 0.59887 0.0
H1026 H 0.05841 0.89342 0.65186 0.0
H1027 H 0.07476 0.96601 0.53699 0.0
H1028 H 0.05718 0.96214 0.61848 0.0
H1029 H 0.07181 0.89825 0.56936 0.0
C1030 C 0.06836 0.87519 0.59799 0.0
C1031 C 0.06459 0.8727 0.62154 0.0
C1032 C 0.06107 0.96289 0.60063 0.0
C1033 C 0.06551 0.91813 0.6002 0.0
C1034 C 0.06119 0.9847 0.58926 0.0
C1035 C 0.0661 0.98675 0.56591 0.0
C1036 C 0.06578 0.94237 0.58881 0.0
C1037 C 0.0709 0.96581 0.55486 0.0
C1038 C 0.06888 0.89744 0.58746 0.0
C1039 C 0.06143 0.89399 0.63378 0.0
N1040 N 0.07054 0.94484 0.56624 0.0
N1041 N 0.0619 0.9155 0.62306 0.0
H1042 H 0.50819 0.80643 0.836 0.0
H1043 H 0.36639 0.77235 0.83888 0.0
H1044 H 0.46978 0.77309 0.89174 0.0
H1045 H 0.40256 0.81515 0.78628 0.0
H1046 H 0.40413 0.77063 0.85659 0.0
H1047 H 0.47077 0.80789 0.81599 0.0
C1048 C 0.49207 0.7992 0.84405 0.0
C1049 C 0.49275 0.78957 0.86591 0.0
C1050 C 0.40398 0.78044 0.84116 0.0
C1051 C 0.44907 0.79124 0.84271 0.0
C1052 C 0.38217 0.78143 0.8309 0.0
C1053 C 0.38066 0.79401 0.81081 0.0
C1054 C 0.42517 0.79193 0.8315 0.0
C1055 C 0.40235 0.80524 0.80168 0.0
C1056 C 0.47054 0.80016 0.83258 0.0
C1057 C 0.47076 0.78078 0.87512 0.0
N1058 N 0.42336 0.80391 0.81193 0.0
N1059 N 0.45031 0.78179 0.86367 0.0
H1060 H 0.53926 0.21873 0.15054 0.0
H1061 H 0.57697 0.14228 0.04502 0.0
H1062 H 0.58708 0.25336 0.10173 0.0
H1063 H 0.5454 0.10448 0.10237 0.0
H1064 H 0.57691 0.18245 0.06414 0.0
H1065 H 0.53721 0.17685 0.13203 0.0
C1066 C 0.5491 0.21769 0.13582 0.0
C1067 C 0.56333 0.24005 0.12782 0.0
C1068 C 0.56995 0.16545 0.07266 0.0
C1069 C 0.56105 0.19166 0.10633 0.0
C1070 C 0.56993 0.14225 0.06164 0.0
C1071 C 0.56119 0.11944 0.07186 0.0
C1072 C 0.56087 0.16649 0.09424 0.0
C1073 C 0.5524 0.12129 0.09362 0.0
C1074 C 0.54806 0.19364 0.12533 0.0
C1075 C 0.57585 0.23701 0.10874 0.0
N1076 N 0.55236 0.14417 0.10393 0.0
N1077 N 0.57433 0.21364 0.09879 0.0
H1078 H 0.14829 0.33457 0.36355 0.0
H1079 H 0.23375 0.2621 0.30709 0.0
H1080 H 0.13441 0.25414 0.3554 0.0
H1081 H 0.25698 0.34273 0.32145 0.0
H1082 H 0.19674 0.26043 0.32295 0.0
H1083 H 0.18634 0.33952 0.34688 0.0
C1084 C 0.15292 0.3179 0.35819 0.0
C1085 C 0.1374 0.29379 0.36117 0.0
C1086 C 0.20977 0.27863 0.32269 0.0
C1087 C 0.18181 0.29944 0.34172 0.0
C1088 C 0.23125 0.27964 0.31347 0.0
C1089 C 0.24924 0.30262 0.31257 0.0
C1090 C 0.20529 0.30075 0.33138 0.0
C1091 C 0.24406 0.32445 0.32149 0.0
C1092 C 0.17491 0.32078 0.34869 0.0
C1093 C 0.14521 0.2732 0.35379 0.0
N1094 N 0.22286 0.32297 0.33034 0.0
N1095 N 0.16631 0.2765 0.34461 0.0
H1096 H 1.0015 0.13116 0.18884 0.0
H1097 H 1.00175 0.03295 0.08379 0.0
H1098 H 0.9515 0.05678 0.17639 0.0
H1099 H 0.05063 0.10805 0.0955 0.0
H1100 H 0.97979 0.04328 0.11469 0.0
H1101 H 1.01601 0.12533 0.15141 0.0
C1102 C 0.99332 0.11378 0.17809 0.0
C1103 C 0.97559 0.09425 0.18592 0.0
C1104 C 0.99522 0.05755 0.11035 0.0
C1105 C 0.99224 0.08731 0.14329 0.0
C1106 C 1.0078 0.05163 0.09275 0.0
C1107 C 0.02826 0.06952 0.08729 0.0
C1108 C 1.00325 0.08147 0.12261 0.0
C1109 C 0.03514 0.09352 0.09932 0.0
C1110 C 1.00165 0.11041 0.15675 0.0
C1111 C 0.96548 0.07219 0.1712 0.0
N1112 N 1.02278 0.09871 0.11655 0.0
N1113 N 0.97418 0.06918 0.15072 0.0
H1114 H 0.35016 0.69554 0.50233 0.0
H1115 H 0.27579 0.7716 0.43615 0.0
H1116 H 0.29436 0.71782 0.53136 0.0
H1117 H 0.33423 0.75304 0.40892 0.0
H1118 H 0.28408 0.75464 0.47232 0.0
H1119 H 0.34653 0.71928 0.46921 0.0
C1120 C 0.33732 0.70564 0.50187 0.0
C1121 C 0.32239 0.7045 0.51954 0.0
C1122 C 0.29516 0.75439 0.45847 0.0
C1123 C 0.31798 0.73151 0.48157 0.0
C1124 C 0.29048 0.76416 0.43784 0.0
C1125 C 0.30417 0.76349 0.41938 0.0
C1126 C 0.31365 0.74385 0.46065 0.0
C1127 C 0.32289 0.75344 0.42251 0.0
C1128 C 0.33521 0.71916 0.48292 0.0
C1129 C 0.30613 0.71804 0.51806 0.0
N1130 N 0.32699 0.7439 0.44267 0.0
N1131 N 0.30421 0.73079 0.4993 0.0
H1132 H 0.59517 0.94923 0.69755 0.0
H1133 H 0.63432 0.04108 0.59822 0.0
H1134 H 0.66674 0.99322 0.69109 0.0
H1135 H 0.56226 0.99998 0.60627 0.0
H1136 H 0.64693 0.01953 0.62934 0.0
H1137 H 0.58342 0.96235 0.66061 0.0
C1138 C 0.6085 0.9612 0.68815 0.0
C1139 C 0.63191 0.9705 0.69761 0.0
C1140 C 0.62836 0.01516 0.62426 0.0
C1141 C 0.61854 0.98589 0.65558 0.0
C1142 C 0.62112 0.02759 0.60658 0.0
C1143 C 0.59717 0.02259 0.59984 0.0
C1144 C 0.61153 0.99764 0.63535 0.0
C1145 C 0.5809 1.00461 0.61106 0.0
C1146 C 0.60175 0.96884 0.66713 0.0
C1147 C 0.64843 0.98589 0.68461 0.0
N1148 N 0.58839 0.99289 0.62836 0.0
N1149 N 0.64138 0.99338 0.66441 0.0
H1150 H 0.35241 0.32384 0.97818 0.0
H1151 H 0.29099 0.32952 0.85369 0.0
H1152 H 0.28906 0.34484 0.96812 0.0
H1153 H 0.3421 0.29006 0.86471 0.0
H1154 H 0.29114 0.33689 0.89549 0.0
H1155 H 0.34969 0.31225 0.93667 0.0
C1156 C 0.33778 0.32576 0.96729 0.0
C1157 C 0.32098 0.3354 0.97667 0.0
C1158 C 0.30225 0.32653 0.88876 0.0
C1159 C 0.31797 0.32255 0.92905 0.0
C1160 C 0.30228 0.32243 0.86486 0.0
C1161 C 0.3166 0.30918 0.85561 0.0
C1162 C 0.31687 0.31762 0.90357 0.0
C1163 C 0.33076 0.30034 0.87103 0.0
C1164 C 0.33626 0.31917 0.94358 0.0
C1165 C 0.3024 0.33746 0.96169 0.0
N1166 N 0.33064 0.30485 0.89422 0.0
N1167 N 0.30154 0.33135 0.93861 0.0
H1168 H 1.02566 0.03906 0.26093 0.0
H1169 H 0.09249 0.09196 0.38512 0.0
H1170 H 1.02052 0.10569 0.29903 0.0
H1171 H 0.06537 1.01291 0.36135 0.0
H1172 H 0.07987 0.10227 0.3472 0.0
H1173 H 0.05422 0.03535 0.29145 0.0
C1174 C 0.03098 0.05328 0.27541 0.0
C1175 C 1.02039 0.07245 0.27772 0.0
C1176 C 0.07724 0.08273 0.35026 0.0
C1177 C 0.0531 0.06837 0.3124 0.0
C1178 C 0.08427 0.07675 0.37192 0.0
C1179 C 0.07934 0.05144 0.37682 0.0
C1180 C 0.06567 0.0633 0.33326 0.0
C1181 C 0.06951 0.03268 0.35862 0.0
C1182 C 0.04721 0.05108 0.2928 0.0
C1183 C 0.02799 0.09039 0.29681 0.0
N1184 N 0.0627 0.03899 0.33775 0.0
N1185 N 0.04373 0.08776 0.31359 0.0
H1186 H 0.32764 0.66067 0.63612 0.0
H1187 H 0.34347 0.79186 0.70644 0.0
H1188 H 0.36967 0.73196 0.6156 0.0
H1189 H 0.31772 0.72103 0.73634 0.0
H1190 H 0.35294 0.76982 0.67298 0.0
H1191 H 0.32405 0.6818 0.67308 0.0
C1192 C 0.33634 0.68071 0.63948 0.0
C1193 C 0.3488 0.69463 0.62265 0.0
C1194 C 0.34536 0.75906 0.68689 0.0
C1195 C 0.34452 0.7189 0.66476 0.0
C1196 C 0.33979 0.77163 0.70597 0.0
C1197 C 0.32958 0.75823 0.72413 0.0
C1198 C 0.34044 0.73281 0.68573 0.0
C1199 C 0.3255 0.73207 0.72267 0.0
C1200 C 0.33429 0.69274 0.66059 0.0
C1201 C 0.3598 0.7205 0.62799 0.0
N1202 N 0.33074 0.72014 0.70366 0.0
N1203 N 0.35716 0.73184 0.64848 0.0
H1204 H 0.59788 0.9649 0.80438 0.0
H1205 H 0.5575 0.07137 0.86522 0.0
H1206 H 0.59538 0.03159 0.772 0.0
H1207 H 0.54613 0.99803 0.8905 0.0
H1208 H 0.56438 0.05432 0.82778 0.0
H1209 H 0.57212 0.97311 0.83236 0.0
C1210 C 0.59153 0.98101 0.8029 0.0
C1211 C 0.59925 0.99797 0.78627 0.0
C1212 C 0.55994 0.04181 0.84136 0.0
C1213 C 0.57014 1.00775 0.81842 0.0
C1214 C 0.55594 0.05154 0.86275 0.0
C1215 C 0.55185 0.03624 0.88117 0.0
C1216 C 0.56015 0.01672 0.83852 0.0
C1217 C 0.55003 1.01069 0.87697 0.0
C1218 C 0.57678 0.9857 0.81886 0.0
C1219 C 0.59017 0.01828 0.78483 0.0
N1220 N 0.55463 1.00183 0.85621 0.0
N1221 N 0.57651 0.02296 0.80109 0.0
H1222 H 0.32895 0.40454 0.12769 0.0
H1223 H 0.2813 0.29339 0.20886 0.0
H1224 H 0.29619 0.32736 0.10033 0.0
H1225 H 0.33082 0.36566 0.23285 0.0
H1226 H 0.28186 0.30648 0.16942 0.0
H1227 H 0.32528 0.39141 0.16664 0.0
C1228 C 0.32094 0.38478 0.12985 0.0
C1229 C 0.31295 0.36701 0.11064 0.0
C1230 C 0.29248 0.31947 0.18337 0.0
C1231 C 0.30856 0.35183 0.15548 0.0
C1232 C 0.29205 0.31211 0.2059 0.0
C1233 C 0.30606 0.32846 0.2242 0.0
C1234 C 0.30682 0.34345 0.17918 0.0
C1235 C 0.3198 0.3524 0.2193 0.0
C1236 C 0.31888 0.37729 0.15216 0.0
C1237 C 0.30271 0.34167 0.11463 0.0
N1238 N 0.31982 0.35915 0.19731 0.0
N1239 N 0.30076 0.33482 0.13663 0.0
H1240 H 0.27347 1.00375 0.01631 0.0
H1241 H 0.18733 0.03861 0.09819 0.0
H1242 H 0.25159 0.96184 0.07491 0.0
H1243 H 0.23329 0.09369 0.05991 0.0
H1244 H 0.21042 1.01025 0.09072 0.0
H1245 H 0.25759 0.03631 0.03144 0.0
C1246 C 0.26526 1.00137 0.03235 0.0
C1247 C 0.26364 0.97997 0.04429 0.0
C1248 C 0.21568 0.02872 0.08432 0.0
C1249 C 0.24552 0.0172 0.06171 0.0
C1250 C 0.20263 0.04509 0.08874 0.0
C1251 C 0.20814 0.06853 0.07938 0.0
C1252 C 0.2341 0.03566 0.07012 0.0
C1253 C 0.228 0.07557 0.06695 0.0
C1254 C 0.25643 0.02009 0.04109 0.0
C1255 C 0.2531 0.97802 0.06514 0.0
N1256 N 0.24 0.05902 0.06232 0.0
N1257 N 0.24417 0.99629 0.07308 0.0
H1258 H 0.74581 0.66372 0.00806 0.0
H1259 H 0.63963 0.58563 0.07544 0.0
H1260 H 0.75378 0.65349 0.08066 0.0
H1261 H 0.63773 0.58616 1.00125 0.0
H1262 H 0.68104 0.61114 0.07843 0.0
H1263 H 0.7055 0.63628 0.00592 0.0
C1264 C 0.73908 0.65569 0.02357 0.0
C1265 C 0.75319 0.66093 0.04457 0.0
C1266 C 0.67152 0.60551 0.06153 0.0
C1267 C 0.70692 0.62943 0.04226 0.0
C1268 C 0.64791 0.59096 0.05981 0.0
C1269 C 0.63515 0.58383 0.03808 0.0
C1270 C 0.6823 0.61304 0.04138 0.0
C1271 C 0.64678 0.59126 0.0184 0.0
C1272 C 0.71605 0.63994 0.02233 0.0
C1273 C 0.74351 0.64992 0.0641 0.0
N1274 N 0.6696 0.60553 0.02054 0.0
N1275 N 0.72091 0.63475 0.0625 0.0
H1276 H 0.75566 0.53664 0.26854 0.0
H1277 H 0.84266 0.45727 0.29846 0.0
H1278 H 0.76369 0.50714 0.3343 0.0
H1279 H 0.81612 0.46289 0.22894 0.0
H1280 H 0.82325 0.48711 0.3127 0.0
H1281 H 0.7864 0.52016 0.25505 0.0
C1282 C 0.76407 0.52694 0.28022 0.0
C1283 C 0.75691 0.52286 0.30245 0.0
C1284 C 0.82207 0.48219 0.29429 0.0
C1285 C 0.79212 0.50438 0.28725 0.0
C1286 C 0.83334 0.46538 0.28611 0.0
C1287 C 0.83073 0.45741 0.26251 0.0
C1288 C 0.80815 0.49108 0.27874 0.0
C1289 C 0.81821 0.46829 0.24731 0.0
C1290 C 0.78157 0.51759 0.27251 0.0
C1291 C 0.76844 0.51033 0.31691 0.0
N1292 N 0.80709 0.48438 0.25573 0.0
N1293 N 0.78542 0.5014 0.30901 0.0
H1294 H 0.87056 0.44756 0.51383 0.0
H1295 H 0.98539 0.56394 0.50701 0.0
H1296 H 0.86771 0.52083 0.49685 0.0
H1297 H 0.98561 0.49347 0.53346 0.0
H1298 H 0.94258 0.54817 0.50079 0.0
H1299 H 0.91305 0.46373 0.51845 0.0
C1300 C 0.87887 0.46709 0.51102 0.0
C1301 C 0.86553 0.48291 0.50501 0.0
C1302 C 0.95203 0.53621 0.50796 0.0
C1303 C 0.91439 0.50159 0.51034 0.0
C1304 C 0.97645 0.54516 0.51149 0.0
C1305 C 0.98907 0.52999 0.52079 0.0
C1306 C 0.94024 0.51189 0.51367 0.0
C1307 C 0.97661 0.50584 0.5263 0.0
C1308 C 0.90319 0.47633 0.51371 0.0
C1309 C 0.87733 0.50802 0.50155 0.0
N1310 N 0.9529 0.49755 0.52262 0.0
N1311 N 0.90116 0.51663 0.50429 0.0
H1312 H 0.39555 0.09443 0.30745 0.0
H1313 H 0.33469 0.15275 0.21074 0.0
H1314 H 0.41127 0.0911 0.23634 0.0
H1315 H 0.30791 0.1374 0.2769 0.0
H1316 H 0.36084 0.12735 0.21833 0.0
H1317 H 0.36193 0.10824 0.29577 0.0
C1318 C 0.3919 0.09659 0.28936 0.0
C1319 C 0.40635 0.09193 0.27286 0.0
C1320 C 0.34888 0.12911 0.23096 0.0
C1321 C 0.3679 0.10766 0.25936 0.0
C1322 C 0.33399 0.14356 0.22663 0.0
C1323 C 0.31936 0.14736 0.24333 0.0
C1324 C 0.34934 0.11878 0.25229 0.0
C1325 C 0.31889 0.13491 0.26354 0.0
C1326 C 0.37259 0.10427 0.28267 0.0
C1327 C 0.40065 0.09469 0.24963 0.0
N1328 N 0.33401 0.12153 0.26764 0.0
N1329 N 0.38198 0.10267 0.24358 0.0
H1330 H 0.35093 0.14996 0.52933 0.0
H1331 H 0.47663 0.14235 0.57737 0.0
H1332 H 0.40654 0.21404 0.56169 0.0
H1333 H 0.42099 0.07877 0.54435 0.0
H1334 H 0.45119 0.16891 0.57216 0.0
H1335 H 0.37635 0.12358 0.53501 0.0
C1336 C 0.36851 0.15851 0.53761 0.0
C1337 C 0.37662 0.18427 0.54505 0.0
C1338 C 0.44453 0.14914 0.5661 0.0
C1339 C 0.40583 0.1541 0.55165 0.0
C1340 C 0.45908 0.13398 0.56899 0.0
C1341 C 0.45094 0.10828 0.56128 0.0
C1342 C 0.42168 0.13854 0.55537 0.0
C1343 C 0.42791 0.09839 0.55084 0.0
C1344 C 0.38302 0.14341 0.54087 0.0
C1345 C 0.39956 0.19428 0.55567 0.0
N1346 N 0.41413 0.11354 0.54814 0.0
N1347 N 0.41336 0.17916 0.55867 0.0
H1348 H 0.74878 0.61237 0.35301 0.0
H1349 H 0.74716 0.73531 0.29101 0.0
H1350 H 0.68534 0.62399 0.32324 0.0
H1351 H 0.80951 0.7235 0.3234 0.0
H1352 H 0.7236 0.69616 0.30506 0.0
H1353 H 0.7706 0.65508 0.3456 0.0
C1354 C 0.73938 0.62404 0.34517 0.0
C1355 C 0.71527 0.61453 0.33845 0.0
C1356 C 0.74243 0.70223 0.30914 0.0
C1357 C 0.7402 0.66334 0.32959 0.0
C1358 C 0.7559 0.72449 0.30101 0.0
C1359 C 0.78037 0.73256 0.30581 0.0
C1360 C 0.75354 0.68796 0.32209 0.0
C1361 C 0.79072 0.71795 0.31912 0.0
C1362 C 0.75186 0.64842 0.34088 0.0
C1363 C 0.70395 0.63055 0.32857 0.0
N1364 N 0.77727 0.69633 0.32668 0.0
N1365 N 0.71659 0.65411 0.32414 0.0
H1366 H 0.91718 0.46507 0.75259 0.0
H1367 H 0.81876 0.35694 0.80441 0.0
H1368 H 0.88643 0.47708 0.81547 0.0
H1369 H 0.86434 0.34214 0.75486 0.0
H1370 H 0.83948 0.40201 0.8052 0.0
H1371 H 0.89385 0.4207 0.74969 0.0
C1372 C 0.90545 0.4584 0.76573 0.0
C1373 C 0.90384 0.47473 0.78438 0.0
C1374 C 0.84489 0.38886 0.79415 0.0
C1375 C 0.8771 0.4241 0.78112 0.0
C1376 C 0.83305 0.36317 0.79364 0.0
C1377 C 0.83997 0.34579 0.77969 0.0
C1378 C 0.86358 0.39716 0.78042 0.0
C1379 C 0.85859 0.35488 0.76606 0.0
C1380 C 0.8922 0.43308 0.7641 0.0
C1381 C 0.88833 0.46509 0.8009 0.0
N1382 N 0.86974 0.37996 0.76676 0.0
N1383 N 0.87554 0.44036 0.79888 0.0
H1384 H 0.12925 0.92152 0.14696 0.0
H1385 H 0.07555 0.96955 0.03627 0.0
H1386 H 0.10589 0.8772 0.08154 0.0
H1387 H 0.10441 0.0176 0.0989 0.0
H1388 H 0.08788 0.93611 0.05259 0.0
H1389 H 0.12199 0.95756 0.1296 0.0
C1390 C 0.1228 0.91942 0.1289 0.0
C1391 C 0.11799 0.89624 0.11572 0.0
C1392 C 0.09161 0.95396 0.06279 0.0
C1393 C 0.10952 0.93732 0.09585 0.0
C1394 C 0.08448 0.97311 0.0535 0.0
C1395 C 0.08877 0.9964 0.06631 0.0
C1396 C 0.10302 0.95796 0.08516 0.0
C1397 C 0.10063 0.9999 0.08846 0.0
C1398 C 0.11864 0.94 0.11903 0.0
C1399 C 0.10973 0.89464 0.0924 0.0
N1400 N 0.10723 0.9808 0.09726 0.0
N1401 N 0.1056 0.91483 0.08328 0.0
H1402 H 0.92793 0.26201 0.92966 0.0
H1403 H 0.87816 0.24444 0.79663 0.0
H1404 H 0.96961 0.25646 0.8732 0.0
H1405 H 0.84286 0.26587 0.85287 0.0
H1406 H 0.90925 0.24122 0.82473 0.0
H1407 H 0.89393 0.25582 0.90184 0.0
C1408 C 0.92989 0.25929 0.91144 0.0
C1409 C 0.9517 0.26008 0.90372 0.0
C1410 C 0.89458 0.24644 0.83086 0.0
C1411 C 0.91291 0.25301 0.87182 0.0
C1412 C 0.87683 0.2482 0.81486 0.0
C1413 C 0.85811 0.25578 0.82242 0.0
C1414 C 0.8934 0.25208 0.85451 0.0
C1415 C 0.85718 0.26036 0.84624 0.0
C1416 C 0.91049 0.2558 0.89556 0.0
C1417 C 0.95318 0.25628 0.87989 0.0
N1418 N 0.87464 0.25856 0.86141 0.0
N1419 N 0.93407 0.25307 0.86476 0.0
H1420 H 0.64197 0.26544 0.57561 0.0
H1421 H 0.56187 0.12402 0.58448 0.0
H1422 H 0.57685 0.24583 0.60765 0.0
H1423 H 0.62146 0.143 0.54408 0.0
H1424 H 0.5676 0.16878 0.59351 0.0
H1425 H 0.63484 0.22086 0.56349 0.0
C1426 C 0.62607 0.25182 0.57989 0.0
C1427 C 0.61007 0.25937 0.5928 0.0
C1428 C 0.57943 0.16317 0.58266 0.0
C1429 C 0.60196 0.20838 0.57924 0.0
C1430 C 0.57626 0.13759 0.57761 0.0
C1431 C 0.59129 0.12974 0.56359 0.0
C1432 C 0.59785 0.18108 0.57374 0.0
C1433 C 0.60948 0.1482 0.55499 0.0
C1434 C 0.62205 0.22637 0.57302 0.0
C1435 C 0.58975 0.24089 0.59784 0.0
N1436 N 0.61229 0.17303 0.56026 0.0
N1437 N 0.58638 0.21626 0.5912 0.0
H1438 H 0.57275 0.79621 0.37943 0.0
H1439 H 0.70604 0.80305 0.36549 0.0
H1440 H 0.62064 0.7892 0.43555 0.0
H1441 H 0.6574 0.80809 0.30926 0.0
H1442 H 0.67506 0.798 0.39148 0.0
H1443 H 0.60374 0.80102 0.35361 0.0
C1444 C 0.58981 0.79571 0.38635 0.0
C1445 C 0.59412 0.79229 0.4097 0.0
C1446 C 0.67115 0.80018 0.37345 0.0
C1447 C 0.6297 0.79776 0.38017 0.0
C1448 C 0.68878 0.8029 0.35857 0.0
C1449 C 0.68426 0.80591 0.33515 0.0
C1450 C 0.64882 0.80049 0.36487 0.0
C1451 C 0.66171 0.80607 0.32723 0.0
C1452 C 0.6075 0.79844 0.37157 0.0
C1453 C 0.61655 0.7918 0.41768 0.0
N1454 N 0.64482 0.80338 0.34207 0.0
N1455 N 0.63352 0.7945 0.40291 0.0
H1456 H 0.08458 0.25166 0.47693 0.0
H1457 H 0.05079 0.09943 0.46125 0.0
H1458 H 0.05446 0.21006 0.41171 0.0
H1459 H 0.07317 0.14416 0.52635 0.0
H1460 H 0.0525 0.1382 0.44227 0.0
H1461 H 0.08103 0.21218 0.49413 0.0
C1462 C 0.07712 0.23426 0.46603 0.0
C1463 C 0.06982 0.23485 0.44254 0.0
C1464 C 0.05698 0.13956 0.46071 0.0
C1465 C 0.06578 0.18815 0.46279 0.0
C1466 C 0.05603 0.11726 0.47169 0.0
C1467 C 0.06179 0.11796 0.49576 0.0
C1468 C 0.06393 0.16326 0.47364 0.0
C1469 C 0.06845 0.14211 0.50792 0.0
C1470 C 0.07509 0.21143 0.47606 0.0
C1471 C 0.0603 0.21104 0.42982 0.0
N1472 N 0.06937 0.16337 0.49687 0.0
N1473 N 0.05868 0.18893 0.43999 0.0
H1474 H 0.64384 0.33922 0.20546 0.0
H1475 H 0.72949 0.26172 0.25547 0.0
H1476 H 0.62253 0.25952 0.21293 0.0
H1477 H 0.75634 0.3407 0.24587 0.0
H1478 H 0.6904 0.26198 0.24073 0.0
H1479 H 0.68421 0.34169 0.22079 0.0
C1480 C 0.64737 0.32225 0.21038 0.0
C1481 C 0.62907 0.29909 0.20768 0.0
C1482 C 0.70472 0.27937 0.24177 0.0
C1483 C 0.67608 0.3018 0.22545 0.0
C1484 C 0.72736 0.27924 0.25029 0.0
C1485 C 0.74692 0.30119 0.25213 0.0
C1486 C 0.70077 0.30165 0.23481 0.0
C1487 C 0.74222 0.32316 0.2449 0.0
C1488 C 0.67065 0.32367 0.21912 0.0
C1489 C 0.6355 0.27792 0.21444 0.0
N1490 N 0.71993 0.32282 0.23671 0.0
N1491 N 0.65796 0.27982 0.22281 0.0
H1492 H 0.55529 0.88909 0.9013 0.0
H1493 H 0.57698 0.96499 0.0278 0.0
H1494 H 0.5792 0.85888 0.96117 0.0
H1495 H 0.55204 0.99055 0.96568 0.0
H1496 H 0.57859 0.92683 0.00506 0.0
H1497 H 0.55487 0.92603 0.92535 0.0
C1498 C 0.56056 0.89006 0.91956 0.0
C1499 C 0.56732 0.87023 0.92885 0.0
C1500 C 0.57275 0.94076 0.9964 0.0
C1501 C 0.56676 0.91387 0.95731 0.0
C1502 C 0.57181 0.96273 0.00944 0.0
C1503 C 0.56428 0.98149 0.99893 0.0
C1504 C 0.56618 0.93714 0.97241 0.0
C1505 C 0.5579 0.97698 0.97489 0.0
C1506 C 0.56026 0.91148 0.93343 0.0
C1507 C 0.57388 0.87337 0.95291 0.0
N1508 N 0.55901 0.9556 0.96271 0.0
N1509 N 0.57341 0.89457 0.96618 0.0
H1510 H 0.96102 0.77447 0.67876 0.0
H1511 H 0.90571 0.83224 0.78436 0.0
H1512 H 1.00548 0.82746 0.73212 0.0
H1513 H 0.86568 0.77269 0.73386 0.0
H1514 H 0.94177 0.83195 0.76638 0.0
H1515 H 0.92683 0.77478 0.69893 0.0
C1516 C 0.96386 0.78624 0.69483 0.0
C1517 C 0.98692 0.80091 0.70336 0.0
C1518 C 0.92515 0.81886 0.75922 0.0
C1519 C 0.94619 0.80152 0.72726 0.0
C1520 C 0.90429 0.81898 0.76957 0.0
C1521 C 0.88194 0.80239 0.76097 0.0
C1522 C 0.92425 0.80215 0.73968 0.0
C1523 C 0.88203 0.78588 0.74152 0.0
C1524 C 0.94395 0.78636 0.70647 0.0
C1525 C 0.9885 0.81558 0.72455 0.0
N1526 N 0.90243 0.78629 0.73174 0.0
N1527 N 0.96867 0.81559 0.73551 0.0
H1528 H 0.14844 0.99014 0.88337 0.0
H1529 H 0.07827 0.02103 0.96109 0.0
H1530 H 0.20467 0.04761 0.92344 0.0
H1531 H 0.14113 0.05086 0.00777 0.0
H1532 H 0.10158 1.01035 0.932 0.0
H1533 H 0.12367 0.98979 0.9148 0.0
C1534 C 0.15561 1.00259 0.89887 0.0
C1535 C 0.17844 0.01939 0.9006 0.0
C1536 C 0.11028 0.0186 0.94876 0.0
C1537 C 0.14988 0.01991 0.93619 0.0
C1538 C 0.09697 0.0251 0.96531 0.0
C1539 C 0.10776 0.03694 0.98687 0.0
C1540 C 0.13459 0.02394 0.95383 0.0
C1541 C 0.13206 0.04179 0.99135 0.0
C1542 C 0.14133 1.00264 0.91669 0.0
C1543 C 0.18703 0.03464 0.92125 0.0
N1544 N 0.1447 0.03545 0.97486 0.0
N1545 N 0.1726 0.0348 0.93816 0.0
H1546 H 0.80927 0.3416 0.52301 0.0
H1547 H 0.85111 0.35241 0.65674 0.0
H1548 H 0.80507 0.40134 0.57159 0.0
H1549 H 0.82483 0.28028 0.61677 0.0
H1550 H 0.8408 0.37254 0.62341 0.0
H1551 H 0.82058 0.32025 0.55539 0.0
C1552 C 0.81058 0.35013 0.54046 0.0
C1553 C 0.80618 0.37324 0.54464 0.0
C1554 C 0.83737 0.35231 0.62196 0.0
C1555 C 0.81955 0.34931 0.58145 0.0
C1556 C 0.84321 0.34076 0.64098 0.0
C1557 C 0.83854 0.31451 0.63973 0.0
C1558 C 0.82709 0.33761 0.60138 0.0
C1559 C 0.82891 0.30057 0.61854 0.0
C1560 C 0.81704 0.33797 0.55886 0.0
C1561 C 0.80816 0.38349 0.56756 0.0
N1562 N 0.82344 0.31229 0.60019 0.0
N1563 N 0.81491 0.37157 0.58508 0.0
H1564 H 0.52704 0.0542 0.35861 0.0
H1565 H 0.52309 0.08283 0.49319 0.0
H1566 H 0.47784 0.08881 0.38575 0.0
H1567 H 0.58062 0.06531 0.46277 0.0
H1568 H 0.50634 0.08627 0.45447 0.0
H1569 H 0.54685 0.05864 0.39715 0.0
C1570 C 0.52042 0.06279 0.37272 0.0
C1571 C 0.50068 0.07098 0.36906 0.0
C1572 C 0.52276 0.08196 0.45637 0.0
C1573 C 0.52326 0.07609 0.41331 0.0
C1574 C 0.53233 0.07999 0.47843 0.0
C1575 C 0.55312 0.07343 0.48118 0.0
C1576 C 0.53402 0.07716 0.43705 0.0
C1577 C 0.56441 0.07009 0.46149 0.0
C1578 C 0.53182 0.06544 0.39472 0.0
C1579 C 0.493 0.0822 0.38791 0.0
N1580 N 0.55459 0.07174 0.44027 0.0
N1581 N 0.5042 0.08421 0.40935 0.0
H1582 H 0.84457 0.74268 0.1024 0.0
H1583 H 0.79147 0.80186 0.20611 0.0
H1584 H 0.78188 0.76511 0.09358 0.0
H1585 H 0.84278 0.76258 0.21672 0.0
H1586 H 0.79065 0.79277 0.16448 0.0
H1587 H 0.84738 0.75464 0.14385 0.0
C1588 C 0.83154 0.75039 0.10911 0.0
C1589 C 0.81291 0.75284 0.09444 0.0
C1590 C 0.80209 0.78613 0.17591 0.0
C1591 C 0.816 0.76643 0.14196 0.0
C1592 C 0.8026 0.79133 0.19972 0.0
C1593 C 0.81718 0.78292 0.21502 0.0
C1594 C 0.81643 0.7726 0.16721 0.0
C1595 C 0.83118 0.76933 0.20563 0.0
C1596 C 0.83308 0.75705 0.13282 0.0
C1597 C 0.7965 0.76283 0.1042 0.0
N1598 N 0.8305 0.76466 0.18235 0.0
N1599 N 0.79841 0.76922 0.12732 0.0
H1600 H 0.16355 0.01555 0.76193 0.0
H1601 H 0.06178 0.06 0.69955 0.0
H1602 H 0.11097 0.03508 0.79949 0.0
H1603 H 0.12521 0.05822 0.66967 0.0
H1604 H 0.07625 0.04626 0.73527 0.0
H1605 H 0.14536 0.02468 0.72636 0.0
C1606 C 0.148 0.02151 0.76268 0.0
C1607 C 0.13893 0.02486 0.78376 0.0
C1608 C 0.0869 0.04886 0.72082 0.0
C1609 C 0.11814 0.03566 0.74302 0.0
C1610 C 0.07876 0.05687 0.70053 0.0
C1611 C 0.09223 0.06008 0.68152 0.0
C1612 C 0.10854 0.04395 0.72198 0.0
C1613 C 0.11399 0.05549 0.68366 0.0
C1614 C 0.13768 0.02685 0.74235 0.0
C1615 C 0.1186 0.03238 0.7836 0.0
N1616 N 0.12139 0.0476 0.70345 0.0
N1617 N 0.10896 0.03777 0.76352 0.0
H1618 H 0.76587 0.37724 0.4437 0.0
H1619 H 0.8255 0.37953 0.32573 0.0
H1620 H 0.80751 0.44574 0.41793 0.0
H1621 H 0.77366 0.31415 0.34606 0.0
H1622 H 0.81795 0.40464 0.35848 0.0
H1623 H 0.76682 0.35429 0.40696 0.0
C1624 C 0.77496 0.38751 0.4302 0.0
C1625 C 0.78683 0.41338 0.43396 0.0
C1626 C 0.80811 0.38484 0.35564 0.0
C1627 C 0.78827 0.38719 0.39197 0.0
C1628 C 0.81248 0.37047 0.33701 0.0
C1629 C 0.80038 0.34464 0.33328 0.0
C1630 C 0.79168 0.37322 0.37074 0.0
C1631 C 0.78353 0.33396 0.34832 0.0
C1632 C 0.77552 0.3744 0.40922 0.0
C1633 C 0.79822 0.42576 0.41581 0.0
N1634 N 0.77984 0.34825 0.36649 0.0
N1635 N 0.79892 0.41248 0.39569 0.0
H1636 H 0.55277 0.10188 0.30013 0.0
H1637 H 0.56721 0.10503 0.16547 0.0
H1638 H 0.49938 0.10542 0.24816 0.0
H1639 H 0.5999 0.06334 0.20948 0.0
H1640 H 0.55322 0.12186 0.19928 0.0
H1641 H 0.57978 0.10341 0.26996 0.0
C1642 C 0.54698 0.10363 0.28247 0.0
C1643 C 0.52383 0.1032 0.27641 0.0
C1644 C 0.56399 0.10956 0.20157 0.0
C1645 C 0.55447 0.10541 0.2423 0.0
C1646 C 0.57217 0.10009 0.18234 0.0
C1647 C 0.58444 0.08244 0.18467 0.0
C1648 C 0.56817 0.10139 0.22324 0.0
C1649 C 0.59011 0.07654 0.20695 0.0
C1650 C 0.56232 0.10444 0.26536 0.0
C1651 C 0.51704 0.10538 0.25338 0.0
N1652 N 0.5816 0.08571 0.22542 0.0
N1653 N 0.53228 0.10628 0.2371 0.0
H1654 H 0.82957 0.76674 0.97361 0.0
H1655 H 0.82086 0.73682 0.83603 0.0
H1656 H 0.8179 0.69221 0.94042 0.0
H1657 H 0.83121 0.8107 0.8701 0.0
H1658 H 0.82182 0.72025 0.87401 0.0
H1659 H 0.8321 0.78339 0.93571 0.0
C1660 C 0.8276 0.75388 0.95839 0.0
C1661 C 0.82343 0.72802 0.96026 0.0
C1662 C 0.82399 0.74011 0.87312 0.0
C1663 C 0.82629 0.74695 0.91669 0.0
C1664 C 0.82352 0.74958 0.85143 0.0
C1665 C 0.82584 0.77517 0.8498 0.0
C1666 C 0.82683 0.75635 0.8933 0.0
C1667 C 0.82918 0.79081 0.87041 0.0
C1668 C 0.82905 0.76339 0.93671 0.0
C1669 C 0.82107 0.71228 0.93986 0.0
N1670 N 0.82949 0.78116 0.89121 0.0
N1671 N 0.82246 0.72196 0.91897 0.0
H1672 H 0.85419 0.07933 0.06655 0.0
H1673 H 0.91849 0.02287 0.97505 0.0
H1674 H 0.84507 0.08903 0.99397 0.0
H1675 H 0.90713 0.99454 0.04191 0.0
H1676 H 0.88866 0.04383 0.97994 0.0
H1677 H 0.8716 0.04616 0.0571 0.0
C1678 C 0.8558 0.0744 0.0486 0.0
C1679 C 0.84852 0.08717 0.03103 0.0
C1680 C 0.89231 0.03257 0.99333 0.0
C1681 C 0.86843 0.04924 0.02007 0.0
C1682 C 0.90923 0.02039 0.99047 0.0
C1683 C 0.91567 1.00736 0.00833 0.0
C1684 C 0.88206 0.03196 0.0143 0.0
C1685 C 0.90317 1.00499 0.02798 0.0
C1686 C 0.86554 0.0553 0.04319 0.0
C1687 C 0.85065 0.07977 0.00804 0.0
N1688 N 0.88731 0.01764 0.03067 0.0
N1689 N 0.86077 0.06151 0.00323 0.0
H1690 H 0.37261 0.47411 0.05333 0.0
H1691 H 0.49598 0.47943 0.00668 0.0
H1692 H 0.39027 0.40886 0.02674 0.0
H1693 H 0.48438 0.54252 0.04526 0.0
H1694 H 0.45574 0.45463 0.0105 0.0
H1695 H 0.41219 0.5005 0.04779 0.0
C1696 C 0.38481 0.46532 0.04637 0.0
C1697 C 0.37814 0.43922 0.04052 0.0
C1698 C 0.46194 0.47391 0.01809 0.0
C1699 C 0.4233 0.46933 0.03398 0.0
C1700 C 0.48493 0.48818 0.01583 0.0
C1701 C 0.49365 0.5131 0.02579 0.0
C1702 C 0.44743 0.48459 0.03034 0.0
C1703 C 0.47841 0.52337 0.03736 0.0
C1704 C 0.40738 0.48041 0.04322 0.0
C1705 C 0.39466 0.42887 0.03157 0.0
N1706 N 0.45602 0.50902 0.03939 0.0
N1707 N 0.41644 0.44396 0.02852 0.0
H1708 H 0.39244 0.58512 0.76505 0.0
H1709 H 0.36236 0.69153 0.83866 0.0
H1710 H 0.44119 0.6301 0.82059 0.0
H1711 H 0.30892 0.62591 0.80563 0.0
H1712 H 0.39165 0.66993 0.83326 0.0
H1713 H 0.36192 0.60107 0.77922 0.0
C1714 C 0.39674 0.59843 0.78022 0.0
C1715 C 0.41942 0.60652 0.79156 0.0
C1716 C 0.37344 0.66012 0.8276 0.0
C1717 C 0.38452 0.62479 0.8079 0.0
C1718 C 0.35662 0.67234 0.83082 0.0
C1719 C 0.33312 0.66066 0.82225 0.0
C1720 C 0.36675 0.63625 0.81542 0.0
C1721 C 0.3269 0.6359 0.81196 0.0
C1722 C 0.37923 0.60732 0.78844 0.0
C1723 C 0.42392 0.62351 0.81132 0.0
N1724 N 0.34369 0.62469 0.80845 0.0
N1725 N 0.40665 0.63237 0.81874 0.0
H1726 H 0.25584 0.61313 0.52734 0.0
H1727 H 0.13176 0.57743 0.57949 0.0
H1728 H 0.24709 0.60437 0.5996 0.0
H1729 H 0.1394 0.578 0.50633 0.0
H1730 H 0.17405 0.58747 0.58702 0.0
H1731 H 0.21331 0.59994 0.51914 0.0
C1732 C 0.24497 0.60828 0.54148 0.0
C1733 C 0.25501 0.60998 0.56423 0.0
C1734 C 0.16652 0.58537 0.56931 0.0
C1735 C 0.20635 0.59503 0.55494 0.0
C1736 C 0.14234 0.57973 0.56497 0.0
C1737 C 0.13204 0.57698 0.54222 0.0
C1738 C 0.18056 0.58839 0.55079 0.0
C1739 C 0.14663 0.58002 0.52414 0.0
C1740 C 0.22069 0.60076 0.53676 0.0
C1741 C 0.24009 0.60338 0.58182 0.0
N1742 N 0.17021 0.58565 0.52882 0.0
N1743 N 0.21648 0.59634 0.57682 0.0
H1744 H 0.72684 0.97595 0.78453 0.0
H1745 H 0.78225 0.91978 0.88411 0.0
H1746 H 0.69401 0.9658 0.84835 0.0
H1747 H 0.82256 0.96451 0.83454 0.0
H1748 H 0.75016 0.93704 0.87402 0.0
H1749 H 0.76195 0.97044 0.80371 0.0
C1750 C 0.72697 0.97236 0.80259 0.0
C1751 C 0.70743 0.97105 0.81483 0.0
C1752 C 0.76637 0.94356 0.86594 0.0
C1753 C 0.74775 0.96492 0.83702 0.0
C1754 C 0.78469 0.93373 0.87165 0.0
C1755 C 0.80494 0.94002 0.85966 0.0
C1756 C 0.76841 0.95957 0.84807 0.0
C1757 C 0.80734 0.95874 0.84417 0.0
C1758 C 0.74716 0.96957 0.81363 0.0
C1759 C 0.70874 0.96678 0.83831 0.0
N1760 N 0.78907 0.96734 0.83841 0.0
N1761 N 0.72853 0.9635 0.84866 0.0
H1762 H 0.78459 0.93714 0.48927 0.0
H1763 H 0.70275 0.99631 0.56238 0.0
H1764 H 0.76666 0.9174 0.55759 0.0
H1765 H 0.71512 1.01047 0.49165 0.0
H1766 H 0.72711 0.96829 0.56136 0.0
H1767 H 0.76009 0.96503 0.49017 0.0
C1768 C 0.77545 0.93861 0.50444 0.0
C1769 C 0.77767 0.92492 0.52338 0.0
C1770 C 0.72451 0.97755 0.54607 0.0
C1771 C 0.7497 0.95689 0.52458 0.0
C1772 C 0.71054 0.99348 0.54661 0.0
C1773 C 0.70686 1.00575 0.52706 0.0
C1774 C 0.73493 0.97385 0.52584 0.0
C1775 C 0.71772 1.00168 0.50723 0.0
C1776 C 0.76147 0.95455 0.50495 0.0
C1777 C 0.76543 0.92757 0.54258 0.0
N1778 N 0.73123 0.98606 0.50712 0.0
N1779 N 0.75202 0.94329 0.5427 0.0
H1780 H 0.39849 0.49595 0.75234 0.0
H1781 H 0.3904 0.35723 0.78478 0.0
H1782 H 0.45924 0.47047 0.76375 0.0
H1783 H 0.33051 0.3789 0.75948 0.0
H1784 H 0.41594 0.39895 0.77854 0.0
H1785 H 0.37331 0.45349 0.75632 0.0
C1786 C 0.40656 0.48141 0.75566 0.0
C1787 C 0.43103 0.48678 0.7578 0.0
C1788 C 0.39722 0.39453 0.77428 0.0
C1789 C 0.40225 0.43811 0.76241 0.0
C1790 C 0.3826 0.37075 0.77791 0.0
C1791 C 0.35826 0.36461 0.77273 0.0
C1792 C 0.3874 0.41237 0.76562 0.0
C1793 C 0.34917 0.38282 0.76371 0.0
C1794 C 0.39214 0.45714 0.75787 0.0
C1795 C 0.44047 0.46717 0.76201 0.0
N1796 N 0.36375 0.40594 0.76057 0.0
N1797 N 0.42604 0.44368 0.76429 0.0
H1798 H 0.25703 0.58158 0.23813 0.0
H1799 H 0.25395 0.72126 0.27137 0.0
H1800 H 0.19314 0.60219 0.23604 0.0
H1801 H 0.31738 0.70313 0.2588 0.0
H1802 H 0.23134 0.67723 0.26045 0.0
H1803 H 0.27955 0.62593 0.24659 0.0
C1804 C 0.24775 0.59547 0.23917 0.0
C1805 C 0.22318 0.58819 0.23646 0.0
C1806 C 0.25021 0.68294 0.26008 0.0
C1807 C 0.24879 0.63888 0.24652 0.0
C1808 C 0.26314 0.708 0.26649 0.0
C1809 C 0.28758 0.71586 0.26599 0.0
C1810 C 0.26185 0.66563 0.25332 0.0
C1811 C 0.29855 0.69791 0.25938 0.0
C1812 C 0.26061 0.62077 0.24407 0.0
C1813 C 0.21206 0.60697 0.23798 0.0
N1814 N 0.28561 0.67363 0.25333 0.0
N1815 N 0.22496 0.63146 0.24314 0.0
H1816 H 0.55097 0.73556 0.48552 0.0
H1817 H 0.5201 0.58702 0.4913 0.0
H1818 H 0.49903 0.68192 0.43765 0.0
H1819 H 0.58545 0.64022 0.52098 0.0
H1820 H 0.50886 0.62167 0.47536 0.0
H1821 H 0.56016 0.7007 0.50311 0.0
C1822 C 0.54133 0.71644 0.47885 0.0
C1823 C 0.52429 0.71161 0.46001 0.0
C1824 C 0.52567 0.62569 0.48533 0.0
C1825 C 0.53479 0.67173 0.48003 0.0
C1826 C 0.53209 0.60597 0.49445 0.0
C1827 C 0.55379 0.61075 0.50742 0.0
C1828 C 0.54091 0.65036 0.48948 0.0
C1829 C 0.56864 0.63565 0.51095 0.0
C1830 C 0.5467 0.69659 0.48881 0.0
C1831 C 0.51239 0.68647 0.45206 0.0
N1832 N 0.56187 0.65455 0.50211 0.0
N1833 N 0.51788 0.66743 0.46211 0.0
H1834 H 0.70429 0.3403 0.64461 0.0
H1835 H 0.73035 0.27713 0.7588 0.0
H1836 H 0.65513 0.31675 0.69565 0.0
H1837 H 0.78114 0.30124 0.70926 0.0
H1838 H 0.70303 0.29267 0.73597 0.0
H1839 H 0.73353 0.3281 0.66862 0.0
C1840 C 0.69973 0.33284 0.66096 0.0
C1841 C 0.67719 0.32935 0.66806 0.0
C1842 C 0.72014 0.29458 0.73005 0.0
C1843 C 0.71037 0.31518 0.69541 0.0
C1844 C 0.73575 0.2856 0.74306 0.0
C1845 C 0.75807 0.28783 0.73593 0.0
C1846 C 0.72683 0.30586 0.7097 0.0
C1847 C 0.76408 0.29907 0.71539 0.0
C1848 C 0.71638 0.32578 0.67459 0.0
C1849 C 0.67222 0.31959 0.68939 0.0
N1850 N 0.74852 0.30767 0.70297 0.0
N1851 N 0.68862 0.31273 0.70221 0.0
H1852 H 0.08042 0.35621 0.99145 0.0
H1853 H 1.02117 0.4658 0.01136 0.0
H1854 H 1.00869 0.34837 0.96749 0.0
H1855 H 0.09459 0.47483 0.02834 0.0
H1856 H 1.01509 0.42157 0.99836 0.0
H1857 H 0.08469 0.39853 0.00846 0.0
C1858 C 0.06551 0.36331 0.98989 0.0
C1859 C 0.04422 0.34877 0.97789 0.0
C1860 C 0.0325 0.43326 0.00501 0.0
C1861 C 0.04901 0.39732 0.99727 0.0
C1862 C 0.03597 0.45849 0.01246 0.0
C1863 C 0.05844 0.47411 0.02083 0.0
C1864 C 0.05161 0.4236 0.00603 0.0
C1865 C 0.07698 0.46359 0.02188 0.0
C1866 C 0.06797 0.38753 0.99957 0.0
C1867 C 1.02547 0.35897 0.97649 0.0
N1868 N 0.07314 0.43905 0.01453 0.0
N1869 N 0.02834 0.38267 0.98597 0.0
H1870 H 0.06815 0.80292 0.1902 0.0
H1871 H 0.94466 0.82065 0.21536 0.0
H1872 H 0.02868 0.83571 0.14369 0.0
H1873 H 0.97603 0.77254 0.25253 0.0
H1874 H 0.9771 0.82969 0.19099 0.0
H1875 H 0.03648 0.79538 0.2156 0.0
C1876 C 0.05287 0.80864 0.18537 0.0
C1877 C 0.051 0.81988 0.16475 0.0
C1878 C 0.97686 0.81713 0.20447 0.0
C1879 C 1.01475 0.81131 0.19373 0.0
C1880 C 0.95826 0.81182 0.21831 0.0
C1881 C 0.9575 0.79564 0.23594 0.0
C1882 C 0.99496 0.80636 0.20836 0.0
C1883 C 0.97598 0.7853 0.2393 0.0
C1884 C 0.03478 0.80424 0.19985 0.0
C1885 C 0.03081 0.82689 0.15937 0.0
N1886 N 0.99396 0.79083 0.22562 0.0
N1887 N 1.01346 0.82249 0.17378 0.0
H1888 H 0.55658 0.389 0.15211 0.0
H1889 H 0.5783 0.46413 0.03623 0.0
H1890 H 0.57499 0.35916 0.08869 0.0
H1891 H 0.55704 0.49508 0.09752 0.0
H1892 H 0.5779 0.42636 0.05586 0.0
H1893 H 0.55725 0.42792 0.13361 0.0
C1894 C 0.5608 0.39045 0.13438 0.0
C1895 C 0.56571 0.3702 0.12221 0.0
C1896 C 0.57333 0.44137 0.06514 0.0
C1897 C 0.56656 0.41547 0.10056 0.0
C1898 C 0.57359 0.46319 0.05383 0.0
C1899 C 0.56769 0.48336 0.06493 0.0
C1900 C 0.56717 0.43911 0.08806 0.0
C1901 C 0.56173 0.48034 0.08794 0.0
C1902 C 0.56117 0.41285 0.12373 0.0
C1903 C 0.57102 0.37382 0.09911 0.0
N1904 N 0.56162 0.45894 0.09857 0.0
N1905 N 0.57129 0.3956 0.08928 0.0
H1906 H 0.97204 0.27791 0.39379 0.0
H1907 H 0.90287 0.3162 0.28446 0.0
H1908 H 1.00795 0.30806 0.33554 0.0
H1909 H 0.8692 0.27791 0.34057 0.0
H1910 H 0.94095 0.31456 0.30206 0.0
H1911 H 0.93511 0.27879 0.37425 0.0
C1912 C 0.97236 0.2847 0.37677 0.0
C1913 C 0.99384 0.29285 0.36662 0.0
C1914 C 0.92527 0.30648 0.31056 0.0
C1915 C 0.9501 0.29417 0.34354 0.0
C1916 C 0.90329 0.30743 0.30047 0.0
C1917 C 0.88217 0.29723 0.31081 0.0
C1918 C 0.92673 0.29534 0.33149 0.0
C1919 C 0.88454 0.28612 0.33165 0.0
C1920 C 0.95092 0.28519 0.36552 0.0
C1921 C 0.99224 0.30135 0.34432 0.0
N1922 N 0.90605 0.2856 0.34112 0.0
N1923 N 0.97102 0.3019 0.33374 0.0
H1924 H 0.03716 0.72237 0.64784 0.0
H1925 H 0.0782 0.64752 0.54338 0.0
H1926 H 0.08798 0.75737 0.60173 0.0
H1927 H 0.04044 0.60809 0.59695 0.0
H1928 H 0.07848 0.68743 0.56321 0.0
H1929 H 0.03454 0.6807 0.62846 0.0
C1930 C 0.04758 0.72147 0.63355 0.0
C1931 C 0.06281 0.74387 0.62657 0.0
C1932 C 0.07007 0.67014 0.57075 0.0
C1933 C 0.05987 0.69572 0.60408 0.0
C1934 C 0.06986 0.64707 0.55931 0.0
C1935 C 0.0593 0.62387 0.56826 0.0
C1936 C 0.05943 0.67068 0.59151 0.0
C1937 C 0.04888 0.62521 0.58919 0.0
C1938 C 0.04619 0.69753 0.62255 0.0
C1939 C 0.07598 0.74099 0.60798 0.0
N1940 N 0.04914 0.64799 0.59995 0.0
N1941 N 0.07415 0.71775 0.59754 0.0
H1942 H 0.66591 0.84699 0.88286 0.0
H1943 H 0.73085 0.76921 0.80286 0.0
H1944 H 0.62848 0.77447 0.84774 0.0
H1945 H 0.76293 0.84638 0.82985 0.0
H1946 H 0.6943 0.76984 0.81938 0.0
H1947 H 0.70104 0.84608 0.86439 0.0
C1948 C 0.66481 0.83075 0.87117 0.0
C1949 C 0.64343 0.81082 0.86715 0.0
C1950 C 0.70924 0.78671 0.8217 0.0
C1951 C 0.68523 0.80956 0.84547 0.0
C1952 C 0.73042 0.78641 0.81219 0.0
C1953 C 0.75069 0.80781 0.81461 0.0
C1954 C 0.70771 0.80852 0.83427 0.0
C1955 C 0.74822 0.82931 0.82716 0.0
C1956 C 0.68524 0.8303 0.86052 0.0
C1957 C 0.64404 0.79051 0.85157 0.0
N1958 N 0.72755 0.82901 0.83641 0.0
N1959 N 0.66435 0.79037 0.84159 0.0
H1960 H 0.49982 0.62774 0.68868 0.0
H1961 H 0.50416 0.53244 0.58279 0.0
H1962 H 0.45353 0.55146 0.67624 0.0
H1963 H 0.55108 0.60844 0.59553 0.0
H1964 H 0.48137 0.54128 0.61351 0.0
H1965 H 0.51443 0.62344 0.651 0.0
C1966 C 0.49246 0.61024 0.67788 0.0
C1967 C 0.47579 0.58976 0.68578 0.0
C1968 C 0.49654 0.55609 0.60944 0.0
C1969 C 0.49254 0.58462 0.64286 0.0
C1970 C 0.50958 0.55103 0.59191 0.0
C1971 C 0.52978 0.56959 0.58682 0.0
C1972 C 0.50384 0.57982 0.62204 0.0
C1973 C 0.53583 0.59342 0.59907 0.0
C1974 C 0.50085 0.60776 0.6564 0.0
C1975 C 0.46671 0.56759 0.671 0.0
N1976 N 0.52305 0.59777 0.61628 0.0
N1977 N 0.47544 0.5655 0.65038 0.0
H1978 H 0.80077 0.22292 0.04383 0.0
H1979 H 0.83515 0.25419 0.91672 0.0
H1980 H 0.85319 0.19847 0.01039 0.0
H1981 H 0.77282 0.26275 0.94447 0.0
H1982 H 0.84719 0.24206 0.95399 0.0
H1983 H 0.79618 0.24646 0.01086 0.0
C1984 C 0.81162 0.22283 0.02974 0.0
C1985 C 0.82711 0.20834 0.02968 0.0
C1986 C 0.83099 0.2468 0.95197 0.0
C1987 C 0.82181 0.23512 0.99187 0.0
C1988 C 0.82401 0.25357 0.93067 0.0
C1989 C 0.8027 0.25903 0.92733 0.0
C1990 C 0.81661 0.24555 0.97013 0.0
C1991 C 0.78936 0.25868 0.94623 0.0
C1992 C 0.8089 0.2362 0.01088 0.0
C1993 C 0.84082 0.20912 0.01103 0.0
N1994 N 0.79642 0.25179 0.96677 0.0
N1995 N 0.83766 0.22204 0.99273 0.0
H1996 H 0.17659 0.4885 0.17555 0.0
H1997 H 0.06178 0.50719 0.1116 0.0
H1998 H 0.11159 0.47672 0.2072 0.0
H1999 H 0.13199 0.53863 0.0918 0.0
H2000 H 0.07754 0.48781 0.14281 0.0
H2001 H 0.15752 0.49688 0.14 0.0
C2002 C 0.15817 0.48714 0.1749 0.0
C2003 C 0.14581 0.4825 0.19457 0.0
C2004 C 0.08942 0.4989 0.13155 0.0
C2005 C 0.12403 0.4924 0.15402 0.0
C2006 C 0.08049 0.51005 0.11382 0.0
C2007 C 0.09564 0.52478 0.09924 0.0
C2008 C 0.1136 0.50228 0.13449 0.0
C2009 C 0.11969 0.5277 0.10279 0.0
C2010 C 0.14736 0.49212 0.15463 0.0
C2011 C 0.12189 0.48061 0.19256 0.0
N2012 N 0.12792 0.51654 0.12005 0.0
N2013 N 0.11184 0.48597 0.17273 0.0
H2014 H 0.78931 0.83619 0.47195 0.0
H2015 H 0.86025 0.82067 0.3633 0.0
H2016 H 0.86254 0.84051 0.47725 0.0
H2017 H 0.78618 0.81259 0.35759 0.0
H2018 H 0.86103 0.82696 0.4052 0.0
H2019 H 0.78723 0.82567 0.4303 0.0
C2020 C 0.80488 0.83461 0.46443 0.0
C2021 C 0.82617 0.83936 0.47816 0.0
C2022 C 0.84459 0.82378 0.3948 0.0
C2023 C 0.82397 0.82765 0.43041 0.0
C2024 C 0.84414 0.82027 0.37082 0.0
C2025 C 0.82314 0.81618 0.35681 0.0
C2026 C 0.8239 0.82327 0.40496 0.0
C2027 C 0.80281 0.81575 0.36764 0.0
C2028 C 0.8037 0.82872 0.44061 0.0
C2029 C 0.84576 0.8371 0.4674 0.0
N2030 N 0.80372 0.8193 0.39103 0.0
N2031 N 0.84423 0.83159 0.44419 0.0
H2032 H 0.52121 0.60403 0.80007 0.0
H2033 H 0.56937 0.51085 0.86082 0.0
H2034 H 0.53305 0.54199 0.76024 0.0
H2035 H 0.59453 0.58986 0.88499 0.0
H2036 H 0.55858 0.52217 0.823 0.0
H2037 H 0.54977 0.60057 0.83071 0.0
C2038 C 0.53023 0.59005 0.7976 0.0
C2039 C 0.52465 0.5731 0.77779 0.0
C2040 C 0.56697 0.53705 0.83645 0.0
C2041 C 0.55679 0.56866 0.81283 0.0
C2042 C 0.5733 0.53063 0.85814 0.0
C2043 C 0.58236 0.54936 0.8765 0.0
C2044 C 0.56918 0.56229 0.83322 0.0
C2045 C 0.58673 0.57465 0.8717 0.0
C2046 C 0.54658 0.58815 0.81501 0.0
C2047 C 0.53685 0.55538 0.77532 0.0
N2048 N 0.57949 0.58035 0.85071 0.0
N2049 N 0.55194 0.55316 0.79295 0.0
H2050 H 0.82121 0.15543 0.14012 0.0
H2051 H 0.84786 0.28742 0.21087 0.0
H2052 H 0.87588 0.22151 0.12547 0.0
H2053 H 0.81406 0.2183 0.24053 0.0
H2054 H 0.85743 0.26315 0.17899 0.0
H2055 H 0.81783 0.17727 0.17685 0.0
C2056 C 0.83271 0.1744 0.14476 0.0
C2057 C 0.84867 0.18679 0.12959 0.0
C2058 C 0.84809 0.25324 0.19254 0.0
C2059 C 0.84467 0.21187 0.17135 0.0
C2060 C 0.84244 0.26708 0.21066 0.0
C2061 C 0.82992 0.25481 0.22822 0.0
C2062 C 0.84081 0.22686 0.19167 0.0
C2063 C 0.82367 0.22844 0.22725 0.0
C2064 C 0.83079 0.18681 0.16573 0.0
C2065 C 0.86323 0.21128 0.13654 0.0
N2066 N 0.82891 0.21526 0.20905 0.0
N2067 N 0.86063 0.22315 0.15676 0.0
H2068 H 0.20555 0.57171 0.32327 0.0
H2069 H 0.08035 0.5629 0.36721 0.0
H2070 H 0.14002 0.52604 0.28683 0.0
H2071 H 0.14638 0.59803 0.40771 0.0
H2072 H 0.10171 0.55471 0.33476 0.0
H2073 H 0.18382 0.58665 0.35172 0.0
C2074 C 0.18657 0.56486 0.32122 0.0
C2075 C 0.17456 0.5474 0.30282 0.0
C2076 C 0.1115 0.56439 0.35069 0.0
C2077 C 0.14958 0.56446 0.33531 0.0
C2078 C 0.09934 0.5692 0.3691 0.0
C2079 C 0.11169 0.58089 0.39014 0.0
C2080 C 0.1361 0.57148 0.35342 0.0
C2081 C 0.13625 0.58859 0.39185 0.0
C2082 C 0.17417 0.57343 0.33747 0.0
C2083 C 0.14996 0.53934 0.3009 0.0
N2084 N 0.14766 0.58361 0.37376 0.0
N2085 N 0.13824 0.54786 0.31706 0.0
H2086 H 0.76207 0.83075 0.60582 0.0
H2087 H 0.84162 0.85443 0.7258 0.0
H2088 H 0.83752 0.86162 0.61196 0.0
H2089 H 0.77014 0.80551 0.71689 0.0
H2090 H 0.83922 0.86099 0.68478 0.0
H2091 H 0.76369 0.82419 0.64698 0.0
C2092 C 0.77899 0.836 0.61576 0.0
C2093 C 0.79969 0.84674 0.60538 0.0
C2094 C 0.82403 0.84888 0.69181 0.0
C2095 C 0.80162 0.83963 0.65257 0.0
C2096 C 0.82532 0.84527 0.71529 0.0
C2097 C 0.80604 0.82937 0.72483 0.0
C2098 C 0.80326 0.8367 0.67773 0.0
C2099 C 0.78544 0.8179 0.71027 0.0
C2100 C 0.77989 0.83227 0.63927 0.0
C2101 C 0.82111 0.85319 0.61917 0.0
N2102 N 0.78459 0.82179 0.68745 0.0
N2103 N 0.8215 0.8497 0.64205 0.0
H2104 H 0.73958 0.46456 0.52239 0.0
H2105 H 0.73718 0.59133 0.59018 0.0
H2106 H 0.80079 0.51273 0.56392 0.0
H2107 H 0.67585 0.52684 0.57306 0.0
H2108 H 0.76176 0.56551 0.57793 0.0
H2109 H 0.71664 0.49041 0.53736 0.0
C2110 C 0.74822 0.48064 0.53461 0.0
C2111 C 0.7721 0.48649 0.54199 0.0
C2112 C 0.74294 0.55704 0.57719 0.0
C2113 C 0.74595 0.51616 0.55915 0.0
C2114 C 0.72897 0.57171 0.58414 0.0
C2115 C 0.70452 0.56112 0.58281 0.0
C2116 C 0.73223 0.53189 0.56842 0.0
C2117 C 0.69467 0.53565 0.57475 0.0
C2118 C 0.73508 0.49529 0.54325 0.0
C2119 C 0.78237 0.50753 0.5579 0.0
N2120 N 0.70853 0.522 0.56766 0.0
N2121 N 0.76924 0.52175 0.5659 0.0
H2122 H 0.24641 0.1614 0.50698 0.0
H2123 H 0.13946 0.08683 0.57525 0.0
H2124 H 0.2543 0.15142 0.57963 0.0
H2125 H 0.13701 0.08715 0.50102 0.0
H2126 H 0.18128 0.11079 0.57784 0.0
H2127 H 0.20583 0.13473 0.50503 0.0
C2128 C 0.23961 0.15356 0.52253 0.0
C2129 C 0.25376 0.15869 0.54351 0.0
C2130 C 0.17155 0.10545 0.56101 0.0
C2131 C 0.20717 0.12812 0.54143 0.0
C2132 C 0.14771 0.09179 0.55952 0.0
C2133 C 0.13467 0.08507 0.5379 0.0
C2134 C 0.1823 0.11252 0.54075 0.0
C2135 C 0.14627 0.09198 0.51809 0.0
C2136 C 0.21642 0.13826 0.52141 0.0
C2137 C 0.244 0.14792 0.56309 0.0
N2138 N 0.16933 0.10541 0.52002 0.0
N2139 N 0.22124 0.13323 0.56161 0.0
H2140 H 0.24993 0.028 0.7656 0.0
H2141 H 0.35107 0.97099 0.80753 0.0
H2142 H 0.26341 1.01037 0.83527 0.0
H2143 H 0.31788 0.95799 0.73787 0.0
H2144 H 0.32888 1.00003 0.81669 0.0
H2145 H 0.2839 0.01557 0.75467 0.0
C2146 C 0.26019 0.02178 0.77863 0.0
C2147 C 0.25368 0.01971 0.80126 0.0
C2148 C 0.32692 0.99125 0.79927 0.0
C2149 C 0.29258 1.00615 0.78903 0.0
C2150 C 0.33956 0.97473 0.79402 0.0
C2151 C 0.33576 0.96152 0.77211 0.0
C2152 C 0.31055 0.99463 0.78244 0.0
C2153 C 0.32117 0.96758 0.75504 0.0
C2154 C 0.27955 0.0148 0.7724 0.0
C2155 C 0.26761 1.01175 0.81753 0.0
N2156 N 0.30869 0.98337 0.7607 0.0
N2157 N 0.28637 1.00513 0.81107 0.0
H2158 H 0.36763 0.9918 0.99964 0.0
H2159 H 0.49071 0.99418 0.061 0.0
H2160 H 0.37417 0.9563 0.06242 0.0
H2161 H 0.48326 0.04736 0.01259 0.0
H2162 H 0.44804 0.97831 0.06046 0.0
H2163 H 0.41012 1.01094 0.00291 0.0
C2164 C 0.37801 0.98815 0.01418 0.0
C2165 C 0.36741 0.97237 0.03074 0.0
C2166 C 0.45577 0.99354 0.05007 0.0
C2167 C 0.41597 0.994 0.03445 0.0
C2168 C 0.4801 1.00252 0.05027 0.0
C2169 C 0.4905 0.02204 0.03674 0.0
C2170 C 0.4418 1.00396 0.03603 0.0
C2171 C 0.47594 0.03228 0.02328 0.0
C2172 C 0.40224 0.99912 0.01606 0.0
C2173 C 0.38166 0.96837 0.04929 0.0
N2174 N 0.45229 0.02298 0.02313 0.0
N2175 N 0.40528 0.97893 0.05053 0.0
H2176 H 0.9106 0.59057 0.73474 0.0
H2177 H 0.80222 0.63562 0.76949 0.0
H2178 H 0.88327 0.58448 0.8015 0.0
H2179 H 0.8423 0.66384 0.71284 0.0
H2180 H 0.82588 0.60761 0.77579 0.0
H2181 H 0.88066 0.60984 0.7219 0.0
C2182 C 0.89829 0.59324 0.74665 0.0
C2183 C 0.89954 0.5862 0.76929 0.0
C2184 C 0.82929 0.61968 0.76177 0.0
C2185 C 0.8652 0.60762 0.75463 0.0
C2186 C 0.8156 0.63545 0.75797 0.0
C2187 C 0.8205 0.65226 0.74077 0.0
C2188 C 0.848 0.62074 0.7483 0.0
C2189 C 0.83826 0.65143 0.72655 0.0
C2190 C 0.88123 0.60414 0.7393 0.0
C2191 C 0.88313 0.58993 0.784 0.0
N2192 N 0.8516 0.63612 0.7308 0.0
N2193 N 0.86664 0.60038 0.7764 0.0
H2194 H 0.90686 0.714 0.05741 0.0
H2195 H 0.91537 0.57365 0.04192 0.0
H2196 H 0.84929 0.6496 0.02902 0.0
H2197 H 0.97256 0.63774 0.07153 0.0
H2198 H 0.89079 0.60115 0.03731 0.0
H2199 H 0.9313 0.68641 0.0625 0.0
C2200 C 0.89936 0.69407 0.05219 0.0
C2201 C 0.87599 0.6841 0.04278 0.0
C2202 C 0.90871 0.6092 0.04485 0.0
C2203 C 0.90385 0.6524 0.04862 0.0
C2204 C 0.9227 0.59347 0.04763 0.0
C2205 C 0.94606 0.6034 0.05713 0.0
C2206 C 0.91812 0.63508 0.0516 0.0
C2207 C 0.95474 0.62932 0.06386 0.0
C2208 C 0.91333 0.67832 0.05514 0.0
C2209 C 0.86722 0.65812 0.03635 0.0
N2210 N 0.94077 0.64426 0.06096 0.0
N2211 N 0.88115 0.64318 0.0394 0.0
H2212 H 0.18101 0.12201 0.83647 0.0
H2213 H 0.30105 0.20882 0.79831 0.0
H2214 H 0.24628 0.10415 0.84231 0.0
H2215 H 0.24321 0.23766 0.81014 0.0
H2216 H 0.28002 0.16972 0.8135 0.0
H2217 H 0.20255 0.16452 0.82723 0.0
C2218 C 0.19988 0.12714 0.8362 0.0
C2219 C 0.21183 0.10941 0.83979 0.0
C2220 C 0.2719 0.18459 0.81287 0.0
C2221 C 0.23636 0.15761 0.82898 0.0
C2222 C 0.28384 0.20689 0.80399 0.0
C2223 C 0.2738 0.22649 0.80282 0.0
C2224 C 0.24962 0.18166 0.82045 0.0
C2225 C 0.25153 0.22296 0.81068 0.0
C2226 C 0.21212 0.15134 0.83085 0.0
C2227 C 0.23627 0.11706 0.8393 0.0
N2228 N 0.24007 0.20084 0.81906 0.0
N2229 N 0.24766 0.14047 0.83369 0.0
H2230 H 0.43578 0.98602 0.24656 0.0
H2231 H 0.36072 0.87298 0.31409 0.0
H2232 H 0.42514 0.99282 0.31891 0.0
H2233 H 0.36781 0.86622 0.24091 0.0
H2234 H 0.3853 0.91672 0.31622 0.0
H2235 H 0.41221 0.94166 0.24423 0.0
C2236 C 0.4286 0.97817 0.26196 0.0
C2237 C 0.43237 0.99317 0.28293 0.0
C2238 C 0.38148 0.90569 0.29968 0.0
C2239 C 0.40537 0.94256 0.28039 0.0
C2240 C 0.36741 0.88069 0.29845 0.0
C2241 C 0.36217 0.8659 0.27729 0.0
C2242 C 0.39044 0.91601 0.27962 0.0
C2243 C 0.37136 0.87694 0.2576 0.0
C2244 C 0.4151 0.95288 0.26061 0.0
C2245 C 0.42263 0.98202 0.30235 0.0
N2246 N 0.38507 0.90134 0.25925 0.0
N2247 N 0.40955 0.95743 0.30059 0.0
H2248 H 0.63009 0.42322 0.65064 0.0
H2249 H 0.57975 0.47089 0.53809 0.0
H2250 H 0.60905 0.37885 0.58502 0.0
H2251 H 0.6066 0.51887 0.60115 0.0
H2252 H 0.59241 0.43782 0.55476 0.0
H2253 H 0.62417 0.45942 0.6325 0.0
C2254 C 0.62448 0.42116 0.63237 0.0
C2255 C 0.61978 0.39789 0.61938 0.0
C2256 C 0.59564 0.45559 0.56497 0.0
C2257 C 0.61282 0.43913 0.59861 0.0
C2258 C 0.5883 0.4745 0.55549 0.0
C2259 C 0.59186 0.49762 0.56835 0.0
C2260 C 0.60651 0.45967 0.58757 0.0
C2261 C 0.60331 0.50125 0.59069 0.0
C2262 C 0.62108 0.44183 0.62204 0.0
C2263 C 0.61268 0.39635 0.59576 0.0
N2264 N 0.61009 0.48237 0.59968 0.0
N2265 N 0.6092 0.41661 0.5862 0.0
H2266 H 0.48107 0.7678 0.37491 0.0
H2267 H 0.34855 0.76613 0.34684 0.0
H2268 H 0.43226 0.76322 0.4268 0.0
H2269 H 0.40056 0.78125 0.29753 0.0
H2270 H 0.37744 0.7596 0.37521 0.0
H2271 H 0.45011 0.76696 0.34536 0.0
C2272 C 0.46377 0.76644 0.3801 0.0
C2273 C 0.4593 0.76587 0.40343 0.0
C2274 C 0.3825 0.76422 0.35815 0.0
C2275 C 0.42377 0.765 0.36958 0.0
C2276 C 0.36601 0.76794 0.34189 0.0
C2277 C 0.3722 0.77443 0.31976 0.0
C2278 C 0.40534 0.76695 0.35227 0.0
C2279 C 0.39506 0.77643 0.31439 0.0
C2280 C 0.44611 0.766 0.36318 0.0
C2281 C 0.4365 0.76386 0.40905 0.0
N2282 N 0.41083 0.7728 0.33058 0.0
N2283 N 0.4196 0.76368 0.39223 0.0
H2284 H 0.07385 0.74536 0.1018 0.0
H2285 H 0.11534 0.63802 0.03677 0.0
H2286 H 0.13906 0.76002 0.07015 0.0
H2287 H 0.05655 0.62258 0.07827 0.0
H2288 H 0.12206 0.68303 0.04544 0.0
H2289 H 0.06478 0.70071 0.08934 0.0
C2290 C 0.08616 0.73925 0.092 0.0
C2291 C 0.10735 0.75647 0.08715 0.0
C2292 C 0.10769 0.66981 0.05265 0.0
C2293 C 0.09709 0.70528 0.07299 0.0
C2294 C 0.10383 0.64407 0.04772 0.0
C2295 C 0.08543 0.62646 0.05693 0.0
C2296 C 0.09298 0.67807 0.06679 0.0
C2297 C 0.07107 0.63547 0.07096 0.0
C2298 C 0.081 0.71371 0.085 0.0
C2299 C 0.12257 0.74742 0.07436 0.0
N2300 N 0.07516 0.66066 0.07546 0.0
N2301 N 0.1172 0.72242 0.06783 0.0
H2302 H 0.10436 0.26087 0.92339 0.0
H2303 H 0.16628 0.33583 0.82075 0.0
H2304 H 0.0748 0.30911 0.8844 0.0
H2305 H 0.18841 0.2776 0.85199 0.0
H2306 H 0.13383 0.32818 0.84526 0.0
H2307 H 0.13679 0.26899 0.89896 0.0
C2308 C 0.1047 0.27321 0.90972 0.0
C2309 C 0.08682 0.2843 0.90591 0.0
C2310 C 0.14581 0.3171 0.84674 0.0
C2311 C 0.12392 0.2937 0.87788 0.0
C2312 C 0.16427 0.32137 0.83267 0.0
C2313 C 0.18016 0.30739 0.83433 0.0
C2314 C 0.14325 0.29878 0.86263 0.0
C2315 C 0.17687 0.28915 0.85036 0.0
C2316 C 0.1232 0.2778 0.89573 0.0
C2317 C 0.08818 0.30011 0.88791 0.0
N2318 N 0.15882 0.28541 0.86389 0.0
N2319 N 0.10644 0.30437 0.87457 0.0
H2320 H 0.58496 0.74808 0.97651 0.0
H2321 H 0.55054 0.59585 0.96084 0.0
H2322 H 0.55248 0.70644 0.91195 0.0
H2323 H 0.57294 0.64043 0.02601 0.0
H2324 H 0.55188 0.63463 0.94201 0.0
H2325 H 0.58144 0.70856 0.99368 0.0
C2326 C 0.57697 0.73065 0.96577 0.0
C2327 C 0.56901 0.73123 0.94247 0.0
C2328 C 0.55644 0.63595 0.96044 0.0
C2329 C 0.56505 0.68452 0.96264 0.0
C2330 C 0.5557 0.61365 0.97132 0.0
C2331 C 0.56157 0.61431 0.99536 0.0
C2332 C 0.56332 0.65961 0.97342 0.0
C2333 C 0.56814 0.63842 0.00759 0.0
C2334 C 0.57496 0.70782 0.97577 0.0
C2335 C 0.55883 0.70742 0.92992 0.0
N2336 N 0.56889 0.65969 0.99662 0.0
N2337 N 0.55729 0.68529 0.94004 0.0
H2338 H 0.14394 0.84162 0.70689 0.0
H2339 H 0.22919 0.76146 0.75232 0.0
H2340 H 0.12271 0.76122 0.71033 0.0
H2341 H 0.25598 0.84154 0.74807 0.0
H2342 H 0.19033 0.76241 0.73758 0.0
H2343 H 0.18415 0.8435 0.72232 0.0
C2344 C 0.14745 0.82437 0.71093 0.0
C2345 C 0.1292 0.80119 0.70707 0.0
C2346 C 0.20458 0.7799 0.73979 0.0
C2347 C 0.17606 0.80323 0.72495 0.0
C2348 C 0.22711 0.77938 0.74831 0.0
C2349 C 0.24659 0.80142 0.75166 0.0
C2350 C 0.20066 0.80268 0.73431 0.0
C2351 C 0.24192 0.8239 0.74591 0.0
C2352 C 0.17064 0.82545 0.71974 0.0
C2353 C 0.13562 0.77966 0.71274 0.0
N2354 N 0.21975 0.82393 0.73765 0.0
N2355 N 0.15799 0.78125 0.72119 0.0
H2356 H 0.06045 0.39434 0.39827 0.0
H2357 H 0.07206 0.46888 0.52422 0.0
H2358 H 0.07565 0.36195 0.46042 0.0
H2359 H 0.05757 0.49799 0.46001 0.0
H2360 H 0.07374 0.43027 0.50243 0.0
H2361 H 0.05975 0.43187 0.4213 0.0
C2362 C 0.06371 0.39494 0.41683 0.0
C2363 C 0.06814 0.37433 0.42708 0.0
C2364 C 0.0702 0.44508 0.49308 0.0
C2365 C 0.06726 0.41865 0.4543 0.0
C2366 C 0.06923 0.46733 0.50557 0.0
C2367 C 0.06462 0.48723 0.49419 0.0
C2368 C 0.06656 0.44227 0.46876 0.0
C2369 C 0.06115 0.48355 0.46985 0.0
C2370 C 0.06328 0.41671 0.4301 0.0
C2371 C 0.07219 0.37703 0.45145 0.0
N2372 N 0.06218 0.46182 0.45819 0.0
N2373 N 0.07162 0.39857 0.46409 0.0
H2374 H 0.46102 0.27032 0.17876 0.0
H2375 H 0.40461 0.32898 0.28292 0.0
H2376 H 0.50497 0.32446 0.23161 0.0
H2377 H 0.36531 0.26821 0.23319 0.0
H2378 H 0.44087 0.32885 0.26525 0.0
H2379 H 0.42667 0.27056 0.19868 0.0
C2380 C 0.46372 0.28233 0.19466 0.0
C2381 C 0.48668 0.29735 0.20314 0.0
C2382 C 0.42437 0.31547 0.25819 0.0
C2383 C 0.44577 0.29787 0.22672 0.0
C2384 C 0.40339 0.31549 0.26836 0.0
C2385 C 0.38119 0.29852 0.25987 0.0
C2386 C 0.42371 0.29845 0.23896 0.0
C2387 C 0.38153 0.28172 0.24074 0.0
C2388 C 0.44371 0.28241 0.20616 0.0
C2389 C 0.48807 0.31232 0.22411 0.0
N2390 N 0.40203 0.28222 0.23113 0.0
N2391 N 0.46815 0.31228 0.23492 0.0
H2392 H 0.65032 0.49904 0.38376 0.0
H2393 H 0.64707 0.55483 0.51242 0.0
H2394 H 0.71204 0.54395 0.42669 0.0
H2395 H 0.58579 0.5206 0.46458 0.0
H2396 H 0.67147 0.54447 0.48389 0.0
H2397 H 0.62703 0.49927 0.41634 0.0
C2398 C 0.65905 0.50863 0.40015 0.0
C2399 C 0.68307 0.52194 0.40241 0.0
C2400 C 0.65267 0.53912 0.47973 0.0
C2401 C 0.65646 0.52252 0.43965 0.0
C2402 C 0.63873 0.54509 0.49596 0.0
C2403 C 0.61437 0.53888 0.49074 0.0
C2404 C 0.64216 0.52679 0.4582 0.0
C2405 C 0.60451 0.52606 0.46924 0.0
C2406 C 0.64572 0.50883 0.41872 0.0
C2407 C 0.6935 0.53372 0.42412 0.0
N2408 N 0.61847 0.52056 0.45372 0.0
N2409 N 0.68005 0.53406 0.44187 0.0
H2410 H 0.27709 0.87589 0.05141 0.0
H2411 H 0.36607 0.81323 0.11211 0.0
H2412 H 0.33864 0.86872 0.02105 0.0
H2413 H 0.30014 0.81285 0.13761 0.0
H2414 H 0.35476 0.82994 0.07678 0.0
H2415 H 0.28349 0.84931 0.08127 0.0
C2416 C 0.2918 0.86847 0.05086 0.0
C2417 C 0.3075 0.87476 0.03387 0.0
C2418 C 0.34268 0.82596 0.09002 0.0
C2419 C 0.31513 0.84455 0.06816 0.0
C2420 C 0.3491 0.81634 0.11014 0.0
C2421 C 0.3342 0.81206 0.12798 0.0
C2422 C 0.32125 0.83137 0.0878 0.0
C2423 C 0.31243 0.8165 0.12454 0.0
C2424 C 0.29547 0.85329 0.06793 0.0
C2425 C 0.32617 0.86447 0.03391 0.0
N2426 N 0.30673 0.82613 0.10498 0.0
N2427 N 0.32965 0.85014 0.05099 0.0
H2428 H 1.00635 0.53221 0.85716 0.0
H2429 H 1.01725 0.57698 0.99063 0.0
H2430 H 0.96296 0.57372 0.88564 0.0
H2431 H 0.06831 0.54936 0.95794 0.0
H2432 H 0.99757 0.57726 0.95257 0.0
H2433 H 0.02946 0.53909 0.89423 0.0
C2434 C 1.00168 0.54279 0.87126 0.0
C2435 C 0.98259 0.55222 0.86842 0.0
C2436 C 1.01322 0.5714 0.95376 0.0
C2437 C 1.00902 0.56019 0.91097 0.0
C2438 C 1.02446 0.57121 0.97546 0.0
C2439 C 0.04429 0.56283 0.97746 0.0
C2440 C 1.0218 0.56298 0.93402 0.0
C2441 C 0.05295 0.55574 0.95725 0.0
C2442 C 1.01498 0.54685 0.8924 0.0
C2443 C 0.9775 0.56605 0.88718 0.0
N2444 N 0.04151 0.55574 0.93639 0.0
N2445 N 0.99055 0.56945 0.9078 0.0
H2446 H 0.34616 0.25282 0.59946 0.0
H2447 H 0.27651 0.27675 0.70666 0.0
H2448 H 0.2738 0.25186 0.5932 0.0
H2449 H 0.35001 0.28223 0.71313 0.0
H2450 H 0.27563 0.26866 0.66494 0.0
H2451 H 0.3485 0.26522 0.64079 0.0
C2452 C 0.33083 0.25548 0.6067 0.0
C2453 C 0.30971 0.25119 0.59278 0.0
C2454 C 0.29198 0.2717 0.67545 0.0
C2455 C 0.31223 0.26512 0.64021 0.0
C2456 C 0.29249 0.27626 0.69935 0.0
C2457 C 0.31335 0.28011 0.71353 0.0
C2458 C 0.31245 0.27086 0.66554 0.0
C2459 C 0.33351 0.27934 0.70294 0.0
C2460 C 0.33217 0.26248 0.63034 0.0
C2461 C 0.29044 0.25489 0.60319 0.0
N2462 N 0.33253 0.27473 0.67962 0.0
N2463 N 0.29212 0.26147 0.62625 0.0
H2464 H 0.6126 0.53281 0.29999 0.0
H2465 H 0.62944 0.56202 0.16889 0.0
H2466 H 0.67094 0.5259 0.26354 0.0
H2467 H 0.56464 0.55665 0.19916 0.0
H2468 H 0.64498 0.54994 0.20441 0.0
H2469 H 0.59425 0.54164 0.2639 0.0
C2470 C 0.62139 0.53281 0.28438 0.0
C2471 C 0.64342 0.52882 0.28481 0.0
C2472 C 0.62732 0.55129 0.20334 0.0
C2473 C 0.62276 0.53919 0.24373 0.0
C2474 C 0.61841 0.55816 0.18301 0.0
C2475 C 0.59561 0.56008 0.18096 0.0
C2476 C 0.61344 0.54645 0.22196 0.0
C2477 C 0.58236 0.5555 0.20007 0.0
C2478 C 0.61097 0.53795 0.26383 0.0
C2479 C 0.65404 0.52907 0.26409 0.0
N2480 N 0.59147 0.54884 0.21982 0.0
N2481 N 0.6437 0.53437 0.24449 0.0
H2482 H 0.24656 0.86215 0.93936 0.0
H2483 H 0.32572 0.87255 0.83359 0.0
H2484 H 0.303 0.92866 0.9291 0.0
H2485 H 0.26674 0.80772 0.84193 0.0
H2486 H 0.31567 0.8948 0.8668 0.0
H2487 H 0.25125 0.84347 0.9017 0.0
C2488 C 0.25972 0.87297 0.92907 0.0
C2489 C 0.2746 0.89686 0.93753 0.0
C2490 C 0.30484 0.87576 0.86125 0.0
C2491 C 0.28027 0.8755 0.89454 0.0
C2492 C 0.31061 0.86303 0.8423 0.0
C2493 C 0.29719 0.83815 0.83506 0.0
C2494 C 0.2856 0.86348 0.87311 0.0
C2495 C 0.27772 0.82681 0.84698 0.0
C2496 C 0.26245 0.86226 0.90758 0.0
C2497 C 0.29128 0.91007 0.92338 0.0
N2498 N 0.27262 0.8395 0.8655 0.0
N2499 N 0.29384 0.89909 0.9027 0.0
H2500 H 0.99725 0.53185 0.77975 0.0
H2501 H 0.08218 0.59687 0.6886 0.0
H2502 H 1.01771 0.61176 0.77275 0.0
H2503 H 0.05844 0.517 0.69631 0.0
H2504 H 0.06726 0.60452 0.72547 0.0
H2505 H 0.02769 0.52807 0.75566 0.0
C2506 C 1.00828 0.54866 0.77316 0.0
C2507 C 1.00463 0.57205 0.77769 0.0
C2508 C 0.06586 0.58539 0.7193 0.0
C2509 C 0.03943 0.56785 0.74984 0.0
C2510 C 0.0743 0.58098 0.69822 0.0
C2511 C 0.07093 0.55619 0.68891 0.0
C2512 C 0.05403 0.56484 0.73108 0.0
C2513 C 0.06135 0.53644 0.70253 0.0
C2514 C 1.02578 0.54653 0.75951 0.0
C2515 C 1.0198 0.59333 0.76931 0.0
N2516 N 0.05284 0.54118 0.72268 0.0
N2517 N 0.03629 0.59065 0.75532 0.0
H2518 H 0.32976 0.26408 0.47196 0.0
H2519 H 0.31997 0.23212 0.33454 0.0
H2520 H 0.31788 0.18902 0.4399 0.0
H2521 H 0.33052 0.30628 0.3681 0.0
H2522 H 0.32137 0.21598 0.37276 0.0
H2523 H 0.33208 0.27999 0.43379 0.0
C2524 C 0.3277 0.25094 0.45692 0.0
C2525 C 0.32353 0.22516 0.4592 0.0
C2526 C 0.32348 0.23581 0.37168 0.0
C2527 C 0.32614 0.24325 0.41528 0.0
C2528 C 0.32277 0.24503 0.34987 0.0
C2529 C 0.32497 0.27056 0.34805 0.0
C2530 C 0.32648 0.25228 0.39175 0.0
C2531 C 0.32852 0.28641 0.36855 0.0
C2532 C 0.32903 0.26003 0.43508 0.0
C2533 C 0.32105 0.20905 0.43901 0.0
N2534 N 0.32907 0.27702 0.38943 0.0
N2535 N 0.32232 0.21833 0.41793 0.0
H2536 H 0.35712 0.58221 0.56328 0.0
H2537 H 0.42487 0.52829 0.47316 0.0
H2538 H 0.34908 0.59227 0.49067 0.0
H2539 H 0.41156 0.49829 0.53912 0.0
H2540 H 0.395 0.54928 0.47774 0.0
H2541 H 0.37588 0.55007 0.55418 0.0
C2542 C 0.35925 0.57759 0.5454 0.0
C2543 C 0.35183 0.59012 0.52771 0.0
C2544 C 0.39827 0.53768 0.49099 0.0
C2545 C 0.3733 0.55339 0.51717 0.0
C2546 C 0.41521 0.52549 0.48831 0.0
C2547 C 0.42106 0.51189 0.50601 0.0
C2548 C 0.38739 0.53652 0.51163 0.0
C2549 C 0.40806 0.50916 0.52534 0.0
C2550 C 0.36978 0.55908 0.54019 0.0
C2551 C 0.35472 0.58315 0.50483 0.0
N2552 N 0.39217 0.5218 0.52785 0.0
N2553 N 0.36556 0.56548 0.50022 0.0
H2554 H 0.87643 0.97361 0.56683 0.0
H2555 H 0.99237 0.988 0.5019 0.0
H2556 H 0.88783 0.91542 0.52108 0.0
H2557 H 0.98559 0.04528 0.5518 0.0
H2558 H 0.95221 0.96322 0.50603 0.0
H2559 H 0.91478 1.00181 0.55944 0.0
C2560 C 0.88696 0.96677 0.55524 0.0
C2561 C 0.87897 0.94206 0.54466 0.0
C2562 C 0.95939 0.98127 0.51601 0.0
C2563 C 0.92265 0.97421 0.53604 0.0
C2564 C 0.98235 0.99549 0.51362 0.0
C2565 C 0.99244 0.01866 0.52669 0.0
C2566 C 0.94633 0.99015 0.5317 0.0
C2567 C 0.97851 0.02748 0.54143 0.0
C2568 C 0.90881 0.98288 0.55101 0.0
C2569 C 0.8933 0.93423 0.52974 0.0
N2570 N 0.95618 1.01308 0.5437 0.0
N2571 N 0.9144 0.95023 0.52592 0.0
H2572 H 0.8951 0.10304 0.25672 0.0
H2573 H 0.8478 0.16979 0.35731 0.0
H2574 H 0.92014 0.10318 0.32799 0.0
H2575 H 0.80964 0.14407 0.29039 0.0
H2576 H 0.87435 0.1454 0.34805 0.0
H2577 H 0.86412 0.11916 0.26933 0.0
C2578 C 0.89412 0.10655 0.27506 0.0
C2579 C 0.9103 0.10194 0.29135 0.0
C2580 C 0.85985 0.14471 0.33563 0.0
C2581 C 0.87477 0.12033 0.30592 0.0
C2582 C 0.84473 0.15859 0.3409 0.0
C2583 C 0.82661 0.15908 0.32453 0.0
C2584 C 0.85698 0.13165 0.31373 0.0
C2585 C 0.82327 0.14413 0.30358 0.0
C2586 C 0.87628 0.11553 0.28226 0.0
C2587 C 0.90803 0.10657 0.31489 0.0
N2588 N 0.83856 0.13137 0.29864 0.0
N2589 N 0.89068 0.11578 0.32151 0.0
H2590 H 0.75625 0.12031 0.02659 0.0
H2591 H 0.63367 0.06594 0.07623 0.0
H2592 H 0.74723 0.08067 0.08825 0.0
H2593 H 0.63835 0.07852 0.0041 0.0
H2594 H 0.67576 0.07389 0.08123 0.0
H2595 H 0.71362 0.10715 0.01799 0.0
C2596 C 0.74531 0.10869 0.03823 0.0
C2597 C 0.75524 0.10177 0.05831 0.0
C2598 C 0.66764 0.07481 0.06426 0.0
C2599 C 0.70666 0.0869 0.04863 0.0
C2600 C 0.64359 0.07048 0.06139 0.0
C2601 C 0.63252 0.07178 0.03971 0.0
C2602 C 0.68091 0.08086 0.04541 0.0
C2603 C 0.64627 0.07742 0.0211 0.0
C2604 C 0.72103 0.10113 0.03324 0.0
C2605 C 0.74031 0.08654 0.07266 0.0
N2606 N 0.66991 0.08203 0.02442 0.0
N2607 N 0.71673 0.07986 0.06767 0.0
H2608 H 0.25891 0.50407 0.28629 0.0
H2609 H 0.28113 0.41715 0.38133 0.0
H2610 H 0.20354 0.45669 0.32162 0.0
H2611 H 0.33466 0.4657 0.34466 0.0
H2612 H 0.25394 0.43927 0.36775 0.0
H2613 H 0.2877 0.49691 0.31416 0.0
C2614 C 0.2528 0.49202 0.29988 0.0
C2615 C 0.22881 0.48045 0.30132 0.0
C2616 C 0.27186 0.44543 0.36323 0.0
C2617 C 0.26179 0.47221 0.3335 0.0
C2618 C 0.28744 0.43282 0.37098 0.0
C2619 C 0.30995 0.4385 0.36312 0.0
C2620 C 0.27903 0.464 0.34781 0.0
C2621 C 0.31742 0.45991 0.35079 0.0
C2622 C 0.26927 0.48815 0.31599 0.0
C2623 C 0.22191 0.4656 0.31968 0.0
N2624 N 0.30181 0.47139 0.34301 0.0
N2625 N 0.23837 0.46157 0.33489 0.0
H2626 H 0.2252 0.3808 0.04092 0.0
H2627 H 0.22975 0.52421 0.02862 0.0
H2628 H 0.28869 0.44084 0.034 0.0
H2629 H 0.16561 0.46374 0.03163 0.0
H2630 H 0.25175 0.49393 0.03128 0.0
H2631 H 0.20304 0.41101 0.03845 0.0
C2632 C 0.23448 0.40031 0.03889 0.0
C2633 C 0.25881 0.40829 0.03764 0.0
C2634 C 0.23286 0.48729 0.03138 0.0
C2635 C 0.23363 0.44292 0.03483 0.0
C2636 C 0.2203 0.50455 0.02976 0.0
C2637 C 0.19582 0.49651 0.02996 0.0
C2638 C 0.22086 0.46177 0.03319 0.0
C2639 C 0.1845 0.47084 0.03177 0.0
C2640 C 0.22183 0.41754 0.03747 0.0
C2641 C 0.26993 0.43381 0.03501 0.0
N2642 N 0.19711 0.4544 0.0333 0.0
N2643 N 0.25726 0.45019 0.0337 0.0
H2644 H 0.93753 0.975 0.21548 0.0
H2645 H 0.88674 0.85586 0.25243 0.0
H2646 H 0.90916 1.00168 0.27453 0.0
H2647 H 0.84049 0.89071 0.28528 0.0
H2648 H 0.91006 0.89713 0.2426 0.0
H2649 H 0.91632 0.93178 0.22238 0.0
C2650 C 0.927 0.97175 0.23 0.0
C2651 C 0.92522 0.99195 0.24454 0.0
C2652 C 0.89459 0.89572 0.25158 0.0
C2653 C 0.90129 0.9426 0.25283 0.0
C2654 C 0.88139 0.87217 0.25743 0.0
C2655 C 0.86157 0.86982 0.26961 0.0
C2656 C 0.88788 0.91704 0.25797 0.0
C2657 C 0.85556 0.89161 0.27578 0.0
C2658 C 0.91507 0.94704 0.23408 0.0
C2659 C 0.91116 0.98668 0.26297 0.0
N2660 N 0.86875 0.91433 0.26998 0.0
N2661 N 0.89966 0.96251 0.26652 0.0
H2662 H 0.69216 0.07218 0.79303 0.0
H2663 H 0.78628 0.18494 0.74278 0.0
H2664 H 0.73472 0.06159 0.73881 0.0
H2665 H 0.75908 0.19327 0.80852 0.0
H2666 H 0.76556 0.14001 0.73995 0.0
H2667 H 0.71454 0.11699 0.79791 0.0
C2668 C 0.70621 0.07927 0.78217 0.0
C2669 C 0.71156 0.06316 0.76543 0.0
C2670 C 0.76419 0.15161 0.75506 0.0
C2671 C 0.73709 0.11428 0.77088 0.0
C2672 C 0.77595 0.17731 0.75666 0.0
C2673 C 0.77433 0.1929 0.77589 0.0
C2674 C 0.75045 0.14138 0.77267 0.0
C2675 C 0.76082 0.18191 0.79341 0.0
C2676 C 0.71901 0.1048 0.78503 0.0
C2677 C 0.72999 0.07331 0.75191 0.0
N2678 N 0.74923 0.15679 0.7913 0.0
N2679 N 0.742 0.09825 0.75485 0.0
loop_
_geom_bond_atom_site_label_1
_geom_bond_atom_site_label_2
_geom_bond_distance
_geom_bond_site_symmetry_2
_ccdc_geom_bond_type
C0 O1 1.160 . S
C0 O7 1.185 . S
O1 C0 1.160 . S
O2 Zn3 1.899 . S
O2 C10 1.284 . S
Zn3 O2 1.899 . S
Zn3 O4 2.032 . S
Zn3 O7 2.086 . S
Zn3 O12 1.977 . S
O4 Zn3 2.032 . S
O4 C8 1.278 . S
C5 O6 1.203 . S
C5 O12 1.267 1_655 S
O6 C5 1.203 . S
O7 C0 1.185 . S
O7 Zn3 2.086 . S
C8 O4 1.278 . S
C8 O9 1.211 . S
O9 C8 1.211 . S
C10 O2 1.284 . S
C10 O11 1.273 . S
O11 C10 1.273 . S
O12 Zn3 1.977 . S
O12 C5 1.267 1_455 S
C13 O14 1.160 1_455 S
C13 O20 1.185 . S
O14 C13 1.160 1_655 S
O15 Zn16 1.899 . S
O15 C23 1.284 . S
Zn16 O15 1.899 . S
Zn16 O17 2.032 . S
Zn16 O20 2.086 . S
Zn16 O25 1.977 . S
O17 Zn16 2.032 . S
O17 C21 1.278 . S
C18 O19 1.203 . S
C18 O25 1.267 . S
O19 C18 1.203 . S
O20 C13 1.185 . S
O20 Zn16 2.086 . S
C21 O17 1.278 . S
C21 O22 1.211 . S
O22 C21 1.211 . S
C23 O15 1.284 . S
C23 O24 1.273 . S
O24 C23 1.273 . S
O25 Zn16 1.977 . S
O25 C18 1.267 . S
C26 O27 1.160 . S
C26 O33 1.185 . S
O27 C26 1.160 . S
O28 Zn29 1.899 . S
O28 C36 1.284 . S
Zn29 O28 1.899 . S
Zn29 O30 2.032 . S
Zn29 O33 2.086 . S
Zn29 O38 1.977 . S
O30 Zn29 2.032 . S
O30 C34 1.278 . S
C31 O32 1.203 . S
C31 O38 1.267 . S
O32 C31 1.203 . S
O33 C26 1.185 . S
O33 Zn29 2.086 . S
C34 O30 1.278 . S
C34 O35 1.211 . S
O35 C34 1.211 . S
C36 O28 1.284 . S
C36 O37 1.273 . S
O37 C36 1.273 . S
O38 Zn29 1.977 . S
O38 C31 1.267 . S
C39 O40 1.160 . S
C39 O46 1.185 . S
O40 C39 1.160 . S
O41 Zn42 1.899 . S
O41 C49 1.284 . S
Zn42 O41 1.899 . S
Zn42 O43 2.032 . S
Zn42 O46 2.086 . S
Zn42 O51 1.977 . S
O43 Zn42 2.032 . S
O43 C47 1.278 . S
C44 O45 1.203 . S
C44 O51 1.267 . S
O45 C44 1.203 . S
O46 C39 1.185 . S
O46 Zn42 2.086 . S
C47 O43 1.278 . S
C47 O48 1.211 . S
O48 C47 1.211 . S
C49 O41 1.284 . S
C49 O50 1.273 . S
O50 C49 1.273 . S
O51 Zn42 1.977 . S
O51 C44 1.267 . S
C52 O53 1.160 . S
C52 O59 1.185 . S
O53 C52 1.160 . S
O54 Zn55 1.899 . S
O54 C62 1.284 . S
Zn55 O54 1.899 . S
Zn55 O56 2.032 . S
Zn55 O59 2.086 . S
Zn55 O64 1.977 . S
O56 Zn55 2.032 . S
O56 C60 1.278 . S
C57 O58 1.203 . S
C57 O64 1.267 . S
O58 C57 1.203 . S
O59 C52 1.185 . S
O59 Zn55 2.086 . S
C60 O56 1.278 . S
C60 O61 1.211 . S
O61 C60 1.211 . S
C62 O54 1.284 . S
C62 O63 1.273 . S
O63 C62 1.273 . S
O64 Zn55 1.977 . S
O64 C57 1.267 . S
C65 O66 1.160 . S
C65 O72 1.185 . S
O66 C65 1.160 . S
O67 Zn68 1.899 . S
O67 C75 1.284 . S
Zn68 O67 1.899 . S
Zn68 O69 2.032 . S
Zn68 O72 2.086 . S
Zn68 O77 1.977 . S
O69 Zn68 2.032 . S
O69 C73 1.278 . S
C70 O71 1.203 . S
C70 O77 1.267 . S
O71 C70 1.203 . S
O72 C65 1.185 . S
O72 Zn68 2.086 . S
C73 O69 1.278 . S
C73 O74 1.211 . S
O74 C73 1.211 . S
C75 O67 1.284 . S
C75 O76 1.273 . S
O76 C75 1.273 . S
O77 Zn68 1.977 . S
O77 C70 1.267 . S
C78 O79 1.160 . S
C78 O85 1.185 . S
O79 C78 1.160 . S
O80 Zn81 1.899 . S
O80 C88 1.284 . S
Zn81 O80 1.899 . S
Zn81 O82 2.032 . S
Zn81 O85 2.086 . S
Zn81 O90 1.977 . S
O82 Zn81 2.032 . S
O82 C86 1.278 . S
C83 O84 1.203 . S
C83 O90 1.267 . S
O84 C83 1.203 . S
O85 C78 1.185 . S
O85 Zn81 2.086 . S
C86 O82 1.278 . S
C86 O87 1.211 . S
O87 C86 1.211 . S
C88 O80 1.284 . S
C88 O89 1.273 . S
O89 C88 1.273 . S
O90 Zn81 1.977 . S
O90 C83 1.267 . S
C91 O92 1.160 . S
C91 O98 1.185 . S
O92 C91 1.160 . S
O93 Zn94 1.899 1_655 S
O93 C101 1.284 . S
Zn94 O93 1.899 1_455 S
Zn94 O95 2.032 . S
Zn94 O98 2.086 . S
Zn94 O103 1.977 1_455 S
O95 Zn94 2.032 . S
O95 C99 1.278 . S
C96 O97 1.203 . S
C96 O103 1.267 . S
O97 C96 1.203 . S
O98 C91 1.185 . S
O98 Zn94 2.086 . S
C99 O95 1.278 . S
C99 O100 1.211 1_455 S
O100 C99 1.211 1_655 S
C101 O93 1.284 . S
C101 O102 1.273 . S
O102 C101 1.273 . S
O103 Zn94 1.977 1_655 S
O103 C96 1.267 . S
C104 O105 1.160 . S
C104 O111 1.185 . S
O105 C104 1.160 . S
O106 Zn107 1.899 . S
O106 C114 1.284 . S
Zn107 O106 1.899 . S
Zn107 O108 2.032 . S
Zn107 O111 2.086 . S
Zn107 O116 1.977 1_545 S
O108 Zn107 2.032 . S
O108 C112 1.278 . S
C109 O110 1.203 . S
C109 O116 1.267 . S
O110 C109 1.203 . S
O111 C104 1.185 . S
O111 Zn107 2.086 . S
C112 O108 1.278 . S
C112 O113 1.211 . S
O113 C112 1.211 . S
C114 O106 1.284 . S
C114 O115 1.273 . S
O115 C114 1.273 . S
O116 Zn107 1.977 1_565 S
O116 C109 1.267 . S
C117 O118 1.160 . S
C117 O124 1.185 . S
O118 C117 1.160 . S
O119 Zn120 1.899 . S
O119 C127 1.284 . S
Zn120 O119 1.899 . S
Zn120 O121 2.032 . S
Zn120 O124 2.086 . S
Zn120 O129 1.977 . S
O121 Zn120 2.032 . S
O121 C125 1.278 . S
C122 O123 1.203 . S
C122 O129 1.267 . S
O123 C122 1.203 . S
O124 C117 1.185 . S
O124 Zn120 2.086 . S
C125 O121 1.278 . S
C125 O126 1.211 . S
O126 C125 1.211 . S
C127 O119 1.284 . S
C127 O128 1.273 . S
O128 C127 1.273 . S
O129 Zn120 1.977 . S
O129 C122 1.267 . S
C130 O131 1.160 . S
C130 O137 1.185 . S
O131 C130 1.160 . S
O132 Zn133 1.899 . S
O132 C140 1.284 . S
Zn133 O132 1.899 . S
Zn133 O134 2.032 . S
Zn133 O137 2.086 . S
Zn133 O142 1.977 . S
O134 Zn133 2.032 . S
O134 C138 1.278 . S
C135 O136 1.203 . S
C135 O142 1.267 . S
O136 C135 1.203 . S
O137 C130 1.185 . S
O137 Zn133 2.086 . S
C138 O134 1.278 . S
C138 O139 1.211 . S
O139 C138 1.211 . S
C140 O132 1.284 . S
C140 O141 1.273 . S
O141 C140 1.273 . S
O142 Zn133 1.977 . S
O142 C135 1.267 . S
C143 O144 1.160 . S
C143 O150 1.185 1_554 S
O144 C143 1.160 . S
O145 Zn146 1.899 . S
O145 C153 1.284 . S
Zn146 O145 1.899 . S
Zn146 O147 2.032 1_554 S
Zn146 O150 2.086 1_554 S
Zn146 O155 1.975 1_554 S
O147 Zn146 2.032 1_556 S
O147 C151 1.278 . S
C148 O149 1.203 . S
C148 O155 1.263 1_554 S
O149 C148 1.203 . S
O150 C143 1.185 1_556 S
O150 Zn146 2.086 1_556 S
C151 O147 1.278 . S
C151 O152 1.211 . S
O152 C151 1.211 . S
C153 O145 1.284 . S
C153 O154 1.273 . S
O154 C153 1.273 . S
O155 Zn146 1.975 1_556 S
O155 C148 1.263 1_556 S
C156 O157 1.160 . S
C156 O163 1.185 . S
O157 C156 1.160 . S
O158 Zn159 1.899 . S
O158 C166 1.284 . S
Zn159 O158 1.899 . S
Zn159 O160 2.032 . S
Zn159 O163 2.086 . S
Zn159 O168 1.977 . S
O160 Zn159 2.032 . S
O160 C164 1.278 1_554 S
C161 O162 1.203 . S
C161 O168 1.267 . S
O162 C161 1.203 . S
O163 C156 1.185 . S
O163 Zn159 2.086 . S
C164 O160 1.278 1_556 S
C164 O165 1.211 1_556 S
O165 C164 1.211 1_554 S
C166 O158 1.284 . S
C166 O167 1.273 . S
O167 C166 1.273 . S
O168 Zn159 1.977 . S
O168 C161 1.267 . S
C169 O170 1.160 . S
C169 O176 1.185 . S
O170 C169 1.160 . S
O171 Zn172 1.899 . S
O171 C179 1.284 . S
Zn172 O171 1.899 . S
Zn172 O173 2.032 . S
Zn172 O176 2.086 . S
Zn172 O181 1.977 . S
O173 Zn172 2.032 . S
O173 C177 1.278 . S
C174 O175 1.203 . S
C174 O181 1.267 . S
O175 C174 1.203 . S
O176 C169 1.185 . S
O176 Zn172 2.086 . S
C177 O173 1.278 . S
C177 O178 1.211 . S
O178 C177 1.211 . S
C179 O171 1.284 . S
C179 O180 1.273 . S
O180 C179 1.273 . S
O181 Zn172 1.977 . S
O181 C174 1.267 . S
C182 O183 1.160 . S
C182 O189 1.185 . S
O183 C182 1.160 . S
O184 Zn185 1.899 . S
O184 C192 1.284 . S
Zn185 O184 1.899 . S
Zn185 O186 2.032 . S
Zn185 O189 2.086 . S
Zn185 O194 1.977 . S
O186 Zn185 2.032 . S
O186 C190 1.278 . S
C187 O188 1.203 . S
C187 O194 1.267 . S
O188 C187 1.203 . S
O189 C182 1.185 . S
O189 Zn185 2.086 . S
C190 O186 1.278 . S
C190 O191 1.211 . S
O191 C190 1.211 . S
C192 O184 1.284 . S
C192 O193 1.273 . S
O193 C192 1.273 . S
O194 Zn185 1.977 . S
O194 C187 1.267 . S
C195 O196 1.160 . S
C195 O202 1.185 . S
O196 C195 1.160 . S
O197 Zn198 1.899 . S
O197 C205 1.284 . S
Zn198 O197 1.899 . S
Zn198 O199 2.032 . S
Zn198 O202 2.086 . S
Zn198 O207 1.977 . S
O199 Zn198 2.032 . S
O199 C203 1.278 . S
C200 O201 1.203 . S
C200 O207 1.267 . S
O201 C200 1.203 . S
O202 C195 1.185 . S
O202 Zn198 2.086 . S
C203 O199 1.278 . S
C203 O204 1.211 . S
O204 C203 1.211 . S
C205 O197 1.284 . S
C205 O206 1.273 . S
O206 C205 1.273 . S
O207 Zn198 1.977 . S
O207 C200 1.267 . S
C208 O209 1.160 . S
C208 O215 1.185 . S
O209 C208 1.160 . S
O210 Zn211 1.899 . S
O210 C218 1.284 . S
Zn211 O210 1.899 . S
Zn211 O212 2.032 . S
Zn211 O215 2.086 . S
Zn211 O220 1.977 1_545 S
O212 Zn211 2.032 . S
O212 C216 1.278 . S
C213 O214 1.203 . S
C213 O220 1.267 . S
O214 C213 1.203 . S
O215 C208 1.185 . S
O215 Zn211 2.086 . S
C216 O212 1.278 . S
C216 O217 1.211 1_545 S
O217 C216 1.211 1_565 S
C218 O210 1.284 . S
C218 O219 1.273 . S
O219 C218 1.273 . S
O220 Zn211 1.977 1_565 S
O220 C213 1.267 . S
C221 O222 1.160 . S
C221 O228 1.185 . S
O222 C221 1.160 . S
O223 Zn224 1.899 . S
O223 C231 1.284 . S
Zn224 O223 1.899 . S
Zn224 O225 2.032 . S
Zn224 O228 2.086 . S
Zn224 O233 1.977 . S
O225 Zn224 2.032 . S
O225 C229 1.278 . S
C226 O227 1.203 . S
C226 O233 1.267 . S
O227 C226 1.203 . S
O228 C221 1.185 . S
O228 Zn224 2.086 . S
C229 O225 1.278 . S
C229 O230 1.211 . S
O230 C229 1.211 . S
C231 O223 1.284 . S
C231 O232 1.273 . S
O232 C231 1.273 . S
O233 Zn224 1.977 . S
O233 C226 1.267 . S
C234 O235 1.160 . S
C234 O241 1.185 . S
O235 C234 1.160 . S
O236 Zn237 1.899 . S
O236 C244 1.284 . S
Zn237 O236 1.899 . S
Zn237 O238 2.032 . S
Zn237 O241 2.086 . S
Zn237 O246 1.977 . S
O238 Zn237 2.032 . S
O238 C242 1.278 . S
C239 O240 1.203 . S
C239 O246 1.267 . S
O240 C239 1.203 . S
O241 C234 1.185 . S
O241 Zn237 2.086 . S
C242 O238 1.278 . S
C242 O243 1.211 . S
O243 C242 1.211 . S
C244 O236 1.284 . S
C244 O245 1.273 . S
O245 C244 1.273 . S
O246 Zn237 1.977 . S
O246 C239 1.267 . S
C247 O248 1.160 . S
C247 O254 1.185 1_565 S
O248 C247 1.160 . S
O249 Zn250 1.899 . S
O249 C257 1.284 . S
Zn250 O249 1.899 . S
Zn250 O251 2.032 . S
Zn250 O254 2.086 . S
Zn250 O259 1.977 . S
O251 Zn250 2.032 . S
O251 C255 1.278 . S
C252 O253 1.203 . S
C252 O259 1.267 . S
O253 C252 1.203 . S
O254 C247 1.185 1_545 S
O254 Zn250 2.086 . S
C255 O251 1.278 . S
C255 O256 1.211 . S
O256 C255 1.211 . S
C257 O249 1.284 . S
C257 O258 1.273 . S
O258 C257 1.273 . S
O259 Zn250 1.977 . S
O259 C252 1.267 . S
C260 O261 1.160 . S
C260 O267 1.185 . S
O261 C260 1.160 . S
O262 Zn263 1.899 . S
O262 C270 1.284 . S
Zn263 O262 1.899 . S
Zn263 O264 2.032 . S
Zn263 O267 2.086 . S
Zn263 O272 1.977 . S
O264 Zn263 2.032 . S
O264 C268 1.278 1_554 S
C265 O266 1.203 . S
C265 O272 1.267 . S
O266 C265 1.203 . S
O267 C260 1.185 . S
O267 Zn263 2.086 . S
C268 O264 1.278 1_556 S
C268 O269 1.212 . S
O269 C268 1.212 . S
C270 O262 1.284 . S
C270 O271 1.273 . S
O271 C270 1.273 . S
O272 Zn263 1.977 . S
O272 C265 1.267 . S
C273 O274 1.160 . S
C273 O280 1.185 . S
O274 C273 1.160 . S
O275 Zn276 1.899 . S
O275 C283 1.284 . S
Zn276 O275 1.899 . S
Zn276 O277 2.032 . S
Zn276 O280 2.086 . S
Zn276 O285 1.977 . S
O277 Zn276 2.032 . S
O277 C281 1.278 . S
C278 O279 1.203 . S
C278 O285 1.267 . S
O279 C278 1.203 . S
O280 C273 1.185 . S
O280 Zn276 2.086 . S
C281 O277 1.278 . S
C281 O282 1.211 . S
O282 C281 1.211 . S
C283 O275 1.284 . S
C283 O284 1.273 . S
O284 C283 1.273 . S
O285 Zn276 1.977 . S
O285 C278 1.267 . S
C286 O287 1.160 . S
C286 O293 1.185 . S
O287 C286 1.160 . S
O288 Zn289 1.899 . S
O288 C296 1.284 . S
Zn289 O288 1.899 . S
Zn289 O290 2.032 . S
Zn289 O293 2.086 . S
Zn289 O298 1.977 . S
O290 Zn289 2.032 . S
O290 C294 1.278 . S
C291 O292 1.203 . S
C291 O298 1.267 . S
O292 C291 1.203 . S
O293 C286 1.185 . S
O293 Zn289 2.086 . S
C294 O290 1.278 . S
C294 O295 1.211 . S
O295 C294 1.211 . S
C296 O288 1.284 . S
C296 O297 1.273 . S
O297 C296 1.273 . S
O298 Zn289 1.977 . S
O298 C291 1.267 . S
C299 O300 1.160 . S
C299 O306 1.185 . S
O300 C299 1.160 . S
O301 Zn302 1.899 . S
O301 C309 1.284 . S
Zn302 O301 1.899 . S
Zn302 O303 2.032 . S
Zn302 O306 2.086 . S
Zn302 O311 1.977 . S
O303 Zn302 2.032 . S
O303 C307 1.278 . S
C304 O305 1.203 . S
C304 O311 1.267 . S
O305 C304 1.203 . S
O306 C299 1.185 . S
O306 Zn302 2.086 . S
C307 O303 1.278 . S
C307 O308 1.211 . S
O308 C307 1.211 . S
C309 O301 1.284 . S
C309 O310 1.273 . S
O310 C309 1.273 . S
O311 Zn302 1.977 . S
O311 C304 1.267 . S
Tb312 C321 2.764 . S
Tb312 O322 2.325 . S
Tb312 O325 2.303 . S
Tb312 O329 2.322 . S
Tb312 O330 2.349 . S
Tb312 O333 2.415 . S
Tb312 O334 2.399 . S
Tb313 O323 2.322 1_545 S
Tb313 O324 2.349 1_554 S
Tb313 O326 2.415 1_455 S
Tb313 O327 2.399 1_454 S
Tb313 O328 2.325 . S
Tb313 O331 2.303 . S
Tb313 C342 2.764 1_455 S
C314 O330 1.261 . S
C314 O331 1.257 . S
C315 C318 1.358 . S
C315 C319 1.332 . S
C315 C321 1.504 . S
C316 C317 1.373 . S
C316 C320 1.308 . S
C317 C316 1.373 . S
C317 C318 1.429 . S
C317 H344 0.932 . S
C318 C315 1.358 . S
C318 C317 1.429 . S
C318 H345 0.930 . S
C319 C315 1.332 . S
C319 C320 1.394 . S
C319 H346 0.932 . S
C320 C316 1.308 . S
C320 C319 1.394 . S
C320 H347 0.929 1_545 S
C321 Tb312 2.764 . S
C321 C315 1.504 . S
C321 O333 1.239 . S
C321 O334 1.263 . S
O322 Tb312 2.325 . S
O322 C332 1.236 1_545 S
O323 Tb313 2.322 1_565 S
O323 C332 1.257 . S
O324 Tb313 2.349 1_556 S
O324 C335 1.261 . S
O325 Tb312 2.303 . S
O325 C335 1.257 1_554 S
O326 Tb313 2.415 1_655 S
O326 C342 1.239 . S
O327 Tb313 2.399 1_656 S
O327 C342 1.263 1_556 S
O328 Tb313 2.325 . S
O328 C343 1.236 . S
O329 Tb312 2.322 . S
O329 C343 1.257 . S
O330 Tb312 2.349 . S
O330 C314 1.261 . S
O331 Tb313 2.303 . S
O331 C314 1.257 . S
C332 O322 1.236 1_565 S
C332 O323 1.257 . S
O333 Tb312 2.415 . S
O333 C321 1.239 . S
O334 Tb312 2.399 . S
O334 C321 1.263 . S
C335 O324 1.261 . S
C335 O325 1.257 1_556 S
C336 C339 1.349 1_554 S
C336 C340 1.339 . S
C336 C342 1.505 . S
C337 C338 1.373 . S
C337 C341 1.308 1_556 S
C338 C337 1.373 . S
C338 C339 1.429 . S
C338 H348 0.932 . S
C339 C336 1.349 1_556 S
C339 C338 1.429 . S
C339 H349 0.930 . S
C340 C336 1.339 . S
C340 C341 1.394 . S
C340 H350 0.932 . S
C341 C337 1.308 1_554 S
C341 C340 1.394 . S
C341 H351 0.929 . S
C342 Tb313 2.764 1_655 S
C342 O326 1.239 . S
C342 O327 1.263 1_554 S
C342 C336 1.505 . S
C343 O328 1.236 . S
C343 O329 1.257 . S
H344 C317 0.932 . S
H345 C318 0.930 . S
H346 C319 0.932 . S
H347 C320 0.929 1_565 S
H348 C338 0.932 . S
H349 C339 0.930 . S
H350 C340 0.932 . S
H351 C341 0.929 . S
Tb352 C361 2.764 . S
Tb352 O362 2.325 . S
Tb352 O365 2.303 . S
Tb352 O369 2.322 . S
Tb352 O370 2.349 . S
Tb352 O373 2.415 . S
Tb352 O374 2.399 . S
Tb353 O363 2.322 . S
Tb353 O364 2.349 . S
Tb353 O366 2.415 . S
Tb353 O367 2.399 . S
Tb353 O368 2.325 . S
Tb353 O371 2.303 . S
Tb353 C382 2.764 . S
C354 O370 1.261 . S
C354 O371 1.257 . S
C355 C358 1.358 . S
C355 C359 1.332 . S
C355 C361 1.504 . S
C356 C357 1.373 . S
C356 C360 1.308 . S
C357 C356 1.373 . S
C357 C358 1.429 . S
C357 H384 0.932 . S
C358 C355 1.358 . S
C358 C357 1.429 . S
C358 H385 0.930 . S
C359 C355 1.332 . S
C359 C360 1.394 . S
C359 H386 0.932 . S
C360 C356 1.308 . S
C360 C359 1.394 . S
C360 H387 0.929 . S
C361 Tb352 2.764 . S
C361 C355 1.504 . S
C361 O373 1.239 . S
C361 O374 1.263 . S
O362 Tb352 2.325 . S
O362 C372 1.236 . S
O363 Tb353 2.322 . S
O363 C372 1.257 . S
O364 Tb353 2.349 . S
O364 C375 1.261 . S
O365 Tb352 2.303 . S
O365 C375 1.257 . S
O366 Tb353 2.415 . S
O366 C382 1.239 . S
O367 Tb353 2.399 . S
O367 C382 1.263 . S
O368 Tb353 2.325 . S
O368 C383 1.236 . S
O369 Tb352 2.322 . S
O369 C383 1.257 . S
O370 Tb352 2.349 . S
O370 C354 1.261 . S
O371 Tb353 2.303 . S
O371 C354 1.257 . S
C372 O362 1.236 . S
C372 O363 1.257 . S
O373 Tb352 2.415 . S
O373 C361 1.239 . S
O374 Tb352 2.399 . S
O374 C361 1.263 . S
C375 O364 1.261 . S
C375 O365 1.257 . S
C376 C379 1.358 . S
C376 C380 1.332 . S
C376 C382 1.504 . S
C377 C378 1.373 . S
C377 C381 1.308 . S
C378 C377 1.373 . S
C378 C379 1.429 . S
C378 H388 0.932 . S
C379 C376 1.358 . S
C379 C378 1.429 . S
C379 H389 0.930 . S
C380 C376 1.332 . S
C380 C381 1.394 . S
C380 H390 0.932 . S
C381 C377 1.308 . S
C381 C380 1.394 . S
C381 H391 0.929 . S
C382 Tb353 2.764 . S
C382 O366 1.239 . S
C382 O367 1.263 . S
C382 C376 1.504 . S
C383 O368 1.236 . S
C383 O369 1.257 . S
H384 C357 0.932 . S
H385 C358 0.930 . S
H386 C359 0.932 . S
H387 C360 0.929 . S
H388 C378 0.932 . S
H389 C379 0.930 . S
H390 C380 0.932 . S
H391 C381 0.929 . S
Tb392 C401 2.764 . S
Tb392 O402 2.325 . S
Tb392 O405 2.303 . S
Tb392 O409 2.322 1_545 S
Tb392 O410 2.349 . S
Tb392 O413 2.415 . S
Tb392 O414 2.399 . S
Tb393 O403 2.322 . S
Tb393 O404 2.349 . S
Tb393 O406 2.415 . S
Tb393 O407 2.399 . S
Tb393 O408 2.325 . S
Tb393 O411 2.303 . S
Tb393 C422 2.764 . S
C394 O410 1.261 . S
C394 O411 1.257 . S
C395 C398 1.358 . S
C395 C399 1.332 . S
C395 C401 1.504 . S
C396 C397 1.373 . S
C396 C400 1.308 . S
C397 C396 1.373 . S
C397 C398 1.429 . S
C397 H424 0.932 . S
C398 C395 1.358 . S
C398 C397 1.429 . S
C398 H425 0.930 . S
C399 C395 1.332 . S
C399 C400 1.394 . S
C399 H426 0.932 . S
C400 C396 1.308 . S
C400 C399 1.394 . S
C400 H427 0.929 . S
C401 Tb392 2.764 . S
C401 C395 1.504 . S
C401 O413 1.239 . S
C401 O414 1.263 . S
O402 Tb392 2.325 . S
O402 C412 1.236 . S
O403 Tb393 2.322 . S
O403 C412 1.257 . S
O404 Tb393 2.349 . S
O404 C415 1.261 . S
O405 Tb392 2.303 . S
O405 C415 1.257 . S
O406 Tb393 2.415 . S
O406 C422 1.239 . S
O407 Tb393 2.399 . S
O407 C422 1.263 . S
O408 Tb393 2.325 . S
O408 C423 1.236 1_545 S
O409 Tb392 2.322 1_565 S
O409 C423 1.257 . S
O410 Tb392 2.349 . S
O410 C394 1.261 . S
O411 Tb393 2.303 . S
O411 C394 1.257 . S
C412 O402 1.236 . S
C412 O403 1.257 . S
O413 Tb392 2.415 . S
O413 C401 1.239 . S
O414 Tb392 2.399 . S
O414 C401 1.263 . S
C415 O404 1.261 . S
C415 O405 1.257 . S
C416 C419 1.358 . S
C416 C420 1.332 1_545 S
C416 C422 1.504 . S
C417 C418 1.373 . S
C417 C421 1.308 . S
C418 C417 1.373 . S
C418 C419 1.429 1_565 S
C418 H428 0.932 . S
C419 C416 1.358 . S
C419 C418 1.429 1_545 S
C419 H429 0.930 . S
C420 C416 1.332 1_565 S
C420 C421 1.394 . S
C420 H430 0.932 . S
C421 C417 1.308 . S
C421 C420 1.394 . S
C421 H431 0.929 . S
C422 Tb393 2.764 . S
C422 O406 1.239 . S
C422 O407 1.263 . S
C422 C416 1.504 . S
C423 O408 1.236 1_565 S
C423 O409 1.257 . S
H424 C397 0.932 . S
H425 C398 0.930 . S
H426 C399 0.932 . S
H427 C400 0.929 . S
H428 C418 0.932 . S
H429 C419 0.930 . S
H430 C420 0.932 . S
H431 C421 0.929 . S
Tb432 C441 2.764 . S
Tb432 O442 2.325 . S
Tb432 O445 2.303 . S
Tb432 O449 2.322 . S
Tb432 O450 2.349 . S
Tb432 O453 2.415 . S
Tb432 O454 2.399 . S
Tb433 O443 2.322 . S
Tb433 O444 2.349 . S
Tb433 O446 2.415 . S
Tb433 O447 2.399 . S
Tb433 O448 2.325 . S
Tb433 O451 2.303 . S
Tb433 C462 2.764 . S
C434 O450 1.261 . S
C434 O451 1.257 . S
C435 C438 1.358 . S
C435 C439 1.332 . S
C435 C441 1.504 . S
C436 C437 1.373 . S
C436 C440 1.308 . S
C437 C436 1.373 . S
C437 C438 1.429 . S
C437 H464 0.932 . S
C438 C435 1.358 . S
C438 C437 1.429 . S
C438 H465 0.930 . S
C439 C435 1.332 . S
C439 C440 1.394 . S
C439 H466 0.932 . S
C440 C436 1.308 . S
C440 C439 1.394 . S
C440 H467 0.929 . S
C441 Tb432 2.764 . S
C441 C435 1.504 . S
C441 O453 1.239 . S
C441 O454 1.263 . S
O442 Tb432 2.325 . S
O442 C452 1.236 . S
O443 Tb433 2.322 . S
O443 C452 1.257 . S
O444 Tb433 2.349 . S
O444 C455 1.261 . S
O445 Tb432 2.303 . S
O445 C455 1.257 . S
O446 Tb433 2.415 . S
O446 C462 1.239 . S
O447 Tb433 2.399 . S
O447 C462 1.263 . S
O448 Tb433 2.325 . S
O448 C463 1.236 . S
O449 Tb432 2.322 . S
O449 C463 1.257 . S
O450 Tb432 2.349 . S
O450 C434 1.261 . S
O451 Tb433 2.303 . S
O451 C434 1.257 . S
C452 O442 1.236 . S
C452 O443 1.257 . S
O453 Tb432 2.415 . S
O453 C441 1.239 . S
O454 Tb432 2.399 . S
O454 C441 1.263 . S
C455 O444 1.261 . S
C455 O445 1.257 . S
C456 C459 1.358 . S
C456 C460 1.332 . S
C456 C462 1.504 . S
C457 C458 1.373 . S
C457 C461 1.308 . S
C458 C457 1.373 . S
C458 C459 1.429 . S
C458 H468 0.932 . S
C459 C456 1.358 . S
C459 C458 1.429 . S
C459 H469 0.930 . S
C460 C456 1.332 . S
C460 C461 1.394 . S
C460 H470 0.932 . S
C461 C457 1.308 . S
C461 C460 1.394 . S
C461 H471 0.929 . S
C462 Tb433 2.764 . S
C462 O446 1.239 . S
C462 O447 1.263 . S
C462 C456 1.504 . S
C463 O448 1.236 . S
C463 O449 1.257 . S
H464 C437 0.932 . S
H465 C438 0.930 . S
H466 C439 0.932 . S
H467 C440 0.929 . S
H468 C458 0.932 . S
H469 C459 0.930 . S
H470 C460 0.932 . S
H471 C461 0.929 . S
Tb472 C481 2.764 . S
Tb472 O482 2.325 . S
Tb472 O485 2.303 . S
Tb472 O489 2.322 . S
Tb472 O490 2.349 . S
Tb472 O493 2.415 . S
Tb472 O494 2.399 . S
Tb473 O483 2.305 1_545 S
Tb473 O484 2.349 . S
Tb473 O486 2.415 . S
Tb473 O487 2.399 . S
Tb473 O488 2.325 . S
Tb473 O491 2.303 . S
Tb473 C502 2.764 . S
C474 O490 1.261 1_655 S
C474 O491 1.257 1_655 S
C475 C478 1.358 . S
C475 C479 1.332 . S
C475 C481 1.504 . S
C476 C477 1.373 . S
C476 C480 1.308 . S
C477 C476 1.373 . S
C477 C478 1.429 . S
C477 H504 0.932 . S
C478 C475 1.358 . S
C478 C477 1.429 . S
C478 H505 0.930 . S
C479 C475 1.332 . S
C479 C480 1.394 . S
C479 H506 0.932 . S
C480 C476 1.308 . S
C480 C479 1.394 . S
C480 H507 0.929 . S
C481 Tb472 2.764 . S
C481 C475 1.504 . S
C481 O493 1.239 . S
C481 O494 1.263 . S
O482 Tb472 2.325 . S
O482 C492 1.227 1_545 S
O483 Tb473 2.305 1_565 S
O483 C492 1.258 . S
O484 Tb473 2.349 . S
O484 C495 1.261 . S
O485 Tb472 2.303 . S
O485 C495 1.257 . S
O486 Tb473 2.415 . S
O486 C502 1.239 . S
O487 Tb473 2.399 . S
O487 C502 1.263 . S
O488 Tb473 2.325 . S
O488 C503 1.236 . S
O489 Tb472 2.322 . S
O489 C503 1.257 . S
O490 Tb472 2.349 . S
O490 C474 1.261 1_455 S
O491 Tb473 2.303 . S
O491 C474 1.257 1_455 S
C492 O482 1.227 1_565 S
C492 O483 1.258 . S
O493 Tb472 2.415 . S
O493 C481 1.239 . S
O494 Tb472 2.399 . S
O494 C481 1.263 . S
C495 O484 1.261 . S
C495 O485 1.257 . S
C496 C499 1.358 . S
C496 C500 1.332 1_455 S
C496 C502 1.504 . S
C497 C498 1.373 1_655 S
C497 C501 1.308 . S
C498 C497 1.373 1_455 S
C498 C499 1.429 . S
C498 H508 0.932 . S
C499 C496 1.358 . S
C499 C498 1.429 . S
C499 H509 0.930 . S
C500 C496 1.332 1_655 S
C500 C501 1.394 . S
C500 H510 0.932 . S
C501 C497 1.308 . S
C501 C500 1.394 . S
C501 H511 0.929 . S
C502 Tb473 2.764 . S
C502 O486 1.239 . S
C502 O487 1.263 . S
C502 C496 1.504 . S
C503 O488 1.236 . S
C503 O489 1.257 . S
H504 C477 0.932 . S
H505 C478 0.930 . S
H506 C479 0.932 . S
H507 C480 0.929 . S
H508 C498 0.932 . S
H509 C499 0.930 . S
H510 C500 0.932 . S
H511 C501 0.929 . S
Tb512 C521 2.764 . S
Tb512 O522 2.325 . S
Tb512 O525 2.303 . S
Tb512 O529 2.322 . S
Tb512 O530 2.349 . S
Tb512 O533 2.415 . S
Tb512 O534 2.399 . S
Tb513 O523 2.322 . S
Tb513 O524 2.349 . S
Tb513 O526 2.415 . S
Tb513 O527 2.399 . S
Tb513 O528 2.325 . S
Tb513 O531 2.303 . S
Tb513 C542 2.764 . S
C514 O530 1.261 . S
C514 O531 1.257 . S
C515 C518 1.358 . S
C515 C519 1.332 . S
C515 C521 1.504 . S
C516 C517 1.373 . S
C516 C520 1.308 . S
C517 C516 1.373 . S
C517 C518 1.429 . S
C517 H544 0.932 . S
C518 C515 1.358 . S
C518 C517 1.429 . S
C518 H545 0.930 . S
C519 C515 1.332 . S
C519 C520 1.394 . S
C519 H546 0.932 . S
C520 C516 1.308 . S
C520 C519 1.394 . S
C520 H547 0.929 . S
C521 Tb512 2.764 . S
C521 C515 1.504 . S
C521 O533 1.239 . S
C521 O534 1.263 . S
O522 Tb512 2.325 . S
O522 C532 1.236 . S
O523 Tb513 2.322 . S
O523 C532 1.257 . S
O524 Tb513 2.349 . S
O524 C535 1.261 . S
O525 Tb512 2.303 . S
O525 C535 1.257 . S
O526 Tb513 2.415 . S
O526 C542 1.239 . S
O527 Tb513 2.399 . S
O527 C542 1.263 . S
O528 Tb513 2.325 . S
O528 C543 1.236 . S
O529 Tb512 2.322 . S
O529 C543 1.257 . S
O530 Tb512 2.349 . S
O530 C514 1.261 . S
O531 Tb513 2.303 . S
O531 C514 1.257 . S
C532 O522 1.236 . S
C532 O523 1.257 . S
O533 Tb512 2.415 . S
O533 C521 1.239 . S
O534 Tb512 2.399 . S
O534 C521 1.263 . S
C535 O524 1.261 . S
C535 O525 1.257 . S
C536 C539 1.358 . S
C536 C540 1.332 . S
C536 C542 1.504 . S
C537 C538 1.373 . S
C537 C541 1.308 . S
C538 C537 1.373 . S
C538 C539 1.429 . S
C538 H548 0.932 . S
C539 C536 1.358 . S
C539 C538 1.429 . S
C539 H549 0.930 . S
C540 C536 1.332 . S
C540 C541 1.394 . S
C540 H550 0.932 . S
C541 C537 1.308 . S
C541 C540 1.394 . S
C541 H551 0.929 . S
C542 Tb513 2.764 . S
C542 O526 1.239 . S
C542 O527 1.263 . S
C542 C536 1.504 . S
C543 O528 1.236 . S
C543 O529 1.257 . S
H544 C517 0.932 . S
H545 C518 0.930 . S
H546 C519 0.932 . S
H547 C520 0.929 . S
H548 C538 0.932 . S
H549 C539 0.930 . S
H550 C540 0.932 . S
H551 C541 0.929 . S
Tb552 C561 2.764 . S
Tb552 O562 2.325 . S
Tb552 O565 2.303 . S
Tb552 O569 2.322 1_545 S
Tb552 O570 2.349 . S
Tb552 O573 2.415 . S
Tb552 O574 2.399 . S
Tb553 O563 2.322 . S
Tb553 O564 2.349 . S
Tb553 O566 2.415 1_554 S
Tb553 O567 2.399 1_554 S
Tb553 O568 2.325 . S
Tb553 O571 2.303 . S
Tb553 C582 2.764 1_554 S
C554 O570 1.261 . S
C554 O571 1.257 . S
C555 C558 1.358 . S
C555 C559 1.332 . S
C555 C561 1.504 . S
C556 C557 1.373 . S
C556 C560 1.308 . S
C557 C556 1.373 . S
C557 C558 1.429 . S
C557 H584 0.932 . S
C558 C555 1.358 . S
C558 C557 1.429 . S
C558 H585 0.930 . S
C559 C555 1.332 . S
C559 C560 1.394 . S
C559 H586 0.932 . S
C560 C556 1.308 . S
C560 C559 1.394 . S
C560 H587 0.929 . S
C561 Tb552 2.764 . S
C561 C555 1.504 . S
C561 O573 1.239 . S
C561 O574 1.263 . S
O562 Tb552 2.325 . S
O562 C572 1.236 . S
O563 Tb553 2.322 . S
O563 C572 1.257 . S
O564 Tb553 2.349 . S
O564 C575 1.261 . S
O565 Tb552 2.303 . S
O565 C575 1.257 . S
O566 Tb553 2.415 1_556 S
O566 C582 1.239 . S
O567 Tb553 2.399 1_556 S
O567 C582 1.263 . S
O568 Tb553 2.325 . S
O568 C583 1.236 1_545 S
O569 Tb552 2.322 1_565 S
O569 C583 1.257 . S
O570 Tb552 2.349 . S
O570 C554 1.261 . S
O571 Tb553 2.303 . S
O571 C554 1.257 . S
C572 O562 1.236 . S
C572 O563 1.257 . S
O573 Tb552 2.415 . S
O573 C561 1.239 . S
O574 Tb552 2.399 . S
O574 C561 1.263 . S
C575 O564 1.261 . S
C575 O565 1.257 . S
C576 C579 1.358 . S
C576 C580 1.332 . S
C576 C582 1.504 . S
C577 C578 1.373 . S
C577 C581 1.308 . S
C578 C577 1.373 . S
C578 C579 1.429 . S
C578 H588 0.932 . S
C579 C576 1.358 . S
C579 C578 1.429 . S
C579 H589 0.930 . S
C580 C576 1.332 . S
C580 C581 1.394 . S
C580 H590 0.932 . S
C581 C577 1.308 . S
C581 C580 1.394 . S
C581 H591 0.929 . S
C582 Tb553 2.764 1_556 S
C582 O566 1.239 . S
C582 O567 1.263 . S
C582 C576 1.504 . S
C583 O568 1.236 1_565 S
C583 O569 1.257 . S
H584 C557 0.932 . S
H585 C558 0.930 . S
H586 C559 0.932 . S
H587 C560 0.929 . S
H588 C578 0.932 . S
H589 C579 0.930 . S
H590 C580 0.932 . S
H591 C581 0.929 . S
Tb592 C601 2.764 . S
Tb592 O602 2.325 . S
Tb592 O605 2.303 . S
Tb592 O609 2.322 . S
Tb592 O610 2.349 . S
Tb592 O613 2.415 . S
Tb592 O614 2.399 . S
Tb593 O603 2.322 . S
Tb593 O604 2.349 . S
Tb593 O606 2.415 . S
Tb593 O607 2.399 . S
Tb593 O608 2.325 . S
Tb593 O611 2.303 . S
Tb593 C622 2.764 . S
C594 O610 1.261 . S
C594 O611 1.257 . S
C595 C598 1.358 . S
C595 C599 1.332 . S
C595 C601 1.504 . S
C596 C597 1.373 . S
C596 C600 1.308 . S
C597 C596 1.373 . S
C597 C598 1.429 . S
C597 H624 0.932 . S
C598 C595 1.358 . S
C598 C597 1.429 . S
C598 H625 0.930 . S
C599 C595 1.332 . S
C599 C600 1.394 . S
C599 H626 0.932 . S
C600 C596 1.308 . S
C600 C599 1.394 . S
C600 H627 0.929 . S
C601 Tb592 2.764 . S
C601 C595 1.504 . S
C601 O613 1.239 . S
C601 O614 1.263 . S
O602 Tb592 2.325 . S
O602 C612 1.236 . S
O603 Tb593 2.322 . S
O603 C612 1.257 . S
O604 Tb593 2.349 . S
O604 C615 1.261 . S
O605 Tb592 2.303 . S
O605 C615 1.257 . S
O606 Tb593 2.415 . S
O606 C622 1.239 . S
O607 Tb593 2.399 . S
O607 C622 1.263 . S
O608 Tb593 2.325 . S
O608 C623 1.236 . S
O609 Tb592 2.322 . S
O609 C623 1.257 . S
O610 Tb592 2.349 . S
O610 C594 1.261 . S
O611 Tb593 2.303 . S
O611 C594 1.257 . S
C612 O602 1.236 . S
C612 O603 1.257 . S
O613 Tb592 2.415 . S
O613 C601 1.239 . S
O614 Tb592 2.399 . S
O614 C601 1.263 . S
C615 O604 1.261 . S
C615 O605 1.257 . S
C616 C619 1.358 . S
C616 C620 1.332 . S
C616 C622 1.504 . S
C617 C618 1.373 . S
C617 C621 1.308 . S
C618 C617 1.373 . S
C618 C619 1.429 . S
C618 H628 0.932 . S
C619 C616 1.358 . S
C619 C618 1.429 . S
C619 H629 0.930 . S
C620 C616 1.332 . S
C620 C621 1.394 . S
C620 H630 0.932 . S
C621 C617 1.308 . S
C621 C620 1.394 . S
C621 H631 0.929 . S
C622 Tb593 2.764 . S
C622 O606 1.239 . S
C622 O607 1.263 . S
C622 C616 1.504 . S
C623 O608 1.236 . S
C623 O609 1.257 . S
H624 C597 0.932 . S
H625 C598 0.930 . S
H626 C599 0.932 . S
H627 C600 0.929 . S
H628 C618 0.932 . S
H629 C619 0.930 . S
H630 C620 0.932 . S
H631 C621 0.929 . S
Tb632 C641 2.764 . S
Tb632 O642 2.325 . S
Tb632 O645 2.303 . S
Tb632 O649 2.322 . S
Tb632 O650 2.349 . S
Tb632 O653 2.415 . S
Tb632 O654 2.399 . S
Tb633 O643 2.322 . S
Tb633 O644 2.349 . S
Tb633 O646 2.415 1_554 S
Tb633 O647 2.399 1_554 S
Tb633 O648 2.325 . S
Tb633 O651 2.303 . S
Tb633 C662 2.764 1_554 S
C634 O650 1.261 . S
C634 O651 1.257 . S
C635 C638 1.358 . S
C635 C639 1.332 . S
C635 C641 1.504 . S
C636 C637 1.373 . S
C636 C640 1.308 . S
C637 C636 1.373 . S
C637 C638 1.429 . S
C637 H664 0.932 . S
C638 C635 1.358 . S
C638 C637 1.429 . S
C638 H665 0.930 . S
C639 C635 1.332 . S
C639 C640 1.394 . S
C639 H666 0.932 . S
C640 C636 1.308 . S
C640 C639 1.394 . S
C640 H667 0.929 . S
C641 Tb632 2.764 . S
C641 C635 1.504 . S
C641 O653 1.239 . S
C641 O654 1.263 . S
O642 Tb632 2.325 . S
O642 C652 1.236 . S
O643 Tb633 2.322 . S
O643 C652 1.257 . S
O644 Tb633 2.349 . S
O644 C655 1.261 . S
O645 Tb632 2.303 . S
O645 C655 1.257 . S
O646 Tb633 2.415 1_556 S
O646 C662 1.239 . S
O647 Tb633 2.399 1_556 S
O647 C662 1.263 . S
O648 Tb633 2.325 . S
O648 C663 1.236 . S
O649 Tb632 2.322 . S
O649 C663 1.257 . S
O650 Tb632 2.349 . S
O650 C634 1.261 . S
O651 Tb633 2.303 . S
O651 C634 1.257 . S
C652 O642 1.236 . S
C652 O643 1.257 . S
O653 Tb632 2.415 . S
O653 C641 1.239 . S
O654 Tb632 2.399 . S
O654 C641 1.263 . S
C655 O644 1.261 . S
C655 O645 1.257 . S
C656 C659 1.358 . S
C656 C660 1.332 . S
C656 C662 1.504 . S
C657 C658 1.373 . S
C657 C661 1.308 . S
C658 C657 1.373 . S
C658 C659 1.429 . S
C658 H668 0.932 . S
C659 C656 1.358 . S
C659 C658 1.429 . S
C659 H669 0.930 . S
C660 C656 1.332 . S
C660 C661 1.394 . S
C660 H670 0.932 . S
C661 C657 1.308 . S
C661 C660 1.394 . S
C661 H671 0.929 . S
C662 Tb633 2.764 1_556 S
C662 O646 1.239 . S
C662 O647 1.263 . S
C662 C656 1.504 . S
C663 O648 1.236 . S
C663 O649 1.257 . S
H664 C637 0.932 . S
H665 C638 0.930 . S
H666 C639 0.932 . S
H667 C640 0.929 . S
H668 C658 0.932 . S
H669 C659 0.930 . S
H670 C660 0.932 . S
H671 C661 0.929 . S
Tb672 C681 2.764 . S
Tb672 O682 2.325 . S
Tb672 O685 2.303 . S
Tb672 O689 2.322 . S
Tb672 O690 2.349 . S
Tb672 O693 2.415 . S
Tb672 O694 2.399 . S
Tb673 O683 2.322 . S
Tb673 O684 2.349 . S
Tb673 O686 2.415 . S
Tb673 O687 2.399 . S
Tb673 O688 2.325 . S
Tb673 O691 2.303 . S
Tb673 C702 2.764 . S
C674 O690 1.261 . S
C674 O691 1.257 . S
C675 C678 1.358 . S
C675 C679 1.332 . S
C675 C681 1.504 . S
C676 C677 1.373 . S
C676 C680 1.308 . S
C677 C676 1.373 . S
C677 C678 1.429 . S
C677 H704 0.932 . S
C678 C675 1.358 . S
C678 C677 1.429 . S
C678 H705 0.930 . S
C679 C675 1.332 . S
C679 C680 1.394 . S
C679 H706 0.932 . S
C680 C676 1.308 . S
C680 C679 1.394 . S
C680 H707 0.929 . S
C681 Tb672 2.764 . S
C681 C675 1.504 . S
C681 O693 1.239 . S
C681 O694 1.263 . S
O682 Tb672 2.325 . S
O682 C692 1.236 . S
O683 Tb673 2.322 . S
O683 C692 1.257 . S
O684 Tb673 2.349 . S
O684 C695 1.261 . S
O685 Tb672 2.303 . S
O685 C695 1.257 . S
O686 Tb673 2.415 . S
O686 C702 1.239 . S
O687 Tb673 2.399 . S
O687 C702 1.263 . S
O688 Tb673 2.325 . S
O688 C703 1.236 . S
O689 Tb672 2.322 . S
O689 C703 1.257 . S
O690 Tb672 2.349 . S
O690 C674 1.261 . S
O691 Tb673 2.303 . S
O691 C674 1.257 . S
C692 O682 1.236 . S
C692 O683 1.257 . S
O693 Tb672 2.415 . S
O693 C681 1.239 . S
O694 Tb672 2.399 . S
O694 C681 1.263 . S
C695 O684 1.261 . S
C695 O685 1.257 . S
C696 C699 1.358 . S
C696 C700 1.332 . S
C696 C702 1.504 . S
C697 C698 1.373 . S
C697 C701 1.308 . S
C698 C697 1.373 . S
C698 C699 1.429 . S
C698 H708 0.932 . S
C699 C696 1.358 . S
C699 C698 1.429 . S
C699 H709 0.930 . S
C700 C696 1.332 . S
C700 C701 1.394 . S
C700 H710 0.932 . S
C701 C697 1.308 . S
C701 C700 1.394 . S
C701 H711 0.929 . S
C702 Tb673 2.764 . S
C702 O686 1.239 . S
C702 O687 1.263 . S
C702 C696 1.504 . S
C703 O688 1.236 . S
C703 O689 1.257 . S
H704 C677 0.932 . S
H705 C678 0.930 . S
H706 C679 0.932 . S
H707 C680 0.929 . S
H708 C698 0.932 . S
H709 C699 0.930 . S
H710 C700 0.932 . S
H711 C701 0.929 . S
Tb712 C721 2.764 . S
Tb712 O722 2.325 . S
Tb712 O725 2.303 . S
Tb712 O729 2.322 . S
Tb712 O730 2.349 . S
Tb712 O733 2.415 . S
Tb712 O734 2.399 . S
Tb713 O723 2.322 . S
Tb713 O724 2.349 . S
Tb713 O726 2.415 . S
Tb713 O727 2.399 . S
Tb713 O728 2.325 . S
Tb713 O731 2.303 . S
Tb713 C742 2.764 . S
C714 O730 1.261 . S
C714 O731 1.257 . S
C715 C718 1.358 . S
C715 C719 1.360 . S
C715 C721 1.504 . S
C716 C717 1.373 . S
C716 C720 1.308 1_455 S
C717 C716 1.373 . S
C717 C718 1.429 . S
C717 H744 0.932 . S
C718 C715 1.358 . S
C718 C717 1.429 . S
C718 H745 0.930 . S
C719 C715 1.360 . S
C719 C720 1.383 1_455 S
C719 H746 0.915 1_455 S
C720 C716 1.308 1_655 S
C720 C719 1.383 1_655 S
C720 H747 0.929 . S
C721 Tb712 2.764 . S
C721 C715 1.504 . S
C721 O733 1.239 . S
C721 O734 1.263 . S
O722 Tb712 2.325 . S
O722 C732 1.236 . S
O723 Tb713 2.322 . S
O723 C732 1.257 . S
O724 Tb713 2.349 . S
O724 C735 1.260 . S
O725 Tb712 2.303 . S
O725 C735 1.253 . S
O726 Tb713 2.415 . S
O726 C742 1.239 . S
O727 Tb713 2.399 . S
O727 C742 1.263 . S
O728 Tb713 2.325 . S
O728 C743 1.236 . S
O729 Tb712 2.322 . S
O729 C743 1.257 . S
O730 Tb712 2.349 . S
O730 C714 1.261 . S
O731 Tb713 2.303 . S
O731 C714 1.257 . S
C732 O722 1.236 . S
C732 O723 1.257 . S
O733 Tb712 2.415 . S
O733 C721 1.239 . S
O734 Tb712 2.399 . S
O734 C721 1.263 . S
C735 O724 1.260 . S
C735 O725 1.253 . S
C736 C739 1.358 . S
C736 C740 1.332 . S
C736 C742 1.504 . S
C737 C738 1.373 . S
C737 C741 1.308 . S
C738 C737 1.373 . S
C738 C739 1.429 . S
C738 H748 0.932 . S
C739 C736 1.358 . S
C739 C738 1.429 . S
C739 H749 0.930 . S
C740 C736 1.332 . S
C740 C741 1.394 . S
C740 H750 0.932 . S
C741 C737 1.308 . S
C741 C740 1.394 . S
C741 H751 0.929 . S
C742 Tb713 2.764 . S
C742 O726 1.239 . S
C742 O727 1.263 . S
C742 C736 1.504 . S
C743 O728 1.236 . S
C743 O729 1.257 . S
H744 C717 0.932 . S
H745 C718 0.930 . S
H746 C719 0.915 1_655 S
H747 C720 0.929 . S
H748 C738 0.932 . S
H749 C739 0.930 . S
H750 C740 0.932 . S
H751 C741 0.929 . S
Tb752 C761 2.764 . S
Tb752 O762 2.325 . S
Tb752 O765 2.303 . S
Tb752 O769 2.322 . S
Tb752 O770 2.349 . S
Tb752 O773 2.415 . S
Tb752 O774 2.399 . S
Tb753 O763 2.322 . S
Tb753 O764 2.349 . S
Tb753 O766 2.415 . S
Tb753 O767 2.399 . S
Tb753 O768 2.325 . S
Tb753 O771 2.303 . S
Tb753 C782 2.764 . S
C754 O770 1.261 . S
C754 O771 1.257 . S
C755 C758 1.358 . S
C755 C759 1.332 . S
C755 C761 1.504 . S
C756 C757 1.373 . S
C756 C760 1.308 . S
C757 C756 1.373 . S
C757 C758 1.429 . S
C757 H784 0.932 . S
C758 C755 1.358 . S
C758 C757 1.429 . S
C758 H785 0.930 . S
C759 C755 1.332 . S
C759 C760 1.394 . S
C759 H786 0.932 . S
C760 C756 1.308 . S
C760 C759 1.394 . S
C760 H787 0.929 . S
C761 Tb752 2.764 . S
C761 C755 1.504 . S
C761 O773 1.239 . S
C761 O774 1.263 . S
O762 Tb752 2.325 . S
O762 C772 1.236 . S
O763 Tb753 2.322 . S
O763 C772 1.257 . S
O764 Tb753 2.349 . S
O764 C775 1.261 . S
O765 Tb752 2.303 . S
O765 C775 1.257 . S
O766 Tb753 2.415 . S
O766 C782 1.239 . S
O767 Tb753 2.399 . S
O767 C782 1.263 . S
O768 Tb753 2.325 . S
O768 C783 1.236 . S
O769 Tb752 2.322 . S
O769 C783 1.257 . S
O770 Tb752 2.349 . S
O770 C754 1.261 . S
O771 Tb753 2.303 . S
O771 C754 1.257 . S
C772 O762 1.236 . S
C772 O763 1.257 . S
O773 Tb752 2.415 . S
O773 C761 1.239 . S
O774 Tb752 2.399 . S
O774 C761 1.263 . S
C775 O764 1.261 . S
C775 O765 1.257 . S
C776 C779 1.358 . S
C776 C780 1.332 . S
C776 C782 1.504 . S
C777 C778 1.373 . S
C777 C781 1.308 . S
C778 C777 1.373 . S
C778 C779 1.429 . S
C778 H788 0.932 . S
C779 C776 1.358 . S
C779 C778 1.429 . S
C779 H789 0.930 . S
C780 C776 1.332 . S
C780 C781 1.394 . S
C780 H790 0.932 . S
C781 C777 1.308 . S
C781 C780 1.394 . S
C781 H791 0.929 . S
C782 Tb753 2.764 . S
C782 O766 1.239 . S
C782 O767 1.263 . S
C782 C776 1.504 . S
C783 O768 1.236 . S
C783 O769 1.257 . S
H784 C757 0.932 . S
H785 C758 0.930 . S
H786 C759 0.932 . S
H787 C760 0.929 . S
H788 C778 0.932 . S
H789 C779 0.930 . S
H790 C780 0.932 . S
H791 C781 0.929 . S
Tb792 C801 2.764 . S
Tb792 O802 2.325 . S
Tb792 O805 2.303 . S
Tb792 O809 2.322 . S
Tb792 O810 2.349 . S
Tb792 O813 2.415 . S
Tb792 O814 2.399 . S
Tb793 O803 2.322 . S
Tb793 O804 2.349 . S
Tb793 O806 2.415 . S
Tb793 O807 2.399 . S
Tb793 O808 2.325 . S
Tb793 O811 2.303 . S
Tb793 C822 2.764 . S
C794 O810 1.261 . S
C794 O811 1.257 . S
C795 C798 1.358 . S
C795 C799 1.332 . S
C795 C801 1.504 . S
C796 C797 1.373 . S
C796 C800 1.308 . S
C797 C796 1.373 . S
C797 C798 1.429 . S
C797 H824 0.932 . S
C798 C795 1.358 . S
C798 C797 1.429 . S
C798 H825 0.930 . S
C799 C795 1.332 . S
C799 C800 1.394 . S
C799 H826 0.932 . S
C800 C796 1.308 . S
C800 C799 1.394 . S
C800 H827 0.929 . S
C801 Tb792 2.764 . S
C801 C795 1.504 . S
C801 O813 1.239 . S
C801 O814 1.263 . S
O802 Tb792 2.325 . S
O802 C812 1.236 . S
O803 Tb793 2.322 . S
O803 C812 1.257 . S
O804 Tb793 2.349 . S
O804 C815 1.261 . S
O805 Tb792 2.303 . S
O805 C815 1.257 . S
O806 Tb793 2.415 . S
O806 C822 1.239 . S
O807 Tb793 2.399 . S
O807 C822 1.263 . S
O808 Tb793 2.325 . S
O808 C823 1.236 . S
O809 Tb792 2.322 . S
O809 C823 1.257 . S
O810 Tb792 2.349 . S
O810 C794 1.261 . S
O811 Tb793 2.303 . S
O811 C794 1.257 . S
C812 O802 1.236 . S
C812 O803 1.257 . S
O813 Tb792 2.415 . S
O813 C801 1.239 . S
O814 Tb792 2.399 . S
O814 C801 1.263 . S
C815 O804 1.261 . S
C815 O805 1.257 . S
C816 C819 1.358 . S
C816 C820 1.332 . S
C816 C822 1.504 . S
C817 C818 1.373 . S
C817 C821 1.308 . S
C818 C817 1.373 . S
C818 C819 1.429 . S
C818 H828 0.932 . S
C819 C816 1.358 . S
C819 C818 1.429 . S
C819 H829 0.930 . S
C820 C816 1.332 . S
C820 C821 1.394 . S
C820 H830 0.932 . S
C821 C817 1.308 . S
C821 C820 1.394 . S
C821 H831 0.929 . S
C822 Tb793 2.764 . S
C822 O806 1.239 . S
C822 O807 1.263 . S
C822 C816 1.504 . S
C823 O808 1.236 . S
C823 O809 1.257 . S
H824 C797 0.932 . S
H825 C798 0.930 . S
H826 C799 0.932 . S
H827 C800 0.929 . S
H828 C818 0.932 . S
H829 C819 0.930 . S
H830 C820 0.932 . S
H831 C821 0.929 . S
Tb832 C841 2.764 . S
Tb832 O842 2.325 . S
Tb832 O845 2.303 . S
Tb832 O849 2.322 . S
Tb832 O850 2.349 . S
Tb832 O853 2.415 . S
Tb832 O854 2.399 . S
Tb833 O843 2.322 . S
Tb833 O844 2.349 . S
Tb833 O846 2.415 . S
Tb833 O847 2.399 . S
Tb833 O848 2.325 . S
Tb833 O851 2.303 . S
Tb833 C862 2.764 . S
C834 O850 1.261 . S
C834 O851 1.257 . S
C835 C838 1.358 . S
C835 C839 1.332 . S
C835 C841 1.504 . S
C836 C837 1.373 . S
C836 C840 1.308 . S
C837 C836 1.373 . S
C837 C838 1.429 . S
C837 H864 0.932 . S
C838 C835 1.358 . S
C838 C837 1.429 . S
C838 H865 0.930 . S
C839 C835 1.332 . S
C839 C840 1.394 . S
C839 H866 0.932 . S
C840 C836 1.308 . S
C840 C839 1.394 . S
C840 H867 0.929 . S
C841 Tb832 2.764 . S
C841 C835 1.504 . S
C841 O853 1.239 . S
C841 O854 1.263 . S
O842 Tb832 2.325 . S
O842 C852 1.236 . S
O843 Tb833 2.322 . S
O843 C852 1.257 . S
O844 Tb833 2.349 . S
O844 C855 1.261 . S
O845 Tb832 2.303 . S
O845 C855 1.257 . S
O846 Tb833 2.415 . S
O846 C862 1.239 . S
O847 Tb833 2.399 . S
O847 C862 1.263 . S
O848 Tb833 2.325 . S
O848 C863 1.236 . S
O849 Tb832 2.322 . S
O849 C863 1.257 . S
O850 Tb832 2.349 . S
O850 C834 1.261 . S
O851 Tb833 2.303 . S
O851 C834 1.257 . S
C852 O842 1.236 . S
C852 O843 1.257 . S
O853 Tb832 2.415 . S
O853 C841 1.239 . S
O854 Tb832 2.399 . S
O854 C841 1.263 . S
C855 O844 1.261 . S
C855 O845 1.257 . S
C856 C859 1.358 . S
C856 C860 1.332 . S
C856 C862 1.504 . S
C857 C858 1.373 . S
C857 C861 1.308 . S
C858 C857 1.373 . S
C858 C859 1.429 . S
C858 H868 0.932 . S
C859 C856 1.358 . S
C859 C858 1.429 . S
C859 H869 0.930 . S
C860 C856 1.332 . S
C860 C861 1.394 . S
C860 H870 0.932 . S
C861 C857 1.308 . S
C861 C860 1.394 . S
C861 H871 0.929 . S
C862 Tb833 2.764 . S
C862 O846 1.239 . S
C862 O847 1.263 . S
C862 C856 1.504 . S
C863 O848 1.236 . S
C863 O849 1.257 . S
H864 C837 0.932 . S
H865 C838 0.930 . S
H866 C839 0.932 . S
H867 C840 0.929 . S
H868 C858 0.932 . S
H869 C859 0.930 . S
H870 C860 0.932 . S
H871 C861 0.929 . S
Tb872 C881 2.764 . S
Tb872 O882 2.325 . S
Tb872 O885 2.303 . S
Tb872 O889 2.322 . S
Tb872 O890 2.349 . S
Tb872 O893 2.415 . S
Tb872 O894 2.399 . S
Tb873 O883 2.322 . S
Tb873 O884 2.349 . S
Tb873 O886 2.415 . S
Tb873 O887 2.399 . S
Tb873 O888 2.325 . S
Tb873 O891 2.303 . S
Tb873 C902 2.764 . S
C874 O890 1.261 . S
C874 O891 1.257 . S
C875 C878 1.358 . S
C875 C879 1.332 . S
C875 C881 1.504 . S
C876 C877 1.373 . S
C876 C880 1.308 . S
C877 C876 1.373 . S
C877 C878 1.429 . S
C877 H904 0.932 . S
C878 C875 1.358 . S
C878 C877 1.429 . S
C878 H905 0.930 . S
C879 C875 1.332 . S
C879 C880 1.394 . S
C879 H906 0.932 . S
C880 C876 1.308 . S
C880 C879 1.394 . S
C880 H907 0.929 . S
C881 Tb872 2.764 . S
C881 C875 1.504 . S
C881 O893 1.239 . S
C881 O894 1.263 . S
O882 Tb872 2.325 . S
O882 C892 1.236 . S
O883 Tb873 2.322 . S
O883 C892 1.257 . S
O884 Tb873 2.349 . S
O884 C895 1.261 . S
O885 Tb872 2.303 . S
O885 C895 1.257 . S
O886 Tb873 2.415 . S
O886 C902 1.239 . S
O887 Tb873 2.399 . S
O887 C902 1.263 . S
O888 Tb873 2.325 . S
O888 C903 1.236 . S
O889 Tb872 2.322 . S
O889 C903 1.257 . S
O890 Tb872 2.349 . S
O890 C874 1.261 . S
O891 Tb873 2.303 . S
O891 C874 1.257 . S
C892 O882 1.236 . S
C892 O883 1.257 . S
O893 Tb872 2.415 . S
O893 C881 1.239 . S
O894 Tb872 2.399 . S
O894 C881 1.263 . S
C895 O884 1.261 . S
C895 O885 1.257 . S
C896 C899 1.358 . S
C896 C900 1.332 . S
C896 C902 1.504 . S
C897 C898 1.373 . S
C897 C901 1.308 . S
C898 C897 1.373 . S
C898 C899 1.429 . S
C898 H908 0.932 . S
C899 C896 1.358 . S
C899 C898 1.429 . S
C899 H909 0.930 . S
C900 C896 1.332 . S
C900 C901 1.394 . S
C900 H910 0.932 . S
C901 C897 1.308 . S
C901 C900 1.394 . S
C901 H911 0.929 . S
C902 Tb873 2.764 . S
C902 O886 1.239 . S
C902 O887 1.263 . S
C902 C896 1.504 . S
C903 O888 1.236 . S
C903 O889 1.257 . S
H904 C877 0.932 . S
H905 C878 0.930 . S
H906 C879 0.932 . S
H907 C880 0.929 . S
H908 C898 0.932 . S
H909 C899 0.930 . S
H910 C900 0.932 . S
H911 C901 0.929 . S
Tb912 C921 2.764 1_455 S
Tb912 O922 2.325 . S
Tb912 O925 2.303 . S
Tb912 O929 2.322 . S
Tb912 O930 2.349 . S
Tb912 O933 2.415 1_455 S
Tb912 O934 2.399 1_455 S
Tb913 O923 2.322 . S
Tb913 O924 2.349 1_554 S
Tb913 O926 2.415 . S
Tb913 O927 2.399 1_554 S
Tb913 O928 2.325 . S
Tb913 O931 2.303 . S
Tb913 C942 2.764 . S
C914 O930 1.261 . S
C914 O931 1.257 . S
C915 C918 1.358 . S
C915 C919 1.332 . S
C915 C921 1.504 . S
C916 C917 1.373 . S
C916 C920 1.308 . S
C917 C916 1.373 . S
C917 C918 1.429 . S
C917 H944 0.932 . S
C918 C915 1.358 . S
C918 C917 1.429 . S
C918 H945 0.930 . S
C919 C915 1.332 . S
C919 C920 1.394 . S
C919 H946 0.932 . S
C920 C916 1.308 . S
C920 C919 1.394 . S
C920 H947 0.929 . S
C921 Tb912 2.764 1_655 S
C921 C915 1.504 . S
C921 O933 1.239 . S
C921 O934 1.263 . S
O922 Tb912 2.325 . S
O922 C932 1.236 . S
O923 Tb913 2.322 . S
O923 C932 1.257 . S
O924 Tb913 2.349 1_556 S
O924 C935 1.261 . S
O925 Tb912 2.303 . S
O925 C935 1.257 1_554 S
O926 Tb913 2.415 . S
O926 C942 1.239 . S
O927 Tb913 2.399 1_556 S
O927 C942 1.263 1_556 S
O928 Tb913 2.325 . S
O928 C943 1.236 . S
O929 Tb912 2.322 . S
O929 C943 1.257 . S
O930 Tb912 2.349 . S
O930 C914 1.261 . S
O931 Tb913 2.303 . S
O931 C914 1.257 . S
C932 O922 1.236 . S
C932 O923 1.257 . S
O933 Tb912 2.415 1_655 S
O933 C921 1.239 . S
O934 Tb912 2.399 1_655 S
O934 C921 1.263 . S
C935 O924 1.261 . S
C935 O925 1.257 1_556 S
C936 C939 1.358 1_554 S
C936 C940 1.332 . S
C936 C942 1.504 . S
C937 C938 1.345 1_554 S
C937 C941 1.341 . S
C938 C937 1.345 1_556 S
C938 C939 1.429 . S
C938 H948 0.932 . S
C939 C936 1.358 1_556 S
C939 C938 1.429 . S
C939 H949 0.930 . S
C940 C936 1.332 . S
C940 C941 1.394 . S
C940 H950 0.932 . S
C941 C937 1.341 . S
C941 C940 1.394 . S
C941 H951 0.929 . S
C942 Tb913 2.764 . S
C942 O926 1.239 . S
C942 O927 1.263 1_554 S
C942 C936 1.504 . S
C943 O928 1.236 . S
C943 O929 1.257 . S
H944 C917 0.932 . S
H945 C918 0.930 . S
H946 C919 0.932 . S
H947 C920 0.929 . S
H948 C938 0.932 . S
H949 C939 0.930 . S
H950 C940 0.932 . S
H951 C941 0.929 . S
H952 C958 0.930 . S
H953 C962 0.930 . S
H954 C967 0.929 1_554 S
H955 C965 0.929 . S
H956 C960 0.950 . S
H957 C966 0.929 . S
C958 H952 0.930 . S
C958 C959 1.367 1_455 S
C958 C966 1.378 . S
C959 C958 1.367 1_655 S
C959 C967 1.433 . S
C960 H956 0.950 . S
C960 C962 1.378 . S
C960 C964 1.350 1_554 S
C961 C964 1.463 . S
C961 C966 1.350 . S
C961 N969 1.427 1_456 S
C962 H953 0.930 . S
C962 C960 1.378 . S
C962 C963 1.367 . S
C963 C962 1.367 . S
C963 C965 1.433 1_554 S
C964 C960 1.350 1_556 S
C964 C961 1.463 . S
C964 N968 1.427 . S
C965 H955 0.929 . S
C965 C963 1.433 1_556 S
C965 N968 1.384 . S
C966 H957 0.929 . S
C966 C958 1.378 . S
C966 C961 1.350 . S
C967 H954 0.929 1_556 S
C967 C959 1.433 . S
C967 N969 1.384 1_556 S
N968 C964 1.427 . S
N968 C965 1.384 . S
N969 C961 1.427 1_654 S
N969 C967 1.384 1_554 S
H970 C976 0.930 . S
H971 C980 0.930 . S
H972 C985 0.929 . S
H973 C983 0.929 . S
H974 C978 0.929 . S
H975 C984 0.929 . S
C976 H970 0.930 . S
C976 C977 1.367 . S
C976 C984 1.378 . S
C977 C976 1.367 . S
C977 C985 1.433 . S
C978 H974 0.929 . S
C978 C980 1.378 . S
C978 C982 1.350 . S
C979 C982 1.463 . S
C979 C984 1.350 . S
C979 N987 1.427 . S
C980 H971 0.930 . S
C980 C978 1.378 . S
C980 C981 1.367 . S
C981 C980 1.367 . S
C981 C983 1.433 . S
C982 C978 1.350 . S
C982 C979 1.463 . S
C982 N986 1.427 . S
C983 H973 0.929 . S
C983 C981 1.433 . S
C983 N986 1.384 . S
C984 H975 0.929 . S
C984 C976 1.378 . S
C984 C979 1.350 . S
C985 H972 0.929 . S
C985 C977 1.433 . S
C985 N987 1.384 . S
N986 C982 1.427 . S
N986 C983 1.384 . S
N987 C979 1.427 . S
N987 C985 1.384 . S
H988 C994 0.930 . S
H989 C998 0.930 . S
H990 C1003 0.929 . S
H991 C1001 0.929 . S
H992 C996 0.929 . S
H993 C1002 0.929 . S
C994 H988 0.930 . S
C994 C995 1.367 . S
C994 C1002 1.378 . S
C995 C994 1.367 . S
C995 C1003 1.433 . S
C996 H992 0.929 . S
C996 C998 1.378 . S
C996 C1000 1.350 . S
C997 C1000 1.463 . S
C997 C1002 1.350 . S
C997 N1005 1.427 . S
C998 H989 0.930 . S
C998 C996 1.378 . S
C998 C999 1.367 . S
C999 C998 1.367 . S
C999 C1001 1.433 . S
C1000 C996 1.350 . S
C1000 C997 1.463 . S
C1000 N1004 1.427 . S
C1001 H991 0.929 . S
C1001 C999 1.433 . S
C1001 N1004 1.384 . S
C1002 H993 0.929 . S
C1002 C994 1.378 . S
C1002 C997 1.350 . S
C1003 H990 0.929 . S
C1003 C995 1.433 . S
C1003 N1005 1.384 . S
N1004 C1000 1.427 . S
N1004 C1001 1.384 . S
N1005 C997 1.427 . S
N1005 C1003 1.384 . S
H1006 C1012 0.930 . S
H1007 C1016 0.930 . S
H1008 C1021 0.929 . S
H1009 C1019 0.929 . S
H1010 C1014 0.929 . S
H1011 C1020 0.929 . S
C1012 H1006 0.930 . S
C1012 C1013 1.367 . S
C1012 C1020 1.378 . S
C1013 C1012 1.367 . S
C1013 C1021 1.433 . S
C1014 H1010 0.929 . S
C1014 C1016 1.378 . S
C1014 C1018 1.350 . S
C1015 C1018 1.463 . S
C1015 C1020 1.350 . S
C1015 N1023 1.427 . S
C1016 H1007 0.930 . S
C1016 C1014 1.378 . S
C1016 C1017 1.367 . S
C1017 C1016 1.367 . S
C1017 C1019 1.433 . S
C1018 C1014 1.350 . S
C1018 C1015 1.463 . S
C1018 N1022 1.427 . S
C1019 H1009 0.929 . S
C1019 C1017 1.433 . S
C1019 N1022 1.384 . S
C1020 H1011 0.929 . S
C1020 C1012 1.378 . S
C1020 C1015 1.350 . S
C1021 H1008 0.929 . S
C1021 C1013 1.433 . S
C1021 N1023 1.384 . S
N1022 C1018 1.427 . S
N1022 C1019 1.384 . S
N1023 C1015 1.427 . S
N1023 C1021 1.384 . S
H1024 C1030 0.930 . S
H1025 C1034 0.930 . S
H1026 C1039 0.929 . S
H1027 C1037 0.929 . S
H1028 C1032 0.929 . S
H1029 C1038 0.929 . S
C1030 H1024 0.930 . S
C1030 C1031 1.367 . S
C1030 C1038 1.378 . S
C1031 C1030 1.367 . S
C1031 C1039 1.433 . S
C1032 H1028 0.929 . S
C1032 C1034 1.378 . S
C1032 C1036 1.350 . S
C1033 C1036 1.463 . S
C1033 C1038 1.350 . S
C1033 N1041 1.427 . S
C1034 H1025 0.930 . S
C1034 C1032 1.378 . S
C1034 C1035 1.367 . S
C1035 C1034 1.367 . S
C1035 C1037 1.433 . S
C1036 C1032 1.350 . S
C1036 C1033 1.463 . S
C1036 N1040 1.427 . S
C1037 H1027 0.929 . S
C1037 C1035 1.433 . S
C1037 N1040 1.384 . S
C1038 H1029 0.929 . S
C1038 C1030 1.378 . S
C1038 C1033 1.350 . S
C1039 H1026 0.929 . S
C1039 C1031 1.433 . S
C1039 N1041 1.384 . S
N1040 C1036 1.427 . S
N1040 C1037 1.384 . S
N1041 C1033 1.427 . S
N1041 C1039 1.384 . S
H1042 C1048 0.930 . S
H1043 C1052 0.930 . S
H1044 C1057 0.929 . S
H1045 C1055 0.929 . S
H1046 C1050 0.929 . S
H1047 C1056 0.929 . S
C1048 H1042 0.930 . S
C1048 C1049 1.367 . S
C1048 C1056 1.378 . S
C1049 C1048 1.367 . S
C1049 C1057 1.433 . S
C1050 H1046 0.929 . S
C1050 C1052 1.378 . S
C1050 C1054 1.350 . S
C1051 C1054 1.463 . S
C1051 C1056 1.350 . S
C1051 N1059 1.427 . S
C1052 H1043 0.930 . S
C1052 C1050 1.378 . S
C1052 C1053 1.367 . S
C1053 C1052 1.367 . S
C1053 C1055 1.433 . S
C1054 C1050 1.350 . S
C1054 C1051 1.463 . S
C1054 N1058 1.427 . S
C1055 H1045 0.929 . S
C1055 C1053 1.433 . S
C1055 N1058 1.384 . S
C1056 H1047 0.929 . S
C1056 C1048 1.378 . S
C1056 C1051 1.350 . S
C1057 H1044 0.929 . S
C1057 C1049 1.433 . S
C1057 N1059 1.384 . S
N1058 C1054 1.427 . S
N1058 C1055 1.384 . S
N1059 C1051 1.427 . S
N1059 C1057 1.384 . S
H1060 C1066 0.930 . S
H1061 C1070 0.930 . S
H1062 C1075 0.929 . S
H1063 C1073 0.929 . S
H1064 C1068 0.929 . S
H1065 C1074 0.929 . S
C1066 H1060 0.930 . S
C1066 C1067 1.367 . S
C1066 C1074 1.378 . S
C1067 C1066 1.367 . S
C1067 C1075 1.433 . S
C1068 H1064 0.929 . S
C1068 C1070 1.378 . S
C1068 C1072 1.350 . S
C1069 C1072 1.463 . S
C1069 C1074 1.350 . S
C1069 N1077 1.427 . S
C1070 H1061 0.930 . S
C1070 C1068 1.378 . S
C1070 C1071 1.367 . S
C1071 C1070 1.367 . S
C1071 C1073 1.433 . S
C1072 C1068 1.350 . S
C1072 C1069 1.463 . S
C1072 N1076 1.427 . S
C1073 H1063 0.929 . S
C1073 C1071 1.433 . S
C1073 N1076 1.384 . S
C1074 H1065 0.929 . S
C1074 C1066 1.378 . S
C1074 C1069 1.350 . S
C1075 H1062 0.929 . S
C1075 C1067 1.433 . S
C1075 N1077 1.384 . S
N1076 C1072 1.427 . S
N1076 C1073 1.384 . S
N1077 C1069 1.427 . S
N1077 C1075 1.384 . S
H1078 C1084 0.930 . S
H1079 C1088 0.930 . S
H1080 C1093 0.929 . S
H1081 C1091 0.929 . S
H1082 C1086 0.929 . S
H1083 C1092 0.929 . S
C1084 H1078 0.930 . S
C1084 C1085 1.367 . S
C1084 C1092 1.378 . S
C1085 C1084 1.367 . S
C1085 C1093 1.433 . S
C1086 H1082 0.929 . S
C1086 C1088 1.378 . S
C1086 C1090 1.350 . S
C1087 C1090 1.463 . S
C1087 C1092 1.350 . S
C1087 N1095 1.427 . S
C1088 H1079 0.930 . S
C1088 C1086 1.378 . S
C1088 C1089 1.367 . S
C1089 C1088 1.367 . S
C1089 C1091 1.433 . S
C1090 C1086 1.350 . S
C1090 C1087 1.463 . S
C1090 N1094 1.427 . S
C1091 H1081 0.929 . S
C1091 C1089 1.433 . S
C1091 N1094 1.384 . S
C1092 H1083 0.929 . S
C1092 C1084 1.378 . S
C1092 C1087 1.350 . S
C1093 H1080 0.929 . S
C1093 C1085 1.433 . S
C1093 N1095 1.384 . S
N1094 C1090 1.427 . S
N1094 C1091 1.384 . S
N1095 C1087 1.427 . S
N1095 C1093 1.384 . S
H1096 C1102 0.930 1_565 S
H1097 C1106 0.930 . S
H1098 C1111 0.929 . S
H1099 C1109 0.929 . S
H1100 C1104 0.929 . S
H1101 C1110 0.929 . S
C1102 H1096 0.930 1_545 S
C1102 C1103 1.367 . S
C1102 C1110 1.378 . S
C1103 C1102 1.367 . S
C1103 C1111 1.433 . S
C1104 H1100 0.929 . S
C1104 C1106 1.378 . S
C1104 C1108 1.350 . S
C1105 C1108 1.463 . S
C1105 C1110 1.350 . S
C1105 N1113 1.427 . S
C1106 H1097 0.930 . S
C1106 C1104 1.378 . S
C1106 C1107 1.367 1_655 S
C1107 C1106 1.367 1_455 S
C1107 C1109 1.433 . S
C1108 C1104 1.350 . S
C1108 C1105 1.463 . S
C1108 N1112 1.427 1_655 S
C1109 H1099 0.929 . S
C1109 C1107 1.433 . S
C1109 N1112 1.384 . S
C1110 H1101 0.929 . S
C1110 C1102 1.378 . S
C1110 C1105 1.350 . S
C1111 H1098 0.929 . S
C1111 C1103 1.433 . S
C1111 N1113 1.384 . S
N1112 C1108 1.427 1_455 S
N1112 C1109 1.384 . S
N1113 C1105 1.427 . S
N1113 C1111 1.384 . S
H1114 C1120 0.930 . S
H1115 C1124 0.930 . S
H1116 C1129 0.929 . S
H1117 C1127 0.929 . S
H1118 C1122 0.929 . S
H1119 C1128 0.929 . S
C1120 H1114 0.930 . S
C1120 C1121 1.367 . S
C1120 C1128 1.378 . S
C1121 C1120 1.367 . S
C1121 C1129 1.433 . S
C1122 H1118 0.929 . S
C1122 C1124 1.378 . S
C1122 C1126 1.350 . S
C1123 C1126 1.463 . S
C1123 C1128 1.350 . S
C1123 N1131 1.427 . S
C1124 H1115 0.930 . S
C1124 C1122 1.378 . S
C1124 C1125 1.367 . S
C1125 C1124 1.367 . S
C1125 C1127 1.433 . S
C1126 C1122 1.350 . S
C1126 C1123 1.463 . S
C1126 N1130 1.427 . S
C1127 H1117 0.929 . S
C1127 C1125 1.433 . S
C1127 N1130 1.384 . S
C1128 H1119 0.929 . S
C1128 C1120 1.378 . S
C1128 C1123 1.350 . S
C1129 H1116 0.929 . S
C1129 C1121 1.433 . S
C1129 N1131 1.384 . S
N1130 C1126 1.427 . S
N1130 C1127 1.384 . S
N1131 C1123 1.427 . S
N1131 C1129 1.384 . S
H1132 C1138 0.930 . S
H1133 C1142 0.930 . S
H1134 C1147 0.929 . S
H1135 C1145 0.931 1_565 S
H1136 C1140 0.929 . S
H1137 C1146 0.929 . S
C1138 H1132 0.930 . S
C1138 C1139 1.367 . S
C1138 C1146 1.378 . S
C1139 C1138 1.367 . S
C1139 C1147 1.433 . S
C1140 H1136 0.929 . S
C1140 C1142 1.378 . S
C1140 C1144 1.350 . S
C1141 C1144 1.463 . S
C1141 C1146 1.350 . S
C1141 N1149 1.427 . S
C1142 H1133 0.930 . S
C1142 C1140 1.378 . S
C1142 C1143 1.367 . S
C1143 C1142 1.367 . S
C1143 C1145 1.433 . S
C1144 C1140 1.350 . S
C1144 C1141 1.463 . S
C1144 N1148 1.427 . S
C1145 H1135 0.931 1_545 S
C1145 C1143 1.433 . S
C1145 N1148 1.384 . S
C1146 H1137 0.929 . S
C1146 C1138 1.378 . S
C1146 C1141 1.350 . S
C1147 H1134 0.929 . S
C1147 C1139 1.433 . S
C1147 N1149 1.384 . S
N1148 C1144 1.427 . S
N1148 C1145 1.384 . S
N1149 C1141 1.427 . S
N1149 C1147 1.384 . S
H1150 C1156 0.930 . S
H1151 C1160 0.930 . S
H1152 C1165 0.929 . S
H1153 C1163 0.929 . S
H1154 C1158 0.929 . S
H1155 C1164 0.929 . S
C1156 H1150 0.930 . S
C1156 C1157 1.367 . S
C1156 C1164 1.378 . S
C1157 C1156 1.367 . S
C1157 C1165 1.433 . S
C1158 H1154 0.929 . S
C1158 C1160 1.378 . S
C1158 C1162 1.350 . S
C1159 C1162 1.463 . S
C1159 C1164 1.350 . S
C1159 N1167 1.427 . S
C1160 H1151 0.930 . S
C1160 C1158 1.378 . S
C1160 C1161 1.367 . S
C1161 C1160 1.367 . S
C1161 C1163 1.433 . S
C1162 C1158 1.350 . S
C1162 C1159 1.463 . S
C1162 N1166 1.427 . S
C1163 H1153 0.929 . S
C1163 C1161 1.433 . S
C1163 N1166 1.384 . S
C1164 H1155 0.929 . S
C1164 C1156 1.378 . S
C1164 C1159 1.350 . S
C1165 H1152 0.929 . S
C1165 C1157 1.433 . S
C1165 N1167 1.384 . S
N1166 C1162 1.427 . S
N1166 C1163 1.384 . S
N1167 C1159 1.427 . S
N1167 C1165 1.384 . S
H1168 C1174 0.930 1_565 S
H1169 C1178 0.930 . S
H1170 C1183 0.929 . S
H1171 C1181 0.968 1_455 S
H1172 C1176 0.929 . S
H1173 C1182 0.929 1_565 S
C1174 H1168 0.930 1_545 S
C1174 C1175 1.367 . S
C1174 C1182 1.378 . S
C1175 C1174 1.367 . S
C1175 C1183 1.433 . S
C1176 H1172 0.929 . S
C1176 C1178 1.378 . S
C1176 C1180 1.350 . S
C1177 C1180 1.463 . S
C1177 C1182 1.350 . S
C1177 N1185 1.427 . S
C1178 H1169 0.930 . S
C1178 C1176 1.378 . S
C1178 C1179 1.367 . S
C1179 C1178 1.367 . S
C1179 C1181 1.405 1_545 S
C1180 C1176 1.350 . S
C1180 C1177 1.463 . S
C1180 N1184 1.427 1_545 S
C1181 H1171 0.968 1_655 S
C1181 C1179 1.405 1_565 S
C1181 N1184 1.373 . S
C1182 H1173 0.929 1_545 S
C1182 C1174 1.378 . S
C1182 C1177 1.350 . S
C1183 H1170 0.929 . S
C1183 C1175 1.433 . S
C1183 N1185 1.384 . S
N1184 C1180 1.427 1_565 S
N1184 C1181 1.373 . S
N1185 C1177 1.427 . S
N1185 C1183 1.384 . S
H1186 C1192 0.930 . S
H1187 C1196 0.930 . S
H1188 C1201 0.929 . S
H1189 C1199 0.929 . S
H1190 C1194 0.929 . S
H1191 C1200 0.929 . S
C1192 H1186 0.930 . S
C1192 C1193 1.367 . S
C1192 C1200 1.378 . S
C1193 C1192 1.367 . S
C1193 C1201 1.433 . S
C1194 H1190 0.929 . S
C1194 C1196 1.378 . S
C1194 C1198 1.350 . S
C1195 C1198 1.463 . S
C1195 C1200 1.350 . S
C1195 N1203 1.427 . S
C1196 H1187 0.930 . S
C1196 C1194 1.378 . S
C1196 C1197 1.367 . S
C1197 C1196 1.367 . S
C1197 C1199 1.433 . S
C1198 C1194 1.350 . S
C1198 C1195 1.463 . S
C1198 N1202 1.427 . S
C1199 H1189 0.929 . S
C1199 C1197 1.433 . S
C1199 N1202 1.384 . S
C1200 H1191 0.929 . S
C1200 C1192 1.378 . S
C1200 C1195 1.350 . S
C1201 H1188 0.929 . S
C1201 C1193 1.433 . S
C1201 N1203 1.384 . S
N1202 C1198 1.427 . S
N1202 C1199 1.384 . S
N1203 C1195 1.427 . S
N1203 C1201 1.384 . S
H1204 C1210 0.933 1_565 S
H1205 C1214 0.930 . S
H1206 C1219 0.929 . S
H1207 C1217 0.929 1_565 S
H1208 C1212 0.929 . S
H1209 C1218 0.909 1_565 S
C1210 H1204 0.933 1_545 S
C1210 C1211 1.367 . S
C1210 C1218 1.378 . S
C1211 C1210 1.367 . S
C1211 C1219 1.433 . S
C1212 H1208 0.929 . S
C1212 C1214 1.378 . S
C1212 C1216 1.350 . S
C1213 C1216 1.463 . S
C1213 C1218 1.350 . S
C1213 N1221 1.427 . S
C1214 H1205 0.930 . S
C1214 C1212 1.378 . S
C1214 C1215 1.367 . S
C1215 C1214 1.367 . S
C1215 C1217 1.433 . S
C1216 C1212 1.350 . S
C1216 C1213 1.463 . S
C1216 N1220 1.427 . S
C1217 H1207 0.929 1_545 S
C1217 C1215 1.433 . S
C1217 N1220 1.384 . S
C1218 H1209 0.909 1_545 S
C1218 C1210 1.378 . S
C1218 C1213 1.350 . S
C1219 H1206 0.929 . S
C1219 C1211 1.433 . S
C1219 N1221 1.384 . S
N1220 C1216 1.427 . S
N1220 C1217 1.384 . S
N1221 C1213 1.427 . S
N1221 C1219 1.384 . S
H1222 C1228 0.930 . S
H1223 C1232 0.930 . S
H1224 C1237 0.929 . S
H1225 C1235 0.929 . S
H1226 C1230 0.929 . S
H1227 C1236 0.929 . S
C1228 H1222 0.930 . S
C1228 C1229 1.367 . S
C1228 C1236 1.378 . S
C1229 C1228 1.367 . S
C1229 C1237 1.433 . S
C1230 H1226 0.929 . S
C1230 C1232 1.378 . S
C1230 C1234 1.350 . S
C1231 C1234 1.463 . S
C1231 C1236 1.350 . S
C1231 N1239 1.427 . S
C1232 H1223 0.930 . S
C1232 C1230 1.378 . S
C1232 C1233 1.367 . S
C1233 C1232 1.367 . S
C1233 C1235 1.433 . S
C1234 C1230 1.350 . S
C1234 C1231 1.463 . S
C1234 N1238 1.427 . S
C1235 H1225 0.929 . S
C1235 C1233 1.433 . S
C1235 N1238 1.384 . S
C1236 H1227 0.929 . S
C1236 C1228 1.378 . S
C1236 C1231 1.350 . S
C1237 H1224 0.929 . S
C1237 C1229 1.433 . S
C1237 N1239 1.384 . S
N1238 C1234 1.427 . S
N1238 C1235 1.384 . S
N1239 C1231 1.427 . S
N1239 C1237 1.384 . S
H1240 C1246 0.930 . S
H1241 C1250 0.930 . S
H1242 C1255 0.929 . S
H1243 C1253 0.929 . S
H1244 C1248 0.929 . S
H1245 C1254 0.929 1_556 S
C1246 H1240 0.930 . S
C1246 C1247 1.367 1_556 S
C1246 C1254 1.378 1_556 S
C1247 C1246 1.367 1_554 S
C1247 C1255 1.433 . S
C1248 H1244 0.929 . S
C1248 C1250 1.378 1_565 S
C1248 C1252 1.350 . S
C1249 C1252 1.463 . S
C1249 C1254 1.350 . S
C1249 N1257 1.427 . S
C1250 H1241 0.930 . S
C1250 C1248 1.378 1_545 S
C1250 C1251 1.367 . S
C1251 C1250 1.367 . S
C1251 C1253 1.433 . S
C1252 C1248 1.350 . S
C1252 C1249 1.463 . S
C1252 N1256 1.431 . S
C1253 H1243 0.929 . S
C1253 C1251 1.433 . S
C1253 N1256 1.380 1_545 S
C1254 H1245 0.929 1_554 S
C1254 C1246 1.378 1_554 S
C1254 C1249 1.350 . S
C1255 H1242 0.929 . S
C1255 C1247 1.433 . S
C1255 N1257 1.384 . S
N1256 C1252 1.431 . S
N1256 C1253 1.380 1_565 S
N1257 C1249 1.427 . S
N1257 C1255 1.384 . S
H1258 C1264 0.930 . S
H1259 C1268 0.930 . S
H1260 C1273 0.929 . S
H1261 C1271 0.929 . S
H1262 C1266 0.929 . S
H1263 C1272 0.929 . S
C1264 H1258 0.930 . S
C1264 C1265 1.367 . S
C1264 C1272 1.378 . S
C1265 C1264 1.367 . S
C1265 C1273 1.433 . S
C1266 H1262 0.929 . S
C1266 C1268 1.378 . S
C1266 C1270 1.350 . S
C1267 C1270 1.463 . S
C1267 C1272 1.350 . S
C1267 N1275 1.427 . S
C1268 H1259 0.930 . S
C1268 C1266 1.378 . S
C1268 C1269 1.367 . S
C1269 C1268 1.367 . S
C1269 C1271 1.433 . S
C1270 C1266 1.350 . S
C1270 C1267 1.463 . S
C1270 N1274 1.427 . S
C1271 H1261 0.929 . S
C1271 C1269 1.433 . S
C1271 N1274 1.384 . S
C1272 H1263 0.929 . S
C1272 C1264 1.378 . S
C1272 C1267 1.350 . S
C1273 H1260 0.929 . S
C1273 C1265 1.433 . S
C1273 N1275 1.384 . S
N1274 C1270 1.427 . S
N1274 C1271 1.384 . S
N1275 C1267 1.427 . S
N1275 C1273 1.384 . S
H1276 C1282 0.930 . S
H1277 C1286 0.930 . S
H1278 C1291 0.929 . S
H1279 C1289 0.929 . S
H1280 C1284 0.929 . S
H1281 C1290 0.929 . S
C1282 H1276 0.930 . S
C1282 C1283 1.367 . S
C1282 C1290 1.378 . S
C1283 C1282 1.367 . S
C1283 C1291 1.433 . S
C1284 H1280 0.929 . S
C1284 C1286 1.378 . S
C1284 C1288 1.350 . S
C1285 C1288 1.463 . S
C1285 C1290 1.350 . S
C1285 N1293 1.427 . S
C1286 H1277 0.930 . S
C1286 C1284 1.378 . S
C1286 C1287 1.367 . S
C1287 C1286 1.367 . S
C1287 C1289 1.433 . S
C1288 C1284 1.350 . S
C1288 C1285 1.463 . S
C1288 N1292 1.427 . S
C1289 H1279 0.929 . S
C1289 C1287 1.433 . S
C1289 N1292 1.384 . S
C1290 H1281 0.929 . S
C1290 C1282 1.378 . S
C1290 C1285 1.350 . S
C1291 H1278 0.929 . S
C1291 C1283 1.433 . S
C1291 N1293 1.384 . S
N1292 C1288 1.427 . S
N1292 C1289 1.384 . S
N1293 C1285 1.427 . S
N1293 C1291 1.384 . S
H1294 C1300 0.930 . S
H1295 C1304 0.930 . S
H1296 C1309 0.929 . S
H1297 C1307 0.929 . S
H1298 C1302 0.929 . S
H1299 C1308 0.929 . S
C1300 H1294 0.930 . S
C1300 C1301 1.367 . S
C1300 C1308 1.378 . S
C1301 C1300 1.367 . S
C1301 C1309 1.433 . S
C1302 H1298 0.929 . S
C1302 C1304 1.378 . S
C1302 C1306 1.350 . S
C1303 C1306 1.463 . S
C1303 C1308 1.350 . S
C1303 N1311 1.427 . S
C1304 H1295 0.930 . S
C1304 C1302 1.378 . S
C1304 C1305 1.367 . S
C1305 C1304 1.367 . S
C1305 C1307 1.433 . S
C1306 C1302 1.350 . S
C1306 C1303 1.463 . S
C1306 N1310 1.427 . S
C1307 H1297 0.929 . S
C1307 C1305 1.433 . S
C1307 N1310 1.384 . S
C1308 H1299 0.929 . S
C1308 C1300 1.378 . S
C1308 C1303 1.350 . S
C1309 H1296 0.929 . S
C1309 C1301 1.433 . S
C1309 N1311 1.384 . S
N1310 C1306 1.427 . S
N1310 C1307 1.384 . S
N1311 C1303 1.427 . S
N1311 C1309 1.384 . S
H1312 C1318 0.930 . S
H1313 C1322 0.930 . S
H1314 C1327 0.929 . S
H1315 C1325 0.929 . S
H1316 C1320 0.929 . S
H1317 C1326 0.929 . S
C1318 H1312 0.930 . S
C1318 C1319 1.367 . S
C1318 C1326 1.378 . S
C1319 C1318 1.367 . S
C1319 C1327 1.433 . S
C1320 H1316 0.929 . S
C1320 C1322 1.378 . S
C1320 C1324 1.350 . S
C1321 C1324 1.463 . S
C1321 C1326 1.350 . S
C1321 N1329 1.427 . S
C1322 H1313 0.930 . S
C1322 C1320 1.378 . S
C1322 C1323 1.367 . S
C1323 C1322 1.367 . S
C1323 C1325 1.433 . S
C1324 C1320 1.350 . S
C1324 C1321 1.463 . S
C1324 N1328 1.427 . S
C1325 H1315 0.929 . S
C1325 C1323 1.433 . S
C1325 N1328 1.384 . S
C1326 H1317 0.929 . S
C1326 C1318 1.378 . S
C1326 C1321 1.350 . S
C1327 H1314 0.929 . S
C1327 C1319 1.433 . S
C1327 N1329 1.384 . S
N1328 C1324 1.427 . S
N1328 C1325 1.384 . S
N1329 C1321 1.427 . S
N1329 C1327 1.384 . S
H1330 C1336 0.930 . S
H1331 C1340 0.930 . S
H1332 C1345 0.929 . S
H1333 C1343 0.929 . S
H1334 C1338 0.929 . S
H1335 C1344 0.929 . S
C1336 H1330 0.930 . S
C1336 C1337 1.367 . S
C1336 C1344 1.378 . S
C1337 C1336 1.367 . S
C1337 C1345 1.433 . S
C1338 H1334 0.929 . S
C1338 C1340 1.378 . S
C1338 C1342 1.350 . S
C1339 C1342 1.463 . S
C1339 C1344 1.350 . S
C1339 N1347 1.427 . S
C1340 H1331 0.930 . S
C1340 C1338 1.378 . S
C1340 C1341 1.367 . S
C1341 C1340 1.367 . S
C1341 C1343 1.433 . S
C1342 C1338 1.350 . S
C1342 C1339 1.463 . S
C1342 N1346 1.427 . S
C1343 H1333 0.929 . S
C1343 C1341 1.433 . S
C1343 N1346 1.384 . S
C1344 H1335 0.929 . S
C1344 C1336 1.378 . S
C1344 C1339 1.350 . S
C1345 H1332 0.929 . S
C1345 C1337 1.433 . S
C1345 N1347 1.384 . S
N1346 C1342 1.427 . S
N1346 C1343 1.384 . S
N1347 C1339 1.427 . S
N1347 C1345 1.384 . S
H1348 C1354 0.930 . S
H1349 C1358 0.930 . S
H1350 C1363 0.929 . S
H1351 C1361 0.929 . S
H1352 C1356 0.929 . S
H1353 C1362 0.929 . S
C1354 H1348 0.930 . S
C1354 C1355 1.367 . S
C1354 C1362 1.378 . S
C1355 C1354 1.367 . S
C1355 C1363 1.433 . S
C1356 H1352 0.929 . S
C1356 C1358 1.378 . S
C1356 C1360 1.350 . S
C1357 C1360 1.463 . S
C1357 C1362 1.350 . S
C1357 N1365 1.427 . S
C1358 H1349 0.930 . S
C1358 C1356 1.378 . S
C1358 C1359 1.367 . S
C1359 C1358 1.367 . S
C1359 C1361 1.433 . S
C1360 C1356 1.350 . S
C1360 C1357 1.463 . S
C1360 N1364 1.427 . S
C1361 H1351 0.929 . S
C1361 C1359 1.433 . S
C1361 N1364 1.384 . S
C1362 H1353 0.929 . S
C1362 C1354 1.378 . S
C1362 C1357 1.350 . S
C1363 H1350 0.929 . S
C1363 C1355 1.433 . S
C1363 N1365 1.384 . S
N1364 C1360 1.427 . S
N1364 C1361 1.384 . S
N1365 C1357 1.427 . S
N1365 C1363 1.384 . S
H1366 C1372 0.930 . S
H1367 C1376 0.930 . S
H1368 C1381 0.929 . S
H1369 C1379 0.929 . S
H1370 C1374 0.929 . S
H1371 C1380 0.929 . S
C1372 H1366 0.930 . S
C1372 C1373 1.367 . S
C1372 C1380 1.378 . S
C1373 C1372 1.367 . S
C1373 C1381 1.433 . S
C1374 H1370 0.929 . S
C1374 C1376 1.378 . S
C1374 C1378 1.350 . S
C1375 C1378 1.463 . S
C1375 C1380 1.350 . S
C1375 N1383 1.427 . S
C1376 H1367 0.930 . S
C1376 C1374 1.378 . S
C1376 C1377 1.367 . S
C1377 C1376 1.367 . S
C1377 C1379 1.433 . S
C1378 C1374 1.350 . S
C1378 C1375 1.463 . S
C1378 N1382 1.427 . S
C1379 H1369 0.929 . S
C1379 C1377 1.433 . S
C1379 N1382 1.384 . S
C1380 H1371 0.929 . S
C1380 C1372 1.378 . S
C1380 C1375 1.350 . S
C1381 H1368 0.929 . S
C1381 C1373 1.433 . S
C1381 N1383 1.384 . S
N1382 C1378 1.427 . S
N1382 C1379 1.384 . S
N1383 C1375 1.427 . S
N1383 C1381 1.384 . S
H1384 C1390 0.930 . S
H1385 C1394 0.930 . S
H1386 C1399 0.929 . S
H1387 C1397 0.929 . S
H1388 C1392 0.929 . S
H1389 C1398 0.929 . S
C1390 H1384 0.930 . S
C1390 C1391 1.367 . S
C1390 C1398 1.378 . S
C1391 C1390 1.367 . S
C1391 C1399 1.433 . S
C1392 H1388 0.929 . S
C1392 C1394 1.378 . S
C1392 C1396 1.350 . S
C1393 C1396 1.463 . S
C1393 C1398 1.350 . S
C1393 N1401 1.427 . S
C1394 H1385 0.930 . S
C1394 C1392 1.378 . S
C1394 C1395 1.367 . S
C1395 C1394 1.367 . S
C1395 C1397 1.433 . S
C1396 C1392 1.350 . S
C1396 C1393 1.463 . S
C1396 N1400 1.427 . S
C1397 H1387 0.929 . S
C1397 C1395 1.433 . S
C1397 N1400 1.384 . S
C1398 H1389 0.929 . S
C1398 C1390 1.378 . S
C1398 C1393 1.350 . S
C1399 H1386 0.929 . S
C1399 C1391 1.433 . S
C1399 N1401 1.384 . S
N1400 C1396 1.427 . S
N1400 C1397 1.384 . S
N1401 C1393 1.427 . S
N1401 C1399 1.384 . S
H1402 C1408 0.930 . S
H1403 C1412 0.930 . S
H1404 C1417 0.929 . S
H1405 C1415 0.929 . S
H1406 C1410 0.929 . S
H1407 C1416 0.929 . S
C1408 H1402 0.930 . S
C1408 C1409 1.367 . S
C1408 C1416 1.378 . S
C1409 C1408 1.367 . S
C1409 C1417 1.433 . S
C1410 H1406 0.929 . S
C1410 C1412 1.378 . S
C1410 C1414 1.350 . S
C1411 C1414 1.463 . S
C1411 C1416 1.350 . S
C1411 N1419 1.427 . S
C1412 H1403 0.930 . S
C1412 C1410 1.378 . S
C1412 C1413 1.367 . S
C1413 C1412 1.367 . S
C1413 C1415 1.433 . S
C1414 C1410 1.350 . S
C1414 C1411 1.463 . S
C1414 N1418 1.427 . S
C1415 H1405 0.929 . S
C1415 C1413 1.433 . S
C1415 N1418 1.384 . S
C1416 H1407 0.929 . S
C1416 C1408 1.378 . S
C1416 C1411 1.350 . S
C1417 H1404 0.929 . S
C1417 C1409 1.433 . S
C1417 N1419 1.384 . S
N1418 C1414 1.427 . S
N1418 C1415 1.384 . S
N1419 C1411 1.427 . S
N1419 C1417 1.384 . S
H1420 C1426 0.930 . S
H1421 C1430 0.930 . S
H1422 C1435 0.929 . S
H1423 C1433 0.929 . S
H1424 C1428 0.929 . S
H1425 C1434 0.929 . S
C1426 H1420 0.930 . S
C1426 C1427 1.367 . S
C1426 C1434 1.378 . S
C1427 C1426 1.367 . S
C1427 C1435 1.433 . S
C1428 H1424 0.929 . S
C1428 C1430 1.378 . S
C1428 C1432 1.350 . S
C1429 C1432 1.463 . S
C1429 C1434 1.350 . S
C1429 N1437 1.427 . S
C1430 H1421 0.930 . S
C1430 C1428 1.378 . S
C1430 C1431 1.367 . S
C1431 C1430 1.367 . S
C1431 C1433 1.433 . S
C1432 C1428 1.350 . S
C1432 C1429 1.463 . S
C1432 N1436 1.427 . S
C1433 H1423 0.929 . S
C1433 C1431 1.433 . S
C1433 N1436 1.384 . S
C1434 H1425 0.929 . S
C1434 C1426 1.378 . S
C1434 C1429 1.350 . S
C1435 H1422 0.929 . S
C1435 C1427 1.433 . S
C1435 N1437 1.384 . S
N1436 C1432 1.427 . S
N1436 C1433 1.384 . S
N1437 C1429 1.427 . S
N1437 C1435 1.384 . S
H1438 C1444 0.930 . S
H1439 C1448 0.930 . S
H1440 C1453 0.929 . S
H1441 C1451 0.929 . S
H1442 C1446 0.929 . S
H1443 C1452 0.929 . S
C1444 H1438 0.930 . S
C1444 C1445 1.367 . S
C1444 C1452 1.378 . S
C1445 C1444 1.367 . S
C1445 C1453 1.433 . S
C1446 H1442 0.929 . S
C1446 C1448 1.378 . S
C1446 C1450 1.350 . S
C1447 C1450 1.463 . S
C1447 C1452 1.350 . S
C1447 N1455 1.427 . S
C1448 H1439 0.930 . S
C1448 C1446 1.378 . S
C1448 C1449 1.367 . S
C1449 C1448 1.367 . S
C1449 C1451 1.433 . S
C1450 C1446 1.350 . S
C1450 C1447 1.463 . S
C1450 N1454 1.427 . S
C1451 H1441 0.929 . S
C1451 C1449 1.433 . S
C1451 N1454 1.384 . S
C1452 H1443 0.929 . S
C1452 C1444 1.378 . S
C1452 C1447 1.350 . S
C1453 H1440 0.929 . S
C1453 C1445 1.433 . S
C1453 N1455 1.384 . S
N1454 C1450 1.427 . S
N1454 C1451 1.384 . S
N1455 C1447 1.427 . S
N1455 C1453 1.384 . S
H1456 C1462 0.930 . S
H1457 C1466 0.930 . S
H1458 C1471 0.929 . S
H1459 C1469 0.929 . S
H1460 C1464 0.929 . S
H1461 C1470 0.929 . S
C1462 H1456 0.930 . S
C1462 C1463 1.367 . S
C1462 C1470 1.378 . S
C1463 C1462 1.367 . S
C1463 C1471 1.433 . S
C1464 H1460 0.929 . S
C1464 C1466 1.378 . S
C1464 C1468 1.350 . S
C1465 C1468 1.463 . S
C1465 C1470 1.350 . S
C1465 N1473 1.427 . S
C1466 H1457 0.930 . S
C1466 C1464 1.378 . S
C1466 C1467 1.367 . S
C1467 C1466 1.367 . S
C1467 C1469 1.433 . S
C1468 C1464 1.350 . S
C1468 C1465 1.463 . S
C1468 N1472 1.427 . S
C1469 H1459 0.929 . S
C1469 C1467 1.433 . S
C1469 N1472 1.384 . S
C1470 H1461 0.929 . S
C1470 C1462 1.378 . S
C1470 C1465 1.350 . S
C1471 H1458 0.929 . S
C1471 C1463 1.433 . S
C1471 N1473 1.384 . S
N1472 C1468 1.427 . S
N1472 C1469 1.384 . S
N1473 C1465 1.427 . S
N1473 C1471 1.384 . S
H1474 C1480 0.930 . S
H1475 C1484 0.930 . S
H1476 C1489 0.929 . S
H1477 C1487 0.929 . S
H1478 C1482 0.929 . S
H1479 C1488 0.929 . S
C1480 H1474 0.930 . S
C1480 C1481 1.367 . S
C1480 C1488 1.378 . S
C1481 C1480 1.367 . S
C1481 C1489 1.433 . S
C1482 H1478 0.929 . S
C1482 C1484 1.378 . S
C1482 C1486 1.350 . S
C1483 C1486 1.463 . S
C1483 C1488 1.350 . S
C1483 N1491 1.427 . S
C1484 H1475 0.930 . S
C1484 C1482 1.378 . S
C1484 C1485 1.367 . S
C1485 C1484 1.367 . S
C1485 C1487 1.433 . S
C1486 C1482 1.350 . S
C1486 C1483 1.463 . S
C1486 N1490 1.427 . S
C1487 H1477 0.929 . S
C1487 C1485 1.433 . S
C1487 N1490 1.384 . S
C1488 H1479 0.929 . S
C1488 C1480 1.378 . S
C1488 C1483 1.350 . S
C1489 H1476 0.929 . S
C1489 C1481 1.433 . S
C1489 N1491 1.384 . S
N1490 C1486 1.427 . S
N1490 C1487 1.384 . S
N1491 C1483 1.427 . S
N1491 C1489 1.384 . S
H1492 C1498 0.930 . S
H1493 C1502 0.930 1_554 S
H1494 C1507 0.929 . S
H1495 C1505 0.929 . S
H1496 C1500 0.929 . S
H1497 C1506 0.929 . S
C1498 H1492 0.930 . S
C1498 C1499 1.367 . S
C1498 C1506 1.378 . S
C1499 C1498 1.367 . S
C1499 C1507 1.433 . S
C1500 H1496 0.929 . S
C1500 C1502 1.378 . S
C1500 C1504 1.350 . S
C1501 C1504 1.463 . S
C1501 C1506 1.350 . S
C1501 N1509 1.427 . S
C1502 H1493 0.930 1_556 S
C1502 C1500 1.378 . S
C1502 C1503 1.367 . S
C1503 C1502 1.367 . S
C1503 C1505 1.433 . S
C1504 C1500 1.350 . S
C1504 C1501 1.463 . S
C1504 N1508 1.427 . S
C1505 H1495 0.929 . S
C1505 C1503 1.433 . S
C1505 N1508 1.384 . S
C1506 H1497 0.929 . S
C1506 C1498 1.378 . S
C1506 C1501 1.350 . S
C1507 H1494 0.929 . S
C1507 C1499 1.433 . S
C1507 N1509 1.384 . S
N1508 C1504 1.427 . S
N1508 C1505 1.384 . S
N1509 C1501 1.427 . S
N1509 C1507 1.384 . S
H1510 C1516 0.930 . S
H1511 C1520 0.930 . S
H1512 C1525 0.929 . S
H1513 C1523 0.929 . S
H1514 C1518 0.929 . S
H1515 C1524 0.929 . S
C1516 H1510 0.930 . S
C1516 C1517 1.367 . S
C1516 C1524 1.378 . S
C1517 C1516 1.367 . S
C1517 C1525 1.433 . S
C1518 H1514 0.929 . S
C1518 C1520 1.378 . S
C1518 C1522 1.350 . S
C1519 C1522 1.463 . S
C1519 C1524 1.350 . S
C1519 N1527 1.427 . S
C1520 H1511 0.930 . S
C1520 C1518 1.378 . S
C1520 C1521 1.367 . S
C1521 C1520 1.367 . S
C1521 C1523 1.433 . S
C1522 C1518 1.350 . S
C1522 C1519 1.463 . S
C1522 N1526 1.427 . S
C1523 H1513 0.929 . S
C1523 C1521 1.433 . S
C1523 N1526 1.384 . S
C1524 H1515 0.929 . S
C1524 C1516 1.378 . S
C1524 C1519 1.350 . S
C1525 H1512 0.929 . S
C1525 C1517 1.433 . S
C1525 N1527 1.384 . S
N1526 C1522 1.427 . S
N1526 C1523 1.384 . S
N1527 C1519 1.427 . S
N1527 C1525 1.384 . S
H1528 C1534 0.930 . S
H1529 C1538 0.930 . S
H1530 C1543 0.929 . S
H1531 C1541 0.929 1_565 S
H1532 C1536 0.929 . S
H1533 C1542 0.929 . S
C1534 H1528 0.930 . S
C1534 C1535 1.367 . S
C1534 C1542 1.378 . S
C1535 C1534 1.367 . S
C1535 C1543 1.433 . S
C1536 H1532 0.929 . S
C1536 C1538 1.378 . S
C1536 C1540 1.350 . S
C1537 C1540 1.463 . S
C1537 C1542 1.350 . S
C1537 N1545 1.427 . S
C1538 H1529 0.930 . S
C1538 C1536 1.378 . S
C1538 C1539 1.367 . S
C1539 C1538 1.367 . S
C1539 C1541 1.433 . S
C1540 C1536 1.350 . S
C1540 C1537 1.463 . S
C1540 N1544 1.427 . S
C1541 H1531 0.929 1_545 S
C1541 C1539 1.433 . S
C1541 N1544 1.384 . S
C1542 H1533 0.929 . S
C1542 C1534 1.378 . S
C1542 C1537 1.350 . S
C1543 H1530 0.929 . S
C1543 C1535 1.433 . S
C1543 N1545 1.384 . S
N1544 C1540 1.427 . S
N1544 C1541 1.384 . S
N1545 C1537 1.427 . S
N1545 C1543 1.384 . S
H1546 C1552 0.930 . S
H1547 C1556 0.930 . S
H1548 C1561 0.929 . S
H1549 C1559 0.929 . S
H1550 C1554 0.929 . S
H1551 C1560 0.929 . S
C1552 H1546 0.930 . S
C1552 C1553 1.367 . S
C1552 C1560 1.378 . S
C1553 C1552 1.367 . S
C1553 C1561 1.433 . S
C1554 H1550 0.929 . S
C1554 C1556 1.378 . S
C1554 C1558 1.350 . S
C1555 C1558 1.463 . S
C1555 C1560 1.350 . S
C1555 N1563 1.427 . S
C1556 H1547 0.930 . S
C1556 C1554 1.378 . S
C1556 C1557 1.367 . S
C1557 C1556 1.367 . S
C1557 C1559 1.433 . S
C1558 C1554 1.350 . S
C1558 C1555 1.463 . S
C1558 N1562 1.427 . S
C1559 H1549 0.929 . S
C1559 C1557 1.433 . S
C1559 N1562 1.384 . S
C1560 H1551 0.929 . S
C1560 C1552 1.378 . S
C1560 C1555 1.350 . S
C1561 H1548 0.929 . S
C1561 C1553 1.433 . S
C1561 N1563 1.384 . S
N1562 C1558 1.427 . S
N1562 C1559 1.384 . S
N1563 C1555 1.427 . S
N1563 C1561 1.384 . S
H1564 C1570 0.930 . S
H1565 C1574 0.930 . S
H1566 C1579 0.929 . S
H1567 C1577 0.929 . S
H1568 C1572 0.929 . S
H1569 C1578 0.929 . S
C1570 H1564 0.930 . S
C1570 C1571 1.367 . S
C1570 C1578 1.378 . S
C1571 C1570 1.367 . S
C1571 C1579 1.433 . S
C1572 H1568 0.929 . S
C1572 C1574 1.378 . S
C1572 C1576 1.350 . S
C1573 C1576 1.463 . S
C1573 C1578 1.350 . S
C1573 N1581 1.427 . S
C1574 H1565 0.930 . S
C1574 C1572 1.378 . S
C1574 C1575 1.367 . S
C1575 C1574 1.367 . S
C1575 C1577 1.433 . S
C1576 C1572 1.350 . S
C1576 C1573 1.463 . S
C1576 N1580 1.427 . S
C1577 H1567 0.929 . S
C1577 C1575 1.433 . S
C1577 N1580 1.384 . S
C1578 H1569 0.929 . S
C1578 C1570 1.378 . S
C1578 C1573 1.350 . S
C1579 H1566 0.929 . S
C1579 C1571 1.433 . S
C1579 N1581 1.384 . S
N1580 C1576 1.427 . S
N1580 C1577 1.384 . S
N1581 C1573 1.427 . S
N1581 C1579 1.384 . S
H1582 C1588 0.930 . S
H1583 C1592 0.930 . S
H1584 C1597 0.929 . S
H1585 C1595 0.929 . S
H1586 C1590 0.929 . S
H1587 C1596 0.929 . S
C1588 H1582 0.930 . S
C1588 C1589 1.367 . S
C1588 C1596 1.378 . S
C1589 C1588 1.367 . S
C1589 C1597 1.433 . S
C1590 H1586 0.929 . S
C1590 C1592 1.378 . S
C1590 C1594 1.350 . S
C1591 C1594 1.463 . S
C1591 C1596 1.350 . S
C1591 N1599 1.427 . S
C1592 H1583 0.930 . S
C1592 C1590 1.378 . S
C1592 C1593 1.367 . S
C1593 C1592 1.367 . S
C1593 C1595 1.433 . S
C1594 C1590 1.350 . S
C1594 C1591 1.463 . S
C1594 N1598 1.427 . S
C1595 H1585 0.929 . S
C1595 C1593 1.433 . S
C1595 N1598 1.384 . S
C1596 H1587 0.929 . S
C1596 C1588 1.378 . S
C1596 C1591 1.350 . S
C1597 H1584 0.929 . S
C1597 C1589 1.433 . S
C1597 N1599 1.384 . S
N1598 C1594 1.427 . S
N1598 C1595 1.384 . S
N1599 C1591 1.427 . S
N1599 C1597 1.384 . S
H1600 C1606 0.930 . S
H1601 C1610 0.930 . S
H1602 C1615 0.929 . S
H1603 C1613 0.929 . S
H1604 C1608 0.929 . S
H1605 C1614 0.929 . S
C1606 H1600 0.930 . S
C1606 C1607 1.367 . S
C1606 C1614 1.378 . S
C1607 C1606 1.367 . S
C1607 C1615 1.433 . S
C1608 H1604 0.929 . S
C1608 C1610 1.378 . S
C1608 C1612 1.350 . S
C1609 C1612 1.463 . S
C1609 C1614 1.350 . S
C1609 N1617 1.427 . S
C1610 H1601 0.930 . S
C1610 C1608 1.378 . S
C1610 C1611 1.367 . S
C1611 C1610 1.367 . S
C1611 C1613 1.433 . S
C1612 C1608 1.350 . S
C1612 C1609 1.463 . S
C1612 N1616 1.427 . S
C1613 H1603 0.929 . S
C1613 C1611 1.433 . S
C1613 N1616 1.384 . S
C1614 H1605 0.929 . S
C1614 C1606 1.378 . S
C1614 C1609 1.350 . S
C1615 H1602 0.929 . S
C1615 C1607 1.433 . S
C1615 N1617 1.384 . S
N1616 C1612 1.427 . S
N1616 C1613 1.384 . S
N1617 C1609 1.427 . S
N1617 C1615 1.384 . S
H1618 C1624 0.930 . S
H1619 C1628 0.930 . S
H1620 C1633 0.929 . S
H1621 C1631 0.929 . S
H1622 C1626 0.929 . S
H1623 C1632 0.929 . S
C1624 H1618 0.930 . S
C1624 C1625 1.367 . S
C1624 C1632 1.378 . S
C1625 C1624 1.367 . S
C1625 C1633 1.433 . S
C1626 H1622 0.929 . S
C1626 C1628 1.378 . S
C1626 C1630 1.350 . S
C1627 C1630 1.463 . S
C1627 C1632 1.350 . S
C1627 N1635 1.427 . S
C1628 H1619 0.930 . S
C1628 C1626 1.378 . S
C1628 C1629 1.367 . S
C1629 C1628 1.367 . S
C1629 C1631 1.433 . S
C1630 C1626 1.350 . S
C1630 C1627 1.463 . S
C1630 N1634 1.427 . S
C1631 H1621 0.929 . S
C1631 C1629 1.433 . S
C1631 N1634 1.384 . S
C1632 H1623 0.929 . S
C1632 C1624 1.378 . S
C1632 C1627 1.350 . S
C1633 H1620 0.929 . S
C1633 C1625 1.433 . S
C1633 N1635 1.384 . S
N1634 C1630 1.427 . S
N1634 C1631 1.384 . S
N1635 C1627 1.427 . S
N1635 C1633 1.384 . S
H1636 C1642 0.930 . S
H1637 C1646 0.930 . S
H1638 C1651 0.929 . S
H1639 C1649 0.929 . S
H1640 C1644 0.929 . S
H1641 C1650 0.929 . S
C1642 H1636 0.930 . S
C1642 C1643 1.367 . S
C1642 C1650 1.378 . S
C1643 C1642 1.367 . S
C1643 C1651 1.433 . S
C1644 H1640 0.929 . S
C1644 C1646 1.378 . S
C1644 C1648 1.350 . S
C1645 C1648 1.463 . S
C1645 C1650 1.350 . S
C1645 N1653 1.427 . S
C1646 H1637 0.930 . S
C1646 C1644 1.378 . S
C1646 C1647 1.367 . S
C1647 C1646 1.367 . S
C1647 C1649 1.433 . S
C1648 C1644 1.350 . S
C1648 C1645 1.463 . S
C1648 N1652 1.427 . S
C1649 H1639 0.929 . S
C1649 C1647 1.433 . S
C1649 N1652 1.384 . S
C1650 H1641 0.929 . S
C1650 C1642 1.378 . S
C1650 C1645 1.350 . S
C1651 H1638 0.929 . S
C1651 C1643 1.433 . S
C1651 N1653 1.384 . S
N1652 C1648 1.427 . S
N1652 C1649 1.384 . S
N1653 C1645 1.427 . S
N1653 C1651 1.384 . S
H1654 C1660 0.930 . S
H1655 C1664 0.930 . S
H1656 C1669 0.929 . S
H1657 C1667 0.929 . S
H1658 C1662 0.929 . S
H1659 C1668 0.929 . S
C1660 H1654 0.930 . S
C1660 C1661 1.367 . S
C1660 C1668 1.378 . S
C1661 C1660 1.367 . S
C1661 C1669 1.433 . S
C1662 H1658 0.929 . S
C1662 C1664 1.378 . S
C1662 C1666 1.350 . S
C1663 C1666 1.463 . S
C1663 C1668 1.350 . S
C1663 N1671 1.427 . S
C1664 H1655 0.930 . S
C1664 C1662 1.378 . S
C1664 C1665 1.367 . S
C1665 C1664 1.367 . S
C1665 C1667 1.433 . S
C1666 C1662 1.350 . S
C1666 C1663 1.463 . S
C1666 N1670 1.427 . S
C1667 H1657 0.929 . S
C1667 C1665 1.433 . S
C1667 N1670 1.384 . S
C1668 H1659 0.929 . S
C1668 C1660 1.378 . S
C1668 C1663 1.350 . S
C1669 H1656 0.929 . S
C1669 C1661 1.433 . S
C1669 N1671 1.384 . S
N1670 C1666 1.427 . S
N1670 C1667 1.384 . S
N1671 C1663 1.427 . S
N1671 C1669 1.384 . S
H1672 C1678 0.930 . S
H1673 C1682 0.930 . S
H1674 C1687 0.929 . S
H1675 C1685 0.929 . S
H1676 C1680 0.929 . S
H1677 C1686 0.929 . S
C1678 H1672 0.930 . S
C1678 C1679 1.367 . S
C1678 C1686 1.378 . S
C1679 C1678 1.367 . S
C1679 C1687 1.433 . S
C1680 H1676 0.929 . S
C1680 C1682 1.378 . S
C1680 C1684 1.350 1_556 S
C1681 C1684 1.463 . S
C1681 C1686 1.350 . S
C1681 N1689 1.427 . S
C1682 H1673 0.930 . S
C1682 C1680 1.378 . S
C1682 C1683 1.367 . S
C1683 C1682 1.367 . S
C1683 C1685 1.433 1_556 S
C1684 C1680 1.350 1_554 S
C1684 C1681 1.463 . S
C1684 N1688 1.427 . S
C1685 H1675 0.929 . S
C1685 C1683 1.433 1_554 S
C1685 N1688 1.384 . S
C1686 H1677 0.929 . S
C1686 C1678 1.378 . S
C1686 C1681 1.350 . S
C1687 H1674 0.929 . S
C1687 C1679 1.433 . S
C1687 N1689 1.384 . S
N1688 C1684 1.427 . S
N1688 C1685 1.384 . S
N1689 C1681 1.427 . S
N1689 C1687 1.384 . S
H1690 C1696 0.930 . S
H1691 C1700 0.930 . S
H1692 C1705 0.929 . S
H1693 C1703 0.929 . S
H1694 C1698 0.929 . S
H1695 C1704 0.929 . S
C1696 H1690 0.930 . S
C1696 C1697 1.367 . S
C1696 C1704 1.378 . S
C1697 C1696 1.367 . S
C1697 C1705 1.433 . S
C1698 H1694 0.929 . S
C1698 C1700 1.378 . S
C1698 C1702 1.350 . S
C1699 C1702 1.463 . S
C1699 C1704 1.350 . S
C1699 N1707 1.427 . S
C1700 H1691 0.930 . S
C1700 C1698 1.378 . S
C1700 C1701 1.367 . S
C1701 C1700 1.367 . S
C1701 C1703 1.433 . S
C1702 C1698 1.350 . S
C1702 C1699 1.463 . S
C1702 N1706 1.427 . S
C1703 H1693 0.929 . S
C1703 C1701 1.433 . S
C1703 N1706 1.384 . S
C1704 H1695 0.929 . S
C1704 C1696 1.378 . S
C1704 C1699 1.350 . S
C1705 H1692 0.929 . S
C1705 C1697 1.433 . S
C1705 N1707 1.384 . S
N1706 C1702 1.427 . S
N1706 C1703 1.384 . S
N1707 C1699 1.427 . S
N1707 C1705 1.384 . S
H1708 C1714 0.930 . S
H1709 C1718 0.930 . S
H1710 C1723 0.929 . S
H1711 C1721 0.929 . S
H1712 C1716 0.929 . S
H1713 C1722 0.929 . S
C1714 H1708 0.930 . S
C1714 C1715 1.367 . S
C1714 C1722 1.378 . S
C1715 C1714 1.367 . S
C1715 C1723 1.433 . S
C1716 H1712 0.929 . S
C1716 C1718 1.378 . S
C1716 C1720 1.350 . S
C1717 C1720 1.463 . S
C1717 C1722 1.350 . S
C1717 N1725 1.427 . S
C1718 H1709 0.930 . S
C1718 C1716 1.378 . S
C1718 C1719 1.367 . S
C1719 C1718 1.367 . S
C1719 C1721 1.433 . S
C1720 C1716 1.350 . S
C1720 C1717 1.463 . S
C1720 N1724 1.427 . S
C1721 H1711 0.929 . S
C1721 C1719 1.433 . S
C1721 N1724 1.384 . S
C1722 H1713 0.929 . S
C1722 C1714 1.378 . S
C1722 C1717 1.350 . S
C1723 H1710 0.929 . S
C1723 C1715 1.433 . S
C1723 N1725 1.384 . S
N1724 C1720 1.427 . S
N1724 C1721 1.384 . S
N1725 C1717 1.427 . S
N1725 C1723 1.384 . S
H1726 C1732 0.930 . S
H1727 C1736 0.930 . S
H1728 C1741 0.929 . S
H1729 C1739 0.929 . S
H1730 C1734 0.929 . S
H1731 C1740 0.929 . S
C1732 H1726 0.930 . S
C1732 C1733 1.367 . S
C1732 C1740 1.378 . S
C1733 C1732 1.367 . S
C1733 C1741 1.433 . S
C1734 H1730 0.929 . S
C1734 C1736 1.378 . S
C1734 C1738 1.350 . S
C1735 C1738 1.463 . S
C1735 C1740 1.350 . S
C1735 N1743 1.427 . S
C1736 H1727 0.930 . S
C1736 C1734 1.378 . S
C1736 C1737 1.367 . S
C1737 C1736 1.367 . S
C1737 C1739 1.433 . S
C1738 C1734 1.350 . S
C1738 C1735 1.463 . S
C1738 N1742 1.427 . S
C1739 H1729 0.929 . S
C1739 C1737 1.433 . S
C1739 N1742 1.384 . S
C1740 H1731 0.929 . S
C1740 C1732 1.378 . S
C1740 C1735 1.350 . S
C1741 H1728 0.929 . S
C1741 C1733 1.433 . S
C1741 N1743 1.384 . S
N1742 C1738 1.427 . S
N1742 C1739 1.384 . S
N1743 C1735 1.427 . S
N1743 C1741 1.384 . S
H1744 C1750 0.930 . S
H1745 C1754 0.930 . S
H1746 C1759 0.929 . S
H1747 C1757 0.929 . S
H1748 C1752 0.929 . S
H1749 C1758 0.929 . S
C1750 H1744 0.930 . S
C1750 C1751 1.367 . S
C1750 C1758 1.378 . S
C1751 C1750 1.367 . S
C1751 C1759 1.433 . S
C1752 H1748 0.929 . S
C1752 C1754 1.378 . S
C1752 C1756 1.350 . S
C1753 C1756 1.463 . S
C1753 C1758 1.350 . S
C1753 N1761 1.427 . S
C1754 H1745 0.930 . S
C1754 C1752 1.378 . S
C1754 C1755 1.367 . S
C1755 C1754 1.367 . S
C1755 C1757 1.433 . S
C1756 C1752 1.350 . S
C1756 C1753 1.463 . S
C1756 N1760 1.427 . S
C1757 H1747 0.929 . S
C1757 C1755 1.433 . S
C1757 N1760 1.384 . S
C1758 H1749 0.929 . S
C1758 C1750 1.378 . S
C1758 C1753 1.350 . S
C1759 H1746 0.929 . S
C1759 C1751 1.433 . S
C1759 N1761 1.384 . S
N1760 C1756 1.427 . S
N1760 C1757 1.384 . S
N1761 C1753 1.427 . S
N1761 C1759 1.384 . S
H1762 C1768 0.930 . S
H1763 C1772 0.930 . S
H1764 C1777 0.929 . S
H1765 C1775 0.929 . S
H1766 C1770 0.929 . S
H1767 C1776 0.929 . S
C1768 H1762 0.930 . S
C1768 C1769 1.367 . S
C1768 C1776 1.378 . S
C1769 C1768 1.367 . S
C1769 C1777 1.433 . S
C1770 H1766 0.929 . S
C1770 C1772 1.378 . S
C1770 C1774 1.350 . S
C1771 C1774 1.463 . S
C1771 C1776 1.350 . S
C1771 N1779 1.427 . S
C1772 H1763 0.930 . S
C1772 C1770 1.378 . S
C1772 C1773 1.367 . S
C1773 C1772 1.367 . S
C1773 C1775 1.433 . S
C1774 C1770 1.350 . S
C1774 C1771 1.463 . S
C1774 N1778 1.427 . S
C1775 H1765 0.929 . S
C1775 C1773 1.433 . S
C1775 N1778 1.384 . S
C1776 H1767 0.929 . S
C1776 C1768 1.378 . S
C1776 C1771 1.350 . S
C1777 H1764 0.929 . S
C1777 C1769 1.433 . S
C1777 N1779 1.384 . S
N1778 C1774 1.427 . S
N1778 C1775 1.384 . S
N1779 C1771 1.427 . S
N1779 C1777 1.384 . S
H1780 C1786 0.930 . S
H1781 C1790 0.930 . S
H1782 C1795 0.929 . S
H1783 C1793 0.929 . S
H1784 C1788 0.929 . S
H1785 C1794 0.929 . S
C1786 H1780 0.930 . S
C1786 C1787 1.367 . S
C1786 C1794 1.378 . S
C1787 C1786 1.367 . S
C1787 C1795 1.433 . S
C1788 H1784 0.929 . S
C1788 C1790 1.378 . S
C1788 C1792 1.350 . S
C1789 C1792 1.463 . S
C1789 C1794 1.350 . S
C1789 N1797 1.427 . S
C1790 H1781 0.930 . S
C1790 C1788 1.378 . S
C1790 C1791 1.367 . S
C1791 C1790 1.367 . S
C1791 C1793 1.433 . S
C1792 C1788 1.350 . S
C1792 C1789 1.463 . S
C1792 N1796 1.427 . S
C1793 H1783 0.929 . S
C1793 C1791 1.433 . S
C1793 N1796 1.384 . S
C1794 H1785 0.929 . S
C1794 C1786 1.378 . S
C1794 C1789 1.350 . S
C1795 H1782 0.929 . S
C1795 C1787 1.433 . S
C1795 N1797 1.384 . S
N1796 C1792 1.427 . S
N1796 C1793 1.384 . S
N1797 C1789 1.427 . S
N1797 C1795 1.384 . S
H1798 C1804 0.930 . S
H1799 C1808 0.930 . S
H1800 C1813 0.929 . S
H1801 C1811 0.929 . S
H1802 C1806 0.929 . S
H1803 C1812 0.929 . S
C1804 H1798 0.930 . S
C1804 C1805 1.367 . S
C1804 C1812 1.378 . S
C1805 C1804 1.367 . S
C1805 C1813 1.433 . S
C1806 H1802 0.929 . S
C1806 C1808 1.378 . S
C1806 C1810 1.350 . S
C1807 C1810 1.463 . S
C1807 C1812 1.350 . S
C1807 N1815 1.427 . S
C1808 H1799 0.930 . S
C1808 C1806 1.378 . S
C1808 C1809 1.367 . S
C1809 C1808 1.367 . S
C1809 C1811 1.433 . S
C1810 C1806 1.350 . S
C1810 C1807 1.463 . S
C1810 N1814 1.427 . S
C1811 H1801 0.929 . S
C1811 C1809 1.433 . S
C1811 N1814 1.384 . S
C1812 H1803 0.929 . S
C1812 C1804 1.378 . S
C1812 C1807 1.350 . S
C1813 H1800 0.929 . S
C1813 C1805 1.433 . S
C1813 N1815 1.384 . S
N1814 C1810 1.427 . S
N1814 C1811 1.384 . S
N1815 C1807 1.427 . S
N1815 C1813 1.384 . S
H1816 C1822 0.930 . S
H1817 C1826 0.930 . S
H1818 C1831 0.929 . S
H1819 C1829 0.929 . S
H1820 C1824 0.929 . S
H1821 C1830 0.929 . S
C1822 H1816 0.930 . S
C1822 C1823 1.367 . S
C1822 C1830 1.378 . S
C1823 C1822 1.367 . S
C1823 C1831 1.433 . S
C1824 H1820 0.929 . S
C1824 C1826 1.378 . S
C1824 C1828 1.350 . S
C1825 C1828 1.463 . S
C1825 C1830 1.350 . S
C1825 N1833 1.427 . S
C1826 H1817 0.930 . S
C1826 C1824 1.378 . S
C1826 C1827 1.367 . S
C1827 C1826 1.367 . S
C1827 C1829 1.433 . S
C1828 C1824 1.350 . S
C1828 C1825 1.463 . S
C1828 N1832 1.427 . S
C1829 H1819 0.929 . S
C1829 C1827 1.433 . S
C1829 N1832 1.384 . S
C1830 H1821 0.929 . S
C1830 C1822 1.378 . S
C1830 C1825 1.350 . S
C1831 H1818 0.929 . S
C1831 C1823 1.433 . S
C1831 N1833 1.384 . S
N1832 C1828 1.427 . S
N1832 C1829 1.384 . S
N1833 C1825 1.427 . S
N1833 C1831 1.384 . S
H1834 C1840 0.930 . S
H1835 C1844 0.930 . S
H1836 C1849 0.929 . S
H1837 C1847 0.929 . S
H1838 C1842 0.929 . S
H1839 C1848 0.929 . S
C1840 H1834 0.930 . S
C1840 C1841 1.367 . S
C1840 C1848 1.378 . S
C1841 C1840 1.367 . S
C1841 C1849 1.433 . S
C1842 H1838 0.929 . S
C1842 C1844 1.378 . S
C1842 C1846 1.350 . S
C1843 C1846 1.463 . S
C1843 C1848 1.350 . S
C1843 N1851 1.427 . S
C1844 H1835 0.930 . S
C1844 C1842 1.378 . S
C1844 C1845 1.367 . S
C1845 C1844 1.367 . S
C1845 C1847 1.433 . S
C1846 C1842 1.350 . S
C1846 C1843 1.463 . S
C1846 N1850 1.427 . S
C1847 H1837 0.929 . S
C1847 C1845 1.433 . S
C1847 N1850 1.384 . S
C1848 H1839 0.929 . S
C1848 C1840 1.378 . S
C1848 C1843 1.350 . S
C1849 H1836 0.929 . S
C1849 C1841 1.433 . S
C1849 N1851 1.384 . S
N1850 C1846 1.427 . S
N1850 C1847 1.384 . S
N1851 C1843 1.427 . S
N1851 C1849 1.384 . S
H1852 C1858 0.930 . S
H1853 C1862 0.930 . S
H1854 C1867 0.929 1_554 S
H1855 C1865 0.929 . S
H1856 C1860 0.929 . S
H1857 C1866 0.929 . S
C1858 H1852 0.930 . S
C1858 C1859 1.367 . S
C1858 C1866 1.378 . S
C1859 C1858 1.367 . S
C1859 C1867 1.433 . S
C1860 H1856 0.929 . S
C1860 C1862 1.378 . S
C1860 C1864 1.350 1_554 S
C1861 C1864 1.463 . S
C1861 C1866 1.350 . S
C1861 N1869 1.427 1_556 S
C1862 H1853 0.930 . S
C1862 C1860 1.378 . S
C1862 C1863 1.367 . S
C1863 C1862 1.367 . S
C1863 C1865 1.433 1_554 S
C1864 C1860 1.350 1_556 S
C1864 C1861 1.463 . S
C1864 N1868 1.427 . S
C1865 H1855 0.929 . S
C1865 C1863 1.433 1_556 S
C1865 N1868 1.384 . S
C1866 H1857 0.929 . S
C1866 C1858 1.378 . S
C1866 C1861 1.350 . S
C1867 H1854 0.929 1_556 S
C1867 C1859 1.433 . S
C1867 N1869 1.384 1_556 S
N1868 C1864 1.427 . S
N1868 C1865 1.384 . S
N1869 C1861 1.427 1_554 S
N1869 C1867 1.384 1_554 S
H1870 C1876 0.930 . S
H1871 C1880 0.930 . S
H1872 C1885 0.929 . S
H1873 C1883 0.929 . S
H1874 C1878 0.929 . S
H1875 C1884 0.933 . S
C1876 H1870 0.930 . S
C1876 C1877 1.367 . S
C1876 C1884 1.341 1_455 S
C1877 C1876 1.367 . S
C1877 C1885 1.433 . S
C1878 H1874 0.929 . S
C1878 C1880 1.378 . S
C1878 C1882 1.350 . S
C1879 C1882 1.463 . S
C1879 C1884 1.384 . S
C1879 N1887 1.427 . S
C1880 H1871 0.930 . S
C1880 C1878 1.378 . S
C1880 C1881 1.367 . S
C1881 C1880 1.367 . S
C1881 C1883 1.433 . S
C1882 C1878 1.350 . S
C1882 C1879 1.463 . S
C1882 N1886 1.427 . S
C1883 H1873 0.929 . S
C1883 C1881 1.433 . S
C1883 N1886 1.384 . S
C1884 H1875 0.933 . S
C1884 C1876 1.341 1_655 S
C1884 C1879 1.384 . S
C1885 H1872 0.929 . S
C1885 C1877 1.433 . S
C1885 N1887 1.384 1_455 S
N1886 C1882 1.427 . S
N1886 C1883 1.384 . S
N1887 C1879 1.427 . S
N1887 C1885 1.384 1_655 S
H1888 C1894 0.930 . S
H1889 C1898 0.930 . S
H1890 C1903 0.929 . S
H1891 C1901 0.929 . S
H1892 C1896 0.929 . S
H1893 C1902 0.929 . S
C1894 H1888 0.930 . S
C1894 C1895 1.367 . S
C1894 C1902 1.378 . S
C1895 C1894 1.367 . S
C1895 C1903 1.433 . S
C1896 H1892 0.929 . S
C1896 C1898 1.378 . S
C1896 C1900 1.350 . S
C1897 C1900 1.463 . S
C1897 C1902 1.350 . S
C1897 N1905 1.427 . S
C1898 H1889 0.930 . S
C1898 C1896 1.378 . S
C1898 C1899 1.367 . S
C1899 C1898 1.367 . S
C1899 C1901 1.433 . S
C1900 C1896 1.350 . S
C1900 C1897 1.463 . S
C1900 N1904 1.427 . S
C1901 H1891 0.929 . S
C1901 C1899 1.433 . S
C1901 N1904 1.384 . S
C1902 H1893 0.929 . S
C1902 C1894 1.378 . S
C1902 C1897 1.350 . S
C1903 H1890 0.929 . S
C1903 C1895 1.433 . S
C1903 N1905 1.384 . S
N1904 C1900 1.427 . S
N1904 C1901 1.384 . S
N1905 C1897 1.427 . S
N1905 C1903 1.384 . S
H1906 C1912 0.930 . S
H1907 C1916 0.930 . S
H1908 C1921 0.929 . S
H1909 C1919 0.929 . S
H1910 C1914 0.929 . S
H1911 C1920 0.929 . S
C1912 H1906 0.930 . S
C1912 C1913 1.367 . S
C1912 C1920 1.378 . S
C1913 C1912 1.367 . S
C1913 C1921 1.433 . S
C1914 H1910 0.929 . S
C1914 C1916 1.378 . S
C1914 C1918 1.350 . S
C1915 C1918 1.463 . S
C1915 C1920 1.350 . S
C1915 N1923 1.427 . S
C1916 H1907 0.930 . S
C1916 C1914 1.378 . S
C1916 C1917 1.367 . S
C1917 C1916 1.367 . S
C1917 C1919 1.433 . S
C1918 C1914 1.350 . S
C1918 C1915 1.463 . S
C1918 N1922 1.427 . S
C1919 H1909 0.929 . S
C1919 C1917 1.433 . S
C1919 N1922 1.384 . S
C1920 H1911 0.929 . S
C1920 C1912 1.378 . S
C1920 C1915 1.350 . S
C1921 H1908 0.929 . S
C1921 C1913 1.433 . S
C1921 N1923 1.384 . S
N1922 C1918 1.427 . S
N1922 C1919 1.384 . S
N1923 C1915 1.427 . S
N1923 C1921 1.384 . S
H1924 C1930 0.930 . S
H1925 C1934 0.930 . S
H1926 C1939 0.929 . S
H1927 C1937 0.929 . S
H1928 C1932 0.929 . S
H1929 C1938 0.929 . S
C1930 H1924 0.930 . S
C1930 C1931 1.367 . S
C1930 C1938 1.378 . S
C1931 C1930 1.367 . S
C1931 C1939 1.433 . S
C1932 H1928 0.929 . S
C1932 C1934 1.378 . S
C1932 C1936 1.350 . S
C1933 C1936 1.463 . S
C1933 C1938 1.350 . S
C1933 N1941 1.427 . S
C1934 H1925 0.930 . S
C1934 C1932 1.378 . S
C1934 C1935 1.367 . S
C1935 C1934 1.367 . S
C1935 C1937 1.433 . S
C1936 C1932 1.350 . S
C1936 C1933 1.463 . S
C1936 N1940 1.427 . S
C1937 H1927 0.929 . S
C1937 C1935 1.433 . S
C1937 N1940 1.384 . S
C1938 H1929 0.929 . S
C1938 C1930 1.378 . S
C1938 C1933 1.350 . S
C1939 H1926 0.929 . S
C1939 C1931 1.433 . S
C1939 N1941 1.384 . S
N1940 C1936 1.427 . S
N1940 C1937 1.384 . S
N1941 C1933 1.427 . S
N1941 C1939 1.384 . S
H1942 C1948 0.930 . S
H1943 C1952 0.930 . S
H1944 C1957 0.929 . S
H1945 C1955 0.929 . S
H1946 C1950 0.929 . S
H1947 C1956 0.929 . S
C1948 H1942 0.930 . S
C1948 C1949 1.367 . S
C1948 C1956 1.378 . S
C1949 C1948 1.367 . S
C1949 C1957 1.433 . S
C1950 H1946 0.929 . S
C1950 C1952 1.378 . S
C1950 C1954 1.350 . S
C1951 C1954 1.463 . S
C1951 C1956 1.350 . S
C1951 N1959 1.427 . S
C1952 H1943 0.930 . S
C1952 C1950 1.378 . S
C1952 C1953 1.367 . S
C1953 C1952 1.367 . S
C1953 C1955 1.433 . S
C1954 C1950 1.350 . S
C1954 C1951 1.463 . S
C1954 N1958 1.427 . S
C1955 H1945 0.929 . S
C1955 C1953 1.433 . S
C1955 N1958 1.384 . S
C1956 H1947 0.929 . S
C1956 C1948 1.378 . S
C1956 C1951 1.350 . S
C1957 H1944 0.929 . S
C1957 C1949 1.433 . S
C1957 N1959 1.384 . S
N1958 C1954 1.427 . S
N1958 C1955 1.384 . S
N1959 C1951 1.427 . S
N1959 C1957 1.384 . S
H1960 C1966 0.930 . S
H1961 C1970 0.930 . S
H1962 C1975 0.929 . S
H1963 C1973 0.929 . S
H1964 C1968 0.929 . S
H1965 C1974 0.929 . S
C1966 H1960 0.930 . S
C1966 C1967 1.367 . S
C1966 C1974 1.378 . S
C1967 C1966 1.367 . S
C1967 C1975 1.433 . S
C1968 H1964 0.929 . S
C1968 C1970 1.378 . S
C1968 C1972 1.350 . S
C1969 C1972 1.463 . S
C1969 C1974 1.350 . S
C1969 N1977 1.427 . S
C1970 H1961 0.930 . S
C1970 C1968 1.378 . S
C1970 C1971 1.367 . S
C1971 C1970 1.367 . S
C1971 C1973 1.433 . S
C1972 C1968 1.350 . S
C1972 C1969 1.463 . S
C1972 N1976 1.427 . S
C1973 H1963 0.929 . S
C1973 C1971 1.433 . S
C1973 N1976 1.384 . S
C1974 H1965 0.929 . S
C1974 C1966 1.378 . S
C1974 C1969 1.350 . S
C1975 H1962 0.929 . S
C1975 C1967 1.433 . S
C1975 N1977 1.384 . S
N1976 C1972 1.427 . S
N1976 C1973 1.384 . S
N1977 C1969 1.427 . S
N1977 C1975 1.384 . S
H1978 C1984 0.930 . S
H1979 C1988 0.930 . S
H1980 C1993 0.929 . S
H1981 C1991 0.929 . S
H1982 C1986 0.929 . S
H1983 C1992 0.929 . S
C1984 H1978 0.930 . S
C1984 C1985 1.367 . S
C1984 C1992 1.378 1_554 S
C1985 C1984 1.367 . S
C1985 C1993 1.433 . S
C1986 H1982 0.929 . S
C1986 C1988 1.378 . S
C1986 C1990 1.350 . S
C1987 C1990 1.463 . S
C1987 C1992 1.350 . S
C1987 N1995 1.427 . S
C1988 H1979 0.930 . S
C1988 C1986 1.378 . S
C1988 C1989 1.367 . S
C1989 C1988 1.367 . S
C1989 C1991 1.433 . S
C1990 C1986 1.350 . S
C1990 C1987 1.463 . S
C1990 N1994 1.427 . S
C1991 H1981 0.929 . S
C1991 C1989 1.433 . S
C1991 N1994 1.384 . S
C1992 H1983 0.929 . S
C1992 C1984 1.378 1_556 S
C1992 C1987 1.350 . S
C1993 H1980 0.929 . S
C1993 C1985 1.433 . S
C1993 N1995 1.384 1_554 S
N1994 C1990 1.427 . S
N1994 C1991 1.384 . S
N1995 C1987 1.427 . S
N1995 C1993 1.384 1_556 S
H1996 C2002 0.930 . S
H1997 C2006 0.930 . S
H1998 C2011 0.929 . S
H1999 C2009 0.929 . S
H2000 C2004 0.929 . S
H2001 C2010 0.929 . S
C2002 H1996 0.930 . S
C2002 C2003 1.367 . S
C2002 C2010 1.378 . S
C2003 C2002 1.367 . S
C2003 C2011 1.433 . S
C2004 H2000 0.929 . S
C2004 C2006 1.378 . S
C2004 C2008 1.350 . S
C2005 C2008 1.463 . S
C2005 C2010 1.350 . S
C2005 N2013 1.427 . S
C2006 H1997 0.930 . S
C2006 C2004 1.378 . S
C2006 C2007 1.367 . S
C2007 C2006 1.367 . S
C2007 C2009 1.433 . S
C2008 C2004 1.350 . S
C2008 C2005 1.463 . S
C2008 N2012 1.427 . S
C2009 H1999 0.929 . S
C2009 C2007 1.433 . S
C2009 N2012 1.384 . S
C2010 H2001 0.929 . S
C2010 C2002 1.378 . S
C2010 C2005 1.350 . S
C2011 H1998 0.929 . S
C2011 C2003 1.433 . S
C2011 N2013 1.384 . S
N2012 C2008 1.427 . S
N2012 C2009 1.384 . S
N2013 C2005 1.427 . S
N2013 C2011 1.384 . S
H2014 C2020 0.930 . S
H2015 C2024 0.930 . S
H2016 C2029 0.929 . S
H2017 C2027 0.929 . S
H2018 C2022 0.929 . S
H2019 C2028 0.929 . S
C2020 H2014 0.930 . S
C2020 C2021 1.367 . S
C2020 C2028 1.378 . S
C2021 C2020 1.367 . S
C2021 C2029 1.433 . S
C2022 H2018 0.929 . S
C2022 C2024 1.378 . S
C2022 C2026 1.350 . S
C2023 C2026 1.463 . S
C2023 C2028 1.350 . S
C2023 N2031 1.427 . S
C2024 H2015 0.930 . S
C2024 C2022 1.378 . S
C2024 C2025 1.367 . S
C2025 C2024 1.367 . S
C2025 C2027 1.433 . S
C2026 C2022 1.350 . S
C2026 C2023 1.463 . S
C2026 N2030 1.427 . S
C2027 H2017 0.929 . S
C2027 C2025 1.433 . S
C2027 N2030 1.384 . S
C2028 H2019 0.929 . S
C2028 C2020 1.378 . S
C2028 C2023 1.350 . S
C2029 H2016 0.929 . S
C2029 C2021 1.433 . S
C2029 N2031 1.384 . S
N2030 C2026 1.427 . S
N2030 C2027 1.384 . S
N2031 C2023 1.427 . S
N2031 C2029 1.384 . S
H2032 C2038 0.930 . S
H2033 C2042 0.930 . S
H2034 C2047 0.929 . S
H2035 C2045 0.929 . S
H2036 C2040 0.929 . S
H2037 C2046 0.929 . S
C2038 H2032 0.930 . S
C2038 C2039 1.367 . S
C2038 C2046 1.378 . S
C2039 C2038 1.367 . S
C2039 C2047 1.433 . S
C2040 H2036 0.929 . S
C2040 C2042 1.378 . S
C2040 C2044 1.350 . S
C2041 C2044 1.463 . S
C2041 C2046 1.350 . S
C2041 N2049 1.427 . S
C2042 H2033 0.930 . S
C2042 C2040 1.378 . S
C2042 C2043 1.367 . S
C2043 C2042 1.367 . S
C2043 C2045 1.433 . S
C2044 C2040 1.350 . S
C2044 C2041 1.463 . S
C2044 N2048 1.427 . S
C2045 H2035 0.929 . S
C2045 C2043 1.433 . S
C2045 N2048 1.384 . S
C2046 H2037 0.929 . S
C2046 C2038 1.378 . S
C2046 C2041 1.350 . S
C2047 H2034 0.929 . S
C2047 C2039 1.433 . S
C2047 N2049 1.384 . S
N2048 C2044 1.427 . S
N2048 C2045 1.384 . S
N2049 C2041 1.427 . S
N2049 C2047 1.384 . S
H2050 C2056 0.930 . S
H2051 C2060 0.930 . S
H2052 C2065 0.929 . S
H2053 C2063 0.929 . S
H2054 C2058 0.929 . S
H2055 C2064 0.929 . S
C2056 H2050 0.930 . S
C2056 C2057 1.367 . S
C2056 C2064 1.378 . S
C2057 C2056 1.367 . S
C2057 C2065 1.433 . S
C2058 H2054 0.929 . S
C2058 C2060 1.378 . S
C2058 C2062 1.350 . S
C2059 C2062 1.463 . S
C2059 C2064 1.350 . S
C2059 N2067 1.427 . S
C2060 H2051 0.930 . S
C2060 C2058 1.378 . S
C2060 C2061 1.367 . S
C2061 C2060 1.367 . S
C2061 C2063 1.433 . S
C2062 C2058 1.350 . S
C2062 C2059 1.463 . S
C2062 N2066 1.427 . S
C2063 H2053 0.929 . S
C2063 C2061 1.433 . S
C2063 N2066 1.384 . S
C2064 H2055 0.929 . S
C2064 C2056 1.378 . S
C2064 C2059 1.350 . S
C2065 H2052 0.929 . S
C2065 C2057 1.433 . S
C2065 N2067 1.384 . S
N2066 C2062 1.427 . S
N2066 C2063 1.384 . S
N2067 C2059 1.427 . S
N2067 C2065 1.384 . S
H2068 C2074 0.930 . S
H2069 C2078 0.930 . S
H2070 C2083 0.929 . S
H2071 C2081 0.929 . S
H2072 C2076 0.929 . S
H2073 C2082 0.929 . S
C2074 H2068 0.930 . S
C2074 C2075 1.367 . S
C2074 C2082 1.378 . S
C2075 C2074 1.367 . S
C2075 C2083 1.433 . S
C2076 H2072 0.929 . S
C2076 C2078 1.378 . S
C2076 C2080 1.350 . S
C2077 C2080 1.463 . S
C2077 C2082 1.350 . S
C2077 N2085 1.427 . S
C2078 H2069 0.930 . S
C2078 C2076 1.378 . S
C2078 C2079 1.367 . S
C2079 C2078 1.367 . S
C2079 C2081 1.433 . S
C2080 C2076 1.350 . S
C2080 C2077 1.463 . S
C2080 N2084 1.427 . S
C2081 H2071 0.929 . S
C2081 C2079 1.433 . S
C2081 N2084 1.384 . S
C2082 H2073 0.929 . S
C2082 C2074 1.378 . S
C2082 C2077 1.350 . S
C2083 H2070 0.929 . S
C2083 C2075 1.433 . S
C2083 N2085 1.384 . S
N2084 C2080 1.427 . S
N2084 C2081 1.384 . S
N2085 C2077 1.427 . S
N2085 C2083 1.384 . S
H2086 C2092 0.930 . S
H2087 C2096 0.930 . S
H2088 C2101 0.929 . S
H2089 C2099 0.929 . S
H2090 C2094 0.929 . S
H2091 C2100 0.929 . S
C2092 H2086 0.930 . S
C2092 C2093 1.367 . S
C2092 C2100 1.378 . S
C2093 C2092 1.367 . S
C2093 C2101 1.433 . S
C2094 H2090 0.929 . S
C2094 C2096 1.378 . S
C2094 C2098 1.350 . S
C2095 C2098 1.463 . S
C2095 C2100 1.350 . S
C2095 N2103 1.427 . S
C2096 H2087 0.930 . S
C2096 C2094 1.378 . S
C2096 C2097 1.367 . S
C2097 C2096 1.367 . S
C2097 C2099 1.433 . S
C2098 C2094 1.350 . S
C2098 C2095 1.463 . S
C2098 N2102 1.427 . S
C2099 H2089 0.929 . S
C2099 C2097 1.433 . S
C2099 N2102 1.384 . S
C2100 H2091 0.929 . S
C2100 C2092 1.378 . S
C2100 C2095 1.350 . S
C2101 H2088 0.929 . S
C2101 C2093 1.433 . S
C2101 N2103 1.384 . S
N2102 C2098 1.427 . S
N2102 C2099 1.384 . S
N2103 C2095 1.427 . S
N2103 C2101 1.384 . S
H2104 C2110 0.930 . S
H2105 C2114 0.930 . S
H2106 C2119 0.929 . S
H2107 C2117 0.929 . S
H2108 C2112 0.929 . S
H2109 C2118 0.929 . S
C2110 H2104 0.930 . S
C2110 C2111 1.367 . S
C2110 C2118 1.378 . S
C2111 C2110 1.367 . S
C2111 C2119 1.433 . S
C2112 H2108 0.929 . S
C2112 C2114 1.378 . S
C2112 C2116 1.350 . S
C2113 C2116 1.463 . S
C2113 C2118 1.350 . S
C2113 N2121 1.427 . S
C2114 H2105 0.930 . S
C2114 C2112 1.378 . S
C2114 C2115 1.367 . S
C2115 C2114 1.367 . S
C2115 C2117 1.433 . S
C2116 C2112 1.350 . S
C2116 C2113 1.463 . S
C2116 N2120 1.427 . S
C2117 H2107 0.929 . S
C2117 C2115 1.433 . S
C2117 N2120 1.384 . S
C2118 H2109 0.929 . S
C2118 C2110 1.378 . S
C2118 C2113 1.350 . S
C2119 H2106 0.929 . S
C2119 C2111 1.433 . S
C2119 N2121 1.384 . S
N2120 C2116 1.427 . S
N2120 C2117 1.384 . S
N2121 C2113 1.427 . S
N2121 C2119 1.384 . S
H2122 C2128 0.930 . S
H2123 C2132 0.930 . S
H2124 C2137 0.929 . S
H2125 C2135 0.929 . S
H2126 C2130 0.929 . S
H2127 C2136 0.929 . S
C2128 H2122 0.930 . S
C2128 C2129 1.367 . S
C2128 C2136 1.378 . S
C2129 C2128 1.367 . S
C2129 C2137 1.433 . S
C2130 H2126 0.929 . S
C2130 C2132 1.378 . S
C2130 C2134 1.350 . S
C2131 C2134 1.463 . S
C2131 C2136 1.350 . S
C2131 N2139 1.427 . S
C2132 H2123 0.930 . S
C2132 C2130 1.378 . S
C2132 C2133 1.367 . S
C2133 C2132 1.367 . S
C2133 C2135 1.433 . S
C2134 C2130 1.350 . S
C2134 C2131 1.463 . S
C2134 N2138 1.427 . S
C2135 H2125 0.929 . S
C2135 C2133 1.433 . S
C2135 N2138 1.384 . S
C2136 H2127 0.929 . S
C2136 C2128 1.378 . S
C2136 C2131 1.350 . S
C2137 H2124 0.929 . S
C2137 C2129 1.433 . S
C2137 N2139 1.384 . S
N2138 C2134 1.427 . S
N2138 C2135 1.384 . S
N2139 C2131 1.427 . S
N2139 C2137 1.384 . S
H2140 C2146 0.930 . S
H2141 C2150 0.930 . S
H2142 C2155 0.929 . S
H2143 C2153 0.929 . S
H2144 C2148 0.929 . S
H2145 C2154 0.929 . S
C2146 H2140 0.930 . S
C2146 C2147 1.367 1_565 S
C2146 C2154 1.378 . S
C2147 C2146 1.367 1_545 S
C2147 C2155 1.433 . S
C2148 H2144 0.929 . S
C2148 C2150 1.378 . S
C2148 C2152 1.350 . S
C2149 C2152 1.463 . S
C2149 C2154 1.350 . S
C2149 N2157 1.427 . S
C2150 H2141 0.930 . S
C2150 C2148 1.378 . S
C2150 C2151 1.367 . S
C2151 C2150 1.367 . S
C2151 C2153 1.433 . S
C2152 C2148 1.350 . S
C2152 C2149 1.463 . S
C2152 N2156 1.427 . S
C2153 H2143 0.929 . S
C2153 C2151 1.433 . S
C2153 N2156 1.384 . S
C2154 H2145 0.929 . S
C2154 C2146 1.378 . S
C2154 C2149 1.350 . S
C2155 H2142 0.929 . S
C2155 C2147 1.433 . S
C2155 N2157 1.384 1_545 S
N2156 C2152 1.427 . S
N2156 C2153 1.384 . S
N2157 C2149 1.427 . S
N2157 C2155 1.384 1_565 S
H2158 C2164 0.930 1_545 S
H2159 C2168 0.930 . S
H2160 C2173 0.929 . S
H2161 C2171 0.929 . S
H2162 C2166 0.929 . S
H2163 C2172 0.929 . S
C2164 H2158 0.930 1_565 S
C2164 C2165 1.367 . S
C2164 C2172 1.378 1_565 S
C2165 C2164 1.367 . S
C2165 C2173 1.433 . S
C2166 H2162 0.929 . S
C2166 C2168 1.378 . S
C2166 C2170 1.350 . S
C2167 C2170 1.463 . S
C2167 C2172 1.350 1_565 S
C2167 N2175 1.427 . S
C2168 H2159 0.930 . S
C2168 C2166 1.378 . S
C2168 C2169 1.367 1_565 S
C2169 C2168 1.367 1_545 S
C2169 C2171 1.433 . S
C2170 C2166 1.350 . S
C2170 C2167 1.463 . S
C2170 N2174 1.427 1_565 S
C2171 H2161 0.929 . S
C2171 C2169 1.433 . S
C2171 N2174 1.384 . S
C2172 H2163 0.929 . S
C2172 C2164 1.378 1_545 S
C2172 C2167 1.350 1_545 S
C2173 H2160 0.929 . S
C2173 C2165 1.433 . S
C2173 N2175 1.384 . S
N2174 C2170 1.427 1_545 S
N2174 C2171 1.384 . S
N2175 C2167 1.427 . S
N2175 C2173 1.384 . S
H2176 C2182 0.930 . S
H2177 C2186 0.930 . S
H2178 C2191 0.929 . S
H2179 C2189 0.929 . S
H2180 C2184 0.929 . S
H2181 C2190 0.929 . S
C2182 H2176 0.930 . S
C2182 C2183 1.367 . S
C2182 C2190 1.378 . S
C2183 C2182 1.367 . S
C2183 C2191 1.433 . S
C2184 H2180 0.929 . S
C2184 C2186 1.378 . S
C2184 C2188 1.350 . S
C2185 C2188 1.463 . S
C2185 C2190 1.350 . S
C2185 N2193 1.427 . S
C2186 H2177 0.930 . S
C2186 C2184 1.378 . S
C2186 C2187 1.367 . S
C2187 C2186 1.367 . S
C2187 C2189 1.433 . S
C2188 C2184 1.350 . S
C2188 C2185 1.463 . S
C2188 N2192 1.427 . S
C2189 H2179 0.929 . S
C2189 C2187 1.433 . S
C2189 N2192 1.384 . S
C2190 H2181 0.929 . S
C2190 C2182 1.378 . S
C2190 C2185 1.350 . S
C2191 H2178 0.929 . S
C2191 C2183 1.433 . S
C2191 N2193 1.384 . S
N2192 C2188 1.427 . S
N2192 C2189 1.384 . S
N2193 C2185 1.427 . S
N2193 C2191 1.384 . S
H2194 C2200 0.930 . S
H2195 C2204 0.930 . S
H2196 C2209 0.929 . S
H2197 C2207 0.929 . S
H2198 C2202 0.929 . S
H2199 C2208 0.929 . S
C2200 H2194 0.930 . S
C2200 C2201 1.367 . S
C2200 C2208 1.378 . S
C2201 C2200 1.367 . S
C2201 C2209 1.433 . S
C2202 H2198 0.929 . S
C2202 C2204 1.378 . S
C2202 C2206 1.350 . S
C2203 C2206 1.463 . S
C2203 C2208 1.350 . S
C2203 N2211 1.427 . S
C2204 H2195 0.930 . S
C2204 C2202 1.378 . S
C2204 C2205 1.367 . S
C2205 C2204 1.367 . S
C2205 C2207 1.433 . S
C2206 C2202 1.350 . S
C2206 C2203 1.463 . S
C2206 N2210 1.427 . S
C2207 H2197 0.929 . S
C2207 C2205 1.433 . S
C2207 N2210 1.384 . S
C2208 H2199 0.929 . S
C2208 C2200 1.378 . S
C2208 C2203 1.350 . S
C2209 H2196 0.929 . S
C2209 C2201 1.433 . S
C2209 N2211 1.384 . S
N2210 C2206 1.427 . S
N2210 C2207 1.384 . S
N2211 C2203 1.427 . S
N2211 C2209 1.384 . S
H2212 C2218 0.930 . S
H2213 C2222 0.930 . S
H2214 C2227 0.929 . S
H2215 C2225 0.929 . S
H2216 C2220 0.929 . S
H2217 C2226 0.929 . S
C2218 H2212 0.930 . S
C2218 C2219 1.367 . S
C2218 C2226 1.378 . S
C2219 C2218 1.367 . S
C2219 C2227 1.433 . S
C2220 H2216 0.929 . S
C2220 C2222 1.378 . S
C2220 C2224 1.350 . S
C2221 C2224 1.463 . S
C2221 C2226 1.350 . S
C2221 N2229 1.427 . S
C2222 H2213 0.930 . S
C2222 C2220 1.378 . S
C2222 C2223 1.367 . S
C2223 C2222 1.367 . S
C2223 C2225 1.433 . S
C2224 C2220 1.350 . S
C2224 C2221 1.463 . S
C2224 N2228 1.427 . S
C2225 H2215 0.929 . S
C2225 C2223 1.433 . S
C2225 N2228 1.384 . S
C2226 H2217 0.929 . S
C2226 C2218 1.378 . S
C2226 C2221 1.350 . S
C2227 H2214 0.929 . S
C2227 C2219 1.433 . S
C2227 N2229 1.384 . S
N2228 C2224 1.427 . S
N2228 C2225 1.384 . S
N2229 C2221 1.427 . S
N2229 C2227 1.384 . S
H2230 C2236 0.930 . S
H2231 C2240 0.930 . S
H2232 C2245 0.929 . S
H2233 C2243 0.929 . S
H2234 C2238 0.929 . S
H2235 C2244 0.929 . S
C2236 H2230 0.930 . S
C2236 C2237 1.367 . S
C2236 C2244 1.378 . S
C2237 C2236 1.367 . S
C2237 C2245 1.433 . S
C2238 H2234 0.929 . S
C2238 C2240 1.378 . S
C2238 C2242 1.350 . S
C2239 C2242 1.463 . S
C2239 C2244 1.350 . S
C2239 N2247 1.427 . S
C2240 H2231 0.930 . S
C2240 C2238 1.378 . S
C2240 C2241 1.367 . S
C2241 C2240 1.367 . S
C2241 C2243 1.433 . S
C2242 C2238 1.350 . S
C2242 C2239 1.463 . S
C2242 N2246 1.427 . S
C2243 H2233 0.929 . S
C2243 C2241 1.433 . S
C2243 N2246 1.384 . S
C2244 H2235 0.929 . S
C2244 C2236 1.378 . S
C2244 C2239 1.350 . S
C2245 H2232 0.929 . S
C2245 C2237 1.433 . S
C2245 N2247 1.384 . S
N2246 C2242 1.427 . S
N2246 C2243 1.384 . S
N2247 C2239 1.427 . S
N2247 C2245 1.384 . S
H2248 C2254 0.930 . S
H2249 C2258 0.930 . S
H2250 C2263 0.929 . S
H2251 C2261 0.929 . S
H2252 C2256 0.929 . S
H2253 C2262 0.929 . S
C2254 H2248 0.930 . S
C2254 C2255 1.367 . S
C2254 C2262 1.378 . S
C2255 C2254 1.367 . S
C2255 C2263 1.433 . S
C2256 H2252 0.929 . S
C2256 C2258 1.378 . S
C2256 C2260 1.350 . S
C2257 C2260 1.463 . S
C2257 C2262 1.350 . S
C2257 N2265 1.427 . S
C2258 H2249 0.930 . S
C2258 C2256 1.378 . S
C2258 C2259 1.367 . S
C2259 C2258 1.367 . S
C2259 C2261 1.433 . S
C2260 C2256 1.350 . S
C2260 C2257 1.463 . S
C2260 N2264 1.427 . S
C2261 H2251 0.929 . S
C2261 C2259 1.433 . S
C2261 N2264 1.384 . S
C2262 H2253 0.929 . S
C2262 C2254 1.378 . S
C2262 C2257 1.350 . S
C2263 H2250 0.929 . S
C2263 C2255 1.433 . S
C2263 N2265 1.384 . S
N2264 C2260 1.427 . S
N2264 C2261 1.384 . S
N2265 C2257 1.427 . S
N2265 C2263 1.384 . S
H2266 C2272 0.930 . S
H2267 C2276 0.930 . S
H2268 C2281 0.929 . S
H2269 C2279 0.929 . S
H2270 C2274 0.929 . S
H2271 C2280 0.929 . S
C2272 H2266 0.930 . S
C2272 C2273 1.367 . S
C2272 C2280 1.378 . S
C2273 C2272 1.367 . S
C2273 C2281 1.433 . S
C2274 H2270 0.929 . S
C2274 C2276 1.378 . S
C2274 C2278 1.350 . S
C2275 C2278 1.463 . S
C2275 C2280 1.350 . S
C2275 N2283 1.427 . S
C2276 H2267 0.930 . S
C2276 C2274 1.378 . S
C2276 C2277 1.367 . S
C2277 C2276 1.367 . S
C2277 C2279 1.433 . S
C2278 C2274 1.350 . S
C2278 C2275 1.463 . S
C2278 N2282 1.427 . S
C2279 H2269 0.929 . S
C2279 C2277 1.433 . S
C2279 N2282 1.384 . S
C2280 H2271 0.929 . S
C2280 C2272 1.378 . S
C2280 C2275 1.350 . S
C2281 H2268 0.929 . S
C2281 C2273 1.433 . S
C2281 N2283 1.384 . S
N2282 C2278 1.427 . S
N2282 C2279 1.384 . S
N2283 C2275 1.427 . S
N2283 C2281 1.384 . S
H2284 C2290 0.930 . S
H2285 C2294 0.930 . S
H2286 C2299 0.929 . S
H2287 C2297 0.929 . S
H2288 C2292 0.929 . S
H2289 C2298 0.929 . S
C2290 H2284 0.930 . S
C2290 C2291 1.367 . S
C2290 C2298 1.378 . S
C2291 C2290 1.367 . S
C2291 C2299 1.433 . S
C2292 H2288 0.929 . S
C2292 C2294 1.378 . S
C2292 C2296 1.350 . S
C2293 C2296 1.463 . S
C2293 C2298 1.350 . S
C2293 N2301 1.427 . S
C2294 H2285 0.930 . S
C2294 C2292 1.378 . S
C2294 C2295 1.367 . S
C2295 C2294 1.367 . S
C2295 C2297 1.433 . S
C2296 C2292 1.350 . S
C2296 C2293 1.463 . S
C2296 N2300 1.427 . S
C2297 H2287 0.929 . S
C2297 C2295 1.433 . S
C2297 N2300 1.384 . S
C2298 H2289 0.929 . S
C2298 C2290 1.378 . S
C2298 C2293 1.350 . S
C2299 H2286 0.929 . S
C2299 C2291 1.433 . S
C2299 N2301 1.384 . S
N2300 C2296 1.427 . S
N2300 C2297 1.384 . S
N2301 C2293 1.427 . S
N2301 C2299 1.384 . S
H2302 C2308 0.930 . S
H2303 C2312 0.930 . S
H2304 C2317 0.929 . S
H2305 C2315 0.929 . S
H2306 C2310 0.929 . S
H2307 C2316 0.929 . S
C2308 H2302 0.930 . S
C2308 C2309 1.367 . S
C2308 C2316 1.378 . S
C2309 C2308 1.367 . S
C2309 C2317 1.433 . S
C2310 H2306 0.929 . S
C2310 C2312 1.378 . S
C2310 C2314 1.350 . S
C2311 C2314 1.463 . S
C2311 C2316 1.350 . S
C2311 N2319 1.427 . S
C2312 H2303 0.930 . S
C2312 C2310 1.378 . S
C2312 C2313 1.367 . S
C2313 C2312 1.367 . S
C2313 C2315 1.433 . S
C2314 C2310 1.350 . S
C2314 C2311 1.463 . S
C2314 N2318 1.427 . S
C2315 H2305 0.929 . S
C2315 C2313 1.433 . S
C2315 N2318 1.384 . S
C2316 H2307 0.929 . S
C2316 C2308 1.378 . S
C2316 C2311 1.350 . S
C2317 H2304 0.929 . S
C2317 C2309 1.433 . S
C2317 N2319 1.384 . S
N2318 C2314 1.427 . S
N2318 C2315 1.384 . S
N2319 C2311 1.427 . S
N2319 C2317 1.384 . S
H2320 C2326 0.930 . S
H2321 C2330 0.930 . S
H2322 C2335 0.929 . S
H2323 C2333 0.929 . S
H2324 C2328 0.929 . S
H2325 C2334 0.929 . S
C2326 H2320 0.930 . S
C2326 C2327 1.367 . S
C2326 C2334 1.378 . S
C2327 C2326 1.367 . S
C2327 C2335 1.433 . S
C2328 H2324 0.929 . S
C2328 C2330 1.378 . S
C2328 C2332 1.350 . S
C2329 C2332 1.463 . S
C2329 C2334 1.350 . S
C2329 N2337 1.427 . S
C2330 H2321 0.930 . S
C2330 C2328 1.378 . S
C2330 C2331 1.367 . S
C2331 C2330 1.367 . S
C2331 C2333 1.433 1_556 S
C2332 C2328 1.350 . S
C2332 C2329 1.463 . S
C2332 N2336 1.427 . S
C2333 H2323 0.929 . S
C2333 C2331 1.433 1_554 S
C2333 N2336 1.384 1_554 S
C2334 H2325 0.929 . S
C2334 C2326 1.378 . S
C2334 C2329 1.350 . S
C2335 H2322 0.929 . S
C2335 C2327 1.433 . S
C2335 N2337 1.384 . S
N2336 C2332 1.427 . S
N2336 C2333 1.384 1_556 S
N2337 C2329 1.427 . S
N2337 C2335 1.384 . S
H2338 C2344 0.930 . S
H2339 C2348 0.930 . S
H2340 C2353 0.929 . S
H2341 C2351 0.929 . S
H2342 C2346 0.929 . S
H2343 C2352 0.929 . S
C2344 H2338 0.930 . S
C2344 C2345 1.367 . S
C2344 C2352 1.378 . S
C2345 C2344 1.367 . S
C2345 C2353 1.433 . S
C2346 H2342 0.929 . S
C2346 C2348 1.378 . S
C2346 C2350 1.350 . S
C2347 C2350 1.463 . S
C2347 C2352 1.350 . S
C2347 N2355 1.427 . S
C2348 H2339 0.930 . S
C2348 C2346 1.378 . S
C2348 C2349 1.367 . S
C2349 C2348 1.367 . S
C2349 C2351 1.433 . S
C2350 C2346 1.350 . S
C2350 C2347 1.463 . S
C2350 N2354 1.427 . S
C2351 H2341 0.929 . S
C2351 C2349 1.433 . S
C2351 N2354 1.384 . S
C2352 H2343 0.929 . S
C2352 C2344 1.378 . S
C2352 C2347 1.350 . S
C2353 H2340 0.929 . S
C2353 C2345 1.433 . S
C2353 N2355 1.384 . S
N2354 C2350 1.427 . S
N2354 C2351 1.384 . S
N2355 C2347 1.427 . S
N2355 C2353 1.384 . S
H2356 C2362 0.930 . S
H2357 C2366 0.930 . S
H2358 C2371 0.929 . S
H2359 C2369 0.929 . S
H2360 C2364 0.929 . S
H2361 C2370 0.929 . S
C2362 H2356 0.930 . S
C2362 C2363 1.367 . S
C2362 C2370 1.378 . S
C2363 C2362 1.367 . S
C2363 C2371 1.433 . S
C2364 H2360 0.929 . S
C2364 C2366 1.378 . S
C2364 C2368 1.350 . S
C2365 C2368 1.463 . S
C2365 C2370 1.350 . S
C2365 N2373 1.427 . S
C2366 H2357 0.930 . S
C2366 C2364 1.378 . S
C2366 C2367 1.367 . S
C2367 C2366 1.367 . S
C2367 C2369 1.433 . S
C2368 C2364 1.350 . S
C2368 C2365 1.463 . S
C2368 N2372 1.427 . S
C2369 H2359 0.929 . S
C2369 C2367 1.433 . S
C2369 N2372 1.384 . S
C2370 H2361 0.929 . S
C2370 C2362 1.378 . S
C2370 C2365 1.350 . S
C2371 H2358 0.929 . S
C2371 C2363 1.433 . S
C2371 N2373 1.384 . S
N2372 C2368 1.427 . S
N2372 C2369 1.384 . S
N2373 C2365 1.427 . S
N2373 C2371 1.384 . S
H2374 C2380 0.930 . S
H2375 C2384 0.930 . S
H2376 C2389 0.929 . S
H2377 C2387 0.929 . S
H2378 C2382 0.929 . S
H2379 C2388 0.929 . S
C2380 H2374 0.930 . S
C2380 C2381 1.367 . S
C2380 C2388 1.378 . S
C2381 C2380 1.367 . S
C2381 C2389 1.433 . S
C2382 H2378 0.929 . S
C2382 C2384 1.378 . S
C2382 C2386 1.350 . S
C2383 C2386 1.463 . S
C2383 C2388 1.350 . S
C2383 N2391 1.427 . S
C2384 H2375 0.930 . S
C2384 C2382 1.378 . S
C2384 C2385 1.367 . S
C2385 C2384 1.367 . S
C2385 C2387 1.433 . S
C2386 C2382 1.350 . S
C2386 C2383 1.463 . S
C2386 N2390 1.427 . S
C2387 H2377 0.929 . S
C2387 C2385 1.433 . S
C2387 N2390 1.384 . S
C2388 H2379 0.929 . S
C2388 C2380 1.378 . S
C2388 C2383 1.350 . S
C2389 H2376 0.929 . S
C2389 C2381 1.433 . S
C2389 N2391 1.384 . S
N2390 C2386 1.427 . S
N2390 C2387 1.384 . S
N2391 C2383 1.427 . S
N2391 C2389 1.384 . S
H2392 C2398 0.930 . S
H2393 C2402 0.930 . S
H2394 C2407 0.929 . S
H2395 C2405 0.929 . S
H2396 C2400 0.929 . S
H2397 C2406 0.929 . S
C2398 H2392 0.930 . S
C2398 C2399 1.367 . S
C2398 C2406 1.378 . S
C2399 C2398 1.367 . S
C2399 C2407 1.433 . S
C2400 H2396 0.929 . S
C2400 C2402 1.378 . S
C2400 C2404 1.350 . S
C2401 C2404 1.463 . S
C2401 C2406 1.350 . S
C2401 N2409 1.427 . S
C2402 H2393 0.930 . S
C2402 C2400 1.378 . S
C2402 C2403 1.367 . S
C2403 C2402 1.367 . S
C2403 C2405 1.433 . S
C2404 C2400 1.350 . S
C2404 C2401 1.463 . S
C2404 N2408 1.427 . S
C2405 H2395 0.929 . S
C2405 C2403 1.433 . S
C2405 N2408 1.384 . S
C2406 H2397 0.929 . S
C2406 C2398 1.378 . S
C2406 C2401 1.350 . S
C2407 H2394 0.929 . S
C2407 C2399 1.433 . S
C2407 N2409 1.384 . S
N2408 C2404 1.427 . S
N2408 C2405 1.384 . S
N2409 C2401 1.427 . S
N2409 C2407 1.384 . S
H2410 C2416 0.930 . S
H2411 C2420 0.930 . S
H2412 C2425 0.929 . S
H2413 C2423 0.929 . S
H2414 C2418 0.929 . S
H2415 C2424 0.929 . S
C2416 H2410 0.930 . S
C2416 C2417 1.367 . S
C2416 C2424 1.378 . S
C2417 C2416 1.367 . S
C2417 C2425 1.433 . S
C2418 H2414 0.929 . S
C2418 C2420 1.378 . S
C2418 C2422 1.350 . S
C2419 C2422 1.463 . S
C2419 C2424 1.350 . S
C2419 N2427 1.427 . S
C2420 H2411 0.930 . S
C2420 C2418 1.378 . S
C2420 C2421 1.367 . S
C2421 C2420 1.367 . S
C2421 C2423 1.433 . S
C2422 C2418 1.350 . S
C2422 C2419 1.463 . S
C2422 N2426 1.427 . S
C2423 H2413 0.929 . S
C2423 C2421 1.433 . S
C2423 N2426 1.384 . S
C2424 H2415 0.929 . S
C2424 C2416 1.378 . S
C2424 C2419 1.350 . S
C2425 H2412 0.929 . S
C2425 C2417 1.433 . S
C2425 N2427 1.384 . S
N2426 C2422 1.427 . S
N2426 C2423 1.384 . S
N2427 C2419 1.427 . S
N2427 C2425 1.384 . S
H2428 C2434 0.930 . S
H2429 C2438 0.930 . S
H2430 C2443 0.929 . S
H2431 C2441 0.929 . S
H2432 C2436 0.929 . S
H2433 C2442 0.929 1_455 S
C2434 H2428 0.930 . S
C2434 C2435 1.367 . S
C2434 C2442 1.378 . S
C2435 C2434 1.367 . S
C2435 C2443 1.433 . S
C2436 H2432 0.929 . S
C2436 C2438 1.378 1_655 S
C2436 C2440 1.330 1_655 S
C2437 C2440 1.444 1_655 S
C2437 C2442 1.350 . S
C2437 N2445 1.427 . S
C2438 H2429 0.930 . S
C2438 C2436 1.378 1_455 S
C2438 C2439 1.367 . S
C2439 C2438 1.367 . S
C2439 C2441 1.433 . S
C2440 C2436 1.330 1_455 S
C2440 C2437 1.444 1_455 S
C2440 N2444 1.469 . S
C2441 H2431 0.929 . S
C2441 C2439 1.433 . S
C2441 N2444 1.384 . S
C2442 H2433 0.929 1_655 S
C2442 C2434 1.378 . S
C2442 C2437 1.350 . S
C2443 H2430 0.929 . S
C2443 C2435 1.433 . S
C2443 N2445 1.384 . S
N2444 C2440 1.469 . S
N2444 C2441 1.384 . S
N2445 C2437 1.427 . S
N2445 C2443 1.384 . S
H2446 C2452 0.930 . S
H2447 C2456 0.930 . S
H2448 C2461 0.929 . S
H2449 C2459 0.929 . S
H2450 C2454 0.929 . S
H2451 C2460 0.929 . S
C2452 H2446 0.930 . S
C2452 C2453 1.367 . S
C2452 C2460 1.378 . S
C2453 C2452 1.367 . S
C2453 C2461 1.433 . S
C2454 H2450 0.929 . S
C2454 C2456 1.378 . S
C2454 C2458 1.350 . S
C2455 C2458 1.463 . S
C2455 C2460 1.350 . S
C2455 N2463 1.427 . S
C2456 H2447 0.930 . S
C2456 C2454 1.378 . S
C2456 C2457 1.367 . S
C2457 C2456 1.367 . S
C2457 C2459 1.433 . S
C2458 C2454 1.350 . S
C2458 C2455 1.463 . S
C2458 N2462 1.427 . S
C2459 H2449 0.929 . S
C2459 C2457 1.433 . S
C2459 N2462 1.384 . S
C2460 H2451 0.929 . S
C2460 C2452 1.378 . S
C2460 C2455 1.350 . S
C2461 H2448 0.929 . S
C2461 C2453 1.433 . S
C2461 N2463 1.384 . S
N2462 C2458 1.427 . S
N2462 C2459 1.384 . S
N2463 C2455 1.427 . S
N2463 C2461 1.384 . S
H2464 C2470 0.930 . S
H2465 C2474 0.930 . S
H2466 C2479 0.929 . S
H2467 C2477 0.929 . S
H2468 C2472 0.929 . S
H2469 C2478 0.929 . S
C2470 H2464 0.930 . S
C2470 C2471 1.367 . S
C2470 C2478 1.378 . S
C2471 C2470 1.367 . S
C2471 C2479 1.433 . S
C2472 H2468 0.929 . S
C2472 C2474 1.378 . S
C2472 C2476 1.350 . S
C2473 C2476 1.463 . S
C2473 C2478 1.350 . S
C2473 N2481 1.427 . S
C2474 H2465 0.930 . S
C2474 C2472 1.378 . S
C2474 C2475 1.367 . S
C2475 C2474 1.367 . S
C2475 C2477 1.433 . S
C2476 C2472 1.350 . S
C2476 C2473 1.463 . S
C2476 N2480 1.427 . S
C2477 H2467 0.929 . S
C2477 C2475 1.433 . S
C2477 N2480 1.384 . S
C2478 H2469 0.929 . S
C2478 C2470 1.378 . S
C2478 C2473 1.350 . S
C2479 H2466 0.929 . S
C2479 C2471 1.433 . S
C2479 N2481 1.384 . S
N2480 C2476 1.427 . S
N2480 C2477 1.384 . S
N2481 C2473 1.427 . S
N2481 C2479 1.384 . S
H2482 C2488 0.930 . S
H2483 C2492 0.930 . S
H2484 C2497 0.929 . S
H2485 C2495 0.929 . S
H2486 C2490 0.929 . S
H2487 C2496 0.929 . S
C2488 H2482 0.930 . S
C2488 C2489 1.367 . S
C2488 C2496 1.378 . S
C2489 C2488 1.367 . S
C2489 C2497 1.433 . S
C2490 H2486 0.929 . S
C2490 C2492 1.378 . S
C2490 C2494 1.350 . S
C2491 C2494 1.463 . S
C2491 C2496 1.350 . S
C2491 N2499 1.427 . S
C2492 H2483 0.930 . S
C2492 C2490 1.378 . S
C2492 C2493 1.367 . S
C2493 C2492 1.367 . S
C2493 C2495 1.433 . S
C2494 C2490 1.350 . S
C2494 C2491 1.463 . S
C2494 N2498 1.427 . S
C2495 H2485 0.929 . S
C2495 C2493 1.433 . S
C2495 N2498 1.384 . S
C2496 H2487 0.929 . S
C2496 C2488 1.378 . S
C2496 C2491 1.350 . S
C2497 H2484 0.929 . S
C2497 C2489 1.433 . S
C2497 N2499 1.384 . S
N2498 C2494 1.427 . S
N2498 C2495 1.384 . S
N2499 C2491 1.427 . S
N2499 C2497 1.384 . S
H2500 C2506 0.930 . S
H2501 C2510 0.930 . S
H2502 C2515 0.929 . S
H2503 C2513 0.929 . S
H2504 C2508 0.929 . S
H2505 C2514 0.929 . S
C2506 H2500 0.930 . S
C2506 C2507 1.367 . S
C2506 C2514 1.378 . S
C2507 C2506 1.367 . S
C2507 C2515 1.433 . S
C2508 H2504 0.929 . S
C2508 C2510 1.378 . S
C2508 C2512 1.350 1_455 S
C2509 C2512 1.463 . S
C2509 C2514 1.350 . S
C2509 N2517 1.427 . S
C2510 H2501 0.930 . S
C2510 C2508 1.378 . S
C2510 C2511 1.367 . S
C2511 C2510 1.367 . S
C2511 C2513 1.433 1_455 S
C2512 C2508 1.350 1_655 S
C2512 C2509 1.463 . S
C2512 N2516 1.427 . S
C2513 H2503 0.929 . S
C2513 C2511 1.433 1_655 S
C2513 N2516 1.384 . S
C2514 H2505 0.929 . S
C2514 C2506 1.378 . S
C2514 C2509 1.350 . S
C2515 H2502 0.929 . S
C2515 C2507 1.433 . S
C2515 N2517 1.384 . S
N2516 C2512 1.427 . S
N2516 C2513 1.384 . S
N2517 C2509 1.427 . S
N2517 C2515 1.384 . S
H2518 C2524 0.930 . S
H2519 C2528 0.930 . S
H2520 C2533 0.929 . S
H2521 C2531 0.929 . S
H2522 C2526 0.929 . S
H2523 C2532 0.929 . S
C2524 H2518 0.930 . S
C2524 C2525 1.367 . S
C2524 C2532 1.378 . S
C2525 C2524 1.367 . S
C2525 C2533 1.433 . S
C2526 H2522 0.929 . S
C2526 C2528 1.378 . S
C2526 C2530 1.350 . S
C2527 C2530 1.463 . S
C2527 C2532 1.350 . S
C2527 N2535 1.427 . S
C2528 H2519 0.930 . S
C2528 C2526 1.378 . S
C2528 C2529 1.367 . S
C2529 C2528 1.367 . S
C2529 C2531 1.433 . S
C2530 C2526 1.350 . S
C2530 C2527 1.463 . S
C2530 N2534 1.427 . S
C2531 H2521 0.929 . S
C2531 C2529 1.433 . S
C2531 N2534 1.384 . S
C2532 H2523 0.929 . S
C2532 C2524 1.378 . S
C2532 C2527 1.350 . S
C2533 H2520 0.929 . S
C2533 C2525 1.433 . S
C2533 N2535 1.384 . S
N2534 C2530 1.427 . S
N2534 C2531 1.384 . S
N2535 C2527 1.427 . S
N2535 C2533 1.384 . S
H2536 C2542 0.930 . S
H2537 C2546 0.930 . S
H2538 C2551 0.929 . S
H2539 C2549 0.929 . S
H2540 C2544 0.929 . S
H2541 C2550 0.929 . S
C2542 H2536 0.930 . S
C2542 C2543 1.367 . S
C2542 C2550 1.378 . S
C2543 C2542 1.367 . S
C2543 C2551 1.433 . S
C2544 H2540 0.929 . S
C2544 C2546 1.378 . S
C2544 C2548 1.350 . S
C2545 C2548 1.463 . S
C2545 C2550 1.350 . S
C2545 N2553 1.427 . S
C2546 H2537 0.930 . S
C2546 C2544 1.378 . S
C2546 C2547 1.367 . S
C2547 C2546 1.367 . S
C2547 C2549 1.433 . S
C2548 C2544 1.350 . S
C2548 C2545 1.463 . S
C2548 N2552 1.427 . S
C2549 H2539 0.929 . S
C2549 C2547 1.433 . S
C2549 N2552 1.384 . S
C2550 H2541 0.929 . S
C2550 C2542 1.378 . S
C2550 C2545 1.350 . S
C2551 H2538 0.929 . S
C2551 C2543 1.433 . S
C2551 N2553 1.384 . S
N2552 C2548 1.427 . S
N2552 C2549 1.384 . S
N2553 C2545 1.427 . S
N2553 C2551 1.384 . S
H2554 C2560 0.930 . S
H2555 C2564 0.930 . S
H2556 C2569 0.929 . S
H2557 C2567 0.929 . S
H2558 C2562 0.929 . S
H2559 C2568 0.929 . S
C2560 H2554 0.930 . S
C2560 C2561 1.367 . S
C2560 C2568 1.378 . S
C2561 C2560 1.367 . S
C2561 C2569 1.433 . S
C2562 H2558 0.929 . S
C2562 C2564 1.378 1_565 S
C2562 C2566 1.350 . S
C2563 C2566 1.463 . S
C2563 C2568 1.350 . S
C2563 N2571 1.427 . S
C2564 H2555 0.930 . S
C2564 C2562 1.378 1_545 S
C2564 C2565 1.367 . S
C2565 C2564 1.367 . S
C2565 C2567 1.433 1_545 S
C2566 C2562 1.350 . S
C2566 C2563 1.463 . S
C2566 N2570 1.427 . S
C2567 H2557 0.929 . S
C2567 C2565 1.433 1_565 S
C2567 N2570 1.384 . S
C2568 H2559 0.929 . S
C2568 C2560 1.378 . S
C2568 C2563 1.350 . S
C2569 H2556 0.929 . S
C2569 C2561 1.433 . S
C2569 N2571 1.384 . S
N2570 C2566 1.427 . S
N2570 C2567 1.384 . S
N2571 C2563 1.427 . S
N2571 C2569 1.384 . S
H2572 C2578 0.930 . S
H2573 C2582 0.930 . S
H2574 C2587 0.929 . S
H2575 C2585 0.929 . S
H2576 C2580 0.929 . S
H2577 C2586 0.929 . S
C2578 H2572 0.930 . S
C2578 C2579 1.367 . S
C2578 C2586 1.378 . S
C2579 C2578 1.367 . S
C2579 C2587 1.433 . S
C2580 H2576 0.929 . S
C2580 C2582 1.378 . S
C2580 C2584 1.350 . S
C2581 C2584 1.463 . S
C2581 C2586 1.350 . S
C2581 N2589 1.427 . S
C2582 H2573 0.930 . S
C2582 C2580 1.378 . S
C2582 C2583 1.367 . S
C2583 C2582 1.367 . S
C2583 C2585 1.433 . S
C2584 C2580 1.350 . S
C2584 C2581 1.463 . S
C2584 N2588 1.427 . S
C2585 H2575 0.929 . S
C2585 C2583 1.433 . S
C2585 N2588 1.384 . S
C2586 H2577 0.929 . S
C2586 C2578 1.378 . S
C2586 C2581 1.350 . S
C2587 H2574 0.929 . S
C2587 C2579 1.433 . S
C2587 N2589 1.384 . S
N2588 C2584 1.427 . S
N2588 C2585 1.384 . S
N2589 C2581 1.427 . S
N2589 C2587 1.384 . S
H2590 C2596 0.930 . S
H2591 C2600 0.930 . S
H2592 C2605 0.929 . S
H2593 C2603 0.929 . S
H2594 C2598 0.929 . S
H2595 C2604 0.929 . S
C2596 H2590 0.930 . S
C2596 C2597 1.367 . S
C2596 C2604 1.378 . S
C2597 C2596 1.367 . S
C2597 C2605 1.433 . S
C2598 H2594 0.929 . S
C2598 C2600 1.378 . S
C2598 C2602 1.350 . S
C2599 C2602 1.463 . S
C2599 C2604 1.350 . S
C2599 N2607 1.427 . S
C2600 H2591 0.930 . S
C2600 C2598 1.378 . S
C2600 C2601 1.367 . S
C2601 C2600 1.367 . S
C2601 C2603 1.433 . S
C2602 C2598 1.350 . S
C2602 C2599 1.463 . S
C2602 N2606 1.427 . S
C2603 H2593 0.929 . S
C2603 C2601 1.433 . S
C2603 N2606 1.384 . S
C2604 H2595 0.929 . S
C2604 C2596 1.378 . S
C2604 C2599 1.350 . S
C2605 H2592 0.929 . S
C2605 C2597 1.433 . S
C2605 N2607 1.384 . S
N2606 C2602 1.427 . S
N2606 C2603 1.384 . S
N2607 C2599 1.427 . S
N2607 C2605 1.384 . S
H2608 C2614 0.930 . S
H2609 C2618 0.930 . S
H2610 C2623 0.929 . S
H2611 C2621 0.929 . S
H2612 C2616 0.929 . S
H2613 C2622 0.929 . S
C2614 H2608 0.930 . S
C2614 C2615 1.367 . S
C2614 C2622 1.378 . S
C2615 C2614 1.367 . S
C2615 C2623 1.433 . S
C2616 H2612 0.929 . S
C2616 C2618 1.378 . S
C2616 C2620 1.350 . S
C2617 C2620 1.463 . S
C2617 C2622 1.350 . S
C2617 N2625 1.427 . S
C2618 H2609 0.930 . S
C2618 C2616 1.378 . S
C2618 C2619 1.367 . S
C2619 C2618 1.367 . S
C2619 C2621 1.433 . S
C2620 C2616 1.350 . S
C2620 C2617 1.463 . S
C2620 N2624 1.427 . S
C2621 H2611 0.929 . S
C2621 C2619 1.433 . S
C2621 N2624 1.384 . S
C2622 H2613 0.929 . S
C2622 C2614 1.378 . S
C2622 C2617 1.350 . S
C2623 H2610 0.929 . S
C2623 C2615 1.433 . S
C2623 N2625 1.384 . S
N2624 C2620 1.427 . S
N2624 C2621 1.384 . S
N2625 C2617 1.427 . S
N2625 C2623 1.384 . S
H2626 C2632 0.930 . S
H2627 C2636 0.930 . S
H2628 C2641 0.929 . S
H2629 C2639 0.932 . S
H2630 C2634 0.929 . S
H2631 C2640 0.929 . S
C2632 H2626 0.930 . S
C2632 C2633 1.367 . S
C2632 C2640 1.378 . S
C2633 C2632 1.367 . S
C2633 C2641 1.433 . S
C2634 H2630 0.929 . S
C2634 C2636 1.378 . S
C2634 C2638 1.350 . S
C2635 C2638 1.463 . S
C2635 C2640 1.350 . S
C2635 N2643 1.427 . S
C2636 H2627 0.930 . S
C2636 C2634 1.378 . S
C2636 C2637 1.368 . S
C2637 C2636 1.368 . S
C2637 C2639 1.442 . S
C2638 C2634 1.350 . S
C2638 C2635 1.463 . S
C2638 N2642 1.427 . S
C2639 H2629 0.932 . S
C2639 C2637 1.442 . S
C2639 N2642 1.384 . S
C2640 H2631 0.929 . S
C2640 C2632 1.378 . S
C2640 C2635 1.350 . S
C2641 H2628 0.929 . S
C2641 C2633 1.433 . S
C2641 N2643 1.384 . S
N2642 C2638 1.427 . S
N2642 C2639 1.384 . S
N2643 C2635 1.427 . S
N2643 C2641 1.384 . S
H2644 C2650 0.930 . S
H2645 C2654 0.930 . S
H2646 C2659 0.929 . S
H2647 C2657 0.929 . S
H2648 C2652 0.929 . S
H2649 C2658 0.929 . S
C2650 H2644 0.930 . S
C2650 C2651 1.367 . S
C2650 C2658 1.378 . S
C2651 C2650 1.367 . S
C2651 C2659 1.433 . S
C2652 H2648 0.929 . S
C2652 C2654 1.378 . S
C2652 C2656 1.350 . S
C2653 C2656 1.463 . S
C2653 C2658 1.350 . S
C2653 N2661 1.427 . S
C2654 H2645 0.930 . S
C2654 C2652 1.378 . S
C2654 C2655 1.367 . S
C2655 C2654 1.367 . S
C2655 C2657 1.433 . S
C2656 C2652 1.350 . S
C2656 C2653 1.463 . S
C2656 N2660 1.427 . S
C2657 H2647 0.929 . S
C2657 C2655 1.433 . S
C2657 N2660 1.384 . S
C2658 H2649 0.929 . S
C2658 C2650 1.378 . S
C2658 C2653 1.350 . S
C2659 H2646 0.929 . S
C2659 C2651 1.433 . S
C2659 N2661 1.384 . S
N2660 C2656 1.427 . S
N2660 C2657 1.384 . S
N2661 C2653 1.427 . S
N2661 C2659 1.384 . S
H2662 C2668 0.930 . S
H2663 C2672 0.930 . S
H2664 C2677 0.929 . S
H2665 C2675 0.929 . S
H2666 C2670 0.929 . S
H2667 C2676 0.929 . S
C2668 H2662 0.930 . S
C2668 C2669 1.367 . S
C2668 C2676 1.378 . S
C2669 C2668 1.367 . S
C2669 C2677 1.433 . S
C2670 H2666 0.929 . S
C2670 C2672 1.378 . S
C2670 C2674 1.350 . S
C2671 C2674 1.463 . S
C2671 C2676 1.350 . S
C2671 N2679 1.427 . S
C2672 H2663 0.930 . S
C2672 C2670 1.378 . S
C2672 C2673 1.367 . S
C2673 C2672 1.367 . S
C2673 C2675 1.433 . S
C2674 C2670 1.350 . S
C2674 C2671 1.463 . S
C2674 N2678 1.427 . S
C2675 H2665 0.929 . S
C2675 C2673 1.433 . S
C2675 N2678 1.384 . S
C2676 H2667 0.929 . S
C2676 C2668 1.378 . S
C2676 C2671 1.350 . S
C2677 H2664 0.929 . S
C2677 C2669 1.433 . S
C2677 N2679 1.384 . S
N2678 C2674 1.427 . S
N2678 C2675 1.384 . S
N2679 C2671 1.427 . S
N2679 C2677 1.384 . S
C959 C101 2.207 . S
C963 C343 2.211 . S
C977 C57 1.793 . S
C981 C354 1.836 . S
C995 C73 1.698 . S
C999 C423 1.749 . S
C1017 C436 1.151 . S
C1013 C78 1.129 . S
C1031 C21 2.595 . S
C1035 C492 2.589 . S
C1053 C543 2.151 . S
C1049 C31 2.123 . S
C1071 C572 2.440 . S
C1067 C49 2.447 . S
C1085 C0 2.375 . S
C1089 C623 2.420 . S
C1107 C314 1.202 . S
C1103 C218 1.189 . S
C1121 C229 0.946 . S
C1125 C356 0.956 . S
C1143 C394 1.026 . S
C1139 C257 1.034 . S
C1161 C463 1.719 . S
C1157 C164 1.608 . S
C1175 C216 0.618 . S
C1179 C497 0.593 . S
C1197 C514 1.395 . S
C1193 C231 1.396 . S
C1215 C577 0.409 . S
C1211 C255 0.479 . S
C1233 C594 2.077 . S
C1229 C166 2.118 . S
C1251 C316 1.628 . S
C1247 C143 1.592 . S
C1265 C265 1.602 . S
C1269 C655 1.587 . S
C1287 C676 1.421 . S
C1283 C299 1.385 . S
C1305 C735 0.463 1_655 S
C1301 C291 0.530 . S
C1319 C104 0.914 . S
C1323 C596 0.925 . S
C1337 C117 1.333 . S
C1341 C396 1.345 . S
C1355 C304 0.912 . S
C1359 C754 0.933 . S
C1377 C823 0.863 . S
C1373 C278 0.847 . S
C1395 C332 2.166 . S
C1391 C60 2.209 . S
C1413 C815 1.736 . S
C1409 C96 1.740 . S
C1427 C88 1.666 . S
C1431 C412 1.635 . S
C1445 C65 1.115 . S
C1449 C777 1.097 . S
C1467 C503 2.461 . S
C1463 C10 2.483 . S
C1481 C44 2.046 . S
C1485 C692 2.101 . S
C1503 C583 2.344 1_556 S
C1499 C34 2.276 . S
C1521 C852 2.374 . S
C1517 C13 2.391 1_655 S
C1539 C335 1.161 . S
C1535 C138 1.176 . S
C1557 C817 0.883 . S
C1553 C296 0.893 . S
C1571 C112 0.921 . S
C1575 C415 0.946 . S
C1589 C270 1.597 . S
C1593 C772 1.600 . S
C1607 C140 0.538 . S
C1611 C476 0.557 . S
C1629 C695 1.323 . S
C1625 C294 1.318 . S
C1643 C114 0.311 . S
C1647 C556 0.329 . S
C1661 C268 1.978 . S
C1665 C855 1.984 . S
C1679 C169 1.807 . S
C1683 C337 1.663 . S
C1697 C161 1.564 . S
C1701 C634 1.540 . S
C1715 C234 1.600 . S
C1719 C537 1.435 . S
C1733 C226 0.469 . S
C1737 C714 0.389 . S
C1755 C857 0.971 . S
C1751 C247 1.016 . S
C1769 C195 1.401 . S
C1773 C417 1.342 . S
C1791 C455 0.837 . S
C1787 C239 0.833 . S
C1809 C372 0.808 . S
C1805 C187 0.827 . S
C1823 C75 2.204 . S
C1827 C903 2.208 . S
C1845 C794 1.833 . S
C1841 C83 1.793 . S
C1859 C99 1.699 . S
C1863 C943 1.750 . S
C1877 C52 1.132 . S
C1881 C756 1.146 . S
C1895 C47 2.597 . S
C1899 C652 2.583 . S
C1917 C703 2.154 . S
C1913 C5 2.126 . S
C1935 C732 2.438 . S
C1931 C23 2.448 . S
C1953 C863 2.424 . S
C1949 C26 2.368 . S
C1971 C874 1.196 . S
C1967 C244 1.187 . S
C1985 C177 0.918 . S
C1989 C796 0.934 . S
C2007 C914 1.021 . S
C2003 C192 1.036 . S
C2025 C783 1.720 . S
C2021 C203 1.610 . S
C2043 C657 0.613 . S
C2039 C242 0.639 . S
C2057 C179 1.397 . S
C2061 C674 1.395 . S
C2079 C737 0.410 . S
C2075 C190 0.442 . S
C2093 C205 2.118 . S
C2097 C834 2.078 . S
C2115 C876 1.630 . S
C2111 C286 1.591 . S
C2129 C122 1.598 . S
C2133 C495 1.590 . S
C2151 C516 1.418 . S
C2147 C130 1.382 . S
C2169 C575 0.481 . S
C2165 C148 0.568 . S
C2187 C836 0.925 . S
C2183 C273 0.901 . S
C2201 C260 1.328 . S
C2205 C916 1.350 . S
C2223 C434 0.929 . S
C2219 C135 0.906 . S
C2241 C383 0.849 . S
C2237 C109 0.848 . S
C2255 C86 2.209 . S
C2259 C892 2.167 . S
C2277 C375 1.741 . S
C2273 C70 1.740 . S
C2291 C62 1.667 . S
C2295 C932 1.639 . S
C2309 C91 1.112 . S
C2313 C457 1.099 . S
C2327 C36 2.482 . S
C2331 C663 2.463 1_556 S
C2349 C532 2.100 . S
C2345 C18 2.050 . S
C2363 C8 2.278 . S
C2367 C743 2.342 . S
C2381 C39 2.391 . S
C2385 C612 2.371 . S
C2403 C895 1.168 . S
C2399 C307 1.170 . S
C2417 C153 0.897 . S
C2421 C377 0.883 . S
C2439 C935 0.946 . S
C2435 C281 0.926 . S
C2453 C127 1.597 . S
C2457 C452 1.599 . S
C2471 C309 0.533 . S
C2475 C636 0.547 . S
C2493 C535 1.326 . S
C2489 C151 1.320 . S
C2507 C283 0.325 . S
C2511 C716 0.347 . S
C2529 C615 1.985 . S
C2525 C125 1.979 . S
C2547 C897 1.664 . S
C2543 C221 1.806 . S
C2565 C474 1.540 . S
C2561 C200 1.563 . S
C2579 C208 1.604 . S
C2583 C697 1.445 . S
C2601 C554 0.376 . S
C2597 C174 0.447 . S
C2615 C182 1.016 . S
C2619 C617 0.977 . S
C2633 C156 1.399 . S
C2637 C937 1.351 . S
C2655 C775 0.835 . S
C2651 C213 0.835 . S
C2673 C812 0.805 . S
C2669 C252 0.824 . S
