# Generated by pormake.
# Topology fgl, (4,4)-cn, num edge types: 1
# Building blocks:
#     Node 0, Type 0, BuildingBlock: ESEHIV_clean_sbu_0, # of connection points: 4
#     Node 1, Type 0, BuildingBlock: ESEHIV_clean_sbu_0, # of connection points: 4
#     Node 2, Type 0, BuildingBlock: ESEHIV_clean_sbu_0, # of connection points: 4
#     Node 3, Type 0, BuildingBlock: ESEHIV_clean_sbu_0, # of connection points: 4
#     Node 4, Type 0, BuildingBlock: ESEHIV_clean_sbu_0, # of connection points: 4
#     Node 5, Type 0, BuildingBlock: ESEHIV_clean_sbu_0, # of connection points: 4
#     Node 6, Type 0, BuildingBlock: ESEHIV_clean_sbu_0, # of connection points: 4
#     Node 7, Type 0, BuildingBlock: ESEHIV_clean_sbu_0, # of connection points: 4
#     Node 8, Type 0, BuildingBlock: ESEHIV_clean_sbu_0, # of connection points: 4
#     Node 9, Type 0, BuildingBlock: ESEHIV_clean_sbu_0, # of connection points: 4
#     Node 10, Type 0, BuildingBlock: ESEHIV_clean_sbu_0, # of connection points: 4
#     Node 11, Type 0, BuildingBlock: ESEHIV_clean_sbu_0, # of connection points: 4
#     Node 12, Type 0, BuildingBlock: ESEHIV_clean_sbu_0, # of connection points: 4
#     Node 13, Type 0, BuildingBlock: ESEHIV_clean_sbu_0, # of connection points: 4
#     Node 14, Type 0, BuildingBlock: ESEHIV_clean_sbu_0, # of connection points: 4
#     Node 15, Type 0, BuildingBlock: ESEHIV_clean_sbu_0, # of connection points: 4
#     Node 16, Type 0, BuildingBlock: ESEHIV_clean_sbu_0, # of connection points: 4
#     Node 17, Type 0, BuildingBlock: ESEHIV_clean_sbu_0, # of connection points: 4
#     Node 18, Type 1, BuildingBlock: KUFVIS_clean_sbu_0, # of connection points: 4
#     Node 19, Type 1, BuildingBlock: KUFVIS_clean_sbu_0, # of connection points: 4
#     Node 20, Type 1, BuildingBlock: KUFVIS_clean_sbu_0, # of connection points: 4
#     Node 21, Type 1, BuildingBlock: KUFVIS_clean_sbu_0, # of connection points: 4
#     Node 22, Type 1, BuildingBlock: KUFVIS_clean_sbu_0, # of connection points: 4
#     Node 23, Type 1, BuildingBlock: KUFVIS_clean_sbu_0, # of connection points: 4
#     Node 24, Type 1, BuildingBlock: KUFVIS_clean_sbu_0, # of connection points: 4
#     Node 25, Type 1, BuildingBlock: KUFVIS_clean_sbu_0, # of connection points: 4
#     Node 26, Type 1, BuildingBlock: KUFVIS_clean_sbu_0, # of connection points: 4
#     Node 27, Type 1, BuildingBlock: KUFVIS_clean_sbu_0, # of connection points: 4
#     Node 28, Type 1, BuildingBlock: KUFVIS_clean_sbu_0, # of connection points: 4
#     Node 29, Type 1, BuildingBlock: KUFVIS_clean_sbu_0, # of connection points: 4
#     Node 30, Type 1, BuildingBlock: KUFVIS_clean_sbu_0, # of connection points: 4
#     Node 31, Type 1, BuildingBlock: KUFVIS_clean_sbu_0, # of connection points: 4
#     Node 32, Type 1, BuildingBlock: KUFVIS_clean_sbu_0, # of connection points: 4
#     Node 33, Type 1, BuildingBlock: KUFVIS_clean_sbu_0, # of connection points: 4
#     Node 34, Type 1, BuildingBlock: KUFVIS_clean_sbu_0, # of connection points: 4
#     Node 35, Type 1, BuildingBlock: KUFVIS_clean_sbu_0, # of connection points: 4
#     Edge 36, Type (0, 1), BuildingBlock: OJICUG_clean_linker_0, # of connection points: 2
#     Edge 37, Type (0, 1), BuildingBlock: OJICUG_clean_linker_0, # of connection points: 2
#     Edge 38, Type (0, 1), BuildingBlock: OJICUG_clean_linker_0, # of connection points: 2
#     Edge 39, Type (0, 1), BuildingBlock: OJICUG_clean_linker_0, # of connection points: 2
#     Edge 40, Type (0, 1), BuildingBlock: OJICUG_clean_linker_0, # of connection points: 2
#     Edge 41, Type (0, 1), BuildingBlock: OJICUG_clean_linker_0, # of connection points: 2
#     Edge 42, Type (0, 1), BuildingBlock: OJICUG_clean_linker_0, # of connection points: 2
#     Edge 43, Type (0, 1), BuildingBlock: OJICUG_clean_linker_0, # of connection points: 2
#     Edge 44, Type (0, 1), BuildingBlock: OJICUG_clean_linker_0, # of connection points: 2
#     Edge 45, Type (0, 1), BuildingBlock: OJICUG_clean_linker_0, # of connection points: 2
#     Edge 46, Type (0, 1), BuildingBlock: OJICUG_clean_linker_0, # of connection points: 2
#     Edge 47, Type (0, 1), BuildingBlock: OJICUG_clean_linker_0, # of connection points: 2
#     Edge 48, Type (0, 1), BuildingBlock: OJICUG_clean_linker_0, # of connection points: 2
#     Edge 49, Type (0, 1), BuildingBlock: OJICUG_clean_linker_0, # of connection points: 2
#     Edge 50, Type (0, 1), BuildingBlock: OJICUG_clean_linker_0, # of connection points: 2
#     Edge 51, Type (0, 1), BuildingBlock: OJICUG_clean_linker_0, # of connection points: 2
#     Edge 52, Type (0, 1), BuildingBlock: OJICUG_clean_linker_0, # of connection points: 2
#     Edge 53, Type (0, 1), BuildingBlock: OJICUG_clean_linker_0, # of connection points: 2
#     Edge 54, Type (0, 1), BuildingBlock: OJICUG_clean_linker_0, # of connection points: 2
#     Edge 55, Type (0, 1), BuildingBlock: OJICUG_clean_linker_0, # of connection points: 2
#     Edge 56, Type (0, 1), BuildingBlock: OJICUG_clean_linker_0, # of connection points: 2
#     Edge 57, Type (0, 1), BuildingBlock: OJICUG_clean_linker_0, # of connection points: 2
#     Edge 58, Type (0, 1), BuildingBlock: OJICUG_clean_linker_0, # of connection points: 2
#     Edge 59, Type (0, 1), BuildingBlock: OJICUG_clean_linker_0, # of connection points: 2
#     Edge 60, Type (0, 1), BuildingBlock: OJICUG_clean_linker_0, # of connection points: 2
#     Edge 61, Type (0, 1), BuildingBlock: OJICUG_clean_linker_0, # of connection points: 2
#     Edge 62, Type (0, 1), BuildingBlock: OJICUG_clean_linker_0, # of connection points: 2
#     Edge 63, Type (0, 1), BuildingBlock: OJICUG_clean_linker_0, # of connection points: 2
#     Edge 64, Type (0, 1), BuildingBlock: OJICUG_clean_linker_0, # of connection points: 2
#     Edge 65, Type (0, 1), BuildingBlock: OJICUG_clean_linker_0, # of connection points: 2
#     Edge 66, Type (0, 1), BuildingBlock: OJICUG_clean_linker_0, # of connection points: 2
#     Edge 67, Type (0, 1), BuildingBlock: OJICUG_clean_linker_0, # of connection points: 2
#     Edge 68, Type (0, 1), BuildingBlock: OJICUG_clean_linker_0, # of connection points: 2
#     Edge 69, Type (0, 1), BuildingBlock: OJICUG_clean_linker_0, # of connection points: 2
#     Edge 70, Type (0, 1), BuildingBlock: OJICUG_clean_linker_0, # of connection points: 2
#     Edge 71, Type (0, 1), BuildingBlock: OJICUG_clean_linker_0, # of connection points: 2
#     Edge 72, Type (0, 1), BuildingBlock: OJICUG_clean_linker_0, # of connection points: 2
#     Edge 73, Type (0, 1), BuildingBlock: OJICUG_clean_linker_0, # of connection points: 2
#     Edge 74, Type (0, 1), BuildingBlock: OJICUG_clean_linker_0, # of connection points: 2
#     Edge 75, Type (0, 1), BuildingBlock: OJICUG_clean_linker_0, # of connection points: 2
#     Edge 76, Type (0, 1), BuildingBlock: OJICUG_clean_linker_0, # of connection points: 2
#     Edge 77, Type (0, 1), BuildingBlock: OJICUG_clean_linker_0, # of connection points: 2
#     Edge 78, Type (0, 1), BuildingBlock: OJICUG_clean_linker_0, # of connection points: 2
#     Edge 79, Type (0, 1), BuildingBlock: OJICUG_clean_linker_0, # of connection points: 2
#     Edge 80, Type (0, 1), BuildingBlock: OJICUG_clean_linker_0, # of connection points: 2
#     Edge 81, Type (0, 1), BuildingBlock: OJICUG_clean_linker_0, # of connection points: 2
#     Edge 82, Type (0, 1), BuildingBlock: OJICUG_clean_linker_0, # of connection points: 2
#     Edge 83, Type (0, 1), BuildingBlock: OJICUG_clean_linker_0, # of connection points: 2
#     Edge 84, Type (0, 1), BuildingBlock: OJICUG_clean_linker_0, # of connection points: 2
#     Edge 85, Type (0, 1), BuildingBlock: OJICUG_clean_linker_0, # of connection points: 2
#     Edge 86, Type (0, 1), BuildingBlock: OJICUG_clean_linker_0, # of connection points: 2
#     Edge 87, Type (0, 1), BuildingBlock: OJICUG_clean_linker_0, # of connection points: 2
#     Edge 88, Type (0, 1), BuildingBlock: OJICUG_clean_linker_0, # of connection points: 2
#     Edge 89, Type (0, 1), BuildingBlock: OJICUG_clean_linker_0, # of connection points: 2
#     Edge 90, Type (0, 1), BuildingBlock: OJICUG_clean_linker_0, # of connection points: 2
#     Edge 91, Type (0, 1), BuildingBlock: OJICUG_clean_linker_0, # of connection points: 2
#     Edge 92, Type (0, 1), BuildingBlock: OJICUG_clean_linker_0, # of connection points: 2
#     Edge 93, Type (0, 1), BuildingBlock: OJICUG_clean_linker_0, # of connection points: 2
#     Edge 94, Type (0, 1), BuildingBlock: OJICUG_clean_linker_0, # of connection points: 2
#     Edge 95, Type (0, 1), BuildingBlock: OJICUG_clean_linker_0, # of connection points: 2
#     Edge 96, Type (0, 1), BuildingBlock: OJICUG_clean_linker_0, # of connection points: 2
#     Edge 97, Type (0, 1), BuildingBlock: OJICUG_clean_linker_0, # of connection points: 2
#     Edge 98, Type (0, 1), BuildingBlock: OJICUG_clean_linker_0, # of connection points: 2
#     Edge 99, Type (0, 1), BuildingBlock: OJICUG_clean_linker_0, # of connection points: 2
#     Edge 100, Type (0, 1), BuildingBlock: OJICUG_clean_linker_0, # of connection points: 2
#     Edge 101, Type (0, 1), BuildingBlock: OJICUG_clean_linker_0, # of connection points: 2
#     Edge 102, Type (0, 1), BuildingBlock: OJICUG_clean_linker_0, # of connection points: 2
#     Edge 103, Type (0, 1), BuildingBlock: OJICUG_clean_linker_0, # of connection points: 2
#     Edge 104, Type (0, 1), BuildingBlock: OJICUG_clean_linker_0, # of connection points: 2
#     Edge 105, Type (0, 1), BuildingBlock: OJICUG_clean_linker_0, # of connection points: 2
#     Edge 106, Type (0, 1), BuildingBlock: OJICUG_clean_linker_0, # of connection points: 2
#     Edge 107, Type (0, 1), BuildingBlock: OJICUG_clean_linker_0, # of connection points: 2
# Relax obj value: 0.025
# Max RMSD: 0.142
# Mean RMSD: 0.075
data_MOF--net-fgl--node1-ESEHIV_clean_sbu_0--node2-KUFVIS_clean_sbu_0--edge1-OJICUG_clean_linker_0
_symmetry_space_group_name_H-M    P1
_symmetry_Int_Tables_number       1
_symmetry_cell_setting            triclinic
loop_
_symmetry_equiv_pos_as_xyz
'x, y, z'
_cell_length_a     54.67166
_cell_length_b     56.762602
_cell_length_c     37.70299
_cell_angle_alpha  89.213004
_cell_angle_beta   89.443755
_cell_angle_gamma 119.73515
loop_
_atom_site_label
_atom_site_type_symbol
_atom_site_fract_x
_atom_site_fract_y
_atom_site_fract_z
_atom_type_partial_charge
Cu0 Cu 0.03712 0.54398 0.03418 0.0
N1 N 0.01894 0.54443 0.07752 0.0
N2 N 1.00732 0.56108 0.12519 0.0
C3 C 0.02368 0.56698 0.09536 0.0
C4 C 0.99187 0.53361 0.12594 0.0
C5 C 0.99896 0.52354 0.0968 0.0
O6 O 0.04438 0.57743 1.01025 0.0
C7 C 0.0693 0.52499 0.07 0.0
O8 O 0.05665 0.52619 0.09912 0.0
H9 H 0.03855 0.58737 0.08617 0.0
H10 H 0.99024 0.50241 0.09027 0.0
N11 N 0.01665 0.51578 1.00175 0.0
N12 N 1.01032 0.4898 0.95395 0.0
C13 C 0.02813 0.51263 0.97135 0.0
C14 C 0.99059 0.4941 1.00383 0.0
C15 C 0.9866 0.4782 0.97451 0.0
C16 C 0.02118 0.57623 1.00219 0.0
O17 O 0.99755 0.55354 1.00899 0.0
H18 H 0.04944 0.52678 0.96253 0.0
H19 H 0.97574 0.48977 0.02548 0.0
O20 O 0.06878 0.53789 0.04234 0.0
H21 H 0.97655 0.52136 0.1463 0.0
H22 H 0.96786 0.45909 0.96946 0.0
Cu23 Cu 0.51762 0.55747 0.04417 0.0
N24 N 0.52336 0.56751 0.99294 0.0
N25 N 0.54383 0.58689 0.94017 0.0
C26 C 0.54766 0.57993 0.97349 0.0
C27 C 0.51591 0.57815 0.93887 0.0
C28 C 0.50349 0.56637 0.9712 0.0
O29 O 0.54634 0.59798 0.05588 0.0
C30 C 0.49377 0.50028 0.01831 0.0
O31 O 0.52022 0.50831 1.01018 0.0
H32 H 0.56776 0.58413 0.98372 0.0
H33 H 0.48161 0.55842 0.97879 0.0
N34 N 0.51138 0.54778 0.09554 0.0
N35 N 0.49066 0.53208 0.14909 0.0
C36 C 0.48675 0.53218 0.11361 0.0
C37 C 0.53129 0.55752 0.1205 0.0
C38 C 0.51859 0.54811 0.1534 0.0
C39 C 0.57311 0.60776 0.05493 0.0
O40 O 0.5829 0.59129 0.04818 0.0
H41 H 0.46636 0.52198 0.10127 0.0
H42 H 0.55348 0.57109 0.11533 0.0
O43 O 0.4879 0.51736 0.03241 0.0
H44 H 0.50517 0.58097 0.91667 0.0
H45 H 0.52903 0.55294 0.17869 0.0
Cu46 Cu 0.51653 0.05261 0.04785 0.0
N47 N 0.51009 0.06338 1.00354 0.0
N48 N 0.49661 0.05778 0.94724 0.0
C49 C 0.49747 0.04551 0.97759 0.0
C50 C 0.50896 0.08446 0.95442 0.0
C51 C 0.51716 0.08787 0.98934 0.0
O52 O 0.47871 0.03391 0.07025 0.0
C53 C 0.56156 0.0534 0.01904 0.0
O54 O 0.5636 0.07681 1.01123 0.0
H55 H 0.48954 0.02393 0.98081 0.0
H56 H 0.52786 0.10684 1.00304 0.0
N57 N 0.54064 0.08014 0.0779 0.0
N58 N 0.57505 0.09751 0.11765 0.0
C59 C 0.55501 0.07485 0.10249 0.0
C60 C 0.55165 0.10725 0.07761 0.0
C61 C 0.57283 0.11802 0.10231 0.0
C62 C 0.46883 0.05014 0.07266 0.0
O63 O 0.48551 0.07573 0.06355 0.0
H64 H 0.55129 0.05459 0.10813 0.0
H65 H 0.54575 0.11854 0.05977 0.0
O66 O 0.53974 0.03578 0.03663 0.0
H67 H 0.51153 0.10031 0.9359 0.0
H68 H 0.58637 0.13938 0.10728 0.0
Cu69 Cu 0.52461 0.04413 0.52124 0.0
N70 N 0.52715 0.03481 0.47454 0.0
N71 N 0.54914 0.03858 0.42268 0.0
C72 C 0.55062 0.04948 0.45466 0.0
C73 C 0.5235 0.01603 0.42231 0.0
C74 C 0.50987 0.01381 0.45438 0.0
O75 O 0.56127 0.05089 0.54219 0.0
C76 C 0.48435 0.05999 0.50777 0.0
O77 O 0.47162 0.03433 0.49911 0.0
H78 H 0.56892 0.0674 0.46418 0.0
H79 H 0.48907 0.9979 0.4624 0.0
N80 N 0.49735 0.01628 0.54982 0.0
N81 N 0.46717 1.00016 0.59588 0.0
C82 C 0.48977 0.02186 0.58121 0.0
C83 C 0.47918 0.98985 0.54446 0.0
C84 C 0.46029 0.97987 0.57288 0.0
C85 C 0.56665 0.03133 0.53829 0.0
O86 O 0.5483 1.00968 0.5216 0.0
H87 H 0.49952 0.04208 0.59184 0.0
H88 H 0.47883 0.97895 0.52104 0.0
O89 O 0.51007 0.07069 0.51813 0.0
H90 H 0.5152 1.00219 0.40049 0.0
H91 H 0.4424 0.95959 0.57583 0.0
Cu92 Cu 0.02717 0.56688 0.54556 0.0
N93 N 0.04907 0.55567 0.57306 0.0
N94 N 0.05655 0.52796 0.60995 0.0
C95 C 0.03828 0.53628 0.59943 0.0
C96 C 0.0799 0.54309 0.5896 0.0
C97 C 0.07528 0.55996 0.56711 0.0
O98 O 0.99402 0.53106 0.5395 0.0
C99 C 0.04612 0.61668 0.5777 0.0
O100 O 0.06985 0.61645 0.57302 0.0
H101 H 0.01669 0.52709 0.60898 0.0
H102 H 0.08964 0.57345 0.54674 0.0
N103 N 0.0404 0.58303 0.49945 0.0
N104 N 0.04026 0.60313 0.44715 0.0
C105 C 0.02735 0.59337 0.47921 0.0
C106 C 0.06262 0.58669 0.47953 0.0
C107 C 0.06263 0.59908 0.44752 0.0
C108 C 0.98832 0.51966 0.50941 0.0
O109 O 0.99335 0.53471 0.4806 0.0
H110 H 1.00842 0.59339 0.48783 0.0
H111 H 0.07756 0.58045 0.48732 0.0
O112 O 0.02306 0.59528 0.57022 0.0
H113 H 0.09887 0.54159 0.59015 0.0
H114 H 0.07759 0.604 0.4258 0.0
Cu115 Cu 0.51062 0.56731 0.5385 0.0
N116 N 0.54074 0.59493 0.51371 0.0
N117 N 0.58434 0.62724 0.49977 0.0
C118 C 0.56794 0.60141 0.51161 0.0
C119 C 0.56685 0.63717 0.49413 0.0
C120 C 0.54 0.61719 0.50268 0.0
O121 O 0.5173 0.58112 0.5877 0.0
C122 C 0.47967 0.55166 0.47771 0.0
O123 O 0.50466 0.55656 0.46681 0.0
H124 H 0.57574 0.58821 0.5206 0.0
H125 H 0.52134 0.6192 0.50307 0.0
N126 N 0.50847 0.53364 0.54043 0.0
N127 N 0.47623 0.48963 0.54313 0.0
C128 C 0.4855 0.51413 0.5574 0.0
C129 C 0.51497 0.52092 0.5153 0.0
C130 C 0.49496 0.49363 0.51687 0.0
C131 C 0.53734 0.57936 0.60278 0.0
O132 O 0.54849 0.56672 0.58603 0.0
H133 H 0.47294 0.51876 0.57535 0.0
H134 H 0.53032 0.53111 0.4941 0.0
O135 O 0.47681 0.55769 0.50968 0.0
H136 H 0.5731 0.65761 0.48523 0.0
H137 H 0.49266 0.47863 0.49778 0.0
Cu138 Cu 0.70192 0.88848 0.36101 0.0
N139 N 0.71832 0.923 0.33983 0.0
N140 N 0.71778 0.95925 0.31744 0.0
C141 C 0.70412 0.93667 0.33779 0.0
C142 C 0.74171 0.96017 0.30618 0.0
C143 C 0.74214 0.93775 0.32038 0.0
O144 O 0.6838 0.89383 0.40597 0.0
C145 C 0.70189 0.8648 0.2952 0.0
O146 O 0.72858 0.88142 0.30145 0.0
H147 H 0.68352 0.92957 0.34986 0.0
H148 H 0.75825 0.9323 0.31595 0.0
N149 N 0.72769 0.87796 0.37622 0.0
N150 N 0.74312 0.84839 0.38417 0.0
C151 C 0.72104 0.85176 0.37629 0.0
C152 C 0.75509 0.89191 0.38478 0.0
C153 C 0.76464 0.8736 0.39001 0.0
C154 C 0.70094 0.91348 0.42586 0.0
O155 O 0.72761 0.92641 0.41591 0.0
H156 H 0.70035 0.83545 0.36966 0.0
H157 H 0.76748 0.91379 0.38585 0.0
O158 O 0.6838 0.86331 0.31894 0.0
H159 H 0.75752 0.97575 0.28884 0.0
H160 H 0.78595 0.87854 0.39607 0.0
Cu161 Cu 0.19372 0.89594 0.38522 0.0
N162 N 0.15758 0.8753 0.36568 0.0
N163 N 0.12104 0.83828 0.34274 0.0
C164 C 0.1484 0.85041 0.35207 0.0
C165 C 0.11276 0.85647 0.35076 0.0
C166 C 0.13525 0.87919 0.36489 0.0
O167 O 0.19009 0.87428 0.42874 0.0
C168 C 0.21508 0.91233 0.31866 0.0
O169 O 0.19281 0.91541 0.31962 0.0
H170 H 0.16136 0.84095 0.35047 0.0
H171 H 0.13506 0.89692 0.37465 0.0
N172 N 0.20664 0.93257 0.39798 0.0
N173 N 0.23864 0.97617 0.40922 0.0
C174 C 0.23434 0.95142 0.39994 0.0
C175 C 0.19285 0.94599 0.40602 0.0
C176 C 0.21243 0.97269 0.41316 0.0
C177 C 0.17334 0.8753 0.45193 0.0
O178 O 0.16332 0.89168 0.44563 0.0
H179 H 0.25108 0.94689 0.39492 0.0
H180 H 0.17019 0.9371 0.40667 0.0
O181 O 0.22006 0.90165 0.34588 0.0
H182 H 0.09183 0.85353 0.34708 0.0
H183 H 0.20764 0.98841 0.42018 0.0
Cu184 Cu 0.16481 0.37291 0.374 0.0
N185 N 0.14968 0.35308 0.33322 0.0
N186 N 0.13457 0.3444 0.27751 0.0
C187 C 0.14696 0.36354 0.3023 0.0
C188 C 0.12928 0.32089 0.29363 0.0
C189 C 0.13874 0.32634 0.32803 0.0
O190 O 0.13638 0.381 0.39378 0.0
C191 C 0.22149 0.41711 0.38098 0.0
O192 O 0.21506 0.41614 0.41484 0.0
H193 H 0.1532 0.38473 0.29853 0.0
H194 H 0.13743 0.31184 0.34794 0.0
N195 N 0.17122 0.35193 0.40751 0.0
N196 N 0.19624 0.34308 0.44679 0.0
C197 C 0.19667 0.35529 0.41562 0.0
C198 C 0.15373 0.3361 0.43384 0.0
C199 C 0.16912 0.33057 0.45811 0.0
C200 C 0.12898 0.39743 0.38107 0.0
O201 O 0.14335 0.41353 0.35421 0.0
H202 H 0.21574 0.36849 0.40067 0.0
H203 H 0.13198 0.33113 0.43692 0.0
O204 O 0.20186 0.4032 0.35948 0.0
H205 H 0.11921 0.30116 0.28156 0.0
H206 H 0.16159 0.32073 0.48384 0.0
Cu207 Cu 0.19427 0.3612 0.85709 0.0
N208 N 0.19542 0.34349 0.81618 0.0
N209 N 0.21301 0.34067 0.76347 0.0
C210 C 0.2108 0.35715 0.78721 0.0
C211 C 0.19816 0.31549 0.77817 0.0
C212 C 0.18746 0.3173 0.81074 0.0
O213 O 0.23258 0.37442 0.8773 0.0
C214 C 0.15191 0.36966 0.83134 0.0
O215 O 0.1425 0.34364 0.82709 0.0
H216 H 0.22189 0.37908 0.78495 0.0
H217 H 0.1763 0.30094 0.82987 0.0
N218 N 0.16875 0.33922 0.8926 0.0
N219 N 0.13947 0.33324 0.93794 0.0
C220 C 0.16384 0.35046 0.92104 0.0
C221 C 0.14692 0.31368 0.89177 0.0
C222 C 0.12875 0.30997 0.91974 0.0
C223 C 0.23672 0.35548 0.88982 0.0
O224 O 0.21569 0.33045 0.88992 0.0
H225 H 0.17614 0.37188 0.92656 0.0
H226 H 0.14284 0.29978 0.87043 0.0
O227 O 0.17718 0.38408 0.84273 0.0
H228 H 0.19604 0.29714 0.76694 0.0
H229 H 0.1082 0.29236 0.92455 0.0
Cu230 Cu 0.69692 0.8906 0.8582 0.0
N231 N 0.71449 0.87236 0.8387 0.0
N232 N 0.71455 0.83504 0.82009 0.0
C233 C 0.7034 0.84529 0.84306 0.0
C234 C 0.73366 0.85649 0.80048 0.0
C235 C 0.73368 0.87954 0.81211 0.0
O236 O 0.67658 0.86536 0.9008 0.0
C237 C 0.69764 0.9185 0.79407 0.0
O238 O 0.72424 0.93056 0.80286 0.0
H239 H 0.68569 0.83291 0.86065 0.0
H240 H 0.74559 0.89965 0.80038 0.0
N241 N 0.72145 0.92506 0.87617 0.0
N242 N 0.73465 0.96715 0.89435 0.0
C243 C 0.71329 0.94341 0.883 0.0
C244 C 0.74907 0.93749 0.88346 0.0
C245 C 0.75725 0.96344 0.89484 0.0
C246 C 0.68564 0.87079 0.93293 0.0
O247 O 0.70446 0.89588 0.94006 0.0
H248 H 0.69187 0.93923 0.87966 0.0
H249 H 0.76235 0.92849 0.88033 0.0
O250 O 0.67979 0.89929 0.81522 0.0
H251 H 0.74591 0.85542 0.77846 0.0
H252 H 0.77832 0.97853 0.90214 0.0
Cu253 Cu 0.18896 0.88294 0.8782 0.0
N254 N 0.16861 0.88654 0.84067 0.0
N255 N 0.14454 0.8756 0.78982 0.0
C256 C 0.15891 0.86919 0.81346 0.0
C257 C 0.14543 0.89811 0.8029 0.0
C258 C 0.16026 0.90479 0.83415 0.0
O259 O 0.16994 0.84346 0.88496 0.0
C260 C 0.2399 0.92719 0.86179 0.0
O261 O 0.22425 0.93817 0.86912 0.0
H262 H 0.16254 0.85219 0.81113 0.0
H263 H 0.16447 0.92162 0.85096 0.0
N264 N 0.18821 0.89987 0.92071 0.0
N265 N 0.20247 0.92008 0.9734 0.0
C266 C 0.20747 0.90725 0.94661 0.0
C267 C 0.1704 0.90837 0.93133 0.0
C268 C 0.17898 0.92063 0.96372 0.0
C269 C 0.15527 0.83175 0.91282 0.0
O270 O 0.15925 0.84607 0.94141 0.0
H271 H 0.22529 0.90392 0.94513 0.0
H272 H 0.1527 0.90629 0.91639 0.0
O273 O 0.22845 0.90135 0.86299 0.0
H274 H 0.13565 0.90882 0.79121 0.0
H275 H 0.16864 0.92941 0.97871 0.0
Cu276 Cu 0.38026 0.22191 0.72759 0.0
N277 N 0.40126 0.25649 0.70797 0.0
N278 N 0.40224 0.29099 0.6779 0.0
C279 C 0.38791 0.26426 0.68516 0.0
C280 C 0.42606 0.30064 0.69688 0.0
C281 C 0.42547 0.2791 0.71545 0.0
O282 O 0.36122 0.22877 0.76964 0.0
C283 C 0.38381 0.20424 0.66073 0.0
O284 O 0.40986 0.21997 0.67067 0.0
H285 H 0.36657 0.25076 0.6769 0.0
H286 H 0.44049 0.28026 0.73479 0.0
N287 N 0.40012 0.20535 0.74402 0.0
N288 N 0.40662 0.16944 0.74698 0.0
C289 C 0.38779 0.17812 0.74451 0.0
C290 C 0.42789 0.21453 0.74676 0.0
C291 C 0.43195 0.19236 0.74892 0.0
C292 C 0.37835 0.24471 0.79307 0.0
O293 O 0.40507 0.25195 0.78907 0.0
H294 H 0.36544 0.16507 0.74074 0.0
H295 H 0.44409 0.23562 0.74435 0.0
O296 O 0.36392 0.20075 0.68279 0.0
H297 H 0.44187 0.32182 0.69885 0.0
H298 H 0.45215 0.19319 0.7494 0.0
Cu299 Cu 0.85351 0.21506 0.6861 0.0
N300 N 0.8517 0.23395 0.64574 0.0
N301 N 0.86877 0.26444 0.6007 0.0
C302 C 0.87482 0.25206 0.62725 0.0
C303 C 0.84047 0.2533 0.6021 0.0
C304 C 0.82999 0.23456 0.63003 0.0
O305 O 0.89344 0.23987 0.70189 0.0
C306 C 0.81048 0.16226 0.66932 0.0
O307 O 0.79673 0.17562 0.67282 0.0
H308 H 0.89585 0.2562 0.63342 0.0
H309 H 0.8082 0.22275 0.63868 0.0
N310 N 0.82952 0.21396 0.72303 0.0
N311 N 0.80259 0.20024 0.77266 0.0
C312 C 0.82173 0.19774 0.75237 0.0
C313 C 0.81478 0.2271 0.72465 0.0
C314 C 0.79828 0.21877 0.75511 0.0
C315 C 0.89845 0.26354 0.71173 0.0
O316 O 0.87718 0.26814 0.71285 0.0
H317 H 0.82975 0.18416 0.75837 0.0
H318 H 0.81553 0.24133 0.70471 0.0
O319 O 0.83744 0.17561 0.67309 0.0
H320 H 0.82832 0.25891 0.58499 0.0
H321 H 0.78356 0.22534 0.76299 0.0
Cu322 Cu 0.85034 0.69608 0.68276 0.0
N323 N 0.83485 0.67559 0.64228 0.0
N324 N 0.81854 0.66736 0.58702 0.0
C325 C 0.83148 0.68626 0.6119 0.0
C326 C 0.81357 0.64373 0.60246 0.0
C327 C 0.82376 0.64889 0.63656 0.0
O328 O 0.81975 0.69999 0.70494 0.0
C329 C 0.90226 0.7224 0.64832 0.0
O330 O 0.89143 0.69796 0.63541 0.0
H331 H 0.83759 0.70745 0.60869 0.0
H332 H 0.82263 0.63414 0.65588 0.0
N333 N 0.86161 0.67941 0.71674 0.0
N334 N 0.88843 0.67869 0.76076 0.0
C335 C 0.88404 0.69412 0.73706 0.0
C336 C 0.85108 0.65352 0.72801 0.0
C337 C 0.86774 0.653 0.75512 0.0
C338 C 0.80623 0.71052 0.6907 0.0
O339 O 0.81573 0.72451 0.66083 0.0
H340 H 0.89687 0.71593 0.73441 0.0
H341 H 0.83241 0.63636 0.71788 0.0
O342 O 0.88687 0.72784 0.6687 0.0
H343 H 0.80301 0.62407 0.59023 0.0
H344 H 0.8644 0.6352 0.77007 0.0
Cu345 Cu 0.8434 0.70294 0.15249 0.0
N346 N 0.84651 0.68986 0.10819 0.0
N347 N 0.86987 0.68621 0.06129 0.0
C348 C 0.86997 0.70222 0.08756 0.0
C349 C 0.84507 0.66287 0.06535 0.0
C350 C 0.83071 0.66517 0.09434 0.0
O351 O 0.87979 0.71296 0.17673 0.0
C352 C 0.80202 0.71721 0.13522 0.0
O353 O 0.78985 0.69147 0.12694 0.0
H354 H 0.88777 0.72178 0.09361 0.0
H355 H 0.81106 0.64938 0.10581 0.0
N356 N 0.8171 0.67613 0.18307 0.0
N357 N 0.79171 0.66406 0.23335 0.0
C358 C 0.80297 0.6825 0.20678 0.0
C359 C 0.81455 0.6525 0.19508 0.0
C360 C 0.79889 0.64503 0.22645 0.0
C361 C 0.88805 0.69531 0.17461 0.0
O362 O 0.87336 0.67371 0.15561 0.0
H363 H 0.80336 0.70175 0.20657 0.0
H364 H 0.82503 0.64246 0.18357 0.0
O365 O 0.82769 0.72845 0.1458 0.0
H366 H 0.83818 0.64508 0.04931 0.0
H367 H 0.79429 0.62782 0.2436 0.0
Cu368 Cu 0.35918 0.23202 0.22541 0.0
N369 N 0.33402 0.19542 0.21417 0.0
N370 N 0.32113 0.15187 0.203 0.0
C371 C 0.34218 0.17649 0.21254 0.0
C372 C 0.29872 0.15553 0.19846 0.0
C373 C 0.30667 0.18227 0.20541 0.0
O374 O 0.38031 0.22553 0.26467 0.0
C375 C 0.35664 0.25141 0.15676 0.0
O376 O 0.33031 0.23901 0.16804 0.0
H377 H 0.36351 0.18099 0.21753 0.0
H378 H 0.29345 0.19141 0.20371 0.0
N379 N 0.3431 0.25202 0.24521 0.0
N380 N 0.34019 0.28843 0.26274 0.0
C381 C 0.35744 0.27884 0.25258 0.0
C382 C 0.31583 0.24437 0.25123 0.0
C383 C 0.31398 0.26666 0.26191 0.0
C384 C 0.36584 0.21443 0.29349 0.0
O385 O 0.34056 0.21167 0.29604 0.0
H386 H 0.38004 0.29134 0.24913 0.0
H387 H 0.29841 0.22417 0.24739 0.0
O388 O 0.37515 0.25134 0.1778 0.0
H389 H 0.27795 0.14001 0.19076 0.0
H390 H 0.29474 0.26683 0.26836 0.0
Cu391 Cu 0.85619 0.24644 0.18565 0.0
N392 N 0.83245 0.24375 0.14862 0.0
N393 N 0.80359 0.22469 0.10291 0.0
C394 C 0.81954 0.22185 0.12792 0.0
C395 C 0.80675 0.24958 0.10824 0.0
C396 C 0.82456 0.26128 0.13638 0.0
O397 O 0.84085 0.20889 0.2012 0.0
C398 C 0.90558 0.29014 0.16242 0.0
O399 O 0.88967 0.30123 0.167 0.0
H400 H 0.82169 0.20404 0.13152 0.0
H401 H 0.83134 0.28114 0.14701 0.0
N402 N 0.85597 0.26709 0.22384 0.0
N403 N 0.87102 0.29063 0.27382 0.0
C404 C 0.87554 0.27606 0.24926 0.0
C405 C 0.83861 0.27669 0.23206 0.0
C406 C 0.8478 0.29117 0.26294 0.0
C407 C 0.83156 0.20037 0.23259 0.0
O408 O 0.84072 0.21743 0.2588 0.0
H409 H 0.89297 0.2721 0.24932 0.0
H410 H 0.82064 0.27348 0.21673 0.0
O411 O 0.8948 0.26463 0.16775 0.0
H412 H 0.79724 0.25897 0.09269 0.0
H413 H 0.83789 0.30106 0.27641 0.0
Mn414 Mn 0.01733 0.68625 0.2683 0.0
Mn415 Mn 0.95314 0.63137 0.28001 0.0
C416 C 0.9786 0.68578 0.24106 0.0
C417 C 0.05034 0.72928 0.29112 0.0
C418 C 0.99742 0.63248 0.22832 0.0
O419 O 0.02294 0.66581 0.31016 0.0
O420 O 0.97848 0.63193 0.319 0.0
C421 C 0.93689 0.64759 0.34653 0.0
N422 N 0.93165 0.64011 0.31205 0.0
C423 C 0.88962 0.64376 0.31306 0.0
C424 C 0.89445 0.65129 0.34867 0.0
C425 C 0.91821 0.65326 0.36545 0.0
C426 C 0.90892 0.63827 0.29559 0.0
H427 H 0.95523 0.64932 0.35946 0.0
C428 C 1.00456 0.64486 0.32762 0.0
O429 O 0.05834 0.71645 0.26977 0.0
O430 O 0.02391 0.71682 0.29962 0.0
N431 N 0.92634 0.62791 0.24519 0.0
C432 C 0.92514 0.62114 0.21045 0.0
C433 C 0.90281 0.61868 0.18973 0.0
C434 C 0.88185 0.62299 0.20497 0.0
C435 C 0.88332 0.62956 0.24089 0.0
C436 C 0.90596 0.63154 0.2603 0.0
H437 H 0.94119 0.61782 0.19855 0.0
O438 O 1.00414 0.70231 0.23024 0.0
O439 O 0.97656 0.67003 0.2679 0.0
O440 O 0.01656 0.65741 0.2329 0.0
O441 O 0.97389 0.62126 0.24562 0.0
C442 C 0.86344 0.63464 0.25805 0.0
C443 C 0.86663 0.64181 0.29407 0.0
H444 H 0.88016 0.65578 0.36332 0.0
H445 H 0.92217 0.65921 0.39287 0.0
H446 H 0.90182 0.6136 0.16203 0.0
H447 H 0.8648 0.62132 0.18883 0.0
H448 H 0.84579 0.63333 0.2437 0.0
H449 H 0.85136 0.64594 0.30685 0.0
Mn450 Mn 0.37397 0.44042 0.31881 0.0
Mn451 Mn 0.36757 0.49641 0.30659 0.0
C452 C 0.33407 0.44106 0.34015 0.0
C453 C 0.36722 0.39783 0.29938 0.0
C454 C 0.40296 0.49204 0.3651 0.0
O455 O 0.40327 0.46144 0.27907 0.0
O456 O 0.39772 0.49812 0.27433 0.0
C457 C 0.34562 0.48424 0.23364 0.0
N458 N 0.34268 0.48972 0.26798 0.0
C459 C 0.29803 0.48668 0.25612 0.0
C460 C 0.30069 0.48119 0.22058 0.0
C461 C 0.32457 0.47991 0.20933 0.0
C462 C 0.3197 0.49083 0.27914 0.0
H463 H 0.36384 0.48309 0.22486 0.0
C464 C 0.40953 0.48444 0.26495 0.0
O465 O 0.38622 0.41216 0.32232 0.0
O466 O 0.35282 0.40855 0.28708 0.0
N467 N 0.33931 0.498 0.33519 0.0
C468 C 0.33991 0.50347 0.37037 0.0
C469 C 0.31752 0.50541 0.38583 0.0
C470 C 0.29491 0.50201 0.36492 0.0
C471 C 0.29507 0.49702 0.32863 0.0
C472 C 0.3181 0.49557 0.31462 0.0
H473 H 0.35719 0.50608 0.38662 0.0
O474 O 0.34122 0.42415 0.35327 0.0
O475 O 0.35027 0.45697 0.31457 0.0
O476 O 0.39889 0.4685 0.35664 0.0
O477 O 0.39255 0.50438 0.3477 0.0
C478 C 0.27316 0.49317 0.30588 0.0
C479 C 0.27458 0.48791 0.26968 0.0
H480 H 0.28447 0.47778 0.20176 0.0
H481 H 0.32671 0.47556 0.18198 0.0
H482 H 0.31761 0.50937 0.41384 0.0
H483 H 0.27754 0.50324 0.37702 0.0
H484 H 0.255 0.49401 0.316 0.0
H485 H 0.25749 0.48476 0.25251 0.0
Mn486 Mn 0.67706 0.07244 0.267 0.0
Mn487 Mn 0.68688 0.13433 0.28594 0.0
C488 C 0.71938 0.11046 0.25214 0.0
C489 C 0.68083 0.03489 0.2845 0.0
C490 C 0.65175 0.10131 0.22439 0.0
O491 O 0.64519 0.06377 0.30244 0.0
O492 O 0.65544 0.1062 0.31606 0.0
C493 C 0.70705 0.1383 0.35934 0.0
N494 N 0.71117 0.14844 0.32551 0.0
C495 C 0.75595 0.1866 0.34009 0.0
C496 C 0.75212 0.17668 0.37516 0.0
C497 C 0.72758 0.15239 0.38479 0.0
C498 C 0.7347 0.17177 0.31593 0.0
H499 H 0.68824 0.11961 0.36681 0.0
C500 C 0.64051 0.08031 0.31987 0.0
O501 O 0.66402 0.03314 0.25923 0.0
O502 O 0.69425 0.05782 0.30033 0.0
N503 N 0.71666 0.16335 0.25897 0.0
C504 C 0.71795 0.16916 0.22358 0.0
C505 C 0.7417 0.19224 0.20928 0.0
C506 C 0.76369 0.20921 0.23156 0.0
C507 C 0.76172 0.20301 0.26798 0.0
C508 C 0.73754 0.17975 0.28071 0.0
H509 H 0.70112 0.15614 0.20634 0.0
O510 O 0.71163 0.08777 0.23636 0.0
O511 O 0.70208 0.11022 0.27636 0.0
O512 O 0.65597 0.08118 0.2286 0.0
O513 O 0.66212 0.1218 0.24457 0.0
C514 C 0.78312 0.21855 0.292 0.0
C515 C 0.78026 0.21035 0.328 0.0
H516 H 0.76797 0.18741 0.39482 0.0
H517 H 0.72452 0.14453 0.41176 0.0
H518 H 0.74313 0.19686 0.18114 0.0
H519 H 0.78211 0.22675 0.22031 0.0
H520 H 0.80207 0.23657 0.28299 0.0
H521 H 0.79707 0.22226 0.34605 0.0
Mn522 Mn 0.03502 0.41583 0.7831 0.0
Mn523 Mn 0.06712 0.40168 0.71592 0.0
C524 C 0.06663 0.39965 0.79553 0.0
C525 C 0.02972 0.44278 0.82749 0.0
C526 C 1.00523 0.36437 0.73647 0.0
O527 O 0.03252 0.43865 0.7406 0.0
O528 O 0.05542 0.42828 0.69908 0.0
C529 C 0.11784 0.45598 0.70627 0.0
N530 N 0.1061 0.42879 0.71265 0.0
C531 C 0.15182 0.43238 0.71517 0.0
C532 C 0.16435 0.46037 0.70832 0.0
C533 C 0.14728 0.47222 0.70396 0.0
C534 C 0.12235 0.41721 0.7171 0.0
H535 H 0.10486 0.46524 0.70302 0.0
C536 C 0.04331 0.44161 0.70918 0.0
O537 O 1.0086 0.42194 0.81384 0.0
O538 O 0.05433 0.44914 0.81411 0.0
N539 N 0.08027 0.37708 0.72836 0.0
C540 C 0.06499 0.35005 0.73661 0.0
C541 C 0.07899 0.3353 0.74263 0.0
C542 C 0.1085 0.3484 0.73987 0.0
C543 C 0.12377 0.37615 0.73103 0.0
C544 C 0.10867 0.38978 0.72511 0.0
H545 H 0.04231 0.33982 0.73879 0.0
O546 O 0.04678 0.39595 0.81793 0.0
O547 O 0.06689 0.41187 0.76594 0.0
O548 O 1.00539 0.37938 0.76153 0.0
O549 O 0.02704 0.37125 0.71684 0.0
C550 C 0.15341 0.39092 0.72855 0.0
C551 C 0.16743 0.41903 0.72071 0.0
H552 H 0.18706 0.47299 0.70664 0.0
H553 H 0.1568 0.49383 0.69887 0.0
H554 H 0.06706 0.3139 0.74951 0.0
H555 H 0.11924 0.337 0.74487 0.0
H556 H 0.16565 0.38095 0.73315 0.0
H557 H 0.19024 0.43024 0.71936 0.0
Mn558 Mn 0.64698 0.67031 0.75557 0.0
Mn559 Mn 0.6937 0.67981 0.82028 0.0
C560 C 0.69355 0.68258 0.74006 0.0
C561 C 0.61016 0.64173 0.71725 0.0
C562 C 0.67739 0.72198 0.79976 0.0
O563 O 0.62165 0.65281 0.80008 0.0
O564 O 0.65444 0.65754 0.8393 0.0
C565 C 0.681 0.6229 0.82888 0.0
N566 N 0.69999 0.64959 0.8226 0.0
C567 C 0.73836 0.64028 0.8195 0.0
C568 C 0.71924 0.6127 0.82618 0.0
C569 C 0.69043 0.60397 0.83077 0.0
C570 C 0.72772 0.65818 0.81793 0.0
H571 H 0.65884 0.61612 0.83243 0.0
C572 C 0.62875 0.64881 0.83092 0.0
O573 O 0.61375 0.66507 0.72685 0.0
O574 O 0.62763 0.63478 0.73036 0.0
N575 N 0.73269 0.70079 0.80683 0.0
C576 C 0.74818 0.72787 0.799 0.0
C577 C 0.77735 0.73975 0.79289 0.0
C578 C 0.79036 0.7238 0.79543 0.0
C579 C 0.77408 0.69609 0.80414 0.0
C580 C 0.74511 0.68539 0.8101 0.0
H581 H 0.73836 0.74029 0.79723 0.0
O582 O 0.67739 0.68579 0.71785 0.0
O583 O 0.68169 0.67119 0.77052 0.0
O584 O 0.66114 0.70887 0.77443 0.0
O585 O 0.68936 0.71239 0.81953 0.0
C586 C 0.78534 0.67853 0.80628 0.0
C587 C 0.76747 0.65063 0.81383 0.0
H588 H 0.72641 0.59803 0.82758 0.0
H589 H 0.67553 0.58271 0.83578 0.0
H590 H 0.78977 0.76116 0.78621 0.0
H591 H 0.81282 0.733 0.79037 0.0
H592 H 0.80763 0.6862 0.80161 0.0
H593 H 0.77631 0.63727 0.81491 0.0
Mn594 Mn 0.39885 0.0218 0.7886 0.0
Mn595 Mn 0.34463 0.99876 0.73189 0.0
C596 C 0.35281 0.99994 0.81007 0.0
C597 C 0.43363 0.02196 0.8237 0.0
C598 C 0.3819 0.05822 0.74781 0.0
O599 O 0.41675 0.019 0.74228 0.0
O600 O 0.3787 1.00227 0.70717 0.0
C601 C 0.3363 0.94374 0.72022 0.0
N602 N 0.32583 0.96001 0.73032 0.0
C603 C 0.27966 0.92143 0.7408 0.0
C604 C 0.28991 0.90429 0.73021 0.0
C605 C 0.31837 0.9155 0.72001 0.0
C606 C 0.29852 0.94942 0.74045 0.0
H607 H 0.35817 0.95223 0.71246 0.0
C608 C 0.40467 1.00979 0.71272 0.0
O609 O 0.43577 0.04375 0.80966 0.0
O610 O 0.4114 0.99903 0.81607 0.0
N611 N 0.31023 0.99384 0.75261 0.0
C612 C 0.30404 0.013 0.76401 0.0
C613 C 0.27658 1.00506 0.77603 0.0
C614 C 0.25571 0.97755 0.77595 0.0
C615 C 0.2625 0.95821 0.76386 0.0
C616 C 0.2902 0.96735 0.75202 0.0
H617 H 0.31995 0.03419 0.76408 0.0
O618 O 0.37306 0.0174 0.82947 0.0
O619 O 0.35988 0.99644 0.77845 0.0
O620 O 0.39661 0.05378 0.76953 0.0
O621 O 0.36157 0.03917 0.73135 0.0
C622 C 0.24301 0.93018 0.7637 0.0
C623 C 0.25161 0.91179 0.75228 0.0
H624 H 0.27618 0.8825 0.73012 0.0
H625 H 0.32648 0.9024 0.71202 0.0
H626 H 0.27151 0.0201 0.7854 0.0
H627 H 0.23461 0.97147 0.78553 0.0
H628 H 0.22147 0.9225 0.77285 0.0
H629 H 0.23655 0.89026 0.75282 0.0
Mn630 Mn 0.69569 1.00821 0.60506 0.0
Mn631 Mn 0.62977 0.95378 0.60672 0.0
C632 C 0.658 0.01193 0.58019 0.0
C633 C 0.7323 0.04955 0.63011 0.0
C634 C 0.67557 0.95866 0.55441 0.0
O635 O 0.69717 0.98334 0.64545 0.0
O636 O 0.65211 0.94921 0.64599 0.0
C637 C 0.60992 0.96251 0.67615 0.0
N638 N 0.60681 0.95935 0.64042 0.0
C639 C 0.56498 0.96332 0.64246 0.0
C640 C 0.56763 0.96641 0.67929 0.0
C641 C 0.59024 0.96606 0.69618 0.0
C642 C 0.58518 0.95976 0.62388 0.0
H643 H 0.62731 0.96241 0.68931 0.0
C644 C 0.67695 0.96113 0.65914 0.0
O645 O 0.73778 0.03577 0.60734 0.0
O646 O 0.70595 0.03871 0.63946 0.0
N647 N 0.60563 0.95565 0.5716 0.0
C648 C 0.60689 0.95391 0.53566 0.0
C649 C 0.58612 0.95459 0.51476 0.0
C650 C 0.56422 0.95694 0.53096 0.0
C651 C 0.56328 0.95859 0.56796 0.0
C652 C 0.58445 0.95761 0.58748 0.0
H653 H 0.62367 0.95217 0.52295 0.0
O654 O 0.68392 0.02806 0.57014 0.0
O655 O 0.65484 0.99356 0.60382 0.0
O656 O 0.69457 0.98206 0.56507 0.0
O657 O 0.65115 0.94591 0.56947 0.0
C658 C 0.54244 0.96166 0.58619 0.0
C659 C 0.54333 0.96409 0.62339 0.0
H660 H 0.55257 0.96927 0.69482 0.0
H661 H 0.59252 0.96858 0.72457 0.0
H662 H 0.58705 0.95341 0.4862 0.0
H663 H 0.54837 0.95768 0.51471 0.0
H664 H 0.52585 0.96256 0.5718 0.0
H665 H 0.52742 0.96683 0.63705 0.0
Mn666 Mn 0.06364 0.76602 0.6183 0.0
Mn667 Mn 0.05427 0.81961 0.60047 0.0
C668 C 0.02125 0.76453 0.63358 0.0
C669 C 0.05998 0.72375 0.60413 0.0
C670 C 0.0876 0.81803 0.66329 0.0
O671 O 0.09529 0.78794 0.58077 0.0
O672 O 0.08733 0.82304 0.57326 0.0
C673 C 0.03815 0.80692 0.52545 0.0
N674 N 0.03211 0.81173 0.5588 0.0
C675 C 0.98732 0.8057 0.54056 0.0
C676 C 0.99315 0.80085 0.50597 0.0
C677 C 0.01866 0.80143 0.49841 0.0
C678 C 1.0076 0.81117 0.56637 0.0
H679 H 0.05765 0.80719 0.51954 0.0
C680 C 0.10137 0.81097 0.56666 0.0
O681 O 0.0775 0.73966 0.62744 0.0
O682 O 0.04563 0.73298 0.58767 0.0
N683 N 0.02305 0.81913 0.62456 0.0
C684 C 0.02043 0.82373 0.65941 0.0
C685 C 0.99593 0.82352 0.67144 0.0
C686 C 0.97452 0.81882 0.64751 0.0
C687 C 0.97793 0.81465 0.61165 0.0
C688 C 1.00293 0.81535 0.60113 0.0
H689 H 0.03679 0.82729 0.67794 0.0
O690 O 0.02888 0.74895 0.64969 0.0
O691 O 0.03857 0.78049 0.6089 0.0
O692 O 0.08527 0.79495 0.65638 0.0
O693 O 0.07656 0.82896 0.64421 0.0
C694 C 0.95736 0.80947 0.58603 0.0
C695 C 0.96203 0.80494 0.55053 0.0
H696 H 0.97812 0.79649 0.48507 0.0
H697 H 0.02326 0.79759 0.47182 0.0
H698 H 0.99349 0.82683 0.69914 0.0
H699 H 0.95553 0.8184 0.65696 0.0
H700 H 0.93777 0.80867 0.59342 0.0
H701 H 0.94594 0.80072 0.53114 0.0
Mn702 Mn 0.32674 0.36797 0.59211 0.0
Mn703 Mn 0.32323 0.42515 0.58967 0.0
C704 C 0.36162 0.40597 0.56315 0.0
C705 C 0.34447 0.34308 0.62017 0.0
C706 C 0.28751 0.37691 0.5435 0.0
O707 O 0.29856 0.36125 0.63173 0.0
O708 O 0.29768 0.40052 0.62872 0.0
C709 C 0.34939 0.44734 0.65861 0.0
N710 N 0.34939 0.44992 0.62264 0.0
C711 C 0.39219 0.49309 0.62311 0.0
C712 C 0.39252 0.49097 0.66017 0.0
C713 C 0.37103 0.46799 0.67798 0.0
C714 C 0.36989 0.47202 0.60524 0.0
H715 H 0.33307 0.4296 0.6724 0.0
C716 C 0.28957 0.37686 0.6425 0.0
O717 O 0.32328 0.33136 0.59887 0.0
O718 O 0.35388 0.36839 0.62636 0.0
N719 N 0.34732 0.45043 0.55367 0.0
C720 C 0.34523 0.44835 0.51773 0.0
C721 C 0.36559 0.46932 0.49594 0.0
C722 C 0.38798 0.49209 0.51132 0.0
C723 C 0.3899 0.49366 0.54835 0.0
C724 C 0.36878 0.47231 0.56873 0.0
H725 H 0.32841 0.43065 0.50578 0.0
O726 O 0.35687 0.38207 0.55462 0.0
O727 O 0.34497 0.40658 0.58759 0.0
O728 O 0.29657 0.3614 0.55508 0.0
O729 O 0.29637 0.40101 0.55439 0.0
C730 C 0.41227 0.51528 0.5658 0.0
C731 C 0.41343 0.51499 0.60315 0.0
H732 H 0.40933 0.50672 0.67519 0.0
H733 H 0.37123 0.46613 0.70657 0.0
H734 H 0.36416 0.46784 0.46735 0.0
H735 H 0.40371 0.50813 0.49448 0.0
H736 H 0.42889 0.53205 0.55074 0.0
H737 H 0.43097 0.53154 0.61623 0.0
Mn738 Mn 0.68989 0.77482 0.11651 0.0
Mn739 Mn 0.71861 0.7633 0.04262 0.0
C740 C 0.72384 0.76002 0.12186 0.0
C741 C 0.68933 0.80313 0.16416 0.0
C742 C 0.66011 0.72222 0.07136 0.0
O743 O 0.68118 0.79559 0.07609 0.0
O744 O 0.70044 0.78532 0.03005 0.0
C745 C 0.76324 0.82032 0.0295 0.0
N746 N 0.75547 0.79369 0.03463 0.0
C747 C 0.8034 0.80346 0.02739 0.0
C748 C 0.8119 0.83096 0.0218 0.0
C749 C 0.79173 0.83943 0.02301 0.0
C750 C 0.77474 0.78538 0.034 0.0
H751 H 0.74783 0.82693 0.03037 0.0
C752 C 0.68732 0.79689 0.04267 0.0
O753 O 0.6669 0.78133 0.1546 0.0
O754 O 0.71163 0.80929 0.14492 0.0
N755 N 0.73725 0.74254 0.04864 0.0
C756 C 0.72562 0.71528 0.05445 0.0
C757 C 0.74292 0.70348 0.05372 0.0
C758 C 0.77191 0.71971 0.04651 0.0
C759 C 0.78333 0.74761 0.03989 0.0
C760 C 0.76501 0.75821 0.04071 0.0
H761 H 0.70337 0.70265 0.05991 0.0
O762 O 0.70624 0.75663 0.14737 0.0
O763 O 0.72134 0.77215 0.09356 0.0
O764 O 0.65974 0.73674 0.0971 0.0
O765 O 0.68106 0.73063 0.04966 0.0
C766 C 0.81221 0.76537 0.03287 0.0
C767 C 0.82226 0.7933 0.02683 0.0
H768 H 0.83384 0.84575 0.01669 0.0
H769 H 0.79813 0.86063 0.01885 0.0
H770 H 0.73393 0.68192 0.0588 0.0
H771 H 0.78522 0.71057 0.04627 0.0
H772 H 0.8269 0.75779 0.03233 0.0
H773 H 0.84455 0.80679 0.02174 0.0
Mn774 Mn 0.30773 1.00351 0.13279 0.0
Mn775 Mn 0.35678 0.02144 0.1966 0.0
C776 C 0.35525 0.0215 0.11731 0.0
C777 C 0.27408 0.97403 0.09227 0.0
C778 C 0.32818 0.05437 0.17853 0.0
O779 O 0.28443 0.98192 0.17687 0.0
O780 O 0.31939 0.99341 0.21607 0.0
C781 C 0.35684 0.96956 0.20592 0.0
N782 N 0.37099 0.99672 0.19849 0.0
C783 C 0.41503 0.99703 0.19265 0.0
C784 C 0.40095 0.96909 0.20046 0.0
C785 C 0.37172 0.95529 0.20702 0.0
C786 C 0.39909 0.01018 0.19199 0.0
H787 H 0.33437 0.95885 0.21095 0.0
C788 C 0.29345 0.97969 0.20738 0.0
O789 O 0.27357 0.99478 0.10513 0.0
O790 O 0.29362 0.96939 0.10412 0.0
N791 N 0.39404 0.04799 0.18116 0.0
C792 C 0.4042 0.07462 0.17215 0.0
C793 C 0.43299 0.09115 0.16389 0.0
C794 C 0.45107 0.08022 0.16524 0.0
C795 C 0.44018 0.05283 0.17489 0.0
C796 C 0.41134 0.03738 0.18305 0.0
H797 H 0.39044 0.08317 0.17112 0.0
O798 O 0.33806 0.02355 0.09559 0.0
O799 O 0.34442 1.00974 0.14773 0.0
O800 O 0.3138 0.03926 0.1534 0.0
O801 O 0.34445 0.0492 0.19711 0.0
C802 C 0.45673 0.04014 0.17608 0.0
C803 C 0.44415 0.01225 0.18488 0.0
H804 H 0.41233 0.958 0.2012 0.0
H805 H 0.36068 0.93371 0.21289 0.0
H806 H 0.44122 0.11226 0.15642 0.0
H807 H 0.47321 0.09297 0.15853 0.0
H808 H 0.47907 0.05155 0.16974 0.0
H809 H 0.45701 1.00263 0.18519 0.0
Mn810 Mn 0.06942 0.37732 0.10879 0.0
Mn811 Mn 0.0231 0.36388 0.04314 0.0
C812 C 0.02203 0.35989 0.12202 0.0
C813 C 0.09427 0.36529 0.14809 0.0
C814 C 0.06387 0.42107 0.06711 0.0
O815 O 0.09062 0.3751 0.06499 0.0
O816 O 0.05634 0.36224 0.02454 0.0
C817 C 1.00657 0.30645 0.03091 0.0
N818 N 0.9993 0.32553 0.03895 0.0
C819 C 0.95024 0.2916 0.04404 0.0
C820 C 0.95718 0.27167 0.03529 0.0
C821 C 0.98548 0.27913 0.02883 0.0
C822 C 0.97215 0.31853 0.04552 0.0
H823 H 0.0283 0.31199 0.02635 0.0
C824 C 0.08074 0.36679 0.03414 0.0
O825 O 0.10307 0.39038 0.13894 0.0
O826 O 0.07175 0.34695 0.13288 0.0
N827 N 0.98963 0.36406 0.05834 0.0
C828 C 0.98662 0.38542 0.06864 0.0
C829 C 0.95967 0.38121 0.07724 0.0
C830 C 0.93609 0.35513 0.07505 0.0
C831 C 0.93967 0.33349 0.0642 0.0
C832 C 0.96701 0.33895 0.05563 0.0
H833 H 1.00461 0.40553 0.07041 0.0
O834 O 0.04078 0.37335 0.1456 0.0
O835 O 0.03162 0.35754 0.09151 0.0
O836 O 0.07419 0.41384 0.09231 0.0
O837 O 0.04585 0.40418 0.04579 0.0
C838 C 0.91724 0.30662 0.06218 0.0
C839 C 0.92252 0.28568 0.05217 0.0
H840 H 0.941 0.25055 0.03391 0.0
H841 H 0.99105 0.26383 0.02243 0.0
H842 H 0.95709 0.39801 0.08566 0.0
H843 H 0.91538 0.35191 0.08205 0.0
H844 H 0.89589 0.30176 0.06883 0.0
H845 H 0.90517 0.26504 0.0513 0.0
Mn846 Mn 0.37167 0.34546 0.96316 0.0
Mn847 Mn 0.30703 0.28938 0.96681 0.0
C848 C 0.33289 0.34618 0.93652 0.0
C849 C 0.40739 0.38842 0.98475 0.0
C850 C 0.35267 0.29485 0.9147 0.0
O851 O 0.37533 0.32327 1.0057 0.0
O852 O 0.33171 0.28702 1.00437 0.0
C853 C 0.28868 0.29831 0.03715 0.0
N854 N 0.28426 0.29403 1.00175 0.0
C855 C 0.23997 0.29333 1.00653 0.0
C856 C 0.24397 0.29756 0.04306 0.0
C857 C 0.26848 0.30015 0.0584 0.0
C858 C 0.26082 0.29167 0.98668 0.0
H859 H 0.30745 0.3003 0.04911 0.0
C860 C 0.35623 0.30005 0.01822 0.0
O861 O 0.4131 0.37381 0.96372 0.0
O862 O 0.38117 0.37756 0.99469 0.0
N863 N 0.28067 0.28874 0.93321 0.0
C864 C 0.28087 0.28654 0.89726 0.0
C865 C 0.25816 0.28445 0.87774 0.0
C866 C 0.23539 0.2844 0.89535 0.0
C867 C 0.23563 0.28668 0.93234 0.0
C868 C 0.2588 0.28862 0.95043 0.0
H869 H 0.29826 0.28651 0.88354 0.0
O870 O 0.35858 0.36262 0.92595 0.0
O871 O 0.33048 0.32928 0.96197 0.0
O872 O 0.37161 0.3182 0.92559 0.0
O873 O 0.32801 0.28228 0.92886 0.0
C874 C 0.21405 0.28761 0.95192 0.0
C875 C 0.21628 0.29106 0.98896 0.0
H876 H 0.22847 0.29905 0.05954 0.0
H877 H 0.27178 0.30354 0.08656 0.0
H878 H 0.2582 0.28285 0.84917 0.0
H879 H 0.21794 0.28281 0.88015 0.0
H880 H 0.19583 0.28609 0.9387 0.0
H881 H 0.19977 0.29218 1.00363 0.0
Mn882 Mn 0.71829 0.09583 0.95418 0.0
Mn883 Mn 0.69019 0.13665 0.94325 0.0
C884 C 0.67364 0.0829 0.97848 0.0
C885 C 0.72564 0.06063 0.93414 0.0
C886 C 0.73583 0.14782 0.99646 0.0
O887 O 0.74235 0.12131 0.91301 0.0
O888 O 0.72045 0.14578 0.90729 0.0
C889 C 0.66376 0.1166 0.87378 0.0
N890 N 0.6617 0.12231 0.90826 0.0
C891 C 0.61409 0.11292 0.90078 0.0
C892 C 0.61564 0.10693 0.86514 0.0
C893 C 0.64052 0.10856 0.85167 0.0
C894 C 0.63767 0.12013 0.92172 0.0
H895 H 0.68305 0.11834 0.86324 0.0
C896 C 0.73929 0.13993 0.89773 0.0
O897 O 0.74255 0.07846 0.95629 0.0
O898 O 0.70489 0.06359 0.92319 0.0
N899 N 0.66062 0.13088 0.97572 0.0
C900 C 0.66224 0.13622 1.01101 0.0
C901 C 0.63926 0.13578 0.0286 0.0
C902 C 0.6152 0.13051 1.00952 0.0
C903 C 0.6139 0.12475 0.97329 0.0
C904 C 0.6373 0.12518 0.95732 0.0
H905 H 0.68109 0.14121 0.02549 0.0
O906 O 0.68858 0.07274 0.9908 0.0
O907 O 0.68519 0.1003 0.95222 0.0
O908 O 0.73816 0.12692 0.98999 0.0
O909 O 0.71877 0.15315 0.98012 0.0
C910 C 0.5904 0.11878 0.95232 0.0
C911 C 0.59024 0.11233 0.91629 0.0
H912 H 0.5979 0.1011 0.84789 0.0
H913 H 0.64189 0.10397 0.8242 0.0
H914 H 0.6403 0.14002 0.05661 0.0
H915 H 0.59776 0.13077 0.023 0.0
H916 H 0.57226 0.11891 0.96373 0.0
H917 H 0.57179 0.10723 0.90068 0.0
Mn918 Mn 1.00261 0.69942 0.9232 0.0
Mn919 Mn 1.00736 0.76082 0.91962 0.0
C920 C 0.04463 0.73755 0.90531 0.0
C921 C 1.00663 0.66465 0.95097 0.0
C922 C 0.97372 0.71623 0.86766 0.0
O923 O 0.96937 0.69429 0.9551 0.0
O924 O 0.97748 0.73744 0.95482 0.0
C925 C 0.02841 0.78064 0.99133 0.0
N926 N 0.03173 0.78368 0.95542 0.0
C927 C 0.07523 0.82581 0.96045 0.0
C928 C 0.07225 0.82318 0.9975 0.0
C929 C 0.04876 0.80046 1.013 0.0
C930 C 0.05427 0.80542 0.94023 0.0
H931 H 1.01037 0.7632 1.00331 0.0
C932 C 0.96362 0.71252 0.96542 0.0
O933 O 0.99001 0.66027 0.92458 0.0
O934 O 0.02009 0.68924 0.96272 0.0
N935 N 0.03582 0.78497 0.8865 0.0
C936 C 0.03651 0.78348 0.85049 0.0
C937 C 0.05912 0.80421 0.83092 0.0
C938 C 0.08066 0.82624 0.84858 0.0
C939 C 0.07949 0.82729 0.88565 0.0
C940 C 0.05641 0.80612 0.90372 0.0
H941 H 0.01997 0.7666 0.83681 0.0
O942 O 0.03905 0.71363 0.89526 0.0
O943 O 0.02508 0.73825 0.92426 0.0
O944 O 0.9814 0.69987 0.87936 0.0
O945 O 0.98185 0.7394 0.88113 0.0
C946 C 0.10057 0.84827 0.90539 0.0
C947 C 0.09846 0.84755 0.94278 0.0
H948 H 0.08796 0.83837 1.0143 0.0
H949 H 0.04637 0.79825 0.04158 0.0
H950 H 0.05996 0.80321 0.80232 0.0
H951 H 0.09806 0.84213 0.83344 0.0
H952 H 0.11869 0.86477 0.89202 0.0
H953 H 0.115 0.86359 0.95774 0.0
Mn954 Mn 0.37984 0.12488 0.47738 0.0
Mn955 Mn 0.4074 0.10934 0.40608 0.0
C956 C 0.40959 0.1056 0.48561 0.0
C957 C 0.379 0.15254 0.52459 0.0
C958 C 0.3459 0.07498 0.43011 0.0
O959 O 0.37637 0.14822 0.43596 0.0
O960 O 0.39684 0.13721 0.39187 0.0
C961 C 0.45952 0.16235 0.39549 0.0
N962 N 0.44669 0.13498 0.40089 0.0
C963 C 0.4912 0.13596 0.39851 0.0
C964 C 0.50487 0.16414 0.39269 0.0
C965 C 0.48895 0.17739 0.39129 0.0
C966 C 0.46182 0.12206 0.40256 0.0
H967 H 0.44738 0.17263 0.39441 0.0
C968 C 0.38537 0.15068 0.40351 0.0
O969 O 0.35632 0.13259 0.51219 0.0
O970 O 0.40222 0.15773 0.50806 0.0
N971 N 0.41898 0.08305 0.41503 0.0
C972 C 0.40269 0.05591 0.42194 0.0
C973 C 0.41542 0.03972 0.42455 0.0
C974 C 0.4447 0.05151 0.41963 0.0
C975 C 0.46098 0.0794 0.41206 0.0
C976 C 0.4471 0.0945 0.40957 0.0
H977 H 0.38016 0.04667 0.42562 0.0
O978 O 0.39138 0.10331 0.5097 0.0
O979 O 0.40964 0.1187 0.45686 0.0
O980 O 0.34793 0.08964 0.45651 0.0
O981 O 0.36676 0.08079 0.40915 0.0
C982 C 0.4905 0.0929 0.40747 0.0
C983 C 0.50561 0.12118 0.40084 0.0
H984 H 0.52757 0.17582 0.38947 0.0
H985 H 0.49936 0.19915 0.38696 0.0
H986 H 0.4027 0.0182 0.4304 0.0
H987 H 0.45447 0.03899 0.42195 0.0
H988 H 0.50182 0.08179 0.40945 0.0
H989 H 0.52833 0.13139 0.39778 0.0
Mn990 Mn 0.97415 0.37273 0.43456 0.0
Mn991 Mn 0.01725 0.38535 0.50403 0.0
C992 C 0.02224 0.38868 0.42473 0.0
C993 C 0.94236 0.34555 0.39153 0.0
C994 C 0.99275 0.42123 0.48339 0.0
O995 O 0.94676 0.3508 0.47554 0.0
O996 O 0.978 0.35829 0.5187 0.0
C997 C 0.01346 0.33176 0.5135 0.0
N998 N 0.02929 0.35903 0.50741 0.0
C999 C 0.07206 0.35669 0.50547 0.0
C1000 C 0.05622 0.3286 0.51189 0.0
C1001 C 0.02679 0.31609 0.51588 0.0
C1002 C 0.05763 0.3713 0.5037 0.0
H1003 H 0.99083 0.32204 0.51646 0.0
C1004 C 0.95278 0.34676 0.50702 0.0
O1005 O 0.94281 0.36701 0.40342 0.0
O1006 O 0.9602 0.33924 0.40519 0.0
N1007 N 0.05583 0.41084 0.49268 0.0
C1008 C 0.06771 0.43768 0.48375 0.0
C1009 C 0.0969 0.45298 0.47729 0.0
C1010 C 0.11355 0.44056 0.48016 0.0
C1011 C 0.10085 0.41293 0.48948 0.0
C1012 C 0.0717 0.39876 0.49588 0.0
H1013 H 0.05498 0.44729 0.48135 0.0
O1014 O 1.00745 0.39255 0.40099 0.0
O1015 O 1.00858 0.37612 0.45368 0.0
O1016 O 0.98086 0.4082 0.45577 0.0
O1017 O 1.00668 0.4143 0.50386 0.0
C1018 C 0.11587 0.39874 0.49183 0.0
C1019 C 0.10149 0.37064 0.49982 0.0
H1020 H 0.06639 0.31641 0.51342 0.0
H1021 H 0.01441 0.2944 0.52066 0.0
H1022 H 0.10653 0.47427 0.46996 0.0
H1023 H 0.13602 0.45237 0.47481 0.0
H1024 H 0.13842 0.40914 0.48691 0.0
H1025 H 0.1132 0.35987 0.50093 0.0
Mn1026 Mn 0.74319 0.70092 0.4311 0.0
Mn1027 Mn 0.68874 0.68408 0.37606 0.0
C1028 C 0.69841 0.68605 0.45369 0.0
C1029 C 0.77116 0.68919 0.46506 0.0
C1030 C 0.73231 0.74241 0.39158 0.0
O1031 O 0.75839 0.69547 0.38399 0.0
O1032 O 0.71979 0.6827 0.35095 0.0
C1033 C 0.67246 0.62648 0.36617 0.0
N1034 N 0.66548 0.6455 0.37564 0.0
C1035 C 0.61711 0.61131 0.38636 0.0
C1036 C 0.62375 0.59136 0.37657 0.0
C1037 C 0.65157 0.59898 0.36659 0.0
C1038 C 0.63888 0.63835 0.38579 0.0
H1039 H 0.6938 0.63227 0.35835 0.0
C1040 C 0.74492 0.68722 0.3551 0.0
O1041 O 0.78006 0.71411 0.45473 0.0
O1042 O 0.74673 0.67098 0.45395 0.0
N1043 N 0.65671 0.68421 0.39676 0.0
C1044 C 0.65392 0.70589 0.40604 0.0
C1045 C 0.6273 0.70182 0.41621 0.0
C1046 C 0.60379 0.67557 0.4163 0.0
C1047 C 0.60715 0.65357 0.40661 0.0
C1048 C 0.63415 0.65891 0.39644 0.0
H1049 H 0.67181 0.72619 0.40542 0.0
O1050 O 0.72015 0.7004 0.47305 0.0
O1051 O 0.70347 0.68101 0.42189 0.0
O1052 O 0.74682 0.73703 0.41319 0.0
O1053 O 0.71094 0.7241 0.37565 0.0
C1054 C 0.58478 0.62656 0.40666 0.0
C1055 C 0.58981 0.60541 0.39688 0.0
H1056 H 0.60767 0.57013 0.37674 0.0
H1057 H 0.65688 0.58369 0.35911 0.0
H1058 H 0.62487 0.71889 0.42365 0.0
H1059 H 0.58325 0.67257 0.42376 0.0
H1060 H 0.56368 0.62178 0.41457 0.0
H1061 H 0.57253 0.58468 0.39753 0.0
C1062 C 0.08138 0.4914 0.09634 0.0
C1063 C 0.07437 0.50169 0.06643 0.0
H1064 H 0.08427 0.45834 0.11974 0.0
C1065 C 0.0672 0.4866 0.03512 0.0
H1066 H 0.08678 0.50243 0.1209 0.0
C1067 C 0.06499 0.46087 0.03466 0.0
C1068 C 0.07058 0.44995 0.06523 0.0
H1069 H 0.06136 0.49375 1.01169 0.0
H1070 H 0.05787 0.44912 1.01077 0.0
C1071 C 0.07986 0.46604 0.09563 0.0
C1072 C 0.58923 0.65462 0.08145 0.0
C1073 C 0.59371 0.63759 0.05852 0.0
H1074 H 0.60651 0.69438 0.1043 0.0
C1075 C 0.61935 0.64908 0.03932 0.0
H1076 H 0.56978 0.6465 0.09678 0.0
C1077 C 0.63995 0.67637 0.04295 0.0
C1078 C 0.63626 0.69344 0.0667 0.0
H1079 H 0.62359 0.63685 0.02115 0.0
H1080 H 0.65919 0.68389 0.02732 0.0
C1081 C 0.61038 0.68211 0.08582 0.0
C1082 C 0.42047 0.01554 0.09745 0.0
C1083 C 0.43912 0.04147 0.08314 0.0
H1084 H 0.37909 0.98893 0.1197 0.0
C1085 C 0.42922 0.06004 0.07868 0.0
H1086 H 0.4272 1.00066 0.10088 0.0
C1087 C 0.4019 0.05331 0.08917 0.0
C1088 C 0.38387 0.02808 0.10522 0.0
H1089 H 0.4427 0.08008 0.06722 0.0
H1090 H 0.39514 0.06819 0.08572 0.0
C1091 C 0.39304 1.00892 0.10838 0.0
C1092 C 0.47779 0.10136 0.49542 0.0
C1093 C 0.46702 0.07408 0.50642 0.0
H1094 H 0.46823 0.13269 0.47962 0.0
C1095 C 0.43761 0.05829 0.51235 0.0
H1096 H 0.50018 0.11421 0.4904 0.0
C1097 C 0.41947 0.06879 0.50623 0.0
C1098 C 0.42981 0.09529 0.49282 0.0
H1099 H 0.42833 0.03729 0.52113 0.0
H1100 H 0.39704 0.05568 0.51074 0.0
C1101 C 0.45938 0.11181 0.48869 0.0
C1102 C 0.99561 0.48138 0.53152 0.0
C1103 C 0.98552 0.49235 0.50554 0.0
H1104 H 1.00644 0.45079 0.54486 0.0
C1105 C 0.97667 0.47895 0.47317 0.0
H1106 H 1.00283 0.49125 0.55665 0.0
C1107 C 0.97869 0.45579 0.46643 0.0
C1108 C 0.98992 0.44544 0.4917 0.0
H1109 H 0.96892 0.48684 0.4525 0.0
H1110 H 0.97204 0.44643 0.44086 0.0
C1111 C 0.99798 0.45831 0.52459 0.0
C1112 C 0.62994 0.66973 0.49825 0.0
C1113 C 0.61422 0.6415 0.4937 0.0
H1114 H 0.66957 0.7062 0.48923 0.0
C1115 C 0.62752 0.62787 0.4798 0.0
H1116 H 0.62022 0.68057 0.50959 0.0
C1117 C 0.65541 0.64252 0.46781 0.0
C1118 C 0.67032 0.67089 0.46987 0.0
H1119 H 0.61584 0.60616 0.47606 0.0
H1120 H 0.665 0.63182 0.45559 0.0
C1121 C 0.65803 0.68434 0.48678 0.0
C1122 C 0.99571 0.5945 0.96788 0.0
C1123 C 0.01944 0.59959 0.98758 0.0
H1124 H 0.97307 0.61092 0.94131 0.0
C1125 C 0.03918 0.62649 0.99568 0.0
H1126 H 0.98008 0.57396 0.96129 0.0
C1127 C 0.03484 0.64788 0.98467 0.0
C1128 C 1.01094 0.64257 0.96502 0.0
H1129 H 0.05745 0.63089 1.01127 0.0
H1130 H 0.05026 0.66848 0.99118 0.0
C1131 C 0.99161 0.61569 0.95657 0.0
C1132 C 0.47835 0.45409 0.99232 0.0
C1133 C 0.47131 0.4715 1.01067 0.0
H1134 H 0.46428 0.4149 0.97001 0.0
C1135 C 0.44289 0.4609 0.02133 0.0
H1136 H 0.49986 0.46123 0.98358 0.0
C1137 C 0.42231 0.43392 1.01367 0.0
C1138 C 0.42941 0.4167 0.99494 0.0
H1139 H 0.4365 0.47346 0.03557 0.0
H1140 H 0.40069 0.42668 0.02205 0.0
C1141 C 0.45782 0.4273 0.98452 0.0
C1142 C 0.60699 0.05659 0.03562 0.0
C1143 C 0.58646 0.0509 1.00987 0.0
H1144 H 0.65091 0.07155 0.04583 0.0
C1145 C 0.59456 0.05366 0.97386 0.0
H1146 H 0.60164 0.05575 0.06351 0.0
C1147 C 0.62273 0.06332 0.96378 0.0
C1148 C 0.64359 0.07105 0.98947 0.0
H1149 H 0.57943 0.05038 0.95344 0.0
H1150 H 0.62838 0.06579 0.93582 0.0
C1151 C 0.63528 0.06628 0.02548 0.0
C1152 C 0.59819 0.02915 0.58587 0.0
C1153 C 0.59315 0.03188 0.54987 0.0
H1154 H 0.62215 0.02032 0.62368 0.0
C1155 C 0.61012 0.02854 0.52428 0.0
H1156 H 0.58504 0.03071 0.60631 0.0
C1157 C 0.63123 0.02248 0.53417 0.0
C1158 C 0.63531 0.01833 0.56999 0.0
H1159 H 0.60641 0.02978 0.49631 0.0
H1160 H 0.64368 0.01998 0.51362 0.0
C1161 C 0.61904 0.02255 0.59578 0.0
C1162 C 0.07116 0.66254 0.60536 0.0
C1163 C 0.04758 0.64285 0.58725 0.0
H1164 H 0.09344 0.70304 0.62498 0.0
C1165 C 0.02773 0.64989 0.57514 0.0
H1166 H 0.08697 0.65794 0.61492 0.0
C1167 C 0.03183 0.67618 0.58021 0.0
C1168 C 0.05564 0.69592 0.59802 0.0
H1169 H 1.00957 0.63542 0.56064 0.0
H1170 H 0.01634 0.68104 0.57015 0.0
C1171 C 0.07498 0.68853 0.61097 0.0
C1172 C 0.432 0.45269 0.51887 0.0
C1173 C 0.44788 0.46746 0.54795 0.0
H1174 H 0.39163 0.42195 0.50081 0.0
C1175 C 0.43468 0.46235 0.58153 0.0
H1176 H 0.44145 0.45645 0.49258 0.0
C1177 C 0.40627 0.44309 0.58602 0.0
C1178 C 0.39027 0.42881 0.55692 0.0
H1179 H 0.44643 0.47336 0.60438 0.0
H1180 H 0.39694 0.43894 0.61245 0.0
C1181 C 0.40344 0.43337 0.52341 0.0
C1182 C 0.72596 0.80277 0.36013 0.0
C1183 C 0.74336 0.82307 0.38362 0.0
H1184 H 0.7093 0.76193 0.34369 0.0
C1185 C 0.75963 0.81759 0.40744 0.0
H1186 H 0.71372 0.80655 0.34081 0.0
C1187 C 0.75719 0.79174 0.4091 0.0
C1188 C 0.73856 0.77098 0.38678 0.0
H1189 H 0.77326 0.83287 0.4258 0.0
H1190 H 0.76905 0.78775 0.42879 0.0
C1191 C 0.72361 0.77716 0.36165 0.0
C1192 C 0.29008 1.00572 0.3956 0.0
C1193 C 0.26544 1.00099 0.41405 0.0
H1194 H 0.33432 0.0325 0.3856 0.0
C1195 C 0.26756 0.02106 0.43741 0.0
H1196 H 0.28936 0.99099 0.37711 0.0
C1197 C 0.29345 0.04489 0.44248 0.0
C1198 C 0.31812 0.04969 0.42403 0.0
H1199 H 0.24925 0.01818 0.45236 0.0
H1200 H 0.29407 0.0596 0.46097 0.0
C1201 C 0.31594 0.02974 0.40033 0.0
C1202 C 0.09681 0.41743 0.38679 0.0
C1203 C 0.10234 0.39608 0.39381 0.0
H1204 H 0.06731 0.43203 0.39149 0.0
C1205 C 0.08124 0.37248 0.41113 0.0
H1206 H 0.11242 0.43577 0.37313 0.0
C1207 C 0.05538 0.37025 0.42102 0.0
C1208 C 0.05019 0.39185 0.415 0.0
H1209 H 0.08442 0.35538 0.41632 0.0
H1210 H 0.03928 0.35145 0.43325 0.0
C1211 C 0.07099 0.41531 0.39722 0.0
C1212 C 0.13909 0.40588 0.81247 0.0
C1213 C 0.13134 0.37966 0.82545 0.0
H1214 H 0.12474 0.4327 0.79228 0.0
C1215 C 0.10228 0.36103 0.83023 0.0
H1216 H 0.16111 0.42079 0.80841 0.0
C1217 C 0.08165 0.3678 0.82115 0.0
C1218 C 0.08918 0.39321 0.80594 0.0
H1219 H 0.09529 0.34075 0.84064 0.0
H1220 H 0.05963 0.35269 0.82489 0.0
C1221 C 0.1182 0.41254 0.80277 0.0
C1222 C 0.69934 0.78904 0.84418 0.0
C1223 C 0.70493 0.80665 0.81488 0.0
H1224 H 0.68652 0.74848 0.86235 0.0
C1225 C 0.70003 0.79594 0.78062 0.0
H1226 H 0.70287 0.79682 0.87083 0.0
C1227 C 0.68976 0.76814 0.77579 0.0
C1228 C 0.68489 0.75064 0.80507 0.0
H1229 H 0.70385 0.80904 0.75765 0.0
H1230 H 0.6865 0.7605 0.74907 0.0
C1231 C 0.68989 0.76142 0.83931 0.0
C1232 C 0.28586 0.9351 0.83523 0.0
C1233 C 0.26993 0.9452 0.85178 0.0
H1234 H 0.3248 0.94488 0.80874 0.0
C1235 C 0.28255 0.97334 0.85724 0.0
H1236 H 0.27687 0.91357 0.83093 0.0
C1237 C 0.30992 0.99113 0.84479 0.0
C1238 C 0.32491 0.98119 0.82591 0.0
H1239 H 0.27103 0.98177 0.87044 0.0
H1240 H 0.31886 0.01273 0.84849 0.0
C1241 C 0.31314 0.95301 0.82235 0.0
C1242 C 0.70273 0.98189 0.27367 0.0
C1243 C 0.7078 0.97766 0.30895 0.0
H1244 H 0.68886 1.00273 0.2383 0.0
C1245 C 0.70185 0.99069 0.33623 0.0
H1246 H 0.7069 0.97166 0.25241 0.0
C1247 C 0.6921 1.00867 0.32827 0.0
C1248 C 0.68714 0.0131 0.29299 0.0
H1249 H 0.70544 0.9874 0.36359 0.0
H1250 H 0.68871 0.01936 0.34965 0.0
C1251 C 0.69207 0.99924 0.26575 0.0
C1252 C 0.11565 0.79781 0.31031 0.0
C1253 C 0.10377 0.81097 0.32963 0.0
H1254 H 0.10837 0.76193 0.28267 0.0
C1255 C 0.07454 0.79674 0.33626 0.0
H1256 H 0.13804 0.80814 0.30446 0.0
C1257 C 0.0577 0.77036 0.32404 0.0
C1258 C 0.06937 0.75722 0.30447 0.0
H1259 H 0.06458 0.80583 0.35142 0.0
H1260 H 0.03529 0.7603 0.32988 0.0
C1261 C 0.09863 0.77132 0.2977 0.0
C1262 C 0.27244 0.43433 0.39529 0.0
C1263 C 0.25142 0.42728 0.36972 0.0
H1264 H 0.31478 0.44347 0.40606 0.0
C1265 C 0.25862 0.42657 0.33392 0.0
H1266 H 0.26787 0.43524 0.42306 0.0
C1267 C 0.28581 0.43201 0.32418 0.0
C1268 C 0.3064 0.43823 0.34997 0.0
H1269 H 0.24303 0.42106 0.31349 0.0
H1270 H 0.29054 0.43063 0.29657 0.0
C1271 C 0.29937 0.43907 0.38563 0.0
C1272 C 0.26822 0.35586 0.93824 0.0
C1273 C 0.26454 0.35962 0.90208 0.0
H1274 H 0.29276 0.34932 0.97746 0.0
C1275 C 0.28426 0.35994 0.87749 0.0
H1276 H 0.25303 0.35473 0.95784 0.0
C1277 C 0.30655 0.35594 0.88867 0.0
C1278 C 0.30935 0.35081 0.92467 0.0
H1279 H 0.28159 0.36188 0.84936 0.0
H1280 H 0.32098 0.35576 0.86892 0.0
C1281 C 0.29058 0.35203 0.94941 0.0
C1282 C 0.75265 0.01045 0.92675 0.0
C1283 C 0.73331 0.99125 0.90337 0.0
H1284 H 0.76546 0.04732 0.95487 0.0
C1285 C 0.7122 0.99581 0.88932 0.0
H1286 H 0.76908 1.00761 0.93828 0.0
C1287 C 0.71009 0.01849 0.8989 0.0
C1288 C 0.72904 0.03736 0.92279 0.0
H1289 H 0.69725 0.9819 0.87071 0.0
H1290 H 0.69338 0.02108 0.88772 0.0
C1291 C 0.75052 0.0332 0.93638 0.0
C1292 C 0.11279 0.79284 0.94154 0.0
C1293 C 0.12928 0.80479 0.91071 0.0
H1294 H 0.07313 0.7625 0.96361 0.0
C1295 C 0.1185 0.79275 0.87781 0.0
H1296 H 0.12035 0.80139 0.96733 0.0
C1297 C 0.0912 0.77025 0.87578 0.0
C1298 C 0.07415 0.75987 0.90647 0.0
H1299 H 0.13054 0.80149 0.85347 0.0
H1300 H 0.08295 0.76184 0.85014 0.0
C1301 C 0.0856 0.7707 0.93942 0.0
C1302 C 0.3759 0.12134 0.72958 0.0
C1303 C 0.40092 0.14174 0.74472 0.0
H1304 H 0.3502 0.07896 0.71822 0.0
C1305 C 0.42015 0.13449 0.75809 0.0
H1306 H 0.3608 0.12615 0.71818 0.0
C1307 C 0.41424 0.10762 0.75754 0.0
C1308 C 0.38881 0.08699 0.74373 0.0
H1309 H 0.43952 0.14945 0.76997 0.0
H1310 H 0.42954 0.10296 0.76883 0.0
C1311 C 0.36991 0.09425 0.7291 0.0
C1312 C 0.95215 0.2929 0.70203 0.0
C1313 C 0.9271 0.28701 0.72043 0.0
H1314 H 0.99615 0.32176 0.69197 0.0
C1315 C 0.92852 0.30646 0.74449 0.0
H1316 H 0.95193 0.27882 0.68277 0.0
C1317 C 0.95361 0.33099 0.74967 0.0
C1318 C 0.97856 0.3375 0.73068 0.0
H1319 H 0.90979 0.30294 0.75907 0.0
H1320 H 0.95321 0.34514 0.7683 0.0
C1321 C 0.97748 0.31782 0.707 0.0
C1322 C 0.75988 0.67837 0.721 0.0
C1323 C 0.77792 0.7039 0.70498 0.0
H1324 H 0.71879 0.65128 0.74354 0.0
C1325 C 0.76771 0.72209 0.70024 0.0
H1326 H 0.76674 0.66355 0.72411 0.0
C1327 C 0.74048 0.71524 0.71213 0.0
C1328 C 0.72278 0.69002 0.72901 0.0
H1329 H 0.78082 0.74169 0.68741 0.0
H1330 H 0.73329 0.72975 0.70831 0.0
C1331 C 0.73246 0.67135 0.73227 0.0
C1332 C 0.75459 0.71389 0.14247 0.0
C1333 C 0.78378 0.73041 0.13544 0.0
H1334 H 0.7135 0.71015 0.14397 0.0
C1335 C 0.79356 0.75781 0.12581 0.0
H1336 H 0.74607 0.69281 0.15045 0.0
C1337 C 0.77437 0.76767 0.12132 0.0
C1338 C 0.74499 0.75046 0.12651 0.0
H1339 H 0.81575 0.77126 0.12018 0.0
H1340 H 0.78246 0.78865 0.11319 0.0
C1341 C 0.73572 0.7238 0.13866 0.0
C1342 C 0.30404 0.10714 0.1746 0.0
C1343 C 0.32262 0.12725 0.19762 0.0
H1344 H 0.2912 0.06888 0.1505 0.0
C1345 C 0.34285 0.12288 0.2149 0.0
H1346 H 0.28837 0.10974 0.16049 0.0
C1347 C 0.34449 0.09923 0.20919 0.0
C1348 C 0.32608 0.07928 0.18581 0.0
H1349 H 0.35735 0.13766 0.23312 0.0
H1350 H 0.36041 0.09674 0.22288 0.0
C1351 C 0.3058 0.08364 0.1687 0.0
C1352 C 0.95162 0.29688 0.13846 0.0
C1353 C 0.93571 0.3077 0.15305 0.0
H1354 H 0.99164 0.30534 0.1167 0.0
C1355 C 0.94878 0.33585 0.15851 0.0
H1356 H 0.94218 0.2753 0.13411 0.0
C1357 C 0.97707 0.3529 0.14898 0.0
C1358 C 0.99245 0.34219 0.13285 0.0
H1359 H 0.93715 0.34476 0.17016 0.0
H1360 H 0.98669 0.3745 0.15331 0.0
C1361 C 0.97978 0.31404 0.12833 0.0
C1362 C 0.3699 0.29283 0.63433 0.0
C1363 C 0.3902 0.30552 0.66068 0.0
H1364 H 0.33893 0.29435 0.60143 0.0
C1365 C 0.39557 0.33078 0.67302 0.0
H1366 H 0.36556 0.27344 0.62404 0.0
C1367 C 0.3803 0.34267 0.66011 0.0
C1368 C 0.35934 0.32952 0.63465 0.0
H1369 H 0.41072 0.34084 0.69362 0.0
H1370 H 0.38474 0.36208 0.67045 0.0
C1371 C 0.35448 0.30462 0.62158 0.0
C1372 C 0.80186 0.11774 0.64065 0.0
C1373 C 0.79306 0.13216 0.66265 0.0
H1374 H 0.78985 0.08057 0.61281 0.0
C1375 C 0.76497 0.11818 0.67564 0.0
H1376 H 0.82313 0.12774 0.62976 0.0
C1377 C 0.74605 0.09137 0.66613 0.0
C1378 C 0.75419 0.07722 0.64289 0.0
H1379 H 0.75721 0.1283 0.69276 0.0
H1380 H 0.72459 0.08202 0.67631 0.0
C1381 C 0.78263 0.09067 0.63078 0.0
C1382 C 0.95042 0.74833 0.67413 0.0
C1383 C 0.93318 0.74011 0.64421 0.0
H1384 H 0.99198 0.76205 0.69432 0.0
C1385 C 0.94577 0.74236 0.6107 0.0
H1386 H 0.94122 0.74599 0.7004 0.0
C1387 C 0.97468 0.75166 0.60722 0.0
C1388 C 0.99172 0.75879 0.63721 0.0
H1389 H 0.9329 0.73548 0.58731 0.0
H1390 H 0.98347 0.75203 0.58121 0.0
C1391 C 0.97937 0.75714 0.67072 0.0
C1392 C 0.91733 0.69998 0.22896 0.0
C1393 C 0.91357 0.69751 0.19201 0.0
H1394 H 0.9404 0.69754 0.27379 0.0
C1395 C 0.93136 0.69118 0.17199 0.0
H1396 H 0.90356 0.70412 0.24533 0.0
C1397 C 0.95202 0.68715 0.18818 0.0
C1398 C 0.95496 0.68823 0.22515 0.0
H1399 H 0.92879 0.68868 0.14358 0.0
H1400 H 0.96535 0.68247 0.17173 0.0
C1401 C 0.93791 0.69549 0.24535 0.0
C1402 C 0.37308 0.3337 0.28785 0.0
C1403 C 0.34767 0.31616 0.271 0.0
H1404 H 0.39907 0.37291 0.31049 0.0
C1405 C 0.32933 0.32613 0.26283 0.0
H1406 H 0.38763 0.32671 0.2947 0.0
C1407 C 0.33605 0.35267 0.27135 0.0
C1408 C 0.36112 0.37004 0.2889 0.0
H1409 H 0.30977 0.31342 0.24952 0.0
H1410 H 0.32126 0.35943 0.26467 0.0
C1411 C 0.37958 0.36018 0.29701 0.0
C1412 C 0.79375 0.16462 0.27178 0.0
C1413 C 0.80474 0.1745 0.23749 0.0
H1414 H 0.75784 0.13637 0.30322 0.0
C1415 C 0.78788 0.16178 0.20809 0.0
H1416 H 0.80626 0.1738 0.29496 0.0
C1417 C 0.76007 0.14092 0.21298 0.0
C1418 C 0.74857 0.13259 0.24727 0.0
H1419 H 0.79562 0.16877 0.18129 0.0
H1420 H 0.74724 0.13191 0.18997 0.0
C1421 C 0.76595 0.14362 0.27658 0.0
C1422 C 0.04325 0.48764 0.90877 0.0
C1423 C 0.01561 0.47933 0.92126 0.0
H1424 H 0.06954 0.48297 0.8697 0.0
C1425 C 0.99308 0.46002 0.90129 0.0
H1426 H 0.06127 0.50224 0.92327 0.0
C1427 C 0.99789 0.44898 0.87064 0.0
C1428 C 0.0254 0.45679 0.85856 0.0
H1429 H 0.97153 0.45329 0.9093 0.0
H1430 H 0.9798 0.43392 0.85659 0.0
C1431 C 0.04806 0.47653 0.87791 0.0
C1432 C 0.55734 0.60339 0.87723 0.0
C1433 C 0.56504 0.6021 0.9126 0.0
H1434 H 0.57091 0.61897 0.82406 0.0
C1435 C 0.59391 0.61654 0.92048 0.0
H1436 H 0.53552 0.59243 0.86962 0.0
C1437 C 0.61425 0.63161 0.89409 0.0
C1438 C 0.60655 0.63299 0.85883 0.0
H1439 H 0.60098 0.6166 0.94717 0.0
H1440 H 0.63617 0.64235 0.90155 0.0
C1441 C 0.57774 0.61866 0.85084 0.0
C1442 C 0.49504 0.0586 0.88214 0.0
C1443 C 0.48383 0.04498 0.9146 0.0
H1444 H 0.48821 0.06076 0.82683 0.0
C1445 C 0.45872 0.01975 0.91487 0.0
H1446 H 0.5147 0.07767 0.88111 0.0
C1447 C 0.44351 1.00988 0.88365 0.0
C1448 C 0.45339 0.02513 0.85192 0.0
H1449 H 0.44972 1.00879 0.93961 0.0
H1450 H 0.42287 0.99189 0.88514 0.0
C1451 C 0.48006 0.04867 0.85105 0.0
C1452 C 0.42199 0.98657 0.62684 0.0
C1453 C 0.45153 1.00064 0.62653 0.0
H1454 H 0.38409 0.9788 0.65385 0.0
C1455 C 0.46566 0.01716 0.6553 0.0
H1456 H 0.41059 0.974 0.60482 0.0
C1457 C 0.45055 0.01992 0.68357 0.0
C1458 C 0.42097 1.00654 0.68336 0.0
H1459 H 0.48845 0.02815 0.65572 0.0
H1460 H 0.46207 0.03296 0.70519 0.0
C1461 C 0.40688 0.98964 0.65479 0.0
C1462 C 0.06454 0.48993 0.62799 0.0
C1463 C 0.0516 0.50563 0.63436 0.0
H1464 H 0.07174 0.45791 0.64523 0.0
C1465 C 0.0344 0.49921 0.66525 0.0
H1466 H 0.07754 0.49374 0.60443 0.0
C1467 C 0.03114 0.47837 0.68946 0.0
C1468 C 0.04451 0.46291 0.68315 0.0
H1469 H 0.02407 0.51079 0.6712 0.0
H1470 H 0.01837 0.47457 0.71326 0.0
C1471 C 0.06095 0.46901 0.65161 0.0
C1472 C 0.56652 0.58376 0.65549 0.0
C1473 C 0.55115 0.59336 0.63621 0.0
H1474 H 0.59673 0.59111 0.69571 0.0
C1475 C 0.55334 0.61813 0.64614 0.0
H1476 H 0.56537 0.56475 0.64875 0.0
C1477 C 0.57171 0.63351 0.67336 0.0
C1478 C 0.58822 0.62443 0.69121 0.0
H1479 H 0.54213 0.62633 0.63164 0.0
H1480 H 0.57378 0.653 0.67945 0.0
C1481 C 0.5847 0.59898 0.68247 0.0
C1482 C 0.98172 0.57059 0.17291 0.0
C1483 C 1.00558 0.5796 0.15051 0.0
H1484 H 0.96061 0.57941 0.21393 0.0
C1485 C 0.02735 0.60684 0.15384 0.0
H1486 H 0.96416 0.55017 0.17117 0.0
C1487 C 0.02524 0.62421 0.17897 0.0
C1488 C 1.00126 0.61488 0.20145 0.0
H1489 H 0.04617 0.61474 0.13733 0.0
H1490 H 0.04235 0.6449 0.1807 0.0
C1491 C 0.97963 0.58772 0.19769 0.0
C1492 C 0.4509 0.49174 0.17912 0.0
C1493 C 0.46975 0.51987 0.17738 0.0
H1494 H 0.41767 0.45822 0.20885 0.0
C1495 C 0.46907 0.53592 0.20498 0.0
H1496 H 0.45122 0.47891 0.15835 0.0
C1497 C 0.44966 0.52431 0.23333 0.0
C1498 C 0.43101 0.49614 0.23553 0.0
H1499 H 0.48346 0.55761 0.20435 0.0
H1500 H 0.44941 0.5374 0.2538 0.0
C1501 C 0.43198 0.47993 0.20819 0.0
C1502 C 0.60853 0.12134 0.16571 0.0
C1503 C 0.59536 0.09912 0.1432 0.0
H1504 H 0.63654 0.13955 0.20867 0.0
C1505 C 0.60199 0.07815 0.14653 0.0
H1506 H 0.60391 0.13778 0.16406 0.0
C1507 C 0.62061 0.079 0.17235 0.0
C1508 C 0.63322 0.1009 0.19547 0.0
H1509 H 0.59284 0.06095 0.12922 0.0
H1510 H 0.62487 0.06232 0.17437 0.0
C1511 C 0.6272 0.12224 0.19147 0.0
C1512 C 0.57454 0.03116 0.37305 0.0
C1513 C 0.57115 0.04882 0.39576 0.0
H1514 H 0.59921 0.02708 0.33156 0.0
C1515 C 0.59042 0.07678 0.39283 0.0
H1516 H 0.56018 1.00951 0.37488 0.0
C1517 C 0.61274 0.08687 0.36822 0.0
C1518 C 0.61653 0.06926 0.34584 0.0
H1519 H 0.58819 0.09097 0.40956 0.0
H1520 H 0.62715 0.10855 0.36699 0.0
C1521 C 0.59706 0.04125 0.34845 0.0
C1522 C 0.05114 0.63329 0.39343 0.0
C1523 C 0.03137 0.61421 0.41797 0.0
H1524 H 0.05853 0.6581 0.34656 0.0
C1525 C 1.00269 0.60575 0.4128 0.0
H1526 H 0.0734 0.64053 0.39653 0.0
C1527 C 0.99406 0.61565 0.38376 0.0
C1528 C 0.01383 0.63469 0.35913 0.0
H1529 H 0.98676 0.59096 0.43078 0.0
H1530 H 0.97177 0.60831 0.38065 0.0
C1531 C 0.04256 0.64351 0.36473 0.0
C1532 C 0.45239 0.50938 0.44369 0.0
C1533 C 0.45566 0.53443 0.45456 0.0
H1534 H 0.43338 0.47634 0.40766 0.0
C1535 C 0.44027 0.5447 0.43719 0.0
H1536 H 0.46448 0.50124 0.45608 0.0
C1537 C 0.42278 0.53067 0.40874 0.0
C1538 C 0.42029 0.50601 0.39687 0.0
H1539 H 0.44286 0.56422 0.44432 0.0
H1540 H 0.41181 0.53962 0.39542 0.0
C1541 C 0.43479 0.49524 0.41555 0.0
C1542 C 0.71735 0.85841 0.23447 0.0
C1543 C 0.69559 0.84923 0.26063 0.0
H1544 H 0.73256 0.85185 0.18502 0.0
C1545 C 0.67045 0.82498 0.25349 0.0
H1546 H 0.73709 0.87697 0.23812 0.0
C1547 C 0.66784 0.81029 0.22193 0.0
C1548 C 0.69025 0.81933 0.19656 0.0
H1549 H 0.65318 0.81692 0.27264 0.0
H1550 H 0.64849 0.79144 0.21788 0.0
C1551 C 0.71481 0.84388 0.20347 0.0
C1552 C 0.2254 0.93001 0.25615 0.0
C1553 C 0.23529 0.92542 0.28847 0.0
H1554 H 0.23563 0.95049 0.20544 0.0
C1555 C 0.26444 0.93727 0.2929 0.0
H1556 H 0.203 0.92116 0.2519 0.0
C1557 C 0.28324 0.95447 0.2663 0.0
C1558 C 0.27332 0.96008 0.23456 0.0
H1559 H 0.27272 0.93445 0.31759 0.0
H1560 H 0.30561 0.96386 0.27106 0.0
C1561 C 0.24412 0.94698 0.22951 0.0
C1562 C 0.14131 0.37393 0.22526 0.0
C1563 C 0.12672 0.34835 0.2424 0.0
H1564 H 0.14279 0.3992 0.18177 0.0
C1565 C 0.10328 0.32737 0.22569 0.0
H1566 H 0.15985 0.39035 0.23689 0.0
C1567 C 0.09364 0.33238 0.19373 0.0
C1568 C 0.10724 0.35847 0.1779 0.0
H1569 H 0.09152 0.30745 0.23813 0.0
H1570 H 0.07472 0.31618 0.18242 0.0
C1571 C 0.13166 0.37894 0.19345 0.0
C1572 C 0.13905 0.35795 0.99128 0.0
C1573 C 0.1248 0.34102 0.96289 0.0
H1574 H 0.13638 0.37932 0.03642 0.0
C1575 C 0.09655 0.33351 0.95754 0.0
H1576 H 0.16097 0.3642 0.99565 0.0
C1577 C 0.08276 0.34268 0.98 0.0
C1578 C 0.09669 0.35922 1.00895 0.0
H1579 H 0.08529 0.32103 0.93537 0.0
H1580 H 0.06095 0.33641 0.97481 0.0
C1581 C 0.12503 0.36669 1.01441 0.0
C1582 C 0.67576 0.82355 0.95321 0.0
C1583 C 0.67957 0.84926 0.96149 0.0
H1584 H 0.67522 0.78728 0.97183 0.0
C1585 C 0.68261 0.85609 0.99785 0.0
H1586 H 0.67383 0.81749 0.92582 0.0
C1587 C 0.68297 0.83846 0.02464 0.0
C1588 C 0.68099 0.81351 1.01606 0.0
H1589 H 0.68589 0.87574 1.00556 0.0
H1590 H 0.68658 0.84518 0.05179 0.0
C1591 C 0.67676 0.80621 0.97987 0.0
C1592 C 0.23972 0.92529 1.01586 0.0
C1593 C 0.21952 0.93224 1.00445 0.0
H1594 H 0.27261 0.93267 0.05257 0.0
C1595 C 0.21674 0.9519 0.02365 0.0
H1596 H 0.24239 0.91005 1.00225 0.0
C1597 C 0.23383 0.96459 0.05261 0.0
C1598 C 0.25443 0.95817 0.06349 0.0
H1599 H 0.20183 0.9582 1.01589 0.0
H1600 H 0.23123 0.97997 0.06605 0.0
C1601 C 0.25695 0.93811 0.045 0.0
C1602 C 0.66579 0.91142 0.47486 0.0
C1603 C 0.69297 0.9237 0.45904 0.0
H1604 H 0.63897 0.91224 0.5168 0.0
C1605 C 0.71407 0.94724 0.47564 0.0
H1606 H 0.64881 0.89342 0.46339 0.0
C1607 C 0.7085 0.95812 0.50614 0.0
C1608 C 0.6815 0.94602 0.52211 0.0
H1609 H 0.73538 0.95773 0.46489 0.0
H1610 H 0.72562 0.97626 0.51716 0.0
C1611 C 0.6602 0.92232 0.50582 0.0
C1612 C 0.14781 0.82912 0.48297 0.0
C1613 C 0.1626 0.85769 0.48454 0.0
H1614 H 0.11674 0.79144 0.5082 0.0
C1615 C 0.16049 0.86966 0.51593 0.0
H1616 H 0.1484 0.81931 0.4588 0.0
C1617 C 0.14241 0.85392 0.54377 0.0
C1618 C 0.12574 0.82559 0.54126 0.0
H1619 H 0.17128 0.89157 0.51789 0.0
H1620 H 0.14007 0.86418 0.56649 0.0
C1621 C 0.12955 0.81316 0.5112 0.0
C1622 C 0.22183 0.3313 0.49141 0.0
C1623 C 0.22034 0.35038 0.46869 0.0
H1624 H 0.24487 0.32455 0.53252 0.0
C1625 C 0.24186 0.37756 0.46951 0.0
H1626 H 0.20535 0.31024 0.49139 0.0
C1627 C 0.26391 0.3858 0.49308 0.0
C1628 C 0.26539 0.36698 0.51627 0.0
H1629 H 0.2409 0.39278 0.45303 0.0
H1630 H 0.27951 0.40714 0.49361 0.0
C1631 C 0.24443 0.33948 0.51473 0.0
C1632 C 0.24177 0.33296 0.71873 0.0
C1633 C 0.23087 0.34902 0.73191 0.0
H1634 H 0.2687 0.32904 0.68065 0.0
C1635 C 0.23883 0.37402 0.71466 0.0
H1636 H 0.23648 0.31377 0.73143 0.0
C1637 C 0.25764 0.38299 0.68556 0.0
C1638 C 0.26894 0.36714 0.67281 0.0
H1639 H 0.23057 0.38677 0.72368 0.0
H1640 H 0.26343 0.40245 0.67323 0.0
C1641 C 0.26051 0.34188 0.68962 0.0
C1642 C 0.71276 0.95098 0.74102 0.0
C1643 C 0.69077 0.9284 0.75969 0.0
H1644 H 0.72609 0.97854 0.69613 0.0
C1645 C 0.66394 0.9163 0.74427 0.0
H1646 H 0.73387 0.96125 0.75138 0.0
C1647 C 0.65951 0.92649 0.71164 0.0
C1648 C 0.68172 0.94916 0.69318 0.0
H1649 H 0.64637 0.89896 0.7573 0.0
H1650 H 0.63849 0.91664 0.70101 0.0
C1651 C 0.70837 0.96109 0.70877 0.0
C1652 C 0.12423 0.83409 0.75288 0.0
C1653 C 0.13076 0.86119 0.7579 0.0
H1654 H 0.10582 0.79933 0.71946 0.0
C1655 C 0.12338 0.87387 0.73106 0.0
H1656 H 0.12906 0.82331 0.77298 0.0
C1657 C 0.10975 0.85995 0.70049 0.0
C1658 C 0.10316 0.83288 0.69549 0.0
H1659 H 0.12825 0.89471 0.73342 0.0
H1660 H 0.10439 0.87056 0.68068 0.0
C1661 C 0.11074 0.8202 0.72209 0.0
C1662 C 0.40402 0.20173 0.60158 0.0
C1663 C 0.38011 0.19177 0.62451 0.0
H1664 H 0.42249 0.19769 0.55323 0.0
C1665 C 0.35492 0.16959 0.6128 0.0
H1666 H 0.42392 0.2189 0.60896 0.0
C1667 C 0.35417 0.15737 0.57987 0.0
C1668 C 0.37858 0.16694 0.55782 0.0
H1669 H 0.33609 0.16119 0.62942 0.0
H1670 H 0.33463 0.13989 0.57218 0.0
C1671 C 0.40331 0.18956 0.56916 0.0
C1672 C 0.88191 0.28983 0.54283 0.0
C1673 C 0.8889 0.28605 0.57749 0.0
H1674 H 0.89647 0.31187 0.49315 0.0
C1675 C 0.91634 0.30347 0.58912 0.0
H1676 H 0.86097 0.27673 0.53304 0.0
C1677 C 0.93653 0.32347 0.56651 0.0
C1678 C 0.93002 0.32679 0.53141 0.0
H1679 H 0.92234 0.30167 0.61586 0.0
H1680 H 0.95749 0.33611 0.57663 0.0
C1681 C 0.90229 0.30995 0.51997 0.0
C1682 C 0.78502 0.65073 0.53746 0.0
C1683 C 0.80921 0.67159 0.55303 0.0
H1684 H 0.75417 0.63986 0.49713 0.0
C1685 C 0.82281 0.6974 0.53631 0.0
H1686 H 0.77398 0.63065 0.54959 0.0
C1687 C 0.81138 0.70274 0.50631 0.0
C1688 C 0.78616 0.68236 0.49223 0.0
H1689 H 0.84186 0.71376 0.54706 0.0
H1690 H 0.8217 0.72316 0.4951 0.0
C1691 C 0.77362 0.65606 0.50738 0.0
C1692 C 0.78763 0.66523 0.29858 0.0
C1693 C 0.77869 0.66746 0.26451 0.0
H1694 H 0.7845 0.6706 0.3545 0.0
C1695 C 0.75926 0.67655 0.26065 0.0
H1696 H 0.80307 0.65875 0.30193 0.0
C1697 C 0.7489 0.68339 0.29016 0.0
C1698 C 0.75796 0.68161 0.32433 0.0
H1699 H 0.75239 0.67865 0.23453 0.0
H1700 H 0.73386 0.69031 0.28612 0.0
C1701 C 0.77746 0.67248 0.3284 0.0
C1702 C 0.36075 0.19604 0.35656 0.0
C1703 C 0.37447 0.20164 0.32286 0.0
H1704 H 0.35334 0.17635 0.40801 0.0
C1705 C 0.39314 0.19171 0.3171 0.0
H1706 H 0.3461 0.20317 0.36229 0.0
C1707 C 0.39701 0.1759 0.34348 0.0
C1708 C 0.38257 0.16955 0.37682 0.0
H1709 H 0.40386 0.19513 0.29165 0.0
H1710 H 0.41108 0.16816 0.33733 0.0
C1711 C 0.36485 0.18051 0.38305 0.0
C1712 C 0.8875 0.32548 0.32019 0.0
C1713 C 0.88799 0.30342 0.30446 0.0
H1714 H 0.90402 0.3558 0.35977 0.0
C1715 C 0.90584 0.29451 0.31876 0.0
H1716 H 0.87432 0.33313 0.30989 0.0
C1717 C 0.92317 0.30772 0.34748 0.0
C1718 C 0.923 0.33011 0.36259 0.0
H1719 H 0.90648 0.2773 0.30785 0.0
H1720 H 0.93691 0.30061 0.35752 0.0
C1721 C 0.90473 0.3386 0.34882 0.0
C1722 C 0.39207 0.27972 0.84104 0.0
C1723 C 0.37046 0.25709 0.8236 0.0
H1724 H 0.40384 0.30913 0.88215 0.0
C1725 C 0.34273 0.24711 0.83653 0.0
H1726 H 0.41379 0.28839 0.83215 0.0
C1727 C 0.33706 0.25908 0.86607 0.0
C1728 C 0.35884 0.28173 0.88345 0.0
H1729 H 0.32544 0.22985 0.82419 0.0
H1730 H 0.31541 0.25059 0.87516 0.0
C1731 C 0.3864 0.29184 0.87004 0.0
C1732 C 0.77574 0.19592 0.82797 0.0
C1733 C 0.78863 0.18566 0.8053 0.0
H1734 H 0.75061 0.18987 0.87447 0.0
C1735 C 0.7868 0.16066 0.81475 0.0
H1736 H 0.77719 0.21531 0.82239 0.0
C1737 C 0.77166 0.14602 0.84541 0.0
C1738 C 0.75786 0.15595 0.8671 0.0
H1739 H 0.79631 0.15197 0.798 0.0
H1740 H 0.76998 0.12655 0.85143 0.0
C1741 C 0.76054 0.18129 0.85817 0.0
C1742 C 0.92268 0.715 0.79909 0.0
C1743 C 0.91029 0.68821 0.78693 0.0
H1744 H 0.95238 0.74491 0.83359 0.0
C1745 C 0.91978 0.67108 0.80062 0.0
H1746 H 0.91573 0.72873 0.78957 0.0
C1747 C 0.9409 0.6804 0.82604 0.0
C1748 C 0.95298 0.70709 0.83858 0.0
H1749 H 0.911 0.65048 0.79156 0.0
H1750 H 0.94742 0.66648 0.83624 0.0
C1751 C 0.94372 0.7243 0.82454 0.0
C1752 C 0.89703 0.67158 0.02273 0.0
C1753 C 0.89288 0.69226 0.03673 0.0
H1754 H 0.92268 0.66155 0.98964 0.0
C1755 C 0.91224 0.71931 0.02723 0.0
H1756 H 0.88273 0.65053 0.0298 0.0
C1757 C 0.9351 0.72561 1.00455 0.0
C1758 C 0.93945 0.70507 0.99051 0.0
H1759 H 0.90961 0.73574 0.0371 0.0
H1760 H 0.94938 0.7468 0.99801 0.0
C1761 C 0.92011 0.67791 0.99995 0.0
C1762 C 0.38248 0.29034 0.11019 0.0
C1763 C 0.36219 0.26323 0.11927 0.0
H1764 H 0.39692 0.32343 0.07156 0.0
C1765 C 0.3424 0.24827 0.09324 0.0
H1766 H 0.3977 0.30284 0.12961 0.0
C1767 C 0.34182 0.25994 0.06035 0.0
C1768 C 0.36091 0.28739 0.05161 0.0
H1769 H 0.32626 0.22748 0.09898 0.0
H1770 H 0.32542 0.24745 0.04213 0.0
C1771 C 0.38187 0.30223 0.07682 0.0
C1772 C 0.7916 0.18395 0.06675 0.0
C1773 C 0.78665 0.20518 0.07646 0.0
H1774 H 0.7797 0.14927 0.03415 0.0
C1775 C 0.76469 0.20693 0.05985 0.0
H1776 H 0.80845 0.18196 0.07855 0.0
C1777 C 0.74837 0.1883 0.03423 0.0
C1778 C 0.75336 0.16716 0.02431 0.0
H1779 H 0.75977 0.22255 0.06684 0.0
H1780 H 0.73167 0.19052 0.02227 0.0
C1781 C 0.77515 0.16517 0.04108 0.0
loop_
_geom_bond_atom_site_label_1
_geom_bond_atom_site_label_2
_geom_bond_distance
_geom_bond_site_symmetry_2
_ccdc_geom_bond_type
Cu0 N1 1.999 . S
Cu0 O6 1.974 1_554 S
Cu0 N11 1.985 1_554 S
Cu0 O20 1.959 . S
N1 Cu0 1.999 . S
N1 C3 1.263 . S
N1 C5 1.389 . S
N2 C3 1.358 . S
N2 C4 1.400 . S
C3 N1 1.263 . S
C3 N2 1.358 . S
C3 H9 0.930 . S
C4 N2 1.400 . S
C4 C5 1.351 . S
C4 H21 0.930 . S
C5 N1 1.389 . S
C5 C4 1.351 . S
C5 H10 0.930 . S
O6 Cu0 1.974 1_556 S
O6 C16 1.282 . S
C7 O8 1.261 . S
C7 O20 1.251 . S
O8 C7 1.261 . S
H9 C3 0.930 . S
H10 C5 0.930 . S
N11 Cu0 1.985 1_556 S
N11 C13 1.335 . S
N11 C14 1.390 . S
N12 C13 1.345 . S
N12 C15 1.336 . S
C13 N11 1.335 . S
C13 N12 1.345 . S
C13 H18 0.930 . S
C14 N11 1.390 . S
C14 C15 1.346 . S
C14 H19 0.930 . S
C15 N12 1.336 . S
C15 C14 1.346 . S
C15 H22 0.929 . S
C16 O6 1.282 . S
C16 O17 1.216 . S
O17 C16 1.216 . S
H18 C13 0.930 . S
H19 C14 0.930 . S
O20 Cu0 1.959 . S
O20 C7 1.251 . S
H21 C4 0.930 . S
H22 C15 0.929 . S
Cu23 N24 1.999 1_554 S
Cu23 O29 1.974 . S
Cu23 N34 1.985 . S
Cu23 O43 1.959 1_554 S
N24 Cu23 1.999 1_556 S
N24 C26 1.263 . S
N24 C28 1.389 . S
N25 C26 1.358 . S
N25 C27 1.400 . S
C26 N24 1.263 . S
C26 N25 1.358 . S
C26 H32 0.930 . S
C27 N25 1.400 . S
C27 C28 1.351 . S
C27 H44 0.930 . S
C28 N24 1.389 . S
C28 C27 1.351 . S
C28 H33 0.930 . S
O29 Cu23 1.974 . S
O29 C39 1.282 . S
C30 O31 1.257 1_556 S
C30 O43 1.251 . S
O31 C30 1.257 1_554 S
H32 C26 0.930 . S
H33 C28 0.930 . S
N34 Cu23 1.985 . S
N34 C36 1.335 . S
N34 C37 1.390 . S
N35 C36 1.345 . S
N35 C38 1.336 . S
C36 N34 1.335 . S
C36 N35 1.345 . S
C36 H41 0.930 . S
C37 N34 1.390 . S
C37 C38 1.346 . S
C37 H42 0.930 . S
C38 N35 1.336 . S
C38 C37 1.346 . S
C38 H45 0.929 . S
C39 O29 1.282 . S
C39 O40 1.216 . S
O40 C39 1.216 . S
H41 C36 0.930 . S
H42 C37 0.930 . S
O43 Cu23 1.959 1_556 S
O43 C30 1.251 . S
H44 C27 0.930 . S
H45 C38 0.929 . S
Cu46 N47 1.999 1_554 S
Cu46 O52 1.974 . S
Cu46 N57 1.986 . S
Cu46 O66 1.959 . S
N47 Cu46 1.999 1_556 S
N47 C49 1.263 . S
N47 C51 1.389 . S
N48 C49 1.358 . S
N48 C50 1.400 . S
C49 N47 1.263 . S
C49 N48 1.358 . S
C49 H55 0.905 1_565 S
C50 N48 1.400 . S
C50 C51 1.351 . S
C50 H67 0.930 . S
C51 N47 1.389 . S
C51 C50 1.351 . S
C51 H56 0.930 . S
O52 Cu46 1.974 . S
O52 C62 1.282 1_565 S
C53 O54 1.261 1_556 S
C53 O66 1.251 1_546 S
O54 C53 1.261 1_554 S
H55 C49 0.905 1_545 S
H56 C51 0.930 . S
N57 Cu46 1.986 . S
N57 C59 1.358 . S
N57 C60 1.372 1_565 S
N58 C59 1.345 1_545 S
N58 C61 1.336 . S
C59 N57 1.358 . S
C59 N58 1.345 1_565 S
C59 H64 0.930 . S
C60 N57 1.372 1_545 S
C60 C61 1.346 . S
C60 H65 0.930 . S
C61 N58 1.336 . S
C61 C60 1.346 . S
C61 H68 0.929 . S
C62 O52 1.282 1_545 S
C62 O63 1.216 . S
O63 C62 1.216 . S
H64 C59 0.930 . S
H65 C60 0.930 . S
O66 Cu46 1.959 . S
O66 C53 1.251 1_564 S
H67 C50 0.930 . S
H68 C61 0.929 . S
Cu69 N70 1.999 . S
Cu69 O75 1.974 . S
Cu69 N80 1.985 . S
Cu69 O89 1.959 . S
N70 Cu69 1.999 . S
N70 C72 1.263 . S
N70 C74 1.389 . S
N71 C72 1.358 . S
N71 C73 1.400 . S
C72 N70 1.263 . S
C72 N71 1.358 . S
C72 H78 0.930 . S
C73 N71 1.400 . S
C73 C74 1.351 . S
C73 H90 0.930 . S
C74 N70 1.389 . S
C74 C73 1.351 . S
C74 H79 0.930 . S
O75 Cu69 1.974 . S
O75 C85 1.282 . S
C76 O77 1.261 . S
C76 O89 1.251 . S
O77 C76 1.261 . S
H78 C72 0.930 . S
H79 C74 0.930 . S
N80 Cu69 1.985 . S
N80 C82 1.335 . S
N80 C83 1.390 . S
N81 C82 1.345 . S
N81 C84 1.336 . S
C82 N80 1.335 . S
C82 N81 1.345 . S
C82 H87 0.930 . S
C83 N80 1.390 . S
C83 C84 1.346 . S
C83 H88 0.953 . S
C84 N81 1.336 . S
C84 C83 1.346 . S
C84 H91 0.929 1_545 S
C85 O75 1.282 . S
C85 O86 1.216 1_545 S
O86 C85 1.216 1_565 S
H87 C82 0.930 . S
H88 C83 0.953 . S
O89 Cu69 1.959 . S
O89 C76 1.251 . S
H90 C73 0.930 . S
H91 C84 0.929 1_565 S
Cu92 N93 1.999 . S
Cu92 O98 1.974 . S
Cu92 N103 1.985 . S
Cu92 O112 1.959 . S
N93 Cu92 1.999 . S
N93 C95 1.263 . S
N93 C97 1.389 . S
N94 C95 1.358 . S
N94 C96 1.400 . S
C95 N93 1.263 . S
C95 N94 1.358 . S
C95 H101 0.930 . S
C96 N94 1.400 . S
C96 C97 1.351 . S
C96 H113 0.930 . S
C97 N93 1.389 . S
C97 C96 1.351 . S
C97 H102 0.930 . S
O98 Cu92 1.974 . S
O98 C108 1.282 . S
C99 O100 1.261 . S
C99 O112 1.251 . S
O100 C99 1.261 . S
H101 C95 0.930 . S
H102 C97 0.930 . S
N103 Cu92 1.985 . S
N103 C105 1.335 . S
N103 C106 1.390 . S
N104 C105 1.345 . S
N104 C107 1.336 . S
C105 N103 1.335 . S
C105 N104 1.345 . S
C105 H110 0.930 . S
C106 N103 1.390 . S
C106 C107 1.346 . S
C106 H111 0.930 . S
C107 N104 1.336 . S
C107 C106 1.346 . S
C107 H114 0.929 . S
C108 O98 1.282 . S
C108 O109 1.216 . S
O109 C108 1.216 . S
H110 C105 0.930 . S
H111 C106 0.930 . S
O112 Cu92 1.959 . S
O112 C99 1.251 . S
H113 C96 0.930 . S
H114 C107 0.929 . S
Cu115 N116 1.999 . S
Cu115 O121 1.974 . S
Cu115 N126 1.985 . S
Cu115 O135 1.959 . S
N116 Cu115 1.999 . S
N116 C118 1.263 . S
N116 C120 1.389 . S
N117 C118 1.358 . S
N117 C119 1.400 . S
C118 N116 1.263 . S
C118 N117 1.358 . S
C118 H124 0.930 . S
C119 N117 1.400 . S
C119 C120 1.351 . S
C119 H136 0.930 . S
C120 N116 1.389 . S
C120 C119 1.351 . S
C120 H125 0.930 . S
O121 Cu115 1.974 . S
O121 C131 1.282 . S
C122 O123 1.261 . S
C122 O135 1.251 . S
O123 C122 1.261 . S
H124 C118 0.930 . S
H125 C120 0.930 . S
N126 Cu115 1.985 . S
N126 C128 1.335 . S
N126 C129 1.390 . S
N127 C128 1.345 . S
N127 C130 1.336 . S
C128 N126 1.335 . S
C128 N127 1.345 . S
C128 H133 0.930 . S
C129 N126 1.390 . S
C129 C130 1.346 . S
C129 H134 0.930 . S
C130 N127 1.336 . S
C130 C129 1.346 . S
C130 H137 0.929 . S
C131 O121 1.282 . S
C131 O132 1.216 . S
O132 C131 1.216 . S
H133 C128 0.930 . S
H134 C129 0.930 . S
O135 Cu115 1.959 . S
O135 C122 1.251 . S
H136 C119 0.930 . S
H137 C130 0.929 . S
Cu138 N139 1.999 . S
Cu138 O144 1.974 . S
Cu138 N149 1.985 . S
Cu138 O158 1.959 . S
N139 Cu138 1.999 . S
N139 C141 1.263 . S
N139 C143 1.389 . S
N140 C141 1.358 . S
N140 C142 1.400 . S
C141 N139 1.263 . S
C141 N140 1.358 . S
C141 H147 0.930 . S
C142 N140 1.400 . S
C142 C143 1.351 . S
C142 H159 0.930 . S
C143 N139 1.389 . S
C143 C142 1.351 . S
C143 H148 0.930 . S
O144 Cu138 1.974 . S
O144 C154 1.282 . S
C145 O146 1.261 . S
C145 O158 1.251 . S
O146 C145 1.261 . S
H147 C141 0.930 . S
H148 C143 0.930 . S
N149 Cu138 1.985 . S
N149 C151 1.335 . S
N149 C152 1.390 . S
N150 C151 1.345 . S
N150 C153 1.336 . S
C151 N149 1.335 . S
C151 N150 1.345 . S
C151 H156 0.930 . S
C152 N149 1.390 . S
C152 C153 1.346 . S
C152 H157 0.930 . S
C153 N150 1.336 . S
C153 C152 1.346 . S
C153 H160 0.929 . S
C154 O144 1.282 . S
C154 O155 1.216 . S
O155 C154 1.216 . S
H156 C151 0.930 . S
H157 C152 0.930 . S
O158 Cu138 1.959 . S
O158 C145 1.251 . S
H159 C142 0.930 . S
H160 C153 0.929 . S
Cu161 N162 1.999 . S
Cu161 O167 1.974 . S
Cu161 N172 1.985 . S
Cu161 O181 1.959 . S
N162 Cu161 1.999 . S
N162 C164 1.263 . S
N162 C166 1.389 . S
N163 C164 1.358 . S
N163 C165 1.400 . S
C164 N162 1.263 . S
C164 N163 1.358 . S
C164 H170 0.930 . S
C165 N163 1.400 . S
C165 C166 1.351 . S
C165 H182 0.930 . S
C166 N162 1.389 . S
C166 C165 1.351 . S
C166 H171 0.930 . S
O167 Cu161 1.974 . S
O167 C177 1.282 . S
C168 O169 1.261 . S
C168 O181 1.251 . S
O169 C168 1.261 . S
H170 C164 0.930 . S
H171 C166 0.930 . S
N172 Cu161 1.985 . S
N172 C174 1.335 . S
N172 C175 1.390 . S
N173 C174 1.345 . S
N173 C176 1.336 . S
C174 N172 1.335 . S
C174 N173 1.345 . S
C174 H179 0.930 . S
C175 N172 1.390 . S
C175 C176 1.346 . S
C175 H180 0.930 . S
C176 N173 1.336 . S
C176 C175 1.346 . S
C176 H183 0.929 . S
C177 O167 1.282 . S
C177 O178 1.216 . S
O178 C177 1.216 . S
H179 C174 0.930 . S
H180 C175 0.930 . S
O181 Cu161 1.959 . S
O181 C168 1.251 . S
H182 C165 0.930 . S
H183 C176 0.929 . S
Cu184 N185 1.999 . S
Cu184 O190 1.974 . S
Cu184 N195 1.985 . S
Cu184 O204 1.959 . S
N185 Cu184 1.999 . S
N185 C187 1.263 . S
N185 C189 1.389 . S
N186 C187 1.358 . S
N186 C188 1.400 . S
C187 N185 1.263 . S
C187 N186 1.358 . S
C187 H193 0.930 . S
C188 N186 1.400 . S
C188 C189 1.351 . S
C188 H205 0.930 . S
C189 N185 1.389 . S
C189 C188 1.351 . S
C189 H194 0.930 . S
O190 Cu184 1.974 . S
O190 C200 1.282 . S
C191 O192 1.261 . S
C191 O204 1.251 . S
O192 C191 1.261 . S
H193 C187 0.930 . S
H194 C189 0.930 . S
N195 Cu184 1.985 . S
N195 C197 1.335 . S
N195 C198 1.390 . S
N196 C197 1.345 . S
N196 C199 1.336 . S
C197 N195 1.335 . S
C197 N196 1.345 . S
C197 H202 0.930 . S
C198 N195 1.390 . S
C198 C199 1.346 . S
C198 H203 0.930 . S
C199 N196 1.336 . S
C199 C198 1.346 . S
C199 H206 0.929 . S
C200 O190 1.282 . S
C200 O201 1.216 . S
O201 C200 1.216 . S
H202 C197 0.930 . S
H203 C198 0.930 . S
O204 Cu184 1.959 . S
O204 C191 1.251 . S
H205 C188 0.930 . S
H206 C199 0.929 . S
Cu207 N208 1.999 . S
Cu207 O213 1.974 . S
Cu207 N218 1.985 . S
Cu207 O227 1.959 . S
N208 Cu207 1.999 . S
N208 C210 1.263 . S
N208 C212 1.389 . S
N209 C210 1.358 . S
N209 C211 1.400 . S
C210 N208 1.263 . S
C210 N209 1.358 . S
C210 H216 0.930 . S
C211 N209 1.400 . S
C211 C212 1.351 . S
C211 H228 0.930 . S
C212 N208 1.389 . S
C212 C211 1.351 . S
C212 H217 0.930 . S
O213 Cu207 1.974 . S
O213 C223 1.282 . S
C214 O215 1.261 . S
C214 O227 1.251 . S
O215 C214 1.261 . S
H216 C210 0.930 . S
H217 C212 0.930 . S
N218 Cu207 1.985 . S
N218 C220 1.335 . S
N218 C221 1.390 . S
N219 C220 1.345 . S
N219 C222 1.336 . S
C220 N218 1.335 . S
C220 N219 1.345 . S
C220 H225 0.930 . S
C221 N218 1.390 . S
C221 C222 1.346 . S
C221 H226 0.930 . S
C222 N219 1.336 . S
C222 C221 1.346 . S
C222 H229 0.929 . S
C223 O213 1.282 . S
C223 O224 1.216 . S
O224 C223 1.216 . S
H225 C220 0.930 . S
H226 C221 0.930 . S
O227 Cu207 1.959 . S
O227 C214 1.251 . S
H228 C211 0.930 . S
H229 C222 0.929 . S
Cu230 N231 1.999 . S
Cu230 O236 1.974 . S
Cu230 N241 1.985 . S
Cu230 O250 1.959 . S
N231 Cu230 1.999 . S
N231 C233 1.263 . S
N231 C235 1.389 . S
N232 C233 1.358 . S
N232 C234 1.400 . S
C233 N231 1.263 . S
C233 N232 1.358 . S
C233 H239 0.930 . S
C234 N232 1.400 . S
C234 C235 1.351 . S
C234 H251 0.930 . S
C235 N231 1.389 . S
C235 C234 1.351 . S
C235 H240 0.930 . S
O236 Cu230 1.974 . S
O236 C246 1.282 . S
C237 O238 1.261 . S
C237 O250 1.251 . S
O238 C237 1.261 . S
H239 C233 0.930 . S
H240 C235 0.930 . S
N241 Cu230 1.985 . S
N241 C243 1.335 . S
N241 C244 1.390 . S
N242 C243 1.345 . S
N242 C245 1.336 . S
C243 N241 1.335 . S
C243 N242 1.345 . S
C243 H248 0.930 . S
C244 N241 1.390 . S
C244 C245 1.346 . S
C244 H249 0.930 . S
C245 N242 1.336 . S
C245 C244 1.346 . S
C245 H252 0.929 . S
C246 O236 1.282 . S
C246 O247 1.216 . S
O247 C246 1.216 . S
H248 C243 0.930 . S
H249 C244 0.930 . S
O250 Cu230 1.959 . S
O250 C237 1.251 . S
H251 C234 0.930 . S
H252 C245 0.929 . S
Cu253 N254 1.999 . S
Cu253 O259 1.974 . S
Cu253 N264 1.985 . S
Cu253 O273 1.959 . S
N254 Cu253 1.999 . S
N254 C256 1.263 . S
N254 C258 1.389 . S
N255 C256 1.358 . S
N255 C257 1.400 . S
C256 N254 1.263 . S
C256 N255 1.358 . S
C256 H262 0.930 . S
C257 N255 1.400 . S
C257 C258 1.351 . S
C257 H274 0.930 . S
C258 N254 1.389 . S
C258 C257 1.351 . S
C258 H263 0.930 . S
O259 Cu253 1.974 . S
O259 C269 1.282 . S
C260 O261 1.261 . S
C260 O273 1.251 . S
O261 C260 1.261 . S
H262 C256 0.930 . S
H263 C258 0.930 . S
N264 Cu253 1.985 . S
N264 C266 1.335 . S
N264 C267 1.390 . S
N265 C266 1.345 . S
N265 C268 1.336 . S
C266 N264 1.335 . S
C266 N265 1.345 . S
C266 H271 0.930 . S
C267 N264 1.390 . S
C267 C268 1.346 . S
C267 H272 0.930 . S
C268 N265 1.336 . S
C268 C267 1.346 . S
C268 H275 0.929 . S
C269 O259 1.282 . S
C269 O270 1.216 . S
O270 C269 1.216 . S
H271 C266 0.930 . S
H272 C267 0.930 . S
O273 Cu253 1.959 . S
O273 C260 1.251 . S
H274 C257 0.930 . S
H275 C268 0.929 . S
Cu276 N277 1.999 . S
Cu276 O282 1.974 . S
Cu276 N287 1.985 . S
Cu276 O296 1.959 . S
N277 Cu276 1.999 . S
N277 C279 1.263 . S
N277 C281 1.389 . S
N278 C279 1.358 . S
N278 C280 1.400 . S
C279 N277 1.263 . S
C279 N278 1.358 . S
C279 H285 0.930 . S
C280 N278 1.400 . S
C280 C281 1.351 . S
C280 H297 0.930 . S
C281 N277 1.389 . S
C281 C280 1.351 . S
C281 H286 0.930 . S
O282 Cu276 1.974 . S
O282 C292 1.282 . S
C283 O284 1.261 . S
C283 O296 1.251 . S
O284 C283 1.261 . S
H285 C279 0.930 . S
H286 C281 0.930 . S
N287 Cu276 1.985 . S
N287 C289 1.335 . S
N287 C290 1.390 . S
N288 C289 1.345 . S
N288 C291 1.336 . S
C289 N287 1.335 . S
C289 N288 1.345 . S
C289 H294 0.930 . S
C290 N287 1.390 . S
C290 C291 1.346 . S
C290 H295 0.930 . S
C291 N288 1.336 . S
C291 C290 1.346 . S
C291 H298 0.929 . S
C292 O282 1.282 . S
C292 O293 1.216 . S
O293 C292 1.216 . S
H294 C289 0.930 . S
H295 C290 0.930 . S
O296 Cu276 1.959 . S
O296 C283 1.251 . S
H297 C280 0.930 . S
H298 C291 0.929 . S
Cu299 N300 1.999 . S
Cu299 O305 1.974 . S
Cu299 N310 1.985 . S
Cu299 O319 1.959 . S
N300 Cu299 1.999 . S
N300 C302 1.263 . S
N300 C304 1.389 . S
N301 C302 1.358 . S
N301 C303 1.400 . S
C302 N300 1.263 . S
C302 N301 1.358 . S
C302 H308 0.930 . S
C303 N301 1.400 . S
C303 C304 1.351 . S
C303 H320 0.930 . S
C304 N300 1.389 . S
C304 C303 1.351 . S
C304 H309 0.930 . S
O305 Cu299 1.974 . S
O305 C315 1.282 . S
C306 O307 1.261 . S
C306 O319 1.251 . S
O307 C306 1.261 . S
H308 C302 0.930 . S
H309 C304 0.930 . S
N310 Cu299 1.985 . S
N310 C312 1.335 . S
N310 C313 1.390 . S
N311 C312 1.345 . S
N311 C314 1.336 . S
C312 N310 1.335 . S
C312 N311 1.345 . S
C312 H317 0.930 . S
C313 N310 1.390 . S
C313 C314 1.346 . S
C313 H318 0.930 . S
C314 N311 1.336 . S
C314 C313 1.346 . S
C314 H321 0.929 . S
C315 O305 1.282 . S
C315 O316 1.216 . S
O316 C315 1.216 . S
H317 C312 0.930 . S
H318 C313 0.930 . S
O319 Cu299 1.959 . S
O319 C306 1.251 . S
H320 C303 0.930 . S
H321 C314 0.929 . S
Cu322 N323 1.999 . S
Cu322 O328 1.974 . S
Cu322 N333 1.985 . S
Cu322 O342 1.959 . S
N323 Cu322 1.999 . S
N323 C325 1.263 . S
N323 C327 1.389 . S
N324 C325 1.358 . S
N324 C326 1.400 . S
C325 N323 1.263 . S
C325 N324 1.358 . S
C325 H331 0.930 . S
C326 N324 1.400 . S
C326 C327 1.351 . S
C326 H343 0.930 . S
C327 N323 1.389 . S
C327 C326 1.351 . S
C327 H332 0.930 . S
O328 Cu322 1.974 . S
O328 C338 1.282 . S
C329 O330 1.261 . S
C329 O342 1.251 . S
O330 C329 1.261 . S
H331 C325 0.930 . S
H332 C327 0.930 . S
N333 Cu322 1.985 . S
N333 C335 1.335 . S
N333 C336 1.390 . S
N334 C335 1.345 . S
N334 C337 1.336 . S
C335 N333 1.335 . S
C335 N334 1.345 . S
C335 H340 0.930 . S
C336 N333 1.390 . S
C336 C337 1.346 . S
C336 H341 0.930 . S
C337 N334 1.336 . S
C337 C336 1.346 . S
C337 H344 0.929 . S
C338 O328 1.282 . S
C338 O339 1.216 . S
O339 C338 1.216 . S
H340 C335 0.930 . S
H341 C336 0.930 . S
O342 Cu322 1.959 . S
O342 C329 1.251 . S
H343 C326 0.930 . S
H344 C337 0.929 . S
Cu345 N346 1.999 . S
Cu345 O351 1.974 . S
Cu345 N356 1.985 . S
Cu345 O365 1.959 . S
N346 Cu345 1.999 . S
N346 C348 1.263 . S
N346 C350 1.389 . S
N347 C348 1.358 . S
N347 C349 1.400 . S
C348 N346 1.263 . S
C348 N347 1.358 . S
C348 H354 0.930 . S
C349 N347 1.400 . S
C349 C350 1.351 . S
C349 H366 0.930 . S
C350 N346 1.389 . S
C350 C349 1.351 . S
C350 H355 0.930 . S
O351 Cu345 1.974 . S
O351 C361 1.282 . S
C352 O353 1.261 . S
C352 O365 1.251 . S
O353 C352 1.261 . S
H354 C348 0.930 . S
H355 C350 0.930 . S
N356 Cu345 1.985 . S
N356 C358 1.335 . S
N356 C359 1.390 . S
N357 C358 1.345 . S
N357 C360 1.336 . S
C358 N356 1.335 . S
C358 N357 1.345 . S
C358 H363 0.930 . S
C359 N356 1.390 . S
C359 C360 1.346 . S
C359 H364 0.930 . S
C360 N357 1.336 . S
C360 C359 1.346 . S
C360 H367 0.929 . S
C361 O351 1.282 . S
C361 O362 1.216 . S
O362 C361 1.216 . S
H363 C358 0.930 . S
H364 C359 0.930 . S
O365 Cu345 1.959 . S
O365 C352 1.251 . S
H366 C349 0.930 . S
H367 C360 0.929 . S
Cu368 N369 1.999 . S
Cu368 O374 1.974 . S
Cu368 N379 1.985 . S
Cu368 O388 1.959 . S
N369 Cu368 1.999 . S
N369 C371 1.263 . S
N369 C373 1.389 . S
N370 C371 1.358 . S
N370 C372 1.400 . S
C371 N369 1.263 . S
C371 N370 1.358 . S
C371 H377 0.930 . S
C372 N370 1.400 . S
C372 C373 1.351 . S
C372 H389 0.930 . S
C373 N369 1.389 . S
C373 C372 1.351 . S
C373 H378 0.930 . S
O374 Cu368 1.974 . S
O374 C384 1.282 . S
C375 O376 1.261 . S
C375 O388 1.251 . S
O376 C375 1.261 . S
H377 C371 0.930 . S
H378 C373 0.930 . S
N379 Cu368 1.985 . S
N379 C381 1.335 . S
N379 C382 1.390 . S
N380 C381 1.345 . S
N380 C383 1.336 . S
C381 N379 1.335 . S
C381 N380 1.345 . S
C381 H386 0.930 . S
C382 N379 1.390 . S
C382 C383 1.346 . S
C382 H387 0.930 . S
C383 N380 1.336 . S
C383 C382 1.346 . S
C383 H390 0.929 . S
C384 O374 1.282 . S
C384 O385 1.216 . S
O385 C384 1.216 . S
H386 C381 0.930 . S
H387 C382 0.930 . S
O388 Cu368 1.959 . S
O388 C375 1.251 . S
H389 C372 0.930 . S
H390 C383 0.929 . S
Cu391 N392 1.999 . S
Cu391 O397 1.974 . S
Cu391 N402 1.985 . S
Cu391 O411 1.959 . S
N392 Cu391 1.999 . S
N392 C394 1.263 . S
N392 C396 1.389 . S
N393 C394 1.358 . S
N393 C395 1.400 . S
C394 N392 1.263 . S
C394 N393 1.358 . S
C394 H400 0.930 . S
C395 N393 1.400 . S
C395 C396 1.351 . S
C395 H412 0.930 . S
C396 N392 1.389 . S
C396 C395 1.351 . S
C396 H401 0.930 . S
O397 Cu391 1.974 . S
O397 C407 1.282 . S
C398 O399 1.261 . S
C398 O411 1.251 . S
O399 C398 1.261 . S
H400 C394 0.930 . S
H401 C396 0.930 . S
N402 Cu391 1.985 . S
N402 C404 1.335 . S
N402 C405 1.390 . S
N403 C404 1.345 . S
N403 C406 1.336 . S
C404 N402 1.335 . S
C404 N403 1.345 . S
C404 H409 0.930 . S
C405 N402 1.390 . S
C405 C406 1.346 . S
C405 H410 0.930 . S
C406 N403 1.336 . S
C406 C405 1.346 . S
C406 H413 0.929 . S
C407 O397 1.282 . S
C407 O408 1.216 . S
O408 C407 1.216 . S
H409 C404 0.930 . S
H410 C405 0.930 . S
O411 Cu391 1.959 . S
O411 C398 1.251 . S
H412 C395 0.930 . S
H413 C406 0.929 . S
Mn414 O419 2.095 . S
Mn414 O429 2.162 . S
Mn414 O430 2.297 . S
Mn414 O438 2.385 1_455 S
Mn414 O439 2.209 1_455 S
Mn414 O440 2.094 . S
Mn415 O420 2.121 . S
Mn415 N422 2.257 . S
Mn415 N431 2.282 . S
Mn415 O439 2.215 . S
Mn415 O441 2.117 . S
C416 O438 1.234 . S
C416 O439 1.283 . S
C417 O429 1.281 . S
C417 O430 1.236 . S
C418 O440 1.240 . S
C418 O441 1.264 1_455 S
O419 Mn414 2.095 . S
O419 C428 1.250 . S
O420 Mn415 2.121 . S
O420 C428 1.258 1_655 S
C421 N422 1.326 . S
C421 C425 1.460 . S
C421 H427 0.929 . S
N422 Mn415 2.257 . S
N422 C421 1.326 . S
N422 C426 1.362 . S
C423 C424 1.258 . S
C423 C426 1.431 . S
C423 C443 1.449 . S
C424 C423 1.258 . S
C424 C425 1.477 . S
C424 H444 0.931 . S
C425 C421 1.460 . S
C425 C424 1.477 . S
C425 H445 0.930 . S
C426 N422 1.362 . S
C426 C423 1.431 . S
C426 C436 1.476 . S
H427 C421 0.929 . S
C428 O419 1.250 . S
C428 O420 1.258 1_455 S
O429 Mn414 2.162 . S
O429 C417 1.281 . S
O430 Mn414 2.297 . S
O430 C417 1.236 . S
N431 Mn415 2.282 . S
N431 C432 1.328 . S
N431 C436 1.318 . S
C432 N431 1.328 . S
C432 C433 1.457 . S
C432 H437 0.929 . S
C433 C432 1.457 . S
C433 C434 1.291 . S
C433 H446 0.931 . S
C434 C433 1.291 . S
C434 C435 1.373 . S
C434 H447 0.929 . S
C435 C434 1.373 . S
C435 C436 1.396 . S
C435 C442 1.403 . S
C436 C426 1.476 . S
C436 N431 1.318 . S
C436 C435 1.396 . S
H437 C432 0.929 . S
O438 Mn414 2.385 1_655 S
O438 C416 1.234 . S
O439 Mn414 2.209 1_655 S
O439 Mn415 2.215 . S
O439 C416 1.283 . S
O440 Mn414 2.094 . S
O440 C418 1.240 . S
O441 Mn415 2.117 . S
O441 C418 1.264 1_655 S
C442 C435 1.403 . S
C442 C443 1.399 . S
C442 H448 0.929 . S
C443 C423 1.449 . S
C443 C442 1.399 . S
C443 H449 0.930 . S
H444 C424 0.931 . S
H445 C425 0.930 . S
H446 C433 0.931 . S
H447 C434 0.929 . S
H448 C442 0.929 . S
H449 C443 0.930 . S
Mn450 O455 2.095 . S
Mn450 O465 2.162 . S
Mn450 O466 2.297 . S
Mn450 O474 2.385 . S
Mn450 O475 2.209 . S
Mn450 O476 2.094 . S
Mn451 O456 2.121 . S
Mn451 N458 2.257 . S
Mn451 N467 2.282 . S
Mn451 O475 2.215 . S
Mn451 O477 2.117 . S
C452 O474 1.234 . S
C452 O475 1.283 . S
C453 O465 1.281 . S
C453 O466 1.236 . S
C454 O476 1.240 . S
C454 O477 1.264 . S
O455 Mn450 2.095 . S
O455 C464 1.250 . S
O456 Mn451 2.121 . S
O456 C464 1.258 . S
C457 N458 1.326 . S
C457 C461 1.460 . S
C457 H463 0.929 . S
N458 Mn451 2.257 . S
N458 C457 1.326 . S
N458 C462 1.362 . S
C459 C460 1.258 . S
C459 C462 1.431 . S
C459 C479 1.449 . S
C460 C459 1.258 . S
C460 C461 1.477 . S
C460 H480 0.931 . S
C461 C457 1.460 . S
C461 C460 1.477 . S
C461 H481 0.930 . S
C462 N458 1.362 . S
C462 C459 1.431 . S
C462 C472 1.476 . S
H463 C457 0.929 . S
C464 O455 1.250 . S
C464 O456 1.258 . S
O465 Mn450 2.162 . S
O465 C453 1.281 . S
O466 Mn450 2.297 . S
O466 C453 1.236 . S
N467 Mn451 2.282 . S
N467 C468 1.328 . S
N467 C472 1.318 . S
C468 N467 1.328 . S
C468 C469 1.457 . S
C468 H473 0.929 . S
C469 C468 1.457 . S
C469 C470 1.291 . S
C469 H482 0.931 . S
C470 C469 1.291 . S
C470 C471 1.373 . S
C470 H483 0.929 . S
C471 C470 1.373 . S
C471 C472 1.396 . S
C471 C478 1.403 . S
C472 C462 1.476 . S
C472 N467 1.318 . S
C472 C471 1.396 . S
H473 C468 0.929 . S
O474 Mn450 2.385 . S
O474 C452 1.234 . S
O475 Mn450 2.209 . S
O475 Mn451 2.215 . S
O475 C452 1.283 . S
O476 Mn450 2.094 . S
O476 C454 1.240 . S
O477 Mn451 2.117 . S
O477 C454 1.264 . S
C478 C471 1.403 . S
C478 C479 1.399 . S
C478 H484 0.929 . S
C479 C459 1.449 . S
C479 C478 1.399 . S
C479 H485 0.930 . S
H480 C460 0.931 . S
H481 C461 0.930 . S
H482 C469 0.931 . S
H483 C470 0.929 . S
H484 C478 0.929 . S
H485 C479 0.930 . S
Mn486 O491 2.095 . S
Mn486 O501 2.162 . S
Mn486 O502 2.297 . S
Mn486 O510 2.385 . S
Mn486 O511 2.209 . S
Mn486 O512 2.094 . S
Mn487 O492 2.121 . S
Mn487 N494 2.257 . S
Mn487 N503 2.282 . S
Mn487 O511 2.215 . S
Mn487 O513 2.117 . S
C488 O510 1.234 . S
C488 O511 1.283 . S
C489 O501 1.281 . S
C489 O502 1.236 . S
C490 O512 1.240 . S
C490 O513 1.264 . S
O491 Mn486 2.095 . S
O491 C500 1.250 . S
O492 Mn487 2.121 . S
O492 C500 1.258 . S
C493 N494 1.326 . S
C493 C497 1.460 . S
C493 H499 0.929 . S
N494 Mn487 2.257 . S
N494 C493 1.326 . S
N494 C498 1.362 . S
C495 C496 1.258 . S
C495 C498 1.431 . S
C495 C515 1.449 . S
C496 C495 1.258 . S
C496 C497 1.477 . S
C496 H516 0.931 . S
C497 C493 1.460 . S
C497 C496 1.477 . S
C497 H517 0.930 . S
C498 N494 1.362 . S
C498 C495 1.431 . S
C498 C508 1.476 . S
H499 C493 0.929 . S
C500 O491 1.250 . S
C500 O492 1.258 . S
O501 Mn486 2.162 . S
O501 C489 1.281 . S
O502 Mn486 2.297 . S
O502 C489 1.236 . S
N503 Mn487 2.282 . S
N503 C504 1.328 . S
N503 C508 1.318 . S
C504 N503 1.328 . S
C504 C505 1.457 . S
C504 H509 0.929 . S
C505 C504 1.457 . S
C505 C506 1.291 . S
C505 H518 0.931 . S
C506 C505 1.291 . S
C506 C507 1.373 . S
C506 H519 0.929 . S
C507 C506 1.373 . S
C507 C508 1.396 . S
C507 C514 1.403 . S
C508 C498 1.476 . S
C508 N503 1.318 . S
C508 C507 1.396 . S
H509 C504 0.929 . S
O510 Mn486 2.385 . S
O510 C488 1.234 . S
O511 Mn486 2.209 . S
O511 Mn487 2.215 . S
O511 C488 1.283 . S
O512 Mn486 2.094 . S
O512 C490 1.240 . S
O513 Mn487 2.117 . S
O513 C490 1.264 . S
C514 C507 1.403 . S
C514 C515 1.399 . S
C514 H520 0.929 . S
C515 C495 1.449 . S
C515 C514 1.399 . S
C515 H521 0.930 . S
H516 C496 0.931 . S
H517 C497 0.930 . S
H518 C505 0.931 . S
H519 C506 0.929 . S
H520 C514 0.929 . S
H521 C515 0.930 . S
Mn522 O527 2.095 . S
Mn522 O537 2.137 1_455 S
Mn522 O538 2.297 . S
Mn522 O546 2.385 . S
Mn522 O547 2.209 . S
Mn522 O548 2.094 1_455 S
Mn523 O528 2.121 . S
Mn523 N530 2.257 . S
Mn523 N539 2.282 . S
Mn523 O547 2.215 . S
Mn523 O549 2.117 1_455 S
C524 O546 1.234 . S
C524 O547 1.283 . S
C525 O537 1.252 1_455 S
C525 O538 1.236 . S
C526 O548 1.240 . S
C526 O549 1.264 . S
O527 Mn522 2.095 . S
O527 C536 1.250 . S
O528 Mn523 2.121 . S
O528 C536 1.258 . S
C529 N530 1.326 . S
C529 C533 1.460 . S
C529 H535 0.929 . S
N530 Mn523 2.257 . S
N530 C529 1.326 . S
N530 C534 1.362 . S
C531 C532 1.258 . S
C531 C534 1.431 . S
C531 C551 1.449 . S
C532 C531 1.258 . S
C532 C533 1.477 . S
C532 H552 0.931 . S
C533 C529 1.460 . S
C533 C532 1.477 . S
C533 H553 0.930 . S
C534 N530 1.362 . S
C534 C531 1.431 . S
C534 C544 1.476 . S
H535 C529 0.929 . S
C536 O527 1.250 . S
C536 O528 1.258 . S
O537 Mn522 2.137 1_655 S
O537 C525 1.252 1_655 S
O538 Mn522 2.297 . S
O538 C525 1.236 . S
N539 Mn523 2.282 . S
N539 C540 1.328 . S
N539 C544 1.318 . S
C540 N539 1.328 . S
C540 C541 1.457 . S
C540 H545 0.929 . S
C541 C540 1.457 . S
C541 C542 1.291 . S
C541 H554 0.931 . S
C542 C541 1.291 . S
C542 C543 1.373 . S
C542 H555 0.929 . S
C543 C542 1.373 . S
C543 C544 1.396 . S
C543 C550 1.403 . S
C544 C534 1.476 . S
C544 N539 1.318 . S
C544 C543 1.396 . S
H545 C540 0.929 . S
O546 Mn522 2.385 . S
O546 C524 1.234 . S
O547 Mn522 2.209 . S
O547 Mn523 2.215 . S
O547 C524 1.283 . S
O548 Mn522 2.094 1_655 S
O548 C526 1.240 . S
O549 Mn523 2.117 1_655 S
O549 C526 1.264 . S
C550 C543 1.403 . S
C550 C551 1.399 . S
C550 H556 0.929 . S
C551 C531 1.449 . S
C551 C550 1.399 . S
C551 H557 0.930 . S
H552 C532 0.931 . S
H553 C533 0.930 . S
H554 C541 0.931 . S
H555 C542 0.929 . S
H556 C550 0.929 . S
H557 C551 0.930 . S
Mn558 O563 2.095 . S
Mn558 O573 2.162 . S
Mn558 O574 2.297 . S
Mn558 O582 2.385 . S
Mn558 O583 2.209 . S
Mn558 O584 2.094 . S
Mn559 O564 2.121 . S
Mn559 N566 2.257 . S
Mn559 N575 2.282 . S
Mn559 O583 2.215 . S
Mn559 O585 2.117 . S
C560 O582 1.234 . S
C560 O583 1.283 . S
C561 O573 1.281 . S
C561 O574 1.236 . S
C562 O584 1.240 . S
C562 O585 1.264 . S
O563 Mn558 2.095 . S
O563 C572 1.250 . S
O564 Mn559 2.121 . S
O564 C572 1.258 . S
C565 N566 1.326 . S
C565 C569 1.460 . S
C565 H571 0.929 . S
N566 Mn559 2.257 . S
N566 C565 1.326 . S
N566 C570 1.362 . S
C567 C568 1.258 . S
C567 C570 1.431 . S
C567 C587 1.449 . S
C568 C567 1.258 . S
C568 C569 1.477 . S
C568 H588 0.931 . S
C569 C565 1.460 . S
C569 C568 1.477 . S
C569 H589 0.930 . S
C570 N566 1.362 . S
C570 C567 1.431 . S
C570 C580 1.476 . S
H571 C565 0.929 . S
C572 O563 1.250 . S
C572 O564 1.258 . S
O573 Mn558 2.162 . S
O573 C561 1.281 . S
O574 Mn558 2.297 . S
O574 C561 1.236 . S
N575 Mn559 2.282 . S
N575 C576 1.328 . S
N575 C580 1.318 . S
C576 N575 1.328 . S
C576 C577 1.457 . S
C576 H581 0.929 . S
C577 C576 1.457 . S
C577 C578 1.291 . S
C577 H590 0.931 . S
C578 C577 1.291 . S
C578 C579 1.373 . S
C578 H591 0.929 . S
C579 C578 1.373 . S
C579 C580 1.396 . S
C579 C586 1.403 . S
C580 C570 1.476 . S
C580 N575 1.318 . S
C580 C579 1.396 . S
H581 C576 0.929 . S
O582 Mn558 2.385 . S
O582 C560 1.234 . S
O583 Mn558 2.209 . S
O583 Mn559 2.215 . S
O583 C560 1.283 . S
O584 Mn558 2.094 . S
O584 C562 1.240 . S
O585 Mn559 2.117 . S
O585 C562 1.264 . S
C586 C579 1.403 . S
C586 C587 1.399 . S
C586 H592 0.929 . S
C587 C567 1.449 . S
C587 C586 1.399 . S
C587 H593 0.930 . S
H588 C568 0.931 . S
H589 C569 0.930 . S
H590 C577 0.931 . S
H591 C578 0.929 . S
H592 C586 0.929 . S
H593 C587 0.930 . S
Mn594 O599 2.095 . S
Mn594 O609 2.162 . S
Mn594 O610 2.297 1_545 S
Mn594 O618 2.385 . S
Mn594 O619 2.209 1_545 S
Mn594 O620 2.094 . S
Mn595 O600 2.121 . S
Mn595 N602 2.257 1_545 S
Mn595 N611 2.296 1_545 S
Mn595 O619 2.215 1_545 S
Mn595 O621 2.117 . S
C596 O618 1.234 1_565 S
C596 O619 1.283 . S
C597 O609 1.281 . S
C597 O610 1.236 1_545 S
C598 O620 1.240 . S
C598 O621 1.264 . S
O599 Mn594 2.095 . S
O599 C608 1.250 . S
O600 Mn595 2.121 . S
O600 C608 1.258 . S
C601 N602 1.326 . S
C601 C605 1.460 . S
C601 H607 0.929 . S
N602 Mn595 2.257 1_565 S
N602 C601 1.326 . S
N602 C606 1.362 . S
C603 C604 1.258 . S
C603 C606 1.431 . S
C603 C623 1.449 . S
C604 C603 1.258 . S
C604 C605 1.477 . S
C604 H624 0.931 . S
C605 C601 1.460 . S
C605 C604 1.477 . S
C605 H625 0.930 . S
C606 N602 1.362 . S
C606 C603 1.431 . S
C606 C616 1.476 . S
H607 C601 0.929 . S
C608 O599 1.250 . S
C608 O600 1.258 . S
O609 Mn594 2.162 . S
O609 C597 1.281 . S
O610 Mn594 2.297 1_565 S
O610 C597 1.236 1_565 S
N611 Mn595 2.296 1_565 S
N611 C612 1.293 1_565 S
N611 C616 1.343 . S
C612 N611 1.293 1_545 S
C612 C613 1.457 . S
C612 H617 0.929 . S
C613 C612 1.457 . S
C613 C614 1.291 1_545 S
C613 H626 0.931 . S
C614 C613 1.291 1_565 S
C614 C615 1.373 . S
C614 H627 0.929 . S
C615 C614 1.373 . S
C615 C616 1.396 . S
C615 C622 1.403 . S
C616 C606 1.476 . S
C616 N611 1.343 . S
C616 C615 1.396 . S
H617 C612 0.929 . S
O618 Mn594 2.385 . S
O618 C596 1.234 1_545 S
O619 Mn594 2.209 1_565 S
O619 Mn595 2.215 1_565 S
O619 C596 1.283 . S
O620 Mn594 2.094 . S
O620 C598 1.240 . S
O621 Mn595 2.117 . S
O621 C598 1.264 . S
C622 C615 1.403 . S
C622 C623 1.399 . S
C622 H628 0.929 . S
C623 C603 1.449 . S
C623 C622 1.399 . S
C623 H629 0.930 . S
H624 C604 0.931 . S
H625 C605 0.930 . S
H626 C613 0.931 . S
H627 C614 0.929 . S
H628 C622 0.929 . S
H629 C623 0.930 . S
Mn630 O635 2.095 1_545 S
Mn630 O645 2.162 . S
Mn630 O646 2.297 . S
Mn630 O654 2.385 . S
Mn630 O655 2.209 1_545 S
Mn630 O656 2.094 1_545 S
Mn631 O636 2.121 . S
Mn631 N638 2.257 . S
Mn631 N647 2.282 . S
Mn631 O655 2.215 . S
Mn631 O657 2.117 . S
C632 O654 1.234 . S
C632 O655 1.283 1_545 S
C633 O645 1.281 . S
C633 O646 1.236 . S
C634 O656 1.240 . S
C634 O657 1.264 . S
O635 Mn630 2.095 1_565 S
O635 C644 1.250 . S
O636 Mn631 2.121 . S
O636 C644 1.258 . S
C637 N638 1.326 . S
C637 C641 1.460 . S
C637 H643 0.929 . S
N638 Mn631 2.257 . S
N638 C637 1.326 . S
N638 C642 1.362 . S
C639 C640 1.258 . S
C639 C642 1.431 . S
C639 C659 1.449 . S
C640 C639 1.258 . S
C640 C641 1.477 . S
C640 H660 0.931 . S
C641 C637 1.460 . S
C641 C640 1.477 . S
C641 H661 0.930 . S
C642 N638 1.362 . S
C642 C639 1.431 . S
C642 C652 1.476 . S
H643 C637 0.929 . S
C644 O635 1.250 . S
C644 O636 1.258 . S
O645 Mn630 2.162 . S
O645 C633 1.281 . S
O646 Mn630 2.297 . S
O646 C633 1.236 . S
N647 Mn631 2.282 . S
N647 C648 1.328 . S
N647 C652 1.318 . S
C648 N647 1.328 . S
C648 C649 1.457 . S
C648 H653 0.929 . S
C649 C648 1.457 . S
C649 C650 1.291 . S
C649 H662 0.931 . S
C650 C649 1.291 . S
C650 C651 1.373 . S
C650 H663 0.929 . S
C651 C650 1.373 . S
C651 C652 1.396 . S
C651 C658 1.403 . S
C652 C642 1.476 . S
C652 N647 1.318 . S
C652 C651 1.396 . S
H653 C648 0.929 . S
O654 Mn630 2.385 . S
O654 C632 1.234 . S
O655 Mn630 2.209 1_565 S
O655 Mn631 2.215 . S
O655 C632 1.283 1_565 S
O656 Mn630 2.094 1_565 S
O656 C634 1.240 . S
O657 Mn631 2.117 . S
O657 C634 1.264 . S
C658 C651 1.403 . S
C658 C659 1.399 . S
C658 H664 0.929 . S
C659 C639 1.449 . S
C659 C658 1.399 . S
C659 H665 0.930 . S
H660 C640 0.931 . S
H661 C641 0.930 . S
H662 C649 0.931 . S
H663 C650 0.929 . S
H664 C658 0.929 . S
H665 C659 0.930 . S
Mn666 O671 2.095 . S
Mn666 O681 2.162 . S
Mn666 O682 2.297 . S
Mn666 O690 2.385 . S
Mn666 O691 2.209 . S
Mn666 O692 2.094 . S
Mn667 O672 2.121 . S
Mn667 N674 2.257 . S
Mn667 N683 2.282 . S
Mn667 O691 2.215 . S
Mn667 O693 2.117 . S
C668 O690 1.234 . S
C668 O691 1.283 . S
C669 O681 1.281 . S
C669 O682 1.236 . S
C670 O692 1.240 . S
C670 O693 1.264 . S
O671 Mn666 2.095 . S
O671 C680 1.250 . S
O672 Mn667 2.121 . S
O672 C680 1.258 . S
C673 N674 1.326 . S
C673 C677 1.460 1_455 S
C673 H679 0.929 . S
N674 Mn667 2.257 . S
N674 C673 1.326 . S
N674 C678 1.362 1_455 S
C675 C676 1.258 . S
C675 C678 1.431 . S
C675 C695 1.449 . S
C676 C675 1.258 . S
C676 C677 1.477 . S
C676 H696 0.931 . S
C677 C673 1.460 1_655 S
C677 C676 1.477 . S
C677 H697 0.930 . S
C678 N674 1.362 1_655 S
C678 C675 1.431 . S
C678 C688 1.476 . S
H679 C673 0.929 . S
C680 O671 1.250 . S
C680 O672 1.258 . S
O681 Mn666 2.162 . S
O681 C669 1.281 . S
O682 Mn666 2.297 . S
O682 C669 1.236 . S
N683 Mn667 2.282 . S
N683 C684 1.328 . S
N683 C688 1.318 1_455 S
C684 N683 1.328 . S
C684 C685 1.457 1_455 S
C684 H689 0.929 . S
C685 C684 1.457 1_655 S
C685 C686 1.291 . S
C685 H698 0.931 . S
C686 C685 1.291 . S
C686 C687 1.373 . S
C686 H699 0.929 . S
C687 C686 1.373 . S
C687 C688 1.396 . S
C687 C694 1.403 . S
C688 C678 1.476 . S
C688 N683 1.318 1_655 S
C688 C687 1.396 . S
H689 C684 0.929 . S
O690 Mn666 2.385 . S
O690 C668 1.234 . S
O691 Mn666 2.209 . S
O691 Mn667 2.215 . S
O691 C668 1.283 . S
O692 Mn666 2.094 . S
O692 C670 1.240 . S
O693 Mn667 2.117 . S
O693 C670 1.264 . S
C694 C687 1.403 . S
C694 C695 1.399 . S
C694 H700 0.929 . S
C695 C675 1.449 . S
C695 C694 1.399 . S
C695 H701 0.930 . S
H696 C676 0.931 . S
H697 C677 0.930 . S
H698 C685 0.931 . S
H699 C686 0.929 . S
H700 C694 0.929 . S
H701 C695 0.930 . S
Mn702 O707 2.095 . S
Mn702 O717 2.162 . S
Mn702 O718 2.297 . S
Mn702 O726 2.385 . S
Mn702 O727 2.209 . S
Mn702 O728 2.094 . S
Mn703 O708 2.121 . S
Mn703 N710 2.257 . S
Mn703 N719 2.282 . S
Mn703 O727 2.215 . S
Mn703 O729 2.117 . S
C704 O726 1.234 . S
C704 O727 1.283 . S
C705 O717 1.281 . S
C705 O718 1.236 . S
C706 O728 1.240 . S
C706 O729 1.264 . S
O707 Mn702 2.095 . S
O707 C716 1.250 . S
O708 Mn703 2.121 . S
O708 C716 1.258 . S
C709 N710 1.326 . S
C709 C713 1.460 . S
C709 H715 0.929 . S
N710 Mn703 2.257 . S
N710 C709 1.326 . S
N710 C714 1.362 . S
C711 C712 1.258 . S
C711 C714 1.431 . S
C711 C731 1.449 . S
C712 C711 1.258 . S
C712 C713 1.477 . S
C712 H732 0.931 . S
C713 C709 1.460 . S
C713 C712 1.477 . S
C713 H733 0.930 . S
C714 N710 1.362 . S
C714 C711 1.431 . S
C714 C724 1.476 . S
H715 C709 0.929 . S
C716 O707 1.250 . S
C716 O708 1.258 . S
O717 Mn702 2.162 . S
O717 C705 1.281 . S
O718 Mn702 2.297 . S
O718 C705 1.236 . S
N719 Mn703 2.282 . S
N719 C720 1.328 . S
N719 C724 1.318 . S
C720 N719 1.328 . S
C720 C721 1.457 . S
C720 H725 0.929 . S
C721 C720 1.457 . S
C721 C722 1.291 . S
C721 H734 0.931 . S
C722 C721 1.291 . S
C722 C723 1.373 . S
C722 H735 0.929 . S
C723 C722 1.373 . S
C723 C724 1.396 . S
C723 C730 1.403 . S
C724 C714 1.476 . S
C724 N719 1.318 . S
C724 C723 1.396 . S
H725 C720 0.929 . S
O726 Mn702 2.385 . S
O726 C704 1.234 . S
O727 Mn702 2.209 . S
O727 Mn703 2.215 . S
O727 C704 1.283 . S
O728 Mn702 2.094 . S
O728 C706 1.240 . S
O729 Mn703 2.117 . S
O729 C706 1.264 . S
C730 C723 1.403 . S
C730 C731 1.399 . S
C730 H736 0.929 . S
C731 C711 1.449 . S
C731 C730 1.399 . S
C731 H737 0.930 . S
H732 C712 0.931 . S
H733 C713 0.930 . S
H734 C721 0.931 . S
H735 C722 0.929 . S
H736 C730 0.929 . S
H737 C731 0.930 . S
Mn738 O743 2.095 . S
Mn738 O753 2.162 . S
Mn738 O754 2.297 . S
Mn738 O762 2.385 . S
Mn738 O763 2.209 . S
Mn738 O764 2.094 . S
Mn739 O744 2.121 . S
Mn739 N746 2.257 . S
Mn739 N755 2.282 . S
Mn739 O763 2.215 . S
Mn739 O765 2.117 . S
C740 O762 1.234 . S
C740 O763 1.283 . S
C741 O753 1.281 . S
C741 O754 1.236 . S
C742 O764 1.240 . S
C742 O765 1.264 . S
O743 Mn738 2.095 . S
O743 C752 1.250 . S
O744 Mn739 2.121 . S
O744 C752 1.258 . S
C745 N746 1.326 1_556 S
C745 C749 1.460 . S
C745 H751 0.929 . S
N746 Mn739 2.257 . S
N746 C745 1.326 1_554 S
N746 C750 1.362 . S
C747 C748 1.258 . S
C747 C750 1.431 1_556 S
C747 C767 1.449 1_556 S
C748 C747 1.258 . S
C748 C749 1.477 . S
C748 H768 0.931 . S
C749 C745 1.460 . S
C749 C748 1.477 . S
C749 H769 0.930 . S
C750 N746 1.362 . S
C750 C747 1.431 1_554 S
C750 C760 1.476 . S
H751 C745 0.929 . S
C752 O743 1.250 . S
C752 O744 1.258 . S
O753 Mn738 2.162 . S
O753 C741 1.281 . S
O754 Mn738 2.297 . S
O754 C741 1.236 . S
N755 Mn739 2.282 . S
N755 C756 1.328 . S
N755 C760 1.318 . S
C756 N755 1.328 . S
C756 C757 1.457 . S
C756 H761 0.929 . S
C757 C756 1.457 . S
C757 C758 1.291 . S
C757 H770 0.931 . S
C758 C757 1.291 . S
C758 C759 1.373 . S
C758 H771 0.929 . S
C759 C758 1.373 . S
C759 C760 1.396 . S
C759 C766 1.403 . S
C760 C750 1.476 . S
C760 N755 1.318 . S
C760 C759 1.396 . S
H761 C756 0.929 . S
O762 Mn738 2.385 . S
O762 C740 1.234 . S
O763 Mn738 2.209 . S
O763 Mn739 2.215 . S
O763 C740 1.283 . S
O764 Mn738 2.094 . S
O764 C742 1.240 . S
O765 Mn739 2.117 . S
O765 C742 1.264 . S
C766 C759 1.403 . S
C766 C767 1.399 . S
C766 H772 0.929 . S
C767 C747 1.449 1_554 S
C767 C766 1.399 . S
C767 H773 0.930 1_554 S
H768 C748 0.931 . S
H769 C749 0.930 . S
H770 C757 0.931 . S
H771 C758 0.929 . S
H772 C766 0.929 . S
H773 C767 0.930 1_556 S
Mn774 O779 2.095 . S
Mn774 O789 2.162 . S
Mn774 O790 2.297 . S
Mn774 O798 2.385 1_565 S
Mn774 O799 2.209 . S
Mn774 O800 2.094 1_565 S
Mn775 O780 2.121 1_545 S
Mn775 N782 2.257 1_545 S
Mn775 N791 2.282 . S
Mn775 O799 2.215 1_545 S
Mn775 O801 2.117 . S
C776 O798 1.234 1_565 S
C776 O799 1.283 . S
C777 O789 1.281 . S
C777 O790 1.236 . S
C778 O800 1.240 . S
C778 O801 1.264 . S
O779 Mn774 2.095 . S
O779 C788 1.250 . S
O780 Mn775 2.121 1_565 S
O780 C788 1.258 . S
C781 N782 1.326 . S
C781 C785 1.460 . S
C781 H787 0.929 . S
N782 Mn775 2.257 1_565 S
N782 C781 1.326 . S
N782 C786 1.362 . S
C783 C784 1.258 . S
C783 C786 1.431 . S
C783 C803 1.449 . S
C784 C783 1.258 . S
C784 C785 1.477 . S
C784 H804 0.931 . S
C785 C781 1.460 . S
C785 C784 1.477 . S
C785 H805 0.930 . S
C786 N782 1.362 . S
C786 C783 1.431 . S
C786 C796 1.476 1_565 S
H787 C781 0.929 . S
C788 O779 1.250 . S
C788 O780 1.258 . S
O789 Mn774 2.162 . S
O789 C777 1.281 . S
O790 Mn774 2.297 . S
O790 C777 1.236 . S
N791 Mn775 2.282 . S
N791 C792 1.328 . S
N791 C796 1.318 . S
C792 N791 1.328 . S
C792 C793 1.457 . S
C792 H797 0.929 . S
C793 C792 1.457 . S
C793 C794 1.291 . S
C793 H806 0.931 . S
C794 C793 1.291 . S
C794 C795 1.373 . S
C794 H807 0.929 . S
C795 C794 1.373 . S
C795 C796 1.396 . S
C795 C802 1.403 . S
C796 C786 1.476 1_545 S
C796 N791 1.318 . S
C796 C795 1.396 . S
H797 C792 0.929 . S
O798 Mn774 2.385 1_545 S
O798 C776 1.234 1_545 S
O799 Mn774 2.209 . S
O799 Mn775 2.215 1_565 S
O799 C776 1.283 . S
O800 Mn774 2.094 1_545 S
O800 C778 1.240 . S
O801 Mn775 2.117 . S
O801 C778 1.264 . S
C802 C795 1.403 . S
C802 C803 1.399 1_545 S
C802 H808 0.929 . S
C803 C783 1.449 . S
C803 C802 1.399 1_565 S
C803 H809 0.930 . S
H804 C784 0.931 . S
H805 C785 0.930 . S
H806 C793 0.931 . S
H807 C794 0.929 . S
H808 C802 0.929 . S
H809 C803 0.930 . S
Mn810 O815 2.095 . S
Mn810 O825 2.162 . S
Mn810 O826 2.297 . S
Mn810 O834 2.385 . S
Mn810 O835 2.209 . S
Mn810 O836 2.094 . S
Mn811 O816 2.121 . S
Mn811 N818 2.257 1_455 S
Mn811 N827 2.282 1_455 S
Mn811 O835 2.215 . S
Mn811 O837 2.117 . S
C812 O834 1.234 1_655 S
C812 O835 1.283 1_655 S
C813 O825 1.281 . S
C813 O826 1.236 . S
C814 O836 1.240 . S
C814 O837 1.264 . S
O815 Mn810 2.095 . S
O815 C824 1.250 . S
O816 Mn811 2.121 . S
O816 C824 1.258 . S
C817 N818 1.326 . S
C817 C821 1.460 1_554 S
C817 H823 0.947 . S
N818 Mn811 2.257 1_655 S
N818 C817 1.326 . S
N818 C822 1.362 . S
C819 C820 1.247 1_554 S
C819 C822 1.431 . S
C819 C839 1.449 . S
C820 C819 1.247 1_556 S
C820 C821 1.479 . S
C820 H840 0.939 . S
C821 C817 1.460 1_556 S
C821 C820 1.479 . S
C821 H841 0.930 . S
C822 N818 1.362 . S
C822 C819 1.431 . S
C822 C832 1.476 . S
H823 C817 0.947 . S
C824 O815 1.250 . S
C824 O816 1.258 . S
O825 Mn810 2.162 . S
O825 C813 1.281 . S
O826 Mn810 2.297 . S
O826 C813 1.236 . S
N827 Mn811 2.282 1_655 S
N827 C828 1.328 . S
N827 C832 1.318 . S
C828 N827 1.328 . S
C828 C829 1.457 . S
C828 H833 0.929 . S
C829 C828 1.457 . S
C829 C830 1.291 . S
C829 H842 0.931 . S
C830 C829 1.291 . S
C830 C831 1.373 . S
C830 H843 0.929 . S
C831 C830 1.373 . S
C831 C832 1.396 . S
C831 C838 1.403 . S
C832 C822 1.476 . S
C832 N827 1.318 . S
C832 C831 1.396 . S
H833 C828 0.929 . S
O834 Mn810 2.385 . S
O834 C812 1.234 1_455 S
O835 Mn810 2.209 . S
O835 Mn811 2.215 . S
O835 C812 1.283 1_455 S
O836 Mn810 2.094 . S
O836 C814 1.240 . S
O837 Mn811 2.117 . S
O837 C814 1.264 . S
C838 C831 1.403 . S
C838 C839 1.399 . S
C838 H844 0.929 . S
C839 C819 1.449 . S
C839 C838 1.399 . S
C839 H845 0.930 . S
H840 C820 0.939 . S
H841 C821 0.930 . S
H842 C829 0.931 . S
H843 C830 0.929 . S
H844 C838 0.929 . S
H845 C839 0.930 . S
Mn846 O851 2.095 . S
Mn846 O861 2.162 . S
Mn846 O862 2.297 . S
Mn846 O870 2.385 . S
Mn846 O871 2.209 . S
Mn846 O872 2.094 . S
Mn847 O852 2.121 . S
Mn847 N854 2.257 . S
Mn847 N863 2.282 . S
Mn847 O871 2.215 . S
Mn847 O873 2.117 . S
C848 O870 1.234 . S
C848 O871 1.283 . S
C849 O861 1.281 . S
C849 O862 1.236 . S
C850 O872 1.240 . S
C850 O873 1.264 . S
O851 Mn846 2.095 . S
O851 C860 1.250 . S
O852 Mn847 2.121 . S
O852 C860 1.258 . S
C853 N854 1.326 1_554 S
C853 C857 1.460 . S
C853 H859 0.929 . S
N854 Mn847 2.257 . S
N854 C853 1.326 1_556 S
N854 C858 1.362 . S
C855 C856 1.258 . S
C855 C858 1.431 . S
C855 C875 1.449 . S
C856 C855 1.258 . S
C856 C857 1.477 1_556 S
C856 H876 0.931 1_556 S
C857 C853 1.460 . S
C857 C856 1.477 1_554 S
C857 H877 0.930 . S
C858 N854 1.362 . S
C858 C855 1.431 . S
C858 C868 1.476 . S
H859 C853 0.929 . S
C860 O851 1.250 . S
C860 O852 1.258 . S
O861 Mn846 2.162 . S
O861 C849 1.281 . S
O862 Mn846 2.297 . S
O862 C849 1.236 . S
N863 Mn847 2.282 . S
N863 C864 1.328 . S
N863 C868 1.318 . S
C864 N863 1.328 . S
C864 C865 1.457 . S
C864 H869 0.929 . S
C865 C864 1.457 . S
C865 C866 1.291 . S
C865 H878 0.931 . S
C866 C865 1.291 . S
C866 C867 1.373 . S
C866 H879 0.929 . S
C867 C866 1.373 . S
C867 C868 1.396 . S
C867 C874 1.403 . S
C868 C858 1.476 . S
C868 N863 1.318 . S
C868 C867 1.396 . S
H869 C864 0.929 . S
O870 Mn846 2.385 . S
O870 C848 1.234 . S
O871 Mn846 2.209 . S
O871 Mn847 2.215 . S
O871 C848 1.283 . S
O872 Mn846 2.094 . S
O872 C850 1.240 . S
O873 Mn847 2.117 . S
O873 C850 1.264 . S
C874 C867 1.403 . S
C874 C875 1.399 . S
C874 H880 0.929 . S
C875 C855 1.449 . S
C875 C874 1.399 . S
C875 H881 0.930 . S
H876 C856 0.931 1_554 S
H877 C857 0.930 . S
H878 C865 0.931 . S
H879 C866 0.929 . S
H880 C874 0.929 . S
H881 C875 0.930 . S
Mn882 O887 2.095 . S
Mn882 O897 2.162 . S
Mn882 O898 2.297 . S
Mn882 O906 2.385 . S
Mn882 O907 2.209 . S
Mn882 O908 2.094 . S
Mn883 O888 2.121 . S
Mn883 N890 2.257 . S
Mn883 N899 2.282 . S
Mn883 O907 2.215 . S
Mn883 O909 2.117 . S
C884 O906 1.234 . S
C884 O907 1.283 . S
C885 O897 1.281 . S
C885 O898 1.236 . S
C886 O908 1.240 . S
C886 O909 1.264 . S
O887 Mn882 2.095 . S
O887 C896 1.250 . S
O888 Mn883 2.121 . S
O888 C896 1.258 . S
C889 N890 1.326 . S
C889 C893 1.460 . S
C889 H895 0.929 . S
N890 Mn883 2.257 . S
N890 C889 1.326 . S
N890 C894 1.362 . S
C891 C892 1.258 . S
C891 C894 1.431 . S
C891 C911 1.449 . S
C892 C891 1.258 . S
C892 C893 1.477 . S
C892 H912 0.931 . S
C893 C889 1.460 . S
C893 C892 1.477 . S
C893 H913 0.930 . S
C894 N890 1.362 . S
C894 C891 1.431 . S
C894 C904 1.476 . S
H895 C889 0.929 . S
C896 O887 1.250 . S
C896 O888 1.258 . S
O897 Mn882 2.162 . S
O897 C885 1.281 . S
O898 Mn882 2.297 . S
O898 C885 1.236 . S
N899 Mn883 2.282 . S
N899 C900 1.328 1_556 S
N899 C904 1.318 . S
C900 N899 1.328 1_554 S
C900 C901 1.457 . S
C900 H905 0.929 . S
C901 C900 1.457 . S
C901 C902 1.291 . S
C901 H914 0.931 . S
C902 C901 1.291 . S
C902 C903 1.373 1_554 S
C902 H915 0.929 . S
C903 C902 1.373 1_556 S
C903 C904 1.396 . S
C903 C910 1.403 . S
C904 C894 1.476 . S
C904 N899 1.318 . S
C904 C903 1.396 . S
H905 C900 0.929 . S
O906 Mn882 2.385 . S
O906 C884 1.234 . S
O907 Mn882 2.209 . S
O907 Mn883 2.215 . S
O907 C884 1.283 . S
O908 Mn882 2.094 . S
O908 C886 1.240 . S
O909 Mn883 2.117 . S
O909 C886 1.264 . S
C910 C903 1.403 . S
C910 C911 1.399 . S
C910 H916 0.929 . S
C911 C891 1.449 . S
C911 C910 1.399 . S
C911 H917 0.930 . S
H912 C892 0.931 . S
H913 C893 0.930 . S
H914 C901 0.931 . S
H915 C902 0.929 . S
H916 C910 0.929 . S
H917 C911 0.930 . S
Mn918 O923 2.095 . S
Mn918 O933 2.162 . S
Mn918 O934 2.297 1_655 S
Mn918 O942 2.385 1_655 S
Mn918 O943 2.209 1_655 S
Mn918 O944 2.094 . S
Mn919 O924 2.121 . S
Mn919 N926 2.257 . S
Mn919 N935 2.282 . S
Mn919 O943 2.215 1_655 S
Mn919 O945 2.117 . S
C920 O942 1.234 . S
C920 O943 1.283 . S
C921 O933 1.300 . S
C921 O934 1.245 1_655 S
C922 O944 1.240 . S
C922 O945 1.264 . S
O923 Mn918 2.095 . S
O923 C932 1.250 . S
O924 Mn919 2.121 . S
O924 C932 1.258 . S
C925 N926 1.326 . S
C925 C929 1.460 1_655 S
C925 H931 0.929 . S
N926 Mn919 2.257 . S
N926 C925 1.326 . S
N926 C930 1.362 1_655 S
C927 C928 1.258 . S
C927 C930 1.431 . S
C927 C947 1.449 . S
C928 C927 1.258 . S
C928 C929 1.477 . S
C928 H948 0.931 . S
C929 C925 1.460 1_455 S
C929 C928 1.477 . S
C929 H949 0.930 1_556 S
C930 N926 1.362 1_455 S
C930 C927 1.431 . S
C930 C940 1.476 . S
H931 C925 0.929 . S
C932 O923 1.250 . S
C932 O924 1.258 . S
O933 Mn918 2.162 . S
O933 C921 1.300 . S
O934 Mn918 2.297 1_455 S
O934 C921 1.245 1_455 S
N935 Mn919 2.282 . S
N935 C936 1.329 1_655 S
N935 C940 1.318 1_655 S
C936 N935 1.329 1_455 S
C936 C937 1.455 . S
C936 H941 0.930 1_455 S
C937 C936 1.455 . S
C937 C938 1.291 . S
C937 H950 0.931 . S
C938 C937 1.291 . S
C938 C939 1.373 . S
C938 H951 0.929 . S
C939 C938 1.373 . S
C939 C940 1.396 . S
C939 C946 1.403 . S
C940 C930 1.476 . S
C940 N935 1.318 1_455 S
C940 C939 1.396 . S
H941 C936 0.930 1_655 S
O942 Mn918 2.385 1_455 S
O942 C920 1.234 . S
O943 Mn918 2.209 1_455 S
O943 Mn919 2.215 1_455 S
O943 C920 1.283 . S
O944 Mn918 2.094 . S
O944 C922 1.240 . S
O945 Mn919 2.117 . S
O945 C922 1.264 . S
C946 C939 1.403 . S
C946 C947 1.399 . S
C946 H952 0.929 . S
C947 C927 1.449 . S
C947 C946 1.399 . S
C947 H953 0.930 . S
H948 C928 0.931 . S
H949 C929 0.930 1_554 S
H950 C937 0.931 . S
H951 C938 0.929 . S
H952 C946 0.929 . S
H953 C947 0.930 . S
Mn954 O959 2.095 . S
Mn954 O969 2.162 . S
Mn954 O970 2.297 . S
Mn954 O978 2.385 . S
Mn954 O979 2.209 . S
Mn954 O980 2.094 . S
Mn955 O960 2.121 . S
Mn955 N962 2.257 . S
Mn955 N971 2.282 . S
Mn955 O979 2.215 . S
Mn955 O981 2.117 . S
C956 O978 1.234 . S
C956 O979 1.283 . S
C957 O969 1.281 . S
C957 O970 1.236 . S
C958 O980 1.240 . S
C958 O981 1.264 . S
O959 Mn954 2.095 . S
O959 C968 1.250 . S
O960 Mn955 2.121 . S
O960 C968 1.258 . S
C961 N962 1.326 . S
C961 C965 1.460 . S
C961 H967 0.929 . S
N962 Mn955 2.257 . S
N962 C961 1.326 . S
N962 C966 1.362 . S
C963 C964 1.258 . S
C963 C966 1.431 . S
C963 C983 1.449 . S
C964 C963 1.258 . S
C964 C965 1.477 . S
C964 H984 0.931 . S
C965 C961 1.460 . S
C965 C964 1.477 . S
C965 H985 0.930 . S
C966 N962 1.362 . S
C966 C963 1.431 . S
C966 C976 1.476 . S
H967 C961 0.929 . S
C968 O959 1.250 . S
C968 O960 1.258 . S
O969 Mn954 2.162 . S
O969 C957 1.281 . S
O970 Mn954 2.297 . S
O970 C957 1.236 . S
N971 Mn955 2.282 . S
N971 C972 1.328 . S
N971 C976 1.318 . S
C972 N971 1.328 . S
C972 C973 1.457 . S
C972 H977 0.929 . S
C973 C972 1.457 . S
C973 C974 1.291 . S
C973 H986 0.931 . S
C974 C973 1.291 . S
C974 C975 1.373 . S
C974 H987 0.929 . S
C975 C974 1.373 . S
C975 C976 1.396 . S
C975 C982 1.403 . S
C976 C966 1.476 . S
C976 N971 1.318 . S
C976 C975 1.396 . S
H977 C972 0.929 . S
O978 Mn954 2.385 . S
O978 C956 1.234 . S
O979 Mn954 2.209 . S
O979 Mn955 2.215 . S
O979 C956 1.283 . S
O980 Mn954 2.094 . S
O980 C958 1.240 . S
O981 Mn955 2.117 . S
O981 C958 1.264 . S
C982 C975 1.403 . S
C982 C983 1.399 . S
C982 H988 0.929 . S
C983 C963 1.449 . S
C983 C982 1.399 . S
C983 H989 0.930 . S
H984 C964 0.931 . S
H985 C965 0.930 . S
H986 C973 0.931 . S
H987 C974 0.929 . S
H988 C982 0.929 . S
H989 C983 0.930 . S
Mn990 O995 2.095 . S
Mn990 O1005 2.162 . S
Mn990 O1006 2.297 . S
Mn990 O1014 2.385 1_655 S
Mn990 O1015 2.248 . S
Mn990 O1016 2.094 . S
Mn991 O996 2.121 1_455 S
Mn991 N998 2.257 . S
Mn991 N1007 2.282 . S
Mn991 O1015 2.215 1_455 S
Mn991 O1017 2.117 . S
C992 O1014 1.234 . S
C992 O1015 1.266 1_455 S
C993 O1005 1.281 . S
C993 O1006 1.236 . S
C994 O1016 1.240 . S
C994 O1017 1.264 1_655 S
O995 Mn990 2.095 . S
O995 C1004 1.250 . S
O996 Mn991 2.121 1_655 S
O996 C1004 1.258 . S
C997 N998 1.326 . S
C997 C1001 1.460 . S
C997 H1003 0.929 1_455 S
N998 Mn991 2.257 . S
N998 C997 1.326 . S
N998 C1002 1.362 . S
C999 C1000 1.258 . S
C999 C1002 1.431 . S
C999 C1019 1.449 . S
C1000 C999 1.258 . S
C1000 C1001 1.477 . S
C1000 H1020 0.931 . S
C1001 C997 1.460 . S
C1001 C1000 1.477 . S
C1001 H1021 0.930 . S
C1002 N998 1.362 . S
C1002 C999 1.431 . S
C1002 C1012 1.476 . S
H1003 C997 0.929 1_655 S
C1004 O995 1.250 . S
C1004 O996 1.258 . S
O1005 Mn990 2.162 . S
O1005 C993 1.281 . S
O1006 Mn990 2.297 . S
O1006 C993 1.236 . S
N1007 Mn991 2.282 . S
N1007 C1008 1.328 . S
N1007 C1012 1.318 . S
C1008 N1007 1.328 . S
C1008 C1009 1.457 . S
C1008 H1013 0.929 . S
C1009 C1008 1.457 . S
C1009 C1010 1.291 . S
C1009 H1022 0.931 . S
C1010 C1009 1.291 . S
C1010 C1011 1.373 . S
C1010 H1023 0.929 . S
C1011 C1010 1.373 . S
C1011 C1012 1.396 . S
C1011 C1018 1.403 . S
C1012 C1002 1.476 . S
C1012 N1007 1.318 . S
C1012 C1011 1.396 . S
H1013 C1008 0.929 . S
O1014 Mn990 2.385 1_455 S
O1014 C992 1.234 . S
O1015 Mn990 2.248 . S
O1015 Mn991 2.215 1_655 S
O1015 C992 1.266 1_655 S
O1016 Mn990 2.094 . S
O1016 C994 1.240 . S
O1017 Mn991 2.117 . S
O1017 C994 1.264 1_455 S
C1018 C1011 1.403 . S
C1018 C1019 1.399 . S
C1018 H1024 0.929 . S
C1019 C999 1.449 . S
C1019 C1018 1.399 . S
C1019 H1025 0.930 . S
H1020 C1000 0.931 . S
H1021 C1001 0.930 . S
H1022 C1009 0.931 . S
H1023 C1010 0.929 . S
H1024 C1018 0.929 . S
H1025 C1019 0.930 . S
Mn1026 O1031 2.095 . S
Mn1026 O1041 2.162 . S
Mn1026 O1042 2.297 . S
Mn1026 O1050 2.385 . S
Mn1026 O1051 2.209 . S
Mn1026 O1052 2.094 . S
Mn1027 O1032 2.121 . S
Mn1027 N1034 2.257 . S
Mn1027 N1043 2.282 . S
Mn1027 O1051 2.215 . S
Mn1027 O1053 2.117 . S
C1028 O1050 1.234 . S
C1028 O1051 1.283 . S
C1029 O1041 1.281 . S
C1029 O1042 1.236 . S
C1030 O1052 1.240 . S
C1030 O1053 1.264 . S
O1031 Mn1026 2.095 . S
O1031 C1040 1.250 . S
O1032 Mn1027 2.121 . S
O1032 C1040 1.258 . S
C1033 N1034 1.326 . S
C1033 C1037 1.460 . S
C1033 H1039 0.929 . S
N1034 Mn1027 2.257 . S
N1034 C1033 1.326 . S
N1034 C1038 1.362 . S
C1035 C1036 1.258 . S
C1035 C1038 1.431 . S
C1035 C1055 1.449 . S
C1036 C1035 1.258 . S
C1036 C1037 1.477 . S
C1036 H1056 0.931 . S
C1037 C1033 1.460 . S
C1037 C1036 1.477 . S
C1037 H1057 0.930 . S
C1038 N1034 1.362 . S
C1038 C1035 1.431 . S
C1038 C1048 1.476 . S
H1039 C1033 0.929 . S
C1040 O1031 1.250 . S
C1040 O1032 1.258 . S
O1041 Mn1026 2.162 . S
O1041 C1029 1.281 . S
O1042 Mn1026 2.297 . S
O1042 C1029 1.236 . S
N1043 Mn1027 2.282 . S
N1043 C1044 1.328 . S
N1043 C1048 1.318 . S
C1044 N1043 1.328 . S
C1044 C1045 1.457 . S
C1044 H1049 0.929 . S
C1045 C1044 1.457 . S
C1045 C1046 1.291 . S
C1045 H1058 0.931 . S
C1046 C1045 1.291 . S
C1046 C1047 1.373 . S
C1046 H1059 0.929 . S
C1047 C1046 1.373 . S
C1047 C1048 1.396 . S
C1047 C1054 1.403 . S
C1048 C1038 1.476 . S
C1048 N1043 1.318 . S
C1048 C1047 1.396 . S
H1049 C1044 0.929 . S
O1050 Mn1026 2.385 . S
O1050 C1028 1.234 . S
O1051 Mn1026 2.209 . S
O1051 Mn1027 2.215 . S
O1051 C1028 1.283 . S
O1052 Mn1026 2.094 . S
O1052 C1030 1.240 . S
O1053 Mn1027 2.117 . S
O1053 C1030 1.264 . S
C1054 C1047 1.403 . S
C1054 C1055 1.399 . S
C1054 H1060 0.929 . S
C1055 C1035 1.449 . S
C1055 C1054 1.399 . S
C1055 H1061 0.930 . S
H1056 C1036 0.931 . S
H1057 C1037 0.930 . S
H1058 C1045 0.931 . S
H1059 C1046 0.929 . S
H1060 C1054 0.929 . S
H1061 C1055 0.930 . S
C1062 C1063 1.387 . S
C1062 H1066 0.950 . S
C1062 C1071 1.390 . S
C1063 C1062 1.387 . S
C1063 C1065 1.387 . S
H1064 C1071 0.950 . S
C1065 C1063 1.387 . S
C1065 C1067 1.390 . S
C1065 H1069 0.950 1_554 S
H1066 C1062 0.950 . S
C1067 C1065 1.390 . S
C1067 C1068 1.387 . S
C1067 H1070 0.950 . S
C1068 C1067 1.387 . S
C1068 C1071 1.387 . S
H1069 C1065 0.950 1_556 S
H1070 C1067 0.950 . S
C1071 C1062 1.390 . S
C1071 H1064 0.950 . S
C1071 C1068 1.387 . S
C1072 C1073 1.387 . S
C1072 H1076 0.950 . S
C1072 C1081 1.390 . S
C1073 C1072 1.387 . S
C1073 C1075 1.387 . S
H1074 C1081 0.950 . S
C1075 C1073 1.387 . S
C1075 C1077 1.390 . S
C1075 H1079 0.950 1_554 S
H1076 C1072 0.950 . S
C1077 C1075 1.390 . S
C1077 C1078 1.387 . S
C1077 H1080 0.950 . S
C1078 C1077 1.387 . S
C1078 C1081 1.387 . S
H1079 C1075 0.950 1_556 S
H1080 C1077 0.950 . S
C1081 C1072 1.390 . S
C1081 H1074 0.950 . S
C1081 C1078 1.387 . S
C1082 C1083 1.387 . S
C1082 H1086 0.950 . S
C1082 C1091 1.390 . S
C1083 C1082 1.387 . S
C1083 C1085 1.387 1_565 S
H1084 C1091 0.950 . S
C1085 C1083 1.387 1_545 S
C1085 C1087 1.390 . S
C1085 H1089 0.950 . S
H1086 C1082 0.950 . S
C1087 C1085 1.390 . S
C1087 C1088 1.387 1_545 S
C1087 H1090 0.950 . S
C1088 C1087 1.387 1_565 S
C1088 C1091 1.387 . S
H1089 C1085 0.950 . S
H1090 C1087 0.950 . S
C1091 C1082 1.390 . S
C1091 H1084 0.950 . S
C1091 C1088 1.387 . S
C1092 C1093 1.387 . S
C1092 H1096 0.950 . S
C1092 C1101 1.390 . S
C1093 C1092 1.387 . S
C1093 C1095 1.387 . S
H1094 C1101 0.950 . S
C1095 C1093 1.387 . S
C1095 C1097 1.390 . S
C1095 H1099 0.950 . S
H1096 C1092 0.950 . S
C1097 C1095 1.390 . S
C1097 C1098 1.387 . S
C1097 H1100 0.950 . S
C1098 C1097 1.387 . S
C1098 C1101 1.387 . S
H1099 C1095 0.950 . S
H1100 C1097 0.950 . S
C1101 C1092 1.390 . S
C1101 H1094 0.950 . S
C1101 C1098 1.387 . S
C1102 C1103 1.387 . S
C1102 H1106 0.950 1_455 S
C1102 C1111 1.390 1_455 S
C1103 C1102 1.387 . S
C1103 C1105 1.387 . S
H1104 C1111 0.950 . S
C1105 C1103 1.387 . S
C1105 C1107 1.390 . S
C1105 H1109 0.950 . S
H1106 C1102 0.950 1_655 S
C1107 C1105 1.390 . S
C1107 C1108 1.387 . S
C1107 H1110 0.950 . S
C1108 C1107 1.387 . S
C1108 C1111 1.387 1_455 S
H1109 C1105 0.950 . S
H1110 C1107 0.950 . S
C1111 C1102 1.390 1_655 S
C1111 H1104 0.950 . S
C1111 C1108 1.387 1_655 S
C1112 C1113 1.387 . S
C1112 H1116 0.950 . S
C1112 C1121 1.390 . S
C1113 C1112 1.387 . S
C1113 C1115 1.387 . S
H1114 C1121 0.950 . S
C1115 C1113 1.387 . S
C1115 C1117 1.390 . S
C1115 H1119 0.950 . S
H1116 C1112 0.950 . S
C1117 C1115 1.390 . S
C1117 C1118 1.387 . S
C1117 H1120 0.950 . S
C1118 C1117 1.387 . S
C1118 C1121 1.387 . S
H1119 C1115 0.950 . S
H1120 C1117 0.950 . S
C1121 C1112 1.390 . S
C1121 H1114 0.950 . S
C1121 C1118 1.387 . S
C1122 C1123 1.387 . S
C1122 H1126 0.950 . S
C1122 C1131 1.390 . S
C1123 C1122 1.387 . S
C1123 C1125 1.387 . S
H1124 C1131 0.950 . S
C1125 C1123 1.387 . S
C1125 C1127 1.390 . S
C1125 H1129 0.950 1_556 S
H1126 C1122 0.950 . S
C1127 C1125 1.390 . S
C1127 C1128 1.387 . S
C1127 H1130 0.950 1_556 S
C1128 C1127 1.387 . S
C1128 C1131 1.387 . S
H1129 C1125 0.950 1_554 S
H1130 C1127 0.950 1_554 S
C1131 C1122 1.390 . S
C1131 H1124 0.950 . S
C1131 C1128 1.387 . S
C1132 C1133 1.387 . S
C1132 H1136 0.950 . S
C1132 C1141 1.390 . S
C1133 C1132 1.387 . S
C1133 C1135 1.387 1_556 S
H1134 C1141 0.950 . S
C1135 C1133 1.387 1_554 S
C1135 C1137 1.390 . S
C1135 H1139 0.950 . S
H1136 C1132 0.950 . S
C1137 C1135 1.390 . S
C1137 C1138 1.387 1_554 S
C1137 H1140 0.950 . S
C1138 C1137 1.387 1_556 S
C1138 C1141 1.387 . S
H1139 C1135 0.950 . S
H1140 C1137 0.950 . S
C1141 C1132 1.390 . S
C1141 H1134 0.950 . S
C1141 C1138 1.387 . S
C1142 C1143 1.387 1_554 S
C1142 H1146 0.950 . S
C1142 C1151 1.390 1_554 S
C1143 C1142 1.387 1_556 S
C1143 C1145 1.387 . S
H1144 C1151 0.950 1_554 S
C1145 C1143 1.387 . S
C1145 C1147 1.390 . S
C1145 H1149 0.950 . S
H1146 C1142 0.950 . S
C1147 C1145 1.390 . S
C1147 C1148 1.387 . S
C1147 H1150 0.950 . S
C1148 C1147 1.387 . S
C1148 C1151 1.387 . S
H1149 C1145 0.950 . S
H1150 C1147 0.950 . S
C1151 C1142 1.390 1_556 S
C1151 H1144 0.950 1_556 S
C1151 C1148 1.387 . S
C1152 C1153 1.387 1_565 S
C1152 H1156 0.950 . S
C1152 C1161 1.390 . S
C1153 C1152 1.387 1_545 S
C1153 C1155 1.387 . S
H1154 C1161 0.950 . S
C1155 C1153 1.387 . S
C1155 C1157 1.390 . S
C1155 H1159 0.950 . S
H1156 C1152 0.950 . S
C1157 C1155 1.390 . S
C1157 C1158 1.410 . S
C1157 H1160 0.950 . S
C1158 C1157 1.410 . S
C1158 C1161 1.376 1_545 S
H1159 C1155 0.950 . S
H1160 C1157 0.950 . S
C1161 C1152 1.390 . S
C1161 H1154 0.950 . S
C1161 C1158 1.376 1_565 S
C1162 C1163 1.387 . S
C1162 H1166 0.950 . S
C1162 C1171 1.390 . S
C1163 C1162 1.387 . S
C1163 C1165 1.387 . S
H1164 C1171 0.950 . S
C1165 C1163 1.387 . S
C1165 C1167 1.390 . S
C1165 H1169 0.950 . S
H1166 C1162 0.950 . S
C1167 C1165 1.390 . S
C1167 C1168 1.387 . S
C1167 H1170 0.950 . S
C1168 C1167 1.387 . S
C1168 C1171 1.387 . S
H1169 C1165 0.950 . S
H1170 C1167 0.950 . S
C1171 C1162 1.390 . S
C1171 H1164 0.950 . S
C1171 C1168 1.387 . S
C1172 C1173 1.387 . S
C1172 H1176 0.950 . S
C1172 C1181 1.390 . S
C1173 C1172 1.387 . S
C1173 C1175 1.387 . S
H1174 C1181 0.950 . S
C1175 C1173 1.387 . S
C1175 C1177 1.390 . S
C1175 H1179 0.950 . S
H1176 C1172 0.950 . S
C1177 C1175 1.390 . S
C1177 C1178 1.387 . S
C1177 H1180 0.950 . S
C1178 C1177 1.387 . S
C1178 C1181 1.387 . S
H1179 C1175 0.950 . S
H1180 C1177 0.950 . S
C1181 C1172 1.390 . S
C1181 H1174 0.950 . S
C1181 C1178 1.387 . S
C1182 C1183 1.387 . S
C1182 H1186 0.950 . S
C1182 C1191 1.390 . S
C1183 C1182 1.387 . S
C1183 C1185 1.387 . S
H1184 C1191 0.950 . S
C1185 C1183 1.387 . S
C1185 C1187 1.390 . S
C1185 H1189 0.950 . S
H1186 C1182 0.950 . S
C1187 C1185 1.390 . S
C1187 C1188 1.387 . S
C1187 H1190 0.950 . S
C1188 C1187 1.387 . S
C1188 C1191 1.387 . S
H1189 C1185 0.950 . S
H1190 C1187 0.950 . S
C1191 C1182 1.390 . S
C1191 H1184 0.950 . S
C1191 C1188 1.387 . S
C1192 C1193 1.387 1_545 S
C1192 H1196 0.956 . S
C1192 C1201 1.390 . S
C1193 C1192 1.387 1_565 S
C1193 C1195 1.387 . S
H1194 C1201 0.950 . S
C1195 C1193 1.387 . S
C1195 C1197 1.390 1_565 S
C1195 H1199 0.950 . S
H1196 C1192 0.956 . S
C1197 C1195 1.390 1_545 S
C1197 C1198 1.387 . S
C1197 H1200 0.950 . S
C1198 C1197 1.387 . S
C1198 C1201 1.387 . S
H1199 C1195 0.950 . S
H1200 C1197 0.950 . S
C1201 C1192 1.390 . S
C1201 H1194 0.950 . S
C1201 C1198 1.387 . S
C1202 C1203 1.387 . S
C1202 H1206 0.950 . S
C1202 C1211 1.390 . S
C1203 C1202 1.387 . S
C1203 C1205 1.387 . S
H1204 C1211 0.950 . S
C1205 C1203 1.387 . S
C1205 C1207 1.390 . S
C1205 H1209 0.950 . S
H1206 C1202 0.950 . S
C1207 C1205 1.390 . S
C1207 C1208 1.387 . S
C1207 H1210 0.950 . S
C1208 C1207 1.387 . S
C1208 C1211 1.387 . S
H1209 C1205 0.950 . S
H1210 C1207 0.950 . S
C1211 C1202 1.390 . S
C1211 H1204 0.950 . S
C1211 C1208 1.387 . S
C1212 C1213 1.387 . S
C1212 H1216 0.950 . S
C1212 C1221 1.390 . S
C1213 C1212 1.387 . S
C1213 C1215 1.387 . S
H1214 C1221 0.950 . S
C1215 C1213 1.387 . S
C1215 C1217 1.390 . S
C1215 H1219 0.950 . S
H1216 C1212 0.950 . S
C1217 C1215 1.390 . S
C1217 C1218 1.387 . S
C1217 H1220 0.950 . S
C1218 C1217 1.387 . S
C1218 C1221 1.387 . S
H1219 C1215 0.950 . S
H1220 C1217 0.950 . S
C1221 C1212 1.390 . S
C1221 H1214 0.950 . S
C1221 C1218 1.387 . S
C1222 C1223 1.387 . S
C1222 H1226 0.950 . S
C1222 C1231 1.390 . S
C1223 C1222 1.387 . S
C1223 C1225 1.387 . S
H1224 C1231 0.950 . S
C1225 C1223 1.387 . S
C1225 C1227 1.390 . S
C1225 H1229 0.950 . S
H1226 C1222 0.950 . S
C1227 C1225 1.390 . S
C1227 C1228 1.387 . S
C1227 H1230 0.950 . S
C1228 C1227 1.387 . S
C1228 C1231 1.387 . S
H1229 C1225 0.950 . S
H1230 C1227 0.950 . S
C1231 C1222 1.390 . S
C1231 H1224 0.950 . S
C1231 C1228 1.387 . S
C1232 C1233 1.387 . S
C1232 H1236 0.950 . S
C1232 C1241 1.390 . S
C1233 C1232 1.387 . S
C1233 C1235 1.387 . S
H1234 C1241 0.950 . S
C1235 C1233 1.387 . S
C1235 C1237 1.390 . S
C1235 H1239 0.950 . S
H1236 C1232 0.950 . S
C1237 C1235 1.390 . S
C1237 C1238 1.387 . S
C1237 H1240 0.950 . S
C1238 C1237 1.387 . S
C1238 C1241 1.387 . S
H1239 C1235 0.950 . S
H1240 C1237 0.950 . S
C1241 C1232 1.390 . S
C1241 H1234 0.950 . S
C1241 C1238 1.387 . S
C1242 C1243 1.387 . S
C1242 H1246 0.950 . S
C1242 C1251 1.390 1_565 S
C1243 C1242 1.387 . S
C1243 C1245 1.387 . S
H1244 C1251 0.950 . S
C1245 C1243 1.387 . S
C1245 C1247 1.390 1_565 S
C1245 H1249 0.950 . S
H1246 C1242 0.950 . S
C1247 C1245 1.390 1_545 S
C1247 C1248 1.387 . S
C1247 H1250 0.950 . S
C1248 C1247 1.387 . S
C1248 C1251 1.387 . S
H1249 C1245 0.950 . S
H1250 C1247 0.950 . S
C1251 C1242 1.390 1_545 S
C1251 H1244 0.950 . S
C1251 C1248 1.387 . S
C1252 C1253 1.387 . S
C1252 H1256 0.950 . S
C1252 C1261 1.390 . S
C1253 C1252 1.387 . S
C1253 C1255 1.387 . S
H1254 C1261 0.950 . S
C1255 C1253 1.387 . S
C1255 C1257 1.390 . S
C1255 H1259 0.950 . S
H1256 C1252 0.950 . S
C1257 C1255 1.390 . S
C1257 C1258 1.387 . S
C1257 H1260 0.950 . S
C1258 C1257 1.387 . S
C1258 C1261 1.387 . S
H1259 C1255 0.950 . S
H1260 C1257 0.950 . S
C1261 C1252 1.390 . S
C1261 H1254 0.950 . S
C1261 C1258 1.387 . S
C1262 C1263 1.387 . S
C1262 H1266 0.950 . S
C1262 C1271 1.390 . S
C1263 C1262 1.387 . S
C1263 C1265 1.387 . S
H1264 C1271 0.950 . S
C1265 C1263 1.387 . S
C1265 C1267 1.390 . S
C1265 H1269 0.950 . S
H1266 C1262 0.950 . S
C1267 C1265 1.390 . S
C1267 C1268 1.387 . S
C1267 H1270 0.950 . S
C1268 C1267 1.387 . S
C1268 C1271 1.387 . S
H1269 C1265 0.950 . S
H1270 C1267 0.950 . S
C1271 C1262 1.390 . S
C1271 H1264 0.950 . S
C1271 C1268 1.387 . S
C1272 C1273 1.387 . S
C1272 H1276 0.950 . S
C1272 C1281 1.390 . S
C1273 C1272 1.387 . S
C1273 C1275 1.387 . S
H1274 C1281 0.950 . S
C1275 C1273 1.387 . S
C1275 C1277 1.390 . S
C1275 H1279 0.950 . S
H1276 C1272 0.950 . S
C1277 C1275 1.390 . S
C1277 C1278 1.387 . S
C1277 H1280 0.950 . S
C1278 C1277 1.387 . S
C1278 C1281 1.387 . S
H1279 C1275 0.950 . S
H1280 C1277 0.950 . S
C1281 C1272 1.390 . S
C1281 H1274 0.950 . S
C1281 C1278 1.387 . S
C1282 C1283 1.387 . S
C1282 H1286 0.950 . S
C1282 C1291 1.390 . S
C1283 C1282 1.387 . S
C1283 C1285 1.387 1_565 S
H1284 C1291 0.950 . S
C1285 C1283 1.387 1_545 S
C1285 C1287 1.390 . S
C1285 H1289 0.950 . S
H1286 C1282 0.950 . S
C1287 C1285 1.390 . S
C1287 C1288 1.387 . S
C1287 H1290 0.950 . S
C1288 C1287 1.387 . S
C1288 C1291 1.387 1_545 S
H1289 C1285 0.950 . S
H1290 C1287 0.950 . S
C1291 C1282 1.390 . S
C1291 H1284 0.950 . S
C1291 C1288 1.387 1_565 S
C1292 C1293 1.387 . S
C1292 H1296 0.950 . S
C1292 C1301 1.390 . S
C1293 C1292 1.387 . S
C1293 C1295 1.387 . S
H1294 C1301 0.950 . S
C1295 C1293 1.387 . S
C1295 C1297 1.390 . S
C1295 H1299 0.950 . S
H1296 C1292 0.950 . S
C1297 C1295 1.390 . S
C1297 C1298 1.387 . S
C1297 H1300 0.950 . S
C1298 C1297 1.387 . S
C1298 C1301 1.387 . S
H1299 C1295 0.950 . S
H1300 C1297 0.950 . S
C1301 C1292 1.390 . S
C1301 H1294 0.950 . S
C1301 C1298 1.387 . S
C1302 C1303 1.387 . S
C1302 H1306 0.950 . S
C1302 C1311 1.390 . S
C1303 C1302 1.387 . S
C1303 C1305 1.387 . S
H1304 C1311 0.950 . S
C1305 C1303 1.387 . S
C1305 C1307 1.390 . S
C1305 H1309 0.950 . S
H1306 C1302 0.950 . S
C1307 C1305 1.390 . S
C1307 C1308 1.387 . S
C1307 H1310 0.950 . S
C1308 C1307 1.387 . S
C1308 C1311 1.387 . S
H1309 C1305 0.950 . S
H1310 C1307 0.950 . S
C1311 C1302 1.390 . S
C1311 H1304 0.950 . S
C1311 C1308 1.387 . S
C1312 C1313 1.387 . S
C1312 H1316 0.950 . S
C1312 C1321 1.390 . S
C1313 C1312 1.387 . S
C1313 C1315 1.387 . S
H1314 C1321 0.950 . S
C1315 C1313 1.387 . S
C1315 C1317 1.390 . S
C1315 H1319 0.950 . S
H1316 C1312 0.950 . S
C1317 C1315 1.390 . S
C1317 C1318 1.387 . S
C1317 H1320 0.950 . S
C1318 C1317 1.387 . S
C1318 C1321 1.387 . S
H1319 C1315 0.950 . S
H1320 C1317 0.950 . S
C1321 C1312 1.390 . S
C1321 H1314 0.950 . S
C1321 C1318 1.387 . S
C1322 C1323 1.387 . S
C1322 H1326 0.950 . S
C1322 C1331 1.390 . S
C1323 C1322 1.387 . S
C1323 C1325 1.387 . S
H1324 C1331 0.950 . S
C1325 C1323 1.387 . S
C1325 C1327 1.390 . S
C1325 H1329 0.950 . S
H1326 C1322 0.950 . S
C1327 C1325 1.390 . S
C1327 C1328 1.387 . S
C1327 H1330 0.950 . S
C1328 C1327 1.387 . S
C1328 C1331 1.387 . S
H1329 C1325 0.950 . S
H1330 C1327 0.950 . S
C1331 C1322 1.390 . S
C1331 H1324 0.950 . S
C1331 C1328 1.387 . S
C1332 C1333 1.387 . S
C1332 H1336 0.950 . S
C1332 C1341 1.390 . S
C1333 C1332 1.387 . S
C1333 C1335 1.387 . S
H1334 C1341 0.950 . S
C1335 C1333 1.387 . S
C1335 C1337 1.390 . S
C1335 H1339 0.950 . S
H1336 C1332 0.950 . S
C1337 C1335 1.390 . S
C1337 C1338 1.387 . S
C1337 H1340 0.950 . S
C1338 C1337 1.387 . S
C1338 C1341 1.387 . S
H1339 C1335 0.950 . S
H1340 C1337 0.950 . S
C1341 C1332 1.390 . S
C1341 H1334 0.950 . S
C1341 C1338 1.387 . S
C1342 C1343 1.387 . S
C1342 H1346 0.950 . S
C1342 C1351 1.390 . S
C1343 C1342 1.387 . S
C1343 C1345 1.387 . S
H1344 C1351 0.950 . S
C1345 C1343 1.387 . S
C1345 C1347 1.390 . S
C1345 H1349 0.950 . S
H1346 C1342 0.950 . S
C1347 C1345 1.390 . S
C1347 C1348 1.387 . S
C1347 H1350 0.950 . S
C1348 C1347 1.387 . S
C1348 C1351 1.387 . S
H1349 C1345 0.950 . S
H1350 C1347 0.950 . S
C1351 C1342 1.390 . S
C1351 H1344 0.950 . S
C1351 C1348 1.387 . S
C1352 C1353 1.387 . S
C1352 H1356 0.950 . S
C1352 C1361 1.390 . S
C1353 C1352 1.387 . S
C1353 C1355 1.387 . S
H1354 C1361 0.950 . S
C1355 C1353 1.387 . S
C1355 C1357 1.390 . S
C1355 H1359 0.950 . S
H1356 C1352 0.950 . S
C1357 C1355 1.390 . S
C1357 C1358 1.387 . S
C1357 H1360 0.950 . S
C1358 C1357 1.387 . S
C1358 C1361 1.387 . S
H1359 C1355 0.950 . S
H1360 C1357 0.950 . S
C1361 C1352 1.390 . S
C1361 H1354 0.950 . S
C1361 C1358 1.387 . S
C1362 C1363 1.387 . S
C1362 H1366 0.950 . S
C1362 C1371 1.390 . S
C1363 C1362 1.387 . S
C1363 C1365 1.387 . S
H1364 C1371 0.950 . S
C1365 C1363 1.387 . S
C1365 C1367 1.390 . S
C1365 H1369 0.950 . S
H1366 C1362 0.950 . S
C1367 C1365 1.390 . S
C1367 C1368 1.387 . S
C1367 H1370 0.950 . S
C1368 C1367 1.387 . S
C1368 C1371 1.387 . S
H1369 C1365 0.950 . S
H1370 C1367 0.950 . S
C1371 C1362 1.390 . S
C1371 H1364 0.950 . S
C1371 C1368 1.387 . S
C1372 C1373 1.387 . S
C1372 H1376 0.950 . S
C1372 C1381 1.390 . S
C1373 C1372 1.387 . S
C1373 C1375 1.387 . S
H1374 C1381 0.950 . S
C1375 C1373 1.387 . S
C1375 C1377 1.390 . S
C1375 H1379 0.950 . S
H1376 C1372 0.950 . S
C1377 C1375 1.390 . S
C1377 C1378 1.387 . S
C1377 H1380 0.950 . S
C1378 C1377 1.387 . S
C1378 C1381 1.387 . S
H1379 C1375 0.950 . S
H1380 C1377 0.950 . S
C1381 C1372 1.390 . S
C1381 H1374 0.950 . S
C1381 C1378 1.387 . S
C1382 C1383 1.387 . S
C1382 H1386 0.950 . S
C1382 C1391 1.390 . S
C1383 C1382 1.387 . S
C1383 C1385 1.387 . S
H1384 C1391 0.950 . S
C1385 C1383 1.387 . S
C1385 C1387 1.390 . S
C1385 H1389 0.950 . S
H1386 C1382 0.950 . S
C1387 C1385 1.390 . S
C1387 C1388 1.387 . S
C1387 H1390 0.950 . S
C1388 C1387 1.387 . S
C1388 C1391 1.387 . S
H1389 C1385 0.950 . S
H1390 C1387 0.950 . S
C1391 C1382 1.390 . S
C1391 H1384 0.950 . S
C1391 C1388 1.387 . S
C1392 C1393 1.387 . S
C1392 H1396 0.950 . S
C1392 C1401 1.390 . S
C1393 C1392 1.387 . S
C1393 C1395 1.387 . S
H1394 C1401 0.950 . S
C1395 C1393 1.387 . S
C1395 C1397 1.390 . S
C1395 H1399 0.950 . S
H1396 C1392 0.950 . S
C1397 C1395 1.390 . S
C1397 C1398 1.387 . S
C1397 H1400 0.950 . S
C1398 C1397 1.387 . S
C1398 C1401 1.387 . S
H1399 C1395 0.950 . S
H1400 C1397 0.950 . S
C1401 C1392 1.390 . S
C1401 H1394 0.950 . S
C1401 C1398 1.387 . S
C1402 C1403 1.387 . S
C1402 H1406 0.950 . S
C1402 C1411 1.390 . S
C1403 C1402 1.387 . S
C1403 C1405 1.387 . S
H1404 C1411 0.950 . S
C1405 C1403 1.387 . S
C1405 C1407 1.390 . S
C1405 H1409 0.950 . S
H1406 C1402 0.950 . S
C1407 C1405 1.390 . S
C1407 C1408 1.387 . S
C1407 H1410 0.950 . S
C1408 C1407 1.387 . S
C1408 C1411 1.387 . S
H1409 C1405 0.950 . S
H1410 C1407 0.950 . S
C1411 C1402 1.390 . S
C1411 H1404 0.950 . S
C1411 C1408 1.387 . S
C1412 C1413 1.387 . S
C1412 H1416 0.950 . S
C1412 C1421 1.390 . S
C1413 C1412 1.387 . S
C1413 C1415 1.387 . S
H1414 C1421 0.950 . S
C1415 C1413 1.387 . S
C1415 C1417 1.390 . S
C1415 H1419 0.950 . S
H1416 C1412 0.950 . S
C1417 C1415 1.390 . S
C1417 C1418 1.387 . S
C1417 H1420 0.950 . S
C1418 C1417 1.387 . S
C1418 C1421 1.387 . S
H1419 C1415 0.950 . S
H1420 C1417 0.950 . S
C1421 C1412 1.390 . S
C1421 H1414 0.950 . S
C1421 C1418 1.387 . S
C1422 C1423 1.387 . S
C1422 H1426 0.950 . S
C1422 C1431 1.390 . S
C1423 C1422 1.387 . S
C1423 C1425 1.387 . S
H1424 C1431 0.950 . S
C1425 C1423 1.387 . S
C1425 C1427 1.390 . S
C1425 H1429 0.950 . S
H1426 C1422 0.950 . S
C1427 C1425 1.390 . S
C1427 C1428 1.387 . S
C1427 H1430 0.950 1_455 S
C1428 C1427 1.387 . S
C1428 C1431 1.387 . S
H1429 C1425 0.950 . S
H1430 C1427 0.950 1_655 S
C1431 C1422 1.390 . S
C1431 H1424 0.950 . S
C1431 C1428 1.387 . S
C1432 C1433 1.387 . S
C1432 H1436 0.950 . S
C1432 C1441 1.390 . S
C1433 C1432 1.387 . S
C1433 C1435 1.387 . S
H1434 C1441 0.950 . S
C1435 C1433 1.387 . S
C1435 C1437 1.390 . S
C1435 H1439 0.950 . S
H1436 C1432 0.950 . S
C1437 C1435 1.390 . S
C1437 C1438 1.387 . S
C1437 H1440 0.950 . S
C1438 C1437 1.387 . S
C1438 C1441 1.387 . S
H1439 C1435 0.950 . S
H1440 C1437 0.950 . S
C1441 C1432 1.390 . S
C1441 H1434 0.950 . S
C1441 C1438 1.387 . S
C1442 C1443 1.387 . S
C1442 H1446 0.950 . S
C1442 C1451 1.390 . S
C1443 C1442 1.387 . S
C1443 C1445 1.387 1_565 S
H1444 C1451 0.950 . S
C1445 C1443 1.387 1_545 S
C1445 C1447 1.390 . S
C1445 H1449 0.950 . S
H1446 C1442 0.950 . S
C1447 C1445 1.390 . S
C1447 C1448 1.387 . S
C1447 H1450 0.950 . S
C1448 C1447 1.387 . S
C1448 C1451 1.387 1_545 S
H1449 C1445 0.950 . S
H1450 C1447 0.950 . S
C1451 C1442 1.390 . S
C1451 H1444 0.950 . S
C1451 C1448 1.387 1_565 S
C1452 C1453 1.387 1_565 S
C1452 H1456 0.950 . S
C1452 C1461 1.390 . S
C1453 C1452 1.387 1_545 S
C1453 C1455 1.387 . S
H1454 C1461 0.950 . S
C1455 C1453 1.387 . S
C1455 C1457 1.390 . S
C1455 H1459 0.950 . S
H1456 C1452 0.950 . S
C1457 C1455 1.390 . S
C1457 C1458 1.387 . S
C1457 H1460 0.950 . S
C1458 C1457 1.387 . S
C1458 C1461 1.387 1_545 S
H1459 C1455 0.950 . S
H1460 C1457 0.950 . S
C1461 C1452 1.390 . S
C1461 H1454 0.950 . S
C1461 C1458 1.387 1_565 S
C1462 C1463 1.387 . S
C1462 H1466 0.950 . S
C1462 C1471 1.390 . S
C1463 C1462 1.387 . S
C1463 C1465 1.387 . S
H1464 C1471 0.950 . S
C1465 C1463 1.387 . S
C1465 C1467 1.390 . S
C1465 H1469 0.950 . S
H1466 C1462 0.950 . S
C1467 C1465 1.390 . S
C1467 C1468 1.387 . S
C1467 H1470 0.950 . S
C1468 C1467 1.387 . S
C1468 C1471 1.387 . S
H1469 C1465 0.950 . S
H1470 C1467 0.950 . S
C1471 C1462 1.390 . S
C1471 H1464 0.950 . S
C1471 C1468 1.387 . S
C1472 C1473 1.387 . S
C1472 H1476 0.950 . S
C1472 C1481 1.390 . S
C1473 C1472 1.387 . S
C1473 C1475 1.387 . S
H1474 C1481 0.950 . S
C1475 C1473 1.387 . S
C1475 C1477 1.390 . S
C1475 H1479 0.950 . S
H1476 C1472 0.950 . S
C1477 C1475 1.390 . S
C1477 C1478 1.387 . S
C1477 H1480 0.950 . S
C1478 C1477 1.387 . S
C1478 C1481 1.387 . S
H1479 C1475 0.950 . S
H1480 C1477 0.950 . S
C1481 C1472 1.390 . S
C1481 H1474 0.950 . S
C1481 C1478 1.387 . S
C1482 C1483 1.387 . S
C1482 H1486 0.950 . S
C1482 C1491 1.390 . S
C1483 C1482 1.387 . S
C1483 C1485 1.387 . S
H1484 C1491 0.950 . S
C1485 C1483 1.387 . S
C1485 C1487 1.390 . S
C1485 H1489 0.950 . S
H1486 C1482 0.950 . S
C1487 C1485 1.390 . S
C1487 C1488 1.387 . S
C1487 H1490 0.950 . S
C1488 C1487 1.387 . S
C1488 C1491 1.387 . S
H1489 C1485 0.950 . S
H1490 C1487 0.950 . S
C1491 C1482 1.390 . S
C1491 H1484 0.950 . S
C1491 C1488 1.387 . S
C1492 C1493 1.387 . S
C1492 H1496 0.950 . S
C1492 C1501 1.390 . S
C1493 C1492 1.387 . S
C1493 C1495 1.387 . S
H1494 C1501 0.950 . S
C1495 C1493 1.387 . S
C1495 C1497 1.390 . S
C1495 H1499 0.950 . S
H1496 C1492 0.950 . S
C1497 C1495 1.390 . S
C1497 C1498 1.387 . S
C1497 H1500 0.950 . S
C1498 C1497 1.387 . S
C1498 C1501 1.387 . S
H1499 C1495 0.950 . S
H1500 C1497 0.950 . S
C1501 C1492 1.390 . S
C1501 H1494 0.950 . S
C1501 C1498 1.387 . S
C1502 C1503 1.387 . S
C1502 H1506 0.950 1_545 S
C1502 C1511 1.390 . S
C1503 C1502 1.387 . S
C1503 C1505 1.387 . S
H1504 C1511 0.950 . S
C1505 C1503 1.387 . S
C1505 C1507 1.390 . S
C1505 H1509 0.950 . S
H1506 C1502 0.950 1_565 S
C1507 C1505 1.390 . S
C1507 C1508 1.387 . S
C1507 H1510 0.950 . S
C1508 C1507 1.387 . S
C1508 C1511 1.387 . S
H1509 C1505 0.950 . S
H1510 C1507 0.950 . S
C1511 C1502 1.390 . S
C1511 H1504 0.950 . S
C1511 C1508 1.387 . S
C1512 C1513 1.387 . S
C1512 H1516 0.950 . S
C1512 C1521 1.390 . S
C1513 C1512 1.387 . S
C1513 C1515 1.387 . S
H1514 C1521 0.950 . S
C1515 C1513 1.387 . S
C1515 C1517 1.390 . S
C1515 H1519 0.950 . S
H1516 C1512 0.950 . S
C1517 C1515 1.390 . S
C1517 C1518 1.387 . S
C1517 H1520 0.950 . S
C1518 C1517 1.387 . S
C1518 C1521 1.387 . S
H1519 C1515 0.950 . S
H1520 C1517 0.950 . S
C1521 C1512 1.390 . S
C1521 H1514 0.950 . S
C1521 C1518 1.387 . S
C1522 C1523 1.387 . S
C1522 H1526 0.950 . S
C1522 C1531 1.390 . S
C1523 C1522 1.387 . S
C1523 C1525 1.387 . S
H1524 C1531 0.950 . S
C1525 C1523 1.387 . S
C1525 C1527 1.405 . S
C1525 H1529 0.946 . S
H1526 C1522 0.950 . S
C1527 C1525 1.405 . S
C1527 C1528 1.384 . S
C1527 H1530 0.940 1_455 S
C1528 C1527 1.384 . S
C1528 C1531 1.387 . S
H1529 C1525 0.946 . S
H1530 C1527 0.940 1_655 S
C1531 C1522 1.390 . S
C1531 H1524 0.950 . S
C1531 C1528 1.387 . S
C1532 C1533 1.387 . S
C1532 H1536 0.950 . S
C1532 C1541 1.390 . S
C1533 C1532 1.387 . S
C1533 C1535 1.387 . S
H1534 C1541 0.950 . S
C1535 C1533 1.387 . S
C1535 C1537 1.390 . S
C1535 H1539 0.950 . S
H1536 C1532 0.950 . S
C1537 C1535 1.390 . S
C1537 C1538 1.387 . S
C1537 H1540 0.950 . S
C1538 C1537 1.387 . S
C1538 C1541 1.387 . S
H1539 C1535 0.950 . S
H1540 C1537 0.950 . S
C1541 C1532 1.390 . S
C1541 H1534 0.950 . S
C1541 C1538 1.387 . S
C1542 C1543 1.387 . S
C1542 H1546 0.950 . S
C1542 C1551 1.390 . S
C1543 C1542 1.387 . S
C1543 C1545 1.387 . S
H1544 C1551 0.950 . S
C1545 C1543 1.387 . S
C1545 C1547 1.390 . S
C1545 H1549 0.950 . S
H1546 C1542 0.950 . S
C1547 C1545 1.390 . S
C1547 C1548 1.387 . S
C1547 H1550 0.950 . S
C1548 C1547 1.387 . S
C1548 C1551 1.387 . S
H1549 C1545 0.950 . S
H1550 C1547 0.950 . S
C1551 C1542 1.390 . S
C1551 H1544 0.950 . S
C1551 C1548 1.387 . S
C1552 C1553 1.387 . S
C1552 H1556 0.950 . S
C1552 C1561 1.390 . S
C1553 C1552 1.387 . S
C1553 C1555 1.387 . S
H1554 C1561 0.950 . S
C1555 C1553 1.387 . S
C1555 C1557 1.390 . S
C1555 H1559 0.950 . S
H1556 C1552 0.950 . S
C1557 C1555 1.390 . S
C1557 C1558 1.387 . S
C1557 H1560 0.950 . S
C1558 C1557 1.387 . S
C1558 C1561 1.387 . S
H1559 C1555 0.950 . S
H1560 C1557 0.950 . S
C1561 C1552 1.390 . S
C1561 H1554 0.950 . S
C1561 C1558 1.387 . S
C1562 C1563 1.387 . S
C1562 H1566 0.950 . S
C1562 C1571 1.390 . S
C1563 C1562 1.387 . S
C1563 C1565 1.387 . S
H1564 C1571 0.950 . S
C1565 C1563 1.387 . S
C1565 C1567 1.390 . S
C1565 H1569 0.950 . S
H1566 C1562 0.950 . S
C1567 C1565 1.390 . S
C1567 C1568 1.387 . S
C1567 H1570 0.950 . S
C1568 C1567 1.387 . S
C1568 C1571 1.387 . S
H1569 C1565 0.950 . S
H1570 C1567 0.950 . S
C1571 C1562 1.390 . S
C1571 H1564 0.950 . S
C1571 C1568 1.387 . S
C1572 C1573 1.387 . S
C1572 H1576 0.950 . S
C1572 C1581 1.371 1_556 S
C1573 C1572 1.387 . S
C1573 C1575 1.387 . S
H1574 C1581 0.955 . S
C1575 C1573 1.387 . S
C1575 C1577 1.390 1_556 S
C1575 H1579 0.950 . S
H1576 C1572 0.950 . S
C1577 C1575 1.390 1_554 S
C1577 C1578 1.387 . S
C1577 H1580 0.950 . S
C1578 C1577 1.387 . S
C1578 C1581 1.402 . S
H1579 C1575 0.950 . S
H1580 C1577 0.950 . S
C1581 C1572 1.371 1_554 S
C1581 H1574 0.955 . S
C1581 C1578 1.402 . S
C1582 C1583 1.387 . S
C1582 H1586 0.950 . S
C1582 C1591 1.390 . S
C1583 C1582 1.387 . S
C1583 C1585 1.387 . S
H1584 C1591 0.950 . S
C1585 C1583 1.387 . S
C1585 C1587 1.390 . S
C1585 H1589 0.950 . S
H1586 C1582 0.950 . S
C1587 C1585 1.390 . S
C1587 C1588 1.387 . S
C1587 H1590 0.950 1_556 S
C1588 C1587 1.387 . S
C1588 C1591 1.387 . S
H1589 C1585 0.950 . S
H1590 C1587 0.950 1_554 S
C1591 C1582 1.390 . S
C1591 H1584 0.950 . S
C1591 C1588 1.387 . S
C1592 C1593 1.387 . S
C1592 H1596 0.950 . S
C1592 C1601 1.390 1_556 S
C1593 C1592 1.387 . S
C1593 C1595 1.387 . S
H1594 C1601 0.950 . S
C1595 C1593 1.387 . S
C1595 C1597 1.390 . S
C1595 H1599 0.950 . S
H1596 C1592 0.950 . S
C1597 C1595 1.390 . S
C1597 C1598 1.387 1_556 S
C1597 H1600 0.950 . S
C1598 C1597 1.387 1_554 S
C1598 C1601 1.387 . S
H1599 C1595 0.950 . S
H1600 C1597 0.950 . S
C1601 C1592 1.390 1_554 S
C1601 H1594 0.950 . S
C1601 C1598 1.387 . S
C1602 C1603 1.387 . S
C1602 H1606 0.950 . S
C1602 C1611 1.390 . S
C1603 C1602 1.387 . S
C1603 C1605 1.387 . S
H1604 C1611 0.950 . S
C1605 C1603 1.387 . S
C1605 C1607 1.390 . S
C1605 H1609 0.950 . S
H1606 C1602 0.950 . S
C1607 C1605 1.390 . S
C1607 C1608 1.387 . S
C1607 H1610 0.950 . S
C1608 C1607 1.387 . S
C1608 C1611 1.387 . S
H1609 C1605 0.950 . S
H1610 C1607 0.950 . S
C1611 C1602 1.390 . S
C1611 H1604 0.950 . S
C1611 C1608 1.387 . S
C1612 C1613 1.387 . S
C1612 H1616 0.950 . S
C1612 C1621 1.390 . S
C1613 C1612 1.387 . S
C1613 C1615 1.387 . S
H1614 C1621 0.950 . S
C1615 C1613 1.387 . S
C1615 C1617 1.390 . S
C1615 H1619 0.950 . S
H1616 C1612 0.950 . S
C1617 C1615 1.390 . S
C1617 C1618 1.387 . S
C1617 H1620 0.950 . S
C1618 C1617 1.387 . S
C1618 C1621 1.387 . S
H1619 C1615 0.950 . S
H1620 C1617 0.950 . S
C1621 C1612 1.390 . S
C1621 H1614 0.950 . S
C1621 C1618 1.387 . S
C1622 C1623 1.387 . S
C1622 H1626 0.950 . S
C1622 C1631 1.390 . S
C1623 C1622 1.387 . S
C1623 C1625 1.387 . S
H1624 C1631 0.950 . S
C1625 C1623 1.387 . S
C1625 C1627 1.390 . S
C1625 H1629 0.950 . S
H1626 C1622 0.950 . S
C1627 C1625 1.390 . S
C1627 C1628 1.387 . S
C1627 H1630 0.950 . S
C1628 C1627 1.387 . S
C1628 C1631 1.387 . S
H1629 C1625 0.950 . S
H1630 C1627 0.950 . S
C1631 C1622 1.390 . S
C1631 H1624 0.950 . S
C1631 C1628 1.387 . S
C1632 C1633 1.387 . S
C1632 H1636 0.950 . S
C1632 C1641 1.390 . S
C1633 C1632 1.387 . S
C1633 C1635 1.387 . S
H1634 C1641 0.950 . S
C1635 C1633 1.387 . S
C1635 C1637 1.390 . S
C1635 H1639 0.950 . S
H1636 C1632 0.950 . S
C1637 C1635 1.390 . S
C1637 C1638 1.387 . S
C1637 H1640 0.950 . S
C1638 C1637 1.387 . S
C1638 C1641 1.387 . S
H1639 C1635 0.950 . S
H1640 C1637 0.950 . S
C1641 C1632 1.390 . S
C1641 H1634 0.950 . S
C1641 C1638 1.387 . S
C1642 C1643 1.387 . S
C1642 H1646 0.950 . S
C1642 C1651 1.390 . S
C1643 C1642 1.387 . S
C1643 C1645 1.387 . S
H1644 C1651 0.950 . S
C1645 C1643 1.387 . S
C1645 C1647 1.390 . S
C1645 H1649 0.950 . S
H1646 C1642 0.950 . S
C1647 C1645 1.390 . S
C1647 C1648 1.387 . S
C1647 H1650 0.950 . S
C1648 C1647 1.387 . S
C1648 C1651 1.387 . S
H1649 C1645 0.950 . S
H1650 C1647 0.950 . S
C1651 C1642 1.390 . S
C1651 H1644 0.950 . S
C1651 C1648 1.387 . S
C1652 C1653 1.387 . S
C1652 H1656 0.950 . S
C1652 C1661 1.390 . S
C1653 C1652 1.387 . S
C1653 C1655 1.387 . S
H1654 C1661 0.950 . S
C1655 C1653 1.387 . S
C1655 C1657 1.390 . S
C1655 H1659 0.950 . S
H1656 C1652 0.950 . S
C1657 C1655 1.390 . S
C1657 C1658 1.387 . S
C1657 H1660 0.950 . S
C1658 C1657 1.387 . S
C1658 C1661 1.387 . S
H1659 C1655 0.950 . S
H1660 C1657 0.950 . S
C1661 C1652 1.390 . S
C1661 H1654 0.950 . S
C1661 C1658 1.387 . S
C1662 C1663 1.387 . S
C1662 H1666 0.950 . S
C1662 C1671 1.390 . S
C1663 C1662 1.387 . S
C1663 C1665 1.387 . S
H1664 C1671 0.950 . S
C1665 C1663 1.387 . S
C1665 C1667 1.390 . S
C1665 H1669 0.950 . S
H1666 C1662 0.950 . S
C1667 C1665 1.390 . S
C1667 C1668 1.387 . S
C1667 H1670 0.950 . S
C1668 C1667 1.387 . S
C1668 C1671 1.387 . S
H1669 C1665 0.950 . S
H1670 C1667 0.950 . S
C1671 C1662 1.390 . S
C1671 H1664 0.950 . S
C1671 C1668 1.387 . S
C1672 C1673 1.387 . S
C1672 H1676 0.950 . S
C1672 C1681 1.390 . S
C1673 C1672 1.387 . S
C1673 C1675 1.387 . S
H1674 C1681 0.950 . S
C1675 C1673 1.387 . S
C1675 C1677 1.390 . S
C1675 H1679 0.950 . S
H1676 C1672 0.950 . S
C1677 C1675 1.390 . S
C1677 C1678 1.387 . S
C1677 H1680 0.950 . S
C1678 C1677 1.387 . S
C1678 C1681 1.387 . S
H1679 C1675 0.950 . S
H1680 C1677 0.950 . S
C1681 C1672 1.390 . S
C1681 H1674 0.950 . S
C1681 C1678 1.387 . S
C1682 C1683 1.387 . S
C1682 H1686 0.950 . S
C1682 C1691 1.390 . S
C1683 C1682 1.387 . S
C1683 C1685 1.387 . S
H1684 C1691 0.950 . S
C1685 C1683 1.387 . S
C1685 C1687 1.390 . S
C1685 H1689 0.950 . S
H1686 C1682 0.950 . S
C1687 C1685 1.390 . S
C1687 C1688 1.387 . S
C1687 H1690 0.950 . S
C1688 C1687 1.387 . S
C1688 C1691 1.387 . S
H1689 C1685 0.950 . S
H1690 C1687 0.950 . S
C1691 C1682 1.390 . S
C1691 H1684 0.950 . S
C1691 C1688 1.387 . S
C1692 C1693 1.387 . S
C1692 H1696 0.950 . S
C1692 C1701 1.390 . S
C1693 C1692 1.387 . S
C1693 C1695 1.387 . S
H1694 C1701 0.950 . S
C1695 C1693 1.387 . S
C1695 C1697 1.390 . S
C1695 H1699 0.950 . S
H1696 C1692 0.950 . S
C1697 C1695 1.390 . S
C1697 C1698 1.387 . S
C1697 H1700 0.950 . S
C1698 C1697 1.387 . S
C1698 C1701 1.387 . S
H1699 C1695 0.950 . S
H1700 C1697 0.950 . S
C1701 C1692 1.390 . S
C1701 H1694 0.950 . S
C1701 C1698 1.387 . S
C1702 C1703 1.387 . S
C1702 H1706 0.950 . S
C1702 C1711 1.390 . S
C1703 C1702 1.387 . S
C1703 C1705 1.387 . S
H1704 C1711 0.950 . S
C1705 C1703 1.387 . S
C1705 C1707 1.390 . S
C1705 H1709 0.950 . S
H1706 C1702 0.950 . S
C1707 C1705 1.390 . S
C1707 C1708 1.387 . S
C1707 H1710 0.950 . S
C1708 C1707 1.387 . S
C1708 C1711 1.387 . S
H1709 C1705 0.950 . S
H1710 C1707 0.950 . S
C1711 C1702 1.390 . S
C1711 H1704 0.950 . S
C1711 C1708 1.387 . S
C1712 C1713 1.387 . S
C1712 H1716 0.950 . S
C1712 C1721 1.390 . S
C1713 C1712 1.387 . S
C1713 C1715 1.387 . S
H1714 C1721 0.950 . S
C1715 C1713 1.387 . S
C1715 C1717 1.390 . S
C1715 H1719 0.950 . S
H1716 C1712 0.950 . S
C1717 C1715 1.390 . S
C1717 C1718 1.387 . S
C1717 H1720 0.950 . S
C1718 C1717 1.387 . S
C1718 C1721 1.387 . S
H1719 C1715 0.950 . S
H1720 C1717 0.950 . S
C1721 C1712 1.390 . S
C1721 H1714 0.950 . S
C1721 C1718 1.387 . S
C1722 C1723 1.387 . S
C1722 H1726 0.950 . S
C1722 C1731 1.390 . S
C1723 C1722 1.387 . S
C1723 C1725 1.387 . S
H1724 C1731 0.950 . S
C1725 C1723 1.387 . S
C1725 C1727 1.390 . S
C1725 H1729 0.950 . S
H1726 C1722 0.950 . S
C1727 C1725 1.390 . S
C1727 C1728 1.387 . S
C1727 H1730 0.950 . S
C1728 C1727 1.387 . S
C1728 C1731 1.387 . S
H1729 C1725 0.950 . S
H1730 C1727 0.950 . S
C1731 C1722 1.390 . S
C1731 H1724 0.950 . S
C1731 C1728 1.387 . S
C1732 C1733 1.387 . S
C1732 H1736 0.950 . S
C1732 C1741 1.390 . S
C1733 C1732 1.387 . S
C1733 C1735 1.387 . S
H1734 C1741 0.950 . S
C1735 C1733 1.387 . S
C1735 C1737 1.390 . S
C1735 H1739 0.950 . S
H1736 C1732 0.950 . S
C1737 C1735 1.390 . S
C1737 C1738 1.387 . S
C1737 H1740 0.950 . S
C1738 C1737 1.387 . S
C1738 C1741 1.387 . S
H1739 C1735 0.950 . S
H1740 C1737 0.950 . S
C1741 C1732 1.390 . S
C1741 H1734 0.950 . S
C1741 C1738 1.387 . S
C1742 C1743 1.387 . S
C1742 H1746 0.950 . S
C1742 C1751 1.390 . S
C1743 C1742 1.387 . S
C1743 C1745 1.387 . S
H1744 C1751 0.950 . S
C1745 C1743 1.387 . S
C1745 C1747 1.390 . S
C1745 H1749 0.950 . S
H1746 C1742 0.950 . S
C1747 C1745 1.390 . S
C1747 C1748 1.387 . S
C1747 H1750 0.950 . S
C1748 C1747 1.387 . S
C1748 C1751 1.387 . S
H1749 C1745 0.950 . S
H1750 C1747 0.950 . S
C1751 C1742 1.390 . S
C1751 H1744 0.950 . S
C1751 C1748 1.387 . S
C1752 C1753 1.387 . S
C1752 H1756 0.950 . S
C1752 C1761 1.390 . S
C1753 C1752 1.387 . S
C1753 C1755 1.387 . S
H1754 C1761 0.950 . S
C1755 C1753 1.387 . S
C1755 C1757 1.390 . S
C1755 H1759 0.950 . S
H1756 C1752 0.950 . S
C1757 C1755 1.390 . S
C1757 C1758 1.387 1_554 S
C1757 H1760 0.960 . S
C1758 C1757 1.387 1_556 S
C1758 C1761 1.387 1_556 S
H1759 C1755 0.950 . S
H1760 C1757 0.960 . S
C1761 C1752 1.390 . S
C1761 H1754 0.950 . S
C1761 C1758 1.387 1_554 S
C1762 C1763 1.387 . S
C1762 H1766 0.950 . S
C1762 C1771 1.390 . S
C1763 C1762 1.387 . S
C1763 C1765 1.387 . S
H1764 C1771 0.950 . S
C1765 C1763 1.387 . S
C1765 C1767 1.390 . S
C1765 H1769 0.950 . S
H1766 C1762 0.950 . S
C1767 C1765 1.390 . S
C1767 C1768 1.387 . S
C1767 H1770 0.950 . S
C1768 C1767 1.387 . S
C1768 C1771 1.387 . S
H1769 C1765 0.950 . S
H1770 C1767 0.950 . S
C1771 C1762 1.390 . S
C1771 H1764 0.950 . S
C1771 C1768 1.387 . S
C1772 C1773 1.387 . S
C1772 H1776 0.950 . S
C1772 C1781 1.390 . S
C1773 C1772 1.387 . S
C1773 C1775 1.387 . S
H1774 C1781 0.950 . S
C1775 C1773 1.387 . S
C1775 C1777 1.390 . S
C1775 H1779 0.950 . S
H1776 C1772 0.950 . S
C1777 C1775 1.390 . S
C1777 C1778 1.387 . S
C1777 H1780 0.950 . S
C1778 C1777 1.387 . S
C1778 C1781 1.387 . S
H1779 C1775 0.950 . S
H1780 C1777 0.950 . S
C1781 C1772 1.390 . S
C1781 H1774 0.950 . S
C1781 C1778 1.387 . S
C1063 C7 1.397 . S
C1068 C814 1.406 . S
C1078 C742 1.777 . S
C1073 C39 1.771 . S
C1088 C776 1.562 . S
C1083 C62 1.552 1_565 S
C1093 C76 1.893 . S
C1098 C956 1.869 . S
C1103 C108 1.442 . S
C1108 C994 1.428 1_455 S
C1113 N117 1.369 . S
C1118 C1028 1.350 . S
C1128 C921 1.369 1_455 S
C1123 C16 1.384 . S
C1133 C30 1.830 . S
C1138 C849 1.834 . S
C1148 C884 1.535 . S
C1143 C53 1.547 . S
C1153 C85 1.870 . S
C1158 C632 1.847 . S
C1168 C669 1.654 . S
C1163 C99 1.648 . S
C1173 N127 1.288 . S
C1178 C704 1.350 . S
C1183 N150 1.158 . S
C1188 C1030 1.177 . S
C1198 C958 1.548 . S
C1193 N173 1.533 . S
C1208 C992 1.419 . S
C1203 C200 1.394 . S
C1213 C214 1.702 . S
C1218 C524 1.689 . S
C1223 N232 1.505 . S
C1228 C562 1.504 . S
C1233 C260 1.478 . S
C1238 C596 1.472 . S
C1248 C489 1.259 . S
C1243 N140 1.228 . S
C1253 N163 1.280 . S
C1258 C417 1.327 . S
C1268 C452 1.633 . S
C1263 C191 1.637 . S
C1278 C848 1.955 . S
C1273 C223 1.969 . S
C1288 C885 1.483 . S
C1283 N242 1.420 . S
C1298 C920 1.528 . S
C1293 C269 1.531 . S
C1303 N288 1.344 . S
C1308 C598 1.362 . S
C1313 C315 1.517 . S
C1318 C526 1.554 . S
C1323 C338 1.624 . S
C1328 C560 1.638 . S
C1333 C352 1.886 . S
C1338 C740 1.873 . S
C1348 C778 1.549 . S
C1343 N370 1.560 . S
C1358 C812 1.551 . S
C1353 C398 1.546 . S
C1368 C705 1.218 . S
C1363 N278 1.145 . S
C1373 C306 1.740 . S
C1378 C633 1.753 . S
C1383 C329 1.633 . S
C1388 C668 1.625 1_655 S
C1398 C416 1.593 . S
C1393 C361 1.608 . S
C1403 N380 1.457 . S
C1408 C453 1.513 . S
C1418 C488 1.479 . S
C1413 C407 1.483 . S
C1428 C525 1.474 . S
C1423 N12 1.412 . S
C1433 N25 1.570 . S
C1438 C572 1.522 . S
C1448 C597 1.319 . S
C1443 N48 1.297 . S
C1458 C608 1.316 . S
C1453 N81 1.340 . S
C1468 C536 1.542 . S
C1463 N94 1.534 . S
C1478 C561 1.568 . S
C1473 C131 1.550 . S
C1488 C418 1.494 . S
C1483 N2 1.487 . S
C1493 N35 1.457 . S
C1498 C464 1.475 . S
C1503 N58 1.338 . S
C1508 C490 1.413 . S
C1518 C500 1.293 . S
C1513 N71 1.276 . S
C1528 C428 1.436 . S
C1523 N104 1.427 . S
C1538 C454 1.588 . S
C1533 C122 1.589 . S
C1543 C145 2.032 . S
C1548 C741 2.055 . S
C1553 C168 1.729 . S
C1558 C788 1.689 . S
C1563 N186 1.381 . S
C1568 C813 1.386 . S
C1578 C824 1.309 . S
C1573 N219 1.331 . S
C1588 C752 1.749 1_556 S
C1583 C246 1.814 . S
C1598 C777 1.475 . S
C1593 N265 1.444 . S
C1608 C634 1.976 . S
C1603 C154 1.969 . S
C1613 C177 1.835 . S
C1618 C680 1.743 . S
C1623 N196 1.242 . S
C1628 C706 1.291 . S
C1633 N209 1.149 . S
C1638 C716 1.204 . S
C1643 C237 1.886 . S
C1648 C644 1.856 . S
C1658 C670 1.430 . S
C1653 N255 1.394 . S
C1663 C283 1.780 . S
C1668 C957 1.789 . S
C1673 N301 1.445 . S
C1678 C1004 1.423 . S
C1683 N324 1.309 . S
C1688 C1029 1.319 . S
C1698 C1040 1.136 . S
C1693 N357 1.155 . S
C1708 C968 1.729 . S
C1703 C384 1.816 . S
C1713 N403 1.313 . S
C1718 C993 1.333 . S
C1723 C292 1.900 . S
C1728 C850 1.899 . S
C1738 C896 1.336 . S
C1733 N311 1.326 . S
C1743 N334 1.395 . S
C1748 C922 1.470 . S
C1753 N347 1.335 . S
C1758 C932 1.315 . S
C1768 C860 1.895 1_554 S
C1763 C375 1.933 . S
C1773 N393 1.346 . S
C1778 C886 1.382 1_554 S
