# Generated by pormake.
# Topology zzz, (3,6)-cn, num edge types: 1
# Building blocks:
#     Node 0, Type 0, BuildingBlock: WUSLED_clean_sbu_0, # of connection points: 3
#     Node 1, Type 0, BuildingBlock: WUSLED_clean_sbu_0, # of connection points: 3
#     Node 2, Type 0, BuildingBlock: WUSLED_clean_sbu_0, # of connection points: 3
#     Node 3, Type 0, BuildingBlock: WUSLED_clean_sbu_0, # of connection points: 3
#     Node 4, Type 0, BuildingBlock: WUSLED_clean_sbu_0, # of connection points: 3
#     Node 5, Type 0, BuildingBlock: WUSLED_clean_sbu_0, # of connection points: 3
#     Node 6, Type 0, BuildingBlock: WUSLED_clean_sbu_0, # of connection points: 3
#     Node 7, Type 0, BuildingBlock: WUSLED_clean_sbu_0, # of connection points: 3
#     Node 8, Type 1, BuildingBlock: VOLQOD_clean_sbu_1, # of connection points: 6
#     Node 9, Type 1, BuildingBlock: VOLQOD_clean_sbu_1, # of connection points: 6
#     Node 10, Type 1, BuildingBlock: VOLQOD_clean_sbu_1, # of connection points: 6
#     Node 11, Type 1, BuildingBlock: VOLQOD_clean_sbu_1, # of connection points: 6
#     Edge 12, Type (0, 1), BuildingBlock: EZIPEK_clean_linker_0, # of connection points: 2
#     Edge 13, Type (0, 1), BuildingBlock: EZIPEK_clean_linker_0, # of connection points: 2
#     Edge 14, Type (0, 1), BuildingBlock: EZIPEK_clean_linker_0, # of connection points: 2
#     Edge 15, Type (0, 1), BuildingBlock: EZIPEK_clean_linker_0, # of connection points: 2
#     Edge 16, Type (0, 1), BuildingBlock: EZIPEK_clean_linker_0, # of connection points: 2
#     Edge 17, Type (0, 1), BuildingBlock: EZIPEK_clean_linker_0, # of connection points: 2
#     Edge 18, Type (0, 1), BuildingBlock: EZIPEK_clean_linker_0, # of connection points: 2
#     Edge 19, Type (0, 1), BuildingBlock: EZIPEK_clean_linker_0, # of connection points: 2
#     Edge 20, Type (0, 1), BuildingBlock: EZIPEK_clean_linker_0, # of connection points: 2
#     Edge 21, Type (0, 1), BuildingBlock: EZIPEK_clean_linker_0, # of connection points: 2
#     Edge 22, Type (0, 1), BuildingBlock: EZIPEK_clean_linker_0, # of connection points: 2
#     Edge 23, Type (0, 1), BuildingBlock: EZIPEK_clean_linker_0, # of connection points: 2
#     Edge 24, Type (0, 1), BuildingBlock: EZIPEK_clean_linker_0, # of connection points: 2
#     Edge 25, Type (0, 1), BuildingBlock: EZIPEK_clean_linker_0, # of connection points: 2
#     Edge 26, Type (0, 1), BuildingBlock: EZIPEK_clean_linker_0, # of connection points: 2
#     Edge 27, Type (0, 1), BuildingBlock: EZIPEK_clean_linker_0, # of connection points: 2
#     Edge 28, Type (0, 1), BuildingBlock: EZIPEK_clean_linker_0, # of connection points: 2
#     Edge 29, Type (0, 1), BuildingBlock: EZIPEK_clean_linker_0, # of connection points: 2
#     Edge 30, Type (0, 1), BuildingBlock: EZIPEK_clean_linker_0, # of connection points: 2
#     Edge 31, Type (0, 1), BuildingBlock: EZIPEK_clean_linker_0, # of connection points: 2
#     Edge 32, Type (0, 1), BuildingBlock: EZIPEK_clean_linker_0, # of connection points: 2
#     Edge 33, Type (0, 1), BuildingBlock: EZIPEK_clean_linker_0, # of connection points: 2
#     Edge 34, Type (0, 1), BuildingBlock: EZIPEK_clean_linker_0, # of connection points: 2
#     Edge 35, Type (0, 1), BuildingBlock: EZIPEK_clean_linker_0, # of connection points: 2
# Relax obj value: 0.340
# Max RMSD: 0.255
# Mean RMSD: 0.201
data_MOF--net-zzz--node1-WUSLED_clean_sbu_0--node2-VOLQOD_clean_sbu_1--edge1-EZIPEK_clean_linker_0
_symmetry_space_group_name_H-M    P1
_symmetry_Int_Tables_number       1
_symmetry_cell_setting            triclinic
loop_
_symmetry_equiv_pos_as_xyz
'x, y, z'
_cell_length_a     50.143797
_cell_length_b     49.235022
_cell_length_c     19.461779
_cell_angle_alpha  90.315905
_cell_angle_beta   90.056509
_cell_angle_gamma 92.161641
loop_
_atom_site_label
_atom_site_type_symbol
_atom_site_fract_x
_atom_site_fract_y
_atom_site_fract_z
_atom_type_partial_charge
C0 C 0.81144 0.48376 0.3069 0.0
C1 C 0.8355 0.47472 0.27913 0.0
C2 C 0.85994 0.49152 0.38009 0.0
C3 C 0.85955 0.47848 0.31563 0.0
C4 C 0.83599 0.50088 0.40714 0.0
C5 C 0.812 0.49703 0.37089 0.0
U6 U 0.77037 0.48027 0.14131 0.0
O7 O 0.7307 0.49573 0.12007 0.0
O8 O 0.73747 0.45217 0.10759 0.0
C9 C 0.7206 0.47182 0.10109 0.0
C10 C 0.7856 0.47969 0.27047 0.0
C11 C 0.70358 0.47146 0.03911 0.0
C12 C 0.65919 0.46404 0.99043 0.0
C13 C 0.67696 0.46205 0.04539 0.0
C14 C 0.69461 0.48419 0.92065 0.0
C15 C 0.66771 0.47549 0.92795 0.0
C16 C 0.71248 0.48218 0.97597 0.0
C17 C 0.81787 0.49148 0.98136 0.0
C18 C 0.82951 0.4657 0.87981 0.0
C19 C 0.85752 0.50421 0.9173 0.0
C20 C 0.83961 0.50949 0.96963 0.0
C21 C 0.85361 0.48104 0.87587 0.0
C22 C 0.81169 0.47075 0.93324 0.0
C23 C 0.80835 0.48977 0.05222 0.0
O24 O 0.77643 0.50134 0.24068 0.0
O25 O 0.78268 0.4576 0.23248 0.0
O26 O 0.80177 0.46539 0.07532 0.0
O27 O 0.79409 0.50933 0.07752 0.0
H28 H 0.83568 0.46456 0.22962 0.0
H29 H 0.87777 0.47092 0.29412 0.0
H30 H 0.83583 0.5108 0.45695 0.0
H31 H 0.79377 0.50423 0.39318 0.0
H32 H 0.63853 0.45736 0.99727 0.0
H33 H 0.66966 0.45387 0.09373 0.0
H34 H 0.70152 0.49321 0.87295 0.0
H35 H 0.73295 0.48965 0.97015 0.0
H36 H 0.82603 0.44811 0.84689 0.0
H37 H 0.8758 0.51661 0.91374 0.0
H38 H 0.84462 0.52564 0.00604 0.0
H39 H 0.7948 0.45676 0.94122 0.0
C40 C 0.9973 0.7997 0.33228 0.0
C41 C 0.98663 0.82292 0.30273 0.0
C42 C 0.99857 0.84988 0.40494 0.0
C43 C 0.98725 0.84777 0.3388 0.0
C44 C 0.00974 0.82681 0.43374 0.0
C45 C 0.00903 0.80198 0.39784 0.0
U46 U 0.9929 0.74915 0.17604 0.0
O47 O 0.01115 0.70932 0.16882 0.0
O48 O 0.96765 0.7117 0.16363 0.0
C49 C 0.98835 0.69646 0.15456 0.0
C50 C 0.99514 0.77256 0.29841 0.0
C51 C 0.98811 0.67965 0.09109 0.0
C52 C 0.97648 0.63703 0.03225 0.0
C53 C 0.97572 0.65361 0.09099 0.0
C54 C 0.00163 0.67245 0.97208 0.0
C55 C 0.98971 0.64618 0.97262 0.0
C56 C 0.00071 0.68912 0.03069 0.0
C57 C 0.00086 0.80704 0.04243 0.0
C58 C 0.99517 0.84003 0.95219 0.0
C59 C 0.02747 0.84916 0.04322 0.0
C60 C 0.0201 0.82448 0.07388 0.0
C61 C 0.01548 0.85668 0.98147 0.0
C62 C 0.98797 0.81524 0.98249 0.0
C63 C 0.99648 0.77898 0.0653 0.0
O64 O 0.9727 0.7663 0.26591 0.0
O65 O 0.01632 0.76437 0.26559 0.0
O66 O 0.01703 0.76778 0.09424 0.0
O67 O 0.97359 0.77281 0.09529 0.0
H68 H 0.97751 0.82178 0.25227 0.0
H69 H 0.97869 0.86534 0.31535 0.0
H70 H 0.01872 0.82795 0.48438 0.0
H71 H 0.01731 0.78437 0.42184 0.0
H72 H 0.96739 0.61673 0.03389 0.0
H73 H 0.96586 0.64591 0.1368 0.0
H74 H 0.01211 0.67981 0.92682 0.0
H75 H 0.01028 0.70921 0.02928 0.0
H76 H 0.98572 0.84574 0.90458 0.0
H77 H 0.04308 0.862 0.06633 0.0
H78 H 0.03022 0.81851 0.12029 0.0
H79 H 0.97317 0.80194 0.95751 0.0
C80 C 0.71602 0.00113 0.30327 0.0
C81 C 0.69612 0.02032 0.29621 0.0
C82 C 0.66859 0.99601 0.38053 0.0
C83 C 0.67255 0.01776 0.33472 0.0
C84 C 0.68832 0.97679 0.38705 0.0
C85 C 0.71185 0.9794 0.34896 0.0
U86 U 0.76574 0.0086 0.14835 0.0
O87 O 0.8045 0.03121 0.14783 0.0
O88 O 0.80291 0.9867 0.13988 0.0
C89 C 0.81774 0.00919 0.13539 0.0
C90 C 0.74216 0.00403 0.26853 0.0
C91 C 0.83574 0.01059 0.07586 0.0
C92 C 0.8806 0.01657 0.03072 0.0
C93 C 0.86292 0.01684 0.08609 0.0
C94 C 0.84398 0.00442 0.95363 0.0
C95 C 0.87134 0.01002 0.96432 0.0
C96 C 0.82624 0.00482 0.00913 0.0
C97 C 0.71179 0.01388 0.00403 0.0
C98 C 0.68356 0.00755 0.90344 0.0
C99 C 0.66861 0.03435 1.00007 0.0
C100 C 0.6922 0.02941 0.03522 0.0
C101 C 0.66443 0.02384 0.93366 0.0
C102 C 0.70715 0.00263 0.93852 0.0
C103 C 0.73847 0.01196 0.03396 0.0
O104 O 0.74935 0.98309 0.23172 0.0
O105 O 0.74895 0.02761 0.24071 0.0
O106 O 0.74755 0.03324 0.0691 0.0
O107 O 0.74466 0.9886 0.06099 0.0
H108 H 0.6989 0.03742 0.26187 0.0
H109 H 0.65753 0.03285 0.32945 0.0
H110 H 0.68567 0.96001 0.42251 0.0
H111 H 0.72706 0.96461 0.35607 0.0
H112 H 0.90167 0.02078 0.03987 0.0
H113 H 0.87054 0.02138 0.13715 0.0
H114 H 0.83654 0.99915 0.90282 0.0
H115 H 0.80524 1.00004 1.00031 0.0
H116 H 0.68036 0.99901 0.85253 0.0
H117 H 0.65374 0.04666 0.02413 0.0
H118 H 0.69545 0.03832 0.08569 0.0
H119 H 0.72216 0.99074 0.91362 0.0
C120 C 0.55415 0.6926 0.2835 0.0
C121 C 0.56496 0.66915 0.25504 0.0
C122 C 0.55182 0.64315 0.35695 0.0
C123 C 0.56379 0.64459 0.29158 0.0
C124 C 0.54051 0.66646 0.38444 0.0
C125 C 0.54174 0.69093 0.3481 0.0
U126 U 0.5603 0.74572 0.13292 0.0
O127 O 0.58523 0.78359 0.12942 0.0
O128 O 0.54171 0.78529 0.13708 0.0
C129 C 0.56432 0.79887 0.1262 0.0
C130 C 0.55696 0.71956 0.25045 0.0
C131 C 0.56358 0.81782 0.06813 0.0
C132 C 0.56375 0.86418 0.02644 0.0
C133 C 0.56762 0.84578 0.07969 0.0
C134 C 0.55267 0.82675 0.94875 0.0
C135 C 0.55577 0.85479 0.96107 0.0
C136 C 0.55657 0.80834 1.00201 0.0
C137 C 0.55175 0.69194 0.98895 0.0
C138 C 0.55556 0.65992 0.8947 0.0
C139 C 0.52476 0.65014 0.98832 0.0
C140 C 0.53296 0.67431 0.02069 0.0
C141 C 0.53555 0.64318 0.92458 0.0
C142 C 0.56346 0.68438 0.92661 0.0
C143 C 0.55687 0.71948 0.01559 0.0
O144 O 0.57971 0.72578 0.21961 0.0
O145 O 0.53606 0.72829 0.2176 0.0
O146 O 0.57968 0.72429 0.04756 0.0
O147 O 0.53647 0.73048 0.04592 0.0
H148 H 0.57463 0.66991 0.20529 0.0
H149 H 0.57243 0.62676 0.26924 0.0
H150 H 0.53105 0.66578 0.43446 0.0
H151 H 0.53337 0.7088 0.37112 0.0
H152 H 0.56615 0.88579 0.03668 0.0
H153 H 0.57293 0.85341 0.13039 0.0
H154 H 0.54638 0.81922 0.89866 0.0
H155 H 0.55323 0.78679 0.99225 0.0
H156 H 0.56421 0.65454 0.8457 0.0
H157 H 0.50953 0.63715 0.0121 0.0
H158 H 0.52383 0.67972 0.06903 0.0
H159 H 0.57797 0.69784 0.90148 0.0
C160 C 0.21177 0.51598 0.03478 0.0
C161 C 0.18754 0.51875 0.06983 0.0
C162 C 0.16302 0.51056 0.96346 0.0
C163 C 0.16329 0.51606 0.03431 0.0
C164 C 0.18726 0.50846 0.92819 0.0
C165 C 0.21149 0.51111 0.96371 0.0
U166 U 0.25252 0.52552 0.19981 0.0
O167 O 0.28422 0.49947 0.23582 0.0
O168 O 0.29308 0.54291 0.21786 0.0
C169 C 0.3021 0.51962 0.23889 0.0
C170 C 0.23727 0.51644 0.07222 0.0
C171 C 0.31968 0.52018 0.29952 0.0
C172 C 0.36254 0.50901 0.34768 0.0
C173 C 0.34497 0.50938 0.29219 0.0
C174 C 0.32976 0.53029 0.41963 0.0
C175 C 0.35517 0.51945 0.4117 0.0
C176 C 0.312 0.53058 0.36367 0.0
C177 C 0.19593 0.54485 0.33919 0.0
C178 C 0.16909 0.53196 0.4382 0.0
C179 C 0.15572 0.56874 0.36474 0.0
C180 C 0.17849 0.56569 0.32476 0.0
C181 C 0.15044 0.55121 0.41988 0.0
C182 C 0.19163 0.52859 0.39745 0.0
C183 C 0.21634 0.53789 0.28891 0.0
O184 O 0.24622 0.54034 0.0945 0.0
O185 O 0.23937 0.49716 0.11803 0.0
O186 O 0.22257 0.51261 0.27691 0.0
O187 O 0.22968 0.55661 0.25358 0.0
H188 H 0.1874 0.52248 0.12475 0.0
H189 H 0.14473 0.51786 0.06211 0.0
H190 H 0.18738 0.50433 0.87345 0.0
H191 H 0.23001 0.50887 0.93595 0.0
H192 H 0.38203 0.50062 0.34064 0.0
H193 H 0.35116 0.50117 0.24321 0.0
H194 H 0.32377 0.53844 0.46882 0.0
H195 H 0.29244 0.53884 0.37035 0.0
H196 H 0.16514 0.51825 0.48067 0.0
H197 H 0.14139 0.58358 0.3501 0.0
H198 H 0.18144 0.57834 0.27985 0.0
H199 H 0.20496 0.51245 0.40943 0.0
C200 C 0.09045 0.1911 0.09897 0.0
C201 C 0.1087 0.17007 0.10098 0.0
C202 C 0.08161 0.14359 0.01852 0.0
C203 C 0.10444 0.14658 0.06041 0.0
C204 C 0.06339 0.16456 0.01733 0.0
C205 C 0.06783 0.18805 0.05685 0.0
U206 U 0.10673 0.22291 0.27329 0.0
O207 O 0.11845 0.26466 0.30848 0.0
O208 O 0.07935 0.24537 0.33863 0.0
C209 C 0.09594 0.26665 0.34266 0.0
C210 C 0.0928 0.21517 0.14467 0.0
C211 C 0.08927 0.29086 0.38354 0.0
C212 C 0.09175 0.33983 0.4022 0.0
C213 C 0.09943 0.31684 0.36551 0.0
C214 C 0.06457 0.3111 0.47721 0.0
C215 C 0.07407 0.33709 0.45788 0.0
C216 C 0.07202 0.28818 0.44018 0.0
C217 C 0.12678 0.17362 0.41209 0.0
C218 C 0.09769 0.17301 0.51135 0.0
C219 C 0.11923 0.13203 0.47527 0.0
C220 C 0.13295 0.14658 0.42439 0.0
C221 C 0.0996 0.14471 0.51383 0.0
C222 C 0.11161 0.18762 0.46064 0.0
C223 C 0.12507 0.18154 0.34007 0.0
O224 O 0.07578 0.21445 0.1958 0.0
O225 O 0.1169 0.2242 0.16282 0.0
O226 O 0.14084 0.20149 0.31769 0.0
O227 O 0.10027 0.18317 0.31962 0.0
H228 H 0.12604 0.17168 0.1342 0.0
H229 H 0.11883 0.13073 0.06184 0.0
H230 H 0.04572 0.16277 0.98528 0.0
H231 H 0.05329 0.20378 0.05532 0.0
H232 H 0.09921 0.35978 0.38656 0.0
H233 H 0.11275 0.31943 0.32208 0.0
H234 H 0.05094 0.30864 0.52008 0.0
H235 H 0.06411 0.26835 0.45555 0.0
H236 H 0.08287 0.18305 0.54182 0.0
H237 H 0.12124 0.11021 0.47789 0.0
H238 H 0.14482 0.13556 0.38787 0.0
H239 H 0.10681 0.20861 0.45205 0.0
C240 C 0.31964 0.0174 0.03945 0.0
C241 C 0.34387 0.02368 0.07362 0.0
C242 C 0.3687 0.0167 0.9677 0.0
C243 C 0.36816 0.02347 0.03794 0.0
C244 C 0.34453 0.00991 0.93399 0.0
C245 C 0.32023 0.0103 0.96956 0.0
U246 U 0.2807 0.01149 0.20607 0.0
O247 O 0.24655 0.03328 0.24712 0.0
O248 O 0.24294 0.98918 0.22977 0.0
C249 C 0.23141 0.011 0.25269 0.0
C250 C 0.29379 0.01763 0.07627 0.0
C251 C 0.21534 0.00794 0.31602 0.0
C252 C 0.17119 0.00529 0.36791 0.0
C253 C 0.18747 0.00785 0.3099 0.0
C254 C 0.21042 0.00276 0.44001 0.0
C255 C 0.18245 0.00279 0.43343 0.0
C256 C 0.22682 0.00532 0.38153 0.0
C257 C 0.33115 0.9967 0.35569 0.0
C258 C 0.34401 0.00973 0.47195 0.0
C259 C 0.36556 0.97281 0.41376 0.0
C260 C 0.34912 0.97572 0.35749 0.0
C261 C 0.36418 0.99068 0.46986 0.0
C262 C 0.32779 0.01315 0.41414 0.0
C263 C 0.32072 0.00329 0.28798 0.0
O264 O 0.28562 0.99422 0.10232 0.0
O265 O 0.29054 0.03819 0.11853 0.0
O266 O 0.31164 0.02764 0.27722 0.0
O267 O 0.30788 0.98359 0.25447 0.0
H268 H 0.34398 0.02886 0.12781 0.0
H269 H 0.38656 0.02867 0.065 0.0
H270 H 0.34447 0.00452 0.87995 0.0
H271 H 0.30186 0.00511 0.94239 0.0
H272 H 0.14972 0.00538 0.36173 0.0
H273 H 0.17823 0.00984 0.25991 0.0
H274 H 0.21947 1.00082 0.49021 0.0
H275 H 0.24831 0.00532 0.38739 0.0
H276 H 0.34201 0.02306 0.51593 0.0
H277 H 0.3809 0.95791 0.41097 0.0
H278 H 0.3521 0.96292 0.31283 0.0
H279 H 0.31386 0.02943 0.41373 0.0
C280 C 0.45976 0.30657 0.05739 0.0
C281 C 0.43814 0.32395 0.05239 0.0
C282 C 0.46313 0.35314 0.97143 0.0
C283 C 0.43989 0.34712 0.01 0.0
C284 C 0.48479 0.33609 0.97787 0.0
C285 C 0.48312 0.31319 0.0202 0.0
U286 U 0.44977 0.25252 0.20824 0.0
O287 O 0.47796 0.21982 0.21723 0.0
O288 O 0.43532 0.20937 0.20658 0.0
C289 C 0.45906 0.20081 0.2229 0.0
C290 C 0.45819 0.27991 0.09357 0.0
C291 C 0.46107 0.18389 0.28557 0.0
C292 C 0.45931 0.13935 0.33977 0.0
C293 C 0.45412 0.15601 0.28333 0.0
C294 C 0.47761 0.17833 0.40262 0.0
C295 C 0.47174 0.15027 0.39915 0.0
C296 C 0.4721 0.19502 0.34669 0.0
C297 C 0.43528 0.30258 0.35742 0.0
C298 C 0.44703 0.32712 0.46143 0.0
C299 C 0.44473 0.35099 0.35276 0.0
C300 C 0.4369 0.32675 0.31973 0.0
C301 C 0.45159 0.35071 0.42273 0.0
C302 C 0.43858 0.30317 0.42886 0.0
C303 C 0.43771 0.27638 0.32397 0.0
O304 O 0.47695 0.27534 0.13882 0.0
O305 O 0.43472 0.26896 0.11045 0.0
O306 O 0.41947 0.26844 0.27882 0.0
O307 O 0.46217 0.27148 0.30503 0.0
H308 H 0.41977 0.31933 0.07984 0.0
H309 H 0.42288 0.35994 0.00586 0.0
H310 H 0.50289 0.34021 0.94881 0.0
H311 H 0.49996 0.30006 0.0222 0.0
H312 H 0.45475 0.11772 0.33598 0.0
H313 H 0.44558 0.14696 0.23707 0.0
H314 H 0.48728 0.18715 0.44774 0.0
H315 H 0.47748 0.2165 0.35027 0.0
H316 H 0.45215 0.32674 0.51552 0.0
H317 H 0.4481 0.36925 0.32267 0.0
H318 H 0.4346 0.32642 0.26437 0.0
H319 H 0.43749 0.28453 0.45832 0.0
O320 O 0.09452 0.99898 0.69304 0.0
Zn321 Zn 0.0616 0.00133 0.75568 0.0
O322 O 0.02814 0.00254 0.70129 0.0
Zn323 Zn 0.00967 0.03489 0.7306 0.0
Zn324 Zn 0.03653 0.00268 0.60372 0.0
Zn325 Zn 0.00345 0.97156 0.71267 0.0
O326 O 0.97244 0.02672 0.76594 0.0
O327 O 0.96756 0.98215 0.74974 0.0
O328 O 0.06725 0.03517 0.81772 0.0
O329 O 0.0283 0.05471 0.80884 0.0
O330 O 0.01282 0.06221 0.65544 0.0
O331 O 0.03096 0.03988 0.56813 0.0
O332 O 0.01854 0.97178 0.548 0.0
O333 O 0.05832 0.96806 0.81669 0.0
O334 O 0.9989 0.94714 0.62839 0.0
O335 O 0.01879 0.94939 0.78485 0.0
C336 C 0.0964 0.99838 0.6276 0.0
C337 C 0.95877 0.00453 0.77178 0.0
C338 C 0.02387 0.06182 0.59654 0.0
C339 C 0.05151 0.05384 0.83477 0.0
C340 C 0.00513 0.95043 0.56544 0.0
C341 C 0.03973 0.94972 0.82157 0.0
O342 O 0.07586 0.99889 0.58938 0.0
O343 O 0.50711 0.06886 0.65664 0.0
Zn344 Zn 0.51395 0.03753 0.72433 0.0
O345 O 0.51827 0.0029 0.67462 0.0
Zn346 Zn 0.49175 0.97587 0.70398 0.0
Zn347 Zn 0.51749 0.00893 0.57664 0.0
Zn348 Zn 0.55174 0.98632 0.68926 0.0
O349 O 0.50653 0.94094 0.74086 0.0
O350 O 0.54901 0.95421 0.75068 0.0
O351 O 0.48154 0.0341 0.78971 0.0
O352 O 0.46846 0.99068 0.7774 0.0
O353 O 0.46674 0.97044 0.62737 0.0
O354 O 0.48787 0.98607 0.53485 0.0
O355 O 0.55355 0.00435 0.5314 0.0
O356 O 0.5483 0.04508 0.77945 0.0
O357 O 0.57218 0.9766 0.60451 0.0
O358 O 0.57404 0.01233 0.74037 0.0
C359 C 0.50428 0.06849 0.59129 0.0
C360 C 0.52998 0.93731 0.76347 0.0
C361 C 0.46722 0.97547 0.56345 0.0
C362 C 0.4658 0.01394 0.80464 0.0
C363 C 0.57269 0.98945 0.54813 0.0
C364 C 0.57067 0.03347 0.77618 0.0
O365 O 0.50757 0.04693 0.55661 0.0
O366 O 0.44793 0.50431 0.65258 0.0
Zn367 Zn 0.48066 0.49761 0.7124 0.0
O368 O 0.51351 0.49481 0.65612 0.0
Zn369 Zn 0.52974 0.46058 0.68004 0.0
Zn370 Zn 0.50405 0.49733 0.55964 0.0
Zn371 Zn 0.54047 0.52385 0.66883 0.0
O372 O 0.56718 0.46591 0.71942 0.0
O373 O 0.5742 0.51065 0.71274 0.0
O374 O 0.47263 0.46328 0.77105 0.0
O375 O 0.50911 0.44012 0.75404 0.0
O376 O 0.52591 0.43563 0.59872 0.0
O377 O 0.50739 0.4611 0.51832 0.0
O378 O 0.52397 0.52659 0.50598 0.0
O379 O 0.48635 0.53037 0.77461 0.0
O380 O 0.5488 0.5473 0.58441 0.0
O381 O 0.52553 0.54794 0.73735 0.0
C382 C 0.4455 0.50674 0.58766 0.0
C383 C 0.58158 0.48732 0.73142 0.0
C384 C 0.51507 0.43839 0.54001 0.0
C385 C 0.48666 0.4427 0.78332 0.0
C386 C 0.54095 0.54534 0.52221 0.0
C387 C 0.50516 0.54856 0.77585 0.0
O388 O 0.46543 0.50507 0.54781 0.0
O389 O 0.96544 0.52247 0.57523 0.0
Zn390 Zn 0.00021 0.53034 0.63119 0.0
O391 O 0.01118 0.49658 0.67678 0.0
Zn392 Zn 0.00801 0.50059 0.77591 0.0
Zn393 Zn 0.98916 0.46622 0.64214 0.0
Zn394 Zn 0.04732 0.48725 0.65842 0.0
O395 O 0.04249 0.49377 0.82827 0.0
O396 O 0.07064 0.49093 0.74067 0.0
O397 O 0.99592 0.56153 0.70207 0.0
O398 O 0.00182 0.53932 0.7995 0.0
O399 O 0.97451 0.48058 0.80634 0.0
O400 O 0.96204 0.4568 0.71309 0.0
O401 O 0.00957 0.43369 0.61026 0.0
O402 O 0.03018 0.54256 0.56621 0.0
O403 O 0.05123 0.45031 0.616 0.0
O404 O 0.06156 0.5133 0.59243 0.0
C405 C 0.95611 0.50011 0.54913 0.0
C406 C 0.06618 0.49277 0.80467 0.0
C407 C 0.95788 0.46498 0.77405 0.0
C408 C 0.99745 0.56117 0.76768 0.0
C409 C 0.03448 0.43126 0.60037 0.0
C410 C 0.05364 0.53365 0.55971 0.0
O411 O 0.96618 0.4775 0.56368 0.0
C412 C 0.15809 0.02399 0.53238 0.0
C413 C 0.16442 1.00037 0.4944 0.0
C414 C 0.12974 0.97377 0.55672 0.0
C415 C 0.12288 0.99759 0.59295 0.0
N416 N 0.13453 0.0433 0.62899 0.0
N417 N 0.16018 0.95192 0.47823 0.0
C418 C 0.13848 0.02203 0.58532 0.0
C419 C 0.15151 0.97491 0.50943 0.0
N420 N 0.16992 0.04853 0.51551 0.0
N421 N 0.11491 0.95024 0.56673 0.0
H422 H 0.17597 0.95223 0.44334 0.0
H423 H 0.15316 0.93234 0.48988 0.0
H424 H 0.10008 0.94848 0.60423 0.0
H425 H 0.11664 0.9327 0.53733 0.0
H426 H 0.16391 0.06706 0.53494 0.0
H427 H 0.18491 0.05062 0.47858 0.0
H428 H 0.14635 0.06113 0.62991 0.0
H429 H 0.12096 0.04193 0.66939 0.0
C430 C 0.46654 0.12778 0.51551 0.0
C431 C 0.48141 0.13189 0.45407 0.0
C432 C 0.51498 0.10087 0.49592 0.0
C433 C 0.49813 0.09348 0.55191 0.0
N434 N 0.45714 0.09909 0.61445 0.0
N435 N 0.51948 0.12184 0.38396 0.0
C436 C 0.47389 0.10706 0.56236 0.0
C437 C 0.50562 0.11837 0.44397 0.0
N438 N 0.44535 0.14365 0.52887 0.0
N439 N 0.54037 0.09169 0.49371 0.0
H440 H 0.51433 0.13571 0.34634 0.0
H441 H 0.53518 0.10982 0.36942 0.0
H442 H 0.54815 0.0796 0.53221 0.0
H443 H 0.55462 0.09822 0.45798 0.0
H444 H 0.43547 0.1439 0.57588 0.0
H445 H 0.43881 0.15815 0.49447 0.0
H446 H 0.43788 0.10592 0.62021 0.0
H447 H 0.4618 0.08425 0.64999 0.0
C448 C 0.39495 0.54 0.47366 0.0
C449 C 0.37477 0.51906 0.46925 0.0
C450 C 0.39827 0.49224 0.55518 0.0
C451 C 0.41926 0.51248 0.55608 0.0
N452 N 0.43515 0.558 0.53021 0.0
N453 N 0.35519 0.47654 0.50804 0.0
C454 C 0.41678 0.53713 0.51955 0.0
C455 C 0.37564 0.49572 0.51173 0.0
N456 N 0.39375 0.56205 0.43144 0.0
N457 N 0.40043 0.46948 0.59454 0.0
H458 H 0.33833 0.47888 0.47751 0.0
H459 H 0.35431 0.45844 0.53517 0.0
H460 H 0.4167 0.46636 0.62642 0.0
H461 H 0.38621 0.45365 0.59732 0.0
H462 H 0.40928 0.57641 0.42502 0.0
H463 H 0.37736 0.56548 0.39999 0.0
H464 H 0.4336 0.57739 0.51002 0.0
H465 H 0.45107 0.55663 0.56445 0.0
C466 C 0.04281 0.37565 0.4656 0.0
C467 C 0.0643 0.36149 0.49399 0.0
C468 C 0.06423 0.39121 0.59568 0.0
C469 C 0.04419 0.40674 0.56476 0.0
N470 N 0.01873 0.41732 0.46344 0.0
N471 N 0.09861 0.35833 0.57993 0.0
C472 C 0.03456 0.3999 0.49789 0.0
C473 C 0.07596 0.37004 0.55729 0.0
N474 N 0.02991 0.36565 0.40837 0.0
N475 N 0.0713 0.39596 0.66266 0.0
H476 H 0.10752 0.34256 0.5535 0.0
H477 H 0.10979 0.36568 0.62163 0.0
H478 H 0.06273 0.41086 0.69289 0.0
H479 H 0.0838 0.38358 0.69023 0.0
H480 H 0.01216 0.37327 0.3901 0.0
H481 H 0.03572 0.34832 0.38215 0.0
H482 H 0.01359 0.41485 0.41187 0.0
H483 H 0.01284 0.43575 0.48398 0.0
C484 C 0.89449 0.02696 0.85655 0.0
C485 C 0.89094 0.00681 0.90788 0.0
C486 C 0.93157 0.9853 0.87029 0.0
C487 C 0.93427 0.00416 0.81519 0.0
N488 N 0.91493 0.03938 0.74765 0.0
N489 N 0.90151 0.96263 0.9504 0.0
C490 C 0.91466 0.02395 0.80578 0.0
C491 C 0.90791 0.98454 0.91003 0.0
N492 N 0.87929 0.04942 0.85772 0.0
N493 N 0.95234 0.96968 0.88903 0.0
H494 H 0.88421 0.96135 0.98019 0.0
H495 H 0.91188 0.94469 0.94859 0.0
H496 H 0.97114 0.97107 0.86639 0.0
H497 H 0.95199 0.95768 0.933 0.0
H498 H 0.883 0.06625 0.82651 0.0
H499 H 0.86409 0.05205 0.89344 0.0
H500 H 0.89982 0.05242 0.73507 0.0
H501 H 0.92893 0.03713 0.7086 0.0
C502 C 0.52366 0.88717 0.9119 0.0
C503 C 0.54849 0.87448 0.90738 0.0
C504 C 0.55846 0.89902 0.80076 0.0
C505 C 0.53521 0.91434 0.81029 0.0
N506 N 0.49914 0.92699 0.88544 0.0
N507 N 0.59142 0.87087 0.85335 0.0
C508 C 0.51857 0.9094 0.8684 0.0
C509 C 0.56647 0.88111 0.85339 0.0
N510 N 0.50477 0.87787 0.95754 0.0
N511 N 0.57236 0.90087 0.74046 0.0
H512 H 0.59776 0.85732 0.89048 0.0
H513 H 0.60648 0.87745 0.81987 0.0
H514 H 0.56641 0.91273 0.69936 0.0
H515 H 0.58811 0.8885 0.72836 0.0
H516 H 0.48526 0.88446 0.95764 0.0
H517 H 0.5078 0.86177 0.99092 0.0
H518 H 0.48847 0.92576 0.9313 0.0
H519 H 0.49559 0.94461 0.85816 0.0
C520 C 0.6288 0.5006 0.88312 0.0
C521 C 0.64763 0.48021 0.87294 0.0
C522 C 0.62583 0.46762 0.76336 0.0
C523 C 0.60508 0.48562 0.77819 0.0
N524 N 0.58405 0.51482 0.86112 0.0
N525 N 0.66255 0.44199 0.80746 0.0
C526 C 0.60588 0.50109 0.84027 0.0
C527 C 0.64582 0.46312 0.81395 0.0
N528 N 0.63292 0.51974 0.93358 0.0
N529 N 0.62686 0.45541 0.70026 0.0
H530 H 0.67761 0.43835 0.84288 0.0
H531 H 0.66027 0.42696 0.76984 0.0
H532 H 0.61278 0.45856 0.66188 0.0
H533 H 0.64287 0.44419 0.68381 0.0
H534 H 0.62133 0.53676 0.93869 0.0
H535 H 0.64951 0.52008 0.96602 0.0
H536 H 0.58265 0.52398 0.90929 0.0
H537 H 0.56612 0.51463 0.83399 0.0
C538 C 0.97413 0.62548 0.85936 0.0
C539 C 0.9932 0.62717 0.91342 0.0
C540 C 0.01853 0.59176 0.85696 0.0
C541 C 0.99722 0.58669 0.80984 0.0
N542 N 0.95385 0.59811 0.76753 0.0
N543 N 0.03289 0.61068 0.96659 0.0
C544 C 0.97492 0.60368 0.81056 0.0
C545 C 0.0153 0.61005 0.9128 0.0
N546 N 0.95533 0.64476 0.85469 0.0
N547 N 0.0423 0.57963 0.84684 0.0
H548 H 0.03191 0.62448 0.00728 0.0
H549 H 0.04735 0.59628 0.9733 0.0
H550 H 0.04569 0.56717 0.80451 0.0
H551 H 0.05942 0.58424 0.87558 0.0
H552 H 0.94262 0.64644 0.8127 0.0
H553 H 0.95395 0.66055 0.89036 0.0
H554 H 0.93581 0.60783 0.77074 0.0
H555 H 0.9537 0.58246 0.73127 0.0
C556 C 0.08136 0.11361 0.60364 0.0
C557 C 0.07745 0.12759 0.54174 0.0
C558 C 0.03485 0.1023 0.523 0.0
C559 C 0.04075 0.0859 0.57974 0.0
N560 N 0.0723 0.07221 0.6663 0.0
N561 N 0.05207 0.1338 0.43743 0.0
C562 C 0.06465 0.09063 0.61843 0.0
C563 C 0.05444 0.12182 0.50026 0.0
N564 N 0.10129 0.12213 0.64758 0.0
N565 N 0.0107 0.09906 0.49086 0.0
H566 H 0.06571 0.14843 0.41875 0.0
H567 H 0.03751 0.12795 0.40158 0.0
H568 H 0.99633 0.08443 0.50607 0.0
H569 H 0.00413 0.11213 0.45309 0.0
H570 H 0.10352 0.1144 0.69688 0.0
H571 H 0.114 0.13888 0.63715 0.0
H572 H 0.09025 0.07394 0.69305 0.0
H573 H 0.06145 0.0543 0.67739 0.0
C574 C 0.39312 0.96611 0.5479 0.0
C575 C 0.38707 0.99116 0.51777 0.0
C576 C 0.43414 0.00239 0.50028 0.0
C577 C 0.44076 0.97721 0.53022 0.0
N578 N 0.42674 0.93316 0.5724 0.0
N579 N 0.40172 0.03733 0.49528 0.0
C580 C 0.42016 0.95853 0.55171 0.0
C581 C 0.40759 0.01075 0.5044 0.0
N582 N 0.37257 0.94977 0.57149 0.0
N583 N 0.45255 0.01766 0.46406 0.0
H584 H 0.38246 0.04422 0.50032 0.0
H585 H 0.41634 0.0529 0.49197 0.0
H586 H 0.47087 0.01048 0.44885 0.0
H587 H 0.44798 0.03551 0.43882 0.0
H588 H 0.37493 0.93155 0.59717 0.0
H589 H 0.35285 0.95586 0.56903 0.0
H590 H 0.41296 0.91785 0.58617 0.0
H591 H 0.44637 0.92682 0.57079 0.0
C592 C 0.45697 0.38941 0.50557 0.0
C593 C 0.46786 0.37328 0.45288 0.0
C594 C 0.5107 0.39884 0.45971 0.0
C595 C 0.5 0.41474 0.5126 0.0
N596 N 0.46333 0.42692 0.58612 0.0
N597 N 0.50638 0.35787 0.39101 0.0
C598 C 0.47328 0.4103 0.53626 0.0
C599 C 0.49507 0.37671 0.43276 0.0
N600 N 0.43119 0.38435 0.52648 0.0
N601 N 0.53542 0.40546 0.43389 0.0
H602 H 0.49596 0.34083 0.37136 0.0
H603 H 0.52672 0.35767 0.3806 0.0
H604 H 0.54769 0.42106 0.45447 0.0
H605 H 0.54305 0.39683 0.38945 0.0
H606 H 0.42239 0.39326 0.56888 0.0
H607 H 0.41823 0.37037 0.50188 0.0
H608 H 0.44367 0.42637 0.60282 0.0
H609 H 0.47472 0.44201 0.61159 0.0
C610 C 0.1048 0.52957 0.42582 0.0
C611 C 0.12343 0.54989 0.45015 0.0
C612 C 0.09043 0.5665 0.53153 0.0
C613 C 0.0727 0.54514 0.50989 0.0
N614 N 0.05921 0.5111 0.42731 0.0
N615 N 0.13515 0.58741 0.5257 0.0
C616 C 0.07873 0.52832 0.45359 0.0
C617 C 0.11642 0.56868 0.50216 0.0
N618 N 0.11247 0.51065 0.37874 0.0
N619 N 0.08222 0.5842 0.58083 0.0
H620 H 0.15443 0.58908 0.50572 0.0
H621 H 0.13221 0.60074 0.56634 0.0
H622 H 0.06301 0.58285 0.60146 0.0
H623 H 0.09342 0.60101 0.59848 0.0
H624 H 0.10118 0.49311 0.36658 0.0
H625 H 0.13092 0.51152 0.35407 0.0
H626 H 0.0613 0.49956 0.38283 0.0
H627 H 0.03984 0.5103 0.44711 0.0
C628 C 0.01737 0.90715 0.96865 0.0
C629 C 0.0253 0.88134 0.94534 0.0
C630 C 0.04992 0.90235 0.84941 0.0
C631 C 0.04127 0.9279 0.87197 0.0
N632 N 0.02251 0.95621 0.95882 0.0
N633 N 0.05047 0.85356 0.86815 0.0
C634 C 0.02697 0.93076 0.93393 0.0
C635 C 0.04223 0.87871 0.88722 0.0
N636 N 0.99937 0.90888 0.02113 0.0
N637 N 0.06498 0.90102 0.79096 0.0
H638 H 0.0454 0.83591 0.8953 0.0
H639 H 0.06287 0.84983 0.82672 0.0
H640 H 0.07175 0.9184 0.7648 0.0
H641 H 0.0711 0.88317 0.76816 0.0
H642 H 0.99039 0.92677 0.03536 0.0
H643 H 0.99179 0.89195 0.0477 0.0
H644 H 0.01411 0.95999 0.00664 0.0
H645 H 0.02951 0.97378 0.93384 0.0
C646 C 0.63916 0.04964 0.84538 0.0
C647 C 0.63946 0.02923 0.89676 0.0
C648 C 0.59147 0.0208 0.88392 0.0
C649 C 0.5916 0.03886 0.82757 0.0
N650 N 0.61461 0.07011 0.75208 0.0
N651 N 0.61736 0.99192 0.95627 0.0
C652 C 0.61517 0.05349 0.80804 0.0
C653 C 0.61596 0.01399 0.91417 0.0
N654 N 0.66181 0.06508 0.83232 0.0
N655 N 0.5678 0.00953 0.90691 0.0
H656 H 0.63508 0.98607 0.97906 0.0
H657 H 0.60154 0.97796 0.96383 0.0
H658 H 0.54947 0.01408 0.88521 0.0
H659 H 0.56605 0.99781 0.95116 0.0
H660 H 0.66256 0.08162 0.79924 0.0
H661 H 0.67984 0.06223 0.85759 0.0
H662 H 0.63149 0.07924 0.72969 0.0
H663 H 0.59685 0.07413 0.72667 0.0
C664 C 0.50779 0.62084 0.83156 0.0
C665 C 0.52515 0.61848 0.88897 0.0
C666 C 0.51988 0.56899 0.8849 0.0
C667 C 0.50481 0.57128 0.82416 0.0
N668 N 0.48065 0.59753 0.74356 0.0
N669 N 0.55095 0.59094 0.96457 0.0
C670 C 0.49748 0.59678 0.79887 0.0
C671 C 0.53183 0.59271 0.91476 0.0
N672 N 0.50186 0.64602 0.80777 0.0
N673 N 0.52276 0.54395 0.91334 0.0
H674 H 0.5607 0.60794 0.98658 0.0
H675 H 0.55885 0.57271 0.98008 0.0
H676 H 0.51391 0.52633 0.89187 0.0
H677 H 0.53162 0.54088 0.96091 0.0
H678 H 0.49076 0.64952 0.76382 0.0
H679 H 0.50836 0.66403 0.83191 0.0
H680 H 0.47383 0.61514 0.7215 0.0
H681 H 0.47234 0.57986 0.72106 0.0
C682 C 0.88696 0.48764 0.7836 0.0
C683 C 0.87684 0.47132 0.83758 0.0
C684 C 0.91833 0.44637 0.83962 0.0
C685 C 0.92979 0.46592 0.79468 0.0
N686 N 0.92625 0.50745 0.72942 0.0
N687 N 0.883 0.43565 0.92069 0.0
C688 C 0.9144 0.48708 0.76761 0.0
C689 C 0.89233 0.4504 0.86588 0.0
N690 N 0.87024 0.50383 0.74827 0.0
N691 N 0.93237 0.42424 0.85752 0.0
H692 H 0.86403 0.43757 0.94139 0.0
H693 H 0.89465 0.42254 0.94856 0.0
H694 H 0.95179 0.42138 0.84041 0.0
H695 H 0.92412 0.40782 0.8847 0.0
H696 H 0.87591 0.51436 0.70401 0.0
H697 H 0.84989 0.50437 0.75943 0.0
H698 H 0.91654 0.52489 0.7152 0.0
H699 H 0.94636 0.50796 0.71568 0.0
C700 C 0.07648 0.12351 0.90055 0.0
C701 C 0.07698 0.11942 0.97248 0.0
C702 C 0.06463 0.07101 0.95356 0.0
C703 C 0.06067 0.07619 0.88255 0.0
N704 N 0.0567 0.10963 0.79259 0.0
N705 N 0.06794 0.08996 0.06898 0.0
C706 C 0.06485 0.10307 0.85717 0.0
C707 C 0.07031 0.09326 0.99956 0.0
N708 N 0.08756 0.14686 0.87336 0.0
N709 N 0.06243 0.04497 0.97737 0.0
H710 H 0.07167 0.10572 0.10407 0.0
H711 H 0.06025 0.07222 0.09158 0.0
H712 H 0.05678 0.02844 0.94617 0.0
H713 H 0.06786 0.03953 0.02693 0.0
H714 H 0.09013 0.14973 0.82073 0.0
H715 H 0.09681 0.16208 0.9035 0.0
H716 H 0.05701 0.12951 0.77439 0.0
H717 H 0.04684 0.09587 0.75986 0.0
C718 C 0.41375 0.99746 0.94191 0.0
C719 C 0.39449 0.01723 0.92889 0.0
C720 C 0.42223 0.03549 0.83442 0.0
C721 C 0.44254 0.01729 0.8514 0.0
N722 N 0.45984 0.98484 0.93053 0.0
N723 N 0.383 0.05865 0.87226 0.0
C724 C 0.43892 0.99943 0.90802 0.0
C725 C 0.39956 0.03736 0.87805 0.0
N726 N 0.40763 0.97614 0.98445 0.0
N727 N 0.42366 0.04984 0.7745 0.0
H728 H 0.36632 0.06087 0.90348 0.0
H729 H 0.38724 0.07539 0.84106 0.0
H730 H 0.43953 0.0488 0.74018 0.0
H731 H 0.40793 0.06088 0.75571 0.0
H732 H 0.41969 0.95951 0.98987 0.0
H733 H 0.38935 0.97382 0.00968 0.0
H734 H 0.45921 0.97327 0.97517 0.0
H735 H 0.47878 0.98661 0.90848 0.0
C736 C 0.4663 0.37154 0.85025 0.0
C737 C 0.46498 0.37654 0.92196 0.0
C738 C 0.47213 0.42573 0.90141 0.0
C739 C 0.47668 0.42039 0.83037 0.0
N740 N 0.47842 0.38799 0.73681 0.0
N741 N 0.46714 0.40649 0.01712 0.0
C742 C 0.47376 0.3932 0.80475 0.0
C743 C 0.46759 0.40339 0.94755 0.0
N744 N 0.45951 0.34615 0.82558 0.0
N745 N 0.47265 0.45199 0.92475 0.0
H746 H 0.47068 0.42479 0.0433 0.0
H747 H 0.47068 0.42479 0.0433 0.0
H748 H 0.47795 0.46859 0.89405 0.0
H749 H 0.46639 0.45773 0.97344 0.0
H750 H 0.45739 0.34144 0.77363 0.0
H751 H 0.45359 0.33008 0.85755 0.0
H752 H 0.48033 0.36857 0.71651 0.0
H753 H 0.48159 0.40325 0.70057 0.0
C754 C 0.12762 0.52786 0.88562 0.0
C755 C 0.13728 0.50651 0.92612 0.0
C756 C 0.09779 0.47771 0.89615 0.0
C757 C 0.0895 0.49805 0.85046 0.0
N758 N 0.09761 0.54162 0.79584 0.0
N759 N 0.13378 0.46001 0.96415 0.0
C760 C 0.10472 0.52292 0.84362 0.0
C761 C 0.12287 0.48116 0.9302 0.0
N762 N 0.14 0.55308 0.88873 0.0
N763 N 0.08174 0.45507 0.90673 0.0
H764 H 0.152 0.46179 0.99001 0.0
H765 H 0.12587 0.44016 0.96258 0.0
H766 H 0.06377 0.45144 0.88063 0.0
H767 H 0.08519 0.44083 0.94474 0.0
H768 H 0.13227 0.57033 0.86671 0.0
H769 H 0.15705 0.55734 0.91822 0.0
H770 H 0.10969 0.55837 0.78206 0.0
H771 H 0.08025 0.53968 0.76649 0.0
C772 C 0.9804 0.88059 0.49761 0.0
C773 C 0.99884 0.87642 0.44346 0.0
C774 C 0.01507 0.92407 0.45434 0.0
C775 C 0.99926 0.92738 0.51454 0.0
N776 N 0.95893 0.91267 0.57279 0.0
N777 N 0.03676 0.89279 0.37789 0.0
C778 C 0.97972 0.90659 0.53072 0.0
C779 C 0.01695 0.8978 0.42395 0.0
N780 N 0.9639 0.85948 0.51844 0.0
N781 N 0.02628 0.9462 0.42179 0.0
H782 H 0.03884 0.87393 0.35424 0.0
H783 H 0.05262 0.90653 0.36832 0.0
H784 H 0.02141 0.96604 0.4334 0.0
H785 H 0.03649 0.94495 0.37537 0.0
H786 H 0.9526 0.85983 0.56323 0.0
H787 H 0.96274 0.84074 0.4932 0.0
H788 H 0.94284 0.89939 0.58316 0.0
H789 H 0.95588 0.9324 0.59014 0.0
C790 C 0.61956 0.98442 0.39352 0.0
C791 C 0.64408 0.99367 0.42346 0.0
C792 C 0.62256 0.99696 0.53628 0.0
C793 C 0.59741 0.98968 0.50545 0.0
N794 N 0.57158 0.9776 0.40427 0.0
N795 N 0.6688 0.01181 0.52062 0.0
C796 C 0.59581 0.98384 0.43382 0.0
C797 C 0.64561 1.00043 0.49427 0.0
N798 N 0.61926 0.97506 0.32718 0.0
N799 N 0.62456 0.00112 0.6057 0.0
H800 H 0.68614 0.01484 0.49167 0.0
H801 H 0.67049 0.0203 0.56959 0.0
H802 H 0.60833 0.0039 0.63783 0.0
H803 H 0.64259 0.00113 0.63232 0.0
H804 H 0.60282 0.96527 0.30407 0.0
H805 H 0.63623 0.97523 0.29618 0.0
H806 H 0.56837 0.97708 0.35143 0.0
H807 H 0.5542 0.97385 0.43256 0.0
C808 C 0.53273 0.59581 0.37649 0.0
C809 C 0.55096 0.6171 0.3963 0.0
C810 C 0.5685 0.58788 0.4871 0.0
C811 C 0.54861 0.56741 0.47077 0.0
N812 N 0.52333 0.54747 0.37582 0.0
N813 N 0.5857 0.63436 0.47214 0.0
C814 C 0.53392 0.57001 0.40854 0.0
C815 C 0.56881 0.61335 0.45198 0.0
N816 N 0.51353 0.60044 0.32852 0.0
N817 N 0.58872 0.58188 0.53097 0.0
H818 H 0.58759 0.65263 0.4454 0.0
H819 H 0.59668 0.63445 0.51754 0.0
H820 H 0.59136 0.56225 0.54888 0.0
H821 H 0.60492 0.595 0.54206 0.0
H822 H 0.49768 0.58668 0.31842 0.0
H823 H 0.51193 0.61901 0.3036 0.0
H824 H 0.51392 0.54817 0.32814 0.0
H825 H 0.52809 0.52782 0.38954 0.0
C826 C 0.90542 0.51357 0.40587 0.0
C827 C 0.88497 0.49385 0.4219 0.0
C828 C 0.90946 0.48148 0.52555 0.0
C829 C 0.93124 0.49929 0.50633 0.0
N830 N 0.95158 0.52913 0.42193 0.0
N831 N 0.86999 0.45535 0.48943 0.0
C832 C 0.92963 0.5146 0.44487 0.0
C833 C 0.88773 0.47675 0.47957 0.0
N834 N 0.90146 0.53174 0.35438 0.0
N835 N 0.90891 0.46984 0.58915 0.0
H836 H 0.85381 0.45108 0.45687 0.0
H837 H 0.87272 0.44032 0.52599 0.0
H838 H 0.92415 0.47279 0.62498 0.0
H839 H 0.89219 0.45944 0.60903 0.0
H840 H 0.91425 0.54845 0.34501 0.0
H841 H 0.88423 0.5313 0.32422 0.0
H842 H 0.95261 0.53829 0.37387 0.0
H843 H 0.96967 0.53013 0.44845 0.0
loop_
_geom_bond_atom_site_label_1
_geom_bond_atom_site_label_2
_geom_bond_distance
_geom_bond_site_symmetry_2
_ccdc_geom_bond_type
C0 C1 1.264 . S
C0 C5 1.479 . S
C0 C10 1.465 . S
C1 C0 1.264 . S
C1 C3 1.339 . S
C1 H28 0.931 . S
C2 C3 1.395 . S
C2 C4 1.320 . S
C3 C1 1.339 . S
C3 C2 1.395 . S
C3 H29 0.929 . S
C4 C2 1.320 . S
C4 C5 1.405 . S
C4 H30 0.930 . S
C5 C0 1.479 . S
C5 C4 1.405 . S
C5 H31 0.931 . S
U6 O7 2.454 . S
U6 O8 2.458 1_554 S
U6 C9 2.984 . S
U6 C10 2.847 . S
U6 C23 2.882 1_554 S
U6 O24 2.441 . S
U6 O25 2.420 . S
U6 O26 2.455 1_554 S
U6 O27 2.449 . S
O7 U6 2.454 . S
O7 C9 1.353 . S
O8 U6 2.458 1_556 S
O8 C9 1.286 1_556 S
C9 U6 2.984 . S
C9 O7 1.353 . S
C9 O8 1.286 1_554 S
C9 C11 1.363 1_554 S
C10 C0 1.465 . S
C10 U6 2.847 . S
C10 O24 1.249 . S
C10 O25 1.202 . S
C11 C9 1.363 1_556 S
C11 C13 1.408 1_556 S
C11 C16 1.342 . S
C12 C13 1.310 . S
C12 C15 1.461 1_554 S
C12 H32 0.932 . S
C13 C11 1.408 1_554 S
C13 C12 1.310 . S
C13 H33 0.930 . S
C14 C15 1.474 . S
C14 C16 1.285 . S
C14 H34 0.929 . S
C15 C12 1.461 1_556 S
C15 C14 1.474 . S
C16 C11 1.342 . S
C16 C14 1.285 . S
C16 H35 0.930 . S
C17 C20 1.424 . S
C17 C22 1.245 . S
C17 C23 1.428 . S
C18 C21 1.260 . S
C18 C22 1.477 . S
C18 H36 0.932 . S
C19 C20 1.384 . S
C19 C21 1.479 . S
C19 H37 0.929 . S
C20 C17 1.424 . S
C20 C19 1.384 . S
C20 H38 0.928 . S
C21 C18 1.260 . S
C21 C19 1.479 . S
C22 C17 1.245 . S
C22 C18 1.477 . S
C22 H39 0.932 . S
C23 U6 2.882 1_556 S
C23 C17 1.428 . S
C23 O26 1.301 . S
C23 O27 1.282 1_556 S
O24 U6 2.441 . S
O24 C10 1.249 . S
O25 U6 2.420 . S
O25 C10 1.202 . S
O26 U6 2.455 1_556 S
O26 C23 1.301 . S
O27 U6 2.449 . S
O27 C23 1.282 1_554 S
H28 C1 0.931 . S
H29 C3 0.929 . S
H30 C4 0.930 . S
H31 C5 0.931 . S
H32 C12 0.932 . S
H33 C13 0.930 . S
H34 C14 0.929 . S
H35 C16 0.930 . S
H36 C18 0.932 . S
H37 C19 0.929 . S
H38 C20 0.928 . S
H39 C22 0.932 . S
C40 C41 1.264 . S
C40 C45 1.482 . S
C40 C50 1.465 . S
C41 C40 1.264 . S
C41 C43 1.339 . S
C41 H68 0.931 . S
C42 C43 1.395 1_655 S
C42 C44 1.320 . S
C43 C41 1.339 . S
C43 C42 1.395 1_455 S
C43 H69 0.929 . S
C44 C42 1.320 . S
C44 C45 1.399 1_655 S
C44 H70 0.930 . S
C45 C40 1.482 . S
C45 C44 1.399 1_455 S
C45 H71 0.934 . S
U46 O47 2.454 1_455 S
U46 O48 2.458 1_455 S
U46 C49 2.984 1_455 S
U46 C50 2.847 . S
U46 C63 2.882 . S
U46 O64 2.441 . S
U46 O65 2.420 . S
U46 O66 2.455 1_554 S
U46 O67 2.449 . S
O47 U46 2.454 1_655 S
O47 C49 1.353 . S
O48 U46 2.458 1_655 S
O48 C49 1.286 . S
C49 U46 2.984 1_655 S
C49 O47 1.353 . S
C49 O48 1.286 . S
C49 C51 1.363 . S
C50 C40 1.465 . S
C50 U46 2.847 . S
C50 O64 1.249 . S
C50 O65 1.202 . S
C51 C49 1.363 . S
C51 C53 1.408 . S
C51 C56 1.342 1_554 S
C52 C53 1.310 . S
C52 C55 1.461 . S
C52 H72 0.932 . S
C53 C51 1.408 . S
C53 C52 1.310 . S
C53 H73 0.930 . S
C54 C55 1.474 1_556 S
C54 C56 1.285 . S
C54 H74 0.929 . S
C55 C52 1.461 . S
C55 C54 1.474 1_554 S
C56 C51 1.342 1_556 S
C56 C54 1.285 . S
C56 H75 0.930 . S
C57 C60 1.424 . S
C57 C62 1.245 . S
C57 C63 1.428 1_556 S
C58 C61 1.253 1_455 S
C58 C62 1.477 . S
C58 H76 0.932 . S
C59 C60 1.384 . S
C59 C61 1.475 1_455 S
C59 H77 0.929 . S
C60 C57 1.424 . S
C60 C59 1.384 . S
C60 H78 0.928 1_556 S
C61 C58 1.253 1_655 S
C61 C59 1.475 1_655 S
C62 C57 1.245 . S
C62 C58 1.477 . S
C62 H79 0.932 . S
C63 U46 2.882 . S
C63 C57 1.428 1_554 S
C63 O66 1.301 1_554 S
C63 O67 1.282 . S
O64 U46 2.441 . S
O64 C50 1.249 . S
O65 U46 2.420 . S
O65 C50 1.202 . S
O66 U46 2.455 1_556 S
O66 C63 1.301 1_556 S
O67 U46 2.449 . S
O67 C63 1.282 . S
H68 C41 0.931 . S
H69 C43 0.929 . S
H70 C44 0.930 . S
H71 C45 0.934 . S
H72 C52 0.932 . S
H73 C53 0.930 . S
H74 C54 0.929 . S
H75 C56 0.930 . S
H76 C58 0.932 . S
H77 C59 0.929 . S
H78 C60 0.928 1_554 S
H79 C62 0.932 . S
C80 C81 1.264 . S
C80 C85 1.479 . S
C80 C90 1.465 . S
C81 C80 1.264 . S
C81 C83 1.339 . S
C81 H108 0.931 . S
C82 C83 1.395 . S
C82 C84 1.320 . S
C83 C81 1.339 . S
C83 C82 1.395 . S
C83 H109 0.929 . S
C84 C82 1.320 . S
C84 C85 1.405 . S
C84 H110 0.930 1_545 S
C85 C80 1.479 . S
C85 C84 1.405 . S
C85 H111 0.931 . S
U86 O87 2.454 . S
U86 O88 2.457 . S
U86 C89 2.984 . S
U86 C90 2.847 . S
U86 C103 2.882 1_554 S
U86 O104 2.441 . S
U86 O105 2.420 . S
U86 O106 2.455 1_554 S
U86 O107 2.449 . S
O87 U86 2.454 . S
O87 C89 1.353 . S
O88 U86 2.457 . S
O88 C89 1.285 . S
C89 U86 2.984 . S
C89 O87 1.353 . S
C89 O88 1.285 . S
C89 C91 1.363 . S
C90 C80 1.465 . S
C90 U86 2.847 . S
C90 O104 1.249 . S
C90 O105 1.202 . S
C91 C89 1.363 . S
C91 C93 1.408 . S
C91 C96 1.342 1_554 S
C92 C93 1.310 . S
C92 C95 1.460 1_544 S
C92 H112 0.932 . S
C93 C91 1.408 . S
C93 C92 1.310 . S
C93 H113 0.930 . S
C94 C95 1.475 . S
C94 C96 1.282 1_565 S
C94 H114 0.933 . S
C95 C92 1.460 1_566 S
C95 C94 1.475 . S
C96 C91 1.342 1_556 S
C96 C94 1.282 1_545 S
C96 H115 0.931 . S
C97 C100 1.424 . S
C97 C102 1.245 . S
C97 C103 1.428 . S
C98 C101 1.260 . S
C98 C102 1.477 . S
C98 H116 0.932 . S
C99 C100 1.384 . S
C99 C101 1.479 . S
C99 H117 0.929 . S
C100 C97 1.424 . S
C100 C99 1.384 . S
C100 H118 0.928 . S
C101 C98 1.260 . S
C101 C99 1.479 . S
C102 C97 1.245 . S
C102 C98 1.477 . S
C102 H119 0.932 . S
C103 U86 2.882 1_556 S
C103 C97 1.428 . S
C103 O106 1.301 . S
C103 O107 1.282 1_556 S
O104 U86 2.441 . S
O104 C90 1.249 . S
O105 U86 2.420 . S
O105 C90 1.202 . S
O106 U86 2.455 1_556 S
O106 C103 1.301 . S
O107 U86 2.449 . S
O107 C103 1.282 1_554 S
H108 C81 0.931 . S
H109 C83 0.929 . S
H110 C84 0.930 1_565 S
H111 C85 0.931 . S
H112 C92 0.932 . S
H113 C93 0.930 . S
H114 C94 0.933 . S
H115 C96 0.931 . S
H116 C98 0.932 . S
H117 C99 0.929 . S
H118 C100 0.928 . S
H119 C102 0.932 . S
C120 C121 1.264 . S
C120 C125 1.479 . S
C120 C130 1.465 . S
C121 C120 1.264 . S
C121 C123 1.339 . S
C121 H148 0.931 . S
C122 C123 1.395 . S
C122 C124 1.320 . S
C123 C121 1.339 . S
C123 C122 1.395 . S
C123 H149 0.929 . S
C124 C122 1.320 . S
C124 C125 1.405 . S
C124 H150 0.930 . S
C125 C120 1.479 . S
C125 C124 1.405 . S
C125 H151 0.931 . S
U126 O127 2.454 . S
U126 O128 2.458 1_554 S
U126 C129 2.984 . S
U126 C130 2.847 . S
U126 C143 2.882 1_554 S
U126 O144 2.441 . S
U126 O145 2.420 . S
U126 O146 2.455 1_554 S
U126 O147 2.449 . S
O127 U126 2.454 . S
O127 C129 1.353 . S
O128 U126 2.458 1_556 S
O128 C129 1.286 1_556 S
C129 U126 2.984 . S
C129 O127 1.353 . S
C129 O128 1.286 1_554 S
C129 C131 1.363 . S
C130 C120 1.465 . S
C130 U126 2.847 . S
C130 O144 1.249 . S
C130 O145 1.202 . S
C131 C129 1.363 . S
C131 C133 1.408 . S
C131 C136 1.342 1_554 S
C132 C133 1.310 . S
C132 C135 1.461 1_554 S
C132 H152 0.932 . S
C133 C131 1.408 . S
C133 C132 1.310 . S
C133 H153 0.930 . S
C134 C135 1.474 . S
C134 C136 1.285 . S
C134 H154 0.929 . S
C135 C132 1.461 1_556 S
C135 C134 1.474 . S
C136 C131 1.342 1_556 S
C136 C134 1.285 . S
C136 H155 0.930 . S
C137 C140 1.424 . S
C137 C142 1.245 . S
C137 C143 1.428 . S
C138 C141 1.260 . S
C138 C142 1.477 . S
C138 H156 0.932 . S
C139 C140 1.384 . S
C139 C141 1.479 . S
C139 H157 0.929 . S
C140 C137 1.424 . S
C140 C139 1.384 . S
C140 H158 0.928 . S
C141 C138 1.260 . S
C141 C139 1.479 . S
C142 C137 1.245 . S
C142 C138 1.477 . S
C142 H159 0.932 . S
C143 U126 2.882 1_556 S
C143 C137 1.428 . S
C143 O146 1.301 . S
C143 O147 1.282 1_556 S
O144 U126 2.441 . S
O144 C130 1.249 . S
O145 U126 2.420 . S
O145 C130 1.202 . S
O146 U126 2.455 1_556 S
O146 C143 1.301 . S
O147 U126 2.449 . S
O147 C143 1.282 1_554 S
H148 C121 0.931 . S
H149 C123 0.929 . S
H150 C124 0.930 . S
H151 C125 0.931 . S
H152 C132 0.932 . S
H153 C133 0.930 . S
H154 C134 0.929 . S
H155 C136 0.930 . S
H156 C138 0.932 . S
H157 C139 0.929 . S
H158 C140 0.928 . S
H159 C142 0.932 . S
C160 C161 1.264 . S
C160 C165 1.479 1_554 S
C160 C170 1.465 . S
C161 C160 1.264 . S
C161 C163 1.339 1_554 S
C161 H188 0.931 . S
C162 C163 1.395 . S
C162 C164 1.320 . S
C163 C161 1.339 1_556 S
C163 C162 1.395 . S
C163 H189 0.929 . S
C164 C162 1.320 . S
C164 C165 1.405 . S
C164 H190 0.930 . S
C165 C160 1.479 1_556 S
C165 C164 1.405 . S
C165 H191 0.931 1_556 S
U166 O167 2.454 . S
U166 O168 2.458 . S
U166 C169 2.984 . S
U166 C170 2.847 . S
U166 C183 2.882 . S
U166 O184 2.441 . S
U166 O185 2.420 . S
U166 O186 2.455 . S
U166 O187 2.449 . S
O167 U166 2.454 . S
O167 C169 1.353 . S
O168 U166 2.458 . S
O168 C169 1.286 . S
C169 U166 2.984 . S
C169 O167 1.353 . S
C169 O168 1.286 . S
C169 C171 1.363 . S
C170 C160 1.465 . S
C170 U166 2.847 . S
C170 O184 1.249 . S
C170 O185 1.202 . S
C171 C169 1.363 . S
C171 C173 1.408 . S
C171 C176 1.342 . S
C172 C173 1.310 . S
C172 C175 1.461 . S
C172 H192 0.932 . S
C173 C171 1.408 . S
C173 C172 1.310 . S
C173 H193 0.930 . S
C174 C175 1.474 . S
C174 C176 1.285 . S
C174 H194 0.929 . S
C175 C172 1.461 . S
C175 C174 1.474 . S
C176 C171 1.342 . S
C176 C174 1.285 . S
C176 H195 0.930 . S
C177 C180 1.424 . S
C177 C182 1.245 . S
C177 C183 1.428 . S
C178 C181 1.260 . S
C178 C182 1.477 . S
C178 H196 0.932 . S
C179 C180 1.384 . S
C179 C181 1.479 . S
C179 H197 0.929 . S
C180 C177 1.424 . S
C180 C179 1.384 . S
C180 H198 0.928 . S
C181 C178 1.260 . S
C181 C179 1.479 . S
C182 C177 1.245 . S
C182 C178 1.477 . S
C182 H199 0.932 . S
C183 U166 2.882 . S
C183 C177 1.428 . S
C183 O186 1.301 . S
C183 O187 1.282 . S
O184 U166 2.441 . S
O184 C170 1.249 . S
O185 U166 2.420 . S
O185 C170 1.202 . S
O186 U166 2.455 . S
O186 C183 1.301 . S
O187 U166 2.449 . S
O187 C183 1.282 . S
H188 C161 0.931 . S
H189 C163 0.929 . S
H190 C164 0.930 . S
H191 C165 0.931 1_554 S
H192 C172 0.932 . S
H193 C173 0.930 . S
H194 C174 0.929 . S
H195 C176 0.930 . S
H196 C178 0.932 . S
H197 C179 0.929 . S
H198 C180 0.928 . S
H199 C182 0.932 . S
C200 C201 1.264 . S
C200 C205 1.479 . S
C200 C210 1.465 . S
C201 C200 1.264 . S
C201 C203 1.339 . S
C201 H228 0.931 . S
C202 C203 1.395 . S
C202 C204 1.320 . S
C203 C201 1.339 . S
C203 C202 1.395 . S
C203 H229 0.929 . S
C204 C202 1.320 . S
C204 C205 1.405 . S
C204 H230 0.930 1_554 S
C205 C200 1.479 . S
C205 C204 1.405 . S
C205 H231 0.931 . S
U206 O207 2.454 . S
U206 O208 2.458 . S
U206 C209 2.984 . S
U206 C210 2.847 . S
U206 C223 2.882 . S
U206 O224 2.441 . S
U206 O225 2.420 . S
U206 O226 2.455 . S
U206 O227 2.449 . S
O207 U206 2.454 . S
O207 C209 1.353 . S
O208 U206 2.458 . S
O208 C209 1.286 . S
C209 U206 2.984 . S
C209 O207 1.353 . S
C209 O208 1.286 . S
C209 C211 1.363 . S
C210 C200 1.465 . S
C210 U206 2.847 . S
C210 O224 1.249 . S
C210 O225 1.202 . S
C211 C209 1.363 . S
C211 C213 1.408 . S
C211 C216 1.342 . S
C212 C213 1.310 . S
C212 C215 1.461 . S
C212 H232 0.932 . S
C213 C211 1.408 . S
C213 C212 1.310 . S
C213 H233 0.930 . S
C214 C215 1.474 . S
C214 C216 1.285 . S
C214 H234 0.929 . S
C215 C212 1.461 . S
C215 C214 1.474 . S
C216 C211 1.342 . S
C216 C214 1.285 . S
C216 H235 0.930 . S
C217 C220 1.424 . S
C217 C222 1.245 . S
C217 C223 1.428 . S
C218 C221 1.260 . S
C218 C222 1.477 . S
C218 H236 0.932 . S
C219 C220 1.384 . S
C219 C221 1.479 . S
C219 H237 0.929 . S
C220 C217 1.424 . S
C220 C219 1.384 . S
C220 H238 0.928 . S
C221 C218 1.260 . S
C221 C219 1.479 . S
C222 C217 1.245 . S
C222 C218 1.477 . S
C222 H239 0.932 . S
C223 U206 2.882 . S
C223 C217 1.428 . S
C223 O226 1.301 . S
C223 O227 1.282 . S
O224 U206 2.441 . S
O224 C210 1.249 . S
O225 U206 2.420 . S
O225 C210 1.202 . S
O226 U206 2.455 . S
O226 C223 1.301 . S
O227 U206 2.449 . S
O227 C223 1.282 . S
H228 C201 0.931 . S
H229 C203 0.929 . S
H230 C204 0.930 1_556 S
H231 C205 0.931 . S
H232 C212 0.932 . S
H233 C213 0.930 . S
H234 C214 0.929 . S
H235 C216 0.930 . S
H236 C218 0.932 . S
H237 C219 0.929 . S
H238 C220 0.928 . S
H239 C222 0.932 . S
C240 C241 1.264 . S
C240 C245 1.479 . S
C240 C250 1.465 . S
C241 C240 1.264 . S
C241 C243 1.339 . S
C241 H268 0.931 . S
C242 C243 1.395 1_556 S
C242 C244 1.320 . S
C243 C241 1.339 . S
C243 C242 1.395 1_554 S
C243 H269 0.929 1_554 S
C244 C242 1.320 . S
C244 C245 1.405 1_556 S
C244 H270 0.924 1_545 S
C245 C240 1.479 . S
C245 C244 1.405 1_554 S
C245 H271 0.931 . S
U246 O247 2.454 . S
U246 O248 2.458 . S
U246 C249 2.984 . S
U246 C250 2.847 . S
U246 C263 2.882 . S
U246 O264 2.441 . S
U246 O265 2.420 . S
U246 O266 2.455 . S
U246 O267 2.449 . S
O247 U246 2.454 . S
O247 C249 1.353 . S
O248 U246 2.458 . S
O248 C249 1.286 . S
C249 U246 2.984 . S
C249 O247 1.353 . S
C249 O248 1.286 . S
C249 C251 1.363 . S
C250 C240 1.465 . S
C250 U246 2.847 . S
C250 O264 1.249 . S
C250 O265 1.202 . S
C251 C249 1.363 . S
C251 C253 1.408 . S
C251 C256 1.342 . S
C252 C253 1.310 . S
C252 C255 1.461 1_545 S
C252 H272 0.932 . S
C253 C251 1.408 . S
C253 C252 1.310 . S
C253 H273 0.930 . S
C254 C255 1.473 . S
C254 C256 1.285 1_565 S
C254 H274 0.932 . S
C255 C252 1.461 1_565 S
C255 C254 1.473 . S
C256 C251 1.342 . S
C256 C254 1.285 1_545 S
C256 H275 0.933 . S
C257 C260 1.424 . S
C257 C262 1.245 . S
C257 C263 1.428 . S
C258 C261 1.260 . S
C258 C262 1.477 . S
C258 H276 0.932 . S
C259 C260 1.384 . S
C259 C261 1.479 . S
C259 H277 0.929 . S
C260 C257 1.424 . S
C260 C259 1.384 . S
C260 H278 0.928 . S
C261 C258 1.260 . S
C261 C259 1.479 . S
C262 C257 1.245 . S
C262 C258 1.477 . S
C262 H279 0.932 . S
C263 U246 2.882 . S
C263 C257 1.428 . S
C263 O266 1.301 . S
C263 O267 1.282 . S
O264 U246 2.441 . S
O264 C250 1.249 . S
O265 U246 2.420 . S
O265 C250 1.202 . S
O266 U246 2.455 . S
O266 C263 1.301 . S
O267 U246 2.449 . S
O267 C263 1.282 . S
H268 C241 0.931 . S
H269 C243 0.929 1_556 S
H270 C244 0.924 1_565 S
H271 C245 0.931 . S
H272 C252 0.932 . S
H273 C253 0.930 . S
H274 C254 0.932 . S
H275 C256 0.933 . S
H276 C258 0.932 . S
H277 C259 0.929 . S
H278 C260 0.928 . S
H279 C262 0.932 . S
C280 C281 1.264 . S
C280 C285 1.479 1_554 S
C280 C290 1.465 . S
C281 C280 1.264 . S
C281 C283 1.339 1_554 S
C281 H308 0.931 . S
C282 C283 1.395 . S
C282 C284 1.320 . S
C283 C281 1.339 1_556 S
C283 C282 1.395 . S
C283 H309 0.929 . S
C284 C282 1.320 . S
C284 C285 1.405 . S
C284 H310 0.930 . S
C285 C280 1.479 1_556 S
C285 C284 1.405 . S
C285 H311 0.931 1_556 S
U286 O287 2.454 . S
U286 O288 2.458 . S
U286 C289 2.984 . S
U286 C290 2.847 . S
U286 C303 2.882 . S
U286 O304 2.441 . S
U286 O305 2.420 . S
U286 O306 2.455 . S
U286 O307 2.449 . S
O287 U286 2.454 . S
O287 C289 1.353 . S
O288 U286 2.458 . S
O288 C289 1.286 . S
C289 U286 2.984 . S
C289 O287 1.353 . S
C289 O288 1.286 . S
C289 C291 1.363 . S
C290 C280 1.465 . S
C290 U286 2.847 . S
C290 O304 1.249 . S
C290 O305 1.202 . S
C291 C289 1.363 . S
C291 C293 1.408 . S
C291 C296 1.342 . S
C292 C293 1.310 . S
C292 C295 1.461 . S
C292 H312 0.932 . S
C293 C291 1.408 . S
C293 C292 1.310 . S
C293 H313 0.930 . S
C294 C295 1.474 . S
C294 C296 1.285 . S
C294 H314 0.929 . S
C295 C292 1.461 . S
C295 C294 1.474 . S
C296 C291 1.342 . S
C296 C294 1.285 . S
C296 H315 0.930 . S
C297 C300 1.424 . S
C297 C302 1.245 . S
C297 C303 1.428 . S
C298 C301 1.260 . S
C298 C302 1.477 . S
C298 H316 0.932 . S
C299 C300 1.384 . S
C299 C301 1.479 . S
C299 H317 0.929 . S
C300 C297 1.424 . S
C300 C299 1.384 . S
C300 H318 0.928 . S
C301 C298 1.260 . S
C301 C299 1.479 . S
C302 C297 1.245 . S
C302 C298 1.477 . S
C302 H319 0.932 . S
C303 U286 2.882 . S
C303 C297 1.428 . S
C303 O306 1.301 . S
C303 O307 1.282 . S
O304 U286 2.441 . S
O304 C290 1.249 . S
O305 U286 2.420 . S
O305 C290 1.202 . S
O306 U286 2.455 . S
O306 C303 1.301 . S
O307 U286 2.449 . S
O307 C303 1.282 . S
H308 C281 0.931 . S
H309 C283 0.929 . S
H310 C284 0.930 . S
H311 C285 0.931 1_554 S
H312 C292 0.932 . S
H313 C293 0.930 . S
H314 C294 0.929 . S
H315 C296 0.930 . S
H316 C298 0.932 . S
H317 C299 0.929 . S
H318 C300 0.928 . S
H319 C302 0.932 . S
O320 Zn321 1.953 . S
O320 C336 1.232 . S
Zn321 O320 1.953 . S
Zn321 O322 1.950 . S
Zn321 O328 1.919 1_565 S
Zn321 O333 1.924 . S
O322 Zn321 1.950 . S
O322 Zn323 1.901 1_565 S
O322 Zn324 1.953 . S
O322 Zn325 1.963 . S
Zn323 O322 1.901 1_545 S
Zn323 O326 1.933 1_455 S
Zn323 O329 1.941 . S
Zn323 O330 1.965 . S
Zn324 O322 1.953 . S
Zn324 O331 1.938 1_565 S
Zn324 O332 1.906 . S
Zn324 O342 1.953 . S
Zn325 O322 1.963 . S
Zn325 O327 1.932 1_455 S
Zn325 O334 1.977 1_455 S
Zn325 O335 1.910 . S
O326 Zn323 1.933 1_655 S
O326 C337 1.226 . S
O327 Zn325 1.932 1_655 S
O327 C337 1.307 1_565 S
O328 Zn321 1.919 1_545 S
O328 C339 1.253 . S
O329 Zn323 1.941 . S
O329 C339 1.283 . S
O330 Zn323 1.965 . S
O330 C338 1.303 . S
O331 Zn324 1.938 1_545 S
O331 C338 1.247 . S
O332 Zn324 1.906 . S
O332 C340 1.304 . S
O333 Zn321 1.924 . S
O333 C341 1.311 . S
O334 Zn325 1.977 1_655 S
O334 C340 1.272 1_655 S
O335 Zn325 1.910 . S
O335 C341 1.231 . S
C336 O320 1.232 . S
C336 O342 1.298 . S
C337 O326 1.226 . S
C337 O327 1.307 1_545 S
C338 O330 1.303 . S
C338 O331 1.247 . S
C339 O328 1.253 . S
C339 O329 1.283 . S
C340 O332 1.304 . S
C340 O334 1.272 1_455 S
C341 O333 1.311 . S
C341 O335 1.231 . S
O342 Zn324 1.953 . S
O342 C336 1.298 . S
O343 Zn344 1.953 . S
O343 C359 1.225 . S
Zn344 O343 1.953 . S
Zn344 O345 1.949 . S
Zn344 O351 1.919 . S
Zn344 O356 1.924 . S
O345 Zn344 1.949 . S
O345 Zn346 1.923 1_545 S
O345 Zn347 1.950 . S
O345 Zn348 1.945 1_545 S
Zn346 O345 1.923 1_565 S
Zn346 O349 1.933 . S
Zn346 O352 1.941 . S
Zn346 O353 1.965 . S
Zn347 O345 1.950 . S
Zn347 O354 1.938 . S
Zn347 O355 1.893 1_545 S
Zn347 O365 1.953 . S
Zn348 O345 1.945 1_565 S
Zn348 O350 1.932 . S
Zn348 O357 1.977 . S
Zn348 O358 1.910 1_565 S
O349 Zn346 1.933 . S
O349 C360 1.226 . S
O350 Zn348 1.932 . S
O350 C360 1.307 . S
O351 Zn344 1.919 . S
O351 C362 1.253 . S
O352 Zn346 1.941 . S
O352 C362 1.283 1_565 S
O353 Zn346 1.965 . S
O353 C361 1.303 . S
O354 Zn347 1.938 . S
O354 C361 1.247 1_545 S
O355 Zn347 1.893 1_565 S
O355 C363 1.323 . S
O356 Zn344 1.924 . S
O356 C364 1.311 . S
O357 Zn348 1.977 . S
O357 C363 1.272 . S
O358 Zn348 1.910 1_545 S
O358 C364 1.231 . S
C359 O343 1.225 . S
C359 O365 1.298 . S
C360 O349 1.226 . S
C360 O350 1.307 . S
C361 O353 1.303 . S
C361 O354 1.247 1_565 S
C362 O351 1.253 . S
C362 O352 1.283 1_545 S
C363 O355 1.323 . S
C363 O357 1.272 . S
C364 O356 1.311 . S
C364 O358 1.231 . S
O365 Zn347 1.953 . S
O365 C359 1.298 . S
O366 Zn367 1.953 . S
O366 C382 1.225 . S
Zn367 O366 1.953 . S
Zn367 O368 1.949 . S
Zn367 O374 1.919 . S
Zn367 O379 1.924 . S
O368 Zn367 1.949 . S
O368 Zn369 1.923 . S
O368 Zn370 1.950 . S
O368 Zn371 1.945 . S
Zn369 O368 1.923 . S
Zn369 O372 1.933 . S
Zn369 O375 1.941 . S
Zn369 O376 1.965 . S
Zn370 O368 1.950 . S
Zn370 O377 1.938 . S
Zn370 O378 1.906 . S
Zn370 O388 1.953 . S
Zn371 O368 1.945 . S
Zn371 O373 1.932 . S
Zn371 O380 1.977 . S
Zn371 O381 1.910 . S
O372 Zn369 1.933 . S
O372 C383 1.226 . S
O373 Zn371 1.932 . S
O373 C383 1.307 . S
O374 Zn367 1.919 . S
O374 C385 1.253 . S
O375 Zn369 1.941 . S
O375 C385 1.283 . S
O376 Zn369 1.965 . S
O376 C384 1.303 . S
O377 Zn370 1.938 . S
O377 C384 1.247 . S
O378 Zn370 1.906 . S
O378 C386 1.304 . S
O379 Zn367 1.924 . S
O379 C387 1.311 . S
O380 Zn371 1.977 . S
O380 C386 1.272 . S
O381 Zn371 1.910 . S
O381 C387 1.231 . S
C382 O366 1.225 . S
C382 O388 1.298 . S
C383 O372 1.226 . S
C383 O373 1.307 . S
C384 O376 1.303 . S
C384 O377 1.247 . S
C385 O374 1.253 . S
C385 O375 1.283 . S
C386 O378 1.304 . S
C386 O380 1.272 . S
C387 O379 1.311 . S
C387 O381 1.231 . S
O388 Zn370 1.953 . S
O388 C382 1.298 . S
O389 Zn390 1.953 1_655 S
O389 C405 1.225 . S
Zn390 O389 1.953 1_455 S
Zn390 O391 1.949 . S
Zn390 O397 1.919 . S
Zn390 O402 1.924 . S
O391 Zn390 1.949 . S
O391 Zn392 1.923 . S
O391 Zn393 1.950 1_455 S
O391 Zn394 1.945 . S
Zn392 O391 1.923 . S
Zn392 O395 1.933 . S
Zn392 O398 1.941 1_455 S
Zn392 O399 1.965 1_455 S
Zn393 O391 1.950 1_655 S
Zn393 O400 1.938 . S
Zn393 O401 1.906 1_655 S
Zn393 O411 1.953 . S
Zn394 O391 1.945 . S
Zn394 O396 1.932 . S
Zn394 O403 1.977 . S
Zn394 O404 1.910 . S
O395 Zn392 1.933 . S
O395 C406 1.226 . S
O396 Zn394 1.932 . S
O396 C406 1.307 . S
O397 Zn390 1.919 . S
O397 C408 1.253 . S
O398 Zn392 1.941 1_655 S
O398 C408 1.283 1_655 S
O399 Zn392 1.965 1_655 S
O399 C407 1.303 . S
O400 Zn393 1.938 . S
O400 C407 1.247 . S
O401 Zn393 1.906 1_455 S
O401 C409 1.304 . S
O402 Zn390 1.924 . S
O402 C410 1.311 . S
O403 Zn394 1.977 . S
O403 C409 1.272 . S
O404 Zn394 1.910 . S
O404 C410 1.231 . S
C405 O389 1.225 . S
C405 O411 1.298 . S
C406 O395 1.226 . S
C406 O396 1.307 . S
C407 O399 1.303 . S
C407 O400 1.247 . S
C408 O397 1.253 . S
C408 O398 1.283 1_455 S
C409 O401 1.304 . S
C409 O403 1.272 . S
C410 O402 1.311 . S
C410 O404 1.231 . S
O411 Zn393 1.953 . S
O411 C405 1.298 . S
C412 C413 1.363 1_545 S
C412 C418 1.379 . S
C412 N420 1.356 . S
C413 C412 1.363 1_565 S
C413 C419 1.363 . S
C414 C415 1.363 . S
C414 C419 1.379 . S
C414 N421 1.356 . S
C415 C414 1.363 . S
C415 C418 1.363 1_565 S
N416 C418 1.356 . S
N416 H428 0.984 . S
N416 H429 0.985 . S
N417 C419 1.356 . S
N417 H422 0.984 . S
N417 H423 0.985 . S
C418 C412 1.379 . S
C418 C415 1.363 1_545 S
C418 N416 1.356 . S
C419 C413 1.363 . S
C419 C414 1.379 . S
C419 N417 1.356 . S
N420 C412 1.356 . S
N420 H426 0.984 . S
N420 H427 0.984 . S
N421 C414 1.356 . S
N421 H424 0.984 . S
N421 H425 0.985 . S
H422 N417 0.984 . S
H423 N417 0.985 . S
H424 N421 0.984 . S
H425 N421 0.985 . S
H426 N420 0.984 . S
H427 N420 0.984 . S
H428 N416 0.984 . S
H429 N416 0.985 . S
C430 C431 1.363 . S
C430 C436 1.379 . S
C430 N438 1.356 . S
C431 C430 1.363 . S
C431 C437 1.363 . S
C432 C433 1.363 . S
C432 C437 1.379 . S
C432 N439 1.356 . S
C433 C432 1.363 . S
C433 C436 1.363 . S
N434 C436 1.356 . S
N434 H446 0.984 . S
N434 H447 0.985 . S
N435 C437 1.356 . S
N435 H440 0.984 . S
N435 H441 0.985 . S
C436 C430 1.379 . S
C436 C433 1.363 . S
C436 N434 1.356 . S
C437 C431 1.363 . S
C437 C432 1.379 . S
C437 N435 1.356 . S
N438 C430 1.356 . S
N438 H444 0.984 . S
N438 H445 0.984 . S
N439 C432 1.356 . S
N439 H442 0.984 . S
N439 H443 0.985 . S
H440 N435 0.984 . S
H441 N435 0.985 . S
H442 N439 0.984 . S
H443 N439 0.985 . S
H444 N438 0.984 . S
H445 N438 0.984 . S
H446 N434 0.984 . S
H447 N434 0.985 . S
C448 C449 1.363 . S
C448 C454 1.379 . S
C448 N456 1.356 . S
C449 C448 1.363 . S
C449 C455 1.363 . S
C450 C451 1.363 . S
C450 C455 1.379 . S
C450 N457 1.356 . S
C451 C450 1.363 . S
C451 C454 1.363 . S
N452 C454 1.356 . S
N452 H464 0.984 . S
N452 H465 0.985 . S
N453 C455 1.356 . S
N453 H458 0.984 . S
N453 H459 0.985 . S
C454 C448 1.379 . S
C454 C451 1.363 . S
C454 N452 1.356 . S
C455 C449 1.363 . S
C455 C450 1.379 . S
C455 N453 1.356 . S
N456 C448 1.356 . S
N456 H462 0.984 . S
N456 H463 0.984 . S
N457 C450 1.356 . S
N457 H460 0.984 . S
N457 H461 0.985 . S
H458 N453 0.984 . S
H459 N453 0.985 . S
H460 N457 0.984 . S
H461 N457 0.985 . S
H462 N456 0.984 . S
H463 N456 0.984 . S
H464 N452 0.984 . S
H465 N452 0.985 . S
C466 C467 1.363 . S
C466 C472 1.379 . S
C466 N474 1.356 . S
C467 C466 1.363 . S
C467 C473 1.363 . S
C468 C469 1.363 . S
C468 C473 1.379 . S
C468 N475 1.356 . S
C469 C468 1.363 . S
C469 C472 1.363 . S
N470 C472 1.356 . S
N470 H482 0.989 . S
N470 H483 0.985 . S
N471 C473 1.356 . S
N471 H476 0.984 . S
N471 H477 0.985 . S
C472 C466 1.379 . S
C472 C469 1.363 . S
C472 N470 1.356 . S
C473 C467 1.363 . S
C473 C468 1.379 . S
C473 N471 1.356 . S
N474 C466 1.356 . S
N474 H480 0.984 . S
N474 H481 0.984 . S
N475 C468 1.356 . S
N475 H478 0.984 . S
N475 H479 0.985 . S
H476 N471 0.984 . S
H477 N471 0.985 . S
H478 N475 0.984 . S
H479 N475 0.985 . S
H480 N474 0.984 . S
H481 N474 0.984 . S
H482 N470 0.989 . S
H483 N470 0.985 . S
C484 C485 1.363 . S
C484 C490 1.379 . S
C484 N492 1.356 . S
C485 C484 1.363 . S
C485 C491 1.363 1_545 S
C486 C487 1.363 1_565 S
C486 C491 1.379 . S
C486 N493 1.356 . S
C487 C486 1.363 1_545 S
C487 C490 1.363 . S
N488 C490 1.356 . S
N488 H500 0.984 . S
N488 H501 0.985 . S
N489 C491 1.356 . S
N489 H494 0.984 1_556 S
N489 H495 0.985 . S
C490 C484 1.379 . S
C490 C487 1.363 . S
C490 N488 1.356 . S
C491 C485 1.363 1_565 S
C491 C486 1.379 . S
C491 N489 1.356 . S
N492 C484 1.356 . S
N492 H498 0.984 . S
N492 H499 0.984 . S
N493 C486 1.356 . S
N493 H496 0.984 . S
N493 H497 0.985 . S
H494 N489 0.984 1_554 S
H495 N489 0.985 . S
H496 N493 0.984 . S
H497 N493 0.985 . S
H498 N492 0.984 . S
H499 N492 0.984 . S
H500 N488 0.984 . S
H501 N488 0.985 . S
C502 C503 1.363 . S
C502 C508 1.379 . S
C502 N510 1.356 . S
C503 C502 1.363 . S
C503 C509 1.363 . S
C504 C505 1.363 . S
C504 C509 1.379 . S
C504 N511 1.356 . S
C505 C504 1.363 . S
C505 C508 1.363 . S
N506 C508 1.356 . S
N506 H518 0.984 . S
N506 H519 0.985 . S
N507 C509 1.356 . S
N507 H512 0.984 . S
N507 H513 0.985 . S
C508 C502 1.379 . S
C508 C505 1.363 . S
C508 N506 1.356 . S
C509 C503 1.363 . S
C509 C504 1.379 . S
C509 N507 1.356 . S
N510 C502 1.356 . S
N510 H516 0.984 . S
N510 H517 0.984 1_556 S
N511 C504 1.356 . S
N511 H514 0.984 . S
N511 H515 0.985 . S
H512 N507 0.984 . S
H513 N507 0.985 . S
H514 N511 0.984 . S
H515 N511 0.985 . S
H516 N510 0.984 . S
H517 N510 0.984 1_554 S
H518 N506 0.984 . S
H519 N506 0.985 . S
C520 C521 1.363 . S
C520 C526 1.379 . S
C520 N528 1.356 . S
C521 C520 1.363 . S
C521 C527 1.363 . S
C522 C523 1.363 . S
C522 C527 1.379 . S
C522 N529 1.356 . S
C523 C522 1.363 . S
C523 C526 1.363 . S
N524 C526 1.356 . S
N524 H536 0.984 . S
N524 H537 0.985 . S
N525 C527 1.356 . S
N525 H530 0.984 . S
N525 H531 0.985 . S
C526 C520 1.379 . S
C526 C523 1.363 . S
C526 N524 1.356 . S
C527 C521 1.363 . S
C527 C522 1.379 . S
C527 N525 1.356 . S
N528 C520 1.356 . S
N528 H534 0.984 . S
N528 H535 0.984 . S
N529 C522 1.356 . S
N529 H532 0.984 . S
N529 H533 0.985 . S
H530 N525 0.984 . S
H531 N525 0.985 . S
H532 N529 0.984 . S
H533 N529 0.985 . S
H534 N528 0.984 . S
H535 N528 0.984 . S
H536 N524 0.984 . S
H537 N524 0.985 . S
C538 C539 1.363 . S
C538 C544 1.379 . S
C538 N546 1.356 . S
C539 C538 1.363 . S
C539 C545 1.363 1_655 S
C540 C541 1.363 . S
C540 C545 1.379 . S
C540 N547 1.356 . S
C541 C540 1.363 . S
C541 C544 1.363 1_455 S
N542 C544 1.356 . S
N542 H554 0.984 . S
N542 H555 0.985 . S
N543 C545 1.344 1_554 S
N543 H548 0.994 . S
N543 H549 0.988 . S
C544 C538 1.379 . S
C544 C541 1.363 1_655 S
C544 N542 1.356 . S
C545 C539 1.363 1_455 S
C545 C540 1.379 . S
C545 N543 1.344 1_556 S
N546 C538 1.356 . S
N546 H552 0.984 . S
N546 H553 0.984 . S
N547 C540 1.356 . S
N547 H550 0.984 . S
N547 H551 0.985 . S
H548 N543 0.994 . S
H549 N543 0.988 . S
H550 N547 0.984 . S
H551 N547 0.985 . S
H552 N546 0.984 . S
H553 N546 0.984 . S
H554 N542 0.984 . S
H555 N542 0.985 . S
C556 C557 1.363 . S
C556 C562 1.379 . S
C556 N564 1.356 . S
C557 C556 1.363 . S
C557 C563 1.363 . S
C558 C559 1.363 . S
C558 C563 1.379 . S
C558 N565 1.356 . S
C559 C558 1.363 . S
C559 C562 1.363 . S
N560 C562 1.356 . S
N560 H572 0.984 . S
N560 H573 0.985 . S
N561 C563 1.356 . S
N561 H566 0.984 . S
N561 H567 0.985 . S
C562 C556 1.379 . S
C562 C559 1.363 . S
C562 N560 1.356 . S
C563 C557 1.363 . S
C563 C558 1.379 . S
C563 N561 1.356 . S
N564 C556 1.356 . S
N564 H570 0.984 . S
N564 H571 0.984 . S
N565 C558 1.356 . S
N565 H568 0.984 . S
N565 H569 0.985 . S
H566 N561 0.984 . S
H567 N561 0.985 . S
H568 N565 0.984 . S
H569 N565 0.985 . S
H570 N564 0.984 . S
H571 N564 0.984 . S
H572 N560 0.984 . S
H573 N560 0.985 . S
C574 C575 1.331 1_565 S
C574 C580 1.379 . S
C574 N582 1.356 . S
C575 C574 1.331 1_545 S
C575 C581 1.390 . S
C576 C577 1.363 1_545 S
C576 C581 1.379 . S
C576 N583 1.356 . S
C577 C576 1.363 1_565 S
C577 C580 1.363 . S
N578 C580 1.356 . S
N578 H590 0.984 . S
N578 H591 0.985 . S
N579 C581 1.356 . S
N579 H584 0.984 . S
N579 H585 0.985 . S
C580 C574 1.379 . S
C580 C577 1.363 . S
C580 N578 1.356 . S
C581 C575 1.390 . S
C581 C576 1.379 . S
C581 N579 1.356 . S
N582 C574 1.356 . S
N582 H588 0.984 . S
N582 H589 0.984 . S
N583 C576 1.356 . S
N583 H586 0.984 . S
N583 H587 0.985 . S
H584 N579 0.984 . S
H585 N579 0.985 . S
H586 N583 0.984 . S
H587 N583 0.985 . S
H588 N582 0.984 . S
H589 N582 0.984 . S
H590 N578 0.984 . S
H591 N578 0.985 . S
C592 C593 1.363 . S
C592 C598 1.379 . S
C592 N600 1.356 . S
C593 C592 1.363 . S
C593 C599 1.363 . S
C594 C595 1.363 . S
C594 C599 1.379 . S
C594 N601 1.356 . S
C595 C594 1.363 . S
C595 C598 1.363 . S
N596 C598 1.356 . S
N596 H608 0.984 . S
N596 H609 0.985 . S
N597 C599 1.356 . S
N597 H602 0.984 . S
N597 H603 0.985 . S
C598 C592 1.379 . S
C598 C595 1.363 . S
C598 N596 1.356 . S
C599 C593 1.363 . S
C599 C594 1.379 . S
C599 N597 1.356 . S
N600 C592 1.356 . S
N600 H606 0.984 . S
N600 H607 0.984 . S
N601 C594 1.356 . S
N601 H604 0.984 . S
N601 H605 0.985 . S
H602 N597 0.984 . S
H603 N597 0.985 . S
H604 N601 0.984 . S
H605 N601 0.985 . S
H606 N600 0.984 . S
H607 N600 0.984 . S
H608 N596 0.984 . S
H609 N596 0.985 . S
C610 C611 1.363 . S
C610 C616 1.379 . S
C610 N618 1.356 . S
C611 C610 1.363 . S
C611 C617 1.363 . S
C612 C613 1.363 . S
C612 C617 1.379 . S
C612 N619 1.356 . S
C613 C612 1.363 . S
C613 C616 1.363 . S
N614 C616 1.356 . S
N614 H626 0.984 . S
N614 H627 0.985 . S
N615 C617 1.356 . S
N615 H620 0.984 . S
N615 H621 0.985 . S
C616 C610 1.379 . S
C616 C613 1.363 . S
C616 N614 1.356 . S
C617 C611 1.363 . S
C617 C612 1.379 . S
C617 N615 1.356 . S
N618 C610 1.356 . S
N618 H624 0.984 . S
N618 H625 0.984 . S
N619 C612 1.356 . S
N619 H622 0.984 . S
N619 H623 0.985 . S
H620 N615 0.984 . S
H621 N615 0.985 . S
H622 N619 0.984 . S
H623 N619 0.985 . S
H624 N618 0.984 . S
H625 N618 0.984 . S
H626 N614 0.984 . S
H627 N614 0.985 . S
C628 C629 1.363 1_455 S
C628 C634 1.379 . S
C628 N636 1.356 1_455 S
C629 C628 1.363 1_655 S
C629 C635 1.363 1_655 S
C630 C631 1.363 . S
C630 C635 1.379 . S
C630 N637 1.356 . S
C631 C630 1.363 . S
C631 C634 1.363 . S
N632 C634 1.356 . S
N632 H644 0.984 . S
N632 H645 0.985 . S
N633 C635 1.356 . S
N633 H638 0.984 1_455 S
N633 H639 0.985 . S
C634 C628 1.379 . S
C634 C631 1.363 . S
C634 N632 1.356 . S
C635 C629 1.363 1_455 S
C635 C630 1.379 . S
C635 N633 1.356 . S
N636 C628 1.356 1_655 S
N636 H642 0.984 . S
N636 H643 0.984 . S
N637 C630 1.356 . S
N637 H640 0.984 . S
N637 H641 0.985 . S
H638 N633 0.984 1_655 S
H639 N633 0.985 . S
H640 N637 0.984 . S
H641 N637 0.985 . S
H642 N636 0.984 . S
H643 N636 0.984 . S
H644 N632 0.984 . S
H645 N632 0.985 . S
C646 C647 1.398 . S
C646 C652 1.379 . S
C646 N654 1.356 . S
C647 C646 1.398 . S
C647 C653 1.357 1_545 S
C648 C649 1.363 . S
C648 C653 1.379 1_545 S
C648 N655 1.356 . S
C649 C648 1.363 . S
C649 C652 1.363 . S
N650 C652 1.356 . S
N650 H662 0.984 . S
N650 H663 0.985 . S
N651 C653 1.356 . S
N651 H656 0.984 . S
N651 H657 0.985 . S
C652 C646 1.379 . S
C652 C649 1.363 . S
C652 N650 1.356 . S
C653 C647 1.357 1_565 S
C653 C648 1.379 1_565 S
C653 N651 1.356 . S
N654 C646 1.356 . S
N654 H660 0.984 . S
N654 H661 0.984 . S
N655 C648 1.356 . S
N655 H658 0.984 . S
N655 H659 0.991 . S
H656 N651 0.984 . S
H657 N651 0.985 . S
H658 N655 0.984 . S
H659 N655 0.991 . S
H660 N654 0.984 . S
H661 N654 0.984 . S
H662 N650 0.984 . S
H663 N650 0.985 . S
C664 C665 1.363 . S
C664 C670 1.379 . S
C664 N672 1.356 . S
C665 C664 1.363 . S
C665 C671 1.363 . S
C666 C667 1.363 . S
C666 C671 1.379 . S
C666 N673 1.356 . S
C667 C666 1.363 . S
C667 C670 1.363 . S
N668 C670 1.356 . S
N668 H680 0.984 . S
N668 H681 0.985 . S
N669 C671 1.356 . S
N669 H674 0.984 . S
N669 H675 0.985 . S
C670 C664 1.379 . S
C670 C667 1.363 . S
C670 N668 1.356 . S
C671 C665 1.363 . S
C671 C666 1.379 . S
C671 N669 1.356 . S
N672 C664 1.356 . S
N672 H678 0.984 . S
N672 H679 0.984 . S
N673 C666 1.356 . S
N673 H676 0.984 . S
N673 H677 0.985 . S
H674 N669 0.984 . S
H675 N669 0.985 . S
H676 N673 0.984 . S
H677 N673 0.985 . S
H678 N672 0.984 . S
H679 N672 0.984 . S
H680 N668 0.984 . S
H681 N668 0.985 . S
C682 C683 1.363 . S
C682 C688 1.379 . S
C682 N690 1.356 . S
C683 C682 1.363 . S
C683 C689 1.363 . S
C684 C685 1.363 . S
C684 C689 1.379 . S
C684 N691 1.356 . S
C685 C684 1.363 . S
C685 C688 1.363 . S
N686 C688 1.356 . S
N686 H698 0.984 . S
N686 H699 0.985 . S
N687 C689 1.356 . S
N687 H692 0.984 . S
N687 H693 0.985 . S
C688 C682 1.379 . S
C688 C685 1.363 . S
C688 N686 1.356 . S
C689 C683 1.363 . S
C689 C684 1.379 . S
C689 N687 1.356 . S
N690 C682 1.356 . S
N690 H696 0.984 . S
N690 H697 0.984 . S
N691 C684 1.356 . S
N691 H694 0.984 . S
N691 H695 0.985 . S
H692 N687 0.984 . S
H693 N687 0.985 . S
H694 N691 0.984 . S
H695 N691 0.985 . S
H696 N690 0.984 . S
H697 N690 0.984 . S
H698 N686 0.984 . S
H699 N686 0.985 . S
C700 C701 1.363 . S
C700 C706 1.379 . S
C700 N708 1.356 . S
C701 C700 1.363 . S
C701 C707 1.363 . S
C702 C703 1.363 . S
C702 C707 1.379 . S
C702 N709 1.356 . S
C703 C702 1.363 . S
C703 C706 1.363 . S
N704 C706 1.356 . S
N704 H716 0.984 . S
N704 H717 0.985 . S
N705 C707 1.356 1_554 S
N705 H710 0.984 . S
N705 H711 0.985 . S
C706 C700 1.379 . S
C706 C703 1.363 . S
C706 N704 1.356 . S
C707 C701 1.363 . S
C707 C702 1.379 . S
C707 N705 1.356 1_556 S
N708 C700 1.356 . S
N708 H714 0.984 . S
N708 H715 0.984 . S
N709 C702 1.356 . S
N709 H712 0.984 . S
N709 H713 0.985 1_556 S
H710 N705 0.984 . S
H711 N705 0.985 . S
H712 N709 0.984 . S
H713 N709 0.985 1_554 S
H714 N708 0.984 . S
H715 N708 0.984 . S
H716 N704 0.984 . S
H717 N704 0.985 . S
C718 C719 1.365 1_565 S
C718 C724 1.379 . S
C718 N726 1.356 . S
C719 C718 1.365 1_545 S
C719 C725 1.361 . S
C720 C721 1.353 1_545 S
C720 C725 1.379 . S
C720 N727 1.356 . S
C721 C720 1.353 1_565 S
C721 C724 1.372 . S
N722 C724 1.356 . S
N722 H734 0.984 . S
N722 H735 0.985 . S
N723 C725 1.356 . S
N723 H728 0.984 . S
N723 H729 0.985 . S
C724 C718 1.379 . S
C724 C721 1.372 . S
C724 N722 1.356 . S
C725 C719 1.361 . S
C725 C720 1.379 . S
C725 N723 1.356 . S
N726 C718 1.356 . S
N726 H732 0.984 . S
N726 H733 0.984 . S
N727 C720 1.356 . S
N727 H730 0.984 . S
N727 H731 0.985 . S
H728 N723 0.984 . S
H729 N723 0.985 . S
H730 N727 0.984 . S
H731 N727 0.985 . S
H732 N726 0.984 . S
H733 N726 0.984 . S
H734 N722 0.984 . S
H735 N722 0.985 . S
C736 C737 1.363 . S
C736 C742 1.379 . S
C736 N744 1.356 . S
C737 C736 1.363 . S
C737 C743 1.363 . S
C738 C739 1.363 . S
C738 C743 1.379 . S
C738 N745 1.356 . S
C739 C738 1.363 . S
C739 C742 1.363 . S
N740 C742 1.356 . S
N740 H752 0.984 . S
N740 H753 0.985 . S
N741 C743 1.356 . S
N741 H746 0.984 . S
N741 H747 0.985 1_556 S
C742 C736 1.379 . S
C742 C739 1.363 . S
C742 N740 1.356 . S
C743 C737 1.363 . S
C743 C738 1.379 . S
C743 N741 1.356 . S
N744 C736 1.356 . S
N744 H750 0.984 . S
N744 H751 0.984 . S
N745 C738 1.356 . S
N745 H748 0.984 . S
N745 H749 0.985 . S
H746 N741 0.984 . S
H747 N741 0.985 1_554 S
H748 N745 0.984 . S
H749 N745 0.985 . S
H750 N744 0.984 . S
H751 N744 0.984 . S
H752 N740 0.984 . S
H753 N740 0.985 . S
C754 C755 1.363 . S
C754 C760 1.379 . S
C754 N762 1.356 . S
C755 C754 1.363 . S
C755 C761 1.363 . S
C756 C757 1.363 . S
C756 C761 1.379 . S
C756 N763 1.356 . S
C757 C756 1.363 . S
C757 C760 1.363 . S
N758 C760 1.356 . S
N758 H770 0.984 . S
N758 H771 0.985 . S
N759 C761 1.356 . S
N759 H764 0.984 . S
N759 H765 0.985 . S
C760 C754 1.379 . S
C760 C757 1.363 . S
C760 N758 1.356 . S
C761 C755 1.363 . S
C761 C756 1.379 . S
C761 N759 1.356 . S
N762 C754 1.356 . S
N762 H768 0.984 . S
N762 H769 0.984 . S
N763 C756 1.356 . S
N763 H766 0.984 . S
N763 H767 0.985 . S
H764 N759 0.984 . S
H765 N759 0.985 . S
H766 N763 0.984 . S
H767 N763 0.985 . S
H768 N762 0.984 . S
H769 N762 0.984 . S
H770 N758 0.984 . S
H771 N758 0.985 . S
C772 C773 1.363 . S
C772 C778 1.379 . S
C772 N780 1.356 . S
C773 C772 1.363 . S
C773 C779 1.363 1_655 S
C774 C775 1.363 1_455 S
C774 C779 1.379 . S
C774 N781 1.356 . S
C775 C774 1.363 1_655 S
C775 C778 1.363 . S
N776 C778 1.356 . S
N776 H788 0.984 . S
N776 H789 0.985 . S
N777 C779 1.356 . S
N777 H782 0.984 . S
N777 H783 0.985 . S
C778 C772 1.379 . S
C778 C775 1.363 . S
C778 N776 1.356 . S
C779 C773 1.363 1_455 S
C779 C774 1.379 . S
C779 N777 1.356 . S
N780 C772 1.356 . S
N780 H786 0.984 . S
N780 H787 0.984 . S
N781 C774 1.356 . S
N781 H784 0.984 . S
N781 H785 0.985 . S
H782 N777 0.984 . S
H783 N777 0.985 . S
H784 N781 0.984 . S
H785 N781 0.985 . S
H786 N780 0.984 . S
H787 N780 0.984 . S
H788 N776 0.984 . S
H789 N776 0.985 . S
C790 C791 1.363 . S
C790 C796 1.379 . S
C790 N798 1.363 . S
C791 C790 1.363 . S
C791 C797 1.363 . S
C792 C793 1.363 . S
C792 C797 1.379 . S
C792 N799 1.356 . S
C793 C792 1.363 . S
C793 C796 1.363 . S
N794 C796 1.356 . S
N794 H806 0.984 . S
N794 H807 0.985 . S
N795 C797 1.356 . S
N795 H800 0.984 . S
N795 H801 0.985 . S
C796 C790 1.379 . S
C796 C793 1.363 . S
C796 N794 1.356 . S
C797 C791 1.363 . S
C797 C792 1.379 . S
C797 N795 1.356 . S
N798 C790 1.363 . S
N798 H804 0.982 1_565 S
N798 H805 0.981 1_565 S
N799 C792 1.356 . S
N799 H802 0.984 . S
N799 H803 0.985 . S
H800 N795 0.984 . S
H801 N795 0.985 . S
H802 N799 0.984 . S
H803 N799 0.985 . S
H804 N798 0.982 1_545 S
H805 N798 0.981 1_545 S
H806 N794 0.984 . S
H807 N794 0.985 . S
C808 C809 1.363 . S
C808 C814 1.379 . S
C808 N816 1.356 . S
C809 C808 1.363 . S
C809 C815 1.363 . S
C810 C811 1.363 . S
C810 C815 1.379 . S
C810 N817 1.356 . S
C811 C810 1.363 . S
C811 C814 1.363 . S
N812 C814 1.356 . S
N812 H824 0.984 . S
N812 H825 0.985 . S
N813 C815 1.356 . S
N813 H818 0.984 . S
N813 H819 0.985 . S
C814 C808 1.379 . S
C814 C811 1.363 . S
C814 N812 1.356 . S
C815 C809 1.363 . S
C815 C810 1.379 . S
C815 N813 1.356 . S
N816 C808 1.356 . S
N816 H822 0.984 . S
N816 H823 0.984 . S
N817 C810 1.356 . S
N817 H820 0.984 . S
N817 H821 0.985 . S
H818 N813 0.984 . S
H819 N813 0.985 . S
H820 N817 0.984 . S
H821 N817 0.985 . S
H822 N816 0.984 . S
H823 N816 0.984 . S
H824 N812 0.984 . S
H825 N812 0.985 . S
C826 C827 1.363 . S
C826 C832 1.379 . S
C826 N834 1.356 . S
C827 C826 1.363 . S
C827 C833 1.363 . S
C828 C829 1.363 . S
C828 C833 1.379 . S
C828 N835 1.356 . S
C829 C828 1.363 . S
C829 C832 1.363 . S
N830 C832 1.356 . S
N830 H842 0.984 . S
N830 H843 0.985 . S
N831 C833 1.356 . S
N831 H836 0.984 . S
N831 H837 0.985 . S
C832 C826 1.379 . S
C832 C829 1.363 . S
C832 N830 1.356 . S
C833 C827 1.363 . S
C833 C828 1.379 . S
C833 N831 1.356 . S
N834 C826 1.356 . S
N834 H840 0.984 . S
N834 H841 0.984 . S
N835 C828 1.356 . S
N835 H838 0.984 . S
N835 H839 0.985 . S
H836 N831 0.984 . S
H837 N831 0.985 . S
H838 N835 0.984 . S
H839 N835 0.985 . S
H840 N834 0.984 . S
H841 N834 0.984 . S
H842 N830 0.984 . S
H843 N830 0.985 . S
C413 C255 1.893 . S
C415 C336 1.898 . S
C433 C359 2.099 . S
C431 C295 2.084 . S
C451 C382 1.925 . S
C449 C175 1.900 . S
C469 C409 1.793 . S
C467 C215 1.911 . S
C487 C337 1.750 . S
C485 C95 1.727 1_545 S
C503 C135 1.815 . S
C505 C360 1.865 . S
C521 C15 1.665 . S
C523 C383 1.690 . S
C539 C55 1.893 1_556 S
C541 C408 1.932 . S
C559 C338 0.931 . S
C557 C221 0.858 . S
C577 C361 0.487 . S
C575 C261 0.666 . S
C595 C384 0.689 . S
C593 C301 0.712 . S
C611 C181 0.721 . S
C613 C410 0.739 . S
C629 C61 0.819 . S
C631 C341 0.811 . S
C649 C364 0.763 . S
C647 C101 0.775 . S
C667 C387 0.875 . S
C665 C141 0.879 . S
C683 C21 0.580 . S
C685 C407 0.398 . S
C701 C202 2.225 1_556 S
C703 C339 2.144 . S
C719 C242 2.126 . S
C721 C362 2.128 1_565 S
C739 C385 2.190 . S
C737 C282 2.215 . S
C757 C406 2.019 . S
C755 C162 1.872 . S
C773 C42 2.267 . S
C775 C340 2.209 1_655 S
C793 C363 2.024 . S
C791 C82 2.112 1_565 S
C811 C386 2.049 . S
C809 C122 2.084 . S
C827 C2 2.240 . S
C829 C405 2.308 . S
