# Generated by pormake.
# Topology ocu, (6,8)-cn, num edge types: 1
# Building blocks:
#     Node 0, Type 0, BuildingBlock: KUMBUR_clean_sbu_1, # of connection points: 6
#     Node 1, Type 0, BuildingBlock: KUMBUR_clean_sbu_1, # of connection points: 6
#     Node 2, Type 0, BuildingBlock: KUMBUR_clean_sbu_1, # of connection points: 6
#     Node 3, Type 0, BuildingBlock: KUMBUR_clean_sbu_1, # of connection points: 6
#     Node 4, Type 0, BuildingBlock: KUMBUR_clean_sbu_1, # of connection points: 6
#     Node 5, Type 0, BuildingBlock: KUMBUR_clean_sbu_1, # of connection points: 6
#     Node 6, Type 0, BuildingBlock: KUMBUR_clean_sbu_1, # of connection points: 6
#     Node 7, Type 0, BuildingBlock: KUMBUR_clean_sbu_1, # of connection points: 6
#     Node 8, Type 1, BuildingBlock: GIZVER_clean_sbu_0, # of connection points: 8
#     Node 9, Type 1, BuildingBlock: GIZVER_clean_sbu_0, # of connection points: 8
#     Node 10, Type 1, BuildingBlock: GIZVER_clean_sbu_0, # of connection points: 8
#     Node 11, Type 1, BuildingBlock: GIZVER_clean_sbu_0, # of connection points: 8
#     Node 12, Type 1, BuildingBlock: GIZVER_clean_sbu_0, # of connection points: 8
#     Node 13, Type 1, BuildingBlock: GIZVER_clean_sbu_0, # of connection points: 8
#     Edge 14, Type (0, 1), BuildingBlock: XIVTED_clean_linker_0, # of connection points: 2
#     Edge 15, Type (0, 1), BuildingBlock: XIVTED_clean_linker_0, # of connection points: 2
#     Edge 16, Type (0, 1), BuildingBlock: XIVTED_clean_linker_0, # of connection points: 2
#     Edge 17, Type (0, 1), BuildingBlock: XIVTED_clean_linker_0, # of connection points: 2
#     Edge 18, Type (0, 1), BuildingBlock: XIVTED_clean_linker_0, # of connection points: 2
#     Edge 19, Type (0, 1), BuildingBlock: XIVTED_clean_linker_0, # of connection points: 2
#     Edge 20, Type (0, 1), BuildingBlock: XIVTED_clean_linker_0, # of connection points: 2
#     Edge 21, Type (0, 1), BuildingBlock: XIVTED_clean_linker_0, # of connection points: 2
#     Edge 22, Type (0, 1), BuildingBlock: XIVTED_clean_linker_0, # of connection points: 2
#     Edge 23, Type (0, 1), BuildingBlock: XIVTED_clean_linker_0, # of connection points: 2
#     Edge 24, Type (0, 1), BuildingBlock: XIVTED_clean_linker_0, # of connection points: 2
#     Edge 25, Type (0, 1), BuildingBlock: XIVTED_clean_linker_0, # of connection points: 2
#     Edge 26, Type (0, 1), BuildingBlock: XIVTED_clean_linker_0, # of connection points: 2
#     Edge 27, Type (0, 1), BuildingBlock: XIVTED_clean_linker_0, # of connection points: 2
#     Edge 28, Type (0, 1), BuildingBlock: XIVTED_clean_linker_0, # of connection points: 2
#     Edge 29, Type (0, 1), BuildingBlock: XIVTED_clean_linker_0, # of connection points: 2
#     Edge 30, Type (0, 1), BuildingBlock: XIVTED_clean_linker_0, # of connection points: 2
#     Edge 31, Type (0, 1), BuildingBlock: XIVTED_clean_linker_0, # of connection points: 2
#     Edge 32, Type (0, 1), BuildingBlock: XIVTED_clean_linker_0, # of connection points: 2
#     Edge 33, Type (0, 1), BuildingBlock: XIVTED_clean_linker_0, # of connection points: 2
#     Edge 34, Type (0, 1), BuildingBlock: XIVTED_clean_linker_0, # of connection points: 2
#     Edge 35, Type (0, 1), BuildingBlock: XIVTED_clean_linker_0, # of connection points: 2
#     Edge 36, Type (0, 1), BuildingBlock: XIVTED_clean_linker_0, # of connection points: 2
#     Edge 37, Type (0, 1), BuildingBlock: XIVTED_clean_linker_0, # of connection points: 2
#     Edge 38, Type (0, 1), BuildingBlock: XIVTED_clean_linker_0, # of connection points: 2
#     Edge 39, Type (0, 1), BuildingBlock: XIVTED_clean_linker_0, # of connection points: 2
#     Edge 40, Type (0, 1), BuildingBlock: XIVTED_clean_linker_0, # of connection points: 2
#     Edge 41, Type (0, 1), BuildingBlock: XIVTED_clean_linker_0, # of connection points: 2
#     Edge 42, Type (0, 1), BuildingBlock: XIVTED_clean_linker_0, # of connection points: 2
#     Edge 43, Type (0, 1), BuildingBlock: XIVTED_clean_linker_0, # of connection points: 2
#     Edge 44, Type (0, 1), BuildingBlock: XIVTED_clean_linker_0, # of connection points: 2
#     Edge 45, Type (0, 1), BuildingBlock: XIVTED_clean_linker_0, # of connection points: 2
#     Edge 46, Type (0, 1), BuildingBlock: XIVTED_clean_linker_0, # of connection points: 2
#     Edge 47, Type (0, 1), BuildingBlock: XIVTED_clean_linker_0, # of connection points: 2
#     Edge 48, Type (0, 1), BuildingBlock: XIVTED_clean_linker_0, # of connection points: 2
#     Edge 49, Type (0, 1), BuildingBlock: XIVTED_clean_linker_0, # of connection points: 2
#     Edge 50, Type (0, 1), BuildingBlock: XIVTED_clean_linker_0, # of connection points: 2
#     Edge 51, Type (0, 1), BuildingBlock: XIVTED_clean_linker_0, # of connection points: 2
#     Edge 52, Type (0, 1), BuildingBlock: XIVTED_clean_linker_0, # of connection points: 2
#     Edge 53, Type (0, 1), BuildingBlock: XIVTED_clean_linker_0, # of connection points: 2
#     Edge 54, Type (0, 1), BuildingBlock: XIVTED_clean_linker_0, # of connection points: 2
#     Edge 55, Type (0, 1), BuildingBlock: XIVTED_clean_linker_0, # of connection points: 2
#     Edge 56, Type (0, 1), BuildingBlock: XIVTED_clean_linker_0, # of connection points: 2
#     Edge 57, Type (0, 1), BuildingBlock: XIVTED_clean_linker_0, # of connection points: 2
#     Edge 58, Type (0, 1), BuildingBlock: XIVTED_clean_linker_0, # of connection points: 2
#     Edge 59, Type (0, 1), BuildingBlock: XIVTED_clean_linker_0, # of connection points: 2
#     Edge 60, Type (0, 1), BuildingBlock: XIVTED_clean_linker_0, # of connection points: 2
#     Edge 61, Type (0, 1), BuildingBlock: XIVTED_clean_linker_0, # of connection points: 2
# Relax obj value: 0.164
# Max RMSD: 0.210
# Mean RMSD: 0.171
data_MOF--net-ocu--node1-KUMBUR_clean_sbu_1--node2-GIZVER_clean_sbu_0--edge1-XIVTED_clean_linker_0
_symmetry_space_group_name_H-M    P1
_symmetry_Int_Tables_number       1
_symmetry_cell_setting            triclinic
loop_
_symmetry_equiv_pos_as_xyz
'x, y, z'
_cell_length_a     43.133444
_cell_length_b     45.01619
_cell_length_c     35.095448
_cell_angle_alpha  100.56782
_cell_angle_beta   79.711802
_cell_angle_gamma 111.4334
loop_
_atom_site_label
_atom_site_type_symbol
_atom_site_fract_x
_atom_site_fract_y
_atom_site_fract_z
_atom_type_partial_charge
Tb0 Tb 0.25357 0.25807 0.21495 0.0
C1 C 0.32239 0.34771 0.3562 0.0
N2 N 0.33701 0.33766 0.32108 0.0
C3 C 0.37753 0.3908 0.31823 0.0
C4 C 0.33457 0.37997 0.37351 0.0
C5 C 0.36461 0.35852 0.30231 0.0
C6 C 0.36236 0.40163 0.35391 0.0
C7 C 0.27928 0.33481 0.41136 0.0
C8 C 0.29493 0.32545 0.3747 0.0
C9 C 0.29111 0.367 0.42859 0.0
C10 C 0.31866 0.38952 0.4097 0.0
Tb11 Tb 0.31383 0.28445 0.29819 0.0
N12 N 0.28383 0.29458 0.3568 0.0
C13 C 0.25258 0.31143 0.4299 0.0
C14 C 0.25944 0.27137 0.37617 0.0
C15 C 0.24298 0.27948 0.41247 0.0
H16 H 0.37732 0.35014 0.27568 0.0
H17 H 0.22334 0.26095 0.42736 0.0
H18 H 0.18446 0.19772 0.23975 0.0
H19 H 0.34602 0.26928 0.08702 0.0
H20 H 0.25336 0.24642 0.36482 0.0
H21 H 0.23994 0.31761 0.45814 0.0
H22 H 0.31802 0.28885 0.14833 0.0
H23 H 0.3994 0.40722 0.30317 0.0
H24 H 0.2793 0.37466 0.45668 0.0
H25 H 0.32759 0.41423 0.42343 0.0
H26 H 0.15778 0.14029 0.21607 0.0
H27 H 0.37249 0.42663 0.36622 0.0
H28 H 0.32372 0.21209 0.059 0.0
N29 N 0.22573 0.20503 0.19501 0.0
C30 C 0.23938 0.19216 0.16106 0.0
C31 C 0.18092 0.15452 0.20051 0.0
C32 C 0.22454 0.15969 0.14575 0.0
C33 C 0.19646 0.18694 0.21436 0.0
C34 C 0.19513 0.14076 0.16618 0.0
N35 N 0.28204 0.24294 0.1576 0.0
C36 C 0.30891 0.2637 0.13776 0.0
C37 C 0.28294 0.19967 0.10577 0.0
C38 C 0.26824 0.21187 0.14138 0.0
C39 C 0.31166 0.22049 0.08648 0.0
C40 C 0.32445 0.25273 0.10234 0.0
H41 H 0.18294 0.11569 0.1554 0.0
H42 H 0.22836 0.12237 0.09832 0.0
H43 H 0.27947 0.15739 0.06329 0.0
O44 O 0.24885 0.29035 0.18158 0.0
O45 O 0.28498 0.22791 0.21477 0.0
O46 O 0.33243 0.26176 0.24188 0.0
O47 O 0.20673 0.2488 0.19642 0.0
O48 O 0.29378 0.30576 0.21671 0.0
O49 O 0.33744 0.30118 0.24197 0.0
O50 O 0.32246 0.25336 0.33 0.0
O51 O 0.28258 0.31481 0.29781 0.0
O52 O 0.23487 0.28069 0.27129 0.0
O53 O 0.36191 0.29668 0.31489 0.0
O54 O 0.27455 0.23637 0.29498 0.0
O55 O 0.23041 0.24158 0.27158 0.0
C56 C 0.31657 0.23501 0.22026 0.0
C57 C 0.2084 0.26776 0.13709 0.0
C58 C 0.18948 0.28617 0.08689 0.0
C59 C 0.18907 0.25772 0.0621 0.0
C60 C 0.20733 0.2394 0.11199 0.0
C61 C 0.19796 0.23456 0.07465 0.0
C62 C 0.19947 0.29106 0.12438 0.0
C63 C 0.32596 0.31475 0.22018 0.0
C64 C 0.21776 0.27329 0.17695 0.0
C65 C 0.23935 0.14729 0.11052 0.0
C66 C 0.26845 0.16724 0.09055 0.0
C67 C 0.25076 0.30747 0.29292 0.0
C68 C 0.36511 0.27686 0.37162 0.0
C69 C 0.39066 0.25935 0.41627 0.0
C70 C 0.38942 0.28614 0.44355 0.0
C71 C 0.36424 0.30345 0.3992 0.0
C72 C 0.3783 0.25493 0.3803 0.0
C73 C 0.37627 0.30797 0.435 0.0
C74 C 0.2423 0.2272 0.29189 0.0
C75 C 0.35343 0.27174 0.33316 0.0
H76 H 0.18202 0.25341 0.03293 0.0
H77 H 0.21333 0.22082 0.1212 0.0
H78 H 0.19737 0.21265 0.05544 0.0
H79 H 0.19953 0.31264 0.14412 0.0
H80 H 0.39823 0.29003 0.47171 0.0
H81 H 0.3546 0.32084 0.39307 0.0
H82 H 0.37949 0.23471 0.35863 0.0
H83 H 0.37544 0.3285 0.4562 0.0
Tb84 Tb 0.76004 0.29446 0.25184 0.0
C85 C 0.86776 0.2584 0.1605 0.0
N86 N 0.83818 0.23866 0.1772 0.0
C87 C 0.82757 0.20759 0.11432 0.0
C88 C 0.87712 0.25486 0.11973 0.0
C89 C 0.81972 0.2118 0.15491 0.0
C90 C 0.85592 0.22972 0.09651 0.0
C91 C 0.92176 0.30033 0.16888 0.0
C92 C 0.89008 0.28059 0.1846 0.0
C93 C 0.93031 0.29818 0.12821 0.0
C94 C 0.90803 0.27548 0.10367 0.0
Tb95 Tb 0.82811 0.24985 0.24422 0.0
N96 N 0.88076 0.28251 0.22376 0.0
C97 C 0.94409 0.32119 0.1946 0.0
C98 C 0.90304 0.30146 0.24909 0.0
C99 C 0.93486 0.32139 0.23489 0.0
H100 H 0.79928 0.19287 0.16795 0.0
H101 H 0.95215 0.337 0.25499 0.0
H102 H 0.75836 0.31901 0.34693 0.0
H103 H 0.6614 0.23188 0.16009 0.0
H104 H 0.89576 0.30181 0.28019 0.0
H105 H 0.96869 0.33675 0.18367 0.0
H106 H 0.71985 0.26141 0.17371 0.0
H107 H 0.81215 0.18683 0.09689 0.0
H108 H 0.9544 0.31338 0.11549 0.0
H109 H 0.91542 0.27333 0.0724 0.0
H110 H 0.71563 0.31659 0.40439 0.0
H111 H 0.8622 0.22611 0.06511 0.0
H112 H 0.61505 0.22365 0.2144 0.0
N113 N 0.72292 0.29166 0.30744 0.0
C114 C 0.68996 0.27734 0.30254 0.0
C115 C 0.70809 0.30521 0.37594 0.0
C116 C 0.66467 0.27539 0.33449 0.0
C117 C 0.73228 0.30638 0.34334 0.0
C118 C 0.67413 0.28947 0.37157 0.0
N119 N 0.70704 0.26721 0.23537 0.0
C120 C 0.69995 0.25688 0.19776 0.0
C121 C 0.64798 0.24836 0.25887 0.0
C122 C 0.68181 0.26408 0.26532 0.0
C123 C 0.64071 0.23606 0.22061 0.0
C124 C 0.66681 0.24061 0.18988 0.0
H125 H 0.65546 0.28856 0.39689 0.0
H126 H 0.61107 0.25755 0.35256 0.0
H127 H 0.59643 0.23381 0.28631 0.0
O128 O 0.74388 0.31986 0.22004 0.0
O129 O 0.74402 0.25662 0.29047 0.0
O130 O 0.78109 0.22777 0.28053 0.0
O131 O 0.77161 0.34441 0.26863 0.0
O132 O 0.76896 0.26039 0.20198 0.0
O133 O 0.7793 0.22072 0.22373 0.0
O134 O 0.8528 0.24163 0.28565 0.0
O135 O 0.84303 0.30008 0.23386 0.0
O136 O 0.80025 0.29795 0.20325 0.0
O137 O 0.84531 0.21063 0.23153 0.0
O138 O 0.82307 0.28048 0.29993 0.0
O139 O 0.80101 0.31798 0.28843 0.0
C140 C 0.75343 0.23345 0.29732 0.0
C141 C 0.72704 0.36041 0.25861 0.0
C142 C 0.68308 0.37662 0.24323 0.0
C143 C 0.6725 0.38205 0.28335 0.0
C144 C 0.71656 0.36634 0.29863 0.0
C145 C 0.68928 0.377 0.31084 0.0
C146 C 0.71026 0.36566 0.23129 0.0
C147 C 0.7612 0.22991 0.2051 0.0
C148 C 0.75337 0.34625 0.24388 0.0
C149 C 0.63091 0.25944 0.32837 0.0
C150 C 0.62258 0.24587 0.29065 0.0
C151 C 0.83162 0.31127 0.20959 0.0
C152 C 0.84294 0.18728 0.28713 0.0
C153 C 0.85316 0.15741 0.33196 0.0
C154 C 0.82047 0.13491 0.32966 0.0
C155 C 0.8105 0.16464 0.28509 0.0
C156 C 0.86398 0.18378 0.31077 0.0
C157 C 0.79931 0.13867 0.30652 0.0
C158 C 0.81818 0.30845 0.30845 0.0
C159 C 0.8551 0.21517 0.26564 0.0
H160 H 0.6518 0.39083 0.29346 0.0
H161 H 0.72906 0.36245 0.32039 0.0
H162 H 0.68116 0.38141 0.3417 0.0
H163 H 0.71806 0.36048 0.2004 0.0
H164 H 0.81145 0.11397 0.34497 0.0
H165 H 0.79378 0.16717 0.26723 0.0
H166 H 0.88876 0.20175 0.31266 0.0
H167 H 0.77425 0.12125 0.30492 0.0
Tb168 Tb 0.76893 0.74143 0.2935 0.0
C169 C 0.87153 0.81548 0.16221 0.0
N170 N 0.85603 0.82805 0.1949 0.0
C171 C 0.90668 0.87338 0.20276 0.0
C172 C 0.90551 0.83115 0.14884 0.0
C173 C 0.87286 0.85702 0.21474 0.0
C174 C 0.92316 0.86029 0.16983 0.0
C175 C 0.86786 0.77331 0.1073 0.0
C176 C 0.85302 0.78698 0.1417 0.0
C177 C 0.90184 0.78859 0.0941 0.0
C178 C 0.92063 0.81743 0.11483 0.0
Tb179 Tb 0.80105 0.79854 0.21195 0.0
N180 N 0.82046 0.77239 0.15601 0.0
C181 C 0.84803 0.74479 0.08718 0.0
C182 C 0.80055 0.74559 0.13535 0.0
C183 C 0.81413 0.73109 0.10105 0.0
H184 H 0.86001 0.86803 0.23918 0.0
H185 H 0.79839 0.70945 0.08522 0.0
H186 H 0.70692 0.67397 0.26751 0.0
H187 H 0.77726 0.83243 0.41919 0.0
H188 H 0.77429 0.73528 0.14523 0.0
H189 H 0.85849 0.73348 0.06063 0.0
H190 H 0.79909 0.80492 0.35916 0.0
H191 H 0.91991 0.89624 0.2187 0.0
H192 H 0.91376 0.77841 0.06779 0.0
H193 H 0.94674 0.82908 0.10416 0.0
H194 H 0.64698 0.648 0.28991 0.0
H195 H 0.94932 0.8731 0.16053 0.0
H196 H 0.71737 0.81054 0.4456 0.0
N197 N 0.71363 0.71403 0.3121 0.0
C198 C 0.69949 0.72744 0.34526 0.0
C199 C 0.6614 0.67049 0.30556 0.0
C200 C 0.66546 0.71309 0.35958 0.0
C201 C 0.69528 0.68558 0.29254 0.0
C202 C 0.64635 0.68438 0.33909 0.0
N203 N 0.75187 0.76906 0.34973 0.0
C204 C 0.77287 0.79563 0.36951 0.0
C205 C 0.70578 0.77029 0.39963 0.0
C206 C 0.71934 0.75565 0.36503 0.0
C207 C 0.72681 0.79853 0.41891 0.0
C208 C 0.76059 0.81105 0.40398 0.0
H209 H 0.62012 0.67258 0.34915 0.0
H210 H 0.62558 0.71709 0.40531 0.0
H211 H 0.66089 0.76718 0.44038 0.0
O212 O 0.80352 0.73884 0.32704 0.0
O213 O 0.7418 0.77548 0.2936 0.0
O214 O 0.78027 0.82008 0.26775 0.0
O215 O 0.75803 0.6989 0.31794 0.0
O216 O 0.82069 0.7768 0.29086 0.0
O217 O 0.81986 0.82114 0.26829 0.0
O218 O 0.76591 0.79949 0.17797 0.0
O219 O 0.82732 0.76333 0.21039 0.0
O220 O 0.78921 0.7193 0.23796 0.0
O221 O 0.81038 0.84054 0.18695 0.0
O222 O 0.74964 0.7626 0.21388 0.0
O223 O 0.75024 0.7185 0.23737 0.0
C224 C 0.75202 0.8064 0.28957 0.0
C225 C 0.80699 0.68715 0.31857 0.0
C226 C 0.85133 0.66916 0.32958 0.0
C227 C 0.8474 0.64886 0.29383 0.0
C228 C 0.8033 0.66643 0.28321 0.0
C229 C 0.8235 0.64751 0.27092 0.0
C230 C 0.83097 0.68836 0.34172 0.0
C231 C 0.83208 0.8081 0.28996 0.0
C232 C 0.78712 0.70861 0.3306 0.0
C233 C 0.6517 0.72772 0.39389 0.0
C234 C 0.67181 0.75624 0.41387 0.0
C235 C 0.81693 0.73248 0.2151 0.0
C236 C 0.76084 0.85033 0.18326 0.0
C237 C 0.71784 0.86803 0.1676 0.0
C238 C 0.71838 0.8868 0.20442 0.0
C239 C 0.76112 0.86953 0.21965 0.0
C240 C 0.73937 0.84989 0.15708 0.0
C241 C 0.73996 0.8876 0.23012 0.0
C242 C 0.73882 0.73129 0.21456 0.0
C243 C 0.78161 0.8296 0.17333 0.0
H244 H 0.86226 0.6334 0.28396 0.0
H245 H 0.78488 0.66492 0.26499 0.0
H246 H 0.8205 0.63161 0.24363 0.0
H247 H 0.834 0.70451 0.36889 0.0
H248 H 0.70234 0.90122 0.21318 0.0
H249 H 0.77761 0.87048 0.24008 0.0
H250 H 0.7389 0.83494 0.12904 0.0
H251 H 0.74025 0.90225 0.25829 0.0
Tb252 Tb 0.24624 0.80137 0.27739 0.0
C253 C 0.3343 0.72551 0.29883 0.0
N254 N 0.34484 0.75506 0.28711 0.0
C255 C 0.38606 0.77459 0.33202 0.0
C256 C 0.34803 0.71959 0.32899 0.0
C257 C 0.37184 0.77899 0.30155 0.0
C258 C 0.3736 0.74494 0.34642 0.0
C259 C 0.30178 0.66887 0.28668 0.0
C260 C 0.3118 0.70061 0.27803 0.0
C261 C 0.31364 0.66297 0.31833 0.0
C262 C 0.33677 0.68833 0.33948 0.0
Tb263 Tb 0.31608 0.76067 0.24133 0.0
N264 N 0.30118 0.70744 0.24772 0.0
C265 C 0.28107 0.64406 0.26248 0.0
C266 C 0.28292 0.68321 0.2224 0.0
C267 C 0.27211 0.65122 0.22976 0.0
H268 H 0.38259 0.80151 0.28952 0.0
H269 H 0.25682 0.63214 0.21028 0.0
H270 H 0.21032 0.78287 0.1963 0.0
H271 H 0.29949 0.91686 0.36322 0.0
H272 H 0.27586 0.68868 0.19724 0.0
H273 H 0.27273 0.61929 0.2681 0.0
H274 H 0.27135 0.85804 0.35311 0.0
H275 H 0.40686 0.79396 0.34406 0.0
H276 H 0.30593 0.63881 0.32586 0.0
H277 H 0.34664 0.68333 0.36296 0.0
H278 H 0.20906 0.81093 0.14258 0.0
H279 H 0.38485 0.74146 0.36974 0.0
H280 H 0.3082 0.94898 0.30954 0.0
N281 N 0.24102 0.82523 0.22791 0.0
C282 C 0.25541 0.85774 0.23091 0.0
C283 C 0.22244 0.82434 0.16712 0.0
C284 C 0.25551 0.87478 0.201 0.0
C285 C 0.22325 0.80849 0.19752 0.0
C286 C 0.2391 0.85757 0.16855 0.0
N287 N 0.26792 0.85619 0.29291 0.0
C288 C 0.27662 0.87148 0.32883 0.0
C289 C 0.28476 0.9075 0.26906 0.0
C290 C 0.26995 0.87371 0.26429 0.0
C291 C 0.29662 0.92303 0.30465 0.0
C292 C 0.29186 0.90497 0.33496 0.0
H293 H 0.23859 0.86975 0.14488 0.0
H294 H 0.27243 0.92188 0.18182 0.0
H295 H 0.29796 0.95062 0.24157 0.0
O296 O 0.21085 0.81916 0.31378 0.0
O297 O 0.28077 0.80942 0.2223 0.0
O298 O 0.32944 0.81201 0.24008 0.0
O299 O 0.19525 0.77245 0.28045 0.0
O300 O 0.28061 0.80948 0.32112 0.0
O301 O 0.32879 0.8051 0.28306 0.0
O302 O 0.32741 0.76106 0.18058 0.0
O303 O 0.26781 0.73244 0.2709 0.0
O304 O 0.25269 0.77031 0.31504 0.0
O305 O 0.36261 0.75661 0.21536 0.0
O306 O 0.27613 0.74643 0.20289 0.0
O307 O 0.22973 0.75551 0.24089 0.0
C308 C 0.3133 0.82347 0.22191 0.0
C309 C 0.17275 0.77573 0.34615 0.0
C310 C 0.17553 0.77552 0.4153 0.0
C311 C 0.15326 0.74347 0.41255 0.0
C312 C 0.15016 0.74397 0.34435 0.0
C313 C 0.14048 0.72801 0.37742 0.0
C314 C 0.1849 0.79127 0.38168 0.0
C315 C 0.31341 0.81623 0.31539 0.0
C316 C 0.18718 0.79115 0.31021 0.0
C317 C 0.27166 0.90832 0.2047 0.0
C318 C 0.28629 0.92466 0.23868 0.0
C319 C 0.25072 0.74025 0.30353 0.0
C320 C 0.38066 0.75941 0.14638 0.0
C321 C 0.39125 0.74234 0.07697 0.0
C322 C 0.42558 0.76079 0.0783 0.0
C323 C 0.41485 0.77705 0.14745 0.0
C324 C 0.3688 0.74299 0.11109 0.0
C325 C 0.43714 0.77817 0.11327 0.0
C326 C 0.24359 0.74141 0.21007 0.0
C327 C 0.35695 0.75995 0.18146 0.0
H328 H 0.14539 0.73031 0.43751 0.0
H329 H 0.14073 0.73123 0.31714 0.0
H330 H 0.12335 0.70338 0.3757 0.0
H331 H 0.2012 0.81616 0.3831 0.0
H332 H 0.44397 0.76044 0.05297 0.0
H333 H 0.42416 0.79037 0.17451 0.0
H334 H 0.34223 0.72955 0.11066 0.0
H335 H 0.46357 0.79182 0.11406 0.0
Tb336 Tb 0.26199 0.78403 0.76148 0.0
C337 C 0.37148 0.74807 0.64135 0.0
N338 N 0.34103 0.72931 0.65723 0.0
C339 C 0.32976 0.69921 0.59424 0.0
C340 C 0.38201 0.74345 0.60099 0.0
C341 C 0.32041 0.70468 0.63443 0.0
C342 C 0.36063 0.71875 0.5774 0.0
C343 C 0.42345 0.79272 0.65022 0.0
C344 C 0.39188 0.77248 0.66569 0.0
C345 C 0.43404 0.78819 0.61003 0.0
C346 C 0.41338 0.76364 0.58548 0.0
Tb347 Tb 0.32942 0.74008 0.72336 0.0
N348 N 0.38044 0.77674 0.70434 0.0
C349 C 0.44339 0.81694 0.67561 0.0
C350 C 0.40069 0.79915 0.72944 0.0
C351 C 0.43208 0.81994 0.71545 0.0
H352 H 0.29718 0.68846 0.64718 0.0
H353 H 0.44778 0.83794 0.73553 0.0
H354 H 0.28316 0.82148 0.84852 0.0
H355 H 0.14469 0.69758 0.71709 0.0
H356 H 0.39349 0.80064 0.76035 0.0
H357 H 0.46776 0.83304 0.66489 0.0
H358 H 0.20041 0.73884 0.70718 0.0
H359 H 0.3133 0.67969 0.57634 0.0
H360 H 0.45817 0.80357 0.59763 0.0
H361 H 0.42189 0.76046 0.55453 0.0
H362 H 0.25843 0.81834 0.9174 0.0
H363 H 0.36781 0.7144 0.54625 0.0
H364 H 0.1189 0.68531 0.7838 0.0
N365 N 0.2417 0.78333 0.82614 0.0
C366 C 0.21047 0.76185 0.83448 0.0
C367 C 0.24476 0.8022 0.89436 0.0
C368 C 0.19536 0.75925 0.87337 0.0
C369 C 0.25881 0.80377 0.85533 0.0
C370 C 0.21297 0.77975 0.90346 0.0
N371 N 0.20922 0.74598 0.76662 0.0
C372 C 0.19086 0.73202 0.73602 0.0
C373 C 0.1613 0.71988 0.81115 0.0
C374 C 0.19398 0.74213 0.80374 0.0
C375 C 0.14406 0.7026 0.7794 0.0
C376 C 0.1586 0.70931 0.74171 0.0
H377 H 0.20222 0.77852 0.93373 0.0
H378 H 0.15146 0.73364 0.91062 0.0
H379 H 0.12146 0.69937 0.85611 0.0
O380 O 0.23677 0.80227 0.72993 0.0
O381 O 0.2676 0.75167 0.79802 0.0
O382 O 0.28249 0.71223 0.75597 0.0
O383 O 0.25183 0.82604 0.78692 0.0
O384 O 0.26043 0.75436 0.70336 0.0
O385 O 0.27825 0.71351 0.71055 0.0
O386 O 0.35996 0.72904 0.75601 0.0
O387 O 0.32702 0.77538 0.68884 0.0
O388 O 0.30993 0.81279 0.7324 0.0
O389 O 0.34057 0.69795 0.7038 0.0
O390 O 0.33474 0.77126 0.78034 0.0
O391 O 0.31159 0.81056 0.78029 0.0
C392 C 0.26603 0.72162 0.78835 0.0
C393 C 0.22295 0.85078 0.75633 0.0
C394 C 0.19218 0.87289 0.72436 0.0
C395 C 0.19409 0.89733 0.756 0.0
C396 C 0.22483 0.87555 0.7877 0.0
C397 C 0.21052 0.89872 0.7874 0.0
C398 C 0.20685 0.84975 0.72436 0.0
C399 C 0.25965 0.72432 0.69494 0.0
C400 C 0.23721 0.8259 0.75767 0.0
C401 C 0.1634 0.73621 0.88092 0.0
C402 C 0.14641 0.71656 0.84988 0.0
C403 C 0.32863 0.8052 0.70105 0.0
C404 C 0.37582 0.68094 0.73459 0.0
C405 C 0.40769 0.66281 0.76994 0.0
C406 C 0.41085 0.64008 0.73765 0.0
C407 C 0.37894 0.65786 0.70261 0.0
C408 C 0.38997 0.68313 0.76851 0.0
C409 C 0.39635 0.63753 0.70424 0.0
C410 C 0.3322 0.79999 0.79295 0.0
C411 C 0.35881 0.7032 0.73157 0.0
H412 H 0.18309 0.91549 0.7562 0.0
H413 H 0.2372 0.87697 0.81259 0.0
H414 H 0.21207 0.91772 0.81164 0.0
H415 H 0.20529 0.83088 0.69988 0.0
H416 H 0.42415 0.62398 0.73857 0.0
H417 H 0.36826 0.65573 0.67612 0.0
H418 H 0.38754 0.70064 0.7935 0.0
H419 H 0.39869 0.61983 0.67952 0.0
Tb420 Tb 0.27483 0.23433 0.79883 0.0
C421 C 0.37195 0.3105 0.66172 0.0
N422 N 0.35788 0.32125 0.69684 0.0
C423 C 0.409 0.3661 0.70448 0.0
C424 C 0.40543 0.32676 0.647 0.0
C425 C 0.37546 0.34951 0.71741 0.0
C426 C 0.42421 0.35447 0.66936 0.0
C427 C 0.36467 0.27349 0.60162 0.0
C428 C 0.35203 0.28413 0.63942 0.0
C429 C 0.3983 0.28897 0.58727 0.0
C430 C 0.4187 0.31546 0.61 0.0
Tb431 Tb 0.30295 0.29162 0.71486 0.0
N432 N 0.31983 0.26935 0.65465 0.0
C433 C 0.34283 0.24823 0.57907 0.0
C434 C 0.29798 0.24589 0.63208 0.0
C435 C 0.30918 0.23473 0.59416 0.0
H436 H 0.36347 0.35994 0.74316 0.0
H437 H 0.29186 0.2158 0.57658 0.0
H438 H 0.20856 0.17087 0.77145 0.0
H439 H 0.2893 0.3267 0.92365 0.0
H440 H 0.2719 0.23602 0.64313 0.0
H441 H 0.35147 0.23951 0.54974 0.0
H442 H 0.30886 0.29756 0.86356 0.0
H443 H 0.42289 0.38824 0.72123 0.0
H444 H 0.40859 0.28104 0.55838 0.0
H445 H 0.44442 0.32756 0.59828 0.0
H446 H 0.14843 0.14873 0.79468 0.0
H447 H 0.45004 0.36765 0.65914 0.0
H448 H 0.22945 0.30767 0.95099 0.0
N449 N 0.21864 0.21064 0.81662 0.0
C450 C 0.20614 0.22476 0.85055 0.0
C451 C 0.16432 0.17031 0.81044 0.0
C452 C 0.1719 0.21248 0.86524 0.0
C453 C 0.19843 0.18333 0.79694 0.0
C454 C 0.15095 0.18503 0.84459 0.0
N455 N 0.26044 0.26383 0.85478 0.0
C456 C 0.28263 0.2897 0.8741 0.0
C457 C 0.21547 0.26759 0.90519 0.0
C458 C 0.22771 0.25202 0.87039 0.0
C459 C 0.23787 0.29502 0.92417 0.0
C460 C 0.27164 0.30595 0.9087 0.0
H461 H 0.12451 0.17482 0.85496 0.0
H462 H 0.13343 0.21885 0.91163 0.0
H463 H 0.17153 0.26706 0.94656 0.0
O464 O 0.30127 0.22951 0.8412 0.0
O465 O 0.24633 0.2668 0.79628 0.0
O466 O 0.28463 0.31229 0.77278 0.0
O467 O 0.26158 0.18909 0.81773 0.0
O468 O 0.32631 0.26978 0.79512 0.0
O469 O 0.32446 0.31295 0.77017 0.0
O470 O 0.26389 0.29337 0.68806 0.0
O471 O 0.32547 0.25275 0.70253 0.0
O472 O 0.30769 0.21839 0.75061 0.0
O473 O 0.30993 0.33356 0.69097 0.0
O474 O 0.2535 0.25335 0.7205 0.0
O475 O 0.25738 0.20994 0.74196 0.0
C476 C 0.25641 0.29807 0.79427 0.0
C477 C 0.30874 0.17902 0.8307 0.0
C478 C 0.35352 0.16475 0.84856 0.0
C479 C 0.3533 0.14451 0.81289 0.0
C480 C 0.30913 0.15843 0.79537 0.0
C481 C 0.33116 0.14127 0.78671 0.0
C482 C 0.33083 0.18182 0.85757 0.0
C483 C 0.33787 0.30064 0.79146 0.0
C484 C 0.28638 0.19846 0.83858 0.0
C485 C 0.15967 0.22794 0.89994 0.0
C486 C 0.18137 0.2554 0.91985 0.0
C487 C 0.32572 0.22792 0.71764 0.0
C488 C 0.26023 0.34459 0.69238 0.0
C489 C 0.22067 0.36651 0.67663 0.0
C490 C 0.2204 0.38358 0.71444 0.0
C491 C 0.26035 0.36249 0.72954 0.0
C492 C 0.24057 0.34684 0.6659 0.0
C493 C 0.24027 0.38165 0.74061 0.0
C494 C 0.24621 0.22209 0.71802 0.0
C495 C 0.27975 0.3229 0.68109 0.0
H496 H 0.37025 0.13096 0.80532 0.0
H497 H 0.29273 0.15586 0.77402 0.0
H498 H 0.33135 0.12564 0.75933 0.0
H499 H 0.33096 0.19775 0.88479 0.0
H500 H 0.2056 0.39916 0.72338 0.0
H501 H 0.27606 0.36169 0.74981 0.0
H502 H 0.24067 0.33318 0.63703 0.0
H503 H 0.24038 0.39533 0.7694 0.0
Tb504 Tb 0.76506 0.28497 0.75374 0.0
C505 C 0.8273 0.20056 0.81155 0.0
N506 N 0.84341 0.22987 0.79911 0.0
C507 C 0.87383 0.24783 0.85478 0.0
C508 C 0.83318 0.19401 0.84683 0.0
C509 C 0.86694 0.25328 0.81972 0.0
C510 C 0.85673 0.21815 0.86855 0.0
C511 C 0.78584 0.14711 0.80181 0.0
C512 C 0.80381 0.17755 0.78945 0.0
C513 C 0.79147 0.14044 0.83704 0.0
C514 C 0.81507 0.16384 0.8595 0.0
Tb515 Tb 0.82829 0.23688 0.74317 0.0
N516 N 0.798 0.18538 0.75638 0.0
C517 C 0.76265 0.12438 0.77847 0.0
C518 C 0.77708 0.16253 0.73228 0.0
C519 C 0.75866 0.13197 0.74324 0.0
H520 H 0.88073 0.27609 0.80904 0.0
H521 H 0.74165 0.11418 0.7243 0.0
H522 H 0.70528 0.24523 0.69677 0.0
H523 H 0.85281 0.40728 0.76261 0.0
H524 H 0.77503 0.16721 0.70413 0.0
H525 H 0.74823 0.10075 0.78696 0.0
H526 H 0.82183 0.35477 0.78555 0.0
H527 H 0.89231 0.26655 0.87118 0.0
H528 H 0.77769 0.11729 0.84718 0.0
H529 H 0.81908 0.1584 0.88666 0.0
H530 H 0.68684 0.25341 0.63811 0.0
H531 H 0.86194 0.2141 0.89586 0.0
H532 H 0.83929 0.41972 0.70306 0.0
N533 N 0.74367 0.29111 0.70177 0.0
C534 C 0.7584 0.31989 0.68779 0.0
C535 C 0.70716 0.27226 0.65165 0.0
C536 C 0.74855 0.32581 0.65455 0.0
C537 C 0.71795 0.26752 0.68463 0.0
C538 C 0.72267 0.30146 0.63637 0.0
N539 N 0.79343 0.33593 0.73759 0.0
C540 C 0.81677 0.35905 0.75864 0.0
C541 C 0.80036 0.37334 0.69279 0.0
C542 C 0.78401 0.3432 0.7065 0.0
C543 C 0.82595 0.39633 0.71275 0.0
C544 C 0.83383 0.3893 0.74617 0.0
H545 H 0.71436 0.30502 0.61072 0.0
H546 H 0.75795 0.36059 0.61477 0.0
H547 H 0.80333 0.40226 0.64831 0.0
O548 O 0.75231 0.31167 0.80563 0.0
O549 O 0.80151 0.2887 0.70043 0.0
O550 O 0.84739 0.28266 0.71843 0.0
O551 O 0.71512 0.28395 0.7672 0.0
O552 O 0.7999 0.29773 0.79836 0.0
O553 O 0.84722 0.2875 0.76622 0.0
O554 O 0.84499 0.20838 0.69592 0.0
O555 O 0.79175 0.23569 0.79635 0.0
O556 O 0.74601 0.23758 0.77417 0.0
O557 O 0.87909 0.2404 0.73547 0.0
O558 O 0.79521 0.2247 0.69668 0.0
O559 O 0.7476 0.23486 0.7279 0.0
C560 C 0.83401 0.2949 0.69714 0.0
C561 C 0.70058 0.28074 0.83504 0.0
C562 C 0.6893 0.2802 0.90561 0.0
C563 C 0.67277 0.24672 0.89968 0.0
C564 C 0.68332 0.24734 0.8296 0.0
C565 C 0.66958 0.23051 0.86185 0.0
C566 C 0.70304 0.2969 0.87295 0.0
C567 C 0.83223 0.30244 0.79481 0.0
C568 C 0.72039 0.29839 0.80231 0.0
C569 C 0.76501 0.35564 0.64042 0.0
C570 C 0.79084 0.37937 0.65952 0.0
C571 C 0.75914 0.22679 0.79724 0.0
C572 C 0.89626 0.24168 0.66764 0.0
C573 C 0.90056 0.24614 0.59818 0.0
C574 C 0.92196 0.27831 0.60499 0.0
C575 C 0.91867 0.27345 0.67343 0.0
C576 C 0.88839 0.22808 0.62989 0.0
C577 C 0.93157 0.29148 0.64214 0.0
C578 C 0.76295 0.22024 0.6991 0.0
C579 C 0.87631 0.22431 0.70074 0.0
H580 H 0.66176 0.2332 0.92422 0.0
H581 H 0.6812 0.23408 0.80058 0.0
H582 H 0.65651 0.20478 0.85751 0.0
H583 H 0.71552 0.32279 0.87675 0.0
H584 H 0.93191 0.29315 0.5816 0.0
H585 H 0.92525 0.2848 0.70227 0.0
H586 H 0.87253 0.20304 0.62568 0.0
H587 H 0.94854 0.31606 0.64689 0.0
Tb588 Tb 0.75908 0.75274 0.71725 0.0
C589 C 0.83682 0.84513 0.84969 0.0
N590 N 0.84925 0.83348 0.81406 0.0
C591 C 0.89062 0.88559 0.8067 0.0
C592 C 0.85071 0.87771 0.86507 0.0
C593 C 0.87612 0.85303 0.79271 0.0
C594 C 0.87783 0.89802 0.84299 0.0
C595 C 0.79612 0.83534 0.90757 0.0
C596 C 0.80974 0.8242 0.87059 0.0
C597 C 0.80989 0.86781 0.92304 0.0
C598 C 0.83707 0.88894 0.90184 0.0
Tb599 Tb 0.82374 0.77988 0.79519 0.0
N600 N 0.79644 0.79309 0.8542 0.0
C601 C 0.76918 0.81346 0.92794 0.0
C602 C 0.77146 0.77133 0.87492 0.0
C603 C 0.75705 0.78125 0.91171 0.0
H604 H 0.88701 0.84351 0.7653 0.0
H605 H 0.73697 0.76391 0.9278 0.0
H606 H 0.69328 0.69199 0.74956 0.0
H607 H 0.84182 0.76306 0.58156 0.0
H608 H 0.76325 0.74619 0.86405 0.0
H609 H 0.75802 0.82103 0.95649 0.0
H610 H 0.81858 0.78296 0.64615 0.0
H611 H 0.91186 0.90102 0.78965 0.0
H612 H 0.79971 0.87682 0.95141 0.0
H613 H 0.84739 0.91392 0.91417 0.0
H614 H 0.66541 0.63453 0.72732 0.0
H615 H 0.8892 0.92323 0.85377 0.0
H616 H 0.81745 0.70584 0.55445 0.0
N617 N 0.73048 0.69943 0.69999 0.0
C618 C 0.74145 0.68642 0.66441 0.0
C619 C 0.68694 0.64881 0.70947 0.0
C620 C 0.72572 0.65388 0.65009 0.0
C621 C 0.70317 0.68132 0.72228 0.0
C622 C 0.69832 0.63498 0.67329 0.0
N623 N 0.78344 0.73715 0.65745 0.0
C624 C 0.80872 0.75778 0.63565 0.0
C625 C 0.78046 0.69367 0.6049 0.0
C626 C 0.76852 0.70603 0.64213 0.0
C627 C 0.80753 0.71437 0.58323 0.0
C628 C 0.8215 0.74664 0.59854 0.0
H629 H 0.68556 0.60984 0.66336 0.0
H630 H 0.72597 0.61636 0.60161 0.0
H631 H 0.77383 0.65121 0.56203 0.0
O632 O 0.75112 0.78464 0.686 0.0
O633 O 0.79243 0.7233 0.71184 0.0
O634 O 0.84065 0.75598 0.73885 0.0
O635 O 0.7105 0.7429 0.70359 0.0
O636 O 0.79929 0.80035 0.71666 0.0
O637 O 0.84439 0.79466 0.73745 0.0
O638 O 0.83273 0.75045 0.82916 0.0
O639 O 0.79218 0.81043 0.79687 0.0
O640 O 0.74311 0.77536 0.77491 0.0
O641 O 0.87261 0.79183 0.80932 0.0
O642 O 0.78512 0.7313 0.79413 0.0
O643 O 0.74001 0.73774 0.7751 0.0
C644 C 0.82421 0.72991 0.71653 0.0
C645 C 0.70679 0.76181 0.6465 0.0
C646 C 0.68217 0.77977 0.60132 0.0
C647 C 0.68003 0.75123 0.57589 0.0
C648 C 0.70406 0.73339 0.62082 0.0
C649 C 0.69094 0.72827 0.58564 0.0
C650 C 0.69584 0.78491 0.6366 0.0
C651 C 0.83175 0.80888 0.71798 0.0
C652 C 0.71958 0.76742 0.68443 0.0
C653 C 0.73771 0.64134 0.61311 0.0
C654 C 0.76496 0.66119 0.59055 0.0
C655 C 0.75994 0.80299 0.79418 0.0
C656 C 0.87671 0.77615 0.86874 0.0
C657 C 0.89962 0.75969 0.91716 0.0
C658 C 0.90462 0.79017 0.93919 0.0
C659 C 0.88236 0.80649 0.89099 0.0
C660 C 0.88494 0.7528 0.88224 0.0
C661 C 0.89586 0.81326 0.92621 0.0
C662 C 0.75274 0.72189 0.79194 0.0
C663 C 0.86402 0.76856 0.83045 0.0
H664 H 0.67019 0.74674 0.54827 0.0
H665 H 0.71161 0.71497 0.62801 0.0
H666 H 0.68906 0.70632 0.56594 0.0
H667 H 0.69727 0.80654 0.65686 0.0
H668 H 0.91625 0.79662 0.96583 0.0
H669 H 0.87695 0.82514 0.881 0.0
H670 H 0.88026 0.72934 0.86503 0.0
H671 H 0.90027 0.83678 0.94311 0.0
Co672 Co 0.0729 0.95213 0.49098 0.0
Co673 Co 0.0698 0.99087 0.55711 0.0
Co674 Co 0.04138 1.01279 0.50214 0.0
O675 O 0.07691 0.99631 0.50405 0.0
H676 H 0.09913 1.01125 0.49725 0.0
O677 O 1.00549 0.02917 0.50118 0.0
Co678 Co 1.00921 0.07322 0.51547 0.0
Co679 Co 1.01129 0.03499 0.44915 0.0
H680 H 0.98335 1.01417 0.50818 0.0
O681 O 0.1032 0.98921 0.57988 0.0
O682 O 0.06378 0.94761 0.54881 0.0
O683 O 1.03065 0.99542 0.59182 0.0
O684 O 1.00727 0.98186 0.53774 0.0
O685 O 0.05789 0.04592 0.54701 0.0
O686 O 1.00829 0.11251 0.52766 0.0
O687 O 0.96515 0.06636 0.51591 0.0
O688 O 0.05735 0.0871 0.52107 0.0
O689 O 0.07547 0.04374 0.46589 0.0
O690 O 0.0492 0.0303 0.41397 0.0
O691 O 1.01538 0.07769 0.45762 0.0
O692 O 0.9768 0.03421 0.42752 0.0
C693 C 0.10489 0.92761 0.48641 0.0
C694 C 1.01402 0.94942 0.45946 0.0
C695 C 1.00484 0.98179 0.57448 0.0
C696 C 0.08801 0.9585 0.57113 0.0
C697 C 0.97686 0.09771 0.52286 0.0
C698 C 0.06867 0.07608 0.54484 0.0
C699 C 0.07579 0.0448 0.42964 0.0
C700 C 0.99007 0.06517 0.43667 0.0
O701 O 0.0738 0.91274 0.48008 0.0
O702 O 0.11655 0.95895 0.49319 0.0
O703 O 1.0248 0.97957 0.45726 0.0
O704 O 1.02538 0.93834 0.48309 0.0
Co705 Co 0.57923 0.96045 0.95779 0.0
Co706 Co 0.55143 0.95961 0.0226 0.0
Co707 Co 0.53875 0.01985 0.00689 0.0
O708 O 0.57272 0.9959 0.99902 0.0
H709 H 0.59323 1.00891 0.00998 0.0
O710 O 0.50491 0.04392 0.01521 0.0
Co711 Co 0.49807 0.07877 0.05755 0.0
Co712 Co 0.52648 0.08081 0.99321 0.0
H713 H 0.4846 0.03123 0.0037 0.0
O714 O 0.57314 0.95544 0.05891 0.0
O715 O 0.56852 0.92921 0.99682 0.0
O716 O 0.50368 0.94557 0.03388 0.0
O717 O 0.50833 0.99658 0.0526 0.0
O718 O 0.56822 0.05339 0.04428 0.0
O719 O 0.4897 0.10843 0.09538 0.0
O720 O 0.45226 0.07285 0.05801 0.0
O721 O 0.54379 0.09078 0.06607 0.0
O722 O 0.56907 0.0435 0.96131 0.0
O723 O 0.57406 0.09441 0.98222 0.0
O724 O 0.50893 0.1109 0.01914 0.0
O725 O 0.50538 0.08537 0.95664 0.0
C726 C 0.61764 0.94126 0.92955 0.0
C727 C 0.50888 0.95786 0.95303 0.0
C728 C 0.49139 0.96636 0.0524 0.0
C729 C 0.57834 0.93349 0.03143 0.0
C730 C 0.45948 0.09746 0.08583 0.0
C731 C 0.56824 0.08061 0.06322 0.0
C732 C 0.58593 0.07382 0.9622 0.0
C733 C 0.49941 0.10686 0.9843 0.0
O734 O 0.58719 0.93004 0.9206 0.0
O735 O 0.62521 0.96642 0.9566 0.0
O736 O 0.50923 0.98595 0.96936 0.0
O737 O 0.53359 0.94827 0.95101 0.0
Co738 Co 0.07443 0.45531 0.9597 0.0
Co739 Co 0.07798 0.48214 0.03206 0.0
Co740 Co 0.04092 0.51908 0.99736 0.0
O741 O 0.07701 0.49837 0.98758 0.0
H742 H 0.09889 0.51393 0.98096 0.0
O743 O 1.00393 0.54003 0.00679 0.0
Co744 Co 0.99477 0.57371 0.04988 0.0
Co745 Co 1.02266 0.57721 0.98446 0.0
H746 H 0.98387 0.52606 0.99551 0.0
O747 O 0.11637 0.47819 0.04245 0.0
O748 O 0.07554 0.4408 0.00969 0.0
O749 O 0.04136 0.47858 0.07293 0.0
O750 O 1.01046 0.4912 0.03845 0.0
O751 O 0.06764 0.55191 0.03752 0.0
O752 O 0.98516 0.60273 0.08799 0.0
O753 O 0.94883 0.56724 0.04929 0.0
O754 O 0.03968 0.58631 0.05864 0.0
O755 O 0.07114 0.546 0.95455 0.0
O756 O 0.06986 0.59496 0.97518 0.0
O757 O 1.00577 0.60634 0.01317 0.0
O758 O 0.99857 0.58202 0.95098 0.0
C759 C 0.10886 0.43123 0.93071 0.0
C760 C 1.00796 0.45524 0.95521 0.0
C761 C 1.01335 0.47902 0.06732 0.0
C762 C 0.10267 0.44877 0.02654 0.0
C763 C 0.95545 0.59198 0.07705 0.0
C764 C 0.06555 0.57848 0.0562 0.0
C765 C 0.08526 0.57668 0.95681 0.0
C766 C 0.99397 0.60314 0.98007 0.0
O767 O 0.0764 0.41689 0.93318 0.0
O768 O 0.12015 0.46142 0.94637 0.0
O769 O 1.0157 0.48579 0.95722 0.0
O770 O 1.02592 0.4425 0.96745 0.0
Co771 Co 0.57083 0.45504 1.00004 0.0
Co772 Co 0.56626 0.49662 0.06224 0.0
Co773 Co 0.54007 0.51494 1.0017 0.0
O774 O 0.57493 0.4993 0.00892 0.0
H775 H 0.59739 0.51384 1.00225 0.0
O776 O 0.50541 0.53041 0.99388 0.0
Co777 Co 0.50778 0.57405 0.00557 0.0
Co778 Co 0.51466 0.53512 0.94052 0.0
H779 H 0.48307 0.51526 0.9995 0.0
O780 O 0.59814 0.49626 0.08851 0.0
O781 O 0.55944 0.45341 0.05814 0.0
O782 O 0.52696 0.50302 0.09283 0.0
O783 O 0.50401 0.48592 0.03834 0.0
O784 O 0.55434 0.54994 0.04561 0.0
O785 O 0.50477 0.61291 0.0148 0.0
O786 O 0.46469 0.56506 0.99987 0.0
O787 O 0.55439 0.58976 0.0166 0.0
O788 O 0.57611 0.54439 0.96587 0.0
O789 O 0.55536 0.53079 0.90985 0.0
O790 O 0.5205 0.57845 0.94834 0.0
O791 O 0.4832 0.53768 0.9141 0.0
C792 C 0.60257 0.43113 1.00015 0.0
C793 C 0.51438 0.45012 0.96271 0.0
C794 C 0.50143 0.48745 0.07547 0.0
C795 C 0.5828 0.46538 0.08158 0.0
C796 C 0.47429 0.59631 0.007 0.0
C797 C 0.56508 0.57979 0.04186 0.0
C798 C 0.58016 0.54448 0.92893 0.0
C799 C 0.49789 0.56828 0.92416 0.0
O800 O 0.57167 0.41558 0.99338 0.0
O801 O 0.61398 0.4625 0.00514 0.0
O802 O 0.52582 0.47982 0.95789 0.0
O803 O 0.52409 0.44061 0.98935 0.0
Co804 Co 0.09672 0.48488 0.50201 0.0
Co805 Co 0.08248 0.48252 0.43533 0.0
Co806 Co 1.03761 0.51945 0.50071 0.0
O807 O 0.05646 0.48314 0.48321 0.0
H808 H 0.03894 0.46242 0.48494 0.0
O809 O 1.01919 0.55616 0.51881 0.0
Co810 Co 0.98297 0.5589 0.49593 0.0
Co811 Co 0.98824 0.5541 0.56277 0.0
H812 H 1.0373 0.57662 0.52097 0.0
O813 O 0.08312 0.44379 0.40578 0.0
O814 O 0.11987 0.47533 0.44716 0.0
O815 O 0.09579 0.52198 0.41339 0.0
O816 O 0.06901 0.54839 0.46015 0.0
O817 O 1.00308 0.49721 0.46354 0.0
O818 O 0.95264 0.56463 0.47316 0.0
O819 O 1.00023 0.60185 0.49348 0.0
O820 O 0.9609 0.51354 0.49358 0.0
O821 O 1.00635 0.49047 0.54114 0.0
O822 O 0.96988 0.51208 0.57867 0.0
O823 O 0.95541 0.56666 0.54863 0.0
O824 O 0.98803 0.59107 0.59674 0.0
C825 C 0.11233 0.45308 0.52105 0.0
C826 C 0.10357 0.5485 0.52774 0.0
C827 C 0.08933 0.54735 0.42851 0.0
C828 C 0.11065 0.44996 0.42072 0.0
C829 C 0.97311 0.59419 0.47684 0.0
C830 C 0.97166 0.49279 0.471 0.0
C831 C 0.98077 0.4888 0.56721 0.0
C832 C 0.96307 0.58879 0.57903 0.0
O833 O 0.13119 0.48315 0.52105 0.0
O834 O 0.08317 0.44271 0.50806 0.0
O835 O 0.07195 0.54108 0.53773 0.0
O836 O 0.11538 0.53065 0.50106 0.0
Co837 Co 0.59496 0.97899 0.50461 0.0
Co838 Co 0.58416 0.97935 0.43704 0.0
Co839 Co 0.54136 0.02014 0.50113 0.0
O840 O 0.55736 0.98169 0.48414 0.0
H841 H 0.5385 0.96179 0.48512 0.0
O842 O 0.52518 0.0585 0.51835 0.0
Co843 Co 0.48667 0.06057 0.49907 0.0
Co844 Co 0.49883 0.0604 0.56604 0.0
H845 H 0.54387 0.0785 0.51702 0.0
O846 O 0.58415 0.93992 0.40759 0.0
O847 O 0.61964 0.97027 0.45076 0.0
O848 O 0.60114 0.01927 0.41604 0.0
O849 O 0.57345 0.04705 0.45956 0.0
O850 O 0.50636 0.99947 0.46481 0.0
O851 O 0.45435 0.06587 0.47924 0.0
O852 O 0.5029 0.10341 0.49586 0.0
O853 O 0.46485 1.01509 0.49836 0.0
O854 O 0.50953 0.99318 0.54258 0.0
O855 O 0.48414 0.02131 0.58859 0.0
O856 O 0.46261 0.06909 0.5535 0.0
O857 O 0.49853 0.09897 0.59658 0.0
C858 C 0.60576 0.94349 0.52277 0.0
C859 C 0.60749 0.04469 0.52946 0.0
C860 C 0.59494 0.04505 0.42943 0.0
C861 C 0.61094 0.94541 0.42368 0.0
C862 C 0.47448 0.09565 0.48178 0.0
C863 C 0.47505 0.99473 0.47422 0.0
C864 C 0.4898 0.99544 0.57427 0.0
C865 C 0.47127 0.09339 0.58136 0.0
O866 O 0.62643 0.97305 0.52541 0.0
O867 O 0.57781 0.93623 0.5079 0.0
O868 O 0.57628 0.04085 0.53765 0.0
O869 O 0.61752 0.02423 0.50535 0.0
H870 H 0.17368 0.20934 0.30742 0.0
H871 H 0.14106 0.07819 0.44644 0.0
H872 H 0.25669 0.18428 0.32652 0.0
H873 H 0.07278 0.06889 0.36516 0.0
H874 H 0.18325 0.12268 0.41331 0.0
H875 H 0.13501 0.16386 0.34007 0.0
C876 C 0.18383 0.19408 0.31795 0.0
C877 C 0.21853 0.20013 0.31291 0.0
C878 C 0.15905 0.11054 0.40274 0.0
C879 C 0.17426 0.1488 0.35219 0.0
C880 C 0.13504 0.08518 0.42152 0.0
C881 C 0.10335 0.06948 0.40847 0.0
C882 C 0.15085 0.12079 0.37155 0.0
C883 C 0.09686 0.07988 0.3762 0.0
C884 C 0.16171 0.16827 0.33691 0.0
C885 C 0.23012 0.18028 0.32912 0.0
N886 N 0.12013 0.10501 0.3593 0.0
N887 N 0.20807 0.15556 0.34815 0.0
H888 H 0.92117 0.17027 0.31379 0.0
H889 H 0.92327 0.04899 0.44128 0.0
H890 H 0.83856 0.1332 0.40202 0.0
H891 H 1.01583 0.12544 0.41229 0.0
H892 H 0.89207 0.07856 0.42337 0.0
H893 H 0.95731 0.15521 0.34699 0.0
C894 C 0.9107 0.15961 0.34054 0.0
C895 C 0.87644 0.1524 0.35463 0.0
C896 C 0.91916 0.08911 0.42126 0.0
C897 C 0.91766 0.13453 0.39199 0.0
C898 C 0.93702 0.07213 0.4311 0.0
C899 C 0.97213 0.08485 0.42805 0.0
C900 C 0.9365 0.11868 0.40715 0.0
C901 C 0.98872 0.11502 0.4151 0.0
C902 C 0.93143 0.15101 0.3594 0.0
C903 C 0.86444 0.13825 0.38928 0.0
N904 N 0.9707 0.13083 0.40439 0.0
N905 N 0.88486 0.12921 0.40634 0.0
H906 H 0.8546 0.8743 0.30821 0.0
H907 H 0.98641 0.88271 0.44984 0.0
H908 H 0.87091 0.79016 0.32971 0.0
H909 H 0.97895 0.96623 0.41385 0.0
H910 H 0.94255 0.84827 0.40894 0.0
H911 H 0.89838 0.90796 0.34895 0.0
C912 C 0.86764 0.86282 0.32096 0.0
C913 C 0.85923 0.82917 0.31458 0.0
C914 C 0.95051 0.87414 0.41003 0.0
C915 C 0.90929 0.86794 0.36274 0.0
C916 C 0.97557 0.89388 0.43352 0.0
C917 C 0.98669 0.92762 0.4355 0.0
C918 C 0.93608 0.88807 0.38838 0.0
C919 C 0.97149 0.94047 0.41341 0.0
C920 C 0.89257 0.88214 0.34463 0.0
C921 C 0.87651 0.81592 0.33335 0.0
N922 N 0.94714 0.92082 0.39103 0.0
N923 N 0.90055 0.83522 0.35643 0.0
H924 H 0.23218 0.82895 0.43312 0.0
H925 H 0.07959 0.87142 0.5158 0.0
H926 H 0.13999 0.76695 0.48909 0.0
H927 H 0.17364 0.94185 0.47675 0.0
H928 H 0.10945 0.83962 0.53018 0.0
H929 H 0.22326 0.87508 0.47563 0.0
C930 C 0.21053 0.82475 0.45518 0.0
C931 C 0.18413 0.79484 0.45377 0.0
C932 C 0.12392 0.86199 0.5185 0.0
C933 C 0.17486 0.84674 0.50347 0.0
C934 C 0.1067 0.87991 0.50957 0.0
C935 C 0.12414 0.9086 0.49352 0.0
C936 C 0.15887 0.8715 0.50883 0.0
C937 C 0.1593 0.91925 0.48793 0.0
C938 C 0.20564 0.85122 0.47972 0.0
C939 C 0.15932 0.79012 0.48608 0.0
N940 N 0.17558 0.90011 0.49436 0.0
N941 N 0.15449 0.81616 0.50886 0.0
H942 H 0.22079 0.88882 0.652 0.0
H943 H 0.05326 0.90042 0.59851 0.0
H944 H 0.12533 0.85722 0.7231 0.0
H945 H 0.15313 0.96728 0.57209 0.0
H946 H 0.07738 0.86854 0.62665 0.0
H947 H 0.19333 0.90042 0.60368 0.0
C948 C 0.19387 0.88344 0.65672 0.0
C949 C 0.17514 0.87242 0.69141 0.0
C950 C 0.09389 0.88992 0.61401 0.0
C951 C 0.14389 0.88575 0.63711 0.0
C952 C 0.0802 0.908 0.59809 0.0
C953 C 0.10131 0.93661 0.58367 0.0
C954 C 0.12878 0.90039 0.6146 0.0
C955 C 0.13604 0.9456 0.58364 0.0
C956 C 0.17829 0.89016 0.62941 0.0
C957 C 0.14044 0.86595 0.69664 0.0
N958 N 0.14871 0.92757 0.59893 0.0
N959 N 0.12589 0.87309 0.66994 0.0
H960 H 0.20707 0.23903 0.67802 0.0
H961 H 0.10388 0.05876 0.58967 0.0
H962 H 0.22478 0.1555 0.6992 0.0
H963 H 0.09544 0.14297 0.55675 0.0
H964 H 0.14656 0.09349 0.63112 0.0
H965 H 0.16518 0.20438 0.63566 0.0
C966 C 0.20222 0.21337 0.67394 0.0
C967 C 0.21979 0.2004 0.69266 0.0
C968 C 0.1355 0.10447 0.61482 0.0
C969 C 0.17101 0.16009 0.64356 0.0
C970 C 0.11096 0.08459 0.591 0.0
C971 C 0.09572 0.09775 0.56934 0.0
C972 C 0.14512 0.1381 0.61763 0.0
C973 C 0.10634 0.13154 0.57262 0.0
C974 C 0.17813 0.19353 0.64954 0.0
C975 C 0.21192 0.16678 0.68586 0.0
N976 N 0.13015 0.15042 0.5963 0.0
N977 N 0.18821 0.14792 0.66206 0.0
H978 H 0.94245 0.25904 0.52891 0.0
H979 H 0.90791 0.08126 0.53015 0.0
H980 H 0.84603 0.1942 0.57184 0.0
H981 H 1.0011 0.15685 0.50057 0.0
H982 H 0.87725 0.11502 0.51906 0.0
H983 H 0.9509 0.2155 0.48204 0.0
C984 C 0.9224 0.23596 0.52808 0.0
C985 C 0.89535 0.22924 0.55789 0.0
C986 C 0.90441 0.12381 0.51436 0.0
C987 C 0.90655 0.1791 0.50667 0.0
C988 C 0.92182 0.10488 0.52141 0.0
C989 C 0.957 0.11689 0.51782 0.0
C990 C 0.92251 0.15459 0.50318 0.0
C991 C 0.97397 0.14712 0.50525 0.0
C992 C 0.92748 0.21075 0.5013 0.0
C993 C 0.86933 0.19938 0.55239 0.0
N994 N 0.9566 0.16485 0.49857 0.0
N995 N 0.87645 0.17447 0.52921 0.0
H996 H 0.88632 0.80682 0.66653 0.0
H997 H 0.97645 0.98851 0.65059 0.0
H998 H 0.83066 0.86945 0.71896 0.0
H999 H 0.96665 0.9218 0.54449 0.0
H1000 H 0.93137 0.94677 0.68491 0.0
H1001 H 0.92567 0.85002 0.62966 0.0
C1002 C 0.8825 0.82973 0.67027 0.0
C1003 C 0.8552 0.83466 0.69547 0.0
C1004 C 0.93892 0.94158 0.65401 0.0
C1005 C 0.90043 0.88415 0.65455 0.0
C1006 C 0.96452 0.96527 0.63446 0.0
C1007 C 0.97504 0.95869 0.59458 0.0
C1008 C 0.92476 0.9108 0.63384 0.0
C1009 C 0.95901 0.92802 0.57511 0.0
C1010 C 0.90477 0.85419 0.64919 0.0
C1011 C 0.85127 0.86473 0.69942 0.0
N1012 N 0.93514 0.90501 0.59509 0.0
N1013 N 0.87398 0.88862 0.6796 0.0
H1014 H 0.29337 0.17413 0.17706 0.0
H1015 H 0.47325 0.15104 0.13984 0.0
H1016 H 0.38411 0.24492 0.21628 0.0
H1017 H 0.39165 0.08605 0.07755 0.0
H1018 H 0.43847 0.18267 0.1707 0.0
H1019 H 0.3259 0.13996 0.14313 0.0
C1020 C 0.32011 0.18281 0.17833 0.0
C1021 C 0.33577 0.21309 0.19942 0.0
C1022 C 0.42787 0.16153 0.15039 0.0
C1023 C 0.37342 0.17305 0.16115 0.0
C1024 C 0.44786 0.14308 0.13256 0.0
C1025 C 0.43578 0.11533 0.10563 0.0
C1026 C 0.39481 0.15265 0.14199 0.0
C1027 C 0.40234 0.107 0.09804 0.0
C1028 C 0.33871 0.16302 0.15902 0.0
C1029 C 0.37055 0.22209 0.20055 0.0
N1030 N 0.38311 0.12546 0.11607 0.0
N1031 N 0.38788 0.20233 0.182 0.0
H1032 H 0.88675 0.357 0.23747 0.0
H1033 H 0.94843 0.45074 0.04906 0.0
H1034 H 0.82896 0.3313 0.14061 0.0
H1035 H 1.00902 0.46331 0.14016 0.0
H1036 H 0.90115 0.41251 0.08529 0.0
H1037 H 0.92829 0.40099 0.2053 0.0
C1038 C 0.88278 0.36064 0.20932 0.0
C1039 C 0.85459 0.34004 0.19141 0.0
C1040 C 0.92468 0.42398 0.09751 0.0
C1041 C 0.90223 0.39105 0.15427 0.0
C1042 C 0.95161 0.44605 0.07705 0.0
C1043 C 0.98284 0.46032 0.09156 0.0
C1044 C 0.92894 0.41633 0.13289 0.0
C1045 C 0.98555 0.45288 0.1277 0.0
C1046 C 0.90652 0.38594 0.19098 0.0
C1047 C 0.85039 0.34656 0.15539 0.0
N1048 N 0.95912 0.43141 0.14691 0.0
N1049 N 0.87412 0.37136 0.1378 0.0
H1050 H 0.73166 0.87641 0.0898 0.0
H1051 H 0.55597 0.89859 0.09172 0.0
H1052 H 0.65121 0.8594 0.18469 0.0
H1053 H 0.6357 0.92135 0.99691 0.0
H1054 H 0.58705 0.87387 0.11953 0.0
H1055 H 0.69426 0.88349 0.04953 0.0
C1056 C 0.70597 0.8736 0.10188 0.0
C1057 C 0.69463 0.86779 0.14082 0.0
C1058 C 0.59766 0.8837 0.09225 0.0
C1059 C 0.65185 0.87588 0.09514 0.0
C1060 C 0.57976 0.89761 0.07625 0.0
C1061 C 0.59328 0.91186 0.04195 0.0
C1062 C 0.62983 0.88472 0.07437 0.0
C1063 C 0.62429 0.91024 0.02316 0.0
C1064 C 0.6847 0.87776 0.07898 0.0
C1065 C 0.66117 0.86445 0.15507 0.0
N1066 N 0.64187 0.89742 0.03999 0.0
N1067 N 0.64114 0.86879 0.13241 0.0
H1068 H 0.25698 0.70318 0.14147 0.0
H1069 H 0.06302 0.62843 0.11163 0.0
H1070 H 0.17553 0.72219 0.22103 0.0
H1071 H 0.13183 0.58131 0.04938 0.0
H1072 H 0.10768 0.66706 0.14606 0.0
H1073 H 0.2151 0.6618 0.10229 0.0
C1074 C 0.23053 0.69877 0.15076 0.0
C1075 C 0.21997 0.71647 0.18467 0.0
C1076 C 0.11324 0.64827 0.12505 0.0
C1077 C 0.17235 0.66964 0.14005 0.0
C1078 C 0.08761 0.62609 0.10514 0.0
C1079 C 0.09348 0.60132 0.07756 0.0
C1080 C 0.14546 0.64614 0.11761 0.0
C1081 C 0.12611 0.59985 0.07068 0.0
C1082 C 0.20673 0.67514 0.12845 0.0
C1083 C 0.18532 0.70964 0.19518 0.0
N1084 N 0.15104 0.62207 0.09056 0.0
N1085 N 0.16305 0.68704 0.17302 0.0
H1086 H 0.37234 0.78672 0.83536 0.0
H1087 H 0.45681 0.97003 0.9301 0.0
H1088 H 0.34398 0.86464 0.8154 0.0
H1089 H 0.49298 0.893 0.9334 0.0
H1090 H 0.41094 0.93125 0.89473 0.0
H1091 H 0.4123 0.8248 0.87801 0.0
C1092 C 0.37433 0.81178 0.84008 0.0
C1093 C 0.35487 0.8224 0.82134 0.0
C1094 C 0.42889 0.92291 0.90341 0.0
C1095 C 0.40076 0.86638 0.87047 0.0
C1096 C 0.45501 0.94502 0.92372 0.0
C1097 C 0.47913 0.93495 0.9344 0.0
C1098 C 0.4267 0.89046 0.89409 0.0
C1099 C 0.47538 0.90213 0.92536 0.0
C1100 C 0.39723 0.83358 0.86445 0.0
C1101 C 0.35848 0.85525 0.829 0.0
N1102 N 0.44988 0.88124 0.90575 0.0
N1103 N 0.38106 0.87605 0.85275 0.0
H1104 H 0.18828 0.2772 0.81976 0.0
H1105 H 0.17885 0.45257 0.91464 0.0
H1106 H 0.27517 0.36369 0.82032 0.0
H1107 H 0.09205 0.3665 0.903 0.0
H1108 H 0.2148 0.42087 0.88314 0.0
H1109 H 0.15355 0.3092 0.85334 0.0
C1110 C 0.2002 0.30292 0.82688 0.0
C1111 C 0.23493 0.31756 0.81627 0.0
C1112 C 0.18788 0.40889 0.88746 0.0
C1113 C 0.19469 0.35498 0.85543 0.0
C1114 C 0.16722 0.42708 0.90555 0.0
C1115 C 0.13199 0.41256 0.91156 0.0
C1116 C 0.17355 0.37557 0.87531 0.0
C1117 C 0.11885 0.37917 0.89901 0.0
C1118 C 0.18019 0.32133 0.84608 0.0
C1119 C 0.24853 0.35118 0.82693 0.0
N1120 N 0.13939 0.36207 0.88175 0.0
N1121 N 0.22857 0.36856 0.84563 0.0
H1122 H 0.70217 0.17886 0.77611 0.0
H1123 H 0.64551 0.11546 0.98295 0.0
H1124 H 0.7652 0.2138 0.86863 0.0
H1125 H 0.59582 0.06489 0.88196 0.0
H1126 H 0.69122 0.14937 0.94099 0.0
H1127 H 0.66418 0.13585 0.81336 0.0
C1128 C 0.70799 0.17748 0.80435 0.0
C1129 C 0.73671 0.20018 0.8195 0.0
C1130 C 0.67083 0.13038 0.92772 0.0
C1131 C 0.69316 0.15086 0.86251 0.0
C1132 C 0.64488 0.11074 0.95166 0.0
C1133 C 0.61718 0.08686 0.93583 0.0
C1134 C 0.66872 0.12684 0.88757 0.0
C1135 C 0.61708 0.08251 0.89523 0.0
C1136 C 0.68641 0.15272 0.82548 0.0
C1137 C 0.74325 0.19692 0.85598 0.0
N1138 N 0.64216 0.10267 0.87257 0.0
N1139 N 0.72146 0.17298 0.87642 0.0
H1140 H 0.90017 0.74777 0.9918 0.0
H1141 H 0.96804 0.60229 0.91454 0.0
H1142 H 0.9268 0.71735 0.87012 0.0
H1143 H 0.98142 0.65374 0.03048 0.0
H1144 H 0.9432 0.63921 0.90162 0.0
H1145 H 0.92165 0.70936 0.00977 0.0
C1146 C 0.91047 0.73315 0.96883 0.0
C1147 C 0.91136 0.73583 0.92923 0.0
C1148 C 0.95152 0.6425 0.92994 0.0
C1149 C 0.9353 0.69147 0.9498 0.0
C1150 C 0.96573 0.62134 0.93746 0.0
C1151 C 0.97724 0.62502 0.97362 0.0
C1152 C 0.94844 0.66766 0.95874 0.0
C1153 C 0.97303 0.65007 1.00216 0.0
C1154 C 0.9226 0.71117 0.9792 0.0
C1155 C 0.92465 0.7158 0.90094 0.0
N1156 N 0.95899 0.67056 0.9941 0.0
N1157 N 0.93591 0.69452 0.91178 0.0
H1158 H 0.21786 0.35197 0.09852 0.0
H1159 H 0.07943 0.38349 1.00202 0.0
H1160 H 0.13706 0.27557 0.04563 0.0
H1161 H 0.15954 0.45832 0.05803 0.0
H1162 H 0.10236 0.3436 0.01262 0.0
H1163 H 0.19872 0.39129 0.07955 0.0
C1164 C 0.19603 0.34344 0.083 0.0
C1165 C 0.17892 0.31037 0.07398 0.0
C1166 C 0.11496 0.36878 0.02241 0.0
C1167 C 0.15692 0.35539 0.05177 0.0
C1168 C 0.1019 0.39157 0.01633 0.0
C1169 C 0.11732 0.4243 0.02957 0.0
C1170 C 0.1436 0.37882 0.0419 0.0
C1171 C 0.14654 0.43337 0.04766 0.0
C1172 C 0.1852 0.36593 0.07193 0.0
C1173 C 0.15118 0.3008 0.05302 0.0
N1174 N 0.15855 0.41079 0.05348 0.0
N1175 N 0.14093 0.32318 0.04284 0.0
H1176 H 0.23417 0.65709 0.76754 0.0
H1177 H 0.13319 0.63185 0.98064 0.0
H1178 H 0.24836 0.73035 0.86733 0.0
H1179 H 0.11076 0.55861 0.88151 0.0
H1180 H 0.18087 0.66505 0.94067 0.0
H1181 H 0.19402 0.61825 0.80929 0.0
C1182 C 0.22892 0.66499 0.79827 0.0
C1183 C 0.24399 0.69724 0.81382 0.0
C1184 C 0.16592 0.64159 0.92756 0.0
C1185 C 0.19842 0.65283 0.86184 0.0
C1186 C 0.13876 0.62251 0.95047 0.0
C1187 C 0.11791 0.5925 0.93429 0.0
C1188 C 0.17235 0.63086 0.88781 0.0
C1189 C 0.12633 0.58153 0.89513 0.0
C1190 C 0.20599 0.6428 0.82206 0.0
C1191 C 0.23663 0.70599 0.8539 0.0
N1192 N 0.1527 0.60093 0.87299 0.0
N1193 N 0.21428 0.68402 0.87641 0.0
H1194 H 0.42102 0.17987 0.83105 0.0
H1195 H 0.44423 0.12165 0.02298 0.0
H1196 H 0.34177 0.15537 0.92615 0.0
H1197 H 0.51628 0.13716 0.92004 0.0
H1198 H 0.41043 0.14427 0.99529 0.0
H1199 H 0.45992 0.17506 0.87017 0.0
C1200 C 0.41195 0.17391 0.8605 0.0
C1201 C 0.37805 0.16768 0.87522 0.0
C1202 C 0.43402 0.14338 0.97918 0.0
C1203 C 0.42248 0.1615 0.92029 0.0
C1204 C 0.45349 0.1308 0.99524 0.0
C1205 C 0.48311 0.12759 0.97384 0.0
C1206 C 0.44446 0.15289 0.94156 0.0
C1207 C 0.49357 0.13916 0.93751 0.0
C1208 C 0.43416 0.17108 0.88287 0.0
C1209 C 0.36772 0.16034 0.91373 0.0
N1210 N 0.47423 0.15101 0.92248 0.0
N1211 N 0.38972 0.15694 0.93476 0.0
H1212 H 0.8865 0.35293 0.7742 0.0
H1213 H 0.96751 0.39369 0.96778 0.0
H1214 H 0.82783 0.30834 0.87464 0.0
H1215 H 0.98099 0.4683 0.89838 0.0
H1216 H 0.92052 0.35804 0.93188 0.0
H1217 H 0.92634 0.39197 0.81653 0.0
C1218 C 0.88193 0.35164 0.80532 0.0
C1219 C 0.85381 0.32778 0.82119 0.0
C1220 C 0.93363 0.38235 0.92494 0.0
C1221 C 0.8997 0.37152 0.86946 0.0
C1222 C 0.9605 0.40259 0.94515 0.0
C1223 C 0.97826 0.43394 0.93589 0.0
C1224 C 0.92519 0.39331 0.89463 0.0
C1225 C 0.96799 0.44435 0.90651 0.0
C1226 C 0.90455 0.37389 0.8294 0.0
C1227 C 0.84902 0.32683 0.86159 0.0
N1228 N 0.94252 0.42392 0.88649 0.0
N1229 N 0.87213 0.34814 0.88443 0.0
H1230 H 0.78385 0.86436 0.83668 0.0
H1231 H 0.60336 0.88678 0.87692 0.0
H1232 H 0.6924 0.79315 0.79987 0.0
H1233 H 0.68591 0.95324 0.9366 0.0
H1234 H 0.63814 0.85517 0.84596 0.0
H1235 H 0.75158 0.89882 0.8708 0.0
C1236 C 0.75704 0.85567 0.83593 0.0
C1237 C 0.74111 0.82519 0.81541 0.0
C1238 C 0.64896 0.87662 0.86572 0.0
C1239 C 0.70371 0.86548 0.85402 0.0
C1240 C 0.62895 0.89505 0.88362 0.0
C1241 C 0.64127 0.92323 0.90985 0.0
C1242 C 0.68232 0.88592 0.87332 0.0
C1243 C 0.67499 0.93194 0.9167 0.0
C1244 C 0.73857 0.87561 0.85538 0.0
C1245 C 0.7062 0.81612 0.81513 0.0
N1246 N 0.69423 0.91349 0.8986 0.0
N1247 N 0.68903 0.83598 0.83378 0.0
H1248 H 0.88376 0.75032 0.18414 0.0
H1249 H 0.88475 0.57393 0.08222 0.0
H1250 H 0.79463 0.6663 0.1927 0.0
H1251 H 0.97292 0.65396 0.11228 0.0
H1252 H 0.85001 0.60721 0.1141 0.0
H1253 H 0.91527 0.71583 0.14896 0.0
C1254 C 0.87068 0.72463 0.17864 0.0
C1255 C 0.83636 0.71144 0.19223 0.0
C1256 C 0.87701 0.61739 0.11358 0.0
C1257 C 0.87273 0.67118 0.15101 0.0
C1258 C 0.89691 0.59836 0.09521 0.0
C1259 C 0.9321 0.61074 0.09455 0.0
C1260 C 0.89233 0.6494 0.13073 0.0
C1261 C 0.94605 0.64283 0.11213 0.0
C1262 C 0.88881 0.7048 0.15853 0.0
C1263 C 0.8211 0.67773 0.18362 0.0
N1264 N 0.92641 0.66076 0.12901 0.0
N1265 N 0.83922 0.65892 0.16369 0.0
H1266 H 0.30415 0.83313 0.14995 0.0
H1267 H 0.47613 0.98447 0.13085 0.0
H1268 H 0.3681 0.87458 0.24123 0.0
H1269 H 0.43469 0.91849 0.03222 0.0
H1270 H 0.42777 0.95402 0.17413 0.0
H1271 H 0.34316 0.87378 0.10912 0.0
C1272 C 0.32603 0.85115 0.16164 0.0
C1273 C 0.33315 0.85031 0.19881 0.0
C1274 C 0.42895 0.94667 0.1429 0.0
C1275 C 0.37764 0.89689 0.15261 0.0
C1276 C 0.45633 0.96426 0.11822 0.0
C1277 C 0.45932 0.95402 0.07794 0.0
C1278 C 0.40422 0.91897 0.12708 0.0
C1279 C 0.43326 0.92718 0.06316 0.0
C1280 C 0.34835 0.87421 0.13832 0.0
C1281 C 0.36194 0.87414 0.21251 0.0
N1282 N 0.40695 0.91054 0.08764 0.0
N1283 N 0.38313 0.89633 0.18946 0.0
H1284 H 0.75848 0.21929 0.12637 0.0
H1285 H 0.56764 0.11993 0.13237 0.0
H1286 H 0.70365 0.18565 0.23442 0.0
H1287 H 0.63509 0.08788 0.04258 0.0
H1288 H 0.61569 0.15406 0.16712 0.0
H1289 H 0.71228 0.18053 0.09122 0.0
C1290 C 0.73683 0.20349 0.14254 0.0
C1291 C 0.73487 0.20529 0.18319 0.0
C1292 C 0.61986 0.13949 0.13984 0.0
C1293 C 0.68178 0.16208 0.14361 0.0
C1294 C 0.59257 0.12016 0.11986 0.0
C1295 C 0.59736 0.10105 0.08441 0.0
C1296 C 0.65237 0.14056 0.12373 0.0
C1297 C 0.63027 0.10221 0.06978 0.0
C1298 C 0.71061 0.18149 0.12256 0.0
C1299 C 0.70618 0.18463 0.203 0.0
N1300 N 0.65663 0.12203 0.08917 0.0
N1301 N 0.68044 0.16426 0.18312 0.0
H1302 H 0.69666 0.7214 0.84201 0.0
H1303 H 0.6111 0.53885 0.85381 0.0
H1304 H 0.75581 0.66184 0.79009 0.0
H1305 H 0.6171 0.60438 0.96081 0.0
H1306 H 0.65626 0.5816 0.82111 0.0
H1307 H 0.65791 0.67703 0.87738 0.0
C1308 C 0.70137 0.69891 0.83803 0.0
C1309 C 0.72951 0.69523 0.8134 0.0
C1310 C 0.64792 0.5863 0.85188 0.0
C1311 C 0.68494 0.64435 0.85274 0.0
C1312 C 0.62229 0.56202 0.87053 0.0
C1313 C 0.61059 0.56796 0.91018 0.0
C1314 C 0.66095 0.61702 0.87267 0.0
C1315 C 0.62565 0.59859 0.93037 0.0
C1316 C 0.67943 0.67378 0.85829 0.0
C1317 C 0.73455 0.66563 0.80918 0.0
N1318 N 0.64954 0.62216 0.91122 0.0
N1319 N 0.71215 0.64105 0.82822 0.0
H1320 H 0.37397 0.64567 0.84011 0.0
H1321 H 0.53345 0.62992 0.90828 0.0
H1322 H 0.47355 0.68079 0.7788 0.0
H1323 H 0.43424 0.55819 0.91299 0.0
H1324 H 0.51198 0.66521 0.88264 0.0
H1325 H 0.39724 0.63212 0.89089 0.0
C1326 C 0.40086 0.65159 0.83822 0.0
C1327 C 0.42199 0.66381 0.8053 0.0
C1328 C 0.49498 0.64193 0.89002 0.0
C1329 C 0.44844 0.64832 0.86234 0.0
C1330 C 0.50716 0.62185 0.90432 0.0
C1331 C 0.48566 0.59098 0.91172 0.0
C1332 C 0.46103 0.63116 0.88425 0.0
C1333 C 0.45175 0.58156 0.90662 0.0
C1334 C 0.41405 0.64376 0.86692 0.0
C1335 C 0.45661 0.67101 0.80375 0.0
N1336 N 0.44047 0.60157 0.89314 0.0
N1337 N 0.46881 0.66266 0.83165 0.0
H1338 H 0.3561 0.36648 0.81096 0.0
H1339 H 0.48896 0.38343 0.95495 0.0
H1340 H 0.37984 0.28557 0.82975 0.0
H1341 H 0.47957 0.46418 0.91422 0.0
H1342 H 0.4467 0.34688 0.91319 0.0
H1343 H 0.3989 0.40207 0.85174 0.0
C1344 C 0.37072 0.35616 0.82292 0.0
C1345 C 0.36474 0.32287 0.81571 0.0
C1346 C 0.45391 0.37261 0.91343 0.0
C1347 C 0.41341 0.36381 0.86433 0.0
C1348 C 0.47801 0.39354 0.93742 0.0
C1349 C 0.48808 0.42711 0.93829 0.0
C1350 C 0.43936 0.38519 0.8903 0.0
C1351 C 0.47288 0.43859 0.91463 0.0
C1352 C 0.39502 0.37658 0.84672 0.0
C1353 C 0.38368 0.31104 0.83394 0.0
N1354 N 0.44939 0.4178 0.8919 0.0
N1355 N 0.407 0.33139 0.85732 0.0
H1356 H 0.73826 0.33382 0.93706 0.0
H1357 H 0.67117 0.44803 0.98893 0.0
H1358 H 0.63724 0.26957 0.96466 0.0
H1359 H 0.58032 0.374 0.0282 0.0
H1360 H 0.70287 0.4134 0.99101 0.0
H1361 H 0.72561 0.37603 0.9841 0.0
C1362 C 0.71362 0.32835 0.95379 0.0
C1363 C 0.68796 0.29894 0.94487 0.0
C1364 C 0.67618 0.40476 1.00014 0.0
C1365 C 0.673 0.34715 0.99782 0.0
C1366 C 0.65805 0.42456 0.99847 0.0
C1367 C 0.62303 0.41297 0.00624 0.0
C1368 C 0.65885 0.3733 0.00979 0.0
C1369 C 0.60719 0.38307 0.01992 0.0
C1370 C 0.70627 0.35264 0.98047 0.0
C1371 C 0.65739 0.29235 0.96915 0.0
N1372 N 0.62515 0.36411 0.0207 0.0
N1373 N 0.6504 0.31666 0.99368 0.0
H1374 H 0.71385 0.40521 0.17792 0.0
H1375 H 0.54731 0.40896 0.11265 0.0
H1376 H 0.61578 0.36328 0.24056 0.0
H1377 H 0.6475 0.47463 0.08459 0.0
H1378 H 0.57069 0.37995 0.14661 0.0
H1379 H 0.68796 0.41804 0.1301 0.0
C1380 C 0.68678 0.39833 0.18141 0.0
C1381 C 0.66696 0.38337 0.21352 0.0
C1382 C 0.58743 0.40046 0.13247 0.0
C1383 C 0.6372 0.3987 0.1591 0.0
C1384 C 0.57418 0.41682 0.11311 0.0
C1385 C 0.59558 0.44443 0.09672 0.0
C1386 C 0.62217 0.41168 0.13447 0.0
C1387 C 0.63016 0.45382 0.09773 0.0
C1388 C 0.67203 0.40582 0.15415 0.0
C1389 C 0.63201 0.37542 0.21665 0.0
N1390 N 0.64236 0.43754 0.11643 0.0
N1391 N 0.61817 0.38345 0.1899 0.0
H1392 H 0.70128 0.74788 0.17147 0.0
H1393 H 0.599 0.56509 0.09061 0.0
H1394 H 0.71773 0.66525 0.19771 0.0
H1395 H 0.59126 0.64654 0.04968 0.0
H1396 H 0.64078 0.6018 0.13179 0.0
H1397 H 0.65973 0.7119 0.12882 0.0
C1398 C 0.69611 0.7222 0.16852 0.0
C1399 C 0.71288 0.70971 0.18893 0.0
C1400 C 0.63006 0.61176 0.11381 0.0
C1401 C 0.66506 0.66817 0.13979 0.0
C1402 C 0.60604 0.59072 0.09018 0.0
C1403 C 0.59132 0.60255 0.06641 0.0
C1404 C 0.63964 0.64519 0.11424 0.0
C1405 C 0.60182 0.63618 0.06734 0.0
C1406 C 0.67233 0.70164 0.14405 0.0
C1407 C 0.70507 0.67613 0.18348 0.0
N1408 N 0.62516 0.65625 0.0909 0.0
N1409 N 0.68181 0.65668 0.15968 0.0
H1410 H 0.34442 0.68128 0.07748 0.0
H1411 H 0.49403 0.65668 0.9883 0.0
H1412 H 0.41315 0.74531 0.99803 0.0
H1413 H 0.40584 0.57323 0.00771 0.0
H1414 H 0.45902 0.68472 0.97654 0.0
H1415 H 0.35258 0.63612 0.03391 0.0
C1416 C 0.36017 0.68603 0.05003 0.0
C1417 C 0.38072 0.71746 0.04312 0.0
C1418 C 0.44711 0.66009 0.98272 0.0
C1419 C 0.39118 0.6657 0.99422 0.0
C1420 C 0.46713 0.64434 0.9904 0.0
C1421 C 0.45262 0.61309 1.00049 0.0
C1422 C 0.41206 0.64513 0.98705 0.0
C1423 C 0.41781 0.59775 1.00116 0.0
C1424 C 0.36491 0.65988 0.02494 0.0
C1425 C 0.3991 0.72148 0.00605 0.0
N1426 N 0.3985 0.61428 0.99567 0.0
N1427 N 0.40526 0.69587 0.98354 0.0
H1428 H 0.39457 0.333 0.21004 0.0
H1429 H 0.438 0.45243 0.05379 0.0
H1430 H 0.31385 0.35406 0.17684 0.0
H1431 H 0.49875 0.46923 0.14623 0.0
H1432 H 0.39318 0.4105 0.08839 0.0
H1433 H 0.4349 0.37631 0.17544 0.0
C1434 C 0.3852 0.34689 0.19586 0.0
C1435 C 0.35059 0.3404 0.19759 0.0
C1436 C 0.41628 0.42375 0.10105 0.0
C1437 C 0.39705 0.38939 0.15625 0.0
C1438 C 0.4418 0.44764 0.08143 0.0
C1439 C 0.47221 0.4646 0.09712 0.0
C1440 C 0.42172 0.41623 0.13589 0.0
C1441 C 0.47579 0.45712 0.13295 0.0
C1442 C 0.40834 0.37153 0.17589 0.0
C1443 C 0.34025 0.35852 0.17694 0.0
N1444 N 0.45116 0.43331 0.1507 0.0
N1445 N 0.36338 0.38216 0.157 0.0
H1446 H 0.80137 0.67075 0.66916 0.0
H1447 H 0.98005 0.64394 0.63111 0.0
H1448 H 0.8915 0.73882 0.71299 0.0
H1449 H 0.8977 0.58223 0.56812 0.0
H1450 H 0.94649 0.67718 0.66244 0.0
H1451 H 0.834 0.63716 0.63348 0.0
C1452 C 0.82798 0.67898 0.67111 0.0
C1453 C 0.8434 0.70832 0.69411 0.0
C1454 C 0.93558 0.65649 0.64171 0.0
C1455 C 0.88125 0.66892 0.65361 0.0
C1456 C 0.95488 0.63727 0.62363 0.0
C1457 C 0.94208 0.60991 0.5965 0.0
C1458 C 0.90255 0.6486 0.6334 0.0
C1459 C 0.90901 0.60302 0.5885 0.0
C1460 C 0.84667 0.65952 0.65076 0.0
C1461 C 0.87807 0.71673 0.69583 0.0
N1462 N 0.89048 0.622 0.60688 0.0
N1463 N 0.89549 0.69731 0.67622 0.0
H1464 H 0.35873 0.80388 0.62457 0.0
H1465 H 0.46047 0.99341 0.64973 0.0
H1466 H 0.35668 0.86742 0.73241 0.0
H1467 H 0.4746 0.93135 0.54379 0.0
H1468 H 0.42354 0.94648 0.68025 0.0
H1469 H 0.40186 0.84892 0.59406 0.0
C1470 C 0.36743 0.82721 0.64185 0.0
C1471 C 0.35409 0.83184 0.68113 0.0
C1472 C 0.43483 0.94293 0.65041 0.0
C1473 C 0.40295 0.88352 0.64634 0.0
C1474 C 0.45602 0.96983 0.63292 0.0
C1475 C 0.47063 0.96642 0.59403 0.0
C1476 C 0.42765 0.91214 0.6289 0.0
C1477 C 0.46399 0.93512 0.57388 0.0
C1478 C 0.39198 0.85292 0.62441 0.0
C1479 C 0.36594 0.86271 0.70196 0.0
N1480 N 0.4427 0.90919 0.59142 0.0
N1481 N 0.38953 0.88725 0.68434 0.0
H1482 H 0.24272 0.37799 0.60099 0.0
H1483 H 0.07679 0.40439 0.56542 0.0
H1484 H 0.15556 0.36508 0.68721 0.0
H1485 H 0.17617 0.45349 0.51118 0.0
H1486 H 0.1007 0.37579 0.59904 0.0
H1487 H 0.21341 0.39142 0.55661 0.0
C1488 C 0.21719 0.37742 0.6103 0.0
C1489 C 0.20165 0.37076 0.64796 0.0
C1490 C 0.11709 0.39245 0.57924 0.0
C1491 C 0.16807 0.38611 0.59742 0.0
C1492 C 0.10348 0.40853 0.55993 0.0
C1493 C 0.12468 0.43146 0.53593 0.0
C1494 C 0.15194 0.399 0.57372 0.0
C1495 C 0.15909 0.43622 0.52987 0.0
C1496 C 0.20058 0.38524 0.58507 0.0
C1497 C 0.1686 0.37057 0.65862 0.0
N1498 N 0.17168 0.42023 0.54874 0.0
N1499 N 0.15293 0.37833 0.63354 0.0
H1500 H 0.69514 0.19158 0.71057 0.0
H1501 H 0.67657 0.06264 0.51981 0.0
H1502 H 0.7813 0.18938 0.62729 0.0
H1503 H 0.59481 0.08906 0.58863 0.0
H1504 H 0.71599 0.106 0.5592 0.0
H1505 H 0.65894 0.15069 0.66743 0.0
C1506 C 0.70656 0.18277 0.68292 0.0
C1507 C 0.74143 0.19461 0.67227 0.0
C1508 C 0.68944 0.10233 0.5654 0.0
C1509 C 0.69955 0.14664 0.62257 0.0
C1510 C 0.66688 0.07758 0.54301 0.0
C1511 C 0.63219 0.07196 0.55104 0.0
C1512 C 0.67716 0.12135 0.59625 0.0
C1513 C 0.62121 0.09224 0.58136 0.0
C1514 C 0.68571 0.1592 0.65825 0.0
C1515 C 0.75454 0.18122 0.6365 0.0
N1516 N 0.64353 0.11576 0.60291 0.0
N1517 N 0.73355 0.15786 0.61285 0.0
H1518 H 0.86743 0.30545 0.34681 0.0
H1519 H 0.90679 0.48353 0.46203 0.0
H1520 H 0.81409 0.36803 0.33781 0.0
H1521 H 0.9805 0.43639 0.43414 0.0
H1522 H 0.86761 0.43725 0.42647 0.0
H1523 H 0.90389 0.34906 0.38877 0.0
C1524 C 0.86311 0.32817 0.35379 0.0
C1525 C 0.83777 0.33302 0.3381 0.0
C1526 C 0.89231 0.43698 0.42825 0.0
C1527 C 0.87929 0.38297 0.38675 0.0
C1528 C 0.91471 0.46337 0.44868 0.0
C1529 C 0.94717 0.46404 0.45093 0.0
C1530 C 0.90209 0.41068 0.41031 0.0
C1531 C 0.95588 0.4371 0.43291 0.0
C1532 C 0.88406 0.3531 0.37771 0.0
C1533 C 0.83334 0.36304 0.3488 0.0
N1534 N 0.93348 0.41152 0.41344 0.0
N1535 N 0.85385 0.38677 0.37234 0.0
H1536 H 0.6843 0.78683 0.31661 0.0
H1537 H 0.67934 0.95953 0.42596 0.0
H1538 H 0.77237 0.87225 0.31409 0.0
H1539 H 0.59249 0.88389 0.38447 0.0
H1540 H 0.71396 0.92629 0.39498 0.0
H1541 H 0.65087 0.81992 0.35098 0.0
C1542 C 0.69674 0.81253 0.32326 0.0
C1543 C 0.73139 0.82657 0.31166 0.0
C1544 C 0.68729 0.91692 0.39282 0.0
C1545 C 0.69282 0.86504 0.35212 0.0
C1546 C 0.66739 0.93588 0.41076 0.0
C1547 C 0.63269 0.92481 0.40792 0.0
C1548 C 0.67249 0.88613 0.37245 0.0
C1549 C 0.61901 0.89379 0.38747 0.0
C1550 C 0.67751 0.83151 0.34291 0.0
C1551 C 0.74576 0.86019 0.32169 0.0
N1552 N 0.6387 0.87571 0.37091 0.0
N1553 N 0.7266 0.8781 0.3413 0.0
H1554 H 0.22678 0.73944 0.38218 0.0
H1555 H 0.11594 0.55156 0.35231 0.0
H1556 H 0.21635 0.68011 0.27066 0.0
H1557 H 0.10818 0.61112 0.46229 0.0
H1558 H 0.15366 0.59902 0.32312 0.0
H1559 H 0.18556 0.69343 0.41353 0.0
C1560 C 0.21568 0.71688 0.3643 0.0
C1561 C 0.22512 0.71365 0.32374 0.0
C1562 C 0.14359 0.60195 0.35357 0.0
C1563 C 0.17766 0.66116 0.3592 0.0
C1564 C 0.12188 0.57474 0.37031 0.0
C1565 C 0.10864 0.57719 0.40988 0.0
C1566 C 0.15284 0.6322 0.37647 0.0
C1567 C 0.11746 0.60806 0.43158 0.0
C1568 C 0.19219 0.69064 0.38217 0.0
C1569 C 0.21014 0.68374 0.30203 0.0
N1570 N 0.13924 0.63429 0.41473 0.0
N1571 N 0.18727 0.65889 0.31993 0.0
H1572 H 0.44619 0.27178 0.45317 0.0
H1573 H 0.42034 0.08541 0.44488 0.0
H1574 H 0.36685 0.19355 0.40024 0.0
H1575 H 0.50395 0.16183 0.4927 0.0
H1576 H 0.40104 0.1253 0.42832 0.0
H1577 H 0.46797 0.23264 0.46831 0.0
C1578 C 0.43326 0.24639 0.44484 0.0
C1579 C 0.40458 0.23599 0.42536 0.0
C1580 C 0.42368 0.13348 0.44231 0.0
C1581 C 0.4296 0.19107 0.44237 0.0
C1582 C 0.43478 0.11064 0.45183 0.0
C1583 C 0.46387 0.12024 0.47025 0.0
C1584 C 0.44162 0.16636 0.45138 0.0
C1585 C 0.48146 0.15334 0.4784 0.0
C1586 C 0.44585 0.22408 0.4533 0.0
C1587 C 0.38923 0.20279 0.41481 0.0
N1588 N 0.46998 0.17525 0.46903 0.0
N1589 N 0.40186 0.1816 0.42353 0.0
H1590 H 0.71128 0.84553 0.61161 0.0
H1591 H 0.5725 0.87788 0.51642 0.0
H1592 H 0.62565 0.76938 0.5675 0.0
H1593 H 0.66056 0.95226 0.55781 0.0
H1594 H 0.5901 0.8376 0.53647 0.0
H1595 H 0.69153 0.88492 0.59395 0.0
C1596 C 0.68819 0.83707 0.59845 0.0
C1597 C 0.67015 0.80404 0.59104 0.0
C1598 C 0.60549 0.86276 0.54119 0.0
C1599 C 0.64747 0.84915 0.57025 0.0
C1600 C 0.59542 0.88576 0.52981 0.0
C1601 C 0.61506 0.91851 0.5354 0.0
C1602 C 0.63537 0.87264 0.55831 0.0
C1603 C 0.64459 0.92731 0.55282 0.0
C1604 C 0.677 0.8596 0.58813 0.0
C1605 C 0.64064 0.79456 0.57331 0.0
N1606 N 0.6538 0.90457 0.56358 0.0
N1607 N 0.63022 0.81698 0.56353 0.0
H1608 H 0.7679 0.19349 0.33562 0.0
H1609 H 0.58231 0.10135 0.43011 0.0
H1610 H 0.68464 0.21774 0.31603 0.0
H1611 H 0.65702 0.05629 0.38854 0.0
H1612 H 0.62039 0.1499 0.4011 0.0
H1613 H 0.72854 0.14897 0.3692 0.0
C1614 C 0.74136 0.18961 0.33848 0.0
C1615 C 0.72969 0.20933 0.32242 0.0
C1616 C 0.62819 0.12924 0.39839 0.0
C1617 C 0.68433 0.15864 0.3619 0.0
C1618 C 0.60656 0.1016 0.41489 0.0
C1619 C 0.61629 0.07453 0.41145 0.0
C1620 C 0.66004 0.13002 0.37941 0.0
C1621 C 0.64814 0.07631 0.39158 0.0
C1622 C 0.7189 0.16423 0.35783 0.0
C1623 C 0.69493 0.20357 0.32824 0.0
N1624 N 0.66884 0.10354 0.37668 0.0
N1625 N 0.67343 0.17869 0.34741 0.0
H1626 H 0.91547 0.66853 0.3075 0.0
H1627 H 0.92306 0.6168 0.50869 0.0
H1628 H 0.84234 0.66904 0.40886 0.0
H1629 H 1.0011 0.62388 0.4118 0.0
H1630 H 0.89842 0.64508 0.47654 0.0
H1631 H 0.95167 0.66045 0.34791 0.0
C1632 C 0.90716 0.66723 0.33835 0.0
C1633 C 0.87557 0.66894 0.35469 0.0
C1634 C 0.92137 0.6412 0.46256 0.0
C1635 C 0.91695 0.65979 0.40118 0.0
C1636 C 0.93553 0.6253 0.48112 0.0
C1637 C 0.96418 0.61842 0.46291 0.0
C1638 C 0.93547 0.6494 0.42497 0.0
C1639 C 0.97917 0.62921 0.42686 0.0
C1640 C 0.92794 0.66281 0.36146 0.0
C1641 C 0.86644 0.66783 0.39498 0.0
N1642 N 0.96429 0.64372 0.40866 0.0
N1643 N 0.8868 0.66286 0.4167 0.0
H1644 H 0.2983 0.83732 0.3937 0.0
H1645 H 0.48776 0.95201 0.41295 0.0
H1646 H 0.37836 0.85345 0.29805 0.0
H1647 H 0.40592 0.97233 0.49 0.0
H1648 H 0.44727 0.90745 0.3775 0.0
H1649 H 0.33662 0.88005 0.43566 0.0
C1650 C 0.3238 0.84967 0.38155 0.0
C1651 C 0.33515 0.84146 0.34233 0.0
C1652 C 0.43813 0.92161 0.40223 0.0
C1653 C 0.37897 0.88946 0.39009 0.0
C1654 C 0.46127 0.94705 0.42262 0.0
C1655 C 0.45031 0.96629 0.4543 0.0
C1656 C 0.40361 0.91493 0.41363 0.0
C1657 C 0.41551 0.95836 0.46549 0.0
C1658 C 0.34558 0.87393 0.40547 0.0
C1659 C 0.3685 0.85822 0.3282 0.0
N1660 N 0.39332 0.93326 0.44513 0.0
N1661 N 0.38913 0.88112 0.35202 0.0
H1662 H 0.27325 0.36798 0.3374 0.0
H1663 H 0.09397 0.3931 0.37151 0.0
H1664 H 0.1833 0.29783 0.29558 0.0
H1665 H 0.17657 0.45817 0.43201 0.0
H1666 H 0.12774 0.35965 0.34255 0.0
H1667 H 0.24047 0.40204 0.3708 0.0
C1668 C 0.24663 0.3594 0.33543 0.0
C1669 C 0.23133 0.32934 0.31371 0.0
C1670 C 0.13869 0.38116 0.36217 0.0
C1671 C 0.19326 0.36929 0.35154 0.0
C1672 C 0.11927 0.40054 0.37891 0.0
C1673 C 0.13208 0.42899 0.4045 0.0
C1674 C 0.17186 0.38987 0.37037 0.0
C1675 C 0.1653 0.43667 0.41257 0.0
C1676 C 0.22785 0.37914 0.35447 0.0
C1677 C 0.19663 0.3205 0.31182 0.0
N1678 N 0.18395 0.41746 0.39551 0.0
N1679 N 0.17911 0.34019 0.33015 0.0
H1680 H 0.36388 0.20344 0.74878 0.0
H1681 H 0.41994 0.1025 0.55097 0.0
H1682 H 0.33746 0.2077 0.63796 0.0
H1683 H 0.47087 0.12927 0.65368 0.0
H1684 H 0.38509 0.1355 0.58238 0.0
H1685 H 0.39802 0.17087 0.71537 0.0
C1686 C 0.36512 0.1975 0.71735 0.0
C1687 C 0.34757 0.2087 0.69637 0.0
C1688 C 0.40391 0.13411 0.59801 0.0
C1689 C 0.38708 0.17071 0.65726 0.0
C1690 C 0.42383 0.11511 0.58007 0.0
C1691 C 0.44875 0.11286 0.59939 0.0
C1692 C 0.40819 0.15058 0.6361 0.0
C1693 C 0.45232 0.1301 0.63721 0.0
C1694 C 0.38489 0.17895 0.69815 0.0
C1695 C 0.35077 0.20026 0.65546 0.0
N1696 N 0.43233 0.14776 0.65417 0.0
N1697 N 0.36976 0.18172 0.6374 0.0
H1698 H 0.82053 0.3162 0.63534 0.0
H1699 H 1.00317 0.44405 0.58719 0.0
H1700 H 0.89957 0.33213 0.70468 0.0
H1701 H 0.91302 0.46299 0.58225 0.0
H1702 H 0.96832 0.39436 0.61599 0.0
H1703 H 0.85717 0.36186 0.60095 0.0
C1704 C 0.84562 0.32909 0.64318 0.0
C1705 C 0.8568 0.32041 0.67326 0.0
C1706 C 0.95634 0.40944 0.60836 0.0
C1707 C 0.89921 0.372 0.63312 0.0
C1708 C 0.97613 0.43765 0.59189 0.0
C1709 C 0.96098 0.45787 0.58283 0.0
C1710 C 0.92119 0.40098 0.61453 0.0
C1711 C 0.92578 0.44836 0.58937 0.0
C1712 C 0.86652 0.35506 0.62345 0.0
C1713 C 0.88983 0.33781 0.68166 0.0
N1714 N 0.90712 0.42059 0.60455 0.0
N1715 N 0.90989 0.36267 0.66168 0.0
H1716 H 0.21341 0.66795 0.7133 0.0
H1717 H 0.16724 0.58804 0.5032 0.0
H1718 H 0.25146 0.72644 0.61953 0.0
H1719 H 0.09223 0.57255 0.60387 0.0
H1720 H 0.20479 0.63359 0.54287 0.0
H1721 H 0.17475 0.62671 0.67143 0.0
C1722 C 0.21356 0.67201 0.68379 0.0
C1723 C 0.23533 0.7006 0.66984 0.0
C1724 C 0.18 0.62023 0.55599 0.0
C1725 C 0.19199 0.65322 0.62145 0.0
C1726 C 0.15872 0.59419 0.53356 0.0
C1727 C 0.12662 0.57644 0.55033 0.0
C1728 C 0.1694 0.62781 0.59562 0.0
C1729 C 0.11671 0.58558 0.58972 0.0
C1730 C 0.19148 0.6486 0.66003 0.0
C1731 C 0.23463 0.70482 0.6314 0.0
N1732 N 0.13816 0.61028 0.61114 0.0
N1733 N 0.21355 0.68111 0.60819 0.0
loop_
_geom_bond_atom_site_label_1
_geom_bond_atom_site_label_2
_geom_bond_distance
_geom_bond_site_symmetry_2
_ccdc_geom_bond_type
Tb0 N29 2.617 . S
Tb0 N35 2.572 . S
Tb0 O44 2.465 . S
Tb0 O45 2.387 . S
Tb0 O47 2.428 . S
Tb0 O48 2.308 . S
Tb0 O52 2.349 . S
Tb0 O55 2.393 . S
Tb0 C64 2.802 . S
C1 N2 1.379 . S
C1 C4 1.416 . S
C1 C8 1.424 . S
N2 C1 1.379 . S
N2 C5 1.334 . S
N2 Tb11 2.617 . S
C3 C5 1.390 . S
C3 C6 1.339 . S
C3 H23 0.930 . S
C4 C1 1.416 . S
C4 C6 1.416 . S
C4 C10 1.448 . S
C5 N2 1.334 . S
C5 C3 1.390 . S
C5 H16 0.930 . S
C6 C3 1.339 . S
C6 C4 1.416 . S
C6 H27 0.930 . S
C7 C8 1.413 . S
C7 C9 1.427 . S
C7 C13 1.416 . S
C8 C1 1.424 . S
C8 C7 1.413 . S
C8 N12 1.361 . S
C9 C7 1.427 . S
C9 C10 1.328 . S
C9 H24 0.929 . S
C10 C4 1.448 . S
C10 C9 1.328 . S
C10 H25 0.930 . S
Tb11 N2 2.617 . S
Tb11 N12 2.572 . S
Tb11 O46 2.349 . S
Tb11 O49 2.393 . S
Tb11 O50 2.465 . S
Tb11 O51 2.387 . S
Tb11 O53 2.428 . S
Tb11 O54 2.308 . S
Tb11 C75 2.802 . S
N12 C8 1.361 . S
N12 Tb11 2.572 . S
N12 C14 1.340 . S
C13 C7 1.416 . S
C13 C15 1.332 . S
C13 H21 0.931 . S
C14 N12 1.340 . S
C14 C15 1.407 . S
C14 H20 0.930 . S
C15 C13 1.332 . S
C15 C14 1.407 . S
C15 H17 0.929 . S
H16 C5 0.930 . S
H17 C15 0.929 . S
H18 C33 0.930 . S
H19 C40 0.929 . S
H20 C14 0.930 . S
H21 C13 0.931 . S
H22 C36 0.930 . S
H23 C3 0.930 . S
H24 C9 0.929 . S
H25 C10 0.930 . S
H26 C31 0.930 . S
H27 C6 0.930 . S
H28 C39 0.931 . S
N29 Tb0 2.617 . S
N29 C30 1.379 . S
N29 C33 1.334 . S
C30 N29 1.379 . S
C30 C32 1.416 . S
C30 C38 1.424 . S
C31 H26 0.930 . S
C31 C33 1.390 . S
C31 C34 1.339 . S
C32 C30 1.416 . S
C32 C34 1.416 . S
C32 C65 1.448 . S
C33 H18 0.930 . S
C33 N29 1.334 . S
C33 C31 1.390 . S
C34 C31 1.339 . S
C34 C32 1.416 . S
C34 H41 0.930 . S
N35 Tb0 2.572 . S
N35 C36 1.340 . S
N35 C38 1.361 . S
C36 H22 0.930 . S
C36 N35 1.340 . S
C36 C40 1.407 . S
C37 C38 1.413 . S
C37 C39 1.416 . S
C37 C66 1.427 . S
C38 C30 1.424 . S
C38 N35 1.361 . S
C38 C37 1.413 . S
C39 H28 0.931 . S
C39 C37 1.416 . S
C39 C40 1.332 . S
C40 H19 0.929 . S
C40 C36 1.407 . S
C40 C39 1.332 . S
H41 C34 0.930 . S
H42 C65 0.930 . S
H43 C66 0.929 . S
O44 Tb0 2.465 . S
O44 C64 1.264 . S
O45 Tb0 2.387 . S
O45 C56 1.264 . S
O46 Tb11 2.349 . S
O46 C56 1.243 . S
O47 Tb0 2.428 . S
O47 C64 1.256 . S
O48 Tb0 2.308 . S
O48 C63 1.266 . S
O49 Tb11 2.393 . S
O49 C63 1.248 . S
O50 Tb11 2.465 . S
O50 C75 1.264 . S
O51 Tb11 2.387 . S
O51 C67 1.264 . S
O52 Tb0 2.349 . S
O52 C67 1.243 . S
O53 Tb11 2.428 . S
O53 C75 1.256 . S
O54 Tb11 2.308 . S
O54 C74 1.266 . S
O55 Tb0 2.393 . S
O55 C74 1.248 . S
C56 O45 1.264 . S
C56 O46 1.243 . S
C57 C60 1.399 . S
C57 C62 1.383 . S
C57 C64 1.496 . S
C58 C59 1.399 . S
C58 C62 1.389 . S
C59 C58 1.399 . S
C59 C61 1.380 . S
C59 H76 0.929 . S
C60 C57 1.399 . S
C60 C61 1.392 . S
C60 H77 0.929 . S
C61 C59 1.380 . S
C61 C60 1.392 . S
C61 H78 0.929 . S
C62 C57 1.383 . S
C62 C58 1.389 . S
C62 H79 0.931 . S
C63 O48 1.266 . S
C63 O49 1.248 . S
C64 Tb0 2.802 . S
C64 O44 1.264 . S
C64 O47 1.256 . S
C64 C57 1.496 . S
C65 C32 1.448 . S
C65 H42 0.930 . S
C65 C66 1.328 . S
C66 C37 1.427 . S
C66 H43 0.929 . S
C66 C65 1.328 . S
C67 O51 1.264 . S
C67 O52 1.243 . S
C68 C71 1.399 . S
C68 C72 1.383 . S
C68 C75 1.496 . S
C69 C70 1.399 . S
C69 C72 1.389 . S
C70 C69 1.399 . S
C70 C73 1.380 . S
C70 H80 0.929 . S
C71 C68 1.399 . S
C71 C73 1.392 . S
C71 H81 0.929 . S
C72 C68 1.383 . S
C72 C69 1.389 . S
C72 H82 0.931 . S
C73 C70 1.380 . S
C73 C71 1.392 . S
C73 H83 0.929 . S
C74 O54 1.266 . S
C74 O55 1.248 . S
C75 Tb11 2.802 . S
C75 O50 1.264 . S
C75 O53 1.256 . S
C75 C68 1.496 . S
H76 C59 0.929 . S
H77 C60 0.929 . S
H78 C61 0.929 . S
H79 C62 0.931 . S
H80 C70 0.929 . S
H81 C71 0.929 . S
H82 C72 0.931 . S
H83 C73 0.929 . S
Tb84 N113 2.617 . S
Tb84 N119 2.572 . S
Tb84 O128 2.465 . S
Tb84 O129 2.387 . S
Tb84 O131 2.428 . S
Tb84 O132 2.308 . S
Tb84 O136 2.349 . S
Tb84 O139 2.393 . S
Tb84 C148 2.802 . S
C85 N86 1.379 . S
C85 C88 1.416 . S
C85 C92 1.424 . S
N86 C85 1.379 . S
N86 C89 1.334 . S
N86 Tb95 2.617 . S
C87 C89 1.390 . S
C87 C90 1.339 . S
C87 H107 0.930 . S
C88 C85 1.416 . S
C88 C90 1.416 . S
C88 C94 1.448 . S
C89 N86 1.334 . S
C89 C87 1.390 . S
C89 H100 0.930 . S
C90 C87 1.339 . S
C90 C88 1.416 . S
C90 H111 0.930 . S
C91 C92 1.413 . S
C91 C93 1.427 . S
C91 C97 1.416 . S
C92 C85 1.424 . S
C92 C91 1.413 . S
C92 N96 1.361 . S
C93 C91 1.427 . S
C93 C94 1.328 . S
C93 H108 0.929 . S
C94 C88 1.448 . S
C94 C93 1.328 . S
C94 H109 0.930 . S
Tb95 N86 2.617 . S
Tb95 N96 2.572 . S
Tb95 O130 2.349 . S
Tb95 O133 2.393 . S
Tb95 O134 2.465 . S
Tb95 O135 2.387 . S
Tb95 O137 2.428 . S
Tb95 O138 2.308 . S
Tb95 C159 2.802 . S
N96 C92 1.361 . S
N96 Tb95 2.572 . S
N96 C98 1.340 . S
C97 C91 1.416 . S
C97 C99 1.332 . S
C97 H105 0.931 . S
C98 N96 1.340 . S
C98 C99 1.407 . S
C98 H104 0.930 . S
C99 C97 1.332 . S
C99 C98 1.407 . S
C99 H101 0.929 . S
H100 C89 0.930 . S
H101 C99 0.929 . S
H102 C117 0.930 . S
H103 C124 0.929 . S
H104 C98 0.930 . S
H105 C97 0.931 . S
H106 C120 0.930 . S
H107 C87 0.930 . S
H108 C93 0.929 . S
H109 C94 0.930 . S
H110 C115 0.930 . S
H111 C90 0.930 . S
H112 C123 0.931 . S
N113 Tb84 2.617 . S
N113 C114 1.379 . S
N113 C117 1.334 . S
C114 N113 1.379 . S
C114 C116 1.416 . S
C114 C122 1.424 . S
C115 H110 0.930 . S
C115 C117 1.390 . S
C115 C118 1.339 . S
C116 C114 1.416 . S
C116 C118 1.416 . S
C116 C149 1.448 . S
C117 H102 0.930 . S
C117 N113 1.334 . S
C117 C115 1.390 . S
C118 C115 1.339 . S
C118 C116 1.416 . S
C118 H125 0.930 . S
N119 Tb84 2.572 . S
N119 C120 1.340 . S
N119 C122 1.361 . S
C120 H106 0.930 . S
C120 N119 1.340 . S
C120 C124 1.407 . S
C121 C122 1.413 . S
C121 C123 1.416 . S
C121 C150 1.427 . S
C122 C114 1.424 . S
C122 N119 1.361 . S
C122 C121 1.413 . S
C123 H112 0.931 . S
C123 C121 1.416 . S
C123 C124 1.332 . S
C124 H103 0.929 . S
C124 C120 1.407 . S
C124 C123 1.332 . S
H125 C118 0.930 . S
H126 C149 0.930 . S
H127 C150 0.929 . S
O128 Tb84 2.465 . S
O128 C148 1.264 . S
O129 Tb84 2.387 . S
O129 C140 1.264 . S
O130 Tb95 2.349 . S
O130 C140 1.243 . S
O131 Tb84 2.428 . S
O131 C148 1.256 . S
O132 Tb84 2.308 . S
O132 C147 1.266 . S
O133 Tb95 2.393 . S
O133 C147 1.248 . S
O134 Tb95 2.465 . S
O134 C159 1.264 . S
O135 Tb95 2.387 . S
O135 C151 1.264 . S
O136 Tb84 2.349 . S
O136 C151 1.243 . S
O137 Tb95 2.428 . S
O137 C159 1.256 . S
O138 Tb95 2.308 . S
O138 C158 1.266 . S
O139 Tb84 2.393 . S
O139 C158 1.248 . S
C140 O129 1.264 . S
C140 O130 1.243 . S
C141 C144 1.399 . S
C141 C146 1.383 . S
C141 C148 1.496 . S
C142 C143 1.399 . S
C142 C146 1.389 . S
C143 C142 1.399 . S
C143 C145 1.380 . S
C143 H160 0.929 . S
C144 C141 1.399 . S
C144 C145 1.392 . S
C144 H161 0.929 . S
C145 C143 1.380 . S
C145 C144 1.392 . S
C145 H162 0.929 . S
C146 C141 1.383 . S
C146 C142 1.389 . S
C146 H163 0.931 . S
C147 O132 1.266 . S
C147 O133 1.248 . S
C148 Tb84 2.802 . S
C148 O128 1.264 . S
C148 O131 1.256 . S
C148 C141 1.496 . S
C149 C116 1.448 . S
C149 H126 0.930 . S
C149 C150 1.328 . S
C150 C121 1.427 . S
C150 H127 0.929 . S
C150 C149 1.328 . S
C151 O135 1.264 . S
C151 O136 1.243 . S
C152 C155 1.399 . S
C152 C156 1.383 . S
C152 C159 1.496 . S
C153 C154 1.399 . S
C153 C156 1.389 . S
C154 C153 1.399 . S
C154 C157 1.380 . S
C154 H164 0.929 . S
C155 C152 1.399 . S
C155 C157 1.392 . S
C155 H165 0.929 . S
C156 C152 1.383 . S
C156 C153 1.389 . S
C156 H166 0.931 . S
C157 C154 1.380 . S
C157 C155 1.392 . S
C157 H167 0.929 . S
C158 O138 1.266 . S
C158 O139 1.248 . S
C159 Tb95 2.802 . S
C159 O134 1.264 . S
C159 O137 1.256 . S
C159 C152 1.496 . S
H160 C143 0.929 . S
H161 C144 0.929 . S
H162 C145 0.929 . S
H163 C146 0.931 . S
H164 C154 0.929 . S
H165 C155 0.929 . S
H166 C156 0.931 . S
H167 C157 0.929 . S
Tb168 N197 2.617 . S
Tb168 N203 2.572 . S
Tb168 O212 2.465 . S
Tb168 O213 2.387 . S
Tb168 O215 2.428 . S
Tb168 O216 2.308 . S
Tb168 O220 2.349 . S
Tb168 O223 2.393 . S
Tb168 C232 2.802 . S
C169 N170 1.379 . S
C169 C172 1.416 . S
C169 C176 1.424 . S
N170 C169 1.379 . S
N170 C173 1.334 . S
N170 Tb179 2.617 . S
C171 C173 1.390 . S
C171 C174 1.339 . S
C171 H191 0.930 . S
C172 C169 1.416 . S
C172 C174 1.416 . S
C172 C178 1.448 . S
C173 N170 1.334 . S
C173 C171 1.390 . S
C173 H184 0.930 . S
C174 C171 1.339 . S
C174 C172 1.416 . S
C174 H195 0.930 . S
C175 C176 1.413 . S
C175 C177 1.427 . S
C175 C181 1.416 . S
C176 C169 1.424 . S
C176 C175 1.413 . S
C176 N180 1.361 . S
C177 C175 1.427 . S
C177 C178 1.328 . S
C177 H192 0.929 . S
C178 C172 1.448 . S
C178 C177 1.328 . S
C178 H193 0.930 . S
Tb179 N170 2.617 . S
Tb179 N180 2.572 . S
Tb179 O214 2.349 . S
Tb179 O217 2.393 . S
Tb179 O218 2.465 . S
Tb179 O219 2.387 . S
Tb179 O221 2.428 . S
Tb179 O222 2.308 . S
Tb179 C243 2.802 . S
N180 C176 1.361 . S
N180 Tb179 2.572 . S
N180 C182 1.340 . S
C181 C175 1.416 . S
C181 C183 1.332 . S
C181 H189 0.931 . S
C182 N180 1.340 . S
C182 C183 1.407 . S
C182 H188 0.930 . S
C183 C181 1.332 . S
C183 C182 1.407 . S
C183 H185 0.929 . S
H184 C173 0.930 . S
H185 C183 0.929 . S
H186 C201 0.930 . S
H187 C208 0.929 . S
H188 C182 0.930 . S
H189 C181 0.931 . S
H190 C204 0.930 . S
H191 C171 0.930 . S
H192 C177 0.929 . S
H193 C178 0.930 . S
H194 C199 0.930 . S
H195 C174 0.930 . S
H196 C207 0.931 . S
N197 Tb168 2.617 . S
N197 C198 1.379 . S
N197 C201 1.334 . S
C198 N197 1.379 . S
C198 C200 1.416 . S
C198 C206 1.424 . S
C199 H194 0.930 . S
C199 C201 1.390 . S
C199 C202 1.339 . S
C200 C198 1.416 . S
C200 C202 1.416 . S
C200 C233 1.448 . S
C201 H186 0.930 . S
C201 N197 1.334 . S
C201 C199 1.390 . S
C202 C199 1.339 . S
C202 C200 1.416 . S
C202 H209 0.930 . S
N203 Tb168 2.572 . S
N203 C204 1.340 . S
N203 C206 1.361 . S
C204 H190 0.930 . S
C204 N203 1.340 . S
C204 C208 1.407 . S
C205 C206 1.413 . S
C205 C207 1.416 . S
C205 C234 1.427 . S
C206 C198 1.424 . S
C206 N203 1.361 . S
C206 C205 1.413 . S
C207 H196 0.931 . S
C207 C205 1.416 . S
C207 C208 1.332 . S
C208 H187 0.929 . S
C208 C204 1.407 . S
C208 C207 1.332 . S
H209 C202 0.930 . S
H210 C233 0.930 . S
H211 C234 0.929 . S
O212 Tb168 2.465 . S
O212 C232 1.264 . S
O213 Tb168 2.387 . S
O213 C224 1.264 . S
O214 Tb179 2.349 . S
O214 C224 1.243 . S
O215 Tb168 2.428 . S
O215 C232 1.256 . S
O216 Tb168 2.308 . S
O216 C231 1.266 . S
O217 Tb179 2.393 . S
O217 C231 1.248 . S
O218 Tb179 2.465 . S
O218 C243 1.264 . S
O219 Tb179 2.387 . S
O219 C235 1.264 . S
O220 Tb168 2.349 . S
O220 C235 1.243 . S
O221 Tb179 2.428 . S
O221 C243 1.256 . S
O222 Tb179 2.308 . S
O222 C242 1.266 . S
O223 Tb168 2.393 . S
O223 C242 1.248 . S
C224 O213 1.264 . S
C224 O214 1.243 . S
C225 C228 1.399 . S
C225 C230 1.383 . S
C225 C232 1.496 . S
C226 C227 1.399 . S
C226 C230 1.389 . S
C227 C226 1.399 . S
C227 C229 1.380 . S
C227 H244 0.929 . S
C228 C225 1.399 . S
C228 C229 1.392 . S
C228 H245 0.929 . S
C229 C227 1.380 . S
C229 C228 1.392 . S
C229 H246 0.929 . S
C230 C225 1.383 . S
C230 C226 1.389 . S
C230 H247 0.931 . S
C231 O216 1.266 . S
C231 O217 1.248 . S
C232 Tb168 2.802 . S
C232 O212 1.264 . S
C232 O215 1.256 . S
C232 C225 1.496 . S
C233 C200 1.448 . S
C233 H210 0.930 . S
C233 C234 1.328 . S
C234 C205 1.427 . S
C234 H211 0.929 . S
C234 C233 1.328 . S
C235 O219 1.264 . S
C235 O220 1.243 . S
C236 C239 1.399 . S
C236 C240 1.383 . S
C236 C243 1.496 . S
C237 C238 1.399 . S
C237 C240 1.389 . S
C238 C237 1.399 . S
C238 C241 1.380 . S
C238 H248 0.929 . S
C239 C236 1.399 . S
C239 C241 1.392 . S
C239 H249 0.929 . S
C240 C236 1.383 . S
C240 C237 1.389 . S
C240 H250 0.931 . S
C241 C238 1.380 . S
C241 C239 1.392 . S
C241 H251 0.929 . S
C242 O222 1.266 . S
C242 O223 1.248 . S
C243 Tb179 2.802 . S
C243 O218 1.264 . S
C243 O221 1.256 . S
C243 C236 1.496 . S
H244 C227 0.929 . S
H245 C228 0.929 . S
H246 C229 0.929 . S
H247 C230 0.931 . S
H248 C238 0.929 . S
H249 C239 0.929 . S
H250 C240 0.931 . S
H251 C241 0.929 . S
Tb252 N281 2.617 . S
Tb252 N287 2.572 . S
Tb252 O296 2.465 . S
Tb252 O297 2.387 . S
Tb252 O299 2.428 . S
Tb252 O300 2.308 . S
Tb252 O304 2.349 . S
Tb252 O307 2.393 . S
Tb252 C316 2.802 . S
C253 N254 1.379 . S
C253 C256 1.416 . S
C253 C260 1.424 . S
N254 C253 1.379 . S
N254 C257 1.334 . S
N254 Tb263 2.617 . S
C255 C257 1.390 . S
C255 C258 1.339 . S
C255 H275 0.930 . S
C256 C253 1.416 . S
C256 C258 1.416 . S
C256 C262 1.448 . S
C257 N254 1.334 . S
C257 C255 1.390 . S
C257 H268 0.930 . S
C258 C255 1.339 . S
C258 C256 1.416 . S
C258 H279 0.930 . S
C259 C260 1.413 . S
C259 C261 1.427 . S
C259 C265 1.416 . S
C260 C253 1.424 . S
C260 C259 1.413 . S
C260 N264 1.361 . S
C261 C259 1.427 . S
C261 C262 1.328 . S
C261 H276 0.929 . S
C262 C256 1.448 . S
C262 C261 1.328 . S
C262 H277 0.930 . S
Tb263 N254 2.617 . S
Tb263 N264 2.572 . S
Tb263 O298 2.349 . S
Tb263 O301 2.393 . S
Tb263 O302 2.465 . S
Tb263 O303 2.387 . S
Tb263 O305 2.428 . S
Tb263 O306 2.308 . S
Tb263 C327 2.802 . S
N264 C260 1.361 . S
N264 Tb263 2.572 . S
N264 C266 1.340 . S
C265 C259 1.416 . S
C265 C267 1.332 . S
C265 H273 0.931 . S
C266 N264 1.340 . S
C266 C267 1.407 . S
C266 H272 0.930 . S
C267 C265 1.332 . S
C267 C266 1.407 . S
C267 H269 0.929 . S
H268 C257 0.930 . S
H269 C267 0.929 . S
H270 C285 0.930 . S
H271 C292 0.929 . S
H272 C266 0.930 . S
H273 C265 0.931 . S
H274 C288 0.930 . S
H275 C255 0.930 . S
H276 C261 0.929 . S
H277 C262 0.930 . S
H278 C283 0.930 . S
H279 C258 0.930 . S
H280 C291 0.931 . S
N281 Tb252 2.617 . S
N281 C282 1.379 . S
N281 C285 1.334 . S
C282 N281 1.379 . S
C282 C284 1.416 . S
C282 C290 1.424 . S
C283 H278 0.930 . S
C283 C285 1.390 . S
C283 C286 1.339 . S
C284 C282 1.416 . S
C284 C286 1.416 . S
C284 C317 1.448 . S
C285 H270 0.930 . S
C285 N281 1.334 . S
C285 C283 1.390 . S
C286 C283 1.339 . S
C286 C284 1.416 . S
C286 H293 0.930 . S
N287 Tb252 2.572 . S
N287 C288 1.340 . S
N287 C290 1.361 . S
C288 H274 0.930 . S
C288 N287 1.340 . S
C288 C292 1.407 . S
C289 C290 1.413 . S
C289 C291 1.416 . S
C289 C318 1.427 . S
C290 C282 1.424 . S
C290 N287 1.361 . S
C290 C289 1.413 . S
C291 H280 0.931 . S
C291 C289 1.416 . S
C291 C292 1.332 . S
C292 H271 0.929 . S
C292 C288 1.407 . S
C292 C291 1.332 . S
H293 C286 0.930 . S
H294 C317 0.930 . S
H295 C318 0.929 . S
O296 Tb252 2.465 . S
O296 C316 1.264 . S
O297 Tb252 2.387 . S
O297 C308 1.264 . S
O298 Tb263 2.349 . S
O298 C308 1.243 . S
O299 Tb252 2.428 . S
O299 C316 1.256 . S
O300 Tb252 2.308 . S
O300 C315 1.266 . S
O301 Tb263 2.393 . S
O301 C315 1.248 . S
O302 Tb263 2.465 . S
O302 C327 1.264 . S
O303 Tb263 2.387 . S
O303 C319 1.264 . S
O304 Tb252 2.349 . S
O304 C319 1.243 . S
O305 Tb263 2.428 . S
O305 C327 1.256 . S
O306 Tb263 2.308 . S
O306 C326 1.266 . S
O307 Tb252 2.393 . S
O307 C326 1.248 . S
C308 O297 1.264 . S
C308 O298 1.243 . S
C309 C312 1.399 . S
C309 C314 1.383 . S
C309 C316 1.496 . S
C310 C311 1.399 . S
C310 C314 1.389 . S
C311 C310 1.399 . S
C311 C313 1.380 . S
C311 H328 0.929 . S
C312 C309 1.399 . S
C312 C313 1.392 . S
C312 H329 0.929 . S
C313 C311 1.380 . S
C313 C312 1.392 . S
C313 H330 0.929 . S
C314 C309 1.383 . S
C314 C310 1.389 . S
C314 H331 0.931 . S
C315 O300 1.266 . S
C315 O301 1.248 . S
C316 Tb252 2.802 . S
C316 O296 1.264 . S
C316 O299 1.256 . S
C316 C309 1.496 . S
C317 C284 1.448 . S
C317 H294 0.930 . S
C317 C318 1.328 . S
C318 C289 1.427 . S
C318 H295 0.929 . S
C318 C317 1.328 . S
C319 O303 1.264 . S
C319 O304 1.243 . S
C320 C323 1.399 . S
C320 C324 1.383 . S
C320 C327 1.496 . S
C321 C322 1.399 . S
C321 C324 1.389 . S
C322 C321 1.399 . S
C322 C325 1.380 . S
C322 H332 0.929 . S
C323 C320 1.399 . S
C323 C325 1.392 . S
C323 H333 0.929 . S
C324 C320 1.383 . S
C324 C321 1.389 . S
C324 H334 0.931 . S
C325 C322 1.380 . S
C325 C323 1.392 . S
C325 H335 0.929 . S
C326 O306 1.266 . S
C326 O307 1.248 . S
C327 Tb263 2.802 . S
C327 O302 1.264 . S
C327 O305 1.256 . S
C327 C320 1.496 . S
H328 C311 0.929 . S
H329 C312 0.929 . S
H330 C313 0.929 . S
H331 C314 0.931 . S
H332 C322 0.929 . S
H333 C323 0.929 . S
H334 C324 0.931 . S
H335 C325 0.929 . S
Tb336 N365 2.617 . S
Tb336 N371 2.572 . S
Tb336 O380 2.465 . S
Tb336 O381 2.387 . S
Tb336 O383 2.428 . S
Tb336 O384 2.308 . S
Tb336 O388 2.349 . S
Tb336 O391 2.393 . S
Tb336 C400 2.802 . S
C337 N338 1.379 . S
C337 C340 1.416 . S
C337 C344 1.424 . S
N338 C337 1.379 . S
N338 C341 1.334 . S
N338 Tb347 2.617 . S
C339 C341 1.390 . S
C339 C342 1.339 . S
C339 H359 0.930 . S
C340 C337 1.416 . S
C340 C342 1.416 . S
C340 C346 1.448 . S
C341 N338 1.334 . S
C341 C339 1.390 . S
C341 H352 0.930 . S
C342 C339 1.339 . S
C342 C340 1.416 . S
C342 H363 0.930 . S
C343 C344 1.413 . S
C343 C345 1.427 . S
C343 C349 1.416 . S
C344 C337 1.424 . S
C344 C343 1.413 . S
C344 N348 1.361 . S
C345 C343 1.427 . S
C345 C346 1.328 . S
C345 H360 0.929 . S
C346 C340 1.448 . S
C346 C345 1.328 . S
C346 H361 0.930 . S
Tb347 N338 2.617 . S
Tb347 N348 2.572 . S
Tb347 O382 2.349 . S
Tb347 O385 2.393 . S
Tb347 O386 2.465 . S
Tb347 O387 2.387 . S
Tb347 O389 2.428 . S
Tb347 O390 2.308 . S
Tb347 C411 2.802 . S
N348 C344 1.361 . S
N348 Tb347 2.572 . S
N348 C350 1.340 . S
C349 C343 1.416 . S
C349 C351 1.332 . S
C349 H357 0.931 . S
C350 N348 1.340 . S
C350 C351 1.407 . S
C350 H356 0.930 . S
C351 C349 1.332 . S
C351 C350 1.407 . S
C351 H353 0.929 . S
H352 C341 0.930 . S
H353 C351 0.929 . S
H354 C369 0.930 . S
H355 C376 0.929 . S
H356 C350 0.930 . S
H357 C349 0.931 . S
H358 C372 0.930 . S
H359 C339 0.930 . S
H360 C345 0.929 . S
H361 C346 0.930 . S
H362 C367 0.930 . S
H363 C342 0.930 . S
H364 C375 0.931 . S
N365 Tb336 2.617 . S
N365 C366 1.379 . S
N365 C369 1.334 . S
C366 N365 1.379 . S
C366 C368 1.416 . S
C366 C374 1.424 . S
C367 H362 0.930 . S
C367 C369 1.390 . S
C367 C370 1.339 . S
C368 C366 1.416 . S
C368 C370 1.416 . S
C368 C401 1.448 . S
C369 H354 0.930 . S
C369 N365 1.334 . S
C369 C367 1.390 . S
C370 C367 1.339 . S
C370 C368 1.416 . S
C370 H377 0.930 . S
N371 Tb336 2.572 . S
N371 C372 1.340 . S
N371 C374 1.361 . S
C372 H358 0.930 . S
C372 N371 1.340 . S
C372 C376 1.407 . S
C373 C374 1.413 . S
C373 C375 1.416 . S
C373 C402 1.427 . S
C374 C366 1.424 . S
C374 N371 1.361 . S
C374 C373 1.413 . S
C375 H364 0.931 . S
C375 C373 1.416 . S
C375 C376 1.332 . S
C376 H355 0.929 . S
C376 C372 1.407 . S
C376 C375 1.332 . S
H377 C370 0.930 . S
H378 C401 0.930 . S
H379 C402 0.929 . S
O380 Tb336 2.465 . S
O380 C400 1.264 . S
O381 Tb336 2.387 . S
O381 C392 1.264 . S
O382 Tb347 2.349 . S
O382 C392 1.243 . S
O383 Tb336 2.428 . S
O383 C400 1.256 . S
O384 Tb336 2.308 . S
O384 C399 1.266 . S
O385 Tb347 2.393 . S
O385 C399 1.248 . S
O386 Tb347 2.465 . S
O386 C411 1.264 . S
O387 Tb347 2.387 . S
O387 C403 1.264 . S
O388 Tb336 2.349 . S
O388 C403 1.243 . S
O389 Tb347 2.428 . S
O389 C411 1.256 . S
O390 Tb347 2.308 . S
O390 C410 1.266 . S
O391 Tb336 2.393 . S
O391 C410 1.248 . S
C392 O381 1.264 . S
C392 O382 1.243 . S
C393 C396 1.399 . S
C393 C398 1.383 . S
C393 C400 1.496 . S
C394 C395 1.399 . S
C394 C398 1.389 . S
C395 C394 1.399 . S
C395 C397 1.380 . S
C395 H412 0.929 . S
C396 C393 1.399 . S
C396 C397 1.392 . S
C396 H413 0.929 . S
C397 C395 1.380 . S
C397 C396 1.392 . S
C397 H414 0.929 . S
C398 C393 1.383 . S
C398 C394 1.389 . S
C398 H415 0.931 . S
C399 O384 1.266 . S
C399 O385 1.248 . S
C400 Tb336 2.802 . S
C400 O380 1.264 . S
C400 O383 1.256 . S
C400 C393 1.496 . S
C401 C368 1.448 . S
C401 H378 0.930 . S
C401 C402 1.328 . S
C402 C373 1.427 . S
C402 H379 0.929 . S
C402 C401 1.328 . S
C403 O387 1.264 . S
C403 O388 1.243 . S
C404 C407 1.399 . S
C404 C408 1.383 . S
C404 C411 1.496 . S
C405 C406 1.399 . S
C405 C408 1.389 . S
C406 C405 1.399 . S
C406 C409 1.380 . S
C406 H416 0.929 . S
C407 C404 1.399 . S
C407 C409 1.392 . S
C407 H417 0.929 . S
C408 C404 1.383 . S
C408 C405 1.389 . S
C408 H418 0.931 . S
C409 C406 1.380 . S
C409 C407 1.392 . S
C409 H419 0.929 . S
C410 O390 1.266 . S
C410 O391 1.248 . S
C411 Tb347 2.802 . S
C411 O386 1.264 . S
C411 O389 1.256 . S
C411 C404 1.496 . S
H412 C395 0.929 . S
H413 C396 0.929 . S
H414 C397 0.929 . S
H415 C398 0.931 . S
H416 C406 0.929 . S
H417 C407 0.929 . S
H418 C408 0.931 . S
H419 C409 0.929 . S
Tb420 N449 2.617 . S
Tb420 N455 2.572 . S
Tb420 O464 2.465 . S
Tb420 O465 2.387 . S
Tb420 O467 2.428 . S
Tb420 O468 2.308 . S
Tb420 O472 2.349 . S
Tb420 O475 2.393 . S
Tb420 C484 2.802 . S
C421 N422 1.379 . S
C421 C424 1.416 . S
C421 C428 1.424 . S
N422 C421 1.379 . S
N422 C425 1.334 . S
N422 Tb431 2.617 . S
C423 C425 1.390 . S
C423 C426 1.339 . S
C423 H443 0.930 . S
C424 C421 1.416 . S
C424 C426 1.416 . S
C424 C430 1.448 . S
C425 N422 1.334 . S
C425 C423 1.390 . S
C425 H436 0.930 . S
C426 C423 1.339 . S
C426 C424 1.416 . S
C426 H447 0.930 . S
C427 C428 1.413 . S
C427 C429 1.427 . S
C427 C433 1.416 . S
C428 C421 1.424 . S
C428 C427 1.413 . S
C428 N432 1.361 . S
C429 C427 1.427 . S
C429 C430 1.328 . S
C429 H444 0.929 . S
C430 C424 1.448 . S
C430 C429 1.328 . S
C430 H445 0.930 . S
Tb431 N422 2.617 . S
Tb431 N432 2.572 . S
Tb431 O466 2.349 . S
Tb431 O469 2.393 . S
Tb431 O470 2.465 . S
Tb431 O471 2.387 . S
Tb431 O473 2.428 . S
Tb431 O474 2.308 . S
Tb431 C495 2.802 . S
N432 C428 1.361 . S
N432 Tb431 2.572 . S
N432 C434 1.340 . S
C433 C427 1.416 . S
C433 C435 1.332 . S
C433 H441 0.931 . S
C434 N432 1.340 . S
C434 C435 1.407 . S
C434 H440 0.930 . S
C435 C433 1.332 . S
C435 C434 1.407 . S
C435 H437 0.929 . S
H436 C425 0.930 . S
H437 C435 0.929 . S
H438 C453 0.930 . S
H439 C460 0.929 . S
H440 C434 0.930 . S
H441 C433 0.931 . S
H442 C456 0.930 . S
H443 C423 0.930 . S
H444 C429 0.929 . S
H445 C430 0.930 . S
H446 C451 0.930 . S
H447 C426 0.930 . S
H448 C459 0.931 . S
N449 Tb420 2.617 . S
N449 C450 1.379 . S
N449 C453 1.334 . S
C450 N449 1.379 . S
C450 C452 1.416 . S
C450 C458 1.424 . S
C451 H446 0.930 . S
C451 C453 1.390 . S
C451 C454 1.339 . S
C452 C450 1.416 . S
C452 C454 1.416 . S
C452 C485 1.448 . S
C453 H438 0.930 . S
C453 N449 1.334 . S
C453 C451 1.390 . S
C454 C451 1.339 . S
C454 C452 1.416 . S
C454 H461 0.930 . S
N455 Tb420 2.572 . S
N455 C456 1.340 . S
N455 C458 1.361 . S
C456 H442 0.930 . S
C456 N455 1.340 . S
C456 C460 1.407 . S
C457 C458 1.413 . S
C457 C459 1.416 . S
C457 C486 1.427 . S
C458 C450 1.424 . S
C458 N455 1.361 . S
C458 C457 1.413 . S
C459 H448 0.931 . S
C459 C457 1.416 . S
C459 C460 1.332 . S
C460 H439 0.929 . S
C460 C456 1.407 . S
C460 C459 1.332 . S
H461 C454 0.930 . S
H462 C485 0.930 . S
H463 C486 0.929 . S
O464 Tb420 2.465 . S
O464 C484 1.264 . S
O465 Tb420 2.387 . S
O465 C476 1.264 . S
O466 Tb431 2.349 . S
O466 C476 1.243 . S
O467 Tb420 2.428 . S
O467 C484 1.256 . S
O468 Tb420 2.308 . S
O468 C483 1.266 . S
O469 Tb431 2.393 . S
O469 C483 1.248 . S
O470 Tb431 2.465 . S
O470 C495 1.264 . S
O471 Tb431 2.387 . S
O471 C487 1.264 . S
O472 Tb420 2.349 . S
O472 C487 1.243 . S
O473 Tb431 2.428 . S
O473 C495 1.256 . S
O474 Tb431 2.308 . S
O474 C494 1.266 . S
O475 Tb420 2.393 . S
O475 C494 1.248 . S
C476 O465 1.264 . S
C476 O466 1.243 . S
C477 C480 1.399 . S
C477 C482 1.383 . S
C477 C484 1.496 . S
C478 C479 1.399 . S
C478 C482 1.389 . S
C479 C478 1.399 . S
C479 C481 1.380 . S
C479 H496 0.929 . S
C480 C477 1.399 . S
C480 C481 1.392 . S
C480 H497 0.929 . S
C481 C479 1.380 . S
C481 C480 1.392 . S
C481 H498 0.929 . S
C482 C477 1.383 . S
C482 C478 1.389 . S
C482 H499 0.931 . S
C483 O468 1.266 . S
C483 O469 1.248 . S
C484 Tb420 2.802 . S
C484 O464 1.264 . S
C484 O467 1.256 . S
C484 C477 1.496 . S
C485 C452 1.448 . S
C485 H462 0.930 . S
C485 C486 1.328 . S
C486 C457 1.427 . S
C486 H463 0.929 . S
C486 C485 1.328 . S
C487 O471 1.264 . S
C487 O472 1.243 . S
C488 C491 1.399 . S
C488 C492 1.383 . S
C488 C495 1.496 . S
C489 C490 1.399 . S
C489 C492 1.389 . S
C490 C489 1.399 . S
C490 C493 1.380 . S
C490 H500 0.929 . S
C491 C488 1.399 . S
C491 C493 1.392 . S
C491 H501 0.929 . S
C492 C488 1.383 . S
C492 C489 1.389 . S
C492 H502 0.931 . S
C493 C490 1.380 . S
C493 C491 1.392 . S
C493 H503 0.929 . S
C494 O474 1.266 . S
C494 O475 1.248 . S
C495 Tb431 2.802 . S
C495 O470 1.264 . S
C495 O473 1.256 . S
C495 C488 1.496 . S
H496 C479 0.929 . S
H497 C480 0.929 . S
H498 C481 0.929 . S
H499 C482 0.931 . S
H500 C490 0.929 . S
H501 C491 0.929 . S
H502 C492 0.931 . S
H503 C493 0.929 . S
Tb504 N533 2.617 . S
Tb504 N539 2.572 . S
Tb504 O548 2.465 . S
Tb504 O549 2.387 . S
Tb504 O551 2.428 . S
Tb504 O552 2.308 . S
Tb504 O556 2.349 . S
Tb504 O559 2.393 . S
Tb504 C568 2.802 . S
C505 N506 1.379 . S
C505 C508 1.416 . S
C505 C512 1.424 . S
N506 C505 1.379 . S
N506 C509 1.334 . S
N506 Tb515 2.617 . S
C507 C509 1.390 . S
C507 C510 1.339 . S
C507 H527 0.930 . S
C508 C505 1.416 . S
C508 C510 1.416 . S
C508 C514 1.448 . S
C509 N506 1.334 . S
C509 C507 1.390 . S
C509 H520 0.930 . S
C510 C507 1.339 . S
C510 C508 1.416 . S
C510 H531 0.930 . S
C511 C512 1.413 . S
C511 C513 1.427 . S
C511 C517 1.416 . S
C512 C505 1.424 . S
C512 C511 1.413 . S
C512 N516 1.361 . S
C513 C511 1.427 . S
C513 C514 1.328 . S
C513 H528 0.929 . S
C514 C508 1.448 . S
C514 C513 1.328 . S
C514 H529 0.930 . S
Tb515 N506 2.617 . S
Tb515 N516 2.572 . S
Tb515 O550 2.349 . S
Tb515 O553 2.393 . S
Tb515 O554 2.465 . S
Tb515 O555 2.387 . S
Tb515 O557 2.428 . S
Tb515 O558 2.308 . S
Tb515 C579 2.802 . S
N516 C512 1.361 . S
N516 Tb515 2.572 . S
N516 C518 1.340 . S
C517 C511 1.416 . S
C517 C519 1.332 . S
C517 H525 0.931 . S
C518 N516 1.340 . S
C518 C519 1.407 . S
C518 H524 0.930 . S
C519 C517 1.332 . S
C519 C518 1.407 . S
C519 H521 0.929 . S
H520 C509 0.930 . S
H521 C519 0.929 . S
H522 C537 0.930 . S
H523 C544 0.929 . S
H524 C518 0.930 . S
H525 C517 0.931 . S
H526 C540 0.930 . S
H527 C507 0.930 . S
H528 C513 0.929 . S
H529 C514 0.930 . S
H530 C535 0.930 . S
H531 C510 0.930 . S
H532 C543 0.931 . S
N533 Tb504 2.617 . S
N533 C534 1.379 . S
N533 C537 1.334 . S
C534 N533 1.379 . S
C534 C536 1.416 . S
C534 C542 1.424 . S
C535 H530 0.930 . S
C535 C537 1.390 . S
C535 C538 1.339 . S
C536 C534 1.416 . S
C536 C538 1.416 . S
C536 C569 1.448 . S
C537 H522 0.930 . S
C537 N533 1.334 . S
C537 C535 1.390 . S
C538 C535 1.339 . S
C538 C536 1.416 . S
C538 H545 0.930 . S
N539 Tb504 2.572 . S
N539 C540 1.340 . S
N539 C542 1.361 . S
C540 H526 0.930 . S
C540 N539 1.340 . S
C540 C544 1.407 . S
C541 C542 1.413 . S
C541 C543 1.416 . S
C541 C570 1.427 . S
C542 C534 1.424 . S
C542 N539 1.361 . S
C542 C541 1.413 . S
C543 H532 0.931 . S
C543 C541 1.416 . S
C543 C544 1.332 . S
C544 H523 0.929 . S
C544 C540 1.407 . S
C544 C543 1.332 . S
H545 C538 0.930 . S
H546 C569 0.930 . S
H547 C570 0.929 . S
O548 Tb504 2.465 . S
O548 C568 1.264 . S
O549 Tb504 2.387 . S
O549 C560 1.264 . S
O550 Tb515 2.349 . S
O550 C560 1.243 . S
O551 Tb504 2.428 . S
O551 C568 1.256 . S
O552 Tb504 2.308 . S
O552 C567 1.266 . S
O553 Tb515 2.393 . S
O553 C567 1.248 . S
O554 Tb515 2.465 . S
O554 C579 1.264 . S
O555 Tb515 2.387 . S
O555 C571 1.264 . S
O556 Tb504 2.349 . S
O556 C571 1.243 . S
O557 Tb515 2.428 . S
O557 C579 1.256 . S
O558 Tb515 2.308 . S
O558 C578 1.266 . S
O559 Tb504 2.393 . S
O559 C578 1.248 . S
C560 O549 1.264 . S
C560 O550 1.243 . S
C561 C564 1.399 . S
C561 C566 1.383 . S
C561 C568 1.496 . S
C562 C563 1.399 . S
C562 C566 1.389 . S
C563 C562 1.399 . S
C563 C565 1.380 . S
C563 H580 0.929 . S
C564 C561 1.399 . S
C564 C565 1.392 . S
C564 H581 0.929 . S
C565 C563 1.380 . S
C565 C564 1.392 . S
C565 H582 0.929 . S
C566 C561 1.383 . S
C566 C562 1.389 . S
C566 H583 0.931 . S
C567 O552 1.266 . S
C567 O553 1.248 . S
C568 Tb504 2.802 . S
C568 O548 1.264 . S
C568 O551 1.256 . S
C568 C561 1.496 . S
C569 C536 1.448 . S
C569 H546 0.930 . S
C569 C570 1.328 . S
C570 C541 1.427 . S
C570 H547 0.929 . S
C570 C569 1.328 . S
C571 O555 1.264 . S
C571 O556 1.243 . S
C572 C575 1.399 . S
C572 C576 1.383 . S
C572 C579 1.496 . S
C573 C574 1.399 . S
C573 C576 1.389 . S
C574 C573 1.399 . S
C574 C577 1.380 . S
C574 H584 0.929 . S
C575 C572 1.399 . S
C575 C577 1.392 . S
C575 H585 0.929 . S
C576 C572 1.383 . S
C576 C573 1.389 . S
C576 H586 0.931 . S
C577 C574 1.380 . S
C577 C575 1.392 . S
C577 H587 0.929 . S
C578 O558 1.266 . S
C578 O559 1.248 . S
C579 Tb515 2.802 . S
C579 O554 1.264 . S
C579 O557 1.256 . S
C579 C572 1.496 . S
H580 C563 0.929 . S
H581 C564 0.929 . S
H582 C565 0.929 . S
H583 C566 0.931 . S
H584 C574 0.929 . S
H585 C575 0.929 . S
H586 C576 0.931 . S
H587 C577 0.929 . S
Tb588 N617 2.617 . S
Tb588 N623 2.572 . S
Tb588 O632 2.465 . S
Tb588 O633 2.387 . S
Tb588 O635 2.428 . S
Tb588 O636 2.308 . S
Tb588 O640 2.349 . S
Tb588 O643 2.393 . S
Tb588 C652 2.802 . S
C589 N590 1.379 . S
C589 C592 1.416 . S
C589 C596 1.424 . S
N590 C589 1.379 . S
N590 C593 1.334 . S
N590 Tb599 2.617 . S
C591 C593 1.390 . S
C591 C594 1.339 . S
C591 H611 0.930 . S
C592 C589 1.416 . S
C592 C594 1.416 . S
C592 C598 1.448 . S
C593 N590 1.334 . S
C593 C591 1.390 . S
C593 H604 0.930 . S
C594 C591 1.339 . S
C594 C592 1.416 . S
C594 H615 0.930 . S
C595 C596 1.413 . S
C595 C597 1.427 . S
C595 C601 1.416 . S
C596 C589 1.424 . S
C596 C595 1.413 . S
C596 N600 1.361 . S
C597 C595 1.427 . S
C597 C598 1.328 . S
C597 H612 0.929 . S
C598 C592 1.448 . S
C598 C597 1.328 . S
C598 H613 0.930 . S
Tb599 N590 2.617 . S
Tb599 N600 2.572 . S
Tb599 O634 2.349 . S
Tb599 O637 2.393 . S
Tb599 O638 2.465 . S
Tb599 O639 2.387 . S
Tb599 O641 2.428 . S
Tb599 O642 2.308 . S
Tb599 C663 2.802 . S
N600 C596 1.361 . S
N600 Tb599 2.572 . S
N600 C602 1.340 . S
C601 C595 1.416 . S
C601 C603 1.332 . S
C601 H609 0.931 . S
C602 N600 1.340 . S
C602 C603 1.407 . S
C602 H608 0.930 . S
C603 C601 1.332 . S
C603 C602 1.407 . S
C603 H605 0.929 . S
H604 C593 0.930 . S
H605 C603 0.929 . S
H606 C621 0.930 . S
H607 C628 0.929 . S
H608 C602 0.930 . S
H609 C601 0.931 . S
H610 C624 0.930 . S
H611 C591 0.930 . S
H612 C597 0.929 . S
H613 C598 0.930 . S
H614 C619 0.930 . S
H615 C594 0.930 . S
H616 C627 0.931 . S
N617 Tb588 2.617 . S
N617 C618 1.379 . S
N617 C621 1.334 . S
C618 N617 1.379 . S
C618 C620 1.416 . S
C618 C626 1.424 . S
C619 H614 0.930 . S
C619 C621 1.390 . S
C619 C622 1.339 . S
C620 C618 1.416 . S
C620 C622 1.416 . S
C620 C653 1.448 . S
C621 H606 0.930 . S
C621 N617 1.334 . S
C621 C619 1.390 . S
C622 C619 1.339 . S
C622 C620 1.416 . S
C622 H629 0.930 . S
N623 Tb588 2.572 . S
N623 C624 1.340 . S
N623 C626 1.361 . S
C624 H610 0.930 . S
C624 N623 1.340 . S
C624 C628 1.407 . S
C625 C626 1.413 . S
C625 C627 1.416 . S
C625 C654 1.427 . S
C626 C618 1.424 . S
C626 N623 1.361 . S
C626 C625 1.413 . S
C627 H616 0.931 . S
C627 C625 1.416 . S
C627 C628 1.332 . S
C628 H607 0.929 . S
C628 C624 1.407 . S
C628 C627 1.332 . S
H629 C622 0.930 . S
H630 C653 0.930 . S
H631 C654 0.929 . S
O632 Tb588 2.465 . S
O632 C652 1.264 . S
O633 Tb588 2.387 . S
O633 C644 1.264 . S
O634 Tb599 2.349 . S
O634 C644 1.243 . S
O635 Tb588 2.428 . S
O635 C652 1.256 . S
O636 Tb588 2.308 . S
O636 C651 1.266 . S
O637 Tb599 2.393 . S
O637 C651 1.248 . S
O638 Tb599 2.465 . S
O638 C663 1.264 . S
O639 Tb599 2.387 . S
O639 C655 1.264 . S
O640 Tb588 2.349 . S
O640 C655 1.243 . S
O641 Tb599 2.428 . S
O641 C663 1.256 . S
O642 Tb599 2.308 . S
O642 C662 1.266 . S
O643 Tb588 2.393 . S
O643 C662 1.248 . S
C644 O633 1.264 . S
C644 O634 1.243 . S
C645 C648 1.399 . S
C645 C650 1.383 . S
C645 C652 1.496 . S
C646 C647 1.399 . S
C646 C650 1.389 . S
C647 C646 1.399 . S
C647 C649 1.380 . S
C647 H664 0.929 . S
C648 C645 1.399 . S
C648 C649 1.392 . S
C648 H665 0.929 . S
C649 C647 1.380 . S
C649 C648 1.392 . S
C649 H666 0.929 . S
C650 C645 1.383 . S
C650 C646 1.389 . S
C650 H667 0.931 . S
C651 O636 1.266 . S
C651 O637 1.248 . S
C652 Tb588 2.802 . S
C652 O632 1.264 . S
C652 O635 1.256 . S
C652 C645 1.496 . S
C653 C620 1.448 . S
C653 H630 0.930 . S
C653 C654 1.328 . S
C654 C625 1.427 . S
C654 H631 0.929 . S
C654 C653 1.328 . S
C655 O639 1.264 . S
C655 O640 1.243 . S
C656 C659 1.399 . S
C656 C660 1.383 . S
C656 C663 1.496 . S
C657 C658 1.399 . S
C657 C660 1.389 . S
C658 C657 1.399 . S
C658 C661 1.380 . S
C658 H668 0.929 . S
C659 C656 1.399 . S
C659 C661 1.392 . S
C659 H669 0.929 . S
C660 C656 1.383 . S
C660 C657 1.389 . S
C660 H670 0.931 . S
C661 C658 1.380 . S
C661 C659 1.392 . S
C661 H671 0.929 . S
C662 O642 1.266 . S
C662 O643 1.248 . S
C663 Tb599 2.802 . S
C663 O638 1.264 . S
C663 O641 1.256 . S
C663 C656 1.496 . S
H664 C647 0.929 . S
H665 C648 0.929 . S
H666 C649 0.929 . S
H667 C650 0.931 . S
H668 C658 0.929 . S
H669 C659 0.929 . S
H670 C660 0.931 . S
H671 C661 0.929 . S
Co672 O675 2.042 . S
Co672 O682 2.264 . S
Co672 O701 2.286 . S
Co672 O702 2.069 . S
Co672 O704 2.015 1_455 S
Co673 O675 2.122 . S
Co673 O681 2.073 . S
Co673 O682 2.327 . S
Co673 O683 1.976 1_455 S
Co674 O675 2.095 1_545 S
Co674 O677 2.079 1_455 S
Co674 O684 2.107 1_445 S
Co674 O685 2.147 . S
Co674 O689 2.115 . S
Co674 O703 2.140 1_445 S
O675 Co672 2.042 . S
O675 Co673 2.122 . S
O675 Co674 2.095 1_565 S
O675 H676 0.980 . S
H676 O675 0.980 . S
O677 Co674 2.079 1_655 S
O677 Co678 2.042 . S
O677 Co679 2.122 . S
O677 H680 0.980 . S
Co678 O677 2.042 . S
Co678 O686 2.286 . S
Co678 O687 2.069 . S
Co678 O688 2.015 1_655 S
Co678 O691 2.264 . S
Co679 O677 2.122 . S
Co679 O690 1.976 1_655 S
Co679 O691 2.327 . S
Co679 O692 2.073 . S
H680 O677 0.980 . S
O681 Co673 2.073 . S
O681 C696 1.245 . S
O682 Co672 2.264 . S
O682 Co673 2.327 . S
O682 C696 1.257 . S
O683 Co673 1.976 1_655 S
O683 C695 1.251 . S
O684 Co674 2.107 1_665 S
O684 C695 1.274 . S
O685 Co674 2.147 . S
O685 C698 1.246 . S
O686 Co678 2.286 . S
O686 C697 1.259 . S
O687 Co678 2.069 . S
O687 C697 1.289 . S
O688 Co678 2.015 1_455 S
O688 C698 1.257 . S
O689 Co674 2.115 . S
O689 C699 1.274 . S
O690 Co679 1.976 1_455 S
O690 C699 1.251 . S
O691 Co678 2.264 . S
O691 Co679 2.327 . S
O691 C700 1.257 . S
O692 Co679 2.073 . S
O692 C700 1.245 . S
C693 O701 1.259 . S
C693 O702 1.289 . S
C694 O703 1.246 . S
C694 O704 1.257 . S
C695 O683 1.251 . S
C695 O684 1.274 . S
C696 O681 1.245 . S
C696 O682 1.257 . S
C697 O686 1.259 . S
C697 O687 1.289 . S
C698 O685 1.246 . S
C698 O688 1.257 . S
C699 O689 1.274 . S
C699 O690 1.251 . S
C700 O691 1.257 . S
C700 O692 1.245 . S
O701 Co672 2.286 . S
O701 C693 1.259 . S
O702 Co672 2.069 . S
O702 C693 1.289 . S
O703 Co674 2.140 1_665 S
O703 C694 1.246 . S
O704 Co672 2.015 1_655 S
O704 C694 1.257 . S
Co705 O708 2.042 1_556 S
Co705 O715 2.264 1_556 S
Co705 O734 2.286 . S
Co705 O735 2.069 . S
Co705 O737 2.015 . S
Co706 O708 2.122 . S
Co706 O714 2.073 . S
Co706 O715 2.327 . S
Co706 O716 1.976 . S
Co707 O708 2.087 1_545 S
Co707 O710 2.087 1_554 S
Co707 O717 2.111 1_545 S
Co707 O718 2.144 . S
Co707 O722 2.111 1_554 S
Co707 O736 2.143 1_544 S
O708 Co705 2.042 1_554 S
O708 Co706 2.122 . S
O708 Co707 2.087 1_565 S
O708 H709 0.980 . S
H709 O708 0.980 . S
O710 Co707 2.087 1_556 S
O710 Co711 2.042 1_556 S
O710 Co712 2.122 . S
O710 H713 0.980 . S
Co711 O710 2.042 1_554 S
Co711 O719 2.286 . S
Co711 O720 2.069 . S
Co711 O721 2.015 . S
Co711 O724 2.264 1_554 S
Co712 O710 2.122 . S
Co712 O723 1.976 . S
Co712 O724 2.327 . S
Co712 O725 2.073 . S
H713 O710 0.980 . S
O714 Co706 2.073 . S
O714 C729 1.245 . S
O715 Co705 2.264 1_554 S
O715 Co706 2.327 . S
O715 C729 1.257 . S
O716 Co706 1.976 . S
O716 C728 1.251 . S
O717 Co707 2.111 1_565 S
O717 C728 1.274 . S
O718 Co707 2.144 . S
O718 C731 1.246 . S
O719 Co711 2.286 . S
O719 C730 1.259 . S
O720 Co711 2.069 . S
O720 C730 1.289 . S
O721 Co711 2.015 . S
O721 C731 1.257 . S
O722 Co707 2.111 1_556 S
O722 C732 1.274 . S
O723 Co712 1.976 . S
O723 C732 1.251 . S
O724 Co711 2.264 1_556 S
O724 Co712 2.327 . S
O724 C733 1.257 . S
O725 Co712 2.073 . S
O725 C733 1.245 . S
C726 O734 1.259 . S
C726 O735 1.289 . S
C727 O736 1.246 . S
C727 O737 1.257 . S
C728 O716 1.251 . S
C728 O717 1.274 . S
C729 O714 1.245 . S
C729 O715 1.257 . S
C730 O719 1.259 . S
C730 O720 1.289 . S
C731 O718 1.246 . S
C731 O721 1.257 . S
C732 O722 1.274 . S
C732 O723 1.251 . S
C733 O724 1.257 . S
C733 O725 1.245 . S
O734 Co705 2.286 . S
O734 C726 1.259 . S
O735 Co705 2.069 . S
O735 C726 1.289 . S
O736 Co707 2.143 1_566 S
O736 C727 1.246 . S
O737 Co705 2.015 . S
O737 C727 1.257 . S
Co738 O741 2.042 1_556 S
Co738 O748 2.264 1_556 S
Co738 O767 2.286 . S
Co738 O768 2.069 . S
Co738 O770 2.015 1_455 S
Co739 O741 2.122 . S
Co739 O747 2.073 . S
Co739 O748 2.327 . S
Co739 O749 1.976 1_455 S
Co740 O741 2.095 . S
Co740 O743 2.079 1_454 S
Co740 O750 2.107 1_455 S
Co740 O751 2.147 . S
Co740 O755 2.116 1_554 S
Co740 O769 2.140 1_454 S
O741 Co738 2.042 1_554 S
O741 Co739 2.122 . S
O741 Co740 2.095 . S
O741 H742 0.980 . S
H742 O741 0.980 . S
O743 Co740 2.079 1_656 S
O743 Co744 2.042 1_556 S
O743 Co745 2.122 . S
O743 H746 0.980 . S
Co744 O743 2.042 1_554 S
Co744 O752 2.286 . S
Co744 O753 2.069 . S
Co744 O754 2.015 1_655 S
Co744 O757 2.264 1_554 S
Co745 O743 2.122 . S
Co745 O756 1.976 1_655 S
Co745 O757 2.327 . S
Co745 O758 2.073 . S
H746 O743 0.980 . S
O747 Co739 2.073 . S
O747 C762 1.245 . S
O748 Co738 2.264 1_554 S
O748 Co739 2.327 . S
O748 C762 1.257 . S
O749 Co739 1.976 1_655 S
O749 C761 1.251 . S
O750 Co740 2.107 1_655 S
O750 C761 1.274 . S
O751 Co740 2.147 . S
O751 C764 1.246 . S
O752 Co744 2.286 . S
O752 C763 1.259 . S
O753 Co744 2.069 . S
O753 C763 1.289 . S
O754 Co744 2.015 1_455 S
O754 C764 1.257 . S
O755 Co740 2.116 1_556 S
O755 C765 1.274 . S
O756 Co745 1.976 1_455 S
O756 C765 1.251 . S
O757 Co744 2.264 1_556 S
O757 Co745 2.327 . S
O757 C766 1.257 . S
O758 Co745 2.073 . S
O758 C766 1.245 . S
C759 O767 1.259 . S
C759 O768 1.289 . S
C760 O769 1.246 . S
C760 O770 1.257 . S
C761 O749 1.251 . S
C761 O750 1.274 . S
C762 O747 1.245 . S
C762 O748 1.257 . S
C763 O752 1.259 . S
C763 O753 1.289 . S
C764 O751 1.246 . S
C764 O754 1.257 . S
C765 O755 1.274 . S
C765 O756 1.251 . S
C766 O757 1.257 . S
C766 O758 1.245 . S
O767 Co738 2.286 . S
O767 C759 1.259 . S
O768 Co738 2.069 . S
O768 C759 1.289 . S
O769 Co740 2.140 1_656 S
O769 C760 1.246 . S
O770 Co738 2.015 1_655 S
O770 C760 1.257 . S
Co771 O774 2.042 1_556 S
Co771 O781 2.264 1_556 S
Co771 O800 2.286 . S
Co771 O801 2.069 . S
Co771 O803 2.015 . S
Co772 O774 2.122 . S
Co772 O780 2.073 . S
Co772 O781 2.327 . S
Co772 O782 1.976 . S
Co773 O774 2.087 . S
Co773 O776 2.087 1_554 S
Co773 O783 2.111 . S
Co773 O784 2.143 . S
Co773 O788 2.111 1_554 S
Co773 O802 2.143 1_554 S
O774 Co771 2.042 1_554 S
O774 Co772 2.122 . S
O774 Co773 2.087 . S
O774 H775 0.980 . S
H775 O774 0.980 . S
O776 Co773 2.087 1_556 S
O776 Co777 2.042 1_556 S
O776 Co778 2.122 . S
O776 H779 0.980 . S
Co777 O776 2.042 1_554 S
Co777 O785 2.286 . S
Co777 O786 2.069 . S
Co777 O787 2.015 . S
Co777 O790 2.264 1_554 S
Co778 O776 2.122 . S
Co778 O789 1.976 . S
Co778 O790 2.327 . S
Co778 O791 2.073 . S
H779 O776 0.980 . S
O780 Co772 2.073 . S
O780 C795 1.245 . S
O781 Co771 2.264 1_554 S
O781 Co772 2.327 . S
O781 C795 1.257 . S
O782 Co772 1.976 . S
O782 C794 1.251 . S
O783 Co773 2.111 . S
O783 C794 1.274 . S
O784 Co773 2.143 . S
O784 C797 1.246 . S
O785 Co777 2.286 . S
O785 C796 1.259 . S
O786 Co777 2.069 . S
O786 C796 1.289 . S
O787 Co777 2.015 . S
O787 C797 1.257 . S
O788 Co773 2.111 1_556 S
O788 C798 1.274 . S
O789 Co778 1.976 . S
O789 C798 1.251 . S
O790 Co777 2.264 1_556 S
O790 Co778 2.327 . S
O790 C799 1.257 . S
O791 Co778 2.073 . S
O791 C799 1.245 . S
C792 O800 1.259 . S
C792 O801 1.289 . S
C793 O802 1.246 . S
C793 O803 1.257 . S
C794 O782 1.251 . S
C794 O783 1.274 . S
C795 O780 1.245 . S
C795 O781 1.257 . S
C796 O785 1.259 . S
C796 O786 1.289 . S
C797 O784 1.246 . S
C797 O787 1.257 . S
C798 O788 1.274 . S
C798 O789 1.251 . S
C799 O790 1.257 . S
C799 O791 1.245 . S
O800 Co771 2.286 . S
O800 C792 1.259 . S
O801 Co771 2.069 . S
O801 C792 1.289 . S
O802 Co773 2.143 1_556 S
O802 C793 1.246 . S
O803 Co771 2.015 . S
O803 C793 1.257 . S
Co804 O807 2.042 . S
Co804 O814 2.264 . S
Co804 O833 2.286 . S
Co804 O834 2.069 . S
Co804 O836 2.015 . S
Co805 O807 2.122 . S
Co805 O813 2.073 . S
Co805 O814 2.327 . S
Co805 O815 1.976 . S
Co806 O807 2.095 . S
Co806 O809 2.079 1_455 S
Co806 O816 2.113 . S
Co806 O817 2.139 1_455 S
Co806 O821 2.110 1_455 S
Co806 O835 2.148 . S
O807 Co804 2.042 . S
O807 Co805 2.122 . S
O807 Co806 2.095 . S
O807 H808 0.980 . S
H808 O807 0.980 . S
O809 Co806 2.079 1_655 S
O809 Co810 2.042 . S
O809 Co811 2.122 . S
O809 H812 0.980 . S
Co810 O809 2.042 . S
Co810 O818 2.286 . S
Co810 O819 2.069 . S
Co810 O820 2.015 . S
Co810 O823 2.264 . S
Co811 O809 2.122 . S
Co811 O822 1.976 . S
Co811 O823 2.327 . S
Co811 O824 2.073 . S
H812 O809 0.980 . S
O813 Co805 2.073 . S
O813 C828 1.245 . S
O814 Co804 2.264 . S
O814 Co805 2.327 . S
O814 C828 1.257 . S
O815 Co805 1.976 . S
O815 C827 1.251 . S
O816 Co806 2.113 . S
O816 C827 1.274 . S
O817 Co806 2.139 1_655 S
O817 C830 1.246 . S
O818 Co810 2.286 . S
O818 C829 1.259 . S
O819 Co810 2.069 . S
O819 C829 1.289 . S
O820 Co810 2.015 . S
O820 C830 1.257 . S
O821 Co806 2.110 1_655 S
O821 C831 1.274 . S
O822 Co811 1.976 . S
O822 C831 1.251 . S
O823 Co810 2.264 . S
O823 Co811 2.327 . S
O823 C832 1.257 . S
O824 Co811 2.073 . S
O824 C832 1.245 . S
C825 O833 1.259 . S
C825 O834 1.289 . S
C826 O835 1.246 . S
C826 O836 1.257 . S
C827 O815 1.251 . S
C827 O816 1.274 . S
C828 O813 1.245 . S
C828 O814 1.257 . S
C829 O818 1.259 . S
C829 O819 1.289 . S
C830 O817 1.246 . S
C830 O820 1.257 . S
C831 O821 1.274 . S
C831 O822 1.251 . S
C832 O823 1.257 . S
C832 O824 1.245 . S
O833 Co804 2.286 . S
O833 C825 1.259 . S
O834 Co804 2.069 . S
O834 C825 1.289 . S
O835 Co806 2.148 . S
O835 C826 1.246 . S
O836 Co804 2.015 . S
O836 C826 1.257 . S
Co837 O840 2.042 . S
Co837 O847 2.264 . S
Co837 O866 2.286 . S
Co837 O867 2.069 . S
Co837 O869 2.015 1_565 S
Co838 O840 2.122 . S
Co838 O846 2.073 . S
Co838 O847 2.327 . S
Co838 O848 1.976 1_565 S
Co839 O840 2.087 1_545 S
Co839 O842 2.087 . S
Co839 O849 2.111 . S
Co839 O850 2.143 1_545 S
Co839 O854 2.111 1_545 S
Co839 O868 2.143 . S
O840 Co837 2.042 . S
O840 Co838 2.122 . S
O840 Co839 2.087 1_565 S
O840 H841 0.980 . S
H841 O840 0.980 . S
O842 Co839 2.087 . S
O842 Co843 2.042 . S
O842 Co844 2.122 . S
O842 H845 0.980 . S
Co843 O842 2.042 . S
Co843 O851 2.286 . S
Co843 O852 2.069 . S
Co843 O853 2.015 1_545 S
Co843 O856 2.264 . S
Co844 O842 2.122 . S
Co844 O855 1.976 1_545 S
Co844 O856 2.327 . S
Co844 O857 2.073 . S
H845 O842 0.980 . S
O846 Co838 2.073 . S
O846 C861 1.245 . S
O847 Co837 2.264 . S
O847 Co838 2.327 . S
O847 C861 1.257 . S
O848 Co838 1.976 1_545 S
O848 C860 1.251 . S
O849 Co839 2.111 . S
O849 C860 1.274 . S
O850 Co839 2.143 1_565 S
O850 C863 1.246 . S
O851 Co843 2.286 . S
O851 C862 1.259 . S
O852 Co843 2.069 . S
O852 C862 1.289 . S
O853 Co843 2.015 1_565 S
O853 C863 1.257 . S
O854 Co839 2.111 1_565 S
O854 C864 1.274 . S
O855 Co844 1.976 1_565 S
O855 C864 1.251 . S
O856 Co843 2.264 . S
O856 Co844 2.327 . S
O856 C865 1.257 . S
O857 Co844 2.073 . S
O857 C865 1.245 . S
C858 O866 1.259 . S
C858 O867 1.289 . S
C859 O868 1.246 . S
C859 O869 1.257 . S
C860 O848 1.251 . S
C860 O849 1.274 . S
C861 O846 1.245 . S
C861 O847 1.257 . S
C862 O851 1.259 . S
C862 O852 1.289 . S
C863 O850 1.246 . S
C863 O853 1.257 . S
C864 O854 1.274 . S
C864 O855 1.251 . S
C865 O856 1.257 . S
C865 O857 1.245 . S
O866 Co837 2.286 . S
O866 C858 1.259 . S
O867 Co837 2.069 . S
O867 C858 1.289 . S
O868 Co839 2.143 . S
O868 C859 1.246 . S
O869 Co837 2.015 1_545 S
O869 C859 1.257 . S
H870 C876 0.930 . S
H871 C880 0.930 . S
H872 C885 0.929 . S
H873 C883 0.929 . S
H874 C878 0.929 . S
H875 C884 0.929 . S
C876 H870 0.930 . S
C876 C877 1.367 . S
C876 C884 1.378 . S
C877 C876 1.367 . S
C877 C885 1.433 . S
C878 H874 0.929 . S
C878 C880 1.378 . S
C878 C882 1.350 . S
C879 C882 1.463 . S
C879 C884 1.350 . S
C879 N887 1.427 . S
C880 H871 0.930 . S
C880 C878 1.378 . S
C880 C881 1.367 . S
C881 C880 1.367 . S
C881 C883 1.433 . S
C882 C878 1.350 . S
C882 C879 1.463 . S
C882 N886 1.427 . S
C883 H873 0.929 . S
C883 C881 1.433 . S
C883 N886 1.384 . S
C884 H875 0.929 . S
C884 C876 1.378 . S
C884 C879 1.350 . S
C885 H872 0.929 . S
C885 C877 1.433 . S
C885 N887 1.384 . S
N886 C882 1.427 . S
N886 C883 1.384 . S
N887 C879 1.427 . S
N887 C885 1.384 . S
H888 C894 0.930 . S
H889 C898 0.930 . S
H890 C903 0.929 . S
H891 C901 0.929 . S
H892 C896 0.929 . S
H893 C902 0.929 . S
C894 H888 0.930 . S
C894 C895 1.367 . S
C894 C902 1.378 . S
C895 C894 1.367 . S
C895 C903 1.433 . S
C896 H892 0.929 . S
C896 C898 1.378 . S
C896 C900 1.350 . S
C897 C900 1.463 . S
C897 C902 1.350 . S
C897 N905 1.427 . S
C898 H889 0.930 . S
C898 C896 1.378 . S
C898 C899 1.367 . S
C899 C898 1.367 . S
C899 C901 1.433 . S
C900 C896 1.350 . S
C900 C897 1.463 . S
C900 N904 1.427 . S
C901 H891 0.929 . S
C901 C899 1.433 . S
C901 N904 1.384 . S
C902 H893 0.929 . S
C902 C894 1.378 . S
C902 C897 1.350 . S
C903 H890 0.929 . S
C903 C895 1.433 . S
C903 N905 1.384 . S
N904 C900 1.427 . S
N904 C901 1.384 . S
N905 C897 1.427 . S
N905 C903 1.384 . S
H906 C912 0.930 . S
H907 C916 0.930 . S
H908 C921 0.929 . S
H909 C919 0.929 . S
H910 C914 0.929 . S
H911 C920 0.929 . S
C912 H906 0.930 . S
C912 C913 1.367 . S
C912 C920 1.378 . S
C913 C912 1.367 . S
C913 C921 1.433 . S
C914 H910 0.929 . S
C914 C916 1.378 . S
C914 C918 1.350 . S
C915 C918 1.463 . S
C915 C920 1.350 . S
C915 N923 1.427 . S
C916 H907 0.930 . S
C916 C914 1.378 . S
C916 C917 1.367 . S
C917 C916 1.367 . S
C917 C919 1.433 . S
C918 C914 1.350 . S
C918 C915 1.463 . S
C918 N922 1.427 . S
C919 H909 0.929 . S
C919 C917 1.433 . S
C919 N922 1.384 . S
C920 H911 0.929 . S
C920 C912 1.378 . S
C920 C915 1.350 . S
C921 H908 0.929 . S
C921 C913 1.433 . S
C921 N923 1.384 . S
N922 C918 1.427 . S
N922 C919 1.384 . S
N923 C915 1.427 . S
N923 C921 1.384 . S
H924 C930 0.930 . S
H925 C934 0.930 . S
H926 C939 0.929 . S
H927 C937 0.929 . S
H928 C932 0.929 . S
H929 C938 0.929 . S
C930 H924 0.930 . S
C930 C931 1.367 . S
C930 C938 1.378 . S
C931 C930 1.367 . S
C931 C939 1.433 . S
C932 H928 0.929 . S
C932 C934 1.378 . S
C932 C936 1.350 . S
C933 C936 1.463 . S
C933 C938 1.350 . S
C933 N941 1.427 . S
C934 H925 0.930 . S
C934 C932 1.378 . S
C934 C935 1.367 . S
C935 C934 1.367 . S
C935 C937 1.433 . S
C936 C932 1.350 . S
C936 C933 1.463 . S
C936 N940 1.427 . S
C937 H927 0.929 . S
C937 C935 1.433 . S
C937 N940 1.384 . S
C938 H929 0.929 . S
C938 C930 1.378 . S
C938 C933 1.350 . S
C939 H926 0.929 . S
C939 C931 1.433 . S
C939 N941 1.384 . S
N940 C936 1.427 . S
N940 C937 1.384 . S
N941 C933 1.427 . S
N941 C939 1.384 . S
H942 C948 0.930 . S
H943 C952 0.930 . S
H944 C957 0.929 . S
H945 C955 0.929 . S
H946 C950 0.929 . S
H947 C956 0.929 . S
C948 H942 0.930 . S
C948 C949 1.367 . S
C948 C956 1.378 . S
C949 C948 1.367 . S
C949 C957 1.433 . S
C950 H946 0.929 . S
C950 C952 1.378 . S
C950 C954 1.350 . S
C951 C954 1.463 . S
C951 C956 1.350 . S
C951 N959 1.427 . S
C952 H943 0.930 . S
C952 C950 1.378 . S
C952 C953 1.367 . S
C953 C952 1.367 . S
C953 C955 1.433 . S
C954 C950 1.350 . S
C954 C951 1.463 . S
C954 N958 1.427 . S
C955 H945 0.929 . S
C955 C953 1.433 . S
C955 N958 1.384 . S
C956 H947 0.929 . S
C956 C948 1.378 . S
C956 C951 1.350 . S
C957 H944 0.929 . S
C957 C949 1.433 . S
C957 N959 1.384 . S
N958 C954 1.427 . S
N958 C955 1.384 . S
N959 C951 1.427 . S
N959 C957 1.384 . S
H960 C966 0.930 . S
H961 C970 0.930 . S
H962 C975 0.929 . S
H963 C973 0.929 . S
H964 C968 0.929 . S
H965 C974 0.929 . S
C966 H960 0.930 . S
C966 C967 1.367 . S
C966 C974 1.378 . S
C967 C966 1.367 . S
C967 C975 1.433 . S
C968 H964 0.929 . S
C968 C970 1.378 . S
C968 C972 1.350 . S
C969 C972 1.463 . S
C969 C974 1.350 . S
C969 N977 1.427 . S
C970 H961 0.930 . S
C970 C968 1.378 . S
C970 C971 1.367 . S
C971 C970 1.367 . S
C971 C973 1.433 . S
C972 C968 1.350 . S
C972 C969 1.463 . S
C972 N976 1.427 . S
C973 H963 0.929 . S
C973 C971 1.433 . S
C973 N976 1.384 . S
C974 H965 0.929 . S
C974 C966 1.378 . S
C974 C969 1.350 . S
C975 H962 0.929 . S
C975 C967 1.433 . S
C975 N977 1.384 . S
N976 C972 1.427 . S
N976 C973 1.384 . S
N977 C969 1.427 . S
N977 C975 1.384 . S
H978 C984 0.930 . S
H979 C988 0.930 . S
H980 C993 0.929 . S
H981 C991 0.929 . S
H982 C986 0.929 . S
H983 C992 0.929 . S
C984 H978 0.930 . S
C984 C985 1.367 . S
C984 C992 1.378 . S
C985 C984 1.367 . S
C985 C993 1.433 . S
C986 H982 0.929 . S
C986 C988 1.378 . S
C986 C990 1.350 . S
C987 C990 1.463 . S
C987 C992 1.350 . S
C987 N995 1.427 . S
C988 H979 0.930 . S
C988 C986 1.378 . S
C988 C989 1.367 . S
C989 C988 1.367 . S
C989 C991 1.433 . S
C990 C986 1.350 . S
C990 C987 1.463 . S
C990 N994 1.427 . S
C991 H981 0.929 . S
C991 C989 1.433 . S
C991 N994 1.384 . S
C992 H983 0.929 . S
C992 C984 1.378 . S
C992 C987 1.350 . S
C993 H980 0.929 . S
C993 C985 1.433 . S
C993 N995 1.384 . S
N994 C990 1.427 . S
N994 C991 1.384 . S
N995 C987 1.427 . S
N995 C993 1.384 . S
H996 C1002 0.930 . S
H997 C1006 0.930 . S
H998 C1011 0.929 . S
H999 C1009 0.929 . S
H1000 C1004 0.929 . S
H1001 C1010 0.929 . S
C1002 H996 0.930 . S
C1002 C1003 1.367 . S
C1002 C1010 1.378 . S
C1003 C1002 1.367 . S
C1003 C1011 1.433 . S
C1004 H1000 0.929 . S
C1004 C1006 1.378 . S
C1004 C1008 1.350 . S
C1005 C1008 1.463 . S
C1005 C1010 1.350 . S
C1005 N1013 1.427 . S
C1006 H997 0.930 . S
C1006 C1004 1.378 . S
C1006 C1007 1.367 . S
C1007 C1006 1.367 . S
C1007 C1009 1.433 . S
C1008 C1004 1.350 . S
C1008 C1005 1.463 . S
C1008 N1012 1.427 . S
C1009 H999 0.929 . S
C1009 C1007 1.433 . S
C1009 N1012 1.384 . S
C1010 H1001 0.929 . S
C1010 C1002 1.378 . S
C1010 C1005 1.350 . S
C1011 H998 0.929 . S
C1011 C1003 1.433 . S
C1011 N1013 1.384 . S
N1012 C1008 1.427 . S
N1012 C1009 1.384 . S
N1013 C1005 1.427 . S
N1013 C1011 1.384 . S
H1014 C1020 0.930 . S
H1015 C1024 0.930 . S
H1016 C1029 0.929 . S
H1017 C1027 0.929 . S
H1018 C1022 0.929 . S
H1019 C1028 0.929 . S
C1020 H1014 0.930 . S
C1020 C1021 1.367 . S
C1020 C1028 1.378 . S
C1021 C1020 1.367 . S
C1021 C1029 1.433 . S
C1022 H1018 0.929 . S
C1022 C1024 1.378 . S
C1022 C1026 1.350 . S
C1023 C1026 1.463 . S
C1023 C1028 1.350 . S
C1023 N1031 1.427 . S
C1024 H1015 0.930 . S
C1024 C1022 1.378 . S
C1024 C1025 1.367 . S
C1025 C1024 1.367 . S
C1025 C1027 1.433 . S
C1026 C1022 1.350 . S
C1026 C1023 1.463 . S
C1026 N1030 1.427 . S
C1027 H1017 0.929 . S
C1027 C1025 1.433 . S
C1027 N1030 1.384 . S
C1028 H1019 0.929 . S
C1028 C1020 1.378 . S
C1028 C1023 1.350 . S
C1029 H1016 0.929 . S
C1029 C1021 1.433 . S
C1029 N1031 1.384 . S
N1030 C1026 1.427 . S
N1030 C1027 1.384 . S
N1031 C1023 1.427 . S
N1031 C1029 1.384 . S
H1032 C1038 0.930 . S
H1033 C1042 0.930 . S
H1034 C1047 0.929 . S
H1035 C1045 0.929 . S
H1036 C1040 0.929 . S
H1037 C1046 0.929 . S
C1038 H1032 0.930 . S
C1038 C1039 1.367 . S
C1038 C1046 1.378 . S
C1039 C1038 1.367 . S
C1039 C1047 1.433 . S
C1040 H1036 0.929 . S
C1040 C1042 1.378 . S
C1040 C1044 1.350 . S
C1041 C1044 1.463 . S
C1041 C1046 1.350 . S
C1041 N1049 1.427 . S
C1042 H1033 0.930 . S
C1042 C1040 1.378 . S
C1042 C1043 1.367 . S
C1043 C1042 1.367 . S
C1043 C1045 1.433 . S
C1044 C1040 1.350 . S
C1044 C1041 1.463 . S
C1044 N1048 1.427 . S
C1045 H1035 0.929 . S
C1045 C1043 1.433 . S
C1045 N1048 1.384 . S
C1046 H1037 0.929 . S
C1046 C1038 1.378 . S
C1046 C1041 1.350 . S
C1047 H1034 0.929 . S
C1047 C1039 1.433 . S
C1047 N1049 1.384 . S
N1048 C1044 1.427 . S
N1048 C1045 1.384 . S
N1049 C1041 1.427 . S
N1049 C1047 1.384 . S
H1050 C1056 0.930 . S
H1051 C1060 0.930 . S
H1052 C1065 0.929 . S
H1053 C1063 0.929 . S
H1054 C1058 0.929 . S
H1055 C1064 0.929 . S
C1056 H1050 0.930 . S
C1056 C1057 1.367 . S
C1056 C1064 1.378 . S
C1057 C1056 1.367 . S
C1057 C1065 1.433 . S
C1058 H1054 0.929 . S
C1058 C1060 1.378 . S
C1058 C1062 1.350 . S
C1059 C1062 1.463 . S
C1059 C1064 1.350 . S
C1059 N1067 1.427 . S
C1060 H1051 0.930 . S
C1060 C1058 1.378 . S
C1060 C1061 1.367 . S
C1061 C1060 1.367 . S
C1061 C1063 1.433 . S
C1062 C1058 1.350 . S
C1062 C1059 1.463 . S
C1062 N1066 1.427 . S
C1063 H1053 0.929 . S
C1063 C1061 1.433 . S
C1063 N1066 1.384 . S
C1064 H1055 0.929 . S
C1064 C1056 1.378 . S
C1064 C1059 1.350 . S
C1065 H1052 0.929 . S
C1065 C1057 1.433 . S
C1065 N1067 1.384 . S
N1066 C1062 1.427 . S
N1066 C1063 1.384 . S
N1067 C1059 1.427 . S
N1067 C1065 1.384 . S
H1068 C1074 0.930 . S
H1069 C1078 0.930 . S
H1070 C1083 0.929 . S
H1071 C1081 0.929 . S
H1072 C1076 0.929 . S
H1073 C1082 0.929 . S
C1074 H1068 0.930 . S
C1074 C1075 1.367 . S
C1074 C1082 1.378 . S
C1075 C1074 1.367 . S
C1075 C1083 1.433 . S
C1076 H1072 0.929 . S
C1076 C1078 1.378 . S
C1076 C1080 1.350 . S
C1077 C1080 1.463 . S
C1077 C1082 1.350 . S
C1077 N1085 1.427 . S
C1078 H1069 0.930 . S
C1078 C1076 1.378 . S
C1078 C1079 1.367 . S
C1079 C1078 1.367 . S
C1079 C1081 1.433 . S
C1080 C1076 1.350 . S
C1080 C1077 1.463 . S
C1080 N1084 1.427 . S
C1081 H1071 0.929 . S
C1081 C1079 1.433 . S
C1081 N1084 1.384 . S
C1082 H1073 0.929 . S
C1082 C1074 1.378 . S
C1082 C1077 1.350 . S
C1083 H1070 0.929 . S
C1083 C1075 1.433 . S
C1083 N1085 1.384 . S
N1084 C1080 1.427 . S
N1084 C1081 1.384 . S
N1085 C1077 1.427 . S
N1085 C1083 1.384 . S
H1086 C1092 0.930 . S
H1087 C1096 0.930 . S
H1088 C1101 0.929 . S
H1089 C1099 0.929 . S
H1090 C1094 0.929 . S
H1091 C1100 0.929 . S
C1092 H1086 0.930 . S
C1092 C1093 1.367 . S
C1092 C1100 1.378 . S
C1093 C1092 1.367 . S
C1093 C1101 1.433 . S
C1094 H1090 0.929 . S
C1094 C1096 1.378 . S
C1094 C1098 1.350 . S
C1095 C1098 1.463 . S
C1095 C1100 1.350 . S
C1095 N1103 1.427 . S
C1096 H1087 0.930 . S
C1096 C1094 1.378 . S
C1096 C1097 1.367 . S
C1097 C1096 1.367 . S
C1097 C1099 1.433 . S
C1098 C1094 1.350 . S
C1098 C1095 1.463 . S
C1098 N1102 1.427 . S
C1099 H1089 0.929 . S
C1099 C1097 1.433 . S
C1099 N1102 1.384 . S
C1100 H1091 0.929 . S
C1100 C1092 1.378 . S
C1100 C1095 1.350 . S
C1101 H1088 0.929 . S
C1101 C1093 1.433 . S
C1101 N1103 1.384 . S
N1102 C1098 1.427 . S
N1102 C1099 1.384 . S
N1103 C1095 1.427 . S
N1103 C1101 1.384 . S
H1104 C1110 0.930 . S
H1105 C1114 0.930 . S
H1106 C1119 0.929 . S
H1107 C1117 0.929 . S
H1108 C1112 0.929 . S
H1109 C1118 0.929 . S
C1110 H1104 0.930 . S
C1110 C1111 1.367 . S
C1110 C1118 1.378 . S
C1111 C1110 1.367 . S
C1111 C1119 1.433 . S
C1112 H1108 0.929 . S
C1112 C1114 1.378 . S
C1112 C1116 1.350 . S
C1113 C1116 1.463 . S
C1113 C1118 1.350 . S
C1113 N1121 1.427 . S
C1114 H1105 0.930 . S
C1114 C1112 1.378 . S
C1114 C1115 1.367 . S
C1115 C1114 1.367 . S
C1115 C1117 1.433 . S
C1116 C1112 1.350 . S
C1116 C1113 1.463 . S
C1116 N1120 1.427 . S
C1117 H1107 0.929 . S
C1117 C1115 1.433 . S
C1117 N1120 1.384 . S
C1118 H1109 0.929 . S
C1118 C1110 1.378 . S
C1118 C1113 1.350 . S
C1119 H1106 0.929 . S
C1119 C1111 1.433 . S
C1119 N1121 1.384 . S
N1120 C1116 1.427 . S
N1120 C1117 1.384 . S
N1121 C1113 1.427 . S
N1121 C1119 1.384 . S
H1122 C1128 0.930 . S
H1123 C1132 0.930 . S
H1124 C1137 0.929 . S
H1125 C1135 0.929 . S
H1126 C1130 0.929 . S
H1127 C1136 0.929 . S
C1128 H1122 0.930 . S
C1128 C1129 1.367 . S
C1128 C1136 1.378 . S
C1129 C1128 1.367 . S
C1129 C1137 1.433 . S
C1130 H1126 0.929 . S
C1130 C1132 1.378 . S
C1130 C1134 1.350 . S
C1131 C1134 1.463 . S
C1131 C1136 1.350 . S
C1131 N1139 1.427 . S
C1132 H1123 0.930 . S
C1132 C1130 1.378 . S
C1132 C1133 1.367 . S
C1133 C1132 1.367 . S
C1133 C1135 1.433 . S
C1134 C1130 1.350 . S
C1134 C1131 1.463 . S
C1134 N1138 1.427 . S
C1135 H1125 0.929 . S
C1135 C1133 1.433 . S
C1135 N1138 1.384 . S
C1136 H1127 0.929 . S
C1136 C1128 1.378 . S
C1136 C1131 1.350 . S
C1137 H1124 0.929 . S
C1137 C1129 1.433 . S
C1137 N1139 1.384 . S
N1138 C1134 1.427 . S
N1138 C1135 1.384 . S
N1139 C1131 1.427 . S
N1139 C1137 1.384 . S
H1140 C1146 0.930 . S
H1141 C1150 0.930 . S
H1142 C1155 0.929 . S
H1143 C1153 0.929 1_554 S
H1144 C1148 0.929 . S
H1145 C1154 0.929 . S
C1146 H1140 0.930 . S
C1146 C1147 1.367 . S
C1146 C1154 1.378 . S
C1147 C1146 1.367 . S
C1147 C1155 1.433 . S
C1148 H1144 0.929 . S
C1148 C1150 1.378 . S
C1148 C1152 1.350 . S
C1149 C1152 1.463 . S
C1149 C1154 1.350 . S
C1149 N1157 1.427 . S
C1150 H1141 0.930 . S
C1150 C1148 1.378 . S
C1150 C1151 1.367 . S
C1151 C1150 1.367 . S
C1151 C1153 1.433 . S
C1152 C1148 1.350 . S
C1152 C1149 1.463 . S
C1152 N1156 1.427 . S
C1153 H1143 0.929 1_556 S
C1153 C1151 1.433 . S
C1153 N1156 1.384 . S
C1154 H1145 0.929 . S
C1154 C1146 1.378 . S
C1154 C1149 1.350 . S
C1155 H1142 0.929 . S
C1155 C1147 1.433 . S
C1155 N1157 1.384 . S
N1156 C1152 1.427 . S
N1156 C1153 1.384 . S
N1157 C1149 1.427 . S
N1157 C1155 1.384 . S
H1158 C1164 0.930 . S
H1159 C1168 0.930 . S
H1160 C1173 0.929 . S
H1161 C1171 0.929 . S
H1162 C1166 0.929 . S
H1163 C1172 0.929 . S
C1164 H1158 0.930 . S
C1164 C1165 1.367 . S
C1164 C1172 1.378 . S
C1165 C1164 1.367 . S
C1165 C1173 1.433 . S
C1166 H1162 0.929 . S
C1166 C1168 1.378 . S
C1166 C1170 1.350 . S
C1167 C1170 1.463 . S
C1167 C1172 1.350 . S
C1167 N1175 1.427 . S
C1168 H1159 0.930 . S
C1168 C1166 1.378 . S
C1168 C1169 1.367 . S
C1169 C1168 1.367 . S
C1169 C1171 1.433 . S
C1170 C1166 1.350 . S
C1170 C1167 1.463 . S
C1170 N1174 1.427 . S
C1171 H1161 0.929 . S
C1171 C1169 1.433 . S
C1171 N1174 1.384 . S
C1172 H1163 0.929 . S
C1172 C1164 1.378 . S
C1172 C1167 1.350 . S
C1173 H1160 0.929 . S
C1173 C1165 1.433 . S
C1173 N1175 1.384 . S
N1174 C1170 1.427 . S
N1174 C1171 1.384 . S
N1175 C1167 1.427 . S
N1175 C1173 1.384 . S
H1176 C1182 0.930 . S
H1177 C1186 0.930 . S
H1178 C1191 0.929 . S
H1179 C1189 0.929 . S
H1180 C1184 0.929 . S
H1181 C1190 0.929 . S
C1182 H1176 0.930 . S
C1182 C1183 1.367 . S
C1182 C1190 1.378 . S
C1183 C1182 1.367 . S
C1183 C1191 1.433 . S
C1184 H1180 0.929 . S
C1184 C1186 1.378 . S
C1184 C1188 1.350 . S
C1185 C1188 1.463 . S
C1185 C1190 1.350 . S
C1185 N1193 1.427 . S
C1186 H1177 0.930 . S
C1186 C1184 1.378 . S
C1186 C1187 1.367 . S
C1187 C1186 1.367 . S
C1187 C1189 1.433 . S
C1188 C1184 1.350 . S
C1188 C1185 1.463 . S
C1188 N1192 1.427 . S
C1189 H1179 0.929 . S
C1189 C1187 1.433 . S
C1189 N1192 1.384 . S
C1190 H1181 0.929 . S
C1190 C1182 1.378 . S
C1190 C1185 1.350 . S
C1191 H1178 0.929 . S
C1191 C1183 1.433 . S
C1191 N1193 1.384 . S
N1192 C1188 1.427 . S
N1192 C1189 1.384 . S
N1193 C1185 1.427 . S
N1193 C1191 1.384 . S
H1194 C1200 0.930 . S
H1195 C1204 0.930 . S
H1196 C1209 0.929 . S
H1197 C1207 0.929 . S
H1198 C1202 0.929 . S
H1199 C1208 0.929 . S
C1200 H1194 0.930 . S
C1200 C1201 1.367 . S
C1200 C1208 1.378 . S
C1201 C1200 1.367 . S
C1201 C1209 1.433 . S
C1202 H1198 0.929 . S
C1202 C1204 1.378 . S
C1202 C1206 1.350 . S
C1203 C1206 1.463 . S
C1203 C1208 1.350 . S
C1203 N1211 1.427 . S
C1204 H1195 0.930 . S
C1204 C1202 1.378 . S
C1204 C1205 1.367 . S
C1205 C1204 1.367 . S
C1205 C1207 1.433 . S
C1206 C1202 1.350 . S
C1206 C1203 1.463 . S
C1206 N1210 1.427 . S
C1207 H1197 0.929 . S
C1207 C1205 1.433 . S
C1207 N1210 1.384 . S
C1208 H1199 0.929 . S
C1208 C1200 1.378 . S
C1208 C1203 1.350 . S
C1209 H1196 0.929 . S
C1209 C1201 1.433 . S
C1209 N1211 1.384 . S
N1210 C1206 1.427 . S
N1210 C1207 1.384 . S
N1211 C1203 1.427 . S
N1211 C1209 1.384 . S
H1212 C1218 0.930 . S
H1213 C1222 0.930 . S
H1214 C1227 0.929 . S
H1215 C1225 0.929 . S
H1216 C1220 0.929 . S
H1217 C1226 0.929 . S
C1218 H1212 0.930 . S
C1218 C1219 1.367 . S
C1218 C1226 1.378 . S
C1219 C1218 1.367 . S
C1219 C1227 1.433 . S
C1220 H1216 0.929 . S
C1220 C1222 1.378 . S
C1220 C1224 1.350 . S
C1221 C1224 1.463 . S
C1221 C1226 1.350 . S
C1221 N1229 1.427 . S
C1222 H1213 0.930 . S
C1222 C1220 1.378 . S
C1222 C1223 1.367 . S
C1223 C1222 1.367 . S
C1223 C1225 1.433 . S
C1224 C1220 1.350 . S
C1224 C1221 1.463 . S
C1224 N1228 1.427 . S
C1225 H1215 0.929 . S
C1225 C1223 1.433 . S
C1225 N1228 1.384 . S
C1226 H1217 0.929 . S
C1226 C1218 1.378 . S
C1226 C1221 1.350 . S
C1227 H1214 0.929 . S
C1227 C1219 1.433 . S
C1227 N1229 1.384 . S
N1228 C1224 1.427 . S
N1228 C1225 1.384 . S
N1229 C1221 1.427 . S
N1229 C1227 1.384 . S
H1230 C1236 0.930 . S
H1231 C1240 0.930 . S
H1232 C1245 0.929 . S
H1233 C1243 0.929 . S
H1234 C1238 0.929 . S
H1235 C1244 0.929 . S
C1236 H1230 0.930 . S
C1236 C1237 1.367 . S
C1236 C1244 1.378 . S
C1237 C1236 1.367 . S
C1237 C1245 1.433 . S
C1238 H1234 0.929 . S
C1238 C1240 1.378 . S
C1238 C1242 1.350 . S
C1239 C1242 1.463 . S
C1239 C1244 1.350 . S
C1239 N1247 1.427 . S
C1240 H1231 0.930 . S
C1240 C1238 1.378 . S
C1240 C1241 1.367 . S
C1241 C1240 1.367 . S
C1241 C1243 1.433 . S
C1242 C1238 1.350 . S
C1242 C1239 1.463 . S
C1242 N1246 1.427 . S
C1243 H1233 0.929 . S
C1243 C1241 1.433 . S
C1243 N1246 1.384 . S
C1244 H1235 0.929 . S
C1244 C1236 1.378 . S
C1244 C1239 1.350 . S
C1245 H1232 0.929 . S
C1245 C1237 1.433 . S
C1245 N1247 1.384 . S
N1246 C1242 1.427 . S
N1246 C1243 1.384 . S
N1247 C1239 1.427 . S
N1247 C1245 1.384 . S
H1248 C1254 0.930 . S
H1249 C1258 0.930 . S
H1250 C1263 0.929 . S
H1251 C1261 0.929 . S
H1252 C1256 0.929 . S
H1253 C1262 0.929 . S
C1254 H1248 0.930 . S
C1254 C1255 1.367 . S
C1254 C1262 1.378 . S
C1255 C1254 1.367 . S
C1255 C1263 1.433 . S
C1256 H1252 0.929 . S
C1256 C1258 1.378 . S
C1256 C1260 1.350 . S
C1257 C1260 1.463 . S
C1257 C1262 1.350 . S
C1257 N1265 1.427 . S
C1258 H1249 0.930 . S
C1258 C1256 1.378 . S
C1258 C1259 1.367 . S
C1259 C1258 1.367 . S
C1259 C1261 1.433 . S
C1260 C1256 1.350 . S
C1260 C1257 1.463 . S
C1260 N1264 1.427 . S
C1261 H1251 0.929 . S
C1261 C1259 1.433 . S
C1261 N1264 1.384 . S
C1262 H1253 0.929 . S
C1262 C1254 1.378 . S
C1262 C1257 1.350 . S
C1263 H1250 0.929 . S
C1263 C1255 1.433 . S
C1263 N1265 1.384 . S
N1264 C1260 1.427 . S
N1264 C1261 1.384 . S
N1265 C1257 1.427 . S
N1265 C1263 1.384 . S
H1266 C1272 0.930 . S
H1267 C1276 0.930 . S
H1268 C1281 0.929 . S
H1269 C1279 0.929 . S
H1270 C1274 0.929 . S
H1271 C1280 0.929 . S
C1272 H1266 0.930 . S
C1272 C1273 1.367 . S
C1272 C1280 1.378 . S
C1273 C1272 1.367 . S
C1273 C1281 1.433 . S
C1274 H1270 0.929 . S
C1274 C1276 1.378 . S
C1274 C1278 1.350 . S
C1275 C1278 1.463 . S
C1275 C1280 1.350 . S
C1275 N1283 1.427 . S
C1276 H1267 0.930 . S
C1276 C1274 1.378 . S
C1276 C1277 1.367 . S
C1277 C1276 1.367 . S
C1277 C1279 1.433 . S
C1278 C1274 1.350 . S
C1278 C1275 1.463 . S
C1278 N1282 1.427 . S
C1279 H1269 0.929 . S
C1279 C1277 1.433 . S
C1279 N1282 1.384 . S
C1280 H1271 0.929 . S
C1280 C1272 1.378 . S
C1280 C1275 1.350 . S
C1281 H1268 0.929 . S
C1281 C1273 1.433 . S
C1281 N1283 1.384 . S
N1282 C1278 1.427 . S
N1282 C1279 1.384 . S
N1283 C1275 1.427 . S
N1283 C1281 1.384 . S
H1284 C1290 0.930 . S
H1285 C1294 0.930 . S
H1286 C1299 0.929 . S
H1287 C1297 0.929 . S
H1288 C1292 0.929 . S
H1289 C1298 0.929 . S
C1290 H1284 0.930 . S
C1290 C1291 1.367 . S
C1290 C1298 1.378 . S
C1291 C1290 1.367 . S
C1291 C1299 1.433 . S
C1292 H1288 0.929 . S
C1292 C1294 1.378 . S
C1292 C1296 1.350 . S
C1293 C1296 1.463 . S
C1293 C1298 1.350 . S
C1293 N1301 1.427 . S
C1294 H1285 0.930 . S
C1294 C1292 1.378 . S
C1294 C1295 1.367 . S
C1295 C1294 1.367 . S
C1295 C1297 1.433 . S
C1296 C1292 1.350 . S
C1296 C1293 1.463 . S
C1296 N1300 1.427 . S
C1297 H1287 0.929 . S
C1297 C1295 1.433 . S
C1297 N1300 1.384 . S
C1298 H1289 0.929 . S
C1298 C1290 1.378 . S
C1298 C1293 1.350 . S
C1299 H1286 0.929 . S
C1299 C1291 1.433 . S
C1299 N1301 1.384 . S
N1300 C1296 1.427 . S
N1300 C1297 1.384 . S
N1301 C1293 1.427 . S
N1301 C1299 1.384 . S
H1302 C1308 0.930 . S
H1303 C1312 0.930 . S
H1304 C1317 0.929 . S
H1305 C1315 0.929 . S
H1306 C1310 0.929 . S
H1307 C1316 0.929 . S
C1308 H1302 0.930 . S
C1308 C1309 1.367 . S
C1308 C1316 1.378 . S
C1309 C1308 1.367 . S
C1309 C1317 1.433 . S
C1310 H1306 0.929 . S
C1310 C1312 1.378 . S
C1310 C1314 1.350 . S
C1311 C1314 1.463 . S
C1311 C1316 1.350 . S
C1311 N1319 1.427 . S
C1312 H1303 0.930 . S
C1312 C1310 1.378 . S
C1312 C1313 1.367 . S
C1313 C1312 1.367 . S
C1313 C1315 1.433 . S
C1314 C1310 1.350 . S
C1314 C1311 1.463 . S
C1314 N1318 1.427 . S
C1315 H1305 0.929 . S
C1315 C1313 1.433 . S
C1315 N1318 1.384 . S
C1316 H1307 0.929 . S
C1316 C1308 1.378 . S
C1316 C1311 1.350 . S
C1317 H1304 0.929 . S
C1317 C1309 1.433 . S
C1317 N1319 1.384 . S
N1318 C1314 1.427 . S
N1318 C1315 1.384 . S
N1319 C1311 1.427 . S
N1319 C1317 1.384 . S
H1320 C1326 0.930 . S
H1321 C1330 0.930 . S
H1322 C1335 0.929 . S
H1323 C1333 0.929 . S
H1324 C1328 0.929 . S
H1325 C1334 0.929 . S
C1326 H1320 0.930 . S
C1326 C1327 1.367 . S
C1326 C1334 1.378 . S
C1327 C1326 1.367 . S
C1327 C1335 1.433 . S
C1328 H1324 0.929 . S
C1328 C1330 1.378 . S
C1328 C1332 1.350 . S
C1329 C1332 1.463 . S
C1329 C1334 1.350 . S
C1329 N1337 1.427 . S
C1330 H1321 0.930 . S
C1330 C1328 1.378 . S
C1330 C1331 1.367 . S
C1331 C1330 1.367 . S
C1331 C1333 1.433 . S
C1332 C1328 1.350 . S
C1332 C1329 1.463 . S
C1332 N1336 1.427 . S
C1333 H1323 0.929 . S
C1333 C1331 1.433 . S
C1333 N1336 1.384 . S
C1334 H1325 0.929 . S
C1334 C1326 1.378 . S
C1334 C1329 1.350 . S
C1335 H1322 0.929 . S
C1335 C1327 1.433 . S
C1335 N1337 1.384 . S
N1336 C1332 1.427 . S
N1336 C1333 1.384 . S
N1337 C1329 1.427 . S
N1337 C1335 1.384 . S
H1338 C1344 0.930 . S
H1339 C1348 0.930 . S
H1340 C1353 0.929 . S
H1341 C1351 0.929 . S
H1342 C1346 0.929 . S
H1343 C1352 0.929 . S
C1344 H1338 0.930 . S
C1344 C1345 1.367 . S
C1344 C1352 1.378 . S
C1345 C1344 1.367 . S
C1345 C1353 1.433 . S
C1346 H1342 0.929 . S
C1346 C1348 1.378 . S
C1346 C1350 1.350 . S
C1347 C1350 1.463 . S
C1347 C1352 1.350 . S
C1347 N1355 1.427 . S
C1348 H1339 0.930 . S
C1348 C1346 1.378 . S
C1348 C1349 1.367 . S
C1349 C1348 1.367 . S
C1349 C1351 1.433 . S
C1350 C1346 1.350 . S
C1350 C1347 1.463 . S
C1350 N1354 1.427 . S
C1351 H1341 0.929 . S
C1351 C1349 1.433 . S
C1351 N1354 1.384 . S
C1352 H1343 0.929 . S
C1352 C1344 1.378 . S
C1352 C1347 1.350 . S
C1353 H1340 0.929 . S
C1353 C1345 1.433 . S
C1353 N1355 1.384 . S
N1354 C1350 1.427 . S
N1354 C1351 1.384 . S
N1355 C1347 1.427 . S
N1355 C1353 1.384 . S
H1356 C1362 0.930 . S
H1357 C1366 0.930 . S
H1358 C1371 0.929 . S
H1359 C1369 0.929 . S
H1360 C1364 0.929 . S
H1361 C1370 0.929 . S
C1362 H1356 0.930 . S
C1362 C1363 1.367 . S
C1362 C1370 1.378 . S
C1363 C1362 1.367 . S
C1363 C1371 1.433 . S
C1364 H1360 0.929 . S
C1364 C1366 1.378 . S
C1364 C1368 1.350 . S
C1365 C1368 1.463 . S
C1365 C1370 1.350 . S
C1365 N1373 1.427 . S
C1366 H1357 0.930 . S
C1366 C1364 1.378 . S
C1366 C1367 1.367 . S
C1367 C1366 1.367 . S
C1367 C1369 1.433 . S
C1368 C1364 1.350 . S
C1368 C1365 1.463 . S
C1368 N1372 1.427 . S
C1369 H1359 0.929 . S
C1369 C1367 1.433 . S
C1369 N1372 1.384 . S
C1370 H1361 0.929 . S
C1370 C1362 1.378 . S
C1370 C1365 1.350 . S
C1371 H1358 0.929 . S
C1371 C1363 1.433 . S
C1371 N1373 1.384 . S
N1372 C1368 1.427 . S
N1372 C1369 1.384 . S
N1373 C1365 1.427 . S
N1373 C1371 1.384 . S
H1374 C1380 0.930 . S
H1375 C1384 0.930 . S
H1376 C1389 0.929 . S
H1377 C1387 0.929 . S
H1378 C1382 0.929 . S
H1379 C1388 0.929 . S
C1380 H1374 0.930 . S
C1380 C1381 1.367 . S
C1380 C1388 1.378 . S
C1381 C1380 1.367 . S
C1381 C1389 1.433 . S
C1382 H1378 0.929 . S
C1382 C1384 1.378 . S
C1382 C1386 1.350 . S
C1383 C1386 1.463 . S
C1383 C1388 1.350 . S
C1383 N1391 1.427 . S
C1384 H1375 0.930 . S
C1384 C1382 1.378 . S
C1384 C1385 1.367 . S
C1385 C1384 1.367 . S
C1385 C1387 1.433 . S
C1386 C1382 1.350 . S
C1386 C1383 1.463 . S
C1386 N1390 1.427 . S
C1387 H1377 0.929 . S
C1387 C1385 1.433 . S
C1387 N1390 1.384 . S
C1388 H1379 0.929 . S
C1388 C1380 1.378 . S
C1388 C1383 1.350 . S
C1389 H1376 0.929 . S
C1389 C1381 1.433 . S
C1389 N1391 1.384 . S
N1390 C1386 1.427 . S
N1390 C1387 1.384 . S
N1391 C1383 1.427 . S
N1391 C1389 1.384 . S
H1392 C1398 0.930 . S
H1393 C1402 0.930 . S
H1394 C1407 0.929 . S
H1395 C1405 0.929 . S
H1396 C1400 0.929 . S
H1397 C1406 0.929 . S
C1398 H1392 0.930 . S
C1398 C1399 1.367 . S
C1398 C1406 1.378 . S
C1399 C1398 1.367 . S
C1399 C1407 1.433 . S
C1400 H1396 0.929 . S
C1400 C1402 1.378 . S
C1400 C1404 1.350 . S
C1401 C1404 1.463 . S
C1401 C1406 1.350 . S
C1401 N1409 1.427 . S
C1402 H1393 0.930 . S
C1402 C1400 1.378 . S
C1402 C1403 1.367 . S
C1403 C1402 1.367 . S
C1403 C1405 1.433 . S
C1404 C1400 1.350 . S
C1404 C1401 1.463 . S
C1404 N1408 1.427 . S
C1405 H1395 0.929 . S
C1405 C1403 1.433 . S
C1405 N1408 1.384 . S
C1406 H1397 0.929 . S
C1406 C1398 1.378 . S
C1406 C1401 1.350 . S
C1407 H1394 0.929 . S
C1407 C1399 1.433 . S
C1407 N1409 1.384 . S
N1408 C1404 1.427 . S
N1408 C1405 1.384 . S
N1409 C1401 1.427 . S
N1409 C1407 1.384 . S
H1410 C1416 0.930 . S
H1411 C1420 0.930 . S
H1412 C1425 0.929 . S
H1413 C1423 0.929 . S
H1414 C1418 0.929 . S
H1415 C1424 0.929 . S
C1416 H1410 0.930 . S
C1416 C1417 1.367 . S
C1416 C1424 1.378 . S
C1417 C1416 1.367 . S
C1417 C1425 1.433 . S
C1418 H1414 0.929 . S
C1418 C1420 1.378 . S
C1418 C1422 1.350 . S
C1419 C1422 1.463 . S
C1419 C1424 1.350 . S
C1419 N1427 1.427 . S
C1420 H1411 0.930 . S
C1420 C1418 1.378 . S
C1420 C1421 1.367 . S
C1421 C1420 1.367 . S
C1421 C1423 1.433 . S
C1422 C1418 1.350 . S
C1422 C1419 1.463 . S
C1422 N1426 1.427 . S
C1423 H1413 0.929 . S
C1423 C1421 1.433 . S
C1423 N1426 1.384 . S
C1424 H1415 0.929 . S
C1424 C1416 1.378 . S
C1424 C1419 1.350 . S
C1425 H1412 0.929 . S
C1425 C1417 1.433 . S
C1425 N1427 1.384 . S
N1426 C1422 1.427 . S
N1426 C1423 1.384 . S
N1427 C1419 1.427 . S
N1427 C1425 1.384 . S
H1428 C1434 0.930 . S
H1429 C1438 0.930 . S
H1430 C1443 0.929 . S
H1431 C1441 0.929 . S
H1432 C1436 0.929 . S
H1433 C1442 0.929 . S
C1434 H1428 0.930 . S
C1434 C1435 1.367 . S
C1434 C1442 1.378 . S
C1435 C1434 1.367 . S
C1435 C1443 1.433 . S
C1436 H1432 0.929 . S
C1436 C1438 1.378 . S
C1436 C1440 1.350 . S
C1437 C1440 1.463 . S
C1437 C1442 1.350 . S
C1437 N1445 1.427 . S
C1438 H1429 0.930 . S
C1438 C1436 1.378 . S
C1438 C1439 1.367 . S
C1439 C1438 1.367 . S
C1439 C1441 1.433 . S
C1440 C1436 1.350 . S
C1440 C1437 1.463 . S
C1440 N1444 1.427 . S
C1441 H1431 0.929 . S
C1441 C1439 1.433 . S
C1441 N1444 1.384 . S
C1442 H1433 0.929 . S
C1442 C1434 1.378 . S
C1442 C1437 1.350 . S
C1443 H1430 0.929 . S
C1443 C1435 1.433 . S
C1443 N1445 1.384 . S
N1444 C1440 1.427 . S
N1444 C1441 1.384 . S
N1445 C1437 1.427 . S
N1445 C1443 1.384 . S
H1446 C1452 0.930 . S
H1447 C1456 0.930 . S
H1448 C1461 0.929 . S
H1449 C1459 0.929 . S
H1450 C1454 0.929 . S
H1451 C1460 0.929 . S
C1452 H1446 0.930 . S
C1452 C1453 1.367 . S
C1452 C1460 1.378 . S
C1453 C1452 1.367 . S
C1453 C1461 1.433 . S
C1454 H1450 0.929 . S
C1454 C1456 1.378 . S
C1454 C1458 1.350 . S
C1455 C1458 1.463 . S
C1455 C1460 1.350 . S
C1455 N1463 1.427 . S
C1456 H1447 0.930 . S
C1456 C1454 1.378 . S
C1456 C1457 1.367 . S
C1457 C1456 1.367 . S
C1457 C1459 1.433 . S
C1458 C1454 1.350 . S
C1458 C1455 1.463 . S
C1458 N1462 1.427 . S
C1459 H1449 0.929 . S
C1459 C1457 1.433 . S
C1459 N1462 1.384 . S
C1460 H1451 0.929 . S
C1460 C1452 1.378 . S
C1460 C1455 1.350 . S
C1461 H1448 0.929 . S
C1461 C1453 1.433 . S
C1461 N1463 1.384 . S
N1462 C1458 1.427 . S
N1462 C1459 1.384 . S
N1463 C1455 1.427 . S
N1463 C1461 1.384 . S
H1464 C1470 0.930 . S
H1465 C1474 0.930 . S
H1466 C1479 0.929 . S
H1467 C1477 0.929 . S
H1468 C1472 0.929 . S
H1469 C1478 0.929 . S
C1470 H1464 0.930 . S
C1470 C1471 1.367 . S
C1470 C1478 1.378 . S
C1471 C1470 1.367 . S
C1471 C1479 1.433 . S
C1472 H1468 0.929 . S
C1472 C1474 1.378 . S
C1472 C1476 1.350 . S
C1473 C1476 1.463 . S
C1473 C1478 1.350 . S
C1473 N1481 1.427 . S
C1474 H1465 0.930 . S
C1474 C1472 1.378 . S
C1474 C1475 1.367 . S
C1475 C1474 1.367 . S
C1475 C1477 1.433 . S
C1476 C1472 1.350 . S
C1476 C1473 1.463 . S
C1476 N1480 1.427 . S
C1477 H1467 0.929 . S
C1477 C1475 1.433 . S
C1477 N1480 1.384 . S
C1478 H1469 0.929 . S
C1478 C1470 1.378 . S
C1478 C1473 1.350 . S
C1479 H1466 0.929 . S
C1479 C1471 1.433 . S
C1479 N1481 1.384 . S
N1480 C1476 1.427 . S
N1480 C1477 1.384 . S
N1481 C1473 1.427 . S
N1481 C1479 1.384 . S
H1482 C1488 0.930 . S
H1483 C1492 0.930 . S
H1484 C1497 0.929 . S
H1485 C1495 0.929 . S
H1486 C1490 0.929 . S
H1487 C1496 0.929 . S
C1488 H1482 0.930 . S
C1488 C1489 1.367 . S
C1488 C1496 1.378 . S
C1489 C1488 1.367 . S
C1489 C1497 1.433 . S
C1490 H1486 0.929 . S
C1490 C1492 1.378 . S
C1490 C1494 1.350 . S
C1491 C1494 1.463 . S
C1491 C1496 1.350 . S
C1491 N1499 1.427 . S
C1492 H1483 0.930 . S
C1492 C1490 1.378 . S
C1492 C1493 1.367 . S
C1493 C1492 1.367 . S
C1493 C1495 1.433 . S
C1494 C1490 1.350 . S
C1494 C1491 1.463 . S
C1494 N1498 1.427 . S
C1495 H1485 0.929 . S
C1495 C1493 1.433 . S
C1495 N1498 1.384 . S
C1496 H1487 0.929 . S
C1496 C1488 1.378 . S
C1496 C1491 1.350 . S
C1497 H1484 0.929 . S
C1497 C1489 1.433 . S
C1497 N1499 1.384 . S
N1498 C1494 1.427 . S
N1498 C1495 1.384 . S
N1499 C1491 1.427 . S
N1499 C1497 1.384 . S
H1500 C1506 0.930 . S
H1501 C1510 0.930 . S
H1502 C1515 0.929 . S
H1503 C1513 0.929 . S
H1504 C1508 0.929 . S
H1505 C1514 0.929 . S
C1506 H1500 0.930 . S
C1506 C1507 1.367 . S
C1506 C1514 1.378 . S
C1507 C1506 1.367 . S
C1507 C1515 1.433 . S
C1508 H1504 0.929 . S
C1508 C1510 1.378 . S
C1508 C1512 1.350 . S
C1509 C1512 1.463 . S
C1509 C1514 1.350 . S
C1509 N1517 1.427 . S
C1510 H1501 0.930 . S
C1510 C1508 1.378 . S
C1510 C1511 1.367 . S
C1511 C1510 1.367 . S
C1511 C1513 1.433 . S
C1512 C1508 1.350 . S
C1512 C1509 1.463 . S
C1512 N1516 1.427 . S
C1513 H1503 0.929 . S
C1513 C1511 1.433 . S
C1513 N1516 1.384 . S
C1514 H1505 0.929 . S
C1514 C1506 1.378 . S
C1514 C1509 1.350 . S
C1515 H1502 0.929 . S
C1515 C1507 1.433 . S
C1515 N1517 1.384 . S
N1516 C1512 1.427 . S
N1516 C1513 1.384 . S
N1517 C1509 1.427 . S
N1517 C1515 1.384 . S
H1518 C1524 0.930 . S
H1519 C1528 0.930 . S
H1520 C1533 0.929 . S
H1521 C1531 0.929 . S
H1522 C1526 0.929 . S
H1523 C1532 0.929 . S
C1524 H1518 0.930 . S
C1524 C1525 1.367 . S
C1524 C1532 1.378 . S
C1525 C1524 1.367 . S
C1525 C1533 1.433 . S
C1526 H1522 0.929 . S
C1526 C1528 1.378 . S
C1526 C1530 1.350 . S
C1527 C1530 1.463 . S
C1527 C1532 1.350 . S
C1527 N1535 1.427 . S
C1528 H1519 0.930 . S
C1528 C1526 1.378 . S
C1528 C1529 1.367 . S
C1529 C1528 1.367 . S
C1529 C1531 1.433 . S
C1530 C1526 1.350 . S
C1530 C1527 1.463 . S
C1530 N1534 1.427 . S
C1531 H1521 0.929 . S
C1531 C1529 1.433 . S
C1531 N1534 1.384 . S
C1532 H1523 0.929 . S
C1532 C1524 1.378 . S
C1532 C1527 1.350 . S
C1533 H1520 0.929 . S
C1533 C1525 1.433 . S
C1533 N1535 1.384 . S
N1534 C1530 1.427 . S
N1534 C1531 1.384 . S
N1535 C1527 1.427 . S
N1535 C1533 1.384 . S
H1536 C1542 0.930 . S
H1537 C1546 0.930 . S
H1538 C1551 0.929 . S
H1539 C1549 0.929 . S
H1540 C1544 0.929 . S
H1541 C1550 0.929 . S
C1542 H1536 0.930 . S
C1542 C1543 1.367 . S
C1542 C1550 1.378 . S
C1543 C1542 1.367 . S
C1543 C1551 1.433 . S
C1544 H1540 0.929 . S
C1544 C1546 1.378 . S
C1544 C1548 1.350 . S
C1545 C1548 1.463 . S
C1545 C1550 1.350 . S
C1545 N1553 1.427 . S
C1546 H1537 0.930 . S
C1546 C1544 1.378 . S
C1546 C1547 1.367 . S
C1547 C1546 1.367 . S
C1547 C1549 1.433 . S
C1548 C1544 1.350 . S
C1548 C1545 1.463 . S
C1548 N1552 1.427 . S
C1549 H1539 0.929 . S
C1549 C1547 1.433 . S
C1549 N1552 1.384 . S
C1550 H1541 0.929 . S
C1550 C1542 1.378 . S
C1550 C1545 1.350 . S
C1551 H1538 0.929 . S
C1551 C1543 1.433 . S
C1551 N1553 1.384 . S
N1552 C1548 1.427 . S
N1552 C1549 1.384 . S
N1553 C1545 1.427 . S
N1553 C1551 1.384 . S
H1554 C1560 0.930 . S
H1555 C1564 0.930 . S
H1556 C1569 0.929 . S
H1557 C1567 0.929 . S
H1558 C1562 0.929 . S
H1559 C1568 0.929 . S
C1560 H1554 0.930 . S
C1560 C1561 1.367 . S
C1560 C1568 1.378 . S
C1561 C1560 1.367 . S
C1561 C1569 1.433 . S
C1562 H1558 0.929 . S
C1562 C1564 1.378 . S
C1562 C1566 1.350 . S
C1563 C1566 1.463 . S
C1563 C1568 1.350 . S
C1563 N1571 1.427 . S
C1564 H1555 0.930 . S
C1564 C1562 1.378 . S
C1564 C1565 1.367 . S
C1565 C1564 1.367 . S
C1565 C1567 1.433 . S
C1566 C1562 1.350 . S
C1566 C1563 1.463 . S
C1566 N1570 1.427 . S
C1567 H1557 0.929 . S
C1567 C1565 1.433 . S
C1567 N1570 1.384 . S
C1568 H1559 0.929 . S
C1568 C1560 1.378 . S
C1568 C1563 1.350 . S
C1569 H1556 0.929 . S
C1569 C1561 1.433 . S
C1569 N1571 1.384 . S
N1570 C1566 1.427 . S
N1570 C1567 1.384 . S
N1571 C1563 1.427 . S
N1571 C1569 1.384 . S
H1572 C1578 0.930 . S
H1573 C1582 0.930 . S
H1574 C1587 0.929 . S
H1575 C1585 0.929 . S
H1576 C1580 0.929 . S
H1577 C1586 0.929 . S
C1578 H1572 0.930 . S
C1578 C1579 1.367 . S
C1578 C1586 1.378 . S
C1579 C1578 1.367 . S
C1579 C1587 1.433 . S
C1580 H1576 0.929 . S
C1580 C1582 1.378 . S
C1580 C1584 1.350 . S
C1581 C1584 1.463 . S
C1581 C1586 1.350 . S
C1581 N1589 1.427 . S
C1582 H1573 0.930 . S
C1582 C1580 1.378 . S
C1582 C1583 1.367 . S
C1583 C1582 1.367 . S
C1583 C1585 1.433 . S
C1584 C1580 1.350 . S
C1584 C1581 1.463 . S
C1584 N1588 1.427 . S
C1585 H1575 0.929 . S
C1585 C1583 1.433 . S
C1585 N1588 1.384 . S
C1586 H1577 0.929 . S
C1586 C1578 1.378 . S
C1586 C1581 1.350 . S
C1587 H1574 0.929 . S
C1587 C1579 1.433 . S
C1587 N1589 1.384 . S
N1588 C1584 1.427 . S
N1588 C1585 1.384 . S
N1589 C1581 1.427 . S
N1589 C1587 1.384 . S
H1590 C1596 0.930 . S
H1591 C1600 0.930 . S
H1592 C1605 0.929 . S
H1593 C1603 0.929 . S
H1594 C1598 0.929 . S
H1595 C1604 0.929 . S
C1596 H1590 0.930 . S
C1596 C1597 1.367 . S
C1596 C1604 1.378 . S
C1597 C1596 1.367 . S
C1597 C1605 1.433 . S
C1598 H1594 0.929 . S
C1598 C1600 1.378 . S
C1598 C1602 1.350 . S
C1599 C1602 1.463 . S
C1599 C1604 1.350 . S
C1599 N1607 1.427 . S
C1600 H1591 0.930 . S
C1600 C1598 1.378 . S
C1600 C1601 1.367 . S
C1601 C1600 1.367 . S
C1601 C1603 1.433 . S
C1602 C1598 1.350 . S
C1602 C1599 1.463 . S
C1602 N1606 1.427 . S
C1603 H1593 0.929 . S
C1603 C1601 1.433 . S
C1603 N1606 1.384 . S
C1604 H1595 0.929 . S
C1604 C1596 1.378 . S
C1604 C1599 1.350 . S
C1605 H1592 0.929 . S
C1605 C1597 1.433 . S
C1605 N1607 1.384 . S
N1606 C1602 1.427 . S
N1606 C1603 1.384 . S
N1607 C1599 1.427 . S
N1607 C1605 1.384 . S
H1608 C1614 0.930 . S
H1609 C1618 0.930 . S
H1610 C1623 0.929 . S
H1611 C1621 0.929 . S
H1612 C1616 0.929 . S
H1613 C1622 0.929 . S
C1614 H1608 0.930 . S
C1614 C1615 1.367 . S
C1614 C1622 1.378 . S
C1615 C1614 1.367 . S
C1615 C1623 1.433 . S
C1616 H1612 0.929 . S
C1616 C1618 1.378 . S
C1616 C1620 1.350 . S
C1617 C1620 1.463 . S
C1617 C1622 1.350 . S
C1617 N1625 1.427 . S
C1618 H1609 0.930 . S
C1618 C1616 1.378 . S
C1618 C1619 1.367 . S
C1619 C1618 1.367 . S
C1619 C1621 1.433 . S
C1620 C1616 1.350 . S
C1620 C1617 1.463 . S
C1620 N1624 1.427 . S
C1621 H1611 0.929 . S
C1621 C1619 1.433 . S
C1621 N1624 1.384 . S
C1622 H1613 0.929 . S
C1622 C1614 1.378 . S
C1622 C1617 1.350 . S
C1623 H1610 0.929 . S
C1623 C1615 1.433 . S
C1623 N1625 1.384 . S
N1624 C1620 1.427 . S
N1624 C1621 1.384 . S
N1625 C1617 1.427 . S
N1625 C1623 1.384 . S
H1626 C1632 0.930 . S
H1627 C1636 0.930 . S
H1628 C1641 0.929 . S
H1629 C1639 0.929 . S
H1630 C1634 0.929 . S
H1631 C1640 0.929 . S
C1632 H1626 0.930 . S
C1632 C1633 1.367 . S
C1632 C1640 1.378 . S
C1633 C1632 1.367 . S
C1633 C1641 1.433 . S
C1634 H1630 0.929 . S
C1634 C1636 1.378 . S
C1634 C1638 1.350 . S
C1635 C1638 1.463 . S
C1635 C1640 1.350 . S
C1635 N1643 1.427 . S
C1636 H1627 0.930 . S
C1636 C1634 1.378 . S
C1636 C1637 1.367 . S
C1637 C1636 1.367 . S
C1637 C1639 1.433 . S
C1638 C1634 1.350 . S
C1638 C1635 1.463 . S
C1638 N1642 1.427 . S
C1639 H1629 0.929 . S
C1639 C1637 1.433 . S
C1639 N1642 1.384 . S
C1640 H1631 0.929 . S
C1640 C1632 1.378 . S
C1640 C1635 1.350 . S
C1641 H1628 0.929 . S
C1641 C1633 1.433 . S
C1641 N1643 1.384 . S
N1642 C1638 1.427 . S
N1642 C1639 1.384 . S
N1643 C1635 1.427 . S
N1643 C1641 1.384 . S
H1644 C1650 0.930 . S
H1645 C1654 0.930 . S
H1646 C1659 0.929 . S
H1647 C1657 0.929 . S
H1648 C1652 0.929 . S
H1649 C1658 0.929 . S
C1650 H1644 0.930 . S
C1650 C1651 1.367 . S
C1650 C1658 1.378 . S
C1651 C1650 1.367 . S
C1651 C1659 1.433 . S
C1652 H1648 0.929 . S
C1652 C1654 1.378 . S
C1652 C1656 1.350 . S
C1653 C1656 1.463 . S
C1653 C1658 1.350 . S
C1653 N1661 1.427 . S
C1654 H1645 0.930 . S
C1654 C1652 1.378 . S
C1654 C1655 1.367 . S
C1655 C1654 1.367 . S
C1655 C1657 1.433 . S
C1656 C1652 1.350 . S
C1656 C1653 1.463 . S
C1656 N1660 1.427 . S
C1657 H1647 0.929 . S
C1657 C1655 1.433 . S
C1657 N1660 1.384 . S
C1658 H1649 0.929 . S
C1658 C1650 1.378 . S
C1658 C1653 1.350 . S
C1659 H1646 0.929 . S
C1659 C1651 1.433 . S
C1659 N1661 1.384 . S
N1660 C1656 1.427 . S
N1660 C1657 1.384 . S
N1661 C1653 1.427 . S
N1661 C1659 1.384 . S
H1662 C1668 0.930 . S
H1663 C1672 0.930 . S
H1664 C1677 0.929 . S
H1665 C1675 0.929 . S
H1666 C1670 0.929 . S
H1667 C1676 0.929 . S
C1668 H1662 0.930 . S
C1668 C1669 1.367 . S
C1668 C1676 1.378 . S
C1669 C1668 1.367 . S
C1669 C1677 1.433 . S
C1670 H1666 0.929 . S
C1670 C1672 1.378 . S
C1670 C1674 1.350 . S
C1671 C1674 1.463 . S
C1671 C1676 1.350 . S
C1671 N1679 1.427 . S
C1672 H1663 0.930 . S
C1672 C1670 1.378 . S
C1672 C1673 1.367 . S
C1673 C1672 1.367 . S
C1673 C1675 1.433 . S
C1674 C1670 1.350 . S
C1674 C1671 1.463 . S
C1674 N1678 1.427 . S
C1675 H1665 0.929 . S
C1675 C1673 1.433 . S
C1675 N1678 1.384 . S
C1676 H1667 0.929 . S
C1676 C1668 1.378 . S
C1676 C1671 1.350 . S
C1677 H1664 0.929 . S
C1677 C1669 1.433 . S
C1677 N1679 1.384 . S
N1678 C1674 1.427 . S
N1678 C1675 1.384 . S
N1679 C1671 1.427 . S
N1679 C1677 1.384 . S
H1680 C1686 0.930 . S
H1681 C1690 0.930 . S
H1682 C1695 0.929 . S
H1683 C1693 0.929 . S
H1684 C1688 0.929 . S
H1685 C1694 0.929 . S
C1686 H1680 0.930 . S
C1686 C1687 1.367 . S
C1686 C1694 1.378 . S
C1687 C1686 1.367 . S
C1687 C1695 1.433 . S
C1688 H1684 0.929 . S
C1688 C1690 1.378 . S
C1688 C1692 1.350 . S
C1689 C1692 1.463 . S
C1689 C1694 1.350 . S
C1689 N1697 1.427 . S
C1690 H1681 0.930 . S
C1690 C1688 1.378 . S
C1690 C1691 1.367 . S
C1691 C1690 1.367 . S
C1691 C1693 1.433 . S
C1692 C1688 1.350 . S
C1692 C1689 1.463 . S
C1692 N1696 1.427 . S
C1693 H1683 0.929 . S
C1693 C1691 1.433 . S
C1693 N1696 1.384 . S
C1694 H1685 0.929 . S
C1694 C1686 1.378 . S
C1694 C1689 1.350 . S
C1695 H1682 0.929 . S
C1695 C1687 1.433 . S
C1695 N1697 1.384 . S
N1696 C1692 1.427 . S
N1696 C1693 1.384 . S
N1697 C1689 1.427 . S
N1697 C1695 1.384 . S
H1698 C1704 0.930 . S
H1699 C1708 0.930 . S
H1700 C1713 0.929 . S
H1701 C1711 0.929 . S
H1702 C1706 0.929 . S
H1703 C1712 0.929 . S
C1704 H1698 0.930 . S
C1704 C1705 1.367 . S
C1704 C1712 1.378 . S
C1705 C1704 1.367 . S
C1705 C1713 1.433 . S
C1706 H1702 0.929 . S
C1706 C1708 1.378 . S
C1706 C1710 1.350 . S
C1707 C1710 1.463 . S
C1707 C1712 1.350 . S
C1707 N1715 1.427 . S
C1708 H1699 0.930 . S
C1708 C1706 1.378 . S
C1708 C1709 1.367 . S
C1709 C1708 1.367 . S
C1709 C1711 1.433 . S
C1710 C1706 1.350 . S
C1710 C1707 1.463 . S
C1710 N1714 1.427 . S
C1711 H1701 0.929 . S
C1711 C1709 1.433 . S
C1711 N1714 1.384 . S
C1712 H1703 0.929 . S
C1712 C1704 1.378 . S
C1712 C1707 1.350 . S
C1713 H1700 0.929 . S
C1713 C1705 1.433 . S
C1713 N1715 1.384 . S
N1714 C1710 1.427 . S
N1714 C1711 1.384 . S
N1715 C1707 1.427 . S
N1715 C1713 1.384 . S
H1716 C1722 0.930 . S
H1717 C1726 0.930 . S
H1718 C1731 0.929 . S
H1719 C1729 0.929 . S
H1720 C1724 0.929 . S
H1721 C1730 0.929 . S
C1722 H1716 0.930 . S
C1722 C1723 1.367 . S
C1722 C1730 1.378 . S
C1723 C1722 1.367 . S
C1723 C1731 1.433 . S
C1724 H1720 0.929 . S
C1724 C1726 1.378 . S
C1724 C1728 1.350 . S
C1725 C1728 1.463 . S
C1725 C1730 1.350 . S
C1725 N1733 1.427 . S
C1726 H1717 0.930 . S
C1726 C1724 1.378 . S
C1726 C1727 1.367 . S
C1727 C1726 1.367 . S
C1727 C1729 1.433 . S
C1728 C1724 1.350 . S
C1728 C1725 1.463 . S
C1728 N1732 1.427 . S
C1729 H1719 0.929 . S
C1729 C1727 1.433 . S
C1729 N1732 1.384 . S
C1730 H1721 0.929 . S
C1730 C1722 1.378 . S
C1730 C1725 1.350 . S
C1731 H1718 0.929 . S
C1731 C1723 1.433 . S
C1731 N1733 1.384 . S
N1732 C1728 1.427 . S
N1732 C1729 1.384 . S
N1733 C1725 1.427 . S
N1733 C1731 1.384 . S
C881 C699 1.360 . S
C877 C74 1.471 . S
C899 C700 1.603 . S
C895 C153 1.529 . S
C917 C694 1.583 . S
C913 C231 1.597 . S
C931 C310 0.903 . S
C935 C693 0.282 . S
C949 C394 1.517 . S
C953 C696 1.599 . S
C971 C698 1.580 . S
C967 C494 1.603 . S
C985 C573 0.927 . S
C989 C697 0.294 . S
C1003 C651 1.475 . S
C1007 C695 1.351 . S
C1025 C730 2.619 . S
C1021 C56 2.613 . S
C1039 C151 1.625 . S
C1043 C761 1.513 . S
C1061 C729 1.364 . S
C1057 C237 1.270 . S
C1079 C764 1.365 . S
C1075 C326 1.340 . S
C1093 C410 1.638 . S
C1097 C727 1.638 . S
C1115 C759 2.627 . S
C1111 C476 2.630 . S
C1129 C571 1.351 . S
C1133 C732 1.253 . S
C1147 C657 1.254 . S
C1151 C766 1.326 . S
C1165 C58 1.264 . S
C1169 C762 1.328 . S
C1183 C392 1.626 . S
C1187 C765 1.507 . S
C1205 C733 1.375 . S
C1201 C478 1.288 . S
C1223 C760 1.367 . S
C1219 C567 1.335 . S
C1237 C655 2.616 . S
C1241 C726 2.618 . S
C1255 C235 2.631 . S
C1259 C763 2.626 . S
C1277 C728 1.247 . S
C1273 C308 1.356 . S
C1291 C147 1.631 . S
C1295 C731 1.630 . S
C1309 C662 1.518 . S
C1313 C798 1.406 . S
C1327 C405 1.241 . S
C1331 C799 1.243 . S
C1349 C793 1.403 . S
C1345 C483 1.414 . S
C1367 C792 0.302 . S
C1363 C562 0.707 . S
C1381 C142 1.227 . S
C1385 C795 1.256 . S
C1403 C797 1.409 . S
C1399 C242 1.421 . S
C1417 C321 0.743 . S
C1421 C796 0.285 . S
C1435 C63 1.514 . S
C1439 C794 1.426 . S
C1453 C644 2.821 . S
C1457 C832 2.739 . S
C1475 C864 1.321 . S
C1471 C403 1.402 . S
C1489 C489 1.144 . S
C1493 C825 1.308 . S
C1507 C578 1.629 . S
C1511 C859 1.630 . S
C1529 C830 1.345 . S
C1525 C158 1.348 . S
C1543 C224 2.844 . S
C1547 C861 2.765 . S
C1565 C827 1.648 . S
C1561 C319 1.731 . S
C1583 C862 1.315 . S
C1579 C69 1.196 . S
C1601 C858 1.314 . S
C1597 C646 1.218 . S
C1615 C140 1.399 . S
C1619 C860 1.334 . S
C1633 C226 1.148 . S
C1637 C829 1.309 . S
C1655 C863 1.622 . S
C1651 C315 1.635 . S
C1669 C67 2.823 . S
C1673 C828 2.732 . S
C1687 C487 2.842 . S
C1691 C865 2.768 . S
C1709 C831 1.648 . S
C1705 C560 1.727 . S
C1727 C826 1.357 . S
C1723 C399 1.332 . S
