# Generated by pormake.
# Topology wbl, (4,4)-cn, num edge types: 1
# Building blocks:
#     Node 0, Type 0, BuildingBlock: MUDLON_clean_sbu_0, # of connection points: 4
#     Node 1, Type 0, BuildingBlock: MUDLON_clean_sbu_0, # of connection points: 4
#     Node 2, Type 0, BuildingBlock: MUDLON_clean_sbu_0, # of connection points: 4
#     Node 3, Type 0, BuildingBlock: MUDLON_clean_sbu_0, # of connection points: 4
#     Node 4, Type 0, BuildingBlock: MUDLON_clean_sbu_0, # of connection points: 4
#     Node 5, Type 0, BuildingBlock: MUDLON_clean_sbu_0, # of connection points: 4
#     Node 6, Type 0, BuildingBlock: MUDLON_clean_sbu_0, # of connection points: 4
#     Node 7, Type 0, BuildingBlock: MUDLON_clean_sbu_0, # of connection points: 4
#     Node 8, Type 1, BuildingBlock: CEKHIL_clean_sbu_0, # of connection points: 4
#     Node 9, Type 1, BuildingBlock: CEKHIL_clean_sbu_0, # of connection points: 4
#     Node 10, Type 1, BuildingBlock: CEKHIL_clean_sbu_0, # of connection points: 4
#     Node 11, Type 1, BuildingBlock: CEKHIL_clean_sbu_0, # of connection points: 4
#     Node 12, Type 1, BuildingBlock: CEKHIL_clean_sbu_0, # of connection points: 4
#     Node 13, Type 1, BuildingBlock: CEKHIL_clean_sbu_0, # of connection points: 4
#     Node 14, Type 1, BuildingBlock: CEKHIL_clean_sbu_0, # of connection points: 4
#     Node 15, Type 1, BuildingBlock: CEKHIL_clean_sbu_0, # of connection points: 4
#     Edge 16, Type (0, 1), BuildingBlock: TEMPAE_clean_linker_10, # of connection points: 2
#     Edge 17, Type (0, 1), BuildingBlock: TEMPAE_clean_linker_10, # of connection points: 2
#     Edge 18, Type (0, 1), BuildingBlock: TEMPAE_clean_linker_10, # of connection points: 2
#     Edge 19, Type (0, 1), BuildingBlock: TEMPAE_clean_linker_10, # of connection points: 2
#     Edge 20, Type (0, 1), BuildingBlock: TEMPAE_clean_linker_10, # of connection points: 2
#     Edge 21, Type (0, 1), BuildingBlock: TEMPAE_clean_linker_10, # of connection points: 2
#     Edge 22, Type (0, 1), BuildingBlock: TEMPAE_clean_linker_10, # of connection points: 2
#     Edge 23, Type (0, 1), BuildingBlock: TEMPAE_clean_linker_10, # of connection points: 2
#     Edge 24, Type (0, 1), BuildingBlock: TEMPAE_clean_linker_10, # of connection points: 2
#     Edge 25, Type (0, 1), BuildingBlock: TEMPAE_clean_linker_10, # of connection points: 2
#     Edge 26, Type (0, 1), BuildingBlock: TEMPAE_clean_linker_10, # of connection points: 2
#     Edge 27, Type (0, 1), BuildingBlock: TEMPAE_clean_linker_10, # of connection points: 2
#     Edge 28, Type (0, 1), BuildingBlock: TEMPAE_clean_linker_10, # of connection points: 2
#     Edge 29, Type (0, 1), BuildingBlock: TEMPAE_clean_linker_10, # of connection points: 2
#     Edge 30, Type (0, 1), BuildingBlock: TEMPAE_clean_linker_10, # of connection points: 2
#     Edge 31, Type (0, 1), BuildingBlock: TEMPAE_clean_linker_10, # of connection points: 2
#     Edge 32, Type (0, 1), BuildingBlock: TEMPAE_clean_linker_10, # of connection points: 2
#     Edge 33, Type (0, 1), BuildingBlock: TEMPAE_clean_linker_10, # of connection points: 2
#     Edge 34, Type (0, 1), BuildingBlock: TEMPAE_clean_linker_10, # of connection points: 2
#     Edge 35, Type (0, 1), BuildingBlock: TEMPAE_clean_linker_10, # of connection points: 2
#     Edge 36, Type (0, 1), BuildingBlock: TEMPAE_clean_linker_10, # of connection points: 2
#     Edge 37, Type (0, 1), BuildingBlock: TEMPAE_clean_linker_10, # of connection points: 2
#     Edge 38, Type (0, 1), BuildingBlock: TEMPAE_clean_linker_10, # of connection points: 2
#     Edge 39, Type (0, 1), BuildingBlock: TEMPAE_clean_linker_10, # of connection points: 2
#     Edge 40, Type (0, 1), BuildingBlock: TEMPAE_clean_linker_10, # of connection points: 2
#     Edge 41, Type (0, 1), BuildingBlock: TEMPAE_clean_linker_10, # of connection points: 2
#     Edge 42, Type (0, 1), BuildingBlock: TEMPAE_clean_linker_10, # of connection points: 2
#     Edge 43, Type (0, 1), BuildingBlock: TEMPAE_clean_linker_10, # of connection points: 2
#     Edge 44, Type (0, 1), BuildingBlock: TEMPAE_clean_linker_10, # of connection points: 2
#     Edge 45, Type (0, 1), BuildingBlock: TEMPAE_clean_linker_10, # of connection points: 2
#     Edge 46, Type (0, 1), BuildingBlock: TEMPAE_clean_linker_10, # of connection points: 2
#     Edge 47, Type (0, 1), BuildingBlock: TEMPAE_clean_linker_10, # of connection points: 2
# Relax obj value: 0.231
# Max RMSD: 0.219
# Mean RMSD: 0.172
data_MOF--net-wbl--node1-MUDLON_clean_sbu_0--node2-CEKHIL_clean_sbu_0--edge1-TEMPAE_clean_linker_10
_symmetry_space_group_name_H-M    P1
_symmetry_Int_Tables_number       1
_symmetry_cell_setting            triclinic
loop_
_symmetry_equiv_pos_as_xyz
'x, y, z'
_cell_length_a     34.87455
_cell_length_b     35.066075
_cell_length_c     76.284427
_cell_angle_alpha  90.202606
_cell_angle_beta   90.095852
_cell_angle_gamma 89.937989
loop_
_atom_site_label
_atom_site_type_symbol
_atom_site_fract_x
_atom_site_fract_y
_atom_site_fract_z
_atom_type_partial_charge
Mg0 Mg 0.00099 0.01734 0.34329 0.0
C1 C 0.9979 0.92813 0.36245 0.0
O2 O 0.97224 0.90358 0.35681 0.0
C3 C 0.9193 0.03532 0.3331 0.0
O4 O 0.91365 0.02488 0.34941 0.0
C5 C 0.06949 0.9883 0.32485 0.0
O6 O 0.05387 0.95675 0.33062 0.0
O7 O 0.05329 0.02006 0.32802 0.0
O8 O 0.99908 0.96096 0.35542 0.0
O9 O 0.99876 0.05879 0.36447 0.0
C10 C 0.98172 0.04679 0.37808 0.0
O11 O 0.96886 0.01163 0.37826 0.0
O12 O 0.95268 0.03199 0.32659 0.0
Mg13 Mg 0.14195 0.50515 0.59212 0.0
C14 C 0.21475 0.52971 0.61044 0.0
O15 O 0.21274 0.5578 0.59915 0.0
C16 C 0.10195 0.45717 0.56542 0.0
O17 O 0.08946 0.49097 0.56071 0.0
C18 C 0.16891 0.56064 0.56508 0.0
O19 O 0.1914 0.53149 0.56161 0.0
O20 O 0.14361 0.55725 0.57696 0.0
O21 O 0.19233 0.50139 0.60866 0.0
O22 O 0.09796 0.50386 0.61209 0.0
C23 C 0.09781 0.47122 0.61935 0.0
O24 O 0.12168 0.44512 0.6135 0.0
O25 O 0.12814 0.45481 0.57696 0.0
Mg26 Mg 0.66413 0.64959 0.84409 0.0
C27 C 0.67999 0.70781 0.87235 0.0
O28 O 0.70953 0.68537 0.87511 0.0
C29 C 0.70874 0.61073 0.81627 0.0
O30 O 0.67405 0.59767 0.81324 0.0
C31 C 0.60401 0.66359 0.81649 0.0
O32 O 0.63158 0.68465 0.80993 0.0
O33 O 0.61036 0.64438 0.83029 0.0
O34 O 0.66026 0.703 0.85849 0.0
O35 O 0.66827 0.60744 0.86466 0.0
C36 C 0.70207 0.59815 0.86926 0.0
O37 O 0.73124 0.61226 0.86058 0.0
O38 O 0.71313 0.63733 0.82747 0.0
Mg39 Mg 0.53051 0.15958 0.09135 0.0
C40 C 0.60075 0.17153 0.11488 0.0
O41 O 0.60969 0.19779 0.10339 0.0
C42 C 0.54753 0.08796 0.06969 0.0
O43 O 0.57952 0.08802 0.07881 0.0
C44 C 0.57025 0.21138 0.06775 0.0
O45 O 0.58036 0.17735 0.06214 0.0
O46 O 0.54537 0.21383 0.07987 0.0
O47 O 0.5729 0.14916 0.11171 0.0
O48 O 0.47963 0.1541 0.10748 0.0
C49 C 0.47993 0.11968 0.11277 0.0
O50 O 0.50608 0.09656 0.10635 0.0
O51 O 0.52399 0.11525 0.07165 0.0
Mg52 Mg 0.1731 0.50418 0.93144 0.0
C53 C 0.15428 0.56439 0.90241 0.0
O54 O 0.11784 0.56033 0.90629 0.0
C55 C 0.09047 0.50146 0.9405 0.0
O56 O 0.08966 0.49079 0.92398 0.0
C57 C 0.22154 0.54178 0.95737 0.0
O58 O 0.18731 0.55588 0.96051 0.0
O59 O 0.22467 0.51442 0.94647 0.0
O60 O 0.17943 0.5459 0.91091 0.0
O61 O 0.16459 0.45066 0.91775 0.0
C62 C 0.17873 0.44605 0.90256 0.0
O63 O 0.20642 0.46883 0.89748 0.0
O64 O 0.12227 0.51114 0.94732 0.0
Mg65 Mg 0.63994 0.6573 0.18243 0.0
C66 C 0.57356 0.68107 0.1601 0.0
O67 O 0.57754 0.71127 0.17014 0.0
C68 C 0.64448 0.57435 0.19135 0.0
O69 O 0.63427 0.57202 0.17479 0.0
C70 C 0.60131 0.70705 0.20896 0.0
O71 O 0.58675 0.67384 0.21326 0.0
O72 O 0.62768 0.70825 0.19749 0.0
O73 O 0.59391 0.65174 0.16328 0.0
O74 O 0.68854 0.66261 0.16512 0.0
C75 C 0.71602 0.63877 0.16508 0.0
O76 O 0.71981 0.61528 0.17834 0.0
O77 O 0.64772 0.60704 0.19843 0.0
Mg78 Mg 0.49856 0.15231 0.43162 0.0
C79 C 0.53414 0.22427 0.41917 0.0
O80 O 0.55827 0.21574 0.43177 0.0
C81 C 0.41913 0.12583 0.4396 0.0
O82 O 0.41682 0.13083 0.42258 0.0
C83 C 0.55492 0.15933 0.46162 0.0
O84 O 0.52503 0.17467 0.46939 0.0
O85 O 0.55119 0.14536 0.4463 0.0
O86 O 0.50148 0.20817 0.41906 0.0
O87 O 0.49741 0.11338 0.40935 0.0
C88 C 0.48146 0.12645 0.39561 0.0
O89 O 0.46802 0.16145 0.39589 0.0
O90 O 0.44944 0.13636 0.44753 0.0
Mg91 Mg 0.01757 0.99576 0.67884 0.0
C92 C 0.05211 0.01598 0.64404 0.0
O93 O 0.01868 0.03286 0.64244 0.0
C94 C 0.01736 0.07869 0.68968 0.0
O95 O 0.03017 0.08219 0.67359 0.0
C96 C 0.07268 0.95042 0.69802 0.0
O97 O 0.09015 0.9828 0.69473 0.0
O98 O 0.03776 0.94688 0.69345 0.0
O99 O 0.0613 0.00187 0.65878 0.0
O100 O 0.96655 0.98745 0.66302 0.0
C101 C 0.9411 0.01343 0.66254 0.0
O102 O 0.94024 0.03883 0.67523 0.0
O103 O 0.01068 0.04555 0.69561 0.0
Co104 Co 0.48009 0.75169 0.00891 0.0
O105 O 0.46806 0.70031 0.00229 0.0
O106 O 0.43383 0.75084 0.99471 0.0
C107 C 0.49088 0.73763 0.03729 0.0
O108 O 0.4831 0.80893 0.0143 0.0
Co109 Co 0.5607 0.77225 0.02315 0.0
O110 O 0.53268 0.8165 0.0329 0.0
C111 C 0.54919 0.7636 0.98501 0.0
C112 C 0.4379 0.71391 0.99458 0.0
C113 C 0.50225 0.82868 0.02559 0.0
O114 O 0.51318 0.75755 0.98738 0.0
O115 O 0.57318 0.76886 0.9975 0.0
O116 O 0.45622 0.74323 0.03163 0.0
O117 O 0.51749 0.73799 0.02549 0.0
Co118 Co 0.38133 0.98636 0.25074 0.0
O119 O 0.33895 0.01405 0.26046 0.0
O120 O 0.34525 0.95101 0.26095 0.0
C121 C 0.38224 0.01838 0.22516 0.0
O122 O 0.42088 0.94788 0.24186 0.0
Co123 Co 0.4571 0.0286 0.24155 0.0
O124 O 0.47477 0.97807 0.2334 0.0
C125 C 0.43827 0.01188 0.27853 0.0
C126 C 0.32532 0.98116 0.26501 0.0
C127 C 0.45516 0.94786 0.2356 0.0
O128 O 0.40937 0.99154 0.27375 0.0
O129 O 0.4588 0.03099 0.26779 0.0
O130 O 0.35897 0.98985 0.22726 0.0
O131 O 0.40199 0.02796 0.23879 0.0
Co132 Co 0.18049 0.87799 0.49912 0.0
O133 O 0.15622 0.83118 0.50564 0.0
O134 O 0.21824 0.84309 0.50886 0.0
C135 C 0.15093 0.8818 0.47269 0.0
O136 O 0.21576 0.92262 0.49297 0.0
Co137 Co 0.13078 0.95032 0.49253 0.0
O138 O 0.1797 0.97287 0.48475 0.0
C139 C 0.14908 0.92753 0.5288 0.0
C140 C 0.1898 0.81934 0.51046 0.0
C141 C 0.21212 0.95696 0.48719 0.0
O142 O 0.17048 0.9001 0.52327 0.0
O143 O 0.12945 0.94921 0.51876 0.0
O144 O 0.18159 0.86111 0.47458 0.0
O145 O 0.1379 0.89701 0.48691 0.0
Co146 Co 0.25761 0.68285 0.75888 0.0
O147 O 0.20837 0.70184 0.75165 0.0
O148 O 0.26392 0.7309 0.74688 0.0
C149 C 0.2391 0.66735 0.78625 0.0
O150 O 0.31366 0.67327 0.76524 0.0
Co151 Co 0.26852 0.59816 0.76943 0.0
O152 O 0.32056 0.61433 0.77643 0.0
C153 C 0.26534 0.61856 0.732 0.0
C154 C 0.22678 0.73084 0.7454 0.0
C155 C 0.334 0.64684 0.77236 0.0
O156 O 0.26324 0.65417 0.73602 0.0
O157 O 0.26586 0.59179 0.74335 0.0
O158 O 0.24867 0.70219 0.78253 0.0
O159 O 0.23826 0.64389 0.77315 0.0
Co160 Co 0.90222 0.18719 0.51837 0.0
O161 O 0.95238 0.20421 0.5249 0.0
O162 O 0.89867 0.23424 0.53183 0.0
C163 C 0.91714 0.17569 0.49024 0.0
O164 O 0.8454 0.17832 0.51297 0.0
Co165 Co 0.8915 0.10374 0.50547 0.0
O166 O 0.83976 0.12176 0.49909 0.0
C167 C 0.89675 0.11939 0.54339 0.0
C168 C 0.93602 0.23338 0.53218 0.0
C169 C 0.82551 0.15289 0.50476 0.0
O170 O 0.89893 0.15547 0.54045 0.0
O171 O 0.89525 0.09414 0.53126 0.0
O172 O 0.90825 0.20995 0.49522 0.0
O173 O 0.92008 0.15045 0.50244 0.0
Co174 Co 0.97205 0.40278 0.76596 0.0
O175 O 0.95627 0.45332 0.77221 0.0
O176 O 0.92281 0.40128 0.77792 0.0
C177 C 0.98856 0.4176 0.73823 0.0
O178 O 0.97924 0.34615 0.76031 0.0
Co179 Co 0.05769 0.38955 0.75601 0.0
O180 O 0.03921 0.33791 0.74982 0.0
C181 C 0.03644 0.40103 0.79288 0.0
C182 C 0.9253 0.43836 0.77848 0.0
C183 C 0.00593 0.32533 0.75353 0.0
O184 O 0.00065 0.39771 0.78899 0.0
O185 O 0.06322 0.4024 0.78147 0.0
O186 O 0.95307 0.41042 0.74211 0.0
O187 O 0.01187 0.41888 0.75138 0.0
Co188 Co 0.76474 0.48241 0.01795 0.0
O189 O 0.71531 0.46462 0.02496 0.0
O190 O 0.76972 0.43378 0.02989 0.0
C191 C 0.74712 0.49781 0.99051 0.0
O192 O 0.8208 0.49201 0.01139 0.0
Co193 Co 0.77394 0.56777 0.00785 0.0
O194 O 0.82333 0.54959 0.99842 0.0
C195 C 0.77299 0.5463 0.04513 0.0
C196 C 0.73244 0.43463 0.03099 0.0
C197 C 0.83876 0.51805 0.00275 0.0
O198 O 0.7707 0.51083 0.04087 0.0
O199 O 0.77297 0.57345 0.03397 0.0
O200 O 0.756 0.46288 0.99437 0.0
O201 O 0.74555 0.52126 0.00361 0.0
Co202 Co 0.67133 0.27457 0.27253 0.0
O203 O 0.64362 0.31875 0.26502 0.0
O204 O 0.7062 0.31072 0.26174 0.0
C205 C 0.6437 0.27126 0.29926 0.0
O206 O 0.70958 0.23298 0.27946 0.0
Co207 Co 0.62617 0.20022 0.27991 0.0
O208 O 0.67669 0.18037 0.28732 0.0
C209 C 0.64198 0.22171 0.24339 0.0
C210 C 0.67604 0.33212 0.25951 0.0
C211 C 0.70797 0.19847 0.28519 0.0
O212 O 0.66257 0.24967 0.24895 0.0
O213 O 0.62281 0.20011 0.25363 0.0
O214 O 0.67235 0.29409 0.29651 0.0
O215 O 0.63055 0.25399 0.28551 0.0
C216 C 0.11481 0.0101 0.30166 0.0
C217 C 0.10673 0.98649 0.31593 0.0
C218 C 0.15008 0.00726 0.29289 0.0
C219 C 0.17816 0.98126 0.29904 0.0
C220 C 0.17013 0.95778 0.31362 0.0
C221 C 0.13419 0.96021 0.32168 0.0
C222 C 0.1573 0.03193 0.27705 0.0
C223 C 0.19976 0.93074 0.32096 0.0
C224 C 0.26092 0.95225 0.26952 0.0
C225 C 0.2888 0.97887 0.27445 0.0
C226 C 0.22447 0.95285 0.27731 0.0
C227 C 0.21656 0.97979 0.29072 0.0
C228 C 0.24536 0.00564 0.2962 0.0
C229 C 0.28094 0.00534 0.28773 0.0
C230 C 0.19408 0.92558 0.27082 0.0
C231 C 0.23852 0.0338 0.3109 0.0
H232 H 0.09327 0.03013 0.29714 0.0
H233 H 0.12786 0.94216 0.33282 0.0
H234 H 0.18115 0.05199 0.27978 0.0
H235 H 0.16611 0.01392 0.26575 0.0
H236 H 0.13159 0.04871 0.27323 0.0
H237 H 0.18896 0.91476 0.33249 0.0
H238 H 0.2087 0.90994 0.31078 0.0
H239 H 0.2257 0.9469 0.32496 0.0
H240 H 0.2671 0.93211 0.25908 0.0
H241 H 0.3028 0.02574 0.29155 0.0
H242 H 0.16944 0.94193 0.26549 0.0
H243 H 0.18309 0.90812 0.28181 0.0
H244 H 0.20499 0.90615 0.26042 0.0
H245 H 0.21609 0.05454 0.30699 0.0
H246 H 0.26489 0.04983 0.31446 0.0
H247 H 0.22796 0.01875 0.32272 0.0
C248 C 0.15319 0.6297 0.56117 0.0
C249 C 0.17558 0.59798 0.55659 0.0
C250 C 0.15982 0.66549 0.55363 0.0
C251 C 0.18949 0.66972 0.54113 0.0
C252 C 0.2125 0.63794 0.53657 0.0
C253 C 0.20527 0.60243 0.54436 0.0
C254 C 0.13463 0.6987 0.55885 0.0
C255 C 0.24427 0.6413 0.52324 0.0
C256 C 0.17171 0.75121 0.50984 0.0
C257 C 0.19446 0.78017 0.51706 0.0
C258 C 0.17171 0.71447 0.51694 0.0
C259 C 0.19424 0.70677 0.53195 0.0
C260 C 0.21851 0.73554 0.53891 0.0
C261 C 0.21869 0.77197 0.53121 0.0
C262 C 0.14619 0.68441 0.50882 0.0
C263 C 0.24264 0.72845 0.55502 0.0
H264 H 0.13036 0.62661 0.57068 0.0
H265 H 0.22289 0.57813 0.54081 0.0
H266 H 0.15255 0.72298 0.56333 0.0
H267 H 0.11792 0.70856 0.54733 0.0
H268 H 0.11426 0.6912 0.56946 0.0
H269 H 0.26082 0.61439 0.5218 0.0
H270 H 0.23201 0.64895 0.51029 0.0
H271 H 0.26428 0.66447 0.52705 0.0
H272 H 0.15331 0.75752 0.49875 0.0
H273 H 0.23615 0.7945 0.53681 0.0
H274 H 0.12244 0.67758 0.51794 0.0
H275 H 0.16256 0.65771 0.50653 0.0
H276 H 0.13361 0.69384 0.49617 0.0
H277 H 0.22365 0.72487 0.56656 0.0
H278 H 0.26276 0.75229 0.55773 0.0
H279 H 0.25935 0.7017 0.55354 0.0
C280 C 0.55931 0.67779 0.79161 0.0
C281 C 0.56523 0.6641 0.80866 0.0
C282 C 0.52245 0.67829 0.78415 0.0
C283 C 0.49084 0.66536 0.79412 0.0
C284 C 0.49661 0.65238 0.81148 0.0
C285 C 0.53375 0.65158 0.81847 0.0
C286 C 0.51744 0.69174 0.76551 0.0
C287 C 0.46357 0.63885 0.82263 0.0
C288 C 0.38763 0.68896 0.78237 0.0
C289 C 0.37497 0.65373 0.7759 0.0
C290 C 0.42588 0.69382 0.78778 0.0
C291 C 0.45196 0.66297 0.78622 0.0
C292 C 0.43973 0.6282 0.7786 0.0
C293 C 0.40125 0.62384 0.77376 0.0
C294 C 0.43776 0.73111 0.79608 0.0
C295 C 0.46687 0.59495 0.7763 0.0
H296 H 0.58358 0.68754 0.78398 0.0
H297 H 0.53806 0.64141 0.83173 0.0
H298 H 0.50689 0.66787 0.75723 0.0
H299 H 0.49559 0.71471 0.76491 0.0
H300 H 0.54462 0.70257 0.75982 0.0
H301 H 0.47258 0.63206 0.83624 0.0
H302 H 0.44084 0.66098 0.82315 0.0
H303 H 0.45072 0.61289 0.81671 0.0
H304 H 0.36722 0.71202 0.78405 0.0
H305 H 0.39152 0.59674 0.76851 0.0
H306 H 0.46477 0.74161 0.79017 0.0
H307 H 0.44333 0.72665 0.81026 0.0
H308 H 0.41537 0.75345 0.79468 0.0
H309 H 0.49373 0.60441 0.76988 0.0
H310 H 0.45402 0.57163 0.76835 0.0
H311 H 0.47473 0.58333 0.78933 0.0
C312 C 0.49783 0.04912 0.05398 0.0
C313 C 0.53603 0.0538 0.05948 0.0
C314 C 0.48532 0.01473 0.04641 0.0
C315 C 0.5117 0.98446 0.04418 0.0
C316 C 0.55071 0.98978 0.04884 0.0
C317 C 0.56234 0.02431 0.0565 0.0
C318 C 0.4435 0.01014 0.04172 0.0
C319 C 0.57991 0.95834 0.04649 0.0
C320 C 0.48717 0.87994 0.04668 0.0
C321 C 0.49213 0.86856 0.02924 0.0
C322 C 0.4897 0.91845 0.05149 0.0
C323 C 0.49847 0.94597 0.03856 0.0
C324 C 0.5002 0.93493 0.02069 0.0
C325 C 0.4968 0.89614 0.01621 0.0
C326 C 0.48661 0.92908 0.07064 0.0
C327 C 0.50937 0.96337 0.00651 0.0
H328 H 0.47721 0.07176 0.05625 0.0
H329 H 0.59192 0.02779 0.0606 0.0
H330 H 0.44029 0.99671 0.02861 0.0
H331 H 0.42959 0.99103 0.05136 0.0
H332 H 0.42802 0.03785 0.04177 0.0
H333 H 0.60955 0.96808 0.04939 0.0
H334 H 0.57299 0.9343 0.05536 0.0
H335 H 0.57897 0.94722 0.03286 0.0
H336 H 0.48384 0.85839 0.05674 0.0
H337 H 0.50124 0.88711 0.00275 0.0
H338 H 0.46874 0.95501 0.07234 0.0
H339 H 0.51558 0.93556 0.07589 0.0
H340 H 0.47406 0.90568 0.07856 0.0
H341 H 0.49296 0.99017 0.00844 0.0
H342 H 0.50303 0.95185 0.99323 0.0
H343 H 0.54031 0.97065 0.00714 0.0
C344 C 0.25281 0.58736 0.97802 0.0
C345 C 0.25568 0.56292 0.9635 0.0
C346 C 0.28314 0.6116 0.98271 0.0
C347 C 0.31687 0.61192 0.97241 0.0
C348 C 0.32016 0.58692 0.95786 0.0
C349 C 0.28965 0.56239 0.95369 0.0
C350 C 0.27886 0.63719 0.99856 0.0
C351 C 0.35547 0.58687 0.94643 0.0
C352 C 0.37922 0.70062 0.97642 0.0
C353 C 0.40812 0.68782 0.98774 0.0
C354 C 0.34985 0.67587 0.97085 0.0
C355 C 0.34901 0.63786 0.97714 0.0
C356 C 0.37826 0.62488 0.9885 0.0
C357 C 0.40765 0.64985 0.99348 0.0
C358 C 0.3195 0.69045 0.95843 0.0
C359 C 0.37793 0.58491 0.99583 0.0
H360 H 0.22655 0.58789 0.98561 0.0
H361 H 0.29177 0.54398 0.94228 0.0
H362 H 0.30283 0.6322 0.00786 0.0
H363 H 0.28027 0.6675 0.99451 0.0
H364 H 0.25135 0.63245 0.00553 0.0
H365 H 0.35349 0.56577 0.93557 0.0
H366 H 0.35973 0.61563 0.94073 0.0
H367 H 0.38125 0.58029 0.9544 0.0
H368 H 0.37952 0.72993 0.97195 0.0
H369 H 0.42969 0.63986 0.00239 0.0
H370 H 0.29113 0.6902 0.96498 0.0
H371 H 0.31741 0.67144 0.94681 0.0
H372 H 0.32552 0.71992 0.95391 0.0
H373 H 0.3514 0.58043 0.00357 0.0
H374 H 0.40304 0.57916 0.0044 0.0
H375 H 0.37779 0.56371 0.98501 0.0
C376 C 0.58424 0.7752 0.20383 0.0
C377 C 0.58154 0.74254 0.21432 0.0
C378 C 0.562 0.80764 0.20738 0.0
C379 C 0.53727 0.80785 0.22208 0.0
C380 C 0.53519 0.77536 0.23301 0.0
C381 C 0.55702 0.74288 0.22886 0.0
C382 C 0.56453 0.84145 0.19522 0.0
C383 C 0.50992 0.77493 0.24906 0.0
C384 C 0.512 0.90628 0.23901 0.0
C385 C 0.47473 0.91123 0.23253 0.0
C386 C 0.53201 0.87216 0.23629 0.0
C387 C 0.5148 0.84273 0.2263 0.0
C388 C 0.47698 0.84747 0.21977 0.0
C389 C 0.45704 0.88157 0.22325 0.0
C390 C 0.57177 0.86781 0.24393 0.0
C391 C 0.45811 0.81707 0.20869 0.0
H392 H 0.60275 0.775 0.19243 0.0
H393 H 0.5548 0.71766 0.23698 0.0
H394 H 0.53561 0.84862 0.1901 0.0
H395 H 0.57514 0.86677 0.2025 0.0
H396 H 0.58393 0.83607 0.18394 0.0
H397 H 0.51222 0.74774 0.25642 0.0
H398 H 0.51782 0.79879 0.25795 0.0
H399 H 0.47955 0.77924 0.24521 0.0
H400 H 0.5254 0.92912 0.24643 0.0
H401 H 0.42821 0.88556 0.21824 0.0
H402 H 0.59312 0.86567 0.23321 0.0
H403 H 0.57367 0.84114 0.25166 0.0
H404 H 0.57976 0.89219 0.25253 0.0
H405 H 0.47502 0.81245 0.19655 0.0
H406 H 0.42829 0.82478 0.20496 0.0
H407 H 0.45756 0.7896 0.21584 0.0
C408 C 0.39518 0.09028 0.46595 0.0
C409 C 0.38965 0.10271 0.44865 0.0
C410 C 0.36901 0.06528 0.47393 0.0
C411 C 0.3366 0.0525 0.46438 0.0
C412 C 0.33068 0.06534 0.447 0.0
C413 C 0.35718 0.09029 0.43939 0.0
C414 C 0.37615 0.05233 0.4925 0.0
C415 C 0.29637 0.05257 0.43638 0.0
C416 C 0.27974 0.96375 0.47633 0.0
C417 C 0.24655 0.9801 0.48345 0.0
C418 C 0.31031 0.98688 0.47072 0.0
C419 C 0.30768 0.02706 0.47262 0.0
C420 C 0.27525 0.04331 0.48088 0.0
C421 C 0.245 0.01969 0.48604 0.0
C422 C 0.34439 0.96854 0.4619 0.0
C423 C 0.27156 0.08589 0.48346 0.0
H424 H 0.42033 0.0995 0.47317 0.0
H425 H 0.35266 0.09964 0.42602 0.0
H426 H 0.35149 0.06026 0.50093 0.0
H427 H 0.37874 0.02081 0.49287 0.0
H428 H 0.40263 0.06498 0.49817 0.0
H429 H 0.29642 0.06449 0.42291 0.0
H430 H 0.29587 0.021 0.43544 0.0
H431 H 0.26953 0.06158 0.44301 0.0
H432 H 0.281 0.93315 0.47433 0.0
H433 H 0.21962 0.03238 0.49184 0.0
H434 H 0.37151 0.9796 0.46756 0.0
H435 H 0.34428 0.97588 0.44776 0.0
H436 H 0.34409 0.93698 0.46314 0.0
H437 H 0.29794 0.09762 0.48957 0.0
H438 H 0.24663 0.09355 0.49182 0.0
H439 H 0.268 0.09991 0.47055 0.0
C440 C 0.07778 0.88213 0.70753 0.0
C441 C 0.09462 0.91813 0.70549 0.0
C442 C 0.0993 0.85108 0.71376 0.0
C443 C 0.13847 0.85627 0.71808 0.0
C444 C 0.15551 0.89258 0.71616 0.0
C445 C 0.13341 0.92303 0.70989 0.0
C446 C 0.08021 0.81269 0.71562 0.0
C447 C 0.19714 0.8993 0.72073 0.0
C448 C 0.18437 0.78644 0.74967 0.0
C449 C 0.20576 0.76349 0.7383 0.0
C450 C 0.16262 0.81702 0.74327 0.0
C451 C 0.16155 0.82397 0.725 0.0
C452 C 0.18303 0.80051 0.71344 0.0
C453 C 0.20533 0.77064 0.72029 0.0
C454 C 0.14087 0.84187 0.75605 0.0
C455 C 0.18209 0.80669 0.69386 0.0
H456 H 0.04789 0.87808 0.70409 0.0
H457 H 0.14673 0.95071 0.70833 0.0
H458 H 0.09568 0.79111 0.70764 0.0
H459 H 0.08161 0.80323 0.72947 0.0
H460 H 0.04969 0.81324 0.71144 0.0
H461 H 0.20604 0.92929 0.71848 0.0
H462 H 0.2023 0.89219 0.7347 0.0
H463 H 0.21571 0.88031 0.71275 0.0
H464 H 0.18487 0.78052 0.76362 0.0
H465 H 0.22169 0.75236 0.71157 0.0
H466 H 0.10974 0.8408 0.75309 0.0
H467 H 0.15007 0.872 0.75469 0.0
H468 H 0.14534 0.83299 0.76987 0.0
H469 H 0.15214 0.80471 0.68901 0.0
H470 H 0.1999 0.78554 0.68667 0.0
H471 H 0.19257 0.83573 0.69073 0.0
C472 C 0.73924 0.56705 0.79445 0.0
C473 C 0.74213 0.58876 0.80986 0.0
C474 C 0.76891 0.54233 0.78932 0.0
C475 C 0.80168 0.53834 0.80016 0.0
C476 C 0.80478 0.56031 0.81571 0.0
C477 C 0.77526 0.58576 0.8202 0.0
C478 C 0.7651 0.52033 0.77235 0.0
C479 C 0.83885 0.55628 0.82781 0.0
C480 C 0.86286 0.44899 0.7943 0.0
C481 C 0.89374 0.46329 0.78462 0.0
C482 C 0.8328 0.47318 0.79968 0.0
C483 C 0.83339 0.51225 0.79491 0.0
C484 C 0.86439 0.52661 0.78503 0.0
C485 C 0.89428 0.5021 0.78017 0.0
C486 C 0.8005 0.45705 0.8105 0.0
C487 C 0.86579 0.56784 0.77936 0.0
H488 H 0.7136 0.56925 0.78646 0.0
H489 H 0.77745 0.60211 0.83224 0.0
H490 H 0.79002 0.52626 0.76376 0.0
H491 H 0.76509 0.48927 0.77503 0.0
H492 H 0.7384 0.52765 0.76513 0.0
H493 H 0.83627 0.57447 0.8397 0.0
H494 H 0.8419 0.52613 0.83196 0.0
H495 H 0.86555 0.56414 0.82082 0.0
H496 H 0.86234 0.41905 0.79777 0.0
H497 H 0.91787 0.51335 0.77254 0.0
H498 H 0.77291 0.46032 0.8034 0.0
H499 H 0.79794 0.47314 0.823 0.0
H500 H 0.80479 0.42638 0.81354 0.0
H501 H 0.83982 0.57489 0.77159 0.0
H502 H 0.89152 0.57426 0.77133 0.0
H503 H 0.86592 0.5868 0.79102 0.0
C504 C 0.59088 0.2792 0.07185 0.0
C505 C 0.59241 0.24515 0.06218 0.0
C506 C 0.61473 0.31006 0.06766 0.0
C507 C 0.64034 0.3069 0.05334 0.0
C508 C 0.64161 0.27279 0.04338 0.0
C509 C 0.61774 0.24229 0.04797 0.0
C510 C 0.61273 0.34596 0.07861 0.0
C511 C 0.66807 0.26856 0.02783 0.0
C512 C 0.67177 0.39799 0.03119 0.0
C513 C 0.70953 0.40209 0.03726 0.0
C514 C 0.64913 0.36707 0.03628 0.0
C515 C 0.66425 0.33998 0.0481 0.0
C516 C 0.70222 0.34418 0.05452 0.0
C517 C 0.7247 0.37503 0.04882 0.0
C518 C 0.60919 0.36311 0.02877 0.0
C519 C 0.71897 0.31612 0.0674 0.0
H520 H 0.57168 0.28145 0.08297 0.0
H521 H 0.61911 0.21604 0.04045 0.0
H522 H 0.64153 0.35284 0.08395 0.0
H523 H 0.60371 0.37033 0.07034 0.0
H524 H 0.5923 0.34333 0.0897 0.0
H525 H 0.66581 0.24002 0.02156 0.0
H526 H 0.66125 0.29059 0.01789 0.0
H527 H 0.69823 0.2731 0.03198 0.0
H528 H 0.66008 0.41862 0.02207 0.0
H529 H 0.75385 0.37826 0.05354 0.0
H530 H 0.58776 0.36301 0.03949 0.0
H531 H 0.60652 0.33554 0.02169 0.0
H532 H 0.60192 0.38651 0.01956 0.0
H533 H 0.70051 0.31446 0.07921 0.0
H534 H 0.74847 0.32405 0.07155 0.0
H535 H 0.71979 0.28721 0.06146 0.0
C536 C 0.8982 0.07803 0.30862 0.0
C537 C 0.88908 0.05667 0.32358 0.0
C538 C 0.87105 0.10228 0.30082 0.0
C539 C 0.83379 0.10494 0.30805 0.0
C540 C 0.82399 0.08237 0.32274 0.0
C541 C 0.85177 0.05861 0.33035 0.0
C542 C 0.88253 0.12583 0.28516 0.0
C543 C 0.78435 0.08396 0.33068 0.0
C544 C 0.77049 0.192 0.30094 0.0
C545 C 0.74356 0.17754 0.28905 0.0
C546 C 0.80098 0.16905 0.30685 0.0
C547 C 0.80482 0.13126 0.30036 0.0
C548 C 0.77898 0.11762 0.28748 0.0
C549 C 0.74834 0.14076 0.28218 0.0
C550 C 0.82776 0.18445 0.32073 0.0
C551 C 0.78254 0.07792 0.27991 0.0
H552 H 0.927 0.07683 0.30333 0.0
H553 H 0.84442 0.04208 0.34185 0.0
H554 H 0.86218 0.12108 0.27417 0.0
H555 H 0.88126 0.15658 0.28859 0.0
H556 H 0.91198 0.11902 0.28056 0.0
H557 H 0.78109 0.06402 0.34186 0.0
H558 H 0.7782 0.11333 0.33536 0.0
H559 H 0.76249 0.07682 0.32061 0.0
H560 H 0.76648 0.22036 0.30634 0.0
H561 H 0.72747 0.12977 0.27289 0.0
H562 H 0.85803 0.18018 0.31674 0.0
H563 H 0.82344 0.16857 0.33313 0.0
H564 H 0.82294 0.21527 0.32333 0.0
H565 H 0.81235 0.07249 0.2755 0.0
H566 H 0.76282 0.07329 0.26865 0.0
H567 H 0.77581 0.05663 0.29018 0.0
C568 C 0.07316 0.39458 0.57317 0.0
C569 C 0.07964 0.42298 0.56063 0.0
C570 C 0.04836 0.36402 0.56967 0.0
C571 C 0.03059 0.36118 0.55302 0.0
C572 C 0.0377 0.3894 0.54017 0.0
C573 C 0.06165 0.42038 0.54425 0.0
C574 C 0.04077 0.33508 0.58386 0.0
C575 C 0.02016 0.38677 0.52209 0.0
C576 C 0.99969 0.26337 0.53728 0.0
C577 C 0.95966 0.26518 0.53903 0.0
C578 C 0.023 0.29427 0.54193 0.0
C579 C 0.006 0.32778 0.54875 0.0
C580 C 0.96571 0.32946 0.55111 0.0
C581 C 0.94292 0.29814 0.54611 0.0
C582 C 0.06578 0.29141 0.53907 0.0
C583 C 0.94669 0.36454 0.55864 0.0
H584 H 0.08638 0.397 0.586 0.0
H585 H 0.06648 0.44251 0.53461 0.0
H586 H 0.0095 0.33307 0.58637 0.0
H587 H 0.05059 0.30647 0.57954 0.0
H588 H 0.05548 0.34238 0.59636 0.0
H589 H 0.02901 0.41076 0.51353 0.0
H590 H 0.02875 0.35956 0.51573 0.0
H591 H 0.98843 0.38672 0.52306 0.0
H592 H 0.01295 0.23803 0.53181 0.0
H593 H 0.91203 0.29971 0.54749 0.0
H594 H 0.08124 0.29627 0.55159 0.0
H595 H 0.07518 0.31387 0.52981 0.0
H596 H 0.0745 0.2632 0.53373 0.0
H597 H 0.95996 0.37208 0.57142 0.0
H598 H 0.91539 0.36052 0.56058 0.0
H599 H 0.9511 0.38908 0.54973 0.0
C600 C 0.62607 0.16033 0.4588 0.0
C601 C 0.59351 0.16275 0.4695 0.0
C602 C 0.66298 0.16393 0.46586 0.0
C603 C 0.66753 0.16936 0.48415 0.0
C604 C 0.63477 0.17283 0.49499 0.0
C605 C 0.59805 0.16976 0.48749 0.0
C606 C 0.69715 0.16065 0.4538 0.0
C607 C 0.63851 0.17831 0.51455 0.0
C608 C 0.76004 0.12671 0.50074 0.0
C609 C 0.78402 0.15871 0.50184 0.0
C610 C 0.7215 0.13023 0.49596 0.0
C611 C 0.7065 0.16666 0.49197 0.0
C612 C 0.72997 0.19941 0.4939 0.0
C613 C 0.76858 0.19507 0.49894 0.0
C614 C 0.69737 0.09461 0.49431 0.0
C615 C 0.71495 0.23869 0.48969 0.0
H616 H 0.62274 0.15574 0.44482 0.0
H617 H 0.57292 0.17198 0.49578 0.0
H618 H 0.71715 0.18478 0.45602 0.0
H619 H 0.71305 0.13396 0.45667 0.0
H620 H 0.68867 0.16031 0.43975 0.0
H621 H 0.61048 0.18447 0.52086 0.0
H622 H 0.65065 0.15209 0.52049 0.0
H623 H 0.65858 0.20199 0.51754 0.0
H624 H 0.77171 0.09858 0.50326 0.0
H625 H 0.78707 0.21984 0.49978 0.0
H626 H 0.69029 0.08945 0.48032 0.0
H627 H 0.66992 0.0982 0.50146 0.0
H628 H 0.71229 0.06899 0.49948 0.0
H629 H 0.71112 0.24134 0.47531 0.0
H630 H 0.73482 0.26147 0.49419 0.0
H631 H 0.6865 0.24335 0.49583 0.0
C632 C 0.02287 0.14875 0.69496 0.0
C633 C 0.00996 0.11299 0.70056 0.0
C634 C 0.01687 0.18154 0.70516 0.0
C635 C 0.99716 0.17865 0.72133 0.0
C636 C 0.98307 0.14282 0.72685 0.0
C637 C 0.98984 0.11033 0.71645 0.0
C638 C 0.03259 0.21917 0.69881 0.0
C639 C 0.96159 0.13871 0.7439 0.0
C640 C 0.02679 0.2579 0.75205 0.0
C641 C 0.99827 0.28519 0.74893 0.0
C642 C 0.02497 0.22167 0.74432 0.0
C643 C 0.99423 0.21284 0.73287 0.0
C644 C 0.96379 0.23928 0.73075 0.0
C645 C 0.96606 0.27525 0.73894 0.0
C646 C 0.05766 0.19412 0.74724 0.0
C647 C 0.93047 0.23089 0.7187 0.0
H648 H 0.03833 0.15109 0.6827 0.0
H649 H 0.9794 0.08283 0.72078 0.0
H650 H 0.00944 0.24087 0.69837 0.0
H651 H 0.05476 0.22966 0.7081 0.0
H652 H 0.04565 0.21688 0.68557 0.0
H653 H 0.94965 0.1096 0.7456 0.0
H654 H 0.9811 0.1449 0.75505 0.0
H655 H 0.93776 0.15965 0.74457 0.0
H656 H 0.0516 0.26561 0.75989 0.0
H657 H 0.94414 0.29651 0.73643 0.0
H658 H 0.07529 0.19225 0.73517 0.0
H659 H 0.04661 0.16512 0.75002 0.0
H660 H 0.07648 0.20315 0.75826 0.0
H661 H 0.94009 0.23314 0.70489 0.0
H662 H 0.90638 0.25117 0.72074 0.0
H663 H 0.91985 0.20141 0.72067 0.0
C664 C 0.01926 0.49862 0.94286 0.0
C665 C 0.05512 0.5003 0.95113 0.0
C666 C 0.98534 0.49784 0.95269 0.0
C667 C 0.98739 0.49813 0.97123 0.0
C668 C 0.02358 0.49845 0.97966 0.0
C669 C 0.05706 0.49993 0.9695 0.0
C670 C 0.94729 0.49813 0.94319 0.0
C671 C 0.02687 0.49818 -0.0006 0.0
C672 C 0.90151 0.54366 0.99293 0.0
C673 C 0.87888 0.5119 0.99711 0.0
C674 C 0.9376 0.53938 0.98523 0.0
C675 C 0.95164 0.50236 0.98162 0.0
C676 C 0.93003 0.47003 0.98671 0.0
C677 C 0.89375 0.47518 0.99445 0.0
C678 C 0.95977 0.57463 0.9801 0.0
C679 C 0.94438 0.43012 0.98323 0.0
H680 H 0.01762 0.49878 0.92867 0.0
H681 H 0.08478 0.50066 0.97594 0.0
H682 H 0.92907 0.47428 0.94779 0.0
H683 H 0.9318 0.52505 0.94616 0.0
H684 H 0.95067 0.4957 0.92875 0.0
H685 H 0.05697 0.49444 0.00387 0.0
H686 H 0.01578 0.52544 0.00481 0.0
H687 H 0.00916 0.47492 0.00496 0.0
H688 H 0.8905 0.57217 0.99522 0.0
H689 H 0.87642 0.45054 0.99767 0.0
H690 H 0.9621 0.57603 0.96561 0.0
H691 H 0.98933 0.5734 0.98545 0.0
H692 H 0.94592 0.60127 0.98484 0.0
H693 H 0.94355 0.42427 0.96893 0.0
H694 H 0.92677 0.40828 0.98999 0.0
H695 H 0.97463 0.42716 0.98755 0.0
C696 C 0.6744 0.54181 0.21713 0.0
C697 C 0.65374 0.53948 0.20137 0.0
C698 C 0.68307 0.50891 0.22681 0.0
C699 C 0.67021 0.47297 0.2207 0.0
C700 C 0.65007 0.47039 0.20461 0.0
C701 C 0.6423 0.50366 0.19508 0.0
C702 C 0.70508 0.51273 0.24379 0.0
C703 C 0.63551 0.43263 0.19774 0.0
C704 C 0.70746 0.37951 0.23953 0.0
C705 C 0.67739 0.36965 0.2508 0.0
C706 C 0.70623 0.41373 0.22995 0.0
C707 C 0.67438 0.43855 0.23188 0.0
C708 C 0.64491 0.4294 0.24386 0.0
C709 C 0.64671 0.39504 0.25309 0.0
C710 C 0.73821 0.42266 0.21731 0.0
C711 C 0.61069 0.45525 0.24649 0.0
H712 H 0.68382 0.56938 0.22194 0.0
H713 H 0.62644 0.50167 0.18287 0.0
H714 H 0.68618 0.50535 0.25495 0.0
H715 H 0.72958 0.49252 0.24399 0.0
H716 H 0.71618 0.54209 0.24586 0.0
H717 H 0.62239 0.43518 0.18451 0.0
H718 H 0.65927 0.41162 0.19707 0.0
H719 H 0.61367 0.42108 0.20685 0.0
H720 H 0.7312 0.35991 0.23773 0.0
H721 H 0.62361 0.38775 0.26196 0.0
H722 H 0.74895 0.45206 0.21952 0.0
H723 H 0.72716 0.42129 0.20368 0.0
H724 H 0.76257 0.4024 0.21855 0.0
H725 H 0.62029 0.48452 0.24987 0.0
H726 H 0.59136 0.44499 0.25703 0.0
H727 H 0.59401 0.4571 0.23412 0.0
C728 C 0.05483 0.94165 0.38185 0.0
C729 C 0.02397 0.91798 0.37719 0.0
C730 C 0.07824 0.93313 0.39637 0.0
C731 C 0.07034 0.90049 0.40664 0.0
C732 C 0.04017 0.87575 0.40161 0.0
C733 C 0.01749 0.88472 0.38694 0.0
C734 C 0.11062 0.9598 0.40113 0.0
C735 C 0.03069 0.84068 0.41217 0.0
C736 C 0.14475 0.86878 0.44038 0.0
C737 C 0.13091 0.88634 0.45568 0.0
C738 C 0.12516 0.87258 0.42432 0.0
C739 C 0.09102 0.89452 0.42357 0.0
C740 C 0.07678 0.91182 0.43905 0.0
C741 C 0.09691 0.90762 0.45486 0.0
C742 C 0.14114 0.85342 0.40815 0.0
C743 C 0.04026 0.93504 0.43892 0.0
H744 H 0.06043 0.96715 0.37428 0.0
H745 H 0.9939 0.86611 0.38341 0.0
H746 H 0.10412 0.97422 0.41375 0.0
H747 H 0.13763 0.94354 0.40298 0.0
H748 H 0.11536 0.98192 0.39098 0.0
H749 H 0.00916 0.82229 0.40551 0.0
H750 H 0.0569 0.82358 0.41464 0.0
H751 H 0.01907 0.84939 0.42511 0.0
H752 H 0.17088 0.85206 0.44096 0.0
H753 H 0.08585 0.92102 0.46663 0.0
H754 H 0.14948 0.87534 0.39844 0.0
H755 H 0.11895 0.83524 0.40191 0.0
H756 H 0.16661 0.8355 0.41113 0.0
H757 H 0.04365 0.96 0.43016 0.0
H758 H 0.03233 0.9455 0.4522 0.0
H759 H 0.01624 0.91766 0.43369 0.0
C760 C 0.21737 0.52035 0.64274 0.0
C761 C 0.23311 0.5367 0.62762 0.0
C762 C 0.22764 0.53352 0.65946 0.0
C763 C 0.25524 0.56291 0.66112 0.0
C764 C 0.27366 0.5772 0.64598 0.0
C765 C 0.26192 0.56433 0.62935 0.0
C766 C 0.20681 0.51794 0.67525 0.0
C767 C 0.30423 0.6075 0.64725 0.0
C768 C 0.24251 0.62582 0.70123 0.0
C769 C 0.26634 0.60754 0.71336 0.0
C770 C 0.2396 0.61233 0.68394 0.0
C771 C 0.26207 0.58066 0.67857 0.0
C772 C 0.28817 0.56386 0.69048 0.0
C773 C 0.28946 0.57705 0.70786 0.0
C774 C 0.21084 0.63056 0.67173 0.0
C775 C 0.3137 0.5311 0.68507 0.0
H776 H 0.19487 0.49918 0.64152 0.0
H777 H 0.27425 0.57692 0.61769 0.0
H778 H 0.22761 0.50761 0.68516 0.0
H779 H 0.18973 0.54102 0.68148 0.0
H780 H 0.18716 0.49415 0.67178 0.0
H781 H 0.32016 0.61072 0.63474 0.0
H782 H 0.2908 0.6353 0.65054 0.0
H783 H 0.32493 0.60067 0.65785 0.0
H784 H 0.22461 0.64936 0.70553 0.0
H785 H 0.30833 0.56329 0.71722 0.0
H786 H 0.18832 0.6095 0.66824 0.0
H787 H 0.22496 0.63933 0.65938 0.0
H788 H 0.19682 0.65595 0.67768 0.0
H789 H 0.2962 0.50497 0.68331 0.0
H790 H 0.33628 0.52516 0.69498 0.0
H791 H 0.32765 0.53723 0.67232 0.0
C792 C 0.62593 0.74439 0.88611 0.0
C793 C 0.66316 0.72925 0.8873 0.0
C794 C 0.60599 0.75613 0.9012 0.0
C795 C 0.6237 0.75267 0.91783 0.0
C796 C 0.66238 0.74053 0.91892 0.0
C797 C 0.68167 0.72911 0.90365 0.0
C798 C 0.56505 0.7696 0.89942 0.0
C799 C 0.68245 0.73662 0.93639 0.0
C800 C 0.58283 0.79428 0.95996 0.0
C801 C 0.5643 0.76246 0.96703 0.0
C802 C 0.60042 0.79229 0.94341 0.0
C803 C 0.60078 0.75719 0.93417 0.0
C804 C 0.58134 0.7252 0.9412 0.0
C805 C 0.56278 0.72845 0.95745 0.0
C806 C 0.61961 0.82733 0.9361 0.0
C807 C 0.5817 0.68702 0.93197 0.0
H808 H 0.6114 0.74493 0.87355 0.0
H809 H 0.71053 0.71783 0.90471 0.0
H810 H 0.54538 0.74686 0.90397 0.0
H811 H 0.55991 0.79512 0.90773 0.0
H812 H 0.55761 0.77659 0.88563 0.0
H813 H 0.71355 0.73061 0.93489 0.0
H814 H 0.67899 0.76299 0.9443 0.0
H815 H 0.66928 0.71293 0.94387 0.0
H816 H 0.58375 0.82062 0.96745 0.0
H817 H 0.54861 0.70385 0.96308 0.0
H818 H 0.61116 0.83162 0.92221 0.0
H819 H 0.65118 0.82351 0.9364 0.0
H820 H 0.61227 0.85343 0.94368 0.0
H821 H 0.57065 0.69001 0.91841 0.0
H822 H 0.56415 0.66538 0.9389 0.0
H823 H 0.6116 0.67632 0.93105 0.0
C824 C 0.46744 0.07291 0.13629 0.0
C825 C 0.4565 0.10653 0.1277 0.0
C826 C 0.44909 0.06098 0.15155 0.0
C827 C 0.4182 0.08265 0.15826 0.0
C828 C 0.40547 0.11554 0.1492 0.0
C829 C 0.42521 0.1275 0.13408 0.0
C830 C 0.46416 0.02611 0.16096 0.0
C831 C 0.37186 0.13861 0.15574 0.0
C832 C 0.36721 0.02602 0.19323 0.0
C833 C 0.38697 0.03817 0.20826 0.0
C834 C 0.37441 0.04284 0.17687 0.0
C835 C 0.40222 0.07211 0.1756 0.0
C836 C 0.42019 0.08617 0.19096 0.0
C837 C 0.41229 0.06904 0.2071 0.0
C838 C 0.35423 0.02753 0.16081 0.0
C839 C 0.45016 0.11719 0.19022 0.0
H840 H 0.49162 0.05646 0.13151 0.0
H841 H 0.41646 0.15333 0.12741 0.0
H842 H 0.47494 0.03435 0.17413 0.0
H843 H 0.44081 0.0051 0.16287 0.0
H844 H 0.48784 0.01191 0.15371 0.0
H845 H 0.36221 0.16002 0.14598 0.0
H846 H 0.34743 0.11962 0.15894 0.0
H847 H 0.37999 0.1538 0.16797 0.0
H848 H 0.34712 0.00254 0.19411 0.0
H849 H 0.42715 0.07901 0.21873 0.0
H850 H 0.37414 0.00891 0.15334 0.0
H851 H 0.34542 0.05113 0.15203 0.0
H852 H 0.32851 0.01051 0.16429 0.0
H853 H 0.4766 0.10571 0.18407 0.0
H854 H 0.45764 0.12827 0.20345 0.0
H855 H 0.44009 0.1413 0.18205 0.0
C856 C 0.13949 0.60309 0.8756 0.0
C857 C 0.1665 0.58678 0.88696 0.0
C858 C 0.15107 0.62024 0.85985 0.0
C859 C 0.19048 0.62086 0.85538 0.0
C860 C 0.21796 0.60625 0.86724 0.0
C861 C 0.20566 0.58951 0.88289 0.0
C862 C 0.121 0.63602 0.8476 0.0
C863 C 0.26026 0.60638 0.86298 0.0
C864 C 0.21704 0.61775 0.80724 0.0
C865 C 0.2277 0.65561 0.80407 0.0
C866 C 0.2046 0.60626 0.82386 0.0
C867 C 0.20278 0.6333 0.83766 0.0
C868 C 0.21369 0.67157 0.83459 0.0
C869 C 0.22609 0.68229 0.8178 0.0
C870 C 0.19347 0.56509 0.82665 0.0
C871 C 0.21215 0.70111 0.84902 0.0
H872 H 0.10923 0.60133 0.87869 0.0
H873 H 0.22685 0.57734 0.89166 0.0
H874 H 0.129 0.66511 0.84326 0.0
H875 H 0.11917 0.61779 0.83571 0.0
H876 H 0.09221 0.63723 0.85379 0.0
H877 H 0.27814 0.59715 0.87427 0.0
H878 H 0.26581 0.5868 0.8518 0.0
H879 H 0.26956 0.63527 0.85893 0.0
H880 H 0.21821 0.59702 0.79668 0.0
H881 H 0.23422 0.71163 0.81541 0.0
H882 H 0.16337 0.56337 0.83127 0.0
H883 H 0.21186 0.55228 0.83695 0.0
H884 H 0.19624 0.54773 0.81451 0.0
H885 H 0.18257 0.7032 0.85427 0.0
H886 H 0.22121 0.72976 0.84445 0.0
H887 H 0.23102 0.69244 0.86003 0.0
C888 C 0.55674 0.6573 0.13003 0.0
C889 C 0.55236 0.68463 0.14335 0.0
C890 C 0.54299 0.66423 0.11302 0.0
C891 C 0.52455 0.69929 0.10928 0.0
C892 C 0.51781 0.72582 0.12295 0.0
C893 C 0.53166 0.7181 0.13983 0.0
C894 C 0.55017 0.63499 0.09882 0.0
C895 C 0.49826 0.76353 0.11952 0.0
C896 C 0.53526 0.73662 0.06291 0.0
C897 C 0.49901 0.7291 0.05582 0.0
C898 C 0.54365 0.72764 0.08041 0.0
C899 C 0.51543 0.70969 0.09086 0.0
C900 C 0.47879 0.70189 0.08372 0.0
C901 C 0.47083 0.7122 0.06632 0.0
C902 C 0.58275 0.73734 0.08769 0.0
C903 C 0.44829 0.68204 0.09433 0.0
H904 H 0.5726 0.63132 0.13264 0.0
H905 H 0.52783 0.73924 0.15008 0.0
H906 H 0.52355 0.62962 0.09122 0.0
H907 H 0.57194 0.64602 0.08954 0.0
H908 H 0.56069 0.6075 0.10421 0.0
H909 H 0.49202 0.77939 0.13182 0.0
H910 H 0.51697 0.78147 0.11117 0.0
H911 H 0.47101 0.75913 0.11228 0.0
H912 H 0.55698 0.74986 0.05481 0.0
H913 H 0.44286 0.70606 0.06077 0.0
H914 H 0.59781 0.71089 0.09171 0.0
H915 H 0.57972 0.75551 0.09956 0.0
H916 H 0.60091 0.7526 0.07804 0.0
H917 H 0.45881 0.65359 0.09849 0.0
H918 H 0.42119 0.67822 0.08686 0.0
H919 H 0.44204 0.69856 0.10642 0.0
C920 C 0.48506 0.06377 0.3796 0.0
C921 C 0.47617 0.1028 0.37971 0.0
C922 C 0.47931 0.04155 0.36443 0.0
C923 C 0.46461 0.05895 0.34911 0.0
C924 C 0.45531 0.09824 0.34925 0.0
C925 C 0.46121 0.11961 0.36452 0.0
C926 C 0.48939 0.9997 0.36473 0.0
C927 C 0.43967 0.11799 0.33316 0.0
C928 C 0.48363 0.02814 0.30266 0.0
C929 C 0.44719 0.01563 0.2974 0.0
C930 C 0.49082 0.03889 0.32004 0.0
C931 C 0.46074 0.03733 0.33243 0.0
C932 C 0.42491 0.02143 0.32759 0.0
C933 C 0.41856 0.01061 0.31008 0.0
C934 C 0.52958 0.05527 0.3247 0.0
C935 C 0.39218 0.01909 0.34046 0.0
H936 H 0.49641 0.05058 0.39134 0.0
H937 H 0.45428 0.14975 0.36446 0.0
H938 H 0.46462 0.98241 0.36021 0.0
H939 H 0.51337 0.99406 0.35553 0.0
H940 H 0.49799 0.98995 0.378 0.0
H941 H 0.43266 0.14843 0.33566 0.0
H942 H 0.46101 0.11655 0.3224 0.0
H943 H 0.41335 0.10335 0.3285 0.0
H944 H 0.50615 0.03128 0.29299 0.0
H945 H 0.3904 0.00068 0.30612 0.0
H946 H 0.53973 0.04408 0.33747 0.0
H947 H 0.52718 0.08673 0.32597 0.0
H948 H 0.55146 0.04876 0.31455 0.0
H949 H 0.40241 0.00932 0.35347 0.0
H950 H 0.36928 0.99951 0.33579 0.0
H951 H 0.37949 0.04787 0.34223 0.0
C952 C 0.05906 0.01327 0.61152 0.0
C953 C 0.0746 0.00624 0.62817 0.0
C954 C 0.07672 0.99912 0.59634 0.0
C955 C 0.11111 0.97781 0.59777 0.0
C956 C 0.128 0.97218 0.61445 0.0
C957 C 0.10941 0.98628 0.62948 0.0
C958 C 0.05764 0.00569 0.5788 0.0
C959 C 0.16502 0.95029 0.61647 0.0
C960 C 0.12603 0.91213 0.55877 0.0
C961 C 0.14713 0.93576 0.54767 0.0
C962 C 0.11621 0.92438 0.57575 0.0
C963 C 0.12835 0.96081 0.58169 0.0
C964 C 0.15253 0.98318 0.57097 0.0
C965 C 0.16114 0.97062 0.55395 0.0
C966 C 0.09021 0.89975 0.58672 0.0
C967 C 0.16686 0.02171 0.57694 0.0
H968 H 0.03216 0.02857 0.61034 0.0
H969 H 0.12165 0.98078 0.6423 0.0
H970 H 0.0782 0.01849 0.56944 0.0
H971 H 0.04824 0.97798 0.57319 0.0
H972 H 0.0323 0.02476 0.57981 0.0
H973 H 0.1764 0.95178 0.63007 0.0
H974 H 0.16026 0.91991 0.61302 0.0
H975 H 0.18705 0.96149 0.60736 0.0
H976 H 0.11499 0.88532 0.55376 0.0
H977 H 0.17744 0.98882 0.54524 0.0
H978 H 0.06129 0.91294 0.58732 0.0
H979 H 0.10111 0.89773 0.60035 0.0
H980 H 0.08732 0.87049 0.58124 0.0
H981 H 0.14293 0.04257 0.57654 0.0
H982 H 0.19035 0.03241 0.56846 0.0
H983 H 0.17732 0.02041 0.59067 0.0
C984 C 0.74572 0.57707 0.8932 0.0
C985 C 0.70891 0.57729 0.88575 0.0
C986 C 0.75214 0.56173 0.90987 0.0
C987 C 0.7211 0.54572 0.91918 0.0
C988 C 0.68428 0.54405 0.91138 0.0
C989 C 0.67853 0.56015 0.89477 0.0
C990 C 0.79178 0.56424 0.91782 0.0
C991 C 0.6507 0.5265 0.92085 0.0
C992 C 0.74502 0.48401 0.95843 0.0
C993 C 0.74015 0.50991 0.9723 0.0
C994 C 0.73851 0.49511 0.94104 0.0
C995 C 0.7268 0.53295 0.93751 0.0
C996 C 0.72162 0.55914 0.95148 0.0
C997 C 0.72844 0.5473 0.96873 0.0
C998 C 0.74442 0.46651 0.92643 0.0
C999 C 0.70922 0.59979 0.94819 0.0
H1000 H 0.76938 0.59028 0.88631 0.0
H1001 H 0.65009 0.56001 0.88901 0.0
H1002 H 0.7911 0.58322 0.92948 0.0
H1003 H 0.80139 0.53575 0.92232 0.0
H1004 H 0.81327 0.57553 0.90844 0.0
H1005 H 0.6248 0.5245 0.91239 0.0
H1006 H 0.65822 0.4975 0.92552 0.0
H1007 H 0.64356 0.54394 0.93256 0.0
H1008 H 0.75412 0.45506 0.96114 0.0
H1009 H 0.72457 0.56735 0.97943 0.0
H1010 H 0.76743 0.47651 0.91754 0.0
H1011 H 0.71789 0.46387 0.91848 0.0
H1012 H 0.75238 0.43786 0.93144 0.0
H1013 H 0.73062 0.61433 0.9398 0.0
H1014 H 0.70592 0.61639 0.96053 0.0
H1015 H 0.6815 0.60017 0.94104 0.0
C1016 C 0.64752 0.17022 0.13984 0.0
C1017 C 0.61089 0.17821 0.13333 0.0
C1018 C 0.65635 0.17707 0.15761 0.0
C1019 C 0.62811 0.19314 0.1688 0.0
C1020 C 0.59144 0.20218 0.16199 0.0
C1021 C 0.58318 0.19417 0.14439 0.0
C1022 C 0.69552 0.1665 0.16448 0.0
C1023 C 0.56077 0.22011 0.17331 0.0
C1024 C 0.62725 0.17853 0.21803 0.0
C1025 C 0.64076 0.21376 0.22425 0.0
C1026 C 0.62488 0.1708 0.2 0.0
C1027 C 0.63579 0.19914 0.18783 0.0
C1028 C 0.65042 0.23441 0.19398 0.0
C1029 C 0.65295 0.24122 0.21212 0.0
C1030 C 0.60953 0.13267 0.19399 0.0
C1031 C 0.66185 0.26556 0.18142 0.0
H1032 H 0.66889 0.15809 0.13115 0.0
H1033 H 0.55501 0.20079 0.13916 0.0
H1034 H 0.70943 0.19172 0.17056 0.0
H1035 H 0.69266 0.14458 0.17485 0.0
H1036 H 0.71454 0.15517 0.15401 0.0
H1037 H 0.53457 0.22741 0.16572 0.0
H1038 H 0.55265 0.20023 0.18396 0.0
H1039 H 0.57188 0.24647 0.17959 0.0
H1040 H 0.61828 0.15691 0.22727 0.0
H1041 H 0.66351 0.26851 0.21678 0.0
H1042 H 0.62901 0.11977 0.18412 0.0
H1043 H 0.58121 0.13667 0.1876 0.0
H1044 H 0.60603 0.11237 0.20502 0.0
H1045 H 0.68158 0.25424 0.17127 0.0
H1046 H 0.676 0.28987 0.1882 0.0
H1047 H 0.63597 0.27638 0.17455 0.0
C1048 C 0.97223 0.11125 0.39184 0.0
C1049 C 0.97494 0.0715 0.39343 0.0
C1050 C 0.96259 0.13402 0.40641 0.0
C1051 C 0.95615 0.11649 0.42285 0.0
C1052 C 0.95976 0.07646 0.4245 0.0
C1053 C 0.96887 0.05452 0.40977 0.0
C1054 C 0.95864 0.1766 0.40419 0.0
C1055 C 0.95367 0.05664 0.44184 0.0
C1056 C 0.96499 0.16442 0.46701 0.0
C1057 C 0.92656 0.16662 0.47204 0.0
C1058 C 0.97504 0.15115 0.4503 0.0
C1059 C 0.94583 0.13931 0.43857 0.0
C1060 C 0.90678 0.14367 0.44333 0.0
C1061 C 0.89757 0.15739 0.46011 0.0
C1062 C 0.01695 0.14719 0.44569 0.0
C1063 C 0.87484 0.13132 0.43121 0.0
H1064 H 0.97656 0.12437 0.37915 0.0
H1065 H 0.97122 0.02381 0.41105 0.0
H1066 H 0.92883 0.18547 0.40724 0.0
H1067 H 0.97775 0.1917 0.41354 0.0
H1068 H 0.96567 0.18592 0.39067 0.0
H1069 H 0.95813 0.02532 0.44091 0.0
H1070 H 0.97373 0.06823 0.45183 0.0
H1071 H 0.92411 0.06202 0.44661 0.0
H1072 H 0.9872 0.17184 0.47639 0.0
H1073 H 0.86784 0.15928 0.46419 0.0
H1074 H 0.02247 0.15817 0.43231 0.0
H1075 H 0.02505 0.11658 0.44577 0.0
H1076 H 0.03571 0.16263 0.45511 0.0
H1077 H 0.87984 0.14208 0.41775 0.0
H1078 H 0.84637 0.14149 0.43579 0.0
H1079 H 0.87416 0.09971 0.43048 0.0
C1080 C 0.05497 0.49225 0.64399 0.0
C1081 C 0.07469 0.46315 0.63514 0.0
C1082 C 0.03709 0.48517 0.66016 0.0
C1083 C 0.03914 0.44823 0.66757 0.0
C1084 C 0.0573 0.41838 0.65824 0.0
C1085 C 0.07476 0.42619 0.64214 0.0
C1086 C 0.01759 0.51758 0.66969 0.0
C1087 C 0.06002 0.37857 0.66566 0.0
C1088 C 0.03867 0.43784 0.71699 0.0
C1089 C 0.00124 0.42516 0.72013 0.0
C1090 C 0.05104 0.44615 0.69996 0.0
C1091 C 0.02542 0.44136 0.68571 0.0
C1092 C 0.98757 0.42851 0.68877 0.0
C1093 C 0.97586 0.42065 0.70599 0.0
C1094 C 0.09168 0.45977 0.69722 0.0
C1095 C 0.95963 0.42274 0.67386 0.0
H1096 H 0.05466 0.52082 0.63861 0.0
H1097 H 0.08956 0.40339 0.63529 0.0
H1098 H 0.98848 0.50895 0.67396 0.0
H1099 H 0.03418 0.5249 0.68166 0.0
H1100 H 0.01513 0.54352 0.66144 0.0
H1101 H 0.0722 0.35789 0.65611 0.0
H1102 H 0.07854 0.37887 0.67751 0.0
H1103 H 0.03131 0.36837 0.66975 0.0
H1104 H 0.05833 0.44152 0.72789 0.0
H1105 H 0.94688 0.41083 0.70837 0.0
H1106 H 0.09157 0.4876 0.69034 0.0
H1107 H 0.10741 0.43921 0.6888 0.0
H1108 H 0.1076 0.46309 0.70976 0.0
H1109 H 0.95645 0.44954 0.66631 0.0
H1110 H 0.93089 0.41364 0.67849 0.0
H1111 H 0.9708 0.40076 0.66469 0.0
C1112 C 0.5866 0.22519 0.39729 0.0
C1113 C 0.54999 0.23766 0.40233 0.0
C1114 C 0.60072 0.23216 0.38043 0.0
C1115 C 0.57829 0.25337 0.36845 0.0
C1116 C 0.54196 0.26755 0.3737 0.0
C1117 C 0.52782 0.25877 0.3905 0.0
C1118 C 0.63903 0.21545 0.37523 0.0
C1119 C 0.51787 0.29144 0.36149 0.0
C1120 C 0.63472 0.29334 0.33015 0.0
C1121 C 0.62607 0.26716 0.31678 0.0
C1122 C 0.61807 0.29015 0.34683 0.0
C1123 C 0.59279 0.25956 0.35033 0.0
C1124 C 0.58374 0.23317 0.33683 0.0
C1125 C 0.60024 0.23751 0.32016 0.0
C1126 C 0.62796 0.3192 0.36078 0.0
C1127 C 0.55756 0.19968 0.34013 0.0
H1128 H 0.60356 0.20814 0.40625 0.0
H1129 H 0.49944 0.26821 0.39435 0.0
H1130 H 0.63524 0.19588 0.36389 0.0
H1131 H 0.65881 0.23841 0.37104 0.0
H1132 H 0.65278 0.19938 0.38608 0.0
H1133 H 0.49178 0.30282 0.36802 0.0
H1134 H 0.53497 0.31572 0.35645 0.0
H1135 H 0.50893 0.2741 0.35001 0.0
H1136 H 0.65439 0.31656 0.32756 0.0
H1137 H 0.59347 0.21722 0.30986 0.0
H1138 H 0.64421 0.30531 0.37152 0.0
H1139 H 0.60136 0.33114 0.3666 0.0
H1140 H 0.64549 0.34301 0.35556 0.0
H1141 H 0.57018 0.18111 0.35039 0.0
H1142 H 0.55268 0.18226 0.32814 0.0
H1143 H 0.52943 0.20975 0.34508 0.0
C1144 C 0.93699 0.00619 0.62999 0.0
C1145 C 0.92294 0.02279 0.64549 0.0
C1146 C 0.92829 0.02183 0.61357 0.0
C1147 C 0.90368 0.05388 0.61254 0.0
C1148 C 0.88641 0.06839 0.62797 0.0
C1149 C 0.89659 0.05294 0.6443 0.0
C1150 C 0.9476 0.00569 0.59744 0.0
C1151 C 0.85897 0.10167 0.62734 0.0
C1152 C 0.92181 0.11993 0.57405 0.0
C1153 C 0.89581 0.1058 0.56165 0.0
C1154 C 0.92405 0.10381 0.59086 0.0
C1155 C 0.89874 0.07384 0.59549 0.0
C1156 C 0.87091 0.06113 0.58329 0.0
C1157 C 0.87027 0.07679 0.56639 0.0
C1158 C 0.95482 0.11746 0.60334 0.0
C1159 C 0.84256 0.03028 0.58791 0.0
H1160 H 0.95721 0.98275 0.63072 0.0
H1161 H 0.88528 0.06569 0.65618 0.0
H1162 H 0.92573 0.99595 0.58787 0.0
H1163 H 0.96475 0.02822 0.59097 0.0
H1164 H 0.96685 0.98134 0.60053 0.0
H1165 H 0.84356 0.10562 0.63995 0.0
H1166 H 0.87507 0.12818 0.62447 0.0
H1167 H 0.8376 0.09765 0.6167 0.0
H1168 H 0.94165 0.14223 0.57031 0.0
H1169 H 0.84987 0.06619 0.5568 0.0
H1170 H 0.97507 0.09377 0.60611 0.0
H1171 H 0.94192 0.12624 0.616 0.0
H1172 H 0.97132 0.14186 0.59798 0.0
H1173 H 0.85765 0.00255 0.58904 0.0
H1174 H 0.8196 0.02736 0.57788 0.0
H1175 H 0.8291 0.03638 0.60079 0.0
C1176 C 0.17285 0.4155 0.87306 0.0
C1177 C 0.15611 0.42541 0.88911 0.0
C1178 C 0.15006 0.40491 0.85865 0.0
C1179 C 0.10958 0.40558 0.86021 0.0
C1180 C 0.09269 0.41261 0.87676 0.0
C1181 C 0.11624 0.42177 0.89111 0.0
C1182 C 0.16924 0.39595 0.84139 0.0
C1183 C 0.04971 0.41409 0.87899 0.0
C1184 C 0.0614 0.43746 0.8182 0.0
C1185 C 0.04817 0.40292 0.81134 0.0
C1186 C 0.07957 0.43889 0.8346 0.0
C1187 C 0.08541 0.40468 0.84411 0.0
C1188 C 0.07063 0.36986 0.83749 0.0
C1189 C 0.052 0.36943 0.82112 0.0
C1190 C 0.09421 0.47676 0.84132 0.0
C1191 C 0.07665 0.33276 0.84707 0.0
H1192 H 0.20366 0.41783 0.8715 0.0
H1193 H 0.10302 0.42917 0.9035 0.0
H1194 H 0.15594 0.37053 0.83518 0.0
H1195 H 0.16537 0.4203 0.8323 0.0
H1196 H 0.20046 0.39065 0.84299 0.0
H1197 H 0.04122 0.41423 0.89303 0.0
H1198 H 0.03851 0.44047 0.87281 0.0
H1199 H 0.03579 0.38955 0.87236 0.0
H1200 H 0.05869 0.46319 0.81044 0.0
H1201 H 0.04227 0.34263 0.81555 0.0
H1202 H 0.12602 0.47683 0.84116 0.0
H1203 H 0.08502 0.48137 0.85508 0.0
H1204 H 0.08388 0.50105 0.83327 0.0
H1205 H 0.10701 0.32379 0.84565 0.0
H1206 H 0.05806 0.30968 0.84181 0.0
H1207 H 0.07092 0.33617 0.86129 0.0
C1208 C 0.72046 0.64466 0.13261 0.0
C1209 C 0.73565 0.63031 0.1483 0.0
C1210 C 0.73247 0.63046 0.11635 0.0
C1211 C 0.76126 0.60201 0.1157 0.0
C1212 C 0.77908 0.58975 0.13139 0.0
C1213 C 0.7657 0.60371 0.14757 0.0
C1214 C 0.71238 0.64406 0.09993 0.0
C1215 C 0.81082 0.56048 0.1312 0.0
C1216 C 0.75153 0.53762 0.07599 0.0
C1217 C 0.77458 0.55667 0.06385 0.0
C1218 C 0.74849 0.55091 0.09331 0.0
C1219 C 0.76996 0.58325 0.09866 0.0
C1220 C 0.79575 0.6005 0.08679 0.0
C1221 C 0.79721 0.58744 0.06941 0.0
C1222 C 0.7202 0.53206 0.10548 0.0
C1223 C 0.8203 0.63397 0.09219 0.0
H1224 H 0.69727 0.66526 0.133 0.0
H1225 H 0.77779 0.59269 0.15964 0.0
H1226 H 0.73358 0.65471 0.09031 0.0
H1227 H 0.69697 0.61986 0.09369 0.0
H1228 H 0.69136 0.66715 0.10265 0.0
H1229 H 0.8265 0.55961 0.14388 0.0
H1230 H 0.79851 0.53183 0.12868 0.0
H1231 H 0.83156 0.56651 0.12054 0.0
H1232 H 0.73408 0.51378 0.07167 0.0
H1233 H 0.81558 0.60174 0.06005 0.0
H1234 H 0.69641 0.55216 0.10839 0.0
H1235 H 0.73415 0.5249 0.11812 0.0
H1236 H 0.70786 0.5056 0.09976 0.0
H1237 H 0.80224 0.65994 0.09321 0.0
H1238 H 0.84353 0.63953 0.08259 0.0
H1239 H 0.83335 0.62898 0.10527 0.0
loop_
_geom_bond_atom_site_label_1
_geom_bond_atom_site_label_2
_geom_bond_distance
_geom_bond_site_symmetry_2
_ccdc_geom_bond_type
Mg0 O7 2.141 . S
Mg0 O8 2.048 1_545 S
Mg0 O9 2.048 1_455 S
Mg0 O12 2.141 1_455 S
C1 O2 1.313 . S
C1 O8 1.195 . S
O2 C1 1.313 . S
C3 O4 1.245 . S
C3 O12 1.289 . S
O4 C3 1.245 . S
C5 O6 1.245 . S
C5 O7 1.289 1_565 S
O6 C5 1.245 . S
O7 Mg0 2.141 . S
O7 C5 1.289 1_545 S
O8 Mg0 2.048 1_565 S
O8 C1 1.195 . S
O9 Mg0 2.048 1_655 S
O9 C10 1.195 . S
C10 O9 1.195 . S
C10 O11 1.313 1_545 S
O11 C10 1.313 1_565 S
O12 Mg0 2.141 1_655 S
O12 C3 1.289 . S
Mg13 O20 2.141 . S
Mg13 O21 2.048 . S
Mg13 O22 2.048 . S
Mg13 O25 2.141 . S
C14 O15 1.313 . S
C14 O21 1.195 . S
O15 C14 1.313 . S
C16 O17 1.245 . S
C16 O25 1.289 . S
O17 C16 1.245 . S
C18 O19 1.245 . S
C18 O20 1.289 . S
O19 C18 1.245 . S
O20 Mg13 2.141 . S
O20 C18 1.289 . S
O21 Mg13 2.048 . S
O21 C14 1.195 . S
O22 Mg13 2.048 . S
O22 C23 1.195 . S
C23 O22 1.195 . S
C23 O24 1.313 . S
O24 C23 1.313 . S
O25 Mg13 2.141 . S
O25 C16 1.289 . S
Mg26 O33 2.141 . S
Mg26 O34 2.048 . S
Mg26 O35 2.048 . S
Mg26 O38 2.141 . S
C27 O28 1.313 . S
C27 O34 1.195 . S
O28 C27 1.313 . S
C29 O30 1.245 . S
C29 O38 1.289 . S
O30 C29 1.245 . S
C31 O32 1.245 . S
C31 O33 1.289 . S
O32 C31 1.245 . S
O33 Mg26 2.141 . S
O33 C31 1.289 . S
O34 Mg26 2.048 . S
O34 C27 1.195 . S
O35 Mg26 2.048 . S
O35 C36 1.195 . S
C36 O35 1.195 . S
C36 O37 1.313 . S
O37 C36 1.313 . S
O38 Mg26 2.141 . S
O38 C29 1.289 . S
Mg39 O46 2.141 . S
Mg39 O47 2.048 . S
Mg39 O48 2.048 . S
Mg39 O51 2.141 . S
C40 O41 1.313 . S
C40 O47 1.195 . S
O41 C40 1.313 . S
C42 O43 1.245 . S
C42 O51 1.289 . S
O43 C42 1.245 . S
C44 O45 1.245 . S
C44 O46 1.289 . S
O45 C44 1.245 . S
O46 Mg39 2.141 . S
O46 C44 1.289 . S
O47 Mg39 2.048 . S
O47 C40 1.195 . S
O48 Mg39 2.048 . S
O48 C49 1.195 . S
C49 O48 1.195 . S
C49 O50 1.313 . S
O50 C49 1.313 . S
O51 Mg39 2.141 . S
O51 C42 1.289 . S
Mg52 O59 2.141 . S
Mg52 O60 2.048 . S
Mg52 O61 2.048 . S
Mg52 O64 2.141 . S
C53 O54 1.313 . S
C53 O60 1.195 . S
O54 C53 1.313 . S
C55 O56 1.245 . S
C55 O64 1.289 . S
O56 C55 1.245 . S
C57 O58 1.245 . S
C57 O59 1.289 . S
O58 C57 1.245 . S
O59 Mg52 2.141 . S
O59 C57 1.289 . S
O60 Mg52 2.048 . S
O60 C53 1.195 . S
O61 Mg52 2.048 . S
O61 C62 1.195 . S
C62 O61 1.195 . S
C62 O63 1.313 . S
O63 C62 1.313 . S
O64 Mg52 2.141 . S
O64 C55 1.289 . S
Mg65 O72 2.141 . S
Mg65 O73 2.048 . S
Mg65 O74 2.048 . S
Mg65 O77 2.141 . S
C66 O67 1.313 . S
C66 O73 1.195 . S
O67 C66 1.313 . S
C68 O69 1.245 . S
C68 O77 1.289 . S
O69 C68 1.245 . S
C70 O71 1.245 . S
C70 O72 1.289 . S
O71 C70 1.245 . S
O72 Mg65 2.141 . S
O72 C70 1.289 . S
O73 Mg65 2.048 . S
O73 C66 1.195 . S
O74 Mg65 2.048 . S
O74 C75 1.195 . S
C75 O74 1.195 . S
C75 O76 1.313 . S
O76 C75 1.313 . S
O77 Mg65 2.141 . S
O77 C68 1.289 . S
Mg78 O85 2.141 . S
Mg78 O86 2.048 . S
Mg78 O87 2.048 . S
Mg78 O90 2.141 . S
C79 O80 1.313 . S
C79 O86 1.195 . S
O80 C79 1.313 . S
C81 O82 1.245 . S
C81 O90 1.289 . S
O82 C81 1.245 . S
C83 O84 1.245 . S
C83 O85 1.289 . S
O84 C83 1.245 . S
O85 Mg78 2.141 . S
O85 C83 1.289 . S
O86 Mg78 2.048 . S
O86 C79 1.195 . S
O87 Mg78 2.048 . S
O87 C88 1.195 . S
C88 O87 1.195 . S
C88 O89 1.313 . S
O89 C88 1.313 . S
O90 Mg78 2.141 . S
O90 C81 1.289 . S
Mg91 O98 2.152 . S
Mg91 O99 2.055 . S
Mg91 O100 2.036 1_465 S
Mg91 O103 2.134 1_465 S
C92 O93 1.313 . S
C92 O99 1.195 . S
O93 C92 1.313 . S
C94 O95 1.245 1_655 S
C94 O103 1.289 . S
O95 C94 1.245 1_455 S
C96 O97 1.245 . S
C96 O98 1.289 . S
O97 C96 1.245 . S
O98 Mg91 2.152 . S
O98 C96 1.289 . S
O99 Mg91 2.055 . S
O99 C92 1.195 . S
O100 Mg91 2.036 1_645 S
O100 C101 1.195 . S
C101 O100 1.195 . S
C101 O102 1.313 1_655 S
O102 C101 1.313 1_455 S
O103 Mg91 2.134 1_645 S
O103 C94 1.289 . S
Co104 O105 2.216 1_554 S
Co104 O106 2.077 1_554 S
Co104 O108 2.004 . S
Co104 O114 2.021 1_554 S
Co104 O116 2.137 . S
Co104 O117 2.244 . S
O105 Co104 2.216 1_556 S
O105 C112 1.247 . S
O106 Co104 2.077 1_556 S
O106 C112 1.271 . S
C107 O116 1.247 . S
C107 O117 1.272 . S
O108 Co104 2.004 . S
O108 C113 1.259 . S
Co109 O110 2.061 . S
Co109 O115 2.052 1_554 S
Co109 O117 2.135 . S
O110 Co109 2.061 . S
O110 C113 1.235 . S
C111 O114 1.238 . S
C111 O115 1.241 . S
C112 O105 1.247 . S
C112 O106 1.271 . S
C113 O108 1.259 . S
C113 O110 1.235 . S
O114 Co104 2.021 1_556 S
O114 C111 1.238 . S
O115 Co109 2.052 1_556 S
O115 C111 1.241 . S
O116 Co104 2.137 . S
O116 C107 1.247 . S
O117 Co104 2.244 . S
O117 C107 1.272 . S
O117 Co109 2.135 . S
Co118 O119 2.216 . S
Co118 O120 2.091 . S
Co118 O122 2.004 . S
Co118 O128 2.021 . S
Co118 O130 2.137 . S
Co118 O131 2.244 . S
O119 Co118 2.216 . S
O119 C126 1.247 . S
O120 Co118 2.091 . S
O120 C126 1.261 . S
C121 O130 1.247 . S
C121 O131 1.272 . S
O122 Co118 2.004 . S
O122 C127 1.259 . S
Co123 O124 2.061 . S
Co123 O129 2.052 . S
Co123 O131 2.135 . S
O124 Co123 2.061 . S
O124 C127 1.235 . S
C125 O128 1.238 . S
C125 O129 1.241 . S
C126 O119 1.247 . S
C126 O120 1.261 . S
C127 O122 1.259 . S
C127 O124 1.235 . S
O128 Co118 2.021 . S
O128 C125 1.238 . S
O129 Co123 2.052 . S
O129 C125 1.241 . S
O130 Co118 2.137 . S
O130 C121 1.247 . S
O131 Co118 2.244 . S
O131 C121 1.272 . S
O131 Co123 2.135 . S
Co132 O133 2.216 . S
Co132 O134 2.091 . S
Co132 O136 2.004 . S
Co132 O142 2.021 . S
Co132 O144 2.137 . S
Co132 O145 2.244 . S
O133 Co132 2.216 . S
O133 C140 1.247 . S
O134 Co132 2.091 . S
O134 C140 1.261 . S
C135 O144 1.247 . S
C135 O145 1.272 . S
O136 Co132 2.004 . S
O136 C141 1.259 . S
Co137 O138 2.061 . S
Co137 O143 2.052 . S
Co137 O145 2.135 . S
O138 Co137 2.061 . S
O138 C141 1.235 . S
C139 O142 1.238 . S
C139 O143 1.241 . S
C140 O133 1.247 . S
C140 O134 1.261 . S
C141 O136 1.259 . S
C141 O138 1.235 . S
O142 Co132 2.021 . S
O142 C139 1.238 . S
O143 Co137 2.052 . S
O143 C139 1.241 . S
O144 Co132 2.137 . S
O144 C135 1.247 . S
O145 Co132 2.244 . S
O145 C135 1.272 . S
O145 Co137 2.135 . S
Co146 O147 2.216 . S
Co146 O148 2.091 . S
Co146 O150 2.004 . S
Co146 O156 2.021 . S
Co146 O158 2.137 . S
Co146 O159 2.244 . S
O147 Co146 2.216 . S
O147 C154 1.247 . S
O148 Co146 2.091 . S
O148 C154 1.261 . S
C149 O158 1.247 . S
C149 O159 1.272 . S
O150 Co146 2.004 . S
O150 C155 1.259 . S
Co151 O152 2.061 . S
Co151 O157 2.052 . S
Co151 O159 2.135 . S
O152 Co151 2.061 . S
O152 C155 1.235 . S
C153 O156 1.238 . S
C153 O157 1.241 . S
C154 O147 1.247 . S
C154 O148 1.261 . S
C155 O150 1.259 . S
C155 O152 1.235 . S
O156 Co146 2.021 . S
O156 C153 1.238 . S
O157 Co151 2.052 . S
O157 C153 1.241 . S
O158 Co146 2.137 . S
O158 C149 1.247 . S
O159 Co146 2.244 . S
O159 C149 1.272 . S
O159 Co151 2.135 . S
Co160 O161 2.216 . S
Co160 O162 2.091 . S
Co160 O164 2.004 . S
Co160 O170 2.021 . S
Co160 O172 2.137 . S
Co160 O173 2.244 . S
O161 Co160 2.216 . S
O161 C168 1.247 . S
O162 Co160 2.091 . S
O162 C168 1.261 . S
C163 O172 1.247 . S
C163 O173 1.272 . S
O164 Co160 2.004 . S
O164 C169 1.259 . S
Co165 O166 2.061 . S
Co165 O171 2.052 . S
Co165 O173 2.135 . S
O166 Co165 2.061 . S
O166 C169 1.235 . S
C167 O170 1.238 . S
C167 O171 1.241 . S
C168 O161 1.247 . S
C168 O162 1.261 . S
C169 O164 1.259 . S
C169 O166 1.235 . S
O170 Co160 2.021 . S
O170 C167 1.238 . S
O171 Co165 2.052 . S
O171 C167 1.241 . S
O172 Co160 2.137 . S
O172 C163 1.247 . S
O173 Co160 2.244 . S
O173 C163 1.272 . S
O173 Co165 2.135 . S
Co174 O175 2.216 . S
Co174 O176 2.091 . S
Co174 O178 2.004 . S
Co174 O184 2.021 . S
Co174 O186 2.137 . S
Co174 O187 2.244 . S
O175 Co174 2.216 . S
O175 C182 1.247 . S
O176 Co174 2.091 . S
O176 C182 1.261 . S
C177 O186 1.247 . S
C177 O187 1.272 . S
O178 Co174 2.004 . S
O178 C183 1.259 . S
Co179 O180 2.061 1_455 S
Co179 O185 2.052 . S
Co179 O187 2.135 1_455 S
O180 Co179 2.061 1_655 S
O180 C183 1.235 . S
C181 O184 1.238 . S
C181 O185 1.241 1_655 S
C182 O175 1.247 . S
C182 O176 1.261 . S
C183 O178 1.259 . S
C183 O180 1.235 . S
O184 Co174 2.021 . S
O184 C181 1.238 . S
O185 Co179 2.052 . S
O185 C181 1.241 1_455 S
O186 Co174 2.137 . S
O186 C177 1.247 . S
O187 Co174 2.244 . S
O187 C177 1.272 . S
O187 Co179 2.135 1_655 S
Co188 O189 2.216 . S
Co188 O190 2.091 . S
Co188 O192 2.004 . S
Co188 O198 2.021 . S
Co188 O200 2.137 1_554 S
Co188 O201 2.244 . S
O189 Co188 2.216 . S
O189 C196 1.247 . S
O190 Co188 2.091 . S
O190 C196 1.261 . S
C191 O200 1.247 . S
C191 O201 1.272 1_556 S
O192 Co188 2.004 . S
O192 C197 1.259 . S
Co193 O194 2.061 . S
Co193 O199 2.052 . S
Co193 O201 2.135 . S
O194 Co193 2.061 . S
O194 C197 1.235 . S
C195 O198 1.238 . S
C195 O199 1.241 . S
C196 O189 1.247 . S
C196 O190 1.261 . S
C197 O192 1.259 . S
C197 O194 1.235 . S
O198 Co188 2.021 . S
O198 C195 1.238 . S
O199 Co193 2.052 . S
O199 C195 1.241 . S
O200 Co188 2.137 1_556 S
O200 C191 1.247 . S
O201 Co188 2.244 . S
O201 C191 1.272 1_554 S
O201 Co193 2.135 . S
Co202 O203 2.216 . S
Co202 O204 2.091 . S
Co202 O206 2.004 . S
Co202 O212 2.021 . S
Co202 O214 2.137 . S
Co202 O215 2.244 . S
O203 Co202 2.216 . S
O203 C210 1.247 . S
O204 Co202 2.091 . S
O204 C210 1.261 . S
C205 O214 1.247 . S
C205 O215 1.272 . S
O206 Co202 2.004 . S
O206 C211 1.259 . S
Co207 O208 2.061 . S
Co207 O213 2.052 . S
Co207 O215 2.135 . S
O208 Co207 2.061 . S
O208 C211 1.235 . S
C209 O212 1.238 . S
C209 O213 1.241 . S
C210 O203 1.247 . S
C210 O204 1.261 . S
C211 O206 1.259 . S
C211 O208 1.235 . S
O212 Co202 2.021 . S
O212 C209 1.238 . S
O213 Co207 2.052 . S
O213 C209 1.241 . S
O214 Co202 2.137 . S
O214 C205 1.247 . S
O215 Co202 2.244 . S
O215 C205 1.272 . S
O215 Co207 2.135 . S
C216 C217 1.391 . S
C216 C218 1.394 . S
C216 H232 0.931 1_565 S
C217 C216 1.391 . S
C217 C221 1.376 . S
C218 C216 1.394 . S
C218 C219 1.369 . S
C218 C222 1.531 1_565 S
C219 C218 1.369 . S
C219 C220 1.410 . S
C219 C227 1.503 . S
C220 C219 1.410 . S
C220 C221 1.392 . S
C220 C223 1.511 . S
C221 C217 1.376 . S
C221 C220 1.392 . S
C221 H233 0.929 . S
C222 C218 1.531 1_545 S
C222 H234 0.960 . S
C222 H235 0.962 1_545 S
C222 H236 0.960 . S
C223 C220 1.511 . S
C223 H237 0.961 . S
C223 H238 0.961 . S
C223 H239 0.961 . S
C224 C225 1.370 . S
C224 C226 1.363 . S
C224 H240 0.931 . S
C225 C224 1.370 . S
C225 C229 1.408 . S
C226 C224 1.363 . S
C226 C227 1.370 . S
C226 C230 1.524 . S
C227 C219 1.503 . S
C227 C226 1.370 . S
C227 C228 1.403 . S
C228 C227 1.403 . S
C228 C229 1.404 . S
C228 C231 1.539 1_565 S
C229 C225 1.408 . S
C229 C228 1.404 . S
C229 H241 0.930 . S
C230 C226 1.524 . S
C230 H242 0.956 . S
C230 H243 0.961 . S
C230 H244 0.961 . S
C231 C228 1.539 1_545 S
C231 H245 0.958 . S
C231 H246 0.961 . S
C231 H247 0.960 . S
H232 C216 0.931 1_545 S
H233 C221 0.929 . S
H234 C222 0.960 . S
H235 C222 0.962 1_565 S
H236 C222 0.960 . S
H237 C223 0.961 . S
H238 C223 0.961 . S
H239 C223 0.961 . S
H240 C224 0.931 . S
H241 C229 0.930 . S
H242 C230 0.956 . S
H243 C230 0.961 . S
H244 C230 0.961 . S
H245 C231 0.958 . S
H246 C231 0.961 . S
H247 C231 0.960 . S
C248 C249 1.391 . S
C248 C250 1.394 . S
C248 H264 0.931 . S
C249 C248 1.391 . S
C249 C253 1.376 . S
C250 C248 1.394 . S
C250 C251 1.369 . S
C250 C254 1.531 . S
C251 C250 1.369 . S
C251 C252 1.410 . S
C251 C259 1.503 . S
C252 C251 1.410 . S
C252 C253 1.392 . S
C252 C255 1.511 . S
C253 C249 1.376 . S
C253 C252 1.392 . S
C253 H265 0.929 . S
C254 C250 1.531 . S
C254 H266 0.960 . S
C254 H267 0.962 . S
C254 H268 0.960 . S
C255 C252 1.511 . S
C255 H269 0.961 . S
C255 H270 0.961 . S
C255 H271 0.961 . S
C256 C257 1.370 . S
C256 C258 1.363 . S
C256 H272 0.931 . S
C257 C256 1.370 . S
C257 C261 1.408 . S
C258 C256 1.363 . S
C258 C259 1.370 . S
C258 C262 1.524 . S
C259 C251 1.503 . S
C259 C258 1.370 . S
C259 C260 1.403 . S
C260 C259 1.403 . S
C260 C261 1.404 . S
C260 C263 1.539 . S
C261 C257 1.408 . S
C261 C260 1.404 . S
C261 H273 0.930 . S
C262 C258 1.524 . S
C262 H274 0.956 . S
C262 H275 0.961 . S
C262 H276 0.961 . S
C263 C260 1.539 . S
C263 H277 0.958 . S
C263 H278 0.961 . S
C263 H279 0.960 . S
H264 C248 0.931 . S
H265 C253 0.929 . S
H266 C254 0.960 . S
H267 C254 0.962 . S
H268 C254 0.960 . S
H269 C255 0.961 . S
H270 C255 0.961 . S
H271 C255 0.961 . S
H272 C256 0.931 . S
H273 C261 0.930 . S
H274 C262 0.956 . S
H275 C262 0.961 . S
H276 C262 0.961 . S
H277 C263 0.958 . S
H278 C263 0.961 . S
H279 C263 0.960 . S
C280 C281 1.391 . S
C280 C282 1.394 . S
C280 H296 0.931 . S
C281 C280 1.391 . S
C281 C285 1.376 . S
C282 C280 1.394 . S
C282 C283 1.369 . S
C282 C286 1.531 . S
C283 C282 1.369 . S
C283 C284 1.410 . S
C283 C291 1.503 . S
C284 C283 1.410 . S
C284 C285 1.392 . S
C284 C287 1.511 . S
C285 C281 1.376 . S
C285 C284 1.392 . S
C285 H297 0.929 . S
C286 C282 1.531 . S
C286 H298 0.960 . S
C286 H299 0.962 . S
C286 H300 0.960 . S
C287 C284 1.511 . S
C287 H301 0.961 . S
C287 H302 0.961 . S
C287 H303 0.961 . S
C288 C289 1.370 . S
C288 C290 1.363 . S
C288 H304 0.931 . S
C289 C288 1.370 . S
C289 C293 1.408 . S
C290 C288 1.363 . S
C290 C291 1.370 . S
C290 C294 1.524 . S
C291 C283 1.503 . S
C291 C290 1.370 . S
C291 C292 1.403 . S
C292 C291 1.403 . S
C292 C293 1.404 . S
C292 C295 1.539 . S
C293 C289 1.408 . S
C293 C292 1.404 . S
C293 H305 0.930 . S
C294 C290 1.524 . S
C294 H306 0.956 . S
C294 H307 0.961 . S
C294 H308 0.961 . S
C295 C292 1.539 . S
C295 H309 0.958 . S
C295 H310 0.961 . S
C295 H311 0.960 . S
H296 C280 0.931 . S
H297 C285 0.929 . S
H298 C286 0.960 . S
H299 C286 0.962 . S
H300 C286 0.960 . S
H301 C287 0.961 . S
H302 C287 0.961 . S
H303 C287 0.961 . S
H304 C288 0.931 . S
H305 C293 0.930 . S
H306 C294 0.956 . S
H307 C294 0.961 . S
H308 C294 0.961 . S
H309 C295 0.958 . S
H310 C295 0.961 . S
H311 C295 0.960 . S
C312 C313 1.391 . S
C312 C314 1.394 . S
C312 H328 0.931 . S
C313 C312 1.391 . S
C313 C317 1.376 . S
C314 C312 1.394 . S
C314 C315 1.369 . S
C314 C318 1.531 . S
C315 C314 1.369 . S
C315 C316 1.410 . S
C315 C323 1.503 1_545 S
C316 C315 1.410 . S
C316 C317 1.392 . S
C316 C319 1.511 . S
C317 C313 1.376 . S
C317 C316 1.392 . S
C317 H329 0.929 . S
C318 C314 1.531 . S
C318 H330 0.960 . S
C318 H331 0.962 . S
C318 H332 0.960 . S
C319 C316 1.511 . S
C319 H333 0.961 . S
C319 H334 0.961 1_545 S
C319 H335 0.961 . S
C320 C321 1.370 . S
C320 C322 1.363 . S
C320 H336 0.931 . S
C321 C320 1.370 . S
C321 C325 1.408 . S
C322 C320 1.363 . S
C322 C323 1.370 . S
C322 C326 1.524 . S
C323 C315 1.503 1_565 S
C323 C322 1.370 . S
C323 C324 1.403 . S
C324 C323 1.403 . S
C324 C325 1.404 . S
C324 C327 1.539 1_565 S
C325 C321 1.408 . S
C325 C324 1.404 . S
C325 H337 0.930 1_554 S
C326 C322 1.524 . S
C326 H338 0.956 . S
C326 H339 0.961 . S
C326 H340 0.961 . S
C327 C324 1.539 1_545 S
C327 H341 0.958 . S
C327 H342 0.961 1_554 S
C327 H343 0.960 . S
H328 C312 0.931 . S
H329 C317 0.929 . S
H330 C318 0.960 . S
H331 C318 0.962 . S
H332 C318 0.960 . S
H333 C319 0.961 . S
H334 C319 0.961 1_565 S
H335 C319 0.961 . S
H336 C320 0.931 . S
H337 C325 0.930 1_556 S
H338 C326 0.956 . S
H339 C326 0.961 . S
H340 C326 0.961 . S
H341 C327 0.958 . S
H342 C327 0.961 1_556 S
H343 C327 0.960 . S
C344 C345 1.391 . S
C344 C346 1.394 . S
C344 H360 0.931 . S
C345 C344 1.391 . S
C345 C349 1.376 . S
C346 C344 1.394 . S
C346 C347 1.369 . S
C346 C350 1.531 . S
C347 C346 1.369 . S
C347 C348 1.410 . S
C347 C355 1.503 . S
C348 C347 1.410 . S
C348 C349 1.392 . S
C348 C351 1.511 . S
C349 C345 1.376 . S
C349 C348 1.392 . S
C349 H361 0.929 . S
C350 C346 1.531 . S
C350 H362 0.960 . S
C350 H363 0.962 . S
C350 H364 0.960 . S
C351 C348 1.511 . S
C351 H365 0.961 . S
C351 H366 0.961 . S
C351 H367 0.961 . S
C352 C353 1.370 . S
C352 C354 1.363 . S
C352 H368 0.931 . S
C353 C352 1.370 . S
C353 C357 1.387 1_556 S
C354 C352 1.363 . S
C354 C355 1.370 . S
C354 C358 1.524 . S
C355 C347 1.503 . S
C355 C354 1.370 . S
C355 C356 1.403 . S
C356 C355 1.403 . S
C356 C357 1.392 1_556 S
C356 C359 1.539 1_556 S
C357 C353 1.387 1_554 S
C357 C356 1.392 1_554 S
C357 H369 0.963 . S
C358 C354 1.524 . S
C358 H370 0.956 . S
C358 H371 0.961 . S
C358 H372 0.961 . S
C359 C356 1.539 1_554 S
C359 H373 0.958 . S
C359 H374 0.961 . S
C359 H375 0.960 1_554 S
H360 C344 0.931 . S
H361 C349 0.929 . S
H362 C350 0.960 . S
H363 C350 0.962 . S
H364 C350 0.960 . S
H365 C351 0.961 . S
H366 C351 0.961 . S
H367 C351 0.961 . S
H368 C352 0.931 . S
H369 C357 0.963 . S
H370 C358 0.956 . S
H371 C358 0.961 . S
H372 C358 0.961 . S
H373 C359 0.958 . S
H374 C359 0.961 . S
H375 C359 0.960 1_556 S
C376 C377 1.391 . S
C376 C378 1.394 . S
C376 H392 0.931 . S
C377 C376 1.391 . S
C377 C381 1.376 . S
C378 C376 1.394 . S
C378 C379 1.369 . S
C378 C382 1.531 . S
C379 C378 1.369 . S
C379 C380 1.410 . S
C379 C387 1.503 . S
C380 C379 1.410 . S
C380 C381 1.392 . S
C380 C383 1.511 . S
C381 C377 1.376 . S
C381 C380 1.392 . S
C381 H393 0.929 . S
C382 C378 1.531 . S
C382 H394 0.960 . S
C382 H395 0.962 . S
C382 H396 0.960 . S
C383 C380 1.511 . S
C383 H397 0.961 . S
C383 H398 0.961 . S
C383 H399 0.961 . S
C384 C385 1.370 . S
C384 C386 1.363 . S
C384 H400 0.931 . S
C385 C384 1.370 . S
C385 C389 1.408 . S
C386 C384 1.363 . S
C386 C387 1.370 . S
C386 C390 1.524 . S
C387 C379 1.503 . S
C387 C386 1.370 . S
C387 C388 1.403 . S
C388 C387 1.403 . S
C388 C389 1.404 . S
C388 C391 1.539 . S
C389 C385 1.408 . S
C389 C388 1.404 . S
C389 H401 0.930 . S
C390 C386 1.524 . S
C390 H402 0.956 . S
C390 H403 0.961 . S
C390 H404 0.961 . S
C391 C388 1.539 . S
C391 H405 0.958 . S
C391 H406 0.961 . S
C391 H407 0.960 . S
H392 C376 0.931 . S
H393 C381 0.929 . S
H394 C382 0.960 . S
H395 C382 0.962 . S
H396 C382 0.960 . S
H397 C383 0.961 . S
H398 C383 0.961 . S
H399 C383 0.961 . S
H400 C384 0.931 . S
H401 C389 0.930 . S
H402 C390 0.956 . S
H403 C390 0.961 . S
H404 C390 0.961 . S
H405 C391 0.958 . S
H406 C391 0.961 . S
H407 C391 0.960 . S
C408 C409 1.391 . S
C408 C410 1.394 . S
C408 H424 0.931 . S
C409 C408 1.391 . S
C409 C413 1.376 . S
C410 C408 1.394 . S
C410 C411 1.369 . S
C410 C414 1.531 . S
C411 C410 1.369 . S
C411 C412 1.410 . S
C411 C419 1.503 1_545 S
C412 C411 1.410 . S
C412 C413 1.392 . S
C412 C415 1.511 . S
C413 C409 1.376 . S
C413 C412 1.392 . S
C413 H425 0.929 . S
C414 C410 1.531 . S
C414 H426 0.960 . S
C414 H427 0.962 1_545 S
C414 H428 0.960 . S
C415 C412 1.511 . S
C415 H429 0.961 . S
C415 H430 0.961 . S
C415 H431 0.961 . S
C416 C417 1.370 . S
C416 C418 1.363 . S
C416 H432 0.931 . S
C417 C416 1.370 . S
C417 C421 1.408 . S
C418 C416 1.363 . S
C418 C419 1.370 . S
C418 C422 1.524 . S
C419 C411 1.503 1_565 S
C419 C418 1.370 . S
C419 C420 1.403 . S
C420 C419 1.403 . S
C420 C421 1.404 . S
C420 C423 1.539 1_565 S
C421 C417 1.408 . S
C421 C420 1.404 . S
C421 H433 0.930 . S
C422 C418 1.524 . S
C422 H434 0.956 . S
C422 H435 0.961 . S
C422 H436 0.961 . S
C423 C420 1.539 1_545 S
C423 H437 0.958 . S
C423 H438 0.961 . S
C423 H439 0.960 . S
H424 C408 0.931 . S
H425 C413 0.929 . S
H426 C414 0.960 . S
H427 C414 0.962 1_565 S
H428 C414 0.960 . S
H429 C415 0.961 . S
H430 C415 0.961 . S
H431 C415 0.961 . S
H432 C416 0.931 . S
H433 C421 0.930 . S
H434 C422 0.956 . S
H435 C422 0.961 . S
H436 C422 0.961 . S
H437 C423 0.958 . S
H438 C423 0.961 . S
H439 C423 0.960 . S
C440 C441 1.391 . S
C440 C442 1.394 . S
C440 H456 0.931 . S
C441 C440 1.391 . S
C441 C445 1.376 . S
C442 C440 1.394 . S
C442 C443 1.369 . S
C442 C446 1.531 . S
C443 C442 1.369 . S
C443 C444 1.410 . S
C443 C451 1.503 . S
C444 C443 1.410 . S
C444 C445 1.392 . S
C444 C447 1.511 . S
C445 C441 1.376 . S
C445 C444 1.392 . S
C445 H457 0.929 . S
C446 C442 1.531 . S
C446 H458 0.960 . S
C446 H459 0.962 . S
C446 H460 0.960 . S
C447 C444 1.511 . S
C447 H461 0.961 . S
C447 H462 0.961 . S
C447 H463 0.961 . S
C448 C449 1.370 . S
C448 C450 1.363 . S
C448 H464 0.931 . S
C449 C448 1.370 . S
C449 C453 1.408 . S
C450 C448 1.363 . S
C450 C451 1.370 . S
C450 C454 1.524 . S
C451 C443 1.503 . S
C451 C450 1.370 . S
C451 C452 1.403 . S
C452 C451 1.403 . S
C452 C453 1.404 . S
C452 C455 1.539 . S
C453 C449 1.408 . S
C453 C452 1.404 . S
C453 H465 0.930 . S
C454 C450 1.524 . S
C454 H466 0.956 . S
C454 H467 0.961 . S
C454 H468 0.961 . S
C455 C452 1.539 . S
C455 H469 0.958 . S
C455 H470 0.961 . S
C455 H471 0.960 . S
H456 C440 0.931 . S
H457 C445 0.929 . S
H458 C446 0.960 . S
H459 C446 0.962 . S
H460 C446 0.960 . S
H461 C447 0.961 . S
H462 C447 0.961 . S
H463 C447 0.961 . S
H464 C448 0.931 . S
H465 C453 0.930 . S
H466 C454 0.956 . S
H467 C454 0.961 . S
H468 C454 0.961 . S
H469 C455 0.958 . S
H470 C455 0.961 . S
H471 C455 0.960 . S
C472 C473 1.391 . S
C472 C474 1.394 . S
C472 H488 0.931 . S
C473 C472 1.391 . S
C473 C477 1.376 . S
C474 C472 1.394 . S
C474 C475 1.369 . S
C474 C478 1.531 . S
C475 C474 1.369 . S
C475 C476 1.410 . S
C475 C483 1.503 . S
C476 C475 1.410 . S
C476 C477 1.392 . S
C476 C479 1.511 . S
C477 C473 1.376 . S
C477 C476 1.392 . S
C477 H489 0.929 . S
C478 C474 1.531 . S
C478 H490 0.960 . S
C478 H491 0.962 . S
C478 H492 0.960 . S
C479 C476 1.511 . S
C479 H493 0.961 . S
C479 H494 0.961 . S
C479 H495 0.961 . S
C480 C481 1.370 . S
C480 C482 1.363 . S
C480 H496 0.931 . S
C481 C480 1.370 . S
C481 C485 1.408 . S
C482 C480 1.363 . S
C482 C483 1.370 . S
C482 C486 1.524 . S
C483 C475 1.503 . S
C483 C482 1.370 . S
C483 C484 1.403 . S
C484 C483 1.403 . S
C484 C485 1.404 . S
C484 C487 1.539 . S
C485 C481 1.408 . S
C485 C484 1.404 . S
C485 H497 0.930 . S
C486 C482 1.524 . S
C486 H498 0.956 . S
C486 H499 0.961 . S
C486 H500 0.961 . S
C487 C484 1.539 . S
C487 H501 0.958 . S
C487 H502 0.961 . S
C487 H503 0.960 . S
H488 C472 0.931 . S
H489 C477 0.929 . S
H490 C478 0.960 . S
H491 C478 0.962 . S
H492 C478 0.960 . S
H493 C479 0.961 . S
H494 C479 0.961 . S
H495 C479 0.961 . S
H496 C480 0.931 . S
H497 C485 0.930 . S
H498 C486 0.956 . S
H499 C486 0.961 . S
H500 C486 0.961 . S
H501 C487 0.958 . S
H502 C487 0.961 . S
H503 C487 0.960 . S
C504 C505 1.391 . S
C504 C506 1.394 . S
C504 H520 0.931 . S
C505 C504 1.391 . S
C505 C509 1.376 . S
C506 C504 1.394 . S
C506 C507 1.369 . S
C506 C510 1.531 . S
C507 C506 1.369 . S
C507 C508 1.410 . S
C507 C515 1.503 . S
C508 C507 1.410 . S
C508 C509 1.392 . S
C508 C511 1.511 . S
C509 C505 1.376 . S
C509 C508 1.392 . S
C509 H521 0.929 . S
C510 C506 1.531 . S
C510 H522 0.960 . S
C510 H523 0.962 . S
C510 H524 0.960 . S
C511 C508 1.511 . S
C511 H525 0.961 . S
C511 H526 0.961 . S
C511 H527 0.961 . S
C512 C513 1.370 . S
C512 C514 1.363 . S
C512 H528 0.931 . S
C513 C512 1.370 . S
C513 C517 1.408 . S
C514 C512 1.363 . S
C514 C515 1.370 . S
C514 C518 1.524 . S
C515 C507 1.503 . S
C515 C514 1.370 . S
C515 C516 1.403 . S
C516 C515 1.403 . S
C516 C517 1.404 . S
C516 C519 1.539 . S
C517 C513 1.408 . S
C517 C516 1.404 . S
C517 H529 0.930 . S
C518 C514 1.524 . S
C518 H530 0.956 . S
C518 H531 0.961 . S
C518 H532 0.961 . S
C519 C516 1.539 . S
C519 H533 0.958 . S
C519 H534 0.961 . S
C519 H535 0.960 . S
H520 C504 0.931 . S
H521 C509 0.929 . S
H522 C510 0.960 . S
H523 C510 0.962 . S
H524 C510 0.960 . S
H525 C511 0.961 . S
H526 C511 0.961 . S
H527 C511 0.961 . S
H528 C512 0.931 . S
H529 C517 0.930 . S
H530 C518 0.956 . S
H531 C518 0.961 . S
H532 C518 0.961 . S
H533 C519 0.958 . S
H534 C519 0.961 . S
H535 C519 0.960 . S
C536 C537 1.391 . S
C536 C538 1.394 . S
C536 H552 0.931 . S
C537 C536 1.391 . S
C537 C541 1.376 . S
C538 C536 1.394 . S
C538 C539 1.369 . S
C538 C542 1.531 . S
C539 C538 1.369 . S
C539 C540 1.410 . S
C539 C547 1.503 . S
C540 C539 1.410 . S
C540 C541 1.392 . S
C540 C543 1.511 . S
C541 C537 1.376 . S
C541 C540 1.392 . S
C541 H553 0.929 . S
C542 C538 1.531 . S
C542 H554 0.960 . S
C542 H555 0.962 . S
C542 H556 0.960 . S
C543 C540 1.511 . S
C543 H557 0.961 . S
C543 H558 0.961 . S
C543 H559 0.961 . S
C544 C545 1.370 . S
C544 C546 1.363 . S
C544 H560 0.931 . S
C545 C544 1.370 . S
C545 C549 1.408 . S
C546 C544 1.363 . S
C546 C547 1.370 . S
C546 C550 1.524 . S
C547 C539 1.503 . S
C547 C546 1.370 . S
C547 C548 1.403 . S
C548 C547 1.403 . S
C548 C549 1.404 . S
C548 C551 1.539 . S
C549 C545 1.408 . S
C549 C548 1.404 . S
C549 H561 0.930 . S
C550 C546 1.524 . S
C550 H562 0.956 . S
C550 H563 0.961 . S
C550 H564 0.961 . S
C551 C548 1.539 . S
C551 H565 0.958 . S
C551 H566 0.961 . S
C551 H567 0.960 . S
H552 C536 0.931 . S
H553 C541 0.929 . S
H554 C542 0.960 . S
H555 C542 0.962 . S
H556 C542 0.960 . S
H557 C543 0.961 . S
H558 C543 0.961 . S
H559 C543 0.961 . S
H560 C544 0.931 . S
H561 C549 0.930 . S
H562 C550 0.956 . S
H563 C550 0.961 . S
H564 C550 0.961 . S
H565 C551 0.958 . S
H566 C551 0.961 . S
H567 C551 0.960 . S
C568 C569 1.391 . S
C568 C570 1.394 . S
C568 H584 0.931 . S
C569 C568 1.391 . S
C569 C573 1.376 . S
C570 C568 1.394 . S
C570 C571 1.369 . S
C570 C574 1.531 1_455 S
C571 C570 1.369 . S
C571 C572 1.410 . S
C571 C579 1.503 1_455 S
C572 C571 1.410 . S
C572 C573 1.392 . S
C572 C575 1.511 . S
C573 C569 1.376 . S
C573 C572 1.392 . S
C573 H585 0.929 . S
C574 C570 1.531 1_655 S
C574 H586 0.960 . S
C574 H587 0.962 . S
C574 H588 0.960 . S
C575 C572 1.511 . S
C575 H589 0.961 . S
C575 H590 0.961 . S
C575 H591 0.961 . S
C576 C577 1.370 . S
C576 C578 1.363 . S
C576 H592 0.931 . S
C577 C576 1.370 . S
C577 C581 1.408 . S
C578 C576 1.363 . S
C578 C579 1.370 . S
C578 C582 1.524 1_655 S
C579 C571 1.503 1_655 S
C579 C578 1.370 . S
C579 C580 1.403 . S
C580 C579 1.403 . S
C580 C581 1.404 . S
C580 C583 1.539 . S
C581 C577 1.408 . S
C581 C580 1.404 . S
C581 H593 0.930 . S
C582 C578 1.524 1_455 S
C582 H594 0.956 . S
C582 H595 0.961 . S
C582 H596 0.961 . S
C583 C580 1.539 . S
C583 H597 0.958 . S
C583 H598 0.961 . S
C583 H599 0.960 . S
H584 C568 0.931 . S
H585 C573 0.929 . S
H586 C574 0.960 . S
H587 C574 0.962 . S
H588 C574 0.960 . S
H589 C575 0.961 . S
H590 C575 0.961 . S
H591 C575 0.961 . S
H592 C576 0.931 . S
H593 C581 0.930 . S
H594 C582 0.956 . S
H595 C582 0.961 . S
H596 C582 0.961 . S
H597 C583 0.958 . S
H598 C583 0.961 . S
H599 C583 0.960 . S
C600 C601 1.391 . S
C600 C602 1.394 . S
C600 H616 0.931 . S
C601 C600 1.391 . S
C601 C605 1.376 . S
C602 C600 1.394 . S
C602 C603 1.369 . S
C602 C606 1.531 . S
C603 C602 1.369 . S
C603 C604 1.410 . S
C603 C611 1.503 . S
C604 C603 1.410 . S
C604 C605 1.392 . S
C604 C607 1.511 . S
C605 C601 1.376 . S
C605 C604 1.392 . S
C605 H617 0.929 . S
C606 C602 1.531 . S
C606 H618 0.960 . S
C606 H619 0.962 . S
C606 H620 0.960 . S
C607 C604 1.511 . S
C607 H621 0.961 . S
C607 H622 0.961 . S
C607 H623 0.961 . S
C608 C609 1.370 . S
C608 C610 1.363 . S
C608 H624 0.931 . S
C609 C608 1.370 . S
C609 C613 1.408 . S
C610 C608 1.363 . S
C610 C611 1.370 . S
C610 C614 1.524 . S
C611 C603 1.503 . S
C611 C610 1.370 . S
C611 C612 1.403 . S
C612 C611 1.403 . S
C612 C613 1.404 . S
C612 C615 1.539 . S
C613 C609 1.408 . S
C613 C612 1.404 . S
C613 H625 0.930 . S
C614 C610 1.524 . S
C614 H626 0.956 . S
C614 H627 0.961 . S
C614 H628 0.961 . S
C615 C612 1.539 . S
C615 H629 0.958 . S
C615 H630 0.961 . S
C615 H631 0.960 . S
H616 C600 0.931 . S
H617 C605 0.929 . S
H618 C606 0.960 . S
H619 C606 0.962 . S
H620 C606 0.960 . S
H621 C607 0.961 . S
H622 C607 0.961 . S
H623 C607 0.961 . S
H624 C608 0.931 . S
H625 C613 0.930 . S
H626 C614 0.956 . S
H627 C614 0.961 . S
H628 C614 0.961 . S
H629 C615 0.958 . S
H630 C615 0.961 . S
H631 C615 0.960 . S
C632 C633 1.391 1_455 S
C632 C634 1.394 1_455 S
C632 H648 0.931 . S
C633 C632 1.391 1_655 S
C633 C637 1.376 . S
C634 C632 1.394 1_655 S
C634 C635 1.369 . S
C634 C638 1.531 1_655 S
C635 C634 1.369 . S
C635 C636 1.410 . S
C635 C643 1.503 . S
C636 C635 1.410 . S
C636 C637 1.392 . S
C636 C639 1.511 . S
C637 C633 1.376 . S
C637 C636 1.392 . S
C637 H649 0.929 . S
C638 C634 1.531 1_455 S
C638 H650 0.960 . S
C638 H651 0.962 . S
C638 H652 0.960 . S
C639 C636 1.511 . S
C639 H653 0.961 . S
C639 H654 0.961 . S
C639 H655 0.961 . S
C640 C641 1.370 . S
C640 C642 1.363 . S
C640 H656 0.931 . S
C641 C640 1.370 . S
C641 C645 1.408 . S
C642 C640 1.363 . S
C642 C643 1.370 . S
C642 C646 1.524 . S
C643 C635 1.503 . S
C643 C642 1.370 . S
C643 C644 1.403 . S
C644 C643 1.403 . S
C644 C645 1.404 . S
C644 C647 1.539 . S
C645 C641 1.408 . S
C645 C644 1.404 . S
C645 H657 0.930 . S
C646 C642 1.524 . S
C646 H658 0.956 1_655 S
C646 H659 0.961 . S
C646 H660 0.961 1_655 S
C647 C644 1.539 . S
C647 H661 0.958 . S
C647 H662 0.961 . S
C647 H663 0.960 . S
H648 C632 0.931 . S
H649 C637 0.929 . S
H650 C638 0.960 . S
H651 C638 0.962 . S
H652 C638 0.960 . S
H653 C639 0.961 . S
H654 C639 0.961 . S
H655 C639 0.961 . S
H656 C640 0.931 . S
H657 C645 0.930 . S
H658 C646 0.956 1_455 S
H659 C646 0.961 . S
H660 C646 0.961 1_455 S
H661 C647 0.958 . S
H662 C647 0.961 . S
H663 C647 0.960 . S
C664 C665 1.391 . S
C664 C666 1.394 . S
C664 H680 0.931 . S
C665 C664 1.391 . S
C665 C669 1.376 . S
C666 C664 1.394 . S
C666 C667 1.369 . S
C666 C670 1.531 1_455 S
C667 C666 1.369 . S
C667 C668 1.410 . S
C667 C675 1.503 1_455 S
C668 C667 1.410 . S
C668 C669 1.392 . S
C668 C671 1.511 1_556 S
C669 C665 1.376 . S
C669 C668 1.392 . S
C669 H681 0.929 . S
C670 C666 1.531 1_655 S
C670 H682 0.960 . S
C670 H683 0.962 . S
C670 H684 0.960 . S
C671 C668 1.511 1_554 S
C671 H685 0.961 . S
C671 H686 0.961 . S
C671 H687 0.961 . S
C672 C673 1.349 1_556 S
C672 C674 1.391 . S
C672 H688 0.928 1_556 S
C673 C672 1.349 1_554 S
C673 C677 1.408 . S
C674 C672 1.391 . S
C674 C675 1.370 . S
C674 C678 1.524 . S
C675 C667 1.503 1_655 S
C675 C674 1.370 . S
C675 C676 1.403 . S
C676 C675 1.403 . S
C676 C677 1.404 1_556 S
C676 C679 1.539 . S
C677 C673 1.408 . S
C677 C676 1.404 1_554 S
C677 H689 0.930 . S
C678 C674 1.524 . S
C678 H690 0.956 . S
C678 H691 0.936 1_655 S
C678 H692 0.961 . S
C679 C676 1.539 . S
C679 H693 0.958 . S
C679 H694 0.961 1_556 S
C679 H695 0.960 1_655 S
H680 C664 0.931 . S
H681 C669 0.929 . S
H682 C670 0.960 . S
H683 C670 0.962 . S
H684 C670 0.960 . S
H685 C671 0.961 . S
H686 C671 0.961 . S
H687 C671 0.961 . S
H688 C672 0.928 1_554 S
H689 C677 0.930 . S
H690 C678 0.956 . S
H691 C678 0.936 1_455 S
H692 C678 0.961 . S
H693 C679 0.958 . S
H694 C679 0.961 1_554 S
H695 C679 0.960 1_455 S
C696 C697 1.391 . S
C696 C698 1.394 . S
C696 H712 0.931 . S
C697 C696 1.391 . S
C697 C701 1.376 . S
C698 C696 1.394 . S
C698 C699 1.369 . S
C698 C702 1.531 . S
C699 C698 1.369 . S
C699 C700 1.410 . S
C699 C707 1.503 . S
C700 C699 1.410 . S
C700 C701 1.392 . S
C700 C703 1.511 . S
C701 C697 1.376 . S
C701 C700 1.392 . S
C701 H713 0.929 . S
C702 C698 1.531 . S
C702 H714 0.960 . S
C702 H715 0.962 . S
C702 H716 0.960 . S
C703 C700 1.511 . S
C703 H717 0.961 . S
C703 H718 0.961 . S
C703 H719 0.961 . S
C704 C705 1.370 . S
C704 C706 1.363 . S
C704 H720 0.931 . S
C705 C704 1.370 . S
C705 C709 1.408 . S
C706 C704 1.363 . S
C706 C707 1.370 . S
C706 C710 1.524 . S
C707 C699 1.503 . S
C707 C706 1.370 . S
C707 C708 1.403 . S
C708 C707 1.403 . S
C708 C709 1.404 . S
C708 C711 1.539 . S
C709 C705 1.408 . S
C709 C708 1.404 . S
C709 H721 0.930 . S
C710 C706 1.524 . S
C710 H722 0.956 . S
C710 H723 0.961 . S
C710 H724 0.961 . S
C711 C708 1.539 . S
C711 H725 0.958 . S
C711 H726 0.961 . S
C711 H727 0.960 . S
H712 C696 0.931 . S
H713 C701 0.929 . S
H714 C702 0.960 . S
H715 C702 0.962 . S
H716 C702 0.960 . S
H717 C703 0.961 . S
H718 C703 0.961 . S
H719 C703 0.961 . S
H720 C704 0.931 . S
H721 C709 0.930 . S
H722 C710 0.956 . S
H723 C710 0.961 . S
H724 C710 0.961 . S
H725 C711 0.958 . S
H726 C711 0.961 . S
H727 C711 0.960 . S
C728 C729 1.391 . S
C728 C730 1.394 . S
C728 H744 0.931 . S
C729 C728 1.391 . S
C729 C733 1.376 . S
C730 C728 1.394 . S
C730 C731 1.369 . S
C730 C734 1.531 . S
C731 C730 1.369 . S
C731 C732 1.410 . S
C731 C739 1.503 . S
C732 C731 1.410 . S
C732 C733 1.392 . S
C732 C735 1.511 . S
C733 C729 1.376 . S
C733 C732 1.392 . S
C733 H745 0.929 . S
C734 C730 1.531 . S
C734 H746 0.960 . S
C734 H747 0.962 . S
C734 H748 0.960 1_565 S
C735 C732 1.511 . S
C735 H749 0.961 . S
C735 H750 0.961 . S
C735 H751 0.961 . S
C736 C737 1.370 . S
C736 C738 1.363 . S
C736 H752 0.931 . S
C737 C736 1.370 . S
C737 C741 1.408 . S
C738 C736 1.363 . S
C738 C739 1.370 . S
C738 C742 1.524 . S
C739 C731 1.503 . S
C739 C738 1.370 . S
C739 C740 1.403 . S
C740 C739 1.403 . S
C740 C741 1.404 . S
C740 C743 1.539 . S
C741 C737 1.408 . S
C741 C740 1.404 . S
C741 H753 0.930 . S
C742 C738 1.524 . S
C742 H754 0.956 . S
C742 H755 0.961 . S
C742 H756 0.961 . S
C743 C740 1.539 . S
C743 H757 0.958 . S
C743 H758 0.961 . S
C743 H759 0.960 . S
H744 C728 0.931 . S
H745 C733 0.929 . S
H746 C734 0.960 . S
H747 C734 0.962 . S
H748 C734 0.960 1_545 S
H749 C735 0.961 . S
H750 C735 0.961 . S
H751 C735 0.961 . S
H752 C736 0.931 . S
H753 C741 0.930 . S
H754 C742 0.956 . S
H755 C742 0.961 . S
H756 C742 0.961 . S
H757 C743 0.958 . S
H758 C743 0.961 . S
H759 C743 0.960 . S
C760 C761 1.391 . S
C760 C762 1.394 . S
C760 H776 0.931 . S
C761 C760 1.391 . S
C761 C765 1.376 . S
C762 C760 1.394 . S
C762 C763 1.369 . S
C762 C766 1.531 . S
C763 C762 1.369 . S
C763 C764 1.410 . S
C763 C771 1.503 . S
C764 C763 1.410 . S
C764 C765 1.392 . S
C764 C767 1.511 . S
C765 C761 1.376 . S
C765 C764 1.392 . S
C765 H777 0.929 . S
C766 C762 1.531 . S
C766 H778 0.960 . S
C766 H779 0.962 . S
C766 H780 0.960 . S
C767 C764 1.511 . S
C767 H781 0.961 . S
C767 H782 0.961 . S
C767 H783 0.961 . S
C768 C769 1.370 . S
C768 C770 1.363 . S
C768 H784 0.931 . S
C769 C768 1.370 . S
C769 C773 1.408 . S
C770 C768 1.363 . S
C770 C771 1.370 . S
C770 C774 1.524 . S
C771 C763 1.503 . S
C771 C770 1.370 . S
C771 C772 1.403 . S
C772 C771 1.403 . S
C772 C773 1.404 . S
C772 C775 1.539 . S
C773 C769 1.408 . S
C773 C772 1.404 . S
C773 H785 0.930 . S
C774 C770 1.524 . S
C774 H786 0.956 . S
C774 H787 0.961 . S
C774 H788 0.961 . S
C775 C772 1.539 . S
C775 H789 0.958 . S
C775 H790 0.961 . S
C775 H791 0.960 . S
H776 C760 0.931 . S
H777 C765 0.929 . S
H778 C766 0.960 . S
H779 C766 0.962 . S
H780 C766 0.960 . S
H781 C767 0.961 . S
H782 C767 0.961 . S
H783 C767 0.961 . S
H784 C768 0.931 . S
H785 C773 0.930 . S
H786 C774 0.956 . S
H787 C774 0.961 . S
H788 C774 0.961 . S
H789 C775 0.958 . S
H790 C775 0.961 . S
H791 C775 0.960 . S
C792 C793 1.391 . S
C792 C794 1.394 . S
C792 H808 0.931 . S
C793 C792 1.391 . S
C793 C797 1.376 . S
C794 C792 1.394 . S
C794 C795 1.369 . S
C794 C798 1.531 . S
C795 C794 1.369 . S
C795 C796 1.410 . S
C795 C803 1.503 . S
C796 C795 1.410 . S
C796 C797 1.392 . S
C796 C799 1.511 . S
C797 C793 1.376 . S
C797 C796 1.392 . S
C797 H809 0.929 . S
C798 C794 1.531 . S
C798 H810 0.960 . S
C798 H811 0.962 . S
C798 H812 0.960 . S
C799 C796 1.511 . S
C799 H813 0.961 . S
C799 H814 0.961 . S
C799 H815 0.961 . S
C800 C801 1.370 . S
C800 C802 1.363 . S
C800 H816 0.931 . S
C801 C800 1.370 . S
C801 C805 1.408 . S
C802 C800 1.363 . S
C802 C803 1.370 . S
C802 C806 1.524 . S
C803 C795 1.503 . S
C803 C802 1.370 . S
C803 C804 1.403 . S
C804 C803 1.403 . S
C804 C805 1.404 . S
C804 C807 1.539 . S
C805 C801 1.408 . S
C805 C804 1.404 . S
C805 H817 0.930 . S
C806 C802 1.524 . S
C806 H818 0.956 . S
C806 H819 0.961 . S
C806 H820 0.961 . S
C807 C804 1.539 . S
C807 H821 0.958 . S
C807 H822 0.961 . S
C807 H823 0.960 . S
H808 C792 0.931 . S
H809 C797 0.929 . S
H810 C798 0.960 . S
H811 C798 0.962 . S
H812 C798 0.960 . S
H813 C799 0.961 . S
H814 C799 0.961 . S
H815 C799 0.961 . S
H816 C800 0.931 . S
H817 C805 0.930 . S
H818 C806 0.956 . S
H819 C806 0.961 . S
H820 C806 0.961 . S
H821 C807 0.958 . S
H822 C807 0.961 . S
H823 C807 0.960 . S
C824 C825 1.391 . S
C824 C826 1.394 . S
C824 H840 0.931 . S
C825 C824 1.391 . S
C825 C829 1.376 . S
C826 C824 1.394 . S
C826 C827 1.369 . S
C826 C830 1.531 . S
C827 C826 1.369 . S
C827 C828 1.410 . S
C827 C835 1.503 . S
C828 C827 1.410 . S
C828 C829 1.392 . S
C828 C831 1.511 . S
C829 C825 1.376 . S
C829 C828 1.392 . S
C829 H841 0.929 . S
C830 C826 1.531 . S
C830 H842 0.960 . S
C830 H843 0.962 . S
C830 H844 0.960 . S
C831 C828 1.511 . S
C831 H845 0.961 . S
C831 H846 0.961 . S
C831 H847 0.961 . S
C832 C833 1.370 . S
C832 C834 1.371 . S
C832 H848 0.931 . S
C833 C832 1.370 . S
C833 C837 1.408 1_565 S
C834 C832 1.371 . S
C834 C835 1.357 1_565 S
C834 C838 1.530 . S
C835 C827 1.503 . S
C835 C834 1.357 1_545 S
C835 C836 1.403 . S
C836 C835 1.403 . S
C836 C837 1.404 . S
C836 C839 1.539 . S
C837 C833 1.408 1_545 S
C837 C836 1.404 . S
C837 H849 0.930 . S
C838 C834 1.530 . S
C838 H850 0.956 . S
C838 H851 0.961 . S
C838 H852 0.961 . S
C839 C836 1.539 . S
C839 H853 0.958 . S
C839 H854 0.961 . S
C839 H855 0.960 . S
H840 C824 0.931 . S
H841 C829 0.929 . S
H842 C830 0.960 . S
H843 C830 0.962 . S
H844 C830 0.960 . S
H845 C831 0.961 . S
H846 C831 0.961 . S
H847 C831 0.961 . S
H848 C832 0.931 . S
H849 C837 0.930 . S
H850 C838 0.956 . S
H851 C838 0.961 . S
H852 C838 0.961 . S
H853 C839 0.958 . S
H854 C839 0.961 . S
H855 C839 0.960 . S
C856 C857 1.391 . S
C856 C858 1.394 . S
C856 H872 0.931 . S
C857 C856 1.391 . S
C857 C861 1.376 . S
C858 C856 1.394 . S
C858 C859 1.369 . S
C858 C862 1.531 . S
C859 C858 1.369 . S
C859 C860 1.410 . S
C859 C867 1.503 . S
C860 C859 1.410 . S
C860 C861 1.392 . S
C860 C863 1.511 . S
C861 C857 1.376 . S
C861 C860 1.392 . S
C861 H873 0.929 . S
C862 C858 1.531 . S
C862 H874 0.960 . S
C862 H875 0.962 . S
C862 H876 0.960 . S
C863 C860 1.511 . S
C863 H877 0.961 . S
C863 H878 0.961 . S
C863 H879 0.961 . S
C864 C865 1.370 . S
C864 C866 1.363 . S
C864 H880 0.931 . S
C865 C864 1.370 . S
C865 C869 1.408 . S
C866 C864 1.363 . S
C866 C867 1.370 . S
C866 C870 1.524 . S
C867 C859 1.503 . S
C867 C866 1.370 . S
C867 C868 1.403 . S
C868 C867 1.403 . S
C868 C869 1.404 . S
C868 C871 1.539 . S
C869 C865 1.408 . S
C869 C868 1.404 . S
C869 H881 0.930 . S
C870 C866 1.524 . S
C870 H882 0.956 . S
C870 H883 0.961 . S
C870 H884 0.961 . S
C871 C868 1.539 . S
C871 H885 0.958 . S
C871 H886 0.961 . S
C871 H887 0.960 . S
H872 C856 0.931 . S
H873 C861 0.929 . S
H874 C862 0.960 . S
H875 C862 0.962 . S
H876 C862 0.960 . S
H877 C863 0.961 . S
H878 C863 0.961 . S
H879 C863 0.961 . S
H880 C864 0.931 . S
H881 C869 0.930 . S
H882 C870 0.956 . S
H883 C870 0.961 . S
H884 C870 0.961 . S
H885 C871 0.958 . S
H886 C871 0.961 . S
H887 C871 0.960 . S
C888 C889 1.391 . S
C888 C890 1.394 . S
C888 H904 0.931 . S
C889 C888 1.391 . S
C889 C893 1.376 . S
C890 C888 1.394 . S
C890 C891 1.369 . S
C890 C894 1.531 . S
C891 C890 1.369 . S
C891 C892 1.410 . S
C891 C899 1.503 . S
C892 C891 1.410 . S
C892 C893 1.392 . S
C892 C895 1.511 . S
C893 C889 1.376 . S
C893 C892 1.392 . S
C893 H905 0.929 . S
C894 C890 1.531 . S
C894 H906 0.960 . S
C894 H907 0.962 . S
C894 H908 0.960 . S
C895 C892 1.511 . S
C895 H909 0.961 . S
C895 H910 0.961 . S
C895 H911 0.961 . S
C896 C897 1.370 . S
C896 C898 1.363 . S
C896 H912 0.931 . S
C897 C896 1.370 . S
C897 C901 1.408 . S
C898 C896 1.363 . S
C898 C899 1.370 . S
C898 C902 1.524 . S
C899 C891 1.503 . S
C899 C898 1.370 . S
C899 C900 1.403 . S
C900 C899 1.403 . S
C900 C901 1.404 . S
C900 C903 1.539 . S
C901 C897 1.408 . S
C901 C900 1.404 . S
C901 H913 0.930 . S
C902 C898 1.524 . S
C902 H914 0.956 . S
C902 H915 0.961 . S
C902 H916 0.961 . S
C903 C900 1.539 . S
C903 H917 0.958 . S
C903 H918 0.961 . S
C903 H919 0.960 . S
H904 C888 0.931 . S
H905 C893 0.929 . S
H906 C894 0.960 . S
H907 C894 0.962 . S
H908 C894 0.960 . S
H909 C895 0.961 . S
H910 C895 0.961 . S
H911 C895 0.961 . S
H912 C896 0.931 . S
H913 C901 0.930 . S
H914 C902 0.956 . S
H915 C902 0.961 . S
H916 C902 0.961 . S
H917 C903 0.958 . S
H918 C903 0.961 . S
H919 C903 0.960 . S
C920 C921 1.391 . S
C920 C922 1.394 . S
C920 H936 0.931 . S
C921 C920 1.391 . S
C921 C925 1.376 . S
C922 C920 1.394 . S
C922 C923 1.369 . S
C922 C926 1.531 1_545 S
C923 C922 1.369 . S
C923 C924 1.410 . S
C923 C931 1.503 . S
C924 C923 1.410 . S
C924 C925 1.392 . S
C924 C927 1.511 . S
C925 C921 1.376 . S
C925 C924 1.392 . S
C925 H937 0.929 . S
C926 C922 1.531 1_565 S
C926 H938 0.960 . S
C926 H939 0.962 . S
C926 H940 0.960 . S
C927 C924 1.511 . S
C927 H941 0.961 . S
C927 H942 0.961 . S
C927 H943 0.961 . S
C928 C929 1.370 . S
C928 C930 1.363 1_565 S
C928 H944 0.931 . S
C929 C928 1.370 . S
C929 C933 1.408 . S
C930 C928 1.363 1_545 S
C930 C931 1.370 . S
C930 C934 1.524 . S
C931 C923 1.503 . S
C931 C930 1.370 . S
C931 C932 1.403 . S
C932 C931 1.403 . S
C932 C933 1.404 1_545 S
C932 C935 1.539 . S
C933 C929 1.408 . S
C933 C932 1.404 1_565 S
C933 H945 0.930 . S
C934 C930 1.524 . S
C934 H946 0.956 . S
C934 H947 0.961 . S
C934 H948 0.961 . S
C935 C932 1.539 . S
C935 H949 0.958 1_545 S
C935 H950 0.961 . S
C935 H951 0.960 . S
H936 C920 0.931 . S
H937 C925 0.929 . S
H938 C926 0.960 . S
H939 C926 0.962 . S
H940 C926 0.960 . S
H941 C927 0.961 . S
H942 C927 0.961 . S
H943 C927 0.961 . S
H944 C928 0.931 . S
H945 C933 0.930 . S
H946 C934 0.956 . S
H947 C934 0.961 . S
H948 C934 0.961 . S
H949 C935 0.958 1_565 S
H950 C935 0.961 . S
H951 C935 0.960 . S
C952 C953 1.391 . S
C952 C954 1.394 . S
C952 H968 0.931 . S
C953 C952 1.391 . S
C953 C957 1.376 . S
C954 C952 1.394 . S
C954 C955 1.369 . S
C954 C958 1.531 . S
C955 C954 1.369 . S
C955 C956 1.410 . S
C955 C963 1.503 . S
C956 C955 1.410 . S
C956 C957 1.392 . S
C956 C959 1.511 . S
C957 C953 1.376 . S
C957 C956 1.392 . S
C957 H969 0.929 . S
C958 C954 1.531 . S
C958 H970 0.960 . S
C958 H971 0.962 . S
C958 H972 0.960 . S
C959 C956 1.511 . S
C959 H973 0.961 . S
C959 H974 0.961 . S
C959 H975 0.961 . S
C960 C961 1.370 . S
C960 C962 1.363 . S
C960 H976 0.931 . S
C961 C960 1.370 . S
C961 C965 1.408 . S
C962 C960 1.363 . S
C962 C963 1.370 . S
C962 C966 1.524 . S
C963 C955 1.503 . S
C963 C962 1.370 . S
C963 C964 1.403 . S
C964 C963 1.403 . S
C964 C965 1.404 . S
C964 C967 1.539 . S
C965 C961 1.408 . S
C965 C964 1.404 . S
C965 H977 0.930 . S
C966 C962 1.524 . S
C966 H978 0.956 . S
C966 H979 0.961 . S
C966 H980 0.961 . S
C967 C964 1.539 . S
C967 H981 0.958 1_565 S
C967 H982 0.961 . S
C967 H983 0.960 . S
H968 C952 0.931 . S
H969 C957 0.929 . S
H970 C958 0.960 . S
H971 C958 0.962 . S
H972 C958 0.960 . S
H973 C959 0.961 . S
H974 C959 0.961 . S
H975 C959 0.961 . S
H976 C960 0.931 . S
H977 C965 0.930 . S
H978 C966 0.956 . S
H979 C966 0.961 . S
H980 C966 0.961 . S
H981 C967 0.958 1_545 S
H982 C967 0.961 . S
H983 C967 0.960 . S
C984 C985 1.391 . S
C984 C986 1.394 . S
C984 H1000 0.931 . S
C985 C984 1.391 . S
C985 C989 1.376 . S
C986 C984 1.394 . S
C986 C987 1.369 . S
C986 C990 1.531 . S
C987 C986 1.369 . S
C987 C988 1.410 . S
C987 C995 1.503 . S
C988 C987 1.410 . S
C988 C989 1.392 . S
C988 C991 1.511 . S
C989 C985 1.376 . S
C989 C988 1.392 . S
C989 H1001 0.929 . S
C990 C986 1.531 . S
C990 H1002 0.960 . S
C990 H1003 0.962 . S
C990 H1004 0.960 . S
C991 C988 1.511 . S
C991 H1005 0.961 . S
C991 H1006 0.961 . S
C991 H1007 0.961 . S
C992 C993 1.370 . S
C992 C994 1.363 . S
C992 H1008 0.931 . S
C993 C992 1.370 . S
C993 C997 1.408 . S
C994 C992 1.363 . S
C994 C995 1.370 . S
C994 C998 1.524 . S
C995 C987 1.503 . S
C995 C994 1.370 . S
C995 C996 1.403 . S
C996 C995 1.403 . S
C996 C997 1.404 . S
C996 C999 1.539 . S
C997 C993 1.408 . S
C997 C996 1.404 . S
C997 H1009 0.930 . S
C998 C994 1.524 . S
C998 H1010 0.956 . S
C998 H1011 0.961 . S
C998 H1012 0.961 . S
C999 C996 1.539 . S
C999 H1013 0.958 . S
C999 H1014 0.961 . S
C999 H1015 0.960 . S
H1000 C984 0.931 . S
H1001 C989 0.929 . S
H1002 C990 0.960 . S
H1003 C990 0.962 . S
H1004 C990 0.960 . S
H1005 C991 0.961 . S
H1006 C991 0.961 . S
H1007 C991 0.961 . S
H1008 C992 0.931 . S
H1009 C997 0.930 . S
H1010 C998 0.956 . S
H1011 C998 0.961 . S
H1012 C998 0.961 . S
H1013 C999 0.958 . S
H1014 C999 0.961 . S
H1015 C999 0.960 . S
C1016 C1017 1.391 . S
C1016 C1018 1.394 . S
C1016 H1032 0.931 . S
C1017 C1016 1.391 . S
C1017 C1021 1.376 . S
C1018 C1016 1.394 . S
C1018 C1019 1.369 . S
C1018 C1022 1.531 . S
C1019 C1018 1.369 . S
C1019 C1020 1.410 . S
C1019 C1027 1.503 . S
C1020 C1019 1.410 . S
C1020 C1021 1.392 . S
C1020 C1023 1.511 . S
C1021 C1017 1.376 . S
C1021 C1020 1.392 . S
C1021 H1033 0.929 . S
C1022 C1018 1.531 . S
C1022 H1034 0.960 . S
C1022 H1035 0.962 . S
C1022 H1036 0.960 . S
C1023 C1020 1.511 . S
C1023 H1037 0.961 . S
C1023 H1038 0.961 . S
C1023 H1039 0.961 . S
C1024 C1025 1.370 . S
C1024 C1026 1.363 . S
C1024 H1040 0.931 . S
C1025 C1024 1.370 . S
C1025 C1029 1.408 . S
C1026 C1024 1.363 . S
C1026 C1027 1.370 . S
C1026 C1030 1.524 . S
C1027 C1019 1.503 . S
C1027 C1026 1.370 . S
C1027 C1028 1.403 . S
C1028 C1027 1.403 . S
C1028 C1029 1.404 . S
C1028 C1031 1.539 . S
C1029 C1025 1.408 . S
C1029 C1028 1.404 . S
C1029 H1041 0.930 . S
C1030 C1026 1.524 . S
C1030 H1042 0.956 . S
C1030 H1043 0.961 . S
C1030 H1044 0.961 . S
C1031 C1028 1.539 . S
C1031 H1045 0.958 . S
C1031 H1046 0.961 . S
C1031 H1047 0.960 . S
H1032 C1016 0.931 . S
H1033 C1021 0.929 . S
H1034 C1022 0.960 . S
H1035 C1022 0.962 . S
H1036 C1022 0.960 . S
H1037 C1023 0.961 . S
H1038 C1023 0.961 . S
H1039 C1023 0.961 . S
H1040 C1024 0.931 . S
H1041 C1029 0.930 . S
H1042 C1030 0.956 . S
H1043 C1030 0.961 . S
H1044 C1030 0.961 . S
H1045 C1031 0.958 . S
H1046 C1031 0.961 . S
H1047 C1031 0.960 . S
C1048 C1049 1.391 . S
C1048 C1050 1.394 . S
C1048 H1064 0.931 . S
C1049 C1048 1.391 . S
C1049 C1053 1.376 . S
C1050 C1048 1.394 . S
C1050 C1051 1.369 . S
C1050 C1054 1.531 . S
C1051 C1050 1.369 . S
C1051 C1052 1.410 . S
C1051 C1059 1.503 . S
C1052 C1051 1.410 . S
C1052 C1053 1.392 . S
C1052 C1055 1.511 . S
C1053 C1049 1.376 . S
C1053 C1052 1.392 . S
C1053 H1065 0.929 . S
C1054 C1050 1.531 . S
C1054 H1066 0.960 . S
C1054 H1067 0.962 . S
C1054 H1068 0.960 . S
C1055 C1052 1.511 . S
C1055 H1069 0.961 . S
C1055 H1070 0.961 . S
C1055 H1071 0.961 . S
C1056 C1057 1.370 . S
C1056 C1058 1.363 . S
C1056 H1072 0.931 . S
C1057 C1056 1.370 . S
C1057 C1061 1.408 . S
C1058 C1056 1.363 . S
C1058 C1059 1.370 . S
C1058 C1062 1.524 . S
C1059 C1051 1.503 . S
C1059 C1058 1.370 . S
C1059 C1060 1.403 . S
C1060 C1059 1.403 . S
C1060 C1061 1.404 . S
C1060 C1063 1.539 . S
C1061 C1057 1.408 . S
C1061 C1060 1.404 . S
C1061 H1073 0.930 . S
C1062 C1058 1.524 . S
C1062 H1074 0.956 . S
C1062 H1075 0.961 . S
C1062 H1076 0.961 . S
C1063 C1060 1.539 . S
C1063 H1077 0.958 . S
C1063 H1078 0.961 . S
C1063 H1079 0.960 . S
H1064 C1048 0.931 . S
H1065 C1053 0.929 . S
H1066 C1054 0.960 . S
H1067 C1054 0.962 . S
H1068 C1054 0.960 . S
H1069 C1055 0.961 . S
H1070 C1055 0.961 . S
H1071 C1055 0.961 . S
H1072 C1056 0.931 . S
H1073 C1061 0.930 . S
H1074 C1062 0.956 . S
H1075 C1062 0.961 . S
H1076 C1062 0.961 . S
H1077 C1063 0.958 . S
H1078 C1063 0.961 . S
H1079 C1063 0.960 . S
C1080 C1081 1.391 . S
C1080 C1082 1.394 . S
C1080 H1096 0.931 . S
C1081 C1080 1.391 . S
C1081 C1085 1.376 . S
C1082 C1080 1.394 . S
C1082 C1083 1.369 . S
C1082 C1086 1.531 . S
C1083 C1082 1.369 . S
C1083 C1084 1.410 . S
C1083 C1091 1.503 . S
C1084 C1083 1.410 . S
C1084 C1085 1.392 . S
C1084 C1087 1.511 . S
C1085 C1081 1.376 . S
C1085 C1084 1.392 . S
C1085 H1097 0.929 . S
C1086 C1082 1.531 . S
C1086 H1098 0.960 1_455 S
C1086 H1099 0.962 . S
C1086 H1100 0.960 1_455 S
C1087 C1084 1.511 . S
C1087 H1101 0.961 . S
C1087 H1102 0.961 . S
C1087 H1103 0.961 . S
C1088 C1089 1.370 1_455 S
C1088 C1090 1.363 . S
C1088 H1104 0.931 . S
C1089 C1088 1.370 1_655 S
C1089 C1093 1.408 . S
C1090 C1088 1.363 . S
C1090 C1091 1.370 . S
C1090 C1094 1.524 . S
C1091 C1083 1.503 . S
C1091 C1090 1.370 . S
C1091 C1092 1.403 . S
C1092 C1091 1.403 . S
C1092 C1093 1.404 1_455 S
C1092 C1095 1.537 1_455 S
C1093 C1089 1.408 . S
C1093 C1092 1.404 1_655 S
C1093 H1105 0.930 . S
C1094 C1090 1.524 . S
C1094 H1106 0.956 . S
C1094 H1107 0.961 . S
C1094 H1108 0.961 . S
C1095 C1092 1.537 1_655 S
C1095 H1109 0.976 . S
C1095 H1110 0.968 . S
C1095 H1111 0.938 1_655 S
H1096 C1080 0.931 . S
H1097 C1085 0.929 . S
H1098 C1086 0.960 1_655 S
H1099 C1086 0.962 . S
H1100 C1086 0.960 1_655 S
H1101 C1087 0.961 . S
H1102 C1087 0.961 . S
H1103 C1087 0.961 . S
H1104 C1088 0.931 . S
H1105 C1093 0.930 . S
H1106 C1094 0.956 . S
H1107 C1094 0.961 . S
H1108 C1094 0.961 . S
H1109 C1095 0.976 . S
H1110 C1095 0.968 . S
H1111 C1095 0.938 1_455 S
C1112 C1113 1.391 . S
C1112 C1114 1.394 . S
C1112 H1128 0.931 . S
C1113 C1112 1.391 . S
C1113 C1117 1.376 . S
C1114 C1112 1.394 . S
C1114 C1115 1.369 . S
C1114 C1118 1.531 . S
C1115 C1114 1.369 . S
C1115 C1116 1.410 . S
C1115 C1123 1.503 . S
C1116 C1115 1.410 . S
C1116 C1117 1.392 . S
C1116 C1119 1.511 . S
C1117 C1113 1.376 . S
C1117 C1116 1.392 . S
C1117 H1129 0.929 . S
C1118 C1114 1.531 . S
C1118 H1130 0.960 . S
C1118 H1131 0.962 . S
C1118 H1132 0.960 . S
C1119 C1116 1.511 . S
C1119 H1133 0.961 . S
C1119 H1134 0.961 . S
C1119 H1135 0.961 . S
C1120 C1121 1.370 . S
C1120 C1122 1.363 . S
C1120 H1136 0.931 . S
C1121 C1120 1.370 . S
C1121 C1125 1.408 . S
C1122 C1120 1.363 . S
C1122 C1123 1.370 . S
C1122 C1126 1.524 . S
C1123 C1115 1.503 . S
C1123 C1122 1.370 . S
C1123 C1124 1.403 . S
C1124 C1123 1.403 . S
C1124 C1125 1.404 . S
C1124 C1127 1.539 . S
C1125 C1121 1.408 . S
C1125 C1124 1.404 . S
C1125 H1137 0.930 . S
C1126 C1122 1.524 . S
C1126 H1138 0.956 . S
C1126 H1139 0.961 . S
C1126 H1140 0.961 . S
C1127 C1124 1.539 . S
C1127 H1141 0.958 . S
C1127 H1142 0.961 . S
C1127 H1143 0.960 . S
H1128 C1112 0.931 . S
H1129 C1117 0.929 . S
H1130 C1118 0.960 . S
H1131 C1118 0.962 . S
H1132 C1118 0.960 . S
H1133 C1119 0.961 . S
H1134 C1119 0.961 . S
H1135 C1119 0.961 . S
H1136 C1120 0.931 . S
H1137 C1125 0.930 . S
H1138 C1126 0.956 . S
H1139 C1126 0.961 . S
H1140 C1126 0.961 . S
H1141 C1127 0.958 . S
H1142 C1127 0.961 . S
H1143 C1127 0.960 . S
C1144 C1145 1.391 . S
C1144 C1146 1.394 . S
C1144 H1160 0.931 . S
C1145 C1144 1.391 . S
C1145 C1149 1.376 . S
C1146 C1144 1.394 . S
C1146 C1147 1.369 . S
C1146 C1150 1.531 . S
C1147 C1146 1.369 . S
C1147 C1148 1.410 . S
C1147 C1155 1.503 . S
C1148 C1147 1.410 . S
C1148 C1149 1.392 . S
C1148 C1151 1.511 . S
C1149 C1145 1.376 . S
C1149 C1148 1.392 . S
C1149 H1161 0.929 . S
C1150 C1146 1.531 . S
C1150 H1162 0.960 . S
C1150 H1163 0.962 . S
C1150 H1164 0.960 . S
C1151 C1148 1.511 . S
C1151 H1165 0.961 . S
C1151 H1166 0.961 . S
C1151 H1167 0.961 . S
C1152 C1153 1.370 . S
C1152 C1154 1.363 . S
C1152 H1168 0.931 . S
C1153 C1152 1.370 . S
C1153 C1157 1.408 . S
C1154 C1152 1.363 . S
C1154 C1155 1.370 . S
C1154 C1158 1.524 . S
C1155 C1147 1.503 . S
C1155 C1154 1.370 . S
C1155 C1156 1.403 . S
C1156 C1155 1.403 . S
C1156 C1157 1.404 . S
C1156 C1159 1.539 . S
C1157 C1153 1.408 . S
C1157 C1156 1.404 . S
C1157 H1169 0.930 . S
C1158 C1154 1.524 . S
C1158 H1170 0.956 . S
C1158 H1171 0.961 . S
C1158 H1172 0.961 . S
C1159 C1156 1.539 . S
C1159 H1173 0.958 . S
C1159 H1174 0.961 . S
C1159 H1175 0.960 . S
H1160 C1144 0.931 . S
H1161 C1149 0.929 . S
H1162 C1150 0.960 . S
H1163 C1150 0.962 . S
H1164 C1150 0.960 . S
H1165 C1151 0.961 . S
H1166 C1151 0.961 . S
H1167 C1151 0.961 . S
H1168 C1152 0.931 . S
H1169 C1157 0.930 . S
H1170 C1158 0.956 . S
H1171 C1158 0.961 . S
H1172 C1158 0.961 . S
H1173 C1159 0.958 . S
H1174 C1159 0.961 . S
H1175 C1159 0.960 . S
C1176 C1177 1.391 . S
C1176 C1178 1.394 . S
C1176 H1192 0.931 . S
C1177 C1176 1.391 . S
C1177 C1181 1.376 . S
C1178 C1176 1.394 . S
C1178 C1179 1.369 . S
C1178 C1182 1.531 . S
C1179 C1178 1.369 . S
C1179 C1180 1.410 . S
C1179 C1187 1.503 . S
C1180 C1179 1.410 . S
C1180 C1181 1.392 . S
C1180 C1183 1.511 1_455 S
C1181 C1177 1.376 . S
C1181 C1180 1.392 . S
C1181 H1193 0.929 . S
C1182 C1178 1.531 . S
C1182 H1194 0.960 . S
C1182 H1195 0.962 . S
C1182 H1196 0.960 . S
C1183 C1180 1.511 1_655 S
C1183 H1197 0.961 . S
C1183 H1198 0.961 . S
C1183 H1199 0.961 . S
C1184 C1185 1.361 1_455 S
C1184 C1186 1.363 . S
C1184 H1200 0.931 . S
C1185 C1184 1.361 1_655 S
C1185 C1189 1.408 1_655 S
C1186 C1184 1.363 . S
C1186 C1187 1.370 . S
C1186 C1190 1.524 . S
C1187 C1179 1.503 . S
C1187 C1186 1.370 . S
C1187 C1188 1.403 . S
C1188 C1187 1.403 . S
C1188 C1189 1.404 . S
C1188 C1191 1.539 . S
C1189 C1185 1.408 1_455 S
C1189 C1188 1.404 . S
C1189 H1201 0.930 1_455 S
C1190 C1186 1.524 . S
C1190 H1202 0.956 . S
C1190 H1203 0.961 . S
C1190 H1204 0.961 . S
C1191 C1188 1.539 . S
C1191 H1205 0.958 . S
C1191 H1206 0.961 1_455 S
C1191 H1207 0.960 . S
H1192 C1176 0.931 . S
H1193 C1181 0.929 . S
H1194 C1182 0.960 . S
H1195 C1182 0.962 . S
H1196 C1182 0.960 . S
H1197 C1183 0.961 . S
H1198 C1183 0.961 . S
H1199 C1183 0.961 . S
H1200 C1184 0.931 . S
H1201 C1189 0.930 1_655 S
H1202 C1190 0.956 . S
H1203 C1190 0.961 . S
H1204 C1190 0.961 . S
H1205 C1191 0.958 . S
H1206 C1191 0.961 1_655 S
H1207 C1191 0.960 . S
C1208 C1209 1.391 . S
C1208 C1210 1.394 . S
C1208 H1224 0.931 . S
C1209 C1208 1.391 . S
C1209 C1213 1.376 . S
C1210 C1208 1.394 . S
C1210 C1211 1.369 . S
C1210 C1214 1.531 . S
C1211 C1210 1.369 . S
C1211 C1212 1.410 . S
C1211 C1219 1.503 . S
C1212 C1211 1.410 . S
C1212 C1213 1.392 . S
C1212 C1215 1.511 . S
C1213 C1209 1.376 . S
C1213 C1212 1.392 . S
C1213 H1225 0.929 . S
C1214 C1210 1.531 . S
C1214 H1226 0.960 . S
C1214 H1227 0.962 . S
C1214 H1228 0.960 . S
C1215 C1212 1.511 . S
C1215 H1229 0.961 . S
C1215 H1230 0.961 . S
C1215 H1231 0.961 . S
C1216 C1217 1.370 . S
C1216 C1218 1.363 . S
C1216 H1232 0.931 . S
C1217 C1216 1.370 . S
C1217 C1221 1.408 . S
C1218 C1216 1.363 . S
C1218 C1219 1.370 . S
C1218 C1222 1.524 . S
C1219 C1211 1.503 . S
C1219 C1218 1.370 . S
C1219 C1220 1.403 . S
C1220 C1219 1.403 . S
C1220 C1221 1.404 . S
C1220 C1223 1.539 . S
C1221 C1217 1.408 . S
C1221 C1220 1.404 . S
C1221 H1233 0.930 . S
C1222 C1218 1.524 . S
C1222 H1234 0.956 . S
C1222 H1235 0.961 . S
C1222 H1236 0.961 . S
C1223 C1220 1.539 . S
C1223 H1237 0.958 . S
C1223 H1238 0.961 . S
C1223 H1239 0.960 . S
H1224 C1208 0.931 . S
H1225 C1213 0.929 . S
H1226 C1214 0.960 . S
H1227 C1214 0.962 . S
H1228 C1214 0.960 . S
H1229 C1215 0.961 . S
H1230 C1215 0.961 . S
H1231 C1215 0.961 . S
H1232 C1216 0.931 . S
H1233 C1221 0.930 . S
H1234 C1222 0.956 . S
H1235 C1222 0.961 . S
H1236 C1222 0.961 . S
H1237 C1223 0.958 . S
H1238 C1223 0.961 . S
H1239 C1223 0.960 . S
C225 C126 1.258 . S
C217 C5 1.249 . S
C257 C140 1.275 . S
C249 C18 1.264 . S
C289 C155 1.240 . S
C281 C31 1.273 . S
C313 C42 1.222 . S
C321 C113 1.226 . S
C345 C57 1.440 . S
C353 C112 1.448 . S
C377 C70 1.405 . S
C385 C127 1.433 . S
C417 C141 1.428 . S
C409 C81 1.477 . S
C449 C154 1.460 . S
C441 C96 1.415 . S
C473 C29 1.438 . S
C481 C182 1.441 . S
C513 C196 1.465 . S
C505 C44 1.401 . S
C537 C3 1.471 . S
C545 C211 1.418 . S
C577 C168 1.462 . S
C569 C16 1.461 . S
C601 C83 1.265 . S
C609 C169 1.244 . S
C633 C94 1.202 . S
C641 C183 1.235 . S
C673 C197 1.264 . S
C665 C55 1.261 . S
C697 C68 1.254 . S
C705 C210 1.303 . S
C737 C135 1.373 . S
C729 C1 1.361 . S
C769 C153 1.351 . S
C761 C14 1.367 . S
C793 C27 1.356 . S
C801 C111 1.325 . S
C825 C49 1.350 . S
C833 C121 1.364 . S
C857 C53 1.619 . S
C865 C149 1.712 . S
C897 C107 1.722 . S
C889 C66 1.599 . S
C929 C125 1.683 . S
C921 C88 1.713 . S
C961 C139 1.685 . S
C953 C92 1.596 . S
C993 C191 1.711 . S
C985 C36 1.685 . S
C1025 C209 1.678 . S
C1017 C40 1.630 . S
C1049 C10 1.715 . S
C1057 C163 1.701 . S
C1089 C177 1.708 . S
C1081 C23 1.712 . S
C1121 C205 1.368 . S
C1113 C79 1.359 . S
C1145 C101 1.376 . S
C1153 C167 1.346 . S
C1185 C181 1.359 . S
C1177 C62 1.379 . S
C1217 C195 1.358 . S
C1209 C75 1.387 . S
