# Generated by pormake.
# Topology ctn, (3,4)-cn, num edge types: 1
# Building blocks:
#     Node 0, Type 0, BuildingBlock: OLANEW_clean_sbu_2, # of connection points: 3
#     Node 1, Type 0, BuildingBlock: OLANEW_clean_sbu_2, # of connection points: 3
#     Node 2, Type 0, BuildingBlock: OLANEW_clean_sbu_2, # of connection points: 3
#     Node 3, Type 0, BuildingBlock: OLANEW_clean_sbu_2, # of connection points: 3
#     Node 4, Type 0, BuildingBlock: OLANEW_clean_sbu_2, # of connection points: 3
#     Node 5, Type 0, BuildingBlock: OLANEW_clean_sbu_2, # of connection points: 3
#     Node 6, Type 0, BuildingBlock: OLANEW_clean_sbu_2, # of connection points: 3
#     Node 7, Type 0, BuildingBlock: OLANEW_clean_sbu_2, # of connection points: 3
#     Node 8, Type 0, BuildingBlock: OLANEW_clean_sbu_2, # of connection points: 3
#     Node 9, Type 0, BuildingBlock: OLANEW_clean_sbu_2, # of connection points: 3
#     Node 10, Type 0, BuildingBlock: OLANEW_clean_sbu_2, # of connection points: 3
#     Node 11, Type 0, BuildingBlock: OLANEW_clean_sbu_2, # of connection points: 3
#     Node 12, Type 0, BuildingBlock: OLANEW_clean_sbu_2, # of connection points: 3
#     Node 13, Type 0, BuildingBlock: OLANEW_clean_sbu_2, # of connection points: 3
#     Node 14, Type 0, BuildingBlock: OLANEW_clean_sbu_2, # of connection points: 3
#     Node 15, Type 0, BuildingBlock: OLANEW_clean_sbu_2, # of connection points: 3
#     Node 16, Type 1, BuildingBlock: QUQFOY_clean_sbu_1, # of connection points: 4
#     Node 17, Type 1, BuildingBlock: QUQFOY_clean_sbu_1, # of connection points: 4
#     Node 18, Type 1, BuildingBlock: QUQFOY_clean_sbu_1, # of connection points: 4
#     Node 19, Type 1, BuildingBlock: QUQFOY_clean_sbu_1, # of connection points: 4
#     Node 20, Type 1, BuildingBlock: QUQFOY_clean_sbu_1, # of connection points: 4
#     Node 21, Type 1, BuildingBlock: QUQFOY_clean_sbu_1, # of connection points: 4
#     Node 22, Type 1, BuildingBlock: QUQFOY_clean_sbu_1, # of connection points: 4
#     Node 23, Type 1, BuildingBlock: QUQFOY_clean_sbu_1, # of connection points: 4
#     Node 24, Type 1, BuildingBlock: QUQFOY_clean_sbu_1, # of connection points: 4
#     Node 25, Type 1, BuildingBlock: QUQFOY_clean_sbu_1, # of connection points: 4
#     Node 26, Type 1, BuildingBlock: QUQFOY_clean_sbu_1, # of connection points: 4
#     Node 27, Type 1, BuildingBlock: QUQFOY_clean_sbu_1, # of connection points: 4
#     Edge 28, Type (0, 1), BuildingBlock: AJUNOK_clean_linker_0, # of connection points: 2
#     Edge 29, Type (0, 1), BuildingBlock: AJUNOK_clean_linker_0, # of connection points: 2
#     Edge 30, Type (0, 1), BuildingBlock: AJUNOK_clean_linker_0, # of connection points: 2
#     Edge 31, Type (0, 1), BuildingBlock: AJUNOK_clean_linker_0, # of connection points: 2
#     Edge 32, Type (0, 1), BuildingBlock: AJUNOK_clean_linker_0, # of connection points: 2
#     Edge 33, Type (0, 1), BuildingBlock: AJUNOK_clean_linker_0, # of connection points: 2
#     Edge 34, Type (0, 1), BuildingBlock: AJUNOK_clean_linker_0, # of connection points: 2
#     Edge 35, Type (0, 1), BuildingBlock: AJUNOK_clean_linker_0, # of connection points: 2
#     Edge 36, Type (0, 1), BuildingBlock: AJUNOK_clean_linker_0, # of connection points: 2
#     Edge 37, Type (0, 1), BuildingBlock: AJUNOK_clean_linker_0, # of connection points: 2
#     Edge 38, Type (0, 1), BuildingBlock: AJUNOK_clean_linker_0, # of connection points: 2
#     Edge 39, Type (0, 1), BuildingBlock: AJUNOK_clean_linker_0, # of connection points: 2
#     Edge 40, Type (0, 1), BuildingBlock: AJUNOK_clean_linker_0, # of connection points: 2
#     Edge 41, Type (0, 1), BuildingBlock: AJUNOK_clean_linker_0, # of connection points: 2
#     Edge 42, Type (0, 1), BuildingBlock: AJUNOK_clean_linker_0, # of connection points: 2
#     Edge 43, Type (0, 1), BuildingBlock: AJUNOK_clean_linker_0, # of connection points: 2
#     Edge 44, Type (0, 1), BuildingBlock: AJUNOK_clean_linker_0, # of connection points: 2
#     Edge 45, Type (0, 1), BuildingBlock: AJUNOK_clean_linker_0, # of connection points: 2
#     Edge 46, Type (0, 1), BuildingBlock: AJUNOK_clean_linker_0, # of connection points: 2
#     Edge 47, Type (0, 1), BuildingBlock: AJUNOK_clean_linker_0, # of connection points: 2
#     Edge 48, Type (0, 1), BuildingBlock: AJUNOK_clean_linker_0, # of connection points: 2
#     Edge 49, Type (0, 1), BuildingBlock: AJUNOK_clean_linker_0, # of connection points: 2
#     Edge 50, Type (0, 1), BuildingBlock: AJUNOK_clean_linker_0, # of connection points: 2
#     Edge 51, Type (0, 1), BuildingBlock: AJUNOK_clean_linker_0, # of connection points: 2
#     Edge 52, Type (0, 1), BuildingBlock: AJUNOK_clean_linker_0, # of connection points: 2
#     Edge 53, Type (0, 1), BuildingBlock: AJUNOK_clean_linker_0, # of connection points: 2
#     Edge 54, Type (0, 1), BuildingBlock: AJUNOK_clean_linker_0, # of connection points: 2
#     Edge 55, Type (0, 1), BuildingBlock: AJUNOK_clean_linker_0, # of connection points: 2
#     Edge 56, Type (0, 1), BuildingBlock: AJUNOK_clean_linker_0, # of connection points: 2
#     Edge 57, Type (0, 1), BuildingBlock: AJUNOK_clean_linker_0, # of connection points: 2
#     Edge 58, Type (0, 1), BuildingBlock: AJUNOK_clean_linker_0, # of connection points: 2
#     Edge 59, Type (0, 1), BuildingBlock: AJUNOK_clean_linker_0, # of connection points: 2
#     Edge 60, Type (0, 1), BuildingBlock: AJUNOK_clean_linker_0, # of connection points: 2
#     Edge 61, Type (0, 1), BuildingBlock: AJUNOK_clean_linker_0, # of connection points: 2
#     Edge 62, Type (0, 1), BuildingBlock: AJUNOK_clean_linker_0, # of connection points: 2
#     Edge 63, Type (0, 1), BuildingBlock: AJUNOK_clean_linker_0, # of connection points: 2
#     Edge 64, Type (0, 1), BuildingBlock: AJUNOK_clean_linker_0, # of connection points: 2
#     Edge 65, Type (0, 1), BuildingBlock: AJUNOK_clean_linker_0, # of connection points: 2
#     Edge 66, Type (0, 1), BuildingBlock: AJUNOK_clean_linker_0, # of connection points: 2
#     Edge 67, Type (0, 1), BuildingBlock: AJUNOK_clean_linker_0, # of connection points: 2
#     Edge 68, Type (0, 1), BuildingBlock: AJUNOK_clean_linker_0, # of connection points: 2
#     Edge 69, Type (0, 1), BuildingBlock: AJUNOK_clean_linker_0, # of connection points: 2
#     Edge 70, Type (0, 1), BuildingBlock: AJUNOK_clean_linker_0, # of connection points: 2
#     Edge 71, Type (0, 1), BuildingBlock: AJUNOK_clean_linker_0, # of connection points: 2
#     Edge 72, Type (0, 1), BuildingBlock: AJUNOK_clean_linker_0, # of connection points: 2
#     Edge 73, Type (0, 1), BuildingBlock: AJUNOK_clean_linker_0, # of connection points: 2
#     Edge 74, Type (0, 1), BuildingBlock: AJUNOK_clean_linker_0, # of connection points: 2
#     Edge 75, Type (0, 1), BuildingBlock: AJUNOK_clean_linker_0, # of connection points: 2
# Relax obj value: 0.087
# Max RMSD: 0.191
# Mean RMSD: 0.123
data_MOF--net-ctn--node1-OLANEW_clean_sbu_2--node2-QUQFOY_clean_sbu_1--edge1-AJUNOK_clean_linker_0
_symmetry_space_group_name_H-M    P1
_symmetry_Int_Tables_number       1
_symmetry_cell_setting            triclinic
loop_
_symmetry_equiv_pos_as_xyz
'x, y, z'
_cell_length_a     43.588978
_cell_length_b     44.805627
_cell_length_c     42.105349
_cell_angle_alpha  94.427885
_cell_angle_beta   95.389129
_cell_angle_gamma 101.04256
loop_
_atom_site_label
_atom_site_type_symbol
_atom_site_fract_x
_atom_site_fract_y
_atom_site_fract_z
_atom_type_partial_charge
O0 O 0.03961 0.09062 0.04546 0.0
Cd1 Cd 0.04413 0.05046 0.08158 0.0
O2 O 0.06143 0.12922 0.08103 0.0
Cd3 Cd 0.06016 0.09999 0.12004 0.0
O4 O 0.03625 0.0794 0.15865 0.0
C5 C 0.01691 0.09337 0.17125 0.0
O6 O 0.01306 0.1195 0.16098 0.0
C7 C 0.04925 0.11923 0.05267 0.0
C8 C 0.08751 0.01366 0.06798 0.0
O9 O 0.05975 0.0082 0.05297 0.0
O10 O 0.09504 0.03688 0.08896 0.0
O11 O 0.35657 0.79325 0.2892 0.0
Cd12 Cd 0.30868 0.77949 0.2512 0.0
O13 O 0.36203 0.74542 0.28893 0.0
Cd14 Cd 0.3182 0.72536 0.25954 0.0
O15 O 0.27532 0.69076 0.25655 0.0
C16 C 0.27526 0.67175 0.27746 0.0
O17 O 0.30051 0.67429 0.29794 0.0
C18 C 0.37191 0.77349 0.29866 0.0
C19 C 0.30303 0.82041 0.205 0.0
O20 O 0.29032 0.82267 0.23109 0.0
O21 O 0.31882 0.79927 0.20118 0.0
O22 O 0.91571 0.53094 0.17205 0.0
Cd23 Cd 0.86247 0.52006 0.14505 0.0
O24 O 0.92215 0.48562 0.15404 0.0
Cd25 Cd 0.94979 0.45084 0.14417 0.0
O26 O 0.97242 0.41845 0.1186 0.0
C27 C 0.95918 0.39045 0.113 0.0
O28 O 0.93227 0.38103 0.12432 0.0
C29 C 0.93316 0.51135 0.16992 0.0
C30 C 0.85288 0.56321 0.10267 0.0
O31 O 0.8479 0.56693 0.13209 0.0
O32 O 0.86271 0.53912 0.09342 0.0
O33 O 0.77802 0.83515 0.23726 0.0
Cd34 Cd 0.74534 0.78369 0.2302 0.0
O35 O 0.75776 0.834 0.28246 0.0
Cd36 Cd 0.74423 0.84751 0.32917 0.0
O37 O 0.71216 0.84637 0.36576 0.0
C38 C 0.69775 0.8682 0.36972 0.0
O39 O 0.70451 0.89182 0.35314 0.0
C40 C 0.77581 0.84859 0.26438 0.0
C41 C 0.73456 0.75471 0.1681 0.0
O42 O 0.71583 0.77114 0.17836 0.0
O43 O 0.75875 0.75274 0.18704 0.0
O44 O 0.17658 0.94935 0.51357 0.0
Cd45 Cd 0.15668 0.89591 0.52023 0.0
O46 O 0.12942 0.9582 0.51767 0.0
Cd47 Cd 0.09135 0.98352 0.51963 0.0
O48 O 0.0512 0.99585 0.49269 0.0
C49 C 0.04476 0.98142 0.46495 0.0
O50 O 0.06133 0.96096 0.45698 0.0
C51 C 0.15796 0.96797 0.51329 0.0
C52 C 0.10536 0.88808 0.55577 0.0
O53 O 0.13347 0.89099 0.56942 0.0
O54 O 0.10164 0.88907 0.52534 0.0
O55 O 0.28652 0.77664 0.88516 0.0
Cd56 Cd 0.29485 0.74652 0.8367 0.0
O57 O 0.23921 0.77183 0.86058 0.0
Cd58 Cd 0.19021 0.77655 0.85265 0.0
O59 O 0.14369 0.77893 0.83047 0.0
C60 C 0.14107 0.79759 0.80961 0.0
O61 O 0.16658 0.81581 0.80298 0.0
C62 C 0.25926 0.78295 0.8845 0.0
C63 C 0.3238 0.69676 0.84481 0.0
O64 O 0.33995 0.72288 0.84037 0.0
O65 O 0.29425 0.69452 0.84649 0.0
O66 O 0.95279 0.5676 0.40691 0.0
Cd67 Cd 0.91029 0.58799 0.42852 0.0
O68 O 0.97833 0.59408 0.45007 0.0
Cd69 Cd 0.01612 0.61609 0.48658 0.0
O70 O 0.01172 0.64643 0.52814 0.0
C71 C 0.98406 0.65153 0.52885 0.0
O72 O 0.96217 0.63808 0.50586 0.0
C73 C 0.97864 0.57752 0.42432 0.0
C74 C 0.87293 0.54614 0.46108 0.0
O75 O 0.86597 0.54876 0.4313 0.0
O76 O 0.89793 0.56343 0.47567 0.0
O77 O 0.75907 0.78345 0.83513 0.0
Cd78 Cd 0.76743 0.82709 0.8032 0.0
O79 O 0.70959 0.78486 0.84012 0.0
Cd80 Cd 0.70634 0.82519 0.81498 0.0
O81 O 0.68675 0.86606 0.80849 0.0
C82 C 0.67783 0.87813 0.83343 0.0
O83 O 0.68176 0.86589 0.86053 0.0
C84 C 0.73328 0.77262 0.84576 0.0
C85 C 0.81667 0.82422 0.76587 0.0
O86 O 0.822 0.8356 0.79519 0.0
O87 O 0.788 0.81435 0.75404 0.0
O88 O 0.27285 0.28028 0.35101 0.0
Cd89 Cd 0.2764 0.31779 0.31135 0.0
O90 O 0.2224 0.27911 0.35287 0.0
Cd91 Cd 0.21724 0.3132 0.31951 0.0
O92 O 0.19911 0.35379 0.30826 0.0
C93 C 0.19381 0.3696 0.33277 0.0
O94 O 0.20023 0.36059 0.36119 0.0
C95 C 0.24734 0.27013 0.36248 0.0
C96 C 0.3255 0.31488 0.27391 0.0
O97 O 0.33034 0.33019 0.30151 0.0
O98 O 0.29732 0.30103 0.26382 0.0
O99 O 0.40159 0.02155 0.70672 0.0
Cd100 Cd 0.34863 0.0254 0.68616 0.0
O101 O 0.40702 0.00121 0.65901 0.0
Cd102 Cd 0.43464 0.9803 0.62659 0.0
O103 O 0.45811 0.9534 0.59524 0.0
C104 C 0.45971 0.92629 0.60102 0.0
O105 O 0.44769 0.91558 0.6263 0.0
C106 C 0.41842 0.01052 0.68771 0.0
C107 C 0.34882 0.06751 0.64054 0.0
O108 O 0.34733 0.07552 0.67016 0.0
O109 O 0.35043 0.03969 0.63266 0.0
O110 O 0.26677 0.34716 0.75552 0.0
Cd111 Cd 0.23341 0.29634 0.7536 0.0
O112 O 0.24327 0.36407 0.79512 0.0
Cd113 Cd 0.21109 0.32187 0.80101 0.0
O114 O 0.1757 0.30733 0.83275 0.0
C115 C 0.176 0.32746 0.85582 0.0
O116 O 0.19745 0.35275 0.85832 0.0
C117 C 0.2636 0.36888 0.77543 0.0
C118 C 0.22777 0.26278 0.69393 0.0
O119 O 0.20809 0.27965 0.70045 0.0
O120 O 0.25021 0.26202 0.71565 0.0
O121 O 0.84574 0.28381 0.80133 0.0
Cd122 Cd 0.79702 0.27561 0.7647 0.0
O123 O 0.85237 0.23693 0.78947 0.0
Cd124 Cd 0.80793 0.22136 0.75949 0.0
O125 O 0.76426 0.18789 0.75709 0.0
C126 C 0.76321 0.17098 0.78 0.0
O127 O 0.78768 0.17523 0.8018 0.0
C128 C 0.86179 0.26313 0.80488 0.0
C129 C 0.79757 0.31514 0.71639 0.0
O130 O 0.78603 0.32099 0.74253 0.0
O131 O 0.80909 0.29094 0.71342 0.0
O132 O 0.58528 0.63799 0.54426 0.0
Cd133 Cd 0.60469 0.60457 0.58226 0.0
O134 O 0.54507 0.64174 0.57122 0.0
Cd135 Cd 0.55201 0.61027 0.60684 0.0
O136 O 0.53507 0.58692 0.64725 0.0
C137 C 0.5167 0.5993 0.66325 0.0
O138 O 0.5102 0.62533 0.65514 0.0
C139 C 0.56104 0.64921 0.54829 0.0
C140 C 0.62317 0.55134 0.55818 0.0
O141 O 0.64017 0.57787 0.55711 0.0
O142 O 0.59685 0.5497 0.56985 0.0
O143 O 0.65988 0.44087 0.99042 0.0
Cd144 Cd 0.64054 0.3876 0.99875 0.0
O145 O 0.61682 0.45311 0.00548 0.0
Cd146 Cd 0.58362 0.48244 0.01607 0.0
O147 O 0.54352 0.49831 0.99344 0.0
C148 C 0.53068 0.48079 0.96868 0.0
O149 O 0.54128 0.45575 0.9619 0.0
C150 C 0.64334 0.46093 0.99495 0.0
C151 C 0.59395 0.37865 0.04028 0.0
O152 O 0.62317 0.38281 0.05075 0.0
O153 O 0.58684 0.37943 0.01014 0.0
O154 O 0.77523 0.25648 0.40495 0.0
Cd155 Cd 0.78339 0.22625 0.35638 0.0
O156 O 0.73344 0.26116 0.3746 0.0
Cd157 Cd 0.68921 0.27491 0.36054 0.0
O158 O 0.64557 0.27956 0.33381 0.0
C159 C 0.64583 0.29728 0.31165 0.0
O160 O 0.67278 0.31384 0.3062 0.0
C161 C 0.75052 0.26759 0.40135 0.0
C162 C 0.81095 0.17547 0.36379 0.0
O163 O 0.82765 0.20138 0.35946 0.0
O164 O 0.78149 0.17387 0.36551 0.0
O165 O 0.43682 0.10224 0.90592 0.0
Cd166 Cd 0.39828 0.11874 0.93827 0.0
O167 O 0.46342 0.09949 0.95157 0.0
Cd168 Cd 0.50165 0.09874 0.9886 0.0
O169 O 0.50179 0.1266 0.03343 0.0
C170 C 0.47437 0.13044 0.03823 0.0
O171 O 0.45042 0.11557 0.01826 0.0
C172 C 0.46169 0.09749 0.92119 0.0
C173 C 0.36344 0.07114 0.96648 0.0
O174 O 0.35381 0.07862 0.93907 0.0
O175 O 0.38979 0.08621 0.98059 0.0
O176 O 0.26571 0.87639 0.0093 0.0
Cd177 Cd 0.27506 0.90994 0.0473 0.0
Cd178 Cd 0.22357 0.92557 0.01493 0.0
O179 O 0.22029 0.88447 0.98764 0.0
O180 O 0.30554 0.89466 0.07709 0.0
O181 O 0.2588 0.90037 0.08951 0.0
C182 C 0.28485 0.8916 0.09715 0.0
C183 C 0.18018 0.94275 0.03293 0.0
C184 C 0.24203 0.86914 0.9882 0.0
C185 C 0.28641 0.96867 0.01754 0.0
O186 O 0.2581 0.96045 0.0049 0.0
O187 O 0.29766 0.95284 0.03778 0.0
O188 O 0.18389 0.9401 0.00291 0.0
O189 O 0.20017 0.93374 0.05277 0.0
O190 O 0.16501 0.56549 0.31802 0.0
Cd191 Cd 0.13072 0.52936 0.32793 0.0
Cd192 Cd 0.09521 0.55842 0.28778 0.0
O193 O 0.1381 0.58013 0.27726 0.0
O194 O 0.15486 0.50278 0.3511 0.0
O195 O 0.12803 0.48828 0.30345 0.0
C196 C 0.14614 0.48222 0.32716 0.0
C197 C 0.05429 0.54353 0.24641 0.0
C198 C 0.16383 0.58185 0.2947 0.0
C199 C 0.08074 0.55703 0.35523 0.0
O200 O 0.08023 0.57149 0.33054 0.0
O201 O 0.09673 0.53625 0.35749 0.0
O202 O 0.06519 0.57181 0.2563 0.0
O203 O 0.06755 0.52333 0.25939 0.0
O204 O 0.70866 0.67621 0.95378 0.0
Cd205 Cd 0.70516 0.6537 0.99438 0.0
Cd206 Cd 0.75594 0.633 0.97195 0.0
O207 O 0.75363 0.66609 0.94026 0.0
O208 O 0.68481 0.67705 0.02619 0.0
O209 O 0.73447 0.67233 0.03292 0.0
C210 C 0.7117 0.68324 0.04355 0.0
C211 C 0.79866 0.62928 0.0077 0.0
C212 C 0.73077 0.67982 0.93587 0.0
C213 C 0.69732 0.5865 0.97775 0.0
O214 O 0.72362 0.59242 0.96651 0.0
O215 O 0.68576 0.60763 0.99099 0.0
O216 O 0.79774 0.62049 0.9776 0.0
O217 O 0.77703 0.64311 0.0164 0.0
O218 O 0.94701 0.00328 0.34466 0.0
Cd219 Cd 0.91719 0.01021 0.30617 0.0
Cd220 Cd 0.88316 0.02053 0.35555 0.0
O221 O 0.92197 0.01577 0.38515 0.0
O222 O 0.94393 0.00752 0.27065 0.0
O223 O 0.92686 0.04929 0.28485 0.0
C224 C 0.94318 0.03556 0.26668 0.0
C225 C 0.86382 0.06546 0.36005 0.0
C226 C 0.94557 0.00716 0.37465 0.0
C227 C 0.8554 0.96725 0.30713 0.0
O228 O 0.85365 0.98086 0.33434 0.0
O229 O 0.87801 0.97658 0.2911 0.0
O230 O 0.8575 0.04483 0.37954 0.0
O231 O 0.88164 0.06066 0.33808 0.0
O232 O 0.22498 0.18521 0.48205 0.0
Cd233 Cd 0.21931 0.16193 0.52209 0.0
Cd234 Cd 0.27032 0.14184 0.5014 0.0
O235 O 0.27036 0.17526 0.46988 0.0
O236 O 0.19487 0.18383 0.55088 0.0
O237 O 0.24447 0.18082 0.56332 0.0
C238 C 0.21995 0.1906 0.57103 0.0
C239 C 0.30968 0.13662 0.54034 0.0
C240 C 0.24767 0.18912 0.4649 0.0
C241 C 0.21149 0.09509 0.50302 0.0
O242 O 0.23811 0.10141 0.49255 0.0
O243 O 0.19988 0.11576 0.51704 0.0
O244 O 0.3115 0.129 0.51044 0.0
O245 O 0.28758 0.15066 0.54726 0.0
O246 O 0.44803 0.50906 0.84268 0.0
Cd247 Cd 0.42241 0.51593 0.80137 0.0
Cd248 Cd 0.38784 0.53758 0.84445 0.0
O249 O 0.42205 0.52946 0.87823 0.0
O250 O 0.45065 0.51199 0.7675 0.0
O251 O 0.43385 0.55445 0.77989 0.0
C252 C 0.45048 0.54001 0.76274 0.0
C253 C 0.37359 0.5852 0.84671 0.0
C254 C 0.44444 0.51643 0.87164 0.0
C255 C 0.35665 0.48166 0.79969 0.0
O256 O 0.35457 0.50041 0.82327 0.0
O257 O 0.3819 0.48426 0.78644 0.0
O258 O 0.36375 0.56531 0.86593 0.0
O259 O 0.39204 0.57812 0.8263 0.0
O260 O 0.75711 0.36692 0.52056 0.0
Cd261 Cd 0.77064 0.4022 0.55659 0.0
Cd262 Cd 0.72086 0.42036 0.51828 0.0
O263 O 0.71369 0.37658 0.49554 0.0
O264 O 0.80146 0.38517 0.58423 0.0
O265 O 0.75792 0.39544 0.60097 0.0
C266 C 0.783 0.38442 0.60637 0.0
C267 C 0.68166 0.44845 0.52668 0.0
C268 C 0.73367 0.35943 0.4992 0.0
C269 C 0.78816 0.4563 0.52101 0.0
O270 O 0.76014 0.44903 0.50755 0.0
O271 O 0.79705 0.44225 0.54419 0.0
O272 O 0.68805 0.44085 0.4983 0.0
O273 O 0.69522 0.43736 0.55036 0.0
O274 O 0.64961 0.07242 0.82602 0.0
Cd275 Cd 0.61453 0.03761 0.8364 0.0
Cd276 Cd 0.5841 0.05436 0.78644 0.0
O277 O 0.62837 0.07405 0.77691 0.0
O278 O 0.63513 0.00872 0.86006 0.0
O279 O 0.61078 0.99722 0.81078 0.0
C280 C 0.62721 0.98946 0.83483 0.0
C281 C 0.54499 0.03076 0.74624 0.0
C282 C 0.65147 0.0821 0.79851 0.0
C283 C 0.56157 0.06678 0.84987 0.0
O284 O 0.56436 0.07537 0.82209 0.0
O285 O 0.57797 0.04828 0.86029 0.0
O286 O 0.55674 0.05952 0.74777 0.0
O287 O 0.55723 0.01463 0.76617 0.0
O288 O 0.9824 0.28573 0.00595 0.0
Cd289 Cd 0.99045 0.2564 0.9685 0.0
Cd290 Cd 0.02143 0.30716 0.94997 0.0
O291 O 0.01683 0.32531 0.99512 0.0
O292 O 0.98091 0.21427 0.98206 0.0
O293 O 0.0289 0.23781 0.97489 0.0
C294 C 0.01052 0.21407 0.98293 0.0
C295 C 0.07018 0.31298 0.93084 0.0
C296 C 0.99753 0.31299 0.01336 0.0
C297 C 0.96365 0.2775 0.90805 0.0
O298 O 0.98355 0.30225 0.91567 0.0
O299 O 0.96417 0.25495 0.92456 0.0
O300 O 0.05599 0.3356 0.93407 0.0
O301 O 0.05694 0.28696 0.93941 0.0
O302 O 0.49652 0.82204 0.50134 0.0
Cd303 Cd 0.5044 0.79087 0.46543 0.0
Cd304 Cd 0.53011 0.84295 0.44173 0.0
O305 O 0.51984 0.86425 0.48295 0.0
O306 O 0.49323 0.75085 0.48343 0.0
O307 O 0.54104 0.76929 0.47184 0.0
C308 C 0.52198 0.74783 0.48288 0.0
C309 C 0.58128 0.85161 0.42852 0.0
C310 C 0.50502 0.85099 0.50415 0.0
C311 C 0.47494 0.80448 0.40153 0.0
O312 O 0.49435 0.82982 0.40509 0.0
O313 O 0.47598 0.78532 0.4222 0.0
O314 O 0.56381 0.87159 0.42486 0.0
O315 O 0.5696 0.82668 0.44035 0.0
O316 O 0.93952 0.79224 0.70592 0.0
Cd317 Cd 0.97972 0.78097 0.68962 0.0
Cd318 Cd 0.9579 0.8079 0.63885 0.0
O319 O 0.92422 0.8179 0.66669 0.0
O320 O 0.00103 0.76616 0.72748 0.0
O321 O 0.02195 0.8074 0.70556 0.0
C322 C 0.02415 0.78884 0.72725 0.0
C323 C 0.99794 0.84295 0.62204 0.0
C324 C 0.92063 0.80776 0.69373 0.0
C325 C 0.96397 0.74407 0.6246 0.0
O326 O 0.95124 0.76533 0.61468 0.0
O327 O 0.97771 0.7467 0.65296 0.0
O328 O 0.96965 0.83823 0.60771 0.0
O329 O 0.00267 0.82935 0.64752 0.0
O330 O 0.44674 0.28647 0.20759 0.0
Cd331 Cd 0.48556 0.27503 0.18866 0.0
Cd332 Cd 0.45704 0.29627 0.13743 0.0
O333 O 0.42555 0.30751 0.16753 0.0
O334 O 0.50895 0.26257 0.22653 0.0
O335 O 0.5281 0.30233 0.20152 0.0
C336 C 0.53156 0.2852 0.22432 0.0
C337 C 0.49485 0.3306 0.11637 0.0
C338 C 0.42579 0.30007 0.19606 0.0
C339 C 0.4648 0.23236 0.12781 0.0
O340 O 0.4502 0.25208 0.1171 0.0
O341 O 0.48148 0.23797 0.1548 0.0
O342 O 0.46597 0.32434 0.10345 0.0
O343 O 0.50155 0.31875 0.14255 0.0
C344 C 0.26404 0.80144 0.94256 0.0
C345 C 0.2516 0.80314 0.91088 0.0
C346 C 0.25941 0.82191 0.96774 0.0
C347 C 0.24207 0.84485 0.96222 0.0
H348 H 0.27797 0.78446 0.94788 0.0
H349 H 0.27016 0.82021 0.99162 0.0
S350 S 0.20623 0.86024 0.88323 0.0
N351 N 0.22269 0.8307 0.8751 0.0
N352 N 0.21281 0.86831 0.92249 0.0
C353 C 0.22893 0.8464 0.93071 0.0
C354 C 0.23404 0.82581 0.905 0.0
C355 C 0.01005 0.5423 0.40082 0.0
C356 C 0.00813 0.57189 0.41306 0.0
C357 C 0.03544 0.53725 0.38445 0.0
C358 C 0.05904 0.56181 0.37893 0.0
H359 H 0.99121 0.52313 0.40287 0.0
H360 H 0.03541 0.51434 0.37409 0.0
S361 S 0.06557 0.6433 0.40742 0.0
N362 N 0.03292 0.6257 0.42042 0.0
N363 N 0.07992 0.61636 0.38828 0.0
C364 C 0.05803 0.59128 0.39213 0.0
C365 C 0.03272 0.59629 0.40961 0.0
C366 C 0.75824 0.73494 0.87508 0.0
C367 C 0.73136 0.74693 0.86641 0.0
C368 C 0.75767 0.71256 0.89673 0.0
C369 C 0.73018 0.70134 0.91073 0.0
H370 H 0.78024 0.74339 0.86568 0.0
H371 H 0.77918 0.70471 0.90323 0.0
S372 S 0.65248 0.72291 0.89382 0.0
N373 N 0.67577 0.74412 0.87198 0.0
N374 N 0.6747 0.70231 0.91248 0.0
C375 C 0.70281 0.71225 0.90131 0.0
C376 C 0.70334 0.73493 0.87924 0.0
C377 C 0.99713 0.00387 0.45198 0.0
C378 C 0.01988 0.98804 0.44161 0.0
C379 C 0.97319 0.00998 0.43024 0.0
C380 C 0.97131 0.00082 0.39724 0.0
H381 H 0.99757 0.01133 0.47714 0.0
H382 H 0.9561 0.02206 0.43942 0.0
S383 S 0.0259 0.95944 0.35769 0.0
N384 N 0.03942 0.96386 0.39603 0.0
N385 N 0.99475 0.97537 0.35528 0.0
C386 C 0.99421 0.98527 0.38655 0.0
C387 C 0.01838 0.97886 0.40869 0.0
C388 C 0.24886 0.22915 0.65484 0.0
C389 C 0.22486 0.24462 0.66235 0.0
C390 C 0.24698 0.21182 0.62532 0.0
C391 C 0.22092 0.20903 0.60209 0.0
H392 H 0.26945 0.23047 0.67183 0.0
H393 H 0.26616 0.20043 0.62081 0.0
S394 S 0.15158 0.24494 0.60973 0.0
N395 N 0.17409 0.256 0.64397 0.0
N396 N 0.17051 0.22331 0.58857 0.0
C397 C 0.19665 0.22428 0.60925 0.0
C398 C 0.19865 0.24211 0.63931 0.0
C399 C 0.48065 0.59825 0.70625 0.0
C400 C 0.50137 0.58413 0.68947 0.0
C401 C 0.46464 0.58401 0.73011 0.0
C402 C 0.46856 0.55499 0.73814 0.0
H403 H 0.47643 0.62044 0.70076 0.0
H404 H 0.44873 0.59576 0.74203 0.0
S405 S 0.5213 0.50872 0.70258 0.0
N406 N 0.5258 0.5398 0.68349 0.0
N407 N 0.49571 0.51303 0.72821 0.0
C408 C 0.48966 0.5408 0.722 0.0
C409 C 0.50605 0.55535 0.69774 0.0
C410 C 0.77378 0.35358 0.68747 0.0
C411 C 0.79631 0.3349 0.68978 0.0
C412 C 0.77018 0.37023 0.6609 0.0
C413 C 0.78928 0.36921 0.63581 0.0
H414 H 0.75804 0.35455 0.70579 0.0
H415 H 0.75186 0.38351 0.65975 0.0
S416 S 0.85383 0.32593 0.63188 0.0
N417 N 0.8393 0.31787 0.66572 0.0
N418 N 0.83297 0.34931 0.61614 0.0
C419 C 0.81284 0.35163 0.63858 0.0
C420 C 0.81622 0.33443 0.66542 0.0
C421 C 0.45878 0.99785 0.72747 0.0
C422 C 0.45136 0.01007 0.69867 0.0
C423 C 0.49008 0.00166 0.74105 0.0
C424 C 0.51472 0.01864 0.7267 0.0
H425 H 0.44019 0.98635 0.74021 0.0
H426 H 0.49467 0.99348 0.76424 0.0
S427 S 0.50765 0.05332 0.64994 0.0
N428 N 0.47113 0.03766 0.65496 0.0
N429 N 0.5299 0.04578 0.68108 0.0
C430 C 0.5077 0.02951 0.69703 0.0
C431 C 0.47595 0.02501 0.68285 0.0
C432 C 0.89979 0.24251 0.84091 0.0
C433 C 0.88964 0.26803 0.82924 0.0
C434 C 0.92394 0.24588 0.86605 0.0
C435 C 0.93935 0.27493 0.88032 0.0
H436 H 0.88835 0.21954 0.83125 0.0
H437 H 0.93039 0.22545 0.87452 0.0
S438 S 0.92314 0.3493 0.85742 0.0
N439 N 0.89777 0.32348 0.83307 0.0
N440 N 0.94359 0.3299 0.88009 0.0
C441 C 0.93023 0.30076 0.86822 0.0
C442 C 0.90527 0.29729 0.84279 0.0
C443 C 0.48757 0.91947 0.5526 0.0
C444 C 0.47326 0.90672 0.57837 0.0
C445 C 0.49864 0.9014 0.52943 0.0
C446 C 0.49573 0.86971 0.53087 0.0
H447 H 0.48984 0.94362 0.54988 0.0
H448 H 0.50879 0.91238 0.50975 0.0
S449 S 0.46232 0.82529 0.59485 0.0
N450 N 0.45847 0.8606 0.60504 0.0
N451 N 0.47918 0.82658 0.56135 0.0
C452 C 0.48244 0.85675 0.55709 0.0
C453 C 0.47126 0.87524 0.58086 0.0
C454 C 0.13182 0.29486 0.87886 0.0
C455 C 0.1512 0.32369 0.87781 0.0
C456 C 0.10657 0.29124 0.8975 0.0
C457 C 0.09951 0.31642 0.91534 0.0
H458 H 0.13578 0.27499 0.86471 0.0
H459 H 0.0917 0.26881 0.8968 0.0
S460 S 0.14434 0.3963 0.92299 0.0
N461 N 0.16273 0.37752 0.89815 0.0
N462 N 0.11504 0.37068 0.93266 0.0
C463 C 0.11934 0.34512 0.9155 0.0
C464 C 0.14527 0.34877 0.89689 0.0
C465 C 0.52041 0.67673 0.52651 0.0
C466 C 0.55153 0.67217 0.52778 0.0
C467 C 0.51108 0.70053 0.51098 0.0
C468 C 0.53248 0.72116 0.49619 0.0
H469 H 0.50308 0.66211 0.53825 0.0
H470 H 0.48694 0.70321 0.51147 0.0
S471 S 0.61642 0.71822 0.49073 0.0
N472 N 0.60352 0.68932 0.51131 0.0
N473 N 0.58602 0.7344 0.4822 0.0
C474 C 0.56347 0.71627 0.49614 0.0
C475 C 0.57297 0.6917 0.51185 0.0
C476 C 0.87247 0.81961 0.76241 0.0
C477 C 0.84302 0.82148 0.74675 0.0
C478 C 0.89743 0.81536 0.74502 0.0
C479 C 0.89416 0.81353 0.71133 0.0
H480 H 0.87608 0.82068 0.78831 0.0
H481 H 0.91949 0.81352 0.75813 0.0
S482 S 0.82232 0.81835 0.65886 0.0
N483 N 0.81218 0.82177 0.69559 0.0
N484 N 0.8594 0.81457 0.66293 0.0
C485 C 0.86511 0.81615 0.69537 0.0
C486 C 0.83946 0.81987 0.71307 0.0
C487 C 0.08178 0.87128 0.60492 0.0
C488 C 0.07793 0.88148 0.5743 0.0
C489 C 0.0558 0.8607 0.62113 0.0
C490 C 0.0249 0.86001 0.60745 0.0
H491 H 0.10494 0.87005 0.6159 0.0
H492 H 0.06001 0.85166 0.64392 0.0
S493 S 0.00247 0.88923 0.53017 0.0
N494 N 0.04114 0.89385 0.53264 0.0
N495 N 0.99228 0.87409 0.5631 0.0
C496 C 0.02088 0.87232 0.5779 0.0
C497 C 0.04738 0.88298 0.56131 0.0
C498 C 0.10864 0.81483 0.76495 0.0
C499 C 0.11028 0.79689 0.79087 0.0
C500 C 0.08049 0.81274 0.74509 0.0
C501 C 0.05285 0.79258 0.75026 0.0
H502 H 0.12943 0.83013 0.75939 0.0
H503 H 0.08069 0.82646 0.72499 0.0
S504 S 0.04363 0.74278 0.81672 0.0
N505 N 0.08104 0.7599 0.82199 0.0
N506 N 0.02827 0.75594 0.78466 0.0
C507 C 0.05381 0.77537 0.77682 0.0
C508 C 0.08246 0.77755 0.79711 0.0
C509 C 0.99747 0.68174 0.58255 0.0
C510 C 0.97687 0.67321 0.55415 0.0
C511 C 0.99214 0.70351 0.60603 0.0
C512 C 0.96628 0.71797 0.60177 0.0
H513 H 0.01814 0.67183 0.58654 0.0
H514 H 0.00917 0.70995 0.62706 0.0
S515 S 0.90416 0.70244 0.53271 0.0
N516 N 0.9285 0.67975 0.52397 0.0
N517 N 0.91889 0.72101 0.56788 0.0
C518 C 0.94496 0.70899 0.57398 0.0
C519 C 0.95014 0.68652 0.55025 0.0
C520 C 0.8014 0.89024 0.3073 0.0
C521 C 0.7941 0.87996 0.27452 0.0
C522 C 0.82 0.91912 0.31753 0.0
C523 C 0.83275 0.93861 0.29542 0.0
H524 H 0.79395 0.87551 0.3254 0.0
H525 H 0.8256 0.9256 0.34305 0.0
S526 S 0.81972 0.92351 0.20683 0.0
N527 N 0.79997 0.89245 0.21988 0.0
N528 N 0.83583 0.94631 0.23922 0.0
C529 C 0.82537 0.92892 0.26256 0.0
C530 C 0.80595 0.8997 0.2521 0.0
C531 C 0.85241 0.14641 0.35022 0.0
C532 C 0.82496 0.14785 0.36493 0.0
C533 C 0.86483 0.11972 0.34877 0.0
C534 C 0.85065 0.09363 0.36254 0.0
H535 H 0.86398 0.16578 0.33895 0.0
H536 H 0.88572 0.11957 0.33676 0.0
S537 S 0.77911 0.08604 0.40515 0.0
N538 N 0.7844 0.1211 0.39423 0.0
N539 N 0.80801 0.07121 0.3921 0.0
C540 C 0.82362 0.09503 0.37803 0.0
C541 C 0.8107 0.12204 0.37906 0.0
C542 C 0.31348 0.03349 0.96746 0.0
C543 C 0.34441 0.04583 0.98117 0.0
C544 C 0.29491 0.00915 0.97997 0.0
C545 C 0.30646 0.99581 0.00664 0.0
H546 H 0.30341 0.04258 0.94672 0.0
H547 H 0.27139 0.00043 0.96809 0.0
S548 S 0.38571 0.02029 0.05218 0.0
N549 N 0.38564 0.0435 0.02357 0.0
N550 N 0.35072 0.99744 0.047 0.0
C551 C 0.33724 0.0082 0.02099 0.0
C552 C 0.35617 0.03326 0.00829 0.0
C553 C 0.18213 0.41787 0.35769 0.0
C554 C 0.18106 0.39783 0.33002 0.0
C555 C 0.17057 0.44483 0.35637 0.0
C556 C 0.15709 0.45286 0.32737 0.0
H557 H 0.19229 0.41294 0.3807 0.0
H558 H 0.17222 0.45949 0.37842 0.0
S559 S 0.14789 0.40801 0.24797 0.0
N560 N 0.16506 0.38769 0.27263 0.0
N561 N 0.14299 0.43838 0.27021 0.0
C562 C 0.15545 0.4329 0.29949 0.0
C563 C 0.16756 0.40544 0.30077 0.0
C564 C 0.20137 0.01354 0.52285 0.0
C565 C 0.17045 0.00047 0.50954 0.0
C566 C 0.21446 0.0441 0.52002 0.0
C567 C 0.19701 0.06284 0.50408 0.0
H568 H 0.21553 0.00011 0.5359 0.0
H569 H 0.23825 0.05334 0.53095 0.0
S570 S 0.11706 0.03904 0.46092 0.0
N571 N 0.12434 0.00786 0.47612 0.0
N572 N 0.14838 0.06612 0.4728 0.0
C573 C 0.16639 0.05017 0.49009 0.0
C574 C 0.15324 0.01873 0.4923 0.0
C575 C 0.73308 0.13241 0.81114 0.0
C576 C 0.73482 0.14761 0.78313 0.0
C577 C 0.7063 0.111 0.81559 0.0
C578 C 0.6801 0.10371 0.79217 0.0
H579 H 0.7524 0.13733 0.83014 0.0
H580 H 0.70612 0.1003 0.83781 0.0
S581 S 0.6732 0.13604 0.7137 0.0
N582 N 0.70836 0.15315 0.73104 0.0
N583 N 0.65801 0.11284 0.7393 0.0
C584 C 0.68174 0.11826 0.76367 0.0
C585 C 0.70906 0.14021 0.7592 0.0
C586 C 0.33263 0.11471 0.62272 0.0
C587 C 0.34573 0.08892 0.61579 0.0
C588 C 0.32371 0.13199 0.59837 0.0
C589 C 0.32774 0.12429 0.56617 0.0
H590 H 0.32731 0.12051 0.64677 0.0
H591 H 0.31171 0.15031 0.60464 0.0
S592 S 0.36718 0.06275 0.53658 0.0
N593 N 0.36681 0.05937 0.57531 0.0
N594 N 0.3503 0.09193 0.52956 0.0
C595 C 0.34378 0.10047 0.55947 0.0
C596 C 0.35262 0.0827 0.58427 0.0
C597 C 0.63223 0.49879 0.56668 0.0
C598 C 0.63458 0.5235 0.5477 0.0
C599 C 0.64668 0.47396 0.55932 0.0
C600 C 0.66304 0.47253 0.53214 0.0
H601 H 0.62046 0.49935 0.5882 0.0
H602 H 0.64554 0.45607 0.57532 0.0
S603 S 0.67381 0.53056 0.47353 0.0
N604 N 0.65339 0.54451 0.50009 0.0
N605 N 0.67937 0.49755 0.48542 0.0
C606 C 0.66414 0.49648 0.51217 0.0
C607 C 0.65023 0.52205 0.52018 0.0
C608 C 0.7271 0.31211 0.41954 0.0
C609 C 0.74263 0.28834 0.4272 0.0
C610 C 0.722 0.33375 0.44336 0.0
C611 C 0.73282 0.33281 0.47572 0.0
H612 H 0.72044 0.31524 0.39484 0.0
H613 H 0.71135 0.35245 0.43607 0.0
S614 S 0.77228 0.27374 0.50889 0.0
N615 N 0.76659 0.26387 0.46986 0.0
N616 N 0.75771 0.3049 0.51453 0.0
C617 C 0.74726 0.30849 0.48389 0.0
C618 C 0.75213 0.28628 0.45967 0.0
C619 C 0.5096 0.07454 0.91677 0.0
C620 C 0.48817 0.09136 0.90372 0.0
C621 C 0.53376 0.0673 0.8996 0.0
C622 C 0.53751 0.07674 0.86879 0.0
H623 H 0.50714 0.06606 0.93996 0.0
H624 H 0.54922 0.05371 0.91037 0.0
S625 S 0.48839 0.1229 0.82472 0.0
N626 N 0.47297 0.11835 0.85875 0.0
N627 N 0.5181 0.10495 0.82657 0.0
C628 C 0.51661 0.09428 0.85588 0.0
C629 C 0.492 0.10146 0.87327 0.0
C630 C 0.27168 0.23371 0.39447 0.0
C631 C 0.24677 0.24909 0.38817 0.0
C632 C 0.27183 0.21436 0.41919 0.0
C633 C 0.2472 0.20977 0.43882 0.0
H634 H 0.29122 0.23655 0.38013 0.0
H635 H 0.29149 0.20298 0.42294 0.0
S636 S 0.17691 0.24572 0.43306 0.0
N637 N 0.19712 0.25891 0.40417 0.0
N638 N 0.19739 0.22292 0.45044 0.0
C639 C 0.22223 0.22523 0.43286 0.0
C640 C 0.22202 0.24473 0.40762 0.0
C641 C 0.50179 0.4752 0.91408 0.0
C642 C 0.50747 0.49 0.94537 0.0
C643 C 0.48154 0.48414 0.89062 0.0
C644 C 0.46571 0.50802 0.89746 0.0
H645 H 0.51351 0.4568 0.90732 0.0
H646 H 0.47817 0.47199 0.86689 0.0
S647 S 0.47177 0.55389 0.97586 0.0
N648 N 0.49537 0.52965 0.98216 0.0
N649 N 0.4567 0.54618 0.93796 0.0
C650 C 0.47069 0.52279 0.92877 0.0
C651 C 0.49175 0.51389 0.95271 0.0
C652 C 0.75032 0.72124 0.12487 0.0
C653 C 0.72821 0.73765 0.13574 0.0
C654 C 0.74472 0.70394 0.09505 0.0
C655 C 0.71669 0.7021 0.07482 0.0
H656 H 0.77218 0.72157 0.13956 0.0
H657 H 0.76251 0.69168 0.08799 0.0
S658 S 0.65137 0.74131 0.09144 0.0
N659 N 0.6773 0.75143 0.12348 0.0
N660 N 0.66676 0.71873 0.06743 0.0
C661 C 0.69442 0.71856 0.08517 0.0
C662 C 0.7002 0.73638 0.11557 0.0
C663 C -0.0012 0.04957 0.20283 0.0
C664 C -0.00194 0.07968 0.19604 0.0
C665 C 0.9808 0.03564 0.22546 0.0
C666 C 0.96134 0.05121 0.24249 0.0
H667 H 0.01324 0.03642 0.1904 0.0
H668 H 0.98233 0.01239 0.22965 0.0
S669 S 0.95124 0.13075 0.2342 0.0
N670 N 0.97636 0.12488 0.20853 0.0
N671 N 0.94262 0.09864 0.25119 0.0
C672 C 0.96044 0.08142 0.23613 0.0
C673 C 0.97874 0.09564 0.21291 0.0
C674 C 0.31925 0.84276 0.15516 0.0
C675 C 0.2991 0.84089 0.17944 0.0
C676 C 0.31504 0.86015 0.12944 0.0
C677 C 0.29024 0.87616 0.12659 0.0
H678 H 0.33831 0.83037 0.15574 0.0
H679 H 0.33094 0.86023 0.11114 0.0
S680 S 0.23166 0.88002 0.18455 0.0
N681 N 0.25412 0.85768 0.19977 0.0
N682 N 0.24595 0.89005 0.15111 0.0
C683 C 0.27033 0.87516 0.15111 0.0
C684 C 0.27485 0.85766 0.1776 0.0
C685 C 0.97892 0.49669 0.20103 0.0
C686 C 0.96575 0.51887 0.18576 0.0
C687 C 0.00843 0.50448 0.21932 0.0
C688 C 0.02571 0.53473 0.22304 0.0
H689 H 0.96571 0.47354 0.20022 0.0
H690 H 0.01705 0.48694 0.23178 0.0
S691 S 0.003 0.60035 0.18449 0.0
N692 N 0.97322 0.57157 0.17314 0.0
N693 N 0.0286 0.58631 0.2073 0.0
C694 C 0.01341 0.55673 0.20646 0.0
C695 C 0.98341 0.54878 0.18797 0.0
C696 C 0.41016 0.75955 0.34007 0.0
C697 C 0.39981 0.78227 0.32299 0.0
C698 C 0.43471 0.76696 0.365 0.0
C699 C 0.4503 0.79738 0.37372 0.0
H700 H 0.39868 0.73577 0.33478 0.0
H701 H 0.44132 0.74862 0.37771 0.0
S702 S 0.43355 0.86542 0.33551 0.0
N703 N 0.40788 0.83646 0.31583 0.0
N704 N 0.45437 0.85043 0.36252 0.0
C705 C 0.4409 0.82032 0.35624 0.0
C706 C 0.41557 0.81277 0.33099 0.0
C707 C 0.95395 0.34028 0.08028 0.0
C708 C 0.97175 0.36965 0.09072 0.0
C709 C 0.96322 0.32153 0.0563 0.0
C710 C 0.99066 0.3314 0.04171 0.0
H711 H 0.93201 0.332 0.08984 0.0
H712 H 0.94803 0.29963 0.0483 0.0
S713 S 0.048 0.40458 0.06351 0.0
N714 N 0.01995 0.4064 0.08689 0.0
N715 N 0.03731 0.37125 0.04184 0.0
C716 C 0.00966 0.35999 0.05322 0.0
C717 C 0.00025 0.37907 0.0777 0.0
C718 C 0.65177 0.88733 0.3885 0.0
C719 C 0.67059 0.86511 0.38885 0.0
C720 C 0.6236 0.88321 0.40251 0.0
C721 C 0.61303 0.85671 0.41751 0.0
H722 H 0.65817 0.90767 0.37633 0.0
H723 H 0.60954 0.90062 0.40059 0.0
S724 S 0.65554 0.79331 0.42865 0.0
N725 N 0.67813 0.81686 0.4082 0.0
N726 N 0.62508 0.80916 0.4345 0.0
C727 C 0.63245 0.83507 0.41967 0.0
C728 C 0.66125 0.83926 0.40537 0.0
C729 C 0.06078 0.17114 0.03301 0.0
C730 C 0.04242 0.14133 0.02982 0.0
C731 C 0.05146 0.19417 0.01585 0.0
C732 C 0.02304 0.18837 0.99555 0.0
H733 H 0.08191 0.17702 0.04982 0.0
H734 H 0.0656 0.21706 0.02008 0.0
S735 S 0.96803 0.11371 0.97629 0.0
N736 N 0.99591 0.10677 0.00237 0.0
N737 N 0.97802 0.15029 0.97101 0.0
C738 C 0.00535 0.15839 0.99083 0.0
C739 C 0.01516 0.13478 0.00769 0.0
C740 C 0.34568 0.30663 0.22082 0.0
C741 C 0.3517 0.31285 0.25437 0.0
C742 C 0.36999 0.30369 0.2019 0.0
C743 C 0.40104 0.30613 0.21595 0.0
H744 H 0.32198 0.30397 0.20907 0.0
H745 H 0.36424 0.2985 0.17622 0.0
S746 S 0.42946 0.3231 0.30252 0.0
N747 N 0.39131 0.32236 0.30066 0.0
N748 N 0.43675 0.31605 0.2652 0.0
C749 C 0.40745 0.31271 0.24938 0.0
C750 C 0.38286 0.3163 0.26856 0.0
C751 C 0.53713 0.36508 0.04909 0.0
C752 C 0.56899 0.37095 0.06177 0.0
C753 C 0.51317 0.35381 0.06759 0.0
C754 C 0.52004 0.34779 0.09953 0.0
H755 H 0.53059 0.36813 0.02426 0.0
H756 H 0.48918 0.34845 0.05618 0.0
S757 S 0.5993 0.36322 0.14553 0.0
N758 N 0.60586 0.3729 0.10939 0.0
N759 N 0.56086 0.35158 0.14407 0.0
C760 C 0.55162 0.35538 0.11316 0.0
C761 C 0.57606 0.36697 0.09432 0.0
C762 C 0.58952 0.27462 0.2933 0.0
C763 C 0.61654 0.29666 0.29037 0.0
C764 C 0.56218 0.27159 0.27213 0.0
C765 C 0.56054 0.29052 0.24714 0.0
H766 H 0.58954 0.259 0.31169 0.0
H767 H 0.5423 0.25385 0.27526 0.0
S768 S 0.62393 0.35356 0.23049 0.0
N769 N 0.63942 0.33899 0.26152 0.0
N770 N 0.58784 0.33332 0.22171 0.0
C771 C 0.587 0.31338 0.24448 0.0
C772 C 0.61502 0.31643 0.26608 0.0
C773 C 0.49418 0.16626 0.08767 0.0
C774 C 0.46984 0.15398 0.06313 0.0
C775 C 0.49166 0.19067 0.10954 0.0
C776 C 0.46492 0.20405 0.10734 0.0
H777 H 0.51567 0.15741 0.08962 0.0
H778 H 0.5114 0.19995 0.12743 0.0
S779 S 0.39351 0.17892 0.0492 0.0
N780 N 0.41709 0.15578 0.0394 0.0
N781 N 0.41278 0.20199 0.08013 0.0
C782 C 0.43995 0.1913 0.08371 0.0
C783 C 0.44227 0.16616 0.06174 0.0
C784 C 0.3139 0.40229 0.76482 0.0
C785 C 0.28496 0.3992 0.7777 0.0
C786 C 0.33636 0.4296 0.77071 0.0
C787 C 0.33075 0.4549 0.7897 0.0
H788 H 0.31989 0.38307 0.75128 0.0
H789 H 0.35882 0.43034 0.76144 0.0
S790 S 0.25654 0.46025 0.82442 0.0
N791 N 0.25036 0.42503 0.80698 0.0
N792 N 0.29252 0.47623 0.81804 0.0
C793 C 0.30106 0.45277 0.80088 0.0
C794 C 0.27821 0.42498 0.79489 0.0
C795 C 0.323 0.64404 0.86067 0.0
C796 C 0.33838 0.66954 0.8468 0.0
C797 C 0.33507 0.61725 0.86119 0.0
C798 C 0.36272 0.61462 0.84736 0.0
H799 H 0.3013 0.64467 0.87107 0.0
H800 H 0.32211 0.59817 0.87186 0.0
S801 S 0.41249 0.67503 0.80875 0.0
N802 N 0.38336 0.69079 0.81972 0.0
N803 N 0.40571 0.64016 0.8202 0.0
C804 C 0.37861 0.64005 0.83378 0.0
C805 C 0.36657 0.66758 0.83368 0.0
C806 C 0.82156 0.51146 0.46341 0.0
C807 C 0.85213 0.524 0.47789 0.0
C808 C 0.80116 0.49017 0.478 0.0
C809 C 0.81046 0.48014 0.50764 0.0
H810 H 0.81314 0.51812 0.44052 0.0
H811 H 0.77797 0.4812 0.46546 0.0
S812 S 0.88807 0.50631 0.55594 0.0
N813 N 0.89078 0.52536 0.52392 0.0
N814 N 0.85235 0.48486 0.55132 0.0
C815 C 0.84094 0.49265 0.52264 0.0
C816 C 0.86176 0.5147 0.50781 0.0
C817 C 0.66174 0.92281 0.86161 0.0
C818 C 0.66379 0.9058 0.83264 0.0
C819 C 0.64934 0.94942 0.86199 0.0
C820 C 0.63805 0.96 0.83344 0.0
H821 H 0.67027 0.91586 0.88433 0.0
H822 H 0.64881 0.9619 0.88495 0.0
S823 S 0.63682 0.92323 0.75109 0.0
N824 N 0.6527 0.90106 0.77453 0.0
N825 N 0.62904 0.95096 0.77527 0.0
C826 C 0.63927 0.94289 0.80426 0.0
C827 C 0.65227 0.91588 0.80384 0.0
C828 C 0.68835 0.50475 0.9973 0.0
C829 C 0.65603 0.49289 0.98925 0.0
C830 C 0.70152 0.53489 0.99262 0.0
C831 C 0.68281 0.55437 0.97998 0.0
H832 H 0.70356 0.49076 0.0078 0.0
H833 H 0.72642 0.54327 -0.00023 0.0
S834 S 0.59832 0.53322 0.94977 0.0
N835 N 0.60667 0.50181 0.96356 0.0
N836 N 0.6312 0.55926 0.95674 0.0
C837 C 0.65073 0.54272 0.97092 0.0
C838 C 0.63738 0.51174 0.97503 0.0
C839 C 0.24684 0.62938 0.30544 0.0
C840 C 0.24695 0.64806 0.28004 0.0
C841 C 0.22011 0.60775 0.30962 0.0
C842 C 0.19229 0.60383 0.28856 0.0
H843 H 0.26744 0.63169 0.32266 0.0
H844 H 0.22122 0.59433 0.32987 0.0
S845 S 0.1808 0.64576 0.21692 0.0
N846 N 0.21722 0.66031 0.23262 0.0
N847 N 0.16699 0.61967 0.24035 0.0
C848 C 0.19228 0.62186 0.26253 0.0
C849 C 0.21957 0.64394 0.25831 0.0
C850 C 0.84674 0.57755 0.04648 0.0
C851 C 0.84503 0.58461 0.07936 0.0
C852 C 0.83432 0.59416 0.02332 0.0
C853 C 0.81962 0.61843 0.03213 0.0
H854 H 0.85617 0.55799 0.03832 0.0
H855 H 0.83432 0.58646 0.9983 0.0
S856 S 0.8148 0.65012 0.11523 0.0
N857 N 0.83178 0.62056 0.11971 0.0
N858 N 0.80845 0.65169 0.07619 0.0
C859 C 0.82046 0.62757 0.065 0.0
C860 C 0.83311 0.61066 0.08862 0.0
C861 C 0.10684 0.97694 0.03066 0.0
C862 C 0.11032 0.99402 0.06071 0.0
C863 C 0.12901 0.95961 0.02234 0.0
C864 C 0.15521 0.95809 0.04396 0.0
H865 H 0.08734 0.97768 0.01298 0.0
H866 H 0.12581 0.94768 0.99851 0.0
S867 S 0.17393 0.99671 0.12665 0.0
N868 N 0.14127 0.00717 0.11279 0.0
N869 N 0.18255 0.97409 0.09739 0.0
C870 C 0.1583 0.97404 0.0746 0.0
C871 C 0.136 0.99216 0.08288 0.0
loop_
_geom_bond_atom_site_label_1
_geom_bond_atom_site_label_2
_geom_bond_distance
_geom_bond_site_symmetry_2
_ccdc_geom_bond_type
O0 Cd1 2.300 . S
O0 C7 1.275 . S
Cd1 O0 2.300 . S
Cd1 O9 2.381 . S
Cd1 O10 2.378 . S
O2 Cd3 2.385 . S
O2 C7 1.255 . S
Cd3 O2 2.385 . S
Cd3 O4 2.317 . S
O4 Cd3 2.317 . S
O4 C5 1.232 . S
C5 O4 1.232 . S
C5 O6 1.218 . S
O6 C5 1.218 . S
C7 O0 1.275 . S
C7 O2 1.255 . S
C8 O9 1.258 . S
C8 O10 1.256 . S
O9 Cd1 2.381 . S
O9 C8 1.258 . S
O10 Cd1 2.378 . S
O10 C8 1.256 . S
O11 Cd12 2.300 . S
O11 C18 1.275 . S
Cd12 O11 2.300 . S
Cd12 O20 2.381 . S
Cd12 O21 2.378 . S
O13 Cd14 2.385 . S
O13 C18 1.255 . S
Cd14 O13 2.385 . S
Cd14 O15 2.317 . S
O15 Cd14 2.317 . S
O15 C16 1.232 . S
C16 O15 1.232 . S
C16 O17 1.218 . S
O17 C16 1.218 . S
C18 O11 1.275 . S
C18 O13 1.255 . S
C19 O20 1.258 . S
C19 O21 1.256 . S
O20 Cd12 2.381 . S
O20 C19 1.258 . S
O21 Cd12 2.378 . S
O21 C19 1.256 . S
O22 Cd23 2.300 . S
O22 C29 1.275 . S
Cd23 O22 2.300 . S
Cd23 O31 2.381 . S
Cd23 O32 2.378 . S
O24 Cd25 2.385 . S
O24 C29 1.255 . S
Cd25 O24 2.385 . S
Cd25 O26 2.317 . S
O26 Cd25 2.317 . S
O26 C27 1.232 . S
C27 O26 1.232 . S
C27 O28 1.218 . S
O28 C27 1.218 . S
C29 O22 1.275 . S
C29 O24 1.255 . S
C30 O31 1.258 . S
C30 O32 1.256 . S
O31 Cd23 2.381 . S
O31 C30 1.258 . S
O32 Cd23 2.378 . S
O32 C30 1.256 . S
O33 Cd34 2.300 . S
O33 C40 1.275 . S
Cd34 O33 2.300 . S
Cd34 O42 2.381 . S
Cd34 O43 2.378 . S
O35 Cd36 2.385 . S
O35 C40 1.255 . S
Cd36 O35 2.385 . S
Cd36 O37 2.317 . S
O37 Cd36 2.317 . S
O37 C38 1.232 . S
C38 O37 1.232 . S
C38 O39 1.218 . S
O39 C38 1.218 . S
C40 O33 1.275 . S
C40 O35 1.255 . S
C41 O42 1.258 . S
C41 O43 1.256 . S
O42 Cd34 2.381 . S
O42 C41 1.258 . S
O43 Cd34 2.378 . S
O43 C41 1.256 . S
O44 Cd45 2.300 . S
O44 C51 1.275 1_565 S
Cd45 O44 2.300 . S
Cd45 O53 2.381 . S
Cd45 O54 2.378 . S
O46 Cd47 2.385 . S
O46 C51 1.255 . S
Cd47 O46 2.385 . S
Cd47 O48 2.317 1_545 S
O48 Cd47 2.317 1_565 S
O48 C49 1.232 1_565 S
C49 O48 1.232 1_545 S
C49 O50 1.218 . S
O50 C49 1.218 . S
C51 O44 1.275 1_545 S
C51 O46 1.255 . S
C52 O53 1.258 . S
C52 O54 1.256 . S
O53 Cd45 2.381 . S
O53 C52 1.258 . S
O54 Cd45 2.378 . S
O54 C52 1.256 . S
O55 Cd56 2.300 . S
O55 C62 1.275 . S
Cd56 O55 2.300 . S
Cd56 O64 2.381 . S
Cd56 O65 2.378 . S
O57 Cd58 2.385 . S
O57 C62 1.255 . S
Cd58 O57 2.385 . S
Cd58 O59 2.317 . S
O59 Cd58 2.317 . S
O59 C60 1.232 . S
C60 O59 1.232 . S
C60 O61 1.218 . S
O61 C60 1.218 . S
C62 O55 1.275 . S
C62 O57 1.255 . S
C63 O64 1.258 . S
C63 O65 1.256 . S
O64 Cd56 2.381 . S
O64 C63 1.258 . S
O65 Cd56 2.378 . S
O65 C63 1.256 . S
O66 Cd67 2.300 . S
O66 C73 1.275 . S
Cd67 O66 2.300 . S
Cd67 O75 2.381 . S
Cd67 O76 2.378 . S
O68 Cd69 2.385 . S
O68 C73 1.255 . S
Cd69 O68 2.385 . S
Cd69 O70 2.317 . S
O70 Cd69 2.317 . S
O70 C71 1.232 . S
C71 O70 1.232 . S
C71 O72 1.218 1_655 S
O72 C71 1.218 1_455 S
C73 O66 1.275 . S
C73 O68 1.255 . S
C74 O75 1.258 . S
C74 O76 1.256 . S
O75 Cd67 2.381 . S
O75 C74 1.258 . S
O76 Cd67 2.378 . S
O76 C74 1.256 . S
O77 Cd78 2.300 . S
O77 C84 1.275 . S
Cd78 O77 2.300 . S
Cd78 O86 2.381 . S
Cd78 O87 2.378 . S
O79 Cd80 2.385 . S
O79 C84 1.255 . S
Cd80 O79 2.385 . S
Cd80 O81 2.317 . S
O81 Cd80 2.317 . S
O81 C82 1.232 . S
C82 O81 1.232 . S
C82 O83 1.218 . S
O83 C82 1.218 . S
C84 O77 1.275 . S
C84 O79 1.255 . S
C85 O86 1.258 . S
C85 O87 1.256 . S
O86 Cd78 2.381 . S
O86 C85 1.258 . S
O87 Cd78 2.378 . S
O87 C85 1.256 . S
O88 Cd89 2.300 . S
O88 C95 1.275 . S
Cd89 O88 2.300 . S
Cd89 O97 2.381 . S
Cd89 O98 2.378 . S
O90 Cd91 2.385 . S
O90 C95 1.255 . S
Cd91 O90 2.385 . S
Cd91 O92 2.317 . S
O92 Cd91 2.317 . S
O92 C93 1.232 . S
C93 O92 1.232 . S
C93 O94 1.218 . S
O94 C93 1.218 . S
C95 O88 1.275 . S
C95 O90 1.255 . S
C96 O97 1.258 . S
C96 O98 1.256 . S
O97 Cd89 2.381 . S
O97 C96 1.258 . S
O98 Cd89 2.378 . S
O98 C96 1.256 . S
O99 Cd100 2.300 . S
O99 C106 1.275 . S
Cd100 O99 2.300 . S
Cd100 O108 2.381 . S
Cd100 O109 2.378 . S
O101 Cd102 2.385 . S
O101 C106 1.255 . S
Cd102 O101 2.385 . S
Cd102 O103 2.317 . S
O103 Cd102 2.317 . S
O103 C104 1.232 . S
C104 O103 1.232 . S
C104 O105 1.218 . S
O105 C104 1.218 . S
C106 O99 1.275 . S
C106 O101 1.255 . S
C107 O108 1.275 . S
C107 O109 1.262 . S
O108 Cd100 2.381 . S
O108 C107 1.275 . S
O109 Cd100 2.378 . S
O109 C107 1.262 . S
O110 Cd111 2.300 . S
O110 C117 1.275 . S
Cd111 O110 2.300 . S
Cd111 O119 2.381 . S
Cd111 O120 2.378 . S
O112 Cd113 2.385 . S
O112 C117 1.255 . S
Cd113 O112 2.385 . S
Cd113 O114 2.317 . S
O114 Cd113 2.317 . S
O114 C115 1.232 . S
C115 O114 1.232 . S
C115 O116 1.218 . S
O116 C115 1.218 . S
C117 O110 1.275 . S
C117 O112 1.255 . S
C118 O119 1.258 . S
C118 O120 1.256 . S
O119 Cd111 2.381 . S
O119 C118 1.258 . S
O120 Cd111 2.378 . S
O120 C118 1.256 . S
O121 Cd122 2.300 . S
O121 C128 1.275 . S
Cd122 O121 2.300 . S
Cd122 O130 2.381 . S
Cd122 O131 2.378 . S
O123 Cd124 2.385 . S
O123 C128 1.255 . S
Cd124 O123 2.385 . S
Cd124 O125 2.317 . S
O125 Cd124 2.317 . S
O125 C126 1.232 . S
C126 O125 1.232 . S
C126 O127 1.218 . S
O127 C126 1.218 . S
C128 O121 1.275 . S
C128 O123 1.255 . S
C129 O130 1.258 . S
C129 O131 1.256 . S
O130 Cd122 2.381 . S
O130 C129 1.258 . S
O131 Cd122 2.378 . S
O131 C129 1.256 . S
O132 Cd133 2.300 . S
O132 C139 1.275 . S
Cd133 O132 2.300 . S
Cd133 O141 2.381 . S
Cd133 O142 2.378 . S
O134 Cd135 2.385 . S
O134 C139 1.255 . S
Cd135 O134 2.385 . S
Cd135 O136 2.317 . S
O136 Cd135 2.317 . S
O136 C137 1.232 . S
C137 O136 1.232 . S
C137 O138 1.218 . S
O138 C137 1.218 . S
C139 O132 1.275 . S
C139 O134 1.255 . S
C140 O141 1.258 . S
C140 O142 1.256 . S
O141 Cd133 2.381 . S
O141 C140 1.258 . S
O142 Cd133 2.378 . S
O142 C140 1.256 . S
O143 Cd144 2.300 . S
O143 C150 1.275 . S
Cd144 O143 2.300 . S
Cd144 O152 2.381 . S
Cd144 O153 2.378 . S
O145 Cd146 2.385 . S
O145 C150 1.255 . S
Cd146 O145 2.385 . S
Cd146 O147 2.317 . S
O147 Cd146 2.317 . S
O147 C148 1.232 . S
C148 O147 1.232 . S
C148 O149 1.218 . S
O149 C148 1.218 . S
C150 O143 1.275 . S
C150 O145 1.255 . S
C151 O152 1.258 . S
C151 O153 1.256 . S
O152 Cd144 2.381 . S
O152 C151 1.258 . S
O153 Cd144 2.378 . S
O153 C151 1.256 . S
O154 Cd155 2.300 . S
O154 C161 1.275 . S
Cd155 O154 2.300 . S
Cd155 O163 2.381 . S
Cd155 O164 2.378 . S
O156 Cd157 2.385 . S
O156 C161 1.255 . S
Cd157 O156 2.385 . S
Cd157 O158 2.317 . S
O158 Cd157 2.317 . S
O158 C159 1.232 . S
C159 O158 1.232 . S
C159 O160 1.218 . S
O160 C159 1.218 . S
C161 O154 1.275 . S
C161 O156 1.255 . S
C162 O163 1.258 . S
C162 O164 1.256 . S
O163 Cd155 2.381 . S
O163 C162 1.258 . S
O164 Cd155 2.378 . S
O164 C162 1.256 . S
O165 Cd166 2.300 . S
O165 C172 1.275 . S
Cd166 O165 2.300 . S
Cd166 O174 2.381 . S
Cd166 O175 2.378 . S
O167 Cd168 2.385 1_556 S
O167 C172 1.255 . S
Cd168 O167 2.385 1_554 S
Cd168 O169 2.317 . S
O169 Cd168 2.317 . S
O169 C170 1.225 1_554 S
C170 O169 1.225 1_556 S
C170 O171 1.222 . S
O171 C170 1.222 . S
C172 O165 1.275 . S
C172 O167 1.255 . S
C173 O174 1.258 . S
C173 O175 1.256 . S
O174 Cd166 2.381 . S
O174 C173 1.258 . S
O175 Cd166 2.378 . S
O175 C173 1.256 . S
O176 Cd177 2.223 . S
O176 C184 1.315 . S
Cd177 O176 2.223 . S
Cd177 O180 2.297 . S
Cd177 O181 2.439 . S
Cd177 O187 2.240 . S
Cd178 O179 2.240 . S
Cd178 O186 2.223 . S
Cd178 O188 2.297 . S
Cd178 O189 2.439 . S
O179 Cd178 2.240 . S
O179 C184 1.279 . S
O180 Cd177 2.297 . S
O180 C182 1.247 . S
O181 Cd177 2.439 . S
O181 C182 1.208 . S
C182 O180 1.247 . S
C182 O181 1.208 . S
C183 O188 1.247 . S
C183 O189 1.208 . S
C184 O176 1.315 . S
C184 O179 1.279 . S
C185 O186 1.315 . S
C185 O187 1.279 . S
O186 Cd178 2.223 . S
O186 C185 1.315 . S
O187 Cd177 2.240 . S
O187 C185 1.279 . S
O188 Cd178 2.297 . S
O188 C183 1.247 . S
O189 Cd178 2.439 . S
O189 C183 1.208 . S
O190 Cd191 2.223 . S
O190 C198 1.315 . S
Cd191 O190 2.223 . S
Cd191 O194 2.297 . S
Cd191 O195 2.439 . S
Cd191 O201 2.240 . S
Cd192 O193 2.240 . S
Cd192 O200 2.223 . S
Cd192 O202 2.297 . S
Cd192 O203 2.439 . S
O193 Cd192 2.240 . S
O193 C198 1.279 . S
O194 Cd191 2.297 . S
O194 C196 1.247 . S
O195 Cd191 2.439 . S
O195 C196 1.208 . S
C196 O194 1.247 . S
C196 O195 1.208 . S
C197 O202 1.247 . S
C197 O203 1.208 . S
C198 O190 1.315 . S
C198 O193 1.279 . S
C199 O200 1.315 . S
C199 O201 1.279 . S
O200 Cd192 2.223 . S
O200 C199 1.315 . S
O201 Cd191 2.240 . S
O201 C199 1.279 . S
O202 Cd192 2.297 . S
O202 C197 1.247 . S
O203 Cd192 2.439 . S
O203 C197 1.208 . S
O204 Cd205 2.223 1_556 S
O204 C212 1.315 . S
Cd205 O204 2.223 1_554 S
Cd205 O208 2.297 . S
Cd205 O209 2.439 . S
Cd205 O215 2.240 . S
Cd206 O207 2.240 . S
Cd206 O214 2.223 . S
Cd206 O216 2.297 1_556 S
Cd206 O217 2.439 1_556 S
O207 Cd206 2.240 . S
O207 C212 1.279 . S
O208 Cd205 2.297 . S
O208 C210 1.247 . S
O209 Cd205 2.439 . S
O209 C210 1.208 . S
C210 O208 1.247 . S
C210 O209 1.208 . S
C211 O216 1.247 . S
C211 O217 1.208 . S
C212 O204 1.315 . S
C212 O207 1.279 . S
C213 O214 1.315 . S
C213 O215 1.279 1_556 S
O214 Cd206 2.223 . S
O214 C213 1.315 . S
O215 Cd205 2.240 . S
O215 C213 1.279 1_554 S
O216 Cd206 2.297 1_554 S
O216 C211 1.247 . S
O217 Cd206 2.439 1_554 S
O217 C211 1.208 . S
O218 Cd219 2.223 . S
O218 C226 1.315 . S
Cd219 O218 2.223 . S
Cd219 O222 2.297 . S
Cd219 O223 2.439 . S
Cd219 O229 2.240 . S
Cd220 O221 2.240 . S
Cd220 O228 2.223 . S
Cd220 O230 2.297 . S
Cd220 O231 2.439 . S
O221 Cd220 2.240 . S
O221 C226 1.279 . S
O222 Cd219 2.297 . S
O222 C224 1.247 . S
O223 Cd219 2.439 . S
O223 C224 1.208 . S
C224 O222 1.247 . S
C224 O223 1.208 . S
C225 O230 1.247 . S
C225 O231 1.208 . S
C226 O218 1.315 . S
C226 O221 1.279 . S
C227 O228 1.315 . S
C227 O229 1.279 . S
O228 Cd220 2.223 . S
O228 C227 1.315 . S
O229 Cd219 2.240 . S
O229 C227 1.279 . S
O230 Cd220 2.297 . S
O230 C225 1.247 . S
O231 Cd220 2.439 . S
O231 C225 1.208 . S
O232 Cd233 2.223 . S
O232 C240 1.315 . S
Cd233 O232 2.223 . S
Cd233 O236 2.297 . S
Cd233 O237 2.439 . S
Cd233 O243 2.240 . S
Cd234 O235 2.240 . S
Cd234 O242 2.223 . S
Cd234 O244 2.297 . S
Cd234 O245 2.439 . S
O235 Cd234 2.240 . S
O235 C240 1.279 . S
O236 Cd233 2.297 . S
O236 C238 1.247 . S
O237 Cd233 2.439 . S
O237 C238 1.208 . S
C238 O236 1.247 . S
C238 O237 1.208 . S
C239 O244 1.247 . S
C239 O245 1.208 . S
C240 O232 1.315 . S
C240 O235 1.279 . S
C241 O242 1.315 . S
C241 O243 1.279 . S
O242 Cd234 2.223 . S
O242 C241 1.315 . S
O243 Cd233 2.240 . S
O243 C241 1.279 . S
O244 Cd234 2.297 . S
O244 C239 1.247 . S
O245 Cd234 2.439 . S
O245 C239 1.208 . S
O246 Cd247 2.223 . S
O246 C254 1.315 . S
Cd247 O246 2.223 . S
Cd247 O250 2.297 . S
Cd247 O251 2.439 . S
Cd247 O257 2.240 . S
Cd248 O249 2.240 . S
Cd248 O256 2.223 . S
Cd248 O258 2.297 . S
Cd248 O259 2.439 . S
O249 Cd248 2.240 . S
O249 C254 1.279 . S
O250 Cd247 2.297 . S
O250 C252 1.247 . S
O251 Cd247 2.439 . S
O251 C252 1.208 . S
C252 O250 1.247 . S
C252 O251 1.208 . S
C253 O258 1.247 . S
C253 O259 1.208 . S
C254 O246 1.315 . S
C254 O249 1.279 . S
C255 O256 1.315 . S
C255 O257 1.279 . S
O256 Cd248 2.223 . S
O256 C255 1.315 . S
O257 Cd247 2.240 . S
O257 C255 1.279 . S
O258 Cd248 2.297 . S
O258 C253 1.247 . S
O259 Cd248 2.439 . S
O259 C253 1.208 . S
O260 Cd261 2.223 . S
O260 C268 1.315 . S
Cd261 O260 2.223 . S
Cd261 O264 2.297 . S
Cd261 O265 2.439 . S
Cd261 O271 2.240 . S
Cd262 O263 2.240 . S
Cd262 O270 2.223 . S
Cd262 O272 2.297 . S
Cd262 O273 2.439 . S
O263 Cd262 2.240 . S
O263 C268 1.279 . S
O264 Cd261 2.297 . S
O264 C266 1.247 . S
O265 Cd261 2.439 . S
O265 C266 1.208 . S
C266 O264 1.247 . S
C266 O265 1.208 . S
C267 O272 1.247 . S
C267 O273 1.208 . S
C268 O260 1.315 . S
C268 O263 1.279 . S
C269 O270 1.315 . S
C269 O271 1.279 . S
O270 Cd262 2.223 . S
O270 C269 1.315 . S
O271 Cd261 2.240 . S
O271 C269 1.279 . S
O272 Cd262 2.297 . S
O272 C267 1.247 . S
O273 Cd262 2.439 . S
O273 C267 1.208 . S
O274 Cd275 2.223 1_545 S
O274 C282 1.315 . S
Cd275 O274 2.223 1_565 S
Cd275 O278 2.297 . S
Cd275 O279 2.439 . S
Cd275 O285 2.240 1_565 S
Cd276 O277 2.240 . S
Cd276 O284 2.223 . S
Cd276 O286 2.297 . S
Cd276 O287 2.439 1_545 S
O277 Cd276 2.240 . S
O277 C282 1.279 . S
O278 Cd275 2.297 . S
O278 C280 1.247 . S
O279 Cd275 2.439 . S
O279 C280 1.208 . S
C280 O278 1.247 . S
C280 O279 1.208 . S
C281 O286 1.247 1_565 S
C281 O287 1.208 . S
C282 O274 1.315 . S
C282 O277 1.279 . S
C283 O284 1.315 . S
C283 O285 1.279 . S
O284 Cd276 2.223 . S
O284 C283 1.315 . S
O285 Cd275 2.240 1_545 S
O285 C283 1.279 . S
O286 Cd276 2.297 . S
O286 C281 1.247 1_545 S
O287 Cd276 2.439 1_565 S
O287 C281 1.208 . S
O288 Cd289 2.212 1_554 S
O288 C296 1.312 . S
Cd289 O288 2.212 1_556 S
Cd289 O292 2.297 1_656 S
Cd289 O293 2.439 1_655 S
Cd289 O299 2.240 . S
Cd290 O291 2.240 . S
Cd290 O298 2.223 1_455 S
Cd290 O300 2.297 . S
Cd290 O301 2.439 . S
O291 Cd290 2.240 . S
O291 C296 1.279 1_456 S
O292 Cd289 2.297 1_454 S
O292 C294 1.247 . S
O293 Cd289 2.439 1_455 S
O293 C294 1.208 1_556 S
C294 O292 1.247 . S
C294 O293 1.208 1_554 S
C295 O300 1.247 . S
C295 O301 1.208 . S
C296 O288 1.312 . S
C296 O291 1.279 1_654 S
C297 O298 1.315 . S
C297 O299 1.279 . S
O298 Cd290 2.223 1_655 S
O298 C297 1.315 . S
O299 Cd289 2.240 . S
O299 C297 1.279 . S
O300 Cd290 2.297 . S
O300 C295 1.247 . S
O301 Cd290 2.439 . S
O301 C295 1.208 . S
O302 Cd303 2.223 . S
O302 C310 1.315 . S
Cd303 O302 2.223 . S
Cd303 O306 2.297 . S
Cd303 O307 2.439 . S
Cd303 O313 2.240 . S
Cd304 O305 2.240 . S
Cd304 O312 2.223 . S
Cd304 O314 2.297 . S
Cd304 O315 2.439 . S
O305 Cd304 2.240 . S
O305 C310 1.279 . S
O306 Cd303 2.297 . S
O306 C308 1.247 . S
O307 Cd303 2.439 . S
O307 C308 1.208 . S
C308 O306 1.247 . S
C308 O307 1.208 . S
C309 O314 1.247 . S
C309 O315 1.208 . S
C310 O302 1.315 . S
C310 O305 1.279 . S
C311 O312 1.315 . S
C311 O313 1.279 . S
O312 Cd304 2.223 . S
O312 C311 1.315 . S
O313 Cd303 2.240 . S
O313 C311 1.279 . S
O314 Cd304 2.297 . S
O314 C309 1.247 . S
O315 Cd304 2.439 . S
O315 C309 1.208 . S
O316 Cd317 2.223 1_655 S
O316 C324 1.315 . S
Cd317 O316 2.223 1_455 S
Cd317 O320 2.297 . S
Cd317 O321 2.439 . S
Cd317 O327 2.240 . S
Cd318 O319 2.240 . S
Cd318 O326 2.223 . S
Cd318 O328 2.297 1_655 S
Cd318 O329 2.439 1_655 S
O319 Cd318 2.240 . S
O319 C324 1.279 . S
O320 Cd317 2.297 . S
O320 C322 1.247 . S
O321 Cd317 2.439 . S
O321 C322 1.208 . S
C322 O320 1.247 . S
C322 O321 1.208 . S
C323 O328 1.247 . S
C323 O329 1.208 . S
C324 O316 1.315 . S
C324 O319 1.279 . S
C325 O326 1.315 . S
C325 O327 1.279 1_655 S
O326 Cd318 2.223 . S
O326 C325 1.315 . S
O327 Cd317 2.240 . S
O327 C325 1.279 1_455 S
O328 Cd318 2.297 1_455 S
O328 C323 1.247 . S
O329 Cd318 2.439 1_455 S
O329 C323 1.208 . S
O330 Cd331 2.223 . S
O330 C338 1.315 . S
Cd331 O330 2.223 . S
Cd331 O334 2.297 . S
Cd331 O335 2.439 . S
Cd331 O341 2.240 . S
Cd332 O333 2.240 . S
Cd332 O340 2.223 . S
Cd332 O342 2.297 . S
Cd332 O343 2.439 . S
O333 Cd332 2.240 . S
O333 C338 1.279 . S
O334 Cd331 2.297 . S
O334 C336 1.247 . S
O335 Cd331 2.439 . S
O335 C336 1.208 . S
C336 O334 1.247 . S
C336 O335 1.208 . S
C337 O342 1.247 . S
C337 O343 1.208 . S
C338 O330 1.315 . S
C338 O333 1.279 . S
C339 O340 1.315 . S
C339 O341 1.279 . S
O340 Cd332 2.223 . S
O340 C339 1.315 . S
O341 Cd331 2.240 . S
O341 C339 1.279 . S
O342 Cd332 2.297 . S
O342 C337 1.247 . S
O343 Cd332 2.439 . S
O343 C337 1.208 . S
C344 C345 1.369 . S
C344 C346 1.419 . S
C344 H348 0.930 . S
C345 C344 1.369 . S
C345 C354 1.429 . S
C346 C344 1.419 . S
C346 C347 1.363 . S
C346 H349 0.952 . S
C347 C346 1.363 . S
C347 C353 1.428 . S
H348 C344 0.930 . S
H349 C346 0.952 . S
S350 N351 1.613 . S
S350 N352 1.610 . S
N351 S350 1.613 . S
N351 C354 1.350 . S
N352 S350 1.610 . S
N352 C353 1.351 . S
C353 C347 1.428 . S
C353 N352 1.351 . S
C353 C354 1.434 . S
C354 C345 1.429 . S
C354 N351 1.350 . S
C354 C353 1.434 . S
C355 C356 1.369 . S
C355 C357 1.419 1_655 S
C355 H359 0.930 . S
C356 C355 1.369 . S
C356 C365 1.429 1_655 S
C357 C355 1.419 1_455 S
C357 C358 1.363 . S
C357 H360 0.929 . S
C358 C357 1.363 . S
C358 C364 1.428 . S
H359 C355 0.930 . S
H360 C357 0.929 . S
S361 N362 1.613 . S
S361 N363 1.610 . S
N362 S361 1.613 . S
N362 C365 1.350 . S
N363 S361 1.610 . S
N363 C364 1.351 . S
C364 C358 1.428 . S
C364 N363 1.351 . S
C364 C365 1.434 . S
C365 C356 1.429 1_455 S
C365 N362 1.350 . S
C365 C364 1.434 . S
C366 C367 1.369 . S
C366 C368 1.419 . S
C366 H370 0.930 . S
C367 C366 1.369 . S
C367 C376 1.429 . S
C368 C366 1.419 . S
C368 C369 1.363 . S
C368 H371 0.929 . S
C369 C368 1.363 . S
C369 C375 1.428 . S
H370 C366 0.930 . S
H371 C368 0.929 . S
S372 N373 1.613 . S
S372 N374 1.610 . S
N373 S372 1.613 . S
N373 C376 1.350 . S
N374 S372 1.610 . S
N374 C375 1.351 . S
C375 C369 1.428 . S
C375 N374 1.351 . S
C375 C376 1.434 . S
C376 C367 1.429 . S
C376 N373 1.350 . S
C376 C375 1.434 . S
C377 C378 1.369 . S
C377 C379 1.419 1_455 S
C377 H381 0.930 . S
C378 C377 1.369 . S
C378 C387 1.429 1_445 S
C379 C377 1.419 1_655 S
C379 C380 1.363 . S
C379 H382 0.929 . S
C380 C379 1.363 . S
C380 C386 1.428 1_545 S
H381 C377 0.930 . S
H382 C379 0.929 . S
S383 N384 1.613 . S
S383 N385 1.610 . S
N384 S383 1.613 . S
N384 C387 1.350 . S
N385 S383 1.610 . S
N385 C386 1.351 . S
C386 C380 1.428 1_565 S
C386 N385 1.351 . S
C386 C387 1.434 . S
C387 C378 1.429 1_665 S
C387 N384 1.350 . S
C387 C386 1.434 . S
C388 C389 1.369 . S
C388 C390 1.419 . S
C388 H392 0.930 . S
C389 C388 1.369 . S
C389 C398 1.429 . S
C390 C388 1.419 . S
C390 C391 1.363 . S
C390 H393 0.929 . S
C391 C390 1.363 . S
C391 C397 1.428 . S
H392 C388 0.930 . S
H393 C390 0.929 . S
S394 N395 1.613 . S
S394 N396 1.610 . S
N395 S394 1.613 . S
N395 C398 1.350 . S
N396 S394 1.610 . S
N396 C397 1.351 . S
C397 C391 1.428 . S
C397 N396 1.351 . S
C397 C398 1.434 . S
C398 C389 1.429 . S
C398 N395 1.350 . S
C398 C397 1.434 . S
C399 C400 1.369 . S
C399 C401 1.419 . S
C399 H403 0.930 . S
C400 C399 1.369 . S
C400 C409 1.429 . S
C401 C399 1.419 . S
C401 C402 1.363 . S
C401 H404 0.929 . S
C402 C401 1.363 . S
C402 C408 1.428 . S
H403 C399 0.930 . S
H404 C401 0.929 . S
S405 N406 1.613 . S
S405 N407 1.610 . S
N406 S405 1.613 . S
N406 C409 1.350 . S
N407 S405 1.610 . S
N407 C408 1.351 . S
C408 C402 1.428 . S
C408 N407 1.351 . S
C408 C409 1.434 . S
C409 C400 1.429 . S
C409 N406 1.350 . S
C409 C408 1.434 . S
C410 C411 1.369 . S
C410 C412 1.419 . S
C410 H414 0.930 . S
C411 C410 1.369 . S
C411 C420 1.429 . S
C412 C410 1.419 . S
C412 C413 1.363 . S
C412 H415 0.929 . S
C413 C412 1.363 . S
C413 C419 1.428 . S
H414 C410 0.930 . S
H415 C412 0.929 . S
S416 N417 1.613 . S
S416 N418 1.610 . S
N417 S416 1.613 . S
N417 C420 1.350 . S
N418 S416 1.610 . S
N418 C419 1.351 . S
C419 C413 1.428 . S
C419 N418 1.351 . S
C419 C420 1.434 . S
C420 C411 1.429 . S
C420 N417 1.350 . S
C420 C419 1.434 . S
C421 C422 1.369 . S
C421 C423 1.419 . S
C421 H425 0.930 . S
C422 C421 1.369 . S
C422 C431 1.429 . S
C423 C421 1.419 . S
C423 C424 1.363 . S
C423 H426 0.929 . S
C424 C423 1.363 . S
C424 C430 1.428 . S
H425 C421 0.930 . S
H426 C423 0.929 . S
S427 N428 1.613 1_545 S
S427 N429 1.610 . S
N428 S427 1.613 1_565 S
N428 C431 1.350 . S
N429 S427 1.610 . S
N429 C430 1.351 1_545 S
C430 C424 1.428 . S
C430 N429 1.351 1_565 S
C430 C431 1.434 . S
C431 C422 1.429 . S
C431 N428 1.350 . S
C431 C430 1.434 . S
C432 C433 1.369 . S
C432 C434 1.419 . S
C432 H436 0.930 . S
C433 C432 1.369 . S
C433 C442 1.429 . S
C434 C432 1.419 . S
C434 C435 1.363 . S
C434 H437 0.929 . S
C435 C434 1.363 . S
C435 C441 1.428 . S
H436 C432 0.930 . S
H437 C434 0.929 . S
S438 N439 1.613 . S
S438 N440 1.610 . S
N439 S438 1.613 . S
N439 C442 1.350 . S
N440 S438 1.610 . S
N440 C441 1.351 . S
C441 C435 1.428 . S
C441 N440 1.351 . S
C441 C442 1.434 . S
C442 C433 1.429 . S
C442 N439 1.350 . S
C442 C441 1.434 . S
C443 C444 1.369 . S
C443 C445 1.419 . S
C443 H447 0.930 . S
C444 C443 1.369 . S
C444 C453 1.429 . S
C445 C443 1.419 . S
C445 C446 1.363 . S
C445 H448 0.929 . S
C446 C445 1.363 . S
C446 C452 1.428 . S
H447 C443 0.930 . S
H448 C445 0.929 . S
S449 N450 1.613 . S
S449 N451 1.610 . S
N450 S449 1.613 . S
N450 C453 1.350 . S
N451 S449 1.610 . S
N451 C452 1.351 . S
C452 C446 1.428 . S
C452 N451 1.351 . S
C452 C453 1.434 . S
C453 C444 1.429 . S
C453 N450 1.350 . S
C453 C452 1.434 . S
C454 C455 1.369 . S
C454 C456 1.419 . S
C454 H458 0.930 . S
C455 C454 1.369 . S
C455 C464 1.429 . S
C456 C454 1.419 . S
C456 C457 1.363 . S
C456 H459 0.929 . S
C457 C456 1.363 . S
C457 C463 1.428 . S
H458 C454 0.930 . S
H459 C456 0.929 . S
S460 N461 1.613 . S
S460 N462 1.610 . S
N461 S460 1.613 . S
N461 C464 1.350 . S
N462 S460 1.610 . S
N462 C463 1.351 . S
C463 C457 1.428 . S
C463 N462 1.351 . S
C463 C464 1.434 . S
C464 C455 1.429 . S
C464 N461 1.350 . S
C464 C463 1.434 . S
C465 C466 1.369 . S
C465 C467 1.419 . S
C465 H469 0.930 . S
C466 C465 1.369 . S
C466 C475 1.429 . S
C467 C465 1.419 . S
C467 C468 1.363 . S
C467 H470 0.929 . S
C468 C467 1.363 . S
C468 C474 1.428 . S
H469 C465 0.930 . S
H470 C467 0.929 . S
S471 N472 1.613 . S
S471 N473 1.610 . S
N472 S471 1.613 . S
N472 C475 1.350 . S
N473 S471 1.610 . S
N473 C474 1.351 . S
C474 C468 1.428 . S
C474 N473 1.351 . S
C474 C475 1.434 . S
C475 C466 1.429 . S
C475 N472 1.350 . S
C475 C474 1.434 . S
C476 C477 1.369 . S
C476 C478 1.419 . S
C476 H480 0.930 . S
C477 C476 1.369 . S
C477 C486 1.429 . S
C478 C476 1.419 . S
C478 C479 1.363 . S
C478 H481 0.929 . S
C479 C478 1.363 . S
C479 C485 1.428 . S
H480 C476 0.930 . S
H481 C478 0.929 . S
S482 N483 1.613 . S
S482 N484 1.610 . S
N483 S482 1.613 . S
N483 C486 1.350 . S
N484 S482 1.610 . S
N484 C485 1.351 . S
C485 C479 1.428 . S
C485 N484 1.351 . S
C485 C486 1.434 . S
C486 C477 1.429 . S
C486 N483 1.350 . S
C486 C485 1.434 . S
C487 C488 1.369 . S
C487 C489 1.419 . S
C487 H491 0.930 . S
C488 C487 1.369 . S
C488 C497 1.429 . S
C489 C487 1.419 . S
C489 C490 1.363 . S
C489 H492 0.929 . S
C490 C489 1.363 . S
C490 C496 1.428 . S
H491 C487 0.930 . S
H492 C489 0.929 . S
S493 N494 1.613 . S
S493 N495 1.610 . S
N494 S493 1.613 . S
N494 C497 1.350 . S
N495 S493 1.610 . S
N495 C496 1.351 . S
C496 C490 1.428 . S
C496 N495 1.351 . S
C496 C497 1.434 . S
C497 C488 1.429 . S
C497 N494 1.350 . S
C497 C496 1.434 . S
C498 C499 1.369 . S
C498 C500 1.419 . S
C498 H502 0.930 . S
C499 C498 1.369 . S
C499 C508 1.429 . S
C500 C498 1.419 . S
C500 C501 1.363 . S
C500 H503 0.929 . S
C501 C500 1.363 . S
C501 C507 1.428 . S
H502 C498 0.930 . S
H503 C500 0.929 . S
S504 N505 1.613 . S
S504 N506 1.610 . S
N505 S504 1.613 . S
N505 C508 1.350 . S
N506 S504 1.610 . S
N506 C507 1.351 . S
C507 C501 1.428 . S
C507 N506 1.351 . S
C507 C508 1.434 . S
C508 C499 1.429 . S
C508 N505 1.350 . S
C508 C507 1.434 . S
C509 C510 1.369 . S
C509 C511 1.419 . S
C509 H513 0.930 . S
C510 C509 1.369 . S
C510 C519 1.429 . S
C511 C509 1.419 . S
C511 C512 1.363 . S
C511 H514 0.929 . S
C512 C511 1.363 . S
C512 C518 1.428 . S
H513 C509 0.930 . S
H514 C511 0.929 . S
S515 N516 1.613 . S
S515 N517 1.610 . S
N516 S515 1.613 . S
N516 C519 1.350 . S
N517 S515 1.610 . S
N517 C518 1.351 . S
C518 C512 1.428 . S
C518 N517 1.351 . S
C518 C519 1.434 . S
C519 C510 1.429 . S
C519 N516 1.350 . S
C519 C518 1.434 . S
C520 C521 1.369 . S
C520 C522 1.419 . S
C520 H524 0.930 . S
C521 C520 1.369 . S
C521 C530 1.429 . S
C522 C520 1.419 . S
C522 C523 1.363 . S
C522 H525 0.929 . S
C523 C522 1.363 . S
C523 C529 1.428 . S
H524 C520 0.930 . S
H525 C522 0.929 . S
S526 N527 1.613 . S
S526 N528 1.610 1_565 S
N527 S526 1.613 . S
N527 C530 1.350 . S
N528 S526 1.610 1_545 S
N528 C529 1.351 1_545 S
C529 C523 1.428 . S
C529 N528 1.351 1_565 S
C529 C530 1.434 . S
C530 C521 1.429 . S
C530 N527 1.350 . S
C530 C529 1.434 . S
C531 C532 1.369 . S
C531 C533 1.419 . S
C531 H535 0.930 . S
C532 C531 1.369 . S
C532 C541 1.429 . S
C533 C531 1.419 . S
C533 C534 1.363 . S
C533 H536 0.929 . S
C534 C533 1.363 . S
C534 C540 1.428 . S
H535 C531 0.930 . S
H536 C533 0.929 . S
S537 N538 1.613 . S
S537 N539 1.610 . S
N538 S537 1.613 . S
N538 C541 1.350 . S
N539 S537 1.610 . S
N539 C540 1.351 . S
C540 C534 1.428 . S
C540 N539 1.351 . S
C540 C541 1.434 . S
C541 C532 1.429 . S
C541 N538 1.350 . S
C541 C540 1.434 . S
C542 C543 1.371 . S
C542 C544 1.393 1_545 S
C542 H546 0.955 . S
C543 C542 1.371 . S
C543 C552 1.429 1_545 S
C544 C542 1.393 1_565 S
C544 C545 1.363 1_556 S
C544 H547 0.929 . S
C545 C544 1.363 1_554 S
C545 C551 1.428 . S
H546 C542 0.955 . S
H547 C544 0.929 . S
S548 N549 1.613 . S
S548 N550 1.610 . S
N549 S548 1.613 . S
N549 C552 1.350 1_554 S
N550 S548 1.610 . S
N550 C551 1.351 . S
C551 C545 1.428 . S
C551 N550 1.351 . S
C551 C552 1.434 1_554 S
C552 C543 1.429 1_565 S
C552 N549 1.350 1_556 S
C552 C551 1.434 1_556 S
C553 C554 1.369 . S
C553 C555 1.419 . S
C553 H557 0.930 . S
C554 C553 1.369 . S
C554 C563 1.429 . S
C555 C553 1.419 . S
C555 C556 1.363 . S
C555 H558 0.929 . S
C556 C555 1.363 . S
C556 C562 1.428 . S
H557 C553 0.930 . S
H558 C555 0.929 . S
S559 N560 1.613 . S
S559 N561 1.610 . S
N560 S559 1.613 . S
N560 C563 1.350 . S
N561 S559 1.610 . S
N561 C562 1.351 . S
C562 C556 1.428 . S
C562 N561 1.351 . S
C562 C563 1.434 . S
C563 C554 1.429 . S
C563 N560 1.350 . S
C563 C562 1.434 . S
C564 C565 1.369 . S
C564 C566 1.419 . S
C564 H568 0.930 . S
C565 C564 1.369 . S
C565 C574 1.429 . S
C566 C564 1.419 . S
C566 C567 1.363 . S
C566 H569 0.929 . S
C567 C566 1.363 . S
C567 C573 1.428 . S
H568 C564 0.930 . S
H569 C566 0.929 . S
S570 N571 1.613 . S
S570 N572 1.610 . S
N571 S570 1.613 . S
N571 C574 1.350 . S
N572 S570 1.610 . S
N572 C573 1.351 . S
C573 C567 1.428 . S
C573 N572 1.351 . S
C573 C574 1.434 . S
C574 C565 1.429 . S
C574 N571 1.350 . S
C574 C573 1.434 . S
C575 C576 1.369 . S
C575 C577 1.419 . S
C575 H579 0.930 . S
C576 C575 1.369 . S
C576 C585 1.429 . S
C577 C575 1.419 . S
C577 C578 1.363 . S
C577 H580 0.929 . S
C578 C577 1.363 . S
C578 C584 1.428 . S
H579 C575 0.930 . S
H580 C577 0.929 . S
S581 N582 1.613 . S
S581 N583 1.610 . S
N582 S581 1.613 . S
N582 C585 1.350 . S
N583 S581 1.610 . S
N583 C584 1.351 . S
C584 C578 1.428 . S
C584 N583 1.351 . S
C584 C585 1.434 . S
C585 C576 1.429 . S
C585 N582 1.350 . S
C585 C584 1.434 . S
C586 C587 1.369 . S
C586 C588 1.419 . S
C586 H590 0.930 . S
C587 C586 1.369 . S
C587 C596 1.429 . S
C588 C586 1.419 . S
C588 C589 1.363 . S
C588 H591 0.929 . S
C589 C588 1.363 . S
C589 C595 1.428 . S
H590 C586 0.930 . S
H591 C588 0.929 . S
S592 N593 1.613 1_545 S
S592 N594 1.610 . S
N593 S592 1.613 1_565 S
N593 C596 1.350 1_565 S
N594 S592 1.610 . S
N594 C595 1.351 . S
C595 C589 1.428 . S
C595 N594 1.351 . S
C595 C596 1.434 . S
C596 C587 1.429 . S
C596 N593 1.350 1_545 S
C596 C595 1.434 . S
C597 C598 1.369 . S
C597 C599 1.419 . S
C597 H601 0.930 . S
C598 C597 1.369 . S
C598 C607 1.429 . S
C599 C597 1.419 . S
C599 C600 1.363 . S
C599 H602 0.929 . S
C600 C599 1.363 . S
C600 C606 1.428 . S
H601 C597 0.930 . S
H602 C599 0.929 . S
S603 N604 1.613 . S
S603 N605 1.610 . S
N604 S603 1.613 . S
N604 C607 1.350 . S
N605 S603 1.610 . S
N605 C606 1.351 . S
C606 C600 1.428 . S
C606 N605 1.351 . S
C606 C607 1.434 . S
C607 C598 1.429 . S
C607 N604 1.350 . S
C607 C606 1.434 . S
C608 C609 1.369 . S
C608 C610 1.419 . S
C608 H612 0.930 . S
C609 C608 1.369 . S
C609 C618 1.429 . S
C610 C608 1.419 . S
C610 C611 1.363 . S
C610 H613 0.929 . S
C611 C610 1.363 . S
C611 C617 1.428 . S
H612 C608 0.930 . S
H613 C610 0.929 . S
S614 N615 1.613 . S
S614 N616 1.610 . S
N615 S614 1.613 . S
N615 C618 1.350 . S
N616 S614 1.610 . S
N616 C617 1.351 . S
C617 C611 1.428 . S
C617 N616 1.351 . S
C617 C618 1.434 . S
C618 C609 1.429 . S
C618 N615 1.350 . S
C618 C617 1.434 . S
C619 C620 1.369 . S
C619 C621 1.419 . S
C619 H623 0.930 . S
C620 C619 1.369 . S
C620 C629 1.429 . S
C621 C619 1.419 . S
C621 C622 1.363 . S
C621 H624 0.929 . S
C622 C621 1.363 . S
C622 C628 1.428 . S
H623 C619 0.930 . S
H624 C621 0.929 . S
S625 N626 1.613 . S
S625 N627 1.610 . S
N626 S625 1.613 . S
N626 C629 1.350 . S
N627 S625 1.610 . S
N627 C628 1.351 . S
C628 C622 1.428 . S
C628 N627 1.351 . S
C628 C629 1.434 . S
C629 C620 1.429 . S
C629 N626 1.350 . S
C629 C628 1.434 . S
C630 C631 1.369 . S
C630 C632 1.419 . S
C630 H634 0.930 . S
C631 C630 1.369 . S
C631 C640 1.429 . S
C632 C630 1.419 . S
C632 C633 1.363 . S
C632 H635 0.929 . S
C633 C632 1.363 . S
C633 C639 1.428 . S
H634 C630 0.930 . S
H635 C632 0.929 . S
S636 N637 1.613 . S
S636 N638 1.610 . S
N637 S636 1.613 . S
N637 C640 1.350 . S
N638 S636 1.610 . S
N638 C639 1.351 . S
C639 C633 1.428 . S
C639 N638 1.351 . S
C639 C640 1.434 . S
C640 C631 1.429 . S
C640 N637 1.350 . S
C640 C639 1.434 . S
C641 C642 1.369 . S
C641 C643 1.419 . S
C641 H645 0.930 . S
C642 C641 1.369 . S
C642 C651 1.429 . S
C643 C641 1.419 . S
C643 C644 1.363 . S
C643 H646 0.929 . S
C644 C643 1.363 . S
C644 C650 1.428 . S
H645 C641 0.930 . S
H646 C643 0.929 . S
S647 N648 1.613 . S
S647 N649 1.610 . S
N648 S647 1.613 . S
N648 C651 1.350 . S
N649 S647 1.610 . S
N649 C650 1.351 . S
C650 C644 1.428 . S
C650 N649 1.351 . S
C650 C651 1.434 . S
C651 C642 1.429 . S
C651 N648 1.350 . S
C651 C650 1.434 . S
C652 C653 1.369 . S
C652 C654 1.419 . S
C652 H656 0.930 . S
C653 C652 1.369 . S
C653 C662 1.429 . S
C654 C652 1.419 . S
C654 C655 1.363 . S
C654 H657 0.929 . S
C655 C654 1.363 . S
C655 C661 1.428 . S
H656 C652 0.930 . S
H657 C654 0.929 . S
S658 N659 1.613 . S
S658 N660 1.610 . S
N659 S658 1.613 . S
N659 C662 1.350 . S
N660 S658 1.610 . S
N660 C661 1.351 . S
C661 C655 1.428 . S
C661 N660 1.351 . S
C661 C662 1.434 . S
C662 C653 1.429 . S
C662 N659 1.350 . S
C662 C661 1.434 . S
C663 C664 1.369 . S
C663 C665 1.419 1_455 S
C663 H667 0.930 . S
C664 C663 1.369 . S
C664 C673 1.429 . S
C665 C663 1.419 1_655 S
C665 C666 1.363 . S
C665 H668 0.929 . S
C666 C665 1.363 . S
C666 C672 1.428 . S
H667 C663 0.930 . S
H668 C665 0.929 . S
S669 N670 1.613 . S
S669 N671 1.610 1_455 S
N670 S669 1.613 . S
N670 C673 1.350 . S
N671 S669 1.610 1_655 S
N671 C672 1.351 . S
C672 C666 1.428 . S
C672 N671 1.351 . S
C672 C673 1.434 1_655 S
C673 C664 1.429 . S
C673 N670 1.350 . S
C673 C672 1.434 1_455 S
C674 C675 1.369 . S
C674 C676 1.419 . S
C674 H678 0.930 . S
C675 C674 1.369 . S
C675 C684 1.429 . S
C676 C674 1.419 . S
C676 C677 1.363 . S
C676 H679 0.929 . S
C677 C676 1.363 . S
C677 C683 1.428 . S
H678 C674 0.930 . S
H679 C676 0.929 . S
S680 N681 1.613 . S
S680 N682 1.610 . S
N681 S680 1.613 . S
N681 C684 1.350 . S
N682 S680 1.610 . S
N682 C683 1.351 . S
C683 C677 1.428 . S
C683 N682 1.351 . S
C683 C684 1.434 . S
C684 C675 1.429 . S
C684 N681 1.350 . S
C684 C683 1.434 . S
C685 C686 1.369 . S
C685 C687 1.419 1_655 S
C685 H689 0.930 . S
C686 C685 1.369 . S
C686 C695 1.429 . S
C687 C685 1.419 1_455 S
C687 C688 1.363 . S
C687 H690 0.929 . S
C688 C687 1.363 . S
C688 C694 1.428 1_455 S
H689 C685 0.930 . S
H690 C687 0.929 . S
S691 N692 1.613 . S
S691 N693 1.610 . S
N692 S691 1.613 . S
N692 C695 1.350 . S
N693 S691 1.610 . S
N693 C694 1.351 . S
C694 C688 1.428 1_655 S
C694 N693 1.351 . S
C694 C695 1.434 . S
C695 C686 1.429 . S
C695 N692 1.350 . S
C695 C694 1.434 . S
C696 C697 1.369 . S
C696 C698 1.419 . S
C696 H700 0.930 . S
C697 C696 1.369 . S
C697 C706 1.429 . S
C698 C696 1.419 . S
C698 C699 1.363 . S
C698 H701 0.929 . S
C699 C698 1.363 . S
C699 C705 1.428 . S
H700 C696 0.930 . S
H701 C698 0.929 . S
S702 N703 1.613 . S
S702 N704 1.610 . S
N703 S702 1.613 . S
N703 C706 1.350 . S
N704 S702 1.610 . S
N704 C705 1.351 . S
C705 C699 1.428 . S
C705 N704 1.351 . S
C705 C706 1.434 . S
C706 C697 1.429 . S
C706 N703 1.350 . S
C706 C705 1.434 . S
C707 C708 1.369 . S
C707 C709 1.419 . S
C707 H711 0.930 . S
C708 C707 1.369 . S
C708 C717 1.429 . S
C709 C707 1.419 . S
C709 C710 1.363 . S
C709 H712 0.929 . S
C710 C709 1.363 . S
C710 C716 1.428 . S
H711 C707 0.930 . S
H712 C709 0.929 . S
S713 N714 1.613 1_556 S
S713 N715 1.610 . S
N714 S713 1.613 1_554 S
N714 C717 1.350 . S
N715 S713 1.610 . S
N715 C716 1.351 1_556 S
C716 C710 1.428 . S
C716 N715 1.351 1_554 S
C716 C717 1.434 . S
C717 C708 1.429 . S
C717 N714 1.350 . S
C717 C716 1.434 . S
C718 C719 1.369 . S
C718 C720 1.419 . S
C718 H722 0.930 . S
C719 C718 1.369 . S
C719 C728 1.429 . S
C720 C718 1.419 . S
C720 C721 1.363 . S
C720 H723 0.929 . S
C721 C720 1.363 . S
C721 C727 1.428 . S
H722 C718 0.930 . S
H723 C720 0.929 . S
S724 N725 1.613 . S
S724 N726 1.610 . S
N725 S724 1.613 . S
N725 C728 1.350 . S
N726 S724 1.610 . S
N726 C727 1.351 . S
C727 C721 1.428 . S
C727 N726 1.351 . S
C727 C728 1.434 . S
C728 C719 1.429 . S
C728 N725 1.350 . S
C728 C727 1.434 . S
C729 C730 1.369 . S
C729 C731 1.419 . S
C729 H733 0.930 . S
C730 C729 1.369 . S
C730 C739 1.429 . S
C731 C729 1.419 . S
C731 C732 1.363 . S
C731 H734 0.929 . S
C732 C731 1.363 . S
C732 C738 1.428 . S
H733 C729 0.930 . S
H734 C731 0.929 . S
S735 N736 1.613 . S
S735 N737 1.610 . S
N736 S735 1.613 . S
N736 C739 1.350 . S
N737 S735 1.610 . S
N737 C738 1.351 . S
C738 C732 1.428 . S
C738 N737 1.351 . S
C738 C739 1.434 . S
C739 C730 1.429 . S
C739 N736 1.350 . S
C739 C738 1.434 . S
C740 C741 1.369 . S
C740 C742 1.419 . S
C740 H744 0.930 . S
C741 C740 1.369 . S
C741 C750 1.429 . S
C742 C740 1.419 . S
C742 C743 1.363 . S
C742 H745 0.929 . S
C743 C742 1.363 . S
C743 C749 1.428 . S
H744 C740 0.930 . S
H745 C742 0.929 . S
S746 N747 1.613 . S
S746 N748 1.610 . S
N747 S746 1.613 . S
N747 C750 1.350 . S
N748 S746 1.610 . S
N748 C749 1.351 . S
C749 C743 1.428 . S
C749 N748 1.351 . S
C749 C750 1.434 . S
C750 C741 1.429 . S
C750 N747 1.350 . S
C750 C749 1.434 . S
C751 C752 1.369 . S
C751 C753 1.419 . S
C751 H755 0.930 . S
C752 C751 1.369 . S
C752 C761 1.429 . S
C753 C751 1.419 . S
C753 C754 1.363 . S
C753 H756 0.929 . S
C754 C753 1.363 . S
C754 C760 1.428 . S
H755 C751 0.930 . S
H756 C753 0.929 . S
S757 N758 1.613 1_554 S
S757 N759 1.610 . S
N758 S757 1.613 1_556 S
N758 C761 1.350 1_556 S
N759 S757 1.610 . S
N759 C760 1.351 . S
C760 C754 1.428 . S
C760 N759 1.351 . S
C760 C761 1.434 . S
C761 C752 1.429 . S
C761 N758 1.350 1_554 S
C761 C760 1.434 . S
C762 C763 1.369 . S
C762 C764 1.419 . S
C762 H766 0.930 . S
C763 C762 1.369 . S
C763 C772 1.429 . S
C764 C762 1.419 . S
C764 C765 1.363 . S
C764 H767 0.929 . S
C765 C764 1.363 . S
C765 C771 1.428 . S
H766 C762 0.930 . S
H767 C764 0.929 . S
S768 N769 1.613 . S
S768 N770 1.610 . S
N769 S768 1.613 . S
N769 C772 1.350 . S
N770 S768 1.610 . S
N770 C771 1.351 . S
C771 C765 1.428 . S
C771 N770 1.351 . S
C771 C772 1.434 . S
C772 C763 1.429 . S
C772 N769 1.350 . S
C772 C771 1.434 . S
C773 C774 1.369 . S
C773 C775 1.419 . S
C773 H777 0.930 . S
C774 C773 1.369 . S
C774 C783 1.429 . S
C775 C773 1.419 . S
C775 C776 1.363 . S
C775 H778 0.929 . S
C776 C775 1.363 . S
C776 C782 1.428 . S
H777 C773 0.930 . S
H778 C775 0.929 . S
S779 N780 1.613 . S
S779 N781 1.610 . S
N780 S779 1.613 . S
N780 C783 1.350 . S
N781 S779 1.610 . S
N781 C782 1.351 . S
C782 C776 1.428 . S
C782 N781 1.351 . S
C782 C783 1.434 . S
C783 C774 1.429 . S
C783 N780 1.350 . S
C783 C782 1.434 . S
C784 C785 1.369 . S
C784 C786 1.419 . S
C784 H788 0.930 . S
C785 C784 1.369 . S
C785 C794 1.429 . S
C786 C784 1.419 . S
C786 C787 1.363 . S
C786 H789 0.929 . S
C787 C786 1.363 . S
C787 C793 1.428 . S
H788 C784 0.930 . S
H789 C786 0.929 . S
S790 N791 1.613 . S
S790 N792 1.610 . S
N791 S790 1.613 . S
N791 C794 1.350 . S
N792 S790 1.610 . S
N792 C793 1.351 . S
C793 C787 1.428 . S
C793 N792 1.351 . S
C793 C794 1.434 . S
C794 C785 1.429 . S
C794 N791 1.350 . S
C794 C793 1.434 . S
C795 C796 1.369 . S
C795 C797 1.419 . S
C795 H799 0.930 . S
C796 C795 1.369 . S
C796 C805 1.429 . S
C797 C795 1.419 . S
C797 C798 1.363 . S
C797 H800 0.929 . S
C798 C797 1.363 . S
C798 C804 1.428 . S
H799 C795 0.930 . S
H800 C797 0.929 . S
S801 N802 1.613 . S
S801 N803 1.610 . S
N802 S801 1.613 . S
N802 C805 1.350 . S
N803 S801 1.610 . S
N803 C804 1.351 . S
C804 C798 1.428 . S
C804 N803 1.351 . S
C804 C805 1.434 . S
C805 C796 1.429 . S
C805 N802 1.350 . S
C805 C804 1.434 . S
C806 C807 1.369 . S
C806 C808 1.419 . S
C806 H810 0.930 . S
C807 C806 1.369 . S
C807 C816 1.429 . S
C808 C806 1.419 . S
C808 C809 1.363 . S
C808 H811 0.929 . S
C809 C808 1.363 . S
C809 C815 1.428 . S
H810 C806 0.930 . S
H811 C808 0.929 . S
S812 N813 1.613 . S
S812 N814 1.610 . S
N813 S812 1.613 . S
N813 C816 1.350 . S
N814 S812 1.610 . S
N814 C815 1.351 . S
C815 C809 1.428 . S
C815 N814 1.351 . S
C815 C816 1.434 . S
C816 C807 1.429 . S
C816 N813 1.350 . S
C816 C815 1.434 . S
C817 C818 1.369 . S
C817 C819 1.419 . S
C817 H821 0.930 . S
C818 C817 1.369 . S
C818 C827 1.429 . S
C819 C817 1.419 . S
C819 C820 1.363 . S
C819 H822 0.929 . S
C820 C819 1.363 . S
C820 C826 1.428 . S
H821 C817 0.930 . S
H822 C819 0.929 . S
S823 N824 1.613 . S
S823 N825 1.610 . S
N824 S823 1.613 . S
N824 C827 1.350 . S
N825 S823 1.610 . S
N825 C826 1.351 . S
C826 C820 1.428 . S
C826 N825 1.351 . S
C826 C827 1.434 . S
C827 C818 1.429 . S
C827 N824 1.350 . S
C827 C826 1.434 . S
C828 C829 1.369 . S
C828 C830 1.419 . S
C828 H832 0.930 . S
C829 C828 1.369 . S
C829 C838 1.429 . S
C830 C828 1.419 . S
C830 C831 1.363 . S
C830 H833 0.929 . S
C831 C830 1.363 . S
C831 C837 1.428 . S
H832 C828 0.930 . S
H833 C830 0.929 . S
S834 N835 1.613 . S
S834 N836 1.610 . S
N835 S834 1.613 . S
N835 C838 1.350 . S
N836 S834 1.610 . S
N836 C837 1.351 . S
C837 C831 1.428 . S
C837 N836 1.351 . S
C837 C838 1.434 . S
C838 C829 1.429 . S
C838 N835 1.350 . S
C838 C837 1.434 . S
C839 C840 1.369 . S
C839 C841 1.419 . S
C839 H843 0.930 . S
C840 C839 1.369 . S
C840 C849 1.429 . S
C841 C839 1.419 . S
C841 C842 1.363 . S
C841 H844 0.929 . S
C842 C841 1.363 . S
C842 C848 1.428 . S
H843 C839 0.930 . S
H844 C841 0.929 . S
S845 N846 1.613 . S
S845 N847 1.610 . S
N846 S845 1.613 . S
N846 C849 1.350 . S
N847 S845 1.610 . S
N847 C848 1.351 . S
C848 C842 1.428 . S
C848 N847 1.351 . S
C848 C849 1.434 . S
C849 C840 1.429 . S
C849 N846 1.350 . S
C849 C848 1.434 . S
C850 C851 1.369 . S
C850 C852 1.419 . S
C850 H854 0.930 . S
C851 C850 1.369 . S
C851 C860 1.429 . S
C852 C850 1.419 . S
C852 C853 1.363 . S
C852 H855 0.929 . S
C853 C852 1.363 . S
C853 C859 1.428 . S
H854 C850 0.930 . S
H855 C852 0.929 . S
S856 N857 1.613 . S
S856 N858 1.610 . S
N857 S856 1.613 . S
N857 C860 1.350 . S
N858 S856 1.610 . S
N858 C859 1.351 . S
C859 C853 1.428 . S
C859 N858 1.351 . S
C859 C860 1.434 . S
C860 C851 1.429 . S
C860 N857 1.350 . S
C860 C859 1.434 . S
C861 C862 1.369 . S
C861 C863 1.419 . S
C861 H865 0.930 . S
C862 C861 1.369 . S
C862 C871 1.429 . S
C863 C861 1.419 . S
C863 C864 1.363 1_545 S
C863 H866 0.929 1_545 S
C864 C863 1.363 1_565 S
C864 C870 1.428 1_565 S
H865 C861 0.930 . S
H866 C863 0.929 1_565 S
S867 N868 1.613 . S
S867 N869 1.610 . S
N868 S867 1.613 . S
N868 C871 1.350 . S
N869 S867 1.610 . S
N869 C870 1.351 . S
C870 C864 1.428 1_545 S
C870 N869 1.351 . S
C870 C871 1.434 . S
C871 C862 1.429 . S
C871 N868 1.350 . S
C871 C870 1.434 . S
C347 C184 1.272 1_556 S
C345 C62 1.239 . S
C358 C199 1.767 . S
C356 C73 1.716 . S
C367 C84 1.736 . S
C369 C212 1.754 . S
C380 C226 1.439 . S
C378 C49 1.132 . S
C391 C238 1.498 . S
C389 C118 1.545 . S
C402 C252 1.391 . S
C400 C137 1.362 . S
C411 C129 1.717 . S
C413 C266 1.667 . S
C424 C281 1.672 . S
C422 C106 1.652 . S
C433 C128 1.769 . S
C435 C297 1.850 . S
C446 C310 1.596 . S
C444 C104 1.248 . S
C455 C115 1.566 . S
C457 C295 1.738 . S
C468 C308 1.613 . S
C466 C139 1.611 . S
C477 C85 1.861 . S
C479 C324 1.857 . S
C488 C52 1.349 . S
C490 C323 1.426 . S
C499 C60 1.240 . S
C501 C322 1.336 . S
C510 C71 1.493 . S
C512 C325 1.752 . S
C521 C40 1.799 . S
C523 C227 1.890 1_565 S
C532 C162 1.217 . S
C534 C225 1.205 . S
C545 C185 1.312 . S
C543 C173 1.269 . S
C556 C196 1.916 . S
C554 C93 1.806 . S
C565 C51 1.535 . S
C567 C241 1.626 . S
C578 C282 1.840 . S
C576 C126 1.659 . S
C589 C239 1.768 . S
C587 C107 1.656 1_545 S
C600 C267 1.607 . S
C598 C140 1.630 . S
C611 C268 1.270 . S
C609 C161 1.228 . S
C620 C172 1.711 . S
C622 C283 1.765 . S
C631 C95 1.735 . S
C633 C240 1.755 . S
C644 C254 1.446 . S
C642 C148 1.111 . S
C653 C41 1.547 . S
C655 C210 1.500 . S
C666 C224 1.396 . S
C664 C5 1.352 . S
C677 C182 1.669 . S
C675 C19 1.718 . S
C688 C197 1.673 . S
C686 C29 1.653 . S
C697 C18 1.769 . S
C699 C311 1.850 . S
C708 C27 1.247 . S
C710 C296 1.600 . S
C719 C38 1.564 . S
C721 C309 1.740 . S
C730 C7 1.611 . S
C732 C294 1.611 . S
C743 C338 1.856 . S
C741 C96 1.862 . S
C754 C337 1.423 . S
C752 C151 1.362 1_554 S
C765 C336 1.342 . S
C763 C159 1.246 . S
C774 C170 1.486 1_554 S
C776 C339 1.755 . S
C785 C117 1.801 . S
C787 C255 1.889 . S
C798 C253 1.211 . S
C796 C63 1.218 . S
C809 C269 1.311 . S
C807 C74 1.272 . S
C820 C280 1.916 . S
C818 C82 1.809 . S
C829 C150 1.533 . S
C831 C213 1.627 . S
C842 C198 1.840 . S
C840 C16 1.657 . S
C851 C30 1.689 . S
C853 C211 1.770 . S
C864 C183 1.609 . S
C862 C8 1.633 . S
