# Generated by pormake.
# Topology pth, (4,4)-cn, num edge types: 1
# Building blocks:
#     Node 0, Type 0, BuildingBlock: QUQFOY_clean_sbu_3, # of connection points: 4
#     Node 1, Type 0, BuildingBlock: QUQFOY_clean_sbu_3, # of connection points: 4
#     Node 2, Type 0, BuildingBlock: QUQFOY_clean_sbu_3, # of connection points: 4
#     Node 3, Type 1, BuildingBlock: MUDLON_clean_sbu_0, # of connection points: 4
#     Node 4, Type 1, BuildingBlock: MUDLON_clean_sbu_0, # of connection points: 4
#     Node 5, Type 1, BuildingBlock: MUDLON_clean_sbu_0, # of connection points: 4
#     Edge 6, Type (0, 1), BuildingBlock: FUNLAD_clean_linker_0, # of connection points: 2
#     Edge 7, Type (0, 1), BuildingBlock: FUNLAD_clean_linker_0, # of connection points: 2
#     Edge 8, Type (0, 1), BuildingBlock: FUNLAD_clean_linker_0, # of connection points: 2
#     Edge 9, Type (0, 1), BuildingBlock: FUNLAD_clean_linker_0, # of connection points: 2
#     Edge 10, Type (0, 1), BuildingBlock: FUNLAD_clean_linker_0, # of connection points: 2
#     Edge 11, Type (0, 1), BuildingBlock: FUNLAD_clean_linker_0, # of connection points: 2
#     Edge 12, Type (0, 1), BuildingBlock: FUNLAD_clean_linker_0, # of connection points: 2
#     Edge 13, Type (0, 1), BuildingBlock: FUNLAD_clean_linker_0, # of connection points: 2
#     Edge 14, Type (0, 1), BuildingBlock: FUNLAD_clean_linker_0, # of connection points: 2
#     Edge 15, Type (0, 1), BuildingBlock: FUNLAD_clean_linker_0, # of connection points: 2
#     Edge 16, Type (0, 1), BuildingBlock: FUNLAD_clean_linker_0, # of connection points: 2
#     Edge 17, Type (0, 1), BuildingBlock: FUNLAD_clean_linker_0, # of connection points: 2
# Relax obj value: 0.015
# Max RMSD: 0.071
# Mean RMSD: 0.054
data_MOF--net-pth--node1-QUQFOY_clean_sbu_3--node2-MUDLON_clean_sbu_0--edge1-FUNLAD_clean_linker_0
_symmetry_space_group_name_H-M    P1
_symmetry_Int_Tables_number       1
_symmetry_cell_setting            triclinic
loop_
_symmetry_equiv_pos_as_xyz
'x, y, z'
_cell_length_a     26.512937
_cell_length_b     26.378631
_cell_length_c     71.593521
_cell_angle_alpha  89.986444
_cell_angle_beta   90.865172
_cell_angle_gamma 120.74234
loop_
_atom_site_label
_atom_site_type_symbol
_atom_site_fract_x
_atom_site_fract_y
_atom_site_fract_z
_atom_type_partial_charge
C0 C 0.97574 0.16356 0.10822 0.0
O1 O 0.94344 0.15098 0.09367 0.0
Cd2 Cd 0.95459 0.10179 0.0671 0.0
O3 O 0.01389 0.14788 0.10941 0.0
Cd4 Cd 0.04895 0.09133 0.09112 0.0
C5 C 0.10105 0.19462 0.05723 0.0
O6 O 0.95422 0.01488 0.07717 0.0
O7 O 0.03246 0.02097 0.06623 0.0
O8 O 0.04556 0.05006 0.12174 0.0
C9 C 0.97691 0.99404 0.06638 0.0
O10 O 0.04712 0.17206 0.05263 0.0
C11 C 0.09296 0.04955 0.12057 0.0
O12 O 0.11593 0.17699 0.07177 0.0
O13 O 0.12188 0.07009 0.10568 0.0
C14 C 0.16006 0.13187 0.44437 0.0
O15 O 0.18629 0.15325 0.42913 0.0
Cd16 Cd 0.13881 0.15307 0.40032 0.0
O17 O 0.10449 0.10888 0.44526 0.0
Cd18 Cd 0.01998 0.0924 0.42448 0.0
C19 C 0.03875 0.00491 0.39351 0.0
O20 O 0.07401 0.18738 0.40834 0.0
O21 O 0.9865 0.12793 0.39794 0.0
O22 O 0.97894 0.11314 0.45195 0.0
C23 C 0.03329 0.17766 0.39679 0.0
O24 O 0.08538 0.05145 0.38854 0.0
C25 C 0.92872 0.0666 0.45069 0.0
O26 O 0.00813 0.00657 0.4068 0.0
O27 O 0.92056 0.03202 0.43713 0.0
C28 C 0.99457 0.17137 0.73672 0.0
O29 O 0.00383 0.20233 0.75135 0.0
Cd30 Cd 0.05024 0.19114 0.77902 0.0
O31 O 0.01188 0.13437 0.73604 0.0
Cd32 Cd 0.06534 0.09829 0.75568 0.0
C33 C 0.95745 0.04381 0.78803 0.0
O34 O 0.13797 0.19069 0.77139 0.0
O35 O 0.1285 0.11017 0.78253 0.0
O36 O 0.12694 0.10843 0.72945 0.0
C37 C 0.1557 0.1661 0.78286 0.0
O38 O 0.97799 0.09756 0.79267 0.0
C39 C 0.11143 0.05443 0.72802 0.0
O40 O 0.97845 0.03042 0.77422 0.0
O41 O 0.07324 0.01935 0.73946 0.0
Mg42 Mg 0.04858 0.59208 0.25648 0.0
C43 C 0.09555 0.51439 0.26853 0.0
O44 O 0.06068 0.48238 0.25469 0.0
C45 C 0.04947 0.68407 0.23416 0.0
O46 O 0.99439 0.64518 0.23758 0.0
C47 C 0.00238 0.52638 0.2203 0.0
O48 O 0.04346 0.57852 0.21465 0.0
O49 O 0.99086 0.51874 0.23764 0.0
O50 O 0.10534 0.56652 0.2709 0.0
O51 O 0.01186 0.61175 0.2806 0.0
C52 C 0.96709 0.61655 0.28315 0.0
O53 O 0.92838 0.60315 0.26956 0.0
O54 O 0.08878 0.67398 0.24034 0.0
Mg55 Mg 0.53115 0.06315 0.59027 0.0
C56 C 0.47176 0.12882 0.57459 0.0
O57 O 0.44827 0.11885 0.59119 0.0
C58 C 0.62208 0.07134 0.61455 0.0
O59 O 0.58461 0.01514 0.61126 0.0
C60 C 0.40742 0.99627 0.60845 0.0
O61 O 0.38608 0.98807 0.59131 0.0
O62 O 0.46264 0.02091 0.61105 0.0
O63 O 0.51079 0.11561 0.57143 0.0
O64 O 0.54866 0.00757 0.57214 0.0
C65 C 0.53753 0.00412 0.55467 0.0
O66 O 0.50533 0.02518 0.54819 0.0
O67 O 0.61191 0.10909 0.60705 0.0
Mg68 Mg 0.57249 0.57192 0.9248 0.0
C69 C 0.49228 0.44365 0.91295 0.0
O70 O 0.46685 0.44193 0.92873 0.0
C71 C 0.69808 0.64486 0.9393 0.0
O72 O 0.70496 0.66899 0.92278 0.0
C73 C 0.50964 0.56058 0.96077 0.0
O74 O 0.56386 0.58497 0.96714 0.0
O75 O 0.50035 0.5552 0.94318 0.0
O76 O 0.54031 0.49005 0.90896 0.0
O77 O 0.59848 0.64122 0.90381 0.0
C78 C 0.6113 0.62977 0.88787 0.0
O79 O 0.60358 0.57714 0.88489 0.0
O80 O 0.64898 0.59945 0.94308 0.0
C81 C 0.92946 0.21706 0.12236 0.0
C82 C 0.96949 0.19713 0.1238 0.0
C83 C 0.92486 0.25024 0.13679 0.0
C84 C 0.96045 0.26453 0.15301 0.0
C85 C 0.99912 0.2431 0.15466 0.0
C86 C 0.00385 0.21009 0.14022 0.0
C87 C 0.95916 0.30207 0.16836 0.0
C88 C 0.94313 0.34259 0.16573 0.0
C89 C 0.95098 0.38646 0.18029 0.0
C90 C 0.9639 0.44266 0.17456 0.0
C91 C 0.97774 0.48727 0.18768 0.0
C92 C 0.97764 0.47634 0.20689 0.0
H93 H 0.93634 0.33111 0.20447 0.0
C94 C 0.96073 0.419 0.21275 0.0
C95 C 0.94783 0.37446 0.19956 0.0
H96 H 0.9603 0.4093 0.22747 0.0
H97 H 0.9018 0.20737 0.11002 0.0
H98 H 0.89315 0.26421 0.13518 0.0
H99 H 0.02675 0.25294 0.16703 0.0
H100 H 0.03483 0.19513 0.1419 0.0
H101 H 0.97741 0.30009 0.18185 0.0
H102 H 0.93013 0.3486 0.15184 0.0
H103 H 0.96594 0.45296 0.15984 0.0
H104 H 0.99028 0.53094 0.18275 0.0
C105 C 0.82545 0.00401 0.46207 0.0
C106 C 0.8823 0.05328 0.46445 0.0
C107 C 0.78181 0.99172 0.47512 0.0
C108 C 0.79419 0.02853 0.49086 0.0
C109 C 0.85125 0.07715 0.49332 0.0
C110 C 0.89466 0.08963 0.48025 0.0
C111 C 0.74953 0.01765 0.50517 0.0
C112 C 0.69108 0.98789 0.50177 0.0
C113 C 0.64822 0.98411 0.51574 0.0
C114 C 0.59712 0.98276 0.50947 0.0
C115 C 0.55923 0.98595 0.52219 0.0
C116 C 0.57114 0.98956 0.54151 0.0
H117 H 0.69602 0.98281 0.54047 0.0
C118 C 0.61998 0.98644 0.54784 0.0
C119 C 0.65818 0.98387 0.53511 0.0
H120 H 0.63031 0.98873 0.56263 0.0
H121 H 0.81462 0.97486 0.45012 0.0
H122 H 0.73889 0.95296 0.47294 0.0
H123 H 0.86224 0.10608 0.50535 0.0
H124 H 0.93804 0.12773 0.48258 0.0
H125 H 0.76598 0.03922 0.51866 0.0
H126 H 0.67438 0.97097 0.48781 0.0
H127 H 0.58787 0.98206 0.49465 0.0
H128 H 0.5218 0.98783 0.51683 0.0
C129 C 0.88389 0.93704 0.79449 0.0
C130 C 0.90924 0.99704 0.79917 0.0
C131 C 0.83942 0.89344 0.80542 0.0
C132 C 0.81956 0.9089 0.82142 0.0
C133 C 0.84422 0.96895 0.82579 0.0
C134 C 0.88841 0.01237 0.81488 0.0
C135 C 0.77381 0.86469 0.83405 0.0
C136 C 0.75598 0.80678 0.83406 0.0
C137 C 0.7135 0.76331 0.84754 0.0
C138 C 0.68674 0.70315 0.84304 0.0
C139 C 0.6513 0.66015 0.85585 0.0
C140 C 0.64186 0.67608 0.87363 0.0
H141 H 0.723 0.82525 0.86938 0.0
C142 C 0.66671 0.73624 0.87799 0.0
C143 C 0.70238 0.77951 0.86511 0.0
H144 H 0.66072 0.74995 0.89163 0.0
H145 H 0.89843 0.92366 0.78239 0.0
H146 H 0.82088 0.84803 0.80107 0.0
H147 H 0.8298 0.98249 0.83789 0.0
H148 H 0.9066 0.05813 0.81892 0.0
H149 H 0.75547 0.88136 0.8441 0.0
H150 H 0.77357 0.7896 0.82395 0.0
H151 H 0.69435 0.68919 0.82967 0.0
H152 H 0.6327 0.61422 0.85197 0.0
C153 C 0.08884 0.01723 0.15351 0.0
C154 C 0.11059 0.02239 0.13543 0.0
C155 C 0.09796 0.9845 0.16705 0.0
C156 C 0.12763 0.95451 0.16267 0.0
C157 C 0.15277 0.963 0.14494 0.0
C158 C 0.14449 0.99677 0.13144 0.0
C159 C 0.13015 0.91184 0.17585 0.0
C160 C 0.08853 0.88276 0.18875 0.0
C161 C 0.0828 0.83392 0.20074 0.0
C162 C 0.02899 0.79897 0.20958 0.0
C163 C 0.01921 0.75127 0.22052 0.0
C164 C 0.06318 0.73714 0.22316 0.0
H165 H 0.17025 0.84733 0.1974 0.0
C166 C 0.11796 0.77286 0.21483 0.0
C167 C 0.12772 0.82085 0.20364 0.0
H168 H 0.15277 0.76316 0.21669 0.0
H169 H 0.06361 0.03757 0.15711 0.0
H170 H 0.08055 0.98201 0.18081 0.0
H171 H 0.17665 0.94132 0.14123 0.0
H172 H 0.16199 0.00023 0.11762 0.0
H173 H 0.16344 0.90028 0.17363 0.0
H174 H 0.05301 0.89174 0.1897 0.0
H175 H 0.99364 0.80797 0.20779 0.0
H176 H 0.97666 0.72521 0.22686 0.0
C177 C 0.25658 0.16775 0.46103 0.0
C178 C 0.19488 0.13488 0.46124 0.0
C179 C 0.28983 0.17125 0.47685 0.0
C180 C 0.26221 0.14118 0.49331 0.0
C181 C 0.20049 0.10891 0.49356 0.0
C182 C 0.1672 0.10578 0.47775 0.0
C183 C 0.29561 0.14251 0.51051 0.0
C184 C 0.35333 0.1603 0.51088 0.0
C185 C 0.38539 0.15739 0.52778 0.0
C186 C 0.43702 0.15576 0.52531 0.0
C187 C 0.46661 0.14918 0.54059 0.0
C188 C 0.44552 0.1445 0.55879 0.0
H189 H 0.3277 0.15918 0.54873 0.0
C190 C 0.39563 0.14929 0.5614 0.0
C191 C 0.36594 0.1558 0.54609 0.0
H192 H 0.37842 0.14635 0.57524 0.0
H193 H 0.27946 0.19144 0.44864 0.0
H194 H 0.33702 0.19823 0.47603 0.0
H195 H 0.17778 0.0856 0.50602 0.0
H196 H 0.11978 0.08026 0.47846 0.0
H197 H 0.27043 0.1249 0.52311 0.0
H198 H 0.37781 0.17368 0.49804 0.0
H199 H 0.45362 0.15774 0.51143 0.0
H200 H 0.50502 0.14591 0.53804 0.0
C201 C 0.2198 0.17173 0.80987 0.0
C202 C 0.20355 0.20059 0.79668 0.0
C203 C 0.26398 0.204 0.82322 0.0
C204 C 0.29285 0.266 0.82374 0.0
C205 C 0.2775 0.29478 0.81027 0.0
C206 C 0.23318 0.26251 0.79695 0.0
C207 C 0.33926 0.30221 0.83794 0.0
C208 C 0.34325 0.282 0.8549 0.0
C209 C 0.38569 0.32061 0.86968 0.0
C210 C 0.37002 0.30815 0.88849 0.0
C211 C 0.40615 0.3466 0.90268 0.0
C212 C 0.45929 0.39795 0.89839 0.0
H213 H 0.455 0.37997 0.85115 0.0
C214 C 0.47693 0.40827 0.87965 0.0
C215 C 0.44049 0.3701 0.86544 0.0
H216 H 0.51777 0.44718 0.87584 0.0
H217 H 0.19824 0.12406 0.80993 0.0
H218 H 0.27565 0.1801 0.83295 0.0
H219 H 0.29928 0.34249 0.81021 0.0
H220 H 0.22197 0.28612 0.78693 0.0
H221 H 0.36828 0.34854 0.8348 0.0
H222 H 0.31085 0.23731 0.85882 0.0
H223 H 0.32848 0.26987 0.89217 0.0
H224 H 0.39141 0.33708 0.91697 0.0
C225 C 0.95625 0.14721 0.70369 0.0
C226 C 0.9608 0.17589 0.72071 0.0
C227 C 0.92068 0.1473 0.68908 0.0
C228 C 0.88787 0.1753 0.69125 0.0
C229 C 0.8947 0.20638 0.70793 0.0
C230 C 0.93067 0.20666 0.72251 0.0
C231 C 0.84493 0.17141 0.67674 0.0
C232 C 0.81819 0.126 0.66449 0.0
C233 C 0.76964 0.11557 0.65133 0.0
C234 C 0.73418 0.05836 0.64408 0.0
C235 C 0.68702 0.04482 0.63208 0.0
C236 C 0.67408 0.08828 0.62678 0.0
H237 H 0.78473 0.20477 0.65072 0.0
C238 C 0.71027 0.14618 0.63359 0.0
C239 C 0.75766 0.15977 0.6458 0.0
H240 H 0.70161 0.1807 0.62966 0.0
H241 H 0.9797 0.12401 0.70168 0.0
H242 H 0.91893 0.12504 0.6762 0.0
H243 H 0.87066 0.22898 0.70995 0.0
H244 H 0.93346 0.22958 0.73539 0.0
H245 H 0.83129 0.20377 0.67737 0.0
H246 H 0.82879 0.09136 0.66507 0.0
H247 H 0.74241 0.02345 0.64792 0.0
H248 H 0.66052 -0.00017 0.62702 0.0
C249 C 0.96807 0.92261 0.04164 0.0
C250 C 0.94093 0.94354 0.05358 0.0
C251 C 0.93473 0.87648 0.02901 0.0
C252 C 0.87331 0.85039 0.02792 0.0
C253 C 0.84612 0.87023 0.04024 0.0
C254 C 0.8795 0.91642 0.05288 0.0
C255 C 0.83621 0.80268 0.01419 0.0
C256 C 0.85649 0.79469 0.99793 0.0
C257 C 0.81783 0.75157 0.9833 0.0
C258 C 0.83379 0.764 0.96451 0.0
C259 C 0.79618 0.72759 0.95022 0.0
C260 C 0.74202 0.67733 0.9544 0.0
H261 H 0.75244 0.68722 1.0019 0.0
C262 C 0.7278 0.66264 0.97326 0.0
C263 C 0.76524 0.69942 0.98757 0.0
H264 H 0.68664 0.624 0.977 0.0
H265 H 0.01529 0.94206 0.04198 0.0
H266 H 0.95738 0.86133 0.02027 0.0
H267 H 0.79887 0.85065 0.03986 0.0
H268 H 0.8572 0.93127 0.06195 0.0
H269 H 0.78957 0.77641 0.01695 0.0
H270 H 0.90194 0.82446 0.99431 0.0
H271 H 0.87444 0.80338 0.96082 0.0
H272 H 0.80873 0.74 0.93586 0.0
C273 C 0.05825 0.94387 0.37128 0.0
C274 C 0.01925 0.94901 0.38313 0.0
C275 C 0.03959 0.89285 0.36059 0.0
C276 C 0.98127 0.84559 0.3614 0.0
C277 C 0.9422 0.85058 0.37322 0.0
C278 C 0.96112 0.90149 0.38414 0.0
C279 C 0.95981 0.7926 0.34916 0.0
C280 C 0.99483 0.77197 0.34411 0.0
C281 C 0.97885 0.72426 0.33005 0.0
C282 C 0.01311 0.69772 0.32948 0.0
C283 C 0.00647 0.6597 0.31485 0.0
C284 C 0.96557 0.64748 0.30027 0.0
H285 H 0.90862 0.72952 0.31581 0.0
C286 C 0.92872 0.67119 0.30136 0.0
C287 C 0.93536 0.70938 0.31607 0.0
H288 H 0.89693 0.66289 0.29033 0.0
H289 H 0.10324 0.97966 0.37008 0.0
H290 H 0.07057 0.89143 0.35124 0.0
H291 H 0.8969 0.81511 0.37396 0.0
H292 H 0.92981 0.90421 0.393 0.0
H293 H 0.91432 0.77025 0.34441 0.0
H294 H 0.0384 0.79165 0.35045 0.0
H295 H 0.04686 0.7082 0.34003 0.0
H296 H 0.03534 0.64193 0.31458 0.0
C297 C 0.18915 0.07594 0.70479 0.0
C298 C 0.13779 0.03437 0.71384 0.0
C299 C 0.21486 0.05809 0.69143 0.0
C300 C 0.18962 0.99813 0.68665 0.0
C301 C 0.13765 0.95655 0.6954 0.0
C302 C 0.11233 0.97438 0.70906 0.0
C303 C 0.21595 0.97901 0.67205 0.0
C304 C 0.27454 0.00549 0.67011 0.0
C305 C 0.30391 0.99292 0.65475 0.0
C306 C 0.36258 0.00824 0.65744 0.0
C307 C 0.39497 0.00564 0.64266 0.0
C308 C 0.36973 0.98844 0.62465 0.0
H309 H 0.23257 0.96118 0.63431 0.0
C310 C 0.31007 0.97029 0.62211 0.0
C311 C 0.27741 0.97245 0.63701 0.0
H312 H 0.28926 0.95696 0.60843 0.0
H313 H 0.20978 0.12253 0.70808 0.0
H314 H 0.25398 0.09153 0.6846 0.0
H315 H 0.11698 0.91017 0.69181 0.0
H316 H 0.07254 0.94136 0.71569 0.0
H317 H 0.18665 0.94196 0.66309 0.0
H318 H 0.303 0.03856 0.68039 0.0
H319 H 0.38416 0.02422 0.67093 0.0
H320 H 0.4407 0.01978 0.6452 0.0
C321 C 0.20571 0.27311 0.05054 0.0
C322 C 0.14613 0.24083 0.0451 0.0
C323 C 0.24758 0.31578 0.03869 0.0
C324 C 0.23063 0.32676 0.0211 0.0
C325 C 0.17124 0.2943 0.01571 0.0
C326 C 0.12949 0.25232 0.02757 0.0
C327 C 0.27357 0.36883 0.0075 0.0
C328 C 0.32513 0.41695 0.01248 0.0
C329 C 0.36983 0.4576 0.9989 0.0
C330 C 0.42727 0.496 0.00552 0.0
C331 C 0.47197 0.53161 0.99323 0.0
C332 C 0.46038 0.52994 0.97394 0.0
H333 H 0.31365 0.43145 0.97394 0.0
C334 C 0.40234 0.49405 0.96737 0.0
C335 C 0.35749 0.45843 0.97969 0.0
H336 H 0.39176 0.49202 0.95261 0.0
H337 H 0.22007 0.26519 0.0639 0.0
H338 H 0.29319 0.33875 0.04314 0.0
H339 H 0.15697 0.30141 1.0022 0.0
H340 H 0.08412 0.2282 0.02282 0.0
H341 H 0.26126 0.35921 0.99286 0.0
H342 H 0.33628 0.42622 0.02723 0.0
H343 H 0.43817 0.49713 0.02022 0.0
H344 H 0.51609 0.55898 0.99884 0.0
C345 C 0.09677 0.27109 0.37912 0.0
C346 C 0.04245 0.21871 0.38129 0.0
C347 C 0.10623 0.308 0.36384 0.0
C348 C 0.06133 0.29334 0.35042 0.0
C349 C 0.007 0.24123 0.35275 0.0
C350 C 0.99757 0.20449 0.368 0.0
C351 C 0.0694 0.32931 0.33343 0.0
C352 C 0.11201 0.38626 0.33138 0.0
C353 C 0.11537 0.42066 0.31444 0.0
C354 C 0.13627 0.48132 0.31614 0.0
C355 C 0.13353 0.51319 0.30088 0.0
C356 C 0.11034 0.48503 0.28354 0.0
H357 H 0.08235 0.34761 0.29469 0.0
C358 C 0.09387 0.42545 0.28151 0.0
C359 C 0.09642 0.39366 0.29675 0.0
H360 H 0.07661 0.40251 0.26831 0.0
H361 H 0.13241 0.28309 0.38906 0.0
H362 H 0.14914 0.34697 0.36242 0.0
H363 H 0.97162 0.22857 0.34265 0.0
H364 H 0.95524 0.16446 0.3692 0.0
H365 H 0.03643 0.30826 0.32239 0.0
H366 H 0.14219 0.40985 0.34288 0.0
H367 H 0.15208 0.5035 0.32953 0.0
H368 H 0.14689 0.55909 0.30293 0.0
loop_
_geom_bond_atom_site_label_1
_geom_bond_atom_site_label_2
_geom_bond_distance
_geom_bond_site_symmetry_2
_ccdc_geom_bond_type
C0 O1 1.306 . S
C0 O3 1.160 . S
O1 C0 1.306 . S
O1 Cd2 2.228 1_455 S
Cd2 O1 2.228 1_655 S
Cd2 O6 2.273 . S
Cd2 O10 2.277 1_655 S
O3 C0 1.160 . S
O3 Cd4 2.203 . S
Cd4 O3 2.203 . S
Cd4 O6 2.411 1_455 S
Cd4 O7 2.333 . S
Cd4 O8 2.352 . S
Cd4 O12 2.277 . S
Cd4 O13 2.356 . S
C5 O10 1.209 . S
C5 O12 1.226 . S
O6 Cd2 2.273 . S
O6 Cd4 2.411 1_655 S
O6 C9 1.320 . S
O7 Cd4 2.333 . S
O7 C9 1.214 1_455 S
O8 Cd4 2.352 . S
O8 C11 1.258 . S
C9 O6 1.320 . S
C9 O7 1.214 1_655 S
O10 Cd2 2.277 1_455 S
O10 C5 1.209 . S
C11 O8 1.258 . S
C11 O13 1.282 . S
O12 Cd4 2.277 . S
O12 C5 1.226 . S
O13 Cd4 2.356 . S
O13 C11 1.282 . S
C14 O15 1.306 . S
C14 O17 1.160 . S
O15 C14 1.306 . S
O15 Cd16 2.228 . S
Cd16 O15 2.228 . S
Cd16 O20 2.273 . S
Cd16 O24 2.277 . S
O17 C14 1.160 . S
O17 Cd18 2.203 . S
Cd18 O17 2.203 . S
Cd18 O20 2.411 . S
Cd18 O21 2.333 1_455 S
Cd18 O22 2.352 1_455 S
Cd18 O26 2.277 1_445 S
Cd18 O27 2.356 1_455 S
C19 O24 1.209 1_565 S
C19 O26 1.226 1_455 S
O20 Cd16 2.273 . S
O20 Cd18 2.411 . S
O20 C23 1.320 . S
O21 Cd18 2.333 1_655 S
O21 C23 1.214 1_655 S
O22 Cd18 2.352 1_655 S
O22 C25 1.258 . S
C23 O20 1.320 . S
C23 O21 1.214 1_455 S
O24 Cd16 2.277 . S
O24 C19 1.209 1_545 S
C25 O22 1.258 . S
C25 O27 1.282 . S
O26 Cd18 2.277 1_665 S
O26 C19 1.226 1_655 S
O27 Cd18 2.356 1_655 S
O27 C25 1.282 . S
C28 O29 1.306 . S
C28 O31 1.160 . S
O29 C28 1.306 . S
O29 Cd30 2.228 . S
Cd30 O29 2.228 . S
Cd30 O34 2.273 1_655 S
Cd30 O38 2.277 . S
O31 C28 1.160 . S
O31 Cd32 2.203 1_655 S
Cd32 O31 2.203 1_455 S
Cd32 O34 2.411 . S
Cd32 O35 2.333 . S
Cd32 O36 2.352 . S
Cd32 O40 2.277 1_445 S
Cd32 O41 2.356 . S
C33 O38 1.209 . S
C33 O40 1.226 1_545 S
O34 Cd30 2.273 1_455 S
O34 Cd32 2.411 . S
O34 C37 1.320 . S
O35 Cd32 2.333 . S
O35 C37 1.214 . S
O36 Cd32 2.352 . S
O36 C39 1.258 . S
C37 O34 1.320 . S
C37 O35 1.214 . S
O38 Cd30 2.277 . S
O38 C33 1.209 . S
C39 O36 1.258 . S
C39 O41 1.282 . S
O40 Cd32 2.277 1_665 S
O40 C33 1.226 1_565 S
O41 Cd32 2.356 . S
O41 C39 1.282 . S
Mg42 O49 2.141 . S
Mg42 O50 2.048 . S
Mg42 O51 2.048 . S
Mg42 O54 2.141 . S
C43 O44 1.313 1_455 S
C43 O50 1.195 . S
O44 C43 1.313 1_655 S
C45 O46 1.239 1_455 S
C45 O54 1.289 . S
O46 C45 1.239 1_655 S
C47 O48 1.238 1_455 S
C47 O49 1.289 . S
O48 C47 1.238 1_655 S
O49 Mg42 2.141 . S
O49 C47 1.289 . S
O50 Mg42 2.048 . S
O50 C43 1.195 . S
O51 Mg42 2.048 . S
O51 C52 1.195 . S
C52 O51 1.195 . S
C52 O53 1.313 1_455 S
O53 C52 1.313 1_655 S
O54 Mg42 2.141 . S
O54 C45 1.289 . S
Mg55 O62 2.141 . S
Mg55 O63 2.048 . S
Mg55 O64 2.048 . S
Mg55 O67 2.141 . S
C56 O57 1.313 . S
C56 O63 1.195 . S
O57 C56 1.313 . S
C58 O59 1.245 . S
C58 O67 1.289 . S
O59 C58 1.245 . S
C60 O61 1.245 . S
C60 O62 1.289 . S
O61 C60 1.245 . S
O62 Mg55 2.141 . S
O62 C60 1.289 . S
O63 Mg55 2.048 . S
O63 C56 1.195 . S
O64 Mg55 2.048 . S
O64 C65 1.195 . S
C65 O64 1.195 . S
C65 O66 1.313 . S
O66 C65 1.313 . S
O67 Mg55 2.141 . S
O67 C58 1.289 . S
Mg68 O75 2.141 . S
Mg68 O76 2.048 . S
Mg68 O77 2.048 . S
Mg68 O80 2.141 . S
C69 O70 1.313 . S
C69 O76 1.195 . S
O70 C69 1.313 . S
C71 O72 1.245 . S
C71 O80 1.289 . S
O72 C71 1.245 . S
C73 O74 1.245 . S
C73 O75 1.289 . S
O74 C73 1.245 . S
O75 Mg68 2.141 . S
O75 C73 1.289 . S
O76 Mg68 2.048 . S
O76 C69 1.195 . S
O77 Mg68 2.048 . S
O77 C78 1.195 . S
C78 O77 1.195 . S
C78 O79 1.313 . S
O79 C78 1.313 . S
O80 Mg68 2.141 . S
O80 C71 1.289 . S
C81 C82 1.386 . S
C81 C83 1.383 . S
C81 H97 0.951 1_455 S
C82 C81 1.386 . S
C82 C86 1.383 . S
C83 C81 1.383 . S
C83 C84 1.402 . S
C83 H98 0.951 1_455 S
C84 C83 1.402 . S
C84 C85 1.375 . S
C84 C87 1.481 . S
C85 C84 1.375 . S
C85 C86 1.367 . S
C85 H99 0.951 . S
C86 C82 1.383 . S
C86 C85 1.367 . S
C86 H100 0.950 . S
C87 C84 1.481 . S
C87 C88 1.297 . S
C87 H101 0.950 . S
C88 C87 1.297 . S
C88 C89 1.479 . S
C88 H102 0.950 1_455 S
C89 C88 1.479 . S
C89 C90 1.375 . S
C89 C95 1.404 . S
C90 C89 1.375 . S
C90 C91 1.369 . S
C90 H103 0.950 1_455 S
C91 C90 1.369 . S
C91 C92 1.392 . S
C91 H104 0.951 1_455 S
C92 C91 1.392 . S
C92 C94 1.384 . S
H93 C95 0.949 . S
C94 C92 1.384 . S
C94 C95 1.385 . S
C94 H96 0.950 . S
C95 C89 1.404 . S
C95 H93 0.949 . S
C95 C94 1.385 . S
H96 C94 0.950 . S
H97 C81 0.951 1_655 S
H98 C83 0.951 1_655 S
H99 C85 0.951 . S
H100 C86 0.950 . S
H101 C87 0.950 . S
H102 C88 0.950 1_655 S
H103 C90 0.950 1_655 S
H104 C91 0.951 1_655 S
C105 C106 1.386 . S
C105 C107 1.383 . S
C105 H121 0.951 . S
C106 C105 1.386 . S
C106 C110 1.383 . S
C107 C105 1.383 . S
C107 C108 1.402 . S
C107 H122 0.951 . S
C108 C107 1.402 . S
C108 C109 1.375 . S
C108 C111 1.481 . S
C109 C108 1.375 . S
C109 C110 1.367 . S
C109 H123 0.951 . S
C110 C106 1.383 . S
C110 C109 1.367 . S
C110 H124 0.950 . S
C111 C108 1.481 . S
C111 C112 1.297 . S
C111 H125 0.950 . S
C112 C111 1.297 . S
C112 C113 1.479 . S
C112 H126 0.950 . S
C113 C112 1.479 . S
C113 C114 1.375 . S
C113 C119 1.404 . S
C114 C113 1.375 . S
C114 C115 1.369 . S
C114 H127 0.950 . S
C115 C114 1.369 . S
C115 C116 1.392 . S
C115 H128 0.951 . S
C116 C115 1.392 . S
C116 C118 1.384 . S
H117 C119 0.949 . S
C118 C116 1.384 . S
C118 C119 1.385 . S
C118 H120 0.950 . S
C119 C113 1.404 . S
C119 H117 0.949 . S
C119 C118 1.385 . S
H120 C118 0.950 . S
H121 C105 0.951 . S
H122 C107 0.951 . S
H123 C109 0.951 . S
H124 C110 0.950 . S
H125 C111 0.950 . S
H126 C112 0.950 . S
H127 C114 0.950 . S
H128 C115 0.951 . S
C129 C130 1.386 . S
C129 C131 1.383 . S
C129 H145 0.951 . S
C130 C129 1.386 . S
C130 C134 1.383 . S
C131 C129 1.383 . S
C131 C132 1.402 . S
C131 H146 0.951 . S
C132 C131 1.402 . S
C132 C133 1.375 . S
C132 C135 1.481 . S
C133 C132 1.375 . S
C133 C134 1.367 . S
C133 H147 0.951 . S
C134 C130 1.383 . S
C134 C133 1.367 . S
C134 H148 0.950 . S
C135 C132 1.481 . S
C135 C136 1.297 . S
C135 H149 0.950 . S
C136 C135 1.297 . S
C136 C137 1.479 . S
C136 H150 0.950 . S
C137 C136 1.479 . S
C137 C138 1.375 . S
C137 C143 1.404 . S
C138 C137 1.375 . S
C138 C139 1.369 . S
C138 H151 0.950 . S
C139 C138 1.369 . S
C139 C140 1.392 . S
C139 H152 0.951 . S
C140 C139 1.392 . S
C140 C142 1.384 . S
H141 C143 0.949 . S
C142 C140 1.384 . S
C142 C143 1.385 . S
C142 H144 0.950 . S
C143 C137 1.404 . S
C143 H141 0.949 . S
C143 C142 1.385 . S
H144 C142 0.950 . S
H145 C129 0.951 . S
H146 C131 0.951 . S
H147 C133 0.951 . S
H148 C134 0.950 . S
H149 C135 0.950 . S
H150 C136 0.950 . S
H151 C138 0.950 . S
H152 C139 0.951 . S
C153 C154 1.386 . S
C153 C155 1.383 . S
C153 H169 0.944 1_565 S
C154 C153 1.386 . S
C154 C158 1.383 . S
C155 C153 1.383 . S
C155 C156 1.402 . S
C155 H170 0.951 . S
C156 C155 1.402 . S
C156 C157 1.375 . S
C156 C159 1.481 . S
C157 C156 1.375 . S
C157 C158 1.367 . S
C157 H171 0.951 . S
C158 C154 1.383 . S
C158 C157 1.367 . S
C158 H172 0.950 . S
C159 C156 1.481 . S
C159 C160 1.297 . S
C159 H173 0.950 . S
C160 C159 1.297 . S
C160 C161 1.479 . S
C160 H174 0.950 . S
C161 C160 1.479 . S
C161 C162 1.375 . S
C161 C167 1.404 . S
C162 C161 1.375 . S
C162 C163 1.369 . S
C162 H175 0.950 . S
C163 C162 1.369 . S
C163 C164 1.392 . S
C163 H176 0.951 . S
C164 C163 1.392 . S
C164 C166 1.384 . S
H165 C167 0.949 . S
C166 C164 1.384 . S
C166 C167 1.385 . S
C166 H168 0.950 . S
C167 C161 1.404 . S
C167 H165 0.949 . S
C167 C166 1.385 . S
H168 C166 0.950 . S
H169 C153 0.944 1_545 S
H170 C155 0.951 . S
H171 C157 0.951 . S
H172 C158 0.950 . S
H173 C159 0.950 . S
H174 C160 0.950 . S
H175 C162 0.950 . S
H176 C163 0.951 . S
C177 C178 1.386 . S
C177 C179 1.383 . S
C177 H193 0.951 . S
C178 C177 1.386 . S
C178 C182 1.383 . S
C179 C177 1.383 . S
C179 C180 1.402 . S
C179 H194 0.951 . S
C180 C179 1.402 . S
C180 C181 1.375 . S
C180 C183 1.481 . S
C181 C180 1.375 . S
C181 C182 1.367 . S
C181 H195 0.951 1_545 S
C182 C178 1.383 . S
C182 C181 1.367 . S
C182 H196 0.950 . S
C183 C180 1.481 . S
C183 C184 1.297 . S
C183 H197 0.950 . S
C184 C183 1.297 . S
C184 C185 1.479 . S
C184 H198 0.950 . S
C185 C184 1.479 . S
C185 C186 1.375 . S
C185 C191 1.404 . S
C186 C185 1.375 . S
C186 C187 1.369 . S
C186 H199 0.950 . S
C187 C186 1.369 . S
C187 C188 1.392 . S
C187 H200 0.951 . S
C188 C187 1.392 . S
C188 C190 1.384 . S
H189 C191 0.949 . S
C190 C188 1.384 . S
C190 C191 1.385 . S
C190 H192 0.950 . S
C191 C185 1.404 . S
C191 H189 0.949 . S
C191 C190 1.385 . S
H192 C190 0.950 . S
H193 C177 0.951 . S
H194 C179 0.951 . S
H195 C181 0.951 1_565 S
H196 C182 0.950 . S
H197 C183 0.950 . S
H198 C184 0.950 . S
H199 C186 0.950 . S
H200 C187 0.951 . S
C201 C202 1.386 . S
C201 C203 1.383 . S
C201 H217 0.951 . S
C202 C201 1.386 . S
C202 C206 1.383 . S
C203 C201 1.383 . S
C203 C204 1.402 . S
C203 H218 0.951 . S
C204 C203 1.402 . S
C204 C205 1.375 . S
C204 C207 1.481 . S
C205 C204 1.375 . S
C205 C206 1.367 . S
C205 H219 0.951 . S
C206 C202 1.383 . S
C206 C205 1.367 . S
C206 H220 0.950 . S
C207 C204 1.481 . S
C207 C208 1.297 . S
C207 H221 0.950 . S
C208 C207 1.297 . S
C208 C209 1.479 . S
C208 H222 0.950 . S
C209 C208 1.479 . S
C209 C210 1.375 . S
C209 C215 1.404 . S
C210 C209 1.375 . S
C210 C211 1.369 . S
C210 H223 0.950 . S
C211 C210 1.369 . S
C211 C212 1.392 . S
C211 H224 0.951 . S
C212 C211 1.392 . S
C212 C214 1.384 . S
H213 C215 0.949 . S
C214 C212 1.384 . S
C214 C215 1.385 . S
C214 H216 0.950 . S
C215 C209 1.404 . S
C215 H213 0.949 . S
C215 C214 1.385 . S
H216 C214 0.950 . S
H217 C201 0.951 . S
H218 C203 0.951 . S
H219 C205 0.951 . S
H220 C206 0.950 . S
H221 C207 0.950 . S
H222 C208 0.950 . S
H223 C210 0.950 . S
H224 C211 0.951 . S
C225 C226 1.386 . S
C225 C227 1.383 . S
C225 H241 0.951 . S
C226 C225 1.386 . S
C226 C230 1.383 . S
C227 C225 1.383 . S
C227 C228 1.402 . S
C227 H242 0.951 . S
C228 C227 1.402 . S
C228 C229 1.375 . S
C228 C231 1.481 . S
C229 C228 1.375 . S
C229 C230 1.367 . S
C229 H243 0.951 . S
C230 C226 1.383 . S
C230 C229 1.367 . S
C230 H244 0.950 . S
C231 C228 1.481 . S
C231 C232 1.297 . S
C231 H245 0.950 . S
C232 C231 1.297 . S
C232 C233 1.479 . S
C232 H246 0.950 . S
C233 C232 1.479 . S
C233 C234 1.375 . S
C233 C239 1.404 . S
C234 C233 1.375 . S
C234 C235 1.369 . S
C234 H247 0.950 . S
C235 C234 1.369 . S
C235 C236 1.392 . S
C235 H248 0.951 . S
C236 C235 1.392 . S
C236 C238 1.384 . S
H237 C239 0.949 . S
C238 C236 1.384 . S
C238 C239 1.385 . S
C238 H240 0.950 . S
C239 C233 1.404 . S
C239 H237 0.949 . S
C239 C238 1.385 . S
H240 C238 0.950 . S
H241 C225 0.951 . S
H242 C227 0.951 . S
H243 C229 0.951 . S
H244 C230 0.950 . S
H245 C231 0.950 . S
H246 C232 0.950 . S
H247 C234 0.950 . S
H248 C235 0.951 . S
C249 C250 1.386 . S
C249 C251 1.383 . S
C249 H265 0.951 . S
C250 C249 1.386 . S
C250 C254 1.383 . S
C251 C249 1.383 . S
C251 C252 1.402 . S
C251 H266 0.951 . S
C252 C251 1.402 . S
C252 C253 1.375 . S
C252 C255 1.481 . S
C253 C252 1.375 . S
C253 C254 1.367 . S
C253 H267 0.951 . S
C254 C250 1.383 . S
C254 C253 1.367 . S
C254 H268 0.950 . S
C255 C252 1.481 . S
C255 C256 1.314 . S
C255 H269 0.950 . S
C256 C255 1.314 . S
C256 C257 1.467 1_554 S
C256 H270 0.945 1_554 S
C257 C256 1.467 1_556 S
C257 C258 1.375 . S
C257 C263 1.404 . S
C258 C257 1.375 . S
C258 C259 1.369 . S
C258 H271 0.950 . S
C259 C258 1.369 . S
C259 C260 1.392 . S
C259 H272 0.951 . S
C260 C259 1.392 . S
C260 C262 1.384 . S
H261 C263 0.949 1_554 S
C262 C260 1.384 . S
C262 C263 1.385 . S
C262 H264 0.950 . S
C263 C257 1.404 . S
C263 H261 0.949 1_556 S
C263 C262 1.385 . S
H264 C262 0.950 . S
H265 C249 0.951 . S
H266 C251 0.951 . S
H267 C253 0.951 . S
H268 C254 0.950 . S
H269 C255 0.950 . S
H270 C256 0.945 1_556 S
H271 C258 0.950 . S
H272 C259 0.951 . S
C273 C274 1.386 . S
C273 C275 1.383 . S
C273 H289 0.951 . S
C274 C273 1.386 . S
C274 C278 1.383 1_455 S
C275 C273 1.383 . S
C275 C276 1.402 . S
C275 H290 0.951 . S
C276 C275 1.402 . S
C276 C277 1.375 1_455 S
C276 C279 1.481 . S
C277 C276 1.375 1_655 S
C277 C278 1.367 . S
C277 H291 0.951 . S
C278 C274 1.383 1_655 S
C278 C277 1.367 . S
C278 H292 0.950 . S
C279 C276 1.481 . S
C279 C280 1.297 . S
C279 H293 0.950 1_455 S
C280 C279 1.297 . S
C280 C281 1.479 . S
C280 H294 0.950 . S
C281 C280 1.479 . S
C281 C282 1.375 . S
C281 C287 1.404 . S
C282 C281 1.375 . S
C282 C283 1.369 . S
C282 H295 0.950 . S
C283 C282 1.369 . S
C283 C284 1.392 . S
C283 H296 0.951 . S
C284 C283 1.392 . S
C284 C286 1.384 . S
H285 C287 0.949 1_655 S
C286 C284 1.384 . S
C286 C287 1.385 . S
C286 H288 0.950 1_455 S
C287 C281 1.404 . S
C287 H285 0.949 1_455 S
C287 C286 1.385 . S
H288 C286 0.950 1_655 S
H289 C273 0.951 . S
H290 C275 0.951 . S
H291 C277 0.951 . S
H292 C278 0.950 . S
H293 C279 0.950 1_655 S
H294 C280 0.950 . S
H295 C282 0.950 . S
H296 C283 0.951 . S
C297 C298 1.386 . S
C297 C299 1.383 . S
C297 H313 0.951 . S
C298 C297 1.386 . S
C298 C302 1.383 . S
C299 C297 1.383 . S
C299 C300 1.402 . S
C299 H314 0.951 . S
C300 C299 1.402 . S
C300 C301 1.375 . S
C300 C303 1.481 . S
C301 C300 1.375 . S
C301 C302 1.367 . S
C301 H315 0.951 . S
C302 C298 1.383 . S
C302 C301 1.367 . S
C302 H316 0.950 . S
C303 C300 1.481 . S
C303 C304 1.297 . S
C303 H317 0.950 . S
C304 C303 1.297 . S
C304 C305 1.479 . S
C304 H318 0.950 . S
C305 C304 1.479 . S
C305 C306 1.375 . S
C305 C311 1.404 . S
C306 C305 1.375 . S
C306 C307 1.369 . S
C306 H319 0.950 . S
C307 C306 1.369 . S
C307 C308 1.392 . S
C307 H320 0.951 . S
C308 C307 1.392 . S
C308 C310 1.384 . S
H309 C311 0.949 . S
C310 C308 1.384 . S
C310 C311 1.385 . S
C310 H312 0.950 . S
C311 C305 1.404 . S
C311 H309 0.949 . S
C311 C310 1.385 . S
H312 C310 0.950 . S
H313 C297 0.951 . S
H314 C299 0.951 . S
H315 C301 0.951 . S
H316 C302 0.950 . S
H317 C303 0.950 . S
H318 C304 0.950 . S
H319 C306 0.950 . S
H320 C307 0.951 . S
C321 C322 1.386 . S
C321 C323 1.383 . S
C321 H337 0.951 . S
C322 C321 1.386 . S
C322 C326 1.383 . S
C323 C321 1.383 . S
C323 C324 1.402 . S
C323 H338 0.951 . S
C324 C323 1.402 . S
C324 C325 1.375 . S
C324 C327 1.481 . S
C325 C324 1.375 . S
C325 C326 1.367 . S
C325 H339 0.951 . S
C326 C322 1.383 . S
C326 C325 1.367 . S
C326 H340 0.950 . S
C327 C324 1.481 . S
C327 C328 1.297 1_554 S
C327 H341 0.950 1_554 S
C328 C327 1.297 1_556 S
C328 C329 1.479 . S
C328 H342 0.950 . S
C329 C328 1.479 . S
C329 C330 1.375 . S
C329 C335 1.404 . S
C330 C329 1.375 . S
C330 C331 1.369 . S
C330 H343 0.950 . S
C331 C330 1.369 . S
C331 C332 1.392 . S
C331 H344 0.951 . S
C332 C331 1.392 . S
C332 C334 1.384 . S
H333 C335 0.949 . S
C334 C332 1.384 . S
C334 C335 1.385 . S
C334 H336 0.950 . S
C335 C329 1.404 . S
C335 H333 0.949 . S
C335 C334 1.385 . S
H336 C334 0.950 . S
H337 C321 0.951 . S
H338 C323 0.951 . S
H339 C325 0.951 . S
H340 C326 0.950 . S
H341 C327 0.950 1_556 S
H342 C328 0.950 . S
H343 C330 0.950 . S
H344 C331 0.951 . S
C345 C346 1.386 . S
C345 C347 1.383 . S
C345 H361 0.951 . S
C346 C345 1.386 . S
C346 C350 1.383 1_455 S
C347 C345 1.383 . S
C347 C348 1.402 . S
C347 H362 0.951 . S
C348 C347 1.402 . S
C348 C349 1.375 1_455 S
C348 C351 1.481 . S
C349 C348 1.375 1_655 S
C349 C350 1.367 . S
C349 H363 0.951 . S
C350 C346 1.383 1_655 S
C350 C349 1.367 . S
C350 H364 0.950 . S
C351 C348 1.481 . S
C351 C352 1.297 . S
C351 H365 0.950 1_455 S
C352 C351 1.297 . S
C352 C353 1.479 . S
C352 H366 0.950 . S
C353 C352 1.479 . S
C353 C354 1.375 . S
C353 C359 1.404 . S
C354 C353 1.375 . S
C354 C355 1.369 . S
C354 H367 0.950 . S
C355 C354 1.369 . S
C355 C356 1.392 . S
C355 H368 0.951 . S
C356 C355 1.392 . S
C356 C358 1.384 . S
H357 C359 0.949 1_655 S
C358 C356 1.384 . S
C358 C359 1.385 . S
C358 H360 0.950 1_455 S
C359 C353 1.404 . S
C359 H357 0.949 1_455 S
C359 C358 1.385 . S
H360 C358 0.950 1_655 S
H361 C345 0.951 . S
H362 C347 0.951 . S
H363 C349 0.951 . S
H364 C350 0.950 . S
H365 C351 0.950 1_655 S
H366 C352 0.950 . S
H367 C354 0.950 . S
H368 C355 0.951 . S
C92 C47 1.350 . S
C82 C0 1.393 . S
C106 C25 1.475 . S
C116 C65 1.442 . S
C130 C33 1.492 1_565 S
C140 C78 1.495 . S
C154 C11 1.354 1_565 S
C164 C45 1.311 . S
C188 C56 1.477 . S
C178 C14 1.483 . S
C202 C37 1.493 . S
C212 C69 1.468 . S
C236 C58 1.391 . S
C226 C28 1.401 . S
C250 C9 1.416 1_565 S
C260 C71 1.375 . S
C284 C52 1.503 . S
C274 C19 1.519 . S
C308 C60 1.362 . S
C298 C39 1.399 . S
C332 C73 1.393 . S
C322 C5 1.418 . S
C346 C23 1.525 . S
C356 C43 1.530 . S
