# Generated by pormake.
# Topology pth, (4,4)-cn, num edge types: 1
# Building blocks:
#     Node 0, Type 0, BuildingBlock: CEKHIL_clean_sbu_0, # of connection points: 4
#     Node 1, Type 0, BuildingBlock: CEKHIL_clean_sbu_0, # of connection points: 4
#     Node 2, Type 0, BuildingBlock: CEKHIL_clean_sbu_0, # of connection points: 4
#     Node 3, Type 1, BuildingBlock: NAWXER_clean_sbu_0, # of connection points: 4
#     Node 4, Type 1, BuildingBlock: NAWXER_clean_sbu_0, # of connection points: 4
#     Node 5, Type 1, BuildingBlock: NAWXER_clean_sbu_0, # of connection points: 4
#     Edge 6, Type (0, 1), BuildingBlock: MIFKUJ_clean_linker_0, # of connection points: 2
#     Edge 7, Type (0, 1), BuildingBlock: MIFKUJ_clean_linker_0, # of connection points: 2
#     Edge 8, Type (0, 1), BuildingBlock: MIFKUJ_clean_linker_0, # of connection points: 2
#     Edge 9, Type (0, 1), BuildingBlock: MIFKUJ_clean_linker_0, # of connection points: 2
#     Edge 10, Type (0, 1), BuildingBlock: MIFKUJ_clean_linker_0, # of connection points: 2
#     Edge 11, Type (0, 1), BuildingBlock: MIFKUJ_clean_linker_0, # of connection points: 2
#     Edge 12, Type (0, 1), BuildingBlock: MIFKUJ_clean_linker_0, # of connection points: 2
#     Edge 13, Type (0, 1), BuildingBlock: MIFKUJ_clean_linker_0, # of connection points: 2
#     Edge 14, Type (0, 1), BuildingBlock: MIFKUJ_clean_linker_0, # of connection points: 2
#     Edge 15, Type (0, 1), BuildingBlock: MIFKUJ_clean_linker_0, # of connection points: 2
#     Edge 16, Type (0, 1), BuildingBlock: MIFKUJ_clean_linker_0, # of connection points: 2
#     Edge 17, Type (0, 1), BuildingBlock: MIFKUJ_clean_linker_0, # of connection points: 2
# Relax obj value: 0.003
# Max RMSD: 0.042
# Mean RMSD: 0.026
data_MOF--net-pth--node1-CEKHIL_clean_sbu_0--node2-NAWXER_clean_sbu_0--edge1-MIFKUJ_clean_linker_0
_symmetry_space_group_name_H-M    P1
_symmetry_Int_Tables_number       1
_symmetry_cell_setting            triclinic
loop_
_symmetry_equiv_pos_as_xyz
'x, y, z'
_cell_length_a     29.454418
_cell_length_b     29.521493
_cell_length_c     75.1213
_cell_angle_alpha  90.816839
_cell_angle_beta   89.925947
_cell_angle_gamma 120.38491
loop_
_atom_site_label
_atom_site_type_symbol
_atom_site_fract_x
_atom_site_fract_y
_atom_site_fract_z
_atom_type_partial_charge
Co0 Co 0.03268 0.04736 0.08359 0.0
O1 O 1.00043 0.99564 0.10205 0.0
O2 O 0.06659 0.00575 0.08535 0.0
C3 C 0.03794 0.11457 0.10035 0.0
O4 O 0.07936 0.09748 0.06414 0.0
Co5 Co 0.98104 0.10683 0.06784 0.0
O6 O 0.04849 0.14914 0.05516 0.0
C7 C 0.93844 0.99486 0.05864 0.0
C8 C 0.03477 0.98167 0.09841 0.0
C9 C 0.08327 0.1356 0.0548 0.0
O10 O 0.97977 0.99669 0.0653 0.0
O11 O 0.92948 0.03291 0.06005 0.0
O12 O 0.07354 0.10114 0.10181 0.0
O13 O 0.99952 0.08567 0.08964 0.0
Co14 Co 0.03179 0.06165 0.40449 0.0
O15 O 0.00616 0.08799 0.3861 0.0
O16 O 0.0762 0.13774 0.40278 0.0
C17 C 0.02623 0.99429 0.38782 0.0
O18 O 0.07156 0.0476 0.42407 0.0
Co19 Co 0.9593 0.95036 0.41923 0.0
O20 O 0.02317 0.9632 0.43234 0.0
C21 C 0.94077 0.03608 0.4297 0.0
C22 C 0.04544 0.13442 0.38976 0.0
C23 C 0.06515 0.00799 0.43317 0.0
O24 O 0.985 0.06956 0.42267 0.0
O25 O 0.92115 0.98636 0.42819 0.0
O26 O 0.06671 0.04133 0.38662 0.0
O27 O 0.98876 0.99039 0.39784 0.0
Co28 Co 0.0181 0.03662 0.73626 0.0
O29 O 0.06948 0.07778 0.71854 0.0
O30 O 0.0714 0.01643 0.73445 0.0
C31 C 0.94673 0.01729 0.71922 0.0
O32 O 0.97076 0.98426 0.75515 0.0
Co33 Co 0.94383 0.0725 0.75164 0.0
O34 O 0.90951 0.00399 0.76376 0.0
C35 C 0.05501 0.12781 0.76302 0.0
C36 C 0.09249 0.05131 0.72204 0.0
C37 C 0.9296 0.9746 0.76421 0.0
O38 O 0.06093 0.09199 0.75515 0.0
O39 O 0.01253 0.12947 0.76184 0.0
O40 O 0.97007 0.9901 0.71765 0.0
O41 O 0.96952 0.05747 0.72991 0.0
C42 C 0.01013 0.60377 0.26736 0.0
C43 C 0.01428 0.47847 0.22436 0.0
O44 O 0.05641 0.61521 0.2625 0.0
Zn45 Zn 0.0937 0.58597 0.2452 0.0
O46 O 0.97032 0.56281 0.26092 0.0
Zn47 Zn 0.00917 0.53996 0.24566 0.0
O48 O 0.04872 0.51932 0.26514 0.0
O49 O 0.13465 0.56979 0.26175 0.0
O50 O 0.97321 0.47618 0.23084 0.0
O51 O 0.05974 0.51691 0.22872 0.0
O52 O 0.1274 0.64322 0.22814 0.0
O53 O 0.04077 0.59963 0.22588 0.0
C54 C 0.0958 0.53294 0.26985 0.0
C55 C 0.08566 0.63635 0.22059 0.0
C56 C 0.56394 0.00436 0.59862 0.0
C57 C 0.45222 0.01731 0.55261 0.0
O58 O 0.52741 0.96661 0.58966 0.0
Zn59 Zn 0.50709 0.0086 0.57553 0.0
O60 O 0.5752 0.05158 0.59563 0.0
Zn61 Zn 0.55052 0.09233 0.57824 0.0
O62 O 0.52678 0.12691 0.59506 0.0
O63 O 0.478 0.04045 0.59537 0.0
O64 O 0.48843 0.06195 0.55869 0.0
O65 O 0.44803 0.97546 0.55881 0.0
O66 O 0.57304 0.0477 0.55813 0.0
O67 O 0.61354 0.13286 0.56383 0.0
C68 C 0.48833 0.08553 0.60144 0.0
C69 C 0.61053 0.09436 0.55497 0.0
C70 C 0.48838 0.45478 0.93142 0.0
C71 C 0.61268 0.5746 0.88653 0.0
O72 O 0.47975 0.49105 0.9264 0.0
Zn73 Zn 0.51174 0.55661 0.90914 0.0
O74 O 0.52751 0.45291 0.92504 0.0
Zn75 Zn 0.55224 0.51292 0.90891 0.0
O76 O 0.58333 0.57836 0.92717 0.0
O77 O 0.53432 0.61526 0.92605 0.0
O78 O 0.61187 0.53421 0.8927 0.0
O79 O 0.57802 0.5859 0.8917 0.0
O80 O 0.4529 0.53582 0.89258 0.0
O81 O 0.4879 0.4853 0.8905 0.0
C82 C 0.57353 0.61393 0.93255 0.0
C83 C 0.45326 0.49658 0.88547 0.0
H84 H 0.10567 0.1723 0.12753 0.0
H85 H 0.09837 0.23348 0.14809 0.0
H86 H 0.96072 0.21003 0.11971 0.0
H87 H 0.96817 0.14948 0.09903 0.0
H88 H 0.02136 0.31118 0.12903 0.0
H89 H 0.94813 0.14689 0.15824 0.0
H90 H 0.94515 0.06761 0.1697 0.0
H91 H 0.07704 0.16321 0.20404 0.0
H92 H 0.08132 0.24319 0.19257 0.0
H93 H 0.93454 0.41448 0.201 0.0
H94 H 0.93464 0.35119 0.17928 0.0
H95 H 0.08703 0.38631 0.19857 0.0
H96 H 0.08772 0.44991 0.21986 0.0
H97 H 0.01215 0.27615 0.19374 0.0
H98 H 0.08542 0.44097 0.1628 0.0
H99 H 0.08431 0.51835 0.15144 0.0
H100 H 0.94569 0.41789 0.12052 0.0
H101 H 0.94551 0.33981 0.13194 0.0
C102 C 0.07425 0.18068 0.12554 0.0
C103 C 0.03734 0.15579 0.11171 0.0
C104 C 0.06989 0.2154 0.13737 0.0
C105 C 0.02843 0.22574 0.13564 0.0
C106 C 0.99289 0.20259 0.12138 0.0
C107 C 0.99718 0.16787 0.10958 0.0
C108 C 0.02117 0.25935 0.14899 0.0
C109 C 0.01863 0.30304 0.14315 0.0
C110 C 0.01777 0.24903 0.16746 0.0
C111 C 0.01539 0.20107 0.1744 0.0
C112 C 0.97679 0.15105 0.16812 0.0
C113 C 0.97482 0.10597 0.17464 0.0
C114 C 0.01098 0.11037 0.18755 0.0
C115 C 0.04911 0.15987 0.19401 0.0
C116 C 0.05132 0.20509 0.18751 0.0
C117 C 0.96778 0.40829 0.20066 0.0
C118 C 0.01122 0.43731 0.21206 0.0
C119 C 0.9679 0.37236 0.18823 0.0
C120 C 0.01099 0.36426 0.18729 0.0
C121 C 0.05344 0.39194 0.19907 0.0
C122 C 0.05382 0.42843 0.21118 0.0
C123 C 0.01306 0.32812 0.17377 0.0
C124 C 0.01456 0.28395 0.1796 0.0
C125 C 0.0149 0.33767 0.15531 0.0
C126 C 0.01506 0.38454 0.1484 0.0
C127 C 0.05439 0.43536 0.15372 0.0
C128 C 0.05406 0.47935 0.14725 0.0
C129 C 0.01485 0.47304 0.13532 0.0
C130 C 0.97597 0.42271 0.1298 0.0
C131 C 0.97607 0.37858 0.13626 0.0
H132 H 0.01467 0.50715 0.13031 0.0
H133 H 0.00937 0.07543 0.19259 0.0
H134 H 0.98023 0.12878 0.44877 0.0
H135 H 0.93194 0.1547 0.46931 0.0
H136 H 0.78756 0.01204 0.45605 0.0
H137 H 0.83536 0.98559 0.43587 0.0
H138 H 0.77691 0.10193 0.45738 0.0
H139 H 0.84737 0.01496 0.49229 0.0
H140 H 0.91786 1.00216 0.50433 0.0
H141 H 0.9917 0.15596 0.52855 0.0
H142 H 0.92198 0.16997 0.5164 0.0
H143 H 0.5969 0.02843 0.52732 0.0
H144 H 0.66106 0.03641 0.50521 0.0
H145 H 0.77722 0.18391 0.52901 0.0
H146 H 0.71234 0.1765 0.55127 0.0
H147 H 0.81309 0.11078 0.52223 0.0
H148 H 0.73296 0.19108 0.49095 0.0
H149 H 0.66003 0.20072 0.47942 0.0
H150 H 0.60301 0.05833 0.44862 0.0
H151 H 0.67515 0.04736 0.46018 0.0
C152 C 0.9381 0.10331 0.45009 0.0
C153 C 0.91165 0.05502 0.44074 0.0
C154 C 0.91063 0.11805 0.46187 0.0
C155 C 0.85617 0.08516 0.46427 0.0
C156 C 0.82951 0.03804 0.45441 0.0
C157 C 0.85697 0.02289 0.44292 0.0
C158 C 0.82674 0.09816 0.47752 0.0
C159 C 0.78483 0.10392 0.47156 0.0
C160 C 0.83787 0.10204 0.49599 0.0
C161 C 0.87994 0.09383 0.50321 0.0
C162 C 0.87897 0.04629 0.50001 0.0
C163 C 0.9187 0.03876 0.50689 0.0
C164 C 0.95936 0.07831 0.51713 0.0
C165 C 0.96027 0.12543 0.52056 0.0
C166 C 0.92067 0.13319 0.51368 0.0
C167 C 0.63595 0.06284 0.52783 0.0
C168 C 0.6495 0.10188 0.54106 0.0
C169 C 0.67257 0.0674 0.51512 0.0
C170 C 0.72385 0.11086 0.51538 0.0
C171 C 0.73777 0.15012 0.52855 0.0
C172 C 0.70066 0.14598 0.54118 0.0
C173 C 0.7626 0.11352 0.5021 0.0
C174 C 0.80604 0.1103 0.50804 0.0
C175 C 0.75282 0.11186 0.48359 0.0
C176 C 0.70934 0.11823 0.47654 0.0
C177 C 0.70464 0.16158 0.48183 0.0
C178 C 0.66348 0.16733 0.47527 0.0
C179 C 0.62686 0.13011 0.46332 0.0
C180 C 0.6314 0.08712 0.45788 0.0
C181 C 0.67248 0.08116 0.46442 0.0
H182 H 0.59502 0.13464 0.45825 0.0
H183 H 0.99005 0.07239 0.52247 0.0
H184 H 0.9312 0.88188 0.76205 0.0
H185 H 0.88681 0.80605 0.78192 0.0
H186 H 0.82915 0.88909 0.81357 0.0
H187 H 0.872 0.96381 0.7938 0.0
H188 H 0.87486 0.83999 0.83371 0.0
H189 H 0.74891 0.80226 0.78575 0.0
H190 H 0.7205 0.78653 0.75429 0.0
H191 H 0.74683 0.6562 0.75151 0.0
H192 H 0.77617 0.67171 0.78292 0.0
H193 H 0.64724 0.67779 0.88166 0.0
H194 H 0.71184 0.73729 0.86044 0.0
H195 H 0.73514 0.61248 0.841 0.0
H196 H 0.67059 0.55227 0.8627 0.0
H197 H 0.71945 0.67248 0.8135 0.0
H198 H 0.82721 0.69867 0.86326 0.0
H199 H 0.85736 0.71435 0.89448 0.0
H200 H 0.87116 0.86618 0.89379 0.0
H201 H 0.83875 0.85055 0.86282 0.0
C202 C 0.90919 0.88391 0.77329 0.0
C203 C 0.90495 0.92883 0.77627 0.0
C204 C 0.88378 0.84057 0.78459 0.0
C205 C 0.85464 0.84194 0.79923 0.0
C206 C 0.85146 0.88716 0.8024 0.0
C207 C 0.87582 0.9298 0.79099 0.0
C208 C 0.82635 0.79646 0.81128 0.0
C209 C 0.84085 0.80334 0.82933 0.0
C210 C 0.78316 0.74795 0.80541 0.0
C211 C 0.76542 0.73859 0.78658 0.0
C212 C 0.74916 0.77059 0.77837 0.0
C213 C 0.73277 0.76164 0.76057 0.0
C214 C 0.73205 0.72051 0.75089 0.0
C215 C 0.74755 0.68813 0.75901 0.0
C216 C 0.76404 0.69697 0.77681 0.0
C217 C 0.66614 0.66282 0.87294 0.0
C218 C 0.65369 0.61019 0.87387 0.0
C219 C 0.70325 0.69703 0.86084 0.0
C220 C 0.72848 0.67947 0.84915 0.0
C221 C 0.71615 0.62686 0.84991 0.0
C222 C 0.67952 0.59262 0.86236 0.0
C223 C 0.76688 0.71673 0.83611 0.0
C224 C 0.75419 0.70852 0.81788 0.0
C225 C 0.81202 0.76402 0.84181 0.0
C226 C 0.82994 0.77312 0.8607 0.0
C227 C 0.83567 0.73502 0.86985 0.0
C228 C 0.85315 0.74389 0.88753 0.0
C229 C 0.86577 0.79106 0.89617 0.0
C230 C 0.86082 0.82942 0.88715 0.0
C231 C 0.84279 0.82052 0.86953 0.0
H232 H 0.87969 0.79797 0.90981 0.0
H233 H 0.71933 0.71362 0.7371 0.0
H234 H 0.0901 0.93168 0.09114 0.0
H235 H 0.10021 0.87035 0.11009 0.0
H236 H 1.00401 0.88639 0.1502 0.0
H237 H 0.99186 0.94543 0.13101 0.0
H238 H 0.1431 0.87697 0.14013 0.0
H239 H 0.93898 0.7801 0.17481 0.0
H240 H 0.84744 0.75544 0.16775 0.0
H241 H 0.87619 0.747 0.11209 0.0
H242 H 0.96765 0.77091 0.11883 0.0
H243 H 0.15162 0.74258 0.21721 0.0
H244 H 0.14535 0.79973 0.19519 0.0
H245 H 0.01786 0.66381 0.16889 0.0
H246 H 0.02189 0.60752 0.19156 0.0
H247 H 0.99079 0.72975 0.16999 0.0
H248 H 0.15218 0.74287 0.15166 0.0
H249 H 0.24248 0.75894 0.15498 0.0
H250 H 0.2968 0.91844 0.17122 0.0
H251 H 0.20667 0.90313 0.1682 0.0
C252 C 0.07061 0.92157 0.10392 0.0
C253 C 0.03966 0.94297 0.10947 0.0
C254 C 0.07668 0.88672 0.11481 0.0
C255 C 0.05233 0.87286 0.13157 0.0
C256 C 0.02211 0.89503 0.13719 0.0
C257 C 0.0153 0.92906 0.1262 0.0
C258 C 0.0589 0.83586 0.14326 0.0
C259 C 0.10973 0.84465 0.1466 0.0
C260 C 0.01549 0.79278 0.15149 0.0
C261 C 0.96032 0.7778 0.14733 0.0
C262 C 0.92569 0.77277 0.16107 0.0
C263 C 0.87384 0.75896 0.15712 0.0
C264 C 0.85606 0.74982 0.13948 0.0
C265 C 0.89006 0.75428 0.12574 0.0
C266 C 0.94193 0.76801 0.12962 0.0
C267 C 0.12282 0.72503 0.20656 0.0
C268 C 0.08733 0.67064 0.20606 0.0
C269 C 0.11929 0.7577 0.19389 0.0
C270 C 0.08137 0.73641 0.1801 0.0
C271 C 0.04721 0.68168 0.17936 0.0
C272 C 0.04974 0.64936 0.19228 0.0
C273 C 0.07515 0.77082 0.16699 0.0
C274 C 0.02428 0.76176 0.16346 0.0
C275 C 0.11834 0.81229 0.15806 0.0
C276 C 0.17259 0.8217 0.15985 0.0
C277 C 0.18333 0.78127 0.15605 0.0
C278 C 0.23448 0.79026 0.15786 0.0
C279 C 0.27533 0.83964 0.16335 0.0
C280 C 0.26512 0.88019 0.16699 0.0
C281 C 0.21402 0.8714 0.16521 0.0
H282 H 0.3149 0.84652 0.16475 0.0
H283 H 0.81592 0.73919 0.13645 0.0
H284 H 0.1723 0.07356 0.4303 0.0
H285 H 0.24115 0.07692 0.44977 0.0
H286 H 0.12189 0.9591 0.48313 0.0
H287 H 0.05338 0.95473 0.46367 0.0
H288 H 0.20405 0.04472 0.50251 0.0
H289 H 0.17784 0.92002 0.45614 0.0
H290 H 0.17214 0.88908 0.42512 0.0
H291 H 0.33332 0.00781 0.41675 0.0
H292 H 0.33969 0.04004 0.44768 0.0
H293 H 0.35586 0.934 0.54247 0.0
H294 H 0.29305 0.93472 0.5211 0.0
H295 H 0.40269 0.0971 0.50996 0.0
H296 H 0.46505 0.09723 0.53146 0.0
H297 H 0.32723 0.98998 0.47925 0.0
H298 H 0.341 0.12583 0.52433 0.0
H299 H 0.34528 0.15217 0.55592 0.0
H300 H 0.20589 0.0049 0.5667 0.0
H301 H 0.20125 0.97765 0.53517 0.0
C302 C 0.16087 0.04874 0.44186 0.0
C303 C 0.10741 0.01374 0.44539 0.0
C304 C 0.20017 0.05052 0.45293 0.0
C305 C 0.1866 0.01807 0.46787 0.0
C306 C 0.13328 0.98446 0.4717 0.0
C307 C 0.09418 0.9819 0.4605 0.0
C308 C 0.22764 0.01788 0.47935 0.0
C309 C 0.23092 0.03281 0.49735 0.0
C310 C 0.26271 1.00212 0.47273 0.0
C311 C 0.25903 0.98289 0.45415 0.0
C312 C 0.2119 0.93991 0.44763 0.0
C313 C 0.20857 0.92205 0.43008 0.0
C314 C 0.25229 0.94658 0.41896 0.0
C315 C 0.29945 0.98893 0.42538 0.0
C316 C 0.30295 0.007 0.44292 0.0
C317 C 0.36677 0.96971 0.53536 0.0
C318 C 0.41536 0.01563 0.53877 0.0
C319 C 0.33088 0.97004 0.52316 0.0
C320 C 0.34328 0.01603 0.51403 0.0
C321 C 0.39236 0.06131 0.51694 0.0
C322 C 0.42787 0.06126 0.52927 0.0
C323 C 0.30395 0.01772 0.50217 0.0
C324 C 0.30071 1.00257 0.48422 0.0
C325 C 0.26886 0.03322 0.50874 0.0
C326 C 0.27102 0.04966 0.52753 0.0
C327 C 0.31147 0.09906 0.53349 0.0
C328 C 0.31394 0.11415 0.55136 0.0
C329 C 0.27594 0.08019 0.56332 0.0
C330 C 0.23532 0.03113 0.55743 0.0
C331 C 0.23274 0.01587 0.53957 0.0
H332 H 0.27791 0.0919 0.57715 0.0
H333 H 0.24966 0.93268 0.40537 0.0
H334 H 0.14666 0.13204 0.77362 0.0
H335 H 0.21517 0.19694 0.79357 0.0
H336 H 0.13009 0.27992 0.7983 0.0
H337 H 0.0618 0.21574 0.77838 0.0
H338 H 0.2347 0.34773 0.79441 0.0
H339 H 0.12438 0.20031 0.83098 0.0
H340 H 0.07795 0.10736 0.83968 0.0
H341 H 0.22525 0.11098 0.84321 0.0
H342 H 0.27252 0.20381 0.83427 0.0
H343 H 0.36925 0.50282 0.87214 0.0
H344 H 0.3025 0.44284 0.85058 0.0
H345 H 0.38093 0.35317 0.84647 0.0
H346 H 0.44689 0.41203 0.86798 0.0
H347 H 0.27849 0.28929 0.85008 0.0
H348 H 0.3891 0.43634 0.81339 0.0
H349 H 0.43588 0.52925 0.80464 0.0
H350 H 0.289 0.52655 0.80131 0.0
H351 H 0.24138 0.43374 0.81028 0.0
C352 C 0.1426 0.16424 0.77882 0.0
C353 C 0.09835 0.16828 0.77443 0.0
C354 C 0.18176 0.20123 0.79029 0.0
C355 C 0.17755 0.24308 0.79761 0.0
C356 C 0.13423 0.248 0.79286 0.0
C357 C 0.09501 0.211 0.78149 0.0
C358 C 0.21759 0.28117 0.81049 0.0
C359 C 0.24387 0.33501 0.80668 0.0
C360 C 0.23025 0.26465 0.82639 0.0
C361 C 0.20192 0.20884 0.83176 0.0
C362 C 0.14683 0.18116 0.83346 0.0
C363 C 0.12037 0.12852 0.83846 0.0
C364 C 0.14862 0.10324 0.84195 0.0
C365 C 0.20341 0.13059 0.84048 0.0
C366 C 0.23006 0.18322 0.83545 0.0
C367 C 0.37239 0.4705 0.86656 0.0
C368 C 0.41353 0.46238 0.87184 0.0
C369 C 0.33428 0.43628 0.85419 0.0
C370 C 0.33674 0.39349 0.8468 0.0
C371 C 0.37796 0.38568 0.85199 0.0
C372 C 0.41586 0.41965 0.86429 0.0
C373 C 0.29604 0.35592 0.83395 0.0
C374 C 0.26946 0.3021 0.8378 0.0
C375 C 0.28323 0.3725 0.81809 0.0
C376 C 0.31174 0.42827 0.8127 0.0
C377 C 0.36682 0.45568 0.81094 0.0
C378 C 0.39348 0.5083 0.80591 0.0
C379 C 0.36545 0.53383 0.80248 0.0
C380 C 0.31067 0.50674 0.80401 0.0
C381 C 0.28382 0.45413 0.80905 0.0
H382 H 0.38615 0.57457 0.79858 0.0
H383 H 0.12806 0.06249 0.84583 0.0
H384 H 0.88762 0.06476 0.72121 0.0
H385 H 0.81538 0.05089 0.70154 0.0
H386 H 0.82937 0.93175 0.67233 0.0
H387 H 0.90174 0.94548 0.69197 0.0
H388 H 0.82391 1.00025 0.65004 0.0
H389 H 0.72591 0.89661 0.6989 0.0
H390 H 0.7005 0.87584 0.73031 0.0
H391 H 0.6606 0.99695 0.73313 0.0
H392 H 0.68659 0.01905 0.7018 0.0
H393 H 0.58726 0.92533 0.59967 0.0
H394 H 0.64596 0.91688 0.62094 0.0
H395 H 0.66786 0.05411 0.64963 0.0
H396 H 0.61071 0.06357 0.62826 0.0
H397 H 0.6502 0.96569 0.67178 0.0
H398 H 0.75767 0.07377 0.6235 0.0
H399 H 0.78278 0.09307 0.592 0.0
H400 H 0.80343 0.95933 0.58816 0.0
H401 H 0.77753 0.93872 0.6196 0.0
C402 C 0.87499 0.03525 0.71071 0.0
C403 C 0.90041 0.00621 0.70816 0.0
C404 C 0.83356 0.02723 0.69949 0.0
C405 C 0.81666 0.99005 0.68548 0.0
C406 C 0.84166 0.96063 0.68303 0.0
C407 C 0.88288 0.96838 0.69433 0.0
C408 C 0.77433 0.9835 0.67303 0.0
C409 C 0.78558 0.99165 0.65478 0.0
C410 C 0.72446 0.97294 0.67917 0.0
C411 C 0.70867 0.95981 0.69803 0.0
C412 C 0.71216 0.91914 0.70625 0.0
C413 C 0.69757 0.90706 0.72404 0.0
C414 C 0.67906 0.93514 0.73372 0.0
C415 C 0.675 0.97527 0.72562 0.0
C416 C 0.68961 0.98756 0.70784 0.0
C417 C 0.60413 0.95325 0.61065 0.0
C418 C 0.5946 0.99523 0.61227 0.0
C419 C 0.63771 0.94848 0.62274 0.0
C420 C 0.66132 0.98497 0.63684 0.0
C421 C 0.64998 0.0255 0.63889 0.0
C422 C 0.6175 0.03096 0.62662 0.0
C423 C 0.70018 0.98303 0.64893 0.0
C424 C 0.6883 0.97348 0.66708 0.0
C425 C 0.74934 0.99194 0.6427 0.0
C426 C 0.76493 0.00427 0.62382 0.0
C427 C 0.76698 0.04813 0.61588 0.0
C428 C 0.78148 0.05939 0.59805 0.0
C429 C 0.79451 0.02733 0.58806 0.0
C430 C 0.79319 0.98404 0.5959 0.0
C431 C 0.7786 0.97255 0.61372 0.0
H432 H 0.80577 0.03614 0.57426 0.0
H433 H 0.66777 0.92572 0.74749 0.0
H434 H 0.83343 0.95715 0.05563 0.0
H435 H 0.77059 0.88807 0.03555 0.0
H436 H 0.89248 0.85911 0.01716 0.0
H437 H 0.95589 0.9282 0.03757 0.0
H438 H 0.83558 0.87626 0.98956 0.0
H439 H 0.80006 0.76982 0.0412 0.0
H440 H 0.77886 0.74696 0.07275 0.0
H441 H 0.63272 0.74425 0.06614 0.0
H442 H 0.65341 0.76789 0.0346 0.0
H443 H 0.67548 0.64354 0.93923 0.0
H444 H 0.73511 0.7067 0.96146 0.0
H445 H 0.61276 0.73627 0.97879 0.0
H446 H 0.55265 0.67342 0.95613 0.0
H447 H 0.66871 0.71837 0.00724 0.0
H448 H 0.70096 0.82458 0.95692 0.0
H449 H 0.72021 0.85223 0.92572 0.0
H450 H 0.87022 0.86197 0.9301 0.0
H451 H 0.85116 0.83266 0.9612 0.0
C452 C 0.84679 0.93557 0.04751 0.0
C453 C 0.89969 0.94818 0.04816 0.0
C454 C 0.81073 0.896 0.03607 0.0
C455 C 0.82679 0.86843 0.02486 0.0
C456 C 0.87929 0.87993 0.02574 0.0
C457 C 0.91535 0.9191 0.03747 0.0
C458 C 0.78923 0.82999 0.01154 0.0
C459 C 0.79961 0.84115 0.9934 0.0
C460 C 0.74117 0.78549 0.01661 0.0
C461 C 0.72854 0.77112 0.03557 0.0
C462 C 0.76362 0.76482 0.04651 0.0
C463 C 0.75164 0.75162 0.06439 0.0
C464 C 0.70453 0.74428 0.07146 0.0
C465 C 0.66923 0.75 0.06065 0.0
C466 C 0.68104 0.76325 0.04276 0.0
C467 C 0.66111 0.66347 0.94773 0.0
C468 C 0.60925 0.65343 0.94592 0.0
C469 C 0.69535 0.69966 0.96041 0.0
C470 C 0.67842 0.72618 0.97177 0.0
C471 C 0.62655 0.7161 0.97015 0.0
C472 C 0.59239 0.68048 0.95716 0.0
C473 C 0.71544 0.76435 0.98525 0.0
C474 C 0.70486 0.75328 1.00339 0.0
C475 C 0.76305 0.80937 0.98021 0.0
C476 C 0.77426 0.82562 0.96134 0.0
C477 C 0.73767 0.83168 0.95116 0.0
C478 C 0.74857 0.84774 0.93349 0.0
C479 C 0.79624 0.85851 0.9259 0.0
C480 C 0.83311 0.85319 0.93595 0.0
C481 C 0.82225 0.83678 0.95361 0.0
H482 H 0.80467 0.87132 0.91226 0.0
H483 H 0.69533 0.73406 0.0853 0.0
H484 H 0.943 0.89326 0.38612 0.0
H485 H 0.93293 0.82167 0.36648 0.0
H486 H 0.08834 0.92267 0.34561 0.0
H487 H 0.09833 0.99436 0.365 0.0
H488 H 0.01985 0.87378 0.31924 0.0
H489 H 0.06278 0.82334 0.37434 0.0
H490 H 0.05287 0.80098 0.40615 0.0
H491 H 0.89736 0.67096 0.39595 0.0
H492 H 0.90609 0.69302 0.36409 0.0
H493 H 0.08628 0.70144 0.278 0.0
H494 H 0.0795 0.76119 0.29898 0.0
H495 H 0.91568 0.64787 0.30724 0.0
H496 H 0.92199 0.58708 0.28593 0.0
H497 H 0.97669 0.69725 0.33956 0.0
H498 H 0.93932 0.74587 0.28327 0.0
H499 H 0.95414 0.76869 0.25152 0.0
H500 H 0.10441 0.90357 0.26427 0.0
H501 H 0.09085 0.88112 0.29608 0.0
C502 C 0.97519 0.90002 0.37745 0.0
C503 C 0.02143 0.94952 0.37708 0.0
C504 C 0.96943 0.85902 0.36626 0.0
C505 C 0.00992 0.86666 0.35457 0.0
C506 C 0.05645 0.91583 0.35445 0.0
C507 C 0.06221 0.95675 0.3656 0.0
C508 C 1.00347 0.8243 0.34199 0.0
C509 C 0.0108 0.83535 0.32374 0.0
C510 C 0.9902 0.77356 0.34774 0.0
C511 C 0.98484 0.76021 0.36687 0.0
C512 C 0.02628 0.79027 0.37891 0.0
C513 C 0.02092 0.77759 0.39694 0.0
C514 C 0.97444 0.73468 0.40308 0.0
C515 C 0.93329 0.70426 0.39118 0.0
C516 C 0.93844 0.71681 0.37313 0.0
C517 C 0.04864 0.68888 0.28423 0.0
C518 C 0.00457 0.63936 0.28022 0.0
C519 C 0.04489 0.72329 0.29623 0.0
C520 C 0.99706 0.70917 0.30458 0.0
C521 C 0.95297 0.65951 0.30089 0.0
C522 C 0.95656 0.62498 0.28867 0.0
C523 C 0.99398 0.74725 0.31695 0.0
C524 C 0.98495 0.73546 0.3351 0.0
C525 C 0.00614 0.79756 0.31117 0.0
C526 C 0.01419 0.81158 0.29206 0.0
C527 C 0.97569 0.78019 0.2793 0.0
C528 C 0.98384 0.7931 0.26129 0.0
C529 C 0.03022 0.8375 0.25588 0.0
C530 C 0.0685 0.86917 0.26848 0.0
C531 C 0.06057 0.85642 0.28651 0.0
H532 H 0.03647 0.8474 0.24193 0.0
H533 H 0.97037 0.72491 0.41704 0.0
H534 H 0.14879 0.12817 0.69813 0.0
H535 H 0.22075 0.13835 0.67929 0.0
H536 H 0.21257 1.00218 0.70298 0.0
H537 H 0.14096 0.99248 0.72227 0.0
H538 H 0.31237 0.07485 0.69792 0.0
H539 H 0.1575 0.99517 0.66191 0.0
H540 H 0.07656 0.98413 0.6481 0.0
H541 H 0.16673 0.13097 0.62146 0.0
H542 H 0.24818 0.1433 0.63534 0.0
H543 H 0.43004 0.01055 0.62558 0.0
H544 H 0.36936 0.01117 0.64769 0.0
H545 H 0.40735 0.16559 0.63113 0.0
H546 H 0.46937 0.16577 0.60912 0.0
H547 H 0.29488 0.08601 0.63266 0.0
H548 H 0.45174 0.16053 0.66876 0.0
H549 H 0.5302 0.164 0.68182 0.0
H550 H 0.43219 0.01679 0.70738 0.0
H551 H 0.35313 0.01204 0.69424 0.0
C552 C 0.16246 0.10052 0.69945 0.0
C553 C 0.13881 0.05924 0.71163 0.0
C554 C 0.20354 0.10626 0.68858 0.0
C555 C 0.22156 0.07045 0.68941 0.0
C556 C 0.19928 0.03022 0.70201 0.0
C557 C 0.15828 0.02465 0.71302 0.0
C558 C 0.26267 0.07446 0.67682 0.0
C559 C 0.30819 0.07673 0.68365 0.0
C560 C 0.25779 0.07755 0.65815 0.0
C561 C 0.20887 0.07045 0.64984 0.0
C562 C 0.16002 0.02536 0.65324 0.0
C563 C 0.11406 0.01882 0.64537 0.0
C564 C 0.11648 0.0569 0.63395 0.0
C565 C 0.1649 0.10156 0.63034 0.0
C566 C 0.21098 0.10834 0.6382 0.0
C567 C 0.42591 0.04491 0.62673 0.0
C568 C 0.45451 0.08815 0.61559 0.0
C569 C 0.3913 0.04522 0.63942 0.0
C570 C 0.38392 0.08843 0.64108 0.0
C571 C 0.41261 0.1319 0.63008 0.0
C572 C 0.44815 0.13206 0.61758 0.0
C573 C 0.34446 0.08685 0.6538 0.0
C574 C 0.2991 0.08463 0.64696 0.0
C575 C 0.34909 0.08283 0.67239 0.0
C576 C 0.39653 0.08569 0.68037 0.0
C577 C 0.44693 0.12865 0.67703 0.0
C578 C 0.49152 0.1309 0.68448 0.0
C579 C 0.4862 0.09058 0.69539 0.0
C580 C 0.43625 0.04798 0.69891 0.0
C581 C 0.39154 0.04551 0.69148 0.0
H582 H 0.52076 0.09239 0.70114 0.0
H583 H 0.08085 0.05175 0.62786 0.0
H584 H 0.17722 0.13619 0.05454 0.0
H585 H 0.25148 0.18331 0.03416 0.0
H586 H 0.16653 0.24574 0.00708 0.0
H587 H 0.09279 0.19954 0.02733 0.0
H588 H 0.21114 0.20609 0.9837 0.0
H589 H 0.26197 0.32182 0.03504 0.0
H590 H 0.28223 0.34581 0.0668 0.0
H591 H 0.40624 0.30973 0.06439 0.0
H592 H 0.38618 0.28476 0.03263 0.0
H593 H 0.3891 0.43257 0.93875 0.0
H594 H 0.32706 0.37022 0.95985 0.0
H595 H 0.43991 0.32505 0.97454 0.0
H596 H 0.50294 0.38777 0.953 0.0
H597 H 0.38801 0.34544 1.00435 0.0
H598 H 0.34344 0.24084 0.9514 0.0
H599 H 0.32351 0.22048 0.91944 0.0
H600 H 0.18758 0.23728 0.92474 0.0
H601 H 0.20715 0.25859 0.9567 0.0
C602 C 0.17437 0.15998 0.04425 0.0
C603 C 0.12893 0.16408 0.04265 0.0
C604 C 0.21693 0.187 0.03264 0.0
C605 C 0.21465 0.21816 0.01908 0.0
C606 C 0.16921 0.22188 0.01739 0.0
C607 C 0.1271 0.19556 0.02908 0.0
C608 C 0.25923 0.24712 0.00656 0.0
C609 C 0.24977 0.2366 0.98823 0.0
C610 C 0.31015 0.28599 0.01245 0.0
C611 C 0.32208 0.3007 0.03154 0.0
C612 C 0.29318 0.31845 0.04133 0.0
C613 C 0.30471 0.33235 0.05932 0.0
C614 C 0.34536 0.3291 0.06762 0.0
C615 C 0.37466 0.31208 0.05794 0.0
C616 C 0.36324 0.29806 0.03995 0.0
C617 C 0.40103 0.40946 0.94641 0.0
C618 C 0.45115 0.41527 0.94416 0.0
C619 C 0.36529 0.37362 0.95846 0.0
C620 C 0.37864 0.34274 0.96873 0.0
C621 C 0.42878 0.34847 0.96671 0.0
C622 C 0.46461 0.38408 0.95436 0.0
C623 C 0.33949 0.30503 0.98151 0.0
C624 C 0.34979 0.31405 0.99986 0.0
C625 C 0.28921 0.26479 0.97565 0.0
C626 C 0.27699 0.25166 0.95644 0.0
C627 C 0.30952 0.2406 0.94573 0.0
C628 C 0.29825 0.22882 0.92761 0.0
C629 C 0.25436 0.22767 0.92006 0.0
C630 C 0.22158 0.2382 0.93062 0.0
C631 C 0.2327 0.25006 0.94874 0.0
H632 H 0.24571 0.21855 0.90603 0.0
H633 H 0.35426 0.33993 0.08155 0.0
H634 H 0.99566 0.13236 0.35908 0.0
H635 H 0.01198 0.20522 0.3402 0.0
H636 H 0.13247 0.31345 0.3767 0.0
H637 H 0.11741 0.23965 0.39547 0.0
H638 H 0.99952 0.28269 0.3439 0.0
H639 H 0.22415 0.42237 0.35428 0.0
H640 H 0.30345 0.41705 0.36073 0.0
H641 H 0.22837 0.26066 0.33857 0.0
H642 H 0.14896 0.26531 0.33179 0.0
H643 H 0.05228 0.51407 0.30263 0.0
H644 H 0.0529 0.45514 0.32505 0.0
H645 H 0.15184 0.42246 0.2912 0.0
H646 H 0.15431 0.48477 0.26935 0.0
H647 H 0.17661 0.41647 0.32297 0.0
H648 H 0.01025 0.34092 0.29308 0.0
H649 H 0.92909 0.33622 0.28206 0.0
H650 H 0.88401 0.34601 0.33573 0.0
H651 H 0.96527 0.35144 0.34705 0.0
C652 C 0.0257 0.17162 0.36316 0.0
C653 C 0.05521 0.18009 0.37883 0.0
C654 C 0.03495 0.21345 0.35231 0.0
C655 C 0.07371 0.26516 0.35686 0.0
C656 C 0.10293 0.27396 0.37266 0.0
C657 C 0.09408 0.23178 0.38347 0.0
C658 C 0.08237 0.30923 0.34504 0.0
C659 C 0.03836 0.31199 0.33942 0.0
C660 C 0.13278 0.3471 0.33876 0.0
C661 C 0.1804 0.34399 0.34275 0.0
C662 C 0.22463 0.3869 0.35077 0.0
C663 C 0.26959 0.38399 0.35448 0.0
C664 C 0.27087 0.33847 0.35013 0.0
C665 C 0.22725 0.29581 0.34201 0.0
C666 C 0.18223 0.29853 0.33825 0.0
C667 C 0.07517 0.4952 0.30022 0.0
C668 C 0.10327 0.50388 0.28432 0.0
C669 C 0.07507 0.46103 0.31294 0.0
C670 C 0.10096 0.4327 0.30967 0.0
C671 C 0.13126 0.44343 0.29411 0.0
C672 C 0.13275 0.47906 0.2816 0.0
C673 C 0.0937 0.38982 0.32187 0.0
C674 C 0.13786 0.38736 0.32758 0.0
C675 C 0.04311 0.35067 0.32764 0.0
C676 C 0.99407 0.34712 0.32089 0.0
C677 C 0.98316 0.34237 0.30252 0.0
C678 C 0.93714 0.33956 0.29622 0.0
C679 C 0.90148 0.34095 0.30818 0.0
C680 C 0.9117 0.34502 0.32647 0.0
C681 C 0.95771 0.34793 0.33284 0.0
H682 H 0.86588 0.33877 0.30328 0.0
H683 H 0.30571 0.3363 0.35302 0.0
loop_
_geom_bond_atom_site_label_1
_geom_bond_atom_site_label_2
_geom_bond_distance
_geom_bond_site_symmetry_2
_ccdc_geom_bond_type
Co0 O1 2.216 1_445 S
Co0 O2 2.108 . S
Co0 O4 2.004 . S
Co0 O10 2.021 1_445 S
Co0 O12 2.137 . S
Co0 O13 2.244 1_455 S
O1 Co0 2.216 1_665 S
O1 C8 1.247 1_655 S
O2 Co0 2.108 . S
O2 C8 1.259 1_545 S
C3 O12 1.247 . S
C3 O13 1.272 1_455 S
O4 Co0 2.004 . S
O4 C9 1.259 . S
Co5 O6 2.061 1_655 S
Co5 O11 2.052 . S
Co5 O13 2.135 . S
O6 Co5 2.061 1_455 S
O6 C9 1.235 . S
C7 O10 1.238 . S
C7 O11 1.241 1_565 S
C8 O1 1.247 1_455 S
C8 O2 1.259 1_565 S
C9 O4 1.259 . S
C9 O6 1.235 . S
O10 Co0 2.021 1_665 S
O10 C7 1.238 . S
O11 Co5 2.052 . S
O11 C7 1.241 1_545 S
O12 Co0 2.137 . S
O12 C3 1.247 . S
O13 Co0 2.244 1_655 S
O13 C3 1.272 1_655 S
O13 Co5 2.135 . S
Co14 O15 2.216 . S
Co14 O16 2.091 . S
Co14 O18 2.004 . S
Co14 O24 2.021 . S
Co14 O26 2.137 . S
Co14 O27 2.244 1_545 S
O15 Co14 2.216 . S
O15 C22 1.247 . S
O16 Co14 2.091 . S
O16 C22 1.261 . S
C17 O26 1.247 1_565 S
C17 O27 1.272 . S
O18 Co14 2.004 . S
O18 C23 1.259 . S
Co19 O20 2.061 1_665 S
Co19 O25 2.052 . S
Co19 O27 2.135 1_655 S
O20 Co19 2.061 1_445 S
O20 C23 1.235 . S
C21 O24 1.238 1_655 S
C21 O25 1.241 1_545 S
C22 O15 1.247 . S
C22 O16 1.261 . S
C23 O18 1.259 . S
C23 O20 1.235 . S
O24 Co14 2.021 . S
O24 C21 1.238 1_455 S
O25 Co19 2.052 . S
O25 C21 1.241 1_565 S
O26 Co14 2.137 . S
O26 C17 1.247 1_545 S
O27 Co14 2.244 1_565 S
O27 C17 1.272 . S
O27 Co19 2.135 1_455 S
Co28 O29 2.216 . S
Co28 O30 2.091 1_545 S
Co28 O32 2.004 1_445 S
Co28 O38 2.021 . S
Co28 O40 2.137 1_445 S
Co28 O41 2.244 1_455 S
O29 Co28 2.216 . S
O29 C36 1.247 . S
O30 Co28 2.091 1_565 S
O30 C36 1.261 1_565 S
C31 O40 1.248 1_545 S
C31 O41 1.272 . S
O32 Co28 2.004 1_665 S
O32 C37 1.259 . S
Co33 O34 2.061 . S
Co33 O39 2.052 1_655 S
Co33 O41 2.135 . S
O34 Co33 2.061 . S
O34 C37 1.235 1_545 S
C35 O38 1.238 . S
C35 O39 1.241 . S
C36 O29 1.247 . S
C36 O30 1.261 1_545 S
C37 O32 1.259 . S
C37 O34 1.235 1_565 S
O38 Co28 2.021 . S
O38 C35 1.238 . S
O39 Co33 2.052 1_455 S
O39 C35 1.241 . S
O40 Co28 2.137 1_665 S
O40 C31 1.248 1_565 S
O41 Co28 2.244 1_655 S
O41 C31 1.272 . S
O41 Co33 2.135 . S
C42 O44 1.247 . S
C42 O46 1.258 1_455 S
C43 O50 1.247 1_455 S
C43 O51 1.258 . S
O44 C42 1.247 . S
O44 Zn45 2.028 . S
Zn45 O44 2.028 . S
Zn45 O49 2.035 . S
Zn45 O51 2.035 . S
Zn45 O52 2.028 . S
O46 C42 1.258 1_655 S
O46 Zn47 2.035 . S
Zn47 O46 2.035 . S
Zn47 O48 2.028 . S
Zn47 O50 2.028 . S
Zn47 O53 2.035 . S
O48 Zn47 2.028 . S
O48 C54 1.247 1_655 S
O49 Zn45 2.035 . S
O49 C54 1.258 . S
O50 C43 1.247 1_655 S
O50 Zn47 2.028 . S
O51 C43 1.258 . S
O51 Zn45 2.035 . S
O52 Zn45 2.028 . S
O52 C55 1.247 . S
O53 Zn47 2.035 . S
O53 C55 1.258 1_655 S
C54 O48 1.247 1_455 S
C54 O49 1.258 . S
C55 O52 1.247 . S
C55 O53 1.258 1_455 S
C56 O58 1.247 1_545 S
C56 O60 1.258 . S
C57 O64 1.247 . S
C57 O65 1.258 1_545 S
O58 C56 1.247 1_565 S
O58 Zn59 2.028 . S
Zn59 O58 2.028 . S
Zn59 O63 2.035 . S
Zn59 O65 2.035 . S
Zn59 O66 2.028 . S
O60 C56 1.258 . S
O60 Zn61 2.035 . S
Zn61 O60 2.035 . S
Zn61 O62 2.028 . S
Zn61 O64 2.028 . S
Zn61 O67 2.035 . S
O62 Zn61 2.028 . S
O62 C68 1.247 . S
O63 Zn59 2.035 . S
O63 C68 1.258 1_565 S
O64 C57 1.247 . S
O64 Zn61 2.028 . S
O65 C57 1.258 1_565 S
O65 Zn59 2.035 . S
O66 Zn59 2.028 . S
O66 C69 1.247 1_565 S
O67 Zn61 2.035 . S
O67 C69 1.258 . S
C68 O62 1.247 . S
C68 O63 1.258 1_545 S
C69 O66 1.247 1_545 S
C69 O67 1.258 . S
C70 O72 1.247 . S
C70 O74 1.258 . S
C71 O78 1.247 . S
C71 O79 1.258 . S
O72 C70 1.247 . S
O72 Zn73 2.028 . S
Zn73 O72 2.028 . S
Zn73 O77 2.035 . S
Zn73 O79 2.035 . S
Zn73 O80 2.028 . S
O74 C70 1.258 . S
O74 Zn75 2.035 . S
Zn75 O74 2.035 . S
Zn75 O76 2.028 . S
Zn75 O78 2.028 . S
Zn75 O81 2.035 . S
O76 Zn75 2.028 . S
O76 C82 1.247 . S
O77 Zn73 2.035 . S
O77 C82 1.258 . S
O78 C71 1.247 . S
O78 Zn75 2.028 . S
O79 C71 1.258 . S
O79 Zn73 2.035 . S
O80 Zn73 2.028 . S
O80 C83 1.247 . S
O81 Zn75 2.035 . S
O81 C83 1.258 . S
C82 O76 1.247 . S
C82 O77 1.258 . S
C83 O80 1.247 . S
C83 O81 1.258 . S
H84 C102 0.951 . S
H85 C104 0.951 . S
H86 C106 0.950 . S
H87 C107 0.950 . S
H88 C109 0.950 . S
H89 C112 0.950 . S
H90 C113 0.950 . S
H91 C115 0.950 1_455 S
H92 C116 0.950 . S
H93 C117 0.951 . S
H94 C119 0.951 . S
H95 C121 0.950 . S
H96 C122 0.950 . S
H97 C124 0.950 . S
H98 C127 0.950 . S
H99 C128 0.950 . S
H100 C130 0.950 . S
H101 C131 0.950 1_655 S
C102 H84 0.951 . S
C102 C103 1.366 . S
C102 C104 1.388 . S
C103 C102 1.366 . S
C103 C107 1.385 1_455 S
C104 H85 0.951 . S
C104 C102 1.388 . S
C104 C105 1.366 . S
C105 C104 1.366 . S
C105 C106 1.414 1_455 S
C105 C108 1.499 . S
C106 H86 0.950 . S
C106 C105 1.414 1_655 S
C106 C107 1.374 . S
C107 H87 0.950 . S
C107 C103 1.385 1_655 S
C107 C106 1.374 . S
C108 C105 1.499 . S
C108 C109 1.373 . S
C108 C110 1.389 . S
C109 H88 0.950 . S
C109 C108 1.373 . S
C109 C125 1.377 . S
C110 C108 1.389 . S
C110 C111 1.524 1_455 S
C110 C124 1.377 . S
C111 C110 1.524 1_655 S
C111 C112 1.397 . S
C111 C116 1.363 1_655 S
C112 H89 0.950 . S
C112 C111 1.397 . S
C112 C113 1.334 . S
C113 H90 0.950 . S
C113 C112 1.334 . S
C113 C114 1.287 . S
C114 C113 1.287 . S
C114 C115 1.524 . S
C114 H133 0.913 . S
C115 H91 0.950 1_655 S
C115 C114 1.524 . S
C115 C116 1.415 1_655 S
C116 H92 0.950 . S
C116 C111 1.363 1_455 S
C116 C115 1.415 1_455 S
C117 H93 0.951 . S
C117 C118 1.366 1_655 S
C117 C119 1.388 . S
C118 C117 1.366 1_455 S
C118 C122 1.385 . S
C119 H94 0.951 . S
C119 C117 1.388 . S
C119 C120 1.366 1_655 S
C120 C119 1.366 1_455 S
C120 C121 1.414 . S
C120 C123 1.499 . S
C121 H95 0.950 . S
C121 C120 1.414 . S
C121 C122 1.374 . S
C122 H96 0.950 . S
C122 C118 1.385 . S
C122 C121 1.374 . S
C123 C120 1.499 . S
C123 C124 1.373 . S
C123 C125 1.389 . S
C124 H97 0.950 . S
C124 C110 1.377 . S
C124 C123 1.373 . S
C125 C109 1.377 . S
C125 C123 1.389 . S
C125 C126 1.524 . S
C126 C125 1.524 . S
C126 C127 1.397 . S
C126 C131 1.363 . S
C127 H98 0.950 . S
C127 C126 1.397 . S
C127 C128 1.334 . S
C128 H99 0.950 . S
C128 C127 1.334 . S
C128 C129 1.287 . S
C129 C128 1.287 . S
C129 C130 1.524 . S
C129 H132 0.999 . S
C130 H100 0.950 . S
C130 C129 1.524 . S
C130 C131 1.415 . S
C131 H101 0.950 1_455 S
C131 C126 1.363 . S
C131 C130 1.415 . S
H132 C129 0.999 . S
H133 C114 0.913 . S
H134 C152 0.951 . S
H135 C154 0.951 . S
H136 C156 0.950 . S
H137 C157 0.950 . S
H138 C159 0.950 . S
H139 C162 0.950 . S
H140 C163 0.950 . S
H141 C165 0.950 . S
H142 C166 0.963 . S
H143 C167 0.951 . S
H144 C169 0.951 . S
H145 C171 0.950 . S
H146 C172 0.950 . S
H147 C174 0.950 . S
H148 C177 0.950 . S
H149 C178 0.950 . S
H150 C180 0.950 . S
H151 C181 0.950 . S
C152 H134 0.951 . S
C152 C153 1.366 . S
C152 C154 1.388 . S
C153 C152 1.366 . S
C153 C157 1.385 . S
C154 H135 0.951 . S
C154 C152 1.388 . S
C154 C155 1.366 . S
C155 C154 1.366 . S
C155 C156 1.414 . S
C155 C158 1.499 . S
C156 H136 0.950 . S
C156 C155 1.414 . S
C156 C157 1.374 . S
C157 H137 0.950 . S
C157 C153 1.385 . S
C157 C156 1.374 . S
C158 C155 1.499 . S
C158 C159 1.373 . S
C158 C160 1.389 . S
C159 H138 0.950 . S
C159 C158 1.373 . S
C159 C175 1.377 . S
C160 C158 1.389 . S
C160 C161 1.524 1_545 S
C160 C174 1.377 . S
C161 C160 1.524 1_565 S
C161 C162 1.397 . S
C161 C166 1.364 1_565 S
C162 H139 0.950 . S
C162 C161 1.397 . S
C162 C163 1.334 . S
C163 H140 0.950 . S
C163 C162 1.334 . S
C163 C164 1.287 . S
C164 C163 1.287 . S
C164 C165 1.524 . S
C164 H183 0.913 . S
C165 H141 0.950 . S
C165 C164 1.524 . S
C165 C166 1.402 1_565 S
C166 H142 0.963 . S
C166 C161 1.364 1_545 S
C166 C165 1.402 1_545 S
C167 H143 0.951 . S
C167 C168 1.366 . S
C167 C169 1.388 . S
C168 C167 1.366 . S
C168 C172 1.385 . S
C169 H144 0.951 . S
C169 C167 1.388 . S
C169 C170 1.366 . S
C170 C169 1.366 . S
C170 C171 1.414 . S
C170 C173 1.499 . S
C171 H145 0.950 . S
C171 C170 1.414 . S
C171 C172 1.374 . S
C172 H146 0.950 . S
C172 C168 1.385 . S
C172 C171 1.374 . S
C173 C170 1.499 . S
C173 C174 1.373 . S
C173 C175 1.389 . S
C174 H147 0.950 . S
C174 C160 1.377 . S
C174 C173 1.373 . S
C175 C159 1.377 . S
C175 C173 1.389 . S
C175 C176 1.524 . S
C176 C175 1.524 . S
C176 C177 1.397 . S
C176 C181 1.363 . S
C177 H148 0.950 . S
C177 C176 1.397 . S
C177 C178 1.334 . S
C178 H149 0.950 . S
C178 C177 1.334 . S
C178 C179 1.287 . S
C179 C178 1.287 . S
C179 C180 1.524 . S
C179 H182 0.999 . S
C180 H150 0.950 . S
C180 C179 1.524 . S
C180 C181 1.415 . S
C181 H151 0.950 . S
C181 C176 1.363 . S
C181 C180 1.415 . S
H182 C179 0.999 . S
H183 C164 0.913 . S
H184 C202 0.951 . S
H185 C204 0.951 . S
H186 C206 0.950 . S
H187 C207 0.950 . S
H188 C209 0.950 . S
H189 C212 0.950 . S
H190 C213 0.950 . S
H191 C215 0.950 . S
H192 C216 0.950 . S
H193 C217 0.951 . S
H194 C219 0.951 . S
H195 C221 0.950 . S
H196 C222 0.950 . S
H197 C224 0.950 . S
H198 C227 0.950 . S
H199 C228 0.950 . S
H200 C230 0.950 . S
H201 C231 0.950 . S
C202 H184 0.951 . S
C202 C203 1.366 . S
C202 C204 1.388 . S
C203 C202 1.366 . S
C203 C207 1.385 . S
C204 H185 0.951 . S
C204 C202 1.388 . S
C204 C205 1.366 . S
C205 C204 1.366 . S
C205 C206 1.414 . S
C205 C208 1.499 . S
C206 H186 0.950 . S
C206 C205 1.414 . S
C206 C207 1.374 . S
C207 H187 0.950 . S
C207 C203 1.385 . S
C207 C206 1.374 . S
C208 C205 1.499 . S
C208 C209 1.373 . S
C208 C210 1.389 . S
C209 H188 0.950 . S
C209 C208 1.373 . S
C209 C225 1.377 . S
C210 C208 1.389 . S
C210 C211 1.524 . S
C210 C224 1.377 . S
C211 C210 1.524 . S
C211 C212 1.397 . S
C211 C216 1.363 . S
C212 H189 0.950 . S
C212 C211 1.397 . S
C212 C213 1.334 . S
C213 H190 0.950 . S
C213 C212 1.334 . S
C213 C214 1.287 . S
C214 C213 1.287 . S
C214 C215 1.524 . S
C214 H233 0.913 . S
C215 H191 0.950 . S
C215 C214 1.524 . S
C215 C216 1.415 . S
C216 H192 0.950 . S
C216 C211 1.363 . S
C216 C215 1.415 . S
C217 H193 0.951 . S
C217 C218 1.366 . S
C217 C219 1.388 . S
C218 C217 1.366 . S
C218 C222 1.385 . S
C219 H194 0.951 . S
C219 C217 1.388 . S
C219 C220 1.366 . S
C220 C219 1.366 . S
C220 C221 1.414 . S
C220 C223 1.499 . S
C221 H195 0.950 . S
C221 C220 1.414 . S
C221 C222 1.374 . S
C222 H196 0.950 . S
C222 C218 1.385 . S
C222 C221 1.374 . S
C223 C220 1.499 . S
C223 C224 1.373 . S
C223 C225 1.389 . S
C224 H197 0.950 . S
C224 C210 1.377 . S
C224 C223 1.373 . S
C225 C209 1.377 . S
C225 C223 1.389 . S
C225 C226 1.524 . S
C226 C225 1.524 . S
C226 C227 1.397 . S
C226 C231 1.363 . S
C227 H198 0.950 . S
C227 C226 1.397 . S
C227 C228 1.334 . S
C228 H199 0.950 . S
C228 C227 1.334 . S
C228 C229 1.287 . S
C229 C228 1.287 . S
C229 C230 1.524 . S
C229 H232 0.999 . S
C230 H200 0.950 . S
C230 C229 1.524 . S
C230 C231 1.415 . S
C231 H201 0.950 . S
C231 C226 1.363 . S
C231 C230 1.415 . S
H232 C229 0.999 . S
H233 C214 0.913 . S
H234 C252 0.951 1_655 S
H235 C254 0.951 1_655 S
H236 C256 0.950 . S
H237 C257 0.950 . S
H238 C259 0.950 . S
H239 C262 0.950 . S
H240 C263 0.950 . S
H241 C265 0.950 . S
H242 C266 0.950 . S
H243 C267 0.951 . S
H244 C269 0.951 . S
H245 C271 0.950 . S
H246 C272 0.950 . S
H247 C274 0.950 . S
H248 C277 0.950 . S
H249 C278 0.950 . S
H250 C280 0.950 . S
H251 C281 0.950 . S
C252 H234 0.951 1_455 S
C252 C253 1.366 . S
C252 C254 1.388 . S
C253 C252 1.366 . S
C253 C257 1.385 . S
C254 H235 0.951 1_455 S
C254 C252 1.388 . S
C254 C255 1.366 . S
C255 C254 1.366 . S
C255 C256 1.414 . S
C255 C258 1.499 . S
C256 H236 0.950 . S
C256 C255 1.414 . S
C256 C257 1.374 . S
C257 H237 0.950 . S
C257 C253 1.385 . S
C257 C256 1.374 . S
C258 C255 1.499 . S
C258 C259 1.373 . S
C258 C260 1.389 1_455 S
C259 H238 0.950 . S
C259 C258 1.373 . S
C259 C275 1.377 . S
C260 C258 1.389 1_655 S
C260 C261 1.524 . S
C260 C274 1.377 . S
C261 C260 1.524 . S
C261 C262 1.397 . S
C261 C266 1.363 . S
C262 H239 0.950 . S
C262 C261 1.397 . S
C262 C263 1.334 . S
C263 H240 0.950 . S
C263 C262 1.334 . S
C263 C264 1.287 . S
C264 C263 1.287 . S
C264 C265 1.524 . S
C264 H283 0.913 . S
C265 H241 0.950 . S
C265 C264 1.524 . S
C265 C266 1.415 . S
C266 H242 0.950 . S
C266 C261 1.363 . S
C266 C265 1.415 . S
C267 H243 0.951 . S
C267 C268 1.366 . S
C267 C269 1.388 . S
C268 C267 1.366 . S
C268 C272 1.385 1_455 S
C269 H244 0.951 . S
C269 C267 1.388 . S
C269 C270 1.366 . S
C270 C269 1.366 . S
C270 C271 1.414 1_455 S
C270 C273 1.499 . S
C271 H245 0.950 . S
C271 C270 1.414 1_655 S
C271 C272 1.374 . S
C272 H246 0.950 . S
C272 C268 1.385 1_655 S
C272 C271 1.374 . S
C273 C270 1.499 . S
C273 C274 1.373 1_455 S
C273 C275 1.389 . S
C274 H247 0.950 . S
C274 C260 1.377 . S
C274 C273 1.373 1_655 S
C275 C259 1.377 . S
C275 C273 1.389 . S
C275 C276 1.524 . S
C276 C275 1.524 . S
C276 C277 1.397 . S
C276 C281 1.363 . S
C277 H248 0.950 . S
C277 C276 1.397 . S
C277 C278 1.334 . S
C278 H249 0.950 . S
C278 C277 1.334 . S
C278 C279 1.287 . S
C279 C278 1.287 . S
C279 C280 1.524 . S
C279 H282 0.999 . S
C280 H250 0.950 . S
C280 C279 1.524 . S
C280 C281 1.415 . S
C281 H251 0.950 . S
C281 C276 1.363 . S
C281 C280 1.415 . S
H282 C279 0.999 . S
H283 C264 0.913 . S
H284 C302 0.951 . S
H285 C304 0.951 . S
H286 C306 0.950 . S
H287 C307 0.950 . S
H288 C309 0.950 . S
H289 C312 0.950 . S
H290 C313 0.950 . S
H291 C315 0.950 . S
H292 C316 0.950 . S
H293 C317 0.951 . S
H294 C319 0.951 . S
H295 C321 0.950 . S
H296 C322 0.950 . S
H297 C324 0.950 1_565 S
H298 C327 0.950 . S
H299 C328 0.950 . S
H300 C330 0.950 . S
H301 C331 0.950 . S
C302 H284 0.951 . S
C302 C303 1.366 . S
C302 C304 1.388 . S
C303 C302 1.366 . S
C303 C307 1.385 . S
C304 H285 0.951 . S
C304 C302 1.388 . S
C304 C305 1.366 . S
C305 C304 1.366 . S
C305 C306 1.414 . S
C305 C308 1.499 . S
C306 H286 0.950 . S
C306 C305 1.414 . S
C306 C307 1.374 . S
C307 H287 0.950 . S
C307 C303 1.385 . S
C307 C306 1.374 . S
C308 C305 1.499 . S
C308 C309 1.373 . S
C308 C310 1.389 . S
C309 H288 0.950 . S
C309 C308 1.373 . S
C309 C325 1.377 . S
C310 C308 1.389 . S
C310 C311 1.524 1_545 S
C310 C324 1.377 . S
C311 C310 1.524 1_565 S
C311 C312 1.397 . S
C311 C316 1.363 . S
C312 H289 0.950 . S
C312 C311 1.397 . S
C312 C313 1.334 . S
C313 H290 0.950 . S
C313 C312 1.334 . S
C313 C314 1.287 . S
C314 C313 1.287 . S
C314 C315 1.524 . S
C314 H333 0.913 . S
C315 H291 0.950 . S
C315 C314 1.524 . S
C315 C316 1.415 . S
C316 H292 0.950 . S
C316 C311 1.363 . S
C316 C315 1.415 . S
C317 H293 0.951 . S
C317 C318 1.366 . S
C317 C319 1.388 . S
C318 C317 1.366 . S
C318 C322 1.385 . S
C319 H294 0.951 . S
C319 C317 1.388 . S
C319 C320 1.366 . S
C320 C319 1.366 . S
C320 C321 1.414 . S
C320 C323 1.499 . S
C321 H295 0.950 . S
C321 C320 1.414 . S
C321 C322 1.374 . S
C322 H296 0.950 . S
C322 C318 1.385 . S
C322 C321 1.374 . S
C323 C320 1.499 . S
C323 C324 1.373 . S
C323 C325 1.389 . S
C324 H297 0.950 1_545 S
C324 C310 1.377 . S
C324 C323 1.373 . S
C325 C309 1.377 . S
C325 C323 1.389 . S
C325 C326 1.524 . S
C326 C325 1.524 . S
C326 C327 1.397 . S
C326 C331 1.363 . S
C327 H298 0.950 . S
C327 C326 1.397 . S
C327 C328 1.334 . S
C328 H299 0.950 . S
C328 C327 1.334 . S
C328 C329 1.287 . S
C329 C328 1.287 . S
C329 C330 1.524 . S
C329 H332 0.999 . S
C330 H300 0.950 . S
C330 C329 1.524 . S
C330 C331 1.415 . S
C331 H301 0.950 . S
C331 C326 1.363 . S
C331 C330 1.415 . S
H332 C329 0.999 . S
H333 C314 0.913 . S
H334 C352 0.951 . S
H335 C354 0.951 . S
H336 C356 0.950 . S
H337 C357 0.950 . S
H338 C359 0.950 . S
H339 C362 0.950 . S
H340 C363 0.950 . S
H341 C365 0.950 . S
H342 C366 0.950 . S
H343 C367 0.951 . S
H344 C369 0.951 . S
H345 C371 0.950 . S
H346 C372 0.950 . S
H347 C374 0.950 . S
H348 C377 0.950 . S
H349 C378 0.950 . S
H350 C380 0.950 . S
H351 C381 0.950 . S
C352 H334 0.951 . S
C352 C353 1.366 . S
C352 C354 1.388 . S
C353 C352 1.366 . S
C353 C357 1.385 . S
C354 H335 0.951 . S
C354 C352 1.388 . S
C354 C355 1.366 . S
C355 C354 1.366 . S
C355 C356 1.414 . S
C355 C358 1.499 . S
C356 H336 0.950 . S
C356 C355 1.414 . S
C356 C357 1.374 . S
C357 H337 0.950 . S
C357 C353 1.385 . S
C357 C356 1.374 . S
C358 C355 1.499 . S
C358 C359 1.373 . S
C358 C360 1.389 . S
C359 H338 0.950 . S
C359 C358 1.373 . S
C359 C375 1.377 . S
C360 C358 1.389 . S
C360 C361 1.524 . S
C360 C374 1.377 . S
C361 C360 1.524 . S
C361 C362 1.397 . S
C361 C366 1.363 . S
C362 H339 0.950 . S
C362 C361 1.397 . S
C362 C363 1.334 . S
C363 H340 0.950 . S
C363 C362 1.334 . S
C363 C364 1.287 . S
C364 C363 1.287 . S
C364 C365 1.524 . S
C364 H383 0.913 . S
C365 H341 0.950 . S
C365 C364 1.524 . S
C365 C366 1.415 . S
C366 H342 0.950 . S
C366 C361 1.363 . S
C366 C365 1.415 . S
C367 H343 0.951 . S
C367 C368 1.366 . S
C367 C369 1.388 . S
C368 C367 1.366 . S
C368 C372 1.385 . S
C369 H344 0.951 . S
C369 C367 1.388 . S
C369 C370 1.366 . S
C370 C369 1.366 . S
C370 C371 1.414 . S
C370 C373 1.499 . S
C371 H345 0.950 . S
C371 C370 1.414 . S
C371 C372 1.374 . S
C372 H346 0.950 . S
C372 C368 1.385 . S
C372 C371 1.374 . S
C373 C370 1.499 . S
C373 C374 1.373 . S
C373 C375 1.389 . S
C374 H347 0.950 . S
C374 C360 1.377 . S
C374 C373 1.373 . S
C375 C359 1.377 . S
C375 C373 1.389 . S
C375 C376 1.524 . S
C376 C375 1.524 . S
C376 C377 1.397 . S
C376 C381 1.363 . S
C377 H348 0.950 . S
C377 C376 1.397 . S
C377 C378 1.334 . S
C378 H349 0.950 . S
C378 C377 1.334 . S
C378 C379 1.287 . S
C379 C378 1.287 . S
C379 C380 1.524 . S
C379 H382 0.999 . S
C380 H350 0.950 . S
C380 C379 1.524 . S
C380 C381 1.415 . S
C381 H351 0.950 . S
C381 C376 1.363 . S
C381 C380 1.415 . S
H382 C379 0.999 . S
H383 C364 0.913 . S
H384 C402 0.951 . S
H385 C404 0.951 . S
H386 C406 0.950 . S
H387 C407 0.950 . S
H388 C409 0.950 . S
H389 C412 0.950 . S
H390 C413 0.950 . S
H391 C415 0.950 . S
H392 C416 0.950 1_545 S
H393 C417 0.951 . S
H394 C419 0.951 . S
H395 C421 0.950 . S
H396 C422 0.950 . S
H397 C424 0.950 1_565 S
H398 C427 0.950 . S
H399 C428 0.950 . S
H400 C430 0.950 . S
H401 C431 0.950 . S
C402 H384 0.951 . S
C402 C403 1.366 . S
C402 C404 1.388 . S
C403 C402 1.366 . S
C403 C407 1.385 . S
C404 H385 0.951 . S
C404 C402 1.388 . S
C404 C405 1.366 . S
C405 C404 1.366 . S
C405 C406 1.414 . S
C405 C408 1.499 . S
C406 H386 0.950 . S
C406 C405 1.414 . S
C406 C407 1.374 . S
C407 H387 0.950 . S
C407 C403 1.385 . S
C407 C406 1.374 . S
C408 C405 1.499 . S
C408 C409 1.373 . S
C408 C410 1.389 . S
C409 H388 0.950 . S
C409 C408 1.373 . S
C409 C425 1.377 . S
C410 C408 1.389 . S
C410 C411 1.524 1_545 S
C410 C424 1.377 . S
C411 C410 1.524 1_565 S
C411 C412 1.397 . S
C411 C416 1.363 . S
C412 H389 0.950 . S
C412 C411 1.397 . S
C412 C413 1.334 . S
C413 H390 0.950 . S
C413 C412 1.334 . S
C413 C414 1.287 . S
C414 C413 1.287 . S
C414 C415 1.524 . S
C414 H433 0.913 . S
C415 H391 0.950 . S
C415 C414 1.524 . S
C415 C416 1.415 . S
C416 H392 0.950 1_565 S
C416 C411 1.363 . S
C416 C415 1.415 . S
C417 H393 0.951 . S
C417 C418 1.366 . S
C417 C419 1.388 . S
C418 C417 1.366 . S
C418 C422 1.385 . S
C419 H394 0.951 . S
C419 C417 1.388 . S
C419 C420 1.366 . S
C420 C419 1.366 . S
C420 C421 1.414 . S
C420 C423 1.499 . S
C421 H395 0.950 . S
C421 C420 1.414 . S
C421 C422 1.374 . S
C422 H396 0.950 . S
C422 C418 1.385 . S
C422 C421 1.374 . S
C423 C420 1.499 . S
C423 C424 1.373 . S
C423 C425 1.389 . S
C424 H397 0.950 1_545 S
C424 C410 1.377 . S
C424 C423 1.373 . S
C425 C409 1.377 . S
C425 C423 1.389 . S
C425 C426 1.524 . S
C426 C425 1.524 . S
C426 C427 1.397 . S
C426 C431 1.363 . S
C427 H398 0.950 . S
C427 C426 1.397 . S
C427 C428 1.334 . S
C428 H399 0.950 . S
C428 C427 1.334 . S
C428 C429 1.287 . S
C429 C428 1.287 . S
C429 C430 1.524 . S
C429 H432 0.999 . S
C430 H400 0.950 . S
C430 C429 1.524 . S
C430 C431 1.415 . S
C431 H401 0.950 . S
C431 C426 1.363 . S
C431 C430 1.415 . S
H432 C429 0.999 . S
H433 C414 0.913 . S
H434 C452 0.951 . S
H435 C454 0.951 . S
H436 C456 0.950 . S
H437 C457 0.950 . S
H438 C459 0.950 . S
H439 C462 0.950 . S
H440 C463 0.950 . S
H441 C465 0.950 . S
H442 C466 0.950 . S
H443 C467 0.951 . S
H444 C469 0.951 . S
H445 C471 0.950 . S
H446 C472 0.950 . S
H447 C474 0.950 . S
H448 C477 0.950 . S
H449 C478 0.950 . S
H450 C480 0.950 . S
H451 C481 0.950 . S
C452 H434 0.951 . S
C452 C453 1.366 . S
C452 C454 1.388 . S
C453 C452 1.366 . S
C453 C457 1.385 . S
C454 H435 0.951 . S
C454 C452 1.388 . S
C454 C455 1.366 . S
C455 C454 1.366 . S
C455 C456 1.414 . S
C455 C458 1.499 . S
C456 H436 0.950 . S
C456 C455 1.414 . S
C456 C457 1.374 . S
C457 H437 0.950 . S
C457 C453 1.385 . S
C457 C456 1.374 . S
C458 C455 1.499 . S
C458 C459 1.373 1_554 S
C458 C460 1.389 . S
C459 H438 0.950 . S
C459 C458 1.373 1_556 S
C459 C475 1.377 . S
C460 C458 1.389 . S
C460 C461 1.524 . S
C460 C474 1.377 1_554 S
C461 C460 1.524 . S
C461 C462 1.397 . S
C461 C466 1.363 . S
C462 H439 0.950 . S
C462 C461 1.397 . S
C462 C463 1.334 . S
C463 H440 0.950 . S
C463 C462 1.334 . S
C463 C464 1.287 . S
C464 C463 1.287 . S
C464 C465 1.524 . S
C464 H483 0.913 . S
C465 H441 0.950 . S
C465 C464 1.524 . S
C465 C466 1.415 . S
C466 H442 0.950 . S
C466 C461 1.363 . S
C466 C465 1.415 . S
C467 H443 0.951 . S
C467 C468 1.366 . S
C467 C469 1.388 . S
C468 C467 1.366 . S
C468 C472 1.385 . S
C469 H444 0.951 . S
C469 C467 1.388 . S
C469 C470 1.366 . S
C470 C469 1.366 . S
C470 C471 1.414 . S
C470 C473 1.499 . S
C471 H445 0.950 . S
C471 C470 1.414 . S
C471 C472 1.374 . S
C472 H446 0.950 . S
C472 C468 1.385 . S
C472 C471 1.374 . S
C473 C470 1.499 . S
C473 C474 1.373 . S
C473 C475 1.389 . S
C474 H447 0.950 . S
C474 C460 1.377 1_556 S
C474 C473 1.373 . S
C475 C459 1.377 . S
C475 C473 1.389 . S
C475 C476 1.524 . S
C476 C475 1.524 . S
C476 C477 1.397 . S
C476 C481 1.363 . S
C477 H448 0.950 . S
C477 C476 1.397 . S
C477 C478 1.334 . S
C478 H449 0.950 . S
C478 C477 1.334 . S
C478 C479 1.287 . S
C479 C478 1.287 . S
C479 C480 1.524 . S
C479 H482 0.999 . S
C480 H450 0.950 . S
C480 C479 1.524 . S
C480 C481 1.415 . S
C481 H451 0.950 . S
C481 C476 1.363 . S
C481 C480 1.415 . S
H482 C479 0.999 . S
H483 C464 0.913 . S
H484 C502 0.951 . S
H485 C504 0.951 . S
H486 C506 0.950 . S
H487 C507 0.950 . S
H488 C509 0.950 . S
H489 C512 0.950 . S
H490 C513 0.950 . S
H491 C515 0.950 . S
H492 C516 0.950 . S
H493 C517 0.951 . S
H494 C519 0.951 . S
H495 C521 0.950 . S
H496 C522 0.950 . S
H497 C524 0.955 1_655 S
H498 C527 0.950 1_655 S
H499 C528 0.950 1_655 S
H500 C530 0.950 . S
H501 C531 0.950 . S
C502 H484 0.951 . S
C502 C503 1.366 1_655 S
C502 C504 1.388 . S
C503 C502 1.366 1_455 S
C503 C507 1.385 . S
C504 H485 0.951 . S
C504 C502 1.388 . S
C504 C505 1.366 1_655 S
C505 C504 1.366 1_455 S
C505 C506 1.414 . S
C505 C508 1.499 . S
C506 H486 0.950 . S
C506 C505 1.414 . S
C506 C507 1.374 . S
C507 H487 0.950 . S
C507 C503 1.385 . S
C507 C506 1.374 . S
C508 C505 1.499 . S
C508 C509 1.373 . S
C508 C510 1.389 . S
C509 H488 0.950 . S
C509 C508 1.373 . S
C509 C525 1.377 . S
C510 C508 1.389 . S
C510 C511 1.524 . S
C510 C524 1.377 . S
C511 C510 1.524 . S
C511 C512 1.397 . S
C511 C516 1.363 1_455 S
C512 H489 0.950 . S
C512 C511 1.397 . S
C512 C513 1.334 . S
C513 H490 0.950 . S
C513 C512 1.334 . S
C513 C514 1.285 1_455 S
C514 C513 1.285 1_655 S
C514 C515 1.527 . S
C514 H533 0.913 . S
C515 H491 0.950 . S
C515 C514 1.527 . S
C515 C516 1.415 . S
C516 H492 0.950 . S
C516 C511 1.363 1_655 S
C516 C515 1.415 . S
C517 H493 0.951 . S
C517 C518 1.366 . S
C517 C519 1.388 . S
C518 C517 1.366 . S
C518 C522 1.385 1_455 S
C519 H494 0.951 . S
C519 C517 1.388 . S
C519 C520 1.366 . S
C520 C519 1.366 . S
C520 C521 1.414 1_455 S
C520 C523 1.499 . S
C521 H495 0.950 . S
C521 C520 1.414 1_655 S
C521 C522 1.374 . S
C522 H496 0.950 . S
C522 C518 1.385 1_655 S
C522 C521 1.374 . S
C523 C520 1.499 . S
C523 C524 1.373 . S
C523 C525 1.389 . S
C524 H497 0.955 1_455 S
C524 C510 1.377 . S
C524 C523 1.373 . S
C525 C509 1.377 . S
C525 C523 1.389 . S
C525 C526 1.524 . S
C526 C525 1.524 . S
C526 C527 1.397 . S
C526 C531 1.363 . S
C527 H498 0.950 1_455 S
C527 C526 1.397 . S
C527 C528 1.334 . S
C528 H499 0.950 1_455 S
C528 C527 1.334 . S
C528 C529 1.287 . S
C529 C528 1.287 . S
C529 C530 1.524 . S
C529 H532 0.999 . S
C530 H500 0.950 . S
C530 C529 1.524 . S
C530 C531 1.415 . S
C531 H501 0.950 . S
C531 C526 1.363 . S
C531 C530 1.415 . S
H532 C529 0.999 . S
H533 C514 0.913 . S
H534 C552 0.951 . S
H535 C554 0.951 . S
H536 C556 0.950 1_565 S
H537 C557 0.950 1_565 S
H538 C559 0.950 . S
H539 C562 0.950 . S
H540 C563 0.950 . S
H541 C565 0.950 . S
H542 C566 0.950 . S
H543 C567 0.951 1_565 S
H544 C569 0.951 1_565 S
H545 C571 0.950 . S
H546 C572 0.950 . S
H547 C574 0.950 . S
H548 C577 0.950 . S
H549 C578 0.950 . S
H550 C580 0.950 . S
H551 C581 0.950 . S
C552 H534 0.951 . S
C552 C553 1.366 . S
C552 C554 1.388 . S
C553 C552 1.366 . S
C553 C557 1.385 . S
C554 H535 0.951 . S
C554 C552 1.388 . S
C554 C555 1.366 . S
C555 C554 1.366 . S
C555 C556 1.414 . S
C555 C558 1.499 . S
C556 H536 0.950 1_545 S
C556 C555 1.414 . S
C556 C557 1.374 . S
C557 H537 0.950 1_545 S
C557 C553 1.385 . S
C557 C556 1.374 . S
C558 C555 1.499 . S
C558 C559 1.373 . S
C558 C560 1.389 . S
C559 H538 0.950 . S
C559 C558 1.373 . S
C559 C575 1.377 . S
C560 C558 1.389 . S
C560 C561 1.524 . S
C560 C574 1.377 . S
C561 C560 1.524 . S
C561 C562 1.397 1_545 S
C561 C566 1.363 . S
C562 H539 0.950 . S
C562 C561 1.397 1_565 S
C562 C563 1.334 . S
C563 H540 0.950 . S
C563 C562 1.334 . S
C563 C564 1.287 . S
C564 C563 1.287 . S
C564 C565 1.524 1_565 S
C564 H583 0.913 . S
C565 H541 0.950 . S
C565 C564 1.524 1_545 S
C565 C566 1.415 . S
C566 H542 0.950 . S
C566 C561 1.363 . S
C566 C565 1.415 . S
C567 H543 0.951 1_545 S
C567 C568 1.366 . S
C567 C569 1.388 . S
C568 C567 1.366 . S
C568 C572 1.385 . S
C569 H544 0.951 1_545 S
C569 C567 1.388 . S
C569 C570 1.366 . S
C570 C569 1.366 . S
C570 C571 1.414 . S
C570 C573 1.499 . S
C571 H545 0.950 . S
C571 C570 1.414 . S
C571 C572 1.374 . S
C572 H546 0.950 . S
C572 C568 1.385 . S
C572 C571 1.374 . S
C573 C570 1.499 . S
C573 C574 1.373 . S
C573 C575 1.389 . S
C574 H547 0.950 . S
C574 C560 1.377 . S
C574 C573 1.373 . S
C575 C559 1.377 . S
C575 C573 1.389 . S
C575 C576 1.524 . S
C576 C575 1.524 . S
C576 C577 1.397 . S
C576 C581 1.363 . S
C577 H548 0.950 . S
C577 C576 1.397 . S
C577 C578 1.334 . S
C578 H549 0.950 . S
C578 C577 1.334 . S
C578 C579 1.287 . S
C579 C578 1.287 . S
C579 C580 1.524 . S
C579 H582 0.999 . S
C580 H550 0.950 . S
C580 C579 1.524 . S
C580 C581 1.415 . S
C581 H551 0.950 . S
C581 C576 1.363 . S
C581 C580 1.415 . S
H582 C579 0.999 . S
H583 C564 0.913 . S
H584 C602 0.951 . S
H585 C604 0.951 . S
H586 C606 0.950 1_556 S
H587 C607 0.950 . S
H588 C609 0.950 . S
H589 C612 0.950 . S
H590 C613 0.950 . S
H591 C615 0.950 . S
H592 C616 0.950 . S
H593 C617 0.951 . S
H594 C619 0.951 . S
H595 C621 0.950 . S
H596 C622 0.950 . S
H597 C624 0.950 . S
H598 C627 0.950 . S
H599 C628 0.950 . S
H600 C630 0.950 . S
H601 C631 0.950 . S
C602 H584 0.951 . S
C602 C603 1.366 . S
C602 C604 1.388 . S
C603 C602 1.366 . S
C603 C607 1.385 . S
C604 H585 0.951 . S
C604 C602 1.388 . S
C604 C605 1.366 . S
C605 C604 1.366 . S
C605 C606 1.414 . S
C605 C608 1.495 1_554 S
C606 H586 0.950 1_554 S
C606 C605 1.414 . S
C606 C607 1.374 . S
C607 H587 0.950 . S
C607 C603 1.385 . S
C607 C606 1.374 . S
C608 C605 1.495 1_556 S
C608 C609 1.378 . S
C608 C610 1.388 1_556 S
C609 H588 0.950 . S
C609 C608 1.378 . S
C609 C625 1.377 . S
C610 C608 1.388 1_554 S
C610 C611 1.524 . S
C610 C624 1.377 1_554 S
C611 C610 1.524 . S
C611 C612 1.397 . S
C611 C616 1.363 . S
C612 H589 0.950 . S
C612 C611 1.397 . S
C612 C613 1.334 . S
C613 H590 0.950 . S
C613 C612 1.334 . S
C613 C614 1.287 . S
C614 C613 1.287 . S
C614 C615 1.524 . S
C614 H633 0.913 . S
C615 H591 0.950 . S
C615 C614 1.524 . S
C615 C616 1.415 . S
C616 H592 0.950 . S
C616 C611 1.363 . S
C616 C615 1.415 . S
C617 H593 0.951 . S
C617 C618 1.366 . S
C617 C619 1.388 . S
C618 C617 1.366 . S
C618 C622 1.385 . S
C619 H594 0.951 . S
C619 C617 1.388 . S
C619 C620 1.366 . S
C620 C619 1.366 . S
C620 C621 1.414 . S
C620 C623 1.499 . S
C621 H595 0.950 . S
C621 C620 1.414 . S
C621 C622 1.374 . S
C622 H596 0.950 . S
C622 C618 1.385 . S
C622 C621 1.374 . S
C623 C620 1.499 . S
C623 C624 1.373 . S
C623 C625 1.389 . S
C624 H597 0.950 . S
C624 C610 1.377 1_556 S
C624 C623 1.373 . S
C625 C609 1.377 . S
C625 C623 1.389 . S
C625 C626 1.524 . S
C626 C625 1.524 . S
C626 C627 1.397 . S
C626 C631 1.363 . S
C627 H598 0.950 . S
C627 C626 1.397 . S
C627 C628 1.334 . S
C628 H599 0.950 . S
C628 C627 1.334 . S
C628 C629 1.287 . S
C629 C628 1.287 . S
C629 C630 1.524 . S
C629 H632 0.999 . S
C630 H600 0.950 . S
C630 C629 1.524 . S
C630 C631 1.415 . S
C631 H601 0.950 . S
C631 C626 1.363 . S
C631 C630 1.415 . S
H632 C629 0.999 . S
H633 C614 0.913 . S
H634 C652 0.951 . S
H635 C654 0.951 . S
H636 C656 0.950 . S
H637 C657 0.950 . S
H638 C659 0.950 . S
H639 C662 0.950 . S
H640 C663 0.950 . S
H641 C665 0.950 . S
H642 C666 0.950 . S
H643 C667 0.951 . S
H644 C669 0.951 . S
H645 C671 0.950 . S
H646 C672 0.950 . S
H647 C674 0.950 . S
H648 C677 0.950 . S
H649 C678 0.950 . S
H650 C680 0.950 . S
H651 C681 0.950 . S
C652 H634 0.951 . S
C652 C653 1.366 . S
C652 C654 1.388 . S
C653 C652 1.366 . S
C653 C657 1.385 . S
C654 H635 0.951 . S
C654 C652 1.388 . S
C654 C655 1.366 . S
C655 C654 1.366 . S
C655 C656 1.414 . S
C655 C658 1.499 . S
C656 H636 0.950 . S
C656 C655 1.414 . S
C656 C657 1.374 . S
C657 H637 0.950 . S
C657 C653 1.385 . S
C657 C656 1.374 . S
C658 C655 1.499 . S
C658 C659 1.373 1_455 S
C658 C660 1.389 . S
C659 H638 0.950 . S
C659 C658 1.373 1_655 S
C659 C675 1.377 . S
C660 C658 1.389 . S
C660 C661 1.524 . S
C660 C674 1.377 . S
C661 C660 1.524 . S
C661 C662 1.397 . S
C661 C666 1.363 . S
C662 H639 0.950 . S
C662 C661 1.397 . S
C662 C663 1.334 . S
C663 H640 0.950 . S
C663 C662 1.334 . S
C663 C664 1.287 . S
C664 C663 1.287 . S
C664 C665 1.524 . S
C664 H683 0.913 . S
C665 H641 0.950 . S
C665 C664 1.524 . S
C665 C666 1.415 . S
C666 H642 0.950 . S
C666 C661 1.363 . S
C666 C665 1.415 . S
C667 H643 0.951 . S
C667 C668 1.366 . S
C667 C669 1.388 . S
C668 C667 1.366 . S
C668 C672 1.385 . S
C669 H644 0.951 . S
C669 C667 1.388 . S
C669 C670 1.366 . S
C670 C669 1.366 . S
C670 C671 1.414 . S
C670 C673 1.499 . S
C671 H645 0.950 . S
C671 C670 1.414 . S
C671 C672 1.374 . S
C672 H646 0.950 . S
C672 C668 1.385 . S
C672 C671 1.374 . S
C673 C670 1.499 . S
C673 C674 1.373 . S
C673 C675 1.389 1_455 S
C674 H647 0.950 . S
C674 C660 1.377 . S
C674 C673 1.373 . S
C675 C659 1.377 . S
C675 C673 1.389 1_655 S
C675 C676 1.524 . S
C676 C675 1.524 . S
C676 C677 1.397 . S
C676 C681 1.363 . S
C677 H648 0.950 . S
C677 C676 1.397 . S
C677 C678 1.334 . S
C678 H649 0.950 . S
C678 C677 1.334 . S
C678 C679 1.287 . S
C679 C678 1.287 . S
C679 C680 1.524 . S
C679 H682 0.999 . S
C680 H650 0.950 . S
C680 C679 1.524 . S
C680 C681 1.415 . S
C681 H651 0.950 . S
C681 C676 1.363 . S
C681 C680 1.415 . S
H682 C679 0.999 . S
H683 C664 0.913 . S
C118 C43 1.465 . S
C103 C3 1.461 . S
C153 C21 1.479 . S
C168 C69 1.501 . S
C203 C37 1.455 . S
C218 C71 1.474 . S
C253 C8 1.465 . S
C268 C55 1.465 . S
C318 C57 1.475 . S
C303 C23 1.456 . S
C353 C35 1.450 . S
C368 C83 1.473 . S
C418 C56 1.463 . S
C403 C31 1.459 . S
C453 C7 1.450 . S
C468 C82 1.473 . S
C518 C42 1.466 . S
C503 C17 1.462 . S
C568 C68 1.434 . S
C553 C36 1.434 . S
C618 C70 1.475 . S
C603 C9 1.456 . S
C653 C22 1.466 . S
C668 C54 1.465 . S
