# Generated by pormake.
# Topology ibd, (4,6)-cn, num edge types: 1
# Building blocks:
#     Node 0, Type 0, BuildingBlock: GALJAG_clean_sbu_0, # of connection points: 4
#     Node 1, Type 0, BuildingBlock: GALJAG_clean_sbu_0, # of connection points: 4
#     Node 2, Type 0, BuildingBlock: GALJAG_clean_sbu_0, # of connection points: 4
#     Node 3, Type 0, BuildingBlock: GALJAG_clean_sbu_0, # of connection points: 4
#     Node 4, Type 0, BuildingBlock: GALJAG_clean_sbu_0, # of connection points: 4
#     Node 5, Type 0, BuildingBlock: GALJAG_clean_sbu_0, # of connection points: 4
#     Node 6, Type 0, BuildingBlock: GALJAG_clean_sbu_0, # of connection points: 4
#     Node 7, Type 0, BuildingBlock: GALJAG_clean_sbu_0, # of connection points: 4
#     Node 8, Type 0, BuildingBlock: GALJAG_clean_sbu_0, # of connection points: 4
#     Node 9, Type 0, BuildingBlock: GALJAG_clean_sbu_0, # of connection points: 4
#     Node 10, Type 0, BuildingBlock: GALJAG_clean_sbu_0, # of connection points: 4
#     Node 11, Type 0, BuildingBlock: GALJAG_clean_sbu_0, # of connection points: 4
#     Node 12, Type 0, BuildingBlock: GALJAG_clean_sbu_0, # of connection points: 4
#     Node 13, Type 0, BuildingBlock: GALJAG_clean_sbu_0, # of connection points: 4
#     Node 14, Type 0, BuildingBlock: GALJAG_clean_sbu_0, # of connection points: 4
#     Node 15, Type 0, BuildingBlock: GALJAG_clean_sbu_0, # of connection points: 4
#     Node 16, Type 0, BuildingBlock: GALJAG_clean_sbu_0, # of connection points: 4
#     Node 17, Type 0, BuildingBlock: GALJAG_clean_sbu_0, # of connection points: 4
#     Node 18, Type 0, BuildingBlock: GALJAG_clean_sbu_0, # of connection points: 4
#     Node 19, Type 0, BuildingBlock: GALJAG_clean_sbu_0, # of connection points: 4
#     Node 20, Type 0, BuildingBlock: GALJAG_clean_sbu_0, # of connection points: 4
#     Node 21, Type 0, BuildingBlock: GALJAG_clean_sbu_0, # of connection points: 4
#     Node 22, Type 0, BuildingBlock: GALJAG_clean_sbu_0, # of connection points: 4
#     Node 23, Type 0, BuildingBlock: GALJAG_clean_sbu_0, # of connection points: 4
#     Node 24, Type 1, BuildingBlock: OJICUG_clean_sbu_0, # of connection points: 6
#     Node 25, Type 1, BuildingBlock: OJICUG_clean_sbu_0, # of connection points: 6
#     Node 26, Type 1, BuildingBlock: OJICUG_clean_sbu_0, # of connection points: 6
#     Node 27, Type 1, BuildingBlock: OJICUG_clean_sbu_0, # of connection points: 6
#     Node 28, Type 1, BuildingBlock: OJICUG_clean_sbu_0, # of connection points: 6
#     Node 29, Type 1, BuildingBlock: OJICUG_clean_sbu_0, # of connection points: 6
#     Node 30, Type 1, BuildingBlock: OJICUG_clean_sbu_0, # of connection points: 6
#     Node 31, Type 1, BuildingBlock: OJICUG_clean_sbu_0, # of connection points: 6
#     Node 32, Type 1, BuildingBlock: OJICUG_clean_sbu_0, # of connection points: 6
#     Node 33, Type 1, BuildingBlock: OJICUG_clean_sbu_0, # of connection points: 6
#     Node 34, Type 1, BuildingBlock: OJICUG_clean_sbu_0, # of connection points: 6
#     Node 35, Type 1, BuildingBlock: OJICUG_clean_sbu_0, # of connection points: 6
#     Node 36, Type 1, BuildingBlock: OJICUG_clean_sbu_0, # of connection points: 6
#     Node 37, Type 1, BuildingBlock: OJICUG_clean_sbu_0, # of connection points: 6
#     Node 38, Type 1, BuildingBlock: OJICUG_clean_sbu_0, # of connection points: 6
#     Node 39, Type 1, BuildingBlock: OJICUG_clean_sbu_0, # of connection points: 6
#     Edge 40, Type (0, 1), None
#     Edge 41, Type (0, 1), None
#     Edge 42, Type (0, 1), None
#     Edge 43, Type (0, 1), None
#     Edge 44, Type (0, 1), None
#     Edge 45, Type (0, 1), None
#     Edge 46, Type (0, 1), None
#     Edge 47, Type (0, 1), None
#     Edge 48, Type (0, 1), None
#     Edge 49, Type (0, 1), None
#     Edge 50, Type (0, 1), None
#     Edge 51, Type (0, 1), None
#     Edge 52, Type (0, 1), None
#     Edge 53, Type (0, 1), None
#     Edge 54, Type (0, 1), None
#     Edge 55, Type (0, 1), None
#     Edge 56, Type (0, 1), None
#     Edge 57, Type (0, 1), None
#     Edge 58, Type (0, 1), None
#     Edge 59, Type (0, 1), None
#     Edge 60, Type (0, 1), None
#     Edge 61, Type (0, 1), None
#     Edge 62, Type (0, 1), None
#     Edge 63, Type (0, 1), None
#     Edge 64, Type (0, 1), None
#     Edge 65, Type (0, 1), None
#     Edge 66, Type (0, 1), None
#     Edge 67, Type (0, 1), None
#     Edge 68, Type (0, 1), None
#     Edge 69, Type (0, 1), None
#     Edge 70, Type (0, 1), None
#     Edge 71, Type (0, 1), None
#     Edge 72, Type (0, 1), None
#     Edge 73, Type (0, 1), None
#     Edge 74, Type (0, 1), None
#     Edge 75, Type (0, 1), None
#     Edge 76, Type (0, 1), None
#     Edge 77, Type (0, 1), None
#     Edge 78, Type (0, 1), None
#     Edge 79, Type (0, 1), None
#     Edge 80, Type (0, 1), None
#     Edge 81, Type (0, 1), None
#     Edge 82, Type (0, 1), None
#     Edge 83, Type (0, 1), None
#     Edge 84, Type (0, 1), None
#     Edge 85, Type (0, 1), None
#     Edge 86, Type (0, 1), None
#     Edge 87, Type (0, 1), None
#     Edge 88, Type (0, 1), None
#     Edge 89, Type (0, 1), None
#     Edge 90, Type (0, 1), None
#     Edge 91, Type (0, 1), None
#     Edge 92, Type (0, 1), None
#     Edge 93, Type (0, 1), None
#     Edge 94, Type (0, 1), None
#     Edge 95, Type (0, 1), None
#     Edge 96, Type (0, 1), None
#     Edge 97, Type (0, 1), None
#     Edge 98, Type (0, 1), None
#     Edge 99, Type (0, 1), None
#     Edge 100, Type (0, 1), None
#     Edge 101, Type (0, 1), None
#     Edge 102, Type (0, 1), None
#     Edge 103, Type (0, 1), None
#     Edge 104, Type (0, 1), None
#     Edge 105, Type (0, 1), None
#     Edge 106, Type (0, 1), None
#     Edge 107, Type (0, 1), None
#     Edge 108, Type (0, 1), None
#     Edge 109, Type (0, 1), None
#     Edge 110, Type (0, 1), None
#     Edge 111, Type (0, 1), None
#     Edge 112, Type (0, 1), None
#     Edge 113, Type (0, 1), None
#     Edge 114, Type (0, 1), None
#     Edge 115, Type (0, 1), None
#     Edge 116, Type (0, 1), None
#     Edge 117, Type (0, 1), None
#     Edge 118, Type (0, 1), None
#     Edge 119, Type (0, 1), None
#     Edge 120, Type (0, 1), None
#     Edge 121, Type (0, 1), None
#     Edge 122, Type (0, 1), None
#     Edge 123, Type (0, 1), None
#     Edge 124, Type (0, 1), None
#     Edge 125, Type (0, 1), None
#     Edge 126, Type (0, 1), None
#     Edge 127, Type (0, 1), None
#     Edge 128, Type (0, 1), None
#     Edge 129, Type (0, 1), None
#     Edge 130, Type (0, 1), None
#     Edge 131, Type (0, 1), None
#     Edge 132, Type (0, 1), None
#     Edge 133, Type (0, 1), None
#     Edge 134, Type (0, 1), None
#     Edge 135, Type (0, 1), None
# Relax obj value: 0.277
# Max RMSD: 0.279
# Mean RMSD: 0.234
data_MOF--net-ibd--node1-GALJAG_clean_sbu_0--node2-OJICUG_clean_sbu_0--edge1-none
_symmetry_space_group_name_H-M    P1
_symmetry_Int_Tables_number       1
_symmetry_cell_setting            triclinic
loop_
_symmetry_equiv_pos_as_xyz
'x, y, z'
_cell_length_a     24.142147
_cell_length_b     24.142086
_cell_length_c     24.142039
_cell_angle_alpha  90.042441
_cell_angle_beta   90.043429
_cell_angle_gamma 90.042512
loop_
_atom_site_label
_atom_site_type_symbol
_atom_site_fract_x
_atom_site_fract_y
_atom_site_fract_z
_atom_type_partial_charge
In0 In -0.02054 0.22968 0.35464 0.0
O1 O 0.04383 0.23186 0.28625 0.0
O2 O 0.01664 0.15269 0.31387 0.0
C3 C 0.02915 0.29569 0.4295 0.0
C4 C 0.91337 0.27941 0.28002 0.0
C5 C 0.92979 0.16359 0.42927 0.0
O6 O 0.05648 0.26688 0.39548 0.0
O7 O 0.97733 0.29397 0.42318 0.0
O8 O 0.90245 0.19247 0.39532 0.0
O9 O -0.0184 0.16528 0.42298 0.0
C10 C 0.04554 0.18004 0.27995 0.0
O11 O 0.91501 0.22758 0.28625 0.0
O12 O 0.94234 0.30672 0.31399 0.0
In13 In -0.02022 0.72968 0.60482 0.0
O14 O 0.94263 0.80667 0.64561 0.0
O15 O 0.91535 0.72751 0.67315 0.0
C16 C 0.02944 0.79578 0.53019 0.0
C17 C 0.04585 0.67994 0.67946 0.0
C18 C 0.93011 0.66368 0.52995 0.0
O19 O 0.97763 0.79407 0.53648 0.0
O20 O 0.05679 0.76692 0.56415 0.0
O21 O -0.01807 0.66543 0.53625 0.0
O22 O 0.90278 0.69246 0.564 0.0
C23 C 0.91367 0.77933 0.67949 0.0
O24 O 0.01689 0.65263 0.64548 0.0
O25 O 0.04422 0.73176 0.67323 0.0
In26 In 0.47939 0.72957 0.85463 0.0
O27 O 0.54384 0.73177 0.78632 0.0
O28 O 0.51657 0.6526 0.81383 0.0
C29 C 0.52905 0.79557 0.92951 0.0
C30 C 0.41334 0.77934 0.77998 0.0
C31 C 0.42973 0.66346 0.92925 0.0
O32 O 0.55639 0.7668 0.89547 0.0
O33 O 0.47723 0.79381 0.92321 0.0
O34 O 0.40238 0.69233 0.89529 0.0
O35 O 0.48154 0.66516 0.92295 0.0
C36 C 0.54554 0.67996 0.77997 0.0
O37 O 0.415 0.72752 0.78617 0.0
O38 O 0.44227 0.80663 0.81401 0.0
In39 In 0.47992 0.22989 0.10484 0.0
O40 O 0.51692 0.15278 0.14547 0.0
O41 O 0.54438 0.23185 0.17323 0.0
C42 C 0.43034 0.16401 0.02981 0.0
C43 C 0.41376 0.27946 0.1795 0.0
C44 C 0.52956 0.29603 0.03026 0.0
O45 O 0.48216 0.16582 0.0361 0.0
O46 O 0.40297 0.19266 0.06393 0.0
O47 O 0.47775 0.29434 0.03656 0.0
O48 O 0.55691 0.26717 0.06422 0.0
C49 C 0.54593 0.18003 0.17945 0.0
O50 O 0.44279 0.30684 0.14571 0.0
O51 O 0.4154 0.22765 0.17308 0.0
In52 In -0.02035 0.72953 0.10463 0.0
O53 O 0.90267 0.7667 0.06384 0.0
O54 O -0.01816 0.79397 0.03631 0.0
C55 C 0.91353 0.67988 0.17926 0.0
C56 C 0.02938 0.66346 0.02998 0.0
C57 C 0.04565 0.77918 0.1795 0.0
O58 O 0.91526 0.7317 0.17298 0.0
O59 O 0.94239 0.65253 0.1453 0.0
O60 O 0.0439 0.72736 0.1732 0.0
O61 O 0.01689 0.80652 0.14545 0.0
C62 C 0.93002 0.79566 0.02998 0.0
O63 O 0.05669 0.69241 0.06398 0.0
O64 O 0.97756 0.66511 0.03621 0.0
In65 In 0.47962 0.72983 0.35483 0.0
O66 O 0.47743 0.66539 0.42315 0.0
O67 O 0.5566 0.69264 0.3956 0.0
C68 C 0.4136 0.68019 0.27995 0.0
C69 C 0.42989 0.79591 0.42947 0.0
C70 C 0.54573 0.77946 0.2802 0.0
O71 O 0.44235 0.65284 0.314 0.0
O72 O 0.41537 0.73201 0.28625 0.0
O73 O 0.51686 0.80681 0.31415 0.0
O74 O 0.54402 0.72764 0.2865 0.0
C75 C 0.52925 0.6637 0.42948 0.0
O76 O 0.48172 0.79424 0.42326 0.0
O77 O 0.40258 0.76697 0.39548 0.0
In78 In 0.47961 0.22951 0.6046 0.0
O79 O 0.55663 0.19236 0.56394 0.0
O80 O 0.47747 0.16514 0.53615 0.0
C81 C 0.5456 0.27914 0.67951 0.0
C82 C 0.43 0.29568 0.52997 0.0
C83 C 0.41345 0.17981 0.67913 0.0
O84 O 0.54382 0.22732 0.67322 0.0
O85 O 0.51686 0.30649 0.64545 0.0
O86 O 0.4151 0.23162 0.67281 0.0
O87 O 0.44242 0.15248 0.64525 0.0
C88 C 0.5293 0.16345 0.52993 0.0
O89 O 0.40264 0.26674 0.56386 0.0
O90 O 0.48182 0.29394 0.53628 0.0
In91 In -0.02045 0.22978 0.85481 0.0
O92 O 0.97733 0.16534 0.92313 0.0
O93 O 0.05651 0.19254 0.89557 0.0
C94 C 0.91352 0.18014 0.77995 0.0
C95 C 0.92985 0.29583 0.92949 0.0
C96 C 0.04567 0.27943 0.78019 0.0
O97 O 0.94231 0.1528 0.81398 0.0
O98 O 0.91527 0.23196 0.78627 0.0
O99 O 0.01682 0.30678 0.81415 0.0
O100 O 0.04395 0.22762 0.78647 0.0
C101 C 0.02914 0.16361 0.92945 0.0
O102 O -0.01833 0.29414 0.92329 0.0
O103 O 0.90252 0.26694 0.89546 0.0
In104 In 0.35448 -0.0205 0.22967 0.0
O105 O 0.28606 0.91508 0.22761 0.0
O106 O 0.31385 0.9424 0.30673 0.0
C107 C 0.42915 0.92981 0.16362 0.0
C108 C 0.27979 0.04558 0.18002 0.0
C109 C 0.42931 0.02923 0.29568 0.0
O110 O 0.39518 0.90248 0.19249 0.0
O111 O 0.42285 -0.01838 0.1653 0.0
O112 O 0.39532 0.05654 0.26682 0.0
O113 O 0.42297 0.97741 0.29401 0.0
C114 C 0.27985 0.91344 0.27944 0.0
O115 O 0.28614 0.04392 0.23184 0.0
O116 O 0.31366 0.01662 0.15268 0.0
In117 In 0.22966 0.10477 0.4799 0.0
O118 O 0.15261 0.14542 0.51702 0.0
O119 O 0.23174 0.17318 0.54433 0.0
C120 C 0.16363 0.02992 0.43024 0.0
C121 C 0.27929 0.17944 0.41378 0.0
C122 C 0.29576 0.03014 0.52956 0.0
O123 O 0.16539 0.03622 0.48206 0.0
O124 O 0.19241 0.06395 0.4029 0.0
O125 O 0.29404 0.03642 0.47774 0.0
O126 O 0.26691 0.06411 0.5569 0.0
C127 C 0.17992 0.17941 0.54598 0.0
O128 O 0.30664 0.14557 0.44273 0.0
O129 O 0.22747 0.1731 0.41547 0.0
In130 In 0.10456 -0.02026 0.72962 0.0
O131 O 0.0638 0.90274 0.76679 0.0
O132 O 0.03623 -0.0181 0.79405 0.0
C133 C 0.17919 0.91365 0.67992 0.0
C134 C 0.02986 0.02942 0.66354 0.0
C135 C 0.17942 0.04576 0.77931 0.0
O136 O 0.17289 0.91531 0.73173 0.0
O137 O 0.14525 0.94256 0.65259 0.0
O138 O 0.17309 0.04404 0.72749 0.0
O139 O 0.14541 0.01695 0.80664 0.0
C140 C 0.02991 0.93008 0.79573 0.0
O141 O 0.06386 0.05675 0.69246 0.0
O142 O 0.0361 0.9776 0.66523 0.0
In143 In 0.22978 0.85481 -0.02026 0.0
O144 O 0.16519 0.92299 0.97759 0.0
O145 O 0.1926 0.89554 0.05675 0.0
C146 C 0.18014 0.77997 0.91367 0.0
C147 C 0.29582 0.9296 0.93012 0.0
C148 C 0.2794 0.78011 0.04579 0.0
O149 O 0.15279 0.81399 0.94246 0.0
O150 O 0.23196 0.7863 0.91542 0.0
O151 O 0.30676 0.81408 0.01696 0.0
O152 O 0.22759 0.78642 0.04409 0.0
C153 C 0.16354 0.92934 0.02941 0.0
O154 O 0.29407 0.9234 -0.01806 0.0
O155 O 0.26699 0.89554 0.90277 0.0
In156 In 0.22957 0.35456 -0.02043 0.0
O157 O 0.22754 0.28624 0.91505 0.0
O158 O 0.30665 0.31402 0.94241 0.0
C159 C 0.1635 0.42925 0.92995 0.0
C160 C 0.17992 0.27981 0.0456 0.0
C161 C 0.29559 0.42938 0.02929 0.0
O162 O 0.19229 0.39524 0.90259 0.0
O163 O 0.16525 0.42298 -0.01823 0.0
O164 O 0.26676 0.39536 0.05661 0.0
O165 O 0.29387 0.42307 0.97747 0.0
C166 C 0.27937 0.28006 0.91339 0.0
O167 O 0.23174 0.28613 0.0439 0.0
O168 O 0.15258 0.31374 0.01671 0.0
In169 In 0.72943 0.10454 -0.02027 0.0
O170 O 0.69227 0.06387 0.05675 0.0
O171 O 0.66504 0.03608 0.9776 0.0
C172 C 0.77906 0.17938 0.04579 0.0
C173 C 0.7956 0.02992 0.9301 0.0
C174 C 0.67982 0.17921 0.91364 0.0
O175 O 0.72724 0.17309 0.044 0.0
O176 O 0.80641 0.14534 0.01703 0.0
O177 O 0.73163 0.17292 0.91537 0.0
O178 O 0.65245 0.14523 0.94246 0.0
C179 C 0.66336 0.02986 0.02942 0.0
O180 O 0.76662 0.06378 0.90274 0.0
O181 O 0.79391 0.03626 -0.01809 0.0
In182 In 0.10468 0.47979 0.22977 0.0
O183 O 0.14546 0.44262 0.30675 0.0
O184 O 0.17302 0.41538 0.22758 0.0
C185 C 0.03004 0.52949 0.29584 0.0
C186 C 0.17932 0.54587 0.18004 0.0
C187 C 0.02984 0.43011 0.16374 0.0
O188 O 0.03632 0.47767 0.29415 0.0
O189 O 0.06402 0.55682 0.26697 0.0
O190 O 0.03616 0.48193 0.16546 0.0
O191 O 0.06385 0.40278 0.19257 0.0
C192 C 0.17935 0.41369 0.2794 0.0
O193 O 0.14533 0.51692 0.15273 0.0
O194 O 0.1731 0.54421 0.23186 0.0
In195 In 0.72954 0.85458 0.47953 0.0
O196 O 0.72747 0.78614 0.41512 0.0
O197 O 0.80659 0.81396 0.44239 0.0
C198 C 0.6634 0.92919 0.42989 0.0
C199 C 0.67993 0.77992 0.54567 0.0
C200 C 0.79555 0.92946 0.52916 0.0
O201 O 0.69225 0.89523 0.40253 0.0
O202 O 0.66513 0.92291 0.4817 0.0
O203 O 0.7668 0.89541 0.55651 0.0
O204 O 0.79377 0.92316 0.47734 0.0
C205 C 0.7793 0.77995 0.41346 0.0
O206 O 0.73175 0.78626 0.54397 0.0
O207 O 0.65257 0.81378 0.51672 0.0
In208 In 0.85465 -0.02039 0.22989 0.0
O209 O 0.92311 -0.01825 0.29428 0.0
O210 O 0.89533 0.9026 0.26705 0.0
C211 C 0.77999 0.04569 0.27954 0.0
C212 C 0.92928 0.02927 0.16377 0.0
C213 C 0.77983 0.91358 0.18021 0.0
O214 O 0.81395 0.01683 0.30689 0.0
O215 O 0.78629 0.04399 0.22772 0.0
O216 O 0.81384 0.94239 0.15288 0.0
O217 O 0.78614 0.9153 0.23203 0.0
C218 C 0.92933 0.92993 0.29597 0.0
O219 O 0.92296 0.97745 0.16545 0.0
O220 O 0.89541 0.05661 0.19273 0.0
In221 In 0.22944 0.60459 0.47977 0.0
O222 O 0.26658 0.5638 0.40278 0.0
O223 O 0.2939 0.53629 0.48195 0.0
C224 C 0.17979 0.67923 0.41367 0.0
C225 C 0.1634 0.52992 0.52952 0.0
C226 C 0.27911 0.67946 0.54576 0.0
O227 O 0.23161 0.67294 0.41538 0.0
O228 O 0.15244 0.64527 0.44253 0.0
O229 O 0.22728 0.67315 0.54402 0.0
O230 O 0.30644 0.64541 0.51699 0.0
C231 C 0.29556 0.52995 0.43013 0.0
O232 O 0.19235 0.56392 0.55682 0.0
O233 O 0.16503 0.53616 0.47769 0.0
In234 In 0.35474 0.47966 0.7299 0.0
O235 O 0.42319 0.48178 0.7943 0.0
O236 O 0.39539 0.40264 0.76707 0.0
C237 C 0.28008 0.54577 0.77953 0.0
C238 C 0.42938 0.52928 0.66376 0.0
C239 C 0.27989 0.41362 0.68027 0.0
O240 O 0.31406 0.51694 0.80689 0.0
O241 O 0.28637 0.54403 0.72772 0.0
O242 O 0.31391 0.4424 0.65292 0.0
O243 O 0.2862 0.41537 0.73209 0.0
C244 C 0.4294 0.42996 0.79598 0.0
O245 O 0.42305 0.47746 0.66546 0.0
O246 O 0.3955 0.55664 0.69271 0.0
In247 In 0.60472 -0.02015 0.72974 0.0
O248 O 0.64551 0.94268 0.80674 0.0
O249 O 0.67306 0.91543 0.72757 0.0
C250 C 0.5301 0.0296 0.79579 0.0
C251 C 0.67935 0.04591 0.67998 0.0
C252 C 0.52986 0.93016 0.66375 0.0
O253 O 0.53637 0.97778 0.79413 0.0
O254 O 0.56409 0.05691 0.76692 0.0
O255 O 0.53618 -0.01802 0.66547 0.0
O256 O 0.56389 0.90284 0.69256 0.0
C257 C 0.67939 0.91374 0.77939 0.0
O258 O 0.64535 0.01695 0.65268 0.0
O259 O 0.67314 0.04427 0.7318 0.0
In260 In 0.72966 0.60476 -0.02013 0.0
O261 O 0.6526 0.64538 0.01699 0.0
O262 O 0.73172 0.67315 0.04433 0.0
C263 C 0.66365 0.52993 0.93018 0.0
C264 C 0.77931 0.67944 0.91378 0.0
C265 C 0.79573 0.53008 0.02952 0.0
O266 O 0.66538 0.53623 -0.018 0.0
O267 O 0.69245 0.56396 0.90285 0.0
O268 O 0.794 0.53635 0.9777 0.0
O269 O 0.76692 0.56409 0.05687 0.0
C270 C 0.67989 0.67936 0.04597 0.0
O271 O 0.80666 0.64557 0.94273 0.0
O272 O 0.72749 0.6731 0.91546 0.0
In273 In 0.85455 0.47952 0.7297 0.0
O274 O 0.78613 0.4151 0.72758 0.0
O275 O 0.81391 0.44236 0.80672 0.0
C276 C 0.9292 0.42987 0.66362 0.0
C277 C 0.77988 0.54564 0.68007 0.0
C278 C 0.92939 0.52918 0.79575 0.0
O279 O 0.89522 0.40252 0.69246 0.0
O280 O 0.92293 0.48168 0.66534 0.0
O281 O 0.89537 0.55652 0.76695 0.0
O282 O 0.92308 0.47736 0.794 0.0
C283 C 0.77992 0.41342 0.7794 0.0
O284 O 0.7862 0.54393 0.73189 0.0
O285 O 0.81377 0.51671 0.65272 0.0
In286 In 0.72978 0.35477 0.47969 0.0
O287 O 0.66535 0.4231 0.47751 0.0
O288 O 0.69261 0.39554 0.55668 0.0
C289 C 0.68013 0.27988 0.4137 0.0
C290 C 0.79584 0.42943 0.42996 0.0
C291 C 0.77943 0.28014 0.54581 0.0
O292 O 0.65279 0.31394 0.44245 0.0
O293 O 0.73195 0.28618 0.41546 0.0
O294 O 0.80678 0.31408 0.51692 0.0
O295 O 0.72762 0.28645 0.54411 0.0
C296 C 0.66366 0.42942 0.52933 0.0
O297 O 0.7942 0.4232 0.48178 0.0
O298 O 0.7669 0.39543 0.40265 0.0
In299 In 0.60451 0.47968 0.22956 0.0
O300 O 0.56373 0.40272 0.26678 0.0
O301 O 0.53619 0.4819 0.29401 0.0
C302 C 0.67915 0.41357 0.17993 0.0
C303 C 0.52984 0.52937 0.16349 0.0
C304 C 0.67936 0.54572 0.27921 0.0
O305 O 0.67287 0.41531 0.23174 0.0
O306 O 0.64517 0.44242 0.15257 0.0
O307 O 0.67305 0.54396 0.22739 0.0
O308 O 0.64533 0.51694 0.30655 0.0
C309 C 0.52986 0.43009 0.29572 0.0
O310 O 0.56384 0.5567 0.1924 0.0
O311 O 0.53606 0.47755 0.16517 0.0
Sc312 Sc 0.04645 0.16269 0.10469 0.0
Sc313 Sc 0.10453 0.04655 0.16281 0.0
Sc314 Sc 0.16257 0.10455 0.0466 0.0
O315 O 0.10452 0.10461 0.10471 0.0
C316 C 0.05392 0.14197 -0.01965 0.0
C317 C -0.01981 0.05405 0.14215 0.0
C318 C 0.14187 -0.01977 0.05418 0.0
C319 C 0.06714 0.15523 0.22904 0.0
C320 C 0.15512 0.22891 0.06721 0.0
C321 C 0.22887 0.06719 0.15525 0.0
O322 O 0.0226 0.13929 0.02254 0.0
O323 O 0.02236 0.02273 0.13947 0.0
O324 O 0.13913 0.02239 0.02284 0.0
O325 O 0.06982 0.18654 0.18685 0.0
O326 O 0.18643 0.18672 0.0699 0.0
O327 O 0.18671 0.06993 0.18659 0.0
O328 O 0.10249 0.22548 0.07103 0.0
O329 O 0.07093 0.1026 0.22561 0.0
O330 O 0.22539 0.07092 0.10261 0.0
O331 O -0.01637 0.10668 0.13835 0.0
O332 O 0.10655 0.13817 -0.01621 0.0
O333 O 0.13815 -0.01629 0.10682 0.0
Sc334 Sc 0.1628 0.85455 0.41293 0.0
Sc335 Sc 0.04644 0.79648 0.35487 0.0
Sc336 Sc 0.1046 0.91265 0.29679 0.0
O337 O 0.10461 0.85456 0.35487 0.0
C338 C 0.14215 0.97892 0.40544 0.0
C339 C 0.05419 0.81725 0.47923 0.0
C340 C -0.01974 0.90513 0.3175 0.0
C341 C 0.15504 0.73019 0.39218 0.0
C342 C 0.22894 0.89192 0.30427 0.0
C343 C 0.0671 0.80398 0.23051 0.0
O344 O 0.13961 0.93673 0.43676 0.0
O345 O 0.02281 0.81986 0.43705 0.0
O346 O 0.0225 0.93644 0.32013 0.0
O347 O 0.18643 0.77237 0.38956 0.0
O348 O 0.18669 0.8893 0.27297 0.0
O349 O 0.06964 0.77267 0.2727 0.0
O350 O 0.22559 0.88814 0.3569 0.0
O351 O 0.10241 0.73365 0.38845 0.0
O352 O 0.07091 0.85662 0.23395 0.0
O353 O 0.10683 0.82099 0.47577 0.0
O354 O 0.1383 0.97548 0.35281 0.0
O355 O -0.01636 0.8525 0.32128 0.0
Sc356 Sc 0.41258 0.79672 0.60472 0.0
Sc357 Sc 0.29643 0.85482 0.54656 0.0
Sc358 Sc 0.3545 0.91286 0.66292 0.0
O359 O 0.3545 0.8548 0.60473 0.0
C360 C 0.39184 0.80418 0.72906 0.0
C361 C 0.30391 0.73046 0.56721 0.0
C362 C 0.23014 0.89214 0.65516 0.0
C363 C 0.40508 0.81745 0.48039 0.0
C364 C 0.47886 0.90536 0.64228 0.0
C365 C 0.31722 -0.02083 0.55431 0.0
O366 O 0.38923 0.77289 0.68681 0.0
O367 O 0.2726 0.77266 0.56976 0.0
O368 O 0.27232 0.8895 0.68655 0.0
O369 O 0.43639 0.82008 0.52263 0.0
O370 O 0.43667 0.93668 0.63974 0.0
O371 O 0.31983 0.93699 0.52293 0.0
O372 O 0.47542 0.85273 0.63844 0.0
O373 O 0.35245 0.82122 0.48376 0.0
O374 O 0.32095 0.97571 0.60695 0.0
O375 O 0.35655 0.7339 0.57102 0.0
O376 O 0.38807 0.85682 0.72571 0.0
O377 O 0.2336 0.88842 0.60253 0.0
Sc378 Sc 0.3548 0.04657 0.79657 0.0
Sc379 Sc 0.41284 0.16305 0.8544 0.0
Sc380 Sc 0.29678 0.10485 0.91269 0.0
O381 O 0.35483 0.1048 0.85458 0.0
C382 C 0.23044 0.06723 0.80409 0.0
C383 C 0.39196 0.15508 0.7301 0.0
C384 C 0.30421 0.22918 0.89182 0.0
C385 C 0.47915 0.05439 0.81724 0.0
C386 C 0.31742 -0.0195 0.9053 0.0
C387 C 0.40553 0.14257 0.9788 0.0
O388 O 0.27262 0.06974 0.77276 0.0
O389 O 0.38927 0.18652 0.77223 0.0
O390 O 0.27294 0.18691 0.88925 0.0
O391 O 0.43699 0.023 0.81996 0.0
O392 O 0.3201 0.02276 0.93658 0.0
O393 O 0.43681 0.14007 0.93658 0.0
O394 O 0.32121 -0.01617 0.85267 0.0
O395 O 0.47567 0.10704 0.82084 0.0
O396 O 0.3529 0.13862 0.97542 0.0
O397 O 0.38835 0.10245 0.73364 0.0
O398 O 0.2339 0.0711 0.85672 0.0
O399 O 0.35684 0.22586 0.88798 0.0
Sc400 Sc 0.66288 0.35456 0.91289 0.0
Sc401 Sc 0.54648 0.2965 0.8549 0.0
Sc402 Sc 0.60466 0.41262 0.79674 0.0
O403 O 0.60468 0.35455 0.85483 0.0
C404 C 0.64221 0.47892 0.90537 0.0
C405 C 0.5543 0.31739 -0.02075 0.0
C406 C 0.48032 0.40514 0.81751 0.0
C407 C 0.65508 0.23018 0.89218 0.0
C408 C 0.729 0.39189 0.80422 0.0
C409 C 0.56708 0.30395 0.73051 0.0
O410 O 0.6397 0.43673 0.93669 0.0
O411 O 0.5229 0.31994 0.93708 0.0
O412 O 0.52257 0.43645 0.8201 0.0
O413 O 0.68648 0.27235 0.88955 0.0
O414 O 0.68675 0.38927 0.77292 0.0
O415 O 0.56961 0.27264 0.77272 0.0
O416 O 0.72565 0.38811 0.85685 0.0
O417 O 0.60245 0.23366 0.88846 0.0
O418 O 0.57094 0.35658 0.73393 0.0
O419 O 0.60693 0.32106 0.97577 0.0
O420 O 0.63837 0.47547 0.85274 0.0
O421 O 0.48368 0.35252 0.82131 0.0
Sc422 Sc 0.91253 0.29665 0.10477 0.0
Sc423 Sc 0.85448 0.41285 0.1629 0.0
Sc424 Sc 0.79638 0.35475 0.04657 0.0
O425 O 0.85446 0.35475 0.10475 0.0
C426 C 0.90503 0.31735 -0.01958 0.0
C427 C 0.97884 0.40531 0.14226 0.0
C428 C 0.81718 0.47911 0.05428 0.0
C429 C 0.89182 0.30421 0.2291 0.0
C430 C 0.80386 0.23038 0.06726 0.0
C431 C 0.73011 0.3921 0.15518 0.0
O432 O 0.93634 0.31996 0.02266 0.0
O433 O 0.93665 0.43663 0.13969 0.0
O434 O 0.81976 0.43692 0.02291 0.0
O435 O 0.88917 0.27289 0.18688 0.0
O436 O 0.77255 0.27258 0.06979 0.0
O437 O 0.7723 0.38951 0.18656 0.0
O438 O 0.85649 0.23382 0.07109 0.0
O439 O 0.88806 0.35684 0.22572 0.0
O440 O 0.73356 0.38834 0.10255 0.0
O441 O 0.97538 0.35267 0.13846 0.0
O442 O 0.8524 0.32114 -0.01622 0.0
O443 O 0.82092 0.47567 0.10691 0.0
Sc444 Sc 0.85472 0.54653 0.2965 0.0
Sc445 Sc 0.9128 0.66288 0.35458 0.0
Sc446 Sc 0.79665 0.60469 0.41267 0.0
O447 O 0.85472 0.6047 0.35458 0.0
C448 C 0.73036 0.56719 0.30401 0.0
C449 C 0.89205 0.65513 0.23022 0.0
C450 C 0.80413 0.72903 0.39194 0.0
C451 C -0.02092 0.55426 0.31729 0.0
C452 C 0.81737 0.48036 0.40515 0.0
C453 C 0.9053 0.64223 0.47895 0.0
O454 O 0.77255 0.56974 0.27269 0.0
O455 O 0.88943 0.68652 0.2724 0.0
O456 O 0.77283 0.68678 0.38932 0.0
O457 O 0.93689 0.52289 0.31989 0.0
O458 O 0.82 0.52259 0.43646 0.0
O459 O 0.93662 0.63969 0.43675 0.0
O460 O 0.82112 0.48373 0.35252 0.0
O461 O 0.97563 0.6069 0.32102 0.0
O462 O 0.85267 0.63839 0.47551 0.0
O463 O 0.88831 0.6025 0.23367 0.0
O464 O 0.73381 0.571 0.35664 0.0
O465 O 0.85676 0.72568 0.38816 0.0
Sc466 Sc 0.91274 0.79662 0.85473 0.0
Sc467 Sc 0.79658 0.85469 0.91282 0.0
Sc468 Sc 0.85464 0.91277 0.79665 0.0
O469 O 0.85465 0.85469 0.85473 0.0
C470 C -0.02101 0.90528 0.81732 0.0
C471 C 0.90524 0.81728 -0.02093 0.0
C472 C 0.81723 -0.02097 0.90531 0.0
C473 C 0.80409 0.73035 0.89216 0.0
C474 C 0.89206 0.80411 0.7304 0.0
C475 C 0.7303 0.89212 0.80417 0.0
O476 O 0.97555 0.85265 0.8211 0.0
O477 O 0.85261 0.82106 0.97562 0.0
O478 O 0.82101 0.97558 0.85268 0.0
O479 O 0.85672 0.7338 0.88838 0.0
O480 O 0.88828 0.85675 0.73384 0.0
O481 O 0.73376 0.88833 0.8568 0.0
O482 O 0.88936 0.77279 0.77257 0.0
O483 O 0.77276 0.77253 0.88944 0.0
O484 O 0.77248 0.88939 0.77284 0.0
O485 O 0.93656 0.82 0.9369 0.0
O486 O 0.93681 0.9366 0.82002 0.0
O487 O 0.81996 0.93685 0.93663 0.0
Sc488 Sc 0.7964 0.10483 0.54651 0.0
Sc489 Sc 0.91277 0.16286 0.60459 0.0
Sc490 Sc 0.85459 0.0467 0.66264 0.0
O491 O 0.85459 0.10479 0.60457 0.0
C492 C 0.73026 0.06743 0.65515 0.0
C493 C 0.80417 0.22917 0.56728 0.0
C494 C 0.89208 0.15535 0.72894 0.0
C495 C 0.90503 0.14213 0.48023 0.0
C496 C 0.81703 -0.01954 0.55396 0.0
C497 C 0.97893 0.05421 0.64199 0.0
O498 O 0.73361 0.07122 0.60252 0.0
O499 O 0.85681 0.22571 0.571 0.0
O500 O 0.88828 0.10272 0.72549 0.0
O501 O 0.85239 0.13841 0.48368 0.0
O502 O 0.8209 -0.01612 0.60659 0.0
O503 O 0.97556 0.10684 0.6382 0.0
O504 O 0.81957 0.02266 0.52266 0.0
O505 O 0.93641 0.13948 0.52242 0.0
O506 O 0.9367 0.0229 0.63932 0.0
O507 O 0.77279 0.187 0.56992 0.0
O508 O 0.7725 0.07005 0.68645 0.0
O509 O 0.88954 0.18667 0.68675 0.0
Sc510 Sc 0.60466 0.04647 0.29653 0.0
Sc511 Sc 0.66275 0.10451 0.41289 0.0
Sc512 Sc 0.54663 0.16265 0.3547 0.0
O513 O 0.60469 0.10454 0.3547 0.0
C514 C 0.56739 0.15517 0.23038 0.0
C515 C 0.72903 0.06716 0.30428 0.0
C516 C 0.65531 0.22887 0.39226 0.0
C517 C 0.64194 -0.01984 0.40514 0.0
C518 C 0.48031 0.05403 0.31715 0.0
C519 C 0.55411 0.14191 0.47902 0.0
O520 O 0.57111 0.10253 0.23373 0.0
O521 O 0.72558 0.07091 0.35692 0.0
O522 O 0.60268 0.22545 0.38843 0.0
O523 O 0.6382 -0.01638 0.3525 0.0
O524 O 0.48377 0.10666 0.32096 0.0
O525 O 0.60674 0.13813 0.47567 0.0
O526 O 0.52249 0.0227 0.31974 0.0
O527 O 0.63933 0.02234 0.43652 0.0
O528 O 0.5228 0.13928 0.43678 0.0
O529 O 0.68685 0.0698 0.2729 0.0
O530 O 0.57003 0.18646 0.27263 0.0
O531 O 0.68661 0.18667 0.38969 0.0
Sc532 Sc 0.66253 0.8546 0.04675 0.0
Sc533 Sc 0.5464 0.79642 0.10488 0.0
Sc534 Sc 0.60447 0.91279 0.1629 0.0
O535 O 0.60446 0.85461 0.10484 0.0
C536 C 0.72882 0.89213 0.1554 0.0
C537 C 0.65506 0.73027 0.06749 0.0
C538 C 0.56719 0.8042 0.22923 0.0
C539 C 0.55386 0.81703 -0.01949 0.0
C540 C 0.64183 0.97893 0.05424 0.0
C541 C 0.48011 0.90504 0.14217 0.0
O542 O 0.72538 0.88831 0.10277 0.0
O543 O 0.60242 0.73362 0.07128 0.0
O544 O 0.5709 0.85683 0.22576 0.0
O545 O 0.60649 0.82088 -0.01607 0.0
O546 O 0.63806 0.97558 0.10687 0.0
O547 O 0.48357 0.8524 0.13845 0.0
O548 O 0.63918 0.9367 0.02293 0.0
O549 O 0.52255 0.81959 0.02271 0.0
O550 O 0.52229 0.93642 0.13953 0.0
O551 O 0.68635 0.77252 0.07012 0.0
O552 O 0.68663 0.88957 0.18672 0.0
O553 O 0.56982 0.77281 0.18705 0.0
Sc554 Sc 0.29638 0.60475 0.04654 0.0
Sc555 Sc 0.41275 0.66283 0.10458 0.0
Sc556 Sc 0.35457 0.5467 0.16272 0.0
O557 O 0.35456 0.60476 0.10462 0.0
C558 C 0.23024 0.5674 0.15522 0.0
C559 C 0.30414 0.72912 0.06724 0.0
C560 C 0.39214 0.65538 0.22895 0.0
C561 C 0.40498 0.64202 -0.01978 0.0
C562 C 0.31703 0.48039 0.05409 0.0
C563 C 0.4789 0.55418 0.14197 0.0
O564 O 0.2336 0.57117 0.10259 0.0
O565 O 0.35677 0.72566 0.07099 0.0
O566 O 0.38828 0.60275 0.22553 0.0
O567 O 0.35235 0.63829 -0.01632 0.0
O568 O 0.32086 0.48384 0.10672 0.0
O569 O 0.47555 0.60681 0.13817 0.0
O570 O 0.3196 0.52257 0.02277 0.0
O571 O 0.43636 0.63941 0.0224 0.0
O572 O 0.43666 0.52288 0.13936 0.0
O573 O 0.27275 0.68694 0.06987 0.0
O574 O 0.27248 0.57006 0.18653 0.0
O575 O 0.38958 0.68668 0.18675 0.0
Sc576 Sc 0.10475 0.54648 0.79656 0.0
Sc577 Sc 0.16285 0.60459 0.91289 0.0
Sc578 Sc 0.04668 0.66265 0.85472 0.0
O579 O 0.10477 0.60457 0.85472 0.0
C580 C 0.06738 0.65512 0.73039 0.0
C581 C 0.22912 0.56723 0.80428 0.0
C582 C 0.15535 0.72895 0.89222 0.0
C583 C 0.14207 0.48022 0.90519 0.0
C584 C -0.0196 0.55398 0.81721 0.0
C585 C 0.0542 0.64195 -0.02094 0.0
O586 O 0.07115 0.60249 0.73376 0.0
O587 O 0.22568 0.571 0.85691 0.0
O588 O 0.10271 0.7255 0.8884 0.0
O589 O 0.13832 0.48365 0.85255 0.0
O590 O -0.01616 0.60661 0.82103 0.0
O591 O 0.10683 0.63819 0.97569 0.0
O592 O 0.02259 0.52267 0.81978 0.0
O593 O 0.13949 0.52242 0.93655 0.0
O594 O 0.02289 0.6393 0.93682 0.0
O595 O 0.18693 0.56983 0.77291 0.0
O596 O 0.07003 0.68644 0.77262 0.0
O597 O 0.18666 0.68676 0.88967 0.0
Sc598 Sc 0.1626 0.35466 0.5468 0.0
Sc599 Sc 0.04644 0.29648 0.60486 0.0
Sc600 Sc 0.10453 0.41281 0.66297 0.0
O601 O 0.10452 0.35465 0.60488 0.0
C602 C 0.22888 0.39215 0.65547 0.0
C603 C 0.1551 0.23033 0.5675 0.0
C604 C 0.06716 0.30419 0.72923 0.0
C605 C 0.05395 0.31714 0.48051 0.0
C606 C 0.1419 0.47899 0.55433 0.0
C607 C -0.01983 0.4051 0.64219 0.0
O608 O 0.22544 0.38835 0.60284 0.0
O609 O 0.10246 0.23369 0.57127 0.0
O610 O 0.07093 0.35682 0.7258 0.0
O611 O 0.10658 0.32096 0.48395 0.0
O612 O 0.13814 0.47561 0.60697 0.0
O613 O -0.01639 0.35247 0.63843 0.0
O614 O 0.13925 0.43676 0.52301 0.0
O615 O 0.02264 0.31971 0.5227 0.0
O616 O 0.02236 0.43647 0.6396 0.0
O617 O 0.18641 0.27256 0.57015 0.0
O618 O 0.18669 0.38957 0.68679 0.0
O619 O 0.06979 0.27282 0.68704 0.0
Sc620 Sc 0.54653 0.66273 0.60473 0.0
Sc621 Sc 0.60462 0.54656 0.66278 0.0
Sc622 Sc 0.6627 0.60467 0.54664 0.0
O623 O 0.60462 0.60465 0.60472 0.0
C624 C 0.55404 0.64207 0.48038 0.0
C625 C 0.48028 0.55406 0.64212 0.0
C626 C 0.64204 0.48033 0.55412 0.0
C627 C 0.56719 0.65519 0.72907 0.0
C628 C 0.65517 0.72901 0.56732 0.0
C629 C 0.72896 0.56725 0.65529 0.0
O630 O 0.52271 0.63936 0.52256 0.0
O631 O 0.52245 0.52274 0.6394 0.0
O632 O 0.63935 0.52251 0.5228 0.0
O633 O 0.5699 0.68653 0.6869 0.0
O634 O 0.6865 0.68684 0.57002 0.0
O635 O 0.68678 0.56993 0.68662 0.0
O636 O 0.60254 0.72555 0.5711 0.0
O637 O 0.57097 0.60256 0.72561 0.0
O638 O 0.72552 0.57105 0.60266 0.0
O639 O 0.48373 0.6067 0.63835 0.0
O640 O 0.60667 0.6383 0.48383 0.0
O641 O 0.63826 0.48376 0.60675 0.0
Sc642 Sc 0.29654 0.3547 0.41284 0.0
Sc643 Sc 0.35462 0.41281 0.29669 0.0
Sc644 Sc 0.4127 0.29664 0.35474 0.0
O645 O 0.35462 0.35471 0.35475 0.0
C646 C 0.40521 0.3173 0.47908 0.0
C647 C 0.31718 0.47904 0.40535 0.0
C648 C 0.47895 0.40531 0.31735 0.0
C649 C 0.23028 0.39211 0.30418 0.0
C650 C 0.30406 0.23036 0.39217 0.0
C651 C 0.39208 0.30419 0.23041 0.0
O652 O 0.35258 0.32108 0.47564 0.0
O653 O 0.32096 0.4756 0.35272 0.0
O654 O 0.4755 0.35268 0.32111 0.0
O655 O 0.23372 0.38832 0.35682 0.0
O656 O 0.35669 0.23381 0.38837 0.0
O657 O 0.38828 0.35682 0.23388 0.0
O658 O 0.27273 0.27253 0.38946 0.0
O659 O 0.27246 0.38942 0.27286 0.0
O660 O 0.38933 0.27284 0.27256 0.0
O661 O 0.3199 0.43686 0.43667 0.0
O662 O 0.43653 0.32001 0.4369 0.0
O663 O 0.43678 0.43663 0.32009 0.0
loop_
_geom_bond_atom_site_label_1
_geom_bond_atom_site_label_2
_geom_bond_distance
_geom_bond_site_symmetry_2
_ccdc_geom_bond_type
In0 O1 2.305 . S
In0 O2 2.325 1_455 S
In0 O6 2.277 . S
In0 O7 2.324 1_455 S
In0 O8 2.255 1_455 S
In0 O9 2.327 . S
In0 O11 2.283 1_455 S
In0 O12 2.328 . S
O1 In0 2.305 . S
O1 C10 1.240 . S
O2 In0 2.325 1_655 S
O2 C10 1.252 1_655 S
C3 O6 1.252 . S
C3 O7 1.260 1_455 S
C4 O11 1.240 . S
C4 O12 1.252 1_655 S
C5 O8 1.252 . S
C5 O9 1.260 1_655 S
O6 In0 2.277 . S
O6 C3 1.252 . S
O7 In0 2.324 1_655 S
O7 C3 1.260 1_655 S
O8 In0 2.255 1_655 S
O8 C5 1.252 . S
O9 In0 2.327 . S
O9 C5 1.260 1_455 S
C10 O1 1.240 . S
C10 O2 1.252 1_455 S
O11 In0 2.283 1_655 S
O11 C4 1.240 . S
O12 In0 2.328 . S
O12 C4 1.252 1_455 S
In13 O14 2.288 1_455 S
In13 O15 2.317 1_455 S
In13 O19 2.272 . S
In13 O20 2.336 . S
In13 O21 2.261 1_455 S
In13 O22 2.316 1_455 S
In13 O24 2.300 . S
In13 O25 2.336 . S
O14 In13 2.288 1_655 S
O14 C23 1.240 . S
O15 In13 2.317 1_655 S
O15 C23 1.252 . S
C16 O19 1.252 . S
C16 O20 1.260 . S
C17 O24 1.240 . S
C17 O25 1.252 . S
C18 O21 1.252 . S
C18 O22 1.260 . S
O19 In13 2.272 . S
O19 C16 1.252 . S
O20 In13 2.336 . S
O20 C16 1.260 . S
O21 In13 2.261 1_655 S
O21 C18 1.252 . S
O22 In13 2.316 1_655 S
O22 C18 1.260 . S
C23 O14 1.240 . S
C23 O15 1.252 . S
O24 In13 2.300 . S
O24 C17 1.240 . S
O25 In13 2.336 . S
O25 C17 1.252 . S
In26 O27 2.294 . S
In26 O28 2.326 . S
In26 O32 2.266 . S
In26 O33 2.326 . S
In26 O34 2.266 . S
In26 O35 2.326 . S
In26 O37 2.294 . S
In26 O38 2.326 . S
O27 In26 2.294 . S
O27 C36 1.240 . S
O28 In26 2.326 . S
O28 C36 1.252 . S
C29 O32 1.252 . S
C29 O33 1.260 . S
C30 O37 1.240 . S
C30 O38 1.252 . S
C31 O34 1.252 . S
C31 O35 1.260 . S
O32 In26 2.266 . S
O32 C29 1.252 . S
O33 In26 2.326 . S
O33 C29 1.260 . S
O34 In26 2.266 . S
O34 C31 1.252 . S
O35 In26 2.326 . S
O35 C31 1.260 . S
C36 O27 1.240 . S
C36 O28 1.252 . S
O37 In26 2.294 . S
O37 C30 1.240 . S
O38 In26 2.326 . S
O38 C30 1.252 . S
In39 O40 2.294 . S
In39 O41 2.326 . S
In39 O45 2.266 . S
In39 O46 2.326 . S
In39 O47 2.266 . S
In39 O48 2.326 . S
In39 O50 2.294 . S
In39 O51 2.326 . S
O40 In39 2.294 . S
O40 C49 1.240 . S
O41 In39 2.326 . S
O41 C49 1.252 . S
C42 O45 1.252 . S
C42 O46 1.260 . S
C43 O50 1.240 . S
C43 O51 1.252 . S
C44 O47 1.252 . S
C44 O48 1.260 . S
O45 In39 2.266 . S
O45 C42 1.252 . S
O46 In39 2.326 . S
O46 C42 1.260 . S
O47 In39 2.266 . S
O47 C44 1.252 . S
O48 In39 2.326 . S
O48 C44 1.260 . S
C49 O40 1.240 . S
C49 O41 1.252 . S
O50 In39 2.294 . S
O50 C43 1.240 . S
O51 In39 2.326 . S
O51 C43 1.252 . S
In52 O53 2.294 1_455 S
In52 O54 2.326 . S
In52 O58 2.266 1_455 S
In52 O59 2.326 . S
In52 O60 2.266 . S
In52 O61 2.326 1_455 S
In52 O63 2.294 . S
In52 O64 2.326 1_455 S
O53 In52 2.294 1_655 S
O53 C62 1.240 . S
O54 In52 2.326 . S
O54 C62 1.252 1_455 S
C55 O58 1.252 . S
C55 O59 1.260 1_655 S
C56 O63 1.240 . S
C56 O64 1.252 1_455 S
C57 O60 1.252 . S
C57 O61 1.260 1_455 S
O58 In52 2.266 1_655 S
O58 C55 1.252 . S
O59 In52 2.326 . S
O59 C55 1.260 1_455 S
O60 In52 2.266 . S
O60 C57 1.252 . S
O61 In52 2.326 1_655 S
O61 C57 1.260 1_655 S
C62 O53 1.240 . S
C62 O54 1.252 1_655 S
O63 In52 2.294 . S
O63 C56 1.240 . S
O64 In52 2.326 1_655 S
O64 C56 1.252 1_655 S
In65 O66 2.294 . S
In65 O67 2.326 . S
In65 O71 2.266 . S
In65 O72 2.326 . S
In65 O73 2.266 . S
In65 O74 2.326 . S
In65 O76 2.294 . S
In65 O77 2.326 . S
O66 In65 2.294 . S
O66 C75 1.240 . S
O67 In65 2.326 . S
O67 C75 1.252 . S
C68 O71 1.252 . S
C68 O72 1.260 . S
C69 O76 1.240 . S
C69 O77 1.252 . S
C70 O73 1.252 . S
C70 O74 1.260 . S
O71 In65 2.266 . S
O71 C68 1.252 . S
O72 In65 2.326 . S
O72 C68 1.260 . S
O73 In65 2.266 . S
O73 C70 1.252 . S
O74 In65 2.326 . S
O74 C70 1.260 . S
C75 O66 1.240 . S
C75 O67 1.252 . S
O76 In65 2.294 . S
O76 C69 1.240 . S
O77 In65 2.326 . S
O77 C69 1.252 . S
In78 O79 2.294 . S
In78 O80 2.326 . S
In78 O84 2.266 . S
In78 O85 2.326 . S
In78 O86 2.266 . S
In78 O87 2.326 . S
In78 O89 2.294 . S
In78 O90 2.326 . S
O79 In78 2.294 . S
O79 C88 1.240 . S
O80 In78 2.326 . S
O80 C88 1.252 . S
C81 O84 1.252 . S
C81 O85 1.260 . S
C82 O89 1.240 . S
C82 O90 1.252 . S
C83 O86 1.252 . S
C83 O87 1.260 . S
O84 In78 2.266 . S
O84 C81 1.252 . S
O85 In78 2.326 . S
O85 C81 1.260 . S
O86 In78 2.266 . S
O86 C83 1.252 . S
O87 In78 2.326 . S
O87 C83 1.260 . S
C88 O79 1.240 . S
C88 O80 1.252 . S
O89 In78 2.294 . S
O89 C82 1.240 . S
O90 In78 2.326 . S
O90 C82 1.252 . S
In91 O92 2.295 . S
In91 O93 2.328 . S
In91 O97 2.265 1_455 S
In91 O98 2.324 1_455 S
In91 O99 2.267 . S
In91 O100 2.327 . S
In91 O102 2.293 1_455 S
In91 O103 2.324 1_455 S
O92 In91 2.295 . S
O92 C101 1.240 . S
O93 In91 2.328 . S
O93 C101 1.252 . S
C94 O97 1.252 . S
C94 O98 1.260 . S
C95 O102 1.240 . S
C95 O103 1.252 . S
C96 O99 1.252 . S
C96 O100 1.260 . S
O97 In91 2.265 1_655 S
O97 C94 1.252 . S
O98 In91 2.324 1_655 S
O98 C94 1.260 . S
O99 In91 2.267 . S
O99 C96 1.252 . S
O100 In91 2.327 . S
O100 C96 1.260 . S
C101 O92 1.240 . S
C101 O93 1.252 . S
O102 In91 2.293 1_655 S
O102 C95 1.240 . S
O103 In91 2.324 1_655 S
O103 C95 1.252 . S
In104 O105 2.283 1_545 S
In104 O106 2.328 . S
In104 O110 2.255 1_545 S
In104 O111 2.327 . S
In104 O112 2.277 . S
In104 O113 2.324 1_545 S
In104 O115 2.305 . S
In104 O116 2.325 1_545 S
O105 In104 2.283 1_565 S
O105 C114 1.240 . S
O106 In104 2.328 . S
O106 C114 1.252 1_545 S
C107 O110 1.252 . S
C107 O111 1.260 1_565 S
C108 O115 1.240 . S
C108 O116 1.252 1_545 S
C109 O112 1.252 . S
C109 O113 1.260 1_545 S
O110 In104 2.255 1_565 S
O110 C107 1.252 . S
O111 In104 2.327 . S
O111 C107 1.260 1_545 S
O112 In104 2.277 . S
O112 C109 1.252 . S
O113 In104 2.324 1_565 S
O113 C109 1.260 1_565 S
C114 O105 1.240 . S
C114 O106 1.252 1_565 S
O115 In104 2.305 . S
O115 C108 1.240 . S
O116 In104 2.325 1_565 S
O116 C108 1.252 1_565 S
In117 O118 2.294 . S
In117 O119 2.326 . S
In117 O123 2.266 . S
In117 O124 2.326 . S
In117 O125 2.266 . S
In117 O126 2.326 . S
In117 O128 2.294 . S
In117 O129 2.326 . S
O118 In117 2.294 . S
O118 C127 1.240 . S
O119 In117 2.326 . S
O119 C127 1.252 . S
C120 O123 1.252 . S
C120 O124 1.260 . S
C121 O128 1.240 . S
C121 O129 1.252 . S
C122 O125 1.252 . S
C122 O126 1.260 . S
O123 In117 2.266 . S
O123 C120 1.252 . S
O124 In117 2.326 . S
O124 C120 1.260 . S
O125 In117 2.266 . S
O125 C122 1.252 . S
O126 In117 2.326 . S
O126 C122 1.260 . S
C127 O118 1.240 . S
C127 O119 1.252 . S
O128 In117 2.294 . S
O128 C121 1.240 . S
O129 In117 2.326 . S
O129 C121 1.252 . S
In130 O131 2.294 1_545 S
In130 O132 2.326 . S
In130 O136 2.266 1_545 S
In130 O137 2.326 . S
In130 O138 2.266 . S
In130 O139 2.326 1_545 S
In130 O141 2.294 . S
In130 O142 2.326 1_545 S
O131 In130 2.294 1_565 S
O131 C140 1.240 . S
O132 In130 2.326 . S
O132 C140 1.252 1_545 S
C133 O136 1.252 . S
C133 O137 1.260 1_565 S
C134 O141 1.240 . S
C134 O142 1.252 1_545 S
C135 O138 1.252 . S
C135 O139 1.260 1_545 S
O136 In130 2.266 1_565 S
O136 C133 1.252 . S
O137 In130 2.326 . S
O137 C133 1.260 1_545 S
O138 In130 2.266 . S
O138 C135 1.252 . S
O139 In130 2.326 1_565 S
O139 C135 1.260 1_565 S
C140 O131 1.240 . S
C140 O132 1.252 1_565 S
O141 In130 2.294 . S
O141 C134 1.240 . S
O142 In130 2.326 1_565 S
O142 C134 1.252 1_565 S
In143 O144 2.295 . S
In143 O145 2.328 . S
In143 O149 2.265 1_554 S
In143 O150 2.324 1_554 S
In143 O151 2.267 . S
In143 O152 2.327 . S
In143 O154 2.293 1_554 S
In143 O155 2.324 1_554 S
O144 In143 2.295 . S
O144 C153 1.240 . S
O145 In143 2.328 . S
O145 C153 1.252 . S
C146 O149 1.252 . S
C146 O150 1.260 . S
C147 O154 1.240 . S
C147 O155 1.252 . S
C148 O151 1.252 . S
C148 O152 1.260 . S
O149 In143 2.265 1_556 S
O149 C146 1.252 . S
O150 In143 2.324 1_556 S
O150 C146 1.260 . S
O151 In143 2.267 . S
O151 C148 1.252 . S
O152 In143 2.327 . S
O152 C148 1.260 . S
C153 O144 1.240 . S
C153 O145 1.252 . S
O154 In143 2.293 1_556 S
O154 C147 1.240 . S
O155 In143 2.324 1_556 S
O155 C147 1.252 . S
In156 O157 2.283 1_554 S
In156 O158 2.328 . S
In156 O162 2.255 1_554 S
In156 O163 2.327 . S
In156 O164 2.277 . S
In156 O165 2.324 1_554 S
In156 O167 2.305 . S
In156 O168 2.325 1_554 S
O157 In156 2.283 1_556 S
O157 C166 1.240 . S
O158 In156 2.328 . S
O158 C166 1.252 1_554 S
C159 O162 1.252 . S
C159 O163 1.260 1_556 S
C160 O167 1.240 . S
C160 O168 1.252 1_554 S
C161 O164 1.252 . S
C161 O165 1.260 1_554 S
O162 In156 2.255 1_556 S
O162 C159 1.252 . S
O163 In156 2.327 . S
O163 C159 1.260 1_554 S
O164 In156 2.277 . S
O164 C161 1.252 . S
O165 In156 2.324 1_556 S
O165 C161 1.260 1_556 S
C166 O157 1.240 . S
C166 O158 1.252 1_556 S
O167 In156 2.305 . S
O167 C160 1.240 . S
O168 In156 2.325 1_556 S
O168 C160 1.252 1_556 S
In169 O170 2.294 . S
In169 O171 2.326 1_554 S
In169 O175 2.266 . S
In169 O176 2.326 1_554 S
In169 O177 2.266 1_554 S
In169 O178 2.326 . S
In169 O180 2.294 1_554 S
In169 O181 2.326 . S
O170 In169 2.294 . S
O170 C179 1.240 . S
O171 In169 2.326 1_556 S
O171 C179 1.252 1_556 S
C172 O175 1.252 . S
C172 O176 1.260 1_554 S
C173 O180 1.240 . S
C173 O181 1.252 1_556 S
C174 O177 1.252 . S
C174 O178 1.260 1_556 S
O175 In169 2.266 . S
O175 C172 1.252 . S
O176 In169 2.326 1_556 S
O176 C172 1.260 1_556 S
O177 In169 2.266 1_556 S
O177 C174 1.252 . S
O178 In169 2.326 . S
O178 C174 1.260 1_554 S
C179 O170 1.240 . S
C179 O171 1.252 1_554 S
O180 In169 2.294 1_556 S
O180 C173 1.240 . S
O181 In169 2.326 . S
O181 C173 1.252 1_554 S
In182 O183 2.294 . S
In182 O184 2.326 . S
In182 O188 2.266 . S
In182 O189 2.326 . S
In182 O190 2.266 . S
In182 O191 2.326 . S
In182 O193 2.294 . S
In182 O194 2.326 . S
O183 In182 2.294 . S
O183 C192 1.240 . S
O184 In182 2.326 . S
O184 C192 1.252 . S
C185 O188 1.252 . S
C185 O189 1.260 . S
C186 O193 1.240 . S
C186 O194 1.252 . S
C187 O190 1.252 . S
C187 O191 1.260 . S
O188 In182 2.266 . S
O188 C185 1.252 . S
O189 In182 2.326 . S
O189 C185 1.260 . S
O190 In182 2.266 . S
O190 C187 1.252 . S
O191 In182 2.326 . S
O191 C187 1.260 . S
C192 O183 1.240 . S
C192 O184 1.252 . S
O193 In182 2.294 . S
O193 C186 1.240 . S
O194 In182 2.326 . S
O194 C186 1.252 . S
In195 O196 2.294 . S
In195 O197 2.326 . S
In195 O201 2.266 . S
In195 O202 2.326 . S
In195 O203 2.266 . S
In195 O204 2.326 . S
In195 O206 2.294 . S
In195 O207 2.326 . S
O196 In195 2.294 . S
O196 C205 1.240 . S
O197 In195 2.326 . S
O197 C205 1.252 . S
C198 O201 1.252 . S
C198 O202 1.260 . S
C199 O206 1.240 . S
C199 O207 1.252 . S
C200 O203 1.252 . S
C200 O204 1.260 . S
O201 In195 2.266 . S
O201 C198 1.252 . S
O202 In195 2.326 . S
O202 C198 1.260 . S
O203 In195 2.266 . S
O203 C200 1.252 . S
O204 In195 2.326 . S
O204 C200 1.260 . S
C205 O196 1.240 . S
C205 O197 1.252 . S
O206 In195 2.294 . S
O206 C199 1.240 . S
O207 In195 2.326 . S
O207 C199 1.252 . S
In208 O209 2.293 1_545 S
In208 O210 2.324 1_545 S
In208 O214 2.267 . S
In208 O215 2.327 . S
In208 O216 2.265 1_545 S
In208 O217 2.324 1_545 S
In208 O219 2.295 . S
In208 O220 2.328 . S
O209 In208 2.293 1_565 S
O209 C218 1.240 . S
O210 In208 2.324 1_565 S
O210 C218 1.252 . S
C211 O214 1.252 . S
C211 O215 1.260 . S
C212 O219 1.240 . S
C212 O220 1.252 . S
C213 O216 1.252 . S
C213 O217 1.260 . S
O214 In208 2.267 . S
O214 C211 1.252 . S
O215 In208 2.327 . S
O215 C211 1.260 . S
O216 In208 2.265 1_565 S
O216 C213 1.252 . S
O217 In208 2.324 1_565 S
O217 C213 1.260 . S
C218 O209 1.240 . S
C218 O210 1.252 . S
O219 In208 2.295 . S
O219 C212 1.240 . S
O220 In208 2.328 . S
O220 C212 1.252 . S
In221 O222 2.294 . S
In221 O223 2.326 . S
In221 O227 2.266 . S
In221 O228 2.326 . S
In221 O229 2.266 . S
In221 O230 2.326 . S
In221 O232 2.294 . S
In221 O233 2.326 . S
O222 In221 2.294 . S
O222 C231 1.240 . S
O223 In221 2.326 . S
O223 C231 1.252 . S
C224 O227 1.252 . S
C224 O228 1.260 . S
C225 O232 1.240 . S
C225 O233 1.252 . S
C226 O229 1.252 . S
C226 O230 1.260 . S
O227 In221 2.266 . S
O227 C224 1.252 . S
O228 In221 2.326 . S
O228 C224 1.260 . S
O229 In221 2.266 . S
O229 C226 1.252 . S
O230 In221 2.326 . S
O230 C226 1.260 . S
C231 O222 1.240 . S
C231 O223 1.252 . S
O232 In221 2.294 . S
O232 C225 1.240 . S
O233 In221 2.326 . S
O233 C225 1.252 . S
In234 O235 2.294 . S
In234 O236 2.326 . S
In234 O240 2.266 . S
In234 O241 2.326 . S
In234 O242 2.266 . S
In234 O243 2.326 . S
In234 O245 2.294 . S
In234 O246 2.326 . S
O235 In234 2.294 . S
O235 C244 1.240 . S
O236 In234 2.326 . S
O236 C244 1.252 . S
C237 O240 1.252 . S
C237 O241 1.260 . S
C238 O245 1.240 . S
C238 O246 1.252 . S
C239 O242 1.252 . S
C239 O243 1.260 . S
O240 In234 2.266 . S
O240 C237 1.252 . S
O241 In234 2.326 . S
O241 C237 1.260 . S
O242 In234 2.266 . S
O242 C239 1.252 . S
O243 In234 2.326 . S
O243 C239 1.260 . S
C244 O235 1.240 . S
C244 O236 1.252 . S
O245 In234 2.294 . S
O245 C238 1.240 . S
O246 In234 2.326 . S
O246 C238 1.252 . S
In247 O248 2.288 1_545 S
In247 O249 2.317 1_545 S
In247 O253 2.272 . S
In247 O254 2.336 . S
In247 O255 2.261 1_545 S
In247 O256 2.316 1_545 S
In247 O258 2.300 . S
In247 O259 2.336 . S
O248 In247 2.288 1_565 S
O248 C257 1.240 . S
O249 In247 2.317 1_565 S
O249 C257 1.252 . S
C250 O253 1.252 . S
C250 O254 1.260 . S
C251 O258 1.240 . S
C251 O259 1.252 . S
C252 O255 1.252 . S
C252 O256 1.260 . S
O253 In247 2.272 . S
O253 C250 1.252 . S
O254 In247 2.336 . S
O254 C250 1.260 . S
O255 In247 2.261 1_565 S
O255 C252 1.252 . S
O256 In247 2.316 1_565 S
O256 C252 1.260 . S
C257 O248 1.240 . S
C257 O249 1.252 . S
O258 In247 2.300 . S
O258 C251 1.240 . S
O259 In247 2.336 . S
O259 C251 1.252 . S
In260 O261 2.300 . S
In260 O262 2.336 . S
In260 O266 2.261 1_554 S
In260 O267 2.316 1_554 S
In260 O268 2.272 . S
In260 O269 2.336 . S
In260 O271 2.288 1_554 S
In260 O272 2.317 1_554 S
O261 In260 2.300 . S
O261 C270 1.240 . S
O262 In260 2.336 . S
O262 C270 1.252 . S
C263 O266 1.252 . S
C263 O267 1.260 . S
C264 O271 1.240 . S
C264 O272 1.252 . S
C265 O268 1.252 . S
C265 O269 1.260 . S
O266 In260 2.261 1_556 S
O266 C263 1.252 . S
O267 In260 2.316 1_556 S
O267 C263 1.260 . S
O268 In260 2.272 . S
O268 C265 1.252 . S
O269 In260 2.336 . S
O269 C265 1.260 . S
C270 O261 1.240 . S
C270 O262 1.252 . S
O271 In260 2.288 1_556 S
O271 C264 1.240 . S
O272 In260 2.317 1_556 S
O272 C264 1.252 . S
In273 O274 2.294 . S
In273 O275 2.326 . S
In273 O279 2.266 . S
In273 O280 2.326 . S
In273 O281 2.266 . S
In273 O282 2.326 . S
In273 O284 2.294 . S
In273 O285 2.326 . S
O274 In273 2.294 . S
O274 C283 1.240 . S
O275 In273 2.326 . S
O275 C283 1.252 . S
C276 O279 1.252 . S
C276 O280 1.260 . S
C277 O284 1.240 . S
C277 O285 1.252 . S
C278 O281 1.252 . S
C278 O282 1.260 . S
O279 In273 2.266 . S
O279 C276 1.252 . S
O280 In273 2.326 . S
O280 C276 1.260 . S
O281 In273 2.266 . S
O281 C278 1.252 . S
O282 In273 2.326 . S
O282 C278 1.260 . S
C283 O274 1.240 . S
C283 O275 1.252 . S
O284 In273 2.294 . S
O284 C277 1.240 . S
O285 In273 2.326 . S
O285 C277 1.252 . S
In286 O287 2.294 . S
In286 O288 2.326 . S
In286 O292 2.266 . S
In286 O293 2.326 . S
In286 O294 2.266 . S
In286 O295 2.326 . S
In286 O297 2.294 . S
In286 O298 2.326 . S
O287 In286 2.294 . S
O287 C296 1.240 . S
O288 In286 2.326 . S
O288 C296 1.252 . S
C289 O292 1.252 . S
C289 O293 1.260 . S
C290 O297 1.240 . S
C290 O298 1.252 . S
C291 O294 1.252 . S
C291 O295 1.260 . S
O292 In286 2.266 . S
O292 C289 1.252 . S
O293 In286 2.326 . S
O293 C289 1.260 . S
O294 In286 2.266 . S
O294 C291 1.252 . S
O295 In286 2.326 . S
O295 C291 1.260 . S
C296 O287 1.240 . S
C296 O288 1.252 . S
O297 In286 2.294 . S
O297 C290 1.240 . S
O298 In286 2.326 . S
O298 C290 1.252 . S
In299 O300 2.294 . S
In299 O301 2.326 . S
In299 O305 2.266 . S
In299 O306 2.326 . S
In299 O307 2.266 . S
In299 O308 2.326 . S
In299 O310 2.294 . S
In299 O311 2.326 . S
O300 In299 2.294 . S
O300 C309 1.240 . S
O301 In299 2.326 . S
O301 C309 1.252 . S
C302 O305 1.252 . S
C302 O306 1.260 . S
C303 O310 1.240 . S
C303 O311 1.252 . S
C304 O307 1.252 . S
C304 O308 1.260 . S
O305 In299 2.266 . S
O305 C302 1.252 . S
O306 In299 2.326 . S
O306 C302 1.260 . S
O307 In299 2.266 . S
O307 C304 1.252 . S
O308 In299 2.326 . S
O308 C304 1.260 . S
C309 O300 1.240 . S
C309 O301 1.252 . S
O310 In299 2.294 . S
O310 C303 1.240 . S
O311 In299 2.326 . S
O311 C303 1.252 . S
Sc312 O315 2.025 . S
Sc312 O322 2.105 . S
Sc312 O325 2.105 . S
Sc312 O328 2.105 . S
Sc312 O331 2.105 1_455 S
Sc313 O315 2.025 . S
Sc313 O323 2.105 . S
Sc313 O327 2.105 . S
Sc313 O329 2.105 . S
Sc313 O333 2.105 1_545 S
Sc314 O315 2.025 . S
Sc314 O324 2.105 . S
Sc314 O326 2.105 . S
Sc314 O330 2.105 . S
Sc314 O332 2.105 1_554 S
O315 Sc312 2.025 . S
O315 Sc313 2.025 . S
O315 Sc314 2.025 . S
C316 O322 1.268 1_556 S
C316 O332 1.268 . S
C317 O323 1.268 1_655 S
C317 O331 1.268 . S
C318 O324 1.268 1_565 S
C318 O333 1.268 . S
C319 O325 1.268 . S
C319 O329 1.268 . S
C320 O326 1.268 . S
C320 O328 1.268 . S
C321 O327 1.268 . S
C321 O330 1.268 . S
O322 Sc312 2.105 . S
O322 C316 1.268 1_554 S
O323 Sc313 2.105 . S
O323 C317 1.268 1_455 S
O324 Sc314 2.105 . S
O324 C318 1.268 1_545 S
O325 Sc312 2.105 . S
O325 C319 1.268 . S
O326 Sc314 2.105 . S
O326 C320 1.268 . S
O327 Sc313 2.105 . S
O327 C321 1.268 . S
O328 Sc312 2.105 . S
O328 C320 1.268 . S
O329 Sc313 2.105 . S
O329 C319 1.268 . S
O330 Sc314 2.105 . S
O330 C321 1.268 . S
O331 Sc312 2.105 1_655 S
O331 C317 1.268 . S
O332 Sc314 2.105 1_556 S
O332 C316 1.268 . S
O333 Sc313 2.105 1_565 S
O333 C318 1.268 . S
Sc334 O337 2.025 . S
Sc334 O344 2.105 . S
Sc334 O347 2.105 . S
Sc334 O350 2.105 . S
Sc334 O353 2.105 . S
Sc335 O337 2.025 . S
Sc335 O345 2.105 . S
Sc335 O349 2.105 . S
Sc335 O351 2.105 . S
Sc335 O355 2.105 1_455 S
Sc336 O337 2.025 . S
Sc336 O346 2.105 . S
Sc336 O348 2.105 . S
Sc336 O352 2.105 . S
Sc336 O354 2.105 1_565 S
O337 Sc334 2.025 . S
O337 Sc335 2.025 . S
O337 Sc336 2.025 . S
C338 O344 1.268 1_545 S
C338 O354 1.268 . S
C339 O345 1.268 . S
C339 O353 1.268 . S
C340 O346 1.268 1_655 S
C340 O355 1.268 . S
C341 O347 1.268 . S
C341 O351 1.268 . S
C342 O348 1.268 . S
C342 O350 1.268 . S
C343 O349 1.268 . S
C343 O352 1.268 . S
O344 Sc334 2.105 . S
O344 C338 1.268 1_565 S
O345 Sc335 2.105 . S
O345 C339 1.268 . S
O346 Sc336 2.105 . S
O346 C340 1.268 1_455 S
O347 Sc334 2.105 . S
O347 C341 1.268 . S
O348 Sc336 2.105 . S
O348 C342 1.268 . S
O349 Sc335 2.105 . S
O349 C343 1.268 . S
O350 Sc334 2.105 . S
O350 C342 1.268 . S
O351 Sc335 2.105 . S
O351 C341 1.268 . S
O352 Sc336 2.105 . S
O352 C343 1.268 . S
O353 Sc334 2.105 . S
O353 C339 1.268 . S
O354 Sc336 2.105 1_545 S
O354 C338 1.268 . S
O355 Sc335 2.105 1_655 S
O355 C340 1.268 . S
Sc356 O359 2.025 . S
Sc356 O366 2.105 . S
Sc356 O369 2.105 . S
Sc356 O372 2.105 . S
Sc356 O375 2.105 . S
Sc357 O359 2.025 . S
Sc357 O367 2.105 . S
Sc357 O371 2.105 . S
Sc357 O373 2.105 . S
Sc357 O377 2.105 . S
Sc358 O359 2.025 . S
Sc358 O368 2.105 . S
Sc358 O370 2.105 . S
Sc358 O374 2.105 1_565 S
Sc358 O376 2.105 . S
O359 Sc356 2.025 . S
O359 Sc357 2.025 . S
O359 Sc358 2.025 . S
C360 O366 1.268 . S
C360 O376 1.268 . S
C361 O367 1.268 . S
C361 O375 1.268 . S
C362 O368 1.268 . S
C362 O377 1.268 . S
C363 O369 1.268 . S
C363 O373 1.268 . S
C364 O370 1.268 . S
C364 O372 1.268 . S
C365 O371 1.268 1_545 S
C365 O374 1.268 . S
O366 Sc356 2.105 . S
O366 C360 1.268 . S
O367 Sc357 2.105 . S
O367 C361 1.268 . S
O368 Sc358 2.105 . S
O368 C362 1.268 . S
O369 Sc356 2.105 . S
O369 C363 1.268 . S
O370 Sc358 2.105 . S
O370 C364 1.268 . S
O371 Sc357 2.105 . S
O371 C365 1.268 1_565 S
O372 Sc356 2.105 . S
O372 C364 1.268 . S
O373 Sc357 2.105 . S
O373 C363 1.268 . S
O374 Sc358 2.105 1_545 S
O374 C365 1.268 . S
O375 Sc356 2.105 . S
O375 C361 1.268 . S
O376 Sc358 2.105 . S
O376 C360 1.268 . S
O377 Sc357 2.105 . S
O377 C362 1.268 . S
Sc378 O381 2.025 . S
Sc378 O388 2.105 . S
Sc378 O391 2.105 . S
Sc378 O394 2.105 1_545 S
Sc378 O397 2.105 . S
Sc379 O381 2.025 . S
Sc379 O389 2.105 . S
Sc379 O393 2.105 . S
Sc379 O395 2.105 . S
Sc379 O399 2.105 . S
Sc380 O381 2.025 . S
Sc380 O390 2.105 . S
Sc380 O392 2.105 . S
Sc380 O396 2.105 1_556 S
Sc380 O398 2.105 . S
O381 Sc378 2.025 . S
O381 Sc379 2.025 . S
O381 Sc380 2.025 . S
C382 O388 1.268 . S
C382 O398 1.268 . S
C383 O389 1.268 . S
C383 O397 1.268 . S
C384 O390 1.268 . S
C384 O399 1.268 . S
C385 O391 1.268 . S
C385 O395 1.268 . S
C386 O392 1.268 1_565 S
C386 O394 1.268 . S
C387 O393 1.268 1_554 S
C387 O396 1.268 . S
O388 Sc378 2.105 . S
O388 C382 1.268 . S
O389 Sc379 2.105 . S
O389 C383 1.268 . S
O390 Sc380 2.105 . S
O390 C384 1.268 . S
O391 Sc378 2.105 . S
O391 C385 1.268 . S
O392 Sc380 2.105 . S
O392 C386 1.268 1_545 S
O393 Sc379 2.105 . S
O393 C387 1.268 1_556 S
O394 Sc378 2.105 1_565 S
O394 C386 1.268 . S
O395 Sc379 2.105 . S
O395 C385 1.268 . S
O396 Sc380 2.105 1_554 S
O396 C387 1.268 . S
O397 Sc378 2.105 . S
O397 C383 1.268 . S
O398 Sc380 2.105 . S
O398 C382 1.268 . S
O399 Sc379 2.105 . S
O399 C384 1.268 . S
Sc400 O403 2.025 . S
Sc400 O410 2.105 . S
Sc400 O413 2.105 . S
Sc400 O416 2.105 . S
Sc400 O419 2.105 1_556 S
Sc401 O403 2.025 . S
Sc401 O411 2.105 . S
Sc401 O415 2.105 . S
Sc401 O417 2.105 . S
Sc401 O421 2.105 . S
Sc402 O403 2.025 . S
Sc402 O412 2.105 . S
Sc402 O414 2.105 . S
Sc402 O418 2.105 . S
Sc402 O420 2.105 . S
O403 Sc400 2.025 . S
O403 Sc401 2.025 . S
O403 Sc402 2.025 . S
C404 O410 1.268 . S
C404 O420 1.268 . S
C405 O411 1.268 1_554 S
C405 O419 1.268 . S
C406 O412 1.268 . S
C406 O421 1.268 . S
C407 O413 1.268 . S
C407 O417 1.268 . S
C408 O414 1.268 . S
C408 O416 1.268 . S
C409 O415 1.268 . S
C409 O418 1.268 . S
O410 Sc400 2.105 . S
O410 C404 1.268 . S
O411 Sc401 2.105 . S
O411 C405 1.268 1_556 S
O412 Sc402 2.105 . S
O412 C406 1.268 . S
O413 Sc400 2.105 . S
O413 C407 1.268 . S
O414 Sc402 2.105 . S
O414 C408 1.268 . S
O415 Sc401 2.105 . S
O415 C409 1.268 . S
O416 Sc400 2.105 . S
O416 C408 1.268 . S
O417 Sc401 2.105 . S
O417 C407 1.268 . S
O418 Sc402 2.105 . S
O418 C409 1.268 . S
O419 Sc400 2.105 1_554 S
O419 C405 1.268 . S
O420 Sc402 2.105 . S
O420 C404 1.268 . S
O421 Sc401 2.105 . S
O421 C406 1.268 . S
Sc422 O425 2.025 . S
Sc422 O432 2.105 . S
Sc422 O435 2.105 . S
Sc422 O438 2.105 . S
Sc422 O441 2.105 1_655 S
Sc423 O425 2.025 . S
Sc423 O433 2.105 . S
Sc423 O437 2.105 . S
Sc423 O439 2.105 . S
Sc423 O443 2.105 . S
Sc424 O425 2.025 . S
Sc424 O434 2.105 . S
Sc424 O436 2.105 . S
Sc424 O440 2.105 . S
Sc424 O442 2.105 1_554 S
O425 Sc422 2.025 . S
O425 Sc423 2.025 . S
O425 Sc424 2.025 . S
C426 O432 1.268 1_556 S
C426 O442 1.268 . S
C427 O433 1.268 1_455 S
C427 O441 1.268 . S
C428 O434 1.268 . S
C428 O443 1.268 . S
C429 O435 1.268 . S
C429 O439 1.268 . S
C430 O436 1.268 . S
C430 O438 1.268 . S
C431 O437 1.268 . S
C431 O440 1.268 . S
O432 Sc422 2.105 . S
O432 C426 1.268 1_554 S
O433 Sc423 2.105 . S
O433 C427 1.268 1_655 S
O434 Sc424 2.105 . S
O434 C428 1.268 . S
O435 Sc422 2.105 . S
O435 C429 1.268 . S
O436 Sc424 2.105 . S
O436 C430 1.268 . S
O437 Sc423 2.105 . S
O437 C431 1.268 . S
O438 Sc422 2.105 . S
O438 C430 1.268 . S
O439 Sc423 2.105 . S
O439 C429 1.268 . S
O440 Sc424 2.105 . S
O440 C431 1.268 . S
O441 Sc422 2.105 1_455 S
O441 C427 1.268 . S
O442 Sc424 2.105 1_556 S
O442 C426 1.268 . S
O443 Sc423 2.105 . S
O443 C428 1.268 . S
Sc444 O447 2.025 . S
Sc444 O454 2.105 . S
Sc444 O457 2.105 . S
Sc444 O460 2.105 . S
Sc444 O463 2.105 . S
Sc445 O447 2.025 . S
Sc445 O455 2.105 . S
Sc445 O459 2.105 . S
Sc445 O461 2.105 1_655 S
Sc445 O465 2.105 . S
Sc446 O447 2.025 . S
Sc446 O456 2.105 . S
Sc446 O458 2.105 . S
Sc446 O462 2.105 . S
Sc446 O464 2.105 . S
O447 Sc444 2.025 . S
O447 Sc445 2.025 . S
O447 Sc446 2.025 . S
C448 O454 1.268 . S
C448 O464 1.268 . S
C449 O455 1.268 . S
C449 O463 1.268 . S
C450 O456 1.268 . S
C450 O465 1.268 . S
C451 O457 1.268 1_455 S
C451 O461 1.268 . S
C452 O458 1.268 . S
C452 O460 1.268 . S
C453 O459 1.268 . S
C453 O462 1.268 . S
O454 Sc444 2.105 . S
O454 C448 1.268 . S
O455 Sc445 2.105 . S
O455 C449 1.268 . S
O456 Sc446 2.105 . S
O456 C450 1.268 . S
O457 Sc444 2.105 . S
O457 C451 1.268 1_655 S
O458 Sc446 2.105 . S
O458 C452 1.268 . S
O459 Sc445 2.105 . S
O459 C453 1.268 . S
O460 Sc444 2.105 . S
O460 C452 1.268 . S
O461 Sc445 2.105 1_455 S
O461 C451 1.268 . S
O462 Sc446 2.105 . S
O462 C453 1.268 . S
O463 Sc444 2.105 . S
O463 C449 1.268 . S
O464 Sc446 2.105 . S
O464 C448 1.268 . S
O465 Sc445 2.105 . S
O465 C450 1.268 . S
Sc466 O469 2.025 . S
Sc466 O476 2.105 1_655 S
Sc466 O479 2.105 . S
Sc466 O482 2.105 . S
Sc466 O485 2.105 . S
Sc467 O469 2.025 . S
Sc467 O477 2.105 1_556 S
Sc467 O481 2.105 . S
Sc467 O483 2.105 . S
Sc467 O487 2.105 . S
Sc468 O469 2.025 . S
Sc468 O478 2.105 1_565 S
Sc468 O480 2.105 . S
Sc468 O484 2.105 . S
Sc468 O486 2.105 . S
O469 Sc466 2.025 . S
O469 Sc467 2.025 . S
O469 Sc468 2.025 . S
C470 O476 1.268 . S
C470 O486 1.268 1_455 S
C471 O477 1.268 . S
C471 O485 1.268 1_554 S
C472 O478 1.268 . S
C472 O487 1.268 1_545 S
C473 O479 1.268 . S
C473 O483 1.268 . S
C474 O480 1.268 . S
C474 O482 1.268 . S
C475 O481 1.268 . S
C475 O484 1.268 . S
O476 Sc466 2.105 1_455 S
O476 C470 1.268 . S
O477 Sc467 2.105 1_554 S
O477 C471 1.268 . S
O478 Sc468 2.105 1_545 S
O478 C472 1.268 . S
O479 Sc466 2.105 . S
O479 C473 1.268 . S
O480 Sc468 2.105 . S
O480 C474 1.268 . S
O481 Sc467 2.105 . S
O481 C475 1.268 . S
O482 Sc466 2.105 . S
O482 C474 1.268 . S
O483 Sc467 2.105 . S
O483 C473 1.268 . S
O484 Sc468 2.105 . S
O484 C475 1.268 . S
O485 Sc466 2.105 . S
O485 C471 1.268 1_556 S
O486 Sc468 2.105 . S
O486 C470 1.268 1_655 S
O487 Sc467 2.105 . S
O487 C472 1.268 1_565 S
Sc488 O491 2.025 . S
Sc488 O498 2.105 . S
Sc488 O501 2.105 . S
Sc488 O504 2.105 . S
Sc488 O507 2.105 . S
Sc489 O491 2.025 . S
Sc489 O499 2.105 . S
Sc489 O503 2.105 1_655 S
Sc489 O505 2.105 . S
Sc489 O509 2.105 . S
Sc490 O491 2.025 . S
Sc490 O500 2.105 . S
Sc490 O502 2.105 1_545 S
Sc490 O506 2.105 . S
Sc490 O508 2.105 . S
O491 Sc488 2.025 . S
O491 Sc489 2.025 . S
O491 Sc490 2.025 . S
C492 O498 1.268 . S
C492 O508 1.268 . S
C493 O499 1.268 . S
C493 O507 1.268 . S
C494 O500 1.268 . S
C494 O509 1.268 . S
C495 O501 1.268 . S
C495 O505 1.268 . S
C496 O502 1.268 . S
C496 O504 1.268 1_565 S
C497 O503 1.268 . S
C497 O506 1.268 1_455 S
O498 Sc488 2.105 . S
O498 C492 1.268 . S
O499 Sc489 2.105 . S
O499 C493 1.268 . S
O500 Sc490 2.105 . S
O500 C494 1.268 . S
O501 Sc488 2.105 . S
O501 C495 1.268 . S
O502 Sc490 2.105 1_565 S
O502 C496 1.268 . S
O503 Sc489 2.105 1_455 S
O503 C497 1.268 . S
O504 Sc488 2.105 . S
O504 C496 1.268 1_545 S
O505 Sc489 2.105 . S
O505 C495 1.268 . S
O506 Sc490 2.105 . S
O506 C497 1.268 1_655 S
O507 Sc488 2.105 . S
O507 C493 1.268 . S
O508 Sc490 2.105 . S
O508 C492 1.268 . S
O509 Sc489 2.105 . S
O509 C494 1.268 . S
Sc510 O513 2.025 . S
Sc510 O520 2.105 . S
Sc510 O523 2.105 1_545 S
Sc510 O526 2.105 . S
Sc510 O529 2.105 . S
Sc511 O513 2.025 . S
Sc511 O521 2.105 . S
Sc511 O525 2.105 . S
Sc511 O527 2.105 . S
Sc511 O531 2.105 . S
Sc512 O513 2.025 . S
Sc512 O522 2.105 . S
Sc512 O524 2.105 . S
Sc512 O528 2.105 . S
Sc512 O530 2.105 . S
O513 Sc510 2.025 . S
O513 Sc511 2.025 . S
O513 Sc512 2.025 . S
C514 O520 1.268 . S
C514 O530 1.268 . S
C515 O521 1.268 . S
C515 O529 1.268 . S
C516 O522 1.268 . S
C516 O531 1.268 . S
C517 O523 1.268 . S
C517 O527 1.268 1_565 S
C518 O524 1.268 . S
C518 O526 1.268 . S
C519 O525 1.268 . S
C519 O528 1.268 . S
O520 Sc510 2.105 . S
O520 C514 1.268 . S
O521 Sc511 2.105 . S
O521 C515 1.268 . S
O522 Sc512 2.105 . S
O522 C516 1.268 . S
O523 Sc510 2.105 1_565 S
O523 C517 1.268 . S
O524 Sc512 2.105 . S
O524 C518 1.268 . S
O525 Sc511 2.105 . S
O525 C519 1.268 . S
O526 Sc510 2.105 . S
O526 C518 1.268 . S
O527 Sc511 2.105 . S
O527 C517 1.268 1_545 S
O528 Sc512 2.105 . S
O528 C519 1.268 . S
O529 Sc510 2.105 . S
O529 C515 1.268 . S
O530 Sc512 2.105 . S
O530 C514 1.268 . S
O531 Sc511 2.105 . S
O531 C516 1.268 . S
Sc532 O535 2.025 . S
Sc532 O542 2.105 . S
Sc532 O545 2.105 1_554 S
Sc532 O548 2.105 . S
Sc532 O551 2.105 . S
Sc533 O535 2.025 . S
Sc533 O543 2.105 . S
Sc533 O547 2.105 . S
Sc533 O549 2.105 . S
Sc533 O553 2.105 . S
Sc534 O535 2.025 . S
Sc534 O544 2.105 . S
Sc534 O546 2.105 1_565 S
Sc534 O550 2.105 . S
Sc534 O552 2.105 . S
O535 Sc532 2.025 . S
O535 Sc533 2.025 . S
O535 Sc534 2.025 . S
C536 O542 1.268 . S
C536 O552 1.268 . S
C537 O543 1.268 . S
C537 O551 1.268 . S
C538 O544 1.268 . S
C538 O553 1.268 . S
C539 O545 1.268 . S
C539 O549 1.268 1_556 S
C540 O546 1.268 . S
C540 O548 1.268 1_545 S
C541 O547 1.268 . S
C541 O550 1.268 . S
O542 Sc532 2.105 . S
O542 C536 1.268 . S
O543 Sc533 2.105 . S
O543 C537 1.268 . S
O544 Sc534 2.105 . S
O544 C538 1.268 . S
O545 Sc532 2.105 1_556 S
O545 C539 1.268 . S
O546 Sc534 2.105 1_545 S
O546 C540 1.268 . S
O547 Sc533 2.105 . S
O547 C541 1.268 . S
O548 Sc532 2.105 . S
O548 C540 1.268 1_565 S
O549 Sc533 2.105 . S
O549 C539 1.268 1_554 S
O550 Sc534 2.105 . S
O550 C541 1.268 . S
O551 Sc532 2.105 . S
O551 C537 1.268 . S
O552 Sc534 2.105 . S
O552 C536 1.268 . S
O553 Sc533 2.105 . S
O553 C538 1.268 . S
Sc554 O557 2.025 . S
Sc554 O564 2.105 . S
Sc554 O567 2.105 1_554 S
Sc554 O570 2.105 . S
Sc554 O573 2.105 . S
Sc555 O557 2.025 . S
Sc555 O565 2.105 . S
Sc555 O569 2.105 . S
Sc555 O571 2.105 . S
Sc555 O575 2.105 . S
Sc556 O557 2.025 . S
Sc556 O566 2.105 . S
Sc556 O568 2.105 . S
Sc556 O572 2.105 . S
Sc556 O574 2.105 . S
O557 Sc554 2.025 . S
O557 Sc555 2.025 . S
O557 Sc556 2.025 . S
C558 O564 1.268 . S
C558 O574 1.268 . S
C559 O565 1.268 . S
C559 O573 1.268 . S
C560 O566 1.268 . S
C560 O575 1.268 . S
C561 O567 1.268 . S
C561 O571 1.268 1_556 S
C562 O568 1.268 . S
C562 O570 1.268 . S
C563 O569 1.268 . S
C563 O572 1.268 . S
O564 Sc554 2.105 . S
O564 C558 1.268 . S
O565 Sc555 2.105 . S
O565 C559 1.268 . S
O566 Sc556 2.105 . S
O566 C560 1.268 . S
O567 Sc554 2.105 1_556 S
O567 C561 1.268 . S
O568 Sc556 2.105 . S
O568 C562 1.268 . S
O569 Sc555 2.105 . S
O569 C563 1.268 . S
O570 Sc554 2.105 . S
O570 C562 1.268 . S
O571 Sc555 2.105 . S
O571 C561 1.268 1_554 S
O572 Sc556 2.105 . S
O572 C563 1.268 . S
O573 Sc554 2.105 . S
O573 C559 1.268 . S
O574 Sc556 2.105 . S
O574 C558 1.268 . S
O575 Sc555 2.105 . S
O575 C560 1.268 . S
Sc576 O579 2.025 . S
Sc576 O586 2.105 . S
Sc576 O589 2.105 . S
Sc576 O592 2.105 . S
Sc576 O595 2.105 . S
Sc577 O579 2.025 . S
Sc577 O587 2.105 . S
Sc577 O591 2.105 1_556 S
Sc577 O593 2.105 . S
Sc577 O597 2.105 . S
Sc578 O579 2.025 . S
Sc578 O588 2.105 . S
Sc578 O590 2.105 1_455 S
Sc578 O594 2.105 . S
Sc578 O596 2.105 . S
O579 Sc576 2.025 . S
O579 Sc577 2.025 . S
O579 Sc578 2.025 . S
C580 O586 1.268 . S
C580 O596 1.268 . S
C581 O587 1.268 . S
C581 O595 1.268 . S
C582 O588 1.268 . S
C582 O597 1.268 . S
C583 O589 1.268 . S
C583 O593 1.268 . S
C584 O590 1.268 . S
C584 O592 1.268 1_655 S
C585 O591 1.268 . S
C585 O594 1.268 1_554 S
O586 Sc576 2.105 . S
O586 C580 1.268 . S
O587 Sc577 2.105 . S
O587 C581 1.268 . S
O588 Sc578 2.105 . S
O588 C582 1.268 . S
O589 Sc576 2.105 . S
O589 C583 1.268 . S
O590 Sc578 2.105 1_655 S
O590 C584 1.268 . S
O591 Sc577 2.105 1_554 S
O591 C585 1.268 . S
O592 Sc576 2.105 . S
O592 C584 1.268 1_455 S
O593 Sc577 2.105 . S
O593 C583 1.268 . S
O594 Sc578 2.105 . S
O594 C585 1.268 1_556 S
O595 Sc576 2.105 . S
O595 C581 1.268 . S
O596 Sc578 2.105 . S
O596 C580 1.268 . S
O597 Sc577 2.105 . S
O597 C582 1.268 . S
Sc598 O601 2.025 . S
Sc598 O608 2.105 . S
Sc598 O611 2.105 . S
Sc598 O614 2.105 . S
Sc598 O617 2.105 . S
Sc599 O601 2.025 . S
Sc599 O609 2.105 . S
Sc599 O613 2.105 1_455 S
Sc599 O615 2.105 . S
Sc599 O619 2.105 . S
Sc600 O601 2.025 . S
Sc600 O610 2.105 . S
Sc600 O612 2.105 . S
Sc600 O616 2.105 . S
Sc600 O618 2.105 . S
O601 Sc598 2.025 . S
O601 Sc599 2.025 . S
O601 Sc600 2.025 . S
C602 O608 1.268 . S
C602 O618 1.268 . S
C603 O609 1.268 . S
C603 O617 1.268 . S
C604 O610 1.268 . S
C604 O619 1.268 . S
C605 O611 1.268 . S
C605 O615 1.268 . S
C606 O612 1.268 . S
C606 O614 1.268 . S
C607 O613 1.268 . S
C607 O616 1.268 1_655 S
O608 Sc598 2.105 . S
O608 C602 1.268 . S
O609 Sc599 2.105 . S
O609 C603 1.268 . S
O610 Sc600 2.105 . S
O610 C604 1.268 . S
O611 Sc598 2.105 . S
O611 C605 1.268 . S
O612 Sc600 2.105 . S
O612 C606 1.268 . S
O613 Sc599 2.105 1_655 S
O613 C607 1.268 . S
O614 Sc598 2.105 . S
O614 C606 1.268 . S
O615 Sc599 2.105 . S
O615 C605 1.268 . S
O616 Sc600 2.105 . S
O616 C607 1.268 1_455 S
O617 Sc598 2.105 . S
O617 C603 1.268 . S
O618 Sc600 2.105 . S
O618 C602 1.268 . S
O619 Sc599 2.105 . S
O619 C604 1.268 . S
Sc620 O623 2.025 . S
Sc620 O630 2.105 . S
Sc620 O633 2.105 . S
Sc620 O636 2.105 . S
Sc620 O639 2.105 . S
Sc621 O623 2.025 . S
Sc621 O631 2.105 . S
Sc621 O635 2.105 . S
Sc621 O637 2.105 . S
Sc621 O641 2.105 . S
Sc622 O623 2.025 . S
Sc622 O632 2.105 . S
Sc622 O634 2.105 . S
Sc622 O638 2.105 . S
Sc622 O640 2.105 . S
O623 Sc620 2.025 . S
O623 Sc621 2.025 . S
O623 Sc622 2.025 . S
C624 O630 1.268 . S
C624 O640 1.268 . S
C625 O631 1.268 . S
C625 O639 1.268 . S
C626 O632 1.268 . S
C626 O641 1.268 . S
C627 O633 1.268 . S
C627 O637 1.268 . S
C628 O634 1.268 . S
C628 O636 1.268 . S
C629 O635 1.268 . S
C629 O638 1.268 . S
O630 Sc620 2.105 . S
O630 C624 1.268 . S
O631 Sc621 2.105 . S
O631 C625 1.268 . S
O632 Sc622 2.105 . S
O632 C626 1.268 . S
O633 Sc620 2.105 . S
O633 C627 1.268 . S
O634 Sc622 2.105 . S
O634 C628 1.268 . S
O635 Sc621 2.105 . S
O635 C629 1.268 . S
O636 Sc620 2.105 . S
O636 C628 1.268 . S
O637 Sc621 2.105 . S
O637 C627 1.268 . S
O638 Sc622 2.105 . S
O638 C629 1.268 . S
O639 Sc620 2.105 . S
O639 C625 1.268 . S
O640 Sc622 2.105 . S
O640 C624 1.268 . S
O641 Sc621 2.105 . S
O641 C626 1.268 . S
Sc642 O645 2.025 . S
Sc642 O652 2.105 . S
Sc642 O655 2.105 . S
Sc642 O658 2.105 . S
Sc642 O661 2.105 . S
Sc643 O645 2.025 . S
Sc643 O653 2.105 . S
Sc643 O657 2.105 . S
Sc643 O659 2.105 . S
Sc643 O663 2.105 . S
Sc644 O645 2.025 . S
Sc644 O654 2.105 . S
Sc644 O656 2.105 . S
Sc644 O660 2.105 . S
Sc644 O662 2.105 . S
O645 Sc642 2.025 . S
O645 Sc643 2.025 . S
O645 Sc644 2.025 . S
C646 O652 1.268 . S
C646 O662 1.268 . S
C647 O653 1.268 . S
C647 O661 1.268 . S
C648 O654 1.268 . S
C648 O663 1.268 . S
C649 O655 1.268 . S
C649 O659 1.268 . S
C650 O656 1.268 . S
C650 O658 1.268 . S
C651 O657 1.268 . S
C651 O660 1.268 . S
O652 Sc642 2.105 . S
O652 C646 1.268 . S
O653 Sc643 2.105 . S
O653 C647 1.268 . S
O654 Sc644 2.105 . S
O654 C648 1.268 . S
O655 Sc642 2.105 . S
O655 C649 1.268 . S
O656 Sc644 2.105 . S
O656 C650 1.268 . S
O657 Sc643 2.105 . S
O657 C651 1.268 . S
O658 Sc642 2.105 . S
O658 C650 1.268 . S
O659 Sc643 2.105 . S
O659 C649 1.268 . S
O660 Sc644 2.105 . S
O660 C651 1.268 . S
O661 Sc642 2.105 . S
O661 C647 1.268 . S
O662 Sc644 2.105 . S
O662 C646 1.268 . S
O663 Sc643 2.105 . S
O663 C648 1.268 . S
C319 C10 1.462 . S
C16 C339 1.484 . S
C360 C30 1.465 . S
C387 C42 1.481 . S
C343 C57 1.481 . S
C69 C363 1.465 . S
C383 C83 1.484 . S
C101 C316 1.462 . S
C108 C321 1.462 . S
C338 C120 1.481 . S
C362 C133 1.484 . S
C386 C147 1.465 . S
C342 C114 1.465 . S
C365 C122 1.484 . S
C135 C382 1.481 . S
C318 C153 1.462 . S
C160 C320 1.462 . S
C174 C407 1.484 . S
C427 C187 1.481 . S
C450 C205 1.465 . S
C212 C317 1.462 . S
C226 C361 1.481 . S
C451 C185 1.484 . S
C406 C244 1.465 . S
C474 C23 1.284 . S
C495 C5 1.291 . S
C49 C514 1.281 . S
C29 C539 1.286 . S
C94 C494 1.286 . S
C88 C519 1.281 . S
C538 C70 1.291 . S
C62 C471 1.284 . S
C257 C475 1.284 . S
C496 C200 1.286 . S
C515 C211 1.291 . S
C540 C179 1.281 . S
C492 C251 1.281 . S
C517 C198 1.291 . S
C536 C213 1.286 . S
C173 C472 1.284 . S
C473 C264 1.284 . S
C148 C559 1.291 . S
C584 C278 1.286 . S
C127 C603 1.281 . S
C470 C140 1.284 . S
C516 C289 1.286 . S
C607 C276 1.291 . S
C303 C563 1.281 . S
C36 C627 1.462 . S
C44 C405 1.484 . S
C429 C4 1.465 . S
C18 C453 1.481 . S
C81 C409 1.481 . S
C95 C426 1.465 . S
C449 C55 1.484 . S
C624 C75 1.462 . S
C629 C277 1.462 . S
C404 C263 1.481 . S
C431 C302 1.484 . S
C290 C452 1.465 . S
C408 C283 1.465 . S
C265 C428 1.484 . S
C448 C304 1.481 . S
C296 C626 1.462 . S
C628 C199 1.462 . S
C224 C341 1.484 . S
C364 C252 1.481 . S
C166 C384 1.465 . S
C625 C238 1.462 . S
C430 C172 1.481 . S
C385 C250 1.484 . S
C340 C218 1.465 . S
C43 C651 1.284 . S
C31 C561 1.291 . S
C17 C580 1.281 . S
C605 C3 1.286 . S
C560 C68 1.286 . S
C56 C585 1.281 . S
C604 C96 1.291 . S
C82 C646 1.284 . S
C649 C192 1.284 . S
C161 C562 1.286 . S
C237 C581 1.291 . S
C606 C225 1.281 . S
C558 C186 1.281 . S
C159 C583 1.291 . S
C602 C239 1.286 . S
C647 C231 1.284 . S
C650 C121 1.284 . S
C493 C291 1.291 . S
C109 C518 1.286 . S
C270 C537 1.281 . S
C648 C309 1.284 . S
C582 C146 1.286 . S
C541 C107 1.291 . S
C497 C134 1.281 . S
