# Generated by pormake.
# Topology gar, (4,6)-cn, num edge types: 1
# Building blocks:
#     Node 0, Type 0, BuildingBlock: UXUYUI_clean_sbu_0, # of connection points: 4
#     Node 1, Type 0, BuildingBlock: UXUYUI_clean_sbu_0, # of connection points: 4
#     Node 2, Type 0, BuildingBlock: UXUYUI_clean_sbu_0, # of connection points: 4
#     Node 3, Type 0, BuildingBlock: UXUYUI_clean_sbu_0, # of connection points: 4
#     Node 4, Type 0, BuildingBlock: UXUYUI_clean_sbu_0, # of connection points: 4
#     Node 5, Type 0, BuildingBlock: UXUYUI_clean_sbu_0, # of connection points: 4
#     Node 6, Type 0, BuildingBlock: UXUYUI_clean_sbu_0, # of connection points: 4
#     Node 7, Type 0, BuildingBlock: UXUYUI_clean_sbu_0, # of connection points: 4
#     Node 8, Type 0, BuildingBlock: UXUYUI_clean_sbu_0, # of connection points: 4
#     Node 9, Type 0, BuildingBlock: UXUYUI_clean_sbu_0, # of connection points: 4
#     Node 10, Type 0, BuildingBlock: UXUYUI_clean_sbu_0, # of connection points: 4
#     Node 11, Type 0, BuildingBlock: UXUYUI_clean_sbu_0, # of connection points: 4
#     Node 12, Type 0, BuildingBlock: UXUYUI_clean_sbu_0, # of connection points: 4
#     Node 13, Type 0, BuildingBlock: UXUYUI_clean_sbu_0, # of connection points: 4
#     Node 14, Type 0, BuildingBlock: UXUYUI_clean_sbu_0, # of connection points: 4
#     Node 15, Type 0, BuildingBlock: UXUYUI_clean_sbu_0, # of connection points: 4
#     Node 16, Type 0, BuildingBlock: UXUYUI_clean_sbu_0, # of connection points: 4
#     Node 17, Type 0, BuildingBlock: UXUYUI_clean_sbu_0, # of connection points: 4
#     Node 18, Type 0, BuildingBlock: UXUYUI_clean_sbu_0, # of connection points: 4
#     Node 19, Type 0, BuildingBlock: UXUYUI_clean_sbu_0, # of connection points: 4
#     Node 20, Type 0, BuildingBlock: UXUYUI_clean_sbu_0, # of connection points: 4
#     Node 21, Type 0, BuildingBlock: UXUYUI_clean_sbu_0, # of connection points: 4
#     Node 22, Type 0, BuildingBlock: UXUYUI_clean_sbu_0, # of connection points: 4
#     Node 23, Type 0, BuildingBlock: UXUYUI_clean_sbu_0, # of connection points: 4
#     Node 24, Type 1, BuildingBlock: MIFKUJ_clean_sbu_0, # of connection points: 6
#     Node 25, Type 1, BuildingBlock: MIFKUJ_clean_sbu_0, # of connection points: 6
#     Node 26, Type 1, BuildingBlock: MIFKUJ_clean_sbu_0, # of connection points: 6
#     Node 27, Type 1, BuildingBlock: MIFKUJ_clean_sbu_0, # of connection points: 6
#     Node 28, Type 1, BuildingBlock: MIFKUJ_clean_sbu_0, # of connection points: 6
#     Node 29, Type 1, BuildingBlock: MIFKUJ_clean_sbu_0, # of connection points: 6
#     Node 30, Type 1, BuildingBlock: MIFKUJ_clean_sbu_0, # of connection points: 6
#     Node 31, Type 1, BuildingBlock: MIFKUJ_clean_sbu_0, # of connection points: 6
#     Node 32, Type 1, BuildingBlock: MIFKUJ_clean_sbu_0, # of connection points: 6
#     Node 33, Type 1, BuildingBlock: MIFKUJ_clean_sbu_0, # of connection points: 6
#     Node 34, Type 1, BuildingBlock: MIFKUJ_clean_sbu_0, # of connection points: 6
#     Node 35, Type 1, BuildingBlock: MIFKUJ_clean_sbu_0, # of connection points: 6
#     Node 36, Type 1, BuildingBlock: MIFKUJ_clean_sbu_0, # of connection points: 6
#     Node 37, Type 1, BuildingBlock: MIFKUJ_clean_sbu_0, # of connection points: 6
#     Node 38, Type 1, BuildingBlock: MIFKUJ_clean_sbu_0, # of connection points: 6
#     Node 39, Type 1, BuildingBlock: MIFKUJ_clean_sbu_0, # of connection points: 6
#     Edge 40, Type (0, 1), BuildingBlock: CIFDUS_clean_linker_0, # of connection points: 2
#     Edge 41, Type (0, 1), BuildingBlock: CIFDUS_clean_linker_0, # of connection points: 2
#     Edge 42, Type (0, 1), BuildingBlock: CIFDUS_clean_linker_0, # of connection points: 2
#     Edge 43, Type (0, 1), BuildingBlock: CIFDUS_clean_linker_0, # of connection points: 2
#     Edge 44, Type (0, 1), BuildingBlock: CIFDUS_clean_linker_0, # of connection points: 2
#     Edge 45, Type (0, 1), BuildingBlock: CIFDUS_clean_linker_0, # of connection points: 2
#     Edge 46, Type (0, 1), BuildingBlock: CIFDUS_clean_linker_0, # of connection points: 2
#     Edge 47, Type (0, 1), BuildingBlock: CIFDUS_clean_linker_0, # of connection points: 2
#     Edge 48, Type (0, 1), BuildingBlock: CIFDUS_clean_linker_0, # of connection points: 2
#     Edge 49, Type (0, 1), BuildingBlock: CIFDUS_clean_linker_0, # of connection points: 2
#     Edge 50, Type (0, 1), BuildingBlock: CIFDUS_clean_linker_0, # of connection points: 2
#     Edge 51, Type (0, 1), BuildingBlock: CIFDUS_clean_linker_0, # of connection points: 2
#     Edge 52, Type (0, 1), BuildingBlock: CIFDUS_clean_linker_0, # of connection points: 2
#     Edge 53, Type (0, 1), BuildingBlock: CIFDUS_clean_linker_0, # of connection points: 2
#     Edge 54, Type (0, 1), BuildingBlock: CIFDUS_clean_linker_0, # of connection points: 2
#     Edge 55, Type (0, 1), BuildingBlock: CIFDUS_clean_linker_0, # of connection points: 2
#     Edge 56, Type (0, 1), BuildingBlock: CIFDUS_clean_linker_0, # of connection points: 2
#     Edge 57, Type (0, 1), BuildingBlock: CIFDUS_clean_linker_0, # of connection points: 2
#     Edge 58, Type (0, 1), BuildingBlock: CIFDUS_clean_linker_0, # of connection points: 2
#     Edge 59, Type (0, 1), BuildingBlock: CIFDUS_clean_linker_0, # of connection points: 2
#     Edge 60, Type (0, 1), BuildingBlock: CIFDUS_clean_linker_0, # of connection points: 2
#     Edge 61, Type (0, 1), BuildingBlock: CIFDUS_clean_linker_0, # of connection points: 2
#     Edge 62, Type (0, 1), BuildingBlock: CIFDUS_clean_linker_0, # of connection points: 2
#     Edge 63, Type (0, 1), BuildingBlock: CIFDUS_clean_linker_0, # of connection points: 2
#     Edge 64, Type (0, 1), BuildingBlock: CIFDUS_clean_linker_0, # of connection points: 2
#     Edge 65, Type (0, 1), BuildingBlock: CIFDUS_clean_linker_0, # of connection points: 2
#     Edge 66, Type (0, 1), BuildingBlock: CIFDUS_clean_linker_0, # of connection points: 2
#     Edge 67, Type (0, 1), BuildingBlock: CIFDUS_clean_linker_0, # of connection points: 2
#     Edge 68, Type (0, 1), BuildingBlock: CIFDUS_clean_linker_0, # of connection points: 2
#     Edge 69, Type (0, 1), BuildingBlock: CIFDUS_clean_linker_0, # of connection points: 2
#     Edge 70, Type (0, 1), BuildingBlock: CIFDUS_clean_linker_0, # of connection points: 2
#     Edge 71, Type (0, 1), BuildingBlock: CIFDUS_clean_linker_0, # of connection points: 2
#     Edge 72, Type (0, 1), BuildingBlock: CIFDUS_clean_linker_0, # of connection points: 2
#     Edge 73, Type (0, 1), BuildingBlock: CIFDUS_clean_linker_0, # of connection points: 2
#     Edge 74, Type (0, 1), BuildingBlock: CIFDUS_clean_linker_0, # of connection points: 2
#     Edge 75, Type (0, 1), BuildingBlock: CIFDUS_clean_linker_0, # of connection points: 2
#     Edge 76, Type (0, 1), BuildingBlock: CIFDUS_clean_linker_0, # of connection points: 2
#     Edge 77, Type (0, 1), BuildingBlock: CIFDUS_clean_linker_0, # of connection points: 2
#     Edge 78, Type (0, 1), BuildingBlock: CIFDUS_clean_linker_0, # of connection points: 2
#     Edge 79, Type (0, 1), BuildingBlock: CIFDUS_clean_linker_0, # of connection points: 2
#     Edge 80, Type (0, 1), BuildingBlock: CIFDUS_clean_linker_0, # of connection points: 2
#     Edge 81, Type (0, 1), BuildingBlock: CIFDUS_clean_linker_0, # of connection points: 2
#     Edge 82, Type (0, 1), BuildingBlock: CIFDUS_clean_linker_0, # of connection points: 2
#     Edge 83, Type (0, 1), BuildingBlock: CIFDUS_clean_linker_0, # of connection points: 2
#     Edge 84, Type (0, 1), BuildingBlock: CIFDUS_clean_linker_0, # of connection points: 2
#     Edge 85, Type (0, 1), BuildingBlock: CIFDUS_clean_linker_0, # of connection points: 2
#     Edge 86, Type (0, 1), BuildingBlock: CIFDUS_clean_linker_0, # of connection points: 2
#     Edge 87, Type (0, 1), BuildingBlock: CIFDUS_clean_linker_0, # of connection points: 2
#     Edge 88, Type (0, 1), BuildingBlock: CIFDUS_clean_linker_0, # of connection points: 2
#     Edge 89, Type (0, 1), BuildingBlock: CIFDUS_clean_linker_0, # of connection points: 2
#     Edge 90, Type (0, 1), BuildingBlock: CIFDUS_clean_linker_0, # of connection points: 2
#     Edge 91, Type (0, 1), BuildingBlock: CIFDUS_clean_linker_0, # of connection points: 2
#     Edge 92, Type (0, 1), BuildingBlock: CIFDUS_clean_linker_0, # of connection points: 2
#     Edge 93, Type (0, 1), BuildingBlock: CIFDUS_clean_linker_0, # of connection points: 2
#     Edge 94, Type (0, 1), BuildingBlock: CIFDUS_clean_linker_0, # of connection points: 2
#     Edge 95, Type (0, 1), BuildingBlock: CIFDUS_clean_linker_0, # of connection points: 2
#     Edge 96, Type (0, 1), BuildingBlock: CIFDUS_clean_linker_0, # of connection points: 2
#     Edge 97, Type (0, 1), BuildingBlock: CIFDUS_clean_linker_0, # of connection points: 2
#     Edge 98, Type (0, 1), BuildingBlock: CIFDUS_clean_linker_0, # of connection points: 2
#     Edge 99, Type (0, 1), BuildingBlock: CIFDUS_clean_linker_0, # of connection points: 2
#     Edge 100, Type (0, 1), BuildingBlock: CIFDUS_clean_linker_0, # of connection points: 2
#     Edge 101, Type (0, 1), BuildingBlock: CIFDUS_clean_linker_0, # of connection points: 2
#     Edge 102, Type (0, 1), BuildingBlock: CIFDUS_clean_linker_0, # of connection points: 2
#     Edge 103, Type (0, 1), BuildingBlock: CIFDUS_clean_linker_0, # of connection points: 2
#     Edge 104, Type (0, 1), BuildingBlock: CIFDUS_clean_linker_0, # of connection points: 2
#     Edge 105, Type (0, 1), BuildingBlock: CIFDUS_clean_linker_0, # of connection points: 2
#     Edge 106, Type (0, 1), BuildingBlock: CIFDUS_clean_linker_0, # of connection points: 2
#     Edge 107, Type (0, 1), BuildingBlock: CIFDUS_clean_linker_0, # of connection points: 2
#     Edge 108, Type (0, 1), BuildingBlock: CIFDUS_clean_linker_0, # of connection points: 2
#     Edge 109, Type (0, 1), BuildingBlock: CIFDUS_clean_linker_0, # of connection points: 2
#     Edge 110, Type (0, 1), BuildingBlock: CIFDUS_clean_linker_0, # of connection points: 2
#     Edge 111, Type (0, 1), BuildingBlock: CIFDUS_clean_linker_0, # of connection points: 2
#     Edge 112, Type (0, 1), BuildingBlock: CIFDUS_clean_linker_0, # of connection points: 2
#     Edge 113, Type (0, 1), BuildingBlock: CIFDUS_clean_linker_0, # of connection points: 2
#     Edge 114, Type (0, 1), BuildingBlock: CIFDUS_clean_linker_0, # of connection points: 2
#     Edge 115, Type (0, 1), BuildingBlock: CIFDUS_clean_linker_0, # of connection points: 2
#     Edge 116, Type (0, 1), BuildingBlock: CIFDUS_clean_linker_0, # of connection points: 2
#     Edge 117, Type (0, 1), BuildingBlock: CIFDUS_clean_linker_0, # of connection points: 2
#     Edge 118, Type (0, 1), BuildingBlock: CIFDUS_clean_linker_0, # of connection points: 2
#     Edge 119, Type (0, 1), BuildingBlock: CIFDUS_clean_linker_0, # of connection points: 2
#     Edge 120, Type (0, 1), BuildingBlock: CIFDUS_clean_linker_0, # of connection points: 2
#     Edge 121, Type (0, 1), BuildingBlock: CIFDUS_clean_linker_0, # of connection points: 2
#     Edge 122, Type (0, 1), BuildingBlock: CIFDUS_clean_linker_0, # of connection points: 2
#     Edge 123, Type (0, 1), BuildingBlock: CIFDUS_clean_linker_0, # of connection points: 2
#     Edge 124, Type (0, 1), BuildingBlock: CIFDUS_clean_linker_0, # of connection points: 2
#     Edge 125, Type (0, 1), BuildingBlock: CIFDUS_clean_linker_0, # of connection points: 2
#     Edge 126, Type (0, 1), BuildingBlock: CIFDUS_clean_linker_0, # of connection points: 2
#     Edge 127, Type (0, 1), BuildingBlock: CIFDUS_clean_linker_0, # of connection points: 2
#     Edge 128, Type (0, 1), BuildingBlock: CIFDUS_clean_linker_0, # of connection points: 2
#     Edge 129, Type (0, 1), BuildingBlock: CIFDUS_clean_linker_0, # of connection points: 2
#     Edge 130, Type (0, 1), BuildingBlock: CIFDUS_clean_linker_0, # of connection points: 2
#     Edge 131, Type (0, 1), BuildingBlock: CIFDUS_clean_linker_0, # of connection points: 2
#     Edge 132, Type (0, 1), BuildingBlock: CIFDUS_clean_linker_0, # of connection points: 2
#     Edge 133, Type (0, 1), BuildingBlock: CIFDUS_clean_linker_0, # of connection points: 2
#     Edge 134, Type (0, 1), BuildingBlock: CIFDUS_clean_linker_0, # of connection points: 2
#     Edge 135, Type (0, 1), BuildingBlock: CIFDUS_clean_linker_0, # of connection points: 2
# Relax obj value: 0.131
# Max RMSD: 0.271
# Mean RMSD: 0.181
data_MOF--net-gar--node1-UXUYUI_clean_sbu_0--node2-MIFKUJ_clean_sbu_0--edge1-CIFDUS_clean_linker_0
_symmetry_space_group_name_H-M    P1
_symmetry_Int_Tables_number       1
_symmetry_cell_setting            triclinic
loop_
_symmetry_equiv_pos_as_xyz
'x, y, z'
_cell_length_a     62.308106
_cell_length_b     62.305322
_cell_length_c     60.262765
_cell_angle_alpha  94.513167
_cell_angle_beta   94.496991
_cell_angle_gamma 98.771302
loop_
_atom_site_label
_atom_site_type_symbol
_atom_site_fract_x
_atom_site_fract_y
_atom_site_fract_z
_atom_type_partial_charge
Li0 Li 0.00209 0.26657 0.38396 0.0
Li1 Li 0.02388 0.2888 0.41474 0.0
Li2 Li 0.03993 0.26529 0.38787 0.0
Li3 Li 0.01801 0.24888 0.41522 0.0
C4 C 0.01765 0.30124 0.36511 0.0
N5 N 0.99903 0.32078 0.33045 0.0
C6 C 0.01031 0.32114 0.3693 0.0
C7 C 0.01588 0.29149 0.34321 0.0
C8 C 1.00085 0.33072 0.35158 0.0
C9 C 0.00631 0.30155 0.32594 0.0
C10 C 0.98902 0.27066 0.43675 0.0
C11 C 0.99619 0.27414 0.47689 0.0
N12 N 0.9746 0.27418 0.47888 0.0
C13 C 0.96692 0.27076 0.43918 0.0
C14 C 0.00381 0.27239 0.45574 0.0
C15 C 0.95995 0.27255 0.46063 0.0
C16 C 0.96946 0.25163 0.34715 0.0
N17 N 0.97609 0.26646 0.36509 0.0
C18 C 0.94377 0.28237 0.35961 0.0
C19 C 0.96383 0.28177 0.37132 0.0
C20 C 0.93613 0.26695 0.34135 0.0
C21 C 0.94942 0.25165 0.33489 0.0
H22 H 0.97945 0.23951 0.34269 0.0
H23 H 0.96953 0.29331 0.38568 0.0
C24 C 0.04175 0.32743 0.44591 0.0
N25 N 0.02458 0.31601 0.43237 0.0
C26 C 0.04016 0.34791 0.45653 0.0
C27 C 0.00302 0.34386 0.43998 0.0
C28 C 0.00533 0.32363 0.42975 0.0
C29 C 0.02071 0.35656 0.45316 0.0
H30 H 0.05679 0.32097 0.44825 0.0
H31 H 0.99184 0.31415 0.41915 0.0
C32 C 0.02502 0.22522 0.37016 0.0
N33 N 0.04495 0.19608 0.34525 0.0
C34 C 0.03405 0.20886 0.38039 0.0
C35 C 0.02585 0.22653 0.34719 0.0
C36 C 0.04411 0.19434 0.36753 0.0
C37 C 0.03608 0.21172 0.3349 0.0
C38 C 0.06583 0.28128 0.42812 0.0
C39 C 0.07484 0.29758 0.41534 0.0
C40 C 0.07749 0.27722 0.44769 0.0
C41 C 0.09541 0.30953 0.42238 0.0
C42 C 0.098 0.28957 0.4542 0.0
N43 N 0.10646 0.30532 0.44151 0.0
C44 C 0.07185 0.273 0.35588 0.0
C45 C 0.07823 0.24826 0.38266 0.0
C46 C 0.09171 0.27097 0.34718 0.0
N47 N 0.06566 0.26184 0.37344 0.0
C48 C 0.09806 0.24567 0.37445 0.0
C49 C 0.10529 0.25744 0.35677 0.0
H50 H 0.06174 0.28397 0.34908 0.0
H51 H 0.07301 0.23977 0.39677 0.0
C52 C 0.9934 0.21483 0.43519 0.0
N53 N 0.01388 0.22545 0.43361 0.0
C54 C 0.99023 0.19644 0.44712 0.0
C55 C 0.02926 0.20051 0.45584 0.0
C56 C 0.03165 0.21893 0.44391 0.0
C57 C 0.00834 0.18875 0.4573 0.0
H58 H 0.97957 0.22042 0.4268 0.0
H59 H 0.04775 0.22759 0.44215 0.0
O60 O 0.02652 0.29135 0.38232 0.0
O61 O 0.99603 0.26901 0.41583 0.0
O62 O 0.01545 0.23986 0.38258 0.0
O63 O 0.04592 0.26898 0.42141 0.0
H64 H 0.01191 0.32918 0.38602 0.0
H65 H 0.02164 0.27622 0.33962 0.0
H66 H 0.99499 0.34606 0.35462 0.0
H67 H 0.00466 0.29405 0.30895 0.0
H68 H 0.00744 0.27548 0.49173 0.0
H69 H 0.9553 0.2695 0.42462 0.0
H70 H 0.02099 0.27241 0.45421 0.0
H71 H 0.94288 0.27265 0.46276 0.0
H72 H 0.93418 0.2946 0.365 0.0
H73 H 0.94404 0.23932 0.32108 0.0
H74 H 0.05418 0.35716 0.46661 0.0
H75 H 0.98757 0.34965 0.43731 0.0
H76 H 0.03348 0.20749 0.39809 0.0
H77 H 0.01876 0.23888 0.33891 0.0
H78 H 0.0513 0.18171 0.37527 0.0
H79 H 0.03697 0.21266 0.31714 0.0
H80 H 0.0661 0.30105 0.40018 0.0
H81 H 0.07076 0.26465 0.45776 0.0
H82 H 0.10258 0.32218 0.41265 0.0
H83 H 0.10719 0.28661 0.46933 0.0
H84 H 0.09678 0.28059 0.33375 0.0
H85 H 0.10785 0.23487 0.38221 0.0
H86 H 0.97379 0.18815 0.44806 0.0
H87 H 0.04373 0.19506 0.46305 0.0
Li88 Li 0.00723 0.77144 0.63026 0.0
Li89 Li 0.02658 0.75349 0.65827 0.0
Li90 Li 0.00282 0.73298 0.62661 0.0
Li91 Li 0.98682 0.7509 0.65734 0.0
C92 C 0.04161 0.76297 0.60977 0.0
N93 N 0.06386 0.78342 0.57731 0.0
C94 C 0.06351 0.77239 0.61437 0.0
C95 C 0.03124 0.76349 0.58844 0.0
C96 C 0.07443 0.78276 0.5978 0.0
C97 C 0.04268 0.77404 0.57232 0.0
C98 C 0.01194 0.78455 0.68566 0.0
C99 C 0.01328 0.77694 0.72432 0.0
N100 N 0.01641 0.79871 0.73063 0.0
C101 C 0.01522 0.80684 0.69251 0.0
C102 C 0.011 0.76944 0.70167 0.0
C103 C 0.01742 0.81368 0.71533 0.0
C104 C 0.99347 0.79843 0.59813 0.0
N105 N 0.00921 0.79695 0.61461 0.0
C106 C 0.02867 0.83171 0.60821 0.0
C107 C 0.0266 0.81308 0.61984 0.0
C108 C 0.01261 0.83378 0.59112 0.0
C109 C 0.99487 0.81676 0.58609 0.0
H110 H 0.97985 0.78534 0.5943 0.0
H111 H 0.03888 0.81141 0.63304 0.0
C112 C 0.05687 0.74081 0.69187 0.0
N113 N 0.05294 0.75596 0.67761 0.0
C114 C 0.07742 0.74226 0.70354 0.0
C115 C 0.0889 0.7757 0.68696 0.0
C116 C 0.06812 0.7737 0.6758 0.0
C117 C 0.09393 0.75951 0.70055 0.0
H118 H 0.04429 0.72733 0.69389 0.0
H119 H 0.06421 0.78604 0.66519 0.0
C120 C 0.96337 0.73781 0.61066 0.0
N121 N 0.93198 0.71012 0.58262 0.0
C122 C 0.94591 0.72548 0.61945 0.0
C123 C 0.96465 0.73627 0.58754 0.0
C124 C 0.93025 0.71153 0.60503 0.0
C125 C 0.9487 0.7221 0.57367 0.0
C126 C 0.01293 0.70823 0.66111 0.0
C127 C 0.0317 0.70514 0.65077 0.0
C128 C 0.00295 0.69195 0.67332 0.0
C129 C 0.04014 0.6858 0.65282 0.0
C130 C 0.01193 0.67286 0.67502 0.0
N131 N 0.03017 0.67019 0.6648 0.0
C132 C 0.01698 0.70529 0.59367 0.0
C133 C 0.98441 0.68976 0.60809 0.0
C134 C 0.01834 0.6855 0.58181 0.0
N135 N 1.0004 0.707 0.60675 0.0
C136 C 0.98497 0.66966 0.59621 0.0
C137 C 0.00245 0.6673 0.58338 0.0
H138 H 0.02988 0.7189 0.59339 0.0
H139 H 0.97185 0.69128 0.61924 0.0
C140 C 0.95637 0.76914 0.68268 0.0
N141 N 0.96343 0.75024 0.67612 0.0
C142 C 0.93964 0.76906 0.69687 0.0
C143 C 0.93755 0.73002 0.69696 0.0
C144 C 0.95447 0.73091 0.68301 0.0
C145 C 0.9299 0.74928 0.70419 0.0
H146 H 0.96385 0.78432 0.67702 0.0
H147 H 0.96027 0.71611 0.67737 0.0
O148 O 0.03046 0.75303 0.62591 0.0
O149 O 0.00977 0.77768 0.66335 0.0
O150 O 0.97899 0.75141 0.62459 0.0
O151 O 0.00392 0.72674 0.65875 0.0
H152 H 0.07212 0.77151 0.63043 0.0
H153 H 0.01446 0.75598 0.58446 0.0
H154 H 0.09135 0.7902 0.60121 0.0
H155 H 0.03472 0.77477 0.55585 0.0
H156 H 0.01255 0.76543 0.73689 0.0
H157 H 0.01602 0.81873 0.6803 0.0
H158 H 0.00851 0.75212 0.6967 0.0
H159 H 0.01994 0.83089 0.72088 0.0
H160 H 0.04246 0.84454 0.61285 0.0
H161 H 0.98225 0.81755 0.5729 0.0
H162 H 0.08059 0.72958 0.71408 0.0
H163 H 0.10103 0.78959 0.68471 0.0
H164 H 0.94447 0.72654 0.63721 0.0
H165 H 0.97778 0.74586 0.58032 0.0
H166 H 0.91673 0.70182 0.61165 0.0
H167 H 0.9496 0.72067 0.55577 0.0
H168 H 0.03969 0.7175 0.64125 0.0
H169 H 0.98841 0.694 0.6814 0.0
H170 H 0.05462 0.68319 0.64486 0.0
H171 H 0.00437 0.66013 0.68442 0.0
H172 H 0.03214 0.6842 0.57219 0.0
H173 H 0.97265 0.65582 0.5981 0.0
H174 H 0.93457 0.78436 0.70218 0.0
H175 H 0.93031 0.71431 0.7017 0.0
Li176 Li 0.50627 0.76681 0.88663 0.0
Li177 Li 0.52941 0.78538 0.91924 0.0
Li178 Li 0.54413 0.76309 0.89037 0.0
Li179 Li 0.52004 0.74617 0.91638 0.0
C180 C 0.52429 0.80369 0.87299 0.0
N181 N 0.50682 0.83006 0.84402 0.0
C182 C 0.51766 0.82297 0.8813 0.0
C183 C 0.52218 0.79789 0.84995 0.0
C184 C 0.50885 0.83607 0.86638 0.0
C185 C 0.51325 0.81141 0.83558 0.0
C186 C 0.48433 0.75837 0.93029 0.0
C187 C 0.47233 0.74613 0.96494 0.0
N188 N 0.45263 0.73726 0.95409 0.0
C189 C 0.46395 0.74915 0.91949 0.0
C190 C 0.48855 0.75691 0.95321 0.0
C191 C 0.44814 0.73855 0.93183 0.0
C192 C 0.47352 0.75457 0.84983 0.0
N193 N 0.48113 0.76934 0.86757 0.0
C194 C 0.45008 0.78724 0.86238 0.0
C195 C 0.47001 0.78562 0.87382 0.0
C196 C 0.44131 0.77176 0.84451 0.0
C197 C 0.45353 0.75552 0.83793 0.0
H198 H 0.48253 0.74157 0.84547 0.0
H199 H 0.4763 0.79692 0.88823 0.0
C200 C 0.55146 0.82724 0.93838 0.0
N201 N 0.53391 0.81144 0.93903 0.0
C202 C 0.55308 0.84719 0.95131 0.0
C203 C 0.51873 0.83402 0.96547 0.0
C204 C 0.51782 0.8144 0.95238 0.0
C205 C 0.53629 0.8509 0.9647 0.0
H206 H 0.56379 0.82465 0.92722 0.0
H207 H 0.50385 0.80183 0.95229 0.0
C208 C 0.52671 0.72508 0.86978 0.0
N209 N 0.54539 0.69682 0.8425 0.0
C210 C 0.53413 0.70703 0.87829 0.0
C211 C 0.52862 0.72868 0.84737 0.0
C212 C 0.54355 0.69294 0.86422 0.0
C213 C 0.53818 0.71423 0.83386 0.0
C214 C 0.56443 0.77491 0.93916 0.0
C215 C 0.58406 0.78566 0.93283 0.0
C216 C 0.56018 0.77658 0.96161 0.0
C217 C 0.59912 0.79799 0.94912 0.0
C218 C 0.57564 0.78911 0.97738 0.0
N219 N 0.59462 0.79947 0.97087 0.0
C220 C 0.57624 0.77121 0.8589 0.0
C221 C 0.58118 0.74428 0.88366 0.0
C222 C 0.59579 0.76871 0.84977 0.0
N223 N 0.56951 0.75921 0.87569 0.0
C224 C 0.60071 0.74121 0.87502 0.0
C225 C 0.60851 0.75381 0.85813 0.0
H226 H 0.56677 0.78313 0.85301 0.0
H227 H 0.57548 0.73506 0.89712 0.0
C228 C 0.49494 0.70718 0.92705 0.0
N229 N 0.51392 0.72119 0.93246 0.0
C230 C 0.49038 0.68848 0.93827 0.0
C231 C 0.52529 0.69862 0.95994 0.0
C232 C 0.529 0.71731 0.94855 0.0
C233 C 0.50577 0.68381 0.95482 0.0
H234 H 0.48341 0.71046 0.91388 0.0
H235 H 0.54416 0.72849 0.9522 0.0
O236 O 0.53262 0.79045 0.88734 0.0
O237 O 0.50013 0.76862 0.91847 0.0
O238 O 0.51788 0.73932 0.8834 0.0
O239 O 0.54931 0.76306 0.92343 0.0
H240 H 0.5191 0.82767 0.89908 0.0
H241 H 0.52712 0.78296 0.84326 0.0
H242 H 0.50355 0.85099 0.87257 0.0
H243 H 0.51137 0.80705 0.81772 0.0
H244 H 0.47542 0.74478 0.98264 0.0
H245 H 0.46041 0.74995 0.90176 0.0
H246 H 0.50429 0.76379 0.9618 0.0
H247 H 0.43233 0.73128 0.92368 0.0
H248 H 0.44135 0.80016 0.86787 0.0
H249 H 0.44726 0.74307 0.82446 0.0
H250 H 0.56675 0.8599 0.95002 0.0
H251 H 0.50553 0.83617 0.97568 0.0
H252 H 0.53283 0.70405 0.89561 0.0
H253 H 0.52302 0.74261 0.84056 0.0
H254 H 0.54947 0.67897 0.8706 0.0
H255 H 0.53991 0.71689 0.81652 0.0
H256 H 0.58755 0.78468 0.91551 0.0
H257 H 0.54501 0.76845 0.96675 0.0
H258 H 0.61435 0.80647 0.94446 0.0
H259 H 0.57252 0.79064 0.9948 0.0
H260 H 0.60133 0.77896 0.83698 0.0
H261 H 0.60984 0.72938 0.88181 0.0
H262 H 0.475 0.67776 0.93387 0.0
H263 H 0.5379 0.69554 0.97214 0.0
Li264 Li 0.51325 0.27426 0.11056 0.0
Li265 Li 0.52866 0.25575 0.14 0.0
Li266 Li 0.50483 0.23432 0.11047 0.0
Li267 Li 0.49016 0.25802 0.13984 0.0
C268 C 0.54256 0.25565 0.08868 0.0
N269 N 0.56165 0.2624 0.04943 0.0
C270 C 0.56477 0.26393 0.08931 0.0
C271 C 0.53007 0.25076 0.06811 0.0
C272 C 0.57411 0.26724 0.06927 0.0
C273 C 0.54002 0.25429 0.04845 0.0
C274 C 0.52551 0.29545 0.16124 0.0
C275 C 0.52772 0.30918 0.20003 0.0
N276 N 0.547 0.32196 0.19764 0.0
C277 C 0.54525 0.30882 0.15911 0.0
C278 C 0.51658 0.29568 0.18181 0.0
C279 C 0.55591 0.32206 0.17775 0.0
C280 C 0.50064 0.30462 0.08146 0.0
N281 N 0.51786 0.29824 0.09296 0.0
C282 C 0.54234 0.32768 0.08128 0.0
C283 C 0.53842 0.30928 0.09304 0.0
C284 C 0.52485 0.33501 0.06959 0.0
C285 C 0.50378 0.32305 0.06957 0.0
H286 H 0.4844 0.29571 0.08198 0.0
H287 H 0.55178 0.30401 0.10255 0.0
C288 C 0.56912 0.24338 0.14549 0.0
N289 N 0.55583 0.25452 0.1571 0.0
C290 C 0.5904 0.24292 0.15415 0.0
C291 C 0.58367 0.26406 0.1875 0.0
C292 C 0.56237 0.26405 0.17815 0.0
C293 C 0.59819 0.25399 0.17509 0.0
H294 H 0.56334 0.23524 0.12914 0.0
H295 H 0.55135 0.27209 0.18753 0.0
C296 C 0.46594 0.24588 0.09295 0.0
N297 N 0.42902 0.22628 0.06618 0.0
C298 C 0.44828 0.23466 0.10245 0.0
C299 C 0.46475 0.2473 0.06987 0.0
C300 C 0.42977 0.22484 0.08863 0.0
C301 C 0.44597 0.23721 0.05661 0.0
C302 C 0.51423 0.22179 0.15931 0.0
C303 C 0.52471 0.20416 0.15344 0.0
C304 C 0.51506 0.22978 0.18174 0.0
C305 C 0.53598 0.19484 0.17017 0.0
C306 C 0.52648 0.22 0.19798 0.0
N307 N 0.53663 0.20289 0.1919 0.0
C308 C 0.51975 0.20068 0.08636 0.0
C309 C 0.48151 0.19349 0.08798 0.0
C310 C 0.51945 0.18043 0.0747 0.0
N311 N 0.50099 0.20692 0.09266 0.0
C312 C 0.48046 0.1729 0.07642 0.0
C313 C 0.49969 0.16603 0.06988 0.0
H314 H 0.53516 0.21121 0.09091 0.0
H315 H 0.46689 0.19836 0.09381 0.0
C316 C 0.45447 0.27811 0.14822 0.0
N317 N 0.46548 0.2623 0.15526 0.0
C318 C 0.43501 0.28127 0.15701 0.0
C319 C 0.43897 0.25236 0.1808 0.0
C320 C 0.4583 0.24959 0.17136 0.0
C321 C 0.42688 0.26811 0.17331 0.0
H322 H 0.46057 0.28786 0.1353 0.0
H323 H 0.46721 0.23693 0.1764 0.0
O324 O 0.53304 0.25266 0.10815 0.0
O325 O 0.5147 0.28257 0.14317 0.0
O326 O 0.4841 0.25585 0.10622 0.0
O327 O 0.50365 0.23151 0.14312 0.0
H328 H 0.57464 0.26796 0.10511 0.0
H329 H 0.5129 0.24429 0.06736 0.0
H330 H 0.59126 0.27372 0.0695 0.0
H331 H 0.53054 0.2506 0.03241 0.0
H332 H 0.52106 0.30948 0.21608 0.0
H333 H 0.55236 0.30884 0.1433 0.0
H334 H 0.50126 0.2855 0.1837 0.0
H335 H 0.57127 0.3324 0.17639 0.0
H336 H 0.55887 0.3362 0.08158 0.0
H337 H 0.48975 0.3283 0.06115 0.0
H338 H 0.60086 0.23446 0.14427 0.0
H339 H 0.58899 0.27268 0.20378 0.0
H340 H 0.44893 0.23328 0.12025 0.0
H341 H 0.47813 0.25617 0.06226 0.0
H342 H 0.41603 0.21601 0.09574 0.0
H343 H 0.44485 0.23812 0.03871 0.0
H344 H 0.5243 0.19786 0.13613 0.0
H345 H 0.50727 0.24361 0.18652 0.0
H346 H 0.54425 0.18124 0.16587 0.0
H347 H 0.52738 0.2261 0.21539 0.0
H348 H 0.53466 0.17598 0.06983 0.0
H349 H 0.46492 0.16218 0.07343 0.0
H350 H 0.42622 0.29365 0.15087 0.0
H351 H 0.43309 0.2417 0.19312 0.0
Li352 Li 0.02602 0.79664 0.13185 0.0
Li353 Li 0.04623 0.78168 0.16066 0.0
Li354 Li 0.02365 0.75754 0.13286 0.0
Li355 Li 0.00754 0.77842 0.16175 0.0
C356 C 0.05291 0.77743 0.10585 0.0
N357 N 0.05997 0.77474 0.06105 0.0
C358 C 0.07415 0.78078 0.0994 0.0
C359 C 0.03526 0.77283 0.08946 0.0
C360 C 0.07738 0.77932 0.07668 0.0
C361 C 0.03917 0.7715 0.06692 0.0
C362 C 0.04296 0.82098 0.17793 0.0
C363 C 0.05324 0.8424 0.21331 0.0
N364 N 0.07217 0.85132 0.20549 0.0
C365 C 0.06243 0.83046 0.17019 0.0
C366 C 0.03823 0.82705 0.19961 0.0
C367 C 0.07703 0.84572 0.18441 0.0
C368 C 0.00577 0.82565 0.10686 0.0
N369 N 0.02531 0.81984 0.11335 0.0
C370 C 0.04424 0.84906 0.0956 0.0
C371 C 0.04434 0.83089 0.10771 0.0
C372 C 0.02435 0.85586 0.08921 0.0
C373 C 0.00489 0.84366 0.09457 0.0
H374 H 0.99093 0.81664 0.11175 0.0
H375 H 0.05965 0.82587 0.11303 0.0
C376 C 0.08868 0.77493 0.16559 0.0
N377 N 0.0737 0.78285 0.17774 0.0
C378 C 0.10851 0.77164 0.1759 0.0
C379 C 0.09753 0.78501 0.2113 0.0
C380 C 0.07785 0.7883 0.20017 0.0
C381 C 0.11293 0.77604 0.19916 0.0
H382 H 0.0849 0.77031 0.14793 0.0
H383 H 0.06563 0.79436 0.20959 0.0
C384 C 0.97935 0.76062 0.12451 0.0
N385 N 0.9396 0.73342 0.11667 0.0
C386 C 0.97614 0.74068 0.13386 0.0
C387 C 0.96235 0.76669 0.11111 0.0
C388 C 0.95593 0.72716 0.12972 0.0
C389 C 0.94237 0.75272 0.10736 0.0
C390 C 0.02927 0.74979 0.18671 0.0
C391 C 0.03585 0.72976 0.19017 0.0
C392 C 0.02655 0.76393 0.20508 0.0
C393 C 0.03968 0.72424 0.212 0.0
C394 C 0.03053 0.75784 0.22665 0.0
N395 N 0.03697 0.73828 0.22964 0.0
C396 C 0.0388 0.7193 0.12598 0.0
C397 C 0.00883 0.72062 0.09958 0.0
C398 C 0.03962 0.69785 0.11822 0.0
N399 N 0.02321 0.72995 0.11709 0.0
C400 C 0.00916 0.6991 0.09112 0.0
C401 C 0.02434 0.68733 0.10095 0.0
H402 H 0.05027 0.72739 0.13958 0.0
H403 H 0.99675 0.72959 0.09264 0.0
C404 C 0.97633 0.79832 0.18257 0.0
N405 N 0.98325 0.77882 0.17894 0.0
C406 C 0.95719 0.79961 0.19278 0.0
C407 C 0.95289 0.76076 0.19583 0.0
C408 C 0.9723 0.76028 0.18579 0.0
C409 C 0.94482 0.78056 0.19901 0.0
H410 H 0.98541 0.81279 0.17695 0.0
H411 H 0.97823 0.74498 0.18277 0.0
O412 O 0.04962 0.77905 0.1281 0.0
O413 O 0.02856 0.80588 0.16433 0.0
O414 O 0.99894 0.77426 0.12839 0.0
O415 O 0.0256 0.75549 0.16543 0.0
H416 H 0.08803 0.7846 0.1118 0.0
H417 H 0.0187 0.77036 0.09395 0.0
H418 H 0.09373 0.78188 0.07148 0.0
H419 H 0.02565 0.76792 0.05409 0.0
H420 H 0.04984 0.84721 0.23015 0.0
H421 H 0.06638 0.82581 0.15351 0.0
H422 H 0.02315 0.81997 0.20581 0.0
H423 H 0.09224 0.85307 0.1787 0.0
H424 H 0.05958 0.85795 0.09162 0.0
H425 H 0.98927 0.84854 0.09016 0.0
H426 H 0.12005 0.76515 0.16576 0.0
H427 H 0.10021 0.78854 0.22927 0.0
H428 H 0.98908 0.73561 0.1442 0.0
H429 H 0.96455 0.78204 0.10368 0.0
H430 H 0.95324 0.7117 0.13688 0.0
H431 H 0.92907 0.75723 0.09705 0.0
H432 H 0.03794 0.71854 0.17616 0.0
H433 H 0.0217 0.77958 0.20276 0.0
H434 H 0.0448 0.7088 0.21492 0.0
H435 H 0.02858 0.76869 0.24101 0.0
H436 H 0.05175 0.68938 0.12599 0.0
H437 H 0.9971 0.69146 0.07779 0.0
H438 H 0.9519 0.81531 0.19532 0.0
H439 H 0.94387 0.74563 0.20015 0.0
Li440 Li 0.50886 0.76964 0.40293 0.0
Li441 Li 0.48534 0.74384 0.37672 0.0
Li442 Li 0.50874 0.7319 0.40681 0.0
Li443 Li 0.52478 0.74729 0.37512 0.0
C444 C 0.47652 0.75995 0.42659 0.0
N445 N 0.46281 0.78555 0.46057 0.0
C446 C 0.45905 0.77114 0.4223 0.0
C447 C 0.4868 0.76155 0.44824 0.0
C448 C 0.45242 0.78406 0.43968 0.0
C449 C 0.47969 0.77462 0.46518 0.0
C450 C 0.50375 0.77198 0.34752 0.0
C451 C 0.49832 0.75673 0.30907 0.0
N452 N 0.49984 0.7772 0.30235 0.0
C453 C 0.50526 0.79285 0.34024 0.0
C454 C 0.50025 0.75374 0.33182 0.0
C455 C 0.50324 0.79516 0.31733 0.0
C456 C 0.52281 0.80605 0.43613 0.0
N457 N 0.5104 0.79835 0.41675 0.0
C458 C 0.49869 0.83278 0.41351 0.0
C459 C 0.49827 0.81111 0.40558 0.0
C460 C 0.5117 0.8414 0.4332 0.0
C461 C 0.5236 0.82769 0.4448 0.0
H462 H 0.5323 0.79554 0.44466 0.0
H463 H 0.48842 0.80445 0.39032 0.0
C464 C 0.44587 0.72295 0.34833 0.0
N465 N 0.45777 0.74131 0.35954 0.0
C466 C 0.4251 0.72361 0.33786 0.0
C467 C 0.42987 0.76212 0.34974 0.0
C468 C 0.45042 0.76075 0.35979 0.0
C469 C 0.4167 0.74331 0.33906 0.0
H470 H 0.45219 0.70774 0.34777 0.0
H471 H 0.46045 0.77519 0.3683 0.0
C472 C 0.55071 0.74898 0.42087 0.0
N473 N 0.58291 0.73596 0.44853 0.0
C474 C 0.56761 0.73988 0.41175 0.0
C475 C 0.55041 0.75174 0.44409 0.0
C476 C 0.58369 0.73334 0.42601 0.0
C477 C 0.56676 0.74496 0.45778 0.0
C478 C 0.49032 0.70003 0.37223 0.0
C479 C 0.47381 0.69567 0.38647 0.0
C480 C 0.49322 0.6839 0.35576 0.0
C481 C 0.46059 0.67525 0.38405 0.0
C482 C 0.47963 0.6637 0.35383 0.0
N483 N 0.46374 0.65982 0.36791 0.0
C484 C 0.49715 0.70468 0.4419 0.0
C485 C 0.5279 0.69781 0.42342 0.0
C486 C 0.49873 0.68707 0.45466 0.0
N487 N 0.51159 0.70961 0.42656 0.0
C488 C 0.53043 0.68049 0.43617 0.0
C489 C 0.51541 0.67448 0.45172 0.0
H490 H 0.48389 0.71385 0.44362 0.0
H491 H 0.5387 0.70154 0.4106 0.0
C492 C 0.56226 0.7652 0.35533 0.0
N493 N 0.5476 0.7468 0.35614 0.0
C494 C 0.58064 0.76449 0.34357 0.0
C495 C 0.5679 0.72615 0.33297 0.0
C496 C 0.54984 0.72759 0.34498 0.0
C497 C 0.58389 0.74463 0.33261 0.0
H498 H 0.56008 0.78021 0.36455 0.0
H499 H 0.53798 0.71324 0.34604 0.0
O500 O 0.48374 0.74775 0.40965 0.0
O501 O 0.50567 0.76956 0.36992 0.0
O502 O 0.53477 0.75544 0.40717 0.0
O503 O 0.50374 0.7198 0.37439 0.0
H504 H 0.4507 0.76995 0.40576 0.0
H505 H 0.50022 0.75291 0.45192 0.0
H506 H 0.439 0.79291 0.43654 0.0
H507 H 0.48762 0.77611 0.48198 0.0
H508 H 0.4956 0.74277 0.29675 0.0
H509 H 0.50798 0.80713 0.35218 0.0
H510 H 0.49899 0.73745 0.33709 0.0
H511 H 0.50438 0.81122 0.31145 0.0
H512 H 0.48911 0.84278 0.40422 0.0
H513 H 0.53396 0.83382 0.45994 0.0
H514 H 0.41543 0.70877 0.32966 0.0
H515 H 0.42416 0.77772 0.35064 0.0
H516 H 0.56825 0.73765 0.39388 0.0
H517 H 0.53766 0.75895 0.4515 0.0
H518 H 0.59676 0.72614 0.41915 0.0
H519 H 0.56661 0.74688 0.47576 0.0
H520 H 0.47106 0.70787 0.3992 0.0
H521 H 0.50581 0.68694 0.34451 0.0
H522 H 0.44778 0.67169 0.39497 0.0
H523 H 0.48171 0.6511 0.34115 0.0
H524 H 0.48642 0.68286 0.466 0.0
H525 H 0.54377 0.67162 0.43342 0.0
H526 H 0.59266 0.77906 0.34397 0.0
H527 H 0.5696 0.71058 0.32454 0.0
Li528 Li 0.52494 0.2836 0.64422 0.0
Li529 Li 0.54422 0.2679 0.67453 0.0
Li530 Li 0.52484 0.24378 0.64279 0.0
Li531 Li 0.5057 0.26098 0.67044 0.0
C532 C 0.56713 0.26033 0.63359 0.0
N533 N 0.60178 0.24482 0.6154 0.0
C534 C 0.57899 0.24685 0.64532 0.0
C535 C 0.57299 0.26605 0.61266 0.0
C536 C 0.59642 0.23913 0.63583 0.0
C537 C 0.59053 0.258 0.60373 0.0
C538 C 0.53573 0.30469 0.69304 0.0
C539 C 0.55097 0.3147 0.73117 0.0
N540 N 0.56024 0.3344 0.72529 0.0
C541 C 0.54528 0.32509 0.68741 0.0
C542 C 0.53846 0.2995 0.71514 0.0
C543 C 0.55765 0.33986 0.70394 0.0
C544 C 0.50599 0.31584 0.62277 0.0
N545 N 0.52507 0.3086 0.62817 0.0
C546 C 0.54543 0.33967 0.61457 0.0
C547 C 0.54455 0.31979 0.62391 0.0
C548 C 0.52605 0.34794 0.60945 0.0
C549 C 0.50609 0.33554 0.61315 0.0
H550 H 0.49076 0.30663 0.62656 0.0
H551 H 0.55944 0.31366 0.62857 0.0
C552 C 0.57327 0.25773 0.70895 0.0
N553 N 0.57021 0.2726 0.69418 0.0
C554 C 0.59311 0.25947 0.72189 0.0
C555 C 0.60608 0.29217 0.70463 0.0
C556 C 0.586 0.28972 0.69191 0.0
C557 C 0.60996 0.27663 0.7195 0.0
H558 H 0.56061 0.24404 0.71006 0.0
H559 H 0.58321 0.30107 0.6797 0.0
C560 C 0.4928 0.2577 0.61482 0.0
N561 N 0.47914 0.25516 0.5698 0.0
C562 C 0.47083 0.25083 0.60738 0.0
C563 C 0.5078 0.26338 0.59936 0.0
C564 C 0.46425 0.2496 0.58455 0.0
C565 C 0.50058 0.26199 0.57668 0.0
C566 C 0.51276 0.22567 0.6867 0.0
C567 C 0.4987 0.20783 0.67543 0.0
C568 C 0.5129 0.22965 0.70987 0.0
C569 C 0.48504 0.19424 0.68757 0.0
C570 C 0.49896 0.2157 0.7214 0.0
N571 N 0.48544 0.19843 0.7101 0.0
C572 C 0.53846 0.20382 0.63637 0.0
C573 C 0.51421 0.20927 0.60582 0.0
C574 C 0.53868 0.18244 0.62774 0.0
N575 N 0.5261 0.2167 0.62561 0.0
C576 C 0.51401 0.18794 0.59652 0.0
C577 C 0.52591 0.17407 0.60785 0.0
H578 H 0.54736 0.2098 0.65232 0.0
H579 H 0.50405 0.21936 0.59765 0.0
C580 C 0.47854 0.26807 0.70544 0.0
N581 N 0.47981 0.25713 0.68528 0.0
C582 C 0.45892 0.26576 0.71541 0.0
C583 C 0.44247 0.24074 0.68379 0.0
C584 C 0.4624 0.24345 0.67452 0.0
C585 C 0.44048 0.25227 0.70431 0.0
H586 H 0.4926 0.27894 0.71356 0.0
H587 H 0.46396 0.23487 0.65856 0.0
O588 O 0.55 0.26812 0.64255 0.0
O589 O 0.52379 0.28989 0.67702 0.0
O590 O 0.49933 0.25938 0.63719 0.0
O591 O 0.52585 0.2395 0.67503 0.0
H592 H 0.57471 0.24222 0.6615 0.0
H593 H 0.56413 0.27664 0.60341 0.0
H594 H 0.60568 0.22861 0.6447 0.0
H595 H 0.59522 0.26227 0.58753 0.0
H596 H 0.55339 0.3108 0.74827 0.0
H597 H 0.5432 0.32949 0.67048 0.0
H598 H 0.53137 0.28373 0.71977 0.0
H599 H 0.56519 0.35568 0.69979 0.0
H600 H 0.56112 0.34872 0.61183 0.0
H601 H 0.49085 0.34148 0.60961 0.0
H602 H 0.59546 0.24719 0.73322 0.0
H603 H 0.61878 0.30543 0.70205 0.0
H604 H 0.45896 0.24653 0.61913 0.0
H605 H 0.52484 0.2687 0.60477 0.0
H606 H 0.44731 0.24427 0.57856 0.0
H607 H 0.51204 0.2663 0.56455 0.0
H608 H 0.49806 0.20467 0.65747 0.0
H609 H 0.52343 0.24355 0.71885 0.0
H610 H 0.47402 0.18043 0.67905 0.0
H611 H 0.49883 0.21867 0.73931 0.0
H612 H 0.54818 0.17233 0.63696 0.0
H613 H 0.50369 0.182 0.5813 0.0
H614 H 0.45795 0.27509 0.73113 0.0
H615 H 0.42865 0.23004 0.67482 0.0
Li616 Li 0.00512 0.2742 0.91478 0.0
Li617 Li 0.98564 0.25078 0.88298 0.0
Li618 Li 0.00594 0.23592 0.91339 0.0
Li619 Li 0.02494 0.25679 0.88652 0.0
C620 C 0.96708 0.25993 0.92854 0.0
N621 N 0.94189 0.28107 0.956 0.0
C622 C 0.94849 0.2673 0.91946 0.0
C623 C 0.97275 0.26313 0.9516 0.0
C624 C 0.93599 0.27799 0.93363 0.0
C625 C 0.95984 0.27392 0.96519 0.0
C626 C 0.01707 0.29273 0.8707 0.0
C627 C 0.03017 0.30277 0.83572 0.0
N628 N 0.04259 0.32096 0.84662 0.0
C629 C 0.02997 0.31152 0.88155 0.0
C630 C 0.01714 0.28832 0.84759 0.0
C631 C 0.04273 0.3256 0.86907 0.0
C632 C 0.0172 0.31033 0.94881 0.0
N633 N 0.00335 0.30104 0.9309 0.0
C634 C 0.98758 0.33341 0.92854 0.0
C635 C 0.98844 0.31192 0.92105 0.0
C636 C 0.0024 0.34392 0.9462 0.0
C637 C 0.0169 0.33196 0.95691 0.0
H638 H 0.02915 0.30137 0.95603 0.0
H639 H 0.97794 0.30419 0.90657 0.0
C640 C 0.94302 0.23225 0.86129 0.0
N641 N 0.96005 0.249 0.86298 0.0
C642 C 0.92355 0.23375 0.84865 0.0
C643 C 0.9397 0.26947 0.83974 0.0
C644 C 0.95875 0.26724 0.85232 0.0
C645 C 0.92165 0.25283 0.8382 0.0
H646 H 0.94423 0.21819 0.87046 0.0
H647 H 0.97215 0.2806 0.85438 0.0
C648 C 0.04442 0.25241 0.93473 0.0
N649 N 0.07047 0.23477 0.96529 0.0
C650 C 0.06208 0.24303 0.92786 0.0
C651 C 0.04014 0.25304 0.95717 0.0
C652 C 0.07504 0.23415 0.94357 0.0
C653 C 0.05345 0.24396 0.97235 0.0
C654 C 0.99251 0.21293 0.86616 0.0
C655 C 0.98192 0.19405 0.87417 0.0
C656 C 0.98928 0.21601 0.84348 0.0
C657 C 0.96828 0.17853 0.85931 0.0
C658 C 0.97548 0.20013 0.82917 0.0
N659 N 0.96536 0.18187 0.83732 0.0
C660 C 0.99428 0.20667 0.94657 0.0
C661 C 0.0228 0.19896 0.92493 0.0
C662 C 0.99568 0.18815 0.958 0.0
N663 N 0.00768 0.21157 0.93031 0.0
C664 C 0.02492 0.18049 0.93604 0.0
C665 C 0.01101 0.17462 0.95259 0.0
H666 H 0.98223 0.21685 0.95035 0.0
H667 H 0.0331 0.20315 0.91177 0.0
C668 C 0.06695 0.27631 0.87757 0.0
N669 N 0.04979 0.26054 0.87011 0.0
C670 C 0.08496 0.27992 0.86518 0.0
C671 C 0.06726 0.25092 0.83776 0.0
C672 C 0.04962 0.24787 0.85068 0.0
C673 C 0.08528 0.26707 0.84501 0.0
H674 H 0.06659 0.28611 0.89314 0.0
H675 H 0.03576 0.23547 0.84517 0.0
O676 O 0.97974 0.24976 0.91491 0.0
O677 O 0.00486 0.27842 0.88266 0.0
O678 O 0.03134 0.26085 0.91954 0.0
O679 O 0.00586 0.22837 0.88044 0.0
H680 H 0.94385 0.26499 0.90166 0.0
H681 H 0.98709 0.25755 0.95888 0.0
H682 H 0.92163 0.28389 0.92682 0.0
H683 H 0.96411 0.27663 0.98305 0.0
H684 H 0.03048 0.29948 0.81787 0.0
H685 H 0.03037 0.3151 0.89944 0.0
H686 H 0.00744 0.27371 0.83896 0.0
H687 H 0.05285 0.34016 0.87726 0.0
H688 H 0.97607 0.34205 0.91996 0.0
H689 H 0.02874 0.33963 0.97043 0.0
H690 H 0.90981 0.2207 0.84802 0.0
H691 H 0.93883 0.28441 0.83188 0.0
H692 H 0.06558 0.24236 0.91054 0.0
H693 H 0.02658 0.26032 0.96275 0.0
H694 H 0.08867 0.22671 0.93847 0.0
H695 H 0.05025 0.2442 0.98975 0.0
H696 H 0.98409 0.19142 0.89166 0.0
H697 H 0.99706 0.23068 0.83705 0.0
H698 H 0.95997 0.16386 0.86528 0.0
H699 H 0.97274 0.20237 0.81162 0.0
H700 H 0.98438 0.18411 0.97037 0.0
H701 H 0.03718 0.17079 0.9315 0.0
H702 H 0.09866 0.29232 0.87155 0.0
H703 H 0.06675 0.24077 0.82223 0.0
Li704 Li 0.40661 0.0203 0.29646 0.0
Li705 Li 0.37808 0.99511 0.27383 0.0
Li706 Li 0.40746 0.01688 0.25664 0.0
Li707 Li 0.37838 0.0333 0.27245 0.0
C708 C 0.42284 0.982 0.2665 0.0
N709 N 0.44906 0.95835 0.24284 0.0
C710 C 0.41381 0.96245 0.25391 0.0
C711 C 0.44523 0.98952 0.26703 0.0
C712 C 0.42735 0.95072 0.2421 0.0
C713 C 0.45819 0.97734 0.25495 0.0
C714 C 0.36078 0.0044 0.31077 0.0
C715 C 0.3247 0.98603 0.31555 0.0
N716 N 0.33292 0.97728 0.33372 0.0
C717 C 0.36887 0.9953 0.32954 0.0
C718 C 0.33851 0.99984 0.30376 0.0
C719 C 0.35452 0.98162 0.34091 0.0
C720 C 0.42205 0.0395 0.34079 0.0
N721 N 0.42449 0.02435 0.32405 0.0
C722 C 0.45333 0.01265 0.34603 0.0
C723 C 0.43969 0.01102 0.32635 0.0
C724 C 0.45118 0.028 0.36371 0.0
C725 C 0.43541 0.04171 0.36087 0.0
H726 H 0.40959 0.04969 0.33863 0.0
H727 H 0.44106 0.99887 0.31301 0.0
C728 C 0.34296 0.96063 0.25869 0.0
N729 N 0.36083 0.96716 0.27346 0.0
C730 C 0.33127 0.93958 0.25828 0.0
C731 C 0.35653 0.93255 0.28839 0.0
C732 C 0.36764 0.95372 0.28828 0.0
C733 C 0.33825 0.92516 0.27306 0.0
H734 H 0.33806 0.97157 0.24693 0.0
H735 H 0.38198 0.95937 0.29976 0.0
C736 C 0.42269 0.0603 0.29013 0.0
N737 N 0.44765 0.0925 0.31952 0.0
C738 C 0.41313 0.07702 0.30021 0.0
C739 C 0.44495 0.05998 0.29499 0.0
C740 C 0.42603 0.09316 0.315 0.0
C741 C 0.45728 0.07639 0.30991 0.0
C742 C 0.36254 0.01816 0.23131 0.0
C743 C 0.37116 0.02809 0.21324 0.0
C744 C 0.34027 0.01678 0.23384 0.0
C745 C 0.35736 0.03664 0.19807 0.0
C746 C 0.32702 0.02557 0.21834 0.0
N747 N 0.33577 0.03523 0.20093 0.0
C748 C 0.4233 0.0024 0.21595 0.0
C749 C 0.44214 0.03585 0.23421 0.0
C750 C 0.43698 0.00393 0.19866 0.0
N751 N 0.42616 0.01825 0.23324 0.0
C752 C 0.45611 0.03807 0.21731 0.0
C753 C 0.45351 0.02208 0.19914 0.0
H754 H 0.41022 0.98876 0.21546 0.0
H755 H 0.44385 0.04836 0.24794 0.0
C756 C 0.34376 0.0584 0.27878 0.0
N757 N 0.3617 0.05595 0.26796 0.0
C758 C 0.33242 0.07563 0.27465 0.0
C759 C 0.35802 0.08702 0.24808 0.0
C760 C 0.36893 0.0698 0.25287 0.0
C761 C 0.33969 0.09036 0.25927 0.0
H762 H 0.33845 0.0472 0.29081 0.0
H763 H 0.38329 0.06744 0.24459 0.0
O764 O 0.40982 0.99391 0.27793 0.0
O765 O 0.37464 0.01744 0.29913 0.0
O766 O 0.41028 0.04418 0.27581 0.0
O767 O 0.37586 0.01004 0.24657 0.0
H768 H 0.39652 0.95647 0.25304 0.0
H769 H 0.45245 0.00481 0.27636 0.0
H770 H 0.42056 0.93559 0.23224 0.0
H771 H 0.4755 0.98305 0.2551 0.0
H772 H 0.30746 0.98222 0.31021 0.0
H773 H 0.38608 0.9986 0.33514 0.0
H774 H 0.33202 0.00663 0.28917 0.0
H775 H 0.36056 0.97437 0.3554 0.0
H776 H 0.46535 0.00185 0.34746 0.0
H777 H 0.43302 0.05355 0.37423 0.0
H778 H 0.31742 0.9344 0.24601 0.0
H779 H 0.36233 0.92199 0.30017 0.0
H780 H 0.39592 0.07746 0.29682 0.0
H781 H 0.45256 0.04699 0.28761 0.0
H782 H 0.41884 0.10616 0.32296 0.0
H783 H 0.47448 0.07626 0.31393 0.0
H784 H 0.38836 0.0294 0.21107 0.0
H785 H 0.33336 0.00938 0.24786 0.0
H786 H 0.36383 0.04446 0.18407 0.0
H787 H 0.3098 0.02479 0.22021 0.0
H788 H 0.43421 0.99143 0.18475 0.0
H789 H 0.4687 0.05226 0.21834 0.0
H790 H 0.31855 0.07776 0.28388 0.0
H791 H 0.36404 0.09773 0.23586 0.0
Li792 Li 0.26442 0.14004 0.51867 0.0
Li793 Li 0.28089 0.11357 0.49787 0.0
Li794 Li 0.26528 0.14353 0.47838 0.0
Li795 Li 0.24188 0.11199 0.49348 0.0
C796 C 0.30373 0.16308 0.51358 0.0
N797 N 0.33064 0.19776 0.53791 0.0
C798 C 0.31427 0.16026 0.53424 0.0
C799 C 0.30688 0.18356 0.5053 0.0
C800 C 0.32779 0.17799 0.5463 0.0
C801 C 0.32056 0.20088 0.51784 0.0
C802 C 0.26933 0.0935 0.53208 0.0
C803 C 0.27704 0.05695 0.53475 0.0
N804 N 0.28942 0.06375 0.55437 0.0
C805 C 0.28212 0.10012 0.55228 0.0
C806 C 0.26673 0.07173 0.52326 0.0
C807 C 0.29212 0.08483 0.5633 0.0
C808 C 0.25282 0.14479 0.56241 0.0
N809 N 0.26328 0.15627 0.54707 0.0
C810 C 0.26922 0.18862 0.57241 0.0
C811 C 0.2709 0.17797 0.55146 0.0
C812 C 0.25912 0.17697 0.58887 0.0
C813 C 0.25054 0.15481 0.58344 0.0
H814 H 0.24604 0.12779 0.55824 0.0
H815 H 0.27817 0.18713 0.53874 0.0
C816 C 0.30551 0.08235 0.47967 0.0
N817 N 0.30459 0.09679 0.49759 0.0
C818 C 0.3229 0.07057 0.47872 0.0
C819 C 0.33791 0.08838 0.51483 0.0
C820 C 0.32036 0.09992 0.51499 0.0
C821 C 0.3395 0.07362 0.49642 0.0
H822 H 0.29289 0.08018 0.46595 0.0
H823 H 0.31948 0.11152 0.52899 0.0
C824 C 0.22935 0.15733 0.50785 0.0
N825 N 0.20837 0.18521 0.53305 0.0
C826 C 0.21291 0.14892 0.52074 0.0
C827 C 0.23508 0.17988 0.50767 0.0
C828 C 0.20251 0.1633 0.5334 0.0
C829 C 0.22428 0.19372 0.52055 0.0
C830 C 0.24797 0.0982 0.45312 0.0
C831 C 0.23726 0.10746 0.43595 0.0
C832 C 0.24375 0.07567 0.45438 0.0
C833 C 0.22235 0.09399 0.42035 0.0
C834 C 0.2287 0.06276 0.43848 0.0
N835 N 0.21839 0.07211 0.42195 0.0
C836 C 0.28662 0.16634 0.44509 0.0
C837 C 0.2505 0.17266 0.44885 0.0
C838 C 0.28875 0.18048 0.42817 0.0
N839 N 0.26774 0.1628 0.4551 0.0
C840 C 0.25189 0.18688 0.43198 0.0
C841 C 0.27123 0.19101 0.42136 0.0
H842 H 0.3001 0.15829 0.45038 0.0
H843 H 0.23556 0.16935 0.45687 0.0
C844 C 0.20812 0.07855 0.50306 0.0
N845 N 0.21334 0.09486 0.48975 0.0
C846 C 0.18643 0.06861 0.50324 0.0
C847 C 0.17596 0.09208 0.47563 0.0
C848 C 0.19784 0.1015 0.47593 0.0
C849 C 0.16993 0.07576 0.48983 0.0
H850 H 0.22059 0.07399 0.51439 0.0
H851 H 0.20235 0.11483 0.46588 0.0
O852 O 0.2906 0.14589 0.50138 0.0
O853 O 0.25966 0.10828 0.52085 0.0
O854 O 0.24014 0.14353 0.49586 0.0
O855 O 0.26223 0.11117 0.46886 0.0
H856 H 0.31167 0.1447 0.54116 0.0
H857 H 0.29877 0.18613 0.48943 0.0
H858 H 0.33592 0.17606 0.56238 0.0
H859 H 0.32312 0.21682 0.51165 0.0
H860 H 0.27526 0.04009 0.52804 0.0
H861 H 0.28458 0.11693 0.55925 0.0
H862 H 0.25705 0.06635 0.50757 0.0
H863 H 0.30214 0.08975 0.57888 0.0
H864 H 0.27609 0.20572 0.57573 0.0
H865 H 0.24201 0.14527 0.59524 0.0
H866 H 0.32339 0.05928 0.46423 0.0
H867 H 0.35046 0.09151 0.52869 0.0
H868 H 0.20841 0.13149 0.52117 0.0
H869 H 0.24796 0.18663 0.49797 0.0
H870 H 0.18983 0.15705 0.54356 0.0
H871 H 0.22862 0.21122 0.5207 0.0
H872 H 0.24029 0.12487 0.43476 0.0
H873 H 0.25188 0.06825 0.46758 0.0
H874 H 0.21386 0.10094 0.40702 0.0
H875 H 0.22519 0.04531 0.43931 0.0
H876 H 0.30405 0.18329 0.42067 0.0
H877 H 0.23781 0.19425 0.42707 0.0
H878 H 0.18251 0.05635 0.5147 0.0
H879 H 0.16381 0.09798 0.46489 0.0
Li880 Li 0.15571 0.0371 0.78951 0.0
Li881 Li 0.12769 0.0122 0.80595 0.0
Li882 Li 0.15596 0.99736 0.78657 0.0
Li883 Li 0.12656 0.01291 0.76631 0.0
C884 C 0.16525 0.02973 0.83438 0.0
N885 N 0.17508 0.05381 0.8754 0.0
C886 C 0.15358 0.04648 0.84026 0.0
C887 C 0.18189 0.02523 0.84938 0.0
C888 C 0.1588 0.05846 0.86108 0.0
C889 C 0.18663 0.0376 0.87003 0.0
C890 C 0.10721 0.04625 0.77862 0.0
C891 C 0.06994 0.04282 0.76276 0.0
N892 N 0.07389 0.06374 0.7573 0.0
C893 C 0.11084 0.06778 0.77306 0.0
C894 C 0.08654 0.03373 0.77363 0.0
C895 C 0.09381 0.0763 0.76222 0.0
C896 C 0.17097 0.07618 0.77202 0.0
N897 N 0.17405 0.06516 0.7903 0.0
C898 C 0.20217 0.09405 0.80646 0.0
C899 C 0.18962 0.07348 0.80719 0.0
C900 C 0.19884 0.10612 0.78807 0.0
C901 C 0.18312 0.09674 0.77058 0.0
H902 H 0.15897 0.06895 0.75849 0.0
H903 H 0.19244 0.06426 0.82126 0.0
C904 C 0.11941 0.99893 0.84878 0.0
N905 N 0.11079 0.00861 0.83148 0.0
C906 C 0.10895 0.99719 0.86839 0.0
C907 C 0.08031 0.01455 0.85185 0.0
C908 C 0.09147 0.01616 0.83257 0.0
C909 C 0.08928 0.00535 0.87026 0.0
H910 H 0.13472 0.99295 0.84754 0.0
H911 H 0.08495 0.02392 0.81874 0.0
C912 C 0.17906 0.02142 0.75651 0.0
N913 N 0.22112 0.02916 0.74418 0.0
C914 C 0.18269 0.0236 0.73416 0.0
C915 C 0.19681 0.02321 0.77262 0.0
C916 C 0.20408 0.0275 0.72825 0.0
C917 C 0.21795 0.02712 0.76604 0.0
C918 C 0.11175 0.97153 0.79386 0.0
C919 C 0.12189 0.95868 0.80809 0.0
C920 C 0.089 0.96919 0.79131 0.0
C921 C 0.10908 0.94381 0.81972 0.0
C922 C 0.07676 0.95414 0.80324 0.0
N923 N 0.08697 0.94188 0.8171 0.0
C924 C 0.18527 0.96925 0.80213 0.0
C925 C 0.17381 0.96428 0.7634 0.0
C926 C 0.19714 0.95196 0.80001 0.0
N927 N 0.17374 0.97488 0.78398 0.0
C928 C 0.18553 0.94698 0.76049 0.0
C929 C 0.19722 0.94039 0.77899 0.0
H930 H 0.18491 0.97793 0.81832 0.0
H931 H 0.16443 0.96906 0.74926 0.0
C932 C 0.11097 0.02655 0.72476 0.0
N933 N 0.10953 0.0098 0.73805 0.0
C934 C 0.10054 0.02352 0.70306 0.0
C935 C 0.08726 0.98615 0.70922 0.0
C936 C 0.09773 0.98996 0.73085 0.0
C937 C 0.08894 0.00294 0.69488 0.0
H938 H 0.12082 0.04206 0.73077 0.0
H939 H 0.09709 0.97684 0.74162 0.0
O940 O 0.16028 0.01749 0.81425 0.0
O941 O 0.12376 0.03754 0.78903 0.0
O942 O 0.1582 0.01778 0.76252 0.0
O943 O 0.12406 0.98661 0.78283 0.0
H944 H 0.14062 0.05022 0.82895 0.0
H945 H 0.19105 0.01231 0.84511 0.0
H946 H 0.14989 0.07144 0.86585 0.0
H947 H 0.19948 0.0343 0.8818 0.0
H948 H 0.05393 0.03323 0.75861 0.0
H949 H 0.12658 0.07787 0.77719 0.0
H950 H 0.08345 0.01706 0.77782 0.0
H951 H 0.09642 0.09292 0.75776 0.0
H952 H 0.21408 0.10055 0.82034 0.0
H953 H 0.18032 0.10511 0.75581 0.0
H954 H 0.11636 0.98981 0.88211 0.0
H955 H 0.06531 0.02125 0.85267 0.0
H956 H 0.16909 0.02233 0.72152 0.0
H957 H 0.19432 0.02166 0.79002 0.0
H958 H 0.20714 0.02922 0.71101 0.0
H959 H 0.23184 0.02854 0.77833 0.0
H960 H 0.13947 0.96038 0.81039 0.0
H961 H 0.08087 0.97891 0.78029 0.0
H962 H 0.11671 0.93386 0.83091 0.0
H963 H 0.05914 0.95223 0.8015 0.0
H964 H 0.20608 0.94762 0.81469 0.0
H965 H 0.18485 0.93841 0.74404 0.0
H966 H 0.10245 0.03679 0.69243 0.0
H967 H 0.07842 0.97006 0.70355 0.0
Li968 Li 0.23579 0.90483 0.01994 0.0
Li969 Li 0.2494 0.87333 0.03412 0.0
Li970 Li 0.27397 0.9029 0.02044 0.0
Li971 Li 0.24804 0.8771 0.99497 0.0
C972 C 0.2488 0.91677 0.06209 0.0
N973 N 0.23071 0.94228 0.0928 0.0
C974 C 0.23528 0.90701 0.07714 0.0
C975 C 0.25323 0.9395 0.06273 0.0
C976 C 0.22629 0.92019 0.09254 0.0
C977 C 0.24388 0.95211 0.07834 0.0
C978 C 0.20722 0.86228 0.99874 0.0
C979 C 0.19052 0.82898 0.97691 0.0
N980 N 0.176 0.84002 0.96655 0.0
C981 C 0.19213 0.8733 0.98791 0.0
C982 C 0.20641 0.83993 0.99326 0.0
C983 C 0.17646 0.86175 0.97168 0.0
C984 C 0.21716 0.94365 0.01619 0.0
N985 N 0.21487 0.92375 0.02428 0.0
C986 C 0.18251 0.93027 0.0407 0.0
C987 C 0.19798 0.91687 0.03629 0.0
C988 C 0.18438 0.95093 0.03254 0.0
C989 C 0.20204 0.95759 0.02018 0.0
H990 H 0.23072 0.94871 0.00667 0.0
H991 H 0.19655 0.90091 0.04244 0.0
C992 C 0.26324 0.85645 0.07337 0.0
N993 N 0.24703 0.85365 0.05646 0.0
C994 C 0.26242 0.84245 0.09031 0.0
C995 C 0.22801 0.82321 0.07234 0.0
C996 C 0.22961 0.83748 0.0556 0.0
C997 C 0.24456 0.82567 0.08999 0.0
H998 H 0.27672 0.86969 0.07373 0.0
H999 H 0.21686 0.83582 0.04206 0.0
C1000 C 0.26801 0.92355 0.98459 0.0
N1001 N 0.29717 0.95183 0.96417 0.0
C1002 C 0.27562 0.91669 0.96443 0.0
C1003 C 0.27516 0.94482 0.99432 0.0
C1004 C 0.29036 0.93124 0.95437 0.0
C1005 C 0.28994 0.95885 0.98376 0.0
C1006 C 0.2836 0.85612 0.02376 0.0
C1007 C 0.30371 0.86274 0.03628 0.0
C1008 C 0.27408 0.83414 0.02184 0.0
C1009 C 0.3139 0.84727 0.04677 0.0
C1010 C 0.28477 0.81919 0.03263 0.0
N1011 N 0.30429 0.82601 0.04477 0.0
C1012 C 0.30942 0.93016 0.04502 0.0
C1013 C 0.31682 0.91662 0.009 0.0
C1014 C 0.33109 0.94003 0.04987 0.0
N1015 N 0.30279 0.91863 0.02494 0.0
C1016 C 0.33861 0.92648 0.01303 0.0
C1017 C 0.34602 0.93801 0.03385 0.0
H1018 H 0.29804 0.93107 0.05757 0.0
H1019 H 0.31125 0.9068 0.99343 0.0
C1020 C 0.23108 0.86766 0.94941 0.0
N1021 N 0.24397 0.86139 0.96616 0.0
C1022 C 0.22919 0.85681 0.92799 0.0
C1023 C 0.25349 0.83303 0.94163 0.0
C1024 C 0.25498 0.84438 0.96271 0.0
C1025 C 0.24073 0.83941 0.92385 0.0
H1026 H 0.22267 0.88138 0.95259 0.0
H1027 H 0.26545 0.83999 0.97615 0.0
O1028 O 0.25731 0.90415 0.0465 0.0
O1029 O 0.22292 0.87338 0.01438 0.0
O1030 O 0.25369 0.90951 0.99478 0.0
O1031 O 0.27317 0.87109 0.01365 0.0
H1032 H 0.23155 0.88944 0.07678 0.0
H1033 H 0.26353 0.94731 0.05107 0.0
H1034 H 0.2157 0.91286 0.10422 0.0
H1035 H 0.24703 0.96972 0.07892 0.0
H1036 H 0.18979 0.81171 0.97239 0.0
H1037 H 0.19262 0.89063 0.99181 0.0
H1038 H 0.21812 0.8312 0.0013 0.0
H1039 H 0.16472 0.87007 0.96311 0.0
H1040 H 0.16895 0.92427 0.04992 0.0
H1041 H 0.20417 0.97342 0.01367 0.0
H1042 H 0.27528 0.84515 0.10388 0.0
H1043 H 0.21396 0.81049 0.07157 0.0
H1044 H 0.27035 0.90028 0.95671 0.0
H1045 H 0.26965 0.95032 0.01005 0.0
H1046 H 0.29643 0.92613 0.9388 0.0
H1047 H 0.29573 0.9753 0.99118 0.0
H1048 H 0.31132 0.87965 0.03805 0.0
H1049 H 0.25838 0.82876 0.01249 0.0
H1050 H 0.32943 0.85219 0.05658 0.0
H1051 H 0.27749 0.80218 0.03144 0.0
H1052 H 0.33624 0.94879 0.06612 0.0
H1053 H 0.34974 0.92427 0.00041 0.0
H1054 H 0.21913 0.8622 0.91473 0.0
H1055 H 0.26301 0.82002 0.93907 0.0
Li1056 Li 0.24644 0.40008 0.04138 0.0
Li1057 Li 0.26499 0.37583 0.06276 0.0
Li1058 Li 0.28586 0.40406 0.04355 0.0
Li1059 Li 0.2641 0.3728 0.02179 0.0
C1060 C 0.25631 0.41271 0.08672 0.0
N1061 N 0.23392 0.42169 0.12327 0.0
C1062 C 0.2357 0.40086 0.08863 0.0
C1063 C 0.26552 0.42913 0.10337 0.0
C1064 C 0.22465 0.40564 0.10724 0.0
C1065 C 0.25395 0.43342 0.12173 0.0
C1066 C 0.23153 0.34575 0.0391 0.0
C1067 C 0.2383 0.30868 0.0396 0.0
N1068 N 0.21645 0.30148 0.03676 0.0
C1069 C 0.20914 0.33798 0.03622 0.0
C1070 C 0.24625 0.33099 0.04084 0.0
C1071 C 0.20184 0.31554 0.03507 0.0
C1072 C 0.20291 0.40253 0.02797 0.0
N1073 N 0.22129 0.41455 0.03887 0.0
C1074 C 0.2025 0.44498 0.04542 0.0
C1075 C 0.22147 0.43546 0.04752 0.0
C1076 C 0.18316 0.43268 0.03474 0.0
C1077 C 0.18355 0.41123 0.02588 0.0
H1078 H 0.20324 0.38605 0.02108 0.0
H1079 H 0.23622 0.44466 0.05629 0.0
C1080 C 0.28449 0.36282 0.10236 0.0
N1081 N 0.26526 0.36047 0.08939 0.0
C1082 C 0.28581 0.35279 0.12228 0.0
C1083 C 0.2476 0.33773 0.11508 0.0
C1084 C 0.24693 0.34831 0.09544 0.0
C1085 C 0.26719 0.34005 0.1289 0.0
H1086 H 0.29877 0.37275 0.09732 0.0
H1087 H 0.23167 0.34704 0.08523 0.0
C1088 C 0.26559 0.42451 0.00997 0.0
N1089 N 0.26596 0.466 0.99666 0.0
C1090 C 0.26122 0.42748 0.98742 0.0
C1091 C 0.27023 0.44267 0.02575 0.0
C1092 C 0.26147 0.44858 0.98102 0.0
C1093 C 0.27032 0.4635 0.01869 0.0
C1094 C 0.30872 0.36982 0.03617 0.0
C1095 C 0.31305 0.3747 0.01456 0.0
C1096 C 0.32448 0.36214 0.04985 0.0
C1097 C 0.33312 0.37179 0.00698 0.0
C1098 C 0.34435 0.35943 0.04165 0.0
N1099 N 0.34823 0.36428 0.02057 0.0
C1100 C 0.32519 0.43094 0.06371 0.0
C1101 C 0.32068 0.42787 0.02412 0.0
C1102 C 0.34594 0.44337 0.06367 0.0
N1103 N 0.31316 0.42331 0.04409 0.0
C1104 C 0.34131 0.44001 0.0233 0.0
C1105 C 0.35438 0.4477 0.04322 0.0
H1106 H 0.3189 0.42695 0.07936 0.0
H1107 H 0.31087 0.4216 0.00873 0.0
C1108 C 0.2501 0.36068 0.97726 0.0
N1109 N 0.2619 0.35417 0.99466 0.0
C1110 C 0.24858 0.34956 0.95606 0.0
C1111 C 0.27096 0.32472 0.97107 0.0
C1112 C 0.2721 0.33642 0.99208 0.0
C1113 C 0.25918 0.33135 0.95264 0.0
H1114 H 0.24218 0.37484 0.97981 0.0
H1115 H 0.28144 0.33158 0.0062 0.0
O1116 O 0.26754 0.4084 0.0687 0.0
O1117 O 0.23884 0.36771 0.04025 0.0
O1118 O 0.26542 0.40391 0.01642 0.0
O1119 O 0.28932 0.37283 0.04411 0.0
H1120 H 0.22825 0.38813 0.07593 0.0
H1121 H 0.28146 0.43845 0.10211 0.0
H1122 H 0.2087 0.3966 0.10894 0.0
H1123 H 0.26088 0.44608 0.13475 0.0
H1124 H 0.24952 0.29709 0.04092 0.0
H1125 H 0.19751 0.34917 0.03495 0.0
H1126 H 0.26361 0.33662 0.04325 0.0
H1127 H 0.18456 0.30931 0.03284 0.0
H1128 H 0.20275 0.46149 0.05268 0.0
H1129 H 0.16897 0.40127 0.01748 0.0
H1130 H 0.30126 0.35498 0.13243 0.0
H1131 H 0.23279 0.32837 0.11975 0.0
H1132 H 0.25771 0.41362 0.97496 0.0
H1133 H 0.27374 0.44075 0.04327 0.0
H1134 H 0.2581 0.45111 0.96362 0.0
H1135 H 0.27385 0.47768 0.03074 0.0
H1136 H 0.30112 0.38086 0.00381 0.0
H1137 H 0.32139 0.35832 0.06664 0.0
H1138 H 0.3367 0.37557 0.99031 0.0
H1139 H 0.35671 0.3535 0.05206 0.0
H1140 H 0.35555 0.44888 0.0794 0.0
H1141 H 0.34705 0.44319 0.00719 0.0
H1142 H 0.23965 0.3556 0.94237 0.0
H1143 H 0.27923 0.31069 0.96929 0.0
Li1144 Li 0.77332 0.15513 0.04228 0.0
Li1145 Li 0.79022 0.13034 0.02037 0.0
Li1146 Li 0.77435 0.15781 0.00245 0.0
Li1147 Li 0.75148 0.1268 0.01631 0.0
C1148 C 0.80741 0.1841 0.02882 0.0
N1149 N 0.82383 0.22814 0.03542 0.0
C1150 C 0.8299 0.19121 0.03023 0.0
C1151 C 0.79327 0.19942 0.03079 0.0
C1152 C 0.83788 0.21354 0.03357 0.0
C1153 C 0.80189 0.2216 0.03411 0.0
C1154 C 0.78129 0.11872 0.06273 0.0
C1155 C 0.78366 0.09901 0.09548 0.0
N1156 N 0.80401 0.11032 0.1015 0.0
C1157 C 0.80223 0.13014 0.06923 0.0
C1158 C 0.77192 0.10303 0.07594 0.0
C1159 C 0.81345 0.12565 0.08888 0.0
C1160 C 0.75357 0.17282 0.07793 0.0
N1161 N 0.77327 0.17184 0.0701 0.0
C1162 C 0.79107 0.19737 0.10003 0.0
C1163 C 0.79193 0.18337 0.08098 0.0
C1164 C 0.77087 0.19916 0.10832 0.0
C1165 C 0.75198 0.1863 0.09716 0.0
H1166 H 0.73904 0.16326 0.06906 0.0
H1167 H 0.80746 0.18214 0.07459 0.0
C1168 C 0.83272 0.12607 0.01242 0.0
N1169 N 0.81434 0.115 0.01939 0.0
C1170 C 0.8515 0.11653 0.01177 0.0
C1171 C 0.83185 0.08393 0.02452 0.0
C1172 C 0.81346 0.09426 0.02526 0.0
C1173 C 0.85124 0.09529 0.01805 0.0
H1174 H 0.8328 0.14241 0.00756 0.0
H1175 H 0.79857 0.08584 0.0307 0.0
C1176 C 0.73028 0.16162 0.00866 0.0
N1177 N 0.69214 0.16751 0.98496 0.0
C1178 C 0.72647 0.15484 0.98583 0.0
C1179 C 0.7147 0.1714 0.01943 0.0
C1180 C 0.70709 0.15796 0.97415 0.0
C1181 C 0.69552 0.17424 0.00716 0.0
C1182 C 0.77648 0.10777 0.98203 0.0
C1183 C 0.79073 0.10888 0.96521 0.0
C1184 C 0.76858 0.08753 0.98929 0.0
C1185 C 0.79685 0.0897 0.95594 0.0
C1186 C 0.77505 0.06873 0.97957 0.0
N1187 N 0.78895 0.0702 0.96325 0.0
C1188 C 0.79299 0.17521 0.96596 0.0
C1189 C 0.76651 0.19502 0.97979 0.0
C1190 C 0.79703 0.18962 0.94966 0.0
N1191 N 0.77772 0.17794 0.98035 0.0
C1192 C 0.77009 0.2099 0.96381 0.0
C1193 C 0.78546 0.20723 0.94838 0.0
H1194 H 0.80215 0.16193 0.96729 0.0
H1195 H 0.75498 0.19731 0.99192 0.0
C1196 C 0.71167 0.10468 0.02825 0.0
N1197 N 0.72396 0.10859 0.01092 0.0
C1198 C 0.69023 0.09372 0.02423 0.0
C1199 C 0.69484 0.09063 0.98469 0.0
C1200 C 0.71617 0.10152 0.98948 0.0
C1201 C 0.68145 0.08699 0.00215 0.0
H1202 H 0.71827 0.11077 0.0451 0.0
H1203 H 0.72627 0.10503 0.97601 0.0
O1204 O 0.79946 0.16225 0.02541 0.0
O1205 O 0.76986 0.12272 0.04356 0.0
O1206 O 0.74891 0.15833 0.0206 0.0
O1207 O 0.77073 0.12641 0.99179 0.0
H1208 H 0.84109 0.17959 0.02879 0.0
H1209 H 0.77584 0.19431 0.02991 0.0
H1210 H 0.85525 0.21925 0.03469 0.0
H1211 H 0.79112 0.23361 0.03568 0.0
H1212 H 0.7766 0.08691 0.10587 0.0
H1213 H 0.80984 0.14229 0.05925 0.0
H1214 H 0.75572 0.09405 0.07113 0.0
H1215 H 0.82966 0.13436 0.0941 0.0
H1216 H 0.80608 0.20702 0.10782 0.0
H1217 H 0.73611 0.18658 0.10319 0.0
H1218 H 0.86616 0.12571 0.00656 0.0
H1219 H 0.83116 0.06758 0.02963 0.0
H1220 H 0.7383 0.14719 0.9772 0.0
H1221 H 0.71737 0.17671 0.0371 0.0
H1222 H 0.70392 0.15275 0.95648 0.0
H1223 H 0.68331 0.18177 0.01529 0.0
H1224 H 0.79708 0.12435 0.95941 0.0
H1225 H 0.7579 0.08637 0.0026 0.0
H1226 H 0.80791 0.09034 0.94295 0.0
H1227 H 0.76914 0.05299 0.98512 0.0
H1228 H 0.80888 0.18676 0.938 0.0
H1229 H 0.76109 0.22346 0.96369 0.0
H1230 H 0.68035 0.09143 0.03812 0.0
H1231 H 0.68873 0.08554 0.96746 0.0
Li1232 Li 0.15349 0.51577 0.26279 0.0
Li1233 Li 0.12482 0.49742 0.28454 0.0
Li1234 Li 0.14795 0.47731 0.26487 0.0
Li1235 Li 0.12105 0.4926 0.24427 0.0
C1236 C 0.17451 0.49371 0.3003 0.0
N1237 N 0.20986 0.47826 0.3202 0.0
C1238 C 0.17288 0.48417 0.32045 0.0
C1239 C 0.19416 0.4956 0.29038 0.0
C1240 C 0.19093 0.47641 0.33022 0.0
C1241 C 0.21184 0.48764 0.30067 0.0
C1242 C 0.12121 0.5402 0.27361 0.0
C1243 C 0.10551 0.57329 0.27545 0.0
N1244 N 0.11931 0.58113 0.29389 0.0
C1245 C 0.13524 0.54858 0.2926 0.0
C1246 C 0.10623 0.55264 0.26494 0.0
C1247 C 0.13403 0.56931 0.3026 0.0
C1248 C 0.16819 0.55298 0.24253 0.0
N1249 N 0.1726 0.54198 0.2605 0.0
C1250 C 0.2003 0.57126 0.27602 0.0
C1251 C 0.18843 0.5505 0.277 0.0
C1252 C 0.19552 0.58335 0.25807 0.0
C1253 C 0.1795 0.57384 0.24098 0.0
H1254 H 0.15529 0.54582 0.22984 0.0
H1255 H 0.1912 0.54162 0.29138 0.0
C1256 C 0.1102 0.4804 0.32233 0.0
N1257 N 0.10957 0.49811 0.31069 0.0
C1258 C 0.1001 0.47877 0.34208 0.0
C1259 C 0.08834 0.51346 0.3373 0.0
C1260 C 0.09843 0.51425 0.31742 0.0
C1261 C 0.08935 0.49567 0.35011 0.0
H1262 H 0.11863 0.4675 0.31621 0.0
H1263 H 0.09736 0.52781 0.30755 0.0
C1264 C 0.15253 0.479 0.21921 0.0
N1265 N 0.15348 0.45092 0.18157 0.0
C1266 C 0.14035 0.45803 0.21717 0.0
C1267 C 0.16517 0.48568 0.2021 0.0
C1268 C 0.14105 0.44409 0.19802 0.0
C1269 C 0.16545 0.47124 0.1832 0.0
C1270 C 0.09404 0.46326 0.26543 0.0
C1271 C 0.08569 0.44124 0.26622 0.0
C1272 C 0.07982 0.4786 0.26494 0.0
C1273 C 0.06322 0.43489 0.26648 0.0
C1274 C 0.05746 0.4716 0.26523 0.0
N1275 N 0.04969 0.45007 0.26599 0.0
C1276 C 0.15625 0.43972 0.28364 0.0
C1277 C 0.18028 0.45015 0.25639 0.0
C1278 C 0.16755 0.42282 0.28873 0.0
N1279 N 0.16285 0.45304 0.26786 0.0
C1280 C 0.19188 0.4332 0.2607 0.0
C1281 C 0.18568 0.41933 0.27722 0.0
H1282 H 0.14255 0.4427 0.29276 0.0
H1283 H 0.18546 0.46124 0.24422 0.0
C1284 C 0.10067 0.51056 0.21024 0.0
N1285 N 0.10135 0.49099 0.21844 0.0
C1286 C 0.08765 0.51195 0.19076 0.0
C1287 C 0.07596 0.47294 0.18847 0.0
C1288 C 0.0892 0.47232 0.20822 0.0
C1289 C 0.0754 0.49295 0.17933 0.0
H1290 H 0.1106 0.52509 0.21871 0.0
H1291 H 0.0901 0.45694 0.21512 0.0
O1292 O 0.15685 0.50086 0.29014 0.0
O1293 O 0.12242 0.52019 0.26311 0.0
O1294 O 0.15209 0.4931 0.2377 0.0
O1295 O 0.11604 0.46955 0.26518 0.0
H1296 H 0.15783 0.48266 0.3284 0.0
H1297 H 0.19562 0.50277 0.27467 0.0
H1298 H 0.18988 0.46887 0.34575 0.0
H1299 H 0.22709 0.4888 0.29307 0.0
H1300 H 0.09399 0.5831 0.26892 0.0
H1301 H 0.14689 0.53921 0.29963 0.0
H1302 H 0.09528 0.54642 0.25024 0.0
H1303 H 0.14478 0.576 0.31729 0.0
H1304 H 0.21226 0.5782 0.28971 0.0
H1305 H 0.17538 0.58267 0.22687 0.0
H1306 H 0.10078 0.46442 0.35098 0.0
H1307 H 0.0803 0.5269 0.34279 0.0
H1308 H 0.13047 0.45251 0.2302 0.0
H1309 H 0.17466 0.50188 0.20341 0.0
H1310 H 0.13171 0.42783 0.19623 0.0
H1311 H 0.17517 0.4762 0.16983 0.0
H1312 H 0.09649 0.42919 0.26662 0.0
H1313 H 0.08589 0.49571 0.26434 0.0
H1314 H 0.05654 0.41789 0.26709 0.0
H1315 H 0.04629 0.48328 0.26486 0.0
H1316 H 0.16237 0.41289 0.30189 0.0
H1317 H 0.20552 0.431 0.25115 0.0
H1318 H 0.08744 0.52776 0.18452 0.0
H1319 H 0.06689 0.45789 0.18008 0.0
Li1320 Li 0.74398 0.8993 0.53696 0.0
Li1321 Li 0.759 0.87236 0.55665 0.0
Li1322 Li 0.78401 0.90134 0.53868 0.0
Li1323 Li 0.75844 0.87026 0.51636 0.0
C1324 C 0.7604 0.9233 0.57507 0.0
N1325 N 0.74996 0.96034 0.59722 0.0
C1326 C 0.74141 0.92213 0.58614 0.0
C1327 C 0.77409 0.94331 0.5753 0.0
C1328 C 0.7364 0.94104 0.59721 0.0
C1329 C 0.76854 0.96185 0.5866 0.0
C1330 C 0.71944 0.85332 0.54457 0.0
C1331 C 0.70632 0.81661 0.5528 0.0
N1332 N 0.69267 0.82444 0.56683 0.0
C1333 C 0.70521 0.86099 0.55898 0.0
C1334 C 0.71993 0.83095 0.54134 0.0
C1335 C 0.69182 0.84613 0.5701 0.0
C1336 C 0.70091 0.90561 0.52478 0.0
N1337 N 0.72068 0.91666 0.53353 0.0
C1338 C 0.7066 0.95043 0.53426 0.0
C1339 C 0.72386 0.93875 0.53788 0.0
C1340 C 0.68594 0.93936 0.52555 0.0
C1341 C 0.68328 0.91664 0.52067 0.0
H1342 H 0.69885 0.88817 0.52072 0.0
H1343 H 0.73986 0.94745 0.54381 0.0
C1344 C 0.76801 0.83751 0.5825 0.0
N1345 N 0.75732 0.85497 0.58199 0.0
C1346 C 0.76684 0.82457 0.60049 0.0
C1347 C 0.74366 0.84774 0.6172 0.0
C1348 C 0.74535 0.86026 0.59895 0.0
C1349 C 0.75458 0.82963 0.61826 0.0
H1350 H 0.77762 0.83366 0.56902 0.0
H1351 H 0.73694 0.87413 0.59828 0.0
C1352 C 0.75521 0.91588 0.49948 0.0
N1353 N 0.73694 0.94486 0.47445 0.0
C1354 C 0.73783 0.90829 0.48332 0.0
C1355 C 0.76342 0.93815 0.50285 0.0
C1356 C 0.72877 0.92322 0.47086 0.0
C1357 C 0.75394 0.95256 0.49003 0.0
C1358 C 0.79468 0.85435 0.52749 0.0
C1359 C 0.81536 0.86121 0.52067 0.0
C1360 C 0.78497 0.83254 0.52282 0.0
C1361 C 0.82584 0.84619 0.509 0.0
C1362 C 0.79597 0.81802 0.5111 0.0
N1363 N 0.816 0.82509 0.50448 0.0
C1364 C 0.82619 0.9257 0.5563 0.0
C1365 C 0.818 0.92165 0.51697 0.0
C1366 C 0.84732 0.93633 0.554 0.0
N1367 N 0.81212 0.91849 0.53786 0.0
C1368 C 0.83895 0.93186 0.5139 0.0
C1369 C 0.85402 0.93908 0.53252 0.0
H1370 H 0.8212 0.92272 0.57273 0.0
H1371 H 0.80661 0.91552 0.50259 0.0
C1372 C 0.73612 0.84045 0.48094 0.0
N1373 N 0.75548 0.85318 0.48824 0.0
C1374 C 0.73278 0.83024 0.45917 0.0
C1375 C 0.76959 0.84581 0.45312 0.0
C1376 C 0.77212 0.85596 0.47488 0.0
C1377 C 0.74955 0.83314 0.44486 0.0
H1378 H 0.72299 0.83892 0.49171 0.0
H1379 H 0.7871 0.86672 0.48087 0.0
O1380 O 0.76574 0.90494 0.56432 0.0
O1381 O 0.73302 0.86766 0.53392 0.0
O1382 O 0.76385 0.90161 0.51231 0.0
O1383 O 0.78404 0.86891 0.53867 0.0
H1384 H 0.73046 0.90689 0.58589 0.0
H1385 H 0.78875 0.94458 0.56671 0.0
H1386 H 0.7217 0.94039 0.60572 0.0
H1387 H 0.77896 0.97745 0.58687 0.0
H1388 H 0.70661 0.79927 0.55055 0.0
H1389 H 0.70468 0.87826 0.56177 0.0
H1390 H 0.73077 0.82472 0.53019 0.0
H1391 H 0.68082 0.85186 0.5814 0.0
H1392 H 0.70949 0.96799 0.53787 0.0
H1393 H 0.66765 0.90741 0.514 0.0
H1394 H 0.77584 0.81101 0.60066 0.0
H1395 H 0.73376 0.85217 0.63028 0.0
H1396 H 0.73125 0.89108 0.48062 0.0
H1397 H 0.77678 0.94426 0.51544 0.0
H1398 H 0.71521 0.91762 0.45838 0.0
H1399 H 0.76001 0.96987 0.49253 0.0
H1400 H 0.82326 0.87794 0.52434 0.0
H1401 H 0.769 0.82694 0.52796 0.0
H1402 H 0.84181 0.8513 0.50356 0.0
H1403 H 0.78855 0.80114 0.50724 0.0
H1404 H 0.85857 0.9415 0.56874 0.0
H1405 H 0.84346 0.93374 0.49708 0.0
H1406 H 0.71707 0.82063 0.45339 0.0
H1407 H 0.78277 0.84876 0.44248 0.0
Li1408 Li 0.89911 0.01442 0.26818 0.0
Li1409 Li 0.86683 0.99088 0.24483 0.0
Li1410 Li 0.89862 0.01291 0.22654 0.0
Li1411 Li 0.87319 0.03036 0.2466 0.0
C1412 C 0.9101 0.97195 0.25061 0.0
N1413 N 0.93254 0.93801 0.25908 0.0
C1414 C 0.90103 0.95511 0.26267 0.0
C1415 C 0.93051 0.97137 0.24262 0.0
C1416 C 0.91265 0.93814 0.26686 0.0
C1417 C 0.94162 0.95413 0.24714 0.0
C1418 C 0.8539 0.02214 0.28319 0.0
C1419 C 0.81776 0.02584 0.29292 0.0
N1420 N 0.82622 0.04417 0.30648 0.0
C1421 C 0.86226 0.04092 0.29731 0.0
C1422 C 0.8315 0.01446 0.28101 0.0
C1423 C 0.84799 0.05187 0.3089 0.0
C1424 C 0.92358 0.0371 0.3066 0.0
N1425 N 0.91561 0.01671 0.29688 0.0
C1426 C 0.92599 0.00114 0.33043 0.0
C1427 C 0.91684 0.99883 0.30823 0.0
C1428 C 0.93355 0.02207 0.34114 0.0
C1429 C 0.93268 0.04016 0.32877 0.0
H1430 H 0.92201 0.05111 0.29744 0.0
H1431 H 0.90983 0.98286 0.30049 0.0
C1432 C 0.84146 0.9508 0.22441 0.0
N1433 N 0.84738 0.96377 0.24382 0.0
C1434 C 0.82892 0.93012 0.22455 0.0
C1435 C 0.82854 0.93677 0.26454 0.0
C1436 C 0.84092 0.9573 0.26361 0.0
C1437 C 0.82264 0.9227 0.2449 0.0
H1438 H 0.84695 0.95628 0.20891 0.0
H1439 H 0.84599 0.96785 0.27883 0.0
C1440 C 0.92761 0.04599 0.25023 0.0
N1441 N 0.97214 0.05975 0.25229 0.0
C1442 C 0.93582 0.06732 0.24604 0.0
C1443 C 0.94212 0.03171 0.25547 0.0
C1444 C 0.95836 0.07395 0.24715 0.0
C1445 C 0.96455 0.03895 0.25645 0.0
C1446 C 0.85251 0.01925 0.20652 0.0
C1447 C 0.86073 0.0376 0.19606 0.0
C1448 C 0.83013 0.01148 0.20417 0.0
C1449 C 0.8463 0.0481 0.1836 0.0
C1450 C 0.81624 0.02241 0.19152 0.0
N1451 N 0.82454 0.04036 0.18162 0.0
C1452 C 0.91663 0.99252 0.19015 0.0
C1453 C 0.92484 0.03107 0.19334 0.0
C1454 C 0.92764 0.99124 0.17084 0.0
N1455 N 0.91539 0.01221 0.20097 0.0
C1456 C 0.93613 0.03054 0.17413 0.0
C1457 C 0.93742 0.01043 0.16242 0.0
H1458 H 0.90878 0.97776 0.19637 0.0
H1459 H 0.9232 0.04657 0.20184 0.0
C1460 C 0.87158 0.07527 0.25 0.0
N1461 N 0.8583 0.05564 0.24724 0.0
C1462 C 0.86287 0.09462 0.25042 0.0
C1463 C 0.82672 0.07348 0.24597 0.0
C1464 C 0.83619 0.05442 0.24539 0.0
C1465 C 0.84017 0.09393 0.2482 0.0
H1466 H 0.88902 0.07592 0.25187 0.0
H1467 H 0.82585 0.03869 0.24337 0.0
O1468 O 0.89875 0.98849 0.24596 0.0
O1469 O 0.86758 0.01139 0.27146 0.0
O1470 O 0.90551 0.03919 0.24887 0.0
O1471 O 0.86632 0.00895 0.21905 0.0
H1472 H 0.8853 0.95524 0.26899 0.0
H1473 H 0.93772 0.98408 0.23299 0.0
H1474 H 0.90585 0.92509 0.2763 0.0
H1475 H 0.95744 0.95353 0.24112 0.0
H1476 H 0.80037 0.02017 0.29131 0.0
H1477 H 0.87955 0.04714 0.29907 0.0
H1478 H 0.82475 1.00003 0.27002 0.0
H1479 H 0.8542 0.06651 0.31977 0.0
H1480 H 0.92606 0.98678 0.33946 0.0
H1481 H 0.93843 0.05659 0.33635 0.0
H1482 H 0.82489 0.91974 0.20904 0.0
H1483 H 0.82387 0.93185 0.28055 0.0
H1484 H 0.92493 0.0786 0.24172 0.0
H1485 H 0.93619 0.01529 0.25899 0.0
H1486 H 0.9649 0.09038 0.24387 0.0
H1487 H 0.97591 0.02804 0.26054 0.0
H1488 H 0.87804 0.04379 0.19778 0.0
H1489 H 0.82357 0.99726 0.21219 0.0
H1490 H 0.85238 0.06243 0.17554 0.0
H1491 H 0.79885 0.01667 0.18964 0.0
H1492 H 0.92833 0.97536 0.16248 0.0
H1493 H 0.94308 0.04575 0.16807 0.0
H1494 H 0.87384 0.11004 0.25251 0.0
H1495 H 0.80914 0.07223 0.24412 0.0
Li1496 Li 0.27089 0.65736 0.55315 0.0
Li1497 Li 0.2856 0.6286 0.5321 0.0
Li1498 Li 0.26423 0.65371 0.51343 0.0
Li1499 Li 0.2454 0.62466 0.53332 0.0
C1500 C 0.30855 0.67732 0.54061 0.0
N1501 N 0.33981 0.71096 0.56072 0.0
C1502 C 0.32947 0.67339 0.54732 0.0
C1503 C 0.30361 0.69843 0.54392 0.0
C1504 C 0.34503 0.6906 0.5575 0.0
C1505 C 0.31961 0.71519 0.55419 0.0
C1506 C 0.27266 0.61144 0.57342 0.0
C1507 C 0.2656 0.57561 0.58649 0.0
N1508 N 0.28091 0.5822 0.60402 0.0
C1509 C 0.28802 0.61793 0.59181 0.0
C1510 C 0.26109 0.59018 0.57094 0.0
C1511 C 0.2921 0.60288 0.60699 0.0
C1512 C 0.25897 0.68892 0.58357 0.0
N1513 N 0.27532 0.67752 0.57916 0.0
C1514 C 0.29747 0.69579 0.61131 0.0
C1515 C 0.29433 0.68064 0.59256 0.0
C1516 C 0.28082 0.70776 0.61634 0.0
C1517 C 0.26141 0.70424 0.60212 0.0
H1518 H 0.24394 0.68598 0.57278 0.0
H1519 H 0.30716 0.67151 0.58859 0.0
C1520 C 0.31317 0.60299 0.51031 0.0
N1521 N 0.30965 0.61294 0.5303 0.0
C1522 C 0.32992 0.59056 0.50884 0.0
C1523 C 0.34051 0.60054 0.54813 0.0
C1524 C 0.32315 0.61224 0.54896 0.0
C1525 C 0.34391 0.58909 0.52794 0.0
H1526 H 0.30291 0.60452 0.49543 0.0
H1527 H 0.32072 0.62114 0.56441 0.0
C1528 C 0.22858 0.66737 0.52414 0.0
N1529 N 0.20134 0.68995 0.50003 0.0
C1530 C 0.2097 0.6562 0.5118 0.0
C1531 C 0.23353 0.69005 0.52436 0.0
C1532 C 0.19615 0.66791 0.4997 0.0
C1533 C 0.21958 0.70116 0.51201 0.0
C1534 C 0.25929 0.60124 0.49564 0.0
C1535 C 0.25393 0.59834 0.47252 0.0
C1536 C 0.26199 0.58319 0.50734 0.0
C1537 C 0.25113 0.57736 0.46154 0.0
C1538 C 0.25908 0.56249 0.49576 0.0
N1539 N 0.25372 0.56002 0.47329 0.0
C1540 C 0.27336 0.68843 0.4861 0.0
C1541 C 0.24515 0.65974 0.47131 0.0
C1542 C 0.27066 0.69948 0.46709 0.0
N1543 N 0.26074 0.66892 0.48777 0.0
C1544 C 0.24205 0.67009 0.4519 0.0
C1545 C 0.25505 0.69012 0.4496 0.0
H1546 H 0.28572 0.69528 0.49935 0.0
H1547 H 0.23519 0.64432 0.47326 0.0
C1548 C 0.20791 0.60794 0.55324 0.0
N1549 N 0.2186 0.60554 0.53459 0.0
C1550 C 0.18722 0.5959 0.55436 0.0
C1551 C 0.18936 0.57856 0.51746 0.0
C1552 C 0.2097 0.59125 0.51684 0.0
C1553 C 0.17775 0.58108 0.53623 0.0
H1554 H 0.21521 0.61967 0.56697 0.0
H1555 H 0.21788 0.59018 0.50181 0.0
O1556 O 0.29308 0.66062 0.5307 0.0
O1557 O 0.26822 0.62608 0.55856 0.0
O1558 O 0.24234 0.65613 0.53563 0.0
O1559 O 0.26201 0.62168 0.50664 0.0
H1560 H 0.33369 0.65726 0.54464 0.0
H1561 H 0.28747 0.70176 0.53903 0.0
H1562 H 0.36127 0.68777 0.56283 0.0
H1563 H 0.31593 0.73155 0.55704 0.0
H1564 H 0.25684 0.5591 0.58468 0.0
H1565 H 0.29689 0.63436 0.59424 0.0
H1566 H 0.2486 0.58498 0.55729 0.0
H1567 H 0.30412 0.60766 0.62115 0.0
H1568 H 0.31274 0.69811 0.62175 0.0
H1569 H 0.24799 0.71278 0.60564 0.0
H1570 H 0.33162 0.58205 0.49287 0.0
H1571 H 0.35127 0.60077 0.56317 0.0
H1572 H 0.20566 0.63866 0.51135 0.0
H1573 H 0.24809 0.69895 0.53377 0.0
H1574 H 0.18154 0.65946 0.48998 0.0
H1575 H 0.22328 0.71868 0.5119 0.0
H1576 H 0.25198 0.61212 0.46314 0.0
H1577 H 0.26665 0.58521 0.52508 0.0
H1578 H 0.24692 0.57488 0.44366 0.0
H1579 H 0.26116 0.54841 0.50462 0.0
H1580 H 0.28118 0.71476 0.46572 0.0
H1581 H 0.2298 0.66244 0.43874 0.0
H1582 H 0.17855 0.59839 0.569 0.0
H1583 H 0.18228 0.56767 0.50295 0.0
Li1584 Li 0.3702 0.49331 0.74717 0.0
Li1585 Li 0.40275 0.51686 0.7695 0.0
Li1586 Li 0.37531 0.53359 0.74871 0.0
Li1587 Li 0.40065 0.51613 0.72908 0.0
C1588 C 0.35992 0.52514 0.78777 0.0
N1589 N 0.33684 0.54845 0.81563 0.0
C1590 C 0.37076 0.5429 0.80206 0.0
C1591 C 0.33736 0.51919 0.78766 0.0
C1592 C 0.35879 0.55449 0.81601 0.0
C1593 C 0.32598 0.53118 0.80189 0.0
C1594 C 0.41487 0.47835 0.75841 0.0
C1595 C 0.44984 0.47294 0.77524 0.0
N1596 N 0.4405 0.45341 0.78144 0.0
C1597 C 0.40564 0.45818 0.76487 0.0
C1598 C 0.43718 0.48576 0.76353 0.0
C1599 C 0.41886 0.44582 0.77652 0.0
C1600 C 0.34583 0.45199 0.72859 0.0
N1601 N 0.35065 0.46634 0.74717 0.0
C1602 C 0.32921 0.44178 0.76848 0.0
C1603 C 0.34271 0.46157 0.76689 0.0
C1604 C 0.32398 0.42652 0.74965 0.0
C1605 C 0.33247 0.43187 0.72947 0.0
H1606 H 0.35254 0.45608 0.71316 0.0
H1607 H 0.34722 0.473 0.78156 0.0
C1608 C 0.43312 0.53779 0.80526 0.0
N1609 N 0.41982 0.51881 0.79775 0.0
C1610 C 0.44331 0.54068 0.82704 0.0
C1611 C 0.42664 0.50414 0.83273 0.0
C1612 C 0.41645 0.50209 0.81097 0.0
C1613 C 0.43987 0.52382 0.84116 0.0
H1614 H 0.43504 0.55107 0.79469 0.0
H1615 H 0.40522 0.48745 0.80492 0.0
C1616 C 0.35018 0.51864 0.71151 0.0
N1617 N 0.31388 0.5322 0.6912 0.0
C1618 C 0.35239 0.53781 0.70072 0.0
C1619 C 0.32951 0.50632 0.71189 0.0
C1620 C 0.33384 0.54441 0.69059 0.0
C1621 C 0.31136 0.51345 0.70153 0.0
C1622 C 0.42343 0.55348 0.74103 0.0
C1623 C 0.41806 0.56696 0.72467 0.0
C1624 C 0.4452 0.55112 0.74592 0.0
C1625 C 0.43459 0.57773 0.71331 0.0
C1626 C 0.46125 0.56217 0.73418 0.0
N1627 N 0.45565 0.57511 0.71824 0.0
C1628 C 0.37182 0.57831 0.75738 0.0
C1629 C 0.33745 0.55571 0.75024 0.0
C1630 C 0.36181 0.59665 0.76165 0.0
N1631 N 0.35964 0.55831 0.75174 0.0
C1632 C 0.32674 0.57363 0.75434 0.0
C1633 C 0.33893 0.59449 0.76031 0.0
H1634 H 0.38941 0.58002 0.75904 0.0
H1635 H 0.32799 0.53963 0.74644 0.0
C1636 C 0.43711 0.50872 0.70451 0.0
N1637 N 0.41773 0.5163 0.70333 0.0
C1638 C 0.44974 0.50909 0.68625 0.0
C1639 C 0.42226 0.52498 0.66573 0.0
C1640 C 0.41017 0.52428 0.68437 0.0
C1641 C 0.44237 0.51727 0.66641 0.0
H1642 H 0.44284 0.50236 0.71963 0.0
H1643 H 0.39478 0.53024 0.68372 0.0
O1644 O 0.37128 0.514 0.77353 0.0
O1645 O 0.40213 0.49075 0.74713 0.0
O1646 O 0.36812 0.51185 0.72152 0.0
O1647 O 0.40738 0.54224 0.75181 0.0
H1648 H 0.38818 0.54788 0.80214 0.0
H1649 H 0.32868 0.50569 0.77646 0.0
H1650 H 0.36694 0.56835 0.82706 0.0
H1651 H 0.3085 0.52685 0.80191 0.0
H1652 H 0.46708 0.47856 0.77946 0.0
H1653 H 0.38845 0.4521 0.76097 0.0
H1654 H 0.44458 0.50141 0.75889 0.0
H1655 H 0.41191 0.43021 0.78167 0.0
H1656 H 0.32342 0.43822 0.78448 0.0
H1657 H 0.3288 0.42066 0.71452 0.0
H1658 H 0.4533 0.55615 0.833 0.0
H1659 H 0.42324 0.49093 0.84325 0.0
H1660 H 0.3682 0.54768 0.70045 0.0
H1661 H 0.32746 0.49148 0.7202 0.0
H1662 H 0.3353 0.55929 0.68231 0.0
H1663 H 0.29526 0.50411 0.70175 0.0
H1664 H 0.40129 0.56889 0.7206 0.0
H1665 H 0.44964 0.5407 0.75846 0.0
H1666 H 0.43065 0.5881 0.7005 0.0
H1667 H 0.47815 0.56039 0.73769 0.0
H1668 H 0.37195 0.61238 0.76598 0.0
H1669 H 0.3091 0.57105 0.75347 0.0
H1670 H 0.46494 0.50268 0.68756 0.0
H1671 H 0.41597 0.53172 0.651 0.0
Li1672 Li 0.61819 0.00198 0.78735 0.0
Li1673 Li 0.64935 0.02542 0.77421 0.0
Li1674 Li 0.62373 0.00169 0.74767 0.0
Li1675 Li 0.64943 0.98788 0.77427 0.0
C1676 C 0.61165 0.04414 0.77831 0.0
N1677 N 0.59994 0.08095 0.7997 0.0
C1678 C 0.62041 0.05152 0.80016 0.0
C1679 C 0.59688 0.05548 0.7674 0.0
C1680 C 0.6143 0.07016 0.81066 0.0
C1681 C 0.59117 0.07404 0.77849 0.0
C1682 C 0.66297 0.0026 0.81671 0.0
C1683 C 0.69927 0.99742 0.82981 0.0
N1684 N 0.69139 0.98891 0.84819 0.0
C1685 C 0.65532 0.99416 0.83594 0.0
C1686 C 0.6852 0.00459 0.81382 0.0
C1687 C 0.6699 0.98721 0.85159 0.0
C1688 C 0.59601 0.98071 0.81984 0.0
N1689 N 0.59569 0.99765 0.80702 0.0
C1690 C 0.56351 0.00634 0.82239 0.0
C1691 C 0.57942 0.00994 0.80748 0.0
C1692 C 0.56417 0.98975 0.83678 0.0
C1693 C 0.58049 0.97657 0.83508 0.0
H1694 H 0.6085 0.97052 0.81836 0.0
H1695 H 0.57858 0.02247 0.79625 0.0
C1696 C 0.65827 0.06741 0.76225 0.0
N1697 N 0.66532 0.05412 0.77711 0.0
C1698 C 0.66709 0.08943 0.76401 0.0
C1699 C 0.69123 0.08354 0.79562 0.0
C1700 C 0.68163 0.06158 0.79348 0.0
C1701 C 0.68355 0.09773 0.78103 0.0
H1702 H 0.6453 0.06096 0.74938 0.0
H1703 H 0.68677 0.05069 0.80518 0.0
C1704 C 0.59693 0.96582 0.76054 0.0
N1705 N 0.5546 0.94467 0.7502 0.0
C1706 C 0.59225 0.9431 0.75972 0.0
C1707 C 0.58007 0.9778 0.75618 0.0
C1708 C 0.57075 0.9327 0.75443 0.0
C1709 C 0.55879 0.9668 0.75096 0.0
C1710 C 0.67124 0.01931 0.73941 0.0
C1711 C 0.66527 0.02858 0.71993 0.0
C1712 C 0.69275 0.02438 0.74909 0.0
C1713 C 0.68072 0.04318 0.7108 0.0
C1714 C 0.70773 0.03908 0.73949 0.0
N1715 N 0.70145 0.04813 0.72072 0.0
C1716 C 0.60513 0.0202 0.71303 0.0
C1717 C 0.60112 0.98179 0.70541 0.0
C1718 C 0.59432 0.02213 0.69241 0.0
N1719 N 0.60852 1.00035 0.71901 0.0
C1720 C 0.59001 0.98296 0.68451 0.0
C1721 C 0.58683 0.00341 0.67775 0.0
H1722 H 0.61137 0.03465 0.72413 0.0
H1723 H 0.60395 0.96619 0.7107 0.0
C1724 C 0.65915 0.95065 0.79321 0.0
N1725 N 0.66642 0.96557 0.77913 0.0
C1726 C 0.67092 0.93394 0.79782 0.0
C1727 C 0.69755 0.94837 0.77348 0.0
C1728 C 0.68523 0.96482 0.76932 0.0
C1729 C 0.69031 0.93253 0.78775 0.0
H1730 H 0.64417 0.95179 0.80086 0.0
H1731 H 0.69057 0.97688 0.75813 0.0
O1732 O 0.61765 0.02613 0.76745 0.0
O1733 O 0.64885 0.0092 0.80101 0.0
O1734 O 0.6179 0.97617 0.76591 0.0
O1735 O 0.65617 0.0053 0.74886 0.0
H1736 H 0.63183 0.04305 0.80896 0.0
H1737 H 0.58979 0.04997 0.75057 0.0
H1738 H 0.621 0.07606 0.82752 0.0
H1739 H 0.57976 0.08296 0.77023 0.0
H1740 H 0.71646 0.99863 0.82759 0.0
H1741 H 0.63837 0.9932 0.83895 0.0
H1742 H 0.69149 0.01137 0.79929 0.0
H1743 H 0.66414 0.98054 0.86648 0.0
H1744 H 0.55086 0.01648 0.82269 0.0
H1745 H 0.58167 0.96359 0.84583 0.0
H1746 H 0.66089 0.09996 0.75243 0.0
H1747 H 0.70385 0.08955 0.80902 0.0
H1748 H 0.60512 0.93362 0.76315 0.0
H1749 H 0.58333 0.9954 0.75684 0.0
H1750 H 0.56688 0.91512 0.75372 0.0
H1751 H 0.5456 0.97586 0.74754 0.0
H1752 H 0.64891 0.02457 0.71188 0.0
H1753 H 0.69787 0.01717 0.76389 0.0
H1754 H 0.67623 0.05055 0.69581 0.0
H1755 H 0.72436 0.04327 0.74695 0.0
H1756 H 0.592 0.03816 0.6879 0.0
H1757 H 0.58454 0.96818 0.67356 0.0
H1758 H 0.66486 0.9222 0.80909 0.0
H1759 H 0.71223 0.9477 0.76512 0.0
Li1760 Li 0.76448 0.64879 0.02209 0.0
Li1761 Li 0.78324 0.62273 0.00165 0.0
Li1762 Li 0.76486 0.64938 0.98127 0.0
Li1763 Li 0.74319 0.61836 0.99685 0.0
C1764 C 0.80927 0.6622 0.01835 0.0
N1765 N 0.84739 0.67525 0.04589 0.0
C1766 C 0.81185 0.654 0.03914 0.0
C1767 C 0.82607 0.67708 0.01157 0.0
C1768 C 0.83123 0.66078 0.05283 0.0
C1769 C 0.84522 0.68347 0.02573 0.0
C1770 C 0.76405 0.59891 0.03499 0.0
C1771 C 0.75968 0.55977 0.03484 0.0
N1772 N 0.7677 0.56201 0.05669 0.0
C1773 C 0.77201 0.60083 0.05752 0.0
C1774 C 0.75763 0.57823 0.0236 0.0
C1775 C 0.77383 0.58198 0.06816 0.0
C1776 C 0.74998 0.65305 0.06394 0.0
N1777 N 0.76335 0.66424 0.05059 0.0
C1778 C 0.77575 0.69216 0.08042 0.0
C1779 C 0.77574 0.68376 0.05813 0.0
C1780 C 0.76297 0.68025 0.09492 0.0
C1781 C 0.74955 0.66075 0.08622 0.0
H1782 H 0.7402 0.63765 0.05745 0.0
H1783 H 0.78624 0.69237 0.04715 0.0
C1784 C 0.81638 0.60327 0.98268 0.0
N1785 N 0.80819 0.60779 0.00246 0.0
C1786 C 0.8352 0.59365 0.98205 0.0
C1787 C 0.83695 0.59339 0.02218 0.0
C1788 C 0.81795 0.60285 0.022 0.0
C1789 C 0.84604 0.5889 0.00203 0.0
H1790 H 0.80844 0.60744 0.96736 0.0
H1791 H 0.81141 0.60678 0.0376 0.0
C1792 C 0.73359 0.67 0.00102 0.0
N1793 N 0.72177 0.71101 0.00418 0.0
C1794 C 0.71159 0.67226 0.00035 0.0
C1795 C 0.74959 0.68858 0.00329 0.0
C1796 C 0.70594 0.69315 0.00197 0.0
C1797 C 0.74328 0.70917 0.00487 0.0
C1798 C 0.75804 0.60101 0.95696 0.0
C1799 C 0.74753 0.60472 0.93659 0.0
C1800 C 0.76284 0.58023 0.96021 0.0
C1801 C 0.74157 0.58742 0.91997 0.0
C1802 C 0.75661 0.56336 0.94319 0.0
N1803 N 0.74617 0.56727 0.92359 0.0
C1804 C 0.78443 0.6777 0.9505 0.0
C1805 C 0.74622 0.66667 0.94378 0.0
C1806 C 0.78472 0.68889 0.9312 0.0
N1807 N 0.76539 0.66668 0.95623 0.0
C1808 C 0.7458 0.6774 0.92428 0.0
C1809 C 0.76527 0.68846 0.91756 0.0
H1810 H 0.79947 0.67736 0.9606 0.0
H1811 H 0.7313 0.6578 0.94873 0.0
C1812 C 0.70737 0.59597 0.0144 0.0
N1813 N 0.71595 0.59879 0.99457 0.0
C1814 C 0.68681 0.58361 0.01506 0.0
C1815 C 0.68419 0.57691 0.97484 0.0
C1816 C 0.70484 0.58952 0.97495 0.0
C1817 C 0.67477 0.57408 0.99508 0.0
H1818 H 0.71638 0.60374 0.02974 0.0
H1819 H 0.71164 0.59235 0.95933 0.0
O1820 O 0.79043 0.65581 0.00464 0.0
O1821 O 0.76218 0.61722 0.02433 0.0
O1822 O 0.73932 0.64964 0.99942 0.0
O1823 O 0.76414 0.61781 0.97334 0.0
H1824 H 0.79901 0.64257 0.04471 0.0
H1825 H 0.82434 0.68364 0.99555 0.0
H1826 H 0.83342 0.65454 0.06897 0.0
H1827 H 0.85836 0.69497 0.02069 0.0
H1828 H 0.75481 0.54366 0.0262 0.0
H1829 H 0.77686 0.61671 0.06667 0.0
H1830 H 0.75092 0.57644 0.00636 0.0
H1831 H 0.7801 0.58322 0.08555 0.0
H1832 H 0.78641 0.70721 0.08651 0.0
H1833 H 0.73924 0.65121 0.09673 0.0
H1834 H 0.84131 0.59019 0.96604 0.0
H1835 H 0.84481 0.59037 0.03804 0.0
H1836 H 0.69903 0.65801 0.99859 0.0
H1837 H 0.7667 0.68716 0.00382 0.0
H1838 H 0.68897 0.69516 0.00147 0.0
H1839 H 0.75548 0.72369 0.00664 0.0
H1840 H 0.74387 0.62073 0.93369 0.0
H1841 H 0.77148 0.57718 0.97562 0.0
H1842 H 0.73329 0.59003 0.90418 0.0
H1843 H 0.76017 0.54718 0.94551 0.0
H1844 H 0.80011 0.69707 0.92654 0.0
H1845 H 0.7304 0.67683 0.91438 0.0
H1846 H 0.68031 0.5817 0.03106 0.0
H1847 H 0.67537 0.5701 0.95903 0.0
Li1848 Li 0.86955 0.50207 0.77247 0.0
Li1849 Li 0.89544 0.52633 0.79942 0.0
Li1850 Li 0.86741 0.54032 0.77648 0.0
Li1851 Li 0.89879 0.52819 0.76036 0.0
C1852 C 0.84936 0.50467 0.80896 0.0
N1853 N 0.82177 0.47301 0.82708 0.0
C1854 C 0.85652 0.49561 0.82815 0.0
C1855 C 0.82815 0.49767 0.79902 0.0
C1856 C 0.84232 0.47963 0.83706 0.0
C1857 C 0.81446 0.48162 0.80841 0.0
C1858 C 0.91632 0.49326 0.76734 0.0
C1859 C 0.9532 0.49308 0.75778 0.0
N1860 N 0.9463 0.47455 0.744 0.0
C1861 C 0.90962 0.47418 0.75312 0.0
C1862 C 0.93832 0.50276 0.76976 0.0
C1863 C 0.92502 0.46498 0.74147 0.0
C1864 C 0.84156 0.46776 0.74638 0.0
N1865 N 0.85408 0.47322 0.76609 0.0
C1866 C 0.84741 0.4364 0.7755 0.0
C1867 C 0.85719 0.4581 0.7806 0.0
C1868 C 0.83472 0.43019 0.75506 0.0
C1869 C 0.83166 0.4462 0.74049 0.0
H1870 H 0.83974 0.48002 0.73495 0.0
H1871 H 0.86773 0.46281 0.79588 0.0
C1872 C 0.90484 0.53997 0.84569 0.0
N1873 N 0.91134 0.52846 0.82802 0.0
C1874 C 0.91604 0.54099 0.86685 0.0
C1875 C 0.94052 0.51855 0.85113 0.0
C1876 C 0.92878 0.51786 0.83034 0.0
C1877 C 0.93404 0.53003 0.86977 0.0
H1878 H 0.89078 0.54807 0.84338 0.0
H1879 H 0.93335 0.50849 0.81616 0.0
C1880 C 0.85527 0.5311 0.73402 0.0
N1881 N 0.82992 0.55261 0.70647 0.0
C1882 C 0.86513 0.54672 0.721 0.0
C1883 C 0.83253 0.52635 0.73297 0.0
C1884 C 0.85202 0.55741 0.70717 0.0
C1885 C 0.82 0.53743 0.71897 0.0
C1886 C 0.91038 0.5676 0.79885 0.0
C1887 C 0.89972 0.58182 0.81143 0.0
C1888 C 0.93277 0.56796 0.80355 0.0
C1889 C 0.91168 0.59618 0.82856 0.0
C1890 C 0.94413 0.58252 0.82085 0.0
N1891 N 0.93344 0.59621 0.83289 0.0
C1892 C 0.82805 0.55742 0.78194 0.0
C1893 C 0.85541 0.58041 0.76598 0.0
C1894 C 0.81391 0.5727 0.78012 0.0
N1895 N 0.84832 0.5615 0.77486 0.0
C1896 C 0.84189 0.59621 0.76399 0.0
C1897 C 0.82079 0.59249 0.77112 0.0
H1898 H 0.8228 0.54227 0.78892 0.0
H1899 H 0.87165 0.58322 0.7605 0.0
C1900 C 0.91489 0.51713 0.71993 0.0
N1901 N 0.91832 0.53218 0.73794 0.0
C1902 C 0.92921 0.51828 0.70328 0.0
C1903 C 0.94993 0.55086 0.72365 0.0
C1904 C 0.93528 0.54895 0.74005 0.0
C1905 C 0.94703 0.53529 0.70506 0.0
H1906 H 0.90109 0.50413 0.71863 0.0
H1907 H 0.93746 0.56079 0.75445 0.0
O1908 O 0.86309 0.52019 0.79986 0.0
O1909 O 0.90141 0.50278 0.77856 0.0
O1910 O 0.86781 0.52092 0.74815 0.0
O1911 O 0.89889 0.55314 0.78228 0.0
H1912 H 0.8729 0.50071 0.83601 0.0
H1913 H 0.82245 0.50421 0.78394 0.0
H1914 H 0.84766 0.47244 0.85187 0.0
H1915 H 0.79807 0.47593 0.80079 0.0
H1916 H 0.97021 0.50038 0.75934 0.0
H1917 H 0.8927 0.46663 0.75089 0.0
H1918 H 0.94378 0.51771 0.78041 0.0
H1919 H 0.92003 0.45026 0.73034 0.0
H1920 H 0.85045 0.42446 0.787 0.0
H1921 H 0.82197 0.44204 0.72458 0.0
H1922 H 0.91057 0.55008 0.8808 0.0
H1923 H 0.95403 0.50955 0.85275 0.0
H1924 H 0.8827 0.55073 0.72175 0.0
H1925 H 0.82465 0.51447 0.74313 0.0
H1926 H 0.85942 0.56961 0.69707 0.0
H1927 H 0.80239 0.53404 0.71811 0.0
H1928 H 0.88237 0.58162 0.80819 0.0
H1929 H 0.94122 0.55685 0.79419 0.0
H1930 H 0.90363 0.60723 0.83849 0.0
H1931 H 0.96143 0.58286 0.82478 0.0
H1932 H 0.79774 0.56897 0.78559 0.0
H1933 H 0.84809 0.61134 0.75733 0.0
H1934 H 0.92615 0.50623 0.68897 0.0
H1935 H 0.96344 0.56425 0.72554 0.0
Li1936 Li 0.75434 0.36264 0.53338 0.0
Li1937 Li 0.73356 0.38939 0.51898 0.0
Li1938 Li 0.74891 0.36409 0.49376 0.0
Li1939 Li 0.77206 0.39446 0.51639 0.0
C1940 C 0.71087 0.34319 0.50117 0.0
N1941 N 0.68021 0.31563 0.47222 0.0
C1942 C 0.69223 0.35059 0.49225 0.0
C1943 C 0.71392 0.32176 0.4953 0.0
C1944 C 0.67691 0.3364 0.47769 0.0
C1945 C 0.69825 0.3081 0.48064 0.0
C1946 C 0.74819 0.40585 0.55952 0.0
C1947 C 0.7386 0.43999 0.57396 0.0
N1948 N 0.72823 0.42964 0.5901 0.0
C1949 C 0.73751 0.39555 0.57629 0.0
C1950 C 0.74883 0.42825 0.55836 0.0
C1951 C 0.72751 0.40787 0.59159 0.0
C1952 C 0.77205 0.35155 0.57453 0.0
N1953 N 0.75761 0.34408 0.55651 0.0
C1954 C 0.74908 0.30949 0.57091 0.0
C1955 C 0.74609 0.32358 0.55447 0.0
C1956 C 0.76379 0.31672 0.58986 0.0
C1957 C 0.77535 0.33811 0.59153 0.0
H1958 H 0.78096 0.36797 0.57567 0.0
H1959 H 0.73471 0.31808 0.54001 0.0
C1960 C 0.70584 0.42176 0.51441 0.0
N1961 N 0.7091 0.40339 0.52409 0.0
C1962 C 0.68705 0.4309 0.51768 0.0
C1963 C 0.67571 0.4023 0.54116 0.0
C1964 C 0.69468 0.39379 0.53751 0.0
C1965 C 0.67151 0.42086 0.53085 0.0
H1966 H 0.71752 0.42899 0.50372 0.0
H1967 H 0.69772 0.37917 0.54495 0.0
C1968 C 0.79099 0.3524 0.52189 0.0
N1969 N 0.81898 0.32954 0.54466 0.0
C1970 C 0.80955 0.36354 0.5348 0.0
C1971 C 0.7867 0.32961 0.52053 0.0
C1972 C 0.8235 0.35169 0.54617 0.0
C1973 C 0.80102 0.31836 0.53219 0.0
C1974 C 0.75854 0.41117 0.47986 0.0
C1975 C 0.76545 0.40503 0.45911 0.0
C1976 C 0.76231 0.43314 0.48815 0.0
C1977 C 0.77621 0.421 0.44708 0.0
C1978 C 0.77317 0.4486 0.47563 0.0
N1979 N 0.77983 0.44227 0.45552 0.0
C1980 C 0.72895 0.34798 0.44999 0.0
C1981 C 0.76055 0.33372 0.46221 0.0
C1982 C 0.72697 0.3351 0.42963 0.0
N1983 N 0.74552 0.34697 0.46577 0.0
C1984 C 0.75922 0.32062 0.44219 0.0
C1985 C 0.74239 0.32133 0.4255 0.0
H1986 H 0.71739 0.35891 0.45315 0.0
H1987 H 0.77377 0.3335 0.47481 0.0
C1988 C 0.80555 0.42788 0.53607 0.0
N1989 N 0.79844 0.41443 0.51722 0.0
C1990 C 0.82628 0.44045 0.53809 0.0
C1991 C 0.83158 0.42573 0.50092 0.0
C1992 C 0.8109 0.41319 0.49976 0.0
C1993 C 0.83965 0.43917 0.52048 0.0
H1994 H 0.79553 0.42814 0.5499 0.0
H1995 H 0.8051 0.40181 0.48529 0.0
O1996 O 0.72618 0.3569 0.51531 0.0
O1997 O 0.75766 0.394 0.54408 0.0
O1998 O 0.77679 0.36373 0.5111 0.0
O1999 O 0.74814 0.39576 0.49197 0.0
H2000 H 0.68967 0.36716 0.4963 0.0
H2001 H 0.7285 0.31589 0.50152 0.0
H2002 H 0.66243 0.34193 0.47064 0.0
H2003 H 0.70051 0.29155 0.47583 0.0
H2004 H 0.73885 0.45731 0.57318 0.0
H2005 H 0.7367 0.3782 0.57731 0.0
H2006 H 0.75692 0.43644 0.54541 0.0
H2007 H 0.71908 0.4001 0.60459 0.0
H2008 H 0.74002 0.29309 0.5687 0.0
H2009 H 0.78655 0.34459 0.60599 0.0
H2010 H 0.68427 0.44508 0.50923 0.0
H2011 H 0.66419 0.39417 0.55155 0.0
H2012 H 0.81309 0.38114 0.53626 0.0
H2013 H 0.7722 0.3207 0.51098 0.0
H2014 H 0.83789 0.36011 0.55628 0.0
H2015 H 0.79779 0.30075 0.53143 0.0
H2016 H 0.76269 0.38811 0.45245 0.0
H2017 H 0.7572 0.43815 0.50424 0.0
H2018 H 0.78173 0.41648 0.43104 0.0
H2019 H 0.77634 0.46564 0.48192 0.0
H2020 H 0.71395 0.33638 0.41704 0.0
H2021 H 0.77137 0.31016 0.43974 0.0
H2022 H 0.83206 0.45057 0.55347 0.0
H2023 H 0.84161 0.42404 0.48719 0.0
Li2024 Li 0.61916 0.51109 0.30317 0.0
Li2025 Li 0.6478 0.53421 0.28675 0.0
Li2026 Li 0.61996 0.50953 0.26265 0.0
Li2027 Li 0.6475 0.4951 0.28513 0.0
C2028 C 0.5949 0.53829 0.28045 0.0
N2029 N 0.55232 0.54569 0.27463 0.0
C2030 C 0.5905 0.55944 0.27865 0.0
C2031 C 0.57767 0.52089 0.27925 0.0
C2032 C 0.56885 0.56285 0.27572 0.0
C2033 C 0.55625 0.52497 0.27631 0.0
C2034 C 0.65518 0.52925 0.33219 0.0
C2035 C 0.67218 0.53712 0.3699 0.0
N2036 N 0.66285 0.55545 0.37208 0.0
C2037 C 0.64577 0.54817 0.33479 0.0
C2038 C 0.6685 0.52366 0.34987 0.0
C2039 C 0.64985 0.5612 0.35508 0.0
C2040 C 0.59647 0.48962 0.33647 0.0
N2041 N 0.60059 0.50899 0.32743 0.0
C2042 C 0.57819 0.52491 0.35256 0.0
C2043 C 0.59186 0.52653 0.33521 0.0
C2044 C 0.57352 0.50509 0.36221 0.0
C2045 C 0.58298 0.48731 0.35397 0.0
H2046 H 0.60364 0.47591 0.33005 0.0
H2047 H 0.59549 0.54186 0.32799 0.0
C2048 C 0.65728 0.57419 0.27043 0.0
N2049 N 0.66463 0.56275 0.2869 0.0
C2050 C 0.66735 0.5954 0.26826 0.0
C2051 C 0.69279 0.59279 0.29993 0.0
C2052 C 0.68224 0.57143 0.3014 0.0
C2053 C 0.68519 0.60521 0.28331 0.0
H2054 H 0.64344 0.56677 0.25895 0.0
H2055 H 0.68798 0.56192 0.31422 0.0
C2056 C 0.611 0.46498 0.26901 0.0
N2057 N 0.60256 0.42506 0.24392 0.0
C2058 C 0.61948 0.4624 0.24834 0.0
C2059 C 0.59822 0.44728 0.27691 0.0
C2060 C 0.61504 0.44209 0.23591 0.0
C2061 C 0.59414 0.42722 0.26398 0.0
C2062 C 0.67327 0.51759 0.25624 0.0
C2063 C 0.67869 0.51852 0.23425 0.0
C2064 C 0.68981 0.52011 0.27375 0.0
C2065 C 0.70065 0.52195 0.2301 0.0
C2066 C 0.71157 0.52352 0.26892 0.0
N2067 N 0.71649 0.52436 0.24738 0.0
C2068 C 0.61216 0.52229 0.22017 0.0
C2069 C 0.58483 0.49372 0.22788 0.0
C2070 C 0.60221 0.52244 0.19864 0.0
N2071 N 0.60356 0.50792 0.23418 0.0
C2072 C 0.57435 0.49324 0.20636 0.0
C2073 C 0.58319 0.50757 0.19129 0.0
H2074 H 0.62693 0.53357 0.22574 0.0
H2075 H 0.5782 0.48257 0.2394 0.0
C2076 C 0.6683 0.46338 0.30565 0.0
N2077 N 0.66456 0.47177 0.28582 0.0
C2078 C 0.67873 0.44507 0.30667 0.0
C2079 C 0.68171 0.44456 0.26694 0.0
C2080 C 0.67137 0.46299 0.26671 0.0
C2081 C 0.6852 0.43506 0.28706 0.0
H2082 H 0.66273 0.47064 0.3206 0.0
H2083 H 0.66817 0.46987 0.2511 0.0
O2084 O 0.61604 0.53476 0.28324 0.0
O2085 O 0.6514 0.51609 0.31256 0.0
O2086 O 0.61525 0.48464 0.28163 0.0
O2087 O 0.65182 0.51428 0.26046 0.0
H2088 H 0.60369 0.57306 0.27951 0.0
H2089 H 0.58075 0.50441 0.2806 0.0
H2090 H 0.56519 0.57914 0.27432 0.0
H2091 H 0.54275 0.51167 0.27537 0.0
H2092 H 0.68245 0.53299 0.38373 0.0
H2093 H 0.63551 0.55285 0.3213 0.0
H2094 H 0.67589 0.50905 0.34811 0.0
H2095 H 0.64268 0.57589 0.35731 0.0
H2096 H 0.57159 0.53916 0.35857 0.0
H2097 H 0.57975 0.47167 0.36075 0.0
H2098 H 0.66119 0.60401 0.25483 0.0
H2099 H 0.70641 0.59963 0.31195 0.0
H2100 H 0.62943 0.4759 0.24195 0.0
H2101 H 0.59155 0.44902 0.29289 0.0
H2102 H 0.62152 0.43986 0.2199 0.0
H2103 H 0.58428 0.41337 0.26989 0.0
H2104 H 0.66605 0.5166 0.22052 0.0
H2105 H 0.68597 0.51944 0.29089 0.0
H2106 H 0.70509 0.52271 0.21315 0.0
H2107 H 0.72454 0.5255 0.2823 0.0
H2108 H 0.6094 0.5341 0.18784 0.0
H2109 H 0.55982 0.48139 0.20142 0.0
H2110 H 0.68139 0.43866 0.32267 0.0
H2111 H 0.68613 0.43738 0.25134 0.0
Zn2112 Zn 0.03706 0.01137 0.02731 0.0
Zn2113 Zn 0.99038 0.01593 0.00545 0.0
C2114 C 0.03679 0.97742 0.05304 0.0
O2115 O 0.04637 0.9949 0.06573 0.0
C2116 C 0.00121 0.05175 0.9826 0.0
O2117 O 0.99018 0.03667 0.96779 0.0
O2118 O 0.07 0.01585 0.03408 0.0
O2119 O 0.03401 0.01623 0.9943 0.0
O2120 O 0.00212 0.99736 0.98139 0.0
C2121 C 0.07804 0.0039 0.01984 0.0
O2122 O 0.06493 0.99153 0.0042 0.0
O2123 O 0.02906 0.97967 0.0333 0.0
C2124 C 0.95385 0.03318 0.01271 0.0
O2125 O 0.96912 0.04277 0.02813 0.0
O2126 O 0.95841 0.01829 0.99896 0.0
O2127 O 0.99194 0.00682 0.03697 0.0
O2128 O 0.0221 0.02853 0.05009 0.0
O2129 O 0.00475 0.04712 0.00264 0.0
C2130 C 0.02172 0.00495 0.97835 0.0
C2131 C 0.00331 0.01858 0.05319 0.0
Zn2132 Zn 0.25702 0.74984 0.29045 0.0
Zn2133 Zn 0.26936 0.75883 0.24482 0.0
C2134 C 0.22711 0.71201 0.27448 0.0
O2135 O 0.21443 0.72361 0.28495 0.0
C2136 C 0.30035 0.79658 0.25458 0.0
O2137 O 0.31182 0.78294 0.24517 0.0
O2138 O 0.25291 0.74335 0.32212 0.0
O2139 O 0.28916 0.75867 0.29018 0.0
O2140 O 0.29046 0.74017 0.25796 0.0
C2141 C 0.26148 0.72676 0.32668 0.0
O2142 O 0.27228 0.71764 0.31167 0.0
O2143 O 0.24696 0.72014 0.2734 0.0
C2144 C 0.25799 0.77088 0.20305 0.0
O2145 O 0.24475 0.77936 0.21585 0.0
O2146 O 0.2716 0.75995 0.21172 0.0
O2147 O 0.23691 0.75185 0.24769 0.0
O2148 O 0.2373 0.77064 0.2801 0.0
O2149 O 0.28044 0.78993 0.25711 0.0
C2150 C 0.29934 0.74748 0.27737 0.0
C2151 C 0.22773 0.7637 0.26093 0.0
Zn2152 Zn 0.4906 0.01199 0.52546 0.0
Zn2153 Zn 0.53854 0.00302 0.51546 0.0
C2154 C 0.502 0.05212 0.55021 0.0
O2155 O 0.49124 0.03987 0.56376 0.0
C2156 C 0.52884 0.96315 0.49069 0.0
O2157 O 0.5395 0.97593 0.4775 0.0
O2158 O 0.45839 0.01403 0.52697 0.0
O2159 O 0.49368 0.99979 0.49422 0.0
O2160 O 0.52603 0.01837 0.49013 0.0
C2161 C 0.44991 0.02327 0.5111 0.0
O2162 O 0.46189 0.02923 0.49497 0.0
O2163 O 0.50487 0.04361 0.531 0.0
C2164 C 0.58316 0.00117 0.53187 0.0
O2165 O 0.57498 0.00416 0.55106 0.0
O2166 O 0.5711 0.00144 0.51383 0.0
O2167 O 0.53451 0.01475 0.54666 0.0
O2168 O 0.50234 0.99603 0.55062 0.0
O2169 O 0.52518 0.97127 0.50979 0.0
C2170 C 0.50691 0.00972 0.48204 0.0
C2171 C 0.52159 0.00417 0.55872 0.0
Zn2172 Zn 0.2807 0.25327 0.7518 0.0
Zn2173 Zn 0.2368 0.27424 0.7798 0.0
C2174 C 0.26781 0.21866 0.71849 0.0
O2175 O 0.2768 0.20906 0.73464 0.0
C2176 C 0.23963 0.29369 0.82245 0.0
O2177 O 0.22973 0.30615 0.80984 0.0
O2178 O 0.3123 0.25096 0.74873 0.0
O2179 O 0.27959 0.28572 0.75317 0.0
O2180 O 0.25238 0.3003 0.76637 0.0
C2181 C 0.31799 0.25832 0.73059 0.0
O2182 O 0.30379 0.26674 0.71807 0.0
O2183 O 0.26592 0.23865 0.72213 0.0
C2184 C 0.19532 0.2593 0.78951 0.0
O2185 O 0.20705 0.24501 0.79669 0.0
O2186 O 0.20456 0.27532 0.78005 0.0
O2187 O 0.2372 0.24427 0.76408 0.0
O2188 O 0.26822 0.23481 0.77552 0.0
O2189 O 0.24675 0.27745 0.8131 0.0
C2190 C 0.2703 0.30221 0.75741 0.0
C2191 C 0.24754 0.23062 0.77295 0.0
Zn2192 Zn 0.0167 0.98639 0.52542 0.0
Zn2193 Zn 0.00651 0.03316 0.51026 0.0
C2194 C 0.04043 0.99354 0.56692 0.0
O2195 O 0.05087 0.98061 0.55506 0.0
C2196 C 0.9797 0.02676 0.46955 0.0
O2197 O 0.96917 0.03902 0.48211 0.0
O2198 O 0.01629 0.95419 0.52891 0.0
O2199 O 0.98591 0.98815 0.51321 0.0
O2200 O 0.98444 0.02002 0.53055 0.0
C2201 C 1.00052 0.9457 0.53922 0.0
O2202 O 0.98613 0.95779 0.54541 0.0
O2203 O 0.024 1.00021 0.55741 0.0
C2204 C 0.01753 0.08103 0.51858 0.0
O2205 O 0.03379 0.07732 0.53222 0.0
O2206 O 0.00403 0.06501 0.50897 0.0
O2207 O 0.03885 0.0325 0.5164 0.0
O2208 O 0.04148 0.9979 0.50772 0.0
O2209 O 0.99671 0.02051 0.47828 0.0
C2210 C 0.97525 0.00074 0.5238 0.0
C2211 C 0.04994 0.01797 0.51006 0.0
Zn2212 Zn 0.25751 0.78905 0.76587 0.0
Zn2213 Zn 0.2766 0.74173 0.78244 0.0
C2214 C 0.22192 0.77595 0.73513 0.0
O2215 O 0.23648 0.78699 0.72396 0.0
C2216 C 0.31337 0.75879 0.81221 0.0
O2217 O 0.2993 0.7514 0.82602 0.0
O2218 O 0.2533 0.821 0.7659 0.0
O2219 O 0.26675 0.7859 0.79809 0.0
O2220 O 0.2568 0.75172 0.80501 0.0
C2221 C 0.23837 0.82472 0.77833 0.0
O2222 O 0.22825 0.80843 0.78803 0.0
O2223 O 0.22737 0.77276 0.75525 0.0
C2224 C 0.27257 0.69519 0.76721 0.0
O2225 O 0.25926 0.7002 0.75113 0.0
O2226 O 0.28031 0.70969 0.7831 0.0
O2227 O 0.2672 0.74601 0.75075 0.0
O2228 O 0.27825 0.77999 0.74409 0.0
O2229 O 0.30721 0.75755 0.79146 0.0
C2230 C 0.25794 0.77208 0.81041 0.0
C2231 C 0.27782 0.75964 0.73946 0.0
Zn2232 Zn 0.51378 0.01033 0.99623 0.0
Zn2233 Zn 0.51713 0.0033 0.04332 0.0
C2234 C 0.55627 0.03222 0.99335 0.0
O2235 O 0.54448 0.04368 0.98139 0.0
C2236 C 0.47345 0.98316 0.04429 0.0
O2237 O 0.48366 0.97182 0.05792 0.0
O2238 O 0.50885 0.0126 0.96308 0.0
O2239 O 0.50266 0.97913 0.00157 0.0
O2240 O 0.5291 0.97841 0.02762 0.0
C2241 C 0.50837 0.99578 0.94953 0.0
O2242 O 0.50808 0.97672 0.95747 0.0
O2243 O 0.54667 0.01592 0.00211 0.0
C2244 C 0.51211 0.01677 0.08726 0.0
O2245 O 0.5063 0.03262 0.07622 0.0
O2246 O 0.51945 0.00141 0.07664 0.0
O2247 O 0.52963 0.03412 0.0386 0.0
O2248 O 0.50298 0.03552 0.01305 0.0
O2249 O 0.48447 0.99838 0.03516 0.0
C2250 C 0.51581 0.96863 0.01162 0.0
C2251 C 0.51666 0.04504 0.02889 0.0
Zn2252 Zn 0.28342 0.242 0.25708 0.0
Zn2253 Zn 0.25708 0.28221 0.28555 0.0
C2254 C 0.31561 0.26007 0.23069 0.0
O2255 O 0.3003 0.25033 0.21538 0.0
C2256 C 0.21996 0.26796 0.30513 0.0
O2257 O 0.2345 0.27668 0.32161 0.0
O2258 O 0.28825 0.21144 0.247 0.0
O2259 O 0.2818 0.24023 0.29008 0.0
O2260 O 0.27452 0.2694 0.3096 0.0
C2261 C 0.30665 0.20833 0.25581 0.0
O2262 O 0.31863 0.22407 0.26918 0.0
O2263 O 0.31166 0.26059 0.2511 0.0
C2264 C 0.26369 0.32999 0.28961 0.0
O2265 O 0.28054 0.32876 0.27803 0.0
O2266 O 0.25345 0.31272 0.2961 0.0
O2267 O 0.26674 0.28526 0.2543 0.0
O2268 O 0.25907 0.25176 0.23799 0.0
O2269 O 0.22583 0.26697 0.28533 0.0
C2270 C 0.28004 0.25056 0.30868 0.0
C2271 C 0.26146 0.27225 0.23671 0.0
Zn2272 Zn 0.52298 0.48894 0.02 0.0
Zn2273 Zn 0.50539 0.5322 0.01257 0.0
C2274 C 0.55075 0.49887 0.05929 0.0
O2275 O 0.56358 0.49324 0.0443 0.0
C2276 C 0.48226 0.52579 0.97007 0.0
O2277 O 0.4697 0.53617 0.98211 0.0
O2278 O 0.52986 0.45837 0.0188 0.0
O2279 O 0.49031 0.48509 0.01187 0.0
O2280 O 0.48356 0.51488 0.03013 0.0
C2281 C 0.51843 0.44207 0.00721 0.0
O2282 O 0.50259 0.44527 0.99275 0.0
O2283 O 0.53081 0.49918 0.05299 0.0
C2284 C 0.50902 0.57985 0.02327 0.0
O2285 O 0.52379 0.57797 0.0395 0.0
O2286 O 0.49893 0.56283 0.01177 0.0
O2287 O 0.53753 0.53617 0.02254 0.0
O2288 O 0.54406 0.50744 0.00235 0.0
O2289 O 0.49938 0.5205 0.9797 0.0
C2290 C 0.47729 0.49524 0.02214 0.0
C2291 C 0.55048 0.52671 0.01143 0.0
Zn2292 Zn 0.75809 0.28926 0.26066 0.0
Zn2293 Zn 0.77211 0.24178 0.273 0.0
C2294 C 0.71957 0.27528 0.23414 0.0
O2295 O 0.73188 0.28701 0.22135 0.0
C2296 C 0.80904 0.25276 0.30326 0.0
O2297 O 0.7946 0.2426 0.31519 0.0
O2298 O 0.75361 0.32101 0.25969 0.0
O2299 O 0.76977 0.28669 0.29203 0.0
O2300 O 0.75317 0.25344 0.2957 0.0
C2301 C 0.73991 0.32663 0.27279 0.0
O2302 O 0.7311 0.31223 0.28559 0.0
O2303 O 0.7276 0.27247 0.25355 0.0
C2304 C 0.78765 0.20328 0.26204 0.0
O2305 O 0.79817 0.21779 0.25046 0.0
O2306 O 0.7735 0.2093 0.27435 0.0
O2307 O 0.76503 0.24497 0.24031 0.0
O2308 O 0.77633 0.27991 0.23657 0.0
O2309 O 0.80327 0.25559 0.28311 0.0
C2310 C 0.76027 0.27291 0.30392 0.0
C2311 C 0.77316 0.25997 0.2289 0.0
Zn2312 Zn 0.01147 0.51378 0.50075 0.0
Zn2313 Zn 0.00723 0.5057 0.54911 0.0
C2314 C 0.05049 0.5433 0.51187 0.0
O2315 O 0.0385 0.55515 0.50067 0.0
C2316 C 0.96696 0.47947 0.55088 0.0
O2317 O 0.97991 0.47056 0.56439 0.0
O2318 O 0.01467 0.51469 0.46779 0.0
O2319 O 0.00153 0.48229 0.50459 0.0
O2320 O 0.02301 0.48239 0.53523 0.0
C2321 C 0.02908 0.50346 0.462 0.0
O2322 O 0.0384 0.4929 0.4771 0.0
O2323 O 0.04251 0.52377 0.51468 0.0
C2324 C 0.00307 0.52214 0.59305 0.0
O2325 O 0.99667 0.53734 0.58143 0.0
O2326 O 0.00996 0.50622 0.58286 0.0
O2327 O 0.01467 0.53728 0.54288 0.0
O2328 O 0.99291 0.53546 0.51208 0.0
O2329 O 0.97507 0.49556 0.54082 0.0
C2330 C 0.01367 0.47256 0.51688 0.0
C2331 C 0.00189 0.546 0.53018 0.0
Zn2332 Zn 0.78817 0.75576 0.26375 0.0
Zn2333 Zn 0.74259 0.7672 0.27346 0.0
C2334 C 0.77776 0.73172 0.22212 0.0
O2335 O 0.78637 0.7182 0.23449 0.0
C2336 C 0.74638 0.79011 0.31602 0.0
O2337 O 0.73436 0.8013 0.30398 0.0
O2338 O 0.82003 0.75379 0.26159 0.0
O2339 O 0.78835 0.78685 0.27625 0.0
O2340 O 0.75834 0.7913 0.25682 0.0
C2341 C 0.82873 0.76725 0.2488 0.0
O2342 O 0.81673 0.78044 0.23971 0.0
O2343 O 0.77549 0.75028 0.23126 0.0
C2344 C 0.70058 0.75595 0.28514 0.0
O2345 O 0.71171 0.74263 0.29521 0.0
O2346 O 0.71045 0.76942 0.27306 0.0
O2347 O 0.74243 0.73515 0.26383 0.0
O2348 O 0.77407 0.73129 0.28053 0.0
O2349 O 0.75344 0.77398 0.30642 0.0
C2350 C 0.77729 0.79915 0.266 0.0
C2351 C 0.7544 0.72338 0.27376 0.0
Zn2352 Zn 0.76649 0.26272 0.79065 0.0
Zn2353 Zn 0.77076 0.25805 0.74248 0.0
C2354 C 0.74207 0.22145 0.79312 0.0
O2355 O 0.72974 0.23427 0.80242 0.0
C2356 C 0.78992 0.3025 0.73969 0.0
O2357 O 0.79879 0.29322 0.72316 0.0
O2358 O 0.76557 0.26819 0.8239 0.0
O2359 O 0.79749 0.27184 0.7835 0.0
O2360 O 0.79518 0.24495 0.7572 0.0
C2361 C 0.78182 0.26423 0.83612 0.0
O2362 O 0.79908 0.25984 0.82658 0.0
O2363 O 0.75981 0.22993 0.78604 0.0
C2364 C 0.754 0.24924 0.69577 0.0
O2365 O 0.73573 0.24163 0.70396 0.0
O2366 O 0.77121 0.25503 0.70897 0.0
O2367 O 0.74034 0.2468 0.74925 0.0
O2368 O 0.74125 0.27422 0.77464 0.0
O2369 O 0.77699 0.29072 0.75078 0.0
C2370 C 0.80628 0.25737 0.77314 0.0
C2371 C 0.73053 0.26031 0.75967 0.0
Zn2372 Zn 0.77177 0.74443 0.75868 0.0
Zn2373 Zn 0.7577 0.78614 0.78558 0.0
C2374 C 0.81845 0.74843 0.76113 0.0
O2375 O 0.81446 0.73064 0.77146 0.0
C2376 C 0.72242 0.76707 0.80588 0.0
O2377 O 0.73621 0.77733 0.82231 0.0
O2378 O 0.77192 0.71322 0.74647 0.0
O2379 O 0.76664 0.74239 0.79165 0.0
O2380 O 0.77876 0.77546 0.8077 0.0
C2381 C 0.76385 0.69721 0.75667 0.0
O2382 O 0.75186 0.70076 0.77314 0.0
O2383 O 0.80274 0.75842 0.7558 0.0
C2384 C 0.73337 0.81897 0.78456 0.0
O2385 O 0.72435 0.8043 0.76833 0.0
O2386 O 0.75044 0.81572 0.79605 0.0
O2387 O 0.76698 0.79101 0.75499 0.0
O2388 O 0.75307 0.75925 0.7371 0.0
O2389 O 0.72831 0.76671 0.78609 0.0
C2390 C 0.77443 0.755 0.80901 0.0
C2391 C 0.75844 0.77979 0.73712 0.0
Zn2392 Zn 0.52698 0.49322 0.52808 0.0
Zn2393 Zn 0.48507 0.51602 0.49999 0.0
C2394 C 0.51915 0.46019 0.55598 0.0
O2395 O 0.53031 0.47658 0.56918 0.0
C2396 C 0.50295 0.55253 0.48237 0.0
O2397 O 0.49228 0.53934 0.46571 0.0
O2398 O 0.5592 0.49357 0.5369 0.0
O2399 O 0.52581 0.49354 0.49421 0.0
O2400 O 0.49582 0.49874 0.47464 0.0
C2401 C 0.56464 0.4764 0.5275 0.0
O2402 O 0.54998 0.46315 0.51399 0.0
O2403 O 0.51354 0.46334 0.53589 0.0
C2404 C 0.44859 0.53366 0.50806 0.0
O2405 O 0.4618 0.53916 0.52637 0.0
O2406 O 0.45482 0.5225 0.49188 0.0
O2407 O 0.48198 0.50191 0.52905 0.0
O2408 O 0.51335 0.51432 0.54827 0.0
O2409 O 0.50321 0.54627 0.50201 0.0
C2410 C 0.51508 0.49427 0.4755 0.0
C2411 C 0.49268 0.50974 0.54745 0.0
Zn2412 Zn 0.99561 0.52312 0.02703 0.0
Zn2413 Zn 0.04076 0.51025 0.01243 0.0
C2414 C 0.00887 0.56346 0.05061 0.0
O2415 O 0.99988 0.55145 0.06544 0.0
C2416 C 0.02474 0.46957 0.99079 0.0
O2417 O 0.03422 0.48022 0.97529 0.0
O2418 O 0.96374 0.52589 0.03045 0.0
O2419 O 0.99569 0.5109 0.99518 0.0
O2420 O 0.0283 0.52559 0.98719 0.0
C2421 C 0.95715 0.53911 0.01731 0.0
O2422 O 0.97086 0.54824 0.00403 0.0
O2423 O 0.01033 0.55451 0.03121 0.0
C2424 C 0.07783 0.4917 0.0228 0.0
O2425 O 0.06379 0.48366 0.03636 0.0
O2426 O 0.0722 0.50535 0.00963 0.0
O2427 O 0.04083 0.5247 0.04322 0.0
O2428 O 0.00941 0.50753 0.05155 0.0
O2429 O 0.02413 0.47962 0.00985 0.0
C2430 C 0.00797 0.51995 0.98157 0.0
C2431 C 0.02942 0.5151 0.05716 0.0
H2432 H 0.01665 0.13583 0.93209 0.0
H2433 H 0.00613 0.1663 0.99628 0.0
H2434 H 0.00436 0.13116 0.01216 0.0
H2435 H 0.00336 0.09107 0.00695 0.0
H2436 H 0.01329 0.06144 0.9422 0.0
H2437 H 0.01852 0.09708 0.92763 0.0
C2438 C 0.01447 0.13498 0.9497 0.0
C2439 C 0.01152 0.15374 0.96293 0.0
C2440 C 0.01346 0.11481 0.95866 0.0
C2441 C 0.00817 0.15208 0.9856 0.0
C2442 C 0.00729 0.13201 0.99474 0.0
C2443 C 0.00716 0.09258 0.98982 0.0
C2444 C 0.00792 0.07374 0.97563 0.0
C2445 C 0.00959 0.11317 0.98133 0.0
C2446 C 0.01252 0.07576 0.95338 0.0
C2447 C 0.01545 0.0961 0.94501 0.0
H2448 H 0.14017 0.7987 0.23412 0.0
H2449 H 0.13053 0.73938 0.18983 0.0
H2450 H 0.16474 0.73025 0.20554 0.0
H2451 H 0.19811 0.73966 0.23039 0.0
H2452 H 0.20804 0.79788 0.27605 0.0
H2453 H 0.17277 0.80664 0.26163 0.0
C2454 C 0.14544 0.78366 0.22812 0.0
C2455 C 0.133 0.77004 0.21042 0.0
C2456 C 0.16515 0.77829 0.23746 0.0
C2457 C 0.14007 0.75055 0.20292 0.0
C2458 C 0.15957 0.74519 0.212 0.0
C2459 C 0.19254 0.75425 0.23726 0.0
C2460 C 0.20572 0.76824 0.25405 0.0
C2461 C 0.17239 0.75909 0.22897 0.0
C2462 C 0.19814 0.78686 0.26308 0.0
C2463 C 0.17804 0.79191 0.25477 0.0
H2464 H 0.50956 0.86027 0.47528 0.0
H2465 H 0.5188 0.87525 0.40764 0.0
H2466 H 0.52356 0.91415 0.41935 0.0
H2467 H 0.52662 0.94384 0.44881 0.0
H2468 H 0.51739 0.92972 0.51667 0.0
H2469 H 0.51088 0.89053 0.50486 0.0
C2470 C 0.51263 0.87211 0.46318 0.0
C2471 C 0.51385 0.86493 0.44065 0.0
C2472 C 0.51531 0.89454 0.47003 0.0
C2473 C 0.51758 0.88038 0.42503 0.0
C2474 C 0.52039 0.90262 0.43172 0.0
C2475 C 0.5231 0.93221 0.46104 0.0
C2476 C 0.52269 0.93963 0.4836 0.0
C2477 C 0.51947 0.90986 0.45417 0.0
C2478 C 0.51779 0.92438 0.49918 0.0
C2479 C 0.51418 0.902 0.49246 0.0
H2480 H 0.40292 0.25654 0.68114 0.0
H2481 H 0.42982 0.2472 0.74713 0.0
H2482 H 0.39399 0.24755 0.76129 0.0
H2483 H 0.35498 0.25124 0.75474 0.0
H2484 H 0.32934 0.26181 0.6885 0.0
H2485 H 0.36464 0.26001 0.67459 0.0
C2486 C 0.40088 0.25428 0.69856 0.0
C2487 C 0.41886 0.25164 0.71303 0.0
C2488 C 0.38046 0.25478 0.70655 0.0
C2489 C 0.41614 0.24928 0.73569 0.0
C2490 C 0.39569 0.24944 0.74376 0.0
C2491 C 0.35716 0.25305 0.73727 0.0
C2492 C 0.33958 0.25671 0.72272 0.0
C2493 C 0.37772 0.2523 0.72934 0.0
C2494 C 0.34264 0.25915 0.70013 0.0
C2495 C 0.36281 0.25807 0.6921 0.0
H2496 H 0.97956 0.85572 0.57969 0.0
H2497 H 0.04862 0.85717 0.57594 0.0
H2498 H 0.05085 0.89123 0.55799 0.0
H2499 H 0.03332 0.92155 0.54489 0.0
H2500 H 0.96435 0.91992 0.54963 0.0
H2501 H 0.96187 0.88474 0.56512 0.0
C2502 C 0.99505 0.86326 0.57462 0.0
C2503 C 0.01389 0.85389 0.57919 0.0
C2504 C 0.99622 0.88282 0.5644 0.0
C2505 C 0.03391 0.86417 0.57288 0.0
C2506 C 0.03517 0.88359 0.5625 0.0
C2507 C 0.01772 0.9133 0.549 0.0
C2508 C 0.99905 0.92332 0.54614 0.0
C2509 C 0.01647 0.8932 0.55838 0.0
C2510 C 0.97898 0.91258 0.55178 0.0
C2511 C 0.97754 0.89248 0.56067 0.0
H2512 H 0.40579 0.77838 0.86571 0.0
H2513 H 0.42609 0.76391 0.80011 0.0
H2514 H 0.38834 0.76059 0.78383 0.0
H2515 H 0.34919 0.75949 0.78875 0.0
H2516 H 0.32943 0.77299 0.85481 0.0
H2517 H 0.36744 0.77961 0.87029 0.0
C2518 C 0.40208 0.77496 0.84778 0.0
C2519 C 0.41877 0.77143 0.83416 0.0
C2520 C 0.3804 0.77292 0.83861 0.0
C2521 C 0.41352 0.7665 0.81101 0.0
C2522 C 0.39195 0.76469 0.80168 0.0
C2523 C 0.35326 0.76426 0.80646 0.0
C2524 C 0.33652 0.7657 0.82063 0.0
C2525 C 0.3752 0.76754 0.81538 0.0
C2526 C 0.34201 0.77167 0.84358 0.0
C2527 C 0.36374 0.77541 0.85246 0.0
H2528 H 0.5291 0.13929 0.07865 0.0
H2529 H 0.4698 0.14216 0.03771 0.0
H2530 H 0.46997 0.10511 0.02083 0.0
H2531 H 0.48707 0.07173 0.01798 0.0
H2532 H 0.54671 0.07002 0.05904 0.0
H2533 H 0.54653 0.10699 0.07514 0.0
C2534 C 0.51637 0.13201 0.06577 0.0
C2535 C 0.49957 0.14359 0.05935 0.0
C2536 C 0.51667 0.11089 0.05607 0.0
C2537 C 0.48287 0.13357 0.04309 0.0
C2538 C 0.48303 0.11243 0.03333 0.0
C2539 C 0.5001 0.07954 0.03031 0.0
C2540 C 0.51685 0.06806 0.03728 0.0
C2541 C 0.49987 0.10091 0.03971 0.0
C2542 C 0.53356 0.07839 0.05338 0.0
C2543 C 0.53349 0.09956 0.06265 0.0
H2544 H 0.11853 0.25599 0.31429 0.0
H2545 H 0.14246 0.25826 0.38381 0.0
H2546 H 0.1795 0.25929 0.37351 0.0
H2547 H 0.20542 0.26204 0.3454 0.0
H2548 H 0.18283 0.26118 0.27578 0.0
H2549 H 0.14495 0.25686 0.28544 0.0
C2550 C 0.13187 0.25669 0.32714 0.0
C2551 C 0.12763 0.25697 0.34981 0.0
C2552 C 0.15337 0.25753 0.32111 0.0
C2553 C 0.14511 0.25766 0.36624 0.0
C2554 C 0.16637 0.2584 0.36038 0.0
C2555 C 0.19223 0.26073 0.33225 0.0
C2556 C 0.19695 0.26212 0.30993 0.0
C2557 C 0.17071 0.25863 0.33795 0.0
C2558 C 0.17964 0.26012 0.2931 0.0
C2559 C 0.158 0.25781 0.29865 0.0
H2560 H 0.97576 0.03396 0.15188 0.0
H2561 H 0.92185 0.98477 0.12417 0.0
H2562 H 0.93762 0.98293 0.08848 0.0
H2563 H 0.96615 0.99539 0.06489 0.0
H2564 H 0.02059 0.04429 0.09172 0.0
H2565 H 0.00513 0.0462 0.1279 0.0
C2566 C 0.96745 0.02289 0.13799 0.0
C2567 C 0.94765 0.00943 0.14083 0.0
C2568 C 0.97667 0.02188 0.11733 0.0
C2569 C 0.93724 0.99506 0.12267 0.0
C2570 C 0.94618 0.99409 0.10216 0.0
C2571 C 0.97474 0.0065 0.0786 0.0
C2572 C 0.99453 0.01973 0.07548 0.0
C2573 C 0.96583 0.00741 0.09929 0.0
C2574 C 0.00536 0.03391 0.09359 0.0
C2575 C 0.99649 0.03502 0.11429 0.0
H2576 H 0.25606 0.67042 0.40852 0.0
H2577 H 0.25168 0.73253 0.44327 0.0
H2578 H 0.25187 0.74943 0.40783 0.0
H2579 H 0.25498 0.74659 0.36704 0.0
H2580 H 0.26163 0.6845 0.33343 0.0
H2581 H 0.25863 0.66745 0.36829 0.0
C2582 C 0.25481 0.68759 0.40825 0.0
C2583 C 0.25369 0.70023 0.4283 0.0
C2584 C 0.25545 0.69717 0.38805 0.0
C2585 C 0.25257 0.72254 0.42792 0.0
C2586 C 0.25267 0.73216 0.40772 0.0
C2587 C 0.25559 0.72932 0.36742 0.0
C2588 C 0.2586 0.71682 0.34781 0.0
C2589 C 0.25436 0.71967 0.38769 0.0
C2590 C 0.25954 0.69449 0.34841 0.0
C2591 C 0.25777 0.6847 0.3683 0.0
H2592 H 0.54928 0.98016 0.65586 0.0
H2593 H 0.60217 0.03199 0.64901 0.0
H2594 H 0.5857 0.03759 0.61238 0.0
H2595 H 0.55674 0.02795 0.58246 0.0
H2596 H 0.50403 0.97546 0.58747 0.0
H2597 H 0.51966 0.97027 0.62499 0.0
C2598 C 0.5572 0.99255 0.64622 0.0
C2599 C 0.57683 0.00574 0.65514 0.0
C2600 C 0.54759 0.99573 0.62505 0.0
C2601 C 0.5869 0.02185 0.64261 0.0
C2602 C 0.57753 0.02505 0.62166 0.0
C2603 C 0.54866 0.01526 0.59165 0.0
C2604 C 0.52942 0.00191 0.58208 0.0
C2605 C 0.5579 0.01214 0.61279 0.0
C2606 C 0.5189 0.98593 0.59448 0.0
C2607 C 0.52791 0.98288 0.61584 0.0
H2608 H 0.2245 0.32247 0.92128 0.0
H2609 H 0.292 0.31468 0.93245 0.0
H2610 H 0.29141 0.29975 0.89358 0.0
H2611 H 0.27252 0.29231 0.85514 0.0
H2612 H 0.20602 0.30342 0.84433 0.0
H2613 H 0.20545 0.31377 0.88409 0.0
C2614 C 0.23914 0.31759 0.91525 0.0
C2615 C 0.25832 0.32001 0.92977 0.0
C2616 C 0.23889 0.30971 0.89277 0.0
C2617 C 0.27694 0.31294 0.92174 0.0
C2618 C 0.27667 0.30455 0.89942 0.0
C2619 C 0.25789 0.29669 0.86166 0.0
C2620 C 0.23938 0.29725 0.84691 0.0
C2621 C 0.25787 0.30331 0.88461 0.0
C2622 C 0.22052 0.3031 0.85541 0.0
C2623 C 0.22017 0.30901 0.87812 0.0
H2624 H 0.96089 1.0001 0.36525 0.0
H2625 H 0.92133 0.05098 0.37186 0.0
H2626 H 0.93163 0.05633 0.41199 0.0
H2627 H 0.9518 0.04684 0.44515 0.0
H2628 H 0.99253 0.99693 0.4393 0.0
H2629 H 0.98172 0.99077 0.39901 0.0
C2630 C 0.95452 0.01231 0.37553 0.0
C2631 C 0.94047 0.02523 0.36553 0.0
C2632 C 0.96064 0.01541 0.39873 0.0
C2633 C 0.93244 0.04107 0.37905 0.0
C2634 C 0.9382 0.04404 0.40204 0.0
C2635 C 0.95824 0.03449 0.43514 0.0
C2636 C 0.97285 0.02227 0.44528 0.0
C2637 C 0.95228 0.03134 0.41204 0.0
C2638 C 0.98123 0.00654 0.43193 0.0
C2639 C 0.97506 0.00303 0.40889 0.0
H2640 H 0.29709 0.70045 0.65752 0.0
H2641 H 0.2689 0.74829 0.62184 0.0
H2642 H 0.26829 0.77058 0.65702 0.0
H2643 H 0.27221 0.77437 0.69835 0.0
H2644 H 0.29854 0.72517 0.73349 0.0
H2645 H 0.30408 0.70582 0.69811 0.0
C2646 C 0.29131 0.71601 0.65735 0.0
C2647 C 0.28294 0.72264 0.63714 0.0
C2648 C 0.29069 0.7285 0.6776 0.0
C2649 C 0.27515 0.74268 0.63726 0.0
C2650 C 0.27487 0.75547 0.65735 0.0
C2651 C 0.2797 0.75975 0.69816 0.0
C2652 C 0.28502 0.75114 0.71834 0.0
C2653 C 0.2821 0.74827 0.67769 0.0
C2654 C 0.29434 0.732 0.71804 0.0
C2655 C 0.29741 0.7209 0.69785 0.0
H2656 H 0.5503 0.02168 0.86262 0.0
H2657 H 0.54376 0.95166 0.85062 0.0
H2658 H 0.52304 0.94735 0.88317 0.0
H2659 H 0.51061 0.96355 0.91724 0.0
H2660 H 0.5178 0.03362 0.92954 0.0
H2661 H 0.53371 0.03778 0.89411 0.0
C2662 C 0.54388 0.00545 0.86675 0.0
C2663 C 0.54887 0.98702 0.85439 0.0
C2664 C 0.53211 0.0031 0.88554 0.0
C2665 C 0.54058 0.96613 0.86015 0.0
C2666 C 0.52864 0.96365 0.87869 0.0
C2667 C 0.51528 0.97974 0.912 0.0
C2668 C 0.51334 0.99824 0.9262 0.0
C2669 C 0.5249 0.98204 0.89189 0.0
C2670 C 0.51924 0.01908 0.91902 0.0
C2671 C 0.52848 0.02149 0.89881 0.0
H2672 H 0.25104 0.29832 0.13711 0.0
H2673 H 0.28514 0.35962 0.16946 0.0
H2674 H 0.28621 0.34411 0.20542 0.0
H2675 H 0.27727 0.31343 0.22777 0.0
H2676 H 0.24433 0.25147 0.19581 0.0
H2677 H 0.24297 0.26692 0.15965 0.0
C2678 C 0.25865 0.30825 0.15207 0.0
C2679 C 0.26801 0.33012 0.15059 0.0
C2680 C 0.2594 0.29913 0.17275 0.0
C2681 C 0.27802 0.34272 0.17008 0.0
C2682 C 0.27854 0.33389 0.19067 0.0
C2683 C 0.26972 0.30325 0.21294 0.0
C2684 C 0.26075 0.28132 0.21459 0.0
C2685 C 0.26926 0.31214 0.19222 0.0
C2686 C 0.25132 0.26839 0.19507 0.0
C2687 C 0.25052 0.27723 0.17438 0.0
H2688 H 0.16627 0.97413 0.00192 0.0
H2689 H 0.16361 0.95844 0.07021 0.0
H2690 H 0.13205 0.9771 0.07366 0.0
H2691 H 0.10251 0.99391 0.05562 0.0
H2692 H 0.1044 0.00724 0.98668 0.0
H2693 H 0.13938 0.99426 0.98532 0.0
C2694 C 0.15917 0.97526 0.01776 0.0
C2695 C 0.16717 0.96472 0.0357 0.0
C2696 C 0.14089 0.98572 0.01951 0.0
C2697 C 0.15752 0.96609 0.056 0.0
C2698 C 0.13954 0.97684 0.05802 0.0
C2699 C 0.11106 0.99466 0.04063 0.0
C2700 C 0.10121 0.00172 0.02136 0.0
C2701 C 0.1307 0.9862 0.03969 0.0
C2702 C 0.11195 0.00206 0.00174 0.0
C2703 C 0.1318 0.99445 0.00091 0.0
H2704 H 0.64293 0.58602 0.01935 0.0
H2705 H 0.65571 0.53555 0.97132 0.0
H2706 H 0.61848 0.51624 0.97207 0.0
H2707 H 0.58218 0.5137 0.98665 0.0
H2708 H 0.57004 0.56487 0.03443 0.0
H2709 H 0.60712 0.58365 0.03366 0.0
C2710 C 0.63767 0.57067 0.00921 0.0
C2711 C 0.65217 0.56219 0.99542 0.0
C2712 C 0.6163 0.55973 0.00968 0.0
C2713 C 0.64487 0.54252 0.982 0.0
C2714 C 0.6236 0.53142 0.9825 0.0
C2715 C 0.58767 0.52894 0.9969 0.0
C2716 C 0.57324 0.53779 0.01058 0.0
C2717 C 0.60914 0.53987 0.99629 0.0
C2718 C 0.58067 0.55763 0.02369 0.0
C2719 C 0.60193 0.56843 0.0233 0.0
H2720 H 0.71749 0.4217 0.26311 0.0
H2721 H 0.67296 0.4009 0.31155 0.0
H2722 H 0.6866 0.36639 0.31195 0.0
H2723 H 0.71016 0.34153 0.29798 0.0
H2724 H 0.754 0.36097 0.24859 0.0
H2725 H 0.74143 0.39641 0.24898 0.0
C2726 C 0.71067 0.40959 0.27368 0.0
C2727 C 0.69426 0.41416 0.28741 0.0
C2728 C 0.71839 0.38944 0.27361 0.0
C2729 C 0.68588 0.39822 0.30115 0.0
C2730 C 0.69354 0.37831 0.30126 0.0
C2731 C 0.71709 0.35349 0.2873 0.0
C2732 C 0.73303 0.34851 0.27326 0.0
C2733 C 0.7097 0.37371 0.28751 0.0
C2734 C 0.74172 0.36431 0.25957 0.0
C2735 C 0.73451 0.38459 0.25978 0.0
H2736 H 0.86925 0.43652 0.55472 0.0
H2737 H 0.86163 0.46515 0.49235 0.0
H2738 H 0.90045 0.48098 0.49651 0.0
H2739 H 0.9368 0.48568 0.51759 0.0
H2740 H 0.94406 0.45499 0.57893 0.0
H2741 H 0.90515 0.44103 0.57552 0.0
C2742 C 0.87606 0.44649 0.54221 0.0
C2743 C 0.86268 0.44992 0.52341 0.0
C2744 C 0.89834 0.45503 0.54447 0.0
C2745 C 0.87172 0.4624 0.507 0.0
C2746 C 0.89385 0.47141 0.50938 0.0
C2747 C 0.9298 0.47601 0.53022 0.0
C2748 C 0.94329 0.47135 0.54846 0.0
C2749 C 0.90737 0.46768 0.52797 0.0
C2750 C 0.93407 0.45868 0.56464 0.0
C2751 C 0.9118 0.45073 0.56276 0.0
H2752 H 0.36001 0.13123 0.25524 0.0
H2753 H 0.29599 0.09363 0.25624 0.0
H2754 H 0.27954 0.12667 0.25287 0.0
H2755 H 0.28379 0.1669 0.25196 0.0
H2756 H 0.34835 0.20363 0.252 0.0
H2757 H 0.36408 0.17015 0.25181 0.0
C2758 C 0.34241 0.13009 0.25423 0.0
C2759 C 0.32928 0.10996 0.25595 0.0
C2760 C 0.33314 0.14904 0.25235 0.0
C2761 C 0.30652 0.10898 0.2552 0.0
C2762 C 0.29709 0.12784 0.25314 0.0
C2763 C 0.30122 0.1674 0.25144 0.0
C2764 C 0.31494 0.1876 0.25199 0.0
C2765 C 0.31028 0.14804 0.25199 0.0
C2766 C 0.33753 0.18821 0.25167 0.0
C2767 C 0.34654 0.16911 0.25164 0.0
H2768 H 0.36034 0.05447 0.52943 0.0
H2769 H 0.36276 0.06813 0.46048 0.0
H2770 H 0.39623 0.0525 0.45865 0.0
H2771 H 0.42596 0.037 0.47709 0.0
H2772 H 0.4241 0.02325 0.54604 0.0
H2773 H 0.38928 0.0368 0.54738 0.0
C2774 C 0.36819 0.05399 0.514 0.0
C2775 C 0.35903 0.06255 0.49513 0.0
C2776 C 0.38757 0.04502 0.51307 0.0
C2777 C 0.36926 0.06149 0.47518 0.0
C2778 C 0.38851 0.05267 0.47415 0.0
C2779 C 0.41789 0.0368 0.4924 0.0
C2780 C 0.42774 0.02925 0.51149 0.0
C2781 C 0.39796 0.04466 0.49306 0.0
C2782 C 0.41691 0.02894 0.53109 0.0
C2783 C 0.39703 0.03679 0.53189 0.0
H2784 H 0.72858 0.6236 0.28977 0.0
H2785 H 0.66432 0.63925 0.2736 0.0
H2786 H 0.68008 0.67657 0.26877 0.0
H2787 H 0.71184 0.70471 0.26845 0.0
H2788 H 0.77623 0.69049 0.28646 0.0
H2789 H 0.76066 0.65278 0.29136 0.0
C2790 C 0.718 0.63522 0.28543 0.0
C2791 C 0.69524 0.62836 0.28172 0.0
C2792 C 0.72718 0.65694 0.28291 0.0
C2793 C 0.68188 0.64376 0.276 0.0
C2794 C 0.69087 0.66522 0.27336 0.0
C2795 C 0.72254 0.69344 0.2735 0.0
C2796 C 0.74521 0.70049 0.27701 0.0
C2797 C 0.71348 0.67194 0.27657 0.0
C2798 C 0.75873 0.68556 0.28364 0.0
C2799 C 0.74982 0.66397 0.28644 0.0
H2800 H 0.81313 0.4008 0.77997 0.0
H2801 H 0.83695 0.40744 0.71514 0.0
H2802 H 0.82462 0.36864 0.7045 0.0
H2803 H 0.80845 0.33263 0.71407 0.0
H2804 H 0.78397 0.32568 0.77858 0.0
H2805 H 0.79519 0.3648 0.78892 0.0
C2806 C 0.81557 0.3937 0.76352 0.0
C2807 C 0.82595 0.40692 0.74838 0.0
C2808 C 0.80841 0.37136 0.7575 0.0
C2809 C 0.8288 0.39763 0.72701 0.0
C2810 C 0.82188 0.37543 0.72096 0.0
C2811 C 0.80553 0.33967 0.73039 0.0
C2812 C 0.79556 0.32627 0.7456 0.0
C2813 C 0.81187 0.36212 0.73614 0.0
C2814 C 0.79163 0.33567 0.76657 0.0
C2815 C 0.79809 0.35801 0.77251 0.0
H2816 H 0.04955 0.89447 0.10253 0.0
H2817 H 0.99825 0.8638 0.05285 0.0
H2818 H 0.99765 0.89866 0.03663 0.0
H2819 H 0.01171 0.93824 0.03708 0.0
H2820 H 0.0623 0.9681 0.08815 0.0
H2821 H 0.06328 0.93321 0.10313 0.0
C2822 C 0.03842 0.89534 0.08797 0.0
C2823 C 0.02414 0.8766 0.07875 0.0
C2824 C 0.038 0.91535 0.07902 0.0
C2825 C 0.00941 0.87807 0.06023 0.0
C2826 C 0.0091 0.89797 0.05095 0.0
C2827 C 0.02294 0.93702 0.05143 0.0
C2828 C 0.03684 0.95578 0.06149 0.0
C2829 C 0.02329 0.91678 0.06027 0.0
C2830 C 0.05127 0.954 0.08017 0.0
C2831 C 0.05193 0.93401 0.08876 0.0
H2832 H 0.89436 0.22626 0.8063 0.0
H2833 H 0.90179 0.2879 0.84635 0.0
H2834 H 0.86736 0.29519 0.82885 0.0
H2835 H 0.83504 0.284 0.80279 0.0
H2836 H 0.8268 0.22252 0.76232 0.0
H2837 H 0.86181 0.21536 0.77905 0.0
C2838 C 0.88832 0.24121 0.81116 0.0
C2839 C 0.90054 0.25656 0.82749 0.0
C2840 C 0.86852 0.24541 0.80086 0.0
C2841 C 0.89272 0.27597 0.83363 0.0
C2842 C 0.87305 0.28014 0.82367 0.0
C2843 C 0.84091 0.26905 0.79752 0.0
C2844 C 0.82829 0.25378 0.78143 0.0
C2845 C 0.86084 0.265 0.8073 0.0
C2846 C 0.83624 0.23459 0.77466 0.0
C2847 C 0.85619 0.23042 0.78432 0.0
H2848 H 0.52631 0.15484 0.56543 0.0
H2849 H 0.51914 0.14028 0.63358 0.0
H2850 H 0.51251 0.10139 0.62181 0.0
H2851 H 0.50679 0.0716 0.59221 0.0
H2852 H 0.51377 0.08518 0.52383 0.0
H2853 H 0.52256 0.12434 0.53563 0.0
C2854 C 0.52335 0.1431 0.57766 0.0
C2855 C 0.52327 0.15046 0.60035 0.0
C2856 C 0.51947 0.12062 0.57075 0.0
C2857 C 0.51961 0.13508 0.61606 0.0
C2858 C 0.51566 0.11282 0.60934 0.0
C2859 C 0.51033 0.0831 0.57986 0.0
C2860 C 0.50943 0.07554 0.55717 0.0
C2861 C 0.5153 0.10543 0.58674 0.0
C2862 C 0.51436 0.09062 0.54142 0.0
C2863 C 0.51928 0.113 0.54815 0.0
H2864 H 0.60695 0.77324 0.30751 0.0
H2865 H 0.60782 0.71175 0.33574 0.0
H2866 H 0.64306 0.70918 0.32192 0.0
H2867 H 0.67462 0.72526 0.30408 0.0
H2868 H 0.67503 0.78713 0.27647 0.0
H2869 H 0.63829 0.78866 0.28774 0.0
C2870 C 0.61486 0.75928 0.31059 0.0
C2871 C 0.60468 0.7427 0.32263 0.0
C2872 C 0.63538 0.758 0.3028 0.0
C2873 C 0.61505 0.72459 0.32625 0.0
C2874 C 0.63532 0.72317 0.3185 0.0
C2875 C 0.66666 0.73906 0.30039 0.0
C2876 C 0.67761 0.75615 0.28964 0.0
C2877 C 0.64575 0.7399 0.30706 0.0
C2878 C 0.66694 0.77376 0.28474 0.0
C2879 C 0.64599 0.77468 0.29128 0.0
H2880 H 0.03086 0.17888 0.49504 0.0
H2881 H 0.97978 0.15138 0.44352 0.0
H2882 H 0.97675 0.11639 0.45929 0.0
H2883 H 0.9903 0.0928 0.48587 0.0
H2884 H 0.04281 0.11937 0.53617 0.0
H2885 H 0.04364 0.15541 0.5226 0.0
C2886 C 0.01909 0.16524 0.48721 0.0
C2887 C 0.0056 0.16789 0.46806 0.0
C2888 C 0.01775 0.14491 0.49608 0.0
C2889 C 0.99017 0.15004 0.45844 0.0
C2890 C 0.98854 0.1299 0.46734 0.0
C2891 C 0.00178 0.1065 0.49407 0.0
C2892 C 0.01653 0.10332 0.51199 0.0
C2893 C 0.00245 0.12706 0.48593 0.0
C2894 C 0.03131 0.1213 0.52232 0.0
C2895 C 0.03183 0.14193 0.51453 0.0
H2896 H 0.61702 0.25045 0.21709 0.0
H2897 H 0.63232 0.26366 0.15035 0.0
H2898 H 0.67109 0.2696 0.16246 0.0
H2899 H 0.70058 0.27306 0.19211 0.0
H2900 H 0.68629 0.26062 0.25923 0.0
H2901 H 0.64726 0.25218 0.24685 0.0
C2902 C 0.62888 0.25461 0.20524 0.0
C2903 C 0.62175 0.25654 0.18283 0.0
C2904 C 0.65132 0.25815 0.21236 0.0
C2905 C 0.63732 0.26174 0.16761 0.0
C2906 C 0.65953 0.26528 0.17454 0.0
C2907 C 0.68897 0.26837 0.20405 0.0
C2908 C 0.6963 0.26765 0.22657 0.0
C2909 C 0.66668 0.26377 0.19688 0.0
C2910 C 0.68105 0.26128 0.24176 0.0
C2911 C 0.65873 0.25658 0.23472 0.0
H2912 H 0.50227 0.87301 0.96523 0.0
H2913 H 0.56986 0.87793 0.98985 0.0
H2914 H 0.56923 0.91445 0.00798 0.0
H2915 H 0.54953 0.94548 0.0157 0.0
H2916 H 0.48228 0.94031 0.98947 0.0
H2917 H 0.48258 0.90321 0.97346 0.0
C2918 C 0.51679 0.88193 0.97485 0.0
C2919 C 0.53603 0.87274 0.97635 0.0
C2920 C 0.51633 0.90286 0.98496 0.0
C2921 C 0.55487 0.88472 0.9884 0.0
C2922 C 0.55448 0.90554 0.99881 0.0
C2923 C 0.5349 0.93609 0.00672 0.0
C2924 C 0.5159 0.94559 0.00379 0.0
C2925 C 0.53532 0.91485 0.99709 0.0
C2926 C 0.49713 0.93338 0.99188 0.0
C2927 C 0.49728 0.91217 0.9827 0.0
H2928 H 0.89678 0.77355 0.70329 0.0
H2929 H 0.92182 0.72343 0.73835 0.0
H2930 H 0.89037 0.71991 0.76018 0.0
H2931 H 0.85466 0.72938 0.76772 0.0
H2932 H 0.83003 0.78007 0.73332 0.0
H2933 H 0.86281 0.78553 0.71348 0.0
C2934 C 0.89565 0.76214 0.71599 0.0
C2935 C 0.91161 0.74856 0.71884 0.0
C2936 C 0.87759 0.76033 0.72872 0.0
C2937 C 0.90958 0.73372 0.7353 0.0
C2938 C 0.89165 0.7318 0.74797 0.0
C2939 C 0.85657 0.74184 0.75612 0.0
C2940 C 0.83976 0.75414 0.75191 0.0
C2941 C 0.87538 0.74475 0.74455 0.0
C2942 C 0.84263 0.77031 0.73689 0.0
C2943 C 0.86135 0.77337 0.72541 0.0
H2944 H 0.04627 0.99361 0.87798 0.0
H2945 H 0.11005 0.01858 0.91136 0.0
H2946 H 0.09472 0.02041 0.94726 0.0
H2947 H 0.06357 0.01562 0.96915 0.0
H2948 H 0.99945 0.98962 0.93724 0.0
H2949 H 0.0145 0.98759 0.90079 0.0
C2950 C 0.05674 0.99945 0.89315 0.0
C2951 C 0.07933 0.00586 0.89196 0.0
C2952 C 0.04778 1.00029 0.91397 0.0
C2953 C 0.09271 0.01326 0.91178 0.0
C2954 C 0.08394 0.01442 0.93234 0.0
C2955 C 0.05277 0.00933 0.95432 0.0
C2956 C 0.03035 0.00272 0.95605 0.0
C2957 C 0.06154 0.00801 0.93362 0.0
C2958 C 0.01676 0.99473 0.93648 0.0
C2959 C 0.02538 0.99363 0.91562 0.0
H2960 H 0.73235 0.28789 0.60544 0.0
H2961 H 0.80123 0.31326 0.61558 0.0
H2962 H 0.80475 0.2926 0.64806 0.0
H2963 H 0.78767 0.26985 0.67527 0.0
H2964 H 0.71887 0.2442 0.66468 0.0
H2965 H 0.71621 0.26176 0.63004 0.0
C2966 C 0.74827 0.28855 0.61436 0.0
C2967 C 0.76642 0.3024 0.60818 0.0
C2968 C 0.75024 0.27649 0.6329 0.0
C2969 C 0.78684 0.30319 0.62025 0.0
C2970 C 0.78892 0.29123 0.63874 0.0
C2971 C 0.77216 0.26775 0.6652 0.0
C2972 C 0.75344 0.25596 0.67276 0.0
C2973 C 0.77063 0.27822 0.64549 0.0
C2974 C 0.73352 0.25329 0.65938 0.0
C2975 C 0.73194 0.26344 0.63961 0.0
H2976 H 0.45992 0.99356 0.38542 0.0
H2977 H 0.47191 0.06388 0.3907 0.0
H2978 H 0.49266 0.06449 0.42708 0.0
H2979 H 0.50557 0.04479 0.45841 0.0
H2980 H 0.49153 0.97459 0.45324 0.0
H2981 H 0.47401 0.97406 0.41543 0.0
C2982 C 0.4674 0.00903 0.39433 0.0
C2983 C 0.46445 0.02864 0.38536 0.0
C2984 C 0.47908 0.00923 0.41517 0.0
C2985 C 0.4738 0.04857 0.39737 0.0
C2986 C 0.48576 0.04892 0.41809 0.0
C2987 C 0.4991 0.02945 0.44868 0.0
C2988 C 0.49997 0.00974 0.45824 0.0
C2989 C 0.48832 0.02934 0.42726 0.0
C2990 C 0.49111 0.9899 0.44595 0.0
C2991 C 0.481 0.98961 0.42445 0.0
H2992 H 0.76254 0.72078 0.11628 0.0
H2993 H 0.76809 0.65441 0.12843 0.0
H2994 H 0.77198 0.66432 0.16859 0.0
H2995 H 0.77492 0.69174 0.20025 0.0
H2996 H 0.76932 0.7583 0.18921 0.0
H2997 H 0.76415 0.74841 0.14872 0.0
C2998 C 0.76462 0.70855 0.12778 0.0
C2999 C 0.76493 0.68686 0.11935 0.0
C3000 C 0.76678 0.71436 0.15104 0.0
C3001 C 0.76748 0.67113 0.13444 0.0
C3002 C 0.76981 0.6768 0.15743 0.0
C3003 C 0.77247 0.70412 0.18904 0.0
C3004 C 0.77262 0.72575 0.19776 0.0
C3005 C 0.76958 0.69834 0.16591 0.0
C3006 C 0.76922 0.74151 0.18295 0.0
C3007 C 0.76638 0.73587 0.15978 0.0
H3008 H 0.06422 0.0265 0.66953 0.0
H3009 H 0.0951 0.969 0.66648 0.0
H3010 H 0.08284 0.96127 0.62686 0.0
H3011 H 0.064 0.97091 0.59304 0.0
H3012 H 0.03155 0.02732 0.59527 0.0
H3013 H 0.04374 0.03545 0.63524 0.0
C3014 C 0.06821 0.01229 0.66013 0.0
C3015 C 0.0805 0.9983 0.67095 0.0
C3016 C 0.06089 0.00779 0.63724 0.0
C3017 C 0.08544 0.97986 0.65863 0.0
C3018 C 0.07854 0.97549 0.63594 0.0
C3019 C 0.05962 0.98506 0.60221 0.0
C3020 C 0.04709 0.99863 0.59115 0.0
C3021 C 0.06636 0.98937 0.62508 0.0
C3022 C 0.04124 0.01665 0.6034 0.0
C3023 C 0.04823 0.0213 0.62622 0.0
H3024 H 0.77663 0.31759 0.40152 0.0
H3025 H 0.70711 0.29749 0.39982 0.0
H3026 H 0.70671 0.27835 0.3626 0.0
H3027 H 0.72614 0.26922 0.32956 0.0
H3028 H 0.79528 0.29156 0.3314 0.0
H3029 H 0.79602 0.30729 0.36987 0.0
C3030 C 0.76143 0.30869 0.3932 0.0
C3031 C 0.74195 0.30888 0.40341 0.0
C3032 C 0.76133 0.29799 0.37189 0.0
C3033 C 0.7223 0.29771 0.39219 0.0
C3034 C 0.72209 0.28669 0.37099 0.0
C3035 C 0.74136 0.27714 0.33867 0.0
C3036 C 0.76067 0.27911 0.32795 0.0
C3037 C 0.74149 0.28692 0.36055 0.0
C3038 C 0.78028 0.28979 0.33953 0.0
C3039 C 0.78069 0.29889 0.36143 0.0
H3040 H 0.47304 0.99179 0.17659 0.0
H3041 H 0.46405 0.05925 0.17893 0.0
H3042 H 0.48397 0.06413 0.14603 0.0
H3043 H 0.50101 0.04859 0.11485 0.0
H3044 H 0.50919 0.98091 0.11117 0.0
H3045 H 0.49281 0.97683 0.14653 0.0
C3046 C 0.47552 0.00755 0.16989 0.0
C3047 C 0.467 0.0251 0.18011 0.0
C3048 C 0.48684 0.01021 0.15078 0.0
C3049 C 0.47061 0.04553 0.1715 0.0
C3050 C 0.4819 0.04832 0.15261 0.0
C3051 C 0.49949 0.033 0.12192 0.0
C3052 C 0.5061 0.01504 0.11033 0.0
C3053 C 0.48971 0.03069 0.1419 0.0
C3054 C 0.50424 0.99501 0.1198 0.0
C3055 C 0.49472 0.99262 0.13992 0.0
H3056 H 0.78543 0.72878 0.90859 0.0
H3057 H 0.74534 0.66988 0.87744 0.0
H3058 H 0.7451 0.68507 0.84136 0.0
H3059 H 0.75592 0.71492 0.81865 0.0
H3060 H 0.79504 0.7746 0.8492 0.0
H3061 H 0.79606 0.75928 0.88545 0.0
C3062 C 0.77672 0.71929 0.89386 0.0
C3063 C 0.76534 0.69823 0.89576 0.0
C3064 C 0.77648 0.72825 0.87306 0.0
C3065 C 0.75398 0.6862 0.87654 0.0
C3066 C 0.75392 0.69484 0.85586 0.0
C3067 C 0.76482 0.7246 0.83316 0.0
C3068 C 0.77553 0.74586 0.83109 0.0
C3069 C 0.76507 0.71583 0.85393 0.0
C3070 C 0.78668 0.75819 0.85025 0.0
C3071 C 0.78727 0.74943 0.871 0.0
H3072 H 0.8583 0.05619 0.99851 0.0
H3073 H 0.88973 0.11345 0.04037 0.0
H3074 H 0.92397 0.09896 0.04254 0.0
H3075 H 0.94497 0.07059 0.03239 0.0
H3076 H 0.91509 0.01358 0.98925 0.0
H3077 H 0.88016 0.0274 0.9876 0.0
C3078 C 0.87268 0.06534 0.00814 0.0
C3079 C 0.87161 0.08583 0.01927 0.0
C3080 C 0.89249 0.05703 0.00901 0.0
C3081 C 0.8903 0.09772 0.03156 0.0
C3082 C 0.90983 0.08944 0.03284 0.0
C3083 C 0.93084 0.06105 0.02266 0.0
C3084 C 0.93258 0.041 0.01108 0.0
C3085 C 0.91111 0.06919 0.02159 0.0
C3086 C 0.91415 0.02906 0.99833 0.0
C3087 C 0.8942 0.03695 0.99743 0.0
H3088 H 0.3848 0.43631 0.01683 0.0
H3089 H 0.37471 0.48512 0.06804 0.0
H3090 H 0.41173 0.50449 0.06596 0.0
H3091 H 0.44701 0.5076 0.04918 0.0
H3092 H 0.45668 0.45779 0.9986 0.0
H3093 H 0.4198 0.43898 0.0007 0.0
C3094 C 0.39064 0.45128 0.02743 0.0
C3095 C 0.37696 0.45936 0.04243 0.0
C3096 C 0.4119 0.4622 0.02622 0.0
C3097 C 0.38495 0.47852 0.0564 0.0
C3098 C 0.40608 0.48964 0.05514 0.0
C3099 C 0.44101 0.49267 0.03859 0.0
C3100 C 0.45466 0.48421 0.02372 0.0
C3101 C 0.41971 0.48166 0.04005 0.0
C3102 C 0.44664 0.46471 0.01025 0.0
C3103 C 0.42549 0.4539 0.0114 0.0
H3104 H 0.30199 0.60491 0.73895 0.0
H3105 H 0.35122 0.62765 0.79361 0.0
H3106 H 0.33445 0.66004 0.80139 0.0
H3107 H 0.30657 0.68272 0.7919 0.0
H3108 H 0.25747 0.66005 0.73708 0.0
H3109 H 0.27312 0.62677 0.73054 0.0
C3110 C 0.30891 0.61679 0.75274 0.0
C3111 C 0.328 0.61382 0.76551 0.0
C3112 C 0.29915 0.63546 0.75719 0.0
C3113 C 0.33681 0.62962 0.78318 0.0
C3114 C 0.32713 0.64813 0.78777 0.0
C3115 C 0.2991 0.67039 0.7787 0.0
C3116 C 0.28082 0.67398 0.76503 0.0
C3117 C 0.30841 0.65134 0.77477 0.0
C3118 C 0.27153 0.65781 0.74789 0.0
C3119 C 0.28052 0.63875 0.74407 0.0
H3120 H 0.1421 0.59984 0.5414 0.0
H3121 H 0.16274 0.53747 0.52863 0.0
H3122 H 0.12462 0.51961 0.52233 0.0
H3123 H 0.08552 0.52245 0.51696 0.0
H3124 H 0.06545 0.58554 0.52638 0.0
H3125 H 0.10313 0.60246 0.5377 0.0
C3126 C 0.13816 0.58228 0.53772 0.0
C3127 C 0.15502 0.56989 0.53562 0.0
C3128 C 0.11632 0.57234 0.53331 0.0
C3129 C 0.14989 0.54723 0.53038 0.0
C3130 C 0.12815 0.53708 0.52671 0.0
C3131 C 0.08944 0.53983 0.52184 0.0
C3132 C 0.07288 0.55279 0.52079 0.0
C3133 C 0.11124 0.54955 0.5276 0.0
C3134 C 0.07805 0.57532 0.52689 0.0
C3135 C 0.09955 0.58498 0.53338 0.0
H3136 H 0.67262 0.8901 0.78737 0.0
H3137 H 0.73447 0.93299 0.79484 0.0
H3138 H 0.75363 0.90157 0.79708 0.0
H3139 H 0.75264 0.86145 0.79409 0.0
H3140 H 0.69037 0.81929 0.78468 0.0
H3141 H 0.67151 0.85083 0.78666 0.0
C3142 C 0.69028 0.89264 0.78994 0.0
C3143 C 0.70209 0.91383 0.79092 0.0
C3144 C 0.70111 0.87458 0.79091 0.0
C3145 C 0.72501 0.91679 0.79379 0.0
C3146 C 0.73596 0.89885 0.79517 0.0
C3147 C 0.73497 0.8593 0.79295 0.0
C3148 C 0.72284 0.8382 0.78927 0.0
C3149 C 0.72419 0.8776 0.79336 0.0
C3150 C 0.69997 0.83546 0.78744 0.0
C3151 C 0.68919 0.85346 0.78851 0.0
H3152 H 0.67382 0.97088 0.55355 0.0
H3153 H 0.65568 0.9344 0.48928 0.0
H3154 H 0.62332 0.95199 0.48435 0.0
H3155 H 0.59876 0.97597 0.49955 0.0
H3156 H 0.61638 0.01097 0.56467 0.0
H3157 H 0.65043 0.99614 0.5678 0.0
C3158 C 0.66297 0.96703 0.53831 0.0
C3159 C 0.66714 0.95126 0.52187 0.0
C3160 C 0.64424 0.977 0.53572 0.0
C3161 C 0.65271 0.94626 0.50234 0.0
C3162 C 0.63425 0.95639 0.49947 0.0
C3163 C 0.61028 0.98068 0.51419 0.0
C3164 C 0.60507 0.99463 0.5318 0.0
C3165 C 0.62964 0.97155 0.5162 0.0
C3166 C 0.62 1.00028 0.55086 0.0
C3167 C 0.63946 0.99174 0.55272 0.0
H3168 H 0.33045 0.38648 0.73235 0.0
H3169 H 0.28692 0.41806 0.77119 0.0
H3170 H 0.26585 0.38262 0.77619 0.0
H3171 H 0.26061 0.34243 0.77081 0.0
H3172 H 0.30479 0.31111 0.73249 0.0
H3173 H 0.32445 0.34653 0.72582 0.0
C3174 C 0.31616 0.38564 0.74163 0.0
C3175 C 0.31035 0.40496 0.75141 0.0
C3176 C 0.3042 0.36517 0.74461 0.0
C3177 C 0.29195 0.40348 0.76369 0.0
C3178 C 0.27983 0.38319 0.7665 0.0
C3179 C 0.2744 0.34334 0.76081 0.0
C3180 C 0.28114 0.32401 0.75221 0.0
C3181 C 0.28593 0.36389 0.75724 0.0
C3182 C 0.29919 0.32561 0.73941 0.0
C3183 C 0.31051 0.34592 0.73557 0.0
H3184 H 0.17495 0.61762 0.25079 0.0
H3185 H 0.23867 0.60087 0.26663 0.0
H3186 H 0.25466 0.63957 0.27065 0.0
H3187 H 0.24988 0.67821 0.27261 0.0
H3188 H 0.18558 0.69455 0.25925 0.0
H3189 H 0.17046 0.65595 0.25083 0.0
C3190 C 0.19241 0.62243 0.25466 0.0
C3191 C 0.20565 0.60648 0.25834 0.0
C3192 C 0.20133 0.64463 0.25743 0.0
C3193 C 0.22817 0.61293 0.26383 0.0
C3194 C 0.23729 0.63501 0.2661 0.0
C3195 C 0.23265 0.67328 0.26742 0.0
C3196 C 0.21882 0.68909 0.26649 0.0
C3197 C 0.22396 0.65102 0.26334 0.0
C3198 C 0.19647 0.68258 0.26012 0.0
C3199 C 0.18783 0.66055 0.25536 0.0
H3200 H 0.52724 0.63658 0.43503 0.0
H3201 H 0.50456 0.6662 0.49416 0.0
H3202 H 0.50145 0.63135 0.51063 0.0
H3203 H 0.50163 0.59136 0.50636 0.0
H3204 H 0.52438 0.56286 0.44683 0.0
H3205 H 0.53205 0.59865 0.43292 0.0
C3206 C 0.52226 0.63578 0.45182 0.0
C3207 C 0.516 0.65413 0.46317 0.0
C3208 C 0.52065 0.61581 0.46123 0.0
C3209 C 0.50906 0.65231 0.48473 0.0
C3210 C 0.50742 0.63239 0.49427 0.0
C3211 C 0.50893 0.5932 0.49072 0.0
C3212 C 0.51247 0.5746 0.4776 0.0
C3213 C 0.51269 0.61386 0.48244 0.0
C3214 C 0.52154 0.57702 0.45717 0.0
C3215 C 0.52577 0.59743 0.44913 0.0
H3216 H 0.63203 0.24276 0.72204 0.0
H3217 H 0.6376 0.31161 0.74153 0.0
H3218 H 0.67518 0.31242 0.75746 0.0
H3219 H 0.70712 0.29373 0.76384 0.0
H3220 H 0.7013 0.22517 0.74248 0.0
H3221 H 0.66301 0.22396 0.72966 0.0
C3222 C 0.64132 0.25786 0.73016 0.0
C3223 C 0.63206 0.27706 0.73073 0.0
C3224 C 0.66289 0.25825 0.73888 0.0
C3225 C 0.64446 0.29663 0.74082 0.0
C3226 C 0.6659 0.29708 0.74995 0.0
C3227 C 0.69733 0.27851 0.75665 0.0
C3228 C 0.70698 0.2596 0.75401 0.0
C3229 C 0.67539 0.27803 0.74879 0.0
C3230 C 0.69425 0.23999 0.74449 0.0
C3231 C 0.67237 0.23926 0.73716 0.0
H3232 H 0.00525 0.36687 0.98723 0.0
H3233 H 0.00429 0.37445 0.9166 0.0
H3234 H 0.00933 0.41392 0.92421 0.0
H3235 H 0.01609 0.44626 0.95073 0.0
H3236 H 0.01729 0.43967 0.02151 0.0
H3237 H 0.0098 0.39987 0.01407 0.0
C3238 C 0.00608 0.37724 0.97358 0.0
C3239 C 0.00435 0.36779 0.9514 0.0
C3240 C 0.00899 0.40005 0.97807 0.0
C3241 C 0.00529 0.38133 0.9338 0.0
C3242 C 0.00828 0.40391 0.93812 0.0
C3243 C 0.01453 0.43613 0.96454 0.0
C3244 C 0.0174 0.44584 0.9866 0.0
C3245 C 0.0104 0.41342 0.96016 0.0
C3246 C 0.01509 0.43254 0.00434 0.0
C3247 C 0.01096 0.4098 1.0001 0.0
H3248 H 0.92579 0.75752 0.23134 0.0
H3249 H 0.91431 0.8047 0.18472 0.0
H3250 H 0.87817 0.80541 0.19692 0.0
H3251 H 0.84932 0.79191 0.21957 0.0
H3252 H 0.85921 0.74344 0.26508 0.0
H3253 H 0.89638 0.74377 0.25431 0.0
C3254 C 0.91535 0.76788 0.22377 0.0
C3255 C 0.92297 0.78118 0.20724 0.0
C3256 C 0.89425 0.76791 0.23055 0.0
C3257 C 0.90921 0.79466 0.19782 0.0
C3258 C 0.8884 0.79494 0.20463 0.0
C3259 C 0.85958 0.78144 0.22726 0.0
C3260 C 0.85147 0.76766 0.24311 0.0
C3261 C 0.88072 0.78156 0.22085 0.0
C3262 C 0.86504 0.7542 0.25282 0.0
C3263 C 0.88628 0.75438 0.24665 0.0
H3264 H 0.5056 0.34414 0.02979 0.0
H3265 H 0.55186 0.37277 0.08528 0.0
H3266 H 0.55598 0.40764 0.06923 0.0
H3267 H 0.54419 0.43082 0.0414 0.0
H3268 H 0.49626 0.40321 0.98699 0.0
H3269 H 0.49514 0.36717 0.00064 0.0
C3270 C 0.51657 0.35801 0.03837 0.0
C3271 C 0.52835 0.35576 0.05876 0.0
C3272 C 0.51854 0.37824 0.02929 0.0
C3273 C 0.54279 0.37385 0.06944 0.0
C3274 C 0.54505 0.3939 0.06036 0.0
C3275 C 0.53371 0.4169 0.03229 0.0
C3276 C 0.52021 0.41978 0.01327 0.0
C3277 C 0.53274 0.39637 0.04052 0.0
C3278 C 0.50676 0.4015 0.00172 0.0
C3279 C 0.50604 0.38088 0.00958 0.0
H3280 H 0.8992 0.27045 0.36124 0.0
H3281 H 0.92292 0.26084 0.29644 0.0
H3282 H 0.88572 0.25748 0.27854 0.0
H3283 H 0.84608 0.25545 0.28164 0.0
H3284 H 0.82291 0.26362 0.3469 0.0
H3285 H 0.8603 0.26994 0.36425 0.0
C3286 C 0.89631 0.268 0.34316 0.0
C3287 C 0.91382 0.26597 0.33019 0.0
C3288 C 0.87495 0.26588 0.33307 0.0
C3289 C 0.9097 0.26229 0.30681 0.0
C3290 C 0.88845 0.26047 0.29658 0.0
C3291 C 0.84931 0.25898 0.29961 0.0
C3292 C 0.83182 0.25911 0.313 0.0
C3293 C 0.8709 0.262 0.30957 0.0
C3294 C 0.83614 0.26337 0.33628 0.0
C3295 C 0.85749 0.26694 0.34622 0.0
H3296 H 0.97406 0.63774 0.55509 0.0
H3297 H 0.0381 0.64821 0.59073 0.0
H3298 H 0.04381 0.61188 0.5767 0.0
H3299 H 0.0303 0.57688 0.55546 0.0
H3300 H 0.96696 0.56602 0.51838 0.0
H3301 H 0.9613 0.60286 0.53155 0.0
C3302 C 0.98924 0.63199 0.55966 0.0
C3303 C 0.00565 0.64552 0.57388 0.0
C3304 C 0.99253 0.61112 0.55127 0.0
C3305 C 0.02534 0.63808 0.57964 0.0
C3306 C 0.02858 0.61732 0.5717 0.0
C3307 C 0.01526 0.58259 0.55019 0.0
C3308 C 0.99897 0.56874 0.53617 0.0
C3309 C 0.01225 0.60368 0.55766 0.0
C3310 C 0.97974 0.57645 0.52916 0.0
C3311 C 0.97647 0.59744 0.53678 0.0
H3312 H 0.62142 0.75402 0.81561 0.0
H3313 H 0.64548 0.75154 0.8844 0.0
H3314 H 0.68237 0.75248 0.8736 0.0
H3315 H 0.7083 0.75733 0.84547 0.0
H3316 H 0.68537 0.76116 0.77673 0.0
H3317 H 0.64758 0.75606 0.78657 0.0
C3318 C 0.63475 0.75361 0.82819 0.0
C3319 C 0.63062 0.75274 0.8508 0.0
C3320 C 0.65614 0.75439 0.82189 0.0
C3321 C 0.64805 0.75193 0.86686 0.0
C3322 C 0.66923 0.75261 0.86073 0.0
C3323 C 0.69501 0.75674 0.83255 0.0
C3324 C 0.69961 0.75976 0.81045 0.0
C3325 C 0.67351 0.75425 0.8384 0.0
C3326 C 0.68224 0.75875 0.79386 0.0
C3327 C 0.66065 0.75605 0.79953 0.0
H3328 H 0.42707 0.50823 0.62247 0.0
H3329 H 0.48694 0.52638 0.66533 0.0
H3330 H 0.50793 0.52587 0.6327 0.0
H3331 H 0.50932 0.52011 0.59158 0.0
H3332 H 0.4488 0.50218 0.5495 0.0
H3333 H 0.4283 0.50326 0.58203 0.0
C3334 C 0.4447 0.51237 0.62474 0.0
C3335 C 0.45529 0.51736 0.64646 0.0
C3336 C 0.45668 0.51216 0.6059 0.0
C3337 C 0.47825 0.52221 0.64891 0.0
C3338 C 0.4903 0.52205 0.6302 0.0
C3339 C 0.49166 0.51652 0.58954 0.0
C3340 C 0.48076 0.51111 0.56794 0.0
C3341 C 0.47971 0.51699 0.60855 0.0
C3342 C 0.4578 0.50642 0.56576 0.0
C3343 C 0.44594 0.507 0.58443 0.0
H3344 H 0.75484 0.2246 0.92393 0.0
H3345 H 0.8241 0.22353 0.93271 0.0
H3346 H 0.82939 0.24379 0.90003 0.0
H3347 H 0.81387 0.25813 0.8668 0.0
H3348 H 0.74462 0.25909 0.8578 0.0
H3349 H 0.73995 0.24331 0.89328 0.0
C3350 C 0.77116 0.22923 0.91904 0.0
C3351 C 0.78898 0.22217 0.93052 0.0
C3352 C 0.7741 0.24089 0.90022 0.0
C3353 C 0.81001 0.22824 0.92382 0.0
C3354 C 0.81309 0.23995 0.90522 0.0
C3355 C 0.7978 0.25526 0.87279 0.0
C3356 C 0.7796 0.25947 0.85953 0.0
C3357 C 0.79517 0.24577 0.89293 0.0
C3358 C 0.75892 0.25593 0.86765 0.0
C3359 C 0.7562 0.24674 0.88786 0.0
H3360 H 0.08961 0.51609 0.14597 0.0
H3361 H 0.03427 0.47216 0.16318 0.0
H3362 H 0.01465 0.47525 0.12692 0.0
H3363 H 0.01339 0.49096 0.09027 0.0
H3364 H 0.06946 0.53521 0.07457 0.0
H3365 H 0.08834 0.5318 0.11049 0.0
C3366 C 0.07313 0.5074 0.14197 0.0
C3367 C 0.06332 0.49414 0.15735 0.0
C3368 C 0.06201 0.5094 0.12136 0.0
C3369 C 0.04221 0.48245 0.15158 0.0
C3370 C 0.03096 0.48431 0.13092 0.0
C3371 C 0.02967 0.49994 0.09482 0.0
C3372 C 0.03991 0.51333 0.07969 0.0
C3373 C 0.04069 0.49784 0.11568 0.0
C3374 C 0.06111 0.52475 0.08579 0.0
C3375 C 0.07201 0.52282 0.10637 0.0
H3376 H 0.77501 0.81075 0.41965 0.0
H3377 H 0.715 0.83744 0.41623 0.0
H3378 H 0.70883 0.82636 0.37622 0.0
H3379 H 0.7209 0.81024 0.34206 0.0
H3380 H 0.77992 0.78194 0.34486 0.0
H3381 H 0.78613 0.79248 0.38526 0.0
C3382 C 0.76057 0.81403 0.4101 0.0
C3383 C 0.74546 0.82488 0.42088 0.0
C3384 C 0.75702 0.80744 0.38703 0.0
C3385 C 0.72673 0.82889 0.40838 0.0
C3386 C 0.72326 0.8227 0.38547 0.0
C3387 C 0.73516 0.8064 0.35149 0.0
C3388 C 0.75008 0.79558 0.34049 0.0
C3389 C 0.73837 0.81215 0.37461 0.0
C3390 C 0.76824 0.79033 0.35299 0.0
C3391 C 0.7718 0.79638 0.37605 0.0
H3392 H 0.46248 0.49823 0.86607 0.0
H3393 H 0.43509 0.55782 0.87017 0.0
H3394 H 0.44593 0.56358 0.91025 0.0
H3395 H 0.46202 0.55126 0.94427 0.0
H3396 H 0.49143 0.49294 0.94086 0.0
H3397 H 0.48107 0.48706 0.90037 0.0
C3398 C 0.45902 0.51249 0.8758 0.0
C3399 C 0.44801 0.52759 0.8652 0.0
C3400 C 0.46556 0.51586 0.89891 0.0
C3401 C 0.44373 0.5461 0.8779 0.0
C3402 C 0.44981 0.54934 0.90084 0.0
C3403 C 0.46615 0.53722 0.93467 0.0
C3404 C 0.47719 0.52237 0.94553 0.0
C3405 C 0.46054 0.53425 0.91152 0.0
C3406 C 0.48287 0.50454 0.93284 0.0
C3407 C 0.4769 0.50118 0.90973 0.0
H3408 H 0.80019 0.20928 0.14522 0.0
H3409 H 0.73839 0.22305 0.11699 0.0
H3410 H 0.73466 0.2452 0.15121 0.0
H3411 H 0.74765 0.25832 0.19037 0.0
H3412 H 0.8098 0.24548 0.2179 0.0
H3413 H 0.81514 0.22597 0.18238 0.0
C3414 C 0.78612 0.21749 0.14623 0.0
C3415 C 0.76946 0.21411 0.12853 0.0
C3416 C 0.78424 0.23057 0.1658 0.0
C3417 C 0.75121 0.22475 0.1305 0.0
C3418 C 0.74914 0.23765 0.15001 0.0
C3419 C 0.76263 0.25183 0.18824 0.0
C3420 C 0.77848 0.25346 0.20639 0.0
C3421 C 0.76538 0.24037 0.16791 0.0
C3422 C 0.79759 0.24457 0.20388 0.0
C3423 C 0.80053 0.23328 0.18369 0.0
H3424 H 0.05182 0.50966 0.36206 0.0
H3425 H 0.10621 0.48057 0.38791 0.0
H3426 H 0.09159 0.47947 0.42406 0.0
H3427 H 0.0643 0.4876 0.44869 0.0
H3428 H 0.01092 0.51881 0.42451 0.0
H3429 H 0.02449 0.51859 0.38738 0.0
C3430 C 0.06059 0.50326 0.37564 0.0
C3431 C 0.08003 0.49504 0.37208 0.0
C3432 C 0.05236 0.50314 0.3967 0.0
C3433 C 0.09098 0.48655 0.38988 0.0
C3434 C 0.08274 0.48609 0.41069 0.0
C3435 C 0.0555 0.49429 0.43532 0.0
C3436 C 0.03659 0.50315 0.43933 0.0
C3437 C 0.06353 0.49438 0.41428 0.0
C3438 C 0.02554 0.51189 0.42183 0.0
C3439 C 0.03329 0.51176 0.40063 0.0
H3440 H 0.75548 0.8446 0.66208 0.0
H3441 H 0.75195 0.78517 0.61914 0.0
H3442 H 0.75185 0.76417 0.65178 0.0
H3443 H 0.75377 0.76283 0.69301 0.0
H3444 H 0.75724 0.82284 0.73513 0.0
H3445 H 0.75583 0.84319 0.70242 0.0
C3446 C 0.75434 0.82701 0.65974 0.0
C3447 C 0.75373 0.81658 0.63807 0.0
C3448 C 0.75423 0.81503 0.67856 0.0
C3449 C 0.75272 0.79376 0.63559 0.0
C3450 C 0.75253 0.78169 0.65428 0.0
C3451 C 0.75399 0.78031 0.69497 0.0
C3452 C 0.75573 0.79123 0.71658 0.0
C3453 C 0.75343 0.79215 0.67592 0.0
C3454 C 0.75611 0.81396 0.71878 0.0
C3455 C 0.7553 0.82569 0.70004 0.0
H3456 H 0.66319 0.46262 0.53869 0.0
H3457 H 0.63175 0.39561 0.52531 0.0
H3458 H 0.5961 0.40706 0.52469 0.0
H3459 H 0.5739 0.43586 0.52568 0.0
H3460 H 0.60404 0.50312 0.53923 0.0
H3461 H 0.64024 0.49187 0.54227 0.0
C3462 C 0.64849 0.45059 0.53573 0.0
C3463 C 0.6501 0.4283 0.53205 0.0
C3464 C 0.6279 0.45731 0.53537 0.0
C3465 C 0.63096 0.41283 0.52845 0.0
C3466 C 0.61057 0.41936 0.52795 0.0
C3467 C 0.58839 0.4481 0.52938 0.0
C3468 C 0.58641 0.47028 0.53192 0.0
C3469 C 0.60887 0.44152 0.53108 0.0
C3470 C 0.60523 0.48593 0.53718 0.0
C3471 C 0.62588 0.47949 0.53879 0.0
H3472 H 0.15007 0.03385 0.49312 0.0
H3473 H 0.13714 0.09992 0.49235 0.0
H3474 H 0.09911 0.0878 0.49817 0.0
H3475 H 0.06973 0.05884 0.50453 0.0
H3476 H 0.08192 0.99254 0.50519 0.0
H3477 H 0.12 0.00437 0.49852 0.0
C3478 C 0.13891 0.04557 0.49423 0.0
C3479 C 0.1465 0.06776 0.49218 0.0
C3480 C 0.11694 0.03848 0.49767 0.0
C3481 C 0.13174 0.0827 0.49347 0.0
C3482 C 0.10998 0.07582 0.49699 0.0
C3483 C 0.08068 0.04692 0.50325 0.0
C3484 C 0.07295 0.02483 0.5055 0.0
C3485 C 0.10245 0.0538 0.49926 0.0
C3486 C 0.08739 0.00964 0.50352 0.0
C3487 C 0.10919 0.01641 0.49973 0.0
H3488 H 0.19788 0.90824 0.80693 0.0
H3489 H 0.22146 0.92844 0.74523 0.0
H3490 H 0.23754 0.89513 0.73999 0.0
H3491 H 0.24343 0.85914 0.7522 0.0
H3492 H 0.21879 0.83935 0.81367 0.0
H3493 H 0.20511 0.87365 0.8199 0.0
C3494 C 0.20686 0.90559 0.79252 0.0
C3495 C 0.2084 0.92088 0.77651 0.0
C3496 C 0.21591 0.88634 0.78953 0.0
C3497 C 0.21977 0.91686 0.75772 0.0
C3498 C 0.22906 0.89783 0.75474 0.0
C3499 C 0.23528 0.8625 0.76705 0.0
C3500 C 0.23205 0.84662 0.78236 0.0
C3501 C 0.22701 0.88228 0.77041 0.0
C3502 C 0.22134 0.85116 0.80148 0.0
C3503 C 0.21349 0.87081 0.8051 0.0
H3504 H 0.3736 0.96238 0.00921 0.0
H3505 H 0.37098 0.93206 0.07108 0.0
H3506 H 0.41011 0.94384 0.07995 0.0
H3507 H 0.44516 0.96154 0.06958 0.0
H3508 H 0.44824 0.99288 0.00833 0.0
H3509 H 0.4088 0.98198 0.99972 0.0
C3510 C 0.38166 0.95844 0.02463 0.0
C3511 C 0.3695 0.94638 0.03948 0.0
C3512 C 0.40418 0.96537 0.02968 0.0
C3513 C 0.38 0.94151 0.05952 0.0
C3514 C 0.40237 0.94813 0.06453 0.0
C3515 C 0.4372 0.96601 0.05435 0.0
C3516 C 0.44956 0.97781 0.03951 0.0
C3517 C 0.41462 0.95988 0.04966 0.0
C3518 C 0.43902 0.98379 0.02001 0.0
C3519 C 0.41651 0.97751 0.01506 0.0
H3520 H 0.8159 0.61957 0.73812 0.0
H3521 H 0.79332 0.60384 0.80173 0.0
H3522 H 0.77141 0.63301 0.80121 0.0
H3523 H 0.76116 0.66494 0.7845 0.0
H3524 H 0.78579 0.68264 0.72236 0.0
H3525 H 0.80437 0.65078 0.72054 0.0
C3526 C 0.80626 0.62255 0.75192 0.0
C3527 C 0.80641 0.6095 0.76998 0.0
C3528 C 0.79405 0.63976 0.75181 0.0
C3529 C 0.79339 0.61337 0.78747 0.0
C3530 C 0.78093 0.63019 0.78728 0.0
C3531 C 0.77025 0.66165 0.77033 0.0
C3532 C 0.77208 0.67619 0.7536 0.0
C3533 C 0.78142 0.6437 0.76973 0.0
C3534 C 0.78411 0.67172 0.73547 0.0
C3535 C 0.79484 0.65356 0.73448 0.0
H3536 H 0.86136 0.55899 0.02799 0.0
H3537 H 0.87903 0.60046 0.97594 0.0
H3538 H 0.91403 0.58787 0.97556 0.0
H3539 H 0.94014 0.5662 0.99046 0.0
H3540 H 0.92412 0.52554 0.04347 0.0
H3541 H 0.88807 0.5369 0.04313 0.0
C3542 C 0.8729 0.56537 0.01665 0.0
C3543 C 0.86731 0.58058 0.00188 0.0
C3544 C 0.89337 0.55829 0.01673 0.0
C3545 C 0.88251 0.58843 0.98716 0.0
C3546 C 0.90269 0.58138 0.98705 0.0
C3547 C 0.92882 0.55972 0.00198 0.0
C3548 C 0.93492 0.54506 0.01703 0.0
C3549 C 0.90832 0.56642 0.0018 0.0
C3550 C 0.9199 0.53685 0.03172 0.0
C3551 C 0.89929 0.54337 0.03154 0.0
H3552 H 0.18366 0.14156 0.77316 0.0
H3553 H 0.24224 0.12102 0.80116 0.0
H3554 H 0.26253 0.15763 0.79945 0.0
H3555 H 0.26371 0.19564 0.7894 0.0
H3556 H 0.20476 0.21498 0.76042 0.0
H3557 H 0.18481 0.1788 0.76296 0.0
C3558 C 0.20093 0.14496 0.77867 0.0
C3559 C 0.21136 0.12843 0.78718 0.0
C3560 C 0.21252 0.16596 0.77748 0.0
C3561 C 0.23367 0.13342 0.79471 0.0
C3562 C 0.24534 0.15435 0.79362 0.0
C3563 C 0.24651 0.19193 0.78366 0.0
C3564 C 0.23584 0.20823 0.77488 0.0
C3565 C 0.23495 0.17079 0.78499 0.0
C3566 C 0.2135 0.20299 0.76746 0.0
C3567 C 0.20199 0.18219 0.76882 0.0
H3568 H 0.35783 0.88933 0.27303 0.0
H3569 H 0.29448 0.90937 0.26919 0.0
H3570 H 0.27694 0.87113 0.26466 0.0
H3571 H 0.27981 0.83197 0.26012 0.0
H3572 H 0.34348 0.81253 0.26258 0.0
H3573 H 0.36071 0.85057 0.26974 0.0
C3574 C 0.34018 0.88533 0.27156 0.0
C3575 C 0.32746 0.90211 0.27152 0.0
C3576 C 0.33028 0.86342 0.2687 0.0
C3577 C 0.30461 0.8967 0.26912 0.0
C3578 C 0.29459 0.87486 0.26661 0.0
C3579 C 0.29744 0.83609 0.2625 0.0
C3580 C 0.31037 0.8195 0.26079 0.0
C3581 C 0.30728 0.85808 0.26613 0.0
C3582 C 0.33319 0.82503 0.26368 0.0
C3583 C 0.34306 0.84677 0.26778 0.0
H3584 H 0.50163 0.36075 0.57472 0.0
H3585 H 0.55217 0.3849 0.62776 0.0
H3586 H 0.5536 0.42178 0.61647 0.0
H3587 H 0.54096 0.44703 0.5915 0.0
H3588 H 0.49169 0.42346 0.53713 0.0
H3589 H 0.48908 0.38648 0.54909 0.0
C3590 C 0.51289 0.37415 0.58378 0.0
C3591 C 0.52686 0.37012 0.60197 0.0
C3592 C 0.51377 0.39537 0.57705 0.0
C3593 C 0.54148 0.38755 0.61352 0.0
C3594 C 0.54221 0.40865 0.60716 0.0
C3595 C 0.52947 0.43388 0.58234 0.0
C3596 C 0.5164 0.43801 0.56357 0.0
C3597 C 0.52847 0.41273 0.58897 0.0
C3598 C 0.50188 0.42069 0.5517 0.0
C3599 C 0.50042 0.39956 0.5585 0.0
H3600 H 0.3953 0.72732 0.29822 0.0
H3601 H 0.387 0.76161 0.36124 0.0
H3602 H 0.35006 0.76548 0.34773 0.0
H3603 H 0.3206 0.7601 0.31811 0.0
H3604 H 0.32789 0.72642 0.25446 0.0
H3605 H 0.36471 0.72123 0.26814 0.0
C3606 C 0.38528 0.73547 0.30897 0.0
C3607 C 0.39391 0.74434 0.33062 0.0
C3608 C 0.36396 0.73782 0.30099 0.0
C3609 C 0.38083 0.75494 0.3444 0.0
C3610 C 0.35969 0.75711 0.33673 0.0
C3611 C 0.33016 0.75161 0.30713 0.0
C3612 C 0.3215 0.74375 0.28524 0.0
C3613 C 0.35119 0.74882 0.31502 0.0
C3614 C 0.33417 0.73267 0.27137 0.0
C3615 C 0.35523 0.72971 0.27919 0.0
H3616 H 0.02229 0.66636 0.05912 0.0
H3617 H 0.02381 0.6555 0.12902 0.0
H3618 H 0.02073 0.61632 0.11958 0.0
H3619 H 0.01586 0.58511 0.09162 0.0
H3620 H 0.01458 0.59514 0.02156 0.0
H3621 H 0.01963 0.6347 0.03086 0.0
C3622 C 0.02197 0.65534 0.0722 0.0
C3623 C 0.02324 0.66373 0.0947 0.0
C3624 C 0.02032 0.63276 0.06665 0.0
C3625 C 0.02304 0.64939 0.11159 0.0
C3626 C 0.02121 0.62701 0.10621 0.0
C3627 C 0.01685 0.59595 0.07837 0.0
C3628 C 0.0147 0.58726 0.05596 0.0
C3629 C 0.01964 0.61851 0.08383 0.0
C3630 C 0.01627 0.60148 0.03897 0.0
C3631 C 0.019 0.62407 0.04428 0.0
H3632 H 0.10426 0.235 0.82566 0.0
H3633 H 0.11017 0.30504 0.8359 0.0
H3634 H 0.14384 0.30901 0.81717 0.0
H3635 H 0.17302 0.29234 0.80035 0.0
H3636 H 0.16723 0.22225 0.79175 0.0
H3637 H 0.13172 0.21851 0.80674 0.0
C3638 C 0.11265 0.25115 0.8234 0.0
C3639 C 0.10476 0.26968 0.8322 0.0
C3640 C 0.13199 0.25329 0.81282 0.0
C3641 C 0.11609 0.2905 0.82952 0.0
C3642 C 0.13526 0.29279 0.81872 0.0
C3643 C 0.16369 0.27631 0.8013 0.0
C3644 C 0.17257 0.25759 0.79494 0.0
C3645 C 0.14356 0.27428 0.81062 0.0
C3646 C 0.16062 0.23687 0.7966 0.0
C3647 C 0.1404 0.23472 0.80524 0.0
H3648 H 0.51784 0.67694 0.99811 0.0
H3649 H 0.48559 0.64365 0.93598 0.0
H3650 H 0.48136 0.60924 0.9528 0.0
H3651 H 0.48944 0.58803 0.9838 0.0
H3652 H 0.52465 0.62023 0.04493 0.0
H3653 H 0.52522 0.65559 0.02973 0.0
C3654 C 0.50998 0.66217 0.98817 0.0
C3655 C 0.50208 0.66306 0.96574 0.0
C3656 C 0.5082 0.64218 0.99773 0.0
C3657 C 0.49153 0.64371 0.95336 0.0
C3658 C 0.48925 0.6239 0.96291 0.0
C3659 C 0.49699 0.60278 0.99399 0.0
C3660 C 0.50703 0.60147 0.01548 0.0
C3661 C 0.49784 0.6229 0.98492 0.0
C3662 C 0.51684 0.62077 0.02832 0.0
C3663 C 0.51723 0.64099 0.01961 0.0
H3664 H 0.13072 0.76648 0.6796 0.0
H3665 H 0.10783 0.75348 0.74362 0.0
H3666 H 0.14554 0.75564 0.75986 0.0
H3667 H 0.1852 0.76332 0.75611 0.0
H3668 H 0.20733 0.7763 0.69162 0.0
H3669 H 0.16976 0.77193 0.67533 0.0
C3670 C 0.134 0.76422 0.69715 0.0
C3671 C 0.11659 0.76015 0.71048 0.0
C3672 C 0.15559 0.76542 0.70626 0.0
C3673 C 0.12101 0.7567 0.73304 0.0
C3674 C 0.14255 0.75797 0.74232 0.0
C3675 C 0.18178 0.76486 0.73843 0.0
C3676 C 0.19908 0.77027 0.72515 0.0
C3677 C 0.16001 0.76255 0.72912 0.0
C3678 C 0.19435 0.77229 0.70228 0.0
C3679 C 0.17286 0.76985 0.69292 0.0
H3680 H 0.03473 0.37706 0.495 0.0
H3681 H 0.00295 0.38687 0.43115 0.0
H3682 H 0.998 0.42322 0.44538 0.0
H3683 H 0.00196 0.45192 0.4757 0.0
H3684 H 0.03415 0.4436 0.53978 0.0
H3685 H 0.03981 0.40703 0.52566 0.0
C3686 C 0.02688 0.38725 0.48421 0.0
C3687 C 0.01894 0.37909 0.46212 0.0
C3688 C 0.02409 0.40835 0.49252 0.0
C3689 C 0.00878 0.39251 0.44834 0.0
C3690 C 0.00604 0.41337 0.45642 0.0
C3691 C 0.01017 0.44215 0.48671 0.0
C3692 C 0.01746 0.45045 0.50885 0.0
C3693 C 0.01342 0.42135 0.47849 0.0
C3694 C 0.02831 0.43758 0.52268 0.0
C3695 C 0.03155 0.41668 0.51461 0.0
H3696 H 0.41556 0.2696 0.21621 0.0
H3697 H 0.38936 0.27005 0.14786 0.0
H3698 H 0.35286 0.26992 0.15991 0.0
H3699 H 0.32798 0.26674 0.18941 0.0
H3700 H 0.35377 0.26623 0.25789 0.0
H3701 H 0.39081 0.26965 0.24633 0.0
C3702 C 0.40184 0.26977 0.20402 0.0
C3703 C 0.40514 0.26971 0.18117 0.0
C3704 C 0.38084 0.26971 0.21108 0.0
C3705 C 0.38728 0.27024 0.16555 0.0
C3706 C 0.36639 0.27006 0.17241 0.0
C3707 C 0.34173 0.26769 0.20185 0.0
C3708 C 0.3381 0.26607 0.22443 0.0
C3709 C 0.36292 0.26943 0.19507 0.0
C3710 C 0.35611 0.26752 0.24039 0.0
C3711 C 0.37729 0.26929 0.23377 0.0
H3712 H 0.57902 0.48462 0.40026 0.0
H3713 H 0.53536 0.52125 0.36607 0.0
H3714 H 0.51243 0.51962 0.39718 0.0
H3715 H 0.5056 0.5092 0.43494 0.0
H3716 H 0.55013 0.47373 0.46954 0.0
H3717 H 0.57146 0.47304 0.43732 0.0
C3718 C 0.56433 0.49199 0.39945 0.0
C3719 C 0.55903 0.50312 0.38082 0.0
C3720 C 0.55125 0.49112 0.4175 0.0
C3721 C 0.54005 0.51284 0.3803 0.0
C3722 C 0.52683 0.51181 0.39805 0.0
C3723 C 0.51976 0.50102 0.43531 0.0
C3724 C 0.52616 0.49148 0.4547 0.0
C3725 C 0.53237 0.50118 0.41686 0.0
C3726 C 0.54477 0.48121 0.4549 0.0
C3727 C 0.55706 0.48086 0.43647 0.0
H3728 H 0.27573 0.8056 0.11005 0.0
H3729 H 0.20881 0.81532 0.11245 0.0
H3730 H 0.20648 0.79683 0.14658 0.0
H3731 H 0.22452 0.78154 0.17767 0.0
H3732 H 0.29152 0.77199 0.17611 0.0
H3733 H 0.29275 0.78659 0.13954 0.0
C3734 C 0.26062 0.80347 0.118 0.0
C3735 C 0.24253 0.81197 0.10891 0.0
C3736 C 0.25945 0.79299 0.13775 0.0
C3737 C 0.22291 0.80883 0.11908 0.0
C3738 C 0.2216 0.79839 0.13866 0.0
C3739 C 0.23932 0.78241 0.16919 0.0
C3740 C 0.25799 0.77602 0.17961 0.0
C3741 C 0.23993 0.79094 0.14842 0.0
C3742 C 0.27695 0.77686 0.16836 0.0
C3743 C 0.27769 0.78533 0.14756 0.0
H3744 H 0.97779 0.53514 0.88204 0.0
H3745 H 0.91489 0.52279 0.90804 0.0
H3746 H 0.93241 0.51886 0.94478 0.0
H3747 H 0.96511 0.51725 0.9689 0.0
H3748 H 0.02849 0.53047 0.94413 0.0
H3749 H 0.0112 0.53536 0.90726 0.0
C3750 C 0.96797 0.5316 0.89579 0.0
C3751 C 0.94507 0.52924 0.89233 0.0
C3752 C 0.97817 0.52929 0.91692 0.0
C3753 C 0.93253 0.52494 0.91033 0.0
C3754 C 0.94252 0.5225 0.93129 0.0
C3755 C 0.97525 0.52131 0.95553 0.0
C3756 C 0.99808 0.52341 0.95925 0.0
C3757 C 0.96527 0.52441 0.93467 0.0
C3758 C 0.01088 0.52874 0.94169 0.0
C3759 C 0.001 0.53154 0.92064 0.0
H3760 H 0.26334 0.1592 0.62853 0.0
H3761 H 0.25248 0.21885 0.60075 0.0
H3762 H 0.25286 0.23673 0.63836 0.0
H3763 H 0.25796 0.23585 0.67928 0.0
H3764 H 0.26798 0.17571 0.70651 0.0
H3765 H 0.2655 0.15747 0.66893 0.0
C3766 C 0.26061 0.17598 0.63058 0.0
C3767 C 0.25801 0.18762 0.61171 0.0
C3768 C 0.2606 0.1861 0.65222 0.0
C3769 C 0.25494 0.20954 0.6149 0.0
C3770 C 0.25498 0.21976 0.63644 0.0
C3771 C 0.25927 0.21868 0.677 0.0
C3772 C 0.26328 0.20722 0.69573 0.0
C3773 C 0.25805 0.20827 0.65524 0.0
C3774 C 0.26501 0.18498 0.69243 0.0
C3775 C 0.26366 0.17452 0.67092 0.0
H3776 H 0.60427 0.51144 0.15365 0.0
H3777 H 0.53968 0.50125 0.17598 0.0
H3778 H 0.52371 0.49878 0.13725 0.0
H3779 H 0.52824 0.49856 0.09669 0.0
H3780 H 0.59324 0.5088 0.07527 0.0
H3781 H 0.6088 0.51279 0.11397 0.0
C3782 C 0.58668 0.50904 0.15017 0.0
C3783 C 0.57324 0.50659 0.16781 0.0
C3784 C 0.57764 0.50772 0.12793 0.0
C3785 C 0.55046 0.50296 0.16276 0.0
C3786 C 0.54131 0.50168 0.1406 0.0
C3787 C 0.54578 0.50193 0.10055 0.0
C3788 C 0.55953 0.50331 0.08307 0.0
C3789 C 0.55474 0.50391 0.123 0.0
C3790 C 0.58225 0.50752 0.08835 0.0
C3791 C 0.59121 0.50978 0.11051 0.0
H3792 H 0.23796 0.79615 0.9099 0.0
H3793 H 0.24521 0.86024 0.88617 0.0
H3794 H 0.25024 0.84471 0.84895 0.0
H3795 H 0.25542 0.81377 0.82416 0.0
H3796 H 0.24768 0.74913 0.84654 0.0
H3797 H 0.24039 0.76415 0.88356 0.0
C3798 C 0.24052 0.80665 0.89651 0.0
C3799 C 0.24126 0.82933 0.90081 0.0
C3800 C 0.24358 0.7976 0.87509 0.0
C3801 C 0.24431 0.84273 0.88327 0.0
C3802 C 0.24738 0.83389 0.86202 0.0
C3803 C 0.25182 0.80279 0.83693 0.0
C3804 C 0.25212 0.78032 0.83252 0.0
C3805 C 0.24743 0.81145 0.85789 0.0
C3806 C 0.24756 0.76649 0.84946 0.0
C3807 C 0.24342 0.77508 0.87062 0.0
H3808 H 0.96522 0.5032 0.68412 0.0
H3809 H 0.96154 0.57187 0.68523 0.0
H3810 H 0.9816 0.57439 0.65208 0.0
H3811 H 0.99609 0.55622 0.62043 0.0
H3812 H 0.99889 0.48733 0.61833 0.0
H3813 H 0.98356 0.48578 0.65444 0.0
C3814 C 0.96899 0.51873 0.67717 0.0
C3815 C 0.96169 0.53727 0.6869 0.0
C3816 C 0.98029 0.51999 0.65794 0.0
C3817 C 0.96703 0.5574 0.67806 0.0
C3818 C 0.97838 0.55881 0.65904 0.0
C3819 C 0.99368 0.54093 0.62805 0.0
C3820 C 0.99833 0.52186 0.61663 0.0
C3821 C 0.98451 0.5401 0.64851 0.0
C3822 C 0.99543 0.50223 0.6268 0.0
C3823 C 0.98649 0.5013 0.64735 0.0
H3824 H 0.29079 0.18592 0.38272 0.0
H3825 H 0.2553 0.22955 0.41863 0.0
H3826 H 0.25626 0.25276 0.38777 0.0
H3827 H 0.2657 0.25978 0.34968 0.0
H3828 H 0.30087 0.21567 0.31395 0.0
H3829 H 0.30202 0.19401 0.34583 0.0
C3830 C 0.28357 0.20069 0.38402 0.0
C3831 C 0.27289 0.20583 0.40302 0.0
C3832 C 0.28419 0.214 0.3662 0.0
C3833 C 0.26333 0.22492 0.40411 0.0
C3834 C 0.26399 0.23832 0.3865 0.0
C3835 C 0.27392 0.24564 0.349 0.0
C3836 C 0.28314 0.23941 0.32936 0.0
C3837 C 0.27417 0.2329 0.36733 0.0
C3838 C 0.29355 0.22087 0.32877 0.0
C3839 C 0.29418 0.20839 0.347 0.0
H3840 H 0.36783 0.58137 0.4925 0.0
H3841 H 0.36091 0.56676 0.56083 0.0
H3842 H 0.39219 0.54782 0.56026 0.0
H3843 H 0.42254 0.5368 0.54109 0.0
H3844 H 0.42773 0.54814 0.47195 0.0
H3845 H 0.39536 0.56622 0.47182 0.0
C3846 C 0.37272 0.57368 0.50717 0.0
C3847 C 0.36207 0.57603 0.52685 0.0
C3848 C 0.39032 0.56206 0.50653 0.0
C3849 C 0.3691 0.56602 0.54567 0.0
C3850 C 0.38689 0.55491 0.54531 0.0
C3851 C 0.41637 0.54301 0.52593 0.0
C3852 C 0.42744 0.54138 0.50661 0.0
C3853 C 0.39779 0.55312 0.52597 0.0
C3854 C 0.4193 0.54918 0.48696 0.0
C3855 C 0.40095 0.55964 0.48697 0.0
H3856 H 0.87895 0.97697 0.55188 0.0
H3857 H 0.88048 0.92085 0.50566 0.0
H3858 H 0.91792 0.93493 0.49902 0.0
H3859 H 0.95005 0.9631 0.50596 0.0
H3860 H 0.94897 0.02012 0.55114 0.0
H3861 H 0.91157 0.00588 0.55849 0.0
C3862 C 0.88758 0.96785 0.54045 0.0
C3863 C 0.87695 0.94793 0.52922 0.0
C3864 C 0.90912 0.97624 0.53644 0.0
C3865 C 0.88823 0.93632 0.51432 0.0
C3866 C 0.90966 0.94433 0.51056 0.0
C3867 C 0.94169 0.97248 0.51743 0.0
C3868 C 0.95237 0.99266 0.528 0.0
C3869 C 0.92022 0.96429 0.52143 0.0
C3870 C 0.94115 0.00457 0.54272 0.0
C3871 C 0.91977 0.9964 0.54697 0.0
H3872 H 0.80718 0.10696 0.27104 0.0
H3873 H 0.85255 0.12724 0.22331 0.0
H3874 H 0.83967 0.16222 0.2229 0.0
H3875 H 0.81676 0.18753 0.23688 0.0
H3876 H 0.77158 0.1687 0.28525 0.0
H3877 H 0.78298 0.13264 0.2845 0.0
C3878 C 0.81404 0.119 0.26042 0.0
C3879 C 0.83095 0.11456 0.24735 0.0
C3880 C 0.80666 0.13934 0.26043 0.0
C3881 C 0.83978 0.13035 0.23376 0.0
C3882 C 0.83237 0.15035 0.23346 0.0
C3883 C 0.80927 0.17558 0.24726 0.0
C3884 C 0.79336 0.18091 0.26117 0.0
C3885 C 0.81604 0.15511 0.2469 0.0
C3886 C 0.78387 0.16508 0.2744 0.0
C3887 C 0.79042 0.14446 0.27399 0.0
H3888 H 0.65734 0.05552 0.02297 0.0
H3889 H 0.65298 0.09809 0.97022 0.0
H3890 H 0.61412 0.08436 0.96248 0.0
H3891 H 0.58123 0.06126 0.97134 0.0
H3892 H 0.58493 0.01833 0.02384 0.0
H3893 H 0.6242 0.0312 0.03105 0.0
C3894 C 0.64783 0.06175 0.0098 0.0
C3895 C 0.65803 0.07775 0.99715 0.0
C3896 C 0.62541 0.05378 0.00543 0.0
C3897 C 0.64559 0.08556 0.97999 0.0
C3898 C 0.62334 0.07782 0.97564 0.0
C3899 C 0.5906 0.05466 0.98435 0.0
C3900 C 0.58016 0.03896 0.99712 0.0
C3901 C 0.61307 0.06206 0.98834 0.0
C3902 C 0.59259 0.03043 0.01376 0.0
C3903 C 0.61503 0.03782 0.01793 0.0
H3904 H 0.22965 0.41898 0.27774 0.0
H3905 H 0.16904 0.37866 0.28806 0.0
H3906 H 0.18848 0.3487 0.29581 0.0
H3907 H 0.22196 0.33298 0.29704 0.0
H3908 H 0.2822 0.37155 0.28311 0.0
H3909 H 0.26356 0.40315 0.27932 0.0
C3910 C 0.22063 0.4036 0.28148 0.0
C3911 C 0.19783 0.40122 0.28229 0.0
C3912 C 0.23184 0.3861 0.2853 0.0
C3913 C 0.18658 0.38122 0.28766 0.0
C3914 C 0.19767 0.36396 0.29196 0.0
C3915 C 0.23116 0.34838 0.29354 0.0
C3916 C 0.25347 0.34993 0.29044 0.0
C3917 C 0.22022 0.36614 0.29058 0.0
C3918 C 0.26502 0.36995 0.28561 0.0
C3919 C 0.25435 0.38798 0.28334 0.0
H3920 H 0.17409 0.47049 0.01845 0.0
H3921 H 0.1454 0.4143 0.04949 0.0
H3922 H 0.11057 0.42775 0.04861 0.0
H3923 H 0.08825 0.45516 0.03906 0.0
H3924 H 0.11545 0.51076 0.00625 0.0
H3925 H 0.15084 0.49786 0.00761 0.0
C3926 C 0.16017 0.46131 0.02505 0.0
C3927 C 0.16227 0.44145 0.03407 0.0
C3928 C 0.13997 0.46898 0.0241 0.0
C3929 C 0.14412 0.42955 0.04238 0.0
C3930 C 0.12423 0.43725 0.04191 0.0
C3931 C 0.1019 0.46455 0.03223 0.0
C3932 C 0.09924 0.484 0.02272 0.0
C3933 C 0.12196 0.45689 0.0328 0.0
C3934 C 0.11706 0.49573 0.01366 0.0
C3935 C 0.1373 0.48838 0.0145 0.0
H3936 H 0.83122 0.89423 0.27495 0.0
H3937 H 0.78817 0.90019 0.21696 0.0
H3938 H 0.76957 0.86282 0.21871 0.0
H3939 H 0.76597 0.82803 0.23662 0.0
H3940 H 0.81023 0.82259 0.29397 0.0
H3941 H 0.82761 0.86014 0.29274 0.0
C3942 C 0.8176 0.88747 0.26283 0.0
C3943 C 0.81102 0.90008 0.24594 0.0
C3944 C 0.80714 0.86599 0.26385 0.0
C3945 C 0.79364 0.89082 0.23008 0.0
C3946 C 0.78295 0.86947 0.23113 0.0
C3947 C 0.7793 0.83516 0.24893 0.0
C3948 C 0.78673 0.82245 0.26537 0.0
C3949 C 0.78959 0.85684 0.24793 0.0
C3950 C 0.80419 0.83189 0.28107 0.0
C3951 C 0.81418 0.85341 0.2804 0.0
H3952 H 0.72526 0.11837 0.78126 0.0
H3953 H 0.65941 0.12973 0.78772 0.0
H3954 H 0.67181 0.16911 0.79238 0.0
H3955 H 0.70118 0.20016 0.79423 0.0
H3956 H 0.76697 0.18945 0.78585 0.0
H3957 H 0.75486 0.14994 0.78219 0.0
C3958 C 0.71376 0.12957 0.78381 0.0
C3959 C 0.69153 0.12137 0.78424 0.0
C3960 C 0.72096 0.15219 0.78602 0.0
C3961 C 0.6766 0.13584 0.78728 0.0
C3962 C 0.68367 0.15828 0.78996 0.0
C3963 C 0.7129 0.18918 0.79169 0.0
C3964 C 0.73493 0.19764 0.79046 0.0
C3965 C 0.70578 0.16663 0.78929 0.0
C3966 C 0.74989 0.18326 0.78683 0.0
C3967 C 0.74299 0.1607 0.7848 0.0
loop_
_geom_bond_atom_site_label_1
_geom_bond_atom_site_label_2
_geom_bond_distance
_geom_bond_site_symmetry_2
_ccdc_geom_bond_type
Li0 N17 1.990 . S
Li0 O60 1.956 1_655 S
Li0 O61 1.970 . S
Li0 O62 1.961 1_655 S
Li1 N25 1.990 . S
Li1 O60 1.970 . S
Li1 O61 1.956 1_455 S
Li1 O63 1.961 . S
Li2 N47 1.990 . S
Li2 O60 1.961 . S
Li2 O62 1.956 . S
Li2 O63 1.970 . S
Li3 N53 1.990 . S
Li3 O61 1.961 1_455 S
Li3 O62 1.970 . S
Li3 O63 1.956 . S
C4 C6 1.348 . S
C4 C7 1.356 . S
C4 O60 1.325 . S
N5 C8 1.314 . S
N5 C9 1.279 . S
C6 C4 1.348 . S
C6 C8 1.353 . S
C6 H64 0.929 . S
C7 C4 1.356 . S
C7 C9 1.358 . S
C7 H65 0.930 . S
C8 N5 1.314 . S
C8 C6 1.353 . S
C8 H66 0.930 . S
C9 N5 1.279 . S
C9 C7 1.358 . S
C9 H67 0.930 . S
C10 C13 1.348 . S
C10 C14 1.356 . S
C10 O61 1.325 . S
C11 N12 1.279 . S
C11 C14 1.358 . S
C11 H68 0.930 . S
N12 C11 1.279 . S
N12 C15 1.314 . S
C13 C10 1.348 . S
C13 C15 1.353 . S
C13 H69 0.929 . S
C14 C10 1.356 . S
C14 C11 1.358 . S
C14 H70 0.930 . S
C15 N12 1.314 . S
C15 C13 1.353 . S
C15 H71 0.930 . S
C16 N17 1.314 . S
C16 C21 1.353 . S
C16 H22 0.930 . S
N17 Li0 1.990 . S
N17 C16 1.314 . S
N17 C19 1.279 . S
C18 C19 1.358 . S
C18 C20 1.356 . S
C18 H72 0.930 . S
C19 N17 1.279 . S
C19 C18 1.358 . S
C19 H23 0.930 . S
C20 C18 1.356 . S
C20 C21 1.348 . S
C21 C16 1.353 . S
C21 C20 1.348 . S
C21 H73 0.929 . S
H22 C16 0.930 . S
H23 C19 0.930 . S
C24 N25 1.314 . S
C24 C26 1.353 . S
C24 H30 0.930 . S
N25 Li1 1.990 . S
N25 C24 1.314 . S
N25 C28 1.279 . S
C26 C24 1.353 . S
C26 C29 1.348 . S
C26 H74 0.929 . S
C27 C28 1.358 . S
C27 C29 1.356 . S
C27 H75 0.930 1_455 S
C28 N25 1.279 . S
C28 C27 1.358 . S
C28 H31 0.930 1_455 S
C29 C26 1.348 . S
C29 C27 1.356 . S
H30 C24 0.930 . S
H31 C28 0.930 1_655 S
C32 C34 1.348 . S
C32 C35 1.356 . S
C32 O62 1.325 . S
N33 C36 1.314 . S
N33 C37 1.279 . S
C34 C32 1.348 . S
C34 C36 1.353 . S
C34 H76 0.929 . S
C35 C32 1.356 . S
C35 C37 1.358 . S
C35 H77 0.930 . S
C36 N33 1.314 . S
C36 C34 1.353 . S
C36 H78 0.930 . S
C37 N33 1.279 . S
C37 C35 1.358 . S
C37 H79 0.930 . S
C38 C39 1.348 . S
C38 C40 1.356 . S
C38 O63 1.325 . S
C39 C38 1.348 . S
C39 C41 1.353 . S
C39 H80 0.929 . S
C40 C38 1.356 . S
C40 C42 1.358 . S
C40 H81 0.930 . S
C41 C39 1.353 . S
C41 N43 1.314 . S
C41 H82 0.930 . S
C42 C40 1.358 . S
C42 N43 1.279 . S
C42 H83 0.930 . S
N43 C41 1.314 . S
N43 C42 1.279 . S
C44 C46 1.353 . S
C44 N47 1.314 . S
C44 H50 0.930 . S
C45 N47 1.279 . S
C45 C48 1.358 . S
C45 H51 0.930 . S
C46 C44 1.353 . S
C46 C49 1.348 . S
C46 H84 0.929 . S
N47 Li2 1.990 . S
N47 C44 1.314 . S
N47 C45 1.279 . S
C48 C45 1.358 . S
C48 C49 1.356 . S
C48 H85 0.930 . S
C49 C46 1.348 . S
C49 C48 1.356 . S
H50 C44 0.930 . S
H51 C45 0.930 . S
C52 N53 1.349 . S
C52 C54 1.353 1_455 S
C52 H58 0.891 1_455 S
N53 Li3 1.990 . S
N53 C52 1.349 . S
N53 C56 1.279 . S
C54 C52 1.353 1_655 S
C54 C57 1.348 1_655 S
C54 H86 0.929 . S
C55 C56 1.358 . S
C55 C57 1.356 . S
C55 H87 0.930 . S
C56 N53 1.279 . S
C56 C55 1.358 . S
C56 H59 0.930 . S
C57 C54 1.348 1_455 S
C57 C55 1.356 . S
H58 C52 0.891 1_655 S
H59 C56 0.930 . S
O60 Li0 1.956 1_455 S
O60 Li1 1.970 . S
O60 Li2 1.961 . S
O60 C4 1.325 . S
O61 Li0 1.970 . S
O61 Li1 1.956 1_655 S
O61 Li3 1.961 1_655 S
O61 C10 1.325 . S
O62 Li0 1.961 1_455 S
O62 Li2 1.956 . S
O62 Li3 1.970 . S
O62 C32 1.325 . S
O63 Li1 1.961 . S
O63 Li2 1.970 . S
O63 Li3 1.956 . S
O63 C38 1.325 . S
H64 C6 0.929 . S
H65 C7 0.930 . S
H66 C8 0.930 . S
H67 C9 0.930 . S
H68 C11 0.930 . S
H69 C13 0.929 . S
H70 C14 0.930 . S
H71 C15 0.930 . S
H72 C18 0.930 . S
H73 C21 0.929 . S
H74 C26 0.929 . S
H75 C27 0.930 1_655 S
H76 C34 0.929 . S
H77 C35 0.930 . S
H78 C36 0.930 . S
H79 C37 0.930 . S
H80 C39 0.929 . S
H81 C40 0.930 . S
H82 C41 0.930 . S
H83 C42 0.930 . S
H84 C46 0.929 . S
H85 C48 0.930 . S
H86 C54 0.929 . S
H87 C55 0.930 . S
Li88 N105 1.990 . S
Li88 O148 1.956 . S
Li88 O149 1.970 . S
Li88 O150 1.961 1_455 S
Li89 N113 1.990 . S
Li89 O148 1.970 . S
Li89 O149 1.956 . S
Li89 O151 1.961 . S
Li90 N135 1.990 1_455 S
Li90 O148 1.961 . S
Li90 O150 1.956 1_455 S
Li90 O151 1.970 . S
Li91 N141 1.990 . S
Li91 O149 1.961 1_655 S
Li91 O150 1.970 . S
Li91 O151 1.956 1_655 S
C92 C94 1.348 . S
C92 C95 1.356 . S
C92 O148 1.325 . S
N93 C96 1.314 . S
N93 C97 1.279 . S
C94 C92 1.348 . S
C94 C96 1.353 . S
C94 H152 0.929 . S
C95 C92 1.356 . S
C95 C97 1.358 . S
C95 H153 0.930 . S
C96 N93 1.314 . S
C96 C94 1.353 . S
C96 H154 0.930 . S
C97 N93 1.279 . S
C97 C95 1.358 . S
C97 H155 0.930 . S
C98 C101 1.348 . S
C98 C102 1.356 . S
C98 O149 1.325 . S
C99 N100 1.279 . S
C99 C102 1.358 . S
C99 H156 0.930 . S
N100 C99 1.279 . S
N100 C103 1.314 . S
C101 C98 1.348 . S
C101 C103 1.353 . S
C101 H157 0.929 . S
C102 C98 1.356 . S
C102 C99 1.358 . S
C102 H158 0.930 . S
C103 N100 1.314 . S
C103 C101 1.353 . S
C103 H159 0.930 . S
C104 N105 1.314 1_655 S
C104 C109 1.353 . S
C104 H110 0.930 . S
N105 Li88 1.990 . S
N105 C104 1.314 1_455 S
N105 C107 1.279 . S
C106 C107 1.358 . S
C106 C108 1.356 . S
C106 H160 0.930 . S
C107 N105 1.279 . S
C107 C106 1.358 . S
C107 H111 0.930 . S
C108 C106 1.356 . S
C108 C109 1.348 1_455 S
C109 C104 1.353 . S
C109 C108 1.348 1_655 S
C109 H161 0.929 . S
H110 C104 0.930 . S
H111 C107 0.930 . S
C112 N113 1.314 . S
C112 C114 1.353 . S
C112 H118 0.930 . S
N113 Li89 1.990 . S
N113 C112 1.314 . S
N113 C116 1.279 . S
C114 C112 1.353 . S
C114 C117 1.348 . S
C114 H162 0.929 . S
C115 C116 1.358 . S
C115 C117 1.356 . S
C115 H163 0.930 . S
C116 N113 1.279 . S
C116 C115 1.358 . S
C116 H119 0.930 . S
C117 C114 1.348 . S
C117 C115 1.356 . S
H118 C112 0.930 . S
H119 C116 0.930 . S
C120 C122 1.348 . S
C120 C123 1.356 . S
C120 O150 1.325 . S
N121 C124 1.314 . S
N121 C125 1.279 . S
C122 C120 1.348 . S
C122 C124 1.353 . S
C122 H164 0.929 . S
C123 C120 1.356 . S
C123 C125 1.358 . S
C123 H165 0.930 . S
C124 N121 1.314 . S
C124 C122 1.353 . S
C124 H166 0.930 . S
C125 N121 1.279 . S
C125 C123 1.358 . S
C125 H167 0.930 . S
C126 C127 1.348 1_455 S
C126 C128 1.356 . S
C126 O151 1.325 . S
C127 C126 1.348 1_655 S
C127 C129 1.353 . S
C127 H168 0.929 . S
C128 C126 1.356 . S
C128 C130 1.358 . S
C128 H169 0.930 . S
C129 C127 1.353 . S
C129 N131 1.314 1_655 S
C129 H170 0.930 . S
C130 C128 1.358 . S
C130 N131 1.279 . S
C130 H171 0.930 . S
N131 C129 1.314 1_455 S
N131 C130 1.279 . S
C132 C134 1.353 . S
C132 N135 1.314 1_455 S
C132 H138 0.930 . S
C133 N135 1.279 . S
C133 C136 1.358 . S
C133 H139 0.930 . S
C134 C132 1.353 . S
C134 C137 1.348 1_455 S
C134 H172 0.929 . S
N135 Li90 1.990 1_655 S
N135 C132 1.314 1_655 S
N135 C133 1.279 . S
C136 C133 1.358 . S
C136 C137 1.356 . S
C136 H173 0.930 . S
C137 C134 1.348 1_655 S
C137 C136 1.356 . S
H138 C132 0.930 . S
H139 C133 0.930 . S
C140 N141 1.314 . S
C140 C142 1.353 . S
C140 H146 0.930 . S
N141 Li91 1.990 . S
N141 C140 1.314 . S
N141 C144 1.279 . S
C142 C140 1.353 . S
C142 C145 1.348 . S
C142 H174 0.929 . S
C143 C144 1.358 . S
C143 C145 1.356 . S
C143 H175 0.930 . S
C144 N141 1.279 . S
C144 C143 1.358 . S
C144 H147 0.930 . S
C145 C142 1.348 . S
C145 C143 1.356 . S
H146 C140 0.930 . S
H147 C144 0.930 . S
O148 Li88 1.956 . S
O148 Li89 1.970 . S
O148 Li90 1.961 . S
O148 C92 1.325 . S
O149 Li88 1.970 . S
O149 Li89 1.956 . S
O149 Li91 1.961 1_455 S
O149 C98 1.325 . S
O150 Li88 1.961 1_655 S
O150 Li90 1.956 1_655 S
O150 Li91 1.970 . S
O150 C120 1.325 . S
O151 Li89 1.961 . S
O151 Li90 1.970 . S
O151 Li91 1.956 1_455 S
O151 C126 1.325 . S
H152 C94 0.929 . S
H153 C95 0.930 . S
H154 C96 0.930 . S
H155 C97 0.930 . S
H156 C99 0.930 . S
H157 C101 0.929 . S
H158 C102 0.930 . S
H159 C103 0.930 . S
H160 C106 0.930 . S
H161 C109 0.929 . S
H162 C114 0.929 . S
H163 C115 0.930 . S
H164 C122 0.929 . S
H165 C123 0.930 . S
H166 C124 0.930 . S
H167 C125 0.930 . S
H168 C127 0.929 . S
H169 C128 0.930 . S
H170 C129 0.930 . S
H171 C130 0.930 . S
H172 C134 0.929 . S
H173 C136 0.930 . S
H174 C142 0.929 . S
H175 C143 0.930 . S
Li176 N193 1.990 . S
Li176 O236 1.956 . S
Li176 O237 1.970 . S
Li176 O238 1.961 . S
Li177 N201 1.990 . S
Li177 O236 1.970 . S
Li177 O237 1.956 . S
Li177 O239 1.961 . S
Li178 N223 1.990 . S
Li178 O236 1.961 . S
Li178 O238 1.956 . S
Li178 O239 1.970 . S
Li179 N229 1.990 . S
Li179 O237 1.961 . S
Li179 O238 1.970 . S
Li179 O239 1.956 . S
C180 C182 1.348 . S
C180 C183 1.356 . S
C180 O236 1.325 . S
N181 C184 1.314 . S
N181 C185 1.279 . S
C182 C180 1.348 . S
C182 C184 1.353 . S
C182 H240 0.929 . S
C183 C180 1.356 . S
C183 C185 1.358 . S
C183 H241 0.930 . S
C184 N181 1.314 . S
C184 C182 1.353 . S
C184 H242 0.930 . S
C185 N181 1.279 . S
C185 C183 1.358 . S
C185 H243 0.930 . S
C186 C189 1.348 . S
C186 C190 1.356 . S
C186 O237 1.325 . S
C187 N188 1.279 . S
C187 C190 1.358 . S
C187 H244 0.930 . S
N188 C187 1.279 . S
N188 C191 1.314 . S
C189 C186 1.348 . S
C189 C191 1.353 . S
C189 H245 0.929 . S
C190 C186 1.356 . S
C190 C187 1.358 . S
C190 H246 0.930 . S
C191 N188 1.314 . S
C191 C189 1.353 . S
C191 H247 0.930 . S
C192 N193 1.314 . S
C192 C197 1.353 . S
C192 H198 0.930 . S
N193 Li176 1.990 . S
N193 C192 1.314 . S
N193 C195 1.279 . S
C194 C195 1.358 . S
C194 C196 1.356 . S
C194 H248 0.930 . S
C195 N193 1.279 . S
C195 C194 1.358 . S
C195 H199 0.930 . S
C196 C194 1.356 . S
C196 C197 1.348 . S
C197 C192 1.353 . S
C197 C196 1.348 . S
C197 H249 0.929 . S
H198 C192 0.930 . S
H199 C195 0.930 . S
C200 N201 1.314 . S
C200 C202 1.353 . S
C200 H206 0.930 . S
N201 Li177 1.990 . S
N201 C200 1.314 . S
N201 C204 1.279 . S
C202 C200 1.353 . S
C202 C205 1.348 . S
C202 H250 0.929 . S
C203 C204 1.358 . S
C203 C205 1.356 . S
C203 H251 0.930 . S
C204 N201 1.279 . S
C204 C203 1.358 . S
C204 H207 0.930 . S
C205 C202 1.348 . S
C205 C203 1.356 . S
H206 C200 0.930 . S
H207 C204 0.930 . S
C208 C210 1.348 . S
C208 C211 1.356 . S
C208 O238 1.325 . S
N209 C212 1.314 . S
N209 C213 1.279 . S
C210 C208 1.348 . S
C210 C212 1.353 . S
C210 H252 0.929 . S
C211 C208 1.356 . S
C211 C213 1.358 . S
C211 H253 0.930 . S
C212 N209 1.314 . S
C212 C210 1.353 . S
C212 H254 0.930 . S
C213 N209 1.279 . S
C213 C211 1.358 . S
C213 H255 0.930 . S
C214 C215 1.348 . S
C214 C216 1.356 . S
C214 O239 1.325 . S
C215 C214 1.348 . S
C215 C217 1.353 . S
C215 H256 0.929 . S
C216 C214 1.356 . S
C216 C218 1.358 . S
C216 H257 0.930 . S
C217 C215 1.353 . S
C217 N219 1.314 . S
C217 H258 0.930 . S
C218 C216 1.358 . S
C218 N219 1.279 . S
C218 H259 0.930 . S
N219 C217 1.314 . S
N219 C218 1.279 . S
C220 C222 1.353 . S
C220 N223 1.314 . S
C220 H226 0.930 . S
C221 N223 1.279 . S
C221 C224 1.358 . S
C221 H227 0.930 . S
C222 C220 1.353 . S
C222 C225 1.348 . S
C222 H260 0.929 . S
N223 Li178 1.990 . S
N223 C220 1.314 . S
N223 C221 1.279 . S
C224 C221 1.358 . S
C224 C225 1.356 . S
C224 H261 0.930 . S
C225 C222 1.348 . S
C225 C224 1.356 . S
H226 C220 0.930 . S
H227 C221 0.930 . S
C228 N229 1.314 . S
C228 C230 1.353 . S
C228 H234 0.930 . S
N229 Li179 1.990 . S
N229 C228 1.314 . S
N229 C232 1.279 . S
C230 C228 1.353 . S
C230 C233 1.348 . S
C230 H262 0.929 . S
C231 C232 1.358 . S
C231 C233 1.356 . S
C231 H263 0.930 . S
C232 N229 1.279 . S
C232 C231 1.358 . S
C232 H235 0.930 . S
C233 C230 1.348 . S
C233 C231 1.356 . S
H234 C228 0.930 . S
H235 C232 0.930 . S
O236 Li176 1.956 . S
O236 Li177 1.970 . S
O236 Li178 1.961 . S
O236 C180 1.325 . S
O237 Li176 1.970 . S
O237 Li177 1.956 . S
O237 Li179 1.961 . S
O237 C186 1.325 . S
O238 Li176 1.961 . S
O238 Li178 1.956 . S
O238 Li179 1.970 . S
O238 C208 1.325 . S
O239 Li177 1.961 . S
O239 Li178 1.970 . S
O239 Li179 1.956 . S
O239 C214 1.325 . S
H240 C182 0.929 . S
H241 C183 0.930 . S
H242 C184 0.930 . S
H243 C185 0.930 . S
H244 C187 0.930 . S
H245 C189 0.929 . S
H246 C190 0.930 . S
H247 C191 0.930 . S
H248 C194 0.930 . S
H249 C197 0.929 . S
H250 C202 0.929 . S
H251 C203 0.930 . S
H252 C210 0.929 . S
H253 C211 0.930 . S
H254 C212 0.930 . S
H255 C213 0.930 . S
H256 C215 0.929 . S
H257 C216 0.930 . S
H258 C217 0.930 . S
H259 C218 0.930 . S
H260 C222 0.929 . S
H261 C224 0.930 . S
H262 C230 0.929 . S
H263 C231 0.930 . S
Li264 N281 1.990 . S
Li264 O324 1.956 . S
Li264 O325 1.970 . S
Li264 O326 1.961 . S
Li265 N289 1.990 . S
Li265 O324 1.970 . S
Li265 O325 1.956 . S
Li265 O327 1.961 . S
Li266 N311 1.990 . S
Li266 O324 1.961 . S
Li266 O326 1.956 . S
Li266 O327 1.970 . S
Li267 N317 1.990 . S
Li267 O325 1.961 . S
Li267 O326 1.970 . S
Li267 O327 1.956 . S
C268 C270 1.348 . S
C268 C271 1.356 . S
C268 O324 1.325 . S
N269 C272 1.314 . S
N269 C273 1.279 . S
C270 C268 1.348 . S
C270 C272 1.353 . S
C270 H328 0.929 . S
C271 C268 1.356 . S
C271 C273 1.358 . S
C271 H329 0.930 . S
C272 N269 1.314 . S
C272 C270 1.353 . S
C272 H330 0.930 . S
C273 N269 1.279 . S
C273 C271 1.358 . S
C273 H331 0.930 . S
C274 C277 1.348 . S
C274 C278 1.356 . S
C274 O325 1.325 . S
C275 N276 1.279 . S
C275 C278 1.358 . S
C275 H332 0.930 . S
N276 C275 1.279 . S
N276 C279 1.314 . S
C277 C274 1.348 . S
C277 C279 1.353 . S
C277 H333 0.929 . S
C278 C274 1.356 . S
C278 C275 1.358 . S
C278 H334 0.930 . S
C279 N276 1.314 . S
C279 C277 1.353 . S
C279 H335 0.930 . S
C280 N281 1.314 . S
C280 C285 1.353 . S
C280 H286 0.930 . S
N281 Li264 1.990 . S
N281 C280 1.314 . S
N281 C283 1.279 . S
C282 C283 1.358 . S
C282 C284 1.356 . S
C282 H336 0.930 . S
C283 N281 1.279 . S
C283 C282 1.358 . S
C283 H287 0.930 . S
C284 C282 1.356 . S
C284 C285 1.348 . S
C285 C280 1.353 . S
C285 C284 1.348 . S
C285 H337 0.929 . S
H286 C280 0.930 . S
H287 C283 0.930 . S
C288 N289 1.314 . S
C288 C290 1.353 . S
C288 H294 0.930 . S
N289 Li265 1.990 . S
N289 C288 1.314 . S
N289 C292 1.279 . S
C290 C288 1.353 . S
C290 C293 1.348 . S
C290 H338 0.929 . S
C291 C292 1.358 . S
C291 C293 1.356 . S
C291 H339 0.930 . S
C292 N289 1.279 . S
C292 C291 1.358 . S
C292 H295 0.930 . S
C293 C290 1.348 . S
C293 C291 1.356 . S
H294 C288 0.930 . S
H295 C292 0.930 . S
C296 C298 1.348 . S
C296 C299 1.356 . S
C296 O326 1.325 . S
N297 C300 1.314 . S
N297 C301 1.279 . S
C298 C296 1.348 . S
C298 C300 1.353 . S
C298 H340 0.929 . S
C299 C296 1.356 . S
C299 C301 1.358 . S
C299 H341 0.930 . S
C300 N297 1.314 . S
C300 C298 1.353 . S
C300 H342 0.930 . S
C301 N297 1.279 . S
C301 C299 1.358 . S
C301 H343 0.930 . S
C302 C303 1.348 . S
C302 C304 1.356 . S
C302 O327 1.325 . S
C303 C302 1.348 . S
C303 C305 1.353 . S
C303 H344 0.929 . S
C304 C302 1.356 . S
C304 C306 1.358 . S
C304 H345 0.930 . S
C305 C303 1.353 . S
C305 N307 1.314 . S
C305 H346 0.930 . S
C306 C304 1.358 . S
C306 N307 1.279 . S
C306 H347 0.930 . S
N307 C305 1.314 . S
N307 C306 1.279 . S
C308 C310 1.353 . S
C308 N311 1.314 . S
C308 H314 0.930 . S
C309 N311 1.279 . S
C309 C312 1.358 . S
C309 H315 0.930 . S
C310 C308 1.353 . S
C310 C313 1.348 . S
C310 H348 0.929 . S
N311 Li266 1.990 . S
N311 C308 1.314 . S
N311 C309 1.279 . S
C312 C309 1.358 . S
C312 C313 1.356 . S
C312 H349 0.930 . S
C313 C310 1.348 . S
C313 C312 1.356 . S
H314 C308 0.930 . S
H315 C309 0.930 . S
C316 N317 1.314 . S
C316 C318 1.353 . S
C316 H322 0.930 . S
N317 Li267 1.990 . S
N317 C316 1.314 . S
N317 C320 1.279 . S
C318 C316 1.353 . S
C318 C321 1.348 . S
C318 H350 0.929 . S
C319 C320 1.358 . S
C319 C321 1.356 . S
C319 H351 0.930 . S
C320 N317 1.279 . S
C320 C319 1.358 . S
C320 H323 0.930 . S
C321 C318 1.348 . S
C321 C319 1.356 . S
H322 C316 0.930 . S
H323 C320 0.930 . S
O324 Li264 1.956 . S
O324 Li265 1.970 . S
O324 Li266 1.961 . S
O324 C268 1.325 . S
O325 Li264 1.970 . S
O325 Li265 1.956 . S
O325 Li267 1.961 . S
O325 C274 1.325 . S
O326 Li264 1.961 . S
O326 Li266 1.956 . S
O326 Li267 1.970 . S
O326 C296 1.325 . S
O327 Li265 1.961 . S
O327 Li266 1.970 . S
O327 Li267 1.956 . S
O327 C302 1.325 . S
H328 C270 0.929 . S
H329 C271 0.930 . S
H330 C272 0.930 . S
H331 C273 0.930 . S
H332 C275 0.930 . S
H333 C277 0.929 . S
H334 C278 0.930 . S
H335 C279 0.930 . S
H336 C282 0.930 . S
H337 C285 0.929 . S
H338 C290 0.929 . S
H339 C291 0.930 . S
H340 C298 0.929 . S
H341 C299 0.930 . S
H342 C300 0.930 . S
H343 C301 0.930 . S
H344 C303 0.929 . S
H345 C304 0.930 . S
H346 C305 0.930 . S
H347 C306 0.930 . S
H348 C310 0.929 . S
H349 C312 0.930 . S
H350 C318 0.929 . S
H351 C319 0.930 . S
Li352 N369 1.990 . S
Li352 O412 1.956 . S
Li352 O413 1.970 . S
Li352 O414 1.978 . S
Li353 N377 1.990 . S
Li353 O412 1.970 . S
Li353 O413 1.956 . S
Li353 O415 1.961 . S
Li354 N399 1.990 . S
Li354 O412 1.961 . S
Li354 O414 1.975 . S
Li354 O415 1.970 . S
Li355 N405 1.990 1_455 S
Li355 O413 1.961 . S
Li355 O414 1.972 . S
Li355 O415 1.956 . S
C356 C358 1.348 . S
C356 C359 1.356 . S
C356 O412 1.325 . S
N357 C360 1.314 . S
N357 C361 1.279 . S
C358 C356 1.348 . S
C358 C360 1.353 . S
C358 H416 0.929 . S
C359 C356 1.356 . S
C359 C361 1.358 . S
C359 H417 0.930 . S
C360 N357 1.314 . S
C360 C358 1.353 . S
C360 H418 0.930 . S
C361 N357 1.279 . S
C361 C359 1.358 . S
C361 H419 0.930 . S
C362 C365 1.348 . S
C362 C366 1.356 . S
C362 O413 1.325 . S
C363 N364 1.279 . S
C363 C366 1.358 . S
C363 H420 0.930 . S
N364 C363 1.279 . S
N364 C367 1.314 . S
C365 C362 1.348 . S
C365 C367 1.353 . S
C365 H421 0.929 . S
C366 C362 1.356 . S
C366 C363 1.358 . S
C366 H422 0.930 . S
C367 N364 1.314 . S
C367 C365 1.353 . S
C367 H423 0.930 . S
C368 N369 1.314 . S
C368 C373 1.353 . S
C368 H374 0.930 1_455 S
N369 Li352 1.990 . S
N369 C368 1.314 . S
N369 C371 1.279 . S
C370 C371 1.358 . S
C370 C372 1.356 . S
C370 H424 0.930 . S
C371 N369 1.279 . S
C371 C370 1.358 . S
C371 H375 0.930 . S
C372 C370 1.356 . S
C372 C373 1.348 . S
C373 C368 1.353 . S
C373 C372 1.348 . S
C373 H425 0.929 1_455 S
H374 C368 0.930 1_655 S
H375 C371 0.930 . S
C376 N377 1.314 . S
C376 C378 1.353 . S
C376 H382 0.930 . S
N377 Li353 1.990 . S
N377 C376 1.314 . S
N377 C380 1.279 . S
C378 C376 1.353 . S
C378 C381 1.348 . S
C378 H426 0.929 . S
C379 C380 1.358 . S
C379 C381 1.356 . S
C379 H427 0.930 . S
C380 N377 1.279 . S
C380 C379 1.358 . S
C380 H383 0.930 . S
C381 C378 1.348 . S
C381 C379 1.356 . S
H382 C376 0.930 . S
H383 C380 0.930 . S
C384 C386 1.348 . S
C384 C387 1.356 . S
C384 O414 1.306 1_655 S
N385 C388 1.314 . S
N385 C389 1.279 . S
C386 C384 1.348 . S
C386 C388 1.353 . S
C386 H428 0.929 . S
C387 C384 1.356 . S
C387 C389 1.358 . S
C387 H429 0.930 . S
C388 N385 1.314 . S
C388 C386 1.353 . S
C388 H430 0.930 . S
C389 N385 1.279 . S
C389 C387 1.358 . S
C389 H431 0.930 . S
C390 C391 1.348 . S
C390 C392 1.356 . S
C390 O415 1.325 . S
C391 C390 1.348 . S
C391 C393 1.353 . S
C391 H432 0.929 . S
C392 C390 1.356 . S
C392 C394 1.358 . S
C392 H433 0.930 . S
C393 C391 1.353 . S
C393 N395 1.314 . S
C393 H434 0.930 . S
C394 C392 1.358 . S
C394 N395 1.279 . S
C394 H435 0.930 . S
N395 C393 1.314 . S
N395 C394 1.279 . S
C396 C398 1.353 . S
C396 N399 1.314 . S
C396 H402 0.930 . S
C397 N399 1.306 . S
C397 C400 1.361 1_455 S
C397 H403 0.899 1_455 S
C398 C396 1.353 . S
C398 C401 1.348 . S
C398 H436 0.929 . S
N399 Li354 1.990 . S
N399 C396 1.314 . S
N399 C397 1.306 . S
C400 C397 1.361 1_655 S
C400 C401 1.356 1_655 S
C400 H437 0.930 . S
C401 C398 1.348 . S
C401 C400 1.356 1_455 S
H402 C396 0.930 . S
H403 C397 0.899 1_655 S
C404 N405 1.314 . S
C404 C406 1.353 . S
C404 H410 0.930 . S
N405 Li355 1.990 1_655 S
N405 C404 1.314 . S
N405 C408 1.279 . S
C406 C404 1.353 . S
C406 C409 1.348 . S
C406 H438 0.929 . S
C407 C408 1.358 . S
C407 C409 1.356 . S
C407 H439 0.930 . S
C408 N405 1.279 . S
C408 C407 1.358 . S
C408 H411 0.930 . S
C409 C406 1.348 . S
C409 C407 1.356 . S
H410 C404 0.930 . S
H411 C408 0.930 . S
O412 Li352 1.956 . S
O412 Li353 1.970 . S
O412 Li354 1.961 . S
O412 C356 1.325 . S
O413 Li352 1.970 . S
O413 Li353 1.956 . S
O413 Li355 1.961 . S
O413 C362 1.325 . S
O414 Li352 1.978 . S
O414 Li354 1.975 . S
O414 Li355 1.972 . S
O414 C384 1.306 1_455 S
O415 Li353 1.961 . S
O415 Li354 1.970 . S
O415 Li355 1.956 . S
O415 C390 1.325 . S
H416 C358 0.929 . S
H417 C359 0.930 . S
H418 C360 0.930 . S
H419 C361 0.930 . S
H420 C363 0.930 . S
H421 C365 0.929 . S
H422 C366 0.930 . S
H423 C367 0.930 . S
H424 C370 0.930 . S
H425 C373 0.929 1_655 S
H426 C378 0.929 . S
H427 C379 0.930 . S
H428 C386 0.929 . S
H429 C387 0.930 . S
H430 C388 0.930 . S
H431 C389 0.930 . S
H432 C391 0.929 . S
H433 C392 0.930 . S
H434 C393 0.930 . S
H435 C394 0.930 . S
H436 C398 0.929 . S
H437 C400 0.930 . S
H438 C406 0.929 . S
H439 C407 0.930 . S
Li440 N457 1.990 . S
Li440 O500 1.956 . S
Li440 O501 1.970 . S
Li440 O502 1.961 . S
Li441 N465 1.990 . S
Li441 O500 1.970 . S
Li441 O501 1.956 . S
Li441 O503 1.961 . S
Li442 N487 1.990 . S
Li442 O500 1.961 . S
Li442 O502 1.956 . S
Li442 O503 1.970 . S
Li443 N493 1.990 . S
Li443 O501 1.961 . S
Li443 O502 1.970 . S
Li443 O503 1.956 . S
C444 C446 1.348 . S
C444 C447 1.356 . S
C444 O500 1.325 . S
N445 C448 1.314 . S
N445 C449 1.279 . S
C446 C444 1.348 . S
C446 C448 1.353 . S
C446 H504 0.929 . S
C447 C444 1.356 . S
C447 C449 1.358 . S
C447 H505 0.930 . S
C448 N445 1.314 . S
C448 C446 1.353 . S
C448 H506 0.930 . S
C449 N445 1.279 . S
C449 C447 1.358 . S
C449 H507 0.930 . S
C450 C453 1.348 . S
C450 C454 1.356 . S
C450 O501 1.325 . S
C451 N452 1.279 . S
C451 C454 1.358 . S
C451 H508 0.930 . S
N452 C451 1.279 . S
N452 C455 1.314 . S
C453 C450 1.348 . S
C453 C455 1.353 . S
C453 H509 0.929 . S
C454 C450 1.356 . S
C454 C451 1.358 . S
C454 H510 0.930 . S
C455 N452 1.314 . S
C455 C453 1.353 . S
C455 H511 0.930 . S
C456 N457 1.314 . S
C456 C461 1.353 . S
C456 H462 0.930 . S
N457 Li440 1.990 . S
N457 C456 1.314 . S
N457 C459 1.279 . S
C458 C459 1.358 . S
C458 C460 1.356 . S
C458 H512 0.930 . S
C459 N457 1.279 . S
C459 C458 1.358 . S
C459 H463 0.930 . S
C460 C458 1.356 . S
C460 C461 1.348 . S
C461 C456 1.353 . S
C461 C460 1.348 . S
C461 H513 0.929 . S
H462 C456 0.930 . S
H463 C459 0.930 . S
C464 N465 1.314 . S
C464 C466 1.353 . S
C464 H470 0.930 . S
N465 Li441 1.990 . S
N465 C464 1.314 . S
N465 C468 1.279 . S
C466 C464 1.353 . S
C466 C469 1.348 . S
C466 H514 0.929 . S
C467 C468 1.358 . S
C467 C469 1.356 . S
C467 H515 0.930 . S
C468 N465 1.279 . S
C468 C467 1.358 . S
C468 H471 0.930 . S
C469 C466 1.348 . S
C469 C467 1.356 . S
H470 C464 0.930 . S
H471 C468 0.930 . S
C472 C474 1.348 . S
C472 C475 1.356 . S
C472 O502 1.325 . S
N473 C476 1.314 . S
N473 C477 1.279 . S
C474 C472 1.348 . S
C474 C476 1.353 . S
C474 H516 0.929 . S
C475 C472 1.356 . S
C475 C477 1.358 . S
C475 H517 0.930 . S
C476 N473 1.314 . S
C476 C474 1.353 . S
C476 H518 0.930 . S
C477 N473 1.279 . S
C477 C475 1.358 . S
C477 H519 0.930 . S
C478 C479 1.348 . S
C478 C480 1.356 . S
C478 O503 1.325 . S
C479 C478 1.348 . S
C479 C481 1.353 . S
C479 H520 0.929 . S
C480 C478 1.356 . S
C480 C482 1.358 . S
C480 H521 0.930 . S
C481 C479 1.353 . S
C481 N483 1.314 . S
C481 H522 0.930 . S
C482 C480 1.358 . S
C482 N483 1.279 . S
C482 H523 0.930 . S
N483 C481 1.314 . S
N483 C482 1.279 . S
C484 C486 1.353 . S
C484 N487 1.314 . S
C484 H490 0.930 . S
C485 N487 1.279 . S
C485 C488 1.358 . S
C485 H491 0.930 . S
C486 C484 1.353 . S
C486 C489 1.348 . S
C486 H524 0.929 . S
N487 Li442 1.990 . S
N487 C484 1.314 . S
N487 C485 1.279 . S
C488 C485 1.358 . S
C488 C489 1.356 . S
C488 H525 0.930 . S
C489 C486 1.348 . S
C489 C488 1.356 . S
H490 C484 0.930 . S
H491 C485 0.930 . S
C492 N493 1.314 . S
C492 C494 1.353 . S
C492 H498 0.930 . S
N493 Li443 1.990 . S
N493 C492 1.314 . S
N493 C496 1.279 . S
C494 C492 1.353 . S
C494 C497 1.348 . S
C494 H526 0.929 . S
C495 C496 1.358 . S
C495 C497 1.356 . S
C495 H527 0.930 . S
C496 N493 1.279 . S
C496 C495 1.358 . S
C496 H499 0.930 . S
C497 C494 1.348 . S
C497 C495 1.356 . S
H498 C492 0.930 . S
H499 C496 0.930 . S
O500 Li440 1.956 . S
O500 Li441 1.970 . S
O500 Li442 1.961 . S
O500 C444 1.325 . S
O501 Li440 1.970 . S
O501 Li441 1.956 . S
O501 Li443 1.961 . S
O501 C450 1.325 . S
O502 Li440 1.961 . S
O502 Li442 1.956 . S
O502 Li443 1.970 . S
O502 C472 1.325 . S
O503 Li441 1.961 . S
O503 Li442 1.970 . S
O503 Li443 1.956 . S
O503 C478 1.325 . S
H504 C446 0.929 . S
H505 C447 0.930 . S
H506 C448 0.930 . S
H507 C449 0.930 . S
H508 C451 0.930 . S
H509 C453 0.929 . S
H510 C454 0.930 . S
H511 C455 0.930 . S
H512 C458 0.930 . S
H513 C461 0.929 . S
H514 C466 0.929 . S
H515 C467 0.930 . S
H516 C474 0.929 . S
H517 C475 0.930 . S
H518 C476 0.930 . S
H519 C477 0.930 . S
H520 C479 0.929 . S
H521 C480 0.930 . S
H522 C481 0.930 . S
H523 C482 0.930 . S
H524 C486 0.929 . S
H525 C488 0.930 . S
H526 C494 0.929 . S
H527 C495 0.930 . S
Li528 N545 1.990 . S
Li528 O588 1.956 . S
Li528 O589 1.970 . S
Li528 O590 1.961 . S
Li529 N553 1.990 . S
Li529 O588 1.970 . S
Li529 O589 1.956 . S
Li529 O591 1.961 . S
Li530 N575 1.990 . S
Li530 O588 1.961 . S
Li530 O590 1.956 . S
Li530 O591 1.970 . S
Li531 N581 1.990 . S
Li531 O589 1.961 . S
Li531 O590 1.970 . S
Li531 O591 1.956 . S
C532 C534 1.348 . S
C532 C535 1.356 . S
C532 O588 1.325 . S
N533 C536 1.314 . S
N533 C537 1.279 . S
C534 C532 1.348 . S
C534 C536 1.353 . S
C534 H592 0.929 . S
C535 C532 1.356 . S
C535 C537 1.358 . S
C535 H593 0.930 . S
C536 N533 1.314 . S
C536 C534 1.353 . S
C536 H594 0.930 . S
C537 N533 1.279 . S
C537 C535 1.358 . S
C537 H595 0.930 . S
C538 C541 1.348 . S
C538 C542 1.356 . S
C538 O589 1.325 . S
C539 N540 1.279 . S
C539 C542 1.358 . S
C539 H596 0.930 . S
N540 C539 1.279 . S
N540 C543 1.314 . S
C541 C538 1.348 . S
C541 C543 1.353 . S
C541 H597 0.929 . S
C542 C538 1.356 . S
C542 C539 1.358 . S
C542 H598 0.930 . S
C543 N540 1.314 . S
C543 C541 1.353 . S
C543 H599 0.930 . S
C544 N545 1.314 . S
C544 C549 1.353 . S
C544 H550 0.930 . S
N545 Li528 1.990 . S
N545 C544 1.314 . S
N545 C547 1.279 . S
C546 C547 1.358 . S
C546 C548 1.356 . S
C546 H600 0.930 . S
C547 N545 1.279 . S
C547 C546 1.358 . S
C547 H551 0.930 . S
C548 C546 1.356 . S
C548 C549 1.348 . S
C549 C544 1.353 . S
C549 C548 1.348 . S
C549 H601 0.929 . S
H550 C544 0.930 . S
H551 C547 0.930 . S
C552 N553 1.314 . S
C552 C554 1.353 . S
C552 H558 0.930 . S
N553 Li529 1.990 . S
N553 C552 1.314 . S
N553 C556 1.279 . S
C554 C552 1.353 . S
C554 C557 1.348 . S
C554 H602 0.929 . S
C555 C556 1.358 . S
C555 C557 1.356 . S
C555 H603 0.930 . S
C556 N553 1.279 . S
C556 C555 1.358 . S
C556 H559 0.930 . S
C557 C554 1.348 . S
C557 C555 1.356 . S
H558 C552 0.930 . S
H559 C556 0.930 . S
C560 C562 1.348 . S
C560 C563 1.356 . S
C560 O590 1.325 . S
N561 C564 1.314 . S
N561 C565 1.279 . S
C562 C560 1.348 . S
C562 C564 1.353 . S
C562 H604 0.929 . S
C563 C560 1.356 . S
C563 C565 1.358 . S
C563 H605 0.930 . S
C564 N561 1.314 . S
C564 C562 1.353 . S
C564 H606 0.930 . S
C565 N561 1.279 . S
C565 C563 1.358 . S
C565 H607 0.930 . S
C566 C567 1.348 . S
C566 C568 1.356 . S
C566 O591 1.325 . S
C567 C566 1.348 . S
C567 C569 1.353 . S
C567 H608 0.929 . S
C568 C566 1.356 . S
C568 C570 1.358 . S
C568 H609 0.930 . S
C569 C567 1.353 . S
C569 N571 1.314 . S
C569 H610 0.930 . S
C570 C568 1.358 . S
C570 N571 1.279 . S
C570 H611 0.930 . S
N571 C569 1.314 . S
N571 C570 1.279 . S
C572 C574 1.353 . S
C572 N575 1.314 . S
C572 H578 0.930 . S
C573 N575 1.279 . S
C573 C576 1.358 . S
C573 H579 0.930 . S
C574 C572 1.353 . S
C574 C577 1.348 . S
C574 H612 0.929 . S
N575 Li530 1.990 . S
N575 C572 1.314 . S
N575 C573 1.279 . S
C576 C573 1.358 . S
C576 C577 1.356 . S
C576 H613 0.930 . S
C577 C574 1.348 . S
C577 C576 1.356 . S
H578 C572 0.930 . S
H579 C573 0.930 . S
C580 N581 1.314 . S
C580 C582 1.353 . S
C580 H586 0.930 . S
N581 Li531 1.990 . S
N581 C580 1.314 . S
N581 C584 1.279 . S
C582 C580 1.353 . S
C582 C585 1.348 . S
C582 H614 0.929 . S
C583 C584 1.358 . S
C583 C585 1.356 . S
C583 H615 0.930 . S
C584 N581 1.279 . S
C584 C583 1.358 . S
C584 H587 0.930 . S
C585 C582 1.348 . S
C585 C583 1.356 . S
H586 C580 0.930 . S
H587 C584 0.930 . S
O588 Li528 1.956 . S
O588 Li529 1.970 . S
O588 Li530 1.961 . S
O588 C532 1.325 . S
O589 Li528 1.970 . S
O589 Li529 1.956 . S
O589 Li531 1.961 . S
O589 C538 1.325 . S
O590 Li528 1.961 . S
O590 Li530 1.956 . S
O590 Li531 1.970 . S
O590 C560 1.325 . S
O591 Li529 1.961 . S
O591 Li530 1.970 . S
O591 Li531 1.956 . S
O591 C566 1.325 . S
H592 C534 0.929 . S
H593 C535 0.930 . S
H594 C536 0.930 . S
H595 C537 0.930 . S
H596 C539 0.930 . S
H597 C541 0.929 . S
H598 C542 0.930 . S
H599 C543 0.930 . S
H600 C546 0.930 . S
H601 C549 0.929 . S
H602 C554 0.929 . S
H603 C555 0.930 . S
H604 C562 0.929 . S
H605 C563 0.930 . S
H606 C564 0.930 . S
H607 C565 0.930 . S
H608 C567 0.929 . S
H609 C568 0.930 . S
H610 C569 0.930 . S
H611 C570 0.930 . S
H612 C574 0.929 . S
H613 C576 0.930 . S
H614 C582 0.929 . S
H615 C583 0.930 . S
Li616 N633 1.990 . S
Li616 O676 1.956 1_455 S
Li616 O677 1.970 . S
Li616 O678 1.961 . S
Li617 N641 1.990 . S
Li617 O676 1.970 . S
Li617 O677 1.956 1_655 S
Li617 O679 1.961 . S
Li618 N663 1.992 . S
Li618 O676 1.956 . S
Li618 O678 1.960 1_655 S
Li618 O679 1.970 . S
Li619 N669 1.990 . S
Li619 O677 1.961 . S
Li619 O678 1.970 . S
Li619 O679 1.956 1_455 S
C620 C622 1.348 . S
C620 C623 1.356 . S
C620 O676 1.325 . S
N621 C624 1.314 . S
N621 C625 1.279 . S
C622 C620 1.348 . S
C622 C624 1.353 . S
C622 H680 0.929 . S
C623 C620 1.356 . S
C623 C625 1.358 . S
C623 H681 0.930 . S
C624 N621 1.314 . S
C624 C622 1.353 . S
C624 H682 0.930 . S
C625 N621 1.279 . S
C625 C623 1.358 . S
C625 H683 0.930 . S
C626 C629 1.348 1_455 S
C626 C630 1.356 . S
C626 O677 1.325 . S
C627 N628 1.279 . S
C627 C630 1.358 . S
C627 H684 0.930 . S
N628 C627 1.279 . S
N628 C631 1.314 1_455 S
C629 C626 1.348 1_655 S
C629 C631 1.353 . S
C629 H685 0.929 . S
C630 C626 1.356 . S
C630 C627 1.358 . S
C630 H686 0.930 . S
C631 N628 1.314 1_655 S
C631 C629 1.353 . S
C631 H687 0.930 . S
C632 N633 1.314 . S
C632 C637 1.353 . S
C632 H638 0.930 . S
N633 Li616 1.990 . S
N633 C632 1.314 . S
N633 C635 1.279 1_455 S
C634 C635 1.358 . S
C634 C636 1.356 1_655 S
C634 H688 0.930 . S
C635 N633 1.279 1_655 S
C635 C634 1.358 . S
C635 H639 0.930 . S
C636 C634 1.356 1_455 S
C636 C637 1.348 . S
C637 C632 1.353 . S
C637 C636 1.348 . S
C637 H689 0.929 . S
H638 C632 0.930 . S
H639 C635 0.930 . S
C640 N641 1.314 . S
C640 C642 1.353 . S
C640 H646 0.930 . S
N641 Li617 1.990 . S
N641 C640 1.314 . S
N641 C644 1.279 . S
C642 C640 1.353 . S
C642 C645 1.348 . S
C642 H690 0.929 . S
C643 C644 1.358 . S
C643 C645 1.356 . S
C643 H691 0.930 . S
C644 N641 1.279 . S
C644 C643 1.358 . S
C644 H647 0.930 . S
C645 C642 1.348 . S
C645 C643 1.356 . S
H646 C640 0.930 . S
H647 C644 0.930 . S
C648 C650 1.348 . S
C648 C651 1.356 . S
C648 O678 1.325 . S
N649 C652 1.314 . S
N649 C653 1.279 . S
C650 C648 1.348 . S
C650 C652 1.353 . S
C650 H692 0.929 . S
C651 C648 1.356 . S
C651 C653 1.358 . S
C651 H693 0.930 . S
C652 N649 1.314 . S
C652 C650 1.353 . S
C652 H694 0.930 . S
C653 N649 1.279 . S
C653 C651 1.358 . S
C653 H695 0.930 . S
C654 C655 1.343 1_655 S
C654 C656 1.356 . S
C654 O679 1.325 . S
C655 C654 1.343 1_455 S
C655 C657 1.354 1_455 S
C655 H696 0.933 . S
C656 C654 1.356 . S
C656 C658 1.358 . S
C656 H697 0.930 . S
C657 C655 1.354 1_655 S
C657 N659 1.314 . S
C657 H698 0.930 1_655 S
C658 C656 1.358 . S
C658 N659 1.279 . S
C658 H699 0.930 . S
N659 C657 1.314 . S
N659 C658 1.279 . S
C660 C662 1.353 . S
C660 N663 1.335 . S
C660 H666 0.930 . S
C661 N663 1.258 1_455 S
C661 C664 1.358 . S
C661 H667 0.930 . S
C662 C660 1.353 . S
C662 C665 1.348 . S
C662 H700 0.929 . S
N663 Li618 1.992 . S
N663 C660 1.335 . S
N663 C661 1.258 1_655 S
C664 C661 1.358 . S
C664 C665 1.356 1_455 S
C664 H701 0.930 . S
C665 C662 1.348 . S
C665 C664 1.356 1_655 S
H666 C660 0.930 . S
H667 C661 0.930 . S
C668 N669 1.314 . S
C668 C670 1.353 . S
C668 H674 0.930 . S
N669 Li619 1.990 . S
N669 C668 1.314 . S
N669 C672 1.279 . S
C670 C668 1.353 . S
C670 C673 1.348 . S
C670 H702 0.929 . S
C671 C672 1.358 . S
C671 C673 1.356 . S
C671 H703 0.930 . S
C672 N669 1.279 . S
C672 C671 1.358 . S
C672 H675 0.930 . S
C673 C670 1.348 . S
C673 C671 1.356 . S
H674 C668 0.930 . S
H675 C672 0.930 . S
O676 Li616 1.956 1_655 S
O676 Li617 1.970 . S
O676 Li618 1.956 . S
O676 C620 1.325 . S
O677 Li616 1.970 . S
O677 Li617 1.956 1_455 S
O677 Li619 1.961 . S
O677 C626 1.325 . S
O678 Li616 1.961 . S
O678 Li618 1.960 1_455 S
O678 Li619 1.970 . S
O678 C648 1.325 . S
O679 Li617 1.961 . S
O679 Li618 1.970 . S
O679 Li619 1.956 1_655 S
O679 C654 1.325 . S
H680 C622 0.929 . S
H681 C623 0.930 . S
H682 C624 0.930 . S
H683 C625 0.930 . S
H684 C627 0.930 . S
H685 C629 0.929 . S
H686 C630 0.930 . S
H687 C631 0.930 . S
H688 C634 0.930 . S
H689 C637 0.929 . S
H690 C642 0.929 . S
H691 C643 0.930 . S
H692 C650 0.929 . S
H693 C651 0.930 . S
H694 C652 0.930 . S
H695 C653 0.930 . S
H696 C655 0.933 . S
H697 C656 0.930 . S
H698 C657 0.930 1_455 S
H699 C658 0.930 . S
H700 C662 0.929 . S
H701 C664 0.930 . S
H702 C670 0.929 . S
H703 C671 0.930 . S
Li704 N721 1.990 . S
Li704 O764 1.920 1_545 S
Li704 O765 1.970 . S
Li704 O766 1.961 . S
Li705 N729 1.990 . S
Li705 O764 1.964 . S
Li705 O765 1.956 1_565 S
Li705 O767 1.961 1_565 S
Li706 N751 1.990 . S
Li706 O764 1.919 1_545 S
Li706 O766 1.956 . S
Li706 O767 1.970 . S
Li707 N757 1.990 . S
Li707 O765 1.961 . S
Li707 O766 1.970 . S
Li707 O767 1.956 . S
C708 C710 1.348 . S
C708 C711 1.356 . S
C708 O764 1.369 . S
N709 C712 1.314 . S
N709 C713 1.279 . S
C710 C708 1.348 . S
C710 C712 1.353 . S
C710 H768 0.929 . S
C711 C708 1.356 . S
C711 C713 1.358 . S
C711 H769 0.922 1_565 S
C712 N709 1.314 . S
C712 C710 1.353 . S
C712 H770 0.930 . S
C713 N709 1.279 . S
C713 C711 1.358 . S
C713 H771 0.930 . S
C714 C717 1.348 . S
C714 C718 1.356 . S
C714 O765 1.325 . S
C715 N716 1.279 . S
C715 C718 1.358 . S
C715 H772 0.930 . S
N716 C715 1.279 . S
N716 C719 1.314 . S
C717 C714 1.348 . S
C717 C719 1.353 . S
C717 H773 0.929 . S
C718 C714 1.356 . S
C718 C715 1.358 . S
C718 H774 0.930 . S
C719 N716 1.314 . S
C719 C717 1.353 . S
C719 H775 0.930 . S
C720 N721 1.314 . S
C720 C725 1.353 . S
C720 H726 0.930 . S
N721 Li704 1.990 . S
N721 C720 1.314 . S
N721 C723 1.279 . S
C722 C723 1.358 . S
C722 C724 1.356 . S
C722 H776 0.959 . S
C723 N721 1.279 . S
C723 C722 1.358 . S
C723 H727 0.930 1_545 S
C724 C722 1.356 . S
C724 C725 1.348 . S
C725 C720 1.353 . S
C725 C724 1.348 . S
C725 H777 0.929 . S
H726 C720 0.930 . S
H727 C723 0.930 1_565 S
C728 N729 1.314 . S
C728 C730 1.353 . S
C728 H734 0.930 . S
N729 Li705 1.990 . S
N729 C728 1.314 . S
N729 C732 1.279 . S
C730 C728 1.353 . S
C730 C733 1.348 . S
C730 H778 0.929 . S
C731 C732 1.358 . S
C731 C733 1.356 . S
C731 H779 0.930 . S
C732 N729 1.279 . S
C732 C731 1.358 . S
C732 H735 0.930 . S
C733 C730 1.348 . S
C733 C731 1.356 . S
H734 C728 0.930 . S
H735 C732 0.930 . S
C736 C738 1.348 . S
C736 C739 1.356 . S
C736 O766 1.325 . S
N737 C740 1.314 . S
N737 C741 1.279 . S
C738 C736 1.348 . S
C738 C740 1.353 . S
C738 H780 0.929 . S
C739 C736 1.356 . S
C739 C741 1.358 . S
C739 H781 0.930 . S
C740 N737 1.314 . S
C740 C738 1.353 . S
C740 H782 0.930 . S
C741 N737 1.279 . S
C741 C739 1.358 . S
C741 H783 0.930 . S
C742 C743 1.348 . S
C742 C744 1.356 . S
C742 O767 1.325 . S
C743 C742 1.348 . S
C743 C745 1.353 . S
C743 H784 0.929 . S
C744 C742 1.356 . S
C744 C746 1.358 . S
C744 H785 0.930 . S
C745 C743 1.353 . S
C745 N747 1.314 . S
C745 H786 0.930 . S
C746 C744 1.358 . S
C746 N747 1.279 . S
C746 H787 0.930 . S
N747 C745 1.314 . S
N747 C746 1.279 . S
C748 C750 1.353 . S
C748 N751 1.314 . S
C748 H754 0.930 1_545 S
C749 N751 1.279 . S
C749 C752 1.358 . S
C749 H755 0.930 . S
C750 C748 1.353 . S
C750 C753 1.348 . S
C750 H788 0.929 1_545 S
N751 Li706 1.990 . S
N751 C748 1.314 . S
N751 C749 1.279 . S
C752 C749 1.358 . S
C752 C753 1.356 . S
C752 H789 0.930 . S
C753 C750 1.348 . S
C753 C752 1.356 . S
H754 C748 0.930 1_565 S
H755 C749 0.930 . S
C756 N757 1.314 . S
C756 C758 1.353 . S
C756 H762 0.930 . S
N757 Li707 1.990 . S
N757 C756 1.314 . S
N757 C760 1.279 . S
C758 C756 1.353 . S
C758 C761 1.348 . S
C758 H790 0.929 . S
C759 C760 1.358 . S
C759 C761 1.356 . S
C759 H791 0.930 . S
C760 N757 1.279 . S
C760 C759 1.358 . S
C760 H763 0.930 . S
C761 C758 1.348 . S
C761 C759 1.356 . S
H762 C756 0.930 . S
H763 C760 0.930 . S
O764 Li704 1.920 1_565 S
O764 Li705 1.964 . S
O764 Li706 1.919 1_565 S
O764 C708 1.369 . S
O765 Li704 1.970 . S
O765 Li705 1.956 1_545 S
O765 Li707 1.961 . S
O765 C714 1.325 . S
O766 Li704 1.961 . S
O766 Li706 1.956 . S
O766 Li707 1.970 . S
O766 C736 1.325 . S
O767 Li705 1.961 1_545 S
O767 Li706 1.970 . S
O767 Li707 1.956 . S
O767 C742 1.325 . S
H768 C710 0.929 . S
H769 C711 0.922 1_545 S
H770 C712 0.930 . S
H771 C713 0.930 . S
H772 C715 0.930 . S
H773 C717 0.929 . S
H774 C718 0.930 . S
H775 C719 0.930 . S
H776 C722 0.959 . S
H777 C725 0.929 . S
H778 C730 0.929 . S
H779 C731 0.930 . S
H780 C738 0.929 . S
H781 C739 0.930 . S
H782 C740 0.930 . S
H783 C741 0.930 . S
H784 C743 0.929 . S
H785 C744 0.930 . S
H786 C745 0.930 . S
H787 C746 0.930 . S
H788 C750 0.929 1_565 S
H789 C752 0.930 . S
H790 C758 0.929 . S
H791 C759 0.930 . S
Li792 N809 1.990 . S
Li792 O852 1.956 . S
Li792 O853 1.970 . S
Li792 O854 1.961 . S
Li793 N817 1.990 . S
Li793 O852 1.970 . S
Li793 O853 1.956 . S
Li793 O855 1.961 . S
Li794 N839 1.990 . S
Li794 O852 1.961 . S
Li794 O854 1.956 . S
Li794 O855 1.970 . S
Li795 N845 1.990 . S
Li795 O853 1.961 . S
Li795 O854 1.970 . S
Li795 O855 1.956 . S
C796 C798 1.348 . S
C796 C799 1.356 . S
C796 O852 1.325 . S
N797 C800 1.314 . S
N797 C801 1.279 . S
C798 C796 1.348 . S
C798 C800 1.353 . S
C798 H856 0.929 . S
C799 C796 1.356 . S
C799 C801 1.358 . S
C799 H857 0.930 . S
C800 N797 1.314 . S
C800 C798 1.353 . S
C800 H858 0.930 . S
C801 N797 1.279 . S
C801 C799 1.358 . S
C801 H859 0.930 . S
C802 C805 1.348 . S
C802 C806 1.356 . S
C802 O853 1.325 . S
C803 N804 1.279 . S
C803 C806 1.358 . S
C803 H860 0.930 . S
N804 C803 1.279 . S
N804 C807 1.314 . S
C805 C802 1.348 . S
C805 C807 1.353 . S
C805 H861 0.929 . S
C806 C802 1.356 . S
C806 C803 1.358 . S
C806 H862 0.930 . S
C807 N804 1.314 . S
C807 C805 1.353 . S
C807 H863 0.930 . S
C808 N809 1.314 . S
C808 C813 1.353 . S
C808 H814 0.930 . S
N809 Li792 1.990 . S
N809 C808 1.314 . S
N809 C811 1.279 . S
C810 C811 1.358 . S
C810 C812 1.356 . S
C810 H864 0.930 . S
C811 N809 1.279 . S
C811 C810 1.358 . S
C811 H815 0.930 . S
C812 C810 1.356 . S
C812 C813 1.348 . S
C813 C808 1.353 . S
C813 C812 1.348 . S
C813 H865 0.929 . S
H814 C808 0.930 . S
H815 C811 0.930 . S
C816 N817 1.314 . S
C816 C818 1.353 . S
C816 H822 0.930 . S
N817 Li793 1.990 . S
N817 C816 1.314 . S
N817 C820 1.279 . S
C818 C816 1.353 . S
C818 C821 1.348 . S
C818 H866 0.929 . S
C819 C820 1.358 . S
C819 C821 1.356 . S
C819 H867 0.930 . S
C820 N817 1.279 . S
C820 C819 1.358 . S
C820 H823 0.930 . S
C821 C818 1.348 . S
C821 C819 1.356 . S
H822 C816 0.930 . S
H823 C820 0.930 . S
C824 C826 1.348 . S
C824 C827 1.356 . S
C824 O854 1.325 . S
N825 C828 1.314 . S
N825 C829 1.279 . S
C826 C824 1.348 . S
C826 C828 1.353 . S
C826 H868 0.929 . S
C827 C824 1.356 . S
C827 C829 1.358 . S
C827 H869 0.930 . S
C828 N825 1.314 . S
C828 C826 1.353 . S
C828 H870 0.930 . S
C829 N825 1.279 . S
C829 C827 1.358 . S
C829 H871 0.930 . S
C830 C831 1.348 . S
C830 C832 1.356 . S
C830 O855 1.325 . S
C831 C830 1.348 . S
C831 C833 1.353 . S
C831 H872 0.929 . S
C832 C830 1.356 . S
C832 C834 1.358 . S
C832 H873 0.930 . S
C833 C831 1.353 . S
C833 N835 1.314 . S
C833 H874 0.930 . S
C834 C832 1.358 . S
C834 N835 1.279 . S
C834 H875 0.930 . S
N835 C833 1.314 . S
N835 C834 1.279 . S
C836 C838 1.353 . S
C836 N839 1.314 . S
C836 H842 0.930 . S
C837 N839 1.279 . S
C837 C840 1.358 . S
C837 H843 0.930 . S
C838 C836 1.353 . S
C838 C841 1.348 . S
C838 H876 0.929 . S
N839 Li794 1.990 . S
N839 C836 1.314 . S
N839 C837 1.279 . S
C840 C837 1.358 . S
C840 C841 1.356 . S
C840 H877 0.930 . S
C841 C838 1.348 . S
C841 C840 1.356 . S
H842 C836 0.930 . S
H843 C837 0.930 . S
C844 N845 1.314 . S
C844 C846 1.353 . S
C844 H850 0.930 . S
N845 Li795 1.990 . S
N845 C844 1.314 . S
N845 C848 1.279 . S
C846 C844 1.353 . S
C846 C849 1.348 . S
C846 H878 0.929 . S
C847 C848 1.358 . S
C847 C849 1.356 . S
C847 H879 0.930 . S
C848 N845 1.279 . S
C848 C847 1.358 . S
C848 H851 0.930 . S
C849 C846 1.348 . S
C849 C847 1.356 . S
H850 C844 0.930 . S
H851 C848 0.930 . S
O852 Li792 1.956 . S
O852 Li793 1.970 . S
O852 Li794 1.961 . S
O852 C796 1.325 . S
O853 Li792 1.970 . S
O853 Li793 1.956 . S
O853 Li795 1.961 . S
O853 C802 1.325 . S
O854 Li792 1.961 . S
O854 Li794 1.956 . S
O854 Li795 1.970 . S
O854 C824 1.325 . S
O855 Li793 1.961 . S
O855 Li794 1.970 . S
O855 Li795 1.956 . S
O855 C830 1.325 . S
H856 C798 0.929 . S
H857 C799 0.930 . S
H858 C800 0.930 . S
H859 C801 0.930 . S
H860 C803 0.930 . S
H861 C805 0.929 . S
H862 C806 0.930 . S
H863 C807 0.930 . S
H864 C810 0.930 . S
H865 C813 0.929 . S
H866 C818 0.929 . S
H867 C819 0.930 . S
H868 C826 0.929 . S
H869 C827 0.930 . S
H870 C828 0.930 . S
H871 C829 0.930 . S
H872 C831 0.929 . S
H873 C832 0.930 . S
H874 C833 0.930 . S
H875 C834 0.930 . S
H876 C838 0.929 . S
H877 C840 0.930 . S
H878 C846 0.929 . S
H879 C847 0.930 . S
Li880 N897 1.990 . S
Li880 O940 1.956 . S
Li880 O941 1.970 . S
Li880 O942 1.961 . S
Li881 N905 1.990 . S
Li881 O940 1.970 . S
Li881 O941 1.956 . S
Li881 O943 1.961 1_545 S
Li882 N927 1.990 . S
Li882 O940 1.961 1_565 S
Li882 O942 1.956 1_565 S
Li882 O943 1.970 . S
Li883 N933 1.990 . S
Li883 O941 1.961 . S
Li883 O942 1.970 . S
Li883 O943 1.956 1_545 S
C884 C886 1.348 . S
C884 C887 1.356 . S
C884 O940 1.325 . S
N885 C888 1.314 . S
N885 C889 1.279 . S
C886 C884 1.348 . S
C886 C888 1.353 . S
C886 H944 0.929 . S
C887 C884 1.356 . S
C887 C889 1.358 . S
C887 H945 0.930 . S
C888 N885 1.314 . S
C888 C886 1.353 . S
C888 H946 0.930 . S
C889 N885 1.279 . S
C889 C887 1.358 . S
C889 H947 0.930 . S
C890 C893 1.348 . S
C890 C894 1.356 . S
C890 O941 1.325 . S
C891 N892 1.279 . S
C891 C894 1.358 . S
C891 H948 0.930 . S
N892 C891 1.279 . S
N892 C895 1.314 . S
C893 C890 1.348 . S
C893 C895 1.353 . S
C893 H949 0.929 . S
C894 C890 1.356 . S
C894 C891 1.358 . S
C894 H950 0.930 . S
C895 N892 1.314 . S
C895 C893 1.353 . S
C895 H951 0.930 . S
C896 N897 1.314 . S
C896 C901 1.353 . S
C896 H902 0.930 . S
N897 Li880 1.990 . S
N897 C896 1.314 . S
N897 C899 1.279 . S
C898 C899 1.358 . S
C898 C900 1.356 . S
C898 H952 0.930 . S
C899 N897 1.279 . S
C899 C898 1.358 . S
C899 H903 0.930 . S
C900 C898 1.356 . S
C900 C901 1.348 . S
C901 C896 1.353 . S
C901 C900 1.348 . S
C901 H953 0.929 . S
H902 C896 0.930 . S
H903 C899 0.930 . S
C904 N905 1.314 1_565 S
C904 C906 1.353 . S
C904 H910 0.930 . S
N905 Li881 1.990 . S
N905 C904 1.314 1_545 S
N905 C908 1.279 . S
C906 C904 1.353 . S
C906 C909 1.348 1_565 S
C906 H954 0.929 . S
C907 C908 1.358 . S
C907 C909 1.356 . S
C907 H955 0.930 . S
C908 N905 1.279 . S
C908 C907 1.358 . S
C908 H911 0.930 . S
C909 C906 1.348 1_545 S
C909 C907 1.356 . S
H910 C904 0.930 . S
H911 C908 0.930 . S
C912 C914 1.348 . S
C912 C915 1.356 . S
C912 O942 1.325 . S
N913 C916 1.314 . S
N913 C917 1.279 . S
C914 C912 1.348 . S
C914 C916 1.353 . S
C914 H956 0.929 1_545 S
C915 C912 1.356 . S
C915 C917 1.358 . S
C915 H957 0.930 . S
C916 N913 1.314 . S
C916 C914 1.353 . S
C916 H958 0.930 1_545 S
C917 N913 1.279 . S
C917 C915 1.358 . S
C917 H959 0.930 . S
C918 C919 1.348 . S
C918 C920 1.356 . S
C918 O943 1.325 . S
C919 C918 1.348 . S
C919 C921 1.353 . S
C919 H960 0.929 . S
C920 C918 1.356 . S
C920 C922 1.358 . S
C920 H961 0.930 . S
C921 C919 1.353 . S
C921 N923 1.314 . S
C921 H962 0.930 . S
C922 C920 1.358 . S
C922 N923 1.279 . S
C922 H963 0.930 . S
N923 C921 1.314 . S
N923 C922 1.279 . S
C924 C926 1.353 . S
C924 N927 1.314 . S
C924 H930 0.930 . S
C925 N927 1.279 . S
C925 C928 1.358 . S
C925 H931 0.930 . S
C926 C924 1.353 . S
C926 C929 1.348 . S
C926 H964 0.929 . S
N927 Li882 1.990 . S
N927 C924 1.314 . S
N927 C925 1.279 . S
C928 C925 1.358 . S
C928 C929 1.356 . S
C928 H965 0.930 . S
C929 C926 1.348 . S
C929 C928 1.356 . S
H930 C924 0.930 . S
H931 C925 0.930 . S
C932 N933 1.314 . S
C932 C934 1.353 . S
C932 H938 0.930 . S
N933 Li883 1.990 . S
N933 C932 1.314 . S
N933 C936 1.279 1_545 S
C934 C932 1.353 . S
C934 C937 1.348 1_545 S
C934 H966 0.929 . S
C935 C936 1.358 . S
C935 C937 1.356 . S
C935 H967 0.930 . S
C936 N933 1.279 1_565 S
C936 C935 1.358 . S
C936 H939 0.930 . S
C937 C934 1.348 1_565 S
C937 C935 1.356 . S
H938 C932 0.930 . S
H939 C936 0.930 . S
O940 Li880 1.956 . S
O940 Li881 1.970 . S
O940 Li882 1.961 1_545 S
O940 C884 1.325 . S
O941 Li880 1.970 . S
O941 Li881 1.956 . S
O941 Li883 1.961 . S
O941 C890 1.325 . S
O942 Li880 1.961 . S
O942 Li882 1.956 1_545 S
O942 Li883 1.970 . S
O942 C912 1.325 . S
O943 Li881 1.961 1_565 S
O943 Li882 1.970 . S
O943 Li883 1.956 1_565 S
O943 C918 1.325 . S
H944 C886 0.929 . S
H945 C887 0.930 . S
H946 C888 0.930 . S
H947 C889 0.930 . S
H948 C891 0.930 . S
H949 C893 0.929 . S
H950 C894 0.930 . S
H951 C895 0.930 . S
H952 C898 0.930 . S
H953 C901 0.929 . S
H954 C906 0.929 . S
H955 C907 0.930 . S
H956 C914 0.929 1_565 S
H957 C915 0.930 . S
H958 C916 0.930 1_565 S
H959 C917 0.930 . S
H960 C919 0.929 . S
H961 C920 0.930 . S
H962 C921 0.930 . S
H963 C922 0.930 . S
H964 C926 0.929 . S
H965 C928 0.930 . S
H966 C934 0.929 . S
H967 C935 0.930 . S
Li968 N985 1.990 . S
Li968 O1028 1.956 . S
Li968 O1029 1.970 . S
Li968 O1030 1.961 1_554 S
Li969 N993 1.990 . S
Li969 O1028 1.970 . S
Li969 O1029 1.956 . S
Li969 O1031 1.961 . S
Li970 N1015 1.990 . S
Li970 O1028 1.961 . S
Li970 O1030 1.956 1_554 S
Li970 O1031 1.970 . S
Li971 N1021 1.990 . S
Li971 O1029 1.961 1_556 S
Li971 O1030 1.970 . S
Li971 O1031 1.956 1_556 S
C972 C974 1.348 . S
C972 C975 1.356 . S
C972 O1028 1.325 . S
N973 C976 1.314 . S
N973 C977 1.279 . S
C974 C972 1.348 . S
C974 C976 1.353 . S
C974 H1032 0.929 . S
C975 C972 1.356 . S
C975 C977 1.358 . S
C975 H1033 0.930 . S
C976 N973 1.314 . S
C976 C974 1.353 . S
C976 H1034 0.930 . S
C977 N973 1.279 . S
C977 C975 1.358 . S
C977 H1035 0.930 . S
C978 C981 1.348 . S
C978 C982 1.356 . S
C978 O1029 1.325 . S
C979 N980 1.279 . S
C979 C982 1.358 . S
C979 H1036 0.930 . S
N980 C979 1.279 . S
N980 C983 1.314 . S
C981 C978 1.348 . S
C981 C983 1.353 . S
C981 H1037 0.929 . S
C982 C978 1.356 . S
C982 C979 1.358 . S
C982 H1038 0.930 . S
C983 N980 1.314 . S
C983 C981 1.353 . S
C983 H1039 0.930 . S
C984 N985 1.314 1_556 S
C984 C989 1.353 . S
C984 H990 0.929 . S
N985 Li968 1.990 . S
N985 C984 1.314 1_554 S
N985 C987 1.279 . S
C986 C987 1.358 . S
C986 C988 1.356 . S
C986 H1040 0.930 . S
C987 N985 1.279 . S
C987 C986 1.358 . S
C987 H991 0.930 . S
C988 C986 1.356 . S
C988 C989 1.348 1_554 S
C989 C984 1.353 . S
C989 C988 1.348 1_556 S
C989 H1041 0.929 . S
H990 C984 0.929 . S
H991 C987 0.930 . S
C992 N993 1.314 . S
C992 C994 1.353 . S
C992 H998 0.930 . S
N993 Li969 1.990 . S
N993 C992 1.314 . S
N993 C996 1.279 . S
C994 C992 1.353 . S
C994 C997 1.348 . S
C994 H1042 0.929 . S
C995 C996 1.358 . S
C995 C997 1.356 . S
C995 H1043 0.930 . S
C996 N993 1.279 . S
C996 C995 1.358 . S
C996 H999 0.930 . S
C997 C994 1.348 . S
C997 C995 1.356 . S
H998 C992 0.930 . S
H999 C996 0.930 . S
C1000 C1002 1.348 . S
C1000 C1003 1.356 . S
C1000 O1030 1.325 . S
N1001 C1004 1.314 . S
N1001 C1005 1.279 . S
C1002 C1000 1.348 . S
C1002 C1004 1.353 . S
C1002 H1044 0.929 . S
C1003 C1000 1.356 . S
C1003 C1005 1.358 . S
C1003 H1045 0.930 . S
C1004 N1001 1.314 . S
C1004 C1002 1.353 . S
C1004 H1046 0.930 . S
C1005 N1001 1.279 . S
C1005 C1003 1.358 . S
C1005 H1047 0.930 . S
C1006 C1007 1.348 . S
C1006 C1008 1.356 . S
C1006 O1031 1.325 . S
C1007 C1006 1.348 . S
C1007 C1009 1.353 . S
C1007 H1048 0.929 . S
C1008 C1006 1.356 . S
C1008 C1010 1.358 . S
C1008 H1049 0.930 . S
C1009 C1007 1.353 . S
C1009 N1011 1.314 . S
C1009 H1050 0.930 . S
C1010 C1008 1.358 . S
C1010 N1011 1.279 . S
C1010 H1051 0.930 . S
N1011 C1009 1.314 . S
N1011 C1010 1.279 . S
C1012 C1014 1.353 . S
C1012 N1015 1.314 . S
C1012 H1018 0.930 . S
C1013 N1015 1.279 . S
C1013 C1016 1.358 . S
C1013 H1019 0.930 1_554 S
C1014 C1012 1.353 . S
C1014 C1017 1.348 . S
C1014 H1052 0.929 . S
N1015 Li970 1.990 . S
N1015 C1012 1.314 . S
N1015 C1013 1.279 . S
C1016 C1013 1.358 . S
C1016 C1017 1.356 . S
C1016 H1053 0.930 1_554 S
C1017 C1014 1.348 . S
C1017 C1016 1.356 . S
H1018 C1012 0.930 . S
H1019 C1013 0.930 1_556 S
C1020 N1021 1.314 . S
C1020 C1022 1.353 . S
C1020 H1026 0.930 . S
N1021 Li971 1.990 . S
N1021 C1020 1.314 . S
N1021 C1024 1.279 . S
C1022 C1020 1.353 . S
C1022 C1025 1.348 . S
C1022 H1054 0.929 . S
C1023 C1024 1.358 . S
C1023 C1025 1.356 . S
C1023 H1055 0.930 . S
C1024 N1021 1.279 . S
C1024 C1023 1.358 . S
C1024 H1027 0.930 . S
C1025 C1022 1.348 . S
C1025 C1023 1.356 . S
H1026 C1020 0.930 . S
H1027 C1024 0.930 . S
O1028 Li968 1.956 . S
O1028 Li969 1.970 . S
O1028 Li970 1.961 . S
O1028 C972 1.325 . S
O1029 Li968 1.970 . S
O1029 Li969 1.956 . S
O1029 Li971 1.961 1_554 S
O1029 C978 1.325 . S
O1030 Li968 1.961 1_556 S
O1030 Li970 1.956 1_556 S
O1030 Li971 1.970 . S
O1030 C1000 1.325 . S
O1031 Li969 1.961 . S
O1031 Li970 1.970 . S
O1031 Li971 1.956 1_554 S
O1031 C1006 1.325 . S
H1032 C974 0.929 . S
H1033 C975 0.930 . S
H1034 C976 0.930 . S
H1035 C977 0.930 . S
H1036 C979 0.930 . S
H1037 C981 0.929 . S
H1038 C982 0.930 . S
H1039 C983 0.930 . S
H1040 C986 0.930 . S
H1041 C989 0.929 . S
H1042 C994 0.929 . S
H1043 C995 0.930 . S
H1044 C1002 0.929 . S
H1045 C1003 0.930 . S
H1046 C1004 0.930 . S
H1047 C1005 0.930 . S
H1048 C1007 0.929 . S
H1049 C1008 0.930 . S
H1050 C1009 0.930 . S
H1051 C1010 0.930 . S
H1052 C1014 0.929 . S
H1053 C1016 0.930 1_556 S
H1054 C1022 0.929 . S
H1055 C1023 0.930 . S
Li1056 N1073 1.990 . S
Li1056 O1116 1.956 . S
Li1056 O1117 1.970 . S
Li1056 O1118 1.961 . S
Li1057 N1081 1.990 . S
Li1057 O1116 1.970 . S
Li1057 O1117 1.956 . S
Li1057 O1119 1.961 . S
Li1058 N1103 1.990 . S
Li1058 O1116 1.961 . S
Li1058 O1118 1.956 . S
Li1058 O1119 1.970 . S
Li1059 N1109 1.990 1_554 S
Li1059 O1117 1.961 . S
Li1059 O1118 1.970 . S
Li1059 O1119 1.956 . S
C1060 C1062 1.348 . S
C1060 C1063 1.356 . S
C1060 O1116 1.325 . S
N1061 C1064 1.314 . S
N1061 C1065 1.279 . S
C1062 C1060 1.348 . S
C1062 C1064 1.353 . S
C1062 H1120 0.929 . S
C1063 C1060 1.356 . S
C1063 C1065 1.358 . S
C1063 H1121 0.930 . S
C1064 N1061 1.314 . S
C1064 C1062 1.353 . S
C1064 H1122 0.930 . S
C1065 N1061 1.279 . S
C1065 C1063 1.358 . S
C1065 H1123 0.930 . S
C1066 C1069 1.348 . S
C1066 C1070 1.356 . S
C1066 O1117 1.325 . S
C1067 N1068 1.279 . S
C1067 C1070 1.358 . S
C1067 H1124 0.930 . S
N1068 C1067 1.279 . S
N1068 C1071 1.314 . S
C1069 C1066 1.348 . S
C1069 C1071 1.353 . S
C1069 H1125 0.929 . S
C1070 C1066 1.356 . S
C1070 C1067 1.358 . S
C1070 H1126 0.930 . S
C1071 N1068 1.314 . S
C1071 C1069 1.353 . S
C1071 H1127 0.930 . S
C1072 N1073 1.314 . S
C1072 C1077 1.353 . S
C1072 H1078 0.930 . S
N1073 Li1056 1.990 . S
N1073 C1072 1.314 . S
N1073 C1075 1.279 . S
C1074 C1075 1.358 . S
C1074 C1076 1.356 . S
C1074 H1128 0.930 . S
C1075 N1073 1.279 . S
C1075 C1074 1.358 . S
C1075 H1079 0.930 . S
C1076 C1074 1.356 . S
C1076 C1077 1.348 . S
C1077 C1072 1.353 . S
C1077 C1076 1.348 . S
C1077 H1129 0.929 . S
H1078 C1072 0.930 . S
H1079 C1075 0.930 . S
C1080 N1081 1.314 . S
C1080 C1082 1.353 . S
C1080 H1086 0.930 . S
N1081 Li1057 1.990 . S
N1081 C1080 1.314 . S
N1081 C1084 1.279 . S
C1082 C1080 1.353 . S
C1082 C1085 1.348 . S
C1082 H1130 0.929 . S
C1083 C1084 1.358 . S
C1083 C1085 1.356 . S
C1083 H1131 0.930 . S
C1084 N1081 1.279 . S
C1084 C1083 1.358 . S
C1084 H1087 0.930 . S
C1085 C1082 1.348 . S
C1085 C1083 1.356 . S
H1086 C1080 0.930 . S
H1087 C1084 0.930 . S
C1088 C1090 1.348 1_554 S
C1088 C1091 1.356 . S
C1088 O1118 1.324 . S
N1089 C1092 1.314 . S
N1089 C1093 1.279 . S
C1090 C1088 1.348 1_556 S
C1090 C1092 1.353 . S
C1090 H1132 0.929 . S
C1091 C1088 1.356 . S
C1091 C1093 1.358 1_554 S
C1091 H1133 0.930 . S
C1092 N1089 1.314 . S
C1092 C1090 1.353 . S
C1092 H1134 0.930 . S
C1093 N1089 1.279 . S
C1093 C1091 1.358 1_556 S
C1093 H1135 0.930 . S
C1094 C1095 1.348 . S
C1094 C1096 1.356 . S
C1094 O1119 1.325 . S
C1095 C1094 1.348 . S
C1095 C1097 1.353 . S
C1095 H1136 0.929 . S
C1096 C1094 1.356 . S
C1096 C1098 1.358 . S
C1096 H1137 0.930 . S
C1097 C1095 1.353 . S
C1097 N1099 1.314 . S
C1097 H1138 0.930 . S
C1098 C1096 1.358 . S
C1098 N1099 1.279 . S
C1098 H1139 0.930 . S
N1099 C1097 1.314 . S
N1099 C1098 1.279 . S
C1100 C1102 1.353 . S
C1100 N1103 1.314 . S
C1100 H1106 0.930 . S
C1101 N1103 1.279 . S
C1101 C1104 1.358 . S
C1101 H1107 0.930 . S
C1102 C1100 1.353 . S
C1102 C1105 1.348 . S
C1102 H1140 0.929 . S
N1103 Li1058 1.990 . S
N1103 C1100 1.314 . S
N1103 C1101 1.279 . S
C1104 C1101 1.358 . S
C1104 C1105 1.356 . S
C1104 H1141 0.930 . S
C1105 C1102 1.348 . S
C1105 C1104 1.356 . S
H1106 C1100 0.930 . S
H1107 C1101 0.930 . S
C1108 N1109 1.314 . S
C1108 C1110 1.353 . S
C1108 H1114 0.930 . S
N1109 Li1059 1.990 1_556 S
N1109 C1108 1.314 . S
N1109 C1112 1.279 . S
C1110 C1108 1.353 . S
C1110 C1113 1.348 . S
C1110 H1142 0.929 . S
C1111 C1112 1.358 . S
C1111 C1113 1.356 . S
C1111 H1143 0.930 . S
C1112 N1109 1.279 . S
C1112 C1111 1.358 . S
C1112 H1115 0.930 . S
C1113 C1110 1.348 . S
C1113 C1111 1.356 . S
H1114 C1108 0.930 . S
H1115 C1112 0.930 . S
O1116 Li1056 1.956 . S
O1116 Li1057 1.970 . S
O1116 Li1058 1.961 . S
O1116 C1060 1.325 . S
O1117 Li1056 1.970 . S
O1117 Li1057 1.956 . S
O1117 Li1059 1.961 . S
O1117 C1066 1.325 . S
O1118 Li1056 1.961 . S
O1118 Li1058 1.956 . S
O1118 Li1059 1.970 . S
O1118 C1088 1.324 . S
O1119 Li1057 1.961 . S
O1119 Li1058 1.970 . S
O1119 Li1059 1.956 . S
O1119 C1094 1.325 . S
H1120 C1062 0.929 . S
H1121 C1063 0.930 . S
H1122 C1064 0.930 . S
H1123 C1065 0.930 . S
H1124 C1067 0.930 . S
H1125 C1069 0.929 . S
H1126 C1070 0.930 . S
H1127 C1071 0.930 . S
H1128 C1074 0.930 . S
H1129 C1077 0.929 . S
H1130 C1082 0.929 . S
H1131 C1083 0.930 . S
H1132 C1090 0.929 . S
H1133 C1091 0.930 . S
H1134 C1092 0.930 . S
H1135 C1093 0.930 . S
H1136 C1095 0.929 . S
H1137 C1096 0.930 . S
H1138 C1097 0.930 . S
H1139 C1098 0.930 . S
H1140 C1102 0.929 . S
H1141 C1104 0.930 . S
H1142 C1110 0.929 . S
H1143 C1111 0.930 . S
Li1144 N1161 1.990 . S
Li1144 O1204 1.956 . S
Li1144 O1205 1.970 . S
Li1144 O1206 1.961 . S
Li1145 N1169 1.990 . S
Li1145 O1204 1.970 . S
Li1145 O1205 1.956 . S
Li1145 O1207 1.961 1_554 S
Li1146 N1191 1.990 1_554 S
Li1146 O1204 1.961 . S
Li1146 O1206 1.956 . S
Li1146 O1207 1.970 1_554 S
Li1147 N1197 1.990 . S
Li1147 O1205 1.961 . S
Li1147 O1206 1.970 . S
Li1147 O1207 1.956 1_554 S
C1148 C1150 1.348 . S
C1148 C1151 1.356 . S
C1148 O1204 1.325 . S
N1149 C1152 1.314 . S
N1149 C1153 1.279 . S
C1150 C1148 1.348 . S
C1150 C1152 1.353 . S
C1150 H1208 0.929 . S
C1151 C1148 1.356 . S
C1151 C1153 1.358 . S
C1151 H1209 0.930 . S
C1152 N1149 1.314 . S
C1152 C1150 1.353 . S
C1152 H1210 0.930 . S
C1153 N1149 1.279 . S
C1153 C1151 1.358 . S
C1153 H1211 0.930 . S
C1154 C1157 1.348 . S
C1154 C1158 1.356 . S
C1154 O1205 1.325 . S
C1155 N1156 1.279 . S
C1155 C1158 1.358 . S
C1155 H1212 0.930 . S
N1156 C1155 1.279 . S
N1156 C1159 1.314 . S
C1157 C1154 1.348 . S
C1157 C1159 1.353 . S
C1157 H1213 0.929 . S
C1158 C1154 1.356 . S
C1158 C1155 1.358 . S
C1158 H1214 0.930 . S
C1159 N1156 1.314 . S
C1159 C1157 1.353 . S
C1159 H1215 0.930 . S
C1160 N1161 1.314 . S
C1160 C1165 1.353 . S
C1160 H1166 0.930 . S
N1161 Li1144 1.990 . S
N1161 C1160 1.314 . S
N1161 C1163 1.279 . S
C1162 C1163 1.358 . S
C1162 C1164 1.356 . S
C1162 H1216 0.930 . S
C1163 N1161 1.279 . S
C1163 C1162 1.358 . S
C1163 H1167 0.930 . S
C1164 C1162 1.356 . S
C1164 C1165 1.348 . S
C1165 C1160 1.353 . S
C1165 C1164 1.348 . S
C1165 H1217 0.929 . S
H1166 C1160 0.930 . S
H1167 C1163 0.930 . S
C1168 N1169 1.314 . S
C1168 C1170 1.353 . S
C1168 H1174 0.930 1_554 S
N1169 Li1145 1.990 . S
N1169 C1168 1.314 . S
N1169 C1172 1.279 . S
C1170 C1168 1.353 . S
C1170 C1173 1.348 . S
C1170 H1218 0.929 1_554 S
C1171 C1172 1.358 . S
C1171 C1173 1.356 . S
C1171 H1219 0.930 . S
C1172 N1169 1.279 . S
C1172 C1171 1.358 . S
C1172 H1175 0.930 . S
C1173 C1170 1.348 . S
C1173 C1171 1.356 . S
H1174 C1168 0.930 1_556 S
H1175 C1172 0.930 . S
C1176 C1178 1.348 . S
C1176 C1179 1.356 . S
C1176 O1206 1.325 . S
N1177 C1180 1.314 . S
N1177 C1181 1.279 . S
C1178 C1176 1.348 . S
C1178 C1180 1.353 . S
C1178 H1220 0.929 . S
C1179 C1176 1.356 . S
C1179 C1181 1.358 . S
C1179 H1221 0.930 . S
C1180 N1177 1.314 . S
C1180 C1178 1.353 . S
C1180 H1222 0.930 . S
C1181 N1177 1.279 . S
C1181 C1179 1.358 . S
C1181 H1223 0.930 . S
C1182 C1183 1.348 . S
C1182 C1184 1.356 . S
C1182 O1207 1.325 . S
C1183 C1182 1.348 . S
C1183 C1185 1.353 . S
C1183 H1224 0.929 . S
C1184 C1182 1.356 . S
C1184 C1186 1.358 . S
C1184 H1225 0.930 . S
C1185 C1183 1.353 . S
C1185 N1187 1.314 . S
C1185 H1226 0.930 . S
C1186 C1184 1.358 . S
C1186 N1187 1.279 . S
C1186 H1227 0.930 . S
N1187 C1185 1.314 . S
N1187 C1186 1.279 . S
C1188 C1190 1.353 . S
C1188 N1191 1.314 . S
C1188 H1194 0.930 . S
C1189 N1191 1.279 . S
C1189 C1192 1.358 . S
C1189 H1195 0.930 . S
C1190 C1188 1.353 . S
C1190 C1193 1.348 . S
C1190 H1228 0.929 . S
N1191 Li1146 1.990 1_556 S
N1191 C1188 1.314 . S
N1191 C1189 1.279 . S
C1192 C1189 1.358 . S
C1192 C1193 1.356 . S
C1192 H1229 0.930 . S
C1193 C1190 1.348 . S
C1193 C1192 1.356 . S
H1194 C1188 0.930 . S
H1195 C1189 0.930 . S
C1196 N1197 1.314 . S
C1196 C1198 1.353 . S
C1196 H1202 0.930 . S
N1197 Li1147 1.990 . S
N1197 C1196 1.314 . S
N1197 C1200 1.288 . S
C1198 C1196 1.353 . S
C1198 C1201 1.348 . S
C1198 H1230 0.929 . S
C1199 C1200 1.359 1_556 S
C1199 C1201 1.356 1_556 S
C1199 H1231 0.930 . S
C1200 N1197 1.288 . S
C1200 C1199 1.359 1_554 S
C1200 H1203 0.920 1_554 S
C1201 C1198 1.348 . S
C1201 C1199 1.356 1_554 S
H1202 C1196 0.930 . S
H1203 C1200 0.920 1_556 S
O1204 Li1144 1.956 . S
O1204 Li1145 1.970 . S
O1204 Li1146 1.961 . S
O1204 C1148 1.325 . S
O1205 Li1144 1.970 . S
O1205 Li1145 1.956 . S
O1205 Li1147 1.961 . S
O1205 C1154 1.325 . S
O1206 Li1144 1.961 . S
O1206 Li1146 1.956 . S
O1206 Li1147 1.970 . S
O1206 C1176 1.325 . S
O1207 Li1145 1.961 1_556 S
O1207 Li1146 1.970 1_556 S
O1207 Li1147 1.956 1_556 S
O1207 C1182 1.325 . S
H1208 C1150 0.929 . S
H1209 C1151 0.930 . S
H1210 C1152 0.930 . S
H1211 C1153 0.930 . S
H1212 C1155 0.930 . S
H1213 C1157 0.929 . S
H1214 C1158 0.930 . S
H1215 C1159 0.930 . S
H1216 C1162 0.930 . S
H1217 C1165 0.929 . S
H1218 C1170 0.929 1_556 S
H1219 C1171 0.930 . S
H1220 C1178 0.929 . S
H1221 C1179 0.930 . S
H1222 C1180 0.930 . S
H1223 C1181 0.930 . S
H1224 C1183 0.929 . S
H1225 C1184 0.930 . S
H1226 C1185 0.930 . S
H1227 C1186 0.930 . S
H1228 C1190 0.929 . S
H1229 C1192 0.930 . S
H1230 C1198 0.929 . S
H1231 C1199 0.930 . S
Li1232 N1249 1.990 . S
Li1232 O1292 1.956 . S
Li1232 O1293 1.970 . S
Li1232 O1294 1.961 . S
Li1233 N1257 1.990 . S
Li1233 O1292 1.970 . S
Li1233 O1293 1.956 . S
Li1233 O1295 1.961 . S
Li1234 N1279 1.990 . S
Li1234 O1292 1.961 . S
Li1234 O1294 1.956 . S
Li1234 O1295 1.970 . S
Li1235 N1285 1.990 . S
Li1235 O1293 1.961 . S
Li1235 O1294 1.970 . S
Li1235 O1295 1.956 . S
C1236 C1238 1.348 . S
C1236 C1239 1.356 . S
C1236 O1292 1.325 . S
N1237 C1240 1.314 . S
N1237 C1241 1.279 . S
C1238 C1236 1.348 . S
C1238 C1240 1.353 . S
C1238 H1296 0.929 . S
C1239 C1236 1.356 . S
C1239 C1241 1.358 . S
C1239 H1297 0.930 . S
C1240 N1237 1.314 . S
C1240 C1238 1.353 . S
C1240 H1298 0.930 . S
C1241 N1237 1.279 . S
C1241 C1239 1.358 . S
C1241 H1299 0.930 . S
C1242 C1245 1.348 . S
C1242 C1246 1.356 . S
C1242 O1293 1.325 . S
C1243 N1244 1.279 . S
C1243 C1246 1.358 . S
C1243 H1300 0.930 . S
N1244 C1243 1.279 . S
N1244 C1247 1.314 . S
C1245 C1242 1.348 . S
C1245 C1247 1.353 . S
C1245 H1301 0.929 . S
C1246 C1242 1.356 . S
C1246 C1243 1.358 . S
C1246 H1302 0.930 . S
C1247 N1244 1.314 . S
C1247 C1245 1.353 . S
C1247 H1303 0.930 . S
C1248 N1249 1.314 . S
C1248 C1253 1.353 . S
C1248 H1254 0.930 . S
N1249 Li1232 1.990 . S
N1249 C1248 1.314 . S
N1249 C1251 1.279 . S
C1250 C1251 1.358 . S
C1250 C1252 1.356 . S
C1250 H1304 0.930 . S
C1251 N1249 1.279 . S
C1251 C1250 1.358 . S
C1251 H1255 0.930 . S
C1252 C1250 1.356 . S
C1252 C1253 1.348 . S
C1253 C1248 1.353 . S
C1253 C1252 1.348 . S
C1253 H1305 0.929 . S
H1254 C1248 0.930 . S
H1255 C1251 0.930 . S
C1256 N1257 1.314 . S
C1256 C1258 1.353 . S
C1256 H1262 0.930 . S
N1257 Li1233 1.990 . S
N1257 C1256 1.314 . S
N1257 C1260 1.279 . S
C1258 C1256 1.353 . S
C1258 C1261 1.348 . S
C1258 H1306 0.929 . S
C1259 C1260 1.358 . S
C1259 C1261 1.356 . S
C1259 H1307 0.930 . S
C1260 N1257 1.279 . S
C1260 C1259 1.358 . S
C1260 H1263 0.930 . S
C1261 C1258 1.348 . S
C1261 C1259 1.356 . S
H1262 C1256 0.930 . S
H1263 C1260 0.930 . S
C1264 C1266 1.348 . S
C1264 C1267 1.356 . S
C1264 O1294 1.325 . S
N1265 C1268 1.314 . S
N1265 C1269 1.279 . S
C1266 C1264 1.348 . S
C1266 C1268 1.353 . S
C1266 H1308 0.929 . S
C1267 C1264 1.356 . S
C1267 C1269 1.358 . S
C1267 H1309 0.930 . S
C1268 N1265 1.314 . S
C1268 C1266 1.353 . S
C1268 H1310 0.930 . S
C1269 N1265 1.279 . S
C1269 C1267 1.358 . S
C1269 H1311 0.930 . S
C1270 C1271 1.348 . S
C1270 C1272 1.356 . S
C1270 O1295 1.325 . S
C1271 C1270 1.348 . S
C1271 C1273 1.353 . S
C1271 H1312 0.929 . S
C1272 C1270 1.356 . S
C1272 C1274 1.358 . S
C1272 H1313 0.930 . S
C1273 C1271 1.353 . S
C1273 N1275 1.314 . S
C1273 H1314 0.930 . S
C1274 C1272 1.358 . S
C1274 N1275 1.279 . S
C1274 H1315 0.930 . S
N1275 C1273 1.314 . S
N1275 C1274 1.279 . S
C1276 C1278 1.353 . S
C1276 N1279 1.314 . S
C1276 H1282 0.930 . S
C1277 N1279 1.279 . S
C1277 C1280 1.358 . S
C1277 H1283 0.930 . S
C1278 C1276 1.353 . S
C1278 C1281 1.348 . S
C1278 H1316 0.929 . S
N1279 Li1234 1.990 . S
N1279 C1276 1.314 . S
N1279 C1277 1.279 . S
C1280 C1277 1.358 . S
C1280 C1281 1.356 . S
C1280 H1317 0.930 . S
C1281 C1278 1.348 . S
C1281 C1280 1.356 . S
H1282 C1276 0.930 . S
H1283 C1277 0.930 . S
C1284 N1285 1.314 . S
C1284 C1286 1.353 . S
C1284 H1290 0.930 . S
N1285 Li1235 1.990 . S
N1285 C1284 1.314 . S
N1285 C1288 1.279 . S
C1286 C1284 1.353 . S
C1286 C1289 1.348 . S
C1286 H1318 0.929 . S
C1287 C1288 1.358 . S
C1287 C1289 1.356 . S
C1287 H1319 0.930 . S
C1288 N1285 1.279 . S
C1288 C1287 1.358 . S
C1288 H1291 0.930 . S
C1289 C1286 1.348 . S
C1289 C1287 1.356 . S
H1290 C1284 0.930 . S
H1291 C1288 0.930 . S
O1292 Li1232 1.956 . S
O1292 Li1233 1.970 . S
O1292 Li1234 1.961 . S
O1292 C1236 1.325 . S
O1293 Li1232 1.970 . S
O1293 Li1233 1.956 . S
O1293 Li1235 1.961 . S
O1293 C1242 1.325 . S
O1294 Li1232 1.961 . S
O1294 Li1234 1.956 . S
O1294 Li1235 1.970 . S
O1294 C1264 1.325 . S
O1295 Li1233 1.961 . S
O1295 Li1234 1.970 . S
O1295 Li1235 1.956 . S
O1295 C1270 1.325 . S
H1296 C1238 0.929 . S
H1297 C1239 0.930 . S
H1298 C1240 0.930 . S
H1299 C1241 0.930 . S
H1300 C1243 0.930 . S
H1301 C1245 0.929 . S
H1302 C1246 0.930 . S
H1303 C1247 0.930 . S
H1304 C1250 0.930 . S
H1305 C1253 0.929 . S
H1306 C1258 0.929 . S
H1307 C1259 0.930 . S
H1308 C1266 0.929 . S
H1309 C1267 0.930 . S
H1310 C1268 0.930 . S
H1311 C1269 0.930 . S
H1312 C1271 0.929 . S
H1313 C1272 0.930 . S
H1314 C1273 0.930 . S
H1315 C1274 0.930 . S
H1316 C1278 0.929 . S
H1317 C1280 0.930 . S
H1318 C1286 0.929 . S
H1319 C1287 0.930 . S
Li1320 N1337 1.990 . S
Li1320 O1380 1.956 . S
Li1320 O1381 1.970 . S
Li1320 O1382 1.961 . S
Li1321 N1345 1.990 . S
Li1321 O1380 1.970 . S
Li1321 O1381 1.956 . S
Li1321 O1383 1.961 . S
Li1322 N1367 1.990 . S
Li1322 O1380 1.961 . S
Li1322 O1382 1.956 . S
Li1322 O1383 1.970 . S
Li1323 N1373 1.990 . S
Li1323 O1381 1.961 . S
Li1323 O1382 1.970 . S
Li1323 O1383 1.956 . S
C1324 C1326 1.348 . S
C1324 C1327 1.356 . S
C1324 O1380 1.325 . S
N1325 C1328 1.314 . S
N1325 C1329 1.279 . S
C1326 C1324 1.348 . S
C1326 C1328 1.353 . S
C1326 H1384 0.929 . S
C1327 C1324 1.356 . S
C1327 C1329 1.358 . S
C1327 H1385 0.930 . S
C1328 N1325 1.314 . S
C1328 C1326 1.353 . S
C1328 H1386 0.930 . S
C1329 N1325 1.279 . S
C1329 C1327 1.358 . S
C1329 H1387 0.930 . S
C1330 C1333 1.348 . S
C1330 C1334 1.356 . S
C1330 O1381 1.325 . S
C1331 N1332 1.279 . S
C1331 C1334 1.358 . S
C1331 H1388 0.930 . S
N1332 C1331 1.279 . S
N1332 C1335 1.314 . S
C1333 C1330 1.348 . S
C1333 C1335 1.353 . S
C1333 H1389 0.929 . S
C1334 C1330 1.356 . S
C1334 C1331 1.358 . S
C1334 H1390 0.930 . S
C1335 N1332 1.314 . S
C1335 C1333 1.353 . S
C1335 H1391 0.930 . S
C1336 N1337 1.314 . S
C1336 C1341 1.353 . S
C1336 H1342 0.930 . S
N1337 Li1320 1.990 . S
N1337 C1336 1.314 . S
N1337 C1339 1.279 . S
C1338 C1339 1.358 . S
C1338 C1340 1.356 . S
C1338 H1392 0.930 . S
C1339 N1337 1.279 . S
C1339 C1338 1.358 . S
C1339 H1343 0.930 . S
C1340 C1338 1.356 . S
C1340 C1341 1.348 . S
C1341 C1336 1.353 . S
C1341 C1340 1.348 . S
C1341 H1393 0.929 . S
H1342 C1336 0.930 . S
H1343 C1339 0.930 . S
C1344 N1345 1.314 . S
C1344 C1346 1.353 . S
C1344 H1350 0.930 . S
N1345 Li1321 1.990 . S
N1345 C1344 1.314 . S
N1345 C1348 1.279 . S
C1346 C1344 1.353 . S
C1346 C1349 1.348 . S
C1346 H1394 0.929 . S
C1347 C1348 1.358 . S
C1347 C1349 1.356 . S
C1347 H1395 0.930 . S
C1348 N1345 1.279 . S
C1348 C1347 1.358 . S
C1348 H1351 0.930 . S
C1349 C1346 1.348 . S
C1349 C1347 1.356 . S
H1350 C1344 0.930 . S
H1351 C1348 0.930 . S
C1352 C1354 1.348 . S
C1352 C1355 1.356 . S
C1352 O1382 1.325 . S
N1353 C1356 1.314 . S
N1353 C1357 1.279 . S
C1354 C1352 1.348 . S
C1354 C1356 1.353 . S
C1354 H1396 0.929 . S
C1355 C1352 1.356 . S
C1355 C1357 1.358 . S
C1355 H1397 0.930 . S
C1356 N1353 1.314 . S
C1356 C1354 1.353 . S
C1356 H1398 0.930 . S
C1357 N1353 1.279 . S
C1357 C1355 1.358 . S
C1357 H1399 0.930 . S
C1358 C1359 1.348 . S
C1358 C1360 1.356 . S
C1358 O1383 1.325 . S
C1359 C1358 1.348 . S
C1359 C1361 1.353 . S
C1359 H1400 0.929 . S
C1360 C1358 1.356 . S
C1360 C1362 1.358 . S
C1360 H1401 0.930 . S
C1361 C1359 1.353 . S
C1361 N1363 1.314 . S
C1361 H1402 0.930 . S
C1362 C1360 1.358 . S
C1362 N1363 1.279 . S
C1362 H1403 0.930 . S
N1363 C1361 1.314 . S
N1363 C1362 1.279 . S
C1364 C1366 1.353 . S
C1364 N1367 1.314 . S
C1364 H1370 0.930 . S
C1365 N1367 1.279 . S
C1365 C1368 1.358 . S
C1365 H1371 0.930 . S
C1366 C1364 1.353 . S
C1366 C1369 1.348 . S
C1366 H1404 0.929 . S
N1367 Li1322 1.990 . S
N1367 C1364 1.314 . S
N1367 C1365 1.279 . S
C1368 C1365 1.358 . S
C1368 C1369 1.356 . S
C1368 H1405 0.930 . S
C1369 C1366 1.348 . S
C1369 C1368 1.356 . S
H1370 C1364 0.930 . S
H1371 C1365 0.930 . S
C1372 N1373 1.314 . S
C1372 C1374 1.353 . S
C1372 H1378 0.930 . S
N1373 Li1323 1.990 . S
N1373 C1372 1.314 . S
N1373 C1376 1.279 . S
C1374 C1372 1.353 . S
C1374 C1377 1.348 . S
C1374 H1406 0.929 . S
C1375 C1376 1.358 . S
C1375 C1377 1.356 . S
C1375 H1407 0.930 . S
C1376 N1373 1.279 . S
C1376 C1375 1.358 . S
C1376 H1379 0.930 . S
C1377 C1374 1.348 . S
C1377 C1375 1.356 . S
H1378 C1372 0.930 . S
H1379 C1376 0.930 . S
O1380 Li1320 1.956 . S
O1380 Li1321 1.970 . S
O1380 Li1322 1.961 . S
O1380 C1324 1.325 . S
O1381 Li1320 1.970 . S
O1381 Li1321 1.956 . S
O1381 Li1323 1.961 . S
O1381 C1330 1.325 . S
O1382 Li1320 1.961 . S
O1382 Li1322 1.956 . S
O1382 Li1323 1.970 . S
O1382 C1352 1.325 . S
O1383 Li1321 1.961 . S
O1383 Li1322 1.970 . S
O1383 Li1323 1.956 . S
O1383 C1358 1.325 . S
H1384 C1326 0.929 . S
H1385 C1327 0.930 . S
H1386 C1328 0.930 . S
H1387 C1329 0.930 . S
H1388 C1331 0.930 . S
H1389 C1333 0.929 . S
H1390 C1334 0.930 . S
H1391 C1335 0.930 . S
H1392 C1338 0.930 . S
H1393 C1341 0.929 . S
H1394 C1346 0.929 . S
H1395 C1347 0.930 . S
H1396 C1354 0.929 . S
H1397 C1355 0.930 . S
H1398 C1356 0.930 . S
H1399 C1357 0.930 . S
H1400 C1359 0.929 . S
H1401 C1360 0.930 . S
H1402 C1361 0.930 . S
H1403 C1362 0.930 . S
H1404 C1366 0.929 . S
H1405 C1368 0.930 . S
H1406 C1374 0.929 . S
H1407 C1375 0.930 . S
Li1408 N1425 1.990 . S
Li1408 O1468 1.956 1_545 S
Li1408 O1469 1.970 . S
Li1408 O1470 1.961 . S
Li1409 N1433 1.990 . S
Li1409 O1468 1.970 . S
Li1409 O1469 1.956 1_565 S
Li1409 O1471 1.961 1_565 S
Li1410 N1455 1.990 . S
Li1410 O1468 1.961 1_545 S
Li1410 O1470 1.956 . S
Li1410 O1471 1.970 . S
Li1411 N1461 1.990 . S
Li1411 O1469 1.961 . S
Li1411 O1470 1.970 . S
Li1411 O1471 1.956 . S
C1412 C1414 1.348 . S
C1412 C1415 1.356 . S
C1412 O1468 1.325 . S
N1413 C1416 1.314 . S
N1413 C1417 1.279 . S
C1414 C1412 1.348 . S
C1414 C1416 1.353 . S
C1414 H1472 0.929 . S
C1415 C1412 1.356 . S
C1415 C1417 1.358 . S
C1415 H1473 0.930 . S
C1416 N1413 1.314 . S
C1416 C1414 1.353 . S
C1416 H1474 0.930 . S
C1417 N1413 1.279 . S
C1417 C1415 1.358 . S
C1417 H1475 0.930 . S
C1418 C1421 1.348 . S
C1418 C1422 1.356 . S
C1418 O1469 1.325 . S
C1419 N1420 1.279 . S
C1419 C1422 1.358 . S
C1419 H1476 0.930 . S
N1420 C1419 1.279 . S
N1420 C1423 1.314 . S
C1421 C1418 1.348 . S
C1421 C1423 1.353 . S
C1421 H1477 0.929 . S
C1422 C1418 1.356 . S
C1422 C1419 1.358 . S
C1422 H1478 0.930 . S
C1423 N1420 1.314 . S
C1423 C1421 1.353 . S
C1423 H1479 0.930 . S
C1424 N1425 1.314 . S
C1424 C1429 1.353 . S
C1424 H1430 0.930 . S
N1425 Li1408 1.990 . S
N1425 C1424 1.314 . S
N1425 C1427 1.279 . S
C1426 C1427 1.358 . S
C1426 C1428 1.356 . S
C1426 H1480 0.930 1_545 S
C1427 N1425 1.279 . S
C1427 C1426 1.358 . S
C1427 H1431 0.930 1_545 S
C1428 C1426 1.356 . S
C1428 C1429 1.348 . S
C1429 C1424 1.353 . S
C1429 C1428 1.348 . S
C1429 H1481 0.929 . S
H1430 C1424 0.930 . S
H1431 C1427 0.930 1_565 S
C1432 N1433 1.314 . S
C1432 C1434 1.353 . S
C1432 H1438 0.930 . S
N1433 Li1409 1.990 . S
N1433 C1432 1.314 . S
N1433 C1436 1.279 . S
C1434 C1432 1.353 . S
C1434 C1437 1.348 . S
C1434 H1482 0.929 . S
C1435 C1436 1.358 . S
C1435 C1437 1.356 . S
C1435 H1483 0.930 . S
C1436 N1433 1.279 . S
C1436 C1435 1.358 . S
C1436 H1439 0.930 . S
C1437 C1434 1.348 . S
C1437 C1435 1.356 . S
H1438 C1432 0.930 . S
H1439 C1436 0.930 . S
C1440 C1442 1.348 . S
C1440 C1443 1.356 . S
C1440 O1470 1.325 . S
N1441 C1444 1.314 . S
N1441 C1445 1.279 . S
C1442 C1440 1.348 . S
C1442 C1444 1.353 . S
C1442 H1484 0.929 . S
C1443 C1440 1.356 . S
C1443 C1445 1.358 . S
C1443 H1485 0.930 . S
C1444 N1441 1.314 . S
C1444 C1442 1.353 . S
C1444 H1486 0.930 . S
C1445 N1441 1.279 . S
C1445 C1443 1.358 . S
C1445 H1487 0.930 . S
C1446 C1447 1.348 . S
C1446 C1448 1.356 . S
C1446 O1471 1.325 . S
C1447 C1446 1.348 . S
C1447 C1449 1.353 . S
C1447 H1488 0.929 . S
C1448 C1446 1.356 . S
C1448 C1450 1.356 . S
C1448 H1489 0.930 1_545 S
C1449 C1447 1.353 . S
C1449 N1451 1.314 . S
C1449 H1490 0.930 . S
C1450 C1448 1.356 . S
C1450 N1451 1.286 . S
C1450 H1491 0.926 1_545 S
N1451 C1449 1.314 . S
N1451 C1450 1.286 . S
C1452 C1454 1.353 . S
C1452 N1455 1.314 1_565 S
C1452 H1458 0.930 . S
C1453 N1455 1.279 . S
C1453 C1456 1.358 . S
C1453 H1459 0.930 . S
C1454 C1452 1.353 . S
C1454 C1457 1.348 1_565 S
C1454 H1492 0.929 . S
N1455 Li1410 1.990 . S
N1455 C1452 1.314 1_545 S
N1455 C1453 1.279 . S
C1456 C1453 1.358 . S
C1456 C1457 1.356 . S
C1456 H1493 0.930 . S
C1457 C1454 1.348 1_545 S
C1457 C1456 1.356 . S
H1458 C1452 0.930 . S
H1459 C1453 0.930 . S
C1460 N1461 1.314 . S
C1460 C1462 1.353 . S
C1460 H1466 0.930 . S
N1461 Li1411 1.990 . S
N1461 C1460 1.314 . S
N1461 C1464 1.279 . S
C1462 C1460 1.353 . S
C1462 C1465 1.348 . S
C1462 H1494 0.929 . S
C1463 C1464 1.358 . S
C1463 C1465 1.356 . S
C1463 H1495 0.930 . S
C1464 N1461 1.279 . S
C1464 C1463 1.358 . S
C1464 H1467 0.930 . S
C1465 C1462 1.348 . S
C1465 C1463 1.356 . S
H1466 C1460 0.930 . S
H1467 C1464 0.930 . S
O1468 Li1408 1.956 1_565 S
O1468 Li1409 1.970 . S
O1468 Li1410 1.961 1_565 S
O1468 C1412 1.325 . S
O1469 Li1408 1.970 . S
O1469 Li1409 1.956 1_545 S
O1469 Li1411 1.961 . S
O1469 C1418 1.325 . S
O1470 Li1408 1.961 . S
O1470 Li1410 1.956 . S
O1470 Li1411 1.970 . S
O1470 C1440 1.325 . S
O1471 Li1409 1.961 1_545 S
O1471 Li1410 1.970 . S
O1471 Li1411 1.956 . S
O1471 C1446 1.325 . S
H1472 C1414 0.929 . S
H1473 C1415 0.930 . S
H1474 C1416 0.930 . S
H1475 C1417 0.930 . S
H1476 C1419 0.930 . S
H1477 C1421 0.929 . S
H1478 C1422 0.930 . S
H1479 C1423 0.930 . S
H1480 C1426 0.930 1_565 S
H1481 C1429 0.929 . S
H1482 C1434 0.929 . S
H1483 C1435 0.930 . S
H1484 C1442 0.929 . S
H1485 C1443 0.930 . S
H1486 C1444 0.930 . S
H1487 C1445 0.930 . S
H1488 C1447 0.929 . S
H1489 C1448 0.930 1_565 S
H1490 C1449 0.930 . S
H1491 C1450 0.926 1_565 S
H1492 C1454 0.929 . S
H1493 C1456 0.930 . S
H1494 C1462 0.929 . S
H1495 C1463 0.930 . S
Li1496 N1513 1.990 . S
Li1496 O1556 1.956 . S
Li1496 O1557 1.970 . S
Li1496 O1558 1.961 . S
Li1497 N1521 1.990 . S
Li1497 O1556 1.970 . S
Li1497 O1557 1.956 . S
Li1497 O1559 1.961 . S
Li1498 N1543 1.990 . S
Li1498 O1556 1.961 . S
Li1498 O1558 1.956 . S
Li1498 O1559 1.970 . S
Li1499 N1549 1.990 . S
Li1499 O1557 1.961 . S
Li1499 O1558 1.970 . S
Li1499 O1559 1.956 . S
C1500 C1502 1.348 . S
C1500 C1503 1.356 . S
C1500 O1556 1.325 . S
N1501 C1504 1.314 . S
N1501 C1505 1.279 . S
C1502 C1500 1.348 . S
C1502 C1504 1.353 . S
C1502 H1560 0.929 . S
C1503 C1500 1.356 . S
C1503 C1505 1.358 . S
C1503 H1561 0.930 . S
C1504 N1501 1.314 . S
C1504 C1502 1.353 . S
C1504 H1562 0.930 . S
C1505 N1501 1.279 . S
C1505 C1503 1.358 . S
C1505 H1563 0.930 . S
C1506 C1509 1.348 . S
C1506 C1510 1.356 . S
C1506 O1557 1.325 . S
C1507 N1508 1.279 . S
C1507 C1510 1.358 . S
C1507 H1564 0.930 . S
N1508 C1507 1.279 . S
N1508 C1511 1.314 . S
C1509 C1506 1.348 . S
C1509 C1511 1.353 . S
C1509 H1565 0.929 . S
C1510 C1506 1.356 . S
C1510 C1507 1.358 . S
C1510 H1566 0.930 . S
C1511 N1508 1.314 . S
C1511 C1509 1.353 . S
C1511 H1567 0.930 . S
C1512 N1513 1.314 . S
C1512 C1517 1.353 . S
C1512 H1518 0.930 . S
N1513 Li1496 1.990 . S
N1513 C1512 1.314 . S
N1513 C1515 1.279 . S
C1514 C1515 1.358 . S
C1514 C1516 1.356 . S
C1514 H1568 0.930 . S
C1515 N1513 1.279 . S
C1515 C1514 1.358 . S
C1515 H1519 0.930 . S
C1516 C1514 1.356 . S
C1516 C1517 1.348 . S
C1517 C1512 1.353 . S
C1517 C1516 1.348 . S
C1517 H1569 0.929 . S
H1518 C1512 0.930 . S
H1519 C1515 0.930 . S
C1520 N1521 1.314 . S
C1520 C1522 1.353 . S
C1520 H1526 0.930 . S
N1521 Li1497 1.990 . S
N1521 C1520 1.314 . S
N1521 C1524 1.279 . S
C1522 C1520 1.353 . S
C1522 C1525 1.348 . S
C1522 H1570 0.929 . S
C1523 C1524 1.358 . S
C1523 C1525 1.356 . S
C1523 H1571 0.930 . S
C1524 N1521 1.279 . S
C1524 C1523 1.358 . S
C1524 H1527 0.930 . S
C1525 C1522 1.348 . S
C1525 C1523 1.356 . S
H1526 C1520 0.930 . S
H1527 C1524 0.930 . S
C1528 C1530 1.348 . S
C1528 C1531 1.356 . S
C1528 O1558 1.325 . S
N1529 C1532 1.314 . S
N1529 C1533 1.279 . S
C1530 C1528 1.348 . S
C1530 C1532 1.353 . S
C1530 H1572 0.929 . S
C1531 C1528 1.356 . S
C1531 C1533 1.358 . S
C1531 H1573 0.930 . S
C1532 N1529 1.314 . S
C1532 C1530 1.353 . S
C1532 H1574 0.930 . S
C1533 N1529 1.279 . S
C1533 C1531 1.358 . S
C1533 H1575 0.930 . S
C1534 C1535 1.348 . S
C1534 C1536 1.356 . S
C1534 O1559 1.325 . S
C1535 C1534 1.348 . S
C1535 C1537 1.353 . S
C1535 H1576 0.929 . S
C1536 C1534 1.356 . S
C1536 C1538 1.358 . S
C1536 H1577 0.930 . S
C1537 C1535 1.353 . S
C1537 N1539 1.314 . S
C1537 H1578 0.930 . S
C1538 C1536 1.358 . S
C1538 N1539 1.279 . S
C1538 H1579 0.930 . S
N1539 C1537 1.314 . S
N1539 C1538 1.279 . S
C1540 C1542 1.353 . S
C1540 N1543 1.314 . S
C1540 H1546 0.930 . S
C1541 N1543 1.279 . S
C1541 C1544 1.358 . S
C1541 H1547 0.930 . S
C1542 C1540 1.353 . S
C1542 C1545 1.348 . S
C1542 H1580 0.929 . S
N1543 Li1498 1.990 . S
N1543 C1540 1.314 . S
N1543 C1541 1.279 . S
C1544 C1541 1.358 . S
C1544 C1545 1.356 . S
C1544 H1581 0.930 . S
C1545 C1542 1.348 . S
C1545 C1544 1.356 . S
H1546 C1540 0.930 . S
H1547 C1541 0.930 . S
C1548 N1549 1.314 . S
C1548 C1550 1.353 . S
C1548 H1554 0.930 . S
N1549 Li1499 1.990 . S
N1549 C1548 1.314 . S
N1549 C1552 1.279 . S
C1550 C1548 1.353 . S
C1550 C1553 1.348 . S
C1550 H1582 0.929 . S
C1551 C1552 1.358 . S
C1551 C1553 1.356 . S
C1551 H1583 0.930 . S
C1552 N1549 1.279 . S
C1552 C1551 1.358 . S
C1552 H1555 0.930 . S
C1553 C1550 1.348 . S
C1553 C1551 1.356 . S
H1554 C1548 0.930 . S
H1555 C1552 0.930 . S
O1556 Li1496 1.956 . S
O1556 Li1497 1.970 . S
O1556 Li1498 1.961 . S
O1556 C1500 1.325 . S
O1557 Li1496 1.970 . S
O1557 Li1497 1.956 . S
O1557 Li1499 1.961 . S
O1557 C1506 1.325 . S
O1558 Li1496 1.961 . S
O1558 Li1498 1.956 . S
O1558 Li1499 1.970 . S
O1558 C1528 1.325 . S
O1559 Li1497 1.961 . S
O1559 Li1498 1.970 . S
O1559 Li1499 1.956 . S
O1559 C1534 1.325 . S
H1560 C1502 0.929 . S
H1561 C1503 0.930 . S
H1562 C1504 0.930 . S
H1563 C1505 0.930 . S
H1564 C1507 0.930 . S
H1565 C1509 0.929 . S
H1566 C1510 0.930 . S
H1567 C1511 0.930 . S
H1568 C1514 0.930 . S
H1569 C1517 0.929 . S
H1570 C1522 0.929 . S
H1571 C1523 0.930 . S
H1572 C1530 0.929 . S
H1573 C1531 0.930 . S
H1574 C1532 0.930 . S
H1575 C1533 0.930 . S
H1576 C1535 0.929 . S
H1577 C1536 0.930 . S
H1578 C1537 0.930 . S
H1579 C1538 0.930 . S
H1580 C1542 0.929 . S
H1581 C1544 0.930 . S
H1582 C1550 0.929 . S
H1583 C1551 0.930 . S
Li1584 N1601 1.990 . S
Li1584 O1644 1.956 . S
Li1584 O1645 1.970 . S
Li1584 O1646 1.961 . S
Li1585 N1609 1.990 . S
Li1585 O1644 1.970 . S
Li1585 O1645 1.956 . S
Li1585 O1647 1.961 . S
Li1586 N1631 1.990 . S
Li1586 O1644 1.961 . S
Li1586 O1646 1.956 . S
Li1586 O1647 1.970 . S
Li1587 N1637 1.990 . S
Li1587 O1645 1.961 . S
Li1587 O1646 1.970 . S
Li1587 O1647 1.956 . S
C1588 C1590 1.348 . S
C1588 C1591 1.356 . S
C1588 O1644 1.325 . S
N1589 C1592 1.314 . S
N1589 C1593 1.279 . S
C1590 C1588 1.348 . S
C1590 C1592 1.353 . S
C1590 H1648 0.929 . S
C1591 C1588 1.356 . S
C1591 C1593 1.358 . S
C1591 H1649 0.930 . S
C1592 N1589 1.314 . S
C1592 C1590 1.353 . S
C1592 H1650 0.930 . S
C1593 N1589 1.279 . S
C1593 C1591 1.358 . S
C1593 H1651 0.930 . S
C1594 C1597 1.348 . S
C1594 C1598 1.356 . S
C1594 O1645 1.325 . S
C1595 N1596 1.279 . S
C1595 C1598 1.358 . S
C1595 H1652 0.930 . S
N1596 C1595 1.279 . S
N1596 C1599 1.314 . S
C1597 C1594 1.348 . S
C1597 C1599 1.353 . S
C1597 H1653 0.929 . S
C1598 C1594 1.356 . S
C1598 C1595 1.358 . S
C1598 H1654 0.930 . S
C1599 N1596 1.314 . S
C1599 C1597 1.353 . S
C1599 H1655 0.930 . S
C1600 N1601 1.314 . S
C1600 C1605 1.353 . S
C1600 H1606 0.930 . S
N1601 Li1584 1.990 . S
N1601 C1600 1.314 . S
N1601 C1603 1.279 . S
C1602 C1603 1.358 . S
C1602 C1604 1.356 . S
C1602 H1656 0.930 . S
C1603 N1601 1.279 . S
C1603 C1602 1.358 . S
C1603 H1607 0.930 . S
C1604 C1602 1.356 . S
C1604 C1605 1.348 . S
C1605 C1600 1.353 . S
C1605 C1604 1.348 . S
C1605 H1657 0.929 . S
H1606 C1600 0.930 . S
H1607 C1603 0.930 . S
C1608 N1609 1.314 . S
C1608 C1610 1.353 . S
C1608 H1614 0.930 . S
N1609 Li1585 1.990 . S
N1609 C1608 1.314 . S
N1609 C1612 1.279 . S
C1610 C1608 1.353 . S
C1610 C1613 1.348 . S
C1610 H1658 0.929 . S
C1611 C1612 1.358 . S
C1611 C1613 1.356 . S
C1611 H1659 0.930 . S
C1612 N1609 1.279 . S
C1612 C1611 1.358 . S
C1612 H1615 0.930 . S
C1613 C1610 1.348 . S
C1613 C1611 1.356 . S
H1614 C1608 0.930 . S
H1615 C1612 0.930 . S
C1616 C1618 1.348 . S
C1616 C1619 1.356 . S
C1616 O1646 1.325 . S
N1617 C1620 1.314 . S
N1617 C1621 1.279 . S
C1618 C1616 1.348 . S
C1618 C1620 1.353 . S
C1618 H1660 0.929 . S
C1619 C1616 1.356 . S
C1619 C1621 1.358 . S
C1619 H1661 0.930 . S
C1620 N1617 1.314 . S
C1620 C1618 1.353 . S
C1620 H1662 0.930 . S
C1621 N1617 1.279 . S
C1621 C1619 1.358 . S
C1621 H1663 0.930 . S
C1622 C1623 1.348 . S
C1622 C1624 1.356 . S
C1622 O1647 1.325 . S
C1623 C1622 1.348 . S
C1623 C1625 1.353 . S
C1623 H1664 0.929 . S
C1624 C1622 1.356 . S
C1624 C1626 1.358 . S
C1624 H1665 0.930 . S
C1625 C1623 1.353 . S
C1625 N1627 1.314 . S
C1625 H1666 0.930 . S
C1626 C1624 1.358 . S
C1626 N1627 1.279 . S
C1626 H1667 0.930 . S
N1627 C1625 1.314 . S
N1627 C1626 1.279 . S
C1628 C1630 1.353 . S
C1628 N1631 1.314 . S
C1628 H1634 0.930 . S
C1629 N1631 1.279 . S
C1629 C1632 1.358 . S
C1629 H1635 0.930 . S
C1630 C1628 1.353 . S
C1630 C1633 1.348 . S
C1630 H1668 0.929 . S
N1631 Li1586 1.990 . S
N1631 C1628 1.314 . S
N1631 C1629 1.279 . S
C1632 C1629 1.358 . S
C1632 C1633 1.356 . S
C1632 H1669 0.930 . S
C1633 C1630 1.348 . S
C1633 C1632 1.356 . S
H1634 C1628 0.930 . S
H1635 C1629 0.930 . S
C1636 N1637 1.314 . S
C1636 C1638 1.353 . S
C1636 H1642 0.930 . S
N1637 Li1587 1.990 . S
N1637 C1636 1.314 . S
N1637 C1640 1.279 . S
C1638 C1636 1.353 . S
C1638 C1641 1.348 . S
C1638 H1670 0.929 . S
C1639 C1640 1.358 . S
C1639 C1641 1.356 . S
C1639 H1671 0.930 . S
C1640 N1637 1.279 . S
C1640 C1639 1.358 . S
C1640 H1643 0.930 . S
C1641 C1638 1.348 . S
C1641 C1639 1.356 . S
H1642 C1636 0.930 . S
H1643 C1640 0.930 . S
O1644 Li1584 1.956 . S
O1644 Li1585 1.970 . S
O1644 Li1586 1.961 . S
O1644 C1588 1.325 . S
O1645 Li1584 1.970 . S
O1645 Li1585 1.956 . S
O1645 Li1587 1.961 . S
O1645 C1594 1.325 . S
O1646 Li1584 1.961 . S
O1646 Li1586 1.956 . S
O1646 Li1587 1.970 . S
O1646 C1616 1.325 . S
O1647 Li1585 1.961 . S
O1647 Li1586 1.970 . S
O1647 Li1587 1.956 . S
O1647 C1622 1.325 . S
H1648 C1590 0.929 . S
H1649 C1591 0.930 . S
H1650 C1592 0.930 . S
H1651 C1593 0.930 . S
H1652 C1595 0.930 . S
H1653 C1597 0.929 . S
H1654 C1598 0.930 . S
H1655 C1599 0.930 . S
H1656 C1602 0.930 . S
H1657 C1605 0.929 . S
H1658 C1610 0.929 . S
H1659 C1611 0.930 . S
H1660 C1618 0.929 . S
H1661 C1619 0.930 . S
H1662 C1620 0.930 . S
H1663 C1621 0.930 . S
H1664 C1623 0.929 . S
H1665 C1624 0.930 . S
H1666 C1625 0.930 . S
H1667 C1626 0.930 . S
H1668 C1630 0.929 . S
H1669 C1632 0.930 . S
H1670 C1638 0.929 . S
H1671 C1639 0.930 . S
Li1672 N1689 1.991 1_545 S
Li1672 O1732 1.953 . S
Li1672 O1733 1.971 . S
Li1672 O1734 1.964 1_545 S
Li1673 N1697 1.990 . S
Li1673 O1732 1.970 . S
Li1673 O1733 1.956 . S
Li1673 O1735 1.961 . S
Li1674 N1719 1.990 . S
Li1674 O1732 1.961 1_565 S
Li1674 O1734 1.956 . S
Li1674 O1735 1.970 1_565 S
Li1675 N1725 1.990 . S
Li1675 O1733 1.961 1_565 S
Li1675 O1734 1.970 . S
Li1675 O1735 1.956 1_565 S
C1676 C1678 1.348 . S
C1676 C1679 1.356 . S
C1676 O1732 1.325 . S
N1677 C1680 1.314 . S
N1677 C1681 1.279 . S
C1678 C1676 1.348 . S
C1678 C1680 1.353 . S
C1678 H1736 0.929 . S
C1679 C1676 1.356 . S
C1679 C1681 1.358 . S
C1679 H1737 0.930 . S
C1680 N1677 1.314 . S
C1680 C1678 1.353 . S
C1680 H1738 0.930 . S
C1681 N1677 1.279 . S
C1681 C1679 1.358 . S
C1681 H1739 0.930 . S
C1682 C1685 1.348 . S
C1682 C1686 1.356 . S
C1682 O1733 1.325 . S
C1683 N1684 1.279 . S
C1683 C1686 1.358 . S
C1683 H1740 0.930 . S
N1684 C1683 1.279 . S
N1684 C1687 1.314 . S
C1685 C1682 1.348 . S
C1685 C1687 1.353 . S
C1685 H1741 0.929 . S
C1686 C1682 1.356 . S
C1686 C1683 1.358 . S
C1686 H1742 0.929 . S
C1687 N1684 1.314 . S
C1687 C1685 1.353 . S
C1687 H1743 0.930 . S
C1688 N1689 1.335 . S
C1688 C1693 1.353 . S
C1688 H1694 0.930 . S
N1689 Li1672 1.991 1_565 S
N1689 C1688 1.335 . S
N1689 C1691 1.259 1_565 S
C1690 C1691 1.358 . S
C1690 C1692 1.356 1_545 S
C1690 H1744 0.930 . S
C1691 N1689 1.259 1_545 S
C1691 C1690 1.358 . S
C1691 H1695 0.930 . S
C1692 C1690 1.356 1_565 S
C1692 C1693 1.348 . S
C1693 C1688 1.353 . S
C1693 C1692 1.348 . S
C1693 H1745 0.929 . S
H1694 C1688 0.930 . S
H1695 C1691 0.930 . S
C1696 N1697 1.314 . S
C1696 C1698 1.353 . S
C1696 H1702 0.930 . S
N1697 Li1673 1.990 . S
N1697 C1696 1.314 . S
N1697 C1700 1.279 . S
C1698 C1696 1.353 . S
C1698 C1701 1.348 . S
C1698 H1746 0.929 . S
C1699 C1700 1.358 . S
C1699 C1701 1.356 . S
C1699 H1747 0.930 . S
C1700 N1697 1.279 . S
C1700 C1699 1.358 . S
C1700 H1703 0.930 . S
C1701 C1698 1.348 . S
C1701 C1699 1.356 . S
H1702 C1696 0.930 . S
H1703 C1700 0.930 . S
C1704 C1706 1.348 . S
C1704 C1707 1.356 . S
C1704 O1734 1.325 . S
N1705 C1708 1.314 . S
N1705 C1709 1.279 . S
C1706 C1704 1.348 . S
C1706 C1708 1.353 . S
C1706 H1748 0.929 . S
C1707 C1704 1.356 . S
C1707 C1709 1.358 . S
C1707 H1749 0.930 . S
C1708 N1705 1.314 . S
C1708 C1706 1.353 . S
C1708 H1750 0.930 . S
C1709 N1705 1.279 . S
C1709 C1707 1.358 . S
C1709 H1751 0.930 . S
C1710 C1711 1.348 1_545 S
C1710 C1712 1.356 . S
C1710 O1735 1.325 . S
C1711 C1710 1.348 1_565 S
C1711 C1713 1.353 . S
C1711 H1752 0.929 . S
C1712 C1710 1.356 . S
C1712 C1714 1.358 . S
C1712 H1753 0.930 . S
C1713 C1711 1.353 . S
C1713 N1715 1.308 1_565 S
C1713 H1754 0.930 . S
C1714 C1712 1.358 . S
C1714 N1715 1.288 . S
C1714 H1755 0.930 . S
N1715 C1713 1.308 1_545 S
N1715 C1714 1.288 . S
C1716 C1718 1.353 . S
C1716 N1719 1.314 1_545 S
C1716 H1722 0.930 . S
C1717 N1719 1.279 . S
C1717 C1720 1.358 . S
C1717 H1723 0.930 . S
C1718 C1716 1.353 . S
C1718 C1721 1.348 1_545 S
C1718 H1756 0.929 . S
N1719 Li1674 1.990 . S
N1719 C1716 1.314 1_565 S
N1719 C1717 1.279 . S
C1720 C1717 1.358 . S
C1720 C1721 1.356 . S
C1720 H1757 0.930 . S
C1721 C1718 1.348 1_565 S
C1721 C1720 1.356 . S
H1722 C1716 0.930 . S
H1723 C1717 0.930 . S
C1724 N1725 1.314 . S
C1724 C1726 1.353 . S
C1724 H1730 0.930 . S
N1725 Li1675 1.990 . S
N1725 C1724 1.314 . S
N1725 C1728 1.279 . S
C1726 C1724 1.353 . S
C1726 C1729 1.348 . S
C1726 H1758 0.929 . S
C1727 C1728 1.358 . S
C1727 C1729 1.356 . S
C1727 H1759 0.930 . S
C1728 N1725 1.279 . S
C1728 C1727 1.358 . S
C1728 H1731 0.930 . S
C1729 C1726 1.348 . S
C1729 C1727 1.356 . S
H1730 C1724 0.930 . S
H1731 C1728 0.930 . S
O1732 Li1672 1.953 . S
O1732 Li1673 1.970 . S
O1732 Li1674 1.961 1_545 S
O1732 C1676 1.325 . S
O1733 Li1672 1.971 . S
O1733 Li1673 1.956 . S
O1733 Li1675 1.961 1_545 S
O1733 C1682 1.325 . S
O1734 Li1672 1.964 1_565 S
O1734 Li1674 1.956 . S
O1734 Li1675 1.970 . S
O1734 C1704 1.325 . S
O1735 Li1673 1.961 . S
O1735 Li1674 1.970 1_545 S
O1735 Li1675 1.956 1_545 S
O1735 C1710 1.325 . S
H1736 C1678 0.929 . S
H1737 C1679 0.930 . S
H1738 C1680 0.930 . S
H1739 C1681 0.930 . S
H1740 C1683 0.930 . S
H1741 C1685 0.929 . S
H1742 C1686 0.929 . S
H1743 C1687 0.930 . S
H1744 C1690 0.930 . S
H1745 C1693 0.929 . S
H1746 C1698 0.929 . S
H1747 C1699 0.930 . S
H1748 C1706 0.929 . S
H1749 C1707 0.930 . S
H1750 C1708 0.930 . S
H1751 C1709 0.930 . S
H1752 C1711 0.929 . S
H1753 C1712 0.930 . S
H1754 C1713 0.930 . S
H1755 C1714 0.930 . S
H1756 C1718 0.929 . S
H1757 C1720 0.930 . S
H1758 C1726 0.929 . S
H1759 C1727 0.930 . S
Li1760 N1777 1.990 . S
Li1760 O1820 1.956 . S
Li1760 O1821 1.970 . S
Li1760 O1822 1.979 . S
Li1761 N1785 1.991 . S
Li1761 O1820 1.968 . S
Li1761 O1821 1.986 . S
Li1761 O1823 1.932 1_554 S
Li1762 N1807 1.990 . S
Li1762 O1820 1.961 1_556 S
Li1762 O1822 1.935 1_556 S
Li1762 O1823 1.970 . S
Li1763 N1813 1.990 . S
Li1763 O1821 1.961 1_556 S
Li1763 O1822 1.970 1_556 S
Li1763 O1823 1.956 . S
C1764 C1766 1.348 . S
C1764 C1767 1.365 . S
C1764 O1820 1.325 . S
N1765 C1768 1.314 . S
N1765 C1769 1.279 . S
C1766 C1764 1.348 . S
C1766 C1768 1.353 . S
C1766 H1824 0.929 . S
C1767 C1764 1.365 . S
C1767 C1769 1.358 . S
C1767 H1825 0.923 1_554 S
C1768 N1765 1.314 . S
C1768 C1766 1.353 . S
C1768 H1826 0.930 . S
C1769 N1765 1.279 . S
C1769 C1767 1.358 . S
C1769 H1827 0.930 . S
C1770 C1773 1.348 . S
C1770 C1774 1.356 . S
C1770 O1821 1.325 . S
C1771 N1772 1.279 . S
C1771 C1774 1.358 . S
C1771 H1828 0.930 . S
N1772 C1771 1.279 . S
N1772 C1775 1.314 . S
C1773 C1770 1.348 . S
C1773 C1775 1.353 . S
C1773 H1829 0.929 . S
C1774 C1770 1.356 . S
C1774 C1771 1.358 . S
C1774 H1830 0.930 . S
C1775 N1772 1.314 . S
C1775 C1773 1.353 . S
C1775 H1831 0.930 . S
C1776 N1777 1.314 . S
C1776 C1781 1.353 . S
C1776 H1782 0.930 . S
N1777 Li1760 1.990 . S
N1777 C1776 1.314 . S
N1777 C1779 1.279 . S
C1778 C1779 1.358 . S
C1778 C1780 1.356 . S
C1778 H1832 0.930 . S
C1779 N1777 1.279 . S
C1779 C1778 1.358 . S
C1779 H1783 0.930 . S
C1780 C1778 1.356 . S
C1780 C1781 1.348 . S
C1781 C1776 1.353 . S
C1781 C1780 1.348 . S
C1781 H1833 0.929 . S
H1782 C1776 0.930 . S
H1783 C1779 0.930 . S
C1784 N1785 1.314 1_556 S
C1784 C1786 1.353 . S
C1784 H1790 0.930 . S
N1785 Li1761 1.991 . S
N1785 C1784 1.314 1_554 S
N1785 C1788 1.279 . S
C1786 C1784 1.353 . S
C1786 C1789 1.326 1_556 S
C1786 H1834 0.929 . S
C1787 C1788 1.358 . S
C1787 C1789 1.378 . S
C1787 H1835 0.930 . S
C1788 N1785 1.279 . S
C1788 C1787 1.358 . S
C1788 H1791 0.930 . S
C1789 C1786 1.326 1_554 S
C1789 C1787 1.378 . S
H1790 C1784 0.930 . S
H1791 C1788 0.930 . S
C1792 C1794 1.346 . S
C1792 C1795 1.357 1_556 S
C1792 O1822 1.325 1_556 S
N1793 C1796 1.314 . S
N1793 C1797 1.279 1_556 S
C1794 C1792 1.346 . S
C1794 C1796 1.353 . S
C1794 H1836 0.929 . S
C1795 C1792 1.357 1_554 S
C1795 C1797 1.358 . S
C1795 H1837 0.930 . S
C1796 N1793 1.314 . S
C1796 C1794 1.353 . S
C1796 H1838 0.930 . S
C1797 N1793 1.279 1_554 S
C1797 C1795 1.358 . S
C1797 H1839 0.930 . S
C1798 C1799 1.348 . S
C1798 C1800 1.356 . S
C1798 O1823 1.325 . S
C1799 C1798 1.348 . S
C1799 C1801 1.353 . S
C1799 H1840 0.929 . S
C1800 C1798 1.356 . S
C1800 C1802 1.358 . S
C1800 H1841 0.930 . S
C1801 C1799 1.353 . S
C1801 N1803 1.314 . S
C1801 H1842 0.930 . S
C1802 C1800 1.358 . S
C1802 N1803 1.279 . S
C1802 H1843 0.930 . S
N1803 C1801 1.314 . S
N1803 C1802 1.279 . S
C1804 C1806 1.353 . S
C1804 N1807 1.314 . S
C1804 H1810 0.930 . S
C1805 N1807 1.279 . S
C1805 C1808 1.358 . S
C1805 H1811 0.930 . S
C1806 C1804 1.353 . S
C1806 C1809 1.348 . S
C1806 H1844 0.929 . S
N1807 Li1762 1.990 . S
N1807 C1804 1.314 . S
N1807 C1805 1.279 . S
C1808 C1805 1.358 . S
C1808 C1809 1.356 . S
C1808 H1845 0.930 . S
C1809 C1806 1.348 . S
C1809 C1808 1.356 . S
H1810 C1804 0.930 . S
H1811 C1805 0.930 . S
C1812 N1813 1.314 1_554 S
C1812 C1814 1.353 . S
C1812 H1818 0.930 . S
N1813 Li1763 1.990 . S
N1813 C1812 1.314 1_556 S
N1813 C1816 1.279 . S
C1814 C1812 1.353 . S
C1814 C1817 1.348 1_554 S
C1814 H1846 0.929 . S
C1815 C1816 1.358 . S
C1815 C1817 1.356 . S
C1815 H1847 0.930 . S
C1816 N1813 1.279 . S
C1816 C1815 1.358 . S
C1816 H1819 0.930 . S
C1817 C1814 1.348 1_556 S
C1817 C1815 1.356 . S
H1818 C1812 0.930 . S
H1819 C1816 0.930 . S
O1820 Li1760 1.956 . S
O1820 Li1761 1.968 . S
O1820 Li1762 1.961 1_554 S
O1820 C1764 1.325 . S
O1821 Li1760 1.970 . S
O1821 Li1761 1.986 . S
O1821 Li1763 1.961 1_554 S
O1821 C1770 1.325 . S
O1822 Li1760 1.979 . S
O1822 Li1762 1.935 1_554 S
O1822 Li1763 1.970 1_554 S
O1822 C1792 1.325 1_554 S
O1823 Li1761 1.932 1_556 S
O1823 Li1762 1.970 . S
O1823 Li1763 1.956 . S
O1823 C1798 1.325 . S
H1824 C1766 0.929 . S
H1825 C1767 0.923 1_556 S
H1826 C1768 0.930 . S
H1827 C1769 0.930 . S
H1828 C1771 0.930 . S
H1829 C1773 0.929 . S
H1830 C1774 0.930 . S
H1831 C1775 0.930 . S
H1832 C1778 0.930 . S
H1833 C1781 0.929 . S
H1834 C1786 0.929 . S
H1835 C1787 0.930 . S
H1836 C1794 0.929 . S
H1837 C1795 0.930 . S
H1838 C1796 0.930 . S
H1839 C1797 0.930 . S
H1840 C1799 0.929 . S
H1841 C1800 0.930 . S
H1842 C1801 0.930 . S
H1843 C1802 0.930 . S
H1844 C1806 0.929 . S
H1845 C1808 0.930 . S
H1846 C1814 0.929 . S
H1847 C1815 0.930 . S
Li1848 N1865 1.990 . S
Li1848 O1908 1.956 . S
Li1848 O1909 1.970 . S
Li1848 O1910 1.961 . S
Li1849 N1873 1.990 . S
Li1849 O1908 1.970 . S
Li1849 O1909 1.956 . S
Li1849 O1911 1.961 . S
Li1850 N1895 1.990 . S
Li1850 O1908 1.961 . S
Li1850 O1910 1.956 . S
Li1850 O1911 1.970 . S
Li1851 N1901 1.990 . S
Li1851 O1909 1.961 . S
Li1851 O1910 1.970 . S
Li1851 O1911 1.956 . S
C1852 C1854 1.348 . S
C1852 C1855 1.356 . S
C1852 O1908 1.325 . S
N1853 C1856 1.314 . S
N1853 C1857 1.279 . S
C1854 C1852 1.348 . S
C1854 C1856 1.353 . S
C1854 H1912 0.929 . S
C1855 C1852 1.356 . S
C1855 C1857 1.358 . S
C1855 H1913 0.930 . S
C1856 N1853 1.314 . S
C1856 C1854 1.353 . S
C1856 H1914 0.930 . S
C1857 N1853 1.279 . S
C1857 C1855 1.358 . S
C1857 H1915 0.930 . S
C1858 C1861 1.348 . S
C1858 C1862 1.356 . S
C1858 O1909 1.325 . S
C1859 N1860 1.279 . S
C1859 C1862 1.358 . S
C1859 H1916 0.930 . S
N1860 C1859 1.279 . S
N1860 C1863 1.314 . S
C1861 C1858 1.348 . S
C1861 C1863 1.353 . S
C1861 H1917 0.929 . S
C1862 C1858 1.356 . S
C1862 C1859 1.358 . S
C1862 H1918 0.930 . S
C1863 N1860 1.314 . S
C1863 C1861 1.353 . S
C1863 H1919 0.930 . S
C1864 N1865 1.314 . S
C1864 C1869 1.353 . S
C1864 H1870 0.930 . S
N1865 Li1848 1.990 . S
N1865 C1864 1.314 . S
N1865 C1867 1.279 . S
C1866 C1867 1.358 . S
C1866 C1868 1.356 . S
C1866 H1920 0.930 . S
C1867 N1865 1.279 . S
C1867 C1866 1.358 . S
C1867 H1871 0.930 . S
C1868 C1866 1.356 . S
C1868 C1869 1.348 . S
C1869 C1864 1.353 . S
C1869 C1868 1.348 . S
C1869 H1921 0.929 . S
H1870 C1864 0.930 . S
H1871 C1867 0.930 . S
C1872 N1873 1.314 . S
C1872 C1874 1.353 . S
C1872 H1878 0.930 . S
N1873 Li1849 1.990 . S
N1873 C1872 1.314 . S
N1873 C1876 1.279 . S
C1874 C1872 1.353 . S
C1874 C1877 1.348 . S
C1874 H1922 0.929 . S
C1875 C1876 1.358 . S
C1875 C1877 1.356 . S
C1875 H1923 0.930 . S
C1876 N1873 1.279 . S
C1876 C1875 1.358 . S
C1876 H1879 0.930 . S
C1877 C1874 1.348 . S
C1877 C1875 1.356 . S
H1878 C1872 0.930 . S
H1879 C1876 0.930 . S
C1880 C1882 1.348 . S
C1880 C1883 1.356 . S
C1880 O1910 1.325 . S
N1881 C1884 1.314 . S
N1881 C1885 1.279 . S
C1882 C1880 1.348 . S
C1882 C1884 1.353 . S
C1882 H1924 0.929 . S
C1883 C1880 1.356 . S
C1883 C1885 1.358 . S
C1883 H1925 0.930 . S
C1884 N1881 1.314 . S
C1884 C1882 1.353 . S
C1884 H1926 0.930 . S
C1885 N1881 1.279 . S
C1885 C1883 1.358 . S
C1885 H1927 0.930 . S
C1886 C1887 1.348 . S
C1886 C1888 1.356 . S
C1886 O1911 1.325 . S
C1887 C1886 1.348 . S
C1887 C1889 1.353 . S
C1887 H1928 0.929 . S
C1888 C1886 1.356 . S
C1888 C1890 1.358 . S
C1888 H1929 0.930 . S
C1889 C1887 1.353 . S
C1889 N1891 1.314 . S
C1889 H1930 0.930 . S
C1890 C1888 1.358 . S
C1890 N1891 1.279 . S
C1890 H1931 0.930 . S
N1891 C1889 1.314 . S
N1891 C1890 1.279 . S
C1892 C1894 1.353 . S
C1892 N1895 1.314 . S
C1892 H1898 0.930 . S
C1893 N1895 1.279 . S
C1893 C1896 1.358 . S
C1893 H1899 0.930 . S
C1894 C1892 1.353 . S
C1894 C1897 1.348 . S
C1894 H1932 0.929 . S
N1895 Li1850 1.990 . S
N1895 C1892 1.314 . S
N1895 C1893 1.279 . S
C1896 C1893 1.358 . S
C1896 C1897 1.356 . S
C1896 H1933 0.930 . S
C1897 C1894 1.348 . S
C1897 C1896 1.356 . S
H1898 C1892 0.930 . S
H1899 C1893 0.930 . S
C1900 N1901 1.314 . S
C1900 C1902 1.353 . S
C1900 H1906 0.930 . S
N1901 Li1851 1.990 . S
N1901 C1900 1.314 . S
N1901 C1904 1.279 . S
C1902 C1900 1.353 . S
C1902 C1905 1.348 . S
C1902 H1934 0.929 . S
C1903 C1904 1.358 . S
C1903 C1905 1.356 . S
C1903 H1935 0.930 . S
C1904 N1901 1.279 . S
C1904 C1903 1.358 . S
C1904 H1907 0.930 . S
C1905 C1902 1.348 . S
C1905 C1903 1.356 . S
H1906 C1900 0.930 . S
H1907 C1904 0.930 . S
O1908 Li1848 1.956 . S
O1908 Li1849 1.970 . S
O1908 Li1850 1.961 . S
O1908 C1852 1.325 . S
O1909 Li1848 1.970 . S
O1909 Li1849 1.956 . S
O1909 Li1851 1.961 . S
O1909 C1858 1.325 . S
O1910 Li1848 1.961 . S
O1910 Li1850 1.956 . S
O1910 Li1851 1.970 . S
O1910 C1880 1.325 . S
O1911 Li1849 1.961 . S
O1911 Li1850 1.970 . S
O1911 Li1851 1.956 . S
O1911 C1886 1.325 . S
H1912 C1854 0.929 . S
H1913 C1855 0.930 . S
H1914 C1856 0.930 . S
H1915 C1857 0.930 . S
H1916 C1859 0.930 . S
H1917 C1861 0.929 . S
H1918 C1862 0.930 . S
H1919 C1863 0.930 . S
H1920 C1866 0.930 . S
H1921 C1869 0.929 . S
H1922 C1874 0.929 . S
H1923 C1875 0.930 . S
H1924 C1882 0.929 . S
H1925 C1883 0.930 . S
H1926 C1884 0.930 . S
H1927 C1885 0.930 . S
H1928 C1887 0.929 . S
H1929 C1888 0.930 . S
H1930 C1889 0.930 . S
H1931 C1890 0.930 . S
H1932 C1894 0.929 . S
H1933 C1896 0.930 . S
H1934 C1902 0.929 . S
H1935 C1903 0.930 . S
Li1936 N1953 1.990 . S
Li1936 O1996 1.956 . S
Li1936 O1997 1.970 . S
Li1936 O1998 1.961 . S
Li1937 N1961 1.990 . S
Li1937 O1996 1.970 . S
Li1937 O1997 1.956 . S
Li1937 O1999 1.961 . S
Li1938 N1983 1.990 . S
Li1938 O1996 1.961 . S
Li1938 O1998 1.956 . S
Li1938 O1999 1.970 . S
Li1939 N1989 1.990 . S
Li1939 O1997 1.961 . S
Li1939 O1998 1.970 . S
Li1939 O1999 1.956 . S
C1940 C1942 1.348 . S
C1940 C1943 1.356 . S
C1940 O1996 1.325 . S
N1941 C1944 1.314 . S
N1941 C1945 1.279 . S
C1942 C1940 1.348 . S
C1942 C1944 1.353 . S
C1942 H2000 0.929 . S
C1943 C1940 1.356 . S
C1943 C1945 1.358 . S
C1943 H2001 0.930 . S
C1944 N1941 1.314 . S
C1944 C1942 1.353 . S
C1944 H2002 0.930 . S
C1945 N1941 1.279 . S
C1945 C1943 1.358 . S
C1945 H2003 0.930 . S
C1946 C1949 1.348 . S
C1946 C1950 1.356 . S
C1946 O1997 1.325 . S
C1947 N1948 1.279 . S
C1947 C1950 1.358 . S
C1947 H2004 0.930 . S
N1948 C1947 1.279 . S
N1948 C1951 1.314 . S
C1949 C1946 1.348 . S
C1949 C1951 1.353 . S
C1949 H2005 0.929 . S
C1950 C1946 1.356 . S
C1950 C1947 1.358 . S
C1950 H2006 0.930 . S
C1951 N1948 1.314 . S
C1951 C1949 1.353 . S
C1951 H2007 0.930 . S
C1952 N1953 1.314 . S
C1952 C1957 1.353 . S
C1952 H1958 0.930 . S
N1953 Li1936 1.990 . S
N1953 C1952 1.314 . S
N1953 C1955 1.279 . S
C1954 C1955 1.358 . S
C1954 C1956 1.356 . S
C1954 H2008 0.930 . S
C1955 N1953 1.279 . S
C1955 C1954 1.358 . S
C1955 H1959 0.930 . S
C1956 C1954 1.356 . S
C1956 C1957 1.348 . S
C1957 C1952 1.353 . S
C1957 C1956 1.348 . S
C1957 H2009 0.929 . S
H1958 C1952 0.930 . S
H1959 C1955 0.930 . S
C1960 N1961 1.314 . S
C1960 C1962 1.353 . S
C1960 H1966 0.930 . S
N1961 Li1937 1.990 . S
N1961 C1960 1.314 . S
N1961 C1964 1.279 . S
C1962 C1960 1.353 . S
C1962 C1965 1.348 . S
C1962 H2010 0.929 . S
C1963 C1964 1.358 . S
C1963 C1965 1.356 . S
C1963 H2011 0.930 . S
C1964 N1961 1.279 . S
C1964 C1963 1.358 . S
C1964 H1967 0.930 . S
C1965 C1962 1.348 . S
C1965 C1963 1.356 . S
H1966 C1960 0.930 . S
H1967 C1964 0.930 . S
C1968 C1970 1.348 . S
C1968 C1971 1.356 . S
C1968 O1998 1.325 . S
N1969 C1972 1.314 . S
N1969 C1973 1.279 . S
C1970 C1968 1.348 . S
C1970 C1972 1.353 . S
C1970 H2012 0.929 . S
C1971 C1968 1.356 . S
C1971 C1973 1.358 . S
C1971 H2013 0.930 . S
C1972 N1969 1.314 . S
C1972 C1970 1.353 . S
C1972 H2014 0.930 . S
C1973 N1969 1.279 . S
C1973 C1971 1.358 . S
C1973 H2015 0.930 . S
C1974 C1975 1.348 . S
C1974 C1976 1.356 . S
C1974 O1999 1.325 . S
C1975 C1974 1.348 . S
C1975 C1977 1.353 . S
C1975 H2016 0.929 . S
C1976 C1974 1.356 . S
C1976 C1978 1.358 . S
C1976 H2017 0.930 . S
C1977 C1975 1.353 . S
C1977 N1979 1.314 . S
C1977 H2018 0.930 . S
C1978 C1976 1.358 . S
C1978 N1979 1.279 . S
C1978 H2019 0.930 . S
N1979 C1977 1.314 . S
N1979 C1978 1.279 . S
C1980 C1982 1.353 . S
C1980 N1983 1.314 . S
C1980 H1986 0.930 . S
C1981 N1983 1.279 . S
C1981 C1984 1.358 . S
C1981 H1987 0.930 . S
C1982 C1980 1.353 . S
C1982 C1985 1.348 . S
C1982 H2020 0.929 . S
N1983 Li1938 1.990 . S
N1983 C1980 1.314 . S
N1983 C1981 1.279 . S
C1984 C1981 1.358 . S
C1984 C1985 1.356 . S
C1984 H2021 0.930 . S
C1985 C1982 1.348 . S
C1985 C1984 1.356 . S
H1986 C1980 0.930 . S
H1987 C1981 0.930 . S
C1988 N1989 1.314 . S
C1988 C1990 1.353 . S
C1988 H1994 0.930 . S
N1989 Li1939 1.990 . S
N1989 C1988 1.314 . S
N1989 C1992 1.279 . S
C1990 C1988 1.353 . S
C1990 C1993 1.348 . S
C1990 H2022 0.929 . S
C1991 C1992 1.358 . S
C1991 C1993 1.356 . S
C1991 H2023 0.930 . S
C1992 N1989 1.279 . S
C1992 C1991 1.358 . S
C1992 H1995 0.930 . S
C1993 C1990 1.348 . S
C1993 C1991 1.356 . S
H1994 C1988 0.930 . S
H1995 C1992 0.930 . S
O1996 Li1936 1.956 . S
O1996 Li1937 1.970 . S
O1996 Li1938 1.961 . S
O1996 C1940 1.325 . S
O1997 Li1936 1.970 . S
O1997 Li1937 1.956 . S
O1997 Li1939 1.961 . S
O1997 C1946 1.325 . S
O1998 Li1936 1.961 . S
O1998 Li1938 1.956 . S
O1998 Li1939 1.970 . S
O1998 C1968 1.325 . S
O1999 Li1937 1.961 . S
O1999 Li1938 1.970 . S
O1999 Li1939 1.956 . S
O1999 C1974 1.325 . S
H2000 C1942 0.929 . S
H2001 C1943 0.930 . S
H2002 C1944 0.930 . S
H2003 C1945 0.930 . S
H2004 C1947 0.930 . S
H2005 C1949 0.929 . S
H2006 C1950 0.930 . S
H2007 C1951 0.930 . S
H2008 C1954 0.930 . S
H2009 C1957 0.929 . S
H2010 C1962 0.929 . S
H2011 C1963 0.930 . S
H2012 C1970 0.929 . S
H2013 C1971 0.930 . S
H2014 C1972 0.930 . S
H2015 C1973 0.930 . S
H2016 C1975 0.929 . S
H2017 C1976 0.930 . S
H2018 C1977 0.930 . S
H2019 C1978 0.930 . S
H2020 C1982 0.929 . S
H2021 C1984 0.930 . S
H2022 C1990 0.929 . S
H2023 C1991 0.930 . S
Li2024 N2041 1.990 . S
Li2024 O2084 1.956 . S
Li2024 O2085 1.970 . S
Li2024 O2086 1.961 . S
Li2025 N2049 1.990 . S
Li2025 O2084 1.970 . S
Li2025 O2085 1.956 . S
Li2025 O2087 1.961 . S
Li2026 N2071 1.990 . S
Li2026 O2084 1.961 . S
Li2026 O2086 1.956 . S
Li2026 O2087 1.970 . S
Li2027 N2077 1.990 . S
Li2027 O2085 1.961 . S
Li2027 O2086 1.970 . S
Li2027 O2087 1.956 . S
C2028 C2030 1.348 . S
C2028 C2031 1.356 . S
C2028 O2084 1.325 . S
N2029 C2032 1.314 . S
N2029 C2033 1.279 . S
C2030 C2028 1.348 . S
C2030 C2032 1.353 . S
C2030 H2088 0.929 . S
C2031 C2028 1.356 . S
C2031 C2033 1.358 . S
C2031 H2089 0.930 . S
C2032 N2029 1.314 . S
C2032 C2030 1.353 . S
C2032 H2090 0.930 . S
C2033 N2029 1.279 . S
C2033 C2031 1.358 . S
C2033 H2091 0.930 . S
C2034 C2037 1.348 . S
C2034 C2038 1.356 . S
C2034 O2085 1.325 . S
C2035 N2036 1.279 . S
C2035 C2038 1.358 . S
C2035 H2092 0.930 . S
N2036 C2035 1.279 . S
N2036 C2039 1.314 . S
C2037 C2034 1.348 . S
C2037 C2039 1.353 . S
C2037 H2093 0.929 . S
C2038 C2034 1.356 . S
C2038 C2035 1.358 . S
C2038 H2094 0.930 . S
C2039 N2036 1.314 . S
C2039 C2037 1.353 . S
C2039 H2095 0.930 . S
C2040 N2041 1.314 . S
C2040 C2045 1.353 . S
C2040 H2046 0.930 . S
N2041 Li2024 1.990 . S
N2041 C2040 1.314 . S
N2041 C2043 1.279 . S
C2042 C2043 1.358 . S
C2042 C2044 1.356 . S
C2042 H2096 0.930 . S
C2043 N2041 1.279 . S
C2043 C2042 1.358 . S
C2043 H2047 0.930 . S
C2044 C2042 1.356 . S
C2044 C2045 1.348 . S
C2045 C2040 1.353 . S
C2045 C2044 1.348 . S
C2045 H2097 0.929 . S
H2046 C2040 0.930 . S
H2047 C2043 0.930 . S
C2048 N2049 1.314 . S
C2048 C2050 1.353 . S
C2048 H2054 0.930 . S
N2049 Li2025 1.990 . S
N2049 C2048 1.314 . S
N2049 C2052 1.279 . S
C2050 C2048 1.353 . S
C2050 C2053 1.348 . S
C2050 H2098 0.929 . S
C2051 C2052 1.358 . S
C2051 C2053 1.356 . S
C2051 H2099 0.930 . S
C2052 N2049 1.279 . S
C2052 C2051 1.358 . S
C2052 H2055 0.930 . S
C2053 C2050 1.348 . S
C2053 C2051 1.356 . S
H2054 C2048 0.930 . S
H2055 C2052 0.930 . S
C2056 C2058 1.348 . S
C2056 C2059 1.356 . S
C2056 O2086 1.325 . S
N2057 C2060 1.314 . S
N2057 C2061 1.279 . S
C2058 C2056 1.348 . S
C2058 C2060 1.353 . S
C2058 H2100 0.929 . S
C2059 C2056 1.356 . S
C2059 C2061 1.358 . S
C2059 H2101 0.930 . S
C2060 N2057 1.314 . S
C2060 C2058 1.353 . S
C2060 H2102 0.930 . S
C2061 N2057 1.279 . S
C2061 C2059 1.358 . S
C2061 H2103 0.930 . S
C2062 C2063 1.348 . S
C2062 C2064 1.356 . S
C2062 O2087 1.325 . S
C2063 C2062 1.348 . S
C2063 C2065 1.353 . S
C2063 H2104 0.929 . S
C2064 C2062 1.356 . S
C2064 C2066 1.358 . S
C2064 H2105 0.930 . S
C2065 C2063 1.353 . S
C2065 N2067 1.314 . S
C2065 H2106 0.930 . S
C2066 C2064 1.358 . S
C2066 N2067 1.279 . S
C2066 H2107 0.930 . S
N2067 C2065 1.314 . S
N2067 C2066 1.279 . S
C2068 C2070 1.353 . S
C2068 N2071 1.314 . S
C2068 H2074 0.930 . S
C2069 N2071 1.279 . S
C2069 C2072 1.358 . S
C2069 H2075 0.930 . S
C2070 C2068 1.353 . S
C2070 C2073 1.348 . S
C2070 H2108 0.929 . S
N2071 Li2026 1.990 . S
N2071 C2068 1.314 . S
N2071 C2069 1.279 . S
C2072 C2069 1.358 . S
C2072 C2073 1.356 . S
C2072 H2109 0.930 . S
C2073 C2070 1.348 . S
C2073 C2072 1.356 . S
H2074 C2068 0.930 . S
H2075 C2069 0.930 . S
C2076 N2077 1.314 . S
C2076 C2078 1.353 . S
C2076 H2082 0.930 . S
N2077 Li2027 1.990 . S
N2077 C2076 1.314 . S
N2077 C2080 1.279 . S
C2078 C2076 1.353 . S
C2078 C2081 1.348 . S
C2078 H2110 0.929 . S
C2079 C2080 1.358 . S
C2079 C2081 1.356 . S
C2079 H2111 0.930 . S
C2080 N2077 1.279 . S
C2080 C2079 1.358 . S
C2080 H2083 0.930 . S
C2081 C2078 1.348 . S
C2081 C2079 1.356 . S
H2082 C2076 0.930 . S
H2083 C2080 0.930 . S
O2084 Li2024 1.956 . S
O2084 Li2025 1.970 . S
O2084 Li2026 1.961 . S
O2084 C2028 1.325 . S
O2085 Li2024 1.970 . S
O2085 Li2025 1.956 . S
O2085 Li2027 1.961 . S
O2085 C2034 1.325 . S
O2086 Li2024 1.961 . S
O2086 Li2026 1.956 . S
O2086 Li2027 1.970 . S
O2086 C2056 1.325 . S
O2087 Li2025 1.961 . S
O2087 Li2026 1.970 . S
O2087 Li2027 1.956 . S
O2087 C2062 1.325 . S
H2088 C2030 0.929 . S
H2089 C2031 0.930 . S
H2090 C2032 0.930 . S
H2091 C2033 0.930 . S
H2092 C2035 0.930 . S
H2093 C2037 0.929 . S
H2094 C2038 0.930 . S
H2095 C2039 0.930 . S
H2096 C2042 0.930 . S
H2097 C2045 0.929 . S
H2098 C2050 0.929 . S
H2099 C2051 0.930 . S
H2100 C2058 0.929 . S
H2101 C2059 0.930 . S
H2102 C2060 0.930 . S
H2103 C2061 0.930 . S
H2104 C2063 0.929 . S
H2105 C2064 0.930 . S
H2106 C2065 0.930 . S
H2107 C2066 0.930 . S
H2108 C2070 0.929 . S
H2109 C2072 0.930 . S
H2110 C2078 0.929 . S
H2111 C2079 0.930 . S
Zn2112 O2118 1.969 . S
Zn2112 O2119 1.965 1_565 S
Zn2112 O2123 2.024 . S
Zn2112 O2128 1.969 1_565 S
Zn2113 O2120 1.969 1_654 S
Zn2113 O2126 1.969 1_554 S
Zn2113 O2127 1.965 . S
Zn2113 O2129 2.024 1_655 S
C2114 O2115 1.229 . S
C2114 O2123 1.058 . S
O2115 C2114 1.229 . S
C2116 O2117 1.229 1_454 S
C2116 O2129 1.058 . S
O2117 C2116 1.229 1_656 S
O2118 Zn2112 1.969 . S
O2118 C2121 1.267 . S
O2119 Zn2112 1.965 1_545 S
O2119 C2130 1.260 1_554 S
O2120 Zn2113 1.969 1_456 S
O2120 C2130 1.258 . S
C2121 O2118 1.267 . S
C2121 O2122 1.228 . S
O2122 C2121 1.228 . S
O2123 Zn2112 2.024 . S
O2123 C2114 1.058 . S
C2124 O2125 1.228 . S
C2124 O2126 1.267 1_554 S
O2125 C2124 1.228 . S
O2126 Zn2113 1.969 1_556 S
O2126 C2124 1.267 1_556 S
O2127 Zn2113 1.965 . S
O2127 C2131 1.260 1_655 S
O2128 Zn2112 1.969 1_545 S
O2128 C2131 1.258 . S
O2129 Zn2113 2.024 1_455 S
O2129 C2116 1.058 . S
C2130 O2119 1.260 1_556 S
C2130 O2120 1.258 . S
C2131 O2127 1.260 1_455 S
C2131 O2128 1.258 . S
Zn2132 O2138 1.969 . S
Zn2132 O2139 1.965 . S
Zn2132 O2143 2.024 . S
Zn2132 O2148 1.969 . S
Zn2133 O2140 1.969 . S
Zn2133 O2146 1.969 . S
Zn2133 O2147 1.965 . S
Zn2133 O2149 2.024 . S
C2134 O2135 1.229 . S
C2134 O2143 1.058 . S
O2135 C2134 1.229 . S
C2136 O2137 1.229 . S
C2136 O2149 1.058 . S
O2137 C2136 1.229 . S
O2138 Zn2132 1.969 . S
O2138 C2141 1.267 . S
O2139 Zn2132 1.965 . S
O2139 C2150 1.260 . S
O2140 Zn2133 1.969 . S
O2140 C2150 1.258 . S
C2141 O2138 1.267 . S
C2141 O2142 1.228 . S
O2142 C2141 1.228 . S
O2143 Zn2132 2.024 . S
O2143 C2134 1.058 . S
C2144 O2145 1.228 . S
C2144 O2146 1.267 . S
O2145 C2144 1.228 . S
O2146 Zn2133 1.969 . S
O2146 C2144 1.267 . S
O2147 Zn2133 1.965 . S
O2147 C2151 1.260 . S
O2148 Zn2132 1.969 . S
O2148 C2151 1.258 . S
O2149 Zn2133 2.024 . S
O2149 C2136 1.058 . S
C2150 O2139 1.260 . S
C2150 O2140 1.258 . S
C2151 O2147 1.260 . S
C2151 O2148 1.258 . S
Zn2152 O2158 1.969 . S
Zn2152 O2159 1.965 . S
Zn2152 O2163 2.024 . S
Zn2152 O2168 1.969 . S
Zn2153 O2160 1.997 . S
Zn2153 O2166 1.969 . S
Zn2153 O2167 1.965 1_565 S
Zn2153 O2169 2.024 . S
C2154 O2155 1.229 . S
C2154 O2163 1.058 . S
O2155 C2154 1.229 . S
C2156 O2157 1.229 . S
C2156 O2169 1.058 . S
O2157 C2156 1.229 . S
O2158 Zn2152 1.969 . S
O2158 C2161 1.267 . S
O2159 Zn2152 1.965 . S
O2159 C2170 1.260 . S
O2160 Zn2153 1.997 . S
O2160 C2170 1.221 1_565 S
C2161 O2158 1.267 . S
C2161 O2162 1.228 . S
O2162 C2161 1.228 . S
O2163 Zn2152 2.024 . S
O2163 C2154 1.058 . S
C2164 O2165 1.228 . S
C2164 O2166 1.267 . S
O2165 C2164 1.228 . S
O2166 Zn2153 1.969 . S
O2166 C2164 1.267 . S
O2167 Zn2153 1.965 1_545 S
O2167 C2171 1.260 . S
O2168 Zn2152 1.969 . S
O2168 C2171 1.258 . S
O2169 Zn2153 2.024 . S
O2169 C2156 1.058 . S
C2170 O2159 1.260 . S
C2170 O2160 1.221 1_545 S
C2171 O2167 1.260 . S
C2171 O2168 1.258 . S
Zn2172 O2178 1.969 . S
Zn2172 O2179 1.965 . S
Zn2172 O2183 2.024 . S
Zn2172 O2188 1.969 . S
Zn2173 O2180 1.969 . S
Zn2173 O2186 1.969 . S
Zn2173 O2187 1.965 . S
Zn2173 O2189 2.024 . S
C2174 O2175 1.229 . S
C2174 O2183 1.058 . S
O2175 C2174 1.229 . S
C2176 O2177 1.229 . S
C2176 O2189 1.058 . S
O2177 C2176 1.229 . S
O2178 Zn2172 1.969 . S
O2178 C2181 1.267 . S
O2179 Zn2172 1.965 . S
O2179 C2190 1.260 . S
O2180 Zn2173 1.969 . S
O2180 C2190 1.258 . S
C2181 O2178 1.267 . S
C2181 O2182 1.228 . S
O2182 C2181 1.228 . S
O2183 Zn2172 2.024 . S
O2183 C2174 1.058 . S
C2184 O2185 1.228 . S
C2184 O2186 1.267 . S
O2185 C2184 1.228 . S
O2186 Zn2173 1.969 . S
O2186 C2184 1.267 . S
O2187 Zn2173 1.965 . S
O2187 C2191 1.260 . S
O2188 Zn2172 1.969 . S
O2188 C2191 1.258 . S
O2189 Zn2173 2.024 . S
O2189 C2176 1.058 . S
C2190 O2179 1.260 . S
C2190 O2180 1.258 . S
C2191 O2187 1.260 . S
C2191 O2188 1.258 . S
Zn2192 O2198 1.969 . S
Zn2192 O2199 1.965 1_455 S
Zn2192 O2203 2.024 1_565 S
Zn2192 O2208 1.969 1_565 S
Zn2193 O2200 1.969 1_455 S
Zn2193 O2206 1.969 1_455 S
Zn2193 O2207 1.965 . S
Zn2193 O2209 2.024 . S
C2194 O2195 1.229 1_545 S
C2194 O2203 1.058 . S
O2195 C2194 1.229 1_565 S
C2196 O2197 1.229 . S
C2196 O2209 1.058 1_655 S
O2197 C2196 1.229 . S
O2198 Zn2192 1.969 . S
O2198 C2201 1.267 . S
O2199 Zn2192 1.965 1_655 S
O2199 C2210 1.260 . S
O2200 Zn2193 1.969 1_655 S
O2200 C2210 1.258 1_545 S
C2201 O2198 1.267 . S
C2201 O2202 1.228 . S
O2202 C2201 1.228 . S
O2203 Zn2192 2.024 1_545 S
O2203 C2194 1.058 . S
C2204 O2205 1.228 . S
C2204 O2206 1.267 1_455 S
O2205 C2204 1.228 . S
O2206 Zn2193 1.969 1_655 S
O2206 C2204 1.267 1_655 S
O2207 Zn2193 1.965 . S
O2207 C2211 1.260 . S
O2208 Zn2192 1.969 1_545 S
O2208 C2211 1.258 . S
O2209 Zn2193 2.024 . S
O2209 C2196 1.058 1_455 S
C2210 O2199 1.260 . S
C2210 O2200 1.258 1_565 S
C2211 O2207 1.260 . S
C2211 O2208 1.258 . S
Zn2212 O2218 1.969 . S
Zn2212 O2219 1.965 . S
Zn2212 O2223 2.024 . S
Zn2212 O2228 1.969 . S
Zn2213 O2220 1.969 . S
Zn2213 O2226 1.969 . S
Zn2213 O2227 1.965 . S
Zn2213 O2229 2.024 . S
C2214 O2215 1.229 . S
C2214 O2223 1.058 . S
O2215 C2214 1.229 . S
C2216 O2217 1.229 . S
C2216 O2229 1.058 . S
O2217 C2216 1.229 . S
O2218 Zn2212 1.969 . S
O2218 C2221 1.267 . S
O2219 Zn2212 1.965 . S
O2219 C2230 1.260 . S
O2220 Zn2213 1.969 . S
O2220 C2230 1.258 . S
C2221 O2218 1.267 . S
C2221 O2222 1.228 . S
O2222 C2221 1.228 . S
O2223 Zn2212 2.024 . S
O2223 C2214 1.058 . S
C2224 O2225 1.228 . S
C2224 O2226 1.267 . S
O2225 C2224 1.228 . S
O2226 Zn2213 1.969 . S
O2226 C2224 1.267 . S
O2227 Zn2213 1.965 . S
O2227 C2231 1.260 . S
O2228 Zn2212 1.969 . S
O2228 C2231 1.258 . S
O2229 Zn2213 2.024 . S
O2229 C2216 1.058 . S
C2230 O2219 1.260 . S
C2230 O2220 1.258 . S
C2231 O2227 1.260 . S
C2231 O2228 1.258 . S
Zn2232 O2238 1.975 . S
Zn2232 O2239 1.964 1_545 S
Zn2232 O2243 2.021 1_556 S
Zn2232 O2248 1.966 1_556 S
Zn2233 O2240 1.969 . S
Zn2233 O2246 1.969 . S
Zn2233 O2247 1.965 1_565 S
Zn2233 O2249 2.024 1_565 S
C2234 O2235 1.229 . S
C2234 O2243 1.058 . S
O2235 C2234 1.229 . S
C2236 O2237 1.229 . S
C2236 O2249 1.058 1_565 S
O2237 C2236 1.229 . S
O2238 Zn2232 1.975 . S
O2238 C2241 1.267 . S
O2239 Zn2232 1.964 1_565 S
O2239 C2250 1.260 1_556 S
O2240 Zn2233 1.969 . S
O2240 C2250 1.258 . S
C2241 O2238 1.267 . S
C2241 O2242 1.228 . S
O2242 C2241 1.228 . S
O2243 Zn2232 2.021 1_554 S
O2243 C2234 1.058 . S
C2244 O2245 1.261 . S
C2244 O2246 1.246 1_545 S
O2245 C2244 1.261 . S
O2246 Zn2233 1.969 . S
O2246 C2244 1.246 1_565 S
O2247 Zn2233 1.965 1_545 S
O2247 C2251 1.260 . S
O2248 Zn2232 1.966 1_554 S
O2248 C2251 1.258 . S
O2249 Zn2233 2.024 1_545 S
O2249 C2236 1.058 1_545 S
C2250 O2239 1.260 1_554 S
C2250 O2240 1.258 . S
C2251 O2247 1.260 . S
C2251 O2248 1.258 . S
Zn2252 O2258 1.969 . S
Zn2252 O2259 1.965 . S
Zn2252 O2263 2.024 . S
Zn2252 O2268 1.969 . S
Zn2253 O2260 1.969 . S
Zn2253 O2266 1.969 . S
Zn2253 O2267 1.965 . S
Zn2253 O2269 2.024 . S
C2254 O2255 1.229 . S
C2254 O2263 1.058 . S
O2255 C2254 1.229 . S
C2256 O2257 1.229 . S
C2256 O2269 1.058 . S
O2257 C2256 1.229 . S
O2258 Zn2252 1.969 . S
O2258 C2261 1.267 . S
O2259 Zn2252 1.965 . S
O2259 C2270 1.260 . S
O2260 Zn2253 1.969 . S
O2260 C2270 1.258 . S
C2261 O2258 1.267 . S
C2261 O2262 1.228 . S
O2262 C2261 1.228 . S
O2263 Zn2252 2.024 . S
O2263 C2254 1.058 . S
C2264 O2265 1.228 . S
C2264 O2266 1.267 . S
O2265 C2264 1.228 . S
O2266 Zn2253 1.969 . S
O2266 C2264 1.267 . S
O2267 Zn2253 1.965 . S
O2267 C2271 1.260 . S
O2268 Zn2252 1.969 . S
O2268 C2271 1.258 . S
O2269 Zn2253 2.024 . S
O2269 C2256 1.058 . S
C2270 O2259 1.260 . S
C2270 O2260 1.258 . S
C2271 O2267 1.260 . S
C2271 O2268 1.258 . S
Zn2272 O2278 1.969 . S
Zn2272 O2279 1.965 . S
Zn2272 O2283 2.024 . S
Zn2272 O2288 1.969 . S
Zn2273 O2280 1.969 1_556 S
Zn2273 O2286 1.969 1_556 S
Zn2273 O2287 1.965 1_556 S
Zn2273 O2289 2.024 . S
C2274 O2275 1.229 . S
C2274 O2283 1.058 . S
O2275 C2274 1.229 . S
C2276 O2277 1.229 . S
C2276 O2289 1.058 . S
O2277 C2276 1.229 . S
O2278 Zn2272 1.969 . S
O2278 C2281 1.267 . S
O2279 Zn2272 1.965 . S
O2279 C2290 1.260 . S
O2280 Zn2273 1.969 1_554 S
O2280 C2290 1.258 . S
C2281 O2278 1.267 . S
C2281 O2282 1.228 . S
O2282 C2281 1.228 . S
O2283 Zn2272 2.024 . S
O2283 C2274 1.058 . S
C2284 O2285 1.228 . S
C2284 O2286 1.267 1_556 S
O2285 C2284 1.228 . S
O2286 Zn2273 1.969 1_554 S
O2286 C2284 1.267 1_554 S
O2287 Zn2273 1.965 1_554 S
O2287 C2291 1.260 . S
O2288 Zn2272 1.969 . S
O2288 C2291 1.258 . S
O2289 Zn2273 2.024 . S
O2289 C2276 1.058 . S
C2290 O2279 1.260 . S
C2290 O2280 1.258 . S
C2291 O2287 1.260 . S
C2291 O2288 1.258 . S
Zn2292 O2298 1.969 . S
Zn2292 O2299 1.965 . S
Zn2292 O2303 2.024 . S
Zn2292 O2308 1.969 . S
Zn2293 O2300 1.969 . S
Zn2293 O2306 1.969 . S
Zn2293 O2307 1.965 . S
Zn2293 O2309 2.024 . S
C2294 O2295 1.229 . S
C2294 O2303 1.058 . S
O2295 C2294 1.229 . S
C2296 O2297 1.229 . S
C2296 O2309 1.058 . S
O2297 C2296 1.229 . S
O2298 Zn2292 1.969 . S
O2298 C2301 1.267 . S
O2299 Zn2292 1.965 . S
O2299 C2310 1.260 . S
O2300 Zn2293 1.969 . S
O2300 C2310 1.258 . S
C2301 O2298 1.267 . S
C2301 O2302 1.228 . S
O2302 C2301 1.228 . S
O2303 Zn2292 2.024 . S
O2303 C2294 1.058 . S
C2304 O2305 1.228 . S
C2304 O2306 1.267 . S
O2305 C2304 1.228 . S
O2306 Zn2293 1.969 . S
O2306 C2304 1.267 . S
O2307 Zn2293 1.965 . S
O2307 C2311 1.260 . S
O2308 Zn2292 1.969 . S
O2308 C2311 1.258 . S
O2309 Zn2293 2.024 . S
O2309 C2296 1.058 . S
C2310 O2299 1.260 . S
C2310 O2300 1.258 . S
C2311 O2307 1.260 . S
C2311 O2308 1.258 . S
Zn2312 O2318 1.969 . S
Zn2312 O2319 1.965 . S
Zn2312 O2323 2.024 . S
Zn2312 O2328 1.969 . S
Zn2313 O2320 1.957 1_655 S
Zn2313 O2326 1.969 . S
Zn2313 O2327 1.965 1_655 S
Zn2313 O2329 2.024 . S
C2314 O2315 1.229 . S
C2314 O2323 1.058 . S
O2315 C2314 1.229 . S
C2316 O2317 1.229 . S
C2316 O2329 1.058 . S
O2317 C2316 1.229 . S
O2318 Zn2312 1.969 . S
O2318 C2321 1.267 . S
O2319 Zn2312 1.965 . S
O2319 C2330 1.260 . S
O2320 Zn2313 1.957 1_455 S
O2320 C2330 1.272 . S
C2321 O2318 1.267 . S
C2321 O2322 1.228 . S
O2322 C2321 1.228 . S
O2323 Zn2312 2.024 . S
O2323 C2314 1.058 . S
C2324 O2325 1.228 . S
C2324 O2326 1.267 . S
O2325 C2324 1.228 . S
O2326 Zn2313 1.969 . S
O2326 C2324 1.267 . S
O2327 Zn2313 1.965 1_455 S
O2327 C2331 1.260 . S
O2328 Zn2312 1.969 . S
O2328 C2331 1.258 . S
O2329 Zn2313 2.024 . S
O2329 C2316 1.058 . S
C2330 O2319 1.260 . S
C2330 O2320 1.272 . S
C2331 O2327 1.260 . S
C2331 O2328 1.258 . S
Zn2332 O2338 1.969 . S
Zn2332 O2339 1.965 . S
Zn2332 O2343 2.024 . S
Zn2332 O2348 1.969 . S
Zn2333 O2340 1.969 . S
Zn2333 O2346 1.969 . S
Zn2333 O2347 1.965 . S
Zn2333 O2349 2.024 . S
C2334 O2335 1.229 . S
C2334 O2343 1.058 . S
O2335 C2334 1.229 . S
C2336 O2337 1.229 . S
C2336 O2349 1.058 . S
O2337 C2336 1.229 . S
O2338 Zn2332 1.969 . S
O2338 C2341 1.267 . S
O2339 Zn2332 1.965 . S
O2339 C2350 1.260 . S
O2340 Zn2333 1.969 . S
O2340 C2350 1.258 . S
C2341 O2338 1.267 . S
C2341 O2342 1.228 . S
O2342 C2341 1.228 . S
O2343 Zn2332 2.024 . S
O2343 C2334 1.058 . S
C2344 O2345 1.228 . S
C2344 O2346 1.267 . S
O2345 C2344 1.228 . S
O2346 Zn2333 1.969 . S
O2346 C2344 1.267 . S
O2347 Zn2333 1.965 . S
O2347 C2351 1.260 . S
O2348 Zn2332 1.969 . S
O2348 C2351 1.258 . S
O2349 Zn2333 2.024 . S
O2349 C2336 1.058 . S
C2350 O2339 1.260 . S
C2350 O2340 1.258 . S
C2351 O2347 1.260 . S
C2351 O2348 1.258 . S
Zn2352 O2358 1.969 . S
Zn2352 O2359 1.965 . S
Zn2352 O2363 2.024 . S
Zn2352 O2368 1.969 . S
Zn2353 O2360 1.969 . S
Zn2353 O2366 1.969 . S
Zn2353 O2367 1.965 . S
Zn2353 O2369 2.024 . S
C2354 O2355 1.229 . S
C2354 O2363 1.058 . S
O2355 C2354 1.229 . S
C2356 O2357 1.229 . S
C2356 O2369 1.058 . S
O2357 C2356 1.229 . S
O2358 Zn2352 1.969 . S
O2358 C2361 1.267 . S
O2359 Zn2352 1.965 . S
O2359 C2370 1.260 . S
O2360 Zn2353 1.969 . S
O2360 C2370 1.258 . S
C2361 O2358 1.267 . S
C2361 O2362 1.228 . S
O2362 C2361 1.228 . S
O2363 Zn2352 2.024 . S
O2363 C2354 1.058 . S
C2364 O2365 1.228 . S
C2364 O2366 1.267 . S
O2365 C2364 1.228 . S
O2366 Zn2353 1.969 . S
O2366 C2364 1.267 . S
O2367 Zn2353 1.965 . S
O2367 C2371 1.260 . S
O2368 Zn2352 1.969 . S
O2368 C2371 1.258 . S
O2369 Zn2353 2.024 . S
O2369 C2356 1.058 . S
C2370 O2359 1.260 . S
C2370 O2360 1.258 . S
C2371 O2367 1.260 . S
C2371 O2368 1.258 . S
Zn2372 O2378 1.969 . S
Zn2372 O2379 1.965 . S
Zn2372 O2383 2.024 . S
Zn2372 O2388 1.969 . S
Zn2373 O2380 1.969 . S
Zn2373 O2386 1.969 . S
Zn2373 O2387 1.965 . S
Zn2373 O2389 2.024 . S
C2374 O2375 1.229 . S
C2374 O2383 1.058 . S
O2375 C2374 1.229 . S
C2376 O2377 1.229 . S
C2376 O2389 1.058 . S
O2377 C2376 1.229 . S
O2378 Zn2372 1.969 . S
O2378 C2381 1.267 . S
O2379 Zn2372 1.965 . S
O2379 C2390 1.260 . S
O2380 Zn2373 1.969 . S
O2380 C2390 1.258 . S
C2381 O2378 1.267 . S
C2381 O2382 1.228 . S
O2382 C2381 1.228 . S
O2383 Zn2372 2.024 . S
O2383 C2374 1.058 . S
C2384 O2385 1.228 . S
C2384 O2386 1.267 . S
O2385 C2384 1.228 . S
O2386 Zn2373 1.969 . S
O2386 C2384 1.267 . S
O2387 Zn2373 1.965 . S
O2387 C2391 1.260 . S
O2388 Zn2372 1.969 . S
O2388 C2391 1.258 . S
O2389 Zn2373 2.024 . S
O2389 C2376 1.058 . S
C2390 O2379 1.260 . S
C2390 O2380 1.258 . S
C2391 O2387 1.260 . S
C2391 O2388 1.258 . S
Zn2392 O2398 1.969 . S
Zn2392 O2399 1.965 . S
Zn2392 O2403 2.024 . S
Zn2392 O2408 1.969 . S
Zn2393 O2400 1.969 . S
Zn2393 O2406 1.969 . S
Zn2393 O2407 1.965 . S
Zn2393 O2409 2.024 . S
C2394 O2395 1.229 . S
C2394 O2403 1.058 . S
O2395 C2394 1.229 . S
C2396 O2397 1.229 . S
C2396 O2409 1.058 . S
O2397 C2396 1.229 . S
O2398 Zn2392 1.969 . S
O2398 C2401 1.267 . S
O2399 Zn2392 1.965 . S
O2399 C2410 1.260 . S
O2400 Zn2393 1.969 . S
O2400 C2410 1.258 . S
C2401 O2398 1.267 . S
C2401 O2402 1.228 . S
O2402 C2401 1.228 . S
O2403 Zn2392 2.024 . S
O2403 C2394 1.058 . S
C2404 O2405 1.228 . S
C2404 O2406 1.267 . S
O2405 C2404 1.228 . S
O2406 Zn2393 1.969 . S
O2406 C2404 1.267 . S
O2407 Zn2393 1.965 . S
O2407 C2411 1.260 . S
O2408 Zn2392 1.969 . S
O2408 C2411 1.258 . S
O2409 Zn2393 2.024 . S
O2409 C2396 1.058 . S
C2410 O2399 1.260 . S
C2410 O2400 1.258 . S
C2411 O2407 1.260 . S
C2411 O2408 1.258 . S
Zn2412 O2418 1.969 . S
Zn2412 O2419 1.965 . S
Zn2412 O2423 2.024 1_655 S
Zn2412 O2428 1.969 1_655 S
Zn2413 O2420 1.969 1_554 S
Zn2413 O2426 1.969 . S
Zn2413 O2427 1.965 . S
Zn2413 O2429 2.024 . S
C2414 O2415 1.216 1_455 S
C2414 O2423 1.058 . S
O2415 C2414 1.216 1_655 S
C2416 O2417 1.245 . S
C2416 O2429 1.043 1_556 S
O2417 C2416 1.245 . S
O2418 Zn2412 1.969 . S
O2418 C2421 1.267 . S
O2419 Zn2412 1.965 . S
O2419 C2430 1.260 1_654 S
O2420 Zn2413 1.969 1_556 S
O2420 C2430 1.258 . S
C2421 O2418 1.267 . S
C2421 O2422 1.228 . S
O2422 C2421 1.228 . S
O2423 Zn2412 2.024 1_455 S
O2423 C2414 1.058 . S
C2424 O2425 1.228 . S
C2424 O2426 1.267 . S
O2425 C2424 1.228 . S
O2426 Zn2413 1.969 . S
O2426 C2424 1.267 . S
O2427 Zn2413 1.965 . S
O2427 C2431 1.260 . S
O2428 Zn2412 1.969 1_455 S
O2428 C2431 1.258 . S
O2429 Zn2413 2.024 . S
O2429 C2416 1.043 1_554 S
C2430 O2419 1.260 1_456 S
C2430 O2420 1.258 . S
C2431 O2427 1.260 . S
C2431 O2428 1.258 . S
H2432 C2438 0.930 . S
H2433 C2441 0.930 . S
H2434 C2442 0.930 . S
H2435 C2443 0.930 . S
H2436 C2446 0.930 . S
H2437 C2447 0.930 . S
C2438 H2432 0.930 . S
C2438 C2439 1.355 1_455 S
C2438 C2440 1.415 . S
C2439 C2438 1.355 1_655 S
C2439 C2441 1.419 . S
C2440 C2438 1.415 . S
C2440 C2445 1.425 1_455 S
C2440 C2447 1.409 . S
C2441 H2433 0.930 . S
C2441 C2439 1.419 . S
C2441 C2442 1.362 . S
C2442 H2434 0.930 . S
C2442 C2441 1.362 . S
C2442 C2445 1.409 . S
C2443 H2435 0.930 . S
C2443 C2444 1.355 1_655 S
C2443 C2445 1.415 1_554 S
C2444 C2443 1.355 1_455 S
C2444 C2446 1.419 1_554 S
C2445 C2440 1.425 1_655 S
C2445 C2442 1.409 . S
C2445 C2443 1.415 1_556 S
C2446 H2436 0.930 . S
C2446 C2444 1.419 1_556 S
C2446 C2447 1.362 . S
C2447 H2437 0.930 . S
C2447 C2440 1.409 . S
C2447 C2446 1.362 . S
H2448 C2454 0.930 . S
H2449 C2457 0.930 . S
H2450 C2458 0.930 . S
H2451 C2459 0.930 . S
H2452 C2462 0.930 . S
H2453 C2463 0.930 . S
C2454 H2448 0.930 . S
C2454 C2455 1.355 . S
C2454 C2456 1.415 . S
C2455 C2454 1.355 . S
C2455 C2457 1.419 . S
C2456 C2454 1.415 . S
C2456 C2461 1.425 . S
C2456 C2463 1.409 . S
C2457 H2449 0.930 . S
C2457 C2455 1.419 . S
C2457 C2458 1.362 . S
C2458 H2450 0.930 . S
C2458 C2457 1.362 . S
C2458 C2461 1.409 . S
C2459 H2451 0.930 . S
C2459 C2460 1.355 . S
C2459 C2461 1.415 . S
C2460 C2459 1.355 . S
C2460 C2462 1.419 . S
C2461 C2456 1.425 . S
C2461 C2458 1.409 . S
C2461 C2459 1.415 . S
C2462 H2452 0.930 . S
C2462 C2460 1.419 . S
C2462 C2463 1.362 . S
C2463 H2453 0.930 . S
C2463 C2456 1.409 . S
C2463 C2462 1.362 . S
H2464 C2470 0.930 . S
H2465 C2473 0.930 . S
H2466 C2474 0.930 . S
H2467 C2475 0.930 . S
H2468 C2478 0.930 . S
H2469 C2479 0.930 . S
C2470 H2464 0.930 . S
C2470 C2471 1.355 . S
C2470 C2472 1.415 . S
C2471 C2470 1.355 . S
C2471 C2473 1.419 . S
C2472 C2470 1.415 . S
C2472 C2477 1.425 . S
C2472 C2479 1.409 . S
C2473 H2465 0.930 . S
C2473 C2471 1.419 . S
C2473 C2474 1.362 . S
C2474 H2466 0.930 . S
C2474 C2473 1.362 . S
C2474 C2477 1.409 . S
C2475 H2467 0.930 . S
C2475 C2476 1.355 . S
C2475 C2477 1.415 . S
C2476 C2475 1.355 . S
C2476 C2478 1.419 . S
C2477 C2472 1.425 . S
C2477 C2474 1.409 . S
C2477 C2475 1.415 . S
C2478 H2468 0.930 . S
C2478 C2476 1.419 . S
C2478 C2479 1.362 . S
C2479 H2469 0.930 . S
C2479 C2472 1.409 . S
C2479 C2478 1.362 . S
H2480 C2486 0.930 . S
H2481 C2489 0.930 . S
H2482 C2490 0.930 . S
H2483 C2491 0.930 . S
H2484 C2494 0.930 . S
H2485 C2495 0.930 . S
C2486 H2480 0.930 . S
C2486 C2487 1.355 . S
C2486 C2488 1.415 . S
C2487 C2486 1.355 . S
C2487 C2489 1.419 . S
C2488 C2486 1.415 . S
C2488 C2493 1.425 . S
C2488 C2495 1.409 . S
C2489 H2481 0.930 . S
C2489 C2487 1.419 . S
C2489 C2490 1.362 . S
C2490 H2482 0.930 . S
C2490 C2489 1.362 . S
C2490 C2493 1.409 . S
C2491 H2483 0.930 . S
C2491 C2492 1.355 . S
C2491 C2493 1.415 . S
C2492 C2491 1.355 . S
C2492 C2494 1.419 . S
C2493 C2488 1.425 . S
C2493 C2490 1.409 . S
C2493 C2491 1.415 . S
C2494 H2484 0.930 . S
C2494 C2492 1.419 . S
C2494 C2495 1.362 . S
C2495 H2485 0.930 . S
C2495 C2488 1.409 . S
C2495 C2494 1.362 . S
H2496 C2502 0.930 1_655 S
H2497 C2505 0.930 . S
H2498 C2506 0.930 . S
H2499 C2507 0.930 . S
H2500 C2510 0.943 . S
H2501 C2511 0.896 1_655 S
C2502 H2496 0.930 1_455 S
C2502 C2503 1.355 . S
C2502 C2504 1.415 . S
C2503 C2502 1.355 . S
C2503 C2505 1.419 . S
C2504 C2502 1.415 . S
C2504 C2509 1.425 . S
C2504 C2511 1.437 . S
C2505 H2497 0.930 . S
C2505 C2503 1.419 . S
C2505 C2506 1.362 . S
C2506 H2498 0.930 . S
C2506 C2505 1.362 . S
C2506 C2509 1.409 . S
C2507 H2499 0.930 . S
C2507 C2508 1.355 . S
C2507 C2509 1.415 . S
C2508 C2507 1.355 . S
C2508 C2510 1.419 . S
C2509 C2504 1.425 . S
C2509 C2506 1.409 . S
C2509 C2507 1.415 . S
C2510 H2500 0.943 . S
C2510 C2508 1.419 . S
C2510 C2511 1.371 . S
C2511 H2501 0.896 1_455 S
C2511 C2504 1.437 . S
C2511 C2510 1.371 . S
H2512 C2518 0.930 . S
H2513 C2521 0.930 . S
H2514 C2522 0.930 . S
H2515 C2523 0.930 . S
H2516 C2526 0.930 . S
H2517 C2527 0.930 . S
C2518 H2512 0.930 . S
C2518 C2519 1.355 . S
C2518 C2520 1.415 . S
C2519 C2518 1.355 . S
C2519 C2521 1.419 . S
C2520 C2518 1.415 . S
C2520 C2525 1.425 . S
C2520 C2527 1.409 . S
C2521 H2513 0.930 . S
C2521 C2519 1.419 . S
C2521 C2522 1.362 . S
C2522 H2514 0.930 . S
C2522 C2521 1.362 . S
C2522 C2525 1.409 . S
C2523 H2515 0.930 . S
C2523 C2524 1.355 . S
C2523 C2525 1.415 . S
C2524 C2523 1.355 . S
C2524 C2526 1.419 . S
C2525 C2520 1.425 . S
C2525 C2522 1.409 . S
C2525 C2523 1.415 . S
C2526 H2516 0.930 . S
C2526 C2524 1.419 . S
C2526 C2527 1.362 . S
C2527 H2517 0.930 . S
C2527 C2520 1.409 . S
C2527 C2526 1.362 . S
H2528 C2534 0.930 . S
H2529 C2537 0.930 . S
H2530 C2538 0.930 . S
H2531 C2539 0.930 . S
H2532 C2542 0.930 . S
H2533 C2543 0.930 . S
C2534 H2528 0.930 . S
C2534 C2535 1.355 . S
C2534 C2536 1.415 . S
C2535 C2534 1.355 . S
C2535 C2537 1.419 . S
C2536 C2534 1.415 . S
C2536 C2541 1.425 . S
C2536 C2543 1.409 . S
C2537 H2529 0.930 . S
C2537 C2535 1.419 . S
C2537 C2538 1.362 . S
C2538 H2530 0.930 . S
C2538 C2537 1.362 . S
C2538 C2541 1.409 . S
C2539 H2531 0.930 . S
C2539 C2540 1.355 . S
C2539 C2541 1.415 . S
C2540 C2539 1.355 . S
C2540 C2542 1.419 . S
C2541 C2536 1.425 . S
C2541 C2538 1.409 . S
C2541 C2539 1.415 . S
C2542 H2532 0.930 . S
C2542 C2540 1.419 . S
C2542 C2543 1.362 . S
C2543 H2533 0.930 . S
C2543 C2536 1.409 . S
C2543 C2542 1.362 . S
H2544 C2550 0.930 . S
H2545 C2553 0.930 . S
H2546 C2554 0.930 . S
H2547 C2555 0.930 . S
H2548 C2558 0.930 . S
H2549 C2559 0.930 . S
C2550 H2544 0.930 . S
C2550 C2551 1.355 . S
C2550 C2552 1.415 . S
C2551 C2550 1.355 . S
C2551 C2553 1.419 . S
C2552 C2550 1.415 . S
C2552 C2557 1.425 . S
C2552 C2559 1.409 . S
C2553 H2545 0.930 . S
C2553 C2551 1.419 . S
C2553 C2554 1.362 . S
C2554 H2546 0.930 . S
C2554 C2553 1.362 . S
C2554 C2557 1.409 . S
C2555 H2547 0.930 . S
C2555 C2556 1.355 . S
C2555 C2557 1.415 . S
C2556 C2555 1.355 . S
C2556 C2558 1.419 . S
C2557 C2552 1.425 . S
C2557 C2554 1.409 . S
C2557 C2555 1.415 . S
C2558 H2548 0.930 . S
C2558 C2556 1.419 . S
C2558 C2559 1.362 . S
C2559 H2549 0.930 . S
C2559 C2552 1.409 . S
C2559 C2558 1.362 . S
H2560 C2566 0.930 . S
H2561 C2569 0.930 . S
H2562 C2570 0.930 . S
H2563 C2571 0.930 1_565 S
H2564 C2574 0.930 . S
H2565 C2575 0.930 . S
C2566 H2560 0.930 . S
C2566 C2567 1.355 . S
C2566 C2568 1.415 . S
C2567 C2566 1.355 . S
C2567 C2569 1.419 1_545 S
C2568 C2566 1.415 . S
C2568 C2573 1.425 . S
C2568 C2575 1.409 1_655 S
C2569 H2561 0.930 . S
C2569 C2567 1.419 1_565 S
C2569 C2570 1.362 . S
C2570 H2562 0.930 . S
C2570 C2569 1.362 . S
C2570 C2573 1.409 1_565 S
C2571 H2563 0.930 1_545 S
C2571 C2572 1.355 . S
C2571 C2573 1.415 . S
C2572 C2571 1.355 . S
C2572 C2574 1.419 1_655 S
C2573 C2568 1.425 . S
C2573 C2570 1.409 1_545 S
C2573 C2571 1.415 . S
C2574 H2564 0.930 . S
C2574 C2572 1.419 1_455 S
C2574 C2575 1.362 . S
C2575 H2565 0.930 . S
C2575 C2568 1.409 1_455 S
C2575 C2574 1.362 . S
H2576 C2582 0.930 . S
H2577 C2585 0.930 . S
H2578 C2586 0.930 . S
H2579 C2587 0.930 . S
H2580 C2590 0.930 . S
H2581 C2591 0.930 . S
C2582 H2576 0.930 . S
C2582 C2583 1.355 . S
C2582 C2584 1.415 . S
C2583 C2582 1.355 . S
C2583 C2585 1.419 . S
C2584 C2582 1.415 . S
C2584 C2589 1.425 . S
C2584 C2591 1.409 . S
C2585 H2577 0.930 . S
C2585 C2583 1.419 . S
C2585 C2586 1.362 . S
C2586 H2578 0.930 . S
C2586 C2585 1.362 . S
C2586 C2589 1.409 . S
C2587 H2579 0.930 . S
C2587 C2588 1.355 . S
C2587 C2589 1.415 . S
C2588 C2587 1.355 . S
C2588 C2590 1.419 . S
C2589 C2584 1.425 . S
C2589 C2586 1.409 . S
C2589 C2587 1.415 . S
C2590 H2580 0.930 . S
C2590 C2588 1.419 . S
C2590 C2591 1.362 . S
C2591 H2581 0.930 . S
C2591 C2584 1.409 . S
C2591 C2590 1.362 . S
H2592 C2598 0.930 . S
H2593 C2601 0.930 . S
H2594 C2602 0.930 1_545 S
H2595 C2603 0.930 . S
H2596 C2606 0.930 . S
H2597 C2607 0.930 . S
C2598 H2592 0.930 . S
C2598 C2599 1.355 . S
C2598 C2600 1.415 . S
C2599 C2598 1.355 . S
C2599 C2601 1.419 . S
C2600 C2598 1.415 . S
C2600 C2605 1.425 . S
C2600 C2607 1.409 . S
C2601 H2593 0.930 . S
C2601 C2599 1.419 . S
C2601 C2602 1.362 . S
C2602 H2594 0.930 1_565 S
C2602 C2601 1.362 . S
C2602 C2605 1.409 . S
C2603 H2595 0.930 . S
C2603 C2604 1.355 . S
C2603 C2605 1.415 1_545 S
C2604 C2603 1.355 . S
C2604 C2606 1.419 1_545 S
C2605 C2600 1.425 . S
C2605 C2602 1.409 . S
C2605 C2603 1.415 1_565 S
C2606 H2596 0.930 . S
C2606 C2604 1.419 1_565 S
C2606 C2607 1.362 . S
C2607 H2597 0.930 . S
C2607 C2600 1.409 . S
C2607 C2606 1.362 . S
H2608 C2614 0.930 . S
H2609 C2617 0.930 . S
H2610 C2618 0.930 . S
H2611 C2619 0.930 . S
H2612 C2622 0.930 . S
H2613 C2623 0.930 . S
C2614 H2608 0.930 . S
C2614 C2615 1.355 . S
C2614 C2616 1.415 . S
C2615 C2614 1.355 . S
C2615 C2617 1.419 . S
C2616 C2614 1.415 . S
C2616 C2621 1.425 . S
C2616 C2623 1.409 . S
C2617 H2609 0.930 . S
C2617 C2615 1.419 . S
C2617 C2618 1.362 . S
C2618 H2610 0.930 . S
C2618 C2617 1.362 . S
C2618 C2621 1.409 . S
C2619 H2611 0.930 . S
C2619 C2620 1.355 . S
C2619 C2621 1.415 . S
C2620 C2619 1.355 . S
C2620 C2622 1.419 . S
C2621 C2616 1.425 . S
C2621 C2618 1.409 . S
C2621 C2619 1.415 . S
C2622 H2612 0.930 . S
C2622 C2620 1.419 . S
C2622 C2623 1.362 . S
C2623 H2613 0.930 . S
C2623 C2616 1.409 . S
C2623 C2622 1.362 . S
H2624 C2630 0.930 . S
H2625 C2633 0.930 . S
H2626 C2634 0.930 . S
H2627 C2635 0.930 . S
H2628 C2638 0.930 . S
H2629 C2639 0.930 . S
C2630 H2624 0.930 . S
C2630 C2631 1.355 . S
C2630 C2632 1.415 . S
C2631 C2630 1.355 . S
C2631 C2633 1.419 . S
C2632 C2630 1.415 . S
C2632 C2637 1.425 . S
C2632 C2639 1.409 1_655 S
C2633 H2625 0.930 . S
C2633 C2631 1.419 . S
C2633 C2634 1.362 . S
C2634 H2626 0.930 . S
C2634 C2633 1.362 . S
C2634 C2637 1.409 . S
C2635 H2627 0.930 . S
C2635 C2636 1.355 . S
C2635 C2637 1.415 . S
C2636 C2635 1.355 . S
C2636 C2638 1.419 1_655 S
C2637 C2632 1.425 . S
C2637 C2634 1.409 . S
C2637 C2635 1.415 . S
C2638 H2628 0.930 . S
C2638 C2636 1.419 1_455 S
C2638 C2639 1.362 . S
C2639 H2629 0.930 . S
C2639 C2632 1.409 1_455 S
C2639 C2638 1.362 . S
H2640 C2646 0.930 . S
H2641 C2649 0.930 . S
H2642 C2650 0.930 . S
H2643 C2651 0.930 . S
H2644 C2654 0.930 . S
H2645 C2655 0.930 . S
C2646 H2640 0.930 . S
C2646 C2647 1.355 . S
C2646 C2648 1.415 . S
C2647 C2646 1.355 . S
C2647 C2649 1.419 . S
C2648 C2646 1.415 . S
C2648 C2653 1.425 . S
C2648 C2655 1.409 . S
C2649 H2641 0.930 . S
C2649 C2647 1.419 . S
C2649 C2650 1.362 . S
C2650 H2642 0.930 . S
C2650 C2649 1.362 . S
C2650 C2653 1.409 . S
C2651 H2643 0.930 . S
C2651 C2652 1.355 . S
C2651 C2653 1.415 . S
C2652 C2651 1.355 . S
C2652 C2654 1.419 . S
C2653 C2648 1.425 . S
C2653 C2650 1.409 . S
C2653 C2651 1.415 . S
C2654 H2644 0.930 . S
C2654 C2652 1.419 . S
C2654 C2655 1.362 . S
C2655 H2645 0.930 . S
C2655 C2648 1.409 . S
C2655 C2654 1.362 . S
H2656 C2662 0.930 . S
H2657 C2665 0.930 . S
H2658 C2666 0.930 . S
H2659 C2667 0.930 1_565 S
H2660 C2670 0.930 . S
H2661 C2671 0.930 . S
C2662 H2656 0.930 . S
C2662 C2663 1.355 1_545 S
C2662 C2664 1.415 . S
C2663 C2662 1.355 1_565 S
C2663 C2665 1.419 . S
C2664 C2662 1.415 . S
C2664 C2669 1.425 . S
C2664 C2671 1.409 . S
C2665 H2657 0.930 . S
C2665 C2663 1.419 . S
C2665 C2666 1.362 . S
C2666 H2658 0.930 . S
C2666 C2665 1.362 . S
C2666 C2669 1.409 1_565 S
C2667 H2659 0.930 1_545 S
C2667 C2668 1.355 . S
C2667 C2669 1.415 . S
C2668 C2667 1.355 . S
C2668 C2670 1.419 . S
C2669 C2664 1.425 . S
C2669 C2666 1.409 1_545 S
C2669 C2667 1.415 . S
C2670 H2660 0.930 . S
C2670 C2668 1.419 . S
C2670 C2671 1.362 . S
C2671 H2661 0.930 . S
C2671 C2664 1.409 . S
C2671 C2670 1.362 . S
H2672 C2678 0.930 . S
H2673 C2681 0.930 . S
H2674 C2682 0.930 . S
H2675 C2683 0.930 . S
H2676 C2686 0.930 . S
H2677 C2687 0.930 . S
C2678 H2672 0.930 . S
C2678 C2679 1.355 . S
C2678 C2680 1.415 . S
C2679 C2678 1.355 . S
C2679 C2681 1.419 . S
C2680 C2678 1.415 . S
C2680 C2685 1.425 . S
C2680 C2687 1.409 . S
C2681 H2673 0.930 . S
C2681 C2679 1.419 . S
C2681 C2682 1.362 . S
C2682 H2674 0.930 . S
C2682 C2681 1.362 . S
C2682 C2685 1.409 . S
C2683 H2675 0.930 . S
C2683 C2684 1.355 . S
C2683 C2685 1.415 . S
C2684 C2683 1.355 . S
C2684 C2686 1.419 . S
C2685 C2680 1.425 . S
C2685 C2682 1.409 . S
C2685 C2683 1.415 . S
C2686 H2676 0.930 . S
C2686 C2684 1.419 . S
C2686 C2687 1.362 . S
C2687 H2677 0.930 . S
C2687 C2680 1.409 . S
C2687 C2686 1.362 . S
H2688 C2694 0.930 . S
H2689 C2697 0.930 . S
H2690 C2698 0.930 . S
H2691 C2699 0.930 1_545 S
H2692 C2702 0.930 . S
H2693 C2703 0.930 . S
C2694 H2688 0.930 . S
C2694 C2695 1.355 . S
C2694 C2696 1.415 . S
C2695 C2694 1.355 . S
C2695 C2697 1.419 . S
C2696 C2694 1.415 . S
C2696 C2701 1.425 . S
C2696 C2703 1.409 . S
C2697 H2689 0.930 . S
C2697 C2695 1.419 . S
C2697 C2698 1.362 . S
C2698 H2690 0.930 . S
C2698 C2697 1.362 . S
C2698 C2701 1.409 . S
C2699 H2691 0.930 1_565 S
C2699 C2700 1.355 . S
C2699 C2701 1.415 . S
C2700 C2699 1.355 . S
C2700 C2702 1.419 . S
C2701 C2696 1.425 . S
C2701 C2698 1.409 . S
C2701 C2699 1.415 . S
C2702 H2692 0.930 . S
C2702 C2700 1.419 . S
C2702 C2703 1.362 . S
C2703 H2693 0.930 . S
C2703 C2696 1.409 . S
C2703 C2702 1.362 . S
H2704 C2710 0.930 . S
H2705 C2713 0.930 . S
H2706 C2714 0.930 . S
H2707 C2715 0.930 . S
H2708 C2718 0.930 . S
H2709 C2719 0.930 . S
C2710 H2704 0.930 . S
C2710 C2711 1.355 1_554 S
C2710 C2712 1.415 . S
C2711 C2710 1.355 1_556 S
C2711 C2713 1.419 . S
C2712 C2710 1.415 . S
C2712 C2717 1.425 1_554 S
C2712 C2719 1.409 . S
C2713 H2705 0.930 . S
C2713 C2711 1.419 . S
C2713 C2714 1.362 . S
C2714 H2706 0.930 . S
C2714 C2713 1.362 . S
C2714 C2717 1.409 . S
C2715 H2707 0.930 . S
C2715 C2716 1.355 1_556 S
C2715 C2717 1.415 . S
C2716 C2715 1.355 1_554 S
C2716 C2718 1.419 . S
C2717 C2712 1.425 1_556 S
C2717 C2714 1.409 . S
C2717 C2715 1.415 . S
C2718 H2708 0.930 . S
C2718 C2716 1.419 . S
C2718 C2719 1.362 . S
C2719 H2709 0.930 . S
C2719 C2712 1.409 . S
C2719 C2718 1.362 . S
H2720 C2726 0.930 . S
H2721 C2729 0.930 . S
H2722 C2730 0.930 . S
H2723 C2731 0.930 . S
H2724 C2734 0.930 . S
H2725 C2735 0.930 . S
C2726 H2720 0.930 . S
C2726 C2727 1.355 . S
C2726 C2728 1.415 . S
C2727 C2726 1.355 . S
C2727 C2729 1.419 . S
C2728 C2726 1.415 . S
C2728 C2733 1.425 . S
C2728 C2735 1.409 . S
C2729 H2721 0.930 . S
C2729 C2727 1.419 . S
C2729 C2730 1.362 . S
C2730 H2722 0.930 . S
C2730 C2729 1.362 . S
C2730 C2733 1.409 . S
C2731 H2723 0.930 . S
C2731 C2732 1.355 . S
C2731 C2733 1.415 . S
C2732 C2731 1.355 . S
C2732 C2734 1.419 . S
C2733 C2728 1.425 . S
C2733 C2730 1.409 . S
C2733 C2731 1.415 . S
C2734 H2724 0.930 . S
C2734 C2732 1.419 . S
C2734 C2735 1.362 . S
C2735 H2725 0.930 . S
C2735 C2728 1.409 . S
C2735 C2734 1.362 . S
H2736 C2742 0.930 . S
H2737 C2745 0.930 . S
H2738 C2746 0.930 . S
H2739 C2747 0.930 . S
H2740 C2750 0.930 . S
H2741 C2751 0.930 . S
C2742 H2736 0.930 . S
C2742 C2743 1.355 . S
C2742 C2744 1.415 . S
C2743 C2742 1.355 . S
C2743 C2745 1.419 . S
C2744 C2742 1.415 . S
C2744 C2749 1.425 . S
C2744 C2751 1.409 . S
C2745 H2737 0.930 . S
C2745 C2743 1.419 . S
C2745 C2746 1.362 . S
C2746 H2738 0.930 . S
C2746 C2745 1.362 . S
C2746 C2749 1.409 . S
C2747 H2739 0.930 . S
C2747 C2748 1.355 . S
C2747 C2749 1.415 . S
C2748 C2747 1.355 . S
C2748 C2750 1.419 . S
C2749 C2744 1.425 . S
C2749 C2746 1.409 . S
C2749 C2747 1.415 . S
C2750 H2740 0.930 . S
C2750 C2748 1.419 . S
C2750 C2751 1.362 . S
C2751 H2741 0.930 . S
C2751 C2744 1.409 . S
C2751 C2750 1.362 . S
H2752 C2758 0.930 . S
H2753 C2761 0.930 . S
H2754 C2762 0.930 . S
H2755 C2763 0.930 . S
H2756 C2766 0.930 . S
H2757 C2767 0.930 . S
C2758 H2752 0.930 . S
C2758 C2759 1.355 . S
C2758 C2760 1.415 . S
C2759 C2758 1.355 . S
C2759 C2761 1.419 . S
C2760 C2758 1.415 . S
C2760 C2765 1.425 . S
C2760 C2767 1.409 . S
C2761 H2753 0.930 . S
C2761 C2759 1.419 . S
C2761 C2762 1.362 . S
C2762 H2754 0.930 . S
C2762 C2761 1.362 . S
C2762 C2765 1.409 . S
C2763 H2755 0.930 . S
C2763 C2764 1.355 . S
C2763 C2765 1.415 . S
C2764 C2763 1.355 . S
C2764 C2766 1.419 . S
C2765 C2760 1.425 . S
C2765 C2762 1.409 . S
C2765 C2763 1.415 . S
C2766 H2756 0.930 . S
C2766 C2764 1.419 . S
C2766 C2767 1.362 . S
C2767 H2757 0.930 . S
C2767 C2760 1.409 . S
C2767 C2766 1.362 . S
H2768 C2774 0.930 . S
H2769 C2777 0.930 . S
H2770 C2778 0.930 . S
H2771 C2779 0.930 . S
H2772 C2782 0.930 . S
H2773 C2783 0.930 . S
C2774 H2768 0.930 . S
C2774 C2775 1.355 . S
C2774 C2776 1.415 . S
C2775 C2774 1.355 . S
C2775 C2777 1.419 . S
C2776 C2774 1.415 . S
C2776 C2781 1.425 . S
C2776 C2783 1.409 . S
C2777 H2769 0.930 . S
C2777 C2775 1.419 . S
C2777 C2778 1.362 . S
C2778 H2770 0.930 . S
C2778 C2777 1.362 . S
C2778 C2781 1.409 . S
C2779 H2771 0.930 . S
C2779 C2780 1.355 . S
C2779 C2781 1.415 . S
C2780 C2779 1.355 . S
C2780 C2782 1.419 . S
C2781 C2776 1.425 . S
C2781 C2778 1.409 . S
C2781 C2779 1.415 . S
C2782 H2772 0.930 . S
C2782 C2780 1.419 . S
C2782 C2783 1.362 . S
C2783 H2773 0.930 . S
C2783 C2776 1.409 . S
C2783 C2782 1.362 . S
H2784 C2790 0.930 . S
H2785 C2793 0.930 . S
H2786 C2794 0.930 . S
H2787 C2795 0.930 . S
H2788 C2798 0.930 . S
H2789 C2799 0.930 . S
C2790 H2784 0.930 . S
C2790 C2791 1.355 . S
C2790 C2792 1.415 . S
C2791 C2790 1.355 . S
C2791 C2793 1.419 . S
C2792 C2790 1.415 . S
C2792 C2797 1.425 . S
C2792 C2799 1.409 . S
C2793 H2785 0.930 . S
C2793 C2791 1.419 . S
C2793 C2794 1.362 . S
C2794 H2786 0.930 . S
C2794 C2793 1.362 . S
C2794 C2797 1.409 . S
C2795 H2787 0.930 . S
C2795 C2796 1.355 . S
C2795 C2797 1.415 . S
C2796 C2795 1.355 . S
C2796 C2798 1.419 . S
C2797 C2792 1.425 . S
C2797 C2794 1.409 . S
C2797 C2795 1.415 . S
C2798 H2788 0.930 . S
C2798 C2796 1.419 . S
C2798 C2799 1.362 . S
C2799 H2789 0.930 . S
C2799 C2792 1.409 . S
C2799 C2798 1.362 . S
H2800 C2806 0.930 . S
H2801 C2809 0.930 . S
H2802 C2810 0.930 . S
H2803 C2811 0.930 . S
H2804 C2814 0.930 . S
H2805 C2815 0.930 . S
C2806 H2800 0.930 . S
C2806 C2807 1.355 . S
C2806 C2808 1.415 . S
C2807 C2806 1.355 . S
C2807 C2809 1.419 . S
C2808 C2806 1.415 . S
C2808 C2813 1.425 . S
C2808 C2815 1.409 . S
C2809 H2801 0.930 . S
C2809 C2807 1.419 . S
C2809 C2810 1.362 . S
C2810 H2802 0.930 . S
C2810 C2809 1.362 . S
C2810 C2813 1.409 . S
C2811 H2803 0.930 . S
C2811 C2812 1.355 . S
C2811 C2813 1.415 . S
C2812 C2811 1.355 . S
C2812 C2814 1.419 . S
C2813 C2808 1.425 . S
C2813 C2810 1.409 . S
C2813 C2811 1.415 . S
C2814 H2804 0.930 . S
C2814 C2812 1.419 . S
C2814 C2815 1.362 . S
C2815 H2805 0.930 . S
C2815 C2808 1.409 . S
C2815 C2814 1.362 . S
H2816 C2822 0.930 . S
H2817 C2825 0.930 1_655 S
H2818 C2826 0.930 . S
H2819 C2827 0.944 . S
H2820 C2830 0.930 . S
H2821 C2831 0.930 . S
C2822 H2816 0.930 . S
C2822 C2823 1.355 . S
C2822 C2824 1.415 . S
C2823 C2822 1.355 . S
C2823 C2825 1.419 . S
C2824 C2822 1.415 . S
C2824 C2829 1.425 . S
C2824 C2831 1.409 . S
C2825 H2817 0.930 1_455 S
C2825 C2823 1.419 . S
C2825 C2826 1.362 1_455 S
C2826 H2818 0.930 . S
C2826 C2825 1.362 1_655 S
C2826 C2829 1.409 1_655 S
C2827 H2819 0.944 . S
C2827 C2828 1.347 1_655 S
C2827 C2829 1.408 1_655 S
C2828 C2827 1.347 1_455 S
C2828 C2830 1.419 . S
C2829 C2824 1.425 . S
C2829 C2826 1.409 1_455 S
C2829 C2827 1.408 1_455 S
C2830 H2820 0.930 . S
C2830 C2828 1.419 . S
C2830 C2831 1.362 . S
C2831 H2821 0.930 . S
C2831 C2824 1.409 . S
C2831 C2830 1.362 . S
H2832 C2838 0.930 . S
H2833 C2841 0.930 . S
H2834 C2842 0.930 . S
H2835 C2843 0.930 . S
H2836 C2846 0.930 . S
H2837 C2847 0.930 . S
C2838 H2832 0.930 . S
C2838 C2839 1.355 . S
C2838 C2840 1.415 . S
C2839 C2838 1.355 . S
C2839 C2841 1.419 . S
C2840 C2838 1.415 . S
C2840 C2845 1.425 . S
C2840 C2847 1.409 . S
C2841 H2833 0.930 . S
C2841 C2839 1.419 . S
C2841 C2842 1.362 . S
C2842 H2834 0.930 . S
C2842 C2841 1.362 . S
C2842 C2845 1.409 . S
C2843 H2835 0.930 . S
C2843 C2844 1.355 . S
C2843 C2845 1.415 . S
C2844 C2843 1.355 . S
C2844 C2846 1.419 . S
C2845 C2840 1.425 . S
C2845 C2842 1.409 . S
C2845 C2843 1.415 . S
C2846 H2836 0.930 . S
C2846 C2844 1.419 . S
C2846 C2847 1.362 . S
C2847 H2837 0.930 . S
C2847 C2840 1.409 . S
C2847 C2846 1.362 . S
H2848 C2854 0.930 . S
H2849 C2857 0.930 . S
H2850 C2858 0.930 . S
H2851 C2859 0.930 . S
H2852 C2862 0.930 . S
H2853 C2863 0.930 . S
C2854 H2848 0.930 . S
C2854 C2855 1.355 . S
C2854 C2856 1.415 . S
C2855 C2854 1.355 . S
C2855 C2857 1.419 . S
C2856 C2854 1.415 . S
C2856 C2861 1.425 . S
C2856 C2863 1.409 . S
C2857 H2849 0.930 . S
C2857 C2855 1.419 . S
C2857 C2858 1.362 . S
C2858 H2850 0.930 . S
C2858 C2857 1.362 . S
C2858 C2861 1.409 . S
C2859 H2851 0.930 . S
C2859 C2860 1.355 . S
C2859 C2861 1.415 . S
C2860 C2859 1.355 . S
C2860 C2862 1.419 . S
C2861 C2856 1.425 . S
C2861 C2858 1.409 . S
C2861 C2859 1.415 . S
C2862 H2852 0.930 . S
C2862 C2860 1.419 . S
C2862 C2863 1.362 . S
C2863 H2853 0.930 . S
C2863 C2856 1.409 . S
C2863 C2862 1.362 . S
H2864 C2870 0.930 . S
H2865 C2873 0.930 . S
H2866 C2874 0.930 . S
H2867 C2875 0.930 . S
H2868 C2878 0.930 . S
H2869 C2879 0.930 . S
C2870 H2864 0.930 . S
C2870 C2871 1.355 . S
C2870 C2872 1.415 . S
C2871 C2870 1.355 . S
C2871 C2873 1.419 . S
C2872 C2870 1.415 . S
C2872 C2877 1.425 . S
C2872 C2879 1.409 . S
C2873 H2865 0.930 . S
C2873 C2871 1.419 . S
C2873 C2874 1.362 . S
C2874 H2866 0.930 . S
C2874 C2873 1.362 . S
C2874 C2877 1.409 . S
C2875 H2867 0.930 . S
C2875 C2876 1.355 . S
C2875 C2877 1.415 . S
C2876 C2875 1.355 . S
C2876 C2878 1.419 . S
C2877 C2872 1.425 . S
C2877 C2874 1.409 . S
C2877 C2875 1.415 . S
C2878 H2868 0.930 . S
C2878 C2876 1.419 . S
C2878 C2879 1.362 . S
C2879 H2869 0.930 . S
C2879 C2872 1.409 . S
C2879 C2878 1.362 . S
H2880 C2886 0.930 . S
H2881 C2889 0.930 . S
H2882 C2890 0.930 . S
H2883 C2891 0.930 . S
H2884 C2894 0.930 . S
H2885 C2895 0.930 . S
C2886 H2880 0.930 . S
C2886 C2887 1.355 . S
C2886 C2888 1.415 . S
C2887 C2886 1.355 . S
C2887 C2889 1.419 1_455 S
C2888 C2886 1.415 . S
C2888 C2893 1.425 1_455 S
C2888 C2895 1.409 . S
C2889 H2881 0.930 . S
C2889 C2887 1.419 1_655 S
C2889 C2890 1.362 . S
C2890 H2882 0.930 . S
C2890 C2889 1.362 . S
C2890 C2893 1.409 . S
C2891 H2883 0.930 . S
C2891 C2892 1.355 1_655 S
C2891 C2893 1.415 . S
C2892 C2891 1.355 1_455 S
C2892 C2894 1.419 . S
C2893 C2888 1.425 1_655 S
C2893 C2890 1.409 . S
C2893 C2891 1.415 . S
C2894 H2884 0.930 . S
C2894 C2892 1.419 . S
C2894 C2895 1.362 . S
C2895 H2885 0.930 . S
C2895 C2888 1.409 . S
C2895 C2894 1.362 . S
H2896 C2902 0.930 . S
H2897 C2905 0.930 . S
H2898 C2906 0.930 . S
H2899 C2907 0.930 . S
H2900 C2910 0.930 . S
H2901 C2911 0.930 . S
C2902 H2896 0.930 . S
C2902 C2903 1.355 . S
C2902 C2904 1.415 . S
C2903 C2902 1.355 . S
C2903 C2905 1.419 . S
C2904 C2902 1.415 . S
C2904 C2909 1.425 . S
C2904 C2911 1.409 . S
C2905 H2897 0.930 . S
C2905 C2903 1.419 . S
C2905 C2906 1.362 . S
C2906 H2898 0.930 . S
C2906 C2905 1.362 . S
C2906 C2909 1.409 . S
C2907 H2899 0.930 . S
C2907 C2908 1.355 . S
C2907 C2909 1.415 . S
C2908 C2907 1.355 . S
C2908 C2910 1.419 . S
C2909 C2904 1.425 . S
C2909 C2906 1.409 . S
C2909 C2907 1.415 . S
C2910 H2900 0.930 . S
C2910 C2908 1.419 . S
C2910 C2911 1.362 . S
C2911 H2901 0.930 . S
C2911 C2904 1.409 . S
C2911 C2910 1.362 . S
H2912 C2918 0.930 . S
H2913 C2921 0.930 . S
H2914 C2922 0.930 1_554 S
H2915 C2923 0.930 . S
H2916 C2926 0.930 . S
H2917 C2927 0.930 . S
C2918 H2912 0.930 . S
C2918 C2919 1.355 . S
C2918 C2920 1.415 . S
C2919 C2918 1.355 . S
C2919 C2921 1.419 . S
C2920 C2918 1.415 . S
C2920 C2925 1.425 . S
C2920 C2927 1.409 . S
C2921 H2913 0.930 . S
C2921 C2919 1.419 . S
C2921 C2922 1.362 . S
C2922 H2914 0.930 1_556 S
C2922 C2921 1.362 . S
C2922 C2925 1.409 . S
C2923 H2915 0.930 . S
C2923 C2924 1.355 . S
C2923 C2925 1.415 1_554 S
C2924 C2923 1.355 . S
C2924 C2926 1.419 1_554 S
C2925 C2920 1.425 . S
C2925 C2922 1.409 . S
C2925 C2923 1.415 1_556 S
C2926 H2916 0.930 . S
C2926 C2924 1.419 1_556 S
C2926 C2927 1.362 . S
C2927 H2917 0.930 . S
C2927 C2920 1.409 . S
C2927 C2926 1.362 . S
H2928 C2934 0.930 . S
H2929 C2937 0.930 . S
H2930 C2938 0.930 . S
H2931 C2939 0.930 . S
H2932 C2942 0.930 . S
H2933 C2943 0.930 . S
C2934 H2928 0.930 . S
C2934 C2935 1.355 . S
C2934 C2936 1.415 . S
C2935 C2934 1.355 . S
C2935 C2937 1.419 . S
C2936 C2934 1.415 . S
C2936 C2941 1.425 . S
C2936 C2943 1.409 . S
C2937 H2929 0.930 . S
C2937 C2935 1.419 . S
C2937 C2938 1.362 . S
C2938 H2930 0.930 . S
C2938 C2937 1.362 . S
C2938 C2941 1.409 . S
C2939 H2931 0.930 . S
C2939 C2940 1.355 . S
C2939 C2941 1.415 . S
C2940 C2939 1.355 . S
C2940 C2942 1.419 . S
C2941 C2936 1.425 . S
C2941 C2938 1.409 . S
C2941 C2939 1.415 . S
C2942 H2932 0.930 . S
C2942 C2940 1.419 . S
C2942 C2943 1.362 . S
C2943 H2933 0.930 . S
C2943 C2936 1.409 . S
C2943 C2942 1.362 . S
H2944 C2950 0.930 . S
H2945 C2953 0.930 . S
H2946 C2954 0.930 . S
H2947 C2955 0.930 . S
H2948 C2958 0.929 1_655 S
H2949 C2959 0.938 1_565 S
C2950 H2944 0.930 . S
C2950 C2951 1.355 . S
C2950 C2952 1.415 . S
C2951 C2950 1.355 . S
C2951 C2953 1.419 . S
C2952 C2950 1.415 . S
C2952 C2957 1.425 . S
C2952 C2959 1.409 . S
C2953 H2945 0.930 . S
C2953 C2951 1.419 . S
C2953 C2954 1.362 . S
C2954 H2946 0.930 . S
C2954 C2953 1.362 . S
C2954 C2957 1.409 . S
C2955 H2947 0.930 . S
C2955 C2956 1.353 . S
C2955 C2957 1.415 . S
C2956 C2955 1.353 . S
C2956 C2958 1.427 1_545 S
C2957 C2952 1.425 . S
C2957 C2954 1.409 . S
C2957 C2955 1.415 . S
C2958 H2948 0.929 1_455 S
C2958 C2956 1.427 1_565 S
C2958 C2959 1.360 1_565 S
C2959 H2949 0.938 1_545 S
C2959 C2952 1.409 . S
C2959 C2958 1.360 1_545 S
H2960 C2966 0.930 . S
H2961 C2969 0.930 . S
H2962 C2970 0.930 . S
H2963 C2971 0.930 . S
H2964 C2974 0.930 . S
H2965 C2975 0.930 . S
C2966 H2960 0.930 . S
C2966 C2967 1.355 . S
C2966 C2968 1.415 . S
C2967 C2966 1.355 . S
C2967 C2969 1.419 . S
C2968 C2966 1.415 . S
C2968 C2973 1.425 . S
C2968 C2975 1.409 . S
C2969 H2961 0.930 . S
C2969 C2967 1.419 . S
C2969 C2970 1.362 . S
C2970 H2962 0.930 . S
C2970 C2969 1.362 . S
C2970 C2973 1.409 . S
C2971 H2963 0.930 . S
C2971 C2972 1.355 . S
C2971 C2973 1.415 . S
C2972 C2971 1.355 . S
C2972 C2974 1.419 . S
C2973 C2968 1.425 . S
C2973 C2970 1.409 . S
C2973 C2971 1.415 . S
C2974 H2964 0.930 . S
C2974 C2972 1.419 . S
C2974 C2975 1.362 . S
C2975 H2965 0.930 . S
C2975 C2968 1.409 . S
C2975 C2974 1.362 . S
H2976 C2982 0.959 . S
H2977 C2985 0.930 . S
H2978 C2986 0.930 . S
H2979 C2987 0.930 . S
H2980 C2990 0.930 . S
H2981 C2991 0.930 . S
C2982 H2976 0.959 . S
C2982 C2983 1.355 . S
C2982 C2984 1.415 . S
C2983 C2982 1.355 . S
C2983 C2985 1.419 . S
C2984 C2982 1.415 . S
C2984 C2989 1.425 . S
C2984 C2991 1.409 1_545 S
C2985 H2977 0.930 . S
C2985 C2983 1.419 . S
C2985 C2986 1.362 . S
C2986 H2978 0.930 . S
C2986 C2985 1.362 . S
C2986 C2989 1.409 . S
C2987 H2979 0.930 . S
C2987 C2988 1.355 . S
C2987 C2989 1.415 . S
C2988 C2987 1.355 . S
C2988 C2990 1.419 1_545 S
C2989 C2984 1.425 . S
C2989 C2986 1.409 . S
C2989 C2987 1.415 . S
C2990 H2980 0.930 . S
C2990 C2988 1.419 1_565 S
C2990 C2991 1.362 . S
C2991 H2981 0.930 . S
C2991 C2984 1.409 1_565 S
C2991 C2990 1.362 . S
H2992 C2998 0.930 . S
H2993 C3001 0.930 . S
H2994 C3002 0.930 . S
H2995 C3003 0.930 . S
H2996 C3006 0.930 . S
H2997 C3007 0.930 . S
C2998 H2992 0.930 . S
C2998 C2999 1.355 . S
C2998 C3000 1.415 . S
C2999 C2998 1.355 . S
C2999 C3001 1.419 . S
C3000 C2998 1.415 . S
C3000 C3005 1.425 . S
C3000 C3007 1.409 . S
C3001 H2993 0.930 . S
C3001 C2999 1.419 . S
C3001 C3002 1.362 . S
C3002 H2994 0.930 . S
C3002 C3001 1.362 . S
C3002 C3005 1.409 . S
C3003 H2995 0.930 . S
C3003 C3004 1.355 . S
C3003 C3005 1.415 . S
C3004 C3003 1.355 . S
C3004 C3006 1.419 . S
C3005 C3000 1.425 . S
C3005 C3002 1.409 . S
C3005 C3003 1.415 . S
C3006 H2996 0.930 . S
C3006 C3004 1.419 . S
C3006 C3007 1.362 . S
C3007 H2997 0.930 . S
C3007 C3000 1.409 . S
C3007 C3006 1.362 . S
H3008 C3014 0.930 . S
H3009 C3017 0.930 . S
H3010 C3018 0.930 . S
H3011 C3019 0.930 . S
H3012 C3022 0.930 . S
H3013 C3023 0.930 . S
C3014 H3008 0.930 . S
C3014 C3015 1.355 1_545 S
C3014 C3016 1.415 . S
C3015 C3014 1.355 1_565 S
C3015 C3017 1.419 . S
C3016 C3014 1.415 . S
C3016 C3021 1.425 1_545 S
C3016 C3023 1.409 . S
C3017 H3009 0.930 . S
C3017 C3015 1.419 . S
C3017 C3018 1.362 . S
C3018 H3010 0.930 . S
C3018 C3017 1.362 . S
C3018 C3021 1.409 . S
C3019 H3011 0.930 . S
C3019 C3020 1.355 1_565 S
C3019 C3021 1.415 . S
C3020 C3019 1.355 1_545 S
C3020 C3022 1.419 . S
C3021 C3016 1.425 1_565 S
C3021 C3018 1.409 . S
C3021 C3019 1.415 . S
C3022 H3012 0.930 . S
C3022 C3020 1.419 . S
C3022 C3023 1.362 . S
C3023 H3013 0.930 . S
C3023 C3016 1.409 . S
C3023 C3022 1.362 . S
H3024 C3030 0.930 . S
H3025 C3033 0.930 . S
H3026 C3034 0.930 . S
H3027 C3035 0.930 . S
H3028 C3038 0.930 . S
H3029 C3039 0.930 . S
C3030 H3024 0.930 . S
C3030 C3031 1.355 . S
C3030 C3032 1.415 . S
C3031 C3030 1.355 . S
C3031 C3033 1.419 . S
C3032 C3030 1.415 . S
C3032 C3037 1.425 . S
C3032 C3039 1.409 . S
C3033 H3025 0.930 . S
C3033 C3031 1.419 . S
C3033 C3034 1.362 . S
C3034 H3026 0.930 . S
C3034 C3033 1.362 . S
C3034 C3037 1.409 . S
C3035 H3027 0.930 . S
C3035 C3036 1.355 . S
C3035 C3037 1.415 . S
C3036 C3035 1.355 . S
C3036 C3038 1.419 . S
C3037 C3032 1.425 . S
C3037 C3034 1.409 . S
C3037 C3035 1.415 . S
C3038 H3028 0.930 . S
C3038 C3036 1.419 . S
C3038 C3039 1.362 . S
C3039 H3029 0.930 . S
C3039 C3032 1.409 . S
C3039 C3038 1.362 . S
H3040 C3046 0.930 1_565 S
H3041 C3049 0.930 . S
H3042 C3050 0.930 . S
H3043 C3051 0.930 . S
H3044 C3054 0.930 . S
H3045 C3055 0.930 . S
C3046 H3040 0.930 1_545 S
C3046 C3047 1.355 . S
C3046 C3048 1.415 . S
C3047 C3046 1.355 . S
C3047 C3049 1.419 . S
C3048 C3046 1.415 . S
C3048 C3053 1.425 . S
C3048 C3055 1.409 1_545 S
C3049 H3041 0.930 . S
C3049 C3047 1.419 . S
C3049 C3050 1.362 . S
C3050 H3042 0.930 . S
C3050 C3049 1.362 . S
C3050 C3053 1.409 . S
C3051 H3043 0.930 . S
C3051 C3052 1.355 1_545 S
C3051 C3053 1.415 . S
C3052 C3051 1.355 1_565 S
C3052 C3054 1.419 . S
C3053 C3048 1.425 . S
C3053 C3050 1.409 . S
C3053 C3051 1.415 . S
C3054 H3044 0.930 . S
C3054 C3052 1.419 . S
C3054 C3055 1.362 . S
C3055 H3045 0.930 . S
C3055 C3048 1.409 1_565 S
C3055 C3054 1.362 . S
H3056 C3062 0.930 . S
H3057 C3065 0.930 . S
H3058 C3066 0.930 . S
H3059 C3067 0.930 . S
H3060 C3070 0.930 . S
H3061 C3071 0.930 . S
C3062 H3056 0.930 . S
C3062 C3063 1.355 . S
C3062 C3064 1.415 . S
C3063 C3062 1.355 . S
C3063 C3065 1.419 . S
C3064 C3062 1.415 . S
C3064 C3069 1.425 . S
C3064 C3071 1.409 . S
C3065 H3057 0.930 . S
C3065 C3063 1.419 . S
C3065 C3066 1.362 . S
C3066 H3058 0.930 . S
C3066 C3065 1.362 . S
C3066 C3069 1.409 . S
C3067 H3059 0.930 . S
C3067 C3068 1.355 . S
C3067 C3069 1.415 . S
C3068 C3067 1.355 . S
C3068 C3070 1.419 . S
C3069 C3064 1.425 . S
C3069 C3066 1.409 . S
C3069 C3067 1.415 . S
C3070 H3060 0.930 . S
C3070 C3068 1.419 . S
C3070 C3071 1.362 . S
C3071 H3061 0.930 . S
C3071 C3064 1.409 . S
C3071 C3070 1.362 . S
H3072 C3078 0.930 . S
H3073 C3081 0.930 . S
H3074 C3082 0.930 . S
H3075 C3083 0.929 1_556 S
H3076 C3086 0.930 . S
H3077 C3087 0.930 . S
C3078 H3072 0.930 . S
C3078 C3079 1.355 . S
C3078 C3080 1.415 . S
C3079 C3078 1.355 . S
C3079 C3081 1.419 . S
C3080 C3078 1.415 . S
C3080 C3085 1.425 . S
C3080 C3087 1.409 . S
C3081 H3073 0.930 . S
C3081 C3079 1.419 . S
C3081 C3082 1.362 . S
C3082 H3074 0.930 . S
C3082 C3081 1.362 . S
C3082 C3085 1.409 . S
C3083 H3075 0.929 1_554 S
C3083 C3084 1.355 . S
C3083 C3085 1.415 . S
C3084 C3083 1.355 . S
C3084 C3086 1.419 . S
C3085 C3080 1.425 . S
C3085 C3082 1.409 . S
C3085 C3083 1.415 . S
C3086 H3076 0.930 . S
C3086 C3084 1.419 . S
C3086 C3087 1.362 . S
C3087 H3077 0.930 . S
C3087 C3080 1.409 . S
C3087 C3086 1.362 . S
H3088 C3094 0.930 . S
H3089 C3097 0.930 . S
H3090 C3098 0.930 . S
H3091 C3099 0.930 . S
H3092 C3102 0.930 . S
H3093 C3103 0.930 . S
C3094 H3088 0.930 . S
C3094 C3095 1.355 . S
C3094 C3096 1.415 . S
C3095 C3094 1.355 . S
C3095 C3097 1.419 . S
C3096 C3094 1.415 . S
C3096 C3101 1.425 . S
C3096 C3103 1.409 . S
C3097 H3089 0.930 . S
C3097 C3095 1.419 . S
C3097 C3098 1.362 . S
C3098 H3090 0.930 . S
C3098 C3097 1.362 . S
C3098 C3101 1.409 . S
C3099 H3091 0.930 . S
C3099 C3100 1.355 . S
C3099 C3101 1.415 . S
C3100 C3099 1.355 . S
C3100 C3102 1.419 . S
C3101 C3096 1.425 . S
C3101 C3098 1.409 . S
C3101 C3099 1.415 . S
C3102 H3092 0.930 . S
C3102 C3100 1.419 . S
C3102 C3103 1.362 . S
C3103 H3093 0.930 . S
C3103 C3096 1.409 . S
C3103 C3102 1.362 . S
H3104 C3110 0.930 . S
H3105 C3113 0.930 . S
H3106 C3114 0.930 . S
H3107 C3115 0.930 . S
H3108 C3118 0.930 . S
H3109 C3119 0.930 . S
C3110 H3104 0.930 . S
C3110 C3111 1.355 . S
C3110 C3112 1.415 . S
C3111 C3110 1.355 . S
C3111 C3113 1.419 . S
C3112 C3110 1.415 . S
C3112 C3117 1.425 . S
C3112 C3119 1.409 . S
C3113 H3105 0.930 . S
C3113 C3111 1.419 . S
C3113 C3114 1.362 . S
C3114 H3106 0.930 . S
C3114 C3113 1.362 . S
C3114 C3117 1.409 . S
C3115 H3107 0.930 . S
C3115 C3116 1.355 . S
C3115 C3117 1.415 . S
C3116 C3115 1.355 . S
C3116 C3118 1.419 . S
C3117 C3112 1.425 . S
C3117 C3114 1.409 . S
C3117 C3115 1.415 . S
C3118 H3108 0.930 . S
C3118 C3116 1.419 . S
C3118 C3119 1.362 . S
C3119 H3109 0.930 . S
C3119 C3112 1.409 . S
C3119 C3118 1.362 . S
H3120 C3126 0.930 . S
H3121 C3129 0.930 . S
H3122 C3130 0.930 . S
H3123 C3131 0.930 . S
H3124 C3134 0.930 . S
H3125 C3135 0.930 . S
C3126 H3120 0.930 . S
C3126 C3127 1.355 . S
C3126 C3128 1.415 . S
C3127 C3126 1.355 . S
C3127 C3129 1.419 . S
C3128 C3126 1.415 . S
C3128 C3133 1.425 . S
C3128 C3135 1.409 . S
C3129 H3121 0.930 . S
C3129 C3127 1.419 . S
C3129 C3130 1.362 . S
C3130 H3122 0.930 . S
C3130 C3129 1.362 . S
C3130 C3133 1.409 . S
C3131 H3123 0.930 . S
C3131 C3132 1.355 . S
C3131 C3133 1.415 . S
C3132 C3131 1.355 . S
C3132 C3134 1.419 . S
C3133 C3128 1.425 . S
C3133 C3130 1.409 . S
C3133 C3131 1.415 . S
C3134 H3124 0.930 . S
C3134 C3132 1.419 . S
C3134 C3135 1.362 . S
C3135 H3125 0.930 . S
C3135 C3128 1.409 . S
C3135 C3134 1.362 . S
H3136 C3142 0.930 . S
H3137 C3145 0.930 . S
H3138 C3146 0.930 . S
H3139 C3147 0.930 . S
H3140 C3150 0.930 . S
H3141 C3151 0.930 . S
C3142 H3136 0.930 . S
C3142 C3143 1.355 . S
C3142 C3144 1.415 . S
C3143 C3142 1.355 . S
C3143 C3145 1.419 . S
C3144 C3142 1.415 . S
C3144 C3149 1.425 . S
C3144 C3151 1.409 . S
C3145 H3137 0.930 . S
C3145 C3143 1.419 . S
C3145 C3146 1.362 . S
C3146 H3138 0.930 . S
C3146 C3145 1.362 . S
C3146 C3149 1.409 . S
C3147 H3139 0.930 . S
C3147 C3148 1.355 . S
C3147 C3149 1.415 . S
C3148 C3147 1.355 . S
C3148 C3150 1.419 . S
C3149 C3144 1.425 . S
C3149 C3146 1.409 . S
C3149 C3147 1.415 . S
C3150 H3140 0.930 . S
C3150 C3148 1.419 . S
C3150 C3151 1.362 . S
C3151 H3141 0.930 . S
C3151 C3144 1.409 . S
C3151 C3150 1.362 . S
H3152 C3158 0.930 . S
H3153 C3161 0.930 . S
H3154 C3162 0.930 . S
H3155 C3163 0.930 . S
H3156 C3166 0.930 . S
H3157 C3167 0.930 . S
C3158 H3152 0.930 . S
C3158 C3159 1.355 . S
C3158 C3160 1.415 . S
C3159 C3158 1.355 . S
C3159 C3161 1.419 . S
C3160 C3158 1.415 . S
C3160 C3165 1.425 . S
C3160 C3167 1.409 . S
C3161 H3153 0.930 . S
C3161 C3159 1.419 . S
C3161 C3162 1.362 . S
C3162 H3154 0.930 . S
C3162 C3161 1.362 . S
C3162 C3165 1.409 . S
C3163 H3155 0.930 . S
C3163 C3164 1.355 . S
C3163 C3165 1.415 . S
C3164 C3163 1.355 . S
C3164 C3166 1.419 . S
C3165 C3160 1.425 . S
C3165 C3162 1.409 . S
C3165 C3163 1.415 . S
C3166 H3156 0.930 . S
C3166 C3164 1.419 . S
C3166 C3167 1.362 . S
C3167 H3157 0.930 . S
C3167 C3160 1.409 . S
C3167 C3166 1.362 . S
H3168 C3174 0.930 . S
H3169 C3177 0.930 . S
H3170 C3178 0.930 . S
H3171 C3179 0.930 . S
H3172 C3182 0.930 . S
H3173 C3183 0.930 . S
C3174 H3168 0.930 . S
C3174 C3175 1.355 . S
C3174 C3176 1.415 . S
C3175 C3174 1.355 . S
C3175 C3177 1.419 . S
C3176 C3174 1.415 . S
C3176 C3181 1.425 . S
C3176 C3183 1.409 . S
C3177 H3169 0.930 . S
C3177 C3175 1.419 . S
C3177 C3178 1.362 . S
C3178 H3170 0.930 . S
C3178 C3177 1.362 . S
C3178 C3181 1.409 . S
C3179 H3171 0.930 . S
C3179 C3180 1.355 . S
C3179 C3181 1.415 . S
C3180 C3179 1.355 . S
C3180 C3182 1.419 . S
C3181 C3176 1.425 . S
C3181 C3178 1.409 . S
C3181 C3179 1.415 . S
C3182 H3172 0.930 . S
C3182 C3180 1.419 . S
C3182 C3183 1.362 . S
C3183 H3173 0.930 . S
C3183 C3176 1.409 . S
C3183 C3182 1.362 . S
H3184 C3190 0.930 . S
H3185 C3193 0.930 . S
H3186 C3194 0.930 . S
H3187 C3195 0.930 . S
H3188 C3198 0.930 . S
H3189 C3199 0.930 . S
C3190 H3184 0.930 . S
C3190 C3191 1.355 . S
C3190 C3192 1.415 . S
C3191 C3190 1.355 . S
C3191 C3193 1.419 . S
C3192 C3190 1.415 . S
C3192 C3197 1.425 . S
C3192 C3199 1.409 . S
C3193 H3185 0.930 . S
C3193 C3191 1.419 . S
C3193 C3194 1.362 . S
C3194 H3186 0.930 . S
C3194 C3193 1.362 . S
C3194 C3197 1.409 . S
C3195 H3187 0.930 . S
C3195 C3196 1.355 . S
C3195 C3197 1.415 . S
C3196 C3195 1.355 . S
C3196 C3198 1.419 . S
C3197 C3192 1.425 . S
C3197 C3194 1.409 . S
C3197 C3195 1.415 . S
C3198 H3188 0.930 . S
C3198 C3196 1.419 . S
C3198 C3199 1.362 . S
C3199 H3189 0.930 . S
C3199 C3192 1.409 . S
C3199 C3198 1.362 . S
H3200 C3206 0.930 . S
H3201 C3209 0.930 . S
H3202 C3210 0.930 . S
H3203 C3211 0.930 . S
H3204 C3214 0.930 . S
H3205 C3215 0.930 . S
C3206 H3200 0.930 . S
C3206 C3207 1.355 . S
C3206 C3208 1.415 . S
C3207 C3206 1.355 . S
C3207 C3209 1.419 . S
C3208 C3206 1.415 . S
C3208 C3213 1.425 . S
C3208 C3215 1.409 . S
C3209 H3201 0.930 . S
C3209 C3207 1.419 . S
C3209 C3210 1.362 . S
C3210 H3202 0.930 . S
C3210 C3209 1.362 . S
C3210 C3213 1.409 . S
C3211 H3203 0.930 . S
C3211 C3212 1.355 . S
C3211 C3213 1.415 . S
C3212 C3211 1.355 . S
C3212 C3214 1.419 . S
C3213 C3208 1.425 . S
C3213 C3210 1.409 . S
C3213 C3211 1.415 . S
C3214 H3204 0.930 . S
C3214 C3212 1.419 . S
C3214 C3215 1.362 . S
C3215 H3205 0.930 . S
C3215 C3208 1.409 . S
C3215 C3214 1.362 . S
H3216 C3222 0.930 . S
H3217 C3225 0.930 . S
H3218 C3226 0.930 . S
H3219 C3227 0.930 . S
H3220 C3230 0.930 . S
H3221 C3231 0.930 . S
C3222 H3216 0.930 . S
C3222 C3223 1.355 . S
C3222 C3224 1.415 . S
C3223 C3222 1.355 . S
C3223 C3225 1.419 . S
C3224 C3222 1.415 . S
C3224 C3229 1.425 . S
C3224 C3231 1.409 . S
C3225 H3217 0.930 . S
C3225 C3223 1.419 . S
C3225 C3226 1.362 . S
C3226 H3218 0.930 . S
C3226 C3225 1.362 . S
C3226 C3229 1.409 . S
C3227 H3219 0.930 . S
C3227 C3228 1.355 . S
C3227 C3229 1.415 . S
C3228 C3227 1.355 . S
C3228 C3230 1.419 . S
C3229 C3224 1.425 . S
C3229 C3226 1.409 . S
C3229 C3227 1.415 . S
C3230 H3220 0.930 . S
C3230 C3228 1.419 . S
C3230 C3231 1.362 . S
C3231 H3221 0.930 . S
C3231 C3224 1.409 . S
C3231 C3230 1.362 . S
H3232 C3238 0.930 . S
H3233 C3241 0.930 . S
H3234 C3242 0.930 . S
H3235 C3243 0.930 . S
H3236 C3246 0.930 . S
H3237 C3247 0.930 . S
C3238 H3232 0.930 . S
C3238 C3239 1.355 . S
C3238 C3240 1.415 . S
C3239 C3238 1.355 . S
C3239 C3241 1.419 1_455 S
C3240 C3238 1.415 . S
C3240 C3245 1.425 1_455 S
C3240 C3247 1.409 . S
C3241 H3233 0.930 . S
C3241 C3239 1.419 1_655 S
C3241 C3242 1.362 . S
C3242 H3234 0.930 . S
C3242 C3241 1.362 . S
C3242 C3245 1.409 . S
C3243 H3235 0.930 . S
C3243 C3244 1.355 1_655 S
C3243 C3245 1.415 . S
C3244 C3243 1.355 1_455 S
C3244 C3246 1.419 1_556 S
C3245 C3240 1.425 1_655 S
C3245 C3242 1.409 . S
C3245 C3243 1.415 . S
C3246 H3236 0.930 . S
C3246 C3244 1.419 1_554 S
C3246 C3247 1.362 1_554 S
C3247 H3237 0.930 . S
C3247 C3240 1.409 . S
C3247 C3246 1.362 1_556 S
H3248 C3254 0.930 . S
H3249 C3257 0.930 . S
H3250 C3258 0.930 . S
H3251 C3259 0.930 . S
H3252 C3262 0.930 . S
H3253 C3263 0.930 . S
C3254 H3248 0.930 . S
C3254 C3255 1.355 . S
C3254 C3256 1.415 . S
C3255 C3254 1.355 . S
C3255 C3257 1.419 . S
C3256 C3254 1.415 . S
C3256 C3261 1.425 . S
C3256 C3263 1.409 . S
C3257 H3249 0.930 . S
C3257 C3255 1.419 . S
C3257 C3258 1.362 . S
C3258 H3250 0.930 . S
C3258 C3257 1.362 . S
C3258 C3261 1.409 . S
C3259 H3251 0.930 . S
C3259 C3260 1.355 . S
C3259 C3261 1.415 . S
C3260 C3259 1.355 . S
C3260 C3262 1.419 . S
C3261 C3256 1.425 . S
C3261 C3258 1.409 . S
C3261 C3259 1.415 . S
C3262 H3252 0.930 . S
C3262 C3260 1.419 . S
C3262 C3263 1.362 . S
C3263 H3253 0.930 . S
C3263 C3256 1.409 . S
C3263 C3262 1.362 . S
H3264 C3270 0.930 . S
H3265 C3273 0.930 . S
H3266 C3274 0.930 . S
H3267 C3275 0.930 . S
H3268 C3278 0.930 . S
H3269 C3279 0.930 . S
C3270 H3264 0.930 . S
C3270 C3271 1.355 . S
C3270 C3272 1.415 . S
C3271 C3270 1.355 . S
C3271 C3273 1.419 . S
C3272 C3270 1.415 . S
C3272 C3277 1.425 . S
C3272 C3279 1.409 . S
C3273 H3265 0.930 . S
C3273 C3271 1.419 . S
C3273 C3274 1.362 . S
C3274 H3266 0.930 . S
C3274 C3273 1.362 . S
C3274 C3277 1.409 . S
C3275 H3267 0.930 . S
C3275 C3276 1.355 . S
C3275 C3277 1.415 . S
C3276 C3275 1.355 . S
C3276 C3278 1.419 . S
C3277 C3272 1.425 . S
C3277 C3274 1.409 . S
C3277 C3275 1.415 . S
C3278 H3268 0.930 . S
C3278 C3276 1.419 . S
C3278 C3279 1.362 . S
C3279 H3269 0.930 . S
C3279 C3272 1.409 . S
C3279 C3278 1.362 . S
H3280 C3286 0.930 . S
H3281 C3289 0.930 . S
H3282 C3290 0.930 . S
H3283 C3291 0.930 . S
H3284 C3294 0.930 . S
H3285 C3295 0.930 . S
C3286 H3280 0.930 . S
C3286 C3287 1.355 . S
C3286 C3288 1.415 . S
C3287 C3286 1.355 . S
C3287 C3289 1.419 . S
C3288 C3286 1.415 . S
C3288 C3293 1.425 . S
C3288 C3295 1.409 . S
C3289 H3281 0.930 . S
C3289 C3287 1.419 . S
C3289 C3290 1.362 . S
C3290 H3282 0.930 . S
C3290 C3289 1.362 . S
C3290 C3293 1.409 . S
C3291 H3283 0.930 . S
C3291 C3292 1.355 . S
C3291 C3293 1.415 . S
C3292 C3291 1.355 . S
C3292 C3294 1.419 . S
C3293 C3288 1.425 . S
C3293 C3290 1.409 . S
C3293 C3291 1.415 . S
C3294 H3284 0.930 . S
C3294 C3292 1.419 . S
C3294 C3295 1.362 . S
C3295 H3285 0.930 . S
C3295 C3288 1.409 . S
C3295 C3294 1.362 . S
H3296 C3302 0.930 . S
H3297 C3305 0.930 . S
H3298 C3306 0.930 . S
H3299 C3307 0.930 . S
H3300 C3310 0.930 . S
H3301 C3311 0.930 . S
C3302 H3296 0.930 . S
C3302 C3303 1.355 . S
C3302 C3304 1.415 . S
C3303 C3302 1.355 . S
C3303 C3305 1.419 1_655 S
C3304 C3302 1.415 . S
C3304 C3309 1.425 1_655 S
C3304 C3311 1.409 . S
C3305 H3297 0.930 . S
C3305 C3303 1.419 1_455 S
C3305 C3306 1.362 . S
C3306 H3298 0.930 . S
C3306 C3305 1.362 . S
C3306 C3309 1.409 . S
C3307 H3299 0.930 . S
C3307 C3308 1.355 . S
C3307 C3309 1.415 . S
C3308 C3307 1.355 . S
C3308 C3310 1.419 1_455 S
C3309 C3304 1.425 1_455 S
C3309 C3306 1.409 . S
C3309 C3307 1.415 . S
C3310 H3300 0.930 . S
C3310 C3308 1.419 1_655 S
C3310 C3311 1.362 . S
C3311 H3301 0.930 . S
C3311 C3304 1.409 . S
C3311 C3310 1.362 . S
H3312 C3318 0.930 . S
H3313 C3321 0.930 . S
H3314 C3322 0.930 . S
H3315 C3323 0.930 . S
H3316 C3326 0.930 . S
H3317 C3327 0.930 . S
C3318 H3312 0.930 . S
C3318 C3319 1.355 . S
C3318 C3320 1.415 . S
C3319 C3318 1.355 . S
C3319 C3321 1.419 . S
C3320 C3318 1.415 . S
C3320 C3325 1.425 . S
C3320 C3327 1.409 . S
C3321 H3313 0.930 . S
C3321 C3319 1.419 . S
C3321 C3322 1.362 . S
C3322 H3314 0.930 . S
C3322 C3321 1.362 . S
C3322 C3325 1.409 . S
C3323 H3315 0.930 . S
C3323 C3324 1.355 . S
C3323 C3325 1.415 . S
C3324 C3323 1.355 . S
C3324 C3326 1.419 . S
C3325 C3320 1.425 . S
C3325 C3322 1.409 . S
C3325 C3323 1.415 . S
C3326 H3316 0.930 . S
C3326 C3324 1.419 . S
C3326 C3327 1.362 . S
C3327 H3317 0.930 . S
C3327 C3320 1.409 . S
C3327 C3326 1.362 . S
H3328 C3334 0.930 . S
H3329 C3337 0.930 . S
H3330 C3338 0.930 . S
H3331 C3339 0.930 . S
H3332 C3342 0.930 . S
H3333 C3343 0.930 . S
C3334 H3328 0.930 . S
C3334 C3335 1.355 . S
C3334 C3336 1.415 . S
C3335 C3334 1.355 . S
C3335 C3337 1.419 . S
C3336 C3334 1.415 . S
C3336 C3341 1.425 . S
C3336 C3343 1.409 . S
C3337 H3329 0.930 . S
C3337 C3335 1.419 . S
C3337 C3338 1.362 . S
C3338 H3330 0.930 . S
C3338 C3337 1.362 . S
C3338 C3341 1.409 . S
C3339 H3331 0.930 . S
C3339 C3340 1.355 . S
C3339 C3341 1.415 . S
C3340 C3339 1.355 . S
C3340 C3342 1.419 . S
C3341 C3336 1.425 . S
C3341 C3338 1.409 . S
C3341 C3339 1.415 . S
C3342 H3332 0.930 . S
C3342 C3340 1.419 . S
C3342 C3343 1.362 . S
C3343 H3333 0.930 . S
C3343 C3336 1.409 . S
C3343 C3342 1.362 . S
H3344 C3350 0.930 . S
H3345 C3353 0.930 . S
H3346 C3354 0.930 . S
H3347 C3355 0.930 . S
H3348 C3358 0.930 . S
H3349 C3359 0.930 . S
C3350 H3344 0.930 . S
C3350 C3351 1.355 . S
C3350 C3352 1.415 . S
C3351 C3350 1.355 . S
C3351 C3353 1.419 . S
C3352 C3350 1.415 . S
C3352 C3357 1.425 . S
C3352 C3359 1.409 . S
C3353 H3345 0.930 . S
C3353 C3351 1.419 . S
C3353 C3354 1.362 . S
C3354 H3346 0.930 . S
C3354 C3353 1.362 . S
C3354 C3357 1.409 . S
C3355 H3347 0.930 . S
C3355 C3356 1.355 . S
C3355 C3357 1.415 . S
C3356 C3355 1.355 . S
C3356 C3358 1.419 . S
C3357 C3352 1.425 . S
C3357 C3354 1.409 . S
C3357 C3355 1.415 . S
C3358 H3348 0.930 . S
C3358 C3356 1.419 . S
C3358 C3359 1.362 . S
C3359 H3349 0.930 . S
C3359 C3352 1.409 . S
C3359 C3358 1.362 . S
H3360 C3366 0.930 . S
H3361 C3369 0.930 . S
H3362 C3370 0.930 . S
H3363 C3371 0.930 . S
H3364 C3374 0.930 . S
H3365 C3375 0.930 . S
C3366 H3360 0.930 . S
C3366 C3367 1.355 . S
C3366 C3368 1.415 . S
C3367 C3366 1.355 . S
C3367 C3369 1.419 . S
C3368 C3366 1.415 . S
C3368 C3373 1.425 . S
C3368 C3375 1.409 . S
C3369 H3361 0.930 . S
C3369 C3367 1.419 . S
C3369 C3370 1.362 . S
C3370 H3362 0.930 . S
C3370 C3369 1.362 . S
C3370 C3373 1.409 . S
C3371 H3363 0.930 . S
C3371 C3372 1.355 . S
C3371 C3373 1.415 . S
C3372 C3371 1.355 . S
C3372 C3374 1.419 . S
C3373 C3368 1.425 . S
C3373 C3370 1.409 . S
C3373 C3371 1.415 . S
C3374 H3364 0.930 . S
C3374 C3372 1.419 . S
C3374 C3375 1.362 . S
C3375 H3365 0.930 . S
C3375 C3368 1.409 . S
C3375 C3374 1.362 . S
H3376 C3382 0.930 . S
H3377 C3385 0.930 . S
H3378 C3386 0.930 . S
H3379 C3387 0.930 . S
H3380 C3390 0.930 . S
H3381 C3391 0.930 . S
C3382 H3376 0.930 . S
C3382 C3383 1.355 . S
C3382 C3384 1.415 . S
C3383 C3382 1.355 . S
C3383 C3385 1.419 . S
C3384 C3382 1.415 . S
C3384 C3389 1.425 . S
C3384 C3391 1.409 . S
C3385 H3377 0.930 . S
C3385 C3383 1.419 . S
C3385 C3386 1.362 . S
C3386 H3378 0.930 . S
C3386 C3385 1.362 . S
C3386 C3389 1.409 . S
C3387 H3379 0.930 . S
C3387 C3388 1.355 . S
C3387 C3389 1.415 . S
C3388 C3387 1.355 . S
C3388 C3390 1.419 . S
C3389 C3384 1.425 . S
C3389 C3386 1.409 . S
C3389 C3387 1.415 . S
C3390 H3380 0.930 . S
C3390 C3388 1.419 . S
C3390 C3391 1.362 . S
C3391 H3381 0.930 . S
C3391 C3384 1.409 . S
C3391 C3390 1.362 . S
H3392 C3398 0.930 . S
H3393 C3401 0.930 . S
H3394 C3402 0.930 . S
H3395 C3403 0.930 . S
H3396 C3406 0.930 . S
H3397 C3407 0.930 . S
C3398 H3392 0.930 . S
C3398 C3399 1.355 . S
C3398 C3400 1.415 . S
C3399 C3398 1.355 . S
C3399 C3401 1.419 . S
C3400 C3398 1.415 . S
C3400 C3405 1.425 . S
C3400 C3407 1.409 . S
C3401 H3393 0.930 . S
C3401 C3399 1.419 . S
C3401 C3402 1.362 . S
C3402 H3394 0.930 . S
C3402 C3401 1.362 . S
C3402 C3405 1.409 . S
C3403 H3395 0.930 . S
C3403 C3404 1.355 . S
C3403 C3405 1.415 . S
C3404 C3403 1.355 . S
C3404 C3406 1.419 . S
C3405 C3400 1.425 . S
C3405 C3402 1.409 . S
C3405 C3403 1.415 . S
C3406 H3396 0.930 . S
C3406 C3404 1.419 . S
C3406 C3407 1.362 . S
C3407 H3397 0.930 . S
C3407 C3400 1.409 . S
C3407 C3406 1.362 . S
H3408 C3414 0.930 . S
H3409 C3417 0.930 . S
H3410 C3418 0.930 . S
H3411 C3419 0.930 . S
H3412 C3422 0.930 . S
H3413 C3423 0.930 . S
C3414 H3408 0.930 . S
C3414 C3415 1.355 . S
C3414 C3416 1.415 . S
C3415 C3414 1.355 . S
C3415 C3417 1.419 . S
C3416 C3414 1.415 . S
C3416 C3421 1.425 . S
C3416 C3423 1.409 . S
C3417 H3409 0.930 . S
C3417 C3415 1.419 . S
C3417 C3418 1.362 . S
C3418 H3410 0.930 . S
C3418 C3417 1.362 . S
C3418 C3421 1.409 . S
C3419 H3411 0.930 . S
C3419 C3420 1.355 . S
C3419 C3421 1.415 . S
C3420 C3419 1.355 . S
C3420 C3422 1.419 . S
C3421 C3416 1.425 . S
C3421 C3418 1.409 . S
C3421 C3419 1.415 . S
C3422 H3412 0.930 . S
C3422 C3420 1.419 . S
C3422 C3423 1.362 . S
C3423 H3413 0.930 . S
C3423 C3416 1.409 . S
C3423 C3422 1.362 . S
H3424 C3430 0.930 . S
H3425 C3433 0.930 . S
H3426 C3434 0.930 . S
H3427 C3435 0.930 . S
H3428 C3438 0.930 . S
H3429 C3439 0.930 . S
C3430 H3424 0.930 . S
C3430 C3431 1.355 . S
C3430 C3432 1.415 . S
C3431 C3430 1.355 . S
C3431 C3433 1.419 . S
C3432 C3430 1.415 . S
C3432 C3437 1.425 . S
C3432 C3439 1.409 . S
C3433 H3425 0.930 . S
C3433 C3431 1.419 . S
C3433 C3434 1.362 . S
C3434 H3426 0.930 . S
C3434 C3433 1.362 . S
C3434 C3437 1.409 . S
C3435 H3427 0.930 . S
C3435 C3436 1.355 . S
C3435 C3437 1.415 . S
C3436 C3435 1.355 . S
C3436 C3438 1.419 . S
C3437 C3432 1.425 . S
C3437 C3434 1.409 . S
C3437 C3435 1.415 . S
C3438 H3428 0.930 . S
C3438 C3436 1.419 . S
C3438 C3439 1.362 . S
C3439 H3429 0.930 . S
C3439 C3432 1.409 . S
C3439 C3438 1.362 . S
H3440 C3446 0.930 . S
H3441 C3449 0.930 . S
H3442 C3450 0.930 . S
H3443 C3451 0.930 . S
H3444 C3454 0.930 . S
H3445 C3455 0.930 . S
C3446 H3440 0.930 . S
C3446 C3447 1.355 . S
C3446 C3448 1.415 . S
C3447 C3446 1.355 . S
C3447 C3449 1.419 . S
C3448 C3446 1.415 . S
C3448 C3453 1.425 . S
C3448 C3455 1.409 . S
C3449 H3441 0.930 . S
C3449 C3447 1.419 . S
C3449 C3450 1.362 . S
C3450 H3442 0.930 . S
C3450 C3449 1.362 . S
C3450 C3453 1.409 . S
C3451 H3443 0.930 . S
C3451 C3452 1.355 . S
C3451 C3453 1.415 . S
C3452 C3451 1.355 . S
C3452 C3454 1.419 . S
C3453 C3448 1.425 . S
C3453 C3450 1.409 . S
C3453 C3451 1.415 . S
C3454 H3444 0.930 . S
C3454 C3452 1.419 . S
C3454 C3455 1.362 . S
C3455 H3445 0.930 . S
C3455 C3448 1.409 . S
C3455 C3454 1.362 . S
H3456 C3462 0.930 . S
H3457 C3465 0.930 . S
H3458 C3466 0.930 . S
H3459 C3467 0.930 . S
H3460 C3470 0.930 . S
H3461 C3471 0.930 . S
C3462 H3456 0.930 . S
C3462 C3463 1.355 . S
C3462 C3464 1.415 . S
C3463 C3462 1.355 . S
C3463 C3465 1.419 . S
C3464 C3462 1.415 . S
C3464 C3469 1.425 . S
C3464 C3471 1.409 . S
C3465 H3457 0.930 . S
C3465 C3463 1.419 . S
C3465 C3466 1.362 . S
C3466 H3458 0.930 . S
C3466 C3465 1.362 . S
C3466 C3469 1.409 . S
C3467 H3459 0.930 . S
C3467 C3468 1.355 . S
C3467 C3469 1.415 . S
C3468 C3467 1.355 . S
C3468 C3470 1.419 . S
C3469 C3464 1.425 . S
C3469 C3466 1.409 . S
C3469 C3467 1.415 . S
C3470 H3460 0.930 . S
C3470 C3468 1.419 . S
C3470 C3471 1.362 . S
C3471 H3461 0.930 . S
C3471 C3464 1.409 . S
C3471 C3470 1.362 . S
H3472 C3478 0.930 . S
H3473 C3481 0.930 . S
H3474 C3482 0.930 . S
H3475 C3483 0.930 . S
H3476 C3486 0.930 . S
H3477 C3487 0.930 . S
C3478 H3472 0.930 . S
C3478 C3479 1.355 . S
C3478 C3480 1.415 . S
C3479 C3478 1.355 . S
C3479 C3481 1.419 . S
C3480 C3478 1.415 . S
C3480 C3485 1.425 . S
C3480 C3487 1.409 . S
C3481 H3473 0.930 . S
C3481 C3479 1.419 . S
C3481 C3482 1.362 . S
C3482 H3474 0.930 . S
C3482 C3481 1.362 . S
C3482 C3485 1.409 . S
C3483 H3475 0.930 . S
C3483 C3484 1.355 . S
C3483 C3485 1.415 . S
C3484 C3483 1.355 . S
C3484 C3486 1.419 . S
C3485 C3480 1.425 . S
C3485 C3482 1.409 . S
C3485 C3483 1.415 . S
C3486 H3476 0.930 . S
C3486 C3484 1.419 . S
C3486 C3487 1.362 . S
C3487 H3477 0.930 . S
C3487 C3480 1.409 . S
C3487 C3486 1.362 . S
H3488 C3494 0.930 . S
H3489 C3497 0.930 . S
H3490 C3498 0.930 . S
H3491 C3499 0.930 . S
H3492 C3502 0.930 . S
H3493 C3503 0.930 . S
C3494 H3488 0.930 . S
C3494 C3495 1.355 . S
C3494 C3496 1.415 . S
C3495 C3494 1.355 . S
C3495 C3497 1.419 . S
C3496 C3494 1.415 . S
C3496 C3501 1.425 . S
C3496 C3503 1.409 . S
C3497 H3489 0.930 . S
C3497 C3495 1.419 . S
C3497 C3498 1.362 . S
C3498 H3490 0.930 . S
C3498 C3497 1.362 . S
C3498 C3501 1.409 . S
C3499 H3491 0.930 . S
C3499 C3500 1.355 . S
C3499 C3501 1.415 . S
C3500 C3499 1.355 . S
C3500 C3502 1.419 . S
C3501 C3496 1.425 . S
C3501 C3498 1.409 . S
C3501 C3499 1.415 . S
C3502 H3492 0.930 . S
C3502 C3500 1.419 . S
C3502 C3503 1.362 . S
C3503 H3493 0.930 . S
C3503 C3496 1.409 . S
C3503 C3502 1.362 . S
H3504 C3510 0.930 . S
H3505 C3513 0.930 . S
H3506 C3514 0.930 . S
H3507 C3515 0.930 . S
H3508 C3518 0.930 . S
H3509 C3519 0.930 1_545 S
C3510 H3504 0.930 . S
C3510 C3511 1.355 . S
C3510 C3512 1.415 . S
C3511 C3510 1.355 . S
C3511 C3513 1.419 . S
C3512 C3510 1.415 . S
C3512 C3517 1.425 . S
C3512 C3519 1.409 . S
C3513 H3505 0.930 . S
C3513 C3511 1.419 . S
C3513 C3514 1.362 . S
C3514 H3506 0.930 . S
C3514 C3513 1.362 . S
C3514 C3517 1.409 . S
C3515 H3507 0.930 . S
C3515 C3516 1.355 . S
C3515 C3517 1.415 . S
C3516 C3515 1.355 . S
C3516 C3518 1.419 1_565 S
C3517 C3512 1.425 . S
C3517 C3514 1.409 . S
C3517 C3515 1.415 . S
C3518 H3508 0.930 . S
C3518 C3516 1.419 1_545 S
C3518 C3519 1.362 1_545 S
C3519 H3509 0.930 1_565 S
C3519 C3512 1.409 . S
C3519 C3518 1.362 1_565 S
H3520 C3526 0.930 . S
H3521 C3529 0.930 . S
H3522 C3530 0.930 . S
H3523 C3531 0.930 . S
H3524 C3534 0.930 . S
H3525 C3535 0.930 . S
C3526 H3520 0.930 . S
C3526 C3527 1.355 . S
C3526 C3528 1.415 . S
C3527 C3526 1.355 . S
C3527 C3529 1.419 . S
C3528 C3526 1.415 . S
C3528 C3533 1.425 . S
C3528 C3535 1.409 . S
C3529 H3521 0.930 . S
C3529 C3527 1.419 . S
C3529 C3530 1.362 . S
C3530 H3522 0.930 . S
C3530 C3529 1.362 . S
C3530 C3533 1.409 . S
C3531 H3523 0.930 . S
C3531 C3532 1.355 . S
C3531 C3533 1.415 . S
C3532 C3531 1.355 . S
C3532 C3534 1.419 . S
C3533 C3528 1.425 . S
C3533 C3530 1.409 . S
C3533 C3531 1.415 . S
C3534 H3524 0.930 . S
C3534 C3532 1.419 . S
C3534 C3535 1.362 . S
C3535 H3525 0.930 . S
C3535 C3528 1.409 . S
C3535 C3534 1.362 . S
H3536 C3542 0.928 1_556 S
H3537 C3545 0.930 . S
H3538 C3546 0.930 . S
H3539 C3547 0.930 . S
H3540 C3550 0.930 . S
H3541 C3551 0.930 . S
C3542 H3536 0.928 1_554 S
C3542 C3543 1.355 . S
C3542 C3544 1.415 . S
C3543 C3542 1.355 . S
C3543 C3545 1.419 . S
C3544 C3542 1.415 . S
C3544 C3549 1.425 . S
C3544 C3551 1.409 . S
C3545 H3537 0.930 . S
C3545 C3543 1.419 . S
C3545 C3546 1.362 . S
C3546 H3538 0.930 . S
C3546 C3545 1.362 . S
C3546 C3549 1.409 . S
C3547 H3539 0.930 . S
C3547 C3548 1.355 . S
C3547 C3549 1.415 . S
C3548 C3547 1.355 . S
C3548 C3550 1.419 . S
C3549 C3544 1.425 . S
C3549 C3546 1.409 . S
C3549 C3547 1.415 . S
C3550 H3540 0.930 . S
C3550 C3548 1.419 . S
C3550 C3551 1.362 . S
C3551 H3541 0.930 . S
C3551 C3544 1.409 . S
C3551 C3550 1.362 . S
H3552 C3558 0.930 . S
H3553 C3561 0.930 . S
H3554 C3562 0.930 . S
H3555 C3563 0.930 . S
H3556 C3566 0.930 . S
H3557 C3567 0.930 . S
C3558 H3552 0.930 . S
C3558 C3559 1.355 . S
C3558 C3560 1.415 . S
C3559 C3558 1.355 . S
C3559 C3561 1.419 . S
C3560 C3558 1.415 . S
C3560 C3565 1.425 . S
C3560 C3567 1.409 . S
C3561 H3553 0.930 . S
C3561 C3559 1.419 . S
C3561 C3562 1.362 . S
C3562 H3554 0.930 . S
C3562 C3561 1.362 . S
C3562 C3565 1.409 . S
C3563 H3555 0.930 . S
C3563 C3564 1.355 . S
C3563 C3565 1.415 . S
C3564 C3563 1.355 . S
C3564 C3566 1.419 . S
C3565 C3560 1.425 . S
C3565 C3562 1.409 . S
C3565 C3563 1.415 . S
C3566 H3556 0.930 . S
C3566 C3564 1.419 . S
C3566 C3567 1.362 . S
C3567 H3557 0.930 . S
C3567 C3560 1.409 . S
C3567 C3566 1.362 . S
H3568 C3574 0.930 . S
H3569 C3577 0.930 . S
H3570 C3578 0.930 . S
H3571 C3579 0.930 . S
H3572 C3582 0.930 . S
H3573 C3583 0.930 . S
C3574 H3568 0.930 . S
C3574 C3575 1.355 . S
C3574 C3576 1.415 . S
C3575 C3574 1.355 . S
C3575 C3577 1.419 . S
C3576 C3574 1.415 . S
C3576 C3581 1.425 . S
C3576 C3583 1.409 . S
C3577 H3569 0.930 . S
C3577 C3575 1.419 . S
C3577 C3578 1.362 . S
C3578 H3570 0.930 . S
C3578 C3577 1.362 . S
C3578 C3581 1.409 . S
C3579 H3571 0.930 . S
C3579 C3580 1.355 . S
C3579 C3581 1.415 . S
C3580 C3579 1.355 . S
C3580 C3582 1.419 . S
C3581 C3576 1.425 . S
C3581 C3578 1.409 . S
C3581 C3579 1.415 . S
C3582 H3572 0.930 . S
C3582 C3580 1.419 . S
C3582 C3583 1.362 . S
C3583 H3573 0.930 . S
C3583 C3576 1.409 . S
C3583 C3582 1.362 . S
H3584 C3590 0.930 . S
H3585 C3593 0.930 . S
H3586 C3594 0.930 . S
H3587 C3595 0.930 . S
H3588 C3598 0.930 . S
H3589 C3599 0.930 . S
C3590 H3584 0.930 . S
C3590 C3591 1.355 . S
C3590 C3592 1.415 . S
C3591 C3590 1.355 . S
C3591 C3593 1.419 . S
C3592 C3590 1.415 . S
C3592 C3597 1.425 . S
C3592 C3599 1.409 . S
C3593 H3585 0.930 . S
C3593 C3591 1.419 . S
C3593 C3594 1.362 . S
C3594 H3586 0.930 . S
C3594 C3593 1.362 . S
C3594 C3597 1.409 . S
C3595 H3587 0.930 . S
C3595 C3596 1.355 . S
C3595 C3597 1.415 . S
C3596 C3595 1.355 . S
C3596 C3598 1.419 . S
C3597 C3592 1.425 . S
C3597 C3594 1.409 . S
C3597 C3595 1.415 . S
C3598 H3588 0.930 . S
C3598 C3596 1.419 . S
C3598 C3599 1.362 . S
C3599 H3589 0.930 . S
C3599 C3592 1.409 . S
C3599 C3598 1.362 . S
H3600 C3606 0.930 . S
H3601 C3609 0.930 . S
H3602 C3610 0.930 . S
H3603 C3611 0.930 . S
H3604 C3614 0.930 . S
H3605 C3615 0.930 . S
C3606 H3600 0.930 . S
C3606 C3607 1.355 . S
C3606 C3608 1.415 . S
C3607 C3606 1.355 . S
C3607 C3609 1.419 . S
C3608 C3606 1.415 . S
C3608 C3613 1.425 . S
C3608 C3615 1.409 . S
C3609 H3601 0.930 . S
C3609 C3607 1.419 . S
C3609 C3610 1.362 . S
C3610 H3602 0.930 . S
C3610 C3609 1.362 . S
C3610 C3613 1.409 . S
C3611 H3603 0.930 . S
C3611 C3612 1.355 . S
C3611 C3613 1.415 . S
C3612 C3611 1.355 . S
C3612 C3614 1.419 . S
C3613 C3608 1.425 . S
C3613 C3610 1.409 . S
C3613 C3611 1.415 . S
C3614 H3604 0.930 . S
C3614 C3612 1.419 . S
C3614 C3615 1.362 . S
C3615 H3605 0.930 . S
C3615 C3608 1.409 . S
C3615 C3614 1.362 . S
H3616 C3622 0.930 . S
H3617 C3625 0.930 . S
H3618 C3626 0.930 . S
H3619 C3627 0.930 . S
H3620 C3630 0.930 . S
H3621 C3631 0.930 . S
C3622 H3616 0.930 . S
C3622 C3623 1.355 . S
C3622 C3624 1.415 . S
C3623 C3622 1.355 . S
C3623 C3625 1.419 . S
C3624 C3622 1.415 . S
C3624 C3629 1.425 . S
C3624 C3631 1.409 . S
C3625 H3617 0.930 . S
C3625 C3623 1.419 . S
C3625 C3626 1.362 . S
C3626 H3618 0.930 . S
C3626 C3625 1.362 . S
C3626 C3629 1.409 . S
C3627 H3619 0.930 . S
C3627 C3628 1.355 . S
C3627 C3629 1.415 . S
C3628 C3627 1.355 . S
C3628 C3630 1.419 . S
C3629 C3624 1.425 . S
C3629 C3626 1.409 . S
C3629 C3627 1.415 . S
C3630 H3620 0.930 . S
C3630 C3628 1.419 . S
C3630 C3631 1.362 . S
C3631 H3621 0.930 . S
C3631 C3624 1.409 . S
C3631 C3630 1.362 . S
H3632 C3638 0.930 . S
H3633 C3641 0.930 . S
H3634 C3642 0.930 . S
H3635 C3643 0.930 . S
H3636 C3646 0.930 . S
H3637 C3647 0.930 . S
C3638 H3632 0.930 . S
C3638 C3639 1.355 . S
C3638 C3640 1.415 . S
C3639 C3638 1.355 . S
C3639 C3641 1.419 . S
C3640 C3638 1.415 . S
C3640 C3645 1.425 . S
C3640 C3647 1.409 . S
C3641 H3633 0.930 . S
C3641 C3639 1.419 . S
C3641 C3642 1.362 . S
C3642 H3634 0.930 . S
C3642 C3641 1.362 . S
C3642 C3645 1.409 . S
C3643 H3635 0.930 . S
C3643 C3644 1.355 . S
C3643 C3645 1.415 . S
C3644 C3643 1.355 . S
C3644 C3646 1.419 . S
C3645 C3640 1.425 . S
C3645 C3642 1.409 . S
C3645 C3643 1.415 . S
C3646 H3636 0.930 . S
C3646 C3644 1.419 . S
C3646 C3647 1.362 . S
C3647 H3637 0.930 . S
C3647 C3640 1.409 . S
C3647 C3646 1.362 . S
H3648 C3654 0.930 . S
H3649 C3657 0.930 . S
H3650 C3658 0.930 . S
H3651 C3659 0.930 . S
H3652 C3662 0.930 . S
H3653 C3663 0.930 1_554 S
C3654 H3648 0.930 . S
C3654 C3655 1.355 . S
C3654 C3656 1.415 . S
C3655 C3654 1.355 . S
C3655 C3657 1.419 . S
C3656 C3654 1.415 . S
C3656 C3661 1.425 . S
C3656 C3663 1.409 . S
C3657 H3649 0.930 . S
C3657 C3655 1.419 . S
C3657 C3658 1.362 . S
C3658 H3650 0.930 . S
C3658 C3657 1.362 . S
C3658 C3661 1.409 . S
C3659 H3651 0.930 . S
C3659 C3660 1.355 . S
C3659 C3661 1.415 . S
C3660 C3659 1.355 . S
C3660 C3662 1.419 1_556 S
C3661 C3656 1.425 . S
C3661 C3658 1.409 . S
C3661 C3659 1.415 . S
C3662 H3652 0.930 . S
C3662 C3660 1.419 1_554 S
C3662 C3663 1.362 1_554 S
C3663 H3653 0.930 1_556 S
C3663 C3656 1.409 . S
C3663 C3662 1.362 1_556 S
H3664 C3670 0.930 . S
H3665 C3673 0.930 . S
H3666 C3674 0.930 . S
H3667 C3675 0.930 . S
H3668 C3678 0.930 . S
H3669 C3679 0.930 . S
C3670 H3664 0.930 . S
C3670 C3671 1.355 . S
C3670 C3672 1.415 . S
C3671 C3670 1.355 . S
C3671 C3673 1.419 . S
C3672 C3670 1.415 . S
C3672 C3677 1.425 . S
C3672 C3679 1.409 . S
C3673 H3665 0.930 . S
C3673 C3671 1.419 . S
C3673 C3674 1.362 . S
C3674 H3666 0.930 . S
C3674 C3673 1.362 . S
C3674 C3677 1.409 . S
C3675 H3667 0.930 . S
C3675 C3676 1.355 . S
C3675 C3677 1.415 . S
C3676 C3675 1.355 . S
C3676 C3678 1.419 . S
C3677 C3672 1.425 . S
C3677 C3674 1.409 . S
C3677 C3675 1.415 . S
C3678 H3668 0.930 . S
C3678 C3676 1.419 . S
C3678 C3679 1.362 . S
C3679 H3669 0.930 . S
C3679 C3672 1.409 . S
C3679 C3678 1.362 . S
H3680 C3686 0.930 . S
H3681 C3689 0.952 . S
H3682 C3690 0.930 1_655 S
H3683 C3691 0.930 1_655 S
H3684 C3694 0.930 . S
H3685 C3695 0.930 . S
C3686 H3680 0.930 . S
C3686 C3687 1.355 . S
C3686 C3688 1.415 . S
C3687 C3686 1.355 . S
C3687 C3689 1.419 . S
C3688 C3686 1.415 . S
C3688 C3693 1.425 . S
C3688 C3695 1.409 . S
C3689 H3681 0.952 . S
C3689 C3687 1.419 . S
C3689 C3690 1.362 . S
C3690 H3682 0.930 1_455 S
C3690 C3689 1.362 . S
C3690 C3693 1.409 . S
C3691 H3683 0.930 1_455 S
C3691 C3692 1.355 . S
C3691 C3693 1.415 . S
C3692 C3691 1.355 . S
C3692 C3694 1.419 . S
C3693 C3688 1.425 . S
C3693 C3690 1.409 . S
C3693 C3691 1.415 . S
C3694 H3684 0.930 . S
C3694 C3692 1.419 . S
C3694 C3695 1.362 . S
C3695 H3685 0.930 . S
C3695 C3688 1.409 . S
C3695 C3694 1.362 . S
H3696 C3702 0.930 . S
H3697 C3705 0.930 . S
H3698 C3706 0.930 . S
H3699 C3707 0.930 . S
H3700 C3710 0.930 . S
H3701 C3711 0.930 . S
C3702 H3696 0.930 . S
C3702 C3703 1.355 . S
C3702 C3704 1.415 . S
C3703 C3702 1.355 . S
C3703 C3705 1.419 . S
C3704 C3702 1.415 . S
C3704 C3709 1.425 . S
C3704 C3711 1.409 . S
C3705 H3697 0.930 . S
C3705 C3703 1.419 . S
C3705 C3706 1.362 . S
C3706 H3698 0.930 . S
C3706 C3705 1.362 . S
C3706 C3709 1.409 . S
C3707 H3699 0.930 . S
C3707 C3708 1.355 . S
C3707 C3709 1.415 . S
C3708 C3707 1.355 . S
C3708 C3710 1.419 . S
C3709 C3704 1.425 . S
C3709 C3706 1.409 . S
C3709 C3707 1.415 . S
C3710 H3700 0.930 . S
C3710 C3708 1.419 . S
C3710 C3711 1.362 . S
C3711 H3701 0.930 . S
C3711 C3704 1.409 . S
C3711 C3710 1.362 . S
H3712 C3718 0.930 . S
H3713 C3721 0.930 . S
H3714 C3722 0.930 . S
H3715 C3723 0.930 . S
H3716 C3726 0.930 . S
H3717 C3727 0.930 . S
C3718 H3712 0.930 . S
C3718 C3719 1.355 . S
C3718 C3720 1.415 . S
C3719 C3718 1.355 . S
C3719 C3721 1.419 . S
C3720 C3718 1.415 . S
C3720 C3725 1.425 . S
C3720 C3727 1.409 . S
C3721 H3713 0.930 . S
C3721 C3719 1.419 . S
C3721 C3722 1.362 . S
C3722 H3714 0.930 . S
C3722 C3721 1.362 . S
C3722 C3725 1.409 . S
C3723 H3715 0.930 . S
C3723 C3724 1.355 . S
C3723 C3725 1.415 . S
C3724 C3723 1.355 . S
C3724 C3726 1.419 . S
C3725 C3720 1.425 . S
C3725 C3722 1.409 . S
C3725 C3723 1.415 . S
C3726 H3716 0.930 . S
C3726 C3724 1.419 . S
C3726 C3727 1.362 . S
C3727 H3717 0.930 . S
C3727 C3720 1.409 . S
C3727 C3726 1.362 . S
H3728 C3734 0.930 . S
H3729 C3737 0.930 . S
H3730 C3738 0.930 . S
H3731 C3739 0.930 . S
H3732 C3742 0.930 . S
H3733 C3743 0.930 . S
C3734 H3728 0.930 . S
C3734 C3735 1.355 . S
C3734 C3736 1.415 . S
C3735 C3734 1.355 . S
C3735 C3737 1.419 . S
C3736 C3734 1.415 . S
C3736 C3741 1.425 . S
C3736 C3743 1.409 . S
C3737 H3729 0.930 . S
C3737 C3735 1.419 . S
C3737 C3738 1.362 . S
C3738 H3730 0.930 . S
C3738 C3737 1.362 . S
C3738 C3741 1.409 . S
C3739 H3731 0.930 . S
C3739 C3740 1.355 . S
C3739 C3741 1.415 . S
C3740 C3739 1.355 . S
C3740 C3742 1.419 . S
C3741 C3736 1.425 . S
C3741 C3738 1.409 . S
C3741 C3739 1.415 . S
C3742 H3732 0.930 . S
C3742 C3740 1.419 . S
C3742 C3743 1.362 . S
C3743 H3733 0.930 . S
C3743 C3736 1.409 . S
C3743 C3742 1.362 . S
H3744 C3750 0.930 . S
H3745 C3753 0.930 . S
H3746 C3754 0.930 . S
H3747 C3755 0.930 . S
H3748 C3758 0.930 . S
H3749 C3759 0.930 . S
C3750 H3744 0.930 . S
C3750 C3751 1.355 . S
C3750 C3752 1.415 . S
C3751 C3750 1.355 . S
C3751 C3753 1.419 . S
C3752 C3750 1.415 . S
C3752 C3757 1.425 . S
C3752 C3759 1.409 1_655 S
C3753 H3745 0.930 . S
C3753 C3751 1.419 . S
C3753 C3754 1.362 . S
C3754 H3746 0.930 . S
C3754 C3753 1.362 . S
C3754 C3757 1.409 . S
C3755 H3747 0.930 . S
C3755 C3756 1.355 . S
C3755 C3757 1.415 . S
C3756 C3755 1.355 . S
C3756 C3758 1.419 1_655 S
C3757 C3752 1.425 . S
C3757 C3754 1.409 . S
C3757 C3755 1.415 . S
C3758 H3748 0.930 . S
C3758 C3756 1.419 1_455 S
C3758 C3759 1.362 . S
C3759 H3749 0.930 . S
C3759 C3752 1.409 1_455 S
C3759 C3758 1.362 . S
H3760 C3766 0.930 . S
H3761 C3769 0.930 . S
H3762 C3770 0.930 . S
H3763 C3771 0.930 . S
H3764 C3774 0.930 . S
H3765 C3775 0.930 . S
C3766 H3760 0.930 . S
C3766 C3767 1.355 . S
C3766 C3768 1.415 . S
C3767 C3766 1.355 . S
C3767 C3769 1.419 . S
C3768 C3766 1.415 . S
C3768 C3773 1.425 . S
C3768 C3775 1.409 . S
C3769 H3761 0.930 . S
C3769 C3767 1.419 . S
C3769 C3770 1.362 . S
C3770 H3762 0.930 . S
C3770 C3769 1.362 . S
C3770 C3773 1.409 . S
C3771 H3763 0.930 . S
C3771 C3772 1.355 . S
C3771 C3773 1.415 . S
C3772 C3771 1.355 . S
C3772 C3774 1.419 . S
C3773 C3768 1.425 . S
C3773 C3770 1.409 . S
C3773 C3771 1.415 . S
C3774 H3764 0.930 . S
C3774 C3772 1.419 . S
C3774 C3775 1.362 . S
C3775 H3765 0.930 . S
C3775 C3768 1.409 . S
C3775 C3774 1.362 . S
H3776 C3782 0.930 . S
H3777 C3785 0.930 . S
H3778 C3786 0.930 . S
H3779 C3787 0.930 . S
H3780 C3790 0.930 . S
H3781 C3791 0.930 . S
C3782 H3776 0.930 . S
C3782 C3783 1.355 . S
C3782 C3784 1.415 . S
C3783 C3782 1.355 . S
C3783 C3785 1.419 . S
C3784 C3782 1.415 . S
C3784 C3789 1.425 . S
C3784 C3791 1.409 . S
C3785 H3777 0.930 . S
C3785 C3783 1.419 . S
C3785 C3786 1.362 . S
C3786 H3778 0.930 . S
C3786 C3785 1.362 . S
C3786 C3789 1.409 . S
C3787 H3779 0.930 . S
C3787 C3788 1.355 . S
C3787 C3789 1.415 . S
C3788 C3787 1.355 . S
C3788 C3790 1.419 . S
C3789 C3784 1.425 . S
C3789 C3786 1.409 . S
C3789 C3787 1.415 . S
C3790 H3780 0.930 . S
C3790 C3788 1.419 . S
C3790 C3791 1.362 . S
C3791 H3781 0.930 . S
C3791 C3784 1.409 . S
C3791 C3790 1.362 . S
H3792 C3798 0.930 . S
H3793 C3801 0.930 . S
H3794 C3802 0.930 . S
H3795 C3803 0.930 . S
H3796 C3806 0.930 . S
H3797 C3807 0.930 . S
C3798 H3792 0.930 . S
C3798 C3799 1.355 . S
C3798 C3800 1.415 . S
C3799 C3798 1.355 . S
C3799 C3801 1.419 . S
C3800 C3798 1.415 . S
C3800 C3805 1.425 . S
C3800 C3807 1.409 . S
C3801 H3793 0.930 . S
C3801 C3799 1.419 . S
C3801 C3802 1.362 . S
C3802 H3794 0.930 . S
C3802 C3801 1.362 . S
C3802 C3805 1.409 . S
C3803 H3795 0.930 . S
C3803 C3804 1.355 . S
C3803 C3805 1.415 . S
C3804 C3803 1.355 . S
C3804 C3806 1.419 . S
C3805 C3800 1.425 . S
C3805 C3802 1.409 . S
C3805 C3803 1.415 . S
C3806 H3796 0.930 . S
C3806 C3804 1.419 . S
C3806 C3807 1.362 . S
C3807 H3797 0.930 . S
C3807 C3800 1.409 . S
C3807 C3806 1.362 . S
H3808 C3814 0.930 . S
H3809 C3817 0.930 . S
H3810 C3818 0.930 . S
H3811 C3819 0.930 . S
H3812 C3822 0.930 . S
H3813 C3823 0.930 . S
C3814 H3808 0.930 . S
C3814 C3815 1.355 . S
C3814 C3816 1.415 . S
C3815 C3814 1.355 . S
C3815 C3817 1.419 . S
C3816 C3814 1.415 . S
C3816 C3821 1.425 . S
C3816 C3823 1.409 . S
C3817 H3809 0.930 . S
C3817 C3815 1.419 . S
C3817 C3818 1.362 . S
C3818 H3810 0.930 . S
C3818 C3817 1.362 . S
C3818 C3821 1.409 . S
C3819 H3811 0.930 . S
C3819 C3820 1.355 . S
C3819 C3821 1.415 . S
C3820 C3819 1.355 . S
C3820 C3822 1.419 . S
C3821 C3816 1.425 . S
C3821 C3818 1.409 . S
C3821 C3819 1.415 . S
C3822 H3812 0.930 . S
C3822 C3820 1.419 . S
C3822 C3823 1.362 . S
C3823 H3813 0.930 . S
C3823 C3816 1.409 . S
C3823 C3822 1.362 . S
H3824 C3830 0.930 . S
H3825 C3833 0.930 . S
H3826 C3834 0.930 . S
H3827 C3835 0.930 . S
H3828 C3838 0.930 . S
H3829 C3839 0.930 . S
C3830 H3824 0.930 . S
C3830 C3831 1.355 . S
C3830 C3832 1.415 . S
C3831 C3830 1.355 . S
C3831 C3833 1.419 . S
C3832 C3830 1.415 . S
C3832 C3837 1.425 . S
C3832 C3839 1.409 . S
C3833 H3825 0.930 . S
C3833 C3831 1.419 . S
C3833 C3834 1.362 . S
C3834 H3826 0.930 . S
C3834 C3833 1.362 . S
C3834 C3837 1.409 . S
C3835 H3827 0.930 . S
C3835 C3836 1.355 . S
C3835 C3837 1.415 . S
C3836 C3835 1.355 . S
C3836 C3838 1.419 . S
C3837 C3832 1.425 . S
C3837 C3834 1.409 . S
C3837 C3835 1.415 . S
C3838 H3828 0.930 . S
C3838 C3836 1.419 . S
C3838 C3839 1.362 . S
C3839 H3829 0.930 . S
C3839 C3832 1.409 . S
C3839 C3838 1.362 . S
H3840 C3846 0.930 . S
H3841 C3849 0.930 . S
H3842 C3850 0.930 . S
H3843 C3851 0.930 . S
H3844 C3854 0.930 . S
H3845 C3855 0.930 . S
C3846 H3840 0.930 . S
C3846 C3847 1.355 . S
C3846 C3848 1.415 . S
C3847 C3846 1.355 . S
C3847 C3849 1.419 . S
C3848 C3846 1.415 . S
C3848 C3853 1.425 . S
C3848 C3855 1.409 . S
C3849 H3841 0.930 . S
C3849 C3847 1.419 . S
C3849 C3850 1.362 . S
C3850 H3842 0.930 . S
C3850 C3849 1.362 . S
C3850 C3853 1.409 . S
C3851 H3843 0.930 . S
C3851 C3852 1.355 . S
C3851 C3853 1.415 . S
C3852 C3851 1.355 . S
C3852 C3854 1.419 . S
C3853 C3848 1.425 . S
C3853 C3850 1.409 . S
C3853 C3851 1.415 . S
C3854 H3844 0.930 . S
C3854 C3852 1.419 . S
C3854 C3855 1.362 . S
C3855 H3845 0.930 . S
C3855 C3848 1.409 . S
C3855 C3854 1.362 . S
H3856 C3862 0.930 . S
H3857 C3865 0.930 . S
H3858 C3866 0.930 . S
H3859 C3867 0.930 . S
H3860 C3870 0.957 . S
H3861 C3871 0.930 1_545 S
C3862 H3856 0.930 . S
C3862 C3863 1.355 . S
C3862 C3864 1.415 . S
C3863 C3862 1.355 . S
C3863 C3865 1.419 . S
C3864 C3862 1.415 . S
C3864 C3869 1.425 . S
C3864 C3871 1.409 . S
C3865 H3857 0.930 . S
C3865 C3863 1.419 . S
C3865 C3866 1.362 . S
C3866 H3858 0.930 . S
C3866 C3865 1.362 . S
C3866 C3869 1.409 . S
C3867 H3859 0.930 . S
C3867 C3868 1.355 . S
C3867 C3869 1.415 . S
C3868 C3867 1.355 . S
C3868 C3870 1.399 1_565 S
C3869 C3864 1.425 . S
C3869 C3866 1.409 . S
C3869 C3867 1.415 . S
C3870 H3860 0.957 . S
C3870 C3868 1.399 1_545 S
C3870 C3871 1.357 1_545 S
C3871 H3861 0.930 1_565 S
C3871 C3864 1.409 . S
C3871 C3870 1.357 1_565 S
H3872 C3878 0.930 . S
H3873 C3881 0.930 . S
H3874 C3882 0.930 . S
H3875 C3883 0.930 . S
H3876 C3886 0.930 . S
H3877 C3887 0.930 . S
C3878 H3872 0.930 . S
C3878 C3879 1.355 . S
C3878 C3880 1.415 . S
C3879 C3878 1.355 . S
C3879 C3881 1.419 . S
C3880 C3878 1.415 . S
C3880 C3885 1.425 . S
C3880 C3887 1.409 . S
C3881 H3873 0.930 . S
C3881 C3879 1.419 . S
C3881 C3882 1.362 . S
C3882 H3874 0.930 . S
C3882 C3881 1.362 . S
C3882 C3885 1.409 . S
C3883 H3875 0.930 . S
C3883 C3884 1.355 . S
C3883 C3885 1.415 . S
C3884 C3883 1.355 . S
C3884 C3886 1.419 . S
C3885 C3880 1.425 . S
C3885 C3882 1.409 . S
C3885 C3883 1.415 . S
C3886 H3876 0.930 . S
C3886 C3884 1.419 . S
C3886 C3887 1.362 . S
C3887 H3877 0.930 . S
C3887 C3880 1.409 . S
C3887 C3886 1.362 . S
H3888 C3894 0.930 . S
H3889 C3897 0.900 1_556 S
H3890 C3898 0.927 1_556 S
H3891 C3899 0.930 . S
H3892 C3902 0.930 . S
H3893 C3903 0.930 . S
C3894 H3888 0.930 . S
C3894 C3895 1.355 . S
C3894 C3896 1.415 . S
C3895 C3894 1.355 . S
C3895 C3897 1.447 . S
C3896 C3894 1.415 . S
C3896 C3901 1.425 . S
C3896 C3903 1.409 . S
C3897 H3889 0.900 1_554 S
C3897 C3895 1.447 . S
C3897 C3898 1.366 . S
C3898 H3890 0.927 1_554 S
C3898 C3897 1.366 . S
C3898 C3901 1.413 . S
C3899 H3891 0.930 . S
C3899 C3900 1.355 . S
C3899 C3901 1.415 . S
C3900 C3899 1.355 . S
C3900 C3902 1.419 . S
C3901 C3896 1.425 . S
C3901 C3898 1.413 . S
C3901 C3899 1.415 . S
C3902 H3892 0.930 . S
C3902 C3900 1.419 . S
C3902 C3903 1.362 . S
C3903 H3893 0.930 . S
C3903 C3896 1.409 . S
C3903 C3902 1.362 . S
H3904 C3910 0.930 . S
H3905 C3913 0.930 . S
H3906 C3914 0.930 . S
H3907 C3915 0.930 . S
H3908 C3918 0.930 . S
H3909 C3919 0.930 . S
C3910 H3904 0.930 . S
C3910 C3911 1.355 . S
C3910 C3912 1.415 . S
C3911 C3910 1.355 . S
C3911 C3913 1.419 . S
C3912 C3910 1.415 . S
C3912 C3917 1.425 . S
C3912 C3919 1.409 . S
C3913 H3905 0.930 . S
C3913 C3911 1.419 . S
C3913 C3914 1.362 . S
C3914 H3906 0.930 . S
C3914 C3913 1.362 . S
C3914 C3917 1.409 . S
C3915 H3907 0.930 . S
C3915 C3916 1.355 . S
C3915 C3917 1.415 . S
C3916 C3915 1.355 . S
C3916 C3918 1.419 . S
C3917 C3912 1.425 . S
C3917 C3914 1.409 . S
C3917 C3915 1.415 . S
C3918 H3908 0.930 . S
C3918 C3916 1.419 . S
C3918 C3919 1.362 . S
C3919 H3909 0.930 . S
C3919 C3912 1.409 . S
C3919 C3918 1.362 . S
H3920 C3926 0.930 . S
H3921 C3929 0.930 . S
H3922 C3930 0.930 1_556 S
H3923 C3931 0.930 1_556 S
H3924 C3934 0.930 . S
H3925 C3935 0.930 . S
C3926 H3920 0.930 . S
C3926 C3927 1.355 . S
C3926 C3928 1.415 . S
C3927 C3926 1.355 . S
C3927 C3929 1.419 . S
C3928 C3926 1.415 . S
C3928 C3933 1.425 . S
C3928 C3935 1.409 . S
C3929 H3921 0.930 . S
C3929 C3927 1.419 . S
C3929 C3930 1.362 . S
C3930 H3922 0.930 1_554 S
C3930 C3929 1.362 . S
C3930 C3933 1.409 . S
C3931 H3923 0.930 1_554 S
C3931 C3932 1.355 . S
C3931 C3933 1.415 . S
C3932 C3931 1.355 . S
C3932 C3934 1.419 . S
C3933 C3928 1.425 . S
C3933 C3930 1.409 . S
C3933 C3931 1.415 . S
C3934 H3924 0.930 . S
C3934 C3932 1.419 . S
C3934 C3935 1.362 . S
C3935 H3925 0.930 . S
C3935 C3928 1.409 . S
C3935 C3934 1.362 . S
H3936 C3942 0.930 . S
H3937 C3945 0.930 . S
H3938 C3946 0.930 . S
H3939 C3947 0.930 . S
H3940 C3950 0.930 . S
H3941 C3951 0.930 . S
C3942 H3936 0.930 . S
C3942 C3943 1.355 . S
C3942 C3944 1.415 . S
C3943 C3942 1.355 . S
C3943 C3945 1.419 . S
C3944 C3942 1.415 . S
C3944 C3949 1.425 . S
C3944 C3951 1.409 . S
C3945 H3937 0.930 . S
C3945 C3943 1.419 . S
C3945 C3946 1.362 . S
C3946 H3938 0.930 . S
C3946 C3945 1.362 . S
C3946 C3949 1.409 . S
C3947 H3939 0.930 . S
C3947 C3948 1.355 . S
C3947 C3949 1.415 . S
C3948 C3947 1.355 . S
C3948 C3950 1.419 . S
C3949 C3944 1.425 . S
C3949 C3946 1.409 . S
C3949 C3947 1.415 . S
C3950 H3940 0.930 . S
C3950 C3948 1.419 . S
C3950 C3951 1.362 . S
C3951 H3941 0.930 . S
C3951 C3944 1.409 . S
C3951 C3950 1.362 . S
H3952 C3958 0.930 . S
H3953 C3961 0.930 . S
H3954 C3962 0.930 . S
H3955 C3963 0.930 . S
H3956 C3966 0.930 . S
H3957 C3967 0.930 . S
C3958 H3952 0.930 . S
C3958 C3959 1.355 . S
C3958 C3960 1.415 . S
C3959 C3958 1.355 . S
C3959 C3961 1.419 . S
C3960 C3958 1.415 . S
C3960 C3965 1.425 . S
C3960 C3967 1.409 . S
C3961 H3953 0.930 . S
C3961 C3959 1.419 . S
C3961 C3962 1.362 . S
C3962 H3954 0.930 . S
C3962 C3961 1.362 . S
C3962 C3965 1.409 . S
C3963 H3955 0.930 . S
C3963 C3964 1.355 . S
C3963 C3965 1.415 . S
C3964 C3963 1.355 . S
C3964 C3966 1.419 . S
C3965 C3960 1.425 . S
C3965 C3962 1.409 . S
C3965 C3963 1.415 . S
C3966 H3956 0.930 . S
C3966 C3964 1.419 . S
C3966 C3967 1.362 . S
C3967 H3957 0.930 . S
C3967 C3960 1.409 . S
C3967 C3966 1.362 . S
C2439 C665 1.320 . S
C2444 C2116 1.209 . S
C2455 C381 1.445 . S
C2460 C2151 1.479 . S
C2471 C460 0.991 . S
C2476 C2156 0.870 . S
C2492 C2181 1.387 . S
C2487 C585 1.468 . S
C2503 C108 1.464 . S
C2508 C2201 1.368 . S
C2524 C2216 0.935 . S
C2519 C196 1.035 . S
C2540 C2251 1.442 . S
C2535 C313 1.482 . S
C2551 C49 1.283 . S
C2556 C2256 1.077 . S
C2572 C2131 1.442 1_655 S
C2567 C1457 1.473 . S
C2583 C1545 1.022 . S
C2588 C2141 0.952 . S
C2604 C2171 1.464 . S
C2599 C1721 1.456 . S
C2620 C2176 1.048 . S
C2615 C1113 1.191 . S
C2631 C1428 1.171 . S
C2636 C2196 1.132 . S
C2652 C2231 1.490 . S
C2647 C1516 1.458 . S
C2668 C2241 1.000 . S
C2663 C1692 1.018 . S
C2684 C2271 1.439 . S
C2679 C1085 1.472 . S
C2700 C2121 1.196 . S
C2695 C988 1.349 . S
C2711 C1817 1.774 . S
C2716 C2291 1.739 . S
C2732 C2301 1.432 . S
C2727 C2081 1.480 . S
C2748 C2316 0.859 . S
C2743 C1993 0.993 . S
C2759 C761 1.355 . S
C2764 C2261 1.215 . S
C2775 C821 1.489 . S
C2780 C2161 1.450 . S
C2791 C2053 1.744 . S
C2796 C2351 1.755 . S
C2812 C2356 1.009 . S
C2807 C1868 0.986 . S
C2828 C2114 1.090 . S
C2823 C372 1.282 . S
C2844 C2370 1.474 . S
C2839 C645 1.436 . S
C2855 C577 0.984 . S
C2860 C2154 0.991 . S
C2871 C497 1.437 . S
C2876 C2344 1.440 . S
C2892 C2204 1.411 . S
C2887 C57 1.434 . S
C2903 C293 0.984 . S
C2908 C2294 0.990 . S
C2924 C2250 1.428 . S
C2919 C205 1.473 . S
C2940 C2374 1.075 . S
C2935 C145 1.294 . S
C2956 C2130 1.444 . S
C2951 C909 1.469 . S
C2972 C2364 0.885 . S
C2967 C1956 0.976 . S
C2983 C724 1.475 . S
C2988 C2170 1.442 . S
C2999 C1780 1.164 . S
C3004 C2334 1.086 . S
C3015 C937 1.212 . S
C3020 C2194 1.177 . S
C3036 C2310 1.445 . S
C3031 C1985 1.470 . S
C3047 C753 1.014 . S
C3052 C2244 0.981 1_565 S
C3063 C1809 1.470 . S
C3068 C2390 1.449 . S
C3079 C1173 1.345 . S
C3084 C2124 1.287 . S
C3095 C1105 1.770 . S
C3100 C2290 1.744 . S
C3111 C1633 1.475 . S
C3116 C2224 1.394 . S
C3127 C1553 1.011 . S
C3132 C2314 0.919 . S
C3148 C2384 1.173 . S
C3143 C1729 1.343 . S
C3159 C1340 1.475 . S
C3164 C2164 1.389 . S
C3180 C2190 1.761 . S
C3175 C1604 1.759 . S
C3196 C2134 0.945 . S
C3191 C1252 1.012 . S
C3207 C489 1.320 . S
C3212 C2396 1.195 . S
C3228 C2371 1.464 . S
C3223 C557 1.470 . S
C3239 C636 0.993 . S
C3244 C2416 0.868 . S
C3255 C409 1.434 . S
C3260 C2341 1.424 . S
C3271 C284 1.439 . S
C3276 C2281 1.399 . S
C3292 C2296 0.953 . S
C3287 C20 1.036 . S
C3308 C2331 1.467 . S
C3303 C137 1.443 . S
C3324 C2376 1.156 . S
C3319 C225 1.285 . S
C3340 C2411 1.446 . S
C3335 C1641 1.484 . S
C3351 C1193 1.011 . S
C3356 C2361 1.013 . S
C3372 C2431 1.464 . S
C3367 C1289 1.488 . S
C3388 C2336 1.178 . S
C3383 C1377 1.194 . S
C3404 C2276 1.143 . S
C3399 C1613 1.174 . S
C3415 C1164 1.468 . S
C3420 C2311 1.485 . S
C3436 C2321 0.945 . S
C3431 C1261 0.948 . S
C3447 C1349 1.485 . S
C3452 C2391 1.423 . S
C3468 C2401 1.188 . S
C3463 C1965 1.328 . S
C3479 C849 1.758 . S
C3484 C2211 1.742 . S
C3500 C2221 1.389 . S
C3495 C929 1.507 . S
C3516 C2236 0.962 . S
C3511 C1017 0.968 . S
C3532 C2381 1.296 . S
C3527 C1897 1.357 . S
C3543 C1789 1.482 . S
C3548 C2421 1.425 . S
C3564 C2191 1.755 . S
C3559 C900 1.772 . S
C3580 C2136 0.927 . S
C3575 C733 1.015 . S
C3591 C548 1.313 . S
C3596 C2394 1.220 . S
C3612 C2150 1.474 . S
C3607 C469 1.436 . S
C3623 C401 0.983 . S
C3628 C2414 0.987 . S
C3639 C673 1.441 . S
C3644 C2184 1.388 . S
C3655 C233 1.433 . S
C3660 C2284 1.413 . S
C3676 C2214 0.867 . S
C3671 C117 0.990 . S
C3687 C29 1.438 . S
C3692 C2330 1.477 . S
C3703 C321 1.300 . S
C3708 C2254 1.206 . S
C3724 C2410 1.409 . S
C3719 C2044 1.482 . S
C3735 C997 1.017 . S
C3740 C2144 0.978 . S
C3756 C2430 1.475 1_655 S
C3751 C1877 1.444 . S
C3767 C812 1.217 . S
C3772 C2174 1.082 . S
C3783 C2073 1.225 . S
C3788 C2274 1.126 . S
C3804 C2230 1.486 . S
C3799 C1025 1.443 . S
C3815 C1905 1.017 . S
C3820 C2324 0.979 . S
C3836 C2270 1.409 . S
C3831 C841 1.482 . S
C3852 C2404 1.207 . S
C3847 C1525 1.352 . S
C3868 C2210 1.772 . S
C3863 C1369 1.734 . S
C3879 C1465 1.493 . S
C3884 C2304 1.452 . S
C3900 C2234 1.011 . S
C3895 C1201 0.987 . S
C3911 C1281 1.338 . S
C3916 C2264 1.269 . S
C3927 C1076 1.479 . S
C3932 C2424 1.424 . S
C3948 C2350 1.735 . S
C3943 C1437 1.765 . S
C3964 C2354 0.964 . S
C3959 C1701 0.960 . S
