# Generated by pormake.
# Topology rtl, (3,6)-cn, num edge types: 1
# Building blocks:
#     Node 0, Type 0, BuildingBlock: WUSLED_clean_sbu_0, # of connection points: 3
#     Node 1, Type 0, BuildingBlock: WUSLED_clean_sbu_0, # of connection points: 3
#     Node 2, Type 0, BuildingBlock: WUSLED_clean_sbu_0, # of connection points: 3
#     Node 3, Type 0, BuildingBlock: WUSLED_clean_sbu_0, # of connection points: 3
#     Node 4, Type 1, BuildingBlock: LEVNOQ01_clean_sbu_1, # of connection points: 6
#     Node 5, Type 1, BuildingBlock: LEVNOQ01_clean_sbu_1, # of connection points: 6
#     Edge 6, Type (0, 1), BuildingBlock: CIFDUS_clean_linker_0, # of connection points: 2
#     Edge 7, Type (0, 1), BuildingBlock: CIFDUS_clean_linker_0, # of connection points: 2
#     Edge 8, Type (0, 1), BuildingBlock: CIFDUS_clean_linker_0, # of connection points: 2
#     Edge 9, Type (0, 1), BuildingBlock: CIFDUS_clean_linker_0, # of connection points: 2
#     Edge 10, Type (0, 1), BuildingBlock: CIFDUS_clean_linker_0, # of connection points: 2
#     Edge 11, Type (0, 1), BuildingBlock: CIFDUS_clean_linker_0, # of connection points: 2
#     Edge 12, Type (0, 1), BuildingBlock: CIFDUS_clean_linker_0, # of connection points: 2
#     Edge 13, Type (0, 1), BuildingBlock: CIFDUS_clean_linker_0, # of connection points: 2
#     Edge 14, Type (0, 1), BuildingBlock: CIFDUS_clean_linker_0, # of connection points: 2
#     Edge 15, Type (0, 1), BuildingBlock: CIFDUS_clean_linker_0, # of connection points: 2
#     Edge 16, Type (0, 1), BuildingBlock: CIFDUS_clean_linker_0, # of connection points: 2
#     Edge 17, Type (0, 1), BuildingBlock: CIFDUS_clean_linker_0, # of connection points: 2
# Relax obj value: 0.023
# Max RMSD: 0.058
# Mean RMSD: 0.042
data_MOF--net-rtl--node1-WUSLED_clean_sbu_0--node2-LEVNOQ01_clean_sbu_1--edge1-CIFDUS_clean_linker_0
_symmetry_space_group_name_H-M    P1
_symmetry_Int_Tables_number       1
_symmetry_cell_setting            triclinic
loop_
_symmetry_equiv_pos_as_xyz
'x, y, z'
_cell_length_a     36.501736
_cell_length_b     41.25978
_cell_length_c     28.585624
_cell_angle_alpha  90.443323
_cell_angle_beta   98.440351
_cell_angle_gamma 90.125646
loop_
_atom_site_label
_atom_site_type_symbol
_atom_site_fract_x
_atom_site_fract_y
_atom_site_fract_z
_atom_type_partial_charge
C0 C 0.19032 0.88094 0.20969 0.0
C1 C 0.16606 0.90553 0.19133 0.0
C2 C 0.14891 0.91536 0.26942 0.0
C3 C 0.14562 0.92265 0.22095 0.0
C4 C 0.1744 0.89154 0.28796 0.0
C5 C 0.19488 0.8744 0.25823 0.0
U6 U 0.20308 0.85512 0.08554 0.0
O7 O 0.25362 0.84073 0.0566 0.0
O8 O 0.20672 0.80693 0.054 0.0
C9 C 0.24135 0.81101 0.04751 0.0
C10 C 0.20892 0.86067 0.1779 0.0
C11 C 0.2669 0.78437 0.06385 0.0
C12 C 0.27894 0.7332 0.10492 0.0
C13 C 0.2578 0.76131 0.09631 0.0
C14 C 0.32047 0.75205 0.05213 0.0
C15 C 0.30979 0.72784 0.08176 0.0
C16 C 0.29906 0.78 0.04306 0.0
C17 C 0.14322 0.89625 0.98097 0.0
C18 C 0.15216 0.89249 0.89842 0.0
C19 C 0.09507 0.91441 0.91904 0.0
C20 C 0.10805 0.90944 0.96689 0.0
C21 C 0.11709 0.90633 0.8842 0.0
C22 C 0.16507 0.88737 0.94643 0.0
C23 C 0.15637 0.89226 0.03181 0.0
O24 O 0.18735 0.83926 0.1531 0.0
O25 O 0.23059 0.87618 0.15265 0.0
O26 O 0.19096 0.90059 0.04667 0.0
O27 O 0.14657 0.86509 0.05022 0.0
H28 H 0.16222 0.91089 0.15388 0.0
H29 H 0.12658 0.94114 0.2057 0.0
H30 H 0.1773 0.88513 0.32498 0.0
H31 H 0.21343 0.85539 0.27289 0.0
H32 H 0.27023 0.71496 0.12807 0.0
H33 H 0.23336 0.7642 0.11332 0.0
H34 H 0.3439 0.74838 0.03343 0.0
H35 H 0.3066 0.79745 0.01796 0.0
H36 H 0.16967 0.8858 0.87245 0.0
H37 H 0.06823 0.9256 0.90949 0.0
H38 H 0.09077 0.91638 0.99304 0.0
H39 H 0.1922 0.87683 0.9566 0.0
C40 C 0.67513 0.67826 0.69693 0.0
C41 C 0.64857 0.6556 0.67695 0.0
C42 C 0.6297 0.6465 0.75417 0.0
C43 C 0.6261 0.63982 0.70531 0.0
C44 C 0.65659 0.66915 0.77398 0.0
C45 C 0.67909 0.68489 0.74555 0.0
U46 U 0.70138 0.69787 0.57619 0.0
O47 O 0.72024 0.74336 0.54805 0.0
O48 O 0.75652 0.70069 0.55369 0.0
C49 C 0.75312 0.7317 0.54391 0.0
C50 C 0.69889 0.69496 0.6674 0.0
C51 C 0.7851 0.75241 0.56184 0.0
C52 C 0.81545 0.79337 0.61603 0.0
C53 C 0.78602 0.77169 0.60275 0.0
C54 C 0.84379 0.77566 0.54875 0.0
C55 C 0.84445 0.79596 0.58871 0.0
C56 C 0.81448 0.75416 0.53557 0.0
C57 C 0.64553 0.66084 0.46376 0.0
C58 C 0.6079 0.67049 0.38726 0.0
C59 C 0.65909 0.63289 0.39295 0.0
C60 C 0.66704 0.63894 0.44154 0.0
C61 C 0.62942 0.64854 0.36509 0.0
C62 C 0.61582 0.6765 0.43605 0.0
C63 C 0.65269 0.66616 0.51579 0.0
O64 O 0.71973 0.6759 0.64543 0.0
O65 O 0.68272 0.71794 0.64026 0.0
O66 O 0.64694 0.6956 0.53107 0.0
O67 O 0.68274 0.6528 0.53858 0.0
H68 H 0.64526 0.65011 0.63942 0.0
H69 H 0.60606 0.62221 0.689 0.0
H70 H 0.65978 0.67519 0.8113 0.0
H71 H 0.69947 0.70236 0.76151 0.0
H72 H 0.8152 0.80845 0.64714 0.0
H73 H 0.76363 0.77055 0.62372 0.0
H74 H 0.86511 0.77736 0.52623 0.0
H75 H 0.81421 0.73956 0.50383 0.0
H76 H 0.58497 0.68309 0.36693 0.0
H77 H 0.67577 0.61526 0.37744 0.0
H78 H 0.6898 0.62603 0.4617 0.0
H79 H 0.59847 0.69324 0.45217 0.0
C80 C 0.80419 0.17257 0.15562 0.0
C81 C 0.84034 0.16006 0.16334 0.0
C82 C 0.83201 0.1439 0.24306 0.0
C83 C 0.85418 0.14593 0.20682 0.0
C84 C 0.79597 0.15668 0.23508 0.0
C85 C 0.78227 0.17088 0.19187 0.0
U86 U 0.79102 0.18471 0.01965 0.0
O87 O 0.74014 0.19789 0.97256 0.0
O88 O 0.78791 0.2308 0.98103 0.0
C89 C 0.75262 0.22693 0.96453 0.0
C90 C 0.78882 0.18847 0.11103 0.0
C91 C 0.72885 0.25392 0.97501 0.0
C92 C 0.69758 0.28312 0.0315 0.0
C93 C 0.71722 0.2561 0.01953 0.0
C94 C 0.69984 0.30584 0.95403 0.0
C95 C 0.68944 0.30865 0.99935 0.0
C96 C 0.71957 0.27865 0.94202 0.0
C97 C 0.83929 0.13429 0.93552 0.0
C98 C 0.84488 0.15291 0.85644 0.0
C99 C 0.86643 0.09933 0.88112 0.0
C100 C 0.85515 0.10464 0.92529 0.0
C101 C 0.86227 0.12374 0.84668 0.0
C102 C 0.83335 0.15809 0.90041 0.0
C103 C 0.83107 0.141 0.98352 0.0
O104 O 0.81217 0.20512 0.08967 0.0
O105 O 0.76495 0.17143 0.08173 0.0
O106 O 0.79671 0.13569 0.99027 0.0
O107 O 0.84466 0.16847 1.00231 0.0
H108 H 0.85778 0.16112 0.13583 0.0
H109 H 0.88189 0.13596 0.21171 0.0
H110 H 0.77832 0.15578 0.26238 0.0
H111 H 0.75444 0.18064 0.18676 0.0
H112 H 0.68948 0.28439 0.06644 0.0
H113 H 0.72417 0.23725 0.0455 0.0
H114 H 0.69415 0.32524 0.92871 0.0
H115 H 0.72848 0.27736 0.90753 0.0
H116 H 0.84104 0.17203 0.83044 0.0
H117 H 0.88006 0.07676 0.87479 0.0
H118 H 0.85988 0.086 0.95196 0.0
H119 H 0.82086 0.18106 0.90756 0.0
C120 C 0.34617 0.36041 0.38641 0.0
C121 C 0.38451 0.36563 0.39699 0.0
C122 C 0.38304 0.40006 0.32781 0.0
C123 C 0.40277 0.38503 0.36784 0.0
C124 C 0.34453 0.39494 0.31758 0.0
C125 C 0.32632 0.37524 0.34658 0.0
U126 U 0.33237 0.33215 0.50877 0.0
O127 O 0.28095 0.32134 0.53782 0.0
O128 O 0.32325 0.28371 0.53607 0.0
C129 C 0.28939 0.29051 0.54353 0.0
C130 C 0.32654 0.34013 0.41705 0.0
C131 C 0.26027 0.26695 0.52453 0.0
C132 C 0.23967 0.21962 0.47618 0.0
C133 C 0.26584 0.24409 0.48948 0.0
C134 C 0.2009 0.24168 0.53042 0.0
C135 C 0.20728 0.21773 0.49727 0.0
C136 C 0.22721 0.26595 0.54401 0.0
C137 C 0.39668 0.37128 0.61401 0.0
C138 C 0.39472 0.36157 0.69743 0.0
C139 C 0.43908 0.3997 0.674 0.0
C140 C 0.42578 0.39328 0.62651 0.0
C141 C 0.42356 0.38418 0.71019 0.0
C142 C 0.38137 0.35518 0.64967 0.0
C143 C 0.38242 0.36646 0.56359 0.0
O144 O 0.34606 0.31679 0.43965 0.0
O145 O 0.30612 0.35603 0.4437 0.0
O146 O 0.34852 0.37664 0.54958 0.0
O147 O 0.38946 0.33827 0.54519 0.0
H148 H 0.40045 0.35466 0.42775 0.0
H149 H 0.43249 0.3879 0.37647 0.0
H150 H 0.32834 0.40647 0.28752 0.0
H151 H 0.29666 0.37172 0.33805 0.0
H152 H 0.24523 0.20162 0.45036 0.0
H153 H 0.29092 0.24446 0.47341 0.0
H154 H 0.1765 0.24066 0.54784 0.0
H155 H 0.2223 0.28328 0.57106 0.0
H156 H 0.3823 0.34901 0.72431 0.0
H157 H 0.46072 0.41772 0.68227 0.0
H158 H 0.43783 0.40601 0.59942 0.0
H159 H 0.35888 0.33803 0.64058 0.0
O160 O 0.00364 0.08278 0.65226 0.0
Mg161 Mg 0.04883 0.06708 0.62089 0.0
O162 O 0.96822 0.04793 0.60753 0.0
Mg163 Mg 0.00461 0.02458 0.55429 0.0
O164 O 0.04419 0.06994 0.54877 0.0
O165 O 0.07829 0.10375 0.60041 0.0
O166 O 0.04063 1.00049 0.50159 0.0
O167 O 0.96771 0.0545 0.49262 0.0
Mg168 Mg 0.95755 0.9902 0.49064 0.0
O169 O 0.9661 0.9782 0.56086 0.0
O170 O 0.9978 0.98032 0.44714 0.0
O171 O 0.91844 0.02528 0.46846 0.0
O172 O 0.93201 0.94899 0.503 0.0
C173 C 0.07028 0.00197 0.64678 0.0
C174 C 0.97252 0.06929 0.64047 0.0
C175 C 0.06662 0.09468 0.55753 0.0
C176 C 0.03151 0.98622 0.46183 0.0
C177 C 0.93552 0.05179 0.46823 0.0
C178 C 0.94439 0.95368 0.54709 0.0
O179 O 0.08246 0.03052 0.65344 0.0
O180 O 0.04205 0.99618 0.61574 0.0
O181 O 0.58161 0.55118 0.10993 0.0
Mg182 Mg 0.55149 0.50761 0.10033 0.0
O183 O 0.52254 0.56022 0.09881 0.0
Mg184 Mg 0.50155 0.52165 0.03654 0.0
O185 O 0.55035 0.48184 0.03862 0.0
O186 O 0.58903 0.47221 0.10563 0.0
O187 O 0.47892 0.48402 0.97446 0.0
O188 O 0.53254 0.5511 0.98542 0.0
Mg189 Mg 0.44682 0.54124 0.96837 0.0
O190 O 0.45347 0.56054 0.03484 0.0
O191 O 0.42051 0.49626 0.9574 0.0
O192 O 0.48709 0.55663 0.92609 0.0
O193 O 0.40888 0.5754 0.97605 0.0
C194 C 0.48069 0.48769 0.13017 0.0
C195 C 0.55509 0.56903 0.11703 0.0
C196 C 0.57757 0.46543 0.06188 0.0
C197 C 0.44632 0.47655 0.9546 0.0
C198 C 0.52095 0.56025 0.94331 0.0
C199 C 0.42488 0.5783 0.01919 0.0
O200 O 0.51336 0.49569 0.14772 0.0
O201 O 0.46992 0.49203 0.08631 0.0
H202 H 0.13159 0.21608 0.48208 0.0
H203 H 0.22778 0.15437 0.49681 0.0
H204 H 0.18894 0.10703 0.5036 0.0
H205 H 0.13032 0.08565 0.52348 0.0
H206 H 0.03485 0.1475 0.51369 0.0
H207 H 0.0701 0.19197 0.48547 0.0
C208 C 0.14386 0.19214 0.48569 0.0
C209 C 0.18259 0.18885 0.4898 0.0
C210 C 0.12138 0.165 0.49055 0.0
C211 C 0.19809 0.15764 0.4936 0.0
C212 C 0.17589 0.13052 0.49782 0.0
C213 C 0.11681 0.10834 0.51259 0.0
C214 C 0.08011 0.11338 0.52011 0.0
C215 C 0.13782 0.13415 0.49868 0.0
C216 C 0.06293 0.14303 0.50724 0.0
C217 C 0.08332 0.16862 0.49202 0.0
H218 H 0.38349 0.71242 0.09795 0.0
H219 H 0.27429 0.67048 0.06497 0.0
H220 H 0.30108 0.6181 0.04981 0.0
H221 H 0.3548 0.58681 0.03377 0.0
H222 H 0.46445 0.62708 0.06788 0.0
H223 H 0.43852 0.67735 0.09571 0.0
C224 C 0.36573 0.69157 0.08842 0.0
C225 C 0.32699 0.69532 0.08214 0.0
C226 C 0.38139 0.66136 0.07973 0.0
C227 C 0.30417 0.66815 0.07022 0.0
C228 C 0.31945 0.63823 0.06123 0.0
C229 C 0.373 0.60627 0.04874 0.0
C230 C 0.41127 0.60361 0.04863 0.0
C231 C 0.35789 0.6349 0.06422 0.0
C232 C 0.43484 0.62873 0.06801 0.0
C233 C 0.41997 0.65753 0.08337 0.0
H234 H 0.8361 0.85873 0.61649 0.0
H235 H 0.91836 0.79101 0.58231 0.0
H236 H 0.96163 0.83548 0.5771 0.0
H237 H 0.97057 0.89381 0.56553 0.0
H238 H 0.88832 0.96149 0.59821 0.0
H239 H 0.85114 0.91695 0.62271 0.0
C240 C 0.86391 0.85351 0.60959 0.0
C241 C 0.87349 0.82161 0.59832 0.0
C242 C 0.88867 0.8793 0.60628 0.0
C243 C 0.90978 0.81543 0.58956 0.0
C244 C 0.93465 0.84085 0.58675 0.0
C245 C 0.94542 0.89879 0.58036 0.0
C246 C 0.93217 0.93068 0.58053 0.0
C247 C 0.92367 0.87297 0.5926 0.0
C248 C 0.89922 0.93707 0.59865 0.0
C249 C 0.8777 0.91155 0.61186 0.0
H250 H 0.63251 0.34473 0.95227 0.0
H251 H 0.71018 0.34103 0.08153 0.0
H252 H 0.68323 0.38965 0.11059 0.0
H253 H 0.63729 0.43194 0.10102 0.0
H254 H 0.55786 0.4372 0.97362 0.0
H255 H 0.58625 0.3895 0.94169 0.0
C256 C 0.64358 0.35478 0.98661 0.0
C257 C 0.67299 0.33901 0.015 0.0
C258 C 0.62777 0.38296 1.00337 0.0
C259 C 0.68709 0.35227 0.05944 0.0
C260 C 0.67186 0.38019 0.07599 0.0
C261 C 0.62604 0.42287 0.06613 0.0
C262 C 0.59533 0.4381 0.03988 0.0
C263 C 0.64206 0.39549 0.04851 0.0
C264 C 0.58149 0.42596 0.99461 0.0
C265 C 0.59766 0.39863 0.97644 0.0
H266 H 0.16524 0.93885 0.36026 0.0
H267 H 0.07503 0.9251 0.24593 0.0
H268 H 0.03167 0.94703 0.2948 0.0
H269 H 0.01862 0.96788 0.37019 0.0
H270 H 0.10731 0.98204 0.48613 0.0
H271 H 0.15204 0.96216 0.43642 0.0
C272 C 0.13609 0.94071 0.34615 0.0
C273 C 0.12347 0.93045 0.29936 0.0
C274 C 0.11103 0.95326 0.3747 0.0
C275 C 0.08565 0.93327 0.28144 0.0
C276 C 0.06073 0.94559 0.3095 0.0
C277 C 0.04774 0.96669 0.3848 0.0
C278 C 0.05953 0.97612 0.43201 0.0
C279 C 0.07305 0.95535 0.35619 0.0
C280 C 0.09747 0.97484 0.44994 0.0
C281 C 0.12302 0.9634 0.42155 0.0
H282 H 0.6478 0.62254 0.84358 0.0
H283 H 0.55559 0.63459 0.73191 0.0
H284 H 0.51443 0.60849 0.78008 0.0
H285 H 0.50419 0.58303 0.8539 0.0
H286 H 0.59557 0.57163 0.96686 0.0
H287 H 0.63733 0.59706 0.91833 0.0
C288 C 0.61864 0.61969 0.82993 0.0
C289 C 0.60491 0.63046 0.78403 0.0
C290 C 0.59493 0.60485 0.85806 0.0
C291 C 0.56711 0.62611 0.76673 0.0
C292 C 0.54344 0.61137 0.7944 0.0
C293 C 0.53324 0.58604 0.86806 0.0
C294 C 0.54664 0.57542 0.91408 0.0
C295 C 0.55703 0.6007 0.84007 0.0
C296 C 0.58443 0.57958 0.93162 0.0
C297 C 0.60835 0.59413 0.90387 0.0
H298 H 0.89972 0.14942 0.29876 0.0
H299 H 0.79425 0.10032 0.28857 0.0
H300 H 0.8157 0.07072 0.36072 0.0
H301 H 0.86531 0.05581 0.42322 0.0
H302 H 0.97183 0.10303 0.43405 0.0
H303 H 0.94886 0.1368 0.36582 0.0
C304 C 0.8815 0.13225 0.31244 0.0
C305 C 0.84543 0.12705 0.28816 0.0
C306 C 0.89411 0.1151 0.35416 0.0
C307 C 0.82198 0.10503 0.30669 0.0
C308 C 0.83426 0.08798 0.3479 0.0
C309 C 0.88346 0.07378 0.41114 0.0
C310 C 0.92034 0.07666 0.4335 0.0
C311 C 0.87036 0.0925 0.37152 0.0
C312 C 0.94329 0.10033 0.41759 0.0
C313 C 0.93026 0.11943 0.37827 0.0
H314 H 0.3807 0.39292 0.7797 0.0
H315 H 0.49423 0.39694 0.75419 0.0
H316 H 0.51279 0.42152 0.83208 0.0
H317 H 0.49515 0.44876 0.90264 0.0
H318 H 0.38121 0.44546 0.92644 0.0
H319 H 0.3648 0.41268 0.85507 0.0
C320 C 0.40968 0.39829 0.79157 0.0
C321 C 0.43585 0.39358 0.76059 0.0
C322 C 0.42015 0.41268 0.83628 0.0
C323 C 0.47327 0.40102 0.77673 0.0
C324 C 0.48398 0.41497 0.82143 0.0
C325 C 0.46699 0.44001 0.89295 0.0
C326 C 0.43936 0.44982 0.91952 0.0
C327 C 0.45744 0.42196 0.85087 0.0
C328 C 0.40293 0.43845 0.90635 0.0
C329 C 0.39345 0.41987 0.86535 0.0
H330 H 0.56103 0.64079 0.31181 0.0
H331 H 0.67794 0.63907 0.30199 0.0
H332 H 0.66458 0.61865 0.22108 0.0
H333 H 0.62055 0.59519 0.15693 0.0
H334 H 0.5036 0.59651 0.1659 0.0
H335 H 0.51608 0.62444 0.24241 0.0
C336 C 0.58357 0.63669 0.29167 0.0
C337 C 0.62054 0.64081 0.31356 0.0
C338 C 0.5757 0.6249 0.24488 0.0
C339 C 0.6493 0.63525 0.28668 0.0
C340 C 0.64169 0.62376 0.24021 0.0
C341 C 0.59767 0.60221 0.1751 0.0
C342 C 0.56125 0.59329 0.15601 0.0
C343 C 0.6051 0.61753 0.21952 0.0
C344 C 0.53192 0.60295 0.17978 0.0
C345 C 0.53908 0.61866 0.22382 0.0
H346 H 0.85865 0.07184 0.78577 0.0
H347 H 0.90541 0.1677 0.81025 0.0
H348 H 0.94029 0.16058 0.74451 0.0
H349 H 0.96247 0.12533 0.68576 0.0
H350 H 0.91656 0.02939 0.65982 0.0
H351 H 0.87592 0.03845 0.71981 0.0
C352 C 0.87621 0.09122 0.77629 0.0
C353 C 0.87958 0.12019 0.80303 0.0
C354 C 0.89637 0.08693 0.73831 0.0
C355 C 0.90208 0.14529 0.79007 0.0
C356 C 0.92223 0.14117 0.75264 0.0
C357 C 0.94312 0.10658 0.69268 0.0
C358 C 0.94276 0.07664 0.66885 0.0
C359 C 0.92025 0.11186 0.7273 0.0
C360 C 0.91726 0.0527 0.67767 0.0
C361 C 0.89429 0.05777 0.71226 0.0
H362 H 0.37022 0.40479 0.23129 0.0
H363 H 0.44035 0.44224 0.35487 0.0
H364 H 0.47599 0.47299 0.30469 0.0
H365 H 0.48888 0.48772 0.22594 0.0
H366 H 0.41748 0.45255 0.10214 0.0
H367 H 0.38014 0.42312 0.15235 0.0
C368 C 0.39289 0.42008 0.24738 0.0
C369 C 0.40282 0.4207 0.29693 0.0
C370 C 0.41307 0.43816 0.21829 0.0
C371 C 0.43258 0.44053 0.31689 0.0
C372 C 0.45287 0.45836 0.28822 0.0
C373 C 0.46505 0.47373 0.2099 0.0
C374 C 0.4562 0.47207 0.16037 0.0
C375 C 0.44369 0.45701 0.23891 0.0
C376 C 0.42493 0.4542 0.14018 0.0
C377 C 0.40365 0.43727 0.16887 0.0
H378 H 0.15739 0.93357 0.82197 0.0
H379 H 0.04781 0.89824 0.83349 0.0
H380 H 0.02451 0.92006 0.75553 0.0
H381 H 0.03367 0.95589 0.68935 0.0
H382 H 0.14269 0.99373 0.68122 0.0
H383 H 0.16807 0.96333 0.75146 0.0
C384 C 0.12863 0.92986 0.80694 0.0
C385 C 0.10432 0.91464 0.83384 0.0
C386 C 0.11529 0.943 0.76251 0.0
C387 C 0.067 0.91039 0.81391 0.0
C388 C 0.05366 0.92278 0.76924 0.0
C389 C 0.06316 0.95653 0.70213 0.0
C390 C 0.08633 0.97695 0.68026 0.0
C391 C 0.07729 0.94009 0.74389 0.0
C392 C 0.12438 0.97812 0.69758 0.0
C393 C 0.13884 0.96095 0.73794 0.0
loop_
_geom_bond_atom_site_label_1
_geom_bond_atom_site_label_2
_geom_bond_distance
_geom_bond_site_symmetry_2
_ccdc_geom_bond_type
C0 C1 1.264 . S
C0 C5 1.479 . S
C0 C10 1.465 . S
C1 C0 1.264 . S
C1 C3 1.339 . S
C1 H28 0.931 . S
C2 C3 1.395 . S
C2 C4 1.320 . S
C3 C1 1.339 . S
C3 C2 1.395 . S
C3 H29 0.929 . S
C4 C2 1.320 . S
C4 C5 1.405 . S
C4 H30 0.930 . S
C5 C0 1.479 . S
C5 C4 1.405 . S
C5 H31 0.931 . S
U6 O7 2.454 . S
U6 O8 2.458 . S
U6 C9 2.984 . S
U6 C10 2.847 . S
U6 C23 2.882 . S
U6 O24 2.441 . S
U6 O25 2.420 . S
U6 O26 2.455 . S
U6 O27 2.449 . S
O7 U6 2.454 . S
O7 C9 1.353 . S
O8 U6 2.458 . S
O8 C9 1.286 . S
C9 U6 2.984 . S
C9 O7 1.353 . S
C9 O8 1.286 . S
C9 C11 1.363 . S
C10 C0 1.465 . S
C10 U6 2.847 . S
C10 O24 1.249 . S
C10 O25 1.202 . S
C11 C9 1.363 . S
C11 C13 1.408 . S
C11 C16 1.342 . S
C12 C13 1.310 . S
C12 C15 1.461 . S
C12 H32 0.932 . S
C13 C11 1.408 . S
C13 C12 1.310 . S
C13 H33 0.930 . S
C14 C15 1.474 . S
C14 C16 1.285 . S
C14 H34 0.929 . S
C15 C12 1.461 . S
C15 C14 1.474 . S
C16 C11 1.342 . S
C16 C14 1.285 . S
C16 H35 0.930 . S
C17 C20 1.424 . S
C17 C22 1.245 . S
C17 C23 1.428 1_556 S
C18 C21 1.260 . S
C18 C22 1.477 . S
C18 H36 0.932 . S
C19 C20 1.384 . S
C19 C21 1.479 . S
C19 H37 0.929 . S
C20 C17 1.424 . S
C20 C19 1.384 . S
C20 H38 0.928 . S
C21 C18 1.260 . S
C21 C19 1.479 . S
C22 C17 1.245 . S
C22 C18 1.477 . S
C22 H39 0.932 . S
C23 U6 2.882 . S
C23 C17 1.428 1_554 S
C23 O26 1.301 . S
C23 O27 1.282 . S
O24 U6 2.441 . S
O24 C10 1.249 . S
O25 U6 2.420 . S
O25 C10 1.202 . S
O26 U6 2.455 . S
O26 C23 1.301 . S
O27 U6 2.449 . S
O27 C23 1.282 . S
H28 C1 0.931 . S
H29 C3 0.929 . S
H30 C4 0.930 . S
H31 C5 0.931 . S
H32 C12 0.932 . S
H33 C13 0.930 . S
H34 C14 0.929 . S
H35 C16 0.930 . S
H36 C18 0.932 . S
H37 C19 0.929 . S
H38 C20 0.928 . S
H39 C22 0.932 . S
C40 C41 1.264 . S
C40 C45 1.479 . S
C40 C50 1.465 . S
C41 C40 1.264 . S
C41 C43 1.339 . S
C41 H68 0.931 . S
C42 C43 1.395 . S
C42 C44 1.320 . S
C43 C41 1.339 . S
C43 C42 1.395 . S
C43 H69 0.929 . S
C44 C42 1.320 . S
C44 C45 1.405 . S
C44 H70 0.930 . S
C45 C40 1.479 . S
C45 C44 1.405 . S
C45 H71 0.931 . S
U46 O47 2.454 . S
U46 O48 2.458 . S
U46 C49 2.984 . S
U46 C50 2.847 . S
U46 C63 2.882 . S
U46 O64 2.441 . S
U46 O65 2.420 . S
U46 O66 2.455 . S
U46 O67 2.449 . S
O47 U46 2.454 . S
O47 C49 1.353 . S
O48 U46 2.458 . S
O48 C49 1.286 . S
C49 U46 2.984 . S
C49 O47 1.353 . S
C49 O48 1.286 . S
C49 C51 1.363 . S
C50 C40 1.465 . S
C50 U46 2.847 . S
C50 O64 1.249 . S
C50 O65 1.202 . S
C51 C49 1.363 . S
C51 C53 1.408 . S
C51 C56 1.342 . S
C52 C53 1.310 . S
C52 C55 1.461 . S
C52 H72 0.932 . S
C53 C51 1.408 . S
C53 C52 1.310 . S
C53 H73 0.930 . S
C54 C55 1.474 . S
C54 C56 1.285 . S
C54 H74 0.929 . S
C55 C52 1.461 . S
C55 C54 1.474 . S
C56 C51 1.342 . S
C56 C54 1.285 . S
C56 H75 0.930 . S
C57 C60 1.424 . S
C57 C62 1.245 . S
C57 C63 1.428 . S
C58 C61 1.260 . S
C58 C62 1.477 . S
C58 H76 0.932 . S
C59 C60 1.384 . S
C59 C61 1.479 . S
C59 H77 0.929 . S
C60 C57 1.424 . S
C60 C59 1.384 . S
C60 H78 0.928 . S
C61 C58 1.260 . S
C61 C59 1.479 . S
C62 C57 1.245 . S
C62 C58 1.477 . S
C62 H79 0.932 . S
C63 U46 2.882 . S
C63 C57 1.428 . S
C63 O66 1.301 . S
C63 O67 1.282 . S
O64 U46 2.441 . S
O64 C50 1.249 . S
O65 U46 2.420 . S
O65 C50 1.202 . S
O66 U46 2.455 . S
O66 C63 1.301 . S
O67 U46 2.449 . S
O67 C63 1.282 . S
H68 C41 0.931 . S
H69 C43 0.929 . S
H70 C44 0.930 . S
H71 C45 0.931 . S
H72 C52 0.932 . S
H73 C53 0.930 . S
H74 C54 0.929 . S
H75 C56 0.930 . S
H76 C58 0.932 . S
H77 C59 0.929 . S
H78 C60 0.928 . S
H79 C62 0.932 . S
C80 C81 1.264 . S
C80 C85 1.479 . S
C80 C90 1.465 . S
C81 C80 1.264 . S
C81 C83 1.339 . S
C81 H108 0.931 . S
C82 C83 1.395 . S
C82 C84 1.320 . S
C83 C81 1.339 . S
C83 C82 1.395 . S
C83 H109 0.929 . S
C84 C82 1.320 . S
C84 C85 1.405 . S
C84 H110 0.930 . S
C85 C80 1.479 . S
C85 C84 1.405 . S
C85 H111 0.931 . S
U86 O87 2.454 . S
U86 O88 2.458 1_554 S
U86 C89 2.984 1_554 S
U86 C90 2.847 . S
U86 C103 2.882 1_554 S
U86 O104 2.441 . S
U86 O105 2.420 . S
U86 O106 2.455 1_554 S
U86 O107 2.449 1_554 S
O87 U86 2.454 . S
O87 C89 1.353 1_554 S
O88 U86 2.458 1_556 S
O88 C89 1.286 . S
C89 U86 2.984 1_556 S
C89 O87 1.353 1_556 S
C89 O88 1.286 . S
C89 C91 1.363 . S
C90 C80 1.465 . S
C90 U86 2.847 . S
C90 O104 1.249 . S
C90 O105 1.202 . S
C91 C89 1.363 . S
C91 C93 1.408 1_556 S
C91 C96 1.342 . S
C92 C93 1.310 . S
C92 C95 1.461 1_554 S
C92 H112 0.932 . S
C93 C91 1.408 1_554 S
C93 C92 1.310 . S
C93 H113 0.930 . S
C94 C95 1.474 . S
C94 C96 1.285 . S
C94 H114 0.929 . S
C95 C92 1.461 1_556 S
C95 C94 1.474 . S
C96 C91 1.342 . S
C96 C94 1.285 . S
C96 H115 0.930 . S
C97 C100 1.424 . S
C97 C102 1.245 . S
C97 C103 1.428 . S
C98 C101 1.260 . S
C98 C102 1.477 . S
C98 H116 0.932 . S
C99 C100 1.384 . S
C99 C101 1.479 . S
C99 H117 0.929 . S
C100 C97 1.424 . S
C100 C99 1.384 . S
C100 H118 0.928 . S
C101 C98 1.260 . S
C101 C99 1.479 . S
C102 C97 1.245 . S
C102 C98 1.477 . S
C102 H119 0.932 . S
C103 U86 2.882 1_556 S
C103 C97 1.428 . S
C103 O106 1.301 . S
C103 O107 1.282 . S
O104 U86 2.441 . S
O104 C90 1.249 . S
O105 U86 2.420 . S
O105 C90 1.202 . S
O106 U86 2.455 1_556 S
O106 C103 1.301 . S
O107 U86 2.449 1_556 S
O107 C103 1.282 . S
H108 C81 0.931 . S
H109 C83 0.929 . S
H110 C84 0.930 . S
H111 C85 0.931 . S
H112 C92 0.932 . S
H113 C93 0.930 . S
H114 C94 0.929 . S
H115 C96 0.930 . S
H116 C98 0.932 . S
H117 C99 0.929 . S
H118 C100 0.928 . S
H119 C102 0.932 . S
C120 C121 1.264 . S
C120 C125 1.479 . S
C120 C130 1.465 . S
C121 C120 1.264 . S
C121 C123 1.339 . S
C121 H148 0.931 . S
C122 C123 1.395 . S
C122 C124 1.320 . S
C123 C121 1.339 . S
C123 C122 1.395 . S
C123 H149 0.929 . S
C124 C122 1.320 . S
C124 C125 1.405 . S
C124 H150 0.930 . S
C125 C120 1.479 . S
C125 C124 1.405 . S
C125 H151 0.931 . S
U126 O127 2.454 . S
U126 O128 2.458 . S
U126 C129 2.984 . S
U126 C130 2.847 . S
U126 C143 2.882 . S
U126 O144 2.441 . S
U126 O145 2.420 . S
U126 O146 2.455 . S
U126 O147 2.449 . S
O127 U126 2.454 . S
O127 C129 1.353 . S
O128 U126 2.458 . S
O128 C129 1.286 . S
C129 U126 2.984 . S
C129 O127 1.353 . S
C129 O128 1.286 . S
C129 C131 1.363 . S
C130 C120 1.465 . S
C130 U126 2.847 . S
C130 O144 1.249 . S
C130 O145 1.202 . S
C131 C129 1.363 . S
C131 C133 1.408 . S
C131 C136 1.342 . S
C132 C133 1.310 . S
C132 C135 1.461 . S
C132 H152 0.932 . S
C133 C131 1.408 . S
C133 C132 1.310 . S
C133 H153 0.930 . S
C134 C135 1.474 . S
C134 C136 1.285 . S
C134 H154 0.929 . S
C135 C132 1.461 . S
C135 C134 1.474 . S
C136 C131 1.342 . S
C136 C134 1.285 . S
C136 H155 0.930 . S
C137 C140 1.424 . S
C137 C142 1.245 . S
C137 C143 1.428 . S
C138 C141 1.260 . S
C138 C142 1.477 . S
C138 H156 0.932 . S
C139 C140 1.384 . S
C139 C141 1.479 . S
C139 H157 0.929 . S
C140 C137 1.424 . S
C140 C139 1.384 . S
C140 H158 0.928 . S
C141 C138 1.260 . S
C141 C139 1.479 . S
C142 C137 1.245 . S
C142 C138 1.477 . S
C142 H159 0.932 . S
C143 U126 2.882 . S
C143 C137 1.428 . S
C143 O146 1.301 . S
C143 O147 1.282 . S
O144 U126 2.441 . S
O144 C130 1.249 . S
O145 U126 2.420 . S
O145 C130 1.202 . S
O146 U126 2.455 . S
O146 C143 1.301 . S
O147 U126 2.449 . S
O147 C143 1.282 . S
H148 C121 0.931 . S
H149 C123 0.929 . S
H150 C124 0.930 . S
H151 C125 0.931 . S
H152 C132 0.932 . S
H153 C133 0.930 . S
H154 C134 0.929 . S
H155 C136 0.930 . S
H156 C138 0.932 . S
H157 C139 0.929 . S
H158 C140 0.928 . S
H159 C142 0.932 . S
O160 Mg161 1.990 1_655 S
O160 C174 1.253 . S
Mg161 O160 1.990 1_455 S
Mg161 O164 2.180 . S
Mg161 O165 2.117 . S
Mg161 O179 2.030 . S
O162 Mg163 2.072 1_655 S
O162 C174 1.260 . S
Mg163 O162 2.072 1_455 S
Mg163 O164 2.099 . S
Mg163 O166 2.079 1_545 S
Mg163 O167 2.072 1_455 S
Mg163 O169 2.099 1_445 S
Mg163 O180 2.079 1_545 S
O164 Mg161 2.180 . S
O164 Mg163 2.099 . S
O164 C175 1.279 . S
O165 Mg161 2.117 . S
O165 C175 1.250 . S
O166 Mg163 2.079 1_565 S
O166 C176 1.264 . S
O167 Mg163 2.072 1_655 S
O167 C177 1.260 . S
Mg168 O169 2.180 . S
Mg168 O170 2.030 1_655 S
Mg168 O171 1.990 1_565 S
Mg168 O172 2.117 . S
O169 Mg163 2.099 1_665 S
O169 Mg168 2.180 . S
O169 C178 1.279 . S
O170 Mg168 2.030 1_455 S
O170 C176 1.248 . S
O171 Mg168 1.990 1_545 S
O171 C177 1.253 . S
O172 Mg168 2.117 . S
O172 C178 1.250 . S
C173 O179 1.248 1_565 S
C173 O180 1.264 . S
C174 O160 1.253 . S
C174 O162 1.260 . S
C175 O164 1.279 . S
C175 O165 1.250 . S
C176 O166 1.264 . S
C176 O170 1.248 . S
C177 O167 1.260 . S
C177 O171 1.253 . S
C178 O169 1.279 . S
C178 O172 1.250 . S
O179 Mg161 2.030 . S
O179 C173 1.248 1_545 S
O180 Mg163 2.079 1_565 S
O180 C173 1.264 . S
O181 Mg182 1.990 . S
O181 C195 1.253 . S
Mg182 O181 1.990 . S
Mg182 O185 2.180 . S
Mg182 O186 2.117 . S
Mg182 O200 2.030 . S
O183 Mg184 2.072 . S
O183 C195 1.260 . S
Mg184 O183 2.072 . S
Mg184 O185 2.099 . S
Mg184 O187 2.079 1_554 S
Mg184 O188 2.072 1_554 S
Mg184 O190 2.099 . S
Mg184 O201 2.079 . S
O185 Mg182 2.180 . S
O185 Mg184 2.099 . S
O185 C196 1.279 . S
O186 Mg182 2.117 . S
O186 C196 1.250 . S
O187 Mg184 2.079 1_556 S
O187 C197 1.264 . S
O188 Mg184 2.072 1_556 S
O188 C198 1.260 . S
Mg189 O190 2.180 1_556 S
Mg189 O191 2.030 . S
Mg189 O192 1.990 . S
Mg189 O193 2.117 . S
O190 Mg184 2.099 . S
O190 Mg189 2.180 1_554 S
O190 C199 1.279 . S
O191 Mg189 2.030 . S
O191 C197 1.248 . S
O192 Mg189 1.990 . S
O192 C198 1.253 . S
O193 Mg189 2.117 . S
O193 C199 1.250 1_556 S
C194 O200 1.248 . S
C194 O201 1.264 . S
C195 O181 1.253 . S
C195 O183 1.260 . S
C196 O185 1.279 . S
C196 O186 1.250 . S
C197 O187 1.264 . S
C197 O191 1.248 . S
C198 O188 1.260 . S
C198 O192 1.253 . S
C199 O190 1.279 . S
C199 O193 1.250 1_554 S
O200 Mg182 2.030 . S
O200 C194 1.248 . S
O201 Mg184 2.079 . S
O201 C194 1.264 . S
H202 C208 0.930 . S
H203 C211 0.930 . S
H204 C212 0.930 . S
H205 C213 0.930 . S
H206 C216 0.930 1_655 S
H207 C217 0.953 . S
C208 H202 0.930 . S
C208 C209 1.355 . S
C208 C210 1.415 . S
C209 C208 1.355 . S
C209 C211 1.419 . S
C210 C208 1.415 . S
C210 C215 1.425 . S
C210 C217 1.409 . S
C211 H203 0.930 . S
C211 C209 1.419 . S
C211 C212 1.362 . S
C212 H204 0.930 . S
C212 C211 1.362 . S
C212 C215 1.409 . S
C213 H205 0.930 . S
C213 C214 1.355 . S
C213 C215 1.415 . S
C214 C213 1.355 . S
C214 C216 1.419 . S
C215 C210 1.425 . S
C215 C212 1.409 . S
C215 C213 1.415 . S
C216 H206 0.930 1_455 S
C216 C214 1.419 . S
C216 C217 1.362 . S
C217 H207 0.953 . S
C217 C210 1.409 . S
C217 C216 1.362 . S
H218 C224 0.930 . S
H219 C227 0.930 . S
H220 C228 0.930 . S
H221 C229 0.930 . S
H222 C232 0.930 1_556 S
H223 C233 0.930 1_556 S
C224 H218 0.930 . S
C224 C225 1.355 . S
C224 C226 1.415 . S
C225 C224 1.355 . S
C225 C227 1.419 . S
C226 C224 1.415 . S
C226 C231 1.425 . S
C226 C233 1.409 . S
C227 H219 0.930 . S
C227 C225 1.419 . S
C227 C228 1.362 . S
C228 H220 0.930 . S
C228 C227 1.362 . S
C228 C231 1.409 . S
C229 H221 0.930 . S
C229 C230 1.355 . S
C229 C231 1.415 . S
C230 C229 1.355 . S
C230 C232 1.419 . S
C231 C226 1.425 . S
C231 C228 1.409 . S
C231 C229 1.415 . S
C232 H222 0.930 1_554 S
C232 C230 1.419 . S
C232 C233 1.362 . S
C233 H223 0.930 1_554 S
C233 C226 1.409 . S
C233 C232 1.362 . S
H234 C240 0.930 . S
H235 C243 0.930 . S
H236 C244 0.930 . S
H237 C245 0.930 . S
H238 C248 0.930 . S
H239 C249 0.930 . S
C240 H234 0.930 . S
C240 C241 1.355 . S
C240 C242 1.415 . S
C241 C240 1.355 . S
C241 C243 1.419 . S
C242 C240 1.415 . S
C242 C247 1.425 . S
C242 C249 1.409 . S
C243 H235 0.930 . S
C243 C241 1.419 . S
C243 C244 1.362 . S
C244 H236 0.930 . S
C244 C243 1.362 . S
C244 C247 1.409 . S
C245 H237 0.930 . S
C245 C246 1.355 . S
C245 C247 1.415 . S
C246 C245 1.355 . S
C246 C248 1.419 . S
C247 C242 1.425 . S
C247 C244 1.409 . S
C247 C245 1.415 . S
C248 H238 0.930 . S
C248 C246 1.419 . S
C248 C249 1.362 . S
C249 H239 0.930 . S
C249 C242 1.409 . S
C249 C248 1.362 . S
H250 C256 0.930 . S
H251 C259 0.930 . S
H252 C260 0.930 . S
H253 C261 0.930 . S
H254 C264 0.930 . S
H255 C265 0.930 . S
C256 H250 0.930 . S
C256 C257 1.355 . S
C256 C258 1.415 . S
C257 C256 1.355 . S
C257 C259 1.419 1_556 S
C258 C256 1.415 . S
C258 C263 1.425 1_556 S
C258 C265 1.409 . S
C259 H251 0.930 . S
C259 C257 1.419 1_554 S
C259 C260 1.362 . S
C260 H252 0.930 . S
C260 C259 1.362 . S
C260 C263 1.409 . S
C261 H253 0.930 . S
C261 C262 1.355 . S
C261 C263 1.415 . S
C262 C261 1.355 . S
C262 C264 1.419 1_554 S
C263 C258 1.425 1_554 S
C263 C260 1.409 . S
C263 C261 1.415 . S
C264 H254 0.930 . S
C264 C262 1.419 1_556 S
C264 C265 1.362 . S
C265 H255 0.930 . S
C265 C258 1.409 . S
C265 C264 1.362 . S
H266 C272 0.930 . S
H267 C275 0.930 . S
H268 C276 0.930 . S
H269 C277 0.930 . S
H270 C280 0.930 1_545 S
H271 C281 0.930 1_545 S
C272 H266 0.930 . S
C272 C273 1.355 . S
C272 C274 1.415 . S
C273 C272 1.355 . S
C273 C275 1.419 . S
C274 C272 1.415 . S
C274 C279 1.425 . S
C274 C281 1.409 . S
C275 H267 0.930 . S
C275 C273 1.419 . S
C275 C276 1.362 . S
C276 H268 0.930 . S
C276 C275 1.362 . S
C276 C279 1.409 . S
C277 H269 0.930 . S
C277 C278 1.355 . S
C277 C279 1.415 . S
C278 C277 1.355 . S
C278 C280 1.419 . S
C279 C274 1.425 . S
C279 C276 1.409 . S
C279 C277 1.415 . S
C280 H270 0.930 1_565 S
C280 C278 1.419 . S
C280 C281 1.362 . S
C281 H271 0.930 1_565 S
C281 C274 1.409 . S
C281 C280 1.362 . S
H282 C288 0.930 . S
H283 C291 0.930 . S
H284 C292 0.930 . S
H285 C293 0.930 . S
H286 C296 0.930 . S
H287 C297 0.930 . S
C288 H282 0.930 . S
C288 C289 1.355 . S
C288 C290 1.415 . S
C289 C288 1.355 . S
C289 C291 1.419 . S
C290 C288 1.415 . S
C290 C295 1.425 . S
C290 C297 1.409 . S
C291 H283 0.930 . S
C291 C289 1.419 . S
C291 C292 1.362 . S
C292 H284 0.930 . S
C292 C291 1.362 . S
C292 C295 1.409 . S
C293 H285 0.930 . S
C293 C294 1.355 . S
C293 C295 1.415 . S
C294 C293 1.355 . S
C294 C296 1.419 . S
C295 C290 1.425 . S
C295 C292 1.409 . S
C295 C293 1.415 . S
C296 H286 0.930 . S
C296 C294 1.419 . S
C296 C297 1.362 . S
C297 H287 0.930 . S
C297 C290 1.409 . S
C297 C296 1.362 . S
H298 C304 0.930 . S
H299 C307 0.930 . S
H300 C308 0.930 . S
H301 C309 0.930 . S
H302 C312 0.930 . S
H303 C313 0.930 . S
C304 H298 0.930 . S
C304 C305 1.355 . S
C304 C306 1.415 . S
C305 C304 1.355 . S
C305 C307 1.419 . S
C306 C304 1.415 . S
C306 C311 1.425 . S
C306 C313 1.409 . S
C307 H299 0.930 . S
C307 C305 1.419 . S
C307 C308 1.362 . S
C308 H300 0.930 . S
C308 C307 1.362 . S
C308 C311 1.409 . S
C309 H301 0.930 . S
C309 C310 1.355 . S
C309 C311 1.415 . S
C310 C309 1.355 . S
C310 C312 1.419 . S
C311 C306 1.425 . S
C311 C308 1.409 . S
C311 C309 1.415 . S
C312 H302 0.930 . S
C312 C310 1.419 . S
C312 C313 1.362 . S
C313 H303 0.930 . S
C313 C306 1.409 . S
C313 C312 1.362 . S
H314 C320 0.930 . S
H315 C323 0.930 . S
H316 C324 0.930 . S
H317 C325 0.930 . S
H318 C328 0.930 . S
H319 C329 0.930 . S
C320 H314 0.930 . S
C320 C321 1.355 . S
C320 C322 1.415 . S
C321 C320 1.355 . S
C321 C323 1.419 . S
C322 C320 1.415 . S
C322 C327 1.425 . S
C322 C329 1.409 . S
C323 H315 0.930 . S
C323 C321 1.419 . S
C323 C324 1.362 . S
C324 H316 0.930 . S
C324 C323 1.362 . S
C324 C327 1.409 . S
C325 H317 0.930 . S
C325 C326 1.355 . S
C325 C327 1.415 . S
C326 C325 1.355 . S
C326 C328 1.419 . S
C327 C322 1.425 . S
C327 C324 1.409 . S
C327 C325 1.415 . S
C328 H318 0.930 . S
C328 C326 1.419 . S
C328 C329 1.362 . S
C329 H319 0.930 . S
C329 C322 1.409 . S
C329 C328 1.362 . S
H330 C336 0.930 . S
H331 C339 0.930 . S
H332 C340 0.930 . S
H333 C341 0.930 . S
H334 C344 0.930 . S
H335 C345 0.930 . S
C336 H330 0.930 . S
C336 C337 1.355 . S
C336 C338 1.415 . S
C337 C336 1.355 . S
C337 C339 1.419 . S
C338 C336 1.415 . S
C338 C343 1.425 . S
C338 C345 1.409 . S
C339 H331 0.930 . S
C339 C337 1.419 . S
C339 C340 1.362 . S
C340 H332 0.930 . S
C340 C339 1.362 . S
C340 C343 1.409 . S
C341 H333 0.930 . S
C341 C342 1.355 . S
C341 C343 1.415 . S
C342 C341 1.355 . S
C342 C344 1.419 . S
C343 C338 1.425 . S
C343 C340 1.409 . S
C343 C341 1.415 . S
C344 H334 0.930 . S
C344 C342 1.419 . S
C344 C345 1.362 . S
C345 H335 0.930 . S
C345 C338 1.409 . S
C345 C344 1.362 . S
H346 C352 0.930 . S
H347 C355 0.930 . S
H348 C356 0.930 . S
H349 C357 0.930 . S
H350 C360 0.930 . S
H351 C361 0.930 . S
C352 H346 0.930 . S
C352 C353 1.355 . S
C352 C354 1.415 . S
C353 C352 1.355 . S
C353 C355 1.419 . S
C354 C352 1.415 . S
C354 C359 1.425 . S
C354 C361 1.409 . S
C355 H347 0.930 . S
C355 C353 1.419 . S
C355 C356 1.362 . S
C356 H348 0.930 . S
C356 C355 1.362 . S
C356 C359 1.409 . S
C357 H349 0.930 . S
C357 C358 1.355 . S
C357 C359 1.415 . S
C358 C357 1.355 . S
C358 C360 1.419 . S
C359 C354 1.425 . S
C359 C356 1.409 . S
C359 C357 1.415 . S
C360 H350 0.930 . S
C360 C358 1.419 . S
C360 C361 1.362 . S
C361 H351 0.930 . S
C361 C354 1.409 . S
C361 C360 1.362 . S
H362 C368 0.930 . S
H363 C371 0.930 . S
H364 C372 0.930 . S
H365 C373 0.930 . S
H366 C376 0.930 . S
H367 C377 0.930 . S
C368 H362 0.930 . S
C368 C369 1.355 . S
C368 C370 1.415 . S
C369 C368 1.355 . S
C369 C371 1.419 . S
C370 C368 1.415 . S
C370 C375 1.425 . S
C370 C377 1.409 . S
C371 H363 0.930 . S
C371 C369 1.419 . S
C371 C372 1.362 . S
C372 H364 0.930 . S
C372 C371 1.362 . S
C372 C375 1.409 . S
C373 H365 0.930 . S
C373 C374 1.355 . S
C373 C375 1.415 . S
C374 C373 1.355 . S
C374 C376 1.419 . S
C375 C370 1.425 . S
C375 C372 1.409 . S
C375 C373 1.415 . S
C376 H366 0.930 . S
C376 C374 1.419 . S
C376 C377 1.362 . S
C377 H367 0.930 . S
C377 C370 1.409 . S
C377 C376 1.362 . S
H378 C384 0.930 . S
H379 C387 0.930 . S
H380 C388 0.930 . S
H381 C389 0.930 . S
H382 C392 0.930 . S
H383 C393 0.930 . S
C384 H378 0.930 . S
C384 C385 1.355 . S
C384 C386 1.415 . S
C385 C384 1.355 . S
C385 C387 1.419 . S
C386 C384 1.415 . S
C386 C391 1.425 . S
C386 C393 1.409 . S
C387 H379 0.930 . S
C387 C385 1.419 . S
C387 C388 1.362 . S
C388 H380 0.930 . S
C388 C387 1.362 . S
C388 C391 1.409 . S
C389 H381 0.930 . S
C389 C390 1.355 . S
C389 C391 1.415 . S
C390 C389 1.355 . S
C390 C392 1.419 . S
C391 C386 1.425 . S
C391 C388 1.409 . S
C391 C389 1.415 . S
C392 H382 0.930 . S
C392 C390 1.419 . S
C392 C393 1.362 . S
C393 H383 0.930 . S
C393 C386 1.409 . S
C393 C392 1.362 . S
C214 C175 1.434 . S
C209 C135 1.544 . S
C225 C15 1.569 . S
C230 C199 1.353 . S
C241 C55 1.705 . S
C246 C178 1.495 . S
C257 C95 1.676 . S
C262 C196 1.562 . S
C278 C176 1.683 . S
C273 C2 1.658 . S
C294 C198 1.602 . S
C289 C42 1.585 . S
C305 C82 1.614 . S
C310 C177 1.541 . S
C321 C141 1.645 . S
C326 C197 1.562 . S
C342 C195 1.581 . S
C337 C61 1.600 . S
C358 C174 1.657 . S
C353 C101 1.654 . S
C374 C194 1.680 . S
C369 C122 1.707 . S
C385 C21 1.674 . S
C390 C173 1.603 . S
