# Generated by pormake.
# Topology nia, (6,6)-cn, num edge types: 1
# Building blocks:
#     Node 0, Type 0, BuildingBlock: BETDIP_clean_sbu_0, # of connection points: 6
#     Node 1, Type 0, BuildingBlock: BETDIP_clean_sbu_0, # of connection points: 6
#     Node 2, Type 1, BuildingBlock: MIDCAF_clean_sbu_0, # of connection points: 6
#     Node 3, Type 1, BuildingBlock: MIDCAF_clean_sbu_0, # of connection points: 6
#     Edge 4, Type (0, 1), BuildingBlock: CIFDUS_clean_linker_0, # of connection points: 2
#     Edge 5, Type (0, 1), BuildingBlock: CIFDUS_clean_linker_0, # of connection points: 2
#     Edge 6, Type (0, 1), BuildingBlock: CIFDUS_clean_linker_0, # of connection points: 2
#     Edge 7, Type (0, 1), BuildingBlock: CIFDUS_clean_linker_0, # of connection points: 2
#     Edge 8, Type (0, 1), BuildingBlock: CIFDUS_clean_linker_0, # of connection points: 2
#     Edge 9, Type (0, 1), BuildingBlock: CIFDUS_clean_linker_0, # of connection points: 2
#     Edge 10, Type (0, 1), BuildingBlock: CIFDUS_clean_linker_0, # of connection points: 2
#     Edge 11, Type (0, 1), BuildingBlock: CIFDUS_clean_linker_0, # of connection points: 2
#     Edge 12, Type (0, 1), BuildingBlock: CIFDUS_clean_linker_0, # of connection points: 2
#     Edge 13, Type (0, 1), BuildingBlock: CIFDUS_clean_linker_0, # of connection points: 2
#     Edge 14, Type (0, 1), BuildingBlock: CIFDUS_clean_linker_0, # of connection points: 2
#     Edge 15, Type (0, 1), BuildingBlock: CIFDUS_clean_linker_0, # of connection points: 2
# Relax obj value: 0.326
# Max RMSD: 0.276
# Mean RMSD: 0.249
data_MOF--net-nia--node1-BETDIP_clean_sbu_0--node2-MIDCAF_clean_sbu_0--edge1-CIFDUS_clean_linker_0
_symmetry_space_group_name_H-M    P1
_symmetry_Int_Tables_number       1
_symmetry_cell_setting            triclinic
loop_
_symmetry_equiv_pos_as_xyz
'x, y, z'
_cell_length_a     25.632315
_cell_length_b     22.232729
_cell_length_c     30.031073
_cell_angle_alpha  103.40246
_cell_angle_beta   66.397993
_cell_angle_gamma 129.39079
loop_
_atom_site_label
_atom_site_type_symbol
_atom_site_fract_x
_atom_site_fract_y
_atom_site_fract_z
_atom_type_partial_charge
Tb0 Tb 0.98121 0.073 1.02056 0.0
Tb1 Tb 0.00591 0.97337 0.05743 0.0
C2 C 0.92244 0.1242 1.01089 0.0
C3 C 0.92448 0.15978 0.97361 0.0
C4 C 0.93971 0.23336 0.98153 0.0
C5 C 0.93372 0.26469 0.95014 0.0
C6 C 0.91178 0.22285 0.91019 0.0
C7 C 0.89879 0.15021 0.90131 0.0
C8 C 0.9052 0.11901 0.93263 0.0
C9 C 0.11377 0.11693 0.97562 0.0
C10 C 0.05287 0.13291 0.10254 0.0
C11 C 0.04062 0.89663 0.0693 0.0
C12 C 0.06413 0.89172 0.10488 0.0
C13 C 0.03769 0.81855 0.11864 0.0
C14 C 0.06614 0.8128 0.14719 0.0
C15 C 0.12202 0.8803 0.16205 0.0
C16 C 0.14561 0.95346 0.15053 0.0
C17 C 0.11664 0.95916 0.12239 0.0
C18 C 0.88935 0.96284 0.11031 0.0
C19 C 0.96261 0.92744 0.96115 0.0
O20 O 0.9779 0.16653 1.0257 0.0
O21 O 0.89702 0.05092 1.00628 0.0
O22 O 0.06225 0.0641 1.00721 0.0
O23 O 0.08974 0.14732 0.96581 0.0
O24 O 0.00831 0.12894 0.08748 0.0
O25 O 0.06749 0.08278 0.0897 0.0
O26 O 0.97398 0.87109 0.0839 0.0
O27 O 0.08548 0.9613 0.04297 0.0
O28 O 0.91782 0.9704 0.06466 0.0
O29 O 0.92306 0.95403 0.12769 0.0
O30 O 0.98057 0.91499 0.99188 0.0
O31 O 0.95671 0.98386 0.96575 0.0
H32 H 0.95395 0.26564 1.01307 0.0
H33 H 0.94308 0.32021 0.95853 0.0
H34 H 0.88238 0.11685 0.87064 0.0
H35 H 0.89311 0.06209 0.92544 0.0
H36 H -0.00289 0.76589 0.10558 0.0
H37 H 0.04748 0.75572 0.15509 0.0
H38 H 0.1883 1.00633 0.16181 0.0
H39 H 0.13738 0.01637 0.11274 0.0
Tb40 Tb 0.02631 0.06532 0.59732 0.0
Tb41 Tb 0.98374 0.02776 0.50351 0.0
C42 C 0.05839 0.06536 0.66601 0.0
C43 C 0.10283 0.0463 0.66816 0.0
C44 C 0.08989 0.01789 0.71139 0.0
C45 C 0.13902 1.01134 0.71497 0.0
C46 C 0.20264 0.03467 0.67558 0.0
C47 C 0.21212 0.05795 0.63138 0.0
C48 C 0.16255 0.06277 0.62763 0.0
C49 C 0.09511 0.18335 0.53704 0.0
C50 C 0.07903 0.98629 0.50553 0.0
C51 C 0.9775 0.04511 0.42659 0.0
C52 C 0.91842 0.02231 0.41292 0.0
C53 C 0.92653 0.02264 0.36393 0.0
C54 C 0.86819 0.9955 0.351 0.0
C55 C 0.80115 0.96737 0.38704 0.0
C56 C 0.79432 0.96994 0.43618 0.0
C57 C 0.85232 0.99684 0.44899 0.0
C58 C 0.89063 0.90772 0.56744 0.0
C59 C 0.91671 0.0876 0.60121 0.0
O60 O -0.0024 1.00763 0.65914 0.0
O61 O 0.09355 0.12708 0.63897 0.0
O62 O 0.07461 0.11497 0.52539 0.0
O63 O 0.08192 0.1877 0.58362 0.0
O64 O 0.06879 1.00406 0.55199 0.0
O65 O 0.05997 1.00163 0.47722 0.0
O66 O -0.00646 0.0977 0.45998 0.0
O67 O 0.97423 0.98719 0.4348 0.0
O68 O 0.94487 0.97473 0.56997 0.0
O69 O 0.88402 0.90718 0.52665 0.0
O70 O 0.93426 0.08128 0.5531 0.0
O71 O 0.93708 0.07078 0.62768 0.0
H72 H 0.04334 1.00364 0.74289 0.0
H73 H 0.12827 0.99086 0.7492 0.0
H74 H 0.2602 0.0779 0.60014 0.0
H75 H 0.17343 0.08407 0.59361 0.0
H76 H 0.9774 0.04221 0.3357 0.0
H77 H 0.87478 0.99387 0.31289 0.0
H78 H 0.74362 0.94989 0.46478 0.0
H79 H 0.84523 0.9964 0.48703 0.0
Zn80 Zn 0.34991 0.67508 0.21922 0.0
Zn81 Zn 0.26798 0.66249 0.40314 0.0
Zn82 Zn 0.30591 0.66247 0.31319 0.0
C83 C 0.41222 0.73143 0.37221 0.0
C84 C 0.19654 0.50785 0.38389 0.0
O85 O 0.26695 0.71522 0.29422 0.0
O86 O 0.31122 0.72532 0.21379 0.0
C87 C 0.47321 0.75081 0.23714 0.0
O88 O 0.40435 0.72339 0.33094 0.0
O89 O 0.35891 0.70647 0.41085 0.0
O90 O 0.19466 0.55137 0.41886 0.0
O91 O 0.23537 0.53782 0.34029 0.0
O92 O 0.45409 0.73808 0.20125 0.0
O93 O 0.42601 0.72647 0.28026 0.0
O94 O 0.24451 0.54084 0.28977 0.0
O95 O 0.29391 0.56109 0.20994 0.0
C96 C 0.24926 0.51472 0.24643 0.0
O97 O 0.25911 0.72879 0.34384 0.0
O98 O 0.23654 0.72724 0.42267 0.0
C99 C 0.27414 0.73428 0.25354 0.0
C100 C 0.23716 0.74893 0.38716 0.0
Zn101 Zn 0.66638 0.40276 0.85918 0.0
Zn102 Zn 0.70182 0.38612 0.68229 0.0
Zn103 Zn 0.68761 0.39624 0.76698 0.0
C104 C 0.74339 0.53248 0.69898 0.0
C105 C 0.56139 0.26465 0.72465 0.0
O106 O 0.73532 0.34933 0.78107 0.0
O107 O 0.69694 0.34192 0.86154 0.0
C108 C 0.76177 0.5567 0.82194 0.0
O109 O 0.74532 0.51506 0.73617 0.0
O110 O 0.71636 0.48012 0.66986 0.0
O111 O 0.60971 0.28396 0.68357 0.0
O112 O 0.57802 0.30667 0.76144 0.0
O113 O 0.73624 0.51749 0.85936 0.0
O114 O 0.74723 0.52233 0.78304 0.0
O115 O 0.57114 0.33753 0.80837 0.0
O116 O 0.56347 0.35682 0.8858 0.0
C117 C 0.53432 0.33239 0.85386 0.0
O118 O 0.74576 0.34445 0.72977 0.0
O119 O 0.78376 0.38283 0.65463 0.0
C120 C 0.73028 0.33025 0.82084 0.0
C121 C 0.78278 0.34998 0.68436 0.0
H122 H 0.06797 0.78512 0.23721 0.0
H123 H 0.26588 0.9613 0.133 0.0
H124 H 0.33203 0.9373 0.15646 0.0
H125 H 0.33143 0.85489 0.1986 0.0
H126 H 0.13566 0.67986 0.30398 0.0
H127 H 0.07069 0.71507 0.28864 0.0
C128 C 0.12572 0.81898 0.22033 0.0
C129 C 0.16195 0.87441 0.18317 0.0
C130 C 0.16356 0.8046 0.23388 0.0
C131 C 0.23686 0.91866 0.16188 0.0
C132 C 0.27468 0.90456 0.17498 0.0
C133 C 0.27476 0.82549 0.21875 0.0
C134 C 0.23788 0.76442 0.25178 0.0
C135 C 0.23827 0.84604 0.20973 0.0
C136 C 0.16481 0.72704 0.27826 0.0
C137 C 0.12776 0.74689 0.26929 0.0
H138 H 0.23654 0.06784 0.75892 0.0
H139 H 0.30728 0.02491 0.60625 0.0
H140 H 0.42568 0.0888 0.60867 0.0
H141 H 0.51348 0.17775 0.6504 0.0
H142 H 0.43909 0.19337 0.80543 0.0
H143 H 0.31596 0.11747 0.8062 0.0
C144 C 0.27637 0.06942 0.72633 0.0
C145 C 0.2637 0.04621 0.68155 0.0
C146 C 0.34401 0.10343 0.72819 0.0
C147 C 0.31649 0.0472 0.64053 0.0
C148 C 0.38434 0.08313 0.64186 0.0
C149 C 0.47044 0.164 0.68462 0.0
C150 C 0.48611 0.1994 0.72752 0.0
C151 C 0.39969 0.11555 0.68485 0.0
C152 C 0.42904 0.17542 0.77157 0.0
C153 C 0.35854 0.12993 0.77197 0.0
H154 H 0.00807 0.20047 0.18203 0.0
H155 H 0.19337 0.21485 0.08433 0.0
H156 H 0.26927 0.32796 0.12551 0.0
H157 H 0.28551 0.42969 0.18414 0.0
H158 H 0.10289 0.41694 0.28483 0.0
H159 H 0.02298 0.29518 0.24913 0.0
C160 C 0.065 0.2286 0.17007 0.0
C161 C 0.09542 0.20032 0.12978 0.0
C162 C 0.10857 0.29314 0.19486 0.0
C163 C 0.16891 0.23594 0.11509 0.0
C164 C 0.21239 0.3005 0.13867 0.0
C165 C 0.22791 0.39884 0.19918 0.0
C166 C 0.19989 0.4317 0.2369 0.0
C167 C 0.18307 0.33022 0.17805 0.0
C168 C 0.12538 0.39184 0.25615 0.0
C169 C 0.07994 0.323 0.23519 0.0
H170 H 0.91979 0.1844 0.55861 0.0
H171 H 0.83696 0.07808 0.69746 0.0
H172 H 0.78875 0.15096 0.73644 0.0
H173 H 0.77012 0.24509 0.72987 0.0
H174 H 0.87074 0.36384 0.59214 0.0
H175 H 0.91306 0.28678 0.55399 0.0
C176 C 0.8913 0.17701 0.59745 0.0
C177 C 0.88169 0.12552 0.62499 0.0
C178 C 0.86783 0.22232 0.6199 0.0
C179 C 0.84478 0.11709 0.67535 0.0
C180 C 0.81767 0.15915 0.69768 0.0
C181 C 0.80334 0.25606 0.69212 0.0
C182 C 0.81739 0.31093 0.66442 0.0
C183 C 0.82949 0.21262 0.67032 0.0
C184 C 0.85876 0.32221 0.61469 0.0
C185 C 0.88288 0.27784 0.5926 0.0
H186 H 0.78575 0.86017 0.18716 0.0
H187 H 0.83176 0.02054 0.09432 0.0
H188 H 0.70747 0.97358 0.12894 0.0
H189 H 0.58348 0.87816 0.17977 0.0
H190 H 0.53427 0.71383 0.2714 0.0
H191 H 0.66198 0.77193 0.24445 0.0
C192 C 0.76858 0.88548 0.17514 0.0
C193 C 0.81716 0.94216 0.13703 0.0
C194 C 0.69648 0.85738 0.1952 0.0
C195 C 0.7946 0.97486 0.12202 0.0
C196 C 0.72369 0.94847 0.14223 0.0
C197 C 0.60103 0.85598 0.19439 0.0
C198 C 0.55004 0.7925 0.22778 0.0
C199 C 0.67378 0.88822 0.17775 0.0
C200 C 0.57295 0.76357 0.24622 0.0
C201 C 0.64579 0.79633 0.23046 0.0
H202 H 0.93299 0.87901 0.62543 0.0
H203 H 0.75708 0.77752 0.57585 0.0
H204 H 0.69255 0.65402 0.61674 0.0
H205 H 0.69094 0.57204 0.65994 0.0
H206 H 0.86388 0.67184 0.71251 0.0
H207 H 0.92378 0.80034 0.67915 0.0
C208 C 0.87931 0.83116 0.62558 0.0
C209 C 0.84924 0.83802 0.59853 0.0
C210 C 0.84231 0.76003 0.64944 0.0
C211 C 0.78113 0.77377 0.59664 0.0
C212 C 0.74424 0.70313 0.61998 0.0
C213 C 0.7412 0.62225 0.66484 0.0
C214 C 0.77338 0.61252 0.68817 0.0
C215 C 0.77502 0.69515 0.64548 0.0
C216 C 0.83802 0.67802 0.69479 0.0
C217 C 0.87247 0.75124 0.67534 0.0
H218 H 0.16058 0.9798 0.41279 0.0
H219 H 0.05103 0.8816 0.55881 0.0
H220 H 0.08559 0.79653 0.53354 0.0
H221 H 0.14741 0.75078 0.47183 0.0
H222 H 0.27133 0.85618 0.32777 0.0
H223 H 0.22895 0.93544 0.34962 0.0
C224 C 0.14459 0.93978 0.43885 0.0
C225 C 0.10382 0.93768 0.48772 0.0
C226 C 0.16621 0.89138 0.42427 0.0
C227 C 0.08341 0.88555 0.52119 0.0
C228 C 0.10269 0.83629 0.50677 0.0
C229 C 0.16534 0.79097 0.44494 0.0
C230 C 0.21073 0.79562 0.39766 0.0
C231 C 0.14427 0.83902 0.45865 0.0
C232 C 0.23364 0.8486 0.36365 0.0
C233 C 0.2105 0.89508 0.37654 0.0
H234 H 0.21795 0.20652 0.8946 0.0
H235 H 0.18017 0.09981 1.01782 0.0
H236 H 0.30658 0.15618 0.99066 0.0
H237 H 0.42893 0.23901 0.93289 0.0
H238 H 0.46873 0.34883 0.81021 0.0
H239 H 0.34093 0.2893 0.83622 0.0
C240 C 0.23749 0.19515 0.91516 0.0
C241 C 0.18942 0.14719 0.9575 0.0
C242 C 0.3108 0.22925 0.89965 0.0
C243 C 0.21535 0.13368 0.98418 0.0
C244 C 0.288 0.16707 0.96902 0.0
C245 C 0.4095 0.25003 0.91201 0.0
C246 C 0.45771 0.29776 0.86967 0.0
C247 C 0.33623 0.21523 0.92697 0.0
C248 C 0.43224 0.31188 0.84283 0.0
C249 C 0.35932 0.27781 0.85766 0.0
H250 H 0.15685 0.22112 0.43832 0.0
H251 H 0.04529 0.26587 0.57688 0.0
H252 H 0.05071 0.35448 0.53803 0.0
H253 H 0.09636 0.42923 0.46778 0.0
H254 H 0.22744 0.40775 0.33031 0.0
H255 H 0.20202 0.29773 0.36446 0.0
C256 C 0.13347 0.25008 0.45965 0.0
C257 C 0.09992 0.23608 0.51046 0.0
C258 C 0.13945 0.30451 0.43706 0.0
C259 C 0.07089 0.27492 0.53781 0.0
C260 C 0.07366 0.32556 0.51559 0.0
C261 C 0.11865 0.39987 0.44476 0.0
C262 C 0.16456 0.42759 0.39674 0.0
C263 C 0.10884 0.34186 0.46559 0.0
C264 C 0.19177 0.38769 0.36741 0.0
C265 C 0.17823 0.32562 0.38726 0.0
H266 H 0.79701 0.14086 0.87958 0.0
H267 H -0.00779 0.37175 0.87565 0.0
H268 H 0.95791 0.42414 0.83934 0.0
H269 H 0.86482 0.40667 0.81908 0.0
H270 H 0.66691 0.17734 0.82802 0.0
H271 H 0.71037 0.12137 0.8506 0.0
C272 C 0.83298 0.2023 0.86959 0.0
C273 C 0.89678 0.25239 0.8808 0.0
C274 C 0.81224 0.23223 0.84957 0.0
C275 C 0.94227 0.3321 0.86814 0.0
C276 C 0.92278 0.36208 0.84726 0.0
C277 C 0.83254 0.3442 0.82437 0.0
C278 C 0.76356 0.2957 0.82107 0.0
C279 C 0.85685 0.3131 0.83924 0.0
C280 C 0.72077 0.21521 0.82954 0.0
C281 C 0.74534 0.18348 0.8429 0.0
H282 H 0.67152 0.83193 0.42309 0.0
H283 H 0.78731 0.02003 0.32113 0.0
H284 H 0.67719 0.96166 0.30506 0.0
H285 H 0.54519 0.86119 0.32539 0.0
H286 H 0.43279 0.67492 0.42796 0.0
H287 H 0.54406 0.72974 0.43958 0.0
C288 C 0.67262 0.8605 0.39756 0.0
C289 C 0.73686 0.93083 0.37409 0.0
C290 C 0.60956 0.82736 0.3891 0.0
C291 C 0.73817 0.96595 0.33988 0.0
C292 C 0.67524 0.93289 0.33094 0.0
C293 C 0.54573 0.83228 0.34956 0.0
C294 C 0.48142 0.764 0.37552 0.0
C295 C 0.61026 0.86421 0.35604 0.0
C296 C 0.48193 0.72762 0.40763 0.0
C297 C 0.54541 0.75874 0.41422 0.0
H298 H 0.86889 0.87737 0.91433 0.0
H299 H 0.02379 0.85589 0.91656 0.0
H300 H 0.98519 0.74752 0.86204 0.0
H301 H 0.89247 0.64365 0.82759 0.0
H302 H 0.73213 0.65709 0.82809 0.0
H303 H 0.78853 0.78444 0.86612 0.0
C304 C 0.89525 0.85011 0.90181 0.0
C305 C 0.94789 0.87337 0.92044 0.0
C306 C 0.87149 0.786 0.87104 0.0
C307 C 0.98194 0.83786 0.90372 0.0
C308 C 0.96006 0.77593 0.87239 0.0
C309 C 0.87194 0.67631 0.83411 0.0
C310 C 0.80884 0.64189 0.82502 0.0
C311 C 0.90275 0.74727 0.85774 0.0
C312 C 0.78147 0.68343 0.83426 0.0
C313 C 0.81309 0.75558 0.8567 0.0
loop_
_geom_bond_atom_site_label_1
_geom_bond_atom_site_label_2
_geom_bond_distance
_geom_bond_site_symmetry_2
_ccdc_geom_bond_type
Tb0 C2 2.809 . S
Tb0 O20 2.484 . S
Tb0 O21 2.440 1_655 S
Tb0 O22 2.658 1_655 S
Tb0 O23 2.409 1_655 S
Tb0 O24 2.378 1_656 S
Tb0 O28 2.325 1_546 S
Tb0 O31 2.341 1_545 S
Tb1 C11 2.809 . S
Tb1 O22 2.325 1_564 S
Tb1 O25 2.341 1_565 S
Tb1 O26 2.484 . S
Tb1 O27 2.440 1_455 S
Tb1 O28 2.658 1_455 S
Tb1 O29 2.409 1_455 S
Tb1 O30 2.378 1_455 S
C2 Tb0 2.809 . S
C2 C3 1.514 . S
C2 O20 1.248 . S
C2 O21 1.266 1_655 S
C3 C2 1.514 . S
C3 C4 1.359 . S
C3 C8 1.348 1_655 S
C4 C3 1.359 . S
C4 C5 1.380 . S
C4 H32 0.929 . S
C5 C4 1.380 . S
C5 C6 1.347 . S
C5 H33 0.931 . S
C6 C5 1.347 . S
C6 C7 1.369 . S
C7 C6 1.369 . S
C7 C8 1.408 1_655 S
C7 H34 0.930 1_655 S
C8 C3 1.348 1_455 S
C8 C7 1.408 1_455 S
C8 H35 0.930 . S
C9 O22 1.281 . S
C9 O23 1.254 . S
C10 O24 1.236 . S
C10 O25 1.266 . S
C11 Tb1 2.809 . S
C11 C12 1.514 . S
C11 O26 1.248 . S
C11 O27 1.266 1_455 S
C12 C11 1.514 . S
C12 C13 1.359 . S
C12 C17 1.348 . S
C13 C12 1.359 . S
C13 C14 1.380 . S
C13 H36 0.929 . S
C14 C13 1.380 . S
C14 C15 1.347 . S
C14 H37 0.931 . S
C15 C14 1.347 . S
C15 C16 1.369 . S
C16 C15 1.369 . S
C16 C17 1.408 . S
C16 H38 0.930 1_455 S
C17 C12 1.348 . S
C17 C16 1.408 . S
C17 H39 0.930 1_455 S
C18 O28 1.281 . S
C18 O29 1.254 . S
C19 O30 1.236 1_556 S
C19 O31 1.266 . S
O20 Tb0 2.484 . S
O20 C2 1.248 . S
O21 Tb0 2.440 1_455 S
O21 C2 1.266 1_455 S
O22 Tb0 2.658 1_455 S
O22 Tb1 2.325 1_546 S
O22 C9 1.281 . S
O23 Tb0 2.409 1_455 S
O23 C9 1.254 . S
O24 Tb0 2.378 1_454 S
O24 C10 1.236 . S
O25 Tb1 2.341 1_545 S
O25 C10 1.266 . S
O26 Tb1 2.484 . S
O26 C11 1.248 . S
O27 Tb1 2.440 1_655 S
O27 C11 1.266 1_655 S
O28 Tb0 2.325 1_564 S
O28 Tb1 2.658 1_655 S
O28 C18 1.281 . S
O29 Tb1 2.409 1_655 S
O29 C18 1.254 . S
O30 Tb1 2.378 1_655 S
O30 C19 1.236 1_554 S
O31 Tb0 2.341 1_565 S
O31 C19 1.266 . S
H32 C4 0.929 . S
H33 C5 0.931 . S
H34 C7 0.930 1_455 S
H35 C8 0.930 . S
H36 C13 0.929 . S
H37 C14 0.931 . S
H38 C16 0.930 1_655 S
H39 C17 0.930 1_655 S
Tb40 C42 2.809 . S
Tb40 O60 2.484 . S
Tb40 O61 2.440 . S
Tb40 O62 2.658 . S
Tb40 O63 2.409 . S
Tb40 O64 2.378 . S
Tb40 O68 2.325 1_445 S
Tb40 O71 2.341 1_455 S
Tb41 C51 2.809 . S
Tb41 O62 2.325 1_665 S
Tb41 O65 2.341 1_655 S
Tb41 O66 2.484 . S
Tb41 O67 2.440 . S
Tb41 O68 2.658 . S
Tb41 O69 2.409 . S
Tb41 O70 2.378 . S
C42 Tb40 2.809 . S
C42 C43 1.514 . S
C42 O60 1.248 . S
C42 O61 1.266 . S
C43 C42 1.514 . S
C43 C44 1.359 . S
C43 C48 1.348 . S
C44 C43 1.359 . S
C44 C45 1.380 . S
C44 H72 0.929 . S
C45 C44 1.380 . S
C45 C46 1.347 . S
C45 H73 0.931 . S
C46 C45 1.347 . S
C46 C47 1.369 . S
C47 C46 1.369 . S
C47 C48 1.408 . S
C47 H74 0.930 . S
C48 C43 1.348 . S
C48 C47 1.408 . S
C48 H75 0.930 . S
C49 O62 1.281 . S
C49 O63 1.254 . S
C50 O64 1.236 1_565 S
C50 O65 1.266 . S
C51 Tb41 2.809 . S
C51 C52 1.514 . S
C51 O66 1.248 . S
C51 O67 1.266 . S
C52 C51 1.514 . S
C52 C53 1.359 . S
C52 C57 1.348 . S
C53 C52 1.359 . S
C53 C54 1.380 . S
C53 H76 0.929 1_565 S
C54 C53 1.380 . S
C54 C55 1.347 . S
C54 H77 0.931 . S
C55 C54 1.347 . S
C55 C56 1.369 . S
C56 C55 1.369 . S
C56 C57 1.408 . S
C56 H78 0.930 . S
C57 C52 1.348 . S
C57 C56 1.408 . S
C57 H79 0.930 . S
C58 O68 1.281 . S
C58 O69 1.254 . S
C59 O70 1.236 1_545 S
C59 O71 1.266 . S
O60 Tb40 2.484 . S
O60 C42 1.248 . S
O61 Tb40 2.440 . S
O61 C42 1.266 . S
O62 Tb40 2.658 . S
O62 Tb41 2.325 1_445 S
O62 C49 1.281 . S
O63 Tb40 2.409 . S
O63 C49 1.254 . S
O64 Tb40 2.378 . S
O64 C50 1.236 1_545 S
O65 Tb41 2.341 1_455 S
O65 C50 1.266 . S
O66 Tb41 2.484 . S
O66 C51 1.248 . S
O67 Tb41 2.440 . S
O67 C51 1.266 . S
O68 Tb40 2.325 1_665 S
O68 Tb41 2.658 . S
O68 C58 1.281 . S
O69 Tb41 2.409 . S
O69 C58 1.254 . S
O70 Tb41 2.378 . S
O70 C59 1.236 1_565 S
O71 Tb40 2.341 1_655 S
O71 C59 1.266 . S
H72 C44 0.929 . S
H73 C45 0.931 . S
H74 C47 0.930 . S
H75 C48 0.930 . S
H76 C53 0.929 1_545 S
H77 C54 0.931 . S
H78 C56 0.930 . S
H79 C57 0.930 . S
Zn80 O86 1.920 . S
Zn80 O92 1.898 . S
Zn80 O95 1.905 . S
Zn81 O89 1.905 . S
Zn81 O90 1.898 . S
Zn81 O98 1.920 . S
Zn82 O85 2.080 . S
Zn82 O88 2.114 . S
Zn82 O91 2.120 . S
Zn82 O93 2.120 . S
Zn82 O94 2.114 . S
Zn82 O97 2.080 . S
C83 O88 1.166 . S
C83 O89 1.182 . S
C84 O90 1.167 . S
C84 O91 1.299 . S
O85 Zn82 2.080 . S
O85 C99 1.305 . S
O86 Zn80 1.920 . S
O86 C99 1.234 . S
C87 O92 1.167 . S
C87 O93 1.299 . S
O88 Zn82 2.114 . S
O88 C83 1.166 . S
O89 Zn81 1.905 . S
O89 C83 1.182 . S
O90 Zn81 1.898 . S
O90 C84 1.167 . S
O91 Zn82 2.120 . S
O91 C84 1.299 . S
O92 Zn80 1.898 . S
O92 C87 1.167 . S
O93 Zn82 2.120 . S
O93 C87 1.299 . S
O94 Zn82 2.114 . S
O94 C96 1.166 . S
O95 Zn80 1.905 . S
O95 C96 1.182 . S
C96 O94 1.166 . S
C96 O95 1.182 . S
O97 Zn82 2.080 . S
O97 C100 1.305 . S
O98 Zn81 1.920 . S
O98 C100 1.234 . S
C99 O85 1.305 . S
C99 O86 1.234 . S
C100 O97 1.305 . S
C100 O98 1.234 . S
Zn101 O107 1.920 . S
Zn101 O113 1.898 . S
Zn101 O116 1.905 . S
Zn102 O110 1.905 . S
Zn102 O111 1.898 . S
Zn102 O119 1.920 . S
Zn103 O106 2.080 . S
Zn103 O109 2.114 . S
Zn103 O112 2.120 . S
Zn103 O114 2.120 . S
Zn103 O115 2.114 . S
Zn103 O118 2.080 . S
C104 O109 1.166 . S
C104 O110 1.182 . S
C105 O111 1.167 . S
C105 O112 1.299 . S
O106 Zn103 2.080 . S
O106 C120 1.305 . S
O107 Zn101 1.920 . S
O107 C120 1.234 . S
C108 O113 1.167 . S
C108 O114 1.299 . S
O109 Zn103 2.114 . S
O109 C104 1.166 . S
O110 Zn102 1.905 . S
O110 C104 1.182 . S
O111 Zn102 1.898 . S
O111 C105 1.167 . S
O112 Zn103 2.120 . S
O112 C105 1.299 . S
O113 Zn101 1.898 . S
O113 C108 1.167 . S
O114 Zn103 2.120 . S
O114 C108 1.299 . S
O115 Zn103 2.114 . S
O115 C117 1.166 . S
O116 Zn101 1.905 . S
O116 C117 1.182 . S
C117 O115 1.166 . S
C117 O116 1.182 . S
O118 Zn103 2.080 . S
O118 C121 1.305 . S
O119 Zn102 1.920 . S
O119 C121 1.234 . S
C120 O106 1.305 . S
C120 O107 1.234 . S
C121 O118 1.305 . S
C121 O119 1.234 . S
H122 C128 0.930 . S
H123 C131 0.930 . S
H124 C132 0.930 . S
H125 C133 0.930 . S
H126 C136 0.930 . S
H127 C137 0.930 . S
C128 H122 0.930 . S
C128 C129 1.355 . S
C128 C130 1.415 . S
C129 C128 1.355 . S
C129 C131 1.419 . S
C130 C128 1.415 . S
C130 C135 1.425 . S
C130 C137 1.409 . S
C131 H123 0.930 . S
C131 C129 1.419 . S
C131 C132 1.362 . S
C132 H124 0.930 . S
C132 C131 1.362 . S
C132 C135 1.409 . S
C133 H125 0.930 . S
C133 C134 1.355 . S
C133 C135 1.415 . S
C134 C133 1.355 . S
C134 C136 1.419 . S
C135 C130 1.425 . S
C135 C132 1.409 . S
C135 C133 1.415 . S
C136 H126 0.930 . S
C136 C134 1.419 . S
C136 C137 1.362 . S
C137 H127 0.930 . S
C137 C130 1.409 . S
C137 C136 1.362 . S
H138 C144 0.930 . S
H139 C147 0.930 . S
H140 C148 0.930 . S
H141 C149 0.930 . S
H142 C152 0.930 . S
H143 C153 0.930 . S
C144 H138 0.930 . S
C144 C145 1.355 . S
C144 C146 1.415 . S
C145 C144 1.355 . S
C145 C147 1.419 . S
C146 C144 1.415 . S
C146 C151 1.425 . S
C146 C153 1.409 . S
C147 H139 0.930 . S
C147 C145 1.419 . S
C147 C148 1.362 . S
C148 H140 0.930 . S
C148 C147 1.362 . S
C148 C151 1.409 . S
C149 H141 0.930 . S
C149 C150 1.355 . S
C149 C151 1.415 . S
C150 C149 1.355 . S
C150 C152 1.419 . S
C151 C146 1.425 . S
C151 C148 1.409 . S
C151 C149 1.415 . S
C152 H142 0.930 . S
C152 C150 1.419 . S
C152 C153 1.362 . S
C153 H143 0.930 . S
C153 C146 1.409 . S
C153 C152 1.362 . S
H154 C160 0.930 . S
H155 C163 0.930 . S
H156 C164 0.930 . S
H157 C165 0.930 . S
H158 C168 0.930 . S
H159 C169 0.930 . S
C160 H154 0.930 . S
C160 C161 1.355 . S
C160 C162 1.415 . S
C161 C160 1.355 . S
C161 C163 1.419 . S
C162 C160 1.415 . S
C162 C167 1.425 . S
C162 C169 1.409 . S
C163 H155 0.930 . S
C163 C161 1.419 . S
C163 C164 1.362 . S
C164 H156 0.930 . S
C164 C163 1.362 . S
C164 C167 1.409 . S
C165 H157 0.930 . S
C165 C166 1.355 . S
C165 C167 1.415 . S
C166 C165 1.355 . S
C166 C168 1.419 . S
C167 C162 1.425 . S
C167 C164 1.409 . S
C167 C165 1.415 . S
C168 H158 0.930 . S
C168 C166 1.419 . S
C168 C169 1.362 . S
C169 H159 0.930 . S
C169 C162 1.409 . S
C169 C168 1.362 . S
H170 C176 0.930 . S
H171 C179 0.930 . S
H172 C180 0.930 1_455 S
H173 C181 0.930 . S
H174 C184 0.930 . S
H175 C185 0.930 . S
C176 H170 0.930 . S
C176 C177 1.355 . S
C176 C178 1.415 . S
C177 C176 1.355 . S
C177 C179 1.419 . S
C178 C176 1.415 . S
C178 C183 1.425 . S
C178 C185 1.409 . S
C179 H171 0.930 . S
C179 C177 1.419 . S
C179 C180 1.362 . S
C180 H172 0.930 1_655 S
C180 C179 1.362 . S
C180 C183 1.409 . S
C181 H173 0.930 . S
C181 C182 1.355 . S
C181 C183 1.415 . S
C182 C181 1.355 . S
C182 C184 1.419 . S
C183 C178 1.425 . S
C183 C180 1.409 . S
C183 C181 1.415 . S
C184 H174 0.930 . S
C184 C182 1.419 . S
C184 C185 1.362 . S
C185 H175 0.930 . S
C185 C178 1.409 . S
C185 C184 1.362 . S
H186 C192 0.930 . S
H187 C195 0.930 . S
H188 C196 0.930 . S
H189 C197 0.930 . S
H190 C200 0.930 . S
H191 C201 0.930 . S
C192 H186 0.930 . S
C192 C193 1.355 . S
C192 C194 1.415 . S
C193 C192 1.355 . S
C193 C195 1.419 . S
C194 C192 1.415 . S
C194 C199 1.425 . S
C194 C201 1.409 . S
C195 H187 0.930 . S
C195 C193 1.419 . S
C195 C196 1.362 . S
C196 H188 0.930 . S
C196 C195 1.362 . S
C196 C199 1.409 . S
C197 H189 0.930 . S
C197 C198 1.355 . S
C197 C199 1.415 . S
C198 C197 1.355 . S
C198 C200 1.419 . S
C199 C194 1.425 . S
C199 C196 1.409 . S
C199 C197 1.415 . S
C200 H190 0.930 . S
C200 C198 1.419 . S
C200 C201 1.362 . S
C201 H191 0.930 . S
C201 C194 1.409 . S
C201 C200 1.362 . S
H202 C208 0.930 . S
H203 C211 0.930 . S
H204 C212 0.930 . S
H205 C213 0.930 . S
H206 C216 0.930 . S
H207 C217 0.930 . S
C208 H202 0.930 . S
C208 C209 1.355 . S
C208 C210 1.415 . S
C209 C208 1.355 . S
C209 C211 1.419 . S
C210 C208 1.415 . S
C210 C215 1.425 . S
C210 C217 1.409 . S
C211 H203 0.930 . S
C211 C209 1.419 . S
C211 C212 1.362 . S
C212 H204 0.930 . S
C212 C211 1.362 . S
C212 C215 1.409 . S
C213 H205 0.930 . S
C213 C214 1.355 . S
C213 C215 1.415 . S
C214 C213 1.355 . S
C214 C216 1.419 . S
C215 C210 1.425 . S
C215 C212 1.409 . S
C215 C213 1.415 . S
C216 H206 0.930 . S
C216 C214 1.419 . S
C216 C217 1.362 . S
C217 H207 0.930 . S
C217 C210 1.409 . S
C217 C216 1.362 . S
H218 C224 0.930 . S
H219 C227 0.930 . S
H220 C228 0.930 . S
H221 C229 0.930 . S
H222 C232 0.930 . S
H223 C233 0.930 . S
C224 H218 0.930 . S
C224 C225 1.355 . S
C224 C226 1.415 . S
C225 C224 1.355 . S
C225 C227 1.419 . S
C226 C224 1.415 . S
C226 C231 1.425 . S
C226 C233 1.409 . S
C227 H219 0.930 . S
C227 C225 1.419 . S
C227 C228 1.362 . S
C228 H220 0.930 . S
C228 C227 1.362 . S
C228 C231 1.409 . S
C229 H221 0.930 . S
C229 C230 1.355 . S
C229 C231 1.415 . S
C230 C229 1.355 . S
C230 C232 1.419 . S
C231 C226 1.425 . S
C231 C228 1.409 . S
C231 C229 1.415 . S
C232 H222 0.930 . S
C232 C230 1.419 . S
C232 C233 1.362 . S
C233 H223 0.930 . S
C233 C226 1.409 . S
C233 C232 1.362 . S
H234 C240 0.930 . S
H235 C243 0.930 . S
H236 C244 0.930 . S
H237 C245 0.930 . S
H238 C248 0.930 . S
H239 C249 0.930 . S
C240 H234 0.930 . S
C240 C241 1.355 . S
C240 C242 1.415 . S
C241 C240 1.355 . S
C241 C243 1.419 . S
C242 C240 1.415 . S
C242 C247 1.425 . S
C242 C249 1.409 . S
C243 H235 0.930 . S
C243 C241 1.419 . S
C243 C244 1.362 . S
C244 H236 0.930 . S
C244 C243 1.362 . S
C244 C247 1.409 . S
C245 H237 0.930 . S
C245 C246 1.355 . S
C245 C247 1.415 . S
C246 C245 1.355 . S
C246 C248 1.419 . S
C247 C242 1.425 . S
C247 C244 1.409 . S
C247 C245 1.415 . S
C248 H238 0.930 . S
C248 C246 1.419 . S
C248 C249 1.362 . S
C249 H239 0.930 . S
C249 C242 1.409 . S
C249 C248 1.362 . S
H250 C256 0.930 . S
H251 C259 0.930 . S
H252 C260 0.930 . S
H253 C261 0.930 . S
H254 C264 0.930 . S
H255 C265 0.930 . S
C256 H250 0.930 . S
C256 C257 1.355 . S
C256 C258 1.415 . S
C257 C256 1.355 . S
C257 C259 1.419 . S
C258 C256 1.415 . S
C258 C263 1.425 . S
C258 C265 1.409 . S
C259 H251 0.930 . S
C259 C257 1.419 . S
C259 C260 1.362 . S
C260 H252 0.930 . S
C260 C259 1.362 . S
C260 C263 1.409 . S
C261 H253 0.930 . S
C261 C262 1.355 . S
C261 C263 1.415 . S
C262 C261 1.355 . S
C262 C264 1.419 . S
C263 C258 1.425 . S
C263 C260 1.409 . S
C263 C261 1.415 . S
C264 H254 0.930 . S
C264 C262 1.419 . S
C264 C265 1.362 . S
C265 H255 0.930 . S
C265 C258 1.409 . S
C265 C264 1.362 . S
H266 C272 0.930 . S
H267 C275 0.930 . S
H268 C276 0.930 . S
H269 C277 0.930 . S
H270 C280 0.930 . S
H271 C281 0.930 . S
C272 H266 0.930 . S
C272 C273 1.355 . S
C272 C274 1.415 . S
C273 C272 1.355 . S
C273 C275 1.419 . S
C274 C272 1.415 . S
C274 C279 1.425 . S
C274 C281 1.409 . S
C275 H267 0.930 . S
C275 C273 1.419 . S
C275 C276 1.362 . S
C276 H268 0.930 . S
C276 C275 1.362 . S
C276 C279 1.409 . S
C277 H269 0.930 . S
C277 C278 1.355 . S
C277 C279 1.415 . S
C278 C277 1.355 . S
C278 C280 1.419 . S
C279 C274 1.425 . S
C279 C276 1.409 . S
C279 C277 1.415 . S
C280 H270 0.930 . S
C280 C278 1.419 . S
C280 C281 1.362 . S
C281 H271 0.930 . S
C281 C274 1.409 . S
C281 C280 1.362 . S
H282 C288 0.930 . S
H283 C291 0.930 . S
H284 C292 0.930 . S
H285 C293 0.930 . S
H286 C296 0.930 . S
H287 C297 0.930 . S
C288 H282 0.930 . S
C288 C289 1.355 . S
C288 C290 1.415 . S
C289 C288 1.355 . S
C289 C291 1.419 . S
C290 C288 1.415 . S
C290 C295 1.425 . S
C290 C297 1.409 . S
C291 H283 0.930 . S
C291 C289 1.419 . S
C291 C292 1.362 . S
C292 H284 0.930 . S
C292 C291 1.362 . S
C292 C295 1.409 . S
C293 H285 0.930 . S
C293 C294 1.355 . S
C293 C295 1.415 . S
C294 C293 1.355 . S
C294 C296 1.419 . S
C295 C290 1.425 . S
C295 C292 1.409 . S
C295 C293 1.415 . S
C296 H286 0.930 . S
C296 C294 1.419 . S
C296 C297 1.362 . S
C297 H287 0.930 . S
C297 C290 1.409 . S
C297 C296 1.362 . S
H298 C304 0.930 . S
H299 C307 0.930 . S
H300 C308 0.930 . S
H301 C309 0.930 . S
H302 C312 0.930 . S
H303 C313 0.930 . S
C304 H298 0.930 . S
C304 C305 1.355 . S
C304 C306 1.415 . S
C305 C304 1.355 . S
C305 C307 1.419 . S
C306 C304 1.415 . S
C306 C311 1.425 . S
C306 C313 1.409 . S
C307 H299 0.930 . S
C307 C305 1.419 . S
C307 C308 1.362 . S
C308 H300 0.930 . S
C308 C307 1.362 . S
C308 C311 1.409 . S
C309 H301 0.930 . S
C309 C310 1.355 . S
C309 C311 1.415 . S
C310 C309 1.355 . S
C310 C312 1.419 . S
C311 C306 1.425 . S
C311 C308 1.409 . S
C311 C309 1.415 . S
C312 H302 0.930 . S
C312 C310 1.419 . S
C312 C313 1.362 . S
C313 H303 0.930 . S
C313 C306 1.409 . S
C313 C312 1.362 . S
C129 C15 1.322 . S
C134 C99 1.180 . S
C145 C46 1.073 . S
C150 C105 1.035 . S
C161 C10 1.366 . S
C166 C96 1.318 . S
C177 C59 2.145 . S
C182 C121 2.037 . S
C193 C18 2.044 . S
C198 C87 1.938 . S
C214 C104 1.782 . S
C209 C58 1.903 . S
C225 C50 1.886 . S
C230 C100 1.827 . S
C246 C117 2.151 . S
C241 C9 2.214 . S
C262 C84 2.107 . S
C257 C49 2.233 . S
C278 C120 1.426 . S
C273 C6 1.543 . S
C294 C83 1.065 . S
C289 C55 1.135 . S
C310 C108 1.129 . S
C305 C19 1.178 . S
