# Generated by pormake.
# Topology eea, (3,6)-cn, num edge types: 1
# Building blocks:
#     Node 0, Type 0, BuildingBlock: WUSLED_clean_sbu_0, # of connection points: 3
#     Node 1, Type 0, BuildingBlock: WUSLED_clean_sbu_0, # of connection points: 3
#     Node 2, Type 0, BuildingBlock: WUSLED_clean_sbu_0, # of connection points: 3
#     Node 3, Type 0, BuildingBlock: WUSLED_clean_sbu_0, # of connection points: 3
#     Node 4, Type 0, BuildingBlock: WUSLED_clean_sbu_0, # of connection points: 3
#     Node 5, Type 0, BuildingBlock: WUSLED_clean_sbu_0, # of connection points: 3
#     Node 6, Type 0, BuildingBlock: WUSLED_clean_sbu_0, # of connection points: 3
#     Node 7, Type 0, BuildingBlock: WUSLED_clean_sbu_0, # of connection points: 3
#     Node 8, Type 0, BuildingBlock: WUSLED_clean_sbu_0, # of connection points: 3
#     Node 9, Type 0, BuildingBlock: WUSLED_clean_sbu_0, # of connection points: 3
#     Node 10, Type 0, BuildingBlock: WUSLED_clean_sbu_0, # of connection points: 3
#     Node 11, Type 0, BuildingBlock: WUSLED_clean_sbu_0, # of connection points: 3
#     Node 12, Type 0, BuildingBlock: WUSLED_clean_sbu_0, # of connection points: 3
#     Node 13, Type 0, BuildingBlock: WUSLED_clean_sbu_0, # of connection points: 3
#     Node 14, Type 0, BuildingBlock: WUSLED_clean_sbu_0, # of connection points: 3
#     Node 15, Type 0, BuildingBlock: WUSLED_clean_sbu_0, # of connection points: 3
#     Node 16, Type 0, BuildingBlock: WUSLED_clean_sbu_0, # of connection points: 3
#     Node 17, Type 0, BuildingBlock: WUSLED_clean_sbu_0, # of connection points: 3
#     Node 18, Type 1, BuildingBlock: CIFDUS_clean_sbu_1, # of connection points: 6
#     Node 19, Type 1, BuildingBlock: CIFDUS_clean_sbu_1, # of connection points: 6
#     Node 20, Type 1, BuildingBlock: CIFDUS_clean_sbu_1, # of connection points: 6
#     Node 21, Type 1, BuildingBlock: CIFDUS_clean_sbu_1, # of connection points: 6
#     Node 22, Type 1, BuildingBlock: CIFDUS_clean_sbu_1, # of connection points: 6
#     Node 23, Type 1, BuildingBlock: CIFDUS_clean_sbu_1, # of connection points: 6
#     Node 24, Type 1, BuildingBlock: CIFDUS_clean_sbu_1, # of connection points: 6
#     Node 25, Type 1, BuildingBlock: CIFDUS_clean_sbu_1, # of connection points: 6
#     Node 26, Type 1, BuildingBlock: CIFDUS_clean_sbu_1, # of connection points: 6
#     Edge 27, Type (0, 1), BuildingBlock: UVAHIK_clean_linker_0, # of connection points: 2
#     Edge 28, Type (0, 1), BuildingBlock: UVAHIK_clean_linker_0, # of connection points: 2
#     Edge 29, Type (0, 1), BuildingBlock: UVAHIK_clean_linker_0, # of connection points: 2
#     Edge 30, Type (0, 1), BuildingBlock: UVAHIK_clean_linker_0, # of connection points: 2
#     Edge 31, Type (0, 1), BuildingBlock: UVAHIK_clean_linker_0, # of connection points: 2
#     Edge 32, Type (0, 1), BuildingBlock: UVAHIK_clean_linker_0, # of connection points: 2
#     Edge 33, Type (0, 1), BuildingBlock: UVAHIK_clean_linker_0, # of connection points: 2
#     Edge 34, Type (0, 1), BuildingBlock: UVAHIK_clean_linker_0, # of connection points: 2
#     Edge 35, Type (0, 1), BuildingBlock: UVAHIK_clean_linker_0, # of connection points: 2
#     Edge 36, Type (0, 1), BuildingBlock: UVAHIK_clean_linker_0, # of connection points: 2
#     Edge 37, Type (0, 1), BuildingBlock: UVAHIK_clean_linker_0, # of connection points: 2
#     Edge 38, Type (0, 1), BuildingBlock: UVAHIK_clean_linker_0, # of connection points: 2
#     Edge 39, Type (0, 1), BuildingBlock: UVAHIK_clean_linker_0, # of connection points: 2
#     Edge 40, Type (0, 1), BuildingBlock: UVAHIK_clean_linker_0, # of connection points: 2
#     Edge 41, Type (0, 1), BuildingBlock: UVAHIK_clean_linker_0, # of connection points: 2
#     Edge 42, Type (0, 1), BuildingBlock: UVAHIK_clean_linker_0, # of connection points: 2
#     Edge 43, Type (0, 1), BuildingBlock: UVAHIK_clean_linker_0, # of connection points: 2
#     Edge 44, Type (0, 1), BuildingBlock: UVAHIK_clean_linker_0, # of connection points: 2
#     Edge 45, Type (0, 1), BuildingBlock: UVAHIK_clean_linker_0, # of connection points: 2
#     Edge 46, Type (0, 1), BuildingBlock: UVAHIK_clean_linker_0, # of connection points: 2
#     Edge 47, Type (0, 1), BuildingBlock: UVAHIK_clean_linker_0, # of connection points: 2
#     Edge 48, Type (0, 1), BuildingBlock: UVAHIK_clean_linker_0, # of connection points: 2
#     Edge 49, Type (0, 1), BuildingBlock: UVAHIK_clean_linker_0, # of connection points: 2
#     Edge 50, Type (0, 1), BuildingBlock: UVAHIK_clean_linker_0, # of connection points: 2
#     Edge 51, Type (0, 1), BuildingBlock: UVAHIK_clean_linker_0, # of connection points: 2
#     Edge 52, Type (0, 1), BuildingBlock: UVAHIK_clean_linker_0, # of connection points: 2
#     Edge 53, Type (0, 1), BuildingBlock: UVAHIK_clean_linker_0, # of connection points: 2
#     Edge 54, Type (0, 1), BuildingBlock: UVAHIK_clean_linker_0, # of connection points: 2
#     Edge 55, Type (0, 1), BuildingBlock: UVAHIK_clean_linker_0, # of connection points: 2
#     Edge 56, Type (0, 1), BuildingBlock: UVAHIK_clean_linker_0, # of connection points: 2
#     Edge 57, Type (0, 1), BuildingBlock: UVAHIK_clean_linker_0, # of connection points: 2
#     Edge 58, Type (0, 1), BuildingBlock: UVAHIK_clean_linker_0, # of connection points: 2
#     Edge 59, Type (0, 1), BuildingBlock: UVAHIK_clean_linker_0, # of connection points: 2
#     Edge 60, Type (0, 1), BuildingBlock: UVAHIK_clean_linker_0, # of connection points: 2
#     Edge 61, Type (0, 1), BuildingBlock: UVAHIK_clean_linker_0, # of connection points: 2
#     Edge 62, Type (0, 1), BuildingBlock: UVAHIK_clean_linker_0, # of connection points: 2
#     Edge 63, Type (0, 1), BuildingBlock: UVAHIK_clean_linker_0, # of connection points: 2
#     Edge 64, Type (0, 1), BuildingBlock: UVAHIK_clean_linker_0, # of connection points: 2
#     Edge 65, Type (0, 1), BuildingBlock: UVAHIK_clean_linker_0, # of connection points: 2
#     Edge 66, Type (0, 1), BuildingBlock: UVAHIK_clean_linker_0, # of connection points: 2
#     Edge 67, Type (0, 1), BuildingBlock: UVAHIK_clean_linker_0, # of connection points: 2
#     Edge 68, Type (0, 1), BuildingBlock: UVAHIK_clean_linker_0, # of connection points: 2
#     Edge 69, Type (0, 1), BuildingBlock: UVAHIK_clean_linker_0, # of connection points: 2
#     Edge 70, Type (0, 1), BuildingBlock: UVAHIK_clean_linker_0, # of connection points: 2
#     Edge 71, Type (0, 1), BuildingBlock: UVAHIK_clean_linker_0, # of connection points: 2
#     Edge 72, Type (0, 1), BuildingBlock: UVAHIK_clean_linker_0, # of connection points: 2
#     Edge 73, Type (0, 1), BuildingBlock: UVAHIK_clean_linker_0, # of connection points: 2
#     Edge 74, Type (0, 1), BuildingBlock: UVAHIK_clean_linker_0, # of connection points: 2
#     Edge 75, Type (0, 1), BuildingBlock: UVAHIK_clean_linker_0, # of connection points: 2
#     Edge 76, Type (0, 1), BuildingBlock: UVAHIK_clean_linker_0, # of connection points: 2
#     Edge 77, Type (0, 1), BuildingBlock: UVAHIK_clean_linker_0, # of connection points: 2
#     Edge 78, Type (0, 1), BuildingBlock: UVAHIK_clean_linker_0, # of connection points: 2
#     Edge 79, Type (0, 1), BuildingBlock: UVAHIK_clean_linker_0, # of connection points: 2
#     Edge 80, Type (0, 1), BuildingBlock: UVAHIK_clean_linker_0, # of connection points: 2
# Relax obj value: 0.097
# Max RMSD: 0.179
# Mean RMSD: 0.090
data_MOF--net-eea--node1-WUSLED_clean_sbu_0--node2-CIFDUS_clean_sbu_1--edge1-UVAHIK_clean_linker_0
_symmetry_space_group_name_H-M    P1
_symmetry_Int_Tables_number       1
_symmetry_cell_setting            triclinic
loop_
_symmetry_equiv_pos_as_xyz
'x, y, z'
_cell_length_a     87.146744
_cell_length_b     86.420521
_cell_length_c     86.375857
_cell_angle_alpha  89.702306
_cell_angle_beta   90.034786
_cell_angle_gamma 119.89615
loop_
_atom_site_label
_atom_site_type_symbol
_atom_site_fract_x
_atom_site_fract_y
_atom_site_fract_z
_atom_type_partial_charge
C0 C 0.17899 0.1255 0.41028 0.0
C1 C 0.18803 0.14096 0.41929 0.0
C2 C 0.17482 0.15546 0.40439 0.0
C3 C 0.18599 0.15581 0.41636 0.0
C4 C 0.16576 0.13987 0.39546 0.0
C5 C 0.16784 0.12506 0.39838 0.0
U6 U 0.197 0.10111 0.43453 0.0
O7 O 0.18459 0.07292 0.44195 0.0
O8 O 0.2088 0.08482 0.4278 0.0
C9 C 0.19634 0.07034 0.43461 0.0
C10 C 0.18099 0.10976 0.41324 0.0
C11 C 0.18972 0.05332 0.42626 0.0
C12 C 0.18539 0.03633 0.40267 0.0
C13 C 0.18974 0.05244 0.41003 0.0
C14 C 0.18043 0.02172 0.42763 0.0
C15 C 0.18095 0.02081 0.4114 0.0
C16 C 0.18476 0.03777 0.43495 0.0
C17 C 0.22475 0.12388 0.47045 0.0
C18 C 0.22806 0.11033 0.49408 0.0
C19 C 0.25121 0.13972 0.48621 0.0
C20 C 0.24135 0.13892 0.47316 0.0
C21 C 0.24462 0.12552 0.49696 0.0
C22 C 0.21825 0.10948 0.48095 0.0
C23 C 0.21443 0.12366 0.45679 0.0
O24 O 0.19709 0.11232 0.41156 0.0
O25 O 0.17297 0.10047 0.42572 0.0
O26 O 0.19728 0.11247 0.4573 0.0
O27 O 0.22152 0.12408 0.44326 0.0
H28 H 0.19664 0.14153 0.42859 0.0
H29 H 0.19301 0.16749 0.42358 0.0
H30 H 0.15726 0.13918 0.38603 0.0
H31 H 0.16078 0.11326 0.3913 0.0
H32 H 0.18568 0.03608 0.39014 0.0
H33 H 0.19352 0.06426 0.40306 0.0
H34 H 0.17735 0.01019 0.43477 0.0
H35 H 0.18481 0.03818 0.44749 0.0
H36 H 0.22245 0.09922 0.50215 0.0
H37 H 0.26405 0.15148 0.48783 0.0
H38 H 0.24667 0.15014 0.46518 0.0
H39 H 0.20552 0.09765 0.47912 0.0
C40 C 0.93673 0.12563 0.40099 0.0
C41 C 0.9387 0.14275 0.40186 0.0
C42 C 0.96838 0.15593 0.39073 0.0
C43 C 0.95429 0.15771 0.39671 0.0
C44 C 0.96629 0.13871 0.38986 0.0
C45 C 0.95063 0.12375 0.3949 0.0
U46 U 0.89953 0.10196 0.43069 0.0
O47 O 0.87112 0.08322 0.42779 0.0
O48 O 0.88757 0.07478 0.4405 0.0
C49 C 0.87179 0.07016 0.43503 0.0
C50 C 0.92051 0.10965 0.4066 0.0
C51 C 0.86194 0.05246 0.42788 0.0
C52 C 0.85348 0.03285 0.40559 0.0
C53 C 0.86419 0.04965 0.41226 0.0
C54 C 0.83857 0.02156 0.43018 0.0
C55 C 0.84034 0.0187 0.41444 0.0
C56 C 0.84926 0.03827 0.43681 0.0
C57 C 0.89665 0.12596 0.46618 0.0
C58 C 0.88075 0.11089 0.48971 0.0
C59 C 0.88585 0.14047 0.48356 0.0
C60 C 0.89475 0.14066 0.47001 0.0
C61 C 0.87882 0.12561 0.49358 0.0
C62 C 0.88947 0.11101 0.47608 0.0
C63 C 0.90568 0.12619 0.45165 0.0
O64 O 0.92235 0.10233 0.41932 0.0
O65 O 0.90585 0.11051 0.40638 0.0
O66 O 0.89674 0.12454 0.43892 0.0
O67 O 0.9135 0.11652 0.45163 0.0
H68 H 0.92821 0.14461 0.40655 0.0
H69 H 0.95526 0.17067 0.39736 0.0
H70 H 0.97689 0.13679 0.38558 0.0
H71 H 0.94944 0.11068 0.3942 0.0
H72 H 0.85509 0.03111 0.3934 0.0
H73 H 0.87391 0.06049 0.40518 0.0
H74 H 0.82879 0.01089 0.43738 0.0
H75 H 0.84738 0.04021 0.4489 0.0
H76 H 0.87529 0.09918 0.49711 0.0
H77 H 0.88469 0.15206 0.4863 0.0
H78 H 0.90011 0.15228 0.46249 0.0
H79 H 0.89053 0.09937 0.47328 0.0
C80 C 0.86595 0.78477 0.38785 0.0
C81 C 0.84855 0.77273 0.39256 0.0
C82 C 0.83778 0.79022 0.379 0.0
C83 C 0.83462 0.77534 0.38808 0.0
C84 C 0.85522 0.80213 0.37412 0.0
C85 C 0.86917 0.79941 0.37851 0.0
U86 U 0.88642 0.77111 0.41966 0.0
O87 O 0.89997 0.75537 0.41933 0.0
O88 O 0.91376 0.78282 0.4281 0.0
C89 C 0.91507 0.76889 0.42398 0.0
C90 C 0.8808 0.78263 0.39333 0.0
C91 C 0.93097 0.77241 0.41496 0.0
C92 C 0.95976 0.79289 0.40365 0.0
C93 C 0.94441 0.78989 0.41141 0.0
C94 C 0.94845 0.76103 0.40262 0.0
C95 C 0.96204 0.7785 0.39927 0.0
C96 C 0.93316 0.75804 0.41044 0.0
C97 C 0.85931 0.75463 0.45751 0.0
C98 C 0.85907 0.73415 0.47705 0.0
C99 C 0.84766 0.75384 0.48325 0.0
C100 C 0.85165 0.76091 0.46825 0.0
C101 C 0.85114 0.74025 0.48777 0.0
C102 C 0.86319 0.74133 0.46207 0.0
C103 C 0.86245 0.76171 0.44156 0.0
O104 O 0.89017 0.79339 0.40458 0.0
O105 O 0.87714 0.76607 0.39558 0.0
O106 O 0.86168 0.75085 0.43058 0.0
O107 O 0.87553 0.77815 0.43971 0.0
H108 H 0.84572 0.76138 0.39987 0.0
H109 H 0.82135 0.76571 0.39183 0.0
H110 H 0.85818 0.81384 0.36729 0.0
H111 H 0.88253 0.80892 0.37486 0.0
H112 H 0.97004 0.80653 0.40145 0.0
H113 H 0.94324 0.8013 0.41481 0.0
H114 H 0.94961 0.74961 0.39924 0.0
H115 H 0.92308 0.74444 0.41309 0.0
H116 H 0.86214 0.72387 0.48027 0.0
H117 H 0.84143 0.75871 0.49119 0.0
H118 H 0.84852 0.77113 0.46494 0.0
H119 H 0.86922 0.73635 0.45402 0.0
C120 C 0.08106 0.2238 0.62159 0.0
C121 C 0.07699 0.2372 0.61791 0.0
C122 C 0.04749 0.21932 0.62904 0.0
C123 C 0.06042 0.23502 0.62167 0.0
C124 C 0.0516 0.20589 0.63258 0.0
C125 C 0.06823 0.20815 0.62893 0.0
U126 U 0.12048 0.23733 0.59441 0.0
O127 O 0.14903 0.25167 0.59924 0.0
O128 O 0.1363 0.22438 0.59015 0.0
C129 C 0.15078 0.23779 0.59592 0.0
C130 C 0.09854 0.22589 0.618 0.0
C131 C 0.16088 0.23325 0.60707 0.0
C132 C 0.18402 0.24257 0.62653 0.0
C133 C 0.17306 0.24622 0.61724 0.0
C134 C 0.17063 0.21275 0.61596 0.0
C135 C 0.18315 0.2259 0.62579 0.0
C136 C 0.15968 0.21641 0.60665 0.0
C137 C 0.12175 0.25549 0.55396 0.0
C138 C 0.14792 0.27568 0.53901 0.0
C139 C 0.12113 0.2544 0.52583 0.0
C140 C 0.11266 0.24812 0.54011 0.0
C141 C 0.13883 0.2683 0.52513 0.0
C142 C 0.1395 0.26927 0.55329 0.0
C143 C 0.11261 0.24841 0.56891 0.0
O144 O 0.0987 0.21521 0.60729 0.0
O145 O 0.11177 0.24237 0.61673 0.0
O146 O 0.1197 0.25865 0.58106 0.0
O147 O 0.10739 0.23152 0.57165 0.0
H148 H 0.08663 0.24941 0.6122 0.0
H149 H 0.05785 0.24577 0.61895 0.0
H150 H 0.04191 0.1935 0.63799 0.0
H151 H 0.07108 0.19761 0.63181 0.0
H152 H 0.19342 0.25292 0.63409 0.0
H153 H 0.17447 0.25939 0.61776 0.0
H154 H 0.1698 0.19987 0.61495 0.0
H155 H 0.15065 0.2062 0.59878 0.0
H156 H 0.1616 0.28629 0.53882 0.0
H157 H 0.11374 0.24858 0.51531 0.0
H158 H 0.09899 0.23747 0.54034 0.0
H159 H 0.14693 0.27509 0.56379 0.0
C160 C 0.83095 0.88423 0.60504 0.0
C161 C 0.83119 0.87317 0.59328 0.0
C162 C 0.8332 0.85349 0.61254 0.0
C163 C 0.8324 0.85801 0.597 0.0
C164 C 0.83286 0.86458 0.62426 0.0
C165 C 0.83178 0.8798 0.62054 0.0
U166 U 0.81609 0.90944 0.5783 0.0
O167 O 0.80378 0.92576 0.58323 0.0
O168 O 0.8293 0.93768 0.57099 0.0
C169 C 0.81683 0.9402 0.5769 0.0
C170 C 0.82956 0.90021 0.60136 0.0
C171 C 0.8225 0.9573 0.58479 0.0
C172 C 0.82679 0.97504 0.60788 0.0
C173 C 0.82308 0.95886 0.60098 0.0
C174 C 0.82972 0.98825 0.58248 0.0
C175 C 0.8298 0.98982 0.59867 0.0
C176 C 0.82612 0.97219 0.57564 0.0
C177 C 0.79221 0.88793 0.54095 0.0
C178 C 0.78051 0.90253 0.52451 0.0
C179 C 0.77807 0.87453 0.51659 0.0
C180 C 0.7867 0.87419 0.53013 0.0
C181 C 0.77476 0.88865 0.51365 0.0
C182 C 0.78917 0.90217 0.53805 0.0
C183 C 0.80099 0.88725 0.55527 0.0
O184 O 0.83897 0.90981 0.58946 0.0
O185 O 0.81345 0.89785 0.60161 0.0
O186 O 0.79265 0.88661 0.56814 0.0
O187 O 0.81808 0.89855 0.55589 0.0
H188 H 0.83037 0.87622 0.58123 0.0
H189 H 0.8324 0.84965 0.5877 0.0
H190 H 0.83364 0.86161 0.63634 0.0
H191 H 0.83159 0.88813 0.62978 0.0
H192 H 0.82668 0.9758 0.62039 0.0
H193 H 0.82027 0.9475 0.60826 0.0
H194 H 0.83228 0.99943 0.57506 0.0
H195 H 0.82573 0.97126 0.56312 0.0
H196 H 0.77802 0.9135 0.52271 0.0
H197 H 0.77409 0.86378 0.50838 0.0
H198 H 0.78904 0.86315 0.53216 0.0
H199 H 0.79336 0.91292 0.54632 0.0
C200 C 0.07618 0.88049 0.61502 0.0
C201 C 0.06728 0.86567 0.6053 0.0
C202 C 0.04427 0.85044 0.62481 0.0
C203 C 0.05147 0.8508 0.61014 0.0
C204 C 0.05322 0.86541 0.63447 0.0
C205 C 0.06906 0.8803 0.62961 0.0
U206 U 0.11262 0.90335 0.5851 0.0
O207 O 0.12722 0.93114 0.57689 0.0
O208 O 0.14158 0.919 0.58764 0.0
C209 C 0.1425 0.93359 0.58196 0.0
C210 C 0.09297 0.89601 0.61007 0.0
C211 C 0.154 0.95033 0.59033 0.0
C212 C 0.16026 0.97913 0.60049 0.0
C213 C 0.14841 0.9626 0.59397 0.0
C214 C 0.18329 0.97123 0.60013 0.0
C215 C 0.17787 0.98368 0.60352 0.0
C216 C 0.1715 0.95479 0.59356 0.0
C217 C 0.11074 0.88025 0.54748 0.0
C218 C 0.13652 0.8904 0.53082 0.0
C219 C 0.10719 0.87067 0.52072 0.0
C220 C 0.09984 0.87049 0.53515 0.0
C221 C 0.12564 0.88057 0.51837 0.0
C222 C 0.12913 0.89031 0.54521 0.0
C223 C 0.1028 0.88022 0.56252 0.0
O224 O 0.10639 0.89313 0.609 0.0
O225 O 0.09184 0.905 0.59822 0.0
O226 O 0.09734 0.89185 0.56378 0.0
O227 O 0.11145 0.87961 0.57477 0.0
H228 H 0.07259 0.86562 0.59397 0.0
H229 H 0.04481 0.83963 0.60231 0.0
H230 H 0.04816 0.86551 0.64589 0.0
H231 H 0.0758 0.89161 0.63728 0.0
H232 H 0.15565 0.98838 0.60312 0.0
H233 H 0.13501 0.9596 0.59157 0.0
H234 H 0.19683 0.9744 0.60211 0.0
H235 H 0.17621 0.94568 0.59066 0.0
H236 H 0.15077 0.89801 0.52952 0.0
H237 H 0.09836 0.86322 0.51134 0.0
H238 H 0.08561 0.86281 0.53665 0.0
H239 H 0.13779 0.89808 0.55457 0.0
C240 C 0.84648 0.4599 0.74306 0.0
C241 C 0.85569 0.47533 0.75207 0.0
C242 C 0.84242 0.48997 0.73748 0.0
C243 C 0.85372 0.49024 0.74928 0.0
C244 C 0.83316 0.47438 0.72857 0.0
C245 C 0.83519 0.45952 0.73133 0.0
U246 U 0.86353 0.43486 0.76755 0.0
O247 O 0.85114 0.40647 0.7741 0.0
O248 O 0.8761 0.41918 0.76104 0.0
C249 C 0.86327 0.40428 0.76699 0.0
C250 C 0.84848 0.44413 0.74584 0.0
C251 C 0.85728 0.38764 0.75797 0.0
C252 C 0.83657 0.35584 0.75464 0.0
C253 C 0.84092 0.37231 0.76122 0.0
C254 C 0.86463 0.36971 0.74111 0.0
C255 C 0.84854 0.35425 0.74476 0.0
C256 C 0.86897 0.38617 0.74766 0.0
C257 C 0.88903 0.45653 0.80464 0.0
C258 C 0.8941 0.44064 0.82554 0.0
C259 C 0.9107 0.47295 0.82457 0.0
C260 C 0.90188 0.47274 0.81098 0.0
C261 C 0.90677 0.45692 0.83216 0.0
C262 C 0.88535 0.44045 0.81188 0.0
C263 C 0.87948 0.4567 0.79063 0.0
O264 O 0.86471 0.4469 0.74475 0.0
O265 O 0.83985 0.43428 0.75789 0.0
O266 O 0.86241 0.44519 0.79046 0.0
O267 O 0.88737 0.45764 0.77741 0.0
H268 H 0.8644 0.47584 0.76126 0.0
H269 H 0.8609 0.5019 0.75649 0.0
H270 H 0.82455 0.47377 0.71925 0.0
H271 H 0.82798 0.44774 0.72425 0.0
H272 H 0.82414 0.34419 0.75783 0.0
H273 H 0.83173 0.37285 0.76933 0.0
H274 H 0.87406 0.36905 0.73337 0.0
H275 H 0.88178 0.39761 0.74506 0.0
H276 H 0.89062 0.42806 0.83111 0.0
H277 H 0.92062 0.48572 0.82912 0.0
H278 H 0.90502 0.48527 0.80547 0.0
H279 H 0.87553 0.42776 0.8071 0.0
C280 C 0.60496 0.46522 0.73497 0.0
C281 C 0.60784 0.4826 0.7369 0.0
C282 C 0.63724 0.49515 0.72536 0.0
C283 C 0.62374 0.49737 0.73208 0.0
C284 C 0.63428 0.4777 0.72347 0.0
C285 C 0.6183 0.46291 0.72818 0.0
U286 U 0.56793 0.44055 0.7646 0.0
O287 O 0.53909 0.42425 0.76157 0.0
O288 O 0.55392 0.41239 0.77192 0.0
C289 C 0.53855 0.40967 0.76679 0.0
C290 C 0.58826 0.4494 0.73996 0.0
C291 C 0.52752 0.39316 0.75796 0.0
C292 C 0.5219 0.36468 0.74747 0.0
C293 C 0.53338 0.38108 0.7544 0.0
C294 C 0.49869 0.37235 0.74725 0.0
C295 C 0.50437 0.36008 0.74394 0.0
C296 C 0.51012 0.38865 0.75422 0.0
C297 C 0.56784 0.46145 0.80288 0.0
C298 C 0.5414 0.44958 0.81893 0.0
C299 C 0.57022 0.46893 0.83016 0.0
C300 C 0.57818 0.47042 0.81576 0.0
C301 C 0.55174 0.4585 0.8319 0.0
C302 C 0.54939 0.45094 0.80457 0.0
C303 C 0.57643 0.4626 0.78791 0.0
O304 O 0.58957 0.44027 0.7516 0.0
O305 O 0.57434 0.4515 0.74097 0.0
O306 O 0.56798 0.46344 0.77561 0.0
O307 O 0.58252 0.45152 0.78632 0.0
H308 H 0.5978 0.4848 0.74213 0.0
H309 H 0.62537 0.51055 0.73352 0.0
H310 H 0.64443 0.47543 0.71858 0.0
H311 H 0.6164 0.44963 0.72663 0.0
H312 H 0.5267 0.35558 0.74493 0.0
H313 H 0.54671 0.38411 0.75721 0.0
H314 H 0.48521 0.36912 0.7449 0.0
H315 H 0.50518 0.39759 0.75705 0.0
H316 H 0.52717 0.4413 0.81995 0.0
H317 H 0.5785 0.4761 0.83991 0.0
H318 H 0.59244 0.47851 0.81469 0.0
H319 H 0.54117 0.4437 0.79481 0.0
C320 C 0.53535 0.12209 0.72264 0.0
C321 C 0.51772 0.11052 0.72704 0.0
C322 C 0.50819 0.12863 0.71279 0.0
C323 C 0.50428 0.11367 0.72206 0.0
C324 C 0.52584 0.14004 0.70818 0.0
C325 C 0.53931 0.13678 0.71308 0.0
U326 U 0.55334 0.10696 0.75536 0.0
O327 O 0.56633 0.09072 0.75577 0.0
O328 O 0.58015 0.118 0.76494 0.0
C329 C 0.5812 0.1038 0.76128 0.0
C330 C 0.54966 0.11944 0.72876 0.0
C331 C 0.59731 0.10724 0.75298 0.0
C332 C 0.61695 0.11864 0.73068 0.0
C333 C 0.60161 0.11572 0.73845 0.0
C334 C 0.62372 0.10462 0.75193 0.0
C335 C 0.62813 0.11302 0.73731 0.0
C336 C 0.60846 0.10176 0.75967 0.0
C337 C 0.52442 0.08984 0.79198 0.0
C338 C 0.52446 0.06953 0.81153 0.0
C339 C 0.51125 0.08775 0.81726 0.0
C340 C 0.51564 0.0952 0.8024 0.0
C341 C 0.51546 0.07471 0.82194 0.0
C342 C 0.52898 0.07708 0.7967 0.0
C343 C 0.52826 0.09742 0.77621 0.0
O344 O 0.55848 0.1298 0.74041 0.0
O345 O 0.54553 0.10272 0.73088 0.0
O346 O 0.5278 0.08681 0.76514 0.0
O347 O 0.54161 0.1138 0.7749 0.0
H348 H 0.51433 0.09915 0.73451 0.0
H349 H 0.49082 0.1044 0.7256 0.0
H350 H 0.52935 0.15178 0.70119 0.0
H351 H 0.55286 0.14594 0.70967 0.0
H352 H 0.6199 0.12502 0.7194 0.0
H353 H 0.59307 0.11999 0.7331 0.0
H354 H 0.63219 0.1004 0.75749 0.0
H355 H 0.60535 0.09524 0.7709 0.0
H356 H 0.5281 0.05969 0.81489 0.0
H357 H 0.50421 0.09192 0.82497 0.0
H358 H 0.51201 0.10502 0.79896 0.0
H359 H 0.5359 0.07286 0.7889 0.0
C360 C 0.74947 0.5593 0.95532 0.0
C361 C 0.74529 0.57266 0.95178 0.0
C362 C 0.71615 0.55495 0.96361 0.0
C363 C 0.72884 0.57054 0.95594 0.0
C364 C 0.72033 0.54151 0.96692 0.0
C365 C 0.73684 0.54371 0.96286 0.0
U366 U 0.78886 0.57273 0.92797 0.0
O367 O 0.81744 0.58722 0.93298 0.0
O368 O 0.80482 0.55994 0.92381 0.0
C369 C 0.81924 0.57339 0.9296 0.0
C370 C 0.76698 0.56149 0.95161 0.0
C371 C 0.82936 0.56901 0.94079 0.0
C372 C 0.83351 0.54747 0.95581 0.0
C373 C 0.82286 0.55156 0.94649 0.0
C374 C 0.85702 0.57829 0.9544 0.0
C375 C 0.85079 0.56074 0.95967 0.0
C376 C 0.84643 0.58235 0.94501 0.0
C377 C 0.79001 0.5901 0.88729 0.0
C378 C 0.81666 0.60852 0.87221 0.0
C379 C 0.78894 0.58948 0.85916 0.0
C380 C 0.78046 0.58363 0.87349 0.0
C381 C 0.80712 0.60203 0.85837 0.0
C382 C 0.80822 0.60253 0.88654 0.0
C383 C 0.78088 0.58336 0.90227 0.0
O384 O 0.76715 0.5507 0.94102 0.0
O385 O 0.78012 0.57799 0.95017 0.0
O386 O 0.78806 0.59383 0.91428 0.0
O387 O 0.77566 0.56652 0.90526 0.0
H388 H 0.75479 0.58483 0.94593 0.0
H389 H 0.72622 0.58128 0.95338 0.0
H390 H 0.7108 0.52919 0.97255 0.0
H391 H 0.73976 0.53321 0.96565 0.0
H392 H 0.82831 0.53385 0.95981 0.0
H393 H 0.80973 0.54097 0.94348 0.0
H394 H 0.87035 0.58876 0.957 0.0
H395 H 0.85179 0.59587 0.94067 0.0
H396 H 0.83072 0.61807 0.87195 0.0
H397 H 0.78121 0.58438 0.84869 0.0
H398 H 0.76643 0.574 0.87381 0.0
H399 H 0.81596 0.60756 0.89701 0.0
C400 C 0.49237 0.21623 0.94118 0.0
C401 C 0.49238 0.20518 0.9293 0.0
C402 C 0.49489 0.18555 0.94829 0.0
C403 C 0.49372 0.19005 0.93282 0.0
C404 C 0.49476 0.19661 0.96014 0.0
C405 C 0.49355 0.2118 0.95661 0.0
U406 U 0.47676 0.24152 0.91531 0.0
O407 O 0.46518 0.25835 0.92092 0.0
O408 O 0.49004 0.26965 0.90773 0.0
C409 C 0.47804 0.27256 0.91415 0.0
C410 C 0.49102 0.23227 0.93771 0.0
C411 C 0.48446 0.28969 0.92214 0.0
C412 C 0.49615 0.30889 0.94466 0.0
C413 C 0.49096 0.29254 0.93734 0.0
C414 C 0.48849 0.31961 0.92159 0.0
C415 C 0.4949 0.32262 0.93687 0.0
C416 C 0.48337 0.30336 0.91434 0.0
C417 C 0.45079 0.21969 0.87864 0.0
C418 C 0.44889 0.23495 0.85557 0.0
C419 C 0.42517 0.20516 0.86175 0.0
C420 C 0.43432 0.20493 0.87497 0.0
C421 C 0.43239 0.22014 0.85186 0.0
C422 C 0.45795 0.23478 0.86889 0.0
C423 C 0.46013 0.21916 0.89273 0.0
O424 O 0.49994 0.24165 0.92554 0.0
O425 O 0.47501 0.23013 0.93858 0.0
O426 O 0.45244 0.21889 0.9059 0.0
O427 O 0.47737 0.2299 0.8929 0.0
H428 H 0.4913 0.20823 0.9173 0.0
H429 H 0.49356 0.18171 0.92343 0.0
H430 H 0.49582 0.19365 0.97216 0.0
H431 H 0.49355 0.22013 0.96594 0.0
H432 H 0.50117 0.31079 0.95637 0.0
H433 H 0.49189 0.28211 0.94355 0.0
H434 H 0.48699 0.32965 0.91532 0.0
H435 H 0.47826 0.30135 0.90263 0.0
H436 H 0.45469 0.24674 0.84825 0.0
H437 H 0.41257 0.19349 0.85911 0.0
H438 H 0.42854 0.19318 0.88234 0.0
H439 H 0.47055 0.24646 0.87154 0.0
C440 C 0.74107 0.21459 0.94805 0.0
C441 C 0.72586 0.21592 0.95065 0.0
C442 C 0.70926 0.18464 0.95864 0.0
C443 C 0.71013 0.20112 0.95582 0.0
C444 C 0.72458 0.18341 0.95616 0.0
C445 C 0.74027 0.19816 0.9509 0.0
U446 U 0.77808 0.23878 0.9181 0.0
O447 O 0.79103 0.26654 0.90956 0.0
O448 O 0.80676 0.25627 0.92089 0.0
C449 C 0.80669 0.27012 0.9146 0.0
C450 C 0.75759 0.23048 0.94261 0.0
C451 C 0.81726 0.28733 0.92244 0.0
C452 C 0.82818 0.30537 0.94565 0.0
C453 C 0.81687 0.289 0.93856 0.0
C454 C 0.83999 0.31854 0.92054 0.0
C455 C 0.84002 0.32029 0.93672 0.0
C456 C 0.82873 0.30223 0.9135 0.0
C457 C 0.77873 0.21606 0.88087 0.0
C458 C 0.80504 0.22551 0.86503 0.0
C459 C 0.77595 0.20904 0.85345 0.0
C460 C 0.76816 0.20818 0.86782 0.0
C461 C 0.79447 0.2177 0.8519 0.0
C462 C 0.79725 0.22481 0.87936 0.0
C463 C 0.77027 0.21558 0.89579 0.0
O464 O 0.77191 0.22902 0.94212 0.0
O465 O 0.75599 0.23884 0.93048 0.0
O466 O 0.76355 0.2262 0.89668 0.0
O467 O 0.77901 0.21584 0.9083 0.0
H468 H 0.72612 0.22842 0.9486 0.0
H469 H 0.69858 0.20257 0.95739 0.0
H470 H 0.72455 0.17106 0.95845 0.0
H471 H 0.75175 0.19666 0.9491 0.0
H472 H 0.82772 0.30631 0.95812 0.0
H473 H 0.80805 0.27762 0.94566 0.0
H474 H 0.84909 0.32962 0.91331 0.0
H475 H 0.82927 0.30115 0.90104 0.0
H476 H 0.81934 0.23242 0.86415 0.0
H477 H 0.76747 0.20276 0.84357 0.0
H478 H 0.75386 0.20145 0.86872 0.0
H479 H 0.80571 0.23121 0.88923 0.0
C480 C 0.51358 0.79445 0.07678 0.0
C481 C 0.52253 0.80977 0.08596 0.0
C482 C 0.50907 0.82429 0.07146 0.0
C483 C 0.52033 0.82457 0.0833 0.0
C484 C 0.50001 0.80879 0.06242 0.0
C485 C 0.50227 0.79404 0.06505 0.0
U486 U 0.52994 0.76872 0.10127 0.0
O487 O 0.51802 0.74001 0.10625 0.0
O488 O 0.54391 0.75437 0.09472 0.0
C489 C 0.53099 0.73887 0.0996 0.0
C490 C 0.516 0.77889 0.07925 0.0
C491 C 0.52629 0.7231 0.08976 0.0
C492 C 0.50502 0.69296 0.08137 0.0
C493 C 0.50876 0.7089 0.08868 0.0
C494 C 0.53615 0.70524 0.0757 0.0
C495 C 0.51871 0.69081 0.07501 0.0
C496 C 0.53988 0.72113 0.08302 0.0
C497 C 0.55192 0.78758 0.14018 0.0
C498 C 0.56982 0.77783 0.15426 0.0
C499 C 0.55819 0.79448 0.16746 0.0
C500 C 0.5502 0.79542 0.15373 0.0
C501 C 0.56813 0.78571 0.16789 0.0
C502 C 0.56169 0.77866 0.14054 0.0
C503 C 0.54331 0.78871 0.12587 0.0
O504 O 0.53247 0.78225 0.07899 0.0
O505 O 0.50665 0.76807 0.09058 0.0
O506 O 0.52645 0.77675 0.12458 0.0
O507 O 0.55228 0.79118 0.11298 0.0
H508 H 0.53124 0.8103 0.09515 0.0
H509 H 0.52736 0.83618 0.0906 0.0
H510 H 0.49143 0.80817 0.05308 0.0
H511 H 0.49527 0.78234 0.05783 0.0
H512 H 0.49141 0.68221 0.08088 0.0
H513 H 0.49796 0.70986 0.09387 0.0
H514 H 0.54707 0.70401 0.07114 0.0
H515 H 0.55355 0.73167 0.08392 0.0
H516 H 0.57725 0.77085 0.15426 0.0
H517 H 0.55682 0.80088 0.17771 0.0
H518 H 0.5427 0.80234 0.15368 0.0
H519 H 0.56304 0.77235 0.13022 0.0
C520 C 0.272 0.79372 0.06735 0.0
C521 C 0.27436 0.8109 0.06927 0.0
C522 C 0.30382 0.82423 0.05768 0.0
C523 C 0.29003 0.82596 0.06442 0.0
C524 C 0.30135 0.80695 0.05576 0.0
C525 C 0.2856 0.79188 0.06052 0.0
U526 U 0.23486 0.76982 0.09687 0.0
O527 O 0.20626 0.75189 0.09398 0.0
O528 O 0.22217 0.74239 0.10617 0.0
C529 C 0.20646 0.73844 0.10096 0.0
C530 C 0.25565 0.77766 0.07263 0.0
C531 C 0.19591 0.72082 0.09379 0.0
C532 C 0.18675 0.70101 0.07161 0.0
C533 C 0.1979 0.71777 0.07818 0.0
C534 C 0.17182 0.69028 0.09628 0.0
C535 C 0.17341 0.68715 0.08056 0.0
C536 C 0.18296 0.70694 0.1028 0.0
C537 C 0.23327 0.79352 0.13295 0.0
C538 C 0.20781 0.77924 0.15015 0.0
C539 C 0.23365 0.80698 0.15764 0.0
C540 C 0.24198 0.80722 0.14372 0.0
C541 C 0.21643 0.79302 0.16101 0.0
C542 C 0.21617 0.77947 0.13626 0.0
C543 C 0.24213 0.79381 0.11838 0.0
O544 O 0.2573 0.76981 0.0851 0.0
O545 O 0.24116 0.77882 0.07267 0.0
O546 O 0.23331 0.79282 0.10572 0.0
O547 O 0.24904 0.78334 0.11813 0.0
H548 H 0.26411 0.81272 0.07457 0.0
H549 H 0.29128 0.83897 0.06588 0.0
H550 H 0.31172 0.80505 0.05087 0.0
H551 H 0.2841 0.77876 0.059 0.0
H552 H 0.18823 0.69906 0.05945 0.0
H553 H 0.20784 0.72838 0.07104 0.0
H554 H 0.16191 0.67983 0.10355 0.0
H555 H 0.18127 0.70907 0.11489 0.0
H556 H 0.19449 0.7684 0.15225 0.0
H557 H 0.2408 0.81765 0.16583 0.0
H558 H 0.25523 0.81809 0.14139 0.0
H559 H 0.20927 0.76873 0.12807 0.0
C560 C 0.19991 0.45221 0.0547 0.0
C561 C 0.18239 0.44033 0.0592 0.0
C562 C 0.17223 0.45831 0.04558 0.0
C563 C 0.1687 0.44327 0.05459 0.0
C564 C 0.18979 0.47004 0.04088 0.0
C565 C 0.2035 0.46699 0.0454 0.0
U566 U 0.21927 0.43765 0.08675 0.0
O567 O 0.23236 0.42147 0.08656 0.0
O568 O 0.24638 0.44879 0.09564 0.0
C569 C 0.24747 0.43474 0.0915 0.0
C570 C 0.21449 0.44973 0.06036 0.0
C571 C 0.26345 0.43809 0.08272 0.0
C572 C 0.29192 0.45827 0.07075 0.0
C573 C 0.27651 0.45542 0.07831 0.0
C574 C 0.28135 0.42653 0.0716 0.0
C575 C 0.29461 0.44387 0.06742 0.0
C576 C 0.26602 0.4237 0.07922 0.0
C577 C 0.19141 0.421 0.12408 0.0
C578 C 0.19346 0.4023 0.14413 0.0
C579 C 0.17713 0.41771 0.149 0.0
C580 C 0.18124 0.42503 0.13408 0.0
C581 C 0.18305 0.40611 0.15414 0.0
C582 C 0.19767 0.40973 0.12924 0.0
C583 C 0.19487 0.42833 0.10824 0.0
O584 O 0.22373 0.46026 0.07178 0.0
O585 O 0.21054 0.43306 0.06251 0.0
O586 O 0.19416 0.41753 0.09723 0.0
O587 O 0.20819 0.44468 0.10665 0.0
H588 H 0.17927 0.42888 0.06647 0.0
H589 H 0.15533 0.43377 0.05818 0.0
H590 H 0.19302 0.48185 0.03409 0.0
H591 H 0.21696 0.47638 0.04192 0.0
H592 H 0.30193 0.47182 0.06789 0.0
H593 H 0.275 0.46684 0.08088 0.0
H594 H 0.28282 0.41508 0.06901 0.0
H595 H 0.2562 0.41021 0.08252 0.0
H596 H 0.19842 0.39361 0.14783 0.0
H597 H 0.16897 0.42078 0.15637 0.0
H598 H 0.17629 0.4337 0.13029 0.0
H599 H 0.20565 0.40655 0.12172 0.0
C600 C 0.41818 0.89524 0.28916 0.0
C601 C 0.41332 0.90774 0.28431 0.0
C602 C 0.38419 0.88994 0.29615 0.0
C603 C 0.39654 0.90516 0.28784 0.0
C604 C 0.38911 0.8774 0.30086 0.0
C605 C 0.40595 0.88006 0.29743 0.0
U606 U 0.45776 0.90921 0.26215 0.0
O607 O 0.47434 0.89708 0.25818 0.0
O608 O 0.48635 0.92444 0.26709 0.0
C609 C 0.48861 0.91088 0.26379 0.0
C610 C 0.4359 0.89781 0.2858 0.0
C611 C 0.49914 0.90703 0.27494 0.0
C612 C 0.50347 0.88636 0.29107 0.0
C613 C 0.49249 0.89013 0.28188 0.0
C614 C 0.52762 0.91653 0.28707 0.0
C615 C 0.52124 0.89945 0.29355 0.0
C616 C 0.51669 0.92025 0.27781 0.0
C617 C 0.45819 0.9256 0.22122 0.0
C618 C 0.48466 0.94411 0.20595 0.0
C619 C 0.45696 0.92446 0.19311 0.0
C620 C 0.4486 0.91876 0.2075 0.0
C621 C 0.47507 0.93723 0.19218 0.0
C622 C 0.47633 0.93826 0.22034 0.0
C623 C 0.44921 0.91897 0.23628 0.0
O624 O 0.43647 0.88704 0.27541 0.0
O625 O 0.44875 0.91444 0.28423 0.0
O626 O 0.45625 0.92972 0.24814 0.0
O627 O 0.44444 0.90229 0.2395 0.0
H628 H 0.4225 0.91955 0.27785 0.0
H629 H 0.39335 0.91523 0.2842 0.0
H630 H 0.37988 0.86537 0.30703 0.0
H631 H 0.40941 0.87022 0.30121 0.0
H632 H 0.49815 0.87313 0.29603 0.0
H633 H 0.47897 0.87969 0.27994 0.0
H634 H 0.54129 0.92683 0.28859 0.0
H635 H 0.52212 0.93334 0.27251 0.0
H636 H 0.49866 0.95383 0.20559 0.0
H637 H 0.4492 0.91907 0.1827 0.0
H638 H 0.43462 0.90894 0.20792 0.0
H639 H 0.48411 0.94358 0.23076 0.0
C640 C 0.16525 0.55193 0.27216 0.0
C641 C 0.15707 0.53661 0.26289 0.0
C642 C 0.16819 0.52157 0.27973 0.0
C643 C 0.15853 0.52158 0.26663 0.0
C644 C 0.17642 0.53706 0.2889 0.0
C645 C 0.17495 0.55205 0.28515 0.0
U646 U 0.14964 0.57689 0.24578 0.0
O647 O 0.13813 0.59382 0.25113 0.0
O648 O 0.16307 0.60502 0.23807 0.0
C649 C 0.15103 0.60797 0.24432 0.0
C650 C 0.16386 0.56786 0.2684 0.0
C651 C 0.15726 0.62529 0.25198 0.0
C652 C 0.16479 0.64398 0.27487 0.0
C653 C 0.16046 0.62762 0.26797 0.0
C654 C 0.16304 0.65579 0.24986 0.0
C655 C 0.16583 0.65816 0.26591 0.0
C656 C 0.15883 0.63956 0.243 0.0
C657 C 0.12392 0.55527 0.20902 0.0
C658 C 0.12294 0.57025 0.18539 0.0
C659 C 0.09776 0.54179 0.19267 0.0
C660 C 0.10679 0.54128 0.20588 0.0
C661 C 0.10576 0.55626 0.18225 0.0
C662 C 0.1319 0.56983 0.19869 0.0
C663 C 0.13309 0.55455 0.22318 0.0
O664 O 0.17276 0.57692 0.25611 0.0
O665 O 0.14784 0.56572 0.26911 0.0
O666 O 0.12534 0.55429 0.23631 0.0
O667 O 0.15036 0.56514 0.22348 0.0
H668 H 0.14952 0.53626 0.2528 0.0
H669 H 0.15185 0.50986 0.2594 0.0
H670 H 0.18419 0.53769 0.29891 0.0
H671 H 0.18143 0.56378 0.2924 0.0
H672 H 0.16677 0.64535 0.28728 0.0
H673 H 0.15924 0.61673 0.27512 0.0
H674 H 0.16401 0.66649 0.24258 0.0
H675 H 0.1564 0.63801 0.23064 0.0
H676 H 0.12936 0.58164 0.17765 0.0
H677 H 0.0846 0.53073 0.19048 0.0
H678 H 0.10037 0.52994 0.21367 0.0
H679 H 0.14503 0.58092 0.20087 0.0
C680 C 0.40653 0.54653 0.28388 0.0
C681 C 0.39153 0.54834 0.2861 0.0
C682 C 0.37424 0.51726 0.2944 0.0
C683 C 0.37554 0.53385 0.29122 0.0
C684 C 0.38927 0.51547 0.29222 0.0
C685 C 0.40522 0.52991 0.28701 0.0
U686 U 0.44402 0.57118 0.25429 0.0
O687 O 0.45839 0.59944 0.24724 0.0
O688 O 0.47284 0.58717 0.25754 0.0
C689 C 0.47364 0.60193 0.25245 0.0
C690 C 0.42346 0.56219 0.2788 0.0
C691 C 0.4848 0.6184 0.26139 0.0
C692 C 0.4928 0.6487 0.26872 0.0
C693 C 0.48092 0.63236 0.26193 0.0
C694 C 0.51249 0.63735 0.27482 0.0
C695 C 0.50883 0.65145 0.27508 0.0
C696 C 0.50066 0.62106 0.268 0.0
C697 C 0.44388 0.5503 0.21581 0.0
C698 C 0.47022 0.56142 0.19971 0.0
C699 C 0.44124 0.5426 0.18856 0.0
C700 C 0.4334 0.54145 0.20296 0.0
C701 C 0.45974 0.55258 0.18678 0.0
C702 C 0.46236 0.56039 0.21408 0.0
C703 C 0.4354 0.54932 0.2308 0.0
O704 O 0.43727 0.55991 0.27781 0.0
O705 O 0.42243 0.5716 0.26724 0.0
O706 O 0.42956 0.56061 0.23244 0.0
O707 O 0.44376 0.54827 0.24309 0.0
H708 H 0.39219 0.56102 0.28394 0.0
H709 H 0.36427 0.53573 0.29293 0.0
H710 H 0.38867 0.50282 0.29439 0.0
H711 H 0.4165 0.52801 0.28546 0.0
H712 H 0.48951 0.65924 0.26887 0.0
H713 H 0.46892 0.63086 0.25679 0.0
H714 H 0.52483 0.63909 0.27938 0.0
H715 H 0.50422 0.61071 0.26749 0.0
H716 H 0.48449 0.56935 0.19866 0.0
H717 H 0.43283 0.53549 0.17885 0.0
H718 H 0.41912 0.53366 0.20407 0.0
H719 H 0.4707 0.56753 0.22381 0.0
O720 O 0.47964 0.98634 0.01327 0.0
Mn721 Mn 0.50586 0.00569 0.0082 0.0
O722 O 0.46988 0.99879 0.03073 0.0
Mn723 Mn 0.49102 0.02018 0.03329 0.0
O724 O 0.53206 0.02504 1.00323 0.0
O725 O 0.51063 0.98634 1.00157 0.0
Mn726 Mn 0.52126 0.99107 0.98348 0.0
O727 O 0.49854 0.00858 0.98563 0.0
O728 O 0.54222 0.01263 0.98611 0.0
O729 O 0.51324 1.00254 0.03061 0.0
O730 O 0.50683 0.0188 0.04676 0.0
O731 O 0.51952 0.96989 0.99048 0.0
O732 O 0.50527 0.99203 0.96996 0.0
C733 C 0.50014 0.03957 0.0149 0.0
C734 C 0.46751 0.98569 0.02223 0.0
C735 C 0.54439 0.02569 0.99455 0.0
C736 C 0.51224 0.97235 1.00254 0.0
C737 C 0.49824 1.0017 0.97235 0.0
C738 C 0.51363 0.00902 0.04407 0.0
O739 O 0.5012 0.02519 0.01494 0.0
O740 O 0.49328 0.04183 0.02736 0.0
O741 O 0.0229 0.49451 0.01069 0.0
Mn742 Mn 0.00708 0.50599 0.00752 0.0
O743 O 0.01144 0.47634 0.03153 0.0
Mn744 Mn 0.99226 0.47977 0.03554 0.0
O745 O 0.99126 0.51753 0.00456 0.0
O746 O 0.02745 0.52734 0.99773 0.0
Mn747 Mn 0.02176 0.53314 0.98002 0.0
O748 O 0.9984 0.49353 0.98589 0.0
O749 O 1.00364 0.53775 0.98523 0.0
O750 O 0.01575 0.51862 0.02911 0.0
O751 O 0.99776 0.49963 0.04734 0.0
O752 O 0.04532 0.54995 0.98375 0.0
O753 O 0.01478 0.51348 0.96745 0.0
C754 C 0.97173 0.47004 0.01828 0.0
C755 C 0.0231 0.4836 0.0208 0.0
C756 C 0.99168 0.52966 0.99557 0.0
C757 C 0.04291 0.54123 0.99657 0.0
C758 C 1.00308 0.4978 0.97164 0.0
C759 C 0.01006 0.515 0.04316 0.0
O760 O 0.98676 0.48453 0.01728 0.0
O761 O 0.96925 0.46187 0.0314 0.0
O762 O 0.53193 0.51643 0.00494 0.0
Mn763 Mn 0.50487 0.5038 0.00942 0.0
O764 O 0.53639 0.53388 0.98393 0.0
Mn765 Mn 0.51307 0.52867 0.98078 0.0
O766 O 0.47776 0.49115 0.01385 0.0
O767 O 0.50598 0.48339 0.01936 0.0
Mn768 Mn 0.49626 0.47841 0.03783 0.0
O769 O 0.50929 0.51708 0.03067 0.0
O770 O 0.4729 0.4727 0.03418 0.0
O771 O 0.50042 0.49042 0.98822 0.0
O772 O 0.49939 0.50809 0.9696 0.0
O773 O 0.50347 0.46188 0.03392 0.0
O774 O 0.50929 0.49889 0.04936 0.0
C775 C 0.50213 0.53819 0.99819 0.0
C776 C 0.54204 0.52746 0.99446 0.0
C777 C 0.46744 0.47952 0.02386 0.0
C778 C 0.50819 0.46977 0.0206 0.0
C779 C 0.51154 0.51393 0.04483 0.0
C780 C 0.49761 0.49323 0.97412 0.0
O781 O 0.50387 0.52428 0.99947 0.0
O782 O 0.50654 0.54572 0.98471 0.0
O783 O 0.1443 0.31748 0.3455 0.0
Mn784 Mn 0.17054 0.33709 0.34075 0.0
O785 O 0.13362 0.33008 0.36189 0.0
Mn786 Mn 0.15438 0.35178 0.36447 0.0
O787 O 0.19675 0.35669 0.33611 0.0
O788 O 0.17593 0.31783 0.33507 0.0
Mn789 Mn 0.18702 0.32254 0.31718 0.0
O790 O 0.16364 0.33929 0.31788 0.0
O791 O 0.20774 0.34428 0.31986 0.0
O792 O 0.17739 0.33479 0.36355 0.0
O793 O 0.16998 0.35112 0.37869 0.0
O794 O 0.18547 0.3016 0.32449 0.0
O795 O 0.17133 0.32297 0.30297 0.0
C796 C 0.1637 0.37047 0.34547 0.0
C797 C 0.13177 0.31683 0.35391 0.0
C798 C 0.20945 0.35741 0.32792 0.0
C799 C 0.17775 0.30396 0.33628 0.0
C800 C 0.16389 0.33234 0.3048 0.0
C801 C 0.17718 0.34154 0.37673 0.0
O802 O 0.16524 0.35641 0.34646 0.0
O803 O 0.15613 0.37288 0.35736 0.0
O804 O 0.6897 0.82806 0.34354 0.0
Mn805 Mn 0.67483 0.84049 0.33995 0.0
O806 O 0.67832 0.81138 0.36521 0.0
Mn807 Mn 0.65969 0.8158 0.36895 0.0
O808 O 0.65996 0.85298 0.3366 0.0
O809 O 0.69543 0.86082 0.32939 0.0
Mn810 Mn 0.6898 0.86621 0.31144 0.0
O811 O 0.66519 0.82723 0.31879 0.0
O812 O 0.67239 0.87197 0.31643 0.0
O813 O 0.68443 0.8539 0.36106 0.0
O814 O 0.66612 0.83648 0.37989 0.0
O815 O 0.71366 0.88248 0.31478 0.0
O816 O 0.68175 0.84579 0.29963 0.0
C817 C 0.63907 0.80585 0.3517 0.0
C818 C 0.6897 0.81756 0.35417 0.0
C819 C 0.66066 0.86484 0.32711 0.0
C820 C 0.7111 0.87428 0.3279 0.0
C821 C 0.66959 0.8306 0.30441 0.0
C822 C 0.67891 0.8513 0.37517 0.0
O823 O 0.65428 0.82004 0.35046 0.0
O824 O 0.63639 0.79825 0.36513 0.0
O825 O 0.19854 0.85023 0.33414 0.0
Mn826 Mn 0.17156 0.83793 0.33892 0.0
O827 O 0.20299 0.86818 0.31351 0.0
Mn828 Mn 0.17978 0.86355 0.31093 0.0
O829 O 0.14451 0.8256 0.34362 0.0
O830 O 0.17244 0.817 0.34809 0.0
Mn831 Mn 0.16265 0.81159 0.36656 0.0
O832 O 0.17646 0.85067 0.36046 0.0
O833 O 0.13932 0.80604 0.3631 0.0
O834 O 0.16651 0.82503 0.31742 0.0
O835 O 0.16549 0.84337 0.2995 0.0
O836 O 0.16992 0.79521 0.36236 0.0
O837 O 0.1757 0.83158 0.37863 0.0
C838 C 0.16929 0.87302 0.32873 0.0
C839 C 0.2086 0.86135 0.32369 0.0
C840 C 0.13404 0.81354 0.35328 0.0
C841 C 0.17482 0.80345 0.34919 0.0
C842 C 0.17844 0.84693 0.37451 0.0
C843 C 0.16332 0.82824 0.30359 0.0
O844 O 0.17088 0.85898 0.32975 0.0
O845 O 0.17373 0.88081 0.31535 0.0
O846 O 0.81444 0.65403 0.68 0.0
Mn847 Mn 0.8408 0.67273 0.67488 0.0
O848 O 0.80531 0.66713 0.69739 0.0
Mn849 Mn 0.82681 0.68815 0.69989 0.0
O850 O 0.86713 0.69147 0.66985 0.0
O851 O 0.84484 0.65283 0.66835 0.0
Mn852 Mn 0.85545 0.65724 0.65027 0.0
O853 O 0.83368 0.6758 0.65228 0.0
O854 O 0.87679 0.67843 0.6529 0.0
O855 O 0.84796 0.66938 0.69732 0.0
O856 O 0.84229 0.68624 0.7134 0.0
O857 O 0.853 0.63578 0.65725 0.0
O858 O 0.8398 0.65874 0.63669 0.0
C859 C 0.83635 0.70741 0.68139 0.0
C860 C 0.80253 0.65386 0.68894 0.0
C861 C 0.87929 0.69166 0.66125 0.0
C862 C 0.84595 0.63855 0.66932 0.0
C863 C 0.83318 0.66878 0.63903 0.0
C864 C 0.84858 0.67599 0.71076 0.0
O865 O 0.8369 0.69276 0.68152 0.0
O866 O 0.82977 0.71005 0.69384 0.0
O867 O 0.35735 0.16196 0.67671 0.0
Mn868 Mn 0.34046 0.17228 0.67386 0.0
O869 O 0.34549 0.14175 0.69615 0.0
Mn870 Mn 0.3256 0.14389 0.70028 0.0
O871 O 0.32355 0.18259 0.67121 0.0
O872 O 0.36059 0.19495 0.66534 0.0
Mn873 Mn 0.35498 0.20126 0.64782 0.0
O874 O 0.33338 0.16122 0.65156 0.0
O875 O 0.33588 0.20432 0.65305 0.0
O876 O 0.34751 0.18343 0.69614 0.0
O877 O 0.32977 0.16248 0.71328 0.0
O878 O 0.37798 0.21878 0.65233 0.0
O879 O 0.34975 0.18279 0.63428 0.0
C880 C 0.30551 0.13487 0.6827 0.0
C881 C 0.35763 0.15046 0.68608 0.0
C882 C 0.32367 0.19503 0.66287 0.0
C883 C 0.37564 0.20949 0.66479 0.0
C884 C 0.3387 0.1666 0.63763 0.0
C885 C 0.34142 0.17846 0.70996 0.0
O886 O 0.32038 0.1496 0.6823 0.0
O887 O 0.30297 0.12581 0.69533 0.0
O888 O 0.86311 0.1826 0.668 0.0
Mn889 Mn 0.83614 0.17068 0.6727 0.0
O890 O 0.86853 0.20223 0.64854 0.0
Mn891 Mn 0.84558 0.1983 0.64587 0.0
O892 O 0.80909 0.15878 0.67737 0.0
O893 O 0.83647 0.14905 0.68115 0.0
Mn894 Mn 0.82665 0.14362 0.69965 0.0
O895 O 0.84132 0.18282 0.69453 0.0
O896 O 0.80346 0.13847 0.69628 0.0
O897 O 0.83095 0.15889 0.65063 0.0
O898 O 0.83131 0.17888 0.63362 0.0
O899 O 0.83331 0.12687 0.6954 0.0
O900 O 0.83985 0.16306 0.71225 0.0
C901 C 0.83483 0.20647 0.66457 0.0
C902 C 0.8736 0.19436 0.65816 0.0
C903 C 0.79845 0.14645 0.68675 0.0
C904 C 0.83832 0.13513 0.68224 0.0
C905 C 0.84308 0.17866 0.70848 0.0
C906 C 0.82845 0.16328 0.63696 0.0
O907 O 0.83601 0.19222 0.66435 0.0
O908 O 0.83995 0.21553 0.65181 0.0
C909 C 0.32797 0.85598 0.06195 0.0
C910 C 0.3208 0.84037 0.053 0.0
C911 C 0.34393 0.87107 0.05774 0.0
C912 C 0.37521 0.89228 0.02475 0.0
H913 H 0.40682 0.92111 0.05753 0.0
C914 C 0.4464 0.95356 0.01494 0.0
C915 C 0.4503 0.96876 0.02375 0.0
C916 C 0.43069 0.93734 0.01752 0.0
C917 C 0.3981 0.91324 0.04824 0.0
H918 H 0.3249 0.82864 0.03238 0.0
H919 H 0.35304 0.85474 0.02533 0.0
H920 H 0.37958 0.89386 0.06405 0.0
H921 H 0.44029 0.97875 0.0419 0.0
H922 H 0.41324 0.9507 0.04633 0.0
H923 H 0.39408 0.91178 0.00896 0.0
C924 C 0.34614 0.8554 0.03551 0.0
C925 C 0.38241 0.89763 0.05197 0.0
C926 C 0.33009 0.84031 0.03968 0.0
C927 C 0.43789 0.9674 0.0349 0.0
C928 C 0.42237 0.95125 0.03754 0.0
C929 C 0.39106 0.90787 0.021 0.0
C930 C 0.35333 0.87098 0.04452 0.0
C931 C 0.37056 0.88708 0.04032 0.0
C932 C 0.41868 0.93597 0.02907 0.0
C933 C 0.40251 0.91868 0.03274 0.0
H934 H 0.3214 0.85653 0.07239 0.0
H935 H 0.34883 0.88288 0.06484 0.0
H936 H 0.36639 0.8846 0.01546 0.0
H937 H 0.45561 0.9541 0.00625 0.0
H938 H 0.42818 0.92576 0.01082 0.0
C939 C 0.1569 0.46893 0.02711 0.0
C940 C 0.1577 0.46198 0.04167 0.0
C941 C 0.14313 0.4723 0.02362 0.0
C942 C 0.10852 0.47874 0.04273 0.0
H943 H 0.08581 0.46683 1.0025 0.0
C944 C 0.04005 0.47051 0.03318 0.0
C945 C 0.03821 0.48022 0.0209 0.0
C946 C 0.05514 0.46891 0.03444 0.0
C947 C 0.09217 0.47037 0.01372 0.0
H948 H 0.14477 0.45349 0.06406 0.0
H949 H 0.12058 0.45865 0.05782 0.0
H950 H 0.11156 0.46321 0.0073 0.0
H951 H 0.0506 0.4952 0.9999 0.0
H952 H 0.07697 0.49206 1.00203 0.0
H953 H 0.08881 0.48532 0.04931 0.0
C954 C 0.1307 0.46181 0.04914 0.0
C955 C 0.10694 0.46837 0.01647 0.0
C956 C 0.14446 0.45856 0.05264 0.0
C957 C 0.05157 0.48764 0.00952 0.0
C958 C 0.06665 0.48585 0.0107 0.0
C959 C 0.09371 0.48054 0.04004 0.0
C960 C 0.12987 0.46879 0.03462 0.0
C961 C 0.11509 0.47223 0.03112 0.0
C962 C 0.06872 0.47681 0.02338 0.0
C963 C 0.08521 0.47609 0.02561 0.0
H964 H 0.16681 0.47159 0.01834 0.0
H965 H 0.14298 0.4778 0.01237 0.0
H966 H 0.11474 0.48233 0.05401 0.0
H967 H 0.03007 0.46454 0.04216 0.0
H968 H 0.0563 0.46164 0.04421 0.0
C969 C 0.52411 0.67286 0.05508 0.0
C970 C 0.51505 0.67339 0.06836 0.0
C971 C 0.5215 0.6566 0.04939 0.0
C972 C 0.49067 0.60774 0.05037 0.0
H973 H 0.53163 0.60619 0.03493 0.0
C974 C 0.51307 0.55601 0.02217 0.0
C975 C 0.4996 0.54765 0.01115 0.0
C976 C 0.51366 0.56934 0.03172 0.0
C977 C 0.52006 0.60625 0.03941 0.0
H978 H 0.49602 0.65706 0.08598 0.0
H979 H 0.49142 0.6287 0.07599 0.0
H980 H 0.53537 0.63362 0.0461 0.0
H981 H 0.47619 0.54646 1.00143 0.0
H982 H 0.47698 0.56953 0.01818 0.0
H983 H 0.47537 0.5803 0.04366 0.0
C984 C 0.50042 0.64088 0.0699 0.0
C985 C 0.52218 0.62211 0.0456 0.0
C986 C 0.50304 0.65717 0.07561 0.0
C987 C 0.48636 0.55233 0.01022 0.0
C988 C 0.48688 0.56559 0.0198 0.0
C989 C 0.48854 0.59184 0.04414 0.0
C990 C 0.50977 0.6404 0.05681 0.0
C991 C 0.50749 0.62317 0.05095 0.0
C992 C 0.50089 0.57472 0.0303 0.0
C993 C 0.50319 0.59095 0.0384 0.0
H994 H 0.53323 0.68505 0.04905 0.0
H995 H 0.52865 0.65673 0.03909 0.0
H996 H 0.47905 0.60808 0.05433 0.0
H997 H 0.52375 0.55303 0.02275 0.0
H998 H 0.52451 0.5759 0.03981 0.0
C999 C 0.86194 0.33735 0.9577 0.0
C1000 C 0.85299 0.3374 0.94417 0.0
C1001 C 0.87508 0.35335 0.96406 0.0
C1002 C 0.89271 0.40224 0.96424 0.0
H1003 H 0.93455 0.40296 0.98044 0.0
C1004 C 0.96548 0.45264 0.9942 0.0
C1005 C 0.96009 0.46085 0.00517 0.0
C1006 C 0.9531 0.4396 0.98434 0.0
C1007 C 0.92311 0.40314 0.97576 0.0
H1008 H 0.85045 0.35445 0.92706 0.0
H1009 H 0.87359 0.38236 0.93801 0.0
H1010 H 0.91144 0.376 0.96848 0.0
H1011 H 0.93777 0.46213 0.01455 0.0
H1012 H 0.91607 0.43954 0.99724 0.0
H1013 H 0.90452 0.4295 0.97148 0.0
C1014 C 0.87038 0.36993 0.94374 0.0
C1015 C 0.90969 0.38754 0.96912 0.0
C1016 C 0.85722 0.3539 0.93738 0.0
C1017 C 0.94227 0.45635 0.0058 0.0
C1018 C 0.92987 0.44338 0.9959 0.0
C1019 C 0.90617 0.4179 0.9709 0.0
C1020 C 0.87964 0.36984 0.95705 0.0
C1021 C 0.8942 0.38678 0.96348 0.0
C1022 C 0.93504 0.43441 0.9854 0.0
C1023 C 0.92145 0.41847 0.97691 0.0
H1024 H 0.85915 0.3249 0.96316 0.0
H1025 H 0.88172 0.35279 0.97447 0.0
H1026 H 0.88093 0.40212 0.96007 0.0
H1027 H 0.97911 0.45557 0.99383 0.0
H1028 H 0.95759 0.43316 0.97624 0.0
C1029 C 0.69057 0.54435 0.98227 0.0
C1030 C 0.69867 0.55277 0.96821 0.0
C1031 C 0.67417 0.54231 0.98655 0.0
C1032 C 0.6448 0.56082 0.97961 0.0
H1033 H 0.60751 0.51486 0.99431 0.0
C1034 C 0.57202 0.54351 0.98201 0.0
C1035 C 0.56094 0.53224 0.99385 0.0
C1036 C 0.58936 0.54687 0.98045 0.0
C1037 C 0.61785 0.52788 0.99051 0.0
H1038 H 0.6956 0.56538 0.94755 0.0
H1039 H 0.66722 0.56211 0.95519 0.0
H1040 H 0.63672 0.51894 0.98853 0.0
H1041 H 0.55974 0.5161 0.01364 0.0
H1042 H 0.59019 0.52229 0.0111 0.0
H1043 H 0.62607 0.56984 0.9816 0.0
C1044 C 0.67366 0.55723 0.96294 0.0
C1045 C 0.63458 0.53019 0.98714 0.0
C1046 C 0.68996 0.55913 0.95859 0.0
C1047 C 0.56787 0.52483 0.00437 0.0
C1048 C 0.5853 0.52826 1.00284 0.0
C1049 C 0.62815 0.55857 0.9831 0.0
C1050 C 0.66558 0.54878 0.97696 0.0
C1051 C 0.64814 0.54661 0.98143 0.0
C1052 C 0.59619 0.53916 0.99073 0.0
C1053 C 0.61436 0.54198 0.98834 0.0
H1054 H 0.69699 0.53955 0.99011 0.0
H1055 H 0.66835 0.5359 0.9975 0.0
H1056 H 0.65509 0.57372 0.97549 0.0
H1057 H 0.5672 0.54944 0.97363 0.0
H1058 H 0.59721 0.55509 0.97083 0.0
C1059 C 0.50727 0.16508 0.94354 0.0
C1060 C 0.49616 0.16936 0.9521 0.0
C1061 C 0.50867 0.15005 0.94737 0.0
C1062 C 0.4854 0.10677 0.96827 0.0
H1063 H 0.5318 0.11111 0.97105 0.0
C1064 C 0.51786 0.06979 0.00359 0.0
C1065 C 0.50449 0.05198 1.00179 0.0
C1066 C 0.51842 0.0832 0.99403 0.0
C1067 C 0.51874 0.10964 0.97025 0.0
H1068 H 0.47752 0.16089 0.97119 0.0
H1069 H 0.48001 0.1348 0.9779 0.0
H1070 H 0.52903 0.1364 0.96178 0.0
H1071 H 0.48155 0.03399 0.98839 0.0
H1072 H 0.48268 0.05732 0.97137 0.0
H1073 H 0.47512 0.08031 0.97725 0.0
C1074 C 0.48761 0.14302 0.96819 0.0
C1075 C 0.51714 0.1241 0.96484 0.0
C1076 C 0.48633 0.15811 0.96445 0.0
C1077 C 0.49227 0.0476 0.98972 0.0
C1078 C 0.49277 0.061 0.98017 0.0
C1079 C 0.48698 0.0923 0.97358 0.0
C1080 C 0.49884 0.13882 0.95974 0.0
C1081 C 0.50047 0.12296 0.9641 0.0
C1082 C 0.5054 0.07907 0.98264 0.0
C1083 C 0.5037 0.09365 0.97493 0.0
H1084 H 0.51512 0.17354 0.93403 0.0
H1085 H 0.51736 0.14715 0.94057 0.0
H1086 H 0.47234 0.10534 0.96766 0.0
H1087 H 0.52711 0.07353 0.01312 0.0
H1088 H 0.52822 0.09694 0.99641 0.0
C1089 C 0.68113 0.17065 0.97454 0.0
C1090 C 0.69245 0.16878 0.96403 0.0
C1091 C 0.66536 0.15573 0.97951 0.0
C1092 C 0.64364 0.10667 0.98324 0.0
H1093 H 0.59988 0.1081 0.98388 0.0
C1094 C 0.57583 0.04272 0.98533 0.0
C1095 C 0.56183 0.04244 0.99368 0.0
C1096 C 0.59195 0.05851 0.98352 0.0
C1097 C 0.61202 0.10754 0.98404 0.0
H1098 H 0.6957 0.14962 0.95033 0.0
H1099 H 0.66846 0.1237 0.95918 0.0
H1100 H 0.62763 0.13501 0.97718 0.0
H1101 H 0.55405 0.0587 0.00689 0.0
H1102 H 0.58241 0.08636 0.00387 0.0
H1103 H 0.62816 0.07927 0.99003 0.0
C1104 C 0.67189 0.13669 0.96371 0.0
C1105 C 0.62792 0.12297 0.98015 0.0
C1106 C 0.68756 0.15159 0.95866 0.0
C1107 C 0.56453 0.0584 1.00042 0.0
C1108 C 0.58075 0.07429 0.99859 0.0
C1109 C 0.6278 0.09131 0.9872 0.0
C1110 C 0.6606 0.13856 0.97421 0.0
C1111 C 0.64387 0.12261 0.97943 0.0
C1112 C 0.59463 0.07455 0.99003 0.0
C1113 C 0.61171 0.09143 0.98736 0.0
H1114 H 0.68455 0.18361 0.97912 0.0
H1115 H 0.65704 0.1576 0.98772 0.0
H1116 H 0.65575 0.10604 0.98311 0.0
H1117 H 0.57431 0.03076 0.97993 0.0
H1118 H 0.60217 0.0582 0.97663 0.0
C1119 C 0.87412 0.56742 0.97977 0.0
C1120 C 0.86281 0.55615 0.96818 0.0
C1121 C 0.88676 0.56408 0.98656 0.0
C1122 C 0.90098 0.52996 0.99002 0.0
H1123 H 0.94771 0.57154 0.99382 0.0
C1124 C 0.96218 0.52367 0.00587 0.0
C1125 C 0.97718 0.53391 0.99655 0.0
C1126 C 0.94786 0.52677 0.00559 0.0
C1127 C 0.93475 0.55978 0.99284 0.0
H1128 H 0.85561 0.53228 0.95489 0.0
H1129 H 0.87775 0.52658 0.96651 0.0
H1130 H 0.92267 0.5754 0.98738 0.0
H1131 H 0.98907 0.55586 0.98004 0.0
H1132 H 0.96419 0.56103 0.97942 0.0
H1133 H 0.9133 0.51431 0.99459 0.0
C1134 C 0.87667 0.53781 0.97064 0.0
C1135 C 0.92031 0.562 0.98934 0.0
C1136 C 0.86397 0.54109 0.96394 0.0
C1137 C 0.97776 0.54767 0.98737 0.0
C1138 C 0.9635 0.55076 0.9871 0.0
C1139 C 0.91545 0.52774 0.99345 0.0
C1140 C 0.88846 0.54945 0.98182 0.0
C1141 C 0.90331 0.5471 0.98752 0.0
C1142 C 0.94827 0.5402 0.99603 0.0
C1143 C 0.93258 0.54261 0.99451 0.0
H1144 H 0.87336 0.579 0.98343 0.0
H1145 H 0.8954 0.57314 0.99534 0.0
H1146 H 0.88802 0.5182 0.98895 0.0
H1147 H 0.96128 0.51297 0.0131 0.0
H1148 H 0.9364 0.51852 0.01273 0.0
C1149 C 0.49526 0.34015 0.96026 0.0
C1150 C 0.49968 0.33984 0.94465 0.0
C1151 C 0.49867 0.35615 0.96722 0.0
C1152 C 0.50558 0.40093 0.95787 0.0
H1153 H 0.52184 0.41116 1.00034 0.0
C1154 C 0.49865 0.45159 0.99676 0.0
C1155 C 0.51192 0.46113 0.0077 0.0
C1156 C 0.49959 0.43903 0.98723 0.0
C1157 C 0.51753 0.40867 0.9884 0.0
H1158 H 0.51186 0.3564 0.92435 0.0
H1159 H 0.51764 0.38422 0.93647 0.0
H1160 H 0.51893 0.38464 0.98783 0.0
H1161 H 0.5366 0.46527 0.01728 0.0
H1162 H 0.53862 0.44374 1.00032 0.0
H1163 H 0.50402 0.42493 0.95853 0.0
C1164 C 0.51129 0.37202 0.94325 0.0
C1165 C 0.51564 0.39331 0.98129 0.0
C1166 C 0.50795 0.35604 0.93631 0.0
C1167 C 0.52647 0.45841 0.00861 0.0
C1168 C 0.52746 0.44591 0.99906 0.0
C1169 C 0.50737 0.41626 0.96502 0.0
C1170 C 0.50655 0.37226 0.95875 0.0
C1171 C 0.50946 0.38913 0.966 0.0
C1172 C 0.51374 0.43563 0.98861 0.0
C1173 C 0.51322 0.42024 0.98043 0.0
H1174 H 0.48864 0.32794 0.967 0.0
H1175 H 0.49465 0.35581 0.97914 0.0
H1176 H 0.50066 0.39805 0.94611 0.0
H1177 H 0.48701 0.45305 0.99625 0.0
H1178 H 0.48869 0.43124 0.97945 0.0
C1179 C 0.14267 0.66122 0.07723 0.0
C1180 C 0.1608 0.66964 0.07354 0.0
C1181 C 0.13069 0.64484 0.07064 0.0
C1182 C 0.12525 0.61662 0.03684 0.0
H1183 H 0.08459 0.58108 0.05991 0.0
C1184 C 0.07311 0.55284 0.00711 0.0
C1185 C 0.05564 0.54906 0.00927 0.0
C1186 C 0.08655 0.56472 0.01693 0.0
C1187 C 0.09589 0.59087 0.05332 0.0
H1188 H 0.18057 0.66725 0.06022 0.0
H1189 H 0.15966 0.63857 0.04874 0.0
H1190 H 0.10722 0.60768 0.07307 0.0
H1191 H 0.03836 0.55458 0.02324 0.0
H1192 H 0.06176 0.57533 0.04046 0.0
H1193 H 0.11379 0.60007 0.01705 0.0
C1194 C 0.15467 0.64478 0.05659 0.0
C1195 C 0.10883 0.60615 0.06084 0.0
C1196 C 0.16667 0.66122 0.06315 0.0
C1197 C 0.05165 0.5568 0.02172 0.0
C1198 C 0.0651 0.56878 0.0315 0.0
C1199 C 0.11237 0.60135 0.02936 0.0
C1200 C 0.13651 0.63641 0.0602 0.0
C1201 C 0.12352 0.61938 0.05262 0.0
C1202 C 0.0828 0.57332 0.02891 0.0
C1203 C 0.09738 0.58842 0.03743 0.0
H1204 H 0.13765 0.66748 0.08499 0.0
H1205 H 0.11678 0.63902 0.07344 0.0
H1206 H 0.13621 0.62661 0.03007 0.0
H1207 H 0.0765 0.54733 0.99732 0.0
H1208 H 0.10002 0.5678 0.01471 0.0
C1209 C 0.31936 0.43704 0.06498 0.0
C1210 C 0.3114 0.44694 0.0601 0.0
C1211 C 0.33526 0.44004 0.0584 0.0
C1212 C 0.37493 0.47414 0.03821 0.0
H1213 H 0.38231 0.43427 0.02993 0.0
C1214 C 0.44228 0.48447 0.01628 0.0
C1215 C 0.44845 0.47437 0.02421 0.0
C1216 C 0.42473 0.4806 0.01808 0.0
C1217 C 0.38049 0.44556 0.03222 0.0
H1218 H 0.31391 0.46764 0.04424 0.0
H1219 H 0.34185 0.47303 0.03288 0.0
H1220 H 0.35321 0.42865 0.03814 0.0
H1221 H 0.44071 0.45182 0.03974 0.0
H1222 H 0.41039 0.44521 0.04288 0.0
H1223 H 0.40236 0.49106 0.03272 0.0
C1224 C 0.33576 0.463 0.04189 0.0
C1225 C 0.36381 0.44233 0.03693 0.0
C1226 C 0.31977 0.45993 0.04843 0.0
C1227 C 0.43648 0.45993 0.03348 0.0
C1228 C 0.419 0.45604 0.0352 0.0
C1229 C 0.39166 0.47738 0.03353 0.0
C1230 C 0.34368 0.45308 0.04681 0.0
C1231 C 0.36093 0.45658 0.0403 0.0
C1232 C 0.41295 0.46648 0.02773 0.0
C1233 C 0.39473 0.46311 0.03081 0.0
H1234 H 0.31353 0.4272 0.07416 0.0
H1235 H 0.34118 0.43242 0.06267 0.0
H1236 H 0.37318 0.48541 0.04083 0.0
H1237 H 0.45114 0.49571 0.00908 0.0
H1238 H 0.42044 0.4888 0.01204 0.0
C1239 C 0.49042 0.83817 0.0646 0.0
C1240 C 0.50705 0.84019 0.06831 0.0
C1241 C 0.48867 0.85303 0.06099 0.0
C1242 C 0.51224 0.90288 0.06299 0.0
H1243 H 0.48267 0.89845 0.02784 0.0
C1244 C 0.52333 0.96141 0.02376 0.0
C1245 C 0.50886 0.96123 0.01646 0.0
C1246 C 0.5208 0.94765 0.03384 0.0
C1247 C 0.49068 0.89988 0.03791 0.0
H1248 H 0.53487 0.85957 0.07115 0.0
H1249 H 0.53189 0.88541 0.06472 0.0
H1250 H 0.4829 0.87218 0.03775 0.0
H1251 H 0.48037 0.94701 0.01431 0.0
H1252 H 0.4758 0.92272 0.03203 0.0
H1253 H 0.52055 0.93079 0.06267 0.0
C1254 C 0.52009 0.87237 0.0649 0.0
C1255 C 0.49086 0.88477 0.04359 0.0
C1256 C 0.52182 0.85751 0.06857 0.0
C1257 C 0.49168 0.94759 0.02007 0.0
C1258 C 0.48913 0.93361 0.03005 0.0
C1259 C 0.51211 0.91802 0.05727 0.0
C1260 C 0.50352 0.87034 0.06092 0.0
C1261 C 0.50195 0.88612 0.05598 0.0
C1262 C 0.50373 0.93316 0.03658 0.0
C1263 C 0.50164 0.91678 0.04442 0.0
H1264 H 0.4787 0.82506 0.06454 0.0
H1265 H 0.47565 0.85094 0.05824 0.0
H1266 H 0.52066 0.90439 0.07276 0.0
H1267 H 0.53671 0.97166 0.02089 0.0
H1268 H 0.53236 0.9477 0.03851 0.0
C1269 C 0.9921 0.18804 0.39406 0.0
C1270 C 0.98529 0.17197 0.38579 0.0
C1271 C 0.00807 0.203 0.38968 0.0
C1272 C 0.04016 0.22277 0.35706 0.0
H1273 H 0.07079 0.25327 0.3896 0.0
C1274 C 0.11136 0.28429 0.34736 0.0
C1275 C 0.11468 0.29978 0.35542 0.0
C1276 C 0.09571 0.26802 0.35004 0.0
C1277 C 0.06235 0.24492 0.38037 0.0
H1278 H 0.99002 0.1593 0.36617 0.0
H1279 H 0.01818 0.18522 0.35886 0.0
H1280 H 0.04352 0.22619 0.39639 0.0
H1281 H 0.10368 0.31024 0.37227 0.0
H1282 H 0.07679 0.28214 0.37688 0.0
H1283 H 0.05935 0.24164 0.34108 0.0
C1284 C 0.011 0.18632 0.36862 0.0
C1285 C 0.04664 0.22941 0.38425 0.0
C1286 C 0.99492 0.17135 0.37295 0.0
C1287 C 0.10175 0.29867 0.36587 0.0
C1288 C 0.08631 0.28249 0.36861 0.0
C1289 C 0.05604 0.23826 0.35317 0.0
C1290 C 0.01784 0.20233 0.37699 0.0
C1291 C 0.03513 0.21828 0.37267 0.0
C1292 C 0.08321 0.26693 0.36094 0.0
C1293 C 0.06712 0.24967 0.36481 0.0
H1294 H 0.98524 0.18904 0.40411 0.0
H1295 H 0.0127 0.21515 0.39625 0.0
H1296 H 0.03161 0.21461 0.34781 0.0
H1297 H 0.12097 0.28464 0.33921 0.0
H1298 H 0.09365 0.25621 0.34395 0.0
C1299 C 0.82195 0.80035 0.36064 0.0
C1300 C 0.823 0.79355 0.3752 0.0
C1301 C 0.808 0.80349 0.35726 0.0
C1302 C 0.77343 0.80974 0.37663 0.0
H1303 H 0.7507 0.79809 0.33641 0.0
C1304 C 0.70583 0.80381 0.367 0.0
C1305 C 0.7043 0.8134 0.35446 0.0
C1306 C 0.72054 0.80156 0.36837 0.0
C1307 C 0.75705 0.80154 0.34763 0.0
H1308 H 0.81028 0.785 0.39767 0.0
H1309 H 0.78579 0.78977 0.3916 0.0
H1310 H 0.77627 0.79418 0.34115 0.0
H1311 H 0.71681 0.82747 0.33313 0.0
H1312 H 0.74249 0.82326 0.3355 0.0
H1313 H 0.75396 0.81664 0.38323 0.0
C1314 C 0.79585 0.79299 0.38285 0.0
C1315 C 0.77171 0.79936 0.35035 0.0
C1316 C 0.80979 0.78998 0.38625 0.0
C1317 C 0.71754 0.82002 0.34295 0.0
C1318 C 0.73224 0.8176 0.34427 0.0
C1319 C 0.75872 0.81173 0.37396 0.0
C1320 C 0.7948 0.79988 0.36835 0.0
C1321 C 0.77992 0.8032 0.36498 0.0
C1322 C 0.73405 0.8087 0.3572 0.0
C1323 C 0.75023 0.80742 0.35952 0.0
H1324 H 0.8318 0.80311 0.3518 0.0
H1325 H 0.80769 0.80893 0.34602 0.0
H1326 H 0.77968 0.81329 0.38789 0.0
H1327 H 0.69591 0.79843 0.37607 0.0
H1328 H 0.72147 0.7944 0.37833 0.0
C1329 C 0.18822 0.00453 0.39115 0.0
C1330 C 0.17776 0.00398 0.40377 0.0
C1331 C 0.18609 0.98877 0.38467 0.0
C1332 C 0.15491 0.93993 0.38212 0.0
H1333 H 0.19696 0.93927 0.36854 0.0
C1334 C 0.17923 0.88991 0.3533 0.0
C1335 C 0.16628 0.88202 0.3418 0.0
C1336 C 0.17932 0.90277 0.36317 0.0
C1337 C 0.18507 0.93905 0.37248 0.0
H1338 H 0.15641 0.9862 0.41911 0.0
H1339 H 0.15296 0.95877 0.40802 0.0
H1340 H 0.19985 0.96583 0.38079 0.0
H1341 H 0.14333 0.88127 0.33147 0.0
H1342 H 0.14329 0.90355 0.34868 0.0
H1343 H 0.14016 0.91303 0.37392 0.0
C1344 C 0.16275 0.97141 0.40305 0.0
C1345 C 0.18671 0.95446 0.37929 0.0
C1346 C 0.16486 0.98719 0.40952 0.0
C1347 C 0.1531 0.88675 0.34062 0.0
C1348 C 0.15314 0.89957 0.35047 0.0
C1349 C 0.15326 0.92448 0.37532 0.0
C1350 C 0.17347 0.97199 0.39064 0.0
C1351 C 0.17165 0.95522 0.384 0.0
C1352 C 0.16659 0.90819 0.36156 0.0
C1353 C 0.16831 0.9239 0.37022 0.0
H1354 H 0.19841 0.01718 0.3865 0.0
H1355 H 0.19439 0.98977 0.37495 0.0
H1356 H 0.143 0.94002 0.38553 0.0
H1357 H 0.18988 0.8869 0.35409 0.0
H1358 H 0.18974 0.90892 0.3717 0.0
C1359 C 0.53153 0.67023 0.29493 0.0
C1360 C 0.52205 0.66914 0.28142 0.0
C1361 C 0.54468 0.68675 0.30041 0.0
C1362 C 0.56116 0.73529 0.29834 0.0
H1363 H 0.60378 0.73802 0.31492 0.0
C1364 C 0.63341 0.7881 0.32788 0.0
C1365 C 0.62758 0.79612 0.33865 0.0
C1366 C 0.62132 0.77472 0.3181 0.0
C1367 C 0.59213 0.73764 0.3101 0.0
H1368 H 0.51894 0.68465 0.26313 0.0
H1369 H 0.5419 0.71353 0.27274 0.0
H1370 H 0.58108 0.71028 0.30369 0.0
H1371 H 0.60479 0.79674 0.34773 0.0
H1372 H 0.5836 0.77354 0.33054 0.0
H1373 H 0.57232 0.76274 0.30478 0.0
C1374 C 0.53901 0.70159 0.27918 0.0
C1375 C 0.57895 0.7216 0.30388 0.0
C1376 C 0.52583 0.68503 0.27369 0.0
C1377 C 0.60962 0.79109 0.33914 0.0
C1378 C 0.59751 0.77778 0.3293 0.0
C1379 C 0.57438 0.75138 0.30458 0.0
C1380 C 0.54873 0.70263 0.29252 0.0
C1381 C 0.56316 0.72011 0.29818 0.0
C1382 C 0.60314 0.769 0.31903 0.0
C1383 C 0.58991 0.75267 0.31076 0.0
H1384 H 0.52875 0.65829 0.30131 0.0
H1385 H 0.55162 0.68709 0.31092 0.0
H1386 H 0.54914 0.73459 0.29407 0.0
H1387 H 0.64715 0.7914 0.32766 0.0
H1388 H 0.62615 0.76841 0.31019 0.0
C1389 C 0.35723 0.89195 0.28901 0.0
C1390 C 0.36623 0.88711 0.29977 0.0
C1391 C 0.34039 0.88929 0.29235 0.0
C1392 C 0.30913 0.88093 0.32484 0.0
H1393 H 0.27497 0.86665 0.29152 0.0
C1394 C 0.23447 0.8586 0.33334 0.0
C1395 C 0.22735 0.86566 0.32264 0.0
C1396 C 0.25168 0.8615 0.3314 0.0
C1397 C 0.28441 0.87076 0.30092 0.0
H1398 H 0.36451 0.87583 0.32265 0.0
H1399 H 0.33489 0.87057 0.32822 0.0
H1400 H 0.30419 0.87067 0.2864 0.0
H1401 H 0.23307 0.88178 0.30176 0.0
H1402 H 0.26286 0.8867 0.29844 0.0
H1403 H 0.28903 0.88066 0.33938 0.0
C1404 C 0.34099 0.87672 0.31728 0.0
C1405 C 0.30121 0.87314 0.29799 0.0
C1406 C 0.35791 0.87951 0.31398 0.0
C1407 C 0.23802 0.87607 0.31023 0.0
C1408 C 0.25509 0.87882 0.30824 0.0
C1409 C 0.29222 0.87837 0.3278 0.0
C1410 C 0.33199 0.88155 0.30649 0.0
C1411 C 0.31388 0.87845 0.30985 0.0
C1412 C 0.26202 0.87136 0.31866 0.0
C1413 C 0.27977 0.87346 0.31582 0.0
H1414 H 0.36308 0.89763 0.27787 0.0
H1415 H 0.33403 0.89344 0.28384 0.0
H1416 H 0.31859 0.88521 0.33423 0.0
H1417 H 0.22665 0.85051 0.34303 0.0
H1418 H 0.25668 0.85555 0.33959 0.0
C1419 C 0.17171 0.49518 0.27248 0.0
C1420 C 0.1696 0.50551 0.28393 0.0
C1421 C 0.17323 0.48026 0.27653 0.0
C1422 C 0.184 0.45994 0.30986 0.0
H1423 H 0.15889 0.41599 0.28663 0.0
C1424 C 0.1851 0.39748 0.33076 0.0
C1425 C 0.16825 0.38231 0.3319 0.0
C1426 C 0.18777 0.41207 0.32159 0.0
C1427 C 0.16604 0.42818 0.29322 0.0
H1428 H 0.16694 0.50779 0.30866 0.0
H1429 H 0.1696 0.48195 0.31569 0.0
H1430 H 0.15804 0.44253 0.27798 0.0
H1431 H 0.14121 0.36999 0.32387 0.0
H1432 H 0.14577 0.39518 0.30778 0.0
H1433 H 0.19136 0.44552 0.32548 0.0
C1434 C 0.17047 0.48556 0.30357 0.0
C1435 C 0.16567 0.44345 0.28818 0.0
C1436 C 0.16892 0.50043 0.29953 0.0
C1437 C 0.15444 0.3814 0.32288 0.0
C1438 C 0.15708 0.39592 0.31369 0.0
C1439 C 0.1844 0.44473 0.31487 0.0
C1440 C 0.17272 0.4753 0.29215 0.0
C1441 C 0.17433 0.45944 0.29664 0.0
C1442 C 0.17357 0.41179 0.31352 0.0
C1443 C 0.17515 0.42852 0.3068 0.0
H1444 H 0.1725 0.49879 0.26036 0.0
H1445 H 0.17511 0.47278 0.26744 0.0
H1446 H 0.19109 0.47208 0.31652 0.0
H1447 H 0.19582 0.39866 0.33793 0.0
H1448 H 0.20072 0.42395 0.32155 0.0
C1449 C 0.34108 0.49801 0.29321 0.0
C1450 C 0.35729 0.50185 0.29995 0.0
C1451 C 0.32523 0.48318 0.29809 0.0
C1452 C 0.30829 0.4395 0.31782 0.0
H1453 H 0.26418 0.44028 0.3187 0.0
C1454 C 0.24076 0.37508 0.31845 0.0
C1455 C 0.22675 0.37432 0.32717 0.0
C1456 C 0.25677 0.39102 0.31686 0.0
C1457 C 0.27641 0.43988 0.31872 0.0
H1458 H 0.36942 0.49348 0.31754 0.0
H1459 H 0.3418 0.46775 0.32617 0.0
H1460 H 0.29185 0.46767 0.31298 0.0
H1461 H 0.21891 0.38987 0.34133 0.0
H1462 H 0.24703 0.41783 0.33857 0.0
H1463 H 0.29294 0.4118 0.32369 0.0
C1464 C 0.34135 0.47595 0.31685 0.0
C1465 C 0.29226 0.45555 0.31523 0.0
C1466 C 0.3572 0.49071 0.31191 0.0
C1467 C 0.22935 0.38996 0.33448 0.0
C1468 C 0.24544 0.40601 0.33283 0.0
C1469 C 0.29249 0.42389 0.32133 0.0
C1470 C 0.32515 0.47186 0.3099 0.0
C1471 C 0.30838 0.45551 0.31453 0.0
C1472 C 0.25932 0.40674 0.32393 0.0
C1473 C 0.27629 0.42378 0.32158 0.0
H1474 H 0.34071 0.50621 0.28385 0.0
H1475 H 0.31308 0.48032 0.29229 0.0
H1476 H 0.32038 0.43887 0.31727 0.0
H1477 H 0.23933 0.36337 0.31261 0.0
H1478 H 0.26701 0.3911 0.30971 0.0
C1479 C 0.5336 0.87919 0.29842 0.0
C1480 C 0.5335 0.89502 0.30183 0.0
C1481 C 0.54647 0.87592 0.30476 0.0
C1482 C 0.59178 0.90038 0.3202 0.0
H1483 H 0.58335 0.85267 0.32873 0.0
C1484 C 0.64715 0.88289 0.31782 0.0
C1485 C 0.64671 0.8699 0.32796 0.0
C1486 C 0.63332 0.88663 0.31758 0.0
C1487 C 0.58593 0.86613 0.32665 0.0
H1488 H 0.54617 0.91934 0.31528 0.0
H1489 H 0.56852 0.91352 0.32656 0.0
H1490 H 0.55838 0.85726 0.32372 0.0
H1491 H 0.63154 0.85108 0.34624 0.0
H1492 H 0.60746 0.85781 0.34592 0.0
H1493 H 0.6193 0.90925 0.32313 0.0
C1494 C 0.55889 0.90382 0.31869 0.0
C1495 C 0.57161 0.86873 0.32358 0.0
C1496 C 0.54607 0.90714 0.31227 0.0
C1497 C 0.63232 0.86114 0.33824 0.0
C1498 C 0.61845 0.86491 0.338 0.0
C1499 C 0.60607 0.89779 0.32333 0.0
C1500 C 0.5595 0.88836 0.31473 0.0
C1501 C 0.5744 0.88583 0.31994 0.0
C1502 C 0.61868 0.87753 0.32751 0.0
C1503 C 0.60336 0.88058 0.3262 0.0
H1504 H 0.52424 0.8697 0.29026 0.0
H1505 H 0.54666 0.86401 0.30125 0.0
H1506 H 0.59448 0.91372 0.31732 0.0
H1507 H 0.65798 0.88992 0.30973 0.0
H1508 H 0.63384 0.89624 0.30919 0.0
C1509 C 0.18228 0.68349 0.2846 0.0
C1510 C 0.16923 0.67518 0.27318 0.0
C1511 C 0.18547 0.69959 0.29124 0.0
C1512 C 0.17695 0.73765 0.2857 0.0
H1513 H 0.18624 0.74385 0.32977 0.0
C1514 C 0.16826 0.78797 0.32386 0.0
C1515 C 0.1798 0.79565 0.33641 0.0
C1516 C 0.16975 0.77577 0.31423 0.0
C1517 C 0.18398 0.74252 0.31739 0.0
H1518 H 0.14904 0.67713 0.26004 0.0
H1519 H 0.15434 0.7049 0.27177 0.0
H1520 H 0.18305 0.71735 0.31718 0.0
H1521 H 0.20214 0.7971 0.34859 0.0
H1522 H 0.20512 0.77621 0.33159 0.0
H1523 H 0.17731 0.76267 0.28614 0.0
C1524 C 0.1625 0.69932 0.27533 0.0
C1525 C 0.18214 0.72726 0.31015 0.0
C1526 C 0.1594 0.68332 0.26862 0.0
C1527 C 0.19336 0.79164 0.33875 0.0
C1528 C 0.19488 0.7795 0.32915 0.0
C1529 C 0.17869 0.7529 0.29299 0.0
C1530 C 0.17558 0.70771 0.28674 0.0
C1531 C 0.17845 0.72451 0.29422 0.0
C1532 C 0.18266 0.77087 0.31715 0.0
C1533 C 0.18212 0.75546 0.30896 0.0
H1534 H 0.19022 0.67769 0.28823 0.0
H1535 H 0.19583 0.70575 0.29983 0.0
H1536 H 0.17441 0.73617 0.27338 0.0
H1537 H 0.15726 0.79031 0.3222 0.0
H1538 H 0.16 0.76926 0.30521 0.0
C1539 C 0.83415 0.9932 0.39669 0.0
C1540 C 0.82801 1.00123 0.40723 0.0
C1541 C 0.82237 0.97688 0.3898 0.0
C1542 C 0.77652 0.93799 0.39314 0.0
H1543 H 0.78223 0.93327 0.34923 0.0
C1544 C 0.71989 0.89007 0.35297 0.0
C1545 C 0.72391 0.88237 0.34052 0.0
C1546 C 0.73327 0.90187 0.36289 0.0
C1547 C 0.7806 0.93418 0.36156 0.0
H1548 H 0.80462 0.99851 0.41864 0.0
H1549 H 0.78411 0.9703 0.40654 0.0
H1550 H 0.80445 0.95938 0.3629 0.0
H1551 H 0.74483 0.88067 0.32861 0.0
H1552 H 0.76825 0.90091 0.34621 0.0
H1553 H 0.75226 0.91304 0.39157 0.0
C1554 C 0.79807 0.9763 0.40386 0.0
C1555 C 0.79337 0.94919 0.36942 0.0
C1556 C 0.80984 0.99254 0.41077 0.0
C1557 C 0.74139 0.88614 0.3384 0.0
C1558 C 0.75478 0.89787 0.34836 0.0
C1559 C 0.76369 0.923 0.38525 0.0
C1560 C 0.80415 0.96828 0.39323 0.0
C1561 C 0.79136 0.95147 0.38526 0.0
C1562 C 0.75095 0.90629 0.36044 0.0
C1563 C 0.76545 0.92105 0.36931 0.0
H1564 H 0.8481 0.99946 0.39386 0.0
H1565 H 0.82756 0.97099 0.38183 0.0
H1566 H 0.7747 0.93912 0.4054 0.0
H1567 H 0.70664 0.88798 0.3544 0.0
H1568 H 0.72989 0.90835 0.37189 0.0
C1569 C 0.98633 0.77115 0.39578 0.0
C1570 C 0.97876 0.78167 0.39174 0.0
C1571 C 1.00217 0.77424 0.38901 0.0
C1572 C 0.04236 0.80911 0.36993 0.0
H1573 H 0.04886 0.76925 0.35911 0.0
C1574 C 0.10925 0.81946 0.3467 0.0
C1575 C 0.11514 0.80869 0.35386 0.0
C1576 C 0.09181 0.8158 0.34878 0.0
C1577 C 0.04729 0.78054 0.36212 0.0
H1578 H 0.98192 0.8036 0.37716 0.0
H1579 H 0.00974 0.80913 0.36546 0.0
H1580 H 0.0199 0.76369 0.36774 0.0
H1581 H 0.10701 0.78521 0.36829 0.0
H1582 H 0.07686 0.77896 0.37192 0.0
H1583 H 0.06988 0.82593 0.3647 0.0
C1584 C 1.0034 0.79854 0.37396 0.0
C1585 C 0.03069 0.77734 0.36707 0.0
C1586 C 0.98747 0.79538 0.3807 0.0
C1587 C 0.103 0.79383 0.36263 0.0
C1588 C 0.08561 0.79015 0.36463 0.0
C1589 C 0.05899 0.81231 0.36499 0.0
C1590 C 0.01093 0.788 0.37805 0.0
C1591 C 0.02812 0.79156 0.37135 0.0
C1592 C 0.07985 0.80124 0.35794 0.0
C1593 C 0.06174 0.79803 0.36135 0.0
H1594 H 0.98022 0.76072 0.40446 0.0
H1595 H 0.00778 0.76611 0.39265 0.0
H1596 H 0.04086 0.82035 0.37325 0.0
H1597 H 0.11825 0.83103 0.3399 0.0
H1598 H 0.08773 0.8245 0.34335 0.0
C1599 C 0.15618 0.16924 0.39709 0.0
C1600 C 0.17277 0.17134 0.40108 0.0
C1601 C 0.15439 0.18407 0.39341 0.0
C1602 C 0.17735 0.23379 0.39605 0.0
H1603 H 0.14874 0.22971 0.36026 0.0
C1604 C 0.18828 0.29328 0.35811 0.0
C1605 C 0.17397 0.29274 0.35019 0.0
C1606 C 0.18573 0.27931 0.36795 0.0
C1607 C 0.15647 0.23105 0.37051 0.0
H1608 H 0.20049 0.19085 0.40438 0.0
H1609 H 0.19741 0.21664 0.39789 0.0
H1610 H 0.14918 0.20347 0.36995 0.0
H1611 H 0.14567 0.27764 0.34675 0.0
H1612 H 0.14104 0.2531 0.36414 0.0
H1613 H 0.1851 0.26156 0.39622 0.0
C1614 C 0.18568 0.20354 0.39786 0.0
C1615 C 0.15677 0.21595 0.37606 0.0
C1616 C 0.18746 0.18871 0.40156 0.0
C1617 C 0.15685 0.27852 0.35301 0.0
C1618 C 0.15427 0.26438 0.36278 0.0
C1619 C 0.17707 0.24891 0.39049 0.0
C1620 C 0.16915 0.20143 0.3936 0.0
C1621 C 0.16752 0.21718 0.3887 0.0
C1622 C 0.16881 0.26428 0.36986 0.0
C1623 C 0.16693 0.24782 0.37742 0.0
H1624 H 0.14451 0.1561 0.39686 0.0
H1625 H 0.1414 0.18192 0.39043 0.0
H1626 H 0.1855 0.2352 0.40601 0.0
H1627 H 0.20166 0.30396 0.35584 0.0
H1628 H 0.19727 0.27969 0.37305 0.0
C1629 C 0.66341 0.51057 0.70723 0.0
C1630 C 0.65439 0.51097 0.72061 0.0
C1631 C 0.67962 0.52539 0.70296 0.0
C1632 C 0.71664 0.56722 0.71915 0.0
H1633 H 0.72798 0.5811 0.67605 0.0
C1634 C 0.77281 0.63634 0.70157 0.0
C1635 C 0.78508 0.63725 0.6905 0.0
C1636 C 0.75708 0.62043 0.7043 0.0
C1637 C 0.72504 0.57725 0.68811 0.0
H1638 H 0.65559 0.5274 0.74001 0.0
H1639 H 0.68328 0.5533 0.73227 0.0
H1640 H 0.70004 0.55432 0.68277 0.0
H1641 H 0.78996 0.62208 0.67318 0.0
H1642 H 0.76215 0.59417 0.67788 0.0
H1643 H 0.74138 0.5904 0.7245 0.0
C1644 C 0.67806 0.54143 0.7252 0.0
C1645 C 0.70906 0.5619 0.69199 0.0
C1646 C 0.66197 0.52662 0.72953 0.0
C1647 C 0.78085 0.62188 0.68181 0.0
C1648 C 0.76493 0.60591 0.68447 0.0
C1649 C 0.73246 0.58261 0.71529 0.0
C1650 C 0.6872 0.54101 0.71193 0.0
C1651 C 0.70455 0.55681 0.70759 0.0
C1652 C 0.75307 0.60497 0.69597 0.0
C1653 C 0.73674 0.58793 0.69976 0.0
H1654 H 0.65791 0.49886 0.69996 0.0
H1655 H 0.6863 0.52448 0.69274 0.0
H1656 H 0.71389 0.56351 0.73125 0.0
H1657 H 0.77548 0.64785 0.70847 0.0
H1658 H 0.74806 0.62018 0.71306 0.0
C1659 C 0.49333 0.13926 0.6938 0.0
C1660 C 0.49393 0.13258 0.70855 0.0
C1661 C 0.47974 0.14279 0.68998 0.0
C1662 C 0.44517 0.14998 0.70828 0.0
H1663 H 0.42227 0.13652 0.66818 0.0
C1664 C 0.37562 0.13852 0.69837 0.0
C1665 C 0.37336 0.14807 0.68619 0.0
C1666 C 0.39117 0.13777 0.69966 0.0
C1667 C 0.4287 0.14051 0.67935 0.0
H1668 H 0.48087 0.1248 0.73094 0.0
H1669 H 0.457 0.13024 0.72414 0.0
H1670 H 0.44828 0.13344 0.67337 0.0
H1671 H 0.3855 0.1637 0.66541 0.0
H1672 H 0.4127 0.16197 0.66757 0.0
H1673 H 0.42518 0.15633 0.71446 0.0
C1674 C 0.46713 0.13306 0.71556 0.0
C1675 C 0.44361 0.13882 0.68232 0.0
C1676 C 0.48071 0.12964 0.71938 0.0
C1677 C 0.38681 0.15625 0.67495 0.0
C1678 C 0.40235 0.15526 0.67615 0.0
C1679 C 0.43022 0.15145 0.70537 0.0
C1680 C 0.46647 0.13973 0.70084 0.0
C1681 C 0.45178 0.14317 0.69696 0.0
C1682 C 0.40478 0.14635 0.68873 0.0
C1683 C 0.42164 0.1464 0.691 0.0
H1684 H 0.50324 0.14155 0.68514 0.0
H1685 H 0.47971 0.14803 0.67858 0.0
H1686 H 0.4514 0.15394 0.71952 0.0
H1687 H 0.3656 0.13204 0.70725 0.0
H1688 H 0.39265 0.13062 0.70936 0.0
C1689 C 0.82762 0.32377 0.7339 0.0
C1690 C 0.84469 0.33645 0.7389 0.0
C1691 C 0.82413 0.30708 0.72847 0.0
C1692 C 0.84196 0.27584 0.7283 0.0
H1693 H 0.8146 0.25814 0.69063 0.0
C1694 C 0.84701 0.22628 0.68715 0.0
C1695 C 0.83215 0.21449 0.6785 0.0
C1696 C 0.84607 0.23822 0.69744 0.0
C1697 C 0.82195 0.26263 0.70135 0.0
H1698 H 0.87135 0.34122 0.74247 0.0
H1699 H 0.86538 0.31237 0.73272 0.0
H1700 H 0.81785 0.28503 0.70258 0.0
H1701 H 0.80459 0.20549 0.67393 0.0
H1702 H 0.8027 0.22606 0.69225 0.0
H1703 H 0.84645 0.25364 0.72678 0.0
C1704 C 0.85462 0.31523 0.73311 0.0
C1705 C 0.82386 0.27813 0.70819 0.0
C1706 C 0.85811 0.33191 0.7385 0.0
C1707 C 0.81609 0.21419 0.68079 0.0
C1708 C 0.81511 0.22614 0.69111 0.0
C1709 C 0.84005 0.26031 0.72145 0.0
C1710 C 0.8376 0.3026 0.72797 0.0
C1711 C 0.83419 0.28516 0.72158 0.0
C1712 C 0.83027 0.23875 0.69913 0.0
C1713 C 0.83031 0.25371 0.70771 0.0
H1714 H 0.81699 0.32684 0.73399 0.0
H1715 H 0.81084 0.29764 0.7247 0.0
H1716 H 0.84973 0.28067 0.73878 0.0
H1717 H 0.85965 0.22703 0.68523 0.0
H1718 H 0.85806 0.24783 0.70326 0.0
C1719 C 0.19156 0.01709 0.60398 0.0
C1720 C 0.19078 1.00148 0.6098 0.0
C1721 C 0.20441 0.03389 0.60932 0.0
C1722 C 0.24784 0.05634 0.62913 0.0
H1723 H 0.23612 0.09312 0.63823 0.0
C1724 C 0.27549 0.12003 0.67137 0.0
C1725 C 0.2937 0.12677 0.66944 0.0
C1726 C 0.26343 0.10769 0.6609 0.0
C1727 C 0.23962 0.08301 0.63571 0.0
H1728 H 0.20242 0.99124 0.6262 0.0
H1729 H 0.22463 0.02042 0.63562 0.0
H1730 H 0.21371 0.06491 0.62706 0.0
H1731 H 0.31372 0.12615 0.65513 0.0
H1732 H 0.29278 0.10512 0.63642 0.0
H1733 H 0.27337 0.07388 0.63848 0.0
C1734 C 0.21564 0.01977 0.62664 0.0
C1735 C 0.22682 0.06689 0.62919 0.0
C1736 C 0.20287 1.00302 0.62129 0.0
C1737 C 0.29977 0.12164 0.65652 0.0
C1738 C 0.28772 0.1093 0.64601 0.0
C1739 C 0.26059 0.07238 0.63568 0.0
C1740 C 0.21672 0.03543 0.62061 0.0
C1741 C 0.23067 0.0532 0.62617 0.0
C1742 C 0.26937 0.10163 0.64841 0.0
C1743 C 0.25655 0.08579 0.63936 0.0
H1744 H 0.18256 0.01636 0.59499 0.0
H1745 H 0.20494 0.04569 0.60435 0.0
H1746 H 0.25137 0.04623 0.62667 0.0
H1747 H 0.27054 0.12344 0.68154 0.0
H1748 H 0.24943 0.10191 0.6633 0.0
C1749 C 0.02096 0.20827 0.64665 0.0
C1750 C 0.02975 0.21692 0.63288 0.0
C1751 C 0.00422 0.20584 0.65013 0.0
C1752 C 0.9656 0.2055 0.63153 0.0
H1753 H 0.95292 0.20989 0.67366 0.0
C1754 C 0.90337 0.20957 0.64532 0.0
C1755 C 0.89221 0.19825 0.6571 0.0
C1756 C 0.9203 0.21199 0.64321 0.0
C1757 C 0.95626 0.20849 0.66187 0.0
H1758 H 0.02763 0.22975 0.61196 0.0
H1759 H 0.99889 0.22618 0.61829 0.0
H1760 H 0.98221 0.21387 0.66821 0.0
H1761 H 0.8905 0.18112 0.67628 0.0
H1762 H 0.92028 0.18556 0.67264 0.0
H1763 H 0.93979 0.20045 0.62516 0.0
C1764 C 0.00475 0.22092 0.62629 0.0
C1765 C 0.97301 0.21071 0.65873 0.0
C1766 C 0.02141 0.22322 0.62276 0.0
C1767 C 0.89871 0.18993 0.66709 0.0
C1768 C 0.91578 0.19249 0.66504 0.0
C1769 C 0.94897 0.20344 0.63464 0.0
C1770 C 0.99587 0.2121 0.63997 0.0
C1771 C 0.97794 0.20936 0.64349 0.0
C1772 C 0.92659 0.20327 0.65288 0.0
C1773 C 0.94415 0.20503 0.64982 0.0
H1774 H 0.02706 0.20345 0.65484 0.0
H1775 H 0.99773 0.19884 0.66069 0.0
H1776 H 0.96872 0.20391 0.61971 0.0
H1777 H 0.89891 0.21628 0.63742 0.0
H1778 H 0.92845 0.2206 0.63389 0.0
C1779 C 0.8241 0.82602 0.62883 0.0
C1780 C 0.83424 0.83722 0.61657 0.0
C1781 C 0.82518 0.81086 0.63278 0.0
C1782 C 0.85453 0.79166 0.63029 0.0
H1783 H 0.81215 0.74809 0.64251 0.0
C1784 C 0.82887 0.71528 0.65594 0.0
C1785 C 0.8409 0.71973 0.66817 0.0
C1786 C 0.82957 0.72863 0.64617 0.0
C1787 C 0.82411 0.76002 0.63889 0.0
H1788 H 0.85352 0.84122 0.59886 0.0
H1789 H 0.8554 0.81471 0.60576 0.0
H1790 H 0.80972 0.77316 0.63247 0.0
H1791 H 0.86339 0.74132 0.67959 0.0
H1792 H 0.86487 0.76463 0.66252 0.0
H1793 H 0.86894 0.77857 0.63702 0.0
C1794 C 0.84663 0.81771 0.61233 0.0
C1795 C 0.82273 0.7745 0.63333 0.0
C1796 C 0.84544 0.83281 0.6083 0.0
C1797 C 0.85429 0.73754 0.66994 0.0
C1798 C 0.85506 0.75088 0.66018 0.0
C1799 C 0.85593 0.77718 0.63596 0.0
C1800 C 0.8365 0.80653 0.62463 0.0
C1801 C 0.83793 0.79063 0.62924 0.0
C1802 C 0.84223 0.7467 0.64859 0.0
C1803 C 0.84076 0.76126 0.64059 0.0
H1804 H 0.81521 0.8289 0.63534 0.0
H1805 H 0.81735 0.80269 0.64242 0.0
H1806 H 0.86652 0.80389 0.6273 0.0
H1807 H 0.81814 0.70168 0.65462 0.0
H1808 H 0.81963 0.72491 0.63724 0.0
C1809 C 0.01452 0.83625 0.63809 0.0
C1810 C 0.02756 0.83445 0.63 0.0
C1811 C 0.99863 0.82116 0.64255 0.0
C1812 C 0.96999 0.77367 0.63257 0.0
H1813 H 0.94829 0.77004 0.67262 0.0
C1814 C 0.91111 0.70768 0.65316 0.0
C1815 C 0.89681 0.70819 0.66018 0.0
C1816 C 0.92715 0.72333 0.65059 0.0
C1817 C 0.9541 0.77094 0.66133 0.0
H1818 H 0.03432 0.81529 0.62081 0.0
H1819 H 0.00669 0.78907 0.62853 0.0
H1820 H 0.97612 0.79696 0.66592 0.0
H1821 H 0.88846 0.72564 0.67051 0.0
H1822 H 0.91657 0.75311 0.6659 0.0
H1823 H 0.94807 0.7478 0.62789 0.0
C1824 C 0.00858 0.80215 0.63117 0.0
C1825 C 0.97004 0.78635 0.65749 0.0
C1826 C 0.02443 0.8172 0.62673 0.0
C1827 C 0.89921 0.72475 0.66512 0.0
C1828 C 0.91533 0.74049 0.66249 0.0
C1829 C 0.95411 0.75833 0.63639 0.0
C1830 C 0.9954 0.80392 0.639 0.0
C1831 C 0.97825 0.78782 0.6431 0.0
C1832 C 0.92936 0.73998 0.6549 0.0
C1833 C 0.94604 0.75667 0.65087 0.0
H1834 H 0.01642 0.84934 0.64067 0.0
H1835 H 0.9887 0.82301 0.64843 0.0
H1836 H 0.97571 0.77451 0.62125 0.0
H1837 H 0.90984 0.69516 0.64937 0.0
H1838 H 0.9378 0.72239 0.64506 0.0
C1839 C 0.19093 0.20616 0.64148 0.0
C1840 C 0.19613 0.22269 0.63431 0.0
C1841 C 0.20351 0.20277 0.64837 0.0
C1842 C 0.25042 0.22505 0.66164 0.0
H1843 H 0.2468 0.1796 0.65189 0.0
C1844 C 0.3103 0.21443 0.65856 0.0
C1845 C 0.3086 0.19833 0.66409 0.0
C1846 C 0.29574 0.21706 0.65838 0.0
C1847 C 0.24785 0.19222 0.65497 0.0
H1848 H 0.21859 0.24867 0.62886 0.0
H1849 H 0.24045 0.24276 0.64068 0.0
H1850 H 0.22257 0.18479 0.64521 0.0
H1851 H 0.29037 0.17251 0.67418 0.0
H1852 H 0.26481 0.17707 0.67367 0.0
H1853 H 0.27609 0.23271 0.67076 0.0
C1854 C 0.22665 0.23251 0.64133 0.0
C1855 C 0.23395 0.19521 0.65116 0.0
C1856 C 0.21409 0.2359 0.63452 0.0
C1857 C 0.29212 0.18509 0.66988 0.0
C1858 C 0.27747 0.18764 0.66952 0.0
C1859 C 0.26436 0.2221 0.66535 0.0
C1860 C 0.22156 0.21583 0.64817 0.0
C1861 C 0.23525 0.21183 0.6541 0.0
C1862 C 0.27911 0.20358 0.66358 0.0
C1863 C 0.2634 0.20581 0.66172 0.0
H1864 H 0.17714 0.19578 0.64167 0.0
H1865 H 0.19911 0.18987 0.65372 0.0
H1866 H 0.25171 0.23786 0.66438 0.0
H1867 H 0.32282 0.22493 0.65409 0.0
H1868 H 0.29738 0.2294 0.65358 0.0
C1869 C 0.82362 0.01524 0.59953 0.0
C1870 C 0.83232 0.00661 0.60576 0.0
C1871 C 0.82589 0.03102 0.60603 0.0
C1872 C 0.85571 0.0691 0.63062 0.0
H1873 H 0.81396 0.0732 0.63766 0.0
C1874 C 0.85474 0.1208 0.67209 0.0
C1875 C 0.84278 0.12692 0.66942 0.0
C1876 C 0.8554 0.10843 0.66215 0.0
C1877 C 0.82586 0.07254 0.63548 0.0
H1878 H 0.85034 0.00792 0.62368 0.0
H1879 H 0.85426 0.03555 0.63511 0.0
H1880 H 0.81107 0.0468 0.62507 0.0
H1881 H 0.82209 0.12493 0.65432 0.0
H1882 H 0.82379 0.10403 0.63642 0.0
H1883 H 0.87052 0.09484 0.64107 0.0
C1884 C 0.84576 0.0301 0.62511 0.0
C1885 C 0.82416 0.05729 0.62833 0.0
C1886 C 0.84338 0.01419 0.61867 0.0
C1887 C 0.83196 0.12101 0.65628 0.0
C1888 C 0.83265 0.10867 0.64625 0.0
C1889 C 0.85745 0.08446 0.63767 0.0
C1890 C 0.83698 0.03866 0.61889 0.0
C1891 C 0.83902 0.05527 0.62597 0.0
C1892 C 0.84393 0.10172 0.64936 0.0
C1893 C 0.8425 0.0863 0.6404 0.0
H1894 H 0.81485 0.00967 0.5897 0.0
H1895 H 0.81902 0.03733 0.6009 0.0
H1896 H 0.86746 0.06807 0.62875 0.0
H1897 H 0.86282 0.12476 0.68244 0.0
H1898 H 0.86407 0.10326 0.66513 0.0
C1899 C 0.49092 0.3267 0.74301 0.0
C1900 C 0.49178 0.34238 0.73729 0.0
C1901 C 0.47819 0.30996 0.73744 0.0
C1902 C 0.43487 0.28786 0.71763 0.0
H1903 H 0.44617 0.25084 0.70819 0.0
C1904 C 0.38213 0.22259 0.69099 0.0
C1905 C 0.38778 0.21734 0.67787 0.0
C1906 C 0.39449 0.23491 0.70132 0.0
C1907 C 0.44279 0.26103 0.71082 0.0
H1908 H 0.48046 0.35282 0.72074 0.0
H1909 H 0.45841 0.32375 0.71098 0.0
H1910 H 0.46884 0.27902 0.71929 0.0
H1911 H 0.41057 0.22046 0.66526 0.0
H1912 H 0.43224 0.24194 0.68322 0.0
H1913 H 0.40919 0.27042 0.70853 0.0
C1914 C 0.46726 0.32431 0.72004 0.0
C1915 C 0.45574 0.27712 0.71728 0.0
C1916 C 0.47994 0.34098 0.7256 0.0
C1917 C 0.40592 0.22393 0.67559 0.0
C1918 C 0.41831 0.23626 0.68589 0.0
C1919 C 0.42198 0.27185 0.71117 0.0
C1920 C 0.46606 0.30857 0.72604 0.0
C1921 C 0.45203 0.29087 0.72042 0.0
C1922 C 0.41276 0.24245 0.69855 0.0
C1923 C 0.42584 0.25834 0.7074 0.0
H1924 H 0.49974 0.32732 0.75214 0.0
H1925 H 0.47755 0.2981 0.74236 0.0
H1926 H 0.43146 0.29804 0.72018 0.0
H1927 H 0.36824 0.21826 0.69265 0.0
H1928 H 0.38972 0.2392 0.71105 0.0
C1929 C 0.65567 0.1321 0.72161 0.0
C1930 C 0.64437 0.11585 0.72916 0.0
C1931 C 0.67158 0.13508 0.71494 0.0
C1932 C 0.70406 0.11998 0.71876 0.0
H1933 H 0.72239 0.14397 0.6794 0.0
C1934 C 0.76693 0.12525 0.69353 0.0
C1935 C 0.77969 0.14189 0.68752 0.0
C1936 C 0.74976 0.12169 0.69658 0.0
C1937 C 0.7175 0.13738 0.69047 0.0
H1938 H 0.64043 0.08962 0.73478 0.0
H1939 H 0.66808 0.09482 0.72322 0.0
H1940 H 0.69355 0.1386 0.68865 0.0
H1941 H 0.78421 0.16757 0.67928 0.0
H1942 H 0.75415 0.16146 0.6849 0.0
H1943 H 0.72792 0.11895 0.72083 0.0
C1944 C 0.66486 0.10541 0.72274 0.0
C1945 C 0.70099 0.1343 0.69576 0.0
C1946 C 0.64902 0.10244 0.72938 0.0
C1947 C 0.77463 0.15459 0.68385 0.0
C1948 C 0.75741 0.15108 0.68707 0.0
C1949 C 0.72049 0.12308 0.71353 0.0
C1950 C 0.6765 0.12188 0.7157 0.0
C1951 C 0.69404 0.12543 0.70992 0.0
C1952 C 0.74494 0.13476 0.69391 0.0
C1953 C 0.72738 0.13167 0.69926 0.0
H1954 H 0.65253 0.14274 0.72133 0.0
H1955 H 0.68031 0.14795 0.70969 0.0
H1956 H 0.6993 0.1135 0.7299 0.0
H1957 H 0.77035 0.1151 0.69628 0.0
H1958 H 0.74037 0.1088 0.70143 0.0
C1959 C 0.82388 0.50398 0.73062 0.0
C1960 C 0.84049 0.50592 0.73429 0.0
C1961 C 0.8222 0.51889 0.72705 0.0
C1962 C 0.84578 0.56868 0.72931 0.0
H1963 H 0.8164 0.56456 0.6941 0.0
C1964 C 0.85685 0.62773 0.69076 0.0
C1965 C 0.84243 0.62745 0.68326 0.0
C1966 C 0.8543 0.61387 0.70073 0.0
C1967 C 0.82436 0.56591 0.70418 0.0
H1968 H 0.86834 0.52523 0.73712 0.0
H1969 H 0.86545 0.55115 0.73078 0.0
H1970 H 0.81663 0.53822 0.70381 0.0
H1971 H 0.81399 0.61295 0.68067 0.0
H1972 H 0.80938 0.58854 0.69825 0.0
H1973 H 0.854 0.59657 0.72924 0.0
C1974 C 0.85363 0.53813 0.73095 0.0
C1975 C 0.82453 0.55075 0.70975 0.0
C1976 C 0.85531 0.52322 0.73456 0.0
C1977 C 0.82526 0.61361 0.6866 0.0
C1978 C 0.82269 0.59956 0.69648 0.0
C1979 C 0.84563 0.58386 0.72371 0.0
C1980 C 0.83708 0.53617 0.72701 0.0
C1981 C 0.83555 0.55199 0.72216 0.0
C1982 C 0.83727 0.59919 0.70317 0.0
C1983 C 0.83523 0.58274 0.71084 0.0
H1984 H 0.81213 0.4909 0.73056 0.0
H1985 H 0.80919 0.51686 0.72432 0.0
H1986 H 0.85415 0.5701 0.73909 0.0
H1987 H 0.87024 0.63812 0.68809 0.0
H1988 H 0.86585 0.61401 0.70552 0.0
C1989 C 0.48084 0.93136 0.16497 0.0
C1990 C 0.48383 0.94355 0.17688 0.0
C1991 C 0.48843 0.93739 0.15034 0.0
C1992 C 0.52216 0.97786 0.12881 0.0
H1993 H 0.49113 0.95475 0.09397 0.0
C1994 C 0.52427 0.01249 0.07134 0.0
C1995 C 0.51911 1.00246 0.05765 0.0
C1996 C 0.52474 0.0046 0.08536 0.0
C1997 C 0.50016 0.96114 0.10351 0.0
H1998 H 0.49726 0.97158 0.18288 0.0
H1999 H 0.51011 0.98217 0.15731 0.0
H2000 H 0.48206 0.94207 0.11973 0.0
H2001 H 0.51167 0.97671 0.04771 0.0
H2002 H 0.5126 0.96292 0.07218 0.0
H2003 H 0.53979 0.99751 0.11252 0.0
C2004 C 0.50231 0.96791 0.1593 0.0
C2005 C 0.49495 0.95386 0.11834 0.0
C2006 C 0.49486 0.96186 0.17396 0.0
C2007 C 0.51591 0.98483 0.05802 0.0
C2008 C 0.51622 0.97687 0.07207 0.0
C2009 C 0.5273 0.98523 0.11397 0.0
C2010 C 0.49903 0.95577 0.14722 0.0
C2011 C 0.50567 0.96235 0.13126 0.0
C2012 C 0.51989 0.98647 0.08599 0.0
C2013 C 0.51616 0.97718 0.10121 0.0
H2014 H 0.47261 0.91714 0.16696 0.0
H2015 H 0.48587 0.92762 0.14144 0.0
H2016 H 0.53094 0.98455 0.13842 0.0
H2017 H 0.52683 0.02611 0.0714 0.0
H2018 H 0.52754 0.01234 0.09586 0.0
C2019 C 0.07839 0.55205 0.16884 0.0
C2020 C 0.09626 0.55661 0.16808 0.0
C2021 C 0.06922 0.55163 0.15542 0.0
C2022 C 0.07524 0.56496 0.11361 0.0
H2023 H 0.02746 0.52497 0.11039 0.0
C2024 C 0.03875 0.53496 0.05605 0.0
C2025 C 0.02028 0.52744 0.05568 0.0
C2026 C 0.0482 0.54279 0.06959 0.0
C2027 C 0.04065 0.53644 0.11117 0.0
H2028 H 0.11859 0.5645 0.15268 0.0
H2029 H 0.10252 0.56332 0.12919 0.0
H2030 H 0.04355 0.52995 0.13445 0.0
H2031 H 0.99727 0.52283 0.06887 0.0
H2032 H 0.01376 0.53667 0.09254 0.0
H2033 H 0.07244 0.57087 0.08995 0.0
C2034 C 0.09565 0.56049 0.14018 0.0
C2035 C 0.04992 0.53931 0.12502 0.0
C2036 C 0.10486 0.56109 0.15364 0.0
C2037 C 0.01154 0.52874 0.06882 0.0
C2038 C 0.02096 0.53652 0.08238 0.0
C2039 C 0.06597 0.562 0.09967 0.0
C2040 C 0.07763 0.55554 0.14086 0.0
C2041 C 0.06742 0.55347 0.1264 0.0
C2042 C 0.0393 0.54298 0.0831 0.0
C2043 C 0.04862 0.54757 0.09825 0.0
H2044 H 0.07149 0.54883 0.17985 0.0
H2045 H 0.05548 0.54813 0.15646 0.0
H2046 H 0.08859 0.57617 0.11431 0.0
H2047 H 0.04569 0.53337 0.04635 0.0
H2048 H 0.06225 0.54738 0.06981 0.0
C2049 C 0.46087 0.55642 0.15792 0.0
C2050 C 0.46803 0.55362 0.1715 0.0
C2051 C 0.46816 0.5566 0.14346 0.0
C2052 C 0.5076 0.55902 0.12411 0.0
H2053 H 0.47376 0.53323 0.09167 0.0
C2054 C 0.52175 0.52762 0.07092 0.0
C2055 C 0.51284 0.52643 0.05703 0.0
C2056 C 0.51911 0.53554 0.08398 0.0
C2057 C 0.48346 0.54082 0.10046 0.0
H2058 H 0.48863 0.54906 0.18062 0.0
H2059 H 0.50116 0.549 0.15539 0.0
H2060 H 0.46337 0.53779 0.11632 0.0
H2061 H 0.4944 0.5328 0.04589 0.0
H2062 H 0.4905 0.54742 0.06833 0.0
H2063 H 0.52762 0.56138 0.10826 0.0
C2064 C 0.49013 0.55144 0.15588 0.0
C2065 C 0.47748 0.54343 0.11465 0.0
C2066 C 0.48291 0.5514 0.17035 0.0
C2067 C 0.50206 0.53422 0.05619 0.0
C2068 C 0.49949 0.54221 0.06919 0.0
C2069 C 0.51359 0.55633 0.10988 0.0
C2070 C 0.48271 0.55382 0.14223 0.0
C2071 C 0.48942 0.55235 0.12675 0.0
C2072 C 0.50737 0.54226 0.08342 0.0
C2073 C 0.50155 0.54701 0.09795 0.0
H2074 H 0.4496 0.55848 0.15846 0.0
H2075 H 0.46231 0.55883 0.13324 0.0
H2076 H 0.5172 0.56619 0.13308 0.0
H2077 H 0.52992 0.52146 0.07194 0.0
H2078 H 0.52527 0.53521 0.09477 0.0
C2079 C 0.91866 0.47042 0.85818 0.0
C2080 C 0.91548 0.45729 0.84712 0.0
C2081 C 0.9268 0.47091 0.87223 0.0
C2082 C 0.95504 0.45582 0.89149 0.0
H2083 H 0.94076 0.47124 0.92808 0.0
C2084 C 1.00005 0.48635 0.94466 0.0
C2085 C 0.99238 0.48547 0.95917 0.0
C2086 C 0.98941 0.47838 0.9317 0.0
C2087 C 0.94476 0.46654 0.91812 0.0
H2088 H 0.9185 0.43434 0.84225 0.0
H2089 H 0.93235 0.43493 0.86701 0.0
H2090 H 0.92425 0.46615 0.90429 0.0
H2091 H 0.96756 0.47543 0.97143 0.0
H2092 H 0.94901 0.46022 0.94928 0.0
H2093 H 0.97548 0.45605 0.90545 0.0
C2094 C 0.92871 0.445 0.86468 0.0
C2095 C 0.93543 0.46393 0.90434 0.0
C2096 C 0.92059 0.44455 0.85055 0.0
C2097 C 0.9739 0.47556 0.96063 0.0
C2098 C 0.96324 0.46732 0.94776 0.0
C2099 C 0.96432 0.4583 0.90536 0.0
C2100 C 0.93189 0.45819 0.87572 0.0
C2101 C 0.94072 0.45901 0.89073 0.0
C2102 C 0.97082 0.46932 0.93297 0.0
C2103 C 0.95957 0.46412 0.91878 0.0
H2104 H 0.9147 0.4803 0.85607 0.0
H2105 H 0.9293 0.48146 0.8803 0.0
H2106 H 0.95952 0.45205 0.88124 0.0
H2107 H 0.01427 0.49415 0.94314 0.0
H2108 H 0.9958 0.48043 0.92054 0.0
C2109 C 0.5281 0.45864 0.84842 0.0
C2110 C 0.54331 0.457 0.8472 0.0
C2111 C 0.52067 0.45809 0.86292 0.0
C2112 C 0.53303 0.46567 0.90421 0.0
H2113 H 0.48264 0.44625 0.91047 0.0
C2114 C 0.50768 0.47346 0.9627 0.0
C2115 C 0.49652 0.48083 0.96192 0.0
C2116 C 0.51049 0.46568 0.94968 0.0
C2117 C 0.49674 0.4517 0.9089 0.0
H2118 H 0.56214 0.45262 0.86011 0.0
H2119 H 0.54908 0.45138 0.88536 0.0
H2120 H 0.49352 0.44223 0.88557 0.0
H2121 H 0.47901 0.48522 0.94709 0.0
H2122 H 0.48408 0.47186 0.9242 0.0
H2123 H 0.53637 0.47549 0.9273 0.0
C2124 C 0.54312 0.45356 0.87519 0.0
C2125 C 0.50299 0.44947 0.89462 0.0
C2126 C 0.55061 0.45426 0.86072 0.0
C2127 C 0.48746 0.47938 0.94807 0.0
C2128 C 0.49035 0.47169 0.93498 0.0
C2129 C 0.5268 0.46782 0.91844 0.0
C2130 C 0.52822 0.45575 0.87651 0.0
C2131 C 0.52126 0.45668 0.89202 0.0
C2132 C 0.50248 0.46544 0.93548 0.0
C2133 C 0.50861 0.4611 0.92091 0.0
H2134 H 0.52226 0.46091 0.83821 0.0
H2135 H 0.50938 0.46009 0.86348 0.0
H2136 H 0.5472 0.47172 0.90258 0.0
H2137 H 0.51548 0.47513 0.97296 0.0
H2138 H 0.51977 0.46083 0.9505 0.0
C2139 C 0.51279 0.07685 0.85074 0.0
C2140 C 0.51029 0.06637 0.83756 0.0
C2141 C 0.50823 0.06898 0.86545 0.0
C2142 C 0.50064 0.02837 0.88649 0.0
H2143 H 0.48186 0.04562 0.91854 0.0
C2144 C 0.48465 0.99538 0.94611 0.0
C2145 C 0.49215 0.00722 0.95854 0.0
C2146 C 0.48307 1.00162 0.93159 0.0
C2147 C 0.48711 0.04068 0.9097 0.0
H2148 H 0.50041 0.03937 0.82941 0.0
H2149 H 0.49223 0.0256 0.85499 0.0
H2150 H 0.48689 0.05852 0.89249 0.0
H2151 H 0.50335 0.03471 0.96565 0.0
H2152 H 0.50036 0.04564 0.94037 0.0
H2153 H 0.50112 0.01073 0.90364 0.0
C2154 C 0.49812 0.03996 0.85405 0.0
C2155 C 0.49006 0.04811 0.89479 0.0
C2156 C 0.5028 0.04783 0.83937 0.0
C2157 C 0.49694 0.0252 0.95644 0.0
C2158 C 0.4954 0.03148 0.94188 0.0
C2159 C 0.49762 0.02091 0.90132 0.0
C2160 C 0.50096 0.05044 0.86731 0.0
C2161 C 0.497 0.04212 0.88303 0.0
C2162 C 0.48914 0.01987 0.92914 0.0
C2163 C 0.49092 0.02703 0.91314 0.0
H2164 H 0.51867 0.09119 0.84971 0.0
H2165 H 0.51085 0.07751 0.8754 0.0
H2166 H 0.50635 0.02367 0.87787 0.0
H2167 H 0.48089 0.98146 0.94742 0.0
H2168 H 0.47787 0.99228 0.92208 0.0
C2169 C 0.14595 0.26358 0.498 0.0
C2170 C 0.14763 0.2753 0.50994 0.0
C2171 C 0.15357 0.27019 0.48348 0.0
C2172 C 0.18534 0.31209 0.46247 0.0
H2173 H 0.15611 0.2874 0.42708 0.0
C2174 C 0.18632 0.3455 0.40451 0.0
C2175 C 0.18252 0.33558 0.3908 0.0
C2176 C 0.18685 0.33796 0.4187 0.0
C2177 C 0.16466 0.29428 0.43678 0.0
H2178 H 0.15876 0.30312 0.5161 0.0
H2179 H 0.17165 0.31468 0.49072 0.0
H2180 H 0.14717 0.27429 0.45273 0.0
H2181 H 0.17759 0.31044 0.38109 0.0
H2182 H 0.17857 0.29726 0.40588 0.0
H2183 H 0.2023 0.33257 0.44645 0.0
C2184 C 0.16486 0.30039 0.4926 0.0
C2185 C 0.15952 0.28675 0.45155 0.0
C2186 C 0.15739 0.29377 0.50716 0.0
C2187 C 0.18071 0.31848 0.39141 0.0
C2188 C 0.18106 0.31086 0.40564 0.0
C2189 C 0.1904 0.3197 0.44769 0.0
C2190 C 0.1629 0.28869 0.4805 0.0
C2191 C 0.16956 0.29575 0.46464 0.0
C2192 C 0.18342 0.32026 0.41949 0.0
C2193 C 0.17989 0.31105 0.43474 0.0
H2194 H 0.13872 0.24928 0.49989 0.0
H2195 H 0.15205 0.26078 0.47455 0.0
H2196 H 0.19362 0.31922 0.47223 0.0
H2197 H 0.18782 0.35872 0.4044 0.0
H2198 H 0.18862 0.34554 0.42915 0.0
C2199 C 0.77022 0.90453 0.49105 0.0
C2200 C 0.76508 0.88868 0.49945 0.0
C2201 C 0.76112 0.90439 0.47763 0.0
C2202 C 0.71857 0.87702 0.45705 0.0
H2203 H 0.74494 0.90286 0.42055 0.0
C2204 C 0.68215 0.86745 0.39988 0.0
C2205 C 0.69001 0.86393 0.38723 0.0
C2206 C 0.69196 0.87533 0.41325 0.0
C2207 C 0.73737 0.8956 0.43064 0.0
H2208 H 0.74607 0.86034 0.50043 0.0
H2209 H 0.73057 0.86 0.47694 0.0
H2210 H 0.76054 0.90611 0.44486 0.0
H2211 H 0.71428 0.86611 0.37849 0.0
H2212 H 0.7314 0.87976 0.40171 0.0
H2213 H 0.69557 0.86568 0.44278 0.0
C2214 C 0.74148 0.87261 0.48079 0.0
C2215 C 0.7463 0.89759 0.44463 0.0
C2216 C 0.75055 0.87275 0.49416 0.0
C2217 C 0.70808 0.8693 0.38786 0.0
C2218 C 0.71786 0.87703 0.40126 0.0
C2219 C 0.70968 0.87497 0.4431 0.0
C2220 C 0.74663 0.88841 0.47234 0.0
C2221 C 0.73704 0.88796 0.45791 0.0
C2222 C 0.70974 0.87947 0.41437 0.0
C2223 C 0.71899 0.88391 0.42961 0.0
H2224 H 0.78144 0.91702 0.49472 0.0
H2225 H 0.76536 0.91682 0.47146 0.0
H2226 H 0.71097 0.86966 0.46711 0.0
H2227 H 0.66817 0.86323 0.39972 0.0
H2228 H 0.68536 0.87734 0.42301 0.0
C2229 C 0.12626 0.8649 0.49416 0.0
C2230 C 0.13345 0.88056 0.50303 0.0
C2231 C 0.13328 0.86488 0.47964 0.0
C2232 C 0.17316 0.88778 0.45559 0.0
H2233 H 0.14014 0.8634 0.42222 0.0
C2234 C 0.18872 0.85975 0.40085 0.0
C2235 C 0.17987 0.85909 0.38706 0.0
C2236 C 0.18592 0.86705 0.41425 0.0
C2237 C 0.1496 0.87054 0.4313 0.0
H2238 H 0.15382 0.90852 0.5035 0.0
H2239 H 0.16628 0.90833 0.47821 0.0
H2240 H 0.12907 0.86629 0.44723 0.0
H2241 H 0.16142 0.86579 0.37644 0.0
H2242 H 0.15727 0.87939 0.39947 0.0
H2243 H 0.19368 0.89166 0.43964 0.0
C2244 C 0.15519 0.89609 0.48258 0.0
C2245 C 0.14321 0.87198 0.44571 0.0
C2246 C 0.14807 0.89615 0.49709 0.0
C2247 C 0.16907 0.86687 0.38666 0.0
C2248 C 0.16634 0.87425 0.4 0.0
C2249 C 0.17958 0.88622 0.44115 0.0
C2250 C 0.14775 0.88048 0.47365 0.0
C2251 C 0.15486 0.88032 0.45808 0.0
C2252 C 0.17408 0.87366 0.41411 0.0
C2253 C 0.16783 0.87737 0.4289 0.0
H2254 H 0.11529 0.85254 0.49848 0.0
H2255 H 0.12747 0.85256 0.47314 0.0
H2256 H 0.18244 0.89425 0.46494 0.0
H2257 H 0.19688 0.85356 0.40152 0.0
H2258 H 0.19197 0.86625 0.42495 0.0
C2259 C 0.5679 0.78157 0.1967 0.0
C2260 C 0.57689 0.7851 0.18248 0.0
C2261 C 0.57646 0.78216 0.21055 0.0
C2262 C 0.61664 0.78343 0.22707 0.0
H2263 H 0.60856 0.80812 0.26064 0.0
C2264 C 0.66497 0.81709 0.27808 0.0
C2265 C 0.65799 0.81801 0.29248 0.0
C2266 C 0.65376 0.8088 0.26549 0.0
C2267 C 0.61074 0.80085 0.25154 0.0
H2268 H 0.60184 0.79162 0.17163 0.0
H2269 H 0.61691 0.79292 0.19583 0.0
H2270 H 0.59156 0.80207 0.237 0.0
H2271 H 0.6338 0.81087 0.30496 0.0
H2272 H 0.6142 0.79552 0.28337 0.0
H2273 H 0.6363 0.78279 0.24158 0.0
C2274 C 0.60312 0.78939 0.19627 0.0
C2275 C 0.60097 0.79739 0.23792 0.0
C2276 C 0.5945 0.78869 0.18239 0.0
C2277 C 0.63955 0.80968 0.29424 0.0
C2278 C 0.62833 0.80128 0.28172 0.0
C2279 C 0.62647 0.78693 0.24073 0.0
C2280 C 0.59429 0.78641 0.21055 0.0
C2281 C 0.60391 0.78883 0.22542 0.0
C2282 C 0.63533 0.80138 0.26703 0.0
C2283 C 0.62377 0.79587 0.25308 0.0
H2284 H 0.55422 0.77844 0.19712 0.0
H2285 H 0.56913 0.77943 0.22129 0.0
H2286 H 0.61908 0.77659 0.21775 0.0
H2287 H 0.67917 0.82367 0.27634 0.0
H2288 H 0.65964 0.80929 0.25433 0.0
C2289 C 0.20931 0.80894 0.18158 0.0
C2290 C 0.20745 0.79296 0.1757 0.0
C2291 C 0.20099 0.809 0.19537 0.0
C2292 C 0.18151 0.78307 0.23128 0.0
H2293 H 0.1639 0.81612 0.23535 0.0
C2294 C 0.17324 0.80967 0.28976 0.0
C2295 C 0.16114 0.81583 0.29104 0.0
C2296 C 0.17478 0.80221 0.27594 0.0
C2297 C 0.16837 0.8065 0.23442 0.0
H2298 H 0.19535 0.76446 0.17985 0.0
H2299 H 0.18049 0.76452 0.20378 0.0
H2300 H 0.17456 0.81262 0.21044 0.0
H2301 H 0.14042 0.81811 0.2793 0.0
H2302 H 0.14259 0.80449 0.25528 0.0
H2303 H 0.17523 0.77692 0.25532 0.0
C2304 C 0.18857 0.77705 0.19777 0.0
C2305 C 0.1748 0.80474 0.22013 0.0
C2306 C 0.19694 0.77699 0.18396 0.0
C2307 C 0.14975 0.8133 0.27863 0.0
C2308 C 0.15117 0.8057 0.26483 0.0
C2309 C 0.17496 0.78475 0.2456 0.0
C2310 C 0.19048 0.79306 0.20364 0.0
C2311 C 0.1819 0.79338 0.21846 0.0
C2312 C 0.16429 0.80085 0.26306 0.0
C2313 C 0.1687 0.79683 0.24745 0.0
H2314 H 0.21711 0.82145 0.17545 0.0
H2315 H 0.20302 0.82164 0.19965 0.0
H2316 H 0.1869 0.7742 0.23044 0.0
H2317 H 0.18266 0.81212 0.29892 0.0
H2318 H 0.18519 0.79888 0.27502 0.0
C2319 C 0.17875 0.40784 0.18275 0.0
C2320 C 0.1781 0.39777 0.16977 0.0
C2321 C 0.17426 0.39996 0.19747 0.0
C2322 C 0.17071 0.36144 0.21931 0.0
H2323 H 0.14571 0.37374 0.24957 0.0
C2324 C 0.15281 0.32617 0.27769 0.0
C2325 C 0.1579 0.33741 0.29063 0.0
C2326 C 0.15168 0.33252 0.2631 0.0
C2327 C 0.15274 0.37022 0.24125 0.0
H2328 H 0.17159 0.3714 0.16198 0.0
H2329 H 0.16363 0.35762 0.18756 0.0
H2330 H 0.15131 0.38703 0.22362 0.0
H2331 H 0.16444 0.3637 0.29867 0.0
H2332 H 0.16258 0.37491 0.2731 0.0
H2333 H 0.17239 0.34486 0.23683 0.0
C2334 C 0.16799 0.37171 0.18647 0.0
C2335 C 0.156 0.37786 0.2264 0.0
C2336 C 0.17257 0.3796 0.17179 0.0
C2337 C 0.16033 0.35468 0.28893 0.0
C2338 C 0.15933 0.36112 0.27425 0.0
C2339 C 0.16741 0.35379 0.23406 0.0
C2340 C 0.16895 0.38182 0.19953 0.0
C2341 C 0.16505 0.37356 0.21526 0.0
C2342 C 0.1558 0.35034 0.26108 0.0
C2343 C 0.15838 0.35805 0.24522 0.0
H2344 H 0.18309 0.42192 0.18158 0.0
H2345 H 0.17538 0.40821 0.20728 0.0
H2346 H 0.17809 0.35813 0.21119 0.0
H2347 H 0.15068 0.31273 0.27868 0.0
H2348 H 0.14844 0.32372 0.25326 0.0
C2349 C 0.81287 0.59649 0.83104 0.0
C2350 C 0.81601 0.60851 0.84313 0.0
C2351 C 0.8206 0.60269 0.81648 0.0
C2352 C 0.85501 0.64321 0.79548 0.0
H2353 H 0.82416 0.6211 0.76034 0.0
C2354 C 0.85881 0.67894 0.73815 0.0
C2355 C 0.85359 0.66905 0.72438 0.0
C2356 C 0.85883 0.67079 0.75215 0.0
C2357 C 0.83314 0.62721 0.76996 0.0
H2358 H 0.82985 0.63643 0.84952 0.0
H2359 H 0.84295 0.64732 0.82408 0.0
H2360 H 0.81465 0.60811 0.78595 0.0
H2361 H 0.84554 0.64322 0.71433 0.0
H2362 H 0.84574 0.62898 0.73875 0.0
H2363 H 0.87306 0.6629 0.77943 0.0
C2364 C 0.83491 0.63305 0.82587 0.0
C2365 C 0.82767 0.61975 0.78471 0.0
C2366 C 0.82733 0.62683 0.84046 0.0
C2367 C 0.84986 0.65125 0.72469 0.0
C2368 C 0.84974 0.64303 0.73872 0.0
C2369 C 0.86042 0.65077 0.78072 0.0
C2370 C 0.8315 0.62108 0.81362 0.0
C2371 C 0.83834 0.62788 0.79773 0.0
C2372 C 0.85348 0.65253 0.75269 0.0
C2373 C 0.84936 0.64306 0.76785 0.0
H2374 H 0.80442 0.58226 0.83283 0.0
H2375 H 0.81792 0.59304 0.80744 0.0
H2376 H 0.86375 0.64962 0.80518 0.0
H2377 H 0.86176 0.6927 0.73827 0.0
H2378 H 0.8617 0.67847 0.7627 0.0
C2379 C 0.40459 0.21396 0.838 0.0
C2380 C 0.42286 0.22015 0.8376 0.0
C2381 C 0.39546 0.21318 0.82444 0.0
C2382 C 0.40183 0.22825 0.78309 0.0
H2383 H 0.35599 0.18576 0.77806 0.0
C2384 C 0.36896 0.19891 0.72417 0.0
C2385 C 0.35044 0.1903 0.72315 0.0
C2386 C 0.37751 0.20645 0.73812 0.0
C2387 C 0.36861 0.19789 0.77936 0.0
H2388 H 0.44593 0.23057 0.82271 0.0
H2389 H 0.42999 0.2288 0.79899 0.0
H2390 H 0.37145 0.19102 0.80253 0.0
H2391 H 0.32633 0.18321 0.73572 0.0
H2392 H 0.34123 0.19645 0.76015 0.0
H2393 H 0.39919 0.2346 0.75954 0.0
C2394 C 0.42272 0.22494 0.80981 0.0
C2395 C 0.37752 0.20093 0.79344 0.0
C2396 C 0.43188 0.22589 0.8234 0.0
C2397 C 0.34065 0.19002 0.73616 0.0
C2398 C 0.34918 0.19747 0.75014 0.0
C2399 C 0.39296 0.22512 0.76893 0.0
C2400 C 0.40434 0.21838 0.81011 0.0
C2401 C 0.39436 0.21602 0.79545 0.0
C2402 C 0.36765 0.2052 0.75142 0.0
C2403 C 0.37633 0.20979 0.76685 0.0
H2404 H 0.39734 0.20972 0.84882 0.0
H2405 H 0.3814 0.20839 0.8252 0.0
H2406 H 0.41464 0.24017 0.78429 0.0
H2407 H 0.37674 0.19849 0.71458 0.0
H2408 H 0.39172 0.21203 0.73877 0.0
C2409 C 0.81653 0.21469 0.83536 0.0
C2410 C 0.8027 0.21854 0.83663 0.0
C2411 C 0.8237 0.21466 0.82088 0.0
C2412 C 0.81219 0.21002 0.77928 0.0
H2413 H 0.86142 0.22326 0.77379 0.0
C2414 C 0.83637 0.20071 0.72058 0.0
C2415 C 0.84525 0.19092 0.72123 0.0
C2416 C 0.83442 0.20874 0.73386 0.0
C2417 C 0.84765 0.21956 0.77515 0.0
H2418 H 0.78611 0.22619 0.82383 0.0
H2419 H 0.7988 0.22649 0.79861 0.0
H2420 H 0.85136 0.22817 0.79875 0.0
H2421 H 0.8598 0.18254 0.73612 0.0
H2422 H 0.85628 0.1964 0.75941 0.0
H2423 H 0.80836 0.20112 0.75584 0.0
C2424 C 0.80382 0.22301 0.80872 0.0
C2425 C 0.84185 0.22228 0.78947 0.0
C2426 C 0.79655 0.22287 0.82318 0.0
C2427 C 0.85306 0.19019 0.73525 0.0
C2428 C 0.85108 0.19818 0.74857 0.0
C2429 C 0.818 0.20742 0.76499 0.0
C2430 C 0.8173 0.21864 0.80734 0.0
C2431 C 0.82396 0.21725 0.79179 0.0
C2432 C 0.84111 0.20691 0.74815 0.0
C2433 C 0.83572 0.21188 0.7628 0.0
H2434 H 0.82144 0.21116 0.84552 0.0
H2435 H 0.83386 0.21096 0.82027 0.0
H2436 H 0.79827 0.20566 0.78066 0.0
H2437 H 0.82958 0.20086 0.71015 0.0
H2438 H 0.82681 0.21551 0.73312 0.0
C2439 C 0.25503 0.11174 0.51732 0.0
C2440 C 0.25481 0.12679 0.51125 0.0
C2441 C 0.26454 0.11305 0.53081 0.0
C2442 C 0.30145 0.14582 0.55466 0.0
H2443 H 0.27972 0.11154 0.58813 0.0
C2444 C 0.31095 0.14603 0.62376 0.0
C2445 C 0.3295 0.15478 0.62447 0.0
C2446 C 0.30215 0.13875 0.60983 0.0
C2447 C 0.28599 0.12115 0.57885 0.0
H2448 H 0.26416 0.15493 0.51496 0.0
H2449 H 0.28092 0.15725 0.53819 0.0
H2450 H 0.26372 0.10714 0.56374 0.0
H2451 H 0.35339 0.16224 0.61142 0.0
H2452 H 0.33807 0.14933 0.58708 0.0
H2453 H 0.32341 0.1602 0.56979 0.0
C2454 C 0.27392 0.14448 0.53241 0.0
C2455 C 0.27688 0.11858 0.56486 0.0
C2456 C 0.26433 0.14314 0.51904 0.0
C2457 C 0.33906 0.15533 0.61121 0.0
C2458 C 0.33029 0.14809 0.59727 0.0
C2459 C 0.31057 0.14832 0.56855 0.0
C2460 C 0.27417 0.12947 0.53845 0.0
C2461 C 0.28437 0.13111 0.55274 0.0
C2462 C 0.31178 0.14035 0.59627 0.0
C2463 C 0.30285 0.13621 0.58093 0.0
H2464 H 0.24806 0.09897 0.51155 0.0
H2465 H 0.26459 0.10129 0.53513 0.0
H2466 H 0.30766 0.1556 0.54548 0.0
H2467 H 0.30333 0.14619 0.63359 0.0
H2468 H 0.28793 0.13313 0.60945 0.0
C2469 C 0.87345 0.11992 0.52213 0.0
C2470 C 0.86961 0.12552 0.50807 0.0
C2471 C 0.86529 0.12047 0.53589 0.0
C2472 C 0.8425 0.14279 0.55309 0.0
H2473 H 0.83241 0.1088 0.58645 0.0
C2474 C 0.81579 0.15126 0.61095 0.0
C2475 C 0.82584 0.15146 0.62375 0.0
C2476 C 0.81711 0.14416 0.59683 0.0
C2477 C 0.83511 0.11835 0.57721 0.0
H2478 H 0.85368 0.1354 0.49731 0.0
H2479 H 0.83914 0.13602 0.52123 0.0
H2480 H 0.84264 0.10425 0.56145 0.0
H2481 H 0.84506 0.14439 0.63179 0.0
H2482 H 0.84688 0.13136 0.60741 0.0
H2483 H 0.83521 0.157 0.56887 0.0
C2484 C 0.84881 0.13165 0.52174 0.0
C2485 C 0.84107 0.11583 0.56291 0.0
C2486 C 0.85711 0.13127 0.50801 0.0
C2487 C 0.83645 0.14354 0.6224 0.0
C2488 C 0.83769 0.13633 0.60832 0.0
C2489 C 0.83641 0.14522 0.56731 0.0
C2490 C 0.85296 0.12648 0.53591 0.0
C2491 C 0.84516 0.1282 0.55074 0.0
C2492 C 0.82859 0.13723 0.59521 0.0
C2493 C 0.83291 0.1332 0.57962 0.0
H2494 H 0.88316 0.11558 0.52255 0.0
H2495 H 0.86909 0.11669 0.54657 0.0
H2496 H 0.8458 0.1528 0.54415 0.0
H2497 H 0.8077 0.15752 0.61163 0.0
H2498 H 0.8098 0.14488 0.58697 0.0
C2499 C 0.83794 0.71365 0.50555 0.0
C2500 C 0.84623 0.73224 0.50352 0.0
C2501 C 0.83331 0.70606 0.52034 0.0
C2502 C 0.82672 0.71556 0.56106 0.0
H2503 H 0.83538 0.67661 0.57015 0.0
C2504 C 0.83299 0.69267 0.62286 0.0
C2505 C 0.82737 0.67452 0.62519 0.0
C2506 C 0.83163 0.69894 0.60824 0.0
C2507 C 0.83254 0.68725 0.56776 0.0
H2508 H 0.85615 0.75745 0.51544 0.0
H2509 H 0.84839 0.74425 0.5413 0.0
H2510 H 0.84078 0.68918 0.54422 0.0
H2511 H 0.81491 0.64851 0.61441 0.0
H2512 H 0.81219 0.65933 0.58896 0.0
H2513 H 0.81899 0.71387 0.58488 0.0
C2514 C 0.84511 0.73548 0.53144 0.0
C2515 C 0.83567 0.69449 0.55285 0.0
C2516 C 0.84964 0.74307 0.51662 0.0
C2517 C 0.81929 0.66257 0.61293 0.0
C2518 C 0.81788 0.6688 0.59834 0.0
C2519 C 0.82365 0.70833 0.57605 0.0
C2520 C 0.83697 0.71688 0.5335 0.0
C2521 C 0.83291 0.70881 0.5493 0.0
C2522 C 0.82473 0.68715 0.59566 0.0
C2523 C 0.8266 0.69413 0.57958 0.0
H2524 H 0.83484 0.70493 0.49566 0.0
H2525 H 0.82677 0.69167 0.52144 0.0
H2526 H 0.82422 0.72642 0.55869 0.0
H2527 H 0.83987 0.70224 0.63194 0.0
H2528 H 0.8372 0.71317 0.60656 0.0
loop_
_geom_bond_atom_site_label_1
_geom_bond_atom_site_label_2
_geom_bond_distance
_geom_bond_site_symmetry_2
_ccdc_geom_bond_type
C0 C1 1.264 . S
C0 C5 1.479 . S
C0 C10 1.465 . S
C1 C0 1.264 . S
C1 C3 1.339 . S
C1 H28 0.931 . S
C2 C3 1.395 . S
C2 C4 1.320 . S
C3 C1 1.339 . S
C3 C2 1.395 . S
C3 H29 0.929 . S
C4 C2 1.320 . S
C4 C5 1.405 . S
C4 H30 0.930 . S
C5 C0 1.479 . S
C5 C4 1.405 . S
C5 H31 0.931 . S
U6 O7 2.454 . S
U6 O8 2.458 . S
U6 C9 2.984 . S
U6 C10 2.847 . S
U6 C23 2.882 . S
U6 O24 2.441 . S
U6 O25 2.420 . S
U6 O26 2.455 . S
U6 O27 2.449 . S
O7 U6 2.454 . S
O7 C9 1.353 . S
O8 U6 2.458 . S
O8 C9 1.286 . S
C9 U6 2.984 . S
C9 O7 1.353 . S
C9 O8 1.286 . S
C9 C11 1.363 . S
C10 C0 1.465 . S
C10 U6 2.847 . S
C10 O24 1.249 . S
C10 O25 1.202 . S
C11 C9 1.363 . S
C11 C13 1.408 . S
C11 C16 1.342 . S
C12 C13 1.310 . S
C12 C15 1.461 . S
C12 H32 0.932 . S
C13 C11 1.408 . S
C13 C12 1.310 . S
C13 H33 0.930 . S
C14 C15 1.474 . S
C14 C16 1.285 . S
C14 H34 0.929 . S
C15 C12 1.461 . S
C15 C14 1.474 . S
C16 C11 1.342 . S
C16 C14 1.285 . S
C16 H35 0.930 . S
C17 C20 1.424 . S
C17 C22 1.245 . S
C17 C23 1.428 . S
C18 C21 1.260 . S
C18 C22 1.477 . S
C18 H36 0.932 . S
C19 C20 1.384 . S
C19 C21 1.479 . S
C19 H37 0.929 . S
C20 C17 1.424 . S
C20 C19 1.384 . S
C20 H38 0.928 . S
C21 C18 1.260 . S
C21 C19 1.479 . S
C22 C17 1.245 . S
C22 C18 1.477 . S
C22 H39 0.932 . S
C23 U6 2.882 . S
C23 C17 1.428 . S
C23 O26 1.301 . S
C23 O27 1.282 . S
O24 U6 2.441 . S
O24 C10 1.249 . S
O25 U6 2.420 . S
O25 C10 1.202 . S
O26 U6 2.455 . S
O26 C23 1.301 . S
O27 U6 2.449 . S
O27 C23 1.282 . S
H28 C1 0.931 . S
H29 C3 0.929 . S
H30 C4 0.930 . S
H31 C5 0.931 . S
H32 C12 0.932 . S
H33 C13 0.930 . S
H34 C14 0.929 . S
H35 C16 0.930 . S
H36 C18 0.932 . S
H37 C19 0.929 . S
H38 C20 0.928 . S
H39 C22 0.932 . S
C40 C41 1.264 . S
C40 C45 1.479 . S
C40 C50 1.465 . S
C41 C40 1.264 . S
C41 C43 1.339 . S
C41 H68 0.931 . S
C42 C43 1.395 . S
C42 C44 1.320 . S
C43 C41 1.339 . S
C43 C42 1.395 . S
C43 H69 0.929 . S
C44 C42 1.320 . S
C44 C45 1.405 . S
C44 H70 0.930 . S
C45 C40 1.479 . S
C45 C44 1.405 . S
C45 H71 0.931 . S
U46 O47 2.454 . S
U46 O48 2.458 . S
U46 C49 2.984 . S
U46 C50 2.847 . S
U46 C63 2.882 . S
U46 O64 2.441 . S
U46 O65 2.420 . S
U46 O66 2.455 . S
U46 O67 2.449 . S
O47 U46 2.454 . S
O47 C49 1.353 . S
O48 U46 2.458 . S
O48 C49 1.286 . S
C49 U46 2.984 . S
C49 O47 1.353 . S
C49 O48 1.286 . S
C49 C51 1.363 . S
C50 C40 1.465 . S
C50 U46 2.847 . S
C50 O64 1.249 . S
C50 O65 1.202 . S
C51 C49 1.363 . S
C51 C53 1.408 . S
C51 C56 1.342 . S
C52 C53 1.310 . S
C52 C55 1.461 . S
C52 H72 0.932 . S
C53 C51 1.408 . S
C53 C52 1.310 . S
C53 H73 0.930 . S
C54 C55 1.474 . S
C54 C56 1.285 . S
C54 H74 0.929 . S
C55 C52 1.461 . S
C55 C54 1.474 . S
C56 C51 1.342 . S
C56 C54 1.285 . S
C56 H75 0.930 . S
C57 C60 1.424 . S
C57 C62 1.245 . S
C57 C63 1.428 . S
C58 C61 1.260 . S
C58 C62 1.477 . S
C58 H76 0.932 . S
C59 C60 1.384 . S
C59 C61 1.479 . S
C59 H77 0.929 . S
C60 C57 1.424 . S
C60 C59 1.384 . S
C60 H78 0.928 . S
C61 C58 1.260 . S
C61 C59 1.479 . S
C62 C57 1.245 . S
C62 C58 1.477 . S
C62 H79 0.932 . S
C63 U46 2.882 . S
C63 C57 1.428 . S
C63 O66 1.301 . S
C63 O67 1.282 . S
O64 U46 2.441 . S
O64 C50 1.249 . S
O65 U46 2.420 . S
O65 C50 1.202 . S
O66 U46 2.455 . S
O66 C63 1.301 . S
O67 U46 2.449 . S
O67 C63 1.282 . S
H68 C41 0.931 . S
H69 C43 0.929 . S
H70 C44 0.930 . S
H71 C45 0.931 . S
H72 C52 0.932 . S
H73 C53 0.930 . S
H74 C54 0.929 . S
H75 C56 0.930 . S
H76 C58 0.932 . S
H77 C59 0.929 . S
H78 C60 0.928 . S
H79 C62 0.932 . S
C80 C81 1.264 . S
C80 C85 1.479 . S
C80 C90 1.465 . S
C81 C80 1.264 . S
C81 C83 1.339 . S
C81 H108 0.931 . S
C82 C83 1.395 . S
C82 C84 1.320 . S
C83 C81 1.339 . S
C83 C82 1.395 . S
C83 H109 0.929 . S
C84 C82 1.320 . S
C84 C85 1.405 . S
C84 H110 0.930 . S
C85 C80 1.479 . S
C85 C84 1.405 . S
C85 H111 0.931 . S
U86 O87 2.454 . S
U86 O88 2.458 . S
U86 C89 2.984 . S
U86 C90 2.847 . S
U86 C103 2.882 . S
U86 O104 2.441 . S
U86 O105 2.420 . S
U86 O106 2.455 . S
U86 O107 2.449 . S
O87 U86 2.454 . S
O87 C89 1.353 . S
O88 U86 2.458 . S
O88 C89 1.286 . S
C89 U86 2.984 . S
C89 O87 1.353 . S
C89 O88 1.286 . S
C89 C91 1.363 . S
C90 C80 1.465 . S
C90 U86 2.847 . S
C90 O104 1.249 . S
C90 O105 1.202 . S
C91 C89 1.363 . S
C91 C93 1.408 . S
C91 C96 1.342 . S
C92 C93 1.310 . S
C92 C95 1.461 . S
C92 H112 0.932 . S
C93 C91 1.408 . S
C93 C92 1.310 . S
C93 H113 0.930 . S
C94 C95 1.474 . S
C94 C96 1.285 . S
C94 H114 0.929 . S
C95 C92 1.461 . S
C95 C94 1.474 . S
C96 C91 1.342 . S
C96 C94 1.285 . S
C96 H115 0.930 . S
C97 C100 1.424 . S
C97 C102 1.245 . S
C97 C103 1.428 . S
C98 C101 1.260 . S
C98 C102 1.477 . S
C98 H116 0.932 . S
C99 C100 1.384 . S
C99 C101 1.479 . S
C99 H117 0.929 . S
C100 C97 1.424 . S
C100 C99 1.384 . S
C100 H118 0.928 . S
C101 C98 1.260 . S
C101 C99 1.479 . S
C102 C97 1.245 . S
C102 C98 1.477 . S
C102 H119 0.932 . S
C103 U86 2.882 . S
C103 C97 1.428 . S
C103 O106 1.301 . S
C103 O107 1.282 . S
O104 U86 2.441 . S
O104 C90 1.249 . S
O105 U86 2.420 . S
O105 C90 1.202 . S
O106 U86 2.455 . S
O106 C103 1.301 . S
O107 U86 2.449 . S
O107 C103 1.282 . S
H108 C81 0.931 . S
H109 C83 0.929 . S
H110 C84 0.930 . S
H111 C85 0.931 . S
H112 C92 0.932 . S
H113 C93 0.930 . S
H114 C94 0.929 . S
H115 C96 0.930 . S
H116 C98 0.932 . S
H117 C99 0.929 . S
H118 C100 0.928 . S
H119 C102 0.932 . S
C120 C121 1.264 . S
C120 C125 1.479 . S
C120 C130 1.465 . S
C121 C120 1.264 . S
C121 C123 1.339 . S
C121 H148 0.931 . S
C122 C123 1.395 . S
C122 C124 1.320 . S
C123 C121 1.339 . S
C123 C122 1.395 . S
C123 H149 0.929 . S
C124 C122 1.320 . S
C124 C125 1.405 . S
C124 H150 0.930 . S
C125 C120 1.479 . S
C125 C124 1.405 . S
C125 H151 0.931 . S
U126 O127 2.454 . S
U126 O128 2.458 . S
U126 C129 2.984 . S
U126 C130 2.847 . S
U126 C143 2.882 . S
U126 O144 2.441 . S
U126 O145 2.420 . S
U126 O146 2.455 . S
U126 O147 2.449 . S
O127 U126 2.454 . S
O127 C129 1.353 . S
O128 U126 2.458 . S
O128 C129 1.286 . S
C129 U126 2.984 . S
C129 O127 1.353 . S
C129 O128 1.286 . S
C129 C131 1.363 . S
C130 C120 1.465 . S
C130 U126 2.847 . S
C130 O144 1.249 . S
C130 O145 1.202 . S
C131 C129 1.363 . S
C131 C133 1.408 . S
C131 C136 1.342 . S
C132 C133 1.310 . S
C132 C135 1.461 . S
C132 H152 0.932 . S
C133 C131 1.408 . S
C133 C132 1.310 . S
C133 H153 0.930 . S
C134 C135 1.474 . S
C134 C136 1.285 . S
C134 H154 0.929 . S
C135 C132 1.461 . S
C135 C134 1.474 . S
C136 C131 1.342 . S
C136 C134 1.285 . S
C136 H155 0.930 . S
C137 C140 1.424 . S
C137 C142 1.245 . S
C137 C143 1.428 . S
C138 C141 1.260 . S
C138 C142 1.477 . S
C138 H156 0.932 . S
C139 C140 1.384 . S
C139 C141 1.479 . S
C139 H157 0.929 . S
C140 C137 1.424 . S
C140 C139 1.384 . S
C140 H158 0.928 . S
C141 C138 1.260 . S
C141 C139 1.479 . S
C142 C137 1.245 . S
C142 C138 1.477 . S
C142 H159 0.932 . S
C143 U126 2.882 . S
C143 C137 1.428 . S
C143 O146 1.301 . S
C143 O147 1.282 . S
O144 U126 2.441 . S
O144 C130 1.249 . S
O145 U126 2.420 . S
O145 C130 1.202 . S
O146 U126 2.455 . S
O146 C143 1.301 . S
O147 U126 2.449 . S
O147 C143 1.282 . S
H148 C121 0.931 . S
H149 C123 0.929 . S
H150 C124 0.930 . S
H151 C125 0.931 . S
H152 C132 0.932 . S
H153 C133 0.930 . S
H154 C134 0.929 . S
H155 C136 0.930 . S
H156 C138 0.932 . S
H157 C139 0.929 . S
H158 C140 0.928 . S
H159 C142 0.932 . S
C160 C161 1.264 . S
C160 C165 1.479 . S
C160 C170 1.465 . S
C161 C160 1.264 . S
C161 C163 1.339 . S
C161 H188 0.931 . S
C162 C163 1.395 . S
C162 C164 1.320 . S
C163 C161 1.339 . S
C163 C162 1.395 . S
C163 H189 0.929 . S
C164 C162 1.320 . S
C164 C165 1.405 . S
C164 H190 0.930 . S
C165 C160 1.479 . S
C165 C164 1.405 . S
C165 H191 0.931 . S
U166 O167 2.454 . S
U166 O168 2.458 . S
U166 C169 2.984 . S
U166 C170 2.847 . S
U166 C183 2.882 . S
U166 O184 2.441 . S
U166 O185 2.420 . S
U166 O186 2.455 . S
U166 O187 2.449 . S
O167 U166 2.454 . S
O167 C169 1.353 . S
O168 U166 2.458 . S
O168 C169 1.286 . S
C169 U166 2.984 . S
C169 O167 1.353 . S
C169 O168 1.286 . S
C169 C171 1.363 . S
C170 C160 1.465 . S
C170 U166 2.847 . S
C170 O184 1.249 . S
C170 O185 1.202 . S
C171 C169 1.363 . S
C171 C173 1.408 . S
C171 C176 1.342 . S
C172 C173 1.310 . S
C172 C175 1.461 . S
C172 H192 0.932 . S
C173 C171 1.408 . S
C173 C172 1.310 . S
C173 H193 0.930 . S
C174 C175 1.474 . S
C174 C176 1.285 . S
C174 H194 0.929 . S
C175 C172 1.461 . S
C175 C174 1.474 . S
C176 C171 1.342 . S
C176 C174 1.285 . S
C176 H195 0.930 . S
C177 C180 1.424 . S
C177 C182 1.245 . S
C177 C183 1.428 . S
C178 C181 1.260 . S
C178 C182 1.477 . S
C178 H196 0.932 . S
C179 C180 1.384 . S
C179 C181 1.479 . S
C179 H197 0.929 . S
C180 C177 1.424 . S
C180 C179 1.384 . S
C180 H198 0.928 . S
C181 C178 1.260 . S
C181 C179 1.479 . S
C182 C177 1.245 . S
C182 C178 1.477 . S
C182 H199 0.932 . S
C183 U166 2.882 . S
C183 C177 1.428 . S
C183 O186 1.301 . S
C183 O187 1.282 . S
O184 U166 2.441 . S
O184 C170 1.249 . S
O185 U166 2.420 . S
O185 C170 1.202 . S
O186 U166 2.455 . S
O186 C183 1.301 . S
O187 U166 2.449 . S
O187 C183 1.282 . S
H188 C161 0.931 . S
H189 C163 0.929 . S
H190 C164 0.930 . S
H191 C165 0.931 . S
H192 C172 0.932 . S
H193 C173 0.930 . S
H194 C174 0.929 . S
H195 C176 0.930 . S
H196 C178 0.932 . S
H197 C179 0.929 . S
H198 C180 0.928 . S
H199 C182 0.932 . S
C200 C201 1.264 . S
C200 C205 1.479 . S
C200 C210 1.465 . S
C201 C200 1.264 . S
C201 C203 1.339 . S
C201 H228 0.931 . S
C202 C203 1.395 . S
C202 C204 1.320 . S
C203 C201 1.339 . S
C203 C202 1.395 . S
C203 H229 0.929 . S
C204 C202 1.320 . S
C204 C205 1.405 . S
C204 H230 0.930 . S
C205 C200 1.479 . S
C205 C204 1.405 . S
C205 H231 0.931 . S
U206 O207 2.454 . S
U206 O208 2.458 . S
U206 C209 2.984 . S
U206 C210 2.847 . S
U206 C223 2.882 . S
U206 O224 2.441 . S
U206 O225 2.420 . S
U206 O226 2.455 . S
U206 O227 2.449 . S
O207 U206 2.454 . S
O207 C209 1.353 . S
O208 U206 2.458 . S
O208 C209 1.286 . S
C209 U206 2.984 . S
C209 O207 1.353 . S
C209 O208 1.286 . S
C209 C211 1.363 . S
C210 C200 1.465 . S
C210 U206 2.847 . S
C210 O224 1.249 . S
C210 O225 1.202 . S
C211 C209 1.363 . S
C211 C213 1.408 . S
C211 C216 1.342 . S
C212 C213 1.310 . S
C212 C215 1.461 . S
C212 H232 0.932 . S
C213 C211 1.408 . S
C213 C212 1.310 . S
C213 H233 0.930 . S
C214 C215 1.474 . S
C214 C216 1.285 . S
C214 H234 0.929 . S
C215 C212 1.461 . S
C215 C214 1.474 . S
C216 C211 1.342 . S
C216 C214 1.285 . S
C216 H235 0.930 . S
C217 C220 1.424 . S
C217 C222 1.245 . S
C217 C223 1.428 . S
C218 C221 1.260 . S
C218 C222 1.477 . S
C218 H236 0.932 . S
C219 C220 1.384 . S
C219 C221 1.479 . S
C219 H237 0.929 . S
C220 C217 1.424 . S
C220 C219 1.384 . S
C220 H238 0.928 . S
C221 C218 1.260 . S
C221 C219 1.479 . S
C222 C217 1.245 . S
C222 C218 1.477 . S
C222 H239 0.932 . S
C223 U206 2.882 . S
C223 C217 1.428 . S
C223 O226 1.301 . S
C223 O227 1.282 . S
O224 U206 2.441 . S
O224 C210 1.249 . S
O225 U206 2.420 . S
O225 C210 1.202 . S
O226 U206 2.455 . S
O226 C223 1.301 . S
O227 U206 2.449 . S
O227 C223 1.282 . S
H228 C201 0.931 . S
H229 C203 0.929 . S
H230 C204 0.930 . S
H231 C205 0.931 . S
H232 C212 0.932 . S
H233 C213 0.930 . S
H234 C214 0.929 . S
H235 C216 0.930 . S
H236 C218 0.932 . S
H237 C219 0.929 . S
H238 C220 0.928 . S
H239 C222 0.932 . S
C240 C241 1.264 . S
C240 C245 1.479 . S
C240 C250 1.465 . S
C241 C240 1.264 . S
C241 C243 1.339 . S
C241 H268 0.931 . S
C242 C243 1.395 . S
C242 C244 1.320 . S
C243 C241 1.339 . S
C243 C242 1.395 . S
C243 H269 0.929 . S
C244 C242 1.320 . S
C244 C245 1.405 . S
C244 H270 0.930 . S
C245 C240 1.479 . S
C245 C244 1.405 . S
C245 H271 0.931 . S
U246 O247 2.454 . S
U246 O248 2.458 . S
U246 C249 2.984 . S
U246 C250 2.847 . S
U246 C263 2.882 . S
U246 O264 2.441 . S
U246 O265 2.420 . S
U246 O266 2.455 . S
U246 O267 2.449 . S
O247 U246 2.454 . S
O247 C249 1.353 . S
O248 U246 2.458 . S
O248 C249 1.286 . S
C249 U246 2.984 . S
C249 O247 1.353 . S
C249 O248 1.286 . S
C249 C251 1.363 . S
C250 C240 1.465 . S
C250 U246 2.847 . S
C250 O264 1.249 . S
C250 O265 1.202 . S
C251 C249 1.363 . S
C251 C253 1.408 . S
C251 C256 1.342 . S
C252 C253 1.310 . S
C252 C255 1.461 . S
C252 H272 0.932 . S
C253 C251 1.408 . S
C253 C252 1.310 . S
C253 H273 0.930 . S
C254 C255 1.474 . S
C254 C256 1.285 . S
C254 H274 0.929 . S
C255 C252 1.461 . S
C255 C254 1.474 . S
C256 C251 1.342 . S
C256 C254 1.285 . S
C256 H275 0.930 . S
C257 C260 1.424 . S
C257 C262 1.245 . S
C257 C263 1.428 . S
C258 C261 1.260 . S
C258 C262 1.477 . S
C258 H276 0.932 . S
C259 C260 1.384 . S
C259 C261 1.479 . S
C259 H277 0.929 . S
C260 C257 1.424 . S
C260 C259 1.384 . S
C260 H278 0.928 . S
C261 C258 1.260 . S
C261 C259 1.479 . S
C262 C257 1.245 . S
C262 C258 1.477 . S
C262 H279 0.932 . S
C263 U246 2.882 . S
C263 C257 1.428 . S
C263 O266 1.301 . S
C263 O267 1.282 . S
O264 U246 2.441 . S
O264 C250 1.249 . S
O265 U246 2.420 . S
O265 C250 1.202 . S
O266 U246 2.455 . S
O266 C263 1.301 . S
O267 U246 2.449 . S
O267 C263 1.282 . S
H268 C241 0.931 . S
H269 C243 0.929 . S
H270 C244 0.930 . S
H271 C245 0.931 . S
H272 C252 0.932 . S
H273 C253 0.930 . S
H274 C254 0.929 . S
H275 C256 0.930 . S
H276 C258 0.932 . S
H277 C259 0.929 . S
H278 C260 0.928 . S
H279 C262 0.932 . S
C280 C281 1.264 . S
C280 C285 1.479 . S
C280 C290 1.465 . S
C281 C280 1.264 . S
C281 C283 1.339 . S
C281 H308 0.931 . S
C282 C283 1.395 . S
C282 C284 1.320 . S
C283 C281 1.339 . S
C283 C282 1.395 . S
C283 H309 0.929 . S
C284 C282 1.320 . S
C284 C285 1.405 . S
C284 H310 0.930 . S
C285 C280 1.479 . S
C285 C284 1.405 . S
C285 H311 0.931 . S
U286 O287 2.454 . S
U286 O288 2.458 . S
U286 C289 2.984 . S
U286 C290 2.847 . S
U286 C303 2.882 . S
U286 O304 2.441 . S
U286 O305 2.420 . S
U286 O306 2.455 . S
U286 O307 2.449 . S
O287 U286 2.454 . S
O287 C289 1.353 . S
O288 U286 2.458 . S
O288 C289 1.286 . S
C289 U286 2.984 . S
C289 O287 1.353 . S
C289 O288 1.286 . S
C289 C291 1.363 . S
C290 C280 1.465 . S
C290 U286 2.847 . S
C290 O304 1.249 . S
C290 O305 1.202 . S
C291 C289 1.363 . S
C291 C293 1.408 . S
C291 C296 1.342 . S
C292 C293 1.310 . S
C292 C295 1.461 . S
C292 H312 0.932 . S
C293 C291 1.408 . S
C293 C292 1.310 . S
C293 H313 0.930 . S
C294 C295 1.474 . S
C294 C296 1.285 . S
C294 H314 0.929 . S
C295 C292 1.461 . S
C295 C294 1.474 . S
C296 C291 1.342 . S
C296 C294 1.285 . S
C296 H315 0.930 . S
C297 C300 1.424 . S
C297 C302 1.245 . S
C297 C303 1.428 . S
C298 C301 1.260 . S
C298 C302 1.477 . S
C298 H316 0.932 . S
C299 C300 1.384 . S
C299 C301 1.479 . S
C299 H317 0.929 . S
C300 C297 1.424 . S
C300 C299 1.384 . S
C300 H318 0.928 . S
C301 C298 1.260 . S
C301 C299 1.479 . S
C302 C297 1.245 . S
C302 C298 1.477 . S
C302 H319 0.932 . S
C303 U286 2.882 . S
C303 C297 1.428 . S
C303 O306 1.301 . S
C303 O307 1.282 . S
O304 U286 2.441 . S
O304 C290 1.249 . S
O305 U286 2.420 . S
O305 C290 1.202 . S
O306 U286 2.455 . S
O306 C303 1.301 . S
O307 U286 2.449 . S
O307 C303 1.282 . S
H308 C281 0.931 . S
H309 C283 0.929 . S
H310 C284 0.930 . S
H311 C285 0.931 . S
H312 C292 0.932 . S
H313 C293 0.930 . S
H314 C294 0.929 . S
H315 C296 0.930 . S
H316 C298 0.932 . S
H317 C299 0.929 . S
H318 C300 0.928 . S
H319 C302 0.932 . S
C320 C321 1.264 . S
C320 C325 1.479 . S
C320 C330 1.465 . S
C321 C320 1.264 . S
C321 C323 1.339 . S
C321 H348 0.931 . S
C322 C323 1.395 . S
C322 C324 1.320 . S
C323 C321 1.339 . S
C323 C322 1.395 . S
C323 H349 0.929 . S
C324 C322 1.320 . S
C324 C325 1.405 . S
C324 H350 0.930 . S
C325 C320 1.479 . S
C325 C324 1.405 . S
C325 H351 0.931 . S
U326 O327 2.454 . S
U326 O328 2.458 . S
U326 C329 2.984 . S
U326 C330 2.847 . S
U326 C343 2.882 . S
U326 O344 2.441 . S
U326 O345 2.420 . S
U326 O346 2.455 . S
U326 O347 2.449 . S
O327 U326 2.454 . S
O327 C329 1.353 . S
O328 U326 2.458 . S
O328 C329 1.286 . S
C329 U326 2.984 . S
C329 O327 1.353 . S
C329 O328 1.286 . S
C329 C331 1.363 . S
C330 C320 1.465 . S
C330 U326 2.847 . S
C330 O344 1.249 . S
C330 O345 1.202 . S
C331 C329 1.363 . S
C331 C333 1.408 . S
C331 C336 1.342 . S
C332 C333 1.310 . S
C332 C335 1.461 . S
C332 H352 0.932 . S
C333 C331 1.408 . S
C333 C332 1.310 . S
C333 H353 0.930 . S
C334 C335 1.474 . S
C334 C336 1.285 . S
C334 H354 0.929 . S
C335 C332 1.461 . S
C335 C334 1.474 . S
C336 C331 1.342 . S
C336 C334 1.285 . S
C336 H355 0.930 . S
C337 C340 1.424 . S
C337 C342 1.245 . S
C337 C343 1.428 . S
C338 C341 1.260 . S
C338 C342 1.477 . S
C338 H356 0.932 . S
C339 C340 1.384 . S
C339 C341 1.479 . S
C339 H357 0.929 . S
C340 C337 1.424 . S
C340 C339 1.384 . S
C340 H358 0.928 . S
C341 C338 1.260 . S
C341 C339 1.479 . S
C342 C337 1.245 . S
C342 C338 1.477 . S
C342 H359 0.932 . S
C343 U326 2.882 . S
C343 C337 1.428 . S
C343 O346 1.301 . S
C343 O347 1.282 . S
O344 U326 2.441 . S
O344 C330 1.249 . S
O345 U326 2.420 . S
O345 C330 1.202 . S
O346 U326 2.455 . S
O346 C343 1.301 . S
O347 U326 2.449 . S
O347 C343 1.282 . S
H348 C321 0.931 . S
H349 C323 0.929 . S
H350 C324 0.930 . S
H351 C325 0.931 . S
H352 C332 0.932 . S
H353 C333 0.930 . S
H354 C334 0.929 . S
H355 C336 0.930 . S
H356 C338 0.932 . S
H357 C339 0.929 . S
H358 C340 0.928 . S
H359 C342 0.932 . S
C360 C361 1.264 . S
C360 C365 1.479 . S
C360 C370 1.465 . S
C361 C360 1.264 . S
C361 C363 1.339 . S
C361 H388 0.931 . S
C362 C363 1.395 . S
C362 C364 1.320 . S
C363 C361 1.339 . S
C363 C362 1.395 . S
C363 H389 0.929 . S
C364 C362 1.320 . S
C364 C365 1.405 . S
C364 H390 0.930 . S
C365 C360 1.479 . S
C365 C364 1.405 . S
C365 H391 0.931 . S
U366 O367 2.454 . S
U366 O368 2.458 . S
U366 C369 2.984 . S
U366 C370 2.847 . S
U366 C383 2.882 . S
U366 O384 2.441 . S
U366 O385 2.420 . S
U366 O386 2.455 . S
U366 O387 2.449 . S
O367 U366 2.454 . S
O367 C369 1.353 . S
O368 U366 2.458 . S
O368 C369 1.286 . S
C369 U366 2.984 . S
C369 O367 1.353 . S
C369 O368 1.286 . S
C369 C371 1.363 . S
C370 C360 1.465 . S
C370 U366 2.847 . S
C370 O384 1.249 . S
C370 O385 1.202 . S
C371 C369 1.363 . S
C371 C373 1.408 . S
C371 C376 1.342 . S
C372 C373 1.310 . S
C372 C375 1.461 . S
C372 H392 0.932 . S
C373 C371 1.408 . S
C373 C372 1.310 . S
C373 H393 0.930 . S
C374 C375 1.474 . S
C374 C376 1.285 . S
C374 H394 0.929 . S
C375 C372 1.461 . S
C375 C374 1.474 . S
C376 C371 1.342 . S
C376 C374 1.285 . S
C376 H395 0.930 . S
C377 C380 1.424 . S
C377 C382 1.245 . S
C377 C383 1.428 . S
C378 C381 1.260 . S
C378 C382 1.477 . S
C378 H396 0.932 . S
C379 C380 1.384 . S
C379 C381 1.479 . S
C379 H397 0.929 . S
C380 C377 1.424 . S
C380 C379 1.384 . S
C380 H398 0.928 . S
C381 C378 1.260 . S
C381 C379 1.479 . S
C382 C377 1.245 . S
C382 C378 1.477 . S
C382 H399 0.932 . S
C383 U366 2.882 . S
C383 C377 1.428 . S
C383 O386 1.301 . S
C383 O387 1.282 . S
O384 U366 2.441 . S
O384 C370 1.249 . S
O385 U366 2.420 . S
O385 C370 1.202 . S
O386 U366 2.455 . S
O386 C383 1.301 . S
O387 U366 2.449 . S
O387 C383 1.282 . S
H388 C361 0.931 . S
H389 C363 0.929 . S
H390 C364 0.930 . S
H391 C365 0.931 . S
H392 C372 0.932 . S
H393 C373 0.930 . S
H394 C374 0.929 . S
H395 C376 0.930 . S
H396 C378 0.932 . S
H397 C379 0.929 . S
H398 C380 0.928 . S
H399 C382 0.932 . S
C400 C401 1.264 . S
C400 C405 1.479 . S
C400 C410 1.465 . S
C401 C400 1.264 . S
C401 C403 1.339 . S
C401 H428 0.931 . S
C402 C403 1.395 . S
C402 C404 1.320 . S
C403 C401 1.339 . S
C403 C402 1.395 . S
C403 H429 0.929 . S
C404 C402 1.320 . S
C404 C405 1.405 . S
C404 H430 0.930 . S
C405 C400 1.479 . S
C405 C404 1.405 . S
C405 H431 0.931 . S
U406 O407 2.454 . S
U406 O408 2.458 . S
U406 C409 2.984 . S
U406 C410 2.847 . S
U406 C423 2.882 . S
U406 O424 2.441 . S
U406 O425 2.420 . S
U406 O426 2.455 . S
U406 O427 2.449 . S
O407 U406 2.454 . S
O407 C409 1.353 . S
O408 U406 2.458 . S
O408 C409 1.286 . S
C409 U406 2.984 . S
C409 O407 1.353 . S
C409 O408 1.286 . S
C409 C411 1.363 . S
C410 C400 1.465 . S
C410 U406 2.847 . S
C410 O424 1.249 . S
C410 O425 1.202 . S
C411 C409 1.363 . S
C411 C413 1.408 . S
C411 C416 1.342 . S
C412 C413 1.310 . S
C412 C415 1.461 . S
C412 H432 0.932 . S
C413 C411 1.408 . S
C413 C412 1.310 . S
C413 H433 0.930 . S
C414 C415 1.474 . S
C414 C416 1.285 . S
C414 H434 0.929 . S
C415 C412 1.461 . S
C415 C414 1.474 . S
C416 C411 1.342 . S
C416 C414 1.285 . S
C416 H435 0.930 . S
C417 C420 1.424 . S
C417 C422 1.245 . S
C417 C423 1.428 . S
C418 C421 1.260 . S
C418 C422 1.477 . S
C418 H436 0.932 . S
C419 C420 1.384 . S
C419 C421 1.479 . S
C419 H437 0.929 . S
C420 C417 1.424 . S
C420 C419 1.384 . S
C420 H438 0.928 . S
C421 C418 1.260 . S
C421 C419 1.479 . S
C422 C417 1.245 . S
C422 C418 1.477 . S
C422 H439 0.932 . S
C423 U406 2.882 . S
C423 C417 1.428 . S
C423 O426 1.301 . S
C423 O427 1.282 . S
O424 U406 2.441 . S
O424 C410 1.249 . S
O425 U406 2.420 . S
O425 C410 1.202 . S
O426 U406 2.455 . S
O426 C423 1.301 . S
O427 U406 2.449 . S
O427 C423 1.282 . S
H428 C401 0.931 . S
H429 C403 0.929 . S
H430 C404 0.930 . S
H431 C405 0.931 . S
H432 C412 0.932 . S
H433 C413 0.930 . S
H434 C414 0.929 . S
H435 C416 0.930 . S
H436 C418 0.932 . S
H437 C419 0.929 . S
H438 C420 0.928 . S
H439 C422 0.932 . S
C440 C441 1.264 . S
C440 C445 1.479 . S
C440 C450 1.465 . S
C441 C440 1.264 . S
C441 C443 1.339 . S
C441 H468 0.931 . S
C442 C443 1.395 . S
C442 C444 1.320 . S
C443 C441 1.339 . S
C443 C442 1.395 . S
C443 H469 0.929 . S
C444 C442 1.320 . S
C444 C445 1.405 . S
C444 H470 0.930 . S
C445 C440 1.479 . S
C445 C444 1.405 . S
C445 H471 0.931 . S
U446 O447 2.454 . S
U446 O448 2.458 . S
U446 C449 2.984 . S
U446 C450 2.847 . S
U446 C463 2.882 . S
U446 O464 2.441 . S
U446 O465 2.420 . S
U446 O466 2.455 . S
U446 O467 2.449 . S
O447 U446 2.454 . S
O447 C449 1.353 . S
O448 U446 2.458 . S
O448 C449 1.286 . S
C449 U446 2.984 . S
C449 O447 1.353 . S
C449 O448 1.286 . S
C449 C451 1.363 . S
C450 C440 1.465 . S
C450 U446 2.847 . S
C450 O464 1.249 . S
C450 O465 1.202 . S
C451 C449 1.363 . S
C451 C453 1.408 . S
C451 C456 1.342 . S
C452 C453 1.310 . S
C452 C455 1.461 . S
C452 H472 0.932 . S
C453 C451 1.408 . S
C453 C452 1.310 . S
C453 H473 0.930 . S
C454 C455 1.474 . S
C454 C456 1.285 . S
C454 H474 0.929 . S
C455 C452 1.461 . S
C455 C454 1.474 . S
C456 C451 1.342 . S
C456 C454 1.285 . S
C456 H475 0.930 . S
C457 C460 1.424 . S
C457 C462 1.245 . S
C457 C463 1.428 . S
C458 C461 1.260 . S
C458 C462 1.477 . S
C458 H476 0.932 . S
C459 C460 1.384 . S
C459 C461 1.479 . S
C459 H477 0.929 . S
C460 C457 1.424 . S
C460 C459 1.384 . S
C460 H478 0.928 . S
C461 C458 1.260 . S
C461 C459 1.479 . S
C462 C457 1.245 . S
C462 C458 1.477 . S
C462 H479 0.932 . S
C463 U446 2.882 . S
C463 C457 1.428 . S
C463 O466 1.301 . S
C463 O467 1.282 . S
O464 U446 2.441 . S
O464 C450 1.249 . S
O465 U446 2.420 . S
O465 C450 1.202 . S
O466 U446 2.455 . S
O466 C463 1.301 . S
O467 U446 2.449 . S
O467 C463 1.282 . S
H468 C441 0.931 . S
H469 C443 0.929 . S
H470 C444 0.930 . S
H471 C445 0.931 . S
H472 C452 0.932 . S
H473 C453 0.930 . S
H474 C454 0.929 . S
H475 C456 0.930 . S
H476 C458 0.932 . S
H477 C459 0.929 . S
H478 C460 0.928 . S
H479 C462 0.932 . S
C480 C481 1.264 . S
C480 C485 1.479 . S
C480 C490 1.465 . S
C481 C480 1.264 . S
C481 C483 1.339 . S
C481 H508 0.931 . S
C482 C483 1.395 . S
C482 C484 1.320 . S
C483 C481 1.339 . S
C483 C482 1.395 . S
C483 H509 0.929 . S
C484 C482 1.320 . S
C484 C485 1.405 . S
C484 H510 0.930 . S
C485 C480 1.479 . S
C485 C484 1.405 . S
C485 H511 0.931 . S
U486 O487 2.454 . S
U486 O488 2.458 . S
U486 C489 2.984 . S
U486 C490 2.847 . S
U486 C503 2.882 . S
U486 O504 2.441 . S
U486 O505 2.420 . S
U486 O506 2.455 . S
U486 O507 2.449 . S
O487 U486 2.454 . S
O487 C489 1.353 . S
O488 U486 2.458 . S
O488 C489 1.286 . S
C489 U486 2.984 . S
C489 O487 1.353 . S
C489 O488 1.286 . S
C489 C491 1.363 . S
C490 C480 1.465 . S
C490 U486 2.847 . S
C490 O504 1.249 . S
C490 O505 1.202 . S
C491 C489 1.363 . S
C491 C493 1.408 . S
C491 C496 1.342 . S
C492 C493 1.310 . S
C492 C495 1.461 . S
C492 H512 0.932 . S
C493 C491 1.408 . S
C493 C492 1.310 . S
C493 H513 0.930 . S
C494 C495 1.474 . S
C494 C496 1.285 . S
C494 H514 0.929 . S
C495 C492 1.461 . S
C495 C494 1.474 . S
C496 C491 1.342 . S
C496 C494 1.285 . S
C496 H515 0.930 . S
C497 C500 1.424 . S
C497 C502 1.245 . S
C497 C503 1.428 . S
C498 C501 1.260 . S
C498 C502 1.477 . S
C498 H516 0.932 . S
C499 C500 1.384 . S
C499 C501 1.479 . S
C499 H517 0.929 . S
C500 C497 1.424 . S
C500 C499 1.384 . S
C500 H518 0.928 . S
C501 C498 1.260 . S
C501 C499 1.479 . S
C502 C497 1.245 . S
C502 C498 1.477 . S
C502 H519 0.932 . S
C503 U486 2.882 . S
C503 C497 1.428 . S
C503 O506 1.301 . S
C503 O507 1.282 . S
O504 U486 2.441 . S
O504 C490 1.249 . S
O505 U486 2.420 . S
O505 C490 1.202 . S
O506 U486 2.455 . S
O506 C503 1.301 . S
O507 U486 2.449 . S
O507 C503 1.282 . S
H508 C481 0.931 . S
H509 C483 0.929 . S
H510 C484 0.930 . S
H511 C485 0.931 . S
H512 C492 0.932 . S
H513 C493 0.930 . S
H514 C494 0.929 . S
H515 C496 0.930 . S
H516 C498 0.932 . S
H517 C499 0.929 . S
H518 C500 0.928 . S
H519 C502 0.932 . S
C520 C521 1.264 . S
C520 C525 1.479 . S
C520 C530 1.465 . S
C521 C520 1.264 . S
C521 C523 1.339 . S
C521 H548 0.931 . S
C522 C523 1.395 . S
C522 C524 1.320 . S
C523 C521 1.339 . S
C523 C522 1.395 . S
C523 H549 0.929 . S
C524 C522 1.320 . S
C524 C525 1.405 . S
C524 H550 0.930 . S
C525 C520 1.479 . S
C525 C524 1.405 . S
C525 H551 0.931 . S
U526 O527 2.454 . S
U526 O528 2.458 . S
U526 C529 2.984 . S
U526 C530 2.847 . S
U526 C543 2.882 . S
U526 O544 2.441 . S
U526 O545 2.420 . S
U526 O546 2.455 . S
U526 O547 2.449 . S
O527 U526 2.454 . S
O527 C529 1.353 . S
O528 U526 2.458 . S
O528 C529 1.286 . S
C529 U526 2.984 . S
C529 O527 1.353 . S
C529 O528 1.286 . S
C529 C531 1.363 . S
C530 C520 1.465 . S
C530 U526 2.847 . S
C530 O544 1.249 . S
C530 O545 1.202 . S
C531 C529 1.363 . S
C531 C533 1.408 . S
C531 C536 1.342 . S
C532 C533 1.310 . S
C532 C535 1.461 . S
C532 H552 0.932 . S
C533 C531 1.408 . S
C533 C532 1.310 . S
C533 H553 0.930 . S
C534 C535 1.474 . S
C534 C536 1.285 . S
C534 H554 0.929 . S
C535 C532 1.461 . S
C535 C534 1.474 . S
C536 C531 1.342 . S
C536 C534 1.285 . S
C536 H555 0.930 . S
C537 C540 1.424 . S
C537 C542 1.245 . S
C537 C543 1.428 . S
C538 C541 1.260 . S
C538 C542 1.477 . S
C538 H556 0.932 . S
C539 C540 1.384 . S
C539 C541 1.479 . S
C539 H557 0.929 . S
C540 C537 1.424 . S
C540 C539 1.384 . S
C540 H558 0.928 . S
C541 C538 1.260 . S
C541 C539 1.479 . S
C542 C537 1.245 . S
C542 C538 1.477 . S
C542 H559 0.932 . S
C543 U526 2.882 . S
C543 C537 1.428 . S
C543 O546 1.301 . S
C543 O547 1.282 . S
O544 U526 2.441 . S
O544 C530 1.249 . S
O545 U526 2.420 . S
O545 C530 1.202 . S
O546 U526 2.455 . S
O546 C543 1.301 . S
O547 U526 2.449 . S
O547 C543 1.282 . S
H548 C521 0.931 . S
H549 C523 0.929 . S
H550 C524 0.930 . S
H551 C525 0.931 . S
H552 C532 0.932 . S
H553 C533 0.930 . S
H554 C534 0.929 . S
H555 C536 0.930 . S
H556 C538 0.932 . S
H557 C539 0.929 . S
H558 C540 0.928 . S
H559 C542 0.932 . S
C560 C561 1.264 . S
C560 C565 1.479 . S
C560 C570 1.465 . S
C561 C560 1.264 . S
C561 C563 1.339 . S
C561 H588 0.931 . S
C562 C563 1.395 . S
C562 C564 1.320 . S
C563 C561 1.339 . S
C563 C562 1.395 . S
C563 H589 0.929 . S
C564 C562 1.320 . S
C564 C565 1.405 . S
C564 H590 0.930 . S
C565 C560 1.479 . S
C565 C564 1.405 . S
C565 H591 0.931 . S
U566 O567 2.454 . S
U566 O568 2.458 . S
U566 C569 2.984 . S
U566 C570 2.847 . S
U566 C583 2.882 . S
U566 O584 2.441 . S
U566 O585 2.420 . S
U566 O586 2.455 . S
U566 O587 2.449 . S
O567 U566 2.454 . S
O567 C569 1.353 . S
O568 U566 2.458 . S
O568 C569 1.286 . S
C569 U566 2.984 . S
C569 O567 1.353 . S
C569 O568 1.286 . S
C569 C571 1.363 . S
C570 C560 1.465 . S
C570 U566 2.847 . S
C570 O584 1.249 . S
C570 O585 1.202 . S
C571 C569 1.363 . S
C571 C573 1.408 . S
C571 C576 1.342 . S
C572 C573 1.310 . S
C572 C575 1.461 . S
C572 H592 0.932 . S
C573 C571 1.408 . S
C573 C572 1.310 . S
C573 H593 0.930 . S
C574 C575 1.474 . S
C574 C576 1.285 . S
C574 H594 0.929 . S
C575 C572 1.461 . S
C575 C574 1.474 . S
C576 C571 1.342 . S
C576 C574 1.285 . S
C576 H595 0.930 . S
C577 C580 1.424 . S
C577 C582 1.245 . S
C577 C583 1.428 . S
C578 C581 1.260 . S
C578 C582 1.477 . S
C578 H596 0.932 . S
C579 C580 1.384 . S
C579 C581 1.479 . S
C579 H597 0.929 . S
C580 C577 1.424 . S
C580 C579 1.384 . S
C580 H598 0.928 . S
C581 C578 1.260 . S
C581 C579 1.479 . S
C582 C577 1.245 . S
C582 C578 1.477 . S
C582 H599 0.932 . S
C583 U566 2.882 . S
C583 C577 1.428 . S
C583 O586 1.301 . S
C583 O587 1.282 . S
O584 U566 2.441 . S
O584 C570 1.249 . S
O585 U566 2.420 . S
O585 C570 1.202 . S
O586 U566 2.455 . S
O586 C583 1.301 . S
O587 U566 2.449 . S
O587 C583 1.282 . S
H588 C561 0.931 . S
H589 C563 0.929 . S
H590 C564 0.930 . S
H591 C565 0.931 . S
H592 C572 0.932 . S
H593 C573 0.930 . S
H594 C574 0.929 . S
H595 C576 0.930 . S
H596 C578 0.932 . S
H597 C579 0.929 . S
H598 C580 0.928 . S
H599 C582 0.932 . S
C600 C601 1.264 . S
C600 C605 1.479 . S
C600 C610 1.465 . S
C601 C600 1.264 . S
C601 C603 1.339 . S
C601 H628 0.931 . S
C602 C603 1.395 . S
C602 C604 1.320 . S
C603 C601 1.339 . S
C603 C602 1.395 . S
C603 H629 0.929 . S
C604 C602 1.320 . S
C604 C605 1.405 . S
C604 H630 0.930 . S
C605 C600 1.479 . S
C605 C604 1.405 . S
C605 H631 0.931 . S
U606 O607 2.454 . S
U606 O608 2.458 . S
U606 C609 2.984 . S
U606 C610 2.847 . S
U606 C623 2.882 . S
U606 O624 2.441 . S
U606 O625 2.420 . S
U606 O626 2.455 . S
U606 O627 2.449 . S
O607 U606 2.454 . S
O607 C609 1.353 . S
O608 U606 2.458 . S
O608 C609 1.286 . S
C609 U606 2.984 . S
C609 O607 1.353 . S
C609 O608 1.286 . S
C609 C611 1.363 . S
C610 C600 1.465 . S
C610 U606 2.847 . S
C610 O624 1.249 . S
C610 O625 1.202 . S
C611 C609 1.363 . S
C611 C613 1.408 . S
C611 C616 1.342 . S
C612 C613 1.310 . S
C612 C615 1.461 . S
C612 H632 0.932 . S
C613 C611 1.408 . S
C613 C612 1.310 . S
C613 H633 0.930 . S
C614 C615 1.474 . S
C614 C616 1.285 . S
C614 H634 0.929 . S
C615 C612 1.461 . S
C615 C614 1.474 . S
C616 C611 1.342 . S
C616 C614 1.285 . S
C616 H635 0.930 . S
C617 C620 1.424 . S
C617 C622 1.245 . S
C617 C623 1.428 . S
C618 C621 1.260 . S
C618 C622 1.477 . S
C618 H636 0.932 . S
C619 C620 1.384 . S
C619 C621 1.479 . S
C619 H637 0.929 . S
C620 C617 1.424 . S
C620 C619 1.384 . S
C620 H638 0.928 . S
C621 C618 1.260 . S
C621 C619 1.479 . S
C622 C617 1.245 . S
C622 C618 1.477 . S
C622 H639 0.932 . S
C623 U606 2.882 . S
C623 C617 1.428 . S
C623 O626 1.301 . S
C623 O627 1.282 . S
O624 U606 2.441 . S
O624 C610 1.249 . S
O625 U606 2.420 . S
O625 C610 1.202 . S
O626 U606 2.455 . S
O626 C623 1.301 . S
O627 U606 2.449 . S
O627 C623 1.282 . S
H628 C601 0.931 . S
H629 C603 0.929 . S
H630 C604 0.930 . S
H631 C605 0.931 . S
H632 C612 0.932 . S
H633 C613 0.930 . S
H634 C614 0.929 . S
H635 C616 0.930 . S
H636 C618 0.932 . S
H637 C619 0.929 . S
H638 C620 0.928 . S
H639 C622 0.932 . S
C640 C641 1.264 . S
C640 C645 1.479 . S
C640 C650 1.465 . S
C641 C640 1.264 . S
C641 C643 1.339 . S
C641 H668 0.931 . S
C642 C643 1.395 . S
C642 C644 1.320 . S
C643 C641 1.339 . S
C643 C642 1.395 . S
C643 H669 0.929 . S
C644 C642 1.320 . S
C644 C645 1.405 . S
C644 H670 0.930 . S
C645 C640 1.479 . S
C645 C644 1.405 . S
C645 H671 0.931 . S
U646 O647 2.454 . S
U646 O648 2.458 . S
U646 C649 2.984 . S
U646 C650 2.847 . S
U646 C663 2.882 . S
U646 O664 2.441 . S
U646 O665 2.420 . S
U646 O666 2.455 . S
U646 O667 2.449 . S
O647 U646 2.454 . S
O647 C649 1.353 . S
O648 U646 2.458 . S
O648 C649 1.286 . S
C649 U646 2.984 . S
C649 O647 1.353 . S
C649 O648 1.286 . S
C649 C651 1.363 . S
C650 C640 1.465 . S
C650 U646 2.847 . S
C650 O664 1.249 . S
C650 O665 1.202 . S
C651 C649 1.363 . S
C651 C653 1.408 . S
C651 C656 1.342 . S
C652 C653 1.310 . S
C652 C655 1.461 . S
C652 H672 0.932 . S
C653 C651 1.408 . S
C653 C652 1.310 . S
C653 H673 0.930 . S
C654 C655 1.474 . S
C654 C656 1.285 . S
C654 H674 0.929 . S
C655 C652 1.461 . S
C655 C654 1.474 . S
C656 C651 1.342 . S
C656 C654 1.285 . S
C656 H675 0.930 . S
C657 C660 1.424 . S
C657 C662 1.245 . S
C657 C663 1.428 . S
C658 C661 1.260 . S
C658 C662 1.477 . S
C658 H676 0.932 . S
C659 C660 1.384 . S
C659 C661 1.479 . S
C659 H677 0.929 . S
C660 C657 1.424 . S
C660 C659 1.384 . S
C660 H678 0.928 . S
C661 C658 1.260 . S
C661 C659 1.479 . S
C662 C657 1.245 . S
C662 C658 1.477 . S
C662 H679 0.932 . S
C663 U646 2.882 . S
C663 C657 1.428 . S
C663 O666 1.301 . S
C663 O667 1.282 . S
O664 U646 2.441 . S
O664 C650 1.249 . S
O665 U646 2.420 . S
O665 C650 1.202 . S
O666 U646 2.455 . S
O666 C663 1.301 . S
O667 U646 2.449 . S
O667 C663 1.282 . S
H668 C641 0.931 . S
H669 C643 0.929 . S
H670 C644 0.930 . S
H671 C645 0.931 . S
H672 C652 0.932 . S
H673 C653 0.930 . S
H674 C654 0.929 . S
H675 C656 0.930 . S
H676 C658 0.932 . S
H677 C659 0.929 . S
H678 C660 0.928 . S
H679 C662 0.932 . S
C680 C681 1.264 . S
C680 C685 1.479 . S
C680 C690 1.465 . S
C681 C680 1.264 . S
C681 C683 1.339 . S
C681 H708 0.931 . S
C682 C683 1.395 . S
C682 C684 1.320 . S
C683 C681 1.339 . S
C683 C682 1.395 . S
C683 H709 0.929 . S
C684 C682 1.320 . S
C684 C685 1.405 . S
C684 H710 0.930 . S
C685 C680 1.479 . S
C685 C684 1.405 . S
C685 H711 0.931 . S
U686 O687 2.454 . S
U686 O688 2.458 . S
U686 C689 2.984 . S
U686 C690 2.847 . S
U686 C703 2.882 . S
U686 O704 2.441 . S
U686 O705 2.420 . S
U686 O706 2.455 . S
U686 O707 2.449 . S
O687 U686 2.454 . S
O687 C689 1.353 . S
O688 U686 2.458 . S
O688 C689 1.286 . S
C689 U686 2.984 . S
C689 O687 1.353 . S
C689 O688 1.286 . S
C689 C691 1.363 . S
C690 C680 1.465 . S
C690 U686 2.847 . S
C690 O704 1.249 . S
C690 O705 1.202 . S
C691 C689 1.363 . S
C691 C693 1.408 . S
C691 C696 1.342 . S
C692 C693 1.310 . S
C692 C695 1.461 . S
C692 H712 0.932 . S
C693 C691 1.408 . S
C693 C692 1.310 . S
C693 H713 0.930 . S
C694 C695 1.474 . S
C694 C696 1.285 . S
C694 H714 0.929 . S
C695 C692 1.461 . S
C695 C694 1.474 . S
C696 C691 1.342 . S
C696 C694 1.285 . S
C696 H715 0.930 . S
C697 C700 1.424 . S
C697 C702 1.245 . S
C697 C703 1.428 . S
C698 C701 1.260 . S
C698 C702 1.477 . S
C698 H716 0.932 . S
C699 C700 1.384 . S
C699 C701 1.479 . S
C699 H717 0.929 . S
C700 C697 1.424 . S
C700 C699 1.384 . S
C700 H718 0.928 . S
C701 C698 1.260 . S
C701 C699 1.479 . S
C702 C697 1.245 . S
C702 C698 1.477 . S
C702 H719 0.932 . S
C703 U686 2.882 . S
C703 C697 1.428 . S
C703 O706 1.301 . S
C703 O707 1.282 . S
O704 U686 2.441 . S
O704 C690 1.249 . S
O705 U686 2.420 . S
O705 C690 1.202 . S
O706 U686 2.455 . S
O706 C703 1.301 . S
O707 U686 2.449 . S
O707 C703 1.282 . S
H708 C681 0.931 . S
H709 C683 0.929 . S
H710 C684 0.930 . S
H711 C685 0.931 . S
H712 C692 0.932 . S
H713 C693 0.930 . S
H714 C694 0.929 . S
H715 C696 0.930 . S
H716 C698 0.932 . S
H717 C699 0.929 . S
H718 C700 0.928 . S
H719 C702 0.932 . S
O720 Mn721 2.163 1_565 S
O720 C734 1.244 . S
Mn721 O720 2.163 1_545 S
Mn721 O724 2.160 . S
Mn721 O725 2.221 1_545 S
Mn721 O727 2.163 1_554 S
Mn721 O729 2.160 . S
Mn721 O739 2.221 . S
O722 Mn723 2.087 1_565 S
O722 C734 1.256 . S
Mn723 O722 2.087 1_545 S
Mn723 O730 2.089 . S
Mn723 O739 2.290 . S
Mn723 O740 2.251 . S
O724 Mn721 2.160 . S
O724 C735 1.239 1_554 S
O725 Mn721 2.221 1_565 S
O725 Mn726 2.290 1_554 S
O725 C736 1.278 . S
Mn726 O725 2.290 1_556 S
Mn726 O728 2.089 1_565 S
Mn726 O731 2.251 . S
Mn726 O732 2.087 . S
O727 Mn721 2.163 1_556 S
O727 C737 1.244 . S
O728 Mn726 2.089 1_545 S
O728 C735 1.256 . S
O729 Mn721 2.160 . S
O729 C738 1.239 . S
O730 Mn723 2.089 . S
O730 C738 1.256 . S
O731 Mn726 2.251 . S
O731 C736 1.241 1_556 S
O732 Mn726 2.087 . S
O732 C737 1.256 1_565 S
C733 O739 1.278 . S
C733 O740 1.241 . S
C734 O720 1.244 . S
C734 O722 1.256 . S
C735 O724 1.239 1_556 S
C735 O728 1.256 . S
C736 O725 1.278 . S
C736 O731 1.241 1_554 S
C737 O727 1.244 . S
C737 O732 1.256 1_545 S
C738 O729 1.239 . S
C738 O730 1.256 . S
O739 Mn721 2.221 . S
O739 Mn723 2.290 . S
O739 C733 1.278 . S
O740 Mn723 2.251 . S
O740 C733 1.241 . S
O741 Mn742 2.129 1_455 S
O741 C755 1.244 . S
Mn742 O741 2.129 1_655 S
Mn742 O745 2.194 . S
Mn742 O746 2.218 1_655 S
Mn742 O748 2.163 1_554 S
Mn742 O750 2.158 . S
Mn742 O760 2.227 . S
O743 Mn744 2.087 1_455 S
O743 C755 1.256 . S
Mn744 O743 2.087 1_655 S
Mn744 O751 2.089 1_655 S
Mn744 O760 2.290 . S
Mn744 O761 2.251 . S
O745 Mn742 2.194 . S
O745 C756 1.239 1_554 S
O746 Mn742 2.218 1_455 S
O746 Mn747 2.290 1_554 S
O746 C757 1.278 . S
Mn747 O746 2.290 1_556 S
Mn747 O749 2.089 1_455 S
Mn747 O752 2.251 . S
Mn747 O753 2.087 . S
O748 Mn742 2.163 1_556 S
O748 C758 1.245 1_655 S
O749 Mn747 2.089 1_655 S
O749 C756 1.256 . S
O750 Mn742 2.158 . S
O750 C759 1.215 1_655 S
O751 Mn744 2.089 1_455 S
O751 C759 1.256 . S
O752 Mn747 2.251 . S
O752 C757 1.241 1_556 S
O753 Mn747 2.087 . S
O753 C758 1.255 . S
C754 O760 1.278 . S
C754 O761 1.241 . S
C755 O741 1.244 . S
C755 O743 1.256 . S
C756 O745 1.239 1_556 S
C756 O749 1.256 . S
C757 O746 1.278 . S
C757 O752 1.241 1_554 S
C758 O748 1.245 1_455 S
C758 O753 1.255 . S
C759 O750 1.215 1_455 S
C759 O751 1.256 . S
O760 Mn742 2.227 . S
O760 Mn744 2.290 . S
O760 C754 1.278 . S
O761 Mn744 2.251 . S
O761 C754 1.241 . S
O762 Mn763 2.160 1_556 S
O762 C776 1.264 . S
Mn763 O762 2.160 1_554 S
Mn763 O766 2.159 . S
Mn763 O767 2.224 . S
Mn763 O769 2.192 . S
Mn763 O771 2.130 1_554 S
Mn763 O781 2.218 1_554 S
O764 Mn765 2.087 . S
O764 C776 1.256 . S
Mn765 O764 2.087 . S
Mn765 O772 2.089 . S
Mn765 O781 2.290 . S
Mn765 O782 2.209 1_556 S
O766 Mn763 2.159 . S
O766 C777 1.278 . S
O767 Mn763 2.224 . S
O767 Mn768 2.290 . S
O767 C778 1.278 . S
Mn768 O767 2.290 . S
Mn768 O770 2.089 . S
Mn768 O773 2.251 . S
Mn768 O774 2.087 . S
O769 Mn763 2.192 . S
O769 C779 1.244 . S
O770 Mn768 2.089 . S
O770 C777 1.256 . S
O771 Mn763 2.130 1_556 S
O771 C780 1.239 . S
O772 Mn765 2.089 . S
O772 C780 1.256 . S
O773 Mn768 2.251 . S
O773 C778 1.241 . S
O774 Mn768 2.087 . S
O774 C779 1.256 . S
C775 O781 1.278 1_554 S
C775 O782 1.256 . S
C776 O762 1.264 . S
C776 O764 1.256 . S
C777 O766 1.278 . S
C777 O770 1.256 . S
C778 O767 1.278 . S
C778 O773 1.241 . S
C779 O769 1.244 . S
C779 O774 1.256 . S
C780 O771 1.239 . S
C780 O772 1.256 . S
O781 Mn763 2.218 1_556 S
O781 Mn765 2.290 . S
O781 C775 1.278 1_556 S
O782 Mn765 2.209 1_554 S
O782 C775 1.256 . S
O783 Mn784 2.163 . S
O783 C797 1.244 . S
Mn784 O783 2.163 . S
Mn784 O787 2.160 . S
Mn784 O788 2.221 . S
Mn784 O790 2.163 . S
Mn784 O792 2.160 . S
Mn784 O802 2.221 . S
O785 Mn786 2.087 . S
O785 C797 1.256 . S
Mn786 O785 2.087 . S
Mn786 O793 2.089 . S
Mn786 O802 2.290 . S
Mn786 O803 2.251 . S
O787 Mn784 2.160 . S
O787 C798 1.239 . S
O788 Mn784 2.221 . S
O788 Mn789 2.290 . S
O788 C799 1.278 . S
Mn789 O788 2.290 . S
Mn789 O791 2.089 . S
Mn789 O794 2.251 . S
Mn789 O795 2.087 . S
O790 Mn784 2.163 . S
O790 C800 1.244 . S
O791 Mn789 2.089 . S
O791 C798 1.256 . S
O792 Mn784 2.160 . S
O792 C801 1.239 . S
O793 Mn786 2.089 . S
O793 C801 1.256 . S
O794 Mn789 2.251 . S
O794 C799 1.241 . S
O795 Mn789 2.087 . S
O795 C800 1.256 . S
C796 O802 1.278 . S
C796 O803 1.241 . S
C797 O783 1.244 . S
C797 O785 1.256 . S
C798 O787 1.239 . S
C798 O791 1.256 . S
C799 O788 1.278 . S
C799 O794 1.241 . S
C800 O790 1.244 . S
C800 O795 1.256 . S
C801 O792 1.239 . S
C801 O793 1.256 . S
O802 Mn784 2.221 . S
O802 Mn786 2.290 . S
O802 C796 1.278 . S
O803 Mn786 2.251 . S
O803 C796 1.241 . S
O804 Mn805 2.163 . S
O804 C818 1.244 . S
Mn805 O804 2.163 . S
Mn805 O808 2.160 . S
Mn805 O809 2.221 . S
Mn805 O811 2.163 . S
Mn805 O813 2.160 . S
Mn805 O823 2.221 . S
O806 Mn807 2.087 . S
O806 C818 1.256 . S
Mn807 O806 2.087 . S
Mn807 O814 2.089 . S
Mn807 O823 2.290 . S
Mn807 O824 2.251 . S
O808 Mn805 2.160 . S
O808 C819 1.239 . S
O809 Mn805 2.221 . S
O809 Mn810 2.290 . S
O809 C820 1.278 . S
Mn810 O809 2.290 . S
Mn810 O812 2.089 . S
Mn810 O815 2.251 . S
Mn810 O816 2.087 . S
O811 Mn805 2.163 . S
O811 C821 1.244 . S
O812 Mn810 2.089 . S
O812 C819 1.256 . S
O813 Mn805 2.160 . S
O813 C822 1.239 . S
O814 Mn807 2.089 . S
O814 C822 1.256 . S
O815 Mn810 2.251 . S
O815 C820 1.241 . S
O816 Mn810 2.087 . S
O816 C821 1.256 . S
C817 O823 1.278 . S
C817 O824 1.241 . S
C818 O804 1.244 . S
C818 O806 1.256 . S
C819 O808 1.239 . S
C819 O812 1.256 . S
C820 O809 1.278 . S
C820 O815 1.241 . S
C821 O811 1.244 . S
C821 O816 1.256 . S
C822 O813 1.239 . S
C822 O814 1.256 . S
O823 Mn805 2.221 . S
O823 Mn807 2.290 . S
O823 C817 1.278 . S
O824 Mn807 2.251 . S
O824 C817 1.241 . S
O825 Mn826 2.163 . S
O825 C839 1.244 . S
Mn826 O825 2.163 . S
Mn826 O829 2.160 . S
Mn826 O830 2.221 . S
Mn826 O832 2.163 . S
Mn826 O834 2.160 . S
Mn826 O844 2.221 . S
O827 Mn828 2.087 . S
O827 C839 1.256 . S
Mn828 O827 2.087 . S
Mn828 O835 2.089 . S
Mn828 O844 2.290 . S
Mn828 O845 2.251 . S
O829 Mn826 2.160 . S
O829 C840 1.239 . S
O830 Mn826 2.221 . S
O830 Mn831 2.290 . S
O830 C841 1.278 . S
Mn831 O830 2.290 . S
Mn831 O833 2.089 . S
Mn831 O836 2.251 . S
Mn831 O837 2.087 . S
O832 Mn826 2.163 . S
O832 C842 1.244 . S
O833 Mn831 2.089 . S
O833 C840 1.256 . S
O834 Mn826 2.160 . S
O834 C843 1.239 . S
O835 Mn828 2.089 . S
O835 C843 1.256 . S
O836 Mn831 2.251 . S
O836 C841 1.241 . S
O837 Mn831 2.087 . S
O837 C842 1.256 . S
C838 O844 1.278 . S
C838 O845 1.241 . S
C839 O825 1.244 . S
C839 O827 1.256 . S
C840 O829 1.239 . S
C840 O833 1.256 . S
C841 O830 1.278 . S
C841 O836 1.241 . S
C842 O832 1.244 . S
C842 O837 1.256 . S
C843 O834 1.239 . S
C843 O835 1.256 . S
O844 Mn826 2.221 . S
O844 Mn828 2.290 . S
O844 C838 1.278 . S
O845 Mn828 2.251 . S
O845 C838 1.241 . S
O846 Mn847 2.163 . S
O846 C860 1.244 . S
Mn847 O846 2.163 . S
Mn847 O850 2.160 . S
Mn847 O851 2.221 . S
Mn847 O853 2.163 . S
Mn847 O855 2.160 . S
Mn847 O865 2.221 . S
O848 Mn849 2.087 . S
O848 C860 1.256 . S
Mn849 O848 2.087 . S
Mn849 O856 2.089 . S
Mn849 O865 2.290 . S
Mn849 O866 2.251 . S
O850 Mn847 2.160 . S
O850 C861 1.239 . S
O851 Mn847 2.221 . S
O851 Mn852 2.290 . S
O851 C862 1.278 . S
Mn852 O851 2.290 . S
Mn852 O854 2.089 . S
Mn852 O857 2.251 . S
Mn852 O858 2.087 . S
O853 Mn847 2.163 . S
O853 C863 1.244 . S
O854 Mn852 2.089 . S
O854 C861 1.256 . S
O855 Mn847 2.160 . S
O855 C864 1.239 . S
O856 Mn849 2.089 . S
O856 C864 1.256 . S
O857 Mn852 2.251 . S
O857 C862 1.241 . S
O858 Mn852 2.087 . S
O858 C863 1.256 . S
C859 O865 1.278 . S
C859 O866 1.241 . S
C860 O846 1.244 . S
C860 O848 1.256 . S
C861 O850 1.239 . S
C861 O854 1.256 . S
C862 O851 1.278 . S
C862 O857 1.241 . S
C863 O853 1.244 . S
C863 O858 1.256 . S
C864 O855 1.239 . S
C864 O856 1.256 . S
O865 Mn847 2.221 . S
O865 Mn849 2.290 . S
O865 C859 1.278 . S
O866 Mn849 2.251 . S
O866 C859 1.241 . S
O867 Mn868 2.163 . S
O867 C881 1.244 . S
Mn868 O867 2.163 . S
Mn868 O871 2.160 . S
Mn868 O872 2.221 . S
Mn868 O874 2.163 . S
Mn868 O876 2.160 . S
Mn868 O886 2.221 . S
O869 Mn870 2.087 . S
O869 C881 1.256 . S
Mn870 O869 2.087 . S
Mn870 O877 2.089 . S
Mn870 O886 2.290 . S
Mn870 O887 2.251 . S
O871 Mn868 2.160 . S
O871 C882 1.239 . S
O872 Mn868 2.221 . S
O872 Mn873 2.290 . S
O872 C883 1.278 . S
Mn873 O872 2.290 . S
Mn873 O875 2.089 . S
Mn873 O878 2.251 . S
Mn873 O879 2.087 . S
O874 Mn868 2.163 . S
O874 C884 1.244 . S
O875 Mn873 2.089 . S
O875 C882 1.256 . S
O876 Mn868 2.160 . S
O876 C885 1.239 . S
O877 Mn870 2.089 . S
O877 C885 1.256 . S
O878 Mn873 2.251 . S
O878 C883 1.241 . S
O879 Mn873 2.087 . S
O879 C884 1.256 . S
C880 O886 1.278 . S
C880 O887 1.241 . S
C881 O867 1.244 . S
C881 O869 1.256 . S
C882 O871 1.239 . S
C882 O875 1.256 . S
C883 O872 1.278 . S
C883 O878 1.241 . S
C884 O874 1.244 . S
C884 O879 1.256 . S
C885 O876 1.239 . S
C885 O877 1.256 . S
O886 Mn868 2.221 . S
O886 Mn870 2.290 . S
O886 C880 1.278 . S
O887 Mn870 2.251 . S
O887 C880 1.241 . S
O888 Mn889 2.163 . S
O888 C902 1.244 . S
Mn889 O888 2.163 . S
Mn889 O892 2.160 . S
Mn889 O893 2.221 . S
Mn889 O895 2.163 . S
Mn889 O897 2.160 . S
Mn889 O907 2.221 . S
O890 Mn891 2.087 . S
O890 C902 1.256 . S
Mn891 O890 2.087 . S
Mn891 O898 2.089 . S
Mn891 O907 2.290 . S
Mn891 O908 2.251 . S
O892 Mn889 2.160 . S
O892 C903 1.239 . S
O893 Mn889 2.221 . S
O893 Mn894 2.290 . S
O893 C904 1.278 . S
Mn894 O893 2.290 . S
Mn894 O896 2.089 . S
Mn894 O899 2.251 . S
Mn894 O900 2.087 . S
O895 Mn889 2.163 . S
O895 C905 1.244 . S
O896 Mn894 2.089 . S
O896 C903 1.256 . S
O897 Mn889 2.160 . S
O897 C906 1.239 . S
O898 Mn891 2.089 . S
O898 C906 1.256 . S
O899 Mn894 2.251 . S
O899 C904 1.241 . S
O900 Mn894 2.087 . S
O900 C905 1.256 . S
C901 O907 1.278 . S
C901 O908 1.241 . S
C902 O888 1.244 . S
C902 O890 1.256 . S
C903 O892 1.239 . S
C903 O896 1.256 . S
C904 O893 1.278 . S
C904 O899 1.241 . S
C905 O895 1.244 . S
C905 O900 1.256 . S
C906 O897 1.239 . S
C906 O898 1.256 . S
O907 Mn889 2.221 . S
O907 Mn891 2.290 . S
O907 C901 1.278 . S
O908 Mn891 2.251 . S
O908 C901 1.241 . S
C909 C910 1.349 . S
C909 C911 1.327 . S
C909 H934 0.950 . S
C910 C909 1.349 . S
C910 C926 1.349 . S
C911 C909 1.327 . S
C911 C930 1.429 . S
C911 H935 0.950 . S
C912 C929 1.574 . S
C912 C931 1.368 . S
C912 H936 0.949 . S
H913 C917 0.949 . S
C914 C915 1.349 . S
C914 C916 1.327 . S
C914 H937 0.950 1_554 S
C915 C914 1.349 . S
C915 C927 1.349 . S
C916 C914 1.327 . S
C916 C932 1.429 . S
C916 H938 0.950 1_554 S
C917 H913 0.949 . S
C917 C925 1.574 . S
C917 C933 1.368 . S
H918 C926 0.950 . S
H919 C924 0.950 . S
H920 C925 0.949 . S
H921 C927 0.950 . S
H922 C928 0.950 . S
H923 C929 0.949 1_556 S
C924 H919 0.950 . S
C924 C926 1.327 . S
C924 C930 1.429 . S
C925 C917 1.574 . S
C925 H920 0.949 . S
C925 C931 1.368 . S
C926 C910 1.349 . S
C926 H918 0.950 . S
C926 C924 1.327 . S
C927 C915 1.349 . S
C927 H921 0.950 . S
C927 C928 1.327 . S
C928 H922 0.950 . S
C928 C927 1.327 . S
C928 C932 1.429 . S
C929 C912 1.574 . S
C929 H923 0.949 1_554 S
C929 C933 1.368 . S
C930 C911 1.429 . S
C930 C924 1.429 . S
C930 C931 1.523 . S
C931 C912 1.368 . S
C931 C925 1.368 . S
C931 C930 1.523 . S
C932 C916 1.429 . S
C932 C928 1.429 . S
C932 C933 1.523 . S
C933 C917 1.368 . S
C933 C929 1.368 . S
C933 C932 1.523 . S
H934 C909 0.950 . S
H935 C911 0.950 . S
H936 C912 0.949 . S
H937 C914 0.950 1_556 S
H938 C916 0.950 1_556 S
C939 C940 1.349 . S
C939 C941 1.327 . S
C939 H964 0.950 . S
C940 C939 1.349 . S
C940 C956 1.349 . S
C941 C939 1.327 . S
C941 C960 1.429 . S
C941 H965 0.950 . S
C942 C959 1.574 . S
C942 C961 1.368 . S
C942 H966 0.949 . S
H943 C947 0.949 . S
C944 C945 1.349 . S
C944 C946 1.327 . S
C944 H967 0.950 . S
C945 C944 1.349 . S
C945 C957 1.349 . S
C946 C944 1.327 . S
C946 C962 1.429 . S
C946 H968 0.950 . S
C947 H943 0.949 . S
C947 C955 1.574 . S
C947 C963 1.368 . S
H948 C956 0.950 . S
H949 C954 0.950 . S
H950 C955 0.949 . S
H951 C957 0.950 1_556 S
H952 C958 0.947 1_556 S
H953 C959 0.949 . S
C954 H949 0.950 . S
C954 C956 1.327 . S
C954 C960 1.429 . S
C955 C947 1.574 . S
C955 H950 0.949 . S
C955 C961 1.368 . S
C956 C940 1.349 . S
C956 H948 0.950 . S
C956 C954 1.327 . S
C957 C945 1.349 . S
C957 H951 0.950 1_554 S
C957 C958 1.327 . S
C958 H952 0.947 1_554 S
C958 C957 1.327 . S
C958 C962 1.429 . S
C959 C942 1.574 . S
C959 H953 0.949 . S
C959 C963 1.368 . S
C960 C941 1.429 . S
C960 C954 1.429 . S
C960 C961 1.523 . S
C961 C942 1.368 . S
C961 C955 1.368 . S
C961 C960 1.523 . S
C962 C946 1.429 . S
C962 C958 1.429 . S
C962 C963 1.523 . S
C963 C947 1.368 . S
C963 C959 1.368 . S
C963 C962 1.523 . S
H964 C939 0.950 . S
H965 C941 0.950 . S
H966 C942 0.949 . S
H967 C944 0.950 . S
H968 C946 0.950 . S
C969 C970 1.349 . S
C969 C971 1.327 . S
C969 H994 0.950 . S
C970 C969 1.349 . S
C970 C986 1.349 . S
C971 C969 1.327 . S
C971 C990 1.429 . S
C971 H995 0.950 . S
C972 C989 1.574 . S
C972 C991 1.368 . S
C972 H996 0.949 . S
H973 C977 0.937 1_556 S
C974 C975 1.349 . S
C974 C976 1.327 . S
C974 H997 0.950 . S
C975 C974 1.349 . S
C975 C987 1.349 . S
C976 C974 1.327 . S
C976 C992 1.429 . S
C976 H998 0.950 . S
C977 H973 0.937 1_554 S
C977 C985 1.574 . S
C977 C993 1.368 . S
H978 C986 0.950 . S
H979 C984 0.950 . S
H980 C985 0.949 . S
H981 C987 0.950 1_556 S
H982 C988 0.950 1_556 S
H983 C989 0.949 . S
C984 H979 0.950 . S
C984 C986 1.327 . S
C984 C990 1.429 . S
C985 C977 1.574 . S
C985 H980 0.949 . S
C985 C991 1.368 . S
C986 C970 1.349 . S
C986 H978 0.950 . S
C986 C984 1.327 . S
C987 C975 1.349 . S
C987 H981 0.950 1_554 S
C987 C988 1.327 . S
C988 H982 0.950 1_554 S
C988 C987 1.327 . S
C988 C992 1.429 . S
C989 C972 1.574 . S
C989 H983 0.949 . S
C989 C993 1.368 . S
C990 C971 1.429 . S
C990 C984 1.429 . S
C990 C991 1.523 . S
C991 C972 1.368 . S
C991 C985 1.368 . S
C991 C990 1.523 . S
C992 C976 1.429 . S
C992 C988 1.429 . S
C992 C993 1.523 . S
C993 C977 1.368 . S
C993 C989 1.368 . S
C993 C992 1.523 . S
H994 C969 0.950 . S
H995 C971 0.950 . S
H996 C972 0.949 . S
H997 C974 0.950 . S
H998 C976 0.950 . S
C999 C1000 1.349 . S
C999 C1001 1.327 . S
C999 H1024 0.950 . S
C1000 C999 1.349 . S
C1000 C1016 1.349 . S
C1001 C999 1.327 . S
C1001 C1020 1.429 . S
C1001 H1025 0.950 1_556 S
C1002 C1019 1.574 . S
C1002 C1021 1.368 . S
C1002 H1026 0.949 . S
H1003 C1007 0.995 . S
C1004 C1005 1.349 . S
C1004 C1006 1.327 . S
C1004 H1027 0.950 . S
C1005 C1004 1.349 . S
C1005 C1017 1.349 1_556 S
C1006 C1004 1.327 . S
C1006 C1022 1.429 . S
C1006 H1028 0.950 . S
C1007 H1003 0.995 . S
C1007 C1015 1.567 1_554 S
C1007 C1023 1.327 1_554 S
H1008 C1016 0.950 . S
H1009 C1014 0.950 . S
H1010 C1015 0.949 1_554 S
H1011 C1017 0.950 . S
H1012 C1018 0.950 . S
H1013 C1019 0.949 . S
C1014 H1009 0.950 . S
C1014 C1016 1.327 . S
C1014 C1020 1.429 . S
C1015 C1007 1.567 1_556 S
C1015 H1010 0.949 1_556 S
C1015 C1021 1.368 . S
C1016 C1000 1.349 . S
C1016 H1008 0.950 . S
C1016 C1014 1.327 . S
C1017 C1005 1.349 1_554 S
C1017 H1011 0.950 . S
C1017 C1018 1.327 . S
C1018 H1012 0.950 . S
C1018 C1017 1.327 . S
C1018 C1022 1.429 1_554 S
C1019 C1002 1.574 . S
C1019 H1013 0.949 . S
C1019 C1023 1.368 . S
C1020 C1001 1.429 . S
C1020 C1014 1.429 . S
C1020 C1021 1.523 . S
C1021 C1002 1.368 . S
C1021 C1015 1.368 . S
C1021 C1020 1.523 . S
C1022 C1006 1.429 . S
C1022 C1018 1.429 1_556 S
C1022 C1023 1.523 . S
C1023 C1007 1.327 1_556 S
C1023 C1019 1.368 . S
C1023 C1022 1.523 . S
H1024 C999 0.950 . S
H1025 C1001 0.950 1_554 S
H1026 C1002 0.949 . S
H1027 C1004 0.950 . S
H1028 C1006 0.950 . S
C1029 C1030 1.349 . S
C1029 C1031 1.327 . S
C1029 H1054 0.932 1_556 S
C1030 C1029 1.349 . S
C1030 C1046 1.349 . S
C1031 C1029 1.327 . S
C1031 C1050 1.429 . S
C1031 H1055 0.950 1_556 S
C1032 C1049 1.574 . S
C1032 C1051 1.368 . S
C1032 H1056 0.949 . S
H1033 C1037 0.949 . S
C1034 C1035 1.349 . S
C1034 C1036 1.327 . S
C1034 H1057 0.950 . S
C1035 C1034 1.349 . S
C1035 C1047 1.349 1_556 S
C1036 C1034 1.327 . S
C1036 C1052 1.429 . S
C1036 H1058 0.950 . S
C1037 H1033 0.949 . S
C1037 C1045 1.574 1_554 S
C1037 C1053 1.368 1_554 S
H1038 C1046 0.950 . S
H1039 C1044 0.950 . S
H1040 C1045 0.949 1_554 S
H1041 C1047 0.950 . S
H1042 C1048 0.950 . S
H1043 C1049 0.949 . S
C1044 H1039 0.950 . S
C1044 C1046 1.327 . S
C1044 C1050 1.429 . S
C1045 C1037 1.574 1_556 S
C1045 H1040 0.949 1_556 S
C1045 C1051 1.368 . S
C1046 C1030 1.349 . S
C1046 H1038 0.950 . S
C1046 C1044 1.327 . S
C1047 C1035 1.349 1_554 S
C1047 H1041 0.950 . S
C1047 C1048 1.327 . S
C1048 H1042 0.950 . S
C1048 C1047 1.327 . S
C1048 C1052 1.429 1_554 S
C1049 C1032 1.574 . S
C1049 H1043 0.949 . S
C1049 C1053 1.368 . S
C1050 C1031 1.429 . S
C1050 C1044 1.429 . S
C1050 C1051 1.523 . S
C1051 C1032 1.368 . S
C1051 C1045 1.368 . S
C1051 C1050 1.523 . S
C1052 C1036 1.429 . S
C1052 C1048 1.429 1_556 S
C1052 C1053 1.523 . S
C1053 C1037 1.368 1_556 S
C1053 C1049 1.368 . S
C1053 C1052 1.523 . S
H1054 C1029 0.932 1_554 S
H1055 C1031 0.950 1_554 S
H1056 C1032 0.949 . S
H1057 C1034 0.950 . S
H1058 C1036 0.950 . S
C1059 C1060 1.349 . S
C1059 C1061 1.327 . S
C1059 H1084 0.950 . S
C1060 C1059 1.349 . S
C1060 C1076 1.349 . S
C1061 C1059 1.327 . S
C1061 C1080 1.429 . S
C1061 H1085 0.950 . S
C1062 C1079 1.567 1_556 S
C1062 C1081 1.368 . S
C1062 H1086 0.949 1_556 S
H1063 C1067 0.949 . S
C1064 C1065 1.349 1_554 S
C1064 C1066 1.327 . S
C1064 H1087 0.950 . S
C1065 C1064 1.349 1_556 S
C1065 C1077 1.349 . S
C1066 C1064 1.327 . S
C1066 C1082 1.429 1_554 S
C1066 H1088 0.950 . S
C1067 H1063 0.949 . S
C1067 C1075 1.574 . S
C1067 C1083 1.368 . S
H1068 C1076 0.989 . S
H1069 C1074 0.950 1_554 S
H1070 C1075 0.949 . S
H1071 C1077 0.950 . S
H1072 C1078 0.950 . S
H1073 C1079 1.004 . S
C1074 H1069 0.950 1_556 S
C1074 C1076 1.327 . S
C1074 C1080 1.429 . S
C1075 C1067 1.574 . S
C1075 H1070 0.949 . S
C1075 C1081 1.368 . S
C1076 C1060 1.349 . S
C1076 H1068 0.989 . S
C1076 C1074 1.327 . S
C1077 C1065 1.349 . S
C1077 H1071 0.950 . S
C1077 C1078 1.327 . S
C1078 H1072 0.950 . S
C1078 C1077 1.327 . S
C1078 C1082 1.429 . S
C1079 C1062 1.567 1_554 S
C1079 H1073 1.004 . S
C1079 C1083 1.318 1_554 S
C1080 C1061 1.429 . S
C1080 C1074 1.429 . S
C1080 C1081 1.523 . S
C1081 C1062 1.368 . S
C1081 C1075 1.368 . S
C1081 C1080 1.523 . S
C1082 C1066 1.429 1_556 S
C1082 C1078 1.429 . S
C1082 C1083 1.523 . S
C1083 C1067 1.368 . S
C1083 C1079 1.318 1_556 S
C1083 C1082 1.523 . S
H1084 C1059 0.950 . S
H1085 C1061 0.950 . S
H1086 C1062 0.949 1_554 S
H1087 C1064 0.950 . S
H1088 C1066 0.950 . S
C1089 C1090 1.349 . S
C1089 C1091 1.327 . S
C1089 H1114 0.950 . S
C1090 C1089 1.349 . S
C1090 C1106 1.349 . S
C1091 C1089 1.327 . S
C1091 C1110 1.429 . S
C1091 H1115 0.950 . S
C1092 C1109 1.584 . S
C1092 C1111 1.314 1_554 S
C1092 H1116 0.990 . S
H1093 C1097 0.949 . S
C1094 C1095 1.349 1_554 S
C1094 C1096 1.327 . S
C1094 H1117 0.950 . S
C1095 C1094 1.349 1_556 S
C1095 C1107 1.349 . S
C1096 C1094 1.327 . S
C1096 C1112 1.429 1_554 S
C1096 H1118 0.950 . S
C1097 H1093 0.949 . S
C1097 C1105 1.574 . S
C1097 C1113 1.368 . S
H1098 C1106 0.937 1_554 S
H1099 C1104 0.950 1_554 S
H1100 C1105 0.949 . S
H1101 C1107 0.950 . S
H1102 C1108 0.950 . S
H1103 C1109 0.949 . S
C1104 H1099 0.950 1_556 S
C1104 C1106 1.327 . S
C1104 C1110 1.429 . S
C1105 C1097 1.574 . S
C1105 H1100 0.949 . S
C1105 C1111 1.368 . S
C1106 C1090 1.349 . S
C1106 H1098 0.937 1_556 S
C1106 C1104 1.327 . S
C1107 C1095 1.349 . S
C1107 H1101 0.950 . S
C1107 C1108 1.327 . S
C1108 H1102 0.950 . S
C1108 C1107 1.327 . S
C1108 C1112 1.429 . S
C1109 C1092 1.584 . S
C1109 H1103 0.949 . S
C1109 C1113 1.368 1_554 S
C1110 C1091 1.429 . S
C1110 C1104 1.429 . S
C1110 C1111 1.523 . S
C1111 C1092 1.314 1_556 S
C1111 C1105 1.368 . S
C1111 C1110 1.523 . S
C1112 C1096 1.429 1_556 S
C1112 C1108 1.429 . S
C1112 C1113 1.523 . S
C1113 C1097 1.368 . S
C1113 C1109 1.368 1_556 S
C1113 C1112 1.523 . S
H1114 C1089 0.950 . S
H1115 C1091 0.950 . S
H1116 C1092 0.990 . S
H1117 C1094 0.950 . S
H1118 C1096 0.950 . S
C1119 C1120 1.349 . S
C1119 C1121 1.327 . S
C1119 H1144 0.950 . S
C1120 C1119 1.349 . S
C1120 C1136 1.349 . S
C1121 C1119 1.327 . S
C1121 C1140 1.429 . S
C1121 H1145 0.950 . S
C1122 C1139 1.565 1_556 S
C1122 C1141 1.368 . S
C1122 H1146 0.949 1_556 S
H1123 C1127 0.949 . S
C1124 C1125 1.349 1_554 S
C1124 C1126 1.327 . S
C1124 H1147 0.950 . S
C1125 C1124 1.349 1_556 S
C1125 C1137 1.349 . S
C1126 C1124 1.327 . S
C1126 C1142 1.429 1_554 S
C1126 H1148 0.950 . S
C1127 H1123 0.949 . S
C1127 C1135 1.574 . S
C1127 C1143 1.368 . S
H1128 C1136 0.950 . S
H1129 C1134 0.913 1_554 S
H1130 C1135 0.949 . S
H1131 C1137 0.950 . S
H1132 C1138 0.950 . S
H1133 C1139 1.001 . S
C1134 H1129 0.913 1_556 S
C1134 C1136 1.327 . S
C1134 C1140 1.429 . S
C1135 C1127 1.574 . S
C1135 H1130 0.949 . S
C1135 C1141 1.368 . S
C1136 C1120 1.349 . S
C1136 H1128 0.950 . S
C1136 C1134 1.327 . S
C1137 C1125 1.349 . S
C1137 H1131 0.950 . S
C1137 C1138 1.327 . S
C1138 H1132 0.950 . S
C1138 C1137 1.327 . S
C1138 C1142 1.429 . S
C1139 C1122 1.565 1_554 S
C1139 H1133 1.001 . S
C1139 C1143 1.325 1_554 S
C1140 C1121 1.429 . S
C1140 C1134 1.429 . S
C1140 C1141 1.523 . S
C1141 C1122 1.368 . S
C1141 C1135 1.368 . S
C1141 C1140 1.523 . S
C1142 C1126 1.429 1_556 S
C1142 C1138 1.429 . S
C1142 C1143 1.523 . S
C1143 C1127 1.368 . S
C1143 C1139 1.325 1_556 S
C1143 C1142 1.523 . S
H1144 C1119 0.950 . S
H1145 C1121 0.950 . S
H1146 C1122 0.949 1_554 S
H1147 C1124 0.950 . S
H1148 C1126 0.950 . S
C1149 C1150 1.349 . S
C1149 C1151 1.327 . S
C1149 H1174 0.950 1_556 S
C1150 C1149 1.349 . S
C1150 C1166 1.349 . S
C1151 C1149 1.327 . S
C1151 C1170 1.429 . S
C1151 H1175 0.950 1_556 S
C1152 C1169 1.574 . S
C1152 C1171 1.368 . S
C1152 H1176 0.949 . S
H1153 C1157 0.949 . S
C1154 C1155 1.349 . S
C1154 C1156 1.327 . S
C1154 H1177 0.950 . S
C1155 C1154 1.349 . S
C1155 C1167 1.349 1_556 S
C1156 C1154 1.327 . S
C1156 C1172 1.429 . S
C1156 H1178 0.950 . S
C1157 H1153 0.949 . S
C1157 C1165 1.574 . S
C1157 C1173 1.368 1_554 S
H1158 C1166 0.950 . S
H1159 C1164 0.950 . S
H1160 C1165 0.949 . S
H1161 C1167 0.950 . S
H1162 C1168 0.950 . S
H1163 C1169 0.949 . S
C1164 H1159 0.950 . S
C1164 C1166 1.327 . S
C1164 C1170 1.429 . S
C1165 C1157 1.574 . S
C1165 H1160 0.949 . S
C1165 C1171 1.368 1_554 S
C1166 C1150 1.349 . S
C1166 H1158 0.950 . S
C1166 C1164 1.327 . S
C1167 C1155 1.349 1_554 S
C1167 H1161 0.950 . S
C1167 C1168 1.327 . S
C1168 H1162 0.950 . S
C1168 C1167 1.327 . S
C1168 C1172 1.429 1_554 S
C1169 C1152 1.574 . S
C1169 H1163 0.949 . S
C1169 C1173 1.368 . S
C1170 C1151 1.429 . S
C1170 C1164 1.429 . S
C1170 C1171 1.523 . S
C1171 C1152 1.368 . S
C1171 C1165 1.368 1_556 S
C1171 C1170 1.523 . S
C1172 C1156 1.429 . S
C1172 C1168 1.429 1_556 S
C1172 C1173 1.523 . S
C1173 C1157 1.368 1_556 S
C1173 C1169 1.368 . S
C1173 C1172 1.523 . S
H1174 C1149 0.950 1_554 S
H1175 C1151 0.950 1_554 S
H1176 C1152 0.949 . S
H1177 C1154 0.950 . S
H1178 C1156 0.950 . S
C1179 C1180 1.349 . S
C1179 C1181 1.327 . S
C1179 H1204 0.950 . S
C1180 C1179 1.349 . S
C1180 C1196 1.349 . S
C1181 C1179 1.327 . S
C1181 C1200 1.429 . S
C1181 H1205 0.950 . S
C1182 C1199 1.574 . S
C1182 C1201 1.368 . S
C1182 H1206 0.949 . S
H1183 C1187 0.949 . S
C1184 C1185 1.351 1_556 S
C1184 C1186 1.328 1_556 S
C1184 H1207 0.947 . S
C1185 C1184 1.351 1_554 S
C1185 C1197 1.349 . S
C1186 C1184 1.328 1_554 S
C1186 C1202 1.429 . S
C1186 H1208 0.950 1_554 S
C1187 H1183 0.949 . S
C1187 C1195 1.574 . S
C1187 C1203 1.368 . S
H1188 C1196 0.950 . S
H1189 C1194 0.950 . S
H1190 C1195 0.949 . S
H1191 C1197 0.950 . S
H1192 C1198 0.950 . S
H1193 C1199 0.949 1_556 S
C1194 H1189 0.950 . S
C1194 C1196 1.327 . S
C1194 C1200 1.429 . S
C1195 C1187 1.574 . S
C1195 H1190 0.949 . S
C1195 C1201 1.368 . S
C1196 C1180 1.349 . S
C1196 H1188 0.950 . S
C1196 C1194 1.327 . S
C1197 C1185 1.349 . S
C1197 H1191 0.950 . S
C1197 C1198 1.327 . S
C1198 H1192 0.950 . S
C1198 C1197 1.327 . S
C1198 C1202 1.429 . S
C1199 C1182 1.574 . S
C1199 H1193 0.949 1_554 S
C1199 C1203 1.368 . S
C1200 C1181 1.429 . S
C1200 C1194 1.429 . S
C1200 C1201 1.523 . S
C1201 C1182 1.368 . S
C1201 C1195 1.368 . S
C1201 C1200 1.523 . S
C1202 C1186 1.429 . S
C1202 C1198 1.429 . S
C1202 C1203 1.523 . S
C1203 C1187 1.368 . S
C1203 C1199 1.368 . S
C1203 C1202 1.523 . S
H1204 C1179 0.950 . S
H1205 C1181 0.950 . S
H1206 C1182 0.949 . S
H1207 C1184 0.947 . S
H1208 C1186 0.950 1_556 S
C1209 C1210 1.349 . S
C1209 C1211 1.327 . S
C1209 H1234 0.950 . S
C1210 C1209 1.349 . S
C1210 C1226 1.349 . S
C1211 C1209 1.327 . S
C1211 C1230 1.429 . S
C1211 H1235 0.950 . S
C1212 C1229 1.574 . S
C1212 C1231 1.368 . S
C1212 H1236 0.944 1_554 S
H1213 C1217 0.949 . S
C1214 C1215 1.349 1_556 S
C1214 C1216 1.330 . S
C1214 H1237 0.950 . S
C1215 C1214 1.349 1_554 S
C1215 C1227 1.349 . S
C1216 C1214 1.330 . S
C1216 C1232 1.412 1_556 S
C1216 H1238 0.964 . S
C1217 H1213 0.949 . S
C1217 C1225 1.574 . S
C1217 C1233 1.368 . S
H1218 C1226 0.950 . S
H1219 C1224 0.950 . S
H1220 C1225 0.949 . S
H1221 C1227 0.950 . S
H1222 C1228 0.950 . S
H1223 C1229 0.949 1_556 S
C1224 H1219 0.950 . S
C1224 C1226 1.327 . S
C1224 C1230 1.429 . S
C1225 C1217 1.574 . S
C1225 H1220 0.949 . S
C1225 C1231 1.368 . S
C1226 C1210 1.349 . S
C1226 H1218 0.950 . S
C1226 C1224 1.327 . S
C1227 C1215 1.349 . S
C1227 H1221 0.950 . S
C1227 C1228 1.327 . S
C1228 H1222 0.950 . S
C1228 C1227 1.327 . S
C1228 C1232 1.429 . S
C1229 C1212 1.574 . S
C1229 H1223 0.949 1_554 S
C1229 C1233 1.368 . S
C1230 C1211 1.429 . S
C1230 C1224 1.429 . S
C1230 C1231 1.523 . S
C1231 C1212 1.368 . S
C1231 C1225 1.368 . S
C1231 C1230 1.523 . S
C1232 C1216 1.412 1_554 S
C1232 C1228 1.429 . S
C1232 C1233 1.523 . S
C1233 C1217 1.368 . S
C1233 C1229 1.368 . S
C1233 C1232 1.523 . S
H1234 C1209 0.950 . S
H1235 C1211 0.950 . S
H1236 C1212 0.944 1_556 S
H1237 C1214 0.950 . S
H1238 C1216 0.964 . S
C1239 C1240 1.349 . S
C1239 C1241 1.327 . S
C1239 H1264 0.950 . S
C1240 C1239 1.349 . S
C1240 C1256 1.349 . S
C1241 C1239 1.327 . S
C1241 C1260 1.429 . S
C1241 H1265 0.950 . S
C1242 C1259 1.574 . S
C1242 C1261 1.368 . S
C1242 H1266 0.949 . S
H1243 C1247 0.949 1_556 S
C1244 C1245 1.349 . S
C1244 C1246 1.327 . S
C1244 H1267 0.950 . S
C1245 C1244 1.349 . S
C1245 C1257 1.349 1_554 S
C1246 C1244 1.327 . S
C1246 C1262 1.429 . S
C1246 H1268 0.950 . S
C1247 H1243 0.949 1_554 S
C1247 C1255 1.574 . S
C1247 C1263 1.368 . S
H1248 C1256 0.950 . S
H1249 C1254 0.950 . S
H1250 C1255 0.949 . S
H1251 C1257 0.950 . S
H1252 C1258 0.905 1_556 S
H1253 C1259 0.949 . S
C1254 H1249 0.950 . S
C1254 C1256 1.327 . S
C1254 C1260 1.429 . S
C1255 C1247 1.574 . S
C1255 H1250 0.949 . S
C1255 C1261 1.368 . S
C1256 C1240 1.349 . S
C1256 H1248 0.950 . S
C1256 C1254 1.327 . S
C1257 C1245 1.349 1_556 S
C1257 H1251 0.950 . S
C1257 C1258 1.320 1_556 S
C1258 H1252 0.905 1_554 S
C1258 C1257 1.320 1_554 S
C1258 C1262 1.483 . S
C1259 C1242 1.574 . S
C1259 H1253 0.949 . S
C1259 C1263 1.368 . S
C1260 C1241 1.429 . S
C1260 C1254 1.429 . S
C1260 C1261 1.523 . S
C1261 C1242 1.368 . S
C1261 C1255 1.368 . S
C1261 C1260 1.523 . S
C1262 C1246 1.429 . S
C1262 C1258 1.483 . S
C1262 C1263 1.523 . S
C1263 C1247 1.368 . S
C1263 C1259 1.368 . S
C1263 C1262 1.523 . S
H1264 C1239 0.950 . S
H1265 C1241 0.950 . S
H1266 C1242 0.949 . S
H1267 C1244 0.950 . S
H1268 C1246 0.950 . S
C1269 C1270 1.349 . S
C1269 C1271 1.376 . S
C1269 H1294 0.950 . S
C1270 C1269 1.349 . S
C1270 C1286 1.349 . S
C1271 C1269 1.376 . S
C1271 C1290 1.423 1_655 S
C1271 H1295 0.908 1_655 S
C1272 C1289 1.574 . S
C1272 C1291 1.368 . S
C1272 H1296 0.949 . S
H1273 C1277 0.949 . S
C1274 C1275 1.349 . S
C1274 C1276 1.327 . S
C1274 H1297 0.950 . S
C1275 C1274 1.349 . S
C1275 C1287 1.349 . S
C1276 C1274 1.327 . S
C1276 C1292 1.429 . S
C1276 H1298 0.950 . S
C1277 H1273 0.949 . S
C1277 C1285 1.574 . S
C1277 C1293 1.368 . S
H1278 C1286 0.950 . S
H1279 C1284 0.950 . S
H1280 C1285 0.949 . S
H1281 C1287 0.950 . S
H1282 C1288 0.950 . S
H1283 C1289 0.949 . S
C1284 H1279 0.950 . S
C1284 C1286 1.327 . S
C1284 C1290 1.429 1_655 S
C1285 C1277 1.574 . S
C1285 H1280 0.949 . S
C1285 C1291 1.368 . S
C1286 C1270 1.349 . S
C1286 H1278 0.950 . S
C1286 C1284 1.327 . S
C1287 C1275 1.349 . S
C1287 H1281 0.950 . S
C1287 C1288 1.327 . S
C1288 H1282 0.950 . S
C1288 C1287 1.327 . S
C1288 C1292 1.429 . S
C1289 C1272 1.574 . S
C1289 H1283 0.949 . S
C1289 C1293 1.368 . S
C1290 C1271 1.423 1_455 S
C1290 C1284 1.429 1_455 S
C1290 C1291 1.523 . S
C1291 C1272 1.368 . S
C1291 C1285 1.368 . S
C1291 C1290 1.523 . S
C1292 C1276 1.429 . S
C1292 C1288 1.429 . S
C1292 C1293 1.523 . S
C1293 C1277 1.368 . S
C1293 C1289 1.368 . S
C1293 C1292 1.523 . S
H1294 C1269 0.950 . S
H1295 C1271 0.908 1_455 S
H1296 C1272 0.949 . S
H1297 C1274 0.950 . S
H1298 C1276 0.950 . S
C1299 C1300 1.349 . S
C1299 C1301 1.327 . S
C1299 H1324 0.950 . S
C1300 C1299 1.349 . S
C1300 C1316 1.349 . S
C1301 C1299 1.327 . S
C1301 C1320 1.429 . S
C1301 H1325 0.950 . S
C1302 C1319 1.574 . S
C1302 C1321 1.368 . S
C1302 H1326 0.949 . S
H1303 C1307 0.949 . S
C1304 C1305 1.349 . S
C1304 C1306 1.327 . S
C1304 H1327 0.950 . S
C1305 C1304 1.349 . S
C1305 C1317 1.349 . S
C1306 C1304 1.327 . S
C1306 C1322 1.429 . S
C1306 H1328 0.950 . S
C1307 H1303 0.949 . S
C1307 C1315 1.574 . S
C1307 C1323 1.368 . S
H1308 C1316 0.950 . S
H1309 C1314 0.950 . S
H1310 C1315 0.949 . S
H1311 C1317 0.950 . S
H1312 C1318 0.950 . S
H1313 C1319 0.949 . S
C1314 H1309 0.950 . S
C1314 C1316 1.327 . S
C1314 C1320 1.429 . S
C1315 C1307 1.574 . S
C1315 H1310 0.949 . S
C1315 C1321 1.368 . S
C1316 C1300 1.349 . S
C1316 H1308 0.950 . S
C1316 C1314 1.327 . S
C1317 C1305 1.349 . S
C1317 H1311 0.950 . S
C1317 C1318 1.327 . S
C1318 H1312 0.950 . S
C1318 C1317 1.327 . S
C1318 C1322 1.429 . S
C1319 C1302 1.574 . S
C1319 H1313 0.949 . S
C1319 C1323 1.368 . S
C1320 C1301 1.429 . S
C1320 C1314 1.429 . S
C1320 C1321 1.523 . S
C1321 C1302 1.368 . S
C1321 C1315 1.368 . S
C1321 C1320 1.523 . S
C1322 C1306 1.429 . S
C1322 C1318 1.429 . S
C1322 C1323 1.523 . S
C1323 C1307 1.368 . S
C1323 C1319 1.368 . S
C1323 C1322 1.523 . S
H1324 C1299 0.950 . S
H1325 C1301 0.950 . S
H1326 C1302 0.949 . S
H1327 C1304 0.950 . S
H1328 C1306 0.950 . S
C1329 C1330 1.349 . S
C1329 C1331 1.327 . S
C1329 H1354 0.950 . S
C1330 C1329 1.349 . S
C1330 C1346 1.349 . S
C1331 C1329 1.327 . S
C1331 C1350 1.429 1_545 S
C1331 H1355 0.950 . S
C1332 C1349 1.574 . S
C1332 C1351 1.368 . S
C1332 H1356 0.949 . S
H1333 C1337 0.949 . S
C1334 C1335 1.349 . S
C1334 C1336 1.327 . S
C1334 H1357 0.950 . S
C1335 C1334 1.349 . S
C1335 C1347 1.349 . S
C1336 C1334 1.327 . S
C1336 C1352 1.429 . S
C1336 H1358 0.950 . S
C1337 H1333 0.949 . S
C1337 C1345 1.574 . S
C1337 C1353 1.368 . S
H1338 C1346 0.950 . S
H1339 C1344 0.950 1_565 S
H1340 C1345 0.949 . S
H1341 C1347 0.950 . S
H1342 C1348 0.950 . S
H1343 C1349 0.949 . S
C1344 H1339 0.950 1_545 S
C1344 C1346 1.327 . S
C1344 C1350 1.429 1_545 S
C1345 C1337 1.574 . S
C1345 H1340 0.949 . S
C1345 C1351 1.368 . S
C1346 C1330 1.349 . S
C1346 H1338 0.950 . S
C1346 C1344 1.327 . S
C1347 C1335 1.349 . S
C1347 H1341 0.950 . S
C1347 C1348 1.327 . S
C1348 H1342 0.950 . S
C1348 C1347 1.327 . S
C1348 C1352 1.429 . S
C1349 C1332 1.574 . S
C1349 H1343 0.949 . S
C1349 C1353 1.368 . S
C1350 C1331 1.429 1_565 S
C1350 C1344 1.429 1_565 S
C1350 C1351 1.523 . S
C1351 C1332 1.368 . S
C1351 C1345 1.368 . S
C1351 C1350 1.523 . S
C1352 C1336 1.429 . S
C1352 C1348 1.429 . S
C1352 C1353 1.523 . S
C1353 C1337 1.368 . S
C1353 C1349 1.368 . S
C1353 C1352 1.523 . S
H1354 C1329 0.950 . S
H1355 C1331 0.950 . S
H1356 C1332 0.949 . S
H1357 C1334 0.950 . S
H1358 C1336 0.950 . S
C1359 C1360 1.349 . S
C1359 C1361 1.327 . S
C1359 H1384 0.950 . S
C1360 C1359 1.349 . S
C1360 C1376 1.349 . S
C1361 C1359 1.327 . S
C1361 C1380 1.429 . S
C1361 H1385 0.950 . S
C1362 C1379 1.574 . S
C1362 C1381 1.368 . S
C1362 H1386 0.949 . S
H1363 C1367 0.949 . S
C1364 C1365 1.349 . S
C1364 C1366 1.327 . S
C1364 H1387 0.950 . S
C1365 C1364 1.349 . S
C1365 C1377 1.349 . S
C1366 C1364 1.327 . S
C1366 C1382 1.429 . S
C1366 H1388 0.950 . S
C1367 H1363 0.949 . S
C1367 C1375 1.574 . S
C1367 C1383 1.368 . S
H1368 C1376 0.950 . S
H1369 C1374 0.950 . S
H1370 C1375 0.949 . S
H1371 C1377 0.950 . S
H1372 C1378 0.950 . S
H1373 C1379 0.949 . S
C1374 H1369 0.950 . S
C1374 C1376 1.327 . S
C1374 C1380 1.429 . S
C1375 C1367 1.574 . S
C1375 H1370 0.949 . S
C1375 C1381 1.368 . S
C1376 C1360 1.349 . S
C1376 H1368 0.950 . S
C1376 C1374 1.327 . S
C1377 C1365 1.349 . S
C1377 H1371 0.950 . S
C1377 C1378 1.327 . S
C1378 H1372 0.950 . S
C1378 C1377 1.327 . S
C1378 C1382 1.429 . S
C1379 C1362 1.574 . S
C1379 H1373 0.949 . S
C1379 C1383 1.368 . S
C1380 C1361 1.429 . S
C1380 C1374 1.429 . S
C1380 C1381 1.523 . S
C1381 C1362 1.368 . S
C1381 C1375 1.368 . S
C1381 C1380 1.523 . S
C1382 C1366 1.429 . S
C1382 C1378 1.429 . S
C1382 C1383 1.523 . S
C1383 C1367 1.368 . S
C1383 C1379 1.368 . S
C1383 C1382 1.523 . S
H1384 C1359 0.950 . S
H1385 C1361 0.950 . S
H1386 C1362 0.949 . S
H1387 C1364 0.950 . S
H1388 C1366 0.950 . S
C1389 C1390 1.349 . S
C1389 C1391 1.327 . S
C1389 H1414 0.950 . S
C1390 C1389 1.349 . S
C1390 C1406 1.349 . S
C1391 C1389 1.327 . S
C1391 C1410 1.429 . S
C1391 H1415 0.950 . S
C1392 C1409 1.574 . S
C1392 C1411 1.368 . S
C1392 H1416 0.949 . S
H1393 C1397 0.949 . S
C1394 C1395 1.349 . S
C1394 C1396 1.327 . S
C1394 H1417 0.950 . S
C1395 C1394 1.349 . S
C1395 C1407 1.349 . S
C1396 C1394 1.327 . S
C1396 C1412 1.429 . S
C1396 H1418 0.950 . S
C1397 H1393 0.949 . S
C1397 C1405 1.574 . S
C1397 C1413 1.368 . S
H1398 C1406 0.950 . S
H1399 C1404 0.950 . S
H1400 C1405 0.949 . S
H1401 C1407 0.950 . S
H1402 C1408 0.950 . S
H1403 C1409 0.949 . S
C1404 H1399 0.950 . S
C1404 C1406 1.327 . S
C1404 C1410 1.429 . S
C1405 C1397 1.574 . S
C1405 H1400 0.949 . S
C1405 C1411 1.368 . S
C1406 C1390 1.349 . S
C1406 H1398 0.950 . S
C1406 C1404 1.327 . S
C1407 C1395 1.349 . S
C1407 H1401 0.950 . S
C1407 C1408 1.327 . S
C1408 H1402 0.950 . S
C1408 C1407 1.327 . S
C1408 C1412 1.429 . S
C1409 C1392 1.574 . S
C1409 H1403 0.949 . S
C1409 C1413 1.368 . S
C1410 C1391 1.429 . S
C1410 C1404 1.429 . S
C1410 C1411 1.523 . S
C1411 C1392 1.368 . S
C1411 C1405 1.368 . S
C1411 C1410 1.523 . S
C1412 C1396 1.429 . S
C1412 C1408 1.429 . S
C1412 C1413 1.523 . S
C1413 C1397 1.368 . S
C1413 C1409 1.368 . S
C1413 C1412 1.523 . S
H1414 C1389 0.950 . S
H1415 C1391 0.950 . S
H1416 C1392 0.949 . S
H1417 C1394 0.950 . S
H1418 C1396 0.950 . S
C1419 C1420 1.349 . S
C1419 C1421 1.327 . S
C1419 H1444 0.950 . S
C1420 C1419 1.349 . S
C1420 C1436 1.349 . S
C1421 C1419 1.327 . S
C1421 C1440 1.429 . S
C1421 H1445 0.950 . S
C1422 C1439 1.574 . S
C1422 C1441 1.368 . S
C1422 H1446 0.949 . S
H1423 C1427 0.949 . S
C1424 C1425 1.349 . S
C1424 C1426 1.327 . S
C1424 H1447 0.950 . S
C1425 C1424 1.349 . S
C1425 C1437 1.349 . S
C1426 C1424 1.327 . S
C1426 C1442 1.429 . S
C1426 H1448 0.950 . S
C1427 H1423 0.949 . S
C1427 C1435 1.574 . S
C1427 C1443 1.368 . S
H1428 C1436 0.950 . S
H1429 C1434 0.950 . S
H1430 C1435 0.949 . S
H1431 C1437 0.950 . S
H1432 C1438 0.950 . S
H1433 C1439 0.949 . S
C1434 H1429 0.950 . S
C1434 C1436 1.327 . S
C1434 C1440 1.429 . S
C1435 C1427 1.574 . S
C1435 H1430 0.949 . S
C1435 C1441 1.368 . S
C1436 C1420 1.349 . S
C1436 H1428 0.950 . S
C1436 C1434 1.327 . S
C1437 C1425 1.349 . S
C1437 H1431 0.950 . S
C1437 C1438 1.327 . S
C1438 H1432 0.950 . S
C1438 C1437 1.327 . S
C1438 C1442 1.429 . S
C1439 C1422 1.574 . S
C1439 H1433 0.949 . S
C1439 C1443 1.368 . S
C1440 C1421 1.429 . S
C1440 C1434 1.429 . S
C1440 C1441 1.523 . S
C1441 C1422 1.368 . S
C1441 C1435 1.368 . S
C1441 C1440 1.523 . S
C1442 C1426 1.429 . S
C1442 C1438 1.429 . S
C1442 C1443 1.523 . S
C1443 C1427 1.368 . S
C1443 C1439 1.368 . S
C1443 C1442 1.523 . S
H1444 C1419 0.950 . S
H1445 C1421 0.950 . S
H1446 C1422 0.949 . S
H1447 C1424 0.950 . S
H1448 C1426 0.950 . S
C1449 C1450 1.349 . S
C1449 C1451 1.327 . S
C1449 H1474 0.950 . S
C1450 C1449 1.349 . S
C1450 C1466 1.349 . S
C1451 C1449 1.327 . S
C1451 C1470 1.429 . S
C1451 H1475 0.950 . S
C1452 C1469 1.574 . S
C1452 C1471 1.368 . S
C1452 H1476 0.949 . S
H1453 C1457 0.949 . S
C1454 C1455 1.349 . S
C1454 C1456 1.327 . S
C1454 H1477 0.950 . S
C1455 C1454 1.349 . S
C1455 C1467 1.349 . S
C1456 C1454 1.327 . S
C1456 C1472 1.429 . S
C1456 H1478 0.950 . S
C1457 H1453 0.949 . S
C1457 C1465 1.574 . S
C1457 C1473 1.368 . S
H1458 C1466 0.950 . S
H1459 C1464 0.950 . S
H1460 C1465 0.949 . S
H1461 C1467 0.950 . S
H1462 C1468 0.950 . S
H1463 C1469 0.949 . S
C1464 H1459 0.950 . S
C1464 C1466 1.327 . S
C1464 C1470 1.429 . S
C1465 C1457 1.574 . S
C1465 H1460 0.949 . S
C1465 C1471 1.368 . S
C1466 C1450 1.349 . S
C1466 H1458 0.950 . S
C1466 C1464 1.327 . S
C1467 C1455 1.349 . S
C1467 H1461 0.950 . S
C1467 C1468 1.327 . S
C1468 H1462 0.950 . S
C1468 C1467 1.327 . S
C1468 C1472 1.429 . S
C1469 C1452 1.574 . S
C1469 H1463 0.949 . S
C1469 C1473 1.368 . S
C1470 C1451 1.429 . S
C1470 C1464 1.429 . S
C1470 C1471 1.523 . S
C1471 C1452 1.368 . S
C1471 C1465 1.368 . S
C1471 C1470 1.523 . S
C1472 C1456 1.429 . S
C1472 C1468 1.429 . S
C1472 C1473 1.523 . S
C1473 C1457 1.368 . S
C1473 C1469 1.368 . S
C1473 C1472 1.523 . S
H1474 C1449 0.950 . S
H1475 C1451 0.950 . S
H1476 C1452 0.949 . S
H1477 C1454 0.950 . S
H1478 C1456 0.950 . S
C1479 C1480 1.349 . S
C1479 C1481 1.327 . S
C1479 H1504 0.950 . S
C1480 C1479 1.349 . S
C1480 C1496 1.349 . S
C1481 C1479 1.327 . S
C1481 C1500 1.429 . S
C1481 H1505 0.950 . S
C1482 C1499 1.574 . S
C1482 C1501 1.368 . S
C1482 H1506 0.949 . S
H1483 C1487 0.949 . S
C1484 C1485 1.349 . S
C1484 C1486 1.327 . S
C1484 H1507 0.950 . S
C1485 C1484 1.349 . S
C1485 C1497 1.349 . S
C1486 C1484 1.327 . S
C1486 C1502 1.429 . S
C1486 H1508 0.950 . S
C1487 H1483 0.949 . S
C1487 C1495 1.574 . S
C1487 C1503 1.368 . S
H1488 C1496 0.950 . S
H1489 C1494 0.950 . S
H1490 C1495 0.949 . S
H1491 C1497 0.950 . S
H1492 C1498 0.950 . S
H1493 C1499 0.949 . S
C1494 H1489 0.950 . S
C1494 C1496 1.327 . S
C1494 C1500 1.429 . S
C1495 C1487 1.574 . S
C1495 H1490 0.949 . S
C1495 C1501 1.368 . S
C1496 C1480 1.349 . S
C1496 H1488 0.950 . S
C1496 C1494 1.327 . S
C1497 C1485 1.349 . S
C1497 H1491 0.950 . S
C1497 C1498 1.327 . S
C1498 H1492 0.950 . S
C1498 C1497 1.327 . S
C1498 C1502 1.429 . S
C1499 C1482 1.574 . S
C1499 H1493 0.949 . S
C1499 C1503 1.368 . S
C1500 C1481 1.429 . S
C1500 C1494 1.429 . S
C1500 C1501 1.523 . S
C1501 C1482 1.368 . S
C1501 C1495 1.368 . S
C1501 C1500 1.523 . S
C1502 C1486 1.429 . S
C1502 C1498 1.429 . S
C1502 C1503 1.523 . S
C1503 C1487 1.368 . S
C1503 C1499 1.368 . S
C1503 C1502 1.523 . S
H1504 C1479 0.950 . S
H1505 C1481 0.950 . S
H1506 C1482 0.949 . S
H1507 C1484 0.950 . S
H1508 C1486 0.950 . S
C1509 C1510 1.349 . S
C1509 C1511 1.327 . S
C1509 H1534 0.950 . S
C1510 C1509 1.349 . S
C1510 C1526 1.349 . S
C1511 C1509 1.327 . S
C1511 C1530 1.429 . S
C1511 H1535 0.950 . S
C1512 C1529 1.574 . S
C1512 C1531 1.368 . S
C1512 H1536 0.949 . S
H1513 C1517 0.949 . S
C1514 C1515 1.349 . S
C1514 C1516 1.327 . S
C1514 H1537 0.950 . S
C1515 C1514 1.349 . S
C1515 C1527 1.349 . S
C1516 C1514 1.327 . S
C1516 C1532 1.429 . S
C1516 H1538 0.950 . S
C1517 H1513 0.949 . S
C1517 C1525 1.574 . S
C1517 C1533 1.368 . S
H1518 C1526 0.950 . S
H1519 C1524 0.950 . S
H1520 C1525 0.949 . S
H1521 C1527 0.950 . S
H1522 C1528 0.950 . S
H1523 C1529 0.949 . S
C1524 H1519 0.950 . S
C1524 C1526 1.327 . S
C1524 C1530 1.429 . S
C1525 C1517 1.574 . S
C1525 H1520 0.949 . S
C1525 C1531 1.368 . S
C1526 C1510 1.349 . S
C1526 H1518 0.950 . S
C1526 C1524 1.327 . S
C1527 C1515 1.349 . S
C1527 H1521 0.950 . S
C1527 C1528 1.327 . S
C1528 H1522 0.950 . S
C1528 C1527 1.327 . S
C1528 C1532 1.429 . S
C1529 C1512 1.574 . S
C1529 H1523 0.949 . S
C1529 C1533 1.368 . S
C1530 C1511 1.429 . S
C1530 C1524 1.429 . S
C1530 C1531 1.523 . S
C1531 C1512 1.368 . S
C1531 C1525 1.368 . S
C1531 C1530 1.523 . S
C1532 C1516 1.429 . S
C1532 C1528 1.429 . S
C1532 C1533 1.523 . S
C1533 C1517 1.368 . S
C1533 C1529 1.368 . S
C1533 C1532 1.523 . S
H1534 C1509 0.950 . S
H1535 C1511 0.950 . S
H1536 C1512 0.949 . S
H1537 C1514 0.950 . S
H1538 C1516 0.950 . S
C1539 C1540 1.349 . S
C1539 C1541 1.327 . S
C1539 H1564 0.950 . S
C1540 C1539 1.349 . S
C1540 C1556 1.349 . S
C1541 C1539 1.327 . S
C1541 C1560 1.429 1_545 S
C1541 H1565 0.950 . S
C1542 C1559 1.574 . S
C1542 C1561 1.368 . S
C1542 H1566 0.949 . S
H1543 C1547 0.949 . S
C1544 C1545 1.349 . S
C1544 C1546 1.327 . S
C1544 H1567 0.950 . S
C1545 C1544 1.349 . S
C1545 C1557 1.349 . S
C1546 C1544 1.327 . S
C1546 C1562 1.429 . S
C1546 H1568 0.950 . S
C1547 H1543 0.949 . S
C1547 C1555 1.574 . S
C1547 C1563 1.368 . S
H1548 C1556 0.950 . S
H1549 C1554 0.947 1_565 S
H1550 C1555 0.949 . S
H1551 C1557 0.950 . S
H1552 C1558 0.950 . S
H1553 C1559 0.949 . S
C1554 H1549 0.947 1_545 S
C1554 C1556 1.327 . S
C1554 C1560 1.429 1_545 S
C1555 C1547 1.574 . S
C1555 H1550 0.949 . S
C1555 C1561 1.368 . S
C1556 C1540 1.349 . S
C1556 H1548 0.950 . S
C1556 C1554 1.327 . S
C1557 C1545 1.349 . S
C1557 H1551 0.950 . S
C1557 C1558 1.327 . S
C1558 H1552 0.950 . S
C1558 C1557 1.327 . S
C1558 C1562 1.429 . S
C1559 C1542 1.574 . S
C1559 H1553 0.949 . S
C1559 C1563 1.368 . S
C1560 C1541 1.429 1_565 S
C1560 C1554 1.429 1_565 S
C1560 C1561 1.523 . S
C1561 C1542 1.368 . S
C1561 C1555 1.368 . S
C1561 C1560 1.523 . S
C1562 C1546 1.429 . S
C1562 C1558 1.429 . S
C1562 C1563 1.523 . S
C1563 C1547 1.368 . S
C1563 C1559 1.368 . S
C1563 C1562 1.523 . S
H1564 C1539 0.950 . S
H1565 C1541 0.950 . S
H1566 C1542 0.949 . S
H1567 C1544 0.950 . S
H1568 C1546 0.950 . S
C1569 C1570 1.349 . S
C1569 C1571 1.327 . S
C1569 H1594 0.950 . S
C1570 C1569 1.349 . S
C1570 C1586 1.349 . S
C1571 C1569 1.327 . S
C1571 C1590 1.429 1_655 S
C1571 H1595 0.950 1_655 S
C1572 C1589 1.574 . S
C1572 C1591 1.368 . S
C1572 H1596 0.949 . S
H1573 C1577 0.949 . S
C1574 C1575 1.349 . S
C1574 C1576 1.327 . S
C1574 H1597 0.950 . S
C1575 C1574 1.349 . S
C1575 C1587 1.349 . S
C1576 C1574 1.327 . S
C1576 C1592 1.429 . S
C1576 H1598 0.950 . S
C1577 H1573 0.949 . S
C1577 C1585 1.574 . S
C1577 C1593 1.368 . S
H1578 C1586 0.950 . S
H1579 C1584 0.950 . S
H1580 C1585 0.949 . S
H1581 C1587 0.950 . S
H1582 C1588 0.950 . S
H1583 C1589 0.949 . S
C1584 H1579 0.950 . S
C1584 C1586 1.327 . S
C1584 C1590 1.429 1_655 S
C1585 C1577 1.574 . S
C1585 H1580 0.949 . S
C1585 C1591 1.368 . S
C1586 C1570 1.349 . S
C1586 H1578 0.950 . S
C1586 C1584 1.327 . S
C1587 C1575 1.349 . S
C1587 H1581 0.950 . S
C1587 C1588 1.327 . S
C1588 H1582 0.950 . S
C1588 C1587 1.327 . S
C1588 C1592 1.429 . S
C1589 C1572 1.574 . S
C1589 H1583 0.949 . S
C1589 C1593 1.368 . S
C1590 C1571 1.429 1_455 S
C1590 C1584 1.429 1_455 S
C1590 C1591 1.523 . S
C1591 C1572 1.368 . S
C1591 C1585 1.368 . S
C1591 C1590 1.523 . S
C1592 C1576 1.429 . S
C1592 C1588 1.429 . S
C1592 C1593 1.523 . S
C1593 C1577 1.368 . S
C1593 C1589 1.368 . S
C1593 C1592 1.523 . S
H1594 C1569 0.950 . S
H1595 C1571 0.950 1_455 S
H1596 C1572 0.949 . S
H1597 C1574 0.950 . S
H1598 C1576 0.950 . S
C1599 C1600 1.349 . S
C1599 C1601 1.327 . S
C1599 H1624 0.950 . S
C1600 C1599 1.349 . S
C1600 C1616 1.349 . S
C1601 C1599 1.327 . S
C1601 C1620 1.429 . S
C1601 H1625 0.950 . S
C1602 C1619 1.574 . S
C1602 C1621 1.368 . S
C1602 H1626 0.949 . S
H1603 C1607 0.949 . S
C1604 C1605 1.349 . S
C1604 C1606 1.327 . S
C1604 H1627 0.950 . S
C1605 C1604 1.349 . S
C1605 C1617 1.349 . S
C1606 C1604 1.327 . S
C1606 C1622 1.429 . S
C1606 H1628 0.950 . S
C1607 H1603 0.949 . S
C1607 C1615 1.574 . S
C1607 C1623 1.368 . S
H1608 C1616 0.950 . S
H1609 C1614 0.950 . S
H1610 C1615 0.949 . S
H1611 C1617 0.950 . S
H1612 C1618 0.950 . S
H1613 C1619 0.949 . S
C1614 H1609 0.950 . S
C1614 C1616 1.327 . S
C1614 C1620 1.429 . S
C1615 C1607 1.574 . S
C1615 H1610 0.949 . S
C1615 C1621 1.368 . S
C1616 C1600 1.349 . S
C1616 H1608 0.950 . S
C1616 C1614 1.327 . S
C1617 C1605 1.349 . S
C1617 H1611 0.950 . S
C1617 C1618 1.327 . S
C1618 H1612 0.950 . S
C1618 C1617 1.327 . S
C1618 C1622 1.429 . S
C1619 C1602 1.574 . S
C1619 H1613 0.949 . S
C1619 C1623 1.368 . S
C1620 C1601 1.429 . S
C1620 C1614 1.429 . S
C1620 C1621 1.523 . S
C1621 C1602 1.368 . S
C1621 C1615 1.368 . S
C1621 C1620 1.523 . S
C1622 C1606 1.429 . S
C1622 C1618 1.429 . S
C1622 C1623 1.523 . S
C1623 C1607 1.368 . S
C1623 C1619 1.368 . S
C1623 C1622 1.523 . S
H1624 C1599 0.950 . S
H1625 C1601 0.950 . S
H1626 C1602 0.949 . S
H1627 C1604 0.950 . S
H1628 C1606 0.950 . S
C1629 C1630 1.349 . S
C1629 C1631 1.327 . S
C1629 H1654 0.950 . S
C1630 C1629 1.349 . S
C1630 C1646 1.349 . S
C1631 C1629 1.327 . S
C1631 C1650 1.429 . S
C1631 H1655 0.950 . S
C1632 C1649 1.574 . S
C1632 C1651 1.368 . S
C1632 H1656 0.949 . S
H1633 C1637 0.949 . S
C1634 C1635 1.349 . S
C1634 C1636 1.327 . S
C1634 H1657 0.950 . S
C1635 C1634 1.349 . S
C1635 C1647 1.349 . S
C1636 C1634 1.327 . S
C1636 C1652 1.429 . S
C1636 H1658 0.950 . S
C1637 H1633 0.949 . S
C1637 C1645 1.574 . S
C1637 C1653 1.368 . S
H1638 C1646 0.950 . S
H1639 C1644 0.950 . S
H1640 C1645 0.949 . S
H1641 C1647 0.950 . S
H1642 C1648 0.950 . S
H1643 C1649 0.949 . S
C1644 H1639 0.950 . S
C1644 C1646 1.327 . S
C1644 C1650 1.429 . S
C1645 C1637 1.574 . S
C1645 H1640 0.949 . S
C1645 C1651 1.368 . S
C1646 C1630 1.349 . S
C1646 H1638 0.950 . S
C1646 C1644 1.327 . S
C1647 C1635 1.349 . S
C1647 H1641 0.950 . S
C1647 C1648 1.327 . S
C1648 H1642 0.950 . S
C1648 C1647 1.327 . S
C1648 C1652 1.429 . S
C1649 C1632 1.574 . S
C1649 H1643 0.949 . S
C1649 C1653 1.368 . S
C1650 C1631 1.429 . S
C1650 C1644 1.429 . S
C1650 C1651 1.523 . S
C1651 C1632 1.368 . S
C1651 C1645 1.368 . S
C1651 C1650 1.523 . S
C1652 C1636 1.429 . S
C1652 C1648 1.429 . S
C1652 C1653 1.523 . S
C1653 C1637 1.368 . S
C1653 C1649 1.368 . S
C1653 C1652 1.523 . S
H1654 C1629 0.950 . S
H1655 C1631 0.950 . S
H1656 C1632 0.949 . S
H1657 C1634 0.950 . S
H1658 C1636 0.950 . S
C1659 C1660 1.349 . S
C1659 C1661 1.327 . S
C1659 H1684 0.950 . S
C1660 C1659 1.349 . S
C1660 C1676 1.349 . S
C1661 C1659 1.327 . S
C1661 C1680 1.429 . S
C1661 H1685 0.950 . S
C1662 C1679 1.574 . S
C1662 C1681 1.368 . S
C1662 H1686 0.949 . S
H1663 C1667 0.949 . S
C1664 C1665 1.349 . S
C1664 C1666 1.327 . S
C1664 H1687 0.950 . S
C1665 C1664 1.349 . S
C1665 C1677 1.349 . S
C1666 C1664 1.327 . S
C1666 C1682 1.429 . S
C1666 H1688 0.950 . S
C1667 H1663 0.949 . S
C1667 C1675 1.574 . S
C1667 C1683 1.368 . S
H1668 C1676 0.950 . S
H1669 C1674 0.950 . S
H1670 C1675 0.949 . S
H1671 C1677 0.950 . S
H1672 C1678 0.950 . S
H1673 C1679 0.949 . S
C1674 H1669 0.950 . S
C1674 C1676 1.327 . S
C1674 C1680 1.429 . S
C1675 C1667 1.574 . S
C1675 H1670 0.949 . S
C1675 C1681 1.368 . S
C1676 C1660 1.349 . S
C1676 H1668 0.950 . S
C1676 C1674 1.327 . S
C1677 C1665 1.349 . S
C1677 H1671 0.950 . S
C1677 C1678 1.327 . S
C1678 H1672 0.950 . S
C1678 C1677 1.327 . S
C1678 C1682 1.429 . S
C1679 C1662 1.574 . S
C1679 H1673 0.949 . S
C1679 C1683 1.368 . S
C1680 C1661 1.429 . S
C1680 C1674 1.429 . S
C1680 C1681 1.523 . S
C1681 C1662 1.368 . S
C1681 C1675 1.368 . S
C1681 C1680 1.523 . S
C1682 C1666 1.429 . S
C1682 C1678 1.429 . S
C1682 C1683 1.523 . S
C1683 C1667 1.368 . S
C1683 C1679 1.368 . S
C1683 C1682 1.523 . S
H1684 C1659 0.950 . S
H1685 C1661 0.950 . S
H1686 C1662 0.949 . S
H1687 C1664 0.950 . S
H1688 C1666 0.950 . S
C1689 C1690 1.349 . S
C1689 C1691 1.327 . S
C1689 H1714 0.950 . S
C1690 C1689 1.349 . S
C1690 C1706 1.349 . S
C1691 C1689 1.327 . S
C1691 C1710 1.429 . S
C1691 H1715 0.950 . S
C1692 C1709 1.574 . S
C1692 C1711 1.368 . S
C1692 H1716 0.949 . S
H1693 C1697 0.949 . S
C1694 C1695 1.349 . S
C1694 C1696 1.327 . S
C1694 H1717 0.950 . S
C1695 C1694 1.349 . S
C1695 C1707 1.349 . S
C1696 C1694 1.327 . S
C1696 C1712 1.429 . S
C1696 H1718 0.950 . S
C1697 H1693 0.949 . S
C1697 C1705 1.574 . S
C1697 C1713 1.368 . S
H1698 C1706 0.950 . S
H1699 C1704 0.950 . S
H1700 C1705 0.949 . S
H1701 C1707 0.950 . S
H1702 C1708 0.950 . S
H1703 C1709 0.949 . S
C1704 H1699 0.950 . S
C1704 C1706 1.327 . S
C1704 C1710 1.429 . S
C1705 C1697 1.574 . S
C1705 H1700 0.949 . S
C1705 C1711 1.368 . S
C1706 C1690 1.349 . S
C1706 H1698 0.950 . S
C1706 C1704 1.327 . S
C1707 C1695 1.349 . S
C1707 H1701 0.950 . S
C1707 C1708 1.327 . S
C1708 H1702 0.950 . S
C1708 C1707 1.327 . S
C1708 C1712 1.429 . S
C1709 C1692 1.574 . S
C1709 H1703 0.949 . S
C1709 C1713 1.368 . S
C1710 C1691 1.429 . S
C1710 C1704 1.429 . S
C1710 C1711 1.523 . S
C1711 C1692 1.368 . S
C1711 C1705 1.368 . S
C1711 C1710 1.523 . S
C1712 C1696 1.429 . S
C1712 C1708 1.429 . S
C1712 C1713 1.523 . S
C1713 C1697 1.368 . S
C1713 C1709 1.368 . S
C1713 C1712 1.523 . S
H1714 C1689 0.950 . S
H1715 C1691 0.950 . S
H1716 C1692 0.949 . S
H1717 C1694 0.950 . S
H1718 C1696 0.950 . S
C1719 C1720 1.349 . S
C1719 C1721 1.327 . S
C1719 H1744 0.950 . S
C1720 C1719 1.349 . S
C1720 C1736 1.349 . S
C1721 C1719 1.327 . S
C1721 C1740 1.429 1_565 S
C1721 H1745 0.950 1_565 S
C1722 C1739 1.574 . S
C1722 C1741 1.368 . S
C1722 H1746 0.949 . S
H1723 C1727 0.949 . S
C1724 C1725 1.349 . S
C1724 C1726 1.327 . S
C1724 H1747 0.950 . S
C1725 C1724 1.349 . S
C1725 C1737 1.349 . S
C1726 C1724 1.327 . S
C1726 C1742 1.429 . S
C1726 H1748 0.950 . S
C1727 H1723 0.949 . S
C1727 C1735 1.574 . S
C1727 C1743 1.368 . S
H1728 C1736 0.950 . S
H1729 C1734 0.950 . S
H1730 C1735 0.949 . S
H1731 C1737 0.950 . S
H1732 C1738 0.950 . S
H1733 C1739 0.949 . S
C1734 H1729 0.950 . S
C1734 C1736 1.327 . S
C1734 C1740 1.429 1_565 S
C1735 C1727 1.574 . S
C1735 H1730 0.949 . S
C1735 C1741 1.368 . S
C1736 C1720 1.349 . S
C1736 H1728 0.950 . S
C1736 C1734 1.327 . S
C1737 C1725 1.349 . S
C1737 H1731 0.950 . S
C1737 C1738 1.327 . S
C1738 H1732 0.950 . S
C1738 C1737 1.327 . S
C1738 C1742 1.429 . S
C1739 C1722 1.574 . S
C1739 H1733 0.949 . S
C1739 C1743 1.368 . S
C1740 C1721 1.429 1_545 S
C1740 C1734 1.429 1_545 S
C1740 C1741 1.523 . S
C1741 C1722 1.368 . S
C1741 C1735 1.368 . S
C1741 C1740 1.523 . S
C1742 C1726 1.429 . S
C1742 C1738 1.429 . S
C1742 C1743 1.523 . S
C1743 C1727 1.368 . S
C1743 C1739 1.368 . S
C1743 C1742 1.523 . S
H1744 C1719 0.950 . S
H1745 C1721 0.950 1_545 S
H1746 C1722 0.949 . S
H1747 C1724 0.950 . S
H1748 C1726 0.950 . S
C1749 C1750 1.349 . S
C1749 C1751 1.327 . S
C1749 H1774 0.950 . S
C1750 C1749 1.349 . S
C1750 C1766 1.349 . S
C1751 C1749 1.327 . S
C1751 C1770 1.429 1_455 S
C1751 H1775 0.950 . S
C1752 C1769 1.574 . S
C1752 C1771 1.368 . S
C1752 H1776 0.949 . S
H1753 C1757 0.949 . S
C1754 C1755 1.349 . S
C1754 C1756 1.327 . S
C1754 H1777 0.950 . S
C1755 C1754 1.349 . S
C1755 C1767 1.349 . S
C1756 C1754 1.327 . S
C1756 C1772 1.429 . S
C1756 H1778 0.950 . S
C1757 H1753 0.949 . S
C1757 C1765 1.574 . S
C1757 C1773 1.368 . S
H1758 C1766 0.950 . S
H1759 C1764 0.950 1_655 S
H1760 C1765 0.949 . S
H1761 C1767 0.950 . S
H1762 C1768 0.950 . S
H1763 C1769 0.949 . S
C1764 H1759 0.950 1_455 S
C1764 C1766 1.327 . S
C1764 C1770 1.429 1_455 S
C1765 C1757 1.574 . S
C1765 H1760 0.949 . S
C1765 C1771 1.368 . S
C1766 C1750 1.349 . S
C1766 H1758 0.950 . S
C1766 C1764 1.327 . S
C1767 C1755 1.349 . S
C1767 H1761 0.950 . S
C1767 C1768 1.327 . S
C1768 H1762 0.950 . S
C1768 C1767 1.327 . S
C1768 C1772 1.429 . S
C1769 C1752 1.574 . S
C1769 H1763 0.949 . S
C1769 C1773 1.368 . S
C1770 C1751 1.429 1_655 S
C1770 C1764 1.429 1_655 S
C1770 C1771 1.523 . S
C1771 C1752 1.368 . S
C1771 C1765 1.368 . S
C1771 C1770 1.523 . S
C1772 C1756 1.429 . S
C1772 C1768 1.429 . S
C1772 C1773 1.523 . S
C1773 C1757 1.368 . S
C1773 C1769 1.368 . S
C1773 C1772 1.523 . S
H1774 C1749 0.950 . S
H1775 C1751 0.950 . S
H1776 C1752 0.949 . S
H1777 C1754 0.950 . S
H1778 C1756 0.950 . S
C1779 C1780 1.349 . S
C1779 C1781 1.327 . S
C1779 H1804 0.950 . S
C1780 C1779 1.349 . S
C1780 C1796 1.349 . S
C1781 C1779 1.327 . S
C1781 C1800 1.429 . S
C1781 H1805 0.950 . S
C1782 C1799 1.574 . S
C1782 C1801 1.368 . S
C1782 H1806 0.949 . S
H1783 C1787 0.949 . S
C1784 C1785 1.349 . S
C1784 C1786 1.327 . S
C1784 H1807 0.950 . S
C1785 C1784 1.349 . S
C1785 C1797 1.349 . S
C1786 C1784 1.327 . S
C1786 C1802 1.429 . S
C1786 H1808 0.950 . S
C1787 H1783 0.949 . S
C1787 C1795 1.574 . S
C1787 C1803 1.368 . S
H1788 C1796 0.950 . S
H1789 C1794 0.950 . S
H1790 C1795 0.949 . S
H1791 C1797 0.950 . S
H1792 C1798 0.950 . S
H1793 C1799 0.949 . S
C1794 H1789 0.950 . S
C1794 C1796 1.327 . S
C1794 C1800 1.429 . S
C1795 C1787 1.574 . S
C1795 H1790 0.949 . S
C1795 C1801 1.368 . S
C1796 C1780 1.349 . S
C1796 H1788 0.950 . S
C1796 C1794 1.327 . S
C1797 C1785 1.349 . S
C1797 H1791 0.950 . S
C1797 C1798 1.327 . S
C1798 H1792 0.950 . S
C1798 C1797 1.327 . S
C1798 C1802 1.429 . S
C1799 C1782 1.574 . S
C1799 H1793 0.949 . S
C1799 C1803 1.368 . S
C1800 C1781 1.429 . S
C1800 C1794 1.429 . S
C1800 C1801 1.523 . S
C1801 C1782 1.368 . S
C1801 C1795 1.368 . S
C1801 C1800 1.523 . S
C1802 C1786 1.429 . S
C1802 C1798 1.429 . S
C1802 C1803 1.523 . S
C1803 C1787 1.368 . S
C1803 C1799 1.368 . S
C1803 C1802 1.523 . S
H1804 C1779 0.950 . S
H1805 C1781 0.950 . S
H1806 C1782 0.949 . S
H1807 C1784 0.950 . S
H1808 C1786 0.950 . S
C1809 C1810 1.349 . S
C1809 C1811 1.327 . S
C1809 H1834 0.950 . S
C1810 C1809 1.349 . S
C1810 C1826 1.349 . S
C1811 C1809 1.327 . S
C1811 C1830 1.429 . S
C1811 H1835 0.950 . S
C1812 C1829 1.574 . S
C1812 C1831 1.368 . S
C1812 H1836 0.949 . S
H1813 C1817 0.949 . S
C1814 C1815 1.349 . S
C1814 C1816 1.327 . S
C1814 H1837 0.950 . S
C1815 C1814 1.349 . S
C1815 C1827 1.349 . S
C1816 C1814 1.327 . S
C1816 C1832 1.429 . S
C1816 H1838 0.950 . S
C1817 H1813 0.949 . S
C1817 C1825 1.574 . S
C1817 C1833 1.368 . S
H1818 C1826 0.950 . S
H1819 C1824 0.950 . S
H1820 C1825 0.949 . S
H1821 C1827 0.950 . S
H1822 C1828 0.950 . S
H1823 C1829 0.949 . S
C1824 H1819 0.950 . S
C1824 C1826 1.327 . S
C1824 C1830 1.429 . S
C1825 C1817 1.574 . S
C1825 H1820 0.949 . S
C1825 C1831 1.368 . S
C1826 C1810 1.349 . S
C1826 H1818 0.950 . S
C1826 C1824 1.327 . S
C1827 C1815 1.349 . S
C1827 H1821 0.950 . S
C1827 C1828 1.327 . S
C1828 H1822 0.950 . S
C1828 C1827 1.327 . S
C1828 C1832 1.429 . S
C1829 C1812 1.574 . S
C1829 H1823 0.949 . S
C1829 C1833 1.368 . S
C1830 C1811 1.429 . S
C1830 C1824 1.429 . S
C1830 C1831 1.523 1_455 S
C1831 C1812 1.368 . S
C1831 C1825 1.368 . S
C1831 C1830 1.523 1_655 S
C1832 C1816 1.429 . S
C1832 C1828 1.429 . S
C1832 C1833 1.523 . S
C1833 C1817 1.368 . S
C1833 C1829 1.368 . S
C1833 C1832 1.523 . S
H1834 C1809 0.950 . S
H1835 C1811 0.950 . S
H1836 C1812 0.949 . S
H1837 C1814 0.950 . S
H1838 C1816 0.950 . S
C1839 C1840 1.349 . S
C1839 C1841 1.327 . S
C1839 H1864 0.950 . S
C1840 C1839 1.349 . S
C1840 C1856 1.349 . S
C1841 C1839 1.327 . S
C1841 C1860 1.429 . S
C1841 H1865 0.950 . S
C1842 C1859 1.574 . S
C1842 C1861 1.368 . S
C1842 H1866 0.949 . S
H1843 C1847 0.949 . S
C1844 C1845 1.349 . S
C1844 C1846 1.327 . S
C1844 H1867 0.950 . S
C1845 C1844 1.349 . S
C1845 C1857 1.349 . S
C1846 C1844 1.327 . S
C1846 C1862 1.429 . S
C1846 H1868 0.950 . S
C1847 H1843 0.949 . S
C1847 C1855 1.574 . S
C1847 C1863 1.368 . S
H1848 C1856 0.950 . S
H1849 C1854 0.950 . S
H1850 C1855 0.949 . S
H1851 C1857 0.950 . S
H1852 C1858 0.950 . S
H1853 C1859 0.949 . S
C1854 H1849 0.950 . S
C1854 C1856 1.327 . S
C1854 C1860 1.429 . S
C1855 C1847 1.574 . S
C1855 H1850 0.949 . S
C1855 C1861 1.368 . S
C1856 C1840 1.349 . S
C1856 H1848 0.950 . S
C1856 C1854 1.327 . S
C1857 C1845 1.349 . S
C1857 H1851 0.950 . S
C1857 C1858 1.327 . S
C1858 H1852 0.950 . S
C1858 C1857 1.327 . S
C1858 C1862 1.429 . S
C1859 C1842 1.574 . S
C1859 H1853 0.949 . S
C1859 C1863 1.368 . S
C1860 C1841 1.429 . S
C1860 C1854 1.429 . S
C1860 C1861 1.523 . S
C1861 C1842 1.368 . S
C1861 C1855 1.368 . S
C1861 C1860 1.523 . S
C1862 C1846 1.429 . S
C1862 C1858 1.429 . S
C1862 C1863 1.523 . S
C1863 C1847 1.368 . S
C1863 C1859 1.368 . S
C1863 C1862 1.523 . S
H1864 C1839 0.950 . S
H1865 C1841 0.950 . S
H1866 C1842 0.949 . S
H1867 C1844 0.950 . S
H1868 C1846 0.950 . S
C1869 C1870 1.349 . S
C1869 C1871 1.327 . S
C1869 H1894 0.950 . S
C1870 C1869 1.349 . S
C1870 C1886 1.349 . S
C1871 C1869 1.327 . S
C1871 C1890 1.429 1_565 S
C1871 H1895 0.950 . S
C1872 C1889 1.574 . S
C1872 C1891 1.368 . S
C1872 H1896 0.949 . S
H1873 C1877 0.949 . S
C1874 C1875 1.349 . S
C1874 C1876 1.327 . S
C1874 H1897 0.950 . S
C1875 C1874 1.349 . S
C1875 C1887 1.349 . S
C1876 C1874 1.327 . S
C1876 C1892 1.429 . S
C1876 H1898 0.950 . S
C1877 H1873 0.949 . S
C1877 C1885 1.574 . S
C1877 C1893 1.368 . S
H1878 C1886 0.950 . S
H1879 C1884 0.950 1_545 S
H1880 C1885 0.949 . S
H1881 C1887 0.950 . S
H1882 C1888 0.950 . S
H1883 C1889 0.949 . S
C1884 H1879 0.950 1_565 S
C1884 C1886 1.327 . S
C1884 C1890 1.429 1_565 S
C1885 C1877 1.574 . S
C1885 H1880 0.949 . S
C1885 C1891 1.368 . S
C1886 C1870 1.349 . S
C1886 H1878 0.950 . S
C1886 C1884 1.327 . S
C1887 C1875 1.349 . S
C1887 H1881 0.950 . S
C1887 C1888 1.327 . S
C1888 H1882 0.950 . S
C1888 C1887 1.327 . S
C1888 C1892 1.429 . S
C1889 C1872 1.574 . S
C1889 H1883 0.949 . S
C1889 C1893 1.368 . S
C1890 C1871 1.429 1_545 S
C1890 C1884 1.429 1_545 S
C1890 C1891 1.523 . S
C1891 C1872 1.368 . S
C1891 C1885 1.368 . S
C1891 C1890 1.523 . S
C1892 C1876 1.429 . S
C1892 C1888 1.429 . S
C1892 C1893 1.523 . S
C1893 C1877 1.368 . S
C1893 C1889 1.368 . S
C1893 C1892 1.523 . S
H1894 C1869 0.950 . S
H1895 C1871 0.950 . S
H1896 C1872 0.949 . S
H1897 C1874 0.950 . S
H1898 C1876 0.950 . S
C1899 C1900 1.349 . S
C1899 C1901 1.327 . S
C1899 H1924 0.950 . S
C1900 C1899 1.349 . S
C1900 C1916 1.349 . S
C1901 C1899 1.327 . S
C1901 C1920 1.429 . S
C1901 H1925 0.950 . S
C1902 C1919 1.574 . S
C1902 C1921 1.368 . S
C1902 H1926 0.949 . S
H1903 C1907 0.949 . S
C1904 C1905 1.349 . S
C1904 C1906 1.327 . S
C1904 H1927 0.950 . S
C1905 C1904 1.349 . S
C1905 C1917 1.349 . S
C1906 C1904 1.327 . S
C1906 C1922 1.429 . S
C1906 H1928 0.950 . S
C1907 H1903 0.949 . S
C1907 C1915 1.574 . S
C1907 C1923 1.368 . S
H1908 C1916 0.950 . S
H1909 C1914 0.950 . S
H1910 C1915 0.949 . S
H1911 C1917 0.950 . S
H1912 C1918 0.950 . S
H1913 C1919 0.949 . S
C1914 H1909 0.950 . S
C1914 C1916 1.327 . S
C1914 C1920 1.429 . S
C1915 C1907 1.574 . S
C1915 H1910 0.949 . S
C1915 C1921 1.368 . S
C1916 C1900 1.349 . S
C1916 H1908 0.950 . S
C1916 C1914 1.327 . S
C1917 C1905 1.349 . S
C1917 H1911 0.950 . S
C1917 C1918 1.327 . S
C1918 H1912 0.950 . S
C1918 C1917 1.327 . S
C1918 C1922 1.429 . S
C1919 C1902 1.574 . S
C1919 H1913 0.949 . S
C1919 C1923 1.368 . S
C1920 C1901 1.429 . S
C1920 C1914 1.429 . S
C1920 C1921 1.523 . S
C1921 C1902 1.368 . S
C1921 C1915 1.368 . S
C1921 C1920 1.523 . S
C1922 C1906 1.429 . S
C1922 C1918 1.429 . S
C1922 C1923 1.523 . S
C1923 C1907 1.368 . S
C1923 C1919 1.368 . S
C1923 C1922 1.523 . S
H1924 C1899 0.950 . S
H1925 C1901 0.950 . S
H1926 C1902 0.949 . S
H1927 C1904 0.950 . S
H1928 C1906 0.950 . S
C1929 C1930 1.349 . S
C1929 C1931 1.327 . S
C1929 H1954 0.950 . S
C1930 C1929 1.349 . S
C1930 C1946 1.349 . S
C1931 C1929 1.327 . S
C1931 C1950 1.429 . S
C1931 H1955 0.950 . S
C1932 C1949 1.574 . S
C1932 C1951 1.368 . S
C1932 H1956 0.949 . S
H1933 C1937 0.949 . S
C1934 C1935 1.349 . S
C1934 C1936 1.327 . S
C1934 H1957 0.950 . S
C1935 C1934 1.349 . S
C1935 C1947 1.349 . S
C1936 C1934 1.327 . S
C1936 C1952 1.429 . S
C1936 H1958 0.950 . S
C1937 H1933 0.949 . S
C1937 C1945 1.574 . S
C1937 C1953 1.368 . S
H1938 C1946 0.950 . S
H1939 C1944 0.950 . S
H1940 C1945 0.949 . S
H1941 C1947 0.950 . S
H1942 C1948 0.950 . S
H1943 C1949 0.949 . S
C1944 H1939 0.950 . S
C1944 C1946 1.327 . S
C1944 C1950 1.429 . S
C1945 C1937 1.574 . S
C1945 H1940 0.949 . S
C1945 C1951 1.368 . S
C1946 C1930 1.349 . S
C1946 H1938 0.950 . S
C1946 C1944 1.327 . S
C1947 C1935 1.349 . S
C1947 H1941 0.950 . S
C1947 C1948 1.327 . S
C1948 H1942 0.950 . S
C1948 C1947 1.327 . S
C1948 C1952 1.429 . S
C1949 C1932 1.574 . S
C1949 H1943 0.949 . S
C1949 C1953 1.368 . S
C1950 C1931 1.429 . S
C1950 C1944 1.429 . S
C1950 C1951 1.523 . S
C1951 C1932 1.368 . S
C1951 C1945 1.368 . S
C1951 C1950 1.523 . S
C1952 C1936 1.429 . S
C1952 C1948 1.429 . S
C1952 C1953 1.523 . S
C1953 C1937 1.368 . S
C1953 C1949 1.368 . S
C1953 C1952 1.523 . S
H1954 C1929 0.950 . S
H1955 C1931 0.950 . S
H1956 C1932 0.949 . S
H1957 C1934 0.950 . S
H1958 C1936 0.950 . S
C1959 C1960 1.349 . S
C1959 C1961 1.327 . S
C1959 H1984 0.950 . S
C1960 C1959 1.349 . S
C1960 C1976 1.349 . S
C1961 C1959 1.327 . S
C1961 C1980 1.429 . S
C1961 H1985 0.950 . S
C1962 C1979 1.574 . S
C1962 C1981 1.368 . S
C1962 H1986 0.949 . S
H1963 C1967 0.949 . S
C1964 C1965 1.349 . S
C1964 C1966 1.327 . S
C1964 H1987 0.950 . S
C1965 C1964 1.349 . S
C1965 C1977 1.349 . S
C1966 C1964 1.327 . S
C1966 C1982 1.429 . S
C1966 H1988 0.950 . S
C1967 H1963 0.949 . S
C1967 C1975 1.574 . S
C1967 C1983 1.368 . S
H1968 C1976 0.950 . S
H1969 C1974 0.950 . S
H1970 C1975 0.949 . S
H1971 C1977 0.950 . S
H1972 C1978 0.950 . S
H1973 C1979 0.949 . S
C1974 H1969 0.950 . S
C1974 C1976 1.327 . S
C1974 C1980 1.429 . S
C1975 C1967 1.574 . S
C1975 H1970 0.949 . S
C1975 C1981 1.368 . S
C1976 C1960 1.349 . S
C1976 H1968 0.950 . S
C1976 C1974 1.327 . S
C1977 C1965 1.349 . S
C1977 H1971 0.950 . S
C1977 C1978 1.327 . S
C1978 H1972 0.950 . S
C1978 C1977 1.327 . S
C1978 C1982 1.429 . S
C1979 C1962 1.574 . S
C1979 H1973 0.949 . S
C1979 C1983 1.368 . S
C1980 C1961 1.429 . S
C1980 C1974 1.429 . S
C1980 C1981 1.523 . S
C1981 C1962 1.368 . S
C1981 C1975 1.368 . S
C1981 C1980 1.523 . S
C1982 C1966 1.429 . S
C1982 C1978 1.429 . S
C1982 C1983 1.523 . S
C1983 C1967 1.368 . S
C1983 C1979 1.368 . S
C1983 C1982 1.523 . S
H1984 C1959 0.950 . S
H1985 C1961 0.950 . S
H1986 C1962 0.949 . S
H1987 C1964 0.950 . S
H1988 C1966 0.950 . S
C1989 C1990 1.349 . S
C1989 C1991 1.327 . S
C1989 H2014 0.950 . S
C1990 C1989 1.349 . S
C1990 C2006 1.349 . S
C1991 C1989 1.327 . S
C1991 C2010 1.429 . S
C1991 H2015 0.950 . S
C1992 C2009 1.574 1_565 S
C1992 C2011 1.368 . S
C1992 H2016 0.949 1_565 S
H1993 C1997 0.949 . S
C1994 C1995 1.348 . S
C1994 C1996 1.327 . S
C1994 H2017 0.950 . S
C1995 C1994 1.348 . S
C1995 C2007 1.350 1_545 S
C1996 C1994 1.327 . S
C1996 C2012 1.429 1_545 S
C1996 H2018 0.950 . S
C1997 H1993 0.949 . S
C1997 C2005 1.574 . S
C1997 C2013 1.368 . S
H1998 C2006 0.950 . S
H1999 C2004 0.947 . S
H2000 C2005 0.949 . S
H2001 C2007 0.950 . S
H2002 C2008 0.950 . S
H2003 C2009 0.949 . S
C2004 H1999 0.947 . S
C2004 C2006 1.327 . S
C2004 C2010 1.429 . S
C2005 C1997 1.574 . S
C2005 H2000 0.949 . S
C2005 C2011 1.368 . S
C2006 C1990 1.349 . S
C2006 H1998 0.950 . S
C2006 C2004 1.327 . S
C2007 C1995 1.350 1_565 S
C2007 H2001 0.950 . S
C2007 C2008 1.327 . S
C2008 H2002 0.950 . S
C2008 C2007 1.327 . S
C2008 C2012 1.429 . S
C2009 C1992 1.574 1_545 S
C2009 H2003 0.949 . S
C2009 C2013 1.368 1_545 S
C2010 C1991 1.429 . S
C2010 C2004 1.429 . S
C2010 C2011 1.523 . S
C2011 C1992 1.368 . S
C2011 C2005 1.368 . S
C2011 C2010 1.523 . S
C2012 C1996 1.429 1_565 S
C2012 C2008 1.429 . S
C2012 C2013 1.523 . S
C2013 C1997 1.368 . S
C2013 C2009 1.368 1_565 S
C2013 C2012 1.523 . S
H2014 C1989 0.950 . S
H2015 C1991 0.950 . S
H2016 C1992 0.949 1_545 S
H2017 C1994 0.950 . S
H2018 C1996 0.950 . S
C2019 C2020 1.349 . S
C2019 C2021 1.327 . S
C2019 H2044 0.950 . S
C2020 C2019 1.349 . S
C2020 C2036 1.349 . S
C2021 C2019 1.327 . S
C2021 C2040 1.429 . S
C2021 H2045 0.998 . S
C2022 C2039 1.574 . S
C2022 C2041 1.368 . S
C2022 H2046 0.949 . S
H2023 C2027 0.915 1_655 S
C2024 C2025 1.349 . S
C2024 C2026 1.327 . S
C2024 H2047 0.950 . S
C2025 C2024 1.349 . S
C2025 C2037 1.349 1_455 S
C2026 C2024 1.327 . S
C2026 C2042 1.429 . S
C2026 H2048 0.950 . S
C2027 H2023 0.915 1_455 S
C2027 C2035 1.584 . S
C2027 C2043 1.399 . S
H2028 C2036 0.950 . S
H2029 C2034 0.950 . S
H2030 C2035 0.949 1_655 S
H2031 C2037 0.950 . S
H2032 C2038 0.950 . S
H2033 C2039 0.949 . S
C2034 H2029 0.950 . S
C2034 C2036 1.327 . S
C2034 C2040 1.429 . S
C2035 C2027 1.584 . S
C2035 H2030 0.949 1_455 S
C2035 C2041 1.368 . S
C2036 C2020 1.349 . S
C2036 H2028 0.950 . S
C2036 C2034 1.327 . S
C2037 C2025 1.349 1_655 S
C2037 H2031 0.950 . S
C2037 C2038 1.327 . S
C2038 H2032 0.950 . S
C2038 C2037 1.327 . S
C2038 C2042 1.429 1_655 S
C2039 C2022 1.574 . S
C2039 H2033 0.949 . S
C2039 C2043 1.368 . S
C2040 C2021 1.429 . S
C2040 C2034 1.429 . S
C2040 C2041 1.523 . S
C2041 C2022 1.368 . S
C2041 C2035 1.368 . S
C2041 C2040 1.523 . S
C2042 C2026 1.429 . S
C2042 C2038 1.429 1_455 S
C2042 C2043 1.523 . S
C2043 C2027 1.399 . S
C2043 C2039 1.368 . S
C2043 C2042 1.523 . S
H2044 C2019 0.950 . S
H2045 C2021 0.998 . S
H2046 C2022 0.949 . S
H2047 C2024 0.950 . S
H2048 C2026 0.950 . S
C2049 C2050 1.349 . S
C2049 C2051 1.327 . S
C2049 H2074 0.950 . S
C2050 C2049 1.349 . S
C2050 C2066 1.349 . S
C2051 C2049 1.327 . S
C2051 C2070 1.429 . S
C2051 H2075 0.950 . S
C2052 C2069 1.574 . S
C2052 C2071 1.368 . S
C2052 H2076 0.949 . S
H2053 C2057 0.949 . S
C2054 C2055 1.349 . S
C2054 C2056 1.327 . S
C2054 H2077 0.950 . S
C2055 C2054 1.349 . S
C2055 C2067 1.349 . S
C2056 C2054 1.327 . S
C2056 C2072 1.429 . S
C2056 H2078 0.950 . S
C2057 H2053 0.949 . S
C2057 C2065 1.574 . S
C2057 C2073 1.368 . S
H2058 C2066 0.950 . S
H2059 C2064 0.950 . S
H2060 C2065 0.949 . S
H2061 C2067 0.950 . S
H2062 C2068 0.950 . S
H2063 C2069 0.949 . S
C2064 H2059 0.950 . S
C2064 C2066 1.327 . S
C2064 C2070 1.429 . S
C2065 C2057 1.574 . S
C2065 H2060 0.949 . S
C2065 C2071 1.368 . S
C2066 C2050 1.349 . S
C2066 H2058 0.950 . S
C2066 C2064 1.327 . S
C2067 C2055 1.349 . S
C2067 H2061 0.950 . S
C2067 C2068 1.327 . S
C2068 H2062 0.950 . S
C2068 C2067 1.327 . S
C2068 C2072 1.429 . S
C2069 C2052 1.574 . S
C2069 H2063 0.949 . S
C2069 C2073 1.368 . S
C2070 C2051 1.429 . S
C2070 C2064 1.429 . S
C2070 C2071 1.523 . S
C2071 C2052 1.368 . S
C2071 C2065 1.368 . S
C2071 C2070 1.523 . S
C2072 C2056 1.429 . S
C2072 C2068 1.429 . S
C2072 C2073 1.523 . S
C2073 C2057 1.368 . S
C2073 C2069 1.368 . S
C2073 C2072 1.523 . S
H2074 C2049 0.950 . S
H2075 C2051 0.950 . S
H2076 C2052 0.949 . S
H2077 C2054 0.950 . S
H2078 C2056 0.950 . S
C2079 C2080 1.349 . S
C2079 C2081 1.327 . S
C2079 H2104 0.950 . S
C2080 C2079 1.349 . S
C2080 C2096 1.349 . S
C2081 C2079 1.327 . S
C2081 C2100 1.429 . S
C2081 H2105 0.950 . S
C2082 C2099 1.574 . S
C2082 C2101 1.368 . S
C2082 H2106 0.949 1_655 S
H2083 C2087 0.949 . S
C2084 C2085 1.349 1_455 S
C2084 C2086 1.327 . S
C2084 H2107 0.950 . S
C2085 C2084 1.349 1_655 S
C2085 C2097 1.349 . S
C2086 C2084 1.327 . S
C2086 C2102 1.429 1_455 S
C2086 H2108 0.950 . S
C2087 H2083 0.949 . S
C2087 C2095 1.574 . S
C2087 C2103 1.368 . S
H2088 C2096 0.950 . S
H2089 C2094 0.950 . S
H2090 C2095 0.949 . S
H2091 C2097 0.950 . S
H2092 C2098 0.950 . S
H2093 C2099 0.949 1_455 S
C2094 H2089 0.950 . S
C2094 C2096 1.327 . S
C2094 C2100 1.429 . S
C2095 C2087 1.574 . S
C2095 H2090 0.949 . S
C2095 C2101 1.368 . S
C2096 C2080 1.349 . S
C2096 H2088 0.950 . S
C2096 C2094 1.327 . S
C2097 C2085 1.349 . S
C2097 H2091 0.950 . S
C2097 C2098 1.327 . S
C2098 H2092 0.950 . S
C2098 C2097 1.327 . S
C2098 C2102 1.429 . S
C2099 C2082 1.574 . S
C2099 H2093 0.949 1_655 S
C2099 C2103 1.368 . S
C2100 C2081 1.429 . S
C2100 C2094 1.429 . S
C2100 C2101 1.523 . S
C2101 C2082 1.368 . S
C2101 C2095 1.368 . S
C2101 C2100 1.523 . S
C2102 C2086 1.429 1_655 S
C2102 C2098 1.429 . S
C2102 C2103 1.523 . S
C2103 C2087 1.368 . S
C2103 C2099 1.368 . S
C2103 C2102 1.523 . S
H2104 C2079 0.950 . S
H2105 C2081 0.950 . S
H2106 C2082 0.949 1_455 S
H2107 C2084 0.950 . S
H2108 C2086 0.950 . S
C2109 C2110 1.349 . S
C2109 C2111 1.327 . S
C2109 H2134 0.950 . S
C2110 C2109 1.349 . S
C2110 C2126 1.349 . S
C2111 C2109 1.327 . S
C2111 C2130 1.429 . S
C2111 H2135 0.950 . S
C2112 C2129 1.574 . S
C2112 C2131 1.368 . S
C2112 H2136 0.949 . S
H2113 C2117 0.949 . S
C2114 C2115 1.349 . S
C2114 C2116 1.327 . S
C2114 H2137 0.950 . S
C2115 C2114 1.349 . S
C2115 C2127 1.349 . S
C2116 C2114 1.327 . S
C2116 C2132 1.429 . S
C2116 H2138 0.950 . S
C2117 H2113 0.949 . S
C2117 C2125 1.574 . S
C2117 C2133 1.368 . S
H2118 C2126 0.950 . S
H2119 C2124 0.950 . S
H2120 C2125 0.949 . S
H2121 C2127 0.950 . S
H2122 C2128 0.950 . S
H2123 C2129 0.949 . S
C2124 H2119 0.950 . S
C2124 C2126 1.327 . S
C2124 C2130 1.429 . S
C2125 C2117 1.574 . S
C2125 H2120 0.949 . S
C2125 C2131 1.368 . S
C2126 C2110 1.349 . S
C2126 H2118 0.950 . S
C2126 C2124 1.327 . S
C2127 C2115 1.349 . S
C2127 H2121 0.950 . S
C2127 C2128 1.327 . S
C2128 H2122 0.950 . S
C2128 C2127 1.327 . S
C2128 C2132 1.429 . S
C2129 C2112 1.574 . S
C2129 H2123 0.949 . S
C2129 C2133 1.368 . S
C2130 C2111 1.429 . S
C2130 C2124 1.429 . S
C2130 C2131 1.523 . S
C2131 C2112 1.368 . S
C2131 C2125 1.368 . S
C2131 C2130 1.523 . S
C2132 C2116 1.429 . S
C2132 C2128 1.429 . S
C2132 C2133 1.523 . S
C2133 C2117 1.368 . S
C2133 C2129 1.368 . S
C2133 C2132 1.523 . S
H2134 C2109 0.950 . S
H2135 C2111 0.950 . S
H2136 C2112 0.949 . S
H2137 C2114 0.950 . S
H2138 C2116 0.950 . S
C2139 C2140 1.349 . S
C2139 C2141 1.327 . S
C2139 H2164 0.950 . S
C2140 C2139 1.349 . S
C2140 C2156 1.349 . S
C2141 C2139 1.327 . S
C2141 C2160 1.429 . S
C2141 H2165 0.950 . S
C2142 C2159 1.574 . S
C2142 C2161 1.368 . S
C2142 H2166 0.949 . S
H2143 C2147 0.949 . S
C2144 C2145 1.349 1_565 S
C2144 C2146 1.322 1_565 S
C2144 H2167 0.950 . S
C2145 C2144 1.349 1_545 S
C2145 C2157 1.349 . S
C2146 C2144 1.322 1_545 S
C2146 C2162 1.469 . S
C2146 H2168 0.915 1_545 S
C2147 H2143 0.949 . S
C2147 C2155 1.574 . S
C2147 C2163 1.368 . S
H2148 C2156 0.950 . S
H2149 C2154 0.950 . S
H2150 C2155 0.949 . S
H2151 C2157 0.950 . S
H2152 C2158 0.950 . S
H2153 C2159 0.949 1_565 S
C2154 H2149 0.950 . S
C2154 C2156 1.327 . S
C2154 C2160 1.429 . S
C2155 C2147 1.574 . S
C2155 H2150 0.949 . S
C2155 C2161 1.368 . S
C2156 C2140 1.349 . S
C2156 H2148 0.950 . S
C2156 C2154 1.327 . S
C2157 C2145 1.349 . S
C2157 H2151 0.950 . S
C2157 C2158 1.327 . S
C2158 H2152 0.950 . S
C2158 C2157 1.327 . S
C2158 C2162 1.429 . S
C2159 C2142 1.574 . S
C2159 H2153 0.949 1_545 S
C2159 C2163 1.368 . S
C2160 C2141 1.429 . S
C2160 C2154 1.429 . S
C2160 C2161 1.523 . S
C2161 C2142 1.368 . S
C2161 C2155 1.368 . S
C2161 C2160 1.523 . S
C2162 C2146 1.469 . S
C2162 C2158 1.429 . S
C2162 C2163 1.523 . S
C2163 C2147 1.368 . S
C2163 C2159 1.368 . S
C2163 C2162 1.523 . S
H2164 C2139 0.950 . S
H2165 C2141 0.950 . S
H2166 C2142 0.949 . S
H2167 C2144 0.950 . S
H2168 C2146 0.915 1_565 S
C2169 C2170 1.349 . S
C2169 C2171 1.327 . S
C2169 H2194 0.950 . S
C2170 C2169 1.349 . S
C2170 C2186 1.349 . S
C2171 C2169 1.327 . S
C2171 C2190 1.429 . S
C2171 H2195 0.950 . S
C2172 C2189 1.574 . S
C2172 C2191 1.368 . S
C2172 H2196 0.949 . S
H2173 C2177 0.949 . S
C2174 C2175 1.349 . S
C2174 C2176 1.327 . S
C2174 H2197 0.950 . S
C2175 C2174 1.349 . S
C2175 C2187 1.349 . S
C2176 C2174 1.327 . S
C2176 C2192 1.429 . S
C2176 H2198 0.950 . S
C2177 H2173 0.949 . S
C2177 C2185 1.574 . S
C2177 C2193 1.368 . S
H2178 C2186 0.950 . S
H2179 C2184 0.950 . S
H2180 C2185 0.949 . S
H2181 C2187 0.950 . S
H2182 C2188 0.950 . S
H2183 C2189 0.949 . S
C2184 H2179 0.950 . S
C2184 C2186 1.327 . S
C2184 C2190 1.429 . S
C2185 C2177 1.574 . S
C2185 H2180 0.949 . S
C2185 C2191 1.368 . S
C2186 C2170 1.349 . S
C2186 H2178 0.950 . S
C2186 C2184 1.327 . S
C2187 C2175 1.349 . S
C2187 H2181 0.950 . S
C2187 C2188 1.327 . S
C2188 H2182 0.950 . S
C2188 C2187 1.327 . S
C2188 C2192 1.429 . S
C2189 C2172 1.574 . S
C2189 H2183 0.949 . S
C2189 C2193 1.368 . S
C2190 C2171 1.429 . S
C2190 C2184 1.429 . S
C2190 C2191 1.523 . S
C2191 C2172 1.368 . S
C2191 C2185 1.368 . S
C2191 C2190 1.523 . S
C2192 C2176 1.429 . S
C2192 C2188 1.429 . S
C2192 C2193 1.523 . S
C2193 C2177 1.368 . S
C2193 C2189 1.368 . S
C2193 C2192 1.523 . S
H2194 C2169 0.950 . S
H2195 C2171 0.950 . S
H2196 C2172 0.949 . S
H2197 C2174 0.950 . S
H2198 C2176 0.950 . S
C2199 C2200 1.349 . S
C2199 C2201 1.327 . S
C2199 H2224 0.950 . S
C2200 C2199 1.349 . S
C2200 C2216 1.349 . S
C2201 C2199 1.327 . S
C2201 C2220 1.429 . S
C2201 H2225 0.950 . S
C2202 C2219 1.574 . S
C2202 C2221 1.368 . S
C2202 H2226 0.949 . S
H2203 C2207 0.949 . S
C2204 C2205 1.349 . S
C2204 C2206 1.327 . S
C2204 H2227 0.950 . S
C2205 C2204 1.349 . S
C2205 C2217 1.349 . S
C2206 C2204 1.327 . S
C2206 C2222 1.429 . S
C2206 H2228 0.950 . S
C2207 H2203 0.949 . S
C2207 C2215 1.574 . S
C2207 C2223 1.368 . S
H2208 C2216 0.950 . S
H2209 C2214 0.950 . S
H2210 C2215 0.949 . S
H2211 C2217 0.950 . S
H2212 C2218 0.950 . S
H2213 C2219 0.949 . S
C2214 H2209 0.950 . S
C2214 C2216 1.327 . S
C2214 C2220 1.429 . S
C2215 C2207 1.574 . S
C2215 H2210 0.949 . S
C2215 C2221 1.368 . S
C2216 C2200 1.349 . S
C2216 H2208 0.950 . S
C2216 C2214 1.327 . S
C2217 C2205 1.349 . S
C2217 H2211 0.950 . S
C2217 C2218 1.327 . S
C2218 H2212 0.950 . S
C2218 C2217 1.327 . S
C2218 C2222 1.429 . S
C2219 C2202 1.574 . S
C2219 H2213 0.949 . S
C2219 C2223 1.368 . S
C2220 C2201 1.429 . S
C2220 C2214 1.429 . S
C2220 C2221 1.523 . S
C2221 C2202 1.368 . S
C2221 C2215 1.368 . S
C2221 C2220 1.523 . S
C2222 C2206 1.429 . S
C2222 C2218 1.429 . S
C2222 C2223 1.523 . S
C2223 C2207 1.368 . S
C2223 C2219 1.368 . S
C2223 C2222 1.523 . S
H2224 C2199 0.950 . S
H2225 C2201 0.950 . S
H2226 C2202 0.949 . S
H2227 C2204 0.950 . S
H2228 C2206 0.950 . S
C2229 C2230 1.349 . S
C2229 C2231 1.327 . S
C2229 H2254 0.950 . S
C2230 C2229 1.349 . S
C2230 C2246 1.349 . S
C2231 C2229 1.327 . S
C2231 C2250 1.429 . S
C2231 H2255 0.950 . S
C2232 C2249 1.574 . S
C2232 C2251 1.368 . S
C2232 H2256 0.949 . S
H2233 C2237 0.949 . S
C2234 C2235 1.349 . S
C2234 C2236 1.327 . S
C2234 H2257 0.950 . S
C2235 C2234 1.349 . S
C2235 C2247 1.349 . S
C2236 C2234 1.327 . S
C2236 C2252 1.429 . S
C2236 H2258 0.950 . S
C2237 H2233 0.949 . S
C2237 C2245 1.574 . S
C2237 C2253 1.368 . S
H2238 C2246 0.950 . S
H2239 C2244 0.950 . S
H2240 C2245 0.949 . S
H2241 C2247 0.950 . S
H2242 C2248 0.950 . S
H2243 C2249 0.949 . S
C2244 H2239 0.950 . S
C2244 C2246 1.327 . S
C2244 C2250 1.429 . S
C2245 C2237 1.574 . S
C2245 H2240 0.949 . S
C2245 C2251 1.368 . S
C2246 C2230 1.349 . S
C2246 H2238 0.950 . S
C2246 C2244 1.327 . S
C2247 C2235 1.349 . S
C2247 H2241 0.950 . S
C2247 C2248 1.327 . S
C2248 H2242 0.950 . S
C2248 C2247 1.327 . S
C2248 C2252 1.429 . S
C2249 C2232 1.574 . S
C2249 H2243 0.949 . S
C2249 C2253 1.368 . S
C2250 C2231 1.429 . S
C2250 C2244 1.429 . S
C2250 C2251 1.523 . S
C2251 C2232 1.368 . S
C2251 C2245 1.368 . S
C2251 C2250 1.523 . S
C2252 C2236 1.429 . S
C2252 C2248 1.429 . S
C2252 C2253 1.523 . S
C2253 C2237 1.368 . S
C2253 C2249 1.368 . S
C2253 C2252 1.523 . S
H2254 C2229 0.950 . S
H2255 C2231 0.950 . S
H2256 C2232 0.949 . S
H2257 C2234 0.950 . S
H2258 C2236 0.950 . S
C2259 C2260 1.349 . S
C2259 C2261 1.327 . S
C2259 H2284 0.950 . S
C2260 C2259 1.349 . S
C2260 C2276 1.349 . S
C2261 C2259 1.327 . S
C2261 C2280 1.429 . S
C2261 H2285 0.950 . S
C2262 C2279 1.574 . S
C2262 C2281 1.368 . S
C2262 H2286 0.949 . S
H2263 C2267 0.949 . S
C2264 C2265 1.349 . S
C2264 C2266 1.327 . S
C2264 H2287 0.950 . S
C2265 C2264 1.349 . S
C2265 C2277 1.349 . S
C2266 C2264 1.327 . S
C2266 C2282 1.429 . S
C2266 H2288 0.950 . S
C2267 H2263 0.949 . S
C2267 C2275 1.574 . S
C2267 C2283 1.368 . S
H2268 C2276 0.950 . S
H2269 C2274 0.950 . S
H2270 C2275 0.949 . S
H2271 C2277 0.950 . S
H2272 C2278 0.950 . S
H2273 C2279 0.949 . S
C2274 H2269 0.950 . S
C2274 C2276 1.327 . S
C2274 C2280 1.429 . S
C2275 C2267 1.574 . S
C2275 H2270 0.949 . S
C2275 C2281 1.368 . S
C2276 C2260 1.349 . S
C2276 H2268 0.950 . S
C2276 C2274 1.327 . S
C2277 C2265 1.349 . S
C2277 H2271 0.950 . S
C2277 C2278 1.327 . S
C2278 H2272 0.950 . S
C2278 C2277 1.327 . S
C2278 C2282 1.429 . S
C2279 C2262 1.574 . S
C2279 H2273 0.949 . S
C2279 C2283 1.368 . S
C2280 C2261 1.429 . S
C2280 C2274 1.429 . S
C2280 C2281 1.523 . S
C2281 C2262 1.368 . S
C2281 C2275 1.368 . S
C2281 C2280 1.523 . S
C2282 C2266 1.429 . S
C2282 C2278 1.429 . S
C2282 C2283 1.523 . S
C2283 C2267 1.368 . S
C2283 C2279 1.368 . S
C2283 C2282 1.523 . S
H2284 C2259 0.950 . S
H2285 C2261 0.950 . S
H2286 C2262 0.949 . S
H2287 C2264 0.950 . S
H2288 C2266 0.950 . S
C2289 C2290 1.349 . S
C2289 C2291 1.327 . S
C2289 H2314 0.950 . S
C2290 C2289 1.349 . S
C2290 C2306 1.349 . S
C2291 C2289 1.327 . S
C2291 C2310 1.429 . S
C2291 H2315 0.950 . S
C2292 C2309 1.574 . S
C2292 C2311 1.368 . S
C2292 H2316 0.949 . S
H2293 C2297 0.949 . S
C2294 C2295 1.349 . S
C2294 C2296 1.327 . S
C2294 H2317 0.950 . S
C2295 C2294 1.349 . S
C2295 C2307 1.349 . S
C2296 C2294 1.327 . S
C2296 C2312 1.429 . S
C2296 H2318 0.950 . S
C2297 H2293 0.949 . S
C2297 C2305 1.574 . S
C2297 C2313 1.368 . S
H2298 C2306 0.950 . S
H2299 C2304 0.950 . S
H2300 C2305 0.949 . S
H2301 C2307 0.950 . S
H2302 C2308 0.950 . S
H2303 C2309 0.949 . S
C2304 H2299 0.950 . S
C2304 C2306 1.327 . S
C2304 C2310 1.429 . S
C2305 C2297 1.574 . S
C2305 H2300 0.949 . S
C2305 C2311 1.368 . S
C2306 C2290 1.349 . S
C2306 H2298 0.950 . S
C2306 C2304 1.327 . S
C2307 C2295 1.349 . S
C2307 H2301 0.950 . S
C2307 C2308 1.327 . S
C2308 H2302 0.950 . S
C2308 C2307 1.327 . S
C2308 C2312 1.429 . S
C2309 C2292 1.574 . S
C2309 H2303 0.949 . S
C2309 C2313 1.368 . S
C2310 C2291 1.429 . S
C2310 C2304 1.429 . S
C2310 C2311 1.523 . S
C2311 C2292 1.368 . S
C2311 C2305 1.368 . S
C2311 C2310 1.523 . S
C2312 C2296 1.429 . S
C2312 C2308 1.429 . S
C2312 C2313 1.523 . S
C2313 C2297 1.368 . S
C2313 C2309 1.368 . S
C2313 C2312 1.523 . S
H2314 C2289 0.950 . S
H2315 C2291 0.950 . S
H2316 C2292 0.949 . S
H2317 C2294 0.950 . S
H2318 C2296 0.950 . S
C2319 C2320 1.349 . S
C2319 C2321 1.327 . S
C2319 H2344 0.950 . S
C2320 C2319 1.349 . S
C2320 C2336 1.349 . S
C2321 C2319 1.327 . S
C2321 C2340 1.429 . S
C2321 H2345 0.950 . S
C2322 C2339 1.574 . S
C2322 C2341 1.368 . S
C2322 H2346 0.949 . S
H2323 C2327 0.949 . S
C2324 C2325 1.349 . S
C2324 C2326 1.327 . S
C2324 H2347 0.950 . S
C2325 C2324 1.349 . S
C2325 C2337 1.349 . S
C2326 C2324 1.327 . S
C2326 C2342 1.429 . S
C2326 H2348 0.950 . S
C2327 H2323 0.949 . S
C2327 C2335 1.574 . S
C2327 C2343 1.368 . S
H2328 C2336 0.950 . S
H2329 C2334 0.950 . S
H2330 C2335 0.949 . S
H2331 C2337 0.950 . S
H2332 C2338 0.950 . S
H2333 C2339 0.949 . S
C2334 H2329 0.950 . S
C2334 C2336 1.327 . S
C2334 C2340 1.429 . S
C2335 C2327 1.574 . S
C2335 H2330 0.949 . S
C2335 C2341 1.368 . S
C2336 C2320 1.349 . S
C2336 H2328 0.950 . S
C2336 C2334 1.327 . S
C2337 C2325 1.349 . S
C2337 H2331 0.950 . S
C2337 C2338 1.327 . S
C2338 H2332 0.950 . S
C2338 C2337 1.327 . S
C2338 C2342 1.429 . S
C2339 C2322 1.574 . S
C2339 H2333 0.949 . S
C2339 C2343 1.368 . S
C2340 C2321 1.429 . S
C2340 C2334 1.429 . S
C2340 C2341 1.523 . S
C2341 C2322 1.368 . S
C2341 C2335 1.368 . S
C2341 C2340 1.523 . S
C2342 C2326 1.429 . S
C2342 C2338 1.429 . S
C2342 C2343 1.523 . S
C2343 C2327 1.368 . S
C2343 C2339 1.368 . S
C2343 C2342 1.523 . S
H2344 C2319 0.950 . S
H2345 C2321 0.950 . S
H2346 C2322 0.949 . S
H2347 C2324 0.950 . S
H2348 C2326 0.950 . S
C2349 C2350 1.349 . S
C2349 C2351 1.327 . S
C2349 H2374 0.950 . S
C2350 C2349 1.349 . S
C2350 C2366 1.349 . S
C2351 C2349 1.327 . S
C2351 C2370 1.429 . S
C2351 H2375 0.950 . S
C2352 C2369 1.574 . S
C2352 C2371 1.368 . S
C2352 H2376 0.949 . S
H2353 C2357 0.949 . S
C2354 C2355 1.349 . S
C2354 C2356 1.327 . S
C2354 H2377 0.950 . S
C2355 C2354 1.349 . S
C2355 C2367 1.349 . S
C2356 C2354 1.327 . S
C2356 C2372 1.429 . S
C2356 H2378 0.950 . S
C2357 H2353 0.949 . S
C2357 C2365 1.574 . S
C2357 C2373 1.368 . S
H2358 C2366 0.950 . S
H2359 C2364 0.950 . S
H2360 C2365 0.949 . S
H2361 C2367 0.950 . S
H2362 C2368 0.950 . S
H2363 C2369 0.949 . S
C2364 H2359 0.950 . S
C2364 C2366 1.327 . S
C2364 C2370 1.429 . S
C2365 C2357 1.574 . S
C2365 H2360 0.949 . S
C2365 C2371 1.368 . S
C2366 C2350 1.349 . S
C2366 H2358 0.950 . S
C2366 C2364 1.327 . S
C2367 C2355 1.349 . S
C2367 H2361 0.950 . S
C2367 C2368 1.327 . S
C2368 H2362 0.950 . S
C2368 C2367 1.327 . S
C2368 C2372 1.429 . S
C2369 C2352 1.574 . S
C2369 H2363 0.949 . S
C2369 C2373 1.368 . S
C2370 C2351 1.429 . S
C2370 C2364 1.429 . S
C2370 C2371 1.523 . S
C2371 C2352 1.368 . S
C2371 C2365 1.368 . S
C2371 C2370 1.523 . S
C2372 C2356 1.429 . S
C2372 C2368 1.429 . S
C2372 C2373 1.523 . S
C2373 C2357 1.368 . S
C2373 C2369 1.368 . S
C2373 C2372 1.523 . S
H2374 C2349 0.950 . S
H2375 C2351 0.950 . S
H2376 C2352 0.949 . S
H2377 C2354 0.950 . S
H2378 C2356 0.950 . S
C2379 C2380 1.349 . S
C2379 C2381 1.327 . S
C2379 H2404 0.950 . S
C2380 C2379 1.349 . S
C2380 C2396 1.349 . S
C2381 C2379 1.327 . S
C2381 C2400 1.429 . S
C2381 H2405 0.950 . S
C2382 C2399 1.574 . S
C2382 C2401 1.368 . S
C2382 H2406 0.949 . S
H2383 C2387 0.949 . S
C2384 C2385 1.349 . S
C2384 C2386 1.327 . S
C2384 H2407 0.950 . S
C2385 C2384 1.349 . S
C2385 C2397 1.349 . S
C2386 C2384 1.327 . S
C2386 C2402 1.429 . S
C2386 H2408 0.950 . S
C2387 H2383 0.949 . S
C2387 C2395 1.574 . S
C2387 C2403 1.368 . S
H2388 C2396 0.950 . S
H2389 C2394 0.950 . S
H2390 C2395 0.949 . S
H2391 C2397 0.950 . S
H2392 C2398 0.950 . S
H2393 C2399 0.949 . S
C2394 H2389 0.950 . S
C2394 C2396 1.327 . S
C2394 C2400 1.429 . S
C2395 C2387 1.574 . S
C2395 H2390 0.949 . S
C2395 C2401 1.368 . S
C2396 C2380 1.349 . S
C2396 H2388 0.950 . S
C2396 C2394 1.327 . S
C2397 C2385 1.349 . S
C2397 H2391 0.950 . S
C2397 C2398 1.327 . S
C2398 H2392 0.950 . S
C2398 C2397 1.327 . S
C2398 C2402 1.429 . S
C2399 C2382 1.574 . S
C2399 H2393 0.949 . S
C2399 C2403 1.368 . S
C2400 C2381 1.429 . S
C2400 C2394 1.429 . S
C2400 C2401 1.523 . S
C2401 C2382 1.368 . S
C2401 C2395 1.368 . S
C2401 C2400 1.523 . S
C2402 C2386 1.429 . S
C2402 C2398 1.429 . S
C2402 C2403 1.523 . S
C2403 C2387 1.368 . S
C2403 C2399 1.368 . S
C2403 C2402 1.523 . S
H2404 C2379 0.950 . S
H2405 C2381 0.950 . S
H2406 C2382 0.949 . S
H2407 C2384 0.950 . S
H2408 C2386 0.950 . S
C2409 C2410 1.349 . S
C2409 C2411 1.327 . S
C2409 H2434 0.950 . S
C2410 C2409 1.349 . S
C2410 C2426 1.349 . S
C2411 C2409 1.327 . S
C2411 C2430 1.429 . S
C2411 H2435 0.950 . S
C2412 C2429 1.574 . S
C2412 C2431 1.368 . S
C2412 H2436 0.949 . S
H2413 C2417 0.949 . S
C2414 C2415 1.349 . S
C2414 C2416 1.327 . S
C2414 H2437 0.950 . S
C2415 C2414 1.349 . S
C2415 C2427 1.349 . S
C2416 C2414 1.327 . S
C2416 C2432 1.429 . S
C2416 H2438 0.950 . S
C2417 H2413 0.949 . S
C2417 C2425 1.574 . S
C2417 C2433 1.368 . S
H2418 C2426 0.950 . S
H2419 C2424 0.950 . S
H2420 C2425 0.949 . S
H2421 C2427 0.950 . S
H2422 C2428 0.950 . S
H2423 C2429 0.949 . S
C2424 H2419 0.950 . S
C2424 C2426 1.327 . S
C2424 C2430 1.429 . S
C2425 C2417 1.574 . S
C2425 H2420 0.949 . S
C2425 C2431 1.368 . S
C2426 C2410 1.349 . S
C2426 H2418 0.950 . S
C2426 C2424 1.327 . S
C2427 C2415 1.349 . S
C2427 H2421 0.950 . S
C2427 C2428 1.327 . S
C2428 H2422 0.950 . S
C2428 C2427 1.327 . S
C2428 C2432 1.429 . S
C2429 C2412 1.574 . S
C2429 H2423 0.949 . S
C2429 C2433 1.368 . S
C2430 C2411 1.429 . S
C2430 C2424 1.429 . S
C2430 C2431 1.523 . S
C2431 C2412 1.368 . S
C2431 C2425 1.368 . S
C2431 C2430 1.523 . S
C2432 C2416 1.429 . S
C2432 C2428 1.429 . S
C2432 C2433 1.523 . S
C2433 C2417 1.368 . S
C2433 C2429 1.368 . S
C2433 C2432 1.523 . S
H2434 C2409 0.950 . S
H2435 C2411 0.950 . S
H2436 C2412 0.949 . S
H2437 C2414 0.950 . S
H2438 C2416 0.950 . S
C2439 C2440 1.349 . S
C2439 C2441 1.327 . S
C2439 H2464 0.950 . S
C2440 C2439 1.349 . S
C2440 C2456 1.349 . S
C2441 C2439 1.327 . S
C2441 C2460 1.429 . S
C2441 H2465 0.950 . S
C2442 C2459 1.574 . S
C2442 C2461 1.368 . S
C2442 H2466 0.949 . S
H2443 C2447 0.949 . S
C2444 C2445 1.349 . S
C2444 C2446 1.327 . S
C2444 H2467 0.950 . S
C2445 C2444 1.349 . S
C2445 C2457 1.349 . S
C2446 C2444 1.327 . S
C2446 C2462 1.429 . S
C2446 H2468 0.950 . S
C2447 H2443 0.949 . S
C2447 C2455 1.574 . S
C2447 C2463 1.368 . S
H2448 C2456 0.950 . S
H2449 C2454 0.950 . S
H2450 C2455 0.949 . S
H2451 C2457 0.950 . S
H2452 C2458 0.950 . S
H2453 C2459 0.949 . S
C2454 H2449 0.950 . S
C2454 C2456 1.327 . S
C2454 C2460 1.429 . S
C2455 C2447 1.574 . S
C2455 H2450 0.949 . S
C2455 C2461 1.368 . S
C2456 C2440 1.349 . S
C2456 H2448 0.950 . S
C2456 C2454 1.327 . S
C2457 C2445 1.349 . S
C2457 H2451 0.950 . S
C2457 C2458 1.327 . S
C2458 H2452 0.950 . S
C2458 C2457 1.327 . S
C2458 C2462 1.429 . S
C2459 C2442 1.574 . S
C2459 H2453 0.949 . S
C2459 C2463 1.368 . S
C2460 C2441 1.429 . S
C2460 C2454 1.429 . S
C2460 C2461 1.523 . S
C2461 C2442 1.368 . S
C2461 C2455 1.368 . S
C2461 C2460 1.523 . S
C2462 C2446 1.429 . S
C2462 C2458 1.429 . S
C2462 C2463 1.523 . S
C2463 C2447 1.368 . S
C2463 C2459 1.368 . S
C2463 C2462 1.523 . S
H2464 C2439 0.950 . S
H2465 C2441 0.950 . S
H2466 C2442 0.949 . S
H2467 C2444 0.950 . S
H2468 C2446 0.950 . S
C2469 C2470 1.349 . S
C2469 C2471 1.327 . S
C2469 H2494 0.950 . S
C2470 C2469 1.349 . S
C2470 C2486 1.349 . S
C2471 C2469 1.327 . S
C2471 C2490 1.429 . S
C2471 H2495 0.950 . S
C2472 C2489 1.574 . S
C2472 C2491 1.368 . S
C2472 H2496 0.949 . S
H2473 C2477 0.949 . S
C2474 C2475 1.349 . S
C2474 C2476 1.327 . S
C2474 H2497 0.950 . S
C2475 C2474 1.349 . S
C2475 C2487 1.349 . S
C2476 C2474 1.327 . S
C2476 C2492 1.429 . S
C2476 H2498 0.950 . S
C2477 H2473 0.949 . S
C2477 C2485 1.574 . S
C2477 C2493 1.368 . S
H2478 C2486 0.950 . S
H2479 C2484 0.950 . S
H2480 C2485 0.949 . S
H2481 C2487 0.950 . S
H2482 C2488 0.950 . S
H2483 C2489 0.949 . S
C2484 H2479 0.950 . S
C2484 C2486 1.327 . S
C2484 C2490 1.429 . S
C2485 C2477 1.574 . S
C2485 H2480 0.949 . S
C2485 C2491 1.368 . S
C2486 C2470 1.349 . S
C2486 H2478 0.950 . S
C2486 C2484 1.327 . S
C2487 C2475 1.349 . S
C2487 H2481 0.950 . S
C2487 C2488 1.327 . S
C2488 H2482 0.950 . S
C2488 C2487 1.327 . S
C2488 C2492 1.429 . S
C2489 C2472 1.574 . S
C2489 H2483 0.949 . S
C2489 C2493 1.368 . S
C2490 C2471 1.429 . S
C2490 C2484 1.429 . S
C2490 C2491 1.523 . S
C2491 C2472 1.368 . S
C2491 C2485 1.368 . S
C2491 C2490 1.523 . S
C2492 C2476 1.429 . S
C2492 C2488 1.429 . S
C2492 C2493 1.523 . S
C2493 C2477 1.368 . S
C2493 C2489 1.368 . S
C2493 C2492 1.523 . S
H2494 C2469 0.950 . S
H2495 C2471 0.950 . S
H2496 C2472 0.949 . S
H2497 C2474 0.950 . S
H2498 C2476 0.950 . S
C2499 C2500 1.349 . S
C2499 C2501 1.327 . S
C2499 H2524 0.950 . S
C2500 C2499 1.349 . S
C2500 C2516 1.349 . S
C2501 C2499 1.327 . S
C2501 C2520 1.429 . S
C2501 H2525 0.950 . S
C2502 C2519 1.574 . S
C2502 C2521 1.368 . S
C2502 H2526 0.949 . S
H2503 C2507 0.949 . S
C2504 C2505 1.349 . S
C2504 C2506 1.327 . S
C2504 H2527 0.950 . S
C2505 C2504 1.349 . S
C2505 C2517 1.349 . S
C2506 C2504 1.327 . S
C2506 C2522 1.429 . S
C2506 H2528 0.950 . S
C2507 H2503 0.949 . S
C2507 C2515 1.574 . S
C2507 C2523 1.368 . S
H2508 C2516 0.950 . S
H2509 C2514 0.950 . S
H2510 C2515 0.949 . S
H2511 C2517 0.950 . S
H2512 C2518 0.950 . S
H2513 C2519 0.949 . S
C2514 H2509 0.950 . S
C2514 C2516 1.327 . S
C2514 C2520 1.429 . S
C2515 C2507 1.574 . S
C2515 H2510 0.949 . S
C2515 C2521 1.368 . S
C2516 C2500 1.349 . S
C2516 H2508 0.950 . S
C2516 C2514 1.327 . S
C2517 C2505 1.349 . S
C2517 H2511 0.950 . S
C2517 C2518 1.327 . S
C2518 H2512 0.950 . S
C2518 C2517 1.327 . S
C2518 C2522 1.429 . S
C2519 C2502 1.574 . S
C2519 H2513 0.949 . S
C2519 C2523 1.368 . S
C2520 C2501 1.429 . S
C2520 C2514 1.429 . S
C2520 C2521 1.523 . S
C2521 C2502 1.368 . S
C2521 C2515 1.368 . S
C2521 C2520 1.523 . S
C2522 C2506 1.429 . S
C2522 C2518 1.429 . S
C2522 C2523 1.523 . S
C2523 C2507 1.368 . S
C2523 C2519 1.368 . S
C2523 C2522 1.523 . S
H2524 C2499 0.950 . S
H2525 C2501 0.950 . S
H2526 C2502 0.949 . S
H2527 C2504 0.950 . S
H2528 C2506 0.950 . S
C910 C522 1.427 . S
C915 C734 1.344 . S
C940 C562 1.413 . S
C945 C755 1.328 . S
C970 C495 1.336 . S
C975 C775 1.143 . S
C1000 C455 1.366 . S
C1005 C754 1.160 1_556 S
C1035 C776 1.357 . S
C1030 C362 1.450 . S
C1060 C402 1.391 . S
C1065 C733 1.158 1_556 S
C1095 C735 1.302 . S
C1090 C442 1.341 . S
C1125 C756 1.248 . S
C1120 C375 1.306 . S
C1150 C415 1.405 . S
C1155 C778 1.182 1_556 S
C1180 C535 1.344 . S
C1185 C757 1.141 . S
C1210 C575 1.258 . S
C1215 C777 1.201 . S
C1245 C736 1.168 . S
C1240 C482 1.349 . S
C1275 C797 1.344 . S
C1270 C42 1.427 . S
C1300 C82 1.413 . S
C1305 C818 1.328 . S
C1330 C15 1.336 . S
C1335 C838 1.143 . S
C1360 C695 1.366 . S
C1365 C817 1.160 . S
C1390 C602 1.450 . S
C1395 C839 1.357 . S
C1420 C642 1.391 . S
C1425 C796 1.158 . S
C1450 C682 1.342 . S
C1455 C798 1.302 . S
C1480 C615 1.306 . S
C1485 C819 1.248 . S
C1515 C841 1.181 . S
C1510 C655 1.405 . S
C1540 C55 1.344 . S
C1545 C820 1.141 . S
C1575 C840 1.201 . S
C1570 C95 1.258 . S
C1600 C2 1.349 . S
C1605 C799 1.168 . S
C1635 C860 1.344 . S
C1630 C282 1.427 . S
C1660 C322 1.413 . S
C1665 C881 1.328 . S
C1695 C901 1.143 . S
C1690 C255 1.336 . S
C1725 C880 1.160 . S
C1720 C215 1.367 . S
C1755 C902 1.357 . S
C1750 C122 1.450 . S
C1780 C162 1.391 . S
C1785 C859 1.159 . S
C1810 C202 1.342 . S
C1815 C861 1.302 . S
C1840 C135 1.306 . S
C1845 C882 1.248 . S
C1875 C904 1.182 . S
C1870 C175 1.405 . S
C1900 C295 1.344 . S
C1905 C883 1.141 . S
C1930 C335 1.258 . S
C1935 C903 1.201 . S
C1960 C242 1.349 . S
C1965 C862 1.168 . S
C1990 C621 1.386 . S
C1995 C738 1.341 . S
C2025 C759 1.398 . S
C2020 C661 1.442 . S
C2050 C701 1.490 . S
C2055 C779 1.499 . S
C2080 C261 1.541 . S
C2085 C758 1.545 1_655 S
C2110 C301 1.452 . S
C2115 C780 1.406 . S
C2145 C737 1.469 . S
C2140 C341 1.504 . S
C2170 C141 1.386 . S
C2175 C801 1.342 . S
C2200 C181 1.442 . S
C2205 C822 1.398 . S
C2230 C221 1.490 . S
C2235 C842 1.499 . S
C2260 C501 1.541 . S
C2265 C821 1.545 . S
C2295 C843 1.406 . S
C2290 C541 1.452 . S
C2320 C581 1.505 . S
C2325 C800 1.469 . S
C2350 C381 1.386 . S
C2355 C864 1.342 . S
C2380 C421 1.442 . S
C2385 C885 1.398 . S
C2415 C905 1.499 . S
C2410 C461 1.490 . S
C2440 C21 1.541 . S
C2445 C884 1.545 . S
C2470 C61 1.452 . S
C2475 C906 1.406 . S
C2500 C101 1.505 . S
C2505 C863 1.469 . S
