# Generated by pormake.
# Topology ctn, (3,4)-cn, num edge types: 1
# Building blocks:
#     Node 0, Type 0, BuildingBlock: OLANEW_clean_sbu_2, # of connection points: 3
#     Node 1, Type 0, BuildingBlock: OLANEW_clean_sbu_2, # of connection points: 3
#     Node 2, Type 0, BuildingBlock: OLANEW_clean_sbu_2, # of connection points: 3
#     Node 3, Type 0, BuildingBlock: OLANEW_clean_sbu_2, # of connection points: 3
#     Node 4, Type 0, BuildingBlock: OLANEW_clean_sbu_2, # of connection points: 3
#     Node 5, Type 0, BuildingBlock: OLANEW_clean_sbu_2, # of connection points: 3
#     Node 6, Type 0, BuildingBlock: OLANEW_clean_sbu_2, # of connection points: 3
#     Node 7, Type 0, BuildingBlock: OLANEW_clean_sbu_2, # of connection points: 3
#     Node 8, Type 0, BuildingBlock: OLANEW_clean_sbu_2, # of connection points: 3
#     Node 9, Type 0, BuildingBlock: OLANEW_clean_sbu_2, # of connection points: 3
#     Node 10, Type 0, BuildingBlock: OLANEW_clean_sbu_2, # of connection points: 3
#     Node 11, Type 0, BuildingBlock: OLANEW_clean_sbu_2, # of connection points: 3
#     Node 12, Type 0, BuildingBlock: OLANEW_clean_sbu_2, # of connection points: 3
#     Node 13, Type 0, BuildingBlock: OLANEW_clean_sbu_2, # of connection points: 3
#     Node 14, Type 0, BuildingBlock: OLANEW_clean_sbu_2, # of connection points: 3
#     Node 15, Type 0, BuildingBlock: OLANEW_clean_sbu_2, # of connection points: 3
#     Node 16, Type 1, BuildingBlock: NAHDIM_clean_sbu_0, # of connection points: 4
#     Node 17, Type 1, BuildingBlock: NAHDIM_clean_sbu_0, # of connection points: 4
#     Node 18, Type 1, BuildingBlock: NAHDIM_clean_sbu_0, # of connection points: 4
#     Node 19, Type 1, BuildingBlock: NAHDIM_clean_sbu_0, # of connection points: 4
#     Node 20, Type 1, BuildingBlock: NAHDIM_clean_sbu_0, # of connection points: 4
#     Node 21, Type 1, BuildingBlock: NAHDIM_clean_sbu_0, # of connection points: 4
#     Node 22, Type 1, BuildingBlock: NAHDIM_clean_sbu_0, # of connection points: 4
#     Node 23, Type 1, BuildingBlock: NAHDIM_clean_sbu_0, # of connection points: 4
#     Node 24, Type 1, BuildingBlock: NAHDIM_clean_sbu_0, # of connection points: 4
#     Node 25, Type 1, BuildingBlock: NAHDIM_clean_sbu_0, # of connection points: 4
#     Node 26, Type 1, BuildingBlock: NAHDIM_clean_sbu_0, # of connection points: 4
#     Node 27, Type 1, BuildingBlock: NAHDIM_clean_sbu_0, # of connection points: 4
#     Edge 28, Type (0, 1), BuildingBlock: MIFKUJ_clean_linker_0, # of connection points: 2
#     Edge 29, Type (0, 1), BuildingBlock: MIFKUJ_clean_linker_0, # of connection points: 2
#     Edge 30, Type (0, 1), BuildingBlock: MIFKUJ_clean_linker_0, # of connection points: 2
#     Edge 31, Type (0, 1), BuildingBlock: MIFKUJ_clean_linker_0, # of connection points: 2
#     Edge 32, Type (0, 1), BuildingBlock: MIFKUJ_clean_linker_0, # of connection points: 2
#     Edge 33, Type (0, 1), BuildingBlock: MIFKUJ_clean_linker_0, # of connection points: 2
#     Edge 34, Type (0, 1), BuildingBlock: MIFKUJ_clean_linker_0, # of connection points: 2
#     Edge 35, Type (0, 1), BuildingBlock: MIFKUJ_clean_linker_0, # of connection points: 2
#     Edge 36, Type (0, 1), BuildingBlock: MIFKUJ_clean_linker_0, # of connection points: 2
#     Edge 37, Type (0, 1), BuildingBlock: MIFKUJ_clean_linker_0, # of connection points: 2
#     Edge 38, Type (0, 1), BuildingBlock: MIFKUJ_clean_linker_0, # of connection points: 2
#     Edge 39, Type (0, 1), BuildingBlock: MIFKUJ_clean_linker_0, # of connection points: 2
#     Edge 40, Type (0, 1), BuildingBlock: MIFKUJ_clean_linker_0, # of connection points: 2
#     Edge 41, Type (0, 1), BuildingBlock: MIFKUJ_clean_linker_0, # of connection points: 2
#     Edge 42, Type (0, 1), BuildingBlock: MIFKUJ_clean_linker_0, # of connection points: 2
#     Edge 43, Type (0, 1), BuildingBlock: MIFKUJ_clean_linker_0, # of connection points: 2
#     Edge 44, Type (0, 1), BuildingBlock: MIFKUJ_clean_linker_0, # of connection points: 2
#     Edge 45, Type (0, 1), BuildingBlock: MIFKUJ_clean_linker_0, # of connection points: 2
#     Edge 46, Type (0, 1), BuildingBlock: MIFKUJ_clean_linker_0, # of connection points: 2
#     Edge 47, Type (0, 1), BuildingBlock: MIFKUJ_clean_linker_0, # of connection points: 2
#     Edge 48, Type (0, 1), BuildingBlock: MIFKUJ_clean_linker_0, # of connection points: 2
#     Edge 49, Type (0, 1), BuildingBlock: MIFKUJ_clean_linker_0, # of connection points: 2
#     Edge 50, Type (0, 1), BuildingBlock: MIFKUJ_clean_linker_0, # of connection points: 2
#     Edge 51, Type (0, 1), BuildingBlock: MIFKUJ_clean_linker_0, # of connection points: 2
#     Edge 52, Type (0, 1), BuildingBlock: MIFKUJ_clean_linker_0, # of connection points: 2
#     Edge 53, Type (0, 1), BuildingBlock: MIFKUJ_clean_linker_0, # of connection points: 2
#     Edge 54, Type (0, 1), BuildingBlock: MIFKUJ_clean_linker_0, # of connection points: 2
#     Edge 55, Type (0, 1), BuildingBlock: MIFKUJ_clean_linker_0, # of connection points: 2
#     Edge 56, Type (0, 1), BuildingBlock: MIFKUJ_clean_linker_0, # of connection points: 2
#     Edge 57, Type (0, 1), BuildingBlock: MIFKUJ_clean_linker_0, # of connection points: 2
#     Edge 58, Type (0, 1), BuildingBlock: MIFKUJ_clean_linker_0, # of connection points: 2
#     Edge 59, Type (0, 1), BuildingBlock: MIFKUJ_clean_linker_0, # of connection points: 2
#     Edge 60, Type (0, 1), BuildingBlock: MIFKUJ_clean_linker_0, # of connection points: 2
#     Edge 61, Type (0, 1), BuildingBlock: MIFKUJ_clean_linker_0, # of connection points: 2
#     Edge 62, Type (0, 1), BuildingBlock: MIFKUJ_clean_linker_0, # of connection points: 2
#     Edge 63, Type (0, 1), BuildingBlock: MIFKUJ_clean_linker_0, # of connection points: 2
#     Edge 64, Type (0, 1), BuildingBlock: MIFKUJ_clean_linker_0, # of connection points: 2
#     Edge 65, Type (0, 1), BuildingBlock: MIFKUJ_clean_linker_0, # of connection points: 2
#     Edge 66, Type (0, 1), BuildingBlock: MIFKUJ_clean_linker_0, # of connection points: 2
#     Edge 67, Type (0, 1), BuildingBlock: MIFKUJ_clean_linker_0, # of connection points: 2
#     Edge 68, Type (0, 1), BuildingBlock: MIFKUJ_clean_linker_0, # of connection points: 2
#     Edge 69, Type (0, 1), BuildingBlock: MIFKUJ_clean_linker_0, # of connection points: 2
#     Edge 70, Type (0, 1), BuildingBlock: MIFKUJ_clean_linker_0, # of connection points: 2
#     Edge 71, Type (0, 1), BuildingBlock: MIFKUJ_clean_linker_0, # of connection points: 2
#     Edge 72, Type (0, 1), BuildingBlock: MIFKUJ_clean_linker_0, # of connection points: 2
#     Edge 73, Type (0, 1), BuildingBlock: MIFKUJ_clean_linker_0, # of connection points: 2
#     Edge 74, Type (0, 1), BuildingBlock: MIFKUJ_clean_linker_0, # of connection points: 2
#     Edge 75, Type (0, 1), BuildingBlock: MIFKUJ_clean_linker_0, # of connection points: 2
# Relax obj value: 0.048
# Max RMSD: 0.166
# Mean RMSD: 0.097
data_MOF--net-ctn--node1-OLANEW_clean_sbu_2--node2-NAHDIM_clean_sbu_0--edge1-MIFKUJ_clean_linker_0
_symmetry_space_group_name_H-M    P1
_symmetry_Int_Tables_number       1
_symmetry_cell_setting            triclinic
loop_
_symmetry_equiv_pos_as_xyz
'x, y, z'
_cell_length_a     74.328995
_cell_length_b     76.552664
_cell_length_c     71.991936
_cell_angle_alpha  92.217636
_cell_angle_beta   94.082117
_cell_angle_gamma 97.303422
loop_
_atom_site_label
_atom_site_type_symbol
_atom_site_fract_x
_atom_site_fract_y
_atom_site_fract_z
_atom_type_partial_charge
O0 O 0.02922 0.03248 0.98552 0.0
Cd1 Cd 0.02719 0.00132 0.99255 0.0
O2 O 0.02139 0.03813 0.0136 0.0
Cd3 Cd 0.01197 0.05279 0.03688 0.0
O4 O 0.0006 0.05879 0.06317 0.0
C5 C 0.98527 0.05038 0.06608 0.0
O6 O 0.9769 0.03919 0.05299 0.0
C7 C 0.02539 0.04357 0.99774 0.0
C8 C 0.06057 0.98855 0.998 0.0
O9 O 0.05264 0.98883 0.98163 0.0
O10 O 0.05285 0.99462 0.01179 0.0
O11 O 0.29419 0.74055 0.27824 0.0
Cd12 Cd 0.26451 0.73397 0.26065 0.0
O13 O 0.30753 0.72386 0.25938 0.0
Cd14 Cd 0.28167 0.71091 0.24633 0.0
O15 O 0.2594 0.68927 0.24517 0.0
C16 C 0.26338 0.67535 0.25267 0.0
O17 O 0.28011 0.67505 0.25977 0.0
C18 C 0.30854 0.73485 0.27323 0.0
C19 C 0.26243 0.75449 0.2295 0.0
O20 O 0.25742 0.75978 0.2452 0.0
O21 O 0.26834 0.7395 0.22853 0.0
O22 O 0.94785 0.46895 0.10299 0.0
Cd23 Cd 0.92694 0.46207 0.07517 0.0
O24 O 0.9709 0.47945 0.0874 0.0
Cd25 Cd 0.95763 0.46849 0.06077 0.0
O26 O 0.9578 0.44683 0.04021 0.0
C27 C 0.97296 0.44552 0.0335 0.0
O28 O 0.98676 0.45775 0.03824 0.0
C29 C 0.9641 0.47648 0.10286 0.0
C30 C 0.90722 0.49007 0.06802 0.0
O31 O 0.90186 0.47824 0.07924 0.0
O32 O 0.92187 0.48861 0.06005 0.0
O33 O 0.72171 0.84175 0.22185 0.0
Cd34 Cd 0.69827 0.8161 0.21823 0.0
O35 O 0.73201 0.83502 0.24971 0.0
Cd36 Cd 0.7103 0.81339 0.25214 0.0
O37 O 0.68712 0.79956 0.26487 0.0
C38 C 0.68216 0.80763 0.27901 0.0
O39 O 0.69108 0.82311 0.2845 0.0
C40 C 0.73306 0.84499 0.23601 0.0
C41 C 0.70608 0.79181 0.191 0.0
O42 O 0.69692 0.80438 0.18674 0.0
O43 O 0.71148 0.79068 0.20817 0.0
O44 O 0.11454 0.94755 0.46983 0.0
Cd45 Cd 0.0969 0.9187 0.46204 0.0
O46 O 0.08891 0.95865 0.46593 0.0
Cd47 Cd 0.0715 0.97937 0.46183 0.0
O48 O 0.04927 0.99258 0.45008 0.0
C49 C 0.05147 0.0015 0.4357 0.0
O50 O 0.06749 0.00336 0.42886 0.0
C51 C 0.10605 0.96095 0.46966 0.0
C52 C 0.0807 0.90349 0.49233 0.0
O53 O 0.09637 0.9001 0.48803 0.0
O54 O 0.07276 0.91423 0.48241 0.0
O55 O 0.28138 0.76996 0.82807 0.0
Cd56 Cd 0.28604 0.7596 0.7965 0.0
O57 O 0.25222 0.76441 0.8203 0.0
Cd58 Cd 0.22276 0.76202 0.82208 0.0
O59 O 0.19388 0.76215 0.81427 0.0
C60 C 0.18934 0.77559 0.80621 0.0
O61 O 0.202 0.78873 0.80375 0.0
C62 C 0.26514 0.77013 0.83244 0.0
C63 C 0.29516 0.72541 0.79498 0.0
O64 O 0.30747 0.7388 0.7974 0.0
O65 O 0.27849 0.7282 0.79339 0.0
O66 O 0.9818 0.5425 0.47715 0.0
Cd67 Cd 0.9632 0.55095 0.50187 0.0
O68 O 0.00662 0.55746 0.49114 0.0
Cd69 Cd 0.99337 0.56856 0.51409 0.0
O70 O 0.98859 0.58781 0.53573 0.0
C71 C 0.00272 0.59694 0.54368 0.0
O72 O 0.01876 0.59378 0.53883 0.0
C73 C 0.99883 0.54746 0.47764 0.0
C74 C 0.9343 0.52505 0.50711 0.0
O75 O 0.93236 0.53738 0.49587 0.0
O76 O 0.94994 0.52494 0.51581 0.0
O77 O 0.79494 0.79376 0.85185 0.0
Cd78 Cd 0.79626 0.81836 0.83107 0.0
O79 O 0.77001 0.7799 0.83697 0.0
Cd80 Cd 0.76515 0.80223 0.82017 0.0
O81 O 0.75078 0.82415 0.81163 0.0
C82 C 0.73523 0.8243 0.81788 0.0
O83 O 0.72919 0.81155 0.82845 0.0
C84 C 0.78288 0.78033 0.84967 0.0
C85 C 0.82105 0.81473 0.80425 0.0
O86 O 0.82601 0.82315 0.81989 0.0
O87 O 0.80432 0.80811 0.80124 0.0
O88 O 0.33028 0.30537 0.35986 0.0
Cd89 Cd 0.34058 0.33025 0.34133 0.0
O90 O 0.303 0.31144 0.35176 0.0
Cd91 Cd 0.27358 0.31123 0.35198 0.0
O92 O 0.24831 0.32272 0.34777 0.0
C93 C 0.24485 0.33413 0.35983 0.0
O94 O 0.25593 0.3376 0.37495 0.0
C95 C 0.31319 0.30199 0.3607 0.0
C96 C 0.35961 0.32063 0.31145 0.0
O97 O 0.36792 0.32582 0.3273 0.0
O98 O 0.34224 0.31988 0.30977 0.0
O99 O 0.45371 0.99221 0.58665 0.0
Cd100 Cd 0.43534 0.98783 0.55689 0.0
O101 O 0.46241 0.96582 0.58444 0.0
Cd102 Cd 0.44913 0.95696 0.55711 0.0
O103 O 0.44888 0.93634 0.53525 0.0
C104 C 0.45188 0.92149 0.54124 0.0
O105 O 0.4538 0.9198 0.55934 0.0
C106 C 0.46259 0.98049 0.59341 0.0
C107 C 0.40857 0.01034 0.55458 0.0
O108 O 0.40534 0.99498 0.56104 0.0
O109 O 0.42446 0.01505 0.5492 0.0
O110 O 0.2197 0.33726 0.72637 0.0
Cd111 Cd 0.19671 0.31124 0.72476 0.0
O112 O 0.22666 0.3355 0.75639 0.0
Cd113 Cd 0.20518 0.31405 0.76029 0.0
O114 O 0.18248 0.30043 0.7739 0.0
C115 C 0.18192 0.30456 0.79111 0.0
O116 O 0.19498 0.31606 0.79931 0.0
C117 C 0.2293 0.343 0.74119 0.0
C118 C 0.20134 0.28772 0.6954 0.0
O119 O 0.19134 0.30004 0.69303 0.0
O120 O 0.20912 0.28651 0.71169 0.0
O121 O 0.8095 0.24028 0.76655 0.0
Cd122 Cd 0.77966 0.23352 0.74932 0.0
O123 O 0.81531 0.21292 0.76316 0.0
Cd124 Cd 0.78882 0.20264 0.74941 0.0
O125 O 0.76376 0.18427 0.74682 0.0
C126 C 0.75162 0.18627 0.758 0.0
O127 O 0.75405 0.20004 0.76982 0.0
C128 C 0.82017 0.22874 0.76927 0.0
C129 C 0.77633 0.25304 0.71762 0.0
O130 O 0.77194 0.25878 0.73341 0.0
O131 O 0.78239 0.2381 0.71685 0.0
O132 O 0.53637 0.54009 0.49486 0.0
Cd133 Cd 0.53301 0.50993 0.5054 0.0
O134 O 0.52593 0.54688 0.52145 0.0
Cd135 Cd 0.51429 0.56307 0.54199 0.0
O136 O 0.50021 0.57026 0.56617 0.0
C137 C 0.48425 0.56244 0.56746 0.0
O138 O 0.47684 0.55128 0.5539 0.0
C139 C 0.53151 0.55165 0.50591 0.0
C140 C 0.5653 0.49513 0.51023 0.0
O141 O 0.55553 0.49301 0.4947 0.0
O142 O 0.55997 0.50455 0.52336 0.0
O143 O 0.61039 0.45452 0.97488 0.0
Cd144 Cd 0.59194 0.42688 0.96379 0.0
O145 O 0.58635 0.46692 0.96693 0.0
Cd146 Cd 0.5674 0.48615 0.96166 0.0
O147 O 0.54524 0.49823 0.94803 0.0
C148 C 0.54698 0.50314 0.93152 0.0
O149 O 0.56227 0.50156 0.92389 0.0
C150 C 0.60291 0.46848 0.97339 0.0
C151 C 0.58051 0.40542 0.99223 0.0
O152 O 0.59515 0.40349 0.98442 0.0
O153 O 0.57141 0.41766 0.98675 0.0
O154 O 0.79033 0.27554 0.31599 0.0
Cd155 Cd 0.79619 0.26119 0.2866 0.0
O156 O 0.76264 0.26157 0.31253 0.0
Cd157 Cd 0.73396 0.2568 0.31802 0.0
O158 O 0.70476 0.25476 0.31085 0.0
C159 C 0.69686 0.26852 0.3117 0.0
O160 O 0.7063 0.28347 0.31815 0.0
C161 C 0.77461 0.27238 0.32191 0.0
C162 C 0.80436 0.227 0.29083 0.0
O163 O 0.78787 0.22998 0.28754 0.0
O164 O 0.81691 0.24021 0.29222 0.0
O165 O 0.48352 0.03233 0.97238 0.0
Cd166 Cd 0.46584 0.04518 0.99555 0.0
O167 O 0.5042 0.02542 0.99323 0.0
Cd168 Cd 0.49242 0.0384 0.01606 0.0
O169 O 0.48876 0.05977 0.0358 0.0
C170 C 0.50319 0.06983 0.04147 0.0
O171 O 0.51875 0.06633 0.03561 0.0
C172 C 0.49795 0.02547 0.97633 0.0
C173 C 0.43659 0.02156 0.00512 0.0
O174 O 0.43478 0.03186 0.99168 0.0
O175 O 0.45227 0.02241 0.01401 0.0
C176 C 0.21955 0.90004 0.02236 0.0
O177 O 0.22929 0.89801 0.00808 0.0
O178 O 0.24446 0.86421 0.01632 0.0
Zn179 Zn 0.24629 0.88092 0.03904 0.0
O180 O 0.26835 0.89906 0.03783 0.0
C181 C 0.25421 0.85324 0.06372 0.0
O182 O 0.2605 0.84668 0.04874 0.0
O183 O 0.22417 0.89366 0.03776 0.0
C184 C 0.2833 0.89915 0.04761 0.0
O185 O 0.28484 0.88697 0.05977 0.0
C186 C 0.25865 0.86023 0.00916 0.0
O187 O 0.27473 0.86666 0.01706 0.0
O188 O 0.24754 0.86772 0.0629 0.0
C189 C 0.13768 0.47062 0.31352 0.0
O190 O 0.13943 0.48423 0.32549 0.0
O191 O 0.10175 0.49868 0.31406 0.0
Zn192 Zn 0.11665 0.49307 0.29281 0.0
O193 O 0.13573 0.51359 0.28936 0.0
C194 C 0.08337 0.4835 0.26947 0.0
O195 O 0.07683 0.47913 0.28537 0.0
O196 O 0.12843 0.47128 0.29807 0.0
C197 C 0.13061 0.52737 0.28251 0.0
O198 O 0.11319 0.52776 0.27826 0.0
C199 C 0.10762 0.50988 0.32728 0.0
O200 O 0.12416 0.51832 0.32735 0.0
O201 O 0.10016 0.48924 0.26923 0.0
C202 C 0.79663 0.62642 0.02606 0.0
O203 O 0.79526 0.63136 0.0088 0.0
O204 O 0.76973 0.65754 0.00653 0.0
Zn205 Zn 0.76403 0.64323 0.02896 0.0
O206 O 0.7427 0.62431 0.02295 0.0
C207 C 0.75067 0.673 0.04636 0.0
O208 O 0.74673 0.67635 0.02889 0.0
O209 O 0.78523 0.6306 0.03726 0.0
C210 C 0.72664 0.62684 0.01747 0.0
O211 O 0.72301 0.64299 0.01508 0.0
C212 C 0.76361 0.65265 0.98995 0.0
O213 O 0.75341 0.63737 0.98682 0.0
O214 O 0.7583 0.65943 0.04995 0.0
C215 C 0.86269 0.05555 0.28624 0.0
O216 O 0.85918 0.04334 0.29828 0.0
O217 O 0.90519 0.03123 0.29216 0.0
Zn218 Zn 0.88606 0.03157 0.27094 0.0
O219 O 0.86797 0.00957 0.26974 0.0
C220 C 0.9117 0.04441 0.24502 0.0
O221 O 0.91819 0.05508 0.25934 0.0
O222 O 0.87348 0.05312 0.27374 0.0
C223 C 0.85687 0.00627 0.25541 0.0
O224 O 0.85729 0.01754 0.24208 0.0
C225 C 0.90158 0.02464 0.30761 0.0
O226 O 0.88484 0.0177 0.3099 0.0
O227 O 0.89806 0.03295 0.24681 0.0
C228 C 0.26839 0.12317 0.53398 0.0
O229 O 0.25186 0.11762 0.53846 0.0
O230 O 0.25705 0.16727 0.49859 0.0
Zn231 Zn 0.24975 0.15016 0.51818 0.0
O232 O 0.22941 0.13155 0.50781 0.0
C233 C 0.23296 0.17584 0.53897 0.0
O234 O 0.2267 0.17936 0.52219 0.0
O235 O 0.2711 0.1374 0.52546 0.0
C236 C 0.21397 0.12844 0.51439 0.0
O237 O 0.2101 0.13839 0.52845 0.0
C238 C 0.24655 0.16994 0.48455 0.0
O239 O 0.23011 0.16115 0.48239 0.0
O240 O 0.24292 0.16359 0.54077 0.0
C241 C 0.35123 0.55341 0.77393 0.0
O242 O 0.33988 0.53891 0.77008 0.0
O243 O 0.39991 0.52913 0.78708 0.0
Zn244 Zn 0.37998 0.53142 0.76731 0.0
O245 O 0.36191 0.50931 0.76524 0.0
C246 C 0.40369 0.54796 0.74188 0.0
O247 O 0.40936 0.55801 0.75689 0.0
O248 O 0.36824 0.55289 0.77375 0.0
C249 C 0.3529 0.50427 0.74988 0.0
O250 O 0.35522 0.51385 0.73528 0.0
C251 C 0.39674 0.52859 0.80417 0.0
O252 O 0.38006 0.52924 0.80886 0.0
O253 O 0.39107 0.53526 0.74291 0.0
C254 C 0.72036 0.40184 0.53919 0.0
O255 O 0.73317 0.40662 0.55262 0.0
O256 O 0.74492 0.36233 0.50542 0.0
Zn257 Zn 0.7452 0.37786 0.52873 0.0
O258 O 0.76678 0.39676 0.52905 0.0
C259 C 0.75341 0.34913 0.55139 0.0
O260 O 0.75894 0.34321 0.53568 0.0
O261 O 0.72241 0.38951 0.52751 0.0
C262 C 0.78276 0.39427 0.53487 0.0
O263 O 0.78542 0.37904 0.54163 0.0
C264 C 0.74943 0.36959 0.49057 0.0
O265 O 0.75374 0.38679 0.49095 0.0
O266 O 0.74687 0.36369 0.55176 0.0
C267 C 0.62235 0.96197 0.79178 0.0
O268 O 0.60592 0.95952 0.79764 0.0
O269 O 0.5988 0.99763 0.80744 0.0
Zn270 Zn 0.61266 0.99661 0.78448 0.0
O271 O 0.62888 0.01947 0.78203 0.0
C272 C 0.58467 0.00506 0.75874 0.0
O273 O 0.58669 0.01927 0.7699 0.0
O274 O 0.62806 0.97675 0.78542 0.0
C275 C 0.62716 0.03375 0.79094 0.0
O276 O 0.61452 0.03384 0.80278 0.0
C277 C 0.60592 0.99627 0.82381 0.0
O278 O 0.62318 0.99414 0.82614 0.0
O279 O 0.59453 0.99298 0.76213 0.0
C280 C 0.00471 0.2142 0.93028 0.0
O281 O 4e-05 0.21407 0.91233 0.0
O282 O 0.98295 0.24713 0.9075 0.0
Zn283 Zn 0.0052 0.25095 0.92554 0.0
O284 O 0.00234 0.27157 0.94295 0.0
C285 C 0.02738 0.25061 0.89417 0.0
O286 O 0.01283 0.24085 0.88628 0.0
O287 O 0.00752 0.22889 0.93957 0.0
C288 C 0.01384 0.28543 0.94472 0.0
O289 O 0.02877 0.28601 0.93592 0.0
C290 C 0.97739 0.26033 0.8998 0.0
O291 O 0.98618 0.27614 0.90403 0.0
O292 O 0.02731 0.25641 0.91096 0.0
C293 C 0.51347 0.72419 0.44103 0.0
O294 O 0.51728 0.73881 0.4515 0.0
O295 O 0.48414 0.74483 0.39309 0.0
Zn296 Zn 0.50624 0.74785 0.41135 0.0
O297 O 0.50353 0.76768 0.42971 0.0
C298 C 0.53176 0.74449 0.38385 0.0
O299 O 0.52077 0.72987 0.3794 0.0
O300 O 0.50842 0.72504 0.42388 0.0
C301 C 0.50063 0.78224 0.42292 0.0
O302 O 0.5004 0.78366 0.40478 0.0
C303 C 0.46868 0.74701 0.39864 0.0
O304 O 0.46726 0.75045 0.41646 0.0
O305 O 0.52837 0.75443 0.39737 0.0
C306 C 0.99833 0.80195 0.63447 0.0
O307 O 0.98927 0.78651 0.62912 0.0
O308 O 0.97445 0.7934 0.68447 0.0
Zn309 Zn 0.99615 0.78794 0.6712 0.0
O310 O 0.99189 0.76338 0.65916 0.0
C311 C 0.01831 0.77716 0.70178 0.0
O312 O 0.00478 0.76428 0.70145 0.0
O313 O 0.0023 0.80565 0.65178 0.0
C314 C 0.00568 0.75688 0.65385 0.0
O315 O 0.02177 0.76635 0.65646 0.0
C316 C 0.95819 0.78701 0.6792 0.0
O317 O 0.95505 0.77657 0.66409 0.0
O318 O 0.01756 0.78917 0.69015 0.0
C319 C 0.5119 0.28357 0.12583 0.0
O320 O 0.50054 0.2695 0.12014 0.0
O321 O 0.48983 0.27497 0.1757 0.0
Zn322 Zn 0.51 0.2675 0.16146 0.0
O323 O 0.50291 0.24357 0.1485 0.0
C324 C 0.53693 0.27831 0.19182 0.0
O325 O 0.52925 0.29285 0.19153 0.0
O326 O 0.5176 0.2856 0.14295 0.0
C327 C 0.51576 0.23645 0.14186 0.0
O328 O 0.53228 0.2451 0.14362 0.0
C329 C 0.47296 0.27194 0.17064 0.0
O330 O 0.4676 0.26332 0.15467 0.0
O331 O 0.53108 0.26573 0.18004 0.0
H332 H 0.28815 0.77259 0.86375 0.0
H333 H 0.28391 0.78557 0.89431 0.0
H334 H 0.23045 0.79626 0.87441 0.0
H335 H 0.23516 0.78441 0.84346 0.0
H336 H 0.2469 0.82357 0.89308 0.0
H337 H 0.23731 0.76277 0.90568 0.0
H338 H 0.24359 0.73192 0.90614 0.0
H339 H 0.29311 0.74801 0.94031 0.0
H340 H 0.28725 0.779 0.93984 0.0
H341 H 0.22835 0.84991 0.9855 0.0
H342 H 0.22645 0.83228 0.95612 0.0
H343 H 0.28353 0.82715 0.96452 0.0
H344 H 0.28559 0.8448 0.99381 0.0
H345 H 0.26142 0.79535 0.95224 0.0
H346 H 0.27119 0.85679 0.93647 0.0
H347 H 0.26362 0.88723 0.93623 0.0
H348 H 0.21137 0.86868 0.90817 0.0
H349 H 0.21854 0.83807 0.90848 0.0
C350 C 0.27542 0.77759 0.8659 0.0
C351 C 0.26178 0.77699 0.85123 0.0
C352 C 0.27294 0.78486 0.88346 0.0
C353 C 0.25666 0.79152 0.88686 0.0
C354 C 0.24302 0.79097 0.87223 0.0
C355 C 0.24559 0.78387 0.85457 0.0
C356 C 0.25444 0.80002 0.90534 0.0
C357 C 0.24971 0.81721 0.90598 0.0
C358 C 0.25832 0.79187 0.92225 0.0
C359 C 0.2619 0.77324 0.9226 0.0
C360 C 0.2496 0.75975 0.91318 0.0
C361 C 0.25308 0.74223 0.91346 0.0
C362 C 0.26875 0.73801 0.92322 0.0
C363 C 0.28097 0.7513 0.93275 0.0
C364 C 0.27757 0.76884 0.9325 0.0
C365 C 0.24046 0.84492 0.98115 0.0
C366 C 0.25715 0.84882 0.99192 0.0
C367 C 0.23936 0.83489 0.96436 0.0
C368 C 0.25488 0.82851 0.95814 0.0
C369 C 0.2714 0.83194 0.96912 0.0
C370 C 0.27257 0.8421 0.9858 0.0
C371 C 0.25416 0.81885 0.93982 0.0
C372 C 0.25836 0.8015 0.93926 0.0
C373 C 0.24957 0.82674 0.92299 0.0
C374 C 0.24532 0.84514 0.92269 0.0
C375 C 0.25803 0.85919 0.93039 0.0
C376 C 0.25382 0.87647 0.93022 0.0
C377 C 0.237 0.87988 0.92224 0.0
C378 C 0.22438 0.86601 0.91437 0.0
C379 C 0.22851 0.8487 0.91454 0.0
H380 H 0.23377 0.89327 0.92212 0.0
H381 H 0.27142 0.72445 0.92342 0.0
H382 H 0.98692 0.52664 0.44614 0.0
H383 H 0.00473 0.51932 0.42026 0.0
H384 H 0.05276 0.54901 0.44856 0.0
H385 H 0.03513 0.55651 0.47433 0.0
H386 H 0.04852 0.55725 0.41252 0.0
H387 H 0.04704 0.5043 0.44683 0.0
H388 H 0.03235 0.47843 0.46193 0.0
H389 H 0.004 0.45906 0.40967 0.0
H390 H 0.01834 0.48495 0.39431 0.0
H391 H 0.11707 0.5301 0.35945 0.0
H392 H 0.09779 0.5356 0.38455 0.0
H393 H 0.05246 0.5031 0.35456 0.0
H394 H 0.07179 0.49719 0.32957 0.0
H395 H 0.05398 0.4961 0.39041 0.0
H396 H 0.05569 0.54831 0.35577 0.0
H397 H 0.07013 0.57406 0.3403 0.0
H398 H 0.09733 0.59492 0.39259 0.0
H399 H 0.08324 0.56916 0.40834 0.0
C400 C 0.0013 0.53152 0.4469 0.0
C401 C 0.00959 0.54218 0.46231 0.0
C402 C 0.01146 0.52728 0.43213 0.0
C403 C 0.03009 0.53356 0.43254 0.0
C404 C 0.0384 0.54406 0.44795 0.0
C405 C 0.02829 0.54828 0.4627 0.0
C406 C 0.04091 0.52967 0.41672 0.0
C407 C 0.04989 0.54388 0.40782 0.0
C408 C 0.04224 0.51223 0.41024 0.0
C409 C 0.03361 0.49666 0.41947 0.0
C410 C 0.03755 0.4946 0.4386 0.0
C411 C 0.02931 0.47992 0.4472 0.0
C412 C 0.01721 0.46714 0.43678 0.0
C413 C 0.01335 0.46899 0.41773 0.0
C414 C 0.02154 0.48365 0.40907 0.0
C415 C 0.103 0.52414 0.35817 0.0
C416 C 0.09595 0.51327 0.34247 0.0
C417 C 0.09197 0.52734 0.37251 0.0
C418 C 0.07361 0.51996 0.37132 0.0
C419 C 0.06658 0.50895 0.35576 0.0
C420 C 0.07764 0.50564 0.34147 0.0
C421 C 0.06177 0.52369 0.38635 0.0
C422 C 0.05257 0.50947 0.39506 0.0
C423 C 0.06014 0.54114 0.39261 0.0
C424 C 0.06853 0.55672 0.3832 0.0
C425 C 0.06485 0.55833 0.36395 0.0
C426 C 0.07296 0.57293 0.35513 0.0
C427 C 0.08468 0.5861 0.36545 0.0
C428 C 0.08827 0.58471 0.38461 0.0
C429 C 0.08021 0.57011 0.3935 0.0
H430 H 0.09095 0.59739 0.35859 0.0
H431 H 0.01085 0.45578 0.44346 0.0
H432 H 0.76062 0.7489 0.84748 0.0
H433 H 0.75919 0.72595 0.87013 0.0
H434 H 0.80384 0.75571 0.90387 0.0
H435 H 0.80562 0.77862 0.88106 0.0
H436 H 0.80686 0.72108 0.90347 0.0
H437 H 0.76032 0.75719 0.91456 0.0
H438 H 0.7338 0.77251 0.90641 0.0
H439 H 0.70166 0.72294 0.8901 0.0
H440 H 0.72808 0.70734 0.89791 0.0
H441 H 0.78824 0.68246 0.99033 0.0
H442 H 0.79325 0.70262 0.96509 0.0
H443 H 0.75224 0.66987 0.92947 0.0
H444 H 0.74722 0.64957 0.95458 0.0
H445 H 0.74772 0.70556 0.93062 0.0
H446 H 0.79501 0.66957 0.92126 0.0
H447 H 0.82181 0.65508 0.93061 0.0
H448 H 0.85285 0.70554 0.94534 0.0
H449 H 0.82614 0.72033 0.93633 0.0
C450 C 0.77026 0.75052 0.85962 0.0
C451 C 0.78312 0.7657 0.86254 0.0
C452 C 0.76938 0.7374 0.87259 0.0
C453 C 0.78118 0.73927 0.88887 0.0
C454 C 0.79455 0.75403 0.89145 0.0
C455 C 0.79552 0.76713 0.87841 0.0
C456 C 0.77903 0.72621 0.90353 0.0
C457 C 0.79399 0.71783 0.90956 0.0
C458 C 0.76216 0.72179 0.9113 0.0
C459 C 0.74623 0.73112 0.90663 0.0
C460 C 0.74763 0.74957 0.90909 0.0
C461 C 0.73262 0.7583 0.90456 0.0
C462 C 0.71607 0.74871 0.89769 0.0
C463 C 0.7145 0.73036 0.89539 0.0
C464 C 0.72948 0.72156 0.89988 0.0
C465 C 0.78037 0.67948 0.97709 0.0
C466 C 0.76731 0.66442 0.97446 0.0
C467 C 0.78331 0.69097 0.96266 0.0
C468 C 0.77317 0.68768 0.9454 0.0
C469 C 0.76022 0.67261 0.94269 0.0
C470 C 0.75741 0.66101 0.95704 0.0
C471 C 0.7755 0.70036 0.93046 0.0
C472 C 0.76056 0.70875 0.92445 0.0
C473 C 0.79242 0.7049 0.9229 0.0
C474 C 0.80851 0.69605 0.9283 0.0
C475 C 0.8075 0.67757 0.92665 0.0
C476 C 0.82269 0.66931 0.93186 0.0
C477 C 0.83901 0.67938 0.93861 0.0
C478 C 0.84019 0.69775 0.94013 0.0
C479 C 0.82503 0.70609 0.93496 0.0
H480 H 0.85075 0.67296 0.94263 0.0
H481 H 0.70446 0.7555 0.89419 0.0
H482 H 0.01587 0.99675 0.44403 0.0
H483 H 0.98944 0.00365 0.42488 0.0
H484 H 0.02473 0.02686 0.38492 0.0
H485 H 0.05129 0.02018 0.40407 0.0
H486 H 0.996 0.04563 0.39003 0.0
H487 H 0.00538 0.98509 0.37778 0.0
H488 H 0.00935 0.95486 0.38636 0.0
H489 H 0.95702 0.949 0.40878 0.0
H490 H 0.95286 0.97931 0.40056 0.0
H491 H 0.93761 0.03738 0.30709 0.0
H492 H 0.96186 0.03618 0.33154 0.0
H493 H 0.92297 0.01057 0.36675 0.0
H494 H 0.89863 0.01149 0.34223 0.0
H495 H 0.95221 0.99389 0.36618 0.0
H496 H 0.94147 0.05354 0.37593 0.0
H497 H 0.93738 0.08368 0.36719 0.0
H498 H 0.99169 0.09143 0.34958 0.0
H499 H 0.99603 0.06122 0.35796 0.0
C500 C 0.01805 0.00355 0.4313 0.0
C501 C 0.03568 0.0077 0.42544 0.0
C502 C 0.00292 0.00745 0.42036 0.0
C503 C 0.00512 0.0155 0.40334 0.0
C504 C 0.02274 0.02058 0.39798 0.0
C505 C 0.03789 0.01668 0.40891 0.0
C506 C 0.98908 0.01748 0.39049 0.0
C507 C 0.98648 0.03433 0.38469 0.0
C508 C 0.97645 0.00276 0.38387 0.0
C509 C 0.9789 0.98452 0.38875 0.0
C510 C 0.99479 0.9774 0.38468 0.0
C511 C 0.99706 0.96025 0.38945 0.0
C512 C 0.98347 0.95003 0.39816 0.0
C513 C 0.96755 0.95694 0.40207 0.0
C514 C 0.96522 0.9741 0.39735 0.0
C515 C 0.93418 0.03158 0.32007 0.0
C516 C 0.91618 0.0245 0.32269 0.0
C517 C 0.94805 0.031 0.33409 0.0
C518 C 0.94421 0.02346 0.35107 0.0
C519 C 0.92624 0.01649 0.35378 0.0
C520 C 0.91234 0.01704 0.33975 0.0
C521 C 0.9591 0.02205 0.36558 0.0
C522 C 0.96156 0.00527 0.37166 0.0
C523 C 0.97155 0.03684 0.37244 0.0
C524 C 0.96902 0.05505 0.36743 0.0
C525 C 0.9525 0.06161 0.37006 0.0
C526 C 0.95014 0.07873 0.36519 0.0
C527 C 0.96425 0.08945 0.3578 0.0
C528 C 0.98077 0.0831 0.35529 0.0
C529 C 0.98319 0.06599 0.36012 0.0
H530 H 0.9624 0.1027 0.35404 0.0
H531 H 0.98525 0.93675 0.40184 0.0
H532 H 0.18732 0.28747 0.6592 0.0
H533 H 0.19206 0.26738 0.63332 0.0
H534 H 0.22578 0.23987 0.67024 0.0
H535 H 0.22134 0.26008 0.69617 0.0
H536 H 0.24123 0.24599 0.63836 0.0
H537 H 0.18233 0.22195 0.65535 0.0
H538 H 0.15042 0.22245 0.6624 0.0
H539 H 0.13738 0.23877 0.6072 0.0
H540 H 0.16929 0.23861 0.5999 0.0
H541 H 0.24478 0.1729 0.57549 0.0
H542 H 0.23875 0.19095 0.60254 0.0
H543 H 0.206 0.22062 0.56698 0.0
H544 H 0.2118 0.20253 0.53988 0.0
H545 H 0.18994 0.21256 0.59875 0.0
H546 H 0.24901 0.23745 0.58218 0.0
H547 H 0.28092 0.23695 0.57512 0.0
H548 H 0.29356 0.21893 0.62969 0.0
H549 H 0.26164 0.21909 0.63698 0.0
C550 C 0.19571 0.27711 0.66185 0.0
C551 C 0.20393 0.27536 0.67976 0.0
C552 C 0.19833 0.26558 0.64704 0.0
C553 C 0.2091 0.25198 0.64988 0.0
C554 C 0.21738 0.25024 0.66774 0.0
C555 C 0.2148 0.26179 0.68255 0.0
C556 C 0.21209 0.23985 0.63412 0.0
C557 C 0.23001 0.23847 0.62989 0.0
C558 C 0.19745 0.23033 0.6228 0.0
C559 C 0.17824 0.23043 0.62714 0.0
C560 C 0.17269 0.22579 0.64477 0.0
C561 C 0.1546 0.22598 0.6488 0.0
C562 C 0.14189 0.23068 0.63528 0.0
C563 C 0.14724 0.23516 0.61767 0.0
C564 C 0.16533 0.235 0.61357 0.0
C565 C 0.23624 0.18322 0.57342 0.0
C566 C 0.22885 0.18633 0.5555 0.0
C567 C 0.23286 0.19357 0.58889 0.0
C568 C 0.2221 0.20727 0.58674 0.0
C569 C 0.21437 0.21014 0.56895 0.0
C570 C 0.21775 0.19981 0.55346 0.0
C571 C 0.21906 0.21876 0.603 0.0
C572 C 0.20114 0.22003 0.6073 0.0
C573 C 0.23369 0.22817 0.6144 0.0
C574 C 0.2529 0.22811 0.61006 0.0
C575 C 0.25856 0.23324 0.59262 0.0
C576 C 0.27666 0.23304 0.58859 0.0
C577 C 0.28925 0.22786 0.60193 0.0
C578 C 0.28378 0.22291 0.61936 0.0
C579 C 0.2657 0.22307 0.62345 0.0
H580 H 0.30326 0.22772 0.59878 0.0
H581 H 0.12788 0.23082 0.63842 0.0
H582 H 0.49579 0.58406 0.59839 0.0
H583 H 0.48161 0.585 0.62799 0.0
H584 H 0.43771 0.54595 0.60544 0.0
H585 H 0.45156 0.54518 0.57574 0.0
H586 H 0.42504 0.57051 0.62654 0.0
H587 H 0.47372 0.53444 0.63259 0.0
H588 H 0.50534 0.52807 0.63153 0.0
H589 H 0.52335 0.57009 0.67248 0.0
H590 H 0.49183 0.57685 0.6736 0.0
H591 H 0.39291 0.53176 0.70767 0.0
H592 H 0.4063 0.53762 0.67814 0.0
H593 H 0.44599 0.57795 0.70594 0.0
H594 H 0.43272 0.57215 0.73559 0.0
H595 H 0.46135 0.55571 0.68295 0.0
H596 H 0.4118 0.5898 0.67897 0.0
H597 H 0.37994 0.59529 0.68038 0.0
H598 H 0.3633 0.55641 0.63583 0.0
H599 H 0.39504 0.55049 0.63434 0.0
C600 C 0.48301 0.57581 0.59966 0.0
C601 C 0.4749 0.5644 0.58476 0.0
C602 C 0.47496 0.57632 0.61661 0.0
C603 C 0.45876 0.56532 0.61903 0.0
C604 C 0.45023 0.55452 0.60391 0.0
C605 C 0.45822 0.55406 0.58695 0.0
C606 C 0.45111 0.56435 0.6375 0.0
C607 C 0.43294 0.56716 0.63885 0.0
C608 C 0.46153 0.56035 0.65365 0.0
C609 C 0.48046 0.55628 0.65302 0.0
C610 C 0.48444 0.54241 0.64126 0.0
C611 C 0.50234 0.53871 0.64067 0.0
C612 C 0.51635 0.54871 0.65189 0.0
C613 C 0.51248 0.56239 0.66377 0.0
C614 C 0.49461 0.56615 0.66439 0.0
C615 C 0.40447 0.5419 0.70752 0.0
C616 C 0.41175 0.5515 0.72398 0.0
C617 C 0.41205 0.54529 0.69061 0.0
C618 C 0.42701 0.55835 0.68983 0.0
C619 C 0.4344 0.56786 0.70624 0.0
C620 C 0.42678 0.56454 0.72316 0.0
C621 C 0.43524 0.56167 0.67194 0.0
C622 C 0.45352 0.55927 0.67069 0.0
C623 C 0.42489 0.56598 0.6559 0.0
C624 C 0.40579 0.5696 0.65665 0.0
C625 C 0.40133 0.58233 0.66956 0.0
C626 C 0.3833 0.58553 0.67037 0.0
C627 C 0.3696 0.57618 0.65823 0.0
C628 C 0.37392 0.56363 0.64523 0.0
C629 C 0.39194 0.56036 0.64439 0.0
H630 H 0.35564 0.57868 0.65887 0.0
H631 H 0.5302 0.54582 0.65142 0.0
H632 H 0.78479 0.24452 0.68232 0.0
H633 H 0.78095 0.26123 0.65438 0.0
H634 H 0.7595 0.30138 0.68666 0.0
H635 H 0.7631 0.28465 0.71465 0.0
H636 H 0.73914 0.2928 0.65426 0.0
H637 H 0.80252 0.30833 0.6732 0.0
H638 H 0.83379 0.30274 0.68241 0.0
H639 H 0.83631 0.27533 0.62967 0.0
H640 H 0.80494 0.28055 0.62024 0.0
H641 H 0.74437 0.35807 0.58642 0.0
H642 H 0.74819 0.34189 0.61474 0.0
H643 H 0.77046 0.30158 0.58352 0.0
H644 H 0.76694 0.31778 0.55519 0.0
H645 H 0.79048 0.3106 0.61567 0.0
H646 H 0.72707 0.29472 0.59683 0.0
H647 H 0.69576 0.30016 0.58757 0.0
H648 H 0.69326 0.32807 0.64003 0.0
H649 H 0.72466 0.323 0.64951 0.0
C650 C 0.77929 0.25693 0.6835 0.0
C651 C 0.77429 0.26327 0.70073 0.0
C652 C 0.77717 0.26649 0.66752 0.0
C653 C 0.77011 0.28264 0.66847 0.0
C654 C 0.765 0.28896 0.68562 0.0
C655 C 0.76712 0.2794 0.70161 0.0
C656 C 0.76781 0.29281 0.65152 0.0
C657 C 0.75041 0.29692 0.64596 0.0
C658 C 0.78244 0.29781 0.64047 0.0
C659 C 0.80131 0.29469 0.64609 0.0
C660 C 0.80969 0.30099 0.66362 0.0
C661 C 0.82744 0.29791 0.66887 0.0
C662 C 0.83701 0.28865 0.65665 0.0
C663 C 0.82887 0.28248 0.63913 0.0
C664 C 0.81111 0.28551 0.63382 0.0
C665 C 0.75003 0.34574 0.58555 0.0
C666 C 0.75531 0.3392 0.56852 0.0
C667 C 0.75215 0.33647 0.60175 0.0
C668 C 0.75946 0.32043 0.60122 0.0
C669 C 0.76479 0.31392 0.58425 0.0
C670 C 0.76271 0.32319 0.56806 0.0
C671 C 0.7618 0.31055 0.61838 0.0
C672 C 0.7792 0.3065 0.62398 0.0
C673 C 0.74718 0.30559 0.62946 0.0
C674 C 0.72828 0.30863 0.6238 0.0
C675 C 0.7199 0.30214 0.60633 0.0
C676 C 0.70212 0.30514 0.60105 0.0
C677 C 0.69255 0.3145 0.61318 0.0
C678 C 0.70071 0.32084 0.63064 0.0
C679 C 0.71849 0.3179 0.63598 0.0
H680 H 0.67879 0.3168 0.60907 0.0
H681 H 0.85076 0.28628 0.66074 0.0
H682 H 0.46739 0.0105 0.61641 0.0
H683 H 0.48649 0.01593 0.64575 0.0
H684 H 0.50193 0.96363 0.64035 0.0
H685 H 0.48278 0.958 0.61134 0.0
H686 H 0.49453 0.971 0.67527 0.0
H687 H 0.53011 0.99996 0.62907 0.0
H688 H 0.53627 0.02074 0.60425 0.0
H689 H 0.52977 0.0641 0.64175 0.0
H690 H 0.52334 0.04353 0.66673 0.0
H691 H 0.57553 0.97666 0.73411 0.0
H692 H 0.55312 0.97378 0.70726 0.0
H693 H 0.54072 0.02631 0.71969 0.0
H694 H 0.5632 0.02938 0.74651 0.0
H695 H 0.54479 0.02062 0.68273 0.0
H696 H 0.51158 0.99154 0.72973 0.0
H697 H 0.50608 0.97057 0.75448 0.0
H698 H 0.50852 0.92724 0.71545 0.0
H699 H 0.51429 0.94797 0.6905 0.0
C700 C 0.47479 0.00014 0.62152 0.0
C701 C 0.47359 0.98384 0.61148 0.0
C702 C 0.48575 0.00328 0.63825 0.0
C703 C 0.49577 0.99023 0.64514 0.0
C704 C 0.49432 0.97387 0.63531 0.0
C705 C 0.48338 0.97072 0.61867 0.0
C706 C 0.50802 0.99351 0.66245 0.0
C707 C 0.50561 0.98177 0.67684 0.0
C708 C 0.52218 0.00782 0.66469 0.0
C709 C 0.52603 0.02019 0.64969 0.0
C710 C 0.52984 0.01391 0.63197 0.0
C711 C 0.53341 0.02565 0.61788 0.0
C712 C 0.53336 0.04372 0.6214 0.0
C713 C 0.52978 0.05009 0.63903 0.0
C714 C 0.52617 0.0384 0.65316 0.0
C715 C 0.56803 0.9876 0.73115 0.0
C716 C 0.57111 0.00323 0.74248 0.0
C717 C 0.55518 0.98591 0.71585 0.0
C718 C 0.54512 0.99977 0.71161 0.0
C719 C 0.5483 0.01545 0.72276 0.0
C720 C 0.56112 0.01714 0.7381 0.0
C721 C 0.53147 0.99794 0.69539 0.0
C722 C 0.5336 0.00995 0.68123 0.0
C723 C 0.51708 0.98385 0.69333 0.0
C724 C 0.51352 0.97133 0.70828 0.0
C725 C 0.51108 0.97755 0.72645 0.0
C726 C 0.50789 0.96571 0.74051 0.0
C727 C 0.50699 0.94759 0.73655 0.0
C728 C 0.50923 0.94128 0.7185 0.0
C729 C 0.51244 0.95307 0.70439 0.0
H730 H 0.50452 0.93844 0.74746 0.0
H731 H 0.53613 0.05279 0.61048 0.0
H732 H 0.83616 0.26137 0.78324 0.0
H733 H 0.86367 0.26805 0.80448 0.0
H734 H 0.87092 0.21303 0.80264 0.0
H735 H 0.84362 0.20622 0.78144 0.0
H736 H 0.87202 0.22783 0.83865 0.0
H737 H 0.89843 0.24089 0.78064 0.0
H738 H 0.90133 0.25577 0.75102 0.0
H739 H 0.91083 0.30615 0.78086 0.0
H740 H 0.90774 0.29157 0.81066 0.0
H741 H 0.95903 0.22934 0.8845 0.0
H742 H 0.93277 0.2254 0.86167 0.0
H743 H 0.93314 0.2818 0.86134 0.0
H744 H 0.95974 0.28587 0.88386 0.0
H745 H 0.9275 0.26791 0.82691 0.0
H746 H 0.90184 0.25585 0.88467 0.0
H747 H 0.8984 0.24186 0.91471 0.0
H748 H 0.88645 0.19094 0.88621 0.0
H749 H 0.89007 0.2046 0.85599 0.0
C750 C 0.84373 0.25073 0.78719 0.0
C751 C 0.83765 0.23326 0.78069 0.0
C752 C 0.85945 0.25458 0.79929 0.0
C753 C 0.86928 0.24102 0.80512 0.0
C754 C 0.86347 0.22366 0.79834 0.0
C755 C 0.84789 0.21982 0.78616 0.0
C756 C 0.88513 0.24468 0.81899 0.0
C757 C 0.88425 0.23642 0.83602 0.0
C758 C 0.90078 0.25637 0.81576 0.0
C759 C 0.90264 0.26515 0.79786 0.0
C760 C 0.90096 0.25515 0.78087 0.0
C761 C 0.90268 0.26352 0.76406 0.0
C762 C 0.90621 0.28189 0.76405 0.0
C763 C 0.90807 0.29192 0.78088 0.0
C764 C 0.90635 0.28361 0.79773 0.0
C765 C 0.95351 0.24091 0.87961 0.0
C766 C 0.9614 0.25792 0.88607 0.0
C767 C 0.93846 0.23864 0.86659 0.0
C768 C 0.93081 0.2533 0.85999 0.0
C769 C 0.93879 0.2703 0.86626 0.0
C770 C 0.95395 0.2726 0.87918 0.0
C771 C 0.91452 0.25083 0.84652 0.0
C772 C 0.91527 0.25935 0.8296 0.0
C773 C 0.89863 0.23952 0.84993 0.0
C774 C 0.89639 0.23124 0.86807 0.0
C775 C 0.89861 0.24165 0.88481 0.0
C776 C 0.89661 0.23378 0.90187 0.0
C777 C 0.89225 0.21551 0.90237 0.0
C778 C 0.88984 0.20508 0.8858 0.0
C779 C 0.89185 0.21289 0.8687 0.0
H780 H 0.8907 0.20945 0.91559 0.0
H781 H 0.90754 0.28835 0.75102 0.0
H782 H 0.45926 0.88874 0.5502 0.0
H783 H 0.46675 0.86529 0.52936 0.0
H784 H 0.459 0.89736 0.48222 0.0
H785 H 0.45133 0.92097 0.50303 0.0
H786 H 0.44453 0.86235 0.47483 0.0
H787 H 0.501 0.89498 0.49999 0.0
H788 H 0.52331 0.9089 0.5249 0.0
H789 H 0.52633 0.85857 0.54844 0.0
H790 H 0.50383 0.84438 0.52381 0.0
H791 H 0.49117 0.81388 0.41222 0.0
H792 H 0.48232 0.83754 0.43191 0.0
H793 H 0.49078 0.8075 0.48052 0.0
H794 H 0.49982 0.78376 0.46092 0.0
H795 H 0.50493 0.84198 0.48658 0.0
H796 H 0.44846 0.80928 0.46199 0.0
H797 H 0.42615 0.79499 0.43728 0.0
H798 H 0.42302 0.8449 0.41286 0.0
H799 H 0.44554 0.85948 0.4373 0.0
C800 C 0.459 0.8908 0.53539 0.0
C801 C 0.45485 0.9068 0.52829 0.0
C802 C 0.46334 0.87739 0.5235 0.0
C803 C 0.46371 0.87971 0.5043 0.0
C804 C 0.45886 0.89536 0.49703 0.0
C805 C 0.45452 0.90883 0.50894 0.0
C806 C 0.46979 0.86599 0.49199 0.0
C807 C 0.45783 0.85806 0.47721 0.0
C808 C 0.487 0.86016 0.49537 0.0
C809 C 0.5006 0.86865 0.51016 0.0
C810 C 0.50632 0.8869 0.51057 0.0
C811 C 0.51901 0.89484 0.52462 0.0
C812 C 0.5262 0.88463 0.53827 0.0
C813 C 0.52074 0.86646 0.53787 0.0
C814 C 0.50802 0.85846 0.52386 0.0
C815 C 0.49125 0.81231 0.42711 0.0
C816 C 0.49615 0.79691 0.435 0.0
C817 C 0.48609 0.82582 0.43833 0.0
C818 C 0.48567 0.82417 0.45764 0.0
C819 C 0.49097 0.809 0.46563 0.0
C820 C 0.4961 0.79545 0.45441 0.0
C821 C 0.47965 0.83825 0.46949 0.0
C822 C 0.49164 0.84628 0.48417 0.0
C823 C 0.46246 0.84412 0.46603 0.0
C824 C 0.44881 0.83545 0.45138 0.0
C825 C 0.44312 0.8172 0.45127 0.0
C826 C 0.43043 0.80905 0.43733 0.0
C827 C 0.4232 0.81903 0.4235 0.0
C828 C 0.42864 0.83719 0.42358 0.0
C829 C 0.44136 0.84541 0.43749 0.0
H830 H 0.41333 0.81269 0.41277 0.0
H831 H 0.53603 0.8908 0.54914 0.0
H832 H 0.15204 0.28135 0.77827 0.0
H833 H 0.12603 0.27047 0.79554 0.0
H834 H 0.15076 0.30059 0.84475 0.0
H835 H 0.17687 0.31131 0.82773 0.0
H836 H 0.13628 0.26823 0.8533 0.0
H837 H 0.11701 0.31537 0.81758 0.0
H838 H 0.11127 0.33119 0.78899 0.0
H839 H 0.07415 0.28677 0.76603 0.0
H840 H 0.07986 0.27059 0.79439 0.0
H841 H 0.05945 0.27098 0.90595 0.0
H842 H 0.0859 0.27838 0.88809 0.0
H843 H 0.05848 0.24737 0.84064 0.0
H844 H 0.03187 0.24009 0.85829 0.0
H845 H 0.07416 0.2787 0.8305 0.0
H846 H 0.09237 0.23208 0.86707 0.0
H847 H 0.09794 0.21657 0.89588 0.0
H848 H 0.13694 0.26013 0.91747 0.0
H849 H 0.13141 0.27602 0.88887 0.0
C850 C 0.15198 0.28558 0.79279 0.0
C851 C 0.16649 0.29727 0.8016 0.0
C852 C 0.13708 0.27941 0.80262 0.0
C853 C 0.13636 0.28489 0.82137 0.0
C854 C 0.15102 0.2962 0.83029 0.0
C855 C 0.16592 0.30236 0.8205 0.0
C856 C 0.12022 0.27916 0.83166 0.0
C857 C 0.12271 0.27067 0.84841 0.0
C858 C 0.10247 0.28199 0.82507 0.0
C859 C 0.09902 0.2917 0.80802 0.0
C860 C 0.10774 0.30892 0.80637 0.0
C861 C 0.10447 0.31796 0.79022 0.0
C862 C 0.0924 0.30997 0.77568 0.0
C863 C 0.08352 0.29293 0.77728 0.0
C864 C 0.08676 0.28383 0.7934 0.0
C865 C 0.05905 0.26568 0.89173 0.0
C866 C 0.04356 0.25492 0.88355 0.0
C867 C 0.07422 0.26986 0.88157 0.0
C868 C 0.07423 0.26326 0.86309 0.0
C869 C 0.05876 0.25258 0.85488 0.0
C870 C 0.04358 0.2484 0.86502 0.0
C871 C 0.09022 0.26785 0.85219 0.0
C872 C 0.0877 0.27615 0.83533 0.0
C873 C 0.10794 0.26486 0.8587 0.0
C874 C 0.11135 0.25531 0.87589 0.0
C875 C 0.10203 0.23841 0.87802 0.0
C876 C 0.1052 0.22954 0.8943 0.0
C877 C 0.11775 0.23738 0.90852 0.0
C878 C 0.1272 0.25409 0.90645 0.0
C879 C 0.12407 0.26302 0.8902 0.0
H880 H 0.12019 0.23048 0.92111 0.0
H881 H 0.08988 0.31699 0.76319 0.0
H882 H 0.5376 0.58206 0.52799 0.0
H883 H 0.53585 0.61216 0.5184 0.0
H884 H 0.52377 0.59265 0.46125 0.0
H885 H 0.52566 0.56258 0.47078 0.0
H886 H 0.54726 0.62175 0.46305 0.0
H887 H 0.4902 0.60362 0.48927 0.0
H888 H 0.47127 0.59214 0.514 0.0
H889 H 0.49426 0.63606 0.55077 0.0
H890 H 0.51354 0.64766 0.52634 0.0
H891 H 0.50856 0.69186 0.4226 0.0
H892 H 0.51292 0.66346 0.43525 0.0
H893 H 0.52764 0.68877 0.48974 0.0
H894 H 0.52316 0.71733 0.47721 0.0
H895 H 0.50447 0.65796 0.49121 0.0
H896 H 0.56028 0.67693 0.4644 0.0
H897 H 0.57954 0.68818 0.43985 0.0
H898 H 0.55903 0.64263 0.40429 0.0
H899 H 0.53943 0.63122 0.42853 0.0
C900 C 0.53431 0.58418 0.51344 0.0
C901 C 0.53131 0.56995 0.50019 0.0
C902 C 0.53342 0.60139 0.50795 0.0
C903 C 0.52932 0.60463 0.48915 0.0
C904 C 0.52688 0.59047 0.47584 0.0
C905 C 0.52794 0.5733 0.4813 0.0
C906 C 0.52735 0.62272 0.48327 0.0
C907 C 0.53776 0.62958 0.46907 0.0
C908 C 0.51533 0.63316 0.4915 0.0
C909 C 0.50344 0.62642 0.50604 0.0
C910 C 0.49128 0.61078 0.50267 0.0
C911 C 0.4805 0.60425 0.51663 0.0
C912 C 0.48161 0.61334 0.53397 0.0
C913 C 0.49344 0.62902 0.53735 0.0
C914 C 0.50429 0.63559 0.52344 0.0
C915 C 0.51268 0.69143 0.43729 0.0
C916 C 0.5156 0.7069 0.44888 0.0
C917 C 0.51523 0.67517 0.44449 0.0
C918 C 0.52083 0.67404 0.46339 0.0
C919 C 0.52337 0.68937 0.4751 0.0
C920 C 0.52086 0.70568 0.4679 0.0
C921 C 0.52414 0.65681 0.47077 0.0
C922 C 0.51403 0.65014 0.48526 0.0
C923 C 0.53642 0.64653 0.46281 0.0
C924 C 0.54827 0.65329 0.44823 0.0
C925 C 0.55977 0.66937 0.45129 0.0
C926 C 0.57077 0.67577 0.43744 0.0
C927 C 0.57048 0.66615 0.4205 0.0
C928 C 0.55922 0.65008 0.41741 0.0
C929 C 0.54819 0.64363 0.43121 0.0
H930 H 0.579 0.67112 0.40979 0.0
H931 H 0.47327 0.60824 0.54477 0.0
H932 H 0.81493 0.79687 0.77025 0.0
H933 H 0.83706 0.7928 0.74741 0.0
H934 H 0.87925 0.82338 0.78362 0.0
H935 H 0.85719 0.82768 0.80644 0.0
H936 H 0.88112 0.8325 0.74779 0.0
H937 H 0.87568 0.77873 0.78073 0.0
H938 H 0.85935 0.75204 0.79294 0.0
H939 H 0.83976 0.73328 0.73727 0.0
H940 H 0.85579 0.76 0.72474 0.0
H941 H 0.96036 0.80741 0.71147 0.0
H942 H 0.93574 0.81273 0.73074 0.0
H943 H 0.8972 0.78061 0.69189 0.0
H944 H 0.92187 0.77499 0.6726 0.0
H945 H 0.89196 0.77238 0.72717 0.0
H946 H 0.89896 0.82538 0.69401 0.0
H947 H 0.91558 0.85193 0.68184 0.0
H948 H 0.93232 0.87216 0.73771 0.0
H949 H 0.916 0.8456 0.75022 0.0
C950 C 0.82891 0.80277 0.77334 0.0
C951 C 0.83432 0.81255 0.7902 0.0
C952 C 0.84155 0.80038 0.76029 0.0
C953 C 0.85985 0.80763 0.76389 0.0
C954 C 0.86521 0.81765 0.78056 0.0
C955 C 0.85259 0.82005 0.79361 0.0
C956 C 0.87348 0.80467 0.75041 0.0
C957 C 0.88362 0.81937 0.74341 0.0
C958 C 0.8764 0.78752 0.74432 0.0
C959 C 0.86676 0.77145 0.75182 0.0
C960 C 0.86777 0.76898 0.77111 0.0
C961 C 0.85859 0.75384 0.77808 0.0
C962 C 0.84848 0.741 0.76589 0.0
C963 C 0.84757 0.74326 0.7467 0.0
C964 C 0.8567 0.75839 0.73965 0.0
C965 C 0.94665 0.80154 0.70693 0.0
C966 C 0.94309 0.79078 0.69046 0.0
C967 C 0.93256 0.80467 0.71794 0.0
C968 C 0.91459 0.79724 0.71265 0.0
C969 C 0.91096 0.78652 0.69621 0.0
C970 C 0.92507 0.78335 0.68518 0.0
C971 C 0.89974 0.80022 0.72467 0.0
C972 C 0.88937 0.78553 0.73141 0.0
C973 C 0.89661 0.81738 0.73052 0.0
C974 C 0.90637 0.83342 0.72305 0.0
C975 C 0.90629 0.83543 0.7037 0.0
C976 C 0.91564 0.85049 0.69674 0.0
C977 C 0.92503 0.86371 0.70899 0.0
C978 C 0.92505 0.8619 0.72823 0.0
C979 C 0.91574 0.84686 0.73527 0.0
H980 H 0.93226 0.87536 0.70358 0.0
H981 H 0.84139 0.72928 0.77132 0.0
H982 H 0.04979 0.91102 0.50771 0.0
H983 H 0.035 0.89656 0.53337 0.0
H984 H 0.07639 0.86185 0.53758 0.0
H985 H 0.09152 0.87658 0.51237 0.0
H986 H 0.01962 0.86463 0.53667 0.0
H987 H 0.08376 0.84986 0.58137 0.0
H988 H 0.11553 0.86322 0.58911 0.0
H989 H 0.10083 0.91435 0.57738 0.0
H990 H 0.06894 0.90133 0.56981 0.0
H991 H 0.99748 0.79583 0.59678 0.0
H992 H 0.01021 0.81559 0.5739 0.0
H993 H 0.02674 0.85602 0.61738 0.0
H994 H 0.01447 0.83609 0.64048 0.0
H995 H 0.05327 0.8541 0.59634 0.0
H996 H 0.99027 0.85858 0.58478 0.0
H997 H 0.95758 0.84804 0.57845 0.0
H998 H 0.96816 0.82288 0.52674 0.0
H999 H 0.00097 0.83307 0.53288 0.0
C1000 C 0.05581 0.90038 0.5142 0.0
C1001 C 0.07188 0.895 0.50807 0.0
C1002 C 0.04731 0.8921 0.52883 0.0
C1003 C 0.05467 0.87824 0.53758 0.0
C1004 C 0.07064 0.87276 0.53135 0.0
C1005 C 0.07924 0.88114 0.51686 0.0
C1006 C 0.04543 0.86918 0.55286 0.0
C1007 C 0.02696 0.86239 0.54974 0.0
C1008 C 0.05487 0.86659 0.57012 0.0
C1009 C 0.07399 0.87458 0.57487 0.0
C1010 C 0.08729 0.86396 0.58052 0.0
C1011 C 0.10532 0.87147 0.58486 0.0
C1012 C 0.1102 0.88961 0.58369 0.0
C1013 C 0.09704 0.90029 0.57822 0.0
C1014 C 0.07899 0.89285 0.57389 0.0
C1015 C 0.00368 0.80898 0.60148 0.0
C1016 C 0.00495 0.81439 0.62046 0.0
C1017 C 0.01089 0.82031 0.58834 0.0
C1018 C 0.01926 0.83739 0.59385 0.0
C1019 C 0.02035 0.8429 0.61278 0.0
C1020 C 0.01328 0.83151 0.62596 0.0
C1021 C 0.02755 0.84919 0.57997 0.0
C1022 C 0.04587 0.85646 0.58333 0.0
C1023 C 0.01784 0.85262 0.56315 0.0
C1024 C 0.99811 0.84648 0.55937 0.0
C1025 C 0.98565 0.8507 0.57213 0.0
C1026 C 0.96709 0.8448 0.56856 0.0
C1027 C 0.9608 0.83477 0.55222 0.0
C1028 C 0.97306 0.83064 0.5394 0.0
C1029 C 0.99163 0.83649 0.5429 0.0
H1030 H 0.94643 0.83021 0.54949 0.0
H1031 H 0.12417 0.8954 0.58704 0.0
H1032 H 0.17579 0.80183 0.78723 0.0
H1033 H 0.14517 0.80167 0.77258 0.0
H1034 H 0.12928 0.75015 0.79296 0.0
H1035 H 0.16007 0.75008 0.80747 0.0
H1036 H 0.1186 0.75122 0.75688 0.0
H1037 H 0.11392 0.78664 0.81185 0.0
H1038 H 0.12302 0.81083 0.83559 0.0
H1039 H 0.11842 0.84887 0.79379 0.0
H1040 H 0.10954 0.8249 0.76974 0.0
H1041 H 0.02554 0.75202 0.72623 0.0
H1042 H 0.05315 0.75151 0.74672 0.0
H1043 H 0.07558 0.80167 0.72729 0.0
H1044 H 0.048 0.80237 0.70686 0.0
H1045 H 0.08145 0.80002 0.76519 0.0
H1046 H 0.08848 0.76439 0.71007 0.0
H1047 H 0.07941 0.74018 0.68634 0.0
H1048 H 0.07952 0.70239 0.72888 0.0
H1049 H 0.08835 0.72642 0.75291 0.0
C1050 C 0.16577 0.79052 0.78876 0.0
C1051 C 0.17039 0.77595 0.79851 0.0
C1052 C 0.14822 0.79049 0.78044 0.0
C1053 C 0.13487 0.77597 0.78182 0.0
C1054 C 0.13936 0.7615 0.79175 0.0
C1055 C 0.15695 0.76151 0.80007 0.0
C1056 C 0.11654 0.77561 0.77208 0.0
C1057 C 0.11031 0.76171 0.75898 0.0
C1058 C 0.1059 0.78948 0.77453 0.0
C1059 C 0.1112 0.80396 0.78896 0.0
C1060 C 0.11498 0.80016 0.80769 0.0
C1061 C 0.12008 0.81384 0.82121 0.0
C1062 C 0.12133 0.83137 0.81619 0.0
C1063 C 0.11745 0.83527 0.79765 0.0
C1064 C 0.11237 0.82165 0.78407 0.0
C1065 C 0.0363 0.763 0.72639 0.0
C1066 C 0.03461 0.7772 0.71484 0.0
C1067 C 0.05208 0.76265 0.73807 0.0
C1068 C 0.06646 0.77647 0.73838 0.0
C1069 C 0.06463 0.79088 0.72725 0.0
C1070 C 0.04888 0.79121 0.71553 0.0
C1071 C 0.08366 0.77574 0.74991 0.0
C1072 C 0.08967 0.78943 0.76329 0.0
C1073 C 0.09409 0.76167 0.74775 0.0
C1074 C 0.08887 0.74721 0.73331 0.0
C1075 C 0.08643 0.75093 0.71438 0.0
C1076 C 0.08136 0.73724 0.70087 0.0
C1077 C 0.07884 0.71976 0.7061 0.0
C1078 C 0.08144 0.71594 0.72485 0.0
C1079 C 0.08649 0.72958 0.73842 0.0
H1080 H 0.07492 0.70918 0.69562 0.0
H1081 H 0.12528 0.84194 0.82668 0.0
H1082 H 0.03042 0.61907 0.56218 0.0
H1083 H 0.02821 0.64424 0.58326 0.0
H1084 H 0.96965 0.63322 0.57736 0.0
H1085 H 0.97174 0.60804 0.5559 0.0
H1086 H 0.98073 0.66751 0.57361 0.0
H1087 H 0.99328 0.62508 0.61784 0.0
H1088 H 0.00942 0.60201 0.63185 0.0
H1089 H 0.05849 0.6385 0.64016 0.0
H1090 H 0.04272 0.66174 0.62596 0.0
H1091 H 0.97425 0.73477 0.64365 0.0
H1092 H 0.97129 0.70581 0.62722 0.0
H1093 H 0.02964 0.71005 0.62626 0.0
H1094 H 0.03274 0.73884 0.64278 0.0
H1095 H 0.01521 0.67745 0.6355 0.0
H1096 H 0.00346 0.7186 0.58824 0.0
H1097 H 0.98759 0.74168 0.57388 0.0
H1098 H 0.93699 0.70733 0.57124 0.0
H1099 H 0.95255 0.68412 0.58584 0.0
C1100 C 0.01705 0.62187 0.56545 0.0
C1101 C 0.00125 0.61154 0.55735 0.0
C1102 C 0.01581 0.63624 0.5776 0.0
C1103 C 0.99877 0.64049 0.58207 0.0
C1104 C 0.98294 0.63013 0.57414 0.0
C1105 C 0.98417 0.61573 0.56193 0.0
C1106 C 0.9976 0.65628 0.59432 0.0
C1107 C 0.98795 0.66952 0.58732 0.0
C1108 C 0.0073 0.65904 0.61206 0.0
C1109 C 0.01683 0.64512 0.62071 0.0
C1110 C 0.00754 0.62816 0.62254 0.0
C1111 C 0.01662 0.61505 0.63053 0.0
C1112 C 0.03497 0.61878 0.63686 0.0
C1113 C 0.04427 0.63563 0.63524 0.0
C1114 C 0.03526 0.64878 0.62724 0.0
C1115 C 0.98645 0.7295 0.64001 0.0
C1116 C 0.00373 0.73914 0.64444 0.0
C1117 C 0.98473 0.71297 0.63058 0.0
C1118 C 0.00024 0.70586 0.62539 0.0
C1119 C 0.0175 0.7153 0.63015 0.0
C1120 C 0.01923 0.7318 0.63952 0.0
C1121 C 0.99863 0.68875 0.61462 0.0
C1122 C 0.00777 0.67529 0.62192 0.0
C1123 C 0.98847 0.68579 0.59715 0.0
C1124 C 0.97913 0.69971 0.58834 0.0
C1125 C 0.98893 0.71603 0.58475 0.0
C1126 C 0.97999 0.72912 0.57654 0.0
C1127 C 0.96128 0.726 0.57171 0.0
C1128 C 0.95148 0.70975 0.57503 0.0
C1129 C 0.96034 0.69662 0.58326 0.0
H1130 H 0.95439 0.73615 0.56535 0.0
H1131 H 0.04198 0.60862 0.64305 0.0
H1132 H 0.75907 0.85583 0.26431 0.0
H1133 H 0.78046 0.88292 0.26698 0.0
H1134 H 0.75967 0.89734 0.21303 0.0
H1135 H 0.73832 0.8701 0.2101 0.0
H1136 H 0.7965 0.90418 0.21739 0.0
H1137 H 0.74626 0.91582 0.25216 0.0
H1138 H 0.72393 0.91036 0.27569 0.0
H1139 H 0.76724 0.91452 0.31903 0.0
H1140 H 0.78987 0.91978 0.29571 0.0
H1141 H 0.83229 0.99487 0.22604 0.0
H1142 H 0.81173 0.9672 0.22242 0.0
H1143 H 0.83203 0.9524 0.27641 0.0
H1144 H 0.85251 0.98016 0.28026 0.0
H1145 H 0.7954 0.94577 0.2718 0.0
H1146 H 0.84566 0.9343 0.23686 0.0
H1147 H 0.86787 0.93985 0.21322 0.0
H1148 H 0.82436 0.93553 0.17006 0.0
H1149 H 0.80187 0.93019 0.19349 0.0
C1150 C 0.7591 0.86468 0.25293 0.0
C1151 C 0.74688 0.86083 0.23703 0.0
C1152 C 0.77129 0.88021 0.25453 0.0
C1153 C 0.77145 0.89228 0.24033 0.0
C1154 C 0.75971 0.88823 0.22418 0.0
C1155 C 0.7475 0.87267 0.22255 0.0
C1156 C 0.78362 0.90927 0.24255 0.0
C1157 C 0.7961 0.91339 0.22915 0.0
C1158 C 0.78334 0.92111 0.2581 0.0
C1159 C 0.76976 0.91802 0.27216 0.0
C1160 C 0.75103 0.91544 0.26669 0.0
C1161 C 0.73832 0.9124 0.27999 0.0
C1162 C 0.74416 0.91205 0.29884 0.0
C1163 C 0.76274 0.91478 0.30442 0.0
C1164 C 0.77551 0.9178 0.29117 0.0
C1165 C 0.83238 0.98576 0.23717 0.0
C1166 C 0.84409 0.9897 0.25342 0.0
C1167 C 0.82067 0.9699 0.23503 0.0
C1168 C 0.82052 0.95764 0.24904 0.0
C1169 C 0.83197 0.96166 0.26541 0.0
C1170 C 0.84369 0.97752 0.26756 0.0
C1171 C 0.80833 0.94066 0.24667 0.0
C1172 C 0.79581 0.93656 0.26004 0.0
C1173 C 0.80857 0.92886 0.23108 0.0
C1174 C 0.82207 0.93202 0.21696 0.0
C1175 C 0.84082 0.93468 0.22235 0.0
C1176 C 0.85346 0.93776 0.20898 0.0
C1177 C 0.84753 0.93809 0.19016 0.0
C1178 C 0.82894 0.93529 0.18465 0.0
C1179 C 0.81624 0.93222 0.19797 0.0
H1180 H 0.85734 0.94047 0.17983 0.0
H1181 H 0.7343 0.9097 0.30911 0.0
H1182 H 0.838 0.2166 0.29684 0.0
H1183 H 0.84561 0.18653 0.2977 0.0
H1184 H 0.78862 0.16615 0.2897 0.0
H1185 H 0.78089 0.19624 0.28854 0.0
H1186 H 0.83762 0.15961 0.31974 0.0
H1187 H 0.78453 0.12812 0.26201 0.0
H1188 H 0.76664 0.1367 0.23442 0.0
H1189 H 0.80798 0.17998 0.2274 0.0
H1190 H 0.82621 0.17152 0.25479 0.0
H1191 H 0.84163 0.0667 0.31296 0.0
H1192 H 0.82934 0.09487 0.31516 0.0
H1193 H 0.85332 0.11019 0.26445 0.0
H1194 H 0.8655 0.08215 0.26206 0.0
H1195 H 0.81904 0.11843 0.26482 0.0
H1196 H 0.87388 0.12535 0.3061 0.0
H1197 H 0.89403 0.11761 0.33238 0.0
H1198 H 0.85316 0.12514 0.37013 0.0
H1199 H 0.83267 0.1327 0.344 0.0
C1200 C 0.82706 0.20574 0.29535 0.0
C1201 C 0.80885 0.20881 0.29247 0.0
C1202 C 0.83143 0.18855 0.29593 0.0
C1203 C 0.8177 0.1741 0.29359 0.0
C1204 C 0.79945 0.17712 0.29129 0.0
C1205 C 0.79506 0.19432 0.29067 0.0
C1206 C 0.82264 0.15594 0.29283 0.0
C1207 C 0.83343 0.15055 0.3078 0.0
C1208 C 0.81733 0.14418 0.27717 0.0
C1209 C 0.8066 0.1493 0.26057 0.0
C1210 C 0.78981 0.13944 0.25454 0.0
C1211 C 0.77961 0.14428 0.23894 0.0
C1212 C 0.78614 0.15892 0.22921 0.0
C1213 C 0.80291 0.16869 0.235 0.0
C1214 C 0.81316 0.16389 0.25057 0.0
C1215 C 0.8442 0.07604 0.30223 0.0
C1216 C 0.85462 0.07222 0.28739 0.0
C1217 C 0.83721 0.09213 0.30354 0.0
C1218 C 0.84053 0.10465 0.29003 0.0
C1219 C 0.85057 0.1007 0.275 0.0
C1220 C 0.85759 0.08468 0.27371 0.0
C1221 C 0.83406 0.12213 0.29169 0.0
C1222 C 0.82297 0.12738 0.2769 0.0
C1223 C 0.83936 0.13386 0.30736 0.0
C1224 C 0.85168 0.12939 0.32308 0.0
C1225 C 0.86914 0.12521 0.31998 0.0
C1226 C 0.88063 0.12088 0.33485 0.0
C1227 C 0.87486 0.12083 0.35291 0.0
C1228 C 0.8576 0.12515 0.35613 0.0
C1229 C 0.84605 0.12947 0.3413 0.0
H1230 H 0.88377 0.11747 0.3644 0.0
H1231 H 0.77822 0.16265 0.21715 0.0
H1232 H 0.40163 0.0173 0.98944 0.0
H1233 H 0.37591 0.99685 0.99802 0.0
H1234 H 0.41043 0.97733 0.04104 0.0
H1235 H 0.43631 0.99764 0.03241 0.0
H1236 H 0.38926 0.95067 0.0211 0.0
H1237 H 0.38049 0.00509 0.05228 0.0
H1238 H 0.37735 0.03675 0.05479 0.0
H1239 H 0.33032 0.02826 0.0157 0.0
H1240 H 0.33333 0.99656 0.01276 0.0
H1241 H 0.3174 0.90295 0.06559 0.0
H1242 H 0.34363 0.92412 0.05962 0.0
H1243 H 0.31121 0.94614 0.01661 0.0
H1244 H 0.28487 0.92523 0.02266 0.0
H1245 H 0.33179 0.97169 0.03786 0.0
H1246 H 0.34105 0.91775 0.00569 0.0
H1247 H 0.34408 0.88608 0.00272 0.0
H1248 H 0.39007 0.89369 0.04314 0.0
H1249 H 0.38715 0.92539 0.04655 0.0
C1250 C 0.40377 0.00867 0.00073 0.0
C1251 C 0.42101 0.00913 0.01028 0.0
C1252 C 0.38903 0.99704 0.00568 0.0
C1253 C 0.3912 0.98571 0.02032 0.0
C1254 C 0.40844 0.98599 0.02973 0.0
C1255 C 0.4232 0.99764 0.02481 0.0
C1256 C 0.37553 0.97343 0.02564 0.0
C1257 C 0.37679 0.95528 0.02505 0.0
C1258 C 0.35912 0.97943 0.03038 0.0
C1259 C 0.35724 0.99847 0.03217 0.0
C1260 C 0.36956 0.00999 0.0441 0.0
C1261 C 0.36779 0.02794 0.04563 0.0
C1262 C 0.35367 0.03452 0.03538 0.0
C1263 C 0.34126 0.02315 0.02362 0.0
C1264 C 0.34299 0.00519 0.02203 0.0
C1265 C 0.31583 0.91233 0.05491 0.0
C1266 C 0.29906 0.91234 0.04455 0.0
C1267 C 0.33086 0.92438 0.05146 0.0
C1268 C 0.32943 0.93657 0.03751 0.0
C1269 C 0.31262 0.93684 0.02743 0.0
C1270 C 0.29759 0.92483 0.03088 0.0
C1271 C 0.34549 0.94893 0.03323 0.0
C1272 C 0.34429 0.96709 0.034 0.0
C1273 C 0.36194 0.94294 0.02859 0.0
C1274 C 0.36376 0.9239 0.02652 0.0
C1275 C 0.35172 0.91265 0.01406 0.0
C1276 C 0.35343 0.8947 0.01227 0.0
C1277 C 0.36723 0.88787 0.02277 0.0
C1278 C 0.37937 0.89899 0.03504 0.0
C1279 C 0.3777 0.91695 0.0369 0.0
H1280 H 0.36854 0.87397 0.02137 0.0
H1281 H 0.35232 0.04842 0.03657 0.0
H1282 H 0.23549 0.36111 0.38154 0.0
H1283 H 0.21368 0.38131 0.37324 0.0
H1284 H 0.19884 0.35209 0.32077 0.0
H1285 H 0.2209 0.33194 0.32885 0.0
H1286 H 0.20618 0.38635 0.31561 0.0
H1287 H 0.16913 0.35136 0.35518 0.0
H1288 H 0.16163 0.33598 0.38364 0.0
H1289 H 0.17069 0.38527 0.41557 0.0
H1290 H 0.1785 0.40093 0.38734 0.0
H1291 H 0.13742 0.44037 0.29177 0.0
H1292 H 0.15237 0.41455 0.29929 0.0
H1293 H 0.17271 0.43934 0.35281 0.0
H1294 H 0.15767 0.46506 0.34553 0.0
H1295 H 0.15985 0.40491 0.35583 0.0
H1296 H 0.19989 0.43916 0.31696 0.0
H1297 H 0.20787 0.45461 0.28866 0.0
H1298 H 0.19327 0.40637 0.25551 0.0
H1299 H 0.18497 0.39068 0.28361 0.0
C1300 C 0.22741 0.3588 0.36835 0.0
C1301 C 0.23001 0.34496 0.35582 0.0
C1302 C 0.21487 0.37033 0.36365 0.0
C1303 C 0.20454 0.36816 0.34642 0.0
C1304 C 0.20667 0.35401 0.33414 0.0
C1305 C 0.21925 0.34248 0.33881 0.0
C1306 C 0.19258 0.38145 0.34071 0.0
C1307 C 0.19578 0.39014 0.32421 0.0
C1308 C 0.17929 0.38667 0.35214 0.0
C1309 C 0.17454 0.37731 0.36915 0.0
C1310 C 0.16966 0.35891 0.36829 0.0
C1311 C 0.16532 0.35014 0.38438 0.0
C1312 C 0.16572 0.35964 0.40141 0.0
C1313 C 0.1704 0.37793 0.40237 0.0
C1314 C 0.17476 0.38676 0.38632 0.0
C1315 C 0.14504 0.44031 0.30516 0.0
C1316 C 0.14643 0.45482 0.31802 0.0
C1317 C 0.1536 0.42556 0.30942 0.0
C1318 C 0.16377 0.42509 0.32655 0.0
C1319 C 0.1649 0.43941 0.33952 0.0
C1320 C 0.15636 0.45415 0.33529 0.0
C1321 C 0.17364 0.4099 0.33088 0.0
C1322 C 0.17008 0.40091 0.34712 0.0
C1323 C 0.18661 0.40438 0.31923 0.0
C1324 C 0.19161 0.4138 0.30234 0.0
C1325 C 0.19824 0.43188 0.30361 0.0
C1326 C 0.20285 0.44068 0.28761 0.0
C1327 C 0.20102 0.43149 0.27029 0.0
C1328 C 0.19464 0.41348 0.26893 0.0
C1329 C 0.18999 0.40463 0.28489 0.0
H1330 H 0.20461 0.43832 0.25792 0.0
H1331 H 0.16236 0.35282 0.41385 0.0
H1332 H 0.09496 0.98967 0.48706 0.0
H1333 H 0.11224 0.01894 0.49324 0.0
H1334 H 0.15736 0.00165 0.46623 0.0
H1335 H 0.14025 0.97225 0.46047 0.0
H1336 H 0.16965 0.01919 0.4965 0.0
H1337 H 0.12848 0.03006 0.44528 0.0
H1338 H 0.09858 0.02967 0.42795 0.0
H1339 H 0.08117 0.06167 0.47182 0.0
H1340 H 0.11097 0.06219 0.48946 0.0
H1341 H 0.21977 0.10294 0.48868 0.0
H1342 H 0.20018 0.0754 0.47968 0.0
H1343 H 0.16008 0.09036 0.51554 0.0
H1344 H 0.1796 0.11804 0.52465 0.0
H1345 H 0.14501 0.07452 0.48079 0.0
H1346 H 0.18869 0.06425 0.53079 0.0
H1347 H 0.21957 0.06473 0.54596 0.0
H1348 H 0.23315 0.03075 0.50167 0.0
H1349 H 0.20257 0.03054 0.48593 0.0
C1350 C 0.10843 0.99223 0.48215 0.0
C1351 C 0.11616 0.9788 0.47301 0.0
C1352 C 0.11832 0.00896 0.48571 0.0
C1353 C 0.13602 0.01264 0.47992 0.0
C1354 C 0.14374 0.99917 0.47082 0.0
C1355 C 0.13395 0.98239 0.4675 0.0
C1356 C 0.14677 0.03031 0.4839 0.0
C1357 C 0.16433 0.03126 0.49279 0.0
C1358 C 0.13975 0.04612 0.47941 0.0
C1359 C 0.12189 0.04602 0.46877 0.0
C1360 C 0.11824 0.03693 0.45128 0.0
C1361 C 0.10132 0.03671 0.44139 0.0
C1362 C 0.08795 0.04556 0.44882 0.0
C1363 C 0.09153 0.05478 0.4661 0.0
C1364 C 0.10845 0.05508 0.47603 0.0
C1365 C 0.2067 0.1005 0.49451 0.0
C1366 C 0.20131 0.11263 0.50752 0.0
C1367 C 0.19555 0.08473 0.48937 0.0
C1368 C 0.17881 0.08077 0.49713 0.0
C1369 C 0.17299 0.09317 0.50944 0.0
C1370 C 0.18418 0.10894 0.51467 0.0
C1371 C 0.16786 0.06329 0.49317 0.0
C1372 C 0.15028 0.06241 0.48439 0.0
C1373 C 0.17498 0.0475 0.49747 0.0
C1374 C 0.19337 0.04756 0.50705 0.0
C1375 C 0.19833 0.05705 0.52417 0.0
C1376 C 0.2158 0.05729 0.53287 0.0
C1377 C 0.22837 0.04788 0.52472 0.0
C1378 C 0.22347 0.03816 0.5079 0.0
C1379 C 0.20607 0.03799 0.49907 0.0
H1380 H 0.24188 0.04805 0.53148 0.0
H1381 H 0.07484 0.04532 0.44117 0.0
H1382 H 0.72362 0.18616 0.78069 0.0
H1383 H 0.70017 0.16164 0.78534 0.0
H1384 H 0.72153 0.12994 0.74343 0.0
H1385 H 0.74481 0.15447 0.73844 0.0
H1386 H 0.68503 0.12457 0.74076 0.0
H1387 H 0.73301 0.12611 0.7897 0.0
H1388 H 0.75393 0.13973 0.81591 0.0
H1389 H 0.70844 0.14894 0.84683 0.0
H1390 H 0.68724 0.13558 0.82069 0.0
H1391 H 0.65316 0.03839 0.76593 0.0
H1392 H 0.67206 0.0657 0.7597 0.0
H1393 H 0.64654 0.09377 0.80148 0.0
H1394 H 0.62764 0.06643 0.80795 0.0
H1395 H 0.68329 0.1022 0.80448 0.0
H1396 H 0.63527 0.09832 0.75595 0.0
H1397 H 0.6148 0.08402 0.72975 0.0
H1398 H 0.6607 0.07857 0.69799 0.0
H1399 H 0.68148 0.09261 0.72412 0.0
C1400 C 0.7232 0.17405 0.7723 0.0
C1401 C 0.7362 0.17221 0.75933 0.0
C1402 C 0.70983 0.16002 0.77503 0.0
C1403 C 0.70932 0.14386 0.76497 0.0
C1404 C 0.72172 0.14227 0.75139 0.0
C1405 C 0.73505 0.15631 0.74859 0.0
C1406 C 0.69646 0.12833 0.76919 0.0
C1407 C 0.68474 0.11959 0.75466 0.0
C1408 C 0.69583 0.12204 0.78741 0.0
C1409 C 0.70855 0.13003 0.80316 0.0
C1410 C 0.72747 0.13117 0.80203 0.0
C1411 C 0.73938 0.13882 0.81688 0.0
C1412 C 0.73252 0.14524 0.833 0.0
C1413 C 0.71374 0.14399 0.83432 0.0
C1414 C 0.70177 0.13637 0.8195 0.0
C1415 C 0.65155 0.05036 0.77382 0.0
C1416 C 0.63885 0.05024 0.78741 0.0
C1417 C 0.6623 0.06598 0.77016 0.0
C1418 C 0.66052 0.0818 0.77995 0.0
C1419 C 0.64806 0.0817 0.79371 0.0
C1420 C 0.63726 0.06607 0.79737 0.0
C1421 C 0.67195 0.09836 0.77603 0.0
C1422 C 0.68343 0.10727 0.79062 0.0
C1423 C 0.67241 0.10474 0.75785 0.0
C1424 C 0.65994 0.09638 0.74206 0.0
C1425 C 0.64101 0.09395 0.74343 0.0
C1426 C 0.62935 0.08591 0.72858 0.0
C1427 C 0.63645 0.08035 0.71223 0.0
C1428 C 0.65522 0.08286 0.71067 0.0
C1429 C 0.66695 0.09088 0.72549 0.0
H1430 H 0.6274 0.07413 0.70075 0.0
H1431 H 0.74176 0.15116 0.84449 0.0
H1432 H 0.41152 0.04386 0.54221 0.0
H1433 H 0.38794 0.06338 0.53988 0.0
H1434 H 0.34997 0.02346 0.56179 0.0
H1435 H 0.37342 0.00377 0.56399 0.0
H1436 H 0.33481 0.03785 0.53178 0.0
H1437 H 0.36921 0.05917 0.58897 0.0
H1438 H 0.39689 0.07038 0.60898 0.0
H1439 H 0.40621 0.11513 0.57513 0.0
H1440 H 0.3787 0.10406 0.55475 0.0
H1441 H 0.26631 0.09096 0.54934 0.0
H1442 H 0.2905 0.0724 0.55392 0.0
H1443 H 0.32833 0.11211 0.53151 0.0
H1444 H 0.30423 0.1309 0.52704 0.0
H1445 H 0.34359 0.09798 0.56207 0.0
H1446 H 0.31045 0.07669 0.50444 0.0
H1447 H 0.28307 0.0659 0.48379 0.0
H1448 H 0.27171 0.02161 0.51787 0.0
H1449 H 0.29897 0.03224 0.53885 0.0
C1450 C 0.39816 0.03923 0.54657 0.0
C1451 C 0.39436 0.02226 0.55332 0.0
C1452 C 0.38472 0.05044 0.54531 0.0
C1453 C 0.36724 0.04495 0.55085 0.0
C1454 C 0.36337 0.02798 0.55747 0.0
C1455 C 0.37681 0.01676 0.55876 0.0
C1456 C 0.3529 0.05678 0.54943 0.0
C1457 C 0.33663 0.05089 0.53864 0.0
C1458 C 0.35546 0.07399 0.55796 0.0
C1459 C 0.37199 0.08069 0.57023 0.0
C1460 C 0.37724 0.07133 0.5857 0.0
C1461 C 0.39289 0.07767 0.59713 0.0
C1462 C 0.40333 0.09343 0.5933 0.0
C1463 C 0.39812 0.10291 0.57806 0.0
C1464 C 0.38249 0.09662 0.56658 0.0
C1465 C 0.27979 0.09583 0.54549 0.0
C1466 C 0.28331 0.11239 0.53773 0.0
C1467 C 0.29359 0.08516 0.54806 0.0
C1468 C 0.31116 0.09079 0.54283 0.0
C1469 C 0.31486 0.10751 0.5356 0.0
C1470 C 0.30105 0.1182 0.533 0.0
C1471 C 0.32552 0.07901 0.54449 0.0
C1472 C 0.34178 0.08492 0.55528 0.0
C1473 C 0.323 0.06184 0.53589 0.0
C1474 C 0.30666 0.05533 0.52328 0.0
C1475 C 0.30205 0.06471 0.5076 0.0
C1476 C 0.28658 0.05861 0.49582 0.0
C1477 C 0.27566 0.04309 0.49952 0.0
C1478 C 0.28019 0.03363 0.51502 0.0
C1479 C 0.29567 0.03967 0.52684 0.0
H1480 H 0.26375 0.03836 0.49032 0.0
H1481 H 0.41544 0.09832 0.60217 0.0
H1482 H 0.59065 0.49967 0.54007 0.0
H1483 H 0.61731 0.48424 0.54541 0.0
H1484 H 0.60403 0.45541 0.49252 0.0
H1485 H 0.57738 0.47079 0.48704 0.0
H1486 H 0.61152 0.43396 0.52143 0.0
H1487 H 0.63837 0.4878 0.49658 0.0
H1488 H 0.64531 0.52004 0.49497 0.0
H1489 H 0.67143 0.52349 0.55039 0.0
H1490 H 0.66441 0.49127 0.55242 0.0
H1491 H 0.69283 0.39685 0.5115 0.0
H1492 H 0.66664 0.41297 0.50754 0.0
H1493 H 0.68473 0.44397 0.5583 0.0
H1494 H 0.71123 0.42811 0.56218 0.0
H1495 H 0.67464 0.46453 0.53164 0.0
H1496 H 0.64858 0.41114 0.5568 0.0
H1497 H 0.6415 0.37899 0.55919 0.0
H1498 H 0.61361 0.37471 0.50456 0.0
H1499 H 0.62075 0.40681 0.50173 0.0
C1500 C 0.59346 0.49013 0.52952 0.0
C1501 C 0.58191 0.48646 0.51312 0.0
C1502 C 0.60872 0.48136 0.53257 0.0
C1503 C 0.61266 0.46874 0.51932 0.0
C1504 C 0.60121 0.4651 0.50292 0.0
C1505 C 0.58603 0.47396 0.49979 0.0
C1506 C 0.6285 0.45901 0.52274 0.0
C1507 C 0.62535 0.4406 0.52343 0.0
C1508 C 0.64645 0.46777 0.52592 0.0
C1509 C 0.65069 0.48714 0.52472 0.0
C1510 C 0.64545 0.49545 0.50848 0.0
C1511 C 0.64943 0.51372 0.50748 0.0
C1512 C 0.65876 0.52382 0.52259 0.0
C1513 C 0.66418 0.51565 0.53871 0.0
C1514 C 0.66021 0.49739 0.53979 0.0
C1515 C 0.69121 0.40703 0.52189 0.0
C1516 C 0.70411 0.41117 0.53719 0.0
C1517 C 0.67618 0.4162 0.51964 0.0
C1518 C 0.6736 0.42955 0.53274 0.0
C1519 C 0.68644 0.43371 0.54803 0.0
C1520 C 0.70154 0.42459 0.55026 0.0
C1521 C 0.65771 0.43941 0.5302 0.0
C1522 C 0.66082 0.45786 0.5297 0.0
C1523 C 0.63969 0.43069 0.52733 0.0
C1524 C 0.63535 0.41137 0.52899 0.0
C1525 C 0.64107 0.40333 0.54523 0.0
C1526 C 0.63702 0.38511 0.54668 0.0
C1527 C 0.62715 0.37481 0.53202 0.0
C1528 C 0.62127 0.3827 0.5159 0.0
C1529 C 0.6253 0.40091 0.51437 0.0
H1530 H 0.62403 0.36071 0.53317 0.0
H1531 H 0.66183 0.53796 0.52179 0.0
H1532 H 0.78744 0.30593 0.33397 0.0
H1533 H 0.7815 0.32135 0.36278 0.0
H1534 H 0.74694 0.27515 0.37767 0.0
H1535 H 0.75243 0.25986 0.34847 0.0
H1536 H 0.73229 0.30312 0.38681 0.0
H1537 H 0.79148 0.28607 0.39737 0.0
H1538 H 0.82311 0.28313 0.39091 0.0
H1539 H 0.83624 0.33948 0.39344 0.0
H1540 H 0.80461 0.34277 0.39967 0.0
H1541 H 0.73725 0.33449 0.48327 0.0
H1542 H 0.73989 0.31683 0.45468 0.0
H1543 H 0.76674 0.36272 0.43031 0.0
H1544 H 0.76408 0.38046 0.45867 0.0
H1545 H 0.78489 0.33282 0.42748 0.0
H1546 H 0.72415 0.34875 0.41637 0.0
H1547 H 0.69255 0.35034 0.42394 0.0
H1548 H 0.68269 0.29386 0.42433 0.0
H1549 H 0.71433 0.29195 0.41701 0.0
C1550 C 0.77851 0.29911 0.34336 0.0
C1551 C 0.77032 0.28176 0.33899 0.0
C1552 C 0.77519 0.30789 0.35987 0.0
C1553 C 0.76406 0.2993 0.37261 0.0
C1554 C 0.75557 0.28205 0.36807 0.0
C1555 C 0.75865 0.27335 0.35137 0.0
C1556 C 0.76155 0.30831 0.39072 0.0
C1557 C 0.74381 0.30937 0.39584 0.0
C1558 C 0.77655 0.31658 0.4025 0.0
C1559 C 0.79563 0.31466 0.39884 0.0
C1560 C 0.80108 0.29784 0.39643 0.0
C1561 C 0.81902 0.29611 0.39282 0.0
C1562 C 0.83167 0.3111 0.39172 0.0
C1563 C 0.82642 0.32787 0.39428 0.0
C1564 C 0.8085 0.32968 0.39787 0.0
C1565 C 0.74364 0.34083 0.47179 0.0
C1566 C 0.75046 0.35887 0.47323 0.0
C1567 C 0.74508 0.33074 0.45546 0.0
C1568 C 0.75345 0.33851 0.4404 0.0
C1569 C 0.76023 0.3565 0.4418 0.0
C1570 C 0.75865 0.36662 0.458 0.0
C1571 C 0.7557 0.32788 0.42331 0.0
C1572 C 0.77341 0.32647 0.41846 0.0
C1573 C 0.7407 0.31907 0.41199 0.0
C1574 C 0.72167 0.32022 0.41635 0.0
C1575 C 0.7153 0.33668 0.41824 0.0
C1576 C 0.69737 0.33763 0.42245 0.0
C1577 C 0.68563 0.32221 0.42467 0.0
C1578 C 0.6918 0.3058 0.42264 0.0
C1579 C 0.70973 0.30477 0.41844 0.0
H1580 H 0.67176 0.32298 0.42793 0.0
H1581 H 0.84555 0.30973 0.38892 0.0
H1582 H 0.48833 0.02299 0.9388 0.0
H1583 H 0.50668 0.01481 0.91382 0.0
H1584 H 0.54911 0.00479 0.95454 0.0
H1585 H 0.53092 0.01307 0.97964 0.0
H1586 H 0.56221 0.02592 0.928 0.0
H1587 H 0.52396 0.97092 0.92954 0.0
H1588 H 0.49498 0.95125 0.92942 0.0
H1589 H 0.4785 0.96773 0.87518 0.0
H1590 H 0.50728 0.9877 0.87508 0.0
H1591 H 0.61634 0.99286 0.86061 0.0
H1592 H 0.59798 0.99499 0.8873 0.0
H1593 H 0.55221 0.00425 0.85038 0.0
H1594 H 0.57033 0.00186 0.82364 0.0
H1595 H 0.54161 0.98167 0.87621 0.0
H1596 H 0.57832 0.03812 0.87554 0.0
H1597 H 0.6069 0.05838 0.87547 0.0
H1598 H 0.62577 0.03971 0.92792 0.0
H1599 H 0.59739 0.01916 0.92818 0.0
C1600 C 0.50146 0.01884 0.94248 0.0
C1601 C 0.50817 0.01875 0.96124 0.0
C1602 C 0.51191 0.01409 0.92817 0.0
C1603 C 0.52923 0.00912 0.93233 0.0
C1604 C 0.53578 0.0086 0.95103 0.0
C1605 C 0.52532 0.01328 0.96536 0.0
C1606 C 0.54094 0.00556 0.91715 0.0
C1607 C 0.55785 0.01601 0.91685 0.0
C1608 C 0.53505 0.99294 0.90238 0.0
C1609 C 0.51772 0.98093 0.90238 0.0
C1610 C 0.51409 0.97047 0.91765 0.0
C1611 C 0.49771 0.95924 0.91761 0.0
C1612 C 0.48489 0.95827 0.90232 0.0
C1613 C 0.48844 0.96851 0.88702 0.0
C1614 C 0.50479 0.97977 0.88699 0.0
C1615 C 0.60236 0.99532 0.85817 0.0
C1616 C 0.59483 0.99728 0.84001 0.0
C1617 C 0.59189 0.99657 0.87344 0.0
C1618 C 0.57377 0.99996 0.87084 0.0
C1619 C 0.56615 0.00161 0.85271 0.0
C1620 C 0.57657 0.00031 0.83744 0.0
C1621 C 0.5628 0.00212 0.88701 0.0
C1622 C 0.54602 0.99145 0.88746 0.0
C1623 C 0.56876 0.0146 0.90189 0.0
C1624 C 0.58582 0.02696 0.90177 0.0
C1625 C 0.58863 0.03823 0.88698 0.0
C1626 C 0.60478 0.04979 0.88692 0.0
C1627 C 0.61816 0.05029 0.90165 0.0
C1628 C 0.6154 0.03928 0.9165 0.0
C1629 C 0.59929 0.02768 0.91662 0.0
H1630 H 0.63066 0.05925 0.90158 0.0
H1631 H 0.47221 0.94957 0.90231 0.0
H1632 H 0.27992 0.28162 0.35599 0.0
H1633 H 0.26764 0.2586 0.37596 0.0
H1634 H 0.31749 0.26694 0.41154 0.0
H1635 H 0.3298 0.28999 0.39163 0.0
H1636 H 0.30656 0.23262 0.40466 0.0
H1637 H 0.27872 0.28326 0.42394 0.0
H1638 H 0.26095 0.30797 0.41872 0.0
H1639 H 0.21452 0.27158 0.39776 0.0
H1640 H 0.23211 0.24666 0.4026 0.0
H1641 H 0.27936 0.19076 0.48549 0.0
H1642 H 0.28958 0.21236 0.46317 0.0
H1643 H 0.23826 0.20033 0.43046 0.0
H1644 H 0.22777 0.17881 0.45291 0.0
H1645 H 0.24864 0.23545 0.43425 0.0
H1646 H 0.27595 0.18473 0.41619 0.0
H1647 H 0.29379 0.15999 0.42078 0.0
H1648 H 0.34114 0.19638 0.43901 0.0
H1649 H 0.32352 0.22134 0.43478 0.0
C1650 C 0.28811 0.27881 0.36827 0.0
C1651 C 0.30565 0.28791 0.37251 0.0
C1652 C 0.28113 0.26555 0.3796 0.0
C1653 C 0.29154 0.26124 0.39542 0.0
C1654 C 0.3092 0.27008 0.39944 0.0
C1655 C 0.3162 0.28326 0.38807 0.0
C1656 C 0.28414 0.24748 0.4078 0.0
C1657 C 0.294 0.23334 0.4113 0.0
C1658 C 0.26748 0.24817 0.41603 0.0
C1659 C 0.25679 0.26311 0.41346 0.0
C1660 C 0.26476 0.28054 0.41811 0.0
C1661 C 0.25472 0.29458 0.41523 0.0
C1662 C 0.23664 0.29135 0.40786 0.0
C1663 C 0.22853 0.27406 0.40344 0.0
C1664 C 0.23853 0.25997 0.40626 0.0
C1665 C 0.27022 0.19266 0.47354 0.0
C1666 C 0.25277 0.18299 0.47095 0.0
C1667 C 0.27613 0.20498 0.46075 0.0
C1668 C 0.26477 0.2078 0.44502 0.0
C1669 C 0.24726 0.19833 0.44248 0.0
C1670 C 0.24132 0.186 0.4553 0.0
C1671 C 0.27121 0.22072 0.43132 0.0
C1672 C 0.26116 0.23469 0.42756 0.0
C1673 C 0.2877 0.21988 0.42282 0.0
C1674 C 0.29836 0.2049 0.42532 0.0
C1675 C 0.29013 0.18745 0.42132 0.0
C1676 C 0.30022 0.17339 0.42383 0.0
C1677 C 0.31858 0.17661 0.43023 0.0
C1678 C 0.32691 0.1939 0.43408 0.0
C1679 C 0.31689 0.20802 0.4316 0.0
H1680 H 0.32636 0.1657 0.43216 0.0
H1681 H 0.22889 0.30224 0.40561 0.0
H1682 H 0.54597 0.51313 0.8955 0.0
H1683 H 0.51974 0.52013 0.87627 0.0
H1684 H 0.48663 0.51338 0.92296 0.0
H1685 H 0.51281 0.50606 0.94228 0.0
H1686 H 0.47 0.49585 0.89257 0.0
H1687 H 0.49902 0.55438 0.90702 0.0
H1688 H 0.52425 0.5788 0.91028 0.0
H1689 H 0.52994 0.57472 0.85139 0.0
H1690 H 0.5049 0.5501 0.84781 0.0
H1691 H 0.39452 0.52563 0.84175 0.0
H1692 H 0.41939 0.52363 0.86542 0.0
H1693 H 0.4576 0.52689 0.82292 0.0
H1694 H 0.4329 0.52904 0.79921 0.0
H1695 H 0.47027 0.548 0.85371 0.0
H1696 H 0.44298 0.48773 0.84014 0.0
H1697 H 0.41776 0.46329 0.83706 0.0
H1698 H 0.40877 0.47103 0.8949 0.0
H1699 H 0.4338 0.49569 0.89825 0.0
C1700 C 0.53318 0.51332 0.90177 0.0
C1701 C 0.53148 0.50899 0.92042 0.0
C1702 C 0.51819 0.51741 0.89076 0.0
C1703 C 0.50124 0.51743 0.89821 0.0
C1704 C 0.49958 0.51347 0.91694 0.0
C1705 C 0.51458 0.50934 0.92797 0.0
C1706 C 0.48507 0.52052 0.88608 0.0
C1707 C 0.46992 0.50743 0.88436 0.0
C1708 C 0.4851 0.53547 0.87509 0.0
C1709 C 0.50016 0.55029 0.87717 0.0
C1710 C 0.50574 0.55859 0.89478 0.0
C1711 C 0.51999 0.57249 0.89669 0.0
C1712 C 0.52872 0.57828 0.88106 0.0
C1713 C 0.52318 0.57021 0.86349 0.0
C1714 C 0.50894 0.5563 0.86151 0.0
C1715 C 0.40821 0.52593 0.83744 0.0
C1716 C 0.41171 0.52741 0.81858 0.0
C1717 C 0.4224 0.52475 0.85098 0.0
C1718 C 0.44031 0.52499 0.8459 0.0
C1719 C 0.44387 0.52671 0.82714 0.0
C1720 C 0.42971 0.52785 0.81359 0.0
C1721 C 0.45539 0.52321 0.86004 0.0
C1722 C 0.47031 0.53654 0.86211 0.0
C1723 C 0.45514 0.50851 0.87139 0.0
C1724 C 0.44012 0.49368 0.86939 0.0
C1725 C 0.43552 0.48432 0.85216 0.0
C1726 C 0.42128 0.4704 0.85037 0.0
C1727 C 0.41163 0.46564 0.86576 0.0
C1728 C 0.41624 0.47476 0.88298 0.0
C1729 C 0.43045 0.48869 0.88484 0.0
H1730 H 0.40061 0.45487 0.86435 0.0
H1731 H 0.53975 0.58904 0.88256 0.0
H1732 H 0.69855 0.79215 0.1533 0.0
H1733 H 0.70596 0.77132 0.12935 0.0
H1734 H 0.73043 0.74163 0.17181 0.0
H1735 H 0.7234 0.76265 0.19585 0.0
H1736 H 0.75143 0.74567 0.14357 0.0
H1737 H 0.68824 0.72691 0.14972 0.0
H1738 H 0.65578 0.73033 0.15074 0.0
H1739 H 0.65423 0.74714 0.0945 0.0
H1740 H 0.68677 0.74405 0.09322 0.0
H1741 H 0.75723 0.67029 0.08403 0.0
H1742 H 0.74953 0.68993 0.10904 0.0
H1743 H 0.72631 0.72216 0.06826 0.0
H1744 H 0.73376 0.70252 0.0432 0.0
H1745 H 0.70449 0.71597 0.0963 0.0
H1746 H 0.76793 0.73537 0.09057 0.0
H1747 H 0.80037 0.73182 0.08962 0.0
H1748 H 0.8013 0.7135 0.14526 0.0
H1749 H 0.76878 0.71672 0.14645 0.0
C1750 C 0.70547 0.78117 0.15756 0.0
C1751 C 0.71034 0.77904 0.17649 0.0
C1752 C 0.70963 0.76922 0.14385 0.0
C1753 C 0.71854 0.75476 0.14879 0.0
C1754 C 0.72352 0.75266 0.16767 0.0
C1755 C 0.71945 0.76467 0.1814 0.0
C1756 C 0.72295 0.74204 0.13423 0.0
C1757 C 0.74111 0.73897 0.13341 0.0
C1758 C 0.70956 0.73356 0.12073 0.0
C1759 C 0.68999 0.7354 0.12144 0.0
C1760 C 0.68101 0.73146 0.13762 0.0
C1761 C 0.66259 0.73332 0.13823 0.0
C1762 C 0.65296 0.73899 0.12271 0.0
C1763 C 0.66172 0.74277 0.10652 0.0
C1764 C 0.68014 0.74095 0.10584 0.0
C1765 C 0.7505 0.68157 0.08038 0.0
C1766 C 0.74615 0.68486 0.06161 0.0
C1767 C 0.74616 0.69281 0.09469 0.0
C1768 C 0.73749 0.7076 0.09051 0.0
C1769 C 0.733 0.71083 0.0718 0.0
C1770 C 0.73733 0.69961 0.05749 0.0
C1771 C 0.73296 0.71969 0.1056 0.0
C1772 C 0.71478 0.72263 0.10651 0.0
C1773 C 0.74632 0.72802 0.11921 0.0
C1774 C 0.76587 0.72611 0.11853 0.0
C1775 C 0.77501 0.73045 0.10255 0.0
C1776 C 0.79342 0.72852 0.10197 0.0
C1777 C 0.80287 0.72239 0.11735 0.0
C1778 C 0.79395 0.71822 0.13335 0.0
C1779 C 0.77553 0.7201 0.13399 0.0
H1780 H 0.81712 0.72091 0.11688 0.0
H1781 H 0.6387 0.74042 0.12322 0.0
H1782 H 0.95312 0.03386 0.07659 0.0
H1783 H 0.94107 0.03542 0.10716 0.0
H1784 H 0.98753 0.07257 0.12745 0.0
H1785 H -0.00014 0.0709 0.09688 0.0
H1786 H 0.98089 0.04706 0.15143 0.0
H1787 H 0.94596 0.08614 0.11925 0.0
H1788 H 0.92618 0.09587 0.09378 0.0
H1789 H 0.88423 0.05388 0.1032 0.0
H1790 H 0.90386 0.04373 0.12857 0.0
H1791 H 0.94219 0.06589 0.23697 0.0
H1792 H 0.95509 0.06891 0.20674 0.0
H1793 H 0.91238 0.02983 0.18182 0.0
H1794 H 0.89935 0.02676 0.21193 0.0
H1795 H 0.91797 0.05889 0.16074 0.0
H1796 H 0.95402 0.01893 0.19165 0.0
H1797 H 0.97392 0.00948 0.2172 0.0
H1798 H 0.01392 0.05392 0.21023 0.0
H1799 H 0.99414 0.06377 0.18479 0.0
C1800 C 0.96073 0.04248 0.08749 0.0
C1801 C 0.97746 0.05225 0.08429 0.0
C1802 C 0.95377 0.04342 0.10495 0.0
C1803 C 0.96331 0.05424 0.11955 0.0
C1804 C 0.97993 0.06416 0.11637 0.0
C1805 C 0.98693 0.06322 0.09888 0.0
C1806 C 0.95624 0.05456 0.1383 0.0
C1807 C 0.96725 0.04997 0.15353 0.0
C1808 C 0.93832 0.05803 0.14097 0.0
C1809 C 0.92645 0.06409 0.12571 0.0
C1810 C 0.93257 0.07889 0.11579 0.0
C1811 C 0.92138 0.08449 0.10139 0.0
C1812 C 0.90398 0.07547 0.09685 0.0
C1813 C 0.89772 0.06084 0.10673 0.0
C1814 C 0.90887 0.05517 0.12113 0.0
C1815 C 0.93556 0.05791 0.22507 0.0
C1816 C 0.91977 0.04605 0.22686 0.0
C1817 C 0.94297 0.05963 0.20782 0.0
C1818 C 0.93474 0.04952 0.19208 0.0
C1819 C 0.91892 0.03776 0.19381 0.0
C1820 C 0.91155 0.03597 0.21104 0.0
C1821 C 0.94254 0.05118 0.17376 0.0
C1822 C 0.93166 0.05614 0.15863 0.0
C1823 C 0.96059 0.04812 0.1712 0.0
C1824 C 0.97252 0.04219 0.18646 0.0
C1825 C 0.967 0.02677 0.19567 0.0
C1826 C 0.97826 0.02132 0.21011 0.0
C1827 C 0.99515 0.03112 0.21537 0.0
C1828 C 0.00083 0.04636 0.20616 0.0
C1829 C 0.9896 0.05187 0.19172 0.0
H1830 H 0.00386 0.02688 0.22655 0.0
H1831 H 0.89533 0.07984 0.08569 0.0
H1832 H 0.27369 0.74752 0.19498 0.0
H1833 H 0.27235 0.76555 0.16778 0.0
H1834 H 0.24789 0.80411 0.1993 0.0
H1835 H 0.24905 0.78607 0.2266 0.0
H1836 H 0.23061 0.79695 0.16466 0.0
H1837 H 0.29187 0.8123 0.19072 0.0
H1838 H 0.32227 0.80677 0.20322 0.0
H1839 H 0.331 0.78153 0.15092 0.0
H1840 H 0.30053 0.78669 0.13818 0.0
H1841 H 0.24218 0.86277 0.09734 0.0
H1842 H 0.24358 0.84704 0.12626 0.0
H1843 H 0.26926 0.80678 0.0988 0.0
H1844 H 0.26812 0.82248 0.06996 0.0
H1845 H 0.28611 0.81634 0.13257 0.0
H1846 H 0.22443 0.79978 0.107 0.0
H1847 H 0.19394 0.80505 0.09446 0.0
H1848 H 0.186 0.83244 0.14582 0.0
H1849 H 0.21656 0.82753 0.15858 0.0
C1850 C 0.26802 0.75984 0.19616 0.0
C1851 C 0.26152 0.76539 0.21298 0.0
C1852 C 0.26734 0.77016 0.1806 0.0
C1853 C 0.26021 0.78627 0.18157 0.0
C1854 C 0.25348 0.79175 0.19827 0.0
C1855 C 0.25421 0.78144 0.21386 0.0
C1856 C 0.25965 0.79728 0.16508 0.0
C1857 C 0.24278 0.80144 0.15781 0.0
C1858 C 0.27549 0.80284 0.15595 0.0
C1859 C 0.29385 0.79975 0.16355 0.0
C1860 C 0.30021 0.80545 0.18193 0.0
C1861 C 0.31747 0.8024 0.18905 0.0
C1862 C 0.32854 0.79376 0.17789 0.0
C1863 C 0.3224 0.7882 0.15956 0.0
C1864 C 0.30514 0.7912 0.15237 0.0
C1865 C 0.24812 0.85057 0.09745 0.0
C1866 C 0.25499 0.84386 0.08132 0.0
C1867 C 0.24885 0.84156 0.11398 0.0
C1868 C 0.25638 0.82565 0.11464 0.0
C1869 C 0.2634 0.81904 0.09861 0.0
C1870 C 0.26268 0.82801 0.08211 0.0
C1871 C 0.25704 0.81585 0.13202 0.0
C1872 C 0.27395 0.81193 0.13948 0.0
C1873 C 0.24123 0.81051 0.1413 0.0
C1874 C 0.22285 0.81346 0.13366 0.0
C1875 C 0.21624 0.80706 0.11556 0.0
C1876 C 0.19894 0.80995 0.10843 0.0
C1877 C 0.18806 0.81912 0.11932 0.0
C1878 C 0.19445 0.82537 0.13739 0.0
C1879 C 0.21175 0.82252 0.14458 0.0
H1880 H 0.17467 0.82134 0.11377 0.0
H1881 H 0.3419 0.79142 0.18343 0.0
H1882 H 0.99951 0.49188 0.10753 0.0
H1883 H 0.01952 0.49486 0.1362 0.0
H1884 H 0.97506 0.47245 0.1668 0.0
H1885 H 0.95485 0.46962 0.13823 0.0
H1886 H 0.99609 0.49957 0.18672 0.0
H1887 H 0.00523 0.44683 0.15193 0.0
H1888 H 0.01194 0.42962 0.12418 0.0
H1889 H 0.06435 0.46056 0.12422 0.0
H1890 H 0.05785 0.47813 0.15184 0.0
H1891 H 0.04679 0.47243 0.26517 0.0
H1892 H 0.02644 0.47272 0.23701 0.0
H1893 H 0.07177 0.49381 0.20683 0.0
H1894 H 0.09227 0.49334 0.23483 0.0
H1895 H 0.05047 0.46806 0.18662 0.0
H1896 H 0.04179 0.5203 0.22196 0.0
H1897 H 0.03513 0.53752 0.24972 0.0
H1898 H 0.98206 0.50769 0.24873 0.0
H1899 H 0.9885 0.49012 0.2211 0.0
C1900 C 0.9939 0.48779 0.12039 0.0
C1901 C 0.97561 0.48033 0.12055 0.0
C1902 C 0.00538 0.48945 0.13675 0.0
C1903 C 0.99884 0.48357 0.15354 0.0
C1904 C 0.98039 0.47698 0.15396 0.0
C1905 C 0.96887 0.47535 0.1376 0.0
C1906 C 0.01143 0.48344 0.17043 0.0
C1907 C 0.00788 0.49253 0.18678 0.0
C1908 C 0.02699 0.47453 0.17037 0.0
C1909 C 0.03098 0.46391 0.15383 0.0
C1910 C 0.01813 0.45005 0.14594 0.0
C1911 C 0.0219 0.44022 0.13025 0.0
C1912 C 0.03854 0.44403 0.12241 0.0
C1913 C 0.05146 0.45765 0.13028 0.0
C1914 C 0.04774 0.46753 0.14597 0.0
C1915 C 0.05245 0.47707 0.25253 0.0
C1916 C 0.07114 0.48291 0.25226 0.0
C1917 C 0.04078 0.47732 0.23647 0.0
C1918 C 0.04755 0.48353 0.2199 0.0
C1919 C 0.06626 0.48902 0.21949 0.0
C1920 C 0.07794 0.48875 0.23552 0.0
C1921 C 0.03516 0.48421 0.20295 0.0
C1922 C 0.03873 0.47516 0.18657 0.0
C1923 C 0.01964 0.49318 0.20301 0.0
C1924 C 0.01569 0.50378 0.21957 0.0
C1925 C 0.02875 0.51732 0.22775 0.0
C1926 C 0.02501 0.52716 0.24345 0.0
C1927 C 0.0082 0.52367 0.25101 0.0
C1928 C 0.99508 0.51037 0.24287 0.0
C1929 C 0.99876 0.50047 0.22718 0.0
H1930 H 0.00533 0.53131 0.26317 0.0
H1931 H 0.04143 0.4364 0.11026 0.0
H1932 H 0.34241 0.72912 0.26397 0.0
H1933 H 0.37068 0.73367 0.28401 0.0
H1934 H 0.34257 0.75537 0.3281 0.0
H1935 H 0.31434 0.75134 0.30793 0.0
H1936 H 0.37581 0.77264 0.32794 0.0
H1937 H 0.34992 0.71181 0.32655 0.0
H1938 H 0.3374 0.68276 0.31185 0.0
H1939 H 0.3879 0.67887 0.28748 0.0
H1940 H 0.40064 0.70802 0.30184 0.0
H1941 H 0.435 0.7554 0.40528 0.0
H1942 H 0.4088 0.7554 0.38275 0.0
H1943 H 0.43996 0.73799 0.3389 0.0
H1944 H 0.46624 0.73786 0.36135 0.0
H1945 H 0.40597 0.71922 0.33831 0.0
H1946 H 0.43226 0.78003 0.34232 0.0
H1947 H 0.44419 0.80852 0.3586 0.0
H1948 H 0.39213 0.81194 0.37979 0.0
H1949 H 0.37997 0.7833 0.36392 0.0
C1950 C 0.34229 0.73509 0.27784 0.0
C1951 C 0.32608 0.73968 0.28443 0.0
C1952 C 0.35845 0.73762 0.28931 0.0
C1953 C 0.35865 0.74448 0.30771 0.0
C1954 C 0.34272 0.74996 0.31399 0.0
C1955 C 0.32658 0.74763 0.30244 0.0
C1956 C 0.37514 0.74497 0.32073 0.0
C1957 C 0.38231 0.76093 0.33034 0.0
C1958 C 0.38377 0.72973 0.3237 0.0
C1959 C 0.37617 0.71217 0.3151 0.0
C1960 C 0.35831 0.70481 0.31795 0.0
C1961 C 0.35118 0.68833 0.30969 0.0
C1962 C 0.36183 0.679 0.29869 0.0
C1963 C 0.37965 0.68613 0.29597 0.0
C1964 C 0.38684 0.70262 0.30417 0.0
C1965 C 0.43628 0.75153 0.39085 0.0
C1966 C 0.4527 0.74662 0.3851 0.0
C1967 C 0.42133 0.75165 0.37798 0.0
C1968 C 0.42252 0.74689 0.35913 0.0
C1969 C 0.4388 0.74177 0.35338 0.0
C1970 C 0.45379 0.74172 0.36623 0.0
C1971 C 0.40664 0.74687 0.34547 0.0
C1972 C 0.39955 0.73096 0.3358 0.0
C1973 C 0.398 0.7621 0.34264 0.0
C1974 C 0.40524 0.77942 0.35206 0.0
C1975 C 0.42339 0.78678 0.35057 0.0
C1976 C 0.43019 0.80297 0.35972 0.0
C1977 C 0.41894 0.81202 0.37026 0.0
C1978 C 0.40084 0.80491 0.37163 0.0
C1979 C 0.39398 0.7887 0.36256 0.0
H1980 H 0.42423 0.82454 0.37734 0.0
H1981 H 0.35628 0.66624 0.29232 0.0
H1982 H 0.94893 0.41548 0.02548 0.0
H1983 H 0.95482 0.38814 0.00966 0.0
H1984 H 0.0091 0.41197 0.00078 0.0
H1985 H 0.00332 0.43936 0.01642 0.0
H1986 H 0.99308 0.39246 0.97012 0.0
H1987 H 0.00226 0.38527 0.03619 0.0
H1988 H 0.99352 0.38505 0.0686 0.0
H1989 H 0.94884 0.34474 0.05269 0.0
H1990 H 0.95719 0.3449 0.02011 0.0
H1991 H 0.03542 0.31705 0.9513 0.0
H1992 H 0.02746 0.34401 0.96605 0.0
H1993 H 0.97462 0.31703 0.97569 0.0
H1994 H 0.98257 0.2899 0.96124 0.0
H1995 H 0.98853 0.33785 0.00542 0.0
H1996 H 0.97982 0.34418 0.93958 0.0
H1997 H 0.98844 0.34435 0.90713 0.0
H1998 H 0.03178 0.38618 0.92234 0.0
H1999 H 0.02358 0.38609 0.95495 0.0
C2000 C 0.96205 0.41498 0.01997 0.0
C2001 C 0.97571 0.42956 0.02232 0.0
C2002 C 0.96542 0.39931 0.01102 0.0
C2003 C 0.98249 0.39796 0.00429 0.0
C2004 C 0.99586 0.41272 0.00593 0.0
C2005 C 0.99254 0.42836 0.01491 0.0
C2006 C 0.98668 0.38102 0.99609 0.0
C2007 C 0.99226 0.38055 0.97789 0.0
C2008 C 0.98522 0.36541 0.0061 0.0
C2009 C 0.98023 0.36524 0.02568 0.0
C2010 C 0.99049 0.37646 0.03958 0.0
C2011 C 0.98562 0.37633 0.05798 0.0
C2012 C 0.9706 0.36492 0.06269 0.0
C2013 C 0.96045 0.35359 0.04901 0.0
C2014 C 0.96525 0.35369 0.03058 0.0
C2015 C 0.02215 0.3168 0.95668 0.0
C2016 C 0.00959 0.30135 0.95499 0.0
C2017 C 0.01758 0.33225 0.96502 0.0
C2018 C 0.00032 0.33262 0.97166 0.0
C2019 C 0.98798 0.31706 0.97058 0.0
C2020 C 0.99256 0.30157 0.9623 0.0
C2021 C 0.99505 0.34929 0.97947 0.0
C2022 C 0.98927 0.34972 0.9976 0.0
C2023 C 0.99628 0.36486 0.96937 0.0
C2024 C 0.00119 0.36502 0.94975 0.0
C2025 C 0.99128 0.35333 0.93603 0.0
C2026 C 0.99607 0.35342 0.91761 0.0
C2027 C 0.01067 0.36524 0.91269 0.0
C2028 C 0.02048 0.37702 0.92618 0.0
C2029 C 0.01576 0.37697 0.94463 0.0
H2030 H 0.01436 0.36529 0.89841 0.0
H2031 H 0.96685 0.36484 0.07694 0.0
H2032 H 0.66057 0.77593 0.27157 0.0
H2033 H 0.63528 0.76329 0.28896 0.0
H2034 H 0.64365 0.80913 0.32688 0.0
H2035 H 0.66897 0.82172 0.30979 0.0
H2036 H 0.63904 0.77929 0.34541 0.0
H2037 H 0.609 0.80368 0.29266 0.0
H2038 H 0.60163 0.80754 0.25925 0.0
H2039 H 0.58178 0.75239 0.2512 0.0
H2040 H 0.58926 0.74817 0.28454 0.0
H2041 H 0.55663 0.77413 0.38899 0.0
H2042 H 0.58251 0.78272 0.37077 0.0
H2043 H 0.56895 0.73495 0.33612 0.0
H2044 H 0.54282 0.72635 0.35414 0.0
H2045 H 0.57664 0.76308 0.31541 0.0
H2046 H 0.60477 0.73903 0.36862 0.0
H2047 H 0.61188 0.73523 0.40208 0.0
H2048 H 0.63532 0.78952 0.40933 0.0
H2049 H 0.62812 0.79371 0.37595 0.0
C2050 C 0.65701 0.78331 0.2836 0.0
C2051 C 0.66677 0.79984 0.28927 0.0
C2052 C 0.64253 0.7761 0.29349 0.0
C2053 C 0.63751 0.78533 0.30914 0.0
C2054 C 0.64731 0.80176 0.31486 0.0
C2055 C 0.66175 0.80897 0.30502 0.0
C2056 C 0.62211 0.77795 0.3197 0.0
C2057 C 0.62536 0.77589 0.33889 0.0
C2058 C 0.60438 0.77305 0.31108 0.0
C2059 C 0.59988 0.77557 0.29104 0.0
C2060 C 0.60321 0.79235 0.28373 0.0
C2061 C 0.59898 0.79461 0.26482 0.0
C2062 C 0.5913 0.78021 0.2531 0.0
C2063 C 0.58777 0.76353 0.26029 0.0
C2064 C 0.59199 0.7612 0.27919 0.0
C2065 C 0.55916 0.7654 0.37754 0.0
C2066 C 0.54768 0.74953 0.37305 0.0
C2067 C 0.57402 0.7703 0.36718 0.0
C2068 C 0.57779 0.75937 0.35223 0.0
C2069 C 0.56631 0.74356 0.34764 0.0
C2070 C 0.55142 0.73865 0.35799 0.0
C2071 C 0.59352 0.76468 0.34118 0.0
C2072 C 0.59035 0.76633 0.32191 0.0
C2073 C 0.61134 0.7692 0.34972 0.0
C2074 C 0.61577 0.76671 0.3698 0.0
C2075 C 0.61132 0.75019 0.37737 0.0
C2076 C 0.61539 0.74796 0.39632 0.0
C2077 C 0.62401 0.76214 0.40783 0.0
C2078 C 0.62863 0.77856 0.4004 0.0
C2079 C 0.62457 0.78086 0.38146 0.0
H2080 H 0.62715 0.76038 0.4225 0.0
H2081 H 0.58803 0.78199 0.23846 0.0
H2082 H 0.01829 0.0555 0.96337 0.0
H2083 H 0.01665 0.08579 0.9548 0.0
H2084 H 0.02938 0.10394 0.01228 0.0
H2085 H 0.03118 0.07353 0.02095 0.0
H2086 H 0.00182 0.11968 0.99634 0.0
H2087 H 0.06138 0.11059 0.98147 0.0
H2088 H 0.08482 0.09516 0.9678 0.0
H2089 H 0.05961 0.0996 0.91294 0.0
H2090 H 0.03586 0.11484 0.9263 0.0
H2091 H 0.01408 0.20932 0.96716 0.0
H2092 H 0.01915 0.18159 0.98138 0.0
H2093 H 0.00619 0.15374 0.92791 0.0
H2094 H 0.00125 0.18126 0.91362 0.0
H2095 H 0.03699 0.14482 0.9454 0.0
H2096 H 0.97586 0.15151 0.96114 0.0
H2097 H 0.95258 0.16693 0.97516 0.0
H2098 H 0.98158 0.16743 0.02898 0.0
H2099 H 0.00517 0.1522 0.01522 0.0
C2100 C 0.0208 0.06593 0.9742 0.0
C2101 C 0.02459 0.06208 0.99289 0.0
C2102 C 0.01989 0.08326 0.96928 0.0
C2103 C 0.02304 0.09717 0.98287 0.0
C2104 C 0.02681 0.09339 0.00158 0.0
C2105 C 0.02768 0.07599 0.00654 0.0
C2106 C 0.0222 0.11555 0.97737 0.0
C2107 C 0.00977 0.12533 0.98545 0.0
C2108 C 0.03244 0.12286 0.96305 0.0
C2109 C 0.04676 0.11375 0.95492 0.0
C2110 C 0.06075 0.10817 0.9665 0.0
C2111 C 0.07411 0.09947 0.9588 0.0
C2112 C 0.07369 0.09637 0.93951 0.0
C2113 C 0.05992 0.102 0.92788 0.0
C2114 C 0.04652 0.11069 0.93551 0.0
C2115 C 0.01225 0.19727 0.95846 0.0
C2116 C 0.00726 0.19751 0.93925 0.0
C2117 C 0.0151 0.18144 0.96662 0.0
C2118 C 0.01298 0.1656 0.95571 0.0
C2119 C 0.00796 0.16582 0.93658 0.0
C2120 C 0.00507 0.18158 0.92844 0.0
C2121 C 0.01624 0.14871 0.96397 0.0
C2122 C 0.02921 0.13925 0.95644 0.0
C2123 C 0.00656 0.14178 0.97885 0.0
C2124 C 0.99238 0.15091 0.98712 0.0
C2125 C 0.97735 0.15505 0.97594 0.0
C2126 C 0.96409 0.16372 0.98384 0.0
C2127 C 0.96563 0.16821 0.00294 0.0
C2128 C 0.98042 0.16398 0.01418 0.0
C2129 C 0.99374 0.15532 0.00634 0.0
H2130 H 0.95535 0.17492 0.00904 0.0
H2131 H 0.08404 0.08964 0.93358 0.0
H2132 H 0.34588 0.30655 0.27703 0.0
H2133 H 0.36297 0.29884 0.25072 0.0
H2134 H 0.41337 0.31618 0.28351 0.0
H2135 H 0.39645 0.32395 0.30983 0.0
H2136 H 0.41299 0.3287 0.24815 0.0
H2137 H 0.39855 0.27315 0.27708 0.0
H2138 H 0.37795 0.24895 0.28887 0.0
H2139 H 0.35039 0.23874 0.23433 0.0
H2140 H 0.37068 0.26306 0.22226 0.0
H2141 H 0.48008 0.28995 0.2043 0.0
H2142 H 0.45838 0.29895 0.22533 0.0
H2143 H 0.41391 0.27642 0.1864 0.0
H2144 H 0.43568 0.26706 0.16522 0.0
H2145 H 0.40811 0.26736 0.22154 0.0
H2146 H 0.42441 0.32076 0.19169 0.0
H2147 H 0.44492 0.34486 0.17964 0.0
H2148 H 0.46849 0.3594 0.23514 0.0
H2149 H 0.44829 0.33523 0.24751 0.0
C2150 C 0.36061 0.30871 0.27864 0.0
C2151 C 0.36982 0.31582 0.29553 0.0
C2152 C 0.37033 0.30426 0.26361 0.0
C2153 C 0.38942 0.30687 0.26522 0.0
C2154 C 0.39864 0.3141 0.28199 0.0
C2155 C 0.38894 0.31845 0.29704 0.0
C2156 C 0.39992 0.30207 0.24948 0.0
C2157 C 0.41204 0.31527 0.2424 0.0
C2158 C 0.39816 0.28467 0.24159 0.0
C2159 C 0.38598 0.27005 0.24883 0.0
C2160 C 0.38799 0.26584 0.26764 0.0
C2161 C 0.37639 0.25209 0.27437 0.0
C2162 C 0.36283 0.24235 0.26237 0.0
C2163 C 0.36087 0.24632 0.24361 0.0
C2164 C 0.37242 0.26008 0.23682 0.0
C2165 C 0.4657 0.28695 0.2001 0.0
C2166 C 0.45961 0.2778 0.18304 0.0
C2167 C 0.4533 0.2922 0.21213 0.0
C2168 C 0.43453 0.28858 0.20732 0.0
C2169 C 0.42835 0.27941 0.19033 0.0
C2170 C 0.4408 0.27412 0.17824 0.0
C2171 C 0.42153 0.29392 0.22047 0.0
C2172 C 0.4089 0.28084 0.22707 0.0
C2173 C 0.42275 0.31147 0.22787 0.0
C2174 C 0.4349 0.32609 0.22051 0.0
C2175 C 0.43405 0.32902 0.20132 0.0
C2176 C 0.44561 0.3427 0.19443 0.0
C2177 C 0.45802 0.35363 0.20661 0.0
C2178 C 0.45887 0.35092 0.22572 0.0
C2179 C 0.44735 0.33724 0.23268 0.0
H2180 H 0.46696 0.36422 0.20125 0.0
H2181 H 0.35387 0.2317 0.2676 0.0
H2182 H 0.59332 0.37503 0.00248 0.0
H2183 H 0.58153 0.35459 0.02529 0.0
H2184 H 0.54171 0.38875 0.03812 0.0
H2185 H 0.55306 0.40897 0.01489 0.0
H2186 H 0.57931 0.35643 0.06105 0.0
H2187 H 0.503 0.3648 0.0493 0.0
H2188 H 0.48133 0.37218 0.02413 0.0
H2189 H 0.51436 0.35334 0.98309 0.0
H2190 H 0.53609 0.34564 0.00801 0.0
H2191 H 0.53215 0.31583 0.13332 0.0
H2192 H 0.54364 0.33688 0.11093 0.0
H2193 H 0.51856 0.30159 0.06554 0.0
H2194 H 0.5066 0.2807 0.08784 0.0
H2195 H 0.51357 0.33371 0.05827 0.0
H2196 H 0.56482 0.30539 0.07846 0.0
H2197 H 0.58707 0.29505 0.10117 0.0
H2198 H 0.60525 0.34848 0.12088 0.0
H2199 H 0.58293 0.35912 0.09844 0.0
C2200 C 0.58207 0.37821 0.01018 0.0
C2201 C 0.57403 0.39355 0.00678 0.0
C2202 C 0.57537 0.36653 0.02326 0.0
C2203 C 0.56056 0.36999 0.03325 0.0
C2204 C 0.55289 0.3856 0.0303 0.0
C2205 C 0.55945 0.39719 0.01707 0.0
C2206 C 0.55305 0.35715 0.04658 0.0
C2207 C 0.56493 0.3515 0.06046 0.0
C2208 C 0.53433 0.35042 0.04562 0.0
C2209 C 0.52126 0.35483 0.03052 0.0
C2210 C 0.5056 0.36218 0.0349 0.0
C2211 C 0.49332 0.36643 0.02068 0.0
C2212 C 0.4965 0.36328 0.00203 0.0
C2213 C 0.51195 0.35583 0.99755 0.0
C2214 C 0.52426 0.35154 0.01171 0.0
C2215 C 0.52904 0.31256 0.11857 0.0
C2216 C 0.51852 0.29655 0.11235 0.0
C2217 C 0.53568 0.32459 0.10578 0.0
C2218 C 0.53219 0.32072 0.08653 0.0
C2219 C 0.52144 0.30487 0.08031 0.0
C2220 C 0.51465 0.29292 0.09309 0.0
C2221 C 0.53981 0.33311 0.07284 0.0
C2222 C 0.52794 0.3387 0.05891 0.0
C2223 C 0.55862 0.33938 0.07342 0.0
C2224 C 0.57208 0.33303 0.0869 0.0
C2225 C 0.57347 0.31492 0.08773 0.0
C2226 C 0.58611 0.30901 0.10054 0.0
C2227 C 0.59753 0.3211 0.11249 0.0
C2228 C 0.59637 0.33913 0.11163 0.0
C2229 C 0.58374 0.34511 0.09886 0.0
H2230 H 0.60731 0.31649 0.1224 0.0
H2231 H 0.48698 0.36659 0.99104 0.0
H2232 H 0.67458 0.24033 0.29476 0.0
H2233 H 0.64538 0.24074 0.27702 0.0
H2234 H 0.64752 0.29625 0.29125 0.0
H2235 H 0.67669 0.29596 0.30919 0.0
H2236 H 0.61266 0.27825 0.29149 0.0
H2237 H 0.66176 0.28381 0.25076 0.0
H2238 H 0.68883 0.27481 0.23704 0.0
H2239 H 0.65809 0.22554 0.21702 0.0
H2240 H 0.63089 0.23416 0.23087 0.0
H2241 H 0.55428 0.3033 0.21745 0.0
H2242 H 0.57962 0.30027 0.24015 0.0
H2243 H 0.57892 0.24611 0.22078 0.0
H2244 H 0.55387 0.24914 0.19779 0.0
H2245 H 0.61239 0.2623 0.22398 0.0
H2246 H 0.56271 0.25707 0.26294 0.0
H2247 H 0.53552 0.26571 0.27672 0.0
H2248 H 0.56669 0.31356 0.30013 0.0
H2249 H 0.59402 0.30533 0.28627 0.0
C2250 C 0.66873 0.25258 0.29437 0.0
C2251 C 0.67808 0.26818 0.30319 0.0
C2252 C 0.65206 0.25279 0.28419 0.0
C2253 C 0.64447 0.26859 0.28258 0.0
C2254 C 0.6532 0.28393 0.29228 0.0
C2255 C 0.6699 0.28375 0.30246 0.0
C2256 C 0.62819 0.2694 0.26967 0.0
C2257 C 0.6126 0.27491 0.2767 0.0
C2258 C 0.62805 0.2647 0.25045 0.0
C2259 C 0.64436 0.25955 0.24202 0.0
C2260 C 0.66082 0.271 0.24356 0.0
C2261 C 0.67617 0.26598 0.23574 0.0
C2262 C 0.67519 0.24959 0.22621 0.0
C2263 C 0.65884 0.23821 0.22443 0.0
C2264 C 0.64345 0.24317 0.23225 0.0
C2265 C 0.55948 0.29072 0.21806 0.0
C2266 C 0.55208 0.27647 0.20579 0.0
C2267 C 0.57389 0.28898 0.23113 0.0
C2268 C 0.58102 0.27289 0.23233 0.0
C2269 C 0.57362 0.25864 0.22013 0.0
C2270 C 0.55929 0.2604 0.207 0.0
C2271 C 0.59673 0.27113 0.24575 0.0
C2272 C 0.6123 0.2655 0.23879 0.0
C2273 C 0.59678 0.27566 0.26502 0.0
C2274 C 0.58038 0.28065 0.27341 0.0
C2275 C 0.56373 0.2695 0.2709 0.0
C2276 C 0.5483 0.27432 0.27875 0.0
C2277 C 0.54937 0.2902 0.28925 0.0
C2278 C 0.56588 0.30128 0.29197 0.0
C2279 C 0.58135 0.29653 0.28414 0.0
H2280 H 0.53741 0.2939 0.29532 0.0
H2281 H 0.6871 0.24572 0.22016 0.0
H2282 H 0.4732 0.08219 0.05468 0.0
H2283 H 0.47245 0.10925 0.0738 0.0
H2284 H 0.53089 0.12043 0.07467 0.0
H2285 H 0.53179 0.09343 0.05588 0.0
H2286 H 0.5194 0.12646 0.10853 0.0
H2287 H 0.50299 0.14082 0.04517 0.0
H2288 H 0.48453 0.13722 0.01509 0.0
H2289 H 0.43696 0.14581 0.04291 0.0
H2290 H 0.45512 0.14923 0.0732 0.0
H2291 H 0.54078 0.21734 0.12813 0.0
H2292 H 0.53556 0.18783 0.11319 0.0
H2293 H 0.47805 0.18554 0.11955 0.0
H2294 H 0.48315 0.21528 0.13448 0.0
H2295 H 0.48517 0.17358 0.08465 0.0
H2296 H 0.50272 0.16271 0.14771 0.0
H2297 H 0.52162 0.16689 0.17749 0.0
H2298 H 0.56728 0.15198 0.15023 0.0
H2299 H 0.54873 0.14796 0.1202 0.0
C2300 C 0.48589 0.09037 0.05905 0.0
C2301 C 0.50255 0.0857 0.05369 0.0
C2302 C 0.48543 0.10585 0.0699 0.0
C2303 C 0.5016 0.11694 0.0755 0.0
C2304 C 0.51825 0.11207 0.07052 0.0
C2305 C 0.51872 0.09664 0.05971 0.0
C2306 C 0.50137 0.13381 0.08626 0.0
C2307 C 0.512 0.1368 0.10326 0.0
C2308 C 0.49127 0.1471 0.07966 0.0
C2309 C 0.48036 0.14506 0.06146 0.0
C2310 C 0.48857 0.14179 0.04489 0.0
C2311 C 0.47816 0.13981 0.0278 0.0
C2312 C 0.45957 0.14123 0.0271 0.0
C2313 C 0.45136 0.14468 0.04348 0.0
C2314 C 0.4617 0.14664 0.06061 0.0
C2315 C 0.527 0.2106 0.12638 0.0
C2316 C 0.51239 0.21864 0.13257 0.0
C2317 C 0.52406 0.19369 0.1179 0.0
C2318 C 0.50645 0.1844 0.11551 0.0
C2319 C 0.49175 0.19247 0.12137 0.0
C2320 C 0.4947 0.20943 0.12992 0.0
C2321 C 0.50357 0.16636 0.10666 0.0
C2322 C 0.49235 0.16314 0.09006 0.0
C2323 C 0.51316 0.15286 0.11361 0.0
C2324 C 0.52435 0.15515 0.13167 0.0
C2325 C 0.51683 0.16044 0.14803 0.0
C2326 C 0.52747 0.16276 0.16496 0.0
C2327 C 0.54565 0.15973 0.16575 0.0
C2328 C 0.5532 0.15433 0.1496 0.0
C2329 C 0.54262 0.15201 0.13262 0.0
H2330 H 0.55387 0.16154 0.17887 0.0
H2331 H 0.45154 0.1397 0.01386 0.0
H2332 H 0.23738 0.36368 0.71185 0.0
H2333 H 0.25868 0.39087 0.71243 0.0
H2334 H 0.27346 0.38537 0.77075 0.0
H2335 H 0.25208 0.35838 0.77038 0.0
H2336 H 0.26658 0.41818 0.76436 0.0
H2337 H 0.30204 0.37678 0.73739 0.0
H2338 H 0.30826 0.35372 0.71475 0.0
H2339 H 0.3022 0.38863 0.67011 0.0
H2340 H 0.29569 0.41183 0.69247 0.0
H2341 H 0.34497 0.48145 0.77734 0.0
H2342 H 0.32403 0.45402 0.77481 0.0
H2343 H 0.31079 0.46218 0.71674 0.0
H2344 H 0.33191 0.48956 0.71908 0.0
H2345 H 0.31629 0.42844 0.722 0.0
H2346 H 0.28142 0.47001 0.7489 0.0
H2347 H 0.27514 0.49313 0.77144 0.0
H2348 H 0.27986 0.45794 0.81604 0.0
H2349 H 0.28642 0.43468 0.7938 0.0
C2350 C 0.24526 0.36818 0.72476 0.0
C2351 C 0.243 0.35885 0.74107 0.0
C2352 C 0.25747 0.3837 0.72506 0.0
C2353 C 0.26773 0.3901 0.74161 0.0
C2354 C 0.26565 0.3807 0.75783 0.0
C2355 C 0.25346 0.36522 0.75756 0.0
C2356 C 0.2802 0.4069 0.74228 0.0
C2357 C 0.2776 0.42034 0.75526 0.0
C2358 C 0.29424 0.4099 0.73004 0.0
C2359 C 0.29819 0.39598 0.71658 0.0
C2360 C 0.30188 0.37949 0.72273 0.0
C2361 C 0.30549 0.3664 0.70995 0.0
C2362 C 0.30557 0.36969 0.691 0.0
C2363 C 0.3021 0.38609 0.68479 0.0
C2364 C 0.29846 0.39922 0.69751 0.0
C2365 C 0.33759 0.47744 0.76403 0.0
C2366 C 0.34007 0.48773 0.74842 0.0
C2367 C 0.32558 0.46178 0.76262 0.0
C2368 C 0.3157 0.45615 0.74563 0.0
C2369 C 0.31826 0.4663 0.72999 0.0
C2370 C 0.33029 0.48197 0.73137 0.0
C2371 C 0.30277 0.43963 0.74421 0.0
C2372 C 0.30525 0.42628 0.73107 0.0
C2373 C 0.28859 0.4367 0.75629 0.0
C2374 C 0.28458 0.45065 0.7697 0.0
C2375 C 0.28126 0.46724 0.76354 0.0
C2376 C 0.27762 0.48037 0.77626 0.0
C2377 C 0.27714 0.47702 0.79517 0.0
C2378 C 0.28025 0.46052 0.80139 0.0
C2379 C 0.28392 0.44736 0.78873 0.0
H2380 H 0.27432 0.4872 0.80499 0.0
H2381 H 0.30837 0.35954 0.68112 0.0
H2382 H 0.27226 0.69434 0.79044 0.0
H2383 H 0.28058 0.6645 0.78753 0.0
H2384 H 0.33742 0.68564 0.7939 0.0
H2385 H 0.32924 0.7155 0.79664 0.0
H2386 H 0.3302 0.66157 0.76503 0.0
H2387 H 0.31676 0.66554 0.82941 0.0
H2388 H 0.29792 0.67072 0.85541 0.0
H2389 H 0.25713 0.62896 0.83308 0.0
H2390 H 0.27563 0.62369 0.8068 0.0
H2391 H 0.37126 0.58558 0.78181 0.0
H2392 H 0.36017 0.61401 0.7859 0.0
H2393 H 0.3048 0.58857 0.77796 0.0
H2394 H 0.31578 0.55989 0.77401 0.0
H2395 H 0.30951 0.61402 0.80657 0.0
H2396 H 0.32315 0.60933 0.74282 0.0
H2397 H 0.34196 0.60382 0.71688 0.0
H2398 H 0.38201 0.64681 0.73773 0.0
H2399 H 0.36356 0.65242 0.76397 0.0
C2400 C 0.28653 0.69264 0.79129 0.0
C2401 C 0.3001 0.70729 0.79377 0.0
C2402 C 0.29125 0.67557 0.78969 0.0
C2403 C 0.30962 0.67285 0.79063 0.0
C2404 C 0.32317 0.68745 0.79313 0.0
C2405 C 0.31846 0.7045 0.79475 0.0
C2406 C 0.31478 0.65484 0.78855 0.0
C2407 C 0.32585 0.65124 0.77426 0.0
C2408 C 0.30863 0.64121 0.80023 0.0
C2409 C 0.29749 0.64435 0.81603 0.0
C2410 C 0.3037 0.65756 0.82996 0.0
C2411 C 0.2931 0.66049 0.84476 0.0
C2412 C 0.27631 0.65021 0.84587 0.0
C2413 C 0.27012 0.63694 0.83219 0.0
C2414 C 0.28067 0.63397 0.81734 0.0
C2415 C 0.35671 0.58597 0.78101 0.0
C2416 C 0.3444 0.57047 0.77743 0.0
C2417 C 0.3504 0.60225 0.7833 0.0
C2418 C 0.33168 0.60341 0.78195 0.0
C2419 C 0.31931 0.58794 0.77898 0.0
C2420 C 0.32562 0.57159 0.77668 0.0
C2421 C 0.32515 0.62088 0.78324 0.0
C2422 C 0.31379 0.62435 0.79732 0.0
C2423 C 0.33097 0.63441 0.77133 0.0
C2424 C 0.34204 0.6312 0.75546 0.0
C2425 C 0.33603 0.61753 0.74195 0.0
C2426 C 0.34662 0.6144 0.72718 0.0
C2427 C 0.36319 0.62494 0.72568 0.0
C2428 C 0.36918 0.63866 0.73892 0.0
C2429 C 0.35865 0.64183 0.75373 0.0
H2430 H 0.37137 0.62248 0.71424 0.0
H2431 H 0.26812 0.65249 0.85735 0.0
H2432 H 0.89904 0.5231 0.49263 0.0
H2433 H 0.87352 0.50089 0.498 0.0
H2434 H 0.90903 0.47408 0.53369 0.0
H2435 H 0.93468 0.4962 0.52833 0.0
H2436 H 0.88667 0.45121 0.50917 0.0
H2437 H 0.88065 0.49909 0.55261 0.0
H2438 H 0.87823 0.52994 0.56212 0.0
H2439 H 0.82953 0.5284 0.52591 0.0
H2440 H 0.8318 0.49759 0.51598 0.0
H2441 H 0.8181 0.39463 0.54858 0.0
H2442 H 0.84393 0.41694 0.54452 0.0
H2443 H 0.8086 0.44712 0.51257 0.0
H2444 H 0.78263 0.42511 0.51697 0.0
H2445 H 0.83122 0.46831 0.53562 0.0
H2446 H 0.83703 0.42121 0.49149 0.0
H2447 H 0.83916 0.39055 0.48098 0.0
H2448 H 0.88778 0.39075 0.51702 0.0
H2449 H 0.88579 0.42136 0.52794 0.0
C2450 C 0.90144 0.51248 0.50161 0.0
C2451 C 0.91888 0.51145 0.51011 0.0
C2452 C 0.88682 0.49983 0.50472 0.0
C2453 C 0.88935 0.48594 0.5164 0.0
C2454 C 0.90679 0.48471 0.52466 0.0
C2455 C 0.92141 0.4974 0.52161 0.0
C2456 C 0.87379 0.47269 0.51999 0.0
C2457 C 0.87464 0.45489 0.5152 0.0
C2458 C 0.85793 0.47759 0.52741 0.0
C2459 C 0.85649 0.49609 0.53343 0.0
C2460 C 0.8695 0.50537 0.54657 0.0
C2461 C 0.86814 0.52284 0.55205 0.0
C2462 C 0.85376 0.53114 0.54459 0.0
C2463 C 0.84067 0.52196 0.53166 0.0
C2464 C 0.84198 0.50449 0.52611 0.0
C2465 C 0.81581 0.40604 0.54074 0.0
C2466 C 0.79832 0.40806 0.53304 0.0
C2467 C 0.83061 0.41875 0.53835 0.0
C2468 C 0.82826 0.43357 0.52798 0.0
C2469 C 0.81075 0.43578 0.5206 0.0
C2470 C 0.79592 0.42316 0.5231 0.0
C2471 C 0.84404 0.44678 0.52476 0.0
C2472 C 0.84324 0.46458 0.52962 0.0
C2473 C 0.85989 0.4419 0.51725 0.0
C2474 C 0.86115 0.42352 0.51067 0.0
C2475 C 0.8481 0.41467 0.49728 0.0
C2476 C 0.84929 0.39731 0.49123 0.0
C2477 C 0.86357 0.3887 0.49837 0.0
C2478 C 0.87671 0.39744 0.51153 0.0
C2479 C 0.87557 0.4148 0.51764 0.0
H2480 H 0.86448 0.37526 0.49367 0.0
H2481 H 0.85273 0.54467 0.54885 0.0
H2482 H 0.74386 0.85343 0.79759 0.0
H2483 H 0.72532 0.87711 0.79124 0.0
H2484 H 0.68309 0.85126 0.8225 0.0
H2485 H 0.70136 0.82753 0.82872 0.0
H2486 H 0.66918 0.86255 0.79022 0.0
H2487 H 0.7119 0.88671 0.8413 0.0
H2488 H 0.74243 0.89558 0.85707 0.0
H2489 H 0.75567 0.93098 0.81377 0.0
H2490 H 0.72528 0.92214 0.79761 0.0
H2491 H 0.61574 0.9303 0.80792 0.0
H2492 H 0.63556 0.90727 0.81039 0.0
H2493 H 0.67552 0.93844 0.78061 0.0
H2494 H 0.65592 0.96176 0.77845 0.0
H2495 H 0.69154 0.92486 0.80964 0.0
H2496 H 0.64838 0.90219 0.7594 0.0
H2497 H 0.61792 0.89344 0.74344 0.0
H2498 H 0.60566 0.8553 0.78443 0.0
H2499 H 0.63596 0.86399 0.8008 0.0
C2500 C 0.73062 0.85278 0.80308 0.0
C2501 C 0.72411 0.83861 0.8137 0.0
C2502 C 0.72007 0.86636 0.7995 0.0
C2503 C 0.70288 0.86602 0.80653 0.0
C2504 C 0.6963 0.85178 0.81693 0.0
C2505 C 0.70681 0.83825 0.82052 0.0
C2506 C 0.69166 0.88045 0.80318 0.0
C2507 C 0.674 0.87616 0.79462 0.0
C2508 C 0.69814 0.89827 0.80843 0.0
C2509 C 0.7164 0.90361 0.81815 0.0
C2510 C 0.72138 0.89627 0.83506 0.0
C2511 C 0.73865 0.90132 0.84409 0.0
C2512 C 0.75101 0.91379 0.8364 0.0
C2513 C 0.7461 0.92129 0.81969 0.0
C2514 C 0.72885 0.91628 0.8106 0.0
C2515 C 0.62871 0.93225 0.80183 0.0
C2516 C 0.63422 0.94784 0.79293 0.0
C2517 C 0.64001 0.91902 0.80318 0.0
C2518 C 0.65694 0.921 0.79545 0.0
C2519 C 0.66251 0.9366 0.78664 0.0
C2520 C 0.65126 0.9499 0.78538 0.0
C2521 C 0.66894 0.90693 0.79692 0.0
C2522 C 0.68675 0.91129 0.8051 0.0
C2523 C 0.66262 0.88916 0.79126 0.0
C2524 C 0.6444 0.88385 0.78141 0.0
C2525 C 0.63914 0.89202 0.76509 0.0
C2526 C 0.62191 0.88706 0.75596 0.0
C2527 C 0.60984 0.87385 0.76294 0.0
C2528 C 0.61501 0.86554 0.77905 0.0
C2529 C 0.63222 0.87047 0.78825 0.0
H2530 H 0.59651 0.87003 0.75585 0.0
H2531 H 0.76437 0.91768 0.84341 0.0
H2532 H 0.59584 0.50172 0.96383 0.0
H2533 H 0.61408 0.52984 0.97279 0.0
H2534 H 0.65375 0.50276 0.00267 0.0
H2535 H 0.63489 0.47465 0.99485 0.0
H2536 H 0.64963 0.53101 0.02201 0.0
H2537 H 0.65883 0.51833 0.95742 0.0
H2538 H 0.64928 0.51145 0.92415 0.0
H2539 H 0.62542 0.5596 0.92126 0.0
H2540 H 0.63464 0.56665 0.95459 0.0
H2541 H 0.72916 0.59228 0.02381 0.0
H2542 H 0.70576 0.56701 0.0172 0.0
H2543 H 0.66831 0.60131 0.99569 0.0
H2544 H 0.69175 0.6268 0.00223 0.0
H2545 H 0.66878 0.57147 0.97279 0.0
H2546 H 0.66282 0.58509 0.03738 0.0
H2547 H 0.6737 0.59165 0.07038 0.0
H2548 H 0.69296 0.54118 0.07292 0.0
H2549 H 0.68241 0.5344 0.03986 0.0
C2550 C 0.60807 0.50169 0.97279 0.0
C2551 C 0.61361 0.48585 0.97891 0.0
C2552 C 0.61875 0.51784 0.97761 0.0
C2553 C 0.63544 0.51845 0.98823 0.0
C2554 C 0.64092 0.50267 0.99449 0.0
C2555 C 0.63014 0.48658 0.98991 0.0
C2556 C 0.64744 0.5354 0.99259 0.0
C2557 C 0.65392 0.53976 0.0112 0.0
C2558 C 0.65272 0.5471 0.97859 0.0
C2559 C 0.64725 0.54292 0.95854 0.0
C2560 C 0.65143 0.52738 0.94972 0.0
C2561 C 0.6461 0.52347 0.93084 0.0
C2562 C 0.6367 0.53505 0.92061 0.0
C2563 C 0.63267 0.55062 0.92921 0.0
C2564 C 0.63796 0.55459 0.94809 0.0
C2565 C 0.71595 0.59451 0.01771 0.0
C2566 C 0.71231 0.61158 0.01358 0.0
C2567 C 0.70256 0.58004 0.01402 0.0
C2568 C 0.68525 0.58232 0.00615 0.0
C2569 C 0.68158 0.5993 0.00184 0.0
C2570 C 0.69496 0.61383 0.00563 0.0
C2571 C 0.67118 0.56683 0.00211 0.0
C2572 C 0.66431 0.56278 0.98358 0.0
C2573 C 0.6657 0.55532 0.01615 0.0
C2574 C 0.67193 0.5593 0.03609 0.0
C2575 C 0.66948 0.57544 0.04494 0.0
C2576 C 0.67558 0.57919 0.06366 0.0
C2577 C 0.68405 0.56685 0.07373 0.0
C2578 C 0.6864 0.55072 0.0651 0.0
C2579 C 0.68035 0.54691 0.04638 0.0
H2580 H 0.68876 0.56979 0.08822 0.0
H2581 H 0.63259 0.532 0.906 0.0
H2582 H 0.26809 0.64388 0.26754 0.0
H2583 H 0.24501 0.61887 0.27117 0.0
H2584 H 0.20397 0.64677 0.24485 0.0
H2585 H 0.22702 0.67206 0.24134 0.0
H2586 H 0.19287 0.63181 0.27633 0.0
H2587 H 0.21939 0.61313 0.22142 0.0
H2588 H 0.24431 0.607 0.20231 0.0
H2589 H 0.2596 0.56898 0.24075 0.0
H2590 H 0.23492 0.57506 0.26025 0.0
H2591 H 0.12417 0.55789 0.26631 0.0
H2592 H 0.14636 0.58298 0.26025 0.0
H2593 H 0.18957 0.55676 0.28497 0.0
H2594 H 0.16748 0.53143 0.29081 0.0
H2595 H 0.19895 0.57111 0.25314 0.0
H2596 H 0.17337 0.59037 0.30857 0.0
H2597 H 0.1487 0.59648 0.32805 0.0
H2598 H 0.13195 0.6334 0.28904 0.0
H2599 H 0.15637 0.62732 0.26918 0.0
C2600 C 0.25418 0.6447 0.26242 0.0
C2601 C 0.2494 0.65997 0.25412 0.0
C2602 C 0.24101 0.63034 0.26445 0.0
C2603 C 0.2228 0.63088 0.25811 0.0
C2604 C 0.21796 0.64608 0.2498 0.0
C2605 C 0.23115 0.66048 0.24775 0.0
C2606 C 0.2088 0.61573 0.26068 0.0
C2607 C 0.19402 0.61858 0.27099 0.0
C2608 C 0.21057 0.59841 0.25412 0.0
C2609 C 0.22539 0.59467 0.24238 0.0
C2610 C 0.22815 0.60356 0.22588 0.0
C2611 C 0.24222 0.60007 0.21496 0.0
C2612 C 0.25356 0.58764 0.22033 0.0
C2613 C 0.25082 0.57862 0.23661 0.0
C2614 C 0.23678 0.58207 0.24759 0.0
C2615 C 0.13839 0.55745 0.27051 0.0
C2616 C 0.14405 0.54267 0.2791 0.0
C2617 C 0.15105 0.57185 0.26708 0.0
C2618 C 0.1696 0.57183 0.27234 0.0
C2619 C 0.17531 0.55705 0.28081 0.0
C2620 C 0.16266 0.54262 0.28419 0.0
C2621 C 0.18306 0.58717 0.26887 0.0
C2622 C 0.19774 0.58435 0.2584 0.0
C2623 C 0.18123 0.60451 0.27533 0.0
C2624 C 0.16658 0.60825 0.2873 0.0
C2625 C 0.16434 0.59969 0.30407 0.0
C2626 C 0.15041 0.60316 0.3152 0.0
C2627 C 0.13873 0.61528 0.30976 0.0
C2628 C 0.14099 0.62399 0.29322 0.0
C2629 C 0.15487 0.62055 0.28203 0.0
H2630 H 0.12796 0.61796 0.31839 0.0
H2631 H 0.26444 0.58496 0.21186 0.0
H2632 H 0.91108 0.51359 0.04049 0.0
H2633 H 0.89347 0.53791 0.03437 0.0
H2634 H 0.86265 0.52495 0.08168 0.0
H2635 H 0.87976 0.50023 0.08744 0.0
H2636 H 0.84063 0.53122 0.0542 0.0
H2637 H 0.89693 0.56147 0.08222 0.0
H2638 H 0.93018 0.56974 0.08631 0.0
H2639 H 0.92993 0.58979 0.03142 0.0
H2640 H 0.89669 0.58143 0.02691 0.0
H2641 H 0.79952 0.60954 0.05874 0.0
H2642 H 0.81974 0.58774 0.06688 0.0
H2643 H 0.84425 0.59452 0.01468 0.0
H2644 H 0.82406 0.61636 0.00638 0.0
H2645 H 0.86963 0.59203 0.04513 0.0
H2646 H 0.81283 0.56088 0.01764 0.0
H2647 H 0.77948 0.55318 0.01468 0.0
H2648 H 0.7809 0.53538 0.07054 0.0
H2649 H 0.81426 0.54321 0.07392 0.0
C2650 C 0.90057 0.51595 0.04961 0.0
C2651 C 0.89681 0.505 0.06445 0.0
C2652 C 0.89058 0.52994 0.04617 0.0
C2653 C 0.87689 0.53347 0.05773 0.0
C2654 C 0.87314 0.52252 0.07257 0.0
C2655 C 0.88295 0.5084 0.07586 0.0
C2656 C 0.86608 0.54822 0.05406 0.0
C2657 C 0.84702 0.54456 0.05253 0.0
C2658 C 0.87435 0.5656 0.05148 0.0
C2659 C 0.89434 0.57067 0.05416 0.0
C2660 C 0.90398 0.56752 0.07097 0.0
C2661 C 0.92282 0.57225 0.07337 0.0
C2662 C 0.93217 0.58024 0.05911 0.0
C2663 C 0.92268 0.58358 0.04244 0.0
C2664 C 0.90383 0.57886 0.03996 0.0
C2665 C 0.80934 0.60656 0.04907 0.0
C2666 C 0.81008 0.61459 0.03184 0.0
C2667 C 0.82085 0.59406 0.05372 0.0
C2668 C 0.83333 0.58938 0.04127 0.0
C2669 C 0.83467 0.59793 0.02445 0.0
C2670 C 0.82309 0.61036 0.01972 0.0
C2671 C 0.84432 0.57495 0.0454 0.0
C2672 C 0.86335 0.57868 0.04693 0.0
C2673 C 0.83605 0.55767 0.04817 0.0
C2674 C 0.81602 0.55279 0.04609 0.0
C2675 C 0.80602 0.55545 0.02934 0.0
C2676 C 0.78712 0.55104 0.02758 0.0
C2677 C 0.77807 0.54384 0.04243 0.0
C2678 C 0.78792 0.54098 0.05906 0.0
C2679 C 0.80683 0.54539 0.0609 0.0
H2680 H 0.76344 0.54045 0.04104 0.0
H2681 H 0.94676 0.58389 0.061 0.0
H2682 H 0.07803 0.98159 0.0311 0.0
H2683 H 0.10549 0.96732 0.03574 0.0
H2684 H 0.10969 0.96415 0.97625 0.0
H2685 H 0.08195 0.97797 0.97149 0.0
H2686 H 0.11455 0.93394 0.9902 0.0
H2687 H 0.13848 0.99423 0.00607 0.0
H2688 H 0.14032 0.02328 0.02263 0.0
H2689 H 0.14938 0.99958 0.075 0.0
H2690 H 0.14735 0.97033 0.05877 0.0
H2691 H 0.20445 0.91239 0.9906 0.0
H2692 H 0.17778 0.92796 0.98725 0.0
H2693 H 0.17148 0.92494 0.04618 0.0
H2694 H 0.19825 0.90935 0.0497 0.0
H2695 H 0.16779 0.9581 0.0332 0.0
H2696 H 0.14408 0.89774 0.01667 0.0
H2697 H 0.14275 0.86899 0.99961 0.0
H2698 H 0.13379 0.89348 0.94768 0.0
H2699 H 0.13533 0.92243 0.96442 0.0
C2700 C 0.08488 0.97798 0.01901 0.0
C2701 C 0.07781 0.98091 0.00092 0.0
C2702 C 0.10063 0.96988 0.02169 0.0
C2703 C 0.10979 0.96481 0.00636 0.0
C2704 C 0.10286 0.96793 0.9883 0.0
C2705 C 0.08703 0.97588 0.9856 0.0
C2706 C 0.12618 0.95565 0.00905 0.0
C2707 C 0.12629 0.93937 0.9994 0.0
C2708 C 0.14134 0.96249 0.02142 0.0
C2709 C 0.14258 0.98006 0.03121 0.0
C2710 C 0.14072 0.99519 0.02113 0.0
C2711 C 0.14182 0.0117 0.03046 0.0
C2712 C 0.14491 0.01327 0.04986 0.0
C2713 C 0.14696 0.99834 0.05997 0.0
C2714 C 0.14585 0.9818 0.05072 0.0
C2715 C 0.19742 0.91503 0.00288 0.0
C2716 C 0.20344 0.90957 0.02042 0.0
C2717 C 0.18214 0.92389 0.00092 0.0
C2718 C 0.17257 0.92746 0.01644 0.0
C2719 C 0.17868 0.92228 0.03403 0.0
C2720 C 0.19392 0.91332 0.03599 0.0
C2721 C 0.15613 0.93653 0.01423 0.0
C2722 C 0.15602 0.95273 0.024 0.0
C2723 C 0.14101 0.92969 0.00188 0.0
C2724 C 0.13999 0.91228 0.99179 0.0
C2725 C 0.14197 0.89702 0.0016 0.0
C2726 C 0.14115 0.88068 0.99199 0.0
C2727 C 0.13823 0.87941 0.97257 0.0
C2728 C 0.13607 0.89448 0.96272 0.0
C2729 C 0.1369 0.91086 0.97226 0.0
H2730 H 0.1376 0.86675 0.96515 0.0
H2731 H 0.14577 0.02606 0.05705 0.0
loop_
_geom_bond_atom_site_label_1
_geom_bond_atom_site_label_2
_geom_bond_distance
_geom_bond_site_symmetry_2
_ccdc_geom_bond_type
O0 Cd1 2.300 . S
O0 C7 1.275 . S
Cd1 O0 2.300 . S
Cd1 O9 2.381 . S
Cd1 O10 2.378 . S
O2 Cd3 2.385 . S
O2 C7 1.255 . S
Cd3 O2 2.385 . S
Cd3 O4 2.317 . S
O4 Cd3 2.317 . S
O4 C5 1.232 . S
C5 O4 1.232 . S
C5 O6 1.218 . S
O6 C5 1.218 . S
C7 O0 1.275 . S
C7 O2 1.255 . S
C8 O9 1.258 . S
C8 O10 1.256 . S
O9 Cd1 2.381 . S
O9 C8 1.258 . S
O10 Cd1 2.378 . S
O10 C8 1.256 . S
O11 Cd12 2.300 . S
O11 C18 1.275 . S
Cd12 O11 2.300 . S
Cd12 O20 2.381 . S
Cd12 O21 2.378 . S
O13 Cd14 2.385 . S
O13 C18 1.255 . S
Cd14 O13 2.385 . S
Cd14 O15 2.317 . S
O15 Cd14 2.317 . S
O15 C16 1.232 . S
C16 O15 1.232 . S
C16 O17 1.218 . S
O17 C16 1.218 . S
C18 O11 1.275 . S
C18 O13 1.255 . S
C19 O20 1.258 . S
C19 O21 1.256 . S
O20 Cd12 2.381 . S
O20 C19 1.258 . S
O21 Cd12 2.378 . S
O21 C19 1.256 . S
O22 Cd23 2.300 . S
O22 C29 1.275 . S
Cd23 O22 2.300 . S
Cd23 O31 2.381 . S
Cd23 O32 2.378 . S
O24 Cd25 2.385 . S
O24 C29 1.255 . S
Cd25 O24 2.385 . S
Cd25 O26 2.317 . S
O26 Cd25 2.317 . S
O26 C27 1.232 . S
C27 O26 1.232 . S
C27 O28 1.218 . S
O28 C27 1.218 . S
C29 O22 1.275 . S
C29 O24 1.255 . S
C30 O31 1.258 . S
C30 O32 1.256 . S
O31 Cd23 2.381 . S
O31 C30 1.258 . S
O32 Cd23 2.378 . S
O32 C30 1.256 . S
O33 Cd34 2.300 . S
O33 C40 1.275 . S
Cd34 O33 2.300 . S
Cd34 O42 2.381 . S
Cd34 O43 2.378 . S
O35 Cd36 2.385 . S
O35 C40 1.255 . S
Cd36 O35 2.385 . S
Cd36 O37 2.317 . S
O37 Cd36 2.317 . S
O37 C38 1.232 . S
C38 O37 1.232 . S
C38 O39 1.218 . S
O39 C38 1.218 . S
C40 O33 1.275 . S
C40 O35 1.255 . S
C41 O42 1.258 . S
C41 O43 1.256 . S
O42 Cd34 2.381 . S
O42 C41 1.258 . S
O43 Cd34 2.378 . S
O43 C41 1.256 . S
O44 Cd45 2.300 . S
O44 C51 1.275 . S
Cd45 O44 2.300 . S
Cd45 O53 2.381 . S
Cd45 O54 2.378 . S
O46 Cd47 2.385 . S
O46 C51 1.255 1_545 S
Cd47 O46 2.385 . S
Cd47 O48 2.317 1_545 S
O48 Cd47 2.317 1_565 S
O48 C49 1.232 . S
C49 O48 1.232 . S
C49 O50 1.218 1_565 S
O50 C49 1.218 1_545 S
C51 O44 1.275 . S
C51 O46 1.255 1_565 S
C52 O53 1.258 . S
C52 O54 1.256 . S
O53 Cd45 2.381 . S
O53 C52 1.258 . S
O54 Cd45 2.378 . S
O54 C52 1.256 . S
O55 Cd56 2.300 . S
O55 C62 1.275 . S
Cd56 O55 2.300 . S
Cd56 O64 2.381 . S
Cd56 O65 2.378 . S
O57 Cd58 2.385 . S
O57 C62 1.255 . S
Cd58 O57 2.385 . S
Cd58 O59 2.317 . S
O59 Cd58 2.317 . S
O59 C60 1.232 . S
C60 O59 1.232 . S
C60 O61 1.218 . S
O61 C60 1.218 . S
C62 O55 1.275 . S
C62 O57 1.255 . S
C63 O64 1.258 . S
C63 O65 1.256 . S
O64 Cd56 2.381 . S
O64 C63 1.258 . S
O65 Cd56 2.378 . S
O65 C63 1.256 . S
O66 Cd67 2.300 . S
O66 C73 1.275 . S
Cd67 O66 2.300 . S
Cd67 O75 2.381 . S
Cd67 O76 2.378 . S
O68 Cd69 2.385 1_655 S
O68 C73 1.255 . S
Cd69 O68 2.385 1_455 S
Cd69 O70 2.317 1_455 S
O70 Cd69 2.317 1_655 S
O70 C71 1.232 . S
C71 O70 1.232 . S
C71 O72 1.218 1_655 S
O72 C71 1.218 1_455 S
C73 O66 1.275 . S
C73 O68 1.255 . S
C74 O75 1.258 . S
C74 O76 1.256 . S
O75 Cd67 2.381 . S
O75 C74 1.258 . S
O76 Cd67 2.378 . S
O76 C74 1.256 . S
O77 Cd78 2.300 . S
O77 C84 1.275 . S
Cd78 O77 2.300 . S
Cd78 O86 2.381 . S
Cd78 O87 2.378 . S
O79 Cd80 2.385 . S
O79 C84 1.255 . S
Cd80 O79 2.385 . S
Cd80 O81 2.317 . S
O81 Cd80 2.317 . S
O81 C82 1.232 . S
C82 O81 1.232 . S
C82 O83 1.218 . S
O83 C82 1.218 . S
C84 O77 1.275 . S
C84 O79 1.255 . S
C85 O86 1.258 . S
C85 O87 1.256 . S
O86 Cd78 2.381 . S
O86 C85 1.258 . S
O87 Cd78 2.378 . S
O87 C85 1.256 . S
O88 Cd89 2.300 . S
O88 C95 1.275 . S
Cd89 O88 2.300 . S
Cd89 O97 2.381 . S
Cd89 O98 2.378 . S
O90 Cd91 2.385 . S
O90 C95 1.255 . S
Cd91 O90 2.385 . S
Cd91 O92 2.317 . S
O92 Cd91 2.317 . S
O92 C93 1.232 . S
C93 O92 1.232 . S
C93 O94 1.218 . S
O94 C93 1.218 . S
C95 O88 1.275 . S
C95 O90 1.255 . S
C96 O97 1.258 . S
C96 O98 1.256 . S
O97 Cd89 2.381 . S
O97 C96 1.258 . S
O98 Cd89 2.378 . S
O98 C96 1.256 . S
O99 Cd100 2.300 . S
O99 C106 1.275 . S
Cd100 O99 2.300 . S
Cd100 O108 2.381 1_565 S
Cd100 O109 2.378 1_565 S
O101 Cd102 2.385 . S
O101 C106 1.255 . S
Cd102 O101 2.385 . S
Cd102 O103 2.317 . S
O103 Cd102 2.317 . S
O103 C104 1.232 . S
C104 O103 1.232 . S
C104 O105 1.218 . S
O105 C104 1.218 . S
C106 O99 1.275 . S
C106 O101 1.255 . S
C107 O108 1.258 . S
C107 O109 1.256 . S
O108 Cd100 2.381 1_545 S
O108 C107 1.258 . S
O109 Cd100 2.378 1_545 S
O109 C107 1.256 . S
O110 Cd111 2.300 . S
O110 C117 1.275 . S
Cd111 O110 2.300 . S
Cd111 O119 2.381 . S
Cd111 O120 2.378 . S
O112 Cd113 2.385 . S
O112 C117 1.255 . S
Cd113 O112 2.385 . S
Cd113 O114 2.317 . S
O114 Cd113 2.317 . S
O114 C115 1.232 . S
C115 O114 1.232 . S
C115 O116 1.218 . S
O116 C115 1.218 . S
C117 O110 1.275 . S
C117 O112 1.255 . S
C118 O119 1.258 . S
C118 O120 1.256 . S
O119 Cd111 2.381 . S
O119 C118 1.258 . S
O120 Cd111 2.378 . S
O120 C118 1.256 . S
O121 Cd122 2.300 . S
O121 C128 1.275 . S
Cd122 O121 2.300 . S
Cd122 O130 2.381 . S
Cd122 O131 2.378 . S
O123 Cd124 2.385 . S
O123 C128 1.255 . S
Cd124 O123 2.385 . S
Cd124 O125 2.317 . S
O125 Cd124 2.317 . S
O125 C126 1.232 . S
C126 O125 1.232 . S
C126 O127 1.218 . S
O127 C126 1.218 . S
C128 O121 1.275 . S
C128 O123 1.255 . S
C129 O130 1.258 . S
C129 O131 1.256 . S
O130 Cd122 2.381 . S
O130 C129 1.258 . S
O131 Cd122 2.378 . S
O131 C129 1.256 . S
O132 Cd133 2.300 . S
O132 C139 1.275 . S
Cd133 O132 2.300 . S
Cd133 O141 2.381 . S
Cd133 O142 2.378 . S
O134 Cd135 2.385 . S
O134 C139 1.255 . S
Cd135 O134 2.385 . S
Cd135 O136 2.317 . S
O136 Cd135 2.317 . S
O136 C137 1.232 . S
C137 O136 1.232 . S
C137 O138 1.218 . S
O138 C137 1.218 . S
C139 O132 1.275 . S
C139 O134 1.255 . S
C140 O141 1.258 . S
C140 O142 1.256 . S
O141 Cd133 2.381 . S
O141 C140 1.258 . S
O142 Cd133 2.378 . S
O142 C140 1.256 . S
O143 Cd144 2.300 . S
O143 C150 1.275 . S
Cd144 O143 2.300 . S
Cd144 O152 2.381 1_556 S
Cd144 O153 2.378 1_556 S
O145 Cd146 2.385 . S
O145 C150 1.255 . S
Cd146 O145 2.385 . S
Cd146 O147 2.317 . S
O147 Cd146 2.317 . S
O147 C148 1.232 . S
C148 O147 1.232 . S
C148 O149 1.218 . S
O149 C148 1.218 . S
C150 O143 1.275 . S
C150 O145 1.255 . S
C151 O152 1.258 . S
C151 O153 1.256 . S
O152 Cd144 2.381 1_554 S
O152 C151 1.258 . S
O153 Cd144 2.378 1_554 S
O153 C151 1.256 . S
O154 Cd155 2.300 . S
O154 C161 1.275 . S
Cd155 O154 2.300 . S
Cd155 O163 2.381 . S
Cd155 O164 2.378 . S
O156 Cd157 2.385 . S
O156 C161 1.255 . S
Cd157 O156 2.385 . S
Cd157 O158 2.317 . S
O158 Cd157 2.317 . S
O158 C159 1.232 . S
C159 O158 1.232 . S
C159 O160 1.218 . S
O160 C159 1.218 . S
C161 O154 1.275 . S
C161 O156 1.255 . S
C162 O163 1.258 . S
C162 O164 1.256 . S
O163 Cd155 2.381 . S
O163 C162 1.258 . S
O164 Cd155 2.378 . S
O164 C162 1.256 . S
O165 Cd166 2.300 1_556 S
O165 C172 1.275 . S
Cd166 O165 2.300 1_554 S
Cd166 O174 2.381 1_554 S
Cd166 O175 2.378 . S
O167 Cd168 2.385 1_556 S
O167 C172 1.255 . S
Cd168 O167 2.385 1_554 S
Cd168 O169 2.317 . S
O169 Cd168 2.317 . S
O169 C170 1.232 . S
C170 O169 1.232 . S
C170 O171 1.218 . S
O171 C170 1.218 . S
C172 O165 1.275 . S
C172 O167 1.255 . S
C173 O174 1.258 1_554 S
C173 O175 1.256 . S
O174 Cd166 2.381 1_556 S
O174 C173 1.258 1_556 S
O175 Cd166 2.378 . S
O175 C173 1.256 . S
C176 O177 1.160 . S
C176 O183 1.185 . S
O177 C176 1.160 . S
O178 Zn179 1.899 . S
O178 C186 1.284 1_554 S
Zn179 O178 1.899 . S
Zn179 O180 2.032 . S
Zn179 O183 2.086 . S
Zn179 O188 1.977 . S
O180 Zn179 2.032 . S
O180 C184 1.278 . S
C181 O182 1.203 . S
C181 O188 1.267 . S
O182 C181 1.203 . S
O183 C176 1.185 . S
O183 Zn179 2.086 . S
C184 O180 1.278 . S
C184 O185 1.211 . S
O185 C184 1.211 . S
C186 O178 1.284 1_556 S
C186 O187 1.273 . S
O187 C186 1.273 . S
O188 Zn179 1.977 . S
O188 C181 1.267 . S
C189 O190 1.160 . S
C189 O196 1.185 . S
O190 C189 1.160 . S
O191 Zn192 1.899 . S
O191 C199 1.284 . S
Zn192 O191 1.899 . S
Zn192 O193 2.032 . S
Zn192 O196 2.086 . S
Zn192 O201 1.977 . S
O193 Zn192 2.032 . S
O193 C197 1.278 . S
C194 O195 1.203 . S
C194 O201 1.267 . S
O195 C194 1.203 . S
O196 C189 1.185 . S
O196 Zn192 2.086 . S
C197 O193 1.278 . S
C197 O198 1.211 . S
O198 C197 1.211 . S
C199 O191 1.284 . S
C199 O200 1.273 . S
O200 C199 1.273 . S
O201 Zn192 1.977 . S
O201 C194 1.267 . S
C202 O203 1.160 1_554 S
C202 O209 1.185 . S
O203 C202 1.160 1_556 S
O204 Zn205 1.899 1_556 S
O204 C212 1.284 . S
Zn205 O204 1.899 1_554 S
Zn205 O206 2.032 . S
Zn205 O209 2.086 . S
Zn205 O214 1.977 . S
O206 Zn205 2.032 . S
O206 C210 1.278 . S
C207 O208 1.203 . S
C207 O214 1.267 . S
O208 C207 1.203 . S
O209 C202 1.185 . S
O209 Zn205 2.086 . S
C210 O206 1.278 . S
C210 O211 1.211 . S
O211 C210 1.211 . S
C212 O204 1.284 . S
C212 O213 1.273 . S
O213 C212 1.273 . S
O214 Zn205 1.977 . S
O214 C207 1.267 . S
C215 O216 1.160 . S
C215 O222 1.185 . S
O216 C215 1.160 . S
O217 Zn218 1.899 . S
O217 C225 1.284 . S
Zn218 O217 1.899 . S
Zn218 O219 2.032 . S
Zn218 O222 2.086 . S
Zn218 O227 1.977 . S
O219 Zn218 2.032 . S
O219 C223 1.287 . S
C220 O221 1.203 . S
C220 O227 1.267 . S
O221 C220 1.203 . S
O222 C215 1.185 . S
O222 Zn218 2.086 . S
C223 O219 1.287 . S
C223 O224 1.207 1_545 S
O224 C223 1.207 1_565 S
C225 O217 1.284 . S
C225 O226 1.273 . S
O226 C225 1.273 . S
O227 Zn218 1.977 . S
O227 C220 1.267 . S
C228 O229 1.160 . S
C228 O235 1.185 . S
O229 C228 1.160 . S
O230 Zn231 1.899 . S
O230 C238 1.284 . S
Zn231 O230 1.899 . S
Zn231 O232 2.032 . S
Zn231 O235 2.086 . S
Zn231 O240 1.977 . S
O232 Zn231 2.032 . S
O232 C236 1.278 . S
C233 O234 1.203 . S
C233 O240 1.267 . S
O234 C233 1.203 . S
O235 C228 1.185 . S
O235 Zn231 2.086 . S
C236 O232 1.278 . S
C236 O237 1.211 . S
O237 C236 1.211 . S
C238 O230 1.284 . S
C238 O239 1.273 . S
O239 C238 1.273 . S
O240 Zn231 1.977 . S
O240 C233 1.267 . S
C241 O242 1.160 . S
C241 O248 1.185 . S
O242 C241 1.160 . S
O243 Zn244 1.899 . S
O243 C251 1.284 . S
Zn244 O243 1.899 . S
Zn244 O245 2.032 . S
Zn244 O248 2.086 . S
Zn244 O253 1.977 . S
O245 Zn244 2.032 . S
O245 C249 1.278 . S
C246 O247 1.203 . S
C246 O253 1.267 . S
O247 C246 1.203 . S
O248 C241 1.185 . S
O248 Zn244 2.086 . S
C249 O245 1.278 . S
C249 O250 1.211 . S
O250 C249 1.211 . S
C251 O243 1.284 . S
C251 O252 1.273 . S
O252 C251 1.273 . S
O253 Zn244 1.977 . S
O253 C246 1.267 . S
C254 O255 1.160 . S
C254 O261 1.185 . S
O255 C254 1.160 . S
O256 Zn257 1.899 . S
O256 C264 1.284 . S
Zn257 O256 1.899 . S
Zn257 O258 2.032 . S
Zn257 O261 2.086 . S
Zn257 O266 1.977 . S
O258 Zn257 2.032 . S
O258 C262 1.278 . S
C259 O260 1.203 . S
C259 O266 1.267 . S
O260 C259 1.203 . S
O261 C254 1.185 . S
O261 Zn257 2.086 . S
C262 O258 1.278 . S
C262 O263 1.211 . S
O263 C262 1.211 . S
C264 O256 1.284 . S
C264 O265 1.273 . S
O265 C264 1.273 . S
O266 Zn257 1.977 . S
O266 C259 1.267 . S
C267 O268 1.160 . S
C267 O274 1.185 . S
O268 C267 1.160 . S
O269 Zn270 1.899 . S
O269 C277 1.284 1_565 S
Zn270 O269 1.899 . S
Zn270 O271 2.032 1_565 S
Zn270 O274 2.086 . S
Zn270 O279 1.977 . S
O271 Zn270 2.032 1_545 S
O271 C275 1.278 . S
C272 O273 1.203 1_565 S
C272 O279 1.267 . S
O273 C272 1.203 1_545 S
O274 C267 1.185 . S
O274 Zn270 2.086 . S
C275 O271 1.278 . S
C275 O276 1.211 . S
O276 C275 1.211 . S
C277 O269 1.284 1_545 S
C277 O278 1.273 . S
O278 C277 1.273 . S
O279 Zn270 1.977 . S
O279 C272 1.267 . S
C280 O281 1.160 1_455 S
C280 O287 1.185 . S
O281 C280 1.160 1_655 S
O282 Zn283 1.899 1_655 S
O282 C290 1.284 . S
Zn283 O282 1.899 1_455 S
Zn283 O284 2.032 . S
Zn283 O287 2.086 . S
Zn283 O292 1.977 . S
O284 Zn283 2.032 . S
O284 C288 1.278 . S
C285 O286 1.203 . S
C285 O292 1.267 . S
O286 C285 1.203 . S
O287 C280 1.185 . S
O287 Zn283 2.086 . S
C288 O284 1.278 . S
C288 O289 1.211 . S
O289 C288 1.211 . S
C290 O282 1.284 . S
C290 O291 1.273 . S
O291 C290 1.273 . S
O292 Zn283 1.977 . S
O292 C285 1.267 . S
C293 O294 1.160 . S
C293 O300 1.185 . S
O294 C293 1.160 . S
O295 Zn296 1.899 . S
O295 C303 1.284 . S
Zn296 O295 1.899 . S
Zn296 O297 2.032 . S
Zn296 O300 2.086 . S
Zn296 O305 1.977 . S
O297 Zn296 2.032 . S
O297 C301 1.278 . S
C298 O299 1.203 . S
C298 O305 1.267 . S
O299 C298 1.203 . S
O300 C293 1.185 . S
O300 Zn296 2.086 . S
C301 O297 1.278 . S
C301 O302 1.211 . S
O302 C301 1.211 . S
C303 O295 1.284 . S
C303 O304 1.273 . S
O304 C303 1.273 . S
O305 Zn296 1.977 . S
O305 C298 1.267 . S
C306 O307 1.160 . S
C306 O313 1.185 . S
O307 C306 1.160 . S
O308 Zn309 1.899 . S
O308 C316 1.284 1_455 S
Zn309 O308 1.899 . S
Zn309 O310 2.032 . S
Zn309 O313 2.086 . S
Zn309 O318 1.977 . S
O310 Zn309 2.032 . S
O310 C314 1.278 . S
C311 O312 1.203 . S
C311 O318 1.267 . S
O312 C311 1.203 . S
O313 C306 1.185 . S
O313 Zn309 2.086 . S
C314 O310 1.278 . S
C314 O315 1.211 . S
O315 C314 1.211 . S
C316 O308 1.284 1_655 S
C316 O317 1.273 . S
O317 C316 1.273 . S
O318 Zn309 1.977 . S
O318 C311 1.267 . S
C319 O320 1.160 . S
C319 O326 1.185 . S
O320 C319 1.160 . S
O321 Zn322 1.899 . S
O321 C329 1.284 . S
Zn322 O321 1.899 . S
Zn322 O323 2.032 . S
Zn322 O326 2.086 . S
Zn322 O331 1.977 . S
O323 Zn322 2.032 . S
O323 C327 1.278 . S
C324 O325 1.203 . S
C324 O331 1.267 . S
O325 C324 1.203 . S
O326 C319 1.185 . S
O326 Zn322 2.086 . S
C327 O323 1.278 . S
C327 O328 1.211 . S
O328 C327 1.211 . S
C329 O321 1.284 . S
C329 O330 1.273 . S
O330 C329 1.273 . S
O331 Zn322 1.977 . S
O331 C324 1.267 . S
H332 C350 0.951 . S
H333 C352 0.951 . S
H334 C354 0.950 . S
H335 C355 0.950 . S
H336 C357 0.950 . S
H337 C360 0.950 . S
H338 C361 0.950 . S
H339 C363 0.950 . S
H340 C364 0.950 . S
H341 C365 0.951 . S
H342 C367 0.951 . S
H343 C369 0.950 . S
H344 C370 0.950 . S
H345 C372 0.950 . S
H346 C375 0.950 . S
H347 C376 0.950 . S
H348 C378 0.950 . S
H349 C379 0.950 . S
C350 H332 0.951 . S
C350 C351 1.366 . S
C350 C352 1.388 . S
C351 C350 1.366 . S
C351 C355 1.385 . S
C352 H333 0.951 . S
C352 C350 1.388 . S
C352 C353 1.366 . S
C353 C352 1.366 . S
C353 C354 1.414 . S
C353 C356 1.499 . S
C354 H334 0.950 . S
C354 C353 1.414 . S
C354 C355 1.374 . S
C355 H335 0.950 . S
C355 C351 1.385 . S
C355 C354 1.374 . S
C356 C353 1.499 . S
C356 C357 1.373 . S
C356 C358 1.389 . S
C357 H336 0.950 . S
C357 C356 1.373 . S
C357 C373 1.377 . S
C358 C356 1.389 . S
C358 C359 1.524 . S
C358 C372 1.377 . S
C359 C358 1.524 . S
C359 C360 1.397 . S
C359 C364 1.363 . S
C360 H337 0.950 . S
C360 C359 1.397 . S
C360 C361 1.334 . S
C361 H338 0.950 . S
C361 C360 1.334 . S
C361 C362 1.287 . S
C362 C361 1.287 . S
C362 C363 1.524 . S
C362 H381 0.913 . S
C363 H339 0.950 . S
C363 C362 1.524 . S
C363 C364 1.415 . S
C364 H340 0.950 . S
C364 C359 1.363 . S
C364 C363 1.415 . S
C365 H341 0.951 . S
C365 C366 1.366 . S
C365 C367 1.388 . S
C366 C365 1.366 . S
C366 C370 1.385 . S
C367 H342 0.951 . S
C367 C365 1.388 . S
C367 C368 1.366 . S
C368 C367 1.366 . S
C368 C369 1.414 . S
C368 C371 1.499 . S
C369 H343 0.950 . S
C369 C368 1.414 . S
C369 C370 1.374 . S
C370 H344 0.950 . S
C370 C366 1.385 . S
C370 C369 1.374 . S
C371 C368 1.499 . S
C371 C372 1.373 . S
C371 C373 1.389 . S
C372 H345 0.950 . S
C372 C358 1.377 . S
C372 C371 1.373 . S
C373 C357 1.377 . S
C373 C371 1.389 . S
C373 C374 1.524 . S
C374 C373 1.524 . S
C374 C375 1.397 . S
C374 C379 1.363 . S
C375 H346 0.950 . S
C375 C374 1.397 . S
C375 C376 1.334 . S
C376 H347 0.950 . S
C376 C375 1.334 . S
C376 C377 1.287 . S
C377 C376 1.287 . S
C377 C378 1.524 . S
C377 H380 0.999 . S
C378 H348 0.950 . S
C378 C377 1.524 . S
C378 C379 1.415 . S
C379 H349 0.950 . S
C379 C374 1.363 . S
C379 C378 1.415 . S
H380 C377 0.999 . S
H381 C362 0.913 . S
H382 C400 1.000 . S
H383 C402 0.951 . S
H384 C404 0.950 . S
H385 C405 0.950 . S
H386 C407 0.950 . S
H387 C410 0.950 . S
H388 C411 0.950 . S
H389 C413 0.950 . S
H390 C414 0.950 . S
H391 C415 0.951 . S
H392 C417 0.951 . S
H393 C419 0.950 . S
H394 C420 0.950 . S
H395 C422 0.950 . S
H396 C425 0.950 . S
H397 C426 0.950 . S
H398 C428 0.950 . S
H399 C429 0.950 . S
C400 H382 1.000 . S
C400 C401 1.362 1_655 S
C400 C402 1.346 1_655 S
C401 C400 1.362 1_455 S
C401 C405 1.385 . S
C402 H383 0.951 . S
C402 C400 1.346 1_455 S
C402 C403 1.366 . S
C403 C402 1.366 . S
C403 C404 1.414 . S
C403 C406 1.499 . S
C404 H384 0.950 . S
C404 C403 1.414 . S
C404 C405 1.374 . S
C405 H385 0.950 . S
C405 C401 1.385 . S
C405 C404 1.374 . S
C406 C403 1.499 . S
C406 C407 1.373 . S
C406 C408 1.389 . S
C407 H386 0.950 . S
C407 C406 1.373 . S
C407 C423 1.377 . S
C408 C406 1.389 . S
C408 C409 1.524 . S
C408 C422 1.377 . S
C409 C408 1.524 . S
C409 C410 1.397 . S
C409 C414 1.363 . S
C410 H387 0.950 . S
C410 C409 1.397 . S
C410 C411 1.334 . S
C411 H388 0.950 . S
C411 C410 1.334 . S
C411 C412 1.287 . S
C412 C411 1.287 . S
C412 C413 1.524 . S
C412 H431 0.913 . S
C413 H389 0.950 . S
C413 C412 1.524 . S
C413 C414 1.415 . S
C414 H390 0.950 . S
C414 C409 1.363 . S
C414 C413 1.415 . S
C415 H391 0.951 . S
C415 C416 1.366 . S
C415 C417 1.388 . S
C416 C415 1.366 . S
C416 C420 1.385 . S
C417 H392 0.951 . S
C417 C415 1.388 . S
C417 C418 1.366 . S
C418 C417 1.366 . S
C418 C419 1.414 . S
C418 C421 1.499 . S
C419 H393 0.950 . S
C419 C418 1.414 . S
C419 C420 1.374 . S
C420 H394 0.950 . S
C420 C416 1.385 . S
C420 C419 1.374 . S
C421 C418 1.499 . S
C421 C422 1.373 . S
C421 C423 1.389 . S
C422 H395 0.950 . S
C422 C408 1.377 . S
C422 C421 1.373 . S
C423 C407 1.377 . S
C423 C421 1.389 . S
C423 C424 1.524 . S
C424 C423 1.524 . S
C424 C425 1.397 . S
C424 C429 1.363 . S
C425 H396 0.950 . S
C425 C424 1.397 . S
C425 C426 1.334 . S
C426 H397 0.950 . S
C426 C425 1.334 . S
C426 C427 1.287 . S
C427 C426 1.287 . S
C427 C428 1.524 . S
C427 H430 0.999 . S
C428 H398 0.950 . S
C428 C427 1.524 . S
C428 C429 1.415 . S
C429 H399 0.950 . S
C429 C424 1.363 . S
C429 C428 1.415 . S
H430 C427 0.999 . S
H431 C412 0.913 . S
H432 C450 0.951 . S
H433 C452 0.951 . S
H434 C454 0.950 . S
H435 C455 0.950 . S
H436 C457 0.950 . S
H437 C460 0.950 . S
H438 C461 0.950 . S
H439 C463 0.950 . S
H440 C464 0.950 . S
H441 C465 0.951 . S
H442 C467 0.951 . S
H443 C469 0.950 . S
H444 C470 0.950 . S
H445 C472 0.950 . S
H446 C475 0.950 . S
H447 C476 0.950 . S
H448 C478 0.950 . S
H449 C479 0.950 . S
C450 H432 0.951 . S
C450 C451 1.366 . S
C450 C452 1.388 . S
C451 C450 1.366 . S
C451 C455 1.385 . S
C452 H433 0.951 . S
C452 C450 1.388 . S
C452 C453 1.366 . S
C453 C452 1.366 . S
C453 C454 1.414 . S
C453 C456 1.499 . S
C454 H434 0.950 . S
C454 C453 1.414 . S
C454 C455 1.374 . S
C455 H435 0.950 . S
C455 C451 1.385 . S
C455 C454 1.374 . S
C456 C453 1.499 . S
C456 C457 1.373 . S
C456 C458 1.389 . S
C457 H436 0.950 . S
C457 C456 1.373 . S
C457 C473 1.377 . S
C458 C456 1.389 . S
C458 C459 1.524 . S
C458 C472 1.377 . S
C459 C458 1.524 . S
C459 C460 1.397 . S
C459 C464 1.363 . S
C460 H437 0.950 . S
C460 C459 1.397 . S
C460 C461 1.334 . S
C461 H438 0.950 . S
C461 C460 1.334 . S
C461 C462 1.287 . S
C462 C461 1.287 . S
C462 C463 1.524 . S
C462 H481 0.913 . S
C463 H439 0.950 . S
C463 C462 1.524 . S
C463 C464 1.415 . S
C464 H440 0.950 . S
C464 C459 1.363 . S
C464 C463 1.415 . S
C465 H441 0.951 . S
C465 C466 1.366 . S
C465 C467 1.388 . S
C466 C465 1.366 . S
C466 C470 1.385 . S
C467 H442 0.951 . S
C467 C465 1.388 . S
C467 C468 1.366 . S
C468 C467 1.366 . S
C468 C469 1.414 . S
C468 C471 1.499 . S
C469 H443 0.950 . S
C469 C468 1.414 . S
C469 C470 1.374 . S
C470 H444 0.950 . S
C470 C466 1.385 . S
C470 C469 1.374 . S
C471 C468 1.499 . S
C471 C472 1.373 . S
C471 C473 1.389 . S
C472 H445 0.950 . S
C472 C458 1.377 . S
C472 C471 1.373 . S
C473 C457 1.377 . S
C473 C471 1.389 . S
C473 C474 1.524 . S
C474 C473 1.524 . S
C474 C475 1.397 . S
C474 C479 1.363 . S
C475 H446 0.950 . S
C475 C474 1.397 . S
C475 C476 1.334 . S
C476 H447 0.950 . S
C476 C475 1.334 . S
C476 C477 1.287 . S
C477 C476 1.287 . S
C477 C478 1.524 . S
C477 H480 0.999 . S
C478 H448 0.950 . S
C478 C477 1.524 . S
C478 C479 1.415 . S
C479 H449 0.950 . S
C479 C474 1.363 . S
C479 C478 1.415 . S
H480 C477 0.999 . S
H481 C462 0.913 . S
H482 C500 0.951 . S
H483 C502 0.951 . S
H484 C504 0.950 . S
H485 C505 0.950 . S
H486 C507 0.950 . S
H487 C510 0.950 . S
H488 C511 0.950 . S
H489 C513 0.950 . S
H490 C514 0.950 . S
H491 C515 0.951 . S
H492 C517 0.951 . S
H493 C519 0.950 . S
H494 C520 0.950 . S
H495 C522 0.950 . S
H496 C525 0.950 . S
H497 C526 0.950 . S
H498 C528 0.950 . S
H499 C529 0.950 . S
C500 H482 0.951 . S
C500 C501 1.366 1_655 S
C500 C502 1.388 . S
C501 C500 1.366 1_455 S
C501 C505 1.385 1_565 S
C502 H483 0.951 . S
C502 C500 1.388 . S
C502 C503 1.361 1_565 S
C503 C502 1.361 1_545 S
C503 C504 1.415 1_655 S
C503 C506 1.502 . S
C504 H484 0.950 . S
C504 C503 1.415 1_455 S
C504 C505 1.374 . S
C505 H485 0.950 . S
C505 C501 1.385 1_545 S
C505 C504 1.374 . S
C506 C503 1.502 . S
C506 C507 1.373 . S
C506 C508 1.389 1_545 S
C507 H486 0.950 . S
C507 C506 1.373 . S
C507 C523 1.377 . S
C508 C506 1.389 1_565 S
C508 C509 1.524 . S
C508 C522 1.377 . S
C509 C508 1.524 . S
C509 C510 1.397 . S
C509 C514 1.363 . S
C510 H487 0.950 . S
C510 C509 1.397 . S
C510 C511 1.334 . S
C511 H488 0.950 . S
C511 C510 1.334 . S
C511 C512 1.287 . S
C512 C511 1.287 . S
C512 C513 1.524 . S
C512 H531 0.913 . S
C513 H489 0.950 . S
C513 C512 1.524 . S
C513 C514 1.415 . S
C514 H490 0.950 . S
C514 C509 1.363 . S
C514 C513 1.415 . S
C515 H491 0.951 . S
C515 C516 1.366 . S
C515 C517 1.388 . S
C516 C515 1.366 . S
C516 C520 1.385 . S
C517 H492 0.951 . S
C517 C515 1.388 . S
C517 C518 1.366 . S
C518 C517 1.366 . S
C518 C519 1.414 . S
C518 C521 1.499 . S
C519 H493 0.950 . S
C519 C518 1.414 . S
C519 C520 1.374 . S
C520 H494 0.950 . S
C520 C516 1.385 . S
C520 C519 1.374 . S
C521 C518 1.499 . S
C521 C522 1.373 1_545 S
C521 C523 1.389 . S
C522 H495 0.950 . S
C522 C508 1.377 . S
C522 C521 1.373 1_565 S
C523 C507 1.377 . S
C523 C521 1.389 . S
C523 C524 1.524 . S
C524 C523 1.524 . S
C524 C525 1.397 . S
C524 C529 1.363 . S
C525 H496 0.950 . S
C525 C524 1.397 . S
C525 C526 1.334 . S
C526 H497 0.950 . S
C526 C525 1.334 . S
C526 C527 1.287 . S
C527 C526 1.287 . S
C527 C528 1.524 . S
C527 H530 0.999 . S
C528 H498 0.950 . S
C528 C527 1.524 . S
C528 C529 1.415 . S
C529 H499 0.950 . S
C529 C524 1.363 . S
C529 C528 1.415 . S
H530 C527 0.999 . S
H531 C512 0.913 . S
H532 C550 0.951 . S
H533 C552 0.951 . S
H534 C554 0.950 . S
H535 C555 0.950 . S
H536 C557 0.950 . S
H537 C560 0.950 . S
H538 C561 0.950 . S
H539 C563 0.950 . S
H540 C564 0.950 . S
H541 C565 0.951 . S
H542 C567 0.951 . S
H543 C569 0.950 . S
H544 C570 0.950 . S
H545 C572 0.950 . S
H546 C575 0.950 . S
H547 C576 0.950 . S
H548 C578 0.950 . S
H549 C579 0.950 . S
C550 H532 0.951 . S
C550 C551 1.366 . S
C550 C552 1.388 . S
C551 C550 1.366 . S
C551 C555 1.385 . S
C552 H533 0.951 . S
C552 C550 1.388 . S
C552 C553 1.366 . S
C553 C552 1.366 . S
C553 C554 1.414 . S
C553 C556 1.499 . S
C554 H534 0.950 . S
C554 C553 1.414 . S
C554 C555 1.374 . S
C555 H535 0.950 . S
C555 C551 1.385 . S
C555 C554 1.374 . S
C556 C553 1.499 . S
C556 C557 1.373 . S
C556 C558 1.389 . S
C557 H536 0.950 . S
C557 C556 1.373 . S
C557 C573 1.377 . S
C558 C556 1.389 . S
C558 C559 1.524 . S
C558 C572 1.377 . S
C559 C558 1.524 . S
C559 C560 1.397 . S
C559 C564 1.363 . S
C560 H537 0.950 . S
C560 C559 1.397 . S
C560 C561 1.334 . S
C561 H538 0.950 . S
C561 C560 1.334 . S
C561 C562 1.287 . S
C562 C561 1.287 . S
C562 C563 1.524 . S
C562 H581 0.913 . S
C563 H539 0.950 . S
C563 C562 1.524 . S
C563 C564 1.415 . S
C564 H540 0.950 . S
C564 C559 1.363 . S
C564 C563 1.415 . S
C565 H541 0.951 . S
C565 C566 1.366 . S
C565 C567 1.388 . S
C566 C565 1.366 . S
C566 C570 1.385 . S
C567 H542 0.951 . S
C567 C565 1.388 . S
C567 C568 1.366 . S
C568 C567 1.366 . S
C568 C569 1.414 . S
C568 C571 1.499 . S
C569 H543 0.950 . S
C569 C568 1.414 . S
C569 C570 1.374 . S
C570 H544 0.950 . S
C570 C566 1.385 . S
C570 C569 1.374 . S
C571 C568 1.499 . S
C571 C572 1.373 . S
C571 C573 1.389 . S
C572 H545 0.950 . S
C572 C558 1.377 . S
C572 C571 1.373 . S
C573 C557 1.377 . S
C573 C571 1.389 . S
C573 C574 1.524 . S
C574 C573 1.524 . S
C574 C575 1.397 . S
C574 C579 1.363 . S
C575 H546 0.950 . S
C575 C574 1.397 . S
C575 C576 1.334 . S
C576 H547 0.950 . S
C576 C575 1.334 . S
C576 C577 1.287 . S
C577 C576 1.287 . S
C577 C578 1.524 . S
C577 H580 0.999 . S
C578 H548 0.950 . S
C578 C577 1.524 . S
C578 C579 1.415 . S
C579 H549 0.950 . S
C579 C574 1.363 . S
C579 C578 1.415 . S
H580 C577 0.999 . S
H581 C562 0.913 . S
H582 C600 0.951 . S
H583 C602 0.951 . S
H584 C604 0.950 . S
H585 C605 0.950 . S
H586 C607 0.950 . S
H587 C610 0.950 . S
H588 C611 0.950 . S
H589 C613 0.950 . S
H590 C614 0.950 . S
H591 C615 0.951 . S
H592 C617 0.951 . S
H593 C619 0.950 . S
H594 C620 0.950 . S
H595 C622 0.950 . S
H596 C625 0.950 . S
H597 C626 0.950 . S
H598 C628 0.950 . S
H599 C629 0.950 . S
C600 H582 0.951 . S
C600 C601 1.366 . S
C600 C602 1.388 . S
C601 C600 1.366 . S
C601 C605 1.385 . S
C602 H583 0.951 . S
C602 C600 1.388 . S
C602 C603 1.366 . S
C603 C602 1.366 . S
C603 C604 1.414 . S
C603 C606 1.499 . S
C604 H584 0.950 . S
C604 C603 1.414 . S
C604 C605 1.374 . S
C605 H585 0.950 . S
C605 C601 1.385 . S
C605 C604 1.374 . S
C606 C603 1.499 . S
C606 C607 1.373 . S
C606 C608 1.389 . S
C607 H586 0.950 . S
C607 C606 1.373 . S
C607 C623 1.377 . S
C608 C606 1.389 . S
C608 C609 1.524 . S
C608 C622 1.377 . S
C609 C608 1.524 . S
C609 C610 1.397 . S
C609 C614 1.363 . S
C610 H587 0.950 . S
C610 C609 1.397 . S
C610 C611 1.334 . S
C611 H588 0.950 . S
C611 C610 1.334 . S
C611 C612 1.287 . S
C612 C611 1.287 . S
C612 C613 1.524 . S
C612 H631 0.913 . S
C613 H589 0.950 . S
C613 C612 1.524 . S
C613 C614 1.415 . S
C614 H590 0.950 . S
C614 C609 1.363 . S
C614 C613 1.415 . S
C615 H591 0.951 . S
C615 C616 1.366 . S
C615 C617 1.388 . S
C616 C615 1.366 . S
C616 C620 1.385 . S
C617 H592 0.951 . S
C617 C615 1.388 . S
C617 C618 1.366 . S
C618 C617 1.366 . S
C618 C619 1.414 . S
C618 C621 1.499 . S
C619 H593 0.950 . S
C619 C618 1.414 . S
C619 C620 1.374 . S
C620 H594 0.950 . S
C620 C616 1.385 . S
C620 C619 1.374 . S
C621 C618 1.499 . S
C621 C622 1.373 . S
C621 C623 1.389 . S
C622 H595 0.950 . S
C622 C608 1.377 . S
C622 C621 1.373 . S
C623 C607 1.377 . S
C623 C621 1.389 . S
C623 C624 1.524 . S
C624 C623 1.524 . S
C624 C625 1.397 . S
C624 C629 1.363 . S
C625 H596 0.950 . S
C625 C624 1.397 . S
C625 C626 1.334 . S
C626 H597 0.950 . S
C626 C625 1.334 . S
C626 C627 1.287 . S
C627 C626 1.287 . S
C627 C628 1.524 . S
C627 H630 0.999 . S
C628 H598 0.950 . S
C628 C627 1.524 . S
C628 C629 1.415 . S
C629 H599 0.950 . S
C629 C624 1.363 . S
C629 C628 1.415 . S
H630 C627 0.999 . S
H631 C612 0.913 . S
H632 C650 0.951 . S
H633 C652 0.951 . S
H634 C654 0.950 . S
H635 C655 0.950 . S
H636 C657 0.950 . S
H637 C660 0.950 . S
H638 C661 0.950 . S
H639 C663 0.950 . S
H640 C664 0.950 . S
H641 C665 0.951 . S
H642 C667 0.951 . S
H643 C669 0.950 . S
H644 C670 0.950 . S
H645 C672 0.950 . S
H646 C675 0.950 . S
H647 C676 0.950 . S
H648 C678 0.950 . S
H649 C679 0.950 . S
C650 H632 0.951 . S
C650 C651 1.366 . S
C650 C652 1.388 . S
C651 C650 1.366 . S
C651 C655 1.385 . S
C652 H633 0.951 . S
C652 C650 1.388 . S
C652 C653 1.366 . S
C653 C652 1.366 . S
C653 C654 1.414 . S
C653 C656 1.499 . S
C654 H634 0.950 . S
C654 C653 1.414 . S
C654 C655 1.374 . S
C655 H635 0.950 . S
C655 C651 1.385 . S
C655 C654 1.374 . S
C656 C653 1.499 . S
C656 C657 1.373 . S
C656 C658 1.389 . S
C657 H636 0.950 . S
C657 C656 1.373 . S
C657 C673 1.377 . S
C658 C656 1.389 . S
C658 C659 1.524 . S
C658 C672 1.377 . S
C659 C658 1.524 . S
C659 C660 1.397 . S
C659 C664 1.363 . S
C660 H637 0.950 . S
C660 C659 1.397 . S
C660 C661 1.334 . S
C661 H638 0.950 . S
C661 C660 1.334 . S
C661 C662 1.287 . S
C662 C661 1.287 . S
C662 C663 1.524 . S
C662 H681 0.913 . S
C663 H639 0.950 . S
C663 C662 1.524 . S
C663 C664 1.415 . S
C664 H640 0.950 . S
C664 C659 1.363 . S
C664 C663 1.415 . S
C665 H641 0.951 . S
C665 C666 1.366 . S
C665 C667 1.388 . S
C666 C665 1.366 . S
C666 C670 1.385 . S
C667 H642 0.951 . S
C667 C665 1.388 . S
C667 C668 1.366 . S
C668 C667 1.366 . S
C668 C669 1.414 . S
C668 C671 1.499 . S
C669 H643 0.950 . S
C669 C668 1.414 . S
C669 C670 1.374 . S
C670 H644 0.950 . S
C670 C666 1.385 . S
C670 C669 1.374 . S
C671 C668 1.499 . S
C671 C672 1.373 . S
C671 C673 1.389 . S
C672 H645 0.950 . S
C672 C658 1.377 . S
C672 C671 1.373 . S
C673 C657 1.377 . S
C673 C671 1.389 . S
C673 C674 1.524 . S
C674 C673 1.524 . S
C674 C675 1.397 . S
C674 C679 1.363 . S
C675 H646 0.950 . S
C675 C674 1.397 . S
C675 C676 1.334 . S
C676 H647 0.950 . S
C676 C675 1.334 . S
C676 C677 1.287 . S
C677 C676 1.287 . S
C677 C678 1.524 . S
C677 H680 0.999 . S
C678 H648 0.950 . S
C678 C677 1.524 . S
C678 C679 1.415 . S
C679 H649 0.950 . S
C679 C674 1.363 . S
C679 C678 1.415 . S
H680 C677 0.999 . S
H681 C662 0.913 . S
H682 C700 0.951 1_545 S
H683 C702 0.908 1_545 S
H684 C704 0.950 . S
H685 C705 0.950 . S
H686 C707 0.950 . S
H687 C710 0.950 1_565 S
H688 C711 0.950 . S
H689 C713 0.950 . S
H690 C714 0.950 . S
H691 C715 0.951 . S
H692 C717 0.951 . S
H693 C719 0.950 . S
H694 C720 0.950 . S
H695 C722 0.950 . S
H696 C725 0.950 . S
H697 C726 0.950 . S
H698 C728 0.950 . S
H699 C729 0.950 . S
C700 H682 0.951 1_565 S
C700 C701 1.366 . S
C700 C702 1.387 . S
C701 C700 1.366 . S
C701 C705 1.385 . S
C702 H683 0.908 1_565 S
C702 C700 1.387 . S
C702 C703 1.409 . S
C703 C702 1.409 . S
C703 C704 1.414 . S
C703 C706 1.499 . S
C704 H684 0.950 . S
C704 C703 1.414 . S
C704 C705 1.374 . S
C705 H685 0.950 . S
C705 C701 1.385 . S
C705 C704 1.374 . S
C706 C703 1.499 . S
C706 C707 1.373 . S
C706 C708 1.431 . S
C707 H686 0.950 . S
C707 C706 1.373 . S
C707 C723 1.377 . S
C708 C706 1.431 . S
C708 C709 1.486 1_565 S
C708 C722 1.378 1_565 S
C709 C708 1.486 1_545 S
C709 C710 1.397 . S
C709 C714 1.363 . S
C710 H687 0.950 1_545 S
C710 C709 1.397 . S
C710 C711 1.334 . S
C711 H688 0.950 . S
C711 C710 1.334 . S
C711 C712 1.287 . S
C712 C711 1.287 . S
C712 C713 1.524 . S
C712 H731 0.913 . S
C713 H689 0.950 . S
C713 C712 1.524 . S
C713 C714 1.415 . S
C714 H690 0.950 . S
C714 C709 1.363 . S
C714 C713 1.415 . S
C715 H691 0.951 . S
C715 C716 1.366 . S
C715 C717 1.388 . S
C716 C715 1.366 . S
C716 C720 1.385 1_565 S
C717 H692 0.951 . S
C717 C715 1.388 . S
C717 C718 1.366 . S
C718 C717 1.366 . S
C718 C719 1.414 1_565 S
C718 C721 1.499 . S
C719 H693 0.950 . S
C719 C718 1.414 1_545 S
C719 C720 1.374 . S
C720 H694 0.950 . S
C720 C716 1.385 1_545 S
C720 C719 1.374 . S
C721 C718 1.499 . S
C721 C722 1.373 1_565 S
C721 C723 1.389 . S
C722 H695 0.950 . S
C722 C708 1.378 1_545 S
C722 C721 1.373 1_545 S
C723 C707 1.377 . S
C723 C721 1.389 . S
C723 C724 1.524 . S
C724 C723 1.524 . S
C724 C725 1.397 . S
C724 C729 1.363 . S
C725 H696 0.950 . S
C725 C724 1.397 . S
C725 C726 1.334 . S
C726 H697 0.950 . S
C726 C725 1.334 . S
C726 C727 1.287 . S
C727 C726 1.287 . S
C727 C728 1.524 . S
C727 H730 0.999 . S
C728 H698 0.950 . S
C728 C727 1.524 . S
C728 C729 1.415 . S
C729 H699 0.950 . S
C729 C724 1.363 . S
C729 C728 1.415 . S
H730 C727 0.999 . S
H731 C712 0.913 . S
H732 C750 0.951 . S
H733 C752 0.951 . S
H734 C754 0.950 . S
H735 C755 0.950 . S
H736 C757 0.950 . S
H737 C760 0.950 . S
H738 C761 0.950 . S
H739 C763 0.950 . S
H740 C764 0.950 . S
H741 C765 0.951 . S
H742 C767 0.951 . S
H743 C769 0.950 . S
H744 C770 0.950 . S
H745 C772 0.950 . S
H746 C775 0.950 . S
H747 C776 0.950 . S
H748 C778 0.950 . S
H749 C779 0.950 . S
C750 H732 0.951 . S
C750 C751 1.366 . S
C750 C752 1.388 . S
C751 C750 1.366 . S
C751 C755 1.385 . S
C752 H733 0.951 . S
C752 C750 1.388 . S
C752 C753 1.366 . S
C753 C752 1.366 . S
C753 C754 1.414 . S
C753 C756 1.499 . S
C754 H734 0.950 . S
C754 C753 1.414 . S
C754 C755 1.374 . S
C755 H735 0.950 . S
C755 C751 1.385 . S
C755 C754 1.374 . S
C756 C753 1.499 . S
C756 C757 1.373 . S
C756 C758 1.389 . S
C757 H736 0.950 . S
C757 C756 1.373 . S
C757 C773 1.377 . S
C758 C756 1.389 . S
C758 C759 1.524 . S
C758 C772 1.377 . S
C759 C758 1.524 . S
C759 C760 1.397 . S
C759 C764 1.363 . S
C760 H737 0.950 . S
C760 C759 1.397 . S
C760 C761 1.334 . S
C761 H738 0.950 . S
C761 C760 1.334 . S
C761 C762 1.287 . S
C762 C761 1.287 . S
C762 C763 1.524 . S
C762 H781 0.913 . S
C763 H739 0.950 . S
C763 C762 1.524 . S
C763 C764 1.415 . S
C764 H740 0.950 . S
C764 C759 1.363 . S
C764 C763 1.415 . S
C765 H741 0.951 . S
C765 C766 1.366 . S
C765 C767 1.388 . S
C766 C765 1.366 . S
C766 C770 1.385 . S
C767 H742 0.951 . S
C767 C765 1.388 . S
C767 C768 1.366 . S
C768 C767 1.366 . S
C768 C769 1.414 . S
C768 C771 1.499 . S
C769 H743 0.950 . S
C769 C768 1.414 . S
C769 C770 1.374 . S
C770 H744 0.950 . S
C770 C766 1.385 . S
C770 C769 1.374 . S
C771 C768 1.499 . S
C771 C772 1.373 . S
C771 C773 1.389 . S
C772 H745 0.950 . S
C772 C758 1.377 . S
C772 C771 1.373 . S
C773 C757 1.377 . S
C773 C771 1.389 . S
C773 C774 1.524 . S
C774 C773 1.524 . S
C774 C775 1.397 . S
C774 C779 1.363 . S
C775 H746 0.950 . S
C775 C774 1.397 . S
C775 C776 1.334 . S
C776 H747 0.950 . S
C776 C775 1.334 . S
C776 C777 1.287 . S
C777 C776 1.287 . S
C777 C778 1.524 . S
C777 H780 0.999 . S
C778 H748 0.950 . S
C778 C777 1.524 . S
C778 C779 1.415 . S
C779 H749 0.950 . S
C779 C774 1.363 . S
C779 C778 1.415 . S
H780 C777 0.999 . S
H781 C762 0.913 . S
H782 C800 0.951 . S
H783 C802 0.951 . S
H784 C804 0.950 . S
H785 C805 0.950 . S
H786 C807 0.950 . S
H787 C810 0.950 . S
H788 C811 0.950 . S
H789 C813 0.950 . S
H790 C814 0.950 . S
H791 C815 0.951 . S
H792 C817 0.951 . S
H793 C819 0.950 . S
H794 C820 0.950 . S
H795 C822 0.950 . S
H796 C825 0.950 . S
H797 C826 0.950 . S
H798 C828 0.950 . S
H799 C829 0.950 . S
C800 H782 0.951 . S
C800 C801 1.366 . S
C800 C802 1.388 . S
C801 C800 1.366 . S
C801 C805 1.385 . S
C802 H783 0.951 . S
C802 C800 1.388 . S
C802 C803 1.366 . S
C803 C802 1.366 . S
C803 C804 1.414 . S
C803 C806 1.499 . S
C804 H784 0.950 . S
C804 C803 1.414 . S
C804 C805 1.374 . S
C805 H785 0.950 . S
C805 C801 1.385 . S
C805 C804 1.374 . S
C806 C803 1.499 . S
C806 C807 1.373 . S
C806 C808 1.389 . S
C807 H786 0.950 . S
C807 C806 1.373 . S
C807 C823 1.377 . S
C808 C806 1.389 . S
C808 C809 1.524 . S
C808 C822 1.377 . S
C809 C808 1.524 . S
C809 C810 1.397 . S
C809 C814 1.363 . S
C810 H787 0.950 . S
C810 C809 1.397 . S
C810 C811 1.334 . S
C811 H788 0.950 . S
C811 C810 1.334 . S
C811 C812 1.287 . S
C812 C811 1.287 . S
C812 C813 1.524 . S
C812 H831 0.913 . S
C813 H789 0.950 . S
C813 C812 1.524 . S
C813 C814 1.415 . S
C814 H790 0.950 . S
C814 C809 1.363 . S
C814 C813 1.415 . S
C815 H791 0.951 . S
C815 C816 1.366 . S
C815 C817 1.388 . S
C816 C815 1.366 . S
C816 C820 1.385 . S
C817 H792 0.951 . S
C817 C815 1.388 . S
C817 C818 1.366 . S
C818 C817 1.366 . S
C818 C819 1.414 . S
C818 C821 1.499 . S
C819 H793 0.950 . S
C819 C818 1.414 . S
C819 C820 1.374 . S
C820 H794 0.950 . S
C820 C816 1.385 . S
C820 C819 1.374 . S
C821 C818 1.499 . S
C821 C822 1.373 . S
C821 C823 1.389 . S
C822 H795 0.950 . S
C822 C808 1.377 . S
C822 C821 1.373 . S
C823 C807 1.377 . S
C823 C821 1.389 . S
C823 C824 1.524 . S
C824 C823 1.524 . S
C824 C825 1.397 . S
C824 C829 1.363 . S
C825 H796 0.950 . S
C825 C824 1.397 . S
C825 C826 1.334 . S
C826 H797 0.950 . S
C826 C825 1.334 . S
C826 C827 1.287 . S
C827 C826 1.287 . S
C827 C828 1.524 . S
C827 H830 0.999 . S
C828 H798 0.950 . S
C828 C827 1.524 . S
C828 C829 1.415 . S
C829 H799 0.950 . S
C829 C824 1.363 . S
C829 C828 1.415 . S
H830 C827 0.999 . S
H831 C812 0.913 . S
H832 C850 0.951 . S
H833 C852 0.951 . S
H834 C854 0.950 . S
H835 C855 0.950 . S
H836 C857 0.950 . S
H837 C860 0.950 . S
H838 C861 0.950 . S
H839 C863 0.950 . S
H840 C864 0.950 . S
H841 C865 0.951 . S
H842 C867 0.951 . S
H843 C869 0.950 . S
H844 C870 0.950 . S
H845 C872 0.950 . S
H846 C875 0.950 . S
H847 C876 0.950 . S
H848 C878 0.950 . S
H849 C879 0.950 . S
C850 H832 0.951 . S
C850 C851 1.366 . S
C850 C852 1.388 . S
C851 C850 1.366 . S
C851 C855 1.385 . S
C852 H833 0.951 . S
C852 C850 1.388 . S
C852 C853 1.366 . S
C853 C852 1.366 . S
C853 C854 1.414 . S
C853 C856 1.499 . S
C854 H834 0.950 . S
C854 C853 1.414 . S
C854 C855 1.374 . S
C855 H835 0.950 . S
C855 C851 1.385 . S
C855 C854 1.374 . S
C856 C853 1.499 . S
C856 C857 1.373 . S
C856 C858 1.389 . S
C857 H836 0.950 . S
C857 C856 1.373 . S
C857 C873 1.377 . S
C858 C856 1.389 . S
C858 C859 1.524 . S
C858 C872 1.377 . S
C859 C858 1.524 . S
C859 C860 1.397 . S
C859 C864 1.363 . S
C860 H837 0.950 . S
C860 C859 1.397 . S
C860 C861 1.334 . S
C861 H838 0.950 . S
C861 C860 1.334 . S
C861 C862 1.287 . S
C862 C861 1.287 . S
C862 C863 1.524 . S
C862 H881 0.913 . S
C863 H839 0.950 . S
C863 C862 1.524 . S
C863 C864 1.415 . S
C864 H840 0.950 . S
C864 C859 1.363 . S
C864 C863 1.415 . S
C865 H841 0.951 . S
C865 C866 1.366 . S
C865 C867 1.388 . S
C866 C865 1.366 . S
C866 C870 1.385 . S
C867 H842 0.951 . S
C867 C865 1.388 . S
C867 C868 1.366 . S
C868 C867 1.366 . S
C868 C869 1.414 . S
C868 C871 1.499 . S
C869 H843 0.950 . S
C869 C868 1.414 . S
C869 C870 1.374 . S
C870 H844 0.950 . S
C870 C866 1.385 . S
C870 C869 1.374 . S
C871 C868 1.499 . S
C871 C872 1.373 . S
C871 C873 1.389 . S
C872 H845 0.950 . S
C872 C858 1.377 . S
C872 C871 1.373 . S
C873 C857 1.377 . S
C873 C871 1.389 . S
C873 C874 1.524 . S
C874 C873 1.524 . S
C874 C875 1.397 . S
C874 C879 1.363 . S
C875 H846 0.950 . S
C875 C874 1.397 . S
C875 C876 1.334 . S
C876 H847 0.950 . S
C876 C875 1.334 . S
C876 C877 1.287 . S
C877 C876 1.287 . S
C877 C878 1.524 . S
C877 H880 0.999 . S
C878 H848 0.950 . S
C878 C877 1.524 . S
C878 C879 1.415 . S
C879 H849 0.950 . S
C879 C874 1.363 . S
C879 C878 1.415 . S
H880 C877 0.999 . S
H881 C862 0.913 . S
H882 C900 0.951 . S
H883 C902 0.951 . S
H884 C904 0.950 . S
H885 C905 0.950 . S
H886 C907 0.950 . S
H887 C910 0.950 . S
H888 C911 0.950 . S
H889 C913 0.950 . S
H890 C914 0.950 . S
H891 C915 0.951 . S
H892 C917 0.951 . S
H893 C919 0.950 . S
H894 C920 0.950 . S
H895 C922 0.950 . S
H896 C925 0.950 . S
H897 C926 0.950 . S
H898 C928 0.950 . S
H899 C929 0.950 . S
C900 H882 0.951 . S
C900 C901 1.366 . S
C900 C902 1.388 . S
C901 C900 1.366 . S
C901 C905 1.385 . S
C902 H883 0.951 . S
C902 C900 1.388 . S
C902 C903 1.366 . S
C903 C902 1.366 . S
C903 C904 1.414 . S
C903 C906 1.499 . S
C904 H884 0.950 . S
C904 C903 1.414 . S
C904 C905 1.374 . S
C905 H885 0.950 . S
C905 C901 1.385 . S
C905 C904 1.374 . S
C906 C903 1.499 . S
C906 C907 1.373 . S
C906 C908 1.389 . S
C907 H886 0.950 . S
C907 C906 1.373 . S
C907 C923 1.377 . S
C908 C906 1.389 . S
C908 C909 1.524 . S
C908 C922 1.377 . S
C909 C908 1.524 . S
C909 C910 1.397 . S
C909 C914 1.363 . S
C910 H887 0.950 . S
C910 C909 1.397 . S
C910 C911 1.334 . S
C911 H888 0.950 . S
C911 C910 1.334 . S
C911 C912 1.287 . S
C912 C911 1.287 . S
C912 C913 1.524 . S
C912 H931 0.913 . S
C913 H889 0.950 . S
C913 C912 1.524 . S
C913 C914 1.415 . S
C914 H890 0.950 . S
C914 C909 1.363 . S
C914 C913 1.415 . S
C915 H891 0.951 . S
C915 C916 1.366 . S
C915 C917 1.388 . S
C916 C915 1.366 . S
C916 C920 1.385 . S
C917 H892 0.951 . S
C917 C915 1.388 . S
C917 C918 1.366 . S
C918 C917 1.366 . S
C918 C919 1.414 . S
C918 C921 1.499 . S
C919 H893 0.950 . S
C919 C918 1.414 . S
C919 C920 1.374 . S
C920 H894 0.950 . S
C920 C916 1.385 . S
C920 C919 1.374 . S
C921 C918 1.499 . S
C921 C922 1.373 . S
C921 C923 1.389 . S
C922 H895 0.950 . S
C922 C908 1.377 . S
C922 C921 1.373 . S
C923 C907 1.377 . S
C923 C921 1.389 . S
C923 C924 1.524 . S
C924 C923 1.524 . S
C924 C925 1.397 . S
C924 C929 1.363 . S
C925 H896 0.950 . S
C925 C924 1.397 . S
C925 C926 1.334 . S
C926 H897 0.950 . S
C926 C925 1.334 . S
C926 C927 1.287 . S
C927 C926 1.287 . S
C927 C928 1.524 . S
C927 H930 0.999 . S
C928 H898 0.950 . S
C928 C927 1.524 . S
C928 C929 1.415 . S
C929 H899 0.950 . S
C929 C924 1.363 . S
C929 C928 1.415 . S
H930 C927 0.999 . S
H931 C912 0.913 . S
H932 C950 0.951 . S
H933 C952 0.951 . S
H934 C954 0.950 . S
H935 C955 0.950 . S
H936 C957 0.950 . S
H937 C960 0.950 . S
H938 C961 0.950 . S
H939 C963 0.950 . S
H940 C964 0.950 . S
H941 C965 0.951 . S
H942 C967 0.951 . S
H943 C969 0.950 . S
H944 C970 0.950 . S
H945 C972 0.950 . S
H946 C975 0.950 . S
H947 C976 0.950 . S
H948 C978 0.950 . S
H949 C979 0.950 . S
C950 H932 0.951 . S
C950 C951 1.366 . S
C950 C952 1.388 . S
C951 C950 1.366 . S
C951 C955 1.385 . S
C952 H933 0.951 . S
C952 C950 1.388 . S
C952 C953 1.366 . S
C953 C952 1.366 . S
C953 C954 1.414 . S
C953 C956 1.499 . S
C954 H934 0.950 . S
C954 C953 1.414 . S
C954 C955 1.374 . S
C955 H935 0.950 . S
C955 C951 1.385 . S
C955 C954 1.374 . S
C956 C953 1.499 . S
C956 C957 1.373 . S
C956 C958 1.389 . S
C957 H936 0.950 . S
C957 C956 1.373 . S
C957 C973 1.377 . S
C958 C956 1.389 . S
C958 C959 1.524 . S
C958 C972 1.377 . S
C959 C958 1.524 . S
C959 C960 1.397 . S
C959 C964 1.363 . S
C960 H937 0.950 . S
C960 C959 1.397 . S
C960 C961 1.334 . S
C961 H938 0.950 . S
C961 C960 1.334 . S
C961 C962 1.287 . S
C962 C961 1.287 . S
C962 C963 1.524 . S
C962 H981 0.913 . S
C963 H939 0.950 . S
C963 C962 1.524 . S
C963 C964 1.415 . S
C964 H940 0.950 . S
C964 C959 1.363 . S
C964 C963 1.415 . S
C965 H941 0.951 . S
C965 C966 1.366 . S
C965 C967 1.388 . S
C966 C965 1.366 . S
C966 C970 1.385 . S
C967 H942 0.951 . S
C967 C965 1.388 . S
C967 C968 1.366 . S
C968 C967 1.366 . S
C968 C969 1.414 . S
C968 C971 1.499 . S
C969 H943 0.950 . S
C969 C968 1.414 . S
C969 C970 1.374 . S
C970 H944 0.950 . S
C970 C966 1.385 . S
C970 C969 1.374 . S
C971 C968 1.499 . S
C971 C972 1.373 . S
C971 C973 1.389 . S
C972 H945 0.950 . S
C972 C958 1.377 . S
C972 C971 1.373 . S
C973 C957 1.377 . S
C973 C971 1.389 . S
C973 C974 1.524 . S
C974 C973 1.524 . S
C974 C975 1.397 . S
C974 C979 1.363 . S
C975 H946 0.950 . S
C975 C974 1.397 . S
C975 C976 1.334 . S
C976 H947 0.950 . S
C976 C975 1.334 . S
C976 C977 1.287 . S
C977 C976 1.287 . S
C977 C978 1.524 . S
C977 H980 0.999 . S
C978 H948 0.950 . S
C978 C977 1.524 . S
C978 C979 1.415 . S
C979 H949 0.950 . S
C979 C974 1.363 . S
C979 C978 1.415 . S
H980 C977 0.999 . S
H981 C962 0.913 . S
H982 C1000 0.951 . S
H983 C1002 0.951 . S
H984 C1004 0.950 . S
H985 C1005 0.950 . S
H986 C1007 0.950 . S
H987 C1010 0.950 . S
H988 C1011 0.950 . S
H989 C1013 0.950 . S
H990 C1014 0.950 . S
H991 C1015 0.951 . S
H992 C1017 0.951 . S
H993 C1019 0.950 . S
H994 C1020 0.950 . S
H995 C1022 0.950 . S
H996 C1025 0.950 . S
H997 C1026 0.950 . S
H998 C1028 0.950 . S
H999 C1029 0.919 1_455 S
C1000 H982 0.951 . S
C1000 C1001 1.366 . S
C1000 C1002 1.388 . S
C1001 C1000 1.366 . S
C1001 C1005 1.385 . S
C1002 H983 0.951 . S
C1002 C1000 1.388 . S
C1002 C1003 1.366 . S
C1003 C1002 1.366 . S
C1003 C1004 1.414 . S
C1003 C1006 1.499 . S
C1004 H984 0.950 . S
C1004 C1003 1.414 . S
C1004 C1005 1.374 . S
C1005 H985 0.950 . S
C1005 C1001 1.385 . S
C1005 C1004 1.374 . S
C1006 C1003 1.499 . S
C1006 C1007 1.373 . S
C1006 C1008 1.389 . S
C1007 H986 0.950 . S
C1007 C1006 1.373 . S
C1007 C1023 1.377 . S
C1008 C1006 1.389 . S
C1008 C1009 1.524 . S
C1008 C1022 1.377 . S
C1009 C1008 1.524 . S
C1009 C1010 1.397 . S
C1009 C1014 1.363 . S
C1010 H987 0.950 . S
C1010 C1009 1.397 . S
C1010 C1011 1.334 . S
C1011 H988 0.950 . S
C1011 C1010 1.334 . S
C1011 C1012 1.287 . S
C1012 C1011 1.287 . S
C1012 C1013 1.524 . S
C1012 H1031 0.913 . S
C1013 H989 0.950 . S
C1013 C1012 1.524 . S
C1013 C1014 1.415 . S
C1014 H990 0.950 . S
C1014 C1009 1.363 . S
C1014 C1013 1.415 . S
C1015 H991 0.951 . S
C1015 C1016 1.366 . S
C1015 C1017 1.388 . S
C1016 C1015 1.366 . S
C1016 C1020 1.385 . S
C1017 H992 0.951 . S
C1017 C1015 1.388 . S
C1017 C1018 1.366 . S
C1018 C1017 1.366 . S
C1018 C1019 1.414 . S
C1018 C1021 1.499 . S
C1019 H993 0.950 . S
C1019 C1018 1.414 . S
C1019 C1020 1.374 . S
C1020 H994 0.950 . S
C1020 C1016 1.385 . S
C1020 C1019 1.374 . S
C1021 C1018 1.499 . S
C1021 C1022 1.373 . S
C1021 C1023 1.389 . S
C1022 H995 0.950 . S
C1022 C1008 1.377 . S
C1022 C1021 1.373 . S
C1023 C1007 1.377 . S
C1023 C1021 1.389 . S
C1023 C1024 1.524 . S
C1024 C1023 1.524 . S
C1024 C1025 1.397 1_455 S
C1024 C1029 1.363 1_455 S
C1025 H996 0.950 . S
C1025 C1024 1.397 1_655 S
C1025 C1026 1.334 . S
C1026 H997 0.950 . S
C1026 C1025 1.334 . S
C1026 C1027 1.287 . S
C1027 C1026 1.287 . S
C1027 C1028 1.524 . S
C1027 H1030 0.999 . S
C1028 H998 0.950 . S
C1028 C1027 1.524 . S
C1028 C1029 1.415 . S
C1029 H999 0.919 1_655 S
C1029 C1024 1.363 1_655 S
C1029 C1028 1.415 . S
H1030 C1027 0.999 . S
H1031 C1012 0.913 . S
H1032 C1050 0.951 . S
H1033 C1052 0.951 . S
H1034 C1054 0.950 . S
H1035 C1055 0.950 . S
H1036 C1057 0.950 . S
H1037 C1060 0.950 . S
H1038 C1061 0.950 . S
H1039 C1063 0.950 . S
H1040 C1064 0.950 . S
H1041 C1065 0.951 . S
H1042 C1067 0.951 . S
H1043 C1069 0.950 . S
H1044 C1070 0.950 . S
H1045 C1072 0.950 . S
H1046 C1075 0.950 . S
H1047 C1076 0.950 . S
H1048 C1078 0.950 . S
H1049 C1079 0.950 . S
C1050 H1032 0.951 . S
C1050 C1051 1.366 . S
C1050 C1052 1.388 . S
C1051 C1050 1.366 . S
C1051 C1055 1.385 . S
C1052 H1033 0.951 . S
C1052 C1050 1.388 . S
C1052 C1053 1.366 . S
C1053 C1052 1.366 . S
C1053 C1054 1.414 . S
C1053 C1056 1.499 . S
C1054 H1034 0.950 . S
C1054 C1053 1.414 . S
C1054 C1055 1.374 . S
C1055 H1035 0.950 . S
C1055 C1051 1.385 . S
C1055 C1054 1.374 . S
C1056 C1053 1.499 . S
C1056 C1057 1.373 . S
C1056 C1058 1.389 . S
C1057 H1036 0.950 . S
C1057 C1056 1.373 . S
C1057 C1073 1.377 . S
C1058 C1056 1.389 . S
C1058 C1059 1.524 . S
C1058 C1072 1.377 . S
C1059 C1058 1.524 . S
C1059 C1060 1.397 . S
C1059 C1064 1.363 . S
C1060 H1037 0.950 . S
C1060 C1059 1.397 . S
C1060 C1061 1.334 . S
C1061 H1038 0.950 . S
C1061 C1060 1.334 . S
C1061 C1062 1.287 . S
C1062 C1061 1.287 . S
C1062 C1063 1.524 . S
C1062 H1081 0.913 . S
C1063 H1039 0.950 . S
C1063 C1062 1.524 . S
C1063 C1064 1.415 . S
C1064 H1040 0.950 . S
C1064 C1059 1.363 . S
C1064 C1063 1.415 . S
C1065 H1041 0.951 . S
C1065 C1066 1.366 . S
C1065 C1067 1.388 . S
C1066 C1065 1.366 . S
C1066 C1070 1.385 . S
C1067 H1042 0.951 . S
C1067 C1065 1.388 . S
C1067 C1068 1.366 . S
C1068 C1067 1.366 . S
C1068 C1069 1.414 . S
C1068 C1071 1.499 . S
C1069 H1043 0.950 . S
C1069 C1068 1.414 . S
C1069 C1070 1.374 . S
C1070 H1044 0.950 . S
C1070 C1066 1.385 . S
C1070 C1069 1.374 . S
C1071 C1068 1.499 . S
C1071 C1072 1.373 . S
C1071 C1073 1.389 . S
C1072 H1045 0.950 . S
C1072 C1058 1.377 . S
C1072 C1071 1.373 . S
C1073 C1057 1.377 . S
C1073 C1071 1.389 . S
C1073 C1074 1.524 . S
C1074 C1073 1.524 . S
C1074 C1075 1.397 . S
C1074 C1079 1.363 . S
C1075 H1046 0.950 . S
C1075 C1074 1.397 . S
C1075 C1076 1.334 . S
C1076 H1047 0.950 . S
C1076 C1075 1.334 . S
C1076 C1077 1.287 . S
C1077 C1076 1.287 . S
C1077 C1078 1.524 . S
C1077 H1080 0.999 . S
C1078 H1048 0.950 . S
C1078 C1077 1.524 . S
C1078 C1079 1.415 . S
C1079 H1049 0.950 . S
C1079 C1074 1.363 . S
C1079 C1078 1.415 . S
H1080 C1077 0.999 . S
H1081 C1062 0.913 . S
H1082 C1100 0.951 . S
H1083 C1102 0.951 . S
H1084 C1104 0.950 . S
H1085 C1105 0.950 . S
H1086 C1107 0.950 . S
H1087 C1110 0.973 . S
H1088 C1111 0.950 . S
H1089 C1113 0.950 . S
H1090 C1114 0.950 . S
H1091 C1115 0.951 . S
H1092 C1117 0.951 . S
H1093 C1119 0.950 . S
H1094 C1120 0.950 . S
H1095 C1122 0.950 . S
H1096 C1125 0.950 1_455 S
H1097 C1126 0.950 . S
H1098 C1128 0.950 . S
H1099 C1129 0.950 . S
C1100 H1082 0.951 . S
C1100 C1101 1.366 1_455 S
C1100 C1102 1.388 . S
C1101 C1100 1.366 1_655 S
C1101 C1105 1.385 . S
C1102 H1083 0.951 . S
C1102 C1100 1.388 . S
C1102 C1103 1.366 1_455 S
C1103 C1102 1.366 1_655 S
C1103 C1104 1.414 . S
C1103 C1106 1.499 . S
C1104 H1084 0.950 . S
C1104 C1103 1.414 . S
C1104 C1105 1.374 . S
C1105 H1085 0.950 . S
C1105 C1101 1.385 . S
C1105 C1104 1.374 . S
C1106 C1103 1.499 . S
C1106 C1107 1.373 . S
C1106 C1108 1.389 1_655 S
C1107 H1086 0.950 . S
C1107 C1106 1.373 . S
C1107 C1123 1.377 . S
C1108 C1106 1.389 1_455 S
C1108 C1109 1.524 . S
C1108 C1122 1.377 . S
C1109 C1108 1.524 . S
C1109 C1110 1.397 . S
C1109 C1114 1.363 . S
C1110 H1087 0.973 . S
C1110 C1109 1.397 . S
C1110 C1111 1.334 . S
C1111 H1088 0.950 . S
C1111 C1110 1.334 . S
C1111 C1112 1.287 . S
C1112 C1111 1.287 . S
C1112 C1113 1.524 . S
C1112 H1131 0.913 . S
C1113 H1089 0.950 . S
C1113 C1112 1.524 . S
C1113 C1114 1.415 . S
C1114 H1090 0.950 . S
C1114 C1109 1.363 . S
C1114 C1113 1.415 . S
C1115 H1091 0.951 . S
C1115 C1116 1.366 1_655 S
C1115 C1117 1.388 . S
C1116 C1115 1.366 1_455 S
C1116 C1120 1.385 . S
C1117 H1092 0.951 . S
C1117 C1115 1.388 . S
C1117 C1118 1.366 1_655 S
C1118 C1117 1.366 1_455 S
C1118 C1119 1.414 . S
C1118 C1121 1.499 . S
C1119 H1093 0.950 . S
C1119 C1118 1.414 . S
C1119 C1120 1.374 . S
C1120 H1094 0.950 . S
C1120 C1116 1.385 . S
C1120 C1119 1.374 . S
C1121 C1118 1.499 . S
C1121 C1122 1.373 . S
C1121 C1123 1.389 1_455 S
C1122 H1095 0.950 . S
C1122 C1108 1.377 . S
C1122 C1121 1.373 . S
C1123 C1107 1.377 . S
C1123 C1121 1.389 1_655 S
C1123 C1124 1.524 . S
C1124 C1123 1.524 . S
C1124 C1125 1.397 . S
C1124 C1129 1.363 . S
C1125 H1096 0.950 1_655 S
C1125 C1124 1.397 . S
C1125 C1126 1.334 . S
C1126 H1097 0.950 . S
C1126 C1125 1.334 . S
C1126 C1127 1.287 . S
C1127 C1126 1.287 . S
C1127 C1128 1.524 . S
C1127 H1130 0.999 . S
C1128 H1098 0.950 . S
C1128 C1127 1.524 . S
C1128 C1129 1.415 . S
C1129 H1099 0.950 . S
C1129 C1124 1.363 . S
C1129 C1128 1.415 . S
H1130 C1127 0.999 . S
H1131 C1112 0.913 . S
H1132 C1150 0.951 . S
H1133 C1152 0.951 . S
H1134 C1154 0.950 . S
H1135 C1155 0.950 . S
H1136 C1157 0.950 . S
H1137 C1160 0.950 . S
H1138 C1161 0.950 . S
H1139 C1163 0.950 . S
H1140 C1164 0.950 . S
H1141 C1165 0.951 . S
H1142 C1167 0.951 . S
H1143 C1169 0.950 . S
H1144 C1170 0.950 . S
H1145 C1172 0.950 . S
H1146 C1175 0.950 . S
H1147 C1176 0.950 . S
H1148 C1178 0.950 . S
H1149 C1179 0.950 . S
C1150 H1132 0.951 . S
C1150 C1151 1.366 . S
C1150 C1152 1.388 . S
C1151 C1150 1.366 . S
C1151 C1155 1.385 . S
C1152 H1133 0.951 . S
C1152 C1150 1.388 . S
C1152 C1153 1.366 . S
C1153 C1152 1.366 . S
C1153 C1154 1.414 . S
C1153 C1156 1.499 . S
C1154 H1134 0.950 . S
C1154 C1153 1.414 . S
C1154 C1155 1.374 . S
C1155 H1135 0.950 . S
C1155 C1151 1.385 . S
C1155 C1154 1.374 . S
C1156 C1153 1.499 . S
C1156 C1157 1.373 . S
C1156 C1158 1.389 . S
C1157 H1136 0.950 . S
C1157 C1156 1.373 . S
C1157 C1173 1.377 . S
C1158 C1156 1.389 . S
C1158 C1159 1.524 . S
C1158 C1172 1.377 . S
C1159 C1158 1.524 . S
C1159 C1160 1.397 . S
C1159 C1164 1.363 . S
C1160 H1137 0.950 . S
C1160 C1159 1.397 . S
C1160 C1161 1.334 . S
C1161 H1138 0.950 . S
C1161 C1160 1.334 . S
C1161 C1162 1.287 . S
C1162 C1161 1.287 . S
C1162 C1163 1.524 . S
C1162 H1181 0.913 . S
C1163 H1139 0.950 . S
C1163 C1162 1.524 . S
C1163 C1164 1.415 . S
C1164 H1140 0.950 . S
C1164 C1159 1.363 . S
C1164 C1163 1.415 . S
C1165 H1141 0.951 . S
C1165 C1166 1.366 . S
C1165 C1167 1.388 . S
C1166 C1165 1.366 . S
C1166 C1170 1.385 . S
C1167 H1142 0.951 . S
C1167 C1165 1.388 . S
C1167 C1168 1.366 . S
C1168 C1167 1.366 . S
C1168 C1169 1.414 . S
C1168 C1171 1.499 . S
C1169 H1143 0.950 . S
C1169 C1168 1.414 . S
C1169 C1170 1.374 . S
C1170 H1144 0.950 . S
C1170 C1166 1.385 . S
C1170 C1169 1.374 . S
C1171 C1168 1.499 . S
C1171 C1172 1.373 . S
C1171 C1173 1.389 . S
C1172 H1145 0.950 . S
C1172 C1158 1.377 . S
C1172 C1171 1.373 . S
C1173 C1157 1.377 . S
C1173 C1171 1.389 . S
C1173 C1174 1.524 . S
C1174 C1173 1.524 . S
C1174 C1175 1.397 . S
C1174 C1179 1.363 . S
C1175 H1146 0.950 . S
C1175 C1174 1.397 . S
C1175 C1176 1.334 . S
C1176 H1147 0.950 . S
C1176 C1175 1.334 . S
C1176 C1177 1.287 . S
C1177 C1176 1.287 . S
C1177 C1178 1.524 . S
C1177 H1180 0.999 . S
C1178 H1148 0.950 . S
C1178 C1177 1.524 . S
C1178 C1179 1.415 . S
C1179 H1149 0.950 . S
C1179 C1174 1.363 . S
C1179 C1178 1.415 . S
H1180 C1177 0.999 . S
H1181 C1162 0.913 . S
H1182 C1200 0.951 . S
H1183 C1202 0.951 . S
H1184 C1204 0.950 . S
H1185 C1205 0.950 . S
H1186 C1207 0.950 . S
H1187 C1210 0.950 . S
H1188 C1211 0.950 . S
H1189 C1213 0.950 . S
H1190 C1214 0.950 . S
H1191 C1215 0.951 . S
H1192 C1217 0.951 . S
H1193 C1219 0.950 . S
H1194 C1220 0.950 . S
H1195 C1222 0.950 . S
H1196 C1225 0.950 . S
H1197 C1226 0.950 . S
H1198 C1228 0.950 . S
H1199 C1229 0.950 . S
C1200 H1182 0.951 . S
C1200 C1201 1.366 . S
C1200 C1202 1.388 . S
C1201 C1200 1.366 . S
C1201 C1205 1.385 . S
C1202 H1183 0.951 . S
C1202 C1200 1.388 . S
C1202 C1203 1.366 . S
C1203 C1202 1.366 . S
C1203 C1204 1.414 . S
C1203 C1206 1.499 . S
C1204 H1184 0.950 . S
C1204 C1203 1.414 . S
C1204 C1205 1.374 . S
C1205 H1185 0.950 . S
C1205 C1201 1.385 . S
C1205 C1204 1.374 . S
C1206 C1203 1.499 . S
C1206 C1207 1.373 . S
C1206 C1208 1.389 . S
C1207 H1186 0.950 . S
C1207 C1206 1.373 . S
C1207 C1223 1.377 . S
C1208 C1206 1.389 . S
C1208 C1209 1.524 . S
C1208 C1222 1.377 . S
C1209 C1208 1.524 . S
C1209 C1210 1.397 . S
C1209 C1214 1.363 . S
C1210 H1187 0.950 . S
C1210 C1209 1.397 . S
C1210 C1211 1.334 . S
C1211 H1188 0.950 . S
C1211 C1210 1.334 . S
C1211 C1212 1.287 . S
C1212 C1211 1.287 . S
C1212 C1213 1.524 . S
C1212 H1231 0.913 . S
C1213 H1189 0.950 . S
C1213 C1212 1.524 . S
C1213 C1214 1.415 . S
C1214 H1190 0.950 . S
C1214 C1209 1.363 . S
C1214 C1213 1.415 . S
C1215 H1191 0.951 . S
C1215 C1216 1.366 . S
C1215 C1217 1.388 . S
C1216 C1215 1.366 . S
C1216 C1220 1.385 . S
C1217 H1192 0.951 . S
C1217 C1215 1.388 . S
C1217 C1218 1.366 . S
C1218 C1217 1.366 . S
C1218 C1219 1.414 . S
C1218 C1221 1.499 . S
C1219 H1193 0.950 . S
C1219 C1218 1.414 . S
C1219 C1220 1.374 . S
C1220 H1194 0.950 . S
C1220 C1216 1.385 . S
C1220 C1219 1.374 . S
C1221 C1218 1.499 . S
C1221 C1222 1.373 . S
C1221 C1223 1.389 . S
C1222 H1195 0.950 . S
C1222 C1208 1.377 . S
C1222 C1221 1.373 . S
C1223 C1207 1.377 . S
C1223 C1221 1.389 . S
C1223 C1224 1.524 . S
C1224 C1223 1.524 . S
C1224 C1225 1.397 . S
C1224 C1229 1.363 . S
C1225 H1196 0.950 . S
C1225 C1224 1.397 . S
C1225 C1226 1.334 . S
C1226 H1197 0.950 . S
C1226 C1225 1.334 . S
C1226 C1227 1.287 . S
C1227 C1226 1.287 . S
C1227 C1228 1.524 . S
C1227 H1230 0.999 . S
C1228 H1198 0.950 . S
C1228 C1227 1.524 . S
C1228 C1229 1.415 . S
C1229 H1199 0.950 . S
C1229 C1224 1.363 . S
C1229 C1228 1.415 . S
H1230 C1227 0.999 . S
H1231 C1212 0.913 . S
H1232 C1250 0.962 . S
H1233 C1252 0.949 1_556 S
H1234 C1254 0.950 . S
H1235 C1255 0.950 . S
H1236 C1257 0.950 . S
H1237 C1260 0.950 . S
H1238 C1261 0.950 . S
H1239 C1263 0.950 . S
H1240 C1264 0.950 . S
H1241 C1265 0.951 . S
H1242 C1267 0.951 . S
H1243 C1269 0.950 . S
H1244 C1270 0.950 . S
H1245 C1272 0.950 . S
H1246 C1275 0.950 . S
H1247 C1276 0.950 . S
H1248 C1278 0.950 . S
H1249 C1279 0.950 . S
C1250 H1232 0.962 . S
C1250 C1251 1.364 1_546 S
C1250 C1252 1.381 1_546 S
C1251 C1250 1.364 1_564 S
C1251 C1255 1.385 . S
C1252 H1233 0.949 1_554 S
C1252 C1250 1.381 1_564 S
C1252 C1253 1.366 . S
C1253 C1252 1.366 . S
C1253 C1254 1.414 . S
C1253 C1256 1.499 . S
C1254 H1234 0.950 . S
C1254 C1253 1.414 . S
C1254 C1255 1.374 . S
C1255 H1235 0.950 . S
C1255 C1251 1.385 . S
C1255 C1254 1.374 . S
C1256 C1253 1.499 . S
C1256 C1257 1.373 1_554 S
C1256 C1258 1.389 . S
C1257 H1236 0.950 . S
C1257 C1256 1.373 1_556 S
C1257 C1273 1.377 . S
C1258 C1256 1.389 . S
C1258 C1259 1.524 . S
C1258 C1272 1.377 . S
C1259 C1258 1.524 . S
C1259 C1260 1.397 . S
C1259 C1264 1.363 . S
C1260 H1237 0.950 . S
C1260 C1259 1.397 . S
C1260 C1261 1.334 1_565 S
C1261 H1238 0.950 . S
C1261 C1260 1.334 1_545 S
C1261 C1262 1.287 . S
C1262 C1261 1.287 . S
C1262 C1263 1.524 . S
C1262 H1281 0.913 . S
C1263 H1239 0.950 . S
C1263 C1262 1.524 . S
C1263 C1264 1.415 1_545 S
C1264 H1240 0.950 . S
C1264 C1259 1.363 . S
C1264 C1263 1.415 1_565 S
C1265 H1241 0.951 . S
C1265 C1266 1.366 . S
C1265 C1267 1.388 . S
C1266 C1265 1.366 . S
C1266 C1270 1.385 . S
C1267 H1242 0.951 . S
C1267 C1265 1.388 . S
C1267 C1268 1.366 . S
C1268 C1267 1.366 . S
C1268 C1269 1.414 . S
C1268 C1271 1.499 . S
C1269 H1243 0.950 . S
C1269 C1268 1.414 . S
C1269 C1270 1.374 . S
C1270 H1244 0.950 . S
C1270 C1266 1.385 . S
C1270 C1269 1.374 . S
C1271 C1268 1.499 . S
C1271 C1272 1.373 . S
C1271 C1273 1.389 1_554 S
C1272 H1245 0.950 . S
C1272 C1258 1.377 . S
C1272 C1271 1.373 . S
C1273 C1257 1.377 . S
C1273 C1271 1.389 1_556 S
C1273 C1274 1.524 . S
C1274 C1273 1.524 . S
C1274 C1275 1.397 . S
C1274 C1279 1.363 . S
C1275 H1246 0.950 . S
C1275 C1274 1.397 . S
C1275 C1276 1.334 . S
C1276 H1247 0.950 . S
C1276 C1275 1.334 . S
C1276 C1277 1.287 . S
C1277 C1276 1.287 . S
C1277 C1278 1.524 . S
C1277 H1280 0.999 . S
C1278 H1248 0.950 . S
C1278 C1277 1.524 . S
C1278 C1279 1.415 . S
C1279 H1249 0.950 . S
C1279 C1274 1.363 . S
C1279 C1278 1.415 . S
H1280 C1277 0.999 . S
H1281 C1262 0.913 . S
H1282 C1300 0.951 . S
H1283 C1302 0.951 . S
H1284 C1304 0.950 . S
H1285 C1305 0.950 . S
H1286 C1307 0.950 . S
H1287 C1310 0.950 . S
H1288 C1311 0.950 . S
H1289 C1313 0.950 . S
H1290 C1314 0.950 . S
H1291 C1315 0.951 . S
H1292 C1317 0.951 . S
H1293 C1319 0.950 . S
H1294 C1320 0.950 . S
H1295 C1322 0.950 . S
H1296 C1325 0.950 . S
H1297 C1326 0.950 . S
H1298 C1328 0.950 . S
H1299 C1329 0.950 . S
C1300 H1282 0.951 . S
C1300 C1301 1.366 . S
C1300 C1302 1.388 . S
C1301 C1300 1.366 . S
C1301 C1305 1.385 . S
C1302 H1283 0.951 . S
C1302 C1300 1.388 . S
C1302 C1303 1.366 . S
C1303 C1302 1.366 . S
C1303 C1304 1.414 . S
C1303 C1306 1.499 . S
C1304 H1284 0.950 . S
C1304 C1303 1.414 . S
C1304 C1305 1.374 . S
C1305 H1285 0.950 . S
C1305 C1301 1.385 . S
C1305 C1304 1.374 . S
C1306 C1303 1.499 . S
C1306 C1307 1.373 . S
C1306 C1308 1.389 . S
C1307 H1286 0.950 . S
C1307 C1306 1.373 . S
C1307 C1323 1.377 . S
C1308 C1306 1.389 . S
C1308 C1309 1.524 . S
C1308 C1322 1.377 . S
C1309 C1308 1.524 . S
C1309 C1310 1.397 . S
C1309 C1314 1.363 . S
C1310 H1287 0.950 . S
C1310 C1309 1.397 . S
C1310 C1311 1.334 . S
C1311 H1288 0.950 . S
C1311 C1310 1.334 . S
C1311 C1312 1.287 . S
C1312 C1311 1.287 . S
C1312 C1313 1.524 . S
C1312 H1331 0.913 . S
C1313 H1289 0.950 . S
C1313 C1312 1.524 . S
C1313 C1314 1.415 . S
C1314 H1290 0.950 . S
C1314 C1309 1.363 . S
C1314 C1313 1.415 . S
C1315 H1291 0.951 . S
C1315 C1316 1.366 . S
C1315 C1317 1.388 . S
C1316 C1315 1.366 . S
C1316 C1320 1.385 . S
C1317 H1292 0.951 . S
C1317 C1315 1.388 . S
C1317 C1318 1.366 . S
C1318 C1317 1.366 . S
C1318 C1319 1.414 . S
C1318 C1321 1.499 . S
C1319 H1293 0.950 . S
C1319 C1318 1.414 . S
C1319 C1320 1.374 . S
C1320 H1294 0.950 . S
C1320 C1316 1.385 . S
C1320 C1319 1.374 . S
C1321 C1318 1.499 . S
C1321 C1322 1.373 . S
C1321 C1323 1.389 . S
C1322 H1295 0.950 . S
C1322 C1308 1.377 . S
C1322 C1321 1.373 . S
C1323 C1307 1.377 . S
C1323 C1321 1.389 . S
C1323 C1324 1.524 . S
C1324 C1323 1.524 . S
C1324 C1325 1.397 . S
C1324 C1329 1.363 . S
C1325 H1296 0.950 . S
C1325 C1324 1.397 . S
C1325 C1326 1.334 . S
C1326 H1297 0.950 . S
C1326 C1325 1.334 . S
C1326 C1327 1.287 . S
C1327 C1326 1.287 . S
C1327 C1328 1.524 . S
C1327 H1330 0.999 . S
C1328 H1298 0.950 . S
C1328 C1327 1.524 . S
C1328 C1329 1.415 . S
C1329 H1299 0.950 . S
C1329 C1324 1.363 . S
C1329 C1328 1.415 . S
H1330 C1327 0.999 . S
H1331 C1312 0.913 . S
H1332 C1350 0.951 . S
H1333 C1352 0.951 . S
H1334 C1354 0.950 . S
H1335 C1355 0.950 1_565 S
H1336 C1357 0.950 . S
H1337 C1360 0.950 . S
H1338 C1361 0.950 . S
H1339 C1363 0.950 . S
H1340 C1364 0.950 . S
H1341 C1365 0.951 . S
H1342 C1367 0.951 . S
H1343 C1369 0.950 . S
H1344 C1370 0.950 . S
H1345 C1372 0.950 . S
H1346 C1375 0.950 . S
H1347 C1376 0.950 . S
H1348 C1378 0.950 . S
H1349 C1379 0.950 . S
C1350 H1332 0.951 . S
C1350 C1351 1.366 . S
C1350 C1352 1.388 . S
C1351 C1350 1.366 . S
C1351 C1355 1.385 . S
C1352 H1333 0.951 . S
C1352 C1350 1.388 . S
C1352 C1353 1.366 . S
C1353 C1352 1.366 . S
C1353 C1354 1.414 . S
C1353 C1356 1.499 . S
C1354 H1334 0.950 . S
C1354 C1353 1.414 . S
C1354 C1355 1.374 . S
C1355 H1335 0.950 1_545 S
C1355 C1351 1.385 . S
C1355 C1354 1.374 . S
C1356 C1353 1.499 . S
C1356 C1357 1.373 . S
C1356 C1358 1.389 . S
C1357 H1336 0.950 . S
C1357 C1356 1.373 . S
C1357 C1373 1.377 . S
C1358 C1356 1.389 . S
C1358 C1359 1.524 . S
C1358 C1372 1.377 . S
C1359 C1358 1.524 . S
C1359 C1360 1.397 . S
C1359 C1364 1.363 . S
C1360 H1337 0.950 . S
C1360 C1359 1.397 . S
C1360 C1361 1.334 . S
C1361 H1338 0.950 . S
C1361 C1360 1.334 . S
C1361 C1362 1.287 . S
C1362 C1361 1.287 . S
C1362 C1363 1.524 . S
C1362 H1381 0.913 . S
C1363 H1339 0.950 . S
C1363 C1362 1.524 . S
C1363 C1364 1.415 . S
C1364 H1340 0.950 . S
C1364 C1359 1.363 . S
C1364 C1363 1.415 . S
C1365 H1341 0.951 . S
C1365 C1366 1.366 . S
C1365 C1367 1.388 . S
C1366 C1365 1.366 . S
C1366 C1370 1.385 . S
C1367 H1342 0.951 . S
C1367 C1365 1.388 . S
C1367 C1368 1.366 . S
C1368 C1367 1.366 . S
C1368 C1369 1.414 . S
C1368 C1371 1.499 . S
C1369 H1343 0.950 . S
C1369 C1368 1.414 . S
C1369 C1370 1.374 . S
C1370 H1344 0.950 . S
C1370 C1366 1.385 . S
C1370 C1369 1.374 . S
C1371 C1368 1.499 . S
C1371 C1372 1.373 . S
C1371 C1373 1.389 . S
C1372 H1345 0.950 . S
C1372 C1358 1.377 . S
C1372 C1371 1.373 . S
C1373 C1357 1.377 . S
C1373 C1371 1.389 . S
C1373 C1374 1.524 . S
C1374 C1373 1.524 . S
C1374 C1375 1.397 . S
C1374 C1379 1.363 . S
C1375 H1346 0.950 . S
C1375 C1374 1.397 . S
C1375 C1376 1.334 . S
C1376 H1347 0.950 . S
C1376 C1375 1.334 . S
C1376 C1377 1.287 . S
C1377 C1376 1.287 . S
C1377 C1378 1.524 . S
C1377 H1380 0.999 . S
C1378 H1348 0.950 . S
C1378 C1377 1.524 . S
C1378 C1379 1.415 . S
C1379 H1349 0.950 . S
C1379 C1374 1.363 . S
C1379 C1378 1.415 . S
H1380 C1377 0.999 . S
H1381 C1362 0.913 . S
H1382 C1400 0.951 . S
H1383 C1402 0.951 . S
H1384 C1404 0.950 . S
H1385 C1405 0.950 . S
H1386 C1407 0.950 . S
H1387 C1410 0.950 . S
H1388 C1411 0.950 . S
H1389 C1413 0.950 . S
H1390 C1414 0.950 . S
H1391 C1415 0.951 . S
H1392 C1417 0.951 . S
H1393 C1419 0.950 . S
H1394 C1420 0.950 . S
H1395 C1422 0.950 . S
H1396 C1425 0.950 . S
H1397 C1426 0.950 . S
H1398 C1428 0.950 . S
H1399 C1429 0.950 . S
C1400 H1382 0.951 . S
C1400 C1401 1.366 . S
C1400 C1402 1.388 . S
C1401 C1400 1.366 . S
C1401 C1405 1.385 . S
C1402 H1383 0.951 . S
C1402 C1400 1.388 . S
C1402 C1403 1.366 . S
C1403 C1402 1.366 . S
C1403 C1404 1.414 . S
C1403 C1406 1.499 . S
C1404 H1384 0.950 . S
C1404 C1403 1.414 . S
C1404 C1405 1.374 . S
C1405 H1385 0.950 . S
C1405 C1401 1.385 . S
C1405 C1404 1.374 . S
C1406 C1403 1.499 . S
C1406 C1407 1.373 . S
C1406 C1408 1.389 . S
C1407 H1386 0.950 . S
C1407 C1406 1.373 . S
C1407 C1423 1.377 . S
C1408 C1406 1.389 . S
C1408 C1409 1.524 . S
C1408 C1422 1.377 . S
C1409 C1408 1.524 . S
C1409 C1410 1.397 . S
C1409 C1414 1.363 . S
C1410 H1387 0.950 . S
C1410 C1409 1.397 . S
C1410 C1411 1.334 . S
C1411 H1388 0.950 . S
C1411 C1410 1.334 . S
C1411 C1412 1.287 . S
C1412 C1411 1.287 . S
C1412 C1413 1.524 . S
C1412 H1431 0.913 . S
C1413 H1389 0.950 . S
C1413 C1412 1.524 . S
C1413 C1414 1.415 . S
C1414 H1390 0.950 . S
C1414 C1409 1.363 . S
C1414 C1413 1.415 . S
C1415 H1391 0.951 . S
C1415 C1416 1.366 . S
C1415 C1417 1.388 . S
C1416 C1415 1.366 . S
C1416 C1420 1.385 . S
C1417 H1392 0.951 . S
C1417 C1415 1.388 . S
C1417 C1418 1.366 . S
C1418 C1417 1.366 . S
C1418 C1419 1.414 . S
C1418 C1421 1.499 . S
C1419 H1393 0.950 . S
C1419 C1418 1.414 . S
C1419 C1420 1.374 . S
C1420 H1394 0.950 . S
C1420 C1416 1.385 . S
C1420 C1419 1.374 . S
C1421 C1418 1.499 . S
C1421 C1422 1.373 . S
C1421 C1423 1.389 . S
C1422 H1395 0.950 . S
C1422 C1408 1.377 . S
C1422 C1421 1.373 . S
C1423 C1407 1.377 . S
C1423 C1421 1.389 . S
C1423 C1424 1.524 . S
C1424 C1423 1.524 . S
C1424 C1425 1.397 . S
C1424 C1429 1.363 . S
C1425 H1396 0.950 . S
C1425 C1424 1.397 . S
C1425 C1426 1.334 . S
C1426 H1397 0.950 . S
C1426 C1425 1.334 . S
C1426 C1427 1.287 . S
C1427 C1426 1.287 . S
C1427 C1428 1.524 . S
C1427 H1430 0.999 . S
C1428 H1398 0.950 . S
C1428 C1427 1.524 . S
C1428 C1429 1.415 . S
C1429 H1399 0.950 . S
C1429 C1424 1.363 . S
C1429 C1428 1.415 . S
H1430 C1427 0.999 . S
H1431 C1412 0.913 . S
H1432 C1450 0.951 . S
H1433 C1452 0.951 . S
H1434 C1454 0.950 . S
H1435 C1455 0.950 . S
H1436 C1457 0.950 . S
H1437 C1460 0.950 . S
H1438 C1461 0.950 . S
H1439 C1463 0.950 . S
H1440 C1464 0.950 . S
H1441 C1465 0.951 . S
H1442 C1467 0.951 . S
H1443 C1469 0.950 . S
H1444 C1470 0.950 . S
H1445 C1472 0.950 . S
H1446 C1475 0.950 . S
H1447 C1476 0.950 . S
H1448 C1478 0.950 . S
H1449 C1479 0.950 . S
C1450 H1432 0.951 . S
C1450 C1451 1.366 . S
C1450 C1452 1.388 . S
C1451 C1450 1.366 . S
C1451 C1455 1.385 . S
C1452 H1433 0.951 . S
C1452 C1450 1.388 . S
C1452 C1453 1.366 . S
C1453 C1452 1.366 . S
C1453 C1454 1.414 . S
C1453 C1456 1.499 . S
C1454 H1434 0.950 . S
C1454 C1453 1.414 . S
C1454 C1455 1.374 . S
C1455 H1435 0.950 . S
C1455 C1451 1.385 . S
C1455 C1454 1.374 . S
C1456 C1453 1.499 . S
C1456 C1457 1.373 . S
C1456 C1458 1.389 . S
C1457 H1436 0.950 . S
C1457 C1456 1.373 . S
C1457 C1473 1.377 . S
C1458 C1456 1.389 . S
C1458 C1459 1.524 . S
C1458 C1472 1.377 . S
C1459 C1458 1.524 . S
C1459 C1460 1.397 . S
C1459 C1464 1.363 . S
C1460 H1437 0.950 . S
C1460 C1459 1.397 . S
C1460 C1461 1.334 . S
C1461 H1438 0.950 . S
C1461 C1460 1.334 . S
C1461 C1462 1.287 . S
C1462 C1461 1.287 . S
C1462 C1463 1.524 . S
C1462 H1481 0.913 . S
C1463 H1439 0.950 . S
C1463 C1462 1.524 . S
C1463 C1464 1.415 . S
C1464 H1440 0.950 . S
C1464 C1459 1.363 . S
C1464 C1463 1.415 . S
C1465 H1441 0.951 . S
C1465 C1466 1.366 . S
C1465 C1467 1.388 . S
C1466 C1465 1.366 . S
C1466 C1470 1.385 . S
C1467 H1442 0.951 . S
C1467 C1465 1.388 . S
C1467 C1468 1.366 . S
C1468 C1467 1.366 . S
C1468 C1469 1.414 . S
C1468 C1471 1.499 . S
C1469 H1443 0.950 . S
C1469 C1468 1.414 . S
C1469 C1470 1.374 . S
C1470 H1444 0.950 . S
C1470 C1466 1.385 . S
C1470 C1469 1.374 . S
C1471 C1468 1.499 . S
C1471 C1472 1.373 . S
C1471 C1473 1.389 . S
C1472 H1445 0.950 . S
C1472 C1458 1.377 . S
C1472 C1471 1.373 . S
C1473 C1457 1.377 . S
C1473 C1471 1.389 . S
C1473 C1474 1.524 . S
C1474 C1473 1.524 . S
C1474 C1475 1.397 . S
C1474 C1479 1.363 . S
C1475 H1446 0.950 . S
C1475 C1474 1.397 . S
C1475 C1476 1.334 . S
C1476 H1447 0.950 . S
C1476 C1475 1.334 . S
C1476 C1477 1.287 . S
C1477 C1476 1.287 . S
C1477 C1478 1.524 . S
C1477 H1480 0.999 . S
C1478 H1448 0.950 . S
C1478 C1477 1.524 . S
C1478 C1479 1.415 . S
C1479 H1449 0.950 . S
C1479 C1474 1.363 . S
C1479 C1478 1.415 . S
H1480 C1477 0.999 . S
H1481 C1462 0.913 . S
H1482 C1500 0.951 . S
H1483 C1502 0.951 . S
H1484 C1504 0.950 . S
H1485 C1505 0.950 . S
H1486 C1507 0.950 . S
H1487 C1510 0.950 . S
H1488 C1511 0.950 . S
H1489 C1513 0.950 . S
H1490 C1514 0.950 . S
H1491 C1515 0.951 . S
H1492 C1517 0.951 . S
H1493 C1519 0.950 . S
H1494 C1520 0.950 . S
H1495 C1522 0.950 . S
H1496 C1525 0.950 . S
H1497 C1526 0.950 . S
H1498 C1528 0.950 . S
H1499 C1529 0.950 . S
C1500 H1482 0.951 . S
C1500 C1501 1.366 . S
C1500 C1502 1.388 . S
C1501 C1500 1.366 . S
C1501 C1505 1.385 . S
C1502 H1483 0.951 . S
C1502 C1500 1.388 . S
C1502 C1503 1.366 . S
C1503 C1502 1.366 . S
C1503 C1504 1.414 . S
C1503 C1506 1.499 . S
C1504 H1484 0.950 . S
C1504 C1503 1.414 . S
C1504 C1505 1.374 . S
C1505 H1485 0.950 . S
C1505 C1501 1.385 . S
C1505 C1504 1.374 . S
C1506 C1503 1.499 . S
C1506 C1507 1.373 . S
C1506 C1508 1.389 . S
C1507 H1486 0.950 . S
C1507 C1506 1.373 . S
C1507 C1523 1.377 . S
C1508 C1506 1.389 . S
C1508 C1509 1.524 . S
C1508 C1522 1.377 . S
C1509 C1508 1.524 . S
C1509 C1510 1.397 . S
C1509 C1514 1.363 . S
C1510 H1487 0.950 . S
C1510 C1509 1.397 . S
C1510 C1511 1.334 . S
C1511 H1488 0.950 . S
C1511 C1510 1.334 . S
C1511 C1512 1.287 . S
C1512 C1511 1.287 . S
C1512 C1513 1.524 . S
C1512 H1531 0.913 . S
C1513 H1489 0.950 . S
C1513 C1512 1.524 . S
C1513 C1514 1.415 . S
C1514 H1490 0.950 . S
C1514 C1509 1.363 . S
C1514 C1513 1.415 . S
C1515 H1491 0.951 . S
C1515 C1516 1.366 . S
C1515 C1517 1.388 . S
C1516 C1515 1.366 . S
C1516 C1520 1.385 . S
C1517 H1492 0.951 . S
C1517 C1515 1.388 . S
C1517 C1518 1.366 . S
C1518 C1517 1.366 . S
C1518 C1519 1.414 . S
C1518 C1521 1.499 . S
C1519 H1493 0.950 . S
C1519 C1518 1.414 . S
C1519 C1520 1.374 . S
C1520 H1494 0.950 . S
C1520 C1516 1.385 . S
C1520 C1519 1.374 . S
C1521 C1518 1.499 . S
C1521 C1522 1.373 . S
C1521 C1523 1.389 . S
C1522 H1495 0.950 . S
C1522 C1508 1.377 . S
C1522 C1521 1.373 . S
C1523 C1507 1.377 . S
C1523 C1521 1.389 . S
C1523 C1524 1.524 . S
C1524 C1523 1.524 . S
C1524 C1525 1.397 . S
C1524 C1529 1.363 . S
C1525 H1496 0.950 . S
C1525 C1524 1.397 . S
C1525 C1526 1.334 . S
C1526 H1497 0.950 . S
C1526 C1525 1.334 . S
C1526 C1527 1.287 . S
C1527 C1526 1.287 . S
C1527 C1528 1.524 . S
C1527 H1530 0.999 . S
C1528 H1498 0.950 . S
C1528 C1527 1.524 . S
C1528 C1529 1.415 . S
C1529 H1499 0.950 . S
C1529 C1524 1.363 . S
C1529 C1528 1.415 . S
H1530 C1527 0.999 . S
H1531 C1512 0.913 . S
H1532 C1550 0.951 . S
H1533 C1552 0.951 . S
H1534 C1554 0.950 . S
H1535 C1555 0.950 . S
H1536 C1557 0.950 . S
H1537 C1560 0.950 . S
H1538 C1561 0.950 . S
H1539 C1563 0.950 . S
H1540 C1564 0.950 . S
H1541 C1565 0.951 . S
H1542 C1567 0.951 . S
H1543 C1569 0.950 . S
H1544 C1570 0.950 . S
H1545 C1572 0.950 . S
H1546 C1575 0.950 . S
H1547 C1576 0.950 . S
H1548 C1578 0.950 . S
H1549 C1579 0.950 . S
C1550 H1532 0.951 . S
C1550 C1551 1.366 . S
C1550 C1552 1.388 . S
C1551 C1550 1.366 . S
C1551 C1555 1.385 . S
C1552 H1533 0.951 . S
C1552 C1550 1.388 . S
C1552 C1553 1.366 . S
C1553 C1552 1.366 . S
C1553 C1554 1.414 . S
C1553 C1556 1.499 . S
C1554 H1534 0.950 . S
C1554 C1553 1.414 . S
C1554 C1555 1.374 . S
C1555 H1535 0.950 . S
C1555 C1551 1.385 . S
C1555 C1554 1.374 . S
C1556 C1553 1.499 . S
C1556 C1557 1.373 . S
C1556 C1558 1.389 . S
C1557 H1536 0.950 . S
C1557 C1556 1.373 . S
C1557 C1573 1.377 . S
C1558 C1556 1.389 . S
C1558 C1559 1.524 . S
C1558 C1572 1.377 . S
C1559 C1558 1.524 . S
C1559 C1560 1.397 . S
C1559 C1564 1.363 . S
C1560 H1537 0.950 . S
C1560 C1559 1.397 . S
C1560 C1561 1.334 . S
C1561 H1538 0.950 . S
C1561 C1560 1.334 . S
C1561 C1562 1.287 . S
C1562 C1561 1.287 . S
C1562 C1563 1.524 . S
C1562 H1581 0.913 . S
C1563 H1539 0.950 . S
C1563 C1562 1.524 . S
C1563 C1564 1.415 . S
C1564 H1540 0.950 . S
C1564 C1559 1.363 . S
C1564 C1563 1.415 . S
C1565 H1541 0.951 . S
C1565 C1566 1.366 . S
C1565 C1567 1.388 . S
C1566 C1565 1.366 . S
C1566 C1570 1.385 . S
C1567 H1542 0.951 . S
C1567 C1565 1.388 . S
C1567 C1568 1.366 . S
C1568 C1567 1.366 . S
C1568 C1569 1.414 . S
C1568 C1571 1.499 . S
C1569 H1543 0.950 . S
C1569 C1568 1.414 . S
C1569 C1570 1.374 . S
C1570 H1544 0.950 . S
C1570 C1566 1.385 . S
C1570 C1569 1.374 . S
C1571 C1568 1.499 . S
C1571 C1572 1.373 . S
C1571 C1573 1.389 . S
C1572 H1545 0.950 . S
C1572 C1558 1.377 . S
C1572 C1571 1.373 . S
C1573 C1557 1.377 . S
C1573 C1571 1.389 . S
C1573 C1574 1.524 . S
C1574 C1573 1.524 . S
C1574 C1575 1.397 . S
C1574 C1579 1.363 . S
C1575 H1546 0.950 . S
C1575 C1574 1.397 . S
C1575 C1576 1.334 . S
C1576 H1547 0.950 . S
C1576 C1575 1.334 . S
C1576 C1577 1.287 . S
C1577 C1576 1.287 . S
C1577 C1578 1.524 . S
C1577 H1580 0.999 . S
C1578 H1548 0.950 . S
C1578 C1577 1.524 . S
C1578 C1579 1.415 . S
C1579 H1549 0.950 . S
C1579 C1574 1.363 . S
C1579 C1578 1.415 . S
H1580 C1577 0.999 . S
H1581 C1562 0.913 . S
H1582 C1600 0.951 . S
H1583 C1602 0.951 . S
H1584 C1604 0.950 . S
H1585 C1605 0.950 . S
H1586 C1607 0.950 . S
H1587 C1610 0.960 . S
H1588 C1611 0.950 . S
H1589 C1613 0.950 . S
H1590 C1614 0.950 . S
H1591 C1615 0.951 . S
H1592 C1617 0.951 . S
H1593 C1619 0.950 . S
H1594 C1620 0.950 1_565 S
H1595 C1622 0.950 1_565 S
H1596 C1625 0.950 . S
H1597 C1626 0.950 . S
H1598 C1628 0.950 . S
H1599 C1629 0.950 . S
C1600 H1582 0.951 . S
C1600 C1601 1.366 . S
C1600 C1602 1.388 . S
C1601 C1600 1.366 . S
C1601 C1605 1.385 . S
C1602 H1583 0.951 . S
C1602 C1600 1.388 . S
C1602 C1603 1.366 . S
C1603 C1602 1.366 . S
C1603 C1604 1.414 . S
C1603 C1606 1.499 . S
C1604 H1584 0.950 . S
C1604 C1603 1.414 . S
C1604 C1605 1.374 . S
C1605 H1585 0.950 . S
C1605 C1601 1.385 . S
C1605 C1604 1.374 . S
C1606 C1603 1.499 . S
C1606 C1607 1.373 . S
C1606 C1608 1.389 . S
C1607 H1586 0.950 . S
C1607 C1606 1.373 . S
C1607 C1623 1.377 . S
C1608 C1606 1.389 . S
C1608 C1609 1.524 1_545 S
C1608 C1622 1.377 . S
C1609 C1608 1.524 1_565 S
C1609 C1610 1.397 . S
C1609 C1614 1.363 . S
C1610 H1587 0.960 . S
C1610 C1609 1.397 . S
C1610 C1611 1.334 . S
C1611 H1588 0.950 . S
C1611 C1610 1.334 . S
C1611 C1612 1.287 . S
C1612 C1611 1.287 . S
C1612 C1613 1.524 . S
C1612 H1631 0.913 . S
C1613 H1589 0.950 . S
C1613 C1612 1.524 . S
C1613 C1614 1.415 . S
C1614 H1590 0.950 . S
C1614 C1609 1.363 . S
C1614 C1613 1.415 . S
C1615 H1591 0.951 . S
C1615 C1616 1.366 . S
C1615 C1617 1.388 . S
C1616 C1615 1.366 . S
C1616 C1620 1.385 . S
C1617 H1592 0.951 . S
C1617 C1615 1.388 . S
C1617 C1618 1.366 . S
C1618 C1617 1.366 . S
C1618 C1619 1.414 . S
C1618 C1621 1.499 . S
C1619 H1593 0.950 . S
C1619 C1618 1.414 . S
C1619 C1620 1.374 . S
C1620 H1594 0.950 1_545 S
C1620 C1616 1.385 . S
C1620 C1619 1.374 . S
C1621 C1618 1.499 . S
C1621 C1622 1.373 . S
C1621 C1623 1.389 . S
C1622 H1595 0.950 1_545 S
C1622 C1608 1.377 . S
C1622 C1621 1.373 . S
C1623 C1607 1.377 . S
C1623 C1621 1.389 . S
C1623 C1624 1.524 . S
C1624 C1623 1.524 . S
C1624 C1625 1.397 . S
C1624 C1629 1.363 . S
C1625 H1596 0.950 . S
C1625 C1624 1.397 . S
C1625 C1626 1.334 . S
C1626 H1597 0.950 . S
C1626 C1625 1.334 . S
C1626 C1627 1.287 . S
C1627 C1626 1.287 . S
C1627 C1628 1.524 . S
C1627 H1630 0.999 . S
C1628 H1598 0.950 . S
C1628 C1627 1.524 . S
C1628 C1629 1.415 . S
C1629 H1599 0.950 . S
C1629 C1624 1.363 . S
C1629 C1628 1.415 . S
H1630 C1627 0.999 . S
H1631 C1612 0.913 . S
H1632 C1650 0.951 . S
H1633 C1652 0.951 . S
H1634 C1654 0.950 . S
H1635 C1655 0.950 . S
H1636 C1657 0.950 . S
H1637 C1660 0.950 . S
H1638 C1661 0.950 . S
H1639 C1663 0.950 . S
H1640 C1664 0.950 . S
H1641 C1665 0.951 . S
H1642 C1667 0.951 . S
H1643 C1669 0.950 . S
H1644 C1670 0.950 . S
H1645 C1672 0.950 . S
H1646 C1675 0.950 . S
H1647 C1676 0.950 . S
H1648 C1678 0.950 . S
H1649 C1679 0.950 . S
C1650 H1632 0.951 . S
C1650 C1651 1.366 . S
C1650 C1652 1.388 . S
C1651 C1650 1.366 . S
C1651 C1655 1.385 . S
C1652 H1633 0.951 . S
C1652 C1650 1.388 . S
C1652 C1653 1.366 . S
C1653 C1652 1.366 . S
C1653 C1654 1.414 . S
C1653 C1656 1.499 . S
C1654 H1634 0.950 . S
C1654 C1653 1.414 . S
C1654 C1655 1.374 . S
C1655 H1635 0.950 . S
C1655 C1651 1.385 . S
C1655 C1654 1.374 . S
C1656 C1653 1.499 . S
C1656 C1657 1.373 . S
C1656 C1658 1.389 . S
C1657 H1636 0.950 . S
C1657 C1656 1.373 . S
C1657 C1673 1.377 . S
C1658 C1656 1.389 . S
C1658 C1659 1.524 . S
C1658 C1672 1.377 . S
C1659 C1658 1.524 . S
C1659 C1660 1.397 . S
C1659 C1664 1.363 . S
C1660 H1637 0.950 . S
C1660 C1659 1.397 . S
C1660 C1661 1.334 . S
C1661 H1638 0.950 . S
C1661 C1660 1.334 . S
C1661 C1662 1.287 . S
C1662 C1661 1.287 . S
C1662 C1663 1.524 . S
C1662 H1681 0.913 . S
C1663 H1639 0.950 . S
C1663 C1662 1.524 . S
C1663 C1664 1.415 . S
C1664 H1640 0.950 . S
C1664 C1659 1.363 . S
C1664 C1663 1.415 . S
C1665 H1641 0.951 . S
C1665 C1666 1.366 . S
C1665 C1667 1.388 . S
C1666 C1665 1.366 . S
C1666 C1670 1.385 . S
C1667 H1642 0.951 . S
C1667 C1665 1.388 . S
C1667 C1668 1.366 . S
C1668 C1667 1.366 . S
C1668 C1669 1.414 . S
C1668 C1671 1.499 . S
C1669 H1643 0.950 . S
C1669 C1668 1.414 . S
C1669 C1670 1.374 . S
C1670 H1644 0.950 . S
C1670 C1666 1.385 . S
C1670 C1669 1.374 . S
C1671 C1668 1.499 . S
C1671 C1672 1.373 . S
C1671 C1673 1.389 . S
C1672 H1645 0.950 . S
C1672 C1658 1.377 . S
C1672 C1671 1.373 . S
C1673 C1657 1.377 . S
C1673 C1671 1.389 . S
C1673 C1674 1.524 . S
C1674 C1673 1.524 . S
C1674 C1675 1.397 . S
C1674 C1679 1.363 . S
C1675 H1646 0.950 . S
C1675 C1674 1.397 . S
C1675 C1676 1.334 . S
C1676 H1647 0.950 . S
C1676 C1675 1.334 . S
C1676 C1677 1.287 . S
C1677 C1676 1.287 . S
C1677 C1678 1.524 . S
C1677 H1680 0.999 . S
C1678 H1648 0.950 . S
C1678 C1677 1.524 . S
C1678 C1679 1.415 . S
C1679 H1649 0.950 . S
C1679 C1674 1.363 . S
C1679 C1678 1.415 . S
H1680 C1677 0.999 . S
H1681 C1662 0.913 . S
H1682 C1700 0.951 . S
H1683 C1702 0.951 . S
H1684 C1704 0.950 . S
H1685 C1705 0.950 . S
H1686 C1707 0.950 . S
H1687 C1710 0.950 . S
H1688 C1711 0.950 . S
H1689 C1713 0.950 . S
H1690 C1714 0.950 . S
H1691 C1715 0.951 . S
H1692 C1717 0.951 . S
H1693 C1719 0.950 . S
H1694 C1720 0.950 . S
H1695 C1722 0.950 . S
H1696 C1725 0.950 . S
H1697 C1726 0.950 . S
H1698 C1728 0.950 . S
H1699 C1729 0.950 . S
C1700 H1682 0.951 . S
C1700 C1701 1.366 . S
C1700 C1702 1.388 . S
C1701 C1700 1.366 . S
C1701 C1705 1.385 . S
C1702 H1683 0.951 . S
C1702 C1700 1.388 . S
C1702 C1703 1.366 . S
C1703 C1702 1.366 . S
C1703 C1704 1.414 . S
C1703 C1706 1.499 . S
C1704 H1684 0.950 . S
C1704 C1703 1.414 . S
C1704 C1705 1.374 . S
C1705 H1685 0.950 . S
C1705 C1701 1.385 . S
C1705 C1704 1.374 . S
C1706 C1703 1.499 . S
C1706 C1707 1.373 . S
C1706 C1708 1.389 . S
C1707 H1686 0.950 . S
C1707 C1706 1.373 . S
C1707 C1723 1.377 . S
C1708 C1706 1.389 . S
C1708 C1709 1.524 . S
C1708 C1722 1.377 . S
C1709 C1708 1.524 . S
C1709 C1710 1.397 . S
C1709 C1714 1.363 . S
C1710 H1687 0.950 . S
C1710 C1709 1.397 . S
C1710 C1711 1.334 . S
C1711 H1688 0.950 . S
C1711 C1710 1.334 . S
C1711 C1712 1.287 . S
C1712 C1711 1.287 . S
C1712 C1713 1.524 . S
C1712 H1731 0.913 . S
C1713 H1689 0.950 . S
C1713 C1712 1.524 . S
C1713 C1714 1.415 . S
C1714 H1690 0.950 . S
C1714 C1709 1.363 . S
C1714 C1713 1.415 . S
C1715 H1691 0.951 . S
C1715 C1716 1.366 . S
C1715 C1717 1.388 . S
C1716 C1715 1.366 . S
C1716 C1720 1.385 . S
C1717 H1692 0.951 . S
C1717 C1715 1.388 . S
C1717 C1718 1.366 . S
C1718 C1717 1.366 . S
C1718 C1719 1.414 . S
C1718 C1721 1.499 . S
C1719 H1693 0.950 . S
C1719 C1718 1.414 . S
C1719 C1720 1.374 . S
C1720 H1694 0.950 . S
C1720 C1716 1.385 . S
C1720 C1719 1.374 . S
C1721 C1718 1.499 . S
C1721 C1722 1.373 . S
C1721 C1723 1.389 . S
C1722 H1695 0.950 . S
C1722 C1708 1.377 . S
C1722 C1721 1.373 . S
C1723 C1707 1.377 . S
C1723 C1721 1.389 . S
C1723 C1724 1.524 . S
C1724 C1723 1.524 . S
C1724 C1725 1.397 . S
C1724 C1729 1.363 . S
C1725 H1696 0.950 . S
C1725 C1724 1.397 . S
C1725 C1726 1.334 . S
C1726 H1697 0.950 . S
C1726 C1725 1.334 . S
C1726 C1727 1.287 . S
C1727 C1726 1.287 . S
C1727 C1728 1.524 . S
C1727 H1730 0.999 . S
C1728 H1698 0.950 . S
C1728 C1727 1.524 . S
C1728 C1729 1.415 . S
C1729 H1699 0.950 . S
C1729 C1724 1.363 . S
C1729 C1728 1.415 . S
H1730 C1727 0.999 . S
H1731 C1712 0.913 . S
H1732 C1750 0.951 . S
H1733 C1752 0.951 . S
H1734 C1754 0.950 . S
H1735 C1755 0.950 . S
H1736 C1757 0.950 . S
H1737 C1760 0.950 . S
H1738 C1761 0.950 . S
H1739 C1763 0.950 . S
H1740 C1764 0.950 . S
H1741 C1765 0.951 . S
H1742 C1767 0.951 . S
H1743 C1769 0.950 . S
H1744 C1770 0.950 . S
H1745 C1772 0.950 . S
H1746 C1775 0.950 . S
H1747 C1776 0.950 . S
H1748 C1778 0.950 . S
H1749 C1779 0.950 . S
C1750 H1732 0.951 . S
C1750 C1751 1.366 . S
C1750 C1752 1.388 . S
C1751 C1750 1.366 . S
C1751 C1755 1.385 . S
C1752 H1733 0.951 . S
C1752 C1750 1.388 . S
C1752 C1753 1.366 . S
C1753 C1752 1.366 . S
C1753 C1754 1.414 . S
C1753 C1756 1.499 . S
C1754 H1734 0.950 . S
C1754 C1753 1.414 . S
C1754 C1755 1.374 . S
C1755 H1735 0.950 . S
C1755 C1751 1.385 . S
C1755 C1754 1.374 . S
C1756 C1753 1.499 . S
C1756 C1757 1.373 . S
C1756 C1758 1.389 . S
C1757 H1736 0.950 . S
C1757 C1756 1.373 . S
C1757 C1773 1.377 . S
C1758 C1756 1.389 . S
C1758 C1759 1.524 . S
C1758 C1772 1.377 . S
C1759 C1758 1.524 . S
C1759 C1760 1.397 . S
C1759 C1764 1.363 . S
C1760 H1737 0.950 . S
C1760 C1759 1.397 . S
C1760 C1761 1.334 . S
C1761 H1738 0.950 . S
C1761 C1760 1.334 . S
C1761 C1762 1.287 . S
C1762 C1761 1.287 . S
C1762 C1763 1.524 . S
C1762 H1781 0.913 . S
C1763 H1739 0.950 . S
C1763 C1762 1.524 . S
C1763 C1764 1.415 . S
C1764 H1740 0.950 . S
C1764 C1759 1.363 . S
C1764 C1763 1.415 . S
C1765 H1741 0.951 . S
C1765 C1766 1.366 . S
C1765 C1767 1.388 . S
C1766 C1765 1.366 . S
C1766 C1770 1.385 . S
C1767 H1742 0.951 . S
C1767 C1765 1.388 . S
C1767 C1768 1.366 . S
C1768 C1767 1.366 . S
C1768 C1769 1.414 . S
C1768 C1771 1.499 . S
C1769 H1743 0.950 . S
C1769 C1768 1.414 . S
C1769 C1770 1.374 . S
C1770 H1744 0.950 . S
C1770 C1766 1.385 . S
C1770 C1769 1.374 . S
C1771 C1768 1.499 . S
C1771 C1772 1.373 . S
C1771 C1773 1.389 . S
C1772 H1745 0.950 . S
C1772 C1758 1.377 . S
C1772 C1771 1.373 . S
C1773 C1757 1.377 . S
C1773 C1771 1.389 . S
C1773 C1774 1.524 . S
C1774 C1773 1.524 . S
C1774 C1775 1.397 . S
C1774 C1779 1.363 . S
C1775 H1746 0.950 . S
C1775 C1774 1.397 . S
C1775 C1776 1.334 . S
C1776 H1747 0.950 . S
C1776 C1775 1.334 . S
C1776 C1777 1.287 . S
C1777 C1776 1.287 . S
C1777 C1778 1.524 . S
C1777 H1780 0.999 . S
C1778 H1748 0.950 . S
C1778 C1777 1.524 . S
C1778 C1779 1.415 . S
C1779 H1749 0.950 . S
C1779 C1774 1.363 . S
C1779 C1778 1.415 . S
H1780 C1777 0.999 . S
H1781 C1762 0.913 . S
H1782 C1800 0.951 . S
H1783 C1802 0.951 . S
H1784 C1804 0.950 . S
H1785 C1805 0.946 . S
H1786 C1807 0.950 . S
H1787 C1810 0.950 . S
H1788 C1811 0.950 . S
H1789 C1813 0.950 . S
H1790 C1814 0.950 . S
H1791 C1815 0.951 . S
H1792 C1817 0.951 . S
H1793 C1819 0.950 . S
H1794 C1820 0.950 . S
H1795 C1822 0.950 . S
H1796 C1825 0.954 . S
H1797 C1826 0.950 . S
H1798 C1828 0.950 . S
H1799 C1829 0.950 . S
C1800 H1782 0.951 . S
C1800 C1801 1.366 . S
C1800 C1802 1.388 . S
C1801 C1800 1.366 . S
C1801 C1805 1.386 1_655 S
C1802 H1783 0.951 . S
C1802 C1800 1.388 . S
C1802 C1803 1.366 . S
C1803 C1802 1.366 . S
C1803 C1804 1.414 . S
C1803 C1806 1.499 . S
C1804 H1784 0.950 . S
C1804 C1803 1.414 . S
C1804 C1805 1.376 1_655 S
C1805 H1785 0.946 . S
C1805 C1801 1.386 1_455 S
C1805 C1804 1.376 1_455 S
C1806 C1803 1.499 . S
C1806 C1807 1.373 . S
C1806 C1808 1.389 . S
C1807 H1786 0.950 . S
C1807 C1806 1.373 . S
C1807 C1823 1.377 . S
C1808 C1806 1.389 . S
C1808 C1809 1.524 . S
C1808 C1822 1.377 . S
C1809 C1808 1.524 . S
C1809 C1810 1.397 . S
C1809 C1814 1.363 . S
C1810 H1787 0.950 . S
C1810 C1809 1.397 . S
C1810 C1811 1.334 . S
C1811 H1788 0.950 . S
C1811 C1810 1.334 . S
C1811 C1812 1.287 . S
C1812 C1811 1.287 . S
C1812 C1813 1.524 . S
C1812 H1831 0.913 . S
C1813 H1789 0.950 . S
C1813 C1812 1.524 . S
C1813 C1814 1.415 . S
C1814 H1790 0.950 . S
C1814 C1809 1.363 . S
C1814 C1813 1.415 . S
C1815 H1791 0.951 . S
C1815 C1816 1.366 . S
C1815 C1817 1.388 . S
C1816 C1815 1.366 . S
C1816 C1820 1.385 . S
C1817 H1792 0.951 . S
C1817 C1815 1.388 . S
C1817 C1818 1.366 . S
C1818 C1817 1.366 . S
C1818 C1819 1.414 . S
C1818 C1821 1.499 . S
C1819 H1793 0.950 . S
C1819 C1818 1.414 . S
C1819 C1820 1.374 . S
C1820 H1794 0.950 . S
C1820 C1816 1.385 . S
C1820 C1819 1.374 . S
C1821 C1818 1.499 . S
C1821 C1822 1.373 . S
C1821 C1823 1.389 . S
C1822 H1795 0.950 . S
C1822 C1808 1.377 . S
C1822 C1821 1.373 . S
C1823 C1807 1.377 . S
C1823 C1821 1.389 . S
C1823 C1824 1.524 . S
C1824 C1823 1.524 . S
C1824 C1825 1.397 . S
C1824 C1829 1.363 . S
C1825 H1796 0.954 . S
C1825 C1824 1.397 . S
C1825 C1826 1.334 1_545 S
C1826 H1797 0.950 . S
C1826 C1825 1.334 1_565 S
C1826 C1827 1.287 . S
C1827 C1826 1.287 . S
C1827 C1828 1.524 1_565 S
C1827 H1830 0.999 . S
C1828 H1798 0.950 . S
C1828 C1827 1.524 1_545 S
C1828 C1829 1.415 . S
C1829 H1799 0.950 . S
C1829 C1824 1.363 . S
C1829 C1828 1.415 . S
H1830 C1827 0.999 . S
H1831 C1812 0.913 . S
H1832 C1850 0.951 . S
H1833 C1852 0.951 . S
H1834 C1854 0.950 . S
H1835 C1855 0.950 . S
H1836 C1857 0.950 . S
H1837 C1860 0.950 . S
H1838 C1861 0.950 . S
H1839 C1863 0.950 . S
H1840 C1864 0.950 . S
H1841 C1865 0.951 . S
H1842 C1867 0.951 . S
H1843 C1869 0.950 . S
H1844 C1870 0.950 . S
H1845 C1872 0.950 . S
H1846 C1875 0.950 . S
H1847 C1876 0.950 . S
H1848 C1878 0.950 . S
H1849 C1879 0.950 . S
C1850 H1832 0.951 . S
C1850 C1851 1.366 . S
C1850 C1852 1.388 . S
C1851 C1850 1.366 . S
C1851 C1855 1.385 . S
C1852 H1833 0.951 . S
C1852 C1850 1.388 . S
C1852 C1853 1.366 . S
C1853 C1852 1.366 . S
C1853 C1854 1.414 . S
C1853 C1856 1.499 . S
C1854 H1834 0.950 . S
C1854 C1853 1.414 . S
C1854 C1855 1.374 . S
C1855 H1835 0.950 . S
C1855 C1851 1.385 . S
C1855 C1854 1.374 . S
C1856 C1853 1.499 . S
C1856 C1857 1.373 . S
C1856 C1858 1.389 . S
C1857 H1836 0.950 . S
C1857 C1856 1.373 . S
C1857 C1873 1.377 . S
C1858 C1856 1.389 . S
C1858 C1859 1.524 . S
C1858 C1872 1.377 . S
C1859 C1858 1.524 . S
C1859 C1860 1.397 . S
C1859 C1864 1.363 . S
C1860 H1837 0.950 . S
C1860 C1859 1.397 . S
C1860 C1861 1.334 . S
C1861 H1838 0.950 . S
C1861 C1860 1.334 . S
C1861 C1862 1.287 . S
C1862 C1861 1.287 . S
C1862 C1863 1.524 . S
C1862 H1881 0.913 . S
C1863 H1839 0.950 . S
C1863 C1862 1.524 . S
C1863 C1864 1.415 . S
C1864 H1840 0.950 . S
C1864 C1859 1.363 . S
C1864 C1863 1.415 . S
C1865 H1841 0.951 . S
C1865 C1866 1.366 . S
C1865 C1867 1.388 . S
C1866 C1865 1.366 . S
C1866 C1870 1.385 . S
C1867 H1842 0.951 . S
C1867 C1865 1.388 . S
C1867 C1868 1.366 . S
C1868 C1867 1.366 . S
C1868 C1869 1.414 . S
C1868 C1871 1.499 . S
C1869 H1843 0.950 . S
C1869 C1868 1.414 . S
C1869 C1870 1.374 . S
C1870 H1844 0.950 . S
C1870 C1866 1.385 . S
C1870 C1869 1.374 . S
C1871 C1868 1.499 . S
C1871 C1872 1.373 . S
C1871 C1873 1.389 . S
C1872 H1845 0.950 . S
C1872 C1858 1.377 . S
C1872 C1871 1.373 . S
C1873 C1857 1.377 . S
C1873 C1871 1.389 . S
C1873 C1874 1.524 . S
C1874 C1873 1.524 . S
C1874 C1875 1.397 . S
C1874 C1879 1.363 . S
C1875 H1846 0.950 . S
C1875 C1874 1.397 . S
C1875 C1876 1.334 . S
C1876 H1847 0.950 . S
C1876 C1875 1.334 . S
C1876 C1877 1.287 . S
C1877 C1876 1.287 . S
C1877 C1878 1.524 . S
C1877 H1880 0.999 . S
C1878 H1848 0.950 . S
C1878 C1877 1.524 . S
C1878 C1879 1.415 . S
C1879 H1849 0.950 . S
C1879 C1874 1.363 . S
C1879 C1878 1.415 . S
H1880 C1877 0.999 . S
H1881 C1862 0.913 . S
H1882 C1900 0.951 . S
H1883 C1902 0.951 . S
H1884 C1904 0.950 . S
H1885 C1905 0.950 . S
H1886 C1907 0.950 . S
H1887 C1910 0.950 . S
H1888 C1911 0.950 . S
H1889 C1913 0.950 . S
H1890 C1914 0.950 . S
H1891 C1915 0.951 . S
H1892 C1917 0.951 . S
H1893 C1919 0.950 . S
H1894 C1920 0.950 . S
H1895 C1922 0.950 . S
H1896 C1925 0.950 . S
H1897 C1926 0.950 . S
H1898 C1928 0.946 . S
H1899 C1929 0.950 . S
C1900 H1882 0.951 . S
C1900 C1901 1.366 1_455 S
C1900 C1902 1.388 . S
C1901 C1900 1.366 1_655 S
C1901 C1905 1.385 . S
C1902 H1883 0.951 . S
C1902 C1900 1.388 . S
C1902 C1903 1.366 . S
C1903 C1902 1.366 . S
C1903 C1904 1.414 1_455 S
C1903 C1906 1.499 . S
C1904 H1884 0.950 . S
C1904 C1903 1.414 1_655 S
C1904 C1905 1.374 . S
C1905 H1885 0.950 . S
C1905 C1901 1.385 . S
C1905 C1904 1.374 . S
C1906 C1903 1.499 . S
C1906 C1907 1.373 . S
C1906 C1908 1.389 . S
C1907 H1886 0.950 . S
C1907 C1906 1.373 . S
C1907 C1923 1.377 . S
C1908 C1906 1.389 . S
C1908 C1909 1.524 . S
C1908 C1922 1.377 . S
C1909 C1908 1.524 . S
C1909 C1910 1.397 . S
C1909 C1914 1.363 . S
C1910 H1887 0.950 . S
C1910 C1909 1.397 . S
C1910 C1911 1.334 . S
C1911 H1888 0.950 . S
C1911 C1910 1.334 . S
C1911 C1912 1.287 . S
C1912 C1911 1.287 . S
C1912 C1913 1.524 . S
C1912 H1931 0.913 . S
C1913 H1889 0.950 . S
C1913 C1912 1.524 . S
C1913 C1914 1.415 . S
C1914 H1890 0.950 . S
C1914 C1909 1.363 . S
C1914 C1913 1.415 . S
C1915 H1891 0.951 . S
C1915 C1916 1.366 . S
C1915 C1917 1.388 . S
C1916 C1915 1.366 . S
C1916 C1920 1.385 . S
C1917 H1892 0.951 . S
C1917 C1915 1.388 . S
C1917 C1918 1.366 . S
C1918 C1917 1.366 . S
C1918 C1919 1.414 . S
C1918 C1921 1.499 . S
C1919 H1893 0.950 . S
C1919 C1918 1.414 . S
C1919 C1920 1.374 . S
C1920 H1894 0.950 . S
C1920 C1916 1.385 . S
C1920 C1919 1.374 . S
C1921 C1918 1.499 . S
C1921 C1922 1.373 . S
C1921 C1923 1.389 . S
C1922 H1895 0.950 . S
C1922 C1908 1.377 . S
C1922 C1921 1.373 . S
C1923 C1907 1.377 . S
C1923 C1921 1.389 . S
C1923 C1924 1.524 . S
C1924 C1923 1.524 . S
C1924 C1925 1.397 . S
C1924 C1929 1.363 . S
C1925 H1896 0.950 . S
C1925 C1924 1.397 . S
C1925 C1926 1.334 . S
C1926 H1897 0.950 . S
C1926 C1925 1.334 . S
C1926 C1927 1.287 . S
C1927 C1926 1.287 . S
C1927 C1928 1.526 1_455 S
C1927 H1930 0.999 . S
C1928 H1898 0.946 . S
C1928 C1927 1.526 1_655 S
C1928 C1929 1.417 1_655 S
C1929 H1899 0.950 . S
C1929 C1924 1.363 . S
C1929 C1928 1.417 1_455 S
H1930 C1927 0.999 . S
H1931 C1912 0.913 . S
H1932 C1950 0.951 . S
H1933 C1952 0.951 . S
H1934 C1954 0.950 . S
H1935 C1955 0.950 . S
H1936 C1957 0.950 . S
H1937 C1960 0.950 . S
H1938 C1961 0.950 . S
H1939 C1963 0.950 . S
H1940 C1964 0.950 . S
H1941 C1965 0.951 . S
H1942 C1967 0.951 . S
H1943 C1969 0.950 . S
H1944 C1970 0.950 . S
H1945 C1972 0.950 . S
H1946 C1975 0.950 . S
H1947 C1976 0.950 . S
H1948 C1978 0.950 . S
H1949 C1979 0.950 . S
C1950 H1932 0.951 . S
C1950 C1951 1.366 . S
C1950 C1952 1.388 . S
C1951 C1950 1.366 . S
C1951 C1955 1.385 . S
C1952 H1933 0.951 . S
C1952 C1950 1.388 . S
C1952 C1953 1.366 . S
C1953 C1952 1.366 . S
C1953 C1954 1.414 . S
C1953 C1956 1.499 . S
C1954 H1934 0.950 . S
C1954 C1953 1.414 . S
C1954 C1955 1.374 . S
C1955 H1935 0.950 . S
C1955 C1951 1.385 . S
C1955 C1954 1.374 . S
C1956 C1953 1.499 . S
C1956 C1957 1.373 . S
C1956 C1958 1.389 . S
C1957 H1936 0.950 . S
C1957 C1956 1.373 . S
C1957 C1973 1.377 . S
C1958 C1956 1.389 . S
C1958 C1959 1.524 . S
C1958 C1972 1.377 . S
C1959 C1958 1.524 . S
C1959 C1960 1.397 . S
C1959 C1964 1.363 . S
C1960 H1937 0.950 . S
C1960 C1959 1.397 . S
C1960 C1961 1.334 . S
C1961 H1938 0.950 . S
C1961 C1960 1.334 . S
C1961 C1962 1.287 . S
C1962 C1961 1.287 . S
C1962 C1963 1.524 . S
C1962 H1981 0.913 . S
C1963 H1939 0.950 . S
C1963 C1962 1.524 . S
C1963 C1964 1.415 . S
C1964 H1940 0.950 . S
C1964 C1959 1.363 . S
C1964 C1963 1.415 . S
C1965 H1941 0.951 . S
C1965 C1966 1.366 . S
C1965 C1967 1.388 . S
C1966 C1965 1.366 . S
C1966 C1970 1.385 . S
C1967 H1942 0.951 . S
C1967 C1965 1.388 . S
C1967 C1968 1.366 . S
C1968 C1967 1.366 . S
C1968 C1969 1.414 . S
C1968 C1971 1.499 . S
C1969 H1943 0.950 . S
C1969 C1968 1.414 . S
C1969 C1970 1.374 . S
C1970 H1944 0.950 . S
C1970 C1966 1.385 . S
C1970 C1969 1.374 . S
C1971 C1968 1.499 . S
C1971 C1972 1.373 . S
C1971 C1973 1.389 . S
C1972 H1945 0.950 . S
C1972 C1958 1.377 . S
C1972 C1971 1.373 . S
C1973 C1957 1.377 . S
C1973 C1971 1.389 . S
C1973 C1974 1.524 . S
C1974 C1973 1.524 . S
C1974 C1975 1.397 . S
C1974 C1979 1.363 . S
C1975 H1946 0.950 . S
C1975 C1974 1.397 . S
C1975 C1976 1.334 . S
C1976 H1947 0.950 . S
C1976 C1975 1.334 . S
C1976 C1977 1.287 . S
C1977 C1976 1.287 . S
C1977 C1978 1.524 . S
C1977 H1980 0.999 . S
C1978 H1948 0.950 . S
C1978 C1977 1.524 . S
C1978 C1979 1.415 . S
C1979 H1949 0.950 . S
C1979 C1974 1.363 . S
C1979 C1978 1.415 . S
H1980 C1977 0.999 . S
H1981 C1962 0.913 . S
H1982 C2000 0.951 . S
H1983 C2002 0.951 . S
H1984 C2004 0.950 1_455 S
H1985 C2005 0.950 1_455 S
H1986 C2007 0.950 . S
H1987 C2010 0.950 . S
H1988 C2011 0.950 . S
H1989 C2013 0.950 . S
H1990 C2014 0.950 . S
H1991 C2015 0.951 . S
H1992 C2017 0.951 . S
H1993 C2019 0.950 . S
H1994 C2020 0.950 . S
H1995 C2022 0.950 . S
H1996 C2025 0.950 . S
H1997 C2026 0.936 1_655 S
H1998 C2028 0.950 . S
H1999 C2029 0.950 . S
C2000 H1982 0.951 . S
C2000 C2001 1.366 . S
C2000 C2002 1.388 . S
C2001 C2000 1.366 . S
C2001 C2005 1.385 . S
C2002 H1983 0.951 . S
C2002 C2000 1.388 . S
C2002 C2003 1.366 . S
C2003 C2002 1.366 . S
C2003 C2004 1.414 . S
C2003 C2006 1.499 . S
C2004 H1984 0.950 1_655 S
C2004 C2003 1.414 . S
C2004 C2005 1.374 . S
C2005 H1985 0.950 1_655 S
C2005 C2001 1.385 . S
C2005 C2004 1.374 . S
C2006 C2003 1.499 . S
C2006 C2007 1.373 1_554 S
C2006 C2008 1.389 . S
C2007 H1986 0.950 . S
C2007 C2006 1.373 1_556 S
C2007 C2023 1.377 . S
C2008 C2006 1.389 . S
C2008 C2009 1.524 . S
C2008 C2022 1.377 . S
C2009 C2008 1.524 . S
C2009 C2010 1.397 . S
C2009 C2014 1.363 . S
C2010 H1987 0.950 . S
C2010 C2009 1.397 . S
C2010 C2011 1.334 . S
C2011 H1988 0.950 . S
C2011 C2010 1.334 . S
C2011 C2012 1.287 . S
C2012 C2011 1.287 . S
C2012 C2013 1.524 . S
C2012 H2031 0.913 . S
C2013 H1989 0.950 . S
C2013 C2012 1.524 . S
C2013 C2014 1.415 . S
C2014 H1990 0.950 . S
C2014 C2009 1.363 . S
C2014 C2013 1.415 . S
C2015 H1991 0.951 . S
C2015 C2016 1.366 . S
C2015 C2017 1.388 . S
C2016 C2015 1.366 . S
C2016 C2020 1.385 1_455 S
C2017 H1992 0.951 . S
C2017 C2015 1.388 . S
C2017 C2018 1.366 1_455 S
C2018 C2017 1.366 1_655 S
C2018 C2019 1.414 . S
C2018 C2021 1.499 . S
C2019 H1993 0.950 . S
C2019 C2018 1.414 . S
C2019 C2020 1.374 . S
C2020 H1994 0.950 . S
C2020 C2016 1.385 1_655 S
C2020 C2019 1.374 . S
C2021 C2018 1.499 . S
C2021 C2022 1.373 1_556 S
C2021 C2023 1.389 . S
C2022 H1995 0.950 . S
C2022 C2008 1.377 . S
C2022 C2021 1.373 1_554 S
C2023 C2007 1.377 . S
C2023 C2021 1.389 . S
C2023 C2024 1.524 1_655 S
C2024 C2023 1.524 1_455 S
C2024 C2025 1.397 1_455 S
C2024 C2029 1.363 . S
C2025 H1996 0.950 . S
C2025 C2024 1.397 1_655 S
C2025 C2026 1.320 1_655 S
C2026 H1997 0.936 1_455 S
C2026 C2025 1.320 1_455 S
C2026 C2027 1.317 . S
C2027 C2026 1.317 . S
C2027 C2028 1.524 . S
C2027 H2030 0.999 . S
C2028 H1998 0.950 . S
C2028 C2027 1.524 . S
C2028 C2029 1.415 . S
C2029 H1999 0.950 . S
C2029 C2024 1.363 . S
C2029 C2028 1.415 . S
H2030 C2027 0.999 . S
H2031 C2012 0.913 . S
H2032 C2050 0.951 . S
H2033 C2052 0.951 . S
H2034 C2054 0.950 . S
H2035 C2055 0.950 . S
H2036 C2057 0.950 . S
H2037 C2060 0.950 . S
H2038 C2061 0.950 . S
H2039 C2063 0.950 . S
H2040 C2064 0.950 . S
H2041 C2065 0.951 . S
H2042 C2067 0.951 . S
H2043 C2069 0.950 . S
H2044 C2070 0.950 . S
H2045 C2072 0.950 . S
H2046 C2075 0.950 . S
H2047 C2076 0.950 . S
H2048 C2078 0.950 . S
H2049 C2079 0.950 . S
C2050 H2032 0.951 . S
C2050 C2051 1.366 . S
C2050 C2052 1.388 . S
C2051 C2050 1.366 . S
C2051 C2055 1.385 . S
C2052 H2033 0.951 . S
C2052 C2050 1.388 . S
C2052 C2053 1.366 . S
C2053 C2052 1.366 . S
C2053 C2054 1.414 . S
C2053 C2056 1.499 . S
C2054 H2034 0.950 . S
C2054 C2053 1.414 . S
C2054 C2055 1.374 . S
C2055 H2035 0.950 . S
C2055 C2051 1.385 . S
C2055 C2054 1.374 . S
C2056 C2053 1.499 . S
C2056 C2057 1.373 . S
C2056 C2058 1.389 . S
C2057 H2036 0.950 . S
C2057 C2056 1.373 . S
C2057 C2073 1.377 . S
C2058 C2056 1.389 . S
C2058 C2059 1.524 . S
C2058 C2072 1.377 . S
C2059 C2058 1.524 . S
C2059 C2060 1.397 . S
C2059 C2064 1.363 . S
C2060 H2037 0.950 . S
C2060 C2059 1.397 . S
C2060 C2061 1.334 . S
C2061 H2038 0.950 . S
C2061 C2060 1.334 . S
C2061 C2062 1.287 . S
C2062 C2061 1.287 . S
C2062 C2063 1.524 . S
C2062 H2081 0.913 . S
C2063 H2039 0.950 . S
C2063 C2062 1.524 . S
C2063 C2064 1.415 . S
C2064 H2040 0.950 . S
C2064 C2059 1.363 . S
C2064 C2063 1.415 . S
C2065 H2041 0.951 . S
C2065 C2066 1.366 . S
C2065 C2067 1.388 . S
C2066 C2065 1.366 . S
C2066 C2070 1.385 . S
C2067 H2042 0.951 . S
C2067 C2065 1.388 . S
C2067 C2068 1.366 . S
C2068 C2067 1.366 . S
C2068 C2069 1.414 . S
C2068 C2071 1.499 . S
C2069 H2043 0.950 . S
C2069 C2068 1.414 . S
C2069 C2070 1.374 . S
C2070 H2044 0.950 . S
C2070 C2066 1.385 . S
C2070 C2069 1.374 . S
C2071 C2068 1.499 . S
C2071 C2072 1.373 . S
C2071 C2073 1.389 . S
C2072 H2045 0.950 . S
C2072 C2058 1.377 . S
C2072 C2071 1.373 . S
C2073 C2057 1.377 . S
C2073 C2071 1.389 . S
C2073 C2074 1.524 . S
C2074 C2073 1.524 . S
C2074 C2075 1.397 . S
C2074 C2079 1.363 . S
C2075 H2046 0.950 . S
C2075 C2074 1.397 . S
C2075 C2076 1.334 . S
C2076 H2047 0.950 . S
C2076 C2075 1.334 . S
C2076 C2077 1.287 . S
C2077 C2076 1.287 . S
C2077 C2078 1.524 . S
C2077 H2080 0.999 . S
C2078 H2048 0.950 . S
C2078 C2077 1.524 . S
C2078 C2079 1.415 . S
C2079 H2049 0.950 . S
C2079 C2074 1.363 . S
C2079 C2078 1.415 . S
H2080 C2077 0.999 . S
H2081 C2062 0.913 . S
H2082 C2100 0.951 . S
H2083 C2102 0.951 1_556 S
H2084 C2104 0.950 . S
H2085 C2105 0.950 . S
H2086 C2107 0.950 . S
H2087 C2110 0.950 . S
H2088 C2111 0.950 . S
H2089 C2113 0.950 . S
H2090 C2114 0.950 . S
H2091 C2115 0.951 . S
H2092 C2117 0.951 . S
H2093 C2119 0.950 1_655 S
H2094 C2120 0.950 1_655 S
H2095 C2122 0.950 . S
H2096 C2125 0.948 . S
H2097 C2126 0.950 . S
H2098 C2128 0.950 . S
H2099 C2129 0.950 . S
C2100 H2082 0.951 . S
C2100 C2101 1.366 . S
C2100 C2102 1.388 . S
C2101 C2100 1.366 . S
C2101 C2105 1.385 . S
C2102 H2083 0.951 1_554 S
C2102 C2100 1.388 . S
C2102 C2103 1.366 . S
C2103 C2102 1.366 . S
C2103 C2104 1.414 . S
C2103 C2106 1.499 . S
C2104 H2084 0.950 . S
C2104 C2103 1.414 . S
C2104 C2105 1.374 . S
C2105 H2085 0.950 . S
C2105 C2101 1.385 . S
C2105 C2104 1.374 . S
C2106 C2103 1.499 . S
C2106 C2107 1.373 . S
C2106 C2108 1.389 1_554 S
C2107 H2086 0.950 . S
C2107 C2106 1.373 . S
C2107 C2123 1.377 . S
C2108 C2106 1.389 1_556 S
C2108 C2109 1.524 . S
C2108 C2122 1.377 . S
C2109 C2108 1.524 . S
C2109 C2110 1.397 . S
C2109 C2114 1.363 . S
C2110 H2087 0.950 . S
C2110 C2109 1.397 . S
C2110 C2111 1.334 . S
C2111 H2088 0.950 . S
C2111 C2110 1.334 . S
C2111 C2112 1.287 . S
C2112 C2111 1.287 . S
C2112 C2113 1.524 . S
C2112 H2131 0.913 . S
C2113 H2089 0.950 . S
C2113 C2112 1.524 . S
C2113 C2114 1.415 . S
C2114 H2090 0.950 . S
C2114 C2109 1.363 . S
C2114 C2113 1.415 . S
C2115 H2091 0.951 . S
C2115 C2116 1.366 . S
C2115 C2117 1.388 . S
C2116 C2115 1.366 . S
C2116 C2120 1.385 . S
C2117 H2092 0.951 . S
C2117 C2115 1.388 . S
C2117 C2118 1.366 . S
C2118 C2117 1.366 . S
C2118 C2119 1.414 . S
C2118 C2121 1.499 . S
C2119 H2093 0.950 1_455 S
C2119 C2118 1.414 . S
C2119 C2120 1.374 . S
C2120 H2094 0.950 1_455 S
C2120 C2116 1.385 . S
C2120 C2119 1.374 . S
C2121 C2118 1.499 . S
C2121 C2122 1.373 . S
C2121 C2123 1.389 1_556 S
C2122 H2095 0.950 . S
C2122 C2108 1.377 . S
C2122 C2121 1.373 . S
C2123 C2107 1.377 . S
C2123 C2121 1.389 1_554 S
C2123 C2124 1.524 . S
C2124 C2123 1.524 . S
C2124 C2125 1.400 1_455 S
C2124 C2129 1.363 . S
C2125 H2096 0.948 . S
C2125 C2124 1.400 1_655 S
C2125 C2126 1.333 . S
C2126 H2097 0.950 . S
C2126 C2125 1.333 . S
C2126 C2127 1.287 1_655 S
C2127 C2126 1.287 1_455 S
C2127 C2128 1.524 . S
C2127 H2130 0.999 . S
C2128 H2098 0.950 . S
C2128 C2127 1.524 . S
C2128 C2129 1.415 . S
C2129 H2099 0.950 . S
C2129 C2124 1.363 . S
C2129 C2128 1.415 . S
H2130 C2127 0.999 . S
H2131 C2112 0.913 . S
H2132 C2150 0.951 . S
H2133 C2152 0.951 . S
H2134 C2154 0.950 . S
H2135 C2155 0.950 . S
H2136 C2157 0.950 . S
H2137 C2160 0.950 . S
H2138 C2161 0.950 . S
H2139 C2163 0.950 . S
H2140 C2164 0.950 . S
H2141 C2165 0.951 . S
H2142 C2167 0.951 . S
H2143 C2169 0.950 . S
H2144 C2170 0.950 . S
H2145 C2172 0.950 . S
H2146 C2175 0.950 . S
H2147 C2176 0.950 . S
H2148 C2178 0.950 . S
H2149 C2179 0.950 . S
C2150 H2132 0.951 . S
C2150 C2151 1.366 . S
C2150 C2152 1.388 . S
C2151 C2150 1.366 . S
C2151 C2155 1.385 . S
C2152 H2133 0.951 . S
C2152 C2150 1.388 . S
C2152 C2153 1.366 . S
C2153 C2152 1.366 . S
C2153 C2154 1.414 . S
C2153 C2156 1.499 . S
C2154 H2134 0.950 . S
C2154 C2153 1.414 . S
C2154 C2155 1.374 . S
C2155 H2135 0.950 . S
C2155 C2151 1.385 . S
C2155 C2154 1.374 . S
C2156 C2153 1.499 . S
C2156 C2157 1.373 . S
C2156 C2158 1.389 . S
C2157 H2136 0.950 . S
C2157 C2156 1.373 . S
C2157 C2173 1.377 . S
C2158 C2156 1.389 . S
C2158 C2159 1.524 . S
C2158 C2172 1.377 . S
C2159 C2158 1.524 . S
C2159 C2160 1.397 . S
C2159 C2164 1.363 . S
C2160 H2137 0.950 . S
C2160 C2159 1.397 . S
C2160 C2161 1.334 . S
C2161 H2138 0.950 . S
C2161 C2160 1.334 . S
C2161 C2162 1.287 . S
C2162 C2161 1.287 . S
C2162 C2163 1.524 . S
C2162 H2181 0.913 . S
C2163 H2139 0.950 . S
C2163 C2162 1.524 . S
C2163 C2164 1.415 . S
C2164 H2140 0.950 . S
C2164 C2159 1.363 . S
C2164 C2163 1.415 . S
C2165 H2141 0.951 . S
C2165 C2166 1.366 . S
C2165 C2167 1.388 . S
C2166 C2165 1.366 . S
C2166 C2170 1.385 . S
C2167 H2142 0.951 . S
C2167 C2165 1.388 . S
C2167 C2168 1.366 . S
C2168 C2167 1.366 . S
C2168 C2169 1.414 . S
C2168 C2171 1.499 . S
C2169 H2143 0.950 . S
C2169 C2168 1.414 . S
C2169 C2170 1.374 . S
C2170 H2144 0.950 . S
C2170 C2166 1.385 . S
C2170 C2169 1.374 . S
C2171 C2168 1.499 . S
C2171 C2172 1.373 . S
C2171 C2173 1.389 . S
C2172 H2145 0.950 . S
C2172 C2158 1.377 . S
C2172 C2171 1.373 . S
C2173 C2157 1.377 . S
C2173 C2171 1.389 . S
C2173 C2174 1.524 . S
C2174 C2173 1.524 . S
C2174 C2175 1.397 . S
C2174 C2179 1.363 . S
C2175 H2146 0.950 . S
C2175 C2174 1.397 . S
C2175 C2176 1.334 . S
C2176 H2147 0.950 . S
C2176 C2175 1.334 . S
C2176 C2177 1.287 . S
C2177 C2176 1.287 . S
C2177 C2178 1.524 . S
C2177 H2180 0.999 . S
C2178 H2148 0.950 . S
C2178 C2177 1.524 . S
C2178 C2179 1.415 . S
C2179 H2149 0.950 . S
C2179 C2174 1.363 . S
C2179 C2178 1.415 . S
H2180 C2177 0.999 . S
H2181 C2162 0.913 . S
H2182 C2200 0.958 . S
H2183 C2202 0.951 . S
H2184 C2204 0.950 . S
H2185 C2205 0.950 . S
H2186 C2207 0.950 . S
H2187 C2210 0.950 . S
H2188 C2211 0.950 . S
H2189 C2213 0.950 . S
H2190 C2214 0.950 . S
H2191 C2215 0.951 . S
H2192 C2217 0.951 . S
H2193 C2219 0.950 . S
H2194 C2220 0.950 . S
H2195 C2222 0.950 . S
H2196 C2225 0.950 . S
H2197 C2226 0.950 . S
H2198 C2228 0.950 . S
H2199 C2229 0.950 . S
C2200 H2182 0.958 . S
C2200 C2201 1.366 . S
C2200 C2202 1.388 . S
C2201 C2200 1.366 . S
C2201 C2205 1.385 . S
C2202 H2183 0.951 . S
C2202 C2200 1.388 . S
C2202 C2203 1.366 . S
C2203 C2202 1.366 . S
C2203 C2204 1.414 . S
C2203 C2206 1.499 . S
C2204 H2184 0.950 . S
C2204 C2203 1.414 . S
C2204 C2205 1.374 . S
C2205 H2185 0.950 . S
C2205 C2201 1.385 . S
C2205 C2204 1.374 . S
C2206 C2203 1.499 . S
C2206 C2207 1.373 . S
C2206 C2208 1.389 . S
C2207 H2186 0.950 . S
C2207 C2206 1.373 . S
C2207 C2223 1.377 . S
C2208 C2206 1.389 . S
C2208 C2209 1.524 . S
C2208 C2222 1.377 . S
C2209 C2208 1.524 . S
C2209 C2210 1.397 . S
C2209 C2214 1.363 . S
C2210 H2187 0.950 . S
C2210 C2209 1.397 . S
C2210 C2211 1.334 . S
C2211 H2188 0.950 . S
C2211 C2210 1.334 . S
C2211 C2212 1.287 . S
C2212 C2211 1.287 . S
C2212 C2213 1.524 . S
C2212 H2231 0.913 . S
C2213 H2189 0.950 . S
C2213 C2212 1.524 . S
C2213 C2214 1.415 . S
C2214 H2190 0.950 . S
C2214 C2209 1.363 . S
C2214 C2213 1.415 . S
C2215 H2191 0.951 . S
C2215 C2216 1.366 . S
C2215 C2217 1.388 . S
C2216 C2215 1.366 . S
C2216 C2220 1.385 . S
C2217 H2192 0.951 . S
C2217 C2215 1.388 . S
C2217 C2218 1.366 . S
C2218 C2217 1.366 . S
C2218 C2219 1.414 . S
C2218 C2221 1.499 . S
C2219 H2193 0.950 . S
C2219 C2218 1.414 . S
C2219 C2220 1.374 . S
C2220 H2194 0.950 . S
C2220 C2216 1.385 . S
C2220 C2219 1.374 . S
C2221 C2218 1.499 . S
C2221 C2222 1.373 . S
C2221 C2223 1.389 . S
C2222 H2195 0.950 . S
C2222 C2208 1.377 . S
C2222 C2221 1.373 . S
C2223 C2207 1.377 . S
C2223 C2221 1.389 . S
C2223 C2224 1.524 . S
C2224 C2223 1.524 . S
C2224 C2225 1.397 . S
C2224 C2229 1.363 . S
C2225 H2196 0.950 . S
C2225 C2224 1.397 . S
C2225 C2226 1.334 . S
C2226 H2197 0.950 . S
C2226 C2225 1.334 . S
C2226 C2227 1.287 . S
C2227 C2226 1.287 . S
C2227 C2228 1.524 . S
C2227 H2230 0.999 . S
C2228 H2198 0.950 . S
C2228 C2227 1.524 . S
C2228 C2229 1.415 . S
C2229 H2199 0.950 . S
C2229 C2224 1.363 . S
C2229 C2228 1.415 . S
H2230 C2227 0.999 . S
H2231 C2212 0.913 . S
H2232 C2250 0.951 . S
H2233 C2252 0.951 . S
H2234 C2254 0.950 . S
H2235 C2255 0.950 . S
H2236 C2257 0.950 . S
H2237 C2260 0.950 . S
H2238 C2261 0.950 . S
H2239 C2263 0.950 . S
H2240 C2264 0.950 . S
H2241 C2265 0.951 . S
H2242 C2267 0.951 . S
H2243 C2269 0.950 . S
H2244 C2270 0.950 . S
H2245 C2272 0.950 . S
H2246 C2275 0.950 . S
H2247 C2276 0.950 . S
H2248 C2278 0.950 . S
H2249 C2279 0.950 . S
C2250 H2232 0.951 . S
C2250 C2251 1.366 . S
C2250 C2252 1.388 . S
C2251 C2250 1.366 . S
C2251 C2255 1.385 . S
C2252 H2233 0.951 . S
C2252 C2250 1.388 . S
C2252 C2253 1.366 . S
C2253 C2252 1.366 . S
C2253 C2254 1.414 . S
C2253 C2256 1.499 . S
C2254 H2234 0.950 . S
C2254 C2253 1.414 . S
C2254 C2255 1.374 . S
C2255 H2235 0.950 . S
C2255 C2251 1.385 . S
C2255 C2254 1.374 . S
C2256 C2253 1.499 . S
C2256 C2257 1.373 . S
C2256 C2258 1.389 . S
C2257 H2236 0.950 . S
C2257 C2256 1.373 . S
C2257 C2273 1.377 . S
C2258 C2256 1.389 . S
C2258 C2259 1.524 . S
C2258 C2272 1.377 . S
C2259 C2258 1.524 . S
C2259 C2260 1.397 . S
C2259 C2264 1.363 . S
C2260 H2237 0.950 . S
C2260 C2259 1.397 . S
C2260 C2261 1.334 . S
C2261 H2238 0.950 . S
C2261 C2260 1.334 . S
C2261 C2262 1.287 . S
C2262 C2261 1.287 . S
C2262 C2263 1.524 . S
C2262 H2281 0.913 . S
C2263 H2239 0.950 . S
C2263 C2262 1.524 . S
C2263 C2264 1.415 . S
C2264 H2240 0.950 . S
C2264 C2259 1.363 . S
C2264 C2263 1.415 . S
C2265 H2241 0.951 . S
C2265 C2266 1.366 . S
C2265 C2267 1.388 . S
C2266 C2265 1.366 . S
C2266 C2270 1.385 . S
C2267 H2242 0.951 . S
C2267 C2265 1.388 . S
C2267 C2268 1.366 . S
C2268 C2267 1.366 . S
C2268 C2269 1.414 . S
C2268 C2271 1.499 . S
C2269 H2243 0.950 . S
C2269 C2268 1.414 . S
C2269 C2270 1.374 . S
C2270 H2244 0.950 . S
C2270 C2266 1.385 . S
C2270 C2269 1.374 . S
C2271 C2268 1.499 . S
C2271 C2272 1.373 . S
C2271 C2273 1.389 . S
C2272 H2245 0.950 . S
C2272 C2258 1.377 . S
C2272 C2271 1.373 . S
C2273 C2257 1.377 . S
C2273 C2271 1.389 . S
C2273 C2274 1.524 . S
C2274 C2273 1.524 . S
C2274 C2275 1.397 . S
C2274 C2279 1.363 . S
C2275 H2246 0.950 . S
C2275 C2274 1.397 . S
C2275 C2276 1.334 . S
C2276 H2247 0.950 . S
C2276 C2275 1.334 . S
C2276 C2277 1.287 . S
C2277 C2276 1.287 . S
C2277 C2278 1.524 . S
C2277 H2280 0.999 . S
C2278 H2248 0.950 . S
C2278 C2277 1.524 . S
C2278 C2279 1.415 . S
C2279 H2249 0.950 . S
C2279 C2274 1.363 . S
C2279 C2278 1.415 . S
H2280 C2277 0.999 . S
H2281 C2262 0.913 . S
H2282 C2300 0.951 . S
H2283 C2302 0.951 . S
H2284 C2304 0.950 . S
H2285 C2305 0.950 . S
H2286 C2307 0.950 . S
H2287 C2310 0.950 . S
H2288 C2311 0.950 1_556 S
H2289 C2313 0.950 . S
H2290 C2314 0.950 . S
H2291 C2315 0.951 . S
H2292 C2317 0.951 . S
H2293 C2319 0.950 . S
H2294 C2320 0.950 . S
H2295 C2322 0.950 . S
H2296 C2325 0.950 . S
H2297 C2326 0.950 . S
H2298 C2328 0.950 . S
H2299 C2329 0.950 . S
C2300 H2282 0.951 . S
C2300 C2301 1.366 . S
C2300 C2302 1.388 . S
C2301 C2300 1.366 . S
C2301 C2305 1.385 . S
C2302 H2283 0.951 . S
C2302 C2300 1.388 . S
C2302 C2303 1.366 . S
C2303 C2302 1.366 . S
C2303 C2304 1.414 . S
C2303 C2306 1.499 . S
C2304 H2284 0.950 . S
C2304 C2303 1.414 . S
C2304 C2305 1.374 . S
C2305 H2285 0.950 . S
C2305 C2301 1.385 . S
C2305 C2304 1.374 . S
C2306 C2303 1.499 . S
C2306 C2307 1.373 . S
C2306 C2308 1.389 . S
C2307 H2286 0.950 . S
C2307 C2306 1.373 . S
C2307 C2323 1.377 . S
C2308 C2306 1.389 . S
C2308 C2309 1.524 . S
C2308 C2322 1.377 . S
C2309 C2308 1.524 . S
C2309 C2310 1.397 . S
C2309 C2314 1.363 . S
C2310 H2287 0.950 . S
C2310 C2309 1.397 . S
C2310 C2311 1.334 . S
C2311 H2288 0.950 1_554 S
C2311 C2310 1.334 . S
C2311 C2312 1.287 . S
C2312 C2311 1.287 . S
C2312 C2313 1.524 . S
C2312 H2331 0.913 1_554 S
C2313 H2289 0.950 . S
C2313 C2312 1.524 . S
C2313 C2314 1.415 . S
C2314 H2290 0.950 . S
C2314 C2309 1.363 . S
C2314 C2313 1.415 . S
C2315 H2291 0.951 . S
C2315 C2316 1.366 . S
C2315 C2317 1.388 . S
C2316 C2315 1.366 . S
C2316 C2320 1.385 . S
C2317 H2292 0.951 . S
C2317 C2315 1.388 . S
C2317 C2318 1.366 . S
C2318 C2317 1.366 . S
C2318 C2319 1.414 . S
C2318 C2321 1.499 . S
C2319 H2293 0.950 . S
C2319 C2318 1.414 . S
C2319 C2320 1.374 . S
C2320 H2294 0.950 . S
C2320 C2316 1.385 . S
C2320 C2319 1.374 . S
C2321 C2318 1.499 . S
C2321 C2322 1.373 . S
C2321 C2323 1.389 . S
C2322 H2295 0.950 . S
C2322 C2308 1.377 . S
C2322 C2321 1.373 . S
C2323 C2307 1.377 . S
C2323 C2321 1.389 . S
C2323 C2324 1.524 . S
C2324 C2323 1.524 . S
C2324 C2325 1.397 . S
C2324 C2329 1.363 . S
C2325 H2296 0.950 . S
C2325 C2324 1.397 . S
C2325 C2326 1.334 . S
C2326 H2297 0.950 . S
C2326 C2325 1.334 . S
C2326 C2327 1.287 . S
C2327 C2326 1.287 . S
C2327 C2328 1.524 . S
C2327 H2330 0.999 . S
C2328 H2298 0.950 . S
C2328 C2327 1.524 . S
C2328 C2329 1.415 . S
C2329 H2299 0.950 . S
C2329 C2324 1.363 . S
C2329 C2328 1.415 . S
H2330 C2327 0.999 . S
H2331 C2312 0.913 1_556 S
H2332 C2350 0.951 . S
H2333 C2352 0.951 . S
H2334 C2354 0.950 . S
H2335 C2355 0.950 . S
H2336 C2357 0.950 . S
H2337 C2360 0.950 . S
H2338 C2361 0.950 . S
H2339 C2363 0.950 . S
H2340 C2364 0.950 . S
H2341 C2365 0.951 . S
H2342 C2367 0.951 . S
H2343 C2369 0.950 . S
H2344 C2370 0.950 . S
H2345 C2372 0.950 . S
H2346 C2375 0.950 . S
H2347 C2376 0.950 . S
H2348 C2378 0.950 . S
H2349 C2379 0.950 . S
C2350 H2332 0.951 . S
C2350 C2351 1.366 . S
C2350 C2352 1.388 . S
C2351 C2350 1.366 . S
C2351 C2355 1.385 . S
C2352 H2333 0.951 . S
C2352 C2350 1.388 . S
C2352 C2353 1.366 . S
C2353 C2352 1.366 . S
C2353 C2354 1.414 . S
C2353 C2356 1.499 . S
C2354 H2334 0.950 . S
C2354 C2353 1.414 . S
C2354 C2355 1.374 . S
C2355 H2335 0.950 . S
C2355 C2351 1.385 . S
C2355 C2354 1.374 . S
C2356 C2353 1.499 . S
C2356 C2357 1.373 . S
C2356 C2358 1.389 . S
C2357 H2336 0.950 . S
C2357 C2356 1.373 . S
C2357 C2373 1.377 . S
C2358 C2356 1.389 . S
C2358 C2359 1.524 . S
C2358 C2372 1.377 . S
C2359 C2358 1.524 . S
C2359 C2360 1.397 . S
C2359 C2364 1.363 . S
C2360 H2337 0.950 . S
C2360 C2359 1.397 . S
C2360 C2361 1.334 . S
C2361 H2338 0.950 . S
C2361 C2360 1.334 . S
C2361 C2362 1.287 . S
C2362 C2361 1.287 . S
C2362 C2363 1.524 . S
C2362 H2381 0.913 . S
C2363 H2339 0.950 . S
C2363 C2362 1.524 . S
C2363 C2364 1.415 . S
C2364 H2340 0.950 . S
C2364 C2359 1.363 . S
C2364 C2363 1.415 . S
C2365 H2341 0.951 . S
C2365 C2366 1.366 . S
C2365 C2367 1.388 . S
C2366 C2365 1.366 . S
C2366 C2370 1.385 . S
C2367 H2342 0.951 . S
C2367 C2365 1.388 . S
C2367 C2368 1.366 . S
C2368 C2367 1.366 . S
C2368 C2369 1.414 . S
C2368 C2371 1.499 . S
C2369 H2343 0.950 . S
C2369 C2368 1.414 . S
C2369 C2370 1.374 . S
C2370 H2344 0.950 . S
C2370 C2366 1.385 . S
C2370 C2369 1.374 . S
C2371 C2368 1.499 . S
C2371 C2372 1.373 . S
C2371 C2373 1.389 . S
C2372 H2345 0.950 . S
C2372 C2358 1.377 . S
C2372 C2371 1.373 . S
C2373 C2357 1.377 . S
C2373 C2371 1.389 . S
C2373 C2374 1.524 . S
C2374 C2373 1.524 . S
C2374 C2375 1.397 . S
C2374 C2379 1.363 . S
C2375 H2346 0.950 . S
C2375 C2374 1.397 . S
C2375 C2376 1.334 . S
C2376 H2347 0.950 . S
C2376 C2375 1.334 . S
C2376 C2377 1.287 . S
C2377 C2376 1.287 . S
C2377 C2378 1.524 . S
C2377 H2380 0.999 . S
C2378 H2348 0.950 . S
C2378 C2377 1.524 . S
C2378 C2379 1.415 . S
C2379 H2349 0.950 . S
C2379 C2374 1.363 . S
C2379 C2378 1.415 . S
H2380 C2377 0.999 . S
H2381 C2362 0.913 . S
H2382 C2400 0.951 . S
H2383 C2402 0.951 . S
H2384 C2404 0.950 . S
H2385 C2405 0.950 . S
H2386 C2407 0.950 . S
H2387 C2410 0.950 . S
H2388 C2411 0.950 . S
H2389 C2413 0.950 . S
H2390 C2414 0.950 . S
H2391 C2415 0.951 . S
H2392 C2417 0.951 . S
H2393 C2419 0.950 . S
H2394 C2420 0.950 . S
H2395 C2422 0.950 . S
H2396 C2425 0.950 . S
H2397 C2426 0.950 . S
H2398 C2428 0.950 . S
H2399 C2429 0.950 . S
C2400 H2382 0.951 . S
C2400 C2401 1.366 . S
C2400 C2402 1.388 . S
C2401 C2400 1.366 . S
C2401 C2405 1.385 . S
C2402 H2383 0.951 . S
C2402 C2400 1.388 . S
C2402 C2403 1.366 . S
C2403 C2402 1.366 . S
C2403 C2404 1.414 . S
C2403 C2406 1.499 . S
C2404 H2384 0.950 . S
C2404 C2403 1.414 . S
C2404 C2405 1.374 . S
C2405 H2385 0.950 . S
C2405 C2401 1.385 . S
C2405 C2404 1.374 . S
C2406 C2403 1.499 . S
C2406 C2407 1.373 . S
C2406 C2408 1.389 . S
C2407 H2386 0.950 . S
C2407 C2406 1.373 . S
C2407 C2423 1.377 . S
C2408 C2406 1.389 . S
C2408 C2409 1.524 . S
C2408 C2422 1.377 . S
C2409 C2408 1.524 . S
C2409 C2410 1.397 . S
C2409 C2414 1.363 . S
C2410 H2387 0.950 . S
C2410 C2409 1.397 . S
C2410 C2411 1.334 . S
C2411 H2388 0.950 . S
C2411 C2410 1.334 . S
C2411 C2412 1.287 . S
C2412 C2411 1.287 . S
C2412 C2413 1.524 . S
C2412 H2431 0.913 . S
C2413 H2389 0.950 . S
C2413 C2412 1.524 . S
C2413 C2414 1.415 . S
C2414 H2390 0.950 . S
C2414 C2409 1.363 . S
C2414 C2413 1.415 . S
C2415 H2391 0.951 . S
C2415 C2416 1.366 . S
C2415 C2417 1.388 . S
C2416 C2415 1.366 . S
C2416 C2420 1.385 . S
C2417 H2392 0.951 . S
C2417 C2415 1.388 . S
C2417 C2418 1.366 . S
C2418 C2417 1.366 . S
C2418 C2419 1.414 . S
C2418 C2421 1.499 . S
C2419 H2393 0.950 . S
C2419 C2418 1.414 . S
C2419 C2420 1.374 . S
C2420 H2394 0.950 . S
C2420 C2416 1.385 . S
C2420 C2419 1.374 . S
C2421 C2418 1.499 . S
C2421 C2422 1.373 . S
C2421 C2423 1.389 . S
C2422 H2395 0.950 . S
C2422 C2408 1.377 . S
C2422 C2421 1.373 . S
C2423 C2407 1.377 . S
C2423 C2421 1.389 . S
C2423 C2424 1.524 . S
C2424 C2423 1.524 . S
C2424 C2425 1.397 . S
C2424 C2429 1.363 . S
C2425 H2396 0.950 . S
C2425 C2424 1.397 . S
C2425 C2426 1.334 . S
C2426 H2397 0.950 . S
C2426 C2425 1.334 . S
C2426 C2427 1.287 . S
C2427 C2426 1.287 . S
C2427 C2428 1.524 . S
C2427 H2430 0.999 . S
C2428 H2398 0.950 . S
C2428 C2427 1.524 . S
C2428 C2429 1.415 . S
C2429 H2399 0.950 . S
C2429 C2424 1.363 . S
C2429 C2428 1.415 . S
H2430 C2427 0.999 . S
H2431 C2412 0.913 . S
H2432 C2450 0.951 . S
H2433 C2452 0.951 . S
H2434 C2454 0.950 . S
H2435 C2455 0.950 . S
H2436 C2457 0.950 . S
H2437 C2460 0.950 . S
H2438 C2461 0.950 . S
H2439 C2463 0.950 . S
H2440 C2464 0.950 . S
H2441 C2465 0.951 . S
H2442 C2467 0.951 . S
H2443 C2469 0.950 . S
H2444 C2470 0.950 . S
H2445 C2472 0.950 . S
H2446 C2475 0.950 . S
H2447 C2476 0.950 . S
H2448 C2478 0.950 . S
H2449 C2479 0.950 . S
C2450 H2432 0.951 . S
C2450 C2451 1.366 . S
C2450 C2452 1.388 . S
C2451 C2450 1.366 . S
C2451 C2455 1.385 . S
C2452 H2433 0.951 . S
C2452 C2450 1.388 . S
C2452 C2453 1.366 . S
C2453 C2452 1.366 . S
C2453 C2454 1.414 . S
C2453 C2456 1.499 . S
C2454 H2434 0.950 . S
C2454 C2453 1.414 . S
C2454 C2455 1.374 . S
C2455 H2435 0.950 . S
C2455 C2451 1.385 . S
C2455 C2454 1.374 . S
C2456 C2453 1.499 . S
C2456 C2457 1.373 . S
C2456 C2458 1.389 . S
C2457 H2436 0.950 . S
C2457 C2456 1.373 . S
C2457 C2473 1.377 . S
C2458 C2456 1.389 . S
C2458 C2459 1.524 . S
C2458 C2472 1.377 . S
C2459 C2458 1.524 . S
C2459 C2460 1.397 . S
C2459 C2464 1.363 . S
C2460 H2437 0.950 . S
C2460 C2459 1.397 . S
C2460 C2461 1.334 . S
C2461 H2438 0.950 . S
C2461 C2460 1.334 . S
C2461 C2462 1.287 . S
C2462 C2461 1.287 . S
C2462 C2463 1.524 . S
C2462 H2481 0.913 . S
C2463 H2439 0.950 . S
C2463 C2462 1.524 . S
C2463 C2464 1.415 . S
C2464 H2440 0.950 . S
C2464 C2459 1.363 . S
C2464 C2463 1.415 . S
C2465 H2441 0.951 . S
C2465 C2466 1.366 . S
C2465 C2467 1.388 . S
C2466 C2465 1.366 . S
C2466 C2470 1.385 . S
C2467 H2442 0.951 . S
C2467 C2465 1.388 . S
C2467 C2468 1.366 . S
C2468 C2467 1.366 . S
C2468 C2469 1.414 . S
C2468 C2471 1.499 . S
C2469 H2443 0.950 . S
C2469 C2468 1.414 . S
C2469 C2470 1.374 . S
C2470 H2444 0.950 . S
C2470 C2466 1.385 . S
C2470 C2469 1.374 . S
C2471 C2468 1.499 . S
C2471 C2472 1.373 . S
C2471 C2473 1.389 . S
C2472 H2445 0.950 . S
C2472 C2458 1.377 . S
C2472 C2471 1.373 . S
C2473 C2457 1.377 . S
C2473 C2471 1.389 . S
C2473 C2474 1.524 . S
C2474 C2473 1.524 . S
C2474 C2475 1.397 . S
C2474 C2479 1.363 . S
C2475 H2446 0.950 . S
C2475 C2474 1.397 . S
C2475 C2476 1.334 . S
C2476 H2447 0.950 . S
C2476 C2475 1.334 . S
C2476 C2477 1.287 . S
C2477 C2476 1.287 . S
C2477 C2478 1.524 . S
C2477 H2480 0.999 . S
C2478 H2448 0.950 . S
C2478 C2477 1.524 . S
C2478 C2479 1.415 . S
C2479 H2449 0.950 . S
C2479 C2474 1.363 . S
C2479 C2478 1.415 . S
H2480 C2477 0.999 . S
H2481 C2462 0.913 . S
H2482 C2500 0.951 . S
H2483 C2502 0.951 . S
H2484 C2504 0.950 . S
H2485 C2505 0.950 . S
H2486 C2507 0.950 . S
H2487 C2510 0.950 . S
H2488 C2511 0.950 . S
H2489 C2513 0.950 . S
H2490 C2514 0.950 . S
H2491 C2515 0.951 . S
H2492 C2517 0.951 . S
H2493 C2519 0.950 . S
H2494 C2520 0.950 . S
H2495 C2522 0.950 . S
H2496 C2525 0.950 . S
H2497 C2526 0.950 . S
H2498 C2528 0.950 . S
H2499 C2529 0.950 . S
C2500 H2482 0.951 . S
C2500 C2501 1.366 . S
C2500 C2502 1.388 . S
C2501 C2500 1.366 . S
C2501 C2505 1.385 . S
C2502 H2483 0.951 . S
C2502 C2500 1.388 . S
C2502 C2503 1.366 . S
C2503 C2502 1.366 . S
C2503 C2504 1.414 . S
C2503 C2506 1.499 . S
C2504 H2484 0.950 . S
C2504 C2503 1.414 . S
C2504 C2505 1.374 . S
C2505 H2485 0.950 . S
C2505 C2501 1.385 . S
C2505 C2504 1.374 . S
C2506 C2503 1.499 . S
C2506 C2507 1.373 . S
C2506 C2508 1.389 . S
C2507 H2486 0.950 . S
C2507 C2506 1.373 . S
C2507 C2523 1.377 . S
C2508 C2506 1.389 . S
C2508 C2509 1.524 . S
C2508 C2522 1.377 . S
C2509 C2508 1.524 . S
C2509 C2510 1.397 . S
C2509 C2514 1.363 . S
C2510 H2487 0.950 . S
C2510 C2509 1.397 . S
C2510 C2511 1.334 . S
C2511 H2488 0.950 . S
C2511 C2510 1.334 . S
C2511 C2512 1.287 . S
C2512 C2511 1.287 . S
C2512 C2513 1.524 . S
C2512 H2531 0.913 . S
C2513 H2489 0.950 . S
C2513 C2512 1.524 . S
C2513 C2514 1.415 . S
C2514 H2490 0.950 . S
C2514 C2509 1.363 . S
C2514 C2513 1.415 . S
C2515 H2491 0.951 . S
C2515 C2516 1.366 . S
C2515 C2517 1.388 . S
C2516 C2515 1.366 . S
C2516 C2520 1.385 . S
C2517 H2492 0.951 . S
C2517 C2515 1.388 . S
C2517 C2518 1.366 . S
C2518 C2517 1.366 . S
C2518 C2519 1.414 . S
C2518 C2521 1.499 . S
C2519 H2493 0.950 . S
C2519 C2518 1.414 . S
C2519 C2520 1.374 . S
C2520 H2494 0.950 . S
C2520 C2516 1.385 . S
C2520 C2519 1.374 . S
C2521 C2518 1.499 . S
C2521 C2522 1.373 . S
C2521 C2523 1.389 . S
C2522 H2495 0.950 . S
C2522 C2508 1.377 . S
C2522 C2521 1.373 . S
C2523 C2507 1.377 . S
C2523 C2521 1.389 . S
C2523 C2524 1.524 . S
C2524 C2523 1.524 . S
C2524 C2525 1.397 . S
C2524 C2529 1.363 . S
C2525 H2496 0.950 . S
C2525 C2524 1.397 . S
C2525 C2526 1.334 . S
C2526 H2497 0.950 . S
C2526 C2525 1.334 . S
C2526 C2527 1.287 . S
C2527 C2526 1.287 . S
C2527 C2528 1.524 . S
C2527 H2530 0.999 . S
C2528 H2498 0.950 . S
C2528 C2527 1.524 . S
C2528 C2529 1.415 . S
C2529 H2499 0.950 . S
C2529 C2524 1.363 . S
C2529 C2528 1.415 . S
H2530 C2527 0.999 . S
H2531 C2512 0.913 . S
H2532 C2550 0.951 . S
H2533 C2552 0.951 . S
H2534 C2554 0.950 1_554 S
H2535 C2555 0.950 1_554 S
H2536 C2557 0.950 . S
H2537 C2560 0.950 . S
H2538 C2561 0.950 . S
H2539 C2563 0.950 . S
H2540 C2564 0.950 . S
H2541 C2565 0.951 . S
H2542 C2567 0.951 . S
H2543 C2569 0.950 . S
H2544 C2570 0.950 . S
H2545 C2572 0.950 . S
H2546 C2575 0.950 . S
H2547 C2576 0.950 . S
H2548 C2578 0.950 . S
H2549 C2579 0.950 . S
C2550 H2532 0.951 . S
C2550 C2551 1.366 . S
C2550 C2552 1.388 . S
C2551 C2550 1.366 . S
C2551 C2555 1.385 . S
C2552 H2533 0.951 . S
C2552 C2550 1.388 . S
C2552 C2553 1.366 . S
C2553 C2552 1.366 . S
C2553 C2554 1.414 . S
C2553 C2556 1.499 . S
C2554 H2534 0.950 1_556 S
C2554 C2553 1.414 . S
C2554 C2555 1.374 . S
C2555 H2535 0.950 1_556 S
C2555 C2551 1.385 . S
C2555 C2554 1.374 . S
C2556 C2553 1.499 . S
C2556 C2557 1.373 1_556 S
C2556 C2558 1.389 . S
C2557 H2536 0.950 . S
C2557 C2556 1.373 1_554 S
C2557 C2573 1.377 . S
C2558 C2556 1.389 . S
C2558 C2559 1.524 . S
C2558 C2572 1.377 . S
C2559 C2558 1.524 . S
C2559 C2560 1.397 . S
C2559 C2564 1.363 . S
C2560 H2537 0.950 . S
C2560 C2559 1.397 . S
C2560 C2561 1.334 . S
C2561 H2538 0.950 . S
C2561 C2560 1.334 . S
C2561 C2562 1.287 . S
C2562 C2561 1.287 . S
C2562 C2563 1.524 . S
C2562 H2581 0.913 . S
C2563 H2539 0.950 . S
C2563 C2562 1.524 . S
C2563 C2564 1.415 . S
C2564 H2540 0.950 . S
C2564 C2559 1.363 . S
C2564 C2563 1.415 . S
C2565 H2541 0.951 . S
C2565 C2566 1.366 1_554 S
C2565 C2567 1.388 . S
C2566 C2565 1.366 1_556 S
C2566 C2570 1.385 . S
C2567 H2542 0.951 . S
C2567 C2565 1.388 . S
C2567 C2568 1.366 1_554 S
C2568 C2567 1.366 1_556 S
C2568 C2569 1.414 . S
C2568 C2571 1.499 . S
C2569 H2543 0.950 . S
C2569 C2568 1.414 . S
C2569 C2570 1.374 . S
C2570 H2544 0.950 . S
C2570 C2566 1.385 . S
C2570 C2569 1.374 . S
C2571 C2568 1.499 . S
C2571 C2572 1.373 . S
C2571 C2573 1.389 1_556 S
C2572 H2545 0.950 . S
C2572 C2558 1.377 . S
C2572 C2571 1.373 . S
C2573 C2557 1.377 . S
C2573 C2571 1.389 1_554 S
C2573 C2574 1.524 . S
C2574 C2573 1.524 . S
C2574 C2575 1.397 . S
C2574 C2579 1.363 . S
C2575 H2546 0.950 . S
C2575 C2574 1.397 . S
C2575 C2576 1.334 . S
C2576 H2547 0.950 . S
C2576 C2575 1.334 . S
C2576 C2577 1.287 . S
C2577 C2576 1.287 . S
C2577 C2578 1.524 . S
C2577 H2580 0.999 . S
C2578 H2548 0.950 . S
C2578 C2577 1.524 . S
C2578 C2579 1.415 . S
C2579 H2549 0.950 . S
C2579 C2574 1.363 . S
C2579 C2578 1.415 . S
H2580 C2577 0.999 . S
H2581 C2562 0.913 . S
H2582 C2600 0.951 . S
H2583 C2602 0.951 . S
H2584 C2604 0.950 . S
H2585 C2605 0.950 . S
H2586 C2607 0.950 . S
H2587 C2610 0.950 . S
H2588 C2611 0.950 . S
H2589 C2613 0.950 . S
H2590 C2614 0.950 . S
H2591 C2615 0.951 . S
H2592 C2617 0.951 . S
H2593 C2619 0.950 . S
H2594 C2620 0.950 . S
H2595 C2622 0.950 . S
H2596 C2625 0.950 . S
H2597 C2626 0.950 . S
H2598 C2628 0.950 . S
H2599 C2629 0.950 . S
C2600 H2582 0.951 . S
C2600 C2601 1.366 . S
C2600 C2602 1.388 . S
C2601 C2600 1.366 . S
C2601 C2605 1.385 . S
C2602 H2583 0.951 . S
C2602 C2600 1.388 . S
C2602 C2603 1.366 . S
C2603 C2602 1.366 . S
C2603 C2604 1.414 . S
C2603 C2606 1.499 . S
C2604 H2584 0.950 . S
C2604 C2603 1.414 . S
C2604 C2605 1.374 . S
C2605 H2585 0.950 . S
C2605 C2601 1.385 . S
C2605 C2604 1.374 . S
C2606 C2603 1.499 . S
C2606 C2607 1.373 . S
C2606 C2608 1.389 . S
C2607 H2586 0.950 . S
C2607 C2606 1.373 . S
C2607 C2623 1.377 . S
C2608 C2606 1.389 . S
C2608 C2609 1.524 . S
C2608 C2622 1.377 . S
C2609 C2608 1.524 . S
C2609 C2610 1.397 . S
C2609 C2614 1.363 . S
C2610 H2587 0.950 . S
C2610 C2609 1.397 . S
C2610 C2611 1.334 . S
C2611 H2588 0.950 . S
C2611 C2610 1.334 . S
C2611 C2612 1.287 . S
C2612 C2611 1.287 . S
C2612 C2613 1.524 . S
C2612 H2631 0.913 . S
C2613 H2589 0.950 . S
C2613 C2612 1.524 . S
C2613 C2614 1.415 . S
C2614 H2590 0.950 . S
C2614 C2609 1.363 . S
C2614 C2613 1.415 . S
C2615 H2591 0.951 . S
C2615 C2616 1.366 . S
C2615 C2617 1.388 . S
C2616 C2615 1.366 . S
C2616 C2620 1.385 . S
C2617 H2592 0.951 . S
C2617 C2615 1.388 . S
C2617 C2618 1.366 . S
C2618 C2617 1.366 . S
C2618 C2619 1.414 . S
C2618 C2621 1.499 . S
C2619 H2593 0.950 . S
C2619 C2618 1.414 . S
C2619 C2620 1.374 . S
C2620 H2594 0.950 . S
C2620 C2616 1.385 . S
C2620 C2619 1.374 . S
C2621 C2618 1.499 . S
C2621 C2622 1.373 . S
C2621 C2623 1.389 . S
C2622 H2595 0.950 . S
C2622 C2608 1.377 . S
C2622 C2621 1.373 . S
C2623 C2607 1.377 . S
C2623 C2621 1.389 . S
C2623 C2624 1.524 . S
C2624 C2623 1.524 . S
C2624 C2625 1.397 . S
C2624 C2629 1.363 . S
C2625 H2596 0.950 . S
C2625 C2624 1.397 . S
C2625 C2626 1.334 . S
C2626 H2597 0.950 . S
C2626 C2625 1.334 . S
C2626 C2627 1.287 . S
C2627 C2626 1.287 . S
C2627 C2628 1.524 . S
C2627 H2630 0.999 . S
C2628 H2598 0.950 . S
C2628 C2627 1.524 . S
C2628 C2629 1.415 . S
C2629 H2599 0.950 . S
C2629 C2624 1.363 . S
C2629 C2628 1.415 . S
H2630 C2627 0.999 . S
H2631 C2612 0.913 . S
H2632 C2650 0.951 . S
H2633 C2652 0.951 . S
H2634 C2654 0.950 . S
H2635 C2655 0.950 . S
H2636 C2657 0.950 . S
H2637 C2660 0.950 . S
H2638 C2661 0.950 . S
H2639 C2663 0.950 . S
H2640 C2664 0.950 . S
H2641 C2665 0.951 . S
H2642 C2667 0.951 . S
H2643 C2669 0.950 . S
H2644 C2670 0.950 . S
H2645 C2672 0.950 . S
H2646 C2675 0.950 . S
H2647 C2676 0.950 . S
H2648 C2678 0.950 . S
H2649 C2679 0.950 . S
C2650 H2632 0.951 . S
C2650 C2651 1.366 . S
C2650 C2652 1.388 . S
C2651 C2650 1.366 . S
C2651 C2655 1.385 . S
C2652 H2633 0.951 . S
C2652 C2650 1.388 . S
C2652 C2653 1.366 . S
C2653 C2652 1.366 . S
C2653 C2654 1.414 . S
C2653 C2656 1.499 . S
C2654 H2634 0.950 . S
C2654 C2653 1.414 . S
C2654 C2655 1.374 . S
C2655 H2635 0.950 . S
C2655 C2651 1.385 . S
C2655 C2654 1.374 . S
C2656 C2653 1.499 . S
C2656 C2657 1.373 . S
C2656 C2658 1.389 . S
C2657 H2636 0.950 . S
C2657 C2656 1.373 . S
C2657 C2673 1.377 . S
C2658 C2656 1.389 . S
C2658 C2659 1.524 . S
C2658 C2672 1.377 . S
C2659 C2658 1.524 . S
C2659 C2660 1.397 . S
C2659 C2664 1.363 1_554 S
C2660 H2637 0.950 . S
C2660 C2659 1.397 . S
C2660 C2661 1.334 . S
C2661 H2638 0.950 . S
C2661 C2660 1.334 . S
C2661 C2662 1.287 1_554 S
C2662 C2661 1.287 1_556 S
C2662 C2663 1.524 . S
C2662 H2681 0.913 . S
C2663 H2639 0.950 . S
C2663 C2662 1.524 . S
C2663 C2664 1.415 . S
C2664 H2640 0.950 . S
C2664 C2659 1.363 1_556 S
C2664 C2663 1.415 . S
C2665 H2641 0.951 . S
C2665 C2666 1.366 . S
C2665 C2667 1.388 . S
C2666 C2665 1.366 . S
C2666 C2670 1.385 . S
C2667 H2642 0.951 . S
C2667 C2665 1.388 . S
C2667 C2668 1.366 . S
C2668 C2667 1.366 . S
C2668 C2669 1.414 . S
C2668 C2671 1.499 . S
C2669 H2643 0.950 . S
C2669 C2668 1.414 . S
C2669 C2670 1.374 . S
C2670 H2644 0.950 . S
C2670 C2666 1.385 . S
C2670 C2669 1.374 . S
C2671 C2668 1.499 . S
C2671 C2672 1.373 . S
C2671 C2673 1.389 . S
C2672 H2645 0.950 . S
C2672 C2658 1.377 . S
C2672 C2671 1.373 . S
C2673 C2657 1.377 . S
C2673 C2671 1.389 . S
C2673 C2674 1.524 . S
C2674 C2673 1.524 . S
C2674 C2675 1.397 . S
C2674 C2679 1.363 . S
C2675 H2646 0.950 . S
C2675 C2674 1.397 . S
C2675 C2676 1.334 . S
C2676 H2647 0.950 . S
C2676 C2675 1.334 . S
C2676 C2677 1.287 . S
C2677 C2676 1.287 . S
C2677 C2678 1.524 . S
C2677 H2680 0.999 . S
C2678 H2648 0.950 . S
C2678 C2677 1.524 . S
C2678 C2679 1.415 . S
C2679 H2649 0.950 . S
C2679 C2674 1.363 . S
C2679 C2678 1.415 . S
H2680 C2677 0.999 . S
H2681 C2662 0.913 . S
H2682 C2700 0.951 . S
H2683 C2702 0.951 . S
H2684 C2704 0.950 . S
H2685 C2705 0.950 . S
H2686 C2707 0.950 . S
H2687 C2710 0.950 1_545 S
H2688 C2711 0.950 . S
H2689 C2713 0.950 . S
H2690 C2714 0.950 . S
H2691 C2715 0.951 1_556 S
H2692 C2717 0.951 . S
H2693 C2719 0.950 . S
H2694 C2720 0.950 . S
H2695 C2722 0.950 . S
H2696 C2725 0.950 . S
H2697 C2726 0.950 . S
H2698 C2728 0.950 . S
H2699 C2729 0.950 . S
C2700 H2682 0.951 . S
C2700 C2701 1.366 1_565 S
C2700 C2702 1.388 . S
C2701 C2700 1.366 1_545 S
C2701 C2705 1.385 . S
C2702 H2683 0.951 . S
C2702 C2700 1.388 . S
C2702 C2703 1.366 . S
C2703 C2702 1.366 . S
C2703 C2704 1.414 . S
C2703 C2706 1.499 . S
C2704 H2684 0.950 . S
C2704 C2703 1.414 . S
C2704 C2705 1.374 1_565 S
C2705 H2685 0.950 . S
C2705 C2701 1.385 . S
C2705 C2704 1.374 1_545 S
C2706 C2703 1.499 . S
C2706 C2707 1.373 . S
C2706 C2708 1.389 . S
C2707 H2686 0.950 . S
C2707 C2706 1.373 . S
C2707 C2723 1.377 . S
C2708 C2706 1.389 . S
C2708 C2709 1.524 . S
C2708 C2722 1.377 . S
C2709 C2708 1.524 . S
C2709 C2710 1.397 . S
C2709 C2714 1.363 . S
C2710 H2687 0.950 1_565 S
C2710 C2709 1.397 . S
C2710 C2711 1.334 1_565 S
C2711 H2688 0.950 . S
C2711 C2710 1.334 1_545 S
C2711 C2712 1.287 . S
C2712 C2711 1.287 . S
C2712 C2713 1.524 1_545 S
C2712 H2731 0.913 . S
C2713 H2689 0.950 . S
C2713 C2712 1.524 1_565 S
C2713 C2714 1.415 . S
C2714 H2690 0.950 . S
C2714 C2709 1.363 . S
C2714 C2713 1.415 . S
C2715 H2691 0.951 1_554 S
C2715 C2716 1.366 . S
C2715 C2717 1.388 . S
C2716 C2715 1.366 . S
C2716 C2720 1.385 . S
C2717 H2692 0.951 . S
C2717 C2715 1.388 . S
C2717 C2718 1.366 . S
C2718 C2717 1.366 . S
C2718 C2719 1.414 . S
C2718 C2721 1.499 . S
C2719 H2693 0.950 . S
C2719 C2718 1.414 . S
C2719 C2720 1.374 . S
C2720 H2694 0.950 . S
C2720 C2716 1.385 . S
C2720 C2719 1.374 . S
C2721 C2718 1.499 . S
C2721 C2722 1.373 . S
C2721 C2723 1.389 . S
C2722 H2695 0.950 . S
C2722 C2708 1.377 . S
C2722 C2721 1.373 . S
C2723 C2707 1.377 . S
C2723 C2721 1.389 . S
C2723 C2724 1.524 1_554 S
C2724 C2723 1.524 1_556 S
C2724 C2725 1.397 1_556 S
C2724 C2729 1.363 . S
C2725 H2696 0.950 . S
C2725 C2724 1.397 1_554 S
C2725 C2726 1.333 1_554 S
C2726 H2697 0.950 . S
C2726 C2725 1.333 1_556 S
C2726 C2727 1.287 . S
C2727 C2726 1.287 . S
C2727 C2728 1.524 . S
C2727 H2730 0.999 . S
C2728 H2698 0.950 . S
C2728 C2727 1.524 . S
C2728 C2729 1.415 . S
C2729 H2699 0.950 . S
C2729 C2724 1.363 . S
C2729 C2728 1.415 . S
H2730 C2727 0.999 . S
H2731 C2712 0.913 . S
C366 C186 1.034 . S
C351 C62 1.024 . S
C416 C199 1.658 . S
C401 C73 1.614 1_455 S
C451 C84 1.456 . S
C466 C212 1.506 . S
C516 C225 1.241 . S
C501 C49 1.096 . S
C566 C233 1.346 . S
C551 C118 1.353 . S
C616 C246 1.529 . S
C601 C137 1.337 . S
C651 C129 1.569 . S
C666 C259 1.557 . S
C716 C272 1.917 . S
C701 C106 1.889 . S
C751 C128 1.778 . S
C766 C290 1.819 . S
C816 C301 1.669 . S
C801 C104 1.503 . S
C851 C115 1.585 . S
C866 C285 1.793 . S
C916 C293 1.732 . S
C901 C139 1.718 . S
C951 C85 1.586 . S
C966 C316 1.579 . S
C1001 C52 1.143 . S
C1016 C306 1.126 . S
C1051 C60 0.875 . S
C1066 C311 0.925 . S
C1101 C71 1.452 . S
C1116 C314 1.568 . S
C1151 C40 1.664 . S
C1166 C223 1.724 1_565 S
C1201 C162 0.945 . S
C1216 C215 0.937 . S
C1266 C184 1.100 . S
C1251 C173 1.120 1_565 S
C1316 C189 1.790 . S
C1301 C93 1.597 . S
C1351 C51 1.432 1_545 S
C1366 C236 1.459 . S
C1416 C275 1.501 . S
C1401 C126 1.357 . S
C1466 C228 1.814 . S
C1451 C107 1.822 . S
C1516 C254 1.547 . S
C1501 C140 1.552 . S
C1566 C264 1.034 . S
C1551 C161 1.023 . S
C1601 C172 1.614 . S
C1616 C277 1.652 . S
C1651 C95 1.456 . S
C1666 C238 1.506 . S
C1716 C251 1.242 . S
C1701 C148 1.098 . S
C1751 C41 1.353 . S
C1766 C207 1.346 . S
C1816 C220 1.530 . S
C1801 C5 1.337 1_655 S
C1866 C181 1.558 . S
C1851 C19 1.568 . S
C1916 C194 1.917 . S
C1901 C29 1.889 . S
C1951 C18 1.778 . S
C1966 C303 1.819 . S
C2001 C27 1.502 . S
C2016 C288 1.670 . S
C2051 C38 1.585 . S
C2066 C298 1.792 . S
C2101 C7 1.719 . S
C2116 C280 1.732 . S
C2166 C329 1.579 . S
C2151 C96 1.587 . S
C2216 C319 1.125 . S
C2201 C151 1.143 . S
C2266 C324 0.926 . S
C2251 C159 0.873 . S
C2301 C170 1.450 . S
C2316 C327 1.573 . S
C2351 C117 1.665 . S
C2366 C249 1.730 . S
C2416 C241 0.936 . S
C2401 C63 0.945 . S
C2466 C262 1.101 . S
C2451 C74 1.119 . S
C2516 C267 1.790 . S
C2501 C82 1.596 . S
C2551 C150 1.432 . S
C2566 C210 1.459 1_556 S
C2616 C197 1.501 . S
C2601 C16 1.358 . S
C2651 C30 1.822 . S
C2666 C202 1.813 . S
C2716 C176 1.548 . S
C2701 C8 1.553 . S
