# Generated by pormake.
# Topology pyr, (3,6)-cn, num edge types: 1
# Building blocks:
#     Node 0, Type 0, BuildingBlock: WUSLED_clean_sbu_0, # of connection points: 3
#     Node 1, Type 0, BuildingBlock: WUSLED_clean_sbu_0, # of connection points: 3
#     Node 2, Type 0, BuildingBlock: WUSLED_clean_sbu_0, # of connection points: 3
#     Node 3, Type 0, BuildingBlock: WUSLED_clean_sbu_0, # of connection points: 3
#     Node 4, Type 0, BuildingBlock: WUSLED_clean_sbu_0, # of connection points: 3
#     Node 5, Type 0, BuildingBlock: WUSLED_clean_sbu_0, # of connection points: 3
#     Node 6, Type 0, BuildingBlock: WUSLED_clean_sbu_0, # of connection points: 3
#     Node 7, Type 0, BuildingBlock: WUSLED_clean_sbu_0, # of connection points: 3
#     Node 8, Type 1, BuildingBlock: MIDCAF_clean_sbu_0, # of connection points: 6
#     Node 9, Type 1, BuildingBlock: MIDCAF_clean_sbu_0, # of connection points: 6
#     Node 10, Type 1, BuildingBlock: MIDCAF_clean_sbu_0, # of connection points: 6
#     Node 11, Type 1, BuildingBlock: MIDCAF_clean_sbu_0, # of connection points: 6
#     Edge 12, Type (0, 1), BuildingBlock: AJUNOK_clean_linker_0, # of connection points: 2
#     Edge 13, Type (0, 1), BuildingBlock: AJUNOK_clean_linker_0, # of connection points: 2
#     Edge 14, Type (0, 1), BuildingBlock: AJUNOK_clean_linker_0, # of connection points: 2
#     Edge 15, Type (0, 1), BuildingBlock: AJUNOK_clean_linker_0, # of connection points: 2
#     Edge 16, Type (0, 1), BuildingBlock: AJUNOK_clean_linker_0, # of connection points: 2
#     Edge 17, Type (0, 1), BuildingBlock: AJUNOK_clean_linker_0, # of connection points: 2
#     Edge 18, Type (0, 1), BuildingBlock: AJUNOK_clean_linker_0, # of connection points: 2
#     Edge 19, Type (0, 1), BuildingBlock: AJUNOK_clean_linker_0, # of connection points: 2
#     Edge 20, Type (0, 1), BuildingBlock: AJUNOK_clean_linker_0, # of connection points: 2
#     Edge 21, Type (0, 1), BuildingBlock: AJUNOK_clean_linker_0, # of connection points: 2
#     Edge 22, Type (0, 1), BuildingBlock: AJUNOK_clean_linker_0, # of connection points: 2
#     Edge 23, Type (0, 1), BuildingBlock: AJUNOK_clean_linker_0, # of connection points: 2
#     Edge 24, Type (0, 1), BuildingBlock: AJUNOK_clean_linker_0, # of connection points: 2
#     Edge 25, Type (0, 1), BuildingBlock: AJUNOK_clean_linker_0, # of connection points: 2
#     Edge 26, Type (0, 1), BuildingBlock: AJUNOK_clean_linker_0, # of connection points: 2
#     Edge 27, Type (0, 1), BuildingBlock: AJUNOK_clean_linker_0, # of connection points: 2
#     Edge 28, Type (0, 1), BuildingBlock: AJUNOK_clean_linker_0, # of connection points: 2
#     Edge 29, Type (0, 1), BuildingBlock: AJUNOK_clean_linker_0, # of connection points: 2
#     Edge 30, Type (0, 1), BuildingBlock: AJUNOK_clean_linker_0, # of connection points: 2
#     Edge 31, Type (0, 1), BuildingBlock: AJUNOK_clean_linker_0, # of connection points: 2
#     Edge 32, Type (0, 1), BuildingBlock: AJUNOK_clean_linker_0, # of connection points: 2
#     Edge 33, Type (0, 1), BuildingBlock: AJUNOK_clean_linker_0, # of connection points: 2
#     Edge 34, Type (0, 1), BuildingBlock: AJUNOK_clean_linker_0, # of connection points: 2
#     Edge 35, Type (0, 1), BuildingBlock: AJUNOK_clean_linker_0, # of connection points: 2
# Relax obj value: 0.020
# Max RMSD: 0.063
# Mean RMSD: 0.028
data_MOF--net-pyr--node1-WUSLED_clean_sbu_0--node2-MIDCAF_clean_sbu_0--edge1-AJUNOK_clean_linker_0
_symmetry_space_group_name_H-M    P1
_symmetry_Int_Tables_number       1
_symmetry_cell_setting            triclinic
loop_
_symmetry_equiv_pos_as_xyz
'x, y, z'
_cell_length_a     36.57612
_cell_length_b     36.676389
_cell_length_c     36.638945
_cell_angle_alpha  89.63048
_cell_angle_beta   90.247266
_cell_angle_gamma 90.73991
loop_
_atom_site_label
_atom_site_type_symbol
_atom_site_fract_x
_atom_site_fract_y
_atom_site_fract_z
_atom_type_partial_charge
C0 C 0.22044 0.32202 0.16952 0.0
C1 C 0.18496 0.32721 0.18278 0.0
C2 C 0.17781 0.38049 0.14317 0.0
C3 C 0.16385 0.35616 0.16972 0.0
C4 C 0.21378 0.37573 0.13077 0.0
C5 C 0.23481 0.34669 0.14374 0.0
U6 U 0.2404 0.242 0.23456 0.0
O7 O 0.25504 0.18555 0.22207 0.0
O8 O 0.29358 0.22009 0.25267 0.0
C9 C 0.28819 0.18894 0.23578 0.0
C10 C 0.24225 0.2904 0.18121 0.0
C11 C 0.31835 0.1762 0.21237 0.0
C12 C 0.34279 0.16227 0.15241 0.0
C13 C 0.31556 0.17742 0.17412 0.0
C14 C 0.37702 0.14582 0.20662 0.0
C15 C 0.37361 0.14593 0.16839 0.0
C16 C 0.34955 0.16071 0.22839 0.0
C17 C 0.17422 0.22727 0.31663 0.0
C18 C 0.1799 0.18489 0.36777 0.0
C19 C 0.12144 0.21225 0.35429 0.0
C20 C 0.13719 0.23151 0.32517 0.0
C21 C 0.14246 0.18843 0.37572 0.0
C22 C 0.19566 0.2041 0.33836 0.0
C23 C 0.18895 0.2467 0.28433 0.0
O24 O 0.26087 0.29419 0.21174 0.0
O25 O 0.22571 0.25848 0.17866 0.0
O26 O 0.18423 0.23019 0.25292 0.0
O27 O 0.22132 0.26244 0.28757 0.0
H28 H 0.17336 0.30851 0.20275 0.0
H29 H 0.13622 0.35894 0.17974 0.0
H30 H 0.22564 0.3944 0.11094 0.0
H31 H 0.26222 0.34325 0.13331 0.0
H32 H 0.33955 0.16294 0.12301 0.0
H33 H 0.29195 0.18939 0.16098 0.0
H34 H 0.40028 0.13311 0.21967 0.0
H35 H 0.35226 0.15938 0.25783 0.0
H36 H 0.1966 0.16619 0.38336 0.0
H37 H 0.09256 0.21545 0.35967 0.0
H38 H 0.12017 0.24928 0.30878 0.0
H39 H 0.22428 0.20029 0.33214 0.0
C40 C 0.23774 0.85547 0.68105 0.0
C41 C 0.2418 0.893 0.68773 0.0
C42 C 0.18508 0.905 0.65473 0.0
C43 C 0.21568 0.91755 0.67467 0.0
C44 C 0.18003 0.86726 0.65009 0.0
C45 C 0.20619 0.84277 0.66302 0.0
U46 U 0.32057 0.82155 0.7372 0.0
O47 O 0.3361 0.76502 0.75073 0.0
O48 O 0.37245 0.79972 0.71747 0.0
C49 C 0.36586 0.7669 0.73075 0.0
C50 C 0.26723 0.82956 0.68956 0.0
C51 C 0.37309 0.73564 0.70641 0.0
C52 C 0.39209 0.71147 0.64766 0.0
C53 C 0.37928 0.74038 0.66876 0.0
C54 C 0.39053 0.67206 0.70086 0.0
C55 C 0.39887 0.67724 0.66372 0.0
C56 C 0.37785 0.70094 0.72193 0.0
C57 C 0.3541 0.8774 0.82085 0.0
C58 C 0.41513 0.88016 0.84766 0.0
C59 C 0.36499 0.91028 0.87744 0.0
C60 C 0.34111 0.89793 0.85011 0.0
C61 C 0.40249 0.90247 0.87599 0.0
C62 C 0.39116 0.86777 0.82028 0.0
C63 C 0.32912 0.86918 0.79008 0.0
O64 O 0.30078 0.84165 0.68421 0.0
O65 O 0.2637 0.81015 0.71966 0.0
O66 O 0.30842 0.83976 0.79317 0.0
O67 O 0.3427 0.87373 0.75718 0.0
H68 H 0.26579 0.90344 0.70184 0.0
H69 H 0.22001 0.94646 0.67906 0.0
H70 H 0.15686 0.85682 0.63469 0.0
H71 H 0.20251 0.81394 0.6576 0.0
H72 H 0.39885 0.7166 0.61933 0.0
H73 H 0.37589 0.76681 0.65593 0.0
H74 H 0.39541 0.64603 0.71401 0.0
H75 H 0.37335 0.69654 0.75085 0.0
H76 H 0.44376 0.87318 0.84612 0.0
H77 H 0.35441 0.92755 0.89871 0.0
H78 H 0.31263 0.90567 0.85109 0.0
H79 H 0.40177 0.85172 0.79808 0.0
C80 C 0.6793 0.34919 0.74386 0.0
C81 C 0.69175 0.38543 0.74088 0.0
C82 C 0.65106 0.39548 0.68895 0.0
C83 C 0.67775 0.40836 0.71367 0.0
C84 C 0.63994 0.35872 0.69093 0.0
C85 C 0.65384 0.33581 0.7183 0.0
U86 U 0.74322 0.3264 0.82414 0.0
O87 O 0.72978 0.3087 0.87987 0.0
O88 O 0.76102 0.27258 0.84459 0.0
C89 C 0.74378 0.27617 0.87576 0.0
C90 C 0.69084 0.32583 0.77465 0.0
C91 C 0.72004 0.24535 0.8874 0.0
C92 C 0.65941 0.21855 0.89532 0.0
C93 C 0.68229 0.2455 0.88026 0.0
C94 C 0.7118 0.18955 0.92314 0.0
C95 C 0.67381 0.19081 0.91761 0.0
C96 C 0.73471 0.21676 0.9083 0.0
C97 C 0.82461 0.39148 0.84559 0.0
C98 C 0.88066 0.3804 0.87986 0.0
C99 C 0.8569 0.44156 0.87559 0.0
C100 C 0.82791 0.42867 0.854 0.0
C101 C 0.88337 0.41754 0.88925 0.0
C102 C 0.85146 0.36745 0.85843 0.0
C103 C 0.793 0.37887 0.82341 0.0
O104 O 0.72182 0.30857 0.77061 0.0
O105 O 0.68738 0.34023 0.80719 0.0
O106 O 0.7608 0.38212 0.83872 0.0
O107 O 0.79646 0.34812 0.80552 0.0
H108 H 0.71157 0.39623 0.76018 0.0
H109 H 0.68721 0.43645 0.71241 0.0
H110 H 0.61941 0.34813 0.67226 0.0
H111 H 0.64394 0.30789 0.72014 0.0
H112 H 0.63024 0.21988 0.89031 0.0
H113 H 0.67036 0.26713 0.86403 0.0
H114 H 0.72353 0.16847 0.94024 0.0
H115 H 0.76377 0.21613 0.91412 0.0
H116 H 0.901 0.36128 0.88928 0.0
H117 H 0.85801 0.47024 0.88245 0.0
H118 H 0.80767 0.44776 0.84424 0.0
H119 H 0.84978 0.33864 0.85218 0.0
C120 C 0.75091 0.67291 0.34553 0.0
C121 C 0.75106 0.67691 0.3836 0.0
C122 C 0.69146 0.64634 0.38775 0.0
C123 C 0.72174 0.66367 0.40446 0.0
C124 C 0.69105 0.64314 0.3495 0.0
C125 C 0.72056 0.65619 0.32865 0.0
U126 U 0.83232 0.73733 0.32515 0.0
O127 O 0.88807 0.72475 0.30753 0.0
O128 O 0.85286 0.75763 0.27205 0.0
C129 C 0.88394 0.74028 0.27535 0.0
C130 C 0.78248 0.68496 0.32321 0.0
C131 C 0.89528 0.7185 0.24356 0.0
C132 C 0.90477 0.66002 0.21436 0.0
C133 C 0.89186 0.68034 0.24371 0.0
C134 C 0.92373 0.71566 0.18358 0.0
C135 C 0.92119 0.67735 0.18403 0.0
C136 C 0.91103 0.73599 0.21314 0.0
C137 C 0.85234 0.81775 0.39019 0.0
C138 C 0.91031 0.85032 0.39689 0.0
C139 C 0.85574 0.87437 0.42453 0.0
C140 C 0.8354 0.84484 0.41078 0.0
C141 C 0.89356 0.87726 0.41813 0.0
C142 C 0.88991 0.8209 0.38301 0.0
C143 C 0.83065 0.78588 0.37772 0.0
O144 O 0.77895 0.71613 0.30572 0.0
O145 O 0.81489 0.68122 0.33835 0.0
O146 O 0.84646 0.75403 0.38102 0.0
O147 O 0.81297 0.78974 0.34666 0.0
H148 H 0.77406 0.68983 0.3973 0.0
H149 H 0.7231 0.66642 0.43385 0.0
H150 H 0.66787 0.63072 0.33567 0.0
H151 H 0.7198 0.653 0.29927 0.0
H152 H 0.90255 0.63057 0.21577 0.0
H153 H 0.87972 0.66614 0.26677 0.0
H154 H 0.93545 0.72995 0.16038 0.0
H155 H 0.91379 0.76544 0.21237 0.0
H156 H 0.9394 0.85162 0.39156 0.0
H157 H 0.84184 0.895 0.44006 0.0
H158 H 0.80639 0.84298 0.4165 0.0
H159 H 0.90358 0.80036 0.36714 0.0
C160 C 0.92132 0.82859 0.97436 0.0
C161 C 0.95379 0.81798 0.9575 0.0
C162 C 0.95783 0.76532 0.9983 0.0
C163 C 0.97183 0.78663 0.96931 0.0
C164 C 0.92518 0.77597 0.01502 0.0
C165 C 0.90715 0.80745 1.0032 0.0
U166 U 0.9077 0.90627 0.90567 0.0
O167 O 0.85728 0.92629 0.88011 0.0
O168 O 0.89015 0.96286 0.91451 0.0
C169 C 0.85946 0.95815 0.89624 0.0
C170 C 0.90149 0.86087 0.96128 0.0
C171 C 0.82589 0.96955 0.91484 0.0
C172 C 0.77617 0.95665 0.95687 0.0
C173 C 0.80961 0.94713 0.94149 0.0
C174 C 0.77541 1.01185 0.92022 0.0
C175 C 0.75845 0.98883 0.94606 0.0
C176 C 0.80887 1.00219 0.90466 0.0
C177 C 0.97123 0.91587 0.82339 0.0
C178 C 0.95604 0.95397 0.7712 0.0
C179 C 1.01307 0.92111 0.772 0.0
C180 C 1.00434 0.90694 0.80658 0.0
C181 C 0.98856 0.94408 0.75362 0.0
C182 C 0.94744 0.93997 0.80573 0.0
C183 C 0.96071 0.89832 0.85815 0.0
O184 O 0.91952 0.89207 0.963 0.0
O185 O 0.88382 0.85657 0.93027 0.0
O186 O 0.92978 0.87972 0.8571 0.0
O187 O 0.96407 0.91847 0.88756 0.0
H188 H 0.96493 0.83372 0.93492 0.0
H189 H 0.99641 0.77864 0.95523 0.0
H190 H 0.91369 0.76002 0.03726 0.0
H191 H 0.88197 0.81514 0.0164 0.0
H192 H 0.76385 0.93854 0.97695 0.0
H193 H 0.82238 0.92189 0.94979 0.0
H194 H 0.76223 0.0366 0.91115 0.0
H195 H 0.82104 0.0198 0.88406 0.0
H196 H 0.93702 0.97227 0.75799 0.0
H197 H 0.03836 0.91324 0.75915 0.0
H198 H 0.02306 0.88837 0.81986 0.0
H199 H 0.92185 0.94735 0.81834 0.0
C200 C 0.58615 0.14382 0.32908 0.0
C201 C 0.60796 0.11618 0.3149 0.0
C202 C 0.56936 0.11302 0.26064 0.0
C203 C 0.59967 0.10098 0.28096 0.0
C204 C 0.54671 0.13972 0.27552 0.0
C205 C 0.55516 0.15509 0.30953 0.0
U206 U 0.6515 0.15544 0.40941 0.0
O207 O 0.67833 0.20467 0.43088 0.0
O208 O 0.6413 0.17286 0.46609 0.0
C209 C 0.66064 0.20309 0.46202 0.0
C210 C 0.59728 0.16274 0.3627 0.0
C211 C 0.64318 0.23727 0.47365 0.0
C212 C 0.6219 0.29852 0.46028 0.0
C213 C 0.63623 0.26551 0.44853 0.0
C214 C 0.6199 0.27546 0.52232 0.0
C215 C 0.61394 0.30397 0.49731 0.0
C216 C 0.63469 0.24247 0.51061 0.0
C217 C 0.73315 0.0926 0.41928 0.0
C218 C 0.78009 0.10491 0.46472 0.0
C219 C 0.78994 0.05871 0.41896 0.0
C220 C 0.75525 0.0656 0.40421 0.0
C221 C 0.80305 0.07902 0.44875 0.0
C222 C 0.74551 0.11175 0.45003 0.0
C223 C 0.69874 0.10272 0.40112 0.0
O224 O 0.59444 0.1437 0.39312 0.0
O225 O 0.62835 0.18095 0.36025 0.0
O226 O 0.70033 0.13369 0.38298 0.0
O227 O 0.66886 0.0991 0.42073 0.0
H228 H 0.63201 0.10716 0.3296 0.0
H229 H 0.61744 0.08027 0.27017 0.0
H230 H 0.52344 0.1497 0.26025 0.0
H231 H 0.53813 0.17654 0.32005 0.0
H232 H 0.61673 0.31978 0.44032 0.0
H233 H 0.64213 0.26226 0.4198 0.0
H234 H 0.61365 0.27893 0.55096 0.0
H235 H 0.6398 0.22111 0.53048 0.0
H236 H 0.78925 0.12045 0.48816 0.0
H237 H 0.80705 0.03858 0.40622 0.0
H238 H 0.74614 0.05062 0.38039 0.0
H239 H 0.72882 0.13269 0.46203 0.0
C240 C 0.33576 0.58442 0.14285 0.0
C241 C 0.31603 0.61009 0.12248 0.0
C242 C 0.26728 0.56544 0.11227 0.0
C243 C 0.28202 0.60074 0.10752 0.0
C244 C 0.28751 0.53942 0.13178 0.0
C245 C 0.32149 0.54893 0.14713 0.0
U246 U 0.41671 0.64982 0.15311 0.0
O247 O 0.44068 0.67429 0.20246 0.0
O248 O 0.47436 0.64005 0.16758 0.0
C249 C 0.4721 0.65785 0.19852 0.0
C250 C 0.37028 0.59507 0.16096 0.0
C251 C 0.48527 0.6385 0.23126 0.0
C252 C 0.47739 0.59124 0.27735 0.0
C253 C 0.46614 0.60803 0.24491 0.0
C254 C 0.52754 0.63471 0.28262 0.0
C255 C 0.50796 0.60463 0.29685 0.0
C256 C 0.51622 0.65154 0.25009 0.0
C257 C 0.42307 0.73296 0.08994 0.0
C258 C 0.46599 0.78248 0.10186 0.0
C259 C 0.42374 0.78696 0.05094 0.0
C260 C 0.40947 0.75237 0.05977 0.0
C261 C 0.45171 0.8026 0.07234 0.0
C262 C 0.45183 0.74796 0.11056 0.0
C263 C 0.40562 0.69834 0.10118 0.0
O264 O 0.39994 0.59313 0.14094 0.0
O265 O 0.3688 0.62524 0.18002 0.0
O266 O 0.38941 0.6991 0.13309 0.0
O267 O 0.42503 0.66883 0.09648 0.0
H268 H 0.32665 0.63757 0.1187 0.0
H269 H 0.2671 0.62116 0.09225 0.0
H270 H 0.27665 0.5121 0.13589 0.0
H271 H 0.33635 0.52878 0.1628 0.0
H272 H 0.46156 0.56829 0.28773 0.0
H273 H 0.44209 0.59768 0.23081 0.0
H274 H 0.5515 0.64527 0.29667 0.0
H275 H 0.53134 0.67504 0.2399 0.0
H276 H 0.48773 0.7938 0.11865 0.0
H277 H 0.412 0.802 0.02832 0.0
H278 H 0.38715 0.74119 0.04365 0.0
H279 H 0.46268 0.73336 0.13394 0.0
C280 C 0.14858 0.33401 0.59139 0.0
C281 C 0.16199 0.31293 0.56265 0.0
C282 C 0.1172 0.26511 0.57615 0.0
C283 C 0.14628 0.27873 0.55493 0.0
C284 C 0.1029 0.28705 0.60389 0.0
C285 C 0.11851 0.32114 0.61151 0.0
U286 U 0.16002 0.41399 0.65617 0.0
O287 O 0.10312 0.42177 0.67386 0.0
O288 O 0.13965 0.38704 0.70598 0.0
C289 C 0.10772 0.40306 0.70427 0.0
C290 C 0.16746 0.36804 0.60197 0.0
C291 C 0.0944 0.41988 0.73847 0.0
C292 C 0.05208 0.45971 0.76993 0.0
C293 C 0.06503 0.44429 0.73766 0.0
C294 C 0.09674 0.42579 0.8047 0.0
C295 C 0.06787 0.4507 0.8038 0.0
C296 C 0.10972 0.41043 0.77248 0.0
C297 C 0.23843 0.48268 0.64389 0.0
C298 C 0.29186 0.52285 0.64064 0.0
C299 C 0.28082 0.4781 0.59338 0.0
C300 C 0.24903 0.46633 0.61119 0.0
C301 C 0.30259 0.50653 0.60784 0.0
C302 C 0.25994 0.51107 0.65845 0.0
C303 C 0.20592 0.46928 0.66365 0.0
O304 O 0.1861 0.36593 0.63262 0.0
O305 O 0.14807 0.3979 0.59944 0.0
O306 O 0.17467 0.4716 0.64593 0.0
O307 O 0.20992 0.43782 0.68043 0.0
H308 H 0.18523 0.32247 0.54686 0.0
H309 H 0.15774 0.26234 0.53342 0.0
H310 H 0.08012 0.2774 0.62028 0.0
H311 H 0.10775 0.33705 0.63376 0.0
H312 H 0.02983 0.47887 0.76841 0.0
H313 H 0.05211 0.45164 0.71204 0.0
H314 H 0.11006 0.41893 0.83024 0.0
H315 H 0.13202 0.39135 0.7743 0.0
H316 H 0.30818 0.54465 0.65248 0.0
H317 H 0.28886 0.46429 0.5687 0.0
H318 H 0.233 0.44409 0.59976 0.0
H319 H 0.25225 0.52385 0.68382 0.0
Zn320 Zn 0.98954 0.07788 0.57604 0.0
Zn321 Zn 0.06587 1.00867 0.49078 0.0
Zn322 Zn 0.02675 0.04352 0.5354 0.0
C323 C 0.07785 0.08101 0.47349 0.0
C324 C 0.9947 0.98437 0.47864 0.0
O325 O 0.03107 0.01774 0.5908 0.0
O326 O 0.97934 0.03892 0.61233 0.0
C327 C 0.04694 0.12322 0.56262 0.0
O328 O 0.0615 0.08423 0.50447 0.0
O329 O 0.08067 0.05007 0.45904 0.0
O330 O 0.02712 0.97529 0.47179 0.0
O331 O 0.98856 1.01172 0.49968 0.0
O332 O 0.02563 0.11643 0.58884 0.0
O333 O 0.04822 0.10094 0.53555 0.0
O334 O 0.96939 0.04104 0.5138 0.0
O335 O 0.95037 0.09065 0.54106 0.0
C336 C 0.94546 0.06631 0.51732 0.0
O337 O 0.06011 1.00613 0.56964 0.0
O338 O 0.10114 0.99094 0.52854 0.0
C339 C 1.00573 0.01729 0.61519 0.0
C340 C 0.09052 0.99092 0.56132 0.0
Zn341 Zn 0.49824 0.06565 0.99695 0.0
Zn342 Zn 0.57511 0.99082 0.0742 0.0
Zn343 Zn 0.53718 0.02771 0.03631 0.0
C344 C 0.61885 1.00657 0.01694 0.0
C345 C 0.5179 0.94611 0.05865 0.0
O346 O 0.5045 0.06331 0.07327 0.0
O347 O 0.46105 0.07833 0.03419 0.0
C348 C 0.56824 0.09227 0.98606 0.0
O349 O 0.5944 0.03156 1.01448 0.0
O350 O 0.61436 0.98045 0.03906 0.0
O351 O 0.53963 0.9512 0.08499 0.0
O352 O 0.51563 0.9704 0.03314 0.0
O353 O 0.53571 0.10319 0.98407 0.0
O354 O 0.57498 0.06116 1.00116 0.0
O355 O 0.50138 0.98983 1.0037 0.0
O356 O 0.4854 0.02815 0.95993 0.0
C357 C 0.48655 0.99599 0.97226 0.0
O358 O 0.53345 0.04849 0.09349 0.0
O359 O 0.5856 0.02612 0.11341 0.0
C360 C 0.47323 0.07791 0.06648 0.0
C361 C 0.55869 0.04667 0.11813 0.0
Zn362 Zn 0.56919 0.57058 0.5641 0.0
Zn363 Zn 0.48733 0.4833 0.48586 0.0
Zn364 Zn 0.5291 0.52656 0.52546 0.0
C365 C 0.53873 0.4387 0.51855 0.0
C366 C 0.51963 0.53293 0.43728 0.0
O367 O 0.49216 0.55877 0.5618 0.0
O368 O 0.53016 0.59815 0.58796 0.0
C369 C 0.58598 0.49957 0.58742 0.0
O370 O 0.54916 0.46965 0.53195 0.0
O371 O 0.51096 0.43666 0.49812 0.0
O372 O 0.49819 0.50569 0.43781 0.0
O373 O 0.53448 0.54436 0.46722 0.0
O374 O 0.59213 0.53264 0.5949 0.0
O375 O 0.56506 0.4912 0.56018 0.0
O376 O 0.56234 0.56196 0.48763 0.0
O377 O 0.59769 0.59439 0.52462 0.0
C378 C 0.5884 0.58555 0.49263 0.0
O379 O 0.47104 0.53231 0.54364 0.0
O380 O 0.43987 0.49437 0.50812 0.0
C381 C 0.49805 0.58606 0.58325 0.0
C382 C 0.44049 0.51733 0.53361 0.0
Zn383 Zn 0.08559 0.58278 0.98395 0.0
Zn384 Zn 1.00042 0.50072 0.06988 0.0
Zn385 Zn 0.04155 0.54161 0.02497 0.0
C386 C 0.07265 0.48354 0.08568 0.0
C387 C 0.98277 0.48125 0.99684 0.0
O388 O 0.02342 0.59938 0.02923 0.0
O389 O 0.06066 0.62954 0.99196 0.0
C390 C 0.12967 0.55182 0.03704 0.0
O391 O 0.07759 0.50832 0.06094 0.0
O392 O 0.04074 0.47486 0.0958 0.0
O393 O 0.97399 0.47504 0.02968 0.0
O394 O 1.0083 0.50472 0.98949 0.0
O395 O 0.13178 0.5743 1.01093 0.0
O396 O 0.09886 0.53637 0.04517 0.0
O397 O 0.03596 0.52157 0.96794 0.0
O398 O 0.07603 0.5561 0.93801 0.0
C399 C 0.05286 0.53028 0.9382 0.0
O400 O 1.00593 0.57891 0.05691 0.0
O401 O 0.97575 0.5418 0.09433 0.0
C402 C 0.03396 0.62939 1.01367 0.0
C403 C 0.983 0.57375 0.08322 0.0
C404 C 0.09362 0.1434 0.39287 0.0
C405 C 0.12425 0.16448 0.40338 0.0
C406 C 0.07763 0.11792 0.41676 0.0
C407 C 0.09116 0.11289 0.45236 0.0
H408 H 0.08283 0.14546 0.36535 0.0
H409 H 0.05514 0.10112 0.40688 0.0
S410 S 0.16898 0.16292 0.49448 0.0
N411 N 0.16624 0.18005 0.45271 0.0
N412 N 0.13599 0.13184 0.49766 0.0
C413 C 0.12078 0.13468 0.4639 0.0
C414 C 0.13741 0.16053 0.43938 0.0
C415 C 0.42097 0.92209 0.93948 0.0
C416 C 0.42837 0.92098 0.90171 0.0
C417 C 0.44174 0.9444 0.96314 0.0
C418 C 0.47038 0.96654 0.94973 0.0
H419 H 0.39816 0.90657 0.95057 0.0
H420 H 0.43411 0.9458 0.99163 0.0
S421 S 0.50232 0.97227 0.85398 0.0
N422 N 0.46774 0.94292 0.85273 0.0
N423 N 0.50646 0.98456 0.89708 0.0
C424 C 0.47909 0.96441 0.91252 0.0
C425 C 0.45826 0.94164 0.88855 0.0
C426 C 0.63145 0.41387 0.62529 0.0
C427 C 0.63311 0.4211 0.66301 0.0
C428 C 0.61555 0.43886 0.60069 0.0
C429 C 0.60051 0.47162 0.613 0.0
H430 H 0.64335 0.38925 0.61465 0.0
H431 H 0.61628 0.43314 0.5719 0.0
S432 S 0.59404 0.50108 0.70955 0.0
N433 N 0.6157 0.46192 0.71166 0.0
N434 N 0.58584 0.50845 0.66581 0.0
C435 C 0.60095 0.47839 0.65081 0.0
C436 C 0.61717 0.45323 0.67568 0.0
C437 C 0.91535 0.62488 0.1407 0.0
C438 C 0.93583 0.65494 0.15355 0.0
C439 C 0.93017 0.60013 0.11601 0.0
C440 C 0.96601 0.60449 0.10274 0.0
H441 H 0.88792 0.61974 0.1507 0.0
H442 H 0.91382 0.57656 0.10824 0.0
S443 S 0.03072 0.67949 0.12607 0.0
N444 N 0.99358 0.68851 0.14968 0.0
N445 N 0.02125 0.64191 0.10312 0.0
C446 C 0.9862 0.63542 0.1137 0.0
C447 C 0.97116 0.66067 0.13909 0.0
C448 C 0.38819 0.10144 0.11933 0.0
C449 C 0.40066 0.12718 0.14495 0.0
C450 C 0.41231 0.0848 0.09516 0.0
C451 C 0.44997 0.09306 0.09558 0.0
H452 H 0.35938 0.09436 0.11768 0.0
H453 H 0.40123 0.06561 0.0755 0.0
S454 S 0.49651 0.15962 0.1563 0.0
N455 N 0.45327 0.16039 0.16915 0.0
N456 N 0.49852 0.12961 0.12292 0.0
C457 C 0.46301 0.11846 0.12123 0.0
C458 C 0.43839 0.13532 0.14616 0.0
C459 C 0.1224 0.92765 0.63738 0.0
C460 C 0.1608 0.93094 0.63506 0.0
C461 C 0.09934 0.94883 0.61507 0.0
C462 C 0.114 0.97344 0.58925 0.0
H463 H 0.11017 0.90786 0.65586 0.0
H464 H 0.07004 0.94449 0.61665 0.0
S465 S 0.21235 0.99377 0.57374 0.0
N466 N 0.21209 0.96215 0.606 0.0
N467 N 0.16898 1.00151 0.56417 0.0
C468 C 0.15219 0.97794 0.58771 0.0
C469 C 0.17554 0.95684 0.6106 0.0
C470 C 0.93155 0.46389 0.90767 0.0
C471 C 0.91222 0.43113 0.91495 0.0
C472 C 0.95584 0.47918 0.93343 0.0
C473 C 0.96162 0.46232 0.96758 0.0
H474 H 0.92723 0.47831 0.88211 0.0
H475 H 0.96888 0.50507 0.92718 0.0
S476 S 0.91944 0.37513 0.99937 0.0
N477 N 0.90165 0.38184 0.95845 0.0
N478 N 0.94772 0.40984 1.00627 0.0
C479 C 0.94363 0.42882 0.97451 0.0
C480 C 0.91891 0.41335 0.94841 0.0
C481 C 0.64771 0.65247 0.4398 0.0
C482 C 0.6609 0.6316 0.41069 0.0
C483 C 0.62261 0.63785 0.46488 0.0
C484 C 0.60929 0.60184 0.46182 0.0
H485 H 0.65765 0.6801 0.44387 0.0
H486 H 0.61439 0.65461 0.48759 0.0
S487 S 0.63356 0.53607 0.38974 0.0
N488 N 0.65745 0.57324 0.37948 0.0
N489 N 0.61004 0.54598 0.42667 0.0
C490 C 0.6207 0.58118 0.43188 0.0
C491 C 0.64651 0.59602 0.4063 0.0
C492 C 0.13288 0.43115 0.15138 0.0
C493 C 0.15433 0.40999 0.12792 0.0
C494 C 0.10776 0.45645 0.13756 0.0
C495 C 0.1036 0.46203 0.0998 0.0
H496 H 0.1349 0.42752 0.18068 0.0
H497 H 0.09079 0.4711 0.15652 0.0
S498 S 0.15136 0.41259 0.0266 0.0
N499 N 0.16856 0.39575 0.06481 0.0
N500 N 0.12198 0.44391 0.03912 0.0
C501 C 0.1254 0.44189 0.07603 0.0
C502 C 0.15066 0.41577 0.09001 0.0
C503 C 0.65123 0.12714 0.9329 0.0
C504 C 0.64876 0.16519 0.9372 0.0
C505 C 0.62584 0.10317 0.94969 0.0
C506 C 0.59763 0.11653 0.97169 0.0
H507 H 0.67218 0.11595 0.91558 0.0
H508 H 0.62757 0.07422 0.94446 0.0
S509 S 0.58217 0.21344 0.99494 0.0
N510 N 0.61768 0.21469 0.96729 0.0
N511 N 0.57053 0.16997 0.99896 0.0
C512 C 0.59594 0.15438 0.97726 0.0
C513 C 0.62141 0.17861 0.96008 0.0
C514 C 0.94193 0.92601 0.4115 0.0
C515 C 0.91589 0.90794 0.43355 0.0
C516 C 0.96598 0.9523 0.426 0.0
C517 C 0.96466 0.96201 0.46302 0.0
H518 H 0.94434 0.91916 0.3829 0.0
H519 H 0.98649 0.96445 0.4083 0.0
S520 S 0.90217 0.92298 0.53273 0.0
N521 N 0.89042 0.9019 0.49464 0.0
N522 N 0.9356 0.95159 0.5216 0.0
C523 C 0.93818 0.94513 0.48523 0.0
C524 C 0.91373 0.91811 0.47055 0.0
C525 C 0.45148 0.6348 0.66014 0.0
C526 C 0.41991 0.64915 0.64369 0.0
C527 C 0.47529 0.61264 0.6407 0.0
C528 C 0.46847 0.60347 0.60408 0.0
H529 H 0.45899 0.64231 0.68775 0.0
H530 H 0.50009 0.60367 0.65414 0.0
S531 S 0.38794 0.63085 0.54919 0.0
N532 N 0.38156 0.65016 0.58927 0.0
N533 N 0.42684 0.60863 0.55256 0.0
C534 C 0.43609 0.61589 0.58772 0.0
C535 C 0.41176 0.63879 0.60753 0.0
C536 C 0.02873 0.9762 0.70736 0.0
C537 C 0.99602 0.95726 0.71585 0.0
C538 C 0.03349 0.99335 0.67314 0.0
C539 C 1.00574 0.99183 0.6465 0.0
H540 H 0.04984 0.97949 0.72795 0.0
H541 H 0.0579 1.00972 0.66838 0.0
S542 S 0.9181 0.94041 0.65281 0.0
N543 N 0.93788 0.93397 0.6929 0.0
N544 N 0.94664 0.96647 0.62915 0.0
C545 C 0.97427 0.97076 0.65375 0.0
C546 C 0.96946 0.95337 0.68829 0.0
C547 C 0.5931 0.10085 0.1984 0.0
C548 C 0.56364 0.09953 0.2229 0.0
C549 C 0.59025 0.08539 0.16372 0.0
C550 C 0.55779 0.06812 0.15202 0.0
H551 H 0.61892 0.11328 0.20642 0.0
H552 H 0.61408 0.08603 0.14624 0.0
S553 S 0.47232 0.058 0.20524 0.0
N554 N 0.50045 0.0806 0.23265 0.0
N555 N 0.49537 0.05082 0.16731 0.0
C556 C 0.52767 0.0675 0.17567 0.0
C557 C 0.5305 0.08349 0.21113 0.0
C558 C 0.51909 0.54928 0.33541 0.0
C559 C 0.51815 0.58749 0.33239 0.0
C560 C 0.52234 0.53201 0.36944 0.0
C561 C 0.52485 0.55219 0.40192 0.0
H562 H 0.51588 0.53251 0.31134 0.0
H563 H 0.52127 0.50249 0.37043 0.0
S564 S 0.5266 0.653 0.40888 0.0
N565 N 0.52257 0.64514 0.3647 0.0
N566 N 0.5284 0.61253 0.42876 0.0
C567 C 0.52632 0.59042 0.39921 0.0
C568 C 0.52304 0.60811 0.36441 0.0
C569 C 0.05582 0.5081 0.83782 0.0
C570 C 0.05682 0.4698 0.83768 0.0
C571 C 0.0518 0.52735 0.87042 0.0
C572 C 0.04826 0.50911 0.90417 0.0
H573 H 0.06036 0.52346 0.81285 0.0
H574 H 0.05319 0.55686 0.86939 0.0
S575 S 0.04453 0.40893 0.91812 0.0
N576 N 0.05002 0.41417 0.87365 0.0
N577 N 0.04326 0.45048 0.93512 0.0
C578 C 0.04677 0.47081 0.90419 0.0
C579 C 0.05094 0.45113 0.87091 0.0
C580 C 0.69432 0.96914 0.95929 0.0
C581 C 0.72138 0.9967 0.96037 0.0
C582 C 0.66029 0.97382 0.97576 0.0
C583 C 0.65177 1.00629 0.99381 0.0
H584 H 0.69985 0.94331 0.94637 0.0
H585 H 0.64085 0.95126 0.97546 0.0
S586 S 0.71262 0.08711 1.00412 0.0
N587 N 0.73697 0.05817 0.98016 0.0
N588 N 0.67286 0.06659 1.01179 0.0
C589 C 0.67794 0.03463 0.99412 0.0
C590 C 0.71276 0.02995 0.97714 0.0
C591 C 0.85489 0.04055 0.47235 0.0
C592 C 0.84121 0.07492 0.46216 0.0
C593 C 0.8898 0.03726 0.48835 0.0
C594 C 0.91205 0.06819 0.49448 0.0
H595 H 0.83791 0.01632 0.4694 0.0
H596 H 0.89849 1.01077 0.49774 0.0
S597 S 0.8913 0.16332 0.46718 0.0
N598 N 0.8545 0.13966 0.45528 0.0
N599 N 0.91958 0.13354 0.48546 0.0
C600 C 0.89948 0.10226 0.48235 0.0
C601 C 0.86421 0.10561 0.46614 0.0
C602 C 0.20084 0.57901 0.106 0.0
C603 C 0.23048 0.55665 0.09727 0.0
C604 C 0.16699 0.57491 0.08835 0.0
C605 C 0.16168 0.54852 0.06119 0.0
H606 H 0.20428 0.60072 0.12568 0.0
H607 H 0.14546 0.59392 0.09449 0.0
S608 S 0.22974 0.48214 0.0294 0.0
N609 N 0.25161 0.50579 0.06114 0.0
N610 N 0.18812 0.49904 0.02706 0.0
C611 C 0.19046 0.52504 0.05319 0.0
C612 C 0.22485 0.52879 0.07158 0.0
C613 C 0.37048 0.51871 0.60923 0.0
C614 C 0.33732 0.51743 0.58947 0.0
C615 C 0.40428 0.52206 0.59121 0.0
C616 C 0.40586 0.52405 0.55292 0.0
H617 H 0.37048 0.51475 0.63855 0.0
H618 H 0.42925 0.52041 0.60712 0.0
S619 S 0.32691 0.53005 0.48948 0.0
N620 N 0.30824 0.52478 0.53016 0.0
N621 N 0.37156 0.53021 0.49639 0.0
C622 C 0.37289 0.52609 0.53327 0.0
C623 C 0.33865 0.52299 0.55151 0.0
C624 C 0.95732 0.6979 1.01206 0.0
C625 C 0.97672 0.73132 1.00968 0.0
C626 C 0.97576 0.66469 0.01653 0.0
C627 C 1.01414 0.66394 0.01855 0.0
H628 H 0.92794 0.69719 1.00826 0.0
H629 H 0.9601 0.63943 0.01588 0.0
S630 S 0.07675 0.74419 0.02184 0.0
N631 N 0.03579 0.76176 0.01591 0.0
N632 N 0.07035 0.69956 0.0235 0.0
C633 C 0.03344 0.6973 0.01937 0.0
C634 C 0.01477 0.73094 0.01512 0.0
C635 C 0.46587 0.86486 0.09565 0.0
C636 C 0.46454 0.84073 0.06602 0.0
C637 C 0.48124 0.89977 0.09208 0.0
C638 C 0.49577 0.91215 0.05871 0.0
H639 H 0.45573 0.85633 0.12215 0.0
H640 H 0.48282 0.91687 0.11607 0.0
S641 S 0.49827 0.86013 0.97243 0.0
N642 N 0.47794 0.83208 1.00169 0.0
N643 N 0.50745 0.89792 0.99522 0.0
C644 C 0.49337 0.88901 0.02838 0.0
C645 C 0.47755 0.85324 0.03198 0.0
C646 C 0.08969 0.21507 0.53736 0.0
C647 C 0.1031 0.22726 0.57134 0.0
C648 C 0.073 0.18039 0.53388 0.0
C649 C 0.0696 0.15689 0.56422 0.0
H650 H 0.09079 0.23296 0.51374 0.0
H651 H 0.06134 0.17263 0.5078 0.0
S652 S 0.10526 0.1739 0.65759 0.0
N653 N 0.11538 0.21156 0.63466 0.0
N654 N 0.08424 0.14681 0.62821 0.0
C655 C 0.08477 0.1681 0.59769 0.0
C656 C 0.10153 0.20315 0.60122 0.0
C657 C 0.56385 0.3395 0.52623 0.0
C658 C 0.5982 0.33906 0.50913 0.0
C659 C 0.54563 0.37245 0.53191 0.0
C660 C 0.56158 0.40602 0.52155 0.0
H661 H 0.55001 0.31412 0.5332 0.0
H662 H 0.51818 0.37157 0.5429 0.0
S663 S 0.65237 0.4198 0.47885 0.0
N664 N 0.64854 0.37516 0.48432 0.0
N665 N 0.61427 0.437 0.49509 0.0
C666 C 0.5967 0.40605 0.5063 0.0
C667 C 0.61508 0.37258 0.50017 0.0
loop_
_geom_bond_atom_site_label_1
_geom_bond_atom_site_label_2
_geom_bond_distance
_geom_bond_site_symmetry_2
_ccdc_geom_bond_type
C0 C1 1.264 . S
C0 C5 1.479 . S
C0 C10 1.465 . S
C1 C0 1.264 . S
C1 C3 1.339 . S
C1 H28 0.931 . S
C2 C3 1.395 . S
C2 C4 1.320 . S
C3 C1 1.339 . S
C3 C2 1.395 . S
C3 H29 0.929 . S
C4 C2 1.320 . S
C4 C5 1.405 . S
C4 H30 0.930 . S
C5 C0 1.479 . S
C5 C4 1.405 . S
C5 H31 0.931 . S
U6 O7 2.454 . S
U6 O8 2.458 . S
U6 C9 2.984 . S
U6 C10 2.847 . S
U6 C23 2.882 . S
U6 O24 2.441 . S
U6 O25 2.420 . S
U6 O26 2.455 . S
U6 O27 2.449 . S
O7 U6 2.454 . S
O7 C9 1.353 . S
O8 U6 2.458 . S
O8 C9 1.286 . S
C9 U6 2.984 . S
C9 O7 1.353 . S
C9 O8 1.286 . S
C9 C11 1.363 . S
C10 C0 1.465 . S
C10 U6 2.847 . S
C10 O24 1.249 . S
C10 O25 1.202 . S
C11 C9 1.363 . S
C11 C13 1.408 . S
C11 C16 1.342 . S
C12 C13 1.310 . S
C12 C15 1.461 . S
C12 H32 0.932 . S
C13 C11 1.408 . S
C13 C12 1.310 . S
C13 H33 0.930 . S
C14 C15 1.474 . S
C14 C16 1.285 . S
C14 H34 0.929 . S
C15 C12 1.461 . S
C15 C14 1.474 . S
C16 C11 1.342 . S
C16 C14 1.285 . S
C16 H35 0.930 . S
C17 C20 1.424 . S
C17 C22 1.245 . S
C17 C23 1.428 . S
C18 C21 1.260 . S
C18 C22 1.477 . S
C18 H36 0.932 . S
C19 C20 1.384 . S
C19 C21 1.479 . S
C19 H37 0.929 . S
C20 C17 1.424 . S
C20 C19 1.384 . S
C20 H38 0.928 . S
C21 C18 1.260 . S
C21 C19 1.479 . S
C22 C17 1.245 . S
C22 C18 1.477 . S
C22 H39 0.932 . S
C23 U6 2.882 . S
C23 C17 1.428 . S
C23 O26 1.301 . S
C23 O27 1.282 . S
O24 U6 2.441 . S
O24 C10 1.249 . S
O25 U6 2.420 . S
O25 C10 1.202 . S
O26 U6 2.455 . S
O26 C23 1.301 . S
O27 U6 2.449 . S
O27 C23 1.282 . S
H28 C1 0.931 . S
H29 C3 0.929 . S
H30 C4 0.930 . S
H31 C5 0.931 . S
H32 C12 0.932 . S
H33 C13 0.930 . S
H34 C14 0.929 . S
H35 C16 0.930 . S
H36 C18 0.932 . S
H37 C19 0.929 . S
H38 C20 0.928 . S
H39 C22 0.932 . S
C40 C41 1.264 . S
C40 C45 1.479 . S
C40 C50 1.465 . S
C41 C40 1.264 . S
C41 C43 1.339 . S
C41 H68 0.931 . S
C42 C43 1.395 . S
C42 C44 1.320 . S
C43 C41 1.339 . S
C43 C42 1.395 . S
C43 H69 0.929 . S
C44 C42 1.320 . S
C44 C45 1.405 . S
C44 H70 0.930 . S
C45 C40 1.479 . S
C45 C44 1.405 . S
C45 H71 0.931 . S
U46 O47 2.454 . S
U46 O48 2.458 . S
U46 C49 2.984 . S
U46 C50 2.847 . S
U46 C63 2.882 . S
U46 O64 2.441 . S
U46 O65 2.420 . S
U46 O66 2.455 . S
U46 O67 2.449 . S
O47 U46 2.454 . S
O47 C49 1.353 . S
O48 U46 2.458 . S
O48 C49 1.286 . S
C49 U46 2.984 . S
C49 O47 1.353 . S
C49 O48 1.286 . S
C49 C51 1.363 . S
C50 C40 1.465 . S
C50 U46 2.847 . S
C50 O64 1.249 . S
C50 O65 1.202 . S
C51 C49 1.363 . S
C51 C53 1.408 . S
C51 C56 1.342 . S
C52 C53 1.310 . S
C52 C55 1.461 . S
C52 H72 0.932 . S
C53 C51 1.408 . S
C53 C52 1.310 . S
C53 H73 0.930 . S
C54 C55 1.474 . S
C54 C56 1.285 . S
C54 H74 0.929 . S
C55 C52 1.461 . S
C55 C54 1.474 . S
C56 C51 1.342 . S
C56 C54 1.285 . S
C56 H75 0.930 . S
C57 C60 1.424 . S
C57 C62 1.245 . S
C57 C63 1.428 . S
C58 C61 1.260 . S
C58 C62 1.477 . S
C58 H76 0.932 . S
C59 C60 1.384 . S
C59 C61 1.479 . S
C59 H77 0.929 . S
C60 C57 1.424 . S
C60 C59 1.384 . S
C60 H78 0.928 . S
C61 C58 1.260 . S
C61 C59 1.479 . S
C62 C57 1.245 . S
C62 C58 1.477 . S
C62 H79 0.932 . S
C63 U46 2.882 . S
C63 C57 1.428 . S
C63 O66 1.301 . S
C63 O67 1.282 . S
O64 U46 2.441 . S
O64 C50 1.249 . S
O65 U46 2.420 . S
O65 C50 1.202 . S
O66 U46 2.455 . S
O66 C63 1.301 . S
O67 U46 2.449 . S
O67 C63 1.282 . S
H68 C41 0.931 . S
H69 C43 0.929 . S
H70 C44 0.930 . S
H71 C45 0.931 . S
H72 C52 0.932 . S
H73 C53 0.930 . S
H74 C54 0.929 . S
H75 C56 0.930 . S
H76 C58 0.932 . S
H77 C59 0.929 . S
H78 C60 0.928 . S
H79 C62 0.932 . S
C80 C81 1.264 . S
C80 C85 1.479 . S
C80 C90 1.465 . S
C81 C80 1.264 . S
C81 C83 1.339 . S
C81 H108 0.931 . S
C82 C83 1.395 . S
C82 C84 1.320 . S
C83 C81 1.339 . S
C83 C82 1.395 . S
C83 H109 0.929 . S
C84 C82 1.320 . S
C84 C85 1.405 . S
C84 H110 0.930 . S
C85 C80 1.479 . S
C85 C84 1.405 . S
C85 H111 0.931 . S
U86 O87 2.454 . S
U86 O88 2.458 . S
U86 C89 2.984 . S
U86 C90 2.847 . S
U86 C103 2.882 . S
U86 O104 2.441 . S
U86 O105 2.420 . S
U86 O106 2.455 . S
U86 O107 2.449 . S
O87 U86 2.454 . S
O87 C89 1.353 . S
O88 U86 2.458 . S
O88 C89 1.286 . S
C89 U86 2.984 . S
C89 O87 1.353 . S
C89 O88 1.286 . S
C89 C91 1.363 . S
C90 C80 1.465 . S
C90 U86 2.847 . S
C90 O104 1.249 . S
C90 O105 1.202 . S
C91 C89 1.363 . S
C91 C93 1.408 . S
C91 C96 1.342 . S
C92 C93 1.310 . S
C92 C95 1.461 . S
C92 H112 0.932 . S
C93 C91 1.408 . S
C93 C92 1.310 . S
C93 H113 0.930 . S
C94 C95 1.474 . S
C94 C96 1.285 . S
C94 H114 0.929 . S
C95 C92 1.461 . S
C95 C94 1.474 . S
C96 C91 1.342 . S
C96 C94 1.285 . S
C96 H115 0.930 . S
C97 C100 1.424 . S
C97 C102 1.245 . S
C97 C103 1.428 . S
C98 C101 1.260 . S
C98 C102 1.477 . S
C98 H116 0.932 . S
C99 C100 1.384 . S
C99 C101 1.479 . S
C99 H117 0.929 . S
C100 C97 1.424 . S
C100 C99 1.384 . S
C100 H118 0.928 . S
C101 C98 1.260 . S
C101 C99 1.479 . S
C102 C97 1.245 . S
C102 C98 1.477 . S
C102 H119 0.932 . S
C103 U86 2.882 . S
C103 C97 1.428 . S
C103 O106 1.301 . S
C103 O107 1.282 . S
O104 U86 2.441 . S
O104 C90 1.249 . S
O105 U86 2.420 . S
O105 C90 1.202 . S
O106 U86 2.455 . S
O106 C103 1.301 . S
O107 U86 2.449 . S
O107 C103 1.282 . S
H108 C81 0.931 . S
H109 C83 0.929 . S
H110 C84 0.930 . S
H111 C85 0.931 . S
H112 C92 0.932 . S
H113 C93 0.930 . S
H114 C94 0.929 . S
H115 C96 0.930 . S
H116 C98 0.932 . S
H117 C99 0.929 . S
H118 C100 0.928 . S
H119 C102 0.932 . S
C120 C121 1.264 . S
C120 C125 1.479 . S
C120 C130 1.465 . S
C121 C120 1.264 . S
C121 C123 1.339 . S
C121 H148 0.931 . S
C122 C123 1.395 . S
C122 C124 1.320 . S
C123 C121 1.339 . S
C123 C122 1.395 . S
C123 H149 0.929 . S
C124 C122 1.320 . S
C124 C125 1.405 . S
C124 H150 0.930 . S
C125 C120 1.479 . S
C125 C124 1.405 . S
C125 H151 0.931 . S
U126 O127 2.454 . S
U126 O128 2.458 . S
U126 C129 2.984 . S
U126 C130 2.847 . S
U126 C143 2.882 . S
U126 O144 2.441 . S
U126 O145 2.420 . S
U126 O146 2.455 . S
U126 O147 2.449 . S
O127 U126 2.454 . S
O127 C129 1.353 . S
O128 U126 2.458 . S
O128 C129 1.286 . S
C129 U126 2.984 . S
C129 O127 1.353 . S
C129 O128 1.286 . S
C129 C131 1.363 . S
C130 C120 1.465 . S
C130 U126 2.847 . S
C130 O144 1.249 . S
C130 O145 1.202 . S
C131 C129 1.363 . S
C131 C133 1.408 . S
C131 C136 1.342 . S
C132 C133 1.310 . S
C132 C135 1.461 . S
C132 H152 0.932 . S
C133 C131 1.408 . S
C133 C132 1.310 . S
C133 H153 0.930 . S
C134 C135 1.474 . S
C134 C136 1.285 . S
C134 H154 0.929 . S
C135 C132 1.461 . S
C135 C134 1.474 . S
C136 C131 1.342 . S
C136 C134 1.285 . S
C136 H155 0.930 . S
C137 C140 1.424 . S
C137 C142 1.245 . S
C137 C143 1.428 . S
C138 C141 1.260 . S
C138 C142 1.477 . S
C138 H156 0.932 . S
C139 C140 1.384 . S
C139 C141 1.479 . S
C139 H157 0.929 . S
C140 C137 1.424 . S
C140 C139 1.384 . S
C140 H158 0.928 . S
C141 C138 1.260 . S
C141 C139 1.479 . S
C142 C137 1.245 . S
C142 C138 1.477 . S
C142 H159 0.932 . S
C143 U126 2.882 . S
C143 C137 1.428 . S
C143 O146 1.301 . S
C143 O147 1.282 . S
O144 U126 2.441 . S
O144 C130 1.249 . S
O145 U126 2.420 . S
O145 C130 1.202 . S
O146 U126 2.455 . S
O146 C143 1.301 . S
O147 U126 2.449 . S
O147 C143 1.282 . S
H148 C121 0.931 . S
H149 C123 0.929 . S
H150 C124 0.930 . S
H151 C125 0.931 . S
H152 C132 0.932 . S
H153 C133 0.930 . S
H154 C134 0.929 . S
H155 C136 0.930 . S
H156 C138 0.932 . S
H157 C139 0.929 . S
H158 C140 0.928 . S
H159 C142 0.932 . S
C160 C161 1.264 1_655 S
C160 C165 1.479 . S
C160 C170 1.465 . S
C161 C160 1.264 1_455 S
C161 C163 1.339 . S
C161 H188 0.931 . S
C162 C163 1.395 . S
C162 C164 1.320 1_456 S
C163 C161 1.339 . S
C163 C162 1.395 . S
C163 H189 0.929 . S
C164 C162 1.320 1_654 S
C164 C165 1.405 1_554 S
C164 H190 0.930 . S
C165 C160 1.479 . S
C165 C164 1.405 1_556 S
C165 H191 0.931 1_556 S
U166 O167 2.454 . S
U166 O168 2.458 . S
U166 C169 2.984 . S
U166 C170 2.847 . S
U166 C183 2.882 . S
U166 O184 2.441 . S
U166 O185 2.420 . S
U166 O186 2.455 . S
U166 O187 2.449 . S
O167 U166 2.454 . S
O167 C169 1.353 . S
O168 U166 2.458 . S
O168 C169 1.286 . S
C169 U166 2.984 . S
C169 O167 1.353 . S
C169 O168 1.286 . S
C169 C171 1.363 . S
C170 C160 1.465 . S
C170 U166 2.847 . S
C170 O184 1.249 . S
C170 O185 1.202 . S
C171 C169 1.363 . S
C171 C173 1.408 1_556 S
C171 C176 1.342 1_565 S
C172 C173 1.310 . S
C172 C175 1.461 1_565 S
C172 H192 0.932 . S
C173 C171 1.408 1_554 S
C173 C172 1.310 . S
C173 H193 0.930 . S
C174 C175 1.474 1_556 S
C174 C176 1.285 . S
C174 H194 0.929 . S
C175 C172 1.461 1_545 S
C175 C174 1.474 1_554 S
C176 C171 1.342 1_545 S
C176 C174 1.285 . S
C176 H195 0.930 . S
C177 C180 1.424 . S
C177 C182 1.270 . S
C177 C183 1.428 . S
C178 C181 1.260 1_655 S
C178 C182 1.466 1_545 S
C178 H196 0.932 . S
C179 C180 1.384 1_455 S
C179 C181 1.479 1_565 S
C179 H197 0.929 . S
C180 C177 1.424 . S
C180 C179 1.384 1_655 S
C180 H198 0.928 1_655 S
C181 C178 1.260 1_455 S
C181 C179 1.479 1_545 S
C182 C177 1.270 . S
C182 C178 1.466 1_565 S
C182 H199 0.920 1_565 S
C183 U166 2.882 . S
C183 C177 1.428 . S
C183 O186 1.301 . S
C183 O187 1.282 . S
O184 U166 2.441 . S
O184 C170 1.249 . S
O185 U166 2.420 . S
O185 C170 1.202 . S
O186 U166 2.455 . S
O186 C183 1.301 . S
O187 U166 2.449 . S
O187 C183 1.282 . S
H188 C161 0.931 . S
H189 C163 0.929 . S
H190 C164 0.930 . S
H191 C165 0.931 1_554 S
H192 C172 0.932 . S
H193 C173 0.930 . S
H194 C174 0.929 . S
H195 C176 0.930 . S
H196 C178 0.932 . S
H197 C179 0.929 . S
H198 C180 0.928 1_455 S
H199 C182 0.920 1_545 S
C200 C201 1.264 . S
C200 C205 1.479 . S
C200 C210 1.465 . S
C201 C200 1.264 . S
C201 C203 1.339 . S
C201 H228 0.931 . S
C202 C203 1.395 . S
C202 C204 1.320 . S
C203 C201 1.339 . S
C203 C202 1.395 . S
C203 H229 0.929 . S
C204 C202 1.320 . S
C204 C205 1.405 . S
C204 H230 0.930 . S
C205 C200 1.479 . S
C205 C204 1.405 . S
C205 H231 0.931 . S
U206 O207 2.454 . S
U206 O208 2.458 . S
U206 C209 2.984 . S
U206 C210 2.847 . S
U206 C223 2.882 . S
U206 O224 2.441 . S
U206 O225 2.420 . S
U206 O226 2.455 . S
U206 O227 2.449 . S
O207 U206 2.454 . S
O207 C209 1.353 . S
O208 U206 2.458 . S
O208 C209 1.286 . S
C209 U206 2.984 . S
C209 O207 1.353 . S
C209 O208 1.286 . S
C209 C211 1.363 . S
C210 C200 1.465 . S
C210 U206 2.847 . S
C210 O224 1.249 . S
C210 O225 1.202 . S
C211 C209 1.363 . S
C211 C213 1.408 . S
C211 C216 1.342 . S
C212 C213 1.310 . S
C212 C215 1.461 . S
C212 H232 0.932 . S
C213 C211 1.408 . S
C213 C212 1.310 . S
C213 H233 0.930 . S
C214 C215 1.474 . S
C214 C216 1.285 . S
C214 H234 0.929 . S
C215 C212 1.461 . S
C215 C214 1.474 . S
C216 C211 1.342 . S
C216 C214 1.285 . S
C216 H235 0.930 . S
C217 C220 1.424 . S
C217 C222 1.245 . S
C217 C223 1.428 . S
C218 C221 1.260 . S
C218 C222 1.477 . S
C218 H236 0.932 . S
C219 C220 1.384 . S
C219 C221 1.479 . S
C219 H237 0.929 . S
C220 C217 1.424 . S
C220 C219 1.384 . S
C220 H238 0.928 . S
C221 C218 1.260 . S
C221 C219 1.479 . S
C222 C217 1.245 . S
C222 C218 1.477 . S
C222 H239 0.932 . S
C223 U206 2.882 . S
C223 C217 1.428 . S
C223 O226 1.301 . S
C223 O227 1.282 . S
O224 U206 2.441 . S
O224 C210 1.249 . S
O225 U206 2.420 . S
O225 C210 1.202 . S
O226 U206 2.455 . S
O226 C223 1.301 . S
O227 U206 2.449 . S
O227 C223 1.282 . S
H228 C201 0.931 . S
H229 C203 0.929 . S
H230 C204 0.930 . S
H231 C205 0.931 . S
H232 C212 0.932 . S
H233 C213 0.930 . S
H234 C214 0.929 . S
H235 C216 0.930 . S
H236 C218 0.932 . S
H237 C219 0.929 . S
H238 C220 0.928 . S
H239 C222 0.932 . S
C240 C241 1.264 . S
C240 C245 1.479 . S
C240 C250 1.465 . S
C241 C240 1.264 . S
C241 C243 1.339 . S
C241 H268 0.931 . S
C242 C243 1.395 . S
C242 C244 1.320 . S
C243 C241 1.339 . S
C243 C242 1.395 . S
C243 H269 0.929 1_554 S
C244 C242 1.320 . S
C244 C245 1.405 . S
C244 H270 0.930 . S
C245 C240 1.479 . S
C245 C244 1.405 . S
C245 H271 0.931 . S
U246 O247 2.454 . S
U246 O248 2.458 . S
U246 C249 2.984 . S
U246 C250 2.847 . S
U246 C263 2.882 . S
U246 O264 2.441 . S
U246 O265 2.420 . S
U246 O266 2.455 . S
U246 O267 2.449 . S
O247 U246 2.454 . S
O247 C249 1.353 . S
O248 U246 2.458 . S
O248 C249 1.286 . S
C249 U246 2.984 . S
C249 O247 1.353 . S
C249 O248 1.286 . S
C249 C251 1.363 . S
C250 C240 1.465 . S
C250 U246 2.847 . S
C250 O264 1.249 . S
C250 O265 1.202 . S
C251 C249 1.363 . S
C251 C253 1.408 . S
C251 C256 1.342 . S
C252 C253 1.310 . S
C252 C255 1.461 . S
C252 H272 0.932 . S
C253 C251 1.408 . S
C253 C252 1.310 . S
C253 H273 0.930 . S
C254 C255 1.474 . S
C254 C256 1.285 . S
C254 H274 0.929 . S
C255 C252 1.461 . S
C255 C254 1.474 . S
C256 C251 1.342 . S
C256 C254 1.285 . S
C256 H275 0.930 . S
C257 C260 1.424 . S
C257 C262 1.245 . S
C257 C263 1.428 . S
C258 C261 1.260 . S
C258 C262 1.477 . S
C258 H276 0.932 . S
C259 C260 1.384 . S
C259 C261 1.479 . S
C259 H277 0.929 . S
C260 C257 1.424 . S
C260 C259 1.384 . S
C260 H278 0.928 . S
C261 C258 1.260 . S
C261 C259 1.479 . S
C262 C257 1.245 . S
C262 C258 1.477 . S
C262 H279 0.932 . S
C263 U246 2.882 . S
C263 C257 1.428 . S
C263 O266 1.301 . S
C263 O267 1.282 . S
O264 U246 2.441 . S
O264 C250 1.249 . S
O265 U246 2.420 . S
O265 C250 1.202 . S
O266 U246 2.455 . S
O266 C263 1.301 . S
O267 U246 2.449 . S
O267 C263 1.282 . S
H268 C241 0.931 . S
H269 C243 0.929 1_556 S
H270 C244 0.930 . S
H271 C245 0.931 . S
H272 C252 0.932 . S
H273 C253 0.930 . S
H274 C254 0.929 . S
H275 C256 0.930 . S
H276 C258 0.932 . S
H277 C259 0.929 . S
H278 C260 0.928 . S
H279 C262 0.932 . S
C280 C281 1.264 . S
C280 C285 1.479 . S
C280 C290 1.465 . S
C281 C280 1.264 . S
C281 C283 1.339 . S
C281 H308 0.931 . S
C282 C283 1.395 . S
C282 C284 1.320 . S
C283 C281 1.339 . S
C283 C282 1.395 . S
C283 H309 0.929 . S
C284 C282 1.320 . S
C284 C285 1.405 . S
C284 H310 0.930 1_455 S
C285 C280 1.479 . S
C285 C284 1.405 . S
C285 H311 0.931 . S
U286 O287 2.454 . S
U286 O288 2.458 . S
U286 C289 2.984 . S
U286 C290 2.847 . S
U286 C303 2.882 . S
U286 O304 2.441 . S
U286 O305 2.420 . S
U286 O306 2.455 . S
U286 O307 2.449 . S
O287 U286 2.454 . S
O287 C289 1.353 . S
O288 U286 2.458 . S
O288 C289 1.286 . S
C289 U286 2.984 . S
C289 O287 1.353 . S
C289 O288 1.286 . S
C289 C291 1.363 . S
C290 C280 1.465 . S
C290 U286 2.847 . S
C290 O304 1.249 . S
C290 O305 1.202 . S
C291 C289 1.363 . S
C291 C293 1.408 . S
C291 C296 1.342 . S
C292 C293 1.310 . S
C292 C295 1.461 . S
C292 H312 0.957 . S
C293 C291 1.408 . S
C293 C292 1.310 . S
C293 H313 0.930 . S
C294 C295 1.474 . S
C294 C296 1.285 . S
C294 H314 0.929 . S
C295 C292 1.461 . S
C295 C294 1.474 . S
C296 C291 1.342 . S
C296 C294 1.285 . S
C296 H315 0.930 . S
C297 C300 1.424 . S
C297 C302 1.245 . S
C297 C303 1.428 . S
C298 C301 1.260 . S
C298 C302 1.477 . S
C298 H316 0.932 . S
C299 C300 1.384 . S
C299 C301 1.479 . S
C299 H317 0.929 . S
C300 C297 1.424 . S
C300 C299 1.384 . S
C300 H318 0.928 . S
C301 C298 1.260 . S
C301 C299 1.479 . S
C302 C297 1.245 . S
C302 C298 1.477 . S
C302 H319 0.932 . S
C303 U286 2.882 . S
C303 C297 1.428 . S
C303 O306 1.301 . S
C303 O307 1.282 . S
O304 U286 2.441 . S
O304 C290 1.249 . S
O305 U286 2.420 . S
O305 C290 1.202 . S
O306 U286 2.455 . S
O306 C303 1.301 . S
O307 U286 2.449 . S
O307 C303 1.282 . S
H308 C281 0.931 . S
H309 C283 0.929 . S
H310 C284 0.930 1_655 S
H311 C285 0.931 . S
H312 C292 0.957 . S
H313 C293 0.930 . S
H314 C294 0.929 . S
H315 C296 0.930 . S
H316 C298 0.932 . S
H317 C299 0.929 . S
H318 C300 0.928 . S
H319 C302 0.932 . S
Zn320 O326 1.920 . S
Zn320 O332 1.898 . S
Zn320 O335 1.905 . S
Zn321 O329 1.905 1_565 S
Zn321 O330 1.898 . S
Zn321 O338 1.920 . S
Zn322 O325 2.080 1_455 S
Zn322 O328 2.114 . S
Zn322 O331 2.120 1_445 S
Zn322 O333 2.120 . S
Zn322 O334 2.114 1_455 S
Zn322 O337 2.080 . S
C323 O328 1.166 . S
C323 O329 1.182 . S
C324 O330 1.167 1_655 S
C324 O331 1.299 . S
O325 Zn322 2.080 1_655 S
O325 C339 1.305 . S
O326 Zn320 1.920 . S
O326 C339 1.234 . S
C327 O332 1.167 1_455 S
C327 O333 1.299 . S
O328 Zn322 2.114 . S
O328 C323 1.166 . S
O329 Zn321 1.905 1_545 S
O329 C323 1.182 . S
O330 Zn321 1.898 . S
O330 C324 1.167 1_455 S
O331 Zn322 2.120 1_665 S
O331 C324 1.299 . S
O332 Zn320 1.898 . S
O332 C327 1.167 1_655 S
O333 Zn322 2.120 . S
O333 C327 1.299 . S
O334 Zn322 2.114 1_655 S
O334 C336 1.166 . S
O335 Zn320 1.905 . S
O335 C336 1.182 . S
C336 O334 1.166 . S
C336 O335 1.182 . S
O337 Zn322 2.080 . S
O337 C340 1.305 1_545 S
O338 Zn321 1.920 . S
O338 C340 1.234 . S
C339 O325 1.305 . S
C339 O326 1.234 . S
C340 O337 1.305 1_565 S
C340 O338 1.234 . S
Zn341 O347 1.920 1_556 S
Zn341 O353 1.898 . S
Zn341 O356 1.905 . S
Zn342 O350 1.905 . S
Zn342 O351 1.898 . S
Zn342 O359 1.920 . S
Zn343 O346 2.080 . S
Zn343 O349 2.114 1_545 S
Zn343 O352 2.120 1_545 S
Zn343 O354 2.120 . S
Zn343 O355 2.114 1_544 S
Zn343 O358 2.080 . S
C344 O349 1.166 . S
C344 O350 1.182 . S
C345 O351 1.167 . S
C345 O352 1.299 . S
O346 Zn343 2.080 . S
O346 C360 1.305 . S
O347 Zn341 1.920 1_554 S
O347 C360 1.234 . S
C348 O353 1.167 . S
C348 O354 1.299 1_556 S
O349 Zn343 2.114 1_565 S
O349 C344 1.166 . S
O350 Zn342 1.905 . S
O350 C344 1.182 . S
O351 Zn342 1.898 . S
O351 C345 1.167 . S
O352 Zn343 2.120 1_565 S
O352 C345 1.299 . S
O353 Zn341 1.898 . S
O353 C348 1.167 . S
O354 Zn343 2.120 . S
O354 C348 1.299 1_554 S
O355 Zn343 2.114 1_566 S
O355 C357 1.166 . S
O356 Zn341 1.905 . S
O356 C357 1.182 1_545 S
C357 O355 1.166 . S
C357 O356 1.182 1_565 S
O358 Zn343 2.080 . S
O358 C361 1.305 . S
O359 Zn342 1.920 . S
O359 C361 1.234 1_565 S
C360 O346 1.305 . S
C360 O347 1.234 . S
C361 O358 1.305 . S
C361 O359 1.234 1_545 S
Zn362 O368 1.920 . S
Zn362 O374 1.898 . S
Zn362 O377 1.905 . S
Zn363 O371 1.905 . S
Zn363 O372 1.898 . S
Zn363 O380 1.920 . S
Zn364 O367 2.080 . S
Zn364 O370 2.114 . S
Zn364 O373 2.120 . S
Zn364 O375 2.120 . S
Zn364 O376 2.114 . S
Zn364 O379 2.080 . S
C365 O370 1.166 . S
C365 O371 1.182 . S
C366 O372 1.167 . S
C366 O373 1.299 . S
O367 Zn364 2.080 . S
O367 C381 1.305 . S
O368 Zn362 1.920 . S
O368 C381 1.234 . S
C369 O374 1.167 . S
C369 O375 1.299 . S
O370 Zn364 2.114 . S
O370 C365 1.166 . S
O371 Zn363 1.905 . S
O371 C365 1.182 . S
O372 Zn363 1.898 . S
O372 C366 1.167 . S
O373 Zn364 2.120 . S
O373 C366 1.299 . S
O374 Zn362 1.898 . S
O374 C369 1.167 . S
O375 Zn364 2.120 . S
O375 C369 1.299 . S
O376 Zn364 2.114 . S
O376 C378 1.166 . S
O377 Zn362 1.905 . S
O377 C378 1.182 . S
C378 O376 1.166 . S
C378 O377 1.182 . S
O379 Zn364 2.080 . S
O379 C382 1.305 . S
O380 Zn363 1.920 . S
O380 C382 1.234 . S
C381 O367 1.305 . S
C381 O368 1.234 . S
C382 O379 1.305 . S
C382 O380 1.234 . S
Zn383 O389 1.920 . S
Zn383 O395 1.898 . S
Zn383 O398 1.905 . S
Zn384 O392 1.905 1_655 S
Zn384 O393 1.898 . S
Zn384 O401 1.920 . S
Zn385 O388 2.080 1_554 S
Zn385 O391 2.114 . S
Zn385 O394 2.120 1_454 S
Zn385 O396 2.120 . S
Zn385 O397 2.114 1_554 S
Zn385 O400 2.080 . S
C386 O391 1.166 . S
C386 O392 1.182 . S
C387 O393 1.167 1_556 S
C387 O394 1.299 . S
O388 Zn385 2.080 1_556 S
O388 C402 1.305 . S
O389 Zn383 1.920 . S
O389 C402 1.234 . S
C390 O395 1.167 1_554 S
C390 O396 1.299 . S
O391 Zn385 2.114 . S
O391 C386 1.166 . S
O392 Zn384 1.905 1_455 S
O392 C386 1.182 . S
O393 Zn384 1.898 . S
O393 C387 1.167 1_554 S
O394 Zn385 2.120 1_656 S
O394 C387 1.299 . S
O395 Zn383 1.898 . S
O395 C390 1.167 1_556 S
O396 Zn385 2.120 . S
O396 C390 1.299 . S
O397 Zn385 2.114 1_556 S
O397 C399 1.166 . S
O398 Zn383 1.905 . S
O398 C399 1.182 . S
C399 O397 1.166 . S
C399 O398 1.182 . S
O400 Zn385 2.080 . S
O400 C403 1.305 1_455 S
O401 Zn384 1.920 . S
O401 C403 1.234 . S
C402 O388 1.305 . S
C402 O389 1.234 . S
C403 O400 1.305 1_655 S
C403 O401 1.234 . S
C404 C405 1.369 . S
C404 C406 1.419 . S
C404 H408 0.930 . S
C405 C404 1.369 . S
C405 C414 1.429 . S
C406 C404 1.419 . S
C406 C407 1.363 . S
C406 H409 0.929 . S
C407 C406 1.363 . S
C407 C413 1.428 . S
H408 C404 0.930 . S
H409 C406 0.929 . S
S410 N411 1.613 . S
S410 N412 1.610 . S
N411 S410 1.613 . S
N411 C414 1.350 . S
N412 S410 1.610 . S
N412 C413 1.351 . S
C413 C407 1.428 . S
C413 N412 1.351 . S
C413 C414 1.434 . S
C414 C405 1.429 . S
C414 N411 1.350 . S
C414 C413 1.434 . S
C415 C416 1.369 . S
C415 C417 1.419 . S
C415 H419 0.930 . S
C416 C415 1.369 . S
C416 C425 1.429 . S
C417 C415 1.419 . S
C417 C418 1.363 . S
C417 H420 0.929 . S
C418 C417 1.363 . S
C418 C424 1.428 . S
H419 C415 0.930 . S
H420 C417 0.929 . S
S421 N422 1.613 1_545 S
S421 N423 1.610 . S
N422 S421 1.613 1_565 S
N422 C425 1.350 . S
N423 S421 1.610 . S
N423 C424 1.351 1_545 S
C424 C418 1.428 . S
C424 N423 1.351 1_565 S
C424 C425 1.434 . S
C425 C416 1.429 . S
C425 N422 1.350 . S
C425 C424 1.434 . S
C426 C427 1.369 . S
C426 C428 1.419 . S
C426 H430 0.930 . S
C427 C426 1.369 . S
C427 C436 1.429 . S
C428 C426 1.419 . S
C428 C429 1.363 . S
C428 H431 0.929 . S
C429 C428 1.363 . S
C429 C435 1.428 . S
H430 C426 0.930 . S
H431 C428 0.929 . S
S432 N433 1.613 . S
S432 N434 1.610 . S
N433 S432 1.613 . S
N433 C436 1.350 . S
N434 S432 1.610 . S
N434 C435 1.351 . S
C435 C429 1.428 . S
C435 N434 1.351 . S
C435 C436 1.434 . S
C436 C427 1.429 . S
C436 N433 1.350 . S
C436 C435 1.434 . S
C437 C438 1.369 . S
C437 C439 1.419 . S
C437 H441 0.930 . S
C438 C437 1.369 . S
C438 C447 1.429 . S
C439 C437 1.419 . S
C439 C440 1.363 . S
C439 H442 0.929 . S
C440 C439 1.363 . S
C440 C446 1.428 . S
H441 C437 0.930 . S
H442 C439 0.929 . S
S443 N444 1.613 . S
S443 N445 1.610 . S
N444 S443 1.613 . S
N444 C447 1.350 1_455 S
N445 S443 1.610 . S
N445 C446 1.351 1_455 S
C446 C440 1.428 . S
C446 N445 1.351 1_655 S
C446 C447 1.434 . S
C447 C438 1.429 . S
C447 N444 1.350 1_655 S
C447 C446 1.434 . S
C448 C449 1.369 . S
C448 C450 1.419 . S
C448 H452 0.930 . S
C449 C448 1.369 . S
C449 C458 1.429 . S
C450 C448 1.419 . S
C450 C451 1.363 . S
C450 H453 0.929 . S
C451 C450 1.363 . S
C451 C457 1.428 . S
H452 C448 0.930 . S
H453 C450 0.929 . S
S454 N455 1.613 . S
S454 N456 1.610 . S
N455 S454 1.613 . S
N455 C458 1.350 . S
N456 S454 1.610 . S
N456 C457 1.351 . S
C457 C451 1.428 . S
C457 N456 1.351 . S
C457 C458 1.434 . S
C458 C449 1.429 . S
C458 N455 1.350 . S
C458 C457 1.434 . S
C459 C460 1.369 . S
C459 C461 1.419 . S
C459 H463 0.930 . S
C460 C459 1.369 . S
C460 C469 1.429 . S
C461 C459 1.419 . S
C461 C462 1.363 . S
C461 H464 0.929 . S
C462 C461 1.363 . S
C462 C468 1.428 . S
H463 C459 0.930 . S
H464 C461 0.929 . S
S465 N466 1.613 1_545 S
S465 N467 1.610 . S
N466 S465 1.613 1_565 S
N466 C469 1.350 . S
N467 S465 1.610 . S
N467 C468 1.351 1_545 S
C468 C462 1.428 . S
C468 N467 1.351 1_565 S
C468 C469 1.434 . S
C469 C460 1.429 . S
C469 N466 1.350 . S
C469 C468 1.434 . S
C470 C471 1.369 . S
C470 C472 1.419 . S
C470 H474 0.930 . S
C471 C470 1.369 . S
C471 C480 1.429 . S
C472 C470 1.419 . S
C472 C473 1.363 . S
C472 H475 0.929 . S
C473 C472 1.363 . S
C473 C479 1.428 . S
H474 C470 0.930 . S
H475 C472 0.929 . S
S476 N477 1.613 1_554 S
S476 N478 1.610 . S
N477 S476 1.613 1_556 S
N477 C480 1.350 . S
N478 S476 1.610 . S
N478 C479 1.351 1_554 S
C479 C473 1.428 . S
C479 N478 1.351 1_556 S
C479 C480 1.434 . S
C480 C471 1.429 . S
C480 N477 1.350 . S
C480 C479 1.434 . S
C481 C482 1.369 . S
C481 C483 1.419 . S
C481 H485 0.930 . S
C482 C481 1.369 . S
C482 C491 1.429 . S
C483 C481 1.419 . S
C483 C484 1.363 . S
C483 H486 0.929 . S
C484 C483 1.363 . S
C484 C490 1.428 . S
H485 C481 0.930 . S
H486 C483 0.929 . S
S487 N488 1.613 . S
S487 N489 1.610 . S
N488 S487 1.613 . S
N488 C491 1.350 . S
N489 S487 1.610 . S
N489 C490 1.351 . S
C490 C484 1.428 . S
C490 N489 1.351 . S
C490 C491 1.434 . S
C491 C482 1.429 . S
C491 N488 1.350 . S
C491 C490 1.434 . S
C492 C493 1.369 . S
C492 C494 1.419 . S
C492 H496 0.930 . S
C493 C492 1.369 . S
C493 C502 1.429 . S
C494 C492 1.419 . S
C494 C495 1.363 . S
C494 H497 0.929 . S
C495 C494 1.363 . S
C495 C501 1.428 . S
H496 C492 0.930 . S
H497 C494 0.929 . S
S498 N499 1.613 1_556 S
S498 N500 1.610 1_556 S
N499 S498 1.613 1_554 S
N499 C502 1.350 . S
N500 S498 1.610 1_554 S
N500 C501 1.351 . S
C501 C495 1.428 . S
C501 N500 1.351 . S
C501 C502 1.434 . S
C502 C493 1.429 . S
C502 N499 1.350 . S
C502 C501 1.434 . S
C503 C504 1.369 . S
C503 C505 1.419 . S
C503 H507 0.930 . S
C504 C503 1.369 . S
C504 C513 1.429 . S
C505 C503 1.419 . S
C505 C506 1.363 . S
C505 H508 0.929 . S
C506 C505 1.363 . S
C506 C512 1.428 . S
H507 C503 0.930 . S
H508 C505 0.929 . S
S509 N510 1.613 . S
S509 N511 1.610 . S
N510 S509 1.613 . S
N510 C513 1.350 . S
N511 S509 1.610 . S
N511 C512 1.351 . S
C512 C506 1.428 . S
C512 N511 1.351 . S
C512 C513 1.434 . S
C513 C504 1.429 . S
C513 N510 1.350 . S
C513 C512 1.434 . S
C514 C515 1.369 . S
C514 C516 1.419 . S
C514 H518 0.930 . S
C515 C514 1.369 . S
C515 C524 1.429 . S
C516 C514 1.419 . S
C516 C517 1.363 . S
C516 H519 0.929 . S
C517 C516 1.363 . S
C517 C523 1.428 . S
H518 C514 0.930 . S
H519 C516 0.929 . S
S520 N521 1.613 . S
S520 N522 1.610 . S
N521 S520 1.613 . S
N521 C524 1.350 . S
N522 S520 1.610 . S
N522 C523 1.351 . S
C523 C517 1.428 . S
C523 N522 1.351 . S
C523 C524 1.434 . S
C524 C515 1.429 . S
C524 N521 1.350 . S
C524 C523 1.434 . S
C525 C526 1.369 . S
C525 C527 1.419 . S
C525 H529 0.930 . S
C526 C525 1.369 . S
C526 C535 1.429 . S
C527 C525 1.419 . S
C527 C528 1.363 . S
C527 H530 0.929 . S
C528 C527 1.363 . S
C528 C534 1.428 . S
H529 C525 0.930 . S
H530 C527 0.929 . S
S531 N532 1.613 . S
S531 N533 1.610 . S
N532 S531 1.613 . S
N532 C535 1.350 . S
N533 S531 1.610 . S
N533 C534 1.351 . S
C534 C528 1.428 . S
C534 N533 1.351 . S
C534 C535 1.434 . S
C535 C526 1.429 . S
C535 N532 1.350 . S
C535 C534 1.434 . S
C536 C537 1.369 . S
C536 C538 1.419 . S
C536 H540 0.930 . S
C537 C536 1.369 . S
C537 C546 1.429 1_445 S
C538 C536 1.419 . S
C538 C539 1.363 1_455 S
C538 H541 0.929 . S
C539 C538 1.363 1_655 S
C539 C545 1.428 1_545 S
H540 C536 0.930 . S
H541 C538 0.929 . S
S542 N543 1.613 . S
S542 N544 1.610 . S
N543 S542 1.613 . S
N543 C546 1.350 . S
N544 S542 1.610 . S
N544 C545 1.351 . S
C545 C539 1.428 1_565 S
C545 N544 1.351 . S
C545 C546 1.434 . S
C546 C537 1.429 1_665 S
C546 N543 1.350 . S
C546 C545 1.434 . S
C547 C548 1.369 . S
C547 C549 1.419 . S
C547 H551 0.930 . S
C548 C547 1.369 . S
C548 C557 1.429 1_545 S
C549 C547 1.419 . S
C549 C550 1.363 . S
C549 H552 0.929 . S
C550 C549 1.363 . S
C550 C556 1.428 1_545 S
H551 C547 0.930 . S
H552 C549 0.929 . S
S553 N554 1.613 . S
S553 N555 1.610 . S
N554 S553 1.613 . S
N554 C557 1.350 . S
N555 S553 1.610 . S
N555 C556 1.351 . S
C556 C550 1.428 1_565 S
C556 N555 1.351 . S
C556 C557 1.434 . S
C557 C548 1.429 1_565 S
C557 N554 1.350 . S
C557 C556 1.434 . S
C558 C559 1.369 . S
C558 C560 1.419 . S
C558 H562 0.930 . S
C559 C558 1.369 . S
C559 C568 1.429 . S
C560 C558 1.419 . S
C560 C561 1.363 . S
C560 H563 0.929 . S
C561 C560 1.363 . S
C561 C567 1.428 . S
H562 C558 0.930 . S
H563 C560 0.929 . S
S564 N565 1.613 . S
S564 N566 1.610 . S
N565 S564 1.613 . S
N565 C568 1.350 . S
N566 S564 1.610 . S
N566 C567 1.351 . S
C567 C561 1.428 . S
C567 N566 1.351 . S
C567 C568 1.434 . S
C568 C559 1.429 . S
C568 N565 1.350 . S
C568 C567 1.434 . S
C569 C570 1.369 . S
C569 C571 1.419 . S
C569 H573 0.930 1_455 S
C570 C569 1.369 . S
C570 C579 1.429 . S
C571 C569 1.419 . S
C571 C572 1.363 . S
C571 H574 0.929 1_455 S
C572 C571 1.363 . S
C572 C578 1.428 . S
H573 C569 0.930 1_655 S
H574 C571 0.929 1_655 S
S575 N576 1.613 . S
S575 N577 1.610 . S
N576 S575 1.613 . S
N576 C579 1.350 . S
N577 S575 1.610 . S
N577 C578 1.351 . S
C578 C572 1.428 . S
C578 N577 1.351 . S
C578 C579 1.434 . S
C579 C570 1.429 . S
C579 N576 1.350 . S
C579 C578 1.434 . S
C580 C581 1.369 1_566 S
C580 C582 1.419 . S
C580 H584 0.930 . S
C581 C580 1.369 1_544 S
C581 C590 1.429 . S
C582 C580 1.419 . S
C582 C583 1.363 1_556 S
C582 H585 0.929 . S
C583 C582 1.363 1_554 S
C583 C589 1.428 1_565 S
H584 C580 0.930 . S
H585 C582 0.929 . S
S586 N587 1.613 . S
S586 N588 1.610 . S
N587 S586 1.613 . S
N587 C590 1.350 . S
N588 S586 1.610 . S
N588 C589 1.351 . S
C589 C583 1.428 1_545 S
C589 N588 1.351 . S
C589 C590 1.434 . S
C590 C581 1.429 . S
C590 N587 1.350 . S
C590 C589 1.434 . S
C591 C592 1.369 . S
C591 C593 1.419 . S
C591 H595 0.930 1_545 S
C592 C591 1.369 . S
C592 C601 1.429 . S
C593 C591 1.419 . S
C593 C594 1.363 . S
C593 H596 0.929 1_545 S
C594 C593 1.363 . S
C594 C600 1.428 . S
H595 C591 0.930 1_565 S
H596 C593 0.929 1_565 S
S597 N598 1.613 . S
S597 N599 1.610 . S
N598 S597 1.613 . S
N598 C601 1.350 . S
N599 S597 1.610 . S
N599 C600 1.351 . S
C600 C594 1.428 . S
C600 N599 1.351 . S
C600 C601 1.434 . S
C601 C592 1.429 . S
C601 N598 1.350 . S
C601 C600 1.434 . S
C602 C603 1.369 . S
C602 C604 1.419 . S
C602 H606 0.930 . S
C603 C602 1.369 . S
C603 C612 1.429 1_554 S
C604 C602 1.419 . S
C604 C605 1.363 . S
C604 H607 0.929 . S
C605 C604 1.363 . S
C605 C611 1.428 1_554 S
H606 C602 0.930 . S
H607 C604 0.929 . S
S608 N609 1.613 . S
S608 N610 1.610 . S
N609 S608 1.613 . S
N609 C612 1.350 . S
N610 S608 1.610 . S
N610 C611 1.351 . S
C611 C605 1.428 1_556 S
C611 N610 1.351 . S
C611 C612 1.434 . S
C612 C603 1.429 1_556 S
C612 N609 1.350 . S
C612 C611 1.434 . S
C613 C614 1.369 . S
C613 C615 1.419 . S
C613 H617 0.930 . S
C614 C613 1.369 . S
C614 C623 1.429 . S
C615 C613 1.419 . S
C615 C616 1.363 . S
C615 H618 0.929 . S
C616 C615 1.363 . S
C616 C622 1.428 . S
H617 C613 0.930 . S
H618 C615 0.929 . S
S619 N620 1.613 . S
S619 N621 1.610 . S
N620 S619 1.613 . S
N620 C623 1.350 . S
N621 S619 1.610 . S
N621 C622 1.351 . S
C622 C616 1.428 . S
C622 N621 1.351 . S
C622 C623 1.434 . S
C623 C614 1.429 . S
C623 N620 1.350 . S
C623 C622 1.434 . S
C624 C625 1.369 1_554 S
C624 C626 1.419 . S
C624 H628 0.930 1_455 S
C625 C624 1.369 1_556 S
C625 C634 1.429 . S
C626 C624 1.419 . S
C626 C627 1.365 1_554 S
C626 H629 0.926 1_455 S
C627 C626 1.365 1_556 S
C627 C633 1.428 . S
H628 C624 0.930 1_655 S
H629 C626 0.926 1_655 S
S630 N631 1.613 . S
S630 N632 1.610 . S
N631 S630 1.613 . S
N631 C634 1.350 . S
N632 S630 1.610 . S
N632 C633 1.351 . S
C633 C627 1.428 . S
C633 N632 1.351 . S
C633 C634 1.434 . S
C634 C625 1.429 . S
C634 N631 1.350 . S
C634 C633 1.434 . S
C635 C636 1.369 . S
C635 C637 1.419 . S
C635 H639 0.930 . S
C636 C635 1.369 . S
C636 C645 1.429 1_554 S
C637 C635 1.419 . S
C637 C638 1.363 . S
C637 H640 0.929 . S
C638 C637 1.363 . S
C638 C644 1.428 . S
H639 C635 0.930 . S
H640 C637 0.929 . S
S641 N642 1.613 . S
S641 N643 1.610 . S
N642 S641 1.613 . S
N642 C645 1.349 . S
N643 S641 1.610 . S
N643 C644 1.351 1_556 S
C644 C638 1.428 . S
C644 N643 1.351 1_554 S
C644 C645 1.434 1_554 S
C645 C636 1.429 1_556 S
C645 N642 1.349 . S
C645 C644 1.434 1_556 S
C646 C647 1.369 . S
C646 C648 1.419 . S
C646 H650 0.930 . S
C647 C646 1.369 . S
C647 C656 1.429 . S
C648 C646 1.419 . S
C648 C649 1.363 . S
C648 H651 0.929 . S
C649 C648 1.363 . S
C649 C655 1.428 . S
H650 C646 0.930 . S
H651 C648 0.929 . S
S652 N653 1.613 . S
S652 N654 1.610 . S
N653 S652 1.613 . S
N653 C656 1.350 1_655 S
N654 S652 1.610 . S
N654 C655 1.351 1_655 S
C655 C649 1.428 . S
C655 N654 1.351 1_455 S
C655 C656 1.434 . S
C656 C647 1.429 . S
C656 N653 1.350 1_455 S
C656 C655 1.434 . S
C657 C658 1.369 . S
C657 C659 1.419 . S
C657 H661 0.930 . S
C658 C657 1.369 . S
C658 C667 1.429 . S
C659 C657 1.419 . S
C659 C660 1.363 . S
C659 H662 0.929 . S
C660 C659 1.363 . S
C660 C666 1.428 . S
H661 C657 0.930 . S
H662 C659 0.929 . S
S663 N664 1.613 . S
S663 N665 1.610 . S
N664 S663 1.613 . S
N664 C667 1.350 . S
N665 S663 1.610 . S
N665 C666 1.351 . S
C666 C660 1.428 . S
C666 N665 1.351 . S
C666 C667 1.434 . S
C667 C658 1.429 . S
C667 N664 1.350 . S
C667 C666 1.434 . S
C405 C21 1.557 . S
C407 C323 1.468 . S
C416 C61 1.524 . S
C418 C357 1.424 . S
C429 C369 1.354 . S
C427 C82 1.436 . S
C438 C135 1.521 . S
C440 C403 1.430 . S
C451 C360 1.434 . S
C449 C15 1.534 . S
C462 C340 1.441 . S
C460 C42 1.520 . S
C473 C387 1.399 . S
C471 C101 1.484 . S
C484 C378 1.396 . S
C482 C122 1.472 . S
C493 C2 1.549 . S
C495 C386 1.453 . S
C506 C348 1.375 . S
C504 C95 1.465 . S
C515 C141 1.515 . S
C517 C324 1.420 . S
C526 C55 1.507 . S
C528 C381 1.411 . S
C539 C339 1.803 . S
C537 C181 1.758 . S
C548 C202 1.739 . S
C550 C361 1.757 . S
C559 C255 1.825 . S
C561 C366 1.788 . S
C570 C295 1.837 . S
C572 C399 1.783 . S
C581 C175 1.836 . S
C583 C344 1.798 . S
C594 C336 1.817 . S
C592 C221 1.771 . S
C605 C390 1.765 . S
C603 C242 1.738 . S
C616 C382 1.790 . S
C614 C301 1.926 . S
C625 C162 1.719 . S
C627 C402 1.745 . S
C638 C345 1.793 . S
C636 C261 1.755 . S
C649 C327 1.771 . S
C647 C282 1.879 . S
C658 C215 1.842 . S
C660 C365 1.808 . S
