# Generated by pormake.
# Topology zzz, (3,6)-cn, num edge types: 1
# Building blocks:
#     Node 0, Type 0, BuildingBlock: WUSLED_clean_sbu_0, # of connection points: 3
#     Node 1, Type 0, BuildingBlock: WUSLED_clean_sbu_0, # of connection points: 3
#     Node 2, Type 0, BuildingBlock: WUSLED_clean_sbu_0, # of connection points: 3
#     Node 3, Type 0, BuildingBlock: WUSLED_clean_sbu_0, # of connection points: 3
#     Node 4, Type 0, BuildingBlock: WUSLED_clean_sbu_0, # of connection points: 3
#     Node 5, Type 0, BuildingBlock: WUSLED_clean_sbu_0, # of connection points: 3
#     Node 6, Type 0, BuildingBlock: WUSLED_clean_sbu_0, # of connection points: 3
#     Node 7, Type 0, BuildingBlock: WUSLED_clean_sbu_0, # of connection points: 3
#     Node 8, Type 1, BuildingBlock: HISSIN_clean_sbu_0, # of connection points: 6
#     Node 9, Type 1, BuildingBlock: HISSIN_clean_sbu_0, # of connection points: 6
#     Node 10, Type 1, BuildingBlock: HISSIN_clean_sbu_0, # of connection points: 6
#     Node 11, Type 1, BuildingBlock: HISSIN_clean_sbu_0, # of connection points: 6
#     Edge 12, Type (0, 1), BuildingBlock: UVAHIK_clean_linker_0, # of connection points: 2
#     Edge 13, Type (0, 1), BuildingBlock: UVAHIK_clean_linker_0, # of connection points: 2
#     Edge 14, Type (0, 1), BuildingBlock: UVAHIK_clean_linker_0, # of connection points: 2
#     Edge 15, Type (0, 1), BuildingBlock: UVAHIK_clean_linker_0, # of connection points: 2
#     Edge 16, Type (0, 1), BuildingBlock: UVAHIK_clean_linker_0, # of connection points: 2
#     Edge 17, Type (0, 1), BuildingBlock: UVAHIK_clean_linker_0, # of connection points: 2
#     Edge 18, Type (0, 1), BuildingBlock: UVAHIK_clean_linker_0, # of connection points: 2
#     Edge 19, Type (0, 1), BuildingBlock: UVAHIK_clean_linker_0, # of connection points: 2
#     Edge 20, Type (0, 1), BuildingBlock: UVAHIK_clean_linker_0, # of connection points: 2
#     Edge 21, Type (0, 1), BuildingBlock: UVAHIK_clean_linker_0, # of connection points: 2
#     Edge 22, Type (0, 1), BuildingBlock: UVAHIK_clean_linker_0, # of connection points: 2
#     Edge 23, Type (0, 1), BuildingBlock: UVAHIK_clean_linker_0, # of connection points: 2
#     Edge 24, Type (0, 1), BuildingBlock: UVAHIK_clean_linker_0, # of connection points: 2
#     Edge 25, Type (0, 1), BuildingBlock: UVAHIK_clean_linker_0, # of connection points: 2
#     Edge 26, Type (0, 1), BuildingBlock: UVAHIK_clean_linker_0, # of connection points: 2
#     Edge 27, Type (0, 1), BuildingBlock: UVAHIK_clean_linker_0, # of connection points: 2
#     Edge 28, Type (0, 1), BuildingBlock: UVAHIK_clean_linker_0, # of connection points: 2
#     Edge 29, Type (0, 1), BuildingBlock: UVAHIK_clean_linker_0, # of connection points: 2
#     Edge 30, Type (0, 1), BuildingBlock: UVAHIK_clean_linker_0, # of connection points: 2
#     Edge 31, Type (0, 1), BuildingBlock: UVAHIK_clean_linker_0, # of connection points: 2
#     Edge 32, Type (0, 1), BuildingBlock: UVAHIK_clean_linker_0, # of connection points: 2
#     Edge 33, Type (0, 1), BuildingBlock: UVAHIK_clean_linker_0, # of connection points: 2
#     Edge 34, Type (0, 1), BuildingBlock: UVAHIK_clean_linker_0, # of connection points: 2
#     Edge 35, Type (0, 1), BuildingBlock: UVAHIK_clean_linker_0, # of connection points: 2
# Relax obj value: 0.333
# Max RMSD: 0.204
# Mean RMSD: 0.180
data_MOF--net-zzz--node1-WUSLED_clean_sbu_0--node2-HISSIN_clean_sbu_0--edge1-UVAHIK_clean_linker_0
_symmetry_space_group_name_H-M    P1
_symmetry_Int_Tables_number       1
_symmetry_cell_setting            triclinic
loop_
_symmetry_equiv_pos_as_xyz
'x, y, z'
_cell_length_a     72.537536
_cell_length_b     73.72858
_cell_length_c     28.105466
_cell_angle_alpha  89.441921
_cell_angle_beta   90.589087
_cell_angle_gamma 91.430328
loop_
_atom_site_label
_atom_site_type_symbol
_atom_site_fract_x
_atom_site_fract_y
_atom_site_fract_z
_atom_type_partial_charge
C0 C 0.78406 0.57712 0.30421 0.0
C1 C 0.79768 0.56649 0.28411 0.0
C2 C 0.81883 0.57398 0.34943 0.0
C3 C 0.81486 0.56487 0.30657 0.0
C4 C 0.80515 0.5848 0.36908 0.0
C5 C 0.78792 0.58632 0.34667 0.0
U6 U 0.75381 0.57186 0.19441 0.0
O7 O 0.72532 0.56132 0.1873 0.0
O8 O 0.73215 0.58933 0.16524 0.0
C9 C 0.71948 0.57628 0.16696 0.0
C10 C 0.76589 0.57871 0.28089 0.0
C11 C 0.70806 0.57384 0.12383 0.0
C12 C 0.67914 0.5791 0.08234 0.0
C13 C 0.69078 0.58186 0.12165 0.0
C14 C 0.70212 0.56049 0.04617 0.0
C15 C 0.68454 0.5682 0.04435 0.0
C16 C 0.7138 0.56329 0.08566 0.0
C17 C 0.77905 0.55456 0.08246 0.0
C18 C 0.77718 0.53112 0.0221 0.0
C19 C 0.79483 0.55886 1.00716 0.0
C20 C 0.78994 0.56531 0.05167 0.0
C21 C 0.78904 0.54143 0.99254 0.0
C22 C 0.77223 0.53761 0.06669 0.0
C23 C 0.77745 0.56011 0.1326 0.0
O24 O 0.76495 0.59119 0.24732 0.0
O25 O 0.75779 0.56325 0.26884 0.0
O26 O 0.76803 0.54929 0.16141 0.0
O27 O 0.7749 0.57743 0.14023 0.0
H28 H 0.79497 0.55932 0.25119 0.0
H29 H 0.8249 0.55622 0.2907 0.0
H30 H 0.80778 0.59222 0.4016 0.0
H31 H 0.7776 0.5947 0.3625 0.0
H32 H 0.66588 0.58554 0.08176 0.0
H33 H 0.68617 0.59012 0.15068 0.0
H34 H 0.70667 0.55194 0.0177 0.0
H35 H 0.72715 0.55701 0.08673 0.0
H36 H 0.77234 0.51772 0.01158 0.0
H37 H 0.80418 0.56707 0.98566 0.0
H38 H 0.79557 0.57832 0.06307 0.0
H39 H 0.76381 0.52897 0.08958 0.0
C40 C 1.01079 0.76624 0.32527 0.0
C41 C 1.01392 0.78172 0.29668 0.0
C42 C 1.01054 0.80141 0.36554 0.0
C43 C 1.01382 0.79912 0.31658 0.0
C44 C 1.00713 0.78579 0.39371 0.0
C45 C 1.00728 0.76845 0.3738 0.0
U46 U 1.00826 0.73255 0.22139 0.0
O47 O 0.02518 0.70871 0.20935 0.0
O48 O 0.99527 0.70522 0.21708 0.0
C49 C 1.01081 0.69757 0.20595 0.0
C50 C 1.0114 0.74771 0.30562 0.0
C51 C 1.01019 0.68599 0.16325 0.0
C52 C 1.0078 0.65592 0.1283 0.0
C53 C 1.00782 0.66714 0.16829 0.0
C54 C 1.0124 0.6823 0.07745 0.0
C55 C 1.01021 0.66332 0.08232 0.0
C56 C 1.01234 0.69351 0.11748 0.0
C57 C 1.00093 0.77425 0.14234 0.0
C58 C 0.98351 0.79946 0.11087 0.0
C59 C 1.01422 0.80482 0.14318 0.0
C60 C 1.01548 0.78639 0.15404 0.0
C61 C 0.99839 0.81151 0.12046 0.0
C62 C 0.98481 0.78099 0.1215 0.0
C63 C 1.00263 0.75451 0.14928 0.0
O64 O 0.99575 0.74097 0.28866 0.0
O65 O 0.02557 0.74433 0.27857 0.0
O66 O 0.01905 0.74881 0.1617 0.0
O67 O 0.98912 0.74626 0.17239 0.0
H68 H 1.01664 0.78035 0.25911 0.0
H69 H 1.01667 0.81074 0.29373 0.0
H70 H 1.0042 0.78693 0.43124 0.0
H71 H 1.00472 0.7567 0.39648 0.0
H72 H 1.00628 0.64139 0.13355 0.0
H73 H 1.00618 0.66106 0.20329 0.0
H74 H 1.01405 0.68851 0.04263 0.0
H75 H 1.01409 0.70805 0.11273 0.0
H76 H 0.97101 0.80422 0.09403 0.0
H77 H 0.02604 0.81365 0.15054 0.0
H78 H 0.02809 0.78163 0.17032 0.0
H79 H 0.97338 0.7719 0.11236 0.0
C80 C 0.76951 0.97775 0.33625 0.0
C81 C 0.75302 0.97539 0.31019 0.0
C82 C 0.73506 0.98123 0.3811 0.0
C83 C 0.73596 0.97702 0.33245 0.0
C84 C 0.75166 0.98355 0.40703 0.0
C85 C 0.76871 0.98179 0.3848 0.0
U86 U 0.79809 0.98021 0.22403 0.0
O87 O 0.8254 0.99283 0.21131 0.0
O88 O 0.8211 0.96356 0.20063 0.0
C89 C 0.8324 0.97768 0.19612 0.0
C90 C 0.78755 0.97666 0.31281 0.0
C91 C 0.84291 0.9789 0.1514 0.0
C92 C 0.86946 0.9699 0.10594 0.0
C93 C 0.85861 0.96839 0.14669 0.0
C94 C 0.84884 0.99225 0.07324 0.0
C95 C 0.86488 0.98202 0.0689 0.0
C96 C 0.83796 0.99071 0.11413 0.0
C97 C 0.77072 0.99024 0.10819 0.0
C98 C 0.77835 1.00741 0.03648 0.0
C99 C 0.75133 0.98742 0.0378 0.0
C100 C 0.75547 0.98241 0.08455 0.0
C101 C 0.7624 1.00039 0.01361 0.0
C102 C 0.78246 1.0024 0.08349 0.0
C103 C 0.77274 0.98687 0.1596 0.0
O104 O 0.78946 0.96282 0.28427 0.0
O105 O 0.79399 0.99202 0.29472 0.0
O106 O 0.78128 0.99963 0.1844 0.0
O107 O 0.77709 0.97034 0.17266 0.0
H108 H 0.75333 0.97246 0.27251 0.0
H109 H 0.72347 0.97539 0.31129 0.0
H110 H 0.75146 0.98663 0.44462 0.0
H111 H 0.78128 0.98373 0.40547 0.0
H112 H 0.88149 0.96156 0.10352 0.0
H113 H 0.86262 0.95913 0.17491 0.0
H114 H 0.84496 1.00181 0.04566 0.0
H115 H 0.82591 0.99896 0.11698 0.0
H116 H 0.78727 0.01727 0.01868 0.0
H117 H 0.73877 0.98194 0.02177 0.0
H118 H 0.74621 0.97307 0.10309 0.0
H119 H 0.79434 1.00862 0.10104 0.0
C120 C 0.51747 0.76699 0.32843 0.0
C121 C 0.51221 0.75271 0.29818 0.0
C122 C 0.51493 0.7311 0.36408 0.0
C123 C 0.51099 0.73488 0.31584 0.0
C124 C 0.51995 0.74558 0.39418 0.0
C125 C 0.52121 0.76333 0.37648 0.0
U126 U 0.51542 0.80377 0.23041 0.0
O127 O 0.53576 0.82584 0.21791 0.0
O128 O 0.50735 0.83227 0.23601 0.0
C129 C 0.52345 0.83852 0.22126 0.0
C130 C 0.51981 0.7857 0.31058 0.0
C131 C 0.52286 0.8512 0.18063 0.0
C132 C 0.52799 0.88147 0.14784 0.0
C133 C 0.52775 0.86952 0.18684 0.0
C134 C 0.51822 0.85687 0.09611 0.0
C135 C 0.52335 0.87527 0.10191 0.0
C136 C 0.51797 0.84496 0.13512 0.0
C137 C 0.49685 0.768 0.14081 0.0
C138 C 0.47605 0.74938 0.09259 0.0
C139 C 0.50207 0.73574 0.13264 0.0
C140 C 0.50713 0.75259 0.15194 0.0
C141 C 0.48674 0.73407 0.10179 0.0
C142 C 0.48109 0.76617 0.11185 0.0
C143 C 0.50294 0.78633 0.15541 0.0
O144 O 0.53303 0.78836 0.27945 0.0
O145 O 0.5046 0.79416 0.29938 0.0
O146 O 0.49214 0.79465 0.18495 0.0
O147 O 0.5206 0.78878 0.16502 0.0
H148 H 0.50922 0.75534 0.26096 0.0
H149 H 0.50691 0.72407 0.29181 0.0
H150 H 0.52335 0.74316 0.43127 0.0
H151 H 0.52537 0.7742 0.40027 0.0
H152 H 0.53175 0.89559 0.15371 0.0
H153 H 0.53154 0.87456 0.22178 0.0
H154 H 0.51479 0.85157 0.06124 0.0
H155 H 0.51421 0.83081 0.1297 0.0
H156 H 0.46399 0.74847 0.0696 0.0
H157 H 0.51065 0.72423 0.14016 0.0
H158 H 0.51937 0.75366 0.17421 0.0
H159 H 0.47297 0.77789 0.10293 0.0
C160 C 0.26935 0.46109 0.90392 0.0
C161 C 0.25431 0.46717 0.92978 0.0
C162 C 0.23469 0.46517 0.85902 0.0
C163 C 0.23714 0.46921 0.90757 0.0
C164 C 0.24981 0.45887 0.83343 0.0
C165 C 0.267 0.45686 0.85573 0.0
U166 U 0.2991 0.46515 0.01449 0.0
O167 O 0.32149 0.44815 0.04147 0.0
O168 O 0.32711 0.4768 0.0235 0.0
C169 C 0.33361 0.46171 0.04158 0.0
C170 C 0.28755 0.45956 0.92694 0.0
C171 C 0.34489 0.46371 0.08502 0.0
C172 C 0.37518 0.46364 0.12249 0.0
C173 C 0.36399 0.46175 0.08205 0.0
C174 C 0.34825 0.46951 0.16971 0.0
C175 C 0.36748 0.46749 0.16691 0.0
C176 C 0.33703 0.46763 0.12904 0.0
C177 C 0.27226 0.47988 0.1269 0.0
C178 C 0.27682 0.50115 0.19184 0.0
C179 C 0.25259 0.47801 0.19618 0.0
C180 C 0.25787 0.47138 0.15221 0.0
C181 C 0.26157 0.49337 0.21578 0.0
C182 C 0.28214 0.49446 0.14771 0.0
C183 C 0.27466 0.47489 0.07673 0.0
O184 O 0.29505 0.47501 0.94115 0.0
O185 O 0.28885 0.44651 0.95889 0.0
O186 O 0.27818 0.45784 0.0681 0.0
O187 O 0.28377 0.48649 0.04933 0.0
H188 H 0.25592 0.47056 0.96706 0.0
H189 H 0.22591 0.47433 0.92821 0.0
H190 H 0.24835 0.45542 0.7962 0.0
H191 H 0.27847 0.45211 0.83529 0.0
H192 H 0.38993 0.46234 0.11874 0.0
H193 H 0.37028 0.45883 0.04826 0.0
H194 H 0.34185 0.47234 0.20338 0.0
H195 H 0.32227 0.46921 0.1319 0.0
H196 H 0.28417 0.51284 0.20631 0.0
H197 H 0.24064 0.4718 0.21318 0.0
H198 H 0.24998 0.4602 0.1367 0.0
H199 H 0.29338 0.50122 0.12901 0.0
C200 C 0.03833 0.26159 0.9116 0.0
C201 C 0.0261 0.24804 0.92917 0.0
C202 C 0.0378 0.22606 0.87309 0.0
C203 C 0.02582 0.23053 0.91006 0.0
C204 C 0.05032 0.2395 0.8564 0.0
C205 C 0.05051 0.25705 0.87526 0.0
U206 U 0.04266 0.2982 1.00885 0.0
O207 O 0.05479 0.326 1.00747 0.0
O208 O 0.02516 0.32171 0.01912 0.0
C209 C 0.03922 0.3333 0.01998 0.0
C210 C 0.03785 0.28067 0.92839 0.0
C211 C 0.0402 0.34537 0.06179 0.0
C212 C 0.04599 0.37536 0.09533 0.0
C213 C 0.04567 0.36365 0.05625 0.0
C214 C 0.03546 0.35062 0.14624 0.0
C215 C 0.0407 0.36903 0.14076 0.0
C216 C 0.03531 0.33891 0.10728 0.0
C217 C 0.05302 0.25912 0.09431 0.0
C218 C 0.06721 0.23599 0.14321 0.0
C219 C 0.04224 0.22778 0.08899 0.0
C220 C 0.04145 0.2458 0.07351 0.0
C221 C 0.05472 0.22279 0.12519 0.0
C222 C 0.06627 0.25403 0.12808 0.0
C223 C 0.05069 0.27846 0.08374 0.0
O224 O 0.02425 0.28476 0.95666 0.0
O225 O 0.05371 0.28827 0.94119 0.0
O226 O 0.06337 0.28621 0.05677 0.0
O227 O 0.03382 0.28326 0.07275 0.0
H228 H 1.01654 0.25099 0.95722 0.0
H229 H 1.01617 0.22047 0.92423 0.0
H230 H 0.05962 0.23662 0.8277 0.0
H231 H 0.05998 0.26721 0.86075 0.0
H232 H 0.04997 0.38946 0.08975 0.0
H233 H 0.04952 0.36893 0.02154 0.0
H234 H 0.03156 0.34524 0.18079 0.0
H235 H 0.0312 0.32481 0.11263 0.0
H236 H 0.07726 0.23252 0.17034 0.0
H237 H 0.03235 0.21801 0.07451 0.0
H238 H 0.03127 0.24943 0.04684 0.0
H239 H 0.07547 0.26411 0.14401 0.0
C240 C 0.27531 0.04758 0.91502 0.0
C241 C 0.28957 0.03838 0.9385 0.0
C242 C 0.31123 0.04754 0.87626 0.0
C243 C 0.30736 0.03845 0.91946 0.0
C244 C 0.29694 0.05689 0.85324 0.0
C245 C 0.27922 0.05692 0.87245 0.0
U246 U 0.23887 0.05039 0.01394 0.0
O247 O 0.21157 0.06284 0.01229 0.0
O248 O 0.2137 0.03346 0.02247 0.0
C249 C 0.20289 0.04748 0.02289 0.0
C250 C 0.25614 0.04706 0.93279 0.0
C251 C 0.19026 0.04798 0.0636 0.0
C252 C 0.15954 0.04311 0.09578 0.0
C253 C 0.1715 0.04364 0.05699 0.0
C254 C 0.18494 0.05154 0.14831 0.0
C255 C 0.16612 0.04691 0.14204 0.0
C256 C 0.1969 0.05203 0.10947 0.0
C257 C 0.27886 0.05785 0.10111 0.0
C258 C 0.30344 0.0587 0.16 0.0
C259 C 0.31077 0.05718 0.07615 0.0
C260 C 0.29196 0.0574 0.06481 0.0
C261 C 0.31668 0.05761 0.12395 0.0
C262 C 0.28469 0.05876 0.14862 0.0
C263 C 0.25911 0.05621 0.09032 0.0
O264 O 0.25136 0.03319 0.96017 0.0
O265 O 0.2497 0.06253 0.94747 0.0
O266 O 0.25224 0.06935 0.06426 0.0
O267 O 0.2534 0.03997 0.077 0.0
H268 H 0.28694 0.03095 0.97126 0.0
H269 H 0.31797 0.03097 0.93793 0.0
H270 H 0.29947 0.06424 0.8203 0.0
H271 H 0.26846 0.06409 0.85365 0.0
H272 H 0.14511 0.03974 0.08951 0.0
H273 H 0.16613 0.04047 0.02185 0.0
H274 H 0.19054 0.05433 0.18343 0.0
H275 H 0.2114 0.05529 0.11531 0.0
H276 H 0.30754 0.05877 0.19717 0.0
H277 H 0.32067 0.05646 0.04766 0.0
H278 H 0.28759 0.05687 0.02792 0.0
H279 H 0.2747 0.05905 0.17702 0.0
C280 C 0.52344 0.26797 0.89461 0.0
C281 C 0.52265 0.28384 0.92165 0.0
C282 C 0.52283 0.30225 0.84942 0.0
C283 C 0.52222 0.3008 0.89926 0.0
C284 C 0.52421 0.28638 0.82243 0.0
C285 C 0.52442 0.26934 0.8449 0.0
U286 U 0.53112 0.24005 1.00554 0.0
O287 O 0.5128 0.21933 0.03782 0.0
O288 O 0.54093 0.21235 0.01774 0.0
C289 C 0.5255 0.20694 0.03823 0.0
C290 C 0.5228 0.25008 0.91834 0.0
C291 C 0.52727 0.1966 0.08289 0.0
C292 C 0.52001 0.16907 0.12744 0.0
C293 C 0.51926 0.17917 0.0853 0.0
C294 C 0.53694 0.19375 0.16568 0.0
C295 C 0.5289 0.17616 0.16819 0.0
C296 C 0.53612 0.20391 0.12328 0.0
C297 C 0.55115 0.26894 0.11069 0.0
C298 C 0.54621 0.26901 0.19604 0.0
C299 C 0.57002 0.28845 0.16142 0.0
C300 C 0.5657 0.28157 0.11656 0.0
C301 C 0.55986 0.28279 0.20151 0.0
C302 C 0.54184 0.26215 0.15089 0.0
C303 C 0.54461 0.26526 0.06199 0.0
O304 O 0.53887 0.24338 0.93013 0.0
O305 O 0.51059 0.24845 0.95241 0.0
O306 O 0.52684 0.26199 0.05606 0.0
O307 O 0.55504 0.25521 0.03547 0.0
H308 H 0.52211 0.28309 0.96014 0.0
H309 H 0.52144 0.31282 0.92096 0.0
H310 H 0.52467 0.28713 0.78395 0.0
H311 H 0.5251 0.25724 0.82349 0.0
H312 H 0.5133 0.15579 0.12824 0.0
H313 H 0.5122 0.17341 0.05459 0.0
H314 H 0.54398 0.19958 0.19629 0.0
H315 H 0.54229 0.21744 0.12202 0.0
H316 H 0.53832 0.26413 0.22629 0.0
H317 H 0.58044 0.29918 0.16387 0.0
H318 H 0.57301 0.287 0.08591 0.0
H319 H 0.53063 0.25227 0.14715 0.0
Eu320 Eu 1.00198 0.02227 0.5758 0.0
Eu321 Eu 0.03451 1.00853 0.64755 0.0
C322 C 0.02374 0.05009 0.64576 0.0
C323 C 0.98094 0.05088 0.48259 0.0
C324 C 0.99527 0.06348 0.49205 0.0
C325 C 0.97573 0.0654 0.40596 0.0
C326 C 0.99998 0.07677 0.45858 0.0
C327 C 0.97103 0.052 0.43965 0.0
C328 C 0.99045 0.07776 0.41487 0.0
C329 C 0.97836 0.0353 0.51473 0.0
O330 O 1.00861 1.01023 0.69082 0.0
O331 O 0.98647 1.00671 0.63283 0.0
C332 C 0.99153 1.00638 0.67783 0.0
O333 O 1.00889 0.99419 0.55138 0.0
O334 O 0.04971 1.01178 0.71439 0.0
O335 O 0.05595 0.98961 0.66797 0.0
O336 O 0.02007 0.98288 0.62152 0.0
C337 C 1.01366 0.98038 0.57814 0.0
O338 O 0.02872 0.03301 0.54455 0.0
O339 O 0.04837 0.01224 0.57659 0.0
O340 O 0.03771 0.0391 0.64586 0.0
O341 O 0.98892 0.02176 0.50561 0.0
O342 O 0.97819 0.03897 0.56002 0.0
O343 O 1.00759 0.04482 0.62852 0.0
C344 C 0.0534 0.98337 0.74937 0.0
C345 C 0.03543 0.97603 0.75228 0.0
C346 C 0.06166 0.96706 0.82157 0.0
C347 C 0.03056 0.96435 0.78944 0.0
C348 C 0.06652 0.97891 0.78418 0.0
C349 C 0.04362 0.95962 0.82438 0.0
C350 C 0.05766 0.99621 0.71074 0.0
C351 C 0.04444 0.02452 0.5441 0.0
H352 H 1.00335 0.06258 0.52461 0.0
H353 H 0.96808 0.06591 0.37271 0.0
H354 H 1.01164 0.08578 0.46623 0.0
H355 H 0.96011 0.04219 0.43158 0.0
H356 H 0.02507 0.97947 0.72589 0.0
H357 H 0.07202 0.96357 0.84788 0.0
H358 H 1.01647 0.9592 0.79105 0.0
H359 H 0.08042 0.98458 0.78251 0.0
Eu360 Eu 0.53574 0.03873 0.66598 0.0
Eu361 Eu 0.51511 1.00997 0.5938 0.0
C362 C 0.52878 0.99706 0.6968 0.0
C363 C 0.57541 0.05843 0.73266 0.0
C364 C 0.58558 0.04495 0.71089 0.0
C365 C 0.6029 0.06829 0.77604 0.0
C366 C 0.60427 0.0432 0.72119 0.0
C367 C 0.58414 0.07017 0.76515 0.0
C368 C 0.61315 0.0547 0.75431 0.0
C369 C 0.55577 0.05989 0.72071 0.0
O370 O 0.49285 0.02789 0.62185 0.0
O371 O 0.5065 0.0366 0.69217 0.0
C372 C 0.49169 0.03395 0.66558 0.0
O373 O 0.52184 0.05601 0.61019 0.0
O374 O 0.491 0.99376 0.5713 0.0
O375 O 0.51557 0.99431 0.52848 0.0
O376 O 0.52301 0.03496 0.55148 0.0
C377 C 0.5216 0.05184 0.56491 0.0
O378 O 0.55661 0.03016 0.6123 0.0
O379 O 0.54493 1.00188 0.59591 0.0
O380 O 0.51563 0.99552 0.66454 0.0
O381 O 0.5523 0.0635 0.67607 0.0
O382 O 0.54516 0.04676 0.73698 0.0
O383 O 0.54078 1.01072 0.69594 0.0
C384 C 0.48723 0.99539 0.48849 0.0
C385 C 0.48687 0.01378 0.47544 0.0
C386 C 0.4666 0.98818 0.4225 0.0
C387 C 0.4765 0.01936 0.43623 0.0
C388 C 0.47714 0.98258 0.46176 0.0
C389 C 0.46608 1.00667 0.40954 0.0
C390 C 0.49808 0.98991 0.53028 0.0
C391 C 0.55875 0.01372 0.59619 0.0
H392 H 0.57902 0.03569 0.68594 0.0
H393 H 0.60925 0.07722 0.80217 0.0
H394 H 0.61173 0.0328 0.70312 0.0
H395 H 0.57644 0.08062 0.78234 0.0
H396 H 0.49456 0.02386 0.49577 0.0
H397 H 0.45856 0.9781 0.403 0.0
H398 H 0.47665 0.03364 0.42684 0.0
H399 H 0.47725 0.96833 0.47151 0.0
Eu400 Eu 0.50709 0.52347 0.64828 0.0
Eu401 Eu 0.53969 0.51116 0.57548 0.0
C402 C 0.55026 0.52981 0.67427 0.0
C403 C 0.48033 0.54871 0.74138 0.0
C404 C 0.49049 0.56498 0.73503 0.0
C405 C 0.46715 0.56071 0.81321 0.0
C406 C 0.48883 0.57911 0.76733 0.0
C407 C 0.46871 0.54663 0.78066 0.0
C408 C 0.47714 0.57712 0.80673 0.0
C409 C 0.48202 0.53376 0.70773 0.0
O410 O 0.53658 0.4892 0.63115 0.0
O411 O 0.50633 0.49288 0.64967 0.0
C412 C 0.52102 0.48286 0.64875 0.0
O413 O 0.49315 0.5184 0.5776 0.0
O414 O 0.5672 0.50086 0.5641 0.0
O415 O 0.54925 0.50574 0.50367 0.0
O416 O 0.51321 0.49788 0.54882 0.0
C417 C 0.49708 0.50556 0.54766 0.0
O418 O 0.51914 0.54955 0.61811 0.0
O419 O 0.53082 0.53856 0.54875 0.0
O420 O 0.55426 0.52924 0.62883 0.0
O421 O 0.48217 0.53826 0.66274 0.0
O422 O 0.49441 0.52184 0.71841 0.0
O423 O 0.53385 0.52489 0.6898 0.0
C424 C 0.5663 0.47921 0.50371 0.0
C425 C 0.55597 0.46535 0.52625 0.0
C426 C 0.57882 0.457 0.45051 0.0
C427 C 0.55703 0.44747 0.51118 0.0
C428 C 0.57785 0.47496 0.466 0.0
C429 C 0.56823 0.44308 0.47262 0.0
C430 C 0.56421 0.49803 0.5189 0.0
C431 C 0.52503 0.55208 0.57439 0.0
H432 H 0.49971 0.56675 0.70516 0.0
H433 H 0.45795 0.55886 0.84308 0.0
H434 H 0.4969 0.5915 0.76182 0.0
H435 H 0.46083 0.53411 0.78613 0.0
H436 H 0.54685 0.46842 0.55517 0.0
H437 H 0.58741 0.45412 0.42035 0.0
H438 H 0.54893 0.43709 0.52954 0.0
H439 H 0.58583 0.48554 0.44803 0.0
Eu440 Eu 0.03758 0.5344 0.57546 0.0
Eu441 Eu 1.01476 0.50325 0.63638 0.0
C442 C 0.05894 0.5064 0.64347 0.0
C443 C 0.07794 0.55742 0.51546 0.0
C444 C 0.09055 0.54826 0.54469 0.0
C445 C 0.10227 0.56351 0.45841 0.0
C446 C 0.10883 0.54656 0.53067 0.0
C447 C 0.08396 0.56521 0.47253 0.0
C448 C 0.11484 0.55391 0.487 0.0
C449 C 0.0583 0.5576 0.52794 0.0
O450 O 1.00918 0.52991 0.67184 0.0
O451 O 0.03599 0.54453 0.65088 0.0
C452 C 0.02164 0.54286 0.67876 0.0
O453 O 1.00799 0.54287 0.56926 0.0
O454 O 1.00433 0.49212 0.7036 0.0
O455 O 0.99776 0.47847 0.63749 0.0
O456 O 0.99486 0.51469 0.5825 0.0
C457 C 0.99374 0.53153 0.5672 0.0
O458 O 0.02961 0.51176 0.5249 0.0
O459 O 0.02941 0.48837 0.57855 0.0
O460 O 0.04363 0.50313 0.66703 0.0
O461 O 0.0479 0.54519 0.50775 0.0
O462 O 0.05469 0.55914 0.573 0.0
O463 O 0.05887 0.51495 0.60225 0.0
C464 C 0.97416 0.48013 0.69442 0.0
C465 C 0.96113 0.48633 0.66107 0.0
C466 C 0.95006 0.47776 0.7537 0.0
C467 C 0.94278 0.48836 0.67401 0.0
C468 C 0.96843 0.47562 0.7406 0.0
C469 C 0.93708 0.48445 0.72074 0.0
C470 C 0.99389 0.47992 0.6825 0.0
C471 C 0.0305 0.49433 0.53448 0.0
H472 H 0.08618 0.5421 0.57799 0.0
H473 H 0.1064 0.56913 0.42429 0.0
H474 H 0.11819 0.53928 0.55378 0.0
H475 H 0.07438 0.57218 0.44934 0.0
H476 H 0.96519 0.49004 0.62523 0.0
H477 H 0.94623 0.47486 0.79017 0.0
H478 H 0.93312 0.49327 0.64753 0.0
H479 H 0.97829 0.47099 0.76697 0.0
C480 C 0.15469 0.0583 0.22058 0.0
C481 C 0.15351 0.04556 0.18364 0.0
C482 C 0.14303 0.05676 0.25996 0.0
C483 C 0.11417 0.02322 0.32628 0.0
H484 H 0.09229 0.06566 0.38071 0.0
C485 C 0.07437 0.01909 0.50296 0.0
C486 C 0.05775 0.02846 0.50523 0.0
C487 C 0.08639 0.02191 0.46483 0.0
C488 C 0.09822 0.05366 0.3658 0.0
H489 H 0.13914 0.02112 0.15956 0.0
H490 H 0.1187 0.01861 0.22767 0.0
H491 H 0.11216 0.06906 0.31132 0.0
H492 H 0.04099 0.04849 0.46932 0.0
H493 H 0.06193 0.05332 0.40274 0.0
H494 H 0.10003 1.00776 0.38009 0.0
C495 C 0.12873 0.02973 0.22643 0.0
C496 C 0.10976 0.05563 0.3263 0.0
C497 C 0.14032 0.0313 0.18703 0.0
C498 C 0.05367 0.04104 0.46886 0.0
C499 C 0.06573 0.04388 0.43072 0.0
C500 C 0.1027 0.02126 0.36581 0.0
C501 C 0.12997 0.04239 0.26352 0.0
C502 C 0.11783 0.04042 0.30592 0.0
C503 C 0.08214 0.03418 0.42791 0.0
C504 C 0.09455 0.03644 0.3861 0.0
H505 H 0.16456 0.06954 0.21896 0.0
H506 H 0.14447 0.06668 0.28801 0.0
H507 H 0.1203 1.01123 0.31191 0.0
H508 H 0.07803 1.00935 0.53036 0.0
H509 H 0.09904 0.01442 0.46427 0.0
C510 C 0.53165 0.14629 0.21088 0.0
C511 C 0.52939 0.16515 0.21293 0.0
C512 C 0.53028 0.13554 0.25187 0.0
C513 C 0.53337 0.1352 0.38177 0.0
H514 H 0.50186 0.09217 0.37021 0.0
C515 C 0.52042 0.08472 0.53948 0.0
C516 C 0.5207 0.06622 0.52774 0.0
C517 C 0.52031 0.09808 0.50359 0.0
C518 C 0.51084 0.10403 0.37403 0.0
H519 H 0.52472 0.18757 0.26044 0.0
H520 H 0.52276 0.16869 0.33254 0.0
H521 H 0.50493 0.11306 0.30308 0.0
H522 H 0.52097 0.04733 0.46892 0.0
H523 H 0.52107 0.07038 0.40713 0.0
H524 H 0.53973 0.12583 0.45239 0.0
C525 C 0.52544 0.16231 0.29884 0.0
C526 C 0.51256 0.11602 0.33555 0.0
C527 C 0.52663 0.17311 0.25757 0.0
C528 C 0.52068 0.06141 0.47946 0.0
C529 C 0.5206 0.07469 0.44382 0.0
C530 C 0.53179 0.12307 0.42033 0.0
C531 C 0.52683 0.14337 0.29612 0.0
C532 C 0.5241 0.13155 0.33865 0.0
C533 C 0.52043 0.0932 0.45528 0.0
C534 C 0.52078 0.10713 0.41653 0.0
H535 H 0.53429 0.13974 0.17739 0.0
H536 H 0.53183 0.12102 0.24888 0.0
H537 H 0.54238 0.14707 0.38508 0.0
H538 H 0.52043 0.08889 0.57632 0.0
H539 H 0.52003 0.11221 0.51366 0.0
C540 C 0.37661 0.48332 0.243 0.0
C541 C 0.37963 0.46961 0.20971 0.0
C542 C 0.38871 0.48592 0.28162 0.0
C543 C 0.43663 0.47768 0.31916 0.0
H544 H 0.41901 0.48893 0.44497 0.0
C545 C 0.48646 0.4857 0.47996 0.0
C546 C 0.4831 0.49992 0.51145 0.0
C547 C 0.47347 0.48088 0.44481 0.0
C548 C 0.42418 0.48598 0.40995 0.0
H549 H 0.39733 0.44737 0.19234 0.0
H550 H 0.41844 0.45201 0.25935 0.0
H551 H 0.39689 0.4827 0.38083 0.0
H552 H 0.46332 0.52012 0.53078 0.0
H553 H 0.44092 0.51195 0.46925 0.0
H554 H 0.46389 0.48124 0.34784 0.0
C555 C 0.40689 0.46094 0.25514 0.0
C556 C 0.41149 0.48239 0.3732 0.0
C557 C 0.39479 0.4583 0.21668 0.0
C558 C 0.46636 0.50905 0.5073 0.0
C559 C 0.45342 0.50428 0.47211 0.0
C560 C 0.44932 0.48134 0.35581 0.0
C561 C 0.40412 0.4749 0.28779 0.0
C562 C 0.41756 0.47827 0.32732 0.0
C563 C 0.45683 0.49021 0.44021 0.0
C564 C 0.44328 0.48562 0.40166 0.0
H565 H 0.36522 0.49242 0.23847 0.0
H566 H 0.38628 0.49692 0.30585 0.0
H567 H 0.44178 0.47481 0.28405 0.0
H568 H 0.49917 0.47831 0.48225 0.0
H569 H 0.47646 0.4698 0.42133 0.0
C570 C 0.02547 0.38102 0.21385 0.0
C571 C 0.04033 0.38162 0.18208 0.0
C572 C 0.02493 0.39295 0.25227 0.0
C573 C 0.04558 0.43657 0.29689 0.0
H574 H 0.0235 0.42061 0.4156 0.0
C575 C 0.03052 0.48709 0.44722 0.0
C576 C 0.03233 0.48127 0.4948 0.0
C577 C 0.03193 0.47483 0.40975 0.0
C578 C 0.02992 0.4253 0.38297 0.0
H579 H 0.06649 0.3951 0.16655 0.0
H580 H 0.0658 0.41565 0.23397 0.0
H581 H 0.02568 0.39941 0.3503 0.0
H582 H 0.03731 0.45789 0.54008 0.0
H583 H 0.04025 0.43661 0.47487 0.0
H584 H 0.05037 0.46228 0.33006 0.0
C585 C 0.05427 0.40625 0.22865 0.0
C586 C 0.03092 0.41315 0.34506 0.0
C587 C 0.05472 0.39441 0.18995 0.0
C588 C 0.03574 0.46285 0.50391 0.0
C589 C 0.0373 0.4506 0.46638 0.0
C590 C 0.04469 0.44867 0.33489 0.0
C591 C 0.03934 0.40576 0.26035 0.0
C592 C 0.03866 0.41862 0.30129 0.0
C593 C 0.03536 0.45638 0.41868 0.0
C594 C 0.03674 0.44327 0.37846 0.0
H595 H 1.01401 0.37153 0.20847 0.0
H596 H 1.01301 0.39232 0.27513 0.0
H597 H 0.05145 0.44144 0.26374 0.0
H598 H 0.02777 0.50114 0.43877 0.0
H599 H 0.03 0.47982 0.37373 0.0
C600 C 0.86981 0.98644 0.98058 0.0
C601 C 0.87714 0.98433 0.02681 0.0
C602 C 0.88148 0.98866 0.94135 0.0
C603 C 0.9294 1.00253 0.91035 0.0
H604 H 0.91893 0.97773 0.79171 0.0
C605 C 0.98357 1.00002 0.76299 0.0
C606 C 0.97772 1.00249 0.71554 0.0
C607 C 0.97076 0.99747 0.79938 0.0
C608 C 0.92195 0.98492 0.82441 0.0
H609 H 0.9026 0.98318 0.0678 0.0
H610 H 0.92283 0.98669 0.99971 0.0
H611 H 0.89752 0.97423 0.85802 0.0
H612 H 0.9537 1.00371 0.66915 0.0
H613 H 0.93127 0.99942 0.73298 0.0
H614 H 0.95377 0.01322 0.87707 0.0
C615 C 0.90806 0.98679 0.99366 0.0
C616 C 0.90967 0.98291 0.86244 0.0
C617 C 0.89643 0.98453 0.03274 0.0
C618 C 0.95869 1.00185 0.70527 0.0
C619 C 0.94583 0.99933 0.74187 0.0
C620 C 0.94163 1.00453 0.87245 0.0
C621 C 0.90077 0.98894 0.94744 0.0
C622 C 0.91334 0.99156 0.90609 0.0
C623 C 0.95172 0.99737 0.78951 0.0
C624 C 0.9382 0.99561 0.82911 0.0
H625 H 0.85503 0.98621 0.97461 0.0
H626 H 0.87538 0.99042 0.90633 0.0
H627 H 0.93249 1.00972 0.94301 0.0
H628 H 0.9981 1.00019 0.77226 0.0
H629 H 0.97584 0.99558 0.83543 0.0
C630 C 0.53865 0.90079 0.05576 0.0
C631 C 0.5242 0.88781 0.06007 0.0
C632 C 0.53967 0.91232 0.01602 0.0
C633 C 0.52363 0.91659 0.89129 0.0
H634 H 0.53672 0.96749 0.90739 0.0
C635 C 0.51621 0.96948 0.73958 0.0
C636 C 0.5297 0.98345 0.73592 0.0
C637 C 0.51628 0.95739 0.7782 0.0
C638 C 0.53331 0.95326 0.90214 0.0
H639 H 0.49928 0.87709 0.0262 0.0
H640 H 0.50111 0.89717 0.95685 0.0
H641 H 0.53518 0.94745 0.9768 0.0
H642 H 0.55414 0.99532 0.76957 0.0
H643 H 0.55441 0.97406 0.83653 0.0
H644 H 0.52174 0.92239 0.81665 0.0
C645 C 0.5118 0.89823 0.98393 0.0
C646 C 0.53239 0.94178 0.94199 0.0
C647 C 0.51075 0.88672 0.02371 0.0
C648 C 0.5435 0.98477 0.7713 0.0
C649 C 0.54358 0.97265 0.80991 0.0
C650 C 0.52459 0.92807 0.85143 0.0
C651 C 0.5263 0.91114 0.97955 0.0
C652 C 0.52747 0.92332 0.93708 0.0
C653 C 0.52985 0.95893 0.81412 0.0
C654 C 0.52937 0.94657 0.85636 0.0
H655 H 0.54941 0.90181 0.08266 0.0
H656 H 0.55115 0.92194 0.01346 0.0
H657 H 0.52009 0.90238 0.88617 0.0
H658 H 0.50532 0.96808 0.71312 0.0
H659 H 0.50536 0.94714 0.78053 0.0
C660 C 0.65268 0.5616 0.01211 0.0
C661 C 0.6716 0.56464 1.00376 0.0
C662 C 0.64032 0.55876 0.97434 0.0
C663 C 0.63723 0.54494 0.84851 0.0
H664 H 0.58955 0.56744 0.854 0.0
C665 C 0.583 0.53902 0.69539 0.0
C666 C 0.56467 0.53551 0.70935 0.0
C667 C 0.59662 0.54363 0.72919 0.0
C668 C 0.60274 0.56093 0.85205 0.0
H669 H 0.69233 0.56687 0.94883 0.0
H670 H 0.67068 0.56182 0.88268 0.0
H671 H 0.6123 0.5732 0.9167 0.0
H672 H 0.54632 0.53437 0.76991 0.0
H673 H 0.56997 0.54225 0.82846 0.0
H674 H 0.62754 0.53251 0.78399 0.0
C675 C 0.66547 0.56155 0.91866 0.0
C676 C 0.61579 0.56423 0.88804 0.0
C677 C 0.67788 0.56443 0.95657 0.0
C678 C 0.56026 0.53698 0.75775 0.0
C679 C 0.57383 0.54163 0.7914 0.0
C680 C 0.62414 0.54162 0.81242 0.0
C681 C 0.64651 0.55883 0.9271 0.0
C682 C 0.63311 0.55608 0.88712 0.0
C683 C 0.5922 0.54493 0.77765 0.0
C684 C 0.60664 0.54938 0.81412 0.0
H685 H 0.6474 0.56125 0.04802 0.0
H686 H 0.62589 0.55629 0.98226 0.0
H687 H 0.65037 0.53832 0.84689 0.0
H688 H 0.58689 0.53802 0.65843 0.0
H689 H 0.6106 0.54626 0.71733 0.0
C690 C 0.02362 0.65463 1.00346 0.0
C691 C 1.01075 0.65128 0.03983 0.0
C692 C 0.02444 0.64311 0.96419 0.0
C693 C 0.99736 0.60848 0.89625 0.0
H694 H 0.04523 0.59509 0.84983 0.0
C695 C 1.00569 0.55303 0.7529 0.0
C696 C 0.01974 0.5556 0.71918 0.0
C697 C 1.00429 0.56478 0.79161 0.0
C698 C 0.03172 0.59886 0.86179 0.0
H699 H 0.98839 0.63326 0.0626 0.0
H700 H 0.98992 0.61312 0.99439 0.0
H701 H 0.04332 0.61542 0.91728 0.0
H702 H 0.04316 0.57286 0.69959 0.0
H703 H 0.04053 0.59343 0.76621 0.0
H704 H 0.98574 0.59202 0.84058 0.0
C705 C 0.99935 0.62472 0.99614 0.0
C706 C 0.03063 0.61053 0.90064 0.0
C707 C 0.9986 0.63618 0.03556 0.0
C708 C 0.03222 0.57035 0.72493 0.0
C709 C 0.03078 0.58212 0.76347 0.0
C710 C 0.99844 0.59685 0.85722 0.0
C711 C 1.01235 0.62796 0.96002 0.0
C712 C 1.01345 0.61552 0.91844 0.0
C713 C 1.01687 0.57947 0.7976 0.0
C714 C 1.01564 0.59187 0.83935 0.0
H715 H 0.03331 0.66601 1.00568 0.0
H716 H 0.03451 0.64616 0.93688 0.0
H717 H 0.98388 0.6122 0.90855 0.0
H718 H 0.99586 0.54179 0.7498 0.0
H719 H 0.99353 0.56211 0.81735 0.0
C720 C 0.05429 0.20307 0.19785 0.0
C721 C 0.05315 0.2046 0.14805 0.0
C722 C 0.05041 0.18658 0.22055 0.0
C723 C 0.02248 0.14532 0.20469 0.0
H724 H 0.04639 0.13191 0.32352 0.0
C725 C 0.99819 0.08589 0.33022 0.0
C726 C 0.99677 0.09101 0.37813 0.0
C727 C 1.00624 0.09777 0.29687 0.0
C728 C 0.03963 0.13547 0.29028 0.0
H729 H 0.048 0.18971 0.08285 0.0
H730 H 0.04105 0.16074 0.12287 0.0
H731 H 0.0604 0.15548 0.27322 0.0
H732 H 1.00162 0.11297 0.42791 0.0
H733 H 1.01591 0.1335 0.36997 0.0
H734 H 1.00151 0.12546 0.2226 0.0
C735 C 0.04481 0.17244 0.14417 0.0
C736 C 0.04763 0.14893 0.26152 0.0
C737 C 0.04877 0.18901 0.12133 0.0
C738 C 1.00288 0.10847 0.39154 0.0
C739 C 1.01107 0.12021 0.35844 0.0
C740 C 1.01455 0.1317 0.23338 0.0
C741 C 0.04525 0.17117 0.1941 0.0
C742 C 0.03879 0.15449 0.21932 0.0
C743 C 1.01315 0.11485 0.31107 0.0
C744 C 0.02274 0.12717 0.2772 0.0
H745 H 0.05721 0.21483 0.21969 0.0
H746 H 0.05052 0.18618 0.25909 0.0
H747 H 1.01527 0.14939 0.17255 0.0
H748 H 0.99378 0.07246 0.31887 0.0
H749 H 1.00767 0.09339 0.26044 0.0
C750 C 0.34679 0.04207 0.11597 0.0
C751 C 0.33637 0.05561 0.13697 0.0
C752 C 0.36434 0.03816 0.13371 0.0
C753 C 0.40167 0.05449 0.21562 0.0
H754 H 0.40665 1.00331 0.24485 0.0
C755 C 0.44421 0.02887 0.3738 0.0
C756 C 0.45424 0.01291 0.3695 0.0
C757 C 0.43282 0.03473 0.33681 0.0
C758 C 0.40572 0.0176 0.23615 0.0
H759 H 0.33667 0.07664 0.19034 0.0
H760 H 0.36711 0.0697 0.22172 0.0
H761 H 0.38163 0.01307 0.19307 0.0
H762 H 0.46041 0.99076 0.32245 0.0
H763 H 0.44021 1.00093 0.25779 0.0
H764 H 0.42535 0.05904 0.2604 0.0
C765 C 0.36184 0.06211 0.1915 0.0
C766 C 0.39138 0.02321 0.20637 0.0
C767 C 0.34431 0.06597 0.17388 0.0
C768 C 0.45268 1.00299 0.32709 0.0
C769 C 0.44119 1.00884 0.29003 0.0
C770 C 0.416 0.04888 0.24541 0.0
C771 C 0.37181 0.04779 0.17261 0.0
C772 C 0.38886 0.04176 0.19698 0.0
C773 C 0.43109 0.02475 0.29462 0.0
C774 C 0.41782 0.03043 0.25718 0.0
H775 H 0.341 0.03382 0.08757 0.0
H776 H 0.37179 0.02719 0.11808 0.0
H777 H 0.40026 0.06884 0.20838 0.0
H778 H 0.4448 0.03664 0.4063 0.0
H779 H 0.4249 0.04681 0.34192 0.0
C780 C 0.57887 0.30078 0.26078 0.0
C781 C 0.5617 0.29327 0.24639 0.0
C782 C 0.57989 0.31427 0.29542 0.0
C783 C 0.55048 0.35017 0.33785 0.0
H784 H 0.59095 0.36067 0.42528 0.0
C785 C 0.55137 0.41413 0.45172 0.0
C786 C 0.56804 0.42423 0.45426 0.0
C787 C 0.55085 0.39666 0.43316 0.0
C788 C 0.57962 0.35793 0.40081 0.0
H789 H 0.53234 0.2928 0.26085 0.0
H790 H 0.53423 0.31565 0.32239 0.0
H791 H 0.58946 0.33159 0.38385 0.0
H792 H 0.59737 0.42363 0.44031 0.0
H793 H 0.59638 0.39318 0.40655 0.0
H794 H 0.54082 0.37652 0.35361 0.0
C795 C 0.54686 0.31156 0.30578 0.0
C796 C 0.57873 0.34128 0.37721 0.0
C797 C 0.54582 0.29822 0.2709 0.0
C798 C 0.58427 0.41629 0.43837 0.0
C799 C 0.58374 0.39876 0.41962 0.0
C800 C 0.55135 0.36672 0.36133 0.0
C801 C 0.56376 0.32039 0.31668 0.0
C802 C 0.56418 0.33726 0.34526 0.0
C803 C 0.56697 0.38885 0.41628 0.0
C804 C 0.56596 0.37087 0.3929 0.0
H805 H 0.59144 0.29699 0.24336 0.0
H806 H 0.59315 0.32071 0.30308 0.0
H807 H 0.53935 0.34778 0.31253 0.0
H808 H 0.53855 0.41987 0.46305 0.0
H809 H 0.53774 0.38932 0.43162 0.0
C810 C 0.24535 0.49208 0.29442 0.0
C811 C 0.25342 0.5024 0.25743 0.0
C812 C 0.23431 0.50028 0.32808 0.0
C813 C 0.20419 0.53923 0.33463 0.0
H814 H 0.19707 0.52258 0.46456 0.0
C815 C 0.14396 0.56435 0.44604 0.0
C816 C 0.13381 0.55066 0.47004 0.0
C817 C 0.16122 0.56077 0.42703 0.0
C818 C 0.19889 0.52736 0.42831 0.0
H819 H 0.25734 0.5297 0.22911 0.0
H820 H 0.23855 0.54404 0.28858 0.0
H821 H 0.22354 0.51232 0.4199 0.0
H822 H 0.134 0.52254 0.49352 0.0
H823 H 0.16397 0.51629 0.46029 0.0
H824 H 0.17929 0.55375 0.34225 0.0
C825 C 0.24043 0.52953 0.29093 0.0
C826 C 0.21405 0.5215 0.40276 0.0
C827 C 0.25141 0.52132 0.25718 0.0
C828 C 0.14156 0.53348 0.47586 0.0
C829 C 0.15879 0.5299 0.45685 0.0
C830 C 0.18907 0.54508 0.36012 0.0
C831 C 0.23115 0.51901 0.32559 0.0
C832 C 0.21666 0.52707 0.35526 0.0
C833 C 0.16869 0.5434 0.43153 0.0
C834 C 0.18601 0.53891 0.40689 0.0
H835 H 0.24686 0.4775 0.29605 0.0
H836 H 0.22735 0.49174 0.35418 0.0
H837 H 0.20554 0.54354 0.29786 0.0
H838 H 0.1385 0.57781 0.44162 0.0
H839 H 0.16862 0.57154 0.40829 0.0
C840 C 0.99123 0.83421 0.0567 0.0
C841 C 0.99828 0.8305 0.10242 0.0
C842 C 0.99348 0.85143 0.0364 0.0
C843 C 0.02589 0.88973 0.03867 0.0
H844 H 0.99071 0.91018 0.94963 0.0
C845 C 0.04371 0.94997 0.91054 0.0
C846 C 0.03817 0.94687 0.86316 0.0
C847 C 0.03755 0.93835 0.94704 0.0
C848 C 1.00065 0.90466 0.97452 0.0
H849 H 1.01208 0.84234 0.16399 0.0
H850 H 1.01623 0.87248 0.12802 0.0
H851 H 0.98089 0.88558 1.003 0.0
H852 H 0.02251 0.92874 0.81669 0.0
H853 H 1.01175 0.90865 0.88008 0.0
H854 H 0.04582 0.90838 1.00879 0.0
C855 C 1.00912 0.86194 0.10787 0.0
C856 C 0.99503 0.89062 1.00507 0.0
C857 C 1.00678 0.84469 0.12836 0.0
C858 C 0.02669 0.93175 0.85294 0.0
C859 C 0.02047 0.92026 0.88926 0.0
C860 C 0.0315 0.90383 1.00813 0.0
C861 C 1.00288 0.86534 0.06122 0.0
C862 C 1.00776 0.88255 0.0362 0.0
C863 C 0.02568 0.92352 0.93671 0.0
C864 C 0.0191 0.91094 0.97457 0.0
H865 H 0.9849 0.82357 0.03534 0.0
H866 H 0.98877 0.85351 1.00009 0.0
H867 H 0.03606 0.88369 0.062 0.0
H868 H 0.05243 0.9616 0.91954 0.0
H869 H 0.0418 0.94112 0.98336 0.0
C870 C 0.74624 0.9971 0.93466 0.0
C871 C 0.75579 1.00813 0.96767 0.0
C872 C 0.73599 1.00487 0.89779 0.0
C873 C 0.71062 0.04657 0.87882 0.0
H874 H 0.6951 0.02228 0.76291 0.0
C875 C 0.64491 0.06678 0.77602 0.0
C876 C 0.63282 0.05195 0.76719 0.0
C877 C 0.66323 0.06396 0.78972 0.0
C878 C 0.69939 0.02929 0.79501 0.0
H879 H 0.76373 0.03594 0.98452 0.0
H880 H 0.74649 0.0494 0.91911 0.0
H881 H 0.72316 0.01292 0.80415 0.0
H882 H 0.63061 0.02252 0.7659 0.0
H883 H 0.66242 0.01769 0.78911 0.0
H884 H 0.68652 0.06247 0.87063 0.0
C885 C 0.7464 0.03476 0.92267 0.0
C886 C 0.71543 0.02393 0.81867 0.0
C887 C 0.75651 0.027 0.95987 0.0
C888 C 0.63958 0.03428 0.77143 0.0
C889 C 0.65786 0.03149 0.78468 0.0
C890 C 0.69469 0.05201 0.85499 0.0
C891 C 0.73523 0.02384 0.89279 0.0
C892 C 0.72083 0.03202 0.8619 0.0
C893 C 0.66983 0.04626 0.79449 0.0
C894 C 0.68853 0.04296 0.8139 0.0
H895 H 0.74575 0.98249 0.93903 0.0
H896 H 0.72758 0.99597 0.87557 0.0
H897 H 0.71414 0.05297 0.91231 0.0
H898 H 0.64024 0.08056 0.77239 0.0
H899 H 0.67219 0.0756 0.79694 0.0
C900 C 0.48394 0.69998 0.09984 0.0
C901 C 0.48268 0.71684 0.07642 0.0
C902 C 0.48097 0.68383 0.07481 0.0
C903 C 0.46135 0.66571 0.96156 0.0
H904 H 0.49567 0.62691 0.98298 0.0
C905 C 0.47351 0.61005 0.82433 0.0
C906 C 0.47543 0.59216 0.84091 0.0
C907 C 0.47239 0.62433 0.85635 0.0
C908 C 0.4858 0.63751 0.97707 0.0
H909 H 0.47752 0.72996 1.00832 0.0
H910 H 0.47249 0.70196 0.96483 0.0
H911 H 0.49719 0.65358 0.03366 0.0
H912 H 0.47759 0.57515 0.90397 0.0
H913 H 0.47564 0.60018 0.96009 0.0
H914 H 0.45036 0.64986 0.904 0.0
C915 C 0.47531 0.70113 1.00269 0.0
C916 C 0.48664 0.65278 1.00616 0.0
C917 C 0.47822 0.71721 0.02766 0.0
C918 C 0.476 0.5888 0.89021 0.0
C919 C 0.47503 0.60311 0.92228 0.0
C920 C 0.46058 0.6505 0.93235 0.0
C921 C 0.47675 0.68423 0.02584 0.0
C922 C 0.47465 0.66721 0.99818 0.0
C923 C 0.47327 0.62103 0.90564 0.0
C924 C 0.473 0.63639 0.93928 0.0
H925 H 0.48719 0.69927 0.1375 0.0
H926 H 0.48198 0.67104 0.09381 0.0
H927 H 0.45165 0.67642 0.95506 0.0
H928 H 0.47286 0.61302 0.78653 0.0
H929 H 0.47124 0.63801 0.84246 0.0
C930 C 0.80428 0.51567 0.95255 0.0
C931 C 0.79743 0.53332 0.94995 0.0
C932 C 0.81548 0.50922 0.91663 0.0
C933 C 0.84868 0.52749 0.83111 0.0
H934 H 0.85239 0.47717 0.79431 0.0
C935 C 0.90942 0.50427 0.71965 0.0
C936 C 0.91801 0.48843 0.73585 0.0
C937 C 0.89215 0.50886 0.73665 0.0
C938 C 0.85155 0.49127 0.80436 0.0
H939 H 0.79556 0.55742 0.90553 0.0
H940 H 0.8151 0.54614 0.84263 0.0
H941 H 0.82565 0.48671 0.83911 0.0
H942 H 0.9147 0.46457 0.78102 0.0
H943 H 0.88482 0.47288 0.81184 0.0
H944 H 0.8748 0.532 0.79821 0.0
C945 C 0.8121 0.53743 0.87297 0.0
C946 C 0.83622 0.49673 0.82989 0.0
C947 C 0.80089 0.54388 0.90893 0.0
C948 C 0.90861 0.47699 0.7683 0.0
C949 C 0.89135 0.48164 0.78547 0.0
C950 C 0.86397 0.52204 0.80573 0.0
C951 C 0.82008 0.52029 0.87731 0.0
C952 C 0.8348 0.51484 0.84438 0.0
C953 C 0.88307 0.49781 0.77051 0.0
C954 C 0.86579 0.5038 0.79286 0.0
H955 H 0.80208 0.50725 0.98388 0.0
H956 H 0.82153 0.49604 0.92136 0.0
H957 H 0.84822 0.54147 0.84244 0.0
H958 H 0.91631 0.5135 0.69505 0.0
H959 H 0.88607 0.52129 0.72392 0.0
C960 C 0.01971 0.19919 0.8406 0.0
C961 C 0.03684 0.20766 0.85102 0.0
C962 C 0.01872 0.18218 0.81874 0.0
C963 C 0.04672 0.14997 0.74903 0.0
H964 H 1.00704 0.11602 0.78133 0.0
C965 C 0.04321 0.07519 0.68288 0.0
C966 C 0.02586 0.06842 0.66748 0.0
C967 C 0.04496 0.09218 0.70486 0.0
C968 C 0.01813 0.1254 0.77156 0.0
H969 H 0.06642 0.20459 0.84727 0.0
H970 H 0.06476 0.17481 0.81013 0.0
H971 H 1.00942 0.14516 0.82125 0.0
H972 H 0.99676 0.07446 0.66295 0.0
H973 H 0.99982 0.1039 0.70133 0.0
H974 H 0.05554 0.12994 0.69982 0.0
C975 C 0.05201 0.18147 0.81776 0.0
C976 C 0.01948 0.14219 0.79442 0.0
C977 C 0.05298 0.19857 0.83928 0.0
C978 C 1.01035 0.07916 0.67432 0.0
C979 C 1.01208 0.09604 0.69667 0.0
C980 C 0.04545 0.13308 0.72647 0.0
C981 C 0.03485 0.17302 0.80696 0.0
C982 C 0.03372 0.15483 0.78331 0.0
C983 C 0.02938 0.10275 0.71247 0.0
C984 C 0.03105 0.12061 0.73718 0.0
H985 H 1.00699 0.2059 0.84838 0.0
H986 H 1.00524 0.17639 0.81027 0.0
H987 H 0.05773 0.15936 0.7388 0.0
H988 H 0.05546 0.06732 0.67825 0.0
H989 H 0.05848 0.09686 0.71684 0.0
C990 C 0.33177 0.04445 0.80527 0.0
C991 C 0.3299 0.0469 0.85456 0.0
C992 C 0.34922 0.04366 0.78472 0.0
C993 C 0.39841 0.05624 0.80473 0.0
H994 H 0.40678 0.02023 0.70822 0.0
C995 C 0.47141 0.0417 0.7342 0.0
C996 C 0.47322 0.03726 0.68591 0.0
C997 C 0.45397 0.0436 0.75423 0.0
C998 C 0.40466 0.03056 0.73458 0.0
H999 H 0.34507 0.05065 0.92075 0.0
H1000 H 0.37556 0.04914 0.88492 0.0
H1001 H 0.37651 0.02199 0.74429 0.0
H1002 H 0.45795 0.03183 0.6206 0.0
H1003 H 0.42762 0.03549 0.65522 0.0
H1004 H 0.42654 0.06487 0.79488 0.0
C1005 C 0.36347 0.04793 0.86212 0.0
C1006 C 0.38726 0.03154 0.75539 0.0
C1007 C 0.34598 0.04861 0.88274 0.0
C1008 C 0.45712 0.03517 0.65795 0.0
C1009 C 0.43968 0.03714 0.67795 0.0
C1010 C 0.41581 0.05531 0.78376 0.0
C1011 C 0.36531 0.04538 0.81284 0.0
C1012 C 0.3839 0.04437 0.79077 0.0
C1013 C 0.43783 0.04118 0.72652 0.0
C1014 C 0.41919 0.04244 0.7484 0.0
H1015 H 0.31971 0.04288 0.78252 0.0
H1016 H 0.3501 0.04186 0.74662 0.0
H1017 H 0.39625 0.06646 0.83139 0.0
H1018 H 0.48346 0.04332 0.75695 0.0
H1019 H 0.45315 0.04648 0.79184 0.0
C1020 C 0.50823 0.33249 0.84003 0.0
C1021 C 0.52167 0.32031 0.82599 0.0
C1022 C 0.50733 0.34971 0.8191 0.0
C1023 C 0.52354 0.37708 0.71477 0.0
H1024 H 0.51123 0.4175 0.79485 0.0
C1025 C 0.53469 0.45219 0.65896 0.0
C1026 C 0.52019 0.46402 0.66757 0.0
C1027 C 0.53407 0.43442 0.67665 0.0
C1028 C 0.5145 0.40631 0.77195 0.0
H1029 H 0.5447 0.31654 0.779 0.0
H1030 H 0.54352 0.34681 0.74321 0.0
H1031 H 0.51203 0.38701 0.82884 0.0
H1032 H 0.49369 0.46642 0.70172 0.0
H1033 H 0.4928 0.43538 0.7334 0.0
H1034 H 0.52654 0.39664 0.65827 0.0
C1035 C 0.53335 0.34295 0.76962 0.0
C1036 C 0.51491 0.3888 0.79135 0.0
C1037 C 0.5341 0.32562 0.7902 0.0
C1038 C 0.50507 0.45766 0.6944 0.0
C1039 C 0.50459 0.43992 0.71269 0.0
C1040 C 0.52333 0.39464 0.69554 0.0
C1041 C 0.52 0.35527 0.78396 0.0
C1042 C 0.51943 0.37392 0.76303 0.0
C1043 C 0.51908 0.42813 0.70394 0.0
C1044 C 0.51882 0.40943 0.72395 0.0
H1045 H 0.49829 0.32864 0.86705 0.0
H1046 H 0.49659 0.35861 0.83035 0.0
H1047 H 0.52675 0.36597 0.69162 0.0
H1048 H 0.54657 0.45663 0.63854 0.0
H1049 H 0.54552 0.4257 0.66975 0.0
C1050 C 0.21562 0.47541 0.7889 0.0
C1051 C 0.21653 0.46794 0.83507 0.0
C1052 C 0.19859 0.47865 0.76708 0.0
C1053 C 0.1487 0.46648 0.77308 0.0
H1054 H 0.14322 0.51141 0.70211 0.0
C1055 C 0.07773 0.49247 0.70936 0.0
C1056 C 0.07682 0.5006 0.66396 0.0
C1057 C 0.09472 0.48772 0.72931 0.0
C1058 C 0.14456 0.4987 0.7213 0.0
H1059 H 0.20014 0.45758 0.89395 0.0
H1060 H 0.17046 0.46359 0.85632 0.0
H1061 H 0.17289 0.50451 0.73836 0.0
H1062 H 0.09312 0.50968 0.60347 0.0
H1063 H 0.12262 0.50137 0.63815 0.0
H1064 H 0.12028 0.46077 0.75626 0.0
C1065 C 0.18292 0.4668 0.83677 0.0
C1066 C 0.1616 0.49472 0.74208 0.0
C1067 C 0.19996 0.46355 0.85859 0.0
C1068 C 0.09327 0.5036 0.63869 0.0
C1069 C 0.11024 0.4989 0.65867 0.0
C1070 C 0.13163 0.47047 0.75233 0.0
C1071 C 0.18202 0.47451 0.79086 0.0
C1072 C 0.1639 0.47857 0.76826 0.0
C1073 C 0.1112 0.49103 0.70436 0.0
C1074 C 0.12936 0.48664 0.72619 0.0
H1075 H 0.22809 0.47912 0.76989 0.0
H1076 H 0.19842 0.48438 0.73147 0.0
H1077 H 0.15004 0.4538 0.79243 0.0
H1078 H 0.06535 0.48998 0.72988 0.0
H1079 H 0.09498 0.48185 0.76477 0.0
C1080 C 1.00364 0.83492 0.36271 0.0
C1081 C 1.01081 0.8199 0.38736 0.0
C1082 C 1.00376 0.85215 0.38353 0.0
C1083 C 1.00721 0.87518 0.50074 0.0
H1084 H 0.01875 0.9179 0.42424 0.0
C1085 C 0.01882 0.94665 0.58372 0.0
C1086 C 1.01238 0.96173 0.558 0.0
C1087 C 0.01835 0.92929 0.56351 0.0
C1088 C 1.01525 0.90616 0.44611 0.0
H1089 H 0.02417 0.81159 0.45321 0.0
H1090 H 0.02427 0.84146 0.48938 0.0
H1091 H 0.01846 0.88805 0.38776 0.0
H1092 H 1.00004 0.97015 0.49093 0.0
H1093 H 0.99897 0.94004 0.45625 0.0
H1094 H 1.00396 0.8933 0.55908 0.0
C1095 C 0.01826 0.83988 0.4542 0.0
C1096 C 1.0151 0.88899 0.42509 0.0
C1097 C 0.01818 0.82268 0.43337 0.0
C1098 C 1.00521 0.95892 0.51185 0.0
C1099 C 1.00473 0.94161 0.49171 0.0
C1100 C 1.00733 0.89237 0.52175 0.0
C1101 C 1.01102 0.85487 0.42966 0.0
C1102 C 1.01109 0.87323 0.45208 0.0
C1103 C 1.01142 0.92654 0.51703 0.0
C1104 C 1.01134 0.90813 0.49475 0.0
H1105 H 0.99761 0.83334 0.32755 0.0
H1106 H 0.99784 0.86329 0.36372 0.0
H1107 H 1.00378 0.86341 0.52257 0.0
H1108 H 0.0245 0.94826 0.61926 0.0
H1109 H 0.02382 0.9181 0.58401 0.0
C1110 C 0.71438 0.99805 0.43578 0.0
C1111 C 0.71692 0.9836 0.40441 0.0
C1112 C 0.69725 1.0006 0.4568 0.0
C1113 C 0.65329 0.97721 0.4878 0.0
H1114 H 0.63487 0.02606 0.49223 0.0
C1115 C 0.57914 0.99297 0.55055 0.0
C1116 C 0.57692 1.00898 0.57642 0.0
C1117 C 0.59615 0.98921 0.52993 0.0
C1118 C 0.63988 0.01234 0.49198 0.0
H1119 H 0.70346 0.96028 0.37135 0.0
H1120 H 0.6735 0.96478 0.408 0.0
H1121 H 0.66458 0.02079 0.45614 0.0
H1122 H 0.59109 0.03332 0.60206 0.0
H1123 H 0.62062 0.02657 0.5676 0.0
H1124 H 0.62864 0.96879 0.52415 0.0
C1125 C 0.68481 0.97412 0.41637 0.0
C1126 C 0.65693 1.00933 0.47112 0.0
C1127 C 0.70193 0.97164 0.39503 0.0
C1128 C 0.5922 0.0209 0.58213 0.0
C1129 C 0.60917 0.0171 0.56193 0.0
C1130 C 0.63623 0.98024 0.50899 0.0
C1131 C 0.68223 0.98871 0.44725 0.0
C1132 C 0.66391 0.99175 0.46895 0.0
C1133 C 0.61135 1.00134 0.53495 0.0
C1134 C 0.62934 0.99788 0.51161 0.0
H1135 H 0.72557 1.00761 0.44348 0.0
H1136 H 0.69579 1.01187 0.48079 0.0
H1137 H 0.65834 0.96351 0.48707 0.0
H1138 H 0.56765 0.98351 0.54532 0.0
H1139 H 0.59724 0.97702 0.50909 0.0
C1140 C 0.52162 0.6979 0.3567 0.0
C1141 C 0.51437 0.71215 0.38301 0.0
C1142 C 0.52223 0.68035 0.37597 0.0
C1143 C 0.50267 0.65068 0.4714 0.0
H1144 H 0.54719 0.62358 0.45399 0.0
C1145 C 0.51715 0.58503 0.57791 0.0
C1146 C 0.52457 0.57053 0.55287 0.0
C1147 C 0.51587 0.6022 0.55667 0.0
C1148 C 0.53458 0.63088 0.45878 0.0
H1149 H 0.50143 0.71891 0.44955 0.0
H1150 H 0.50279 0.68844 0.48341 0.0
H1151 H 0.54442 0.65342 0.41684 0.0
H1152 H 0.53668 0.56287 0.4859 0.0
H1153 H 0.53438 0.59276 0.44895 0.0
H1154 H 0.49288 0.62818 0.5136 0.0
C1155 C 0.50792 0.69077 0.44777 0.0
C1156 C 0.53297 0.64798 0.43738 0.0
C1157 C 0.50732 0.70831 0.42854 0.0
C1158 C 0.53093 0.57371 0.50634 0.0
C1159 C 0.52969 0.59089 0.48516 0.0
C1160 C 0.50428 0.63359 0.49285 0.0
C1161 C 0.51557 0.6766 0.42197 0.0
C1162 C 0.51702 0.65814 0.44354 0.0
C1163 C 0.52202 0.60532 0.50993 0.0
C1164 C 0.52028 0.62349 0.48694 0.0
H1165 H 0.52729 0.7004 0.32168 0.0
H1166 H 0.528 0.66971 0.35485 0.0
H1167 H 0.49007 0.65799 0.47631 0.0
H1168 H 0.51213 0.5831 0.61382 0.0
H1169 H 0.51014 0.61307 0.57701 0.0
C1170 C 0.83829 0.57061 0.42365 0.0
C1171 C 0.83706 0.57195 0.37376 0.0
C1172 C 0.85528 0.568 0.44635 0.0
C1173 C 0.90607 0.57064 0.4271 0.0
H1174 H 0.90705 0.53701 0.53389 0.0
C1175 C 0.97336 0.55566 0.53273 0.0
C1176 C 0.97595 0.5375 0.54653 0.0
C1177 C 0.95644 0.56105 0.51345 0.0
C1178 C 0.90707 0.54636 0.50393 0.0
H1179 H 0.853 0.57214 0.30884 0.0
H1180 H 0.88246 0.56697 0.34819 0.0
H1181 H 0.87777 0.54411 0.49626 0.0
H1182 H 0.96273 0.51078 0.55037 0.0
H1183 H 0.93359 0.52007 0.51627 0.0
H1184 H 0.93551 0.57228 0.43367 0.0
C1185 C 0.87032 0.56819 0.36993 0.0
C1186 C 0.8902 0.55064 0.48272 0.0
C1187 C 0.85334 0.5709 0.34726 0.0
C1188 C 0.96125 0.52491 0.5405 0.0
C1189 C 0.94442 0.53027 0.52116 0.0
C1190 C 0.92298 0.56629 0.44822 0.0
C1191 C 0.87151 0.56655 0.41978 0.0
C1192 C 0.88947 0.56272 0.44374 0.0
C1193 C 0.94174 0.54842 0.50747 0.0
C1194 C 0.92372 0.55392 0.48659 0.0
H1195 H 0.82605 0.57118 0.44527 0.0
H1196 H 0.85567 0.56706 0.48482 0.0
H1197 H 0.90604 0.5802 0.39759 0.0
H1198 H 0.98436 0.56573 0.53704 0.0
H1199 H 0.95481 0.57518 0.50376 0.0
loop_
_geom_bond_atom_site_label_1
_geom_bond_atom_site_label_2
_geom_bond_distance
_geom_bond_site_symmetry_2
_ccdc_geom_bond_type
C0 C1 1.264 . S
C0 C5 1.479 . S
C0 C10 1.465 . S
C1 C0 1.264 . S
C1 C3 1.339 . S
C1 H28 0.931 . S
C2 C3 1.395 . S
C2 C4 1.320 . S
C3 C1 1.339 . S
C3 C2 1.395 . S
C3 H29 0.929 . S
C4 C2 1.320 . S
C4 C5 1.405 . S
C4 H30 0.930 . S
C5 C0 1.479 . S
C5 C4 1.405 . S
C5 H31 0.931 . S
U6 O7 2.454 . S
U6 O8 2.458 . S
U6 C9 2.984 . S
U6 C10 2.847 . S
U6 C23 2.882 . S
U6 O24 2.441 . S
U6 O25 2.420 . S
U6 O26 2.455 . S
U6 O27 2.449 . S
O7 U6 2.454 . S
O7 C9 1.353 . S
O8 U6 2.458 . S
O8 C9 1.286 . S
C9 U6 2.984 . S
C9 O7 1.353 . S
C9 O8 1.286 . S
C9 C11 1.363 . S
C10 C0 1.465 . S
C10 U6 2.847 . S
C10 O24 1.249 . S
C10 O25 1.202 . S
C11 C9 1.363 . S
C11 C13 1.408 . S
C11 C16 1.342 . S
C12 C13 1.310 . S
C12 C15 1.461 . S
C12 H32 0.932 . S
C13 C11 1.408 . S
C13 C12 1.310 . S
C13 H33 0.930 . S
C14 C15 1.474 . S
C14 C16 1.285 . S
C14 H34 0.929 1_554 S
C15 C12 1.461 . S
C15 C14 1.474 . S
C16 C11 1.342 . S
C16 C14 1.285 . S
C16 H35 0.930 . S
C17 C20 1.424 . S
C17 C22 1.245 1_554 S
C17 C23 1.428 . S
C18 C21 1.260 . S
C18 C22 1.477 . S
C18 H36 0.932 . S
C19 C20 1.384 . S
C19 C21 1.479 1_554 S
C19 H37 0.929 . S
C20 C17 1.424 . S
C20 C19 1.384 . S
C20 H38 0.928 . S
C21 C18 1.260 . S
C21 C19 1.479 1_556 S
C22 C17 1.245 1_556 S
C22 C18 1.477 . S
C22 H39 0.932 . S
C23 U6 2.882 . S
C23 C17 1.428 . S
C23 O26 1.301 . S
C23 O27 1.282 . S
O24 U6 2.441 . S
O24 C10 1.249 . S
O25 U6 2.420 . S
O25 C10 1.202 . S
O26 U6 2.455 . S
O26 C23 1.301 . S
O27 U6 2.449 . S
O27 C23 1.282 . S
H28 C1 0.931 . S
H29 C3 0.929 . S
H30 C4 0.930 . S
H31 C5 0.931 . S
H32 C12 0.932 . S
H33 C13 0.930 . S
H34 C14 0.929 1_556 S
H35 C16 0.930 . S
H36 C18 0.932 . S
H37 C19 0.929 . S
H38 C20 0.928 . S
H39 C22 0.932 . S
C40 C41 1.264 . S
C40 C45 1.479 . S
C40 C50 1.465 . S
C41 C40 1.264 . S
C41 C43 1.339 . S
C41 H68 0.931 . S
C42 C43 1.395 . S
C42 C44 1.320 . S
C43 C41 1.339 . S
C43 C42 1.395 . S
C43 H69 0.929 . S
C44 C42 1.320 . S
C44 C45 1.405 . S
C44 H70 0.930 . S
C45 C40 1.479 . S
C45 C44 1.405 . S
C45 H71 0.931 . S
U46 O47 2.454 . S
U46 O48 2.458 . S
U46 C49 2.984 . S
U46 C50 2.847 . S
U46 C63 2.882 . S
U46 O64 2.441 . S
U46 O65 2.420 . S
U46 O66 2.455 . S
U46 O67 2.449 . S
O47 U46 2.454 . S
O47 C49 1.353 . S
O48 U46 2.458 . S
O48 C49 1.286 . S
C49 U46 2.984 . S
C49 O47 1.353 . S
C49 O48 1.286 . S
C49 C51 1.363 . S
C50 C40 1.465 . S
C50 U46 2.847 . S
C50 O64 1.249 . S
C50 O65 1.202 . S
C51 C49 1.363 . S
C51 C53 1.408 . S
C51 C56 1.342 . S
C52 C53 1.310 . S
C52 C55 1.461 . S
C52 H72 0.932 . S
C53 C51 1.408 . S
C53 C52 1.310 . S
C53 H73 0.930 . S
C54 C55 1.474 . S
C54 C56 1.285 . S
C54 H74 0.929 . S
C55 C52 1.461 . S
C55 C54 1.474 . S
C56 C51 1.342 . S
C56 C54 1.285 . S
C56 H75 0.930 . S
C57 C60 1.424 . S
C57 C62 1.245 . S
C57 C63 1.428 . S
C58 C61 1.264 . S
C58 C62 1.490 . S
C58 H76 0.913 1_554 S
C59 C60 1.384 . S
C59 C61 1.479 . S
C59 H77 0.929 . S
C60 C57 1.424 . S
C60 C59 1.384 . S
C60 H78 0.928 . S
C61 C58 1.264 . S
C61 C59 1.479 . S
C62 C57 1.245 . S
C62 C58 1.490 . S
C62 H79 0.932 . S
C63 U46 2.882 . S
C63 C57 1.428 . S
C63 O66 1.301 . S
C63 O67 1.282 . S
O64 U46 2.441 . S
O64 C50 1.249 . S
O65 U46 2.420 . S
O65 C50 1.202 . S
O66 U46 2.455 . S
O66 C63 1.301 . S
O67 U46 2.449 . S
O67 C63 1.282 . S
H68 C41 0.931 . S
H69 C43 0.929 . S
H70 C44 0.930 . S
H71 C45 0.931 . S
H72 C52 0.932 . S
H73 C53 0.930 . S
H74 C54 0.929 . S
H75 C56 0.930 . S
H76 C58 0.913 1_556 S
H77 C59 0.929 . S
H78 C60 0.928 . S
H79 C62 0.932 . S
C80 C81 1.264 . S
C80 C85 1.479 . S
C80 C90 1.465 . S
C81 C80 1.264 . S
C81 C83 1.339 . S
C81 H108 0.931 . S
C82 C83 1.395 . S
C82 C84 1.320 . S
C83 C81 1.339 . S
C83 C82 1.395 . S
C83 H109 0.929 . S
C84 C82 1.320 . S
C84 C85 1.405 . S
C84 H110 0.930 . S
C85 C80 1.479 . S
C85 C84 1.405 . S
C85 H111 0.931 . S
U86 O87 2.454 . S
U86 O88 2.458 . S
U86 C89 2.984 . S
U86 C90 2.847 . S
U86 C103 2.882 . S
U86 O104 2.441 . S
U86 O105 2.420 . S
U86 O106 2.455 . S
U86 O107 2.449 . S
O87 U86 2.454 . S
O87 C89 1.353 . S
O88 U86 2.458 . S
O88 C89 1.286 . S
C89 U86 2.984 . S
C89 O87 1.353 . S
C89 O88 1.286 . S
C89 C91 1.363 . S
C90 C80 1.465 . S
C90 U86 2.847 . S
C90 O104 1.249 . S
C90 O105 1.202 . S
C91 C89 1.363 . S
C91 C93 1.408 . S
C91 C96 1.342 . S
C92 C93 1.310 . S
C92 C95 1.461 . S
C92 H112 0.932 . S
C93 C91 1.408 . S
C93 C92 1.310 . S
C93 H113 0.930 . S
C94 C95 1.474 . S
C94 C96 1.285 . S
C94 H114 0.929 . S
C95 C92 1.461 . S
C95 C94 1.474 . S
C96 C91 1.342 . S
C96 C94 1.285 . S
C96 H115 0.930 . S
C97 C100 1.424 . S
C97 C102 1.245 . S
C97 C103 1.428 . S
C98 C101 1.260 . S
C98 C102 1.477 . S
C98 H116 0.932 1_554 S
C99 C100 1.384 . S
C99 C101 1.479 . S
C99 H117 0.929 . S
C100 C97 1.424 . S
C100 C99 1.384 . S
C100 H118 0.928 . S
C101 C98 1.260 . S
C101 C99 1.479 . S
C102 C97 1.245 . S
C102 C98 1.477 . S
C102 H119 0.932 . S
C103 U86 2.882 . S
C103 C97 1.428 . S
C103 O106 1.301 . S
C103 O107 1.282 . S
O104 U86 2.441 . S
O104 C90 1.249 . S
O105 U86 2.420 . S
O105 C90 1.202 . S
O106 U86 2.455 . S
O106 C103 1.301 . S
O107 U86 2.449 . S
O107 C103 1.282 . S
H108 C81 0.931 . S
H109 C83 0.929 . S
H110 C84 0.930 . S
H111 C85 0.931 . S
H112 C92 0.932 . S
H113 C93 0.930 . S
H114 C94 0.929 . S
H115 C96 0.930 . S
H116 C98 0.932 1_556 S
H117 C99 0.929 . S
H118 C100 0.928 . S
H119 C102 0.932 . S
C120 C121 1.264 . S
C120 C125 1.479 . S
C120 C130 1.465 . S
C121 C120 1.264 . S
C121 C123 1.339 . S
C121 H148 0.931 . S
C122 C123 1.395 . S
C122 C124 1.320 . S
C123 C121 1.339 . S
C123 C122 1.395 . S
C123 H149 0.929 . S
C124 C122 1.320 . S
C124 C125 1.405 . S
C124 H150 0.930 . S
C125 C120 1.479 . S
C125 C124 1.405 . S
C125 H151 0.931 . S
U126 O127 2.454 . S
U126 O128 2.458 . S
U126 C129 2.984 . S
U126 C130 2.847 . S
U126 C143 2.882 . S
U126 O144 2.441 . S
U126 O145 2.420 . S
U126 O146 2.455 . S
U126 O147 2.449 . S
O127 U126 2.454 . S
O127 C129 1.353 . S
O128 U126 2.458 . S
O128 C129 1.286 . S
C129 U126 2.984 . S
C129 O127 1.353 . S
C129 O128 1.286 . S
C129 C131 1.363 . S
C130 C120 1.465 . S
C130 U126 2.847 . S
C130 O144 1.249 . S
C130 O145 1.202 . S
C131 C129 1.363 . S
C131 C133 1.408 . S
C131 C136 1.342 . S
C132 C133 1.310 . S
C132 C135 1.461 . S
C132 H152 0.932 . S
C133 C131 1.408 . S
C133 C132 1.310 . S
C133 H153 0.930 . S
C134 C135 1.474 . S
C134 C136 1.285 . S
C134 H154 0.929 . S
C135 C132 1.461 . S
C135 C134 1.474 . S
C136 C131 1.342 . S
C136 C134 1.285 . S
C136 H155 0.930 . S
C137 C140 1.424 . S
C137 C142 1.245 1_554 S
C137 C143 1.428 . S
C138 C141 1.260 . S
C138 C142 1.477 . S
C138 H156 0.932 . S
C139 C140 1.384 . S
C139 C141 1.479 1_554 S
C139 H157 0.929 . S
C140 C137 1.424 . S
C140 C139 1.384 . S
C140 H158 0.928 . S
C141 C138 1.260 . S
C141 C139 1.479 1_556 S
C142 C137 1.245 1_556 S
C142 C138 1.477 . S
C142 H159 0.932 . S
C143 U126 2.882 . S
C143 C137 1.428 . S
C143 O146 1.301 . S
C143 O147 1.282 . S
O144 U126 2.441 . S
O144 C130 1.249 . S
O145 U126 2.420 . S
O145 C130 1.202 . S
O146 U126 2.455 . S
O146 C143 1.301 . S
O147 U126 2.449 . S
O147 C143 1.282 . S
H148 C121 0.931 . S
H149 C123 0.929 . S
H150 C124 0.930 . S
H151 C125 0.931 . S
H152 C132 0.932 . S
H153 C133 0.930 . S
H154 C134 0.929 . S
H155 C136 0.930 . S
H156 C138 0.932 . S
H157 C139 0.929 . S
H158 C140 0.928 . S
H159 C142 0.932 . S
C160 C161 1.264 . S
C160 C165 1.479 . S
C160 C170 1.465 . S
C161 C160 1.264 . S
C161 C163 1.339 . S
C161 H188 0.931 . S
C162 C163 1.395 . S
C162 C164 1.320 . S
C163 C161 1.339 . S
C163 C162 1.395 . S
C163 H189 0.929 . S
C164 C162 1.320 . S
C164 C165 1.405 . S
C164 H190 0.930 . S
C165 C160 1.479 . S
C165 C164 1.405 . S
C165 H191 0.931 . S
U166 O167 2.454 . S
U166 O168 2.458 . S
U166 C169 2.984 . S
U166 C170 2.847 1_554 S
U166 C183 2.882 . S
U166 O184 2.441 1_554 S
U166 O185 2.420 . S
U166 O186 2.455 . S
U166 O187 2.449 . S
O167 U166 2.454 . S
O167 C169 1.353 . S
O168 U166 2.458 . S
O168 C169 1.286 . S
C169 U166 2.984 . S
C169 O167 1.353 . S
C169 O168 1.286 . S
C169 C171 1.363 . S
C170 C160 1.465 . S
C170 U166 2.847 1_556 S
C170 O184 1.249 . S
C170 O185 1.202 1_556 S
C171 C169 1.363 . S
C171 C173 1.408 . S
C171 C176 1.342 . S
C172 C173 1.310 . S
C172 C175 1.461 . S
C172 H192 0.932 . S
C173 C171 1.408 . S
C173 C172 1.310 . S
C173 H193 0.930 . S
C174 C175 1.474 . S
C174 C176 1.285 . S
C174 H194 0.929 . S
C175 C172 1.461 . S
C175 C174 1.474 . S
C176 C171 1.342 . S
C176 C174 1.285 . S
C176 H195 0.930 . S
C177 C180 1.424 . S
C177 C182 1.245 . S
C177 C183 1.428 . S
C178 C181 1.260 . S
C178 C182 1.477 . S
C178 H196 0.932 . S
C179 C180 1.384 . S
C179 C181 1.479 . S
C179 H197 0.929 . S
C180 C177 1.424 . S
C180 C179 1.384 . S
C180 H198 0.928 . S
C181 C178 1.260 . S
C181 C179 1.479 . S
C182 C177 1.245 . S
C182 C178 1.477 . S
C182 H199 0.932 . S
C183 U166 2.882 . S
C183 C177 1.428 . S
C183 O186 1.301 . S
C183 O187 1.282 . S
O184 U166 2.441 1_556 S
O184 C170 1.249 . S
O185 U166 2.420 . S
O185 C170 1.202 1_554 S
O186 U166 2.455 . S
O186 C183 1.301 . S
O187 U166 2.449 . S
O187 C183 1.282 . S
H188 C161 0.931 . S
H189 C163 0.929 . S
H190 C164 0.930 . S
H191 C165 0.931 . S
H192 C172 0.932 . S
H193 C173 0.930 . S
H194 C174 0.929 . S
H195 C176 0.930 . S
H196 C178 0.932 . S
H197 C179 0.929 . S
H198 C180 0.928 . S
H199 C182 0.932 . S
C200 C201 1.264 . S
C200 C205 1.479 . S
C200 C210 1.465 . S
C201 C200 1.264 . S
C201 C203 1.339 . S
C201 H228 0.931 . S
C202 C203 1.395 . S
C202 C204 1.320 . S
C203 C201 1.339 . S
C203 C202 1.395 . S
C203 H229 0.929 . S
C204 C202 1.320 . S
C204 C205 1.405 . S
C204 H230 0.930 . S
C205 C200 1.479 . S
C205 C204 1.405 . S
C205 H231 0.931 . S
U206 O207 2.454 . S
U206 O208 2.458 . S
U206 C209 2.984 . S
U206 C210 2.847 1_554 S
U206 C223 2.882 . S
U206 O224 2.441 1_554 S
U206 O225 2.420 1_554 S
U206 O226 2.455 . S
U206 O227 2.449 . S
O207 U206 2.454 . S
O207 C209 1.353 . S
O208 U206 2.458 . S
O208 C209 1.286 . S
C209 U206 2.984 . S
C209 O207 1.353 . S
C209 O208 1.286 . S
C209 C211 1.363 . S
C210 C200 1.465 . S
C210 U206 2.847 1_556 S
C210 O224 1.249 . S
C210 O225 1.202 . S
C211 C209 1.363 . S
C211 C213 1.408 . S
C211 C216 1.342 . S
C212 C213 1.310 . S
C212 C215 1.461 . S
C212 H232 0.932 . S
C213 C211 1.408 . S
C213 C212 1.310 . S
C213 H233 0.930 1_554 S
C214 C215 1.474 . S
C214 C216 1.285 . S
C214 H234 0.929 . S
C215 C212 1.461 . S
C215 C214 1.474 . S
C216 C211 1.342 . S
C216 C214 1.285 . S
C216 H235 0.930 . S
C217 C220 1.424 . S
C217 C222 1.245 . S
C217 C223 1.428 . S
C218 C221 1.260 . S
C218 C222 1.477 . S
C218 H236 0.932 . S
C219 C220 1.384 . S
C219 C221 1.479 . S
C219 H237 0.929 . S
C220 C217 1.424 . S
C220 C219 1.384 . S
C220 H238 0.928 . S
C221 C218 1.260 . S
C221 C219 1.479 . S
C222 C217 1.245 . S
C222 C218 1.477 . S
C222 H239 0.932 . S
C223 U206 2.882 . S
C223 C217 1.428 . S
C223 O226 1.301 . S
C223 O227 1.282 . S
O224 U206 2.441 1_556 S
O224 C210 1.249 . S
O225 U206 2.420 1_556 S
O225 C210 1.202 . S
O226 U206 2.455 . S
O226 C223 1.301 . S
O227 U206 2.449 . S
O227 C223 1.282 . S
H228 C201 0.931 . S
H229 C203 0.929 . S
H230 C204 0.930 . S
H231 C205 0.931 . S
H232 C212 0.932 . S
H233 C213 0.930 1_556 S
H234 C214 0.929 . S
H235 C216 0.930 . S
H236 C218 0.932 . S
H237 C219 0.929 . S
H238 C220 0.928 . S
H239 C222 0.932 . S
C240 C241 1.264 . S
C240 C245 1.479 . S
C240 C250 1.465 . S
C241 C240 1.264 . S
C241 C243 1.339 . S
C241 H268 0.931 . S
C242 C243 1.395 . S
C242 C244 1.320 . S
C243 C241 1.339 . S
C243 C242 1.395 . S
C243 H269 0.929 . S
C244 C242 1.320 . S
C244 C245 1.405 . S
C244 H270 0.930 . S
C245 C240 1.479 . S
C245 C244 1.405 . S
C245 H271 0.931 . S
U246 O247 2.454 . S
U246 O248 2.458 1_556 S
U246 C249 2.984 1_556 S
U246 C250 2.847 . S
U246 C263 2.882 1_556 S
U246 O264 2.441 . S
U246 O265 2.420 . S
U246 O266 2.455 1_556 S
U246 O267 2.449 1_556 S
O247 U246 2.454 . S
O247 C249 1.353 1_556 S
O248 U246 2.458 1_554 S
O248 C249 1.286 . S
C249 U246 2.984 1_554 S
C249 O247 1.353 1_554 S
C249 O248 1.286 . S
C249 C251 1.363 . S
C250 C240 1.465 . S
C250 U246 2.847 . S
C250 O264 1.249 . S
C250 O265 1.202 . S
C251 C249 1.363 . S
C251 C253 1.408 1_554 S
C251 C256 1.342 . S
C252 C253 1.310 1_554 S
C252 C255 1.461 . S
C252 H272 0.932 1_554 S
C253 C251 1.408 1_556 S
C253 C252 1.310 1_556 S
C253 H273 0.930 . S
C254 C255 1.474 . S
C254 C256 1.285 . S
C254 H274 0.929 . S
C255 C252 1.461 . S
C255 C254 1.474 . S
C256 C251 1.342 . S
C256 C254 1.285 . S
C256 H275 0.930 . S
C257 C260 1.424 . S
C257 C262 1.245 . S
C257 C263 1.428 . S
C258 C261 1.260 . S
C258 C262 1.477 . S
C258 H276 0.932 . S
C259 C260 1.384 . S
C259 C261 1.479 . S
C259 H277 0.929 . S
C260 C257 1.424 . S
C260 C259 1.384 . S
C260 H278 0.928 . S
C261 C258 1.260 . S
C261 C259 1.479 . S
C262 C257 1.245 . S
C262 C258 1.477 . S
C262 H279 0.932 . S
C263 U246 2.882 1_554 S
C263 C257 1.428 . S
C263 O266 1.301 . S
C263 O267 1.282 . S
O264 U246 2.441 . S
O264 C250 1.249 . S
O265 U246 2.420 . S
O265 C250 1.202 . S
O266 U246 2.455 1_554 S
O266 C263 1.301 . S
O267 U246 2.449 1_554 S
O267 C263 1.282 . S
H268 C241 0.931 . S
H269 C243 0.929 . S
H270 C244 0.930 . S
H271 C245 0.931 . S
H272 C252 0.932 1_556 S
H273 C253 0.930 . S
H274 C254 0.929 . S
H275 C256 0.930 . S
H276 C258 0.932 . S
H277 C259 0.929 . S
H278 C260 0.928 . S
H279 C262 0.932 . S
C280 C281 1.264 . S
C280 C285 1.479 . S
C280 C290 1.465 . S
C281 C280 1.264 . S
C281 C283 1.339 . S
C281 H308 0.931 . S
C282 C283 1.395 . S
C282 C284 1.320 . S
C283 C281 1.339 . S
C283 C282 1.395 . S
C283 H309 0.929 . S
C284 C282 1.320 . S
C284 C285 1.405 . S
C284 H310 0.930 . S
C285 C280 1.479 . S
C285 C284 1.405 . S
C285 H311 0.931 . S
U286 O287 2.454 . S
U286 O288 2.458 . S
U286 C289 2.984 . S
U286 C290 2.847 1_554 S
U286 C303 2.882 . S
U286 O304 2.441 1_554 S
U286 O305 2.420 1_554 S
U286 O306 2.455 . S
U286 O307 2.449 . S
O287 U286 2.454 . S
O287 C289 1.353 . S
O288 U286 2.458 . S
O288 C289 1.286 . S
C289 U286 2.984 . S
C289 O287 1.353 . S
C289 O288 1.286 . S
C289 C291 1.363 . S
C290 C280 1.465 . S
C290 U286 2.847 1_556 S
C290 O304 1.249 . S
C290 O305 1.202 . S
C291 C289 1.363 . S
C291 C293 1.408 . S
C291 C296 1.342 . S
C292 C293 1.310 . S
C292 C295 1.461 . S
C292 H312 0.932 . S
C293 C291 1.408 . S
C293 C292 1.310 . S
C293 H313 0.930 . S
C294 C295 1.474 . S
C294 C296 1.285 . S
C294 H314 0.929 . S
C295 C292 1.461 . S
C295 C294 1.474 . S
C296 C291 1.342 . S
C296 C294 1.285 . S
C296 H315 0.930 . S
C297 C300 1.424 . S
C297 C302 1.245 . S
C297 C303 1.428 . S
C298 C301 1.260 . S
C298 C302 1.477 . S
C298 H316 0.932 . S
C299 C300 1.384 . S
C299 C301 1.479 . S
C299 H317 0.929 . S
C300 C297 1.424 . S
C300 C299 1.384 . S
C300 H318 0.928 . S
C301 C298 1.260 . S
C301 C299 1.479 . S
C302 C297 1.245 . S
C302 C298 1.477 . S
C302 H319 0.932 . S
C303 U286 2.882 . S
C303 C297 1.428 . S
C303 O306 1.301 . S
C303 O307 1.282 . S
O304 U286 2.441 1_556 S
O304 C290 1.249 . S
O305 U286 2.420 1_556 S
O305 C290 1.202 . S
O306 U286 2.455 . S
O306 C303 1.301 . S
O307 U286 2.449 . S
O307 C303 1.282 . S
H308 C281 0.931 . S
H309 C283 0.929 . S
H310 C284 0.930 . S
H311 C285 0.931 . S
H312 C292 0.932 . S
H313 C293 0.930 . S
H314 C294 0.929 . S
H315 C296 0.930 . S
H316 C298 0.932 . S
H317 C299 0.929 . S
H318 C300 0.928 . S
H319 C302 0.932 . S
Eu320 C329 2.828 . S
Eu320 O331 2.392 . S
Eu320 O333 2.418 1_545 S
Eu320 O338 2.373 1_655 S
Eu320 O341 2.488 . S
Eu320 O342 2.483 . S
Eu320 O343 2.349 1_655 S
Eu321 O330 2.373 1_455 S
Eu321 O334 2.488 . S
Eu321 O335 2.471 . S
Eu321 O336 2.349 . S
Eu321 O339 2.392 1_565 S
Eu321 O340 2.418 1_565 S
Eu321 C350 2.828 . S
C322 O340 1.244 . S
C322 O343 1.265 . S
C323 C324 1.379 1_655 S
C323 C327 1.373 . S
C323 C329 1.505 . S
C324 C323 1.379 1_455 S
C324 C326 1.369 . S
C324 H352 0.930 . S
C325 C327 1.383 . S
C325 C328 1.382 1_655 S
C325 H353 0.930 . S
C326 C324 1.369 . S
C326 C328 1.392 . S
C326 H354 0.930 . S
C327 C323 1.373 . S
C327 C325 1.383 . S
C327 H355 0.931 . S
C328 C325 1.382 1_455 S
C328 C326 1.392 . S
C329 Eu320 2.828 . S
C329 C323 1.505 . S
C329 O341 1.249 . S
C329 O342 1.254 . S
O330 Eu321 2.373 1_655 S
O330 C332 1.258 . S
O331 Eu320 2.392 . S
O331 C332 1.242 1_545 S
C332 O330 1.258 . S
C332 O331 1.242 1_565 S
O333 Eu320 2.418 1_565 S
O333 C337 1.244 . S
O334 Eu321 2.488 . S
O334 C350 1.249 . S
O335 Eu321 2.471 . S
O335 C350 1.244 . S
O336 Eu321 2.349 . S
O336 C337 1.265 1_455 S
C337 O333 1.244 . S
C337 O336 1.265 1_655 S
O338 Eu320 2.373 1_455 S
O338 C351 1.258 . S
O339 Eu321 2.392 1_545 S
O339 C351 1.242 . S
O340 Eu321 2.418 1_545 S
O340 C322 1.244 . S
O341 Eu320 2.488 . S
O341 C329 1.249 . S
O342 Eu320 2.483 . S
O342 C329 1.254 . S
O343 Eu320 2.349 1_455 S
O343 C322 1.265 . S
C344 C345 1.379 . S
C344 C348 1.373 . S
C344 C350 1.505 . S
C345 C344 1.379 . S
C345 C347 1.369 . S
C345 H356 0.919 1_455 S
C346 C348 1.383 . S
C346 C349 1.382 . S
C346 H357 0.930 . S
C347 C345 1.369 . S
C347 C349 1.392 . S
C347 H358 0.930 1_455 S
C348 C344 1.373 . S
C348 C346 1.383 . S
C348 H359 0.931 . S
C349 C346 1.382 . S
C349 C347 1.392 . S
C350 Eu321 2.828 . S
C350 O334 1.249 . S
C350 O335 1.244 . S
C350 C344 1.505 . S
C351 O338 1.258 . S
C351 O339 1.242 . S
H352 C324 0.930 . S
H353 C325 0.930 . S
H354 C326 0.930 . S
H355 C327 0.931 . S
H356 C345 0.919 1_655 S
H357 C346 0.930 . S
H358 C347 0.930 1_655 S
H359 C348 0.931 . S
Eu360 C369 2.828 . S
Eu360 O371 2.392 . S
Eu360 O373 2.418 . S
Eu360 O378 2.373 . S
Eu360 O381 2.488 . S
Eu360 O382 2.471 . S
Eu360 O383 2.349 1_545 S
Eu361 O370 2.373 1_565 S
Eu361 O374 2.488 . S
Eu361 O375 2.471 1_565 S
Eu361 O376 2.349 1_565 S
Eu361 O379 2.392 . S
Eu361 O380 2.418 . S
Eu361 C390 2.828 . S
C362 O380 1.244 . S
C362 O383 1.265 . S
C363 C364 1.379 1_545 S
C363 C367 1.373 . S
C363 C369 1.505 . S
C364 C363 1.379 1_565 S
C364 C366 1.369 . S
C364 H392 0.930 . S
C365 C367 1.383 . S
C365 C368 1.382 . S
C365 H393 0.930 . S
C366 C364 1.369 . S
C366 C368 1.392 1_565 S
C366 H394 0.930 . S
C367 C363 1.373 . S
C367 C365 1.383 . S
C367 H395 0.931 . S
C368 C365 1.382 . S
C368 C366 1.392 1_545 S
C369 Eu360 2.828 . S
C369 C363 1.505 . S
C369 O381 1.249 . S
C369 O382 1.244 . S
O370 Eu361 2.373 1_545 S
O370 C372 1.258 . S
O371 Eu360 2.392 . S
O371 C372 1.242 . S
C372 O370 1.258 . S
C372 O371 1.242 . S
O373 Eu360 2.418 . S
O373 C377 1.244 . S
O374 Eu361 2.488 . S
O374 C390 1.248 . S
O375 Eu361 2.471 1_545 S
O375 C390 1.246 1_545 S
O376 Eu361 2.349 1_545 S
O376 C377 1.265 . S
C377 O373 1.244 . S
C377 O376 1.265 . S
O378 Eu360 2.373 . S
O378 C391 1.258 1_545 S
O379 Eu361 2.392 . S
O379 C391 1.242 . S
O380 Eu361 2.418 . S
O380 C362 1.244 . S
O381 Eu360 2.488 . S
O381 C369 1.249 . S
O382 Eu360 2.471 . S
O382 C369 1.244 . S
O383 Eu360 2.349 1_565 S
O383 C362 1.265 . S
C384 C385 1.379 . S
C384 C388 1.373 1_545 S
C384 C390 1.505 1_545 S
C385 C384 1.379 . S
C385 C387 1.369 . S
C385 H396 0.930 . S
C386 C388 1.383 . S
C386 C389 1.382 1_565 S
C386 H397 0.930 . S
C387 C385 1.369 . S
C387 C389 1.392 . S
C387 H398 0.930 . S
C388 C384 1.373 1_565 S
C388 C386 1.383 . S
C388 H399 0.931 . S
C389 C386 1.382 1_545 S
C389 C387 1.392 . S
C390 Eu361 2.828 . S
C390 O374 1.248 . S
C390 O375 1.246 1_565 S
C390 C384 1.505 1_565 S
C391 O378 1.258 1_565 S
C391 O379 1.242 . S
H392 C364 0.930 . S
H393 C365 0.930 . S
H394 C366 0.930 . S
H395 C367 0.931 . S
H396 C385 0.930 . S
H397 C386 0.930 . S
H398 C387 0.930 . S
H399 C388 0.931 . S
Eu400 C409 2.828 . S
Eu400 O411 2.392 . S
Eu400 O413 2.418 . S
Eu400 O418 2.373 . S
Eu400 O421 2.488 . S
Eu400 O422 2.471 . S
Eu400 O423 2.349 . S
Eu401 O410 2.373 . S
Eu401 O414 2.488 . S
Eu401 O415 2.471 . S
Eu401 O416 2.349 . S
Eu401 O419 2.392 . S
Eu401 O420 2.418 . S
Eu401 C430 2.828 . S
C402 O420 1.244 . S
C402 O423 1.265 . S
C403 C404 1.379 . S
C403 C407 1.373 . S
C403 C409 1.505 . S
C404 C403 1.379 . S
C404 C406 1.369 . S
C404 H432 0.930 . S
C405 C407 1.383 . S
C405 C408 1.382 . S
C405 H433 0.930 . S
C406 C404 1.369 . S
C406 C408 1.392 . S
C406 H434 0.930 . S
C407 C403 1.373 . S
C407 C405 1.383 . S
C407 H435 0.931 . S
C408 C405 1.382 . S
C408 C406 1.392 . S
C409 Eu400 2.828 . S
C409 C403 1.505 . S
C409 O421 1.249 . S
C409 O422 1.244 . S
O410 Eu401 2.373 . S
O410 C412 1.258 . S
O411 Eu400 2.392 . S
O411 C412 1.242 . S
C412 O410 1.258 . S
C412 O411 1.242 . S
O413 Eu400 2.418 . S
O413 C417 1.244 . S
O414 Eu401 2.488 . S
O414 C430 1.249 . S
O415 Eu401 2.471 . S
O415 C430 1.244 . S
O416 Eu401 2.349 . S
O416 C417 1.265 . S
C417 O413 1.244 . S
C417 O416 1.265 . S
O418 Eu400 2.373 . S
O418 C431 1.258 . S
O419 Eu401 2.392 . S
O419 C431 1.242 . S
O420 Eu401 2.418 . S
O420 C402 1.244 . S
O421 Eu400 2.488 . S
O421 C409 1.249 . S
O422 Eu400 2.471 . S
O422 C409 1.244 . S
O423 Eu400 2.349 . S
O423 C402 1.265 . S
C424 C425 1.379 . S
C424 C428 1.373 . S
C424 C430 1.505 . S
C425 C424 1.379 . S
C425 C427 1.369 . S
C425 H436 0.930 . S
C426 C428 1.383 . S
C426 C429 1.382 . S
C426 H437 0.930 . S
C427 C425 1.369 . S
C427 C429 1.392 . S
C427 H438 0.930 . S
C428 C424 1.373 . S
C428 C426 1.383 . S
C428 H439 0.931 . S
C429 C426 1.382 . S
C429 C427 1.392 . S
C430 Eu401 2.828 . S
C430 O414 1.249 . S
C430 O415 1.244 . S
C430 C424 1.505 . S
C431 O418 1.258 . S
C431 O419 1.242 . S
H432 C404 0.930 . S
H433 C405 0.930 . S
H434 C406 0.930 . S
H435 C407 0.931 . S
H436 C425 0.930 . S
H437 C426 0.930 . S
H438 C427 0.930 . S
H439 C428 0.931 . S
Eu440 C449 2.828 . S
Eu440 O451 2.392 . S
Eu440 O453 2.418 1_455 S
Eu440 O458 2.373 . S
Eu440 O461 2.488 . S
Eu440 O462 2.471 . S
Eu440 O463 2.349 . S
Eu441 O450 2.373 . S
Eu441 O454 2.488 . S
Eu441 O455 2.471 . S
Eu441 O456 2.349 . S
Eu441 O459 2.392 1_655 S
Eu441 O460 2.418 1_655 S
Eu441 C470 2.828 . S
C442 O460 1.244 . S
C442 O463 1.265 . S
C443 C444 1.379 . S
C443 C447 1.373 . S
C443 C449 1.505 . S
C444 C443 1.379 . S
C444 C446 1.369 . S
C444 H472 0.930 . S
C445 C447 1.383 . S
C445 C448 1.382 . S
C445 H473 0.930 . S
C446 C444 1.369 . S
C446 C448 1.392 . S
C446 H474 0.930 . S
C447 C443 1.373 . S
C447 C445 1.383 . S
C447 H475 0.931 . S
C448 C445 1.382 . S
C448 C446 1.392 . S
C449 Eu440 2.828 . S
C449 C443 1.505 . S
C449 O461 1.249 . S
C449 O462 1.244 . S
O450 Eu441 2.373 . S
O450 C452 1.258 1_655 S
O451 Eu440 2.392 . S
O451 C452 1.242 . S
C452 O450 1.258 1_455 S
C452 O451 1.242 . S
O453 Eu440 2.418 1_655 S
O453 C457 1.244 . S
O454 Eu441 2.488 . S
O454 C470 1.249 . S
O455 Eu441 2.471 . S
O455 C470 1.244 . S
O456 Eu441 2.349 . S
O456 C457 1.265 . S
C457 O453 1.244 . S
C457 O456 1.265 . S
O458 Eu440 2.373 . S
O458 C471 1.258 . S
O459 Eu441 2.392 1_455 S
O459 C471 1.242 . S
O460 Eu441 2.418 1_455 S
O460 C442 1.244 . S
O461 Eu440 2.488 . S
O461 C449 1.249 . S
O462 Eu440 2.471 . S
O462 C449 1.244 . S
O463 Eu440 2.349 . S
O463 C442 1.265 . S
C464 C465 1.379 . S
C464 C468 1.373 . S
C464 C470 1.505 . S
C465 C464 1.379 . S
C465 C467 1.369 . S
C465 H476 0.930 . S
C466 C468 1.383 . S
C466 C469 1.382 . S
C466 H477 0.930 . S
C467 C465 1.369 . S
C467 C469 1.392 . S
C467 H478 0.930 . S
C468 C464 1.373 . S
C468 C466 1.383 . S
C468 H479 0.931 . S
C469 C466 1.382 . S
C469 C467 1.392 . S
C470 Eu441 2.828 . S
C470 O454 1.249 . S
C470 O455 1.244 . S
C470 C464 1.505 . S
C471 O458 1.258 . S
C471 O459 1.242 . S
H472 C444 0.930 . S
H473 C445 0.930 . S
H474 C446 0.930 . S
H475 C447 0.931 . S
H476 C465 0.930 . S
H477 C466 0.930 . S
H478 C467 0.930 . S
H479 C468 0.931 . S
C480 C481 1.349 . S
C480 C482 1.327 . S
C480 H505 0.950 . S
C481 C480 1.349 . S
C481 C497 1.349 . S
C482 C480 1.327 . S
C482 C501 1.429 . S
C482 H506 0.950 . S
C483 C500 1.574 . S
C483 C502 1.368 . S
C483 H507 0.949 . S
H484 C488 0.949 . S
C485 C486 1.349 . S
C485 C487 1.327 . S
C485 H508 0.945 . S
C486 C485 1.349 . S
C486 C498 1.349 . S
C487 C485 1.327 . S
C487 C503 1.429 . S
C487 H509 0.950 . S
C488 H484 0.949 . S
C488 C496 1.574 . S
C488 C504 1.368 . S
H489 C497 0.950 . S
H490 C495 0.950 . S
H491 C496 0.949 . S
H492 C498 0.950 . S
H493 C499 0.950 . S
H494 C500 0.949 . S
C495 H490 0.950 . S
C495 C497 1.327 . S
C495 C501 1.429 . S
C496 C488 1.574 . S
C496 H491 0.949 . S
C496 C502 1.368 . S
C497 C481 1.349 . S
C497 H489 0.950 . S
C497 C495 1.327 . S
C498 C486 1.349 . S
C498 H492 0.950 . S
C498 C499 1.327 . S
C499 H493 0.950 . S
C499 C498 1.327 . S
C499 C503 1.429 . S
C500 C483 1.574 . S
C500 H494 0.949 . S
C500 C504 1.368 . S
C501 C482 1.429 . S
C501 C495 1.429 . S
C501 C502 1.523 . S
C502 C483 1.368 . S
C502 C496 1.368 . S
C502 C501 1.523 . S
C503 C487 1.429 . S
C503 C499 1.429 . S
C503 C504 1.523 . S
C504 C488 1.368 . S
C504 C500 1.368 . S
C504 C503 1.523 . S
H505 C480 0.950 . S
H506 C482 0.950 . S
H507 C483 0.949 . S
H508 C485 0.945 . S
H509 C487 0.950 . S
C510 C511 1.349 . S
C510 C512 1.327 . S
C510 H535 0.950 . S
C511 C510 1.349 . S
C511 C527 1.349 . S
C512 C510 1.327 . S
C512 C531 1.429 . S
C512 H536 0.950 . S
C513 C530 1.574 . S
C513 C532 1.368 . S
C513 H537 0.949 . S
H514 C518 0.949 . S
C515 C516 1.349 . S
C515 C517 1.327 . S
C515 H538 0.950 . S
C516 C515 1.349 . S
C516 C528 1.349 . S
C517 C515 1.327 . S
C517 C533 1.429 . S
C517 H539 0.950 . S
C518 H514 0.949 . S
C518 C526 1.574 . S
C518 C534 1.368 . S
H519 C527 0.950 . S
H520 C525 0.950 . S
H521 C526 0.949 . S
H522 C528 0.950 . S
H523 C529 0.950 . S
H524 C530 0.949 . S
C525 H520 0.950 . S
C525 C527 1.327 . S
C525 C531 1.429 . S
C526 C518 1.574 . S
C526 H521 0.949 . S
C526 C532 1.368 . S
C527 C511 1.349 . S
C527 H519 0.950 . S
C527 C525 1.327 . S
C528 C516 1.349 . S
C528 H522 0.950 . S
C528 C529 1.327 . S
C529 H523 0.950 . S
C529 C528 1.327 . S
C529 C533 1.429 . S
C530 C513 1.574 . S
C530 H524 0.949 . S
C530 C534 1.368 . S
C531 C512 1.429 . S
C531 C525 1.429 . S
C531 C532 1.523 . S
C532 C513 1.368 . S
C532 C526 1.368 . S
C532 C531 1.523 . S
C533 C517 1.429 . S
C533 C529 1.429 . S
C533 C534 1.523 . S
C534 C518 1.368 . S
C534 C530 1.368 . S
C534 C533 1.523 . S
H535 C510 0.950 . S
H536 C512 0.950 . S
H537 C513 0.949 . S
H538 C515 0.950 . S
H539 C517 0.950 . S
C540 C541 1.349 . S
C540 C542 1.327 . S
C540 H565 0.950 . S
C541 C540 1.349 . S
C541 C557 1.349 . S
C542 C540 1.327 . S
C542 C561 1.429 . S
C542 H566 0.950 . S
C543 C560 1.574 . S
C543 C562 1.368 . S
C543 H567 0.949 . S
H544 C548 0.949 . S
C545 C546 1.349 . S
C545 C547 1.327 . S
C545 H568 0.950 . S
C546 C545 1.349 . S
C546 C558 1.349 . S
C547 C545 1.327 . S
C547 C563 1.429 . S
C547 H569 0.950 . S
C548 H544 0.949 . S
C548 C556 1.574 . S
C548 C564 1.368 . S
H549 C557 0.950 . S
H550 C555 0.950 . S
H551 C556 0.949 . S
H552 C558 0.950 . S
H553 C559 0.950 . S
H554 C560 0.949 . S
C555 H550 0.950 . S
C555 C557 1.327 . S
C555 C561 1.429 . S
C556 C548 1.574 . S
C556 H551 0.949 . S
C556 C562 1.368 . S
C557 C541 1.349 . S
C557 H549 0.950 . S
C557 C555 1.327 . S
C558 C546 1.349 . S
C558 H552 0.950 . S
C558 C559 1.327 . S
C559 H553 0.950 . S
C559 C558 1.327 . S
C559 C563 1.429 . S
C560 C543 1.574 . S
C560 H554 0.949 . S
C560 C564 1.368 . S
C561 C542 1.429 . S
C561 C555 1.429 . S
C561 C562 1.523 . S
C562 C543 1.368 . S
C562 C556 1.368 . S
C562 C561 1.523 . S
C563 C547 1.429 . S
C563 C559 1.429 . S
C563 C564 1.523 . S
C564 C548 1.368 . S
C564 C560 1.368 . S
C564 C563 1.523 . S
H565 C540 0.950 . S
H566 C542 0.950 . S
H567 C543 0.949 . S
H568 C545 0.950 . S
H569 C547 0.950 . S
C570 C571 1.349 . S
C570 C572 1.327 . S
C570 H595 0.950 . S
C571 C570 1.349 . S
C571 C587 1.349 . S
C572 C570 1.327 . S
C572 C591 1.429 . S
C572 H596 0.950 . S
C573 C590 1.574 . S
C573 C592 1.368 . S
C573 H597 0.949 . S
H574 C578 0.949 . S
C575 C576 1.349 . S
C575 C577 1.327 . S
C575 H598 0.950 . S
C576 C575 1.349 . S
C576 C588 1.349 . S
C577 C575 1.327 . S
C577 C593 1.429 . S
C577 H599 0.950 . S
C578 H574 0.949 . S
C578 C586 1.574 . S
C578 C594 1.368 . S
H579 C587 0.950 . S
H580 C585 0.950 . S
H581 C586 0.949 . S
H582 C588 0.950 . S
H583 C589 0.950 . S
H584 C590 0.949 . S
C585 H580 0.950 . S
C585 C587 1.327 . S
C585 C591 1.429 . S
C586 C578 1.574 . S
C586 H581 0.949 . S
C586 C592 1.368 . S
C587 C571 1.349 . S
C587 H579 0.950 . S
C587 C585 1.327 . S
C588 C576 1.349 . S
C588 H582 0.950 . S
C588 C589 1.327 . S
C589 H583 0.950 . S
C589 C588 1.327 . S
C589 C593 1.429 . S
C590 C573 1.574 . S
C590 H584 0.949 . S
C590 C594 1.368 . S
C591 C572 1.429 . S
C591 C585 1.429 . S
C591 C592 1.523 . S
C592 C573 1.368 . S
C592 C586 1.368 . S
C592 C591 1.523 . S
C593 C577 1.429 . S
C593 C589 1.429 . S
C593 C594 1.523 . S
C594 C578 1.368 . S
C594 C590 1.368 . S
C594 C593 1.523 . S
H595 C570 0.950 . S
H596 C572 0.950 . S
H597 C573 0.949 . S
H598 C575 0.950 . S
H599 C577 0.950 . S
C600 C601 1.349 . S
C600 C602 1.327 1_554 S
C600 H625 0.950 . S
C601 C600 1.349 . S
C601 C617 1.349 . S
C602 C600 1.327 1_556 S
C602 C621 1.429 . S
C602 H626 0.950 . S
C603 C620 1.574 . S
C603 C622 1.368 . S
C603 H627 0.949 . S
H604 C608 0.949 . S
C605 C606 1.349 . S
C605 C607 1.327 . S
C605 H628 0.950 1_565 S
C606 C605 1.349 . S
C606 C618 1.349 . S
C607 C605 1.327 . S
C607 C623 1.429 . S
C607 H629 0.950 . S
C608 H604 0.949 . S
C608 C616 1.574 . S
C608 C624 1.368 . S
H609 C617 0.950 . S
H610 C615 0.950 . S
H611 C616 0.949 . S
H612 C618 0.950 . S
H613 C619 0.950 . S
H614 C620 0.949 . S
C615 H610 0.950 . S
C615 C617 1.327 . S
C615 C621 1.429 1_554 S
C616 C608 1.574 . S
C616 H611 0.949 . S
C616 C622 1.368 . S
C617 C601 1.349 . S
C617 H609 0.950 . S
C617 C615 1.327 . S
C618 C606 1.349 . S
C618 H612 0.950 . S
C618 C619 1.327 . S
C619 H613 0.950 . S
C619 C618 1.327 . S
C619 C623 1.429 . S
C620 C603 1.574 . S
C620 H614 0.949 . S
C620 C624 1.368 . S
C621 C602 1.429 . S
C621 C615 1.429 1_556 S
C621 C622 1.523 . S
C622 C603 1.368 . S
C622 C616 1.368 . S
C622 C621 1.523 . S
C623 C607 1.429 . S
C623 C619 1.429 . S
C623 C624 1.523 . S
C624 C608 1.368 . S
C624 C620 1.368 . S
C624 C623 1.523 . S
H625 C600 0.950 . S
H626 C602 0.950 . S
H627 C603 0.949 . S
H628 C605 0.950 1_545 S
H629 C607 0.950 . S
C630 C631 1.349 . S
C630 C632 1.327 1_554 S
C630 H655 0.950 . S
C631 C630 1.349 . S
C631 C647 1.349 1_554 S
C632 C630 1.327 1_556 S
C632 C651 1.429 . S
C632 H656 0.950 . S
C633 C650 1.574 . S
C633 C652 1.368 . S
C633 H657 0.949 . S
H634 C638 0.949 . S
C635 C636 1.349 . S
C635 C637 1.327 . S
C635 H658 0.950 . S
C636 C635 1.349 . S
C636 C648 1.349 . S
C637 C635 1.327 . S
C637 C653 1.429 . S
C637 H659 0.950 . S
C638 H634 0.949 . S
C638 C646 1.574 . S
C638 C654 1.368 . S
H639 C647 0.950 . S
H640 C645 0.950 . S
H641 C646 0.949 . S
H642 C648 0.950 . S
H643 C649 0.950 . S
H644 C650 0.949 . S
C645 H640 0.950 . S
C645 C647 1.327 . S
C645 C651 1.429 . S
C646 C638 1.574 . S
C646 H641 0.949 . S
C646 C652 1.368 . S
C647 C631 1.349 1_556 S
C647 H639 0.950 . S
C647 C645 1.327 . S
C648 C636 1.349 . S
C648 H642 0.950 . S
C648 C649 1.327 . S
C649 H643 0.950 . S
C649 C648 1.327 . S
C649 C653 1.429 . S
C650 C633 1.574 . S
C650 H644 0.949 . S
C650 C654 1.368 . S
C651 C632 1.429 . S
C651 C645 1.429 . S
C651 C652 1.523 . S
C652 C633 1.368 . S
C652 C646 1.368 . S
C652 C651 1.523 . S
C653 C637 1.429 . S
C653 C649 1.429 . S
C653 C654 1.523 . S
C654 C638 1.368 . S
C654 C650 1.368 . S
C654 C653 1.523 . S
H655 C630 0.950 . S
H656 C632 0.950 . S
H657 C633 0.949 . S
H658 C635 0.950 . S
H659 C637 0.950 . S
C660 C661 1.349 . S
C660 C662 1.327 1_554 S
C660 H685 0.950 . S
C661 C660 1.349 . S
C661 C677 1.349 1_554 S
C662 C660 1.327 1_556 S
C662 C681 1.429 . S
C662 H686 0.950 . S
C663 C680 1.574 . S
C663 C682 1.368 . S
C663 H687 0.949 . S
H664 C668 0.949 . S
C665 C666 1.349 . S
C665 C667 1.327 . S
C665 H688 0.950 . S
C666 C665 1.349 . S
C666 C678 1.349 . S
C667 C665 1.327 . S
C667 C683 1.429 . S
C667 H689 0.950 . S
C668 H664 0.949 . S
C668 C676 1.574 . S
C668 C684 1.368 . S
H669 C677 0.950 . S
H670 C675 0.950 . S
H671 C676 0.949 . S
H672 C678 0.950 . S
H673 C679 0.950 . S
H674 C680 0.949 . S
C675 H670 0.950 . S
C675 C677 1.327 . S
C675 C681 1.429 . S
C676 C668 1.574 . S
C676 H671 0.949 . S
C676 C682 1.368 . S
C677 C661 1.349 1_556 S
C677 H669 0.950 . S
C677 C675 1.327 . S
C678 C666 1.349 . S
C678 H672 0.950 . S
C678 C679 1.327 . S
C679 H673 0.950 . S
C679 C678 1.327 . S
C679 C683 1.429 . S
C680 C663 1.574 . S
C680 H674 0.949 . S
C680 C684 1.368 . S
C681 C662 1.429 . S
C681 C675 1.429 . S
C681 C682 1.523 . S
C682 C663 1.368 . S
C682 C676 1.368 . S
C682 C681 1.523 . S
C683 C667 1.429 . S
C683 C679 1.429 . S
C683 C684 1.523 . S
C684 C668 1.368 . S
C684 C680 1.368 . S
C684 C683 1.523 . S
H685 C660 0.950 . S
H686 C662 0.950 . S
H687 C663 0.949 . S
H688 C665 0.950 . S
H689 C667 0.950 . S
C690 C691 1.349 . S
C690 C692 1.327 1_554 S
C690 H715 0.950 . S
C691 C690 1.349 . S
C691 C707 1.349 . S
C692 C690 1.327 1_556 S
C692 C711 1.429 . S
C692 H716 0.950 . S
C693 C710 1.574 . S
C693 C712 1.368 . S
C693 H717 0.949 . S
H694 C698 0.949 1_455 S
C695 C696 1.349 . S
C695 C697 1.327 . S
C695 H718 0.950 . S
C696 C695 1.349 . S
C696 C708 1.349 1_655 S
C697 C695 1.327 . S
C697 C713 1.429 . S
C697 H719 0.950 . S
C698 H694 0.949 1_655 S
C698 C706 1.574 . S
C698 C714 1.368 . S
H699 C707 0.950 . S
H700 C705 0.950 1_556 S
H701 C706 0.944 1_455 S
H702 C708 0.950 . S
H703 C709 0.950 . S
H704 C710 0.949 . S
C705 H700 0.950 1_554 S
C705 C707 1.327 . S
C705 C711 1.429 1_554 S
C706 C698 1.574 . S
C706 H701 0.944 1_655 S
C706 C712 1.368 . S
C707 C691 1.349 . S
C707 H699 0.950 . S
C707 C705 1.327 . S
C708 C696 1.349 1_455 S
C708 H702 0.950 . S
C708 C709 1.327 . S
C709 H703 0.950 . S
C709 C708 1.327 . S
C709 C713 1.429 1_455 S
C710 C693 1.574 . S
C710 H704 0.949 . S
C710 C714 1.368 . S
C711 C692 1.429 . S
C711 C705 1.429 1_556 S
C711 C712 1.523 . S
C712 C693 1.368 . S
C712 C706 1.368 . S
C712 C711 1.523 . S
C713 C697 1.429 . S
C713 C709 1.429 1_655 S
C713 C714 1.523 . S
C714 C698 1.368 . S
C714 C710 1.368 . S
C714 C713 1.523 . S
H715 C690 0.950 . S
H716 C692 0.950 . S
H717 C693 0.949 . S
H718 C695 0.950 . S
H719 C697 0.950 . S
C720 C721 1.349 . S
C720 C722 1.327 . S
C720 H745 0.950 . S
C721 C720 1.349 . S
C721 C737 1.349 . S
C722 C720 1.327 . S
C722 C741 1.429 . S
C722 H746 0.950 . S
C723 C740 1.574 . S
C723 C742 1.368 . S
C723 H747 0.949 . S
H724 C728 0.949 . S
C725 C726 1.349 . S
C725 C727 1.327 . S
C725 H748 0.950 . S
C726 C725 1.349 . S
C726 C738 1.349 1_455 S
C727 C725 1.327 . S
C727 C743 1.429 . S
C727 H749 0.950 . S
C728 H724 0.949 . S
C728 C736 1.574 . S
C728 C744 1.368 . S
H729 C737 0.950 . S
H730 C735 0.950 . S
H731 C736 0.949 . S
H732 C738 0.950 . S
H733 C739 0.951 1_655 S
H734 C740 0.949 . S
C735 H730 0.950 . S
C735 C737 1.327 . S
C735 C741 1.429 . S
C736 C728 1.574 . S
C736 H731 0.949 . S
C736 C742 1.368 . S
C737 C721 1.349 . S
C737 H729 0.950 . S
C737 C735 1.327 . S
C738 C726 1.349 1_655 S
C738 H732 0.950 . S
C738 C739 1.327 1_655 S
C739 H733 0.951 1_455 S
C739 C738 1.327 1_455 S
C739 C743 1.429 . S
C740 C723 1.574 . S
C740 H734 0.949 . S
C740 C744 1.368 . S
C741 C722 1.429 . S
C741 C735 1.429 . S
C741 C742 1.523 . S
C742 C723 1.368 . S
C742 C736 1.368 . S
C742 C741 1.523 . S
C743 C727 1.429 . S
C743 C739 1.429 . S
C743 C744 1.523 . S
C744 C728 1.368 . S
C744 C740 1.368 . S
C744 C743 1.523 . S
H745 C720 0.950 . S
H746 C722 0.950 . S
H747 C723 0.949 . S
H748 C725 0.950 . S
H749 C727 0.950 . S
C750 C751 1.349 . S
C750 C752 1.327 . S
C750 H775 0.950 . S
C751 C750 1.349 . S
C751 C767 1.349 . S
C752 C750 1.327 . S
C752 C771 1.429 . S
C752 H776 0.950 . S
C753 C770 1.574 . S
C753 C772 1.368 . S
C753 H777 0.949 . S
H754 C758 0.949 . S
C755 C756 1.349 . S
C755 C757 1.327 . S
C755 H778 0.950 . S
C756 C755 1.349 . S
C756 C768 1.343 1_545 S
C757 C755 1.327 . S
C757 C773 1.429 . S
C757 H779 0.950 . S
C758 H754 0.949 . S
C758 C766 1.574 . S
C758 C774 1.368 . S
H759 C767 0.950 . S
H760 C765 0.950 . S
H761 C766 0.949 . S
H762 C768 0.961 . S
H763 C769 0.948 1_565 S
H764 C770 0.949 . S
C765 H760 0.950 . S
C765 C767 1.327 . S
C765 C771 1.429 . S
C766 C758 1.574 . S
C766 H761 0.949 . S
C766 C772 1.368 . S
C767 C751 1.349 . S
C767 H759 0.950 . S
C767 C765 1.327 . S
C768 C756 1.343 1_565 S
C768 H762 0.961 . S
C768 C769 1.322 1_565 S
C769 H763 0.948 1_545 S
C769 C768 1.322 1_545 S
C769 C773 1.429 . S
C770 C753 1.574 . S
C770 H764 0.949 . S
C770 C774 1.368 . S
C771 C752 1.429 . S
C771 C765 1.429 . S
C771 C772 1.523 . S
C772 C753 1.368 . S
C772 C766 1.368 . S
C772 C771 1.523 . S
C773 C757 1.429 . S
C773 C769 1.429 . S
C773 C774 1.523 . S
C774 C758 1.368 . S
C774 C770 1.368 . S
C774 C773 1.523 . S
H775 C750 0.950 . S
H776 C752 0.950 . S
H777 C753 0.949 . S
H778 C755 0.950 . S
H779 C757 0.950 . S
C780 C781 1.349 . S
C780 C782 1.327 . S
C780 H805 0.950 . S
C781 C780 1.349 . S
C781 C797 1.349 . S
C782 C780 1.327 . S
C782 C801 1.429 . S
C782 H806 0.950 . S
C783 C800 1.574 . S
C783 C802 1.368 . S
C783 H807 0.949 . S
H784 C788 0.949 . S
C785 C786 1.349 . S
C785 C787 1.327 . S
C785 H808 0.950 . S
C786 C785 1.349 . S
C786 C798 1.349 . S
C787 C785 1.327 . S
C787 C803 1.429 . S
C787 H809 0.950 . S
C788 H784 0.949 . S
C788 C796 1.574 . S
C788 C804 1.368 . S
H789 C797 0.950 . S
H790 C795 0.950 . S
H791 C796 0.949 . S
H792 C798 0.950 . S
H793 C799 0.950 . S
H794 C800 0.949 . S
C795 H790 0.950 . S
C795 C797 1.327 . S
C795 C801 1.429 . S
C796 C788 1.574 . S
C796 H791 0.949 . S
C796 C802 1.368 . S
C797 C781 1.349 . S
C797 H789 0.950 . S
C797 C795 1.327 . S
C798 C786 1.349 . S
C798 H792 0.950 . S
C798 C799 1.327 . S
C799 H793 0.950 . S
C799 C798 1.327 . S
C799 C803 1.429 . S
C800 C783 1.574 . S
C800 H794 0.949 . S
C800 C804 1.368 . S
C801 C782 1.429 . S
C801 C795 1.429 . S
C801 C802 1.523 . S
C802 C783 1.368 . S
C802 C796 1.368 . S
C802 C801 1.523 . S
C803 C787 1.429 . S
C803 C799 1.429 . S
C803 C804 1.523 . S
C804 C788 1.368 . S
C804 C800 1.368 . S
C804 C803 1.523 . S
H805 C780 0.950 . S
H806 C782 0.950 . S
H807 C783 0.949 . S
H808 C785 0.950 . S
H809 C787 0.950 . S
C810 C811 1.349 . S
C810 C812 1.327 . S
C810 H835 0.950 . S
C811 C810 1.349 . S
C811 C827 1.349 . S
C812 C810 1.327 . S
C812 C831 1.429 . S
C812 H836 0.950 . S
C813 C830 1.574 . S
C813 C832 1.368 . S
C813 H837 0.949 . S
H814 C818 0.949 . S
C815 C816 1.349 . S
C815 C817 1.327 . S
C815 H838 0.950 . S
C816 C815 1.349 . S
C816 C828 1.349 . S
C817 C815 1.327 . S
C817 C833 1.429 . S
C817 H839 0.950 . S
C818 H814 0.949 . S
C818 C826 1.574 . S
C818 C834 1.368 . S
H819 C827 0.950 . S
H820 C825 0.950 . S
H821 C826 0.949 . S
H822 C828 0.950 . S
H823 C829 0.950 . S
H824 C830 0.949 . S
C825 H820 0.950 . S
C825 C827 1.327 . S
C825 C831 1.429 . S
C826 C818 1.574 . S
C826 H821 0.949 . S
C826 C832 1.368 . S
C827 C811 1.349 . S
C827 H819 0.950 . S
C827 C825 1.327 . S
C828 C816 1.349 . S
C828 H822 0.950 . S
C828 C829 1.327 . S
C829 H823 0.950 . S
C829 C828 1.327 . S
C829 C833 1.429 . S
C830 C813 1.574 . S
C830 H824 0.949 . S
C830 C834 1.368 . S
C831 C812 1.429 . S
C831 C825 1.429 . S
C831 C832 1.523 . S
C832 C813 1.368 . S
C832 C826 1.368 . S
C832 C831 1.523 . S
C833 C817 1.429 . S
C833 C829 1.429 . S
C833 C834 1.523 . S
C834 C818 1.368 . S
C834 C830 1.368 . S
C834 C833 1.523 . S
H835 C810 0.950 . S
H836 C812 0.950 . S
H837 C813 0.949 . S
H838 C815 0.950 . S
H839 C817 0.950 . S
C840 C841 1.349 1_556 S
C840 C842 1.327 . S
C840 H865 0.950 . S
C841 C840 1.349 1_554 S
C841 C857 1.349 . S
C842 C840 1.327 . S
C842 C861 1.429 . S
C842 H866 0.950 . S
C843 C860 1.574 . S
C843 C862 1.368 . S
C843 H867 0.949 . S
H844 C848 0.949 . S
C845 C846 1.349 . S
C845 C847 1.327 . S
C845 H868 0.950 . S
C846 C845 1.349 . S
C846 C858 1.349 . S
C847 C845 1.327 . S
C847 C863 1.431 . S
C847 H869 0.950 . S
C848 H844 0.949 . S
C848 C856 1.574 . S
C848 C864 1.368 . S
H849 C857 0.950 . S
H850 C855 0.950 . S
H851 C856 0.949 . S
H852 C858 0.950 . S
H853 C859 0.950 1_655 S
H854 C860 0.949 . S
C855 H850 0.950 . S
C855 C857 1.327 . S
C855 C861 1.429 1_554 S
C856 C848 1.574 . S
C856 H851 0.949 . S
C856 C862 1.368 . S
C857 C841 1.349 . S
C857 H849 0.950 . S
C857 C855 1.327 . S
C858 C846 1.349 . S
C858 H852 0.950 . S
C858 C859 1.327 . S
C859 H853 0.950 1_455 S
C859 C858 1.327 . S
C859 C863 1.431 . S
C860 C843 1.574 . S
C860 H854 0.949 . S
C860 C864 1.368 . S
C861 C842 1.429 . S
C861 C855 1.429 1_556 S
C861 C862 1.523 . S
C862 C843 1.368 . S
C862 C856 1.368 . S
C862 C861 1.523 . S
C863 C847 1.431 . S
C863 C859 1.431 . S
C863 C864 1.518 1_455 S
C864 C848 1.368 . S
C864 C860 1.368 . S
C864 C863 1.518 1_655 S
H865 C840 0.950 . S
H866 C842 0.950 . S
H867 C843 0.949 . S
H868 C845 0.950 . S
H869 C847 0.950 . S
C870 C871 1.349 . S
C870 C872 1.327 1_554 S
C870 H895 0.950 . S
C871 C870 1.349 . S
C871 C887 1.349 1_554 S
C872 C870 1.327 1_556 S
C872 C891 1.429 . S
C872 H896 0.950 . S
C873 C890 1.574 . S
C873 C892 1.368 . S
C873 H897 0.949 . S
H874 C878 0.949 . S
C875 C876 1.349 . S
C875 C877 1.327 . S
C875 H898 0.950 . S
C876 C875 1.349 . S
C876 C888 1.349 1_545 S
C877 C875 1.327 . S
C877 C893 1.429 1_545 S
C877 H899 0.950 . S
C878 H874 0.949 . S
C878 C886 1.574 . S
C878 C894 1.368 . S
H879 C887 0.950 . S
H880 C885 0.950 . S
H881 C886 0.949 . S
H882 C888 0.950 . S
H883 C889 0.950 . S
H884 C890 0.949 . S
C885 H880 0.950 . S
C885 C887 1.327 . S
C885 C891 1.429 . S
C886 C878 1.574 . S
C886 H881 0.949 . S
C886 C892 1.368 . S
C887 C871 1.349 1_556 S
C887 H879 0.950 . S
C887 C885 1.327 . S
C888 C876 1.349 1_565 S
C888 H882 0.950 . S
C888 C889 1.327 . S
C889 H883 0.950 . S
C889 C888 1.327 . S
C889 C893 1.429 . S
C890 C873 1.574 . S
C890 H884 0.949 . S
C890 C894 1.368 . S
C891 C872 1.429 . S
C891 C885 1.429 . S
C891 C892 1.523 . S
C892 C873 1.368 . S
C892 C886 1.368 . S
C892 C891 1.523 . S
C893 C877 1.429 1_565 S
C893 C889 1.429 . S
C893 C894 1.523 . S
C894 C878 1.368 . S
C894 C890 1.368 . S
C894 C893 1.523 . S
H895 C870 0.950 . S
H896 C872 0.950 . S
H897 C873 0.949 . S
H898 C875 0.950 . S
H899 C877 0.950 . S
C900 C901 1.349 . S
C900 C902 1.327 . S
C900 H925 0.950 1_556 S
C901 C900 1.349 . S
C901 C917 1.349 . S
C902 C900 1.327 . S
C902 C921 1.429 . S
C902 H926 0.950 . S
C903 C920 1.574 . S
C903 C922 1.368 . S
C903 H927 0.949 . S
H904 C908 0.949 . S
C905 C906 1.349 . S
C905 C907 1.327 . S
C905 H928 0.950 . S
C906 C905 1.349 . S
C906 C918 1.349 . S
C907 C905 1.327 . S
C907 C923 1.429 . S
C907 H929 0.950 . S
C908 H904 0.949 . S
C908 C916 1.574 . S
C908 C924 1.368 . S
H909 C917 0.950 . S
H910 C915 0.950 . S
H911 C916 0.949 . S
H912 C918 0.950 . S
H913 C919 0.950 . S
H914 C920 0.949 . S
C915 H910 0.950 . S
C915 C917 1.327 . S
C915 C921 1.429 . S
C916 C908 1.574 . S
C916 H911 0.949 . S
C916 C922 1.368 . S
C917 C901 1.349 . S
C917 H909 0.950 . S
C917 C915 1.327 . S
C918 C906 1.349 . S
C918 H912 0.950 . S
C918 C919 1.327 . S
C919 H913 0.950 . S
C919 C918 1.327 . S
C919 C923 1.429 . S
C920 C903 1.574 . S
C920 H914 0.949 . S
C920 C924 1.368 . S
C921 C902 1.429 . S
C921 C915 1.429 . S
C921 C922 1.523 . S
C922 C903 1.368 . S
C922 C916 1.368 . S
C922 C921 1.523 . S
C923 C907 1.429 . S
C923 C919 1.429 . S
C923 C924 1.523 . S
C924 C908 1.368 . S
C924 C920 1.368 . S
C924 C923 1.523 . S
H925 C900 0.950 1_554 S
H926 C902 0.950 . S
H927 C903 0.949 . S
H928 C905 0.950 . S
H929 C907 0.950 . S
C930 C931 1.349 . S
C930 C932 1.327 . S
C930 H955 0.950 . S
C931 C930 1.349 . S
C931 C947 1.349 . S
C932 C930 1.327 . S
C932 C951 1.429 . S
C932 H956 0.950 . S
C933 C950 1.574 . S
C933 C952 1.368 . S
C933 H957 0.949 . S
H934 C938 0.949 . S
C935 C936 1.349 . S
C935 C937 1.327 . S
C935 H958 0.950 . S
C936 C935 1.349 . S
C936 C948 1.349 . S
C937 C935 1.327 . S
C937 C953 1.429 . S
C937 H959 0.950 . S
C938 H934 0.949 . S
C938 C946 1.574 . S
C938 C954 1.368 . S
H939 C947 0.950 . S
H940 C945 0.950 . S
H941 C946 0.949 . S
H942 C948 0.950 . S
H943 C949 0.950 . S
H944 C950 0.949 . S
C945 H940 0.950 . S
C945 C947 1.327 . S
C945 C951 1.429 . S
C946 C938 1.574 . S
C946 H941 0.949 . S
C946 C952 1.368 . S
C947 C931 1.349 . S
C947 H939 0.950 . S
C947 C945 1.327 . S
C948 C936 1.349 . S
C948 H942 0.950 . S
C948 C949 1.327 . S
C949 H943 0.950 . S
C949 C948 1.327 . S
C949 C953 1.429 . S
C950 C933 1.574 . S
C950 H944 0.949 . S
C950 C954 1.368 . S
C951 C932 1.429 . S
C951 C945 1.429 . S
C951 C952 1.523 . S
C952 C933 1.368 . S
C952 C946 1.368 . S
C952 C951 1.523 . S
C953 C937 1.429 . S
C953 C949 1.429 . S
C953 C954 1.523 . S
C954 C938 1.368 . S
C954 C950 1.368 . S
C954 C953 1.523 . S
H955 C930 0.950 . S
H956 C932 0.950 . S
H957 C933 0.949 . S
H958 C935 0.950 . S
H959 C937 0.950 . S
C960 C961 1.349 . S
C960 C962 1.327 . S
C960 H985 0.950 . S
C961 C960 1.349 . S
C961 C977 1.349 . S
C962 C960 1.327 . S
C962 C981 1.429 . S
C962 H986 0.950 . S
C963 C980 1.574 . S
C963 C982 1.368 . S
C963 H987 0.949 . S
H964 C968 0.949 . S
C965 C966 1.349 . S
C965 C967 1.327 . S
C965 H988 0.950 . S
C966 C965 1.349 . S
C966 C978 1.349 . S
C967 C965 1.327 . S
C967 C983 1.429 . S
C967 H989 0.950 . S
C968 H964 0.949 . S
C968 C976 1.574 . S
C968 C984 1.368 . S
H969 C977 0.950 . S
H970 C975 0.950 . S
H971 C976 0.949 . S
H972 C978 0.950 . S
H973 C979 0.950 . S
H974 C980 0.949 . S
C975 H970 0.950 . S
C975 C977 1.327 . S
C975 C981 1.429 . S
C976 C968 1.574 . S
C976 H971 0.949 . S
C976 C982 1.368 . S
C977 C961 1.349 . S
C977 H969 0.950 . S
C977 C975 1.327 . S
C978 C966 1.349 . S
C978 H972 0.950 . S
C978 C979 1.327 . S
C979 H973 0.950 . S
C979 C978 1.327 . S
C979 C983 1.429 . S
C980 C963 1.574 . S
C980 H974 0.949 . S
C980 C984 1.368 . S
C981 C962 1.429 . S
C981 C975 1.429 . S
C981 C982 1.523 . S
C982 C963 1.368 . S
C982 C976 1.368 . S
C982 C981 1.523 . S
C983 C967 1.429 . S
C983 C979 1.429 . S
C983 C984 1.523 . S
C984 C968 1.368 . S
C984 C980 1.368 . S
C984 C983 1.523 . S
H985 C960 0.950 . S
H986 C962 0.950 . S
H987 C963 0.949 . S
H988 C965 0.950 . S
H989 C967 0.950 . S
C990 C991 1.349 . S
C990 C992 1.327 . S
C990 H1015 0.950 . S
C991 C990 1.349 . S
C991 C1007 1.349 . S
C992 C990 1.327 . S
C992 C1011 1.429 . S
C992 H1016 0.950 . S
C993 C1010 1.574 . S
C993 C1012 1.368 . S
C993 H1017 0.949 . S
H994 C998 0.949 . S
C995 C996 1.349 . S
C995 C997 1.327 . S
C995 H1018 0.950 . S
C996 C995 1.349 . S
C996 C1008 1.349 . S
C997 C995 1.327 . S
C997 C1013 1.429 . S
C997 H1019 0.950 . S
C998 H994 0.949 . S
C998 C1006 1.574 . S
C998 C1014 1.368 . S
H999 C1007 0.950 . S
H1000 C1005 0.950 . S
H1001 C1006 0.949 . S
H1002 C1008 0.950 . S
H1003 C1009 0.950 . S
H1004 C1010 0.949 . S
C1005 H1000 0.950 . S
C1005 C1007 1.327 . S
C1005 C1011 1.429 . S
C1006 C998 1.574 . S
C1006 H1001 0.949 . S
C1006 C1012 1.368 . S
C1007 C991 1.349 . S
C1007 H999 0.950 . S
C1007 C1005 1.327 . S
C1008 C996 1.349 . S
C1008 H1002 0.950 . S
C1008 C1009 1.327 . S
C1009 H1003 0.950 . S
C1009 C1008 1.327 . S
C1009 C1013 1.429 . S
C1010 C993 1.574 . S
C1010 H1004 0.949 . S
C1010 C1014 1.368 . S
C1011 C992 1.429 . S
C1011 C1005 1.429 . S
C1011 C1012 1.523 . S
C1012 C993 1.368 . S
C1012 C1006 1.368 . S
C1012 C1011 1.523 . S
C1013 C997 1.429 . S
C1013 C1009 1.429 . S
C1013 C1014 1.523 . S
C1014 C998 1.368 . S
C1014 C1010 1.368 . S
C1014 C1013 1.523 . S
H1015 C990 0.950 . S
H1016 C992 0.950 . S
H1017 C993 0.949 . S
H1018 C995 0.950 . S
H1019 C997 0.950 . S
C1020 C1021 1.349 . S
C1020 C1022 1.327 . S
C1020 H1045 0.950 . S
C1021 C1020 1.349 . S
C1021 C1037 1.349 . S
C1022 C1020 1.327 . S
C1022 C1041 1.429 . S
C1022 H1046 0.950 . S
C1023 C1040 1.574 . S
C1023 C1042 1.368 . S
C1023 H1047 0.949 . S
H1024 C1028 0.949 . S
C1025 C1026 1.349 . S
C1025 C1027 1.327 . S
C1025 H1048 0.950 . S
C1026 C1025 1.349 . S
C1026 C1038 1.349 . S
C1027 C1025 1.327 . S
C1027 C1043 1.429 . S
C1027 H1049 0.950 . S
C1028 H1024 0.949 . S
C1028 C1036 1.574 . S
C1028 C1044 1.368 . S
H1029 C1037 0.950 . S
H1030 C1035 0.950 . S
H1031 C1036 0.949 . S
H1032 C1038 0.950 . S
H1033 C1039 0.950 . S
H1034 C1040 0.949 . S
C1035 H1030 0.950 . S
C1035 C1037 1.327 . S
C1035 C1041 1.429 . S
C1036 C1028 1.574 . S
C1036 H1031 0.949 . S
C1036 C1042 1.368 . S
C1037 C1021 1.349 . S
C1037 H1029 0.950 . S
C1037 C1035 1.327 . S
C1038 C1026 1.349 . S
C1038 H1032 0.950 . S
C1038 C1039 1.327 . S
C1039 H1033 0.950 . S
C1039 C1038 1.327 . S
C1039 C1043 1.429 . S
C1040 C1023 1.574 . S
C1040 H1034 0.949 . S
C1040 C1044 1.368 . S
C1041 C1022 1.429 . S
C1041 C1035 1.429 . S
C1041 C1042 1.523 . S
C1042 C1023 1.368 . S
C1042 C1036 1.368 . S
C1042 C1041 1.523 . S
C1043 C1027 1.429 . S
C1043 C1039 1.429 . S
C1043 C1044 1.523 . S
C1044 C1028 1.368 . S
C1044 C1040 1.368 . S
C1044 C1043 1.523 . S
H1045 C1020 0.950 . S
H1046 C1022 0.950 . S
H1047 C1023 0.949 . S
H1048 C1025 0.950 . S
H1049 C1027 0.950 . S
C1050 C1051 1.349 . S
C1050 C1052 1.327 . S
C1050 H1075 0.950 . S
C1051 C1050 1.349 . S
C1051 C1067 1.349 . S
C1052 C1050 1.327 . S
C1052 C1071 1.429 . S
C1052 H1076 0.950 . S
C1053 C1070 1.574 . S
C1053 C1072 1.368 . S
C1053 H1077 0.949 . S
H1054 C1058 0.949 . S
C1055 C1056 1.349 . S
C1055 C1057 1.327 . S
C1055 H1078 0.950 . S
C1056 C1055 1.349 . S
C1056 C1068 1.349 . S
C1057 C1055 1.327 . S
C1057 C1073 1.429 . S
C1057 H1079 0.950 . S
C1058 H1054 0.949 . S
C1058 C1066 1.574 . S
C1058 C1074 1.368 . S
H1059 C1067 0.950 . S
H1060 C1065 0.950 . S
H1061 C1066 0.949 . S
H1062 C1068 0.950 . S
H1063 C1069 0.950 . S
H1064 C1070 0.949 . S
C1065 H1060 0.950 . S
C1065 C1067 1.327 . S
C1065 C1071 1.429 . S
C1066 C1058 1.574 . S
C1066 H1061 0.949 . S
C1066 C1072 1.368 . S
C1067 C1051 1.349 . S
C1067 H1059 0.950 . S
C1067 C1065 1.327 . S
C1068 C1056 1.349 . S
C1068 H1062 0.950 . S
C1068 C1069 1.327 . S
C1069 H1063 0.950 . S
C1069 C1068 1.327 . S
C1069 C1073 1.429 . S
C1070 C1053 1.574 . S
C1070 H1064 0.949 . S
C1070 C1074 1.368 . S
C1071 C1052 1.429 . S
C1071 C1065 1.429 . S
C1071 C1072 1.523 . S
C1072 C1053 1.368 . S
C1072 C1066 1.368 . S
C1072 C1071 1.523 . S
C1073 C1057 1.429 . S
C1073 C1069 1.429 . S
C1073 C1074 1.523 . S
C1074 C1058 1.368 . S
C1074 C1070 1.368 . S
C1074 C1073 1.523 . S
H1075 C1050 0.950 . S
H1076 C1052 0.950 . S
H1077 C1053 0.949 . S
H1078 C1055 0.950 . S
H1079 C1057 0.950 . S
C1080 C1081 1.349 . S
C1080 C1082 1.327 . S
C1080 H1105 0.950 . S
C1081 C1080 1.349 . S
C1081 C1097 1.349 . S
C1082 C1080 1.327 . S
C1082 C1101 1.429 . S
C1082 H1106 0.950 . S
C1083 C1100 1.574 . S
C1083 C1102 1.368 . S
C1083 H1107 0.949 . S
H1084 C1088 0.949 . S
C1085 C1086 1.349 . S
C1085 C1087 1.327 . S
C1085 H1108 0.950 . S
C1086 C1085 1.349 . S
C1086 C1098 1.349 . S
C1087 C1085 1.327 . S
C1087 C1103 1.429 . S
C1087 H1109 0.950 . S
C1088 H1084 0.949 . S
C1088 C1096 1.574 . S
C1088 C1104 1.368 . S
H1089 C1097 0.950 . S
H1090 C1095 0.950 . S
H1091 C1096 0.949 . S
H1092 C1098 0.950 . S
H1093 C1099 0.950 . S
H1094 C1100 0.949 . S
C1095 H1090 0.950 . S
C1095 C1097 1.327 . S
C1095 C1101 1.429 . S
C1096 C1088 1.574 . S
C1096 H1091 0.949 . S
C1096 C1102 1.368 . S
C1097 C1081 1.349 . S
C1097 H1089 0.950 . S
C1097 C1095 1.327 . S
C1098 C1086 1.349 . S
C1098 H1092 0.950 . S
C1098 C1099 1.327 . S
C1099 H1093 0.950 . S
C1099 C1098 1.327 . S
C1099 C1103 1.429 . S
C1100 C1083 1.574 . S
C1100 H1094 0.949 . S
C1100 C1104 1.368 . S
C1101 C1082 1.429 . S
C1101 C1095 1.429 . S
C1101 C1102 1.523 . S
C1102 C1083 1.368 . S
C1102 C1096 1.368 . S
C1102 C1101 1.523 . S
C1103 C1087 1.429 . S
C1103 C1099 1.429 . S
C1103 C1104 1.523 . S
C1104 C1088 1.368 . S
C1104 C1100 1.368 . S
C1104 C1103 1.523 . S
H1105 C1080 0.950 . S
H1106 C1082 0.950 . S
H1107 C1083 0.949 . S
H1108 C1085 0.950 . S
H1109 C1087 0.950 . S
C1110 C1111 1.349 . S
C1110 C1112 1.327 . S
C1110 H1135 0.950 . S
C1111 C1110 1.349 . S
C1111 C1127 1.349 . S
C1112 C1110 1.327 . S
C1112 C1131 1.429 . S
C1112 H1136 0.950 . S
C1113 C1130 1.574 . S
C1113 C1132 1.368 . S
C1113 H1137 0.949 . S
H1114 C1118 0.949 . S
C1115 C1116 1.349 . S
C1115 C1117 1.327 . S
C1115 H1138 0.950 . S
C1116 C1115 1.349 . S
C1116 C1128 1.349 . S
C1117 C1115 1.327 . S
C1117 C1133 1.429 . S
C1117 H1139 0.950 . S
C1118 H1114 0.949 . S
C1118 C1126 1.574 . S
C1118 C1134 1.368 . S
H1119 C1127 0.950 . S
H1120 C1125 0.950 . S
H1121 C1126 0.949 . S
H1122 C1128 0.950 . S
H1123 C1129 0.950 . S
H1124 C1130 0.949 . S
C1125 H1120 0.950 . S
C1125 C1127 1.327 . S
C1125 C1131 1.429 . S
C1126 C1118 1.574 . S
C1126 H1121 0.949 . S
C1126 C1132 1.368 . S
C1127 C1111 1.349 . S
C1127 H1119 0.950 . S
C1127 C1125 1.327 . S
C1128 C1116 1.349 . S
C1128 H1122 0.950 . S
C1128 C1129 1.327 . S
C1129 H1123 0.950 . S
C1129 C1128 1.327 . S
C1129 C1133 1.429 . S
C1130 C1113 1.574 . S
C1130 H1124 0.949 . S
C1130 C1134 1.368 . S
C1131 C1112 1.429 . S
C1131 C1125 1.429 . S
C1131 C1132 1.523 . S
C1132 C1113 1.368 . S
C1132 C1126 1.368 . S
C1132 C1131 1.523 . S
C1133 C1117 1.429 . S
C1133 C1129 1.429 . S
C1133 C1134 1.523 . S
C1134 C1118 1.368 . S
C1134 C1130 1.368 . S
C1134 C1133 1.523 . S
H1135 C1110 0.950 . S
H1136 C1112 0.950 . S
H1137 C1113 0.949 . S
H1138 C1115 0.950 . S
H1139 C1117 0.950 . S
C1140 C1141 1.349 . S
C1140 C1142 1.327 . S
C1140 H1165 0.950 . S
C1141 C1140 1.349 . S
C1141 C1157 1.349 . S
C1142 C1140 1.327 . S
C1142 C1161 1.429 . S
C1142 H1166 0.950 . S
C1143 C1160 1.574 . S
C1143 C1162 1.368 . S
C1143 H1167 0.949 . S
H1144 C1148 0.949 . S
C1145 C1146 1.349 . S
C1145 C1147 1.327 . S
C1145 H1168 0.950 . S
C1146 C1145 1.349 . S
C1146 C1158 1.349 . S
C1147 C1145 1.327 . S
C1147 C1163 1.429 . S
C1147 H1169 0.950 . S
C1148 H1144 0.949 . S
C1148 C1156 1.574 . S
C1148 C1164 1.368 . S
H1149 C1157 0.950 . S
H1150 C1155 0.950 . S
H1151 C1156 0.949 . S
H1152 C1158 0.950 . S
H1153 C1159 0.950 . S
H1154 C1160 0.949 . S
C1155 H1150 0.950 . S
C1155 C1157 1.327 . S
C1155 C1161 1.429 . S
C1156 C1148 1.574 . S
C1156 H1151 0.949 . S
C1156 C1162 1.368 . S
C1157 C1141 1.349 . S
C1157 H1149 0.950 . S
C1157 C1155 1.327 . S
C1158 C1146 1.349 . S
C1158 H1152 0.950 . S
C1158 C1159 1.327 . S
C1159 H1153 0.950 . S
C1159 C1158 1.327 . S
C1159 C1163 1.429 . S
C1160 C1143 1.574 . S
C1160 H1154 0.949 . S
C1160 C1164 1.368 . S
C1161 C1142 1.429 . S
C1161 C1155 1.429 . S
C1161 C1162 1.523 . S
C1162 C1143 1.368 . S
C1162 C1156 1.368 . S
C1162 C1161 1.523 . S
C1163 C1147 1.429 . S
C1163 C1159 1.429 . S
C1163 C1164 1.523 . S
C1164 C1148 1.368 . S
C1164 C1160 1.368 . S
C1164 C1163 1.523 . S
H1165 C1140 0.950 . S
H1166 C1142 0.950 . S
H1167 C1143 0.949 . S
H1168 C1145 0.950 . S
H1169 C1147 0.950 . S
C1170 C1171 1.349 . S
C1170 C1172 1.327 . S
C1170 H1195 0.950 . S
C1171 C1170 1.349 . S
C1171 C1187 1.349 . S
C1172 C1170 1.327 . S
C1172 C1191 1.429 . S
C1172 H1196 0.950 . S
C1173 C1190 1.574 . S
C1173 C1192 1.368 . S
C1173 H1197 0.949 . S
H1174 C1178 0.949 . S
C1175 C1176 1.349 . S
C1175 C1177 1.327 . S
C1175 H1198 0.950 . S
C1176 C1175 1.349 . S
C1176 C1188 1.349 . S
C1177 C1175 1.327 . S
C1177 C1193 1.429 . S
C1177 H1199 0.950 . S
C1178 H1174 0.949 . S
C1178 C1186 1.574 . S
C1178 C1194 1.368 . S
H1179 C1187 0.950 . S
H1180 C1185 0.950 . S
H1181 C1186 0.949 . S
H1182 C1188 0.950 . S
H1183 C1189 0.950 . S
H1184 C1190 0.949 . S
C1185 H1180 0.950 . S
C1185 C1187 1.327 . S
C1185 C1191 1.429 . S
C1186 C1178 1.574 . S
C1186 H1181 0.949 . S
C1186 C1192 1.368 . S
C1187 C1171 1.349 . S
C1187 H1179 0.950 . S
C1187 C1185 1.327 . S
C1188 C1176 1.349 . S
C1188 H1182 0.950 . S
C1188 C1189 1.327 . S
C1189 H1183 0.950 . S
C1189 C1188 1.327 . S
C1189 C1193 1.429 . S
C1190 C1173 1.574 . S
C1190 H1184 0.949 . S
C1190 C1194 1.368 . S
C1191 C1172 1.429 . S
C1191 C1185 1.429 . S
C1191 C1192 1.523 . S
C1192 C1173 1.368 . S
C1192 C1186 1.368 . S
C1192 C1191 1.523 . S
C1193 C1177 1.429 . S
C1193 C1189 1.429 . S
C1193 C1194 1.523 . S
C1194 C1178 1.368 . S
C1194 C1190 1.368 . S
C1194 C1193 1.523 . S
H1195 C1170 0.950 . S
H1196 C1172 0.950 . S
H1197 C1173 0.949 . S
H1198 C1175 0.950 . S
H1199 C1177 0.950 . S
C481 C255 2.756 . S
C486 C351 2.921 . S
C516 C377 2.098 . S
C511 C295 1.952 . S
C546 C417 2.224 . S
C541 C175 2.085 . S
C576 C471 2.810 . S
C571 C215 2.681 . S
C606 C332 2.921 . S
C601 C95 2.749 . S
C631 C135 1.957 . S
C636 C362 2.097 . S
C661 C15 2.078 . S
C666 C402 2.224 . S
C691 C55 2.677 . S
C696 C452 2.810 1_655 S
C726 C328 0.289 . S
C721 C221 0.289 . S
C756 C389 0.502 . S
C751 C261 0.478 . S
C786 C429 0.245 . S
C781 C301 0.324 . S
C811 C181 0.431 . S
C816 C448 0.377 . S
C841 C61 0.555 . S
C846 C349 0.289 . S
C876 C368 0.502 . S
C871 C101 0.564 . S
C906 C408 0.245 . S
C901 C141 0.230 . S
C931 C21 0.727 . S
C936 C469 0.377 . S
C961 C202 2.522 . S
C966 C322 2.737 . S
C991 C242 3.374 . S
C996 C372 3.590 . S
C1026 C412 3.202 . S
C1021 C282 2.952 . S
C1056 C442 2.457 . S
C1051 C162 2.297 . S
C1081 C42 2.480 . S
C1086 C337 2.737 . S
C1116 C391 3.590 . S
C1111 C82 3.312 . S
C1146 C431 3.202 . S
C1141 C122 3.019 . S
C1171 C2 2.224 . S
C1176 C457 2.457 . S
